
#######################################################################
#
#                 Cambridge Crystallographic Data Centre
#                                CCDC 
#
#######################################################################
#
# If this CIF has been generated from an entry in the Cambridge 
# Structural Database, then it will include bibliographic, chemical, 
# crystal, experimental, refinement or atomic coordinate data resulting 
# from the CCDC's data processing and validation procedures.
#
#######################################################################

data_FIKNUJ
_symmetry_cell_setting           triclinic
_symmetry_space_group_name_H-M   'P -1'
_symmetry_Int_Tables_number      2
_space_group_name_Hall           '-P 1'
loop_
_symmetry_equiv_pos_site_id
_symmetry_equiv_pos_as_xyz
1 x,y,z
2 -x,-y,-z
_cell_length_a                   7.7656(5)
_cell_length_b                   7.9258(6)
_cell_length_c                   7.5144(5)
_cell_angle_alpha                97.499(4)
_cell_angle_beta                 91.663(3)
_cell_angle_gamma                112.495(4)
_cell_volume                     422.079
loop_
_atom_site_label
_atom_site_type_symbol
_atom_site_fract_x
_atom_site_fract_y
_atom_site_fract_z
Cu1 Cu 1.0000 0.5000 0.5000
Fe1 Fe 1.0000 1.0000 1.0000
O1 O 1.0697(3) 0.7435(4) 0.6357(3)
O2 O 0.9477(4) 0.9524(3) 0.7137(3)
O3 O 0.4240(4) 0.8984(4) 0.2272(4)
O4 O 0.1967(4) 0.6188(4) 0.2243(4)
O5 O 1.0530(4) 1.2837(3) 0.9720(3)
O6 O 1.2857(3) 1.0568(4) 1.0037(4)
N1 N 0.7902(4) 0.5480(4) 0.3989(4)
C1 C 0.7932(4) 0.7126(4) 0.4737(4)
C2 C 0.6599(5) 0.7774(5) 0.4275(5)
C3 C 0.5114(4) 0.6624(5) 0.3027(4)
C4 C 0.5069(5) 0.4917(5) 0.2295(5)
C5 C 0.6499(5) 0.4389(5) 0.2781(5)
C6 C 0.9482(4) 0.8133(5) 0.6190(4)
C7 C 0.3635(5) 0.7316(5) 0.2464(5)
H1 H 0.6684 0.8967 0.4789
H2 H 0.4059 0.4106 0.1459
H3 H 0.6481 0.3228 0.2244
Fe1_2 Fe 1.0000 0.0000 0.0000
O1A O 0.9303(3) 0.2565(4) 0.3643(3)
O2A O 1.0523(4) 1.0476(3) 1.2863(3)
O2A_2 O 1.0523(4) 0.0476(3) 0.2863(3)
O3A O 1.5760(4) 0.1016(4) 0.7728(4)
O4A O 1.8033(4) 0.3812(4) 0.7757(4)
O5A O 0.9470(4) 0.7163(3) 1.0280(3)
O6A O 0.7143(3) 0.9432(4) 0.9963(4)
N1A N 1.2098(4) 0.4520(4) 0.6011(4)
C1A C 1.2068(4) 0.2874(4) 0.5263(4)
C2A C 1.3401(5) 0.2226(5) 0.5725(5)
C3A C 1.4886(4) 0.3376(5) 0.6973(4)
C4A C 1.4931(5) 0.5083(5) 0.7705(5)
C5A C 1.3501(5) 0.5611(5) 0.7219(5)
C6A C 1.0518(4) 0.1867(5) 0.3810(4)
C7A C 1.6365(5) 0.2684(5) 0.7536(5)
H1A H 1.3316 0.1033 0.5211
H2A H 1.5941 0.5894 0.8541
H3A H 1.3519 0.6772 0.7756
loop_
_geom_bond_atom_site_label_1
_geom_bond_atom_site_label_2
_geom_bond_site_symmetry_1
_geom_bond_site_symmetry_2
Cu1 O1 1_555 1_555
Fe1 O2 1_555 1_555
O1 C6 1_555 1_555
O2 C6 1_555 1_555
O3 C7 1_555 1_555
O4 C7 1_555 1_555
O5 Fe1 1_555 1_555
O6 Fe1 1_555 1_555
N1 Cu1 1_555 1_555
C1 N1 1_555 1_555
C2 C1 1_555 1_555
C3 C2 1_555 1_555
C4 C3 1_555 1_555
C5 N1 1_555 1_555
C6 C1 1_555 1_555
C7 C3 1_555 1_555
H1 C2 1_555 1_555
H2 C4 1_555 1_555
H3 C5 1_555 1_555
Fe1_2 O2A_2 1_555 1_555
O1A Cu1 1_555 1_555
O2A Fe1 1_555 1_555
O2A_2 C6A 1_555 1_555
O3A C7A 1_555 1_555
O4A C7A 1_555 1_555
O5A Fe1 1_555 1_555
O6A Fe1 1_555 1_555
N1A Cu1 1_555 1_555
C1A N1A 1_555 1_555
C2A C1A 1_555 1_555
C3A C2A 1_555 1_555
C4A C3A 1_555 1_555
C5A N1A 1_555 1_555
C6A O1A 1_555 1_555
C7A C3A 1_555 1_555
H1A C2A 1_555 1_555
H2A C4A 1_555 1_555
H3A C5A 1_555 1_555
C4 C5 1_555 1_555
C1A C6A 1_555 1_555
C4A C5A 1_555 1_555

#END
