
#######################################################################
#
#                 Cambridge Crystallographic Data Centre
#                                CCDC 
#
#######################################################################
#
# If this CIF has been generated from an entry in the Cambridge 
# Structural Database, then it will include bibliographic, chemical, 
# crystal, experimental, refinement or atomic coordinate data resulting 
# from the CCDC's data processing and validation procedures.
#
#######################################################################

data_FIKPAR
_symmetry_cell_setting           orthorhombic
_symmetry_space_group_name_H-M   'F d d 2'
_symmetry_Int_Tables_number      43
_space_group_name_Hall           'F 2 -2d'
loop_
_symmetry_equiv_pos_site_id
_symmetry_equiv_pos_as_xyz
1 x,y,z
2 -x,-y,z
3 1/4-x,1/4+y,1/4+z
4 1/4+x,1/4-y,1/4+z
5 x,1/2+y,1/2+z
6 -x,1/2-y,1/2+z
7 1/4-x,3/4+y,3/4+z
8 1/4+x,3/4-y,3/4+z
9 1/2+x,y,1/2+z
10 1/2-x,-y,1/2+z
11 3/4-x,1/4+y,3/4+z
12 3/4+x,1/4-y,3/4+z
13 1/2+x,1/2+y,z
14 1/2-x,1/2-y,z
15 3/4-x,3/4+y,1/4+z
16 3/4+x,3/4-y,1/4+z
_cell_length_a                   35.954(2)
_cell_length_b                   56.323(2)
_cell_length_c                   5.1710(2)
_cell_angle_alpha                90
_cell_angle_beta                 90
_cell_angle_gamma                90
_cell_volume                     10471.5
loop_
_atom_site_label
_atom_site_type_symbol
_atom_site_fract_x
_atom_site_fract_y
_atom_site_fract_z
Cu1 Cu 0.26483(2) 0.11987(1) -0.228(5)
Cu2 Cu 0.39029(2) 0.00503(1) 0.486(5)
O1 O 0.2308(1) 0.11343(7) 0.060(5)
O2 O 0.2282(1) 0.09255(8) 0.423(5)
O3 O 0.3263(1) 0.02669(7) 0.510(5)
O4 O 0.3701(1) 0.02462(7) 0.213(5)
O5 O 0.2982(1) 0.12663(7) -0.511(5)
O6 O 0.3014(1) 0.14890(8) -0.868(5)
O7 O 0.2113(1) 0.22144(8) -0.861(5)
O8 O 0.1628(1) 0.21762(7) -0.605(5)
N1 N 0.2923(1) 0.09231(8) -0.091(5)
N2 N 0.2384(2) 0.14811(9) -0.348(5)
N3 N 0.4123(1) -0.01719(8) 0.745(5)
N4 N 0.3636(1) -0.02402(8) 0.381(5)
C1 C 0.2758(2) 0.08342(10) 0.126(5)
C2 C 0.2900(2) 0.06393(10) 0.251(5)
C3 C 0.3224(2) 0.0535(1) 0.156(5)
C4 C 0.3391(2) 0.0629(1) -0.063(5)
C5 C 0.3232(2) 0.0824(1) -0.183(5)
C6 C 0.2423(2) 0.0971(1) 0.213(5)
C7 C 0.3401(2) 0.0333(1) 0.305(5)
C8 C 0.2538(2) 0.1575(1) -0.558(5)
C9 C 0.2401(2) 0.1778(1) -0.675(5)
C10 C 0.2104(2) 0.18928(10) -0.568(5)
C11 C 0.1945(2) 0.1799(1) -0.349(5)
C12 C 0.2083(2) 0.1584(1) -0.244(5)
C13 C 0.2874(2) 0.1437(1) -0.658(5)
C14 C 0.1945(2) 0.2114(1) -0.696(5)
C15 C 0.4003(2) -0.03978(10) 0.731(5)
C16 C 0.4134(2) -0.0573(1) 0.889(5)
C17 C 0.4399(2) -0.0519(1) 1.070(5)
C18 C 0.4526(2) -0.0291(1) 1.087(5)
C19 C 0.4384(2) -0.0125(1) 0.924(5)
C20 C 0.3713(2) -0.04360(10) 0.529(5)
C21 C 0.3534(2) -0.0652(1) 0.490(5)
C22 C 0.3262(2) -0.0658(1) 0.298(5)
C23 C 0.3189(2) -0.0472(1) 0.149(5)
C24 C 0.3386(2) -0.0258(1) 0.193(5)
H1 H 0.2782 0.0578 0.4045
H2 H 0.3613 0.0561 -0.1261
H3 H 0.3347 0.0889 -0.3285
H4 H 0.2515 0.1837 -0.8238
H5 H 0.1743 0.1879 -0.2641
H6 H 0.1965 0.1514 -0.0961
H7 H 0.4041 -0.0729 0.8763
H8 H 0.4493 -0.0638 1.1855
H9 H 0.4710 -0.0250 1.2144
H10 H 0.4471 0.0034 0.9425
H11 H 0.3600 -0.0789 0.5899
H12 H 0.3120 -0.0798 0.2796
H13 H 0.3013 -0.0484 0.0170
H14 H 0.3335 -0.0124 0.0898
Cu2K Cu 0.14029(2) 0.24497(1) -0.764(5)
O8C O 0.4128(1) 0.03238(7) 0.645(5)
O9 O 0.3743(2) 0.1251(1) 0.105(5)
O10 O 0.1534(2) 0.1176(2) 0.367(5)
O11 O 0.2282(4) 0.0006(3) 0.263(7)
loop_
_geom_bond_atom_site_label_1
_geom_bond_atom_site_label_2
_geom_bond_site_symmetry_1
_geom_bond_site_symmetry_2
Cu1 O1 1_555 1_555
Cu2 O4 1_555 1_555
O1 C6 1_555 1_555
O2 C6 1_555 1_555
O3 C7 1_555 1_555
O4 C7 1_555 1_555
O5 Cu1 1_555 1_555
O6 C13 1_555 1_555
O7 C14 1_555 1_555
O8 C14 1_555 1_555
N1 Cu1 1_555 1_555
N2 Cu1 1_555 1_555
N3 Cu2 1_555 1_555
N4 Cu2 1_555 1_555
C1 N1 1_555 1_555
C2 C1 1_555 1_555
C3 C2 1_555 1_555
C4 C3 1_555 1_555
C5 N1 1_555 1_555
C6 C1 1_555 1_555
C7 C3 1_555 1_555
C8 N2 1_555 1_555
C9 C8 1_555 1_555
C10 C9 1_555 1_555
C11 C10 1_555 1_555
C12 N2 1_555 1_555
C13 O5 1_555 1_555
C14 C10 1_555 1_555
C15 N3 1_555 1_555
C16 C15 1_555 1_555
C17 C16 1_555 1_555
C18 C17 1_555 1_555
C19 N3 1_555 1_555
C20 N4 1_555 1_555
C21 C20 1_555 1_555
C22 C21 1_555 1_555
C23 C22 1_555 1_555
C24 N4 1_555 1_555
H1 C2 1_555 1_555
H2 C4 1_555 1_555
H3 C5 1_555 1_555
H4 C9 1_555 1_555
H5 C11 1_555 1_555
H6 C12 1_555 1_555
H7 C16 1_555 1_555
H8 C17 1_555 1_555
H9 C18 1_555 1_555
H10 C19 1_555 1_555
H11 C21 1_555 1_555
H12 C22 1_555 1_555
H13 C23 1_555 1_555
H14 C24 1_555 1_555
Cu2K O8 1_555 1_555
O8C Cu2 1_555 1_555
C4 C5 1_555 1_555
C8 C13 1_555 1_555
C11 C12 1_555 1_555
C15 C20 1_555 1_555
C18 C19 1_555 1_555
C23 C24 1_555 1_555

#END
