
#######################################################################
#
#                 Cambridge Crystallographic Data Centre
#                                CCDC 
#
#######################################################################
#
# If this CIF has been generated from an entry in the Cambridge 
# Structural Database, then it will include bibliographic, chemical, 
# crystal, experimental, refinement or atomic coordinate data resulting 
# from the CCDC's data processing and validation procedures.
#
#######################################################################

data_FIKQUN
_symmetry_cell_setting           monoclinic
_symmetry_space_group_name_H-M   'C 2/c'
_symmetry_Int_Tables_number      15
_space_group_name_Hall           '-C 2yn'
loop_
_symmetry_equiv_pos_site_id
_symmetry_equiv_pos_as_xyz
1 x,y,z
2 -x,y,1/2-z
3 1/2+x,1/2+y,z
4 1/2-x,1/2+y,1/2-z
5 -x,-y,-z
6 x,-y,1/2+z
7 1/2-x,1/2-y,-z
8 1/2+x,1/2-y,1/2+z
_cell_length_a                   26.173(4)
_cell_length_b                   15.123(2)
_cell_length_c                   17.514(2)
_cell_angle_alpha                90
_cell_angle_beta                 115.003(2)
_cell_angle_gamma                90
_cell_volume                     6282.64
loop_
_atom_site_label
_atom_site_type_symbol
_atom_site_fract_x
_atom_site_fract_y
_atom_site_fract_z
C1 C 0.02371(9) 0.8521(3) 0.0276(2)
H1 H 0.0222 0.8688 0.0777
C2 C -0.02540(9) 0.8286(3) -0.0417(2)
H2 H -0.0598 0.8296 -0.0380
C3 C -0.02310(10) 0.8038(2) -0.1166(2)
H3 H -0.0560 0.7880 -0.1630
C4 C 0.02831(11) 0.8024(3) -0.12222(18)
H4 H 0.0298 0.7857 -0.1723
C5 C 0.07741(10) 0.8259(2) -0.05294(17)
N1 N 0.07511(9) 0.85076(18) 0.02195(17)
C6 C 0.40908(9) 0.9231(2) 0.3088(3)
H5 H 0.4284 0.8722 0.3069
C7 C 0.35052(9) 0.92584(19) 0.2707(2)
C8 C 0.32242(9) 1.00214(18) 0.27555(17)
H6 H 0.2832 1.0040 0.2500
C9 C 0.35289(11) 1.0757(2) 0.3185(2)
Er1 Er 0.174122(10) 0.870848(15) 0.146814(16)
Er2 Er 0.186855(10) 1.133652(15) 0.307245(16)
C10 C 0.1774(2) 1.0911(4) 0.1118(4)
O1 O 0.1665(2) 1.1350(3) 0.1648(3)
O2 O 0.18693(19) 1.0098(3) 0.1160(3)
C11 C 0.1797(2) 1.1403(4) 0.0382(4)
C12 C 0.1962(3) 1.1391(4) -0.0886(4)
C13 C 0.1922(2) 1.0948(4) -0.0210(4)
H7 H 0.1980 1.0340 -0.0156
C14 C 0.1862(2) 1.2295(4) -0.0977(4)
H8 H 0.1882 1.2600 -0.1425
C15 C 0.1705(3) 1.2309(4) 0.0295(4)
H9 H 0.1628 1.2626 0.0689
C16 C 0.1732(3) 1.2732(4) -0.0391(4)
N2 N 0.1644(3) 1.3696(3) -0.0466(4)
C17 C 0.2101(2) 1.0896(4) -0.1526(4)
O3 O 0.1669(3) 1.4075(4) -0.1069(4)
O4 O 0.1572(3) 1.4083(3) 0.0093(4)
O5 O 0.2172(2) 1.1345(3) -0.2075(3)
O6 O 0.21265(19) 1.0065(3) -0.1479(3)
C18 C 0.3169(2) 0.8456(4) 0.2245(4)
O7 O 0.26520(16) 0.8537(3) 0.1768(3)
O8 O 0.35042(18) 1.2296(3) 0.3432(3)
O9 O 0.34310(18) 0.7736(3) 0.2365(3)
O10 O 0.27117(18) 1.1521(3) 0.3048(3)
C19 C 0.3225(3) 1.1583(4) 0.3228(4)
C20 C 0.0424(2) 0.9306(4) 0.2386(4)
C21 C 0.0429(3) 0.8387(4) 0.2396(5)
H10 H 0.0715 0.8074 0.2335
C22 C 0.0000 0.7947(6) 0.2500
O11 O 0.10033(18) 1.0555(3) 0.2505(3)
C23 C 0.0886(2) 0.9780(4) 0.2249(4)
C24 C 0.0000 0.9765(5) 0.2500
H11 H 0.0000 1.0380 0.2500
N3 N 0.0000 0.6975(6) 0.2500
O12 O 0.0444(3) 0.6594(4) 0.2652(6)
O13 O 0.11193(13) 0.9337(2) 0.1892(2)
O14 O 0.25027(13) 1.1608(2) 0.4476(2)
H12 H 0.2852 1.1492 0.4741
H13 H 0.2330 1.1920 0.3826
C25 C 0.4109(3) 1.0734(4) 0.3570(5)
H14 H 0.4316 1.1217 0.3872
C26 C 0.4374(3) 0.9974(5) 0.3494(7)
N4 N 0.4996(3) 0.9926(6) 0.3912(8)
O15 O 0.5257(3) 1.0553(5) 0.4331(7)
O16 O 0.5221(3) 0.9282(6) 0.3785(8)
C27 C 0.1323(3) 0.8319(4) -0.0533(4)
O17 O 0.17457(18) 0.8437(3) 0.0174(3)
O18 O 0.13400(15) 0.8243(3) -0.1219(2)
C20A C -0.0424(2) 0.9306(4) 0.2614(4)
C21A C -0.0429(3) 0.8387(4) 0.2604(5)
H10A H -0.0715 0.8074 0.2665
O11A O -0.10033(18) 1.0555(3) 0.2495(3)
C23A C -0.0886(2) 0.9780(4) 0.2751(4)
O12A O -0.0444(3) 0.6594(4) 0.2348(6)
O13A O -0.11193(13) 0.9337(2) 0.3108(2)
C1A C -0.02371(9) 0.8521(3) 0.4724(2)
H1A H -0.0222 0.8688 0.4223
C2A C 0.02540(9) 0.8286(3) 0.5417(2)
H2A H 0.0598 0.8296 0.5380
C3A C 0.02310(10) 0.8038(2) 0.6166(2)
H3A H 0.0560 0.7880 0.6630
C4A C -0.02831(11) 0.8024(3) 0.62222(18)
H4A H -0.0298 0.7857 0.6723
C5A C -0.07741(10) 0.8259(2) 0.55294(17)
N1A N -0.07511(9) 0.85076(18) 0.47805(17)
C6A C -0.40908(9) 0.9231(2) 0.1912(3)
H5A H -0.4284 0.8722 0.1931
C7A C -0.35052(9) 0.92584(19) 0.2293(2)
C8A C -0.32242(9) 1.00214(18) 0.22445(17)
H6A H -0.2832 1.0040 0.2500
C9A C -0.35289(11) 1.0757(2) 0.1815(2)
Er1A Er -0.174122(10) 0.870848(15) 0.353186(16)
Er2A Er -0.186855(10) 1.133652(15) 0.192755(16)
C10A C -0.1774(2) 1.0911(4) 0.3882(4)
O1A O -0.1665(2) 1.1350(3) 0.3352(3)
O2A O -0.18693(19) 1.0098(3) 0.3840(3)
C11A C -0.1797(2) 1.1403(4) 0.4618(4)
C12A C -0.1962(3) 1.1391(4) 0.5886(4)
C13A C -0.1922(2) 1.0948(4) 0.5210(4)
H7A H -0.1980 1.0340 0.5156
C14A C -0.1862(2) 1.2295(4) 0.5977(4)
H8A H -0.1882 1.2600 0.6425
C15A C -0.1705(3) 1.2309(4) 0.4705(4)
H9A H -0.1628 1.2626 0.4311
C16A C -0.1732(3) 1.2732(4) 0.5391(4)
N2A N -0.1644(3) 1.3696(3) 0.5466(4)
C17A C -0.2101(2) 1.0896(4) 0.6526(4)
O3A O -0.1669(3) 1.4075(4) 0.6069(4)
O4A O -0.1572(3) 1.4083(3) 0.4907(4)
O5A O -0.2172(2) 1.1345(3) 0.7075(3)
O6A O -0.21265(19) 1.0065(3) 0.6479(3)
C18A C -0.3169(2) 0.8456(4) 0.2755(4)
O7A O -0.26520(16) 0.8537(3) 0.3232(3)
O8A O -0.35042(18) 1.2296(3) 0.1568(3)
O9A O -0.34310(18) 0.7736(3) 0.2635(3)
O10A O -0.27117(18) 1.1521(3) 0.1952(3)
C19A C -0.3225(3) 1.1583(4) 0.1772(4)
O14A O -0.25027(13) 1.1608(2) 0.0524(2)
H12A H -0.2852 1.1492 0.0259
H13A H -0.2330 1.1920 0.1174
C25A C -0.4109(3) 1.0734(4) 0.1430(5)
H14A H -0.4316 1.1217 0.1128
C26A C -0.4374(3) 0.9974(5) 0.1506(7)
N4A N -0.4996(3) 0.9926(6) 0.1088(8)
O15A O -0.5257(3) 1.0553(5) 0.0669(7)
O16A O -0.5221(3) 0.9282(6) 0.1215(8)
C27A C -0.1323(3) 0.8319(4) 0.5533(4)
O17A O -0.17457(18) 0.8437(3) 0.4826(3)
O18A O -0.13400(15) 0.8243(3) 0.6219(2)
Er1B Er -0.325878(10) 1.370848(15) 0.146814(16)
Er1C Er 0.325878(10) 1.370848(15) 0.353186(16)
Er1D Er -0.174122(10) 1.129152(15) 0.853186(16)
Er1E Er 0.174122(10) 1.129152(15) -0.353186(16)
Er2B Er -0.313145(10) 0.633652(15) 0.307245(16)
Er2C Er 0.313145(10) 0.633652(15) 0.192755(16)
Er2D Er -0.186855(10) 0.866348(15) 0.692755(16)
Er2E Er 0.186855(10) 0.866348(15) -0.192755(16)
O5D O -0.2172(2) 0.8655(3) 0.2075(3)
O5E O 0.2172(2) 0.8655(3) 0.2925(3)
O6D O -0.21265(19) 0.9935(3) 0.1479(3)
O6E O 0.21265(19) 0.9935(3) 0.3521(3)
O8B O -0.14958(18) 0.7296(3) 0.3432(3)
O8C O 0.14958(18) 0.7296(3) 0.1568(3)
O9B O -0.15690(18) 1.2736(3) 0.2365(3)
O9C O 0.15690(18) 1.2736(3) 0.2635(3)
O18D O -0.13400(15) 1.1757(3) 0.1219(2)
O18E O 0.13400(15) 1.1757(3) 0.3781(2)
O19 O 0.35741(15) 1.1019(3) 0.5249(2)
loop_
_geom_bond_atom_site_label_1
_geom_bond_atom_site_label_2
_geom_bond_site_symmetry_1
_geom_bond_site_symmetry_2
C1 H1 1_555 1_555
C2 C1 1_555 1_555
H2 C2 1_555 1_555
C3 C2 1_555 1_555
H3 C3 1_555 1_555
C4 C3 1_555 1_555
H4 C4 1_555 1_555
C5 C4 1_555 1_555
N1 C1 1_555 1_555
C6 H5 1_555 1_555
C7 C6 1_555 1_555
C8 C7 1_555 1_555
H6 C8 1_555 1_555
C9 C8 1_555 1_555
Er1 N1 1_555 1_555
Er2 O1 1_555 1_555
C10 O1 1_555 1_555
O2 Er1 1_555 1_555
C11 C10 1_555 1_555
C12 C13 1_555 1_555
C13 C11 1_555 1_555
H7 C13 1_555 1_555
C14 C12 1_555 1_555
H8 C14 1_555 1_555
C15 C11 1_555 1_555
H9 C15 1_555 1_555
C16 C14 1_555 1_555
N2 C16 1_555 1_555
C17 C12 1_555 1_555
O3 N2 1_555 1_555
O4 N2 1_555 1_555
O5 C17 1_555 1_555
O6 C17 1_555 1_555
C18 C7 1_555 1_555
O7 Er1 1_555 1_555
O8 C19 1_555 1_555
O9 C18 1_555 1_555
O10 Er2 1_555 1_555
C19 C9 1_555 1_555
C20 C21 1_555 1_555
C21 H10 1_555 1_555
C22 C21 1_555 1_555
O11 Er2 1_555 1_555
C23 C20 1_555 1_555
C24 C20 1_555 1_555
H11 C24 1_555 1_555
N3 C22 1_555 1_555
O12 N3 1_555 1_555
O13 Er1 1_555 1_555
O14 Er2 1_555 1_555
H12 O14 1_555 1_555
H13 O14 1_555 1_555
C25 C9 1_555 1_555
H14 C25 1_555 1_555
C26 C6 1_555 1_555
N4 C26 1_555 1_555
O15 N4 1_555 1_555
O16 N4 1_555 1_555
C27 C5 1_555 1_555
O17 Er1 1_555 1_555
O18 C27 1_555 1_555
C20A C24 1_555 1_555
C21A C22 1_555 1_555
H10A C21A 1_555 1_555
O11A C23A 1_555 1_555
C23A C20A 1_555 1_555
O12A N3 1_555 1_555
O13A C23A 1_555 1_555
C1A H1A 1_555 1_555
C2A C1A 1_555 1_555
H2A C2A 1_555 1_555
C3A C2A 1_555 1_555
H3A C3A 1_555 1_555
C4A C3A 1_555 1_555
H4A C4A 1_555 1_555
C5A C4A 1_555 1_555
N1A C1A 1_555 1_555
C6A H5A 1_555 1_555
C7A C6A 1_555 1_555
C8A C7A 1_555 1_555
H6A C8A 1_555 1_555
C9A C8A 1_555 1_555
Er1A O13A 1_555 1_555
Er2A O11A 1_555 1_555
C10A O1A 1_555 1_555
O1A Er2A 1_555 1_555
O2A Er1A 1_555 1_555
C11A C10A 1_555 1_555
C12A C13A 1_555 1_555
C13A C11A 1_555 1_555
H7A C13A 1_555 1_555
C14A C12A 1_555 1_555
H8A C14A 1_555 1_555
C15A C11A 1_555 1_555
H9A C15A 1_555 1_555
C16A C14A 1_555 1_555
N2A C16A 1_555 1_555
C17A C12A 1_555 1_555
O3A N2A 1_555 1_555
O4A N2A 1_555 1_555
O5A C17A 1_555 1_555
O6A C17A 1_555 1_555
C18A C7A 1_555 1_555
O7A Er1A 1_555 1_555
O8A C19A 1_555 1_555
O9A C18A 1_555 1_555
O10A Er2A 1_555 1_555
C19A C9A 1_555 1_555
O14A Er2A 1_555 1_555
H12A O14A 1_555 1_555
H13A O14A 1_555 1_555
C25A C9A 1_555 1_555
H14A C25A 1_555 1_555
C26A C6A 1_555 1_555
N4A C26A 1_555 1_555
O15A N4A 1_555 1_555
O16A N4A 1_555 1_555
C27A C5A 1_555 1_555
O17A Er1A 1_555 1_555
O18A C27A 1_555 1_555
Er1B O8A 1_555 1_555
Er1C O8 1_555 1_555
Er1D O5A 1_555 1_555
Er1E O5 1_555 1_555
Er2B O9A 1_555 1_555
Er2C O9 1_555 1_555
Er2D O6A 1_555 1_555
Er2E O6 1_555 1_555
O5D Er1A 1_555 1_555
O5E Er1 1_555 1_555
O6D Er2A 1_555 1_555
O6E Er2 1_555 1_555
O8B Er1A 1_555 1_555
O8C Er1 1_555 1_555
O9B Er2A 1_555 1_555
O9C Er2 1_555 1_555
O18D Er2A 1_555 1_555
O18E Er2 1_555 1_555
C5 N1 1_555 1_555
C10 O2 1_555 1_555
C15 C16 1_555 1_555
C18 O7 1_555 1_555
O10 C19 1_555 1_555
O11 C23 1_555 1_555
C23 O13 1_555 1_555
C25 C26 1_555 1_555
C27 O17 1_555 1_555
O18 Er2E 1_555 1_555
C20A C21A 1_555 1_555
C5A N1A 1_555 1_555
N1A Er1A 1_555 1_555
C10A O2A 1_555 1_555
C15A C16A 1_555 1_555
C18A O7A 1_555 1_555
O10A C19A 1_555 1_555
C25A C26A 1_555 1_555
C27A O17A 1_555 1_555
O18A Er2D 1_555 1_555

#END
