
#######################################################################
#
#                 Cambridge Crystallographic Data Centre
#                                CCDC 
#
#######################################################################
#
# If this CIF has been generated from an entry in the Cambridge 
# Structural Database, then it will include bibliographic, chemical, 
# crystal, experimental, refinement or atomic coordinate data resulting 
# from the CCDC's data processing and validation procedures.
#
#######################################################################

data_FIKQIB
_symmetry_cell_setting           triclinic
_symmetry_space_group_name_H-M   'P -1'
_symmetry_Int_Tables_number      2
_space_group_name_Hall           '-P 1'
loop_
_symmetry_equiv_pos_site_id
_symmetry_equiv_pos_as_xyz
1 x,y,z
2 -x,-y,-z
_cell_length_a                   9.4153(19)
_cell_length_b                   13.339(3)
_cell_length_c                   13.415(3)
_cell_angle_alpha                98.42(3)
_cell_angle_beta                 98.76(3)
_cell_angle_gamma                99.07(3)
_cell_volume                     1619.06
loop_
_atom_site_label
_atom_site_type_symbol
_atom_site_fract_x
_atom_site_fract_y
_atom_site_fract_z
Pb1 Pb 0.24960(9) 1.84039(4) 0.65964(4)
Pb2 Pb 0.0000 2.0000 0.5000
Pb3 Pb 0.5000 2.0000 0.5000
I1 I 0.5783(3) 1.86919(13) 0.67735(12)
I2 I -0.0784(3) 1.82244(12) 0.63058(13)
I3 I 0.20786(15) 1.84121(10) 0.40886(8)
I4 I 0.29185(15) 2.09096(8) 0.65862(10)
P1 P 0.1910(5) 1.5402(3) 0.6252(3)
P2 P 0.3086(5) 1.8750(3) 0.9599(3)
O1 O 0.2193(14) 1.6555(7) 0.6336(10)
O2 O 0.2826(13) 1.8659(10) 0.8439(8)
C1 C 0.3567(18) 1.4882(10) 0.6277(10)
C2 C 0.4875(19) 1.5574(14) 0.6640(12)
H1 H 0.4861 1.6275 0.6852
C3 C 0.615(3) 1.5249(17) 0.6689(15)
H2 H 0.7028 1.5722 0.6935
C4 C 0.618(3) 1.4207(18) 0.6376(17)
H3 H 0.7065 1.3961 0.6455
C5 C 0.491(3) 1.3568(15) 0.5960(14)
H4 H 0.4923 1.2877 0.5699
C6 C 0.363(2) 1.3880(12) 0.5907(14)
H5 H 0.2766 1.3410 0.5612
C7 C 0.0993(18) 1.5026(12) 0.7265(12)
C8 C 0.088(3) 1.3994(13) 0.7433(15)
H6 H 0.1353 1.3506 0.7099
C9 C -0.005(3) 1.3772(18) 0.8191(15)
H7 H -0.0270 1.3091 0.8308
C10 C -0.060(3) 1.449(2) 0.8712(16)
H8 H -0.1145 1.4309 0.9210
C11 C -0.041(4) 1.543(2) 0.8565(19)
H9 H -0.0855 1.5916 0.8929
C12 C 0.047(3) 1.5727(18) 0.7843(17)
H10 H 0.0679 1.6424 0.7775
C13 C 0.0690(19) 1.4791(11) 0.5072(10)
H11 H 0.1190 1.4890 0.4495
H12 H 0.0451 1.4049 0.5069
C14 C 0.1420(17) 1.8721(10) 1.0109(11)
C15 C 0.140(2) 1.9062(15) 1.1116(14)
H13 H 0.2278 1.9304 1.1585
C16 C 0.005(2) 1.9050(15) 1.1444(15)
H14 H 0.0028 1.9337 1.2123
C17 C -0.124(2) 1.8621(17) 1.0780(18)
H15 H -0.2136 1.8532 1.1014
C18 C -0.118(2) 1.8322(18) 0.9747(15)
H16 H -0.2048 1.8082 0.9269
C19 C 0.015(2) 1.8375(12) 0.9422(13)
H17 H 0.0173 1.8172 0.8725
C20 C 0.4021(17) 1.7726(12) 0.9983(12)
C21 C 0.451(3) 1.7134(13) 0.9253(16)
H18 H 0.4304 1.7197 0.8559
C22 C 0.534(3) 1.6431(19) 0.957(3)
H19 H 0.5740 1.6030 0.9094
C23 C 0.558(3) 1.6309(16) 1.056(2)
H20 H 0.6131 1.5815 1.0743
C24 C 0.508(3) 1.6838(15) 1.1266(15)
H21 H 0.5324 1.6758 1.1952
C25 C 0.411(2) 1.7572(14) 1.0998(15)
H22 H 0.3612 1.7902 1.1465
C26 C 0.4290(17) 1.9932(11) 1.0204(11)
H23 H 0.3798 2.0512 1.0091
H24 H 0.4505 1.9942 1.0943
P1A P -0.1910(5) 1.4598(3) 0.3748(3)
O1A O -0.2193(14) 1.3445(7) 0.3664(10)
C1A C -0.3567(18) 1.5118(10) 0.3723(10)
C2A C -0.4875(19) 1.4426(14) 0.3360(12)
H1A H -0.4861 1.3725 0.3148
C3A C -0.615(3) 1.4751(17) 0.3311(15)
H2A H -0.7028 1.4278 0.3065
C4A C -0.618(3) 1.5793(18) 0.3624(17)
H3A H -0.7065 1.6039 0.3545
C5A C -0.491(3) 1.6432(15) 0.4040(14)
H4A H -0.4923 1.7123 0.4301
C6A C -0.363(2) 1.6120(12) 0.4093(14)
H5A H -0.2766 1.6590 0.4388
C7A C -0.0993(18) 1.4974(12) 0.2735(12)
C8A C -0.088(3) 1.6006(13) 0.2567(15)
H6A H -0.1353 1.6494 0.2901
C9A C 0.005(3) 1.6228(18) 0.1809(15)
H7A H 0.0270 1.6909 0.1692
C10A C 0.060(3) 1.551(2) 0.1288(16)
H8A H 0.1145 1.5691 0.0790
C11A C 0.041(4) 1.457(2) 0.1435(19)
H9A H 0.0855 1.4084 0.1071
C12A C -0.047(3) 1.4273(18) 0.2157(17)
H10A H -0.0679 1.3576 0.2225
C13A C -0.0690(19) 1.5209(11) 0.4928(10)
H11A H -0.1190 1.5110 0.5505
H12A H -0.0451 1.5951 0.4931
P2A P 0.6914(5) 2.1250(3) 1.0401(3)
O2A O 0.7174(13) 2.1341(10) 1.1561(8)
C14A C 0.8580(17) 2.1279(10) 0.9891(11)
C15A C 0.860(2) 2.0938(15) 0.8884(14)
H13A H 0.7722 2.0696 0.8415
C16A C 0.995(2) 2.0950(15) 0.8556(15)
H14A H 0.9972 2.0663 0.7877
C17A C 1.124(2) 2.1379(17) 0.9220(18)
H15A H 1.2136 2.1468 0.8986
C18A C 1.118(2) 2.1678(18) 1.0253(15)
H16A H 1.2048 2.1918 1.0731
C19A C 0.985(2) 2.1625(12) 1.0578(13)
H17A H 0.9827 2.1828 1.1275
C20A C 0.5979(17) 2.2274(12) 1.0017(12)
C21A C 0.549(3) 2.2866(13) 1.0747(16)
H18A H 0.5696 2.2803 1.1441
C22A C 0.466(3) 2.3569(19) 1.043(3)
H19A H 0.4260 2.3970 1.0906
C23A C 0.442(3) 2.3691(16) 0.944(2)
H20A H 0.3869 2.4185 0.9257
C24A C 0.492(3) 2.3162(15) 0.8734(15)
H21A H 0.4676 2.3242 0.8048
C25A C 0.589(2) 2.2428(14) 0.9002(15)
H22A H 0.6388 2.2098 0.8535
C26A C 0.5710(17) 2.0068(11) 0.9796(11)
H23A H 0.6202 1.9488 0.9909
H24A H 0.5495 2.0058 0.9057
Pb1A Pb -0.24960(9) 1.15961(4) 0.34036(4)
I1A I -0.5783(3) 1.13081(13) 0.32265(12)
I2A I 0.0784(3) 1.17756(12) 0.36942(13)
I3A I -0.20786(15) 1.15879(10) 0.59114(8)
I4A I -0.29185(15) 0.90904(8) 0.34138(10)
Pb1A_2 Pb 0.75040(9) 2.15961(4) 1.34036(4)
Pb2_2 Pb 0.0000 1.0000 0.5000
Pb3_2 Pb -0.5000 1.0000 0.5000
I1A_2 I 0.4217(3) 2.13081(13) 0.32265(12)
I2A_2 I 0.0784(3) 2.17756(12) 0.36942(13)
I3A_2 I -0.20786(15) 2.15879(10) 0.59114(8)
I3A_3 I 0.79214(15) 2.15879(10) 0.59114(8)
I4A_2 I -0.29185(15) 1.90904(8) 0.34138(10)
I4A_3 I 0.70815(15) 1.90904(8) 0.34138(10)
O2A_2 O -0.2826(13) 1.1341(10) 0.1561(8)
loop_
_geom_bond_atom_site_label_1
_geom_bond_atom_site_label_2
_geom_bond_site_symmetry_1
_geom_bond_site_symmetry_2
Pb1 I1 1_555 1_555
Pb2 I2 1_555 1_555
Pb3 I1 1_555 1_555
I2 Pb1 1_555 1_555
I3 Pb1 1_555 1_555
I4 Pb1 1_555 1_555
P1 O1 1_555 1_555
P2 O2 1_555 1_555
O1 Pb1 1_555 1_555
O2 Pb1 1_555 1_555
C1 P1 1_555 1_555
C2 C1 1_555 1_555
H1 C2 1_555 1_555
C3 C2 1_555 1_555
H2 C3 1_555 1_555
C4 C3 1_555 1_555
H3 C4 1_555 1_555
C5 C4 1_555 1_555
H4 C5 1_555 1_555
C6 C1 1_555 1_555
H5 C6 1_555 1_555
C7 P1 1_555 1_555
C8 C7 1_555 1_555
H6 C8 1_555 1_555
C9 C8 1_555 1_555
H7 C9 1_555 1_555
C10 C9 1_555 1_555
H8 C10 1_555 1_555
C11 C10 1_555 1_555
H9 C11 1_555 1_555
C12 C7 1_555 1_555
H10 C12 1_555 1_555
C13 P1 1_555 1_555
H11 C13 1_555 1_555
H12 C13 1_555 1_555
C14 P2 1_555 1_555
C15 C14 1_555 1_555
H13 C15 1_555 1_555
C16 C15 1_555 1_555
H14 C16 1_555 1_555
C17 C16 1_555 1_555
H15 C17 1_555 1_555
C18 C17 1_555 1_555
H16 C18 1_555 1_555
C19 C14 1_555 1_555
H17 C19 1_555 1_555
C20 P2 1_555 1_555
C21 C20 1_555 1_555
H18 C21 1_555 1_555
C22 C21 1_555 1_555
H19 C22 1_555 1_555
C23 C22 1_555 1_555
H20 C23 1_555 1_555
C24 C23 1_555 1_555
H21 C24 1_555 1_555
C25 C20 1_555 1_555
H22 C25 1_555 1_555
C26 P2 1_555 1_555
H23 C26 1_555 1_555
H24 C26 1_555 1_555
P1A O1A 1_555 1_555
O1A Pb1A 1_555 1_555
C1A P1A 1_555 1_555
C2A C1A 1_555 1_555
H1A C2A 1_555 1_555
C3A C2A 1_555 1_555
H2A C3A 1_555 1_555
C4A C3A 1_555 1_555
H3A C4A 1_555 1_555
C5A C4A 1_555 1_555
H4A C5A 1_555 1_555
C6A C1A 1_555 1_555
H5A C6A 1_555 1_555
C7A P1A 1_555 1_555
C8A C7A 1_555 1_555
H6A C8A 1_555 1_555
C9A C8A 1_555 1_555
H7A C9A 1_555 1_555
C10A C9A 1_555 1_555
H8A C10A 1_555 1_555
C11A C10A 1_555 1_555
H9A C11A 1_555 1_555
C12A C7A 1_555 1_555
H10A C12A 1_555 1_555
C13A C13 1_555 1_555
H11A C13A 1_555 1_555
H12A C13A 1_555 1_555
P2A O2A 1_555 1_555
O2A Pb1A_2 1_555 1_555
C14A P2A 1_555 1_555
C15A C14A 1_555 1_555
H13A C15A 1_555 1_555
C16A C15A 1_555 1_555
H14A C16A 1_555 1_555
C17A C16A 1_555 1_555
H15A C17A 1_555 1_555
C18A C17A 1_555 1_555
H16A C18A 1_555 1_555
C19A C14A 1_555 1_555
H17A C19A 1_555 1_555
C20A P2A 1_555 1_555
C21A C20A 1_555 1_555
H18A C21A 1_555 1_555
C22A C21A 1_555 1_555
H19A C22A 1_555 1_555
C23A C22A 1_555 1_555
H20A C23A 1_555 1_555
C24A C23A 1_555 1_555
H21A C24A 1_555 1_555
C25A C20A 1_555 1_555
H22A C25A 1_555 1_555
C26A C26 1_555 1_555
H23A C26A 1_555 1_555
H24A C26A 1_555 1_555
Pb1A I1A 1_555 1_555
I1A Pb3_2 1_555 1_555
I2A Pb1A 1_555 1_555
I3A Pb1A 1_555 1_555
I4A Pb1A 1_555 1_555
Pb2_2 I2A 1_555 1_555
Pb3_2 I3A 1_555 1_555
I1A_2 Pb3 1_555 1_555
I2A_2 Pb2 1_555 1_555
I3A_2 Pb2 1_555 1_555
I3A_3 Pb3 1_555 1_555
I4A_2 Pb2 1_555 1_555
I4A_3 Pb3 1_555 1_555
O2A_2 Pb1A 1_555 1_555
Pb2 I3 1_555 1_555
Pb2 I4 1_555 1_555
Pb3 I3 1_555 1_555
Pb3 I4 1_555 1_555
C5 C6 1_555 1_555
C11 C12 1_555 1_555
C18 C19 1_555 1_555
C24 C25 1_555 1_555
P1A C13A 1_555 1_555
C5A C6A 1_555 1_555
C11A C12A 1_555 1_555
P2A C26A 1_555 1_555
C18A C19A 1_555 1_555
C24A C25A 1_555 1_555
I3A Pb2_2 1_555 1_555
I4A Pb2_2 1_555 1_555
I4A Pb3_2 1_555 1_555

#END
