
#######################################################################
#
#                 Cambridge Crystallographic Data Centre
#                                CCDC 
#
#######################################################################
#
# If this CIF has been generated from an entry in the Cambridge 
# Structural Database, then it will include bibliographic, chemical, 
# crystal, experimental, refinement or atomic coordinate data resulting 
# from the CCDC's data processing and validation procedures.
#
#######################################################################

data_FIKQIA
_symmetry_cell_setting           monoclinic
_symmetry_space_group_name_H-M   'P 21/c'
_symmetry_Int_Tables_number      14
_space_group_name_Hall           '-P 2ybc'
loop_
_symmetry_equiv_pos_site_id
_symmetry_equiv_pos_as_xyz
1 x,y,z
2 -x,1/2+y,1/2-z
3 -x,-y,-z
4 x,1/2-y,1/2+z
_cell_length_a                   7.4613(9)
_cell_length_b                   20.3543(19)
_cell_length_c                   20.470(2)
_cell_angle_alpha                90
_cell_angle_beta                 95.439(6)
_cell_angle_gamma                90
_cell_volume                     3094.77
loop_
_atom_site_label
_atom_site_type_symbol
_atom_site_fract_x
_atom_site_fract_y
_atom_site_fract_z
Cd1 Cd 0.38252(5) 0.186410(16) -0.560500(16)
S1 S 0.53225(18) 0.00748(6) -0.24973(6)
O1 O 0.4830(5) 0.16905(16) -0.45473(15)
O3 O 0.6129(5) 0.26399(17) -0.42277(16)
O5 O 0.8273(5) 0.21053(16) -0.11742(15)
O7 O 0.8100(5) 0.29666(16) -0.18400(16)
O9 O 0.4528(7) -0.02183(19) -0.3089(2)
O11 O 0.6909(6) -0.02492(19) -0.2213(2)
O12 O 0.4037(7) 0.0147(2) -0.2005(2)
O13 O 0.1201(5) 0.23671(18) -0.53087(17)
H11 H 0.1465 0.2706 -0.5105
H12 H 0.035(8) 0.242(3) -0.555(3)
O14 O 0.6273(5) 0.12839(17) -0.59995(17)
H13 H 0.6783 0.1521 -0.6247
H14 H 0.600(8) 0.098(3) -0.621(3)
O15 O 0.5363(5) 0.28883(16) -0.54734(17)
H15 H 0.5765 0.2933 -0.5089
H16 H 0.636(8) 0.283(3) -0.564(3)
N1 N 0.3033(5) 0.22140(19) -0.66541(19)
N2 N -0.2422(5) 0.58653(19) -0.93410(19)
C1 C 0.6000(6) 0.1796(2) -0.3435(2)
C2 C 0.6740(6) 0.2185(2) -0.2925(2)
H23 H 0.6997 0.2623 -0.3006
C3 C 0.7108(6) 0.1937(2) -0.2292(2)
C4 C 0.6690(6) 0.1284(2) -0.2173(2)
H24 H 0.6920 0.1110 -0.1753
C5 C 0.5925(6) 0.0889(2) -0.2685(2)
C6 C 0.5593(6) 0.1144(2) -0.3307(2)
H25 H 0.5091 0.0877 -0.3646
C7 C 0.5636(6) 0.2067(2) -0.4119(2)
C8 C 0.7891(6) 0.2373(2) -0.1736(2)
C9 C 0.3005(7) 0.1838(2) -0.7197(2)
H26 H 0.3404 0.1406 -0.7154
C10 C 0.2413(7) 0.2067(2) -0.7812(2)
H27 H 0.2426 0.1793 -0.8175
C11 C 0.1794(6) 0.2711(2) -0.7890(2)
C12 C 0.1837(7) 0.3095(2) -0.7330(2)
H28 H 0.1458 0.3531 -0.7360
C13 C 0.2441(7) 0.2832(2) -0.6732(2)
H29 H 0.2439 0.3097 -0.6362
C14 C 0.1073(7) 0.2963(2) -0.8559(2)
H30 H 0.0024 0.2706 -0.8714
H31 H 0.1979 0.2895 -0.8862
C15 C 0.0555(7) 0.3686(2) -0.8570(2)
H32 H -0.0321 0.3761 -0.8257
H33 H 0.1612 0.3948 -0.8436
C16 C -0.0231(7) 0.3906(2) -0.9245(2)
H34 H 0.0695 0.3873 -0.9546
H35 H -0.1195 0.3608 -0.9398
C17 C -0.0954(7) 0.4594(2) -0.9267(2)
C18 C -0.0363(7) 0.5074(3) -0.8821(3)
H36 H 0.0540 0.4982 -0.8489
C19 C -0.1132(7) 0.5697(2) -0.8875(2)
H37 H 0.0724 1.1014 -0.6431
C20 C 0.2977(7) 1.0396(2) -0.5219(2)
H38 H 0.3868 1.0502 -0.4887
C21 C -0.2295(7) 0.4773(2) -0.9762(2)
H39 H -0.2719 0.4467 -1.0077
Cd1A Cd -0.38252(5) 0.686410(16) -0.939500(16)
Cd1_2 Cd 0.38252(5) 1.186410(16) -0.560500(16)
S1A S -0.53225(18) 0.50748(6) -1.25027(6)
O1A O -0.4830(5) 0.66905(16) -1.04527(15)
O3A O -0.6129(5) 0.76399(17) -1.07723(16)
O5A O -0.8273(5) 0.71053(16) -1.38258(15)
O7A O -0.8100(5) 0.79666(16) -1.31600(16)
O9A O -0.4528(7) 0.47817(19) -1.1911(2)
O11A O -0.6909(6) 0.47508(19) -1.2787(2)
O12A O -0.4037(7) 0.5147(2) -1.2995(2)
O13A O -0.1201(5) 0.73671(18) -0.96913(17)
H11A H -0.1465 0.7706 -0.9895
H12A H -0.035(8) 0.742(3) -0.945(3)
O14A O -0.6273(5) 0.62839(17) -0.90005(17)
H13A H -0.6783 0.6521 -0.8753
H14A H -0.600(8) 0.598(3) -0.879(3)
O15A O -0.5363(5) 0.78883(16) -0.95266(17)
H15A H -0.5765 0.7933 -0.9911
H16A H -0.636(8) 0.783(3) -0.936(3)
N1A N -0.3033(5) 0.72140(19) -0.83459(19)
N2A N 0.2422(5) 0.08653(19) -0.56590(19)
N2A_2 N 0.2422(5) 1.08653(19) -0.56590(19)
C1A C -0.6000(6) 0.6796(2) -1.1565(2)
C2A C -0.6740(6) 0.7185(2) -1.2075(2)
H23A H -0.6997 0.7623 -1.1994
C3A C -0.7108(6) 0.6937(2) -1.2708(2)
C4A C -0.6690(6) 0.6284(2) -1.2827(2)
H24A H -0.6920 0.6110 -1.3247
C5A C -0.5925(6) 0.5889(2) -1.2315(2)
C6A C -0.5593(6) 0.6144(2) -1.1693(2)
H25A H -0.5091 0.5877 -1.1354
C7A C -0.5636(6) 0.7067(2) -1.0881(2)
C8A C -0.7891(6) 0.7373(2) -1.3264(2)
C9A C -0.3005(7) 0.6838(2) -0.7803(2)
H26A H -0.3404 0.6406 -0.7846
C10A C -0.2413(7) 0.7067(2) -0.7188(2)
H27A H -0.2426 0.6793 -0.6825
C11A C -0.1794(6) 0.7711(2) -0.7110(2)
C12A C -0.1837(7) 0.8095(2) -0.7670(2)
H28A H -0.1458 0.8531 -0.7640
C13A C -0.2441(7) 0.7832(2) -0.8268(2)
H29A H -0.2439 0.8097 -0.8638
C14A C -0.1073(7) 0.7963(2) -0.6441(2)
H30A H -0.0024 0.7706 -0.6286
H31A H -0.1979 0.7895 -0.6138
C15A C -0.0555(7) 0.8686(2) -0.6430(2)
H32A H 0.0321 0.8761 -0.6743
H33A H -0.1612 0.8948 -0.6564
C16A C 0.0231(7) 0.8906(2) -0.5755(2)
H34A H -0.0695 0.8873 -0.5454
H35A H 0.1195 0.8608 -0.5602
C17A C 0.0954(7) 0.9594(2) -0.5733(2)
C18A C 0.0363(7) 1.0074(3) -0.6179(3)
H36A H -0.0540 0.9982 -0.6511
C19A C 0.1132(7) 1.0697(2) -0.6125(2)
H37A H -0.0724 0.6014 -0.8569
C20A C -0.2977(7) 0.5396(2) -0.9781(2)
H38A H -0.3868 0.5502 -1.0113
C21A C 0.2295(7) 0.9773(2) -0.5238(2)
H39A H 0.2719 0.9467 -0.4923
Cd2 Cd 0.5000 0.0000 0.0000
O16 O 0.5731(6) -0.08184(19) 0.0744(2)
H17 H 0.5321 -0.1168 0.0598
H18 H 0.583(10) -0.072(4) 0.111(3)
O17 O 0.7833(6) 0.0357(2) 0.0203(2)
H19 H 0.836(8) 0.049(3) -0.013(2)
H20 H 0.792(9) 0.066(3) 0.046(3)
O18 O 0.4287(6) 0.0667(2) 0.0833(2)
H21 H 0.4249 0.0449 0.1168
H22 H 0.344(15) 0.095(6) 0.075(6)
O16B O 0.4269(6) 0.08184(19) -0.0744(2)
H17B H 0.4679 0.1168 -0.0598
H18B H 0.417(10) 0.072(4) -0.111(3)
O17B O 0.2167(6) -0.0357(2) -0.0203(2)
H19B H 0.164(8) -0.049(3) 0.013(2)
H20B H 0.208(9) -0.066(3) -0.046(3)
O18B O 0.5713(6) -0.0667(2) -0.0833(2)
H21B H 0.5751 -0.0449 -0.1168
H22B H 0.656(15) -0.095(6) -0.075(6)
O2 O 0.8590(6) 0.1363(2) 0.10851(19)
H1 H 0.861(9) 0.125(3) 0.145(3)
H2 H 0.777(9) 0.163(3) 0.104(3)
O4 O 0.1509(6) 0.1462(2) 0.0390(2)
H3 H 0.071(9) 0.149(3) 0.069(3)
H4 H 0.127(9) 0.124(3) 0.007(3)
O6 O 0.0324(6) 0.0361(2) -0.1875(2)
H5 H -0.057(10) 0.007(4) -0.197(3)
H6 H 0.134(10) 0.020(4) -0.193(4)
O8 O 0.9695(6) 0.09378(19) -0.07261(19)
H7 H 0.920(9) 0.127(3) -0.093(3)
H8 H 1.018(9) 0.072(3) -0.101(3)
O10 O 0.8513(6) 0.1005(2) 0.2354(2)
H9 H 0.766(9) 0.078(4) 0.240(3)
H10 H 0.841(9) 0.138(3) 0.257(3)
loop_
_geom_bond_atom_site_label_1
_geom_bond_atom_site_label_2
_geom_bond_site_symmetry_1
_geom_bond_site_symmetry_2
Cd1 O1 1_555 1_555
Cd2 O16 1_555 1_555
S1 O9 1_555 1_555
O1 C7 1_555 1_555
O2 H1 1_555 1_555
H2 O2 1_555 1_555
O3 C7 1_555 1_555
O4 H3 1_555 1_555
H4 O4 1_555 1_555
O5 C8 1_555 1_555
O6 H5 1_555 1_555
H6 O6 1_555 1_555
O7 C8 1_555 1_555
O8 H7 1_555 1_555
H8 O8 1_555 1_555
O10 H9 1_555 1_555
H10 O10 1_555 1_555
O11 S1 1_555 1_555
O12 S1 1_555 1_555
O13 Cd1 1_555 1_555
H11 O13 1_555 1_555
H12 O13 1_555 1_555
O14 Cd1 1_555 1_555
H13 O14 1_555 1_555
H14 O14 1_555 1_555
O15 Cd1 1_555 1_555
H15 O15 1_555 1_555
H16 O15 1_555 1_555
O16 H17 1_555 1_555
H18 O16 1_555 1_555
O17 Cd2 1_555 1_555
H19 O17 1_555 1_555
H20 O17 1_555 1_555
O18 Cd2 1_555 1_555
H21 O18 1_555 1_555
H22 O18 1_555 1_555
N1 Cd1 1_555 1_555
N2 C19 1_555 1_555
C1 C2 1_555 1_555
C2 H23 1_555 1_555
C3 C2 1_555 1_555
C4 C3 1_555 1_555
H24 C4 1_555 1_555
C5 S1 1_555 1_555
C6 C1 1_555 1_555
H25 C6 1_555 1_555
C7 C1 1_555 1_555
C8 C3 1_555 1_555
C9 N1 1_555 1_555
H26 C9 1_555 1_555
C10 C9 1_555 1_555
H27 C10 1_555 1_555
C11 C10 1_555 1_555
C12 C11 1_555 1_555
H28 C12 1_555 1_555
C13 N1 1_555 1_555
H29 C13 1_555 1_555
C14 C11 1_555 1_555
H30 C14 1_555 1_555
H31 C14 1_555 1_555
C15 C14 1_555 1_555
H32 C15 1_555 1_555
H33 C15 1_555 1_555
C16 C15 1_555 1_555
H34 C16 1_555 1_555
H35 C16 1_555 1_555
C17 C16 1_555 1_555
C18 C17 1_555 1_555
H36 C18 1_555 1_555
C19 C18 1_555 1_555
H37 C19A 1_555 1_555
C20 H38 1_555 1_555
C21 C17 1_555 1_555
H39 C21 1_555 1_555
Cd1A N2 1_555 1_555
Cd1_2 N2A_2 1_555 1_555
S1A O9A 1_555 1_555
O1A Cd1A 1_555 1_555
O3A C7A 1_555 1_555
O5A C8A 1_555 1_555
O7A C8A 1_555 1_555
O11A S1A 1_555 1_555
O12A S1A 1_555 1_555
O13A Cd1A 1_555 1_555
H11A O13A 1_555 1_555
H12A O13A 1_555 1_555
O14A Cd1A 1_555 1_555
H13A O14A 1_555 1_555
H14A O14A 1_555 1_555
O15A Cd1A 1_555 1_555
H15A O15A 1_555 1_555
H16A O15A 1_555 1_555
O16B Cd2 1_555 1_555
H17B O16B 1_555 1_555
H18B O16B 1_555 1_555
O17B Cd2 1_555 1_555
H19B O17B 1_555 1_555
H20B O17B 1_555 1_555
O18B Cd2 1_555 1_555
H21B O18B 1_555 1_555
H22B O18B 1_555 1_555
N1A Cd1A 1_555 1_555
N2A Cd1 1_555 1_555
N2A_2 C20 1_555 1_555
C1A C2A 1_555 1_555
C2A H23A 1_555 1_555
C3A C2A 1_555 1_555
C4A C3A 1_555 1_555
H24A C4A 1_555 1_555
C5A S1A 1_555 1_555
C6A C1A 1_555 1_555
H25A C6A 1_555 1_555
C7A O1A 1_555 1_555
C8A C3A 1_555 1_555
C9A N1A 1_555 1_555
H26A C9A 1_555 1_555
C10A C9A 1_555 1_555
H27A C10A 1_555 1_555
C11A C10A 1_555 1_555
C12A C11A 1_555 1_555
H28A C12A 1_555 1_555
C13A N1A 1_555 1_555
H29A C13A 1_555 1_555
C14A C11A 1_555 1_555
H30A C14A 1_555 1_555
H31A C14A 1_555 1_555
C15A C14A 1_555 1_555
H32A C15A 1_555 1_555
H33A C15A 1_555 1_555
C16A C15A 1_555 1_555
H34A C16A 1_555 1_555
H35A C16A 1_555 1_555
C17A C16A 1_555 1_555
C18A C17A 1_555 1_555
H36A C18A 1_555 1_555
C19A N2A_2 1_555 1_555
H37A C19 1_555 1_555
C20A N2 1_555 1_555
H38A C20A 1_555 1_555
C21A C20 1_555 1_555
H39A C21A 1_555 1_555
C4 C5 1_555 1_555
C5 C6 1_555 1_555
C12 C13 1_555 1_555
C21 C20A 1_555 1_555
C1A C7A 1_555 1_555
C4A C5A 1_555 1_555
C5A C6A 1_555 1_555
C12A C13A 1_555 1_555
C17A C21A 1_555 1_555
C18A C19A 1_555 1_555

#END
