
#######################################################################
#
#                 Cambridge Crystallographic Data Centre
#                                CCDC 
#
#######################################################################
#
# If this CIF has been generated from an entry in the Cambridge 
# Structural Database, then it will include bibliographic, chemical, 
# crystal, experimental, refinement or atomic coordinate data resulting 
# from the CCDC's data processing and validation procedures.
#
#######################################################################

data_FIKRIC
_symmetry_cell_setting           monoclinic
_symmetry_space_group_name_H-M   'C 2/c'
_symmetry_Int_Tables_number      15
_space_group_name_Hall           '-C 2yn'
loop_
_symmetry_equiv_pos_site_id
_symmetry_equiv_pos_as_xyz
1 x,y,z
2 -x,y,1/2-z
3 1/2+x,1/2+y,z
4 1/2-x,1/2+y,1/2-z
5 -x,-y,-z
6 x,-y,1/2+z
7 1/2-x,1/2-y,-z
8 1/2+x,1/2-y,1/2+z
_cell_length_a                   26.173(4)
_cell_length_b                   15.123(2)
_cell_length_c                   17.514(2)
_cell_angle_alpha                90
_cell_angle_beta                 115.003(2)
_cell_angle_gamma                90
_cell_volume                     6282.64
loop_
_atom_site_label
_atom_site_type_symbol
_atom_site_fract_x
_atom_site_fract_y
_atom_site_fract_z
C1 C 0.02462(12) 0.8561(4) 0.0281(3)
H1 H 0.0232 0.8735 0.0781
C2 C -0.02466(12) 0.8331(4) -0.0411(3)
H2 H -0.0591 0.8351 -0.0374
C3 C -0.02251(13) 0.8072(3) -0.1158(3)
H3 H -0.0555 0.7918 -0.1622
C4 C 0.02891(15) 0.8043(3) -0.1214(2)
H4 H 0.0303 0.7869 -0.1714
C5 C 0.07818(13) 0.8272(3) -0.0521(2)
N1 N 0.07604(11) 0.8532(2) 0.0226(2)
C6 C 0.41053(12) 0.9195(3) 0.3096(4)
H5 H 0.4296 0.8686 0.3070
C7 C 0.35200(12) 0.9235(2) 0.2714(3)
C8 C 0.32454(12) 1.0007(2) 0.2758(2)
H6 H 0.2854 1.0033 0.2503
C9 C 0.35561(14) 1.0739(3) 0.3185(3)
Tb1 Tb 0.175731(14) 0.86737(2) 0.14780(2)
Tb2 Tb 0.188421(15) 1.13276(2) 0.30701(2)
C10 C 0.1789(3) 1.0886(5) 0.1111(5)
O1 O 0.1685(3) 1.1307(4) 0.1641(4)
O2 O 0.1884(3) 1.0075(4) 0.1146(4)
C11 C 0.1806(3) 1.1377(4) 0.0363(4)
C12 C 0.1970(3) 1.1390(4) -0.0866(4)
C13 C 0.1937(3) 1.0939(5) -0.0216(5)
H7 H 0.2004 1.0333 -0.0164
C14 C 0.1860(3) 1.2306(5) -0.0975(5)
H8 H 0.1877 1.2616 -0.1422
C15 C 0.1704(3) 1.2276(5) 0.0294(5)
H9 H 0.1622 1.2577 0.0692
C16 C 0.1726(3) 1.2717(5) -0.0381(5)
N2 N 0.1638(3) 1.3677(5) -0.0448(5)
C17 C 0.2119(3) 1.0918(5) -0.1520(5)
O3 O 0.1663(4) 1.4067(5) -0.1038(5)
O4 O 0.1554(3) 1.4041(4) 0.0105(5)
O5 O 0.2192(3) 1.1381(4) -0.2062(4)
O6 O 0.2156(3) 1.0088(4) -0.1482(3)
C18 C 0.3195(3) 0.8436(5) 0.2270(5)
O7 O 0.2684(2) 0.8515(4) 0.1774(3)
O8 O 0.3543(3) 1.2274(4) 0.3429(4)
O9 O 0.3449(2) 0.7720(4) 0.2416(4)
O10 O 0.2739(2) 1.1535(4) 0.3040(4)
C19 C 0.3256(4) 1.1578(5) 0.3226(5)
C20 C 0.0426(3) 0.9285(5) 0.2392(5)
C21 C 0.0434(4) 0.8370(6) 0.2404(6)
H10 H 0.0723 0.8057 0.2350
C22 C 0.0000 0.7933(7) 0.2500
O11 O 0.1011(2) 1.0534(4) 0.2525(4)
C23 C 0.0893(3) 0.9764(5) 0.2265(5)
C24 C 0.0000 0.9746(7) 0.2500
H11 H 0.0000 1.0361 0.2500
N3 N 0.0000 0.6963(8) 0.2500
O12 O 0.0449(4) 0.6588(6) 0.2677(8)
O13 O 0.11325(17) 0.9319(3) 0.1907(3)
O14 O 0.25160(17) 1.1591(3) 0.4491(3)
H12 H 0.2865 1.1475 0.4756
H13 H 0.2344 1.1903 0.3841
C25 C 0.4132(4) 1.0711(6) 0.3565(7)
H14 H 0.4341 1.1201 0.3849
C26 C 0.4391(4) 0.9935(7) 0.3514(9)
N4 N 0.5007(5) 0.9893(9) 0.3926(10)
O15 O 0.5275(4) 1.0501(7) 0.4351(9)
O16 O 0.5241(5) 0.9225(9) 0.3832(10)
C27 C 0.1331(3) 0.8289(5) -0.0526(5)
O17 O 0.1751(2) 0.8375(4) 0.0167(4)
O18 O 0.1351(2) 0.8221(3) -0.1214(3)
C20A C -0.0426(3) 0.9285(5) 0.2608(5)
C21A C -0.0434(4) 0.8370(6) 0.2596(6)
H10A H -0.0723 0.8057 0.2650
O11A O -0.1011(2) 1.0534(4) 0.2475(4)
C23A C -0.0893(3) 0.9764(5) 0.2735(5)
O12A O -0.0449(4) 0.6588(6) 0.2323(8)
O13A O -0.11325(17) 0.9319(3) 0.3093(3)
C1A C -0.02462(12) 0.8561(4) 0.4719(3)
H1A H -0.0232 0.8735 0.4219
C2A C 0.02466(12) 0.8331(4) 0.5411(3)
H2A H 0.0591 0.8351 0.5374
C3A C 0.02251(13) 0.8072(3) 0.6158(3)
H3A H 0.0555 0.7918 0.6622
C4A C -0.02891(15) 0.8043(3) 0.6214(2)
H4A H -0.0303 0.7869 0.6714
C5A C -0.07818(13) 0.8272(3) 0.5521(2)
N1A N -0.07604(11) 0.8532(2) 0.4774(2)
C6A C -0.41053(12) 0.9195(3) 0.1904(4)
H5A H -0.4296 0.8686 0.1930
C7A C -0.35200(12) 0.9235(2) 0.2286(3)
C8A C -0.32454(12) 1.0007(2) 0.2242(2)
H6A H -0.2854 1.0033 0.2497
C9A C -0.35561(14) 1.0739(3) 0.1815(3)
Tb1A Tb -0.175731(14) 0.86737(2) 0.35220(2)
Tb2A Tb -0.188421(15) 1.13276(2) 0.19299(2)
C10A C -0.1789(3) 1.0886(5) 0.3889(5)
O1A O -0.1685(3) 1.1307(4) 0.3359(4)
O2A O -0.1884(3) 1.0075(4) 0.3854(4)
C11A C -0.1806(3) 1.1377(4) 0.4637(4)
C12A C -0.1970(3) 1.1390(4) 0.5866(4)
C13A C -0.1937(3) 1.0939(5) 0.5216(5)
H7A H -0.2004 1.0333 0.5164
C14A C -0.1860(3) 1.2306(5) 0.5975(5)
H8A H -0.1877 1.2616 0.6422
C15A C -0.1704(3) 1.2276(5) 0.4706(5)
H9A H -0.1622 1.2577 0.4308
C16A C -0.1726(3) 1.2717(5) 0.5381(5)
N2A N -0.1638(3) 1.3677(5) 0.5448(5)
C17A C -0.2119(3) 1.0918(5) 0.6520(5)
O3A O -0.1663(4) 1.4067(5) 0.6038(5)
O4A O -0.1554(3) 1.4041(4) 0.4895(5)
O5A O -0.2192(3) 1.1381(4) 0.7062(4)
O6A O -0.2156(3) 1.0088(4) 0.6482(3)
C18A C -0.3195(3) 0.8436(5) 0.2730(5)
O7A O -0.2684(2) 0.8515(4) 0.3226(3)
O8A O -0.3543(3) 1.2274(4) 0.1571(4)
O9A O -0.3449(2) 0.7720(4) 0.2584(4)
O10A O -0.2739(2) 1.1535(4) 0.1960(4)
C19A C -0.3256(4) 1.1578(5) 0.1774(5)
O14A O -0.25160(17) 1.1591(3) 0.0509(3)
H12A H -0.2865 1.1475 0.0244
H13A H -0.2344 1.1903 0.1159
C25A C -0.4132(4) 1.0711(6) 0.1435(7)
H14A H -0.4341 1.1201 0.1151
C26A C -0.4391(4) 0.9935(7) 0.1486(9)
N4A N -0.5007(5) 0.9893(9) 0.1074(10)
O15A O -0.5275(4) 1.0501(7) 0.0649(9)
O16A O -0.5241(5) 0.9225(9) 0.1168(10)
C27A C -0.1331(3) 0.8289(5) 0.5526(5)
O17A O -0.1751(2) 0.8375(4) 0.4833(4)
O18A O -0.1351(2) 0.8221(3) 0.6214(3)
Tb1B Tb -0.324269(14) 1.36737(2) 0.14780(2)
Tb1C Tb 0.324269(14) 1.36737(2) 0.35220(2)
Tb1D Tb -0.175731(14) 1.13263(2) 0.85220(2)
Tb1E Tb 0.175731(14) 1.13263(2) -0.35220(2)
Tb2B Tb -0.311579(15) 0.63276(2) 0.30701(2)
Tb2C Tb 0.311579(15) 0.63276(2) 0.19299(2)
Tb2D Tb -0.188421(15) 0.86724(2) 0.69299(2)
Tb2E Tb 0.188421(15) 0.86724(2) -0.19299(2)
O5D O -0.2192(3) 0.8619(4) 0.2062(4)
O5E O 0.2192(3) 0.8619(4) 0.2938(4)
O6D O -0.2156(3) 0.9912(4) 0.1482(3)
O6E O 0.2156(3) 0.9912(4) 0.3518(3)
O8B O -0.1457(3) 0.7274(4) 0.3429(4)
O8C O 0.1457(3) 0.7274(4) 0.1571(4)
O9B O -0.1551(2) 1.2720(4) 0.2416(4)
O9C O 0.1551(2) 1.2720(4) 0.2584(4)
O18D O -0.1351(2) 1.1779(3) 0.1214(3)
O18E O 0.1351(2) 1.1779(3) 0.3786(3)
O19 O 0.3585(2) 0.0997(3) 0.5255(3)
loop_
_geom_bond_atom_site_label_1
_geom_bond_atom_site_label_2
_geom_bond_site_symmetry_1
_geom_bond_site_symmetry_2
C1 H1 1_555 1_555
C2 C1 1_555 1_555
H2 C2 1_555 1_555
C3 C2 1_555 1_555
H3 C3 1_555 1_555
C4 C3 1_555 1_555
H4 C4 1_555 1_555
C5 C4 1_555 1_555
N1 C1 1_555 1_555
C6 H5 1_555 1_555
C7 C6 1_555 1_555
C8 C7 1_555 1_555
H6 C8 1_555 1_555
C9 C8 1_555 1_555
Tb1 N1 1_555 1_555
Tb2 O1 1_555 1_555
C10 O1 1_555 1_555
O2 Tb1 1_555 1_555
C11 C10 1_555 1_555
C12 C13 1_555 1_555
C13 C11 1_555 1_555
H7 C13 1_555 1_555
C14 C12 1_555 1_555
H8 C14 1_555 1_555
C15 C11 1_555 1_555
H9 C15 1_555 1_555
C16 C14 1_555 1_555
N2 C16 1_555 1_555
C17 C12 1_555 1_555
O3 N2 1_555 1_555
O4 N2 1_555 1_555
O5 C17 1_555 1_555
O6 C17 1_555 1_555
C18 C7 1_555 1_555
O7 Tb1 1_555 1_555
O8 C19 1_555 1_555
O9 C18 1_555 1_555
O10 Tb2 1_555 1_555
C19 C9 1_555 1_555
C20 C21 1_555 1_555
C21 H10 1_555 1_555
C22 C21 1_555 1_555
O11 Tb2 1_555 1_555
C23 C20 1_555 1_555
C24 C20 1_555 1_555
H11 C24 1_555 1_555
N3 C22 1_555 1_555
O12 N3 1_555 1_555
O13 Tb1 1_555 1_555
O14 Tb2 1_555 1_555
H12 O14 1_555 1_555
H13 O14 1_555 1_555
C25 C9 1_555 1_555
H14 C25 1_555 1_555
C26 C6 1_555 1_555
N4 C26 1_555 1_555
O15 N4 1_555 1_555
O16 N4 1_555 1_555
C27 C5 1_555 1_555
O17 Tb1 1_555 1_555
O18 C27 1_555 1_555
C20A C24 1_555 1_555
C21A C22 1_555 1_555
H10A C21A 1_555 1_555
O11A C23A 1_555 1_555
C23A C20A 1_555 1_555
O12A N3 1_555 1_555
O13A C23A 1_555 1_555
C1A H1A 1_555 1_555
C2A C1A 1_555 1_555
H2A C2A 1_555 1_555
C3A C2A 1_555 1_555
H3A C3A 1_555 1_555
C4A C3A 1_555 1_555
H4A C4A 1_555 1_555
C5A C4A 1_555 1_555
N1A C1A 1_555 1_555
C6A H5A 1_555 1_555
C7A C6A 1_555 1_555
C8A C7A 1_555 1_555
H6A C8A 1_555 1_555
C9A C8A 1_555 1_555
Tb1A O13A 1_555 1_555
Tb2A O11A 1_555 1_555
C10A O1A 1_555 1_555
O1A Tb2A 1_555 1_555
O2A Tb1A 1_555 1_555
C11A C10A 1_555 1_555
C12A C13A 1_555 1_555
C13A C11A 1_555 1_555
H7A C13A 1_555 1_555
C14A C12A 1_555 1_555
H8A C14A 1_555 1_555
C15A C11A 1_555 1_555
H9A C15A 1_555 1_555
C16A C14A 1_555 1_555
N2A C16A 1_555 1_555
C17A C12A 1_555 1_555
O3A N2A 1_555 1_555
O4A N2A 1_555 1_555
O5A C17A 1_555 1_555
O6A C17A 1_555 1_555
C18A C7A 1_555 1_555
O7A Tb1A 1_555 1_555
O8A C19A 1_555 1_555
O9A C18A 1_555 1_555
O10A Tb2A 1_555 1_555
C19A C9A 1_555 1_555
O14A Tb2A 1_555 1_555
H12A O14A 1_555 1_555
H13A O14A 1_555 1_555
C25A C9A 1_555 1_555
H14A C25A 1_555 1_555
C26A C6A 1_555 1_555
N4A C26A 1_555 1_555
O15A N4A 1_555 1_555
O16A N4A 1_555 1_555
C27A C5A 1_555 1_555
O17A Tb1A 1_555 1_555
O18A C27A 1_555 1_555
Tb1B O8A 1_555 1_555
Tb1C O8 1_555 1_555
Tb1D O5A 1_555 1_555
Tb1E O5 1_555 1_555
Tb2B O9A 1_555 1_555
Tb2C O9 1_555 1_555
Tb2D O6A 1_555 1_555
Tb2E O6 1_555 1_555
O5D Tb1A 1_555 1_555
O5E Tb1 1_555 1_555
O6D Tb2A 1_555 1_555
O6E Tb2 1_555 1_555
O8B Tb1A 1_555 1_555
O8C Tb1 1_555 1_555
O9B Tb2A 1_555 1_555
O9C Tb2 1_555 1_555
O18D Tb2A 1_555 1_555
O18E Tb2 1_555 1_555
C5 N1 1_555 1_555
C10 O2 1_555 1_555
C15 C16 1_555 1_555
C18 O7 1_555 1_555
O10 C19 1_555 1_555
O11 C23 1_555 1_555
C23 O13 1_555 1_555
C25 C26 1_555 1_555
C27 O17 1_555 1_555
O18 Tb2E 1_555 1_555
C20A C21A 1_555 1_555
C5A N1A 1_555 1_555
N1A Tb1A 1_555 1_555
C10A O2A 1_555 1_555
C15A C16A 1_555 1_555
C18A O7A 1_555 1_555
O10A C19A 1_555 1_555
C25A C26A 1_555 1_555
C27A O17A 1_555 1_555
O18A Tb2D 1_555 1_555

#END
