
#######################################################################
#
#                 Cambridge Crystallographic Data Centre
#                                CCDC 
#
#######################################################################
#
# If this CIF has been generated from an entry in the Cambridge 
# Structural Database, then it will include bibliographic, chemical, 
# crystal, experimental, refinement or atomic coordinate data resulting 
# from the CCDC's data processing and validation procedures.
#
#######################################################################

data_FIKROI
_symmetry_cell_setting           triclinic
_symmetry_space_group_name_H-M   'P -1'
_symmetry_Int_Tables_number      2
_space_group_name_Hall           '-P 1'
loop_
_symmetry_equiv_pos_site_id
_symmetry_equiv_pos_as_xyz
1 x,y,z
2 -x,-y,-z
_cell_length_a                   10.458(2)
_cell_length_b                   12.005(3)
_cell_length_c                   12.689(3)
_cell_angle_alpha                110.163(2)
_cell_angle_beta                 100.769(3)
_cell_angle_gamma                90.628(3)
_cell_volume                     1464.2
loop_
_atom_site_label
_atom_site_type_symbol
_atom_site_fract_x
_atom_site_fract_y
_atom_site_fract_z
C1 C -0.3028(8) 0.1358(8) 0.8767(10)
H1 H -0.3522 0.1958 0.8646
N1 N -0.1697(8) 0.1409(7) 0.8776(8)
C2 C -0.0958(7) 0.0511(8) 0.8957(10)
C3 C -0.1551(10) -0.0437(8) 0.9129(11)
H2 H -0.1057 -0.1037 0.9250
C4 C -0.2882(10) -0.0487(8) 0.9120(11)
H3 H -0.3278 -0.1122 0.9234
C5 C -0.3620(7) 0.0410(9) 0.8939(11)
H4 H -0.4510 0.0376 0.8932
Sm1 Sm -0.00634(5) 0.32252(4) 0.88676(4)
Sm2 Sm 0.13924(5) 0.06310(4) 0.64528(4)
O1 O 0.1592(7) 0.2981(6) 0.7578(6)
O2 O 0.3336(7) 0.1954(7) 0.7481(7)
O3 O -0.0831(7) 0.0890(6) 0.5532(7)
O4 O -0.1271(7) 0.2437(7) 0.6949(6)
O5 O 0.2444(10) 0.7331(9) 0.8421(10)
O6 O 0.7972(7) 0.5922(6) 0.9953(6)
O7 O 0.7806(7) 0.3963(6) 0.9088(7)
O8 O 0.4396(11) 0.8066(9) 0.8758(11)
O9 O 0.0726(8) 0.1300(6) 0.8312(6)
O10 O 0.1599(7) 0.1665(6) 0.5148(6)
O11 O 0.0051(8) 0.0950(7) 0.3565(7)
O12 O 0.3376(12) 0.5876(10) 0.6157(10)
O13 O 0.1954(11) 0.6942(9) 0.5560(9)
O14 O 0.1262(7) -0.0048(7) 0.9224(7)
O15 O 0.2626(7) -0.0443(7) 0.7677(7)
H5 H 0.2886 -0.0773 0.8166
H6 H 0.2534 0.0286 0.8109
N2 N -0.3283(9) 0.0529(8) 0.4393(8)
N3 N 0.3596(11) 0.7265(9) 0.8644(11)
N4 N 0.2396(12) 0.5983(10) 0.5524(10)
C6 C 0.2832(10) 0.2908(9) 0.7705(9)
C7 C -0.1571(10) 0.1607(9) 0.6023(9)
C8 C -0.2989(10) 0.1435(10) 0.5397(10)
C9 C 0.3235(11) 0.5131(10) 0.8248(9)
H7 H 0.2343 0.5189 0.8046
C10 C 0.3725(10) 0.4054(9) 0.8166(9)
C11 C 0.5061(10) 0.3989(9) 0.8480(9)
H8 H 0.5386 0.3252 0.8394
C12 C 0.5920(10) 0.5008(9) 0.8921(9)
C13 C 0.4115(11) 0.6126(10) 0.8643(10)
C14 C 0.7354(10) 0.4954(9) 0.9352(9)
C15 C 0.5444(11) 0.6093(10) 0.9003(9)
H9 H 0.6001 0.6786 0.9293
C16 C -0.3887(11) 0.2201(11) 0.5855(11)
H10 H -0.3639 0.2826 0.6553
C17 C -0.5174(11) 0.2012(11) 0.5244(11)
H11 H -0.5806 0.2499 0.5532
C18 C -0.4530(11) 0.0364(11) 0.3815(10)
H12 H -0.4764 -0.0265 0.3120
C19 C -0.5483(12) 0.1105(12) 0.4225(11)
H13 H -0.6331 0.0974 0.3796
C20 C 0.0904(11) 0.1732(10) 0.4261(10)
C21 C 0.1069(11) 0.2851(11) 0.3996(10)
C22 C 0.1718(12) 0.3853(11) 0.4848(11)
H14 H 0.2121 0.3837 0.5561
C23 C 0.0645(11) 0.3913(10) 0.2686(10)
C24 C 0.1199(12) 0.4952(11) 0.3558(11)
H15 H 0.1200 0.5673 0.3437
C25 C 0.0550(11) 0.2878(11) 0.2926(10)
H16 H 0.0128 0.2189 0.2354
C26 C 0.1744(12) 0.4896(11) 0.4595(11)
C27 C 0.0471(15) 0.0578(11) 0.8855(12)
C28 C 0.0182(11) 0.3923(10) 0.1486(10)
O16 O 0.0039(8) 0.2942(7) 0.0669(7)
O17 O -0.0010(8) 0.4898(7) 0.1344(7)
Sm1_2 Sm -0.00634(5) 0.32252(4) -0.11324(4)
Sm1_3 Sm 0.99366(5) 0.32252(4) 0.88676(4)
Sm1A Sm 0.00634(5) 0.67748(4) 0.11324(4)
Sm1A_2 Sm 1.00634(5) 0.67748(4) 1.11324(4)
Sm2A Sm -0.13924(5) -0.06310(4) 0.35472(4)
O3A O 0.0831(7) -0.0890(6) 0.4468(7)
O6A O 0.2028(7) 0.4078(6) 1.0047(6)
O7_2 O -0.2194(7) 0.3963(6) 0.9088(7)
O11A O -0.0051(8) -0.0950(7) 0.6435(7)
N2A N 0.3283(9) -0.0529(8) 0.5607(8)
O16_2 O 0.0039(8) 0.2942(7) 1.0669(7)
O17A O 0.0010(8) 0.5102(7) 0.8656(7)
loop_
_geom_bond_atom_site_label_1
_geom_bond_atom_site_label_2
_geom_bond_site_symmetry_1
_geom_bond_site_symmetry_2
C1 H1 1_555 1_555
N1 C1 1_555 1_555
C2 N1 1_555 1_555
C3 C2 1_555 1_555
H2 C3 1_555 1_555
C4 C3 1_555 1_555
H3 C4 1_555 1_555
C5 C1 1_555 1_555
H4 C5 1_555 1_555
Sm1 N1 1_555 1_555
Sm2 O1 1_555 1_555
O1 Sm1 1_555 1_555
O2 Sm2 1_555 1_555
O3 Sm2 1_555 1_555
O4 Sm1 1_555 1_555
O5 N3 1_555 1_555
O6 C14 1_555 1_555
O7 C14 1_555 1_555
O8 N3 1_555 1_555
O9 Sm1 1_555 1_555
O10 Sm2 1_555 1_555
O11 C20 1_555 1_555
O12 N4 1_555 1_555
O13 N4 1_555 1_555
O14 C27 1_555 1_555
O15 Sm2 1_555 1_555
H5 O15 1_555 1_555
H6 O15 1_555 1_555
N2 C8 1_555 1_555
N3 C13 1_555 1_555
N4 C26 1_555 1_555
C6 O1 1_555 1_555
C7 O3 1_555 1_555
C8 C7 1_555 1_555
C9 H7 1_555 1_555
C10 C6 1_555 1_555
C11 C10 1_555 1_555
H8 C11 1_555 1_555
C12 C11 1_555 1_555
C13 C9 1_555 1_555
C14 C12 1_555 1_555
C15 C12 1_555 1_555
H9 C15 1_555 1_555
C16 C8 1_555 1_555
H10 C16 1_555 1_555
C17 C16 1_555 1_555
H11 C17 1_555 1_555
C18 N2 1_555 1_555
H12 C18 1_555 1_555
C19 C17 1_555 1_555
H13 C19 1_555 1_555
C20 O10 1_555 1_555
C21 C20 1_555 1_555
C22 C21 1_555 1_555
H14 C22 1_555 1_555
C23 C24 1_555 1_555
C24 H15 1_555 1_555
C25 C21 1_555 1_555
H16 C25 1_555 1_555
C26 C22 1_555 1_555
C27 C2 1_555 1_555
C28 C23 1_555 1_555
O16 C28 1_555 1_555
O17 C28 1_555 1_555
Sm1_2 O16 1_555 1_555
Sm1_3 O7 1_555 1_555
Sm1A O17 1_555 1_555
Sm1A_2 O6 1_555 1_555
Sm2A O3 1_555 1_555
O3A Sm2 1_555 1_555
O6A Sm1 1_555 1_555
O7_2 Sm1 1_555 1_555
O11A Sm2 1_555 1_555
N2A Sm2 1_555 1_555
O16_2 Sm1 1_555 1_555
O17A Sm1 1_555 1_555
C4 C5 1_555 1_555
Sm2 O9 1_555 1_555
O2 C6 1_555 1_555
O4 C7 1_555 1_555
O9 C27 1_555 1_555
O11 Sm2A 1_555 1_555
N2 Sm2A 1_555 1_555
C9 C10 1_555 1_555
C13 C15 1_555 1_555
C18 C19 1_555 1_555
C23 C25 1_555 1_555
C24 C26 1_555 1_555
Sm2A O3A 1_555 1_555

#END
