
#######################################################################
#
#                 Cambridge Crystallographic Data Centre
#                                CCDC 
#
#######################################################################
#
# If this CIF has been generated from an entry in the Cambridge 
# Structural Database, then it will include bibliographic, chemical, 
# crystal, experimental, refinement or atomic coordinate data resulting 
# from the CCDC's data processing and validation procedures.
#
#######################################################################

data_FIKRUO
_symmetry_cell_setting           triclinic
_symmetry_space_group_name_H-M   'P -1'
_symmetry_Int_Tables_number      2
_space_group_name_Hall           '-P 1'
loop_
_symmetry_equiv_pos_site_id
_symmetry_equiv_pos_as_xyz
1 x,y,z
2 -x,-y,-z
_cell_length_a                   10.458(2)
_cell_length_b                   12.005(3)
_cell_length_c                   12.689(3)
_cell_angle_alpha                110.163(2)
_cell_angle_beta                 100.769(3)
_cell_angle_gamma                90.628(3)
_cell_volume                     1464.2
loop_
_atom_site_label
_atom_site_type_symbol
_atom_site_fract_x
_atom_site_fract_y
_atom_site_fract_z
C1 C -0.3036(6) 0.1448(6) 0.8823(8)
H1 H -0.3479 0.2105 0.8784
N1 N -0.1713(6) 0.1434(5) 0.8795(7)
C2 C -0.1051(6) 0.0453(7) 0.8853(8)
C3 C -0.1710(8) -0.0514(6) 0.8939(9)
H2 H -0.1267 -0.1171 0.8977
C4 C -0.3032(8) -0.0500(6) 0.8966(9)
H3 H -0.3474 -0.1147 0.9024
C5 C -0.3695(6) 0.0482(8) 0.8908(9)
H4 H -0.4580 0.0491 0.8927
Nd1 Nd -0.00686(4) 0.32272(4) 0.88859(4)
Nd2 Nd 0.13984(4) 0.06195(4) 0.64578(4)
O1 O 0.1610(6) 0.2950(5) 0.7598(5)
O2 O 0.3363(6) 0.1959(6) 0.7492(6)
O3 O -0.0835(6) 0.0884(6) 0.5539(6)
O4 O -0.1256(6) 0.2427(6) 0.6949(5)
O5 O 0.2413(8) 0.7276(8) 0.8382(9)
O6 O 0.7955(6) 0.5920(6) 0.9935(5)
O7 O 0.7800(6) 0.3971(5) 0.9079(6)
O8 O 0.4346(9) 0.8043(8) 0.8749(10)
O9 O 0.0695(7) 0.1259(5) 0.8311(5)
O10 O 0.1601(6) 0.1709(6) 0.5174(5)
O11 O 0.0056(7) 0.0979(6) 0.3599(6)
O12 O 0.3382(10) 0.5877(9) 0.6150(9)
O13 O 0.1972(10) 0.6945(7) 0.5539(8)
O14 O 0.1237(6) -0.0071(6) 0.9205(6)
O15 O 0.2601(6) -0.0467(6) 0.7658(6)
H5 H 0.2861 -0.0797 0.8146
H6 H 0.2508 0.0263 0.8090
N2 N -0.3294(7) 0.0544(7) 0.4412(7)
N3 N 0.3571(9) 0.7221(8) 0.8590(9)
N4 N 0.2403(10) 0.5999(8) 0.5514(8)
C6 C 0.2841(9) 0.2919(8) 0.7737(7)
C7 C -0.1593(8) 0.1594(8) 0.6015(7)
C8 C -0.2993(9) 0.1440(8) 0.5421(8)
C9 C 0.3220(9) 0.5105(8) 0.8239(8)
H7 H 0.2327 0.5155 0.8037
C10 C 0.3717(8) 0.4036(8) 0.8164(8)
C11 C 0.5052(8) 0.3986(8) 0.8482(8)
H8 H 0.5386 0.3255 0.8412
C12 C 0.5892(8) 0.5005(8) 0.8902(8)
C13 C 0.4080(9) 0.6105(8) 0.8622(8)
C14 C 0.7344(9) 0.4967(8) 0.9331(8)
C15 C 0.5414(9) 0.6083(8) 0.8978(8)
H9 H 0.5967 0.6778 0.9258
C16 C -0.3888(9) 0.2192(9) 0.5869(9)
H10 H -0.3641 0.2812 0.6570
C17 C -0.5145(10) 0.2017(10) 0.5273(9)
H11 H -0.5768 0.2514 0.5565
C18 C -0.4534(9) 0.0391(9) 0.3850(9)
H12 H -0.4768 -0.0235 0.3152
C19 C -0.5480(10) 0.1109(10) 0.4247(9)
H13 H -0.6330 0.0977 0.3824
C20 C 0.0909(10) 0.1765(9) 0.4291(8)
C21 C 0.1058(10) 0.2878(9) 0.4019(8)
C22 C 0.1700(10) 0.3884(9) 0.4864(9)
H14 H 0.2094 0.3876 0.5581
C23 C 0.0642(10) 0.3935(9) 0.2704(8)
C24 C 0.1198(10) 0.4980(9) 0.3562(9)
H15 H 0.1207 0.5699 0.3438
C25 C 0.0540(10) 0.2905(9) 0.2946(8)
H16 H 0.0114 0.2217 0.2375
C26 C 0.1737(11) 0.4909(9) 0.4605(9)
C27 C 0.0335(13) 0.0482(10) 0.8736(10)
C28 C 0.0191(9) 0.3913(8) 0.1492(8)
O16 O 0.0072(7) 0.2942(6) 0.0706(6)
O17 O -0.0012(6) 0.4874(6) 0.1339(6)
Nd1_2 Nd -0.00686(4) 0.32272(4) -0.11141(4)
Nd1_3 Nd 0.99314(4) 0.32272(4) 0.88859(4)
Nd1A Nd 0.00686(4) 0.67728(4) 0.11141(4)
Nd1A_2 Nd 1.00686(4) 0.67728(4) 1.11141(4)
Nd2A Nd -0.13984(4) -0.06195(4) 0.35422(4)
O3A O 0.0835(6) -0.0884(6) 0.4461(6)
O6A O 0.2045(6) 0.4080(6) 1.0065(5)
O7_2 O -0.2200(6) 0.3971(5) 0.9079(6)
O11A O -0.0056(7) -0.0979(6) 0.6401(6)
N2A N 0.3294(7) -0.0544(7) 0.5588(7)
O16_2 O 0.0072(7) 0.2942(6) 1.0706(6)
O17A O 0.0012(6) 0.5126(6) 0.8661(6)
loop_
_geom_bond_atom_site_label_1
_geom_bond_atom_site_label_2
_geom_bond_site_symmetry_1
_geom_bond_site_symmetry_2
C1 H1 1_555 1_555
N1 C1 1_555 1_555
C2 N1 1_555 1_555
C3 C2 1_555 1_555
H2 C3 1_555 1_555
C4 C3 1_555 1_555
H3 C4 1_555 1_555
C5 C1 1_555 1_555
H4 C5 1_555 1_555
Nd1 N1 1_555 1_555
Nd2 O1 1_555 1_555
O1 Nd1 1_555 1_555
O2 Nd2 1_555 1_555
O3 Nd2 1_555 1_555
O4 Nd1 1_555 1_555
O5 N3 1_555 1_555
O6 C14 1_555 1_555
O7 C14 1_555 1_555
O8 N3 1_555 1_555
O9 Nd1 1_555 1_555
O10 Nd2 1_555 1_555
O11 C20 1_555 1_555
O12 N4 1_555 1_555
O13 N4 1_555 1_555
O14 C27 1_555 1_555
O15 Nd2 1_555 1_555
H5 O15 1_555 1_555
H6 O15 1_555 1_555
N2 C8 1_555 1_555
N3 C13 1_555 1_555
N4 C26 1_555 1_555
C6 O1 1_555 1_555
C7 O3 1_555 1_555
C8 C7 1_555 1_555
C9 H7 1_555 1_555
C10 C6 1_555 1_555
C11 C10 1_555 1_555
H8 C11 1_555 1_555
C12 C11 1_555 1_555
C13 C9 1_555 1_555
C14 C12 1_555 1_555
C15 C12 1_555 1_555
H9 C15 1_555 1_555
C16 C8 1_555 1_555
H10 C16 1_555 1_555
C17 C16 1_555 1_555
H11 C17 1_555 1_555
C18 N2 1_555 1_555
H12 C18 1_555 1_555
C19 C17 1_555 1_555
H13 C19 1_555 1_555
C20 O10 1_555 1_555
C21 C20 1_555 1_555
C22 C21 1_555 1_555
H14 C22 1_555 1_555
C23 C24 1_555 1_555
C24 H15 1_555 1_555
C25 C21 1_555 1_555
H16 C25 1_555 1_555
C26 C22 1_555 1_555
C27 C2 1_555 1_555
C28 C23 1_555 1_555
O16 C28 1_555 1_555
O17 C28 1_555 1_555
Nd1_2 O16 1_555 1_555
Nd1_3 O7 1_555 1_555
Nd1A O17 1_555 1_555
Nd1A_2 O6 1_555 1_555
Nd2A O3 1_555 1_555
O3A Nd2 1_555 1_555
O6A Nd1 1_555 1_555
O7_2 Nd1 1_555 1_555
O11A Nd2 1_555 1_555
N2A Nd2 1_555 1_555
O16_2 Nd1 1_555 1_555
O17A Nd1 1_555 1_555
C4 C5 1_555 1_555
Nd2 O9 1_555 1_555
O2 C6 1_555 1_555
O4 C7 1_555 1_555
O9 C27 1_555 1_555
O11 Nd2A 1_555 1_555
N2 Nd2A 1_555 1_555
C9 C10 1_555 1_555
C13 C15 1_555 1_555
C18 C19 1_555 1_555
C23 C25 1_555 1_555
C24 C26 1_555 1_555
Nd2A O3A 1_555 1_555

#END
