
#######################################################################
#
#                 Cambridge Crystallographic Data Centre
#                                CCDC 
#
#######################################################################
#
# If this CIF has been generated from an entry in the Cambridge 
# Structural Database, then it will include bibliographic, chemical, 
# crystal, experimental, refinement or atomic coordinate data resulting 
# from the CCDC's data processing and validation procedures.
#
#######################################################################

data_FIKRAU
_symmetry_cell_setting           monoclinic
_symmetry_space_group_name_H-M   'C 2/c'
_symmetry_Int_Tables_number      15
_space_group_name_Hall           '-C 2yn'
loop_
_symmetry_equiv_pos_site_id
_symmetry_equiv_pos_as_xyz
1 x,y,z
2 -x,y,1/2-z
3 1/2+x,1/2+y,z
4 1/2-x,1/2+y,1/2-z
5 -x,-y,-z
6 x,-y,1/2+z
7 1/2-x,1/2-y,-z
8 1/2+x,1/2-y,1/2+z
_cell_length_a                   26.173(4)
_cell_length_b                   15.123(2)
_cell_length_c                   17.514(2)
_cell_angle_alpha                90
_cell_angle_beta                 115.003(2)
_cell_angle_gamma                90
_cell_volume                     6282.64
loop_
_atom_site_label
_atom_site_type_symbol
_atom_site_fract_x
_atom_site_fract_y
_atom_site_fract_z
C1 C 0.02391(10) -0.1474(3) 0.0280(2)
H1 H 0.0224 -0.1306 0.0781
C2 C -0.02524(10) -0.1709(3) -0.0412(3)
H2 H -0.0596 -0.1698 -0.0374
C3 C -0.02301(11) -0.1959(3) -0.1161(2)
H3 H -0.0559 -0.2116 -0.1624
C4 C 0.02837(13) -0.1975(3) -0.1217(2)
H4 H 0.0299 -0.2143 -0.1719
C5 C 0.07752(11) -0.1740(2) -0.05253(19)
N1 N 0.07529(10) -0.1490(2) 0.02236(18)
C6 C 0.40936(10) -0.0772(3) 0.3089(3)
H5 H 0.4287 -0.1279 0.3065
C7 C 0.35080(10) -0.0743(2) 0.2708(2)
C8 C 0.32279(11) 0.0021(2) 0.2756(2)
H6 H 0.2836 0.0040 0.2501
C9 C 0.35334(13) 0.0757(2) 0.3184(3)
Ho1 Ho 0.174475(12) -0.129645(17) 0.146998(18)
Ho2 Ho 0.186991(12) 0.133671(17) 0.307022(18)
C10 C 0.1778(3) 0.0914(4) 0.1115(4)
O1 O 0.1665(2) 0.1344(3) 0.1639(3)
O2 O 0.1871(2) 0.0099(3) 0.1158(3)
C11 C 0.1801(3) 0.1395(4) 0.0385(4)
C12 C 0.1964(3) 0.1386(4) -0.0886(4)
C13 C 0.1923(3) 0.0940(4) -0.0210(4)
H7 H 0.1978 0.0332 -0.0159
C14 C 0.1861(3) 0.2294(4) -0.0980(4)
H8 H 0.1882 0.2602 -0.1426
C15 C 0.1702(3) 0.2307(4) 0.0290(4)
H9 H 0.1620 0.2625 0.0680
C16 C 0.1729(3) 0.2723(4) -0.0389(4)
N2 N 0.1641(3) 0.3692(4) -0.0472(5)
C17 C 0.2104(3) 0.0900(4) -0.1523(4)
O3 O 0.1674(3) 0.4063(4) -0.1063(4)
O4 O 0.1571(3) 0.4075(4) 0.0092(4)
O5 O 0.2181(2) 0.1349(3) -0.2066(3)
O6 O 0.2132(2) 0.0071(3) -0.1481(3)
C18 C 0.3174(3) -0.1545(4) 0.2255(4)
O7 O 0.2660(2) -0.1463(3) 0.1772(3)
O8 O 0.3510(2) 0.2290(3) 0.3431(4)
O9 O 0.3435(2) -0.2263(3) 0.2376(3)
O10 O 0.2715(2) 0.1523(3) 0.3043(4)
C19 C 0.3227(3) 0.1581(4) 0.3220(4)
C20 C 0.0424(3) -0.0698(4) 0.2386(4)
C21 C 0.0428(3) -0.1617(5) 0.2399(5)
H10 H 0.0716 -0.1928 0.2341
C22 C 0.0000 -0.2063(6) 0.2500
O11 O 0.1002(2) 0.0552(3) 0.2503(3)
C23 C 0.0884(3) -0.0224(5) 0.2245(5)
C24 C 0.0000 -0.0240(6) 0.2500
H11 H 0.0000 0.0374 0.2500
N3 N 0.0000 -0.3026(7) 0.2500
O12 O 0.0441(4) -0.3403(5) 0.2651(7)
O13 O 0.11224(15) -0.0663(2) 0.1896(2)
O14 O 0.25059(15) 0.1608(2) 0.4480(2)
H12 H 0.2855 0.1493 0.4745
H13 H 0.2334 0.1920 0.3830
C25 C 0.4113(3) 0.0738(5) 0.3564(6)
H14 H 0.4320 0.1226 0.3855
C26 C 0.4376(3) -0.0030(6) 0.3499(8)
N4 N 0.5001(4) -0.0075(7) 0.3899(9)
O15 O 0.5262(3) 0.0548(6) 0.4330(8)
O16 O 0.5227(4) -0.0726(7) 0.3786(8)
C27 C 0.1320(3) -0.1682(4) -0.0531(4)
O17 O 0.1747(2) -0.1576(4) 0.0168(3)
O18 O 0.13417(17) -0.1762(3) -0.1217(3)
C20A C -0.0424(3) -0.0698(4) 0.2614(4)
C21A C -0.0428(3) -0.1617(5) 0.2601(5)
H10A H -0.0716 -0.1928 0.2659
O11A O -0.1002(2) 0.0552(3) 0.2497(3)
C23A C -0.0884(3) -0.0224(5) 0.2755(5)
O12A O -0.0441(4) -0.3403(5) 0.2349(7)
O13A O -0.11224(15) -0.0663(2) 0.3104(2)
C1A C -0.02391(10) -0.1474(3) 0.4720(2)
H1A H -0.0224 -0.1306 0.4219
C2A C 0.02524(10) -0.1709(3) 0.5412(3)
H2A H 0.0596 -0.1698 0.5374
C3A C 0.02301(11) -0.1959(3) 0.6161(2)
H3A H 0.0559 -0.2116 0.6624
C4A C -0.02837(13) -0.1975(3) 0.6217(2)
H4A H -0.0299 -0.2143 0.6719
C5A C -0.07752(11) -0.1740(2) 0.55253(19)
N1A N -0.07529(10) -0.1490(2) 0.47764(18)
C6A C -0.40936(10) -0.0772(3) 0.1911(3)
H5A H -0.4287 -0.1279 0.1935
C7A C -0.35080(10) -0.0743(2) 0.2292(2)
C8A C -0.32279(11) 0.0021(2) 0.2244(2)
H6A H -0.2836 0.0040 0.2499
C9A C -0.35334(13) 0.0757(2) 0.1816(3)
Ho1A Ho -0.174475(12) -0.129645(17) 0.353002(18)
Ho2A Ho -0.186991(12) 0.133671(17) 0.192978(18)
C10A C -0.1778(3) 0.0914(4) 0.3885(4)
O1A O -0.1665(2) 0.1344(3) 0.3361(3)
O2A O -0.1871(2) 0.0099(3) 0.3842(3)
C11A C -0.1801(3) 0.1395(4) 0.4615(4)
C12A C -0.1964(3) 0.1386(4) 0.5886(4)
C13A C -0.1923(3) 0.0940(4) 0.5210(4)
H7A H -0.1978 0.0332 0.5159
C14A C -0.1861(3) 0.2294(4) 0.5980(4)
H8A H -0.1882 0.2602 0.6426
C15A C -0.1702(3) 0.2307(4) 0.4710(4)
H9A H -0.1620 0.2625 0.4320
C16A C -0.1729(3) 0.2723(4) 0.5389(4)
N2A N -0.1641(3) 0.3692(4) 0.5472(5)
C17A C -0.2104(3) 0.0900(4) 0.6523(4)
O3A O -0.1674(3) 0.4063(4) 0.6063(4)
O4A O -0.1571(3) 0.4075(4) 0.4908(4)
O5A O -0.2181(2) 0.1349(3) 0.7066(3)
O6A O -0.2132(2) 0.0071(3) 0.6481(3)
C18A C -0.3174(3) -0.1545(4) 0.2745(4)
O7A O -0.2660(2) -0.1463(3) 0.3228(3)
O8A O -0.3510(2) 0.2290(3) 0.1569(4)
O9A O -0.3435(2) -0.2263(3) 0.2624(3)
O10A O -0.2715(2) 0.1523(3) 0.1957(4)
C19A C -0.3227(3) 0.1581(4) 0.1780(4)
O14A O -0.25059(15) 0.1608(2) 0.0520(2)
H12A H -0.2855 0.1493 0.0255
H13A H -0.2334 0.1920 0.1170
C25A C -0.4113(3) 0.0738(5) 0.1436(6)
H14A H -0.4320 0.1226 0.1145
C26A C -0.4376(3) -0.0030(6) 0.1501(8)
N4A N -0.5001(4) -0.0075(7) 0.1101(9)
O15A O -0.5262(3) 0.0548(6) 0.0670(8)
O16A O -0.5227(4) -0.0726(7) 0.1214(8)
C27A C -0.1320(3) -0.1682(4) 0.5531(4)
O17A O -0.1747(2) -0.1576(4) 0.4832(3)
O18A O -0.13417(17) -0.1762(3) 0.6217(3)
Ho1B Ho -0.325525(12) 0.370355(17) 0.146998(18)
Ho1C Ho 0.325525(12) 0.370355(17) 0.353002(18)
Ho1D Ho -0.174475(12) 0.129645(17) 0.853002(18)
Ho1E Ho 0.174475(12) 0.129645(17) -0.353002(18)
Ho2B Ho -0.313009(12) -0.366329(17) 0.307022(18)
Ho2C Ho 0.313009(12) -0.366329(17) 0.192978(18)
Ho2D Ho -0.186991(12) -0.133671(17) 0.692978(18)
Ho2E Ho 0.186991(12) -0.133671(17) -0.192978(18)
O5D O -0.2181(2) -0.1349(3) 0.2066(3)
O5E O 0.2181(2) -0.1349(3) 0.2934(3)
O6D O -0.2132(2) -0.0071(3) 0.1481(3)
O6E O 0.2132(2) -0.0071(3) 0.3519(3)
O8B O -0.1490(2) -0.2710(3) 0.3431(4)
O8C O 0.1490(2) -0.2710(3) 0.1569(4)
O9B O -0.1565(2) 0.2737(3) 0.2376(3)
O9C O 0.1565(2) 0.2737(3) 0.2624(3)
O18D O -0.13417(17) 0.1762(3) 0.1217(3)
O18E O 0.13417(17) 0.1762(3) 0.3783(3)
O19 O 0.35758(17) 0.1014(3) 0.5252(3)
loop_
_geom_bond_atom_site_label_1
_geom_bond_atom_site_label_2
_geom_bond_site_symmetry_1
_geom_bond_site_symmetry_2
C1 H1 1_555 1_555
C2 C1 1_555 1_555
H2 C2 1_555 1_555
C3 C2 1_555 1_555
H3 C3 1_555 1_555
C4 C3 1_555 1_555
H4 C4 1_555 1_555
C5 C4 1_555 1_555
N1 C1 1_555 1_555
C6 H5 1_555 1_555
C7 C6 1_555 1_555
C8 C7 1_555 1_555
H6 C8 1_555 1_555
C9 C8 1_555 1_555
Ho1 N1 1_555 1_555
Ho2 O1 1_555 1_555
C10 O1 1_555 1_555
O2 Ho1 1_555 1_555
C11 C10 1_555 1_555
C12 C13 1_555 1_555
C13 C11 1_555 1_555
H7 C13 1_555 1_555
C14 C12 1_555 1_555
H8 C14 1_555 1_555
C15 C11 1_555 1_555
H9 C15 1_555 1_555
C16 C14 1_555 1_555
N2 C16 1_555 1_555
C17 C12 1_555 1_555
O3 N2 1_555 1_555
O4 N2 1_555 1_555
O5 C17 1_555 1_555
O6 C17 1_555 1_555
C18 C7 1_555 1_555
O7 Ho1 1_555 1_555
O8 C19 1_555 1_555
O9 C18 1_555 1_555
O10 Ho2 1_555 1_555
C19 C9 1_555 1_555
C20 C21 1_555 1_555
C21 H10 1_555 1_555
C22 C21 1_555 1_555
O11 Ho2 1_555 1_555
C23 C20 1_555 1_555
C24 C20 1_555 1_555
H11 C24 1_555 1_555
N3 C22 1_555 1_555
O12 N3 1_555 1_555
O13 Ho1 1_555 1_555
O14 Ho2 1_555 1_555
H12 O14 1_555 1_555
H13 O14 1_555 1_555
C25 C9 1_555 1_555
H14 C25 1_555 1_555
C26 C6 1_555 1_555
N4 C26 1_555 1_555
O15 N4 1_555 1_555
O16 N4 1_555 1_555
C27 C5 1_555 1_555
O17 Ho1 1_555 1_555
O18 C27 1_555 1_555
C20A C24 1_555 1_555
C21A C22 1_555 1_555
H10A C21A 1_555 1_555
O11A C23A 1_555 1_555
C23A C20A 1_555 1_555
O12A N3 1_555 1_555
O13A C23A 1_555 1_555
C1A H1A 1_555 1_555
C2A C1A 1_555 1_555
H2A C2A 1_555 1_555
C3A C2A 1_555 1_555
H3A C3A 1_555 1_555
C4A C3A 1_555 1_555
H4A C4A 1_555 1_555
C5A C4A 1_555 1_555
N1A C1A 1_555 1_555
C6A H5A 1_555 1_555
C7A C6A 1_555 1_555
C8A C7A 1_555 1_555
H6A C8A 1_555 1_555
C9A C8A 1_555 1_555
Ho1A O13A 1_555 1_555
Ho2A O11A 1_555 1_555
C10A O1A 1_555 1_555
O1A Ho2A 1_555 1_555
O2A Ho1A 1_555 1_555
C11A C10A 1_555 1_555
C12A C13A 1_555 1_555
C13A C11A 1_555 1_555
H7A C13A 1_555 1_555
C14A C12A 1_555 1_555
H8A C14A 1_555 1_555
C15A C11A 1_555 1_555
H9A C15A 1_555 1_555
C16A C14A 1_555 1_555
N2A C16A 1_555 1_555
C17A C12A 1_555 1_555
O3A N2A 1_555 1_555
O4A N2A 1_555 1_555
O5A C17A 1_555 1_555
O6A C17A 1_555 1_555
C18A C7A 1_555 1_555
O7A Ho1A 1_555 1_555
O8A C19A 1_555 1_555
O9A C18A 1_555 1_555
O10A Ho2A 1_555 1_555
C19A C9A 1_555 1_555
O14A Ho2A 1_555 1_555
H12A O14A 1_555 1_555
H13A O14A 1_555 1_555
C25A C9A 1_555 1_555
H14A C25A 1_555 1_555
C26A C6A 1_555 1_555
N4A C26A 1_555 1_555
O15A N4A 1_555 1_555
O16A N4A 1_555 1_555
C27A C5A 1_555 1_555
O17A Ho1A 1_555 1_555
O18A C27A 1_555 1_555
Ho1B O8A 1_555 1_555
Ho1C O8 1_555 1_555
Ho1D O5A 1_555 1_555
Ho1E O5 1_555 1_555
Ho2B O9A 1_555 1_555
Ho2C O9 1_555 1_555
Ho2D O6A 1_555 1_555
Ho2E O6 1_555 1_555
O5D Ho1A 1_555 1_555
O5E Ho1 1_555 1_555
O6D Ho2A 1_555 1_555
O6E Ho2 1_555 1_555
O8B Ho1A 1_555 1_555
O8C Ho1 1_555 1_555
O9B Ho2A 1_555 1_555
O9C Ho2 1_555 1_555
O18D Ho2A 1_555 1_555
O18E Ho2 1_555 1_555
C5 N1 1_555 1_555
C10 O2 1_555 1_555
C15 C16 1_555 1_555
C18 O7 1_555 1_555
O10 C19 1_555 1_555
O11 C23 1_555 1_555
C23 O13 1_555 1_555
C25 C26 1_555 1_555
C27 O17 1_555 1_555
O18 Ho2E 1_555 1_555
C20A C21A 1_555 1_555
C5A N1A 1_555 1_555
N1A Ho1A 1_555 1_555
C10A O2A 1_555 1_555
C15A C16A 1_555 1_555
C18A O7A 1_555 1_555
O10A C19A 1_555 1_555
C25A C26A 1_555 1_555
C27A O17A 1_555 1_555
O18A Ho2D 1_555 1_555

#END
