
#######################################################################
#
#                 Cambridge Crystallographic Data Centre
#                                CCDC 
#
#######################################################################
#
# If this CIF has been generated from an entry in the Cambridge 
# Structural Database, then it will include bibliographic, chemical, 
# crystal, experimental, refinement or atomic coordinate data resulting 
# from the CCDC's data processing and validation procedures.
#
#######################################################################

data_FIKSID
_symmetry_cell_setting           monoclinic
_symmetry_space_group_name_H-M   'P 21/c'
_symmetry_Int_Tables_number      14
_space_group_name_Hall           '-P 2ybc'
loop_
_symmetry_equiv_pos_site_id
_symmetry_equiv_pos_as_xyz
1 x,y,z
2 -x,1/2+y,1/2-z
3 -x,-y,-z
4 x,1/2-y,1/2+z
_cell_length_a                   12.4760(4)
_cell_length_b                   7.3608(2)
_cell_length_c                   10.7626(3)
_cell_angle_alpha                90
_cell_angle_beta                 107.169(3)
_cell_angle_gamma                90
_cell_volume                     944.322
loop_
_atom_site_label
_atom_site_type_symbol
_atom_site_fract_x
_atom_site_fract_y
_atom_site_fract_z
N1 N 0.1274(5) 0.1848(9) 0.2916(5)
O1 O 0.8444(5) 0.2423(10) 1.0186(6)
N2 N 0.0103(5) 0.3370(9) 0.3646(6)
N3 N 0.1062(5) 0.3253(9) 0.4616(6)
C1 C 0.1756(5) 0.2331(10) 0.4137(7)
Zn1 Zn 0.84182(4) 0.02564(7) 0.86138(4)
O2 O 0.6552(5) 0.0233(8) 0.8076(6)
C2 C 0.6374(5) 0.1250(10) 0.7105(6)
O3 O 0.7170(4) 0.2038(9) 0.6817(5)
C3 C 0.4341(6) 0.0622(10) 0.6669(7)
H1 H 0.4530 -0.0141 0.7391
C4 C 0.3230(6) 0.0856(11) 0.5977(7)
H2 H 0.2668 0.0278 0.6235
C5 C 0.2963(5) 0.1971(10) 0.4887(6)
C6 C 0.5186(5) 0.1509(9) 0.6306(6)
C7 C 0.4907(5) 0.2596(11) 0.5181(6)
H3 H 0.5467 0.3160 0.4912
C8 C 0.3796(6) 0.2818(11) 0.4482(7)
H4 H 0.3604 0.3536 0.3738
N4 N 0.0206(5) 0.2540(9) 0.2617(5)
H5 H 0.906(7) 0.23(2) 1.081(10)
H6 H 0.817(11) 0.253(19) 1.084(9)
N1B N 0.8726(5) -0.1848(9) 0.7084(5)
N2C N 1.0103(5) 0.1630(9) 0.8646(6)
N3A N 0.8938(5) -0.1747(9) 1.0384(6)
Zn1A Zn 0.15818(4) 0.52564(7) 0.63862(4)
Zn1B Zn 0.15818(4) -0.02564(7) 0.13862(4)
Zn1C Zn -0.15818(4) 0.47436(7) 0.36138(4)
loop_
_geom_bond_atom_site_label_1
_geom_bond_atom_site_label_2
_geom_bond_site_symmetry_1
_geom_bond_site_symmetry_2
N1 C1 1_555 1_555
O1 Zn1 1_555 1_555
N2 N3 1_555 1_555
N3 C1 1_555 1_555
C1 C5 1_555 1_555
Zn1 O2 1_555 1_555
O2 C2 1_555 1_555
C2 O3 1_555 1_555
O3 Zn1 1_555 1_555
C3 H1 1_555 1_555
C4 C3 1_555 1_555
H2 C4 1_555 1_555
C5 C4 1_555 1_555
C6 C2 1_555 1_555
C7 C6 1_555 1_555
H3 C7 1_555 1_555
C8 C5 1_555 1_555
H4 C8 1_555 1_555
N4 N1 1_555 1_555
H5 O1 1_555 1_555
H6 O1 1_555 1_555
N1B Zn1 1_555 1_555
N2C Zn1 1_555 1_555
N3A Zn1 1_555 1_555
Zn1A N3 1_555 1_555
Zn1B N1 1_555 1_555
Zn1C N2 1_555 1_555
N2 N4 1_555 1_555
C3 C6 1_555 1_555
C7 C8 1_555 1_555

#END
