
#######################################################################
#
#                 Cambridge Crystallographic Data Centre
#                                CCDC 
#
#######################################################################
#
# If this CIF has been generated from an entry in the Cambridge 
# Structural Database, then it will include bibliographic, chemical, 
# crystal, experimental, refinement or atomic coordinate data resulting 
# from the CCDC's data processing and validation procedures.
#
#######################################################################

data_FIKSOJ
_symmetry_cell_setting           triclinic
_symmetry_space_group_name_H-M   'P -1'
_symmetry_Int_Tables_number      2
_space_group_name_Hall           '-P 1'
loop_
_symmetry_equiv_pos_site_id
_symmetry_equiv_pos_as_xyz
1 x,y,z
2 -x,-y,-z
_cell_length_a                   7.1946(15)
_cell_length_b                   15.532(3)
_cell_length_c                   17.538(4)
_cell_angle_alpha                78.231(4)
_cell_angle_beta                 87.066(4)
_cell_angle_gamma                78.795(4)
_cell_volume                     1881.9
loop_
_atom_site_label
_atom_site_type_symbol
_atom_site_fract_x
_atom_site_fract_y
_atom_site_fract_z
O2 O 0.3593(9) 0.2521(4) -0.0055(4)
H19 H 0.3146 0.2053 0.0131
H20 H 0.4778 0.2417 0.0026
C1 C 0.2431(6) 0.4680(3) 0.4973(2)
C2 C 0.1788(6) 0.3881(3) 0.5443(3)
C3 C 0.1264(7) 0.3779(3) 0.6203(3)
H1 H 0.1339 0.4243 0.6481
C4 C 0.0640(7) 0.3012(3) 0.6571(3)
H2 H 0.0280 0.2923 0.7112
C5 C 0.0540(7) 0.2388(3) 0.6125(3)
H3 H 0.0084 0.1851 0.6354
C6 C 0.1101(7) 0.2519(3) 0.5369(3)
H4 H 0.1039 0.2076 0.5067
C7 C 0.2453(7) 0.2512(3) 0.2817(3)
C8 C 0.3087(7) 0.3268(3) 0.2342(3)
C9 C 0.3391(7) 0.3396(4) 0.1557(3)
H5 H 0.3198 0.2945 0.1283
C10 C 0.3959(8) 0.4168(4) 0.1164(3)
H6 H 0.4153 0.4276 0.0609
C11 C 0.4221(8) 0.4798(4) 0.1589(3)
H7 H 0.4659 0.5335 0.1345
C12 C 0.3878(7) 0.4629(3) 0.2375(3)
H8 H 0.4029 0.5066 0.2671
C13 C 0.1512(7) 0.5518(3) 0.7130(3)
C14 C -0.0014(7) 0.3354(3) 0.8632(2)
C15 C 0.0652(8) -0.0414(3) 0.2723(3)
C16 C 0.1963(7) -0.1541(3) -0.0788(3)
C17 C 0.1355(8) -0.2310(3) -0.0470(3)
H9 H 0.1031 -0.2441 0.0074
C18 C 0.1239(8) -0.2905(4) -0.0949(3)
H10 H 0.0809 -0.3455 -0.0742
C19 C 0.2331(7) -0.1907(3) -0.1986(3)
H11 H 0.2662 -0.1759 -0.2528
C20 C 0.1723(7) -0.2701(3) -0.1712(3)
H12 H 0.1644 -0.3105 -0.2051
C21 C 0.4548(6) 0.0519(3) -0.3371(2)
C22 C 0.4787(6) 0.1208(3) -0.2963(3)
C23 C 0.5405(7) 0.2011(3) -0.3302(3)
H13 H 0.5732 0.2131 -0.3846
C24 C 0.5507(7) 0.2607(3) -0.2842(3)
H14 H 0.5903 0.3163 -0.3062
C25 C 0.5039(7) 0.2410(3) -0.2048(3)
H15 H 0.5133 0.2818 -0.1714
C26 C 0.4437(7) 0.1600(3) -0.1756(3)
H16 H 0.4110 0.1454 -0.1214
C27 C 0.3724(7) -0.2248(3) -0.4533(3)
C28 C 0.0177(7) -0.0016(3) 0.4678(2)
Cu1 Cu 0.35196(8) -0.01825(4) -0.18295(3)
Cu2 Cu 0.26394(9) 0.35651(4) 0.39019(3)
Cu3 Cu 0.24272(9) 0.59775(4) 0.61345(4)
Cu4 Cu 0.42565(9) -0.11242(4) -0.49613(3)
Cu5 Cu 0.08388(9) -0.14930(4) 0.14002(3)
Cu6 Cu 0.06597(9) 0.00803(4) 0.35920(4)
Cu7 Cu 0.03737(10) 0.45127(4) 0.87272(4)
N1 N 0.2883(5) 0.4661(2) 0.4234(2)
N2 N 0.1718(5) 0.3266(2) 0.5021(2)
N3 N 0.3427(6) 0.5443(3) 0.3933(2)
N4 N 0.3298(6) 0.5906(3) 0.4487(2)
N5 N 0.2671(5) 0.5438(2) 0.5158(2)
N6 N 0.3325(6) 0.3886(3) 0.2756(2)
N7 N 0.2126(6) 0.2518(2) 0.3565(2)
N8 N 0.1587(6) 0.1753(3) 0.3885(2)
N9 N 0.1556(6) 0.1318(3) 0.3327(2)
N10 N 0.2128(6) 0.1768(3) 0.2644(2)
N11 N 0.3454(6) -0.2941(3) -0.4226(2)
N12 N 0.1103(6) 0.5187(3) 0.7740(3)
N13 N 0.0112(7) 0.4880(3) 0.9700(2)
N14 N 0.0632(6) -0.0764(3) 0.2199(2)
N15 N -0.0298(6) 0.2657(3) 0.8592(2)
N16 N 0.1858(5) -0.0789(2) 0.0392(2)
N17 N 0.2287(5) 0.0020(3) 0.0433(2)
N18 N 0.2830(5) 0.0405(2) -0.0247(2)
N19 N 0.2758(6) -0.0118(3) -0.0748(2)
N20 N 0.2171(6) -0.0840(3) -0.0348(2)
N21 N 0.2463(5) -0.1331(2) -0.1538(2)
N22 N 0.3973(5) -0.0186(2) -0.2944(2)
N23 N 0.3841(6) -0.0736(2) -0.3422(2)
N24 N 0.4822(5) 0.0430(2) -0.4089(2)
N25 N 0.4369(6) -0.0379(2) -0.4108(2)
N26 N 0.4305(5) 0.1037(2) -0.2200(2)
O1 O 0.6388(4) -0.0957(2) -0.14243(18)
H17 H 0.6993 -0.0754 -0.1119
H18 H 0.7063 -0.1254 -0.1730
C28A C -0.0177(7) 0.0016(3) 0.5322(2)
N13A N -0.0112(7) 0.5120(3) 1.0300(2)
C1A C -0.2431(6) -0.4680(3) 0.5027(2)
C2A C -0.1788(6) -0.3881(3) 0.4557(3)
C3A C -0.1264(7) -0.3779(3) 0.3797(3)
H1A H -0.1339 -0.4243 0.3519
C4A C -0.0640(7) -0.3012(3) 0.3429(3)
H2A H -0.0280 -0.2923 0.2888
C5A C -0.0540(7) -0.2388(3) 0.3875(3)
H3A H -0.0084 -0.1851 0.3646
C6A C -0.1101(7) -0.2519(3) 0.4631(3)
H4A H -0.1039 -0.2076 0.4933
C7A C -0.2453(7) -0.2512(3) 0.7183(3)
C8A C -0.3087(7) -0.3268(3) 0.7658(3)
C9A C -0.3391(7) -0.3396(4) 0.8443(3)
H5A H -0.3198 -0.2945 0.8717
C10A C -0.3959(8) -0.4168(4) 0.8836(3)
H6A H -0.4153 -0.4276 0.9391
C11A C -0.4221(8) -0.4798(4) 0.8411(3)
H7A H -0.4659 -0.5335 0.8655
C12A C -0.3878(7) -0.4629(3) 0.7625(3)
H8A H -0.4029 -0.5066 0.7329
C13A C -0.1512(7) -0.5518(3) 0.2870(3)
C14A C 0.0014(7) -0.3354(3) 0.1368(2)
C15A C -0.0652(8) 0.0414(3) 0.7277(3)
C16A C -0.1963(7) 0.1541(3) 1.0788(3)
C17A C -0.1355(8) 0.2310(3) 1.0470(3)
H9A H -0.1031 0.2441 0.9926
C18A C -0.1239(8) 0.2905(4) 1.0949(3)
H10A H -0.0809 0.3455 1.0742
C19A C -0.2331(7) 0.1907(3) 1.1986(3)
H11A H -0.2662 0.1759 1.2528
C20A C -0.1723(7) 0.2701(3) 1.1712(3)
H12A H -0.1644 0.3105 1.2051
C21A C -0.4548(6) -0.0519(3) 1.3371(2)
C22A C -0.4787(6) -0.1208(3) 1.2963(3)
C23A C -0.5405(7) -0.2011(3) 1.3302(3)
H13A H -0.5732 -0.2131 1.3846
C24A C -0.5507(7) -0.2607(3) 1.2842(3)
H14A H -0.5903 -0.3163 1.3062
C25A C -0.5039(7) -0.2410(3) 1.2048(3)
H15A H -0.5133 -0.2818 1.1714
C26A C -0.4437(7) -0.1600(3) 1.1756(3)
H16A H -0.4110 -0.1454 1.1214
C27A C -0.3724(7) 0.2248(3) 1.4533(3)
Cu1A Cu -0.35196(8) 0.01825(4) 1.18295(3)
Cu2A Cu -0.26394(9) -0.35651(4) 0.60981(3)
Cu3A Cu -0.24272(9) -0.59775(4) 0.38655(4)
Cu4A Cu -0.42565(9) 0.11242(4) 1.49613(3)
Cu5A Cu -0.08388(9) 0.14930(4) 0.85998(3)
Cu6A Cu -0.06597(9) -0.00803(4) 0.64080(4)
Cu7A Cu -0.03737(10) -0.45127(4) 0.12728(4)
N1A N -0.2883(5) -0.4661(2) 0.5766(2)
N2A N -0.1718(5) -0.3266(2) 0.4979(2)
N3A N -0.3427(6) -0.5443(3) 0.6067(2)
N4A N -0.3298(6) -0.5906(3) 0.5513(2)
N5A N -0.2671(5) -0.5438(2) 0.4842(2)
N6A N -0.3325(6) -0.3886(3) 0.7244(2)
N7A N -0.2126(6) -0.2518(2) 0.6435(2)
N8A N -0.1587(6) -0.1753(3) 0.6115(2)
N9A N -0.1556(6) -0.1318(3) 0.6673(2)
N10A N -0.2128(6) -0.1768(3) 0.7356(2)
N11A N -0.3454(6) 0.2941(3) 1.4226(2)
N12A N -0.1103(6) -0.5187(3) 0.2260(3)
N14A N -0.0632(6) 0.0764(3) 0.7801(2)
N15A N 0.0298(6) -0.2657(3) 0.1408(2)
N16A N -0.1858(5) 0.0789(2) 0.9608(2)
N17A N -0.2287(5) -0.0020(3) 0.9567(2)
N18A N -0.2830(5) -0.0405(2) 1.0247(2)
N19A N -0.2758(6) 0.0118(3) 1.0748(2)
N20A N -0.2171(6) 0.0840(3) 1.0348(2)
N21A N -0.2463(5) 0.1331(2) 1.1538(2)
N22A N -0.3973(5) 0.0186(2) 1.2944(2)
N23A N -0.3841(6) 0.0736(2) 1.3422(2)
N24A N -0.4822(5) -0.0430(2) 1.4089(2)
N25A N -0.4369(6) 0.0379(2) 1.4108(2)
N26A N -0.4305(5) -0.1037(2) 1.2200(2)
O1A O -0.6388(4) 0.0957(2) 1.14243(18)
H17A H -0.6993 0.0754 1.1119
H18A H -0.7063 0.1254 1.1730
Cu3_2 Cu 0.24272(9) -0.40225(4) -0.38655(4)
Cu3A_2 Cu -0.24272(9) 0.40225(4) 1.38655(4)
Cu4_2 Cu -0.57435(9) -0.11242(4) 1.50387(3)
Cu4A_2 Cu 0.57435(9) 0.11242(4) -0.50387(3)
Cu7A_2 Cu -0.03737(10) 0.54873(4) 1.12728(4)
N11_2 N 0.3454(6) 0.7059(3) 0.5774(2)
N11A_2 N -0.3454(6) -0.7059(3) 0.4226(2)
N13A_2 N -0.0112(7) -0.4880(3) 0.0300(2)
N24_2 N -0.5178(5) 0.0430(2) 1.5911(2)
N24A_2 N 0.5178(5) -0.0430(2) -0.5911(2)
N27? N -0.0177(7) 0.0016(3) 0.5322(2)
loop_
_geom_bond_atom_site_label_1
_geom_bond_atom_site_label_2
_geom_bond_site_symmetry_1
_geom_bond_site_symmetry_2
C1 C2 1_555 1_555
C2 C3 1_555 1_555
C3 H1 1_555 1_555
C4 C3 1_555 1_555
H2 C4 1_555 1_555
C5 C4 1_555 1_555
H3 C5 1_555 1_555
C6 C5 1_555 1_555
H4 C6 1_555 1_555
C7 C8 1_555 1_555
C8 C9 1_555 1_555
C9 H5 1_555 1_555
C10 C9 1_555 1_555
H6 C10 1_555 1_555
C11 C10 1_555 1_555
H7 C11 1_555 1_555
C12 C11 1_555 1_555
H8 C12 1_555 1_555
C13 Cu3 1_555 1_555
C14 Cu7 1_555 1_555
C15 Cu6 1_555 1_555
C16 C17 1_555 1_555
C17 H9 1_555 1_555
C18 C17 1_555 1_555
H10 C18 1_555 1_555
C19 H11 1_555 1_555
C20 C18 1_555 1_555
H12 C20 1_555 1_555
C21 C22 1_555 1_555
C22 C23 1_555 1_555
C23 H13 1_555 1_555
C24 C23 1_555 1_555
H14 C24 1_555 1_555
C25 C24 1_555 1_555
H15 C25 1_555 1_555
C26 C25 1_555 1_555
H16 C26 1_555 1_555
C27 Cu4 1_555 1_555
C28 Cu6 1_555 1_555
Cu1 N19 1_555 1_555
Cu2 N1 1_555 1_555
Cu3 N5 1_555 1_555
Cu4 N25 1_555 1_555
Cu5 N14 1_555 1_555
Cu6 N9 1_555 1_555
Cu7 N12 1_555 1_555
N1 C1 1_555 1_555
N2 C2 1_555 1_555
N3 N1 1_555 1_555
N4 N3 1_555 1_555
N5 C1 1_555 1_555
N6 C8 1_555 1_555
N7 C7 1_555 1_555
N8 N7 1_555 1_555
N9 N8 1_555 1_555
N10 C7 1_555 1_555
N11 C27 1_555 1_555
N12 C13 1_555 1_555
N13 Cu7 1_555 1_555
N14 C15 1_555 1_555
N15 C14 1_555 1_555
N16 Cu5 1_555 1_555
N17 N16 1_555 1_555
N18 N17 1_555 1_555
N19 N18 1_555 1_555
N20 C16 1_555 1_555
N21 C16 1_555 1_555
N22 C21 1_555 1_555
N23 N22 1_555 1_555
N24 C21 1_555 1_555
N25 N23 1_555 1_555
N26 C22 1_555 1_555
O1 Cu1 1_555 1_555
H17 O1 1_555 1_555
H18 O1 1_555 1_555
O2 H19 1_555 1_555
H20 O2 1_555 1_555
C28A C28 1_555 1_555
N13A N13 1_555 1_555
C1A C2A 1_555 1_555
C2A C3A 1_555 1_555
C3A H1A 1_555 1_555
C4A C3A 1_555 1_555
H2A C4A 1_555 1_555
C5A C4A 1_555 1_555
H3A C5A 1_555 1_555
C6A C5A 1_555 1_555
H4A C6A 1_555 1_555
C7A C8A 1_555 1_555
C8A C9A 1_555 1_555
C9A H5A 1_555 1_555
C10A C9A 1_555 1_555
H6A C10A 1_555 1_555
C11A C10A 1_555 1_555
H7A C11A 1_555 1_555
C12A C11A 1_555 1_555
H8A C12A 1_555 1_555
C13A Cu3A 1_555 1_555
C14A Cu7A 1_555 1_555
C15A Cu6A 1_555 1_555
C16A C17A 1_555 1_555
C17A H9A 1_555 1_555
C18A C17A 1_555 1_555
H10A C18A 1_555 1_555
C19A H11A 1_555 1_555
C20A C18A 1_555 1_555
H12A C20A 1_555 1_555
C21A C22A 1_555 1_555
C22A C23A 1_555 1_555
C23A H13A 1_555 1_555
C24A C23A 1_555 1_555
H14A C24A 1_555 1_555
C25A C24A 1_555 1_555
H15A C25A 1_555 1_555
C26A C25A 1_555 1_555
H16A C26A 1_555 1_555
C27A Cu4A 1_555 1_555
Cu1A N19A 1_555 1_555
Cu2A N1A 1_555 1_555
Cu3A N5A 1_555 1_555
Cu4A N25A 1_555 1_555
Cu5A N15 1_555 1_555
Cu6A C28A 1_555 1_555
Cu7A N12A 1_555 1_555
N1A C1A 1_555 1_555
N2A C2A 1_555 1_555
N3A N1A 1_555 1_555
N4A N3A 1_555 1_555
N5A C1A 1_555 1_555
N6A C8A 1_555 1_555
N7A C7A 1_555 1_555
N8A N7A 1_555 1_555
N9A Cu6A 1_555 1_555
N10A C7A 1_555 1_555
N11A C27A 1_555 1_555
N12A C13A 1_555 1_555
N14A C15A 1_555 1_555
N15A Cu5 1_555 1_555
N16A Cu5A 1_555 1_555
N17A N16A 1_555 1_555
N18A N17A 1_555 1_555
N19A N18A 1_555 1_555
N20A C16A 1_555 1_555
N21A C16A 1_555 1_555
N22A C21A 1_555 1_555
N23A N22A 1_555 1_555
N24A C21A 1_555 1_555
N25A N23A 1_555 1_555
N26A C22A 1_555 1_555
O1A Cu1A 1_555 1_555
H17A O1A 1_555 1_555
H18A O1A 1_555 1_555
Cu3_2 N11 1_555 1_555
Cu3A_2 N11A 1_555 1_555
Cu4_2 N24A 1_555 1_555
Cu4A_2 N24 1_555 1_555
Cu7A_2 N13A 1_555 1_555
N11_2 Cu3 1_555 1_555
N11A_2 Cu3A 1_555 1_555
N13A_2 Cu7A 1_555 1_555
N24_2 Cu4A 1_555 1_555
N24A_2 Cu4 1_555 1_555
C6 N2 1_555 1_555
C12 N6 1_555 1_555
C19 C20 1_555 1_555
C19 N21 1_555 1_555
C26 N26 1_555 1_555
Cu1 N21 1_555 1_555
Cu1 N22 1_555 1_555
Cu1 N26 1_555 1_555
Cu2 N2 1_555 1_555
Cu2 N6 1_555 1_555
Cu2 N7 1_555 1_555
N4 N5 1_555 1_555
N9 N10 1_555 1_555
N16 N20 1_555 1_555
N19 N20 1_555 1_555
N24 N25 1_555 1_555
C6A N2A 1_555 1_555
C12A N6A 1_555 1_555
C14A N15A 1_555 1_555
C19A C20A 1_555 1_555
C19A N21A 1_555 1_555
C26A N26A 1_555 1_555
Cu1A N21A 1_555 1_555
Cu1A N22A 1_555 1_555
Cu1A N26A 1_555 1_555
Cu2A N2A 1_555 1_555
Cu2A N6A 1_555 1_555
Cu2A N7A 1_555 1_555
Cu5A N14A 1_555 1_555
N4A N5A 1_555 1_555
N8A N9A 1_555 1_555
N9A N10A 1_555 1_555
N16A N20A 1_555 1_555
N19A N20A 1_555 1_555
N24A N25A 1_555 1_555

#END
