
#######################################################################
#
#                 Cambridge Crystallographic Data Centre
#                                CCDC 
#
#######################################################################
#
# If this CIF has been generated from an entry in the Cambridge 
# Structural Database, then it will include bibliographic, chemical, 
# crystal, experimental, refinement or atomic coordinate data resulting 
# from the CCDC's data processing and validation procedures.
#
#######################################################################

data_FIKSAU
_symmetry_cell_setting           monoclinic
_symmetry_space_group_name_H-M   'P 21/n'
_symmetry_Int_Tables_number      14
_space_group_name_Hall           '-P 2yn'
loop_
_symmetry_equiv_pos_site_id
_symmetry_equiv_pos_as_xyz
1 x,y,z
2 1/2-x,1/2+y,1/2-z
3 -x,-y,-z
4 1/2+x,1/2-y,1/2+z
_cell_length_a                   9.604(5)
_cell_length_b                   23.66(1)
_cell_length_c                   12.399(6)
_cell_angle_alpha                90
_cell_angle_beta                 96.660(9)
_cell_angle_gamma                90
_cell_volume                     2798.42
loop_
_atom_site_label
_atom_site_type_symbol
_atom_site_fract_x
_atom_site_fract_y
_atom_site_fract_z
Ag1 Ag 0.11866(5) 0.02630(2) 0.28572(4)
S1 S 0.22365(17) 0.09079(7) 0.43400(12)
S2 S 0.01693(16) -0.06087(6) 0.36407(11)
S3 S -0.17064(15) -0.03171(6) -0.09203(11)
C1 C -0.2776(7) 0.0929(3) -0.0576(5)
H1 H -0.2152 0.0819 0.0017
C2 C -0.2852(8) 0.1488(3) -0.0864(5)
H2 H -0.2262 0.1751 -0.0490
C3 C -0.3802(8) 0.1651(3) -0.1702(6)
H3 H -0.3867 0.2032 -0.1892
C4 C -0.4648(7) 0.1277(3) -0.2264(5)
H4 H -0.5297 0.1398 -0.2832
C5 C -0.4553(6) 0.0705(3) -0.1991(5)
H5 H -0.5131 0.0443 -0.2382
C6 C -0.3594(6) 0.0528(3) -0.1137(5)
C7 C -0.3455(7) -0.0084(3) -0.0813(5)
H6 H -0.3667 -0.0129 -0.0072
H7 H -0.4115 -0.0310 -0.1282
C8 C -0.1999(6) -0.1112(2) 0.0693(4)
H8 H -0.2894 -0.0946 0.0807
H9 H -0.2043 -0.1513 0.0856
C9 C -0.0866(6) -0.0845(3) 0.1469(4)
H10 H -0.0768 -0.0451 0.1272
H11 H 0.0018 -0.1032 0.1402
C10 C -0.1175(6) -0.0879(2) 0.2646(4)
H12 H -0.1342 -0.1271 0.2817
H13 H -0.2034 -0.0672 0.2711
C11 C 0.1544(6) -0.1130(2) 0.3592(5)
H14 H 0.1813 -0.1140 0.2862
H15 H 0.2357 -0.1013 0.4077
C12 C 0.1135(5) -0.1715(2) 0.3900(4)
C13 C 0.1175(6) -0.1878(3) 0.4979(5)
H16 H 0.1434 -0.1617 0.5528
C14 C 0.0839(7) -0.2412(3) 0.5237(5)
H17 H 0.0876 -0.2515 0.5963
C15 C 0.0452(6) -0.2799(3) 0.4459(6)
H18 H 0.0221 -0.3165 0.4647
C16 C 0.0405(7) -0.2648(3) 0.3402(6)
H19 H 0.0136 -0.2913 0.2864
C17 C 0.0746(6) -0.2111(3) 0.3113(5)
H20 H 0.0714 -0.2015 0.2383
C18 C 0.4461(7) 0.0150(3) 0.4637(5)
H21 H 0.4931 0.0377 0.4137
H22 H 0.3901 -0.0129 0.4210
C19 C 0.3514(9) 0.0517(3) 0.5148(6)
H23 H 0.4086 0.0783 0.5600
H24 H 0.3031 0.0284 0.5631
C20 C 0.3109(8) 0.1493(3) 0.3843(5)
H25 H 0.3877 0.1357 0.3470
H26 H 0.2462 0.1693 0.3318
C21 C 0.3683(7) 0.1902(3) 0.4724(5)
C22 C 0.5031(7) 0.2077(3) 0.4791(5)
H27 H 0.5618 0.1936 0.4310
C23 C 0.5534(7) 0.2463(3) 0.5566(6)
H28 H 0.6463 0.2580 0.5600
C24 C 0.4709(7) 0.2679(3) 0.6284(5)
H29 H 0.5065 0.2942 0.6801
C25 C 0.3358(7) 0.2503(3) 0.6236(5)
H30 H 0.2779 0.2646 0.6722
C26 C 0.2844(7) 0.2111(3) 0.5461(6)
H31 H 0.1921 0.1987 0.5437
C27 C -0.1773(7) -0.1041(2) -0.0484(4)
H32 H -0.2526 -0.1232 -0.0932
H33 H -0.0902 -0.1226 -0.0604
Ag1B Ag 0.88134(5) -0.02630(2) 0.71428(4)
Ag1B_2 Ag -0.11866(5) -0.02630(2) -0.28572(4)
S1B S 0.77635(17) -0.09079(7) 0.56600(12)
S2B S -0.01693(16) 0.06087(6) -0.36407(11)
S2B_2 S 0.98307(16) 0.06087(6) 0.63593(11)
S3B S 0.17064(15) 0.03171(6) 0.09203(11)
S3_2 S 0.82936(15) -0.03171(6) 0.90797(11)
C1B C 0.2776(7) -0.0929(3) 0.0576(5)
H1B H 0.2152 -0.0819 -0.0017
C2B C 0.2852(8) -0.1488(3) 0.0864(5)
H2B H 0.2262 -0.1751 0.0490
C3B C 0.3802(8) -0.1651(3) 0.1702(6)
H3B H 0.3867 -0.2032 0.1892
C4B C 0.4648(7) -0.1277(3) 0.2264(5)
H4B H 0.5297 -0.1398 0.2832
C5B C 0.4553(6) -0.0705(3) 0.1991(5)
H5B H 0.5131 -0.0443 0.2382
C6B C 0.3594(6) -0.0528(3) 0.1137(5)
C7B C 0.3455(7) 0.0084(3) 0.0813(5)
H6B H 0.3667 0.0129 0.0072
H7B H 0.4115 0.0310 0.1282
C8B C 0.1999(6) 0.1112(2) -0.0693(4)
H8B H 0.2894 0.0946 -0.0807
H9B H 0.2043 0.1513 -0.0856
C9B C 0.0866(6) 0.0845(3) -0.1469(4)
H10B H 0.0768 0.0451 -0.1272
H11B H -0.0018 0.1032 -0.1402
C10B C 0.1175(6) 0.0879(2) -0.2646(4)
H12B H 0.1342 0.1271 -0.2817
H13B H 0.2034 0.0672 -0.2711
C11B C -0.1544(6) 0.1130(2) -0.3592(5)
H14B H -0.1813 0.1140 -0.2862
H15B H -0.2357 0.1013 -0.4077
C12B C -0.1135(5) 0.1715(2) -0.3900(4)
C13B C -0.1175(6) 0.1878(3) -0.4979(5)
H16B H -0.1434 0.1617 -0.5528
C14B C -0.0839(7) 0.2412(3) -0.5237(5)
H17B H -0.0876 0.2515 -0.5963
C15B C -0.0452(6) 0.2799(3) -0.4459(6)
H18B H -0.0221 0.3165 -0.4647
C16B C -0.0405(7) 0.2648(3) -0.3402(6)
H19B H -0.0136 0.2913 -0.2864
C17B C -0.0746(6) 0.2111(3) -0.3113(5)
H20B H -0.0714 0.2015 -0.2383
C18B C 0.5539(7) -0.0150(3) 0.5363(5)
H21B H 0.5069 -0.0377 0.5863
H22B H 0.6099 0.0129 0.5790
C19B C 0.6486(9) -0.0517(3) 0.4852(6)
H23B H 0.5914 -0.0783 0.4400
H24B H 0.6969 -0.0284 0.4369
C20B C 0.6891(8) -0.1493(3) 0.6157(5)
H25B H 0.6123 -0.1357 0.6530
H26B H 0.7538 -0.1693 0.6682
C21B C 0.6317(7) -0.1902(3) 0.5276(5)
C22B C 0.4969(7) -0.2077(3) 0.5209(5)
H27B H 0.4382 -0.1936 0.5690
C23B C 0.4466(7) -0.2463(3) 0.4434(6)
H28B H 0.3537 -0.2580 0.4400
C24B C 0.5291(7) -0.2679(3) 0.3716(5)
H29B H 0.4935 -0.2942 0.3199
C25B C 0.6642(7) -0.2503(3) 0.3764(5)
H30B H 0.7221 -0.2646 0.3278
C26B C 0.7156(7) -0.2111(3) 0.4539(6)
H31B H 0.8079 -0.1987 0.4563
C27B C 0.1773(7) 0.1041(2) 0.0484(4)
H32B H 0.2526 0.1232 0.0932
H33B H 0.0902 0.1226 0.0604
Cl1 Cl -0.23604(18) 0.07861(7) 0.25952(13)
O1 O -0.1093(6) 0.0917(3) 0.2219(5)
O2 O -0.3173(8) 0.1260(3) 0.2553(6)
O3 O -0.3004(8) 0.0350(2) 0.1969(5)
O4 O -0.2068(7) 0.0586(2) 0.3681(4)
loop_
_geom_bond_atom_site_label_1
_geom_bond_atom_site_label_2
_geom_bond_site_symmetry_1
_geom_bond_site_symmetry_2
Ag1 S1 1_555 1_555
S1 C19 1_555 1_555
S2 Ag1 1_555 1_555
S3 C7 1_555 1_555
Cl1 O1 1_555 1_555
C1 H1 1_555 1_555
C2 C1 1_555 1_555
H2 C2 1_555 1_555
C3 C2 1_555 1_555
H3 C3 1_555 1_555
C4 C3 1_555 1_555
H4 C4 1_555 1_555
C5 C4 1_555 1_555
H5 C5 1_555 1_555
C6 C1 1_555 1_555
C7 C6 1_555 1_555
H6 C7 1_555 1_555
H7 C7 1_555 1_555
C8 H8 1_555 1_555
H9 C8 1_555 1_555
C9 C8 1_555 1_555
H10 C9 1_555 1_555
H11 C9 1_555 1_555
C10 S2 1_555 1_555
H12 C10 1_555 1_555
H13 C10 1_555 1_555
C11 S2 1_555 1_555
H14 C11 1_555 1_555
H15 C11 1_555 1_555
C12 C11 1_555 1_555
C13 C12 1_555 1_555
H16 C13 1_555 1_555
C14 C13 1_555 1_555
H17 C14 1_555 1_555
C15 C14 1_555 1_555
H18 C15 1_555 1_555
C16 C15 1_555 1_555
H19 C16 1_555 1_555
C17 C12 1_555 1_555
H20 C17 1_555 1_555
C18 H21 1_555 1_555
H22 C18 1_555 1_555
C19 C18 1_555 1_555
H23 C19 1_555 1_555
H24 C19 1_555 1_555
C20 S1 1_555 1_555
H25 C20 1_555 1_555
H26 C20 1_555 1_555
C21 C20 1_555 1_555
C22 C21 1_555 1_555
H27 C22 1_555 1_555
C23 C22 1_555 1_555
H28 C23 1_555 1_555
C24 C23 1_555 1_555
H29 C24 1_555 1_555
C25 C24 1_555 1_555
H30 C25 1_555 1_555
C26 C21 1_555 1_555
H31 C26 1_555 1_555
O2 Cl1 1_555 1_555
O3 Cl1 1_555 1_555
O4 Cl1 1_555 1_555
C27 S3 1_555 1_555
H32 C27 1_555 1_555
H33 C27 1_555 1_555
Ag1B S1B 1_555 1_555
Ag1B_2 S3 1_555 1_555
S1B C19B 1_555 1_555
S2B Ag1B_2 1_555 1_555
S2B_2 Ag1B 1_555 1_555
S3B Ag1 1_555 1_555
S3_2 Ag1B 1_555 1_555
C1B H1B 1_555 1_555
C2B C1B 1_555 1_555
H2B C2B 1_555 1_555
C3B C2B 1_555 1_555
H3B C3B 1_555 1_555
C4B C3B 1_555 1_555
H4B C4B 1_555 1_555
C5B C4B 1_555 1_555
H5B C5B 1_555 1_555
C6B C1B 1_555 1_555
C7B S3B 1_555 1_555
H6B C7B 1_555 1_555
H7B C7B 1_555 1_555
C8B H8B 1_555 1_555
H9B C8B 1_555 1_555
C9B C8B 1_555 1_555
H10B C9B 1_555 1_555
H11B C9B 1_555 1_555
C10B S2B 1_555 1_555
H12B C10B 1_555 1_555
H13B C10B 1_555 1_555
C11B S2B 1_555 1_555
H14B C11B 1_555 1_555
H15B C11B 1_555 1_555
C12B C11B 1_555 1_555
C13B C12B 1_555 1_555
H16B C13B 1_555 1_555
C14B C13B 1_555 1_555
H17B C14B 1_555 1_555
C15B C14B 1_555 1_555
H18B C15B 1_555 1_555
C16B C15B 1_555 1_555
H19B C16B 1_555 1_555
C17B C12B 1_555 1_555
H20B C17B 1_555 1_555
C18B C18 1_555 1_555
H21B C18B 1_555 1_555
H22B C18B 1_555 1_555
C19B C18B 1_555 1_555
H23B C19B 1_555 1_555
H24B C19B 1_555 1_555
C20B S1B 1_555 1_555
H25B C20B 1_555 1_555
H26B C20B 1_555 1_555
C21B C20B 1_555 1_555
C22B C21B 1_555 1_555
H27B C22B 1_555 1_555
C23B C22B 1_555 1_555
H28B C23B 1_555 1_555
C24B C23B 1_555 1_555
H29B C24B 1_555 1_555
C25B C24B 1_555 1_555
H30B C25B 1_555 1_555
C26B C21B 1_555 1_555
H31B C26B 1_555 1_555
C27B S3B 1_555 1_555
H32B C27B 1_555 1_555
H33B C27B 1_555 1_555
C5 C6 1_555 1_555
C8 C27 1_555 1_555
C9 C10 1_555 1_555
C16 C17 1_555 1_555
C25 C26 1_555 1_555
C5B C6B 1_555 1_555
C6B C7B 1_555 1_555
C8B C27B 1_555 1_555
C9B C10B 1_555 1_555
C16B C17B 1_555 1_555
C25B C26B 1_555 1_555

#END
