
#######################################################################
#
#                 Cambridge Crystallographic Data Centre
#                                CCDC 
#
#######################################################################
#
# If this CIF has been generated from an entry in the Cambridge 
# Structural Database, then it will include bibliographic, chemical, 
# crystal, experimental, refinement or atomic coordinate data resulting 
# from the CCDC's data processing and validation procedures.
#
#######################################################################

data_FIKSAV
_symmetry_cell_setting           triclinic
_symmetry_space_group_name_H-M   'P -1'
_symmetry_Int_Tables_number      2
_space_group_name_Hall           '-P 1'
loop_
_symmetry_equiv_pos_site_id
_symmetry_equiv_pos_as_xyz
1 x,y,z
2 -x,-y,-z
_cell_length_a                   10.458(2)
_cell_length_b                   12.005(3)
_cell_length_c                   12.689(3)
_cell_angle_alpha                110.163(2)
_cell_angle_beta                 100.769(3)
_cell_angle_gamma                90.628(3)
_cell_volume                     1464.2
loop_
_atom_site_label
_atom_site_type_symbol
_atom_site_fract_x
_atom_site_fract_y
_atom_site_fract_z
C1 C -0.3034(5) 0.1454(5) 0.8837(7)
H1 H -0.3468 0.2118 0.8808
N1 N -0.1713(5) 0.1428(4) 0.8806(6)
C2 C -0.1063(5) 0.0436(6) 0.8849(7)
C3 C -0.1735(7) -0.0530(5) 0.8924(8)
H2 H -0.1301 -0.1194 0.8953
C4 C -0.3056(7) -0.0505(6) 0.8955(8)
H3 H -0.3506 -0.1151 0.9005
C5 C -0.3706(5) 0.0488(7) 0.8912(8)
H4 H -0.4590 0.0505 0.8933
Pr1 Pr -0.00693(4) 0.32252(3) 0.88900(3)
Pr2 Pr 0.13994(4) 0.06161(3) 0.64653(3)
O1 O 0.1621(5) 0.2952(4) 0.7601(4)
O2 O 0.3372(5) 0.1961(5) 0.7508(5)
O3 O -0.0846(5) 0.0890(5) 0.5533(5)
O4 O -0.1256(5) 0.2422(5) 0.6940(4)
O5 O 0.2405(7) 0.7261(7) 0.8391(8)
O6 O 0.7949(5) 0.5919(5) 0.9932(4)
O7 O 0.7784(5) 0.3971(5) 0.9048(5)
O8 O 0.4340(8) 0.8024(6) 0.8725(8)
O9 O 0.0684(6) 0.1252(4) 0.8320(4)
O10 O 0.1609(5) 0.1706(5) 0.5175(4)
O11 O 0.0086(6) 0.0971(5) 0.3590(5)
O12 O 0.3346(9) 0.5877(8) 0.6149(7)
O13 O 0.1941(9) 0.6934(6) 0.5520(7)
O14 O 0.1232(5) -0.0093(5) 0.9211(5)
O15 O 0.2596(5) -0.0489(5) 0.7664(5)
H5 H 0.2856 -0.0819 0.8152
H6 H 0.2503 0.0241 0.8095
N2 N -0.3296(6) 0.0555(6) 0.4424(6)
N3 N 0.3562(8) 0.7207(7) 0.8594(8)
N4 N 0.2372(9) 0.5993(7) 0.5513(7)
C6 C 0.2846(7) 0.2917(6) 0.7740(6)
C7 C -0.1586(7) 0.1598(6) 0.6020(6)
C8 C -0.3003(7) 0.1447(7) 0.5427(6)
C9 C 0.3223(7) 0.5096(7) 0.8239(6)
H7 H 0.2328 0.5145 0.8045
C10 C 0.3721(7) 0.4034(6) 0.8166(6)
C11 C 0.5057(7) 0.3985(7) 0.8479(6)
H8 H 0.5394 0.3255 0.8407
C12 C 0.5889(7) 0.5004(6) 0.8895(6)
C13 C 0.4079(8) 0.6091(7) 0.8606(7)
C14 C 0.7320(7) 0.4964(7) 0.9327(6)
C15 C 0.5410(8) 0.6071(7) 0.8969(7)
H9 H 0.5961 0.6768 0.9255
C16 C -0.3889(8) 0.2182(8) 0.5877(7)
H10 H -0.3638 0.2792 0.6584
C17 C -0.5164(8) 0.2024(8) 0.5285(8)
H11 H -0.5787 0.2520 0.5580
C18 C -0.4538(8) 0.0405(8) 0.3852(7)
H12 H -0.4768 -0.0212 0.3148
C19 C -0.5482(9) 0.1114(9) 0.4250(8)
H13 H -0.6331 0.0979 0.3823
C20 C 0.0925(8) 0.1764(7) 0.4289(7)
C21 C 0.1064(8) 0.2877(7) 0.4027(7)
C22 C 0.1694(8) 0.3890(7) 0.4864(7)
H14 H 0.2082 0.3890 0.5586
C23 C 0.0644(8) 0.3939(7) 0.2705(7)
C24 C 0.1194(8) 0.4972(7) 0.3558(7)
H15 H 0.1201 0.5691 0.3432
C25 C 0.0555(8) 0.2903(7) 0.2951(7)
H16 H 0.0144 0.2210 0.2377
C26 C 0.1734(9) 0.4911(8) 0.4601(7)
C27 C 0.0297(11) 0.0473(8) 0.8746(9)
C28 C 0.0206(7) 0.3913(7) 0.1510(7)
O16 O 0.0077(6) 0.2941(5) 0.0723(5)
O17 O -0.0015(5) 0.4864(5) 0.1332(5)
Pr1_2 Pr -0.00693(4) 0.32252(3) -0.11100(3)
Pr1_3 Pr 0.99307(4) 0.32252(3) 0.88900(3)
Pr1A Pr 0.00693(4) 0.67748(3) 0.11100(3)
Pr1A_2 Pr 1.00693(4) 0.67748(3) 1.11100(3)
Pr2A Pr -0.13994(4) -0.06161(3) 0.35347(3)
O3A O 0.0846(5) -0.0890(5) 0.4467(5)
O6A O 0.2051(5) 0.4081(5) 1.0068(4)
O7_2 O -0.2216(5) 0.3971(5) 0.9048(5)
O11A O -0.0086(6) -0.0971(5) 0.6410(5)
N2A N 0.3296(6) -0.0555(6) 0.5576(6)
O16_2 O 0.0077(6) 0.2941(5) 1.0723(5)
O17A O 0.0015(5) 0.5136(5) 0.8668(5)
loop_
_geom_bond_atom_site_label_1
_geom_bond_atom_site_label_2
_geom_bond_site_symmetry_1
_geom_bond_site_symmetry_2
C1 H1 1_555 1_555
N1 C1 1_555 1_555
C2 N1 1_555 1_555
C3 C2 1_555 1_555
H2 C3 1_555 1_555
C4 C3 1_555 1_555
H3 C4 1_555 1_555
C5 C1 1_555 1_555
H4 C5 1_555 1_555
Pr1 N1 1_555 1_555
Pr2 O1 1_555 1_555
O1 Pr1 1_555 1_555
O2 Pr2 1_555 1_555
O3 Pr2 1_555 1_555
O4 Pr1 1_555 1_555
O5 N3 1_555 1_555
O6 C14 1_555 1_555
O7 C14 1_555 1_555
O8 N3 1_555 1_555
O9 Pr1 1_555 1_555
O10 Pr2 1_555 1_555
O11 C20 1_555 1_555
O12 N4 1_555 1_555
O13 N4 1_555 1_555
O14 C27 1_555 1_555
O15 Pr2 1_555 1_555
H5 O15 1_555 1_555
H6 O15 1_555 1_555
N2 C8 1_555 1_555
N3 C13 1_555 1_555
N4 C26 1_555 1_555
C6 O1 1_555 1_555
C7 O3 1_555 1_555
C8 C7 1_555 1_555
C9 H7 1_555 1_555
C10 C6 1_555 1_555
C11 C10 1_555 1_555
H8 C11 1_555 1_555
C12 C11 1_555 1_555
C13 C9 1_555 1_555
C14 C12 1_555 1_555
C15 C12 1_555 1_555
H9 C15 1_555 1_555
C16 C8 1_555 1_555
H10 C16 1_555 1_555
C17 C16 1_555 1_555
H11 C17 1_555 1_555
C18 N2 1_555 1_555
H12 C18 1_555 1_555
C19 C17 1_555 1_555
H13 C19 1_555 1_555
C20 O10 1_555 1_555
C21 C20 1_555 1_555
C22 C21 1_555 1_555
H14 C22 1_555 1_555
C23 C24 1_555 1_555
C24 H15 1_555 1_555
C25 C21 1_555 1_555
H16 C25 1_555 1_555
C26 C22 1_555 1_555
C27 C2 1_555 1_555
C28 C23 1_555 1_555
O16 C28 1_555 1_555
O17 C28 1_555 1_555
Pr1_2 O16 1_555 1_555
Pr1_3 O7 1_555 1_555
Pr1A O17 1_555 1_555
Pr1A_2 O6 1_555 1_555
Pr2A O3 1_555 1_555
O3A Pr2 1_555 1_555
O6A Pr1 1_555 1_555
O7_2 Pr1 1_555 1_555
O11A Pr2 1_555 1_555
N2A Pr2 1_555 1_555
O16_2 Pr1 1_555 1_555
O17A Pr1 1_555 1_555
C4 C5 1_555 1_555
Pr2 O9 1_555 1_555
O2 C6 1_555 1_555
O4 C7 1_555 1_555
O9 C27 1_555 1_555
O11 Pr2A 1_555 1_555
N2 Pr2A 1_555 1_555
C9 C10 1_555 1_555
C13 C15 1_555 1_555
C18 C19 1_555 1_555
C23 C25 1_555 1_555
C24 C26 1_555 1_555
Pr2A O3A 1_555 1_555

#END
