
#######################################################################
#
#                 Cambridge Crystallographic Data Centre
#                                CCDC 
#
#######################################################################
#
# If this CIF has been generated from an entry in the Cambridge 
# Structural Database, then it will include bibliographic, chemical, 
# crystal, experimental, refinement or atomic coordinate data resulting 
# from the CCDC's data processing and validation procedures.
#
#######################################################################

data_FIKTUQ
_symmetry_cell_setting           monoclinic
_symmetry_space_group_name_H-M   'P 21/c'
_symmetry_Int_Tables_number      14
_space_group_name_Hall           '-P 2ybc'
loop_
_symmetry_equiv_pos_site_id
_symmetry_equiv_pos_as_xyz
1 x,y,z
2 -x,1/2+y,1/2-z
3 -x,-y,-z
4 x,1/2-y,1/2+z
_cell_length_a                   8.9976(18)
_cell_length_b                   15.662(3)
_cell_length_c                   24.900(7)
_cell_angle_alpha                90
_cell_angle_beta                 104.51(3)
_cell_angle_gamma                90
_cell_volume                     3397
loop_
_atom_site_label
_atom_site_type_symbol
_atom_site_fract_x
_atom_site_fract_y
_atom_site_fract_z
C1 C 0.0873(5) 0.9447(2) 0.24796(16)
H1 H 0.1512 0.9635 0.2812
C2 C -0.0278(5) 0.9907(3) 0.21581(17)
H2 H -0.0567 1.0459 0.2224
C3 C -0.0140(4) 0.8660(2) 0.17890(14)
H3 H -0.0351 0.8203 0.1543
C4 C -0.2159(4) 0.9590(3) 0.12405(16)
C5 C -0.2289(6) 1.0384(3) 0.10100(19)
H4 H -0.1629 1.0820 0.1176
C6 C -0.3411(6) 1.0536(3) 0.0527(2)
H5 H -0.3488 1.1081 0.0374
C7 C -0.4412(4) 0.9921(3) 0.02660(16)
C8 C -0.4311(6) 0.9142(3) 0.0531(2)
H6 H -0.5001 0.8711 0.0381
C9 C -0.3199(6) 0.8991(3) 0.1019(2)
H7 H -0.3172 0.8466 0.1195
C10 C 0.5583(5) 0.8362(3) 0.24513(19)
H8 H 0.5516 0.8134 0.2101
C11 C 0.6848(6) 0.8714(4) 0.2783(2)
H9 H 0.7806 0.8765 0.2707
C12 C 0.4971(5) 0.8765(3) 0.31893(17)
H10 H 0.4419 0.8867 0.3452
C13 C 0.7450(5) 0.9328(3) 0.37443(19)
C14 C 0.6939(7) 0.9430(5) 0.4217(2)
H11 H 0.5919 0.9313 0.4206
C15 C 0.7929(7) 0.9709(5) 0.4712(2)
H12 H 0.7562 0.9785 0.5026
C16 C 0.9461(6) 0.9872(3) 0.4734(2)
C17 C 0.9880(6) 0.9844(4) 0.4250(3)
H13 H 1.0871 1.0009 0.4247
C18 C 0.8893(6) 0.9577(4) 0.3755(2)
H14 H 0.9228 0.9571 0.3431
C19 C 0.4333(6) 0.5955(3) 0.25339(19)
H15 H 0.3867 0.5833 0.2164
C20 C 0.5516(7) 0.5520(3) 0.28488(19)
H16 H 0.6009 0.5053 0.2740
C21 C 0.4852(4) 0.6532(3) 0.33237(16)
H17 H 0.4821 0.6892 0.3617
C22 C 0.7045(5) 0.5642(3) 0.38330(16)
C23 C 0.7696(6) 0.6220(3) 0.4234(2)
H18 H 0.7367 0.6785 0.4203
C24 C 0.8849(6) 0.5965(3) 0.4691(2)
H19 H 0.9277 0.6366 0.4961
C25 C 0.9376(4) 0.5136(3) 0.47556(16)
C26 C 0.8696(5) 0.4570(3) 0.43405(18)
H20 H 0.9031 0.4006 0.4367
C27 C 0.7538(5) 0.4809(3) 0.38882(18)
H21 H 0.7092 0.4408 0.3621
C28 C 0.2170(4) 0.7226(2) 0.12810(14)
C29 C 0.7301(5) 0.6720(3) 0.09590(18)
C30 C 0.1420(4) 0.7270(3) -0.08508(15)
H22 H 0.1276 0.7814 -0.0685
H23 H 0.0672 0.6870 -0.0776
C31 C 0.1179(5) 0.7377(3) -0.14747(15)
C32 C 0.3139(4) 0.7041(2) 0.08820(14)
C33 C 0.4685(4) 0.6890(3) 0.10841(15)
H24 H 0.5107 0.6858 0.1465
C34 C 0.5617(4) 0.6785(3) 0.07212(15)
C35 C 0.4986(4) 0.6820(3) 0.01574(15)
H25 H 0.5611 0.6758 -0.0086
C36 C 0.3422(4) 0.6946(3) -0.00472(14)
C37 C 0.2494(4) 0.7059(3) 0.03107(14)
H26 H 0.1445 0.7147 0.0173
N1 N 0.0964(3) 0.86620(19) 0.22446(12)
N2 N -0.0937(4) 0.93986(19) 0.17163(13)
N3 N 0.4403(4) 0.8392(2) 0.27107(13)
N4 N 0.6458(4) 0.8982(2) 0.32527(15)
N5 N 0.3912(4) 0.6597(2) 0.28291(12)
N6 N 0.5860(4) 0.5893(2) 0.33616(13)
O1 O 0.2876(3) 0.74076(18) 0.17626(10)
O2 O 0.0754(3) 0.7215(3) 0.11060(13)
O3 O 0.2247(3) 0.71679(18) -0.16830(10)
O4 O -0.0079(4) 0.7685(3) -0.17135(12)
O5 O 0.8106(3) 0.6817(3) 0.05896(13)
H27 H 0.9011 0.6891 0.0749
O6 O 0.7860(3) 0.6615(3) 0.14422(13)
O7 O 0.2927(3) 0.6962(2) -0.06148(10)
O8 O 0.0551(3) 0.68057(16) 0.23558(10)
H28 H 0.0108 0.6840 0.2605
H29 H -0.0020 0.6812 0.2057
Ni1 Ni 0.24290(5) 0.76324(3) 0.252035(16)
C1B C -1.0873(5) 1.0553(2) -0.24796(16)
H1B H -1.1512 1.0365 -0.2812
C2B C -0.9722(5) 1.0093(3) -0.21581(17)
H2B H -0.9433 0.9541 -0.2224
C3B C -0.9860(4) 1.1340(2) -0.17890(14)
H3B H -0.9649 1.1797 -0.1543
C4B C -0.7841(4) 1.0410(3) -0.12405(16)
C5B C -0.7711(6) 0.9616(3) -0.10100(19)
H4B H -0.8371 0.9180 -0.1176
C6B C -0.6589(6) 0.9464(3) -0.0527(2)
H5B H -0.6512 0.8919 -0.0374
C7B C -0.5588(4) 1.0079(3) -0.02660(16)
C8B C -0.5689(6) 1.0858(3) -0.0531(2)
H6B H -0.4999 1.1289 -0.0381
C9B C -0.6801(6) 1.1009(3) -0.1019(2)
H7B H -0.6828 1.1534 -0.1195
N1B N -1.0964(3) 1.13380(19) -0.22446(12)
N2B N -0.9063(4) 1.06014(19) -0.17163(13)
C10B C 1.4417(5) 1.1638(3) 0.75487(19)
H8B H 1.4484 1.1866 0.7899
C11B C 1.3152(6) 1.1286(4) 0.7217(2)
H9B H 1.2194 1.1235 0.7293
C12B C 1.5029(5) 1.1235(3) 0.68107(17)
H10B H 1.5581 1.1133 0.6548
C13B C 1.2550(5) 1.0672(3) 0.62557(19)
C14B C 1.3061(7) 1.0570(5) 0.5783(2)
H11B H 1.4081 1.0687 0.5794
C15B C 1.2071(7) 1.0291(5) 0.5288(2)
H12B H 1.2438 1.0215 0.4974
C16B C 1.0539(6) 1.0128(3) 0.5266(2)
C17B C 1.0120(6) 1.0156(4) 0.5750(3)
H13B H 0.9129 0.9991 0.5753
C18B C 1.1107(6) 1.0423(4) 0.6245(2)
H14B H 1.0772 1.0429 0.6569
N3B N 1.5597(4) 1.1608(2) 0.72893(13)
N4B N 1.3542(4) 1.1018(2) 0.67473(15)
C19B C 1.5667(6) 0.4045(3) 0.74661(19)
H15B H 1.6133 0.4167 0.7836
C20B C 1.4484(7) 0.4480(3) 0.71512(19)
H16B H 1.3991 0.4947 0.7260
C21B C 1.5148(4) 0.3468(3) 0.66763(16)
H17B H 1.5179 0.3108 0.6383
C22B C 1.2955(5) 0.4358(3) 0.61670(16)
C23B C 1.2304(6) 0.3780(3) 0.5766(2)
H18B H 1.2633 0.3215 0.5797
C24B C 1.1151(6) 0.4035(3) 0.5309(2)
H19B H 1.0723 0.3634 0.5039
C25B C 1.0624(4) 0.4864(3) 0.52444(16)
C26B C 1.1304(5) 0.5430(3) 0.56595(18)
H20B H 1.0969 0.5994 0.5633
C27B C 1.2462(5) 0.5191(3) 0.61118(18)
H21B H 1.2908 0.5592 0.6379
N5B N 1.6088(4) 0.3403(2) 0.71709(12)
N6B N 1.4140(4) 0.4107(2) 0.66384(13)
C28B C -1.2170(4) 1.2774(2) -0.12810(14)
C29B C -1.7301(5) 1.3280(3) -0.09590(18)
C30B C -1.1420(4) 1.2730(3) 0.08508(15)
H22B H -1.1276 1.2186 0.0685
H23B H -1.0672 1.3130 0.0776
C31B C -1.1179(5) 1.2623(3) 0.14747(15)
C32B C -1.3139(4) 1.2959(2) -0.08820(14)
C33B C -1.4685(4) 1.3110(3) -0.10841(15)
H24B H -1.5107 1.3142 -0.1465
C34B C -1.5617(4) 1.3215(3) -0.07212(15)
C35B C -1.4986(4) 1.3180(3) -0.01574(15)
H25B H -1.5611 1.3242 0.0086
C36B C -1.3422(4) 1.3054(3) 0.00472(14)
C37B C -1.2494(4) 1.2941(3) -0.03107(14)
H26B H -1.1445 1.2853 -0.0173
O1B O -1.2876(3) 1.25924(18) -0.17626(10)
O2B O -1.0754(3) 1.2785(3) -0.11060(13)
O3B O -1.2247(3) 1.28321(18) 0.16830(10)
O4B O -0.9921(4) 1.2315(3) 0.17135(12)
O5B O -1.8106(3) 1.3183(3) -0.05896(13)
H27B H -1.9011 1.3109 -0.0749
O6B O -1.7860(3) 1.3385(3) -0.14422(13)
O7B O -1.2927(3) 1.3038(2) 0.06148(10)
O8B O -1.0551(3) 1.31943(16) -0.23558(10)
H28B H -1.0108 1.3160 -0.2605
H29B H -0.9980 1.3188 -0.2057
Ni1B Ni -1.24290(5) 1.23676(3) -0.252035(16)
N3B_2 N -1.4403(4) 1.1608(2) -0.27107(13)
N5B_2 N -1.3912(4) 1.3403(2) -0.28291(12)
O3A O -1.2247(3) 1.21679(18) -0.33170(10)
O3C O 0.2247(3) 0.78321(18) 0.33170(10)
Ni1A Ni -1.24290(5) 1.26324(3) 0.247965(16)
Ni1B_2 Ni 1.75710(5) 0.23676(3) 0.747965(16)
Ni1B_3 Ni 1.75710(5) 1.23676(3) 0.747965(16)
Ni1C Ni 0.24290(5) 0.73676(3) -0.247965(16)
loop_
_geom_bond_atom_site_label_1
_geom_bond_atom_site_label_2
_geom_bond_site_symmetry_1
_geom_bond_site_symmetry_2
C1 H1 1_555 1_555
C2 C1 1_555 1_555
H2 C2 1_555 1_555
C3 H3 1_555 1_555
C4 C5 1_555 1_555
C5 H4 1_555 1_555
C6 C5 1_555 1_555
H5 C6 1_555 1_555
C7 C6 1_555 1_555
C8 C7 1_555 1_555
H6 C8 1_555 1_555
C9 C4 1_555 1_555
H7 C9 1_555 1_555
C10 H8 1_555 1_555
C11 C10 1_555 1_555
H9 C11 1_555 1_555
C12 H10 1_555 1_555
C13 C14 1_555 1_555
C14 H11 1_555 1_555
C15 C14 1_555 1_555
H12 C15 1_555 1_555
C16 C15 1_555 1_555
C17 C16 1_555 1_555
H13 C17 1_555 1_555
C18 C13 1_555 1_555
H14 C18 1_555 1_555
C19 H15 1_555 1_555
C20 C19 1_555 1_555
H16 C20 1_555 1_555
C21 H17 1_555 1_555
C22 C23 1_555 1_555
C23 H18 1_555 1_555
C24 C23 1_555 1_555
H19 C24 1_555 1_555
C25 C24 1_555 1_555
C26 C25 1_555 1_555
H20 C26 1_555 1_555
C27 C22 1_555 1_555
H21 C27 1_555 1_555
C28 C32 1_555 1_555
C29 C34 1_555 1_555
C30 H22 1_555 1_555
H23 C30 1_555 1_555
C31 C30 1_555 1_555
C32 C33 1_555 1_555
C33 H24 1_555 1_555
C34 C33 1_555 1_555
C35 C34 1_555 1_555
H25 C35 1_555 1_555
C36 C35 1_555 1_555
C37 C32 1_555 1_555
H26 C37 1_555 1_555
N1 C1 1_555 1_555
N2 C2 1_555 1_555
N3 C10 1_555 1_555
N4 C11 1_555 1_555
N5 C19 1_555 1_555
N6 C20 1_555 1_555
O1 C28 1_555 1_555
O2 C28 1_555 1_555
O3 C31 1_555 1_555
O4 C31 1_555 1_555
O5 C29 1_555 1_555
H27 O5 1_555 1_555
O6 C29 1_555 1_555
O7 C30 1_555 1_555
O8 H28 1_555 1_555
H29 O8 1_555 1_555
Ni1 N1 1_555 1_555
C1B H1B 1_555 1_555
C2B C1B 1_555 1_555
H2B C2B 1_555 1_555
C3B H3B 1_555 1_555
C4B C5B 1_555 1_555
C5B H4B 1_555 1_555
C6B C5B 1_555 1_555
H5B C6B 1_555 1_555
C7B C7 1_555 1_555
C8B C7B 1_555 1_555
H6B C8B 1_555 1_555
C9B C4B 1_555 1_555
H7B C9B 1_555 1_555
N1B C1B 1_555 1_555
N2B C2B 1_555 1_555
C10B H8B 1_555 1_555
C11B C10B 1_555 1_555
H9B C11B 1_555 1_555
C12B H10B 1_555 1_555
C13B C14B 1_555 1_555
C14B H11B 1_555 1_555
C15B C14B 1_555 1_555
H12B C15B 1_555 1_555
C16B C16 1_555 1_555
C17B C16B 1_555 1_555
H13B C17B 1_555 1_555
C18B C13B 1_555 1_555
H14B C18B 1_555 1_555
N3B C10B 1_555 1_555
N4B C11B 1_555 1_555
C19B H15B 1_555 1_555
C20B C19B 1_555 1_555
H16B C20B 1_555 1_555
C21B H17B 1_555 1_555
C22B C23B 1_555 1_555
C23B H18B 1_555 1_555
C24B C23B 1_555 1_555
H19B C24B 1_555 1_555
C25B C25 1_555 1_555
C26B C25B 1_555 1_555
H20B C26B 1_555 1_555
C27B C22B 1_555 1_555
H21B C27B 1_555 1_555
N5B C19B 1_555 1_555
N6B C20B 1_555 1_555
C28B C32B 1_555 1_555
C29B C34B 1_555 1_555
C30B H22B 1_555 1_555
H23B C30B 1_555 1_555
C31B C30B 1_555 1_555
C32B C33B 1_555 1_555
C33B H24B 1_555 1_555
C34B C33B 1_555 1_555
C35B C34B 1_555 1_555
H25B C35B 1_555 1_555
C36B C35B 1_555 1_555
C37B C32B 1_555 1_555
H26B C37B 1_555 1_555
O1B C28B 1_555 1_555
O2B C28B 1_555 1_555
O3B C31B 1_555 1_555
O4B C31B 1_555 1_555
O5B C29B 1_555 1_555
H27B O5B 1_555 1_555
O6B C29B 1_555 1_555
O7B C30B 1_555 1_555
O8B H28B 1_555 1_555
H29B O8B 1_555 1_555
Ni1B N1B 1_555 1_555
N3B_2 Ni1B 1_555 1_555
N5B_2 Ni1B 1_555 1_555
O3A Ni1B 1_555 1_555
O3C Ni1 1_555 1_555
Ni1A O3B 1_555 1_555
Ni1B_2 N5B 1_555 1_555
Ni1B_3 N3B 1_555 1_555
Ni1C O3 1_555 1_555
C3 N1 1_555 1_555
C3 N2 1_555 1_555
C4 N2 1_555 1_555
C8 C9 1_555 1_555
C12 N3 1_555 1_555
C12 N4 1_555 1_555
C13 N4 1_555 1_555
C17 C18 1_555 1_555
C21 N5 1_555 1_555
C21 N6 1_555 1_555
C22 N6 1_555 1_555
C26 C27 1_555 1_555
C36 C37 1_555 1_555
C36 O7 1_555 1_555
N3 Ni1 1_555 1_555
N5 Ni1 1_555 1_555
O1 Ni1 1_555 1_555
O8 Ni1 1_555 1_555
C3B N1B 1_555 1_555
C3B N2B 1_555 1_555
C4B N2B 1_555 1_555
C6B C7B 1_555 1_555
C8B C9B 1_555 1_555
C12B N3B 1_555 1_555
C12B N4B 1_555 1_555
C13B N4B 1_555 1_555
C15B C16B 1_555 1_555
C17B C18B 1_555 1_555
C21B N5B 1_555 1_555
C21B N6B 1_555 1_555
C22B N6B 1_555 1_555
C24B C25B 1_555 1_555
C26B C27B 1_555 1_555
C36B C37B 1_555 1_555
C36B O7B 1_555 1_555
O1B Ni1B 1_555 1_555
O8B Ni1B 1_555 1_555

#END
