
#######################################################################
#
#                 Cambridge Crystallographic Data Centre
#                                CCDC 
#
#######################################################################
#
# If this CIF has been generated from an entry in the Cambridge 
# Structural Database, then it will include bibliographic, chemical, 
# crystal, experimental, refinement or atomic coordinate data resulting 
# from the CCDC's data processing and validation procedures.
#
#######################################################################

data_FIKTOK
_symmetry_cell_setting           triclinic
_symmetry_space_group_name_H-M   'P -1'
_symmetry_Int_Tables_number      2
_space_group_name_Hall           '-P 1'
loop_
_symmetry_equiv_pos_site_id
_symmetry_equiv_pos_as_xyz
1 x,y,z
2 -x,-y,-z
_cell_length_a                   7.4106(15)
_cell_length_b                   16.622(3)
_cell_length_c                   16.683(3)
_cell_angle_alpha                104.24(3)
_cell_angle_beta                 101.49(3)
_cell_angle_gamma                98.67(3)
_cell_volume                     1908.29
loop_
_atom_site_label
_atom_site_type_symbol
_atom_site_fract_x
_atom_site_fract_y
_atom_site_fract_z
C1 C 0.5290(8) 0.3242(3) 0.3700(3)
H1 H 0.6038 0.3407 0.4255
C2 C 0.4746(8) 0.2439(3) 0.3190(3)
H2 H 0.5035 0.1955 0.3325
C3 C 0.3613(7) 0.3300(3) 0.2517(3)
H3 H 0.2974 0.3503 0.2095
C4 C 0.2684(7) 0.1773(3) 0.1706(3)
C5 C 0.2802(8) 0.0956(3) 0.1726(3)
H4 H 0.3609 0.0869 0.2187
C6 C 0.1741(8) 0.0272(3) 0.1075(3)
H5 H 0.1797 -0.0272 0.1115
C7 C 0.0580(7) 0.0368(3) 0.0353(3)
C8 C 0.0540(9) 0.1202(4) 0.0337(4)
H6 H -0.0210 0.1293 -0.0137
C9 C 0.1569(9) 0.1892(4) 0.0996(4)
H7 H 0.1513 0.2439 0.0963
C10 C 0.6825(8) 0.6959(3) 0.2211(3)
H8 H 0.7444 0.6824 0.2687
C11 C 0.6997(8) 0.7736(3) 0.2114(3)
H9 H 0.7736 0.8234 0.2503
C12 C 0.5029(7) 0.6830(3) 0.0979(3)
H10 H 0.4176 0.6604 0.0449
C13 C 0.5603(7) 0.8331(3) 0.0939(3)
C14 C 0.4561(10) 0.8157(4) 0.0110(4)
H11 H 0.4011 0.7599 -0.0208
C15 C 0.4339(10) 0.8816(4) -0.0244(4)
H12 H 0.3634 0.8690 -0.0804
C16 C 0.5116(7) 0.9649(3) 0.0196(3)
C17 C 0.6161(9) 0.9797(4) 0.1023(4)
H13 H 0.6733 1.0352 0.1344
C18 C 0.6379(9) 0.9150(4) 0.1385(4)
H14 H 0.7072 0.9276 0.1947
C19 C 0.7420(8) 0.4403(4) 0.2234(4)
C20 C 1.2145(8) 0.4273(4) 0.4749(3)
C21 C 1.0713(7) 0.3833(3) 0.3933(3)
C22 C 0.9792(7) 0.4310(3) 0.3475(3)
H15 H 1.0002 0.4896 0.3696
C23 C 0.8562(7) 0.3905(3) 0.2687(3)
C24 C 0.8313(7) 0.3037(3) 0.2345(3)
H16 H 0.7543 0.2771 0.1802
C25 C 0.9214(7) 0.2564(3) 0.2814(3)
C26 C 1.0365(7) 0.2960(3) 0.3612(3)
H17 H 1.0914 0.2640 0.3938
C27 C 0.9691(8) 0.1191(3) 0.2877(3)
H18 H 1.0964 0.1488 0.3188
H19 H 0.9768 0.0669 0.2481
C28 C 0.8597(8) 0.0977(3) 0.3502(3)
C29 C 0.2917(7) 0.5867(3) 0.2689(3)
C30 C -0.1936(7) 0.5842(3) 0.0135(3)
C31 C -0.0378(7) 0.6319(3) 0.0897(3)
C32 C 0.0144(7) 0.7195(3) 0.1108(3)
H20 H -0.0380 0.7480 0.0736
C33 C 0.1439(7) 0.7653(3) 0.1866(3)
C34 C 0.2273(7) 0.7226(3) 0.2414(3)
H21 H 0.3102 0.7527 0.2936
C35 C 0.1846(7) 0.6344(3) 0.2168(3)
C36 C 0.0513(7) 0.5886(3) 0.1422(3)
H22 H 0.0216 0.5296 0.1274
C37 C 0.3178(7) 0.9050(4) 0.2740(3)
H23 H 0.3667 0.9569 0.2617
H24 H 0.4213 0.8765 0.2847
C38 C 0.2473(7) 0.9279(3) 0.3539(3)
N1 N 0.4573(6) 0.3780(3) 0.3277(3)
N2 N 0.3668(6) 0.2477(3) 0.2423(3)
N3 N 0.5594(6) 0.6382(3) 0.1499(3)
N4 N 0.5855(6) 0.7656(3) 0.1318(3)
O1 O 1.3035(6) 0.5003(3) 0.4853(3)
O2 O 1.2470(5) 0.3874(3) 0.5307(2)
O3 O 0.7210(6) 0.5112(3) 0.2644(3)
O4 O 0.6626(6) 0.4058(3) 0.1453(3)
O5 O 0.8842(5) 0.1707(2) 0.2408(2)
O6 O 0.6870(5) 0.0739(3) 0.3269(2)
O7 O 0.9544(5) 0.1021(3) 0.4240(2)
O8 O 0.3149(5) 0.5149(2) 0.2329(2)
O9 O 0.3570(6) 0.6206(3) 0.3480(2)
O10 O -0.2358(6) 0.6161(2) -0.0463(2)
O11 O -0.2855(5) 0.5131(2) 0.0131(2)
O12 O 0.1778(5) 0.8516(2) 0.2005(2)
O13 O 0.0861(6) 0.8997(3) 0.3549(3)
O14 O 0.3711(5) 0.9772(2) 0.4195(2)
O15 O 0.6347(9) 0.1758(3) 0.5039(4)
H25 H 0.7363 0.2095 0.5231
H26 H 0.541(9) 0.186(4) 0.502(4)
O16 O 0.7635(6) -0.0815(3) 0.4035(3)
H27 H 0.8458 -0.0601 0.4506
H28 H 0.7120 -0.1293 0.4073
Cd1 Cd 0.51331(6) 0.51700(3) 0.37202(3)
Cd2 Cd 0.68351(6) 0.04401(3) 0.45842(3)
Cd3 Cd 0.49028(6) 0.49875(2) 0.11874(3)
C1A C -0.5290(8) -0.3242(3) -0.3700(3)
H1A H -0.6038 -0.3407 -0.4255
C2A C -0.4746(8) -0.2439(3) -0.3190(3)
H2A H -0.5035 -0.1955 -0.3325
C3A C -0.3613(7) -0.3300(3) -0.2517(3)
H3A H -0.2974 -0.3503 -0.2095
C4A C -0.2684(7) -0.1773(3) -0.1706(3)
C5A C -0.2802(8) -0.0956(3) -0.1726(3)
H4A H -0.3609 -0.0869 -0.2187
C6A C -0.1741(8) -0.0272(3) -0.1075(3)
H5A H -0.1797 0.0272 -0.1115
C7A C -0.0580(7) -0.0368(3) -0.0353(3)
C8A C -0.0540(9) -0.1202(4) -0.0337(4)
H6A H 0.0210 -0.1293 0.0137
C9A C -0.1569(9) -0.1892(4) -0.0996(4)
H7A H -0.1513 -0.2439 -0.0963
N1A N -0.4573(6) -0.3780(3) -0.3277(3)
N2A N -0.3668(6) -0.2477(3) -0.2423(3)
C10A C 0.3175(8) 1.3041(3) -0.2211(3)
H8A H 0.2556 1.3176 -0.2687
C11A C 0.3003(8) 1.2264(3) -0.2114(3)
H9A H 0.2264 1.1766 -0.2503
C12A C 0.4971(7) 1.3170(3) -0.0979(3)
H10A H 0.5824 1.3396 -0.0449
C13A C 0.4397(7) 1.1669(3) -0.0939(3)
C14A C 0.5439(10) 1.1843(4) -0.0110(4)
H11A H 0.5989 1.2401 0.0208
C15A C 0.5661(10) 1.1184(4) 0.0244(4)
H12A H 0.6366 1.1310 0.0804
C16A C 0.4884(7) 1.0351(3) -0.0196(3)
C17A C 0.3839(9) 1.0203(4) -0.1023(4)
H13A H 0.3267 0.9648 -0.1344
C18A C 0.3621(9) 1.0850(4) -0.1385(4)
H14A H 0.2928 1.0724 -0.1947
N3A N 0.4406(6) 1.3618(3) -0.1499(3)
N4A N 0.4145(6) 1.2344(3) -0.1318(3)
C19A C -0.7420(8) -0.4403(4) -0.2234(4)
C20A C -1.2145(8) -0.4273(4) -0.4749(3)
C21A C -1.0713(7) -0.3833(3) -0.3933(3)
C22A C -0.9792(7) -0.4310(3) -0.3475(3)
H15A H -1.0002 -0.4896 -0.3696
C23A C -0.8562(7) -0.3905(3) -0.2687(3)
C24A C -0.8313(7) -0.3037(3) -0.2345(3)
H16A H -0.7543 -0.2771 -0.1802
C25A C -0.9214(7) -0.2564(3) -0.2814(3)
C26A C -1.0365(7) -0.2960(3) -0.3612(3)
H17A H -1.0914 -0.2640 -0.3938
C27A C -0.9691(8) -0.1191(3) -0.2877(3)
H18A H -1.0964 -0.1488 -0.3188
H19A H -0.9768 -0.0669 -0.2481
C28A C -0.8597(8) -0.0977(3) -0.3502(3)
C29A C -0.2917(7) -0.5867(3) -0.2689(3)
C30A C 0.1936(7) -0.5842(3) -0.0135(3)
C31A C 0.0378(7) -0.6319(3) -0.0897(3)
C32A C -0.0144(7) -0.7195(3) -0.1108(3)
H20A H 0.0380 -0.7480 -0.0736
C33A C -0.1439(7) -0.7653(3) -0.1866(3)
C34A C -0.2273(7) -0.7226(3) -0.2414(3)
H21A H -0.3102 -0.7527 -0.2936
C35A C -0.1846(7) -0.6344(3) -0.2168(3)
C36A C -0.0513(7) -0.5886(3) -0.1422(3)
H22A H -0.0216 -0.5296 -0.1274
C37A C -0.3178(7) -0.9050(4) -0.2740(3)
H23A H -0.3667 -0.9569 -0.2617
H24A H -0.4213 -0.8765 -0.2847
C38A C -0.2473(7) -0.9279(3) -0.3539(3)
O1A O -1.3035(6) -0.5003(3) -0.4853(3)
O2A O -1.2470(5) -0.3874(3) -0.5307(2)
O3A O -0.7210(6) -0.5112(3) -0.2644(3)
O4A O -0.6626(6) -0.4058(3) -0.1453(3)
O5A O -0.8842(5) -0.1707(2) -0.2408(2)
O6A O -0.6870(5) -0.0739(3) -0.3269(2)
O7A O -0.9544(5) -0.1021(3) -0.4240(2)
O8A O -0.3149(5) -0.5149(2) -0.2329(2)
O9A O -0.3570(6) -0.6206(3) -0.3480(2)
O10A O 0.2358(6) -0.6161(2) 0.0463(2)
O11A O 0.2855(5) -0.5131(2) -0.0131(2)
O12A O -0.1778(5) -0.8516(2) -0.2005(2)
O13A O -0.0861(6) -0.8997(3) -0.3549(3)
O14A O -0.3711(5) -0.9772(2) -0.4195(2)
O15A O -0.6347(9) -0.1758(3) -0.5039(4)
H25A H -0.7363 -0.2095 -0.5231
H26A H -0.541(9) -0.186(4) -0.502(4)
O16A O -0.7635(6) 0.0815(3) -0.4035(3)
H27A H -0.8458 0.0601 -0.4506
H28A H -0.7120 0.1293 -0.4073
Cd1A Cd -0.51331(6) -0.51700(3) -0.37202(3)
Cd2A Cd -0.68351(6) -0.04401(3) -0.45842(3)
Cd3A Cd -0.49028(6) -0.49875(2) -0.11874(3)
N3A_2 N -0.5594(6) -0.6382(3) -0.1499(3)
O1_2 O -0.6965(6) -0.4997(3) -0.5147(3)
O1_3 O 0.3035(6) 0.5003(3) 0.4853(3)
O1A_2 O -0.3035(6) -0.5003(3) -0.4853(3)
O1A_3 O 0.6965(6) 0.4997(3) 0.5147(3)
O2_2 O -0.7530(5) -0.6126(3) -0.4693(2)
O2A_2 O 0.7530(5) 0.6126(3) 0.4693(2)
O10_2 O -0.2358(6) -0.3839(2) -0.0463(2)
O10A_2 O 0.2358(6) 0.3839(2) 0.0463(2)
O11_2 O -0.2855(5) -0.4869(2) 0.0131(2)
O11_3 O 0.7145(5) 0.5131(2) 0.0131(2)
O11A_2 O -0.7145(5) -0.5131(2) -0.0131(2)
O11A_3 O 0.2855(5) 0.4869(2) -0.0131(2)
O14_2 O -0.6289(5) -0.0228(2) -0.5805(2)
O14_3 O 0.3711(5) -0.0228(2) 0.4195(2)
O14A_2 O -0.3711(5) 0.0228(2) -0.4195(2)
O14A_3 O 0.6289(5) 0.0228(2) 0.5805(2)
Cd1_2 Cd -1.48669(6) -0.48300(3) -0.62798(3)
Cd1_3 Cd 1.51331(6) 0.51700(3) 0.37202(3)
Cd1A_2 Cd -1.51331(6) -0.51700(3) -0.37202(3)
Cd1A_3 Cd 1.48669(6) 0.48300(3) 0.62798(3)
Cd2_2 Cd -0.31649(6) -0.95599(3) -0.54158(3)
Cd2_3 Cd 0.68351(6) 1.04401(3) 0.45842(3)
Cd2A_2 Cd -0.68351(6) -1.04401(3) -0.45842(3)
Cd2A_3 Cd 0.31649(6) 0.95599(3) 0.54158(3)
Cd3_2 Cd -0.50972(6) 0.49875(2) 0.11874(3)
Cd3_3 Cd 0.49028(6) -0.50125(2) 0.11874(3)
Cd3A_2 Cd -0.49028(6) 0.50125(2) -0.11874(3)
Cd3A_3 Cd 0.50972(6) -0.49875(2) -0.11874(3)
Cd3A_4 Cd 0.50972(6) 1.50125(2) -0.11874(3)
O17 O 0.2931(7) 0.2099(3) 0.5204(4)
H29 H 0.1838 0.1806 0.4938
H30 H 0.322(15) 0.270(7) 0.556(7)
O18 O 0.9126(9) 0.3106(4) 0.5688(4)
H31 H 0.8542 0.3479 0.5892
H32 H 1.0088 0.3201 0.5494
loop_
_geom_bond_atom_site_label_1
_geom_bond_atom_site_label_2
_geom_bond_site_symmetry_1
_geom_bond_site_symmetry_2
C1 H1 1_555 1_555
C2 C1 1_555 1_555
H2 C2 1_555 1_555
C3 H3 1_555 1_555
C4 C5 1_555 1_555
C5 H4 1_555 1_555
C6 C5 1_555 1_555
H5 C6 1_555 1_555
C7 C6 1_555 1_555
C8 C7 1_555 1_555
H6 C8 1_555 1_555
C9 C4 1_555 1_555
H7 C9 1_555 1_555
C10 H8 1_555 1_555
C11 C10 1_555 1_555
H9 C11 1_555 1_555
C12 H10 1_555 1_555
C13 C14 1_555 1_555
C14 H11 1_555 1_555
C15 C14 1_555 1_555
H12 C15 1_555 1_555
C16 C15 1_555 1_555
C17 C16 1_555 1_555
H13 C17 1_555 1_555
C18 C13 1_555 1_555
H14 C18 1_555 1_555
C19 C23 1_555 1_555
C20 C21 1_555 1_555
C21 C22 1_555 1_555
C22 H15 1_555 1_555
C23 C22 1_555 1_555
C24 C23 1_555 1_555
H16 C24 1_555 1_555
C25 C24 1_555 1_555
C26 C21 1_555 1_555
H17 C26 1_555 1_555
C27 H18 1_555 1_555
H19 C27 1_555 1_555
C28 C27 1_555 1_555
C29 C35 1_555 1_555
C30 C31 1_555 1_555
C31 C32 1_555 1_555
C32 H20 1_555 1_555
C33 C32 1_555 1_555
C34 C33 1_555 1_555
H21 C34 1_555 1_555
C35 C34 1_555 1_555
C36 C31 1_555 1_555
H22 C36 1_555 1_555
C37 H23 1_555 1_555
H24 C37 1_555 1_555
C38 C37 1_555 1_555
N1 C1 1_555 1_555
N2 C2 1_555 1_555
N3 C10 1_555 1_555
N4 C11 1_555 1_555
O1 C20 1_555 1_555
O2 C20 1_555 1_555
O3 C19 1_555 1_555
O4 C19 1_555 1_555
O5 C25 1_555 1_555
O6 C28 1_555 1_555
O7 C28 1_555 1_555
O8 C29 1_555 1_555
O9 C29 1_555 1_555
O10 C30 1_555 1_555
O11 C30 1_555 1_555
O12 C33 1_555 1_555
O13 C38 1_555 1_555
O14 C38 1_555 1_555
O15 H25 1_555 1_555
H26 O15 1_555 1_555
O16 H27 1_555 1_555
H28 O16 1_555 1_555
Cd1 N1 1_555 1_555
Cd2 O6 1_555 1_555
Cd3 N3 1_555 1_555
O17 H29 1_555 1_555
H30 O17 1_555 1_555
O18 H31 1_555 1_555
H32 O18 1_555 1_555
C1A H1A 1_555 1_555
C2A C1A 1_555 1_555
H2A C2A 1_555 1_555
C3A H3A 1_555 1_555
C4A C5A 1_555 1_555
C5A H4A 1_555 1_555
C6A C5A 1_555 1_555
H5A C6A 1_555 1_555
C7A C7 1_555 1_555
C8A C7A 1_555 1_555
H6A C8A 1_555 1_555
C9A C4A 1_555 1_555
H7A C9A 1_555 1_555
N1A C1A 1_555 1_555
N2A C2A 1_555 1_555
C10A H8A 1_555 1_555
C11A C10A 1_555 1_555
H9A C11A 1_555 1_555
C12A H10A 1_555 1_555
C13A C14A 1_555 1_555
C14A H11A 1_555 1_555
C15A C14A 1_555 1_555
H12A C15A 1_555 1_555
C16A C16 1_555 1_555
C17A C16A 1_555 1_555
H13A C17A 1_555 1_555
C18A C13A 1_555 1_555
H14A C18A 1_555 1_555
N3A C10A 1_555 1_555
N4A C11A 1_555 1_555
C19A C23A 1_555 1_555
C20A C21A 1_555 1_555
C21A C22A 1_555 1_555
C22A H15A 1_555 1_555
C23A C22A 1_555 1_555
C24A C23A 1_555 1_555
H16A C24A 1_555 1_555
C25A C24A 1_555 1_555
C26A C21A 1_555 1_555
H17A C26A 1_555 1_555
C27A H18A 1_555 1_555
H19A C27A 1_555 1_555
C28A C27A 1_555 1_555
C29A C35A 1_555 1_555
C30A C31A 1_555 1_555
C31A C32A 1_555 1_555
C32A H20A 1_555 1_555
C33A C32A 1_555 1_555
C34A C33A 1_555 1_555
H21A C34A 1_555 1_555
C35A C34A 1_555 1_555
C36A C31A 1_555 1_555
H22A C36A 1_555 1_555
C37A H23A 1_555 1_555
H24A C37A 1_555 1_555
C38A C37A 1_555 1_555
O1A C20A 1_555 1_555
O2A C20A 1_555 1_555
O3A C19A 1_555 1_555
O4A C19A 1_555 1_555
O5A C25A 1_555 1_555
O6A C28A 1_555 1_555
O7A C28A 1_555 1_555
O8A C29A 1_555 1_555
O9A C29A 1_555 1_555
O10A C30A 1_555 1_555
O11A C30A 1_555 1_555
O12A C33A 1_555 1_555
O13A C38A 1_555 1_555
O14A C38A 1_555 1_555
O15A H25A 1_555 1_555
H26A O15A 1_555 1_555
O16A H27A 1_555 1_555
H28A O16A 1_555 1_555
Cd1A N1A 1_555 1_555
Cd2A O6A 1_555 1_555
Cd3A O3A 1_555 1_555
N3A_2 Cd3A 1_555 1_555
O1_2 Cd1A 1_555 1_555
O1_3 Cd1 1_555 1_555
O1A_2 Cd1A 1_555 1_555
O1A_3 Cd1 1_555 1_555
O2_2 Cd1A 1_555 1_555
O2A_2 Cd1 1_555 1_555
O10_2 Cd3A 1_555 1_555
O10A_2 Cd3 1_555 1_555
O11_2 Cd3A 1_555 1_555
O11_3 Cd3 1_555 1_555
O11A_2 Cd3A 1_555 1_555
O11A_3 Cd3 1_555 1_555
O14_2 Cd2A 1_555 1_555
O14_3 Cd2 1_555 1_555
O14A_2 Cd2A 1_555 1_555
O14A_3 Cd2 1_555 1_555
Cd1_2 O1A 1_555 1_555
Cd1_3 O1 1_555 1_555
Cd1A_2 O1A 1_555 1_555
Cd1A_3 O1 1_555 1_555
Cd2_2 O14A 1_555 1_555
Cd2_3 O14 1_555 1_555
Cd2A_2 O14A 1_555 1_555
Cd2A_3 O14 1_555 1_555
Cd3_2 O11 1_555 1_555
Cd3_3 O10A 1_555 1_555
Cd3A_2 O10 1_555 1_555
Cd3A_3 O11A 1_555 1_555
Cd3A_4 N3A 1_555 1_555
C3 N1 1_555 1_555
C3 N2 1_555 1_555
C4 N2 1_555 1_555
C8 C9 1_555 1_555
C12 N3 1_555 1_555
C12 N4 1_555 1_555
C13 N4 1_555 1_555
C17 C18 1_555 1_555
C25 C26 1_555 1_555
C27 O5 1_555 1_555
C35 C36 1_555 1_555
C37 O12 1_555 1_555
O2 Cd1A_3 1_555 1_555
O3 Cd1 1_555 1_555
O3 Cd3 1_555 1_555
O4 Cd3 1_555 1_555
O7 Cd2 1_555 1_555
O8 Cd1 1_555 1_555
O8 Cd3 1_555 1_555
O9 Cd1 1_555 1_555
O11 Cd3A_2 1_555 1_555
O15 Cd2 1_555 1_555
O16 Cd2 1_555 1_555
C3A N1A 1_555 1_555
C3A N2A 1_555 1_555
C4A N2A 1_555 1_555
C6A C7A 1_555 1_555
C8A C9A 1_555 1_555
C12A N3A 1_555 1_555
C12A N4A 1_555 1_555
C13A N4A 1_555 1_555
C15A C16A 1_555 1_555
C17A C18A 1_555 1_555
C25A C26A 1_555 1_555
C27A O5A 1_555 1_555
C35A C36A 1_555 1_555
C37A O12A 1_555 1_555
O2A Cd1_2 1_555 1_555
O3A Cd1A 1_555 1_555
O4A Cd3A 1_555 1_555
O7A Cd2A 1_555 1_555
O8A Cd1A 1_555 1_555
O8A Cd3A 1_555 1_555
O9A Cd1A 1_555 1_555
O11A Cd3_3 1_555 1_555
O15A Cd2A 1_555 1_555
O16A Cd2A 1_555 1_555

#END
