
#######################################################################
#
#                 Cambridge Crystallographic Data Centre
#                                CCDC 
#
#######################################################################
#
# If this CIF has been generated from an entry in the Cambridge 
# Structural Database, then it will include bibliographic, chemical, 
# crystal, experimental, refinement or atomic coordinate data resulting 
# from the CCDC's data processing and validation procedures.
#
#######################################################################

data_FIKVIG
_symmetry_cell_setting           monoclinic
_symmetry_space_group_name_H-M   'C 2/c'
_symmetry_Int_Tables_number      15
_space_group_name_Hall           '-C 2yn'
loop_
_symmetry_equiv_pos_site_id
_symmetry_equiv_pos_as_xyz
1 x,y,z
2 1/2+x,1/2+y,z
3 -x,y,1/2-z
4 1/2-x,1/2+y,1/2-z
5 -x,-y,-z
6 1/2-x,1/2-y,-z
7 x,-y,1/2+z
8 1/2+x,1/2-y,1/2+z
_cell_length_a                   7.4497(4)
_cell_length_b                   15.5718(8)
_cell_length_c                   7.4732(5)
_cell_angle_alpha                90
_cell_angle_beta                 103.189(2)
_cell_angle_gamma                90
_cell_volume                     844.063
loop_
_atom_site_label
_atom_site_type_symbol
_atom_site_fract_x
_atom_site_fract_y
_atom_site_fract_z
Cu1 Cu 0.0000(7) 0.1985(4) 0.7500(6)
Cl1 Cl 0.3358(7) -0.1222(4) 0.9816(6)
N1 N 0.0000(7) 0.0618(4) 0.7500(6)
C1 C -0.1922(7) 0.2370(4) 0.5581(6)
C2 C 0.1433(7) 0.0180(4) 0.8468(6)
C3 C 0.0000(7) -0.1158(4) 0.7500(6)
C4 C 0.1462(7) -0.0695(4) 0.8499(6)
H1 H 0.248030 0.048470 0.916730
H2 H 0.000000 -0.177360 0.750000
Cl1B Cl -0.3358(7) -0.1222(4) 0.5184(6)
C2B C -0.1433(7) 0.0180(4) 0.6532(6)
C4B C -0.1462(7) -0.0695(4) 0.6501(6)
H1B H -0.248030 0.048470 0.583270
C1E C -0.3078(7) 0.2630(4) 0.4419(6)
Cu1E Cu -0.5000(7) 0.3015(4) 0.2500(6)
C1B C 0.1922(7) 0.2370(4) 0.9419(6)
loop_
_geom_bond_atom_site_label_1
_geom_bond_atom_site_label_2
_geom_bond_site_symmetry_1
_geom_bond_site_symmetry_2
Cu1 N1 1_555 1_555
Cl1 C4 1_555 1_555
N1 C2 1_555 1_555
C1 Cu1 1_555 1_555
C2 C4 1_555 1_555
C3 C4 1_555 1_555
H1 C2 1_555 1_555
H2 C3 1_555 1_555
Cl1B C4B 1_555 1_555
C2B N1 1_555 1_555
C4B C3 1_555 1_555
H1B C2B 1_555 1_555
C1E C1 1_555 1_555
Cu1E C1E 1_555 1_555
C1B Cu1 1_555 1_555
C2B C4B 1_555 1_555

#END
