
#######################################################################
#
#                 Cambridge Crystallographic Data Centre
#                                CCDC 
#
#######################################################################
#
# If this CIF has been generated from an entry in the Cambridge 
# Structural Database, then it will include bibliographic, chemical, 
# crystal, experimental, refinement or atomic coordinate data resulting 
# from the CCDC's data processing and validation procedures.
#
#######################################################################

data_FIKXII
_symmetry_cell_setting           rhombohedral
_symmetry_space_group_name_H-M   'R -3'
_symmetry_Int_Tables_number      148
_space_group_name_Hall           '-R 3'
loop_
_symmetry_equiv_pos_site_id
_symmetry_equiv_pos_as_xyz
1 x,y,z
2 -y,x-y,z
3 -x+y,-x,z
4 2/3+x,1/3+y,1/3+z
5 2/3-y,1/3+x-y,1/3+z
6 2/3-x+y,1/3-x,1/3+z
7 1/3+x,2/3+y,2/3+z
8 1/3-y,2/3+x-y,2/3+z
9 1/3-x+y,2/3-x,2/3+z
10 -x,-y,-z
11 y,-x+y,-z
12 x-y,x,-z
13 1/3-x,2/3-y,2/3-z
14 1/3+y,2/3-x+y,2/3-z
15 1/3+x-y,2/3+x,2/3-z
16 2/3-x,1/3-y,1/3-z
17 2/3+y,1/3-x+y,1/3-z
18 2/3+x-y,1/3+x,1/3-z
_cell_length_a                   41.4558(13)
_cell_length_b                   41.4558(13)
_cell_length_c                   12.9944(8)
_cell_angle_alpha                90
_cell_angle_beta                 90
_cell_angle_gamma                120
_cell_volume                     19340
loop_
_atom_site_label
_atom_site_type_symbol
_atom_site_fract_x
_atom_site_fract_y
_atom_site_fract_z
Zn1 Zn 0.27501(3) 0.61128(2) 0.86787(8)
Zn2 Zn 0.08838(3) 0.04760(2) 0.58984(8)
C1 C 0.3348(3) 0.5961(2) 0.7869(6)
C2 C 0.3197(2) 0.5567(2) 0.7586(6)
C3 C 0.3439(3) 0.5425(2) 0.7569(7)
H1 H 0.3690 0.5575 0.7733
C4 C 0.3297(3) 0.5054(2) 0.7301(8)
H2 H 0.3453 0.4954 0.7322
C5 C 0.2918(3) 0.4822(2) 0.6994(7)
C6 C 0.2686(3) 0.4969(3) 0.7093(8)
H3 H 0.2431 0.4815 0.6984
C7 C 0.2820(3) 0.5341(3) 0.7351(7)
H4 H 0.2660 0.5437 0.7367
C8 C 0.2770(3) 0.4433(2) 0.6711(8)
C9 C 0.2535(4) 0.4234(3) 0.5928(11)
C10 C 0.2437(4) 0.4396(4) 0.4945(13)
H5 H 0.2583 0.4665 0.4933
H6 H 0.2484 0.4299 0.4318
C11 C 0.2028(4) 0.4265(4) 0.5060(10)
H7 H 0.1885 0.3997 0.4971
H8 H 0.1981 0.4322 0.5749
C12 C 0.1900(4) 0.4448(4) 0.4287(10)
H9 H 0.1631 0.4333 0.4321
H10 H 0.2007 0.4709 0.4460
C13 C 0.2012(4) 0.4415(4) 0.3209(9)
H11 H 0.2087 0.4643 0.2843
H12 H 0.1805 0.4213 0.2863
H13 H 0.2216 0.4367 0.3232
C14 C 0.2590(4) 0.3787(3) 0.6656(11)
C15 C 0.2510(3) 0.3410(3) 0.6881(10)
C16 C 0.2538(3) 0.2967(3) 0.7781(9)
C17 C 0.2733(4) 0.2840(4) 0.8566(12)
H14 H 0.2621 0.2571 0.8530
H15 H 0.2693 0.2903 0.9255
C18 C 0.3168(5) 0.3027(4) 0.8363(13)
H16 H 0.3276 0.3294 0.8274
H17 H 0.3288 0.2984 0.8946
C19 C 0.3226(4) 0.2867(4) 0.7453(13)
H18 H 0.3090 0.2892 0.6879
H19 H 0.3138 0.2604 0.7560
C20 C 0.3667(3) 0.3086(3) 0.7210(11)
H20 H 0.3786 0.3316 0.7587
H21 H 0.3706 0.3138 0.6486
H22 H 0.3772 0.2935 0.7413
C21 C 0.2273(3) 0.2755(2) 0.7109(7)
C22 C 0.2031(3) 0.2344(2) 0.7120(8)
C23 C 0.1987(3) 0.2128(2) 0.6237(8)
H23 H 0.2127 0.2241 0.5650
C24 C 0.1742(3) 0.1756(3) 0.6234(8)
H24 H 0.1717 0.1619 0.5644
C25 C 0.1525(2) 0.1573(2) 0.7111(7)
C26 C 0.1578(3) 0.1787(2) 0.7984(7)
H25 H 0.1439 0.1673 0.8573
C27 C 0.1830(3) 0.2164(2) 0.8000(8)
H26 H 0.1866 0.2299 0.8603
C28 C 0.1229(2) 0.1177(2) 0.7078(8)
C29 C 0.0942(2) -0.0150(3) 0.5935(7)
C30 C 0.1094(2) -0.0394(2) 0.6214(7)
C31 C 0.1459(2) -0.0232(2) 0.6581(7)
H27 H 0.1603 0.0026 0.6632
C32 C 0.1604(3) -0.0451(3) 0.6869(7)
H28 H 0.1849 -0.0340 0.7098
C33 C 0.1389(3) -0.0843(3) 0.6822(8)
C34 C 0.1032(3) -0.0993(3) 0.6439(8)
H29 H 0.0885 -0.1251 0.6407
C35 C 0.0881(2) -0.0783(2) 0.6103(7)
H30 H 0.0645 -0.0895 0.5810
C36 C 0.1544(4) -0.1077(4) 0.7155(10)
C37 C 0.1842(5) -0.1082(4) 0.6832(12)
C38 C 0.2204(5) -0.0773(4) 0.6214(12)
H31 H 0.2162 -0.0577 0.5969
H32 H 0.2420 -0.0664 0.6664
C39 C 0.2267(4) -0.0947(5) 0.5391(10)
H33 H 0.2374 -0.1093 0.5642
H34 H 0.2445 -0.0759 0.4928
C40 C 0.1910(4) -0.1203(4) 0.4792(10)
H35 H 0.1721 -0.1134 0.4918
H36 H 0.1811 -0.1460 0.4996
C41 C 0.2021(4) -0.1151(4) 0.3648(9)
H37 H 0.2285 -0.0987 0.3587
H38 H 0.1893 -0.1044 0.3293
H39 H 0.1954 -0.1388 0.3349
C42 C 0.1669(4) -0.1517(3) 0.8003(10)
N1 N 0.2429(4) 0.3866(3) 0.5917(10)
N2 N 0.2688(3) 0.3352(3) 0.7629(9)
N3 N 0.1921(4) -0.1340(3) 0.7337(10)
Na1 Na 0.3333 0.6667 1.0401(4)
O1 O 0.3333 0.6667 1.1667
O2 O 0.29098(14) 0.63695(14) 0.9992(4)
H40 H 0.2824 0.6196 1.0438
O3 O 0.31389(16) 0.61000(15) 0.7936(5)
O4 O 0.36969(17) 0.61567(16) 0.8019(5)
O5 O 0.09849(18) 0.10651(16) 0.7774(5)
O6 O 0.12388(16) 0.09793(16) 0.6362(5)
O7 O 0.11329(16) 0.01924(16) 0.6123(5)
O8 O 0.06147(16) -0.02910(16) 0.5547(4)
S1 S 0.28846(7) 0.41517(6) 0.7413(2)
S2 S 0.21717(7) 0.30191(6) 0.6317(2)
S3 S 0.13370(7) -0.13917(7) 0.8136(2)
C29L C 0.2391(2) -0.3183(3) 1.0732(7)
C30L C 0.2239(2) -0.2939(2) 1.0453(7)
C31L C 0.1874(2) -0.3101(2) 1.0086(7)
H27L H 0.1730 -0.3359 1.0035
C32L C 0.1729(3) -0.2882(3) 0.9798(7)
H28L H 0.1484 -0.2993 0.9569
C33L C 0.1944(3) -0.2490(3) 0.9845(8)
C34L C 0.2301(3) -0.2340(3) 1.0228(8)
H29L H 0.2448 -0.2082 1.0260
C35L C 0.2452(2) -0.2550(2) 1.0564(7)
H30L H 0.2688 -0.2438 1.0857
C36L C 0.1789(4) -0.2256(4) 0.9512(10)
C37L C 0.1491(5) -0.2251(4) 0.9835(12)
C38L C 0.1129(5) -0.2560(4) 1.0453(12)
H31L H 0.1171 -0.2756 1.0698
H32L H 0.0913 -0.2669 1.0003
C39L C 0.1066(4) -0.2386(5) 1.1276(10)
H33L H 0.0959 -0.2240 1.1025
H34L H 0.0888 -0.2574 1.1739
C40L C 0.1423(4) -0.2130(4) 1.1875(10)
H35L H 0.1612 -0.2199 1.1749
H36L H 0.1522 -0.1873 1.1671
C41L C 0.1312(4) -0.2182(4) 1.3019(9)
H37L H 0.1048 -0.2346 1.3080
H38L H 0.1440 -0.2289 1.3374
H39L H 0.1379 -0.1945 1.3318
C42L C 0.1664(4) -0.1816(3) 0.8664(10)
N3L N 0.1412(4) -0.1993(3) 0.9330(10)
O7L O 0.22004(16) -0.35257(16) 1.0544(5)
O8L O 0.27186(16) -0.30423(16) 1.1120(4)
S3L S 0.19963(7) -0.19416(7) 0.8531(2)
Zn1A Zn 0.38872(2) 0.66373(4) 0.86787(8)
Zn2A Zn 0.95240(2) 1.04078(4) 0.58984(8)
C1A C 0.4039(2) 0.7387(4) 0.7869(6)
C2A C 0.4433(2) 0.7630(3) 0.7586(6)
C3A C 0.4575(2) 0.8014(4) 0.7569(7)
H1A H 0.4425 0.8115 0.7733
C4A C 0.4946(2) 0.8243(4) 0.7301(8)
H2A H 0.5046 0.8499 0.7322
C5A C 0.5178(2) 0.8096(4) 0.6994(7)
C6A C 0.5031(3) 0.7717(4) 0.7093(8)
H3A H 0.5185 0.7616 0.6984
C7A C 0.4659(3) 0.7479(4) 0.7351(7)
H4A H 0.4563 0.7223 0.7367
C8A C 0.5567(2) 0.8337(4) 0.6711(8)
C9A C 0.5766(3) 0.8301(5) 0.5928(11)
C10A C 0.5604(4) 0.8041(6) 0.4945(13)
H5A H 0.5335 0.7918 0.4933
H6A H 0.5701 0.8185 0.4318
C11A C 0.5735(4) 0.7763(6) 0.5060(10)
H7A H 0.6003 0.7888 0.4971
H8A H 0.5678 0.7659 0.5749
C12A C 0.5552(4) 0.7452(6) 0.4287(10)
H9A H 0.5667 0.7298 0.4321
H10A H 0.5291 0.7298 0.4460
C13A C 0.5585(4) 0.7597(6) 0.3209(9)
H11A H 0.5357 0.7444 0.2843
H12A H 0.5787 0.7592 0.2863
H13A H 0.5633 0.7849 0.3232
C14A C 0.6213(3) 0.8803(5) 0.6656(11)
C15A C 0.6590(3) 0.9100(4) 0.6881(10)
C16A C 0.7033(3) 0.9571(4) 0.7781(9)
C17A C 0.7160(4) 0.9893(6) 0.8566(12)
H14A H 0.7429 1.0050 0.8530
H15A H 0.7097 0.9790 0.9255
C18A C 0.6973(4) 1.0141(6) 0.8363(13)
H16A H 0.6706 0.9982 0.8274
H17A H 0.7016 1.0304 0.8946
C19A C 0.7133(4) 1.0359(6) 0.7453(13)
H18A H 0.7108 1.0198 0.6879
H19A H 0.7396 1.0534 0.7560
C20A C 0.6914(3) 1.0581(4) 0.7210(11)
H20A H 0.6684 1.0470 0.7587
H21A H 0.6862 1.0568 0.6486
H22A H 0.7065 1.0837 0.7413
C21A C 0.7245(2) 0.9518(4) 0.7109(7)
C22A C 0.7656(2) 0.9687(4) 0.7120(8)
C23A C 0.7872(2) 0.9859(4) 0.6237(8)
H23A H 0.7759 0.9886 0.5650
C24A C 0.8244(3) 0.9986(4) 0.6234(8)
H24A H 0.8381 1.0098 0.5644
C25A C 0.8427(2) 0.9952(3) 0.7111(7)
C26A C 0.8213(2) 0.9791(4) 0.7984(7)
H25A H 0.8327 0.9766 0.8573
C27A C 0.7836(2) 0.9666(4) 0.8000(8)
H26A H 0.7701 0.9567 0.8603
C28A C 0.8823(2) 1.0052(3) 0.7078(8)
C29A C 1.0150(3) 1.1092(4) 0.5935(7)
C30A C 1.0394(2) 1.1488(3) 0.6214(7)
C31A C 1.0232(2) 1.1691(3) 0.6581(7)
H27A H 0.9974 1.1577 0.6632
C32A C 1.0451(3) 1.2055(4) 0.6869(7)
H28A H 1.0340 1.2189 0.7098
C33A C 1.0843(3) 1.2232(4) 0.6822(8)
C34A C 1.0993(3) 1.2025(4) 0.6439(8)
H29A H 1.1251 1.2136 0.6407
C35A C 1.0783(2) 1.1664(3) 0.6103(7)
H30A H 1.0895 1.1540 0.5810
C36A C 1.1077(4) 1.2621(6) 0.7155(10)
C37A C 1.1082(4) 1.2924(6) 0.6832(12)
C38A C 1.0773(4) 1.2977(6) 0.6214(12)
H31A H 1.0577 1.2739 0.5969
H32A H 1.0664 1.3084 0.6664
C39A C 1.0947(5) 1.3214(6) 0.5391(10)
H33A H 1.1093 1.3467 0.5642
H34A H 1.0759 1.3204 0.4928
C40A C 1.1203(4) 1.3113(6) 0.4792(10)
H35A H 1.1134 1.2855 0.4918
H36A H 1.1460 1.3271 0.4996
C41A C 1.1151(4) 1.3172(6) 0.3648(9)
H37A H 1.0987 1.3272 0.3587
H38A H 1.1044 1.2937 0.3293
H39A H 1.1388 1.3342 0.3349
C42A C 1.1517(3) 1.3186(5) 0.8003(10)
N1A N 0.6134(3) 0.8563(5) 0.5917(10)
N2A N 0.6648(3) 0.9336(4) 0.7629(9)
N3A N 1.1340(3) 1.3261(5) 0.7337(10)
O2A O 0.36305(14) 0.65403(20) 0.9992(4)
H40A H 0.3804 0.6628 1.0438
O3A O 0.39000(15) 0.70389(22) 0.7936(5)
O4A O 0.38433(16) 0.75402(23) 0.8019(5)
O5A O 0.89349(16) 0.99198(24) 0.7774(5)
O6A O 0.90207(16) 1.02595(23) 0.6362(5)
O7A O 0.98076(16) 1.09405(23) 0.6123(5)
O8A O 1.02910(16) 1.09057(23) 0.5547(4)
S1A S 0.58483(6) 0.87329(9) 0.7413(2)
S2A S 0.69809(6) 0.91526(9) 0.6317(2)
S3A S 1.13917(7) 1.27287(10) 0.8136(2)
C29M C 1.3183(3) 1.5575(4) 1.0732(7)
C30M C 1.2939(2) 1.5179(3) 1.0453(7)
C31M C 1.3101(2) 1.4976(3) 1.0086(7)
H27M H 1.3359 1.5090 1.0035
C32M C 1.2882(3) 1.4612(4) 0.9798(7)
H28M H 1.2993 1.4478 0.9569
C33M C 1.2490(3) 1.4435(4) 0.9845(8)
C34M C 1.2340(3) 1.4642(4) 1.0228(8)
H29M H 1.2082 1.4531 1.0260
C35M C 1.2550(2) 1.5003(3) 1.0564(7)
H30M H 1.2438 1.5127 1.0857
C36M C 1.2256(4) 1.4046(6) 0.9512(10)
C37M C 1.2251(4) 1.3743(6) 0.9835(12)
C38M C 1.2560(4) 1.3690(6) 1.0453(12)
H31M H 1.2756 1.3928 1.0698
H32M H 1.2669 1.3583 1.0003
C39M C 1.2386(5) 1.3453(6) 1.1276(10)
H33M H 1.2240 1.3200 1.1025
H34M H 1.2574 1.3463 1.1739
C40M C 1.2130(4) 1.3554(6) 1.1875(10)
H35M H 1.2199 1.3812 1.1749
H36M H 1.1873 1.3396 1.1671
C41M C 1.2182(4) 1.3495(6) 1.3019(9)
H37M H 1.2346 1.3395 1.3080
H38M H 1.2289 1.3730 1.3374
H39M H 1.1945 1.3325 1.3318
C42M C 1.1816(3) 1.3481(5) 0.8664(10)
N3M N 1.1993(3) 1.3406(5) 0.9330(10)
O7M O 1.35257(16) 1.57262(23) 1.0544(5)
O8M O 1.30423(16) 1.57610(23) 1.1120(4)
S3M S 1.19416(7) 1.39380(10) 0.8531(2)
Zn1B Zn 0.33627(4) 0.72499(3) 0.86787(8)
Zn2B Zn -0.04078(4) 0.91162(3) 0.58984(8)
C1B C 0.2613(4) 0.6652(3) 0.7869(6)
C2B C 0.2370(3) 0.6803(2) 0.7586(6)
C3B C 0.1986(4) 0.6561(3) 0.7569(7)
H1B H 0.1885 0.6310 0.7733
C4B C 0.1757(4) 0.6703(3) 0.7301(8)
H2B H 0.1501 0.6547 0.7322
C5B C 0.1904(4) 0.7082(3) 0.6994(7)
C6B C 0.2283(4) 0.7314(3) 0.7093(8)
H3B H 0.2384 0.7569 0.6984
C7B C 0.2521(4) 0.7180(3) 0.7351(7)
H4B H 0.2777 0.7340 0.7367
C8B C 0.1663(4) 0.7230(3) 0.6711(8)
C9B C 0.1699(5) 0.7465(4) 0.5928(11)
C10B C 0.1959(6) 0.7563(4) 0.4945(13)
H5B H 0.2082 0.7417 0.4933
H6B H 0.1815 0.7516 0.4318
C11B C 0.2237(6) 0.7972(4) 0.5060(10)
H7B H 0.2112 0.8115 0.4971
H8B H 0.2341 0.8019 0.5749
C12B C 0.2548(6) 0.8100(4) 0.4287(10)
H9B H 0.2702 0.8369 0.4321
H10B H 0.2702 0.7993 0.4460
C13B C 0.2403(6) 0.7988(4) 0.3209(9)
H11B H 0.2556 0.7913 0.2843
H12B H 0.2408 0.8195 0.2863
H13B H 0.2151 0.7784 0.3232
C14B C 0.1197(5) 0.7410(4) 0.6656(11)
C15B C 0.0900(4) 0.7490(3) 0.6881(10)
C16B C 0.0429(4) 0.7462(3) 0.7781(9)
C17B C 0.0107(6) 0.7267(4) 0.8566(12)
H14B H -0.0050 0.7379 0.8530
H15B H 0.0210 0.7307 0.9255
C18B C -0.0141(6) 0.6832(5) 0.8363(13)
H16B H 0.0018 0.6724 0.8274
H17B H -0.0304 0.6712 0.8946
C19B C -0.0359(6) 0.6774(4) 0.7453(13)
H18B H -0.0198 0.6910 0.6879
H19B H -0.0534 0.6862 0.7560
C20B C -0.0581(4) 0.6333(3) 0.7210(11)
H20B H -0.0470 0.6214 0.7587
H21B H -0.0568 0.6294 0.6486
H22B H -0.0837 0.6228 0.7413
C21B C 0.0482(4) 0.7727(3) 0.7109(7)
C22B C 0.0313(4) 0.7969(3) 0.7120(8)
C23B C 0.0141(4) 0.8013(3) 0.6237(8)
H23B H 0.0114 0.7873 0.5650
C24B C 0.0014(4) 0.8258(3) 0.6234(8)
H24B H -0.0098 0.8283 0.5644
C25B C 0.0048(3) 0.8475(2) 0.7111(7)
C26B C 0.0209(4) 0.8422(3) 0.7984(7)
H25B H 0.0234 0.8561 0.8573
C27B C 0.0334(4) 0.8170(3) 0.8000(8)
H26B H 0.0433 0.8134 0.8603
C28B C -0.0052(3) 0.8771(2) 0.7078(8)
C29B C -0.1092(4) 0.9058(2) 0.5935(7)
C30B C -0.1488(3) 0.8906(2) 0.6214(7)
C31B C -0.1691(3) 0.8541(2) 0.6581(7)
H27B H -0.1577 0.8397 0.6632
C32B C -0.2055(4) 0.8396(3) 0.6869(7)
H28B H -0.2189 0.8151 0.7098
C33B C -0.2232(4) 0.8611(3) 0.6822(8)
C34B C -0.2025(4) 0.8968(3) 0.6439(8)
H29B H -0.2136 0.9115 0.6407
C35B C -0.1664(3) 0.9119(2) 0.6103(7)
H30B H -0.1540 0.9355 0.5810
C36B C -0.2621(6) 0.8456(4) 0.7155(10)
C37B C -0.2924(6) 0.8158(5) 0.6832(12)
C38B C -0.2977(6) 0.7796(5) 0.6214(12)
H31B H -0.2739 0.7838 0.5969
H32B H -0.3084 0.7580 0.6664
C39B C -0.3214(6) 0.7733(4) 0.5391(10)
H33B H -0.3467 0.7626 0.5642
H34B H -0.3204 0.7555 0.4928
C40B C -0.3113(6) 0.8090(4) 0.4792(10)
H35B H -0.2855 0.8279 0.4918
H36B H -0.3271 0.8189 0.4996
C41B C -0.3172(6) 0.7979(4) 0.3648(9)
H37B H -0.3272 0.7715 0.3587
H38B H -0.2937 0.8107 0.3293
H39B H -0.3342 0.8046 0.3349
C42B C -0.3186(5) 0.8331(4) 0.8003(10)
N1B N 0.1437(5) 0.7571(4) 0.5917(10)
N2B N 0.0664(4) 0.7312(3) 0.7629(9)
N3B N -0.3261(5) 0.8079(4) 0.7337(10)
O2B O 0.34597(20) 0.70902(14) 0.9992(4)
H40B H 0.3372 0.7176 1.0438
O3B O 0.29611(22) 0.68611(16) 0.7936(5)
O4B O 0.24598(23) 0.63031(17) 0.8019(5)
O5B O 0.00802(24) 0.90151(18) 0.7774(5)
O6B O -0.02595(23) 0.87612(16) 0.6362(5)
O7B O -0.09405(23) 0.88671(16) 0.6123(5)
O8B O -0.09057(23) 0.93853(16) 0.5547(4)
S1B S 0.12671(9) 0.71154(7) 0.7413(2)
S2B S 0.08474(9) 0.78283(7) 0.6317(2)
S3B S -0.27287(10) 0.86630(7) 0.8136(2)
C29N C -0.5575(4) 0.7609(2) 1.0732(7)
C30N C -0.5179(3) 0.7761(2) 1.0453(7)
C31N C -0.4976(3) 0.8126(2) 1.0086(7)
H27N H -0.5090 0.8270 1.0035
C32N C -0.4612(4) 0.8271(3) 0.9798(7)
H28N H -0.4478 0.8516 0.9569
C33N C -0.4435(4) 0.8056(3) 0.9845(8)
C34N C -0.4642(4) 0.7699(3) 1.0228(8)
H29N H -0.4531 0.7552 1.0260
C35N C -0.5003(3) 0.7548(2) 1.0564(7)
H30N H -0.5127 0.7312 1.0857
C36N C -0.4046(6) 0.8211(4) 0.9512(10)
C37N C -0.3743(6) 0.8509(5) 0.9835(12)
C38N C -0.3690(6) 0.8871(5) 1.0453(12)
H31N H -0.3928 0.8829 1.0698
H32N H -0.3583 0.9087 1.0003
C39N C -0.3453(6) 0.8934(4) 1.1276(10)
H33N H -0.3200 0.9041 1.1025
H34N H -0.3463 0.9112 1.1739
C40N C -0.3554(6) 0.8577(4) 1.1875(10)
H35N H -0.3812 0.8388 1.1749
H36N H -0.3396 0.8478 1.1671
C41N C -0.3495(6) 0.8688(4) 1.3019(9)
H37N H -0.3395 0.8952 1.3080
H38N H -0.3730 0.8560 1.3374
H39N H -0.3325 0.8621 1.3318
C42N C -0.3481(5) 0.8336(4) 0.8664(10)
N3N N -0.3406(5) 0.8588(4) 0.9330(10)
O7N O -0.57262(23) 0.77996(16) 1.0544(5)
O8N O -0.57610(23) 0.72814(16) 1.1120(4)
S3N S -0.39380(10) 0.80037(7) 0.8531(2)
Zn1J Zn 0.61128(2) 0.33627(4) 0.13213(8)
Zn2J Zn 0.04760(2) -0.04078(4) 0.41016(8)
C1J C 0.5961(2) 0.2613(4) 0.2131(6)
C2J C 0.5567(2) 0.2370(3) 0.2414(6)
C3J C 0.5425(2) 0.1986(4) 0.2431(7)
H1J H 0.5575 0.1885 0.2267
C4J C 0.5054(2) 0.1757(4) 0.2699(8)
H2J H 0.4954 0.1501 0.2678
C5J C 0.4822(2) 0.1904(4) 0.3006(7)
C6J C 0.4969(3) 0.2283(4) 0.2907(8)
H3J H 0.4815 0.2384 0.3016
C7J C 0.5341(3) 0.2521(4) 0.2649(7)
H4J H 0.5437 0.2777 0.2633
C8J C 0.4433(2) 0.1663(4) 0.3289(8)
C9J C 0.4234(3) 0.1699(5) 0.4072(11)
C10J C 0.4396(4) 0.1959(6) 0.5055(13)
H5J H 0.4665 0.2082 0.5067
H6J H 0.4299 0.1815 0.5682
C11J C 0.4265(4) 0.2237(6) 0.4940(10)
H7J H 0.3997 0.2112 0.5029
H8J H 0.4322 0.2341 0.4251
C12J C 0.4448(4) 0.2548(6) 0.5713(10)
H9J H 0.4333 0.2702 0.5679
H10J H 0.4709 0.2702 0.5540
C13J C 0.4415(4) 0.2403(6) 0.6791(9)
H11J H 0.4643 0.2556 0.7157
H12J H 0.4213 0.2408 0.7137
H13J H 0.4367 0.2151 0.6768
C14J C 0.3787(3) 0.1197(5) 0.3344(11)
C15J C 0.3410(3) 0.0900(4) 0.3119(10)
C16J C 0.2967(3) 0.0429(4) 0.2219(9)
C17J C 0.2840(4) 0.0107(6) 0.1434(12)
H14J H 0.2571 -0.0050 0.1470
H15J H 0.2903 0.0210 0.0745
C18J C 0.3027(4) -0.0141(6) 0.1637(13)
H16J H 0.3294 0.0018 0.1726
H17J H 0.2984 -0.0304 0.1054
C19J C 0.2867(4) -0.0359(6) 0.2547(13)
H18J H 0.2892 -0.0198 0.3121
H19J H 0.2604 -0.0534 0.2440
C20J C 0.3086(3) -0.0581(4) 0.2790(11)
H20J H 0.3316 -0.0470 0.2413
H21J H 0.3138 -0.0568 0.3514
H22J H 0.2935 -0.0837 0.2587
C21J C 0.2755(2) 0.0482(4) 0.2891(7)
C22J C 0.2344(2) 0.0313(4) 0.2880(8)
C23J C 0.2128(2) 0.0141(4) 0.3763(8)
H23J H 0.2241 0.0114 0.4350
C24J C 0.1756(3) 0.0014(4) 0.3766(8)
H24J H 0.1619 -0.0098 0.4356
C25J C 0.1573(2) 0.0048(3) 0.2889(7)
C26J C 0.1787(2) 0.0209(4) 0.2016(7)
H25J H 0.1673 0.0234 0.1427
C27J C 0.2164(2) 0.0334(4) 0.2000(8)
H26J H 0.2299 0.0433 0.1397
C28J C 0.1177(2) -0.0052(3) 0.2922(8)
N1J N 0.3866(3) 0.1437(5) 0.4083(10)
N2J N 0.3352(3) 0.0664(4) 0.2371(9)
Na1I Na 0.6667 0.3333 -0.0401(4)
O2J O 0.63695(14) 0.34597(20) 0.0008(4)
H40J H 0.6196 0.3372 -0.0438
O3J O 0.61000(15) 0.29611(22) 0.2064(5)
O4J O 0.61567(16) 0.24598(23) 0.1981(5)
O5J O 0.10651(16) 0.00802(24) 0.2226(5)
O6J O 0.09793(16) -0.02595(23) 0.3638(5)
S1J S 0.41517(6) 0.12671(9) 0.2587(2)
S2J S 0.30191(6) 0.08474(9) 0.3683(2)
Zn1K Zn -0.33627(4) 0.27501(3) 0.13213(8)
Zn2K Zn 0.04078(4) 0.08838(3) 0.41016(8)
C1K C -0.2613(4) 0.3348(3) 0.2131(6)
C2K C -0.2370(3) 0.3197(2) 0.2414(6)
C3K C -0.1986(4) 0.3439(3) 0.2431(7)
H1K H -0.1885 0.3690 0.2267
C4K C -0.1757(4) 0.3297(3) 0.2699(8)
H2K H -0.1501 0.3453 0.2678
C5K C -0.1904(4) 0.2918(3) 0.3006(7)
C6K C -0.2283(4) 0.2686(3) 0.2907(8)
H3K H -0.2384 0.2431 0.3016
C7K C -0.2521(4) 0.2820(3) 0.2649(7)
H4K H -0.2777 0.2660 0.2633
C8K C -0.1663(4) 0.2770(3) 0.3289(8)
C9K C -0.1699(5) 0.2535(4) 0.4072(11)
C10K C -0.1959(6) 0.2437(4) 0.5055(13)
H5K H -0.2082 0.2583 0.5067
H6K H -0.1815 0.2484 0.5682
C11K C -0.2237(6) 0.2028(4) 0.4940(10)
H7K H -0.2112 0.1885 0.5029
H8K H -0.2341 0.1981 0.4251
C12K C -0.2548(6) 0.1900(4) 0.5713(10)
H9K H -0.2702 0.1631 0.5679
H10K H -0.2702 0.2007 0.5540
C13K C -0.2403(6) 0.2012(4) 0.6791(9)
H11K H -0.2556 0.2087 0.7157
H12K H -0.2408 0.1805 0.7137
H13K H -0.2151 0.2216 0.6768
C14K C -0.1197(5) 0.2590(4) 0.3344(11)
C15K C -0.0900(4) 0.2510(3) 0.3119(10)
C16K C -0.0429(4) 0.2538(3) 0.2219(9)
C17K C -0.0107(6) 0.2733(4) 0.1434(12)
H14K H 0.0050 0.2621 0.1470
H15K H -0.0210 0.2693 0.0745
C18K C 0.0141(6) 0.3168(5) 0.1637(13)
H16K H -0.0018 0.3276 0.1726
H17K H 0.0304 0.3288 0.1054
C19K C 0.0359(6) 0.3226(4) 0.2547(13)
H18K H 0.0198 0.3090 0.3121
H19K H 0.0534 0.3138 0.2440
C20K C 0.0581(4) 0.3667(3) 0.2790(11)
H20K H 0.0470 0.3786 0.2413
H21K H 0.0568 0.3706 0.3514
H22K H 0.0837 0.3772 0.2587
C21K C -0.0482(4) 0.2273(3) 0.2891(7)
C22K C -0.0313(4) 0.2031(3) 0.2880(8)
C23K C -0.0141(4) 0.1987(3) 0.3763(8)
H23K H -0.0114 0.2127 0.4350
C24K C -0.0014(4) 0.1742(3) 0.3766(8)
H24K H 0.0098 0.1717 0.4356
C25K C -0.0048(3) 0.1525(2) 0.2889(7)
C26K C -0.0209(4) 0.1578(3) 0.2016(7)
H25K H -0.0234 0.1439 0.1427
C27K C -0.0334(4) 0.1830(3) 0.2000(8)
H26K H -0.0433 0.1866 0.1397
C28K C 0.0052(3) 0.1229(2) 0.2922(8)
N1K N -0.1437(5) 0.2429(4) 0.4083(10)
N2K N -0.0664(4) 0.2688(3) 0.2371(9)
O2K O -0.34597(20) 0.29098(14) 0.0008(4)
H40K H -0.3372 0.2824 -0.0438
O3K O -0.29611(22) 0.31389(16) 0.2064(5)
O4K O -0.24598(23) 0.36969(17) 0.1981(5)
O5K O -0.00802(24) 0.09849(18) 0.2226(5)
O6K O 0.02595(23) 0.12388(16) 0.3638(5)
S1K S -0.12671(9) 0.28846(7) 0.2587(2)
S2K S -0.08474(9) 0.21717(7) 0.3683(2)
Zn1I Zn -0.27501(3) 0.38872(2) 0.13213(8)
Zn2I Zn -0.08838(3) 0.95240(2) 0.41016(8)
C1I C -0.3348(3) 0.4039(2) 0.2131(6)
C2I C -0.3197(2) 0.4433(2) 0.2414(6)
C3I C -0.3439(3) 0.4575(2) 0.2431(7)
H1I H -0.3690 0.4425 0.2267
C4I C -0.3297(3) 0.4946(2) 0.2699(8)
H2I H -0.3453 0.5046 0.2678
C5I C -0.2918(3) 0.5178(2) 0.3006(7)
C6I C -0.2686(3) 0.5031(3) 0.2907(8)
H3I H -0.2431 0.5185 0.3016
C7I C -0.2820(3) 0.4659(3) 0.2649(7)
H4I H -0.2660 0.4563 0.2633
C8I C -0.2770(3) 0.5567(2) 0.3289(8)
C9I C -0.2535(4) 0.5766(3) 0.4072(11)
C10I C -0.2437(4) 0.5604(4) 0.5055(13)
H5I H -0.2583 0.5335 0.5067
H6I H -0.2484 0.5701 0.5682
C11I C -0.2028(4) 0.5735(4) 0.4940(10)
H7I H -0.1885 0.6003 0.5029
H8I H -0.1981 0.5678 0.4251
C12I C -0.1900(4) 0.5552(4) 0.5713(10)
H9I H -0.1631 0.5667 0.5679
H10I H -0.2007 0.5291 0.5540
C13I C -0.2012(4) 0.5585(4) 0.6791(9)
H11I H -0.2087 0.5357 0.7157
H12I H -0.1805 0.5787 0.7137
H13I H -0.2216 0.5633 0.6768
C14I C -0.2590(4) 0.6213(3) 0.3344(11)
C15I C -0.2510(3) 0.6590(3) 0.3119(10)
C16I C -0.2538(3) 0.7033(3) 0.2219(9)
C17I C -0.2733(4) 0.7160(4) 0.1434(12)
H14I H -0.2621 0.7429 0.1470
H15I H -0.2693 0.7097 0.0745
C18I C -0.3168(5) 0.6973(4) 0.1637(13)
H16I H -0.3276 0.6706 0.1726
H17I H -0.3288 0.7016 0.1054
C19I C -0.3226(4) 0.7133(4) 0.2547(13)
H18I H -0.3090 0.7108 0.3121
H19I H -0.3138 0.7396 0.2440
C20I C -0.3667(3) 0.6914(3) 0.2790(11)
H20I H -0.3786 0.6684 0.2413
H21I H -0.3706 0.6862 0.3514
H22I H -0.3772 0.7065 0.2587
C21I C -0.2273(3) 0.7245(2) 0.2891(7)
C22I C -0.2031(3) 0.7656(2) 0.2880(8)
C23I C -0.1987(3) 0.7872(2) 0.3763(8)
H23I H -0.2127 0.7759 0.4350
C24I C -0.1742(3) 0.8244(3) 0.3766(8)
H24I H -0.1717 0.8381 0.4356
C25I C -0.1525(2) 0.8427(2) 0.2889(7)
C26I C -0.1578(3) 0.8213(2) 0.2016(7)
H25I H -0.1439 0.8327 0.1427
C27I C -0.1830(3) 0.7836(2) 0.2000(8)
H26I H -0.1866 0.7701 0.1397
C28I C -0.1229(2) 0.8823(2) 0.2922(8)
N1I N -0.2429(4) 0.6134(3) 0.4083(10)
N2I N -0.2688(3) 0.6648(3) 0.2371(9)
O2I O -0.29098(14) 0.36305(14) 0.0008(4)
H40I H -0.2824 0.3804 -0.0438
O3I O -0.31389(16) 0.39000(15) 0.2064(5)
O4I O -0.36969(17) 0.38433(16) 0.1981(5)
O5I O -0.09849(18) 0.89349(16) 0.2226(5)
O6I O -0.12388(16) 0.90207(16) 0.3638(5)
S1I S -0.28846(7) 0.58483(6) 0.2587(2)
S2I S -0.21717(7) 0.69809(6) 0.3683(2)
Zn1C Zn -0.05832(3) 0.94461(2) 0.20120(8)
Zn1D Zn 0.05539(2) -0.00294(4) 0.20120(8)
Zn1E Zn 0.00294(4) 0.05832(3) 0.20120(8)
Zn1J_2 Zn -0.38872(2) 0.33627(4) 0.13213(8)
Zn1K_2 Zn 0.66373(4) 0.27501(3) 0.13213(8)
Zn1L Zn 0.05832(3) 0.05539(2) 0.79880(8)
Zn1M Zn 0.94461(2) 1.00294(4) 0.79880(8)
Zn1N Zn -0.00294(4) 0.94168(3) 0.79880(8)
Zn2C Zn -0.24495(3) 0.38093(2) -0.07683(8)
Zn2D Zn 0.61907(2) 0.37411(4) -0.07683(8)
Zn2E Zn -0.37411(4) 0.24495(3) -0.07683(8)
Zn2F Zn -0.57829(3) 0.71427(2) 1.25651(8)
Zn2G Zn 0.28573(2) -0.29255(4) 1.25651(8)
Zn2H Zn 1.29255(4) 1.57829(3) 1.25651(8)
Zn2K_2 Zn 1.04078(4) 1.08838(3) 0.41016(8)
Zn2L Zn 0.24495(3) -0.38093(2) 1.07683(8)
Zn2L_2 Zn 0.24495(3) 0.61907(2) 1.07683(8)
Zn2M Zn 0.38093(2) 0.62589(4) 1.07683(8)
Zn2M_2 Zn 1.38093(2) 1.62589(4) 1.07683(8)
Zn2N Zn -0.62589(4) 0.75505(3) 1.07683(8)
Zn2N_2 Zn 0.37411(4) 0.75505(3) 1.07683(8)
Na1I_2 Na -0.3333 0.3333 -0.0401(4)
Na1O Na 0.3334 0.6666 1.2932(4)
O1F O 0.6666 0.3334 -0.1666
O2C O -0.04235(14) 0.97028(14) 0.3325(4)
O2D O 0.02972(14) -0.01264(20) 0.3325(4)
O2E O 0.01264(20) 0.04235(14) 0.3325(4)
O2I_2 O 0.70902(14) 0.36305(14) 0.0008(4)
O2K_2 O 0.65403(20) 0.29098(14) 0.0008(4)
O2L O 0.04235(14) 0.02972(14) 0.6675(4)
O2M O 0.97028(14) 1.01264(20) 0.6675(4)
O2N O -0.01264(20) 0.95765(14) 0.6675(4)
O4I_2 O 0.63031(17) 0.38433(16) 0.1981(5)
O4J_2 O -0.38433(16) 0.24598(23) 0.1981(5)
O5C O -0.23484(18) 0.43984(16) 0.1107(5)
O5D O 0.56016(16) 0.32531(24) 0.1107(5)
O5E O -0.32531(24) 0.23484(18) 0.1107(5)
O5L O 0.23484(18) 0.56016(16) 0.8893(5)
O5M O 0.43984(16) 0.67469(24) 0.8893(5)
O5N O 0.32531(24) 0.76516(18) 0.8893(5)
O7I O -0.11329(16) 0.98076(16) 0.3877(5)
O7J O 0.01924(16) -0.09405(23) 0.3877(5)
O7K O 0.09405(23) 0.11329(16) 0.3877(5)
O8A_2 O 0.02910(16) 0.09057(23) 0.5547(4)
O8I O 0.93853(16) 1.02910(16) 0.4453(4)
O8J O -0.02910(16) 0.90943(23) 0.4453(4)
O8K O 0.09057(23) 0.06147(16) 0.4453(4)
loop_
_geom_bond_atom_site_label_1
_geom_bond_atom_site_label_2
_geom_bond_site_symmetry_1
_geom_bond_site_symmetry_2
Zn1 O2 1_555 1_555
Zn2 O6 1_555 1_555
C1 C2 1_555 1_555
C2 C3 1_555 1_555
C3 H1 1_555 1_555
C4 C3 1_555 1_555
H2 C4 1_555 1_555
C5 C4 1_555 1_555
C6 C5 1_555 1_555
H3 C6 1_555 1_555
C7 C2 1_555 1_555
H4 C7 1_555 1_555
C8 C5 1_555 1_555
C9 C8 1_555 1_555
C10 C9 1_555 1_555
H5 C10 1_555 1_555
H6 C10 1_555 1_555
C11 C10 1_555 1_555
H7 C11 1_555 1_555
H8 C11 1_555 1_555
C12 C11 1_555 1_555
H9 C12 1_555 1_555
H10 C12 1_555 1_555
C13 C12 1_555 1_555
H11 C13 1_555 1_555
H12 C13 1_555 1_555
H13 C13 1_555 1_555
C14 C15 1_555 1_555
C15 N2 1_555 1_555
C16 C17 1_555 1_555
C17 H14 1_555 1_555
H15 C17 1_555 1_555
C18 C17 1_555 1_555
H16 C18 1_555 1_555
H17 C18 1_555 1_555
C19 C18 1_555 1_555
H18 C19 1_555 1_555
H19 C19 1_555 1_555
C20 C19 1_555 1_555
H20 C20 1_555 1_555
H21 C20 1_555 1_555
H22 C20 1_555 1_555
C21 C16 1_555 1_555
C22 C21 1_555 1_555
C23 C22 1_555 1_555
H23 C23 1_555 1_555
C24 C23 1_555 1_555
H24 C24 1_555 1_555
C25 C24 1_555 1_555
C26 C25 1_555 1_555
H25 C26 1_555 1_555
C27 C22 1_555 1_555
H26 C27 1_555 1_555
C28 C25 1_555 1_555
C29 C30 1_555 1_555
C30 C31 1_555 1_555
C31 H27 1_555 1_555
C32 C31 1_555 1_555
H28 C32 1_555 1_555
C33 C32 1_555 1_555
C34 C33 1_555 1_555
H29 C34 1_555 1_555
C35 C30 1_555 1_555
H30 C35 1_555 1_555
C36 C33 1_555 1_555
C37 C36 1_555 1_555
C38 C37 1_555 1_555
H31 C38 1_555 1_555
H32 C38 1_555 1_555
C39 C38 1_555 1_555
H33 C39 1_555 1_555
H34 C39 1_555 1_555
C40 C39 1_555 1_555
H35 C40 1_555 1_555
H36 C40 1_555 1_555
C41 C40 1_555 1_555
H37 C41 1_555 1_555
H38 C41 1_555 1_555
H39 C41 1_555 1_555
C42 N3 1_555 1_555
N1 C9 1_555 1_555
N2 C16 1_555 1_555
N3 C37 1_555 1_555
Na1 O1 1_555 1_555
O1 Na1O 1_555 1_555
O2 Na1 1_555 1_555
H40 O2 1_555 1_555
O3 Zn1 1_555 1_555
O4 C1 1_555 1_555
O5 C28 1_555 1_555
O6 C28 1_555 1_555
O7 Zn2 1_555 1_555
O8 C29 1_555 1_555
S1 C8 1_555 1_555
S2 C15 1_555 1_555
S3 C36 1_555 1_555
C29L C30L 1_555 1_555
C30L C31L 1_555 1_555
C31L H27L 1_555 1_555
C32L C31L 1_555 1_555
H28L C32L 1_555 1_555
C33L C32L 1_555 1_555
C34L C33L 1_555 1_555
H29L C34L 1_555 1_555
C35L C30L 1_555 1_555
H30L C35L 1_555 1_555
C36L C33L 1_555 1_555
C37L C36L 1_555 1_555
C38L C37L 1_555 1_555
H31L C38L 1_555 1_555
H32L C38L 1_555 1_555
C39L C38L 1_555 1_555
H33L C39L 1_555 1_555
H34L C39L 1_555 1_555
C40L C39L 1_555 1_555
H35L C40L 1_555 1_555
H36L C40L 1_555 1_555
C41L C40L 1_555 1_555
H37L C41L 1_555 1_555
H38L C41L 1_555 1_555
H39L C41L 1_555 1_555
C42L C42 1_555 1_555
N3L C37L 1_555 1_555
O7L C29L 1_555 1_555
O8L C29L 1_555 1_555
S3L C36L 1_555 1_555
Zn1A O4 1_555 1_555
Zn2A O6A 1_555 1_555
C1A C2A 1_555 1_555
C2A C3A 1_555 1_555
C3A H1A 1_555 1_555
C4A C3A 1_555 1_555
H2A C4A 1_555 1_555
C5A C4A 1_555 1_555
C6A C5A 1_555 1_555
H3A C6A 1_555 1_555
C7A C2A 1_555 1_555
H4A C7A 1_555 1_555
C8A C5A 1_555 1_555
C9A C8A 1_555 1_555
C10A C9A 1_555 1_555
H5A C10A 1_555 1_555
H6A C10A 1_555 1_555
C11A C10A 1_555 1_555
H7A C11A 1_555 1_555
H8A C11A 1_555 1_555
C12A C11A 1_555 1_555
H9A C12A 1_555 1_555
H10A C12A 1_555 1_555
C13A C12A 1_555 1_555
H11A C13A 1_555 1_555
H12A C13A 1_555 1_555
H13A C13A 1_555 1_555
C14A C15A 1_555 1_555
C15A N2A 1_555 1_555
C16A C17A 1_555 1_555
C17A H14A 1_555 1_555
H15A C17A 1_555 1_555
C18A C17A 1_555 1_555
H16A C18A 1_555 1_555
H17A C18A 1_555 1_555
C19A C18A 1_555 1_555
H18A C19A 1_555 1_555
H19A C19A 1_555 1_555
C20A C19A 1_555 1_555
H20A C20A 1_555 1_555
H21A C20A 1_555 1_555
H22A C20A 1_555 1_555
C21A C16A 1_555 1_555
C22A C21A 1_555 1_555
C23A C22A 1_555 1_555
H23A C23A 1_555 1_555
C24A C23A 1_555 1_555
H24A C24A 1_555 1_555
C25A C24A 1_555 1_555
C26A C25A 1_555 1_555
H25A C26A 1_555 1_555
C27A C22A 1_555 1_555
H26A C27A 1_555 1_555
C28A C25A 1_555 1_555
C29A C30A 1_555 1_555
C30A C31A 1_555 1_555
C31A H27A 1_555 1_555
C32A C31A 1_555 1_555
H28A C32A 1_555 1_555
C33A C32A 1_555 1_555
C34A C33A 1_555 1_555
H29A C34A 1_555 1_555
C35A C30A 1_555 1_555
H30A C35A 1_555 1_555
C36A C33A 1_555 1_555
C37A C36A 1_555 1_555
C38A C37A 1_555 1_555
H31A C38A 1_555 1_555
H32A C38A 1_555 1_555
C39A C38A 1_555 1_555
H33A C39A 1_555 1_555
H34A C39A 1_555 1_555
C40A C39A 1_555 1_555
H35A C40A 1_555 1_555
H36A C40A 1_555 1_555
C41A C40A 1_555 1_555
H37A C41A 1_555 1_555
H38A C41A 1_555 1_555
H39A C41A 1_555 1_555
C42A N3A 1_555 1_555
N1A C9A 1_555 1_555
N2A C16A 1_555 1_555
N3A C37A 1_555 1_555
O2A Na1 1_555 1_555
H40A O2A 1_555 1_555
O3A Zn1A 1_555 1_555
O4A C1A 1_555 1_555
O5A C28A 1_555 1_555
O6A C28A 1_555 1_555
O7A Zn2A 1_555 1_555
O8A C29A 1_555 1_555
S1A C8A 1_555 1_555
S2A C15A 1_555 1_555
S3A C36A 1_555 1_555
C29M C30M 1_555 1_555
C30M C31M 1_555 1_555
C31M H27M 1_555 1_555
C32M C31M 1_555 1_555
H28M C32M 1_555 1_555
C33M C32M 1_555 1_555
C34M C33M 1_555 1_555
H29M C34M 1_555 1_555
C35M C30M 1_555 1_555
H30M C35M 1_555 1_555
C36M C33M 1_555 1_555
C37M C36M 1_555 1_555
C38M C37M 1_555 1_555
H31M C38M 1_555 1_555
H32M C38M 1_555 1_555
C39M C38M 1_555 1_555
H33M C39M 1_555 1_555
H34M C39M 1_555 1_555
C40M C39M 1_555 1_555
H35M C40M 1_555 1_555
H36M C40M 1_555 1_555
C41M C40M 1_555 1_555
H37M C41M 1_555 1_555
H38M C41M 1_555 1_555
H39M C41M 1_555 1_555
C42M C42A 1_555 1_555
N3M C37M 1_555 1_555
O7M C29M 1_555 1_555
O8M C29M 1_555 1_555
S3M C36M 1_555 1_555
Zn1B O4A 1_555 1_555
Zn2B O6B 1_555 1_555
C1B C2B 1_555 1_555
C2B C3B 1_555 1_555
C3B H1B 1_555 1_555
C4B C3B 1_555 1_555
H2B C4B 1_555 1_555
C5B C4B 1_555 1_555
C6B C5B 1_555 1_555
H3B C6B 1_555 1_555
C7B C2B 1_555 1_555
H4B C7B 1_555 1_555
C8B C5B 1_555 1_555
C9B C8B 1_555 1_555
C10B C9B 1_555 1_555
H5B C10B 1_555 1_555
H6B C10B 1_555 1_555
C11B C10B 1_555 1_555
H7B C11B 1_555 1_555
H8B C11B 1_555 1_555
C12B C11B 1_555 1_555
H9B C12B 1_555 1_555
H10B C12B 1_555 1_555
C13B C12B 1_555 1_555
H11B C13B 1_555 1_555
H12B C13B 1_555 1_555
H13B C13B 1_555 1_555
C14B C15B 1_555 1_555
C15B N2B 1_555 1_555
C16B C17B 1_555 1_555
C17B H14B 1_555 1_555
H15B C17B 1_555 1_555
C18B C17B 1_555 1_555
H16B C18B 1_555 1_555
H17B C18B 1_555 1_555
C19B C18B 1_555 1_555
H18B C19B 1_555 1_555
H19B C19B 1_555 1_555
C20B C19B 1_555 1_555
H20B C20B 1_555 1_555
H21B C20B 1_555 1_555
H22B C20B 1_555 1_555
C21B C16B 1_555 1_555
C22B C21B 1_555 1_555
C23B C22B 1_555 1_555
H23B C23B 1_555 1_555
C24B C23B 1_555 1_555
H24B C24B 1_555 1_555
C25B C24B 1_555 1_555
C26B C25B 1_555 1_555
H25B C26B 1_555 1_555
C27B C22B 1_555 1_555
H26B C27B 1_555 1_555
C28B C25B 1_555 1_555
C29B C30B 1_555 1_555
C30B C31B 1_555 1_555
C31B H27B 1_555 1_555
C32B C31B 1_555 1_555
H28B C32B 1_555 1_555
C33B C32B 1_555 1_555
C34B C33B 1_555 1_555
H29B C34B 1_555 1_555
C35B C30B 1_555 1_555
H30B C35B 1_555 1_555
C36B C33B 1_555 1_555
C37B C36B 1_555 1_555
C38B C37B 1_555 1_555
H31B C38B 1_555 1_555
H32B C38B 1_555 1_555
C39B C38B 1_555 1_555
H33B C39B 1_555 1_555
H34B C39B 1_555 1_555
C40B C39B 1_555 1_555
H35B C40B 1_555 1_555
H36B C40B 1_555 1_555
C41B C40B 1_555 1_555
H37B C41B 1_555 1_555
H38B C41B 1_555 1_555
H39B C41B 1_555 1_555
C42B N3B 1_555 1_555
N1B C9B 1_555 1_555
N2B C16B 1_555 1_555
N3B C37B 1_555 1_555
O2B Na1 1_555 1_555
H40B O2B 1_555 1_555
O3B Zn1B 1_555 1_555
O4B Zn1 1_555 1_555
O5B C28B 1_555 1_555
O6B C28B 1_555 1_555
O7B Zn2B 1_555 1_555
O8B C29B 1_555 1_555
S1B C8B 1_555 1_555
S2B C15B 1_555 1_555
S3B C36B 1_555 1_555
C29N C30N 1_555 1_555
C30N C31N 1_555 1_555
C31N H27N 1_555 1_555
C32N C31N 1_555 1_555
H28N C32N 1_555 1_555
C33N C32N 1_555 1_555
C34N C33N 1_555 1_555
H29N C34N 1_555 1_555
C35N C30N 1_555 1_555
H30N C35N 1_555 1_555
C36N C33N 1_555 1_555
C37N C36N 1_555 1_555
C38N C37N 1_555 1_555
H31N C38N 1_555 1_555
H32N C38N 1_555 1_555
C39N C38N 1_555 1_555
H33N C39N 1_555 1_555
H34N C39N 1_555 1_555
C40N C39N 1_555 1_555
H35N C40N 1_555 1_555
H36N C40N 1_555 1_555
C41N C40N 1_555 1_555
H37N C41N 1_555 1_555
H38N C41N 1_555 1_555
H39N C41N 1_555 1_555
C42N C42B 1_555 1_555
N3N C37N 1_555 1_555
O7N C29N 1_555 1_555
O8N C29N 1_555 1_555
S3N C36N 1_555 1_555
Zn1J O2J 1_555 1_555
Zn2J O8 1_555 1_555
C1J C2J 1_555 1_555
C2J C3J 1_555 1_555
C3J H1J 1_555 1_555
C4J C3J 1_555 1_555
H2J C4J 1_555 1_555
C5J C4J 1_555 1_555
C6J C5J 1_555 1_555
H3J C6J 1_555 1_555
C7J C2J 1_555 1_555
H4J C7J 1_555 1_555
C8J C5J 1_555 1_555
C9J C8J 1_555 1_555
C10J C9J 1_555 1_555
H5J C10J 1_555 1_555
H6J C10J 1_555 1_555
C11J C10J 1_555 1_555
H7J C11J 1_555 1_555
H8J C11J 1_555 1_555
C12J C11J 1_555 1_555
H9J C12J 1_555 1_555
H10J C12J 1_555 1_555
C13J C12J 1_555 1_555
H11J C13J 1_555 1_555
H12J C13J 1_555 1_555
H13J C13J 1_555 1_555
C14J C15J 1_555 1_555
C15J N2J 1_555 1_555
C16J C17J 1_555 1_555
C17J H14J 1_555 1_555
H15J C17J 1_555 1_555
C18J C17J 1_555 1_555
H16J C18J 1_555 1_555
H17J C18J 1_555 1_555
C19J C18J 1_555 1_555
H18J C19J 1_555 1_555
H19J C19J 1_555 1_555
C20J C19J 1_555 1_555
H20J C20J 1_555 1_555
H21J C20J 1_555 1_555
H22J C20J 1_555 1_555
C21J C16J 1_555 1_555
C22J C21J 1_555 1_555
C23J C22J 1_555 1_555
H23J C23J 1_555 1_555
C24J C23J 1_555 1_555
H24J C24J 1_555 1_555
C25J C24J 1_555 1_555
C26J C25J 1_555 1_555
H25J C26J 1_555 1_555
C27J C22J 1_555 1_555
H26J C27J 1_555 1_555
C28J C25J 1_555 1_555
N1J C9J 1_555 1_555
N2J C16J 1_555 1_555
Na1I O2J 1_555 1_555
O2J H40J 1_555 1_555
O3J Zn1J 1_555 1_555
O4J C1J 1_555 1_555
O5J C28J 1_555 1_555
O6J Zn2J 1_555 1_555
S1J C8J 1_555 1_555
S2J C15J 1_555 1_555
Zn1K O2K 1_555 1_555
Zn2K O6K 1_555 1_555
C1K C2K 1_555 1_555
C2K C3K 1_555 1_555
C3K H1K 1_555 1_555
C4K C3K 1_555 1_555
H2K C4K 1_555 1_555
C5K C4K 1_555 1_555
C6K C5K 1_555 1_555
H3K C6K 1_555 1_555
C7K C2K 1_555 1_555
H4K C7K 1_555 1_555
C8K C5K 1_555 1_555
C9K C8K 1_555 1_555
C10K C9K 1_555 1_555
H5K C10K 1_555 1_555
H6K C10K 1_555 1_555
C11K C10K 1_555 1_555
H7K C11K 1_555 1_555
H8K C11K 1_555 1_555
C12K C11K 1_555 1_555
H9K C12K 1_555 1_555
H10K C12K 1_555 1_555
C13K C12K 1_555 1_555
H11K C13K 1_555 1_555
H12K C13K 1_555 1_555
H13K C13K 1_555 1_555
C14K C15K 1_555 1_555
C15K N2K 1_555 1_555
C16K C17K 1_555 1_555
C17K H14K 1_555 1_555
H15K C17K 1_555 1_555
C18K C17K 1_555 1_555
H16K C18K 1_555 1_555
H17K C18K 1_555 1_555
C19K C18K 1_555 1_555
H18K C19K 1_555 1_555
H19K C19K 1_555 1_555
C20K C19K 1_555 1_555
H20K C20K 1_555 1_555
H21K C20K 1_555 1_555
H22K C20K 1_555 1_555
C21K C16K 1_555 1_555
C22K C21K 1_555 1_555
C23K C22K 1_555 1_555
H23K C23K 1_555 1_555
C24K C23K 1_555 1_555
H24K C24K 1_555 1_555
C25K C24K 1_555 1_555
C26K C25K 1_555 1_555
H25K C26K 1_555 1_555
C27K C22K 1_555 1_555
H26K C27K 1_555 1_555
C28K C25K 1_555 1_555
N1K C9K 1_555 1_555
N2K C16K 1_555 1_555
O2K H40K 1_555 1_555
O3K Zn1K 1_555 1_555
O4K C1K 1_555 1_555
O5K C28K 1_555 1_555
O6K C28K 1_555 1_555
S1K C8K 1_555 1_555
S2K C15K 1_555 1_555
Zn1I O4K 1_555 1_555
Zn2I O8B 1_555 1_555
C1I C2I 1_555 1_555
C2I C3I 1_555 1_555
C3I H1I 1_555 1_555
C4I C3I 1_555 1_555
H2I C4I 1_555 1_555
C5I C4I 1_555 1_555
C6I C5I 1_555 1_555
H3I C6I 1_555 1_555
C7I C2I 1_555 1_555
H4I C7I 1_555 1_555
C8I C5I 1_555 1_555
C9I C8I 1_555 1_555
C10I C9I 1_555 1_555
H5I C10I 1_555 1_555
H6I C10I 1_555 1_555
C11I C10I 1_555 1_555
H7I C11I 1_555 1_555
H8I C11I 1_555 1_555
C12I C11I 1_555 1_555
H9I C12I 1_555 1_555
H10I C12I 1_555 1_555
C13I C12I 1_555 1_555
H11I C13I 1_555 1_555
H12I C13I 1_555 1_555
H13I C13I 1_555 1_555
C14I C15I 1_555 1_555
C15I N2I 1_555 1_555
C16I C17I 1_555 1_555
C17I H14I 1_555 1_555
H15I C17I 1_555 1_555
C18I C17I 1_555 1_555
H16I C18I 1_555 1_555
H17I C18I 1_555 1_555
C19I C18I 1_555 1_555
H18I C19I 1_555 1_555
H19I C19I 1_555 1_555
C20I C19I 1_555 1_555
H20I C20I 1_555 1_555
H21I C20I 1_555 1_555
H22I C20I 1_555 1_555
C21I C16I 1_555 1_555
C22I C21I 1_555 1_555
C23I C22I 1_555 1_555
H23I C23I 1_555 1_555
C24I C23I 1_555 1_555
H24I C24I 1_555 1_555
C25I C24I 1_555 1_555
C26I C25I 1_555 1_555
H25I C26I 1_555 1_555
C27I C22I 1_555 1_555
H26I C27I 1_555 1_555
C28I C25I 1_555 1_555
N1I C9I 1_555 1_555
N2I C16I 1_555 1_555
O2I Zn1I 1_555 1_555
H40I O2I 1_555 1_555
O3I Zn1I 1_555 1_555
O4I C1I 1_555 1_555
O5I C28I 1_555 1_555
O6I Zn2I 1_555 1_555
S1I C8I 1_555 1_555
S2I C15I 1_555 1_555
Zn1C O5I 1_555 1_555
Zn1D O5J 1_555 1_555
Zn1E O5K 1_555 1_555
Zn1J_2 O4I 1_555 1_555
Zn1K_2 O4J 1_555 1_555
Zn1L O5 1_555 1_555
Zn1M O5A 1_555 1_555
Zn1N O5B 1_555 1_555
Zn2C O2I 1_555 1_555
Zn2D O2J 1_555 1_555
Zn2E O2K 1_555 1_555
Zn2F O8N 1_555 1_555
Zn2G O8L 1_555 1_555
Zn2H O8M 1_555 1_555
Zn2K_2 O8A 1_555 1_555
Zn2L O7L 1_555 1_555
Zn2L_2 O2 1_555 1_555
Zn2M O2A 1_555 1_555
Zn2M_2 O7M 1_555 1_555
Zn2N O7N 1_555 1_555
Zn2N_2 O2B 1_555 1_555
Na1I_2 O2K 1_555 1_555
O1F Na1I 1_555 1_555
O2C Zn2I 1_555 1_555
O2D Zn2J 1_555 1_555
O2E Zn2K 1_555 1_555
O2I_2 Na1I 1_555 1_555
O2K_2 Na1I 1_555 1_555
O2L Zn2 1_555 1_555
O2M Zn2A 1_555 1_555
O2N Zn2B 1_555 1_555
O4I_2 Zn1J 1_555 1_555
O4J_2 Zn1K 1_555 1_555
O5C Zn1I 1_555 1_555
O5D Zn1J 1_555 1_555
O5E Zn1K 1_555 1_555
O5L Zn1 1_555 1_555
O5M Zn1A 1_555 1_555
O5N Zn1B 1_555 1_555
O7I Zn2I 1_555 1_555
O7J Zn2J 1_555 1_555
O7K Zn2K 1_555 1_555
O8A_2 Zn2K 1_555 1_555
O8I Zn2A 1_555 1_555
O8J Zn2B 1_555 1_555
O8K Zn2 1_555 1_555
C1 O3 1_555 1_555
C6 C7 1_555 1_555
C14 N1 1_555 1_555
C14 S1 1_555 1_555
C21 S2 1_555 1_555
C26 C27 1_555 1_555
C29 O7 1_555 1_555
C34 C35 1_555 1_555
C42 S3 1_555 1_555
C34L C35L 1_555 1_555
C42L N3L 1_555 1_555
C42L S3L 1_555 1_555
Zn1A O2A 1_555 1_555
C1A O3A 1_555 1_555
C6A C7A 1_555 1_555
C14A N1A 1_555 1_555
C14A S1A 1_555 1_555
C21A S2A 1_555 1_555
C26A C27A 1_555 1_555
C29A O7A 1_555 1_555
C34A C35A 1_555 1_555
C42A S3A 1_555 1_555
C34M C35M 1_555 1_555
C42M N3M 1_555 1_555
C42M S3M 1_555 1_555
Zn1B O2B 1_555 1_555
C1B O3B 1_555 1_555
C1B O4B 1_555 1_555
C6B C7B 1_555 1_555
C14B N1B 1_555 1_555
C14B S1B 1_555 1_555
C21B S2B 1_555 1_555
C26B C27B 1_555 1_555
C29B O7B 1_555 1_555
C34B C35B 1_555 1_555
C42B S3B 1_555 1_555
C34N C35N 1_555 1_555
C42N N3N 1_555 1_555
C42N S3N 1_555 1_555
C1J O3J 1_555 1_555
C6J C7J 1_555 1_555
C14J N1J 1_555 1_555
C14J S1J 1_555 1_555
C21J S2J 1_555 1_555
C26J C27J 1_555 1_555
C28J O6J 1_555 1_555
C1K O3K 1_555 1_555
C6K C7K 1_555 1_555
C14K N1K 1_555 1_555
C14K S1K 1_555 1_555
C21K S2K 1_555 1_555
C26K C27K 1_555 1_555
C1I O3I 1_555 1_555
C6I C7I 1_555 1_555
C14I N1I 1_555 1_555
C14I S1I 1_555 1_555
C21I S2I 1_555 1_555
C26I C27I 1_555 1_555
C28I O6I 1_555 1_555
O2I Na1I_2 1_555 1_555
Zn1C O2C 1_555 1_555
Zn1D O2D 1_555 1_555
Zn1E O2E 1_555 1_555
Zn1K_2 O2K_2 1_555 1_555
Zn1L O2L 1_555 1_555
Zn1M O2M 1_555 1_555
Zn1N O2N 1_555 1_555

#END
