
#######################################################################
#
#                 Cambridge Crystallographic Data Centre
#                                CCDC 
#
#######################################################################
#
# If this CIF has been generated from an entry in the Cambridge 
# Structural Database, then it will include bibliographic, chemical, 
# crystal, experimental, refinement or atomic coordinate data resulting 
# from the CCDC's data processing and validation procedures.
#
#######################################################################

data_FIKYAB
_symmetry_cell_setting           tetragonal
_symmetry_space_group_name_H-M   'P 43 2 2'
_symmetry_Int_Tables_number      95
_space_group_name_Hall           'P 4cw 2c'
loop_
_symmetry_equiv_pos_site_id
_symmetry_equiv_pos_as_xyz
1 x,y,z
2 -y,x,3/4+z
3 -x,-y,1/2+z
4 y,-x,1/4+z
5 x,-y,1/2-z
6 y,x,1/4-z
7 -x,y,-z
8 -y,-x,3/4-z
_cell_length_a                   10.7935(2)
_cell_length_b                   10.7935(2)
_cell_length_c                   16.5026(7)
_cell_angle_alpha                90
_cell_angle_beta                 90
_cell_angle_gamma                90
_cell_volume                     1922.55
loop_
_atom_site_label
_atom_site_type_symbol
_atom_site_fract_x
_atom_site_fract_y
_atom_site_fract_z
C1 C 0.1888(3) 0.2269(3) 0.24674(17)
H1 H 0.2718 0.2051 0.2519
C2 C 0.0953(4) 0.1586(3) 0.28402(19)
H2 H 0.1163 0.0893 0.3145
C3 C -0.0290(4) 0.1916(4) 0.2768(2)
H3 H -0.0888 0.1439 0.3027
C4 C -0.0653(4) 0.2930(4) 0.23221(18)
H4 H -0.1482 0.3155 0.2278
C5 C 0.0276(3) 0.3599(3) 0.19426(16)
C6 C 0.1527(3) 0.3289(3) 0.20163(15)
C7 C 0.1410(2) 0.4923(2) 0.12557(16)
C8 C 0.1732(2) 0.5964(3) 0.06929(15)
H5 H 0.0980 0.6367 0.0509
H6 H 0.2230 0.6573 0.0977
C9 C 0.2434(2) 0.5477(2) -0.00180(15)
Mn1 Mn 0.42532(3) 0.42532(3) 0.1250
N1 N 0.22294(19) 0.4159(2) 0.15754(11)
N2 N 0.0236(2) 0.4635(2) 0.14525(12)
H7 H -0.0419 0.5024 0.1301
N3 N 0.35292(18) 0.49341(19) 0.00460(11)
N4 N 0.38154(18) 0.45745(18) -0.07227(12)
N5 N 0.29136(19) 0.4889(2) -0.12083(14)
N6 N 0.2021(2) 0.5472(2) -0.07769(13)
C1E C 0.2269(3) 0.1888(3) 0.00326(17)
H1E H 0.2051 0.2718 -0.0019
C2E C 0.1586(3) 0.0953(4) -0.03402(19)
H2E H 0.0893 0.1163 -0.0645
C3E C 0.1916(4) -0.0290(4) -0.0268(2)
H3E H 0.1439 -0.0888 -0.0527
C4E C 0.2930(4) -0.0653(4) 0.01779(18)
H4E H 0.3155 -0.1482 0.0222
C5E C 0.3599(3) 0.0276(3) 0.05574(16)
C6E C 0.3289(3) 0.1527(3) 0.04837(15)
C7E C 0.4923(2) 0.1410(2) 0.12443(16)
C8E C 0.5964(3) 0.1732(2) 0.18071(15)
H5E H 0.6367 0.0980 0.1991
H6E H 0.6573 0.2230 0.1523
C9E C 0.5477(2) 0.2434(2) 0.25180(15)
N1E N 0.4159(2) 0.22294(19) 0.09246(11)
N2E N 0.4635(2) 0.0236(2) 0.10475(12)
H7E H 0.5024 -0.0419 0.1199
N3E N 0.49341(19) 0.35292(18) 0.24540(11)
N4E N 0.45745(18) 0.38154(18) 0.32227(12)
N5E N 0.4889(2) 0.29136(19) 0.37083(14)
N6E N 0.5472(2) 0.2021(2) 0.32769(13)
Mn1A Mn 0.57468(3) 0.42532(3) -0.1250
Mn1C Mn 0.42532(3) 0.57468(3) 0.3750
N4C N 0.45745(18) 0.61846(18) 0.17773(12)
N4F N 0.61846(18) 0.45745(18) 0.07227(12)
loop_
_geom_bond_atom_site_label_1
_geom_bond_atom_site_label_2
_geom_bond_site_symmetry_1
_geom_bond_site_symmetry_2
C1 H1 1_555 1_555
C2 C1 1_555 1_555
H2 C2 1_555 1_555
C3 C2 1_555 1_555
H3 C3 1_555 1_555
C4 C3 1_555 1_555
H4 C4 1_555 1_555
C5 C4 1_555 1_555
C6 C1 1_555 1_555
C7 C8 1_555 1_555
C8 H5 1_555 1_555
H6 C8 1_555 1_555
C9 C8 1_555 1_555
Mn1 N1 1_555 1_555
N1 C6 1_555 1_555
N2 C5 1_555 1_555
H7 N2 1_555 1_555
N3 C9 1_555 1_555
N4 N3 1_555 1_555
N5 N4 1_555 1_555
N6 C9 1_555 1_555
C1E H1E 1_555 1_555
C2E C1E 1_555 1_555
H2E C2E 1_555 1_555
C3E C2E 1_555 1_555
H3E C3E 1_555 1_555
C4E C3E 1_555 1_555
H4E C4E 1_555 1_555
C5E C4E 1_555 1_555
C6E C1E 1_555 1_555
C7E C8E 1_555 1_555
C8E H5E 1_555 1_555
H6E C8E 1_555 1_555
C9E C8E 1_555 1_555
N1E Mn1 1_555 1_555
N2E C5E 1_555 1_555
H7E N2E 1_555 1_555
N3E Mn1 1_555 1_555
N4E N3E 1_555 1_555
N5E N4E 1_555 1_555
N6E C9E 1_555 1_555
Mn1A N4 1_555 1_555
Mn1C N4E 1_555 1_555
N4C Mn1 1_555 1_555
N4F Mn1 1_555 1_555
C5 C6 1_555 1_555
C7 N1 1_555 1_555
C7 N2 1_555 1_555
Mn1 N3 1_555 1_555
N5 N6 1_555 1_555
C5E C6E 1_555 1_555
C6E N1E 1_555 1_555
C7E N1E 1_555 1_555
C7E N2E 1_555 1_555
C9E N3E 1_555 1_555
N5E N6E 1_555 1_555

#END
