
#######################################################################
#
#                 Cambridge Crystallographic Data Centre
#                                CCDC 
#
#######################################################################
#
# If this CIF has been generated from an entry in the Cambridge 
# Structural Database, then it will include bibliographic, chemical, 
# crystal, experimental, refinement or atomic coordinate data resulting 
# from the CCDC's data processing and validation procedures.
#
#######################################################################

data_FIKZIK
_symmetry_cell_setting           monoclinic
_symmetry_space_group_name_H-M   'P 21/c'
_symmetry_Int_Tables_number      14
_space_group_name_Hall           '-P 2ybc'
loop_
_symmetry_equiv_pos_site_id
_symmetry_equiv_pos_as_xyz
1 x,y,z
2 -x,1/2+y,1/2-z
3 -x,-y,-z
4 x,1/2-y,1/2+z
_cell_length_a                   15.840(6)
_cell_length_b                   11.339(5)
_cell_length_c                   8.643(4)
_cell_angle_alpha                90
_cell_angle_beta                 98.688(6)
_cell_angle_gamma                90
_cell_volume                     1534.55
loop_
_atom_site_label
_atom_site_type_symbol
_atom_site_fract_x
_atom_site_fract_y
_atom_site_fract_z
Zn1 Zn 0.53679(3) 0.34942(5) 0.56399(6)
O1 O 0.4129(3) 0.2582(4) 0.4294(6)
O2 O 0.4268(3) 0.4489(4) 0.4114(6)
O3 O 0.0876(3) 0.3912(5) -0.0750(6)
O4 O -0.4131(3) 0.3522(5) -0.6827(6)
O5 O -0.3463(3) 0.2348(6) -0.8333(7)
O6 O -0.0225(3) 0.4005(5) -0.3742(6)
O7 O 0.4832(4) 0.4130(6) 0.7791(8)
H1 H 0.4555 0.3708 0.8298
H2 H 0.4554 0.4738 0.7615
C1 C 0.3865(4) 0.3544(6) 0.3674(8)
C2 C 0.3107(4) 0.3619(6) 0.2425(8)
C3 C 0.2485(5) 0.2743(7) 0.2282(8)
H3 H 0.2567 0.2069 0.2901
C4 C 0.3000(4) 0.4588(7) 0.1453(8)
H4 H 0.3416 0.5172 0.1544
C5 C 0.2272(4) 0.4699(6) 0.0333(8)
H5 H 0.2213 0.5336 -0.0352
C6 C 0.1637(4) 0.3854(6) 0.0252(8)
C7 C 0.1739(5) 0.2874(7) 0.1209(9)
H6 H 0.1312 0.2303 0.1139
C8 C 0.0755(4) 0.4937(7) -0.1738(8)
H7 H 0.1164 0.4932 -0.2468
H8 H 0.0846 0.5645 -0.1107
C9 C -0.3456(4) 0.3086(6) -0.7235(8)
C10 C -0.2600(4) 0.3406(6) -0.6383(8)
C11 C -0.2491(4) 0.4368(6) -0.5414(8)
H9 H -0.2952 0.4865 -0.5352
C12 C -0.1704(4) 0.4618(6) -0.4521(8)
H10 H -0.1640 0.5275 -0.3871
C13 C -0.1013(4) 0.3873(6) -0.4609(8)
C14 C -0.1102(4) 0.2928(6) -0.5627(8)
H11 H -0.0637 0.2446 -0.5716
C15 C -0.1893(4) 0.2702(6) -0.6520(9)
H12 H -0.1951 0.2073 -0.7218
C16 C -0.0131(4) 0.4926(7) -0.2614(8)
H13 H -0.0535 0.4812 -0.1888
H14 H -0.0254 0.5678 -0.3134
Zn1_2 Zn -0.46321(3) 0.34942(5) -0.43601(6)
Zn1B Zn 0.46321(3) 0.65058(5) 0.43601(6)
Zn1C Zn -0.46321(3) 0.15058(5) -0.93601(6)
O2B O 0.5732(3) 0.5511(4) 0.5886(6)
O4_2 O 0.5869(3) 0.3522(5) 0.3173(6)
O5C O 0.6537(3) 0.2652(6) 0.6667(7)
loop_
_geom_bond_atom_site_label_1
_geom_bond_atom_site_label_2
_geom_bond_site_symmetry_1
_geom_bond_site_symmetry_2
Zn1 O1 1_555 1_555
O1 C1 1_555 1_555
O2 Zn1 1_555 1_555
O3 C6 1_555 1_555
O4 C9 1_555 1_555
O5 C9 1_555 1_555
O6 C13 1_555 1_555
O7 Zn1 1_555 1_555
H1 O7 1_555 1_555
H2 O7 1_555 1_555
C1 O2 1_555 1_555
C2 C1 1_555 1_555
C3 C2 1_555 1_555
H3 C3 1_555 1_555
C4 C2 1_555 1_555
H4 C4 1_555 1_555
C5 C4 1_555 1_555
H5 C5 1_555 1_555
C6 C5 1_555 1_555
C7 C3 1_555 1_555
H6 C7 1_555 1_555
C8 O3 1_555 1_555
H7 C8 1_555 1_555
H8 C8 1_555 1_555
C9 C10 1_555 1_555
C10 C11 1_555 1_555
C11 H9 1_555 1_555
C12 C11 1_555 1_555
H10 C12 1_555 1_555
C13 C12 1_555 1_555
C14 C13 1_555 1_555
H11 C14 1_555 1_555
C15 C10 1_555 1_555
H12 C15 1_555 1_555
C16 O6 1_555 1_555
H13 C16 1_555 1_555
H14 C16 1_555 1_555
Zn1_2 O4 1_555 1_555
Zn1B O2 1_555 1_555
Zn1C O5 1_555 1_555
O2B Zn1 1_555 1_555
O4_2 Zn1 1_555 1_555
O5C Zn1 1_555 1_555
C6 C7 1_555 1_555
C8 C16 1_555 1_555
C14 C15 1_555 1_555
Zn1B O2B 1_555 1_555

#END
