
#######################################################################
#
#                 Cambridge Crystallographic Data Centre
#                                CCDC 
#
#######################################################################
#
# If this CIF has been generated from an entry in the Cambridge 
# Structural Database, then it will include bibliographic, chemical, 
# crystal, experimental, refinement or atomic coordinate data resulting 
# from the CCDC's data processing and validation procedures.
#
#######################################################################

data_FILCIN
_symmetry_cell_setting           monoclinic
_symmetry_space_group_name_H-M   'P 21/c'
_symmetry_Int_Tables_number      14
_space_group_name_Hall           '-P 2ybc'
loop_
_symmetry_equiv_pos_site_id
_symmetry_equiv_pos_as_xyz
1 x,y,z
2 -x,1/2+y,1/2-z
3 -x,-y,-z
4 x,1/2-y,1/2+z
_cell_length_a                   7.75000(10)
_cell_length_b                   20.4884(5)
_cell_length_c                   6.3379(2)
_cell_angle_alpha                90
_cell_angle_beta                 106.7190(10)
_cell_angle_gamma                90
_cell_volume                     963.822
loop_
_atom_site_label
_atom_site_type_symbol
_atom_site_fract_x
_atom_site_fract_y
_atom_site_fract_z
Gd1 Gd 0.15119(3) 0.429200(12) -0.29483(4)
C1 C -0.1069(8) 0.3280(3) -0.4318(8)
C2 C -0.2420(7) 0.2734(2) -0.4826(8)
C3 C -0.4260(7) 0.2850(3) -0.5465(8)
H1 H -0.4696 0.3275 -0.5615
C4 C -0.5440(8) 0.2330(3) -0.5875(8)
H2 H -0.6675 0.2406 -0.6281
C5 C -0.1821(7) 0.2089(3) -0.4621(8)
H3 H -0.0592 0.2001 -0.4161
C6 C -0.3021(7) 0.1583(3) -0.5089(8)
H4 H -0.2613 0.1154 -0.4996
N1 N -0.4816(6) 0.1712(2) -0.5691(7)
O1 O -0.1596(5) 0.38633(18) -0.4569(6)
O2 O 0.0573(5) 0.31398(18) -0.3593(7)
O3 O -0.5931(5) 0.12104(18) -0.6024(7)
O4 O 0.2745(5) 0.4855(2) 0.1301(7)
O5 O 0.0520(5) 0.40459(19) 0.0211(6)
O6 O 0.2625(5) 0.39760(19) 0.3898(6)
O7 O 0.0387(5) 0.47795(17) 0.3170(5)
O8 O 0.3538(6) 0.5154(2) -0.2984(8)
S1 S 0.16074(18) 0.44123(6) 0.2134(2)
H5 H 0.344(12) 0.545(4) -0.374(15)
H6 H 0.460(10) 0.512(3) -0.238(11)
Gd1C Gd -0.84881(3) 0.070800(12) -0.79483(4)
Gd1B Gd -0.15119(3) 0.570800(12) 0.29483(4)
Gd1_2 Gd 0.15119(3) 0.429200(12) 0.70517(4)
O3C O 0.4069(5) 0.37896(18) -0.1024(7)
O6_2 O 0.2625(5) 0.39760(19) -0.6102(6)
O7B O -0.0387(5) 0.52205(17) -0.3170(5)
O7_2 O 0.0387(5) 0.47795(17) -0.6830(5)
loop_
_geom_bond_atom_site_label_1
_geom_bond_atom_site_label_2
_geom_bond_site_symmetry_1
_geom_bond_site_symmetry_2
Gd1 O1 1_555 1_555
C1 C2 1_555 1_555
C2 C3 1_555 1_555
C3 H1 1_555 1_555
C4 C3 1_555 1_555
H2 C4 1_555 1_555
C5 C2 1_555 1_555
H3 C5 1_555 1_555
C6 C5 1_555 1_555
H4 C6 1_555 1_555
N1 C4 1_555 1_555
O1 C1 1_555 1_555
O2 Gd1 1_555 1_555
O3 N1 1_555 1_555
O4 Gd1 1_555 1_555
O5 Gd1 1_555 1_555
O6 S1 1_555 1_555
O7 S1 1_555 1_555
O8 Gd1 1_555 1_555
S1 O4 1_555 1_555
H5 O8 1_555 1_555
H6 O8 1_555 1_555
Gd1C O3 1_555 1_555
Gd1B O7 1_555 1_555
Gd1_2 O6 1_555 1_555
O3C Gd1 1_555 1_555
O6_2 Gd1 1_555 1_555
O7B Gd1 1_555 1_555
O7_2 Gd1 1_555 1_555
C1 O2 1_555 1_555
C6 N1 1_555 1_555
O5 S1 1_555 1_555
O7 Gd1_2 1_555 1_555

#END
