
#######################################################################
#
#                 Cambridge Crystallographic Data Centre
#                                CCDC 
#
#######################################################################
#
# If this CIF has been generated from an entry in the Cambridge 
# Structural Database, then it will include bibliographic, chemical, 
# crystal, experimental, refinement or atomic coordinate data resulting 
# from the CCDC's data processing and validation procedures.
#
#######################################################################

data_FILCUZ
_symmetry_cell_setting           orthorhombic
_symmetry_space_group_name_H-M   'P b c a'
_symmetry_Int_Tables_number      61
_space_group_name_Hall           '-P 2ac 2ab'
loop_
_symmetry_equiv_pos_site_id
_symmetry_equiv_pos_as_xyz
1 x,y,z
2 1/2-x,-y,1/2+z
3 -x,1/2+y,1/2-z
4 1/2+x,1/2-y,-z
5 -x,-y,-z
6 1/2+x,y,1/2-z
7 x,1/2-y,1/2+z
8 1/2-x,1/2+y,z
_cell_length_a                   16.1772(3)
_cell_length_b                   7.40090(10)
_cell_length_c                   16.8978(4)
_cell_angle_alpha                90
_cell_angle_beta                 90
_cell_angle_gamma                90
_cell_volume                     2023.1
loop_
_atom_site_label
_atom_site_type_symbol
_atom_site_fract_x
_atom_site_fract_y
_atom_site_fract_z
Gd1 Gd -0.464450(12) -0.25102(4) -0.055830(12)
C1 C -0.2750(3) 0.0429(6) 0.1125(3)
C2 C -0.2065(3) -0.0124(6) 0.0690(3)
H1 H -0.2133 -0.0825 0.0238
C3 C -0.1178(3) 0.1249(6) 0.1607(3)
H2 H -0.0643 0.1556 0.1758
C4 C -0.1841(3) 0.1708(7) 0.2084(3)
H3 H -0.1751 0.2271 0.2568
C5 C -0.2639(3) 0.1324(6) 0.1836(3)
H4 H -0.3091 0.1662 0.2142
N1 N -0.1310(2) 0.0360(5) 0.0927(2)
O1 O -0.36636(18) -0.1125(4) 0.02812(19)
O2 O -0.41636(17) 0.1124(4) 0.10510(19)
O3 O -0.0655(2) 0.0036(4) 0.04337(18)
O4 O -0.6084(2) 0.0379(4) 0.13830(18)
O5 O -0.53712(19) -0.1677(7) 0.05743(19)
O6 O -0.5732(2) -0.2557(4) 0.19003(18)
O7 O -0.67837(19) -0.2313(4) 0.0913(2)
O8 O -0.4779(2) -0.3684(5) -0.18941(19)
O9 O -0.33705(19) -0.3959(5) -0.1000(2)
C6 C -0.3595(3) 0.0079(6) 0.0796(3)
S1 S -0.60031(7) -0.15488(15) 0.11992(7)
H5 H -0.329(3) -0.522(3) -0.095(3)
H6 H -0.518(2) -0.333(6) -0.228(2)
H7 H -0.453(3) -0.475(6) -0.210(4)
H8 H -0.284(2) -0.342(6) -0.101(4)
Gd1C Gd 0.035550(12) -0.24898(4) 0.055830(12)
Gd1G Gd -0.035550(12) 0.24898(4) -0.055830(12)
Gd1D Gd -0.535550(12) 0.25102(4) 0.055830(12)
O2D O -0.58364(17) -0.1124(4) -0.10510(19)
O3C O -0.5655(2) -0.5036(4) -0.04337(18)
O3G O -0.4345(2) -0.4964(4) 0.04337(18)
O4D O -0.3916(2) -0.0379(4) -0.13830(18)
loop_
_geom_bond_atom_site_label_1
_geom_bond_atom_site_label_2
_geom_bond_site_symmetry_1
_geom_bond_site_symmetry_2
Gd1 O1 1_555 1_555
C1 C2 1_555 1_555
C2 H1 1_555 1_555
C3 H2 1_555 1_555
C4 C3 1_555 1_555
H3 C4 1_555 1_555
C5 C1 1_555 1_555
H4 C5 1_555 1_555
N1 C2 1_555 1_555
O1 C6 1_555 1_555
O2 C6 1_555 1_555
O3 N1 1_555 1_555
O4 S1 1_555 1_555
O5 Gd1 1_555 1_555
O6 S1 1_555 1_555
O7 S1 1_555 1_555
O8 Gd1 1_555 1_555
O9 Gd1 1_555 1_555
C6 C1 1_555 1_555
S1 O5 1_555 1_555
H5 O9 1_555 1_555
H6 O8 1_555 1_555
H7 O8 1_555 1_555
H8 O9 1_555 1_555
Gd1C O3 1_555 1_555
Gd1G O3 1_555 1_555
Gd1D O2 1_555 1_555
O2D Gd1 1_555 1_555
O3C Gd1 1_555 1_555
O3G Gd1 1_555 1_555
O4D Gd1 1_555 1_555
C3 N1 1_555 1_555
C4 C5 1_555 1_555
O4 Gd1D 1_555 1_555

#END
