
#######################################################################
#
#                 Cambridge Crystallographic Data Centre
#                                CCDC 
#
#######################################################################
#
# If this CIF has been generated from an entry in the Cambridge 
# Structural Database, then it will include bibliographic, chemical, 
# crystal, experimental, refinement or atomic coordinate data resulting 
# from the CCDC's data processing and validation procedures.
#
#######################################################################

data_FILCOT
_symmetry_cell_setting           triclinic
_symmetry_space_group_name_H-M   'P -1'
_symmetry_Int_Tables_number      2
_space_group_name_Hall           '-P 1'
loop_
_symmetry_equiv_pos_site_id
_symmetry_equiv_pos_as_xyz
1 x,y,z
2 -x,-y,-z
_cell_length_a                   6.3506(4)
_cell_length_b                   7.5041(5)
_cell_length_c                   10.8724(9)
_cell_angle_alpha                81.379(3)
_cell_angle_beta                 87.534(3)
_cell_angle_gamma                85.443(5)
_cell_volume                     510.402
loop_
_atom_site_label
_atom_site_type_symbol
_atom_site_fract_x
_atom_site_fract_y
_atom_site_fract_z
Gd1 Gd -0.18363(8) 0.20542(7) -0.11494(5)
C1 C -0.2150(15) 0.0761(15) -0.4351(10)
C2 C -0.2794(16) 0.0384(16) -0.5473(11)
H1 H -0.2869 -0.0811 -0.5591
C3 C -0.3340(18) 0.1790(18) -0.6442(11)
H2 H -0.3781 0.1542 -0.7200
C4 C -0.3203(18) 0.3520(17) -0.6238(10)
H3 H -0.3605 0.4473 -0.6852
C5 C -0.2480(17) 0.3878(16) -0.5136(11)
H4 H -0.2360 0.5067 -0.5018
C6 C -0.1687(15) -0.0797(17) -0.3294(10)
N1 N -0.1942(13) 0.2516(13) -0.4225(8)
O1 O -0.1300(12) -0.0455(10) -0.2245(7)
O2 O -0.1800(12) -0.2335(11) -0.3571(7)
O3 O -0.1152(13) 0.2988(11) -0.3209(7)
O4 O 0.1670(11) 0.3514(10) -0.1461(7)
O5 O 0.4683(11) 0.1568(11) -0.1998(7)
O6 O 0.4555(10) 0.2490(10) -0.0052(7)
O7 O 0.1919(11) 0.0511(10) -0.0507(7)
O8 O -0.2931(12) 0.5195(10) -0.1591(7)
O9 O -0.1205(11) 0.3063(10) 0.0791(7)
S1 S 0.3219(4) 0.2035(4) -0.1019(2)
Gd1_2 Gd 0.81637(8) 0.20542(7) -0.11494(5)
Gd1A Gd 0.18363(8) -0.20542(7) 0.11494(5)
O5_2 O -0.5317(11) 0.1568(11) -0.1998(7)
O6_2 O -0.5445(10) 0.2490(10) -0.0052(7)
O7A O -0.1919(11) -0.0511(10) 0.0507(7)
loop_
_geom_bond_atom_site_label_1
_geom_bond_atom_site_label_2
_geom_bond_site_symmetry_1
_geom_bond_site_symmetry_2
Gd1 O1 1_555 1_555
C1 C2 1_555 1_555
C2 H1 1_555 1_555
C3 C2 1_555 1_555
H2 C3 1_555 1_555
C4 C3 1_555 1_555
H3 C4 1_555 1_555
C5 C4 1_555 1_555
H4 C5 1_555 1_555
C6 C1 1_555 1_555
N1 C1 1_555 1_555
O1 C6 1_555 1_555
O2 C6 1_555 1_555
O3 Gd1 1_555 1_555
O4 Gd1 1_555 1_555
O5 S1 1_555 1_555
O6 S1 1_555 1_555
O7 Gd1 1_555 1_555
O8 Gd1 1_555 1_555
O9 Gd1 1_555 1_555
S1 O4 1_555 1_555
Gd1_2 O5 1_555 1_555
Gd1A O7 1_555 1_555
O5_2 Gd1 1_555 1_555
O6_2 Gd1 1_555 1_555
O7A Gd1 1_555 1_555
C5 N1 1_555 1_555
N1 O3 1_555 1_555
O6 Gd1_2 1_555 1_555
O7 S1 1_555 1_555
Gd1A O7A 1_555 1_555

#END
