
#######################################################################
#
#                 Cambridge Crystallographic Data Centre
#                                CCDC 
#
#######################################################################
#
# If this CIF has been generated from an entry in the Cambridge 
# Structural Database, then it will include bibliographic, chemical, 
# crystal, experimental, refinement or atomic coordinate data resulting 
# from the CCDC's data processing and validation procedures.
#
#######################################################################

data_FILDUZ
_symmetry_cell_setting           orthorhombic
_symmetry_space_group_name_H-M   'P b c a'
_symmetry_Int_Tables_number      61
_space_group_name_Hall           '-P 2ac 2ab'
loop_
_symmetry_equiv_pos_site_id
_symmetry_equiv_pos_as_xyz
1 x,y,z
2 1/2-x,-y,1/2+z
3 1/2+x,1/2-y,-z
4 -x,1/2+y,1/2-z
5 -x,-y,-z
6 1/2+x,y,1/2-z
7 1/2-x,1/2+y,z
8 x,1/2-y,1/2+z
_cell_length_a                   11.869(2)
_cell_length_b                   8.114(2)
_cell_length_c                   15.393(3)
_cell_angle_alpha                90
_cell_angle_beta                 90
_cell_angle_gamma                90
_cell_volume                     1482.42
loop_
_atom_site_label
_atom_site_type_symbol
_atom_site_fract_x
_atom_site_fract_y
_atom_site_fract_z
Co1 Co -0.12650(4) 0.11787(6) -0.31372(3)
C1 C -0.1321(3) 0.2465(4) -0.1467(2)
C2 C -0.1239(3) 0.0715(5) -0.1338(2)
C3 C -0.1250(3) 0.0355(5) -0.0410(2)
C4 C -0.1316(3) 0.1970(5) 0.0034(2)
C5 C -0.1320(3) 0.3273(5) -0.0625(2)
O1 O -0.1356(2) 0.3086(3) -0.2214(2)
O2 O -0.1183(2) -0.0270(3) -0.1968(2)
O3 O -0.1206(2) -0.0998(3) -0.0042(2)
O4 O -0.1360(2) 0.2105(3) 0.0841(2)
O5 O -0.1321(2) 0.4802(3) -0.0498(2)
O6 O -0.1101(3) -0.0884(3) -0.3868(2)
O7 O -0.3036(2) 0.1038(3) -0.3233(2)
O8 O 0.0471(3) 0.1542(4) -0.3169(2)
H1 H -0.114(4) -0.068(7) -0.440(4)
H2 H -0.117(5) -0.140(6) -0.329(5)
H3 H -0.335(6) 0.089(6) -0.301(4)
H4 H -0.319(4) 0.068(7) -0.363(3)
H5 H 0.073(6) 0.223(8) -0.317(3)
H6 H 0.073(5) 0.107(6) -0.361(4)
O4G O -0.1360(2) 0.2895(3) -0.4159(2)
Co1G Co -0.12650(4) 0.38213(6) 0.18628(3)
loop_
_geom_bond_atom_site_label_1
_geom_bond_atom_site_label_2
_geom_bond_site_symmetry_1
_geom_bond_site_symmetry_2
Co1 O1 1_555 1_555
C1 C2 1_555 1_555
C2 C3 1_555 1_555
C3 C4 1_555 1_555
C4 C5 1_555 1_555
C5 C1 1_555 1_555
O1 C1 1_555 1_555
O2 Co1 1_555 1_555
O3 C3 1_555 1_555
O4 C4 1_555 1_555
O5 C5 1_555 1_555
O6 Co1 1_555 1_555
O7 Co1 1_555 1_555
O8 Co1 1_555 1_555
H1 O6 1_555 1_555
H2 O6 1_555 1_555
H3 O7 1_555 1_555
H4 O7 1_555 1_555
H5 O8 1_555 1_555
H6 O8 1_555 1_555
O4G Co1 1_555 1_555
Co1G O4 1_555 1_555
C2 O2 1_555 1_555

#END
