
#######################################################################
#
#                 Cambridge Crystallographic Data Centre
#                                CCDC 
#
#######################################################################
#
# If this CIF has been generated from an entry in the Cambridge 
# Structural Database, then it will include bibliographic, chemical, 
# crystal, experimental, refinement or atomic coordinate data resulting 
# from the CCDC's data processing and validation procedures.
#
#######################################################################

data_FILSAW
_symmetry_cell_setting           orthorhombic
_symmetry_space_group_name_H-M   'C 2 2 21'
_symmetry_Int_Tables_number      20
_space_group_name_Hall           'C 2n 2'
loop_
_symmetry_equiv_pos_site_id
_symmetry_equiv_pos_as_xyz
1 x,y,z
2 -x,-y,1/2+z
3 x,-y,-z
4 -x,y,1/2-z
5 1/2+x,1/2+y,z
6 1/2-x,1/2-y,1/2+z
7 1/2+x,1/2-y,-z
8 1/2-x,1/2+y,1/2-z
_cell_length_a                   8.1521(8)
_cell_length_b                   24.430(2)
_cell_length_c                   29.312(3)
_cell_angle_alpha                90
_cell_angle_beta                 90
_cell_angle_gamma                90
_cell_volume                     5837.65
loop_
_atom_site_label
_atom_site_type_symbol
_atom_site_fract_x
_atom_site_fract_y
_atom_site_fract_z
Yb1 Yb 0.0000 0.043852(8) -0.2500
Yb2 Yb -0.00739(2) 0.246828(6) -0.482375(5)
Yb3 Yb -0.5000 -0.024211(9) -0.2500
O1 O -0.1747(4) 0.23010(15) -0.42431(10)
O2 O -0.4200(4) 0.25972(13) -0.44688(10)
O3 O -0.1504(7) 0.1097(2) -0.28307(14)
O4 O -0.3687(8) 0.05656(15) -0.28056(14)
O5 O -0.1367(4) 0.17479(13) -0.04170(11)
O6 O -0.3733(4) 0.17659(13) -0.00383(10)
O7 O -0.1444(5) 0.06559(14) -0.18594(11)
O8 O -0.3262(5) -0.00023(14) -0.19505(11)
O9 O -0.3965(4) -0.19931(14) -0.42558(11)
O10 O -0.2287(4) -0.20213(12) -0.48364(10)
O11 O -0.3367(4) -0.05442(13) -0.30692(10)
O12 O -0.0848(4) -0.02279(14) -0.29512(11)
N1 N -0.8088(5) 0.1986(2) -0.32375(16)
H1 H -0.8564 0.1807 -0.3023
H2 H -0.8631 0.2224 -0.3393
N2 N -0.6814(8) 0.0107(3) -0.05309(18)
H3 H -0.7241 -0.0158 -0.0684
H4 H -0.7245 0.0207 -0.0276
N3 N 0.1649(8) -0.0432(3) -0.4543(2)
H5 H 0.1894 -0.0547 -0.4811
H6 H 0.2187 -0.0165 -0.4424
N4 N -0.3615(5) -0.11326(16) -0.22453(12)
C1 C -0.4030(6) 0.2070(2) -0.37932(14)
C2 C -0.3128(6) 0.17006(18) -0.35356(15)
H7 H -0.2021 0.1645 -0.3595
C3 C -0.3905(7) 0.1416(2) -0.31875(16)
C4 C -0.5531(6) 0.1512(2) -0.30872(16)
H8 H -0.6028 0.1319 -0.2851
C5 C -0.6442(6) 0.1893(2) -0.33329(16)
C6 C -0.5667(6) 0.2174(2) -0.36888(15)
H9 H -0.6249 0.2432 -0.3857
C7 C -0.3266(6) 0.23411(18) -0.41925(13)
C8 C -0.2956(10) 0.0994(2) -0.29198(17)
C9 C -0.3378(6) 0.10727(18) -0.05893(14)
C10 C -0.2612(6) 0.09158(17) -0.09921(14)
H10 H -0.1643 0.1084 -0.1084
C11 C -0.3313(6) 0.05034(18) -0.12558(14)
C12 C -0.4687(7) 0.02345(19) -0.11021(15)
H11 H -0.5123 -0.0048 -0.1277
C13 C -0.5448(8) 0.0372(2) -0.06913(18)
C14 C -0.4768(7) 0.08022(19) -0.04376(15)
H12 H -0.5255 0.0907 -0.0164
C15 C -0.2783(6) 0.15616(18) -0.03318(14)
C16 C -0.2632(7) 0.03793(17) -0.17167(16)
C17 C -0.1798(6) -0.13414(18) -0.42524(15)
C18 C -0.2298(6) -0.11370(17) -0.38321(13)
H13 H -0.3210 -0.1281 -0.3684
C19 C -0.1401(6) -0.07112(18) -0.36391(15)
C20 C -0.0078(8) -0.04884(18) -0.38655(14)
H14 H 0.0517 -0.0207 -0.3730
C21 C 0.0385(7) -0.0680(2) -0.42984(17)
C22 C -0.0503(6) -0.1113(2) -0.44857(17)
H15 H -0.0216 -0.1249 -0.4771
C23 C -0.2733(6) -0.18106(18) -0.44571(14)
C24 C -0.1913(6) -0.04765(17) -0.31817(15)
C25 C -0.2147(8) -0.1131(2) -0.2035(2)
H16 H -0.1729 -0.0800 -0.1931
C26 C -0.1230(9) -0.1604(2) -0.1966(2)
H17 H -0.0233 -0.1588 -0.1813
C27 C -0.1804(8) -0.2089(2) -0.2126(2)
H18 H -0.1194 -0.2409 -0.2093
C28 C -0.3305(8) -0.2096(2) -0.2335(2)
H19 H -0.3733 -0.2424 -0.2445
C29 C -0.4182(6) -0.16143(17) -0.23834(15)
N4C N -0.6385(5) -0.11326(16) -0.27547(12)
C25C C -0.7853(8) -0.1131(2) -0.2965(2)
H16C H -0.8271 -0.0800 -0.3069
C26C C -0.8770(9) -0.1604(2) -0.3034(2)
H17C H -0.9767 -0.1588 -0.3187
C27C C -0.8196(8) -0.2089(2) -0.2874(2)
H18C H -0.8806 -0.2409 -0.2907
C28C C -0.6695(8) -0.2096(2) -0.2665(2)
H19C H -0.6267 -0.2424 -0.2555
C29C C -0.5818(6) -0.16143(17) -0.26166(15)
Yb2B Yb -0.00739(2) -0.246828(6) -0.517625(5)
O1B O -0.1747(4) -0.23010(15) -0.57569(10)
O2B O -0.4200(4) -0.25972(13) -0.55312(10)
O3B O -0.1504(7) -0.1097(2) -0.71693(14)
O4B O -0.3687(8) -0.05656(15) -0.71944(14)
O9B O -0.3965(4) 0.19931(14) -0.57442(11)
O10B O -0.2287(4) 0.20213(12) -0.51636(10)
O11B O -0.3367(4) 0.05442(13) -0.69308(10)
O12B O -0.0848(4) 0.02279(14) -0.70488(11)
N1B N -0.8088(5) -0.1986(2) -0.67625(16)
H1B H -0.8564 -0.1807 -0.6977
H2B H -0.8631 -0.2224 -0.6607
N3B N 0.1649(8) 0.0432(3) -0.5457(2)
H5B H 0.1894 0.0547 -0.5189
H6B H 0.2187 0.0165 -0.5576
C1B C -0.4030(6) -0.2070(2) -0.62068(14)
C2B C -0.3128(6) -0.17006(18) -0.64644(15)
H7B H -0.2021 -0.1645 -0.6405
C3B C -0.3905(7) -0.1416(2) -0.68125(16)
C4B C -0.5531(6) -0.1512(2) -0.69128(16)
H8B H -0.6028 -0.1319 -0.7149
C5B C -0.6442(6) -0.1893(2) -0.66671(16)
C6B C -0.5667(6) -0.2174(2) -0.63112(15)
H9B H -0.6249 -0.2432 -0.6143
C7B C -0.3266(6) -0.23411(18) -0.58075(13)
C8B C -0.2956(10) -0.0994(2) -0.70802(17)
C17B C -0.1798(6) 0.13414(18) -0.57476(15)
C18B C -0.2298(6) 0.11370(17) -0.61679(13)
H13B H -0.3210 0.1281 -0.6316
C19B C -0.1401(6) 0.07112(18) -0.63609(15)
C20B C -0.0078(8) 0.04884(18) -0.61345(14)
H14B H 0.0517 0.0207 -0.6270
C21B C 0.0385(7) 0.0680(2) -0.57016(17)
C22B C -0.0503(6) 0.1113(2) -0.55143(17)
H15B H -0.0216 0.1249 -0.5229
C23B C -0.2733(6) 0.18106(18) -0.55429(14)
C24B C -0.1913(6) 0.04765(17) -0.68183(15)
O5C O 0.1367(4) 0.17479(13) -0.45830(11)
O6C O 0.3733(4) 0.17659(13) -0.49617(10)
O7C O 0.1444(5) 0.06559(14) -0.31406(11)
O8C O 0.3262(5) -0.00023(14) -0.30495(11)
N2C N 0.6814(8) 0.0107(3) -0.44691(18)
H3C H 0.7241 -0.0158 -0.4316
H4C H 0.7245 0.0207 -0.4724
C9C C 0.3378(6) 0.10727(18) -0.44107(14)
C10C C 0.2612(6) 0.09158(17) -0.40079(14)
H10C H 0.1643 0.1084 -0.3916
C11C C 0.3313(6) 0.05034(18) -0.37442(14)
C12C C 0.4687(7) 0.02345(19) -0.38979(15)
H11C H 0.5123 -0.0048 -0.3723
C13C C 0.5448(8) 0.0372(2) -0.43087(18)
C14C C 0.4768(7) 0.08022(19) -0.45624(15)
H12C H 0.5255 0.0907 -0.4836
C15C C 0.2783(6) 0.15616(18) -0.46682(14)
C16C C 0.2632(7) 0.03793(17) -0.32833(16)
Yb1A Yb 0.0000 -0.043852(8) -0.7500
Yb2C Yb 0.00739(2) 0.246828(6) -0.017625(5)
Yb2D Yb -0.50739(2) -0.253172(6) -0.482375(5)
Yb2E Yb -0.49261(2) 0.253172(6) 0.017625(5)
Yb2F Yb -0.50739(2) 0.253172(6) -0.517625(5)
Yb2F_2 Yb 0.49261(2) 0.253172(6) -0.517625(5)
Yb3_2 Yb 0.5000 -0.024211(9) -0.2500
Yb3A Yb -0.5000 0.024211(9) -0.7500
O2D O 0.0800(4) -0.24028(13) -0.44688(10)
O2F O 0.0800(4) 0.24028(13) -0.55312(10)
O3C O 0.1504(7) 0.1097(2) -0.21693(14)
O4C O -0.6313(8) 0.05656(15) -0.21944(14)
O5A O 0.1367(4) -0.17479(13) -0.54170(11)
O6E O -0.1267(4) 0.32341(13) -0.50383(10)
O6G O -0.1267(4) -0.32341(13) -0.49617(10)
O8C_2 O -0.6738(5) -0.00023(14) -0.30495(11)
O9D O 0.1035(4) 0.30069(14) -0.42558(11)
O9F O 0.1035(4) -0.30069(14) -0.57442(11)
O10D O 0.2713(4) 0.29787(12) -0.48364(10)
O10F O 0.2713(4) -0.29787(12) -0.51636(10)
O11C O -0.6633(4) -0.05442(13) -0.19308(10)
O12C O 0.0848(4) -0.02279(14) -0.20488(11)
loop_
_geom_bond_atom_site_label_1
_geom_bond_atom_site_label_2
_geom_bond_site_symmetry_1
_geom_bond_site_symmetry_2
Yb1 O3 1_555 1_555
Yb2 O1 1_555 1_555
Yb3 O4 1_555 1_555
O1 C7 1_555 1_555
O2 C7 1_555 1_555
O3 C8 1_555 1_555
O4 C8 1_555 1_555
O5 C15 1_555 1_555
O6 C15 1_555 1_555
O7 Yb1 1_555 1_555
O8 Yb3 1_555 1_555
O9 C23 1_555 1_555
O10 C23 1_555 1_555
O11 Yb3 1_555 1_555
O12 Yb1 1_555 1_555
N1 H1 1_555 1_555
H2 N1 1_555 1_555
N2 H3 1_555 1_555
H4 N2 1_555 1_555
N3 H5 1_555 1_555
H6 N3 1_555 1_555
N4 Yb3 1_555 1_555
C1 C2 1_555 1_555
C2 H7 1_555 1_555
C3 C2 1_555 1_555
C4 C3 1_555 1_555
H8 C4 1_555 1_555
C5 N1 1_555 1_555
C6 C1 1_555 1_555
H9 C6 1_555 1_555
C7 C1 1_555 1_555
C8 C3 1_555 1_555
C9 C10 1_555 1_555
C10 H10 1_555 1_555
C11 C10 1_555 1_555
C12 C11 1_555 1_555
H11 C12 1_555 1_555
C13 N2 1_555 1_555
C14 C9 1_555 1_555
H12 C14 1_555 1_555
C15 C9 1_555 1_555
C16 O7 1_555 1_555
C17 C18 1_555 1_555
C18 H13 1_555 1_555
C19 C18 1_555 1_555
C20 C19 1_555 1_555
H14 C20 1_555 1_555
C21 N3 1_555 1_555
C22 C17 1_555 1_555
H15 C22 1_555 1_555
C23 C17 1_555 1_555
C24 O11 1_555 1_555
C25 N4 1_555 1_555
H16 C25 1_555 1_555
C26 C25 1_555 1_555
H17 C26 1_555 1_555
C27 C26 1_555 1_555
H18 C27 1_555 1_555
C28 C27 1_555 1_555
H19 C28 1_555 1_555
C29 N4 1_555 1_555
N4C Yb3 1_555 1_555
C25C N4C 1_555 1_555
H16C C25C 1_555 1_555
C26C C25C 1_555 1_555
H17C C26C 1_555 1_555
C27C C26C 1_555 1_555
H18C C27C 1_555 1_555
C28C C27C 1_555 1_555
H19C C28C 1_555 1_555
C29C C29 1_555 1_555
Yb2B O10 1_555 1_555
O1B Yb2B 1_555 1_555
O2B C7B 1_555 1_555
O3B C8B 1_555 1_555
O4B C8B 1_555 1_555
O9B C23B 1_555 1_555
O10B Yb2 1_555 1_555
O11B C24B 1_555 1_555
O12B C24B 1_555 1_555
N1B H1B 1_555 1_555
H2B N1B 1_555 1_555
N3B H5B 1_555 1_555
H6B N3B 1_555 1_555
C1B C2B 1_555 1_555
C2B H7B 1_555 1_555
C3B C2B 1_555 1_555
C4B C3B 1_555 1_555
H8B C4B 1_555 1_555
C5B N1B 1_555 1_555
C6B C1B 1_555 1_555
H9B C6B 1_555 1_555
C7B O1B 1_555 1_555
C8B C3B 1_555 1_555
C17B C18B 1_555 1_555
C18B H13B 1_555 1_555
C19B C18B 1_555 1_555
C20B C19B 1_555 1_555
H14B C20B 1_555 1_555
C21B N3B 1_555 1_555
C22B C17B 1_555 1_555
H15B C22B 1_555 1_555
C23B O10B 1_555 1_555
C24B C19B 1_555 1_555
O5C Yb2 1_555 1_555
O6C C15C 1_555 1_555
O7C Yb1 1_555 1_555
O8C C16C 1_555 1_555
N2C H3C 1_555 1_555
H4C N2C 1_555 1_555
C9C C10C 1_555 1_555
C10C H10C 1_555 1_555
C11C C10C 1_555 1_555
C12C C11C 1_555 1_555
H11C C12C 1_555 1_555
C13C N2C 1_555 1_555
C14C C9C 1_555 1_555
H12C C14C 1_555 1_555
C15C O5C 1_555 1_555
C16C O7C 1_555 1_555
Yb1A O3B 1_555 1_555
Yb2C O5 1_555 1_555
Yb2D O9 1_555 1_555
Yb2E O6 1_555 1_555
Yb2F O2 1_555 1_555
Yb2F_2 O6C 1_555 1_555
Yb3_2 O8C 1_555 1_555
Yb3A O4B 1_555 1_555
O2D Yb2B 1_555 1_555
O2F Yb2 1_555 1_555
O3C Yb1 1_555 1_555
O4C Yb3 1_555 1_555
O5A Yb2B 1_555 1_555
O6E Yb2 1_555 1_555
O6G Yb2B 1_555 1_555
O8C_2 Yb3 1_555 1_555
O9D Yb2 1_555 1_555
O9F Yb2B 1_555 1_555
O10D Yb2 1_555 1_555
O10F Yb2B 1_555 1_555
O11C Yb3 1_555 1_555
O12C Yb1 1_555 1_555
O8 C16 1_555 1_555
O10 Yb2D 1_555 1_555
O12 C24 1_555 1_555
C4 C5 1_555 1_555
C5 C6 1_555 1_555
C11 C16 1_555 1_555
C12 C13 1_555 1_555
C13 C14 1_555 1_555
C19 C24 1_555 1_555
C20 C21 1_555 1_555
C21 C22 1_555 1_555
C28 C29 1_555 1_555
N4C C29C 1_555 1_555
C28C C29C 1_555 1_555
O2B Yb2D 1_555 1_555
O9B Yb2F 1_555 1_555
O10B Yb2F 1_555 1_555
O11B Yb3A 1_555 1_555
O12B Yb1A 1_555 1_555
C1B C7B 1_555 1_555
C4B C5B 1_555 1_555
C5B C6B 1_555 1_555
C17B C23B 1_555 1_555
C20B C21B 1_555 1_555
C21B C22B 1_555 1_555
C9C C15C 1_555 1_555
C11C C16C 1_555 1_555
C12C C13C 1_555 1_555
C13C C14C 1_555 1_555
Yb2F_2 O10D 1_555 1_555

#END
