
#######################################################################
#
#                 Cambridge Crystallographic Data Centre
#                                CCDC 
#
#######################################################################
#
# If this CIF has been generated from an entry in the Cambridge 
# Structural Database, then it will include bibliographic, chemical, 
# crystal, experimental, refinement or atomic coordinate data resulting 
# from the CCDC's data processing and validation procedures.
#
#######################################################################

data_FILSAV
_symmetry_cell_setting           triclinic
_symmetry_space_group_name_H-M   'P -1'
_symmetry_Int_Tables_number      2
_space_group_name_Hall           '-P 1'
loop_
_symmetry_equiv_pos_site_id
_symmetry_equiv_pos_as_xyz
1 x,y,z
2 -x,-y,-z
_cell_length_a                   7.832(5)
_cell_length_b                   9.495(5)
_cell_length_c                   11.309(5)
_cell_angle_alpha                100.795(5)
_cell_angle_beta                 104.288(5)
_cell_angle_gamma                108.334(5)
_cell_volume                     740.831
loop_
_atom_site_label
_atom_site_type_symbol
_atom_site_fract_x
_atom_site_fract_y
_atom_site_fract_z
Cu1 Cu 0.05995(4) 0.34313(4) 0.39934(3)
Cu2 Cu 0.5000 0.5000 0.5000
N1 N -0.1294(3) 0.3324(3) 0.2372(2)
N2 N -0.3926(3) 0.2104(3) 0.0426(2)
N3 N -0.2956(4) 0.0665(3) 0.1654(3)
N4 N 0.2847(3) 0.3953(3) 0.5580(2)
N5 N 0.2923(3) 0.3116(3) 0.6273(2)
N6 N 0.2982(4) 0.2358(4) 0.6941(3)
N7 N 0.2819(3) 0.4497(3) 0.3439(2)
N8 N 0.2859(3) 0.4061(3) 0.2369(3)
N9 N 0.2878(5) 0.3673(4) 0.1361(3)
N10 N 0.8752(3) 0.3001(3) 0.4894(2)
N11 N 0.7106(4) 0.2741(3) 0.4463(2)
N12 N 0.5498(4) 0.2503(3) 0.4107(3)
N13 N 0.1865(4) -0.0635(3) 0.2623(3)
O1 O 0.0483(3) 0.0920(3) 0.3385(2)
C1 C -0.2714(4) 0.2049(4) 0.1481(3)
C2 C -0.3684(5) 0.3483(5) 0.0251(3)
C3 C -0.2302(5) 0.4822(5) 0.1093(3)
C4 C -0.1140(5) 0.4696(4) 0.2146(3)
C5 C 0.1443(5) 0.0127(4) 0.3526(4)
C6 C 0.1311(6) -0.0481(6) 0.1353(4)
H1 H 0.0585 0.0168 0.1320
H2 H 0.0549 -0.1485 0.0758
H3 H 0.2429 -0.0023 0.1137
C7 C 0.3172(5) -0.1425(4) 0.2891(4)
H4 H 0.3392 -0.1496 0.3748
H5 H 0.4357 -0.0853 0.2797
H6 H 0.2629 -0.2448 0.2306
H7 H -0.377(3) -0.013(3) 0.1003(19)
H8 H -0.446(4) 0.355(4) -0.044(3)
H9 H -0.216(3) 0.050(3) 0.220(2)
H10 H -0.216(4) 0.569(3) 0.097(3)
H11 H -0.032(3) 0.550(3) 0.276(2)
H12 H 0.177(4) -0.004(4) 0.425(3)
Cu1A Cu 0.94005(4) 0.65687(4) 0.60066(3)
Cu1_2 Cu 1.05995(4) 0.34313(4) 0.39934(3)
Cu1A_2 Cu -0.05995(4) 0.65687(4) 0.60066(3)
N1A N 1.1294(3) 0.6676(3) 0.7628(2)
N2A N 1.3926(3) 0.7896(3) 0.9574(2)
N3A N 1.2956(4) 0.9335(3) 0.8346(3)
N4A N 0.7153(3) 0.6047(3) 0.4420(2)
N5A N 0.7077(3) 0.6884(3) 0.3727(2)
N6A N 0.7018(4) 0.7642(4) 0.3059(3)
N7A N 0.7181(3) 0.5503(3) 0.6561(2)
N8A N 0.7141(3) 0.5939(3) 0.7631(3)
N9A N 0.7122(5) 0.6327(4) 0.8639(3)
N10A N 0.1248(3) 0.6999(3) 0.5106(2)
N10_2 N -0.1248(3) 0.3001(3) 0.4894(2)
N10A_2 N 1.1248(3) 0.6999(3) 0.5106(2)
N11A N 0.2894(4) 0.7259(3) 0.5537(2)
N12A N 0.4502(4) 0.7497(3) 0.5893(3)
N13A N 0.8135(4) 1.0635(3) 0.7377(3)
O1A O 0.9517(3) 0.9080(3) 0.6615(2)
C1A C 1.2714(4) 0.7951(4) 0.8519(3)
C2A C 1.3684(5) 0.6517(5) 0.9749(3)
C3A C 1.2302(5) 0.5178(5) 0.8907(3)
C4A C 1.1140(5) 0.5304(4) 0.7854(3)
C5A C 0.8557(5) 0.9873(4) 0.6474(4)
C6A C 0.8689(6) 1.0481(6) 0.8647(4)
H1A H 0.9415 0.9832 0.8680
H2A H 0.9451 1.1485 0.9242
H3A H 0.7571 1.0023 0.8863
C7A C 0.6828(5) 1.1425(4) 0.7109(4)
H4A H 0.6608 1.1496 0.6252
H5A H 0.5643 1.0853 0.7203
H6A H 0.7371 1.2448 0.7694
H7A H 1.377(3) 1.013(3) 0.8997(19)
H8A H 1.446(4) 0.645(4) 1.044(3)
H9A H 1.216(3) 0.950(3) 0.780(2)
H10A H 1.216(4) 0.431(3) 0.903(3)
H11A H 1.032(3) 0.450(3) 0.724(2)
H12A H 0.823(4) 1.004(4) 0.575(3)
loop_
_geom_bond_atom_site_label_1
_geom_bond_atom_site_label_2
_geom_bond_site_symmetry_1
_geom_bond_site_symmetry_2
Cu1 N1 1_555 1_555
Cu2 N4 1_555 1_555
N1 C1 1_555 1_555
N2 C1 1_555 1_555
N3 C1 1_555 1_555
N4 Cu1 1_555 1_555
N5 N4 1_555 1_555
N6 N5 1_555 1_555
N7 Cu1 1_555 1_555
N8 N7 1_555 1_555
N9 N8 1_555 1_555
N10 N11 1_555 1_555
N11 N12 1_555 1_555
N12 Cu2 1_555 1_555
N13 C5 1_555 1_555
O1 Cu1 1_555 1_555
C2 N2 1_555 1_555
C3 C2 1_555 1_555
C4 N1 1_555 1_555
C5 O1 1_555 1_555
C6 N13 1_555 1_555
H1 C6 1_555 1_555
H2 C6 1_555 1_555
H3 C6 1_555 1_555
C7 N13 1_555 1_555
H4 C7 1_555 1_555
H5 C7 1_555 1_555
H6 C7 1_555 1_555
H7 N3 1_555 1_555
H8 C2 1_555 1_555
H9 N3 1_555 1_555
H10 C3 1_555 1_555
H11 C4 1_555 1_555
H12 C5 1_555 1_555
Cu1A N1A 1_555 1_555
Cu1_2 N10 1_555 1_555
Cu1A_2 N10A 1_555 1_555
N1A C1A 1_555 1_555
N2A C1A 1_555 1_555
N3A C1A 1_555 1_555
N4A Cu2 1_555 1_555
N5A N4A 1_555 1_555
N6A N5A 1_555 1_555
N7A Cu2 1_555 1_555
N8A N7A 1_555 1_555
N9A N8A 1_555 1_555
N10A N11A 1_555 1_555
N10_2 Cu1 1_555 1_555
N10A_2 Cu1A 1_555 1_555
N11A N12A 1_555 1_555
N12A Cu2 1_555 1_555
N13A C5A 1_555 1_555
O1A Cu1A 1_555 1_555
C2A N2A 1_555 1_555
C3A C2A 1_555 1_555
C4A N1A 1_555 1_555
C5A O1A 1_555 1_555
C6A N13A 1_555 1_555
H1A C6A 1_555 1_555
H2A C6A 1_555 1_555
H3A C6A 1_555 1_555
C7A N13A 1_555 1_555
H4A C7A 1_555 1_555
H5A C7A 1_555 1_555
H6A C7A 1_555 1_555
H7A N3A 1_555 1_555
H8A C2A 1_555 1_555
H9A N3A 1_555 1_555
H10A C3A 1_555 1_555
H11A C4A 1_555 1_555
H12A C5A 1_555 1_555
Cu2 N7 1_555 1_555
C3 C4 1_555 1_555
Cu1A N4A 1_555 1_555
Cu1A N7A 1_555 1_555
C3A C4A 1_555 1_555

#END
