
#######################################################################
#
#                 Cambridge Crystallographic Data Centre
#                                CCDC 
#
#######################################################################
#
# If this CIF has been generated from an entry in the Cambridge 
# Structural Database, then it will include bibliographic, chemical, 
# crystal, experimental, refinement or atomic coordinate data resulting 
# from the CCDC's data processing and validation procedures.
#
#######################################################################

data_FILSOK
_symmetry_cell_setting           orthorhombic
_symmetry_space_group_name_H-M   'C m c a'
_symmetry_Int_Tables_number      64
_space_group_name_Hall           '-C 2ac 2'
loop_
_symmetry_equiv_pos_site_id
_symmetry_equiv_pos_as_xyz
1 x,y,z
2 -x,1/2-y,1/2+z
3 -x,1/2+y,1/2-z
4 x,-y,-z
5 1/2+x,1/2+y,z
6 1/2-x,-y,1/2+z
7 1/2-x,y,1/2-z
8 1/2+x,1/2-y,-z
9 -x,-y,-z
10 x,1/2+y,1/2-z
11 x,1/2-y,1/2+z
12 -x,y,z
13 1/2-x,1/2-y,-z
14 1/2+x,y,1/2-z
15 1/2+x,-y,1/2+z
16 1/2-x,1/2+y,z
_cell_length_a                   20.271(4)
_cell_length_b                   8.7219(17)
_cell_length_c                   12.711(3)
_cell_angle_alpha                90
_cell_angle_beta                 90
_cell_angle_gamma                90
_cell_volume                     2247.33
loop_
_atom_site_label
_atom_site_type_symbol
_atom_site_fract_x
_atom_site_fract_y
_atom_site_fract_z
Ba1 Ba 0.2500 0.20196(2) 0.2500
Co1 Co 0.5000 0.0000 0.5000
O1 O 0.32723(9) 0.43331(19) 0.31838(15)
N1 N 0.5000 0.2244(3) 0.4287(2)
C1 C 0.44330(11) 0.2958(2) 0.40513(18)
H1 H 0.4038 0.2449 0.4179
O2 O 0.37391(10) 0.6594(2) 0.33523(19)
O3 O 0.30289(11) 0.0541(3) 0.42123(17)
C2 C 0.44095(11) 0.4420(2) 0.36268(17)
C3 C 0.5000 0.5176(4) 0.3432(3)
H2 H 0.5000 0.6174 0.3175
C4 C 0.37598(11) 0.5166(3) 0.33743(18)
C5 C 0.2762(2) 0.0000 0.5000
H3 H 0.2304 0.0000 0.5000
O4 O 0.42635(9) 0.07075(19) 0.60394(14)
H4 H 0.3877 0.0339 0.5931
H5 H 0.4108 0.1623 0.6021
O1K O 0.67277(9) 0.43331(19) 0.31838(15)
C1K C 0.55670(11) 0.2958(2) 0.40513(18)
H1K H 0.5962 0.2449 0.4179
O2K O 0.62609(10) 0.6594(2) 0.33523(19)
C2K C 0.55905(11) 0.4420(2) 0.36268(17)
C4K C 0.62402(11) 0.5166(3) 0.33743(18)
O3C O 0.30289(11) -0.0541(3) 0.57877(17)
Ba1C Ba 0.2500 -0.20196(2) 0.7500
O1C O 0.32723(9) -0.43331(19) 0.68162(15)
N1C N 0.5000 -0.2244(3) 0.5713(2)
C1C C 0.44330(11) -0.2958(2) 0.59487(18)
H1C H 0.4038 -0.2449 0.5821
O2C O 0.37391(10) -0.6594(2) 0.66477(19)
C2C C 0.44095(11) -0.4420(2) 0.63732(17)
C3C C 0.5000 -0.5176(4) 0.6568(3)
H2C H 0.5000 -0.6174 0.6825
C4C C 0.37598(11) -0.5166(3) 0.66257(18)
O4C O 0.42635(9) -0.07075(19) 0.39606(14)
H4C H 0.3877 -0.0339 0.4069
H5C H 0.4108 -0.1623 0.3979
O1H O 0.67277(9) -0.43331(19) 0.68162(15)
C1H C 0.55670(11) -0.2958(2) 0.59487(18)
H1H H 0.5962 -0.2449 0.5821
O2H O 0.62609(10) -0.6594(2) 0.66477(19)
C2H C 0.55905(11) -0.4420(2) 0.63732(17)
C4H C 0.62402(11) -0.5166(3) 0.66257(18)
O4H O 0.57365(9) -0.07075(19) 0.39606(14)
H4H H 0.6123 -0.0339 0.4069
H5H H 0.5892 -0.1623 0.3979
O4K O 0.57365(9) 0.07075(19) 0.60394(14)
H4K H 0.6123 0.0339 0.5931
H5K H 0.5892 0.1623 0.6021
O3F O 0.19711(11) 0.0541(3) 0.07877(17)
C5E C 0.2238(2) 0.0000 0.0000
H3E H 0.2696 0.0000 0.0000
O3E O 0.19711(11) -0.0541(3) -0.07877(17)
Ba1A Ba 0.7500 -0.70196(2) 0.7500
Ba1B Ba 0.7500 0.70196(2) 0.2500
Ba1C_2 Ba 0.2500 -0.20196(2) -0.2500
Ba1H Ba 0.7500 -0.20196(2) 0.7500
Ba1I Ba 0.2500 0.70196(2) 0.2500
Ba1J Ba 0.2500 -0.70196(2) 0.7500
Ba1K Ba 0.7500 0.20196(2) 0.2500
O1E O 0.17277(9) -0.43331(19) 0.81838(15)
O1F O 0.17277(9) 0.43331(19) 0.18162(15)
O1I O 0.32723(9) -0.06669(19) 0.18162(15)
O1J O 0.32723(9) 0.06669(19) 0.81838(15)
O1L O 0.17277(9) 0.06669(19) 0.68162(15)
O1O O 0.17277(9) -0.06669(19) 0.31838(15)
O2I O 0.37391(10) 0.1594(2) 0.16477(19)
O2J O 0.37391(10) -0.1594(2) 0.83523(19)
O2L O 0.12609(10) -0.1594(2) 0.66477(19)
O2O O 0.12609(10) 0.1594(2) 0.33523(19)
O3E_2 O 0.19711(11) -0.0541(3) 0.92123(17)
loop_
_geom_bond_atom_site_label_1
_geom_bond_atom_site_label_2
_geom_bond_site_symmetry_1
_geom_bond_site_symmetry_2
Ba1 O1 1_555 1_555
Co1 N1 1_555 1_555
O1 C4 1_555 1_555
N1 C1 1_555 1_555
C1 H1 1_555 1_555
O2 C4 1_555 1_555
O3 Ba1 1_555 1_555
C2 C1 1_555 1_555
C3 C2 1_555 1_555
H2 C3 1_555 1_555
C4 C2 1_555 1_555
C5 O3 1_555 1_555
H3 C5 1_555 1_555
O4 Co1 1_555 1_555
H4 O4 1_555 1_555
H5 O4 1_555 1_555
O1K C4K 1_555 1_555
C1K N1 1_555 1_555
H1K C1K 1_555 1_555
O2K C4K 1_555 1_555
C2K C3 1_555 1_555
C4K C2K 1_555 1_555
O3C C5 1_555 1_555
Ba1C O3C 1_555 1_555
O1C Ba1C 1_555 1_555
N1C Co1 1_555 1_555
C1C N1C 1_555 1_555
H1C C1C 1_555 1_555
O2C C4C 1_555 1_555
C2C C1C 1_555 1_555
C3C C2C 1_555 1_555
H2C C3C 1_555 1_555
C4C O1C 1_555 1_555
O4C Co1 1_555 1_555
H4C O4C 1_555 1_555
H5C O4C 1_555 1_555
O1H C4H 1_555 1_555
C1H N1C 1_555 1_555
H1H C1H 1_555 1_555
O2H C4H 1_555 1_555
C2H C3C 1_555 1_555
C4H C2H 1_555 1_555
O4H Co1 1_555 1_555
H4H O4H 1_555 1_555
H5H O4H 1_555 1_555
O4K Co1 1_555 1_555
H4K O4K 1_555 1_555
H5K O4K 1_555 1_555
O3F Ba1 1_555 1_555
C5E O3F 1_555 1_555
H3E C5E 1_555 1_555
O3E C5E 1_555 1_555
Ba1A O1H 1_555 1_555
Ba1B O1K 1_555 1_555
Ba1C_2 O3E 1_555 1_555
Ba1H O1H 1_555 1_555
Ba1I O1 1_555 1_555
Ba1J O1C 1_555 1_555
Ba1K O1K 1_555 1_555
O1E Ba1C 1_555 1_555
O1F Ba1 1_555 1_555
O1I Ba1 1_555 1_555
O1J Ba1C 1_555 1_555
O1L Ba1C 1_555 1_555
O1O Ba1 1_555 1_555
O2I Ba1 1_555 1_555
O2J Ba1C 1_555 1_555
O2L Ba1C 1_555 1_555
O2O Ba1 1_555 1_555
O3E_2 Ba1C 1_555 1_555
O2 Ba1I 1_555 1_555
C1K C2K 1_555 1_555
O2K Ba1B 1_555 1_555
O2C Ba1J 1_555 1_555
C2C C4C 1_555 1_555
C1H C2H 1_555 1_555
O2H Ba1A 1_555 1_555
Ba1I O1F 1_555 1_555
Ba1J O1E 1_555 1_555

#END
