
#######################################################################
#
#                 Cambridge Crystallographic Data Centre
#                                CCDC 
#
#######################################################################
#
# If this CIF has been generated from an entry in the Cambridge 
# Structural Database, then it will include bibliographic, chemical, 
# crystal, experimental, refinement or atomic coordinate data resulting 
# from the CCDC's data processing and validation procedures.
#
#######################################################################

data_FILSAV01
_symmetry_cell_setting           triclinic
_symmetry_space_group_name_H-M   'P -1'
_symmetry_Int_Tables_number      2
_space_group_name_Hall           '-P 1'
loop_
_symmetry_equiv_pos_site_id
_symmetry_equiv_pos_as_xyz
1 x,y,z
2 -x,-y,-z
_cell_length_a                   7.811(2)
_cell_length_b                   9.383(2)
_cell_length_c                   11.2460(13)
_cell_angle_alpha                100.754(16)
_cell_angle_beta                 104.095(13)
_cell_angle_gamma                108.66(3)
_cell_volume                     725.333
loop_
_atom_site_label
_atom_site_type_symbol
_atom_site_fract_x
_atom_site_fract_y
_atom_site_fract_z
Cu1 Cu 0.44012(5) 0.15573(4) -0.89961(3)
Cu2 Cu 0.0000 0.0000 -1.0000
N1 N 0.6280(4) 0.1649(3) -0.7358(2)
C1 C 0.7705(4) 0.2937(4) -0.6481(3)
N2 N 0.8915(4) 0.2868(3) -0.5415(2)
C2 C 0.8669(5) 0.1464(4) -0.5242(3)
H1 H 0.9508 0.1406 -0.4499
C3 C 0.7255(5) 0.0075(4) -0.6085(3)
H2 H 0.7094 -0.0917 -0.5939
C4 C 0.6097(5) 0.0236(4) -0.7151(3)
H3 H 0.5128 -0.0684 -0.7768
N3 N 0.7955(4) 0.4354(3) -0.6643(3)
H4 H 0.7195 0.4447 -0.7317
H5 H 0.8879 0.5194 -0.6075
N4 N 0.2166(4) 0.1029(3) -1.0604(2)
N5 N 0.2108(4) 0.1904(3) -1.1282(2)
N6 N 0.2037(5) 0.2682(4) -1.1949(3)
N7 N 0.2172(4) 0.0474(3) -0.8425(2)
N8 N 0.2122(4) 0.0971(3) -0.7361(3)
N9 N 0.2099(5) 0.1413(5) -0.6349(3)
N10 N -0.3720(4) 0.2020(4) -0.9904(2)
N11 N -0.2058(4) 0.2289(3) -0.9444(2)
N12 N -0.0453(4) 0.2534(3) -0.9079(3)
O1 O 0.4501(4) 0.4074(3) -0.8383(3)
C5 C 0.3527(5) 0.4884(4) -0.8528(3)
H6 H 0.3023 0.4934 -0.9371
N13 N 0.3132(4) 0.5686(3) -0.7604(3)
C6 C 0.3719(7) 0.5548(6) -0.6307(4)
H7 H 0.4625 0.5023 -0.6239
H8 H 0.2594 0.4930 -0.6121
H9 H 0.4331 0.6597 -0.5692
C7 C 0.1777(5) 0.6443(4) -0.7872(4)
H10 H 0.1490 0.6469 -0.8764
H11 H 0.2333 0.7518 -0.7302
H12 H 0.0597 0.5851 -0.7730
Cu1A Cu -0.44012(5) -0.15573(4) -1.10039(3)
Cu1_2 Cu -0.55988(5) 0.15573(4) -0.89961(3)
Cu1A_2 Cu 0.55988(5) -0.15573(4) -1.10039(3)
N1A N -0.6280(4) -0.1649(3) -1.2642(2)
C1A C -0.7705(4) -0.2937(4) -1.3519(3)
N2A N -0.8915(4) -0.2868(3) -1.4585(2)
C2A C -0.8669(5) -0.1464(4) -1.4758(3)
H1A H -0.9508 -0.1406 -1.5501
C3A C -0.7255(5) -0.0075(4) -1.3915(3)
H2A H -0.7094 0.0917 -1.4061
C4A C -0.6097(5) -0.0236(4) -1.2849(3)
H3A H -0.5128 0.0684 -1.2232
N3A N -0.7955(4) -0.4354(3) -1.3357(3)
H4A H -0.7195 -0.4447 -1.2683
H5A H -0.8879 -0.5194 -1.3925
N4A N -0.2166(4) -0.1029(3) -0.9396(2)
N5A N -0.2108(4) -0.1904(3) -0.8718(2)
N6A N -0.2037(5) -0.2682(4) -0.8051(3)
N7A N -0.2172(4) -0.0474(3) -1.1575(2)
N8A N -0.2122(4) -0.0971(3) -1.2639(3)
N9A N -0.2099(5) -0.1413(5) -1.3651(3)
N10A N 0.3720(4) -0.2020(4) -1.0096(2)
N10_2 N 0.6280(4) 0.2020(4) -0.9904(2)
N10A_2 N -0.6280(4) -0.2020(4) -1.0096(2)
N11A N 0.2058(4) -0.2289(3) -1.0556(2)
N12A N 0.0453(4) -0.2534(3) -1.0921(3)
O1A O -0.4501(4) -0.4074(3) -1.1617(3)
C5A C -0.3527(5) -0.4884(4) -1.1472(3)
H6A H -0.3023 -0.4934 -1.0629
N13A N -0.3132(4) -0.5686(3) -1.2396(3)
C6A C -0.3719(7) -0.5548(6) -1.3693(4)
H7A H -0.4625 -0.5023 -1.3761
H8A H -0.2594 -0.4930 -1.3879
H9A H -0.4331 -0.6597 -1.4308
C7A C -0.1777(5) -0.6443(4) -1.2128(4)
H10A H -0.1490 -0.6469 -1.1236
H11A H -0.2333 -0.7518 -1.2698
H12A H -0.0597 -0.5851 -1.2270
loop_
_geom_bond_atom_site_label_1
_geom_bond_atom_site_label_2
_geom_bond_site_symmetry_1
_geom_bond_site_symmetry_2
Cu1 N1 1_555 1_555
Cu2 N4 1_555 1_555
N1 C1 1_555 1_555
C1 N2 1_555 1_555
N2 C2 1_555 1_555
C2 H1 1_555 1_555
C3 C2 1_555 1_555
H2 C3 1_555 1_555
C4 N1 1_555 1_555
H3 C4 1_555 1_555
N3 C1 1_555 1_555
H4 N3 1_555 1_555
H5 N3 1_555 1_555
N4 Cu1 1_555 1_555
N5 N4 1_555 1_555
N6 N5 1_555 1_555
N7 Cu1 1_555 1_555
N8 N7 1_555 1_555
N9 N8 1_555 1_555
N10 N11 1_555 1_555
N11 N12 1_555 1_555
N12 Cu2 1_555 1_555
O1 Cu1 1_555 1_555
C5 O1 1_555 1_555
H6 C5 1_555 1_555
N13 C5 1_555 1_555
C6 N13 1_555 1_555
H7 C6 1_555 1_555
H8 C6 1_555 1_555
H9 C6 1_555 1_555
C7 N13 1_555 1_555
H10 C7 1_555 1_555
H11 C7 1_555 1_555
H12 C7 1_555 1_555
Cu1A N1A 1_555 1_555
Cu1_2 N10 1_555 1_555
Cu1A_2 N10A 1_555 1_555
N1A C1A 1_555 1_555
C1A N2A 1_555 1_555
N2A C2A 1_555 1_555
C2A H1A 1_555 1_555
C3A C2A 1_555 1_555
H2A C3A 1_555 1_555
C4A N1A 1_555 1_555
H3A C4A 1_555 1_555
N3A C1A 1_555 1_555
H4A N3A 1_555 1_555
H5A N3A 1_555 1_555
N4A Cu2 1_555 1_555
N5A N4A 1_555 1_555
N6A N5A 1_555 1_555
N7A Cu2 1_555 1_555
N8A N7A 1_555 1_555
N9A N8A 1_555 1_555
N10A N11A 1_555 1_555
N10_2 Cu1 1_555 1_555
N10A_2 Cu1A 1_555 1_555
N11A N12A 1_555 1_555
N12A Cu2 1_555 1_555
O1A Cu1A 1_555 1_555
C5A O1A 1_555 1_555
H6A C5A 1_555 1_555
N13A C5A 1_555 1_555
C6A N13A 1_555 1_555
H7A C6A 1_555 1_555
H8A C6A 1_555 1_555
H9A C6A 1_555 1_555
C7A N13A 1_555 1_555
H10A C7A 1_555 1_555
H11A C7A 1_555 1_555
H12A C7A 1_555 1_555
Cu2 N7 1_555 1_555
C3 C4 1_555 1_555
Cu1A N4A 1_555 1_555
Cu1A N7A 1_555 1_555
C3A C4A 1_555 1_555

#END
