
#######################################################################
#
#                 Cambridge Crystallographic Data Centre
#                                CCDC 
#
#######################################################################
#
# If this CIF has been generated from an entry in the Cambridge 
# Structural Database, then it will include bibliographic, chemical, 
# crystal, experimental, refinement or atomic coordinate data resulting 
# from the CCDC's data processing and validation procedures.
#
#######################################################################

data_FILTAW
_symmetry_cell_setting           monoclinic
_symmetry_space_group_name_H-M   'P 21/c'
_symmetry_Int_Tables_number      14
_space_group_name_Hall           '-P 2ybc'
loop_
_symmetry_equiv_pos_site_id
_symmetry_equiv_pos_as_xyz
1 x,y,z
2 -x,1/2+y,1/2-z
3 -x,-y,-z
4 x,1/2-y,1/2+z
_cell_length_a                   5.4015(11)
_cell_length_b                   20.467(4)
_cell_length_c                   17.775(4)
_cell_angle_alpha                90
_cell_angle_beta                 97.00(3)
_cell_angle_gamma                90
_cell_volume                     1950.42
loop_
_atom_site_label
_atom_site_type_symbol
_atom_site_fract_x
_atom_site_fract_y
_atom_site_fract_z
Hg1 Hg 0.11979(3) 0.349719(8) 0.068754(9)
N1 N 0.0957(5) 0.26108(17) 0.01185(18)
N2 N 0.1818(5) 0.43397(16) 0.13327(18)
C1 C 0.3721(7) 0.4424(2) 0.1920(2)
O1 O -0.3858(4) 0.35667(17) 0.04493(17)
C2 C 0.0470(7) 0.1537(3) -0.0099(2)
O2 O 0.3592(6) 0.25445(19) 0.1822(2)
C3 C -0.0327(7) 0.2058(2) 0.0304(2)
O3 O -0.2170(5) 0.42505(17) -0.02446(18)
O4 O 0.2021(6) 0.22990(19) 0.2839(2)
C4 C 0.2441(7) 0.2417(2) -0.0380(2)
N3 N 0.1947(7) 0.2614(2) 0.2236(2)
N4 N 0.4768(7) 0.52862(19) 0.2844(2)
N5 N 0.2202(6) 0.17868(19) -0.05366(19)
N6 N -0.0223(7) 0.0917(2) -0.0076(2)
O5 O -0.6138(6) 0.40744(18) -0.04361(19)
N7 N 0.1261(6) 0.52973(17) 0.1867(2)
C5 C 0.0452(8) 0.4872(2) 0.1325(3)
N8 N -0.4054(6) 0.3972(2) -0.0087(2)
O6 O 0.0213(6) 0.30016(18) 0.20565(19)
C6 C -0.2077(8) 0.1945(3) 0.0796(3)
C7 C 0.5737(8) 0.4044(3) 0.2206(3)
H1 H 0.611(6) 0.3666(19) 0.201(2)
C8 C 0.3376(7) 0.5021(2) 0.2256(2)
C9 C 0.7227(8) 0.4299(3) 0.2818(3)
H2 H 0.863(7) 0.409(2) 0.303(2)
C10 C 0.6699(9) 0.4902(3) 0.3115(3)
H3 H 0.799(7) 0.5083(19) 0.353(2)
C11 C -0.2861(10) 0.1305(3) 0.0827(3)
H4 H -0.395(7) 0.121(2) 0.116(2)
C12 C 0.0260(14) 0.5943(3) 0.1995(4)
H5 H 0.121(10) 0.621(3) 0.179(4)
H6 H 0.023(9) 0.602(3) 0.247(3)
H7 H -0.124(8) 0.606(2) 0.170(3)
C13 C -0.1914(10) 0.0821(3) 0.0404(3)
H8 H -0.232(7) 0.037(2) 0.049(2)
C14 C 0.3556(10) 0.1404(3) -0.1058(3)
H9 H 0.258(8) 0.143(2) -0.158(3)
H10 H 0.373(9) 0.093(3) -0.086(3)
H11 H 0.486(9) 0.161(3) -0.111(3)
H12 H -0.082(6) 0.4937(16) 0.1030(18)
H13 H 0.352(6) 0.2695(17) -0.0589(19)
H14 H -0.254(7) 0.226(2) 0.107(2)
Hg1_2 Hg -0.88021(3) 0.349719(8) 0.068754(9)
O1_2 O 0.6142(4) 0.35667(17) 0.04493(17)
O5_2 O 0.3862(6) 0.40744(18) -0.04361(19)
O7 O -0.2755(9) 0.2424(3) 0.3490(3)
H15 H -0.417(7) 0.232(3) 0.319(3)
H16 H -0.139(9) 0.243(4) 0.325(4)
loop_
_geom_bond_atom_site_label_1
_geom_bond_atom_site_label_2
_geom_bond_site_symmetry_1
_geom_bond_site_symmetry_2
Hg1 N1 1_555 1_555
N1 C3 1_555 1_555
N2 Hg1 1_555 1_555
C1 N2 1_555 1_555
O1 Hg1 1_555 1_555
C2 C3 1_555 1_555
O2 Hg1 1_555 1_555
C3 C6 1_555 1_555
O3 Hg1 1_555 1_555
O4 N3 1_555 1_555
C4 N1 1_555 1_555
N3 O2 1_555 1_555
N4 C8 1_555 1_555
N5 C2 1_555 1_555
N6 C2 1_555 1_555
O5 N8 1_555 1_555
N7 C5 1_555 1_555
C5 N2 1_555 1_555
N8 O1 1_555 1_555
O6 Hg1 1_555 1_555
C6 C11 1_555 1_555
C7 C1 1_555 1_555
H1 C7 1_555 1_555
C8 C1 1_555 1_555
C9 C7 1_555 1_555
H2 C9 1_555 1_555
C10 N4 1_555 1_555
H3 C10 1_555 1_555
C11 H4 1_555 1_555
C12 N7 1_555 1_555
H5 C12 1_555 1_555
H6 C12 1_555 1_555
H7 C12 1_555 1_555
C13 N6 1_555 1_555
H8 C13 1_555 1_555
O7 H15 1_555 1_555
C14 N5 1_555 1_555
H9 C14 1_555 1_555
H10 C14 1_555 1_555
H11 C14 1_555 1_555
H12 C5 1_555 1_555
H13 C4 1_555 1_555
H14 C6 1_555 1_555
H16 O7 1_555 1_555
Hg1_2 O1 1_555 1_555
O1_2 Hg1 1_555 1_555
O5_2 Hg1 1_555 1_555
O3 N8 1_555 1_555
C4 N5 1_555 1_555
N3 O6 1_555 1_555
O5 Hg1_2 1_555 1_555
N7 C8 1_555 1_555
C9 C10 1_555 1_555
C11 C13 1_555 1_555

#END
