
#######################################################################
#
#                 Cambridge Crystallographic Data Centre
#                                CCDC 
#
#######################################################################
#
# If this CIF has been generated from an entry in the Cambridge 
# Structural Database, then it will include bibliographic, chemical, 
# crystal, experimental, refinement or atomic coordinate data resulting 
# from the CCDC's data processing and validation procedures.
#
#######################################################################

data_FIMDAG
_symmetry_cell_setting           monoclinic
_symmetry_space_group_name_H-M   'P 21/c'
_symmetry_Int_Tables_number      14
_space_group_name_Hall           '-P 2ybc'
loop_
_symmetry_equiv_pos_site_id
_symmetry_equiv_pos_as_xyz
1 x,y,z
2 -x,1/2+y,1/2-z
3 -x,-y,-z
4 x,1/2-y,1/2+z
_cell_length_a                   11.669(2)
_cell_length_b                   8.808(2)
_cell_length_c                   7.951(2)
_cell_angle_alpha                90
_cell_angle_beta                 102.52(2)
_cell_angle_gamma                90
_cell_volume                     797.775
loop_
_atom_site_label
_atom_site_type_symbol
_atom_site_fract_x
_atom_site_fract_y
_atom_site_fract_z
Cu1 Cu 0.0000 0.0000 0.0000
S1 S 0.3999(2) -0.1013(3) 0.1505(4)
N1 N 0.1587(5) -0.0702(7) 0.0886(7)
N2 N -0.2360(5) -0.2492(6) 0.5214(8)
N3 N -0.1478(4) -0.0731(6) 0.3609(6)
N4 N -0.0474(5) -0.0587(6) 0.3024(7)
N5 N 0.0511(4) 0.2175(6) 0.0619(6)
C1 C 0.2590(7) -0.0828(7) 0.1145(9)
C2 C -0.3286(6) -0.0156(9) 0.4123(10)
C3 C -0.3231(6) -0.1515(9) 0.5030(10)
C4 C -0.1482(5) -0.2083(7) 0.4455(8)
C5 C -0.2382(6) 0.0235(8) 0.3409(9)
C6 C 0.0072(6) -0.1886(8) 0.3533(8)
H1 H -0.392(6) 0.043(9) 0.407(9)
H2 H -0.390(6) -0.182(8) 0.551(9)
H3 H -0.234(6) 0.123(9) 0.297(10)
H4 H 0.085(6) -0.202(8) 0.349(10)
N1B N -0.1587(5) 0.0702(7) -0.0886(7)
N4B N 0.0474(5) 0.0587(6) -0.3024(7)
N5B N -0.0511(4) -0.2175(6) -0.0619(6)
C4A C 0.1482(5) 0.2917(7) 0.0545(8)
C6A C -0.0072(6) 0.3114(8) 0.1467(8)
N5A N -0.0511(4) -0.2825(6) 0.4381(6)
C1B C -0.2590(7) 0.0828(7) -0.1145(9)
N3B N 0.1478(4) 0.0731(6) -0.3609(6)
C6B C -0.0072(6) 0.1886(8) -0.3533(8)
C4C C -0.1482(5) -0.2917(7) -0.0545(8)
C6C C 0.0072(6) -0.3114(8) -0.1467(8)
N2A N 0.2360(5) 0.2508(6) -0.0214(8)
N3A N 0.1478(4) 0.4269(6) 0.1391(6)
N4A N 0.0474(5) 0.4413(6) 0.1976(7)
H4A H -0.085(6) 0.298(8) 0.151(10)
Cu1A Cu 0.0000 -0.5000 0.5000
S1B S -0.3999(2) 0.1013(3) -0.1505(4)
C4B C 0.1482(5) 0.2083(7) -0.4455(8)
C5B C 0.2382(6) -0.0235(8) -0.3409(9)
N5C N 0.0511(4) 0.2825(6) -0.4381(6)
H4B H -0.085(6) 0.202(8) -0.349(10)
N2C N -0.2360(5) -0.2508(6) 0.0214(8)
N3C N -0.1478(4) -0.4269(6) -0.1391(6)
N4C N -0.0474(5) -0.4413(6) -0.1976(7)
H4C H 0.085(6) -0.298(8) -0.151(10)
C3A C 0.3231(6) 0.3485(9) -0.0030(10)
C5A C 0.2382(6) 0.5235(8) 0.1591(9)
Cu1A_2 Cu 0.0000 0.5000 0.5000
N1A N -0.1587(5) -0.5702(7) 0.4114(7)
N1C N 0.1587(5) -0.4298(7) 0.5886(7)
N4A_2 N 0.0474(5) -0.5587(6) 0.1976(7)
N4C_2 N -0.0474(5) -0.4413(6) 0.8024(7)
N5C_2 N 0.0511(4) -0.7175(6) 0.5619(6)
N2B N 0.2360(5) 0.2492(6) -0.5214(8)
C2B C 0.3286(6) 0.0156(9) -0.4123(10)
H3B H 0.234(6) -0.123(9) -0.297(10)
Cu1A_3 Cu 0.0000 0.5000 -0.5000
C3C C -0.3231(6) -0.3485(9) 0.0030(10)
C5C C -0.2382(6) -0.5235(8) -0.1591(9)
Cu1A_4 Cu 0.0000 -0.5000 -0.5000
C2A C 0.3286(6) 0.4844(9) 0.0877(10)
H2A H 0.390(6) 0.318(8) -0.051(9)
H3A H 0.234(6) 0.623(9) 0.203(10)
C1A C -0.2590(7) -0.5828(7) 0.3855(9)
C1C C 0.2590(7) -0.4172(7) 0.6145(9)
C3B C 0.3231(6) 0.1515(9) -0.5030(10)
H1B H 0.392(6) -0.043(9) -0.407(9)
C2C C -0.3286(6) -0.4844(9) -0.0877(10)
H2C H -0.390(6) -0.318(8) 0.051(9)
H3C H -0.234(6) -0.623(9) -0.203(10)
H1A H 0.392(6) 0.543(9) 0.093(9)
S1A S -0.3999(2) -0.6013(3) 0.3495(4)
S1C S 0.3999(2) -0.3987(3) 0.6505(4)
H2B H 0.390(6) 0.182(8) -0.551(9)
H1C H -0.392(6) -0.543(9) -0.093(9)
loop_
_geom_bond_atom_site_label_1
_geom_bond_atom_site_label_2
_geom_bond_site_symmetry_1
_geom_bond_site_symmetry_2
Cu1 N1 1_555 1_555
S1 C1 1_555 1_555
N1 C1 1_555 1_555
N2 C3 1_555 1_555
N3 N4 1_555 1_555
N4 Cu1 1_555 1_555
N5 Cu1 1_555 1_555
C2 C3 1_555 1_555
C3 H2 1_555 1_555
C4 N2 1_555 1_555
C5 N3 1_555 1_555
C6 N4 1_555 1_555
H1 C2 1_555 1_555
H3 C5 1_555 1_555
H4 C6 1_555 1_555
N1B Cu1 1_555 1_555
N4B Cu1 1_555 1_555
N5B Cu1 1_555 1_555
C4A N5 1_555 1_555
C6A N5 1_555 1_555
N5A C4 1_555 1_555
C1B N1B 1_555 1_555
N3B N4B 1_555 1_555
C6B N4B 1_555 1_555
C4C N5B 1_555 1_555
C6C N5B 1_555 1_555
N2A C4A 1_555 1_555
N3A C4A 1_555 1_555
N4A C6A 1_555 1_555
H4A C6A 1_555 1_555
Cu1A N5A 1_555 1_555
S1B C1B 1_555 1_555
C4B N3B 1_555 1_555
C5B N3B 1_555 1_555
N5C C6B 1_555 1_555
H4B C6B 1_555 1_555
N2C C4C 1_555 1_555
N3C C4C 1_555 1_555
N4C C6C 1_555 1_555
H4C C6C 1_555 1_555
C3A N2A 1_555 1_555
C5A N3A 1_555 1_555
Cu1A_2 N4A 1_555 1_555
N1A Cu1A 1_555 1_555
N1C Cu1A 1_555 1_555
N4A_2 Cu1A 1_555 1_555
N4C_2 Cu1A 1_555 1_555
N5C_2 Cu1A 1_555 1_555
N2B C4B 1_555 1_555
C2B C5B 1_555 1_555
H3B C5B 1_555 1_555
Cu1A_3 N5C 1_555 1_555
C3C N2C 1_555 1_555
C5C N3C 1_555 1_555
Cu1A_4 N4C 1_555 1_555
C2A C3A 1_555 1_555
H2A C3A 1_555 1_555
H3A C5A 1_555 1_555
C1A N1A 1_555 1_555
C1C N1C 1_555 1_555
C3B N2B 1_555 1_555
H1B C2B 1_555 1_555
C2C C3C 1_555 1_555
H2C C3C 1_555 1_555
H3C C5C 1_555 1_555
H1A C2A 1_555 1_555
S1A C1A 1_555 1_555
S1C C1C 1_555 1_555
H2B C3B 1_555 1_555
H1C C2C 1_555 1_555
N3 C4 1_555 1_555
C2 C5 1_555 1_555
C6 N5A 1_555 1_555
N3A N4A 1_555 1_555
C4B N5C 1_555 1_555
N3C N4C 1_555 1_555
C5A C2A 1_555 1_555
C2B C3B 1_555 1_555
C5C C2C 1_555 1_555

#END
