
#######################################################################
#
#                 Cambridge Crystallographic Data Centre
#                                CCDC 
#
#######################################################################
#
# If this CIF has been generated from an entry in the Cambridge 
# Structural Database, then it will include bibliographic, chemical, 
# crystal, experimental, refinement or atomic coordinate data resulting 
# from the CCDC's data processing and validation procedures.
#
#######################################################################

data_FIMDEK
_symmetry_cell_setting           monoclinic
_symmetry_space_group_name_H-M   'P 21/c'
_symmetry_Int_Tables_number      14
_space_group_name_Hall           '-P 2ybc'
loop_
_symmetry_equiv_pos_site_id
_symmetry_equiv_pos_as_xyz
1 x,y,z
2 -x,1/2+y,1/2-z
3 -x,-y,-z
4 x,1/2-y,1/2+z
_cell_length_a                   9.546(1)
_cell_length_b                   8.958(1)
_cell_length_c                   8.082(1)
_cell_angle_alpha                90
_cell_angle_beta                 107.32(1)
_cell_angle_gamma                90
_cell_volume                     659.779
loop_
_atom_site_label
_atom_site_type_symbol
_atom_site_fract_x
_atom_site_fract_y
_atom_site_fract_z
Cu1 Cu 0.0000 0.0000 0.0000
Cl1 Cl 0.2361(1) 0.0820(1) 0.0424(2)
N1 N -0.2882(4) 0.2585(4) -0.2114(6)
N2 N -0.1801(4) 0.4239(4) 0.0218(5)
N3 N -0.0560(4) 0.4344(4) 0.1615(5)
N4 N -0.0627(4) 0.2128(4) 0.0213(5)
C1 C -0.3997(6) 0.4937(5) -0.1728(8)
C2 C -0.3926(5) 0.3597(6) -0.2621(8)
C3 C -0.1821(5) 0.2913(4) -0.0636(6)
C4 C -0.2886(5) 0.5265(5) -0.0279(8)
C5 C 0.0083(5) 0.3037(5) 0.1533(6)
H1 H -0.482(7) 0.555(8) -0.219(9)
H2 H -0.463(6) 0.340(6) -0.363(8)
H3 H -0.286(5) 0.613(6) 0.050(7)
H4 H 0.111(5) 0.277(5) 0.240(6)
Cl1B Cl -0.2361(1) -0.0820(1) -0.0424(2)
N3C N -0.0560(4) 0.0656(4) -0.3385(5)
N4B N 0.0627(4) -0.2128(4) -0.0213(5)
N3A N 0.0560(4) -0.0656(4) 0.3385(5)
Cu1C Cu 0.0000 0.5000 0.5000
Cl1A Cl -0.2361(1) 0.5820(1) 0.4576(2)
Cl1C Cl 0.2361(1) 0.4180(1) 0.5424(2)
N3B N 0.0560(4) 0.5656(4) 0.8385(5)
N4A N 0.0627(4) 0.7128(4) 0.4787(5)
N4C N -0.0627(4) 0.2872(4) 0.5213(5)
N2B N 0.1801(4) 0.5761(4) 0.9782(5)
C5B C -0.0083(5) 0.6963(5) 0.8467(6)
C3A C 0.1821(5) 0.7913(4) 0.5636(6)
C5A C -0.0083(5) 0.8037(5) 0.3467(6)
C3C C -0.1821(5) 0.2087(4) 0.4364(6)
C5C C 0.0083(5) 0.1963(5) 0.6533(6)
C3B C 0.1821(5) 0.7087(4) 1.0636(6)
C4B C 0.2886(5) 0.4735(5) 1.0279(8)
N4B_2 N 0.0627(4) 0.7872(4) 0.9787(5)
H4B H -0.111(5) 0.723(5) 0.760(6)
N1A N 0.2882(4) 0.7585(4) 0.7114(6)
N2A N 0.1801(4) 0.9239(4) 0.4782(5)
N3A_2 N 0.0560(4) 0.9344(4) 0.3385(5)
H4A H -0.111(5) 0.777(5) 0.260(6)
N1C N -0.2882(4) 0.2415(4) 0.2886(6)
N2C N -0.1801(4) 0.0761(4) 0.5218(5)
N3C_2 N -0.0560(4) 0.0656(4) 0.6615(5)
H4C H 0.111(5) 0.223(5) 0.740(6)
N1B N 0.2882(4) 0.7415(4) 1.2114(6)
C1B C 0.3997(6) 0.5063(5) 1.1728(8)
H3B H 0.286(5) 0.387(6) 0.950(7)
Cu1_2 Cu 0.0000 1.0000 1.0000
C2A C 0.3926(5) 0.8597(6) 0.7621(8)
C4A C 0.2886(5) 1.0265(5) 0.5279(8)
Cu1_3 Cu 0.0000 1.0000 0.0000
C2C C -0.3926(5) 0.1403(6) 0.2379(8)
C4C C -0.2886(5) -0.0265(5) 0.4721(8)
Cu1_4 Cu 0.0000 0.0000 1.0000
C2B C 0.3926(5) 0.6403(6) 1.2621(8)
H1B H 0.482(7) 0.445(8) 1.219(9)
C1A C 0.3997(6) 0.9937(5) 0.6728(8)
H2A H 0.463(6) 0.840(6) 0.863(8)
H3A H 0.286(5) 1.113(6) 0.450(7)
C1C C -0.3997(6) 0.0063(5) 0.3272(8)
H2C H -0.463(6) 0.160(6) 0.137(8)
H3C H -0.286(5) -0.113(6) 0.550(7)
H2B H 0.463(6) 0.660(6) 1.363(8)
H1A H 0.482(7) 1.055(8) 0.719(9)
H1C H -0.482(7) -0.055(8) 0.281(9)
loop_
_geom_bond_atom_site_label_1
_geom_bond_atom_site_label_2
_geom_bond_site_symmetry_1
_geom_bond_site_symmetry_2
Cu1 Cl1 1_555 1_555
N1 C2 1_555 1_555
N2 N3 1_555 1_555
N3 C5 1_555 1_555
N4 Cu1 1_555 1_555
C1 C2 1_555 1_555
C2 H2 1_555 1_555
C3 N1 1_555 1_555
C4 N2 1_555 1_555
C5 N4 1_555 1_555
H1 C1 1_555 1_555
H3 C4 1_555 1_555
H4 C5 1_555 1_555
Cl1B Cu1 1_555 1_555
N3C Cu1 1_555 1_555
N4B Cu1 1_555 1_555
N3A Cu1 1_555 1_555
Cu1C N3 1_555 1_555
Cl1A Cu1C 1_555 1_555
Cl1C Cu1C 1_555 1_555
N3B Cu1C 1_555 1_555
N4A Cu1C 1_555 1_555
N4C Cu1C 1_555 1_555
N2B N3B 1_555 1_555
C5B N3B 1_555 1_555
C3A N4A 1_555 1_555
C5A N4A 1_555 1_555
C3C N4C 1_555 1_555
C5C N4C 1_555 1_555
C3B N2B 1_555 1_555
C4B N2B 1_555 1_555
N4B_2 C5B 1_555 1_555
H4B C5B 1_555 1_555
N1A C3A 1_555 1_555
N2A C3A 1_555 1_555
N3A_2 C5A 1_555 1_555
H4A C5A 1_555 1_555
N1C C3C 1_555 1_555
N2C C3C 1_555 1_555
N3C_2 C5C 1_555 1_555
H4C C5C 1_555 1_555
N1B C3B 1_555 1_555
C1B C4B 1_555 1_555
H3B C4B 1_555 1_555
Cu1_2 N4B_2 1_555 1_555
C2A N1A 1_555 1_555
C4A N2A 1_555 1_555
Cu1_3 N3A_2 1_555 1_555
C2C N1C 1_555 1_555
C4C N2C 1_555 1_555
Cu1_4 N3C_2 1_555 1_555
C2B N1B 1_555 1_555
H1B C1B 1_555 1_555
C1A C2A 1_555 1_555
H2A C2A 1_555 1_555
H3A C4A 1_555 1_555
C1C C2C 1_555 1_555
H2C C2C 1_555 1_555
H3C C4C 1_555 1_555
H2B C2B 1_555 1_555
H1A C1A 1_555 1_555
H1C C1C 1_555 1_555
N2 C3 1_555 1_555
N4 C3 1_555 1_555
C1 C4 1_555 1_555
C3B N4B_2 1_555 1_555
N2A N3A_2 1_555 1_555
N2C N3C_2 1_555 1_555
C1B C2B 1_555 1_555
C4A C1A 1_555 1_555
C4C C1C 1_555 1_555

#END
