
#######################################################################
#
#                 Cambridge Crystallographic Data Centre
#                                CCDC 
#
#######################################################################
#
# If this CIF has been generated from an entry in the Cambridge 
# Structural Database, then it will include bibliographic, chemical, 
# crystal, experimental, refinement or atomic coordinate data resulting 
# from the CCDC's data processing and validation procedures.
#
#######################################################################

data_FIMDAI
_symmetry_cell_setting           triclinic
_symmetry_space_group_name_H-M   'P -1'
_symmetry_Int_Tables_number      2
_space_group_name_Hall           '-P 1'
loop_
_symmetry_equiv_pos_site_id
_symmetry_equiv_pos_as_xyz
1 x,y,z
2 -x,-y,-z
_cell_length_a                   4.0100(10)
_cell_length_b                   11.640(2)
_cell_length_c                   14.924(3)
_cell_angle_alpha                87.570(10)
_cell_angle_beta                 88.91(2)
_cell_angle_gamma                88.44(2)
_cell_volume                     695.603
loop_
_atom_site_label
_atom_site_type_symbol
_atom_site_fract_x
_atom_site_fract_y
_atom_site_fract_z
Ag1 Ag 0.2651(2) 0.26194(7) 0.35335(6)
O1 O 0.714(3) 0.2794(8) 0.2440(7)
C1 C 0.763(3) 0.2237(10) 0.1758(9)
H1 H 0.6767 0.1503 0.1764
N1 N 0.923(2) 0.2586(8) 0.1030(6)
C2 C 0.970(4) 0.1871(12) 0.0265(9)
H2 H 1.0905 0.2285 -0.0201
H3 H 0.7564 0.1669 0.0048
H4 H 1.0941 0.1184 0.0441
C3 C 1.051(4) 0.3740(11) 0.0953(10)
H5 H 1.1591 0.3858 0.0377
H6 H 1.2096 0.3835 0.1417
H7 H 0.8706 0.429 0.1012
C4 C -0.044(3) -0.1388(8) 0.3268(7)
C5 C -0.220(3) -0.1718(9) 0.2521(7)
C6 C -0.216(3) -0.2916(9) 0.2528(7)
C7 C -0.041(3) -0.3341(8) 0.3279(7)
C8 C 0.066(2) -0.2405(9) 0.3735(7)
C9 C 0.033(3) -0.0221(12) 0.3452(7)
N2 N 0.099(3) 0.0681(9) 0.3577(8)
C10 C -0.389(3) -0.0986(9) 0.1871(8)
N3 N -0.526(3) -0.0447(9) 0.1348(7)
C11 C -0.376(3) -0.3569(9) 0.1864(9)
N4 N -0.508(3) -0.4005(10) 0.1315(8)
C12 C 0.030(3) -0.4533(11) 0.3492(8)
N5 N 0.091(3) -0.5459(10) 0.3658(8)
C13 C 0.254(3) -0.2445(9) 0.4548(9)
N6 N 0.406(3) -0.2490(10) 0.5176(8)
Ag1_2 Ag 0.2651(2) -0.73806(7) 0.35335(6)
Ag1A Ag 0.7349(2) -0.26194(7) 0.64665(6)
N5_2 N 0.091(3) 0.4541(10) 0.3658(8)
N6A N 0.594(3) 0.2490(10) 0.4824(8)
loop_
_geom_bond_atom_site_label_1
_geom_bond_atom_site_label_2
_geom_bond_site_symmetry_1
_geom_bond_site_symmetry_2
Ag1 O1 1_555 1_555
O1 C1 1_555 1_555
C1 H1 1_555 1_555
N1 C1 1_555 1_555
C2 N1 1_555 1_555
H2 C2 1_555 1_555
H3 C2 1_555 1_555
H4 C2 1_555 1_555
C3 N1 1_555 1_555
H5 C3 1_555 1_555
H6 C3 1_555 1_555
H7 C3 1_555 1_555
C4 C5 1_555 1_555
C5 C6 1_555 1_555
C6 C7 1_555 1_555
C7 C8 1_555 1_555
C8 C4 1_555 1_555
C9 C4 1_555 1_555
N2 Ag1 1_555 1_555
C10 C5 1_555 1_555
N3 C10 1_555 1_555
C11 C6 1_555 1_555
N4 C11 1_555 1_555
C12 C7 1_555 1_555
N5 C12 1_555 1_555
C13 C8 1_555 1_555
N6 C13 1_555 1_555
Ag1_2 N5 1_555 1_555
Ag1A N6 1_555 1_555
N5_2 Ag1 1_555 1_555
N6A Ag1 1_555 1_555
C9 N2 1_555 1_555

#END
