
#######################################################################
#
#                 Cambridge Crystallographic Data Centre
#                                CCDC 
#
#######################################################################
#
# If this CIF has been generated from an entry in the Cambridge 
# Structural Database, then it will include bibliographic, chemical, 
# crystal, experimental, refinement or atomic coordinate data resulting 
# from the CCDC's data processing and validation procedures.
#
#######################################################################

data_FIMJOC01
_symmetry_cell_setting           monoclinic
_symmetry_space_group_name_H-M   'C 2/c'
_symmetry_Int_Tables_number      15
_space_group_name_Hall           '-C 2yn'
loop_
_symmetry_equiv_pos_site_id
_symmetry_equiv_pos_as_xyz
1 x,y,z
2 -x,y,1/2-z
3 1/2+x,1/2+y,z
4 1/2-x,1/2+y,1/2-z
5 -x,-y,-z
6 x,-y,1/2+z
7 1/2-x,1/2-y,-z
8 1/2+x,1/2-y,1/2+z
_cell_length_a                   24.508(4)
_cell_length_b                   5.8069(6)
_cell_length_c                   15.322(2)
_cell_angle_alpha                90
_cell_angle_beta                 118.030(10)
_cell_angle_gamma                90
_cell_volume                     1924.78
loop_
_atom_site_label
_atom_site_type_symbol
_atom_site_fract_x
_atom_site_fract_y
_atom_site_fract_z
Cd1 Cd 0.0000 0.0000 0.0000
N1 N 0.0515(2) -0.3239(7) 0.0856(3)
C1 C 0.0605(2) -0.5072(9) 0.1183(3)
S1 S 0.07393(9) -0.7605(2) 0.16914(11)
N2 N -0.0747(2) -0.0551(7) 0.0543(3)
O1 O -0.2612(3) 0.0089(10) 0.1010(5)
C2 C -0.0765(3) -0.2345(11) 0.1061(5)
H1 H -0.0454 -0.3444 0.1246
C3 C -0.1215(3) -0.2685(11) 0.1341(5)
H2 H -0.1205 -0.3983 0.1704
C4 C -0.1678(3) -0.1097(10) 0.1083(4)
C5 C -0.1654(3) 0.0773(11) 0.0558(5)
H3 H -0.1956 0.1908 0.0373
C6 C -0.1195(3) 0.0994(11) 0.0304(5)
H4 H -0.1194 0.2286 -0.0054
C7 C -0.2201(3) -0.1299(12) 0.1330(5)
C8 C -0.2205(4) -0.3234(14) 0.1958(6)
H5 H -0.2565 -0.3127 0.2050
H6 H -0.1840 -0.3160 0.2588
H7 H -0.2211 -0.4668 0.1641
N1D N -0.0515(2) -0.6761(7) -0.0856(3)
C1D C -0.0605(2) -0.4928(9) -0.1183(3)
S1D S -0.07393(9) -0.2395(2) -0.16914(11)
N2D N 0.0747(2) 0.0551(7) -0.0543(3)
O1D O 0.2612(3) -0.0089(10) -0.1010(5)
C2D C 0.0765(3) 0.2345(11) -0.1061(5)
H1D H 0.0454 0.3444 -0.1246
C3D C 0.1215(3) 0.2685(11) -0.1341(5)
H2D H 0.1205 0.3983 -0.1704
C4D C 0.1678(3) 0.1097(10) -0.1083(4)
C5D C 0.1654(3) -0.0773(11) -0.0558(5)
H3D H 0.1956 -0.1908 -0.0373
C6D C 0.1195(3) -0.0994(11) -0.0304(5)
H4D H 0.1194 -0.2286 0.0054
C7D C 0.2201(3) 0.1299(12) -0.1330(5)
C8D C 0.2205(4) 0.3234(14) -0.1958(6)
H5D H 0.2565 0.3127 -0.2050
H6D H 0.1840 0.3160 -0.2588
H7D H 0.2211 0.4668 -0.1641
Cd1_2 Cd 0.0000 -1.0000 0.0000
N1D_2 N -0.0515(2) 0.3239(7) -0.0856(3)
S1_2 S 0.07393(9) 0.2395(2) 0.16914(11)
loop_
_geom_bond_atom_site_label_1
_geom_bond_atom_site_label_2
_geom_bond_site_symmetry_1
_geom_bond_site_symmetry_2
Cd1 N1 1_555 1_555
N1 C1 1_555 1_555
C1 S1 1_555 1_555
S1 Cd1_2 1_555 1_555
N2 Cd1 1_555 1_555
O1 C7 1_555 1_555
C2 N2 1_555 1_555
H1 C2 1_555 1_555
C3 C2 1_555 1_555
H2 C3 1_555 1_555
C4 C3 1_555 1_555
C5 C4 1_555 1_555
H3 C5 1_555 1_555
C6 N2 1_555 1_555
H4 C6 1_555 1_555
C7 C4 1_555 1_555
C8 C7 1_555 1_555
H5 C8 1_555 1_555
H6 C8 1_555 1_555
H7 C8 1_555 1_555
N1D C1D 1_555 1_555
C1D S1D 1_555 1_555
S1D Cd1 1_555 1_555
N2D Cd1 1_555 1_555
O1D C7D 1_555 1_555
C2D N2D 1_555 1_555
H1D C2D 1_555 1_555
C3D C2D 1_555 1_555
H2D C3D 1_555 1_555
C4D C3D 1_555 1_555
C5D C4D 1_555 1_555
H3D C5D 1_555 1_555
C6D N2D 1_555 1_555
H4D C6D 1_555 1_555
C7D C4D 1_555 1_555
C8D C7D 1_555 1_555
H5D C8D 1_555 1_555
H6D C8D 1_555 1_555
H7D C8D 1_555 1_555
Cd1_2 N1D 1_555 1_555
N1D_2 Cd1 1_555 1_555
S1_2 Cd1 1_555 1_555
C5 C6 1_555 1_555
C5D C6D 1_555 1_555

#END
