
#######################################################################
#
#                 Cambridge Crystallographic Data Centre
#                                CCDC 
#
#######################################################################
#
# If this CIF has been generated from an entry in the Cambridge 
# Structural Database, then it will include bibliographic, chemical, 
# crystal, experimental, refinement or atomic coordinate data resulting 
# from the CCDC's data processing and validation procedures.
#
#######################################################################

data_FIMJIW
_symmetry_cell_setting           monoclinic
_symmetry_space_group_name_H-M   'C 2/c'
_symmetry_Int_Tables_number      15
_space_group_name_Hall           '-C 2yn'
loop_
_symmetry_equiv_pos_site_id
_symmetry_equiv_pos_as_xyz
1 x,y,z
2 -x,y,1/2-z
3 1/2+x,1/2+y,z
4 1/2-x,1/2+y,1/2-z
5 -x,-y,-z
6 x,-y,1/2+z
7 1/2-x,1/2-y,-z
8 1/2+x,1/2-y,1/2+z
_cell_length_a                   24.027(2)
_cell_length_b                   5.9301(3)
_cell_length_c                   15.3667(14)
_cell_angle_alpha                90
_cell_angle_beta                 118.131(10)
_cell_angle_gamma                90
_cell_volume                     1930.85
loop_
_atom_site_label
_atom_site_type_symbol
_atom_site_fract_x
_atom_site_fract_y
_atom_site_fract_z
Cd1 Cd 0.0000 0.0000 0.0000
N1 N 0.0528(2) -0.3241(7) 0.0838(3)
C1 C 0.0622(3) -0.4994(7) 0.1196(3)
Se1 Se 0.07632(3) -0.77098(8) 0.17719(3)
N2 N -0.0765(2) -0.0597(7) 0.0529(3)
O1 O -0.2679(3) 0.0075(9) 0.0988(4)
C2 C -0.0794(3) -0.2408(9) 0.1035(4)
H1 H -0.0476 -0.3528 0.1215
C3 C -0.1256(3) -0.2732(10) 0.1308(4)
H2 H -0.1256 -0.4044 0.1662
C4 C -0.1722(3) -0.1122(9) 0.1059(3)
C5 C -0.1689(3) 0.0758(10) 0.0558(4)
H3 H -0.1995 0.1918 0.0389
C6 C -0.1219(3) 0.0965(10) 0.0304(4)
H4 H -0.1211 0.2271 -0.0048
C7 C -0.2260(3) -0.1316(11) 0.1312(4)
C8 C -0.2265(4) -0.3216(13) 0.1938(5)
H5 H -0.2640 -0.3102 0.2033
H6 H -0.1885 -0.3150 0.2580
H7 H -0.2274 -0.4649 0.1613
N1D N -0.0528(2) -0.6759(7) -0.0838(3)
C1D C -0.0622(3) -0.5006(7) -0.1196(3)
Se1D Se -0.07632(3) -0.22902(8) -0.17719(3)
N2D N 0.0765(2) 0.0597(7) -0.0529(3)
O1D O 0.2679(3) -0.0075(9) -0.0988(4)
C2D C 0.0794(3) 0.2408(9) -0.1035(4)
H1D H 0.0476 0.3528 -0.1215
C3D C 0.1256(3) 0.2732(10) -0.1308(4)
H2D H 0.1256 0.4044 -0.1662
C4D C 0.1722(3) 0.1122(9) -0.1059(3)
C5D C 0.1689(3) -0.0758(10) -0.0558(4)
H3D H 0.1995 -0.1918 -0.0389
C6D C 0.1219(3) -0.0965(10) -0.0304(4)
H4D H 0.1211 -0.2271 0.0048
C7D C 0.2260(3) 0.1316(11) -0.1312(4)
C8D C 0.2265(4) 0.3216(13) -0.1938(5)
H5D H 0.2640 0.3102 -0.2033
H6D H 0.1885 0.3150 -0.2580
H7D H 0.2274 0.4649 -0.1613
Cd1_2 Cd 0.0000 -1.0000 0.0000
N1D_2 N -0.0528(2) 0.3241(7) -0.0838(3)
Se1_2 Se 0.07632(3) 0.22902(8) 0.17719(3)
loop_
_geom_bond_atom_site_label_1
_geom_bond_atom_site_label_2
_geom_bond_site_symmetry_1
_geom_bond_site_symmetry_2
Cd1 N1 1_555 1_555
N1 C1 1_555 1_555
C1 Se1 1_555 1_555
Se1 Cd1_2 1_555 1_555
N2 Cd1 1_555 1_555
O1 C7 1_555 1_555
C2 N2 1_555 1_555
H1 C2 1_555 1_555
C3 C2 1_555 1_555
H2 C3 1_555 1_555
C4 C3 1_555 1_555
C5 C4 1_555 1_555
H3 C5 1_555 1_555
C6 N2 1_555 1_555
H4 C6 1_555 1_555
C7 C4 1_555 1_555
C8 C7 1_555 1_555
H5 C8 1_555 1_555
H6 C8 1_555 1_555
H7 C8 1_555 1_555
N1D C1D 1_555 1_555
C1D Se1D 1_555 1_555
Se1D Cd1 1_555 1_555
N2D Cd1 1_555 1_555
O1D C7D 1_555 1_555
C2D N2D 1_555 1_555
H1D C2D 1_555 1_555
C3D C2D 1_555 1_555
H2D C3D 1_555 1_555
C4D C3D 1_555 1_555
C5D C4D 1_555 1_555
H3D C5D 1_555 1_555
C6D N2D 1_555 1_555
H4D C6D 1_555 1_555
C7D C4D 1_555 1_555
C8D C7D 1_555 1_555
H5D C8D 1_555 1_555
H6D C8D 1_555 1_555
H7D C8D 1_555 1_555
Cd1_2 N1D 1_555 1_555
N1D_2 Cd1 1_555 1_555
Se1_2 Cd1 1_555 1_555
C5 C6 1_555 1_555
C5D C6D 1_555 1_555

#END
