
#######################################################################
#
#                 Cambridge Crystallographic Data Centre
#                                CCDC 
#
#######################################################################
#
# If this CIF has been generated from an entry in the Cambridge 
# Structural Database, then it will include bibliographic, chemical, 
# crystal, experimental, refinement or atomic coordinate data resulting 
# from the CCDC's data processing and validation procedures.
#
#######################################################################

data_FIMJOC
_symmetry_cell_setting           monoclinic
_symmetry_space_group_name_H-M   'P 21/c'
_symmetry_Int_Tables_number      14
_space_group_name_Hall           '-P 2ybc'
loop_
_symmetry_equiv_pos_site_id
_symmetry_equiv_pos_as_xyz
1 x,y,z
2 -x,1/2+y,1/2-z
3 -x,-y,-z
4 x,1/2-y,1/2+z
_cell_length_a                   5.8899(3)
_cell_length_b                   11.1429(7)
_cell_length_c                   14.3704(7)
_cell_angle_alpha                90
_cell_angle_beta                 100.837(4)
_cell_angle_gamma                90
_cell_volume                     926.318
loop_
_atom_site_label
_atom_site_type_symbol
_atom_site_fract_x
_atom_site_fract_y
_atom_site_fract_z
Cd1 Cd 0.5000 0.5000 0.0000
S1 S -0.18044(16) 0.54772(12) 0.16111(7)
C1 C 0.0570(6) 0.5476(4) 0.1157(2)
N1 N 0.2228(5) 0.5477(4) 0.0846(2)
N2 N 0.4787(5) 0.2977(3) 0.0542(2)
C2 C 0.2772(7) 0.2392(4) 0.0351(3)
H1 H 0.1487 0.2797 0.0023
O1 O 0.2187(7) -0.1163(3) 0.1069(3)
C3 C 0.2498(7) 0.1226(4) 0.0613(3)
H2 H 0.1057 0.0860 0.0461
C4 C 0.4365(7) 0.0598(4) 0.1102(2)
C5 C 0.6445(7) 0.1199(4) 0.1318(3)
H3 H 0.7744 0.0818 0.1660
C6 C 0.6582(7) 0.2369(4) 0.1025(3)
H4 H 0.8002 0.2756 0.1171
C7 C 0.4025(8) -0.0694(4) 0.1363(3)
C8 C 0.5964(9) -0.1353(4) 0.1962(3)
H5 H 0.5468 -0.2149 0.2081
H6 H 0.6429 -0.0937 0.2552
H7 H 0.7247 -0.1397 0.1638
S1B S 0.18044(16) 0.45228(12) -0.16111(7)
C1B C -0.0570(6) 0.4524(4) -0.1157(2)
N1B N -0.2228(5) 0.4523(4) -0.0846(2)
N2B N 0.5213(5) 0.7023(3) -0.0542(2)
C2B C 0.7228(7) 0.7608(4) -0.0351(3)
H1B H 0.8513 0.7203 -0.0023
O1B O 0.7813(7) 1.1163(3) -0.1069(3)
C3B C 0.7502(7) 0.8774(4) -0.0613(3)
H2B H 0.8943 0.9140 -0.0461
C4B C 0.5635(7) 0.9402(4) -0.1102(2)
C5B C 0.3555(7) 0.8801(4) -0.1318(3)
H3B H 0.2256 0.9182 -0.1660
C6B C 0.3418(7) 0.7631(4) -0.1025(3)
H4B H 0.1998 0.7244 -0.1171
C7B C 0.5975(8) 1.0694(4) -0.1363(3)
C8B C 0.4036(9) 1.1353(4) -0.1962(3)
H5B H 0.4532 1.2149 -0.2081
H6B H 0.3571 1.0937 -0.2552
H7B H 0.2753 1.1397 -0.1638
Cd1_2 Cd -0.5000 0.5000 0.0000
S1_2 S 0.81956(16) 0.54772(12) 0.16111(7)
N1B_2 N 0.7772(5) 0.4523(4) -0.0846(2)
loop_
_geom_bond_atom_site_label_1
_geom_bond_atom_site_label_2
_geom_bond_site_symmetry_1
_geom_bond_site_symmetry_2
Cd1 N1 1_555 1_555
S1 C1 1_555 1_555
C1 N1 1_555 1_555
N2 Cd1 1_555 1_555
C2 N2 1_555 1_555
H1 C2 1_555 1_555
O1 C7 1_555 1_555
C3 C2 1_555 1_555
H2 C3 1_555 1_555
C4 C3 1_555 1_555
C5 C4 1_555 1_555
H3 C5 1_555 1_555
C6 N2 1_555 1_555
H4 C6 1_555 1_555
C7 C4 1_555 1_555
C8 C7 1_555 1_555
H5 C8 1_555 1_555
H6 C8 1_555 1_555
H7 C8 1_555 1_555
S1B Cd1 1_555 1_555
C1B S1B 1_555 1_555
N1B C1B 1_555 1_555
N2B Cd1 1_555 1_555
C2B N2B 1_555 1_555
H1B C2B 1_555 1_555
O1B C7B 1_555 1_555
C3B C2B 1_555 1_555
H2B C3B 1_555 1_555
C4B C3B 1_555 1_555
C5B C4B 1_555 1_555
H3B C5B 1_555 1_555
C6B N2B 1_555 1_555
H4B C6B 1_555 1_555
C7B C4B 1_555 1_555
C8B C7B 1_555 1_555
H5B C8B 1_555 1_555
H6B C8B 1_555 1_555
H7B C8B 1_555 1_555
Cd1_2 S1 1_555 1_555
S1_2 Cd1 1_555 1_555
N1B_2 Cd1 1_555 1_555
C5 C6 1_555 1_555
N1B Cd1_2 1_555 1_555
C5B C6B 1_555 1_555

#END
