
#######################################################################
#
#                 Cambridge Crystallographic Data Centre
#                                CCDC 
#
#######################################################################
#
# If this CIF has been generated from an entry in the Cambridge 
# Structural Database, then it will include bibliographic, chemical, 
# crystal, experimental, refinement or atomic coordinate data resulting 
# from the CCDC's data processing and validation procedures.
#
#######################################################################

data_FIMMOF
_symmetry_cell_setting           monoclinic
_symmetry_space_group_name_H-M   'P 21/c'
_symmetry_Int_Tables_number      14
_space_group_name_Hall           '-P 2ybc'
loop_
_symmetry_equiv_pos_site_id
_symmetry_equiv_pos_as_xyz
1 x,y,z
2 -x,1/2+y,1/2-z
3 -x,-y,-z
4 x,1/2-y,1/2+z
_cell_length_a                   15.0937(14)
_cell_length_b                   10.6709(9)
_cell_length_c                   15.6868(14)
_cell_angle_alpha                90
_cell_angle_beta                 113.477(2)
_cell_angle_gamma                90
_cell_volume                     2317.42
loop_
_atom_site_label
_atom_site_type_symbol
_atom_site_fract_x
_atom_site_fract_y
_atom_site_fract_z
Zn1 Zn 0.24415(3) 1.07319(4) 0.81968(3)
N1 N 0.1672(2) 0.5211(3) 1.2001(2)
N2 N 0.0671(2) 0.6633(3) 1.1061(2)
N3 N 0.3885(2) 1.0901(3) 0.8457(2)
N4 N 0.5408(3) 1.0265(3) 0.8921(2)
H1 H 0.5867 0.9708 0.9146
N5 N 0.3269(3) 0.8610(3) 0.8759(2)
O1 O 0.1737(2) 1.0195(2) 0.89651(18)
O2 O 0.2963(2) 1.1119(2) 1.00905(19)
O3 O 0.2109(2) 1.2511(2) 1.27524(18)
O4 O 0.0557(2) 1.2164(3) 1.2468(2)
C1 C 0.0662(3) 0.8932(3) 1.0913(2)
C2 C 0.1139(3) 0.9157(3) 1.0333(2)
H2 H 0.1060 0.8609 0.9847
C3 C 0.1734(3) 1.0193(3) 1.0474(2)
C4 C 0.1849(3) 1.1006(3) 1.1197(2)
H3 H 0.2294 1.1656 1.1328
C5 C 0.1310(3) 1.0868(3) 1.1729(2)
C6 C 0.0714(3) 0.9816(3) 1.1584(2)
H4 H 0.0351 0.9706 1.1938
C7 C 0.0062(3) 0.7751(3) 1.0791(3)
H5 H -0.0313 0.7813 1.1168
H6 H -0.0385 0.7677 1.0146
C8 C 0.1070(3) 0.6142(3) 1.1923(3)
H7 H 0.0934 0.6433 1.2416
C9 C 0.1663(3) 0.5068(3) 1.1112(2)
C10 C 0.1031(3) 0.5950(3) 1.0515(2)
C11 C 0.0856(3) 0.5996(4) 0.9574(3)
H8 H 0.0436 0.6581 0.9177
C12 C 0.1331(3) 0.5138(4) 0.9265(3)
H9 H 0.1220 0.5133 0.8638
C13 C 0.1977(3) 0.4269(4) 0.9854(3)
H10 H 0.2289 0.3708 0.9612
C14 C 0.2160(3) 0.4229(3) 1.0786(3)
H11 H 0.2599 0.3661 1.1183
C15 C 0.2190(3) 1.0518(3) 0.9808(3)
C16 C 0.1309(3) 1.1932(3) 1.2376(3)
C17 C 0.4453(3) 1.1912(4) 0.8385(3)
C18 C 0.4220(3) 1.3147(4) 0.8109(3)
H12 H 0.3594 1.3449 0.7933
C19 C 0.4955(4) 1.3904(4) 0.8106(3)
H13 H 0.4814 1.4732 0.7917
C20 C 0.5891(4) 1.3492(5) 0.8371(3)
H14 H 0.6359 1.4046 0.8353
C21 C 0.6151(3) 1.2277(5) 0.8661(3)
H15 H 0.6781 1.1988 0.8837
C22 C 0.5411(3) 1.1512(4) 0.8673(3)
C23 C 0.4493(3) 0.9961(4) 0.8770(3)
C24 C 0.4207(3) 0.8694(4) 0.8925(3)
C25 C 0.4468(4) 0.6548(4) 0.9289(3)
H16 H 0.4868 0.5851 0.9483
C26 C 0.2939(4) 0.7515(4) 0.8850(4)
H17 H 0.2289 0.7446 0.8744
C27 C 0.3501(5) 0.6456(6) 0.9093(4)
H18 H 0.3229 0.5685 0.9125
C28 C 0.4839(4) 0.7710(4) 0.9191(3)
H19 H 0.5488 0.7812 0.9302
Zn1C Zn 0.24415(3) 0.42681(4) 1.31968(3)
Zn1C_2 Zn 0.24415(3) 1.42681(4) 1.31968(3)
N1C N 0.1672(2) 0.9789(3) 0.7001(2)
O3C O 0.2109(2) 1.2489(2) 0.77524(18)
loop_
_geom_bond_atom_site_label_1
_geom_bond_atom_site_label_2
_geom_bond_site_symmetry_1
_geom_bond_site_symmetry_2
Zn1 N3 1_555 1_555
N1 C8 1_555 1_555
N2 C7 1_555 1_555
N3 C17 1_555 1_555
N4 H1 1_555 1_555
N5 Zn1 1_555 1_555
O1 Zn1 1_555 1_555
O2 C15 1_555 1_555
O3 C16 1_555 1_555
O4 C16 1_555 1_555
C1 C2 1_555 1_555
C2 H2 1_555 1_555
C3 C2 1_555 1_555
C4 C3 1_555 1_555
H3 C4 1_555 1_555
C5 C4 1_555 1_555
C6 C1 1_555 1_555
H4 C6 1_555 1_555
C7 C1 1_555 1_555
H5 C7 1_555 1_555
H6 C7 1_555 1_555
C8 N2 1_555 1_555
H7 C8 1_555 1_555
C9 N1 1_555 1_555
C10 N2 1_555 1_555
C11 C10 1_555 1_555
H8 C11 1_555 1_555
C12 C11 1_555 1_555
H9 C12 1_555 1_555
C13 C12 1_555 1_555
H10 C13 1_555 1_555
C14 C9 1_555 1_555
H11 C14 1_555 1_555
C15 O1 1_555 1_555
C16 C5 1_555 1_555
C17 C18 1_555 1_555
C18 H12 1_555 1_555
C19 C18 1_555 1_555
H13 C19 1_555 1_555
C20 C19 1_555 1_555
H14 C20 1_555 1_555
C21 C20 1_555 1_555
H15 C21 1_555 1_555
C22 N4 1_555 1_555
C23 N3 1_555 1_555
C24 N5 1_555 1_555
C25 H16 1_555 1_555
C26 N5 1_555 1_555
H17 C26 1_555 1_555
C27 C25 1_555 1_555
H18 C27 1_555 1_555
C28 C24 1_555 1_555
H19 C28 1_555 1_555
Zn1C N1 1_555 1_555
Zn1C_2 O3 1_555 1_555
N1C Zn1 1_555 1_555
O3C Zn1 1_555 1_555
N4 C23 1_555 1_555
C3 C15 1_555 1_555
C5 C6 1_555 1_555
C9 C10 1_555 1_555
C13 C14 1_555 1_555
C17 C22 1_555 1_555
C21 C22 1_555 1_555
C23 C24 1_555 1_555
C25 C28 1_555 1_555
C26 C27 1_555 1_555

#END
