
#######################################################################
#
#                 Cambridge Crystallographic Data Centre
#                                CCDC 
#
#######################################################################
#
# If this CIF has been generated from an entry in the Cambridge 
# Structural Database, then it will include bibliographic, chemical, 
# crystal, experimental, refinement or atomic coordinate data resulting 
# from the CCDC's data processing and validation procedures.
#
#######################################################################

data_FIMNAS
_symmetry_cell_setting           monoclinic
_symmetry_space_group_name_H-M   'P 21/c'
_symmetry_Int_Tables_number      14
_space_group_name_Hall           '-P 2ybc'
loop_
_symmetry_equiv_pos_site_id
_symmetry_equiv_pos_as_xyz
1 x,y,z
2 -x,1/2+y,1/2-z
3 -x,-y,-z
4 x,1/2-y,1/2+z
_cell_length_a                   8.300(2)
_cell_length_b                   11.597(3)
_cell_length_c                   17.395(4)
_cell_angle_alpha                90
_cell_angle_beta                 118.500(9)
_cell_angle_gamma                90
_cell_volume                     1471.45
loop_
_atom_site_label
_atom_site_type_symbol
_atom_site_fract_x
_atom_site_fract_y
_atom_site_fract_z
Cd1 Cd 0.38824(2) 0.151712(14) 0.491023(10)
O1 O 0.2896(2) -0.01505(14) 0.51549(10)
O2 O 0.5363(3) -0.11225(16) 0.61125(11)
O3 O 0.5650(3) -0.28559(18) 0.87313(12)
O4 O 0.3693(3) -0.23340(17) 0.91692(11)
N1 N 0.1598(3) 0.23875(17) 0.89614(13)
N2 N -0.0022(3) 0.13034(17) 0.77820(13)
C1 C 0.1028(3) -0.00651(19) 0.70336(14)
C2 C 0.1627(3) -0.0040(2) 0.64156(14)
H1 H 0.1062 0.0447 0.5935
C3 C 0.3074(3) -0.07407(19) 0.65101(14)
C4 C 0.3906(3) -0.14789(19) 0.72198(14)
H2 H 0.4866 -0.1949 0.7280
C5 C 0.3311(3) -0.15188(19) 0.78412(14)
C6 C 0.1882(3) -0.0813(2) 0.77457(15)
H3 H 0.1485 -0.0837 0.8163
C7 C -0.0507(3) 0.0719(2) 0.69486(15)
H4 H -0.0753 0.1291 0.6499
H5 H -0.1614 0.0269 0.6772
C8 C 0.1406(3) 0.2030(2) 0.82078(16)
H6 H 0.2180 0.2255 0.7987
C9 C 0.0198(3) 0.1843(2) 0.90509(16)
C10 C -0.0828(3) 0.1162(2) 0.83142(16)
C11 C -0.2341(4) 0.0525(2) 0.82082(19)
H7 H -0.3016 0.0071 0.7717
C12 C -0.2772(4) 0.0609(3) 0.8877(2)
H8 H -0.3778 0.0204 0.8834
C13 C -0.1752(5) 0.1283(3) 0.9618(2)
H9 H -0.2096 0.1310 1.0054
C14 C -0.0255(4) 0.1906(2) 0.97219(18)
H10 H 0.0424 0.2351 1.0219
C15 C 0.3815(3) -0.0663(2) 0.58738(15)
C16 C 0.4276(4) -0.2286(2) 0.86281(15)
Cd1A Cd 0.61176(2) -0.348288(14) 1.008977(10)
Cd1B Cd 0.61176(2) -0.151712(14) 0.508977(10)
Cd1C Cd 0.38824(2) 0.348288(14) 0.991023(10)
O2B O 0.4637(3) 0.11225(16) 0.38875(11)
O3A O 0.4350(3) 0.21441(18) 0.62687(12)
O4A O 0.6307(3) 0.26660(17) 0.58308(11)
N1C N 0.1598(3) 0.26125(17) 0.39614(13)
loop_
_geom_bond_atom_site_label_1
_geom_bond_atom_site_label_2
_geom_bond_site_symmetry_1
_geom_bond_site_symmetry_2
Cd1 O1 1_555 1_555
O1 C15 1_555 1_555
O2 C15 1_555 1_555
O3 C16 1_555 1_555
O4 C16 1_555 1_555
N1 C8 1_555 1_555
N2 C7 1_555 1_555
C1 C2 1_555 1_555
C2 H1 1_555 1_555
C3 C2 1_555 1_555
C4 C3 1_555 1_555
H2 C4 1_555 1_555
C5 C4 1_555 1_555
C6 C1 1_555 1_555
H3 C6 1_555 1_555
C7 C1 1_555 1_555
H4 C7 1_555 1_555
H5 C7 1_555 1_555
C8 N2 1_555 1_555
H6 C8 1_555 1_555
C9 N1 1_555 1_555
C10 N2 1_555 1_555
C11 C10 1_555 1_555
H7 C11 1_555 1_555
C12 C11 1_555 1_555
H8 C12 1_555 1_555
C13 C12 1_555 1_555
H9 C13 1_555 1_555
C14 C9 1_555 1_555
H10 C14 1_555 1_555
C15 C3 1_555 1_555
C16 C5 1_555 1_555
Cd1A O3 1_555 1_555
Cd1B O2 1_555 1_555
Cd1C N1 1_555 1_555
O2B Cd1 1_555 1_555
O3A Cd1 1_555 1_555
O4A Cd1 1_555 1_555
N1C Cd1 1_555 1_555
O4 Cd1A 1_555 1_555
C5 C6 1_555 1_555
C9 C10 1_555 1_555
C13 C14 1_555 1_555

#END
