
#######################################################################
#
#                 Cambridge Crystallographic Data Centre
#                                CCDC 
#
#######################################################################
#
# If this CIF has been generated from an entry in the Cambridge 
# Structural Database, then it will include bibliographic, chemical, 
# crystal, experimental, refinement or atomic coordinate data resulting 
# from the CCDC's data processing and validation procedures.
#
#######################################################################

data_FIMNOG
_symmetry_cell_setting           tetragonal
_symmetry_space_group_name_H-M   'I 41/a'
_symmetry_Int_Tables_number      88
_space_group_name_Hall           '-I 4ad'
loop_
_symmetry_equiv_pos_site_id
_symmetry_equiv_pos_as_xyz
1 x,y,z
2 1/2-x,-y,1/2+z
3 3/4-y,1/4+x,1/4+z
4 3/4+y,3/4-x,3/4+z
5 1/2+x,1/2+y,1/2+z
6 -x,1/2-y,z
7 1/4-y,3/4+x,3/4+z
8 1/4+y,1/4-x,1/4+z
9 -x,-y,-z
10 1/2+x,y,1/2-z
11 1/4+y,3/4-x,3/4-z
12 1/4-y,1/4+x,1/4-z
13 1/2-x,1/2-y,1/2-z
14 x,1/2+y,-z
15 3/4+y,1/4-x,1/4-z
16 3/4-y,3/4+x,3/4-z
_cell_length_a                   15.089(2)
_cell_length_b                   15.089(2)
_cell_length_c                   29.031(6)
_cell_angle_alpha                90
_cell_angle_beta                 90
_cell_angle_gamma                90
_cell_volume                     6609.72
loop_
_atom_site_label
_atom_site_type_symbol
_atom_site_fract_x
_atom_site_fract_y
_atom_site_fract_z
Ag1 Ag 0.90071(3) 0.12455(3) 0.647981(15)
Ag2 Ag 0.5000 0.2500 0.67860(2)
C1 C 0.6837(3) 0.2978(3) 0.63508(17)
C2 C 0.7003(4) 0.1804(4) 0.67449(18)
C3 C 0.6844(6) 0.1037(5) 0.7063(2)
H1 H 0.7380 0.0699 0.6990
C4 C 0.7063(4) 0.1244(4) 0.75630(18)
H2 H 0.7687 0.1390 0.7587
H3 H 0.6726 0.1758 0.7660
C5 C 0.6858(7) 0.0475(6) 0.7880(3)
H4 H 0.7411 0.0160 0.7928
H5 H 0.6695 0.0729 0.8175
C6 C 0.6259(9) -0.0124(7) 0.7784(4)
H6 H 0.5703 0.0072 0.7918
H7 H 0.6426 -0.0666 0.7941
C7 C 0.6083(7) -0.0353(5) 0.7288(3)
H8 H 0.5471 -0.0540 0.7256
H9 H 0.6457 -0.0848 0.7200
C8 C 0.6256(9) 0.0416(7) 0.6960(3)
H10 H 0.6432 0.0163 0.6667
H11 H 0.5693 0.0712 0.6910
C9 C 0.6465(4) 0.3767(4) 0.6110(2)
H12 H 0.6962 0.4078 0.5965
C10 C 0.6023(5) 0.4419(5) 0.6438(3)
H13 H 0.6453 0.4621 0.6663
H14 H 0.5549 0.4121 0.6602
C11 C 0.5646(7) 0.5218(6) 0.6180(3)
H15 H 0.6129 0.5560 0.6049
H16 H 0.5329 0.5595 0.6394
C12 C 0.5015(7) 0.4932(7) 0.5793(3)
H17 H 0.4497 0.4651 0.5926
H18 H 0.4820 0.5450 0.5624
C13 C 0.5456(5) 0.4302(6) 0.5470(3)
H19 H 0.5934 0.4604 0.5312
H20 H 0.5031 0.4107 0.5240
C14 C 0.5825(4) 0.3495(5) 0.5724(2)
H21 H 0.6134 0.3116 0.5507
H22 H 0.5339 0.3158 0.5855
N1 N 0.7679(3) 0.2735(3) 0.63017(15)
N2 N 0.7783(3) 0.1970(3) 0.65608(16)
N3 N 0.6393(3) 0.2415(3) 0.66249(15)
N4 N 1.0000 0.2500 0.7151(2)
O1 O 0.9625(3) 0.1888(3) 0.73628(13)
O2 O 1.0000 0.2500 0.67182(16)
O1E O 1.0375(3) 0.3112(3) 0.73628(13)
Ag1E Ag 0.09929(3) 0.37545(3) 0.647981(15)
C1E C 0.3163(3) 0.2022(3) 0.63508(17)
C2E C 0.2997(4) 0.3196(4) 0.67449(18)
C3E C 0.3156(6) 0.3963(5) 0.7063(2)
H1E H 0.2620 0.4301 0.6990
C4E C 0.2937(4) 0.3756(4) 0.75630(18)
H2E H 0.2313 0.3610 0.7587
H3E H 0.3274 0.3242 0.7660
C5E C 0.3142(7) 0.4525(6) 0.7880(3)
H4E H 0.2589 0.4840 0.7928
H5E H 0.3305 0.4271 0.8175
C6E C 0.3741(9) 0.5124(7) 0.7784(4)
H6E H 0.4297 0.4928 0.7918
H7E H 0.3574 0.5666 0.7941
C7E C 0.3917(7) 0.5353(5) 0.7288(3)
H8E H 0.4529 0.5540 0.7256
H9E H 0.3543 0.5848 0.7200
C8E C 0.3744(9) 0.4584(7) 0.6960(3)
H10E H 0.3568 0.4837 0.6667
H11E H 0.4307 0.4288 0.6910
C9E C 0.3535(4) 0.1233(4) 0.6110(2)
H12E H 0.3038 0.0922 0.5965
C10E C 0.3977(5) 0.0581(5) 0.6438(3)
H13E H 0.3547 0.0379 0.6663
H14E H 0.4451 0.0879 0.6602
C11E C 0.4354(7) -0.0218(6) 0.6180(3)
H15E H 0.3871 -0.0560 0.6049
H16E H 0.4671 -0.0595 0.6394
C12E C 0.4985(7) 0.0068(7) 0.5793(3)
H17E H 0.5503 0.0349 0.5926
H18E H 0.5180 -0.0450 0.5624
C13E C 0.4544(5) 0.0698(6) 0.5470(3)
H19E H 0.4066 0.0396 0.5312
H20E H 0.4969 0.0893 0.5240
C14E C 0.4175(4) 0.1505(5) 0.5724(2)
H21E H 0.3866 0.1884 0.5507
H22E H 0.4661 0.1842 0.5855
N1E N 0.2321(3) 0.2265(3) 0.63017(15)
N2E N 0.2217(3) 0.3030(3) 0.65608(16)
N3E N 0.3607(3) 0.2585(3) 0.66249(15)
Ag1E_2 Ag 1.09929(3) 0.37545(3) 0.647981(15)
Ag1K Ag 0.12545(3) 0.15071(3) 0.602019(15)
Ag1N Ag 0.87455(3) 0.34929(3) 0.602019(15)
Ag2I Ag 1.0000 0.2500 0.82140(2)
N1K N 0.9765(3) 0.0179(3) 0.61983(15)
N1N N 0.0235(3) 0.4821(3) 0.61983(15)
O1I O 0.4625(3) 0.1888(3) 0.76372(13)
O1L O 0.5375(3) 0.3112(3) 0.76372(13)
O2_2 O 0.0000 0.2500 0.67182(16)
loop_
_geom_bond_atom_site_label_1
_geom_bond_atom_site_label_2
_geom_bond_site_symmetry_1
_geom_bond_site_symmetry_2
Ag1 N2 1_555 1_555
Ag2 N3 1_555 1_555
C1 C9 1_555 1_555
C2 C3 1_555 1_555
C3 H1 1_555 1_555
C4 C3 1_555 1_555
H2 C4 1_555 1_555
H3 C4 1_555 1_555
C5 C4 1_555 1_555
H4 C5 1_555 1_555
H5 C5 1_555 1_555
C6 C5 1_555 1_555
H6 C6 1_555 1_555
H7 C6 1_555 1_555
C7 C6 1_555 1_555
H8 C7 1_555 1_555
H9 C7 1_555 1_555
C8 C3 1_555 1_555
H10 C8 1_555 1_555
H11 C8 1_555 1_555
C9 H12 1_555 1_555
C10 C9 1_555 1_555
H13 C10 1_555 1_555
H14 C10 1_555 1_555
C11 C10 1_555 1_555
H15 C11 1_555 1_555
H16 C11 1_555 1_555
C12 C11 1_555 1_555
H17 C12 1_555 1_555
H18 C12 1_555 1_555
C13 C12 1_555 1_555
H19 C13 1_555 1_555
H20 C13 1_555 1_555
C14 C9 1_555 1_555
H21 C14 1_555 1_555
H22 C14 1_555 1_555
N1 C1 1_555 1_555
N2 C2 1_555 1_555
N3 C1 1_555 1_555
N4 O1 1_555 1_555
O1 Ag2I 1_555 1_555
O2 Ag1 1_555 1_555
O1E N4 1_555 1_555
Ag1E N2E 1_555 1_555
C1E C9E 1_555 1_555
C2E C3E 1_555 1_555
C3E H1E 1_555 1_555
C4E C3E 1_555 1_555
H2E C4E 1_555 1_555
H3E C4E 1_555 1_555
C5E C4E 1_555 1_555
H4E C5E 1_555 1_555
H5E C5E 1_555 1_555
C6E C5E 1_555 1_555
H6E C6E 1_555 1_555
H7E C6E 1_555 1_555
C7E C6E 1_555 1_555
H8E C7E 1_555 1_555
H9E C7E 1_555 1_555
C8E C3E 1_555 1_555
H10E C8E 1_555 1_555
H11E C8E 1_555 1_555
C9E H12E 1_555 1_555
C10E C9E 1_555 1_555
H13E C10E 1_555 1_555
H14E C10E 1_555 1_555
C11E C10E 1_555 1_555
H15E C11E 1_555 1_555
H16E C11E 1_555 1_555
C12E C11E 1_555 1_555
H17E C12E 1_555 1_555
H18E C12E 1_555 1_555
C13E C12E 1_555 1_555
H19E C13E 1_555 1_555
H20E C13E 1_555 1_555
C14E C9E 1_555 1_555
H21E C14E 1_555 1_555
H22E C14E 1_555 1_555
N1E C1E 1_555 1_555
N2E C2E 1_555 1_555
N3E Ag2 1_555 1_555
Ag1E_2 O2 1_555 1_555
Ag1K N1E 1_555 1_555
Ag1N N1 1_555 1_555
Ag2I O1E 1_555 1_555
N1K Ag1 1_555 1_555
N1N Ag1E 1_555 1_555
O1I Ag2 1_555 1_555
O1L Ag2 1_555 1_555
O2_2 Ag1E 1_555 1_555
C2 N3 1_555 1_555
C7 C8 1_555 1_555
C13 C14 1_555 1_555
N1 N2 1_555 1_555
N4 O2 1_555 1_555
C1E N3E 1_555 1_555
C2E N3E 1_555 1_555
C7E C8E 1_555 1_555
C13E C14E 1_555 1_555
N1E N2E 1_555 1_555

#END
