
#######################################################################
#
#                 Cambridge Crystallographic Data Centre
#                                CCDC 
#
#######################################################################
#
# If this CIF has been generated from an entry in the Cambridge 
# Structural Database, then it will include bibliographic, chemical, 
# crystal, experimental, refinement or atomic coordinate data resulting 
# from the CCDC's data processing and validation procedures.
#
#######################################################################

data_FIMWEE
_symmetry_cell_setting           triclinic
_symmetry_space_group_name_H-M   'P -1'
_symmetry_Int_Tables_number      2
_space_group_name_Hall           '-P 1'
loop_
_symmetry_equiv_pos_site_id
_symmetry_equiv_pos_as_xyz
1 x,y,z
2 -x,-y,-z
_cell_length_a                   13.993(4)
_cell_length_b                   14.312(5)
_cell_length_c                   14.497(3)
_cell_angle_alpha                69.87(5)
_cell_angle_beta                 71.17(4)
_cell_angle_gamma                73.15(5)
_cell_volume                     2527.29
loop_
_atom_site_label
_atom_site_type_symbol
_atom_site_fract_x
_atom_site_fract_y
_atom_site_fract_z
Ru1 Ru 0.04520(2) 0.04051(2) 0.42348(2)
Ru2 Ru 0.04280(3) 0.42599(2) 0.04256(2)
Ru3 Ru 0.42362(2) 0.04529(3) 0.03395(3)
O1 O 0.1227(2) -0.0978(2) 0.3977(2)
O2 O -0.0686(2) 0.0454(3) 0.3587(2)
O3 O 0.0340(3) -0.1780(2) 0.5495(2)
O4 O -0.1581(2) -0.0345(3) 0.5098(2)
O5 O 0.1803(2) 0.4713(3) -0.0368(3)
O6 O 0.0633(3) 0.3647(2) -0.0733(3)
O7 O 0.0960(3) 0.6186(3) -0.1197(3)
O8 O -0.0223(3) 0.5104(3) -0.1579(2)
O9 O 0.3509(2) -0.0614(3) 0.0337(3)
O10 O 0.4376(3) -0.0463(3) 0.1765(2)
O11 O 0.5012(3) -0.1505(3) -0.0326(3)
O12 O 0.5883(3) -0.1367(3) 0.1085(3)
N1 N 0.1307(3) 0.1263(3) 0.2633(3)
N2 N 0.1296(3) 0.2694(3) 0.1232(3)
N3 N 0.2664(3) 0.1293(3) 0.1153(3)
C1 C 0.2193(3) 0.0836(3) 0.2105(3)
C2 C 0.0873(3) 0.2187(3) 0.2164(3)
C3 C 0.2186(3) 0.2216(3) 0.0749(3)
C4 C 0.1016(3) -0.1778(3) 0.4657(3)
C5 C 0.1613(4) -0.2771(4) 0.4493(4)
C6 C 0.2219(5) -0.2814(5) 0.3519(5)
C7 C 0.2766(7) -0.3742(6) 0.3358(6)
C8 C 0.2726(6) -0.4632(6) 0.4158(7)
C9 C 0.2132(6) -0.4583(5) 0.5119(6)
C10 C 0.1578(4) -0.3664(4) 0.5284(5)
C11 C -0.1460(3) 0.0069(3) 0.4162(3)
C12 C -0.2250(4) 0.0107(4) 0.3659(4)
C13 C -0.2089(5) 0.0393(5) 0.2627(5)
C14 C -0.2806(7) 0.0385(7) 0.2167(6)
C15 C -0.3752(6) 0.0094(6) 0.2785(6)
C16 C -0.3903(6) -0.0180(7) 0.3781(8)
C17 C -0.3187(4) -0.0181(5) 0.4262(5)
C18 C 0.1791(4) 0.5560(4) -0.1027(3)
C19 C 0.2782(4) 0.5849(4) -0.1652(4)
C20 C 0.2816(5) 0.6838(5) -0.2184(5)
C21 C 0.3780(6) 0.7115(7) -0.2730(6)
C22 C 0.4666(6) 0.6350(7) -0.2747(6)
C23 C 0.4611(5) 0.5388(7) -0.2241(7)
C24 C 0.3685(5) 0.5107(5) -0.1661(5)
C25 C 0.0297(4) 0.4202(4) -0.1504(4)
C26 C 0.0528(4) 0.3772(4) -0.2359(4)
C27 C -0.0040(5) 0.4181(5) -0.3078(4)
C28 C 0.0131(7) 0.3759(7) -0.3848(6)
C29 C 0.0927(9) 0.2899(7) -0.3924(6)
C30 C 0.1547(8) 0.2495(6) -0.3233(7)
C31 C 0.1332(6) 0.2936(5) -0.2456(5)
C32 C 0.4048(4) -0.1390(4) 0.0077(4)
C33 C 0.3549(4) -0.2249(4) 0.0258(4)
C34 C 0.2493(5) -0.2123(5) 0.0601(7)
C35 C 0.2016(6) -0.2945(7) 0.0791(7)
C36 C 0.2586(7) -0.3857(7) 0.0709(6)
C37 C 0.3618(8) -0.3974(6) 0.0398(7)
C38 C 0.4127(6) -0.3190(5) 0.0171(6)
C39 C 0.5110(3) -0.1216(4) 0.1835(4)
C40 C 0.5057(4) -0.1985(4) 0.2834(4)
C41 C 0.4283(6) -0.1842(6) 0.3672(5)
C42 C 0.4202(8) -0.2604(9) 0.4574(6)
C43 C 0.490(1) -0.3477(8) 0.4667(7)
C44 C 0.5680(9) -0.3687(8) 0.3814(8)
C45 C 0.5786(6) -0.2938(5) 0.2870(6)
H1 H 0.0226 0.2501 0.2513
H2 H 0.2493 0.2560 0.0075
H3 H 0.2512 0.0169 0.2419
H4 H 0.2252 -0.2210 0.2975
H5 H 0.3173 -0.3774 0.2700
H6 H 0.3104 -0.5267 0.4044
H7 H 0.2107 -0.5186 0.5666
H8 H 0.1168 -0.3637 0.5943
H9 H -0.1464 0.0601 0.2215
H10 H -0.2672 0.0572 0.1449
H11 H -0.4265 0.0097 0.2487
H12 H -0.4530 -0.0387 0.4189
H13 H -0.3328 -0.0371 0.4981
H14 H 0.2197 0.7338 -0.2187
H15 H 0.3822 0.7804 -0.3076
H16 H 0.5317 0.6519 -0.3126
H17 H 0.5224 0.4881 -0.2279
H18 H 0.3665 0.4423 -0.1277
H19 H -0.0564 0.4771 -0.3037
H20 H -0.0281 0.4041 -0.4324
H21 H 0.1044 0.2591 -0.4446
H22 H 0.2101 0.1932 -0.3295
H23 H 0.1742 0.2663 -0.1978
H24 H 0.2087 -0.1493 0.0711
H25 H 0.1286 -0.2848 0.0979
H26 H 0.2265 -0.4413 0.0868
H27 H 0.4015 -0.4619 0.0331
H28 H 0.4857 -0.3300 -0.0040
H29 H 0.3800 -0.1216 0.3631
H30 H 0.3645 -0.2505 0.5139
H31 H 0.4862 -0.3963 0.5312
H32 H 0.6134 -0.4332 0.3878
H33 H 0.6310 -0.3055 0.2289
Ru1A Ru -0.04520(2) -0.04051(2) 0.57652(2)
Ru2A Ru -0.04280(3) 0.57401(2) -0.04256(2)
Ru3A Ru 0.57638(2) -0.04529(3) -0.03395(3)
O3A O -0.0340(3) 0.1780(2) 0.4505(2)
O4A O 0.1581(2) 0.0345(3) 0.4902(2)
O7A O -0.0960(3) 0.3814(3) 0.1197(3)
O8A O 0.0223(3) 0.4896(3) 0.1579(2)
O11A O 0.4988(3) 0.1505(3) 0.0326(3)
O12A O 0.4117(3) 0.1367(3) -0.1085(3)
Cl1 Cl 0.3715(5) 0.1760(5) 0.2844(5)
Cl2 Cl 0.2157(6) 0.3465(6) 0.2916(6)
C46 C 0.2731(10) 0.2384(10) 0.3646(10)
loop_
_geom_bond_atom_site_label_1
_geom_bond_atom_site_label_2
_geom_bond_site_symmetry_1
_geom_bond_site_symmetry_2
Ru1 O1 1_555 1_555
Ru2 O5 1_555 1_555
Ru3 O9 1_555 1_555
Cl1 C46 1_555 1_555
Cl2 C46 1_555 1_555
O1 C4 1_555 1_555
O2 Ru1 1_555 1_555
O3 C4 1_555 1_555
O4 C11 1_555 1_555
O5 C18 1_555 1_555
O6 Ru2 1_555 1_555
O7 C18 1_555 1_555
O8 C25 1_555 1_555
O9 C32 1_555 1_555
O10 Ru3 1_555 1_555
O11 C32 1_555 1_555
O12 C39 1_555 1_555
N1 Ru1 1_555 1_555
N2 Ru2 1_555 1_555
N3 Ru3 1_555 1_555
C1 N1 1_555 1_555
C2 N1 1_555 1_555
C3 N2 1_555 1_555
C4 C5 1_555 1_555
C5 C6 1_555 1_555
C6 C7 1_555 1_555
C7 C8 1_555 1_555
C8 C9 1_555 1_555
C9 C10 1_555 1_555
C10 C5 1_555 1_555
C11 O2 1_555 1_555
C12 C11 1_555 1_555
C13 C12 1_555 1_555
C14 C13 1_555 1_555
C15 C14 1_555 1_555
C16 C15 1_555 1_555
C17 C12 1_555 1_555
C18 C19 1_555 1_555
C19 C20 1_555 1_555
C20 C21 1_555 1_555
C21 C22 1_555 1_555
C22 C23 1_555 1_555
C23 C24 1_555 1_555
C24 C19 1_555 1_555
C25 O6 1_555 1_555
C26 C25 1_555 1_555
C27 C26 1_555 1_555
C28 C27 1_555 1_555
C29 C28 1_555 1_555
C30 C29 1_555 1_555
C31 C26 1_555 1_555
C32 C33 1_555 1_555
C33 C34 1_555 1_555
C34 C35 1_555 1_555
C35 C36 1_555 1_555
C36 C37 1_555 1_555
C37 C38 1_555 1_555
C38 C33 1_555 1_555
C39 O10 1_555 1_555
C40 C39 1_555 1_555
C41 C40 1_555 1_555
C42 C41 1_555 1_555
C43 C42 1_555 1_555
C44 C43 1_555 1_555
C45 C40 1_555 1_555
H1 C2 1_555 1_555
H2 C3 1_555 1_555
H3 C1 1_555 1_555
H4 C6 1_555 1_555
H5 C7 1_555 1_555
H6 C8 1_555 1_555
H7 C9 1_555 1_555
H8 C10 1_555 1_555
H9 C13 1_555 1_555
H10 C14 1_555 1_555
H11 C15 1_555 1_555
H12 C16 1_555 1_555
H13 C17 1_555 1_555
H14 C20 1_555 1_555
H15 C21 1_555 1_555
H16 C22 1_555 1_555
H17 C23 1_555 1_555
H18 C24 1_555 1_555
H19 C27 1_555 1_555
H20 C28 1_555 1_555
H21 C29 1_555 1_555
H22 C30 1_555 1_555
H23 C31 1_555 1_555
H24 C34 1_555 1_555
H25 C35 1_555 1_555
H26 C36 1_555 1_555
H27 C37 1_555 1_555
H28 C38 1_555 1_555
H29 C41 1_555 1_555
H30 C42 1_555 1_555
H31 C43 1_555 1_555
H32 C44 1_555 1_555
H33 C45 1_555 1_555
Ru1A Ru1 1_555 1_555
Ru2A Ru2 1_555 1_555
Ru3A Ru3 1_555 1_555
O3A Ru1 1_555 1_555
O4A Ru1 1_555 1_555
O7A Ru2 1_555 1_555
O8A Ru2 1_555 1_555
O11A Ru3 1_555 1_555
O12A Ru3 1_555 1_555
O3 Ru1A 1_555 1_555
O4 Ru1A 1_555 1_555
O7 Ru2A 1_555 1_555
O8 Ru2A 1_555 1_555
O11 Ru3A 1_555 1_555
O12 Ru3A 1_555 1_555
N2 C2 1_555 1_555
N3 C1 1_555 1_555
N3 C3 1_555 1_555
C16 C17 1_555 1_555
C30 C31 1_555 1_555
C44 C45 1_555 1_555

#END
