
#######################################################################
#
#                 Cambridge Crystallographic Data Centre
#                                CCDC 
#
#######################################################################
#
# If this CIF has been generated from an entry in the Cambridge 
# Structural Database, then it will include bibliographic, chemical, 
# crystal, experimental, refinement or atomic coordinate data resulting 
# from the CCDC's data processing and validation procedures.
#
#######################################################################

data_FIMXOO
_symmetry_cell_setting           orthorhombic
_symmetry_space_group_name_H-M   'P 21 21 21'
_symmetry_Int_Tables_number      19
_space_group_name_Hall           'P 2ac 2ab'
loop_
_symmetry_equiv_pos_site_id
_symmetry_equiv_pos_as_xyz
1 x,y,z
2 1/2-x,-y,1/2+z
3 1/2+x,1/2-y,-z
4 -x,1/2+y,1/2-z
_cell_length_a                   28.430(4)
_cell_length_b                   11.085(2)
_cell_length_c                   8.162(3)
_cell_angle_alpha                90
_cell_angle_beta                 90
_cell_angle_gamma                90
_cell_volume                     2572.23
loop_
_atom_site_label
_atom_site_type_symbol
_atom_site_fract_x
_atom_site_fract_y
_atom_site_fract_z
Cu1 Cu 0.1749(1) 0.0340(2) 0.2571(3)
O1 O 0.2264(4) 0.0976(11) 0.1305(13)
O2 O 0.2274(4) -0.0639(11) 0.4225(14)
N1 N 0.1800(5) -0.1081(11) 0.1026(15)
N2 N 0.1160(6) 0.2716(15) -0.0416(21)
N3 N 0.1220(4) -0.0223(14) 0.3978(16)
N4 N 0.1569(5) 0.1957(13) 0.3460(19)
C1 C 0.2375(5) 0.0415(17) 0.0083(17)
C2 C 0.2047(7) -0.0621(16) -0.0486(24)
C3 C 0.1683(6) -0.0194(18) -0.1723(19)
C4 C 0.1390(6) 0.0862(16) -0.1096(19)
C5 C 0.1507(8) 0.2110(17) -0.1205(24)
C6 C 0.0816(8) 0.2023(20) 0.0184(27)
C7 C 0.0947(6) 0.0778(14) -0.0176(18)
C8 C 0.0634(6) -0.0140(18) 0.0339(25)
C9 C 0.0230(7) 0.0087(22) 0.1139(26)
C10 C 0.0117(8) 0.1304(27) 0.1538(26)
C11 C 0.0407(8) 0.2218(23) 0.1112(25)
C12 C 0.1070(7) -0.1300(20) 0.4218(24)
C13 C 0.0666(8) -0.1576(22) 0.5294(27)
C14 C 0.0417(7) -0.0608(25) 0.5941(27)
C15 C 0.0591(7) 0.0600(20) 0.5693(23)
C16 C 0.0995(6) 0.0741(16) 0.4661(19)
C17 C 0.1183(7) 0.1926(18) 0.4403(21)
C18 C 0.0957(6) 0.2963(19) 0.5009(22)
C19 C 0.1188(9) 0.4018(20) 0.4717(28)
C20 C 0.1558(9) 0.4132(20) 0.3672(30)
C21 C 0.1770(9) 0.3021(18) 0.3078(24)
C22 C 0.0378(7) 0.1662(21) 0.6305(26)
C23 C 0.0543(7) 0.2745(24) 0.6074(27)
C1A C 0.2625(5) -0.0415(17) 0.5083(17)
O2A O 0.2726(4) 0.0639(11) -0.0775(14)
O1A O 0.2736(4) -0.0976(11) 0.6305(13)
C2A C 0.2953(7) 0.0621(16) 0.4514(24)
Cu1A Cu 0.3251(1) -0.0340(2) -0.2429(3)
Cu1A_2 Cu 0.3251(1) -0.0340(2) 0.7571(3)
N1A N 0.3200(5) 0.1081(11) 0.6026(15)
C3A C 0.3317(6) 0.0194(18) 0.3277(19)
O1A_2 O 0.2736(4) -0.0976(11) -0.3695(13)
N1A_2 N 0.3200(5) 0.1081(11) -0.3974(15)
N3A N 0.3780(4) 0.0223(14) -0.1022(16)
N4A N 0.3431(5) -0.1957(13) -0.1540(19)
C4A C 0.3610(6) -0.0862(16) 0.3904(19)
C12A C 0.3930(7) 0.1300(20) -0.0782(24)
C16A C 0.4005(6) -0.0741(16) -0.0339(19)
C17A C 0.3817(7) -0.1926(18) -0.0597(21)
C21A C 0.3230(9) -0.3021(18) -0.1922(24)
C5A C 0.3493(8) -0.2110(17) 0.3795(24)
C7A C 0.4053(6) -0.0778(14) 0.4824(18)
C13A C 0.4334(8) 0.1576(22) 0.0294(27)
C15A C 0.4409(7) -0.0600(20) 0.0693(23)
C18A C 0.4043(6) -0.2963(19) 0.0009(22)
C20A C 0.3442(9) -0.4132(20) -0.1328(30)
N2A N 0.3840(6) -0.2716(15) 0.4584(21)
C6A C 0.4184(8) -0.2023(20) 0.5184(27)
C8A C 0.4366(6) 0.0140(18) 0.5339(25)
C14A C 0.4583(7) 0.0608(25) 0.0941(27)
C22A C 0.4622(7) -0.1662(21) 0.1305(26)
C19A C 0.3812(9) -0.4018(20) -0.0283(28)
C23A C 0.4457(7) -0.2745(24) 0.1074(27)
C11A C 0.4593(8) -0.2218(23) 0.6112(25)
C9A C 0.4770(7) -0.0087(22) 0.6139(26)
C10A C 0.4883(8) -0.1304(27) 0.6538(26)
Cl1 Cl 0.1061(3) 0.6083(6) -0.0499(11)
O3 O 0.104(1) 0.689(3) 0.078(4)
O4 O 0.149(1) 0.541(2) -0.047(3)
O5 O 0.109(1) 0.665(4) -0.169(5)
O6 O 0.069(1) 0.530(3) -0.018(4)
O7 O 0.205(1) 0.689(3) 0.509(4)
O8 O 0.263(1) 0.350(3) 0.663(4)
O9 O 0.222(2) 0.536(5) 0.767(8)
loop_
_geom_bond_atom_site_label_1
_geom_bond_atom_site_label_2
_geom_bond_site_symmetry_1
_geom_bond_site_symmetry_2
Cu1 O1 1_555 1_555
Cl1 O3 1_555 1_555
O1 C1 1_555 1_555
O2 Cu1 1_555 1_555
N1 Cu1 1_555 1_555
N2 C5 1_555 1_555
N3 Cu1 1_555 1_555
N4 Cu1 1_555 1_555
C1 C2 1_555 1_555
C2 N1 1_555 1_555
C3 C2 1_555 1_555
C4 C3 1_555 1_555
C5 C4 1_555 1_555
C6 N2 1_555 1_555
C7 C4 1_555 1_555
C8 C7 1_555 1_555
C9 C8 1_555 1_555
C10 C9 1_555 1_555
C11 C6 1_555 1_555
C12 N3 1_555 1_555
C13 C12 1_555 1_555
C14 C13 1_555 1_555
C15 C14 1_555 1_555
C16 N3 1_555 1_555
C17 N4 1_555 1_555
C18 C17 1_555 1_555
C19 C18 1_555 1_555
C20 C19 1_555 1_555
C21 N4 1_555 1_555
C22 C15 1_555 1_555
C23 C18 1_555 1_555
O4 Cl1 1_555 1_555
O5 Cl1 1_555 1_555
O6 Cl1 1_555 1_555
C1A O2 1_555 1_555
O2A C1 1_555 1_555
O1A C1A 1_555 1_555
C2A C1A 1_555 1_555
Cu1A O2A 1_555 1_555
Cu1A_2 O1A 1_555 1_555
N1A C2A 1_555 1_555
C3A C2A 1_555 1_555
O1A_2 Cu1A 1_555 1_555
N1A_2 Cu1A 1_555 1_555
N3A Cu1A 1_555 1_555
N4A Cu1A 1_555 1_555
C4A C3A 1_555 1_555
C12A N3A 1_555 1_555
C16A N3A 1_555 1_555
C17A N4A 1_555 1_555
C21A N4A 1_555 1_555
C5A C4A 1_555 1_555
C7A C4A 1_555 1_555
C13A C12A 1_555 1_555
C15A C16A 1_555 1_555
C18A C17A 1_555 1_555
C20A C21A 1_555 1_555
N2A C5A 1_555 1_555
C6A C7A 1_555 1_555
C8A C7A 1_555 1_555
C14A C13A 1_555 1_555
C22A C15A 1_555 1_555
C19A C18A 1_555 1_555
C23A C18A 1_555 1_555
C11A C6A 1_555 1_555
C9A C8A 1_555 1_555
C10A C11A 1_555 1_555
C6 C7 1_555 1_555
C10 C11 1_555 1_555
C15 C16 1_555 1_555
C16 C17 1_555 1_555
C20 C21 1_555 1_555
C22 C23 1_555 1_555
Cu1A_2 N1A 1_555 1_555
C16A C17A 1_555 1_555
C15A C14A 1_555 1_555
C20A C19A 1_555 1_555
N2A C6A 1_555 1_555
C22A C23A 1_555 1_555
C9A C10A 1_555 1_555

#END
