
#######################################################################
#
#                 Cambridge Crystallographic Data Centre
#                                CCDC 
#
#######################################################################
#
# If this CIF has been generated from an entry in the Cambridge 
# Structural Database, then it will include bibliographic, chemical, 
# crystal, experimental, refinement or atomic coordinate data resulting 
# from the CCDC's data processing and validation procedures.
#
#######################################################################

data_FIMYIL
_symmetry_cell_setting           triclinic
_symmetry_space_group_name_H-M   'P -1'
_symmetry_Int_Tables_number      2
_space_group_name_Hall           '-P 1'
loop_
_symmetry_equiv_pos_site_id
_symmetry_equiv_pos_as_xyz
1 x,y,z
2 -x,-y,-z
_cell_length_a                   8.5684(9)
_cell_length_b                   11.2096(12)
_cell_length_c                   12.5194(13)
_cell_angle_alpha                90.587(2)
_cell_angle_beta                 105.333(2)
_cell_angle_gamma                95.353(2)
_cell_volume                     1153.85
loop_
_atom_site_label
_atom_site_type_symbol
_atom_site_fract_x
_atom_site_fract_y
_atom_site_fract_z
C1 C -0.0556(3) 0.2485(2) 1.0152(2)
H1 H 0.0414 0.2975 1.0261
C2 C -0.2860(3) 0.1725(3) 1.0303(2)
H2 H -0.3801 0.1596 1.0539
C3 C -0.2501(3) 0.1063(3) 0.9516(2)
H3 H -0.3128 0.0399 0.9120
C4 C -0.0151(3) 0.1171(2) 0.86615(18)
C5 C 0.0982(3) 0.1952(2) 0.8362(2)
H4 H 0.1181 0.2740 0.8641
C6 C 0.1822(4) 0.1565(2) 0.7647(2)
H5 H 0.2611 0.2085 0.7460
C7 C 0.1493(3) 0.0406(2) 0.7210(2)
C8 C 0.0332(3) -0.0369(2) 0.7493(2)
H6 H 0.0092 -0.1144 0.7184
C9 C -0.0467(3) 0.0007(2) 0.82315(19)
H7 H -0.1224 -0.0523 0.8443
C10 C 0.3438(4) 0.0649(2) 0.6139(2)
C11 C 0.5024(4) 0.0436(2) 0.6548(2)
H8 H 0.5305 -0.0116 0.7099
C12 C 0.6214(3) 0.1044(2) 0.6140(2)
H9 H 0.7297 0.0897 0.6406
C13 C 0.5767(3) 0.1877(2) 0.53269(18)
C14 C 0.4163(3) 0.2100(2) 0.4935(2)
H10 H 0.3875 0.2671 0.4403
C15 C 0.2985(3) 0.1471(3) 0.5336(2)
H11 H 0.1897 0.1603 0.5065
C16 C 0.8572(3) 0.2869(3) 0.5463(2)
H12 H 0.9044 0.2819 0.6219
C17 C 0.9288(3) 0.3334(3) 0.4714(2)
H13 H 1.0365 0.3663 0.4868
C18 C 0.6842(3) 0.2735(2) 0.38246(19)
H14 H 0.5892 0.2564 0.3259
C19 C 0.1864(3) 0.4606(2) 1.2709(2)
C20 C 0.3573(3) 0.5219(2) 1.3105(2)
H15 H 0.4336 0.4617 1.3193
H16 H 0.3709 0.5601 1.3826
C21 C 0.3984(3) 0.6153(2) 1.2327(2)
H17 H 0.4985 0.6630 1.2705
H18 H 0.3127 0.6684 1.2146
C22 C 0.4183(3) 0.5609(3) 1.1260(2)
H19 H 0.3222 0.5075 1.0910
H20 H 0.4292 0.6241 1.0755
C23 C 0.5665(3) 0.4918(2) 1.1487(2)
Cd1 Cd -0.144431(18) 0.394435(14) 1.208071(13)
N1 N 0.8199(2) 0.32558(19) 0.36801(17)
N2 N 0.6990(2) 0.24763(19) 0.48941(16)
N3 N -0.1639(2) 0.26142(18) 1.07020(16)
N4 N -0.1019(2) 0.15607(18) 0.94127(15)
O1 O 0.1579(2) 0.35291(19) 1.28724(19)
O2 O 0.0757(2) 0.52363(19) 1.2250(2)
O3 O 0.5530(2) 0.38042(17) 1.14072(17)
O4 O 0.7028(2) 0.55062(17) 1.1787(2)
O5 O 0.2254(3) -0.00648(17) 0.64864(19)
Cd1_2 Cd 0.855569(18) 0.394435(14) 0.208071(13)
Cd1_3 Cd 0.855569(18) 0.394435(14) 1.208071(13)
N1_2 N -0.1801(2) 0.32558(19) 1.36801(17)
O3_2 O -0.4470(2) 0.38042(17) 1.14072(17)
O4_2 O -0.2972(2) 0.55062(17) 1.1787(2)
O6 O 0.3324(3) 0.2060(2) 0.1758(2)
H21 H 0.3045 0.2089 0.2360
H22 H 0.3923 0.2695 0.1711
loop_
_geom_bond_atom_site_label_1
_geom_bond_atom_site_label_2
_geom_bond_site_symmetry_1
_geom_bond_site_symmetry_2
C1 H1 1_555 1_555
C2 H2 1_555 1_555
C3 C2 1_555 1_555
H3 C3 1_555 1_555
C4 C5 1_555 1_555
C5 H4 1_555 1_555
C6 C5 1_555 1_555
H5 C6 1_555 1_555
C7 C6 1_555 1_555
C8 C7 1_555 1_555
H6 C8 1_555 1_555
C9 C4 1_555 1_555
H7 C9 1_555 1_555
C10 C11 1_555 1_555
C11 H8 1_555 1_555
C12 C11 1_555 1_555
H9 C12 1_555 1_555
C13 C12 1_555 1_555
C14 C13 1_555 1_555
H10 C14 1_555 1_555
C15 C10 1_555 1_555
H11 C15 1_555 1_555
C16 H12 1_555 1_555
C17 C16 1_555 1_555
H13 C17 1_555 1_555
C18 H14 1_555 1_555
C19 C20 1_555 1_555
C20 H15 1_555 1_555
H16 C20 1_555 1_555
C21 C20 1_555 1_555
H17 C21 1_555 1_555
H18 C21 1_555 1_555
C22 C21 1_555 1_555
H19 C22 1_555 1_555
H20 C22 1_555 1_555
C23 C22 1_555 1_555
Cd1 N3 1_555 1_555
N1 C17 1_555 1_555
N2 C13 1_555 1_555
N3 C1 1_555 1_555
N4 C1 1_555 1_555
O1 C19 1_555 1_555
O2 C19 1_555 1_555
O3 C23 1_555 1_555
O4 C23 1_555 1_555
O5 C7 1_555 1_555
O6 H21 1_555 1_555
H22 O6 1_555 1_555
Cd1_2 N1 1_555 1_555
Cd1_3 O3 1_555 1_555
N1_2 Cd1 1_555 1_555
O3_2 Cd1 1_555 1_555
O4_2 Cd1 1_555 1_555
C2 N3 1_555 1_555
C3 N4 1_555 1_555
C4 N4 1_555 1_555
C8 C9 1_555 1_555
C10 O5 1_555 1_555
C14 C15 1_555 1_555
C16 N2 1_555 1_555
C18 N1 1_555 1_555
C18 N2 1_555 1_555
Cd1 O1 1_555 1_555
Cd1 O2 1_555 1_555
O4 Cd1_3 1_555 1_555

#END
