
#######################################################################
#
#                 Cambridge Crystallographic Data Centre
#                                CCDC 
#
#######################################################################
#
# If this CIF has been generated from an entry in the Cambridge 
# Structural Database, then it will include bibliographic, chemical, 
# crystal, experimental, refinement or atomic coordinate data resulting 
# from the CCDC's data processing and validation procedures.
#
#######################################################################

data_FIMYUX
_symmetry_cell_setting           cubic
_symmetry_space_group_name_H-M   'P a -3'
_symmetry_Int_Tables_number      205
_space_group_name_Hall           '-P 2ac 2ab 3'
loop_
_symmetry_equiv_pos_site_id
_symmetry_equiv_pos_as_xyz
1 x,y,z
2 1/2-x,-y,1/2+z
3 1/2+x,1/2-y,-z
4 -x,1/2+y,1/2-z
5 z,x,y
6 1/2-z,-x,1/2+y
7 1/2+z,1/2-x,-y
8 -z,1/2+x,1/2-y
9 y,z,x
10 1/2+y,1/2-z,-x
11 -y,1/2+z,1/2-x
12 1/2-y,-z,1/2+x
13 -x,-y,-z
14 1/2+x,y,1/2-z
15 1/2-x,1/2+y,z
16 x,1/2-y,1/2+z
17 -z,-x,-y
18 1/2+z,x,1/2-y
19 1/2-z,1/2+x,y
20 z,1/2-x,1/2+y
21 -y,-z,-x
22 1/2-y,1/2+z,x
23 y,1/2-z,1/2+x
24 1/2+y,z,1/2-x
_cell_length_a                   24.427(3)
_cell_length_b                   24.427(3)
_cell_length_c                   24.427(3)
_cell_angle_alpha                90
_cell_angle_beta                 90
_cell_angle_gamma                90
_cell_volume                     14575.1
loop_
_atom_site_label
_atom_site_type_symbol
_atom_site_fract_x
_atom_site_fract_y
_atom_site_fract_z
Cu1 Cu 0.05912(2) 0.21592(3) 0.38543(2)
Cu2 Cu 0.14849(2) 0.20257(3) 0.48689(2)
O1 O -0.16982(15) 0.05669(14) 0.37102(15)
O2 O 0.07903(14) 0.18629(17) 0.45479(14)
O3 O -0.01764(14) 0.19405(15) 0.39290(15)
O4 O -0.28928(16) 0.25755(16) 0.48015(18)
O5 O -0.23258(16) 0.32553(15) 0.45656(17)
O6 O -0.03857(19) 0.2764(2) 0.4264(3)
O7 O -0.2475(2) 0.0734(2) 0.4122(3)
N1 N 0.13800(18) 0.2264(2) 0.37199(18)
N2 N 0.17311(19) 0.2234(2) 0.41436(19)
C1 C 0.1670(3) 0.2316(3) 0.3259(3)
H1 H 0.1523 0.2349 0.2909
C2 C 0.2240(3) 0.2266(3) 0.3941(3)
H2 H 0.2559 0.2258 0.4149
C3 C -0.1104(2) 0.2121(2) 0.4174(2)
C4 C 0.2221(3) 0.2314(4) 0.3381(3)
H3 H 0.2513 0.2339 0.3138
C5 C -0.2449(2) 0.2761(2) 0.4615(2)
C6 C -0.2019(2) 0.0880(2) 0.3983(3)
C7 C -0.1810(2) 0.1435(2) 0.4126(2)
C8 C -0.2029(2) 0.2346(2) 0.4435(2)
C9 C -0.0515(2) 0.2296(2) 0.4117(2)
C10 C -0.1272(2) 0.1585(2) 0.4052(2)
H4 H -0.1019 0.1332 0.3921
C11 C -0.1491(2) 0.2498(2) 0.4360(2)
H5 H -0.1384 0.2856 0.4434
C12 C -0.2191(2) 0.1812(2) 0.4323(2)
H6 H -0.2552 0.1706 0.4381
Cu1Q Cu -0.11457(2) 0.05912(2) 0.28408(3)
Cu1W Cu -0.28408(3) 0.38543(2) 0.44088(2)
Cu2B Cu -0.35151(2) 0.29743(3) 0.51311(2)
Cu2J Cu -0.20257(3) -0.01311(2) 0.35151(2)
Cu2Q Cu -0.01311(2) 0.14849(2) 0.29743(3)
O1E O 0.12898(15) 0.16982(15) 0.55669(14)
O1V O 0.05669(14) 0.12898(15) 0.33018(15)
O3V O 0.19405(15) 0.10710(15) 0.48236(14)
O4B O 0.21072(16) 0.24245(16) 0.51985(18)
O5R O 0.04344(17) 0.26742(16) 0.32553(15)
O8 O 0.0500(5) 0.3153(4) 0.4853(6)
O9 O -0.0053(6) 0.0849(5) 0.4461(5)
N3 N 0.1634(8) 0.4034(5) 0.4142(5)
C13 C 0.1868(10) 0.3738(9) 0.4607(7)
H7 H 0.1586 0.3536 0.4790
H8 H 0.2029 0.3995 0.4858
H9 H 0.2145 0.3490 0.4479
C14 C 0.1454(9) 0.3664(6) 0.3776(7)
H10 H 0.1130 0.3489 0.3914
H11 H 0.1733 0.3394 0.3715
H12 H 0.1371 0.3845 0.3437
C15 C 0.2183(9) 0.4281(6) 0.3922(7)
H13 H 0.2109 0.4499 0.3604
H14 H 0.2346 0.4506 0.4200
H15 H 0.2429 0.3990 0.3828
C16 C 0.1339(9) 0.4537(6) 0.4245(7)
H16 H 0.0980 0.4462 0.4387
H17 H 0.1541 0.4751 0.4505
H18 H 0.1307 0.4736 0.3908
loop_
_geom_bond_atom_site_label_1
_geom_bond_atom_site_label_2
_geom_bond_site_symmetry_1
_geom_bond_site_symmetry_2
Cu1 O2 1_555 1_555
Cu2 O2 1_555 1_555
O1 C6 1_555 1_555
O3 Cu1 1_555 1_555
O4 C5 1_555 1_555
O5 C5 1_555 1_555
O6 C9 1_555 1_555
O7 C6 1_555 1_555
N1 Cu1 1_555 1_555
N2 Cu2 1_555 1_555
C1 N1 1_555 1_555
H1 C1 1_555 1_555
C2 N2 1_555 1_555
H2 C2 1_555 1_555
C3 C9 1_555 1_555
C4 C1 1_555 1_555
H3 C4 1_555 1_555
C5 C8 1_555 1_555
C6 C7 1_555 1_555
C7 C10 1_555 1_555
C8 C11 1_555 1_555
C9 O3 1_555 1_555
C10 C3 1_555 1_555
H4 C10 1_555 1_555
C11 C3 1_555 1_555
H5 C11 1_555 1_555
C12 C7 1_555 1_555
H6 C12 1_555 1_555
N3 C13 1_555 1_555
C13 H7 1_555 1_555
H8 C13 1_555 1_555
H9 C13 1_555 1_555
C14 N3 1_555 1_555
H10 C14 1_555 1_555
H11 C14 1_555 1_555
H12 C14 1_555 1_555
C15 N3 1_555 1_555
H13 C15 1_555 1_555
H14 C15 1_555 1_555
H15 C15 1_555 1_555
C16 N3 1_555 1_555
H16 C16 1_555 1_555
H17 C16 1_555 1_555
H18 C16 1_555 1_555
Cu1Q O1 1_555 1_555
Cu1W O5 1_555 1_555
Cu2B O4 1_555 1_555
Cu2J O1 1_555 1_555
Cu2Q O3 1_555 1_555
O1E Cu2 1_555 1_555
O1V Cu1 1_555 1_555
O3V Cu2 1_555 1_555
O4B Cu2 1_555 1_555
O5R Cu1 1_555 1_555
N1 N2 1_555 1_555
C2 C4 1_555 1_555
C8 C12 1_555 1_555
Cu2Q O1V 1_555 1_555

#END
