
#######################################################################
#
#                 Cambridge Crystallographic Data Centre
#                                CCDC 
#
#######################################################################
#
# If this CIF has been generated from an entry in the Cambridge 
# Structural Database, then it will include bibliographic, chemical, 
# crystal, experimental, refinement or atomic coordinate data resulting 
# from the CCDC's data processing and validation procedures.
#
#######################################################################

data_FIMZAE
_symmetry_cell_setting           cubic
_symmetry_space_group_name_H-M   'P a -3'
_symmetry_Int_Tables_number      205
_space_group_name_Hall           '-P 2ac 2ab 3'
loop_
_symmetry_equiv_pos_site_id
_symmetry_equiv_pos_as_xyz
1 x,y,z
2 1/2-x,-y,1/2+z
3 -x,1/2+y,1/2-z
4 1/2+x,1/2-y,-z
5 z,x,y
6 1/2+z,1/2-x,-y
7 1/2-z,-x,1/2+y
8 -z,1/2+x,1/2-y
9 y,z,x
10 -y,1/2+z,1/2-x
11 1/2+y,1/2-z,-x
12 1/2-y,-z,1/2+x
13 -x,-y,-z
14 1/2+x,y,1/2-z
15 x,1/2-y,1/2+z
16 1/2-x,1/2+y,z
17 -z,-x,-y
18 1/2-z,1/2+x,y
19 1/2+z,x,1/2-y
20 z,1/2-x,1/2+y
21 -y,-z,-x
22 y,1/2-z,1/2+x
23 1/2-y,1/2+z,x
24 1/2+y,z,1/2-x
_cell_length_a                   24.494(11)
_cell_length_b                   24.494(11)
_cell_length_c                   24.494(11)
_cell_angle_alpha                90
_cell_angle_beta                 90
_cell_angle_gamma                90
_cell_volume                     14695.3
loop_
_atom_site_label
_atom_site_type_symbol
_atom_site_fract_x
_atom_site_fract_y
_atom_site_fract_z
Cu1 Cu 0.202663(19) 0.484101(18) 0.146121(18)
Cu2 Cu 0.214023(19) 0.383052(17) 0.056308(18)
N1 N 0.22397(14) 0.41168(14) 0.17034(13)
N2 N 0.22575(15) 0.36941(13) 0.13500(13)
O1 O 0.19413(11) 0.39076(11) -0.02115(10)
O2 O 0.05523(10) 0.37149(11) -0.17202(11)
O3 O 0.18256(12) 0.45166(10) 0.07731(11)
O4 O 0.32260(11) 0.46008(12) -0.23478(11)
O5 O 0.25486(12) 0.48298(13) -0.29217(12)
O6 O 0.27609(13) 0.42498(17) -0.04237(13)
O7 O 0.06857(14) 0.41850(19) -0.24786(15)
C1 C 0.21007(15) 0.41754(16) -0.11340(15)
C2 C 0.15677(15) 0.40590(16) -0.12936(16)
C3 C 0.27274(15) 0.46477(15) -0.24770(16)
C4 C 0.14101(15) 0.41467(16) -0.18340(16)
C5 C 0.23157(15) 0.44588(16) -0.20599(15)
C6 C 0.17841(16) 0.43580(17) -0.22134(17)
C7 C 0.24760(16) 0.43662(16) -0.15224(16)
C8 C 0.22918(17) 0.41054(17) -0.05491(15)
C9 C 0.2303(2) 0.3232(2) 0.1640(2)
H1 H 0.2323 0.2883 0.1494
C10 C 0.08406(16) 0.40111(18) -0.20305(16)
C11 C 0.2313(3) 0.3356(2) 0.2191(2)
H2 H 0.2341 0.3114 0.2482
C12 C 0.2273(2) 0.3914(2) 0.22122(18)
H3 H 0.2270 0.4121 0.2531
C13 C 0.1426(4) 0.4778(4) 0.0424(4)
H4 H 0.1373 0.4563 0.0101
H5 H 0.1554 0.5135 0.0324
H6 H 0.1086 0.4811 0.0616
H7 H 0.1340(17) 0.3921(16) -0.1064(17)
H8 H 0.2856(17) 0.4409(16) -0.1426(16)
H9 H 0.167(2) 0.444(2) -0.258(2)
Cu1A Cu 0.297337(19) 0.515899(18) -0.353879(18)
Cu1J Cu -0.015899(18) 0.353879(18) -0.202663(19)
Cu1S Cu 0.146121(18) 0.297337(19) -0.015899(18)
Cu2S Cu 0.056308(18) 0.285977(19) -0.116948(17)
Cu2U Cu 0.383052(17) 0.443692(18) -0.285977(19)
O1V O 0.10924(11) 0.47885(10) 0.19413(11)
O2G O 0.17202(11) 0.55523(10) 0.12851(11)
O2V O 0.12851(11) 0.32798(11) 0.05523(10)
O4R O 0.26522(11) 0.32260(11) 0.03992(12)
O5A O 0.24514(12) 0.51702(13) 0.20783(12)
N3 N 0.4121(3) 0.3422(3) -0.0946(2)
C14 C 0.4608(4) 0.3219(5) -0.1224(5)
H10 H 0.4893 0.3162 -0.0962
H11 H 0.4725 0.3482 -0.1490
H12 H 0.4524 0.2881 -0.1403
C15 C 0.3718(5) 0.3532(7) -0.1348(5)
H13 H 0.3389 0.3654 -0.1174
H14 H 0.3645 0.3205 -0.1552
H15 H 0.3848 0.3811 -0.1591
C16 C 0.3922(7) 0.3063(9) -0.0566(7)
H16 H 0.3606 0.3217 -0.0393
H17 H 0.4198 0.2993 -0.0296
H18 H 0.3824 0.2727 -0.0742
C17 C 0.4205(9) 0.3897(9) -0.0676(10)
H19 H 0.3876 0.4001 -0.0489
H20 H 0.4303 0.4177 -0.0932
H21 H 0.4494 0.3850 -0.0416
O8 O 0.3139(2) 0.4801(3) 0.0479(3)
O9 O 0.5000 0.5000 0.0000
O10 O 0.3608(7) 0.6392(7) 0.1392(7)
loop_
_geom_bond_atom_site_label_1
_geom_bond_atom_site_label_2
_geom_bond_site_symmetry_1
_geom_bond_site_symmetry_2
Cu1 N1 1_555 1_555
Cu2 N2 1_555 1_555
N1 N2 1_555 1_555
N2 C9 1_555 1_555
O1 Cu2 1_555 1_555
O2 C10 1_555 1_555
O3 Cu1 1_555 1_555
O4 C3 1_555 1_555
O5 C3 1_555 1_555
O6 C8 1_555 1_555
O7 C10 1_555 1_555
C1 C2 1_555 1_555
C2 C4 1_555 1_555
C3 C5 1_555 1_555
C4 C6 1_555 1_555
C5 C6 1_555 1_555
C6 H9 1_555 1_555
C7 C1 1_555 1_555
C8 O1 1_555 1_555
C9 H1 1_555 1_555
C10 C4 1_555 1_555
C11 C9 1_555 1_555
H2 C11 1_555 1_555
C12 N1 1_555 1_555
H3 C12 1_555 1_555
C13 O3 1_555 1_555
H4 C13 1_555 1_555
H5 C13 1_555 1_555
H6 C13 1_555 1_555
H7 C2 1_555 1_555
H8 C7 1_555 1_555
N3 C14 1_555 1_555
C14 H10 1_555 1_555
H11 C14 1_555 1_555
H12 C14 1_555 1_555
C15 N3 1_555 1_555
H13 C15 1_555 1_555
H14 C15 1_555 1_555
H15 C15 1_555 1_555
C16 N3 1_555 1_555
H16 C16 1_555 1_555
H17 C16 1_555 1_555
H18 C16 1_555 1_555
C17 N3 1_555 1_555
H19 C17 1_555 1_555
H20 C17 1_555 1_555
H21 C17 1_555 1_555
Cu1A O5 1_555 1_555
Cu1J O2 1_555 1_555
Cu1S O1 1_555 1_555
Cu2S O2 1_555 1_555
Cu2U O4 1_555 1_555
O1V Cu1 1_555 1_555
O2G Cu1 1_555 1_555
O2V Cu2 1_555 1_555
O4R Cu2 1_555 1_555
O5A Cu1 1_555 1_555
Cu2 O3 1_555 1_555
C1 C8 1_555 1_555
C5 C7 1_555 1_555
C11 C12 1_555 1_555
Cu1S O2V 1_555 1_555

#END
