
#######################################################################
#
#                 Cambridge Crystallographic Data Centre
#                                CCDC 
#
#######################################################################
#
# If this CIF has been generated from an entry in the Cambridge 
# Structural Database, then it will include bibliographic, chemical, 
# crystal, experimental, refinement or atomic coordinate data resulting 
# from the CCDC's data processing and validation procedures.
#
#######################################################################

data_FINGEO
_symmetry_cell_setting           triclinic
_symmetry_space_group_name_H-M   'P -1'
_symmetry_Int_Tables_number      2
_space_group_name_Hall           '-P 1'
loop_
_symmetry_equiv_pos_site_id
_symmetry_equiv_pos_as_xyz
1 x,y,z
2 -x,-y,-z
_cell_length_a                   6.6349(8)
_cell_length_b                   11.3135(9)
_cell_length_c                   13.1101(9)
_cell_angle_alpha                64.454(7)
_cell_angle_beta                 79.551(8)
_cell_angle_gamma                84.984(8)
_cell_volume                     873.119
loop_
_atom_site_label
_atom_site_type_symbol
_atom_site_fract_x
_atom_site_fract_y
_atom_site_fract_z
Ni1 Ni 0.0000 0.0000 0.0000
S1 S 0.2908(1) -0.0725(1) 0.1051(1)
S2 S -0.1465(1) -0.0911(1) 0.2029(1)
C1 C 0.1019(4) -0.1235(3) 0.2197(2)
O1 O 0.1361(3) -0.1893(2) 0.3268(2)
C2 C 0.3457(5) -0.2253(4) 0.3473(3)
C3 C 0.3384(6) -0.2996(4) 0.4732(3)
C4 C 0.2180(7) -0.4248(4) 0.5257(4)
C5 C 0.2167(9) -0.5018(5) 0.6534(4)
C6 C -0.0015(4) -0.4340(2) 0.0008(2)
C7 C 0.1749(5) -0.3595(3) -0.0368(3)
C8 C 0.1664(5) -0.2380(3) -0.0346(3)
N1 N -0.0033(4) -0.1869(2) 0.0018(2)
C9 C -0.1732(5) -0.2572(2) 0.0377(3)
C10 C -0.1779(5) -0.3805(3) 0.0386(3)
S1A S -0.2908(1) 0.0725(1) -0.1051(1)
S2A S 0.1465(1) 0.0911(1) -0.2029(1)
N1A N 0.0033(4) 0.1869(2) -0.0018(2)
C6A C 0.0015(4) -0.5660(2) -0.0008(2)
C1A C -0.1019(4) 0.1235(3) -0.2197(2)
C7A C -0.1749(5) -0.6405(3) 0.0368(3)
C10A C 0.1779(5) -0.6195(3) -0.0386(3)
O1A O -0.1361(3) 0.1893(2) -0.3268(2)
C8A C -0.1664(5) -0.7620(3) 0.0346(3)
C9A C 0.1732(5) -0.7428(2) -0.0377(3)
C2A C -0.3457(5) 0.2253(4) -0.3473(3)
C3A C -0.3384(6) 0.2996(4) -0.4732(3)
C4A C -0.2180(7) 0.4248(4) -0.5257(4)
C5A C -0.2167(9) 0.5018(5) -0.6534(4)
N1A_2 N 0.0033(4) -0.8131(2) -0.0018(2)
Ni1_2 Ni 0.0000 -1.0000 0.0000
Cl1 Cl 0.8013(2) -0.1631(1) 0.5229(1)
Cl2 Cl 0.9017(3) -0.1441(2) 0.7172(1)
Cl3 Cl 0.4853(2) -0.1218(2) 0.6829(1)
Cl4 Cl 0.6911(2) -0.3692(1) 0.7453(1)
C11 C 0.7183(6) -0.1981(4) 0.6661(3)
loop_
_geom_bond_atom_site_label_1
_geom_bond_atom_site_label_2
_geom_bond_site_symmetry_1
_geom_bond_site_symmetry_2
Ni1 S1 1_555 1_555
S1 C1 1_555 1_555
S2 Ni1 1_555 1_555
C1 S2 1_555 1_555
O1 C1 1_555 1_555
C2 O1 1_555 1_555
C3 C2 1_555 1_555
C4 C3 1_555 1_555
C5 C4 1_555 1_555
C6 C7 1_555 1_555
C7 C8 1_555 1_555
C8 N1 1_555 1_555
N1 Ni1 1_555 1_555
C9 N1 1_555 1_555
C10 C6 1_555 1_555
Cl1 C11 1_555 1_555
Cl2 C11 1_555 1_555
Cl3 C11 1_555 1_555
Cl4 C11 1_555 1_555
S1A Ni1 1_555 1_555
S2A Ni1 1_555 1_555
N1A Ni1 1_555 1_555
C6A C6 1_555 1_555
C1A S1A 1_555 1_555
C7A C6A 1_555 1_555
C10A C6A 1_555 1_555
O1A C1A 1_555 1_555
C8A C7A 1_555 1_555
C9A C10A 1_555 1_555
C2A O1A 1_555 1_555
C3A C2A 1_555 1_555
C4A C3A 1_555 1_555
C5A C4A 1_555 1_555
N1A_2 C8A 1_555 1_555
Ni1_2 N1A_2 1_555 1_555
C9 C10 1_555 1_555
S2A C1A 1_555 1_555
C9A N1A_2 1_555 1_555

#END
