
#######################################################################
#
#                 Cambridge Crystallographic Data Centre
#                                CCDC 
#
#######################################################################
#
# If this CIF has been generated from an entry in the Cambridge 
# Structural Database, then it will include bibliographic, chemical, 
# crystal, experimental, refinement or atomic coordinate data resulting 
# from the CCDC's data processing and validation procedures.
#
#######################################################################

data_FINHOA
_symmetry_cell_setting           monoclinic
_symmetry_space_group_name_H-M   'C 2/c'
_symmetry_Int_Tables_number      15
_space_group_name_Hall           '-C 2yn'
loop_
_symmetry_equiv_pos_site_id
_symmetry_equiv_pos_as_xyz
1 x,y,z
2 1/2+x,1/2+y,z
3 -x,y,1/2-z
4 1/2-x,1/2+y,1/2-z
5 -x,-y,-z
6 1/2-x,1/2-y,-z
7 x,-y,1/2+z
8 1/2+x,1/2-y,1/2+z
_cell_length_a                   24.144(5)
_cell_length_b                   7.1622(14)
_cell_length_c                   17.283(4)
_cell_angle_alpha                90
_cell_angle_beta                 131.73(3)
_cell_angle_gamma                90
_cell_volume                     2230.4
loop_
_atom_site_label
_atom_site_type_symbol
_atom_site_fract_x
_atom_site_fract_y
_atom_site_fract_z
Cu1 Cu 0.156489(18) 0.38872(5) 0.09855(3)
O1 O 0.17556(15) 0.4708(4) 0.0096(2)
N1 N 0.05089(13) 0.2946(4) -0.01722(18)
C1 C 0.01639(19) 0.2576(5) -0.1158(3)
H1 H 0.0411 0.2798 -0.1391
N2 N 0.12758(14) 0.3559(4) 0.17753(19)
O2 O 0.03202(13) 0.2842(4) 0.17099(18)
C2 C -0.05532(19) 0.1871(6) -0.1847(3)
H2 H -0.0782 0.1618 -0.2531
O3 O 0.23773(12) 0.5397(4) 0.22185(16)
C3 C -0.09181(18) 0.1552(5) -0.1504(3)
H3 H -0.1399 0.1077 -0.1954
C4 C -0.05662(16) 0.1941(5) -0.0479(2)
H4 H -0.0808 0.1747 -0.0236
O4 O 0.28414(14) 0.6261(3) 0.37901(18)
C5 C 0.01538(15) 0.2625(4) 0.0173(2)
C6 C 0.06047(15) 0.3029(4) 0.1309(2)
C7 C 0.18182(17) 0.4159(4) 0.2847(2)
H5 H 0.2057 0.3083 0.3302
H6 H 0.1578 0.4873 0.3030
C8 C 0.23899(16) 0.5362(5) 0.2963(2)
H11 H 0.153(3) 0.557(7) -0.031(4)
H12 H 0.221(3) 0.460(8) 0.035(4)
Cu1C Cu 0.343511(18) 0.88872(5) 0.40145(3)
O4C O 0.21586(14) 0.1261(3) 0.12099(18)
O5 O 0.30521(18) 0.4487(5) 0.0572(3)
H7 H 0.331(2) 0.550(7) 0.076(3)
H10 H 0.299(3) 0.413(7) 0.019(4)
O6 O 0.09653(14) 0.2521(4) 0.3715(2)
H8 H 0.077(2) 0.270(7) 0.310(4)
H9 H 0.052(3) 0.271(8) 0.364(4)
loop_
_geom_bond_atom_site_label_1
_geom_bond_atom_site_label_2
_geom_bond_site_symmetry_1
_geom_bond_site_symmetry_2
Cu1 O1 1_555 1_555
O1 H11 1_555 1_555
N1 Cu1 1_555 1_555
C1 N1 1_555 1_555
H1 C1 1_555 1_555
N2 Cu1 1_555 1_555
O2 C6 1_555 1_555
C2 C1 1_555 1_555
H2 C2 1_555 1_555
O3 Cu1 1_555 1_555
C3 C2 1_555 1_555
H3 C3 1_555 1_555
C4 C3 1_555 1_555
H4 C4 1_555 1_555
O4 C8 1_555 1_555
C5 N1 1_555 1_555
O5 H7 1_555 1_555
C6 N2 1_555 1_555
O6 H8 1_555 1_555
C7 N2 1_555 1_555
H5 C7 1_555 1_555
H6 C7 1_555 1_555
C8 O3 1_555 1_555
H9 O6 1_555 1_555
H10 O5 1_555 1_555
H12 O1 1_555 1_555
Cu1C O4 1_555 1_555
O4C Cu1 1_555 1_555
C4 C5 1_555 1_555
C5 C6 1_555 1_555
C7 C8 1_555 1_555

#END
