
#######################################################################
#
#                 Cambridge Crystallographic Data Centre
#                                CCDC 
#
#######################################################################
#
# If this CIF has been generated from an entry in the Cambridge 
# Structural Database, then it will include bibliographic, chemical, 
# crystal, experimental, refinement or atomic coordinate data resulting 
# from the CCDC's data processing and validation procedures.
#
#######################################################################

data_FINJIX
_symmetry_cell_setting           monoclinic
_symmetry_space_group_name_H-M   'C 2'
_symmetry_Int_Tables_number      5
_space_group_name_Hall           'C 2y'
loop_
_symmetry_equiv_pos_site_id
_symmetry_equiv_pos_as_xyz
1 x,y,z
2 -x,y,-z
3 1/2+x,1/2+y,z
4 1/2-x,1/2+y,-z
_cell_length_a                   26.123(5)
_cell_length_b                   9.5698(19)
_cell_length_c                   7.7492(15)
_cell_angle_alpha                90
_cell_angle_beta                 99.14(3)
_cell_angle_gamma                90
_cell_volume                     1912.64
loop_
_atom_site_label
_atom_site_type_symbol
_atom_site_fract_x
_atom_site_fract_y
_atom_site_fract_z
Mn1 Mn 0.72606(3) 0.02709(8) 0.76893(10)
S1 S 0.78150(5) -0.30024(13) 0.83864(18)
O1 O 0.76467(16) -0.1604(4) 0.8853(5)
O2 O 0.73998(18) -0.3663(6) 0.7171(8)
O3 O 0.7909(2) -0.3834(5) 0.9946(7)
O4 O 0.82781(17) -0.2918(6) 0.7550(6)
O5 O 0.69370(19) 0.2116(5) 0.6122(6)
H1 H 0.6818 0.2685 0.6713
H2 H 0.6814 0.2134 0.5093
O6 O 0.73549(17) -0.0563(5) 0.5147(5)
H3 H 0.7386 -0.0030 0.4336
H4 H 0.7468 -0.1352 0.4924
N1 N 0.80572(17) 0.1315(5) 0.7901(7)
N2 N 1.14461(18) 0.4372(6) 0.7419(7)
C1 C 0.8937(2) 0.1156(7) 0.7409(13)
H5 H 0.9202 0.0597 0.7121
C2 C 0.8458(2) 0.0595(7) 0.7483(11)
H6 H 0.8409 -0.0349 0.7225
C3 C 0.8135(2) 0.2650(7) 0.8285(8)
H7 H 0.7867 0.3155 0.8646
C4 C 0.8600(2) 0.3344(7) 0.8179(9)
H8 H 0.8627 0.4302 0.8375
C5 C 0.9023(2) 0.2586(7) 0.7773(9)
C6 C 0.9505(2) 0.3256(8) 0.7688(10)
H9 H 0.9517 0.4222 0.7819
C7 C 0.9938(2) 0.2617(7) 0.7439(10)
H10 H 0.9921 0.1654 0.7275
C8 C 1.0449(2) 0.3295(7) 0.7397(9)
C9 C 1.0556(2) 0.4666(8) 0.7748(11)
H11 H 1.0293 0.5253 0.7995
C10 C 1.1056(2) 0.5217(11) 0.7747(10)
H12 H 1.1118 0.6162 0.7970
C11 C 1.1339(2) 0.3065(7) 0.7049(10)
H13 H 1.1603 0.2497 0.6774
C12 C 1.0850(3) 0.2468(8) 0.7042(11)
H14 H 1.0797 0.1523 0.6799
Mn1B Mn 1.22606(3) 0.52709(8) 0.76893(10)
Mn1C Mn 0.77394(3) -0.47291(8) 1.23107(10)
O3C O 0.7091(2) 0.1166(5) 1.0054(7)
N2B N 0.64461(18) -0.0628(6) 0.7419(7)
O7 O 0.6691(2) 0.4338(6) 0.7951(8)
H15 H 0.6841 0.5045 0.7638
H16 H 0.6773 0.4245 0.9040
loop_
_geom_bond_atom_site_label_1
_geom_bond_atom_site_label_2
_geom_bond_site_symmetry_1
_geom_bond_site_symmetry_2
Mn1 O1 1_555 1_555
S1 O1 1_555 1_555
O2 S1 1_555 1_555
O3 S1 1_555 1_555
O4 S1 1_555 1_555
O5 Mn1 1_555 1_555
H1 O5 1_555 1_555
H2 O5 1_555 1_555
O6 Mn1 1_555 1_555
H3 O6 1_555 1_555
H4 O6 1_555 1_555
N1 Mn1 1_555 1_555
N2 C10 1_555 1_555
C1 H5 1_555 1_555
C2 N1 1_555 1_555
H6 C2 1_555 1_555
C3 N1 1_555 1_555
H7 C3 1_555 1_555
C4 C3 1_555 1_555
H8 C4 1_555 1_555
C5 C1 1_555 1_555
C6 C5 1_555 1_555
H9 C6 1_555 1_555
C7 C6 1_555 1_555
H10 C7 1_555 1_555
C8 C7 1_555 1_555
C9 C8 1_555 1_555
H11 C9 1_555 1_555
C10 C9 1_555 1_555
H12 C10 1_555 1_555
C11 N2 1_555 1_555
H13 C11 1_555 1_555
C12 C8 1_555 1_555
H14 C12 1_555 1_555
O7 H15 1_555 1_555
H16 O7 1_555 1_555
Mn1B N2 1_555 1_555
Mn1C O3 1_555 1_555
O3C Mn1 1_555 1_555
N2B Mn1 1_555 1_555
C1 C2 1_555 1_555
C4 C5 1_555 1_555
C11 C12 1_555 1_555

#END
