
#######################################################################
#
#                 Cambridge Crystallographic Data Centre
#                                CCDC 
#
#######################################################################
#
# If this CIF has been generated from an entry in the Cambridge 
# Structural Database, then it will include bibliographic, chemical, 
# crystal, experimental, refinement or atomic coordinate data resulting 
# from the CCDC's data processing and validation procedures.
#
#######################################################################

data_FINJOD
_symmetry_cell_setting           triclinic
_symmetry_space_group_name_H-M   'P -1'
_symmetry_Int_Tables_number      2
_space_group_name_Hall           '-P 1'
loop_
_symmetry_equiv_pos_site_id
_symmetry_equiv_pos_as_xyz
1 x,y,z
2 -x,-y,-z
_cell_length_a                   13.0238(4)
_cell_length_b                   13.6275(4)
_cell_length_c                   14.4626(3)
_cell_angle_alpha                81.104(2)
_cell_angle_beta                 88.117(2)
_cell_angle_gamma                82.840(2)
_cell_volume                     2515.95
loop_
_atom_site_label
_atom_site_type_symbol
_atom_site_fract_x
_atom_site_fract_y
_atom_site_fract_z
Hg1 Hg 0.60155(2) 0.39013(3) 0.442116(19)
Hg2 Hg 0.53867(2) 0.63606(2) 0.055534(19)
Sn1 Sn 0.42802(4) 0.62446(4) 0.30488(3)
Sn2 Sn 0.50630(3) 0.36704(4) 0.19561(3)
Se1 Se 0.58735(6) 0.58153(6) 0.40391(5)
Se2 Se 0.35328(5) 0.48271(6) 0.24562(5)
Se3 Se 0.45572(7) 0.75391(6) 0.16676(5)
Se4 Se 0.29025(6) 0.69469(6) 0.40964(5)
Se5 Se 0.59173(6) 0.25995(6) 0.33557(5)
Se6 Se 0.63067(6) 0.45849(6) 0.08807(5)
Se7 Se 0.42906(6) 0.25272(6) 0.10540(5)
Hg1A Hg 0.39845(2) 0.60987(3) 0.557884(19)
Hg2A Hg 0.46133(2) 0.36394(2) -0.055534(19)
Se1A Se 0.41265(6) 0.41847(6) 0.59609(5)
Se4A Se 0.70975(6) 0.30531(6) 0.59036(5)
Se7A Se 0.57094(6) 0.74728(6) -0.10540(5)
Fe1 Fe 1.01125(7) 0.21077(8) 0.24091(6)
N1 N 0.9476(4) 0.3367(4) 0.2803(3)
N2 N 1.1262(4) 0.2315(5) 0.3181(4)
N3 N 0.9468(4) 0.1253(5) 0.3431(4)
N4 N 1.0812(4) 0.0825(5) 0.2134(4)
N5 N 1.0657(4) 0.2909(5) 0.1291(4)
N6 N 0.8966(4) 0.2057(5) 0.1563(4)
C1 C 0.8553(6) 0.3887(6) 0.2603(5)
H1 H 0.8082 0.3611 0.2281
C2 C 0.8271(6) 0.4828(6) 0.2859(5)
H2 H 0.7620 0.5166 0.2704
C3 C 0.8930(7) 0.5261(7) 0.3334(5)
H3 H 0.8741 0.5894 0.3496
C4 C 0.9917(7) 0.4726(6) 0.3576(5)
C5 C 1.0722(8) 0.5074(7) 0.4056(5)
H4 H 1.0611 0.5713 0.4220
C6 C 1.1615(7) 0.4516(8) 0.4271(6)
H5 H 1.2101 0.4763 0.4602
C7 C 1.1846(6) 0.3553(6) 0.4010(5)
C8 C 1.2786(6) 0.2952(8) 0.4176(5)
H6 H 1.3297 0.3154 0.4515
C9 C 1.2950(6) 0.2077(7) 0.3842(5)
H7 H 1.3578 0.1674 0.3945
C10 C 1.2184(5) 0.1776(6) 0.3343(5)
H8 H 1.2318 0.1172 0.3112
C11 C 1.1107(5) 0.3206(6) 0.3514(4)
C12 C 1.0147(5) 0.3775(6) 0.3296(4)
C13 C 0.8760(6) 0.1502(7) 0.4077(5)
H9 H 0.8583 0.2174 0.4128
C14 C 0.8288(7) 0.0794(8) 0.4667(6)
H10 H 0.7777 0.0995 0.5086
C15 C 0.8563(7) -0.0194(8) 0.4641(6)
H11 H 0.8245 -0.0669 0.5044
C16 C 0.9320(7) -0.0497(7) 0.4011(6)
C17 C 0.9709(9) -0.1516(8) 0.3917(8)
H12 H 0.9440 -0.2035 0.4306
C18 C 1.0445(9) -0.1741(7) 0.3288(8)
H13 H 1.0678 -0.2408 0.3254
C19 C 1.0881(7) -0.0971(7) 0.2667(7)
C20 C 1.1665(9) -0.1145(8) 0.2016(7)
H14 H 1.1965 -0.1795 0.1979
C21 C 1.1988(8) -0.0360(9) 0.1433(7)
H15 H 1.2512 -0.0471 0.0996
C22 C 1.1526(7) 0.0628(7) 0.1490(6)
H16 H 1.1729 0.1153 0.1062
C23 C 1.0494(6) 0.0028(6) 0.2714(5)
C24 C 0.9745(6) 0.0275(6) 0.3413(5)
C25 C 1.1509(6) 0.3365(6) 0.1183(5)
H17 H 1.1972 0.3264 0.1674
C26 C 1.1734(7) 0.3992(7) 0.0360(6)
H18 H 1.2335 0.4301 0.0316
C27 C 1.1088(9) 0.4148(7) -0.0366(6)
H19 H 1.1243 0.4560 -0.0915
C28 C 1.0170(8) 0.3684(7) -0.0295(5)
C29 C 0.9399(9) 0.3796(8) -0.0993(6)
H20 H 0.9503 0.4188 -0.1566
C30 C 0.8534(9) 0.3356(8) -0.0854(6)
H21 H 0.8046 0.3460 -0.1325
C31 C 0.8347(7) 0.2730(7) 0.0004(5)
C32 C 0.7449(8) 0.2239(7) 0.0205(7)
H22 H 0.6939 0.2292 -0.0242
C33 C 0.7349(6) 0.1696(8) 0.1055(7)
H23 H 0.6760 0.1379 0.1201
C34 C 0.8122(6) 0.1603(7) 0.1722(6)
H24 H 0.8041 0.1208 0.2298
C35 C 0.9076(6) 0.2608(6) 0.0704(5)
C36 C 0.9992(6) 0.3069(6) 0.0558(5)
O1 O 0.758(2) 0.929(2) 0.237(2)
H25 H 0.7521 0.8768 0.2720
N7 N 0.731(3) 0.859(3) 0.058(3)
H26 H 0.7145 0.8087 0.0318
H27 H 0.6741 0.8943 0.0764
C37 C 0.820(3) 0.912(3) 0.167(2)
H28 H 0.8913 0.9030 0.1868
H29 H 0.8104 0.9675 0.1165
C38 C 0.793(4) 0.819(2) 0.137(2)
H30 H 0.8538 0.7766 0.1198
H31 H 0.7537 0.7805 0.1849
O2 O 0.3607(11) 0.9458(9) 0.3478(10)
H32 H 0.3061 0.9695 0.3699
N8 N 0.547(2) 0.9831(18) 0.2955(17)
H33 H 0.6110 0.9632 0.2780
H34 H 0.5444 1.0423 0.3148
C39 C 0.5340(13) 0.9084(17) 0.3697(18)
H35 H 0.5866 0.9053 0.4163
H36 H 0.5382 0.8439 0.3484
C40 C 0.4317(15) 0.9353(18) 0.4081(12)
H37 H 0.4173 0.8838 0.4594
H38 H 0.4311 0.9975 0.4331
O3 O 0.769(3) 0.774(2) 0.316(2)
H39? H 0.7284 0.7360 0.3401
N9? N 0.842(3) 0.866(3) 0.104(2)
H40? H 0.9028 0.8543 0.1343
H41? H 0.8386 0.8166 0.0691
C41? C 0.782(4) 0.764(2) 0.227(2)
H42? H 0.7339 0.7216 0.2093
H43? H 0.8518 0.7344 0.2153
C42? C 0.763(3) 0.865(3) 0.172(2)
H44? H 0.6951 0.8761 0.1428
H45? H 0.7668 0.9168 0.2105
O4? O 0.563(4) 1.005(4) 0.021(3)
H46? H 0.6115 0.9613 0.0172
H47? H 0.5682 1.0004 0.0782
loop_
_geom_bond_atom_site_label_1
_geom_bond_atom_site_label_2
_geom_bond_site_symmetry_1
_geom_bond_site_symmetry_2
Hg1 Se1 1_555 1_555
Hg2 Se3 1_555 1_555
Sn1 Se1 1_555 1_555
Sn2 Se2 1_555 1_555
Se1 Hg1A 1_555 1_555
Se2 Sn1 1_555 1_555
Se3 Sn1 1_555 1_555
Se4 Sn1 1_555 1_555
Se5 Hg1 1_555 1_555
Se6 Hg2 1_555 1_555
Se7 Sn2 1_555 1_555
Fe1 N1 1_555 1_555
N1 C1 1_555 1_555
N2 Fe1 1_555 1_555
N3 Fe1 1_555 1_555
N4 Fe1 1_555 1_555
N5 Fe1 1_555 1_555
N6 Fe1 1_555 1_555
C1 H1 1_555 1_555
C2 C1 1_555 1_555
H2 C2 1_555 1_555
C3 C2 1_555 1_555
H3 C3 1_555 1_555
C4 C3 1_555 1_555
C5 C4 1_555 1_555
H4 C5 1_555 1_555
C6 C5 1_555 1_555
H5 C6 1_555 1_555
C7 C6 1_555 1_555
C8 C7 1_555 1_555
H6 C8 1_555 1_555
C9 C8 1_555 1_555
H7 C9 1_555 1_555
C10 N2 1_555 1_555
H8 C10 1_555 1_555
C11 N2 1_555 1_555
C12 N1 1_555 1_555
C13 N3 1_555 1_555
H9 C13 1_555 1_555
C14 C13 1_555 1_555
H10 C14 1_555 1_555
C15 C14 1_555 1_555
H11 C15 1_555 1_555
C16 C15 1_555 1_555
C17 C16 1_555 1_555
H12 C17 1_555 1_555
C18 C17 1_555 1_555
H13 C18 1_555 1_555
C19 C18 1_555 1_555
C20 C19 1_555 1_555
H14 C20 1_555 1_555
C21 C20 1_555 1_555
H15 C21 1_555 1_555
C22 N4 1_555 1_555
H16 C22 1_555 1_555
C23 N4 1_555 1_555
C24 N3 1_555 1_555
C25 N5 1_555 1_555
H17 C25 1_555 1_555
C26 C25 1_555 1_555
H18 C26 1_555 1_555
C27 C26 1_555 1_555
H19 C27 1_555 1_555
C28 C27 1_555 1_555
C29 C28 1_555 1_555
H20 C29 1_555 1_555
C30 C29 1_555 1_555
H21 C30 1_555 1_555
C31 C30 1_555 1_555
C32 C31 1_555 1_555
H22 C32 1_555 1_555
C33 C32 1_555 1_555
H23 C33 1_555 1_555
C34 N6 1_555 1_555
H24 C34 1_555 1_555
C35 N6 1_555 1_555
C36 N5 1_555 1_555
O1 H25 1_555 1_555
N7 H26 1_555 1_555
H27 N7 1_555 1_555
C37 O1 1_555 1_555
H28 C37 1_555 1_555
H29 C37 1_555 1_555
C38 N7 1_555 1_555
H30 C38 1_555 1_555
H31 C38 1_555 1_555
O2 H32 1_555 1_555
N8 H33 1_555 1_555
H34 N8 1_555 1_555
C39 N8 1_555 1_555
H35 C39 1_555 1_555
H36 C39 1_555 1_555
C40 O2 1_555 1_555
H37 C40 1_555 1_555
H38 C40 1_555 1_555
Hg1A Se4 1_555 1_555
Hg2A Se7 1_555 1_555
Se1A Hg1 1_555 1_555
Se4A Hg1 1_555 1_555
Se7A Hg2 1_555 1_555
Sn2 Se5 1_555 1_555
Sn2 Se6 1_555 1_555
C4 C12 1_555 1_555
C7 C11 1_555 1_555
C9 C10 1_555 1_555
C11 C12 1_555 1_555
C16 C24 1_555 1_555
C19 C23 1_555 1_555
C21 C22 1_555 1_555
C23 C24 1_555 1_555
C28 C36 1_555 1_555
C31 C35 1_555 1_555
C33 C34 1_555 1_555
C35 C36 1_555 1_555
C37 C38 1_555 1_555
C39 C40 1_555 1_555
Hg1A Se1A 1_555 1_555

#END
