
#######################################################################
#
#                 Cambridge Crystallographic Data Centre
#                                CCDC 
#
#######################################################################
#
# If this CIF has been generated from an entry in the Cambridge 
# Structural Database, then it will include bibliographic, chemical, 
# crystal, experimental, refinement or atomic coordinate data resulting 
# from the CCDC's data processing and validation procedures.
#
#######################################################################

data_FINLIZ
_symmetry_cell_setting           monoclinic
_symmetry_space_group_name_H-M   'C 2'
_symmetry_Int_Tables_number      5
_space_group_name_Hall           'C 2y'
loop_
_symmetry_equiv_pos_site_id
_symmetry_equiv_pos_as_xyz
1 x,y,z
2 -x,y,-z
3 1/2+x,1/2+y,z
4 1/2-x,1/2+y,-z
_cell_length_a                   17.160(7)
_cell_length_b                   15.030(6)
_cell_length_c                   12.796(5)
_cell_angle_alpha                90
_cell_angle_beta                 105.274(4)
_cell_angle_gamma                90
_cell_volume                     3183.7
loop_
_atom_site_label
_atom_site_type_symbol
_atom_site_fract_x
_atom_site_fract_y
_atom_site_fract_z
N5 N 0.2505(13) 0.8523(14) 0.7530(15)
O9 O 0.2598(6) 0.8823(6) 0.8410(9)
O10 O 0.2498(10) 0.8667(16) 0.6693(10)
O11 O 0.2049(8) 0.7718(8) 0.7603(9)
O12 O 0.3887(17) 0.2275(15) 0.6235(10)
H33 H 0.4245 0.2490 0.5919
Zn1 Zn 1.0000 1.01382(6) 0.0000
Zn2 Zn 0.5000 0.70591(8) -0.5000
C1 C 1.3698(8) 0.8285(8) 0.4650(8)
C2 C 1.3576(10) 0.9265(8) 0.5186(8)
H1 H 1.3397 0.9173 0.5836
H2 H 1.4091 0.9573 0.5391
C3 C 1.2956(9) 1.0768(7) 0.4978(9)
H3 H 1.2843 1.0676 0.5674
H4 H 1.3484 1.1045 0.5106
C4 C 1.2347(6) 1.1355(7) 0.4316(9)
H5 H 1.2605 1.1899 0.4173
H6 H 1.1959 1.1512 0.4717
C5 C 1.2170(7) 0.9488(7) 0.4140(9)
H7 H 1.2053 0.9307 0.4810
H8 H 1.2159 0.8957 0.3707
C6 C 1.1499(6) 1.0095(7) 0.3542(7)
H9 H 1.1142 1.0239 0.3993
H10 H 1.1185 0.9812 0.2885
C7 C 1.3166(5) 1.0050(10) 0.3393(10)
H11 H 1.3194 0.9505 0.3000
H12 H 1.3694 1.0330 0.3557
C8 C 1.2533(7) 1.0681(8) 0.2672(8)
H13 H 1.2800 1.1209 0.2498
H14 H 1.2268 1.0384 0.2000
C9 C 1.1323(5) 1.1575(6) 0.2650(6)
H15 H 1.1591 1.2134 0.2589
H16 H 1.0914 1.1688 0.3031
C10 C 1.0914(4) 1.1217(5) 0.1502(5)
C11 C 0.8750(4) 0.8800(6) -0.0318(6)
C12 C 0.8606(4) 0.7932(4) 0.0081(5)
H17 H 0.8472 0.8024 0.0764
H18 H 0.9116 0.7614 0.0247
C13 C 0.7849(4) 0.6611(4) 0.0074(5)
H19 H 0.7563 0.6817 0.0589
H20 H 0.8365 0.6366 0.0472
C14 C 0.7377(4) 0.5840(5) -0.0644(6)
H21 H 0.7747 0.5385 -0.0758
H22 H 0.6992 0.5571 -0.0304
C15 C 0.7156(5) 0.7795(8) -0.0900(10)
H23 H 0.7180 0.8304 -0.1357
H24 H 0.7012 0.8001 -0.0258
C16 C 0.6531(4) 0.7113(6) -0.1518(5)
H25 H 0.6151 0.6977 -0.1097
H26 H 0.6231 0.7366 -0.2203
C17 C 0.8208(6) 0.7072(9) -0.1592(7)
H27 H 0.8716 0.6752 -0.1404
H28 H 0.8280 0.7608 -0.1977
C18 C 0.7571(4) 0.6505(6) -0.2302(7)
H29 H 0.7811 0.5964 -0.2487
H30 H 0.7322 0.6821 -0.2967
C19 C 0.6308(4) 0.5593(6) -0.2380(7)
H31 H 0.6571 0.5025 -0.2397
H32 H 0.5883 0.5508 -0.2017
C20 C 0.5941(6) 0.5903(8) -0.3517(8)
N1 N 1.1911(5) 1.0946(5) 0.3267(6)
N2 N 1.2963(8) 0.9840(6) 0.4396(6)
N3 N 0.7974(3) 0.7313(4) -0.0587(4)
N4 N 0.6941(3) 0.6279(4) -0.1720(5)
O1 O 1.4241(6) 0.7907(8) 0.5387(8)
O2 O 1.3389(4) 0.8104(5) 0.3769(5)
O3 O 1.0354(3) 1.0717(4) 0.1425(4)
O4 O 1.1173(3) 1.1536(5) 0.0725(5)
O5 O 0.9223(3) 0.9301(4) 0.0366(4)
O6 O 0.8426(7) 0.9033(7) -0.1247(7)
O7 O 0.6212(5) 0.5763(6) -0.4217(7)
O8 O 0.5314(4) 0.6489(5) -0.3589(6)
C11A C 0.1250(4) 0.8800(6) -0.9682(6)
C12A C 0.1394(4) 0.7932(4) -1.0081(5)
H17A H 0.1528 0.8024 -1.0764
H18A H 0.0884 0.7614 -1.0247
C13A C 0.2151(4) 0.6611(4) -1.0074(5)
H19A H 0.2437 0.6817 -1.0589
H20A H 0.1635 0.6366 -1.0472
C14A C 0.2623(4) 0.5840(5) -0.9356(6)
H21A H 0.2253 0.5385 -0.9242
H22A H 0.3008 0.5571 -0.9696
C15A C 0.2844(5) 0.7795(8) -0.9100(10)
H23A H 0.2820 0.8304 -0.8643
H24A H 0.2988 0.8001 -0.9742
C16A C 0.3469(4) 0.7113(6) -0.8482(5)
H25A H 0.3849 0.6977 -0.8903
H26A H 0.3769 0.7366 -0.7797
C17A C 0.1792(6) 0.7072(9) -0.8408(7)
H27A H 0.1284 0.6752 -0.8596
H28A H 0.1720 0.7608 -0.8023
C18A C 0.2429(4) 0.6505(6) -0.7698(7)
H29A H 0.2189 0.5964 -0.7513
H30A H 0.2678 0.6821 -0.7033
C19A C 0.3692(4) 0.5593(6) -0.7620(7)
H31A H 0.3429 0.5025 -0.7603
H32A H 0.4117 0.5508 -0.7983
C20A C 0.4059(6) 0.5903(8) -0.6483(8)
N3A N 0.2026(3) 0.7313(4) -0.9413(4)
N4A N 0.3059(3) 0.6279(4) -0.8280(5)
O5A O 0.0777(3) 0.9301(4) -1.0366(4)
O6A O 0.1574(7) 0.9033(7) -0.8753(7)
O7A O 0.3788(5) 0.5763(6) -0.5783(7)
O8A O 0.4686(4) 0.6489(5) -0.6411(6)
C1A C 0.6302(8) 0.8285(8) -0.4650(8)
C2A C 0.6424(10) 0.9265(8) -0.5186(8)
H1A H 0.6603 0.9173 -0.5836
H2A H 0.5909 0.9573 -0.5391
C3A C 0.7044(9) 1.0768(7) -0.4978(9)
H3A H 0.7157 1.0676 -0.5674
H4A H 0.6516 1.1045 -0.5106
C4A C 0.7653(6) 1.1355(7) -0.4316(9)
H5A H 0.7395 1.1899 -0.4173
H6A H 0.8041 1.1512 -0.4717
C5A C 0.7830(7) 0.9488(7) -0.4140(9)
H7A H 0.7947 0.9307 -0.4810
H8A H 0.7841 0.8957 -0.3707
C6A C 0.8501(6) 1.0095(7) -0.3542(7)
H9A H 0.8858 1.0239 -0.3993
H10A H 0.8815 0.9812 -0.2885
C7A C 0.6834(5) 1.0050(10) -0.3393(10)
H11A H 0.6806 0.9505 -0.3000
H12A H 0.6306 1.0330 -0.3557
C8A C 0.7467(7) 1.0681(8) -0.2672(8)
H13A H 0.7200 1.1209 -0.2498
H14A H 0.7732 1.0384 -0.2000
C9A C 0.8677(5) 1.1575(6) -0.2650(6)
H15A H 0.8409 1.2134 -0.2589
H16A H 0.9086 1.1688 -0.3031
C10A C 0.9086(4) 1.1217(5) -0.1502(5)
N1A N 0.8089(5) 1.0946(5) -0.3267(6)
N2A N 0.7037(8) 0.9840(6) -0.4396(6)
O1A O 0.5759(6) 0.7907(8) -0.5387(8)
O2A O 0.6611(4) 0.8104(5) -0.3769(5)
O3A O 0.9646(3) 1.0717(4) -0.1425(4)
O4A O 0.8827(3) 1.1536(5) -0.0725(5)
Zn1_2 Zn 0.0000 1.01382(6) -1.0000
Zn2_2 Zn 1.5000 0.70591(8) 0.5000
O1_2 O 0.4241(6) 0.7907(8) -0.4613(8)
O5A_2 O 1.0777(3) 0.9301(4) -0.0366(4)
C21? C 0.4027(7) 0.9387(8) 0.0646(11)
H34? H 0.3846 0.9421 -0.0105
C22? C 0.4974(7) 0.8700(10) 0.2238(9)
H35? H 0.4726 0.9105 0.2633
H36? H 0.5551 0.8738 0.2504
H37? H 0.4803 0.8104 0.2332
C23? C 0.5086(16) 0.8503(13) 0.0264(10)
N6? N 0.4718(7) 0.8945(9) 0.1010(9)
O13? O 0.3559(5) 0.9780(6) 0.1162(7)
loop_
_geom_bond_atom_site_label_1
_geom_bond_atom_site_label_2
_geom_bond_site_symmetry_1
_geom_bond_site_symmetry_2
Zn1 O3 1_555 1_555
Zn2 O8 1_555 1_555
C1 C2 1_555 1_555
C2 H1 1_555 1_555
H2 C2 1_555 1_555
C3 H3 1_555 1_555
H4 C3 1_555 1_555
C4 C3 1_555 1_555
H5 C4 1_555 1_555
H6 C4 1_555 1_555
C5 H7 1_555 1_555
H8 C5 1_555 1_555
C6 C5 1_555 1_555
H9 C6 1_555 1_555
H10 C6 1_555 1_555
C7 H11 1_555 1_555
H12 C7 1_555 1_555
C8 C7 1_555 1_555
H13 C8 1_555 1_555
H14 C8 1_555 1_555
C9 H15 1_555 1_555
H16 C9 1_555 1_555
C10 C9 1_555 1_555
C11 C12 1_555 1_555
C12 H17 1_555 1_555
H18 C12 1_555 1_555
C13 H19 1_555 1_555
H20 C13 1_555 1_555
C14 C13 1_555 1_555
H21 C14 1_555 1_555
H22 C14 1_555 1_555
C15 H23 1_555 1_555
H24 C15 1_555 1_555
C16 C15 1_555 1_555
H25 C16 1_555 1_555
H26 C16 1_555 1_555
C17 H27 1_555 1_555
H28 C17 1_555 1_555
C18 C17 1_555 1_555
H29 C18 1_555 1_555
H30 C18 1_555 1_555
C19 H31 1_555 1_555
H32 C19 1_555 1_555
C20 C19 1_555 1_555
N1 C4 1_555 1_555
N2 C2 1_555 1_555
N3 C12 1_555 1_555
N4 C14 1_555 1_555
O1 C1 1_555 1_555
O2 C1 1_555 1_555
O3 C10 1_555 1_555
O4 C10 1_555 1_555
O5 Zn1 1_555 1_555
O6 C11 1_555 1_555
O7 C20 1_555 1_555
O8 C20 1_555 1_555
N5 O9 1_555 1_555
O10 N5 1_555 1_555
O11 N5 1_555 1_555
O12 H33 1_555 1_555
C11A C12A 1_555 1_555
C12A H17A 1_555 1_555
H18A C12A 1_555 1_555
C13A H19A 1_555 1_555
H20A C13A 1_555 1_555
C14A C13A 1_555 1_555
H21A C14A 1_555 1_555
H22A C14A 1_555 1_555
C15A H23A 1_555 1_555
H24A C15A 1_555 1_555
C16A C15A 1_555 1_555
H25A C16A 1_555 1_555
H26A C16A 1_555 1_555
C17A H27A 1_555 1_555
H28A C17A 1_555 1_555
C18A C17A 1_555 1_555
H29A C18A 1_555 1_555
H30A C18A 1_555 1_555
C19A H31A 1_555 1_555
H32A C19A 1_555 1_555
C20A C19A 1_555 1_555
N3A C12A 1_555 1_555
N4A C14A 1_555 1_555
O5A C11A 1_555 1_555
O6A C11A 1_555 1_555
O7A C20A 1_555 1_555
O8A Zn2 1_555 1_555
C1A C2A 1_555 1_555
C2A H1A 1_555 1_555
H2A C2A 1_555 1_555
C3A H3A 1_555 1_555
H4A C3A 1_555 1_555
C4A C3A 1_555 1_555
H5A C4A 1_555 1_555
H6A C4A 1_555 1_555
C5A H7A 1_555 1_555
H8A C5A 1_555 1_555
C6A C5A 1_555 1_555
H9A C6A 1_555 1_555
H10A C6A 1_555 1_555
C7A H11A 1_555 1_555
H12A C7A 1_555 1_555
C8A C7A 1_555 1_555
H13A C8A 1_555 1_555
H14A C8A 1_555 1_555
C9A H15A 1_555 1_555
H16A C9A 1_555 1_555
C10A C9A 1_555 1_555
N1A C4A 1_555 1_555
N2A C2A 1_555 1_555
O1A Zn2 1_555 1_555
O2A C1A 1_555 1_555
O3A Zn1 1_555 1_555
O4A C10A 1_555 1_555
Zn1_2 O5A 1_555 1_555
Zn2_2 O1 1_555 1_555
O1_2 Zn2 1_555 1_555
O5A_2 Zn1 1_555 1_555
C3 N2 1_555 1_555
C5 N2 1_555 1_555
C6 N1 1_555 1_555
C7 N2 1_555 1_555
C8 N1 1_555 1_555
C9 N1 1_555 1_555
C11 O5 1_555 1_555
C13 N3 1_555 1_555
C15 N3 1_555 1_555
C16 N4 1_555 1_555
C17 N3 1_555 1_555
C18 N4 1_555 1_555
C19 N4 1_555 1_555
C13A N3A 1_555 1_555
C15A N3A 1_555 1_555
C16A N4A 1_555 1_555
C17A N3A 1_555 1_555
C18A N4A 1_555 1_555
C19A N4A 1_555 1_555
C20A O8A 1_555 1_555
C1A O1A 1_555 1_555
C3A N2A 1_555 1_555
C5A N2A 1_555 1_555
C6A N1A 1_555 1_555
C7A N2A 1_555 1_555
C8A N1A 1_555 1_555
C9A N1A 1_555 1_555
C10A O3A 1_555 1_555

#END
