
#######################################################################
#
#                 Cambridge Crystallographic Data Centre
#                                CCDC 
#
#######################################################################
#
# If this CIF has been generated from an entry in the Cambridge 
# Structural Database, then it will include bibliographic, chemical, 
# crystal, experimental, refinement or atomic coordinate data resulting 
# from the CCDC's data processing and validation procedures.
#
#######################################################################

data_FINLEV
_symmetry_cell_setting           monoclinic
_symmetry_space_group_name_H-M   'P 21/c'
_symmetry_Int_Tables_number      14
_space_group_name_Hall           '-P 2ybc'
loop_
_symmetry_equiv_pos_site_id
_symmetry_equiv_pos_as_xyz
1 x,y,z
2 -x,1/2+y,1/2-z
3 -x,-y,-z
4 x,1/2-y,1/2+z
_cell_length_a                   15.533(2)
_cell_length_b                   15.439(2)
_cell_length_c                   19.361(3)
_cell_angle_alpha                90
_cell_angle_beta                 107.353(2)
_cell_angle_gamma                90
_cell_volume                     4431.71
loop_
_atom_site_label
_atom_site_type_symbol
_atom_site_fract_x
_atom_site_fract_y
_atom_site_fract_z
Zn1 Zn 0.33006(3) 0.77337(3) 0.36198(2)
Zn2 Zn 1.15284(3) 0.78678(3) 0.64442(2)
C1 C 0.1848(2) 0.7872(2) 0.4242(2)
C2 C 0.0917(3) 0.7599(3) 0.4294(2)
H1 H 0.0954 0.7573 0.4803
H2 H 0.0491 0.8053 0.4077
C3 C 0.0373(3) 0.6751(3) 0.3142(2)
H3 H 0.0945 0.6783 0.3037
H4 H 0.0017 0.7254 0.2930
C4 C -0.0364(3) 0.6600(3) 0.4090(2)
H5 H -0.0792 0.7038 0.3842
H6 H -0.0289 0.6645 0.4605
C5 C 0.1141(3) 0.6000(2) 0.4286(2)
H7 H 0.1171 0.5945 0.4792
H8 H 0.1746 0.6108 0.4260
C6 C 0.4084(3) 0.6023(3) 0.3582(2)
C7 C 0.4203(3) 0.5317(3) 0.3068(2)
H9 H 0.3609 0.5119 0.2788
H10 H 0.4483 0.5576 0.2732
C8 C 0.4358(3) 0.4086(3) 0.3924(3)
H11 H 0.3721 0.3980 0.3692
H12 H 0.4415 0.4455 0.4340
C9 C 0.4746(4) 0.3915(3) 0.2798(3)
H13 H 0.4971 0.4209 0.2444
H14 H 0.4131 0.3733 0.2559
C10 C 0.5718(3) 0.4748(3) 0.3786(3)
H15 H 0.5746 0.5183 0.4153
H16 H 0.6000 0.4986 0.3442
C11 C 0.4990(2) 0.8458(2) 0.4213(2)
C12 C 0.5573(2) 0.9068(3) 0.4785(2)
H17 H 0.5345 0.9652 0.4671
H18 H 0.5495 0.8916 0.5248
C13 C 0.7011(2) 0.9659(2) 0.5503(2)
H19 H 0.6775 0.9534 0.5903
H20 H 0.6882 1.0260 0.5365
C14 C 0.6780(2) 0.9435(3) 0.4214(2)
H21 H 0.6417 0.9945 0.4037
H22 H 0.6649 0.9006 0.3831
C15 C 0.6969(2) 0.8183(2) 0.5024(2)
H23 H 0.6614 0.7773 0.4674
H24 H 0.6972 0.7998 0.5504
C16 C 0.8027(2) 0.9505(3) 0.5733(2)
H25 H 0.8345 1.0046 0.5883
H26 H 0.8197 0.9104 0.6136
C17 C 0.7780(2) 0.9669(3) 0.4440(2)
H27 H 0.8028 0.9552 0.4045
H28 H 0.7856 1.0281 0.4556
C18 C 0.7936(2) 0.8215(2) 0.4977(2)
H29 H 0.8323 0.7840 0.5342
H30 H 0.7949 0.8014 0.4505
C19 C 0.9267(2) 0.9188(3) 0.5180(2)
H31 H 0.9446 0.9791 0.5247
H32 H 0.9362 0.8996 0.4732
C20 C 0.9892(2) 0.8668(2) 0.5799(2)
C21 C -0.0732(3) 0.3749(3) 0.3513(2)
C22 C -0.0548(3) 0.4469(3) 0.3038(2)
H33 H -0.1111 0.4606 0.2673
H34 H -0.0141 0.4243 0.2787
C23 C -0.0122(3) 0.5931(3) 0.2817(2)
H35 H 0.0183 0.5664 0.2501
H36 H -0.0731 0.6075 0.2530
C24 C 0.0776(3) 0.5170(3) 0.3887(2)
H37 H 0.0775 0.4717 0.4234
H38 H 0.1164 0.4987 0.3604
C25 C -0.0723(3) 0.5704(3) 0.3821(3)
H39 H -0.1342 0.5751 0.3514
H40 H -0.0716 0.5337 0.4230
C26 C 0.6874(3) 0.2027(3) 0.3885(2)
C27 C 0.6125(3) 0.2317(3) 0.4194(2)
H41 H 0.6381 0.2383 0.4713
H42 H 0.5680 0.1859 0.4112
C28 C 0.6225(3) 0.3937(3) 0.4137(2)
H43 H 0.6387 0.3988 0.4659
H44 H 0.6777 0.3879 0.4003
C29 C 0.5323(3) 0.3128(3) 0.3082(2)
H45 H 0.5836 0.3121 0.2895
H46 H 0.4974 0.2605 0.2921
C30 C 0.4838(3) 0.3233(3) 0.4168(2)
H47 H 0.4427 0.2756 0.3986
H48 H 0.5032 0.3205 0.4693
N1 N 0.0532(2) 0.67469(19) 0.39495(17)
N2 N 0.2775(2) 0.9085(2) 0.26578(19)
N3 N 0.4755(2) 0.4531(2) 0.34041(16)
N4 N 0.65654(19) 0.90763(19) 0.48693(16)
N5 N 0.82693(18) 0.91349(19) 0.50950(16)
N6 N -0.0154(2) 0.5303(2) 0.34025(17)
N7 N 0.56444(19) 0.3151(2) 0.38931(17)
O1 O 0.22282(18) 0.73941(18) 0.38873(17)
O2 O 0.21391(19) 0.85325(17) 0.45657(16)
O3 O 0.3132(2) 0.8325(2) 0.26697(16)
O4 O 0.2518(2) 0.9291(2) 0.31787(17)
O5 O 0.2702(2) 0.9547(2) 0.21336(19)
O6 O 0.35271(18) 0.65975(18) 0.32338(16)
O7 O 0.42371(16) 0.83351(19) 0.43410(14)
O8 O 0.4480(2) 0.6026(2) 0.42245(17)
O9 O 0.52258(18) 0.8166(2) 0.37128(16)
O10 O 1.06693(16) 0.85899(19) 0.57179(15)
O11 O 0.96399(19) 0.8386(2) 0.62939(16)
O12 O 1.1880(2) 0.86795(18) 0.72952(16)
H49 H 1.1783 0.9180 0.7152
H50 H 1.238(4) 0.869(4) 0.747(3)
O13 O -0.11012(19) 0.31097(18) 0.31234(16)
O14 O -0.0522(2) 0.3797(2) 0.41718(17)
O15 O 0.75262(17) 0.25558(18) 0.39473(16)
O16 O 0.6815(2) 0.1296(2) 0.36238(18)
Zn2B Zn -0.15284(3) 0.21322(3) 0.35558(2)
Zn2B_2 Zn 0.84716(3) 0.21322(3) 0.35558(2)
O13B O 1.11012(19) 0.68903(18) 0.68766(16)
O15B O 1.24738(17) 0.74442(18) 0.60527(16)
N8 N 0.1105(6) 0.0837(4) 0.6890(5)
O17 O 0.0365(8) 0.0457(5) 0.6599(4)
O18 O 0.1100(4) 0.1537(4) 0.6680(5)
O19 O 0.1683(6) 0.0439(4) 0.7260(4)
N9 N 0.4246(3) 0.0962(3) 0.3111(2)
O20 O 0.3873(3) 0.1460(3) 0.3445(2)
O21 O 0.4213(3) 0.1156(3) 0.2483(2)
O22 O 0.4643(3) 0.0309(3) 0.3398(3)
O23 O 0.7347(7) 0.6900(9) 0.3579(7)
O24 O 1.2061(6) 0.3083(8) 0.7868(6)
O25 O 0.856(2) 0.6869(12) 0.6695(12)
O26 O 0.7014(9) 0.7968(17) 0.3044(13)
O27? O 0.6773(9) 0.6296(8) 0.4995(7)
O28? O 0.7399(9) 0.6443(9) 0.5578(8)
O29? O 0.7682(8) 0.5372(8) 0.4692(6)
O30? O 0.8069(9) 0.6226(8) 0.4880(7)
N10? N 0.7468(5) 0.5854(5) 0.5076(5)
O31? O 0.7252(5) 0.5206(5) 0.5420(4)
loop_
_geom_bond_atom_site_label_1
_geom_bond_atom_site_label_2
_geom_bond_site_symmetry_1
_geom_bond_site_symmetry_2
Zn1 O1 1_555 1_555
Zn2 O10 1_555 1_555
C1 C2 1_555 1_555
C2 H1 1_555 1_555
H2 C2 1_555 1_555
C3 H3 1_555 1_555
H4 C3 1_555 1_555
C4 H5 1_555 1_555
H6 C4 1_555 1_555
C5 H7 1_555 1_555
H8 C5 1_555 1_555
C6 C7 1_555 1_555
C7 H9 1_555 1_555
H10 C7 1_555 1_555
C8 H11 1_555 1_555
H12 C8 1_555 1_555
C9 H13 1_555 1_555
H14 C9 1_555 1_555
C10 H15 1_555 1_555
H16 C10 1_555 1_555
C11 C12 1_555 1_555
C12 H17 1_555 1_555
H18 C12 1_555 1_555
C13 H19 1_555 1_555
H20 C13 1_555 1_555
C14 H21 1_555 1_555
H22 C14 1_555 1_555
C15 H23 1_555 1_555
H24 C15 1_555 1_555
C16 C13 1_555 1_555
H25 C16 1_555 1_555
H26 C16 1_555 1_555
C17 C14 1_555 1_555
H27 C17 1_555 1_555
H28 C17 1_555 1_555
C18 C15 1_555 1_555
H29 C18 1_555 1_555
H30 C18 1_555 1_555
C19 H31 1_555 1_555
H32 C19 1_555 1_555
C20 C19 1_555 1_555
C21 C22 1_555 1_555
C22 H33 1_555 1_555
H34 C22 1_555 1_555
C23 C3 1_555 1_555
H35 C23 1_555 1_555
H36 C23 1_555 1_555
C24 C5 1_555 1_555
H37 C24 1_555 1_555
H38 C24 1_555 1_555
C25 C4 1_555 1_555
H39 C25 1_555 1_555
H40 C25 1_555 1_555
C26 C27 1_555 1_555
C27 H41 1_555 1_555
H42 C27 1_555 1_555
C28 C10 1_555 1_555
H43 C28 1_555 1_555
H44 C28 1_555 1_555
C29 C9 1_555 1_555
H45 C29 1_555 1_555
H46 C29 1_555 1_555
C30 C8 1_555 1_555
H47 C30 1_555 1_555
H48 C30 1_555 1_555
N1 C2 1_555 1_555
N2 O3 1_555 1_555
N3 C7 1_555 1_555
N4 C12 1_555 1_555
N5 C16 1_555 1_555
N6 C22 1_555 1_555
N7 C27 1_555 1_555
O1 C1 1_555 1_555
O2 C1 1_555 1_555
O3 Zn1 1_555 1_555
O4 N2 1_555 1_555
O5 N2 1_555 1_555
O6 Zn1 1_555 1_555
O7 Zn1 1_555 1_555
O8 C6 1_555 1_555
O9 C11 1_555 1_555
O10 C20 1_555 1_555
O11 C20 1_555 1_555
O12 Zn2 1_555 1_555
H49 O12 1_555 1_555
H50 O12 1_555 1_555
O13 C21 1_555 1_555
O14 C21 1_555 1_555
O15 C26 1_555 1_555
O16 C26 1_555 1_555
N8 O17 1_555 1_555
O18 N8 1_555 1_555
O19 N8 1_555 1_555
N9 O20 1_555 1_555
O21 N9 1_555 1_555
O22 N9 1_555 1_555
Zn2B O13 1_555 1_555
Zn2B_2 O15 1_555 1_555
O13B Zn2 1_555 1_555
O15B Zn2 1_555 1_555
C3 N1 1_555 1_555
C4 N1 1_555 1_555
C5 N1 1_555 1_555
C6 O6 1_555 1_555
C8 N3 1_555 1_555
C9 N3 1_555 1_555
C10 N3 1_555 1_555
C11 O7 1_555 1_555
C13 N4 1_555 1_555
C14 N4 1_555 1_555
C15 N4 1_555 1_555
C17 N5 1_555 1_555
C18 N5 1_555 1_555
C19 N5 1_555 1_555
C23 N6 1_555 1_555
C24 N6 1_555 1_555
C25 N6 1_555 1_555
C28 N7 1_555 1_555
C29 N7 1_555 1_555
C30 N7 1_555 1_555

#END
