
#######################################################################
#
#                 Cambridge Crystallographic Data Centre
#                                CCDC 
#
#######################################################################
#
# If this CIF has been generated from an entry in the Cambridge 
# Structural Database, then it will include bibliographic, chemical, 
# crystal, experimental, refinement or atomic coordinate data resulting 
# from the CCDC's data processing and validation procedures.
#
#######################################################################

data_FINMOE
_symmetry_cell_setting           tetragonal
_symmetry_space_group_name_H-M   'I -4 2 d'
_symmetry_Int_Tables_number      122
_space_group_name_Hall           'I -4 2bw'
loop_
_symmetry_equiv_pos_site_id
_symmetry_equiv_pos_as_xyz
1 x,y,z
2 -x,1/2+y,1/4-z
3 -x,-y,z
4 x,1/2-y,1/4-z
5 -y,x,-z
6 y,1/2+x,1/4+z
7 y,-x,-z
8 -y,1/2-x,1/4+z
9 1/2+x,1/2+y,1/2+z
10 1/2-x,y,3/4-z
11 1/2-x,1/2-y,1/2+z
12 1/2+x,-y,3/4-z
13 1/2-y,1/2+x,1/2-z
14 1/2+y,x,3/4+z
15 1/2+y,1/2-x,1/2-z
16 1/2-y,-x,3/4+z
_cell_length_a                   14.814(3)
_cell_length_b                   14.814(3)
_cell_length_c                   15.712(5)
_cell_angle_alpha                90
_cell_angle_beta                 90
_cell_angle_gamma                90
_cell_volume                     3448.07
loop_
_atom_site_label
_atom_site_type_symbol
_atom_site_fract_x
_atom_site_fract_y
_atom_site_fract_z
I1 I 0.7500(1) -0.5025 -0.6250
I2 I 0.5000 -0.5000 -0.17489(7)
Mo1 Mo 0.5000 -0.5000 -0.5000
Cu1 Cu 0.6447(1) -0.6076(1) -0.5167(1)
Cu2 Cu 0.5000 -0.5000 -0.6688(1)
S1 S 0.3759(2) -0.5062(2) -0.4157(1)
N1 N 0.2781(8) -0.2830(8) -0.5035(10)
C1 C 0.192(1) -0.292(1) -0.486(2)
C2 C 0.133(2) -0.217(1) -0.485(2)
C3 C 0.171(1) -0.135(1) -0.502(2)
C4 C 0.2590(9) -0.126(1) -0.513(1)
C5 C 0.312(1) -0.200(1) -0.5161(9)
Cu1I Cu 0.8553(1) -0.6076(1) -0.7333(1)
Cu1B Cu 0.3553(1) -0.3924(1) -0.5167(1)
I1B I 0.2500(1) -0.4975 -0.6250
Cu1K Cu 0.1447(1) -0.3924(1) -0.7333(1)
Cu1D Cu 0.6076(1) -0.3553(1) -0.4833(1)
Cu1F Cu 0.3924(1) -0.6447(1) -0.4833(1)
Cu2D Cu 0.5000 -0.5000 -0.3312(1)
S1B S 0.6241(2) -0.4938(2) -0.4157(1)
S1D S 0.5062(2) -0.6241(2) -0.5843(1)
S1F S 0.4938(2) -0.3759(2) -0.5843(1)
I1D I 0.5025 -0.2500(1) -0.3750
I1E I 0.4975 -0.7500(1) -0.3750
I2D I 0.5000 -0.5000 -0.82511(7)
N1D N 0.2830(8) -0.7219(8) -0.4965(10)
C1D C 0.292(1) -0.808(1) -0.514(2)
C2D C 0.217(1) -0.867(2) -0.515(2)
C3D C 0.135(1) -0.829(1) -0.498(2)
C4D C 0.126(1) -0.7410(9) -0.487(1)
C5D C 0.200(1) -0.688(1) -0.4839(9)
N1F N 0.7170(8) -0.2781(8) -0.4965(10)
C1F C 0.708(1) -0.192(1) -0.514(2)
C2F C 0.783(1) -0.133(2) -0.515(2)
C3F C 0.865(1) -0.171(1) -0.498(2)
C4F C 0.874(1) -0.2590(9) -0.487(1)
C5F C 0.800(1) -0.312(1) -0.4839(9)
N1B N 0.7219(8) -0.7170(8) -0.5035(10)
C1B C 0.808(1) -0.708(1) -0.486(2)
C2B C 0.867(2) -0.783(1) -0.485(2)
C3B C 0.829(1) -0.865(1) -0.502(2)
C4B C 0.7410(9) -0.874(1) -0.513(1)
C5B C 0.688(1) -0.800(1) -0.5161(9)
loop_
_geom_bond_atom_site_label_1
_geom_bond_atom_site_label_2
_geom_bond_site_symmetry_1
_geom_bond_site_symmetry_2
I1 Cu1 1_555 1_555
I2 Cu2D 1_555 1_555
Mo1 Cu1 1_555 1_555
Cu1 S1B 1_555 1_555
Cu2 Mo1 1_555 1_555
S1 Mo1 1_555 1_555
N1 C1 1_555 1_555
C1 C2 1_555 1_555
C2 C3 1_555 1_555
C3 C4 1_555 1_555
C4 C5 1_555 1_555
C5 N1 1_555 1_555
Cu1I I1 1_555 1_555
Cu1B Mo1 1_555 1_555
I1B Cu1B 1_555 1_555
Cu1K I1B 1_555 1_555
Cu1D Mo1 1_555 1_555
Cu1F Mo1 1_555 1_555
Cu2D Mo1 1_555 1_555
S1B Mo1 1_555 1_555
S1D Mo1 1_555 1_555
S1F Mo1 1_555 1_555
I1D Cu1D 1_555 1_555
I1E Cu1F 1_555 1_555
I2D Cu2 1_555 1_555
N1D Cu1F 1_555 1_555
C1D N1D 1_555 1_555
C2D C1D 1_555 1_555
C3D C2D 1_555 1_555
C4D C3D 1_555 1_555
C5D N1D 1_555 1_555
N1F Cu1D 1_555 1_555
C1F N1F 1_555 1_555
C2F C1F 1_555 1_555
C3F C2F 1_555 1_555
C4F C3F 1_555 1_555
C5F N1F 1_555 1_555
N1B Cu1 1_555 1_555
C1B N1B 1_555 1_555
C2B C1B 1_555 1_555
C3B C2B 1_555 1_555
C4B C3B 1_555 1_555
C5B N1B 1_555 1_555
Cu1 S1D 1_555 1_555
Cu2 S1D 1_555 1_555
Cu2 S1F 1_555 1_555
S1 Cu1B 1_555 1_555
S1 Cu2D 1_555 1_555
S1 Cu1F 1_555 1_555
N1 Cu1B 1_555 1_555
Cu1B S1F 1_555 1_555
Cu1D S1F 1_555 1_555
Cu1D S1B 1_555 1_555
Cu1F S1D 1_555 1_555
Cu2D S1B 1_555 1_555
C4D C5D 1_555 1_555
C4F C5F 1_555 1_555
C4B C5B 1_555 1_555

#END
