
#######################################################################
#
#                 Cambridge Crystallographic Data Centre
#                                CCDC 
#
#######################################################################
#
# If this CIF has been generated from an entry in the Cambridge 
# Structural Database, then it will include bibliographic, chemical, 
# crystal, experimental, refinement or atomic coordinate data resulting 
# from the CCDC's data processing and validation procedures.
#
#######################################################################

data_FINNAS
_symmetry_cell_setting           monoclinic
_symmetry_space_group_name_H-M   'P 21/c'
_symmetry_Int_Tables_number      14
_space_group_name_Hall           '-P 2ybc'
loop_
_symmetry_equiv_pos_site_id
_symmetry_equiv_pos_as_xyz
1 x,y,z
2 -x,1/2+y,1/2-z
3 -x,-y,-z
4 x,1/2-y,1/2+z
_cell_length_a                   14.795(3)
_cell_length_b                   8.241(2)
_cell_length_c                   7.562(2)
_cell_angle_alpha                90
_cell_angle_beta                 101.46(3)
_cell_angle_gamma                90
_cell_volume                     903.62
loop_
_atom_site_label
_atom_site_type_symbol
_atom_site_fract_x
_atom_site_fract_y
_atom_site_fract_z
Tl1 Tl 0.428337(19) 0.65289(3) 0.10776(3)
S1 S 0.62816(12) 0.56757(19) 0.4353(2)
C1 C 0.7367(4) 0.6384(7) 0.4072(7)
C2 C 0.8040(5) 0.5291(8) 0.3819(7)
H1 H 0.7921 0.4183 0.3819
C3 C 0.7553(4) 0.8017(7) 0.4120(7)
H2 H 0.7116 0.8764 0.4334
C4 C 0.8891(5) 0.5839(9) 0.3564(9)
H3 H 0.9339 0.5095 0.3393
C5 C 0.8405(5) 0.8528(8) 0.3842(7)
C6 C 0.9078(4) 0.7469(9) 0.3564(8)
H4 H 0.9645 0.7845 0.3380
O1 O 0.5717(3) 0.7103(5) 0.4501(6)
O2 O 0.6461(3) 0.4644(5) 0.5954(5)
O3 O 0.5916(3) 0.4732(5) 0.2710(5)
N1 N 0.8588(5) 1.0293(7) 0.3852(8)
O4 O 0.9258(4) 1.0765(6) 0.3273(8)
O5 O 0.8066(4) 1.1176(5) 0.4476(8)
Tl1C Tl 0.428337(19) 0.84711(3) -0.39224(3)
Tl1C_2 Tl 0.428337(19) 0.84711(3) 0.60776(3)
Tl1B Tl 0.571663(19) 0.34711(3) -0.10776(3)
Tl1B_2 Tl 0.571663(19) 0.34711(3) 0.89224(3)
Tl1A Tl 0.571663(19) 0.15289(3) 0.39224(3)
O1C O 0.5717(3) 0.7897(5) -0.0499(6)
O2B O 0.3539(3) 0.5356(5) 0.4046(5)
O2A O 0.3539(3) 0.9644(5) -0.0954(5)
O3B O 0.4084(3) 0.5268(5) -0.2710(5)
O3A O 0.4084(3) 0.9732(5) 0.2290(5)
loop_
_geom_bond_atom_site_label_1
_geom_bond_atom_site_label_2
_geom_bond_site_symmetry_1
_geom_bond_site_symmetry_2
Tl1 O1 1_555 1_555
S1 C1 1_555 1_555
C1 C2 1_555 1_555
C2 H1 1_555 1_555
C3 C1 1_555 1_555
H2 C3 1_555 1_555
C4 C2 1_555 1_555
H3 C4 1_555 1_555
C5 C3 1_555 1_555
C6 C4 1_555 1_555
H4 C6 1_555 1_555
O1 S1 1_555 1_555
O2 S1 1_555 1_555
O3 Tl1 1_555 1_555
N1 C5 1_555 1_555
O4 N1 1_555 1_555
O5 N1 1_555 1_555
Tl1C O1C 1_555 1_555
Tl1C_2 O1 1_555 1_555
Tl1B O3 1_555 1_555
Tl1B_2 O2 1_555 1_555
Tl1A O2 1_555 1_555
O1C Tl1 1_555 1_555
O2B Tl1 1_555 1_555
O2A Tl1 1_555 1_555
O3B Tl1 1_555 1_555
O3A Tl1 1_555 1_555
S1 O3 1_555 1_555
C5 C6 1_555 1_555
O3 Tl1A 1_555 1_555
Tl1C O2A 1_555 1_555
Tl1C O3B 1_555 1_555
Tl1C_2 O2B 1_555 1_555
Tl1C_2 O3A 1_555 1_555
Tl1B O3B 1_555 1_555

#END
