
#######################################################################
#
#                 Cambridge Crystallographic Data Centre
#                                CCDC 
#
#######################################################################
#
# If this CIF has been generated from an entry in the Cambridge 
# Structural Database, then it will include bibliographic, chemical, 
# crystal, experimental, refinement or atomic coordinate data resulting 
# from the CCDC's data processing and validation procedures.
#
#######################################################################

data_FINWUW
_symmetry_cell_setting           orthorhombic
_symmetry_space_group_name_H-M   'P 21 21 21'
_symmetry_Int_Tables_number      19
_space_group_name_Hall           'P 2ac 2ab'
loop_
_symmetry_equiv_pos_site_id
_symmetry_equiv_pos_as_xyz
1 x,y,z
2 1/2-x,-y,1/2+z
3 1/2+x,1/2-y,-z
4 -x,1/2+y,1/2-z
_cell_length_a                   8.768(5)
_cell_length_b                   15.220(5)
_cell_length_c                   18.860(5)
_cell_angle_alpha                90
_cell_angle_beta                 90
_cell_angle_gamma                90
_cell_volume                     2516.85
loop_
_atom_site_label
_atom_site_type_symbol
_atom_site_fract_x
_atom_site_fract_y
_atom_site_fract_z
Ni1 Ni 0.47715(10) 0.48403(8) 0.70552(6)
O1 O 0.4957(6) 0.8933(4) 0.8738(3)
N1 N 0.7417(7) 0.9387(5) 0.8024(4)
H1 H 0.7843 0.9356 0.7591
H2 H 0.7975 0.9757 0.8291
O2 O 0.3390(7) 0.7235(5) 0.4172(3)
O3 O 0.4420(6) 0.5745(5) 0.6270(3)
N2 N 0.4622(8) 0.8920(6) 0.7231(4)
N3 N 0.5589(8) 0.6862(5) 0.5700(3)
H3 H 0.6440 0.7126 0.5624
O4 O 0.5990(7) 0.7454(5) 1.0757(3)
N4 N 0.6026(8) 0.7802(6) 0.9276(4)
H4 H 0.6850 0.7508 0.9347
N5 N 0.6947(7) 0.5254(5) 0.6942(3)
H5 H 0.7395 0.5296 0.7370
H6 H 0.7476 0.4866 0.6680
N6 N 0.4317(8) 0.5742(6) 0.7798(3)
C1 C 0.4288(10) 0.7142(7) 0.5326(4)
H7 H 0.3399 0.6850 0.5535
C2 C 0.4707(9) 0.7587(6) 0.9673(4)
H8 H 0.3845 0.7925 0.9487
N7 N 0.2936(7) 0.6581(6) 0.8463(4)
O5 O 0.3852(7) 0.8202(5) 1.0741(3)
H9 H 0.4058 0.8276 1.1160
C3 C 0.4988(9) 0.5859(7) 0.8440(4)
H10 H 0.5927 0.5622 0.8567
C4 C 0.4354(10) 0.6616(7) 0.9593(4)
H11 H 0.5175 0.6279 0.9804
H12 H 0.3427 0.6483 0.9853
O6 O 0.5359(9) 0.6405(6) 0.4348(4)
H13 H 0.5284 0.6327 0.3920
C5 C 0.4160(9) 0.6339(7) 0.8853(4)
C6 C 0.5091(10) 0.8843(7) 0.6546(5)
H14 H 0.5977 0.9093 0.6365
C7 C 0.3098(9) 0.6209(7) 0.7842(5)
H15 H 0.2406 0.6275 0.7473
N8 N 0.2991(9) 0.8146(7) 0.6630(4)
C8 C 0.4338(10) 0.6907(8) 0.4549(5)
C9 C 0.4111(10) 0.8361(8) 0.6168(4)
C10 C 0.5559(9) 0.6205(7) 0.6165(4)
C11 C 0.4881(10) 0.7792(7) 1.0455(5)
C12 C 0.4110(12) 0.8111(7) 0.5439(5)
H16 H 0.4935 0.8414 0.5199
H17 H 0.3160 0.8301 0.5225
C13 C 0.3318(11) 0.8502(9) 0.7245(5)
H18 H 0.2697 0.8461 0.7643
C14 C 0.6948(9) 0.6132(7) 0.6586(5)
H19 H 0.7836 0.6188 0.6282
H20 H 0.6983 0.6597 0.6938
C15 C 0.7391(9) 0.8516(7) 0.8350(5)
H21 H 0.8306 0.8431 0.8631
H22 H 0.7366 0.8069 0.7984
C16 C 0.6036(9) 0.8435(7) 0.8805(4)
Ni1C Ni 0.52285(10) 0.98403(8) 0.79448(6)
O1C O 0.5043(6) 0.3933(4) 0.6262(3)
N1C N 0.2583(7) 0.4387(5) 0.6976(4)
N2C N 0.5378(8) 0.3920(6) 0.7769(4)
O7 O 0.9223(7) 0.6089(5) 0.7963(3)
H23 H 0.8871 0.6375 0.8439
H24 H 0.9636 0.6125 0.7570
O8 O 0.3097(9) 0.4938(7) 0.4930(4)
H25 H 0.2542 0.5074 0.4623
H26 H 0.3685 0.5376 0.5159
O9 O 0.6457(8) 0.5629(7) 1.0843(4)
H27 H 0.5980 0.5898 1.1253
H28 H 0.7065 0.5289 1.0595
O10 O 0.5415(9) 0.8057(7) 0.3278(4)
H29 H 0.5514 0.7674 0.2825
H30 H 0.4738 0.7617 0.3556
O11 O 0.6745(11) 0.4917(7) 0.4808(4)
H31 H 0.7186 0.5193 0.4352
H32 H 0.6005 0.4791 0.4963
O12 O 0.0905(8) 0.5452(6) 0.5900(4)
H33 H 0.1310 0.5986 0.6257
H34 H 0.1739 0.5368 0.5605
O13 O 1.1086(9) 0.4659(8) 0.8427(4)
H35 H 1.0133 0.4306 0.8044
H36 H 0.9765 0.4997 0.8426
loop_
_geom_bond_atom_site_label_1
_geom_bond_atom_site_label_2
_geom_bond_site_symmetry_1
_geom_bond_site_symmetry_2
Ni1 O3 1_555 1_555
O1 C16 1_555 1_555
N1 H1 1_555 1_555
H2 N1 1_555 1_555
O2 C8 1_555 1_555
O3 C10 1_555 1_555
N2 C6 1_555 1_555
N3 H3 1_555 1_555
O4 C11 1_555 1_555
N4 H4 1_555 1_555
N5 Ni1 1_555 1_555
H5 N5 1_555 1_555
H6 N5 1_555 1_555
N6 Ni1 1_555 1_555
C1 N3 1_555 1_555
H7 C1 1_555 1_555
C2 N4 1_555 1_555
H8 C2 1_555 1_555
N7 C5 1_555 1_555
O5 H9 1_555 1_555
C3 N6 1_555 1_555
H10 C3 1_555 1_555
C4 C2 1_555 1_555
H11 C4 1_555 1_555
H12 C4 1_555 1_555
O6 H13 1_555 1_555
C5 C3 1_555 1_555
C6 H14 1_555 1_555
C7 N6 1_555 1_555
H15 C7 1_555 1_555
N8 C9 1_555 1_555
C8 C1 1_555 1_555
C9 C6 1_555 1_555
C10 N3 1_555 1_555
C11 C2 1_555 1_555
C12 C1 1_555 1_555
H16 C12 1_555 1_555
H17 C12 1_555 1_555
C13 N2 1_555 1_555
H18 C13 1_555 1_555
C14 N5 1_555 1_555
H19 C14 1_555 1_555
H20 C14 1_555 1_555
C15 N1 1_555 1_555
H21 C15 1_555 1_555
H22 C15 1_555 1_555
C16 N4 1_555 1_555
O7 H23 1_555 1_555
H24 O7 1_555 1_555
O8 H25 1_555 1_555
H26 O8 1_555 1_555
O9 H27 1_555 1_555
H28 O9 1_555 1_555
O10 H29 1_555 1_555
H30 O10 1_555 1_555
O11 H31 1_555 1_555
H32 O11 1_555 1_555
O12 H33 1_555 1_555
H34 O12 1_555 1_555
O13 H35 1_555 1_555
H36 O13 1_555 1_555
Ni1C O1 1_555 1_555
O1C Ni1 1_555 1_555
N1C Ni1 1_555 1_555
N2C Ni1 1_555 1_555
N1 Ni1C 1_555 1_555
N2 Ni1C 1_555 1_555
N7 C7 1_555 1_555
O5 C11 1_555 1_555
C4 C5 1_555 1_555
O6 C8 1_555 1_555
N8 C13 1_555 1_555
C9 C12 1_555 1_555
C10 C14 1_555 1_555
C15 C16 1_555 1_555

#END
