
#######################################################################
#
#                 Cambridge Crystallographic Data Centre
#                                CCDC 
#
#######################################################################
#
# If this CIF has been generated from an entry in the Cambridge 
# Structural Database, then it will include bibliographic, chemical, 
# crystal, experimental, refinement or atomic coordinate data resulting 
# from the CCDC's data processing and validation procedures.
#
#######################################################################

data_FINXOR
_symmetry_cell_setting           triclinic
_symmetry_space_group_name_H-M   'P -1'
_symmetry_Int_Tables_number      2
_space_group_name_Hall           '-P 1'
loop_
_symmetry_equiv_pos_site_id
_symmetry_equiv_pos_as_xyz
1 x,y,z
2 -x,-y,-z
_cell_length_a                   10.620(2)
_cell_length_b                   12.570(3)
_cell_length_c                   13.150(3)
_cell_angle_alpha                70.65(3)
_cell_angle_beta                 71.26(3)
_cell_angle_gamma                65.99(3)
_cell_volume                     1477.14
loop_
_atom_site_label
_atom_site_type_symbol
_atom_site_fract_x
_atom_site_fract_y
_atom_site_fract_z
Se1 Se 0.40339(4) 0.13107(3) 0.57770(3)
Fe1 Fe 0.5000 0.5000 0.5000
O1 O 0.2851(3) -0.2041(2) 0.9694(2)
N1 N 0.4751(3) 0.3458(2) 0.5373(2)
C1 C 0.4465(3) 0.2624(3) 0.5536(2)
O2 O 0.0573(2) 0.2173(2) 0.87308(19)
N2 N 0.4414(3) 0.5089(2) 0.6578(2)
C2 C 0.3439(3) 0.6091(3) 0.6895(3)
H1 H 0.3002 0.6735 0.6354
N3 N 0.6984(3) 0.4242(2) 0.5242(2)
C3 C 0.3055(4) 0.6218(3) 0.7957(3)
H2 H 0.2354 0.6929 0.8145
N4 N 0.6138(2) 0.32018(19) 0.70084(19)
C4 C 0.3700(4) 0.5300(3) 0.8754(3)
H3 H 0.3452 0.5373 0.9495
N5 N 0.7128(2) 0.11709(19) 0.70901(19)
C5 C 0.4707(3) 0.4277(3) 0.8453(3)
H4 H 0.5170 0.3633 0.8980
N6 N 0.4814(2) 0.2012(2) 0.81307(19)
C6 C 0.5028(3) 0.4210(2) 0.7364(2)
N7 N 0.5803(2) -0.0106(2) 0.8253(2)
C7 C 0.7298(3) 0.3423(2) 0.6169(2)
N8 N 0.8094(3) -0.0880(2) 0.7310(2)
C8 C 0.8666(3) 0.2861(3) 0.6343(3)
H5 H 0.8852 0.2265 0.6997
N9 N 0.9849(3) -0.0277(2) 0.7443(2)
C9 C 0.9756(3) 0.3185(3) 0.5545(3)
H6 H 1.0701 0.2819 0.5642
N10 N 0.8797(3) -0.2935(2) 0.8054(3)
C10 C 0.9429(3) 0.4057(3) 0.4602(3)
H7 H 1.0152 0.4302 0.4044
N11 N 0.3578(3) 0.0754(2) 0.9238(2)
C11 C 0.8057(3) 0.4565(3) 0.4479(3)
H8 H 0.7850 0.5168 0.3833
C12 C 0.6765(5) -0.3177(4) 0.7308(4)
H9 H 0.6082 -0.3262 0.7047
C13 C 0.6021(3) 0.2068(2) 0.7435(2)
C14 C 0.7633(5) -0.4140(4) 0.7893(4)
H10 H 0.7548 -0.4907 0.8063
C15 C 0.6946(3) 0.0106(2) 0.7563(2)
C16 C 0.8624(5) -0.4005(3) 0.8237(4)
H11 H 0.9235 -0.4698 0.8628
C17 C 0.4758(3) 0.0889(2) 0.8506(2)
C18 C 0.9478(3) -0.0801(2) 0.6908(2)
C19 C 1.0334(3) -0.1242(3) 0.5993(3)
H12 H 1.0027 -0.1622 0.5649
C20 C 1.1649(3) -0.1114(3) 0.5593(3)
H13 H 1.2268 -0.1411 0.4969
C21 C 1.2053(3) -0.0552(3) 0.6110(3)
H14 H 1.2949 -0.0447 0.5847
C22 C 1.1121(3) -0.0144(3) 0.7019(3)
H15 H 1.1396 0.0256 0.7365
C23 C 0.7911(3) -0.2004(3) 0.7503(3)
C24 C 0.6895(4) -0.2065(3) 0.7097(3)
H16 H 0.6307 -0.1369 0.6688
C25 C 0.3483(3) -0.0442(3) 0.9760(2)
H17 H 0.2884 -0.0442 1.0513
H18 H 0.4438 -0.1017 0.9831
C26 C 0.2880(3) -0.0860(3) 0.9131(3)
H19 H 0.1912 -0.0307 0.9074
H20 H 0.3468 -0.0863 0.8375
C27 C 0.1725(4) -0.2095(3) 1.0626(3)
H21 H 0.1382 -0.1365 1.0909
H22 H 0.2062 -0.2796 1.1219
C28 C 0.2486(3) 0.1798(3) 0.9613(3)
H23 H 0.2943 0.2259 0.9767
H24 H 0.1873 0.1522 1.0313
C29 C 0.1579(3) 0.2618(3) 0.8790(3)
H25 H 0.1071 0.3403 0.8989
H26 H 0.2200 0.2752 0.8049
C30 C -0.0538(3) 0.2193(3) 0.9684(3)
H27 H -0.0850 0.2949 0.9919
H28 H -0.0220 0.1514 1.0299
O1A O -0.2851(3) 0.2041(2) 1.0306(2)
O2A O -0.0573(2) -0.2173(2) 1.12692(19)
N2A N -0.4414(3) -0.5089(2) 1.3422(2)
C2A C -0.3439(3) -0.6091(3) 1.3105(3)
H1A H -0.3002 -0.6735 1.3646
N3A N -0.6984(3) -0.4242(2) 1.4758(2)
C3A C -0.3055(4) -0.6218(3) 1.2043(3)
H2A H -0.2354 -0.6929 1.1855
N4A N -0.6138(2) -0.32018(19) 1.29916(19)
C4A C -0.3700(4) -0.5300(3) 1.1246(3)
H3A H -0.3452 -0.5373 1.0505
N5A N -0.7128(2) -0.11709(19) 1.29099(19)
C5A C -0.4707(3) -0.4277(3) 1.1547(3)
H4A H -0.5170 -0.3633 1.1020
N6A N -0.4814(2) -0.2012(2) 1.18693(19)
C6A C -0.5028(3) -0.4210(2) 1.2636(2)
N7A N -0.5803(2) 0.0106(2) 1.1747(2)
C7A C -0.7298(3) -0.3423(2) 1.3831(2)
N8A N -0.8094(3) 0.0880(2) 1.2690(2)
C8A C -0.8666(3) -0.2861(3) 1.3657(3)
H5A H -0.8852 -0.2265 1.3003
N9A N -0.9849(3) 0.0277(2) 1.2557(2)
C9A C -0.9756(3) -0.3185(3) 1.4455(3)
H6A H -1.0701 -0.2819 1.4358
N10A N -0.8797(3) 0.2935(2) 1.1946(3)
C10A C -0.9429(3) -0.4057(3) 1.5398(3)
H7A H -1.0152 -0.4302 1.5956
N11A N -0.3578(3) -0.0754(2) 1.0762(2)
C11A C -0.8057(3) -0.4565(3) 1.5521(3)
H8A H -0.7850 -0.5168 1.6167
C12A C -0.6765(5) 0.3177(4) 1.2692(4)
H9A H -0.6082 0.3262 1.2953
C13A C -0.6021(3) -0.2068(2) 1.2565(2)
C14A C -0.7633(5) 0.4140(4) 1.2107(4)
H10A H -0.7548 0.4907 1.1937
C15A C -0.6946(3) -0.0106(2) 1.2437(2)
C16A C -0.8624(5) 0.4005(3) 1.1763(4)
H11A H -0.9235 0.4698 1.1372
C17A C -0.4758(3) -0.0889(2) 1.1494(2)
C18A C -0.9478(3) 0.0801(2) 1.3092(2)
C19A C -1.0334(3) 0.1242(3) 1.4007(3)
H12A H -1.0027 0.1622 1.4351
C20A C -1.1649(3) 0.1114(3) 1.4407(3)
H13A H -1.2268 0.1411 1.5031
C21A C -1.2053(3) 0.0552(3) 1.3890(3)
H14A H -1.2949 0.0447 1.4153
C22A C -1.1121(3) 0.0144(3) 1.2981(3)
H15A H -1.1396 -0.0256 1.2635
C23A C -0.7911(3) 0.2004(3) 1.2497(3)
C24A C -0.6895(4) 0.2065(3) 1.2903(3)
H16A H -0.6307 0.1369 1.3312
C25A C -0.3483(3) 0.0442(3) 1.0240(2)
H17A H -0.2884 0.0442 0.9487
H18A H -0.4438 0.1017 1.0169
C26A C -0.2880(3) 0.0860(3) 1.0869(3)
H19A H -0.1912 0.0307 1.0926
H20A H -0.3468 0.0863 1.1625
C27A C -0.1725(4) 0.2095(3) 0.9374(3)
H21A H -0.1382 0.1365 0.9091
H22A H -0.2062 0.2796 0.8781
C28A C -0.2486(3) -0.1798(3) 1.0387(3)
H23A H -0.2943 -0.2259 1.0233
H24A H -0.1873 -0.1522 0.9687
C29A C -0.1579(3) -0.2618(3) 1.1210(3)
H25A H -0.1071 -0.3403 1.1011
H26A H -0.2200 -0.2752 1.1951
C30A C 0.0538(3) -0.2193(3) 1.0316(3)
H27A H 0.0850 -0.2949 1.0081
H28A H 0.0220 -0.1514 0.9701
Se1A Se 0.59661(4) 0.86893(3) 0.42230(3)
N1A N 0.5249(3) 0.6542(2) 0.4627(2)
C1A C 0.5535(3) 0.7376(3) 0.4464(2)
Fe1_2 Fe -0.5000 -0.5000 1.5000
N2A_2 N 0.5586(3) 0.4911(2) 0.3422(2)
N3A_2 N 0.3016(3) 0.5758(2) 0.4758(2)
loop_
_geom_bond_atom_site_label_1
_geom_bond_atom_site_label_2
_geom_bond_site_symmetry_1
_geom_bond_site_symmetry_2
Se1 C1 1_555 1_555
Fe1 N1 1_555 1_555
O1 C26 1_555 1_555
N1 C1 1_555 1_555
O2 C29 1_555 1_555
N2 Fe1 1_555 1_555
C2 N2 1_555 1_555
H1 C2 1_555 1_555
N3 Fe1 1_555 1_555
C3 C2 1_555 1_555
H2 C3 1_555 1_555
N4 C6 1_555 1_555
C4 C3 1_555 1_555
H3 C4 1_555 1_555
N5 C13 1_555 1_555
C5 C4 1_555 1_555
H4 C5 1_555 1_555
N6 C13 1_555 1_555
C6 N2 1_555 1_555
N7 C15 1_555 1_555
C7 N3 1_555 1_555
N8 C15 1_555 1_555
C8 C7 1_555 1_555
H5 C8 1_555 1_555
N9 C18 1_555 1_555
C9 C8 1_555 1_555
H6 C9 1_555 1_555
N10 C16 1_555 1_555
C10 C9 1_555 1_555
H7 C10 1_555 1_555
N11 C17 1_555 1_555
C11 N3 1_555 1_555
H8 C11 1_555 1_555
C12 H9 1_555 1_555
C13 N4 1_555 1_555
C14 C12 1_555 1_555
H10 C14 1_555 1_555
C15 N5 1_555 1_555
C16 C14 1_555 1_555
H11 C16 1_555 1_555
C17 N6 1_555 1_555
C18 N8 1_555 1_555
C19 C18 1_555 1_555
H12 C19 1_555 1_555
C20 C19 1_555 1_555
H13 C20 1_555 1_555
C21 C20 1_555 1_555
H14 C21 1_555 1_555
C22 N9 1_555 1_555
H15 C22 1_555 1_555
C23 N8 1_555 1_555
C24 C12 1_555 1_555
H16 C24 1_555 1_555
C25 N11 1_555 1_555
H17 C25 1_555 1_555
H18 C25 1_555 1_555
C26 C25 1_555 1_555
H19 C26 1_555 1_555
H20 C26 1_555 1_555
C27 O1 1_555 1_555
H21 C27 1_555 1_555
H22 C27 1_555 1_555
C28 N11 1_555 1_555
H23 C28 1_555 1_555
H24 C28 1_555 1_555
C29 C28 1_555 1_555
H25 C29 1_555 1_555
H26 C29 1_555 1_555
C30 O2 1_555 1_555
H27 C30 1_555 1_555
H28 C30 1_555 1_555
O1A C26A 1_555 1_555
O2A C29A 1_555 1_555
N2A C2A 1_555 1_555
C2A H1A 1_555 1_555
N3A C7A 1_555 1_555
C3A C2A 1_555 1_555
H2A C3A 1_555 1_555
N4A C6A 1_555 1_555
C4A C3A 1_555 1_555
H3A C4A 1_555 1_555
N5A C13A 1_555 1_555
C5A C4A 1_555 1_555
H4A C5A 1_555 1_555
N6A C13A 1_555 1_555
C6A N2A 1_555 1_555
N7A C15A 1_555 1_555
C7A N4A 1_555 1_555
N8A C15A 1_555 1_555
C8A C7A 1_555 1_555
H5A C8A 1_555 1_555
N9A C18A 1_555 1_555
C9A C8A 1_555 1_555
H6A C9A 1_555 1_555
N10A C16A 1_555 1_555
C10A C9A 1_555 1_555
H7A C10A 1_555 1_555
N11A C17A 1_555 1_555
C11A N3A 1_555 1_555
H8A C11A 1_555 1_555
C12A H9A 1_555 1_555
C13A N4A 1_555 1_555
C14A C12A 1_555 1_555
H10A C14A 1_555 1_555
C15A N5A 1_555 1_555
C16A C14A 1_555 1_555
H11A C16A 1_555 1_555
C17A N6A 1_555 1_555
C18A N8A 1_555 1_555
C19A C18A 1_555 1_555
H12A C19A 1_555 1_555
C20A C19A 1_555 1_555
H13A C20A 1_555 1_555
C21A C20A 1_555 1_555
H14A C21A 1_555 1_555
C22A N9A 1_555 1_555
H15A C22A 1_555 1_555
C23A N8A 1_555 1_555
C24A C12A 1_555 1_555
H16A C24A 1_555 1_555
C25A N11A 1_555 1_555
H17A C25A 1_555 1_555
H18A C25A 1_555 1_555
C26A C25A 1_555 1_555
H19A C26A 1_555 1_555
H20A C26A 1_555 1_555
C27A C30 1_555 1_555
H21A C27A 1_555 1_555
H22A C27A 1_555 1_555
C28A N11A 1_555 1_555
H23A C28A 1_555 1_555
H24A C28A 1_555 1_555
C29A C28A 1_555 1_555
H25A C29A 1_555 1_555
H26A C29A 1_555 1_555
C30A C27 1_555 1_555
H27A C30A 1_555 1_555
H28A C30A 1_555 1_555
Se1A C1A 1_555 1_555
N1A Fe1 1_555 1_555
C1A N1A 1_555 1_555
Fe1_2 N2A 1_555 1_555
N2A_2 Fe1 1_555 1_555
N3A_2 Fe1 1_555 1_555
N4 C7 1_555 1_555
C5 C6 1_555 1_555
N7 C17 1_555 1_555
N10 C23 1_555 1_555
C10 C11 1_555 1_555
C21 C22 1_555 1_555
C23 C24 1_555 1_555
O1A C27A 1_555 1_555
O2A C30A 1_555 1_555
N3A Fe1_2 1_555 1_555
C5A C6A 1_555 1_555
N7A C17A 1_555 1_555
N10A C23A 1_555 1_555
C10A C11A 1_555 1_555
C21A C22A 1_555 1_555
C23A C24A 1_555 1_555

#END
