
#######################################################################
#
#                 Cambridge Crystallographic Data Centre
#                                CCDC 
#
#######################################################################
#
# If this CIF has been generated from an entry in the Cambridge 
# Structural Database, then it will include bibliographic, chemical, 
# crystal, experimental, refinement or atomic coordinate data resulting 
# from the CCDC's data processing and validation procedures.
#
#######################################################################

data_FINXUX
_symmetry_cell_setting           triclinic
_symmetry_space_group_name_H-M   'P -1'
_symmetry_Int_Tables_number      2
_space_group_name_Hall           '-P 1'
loop_
_symmetry_equiv_pos_site_id
_symmetry_equiv_pos_as_xyz
1 x,y,z
2 -x,-y,-z
_cell_length_a                   10.486(2)
_cell_length_b                   12.423(3)
_cell_length_c                   13.133(3)
_cell_angle_alpha                71.52(3)
_cell_angle_beta                 72.10(3)
_cell_angle_gamma                66.56(3)
_cell_volume                     1456.03
loop_
_atom_site_label
_atom_site_type_symbol
_atom_site_fract_x
_atom_site_fract_y
_atom_site_fract_z
Fe1 Fe 0.5000 0.5000 0.0000
S1 S 0.40583(6) 0.13618(5) 0.08074(5)
O1 O 0.28692(16) -0.20732(13) 0.46952(13)
N1 N 0.47514(16) 0.34332(13) 0.03748(12)
C1 C 0.44581(18) 0.25801(15) 0.05513(14)
O2 O 0.05757(14) 0.21908(14) 0.37198(12)
N2 N 0.44246(15) 0.51037(12) 0.15837(12)
C2 C 0.3439(2) 0.61134(16) 0.18885(16)
H1 H 0.2997 0.6749 0.1345
N3 N 0.70021(15) 0.42521(12) 0.02517(12)
C3 C 0.3044(2) 0.62621(17) 0.29527(17)
H2 H 0.2337 0.6979 0.3136
N4 N 0.61669(15) 0.32270(12) 0.20174(12)
C4 C 0.3699(2) 0.53459(18) 0.37506(16)
H3 H 0.3446 0.5427 0.4489
N5 N 0.71564(15) 0.11897(12) 0.20875(12)
C5 C 0.4723(2) 0.43159(16) 0.34544(15)
H4 H 0.5192 0.3676 0.3982
N6 N 0.48422(15) 0.20258(12) 0.31180(12)
C6 C 0.50521(17) 0.42377(14) 0.23610(14)
N7 N 0.58278(15) -0.01014(12) 0.32250(12)
C7 C 0.73284(18) 0.34467(14) 0.11787(14)
N8 N 0.81238(15) -0.08730(12) 0.22943(13)
C8 C 0.87075(19) 0.28882(16) 0.13551(16)
H5 H 0.8898 0.2306 0.2012
N9 N 0.99030(17) -0.02354(14) 0.24075(13)
C9 C 0.9800(2) 0.31989(17) 0.05521(17)
H6 H 1.0755 0.2829 0.0645
N10 N 0.8784(2) -0.29333(15) 0.30388(15)
C10 C 0.9467(2) 0.40614(17) -0.03899(17)
H7 H 1.0193 0.4302 -0.0946
N11 N 0.36004(16) 0.07603(13) 0.42078(12)
C11 C 0.8081(2) 0.45642(16) -0.05109(15)
H8 H 0.7869 0.5157 -0.1158
C12 C 0.60496(17) 0.20867(14) 0.24317(13)
C13 C 0.69743(17) 0.01155(14) 0.25457(13)
C14 C 0.47827(17) 0.08965(14) 0.34824(14)
C15 C 0.95149(17) -0.07860(14) 0.18877(14)
C16 C 1.03610(19) -0.12456(15) 0.09786(15)
H9 H 1.0047 -0.1649 0.0649
C17 C 1.1679(2) -0.10976(17) 0.05654(16)
H10 H 1.2292 -0.1402 -0.0056
C18 C 1.2097(2) -0.04990(18) 0.10686(18)
H11 H 1.2993 -0.0382 0.0798
C19 C 1.1171(2) -0.00804(18) 0.19723(18)
H12 H 1.1449 0.0344 0.2307
C20 C 0.79310(19) -0.19980(15) 0.24692(15)
C21 C 0.6913(2) -0.20533(19) 0.20278(19)
H13 H 0.6345 -0.1353 0.1607
C22 C 0.6754(3) -0.3163(2) 0.2222(2)
H14 H 0.6070 -0.3241 0.1940
C23 C 0.7612(3) -0.4151(2) 0.2835(2)
H15 H 0.7518 -0.4920 0.2994
C24 C 0.8603(3) -0.40042(19) 0.3211(2)
H16 H 0.9201 -0.4696 0.3617
C25 C 0.35113(19) -0.04423(16) 0.47352(14)
H17 H 0.2922 -0.0435 0.5486
H18 H 0.4476 -0.1014 0.4803
C26 C 0.2885(2) -0.08837(17) 0.41188(16)
H19 H 0.1906 -0.0336 0.4066
H20 H 0.3463 -0.0897 0.3366
C27 C 0.1746(2) -0.21155(19) 0.56263(18)
H21 H 0.1421 -0.1379 0.5909
H22 H 0.2088 -0.2819 0.6213
C28 C 0.25274(19) 0.18124(16) 0.45965(16)
H23 H 0.3008 0.2269 0.4750
H24 H 0.1916 0.1539 0.5294
C29 C 0.1600(2) 0.26425(18) 0.37790(19)
H25 H 0.1098 0.3431 0.3985
H26 H 0.2216 0.2776 0.3043
C30 C -0.0528(2) 0.2209(2) 0.46806(19)
H27 H -0.0826 0.2966 0.4924
H28 H -0.0198 0.1523 0.5284
O1A O -0.28692(16) 0.20732(13) 0.53048(13)
O2A O -0.05757(14) -0.21908(14) 0.62802(12)
N2A N -0.44246(15) -0.51037(12) 0.84163(12)
C2A C -0.3439(2) -0.61134(16) 0.81115(16)
H1A H -0.2997 -0.6749 0.8655
N3A N -0.70021(15) -0.42521(12) 0.97483(12)
C3A C -0.3044(2) -0.62621(17) 0.70473(17)
H2A H -0.2337 -0.6979 0.6864
N4A N -0.61669(15) -0.32270(12) 0.79826(12)
C4A C -0.3699(2) -0.53459(18) 0.62494(16)
H3A H -0.3446 -0.5427 0.5511
N5A N -0.71564(15) -0.11897(12) 0.79125(12)
C5A C -0.4723(2) -0.43159(16) 0.65456(15)
H4A H -0.5192 -0.3676 0.6018
N6A N -0.48422(15) -0.20258(12) 0.68820(12)
C6A C -0.50521(17) -0.42377(14) 0.76390(14)
N7A N -0.58278(15) 0.01014(12) 0.67750(12)
C7A C -0.73284(18) -0.34467(14) 0.88213(14)
N8A N -0.81238(15) 0.08730(12) 0.77057(13)
C8A C -0.87075(19) -0.28882(16) 0.86449(16)
H5A H -0.8898 -0.2306 0.7988
N9A N -0.99030(17) 0.02354(14) 0.75925(13)
C9A C -0.9800(2) -0.31989(17) 0.94479(17)
H6A H -1.0755 -0.2829 0.9355
N10A N -0.8784(2) 0.29333(15) 0.69612(15)
C10A C -0.9467(2) -0.40614(17) 1.03899(17)
H7A H -1.0193 -0.4302 1.0946
N11A N -0.36004(16) -0.07603(13) 0.57922(12)
C11A C -0.8081(2) -0.45642(16) 1.05109(15)
H8A H -0.7869 -0.5157 1.1158
C12A C -0.60496(17) -0.20867(14) 0.75683(13)
C13A C -0.69743(17) -0.01155(14) 0.74543(13)
C14A C -0.47827(17) -0.08965(14) 0.65176(14)
C15A C -0.95149(17) 0.07860(14) 0.81123(14)
C16A C -1.03610(19) 0.12456(15) 0.90214(15)
H9A H -1.0047 0.1649 0.9351
C17A C -1.1679(2) 0.10976(17) 0.94346(16)
H10A H -1.2292 0.1402 1.0056
C18A C -1.2097(2) 0.04990(18) 0.89314(18)
H11A H -1.2993 0.0382 0.9202
C19A C -1.1171(2) 0.00804(18) 0.80277(18)
H12A H -1.1449 -0.0344 0.7693
C20A C -0.79310(19) 0.19980(15) 0.75308(15)
C21A C -0.6913(2) 0.20533(19) 0.79722(19)
H13A H -0.6345 0.1353 0.8393
C22A C -0.6754(3) 0.3163(2) 0.7778(2)
H14A H -0.6070 0.3241 0.8060
C23A C -0.7612(3) 0.4151(2) 0.7165(2)
H15A H -0.7518 0.4920 0.7006
C24A C -0.8603(3) 0.40042(19) 0.6789(2)
H16A H -0.9201 0.4696 0.6383
C25A C -0.35113(19) 0.04423(16) 0.52648(14)
H17A H -0.2922 0.0435 0.4514
H18A H -0.4476 0.1014 0.5197
C26A C -0.2885(2) 0.08837(17) 0.58812(16)
H19A H -0.1906 0.0336 0.5934
H20A H -0.3463 0.0897 0.6634
C27A C -0.1746(2) 0.21155(19) 0.43737(18)
H21A H -0.1421 0.1379 0.4091
H22A H -0.2088 0.2819 0.3787
C28A C -0.25274(19) -0.18124(16) 0.54035(16)
H23A H -0.3008 -0.2269 0.5250
H24A H -0.1916 -0.1539 0.4706
C29A C -0.1600(2) -0.26425(18) 0.62210(19)
H25A H -0.1098 -0.3431 0.6015
H26A H -0.2216 -0.2776 0.6957
C30A C 0.0528(2) -0.2209(2) 0.53194(19)
H27A H 0.0826 -0.2966 0.5076
H28A H 0.0198 -0.1523 0.4716
S1A S 0.59417(6) 0.86382(5) -0.08074(5)
N1A N 0.52486(16) 0.65668(13) -0.03748(12)
C1A C 0.55419(18) 0.74199(15) -0.05513(14)
Fe1_2 Fe -0.5000 -0.5000 1.0000
N2A_2 N 0.55754(15) 0.48963(12) -0.15837(12)
N3A_2 N 0.29979(15) 0.57479(12) -0.02517(12)
loop_
_geom_bond_atom_site_label_1
_geom_bond_atom_site_label_2
_geom_bond_site_symmetry_1
_geom_bond_site_symmetry_2
Fe1 N1 1_555 1_555
S1 C1 1_555 1_555
O1 C26 1_555 1_555
N1 C1 1_555 1_555
O2 C29 1_555 1_555
N2 Fe1 1_555 1_555
C2 N2 1_555 1_555
H1 C2 1_555 1_555
N3 Fe1 1_555 1_555
C3 C2 1_555 1_555
H2 C3 1_555 1_555
N4 C6 1_555 1_555
C4 C3 1_555 1_555
H3 C4 1_555 1_555
N5 C12 1_555 1_555
C5 C4 1_555 1_555
H4 C5 1_555 1_555
N6 C12 1_555 1_555
C6 N2 1_555 1_555
N7 C13 1_555 1_555
C7 N3 1_555 1_555
N8 C13 1_555 1_555
C8 C7 1_555 1_555
H5 C8 1_555 1_555
N9 C15 1_555 1_555
C9 C8 1_555 1_555
H6 C9 1_555 1_555
N10 C20 1_555 1_555
C10 C9 1_555 1_555
H7 C10 1_555 1_555
N11 C14 1_555 1_555
C11 N3 1_555 1_555
H8 C11 1_555 1_555
C12 N4 1_555 1_555
C13 N5 1_555 1_555
C14 N6 1_555 1_555
C15 N8 1_555 1_555
C16 C15 1_555 1_555
H9 C16 1_555 1_555
C17 C16 1_555 1_555
H10 C17 1_555 1_555
C18 C17 1_555 1_555
H11 C18 1_555 1_555
C19 N9 1_555 1_555
H12 C19 1_555 1_555
C20 N8 1_555 1_555
C21 C20 1_555 1_555
H13 C21 1_555 1_555
C22 C21 1_555 1_555
H14 C22 1_555 1_555
C23 C22 1_555 1_555
H15 C23 1_555 1_555
C24 N10 1_555 1_555
H16 C24 1_555 1_555
C25 N11 1_555 1_555
H17 C25 1_555 1_555
H18 C25 1_555 1_555
C26 C25 1_555 1_555
H19 C26 1_555 1_555
H20 C26 1_555 1_555
C27 O1 1_555 1_555
H21 C27 1_555 1_555
H22 C27 1_555 1_555
C28 N11 1_555 1_555
H23 C28 1_555 1_555
H24 C28 1_555 1_555
C29 C28 1_555 1_555
H25 C29 1_555 1_555
H26 C29 1_555 1_555
C30 O2 1_555 1_555
H27 C30 1_555 1_555
H28 C30 1_555 1_555
O1A C26A 1_555 1_555
O2A C29A 1_555 1_555
N2A C2A 1_555 1_555
C2A H1A 1_555 1_555
N3A C7A 1_555 1_555
C3A C2A 1_555 1_555
H2A C3A 1_555 1_555
N4A C6A 1_555 1_555
C4A C3A 1_555 1_555
H3A C4A 1_555 1_555
N5A C12A 1_555 1_555
C5A C4A 1_555 1_555
H4A C5A 1_555 1_555
N6A C12A 1_555 1_555
C6A N2A 1_555 1_555
N7A C13A 1_555 1_555
C7A N4A 1_555 1_555
N8A C13A 1_555 1_555
C8A C7A 1_555 1_555
H5A C8A 1_555 1_555
N9A C15A 1_555 1_555
C9A C8A 1_555 1_555
H6A C9A 1_555 1_555
N10A C20A 1_555 1_555
C10A C9A 1_555 1_555
H7A C10A 1_555 1_555
N11A C14A 1_555 1_555
C11A N3A 1_555 1_555
H8A C11A 1_555 1_555
C12A N4A 1_555 1_555
C13A N5A 1_555 1_555
C14A N6A 1_555 1_555
C15A N8A 1_555 1_555
C16A C15A 1_555 1_555
H9A C16A 1_555 1_555
C17A C16A 1_555 1_555
H10A C17A 1_555 1_555
C18A C17A 1_555 1_555
H11A C18A 1_555 1_555
C19A N9A 1_555 1_555
H12A C19A 1_555 1_555
C20A N8A 1_555 1_555
C21A C20A 1_555 1_555
H13A C21A 1_555 1_555
C22A C21A 1_555 1_555
H14A C22A 1_555 1_555
C23A C22A 1_555 1_555
H15A C23A 1_555 1_555
C24A N10A 1_555 1_555
H16A C24A 1_555 1_555
C25A N11A 1_555 1_555
H17A C25A 1_555 1_555
H18A C25A 1_555 1_555
C26A C25A 1_555 1_555
H19A C26A 1_555 1_555
H20A C26A 1_555 1_555
C27A C30 1_555 1_555
H21A C27A 1_555 1_555
H22A C27A 1_555 1_555
C28A N11A 1_555 1_555
H23A C28A 1_555 1_555
H24A C28A 1_555 1_555
C29A C28A 1_555 1_555
H25A C29A 1_555 1_555
H26A C29A 1_555 1_555
C30A C27 1_555 1_555
H27A C30A 1_555 1_555
H28A C30A 1_555 1_555
S1A C1A 1_555 1_555
N1A Fe1 1_555 1_555
C1A N1A 1_555 1_555
Fe1_2 N2A 1_555 1_555
N2A_2 Fe1 1_555 1_555
N3A_2 Fe1 1_555 1_555
N4 C7 1_555 1_555
C5 C6 1_555 1_555
N7 C14 1_555 1_555
C10 C11 1_555 1_555
C18 C19 1_555 1_555
C23 C24 1_555 1_555
O1A C27A 1_555 1_555
O2A C30A 1_555 1_555
N3A Fe1_2 1_555 1_555
C5A C6A 1_555 1_555
N7A C14A 1_555 1_555
C10A C11A 1_555 1_555
C18A C19A 1_555 1_555
C23A C24A 1_555 1_555

#END
