
#######################################################################
#
#                 Cambridge Crystallographic Data Centre
#                                CCDC 
#
#######################################################################
#
# If this CIF has been generated from an entry in the Cambridge 
# Structural Database, then it will include bibliographic, chemical, 
# crystal, experimental, refinement or atomic coordinate data resulting 
# from the CCDC's data processing and validation procedures.
#
#######################################################################

data_FINYOS
_symmetry_cell_setting           monoclinic
_symmetry_space_group_name_H-M   'C 2/c'
_symmetry_Int_Tables_number      15
_space_group_name_Hall           '-C 2yn'
loop_
_symmetry_equiv_pos_site_id
_symmetry_equiv_pos_as_xyz
1 x,y,z
2 -x,y,1/2-z
3 1/2+x,1/2+y,z
4 1/2-x,1/2+y,1/2-z
5 -x,-y,-z
6 x,-y,1/2+z
7 1/2-x,1/2-y,-z
8 1/2+x,1/2-y,1/2+z
_cell_length_a                   32.480(7)
_cell_length_b                   4.5964(9)
_cell_length_c                   15.186(3)
_cell_angle_alpha                90
_cell_angle_beta                 117.32(3)
_cell_angle_gamma                90
_cell_volume                     2014.25
loop_
_atom_site_label
_atom_site_type_symbol
_atom_site_fract_x
_atom_site_fract_y
_atom_site_fract_z
Mg1 Mg 0.0000 0.5000 0.5000
N1 N 0.10533(8) 0.8096(5) 0.33587(18)
N2 N 0.10557(8) 0.9942(5) 0.40374(18)
N3 N 0.14570(9) 1.0067(6) 0.4854(2)
N4 N 0.17348(9) 0.8245(6) 0.47145(19)
N5 N 0.13712(8) 0.4097(6) 0.24345(19)
O1 O -0.00353(6) 1.1623(4) 0.40229(14)
O2 O 0.04011(7) 0.7594(4) 0.45119(14)
O3 O -0.05909(8) 0.6882(5) 0.39706(16)
H1 H -0.0541(13) 0.835(8) 0.375(3)
H2 H -0.0802(13) 0.603(8) 0.348(3)
C1 C 0.16697(10) 0.4982(6) 0.3348(2)
C2 C 0.21216(10) 0.4042(7) 0.3826(2)
H3 H 0.2322 0.4729 0.4454
C3 C 0.22715(11) 0.2060(7) 0.3354(3)
H4 H 0.2574 0.1362 0.3665
C4 C 0.19692(13) 0.1133(8) 0.2422(3)
H5 H 0.2063 -0.0190 0.2087
C5 C 0.15272(12) 0.2188(7) 0.1995(3)
H6 H 0.1323 0.1541 0.1363
C6 C 0.14849(9) 0.7088(6) 0.3804(2)
C7 C 0.06541(11) 1.1650(6) 0.3891(2)
H7 H 0.0490 1.2212 0.3199
H8 H 0.0760 1.3418 0.4280
C8 C 0.03159(9) 1.0114(6) 0.4170(2)
N1D N -0.10533(8) 0.1904(5) 0.66413(18)
N2D N -0.10557(8) 0.0058(5) 0.59626(18)
N3D N -0.14570(9) -0.0067(6) 0.5146(2)
N4D N -0.17348(9) 0.1755(6) 0.52855(19)
N5D N -0.13712(8) 0.5903(6) 0.75655(19)
O1D O 0.00353(6) -0.1623(4) 0.59771(14)
O2D O -0.04011(7) 0.2406(4) 0.54881(14)
O3D O 0.05909(8) 0.3118(5) 0.60294(16)
H1D H 0.0541(13) 0.165(8) 0.625(3)
H2D H 0.0802(13) 0.397(8) 0.652(3)
C1D C -0.16697(10) 0.5018(6) 0.6652(2)
C2D C -0.21216(10) 0.5958(7) 0.6174(2)
H3D H -0.2322 0.5271 0.5546
C3D C -0.22715(11) 0.7940(7) 0.6646(3)
H4D H -0.2574 0.8638 0.6335
C4D C -0.19692(13) 0.8867(8) 0.7578(3)
H5D H -0.2063 1.0190 0.7913
C5D C -0.15272(12) 0.7812(7) 0.8005(3)
H6D H -0.1323 0.8459 0.8637
C6D C -0.14849(9) 0.2912(6) 0.6196(2)
C7D C -0.06541(11) -0.1650(6) 0.6109(2)
H7D H -0.0490 -0.2212 0.6801
H8D H -0.0760 -0.3418 0.5720
C8D C -0.03159(9) -0.0114(6) 0.5830(2)
Mg1_2 Mg 0.0000 -0.5000 0.5000
Mg1_3 Mg 0.0000 1.5000 0.5000
O1_2 O -0.00353(6) 0.1623(4) 0.40229(14)
O1D_2 O 0.00353(6) 0.8377(4) 0.59771(14)
loop_
_geom_bond_atom_site_label_1
_geom_bond_atom_site_label_2
_geom_bond_site_symmetry_1
_geom_bond_site_symmetry_2
Mg1 O2 1_555 1_555
N1 N2 1_555 1_555
N2 N3 1_555 1_555
N3 N4 1_555 1_555
N4 C6 1_555 1_555
N5 C1 1_555 1_555
O1 C8 1_555 1_555
O2 C8 1_555 1_555
O3 Mg1 1_555 1_555
H1 O3 1_555 1_555
H2 O3 1_555 1_555
C1 C2 1_555 1_555
C2 H3 1_555 1_555
C3 C2 1_555 1_555
H4 C3 1_555 1_555
C4 C3 1_555 1_555
H5 C4 1_555 1_555
C5 N5 1_555 1_555
H6 C5 1_555 1_555
C6 N1 1_555 1_555
C7 N2 1_555 1_555
H7 C7 1_555 1_555
H8 C7 1_555 1_555
C8 C7 1_555 1_555
N1D N2D 1_555 1_555
N2D N3D 1_555 1_555
N3D N4D 1_555 1_555
N4D C6D 1_555 1_555
N5D C1D 1_555 1_555
O1D C8D 1_555 1_555
O2D Mg1 1_555 1_555
O3D Mg1 1_555 1_555
H1D O3D 1_555 1_555
H2D O3D 1_555 1_555
C1D C2D 1_555 1_555
C2D H3D 1_555 1_555
C3D C2D 1_555 1_555
H4D C3D 1_555 1_555
C4D C3D 1_555 1_555
H5D C4D 1_555 1_555
C5D N5D 1_555 1_555
H6D C5D 1_555 1_555
C6D N1D 1_555 1_555
C7D N2D 1_555 1_555
H7D C7D 1_555 1_555
H8D C7D 1_555 1_555
C8D O2D 1_555 1_555
Mg1_2 O1D 1_555 1_555
Mg1_3 O1 1_555 1_555
O1_2 Mg1 1_555 1_555
O1D_2 Mg1 1_555 1_555
C1 C6 1_555 1_555
C4 C5 1_555 1_555
C1D C6D 1_555 1_555
C4D C5D 1_555 1_555
C7D C8D 1_555 1_555

#END
