
#######################################################################
#
#                 Cambridge Crystallographic Data Centre
#                                CCDC 
#
#######################################################################
#
# If this CIF has been generated from an entry in the Cambridge 
# Structural Database, then it will include bibliographic, chemical, 
# crystal, experimental, refinement or atomic coordinate data resulting 
# from the CCDC's data processing and validation procedures.
#
#######################################################################

data_FIPFIU
_symmetry_cell_setting           triclinic
_symmetry_space_group_name_H-M   'P -1'
_symmetry_Int_Tables_number      2
_space_group_name_Hall           '-P 1'
loop_
_symmetry_equiv_pos_site_id
_symmetry_equiv_pos_as_xyz
1 x,y,z
2 -x,-y,-z
_cell_length_a                   5.0270(4)
_cell_length_b                   8.1075(6)
_cell_length_c                   9.5250(7)
_cell_angle_alpha                69.4420(10)
_cell_angle_beta                 80.5500(10)
_cell_angle_gamma                76.0040(10)
_cell_volume                     351.347
loop_
_atom_site_label
_atom_site_type_symbol
_atom_site_fract_x
_atom_site_fract_y
_atom_site_fract_z
Cd1 Cd 0.5000 0.5000 0.0000
O1 O 0.8978(3) 0.3206(2) 0.09625(15)
O2 O 1.2465(3) 0.3361(2) 0.20588(15)
N1 N 0.5287(3) 0.3158(2) 0.84712(17)
C1 C 0.3651(4) 0.1958(3) 0.8800(2)
C2 C 0.3765(5) 0.0885(3) 0.7930(2)
C3 C 0.7028(4) 0.3330(3) 0.7225(2)
C4 C 1.0067(3) 0.3117(2) 0.20896(18)
C5 C 0.5533(4) 0.1093(3) 0.6636(2)
C6 C 0.8368(4) 0.2664(3) 0.3563(2)
C7 C 0.8988(4) 0.2750(3) 0.4831(2)
C8 C 0.7185(4) 0.2375(2) 0.62408(19)
H1 H 0.240(6) 0.190(4) 0.965(4)
H2 H 0.830(7) 0.419(5) 0.701(4)
H3 H 0.255(9) -0.022(6) 0.833(5)
H4 H 0.576(6) 0.041(4) 0.606(3)
H5 H 0.661(8) 0.245(5) 0.348(5)
H6 H 1.064(7) 0.303(5) 0.483(4)
Cd1_2 Cd 1.5000 0.5000 0.0000
Cd1_3 Cd 0.5000 0.5000 1.0000
Cd1_4 Cd -0.5000 0.5000 0.0000
Cd1_5 Cd 0.5000 0.5000 -1.0000
O1A O 0.1022(3) 0.6794(2) -0.09625(15)
O2A O -0.2465(3) 0.6639(2) -0.20588(15)
O2_2 O 0.2465(3) 0.3361(2) 0.20588(15)
O2A_2 O 0.7535(3) 0.6639(2) -0.20588(15)
N1A N 0.4713(3) 0.6842(2) -0.84712(17)
N1_2 N 0.5287(3) 0.3158(2) -0.15288(17)
N1A_2 N 0.4713(3) 0.6842(2) 0.15288(17)
C1A C 0.6349(4) 0.8042(3) -0.8800(2)
C2A C 0.6235(5) 0.9115(3) -0.7930(2)
C3A C 0.2972(4) 0.6670(3) -0.7225(2)
C4A C -0.0067(3) 0.6883(2) -0.20896(18)
C5A C 0.4467(4) 0.8907(3) -0.6636(2)
C6A C 0.1632(4) 0.7336(3) -0.3563(2)
C7A C 0.1012(4) 0.7250(3) -0.4831(2)
C8A C 0.2815(4) 0.7625(2) -0.62408(19)
H1A H 0.760(6) 0.810(4) -0.965(4)
H2A H 0.170(7) 0.581(5) -0.701(4)
H3A H 0.745(9) 1.022(6) -0.833(5)
H4A H 0.424(6) 0.959(4) -0.606(3)
H5A H 0.339(8) 0.755(5) -0.348(5)
H6A H -0.064(7) 0.697(5) -0.483(4)
loop_
_geom_bond_atom_site_label_1
_geom_bond_atom_site_label_2
_geom_bond_site_symmetry_1
_geom_bond_site_symmetry_2
Cd1 O1 1_555 1_555
O1 C4 1_555 1_555
O2 C4 1_555 1_555
N1 C1 1_555 1_555
C1 C2 1_555 1_555
C2 C5 1_555 1_555
C3 N1 1_555 1_555
C4 C6 1_555 1_555
C5 C8 1_555 1_555
C6 C7 1_555 1_555
C7 C8 1_555 1_555
C8 C3 1_555 1_555
H1 C1 1_555 1_555
H2 C3 1_555 1_555
H3 C2 1_555 1_555
H4 C5 1_555 1_555
H5 C6 1_555 1_555
H6 C7 1_555 1_555
Cd1_2 O2 1_555 1_555
Cd1_3 N1 1_555 1_555
Cd1_4 O2A 1_555 1_555
Cd1_5 N1A 1_555 1_555
O1A Cd1 1_555 1_555
O2A C4A 1_555 1_555
O2_2 Cd1 1_555 1_555
O2A_2 Cd1 1_555 1_555
N1A C1A 1_555 1_555
N1_2 Cd1 1_555 1_555
N1A_2 Cd1 1_555 1_555
C1A C2A 1_555 1_555
C2A C5A 1_555 1_555
C3A N1A 1_555 1_555
C4A O1A 1_555 1_555
C5A C8A 1_555 1_555
C6A C4A 1_555 1_555
C7A C6A 1_555 1_555
C8A C3A 1_555 1_555
H1A C1A 1_555 1_555
H2A C3A 1_555 1_555
H3A C2A 1_555 1_555
H4A C5A 1_555 1_555
H5A C6A 1_555 1_555
H6A C7A 1_555 1_555
C7A C8A 1_555 1_555

#END
