
#######################################################################
#
#                 Cambridge Crystallographic Data Centre
#                                CCDC 
#
#######################################################################
#
# If this CIF has been generated from an entry in the Cambridge 
# Structural Database, then it will include bibliographic, chemical, 
# crystal, experimental, refinement or atomic coordinate data resulting 
# from the CCDC's data processing and validation procedures.
#
#######################################################################

data_FIPFEP
_symmetry_cell_setting           monoclinic
_symmetry_space_group_name_H-M   'I 2/c'
_symmetry_Int_Tables_number      15
_space_group_name_Hall           '-I 2yc'
loop_
_symmetry_equiv_pos_site_id
_symmetry_equiv_pos_as_xyz
1 x,y,z
2 1/2+x,1/2+y,1/2+z
3 -x,y,1/2-z
4 1/2-x,1/2+y,-z
5 -x,-y,-z
6 1/2-x,1/2-y,1/2-z
7 x,-y,1/2+z
8 1/2+x,1/2-y,z
_cell_length_a                   10.349(12)
_cell_length_b                   11.640(12)
_cell_length_c                   28.050(22)
_cell_angle_alpha                90
_cell_angle_beta                 95.0(1)
_cell_angle_gamma                90
_cell_volume                     3366.11
loop_
_atom_site_label
_atom_site_type_symbol
_atom_site_fract_x
_atom_site_fract_y
_atom_site_fract_z
Sb1 Sb 0.0490(4) 0.1065(2) 0.1455(1)
Cl1 Cl -0.1304(15) -0.0040(9) 0.1572(4)
Cl2 Cl 0.1922(16) -0.0357(10) 0.1813(4)
Cl3 Cl 0.0676(17) 0.0333(9) 0.0671(4)
S1 S -0.1640(15) 0.2840(10) 0.1153(4)
C1 C -0.0673(50) 0.3792(31) 0.0957(14)
S2 S 0.0508(15) 0.3552(9) 0.0622(4)
C2 C 0.0930(47) 0.4898(26) 0.0542(11)
S3 S 0.2269(18) 0.5074(1) 0.0178(4)
C3 C 0.2639(76) 0.6434(50) 0.0250(23)
C4 C 0.2080(92) 0.7229(63) 0.0485(30)
S4 S 0.0716(20) 0.7190(8) 0.0779(5)
C5 C 0.0553(49) 0.5706(30) 0.0794(13)
S5 S -0.0751(15) 0.5256(9) 0.1107(4)
S6 S 0.0000 0.1715(13) 0.2500
C6 C 0.0000 0.3097(66) 0.2500
S7 S -0.1029(18) 0.3892(10) 0.2796(4)
C7 C -0.0582(55) 0.5257(34) 0.2659(15)
S8 S -0.1150(22) 0.6427(11) 0.2907(5)
C8 C -0.024(11) 0.7561(62) 0.2687(25)
H1 H 0.2653(76) 0.6724(50) -0.0066(23)
H2 H 0.3496(76) 0.6419(50) 0.0401(23)
H3 H 0.2734(92) 0.7495(63) 0.0718(30)
H4 H 0.1897(92) 0.7806(63) 0.0249(30)
H5 H 0.048(10) 0.7636(62) 0.2915(25)
H6 H -0.079(10) 0.8212(62) 0.2704(25)
S1G S 0.3360(15) 0.2160(10) 0.1153(4)
Sb1G Sb -0.4510(4) 0.3935(2) 0.1455(1)
Sb1B Sb -0.0490(4) 0.1065(2) 0.3545(1)
S7B S 0.1029(18) 0.3892(10) 0.2204(4)
C7B C 0.0582(55) 0.5257(34) 0.2341(15)
C8B C 0.024(11) 0.7561(62) 0.2313(25)
Cl1G Cl -0.6304(15) 0.5040(9) 0.1572(4)
Cl2G Cl -0.3078(16) 0.5357(10) 0.1813(4)
Cl3G Cl -0.4324(17) 0.4667(9) 0.0671(4)
S1G_2 S -0.6640(15) 0.2160(10) 0.1153(4)
S6E S -0.5000 0.3285(13) 0.2500
S8B S 0.1150(22) 0.6427(11) 0.2093(5)
H5B H -0.048(10) 0.7636(62) 0.2085(25)
H6B H 0.079(10) 0.8212(62) 0.2296(25)
Sb1E Sb -0.5490(4) 0.3935(2) 0.3545(1)
C6E C -0.5000 0.1903(66) 0.2500
S7E S -0.3971(18) 0.1108(10) 0.2204(4)
S7G S -0.6029(18) 0.1108(10) 0.2796(4)
C7E C -0.4418(55) -0.0257(34) 0.2341(15)
C7G C -0.5582(55) -0.0257(34) 0.2659(15)
S8E S -0.3850(22) -0.1427(11) 0.2093(5)
S8G S -0.6150(22) -0.1427(11) 0.2907(5)
C8E C -0.476(11) -0.2561(62) 0.2313(25)
C8G C -0.524(11) -0.2561(62) 0.2687(25)
H5E H -0.548(10) -0.2636(62) 0.2085(25)
H6E H -0.421(10) -0.3212(62) 0.2296(25)
H5G H -0.452(10) -0.2636(62) 0.2915(25)
H6G H -0.579(10) -0.3212(62) 0.2704(25)
loop_
_geom_bond_atom_site_label_1
_geom_bond_atom_site_label_2
_geom_bond_site_symmetry_1
_geom_bond_site_symmetry_2
Sb1 Cl1 1_555 1_555
Cl2 Sb1 1_555 1_555
Cl3 Sb1 1_555 1_555
S1 Sb1 1_555 1_555
C1 S1 1_555 1_555
S2 C1 1_555 1_555
C2 S2 1_555 1_555
S3 C2 1_555 1_555
C3 S3 1_555 1_555
C4 C3 1_555 1_555
S4 C4 1_555 1_555
C5 C2 1_555 1_555
S5 C1 1_555 1_555
S6 Sb1 1_555 1_555
C6 S6 1_555 1_555
S7 C6 1_555 1_555
C7 S7 1_555 1_555
S8 C7 1_555 1_555
C8 S8 1_555 1_555
H1 C3 1_555 1_555
H2 C3 1_555 1_555
H3 C4 1_555 1_555
H4 C4 1_555 1_555
H5 C8 1_555 1_555
H6 C8 1_555 1_555
S1G Sb1 1_555 1_555
Sb1G S1 1_555 1_555
Sb1B S6 1_555 1_555
S7B C6 1_555 1_555
C7B C7 1_555 1_555
C8B C8 1_555 1_555
Cl1G Sb1G 1_555 1_555
Cl2G Sb1G 1_555 1_555
Cl3G Sb1G 1_555 1_555
S1G_2 Sb1G 1_555 1_555
S6E Sb1G 1_555 1_555
S8B C7B 1_555 1_555
H5B C8B 1_555 1_555
H6B C8B 1_555 1_555
Sb1E S6E 1_555 1_555
C6E S6E 1_555 1_555
S7E C6E 1_555 1_555
S7G C6E 1_555 1_555
C7E S7E 1_555 1_555
C7G S7G 1_555 1_555
S8E C7E 1_555 1_555
S8G C7G 1_555 1_555
C8E S8E 1_555 1_555
C8G S8G 1_555 1_555
H5E C8E 1_555 1_555
H6E C8E 1_555 1_555
H5G C8G 1_555 1_555
H6G C8G 1_555 1_555
S4 C5 1_555 1_555
C5 S5 1_555 1_555
S7B C7B 1_555 1_555
C8B S8B 1_555 1_555
C7E C7G 1_555 1_555
C8E C8G 1_555 1_555

#END
