
#######################################################################
#
#                 Cambridge Crystallographic Data Centre
#                                CCDC 
#
#######################################################################
#
# If this CIF has been generated from an entry in the Cambridge 
# Structural Database, then it will include bibliographic, chemical, 
# crystal, experimental, refinement or atomic coordinate data resulting 
# from the CCDC's data processing and validation procedures.
#
#######################################################################

data_FIPFIV
_symmetry_cell_setting           monoclinic
_symmetry_space_group_name_H-M   'P 21/n'
_symmetry_Int_Tables_number      14
_space_group_name_Hall           '-P 2yn'
loop_
_symmetry_equiv_pos_site_id
_symmetry_equiv_pos_as_xyz
1 x,y,z
2 1/2-x,1/2+y,1/2-z
3 -x,-y,-z
4 1/2+x,1/2-y,1/2+z
_cell_length_a                   15.525(3)
_cell_length_b                   9.8504(17)
_cell_length_c                   15.851(3)
_cell_angle_alpha                90
_cell_angle_beta                 108.049(3)
_cell_angle_gamma                90
_cell_volume                     2304.77
loop_
_atom_site_label
_atom_site_type_symbol
_atom_site_fract_x
_atom_site_fract_y
_atom_site_fract_z
Ag1 Ag -0.005945(12) 0.385248(18) 0.064294(11)
C1 C 0.03772(16) 0.1239(2) -0.14389(15)
H1 H 0.0188 0.1273 -0.2056
N1 N 0.03705(13) 0.22574(19) -0.00800(12)
C2 C 0.44118(15) 0.3245(2) 0.09443(14)
C3 C 0.27695(16) -0.1002(2) -0.30189(16)
C4 C 0.09416(14) 0.0200(2) -0.10012(15)
C5 C 0.12248(17) -0.0911(2) -0.15102(16)
H2 H 0.0692 -0.1276 -0.1949
H3 H 0.1503 -0.1639 -0.1105
O1 O 0.14439(14) 0.3433(2) 0.23332(14)
C6 C 0.49817(16) 0.2703(2) 0.04330(15)
O2 O 0.13088(12) 0.51176(18) 0.13744(12)
C7 C 0.44404(15) 0.4611(2) 0.11809(15)
H4 H 0.4832 0.5195 0.1018
C8 C 0.38987(16) 0.5111(2) 0.16513(15)
H5 H 0.3926 0.6028 0.1796
C9 C 0.33148(15) 0.4270(2) 0.19122(15)
C10 C 0.09307(18) 0.1273(3) 0.03425(16)
H6 H 0.1136 0.1289 0.0959
N2 N 0.39692(13) 0.0104(2) -0.38372(13)
C11 C 0.27449(16) 0.4796(3) 0.24514(16)
H7 H 0.2801 0.5776 0.2498
H8 H 0.2963 0.4421 0.3046
C12 C 0.18916(16) -0.0415(2) -0.19764(15)
H9 H 0.2447 -0.0128 -0.1534
H10 H 0.1636 0.0367 -0.2339
C13 C 0.25216(17) -0.0783(3) -0.39222(16)
H11 H 0.1939 -0.1002 -0.4276
C14 C 0.58841(16) 0.3067(3) 0.06275(16)
H12 H 0.6135 0.3673 0.1088
C15 C 0.64180(19) 0.2551(3) 0.01533(18)
H13 H 0.7024 0.2804 0.0298
C16 C 0.21144(16) -0.1507(3) -0.25620(16)
H14 H 0.2373 -0.2289 -0.2200
H15 H 0.1560 -0.1796 -0.3005
C17 C 0.32859(18) 0.2909(3) 0.16766(18)
H16 H 0.2895 0.2328 0.1843
C18 C 0.12209(17) 0.0233(3) -0.00863(16)
H17 H 0.1601 -0.0439 0.0239
C19 C 0.17438(17) 0.4414(2) 0.20280(16)
C20 C 0.31275(17) -0.0242(3) -0.43041(15)
H18 H 0.2942 -0.0113 -0.4915
C21 C 0.38204(18) 0.2400(3) 0.12038(18)
H19 H 0.3787 0.1484 0.1056
C22 C 0.6058(2) 0.1667(3) -0.0530(2)
H20 H 0.6416 0.1314 -0.0852
C23 C 0.42229(17) -0.0148(3) -0.29700(16)
H21 H 0.4814 0.0056 -0.2633
C24 C 0.36499(18) -0.0697(3) -0.25500(16)
H22 H 0.3862 -0.0862 -0.1943
C25 C 0.4635(2) 0.1814(4) -0.0254(2)
H23 H 0.4032 0.1547 -0.0400
C26 C 0.00963(15) 0.2221(2) -0.09645(15)
H24 H -0.0302 0.2887 -0.1274
C27 C 0.5173(3) 0.1309(4) -0.0734(3)
H25 H 0.4924 0.0717 -0.1204
Ag1C Ag 0.494055(12) 0.114752(18) -0.435706(11)
N2C N -0.10308(13) 0.4896(2) 0.11628(13)
O3 O 0.21523(15) 0.7419(2) 0.10001(15)
H26 H 0.186(3) 0.655(5) 0.119(3)
H27 H 0.257(3) 0.766(5) 0.156(3)
loop_
_geom_bond_atom_site_label_1
_geom_bond_atom_site_label_2
_geom_bond_site_symmetry_1
_geom_bond_site_symmetry_2
Ag1 N1 1_555 1_555
C1 H1 1_555 1_555
N1 C10 1_555 1_555
C2 C6 1_555 1_555
C3 C13 1_555 1_555
C4 C1 1_555 1_555
C5 C4 1_555 1_555
H2 C5 1_555 1_555
H3 C5 1_555 1_555
O1 C19 1_555 1_555
C6 C14 1_555 1_555
O2 Ag1 1_555 1_555
C7 C2 1_555 1_555
H4 C7 1_555 1_555
C8 C7 1_555 1_555
H5 C8 1_555 1_555
C9 C8 1_555 1_555
C10 H6 1_555 1_555
N2 C20 1_555 1_555
C11 C9 1_555 1_555
H7 C11 1_555 1_555
H8 C11 1_555 1_555
C12 C5 1_555 1_555
H9 C12 1_555 1_555
H10 C12 1_555 1_555
C13 H11 1_555 1_555
C14 H12 1_555 1_555
C15 C14 1_555 1_555
H13 C15 1_555 1_555
C16 C3 1_555 1_555
H14 C16 1_555 1_555
H15 C16 1_555 1_555
C17 C9 1_555 1_555
H16 C17 1_555 1_555
C18 C4 1_555 1_555
H17 C18 1_555 1_555
C19 O2 1_555 1_555
C20 C13 1_555 1_555
H18 C20 1_555 1_555
C21 C2 1_555 1_555
H19 C21 1_555 1_555
C22 C15 1_555 1_555
H20 C22 1_555 1_555
C23 N2 1_555 1_555
H21 C23 1_555 1_555
C24 C3 1_555 1_555
H22 C24 1_555 1_555
C25 C6 1_555 1_555
H23 C25 1_555 1_555
C26 C1 1_555 1_555
H24 C26 1_555 1_555
C27 C22 1_555 1_555
H25 C27 1_555 1_555
O3 H26 1_555 1_555
H27 O3 1_555 1_555
Ag1C N2 1_555 1_555
N2C Ag1 1_555 1_555
N1 C26 1_555 1_555
C10 C18 1_555 1_555
C11 C19 1_555 1_555
C12 C16 1_555 1_555
C17 C21 1_555 1_555
C23 C24 1_555 1_555
C25 C27 1_555 1_555

#END
