
#######################################################################
#
#                 Cambridge Crystallographic Data Centre
#                                CCDC 
#
#######################################################################
#
# If this CIF has been generated from an entry in the Cambridge 
# Structural Database, then it will include bibliographic, chemical, 
# crystal, experimental, refinement or atomic coordinate data resulting 
# from the CCDC's data processing and validation procedures.
#
#######################################################################

data_FIPFIU01
_symmetry_cell_setting           triclinic
_symmetry_space_group_name_H-M   'P -1'
_symmetry_Int_Tables_number      2
_space_group_name_Hall           '-P 1'
loop_
_symmetry_equiv_pos_site_id
_symmetry_equiv_pos_as_xyz
1 x,y,z
2 -x,-y,-z
_cell_length_a                   5.031(2)
_cell_length_b                   8.109(3)
_cell_length_c                   9.531(4)
_cell_angle_alpha                69.411(6)
_cell_angle_beta                 80.554(6)
_cell_angle_gamma                76.020(7)
_cell_volume                     351.869
loop_
_atom_site_label
_atom_site_type_symbol
_atom_site_fract_x
_atom_site_fract_y
_atom_site_fract_z
Cd1 Cd 0.0000 1.0000 1.0000
O1 O -0.2545(5) 0.8361(3) 1.2058(2)
O2 O -0.6026(5) 0.8201(3) 1.0963(2)
N1 N -0.9721(6) 0.8147(4) 1.8469(3)
C1 C -0.7979(7) 0.8323(5) 1.7225(4)
C2 C -0.7806(7) 0.7372(5) 1.6241(4)
C3 C -0.9474(8) 0.6103(5) 1.6644(4)
C4 C -1.1232(8) 0.5895(5) 1.7924(4)
C5 C -1.1324(7) 0.6948(5) 1.8797(4)
C6 C -0.6008(7) 0.7740(5) 1.4833(4)
C7 C -0.6628(7) 0.7663(5) 1.3568(4)
C8 C -0.4929(7) 0.8113(4) 1.2090(4)
Cd1_2 Cd -1.0000 1.0000 1.0000
Cd1_3 Cd -1.0000 1.0000 2.0000
Cd1_4 Cd 1.0000 1.0000 1.0000
Cd1_5 Cd 1.0000 1.0000 0.0000
O1A O 0.2545(5) 1.1639(3) 0.7942(2)
O2A O 0.6026(5) 1.1799(3) 0.9037(2)
O2_2 O 0.3974(5) 0.8201(3) 1.0963(2)
O2A_2 O -0.3974(5) 1.1799(3) 0.9037(2)
N1A N 0.9721(6) 1.1853(4) 0.1531(3)
N1_2 N 0.0279(6) 0.8147(4) 0.8469(3)
N1A_2 N -0.0279(6) 1.1853(4) 1.1531(3)
C1A C 0.7979(7) 1.1677(5) 0.2775(4)
C2A C 0.7806(7) 1.2628(5) 0.3759(4)
C3A C 0.9474(8) 1.3897(5) 0.3356(4)
C4A C 1.1232(8) 1.4105(5) 0.2076(4)
C5A C 1.1324(7) 1.3052(5) 0.1203(4)
C6A C 0.6008(7) 1.2260(5) 0.5167(4)
C7A C 0.6628(7) 1.2337(5) 0.6432(4)
C8A C 0.4929(7) 1.1887(4) 0.7910(4)
loop_
_geom_bond_atom_site_label_1
_geom_bond_atom_site_label_2
_geom_bond_site_symmetry_1
_geom_bond_site_symmetry_2
Cd1 O1 1_555 1_555
O1 C8 1_555 1_555
O2 C8 1_555 1_555
N1 C1 1_555 1_555
C1 C2 1_555 1_555
C2 C3 1_555 1_555
C3 C4 1_555 1_555
C4 C5 1_555 1_555
C5 N1 1_555 1_555
C6 C2 1_555 1_555
C7 C6 1_555 1_555
C8 C7 1_555 1_555
Cd1_2 O2 1_555 1_555
Cd1_3 N1 1_555 1_555
Cd1_4 O2A 1_555 1_555
Cd1_5 N1A 1_555 1_555
O1A Cd1 1_555 1_555
O2A C8A 1_555 1_555
O2_2 Cd1 1_555 1_555
O2A_2 Cd1 1_555 1_555
N1A C1A 1_555 1_555
N1_2 Cd1 1_555 1_555
N1A_2 Cd1 1_555 1_555
C1A C2A 1_555 1_555
C2A C3A 1_555 1_555
C3A C4A 1_555 1_555
C4A C5A 1_555 1_555
C5A N1A 1_555 1_555
C6A C2A 1_555 1_555
C7A C6A 1_555 1_555
C8A O1A 1_555 1_555
C7A C8A 1_555 1_555

#END
