
#######################################################################
#
#                 Cambridge Crystallographic Data Centre
#                                CCDC 
#
#######################################################################
#
# If this CIF has been generated from an entry in the Cambridge 
# Structural Database, then it will include bibliographic, chemical, 
# crystal, experimental, refinement or atomic coordinate data resulting 
# from the CCDC's data processing and validation procedures.
#
#######################################################################

data_FIPGUH
_symmetry_cell_setting           monoclinic
_symmetry_space_group_name_H-M   'P 2/c'
_symmetry_Int_Tables_number      13
_space_group_name_Hall           '-P 2yc'
loop_
_symmetry_equiv_pos_site_id
_symmetry_equiv_pos_as_xyz
1 x,y,z
2 -x,y,1/2-z
3 -x,-y,-z
4 x,-y,1/2+z
_cell_length_a                   12.019(3)
_cell_length_b                   9.668(2)
_cell_length_c                   18.573(5)
_cell_angle_alpha                90
_cell_angle_beta                 98.59(3)
_cell_angle_gamma                90
_cell_volume                     2133.97
loop_
_atom_site_label
_atom_site_type_symbol
_atom_site_fract_x
_atom_site_fract_y
_atom_site_fract_z
Cd1 Cd 0.16223(4) 0.79012(5) 0.78440(2)
N1 N 0.1416(4) 0.5488(6) 0.7966(3)
N2 N 0.2935(5) 0.6765(6) 0.7238(3)
O1 O 0.2865(5) 0.7691(6) 0.9029(3)
O2 O 0.2771(5) 0.9606(6) 0.8424(3)
O3 O -0.0042(4) 0.7998(5) 0.8307(2)
O4 O -0.1421(5) 0.9500(6) 0.8129(3)
C1 C 0.3184(6) 0.8888(8) 0.8954(4)
C2 C 0.4122(5) 0.9471(7) 0.9499(3)
C3 C 0.4648(8) 1.0683(9) 0.9369(4)
H1 H 0.4401 1.1199 0.8920
C4 C 0.4483(7) 0.8820(9) 1.0136(4)
H2 H 0.4111 0.7961 1.0247
C5 C -0.0594(7) 0.8999(8) 0.8521(3)
C6 C -0.0269(6) 0.9541(7) 0.9280(3)
C7 C 0.0596(6) 0.8933(7) 0.9741(3)
H3 H 0.1027 0.8181 0.9561
C8 C -0.0870(6) 1.0624(7) 0.9532(3)
H4 H -0.1480 1.1075 0.9206
C9 C 0.3697(7) 0.7383(10) 0.6885(4)
H5 H 0.3715 0.8396 0.6867
C10 C 0.4469(7) 0.6632(12) 0.6541(4)
H6 H 0.5012 0.7122 0.6288
C11 C 0.4464(7) 0.5236(12) 0.6558(4)
H7 H 0.5004 0.4707 0.6321
C12 C 0.3676(7) 0.4549(9) 0.6920(4)
C13 C 0.2933(6) 0.5365(8) 0.7253(4)
C14 C 0.3613(8) 0.3064(10) 0.6971(5)
H8 H 0.4132 0.2502 0.6734
C15 C 0.2872(8) 0.2418(9) 0.7331(5)
H9 H 0.2850 0.1405 0.7351
C16 C 0.2102(7) 0.3243(7) 0.7691(4)
C17 C 0.2116(6) 0.4685(7) 0.7640(3)
C18 C 0.0704(6) 0.4865(8) 0.8333(4)
H10 H 0.0183 0.5443 0.8559
C19 C 0.0642(7) 0.3444(9) 0.8419(4)
H11 H 0.0111 0.3037 0.8712
C20 C 0.1328(8) 0.2636(9) 0.8091(5)
H12 H 0.1288 0.1627 0.8131
Cd1B Cd 0.83777(4) 1.20988(5) 1.21560(2)
Cd1A Cd -0.16223(4) 0.79012(5) 0.71560(2)
Cd1C Cd 0.16223(4) 1.20988(5) 1.28440(2)
Cd1B_2 Cd -0.16223(4) 1.20988(5) 1.21560(2)
N1B N 0.8584(4) 1.4512(6) 1.2034(3)
N2B N 0.7065(5) 1.3235(6) 1.2762(3)
O1B O 0.7135(5) 1.2309(6) 1.0971(3)
O2B O 0.7229(5) 1.0394(6) 1.1576(3)
O3B O 0.0042(4) 1.2002(5) 1.1693(2)
O3A O 0.0042(4) 0.7998(5) 0.6693(2)
O3C O 0.9958(4) 1.2002(5) 1.3307(2)
O3B_2 O 1.0042(4) 1.2002(5) 1.1693(2)
O4B O 0.1421(5) 1.0500(6) 1.1871(3)
O4A O 0.1421(5) 0.9500(6) 0.6871(3)
O4C O 0.8579(5) 1.0500(6) 1.3129(3)
C1B C 0.6816(6) 1.1112(8) 1.1046(4)
C2B C 0.5878(5) 1.0529(7) 1.0501(3)
C3B C 0.5352(8) 0.9317(9) 1.0631(4)
H1B H 0.5599 0.8801 1.1080
C4B C 0.5517(7) 1.1180(9) 0.9864(4)
H2B H 0.5889 1.2039 0.9753
C5B C 0.0594(7) 1.1001(8) 1.1479(3)
C6B C 0.0269(6) 1.0459(7) 1.0720(3)
C7B C -0.0596(6) 1.1067(7) 1.0259(3)
H3B H -0.1027 1.1819 1.0439
C8B C 0.0870(6) 0.9376(7) 1.0468(3)
H4B H 0.1480 0.8925 1.0794
C9B C 0.6303(7) 1.2617(10) 1.3115(4)
H5B H 0.6285 1.1604 1.3133
C10B C 0.5531(7) 1.3368(12) 1.3459(4)
H6B H 0.4988 1.2878 1.3712
C11B C 0.5536(7) 1.4764(12) 1.3442(4)
H7B H 0.4996 1.5293 1.3679
C12B C 0.6324(7) 1.5451(9) 1.3080(4)
C13B C 0.7067(6) 1.4635(8) 1.2747(4)
C14B C 0.6387(8) 1.6936(10) 1.3029(5)
H8B H 0.5868 1.7498 1.3266
C15B C 0.7128(8) 1.7582(9) 1.2669(5)
H9B H 0.7150 1.8595 1.2649
C16B C 0.7898(7) 1.6757(7) 1.2309(4)
C17B C 0.7884(6) 1.5315(7) 1.2360(3)
C18B C 0.9296(6) 1.5135(8) 1.1667(4)
H10B H 0.9817 1.4557 1.1441
C19B C 0.9358(7) 1.6556(9) 1.1581(4)
H11B H 0.9889 1.6963 1.1288
C20B C 0.8672(8) 1.7364(9) 1.1909(5)
H12B H 0.8712 1.8373 1.1869
N3 N 0.7552(7) 0.4115(9) 0.4996(4)
C21 C 0.6469(9) 0.4246(12) 0.5447(6)
C22 C 0.7797(12) 0.2659(13) 0.4877(7)
O5 O 0.8788(13) 0.512(2) 0.4501(9)
C23 C 0.8016(18) 0.5211(19) 0.4778(10)
loop_
_geom_bond_atom_site_label_1
_geom_bond_atom_site_label_2
_geom_bond_site_symmetry_1
_geom_bond_site_symmetry_2
Cd1 N1 1_555 1_555
N1 C17 1_555 1_555
N2 Cd1 1_555 1_555
O1 Cd1 1_555 1_555
O2 Cd1 1_555 1_555
O3 Cd1 1_555 1_555
O4 C5 1_555 1_555
C1 O1 1_555 1_555
C2 C1 1_555 1_555
C3 C2 1_555 1_555
H1 C3 1_555 1_555
C4 C2 1_555 1_555
H2 C4 1_555 1_555
C5 O3 1_555 1_555
C6 C5 1_555 1_555
C7 C6 1_555 1_555
H3 C7 1_555 1_555
C8 C6 1_555 1_555
H4 C8 1_555 1_555
C9 N2 1_555 1_555
H5 C9 1_555 1_555
C10 C9 1_555 1_555
H6 C10 1_555 1_555
C11 C10 1_555 1_555
H7 C11 1_555 1_555
C12 C11 1_555 1_555
C13 N2 1_555 1_555
C14 C12 1_555 1_555
H8 C14 1_555 1_555
C15 C14 1_555 1_555
H9 C15 1_555 1_555
C16 C15 1_555 1_555
C17 C13 1_555 1_555
C18 N1 1_555 1_555
H10 C18 1_555 1_555
C19 C18 1_555 1_555
H11 C19 1_555 1_555
C20 C16 1_555 1_555
H12 C20 1_555 1_555
N3 C21 1_555 1_555
C22 N3 1_555 1_555
O5 C23 1_555 1_555
C23 N3 1_555 1_555
Cd1B N1B 1_555 1_555
Cd1A O3 1_555 1_555
Cd1C O3B 1_555 1_555
Cd1B_2 O3B 1_555 1_555
N1B C17B 1_555 1_555
N2B Cd1B 1_555 1_555
O1B Cd1B 1_555 1_555
O2B Cd1B 1_555 1_555
O3B C5B 1_555 1_555
O3A Cd1 1_555 1_555
O3C Cd1B 1_555 1_555
O3B_2 Cd1B 1_555 1_555
O4B Cd1C 1_555 1_555
O4A Cd1 1_555 1_555
O4C Cd1B 1_555 1_555
C1B O1B 1_555 1_555
C2B C1B 1_555 1_555
C3B C4 1_555 1_555
H1B C3B 1_555 1_555
C4B C3 1_555 1_555
H2B C4B 1_555 1_555
C5B O4B 1_555 1_555
C6B C5B 1_555 1_555
C7B C8 1_555 1_555
H3B C7B 1_555 1_555
C8B C7 1_555 1_555
H4B C8B 1_555 1_555
C9B N2B 1_555 1_555
H5B C9B 1_555 1_555
C10B C9B 1_555 1_555
H6B C10B 1_555 1_555
C11B C10B 1_555 1_555
H7B C11B 1_555 1_555
C12B C11B 1_555 1_555
C13B N2B 1_555 1_555
C14B C12B 1_555 1_555
H8B C14B 1_555 1_555
C15B C14B 1_555 1_555
H9B C15B 1_555 1_555
C16B C15B 1_555 1_555
C17B C13B 1_555 1_555
C18B N1B 1_555 1_555
H10B C18B 1_555 1_555
C19B C18B 1_555 1_555
H11B C19B 1_555 1_555
C20B C16B 1_555 1_555
H12B C20B 1_555 1_555
O2 C1 1_555 1_555
O4 Cd1A 1_555 1_555
C12 C13 1_555 1_555
C16 C17 1_555 1_555
C19 C20 1_555 1_555
Cd1A O3A 1_555 1_555
O2B C1B 1_555 1_555
C2B C3B 1_555 1_555
C2B C4B 1_555 1_555
C6B C7B 1_555 1_555
C6B C8B 1_555 1_555
C12B C13B 1_555 1_555
C16B C17B 1_555 1_555
C19B C20B 1_555 1_555

#END
