
#######################################################################
#
#                 Cambridge Crystallographic Data Centre
#                                CCDC 
#
#######################################################################
#
# If this CIF has been generated from an entry in the Cambridge 
# Structural Database, then it will include bibliographic, chemical, 
# crystal, experimental, refinement or atomic coordinate data resulting 
# from the CCDC's data processing and validation procedures.
#
#######################################################################

data_FIPGOB01
_symmetry_cell_setting           monoclinic
_symmetry_space_group_name_H-M   'C 2/c'
_symmetry_Int_Tables_number      15
_space_group_name_Hall           '-C 2yn'
loop_
_symmetry_equiv_pos_site_id
_symmetry_equiv_pos_as_xyz
1 x,y,z
2 -x,y,1/2-z
3 1/2+x,1/2+y,z
4 1/2-x,1/2+y,1/2-z
5 -x,-y,-z
6 x,-y,1/2+z
7 1/2-x,1/2-y,-z
8 1/2+x,1/2-y,1/2+z
_cell_length_a                   12.3652(18)
_cell_length_b                   17.649(4)
_cell_length_c                   14.830(2)
_cell_angle_alpha                90
_cell_angle_beta                 95.671(11)
_cell_angle_gamma                90
_cell_volume                     3220.56
loop_
_atom_site_label
_atom_site_type_symbol
_atom_site_fract_x
_atom_site_fract_y
_atom_site_fract_z
Cd1 Cd 0.5000 0.22206 0.2500
N1 N 0.3502 0.3086 0.2524
N2 N 0.4711 0.2587 0.4048
C1 C 0.2916 0.3344 0.1794
H1 H 0.3140 0.3200 0.1204
C2 C 0.2001 0.3810 0.1811
H2 H 0.1606 0.3989 0.1246
C3 C 0.1674 0.4004 0.2604
H3 H 0.1044 0.4336 0.2630
C4 C 0.2233 0.3733 0.3401
H4 H 0.1261 0.4209 0.4332
C5 C 0.1916 0.3908 0.4278
C6 C 0.2502 0.3665 0.5026
H5 H 0.2267 0.3796 0.5618
C7 C 0.3473 0.3217 0.4994
C8 C 0.4144 0.2969 0.5763
H6 H 0.3957 0.3097 0.6370
C9 C 0.5042 0.2552 0.5660
H7 H 0.5510 0.2384 0.6192
C10 C 0.5298 0.2361 0.4796
H8 H 0.5940 0.2047 0.4738
C11 C 0.3817 0.3013 0.4142
C12 C 0.3174 0.3284 0.3334
C13 C 0.3048 0.1184 0.2079
C14 C 0.2147 0.0838 0.1464
C15 C 0.2179 0.0807 0.0561
H9 H 0.2814 0.1016 0.0302
C16 C 0.1354 0.0490 -0.0018
H10 H 0.1414 0.0488 -0.0672
C17 C 0.1280 0.0515 0.1784
H11 H 0.1240 0.0507 0.2429
C18 C 0.0437 0.0186 0.1230
H12 H -0.0166 -0.0036 0.1500
C19 C 0.0453 0.0179 0.0310
O1 O 0.3886 0.1393 0.1716
O2 O 0.2928 0.1297 0.2857
Cd1D Cd -0.5000 -0.22206 -0.2500
N1A N 0.6498 0.3086 0.2476
N2A N 0.5289 0.2587 0.0952
C1A C 0.7084 0.3344 0.3206
H1A H 0.6860 0.3200 0.3796
C2A C 0.7999 0.3810 0.3189
H2A H 0.8394 0.3989 0.3754
C3A C 0.8326 0.4004 0.2396
H3A H 0.8956 0.4336 0.2370
C4A C 0.7767 0.3733 0.1599
H4A H 0.8739 0.4209 0.0668
C5A C 0.8084 0.3908 0.0722
C6A C 0.7498 0.3665 -0.0026
H5A H 0.7733 0.3796 -0.0618
C7A C 0.6527 0.3217 0.0006
C8A C 0.5856 0.2969 -0.0763
H6A H 0.6043 0.3097 -0.1370
C9A C 0.4958 0.2552 -0.0660
H7A H 0.4490 0.2384 -0.1192
C10A C 0.4702 0.2361 0.0204
H8A H 0.4060 0.2047 0.0262
C11A C 0.6183 0.3013 0.0858
C12A C 0.6826 0.3284 0.1666
C13D C -0.3048 -0.1184 -0.2079
C14D C -0.2147 -0.0838 -0.1464
C15D C -0.2179 -0.0807 -0.0561
H9D H -0.2814 -0.1016 -0.0302
C16D C -0.1354 -0.0490 0.0018
H10D H -0.1414 -0.0488 0.0672
C17D C -0.1280 -0.0515 -0.1784
H11D H -0.1240 -0.0507 -0.2429
C18D C -0.0437 -0.0186 -0.1230
H12D H 0.0166 0.0036 -0.1500
C19D C -0.0453 -0.0179 -0.0310
O1D O -0.3886 -0.1393 -0.1716
O1A O 0.6114 0.1393 0.3284
O2D O -0.2928 -0.1297 -0.2857
O3 O 0.5256 0.0214 0.0982
loop_
_geom_bond_atom_site_label_1
_geom_bond_atom_site_label_2
_geom_bond_site_symmetry_1
_geom_bond_site_symmetry_2
Cd1 N1 1_555 1_555
N1 C1 1_555 1_555
N2 Cd1 1_555 1_555
C1 H1 1_555 1_555
C2 C1 1_555 1_555
H2 C2 1_555 1_555
C3 C2 1_555 1_555
H3 C3 1_555 1_555
C4 C3 1_555 1_555
H4 C5 1_555 1_555
C5 C4 1_555 1_555
C6 C5 1_555 1_555
H5 C6 1_555 1_555
C7 C6 1_555 1_555
C8 C7 1_555 1_555
H6 C8 1_555 1_555
C9 C8 1_555 1_555
H7 C9 1_555 1_555
C10 N2 1_555 1_555
H8 C10 1_555 1_555
C11 N2 1_555 1_555
C12 N1 1_555 1_555
C13 C14 1_555 1_555
C14 C15 1_555 1_555
C15 H9 1_555 1_555
C16 C15 1_555 1_555
H10 C16 1_555 1_555
C17 C14 1_555 1_555
H11 C17 1_555 1_555
C18 C17 1_555 1_555
H12 C18 1_555 1_555
C19 C16 1_555 1_555
O1 Cd1 1_555 1_555
O2 C13 1_555 1_555
Cd1D O1D 1_555 1_555
N1A Cd1 1_555 1_555
N2A Cd1 1_555 1_555
C1A N1A 1_555 1_555
H1A C1A 1_555 1_555
C2A C1A 1_555 1_555
H2A C2A 1_555 1_555
C3A C2A 1_555 1_555
H3A C3A 1_555 1_555
C4A C3A 1_555 1_555
H4A C5A 1_555 1_555
C5A C4A 1_555 1_555
C6A C5A 1_555 1_555
H5A C6A 1_555 1_555
C7A C6A 1_555 1_555
C8A C7A 1_555 1_555
H6A C8A 1_555 1_555
C9A C8A 1_555 1_555
H7A C9A 1_555 1_555
C10A N2A 1_555 1_555
H8A C10A 1_555 1_555
C11A N2A 1_555 1_555
C12A N1A 1_555 1_555
C13D C14D 1_555 1_555
C14D C15D 1_555 1_555
C15D H9D 1_555 1_555
C16D C15D 1_555 1_555
H10D C16D 1_555 1_555
C17D C14D 1_555 1_555
H11D C17D 1_555 1_555
C18D C17D 1_555 1_555
H12D C18D 1_555 1_555
C19D C19 1_555 1_555
O1D C13D 1_555 1_555
O1A Cd1 1_555 1_555
O2D C13D 1_555 1_555
C4 C12 1_555 1_555
C7 C11 1_555 1_555
C9 C10 1_555 1_555
C11 C12 1_555 1_555
C13 O1 1_555 1_555
C18 C19 1_555 1_555
C4A C12A 1_555 1_555
C7A C11A 1_555 1_555
C9A C10A 1_555 1_555
C11A C12A 1_555 1_555
C16D C19D 1_555 1_555
C18D C19D 1_555 1_555

#END
