
#######################################################################
#
#                 Cambridge Crystallographic Data Centre
#                                CCDC 
#
#######################################################################
#
# If this CIF has been generated from an entry in the Cambridge 
# Structural Database, then it will include bibliographic, chemical, 
# crystal, experimental, refinement or atomic coordinate data resulting 
# from the CCDC's data processing and validation procedures.
#
#######################################################################

data_FIPGOB
_symmetry_cell_setting           monoclinic
_symmetry_space_group_name_H-M   'C c'
_symmetry_Int_Tables_number      9
_space_group_name_Hall           'C -2yc'
loop_
_symmetry_equiv_pos_site_id
_symmetry_equiv_pos_as_xyz
1 x,y,z
2 x,-y,1/2+z
3 1/2+x,1/2+y,z
4 1/2+x,1/2-y,1/2+z
_cell_length_a                   12.3652(18)
_cell_length_b                   17.649(4)
_cell_length_c                   14.830(2)
_cell_angle_alpha                90
_cell_angle_beta                 95.671(11)
_cell_angle_gamma                90
_cell_volume                     3220.56
loop_
_atom_site_label
_atom_site_type_symbol
_atom_site_fract_x
_atom_site_fract_y
_atom_site_fract_z
Cd1 Cd 0.52988(9) 0.222064(13) 0.68254(9)
O1 O 0.4206(2) 0.13971(18) 0.6044(2)
O2 O 0.3368(2) 0.1097(2) 0.71986(19)
O3 O -0.3565(3) -0.1388(2) 0.2612(3)
O4 O -0.2488(3) -0.1497(2) 0.1485(3)
N1 N 0.3799(3) 0.3127(2) 0.6872(3)
N2 N 0.4983(3) 0.2574(2) 0.8350(3)
N3 N 0.6794(3) 0.3046(3) 0.6824(3)
N4 N 0.5561(3) 0.2600(2) 0.5253(2)
C1 C 0.3296(4) 0.3320(3) 0.6148(4)
H1 H 0.3531 0.3136 0.5575
C2 C 0.2348(4) 0.3822(4) 0.6139(4)
H2 H 0.1975 0.4015 0.5572
C3 C 0.2029(4) 0.3996(4) 0.6918(4)
H3 H 0.1400 0.4332 0.6934
C4 C 0.2507(4) 0.3745(3) 0.7680(4)
C5 C 0.2256(4) 0.3899(3) 0.8605(4)
H4 H 0.1617 0.4215 0.8671
C6 C 0.2825(4) 0.3644(3) 0.9395(4)
H5 H 0.2579 0.3765 0.9987
C7 C 0.3735(4) 0.3220(3) 0.9334(3)
C8 C 0.4367(4) 0.2974(3) 1.0070(3)
H6 H 0.4141 0.3081 1.0672
C9 C 0.5264(4) 0.2602(3) 1.0012(3)
H7 H 0.5740 0.2466 1.0555
C10 C 0.5532(4) 0.2398(3) 0.9134(4)
H8 H 0.6192 0.2095 0.9107
C11 C 0.4083(3) 0.3027(3) 0.8479(4)
C12 C 0.3469(3) 0.3287(3) 0.7636(3)
C13 C 0.7463(5) 0.3369(4) 0.7561(4)
H9 H 0.7252 0.3265 0.8168
C14 C 0.8346(5) 0.3798(3) 0.7517(4)
H10 H 0.8762 0.3963 0.8079
C15 C 0.8680(4) 0.4011(3) 0.6709(4)
H11 H 0.9313 0.4340 0.6674
C16 C 0.8041(4) 0.3721(3) 0.5878(4)
C17 C 0.8423(5) 0.3916(4) 0.5048(4)
H12 H 0.9095 0.4203 0.5008
C18 C 0.7820(5) 0.3686(4) 0.4344(5)
H13 H 0.8045 0.3828 0.3751
C19 C 0.6788(4) 0.3214(3) 0.4347(4)
C20 C 0.6080(7) 0.2964(4) 0.3544(4)
H14 H 0.6227 0.3113 0.2931
C21 C 0.5180(6) 0.2501(4) 0.3693(4)
H15 H 0.4720 0.2303 0.3170
C22 C 0.4935(5) 0.2324(3) 0.4542(4)
H16 H 0.4311 0.1999 0.4631
C23 C 0.6449(4) 0.2999(3) 0.5195(3)
C24 C 0.7122(4) 0.3280(3) 0.5969(3)
C25 C 0.3366(3) 0.1222(3) 0.6379(3)
C26 C 0.2445(3) 0.0838(3) 0.5810(3)
C27 C 0.2458(4) 0.0831(3) 0.4849(3)
H17 H 0.3069 0.1058 0.4572
C28 C 0.1614(4) 0.0505(4) 0.4311(3)
H18 H 0.1657 0.0505 0.3655
C29 C 0.1558(4) 0.0457(4) 0.6108(4)
H19 H 0.1564 0.0348 0.6757
C30 C 0.0706(4) 0.0236(4) 0.5554(4)
H20 H 0.0029 0.0098 0.5804
C31 C 0.0766(4) 0.0199(3) 0.4608(3)
C32 C -0.0140(4) -0.0159(2) 0.3989(4)
C33 C -0.0168(5) -0.0135(4) 0.3094(4)
H21 H 0.0362 0.0170 0.2804
C34 C -0.1095(4) -0.0474(4) 0.4348(4)
H22 H -0.1172 -0.0470 0.5000
C35 C -0.2729(5) -0.1146(4) 0.2221(4)
C36 C -0.1849(4) -0.0837(3) 0.2882(3)
C37 C -0.1003(5) -0.0573(4) 0.2540(4)
H23 H -0.0916 -0.0666 0.1899
C38 C -0.1900(4) -0.0783(4) 0.3727(5)
H24 H -0.2558 -0.0974 0.3967
Cd1A Cd -0.47012(9) -0.222064(13) 0.18254(9)
O3A O 0.6435(3) 0.1388(2) 0.7612(3)
O5 O 0.5514(3) 0.0173(3) 0.5257(3)
O6 O 0.5003(4) 0.0254(3) 0.8293(3)
loop_
_geom_bond_atom_site_label_1
_geom_bond_atom_site_label_2
_geom_bond_site_symmetry_1
_geom_bond_site_symmetry_2
Cd1 O1 1_555 1_555
O1 C25 1_555 1_555
O2 C25 1_555 1_555
O3 C35 1_555 1_555
O4 C35 1_555 1_555
N1 Cd1 1_555 1_555
N2 Cd1 1_555 1_555
N3 Cd1 1_555 1_555
N4 Cd1 1_555 1_555
C1 N1 1_555 1_555
H1 C1 1_555 1_555
C2 C1 1_555 1_555
H2 C2 1_555 1_555
C3 C2 1_555 1_555
H3 C3 1_555 1_555
C4 C3 1_555 1_555
C5 C4 1_555 1_555
H4 C5 1_555 1_555
C6 C5 1_555 1_555
H5 C6 1_555 1_555
C7 C6 1_555 1_555
C8 C7 1_555 1_555
H6 C8 1_555 1_555
C9 C8 1_555 1_555
H7 C9 1_555 1_555
C10 N2 1_555 1_555
H8 C10 1_555 1_555
C11 N2 1_555 1_555
C12 N1 1_555 1_555
C13 N3 1_555 1_555
H9 C13 1_555 1_555
C14 C13 1_555 1_555
H10 C14 1_555 1_555
C15 C14 1_555 1_555
H11 C15 1_555 1_555
C16 C15 1_555 1_555
C17 C16 1_555 1_555
H12 C17 1_555 1_555
C18 C17 1_555 1_555
H13 C18 1_555 1_555
C19 C18 1_555 1_555
C20 C19 1_555 1_555
H14 C20 1_555 1_555
C21 C20 1_555 1_555
H15 C21 1_555 1_555
C22 N4 1_555 1_555
H16 C22 1_555 1_555
C23 N4 1_555 1_555
C24 N3 1_555 1_555
C25 C26 1_555 1_555
C26 C27 1_555 1_555
C27 H17 1_555 1_555
C28 C27 1_555 1_555
H18 C28 1_555 1_555
C29 C26 1_555 1_555
H19 C29 1_555 1_555
C30 C29 1_555 1_555
H20 C30 1_555 1_555
C31 C28 1_555 1_555
C32 C31 1_555 1_555
C33 C32 1_555 1_555
H21 C33 1_555 1_555
C34 C32 1_555 1_555
H22 C34 1_555 1_555
C35 C36 1_555 1_555
C36 C37 1_555 1_555
C37 C33 1_555 1_555
H23 C37 1_555 1_555
C38 C34 1_555 1_555
H24 C38 1_555 1_555
Cd1A O3 1_555 1_555
O3A Cd1 1_555 1_555
C4 C12 1_555 1_555
C7 C11 1_555 1_555
C9 C10 1_555 1_555
C11 C12 1_555 1_555
C16 C24 1_555 1_555
C19 C23 1_555 1_555
C21 C22 1_555 1_555
C23 C24 1_555 1_555
C30 C31 1_555 1_555
C36 C38 1_555 1_555

#END
