
#######################################################################
#
#                 Cambridge Crystallographic Data Centre
#                                CCDC 
#
#######################################################################
#
# If this CIF has been generated from an entry in the Cambridge 
# Structural Database, then it will include bibliographic, chemical, 
# crystal, experimental, refinement or atomic coordinate data resulting 
# from the CCDC's data processing and validation procedures.
#
#######################################################################

data_FIPHOD
_symmetry_cell_setting           triclinic
_symmetry_space_group_name_H-M   'P 1'
_symmetry_Int_Tables_number      1
_space_group_name_Hall           'P 1'
loop_
_symmetry_equiv_pos_site_id
_symmetry_equiv_pos_as_xyz
1 x,y,z
_cell_length_a                   8.3256(17)
_cell_length_b                   8.9938(18)
_cell_length_c                   9.983(2)
_cell_angle_alpha                111.94(3)
_cell_angle_beta                 95.06(3)
_cell_angle_gamma                116.90(3)
_cell_volume                     587.692
loop_
_atom_site_label
_atom_site_type_symbol
_atom_site_fract_x
_atom_site_fract_y
_atom_site_fract_z
Cu1 Cu 1.00617(6) 0.75409(6) 0.75314(5)
Fe1 Fe 0.99481(9) 1.24751(9) 1.24870(8)
N1 N 1.0951(5) 1.6210(5) 1.5217(5)
N2 N 0.9278(5) 0.8886(6) 0.9775(5)
N3 N 0.8982(6) 1.4058(6) 1.0454(5)
N4 N 1.1143(6) 1.1096(6) 1.4596(5)
N5 N 1.3990(5) 1.4212(6) 1.2294(5)
N6 N 0.7330(5) 1.1362(5) 1.2598(4)
N7 N 0.4745(5) 0.9716(5) 1.3061(4)
N8 N 0.7284(5) 0.5705(5) 0.6280(4)
H1 H 0.7230 0.5125 0.5296
N9 N 0.9819(5) 0.5477(5) 0.8054(5)
H2 H 0.9683 0.5803 0.8997
N10 N 1.2846(5) 0.9352(5) 0.8762(5)
H3 H 1.2910 0.9921 0.9751
N11 N 1.0330(5) 0.9558(5) 0.6968(5)
H4 H 1.0492 0.9220 0.6034
C1 C 1.0617(6) 1.4835(6) 1.4204(5)
C2 C 0.9440(6) 1.0164(6) 1.0775(5)
C3 C 0.9342(6) 1.3436(6) 1.1183(5)
C4 C 1.0683(7) 1.1608(7) 1.3832(5)
C5 C 1.2487(6) 1.3581(6) 1.2380(5)
C6 C 0.6186(5) 1.2107(5) 1.2604(4)
H5 H 0.6471 1.3137 1.2438
C7 C 0.4599(6) 1.1105(6) 1.2887(5)
H6 H 0.3603 1.1310 1.2953
C8 C 0.6379(5) 0.9897(5) 1.2858(4)
H7 H 0.6795 0.9107 1.2893
C9 C 0.3294(6) 0.8262(6) 1.3334(5)
H8 H 0.3570 0.7293 1.3177
H9 H 0.2075 0.7726 1.2644
H10 H 0.3283 0.8812 1.4361
C10 C 0.6540(6) 0.4250(6) 0.6806(5)
H11 H 0.5354 0.3149 0.6067
H12 H 0.6311 0.4742 0.7766
C11 C 0.7999(6) 0.3728(6) 0.6997(5)
H13 H 0.7597 0.2842 0.7407
H14 H 0.8152 0.3142 0.6022
C12 C 1.1426(7) 0.5180(7) 0.8128(5)
H15 H 1.1555 0.4716 0.7122
H16 H 1.1170 0.4234 0.8462
C13 C 1.3261(7) 0.6985(7) 0.9209(6)
H17 H 1.4219 0.6681 0.9363
H18 H 1.3073 0.7500 1.0183
C14 C 1.4013(6) 0.8497(7) 0.8696(6)
H19 H 1.5303 0.9474 0.9339
H20 H 1.4037 0.7948 0.7663
C15 C 1.3603(6) 1.0831(6) 0.8265(6)
H21 H 1.3884 1.0374 0.7325
H22 H 1.4762 1.1941 0.9032
C16 C 1.2110(6) 1.1320(6) 0.8026(5)
H23 H 1.1929 1.1907 0.8987
H24 H 1.2510 1.2194 0.7604
C17 C 0.8702(6) 0.9837(6) 0.6844(5)
H25 H 0.8969 1.0769 0.6492
H26 H 0.8558 1.0320 0.7842
C18 C 0.6874(7) 0.8037(7) 0.5768(6)
H27 H 0.7069 0.7500 0.4802
H28 H 0.5920 0.8339 0.5594
C19 C 0.6111(6) 0.6545(7) 0.6321(6)
H29 H 0.6091 0.7120 0.7353
H30 H 0.4820 0.5561 0.5684
Cu1_2 Cu 1.00617(6) 1.75409(6) 1.75314(5)
N1_2 N 1.0951(5) 0.6210(5) 0.5217(5)
O1 O 0.6356(7) 0.5840(7) 0.0720(7)
H31 H 0.7374 0.5831 0.0847
H32 H 0.5660 0.5399 0.1212
loop_
_geom_bond_atom_site_label_1
_geom_bond_atom_site_label_2
_geom_bond_site_symmetry_1
_geom_bond_site_symmetry_2
Cu1 N2 1_555 1_555
Fe1 N6 1_555 1_555
N1 C1 1_555 1_555
N2 C2 1_555 1_555
N3 C3 1_555 1_555
N4 C4 1_555 1_555
N5 C5 1_555 1_555
N6 C6 1_555 1_555
N7 C7 1_555 1_555
N8 Cu1 1_555 1_555
H1 N8 1_555 1_555
N9 Cu1 1_555 1_555
H2 N9 1_555 1_555
N10 Cu1 1_555 1_555
H3 N10 1_555 1_555
N11 Cu1 1_555 1_555
H4 N11 1_555 1_555
C1 Fe1 1_555 1_555
C2 Fe1 1_555 1_555
C3 Fe1 1_555 1_555
C4 Fe1 1_555 1_555
C5 Fe1 1_555 1_555
C6 H5 1_555 1_555
C7 C6 1_555 1_555
H6 C7 1_555 1_555
C8 N6 1_555 1_555
H7 C8 1_555 1_555
C9 N7 1_555 1_555
H8 C9 1_555 1_555
H9 C9 1_555 1_555
H10 C9 1_555 1_555
C10 N8 1_555 1_555
H11 C10 1_555 1_555
H12 C10 1_555 1_555
C11 N9 1_555 1_555
H13 C11 1_555 1_555
H14 C11 1_555 1_555
C12 N9 1_555 1_555
H15 C12 1_555 1_555
H16 C12 1_555 1_555
C13 C12 1_555 1_555
H17 C13 1_555 1_555
H18 C13 1_555 1_555
C14 N10 1_555 1_555
H19 C14 1_555 1_555
H20 C14 1_555 1_555
C15 N10 1_555 1_555
H21 C15 1_555 1_555
H22 C15 1_555 1_555
C16 N11 1_555 1_555
H23 C16 1_555 1_555
H24 C16 1_555 1_555
C17 N11 1_555 1_555
H25 C17 1_555 1_555
H26 C17 1_555 1_555
C18 C17 1_555 1_555
H27 C18 1_555 1_555
H28 C18 1_555 1_555
C19 N8 1_555 1_555
H29 C19 1_555 1_555
H30 C19 1_555 1_555
O1 H31 1_555 1_555
H32 O1 1_555 1_555
Cu1_2 N1 1_555 1_555
N1_2 Cu1 1_555 1_555
N7 C8 1_555 1_555
C10 C11 1_555 1_555
C13 C14 1_555 1_555
C15 C16 1_555 1_555
C18 C19 1_555 1_555

#END
