
#######################################################################
#
#                 Cambridge Crystallographic Data Centre
#                                CCDC 
#
#######################################################################
#
# If this CIF has been generated from an entry in the Cambridge 
# Structural Database, then it will include bibliographic, chemical, 
# crystal, experimental, refinement or atomic coordinate data resulting 
# from the CCDC's data processing and validation procedures.
#
#######################################################################

data_FIPHAO
_symmetry_cell_setting           monoclinic
_symmetry_space_group_name_H-M   'P 21/n'
_symmetry_Int_Tables_number      14
_space_group_name_Hall           '-P 2yn'
loop_
_symmetry_equiv_pos_site_id
_symmetry_equiv_pos_as_xyz
1 x,y,z
2 1/2-x,1/2+y,1/2-z
3 -x,-y,-z
4 1/2+x,1/2-y,1/2+z
_cell_length_a                   11.537(3)
_cell_length_b                   16.865(4)
_cell_length_c                   15.613(4)
_cell_angle_alpha                90
_cell_angle_beta                 96.652(4)
_cell_angle_gamma                90
_cell_volume                     3017.39
loop_
_atom_site_label
_atom_site_type_symbol
_atom_site_fract_x
_atom_site_fract_y
_atom_site_fract_z
Cd1 Cd 0.44027(3) 0.178077(19) 0.81932(2)
O1 O 0.5743(4) 0.0674(3) 0.8592(3)
O2 O 0.5138(4) 0.0751(3) 0.7231(3)
O3 O 0.8774(4) -0.2485(3) 0.6527(3)
O4 O 0.9840(3) -0.2184(2) 0.7713(3)
N1 N 0.3187(4) 0.2865(2) 0.8688(3)
N2 N 0.4536(3) 0.1867(2) 0.9768(2)
N3 N 0.2866(3) 0.0806(2) 0.8378(2)
N4 N 0.2922(3) 0.1745(2) 0.6945(2)
C1 C 0.5760(5) 0.0458(3) 0.7838(4)
C2 C 0.6583(4) -0.0216(3) 0.7675(3)
C3 C 0.6535(4) -0.0562(3) 0.6867(4)
H1 H 0.598(4) -0.037(3) 0.639(3)
C4 C 0.8965(4) -0.2083(3) 0.7202(4)
C5 C 0.8100(4) -0.1450(3) 0.7379(3)
C6 C 0.8137(4) -0.1104(3) 0.8183(4)
H2 H 0.865(4) -0.130(3) 0.862(3)
C7 C 0.7394(4) -0.0499(3) 0.8334(4)
H3 H 0.745(4) -0.025(3) 0.891(3)
C8 C 0.7280(4) -0.1170(3) 0.6722(3)
H4 H 0.720(4) -0.140(3) 0.615(3)
C9 C 0.2545(5) 0.3361(3) 0.8176(4)
H5 H 0.263(5) 0.331(3) 0.761(4)
C10 C 0.1874(6) 0.3969(4) 0.8471(5)
H6 H 0.138(5) 0.431(3) 0.808(4)
C11 C 0.1842(7) 0.4047(4) 0.9336(5)
H7 H 0.136(5) 0.444(4) 0.957(4)
C12 C 0.2486(6) 0.3520(4) 0.9909(4)
C13 C 0.2495(8) 0.3561(5) 1.0834(5)
H8 H 0.206(5) 0.387(4) 1.105(4)
C14 C 0.3147(7) 0.3074(4) 1.1353(4)
H9 H 0.321(5) 0.312(3) 1.196(4)
C15 C 0.3883(5) 0.2487(3) 1.1026(3)
C16 C 0.4610(6) 0.1973(4) 1.1555(4)
H10 H 0.468(4) 0.199(3) 1.215(4)
C17 C 0.5274(6) 0.1442(4) 1.1196(4)
H11 H 0.578(6) 0.108(4) 1.147(5)
C18 C 0.5209(5) 0.1406(3) 1.0296(3)
H12 H 0.560(4) 0.106(3) 1.006(3)
C19 C 0.3880(4) 0.2413(3) 1.0128(3)
C20 C 0.3167(4) 0.2942(3) 0.9554(3)
C21 C 0.2838(5) 0.0344(3) 0.9061(4)
H13 H 0.333(4) 0.048(3) 0.952(3)
C22 C 0.2025(5) -0.0258(4) 0.9099(5)
H14 H 0.209(4) -0.053(3) 0.953(3)
C23 C 0.1232(5) -0.0399(4) 0.8419(4)
H15 H 0.061(4) -0.080(3) 0.841(3)
C24 C 0.1205(5) 0.0079(3) 0.7681(4)
C25 C 0.0412(6) -0.0048(5) 0.6920(5)
H16 H -0.019(5) -0.024(3) 0.700(4)
C26 C 0.0418(5) 0.0422(4) 0.6231(5)
H17 H -0.019(5) 0.037(3) 0.574(3)
C27 C 0.1278(4) 0.1032(3) 0.6194(3)
C28 C 0.1357(5) 0.1507(4) 0.5464(4)
H18 H 0.079(4) 0.148(3) 0.498(3)
C29 C 0.2178(5) 0.2074(4) 0.5487(4)
H19 H 0.220(4) 0.237(3) 0.504(3)
C30 C 0.2954(5) 0.2175(3) 0.6236(3)
H20 H 0.361(5) 0.252(3) 0.625(3)
C31 C 0.2095(4) 0.1168(3) 0.6931(3)
C32 C 0.2058(4) 0.0678(3) 0.7686(3)
Cd1A Cd 1.05973(3) -0.321923(19) 0.68068(2)
O3A O 0.6226(4) 0.2515(3) 0.8473(3)
O4A O 0.5160(3) 0.2816(2) 0.7287(3)
O5 O -0.1769(7) 0.1486(5) 0.9238(5)
H21 H -0.2271 0.1403 0.8831
C33 C 0.0187(12) 0.1790(14) 0.9377(16)
H22 H 0.0795 0.1873 0.9015
H23 H 0.0401 0.1362 0.9769
H24 H 0.0080 0.2265 0.9698
C34 C -0.0717(16) 0.1626(10) 0.8932(11)
H25 H -0.0551 0.1158 0.8606
H26 H -0.0854 0.2053 0.8516
O6 O 0.4568(6) 0.0770(5) 0.5473(5)
loop_
_geom_bond_atom_site_label_1
_geom_bond_atom_site_label_2
_geom_bond_site_symmetry_1
_geom_bond_site_symmetry_2
Cd1 O1 1_555 1_555
O1 C1 1_555 1_555
O2 Cd1 1_555 1_555
O3 C4 1_555 1_555
O4 C4 1_555 1_555
N1 Cd1 1_555 1_555
N2 Cd1 1_555 1_555
N3 Cd1 1_555 1_555
N4 Cd1 1_555 1_555
C1 O2 1_555 1_555
C2 C1 1_555 1_555
C3 C2 1_555 1_555
H1 C3 1_555 1_555
C4 C5 1_555 1_555
C5 C6 1_555 1_555
C6 H2 1_555 1_555
C7 C2 1_555 1_555
H3 C7 1_555 1_555
C8 C3 1_555 1_555
H4 C8 1_555 1_555
C9 N1 1_555 1_555
H5 C9 1_555 1_555
C10 C9 1_555 1_555
H6 C10 1_555 1_555
C11 C10 1_555 1_555
H7 C11 1_555 1_555
C12 C11 1_555 1_555
C13 C12 1_555 1_555
H8 C13 1_555 1_555
C14 C13 1_555 1_555
H9 C14 1_555 1_555
C15 C14 1_555 1_555
C16 C15 1_555 1_555
H10 C16 1_555 1_555
C17 C16 1_555 1_555
H11 C17 1_555 1_555
C18 N2 1_555 1_555
H12 C18 1_555 1_555
C19 N2 1_555 1_555
C20 N1 1_555 1_555
C21 N3 1_555 1_555
H13 C21 1_555 1_555
C22 C21 1_555 1_555
H14 C22 1_555 1_555
C23 C22 1_555 1_555
H15 C23 1_555 1_555
C24 C23 1_555 1_555
C25 C24 1_555 1_555
H16 C25 1_555 1_555
C26 C25 1_555 1_555
H17 C26 1_555 1_555
C27 C26 1_555 1_555
C28 C27 1_555 1_555
H18 C28 1_555 1_555
C29 C28 1_555 1_555
H19 C29 1_555 1_555
C30 N4 1_555 1_555
H20 C30 1_555 1_555
C31 N4 1_555 1_555
C32 N3 1_555 1_555
O5 H21 1_555 1_555
C33 H22 1_555 1_555
H23 C33 1_555 1_555
H24 C33 1_555 1_555
C34 O5 1_555 1_555
H25 C34 1_555 1_555
H26 C34 1_555 1_555
Cd1A O3 1_555 1_555
O3A Cd1 1_555 1_555
O4A Cd1 1_555 1_555
O4 Cd1A 1_555 1_555
C5 C8 1_555 1_555
C6 C7 1_555 1_555
C12 C20 1_555 1_555
C15 C19 1_555 1_555
C17 C18 1_555 1_555
C19 C20 1_555 1_555
C24 C32 1_555 1_555
C27 C31 1_555 1_555
C29 C30 1_555 1_555
C31 C32 1_555 1_555
C33 C34 1_555 1_555

#END
