
#######################################################################
#
#                 Cambridge Crystallographic Data Centre
#                                CCDC 
#
#######################################################################
#
# If this CIF has been generated from an entry in the Cambridge 
# Structural Database, then it will include bibliographic, chemical, 
# crystal, experimental, refinement or atomic coordinate data resulting 
# from the CCDC's data processing and validation procedures.
#
#######################################################################

data_FIPHUJ
_symmetry_cell_setting           monoclinic
_symmetry_space_group_name_H-M   'P 21/c'
_symmetry_Int_Tables_number      14
_space_group_name_Hall           '-P 2ybc'
loop_
_symmetry_equiv_pos_site_id
_symmetry_equiv_pos_as_xyz
1 x,y,z
2 -x,1/2+y,1/2-z
3 -x,-y,-z
4 x,1/2-y,1/2+z
_cell_length_a                   11.9078(2)
_cell_length_b                   13.0784(3)
_cell_length_c                   27.4070(5)
_cell_angle_alpha                90
_cell_angle_beta                 97.9300(10)
_cell_angle_gamma                90
_cell_volume                     4227.41
loop_
_atom_site_label
_atom_site_type_symbol
_atom_site_fract_x
_atom_site_fract_y
_atom_site_fract_z
Nd1 Nd 0.95078(2) 0.144642(19) 1.027561(9)
Zn1 Zn 0.72245(5) 0.35099(5) 0.82577(2)
O1 O 0.9061(3) 0.2438(3) 0.95384(12)
O2 O 0.8503(3) 0.3393(2) 0.88860(12)
O3 O 0.9425(3) 0.0265(2) 0.95598(12)
O4 O 0.8689(3) -0.0979(3) 0.90888(14)
O5 O 1.1284(3) 0.1670(2) 0.99107(13)
O6 O 1.2612(4) 0.2664(3) 0.9686(2)
O7 O 1.3286(4) 0.4422(3) 0.9806(2)
H1 H 1.3081 0.3823 0.9784
O8 O 1.2826(3) 0.5812(3) 1.01962(15)
O9 O 0.7571(3) 0.5101(3) 0.81927(14)
O10 O 0.7062(4) 0.6641(3) 0.8431(2)
O11 O 0.5679(5) 0.7382(4) 0.8965(2)
H2 H 0.6122 0.7154 0.8789
O12 O 0.4235(5) 0.6788(4) 0.9302(2)
O13 O 0.6025(3) 0.3594(4) 0.75723(14)
O14 O 0.5920(4) 0.3880(5) 0.67765(15)
H3 H 0.6310 0.3767 0.6558
O15 O 0.7305(4) 0.3868(4) 0.61603(14)
O16 O 0.9136(3) 0.3529(3) 0.61387(13)
O17 O 0.7756(3) 0.2437(3) 1.03133(16)
H4 H 0.7658 0.2999 1.0163
H5 H 0.7249 0.2331 1.0493
O18 O 0.7955(3) 0.0210(3) 1.03042(16)
H6 H 0.8021 -0.0433 1.0294
H7 H 0.7597 0.0310 1.0546
N1 N 0.7124(4) 0.1948(3) 0.84570(15)
N2 N 0.7167(4) 0.0288(4) 0.85362(17)
H8 H 0.7014 -0.0348 0.8481
N3 N 1.0515(4) 0.3184(3) 1.04774(15)
N4 N 1.1130(4) 0.4757(3) 1.05940(16)
H9 H 1.1184 0.5374 1.0703
N5 N 0.6008(4) 0.4160(3) 0.86569(15)
N6 N 0.4789(4) 0.4774(4) 0.91050(18)
H10 H 0.4257 0.4795 0.9287
N7 N 0.8284(4) 0.3251(4) 0.76950(15)
N8 N 0.9469(4) 0.3203(4) 0.71566(16)
H11 H 1.0097 0.3140 0.7137
C1 C 0.7916(4) 0.1701(3) 0.88485(17)
C2 C 0.7966(4) 0.0659(4) 0.89026(18)
C3 C 0.6659(5) 0.1077(4) 0.8276(2)
C4 C 0.8548(4) 0.2560(3) 0.91180(17)
C5 C 0.8722(4) -0.0060(4) 0.92036(17)
C6 C 0.5732(6) 0.0983(6) 0.7853(2)
H12 H 0.5338 0.1632 0.7807
H13 H 0.5192 0.0477 0.7934
C7 C 0.6132(8) 0.0686(9) 0.7380(3)
H14 H 0.6731 0.1150 0.7317
H15 H 0.5510 0.0766 0.7114
C8 C 0.6577(9) -0.0418(9) 0.7374(4)
H16 H 0.7316 -0.0455 0.7565
H17 H 0.6624 -0.0620 0.7041
H18 H 0.6069 -0.0867 0.7514
C9 C 1.1408(4) 0.3338(3) 1.02174(17)
C10 C 1.1793(4) 0.4323(4) 1.02858(18)
C11 C 1.0372(5) 0.4051(4) 1.0700(2)
C12 C 1.1782(5) 0.2505(4) 0.9919(2)
C13 C 1.2686(5) 0.4914(4) 1.0090(2)
C14 C 0.9455(9) 0.4316(8) 1.1003(4)
H19 H 0.8753 0.4552 1.0855
C15 C 0.9667(11) 0.4209(14) 1.1465(5)
H20 H 1.0279 0.4659 1.1600
H21 H 0.9884 0.3509 1.1549
C16 C 0.8500(13) 0.4505(16) 1.1680(7)
H22 H 0.8113 0.5037 1.1482
H23 H 0.8678 0.4738 1.2014
H24 H 0.8020 0.3913 1.1671
C17 C 0.6113(4) 0.5202(4) 0.86782(18)
C18 C 0.5348(5) 0.5599(4) 0.89556(19)
C19 C 0.5203(5) 0.3921(4) 0.8921(2)
C20 C 0.6979(5) 0.5684(4) 0.8410(2)
C21 C 0.5039(6) 0.6652(5) 0.9087(3)
C22 C 0.4747(7) 0.2855(5) 0.8982(3)
H25 H 0.4164 0.2564 0.8765
C23 C 0.5308(8) 0.2348(7) 0.9405(4)
H26 H 0.5151 0.2687 0.9703
H27 H 0.6121 0.2344 0.9401
C24 C 0.4813(14) 0.1180(8) 0.9382(7)
H28 H 0.4248 0.1106 0.9098
H29 H 0.4479 0.1040 0.9674
H30 H 0.5420 0.0707 0.9359
C25 C 0.8450(5) 0.3430(4) 0.68969(19)
C26 C 0.7704(5) 0.3456(4) 0.72374(18)
C27 C 0.9342(5) 0.3093(5) 0.76341(19)
C28 C 0.8281(5) 0.3622(5) 0.63565(19)
C29 C 0.6486(5) 0.3655(5) 0.71978(19)
C30 C 1.0283(5) 0.2801(6) 0.8023(2)
H31 H 1.0116 0.3050 0.8339
H32 H 1.0976 0.3130 0.7956
C31 C 1.0474(11) 0.1659(9) 0.8057(5)
H33 H 0.9779 0.1324 0.8117
H34 H 1.0668 0.1409 0.7746
C32 C 1.137(2) 0.1400(14) 0.8448(8)
H35 H 1.1974 0.1063 0.8311
H36 H 1.1083 0.0953 0.8679
H37 H 1.1659 0.2012 0.8614
Nd1B Nd 1.04922(2) -0.144642(19) 0.972439(9)
Nd1C Nd 0.95078(2) 0.355358(19) 0.527561(9)
O3B O 1.0575(3) -0.0265(2) 1.04402(12)
O4B O 1.1311(3) 0.0979(3) 1.09112(14)
O16C O 0.9136(3) 0.1471(3) 1.11387(13)
O19 O 0.1524(4) 0.1905(4) 0.18314(15)
H38 H 0.1352 0.1635 0.1547
H39 H 0.1970 0.2363 0.1750
loop_
_geom_bond_atom_site_label_1
_geom_bond_atom_site_label_2
_geom_bond_site_symmetry_1
_geom_bond_site_symmetry_2
Nd1 O1 1_555 1_555
Zn1 O2 1_555 1_555
O1 C4 1_555 1_555
O2 C4 1_555 1_555
O3 Nd1 1_555 1_555
O4 C5 1_555 1_555
O5 Nd1 1_555 1_555
O6 C12 1_555 1_555
O7 H1 1_555 1_555
O8 C13 1_555 1_555
O9 Zn1 1_555 1_555
O10 C20 1_555 1_555
O11 H2 1_555 1_555
O12 C21 1_555 1_555
O13 Zn1 1_555 1_555
O14 H3 1_555 1_555
O15 C28 1_555 1_555
O16 C28 1_555 1_555
O17 Nd1 1_555 1_555
H4 O17 1_555 1_555
H5 O17 1_555 1_555
O18 Nd1 1_555 1_555
H6 O18 1_555 1_555
H7 O18 1_555 1_555
N1 Zn1 1_555 1_555
N2 H8 1_555 1_555
N3 Nd1 1_555 1_555
N4 H9 1_555 1_555
N5 Zn1 1_555 1_555
N6 H10 1_555 1_555
N7 Zn1 1_555 1_555
N8 H11 1_555 1_555
C1 N1 1_555 1_555
C2 N2 1_555 1_555
C3 N1 1_555 1_555
C4 C1 1_555 1_555
C5 O3 1_555 1_555
C6 C3 1_555 1_555
H12 C6 1_555 1_555
H13 C6 1_555 1_555
C7 C6 1_555 1_555
H14 C7 1_555 1_555
H15 C7 1_555 1_555
C8 C7 1_555 1_555
H16 C8 1_555 1_555
H17 C8 1_555 1_555
H18 C8 1_555 1_555
C9 N3 1_555 1_555
C10 N4 1_555 1_555
C11 N3 1_555 1_555
C12 O5 1_555 1_555
C13 O7 1_555 1_555
C14 C11 1_555 1_555
H19 C14 1_555 1_555
C15 C14 1_555 1_555
H20 C15 1_555 1_555
H21 C15 1_555 1_555
C16 C15 1_555 1_555
H22 C16 1_555 1_555
H23 C16 1_555 1_555
H24 C16 1_555 1_555
C17 N5 1_555 1_555
C18 N6 1_555 1_555
C19 N5 1_555 1_555
C20 O9 1_555 1_555
C21 O11 1_555 1_555
C22 C19 1_555 1_555
H25 C22 1_555 1_555
C23 C22 1_555 1_555
H26 C23 1_555 1_555
H27 C23 1_555 1_555
C24 C23 1_555 1_555
H28 C24 1_555 1_555
H29 C24 1_555 1_555
H30 C24 1_555 1_555
C25 N8 1_555 1_555
C26 N7 1_555 1_555
C27 N7 1_555 1_555
C28 C25 1_555 1_555
C29 O13 1_555 1_555
C30 C27 1_555 1_555
H31 C30 1_555 1_555
H32 C30 1_555 1_555
C31 C30 1_555 1_555
H33 C31 1_555 1_555
H34 C31 1_555 1_555
C32 C31 1_555 1_555
H35 C32 1_555 1_555
H36 C32 1_555 1_555
H37 C32 1_555 1_555
O19 H38 1_555 1_555
H39 O19 1_555 1_555
Nd1B O3 1_555 1_555
Nd1C O16 1_555 1_555
O3B Nd1 1_555 1_555
O4B Nd1 1_555 1_555
O16C Nd1 1_555 1_555
O4 Nd1B 1_555 1_555
O14 C29 1_555 1_555
N2 C3 1_555 1_555
N4 C11 1_555 1_555
N6 C19 1_555 1_555
N8 C27 1_555 1_555
C1 C2 1_555 1_555
C2 C5 1_555 1_555
C9 C10 1_555 1_555
C9 C12 1_555 1_555
C10 C13 1_555 1_555
C17 C18 1_555 1_555
C17 C20 1_555 1_555
C18 C21 1_555 1_555
C25 C26 1_555 1_555
C26 C29 1_555 1_555
Nd1B O3B 1_555 1_555

#END
