
#######################################################################
#
#                 Cambridge Crystallographic Data Centre
#                                CCDC 
#
#######################################################################
#
# If this CIF has been generated from an entry in the Cambridge 
# Structural Database, then it will include bibliographic, chemical, 
# crystal, experimental, refinement or atomic coordinate data resulting 
# from the CCDC's data processing and validation procedures.
#
#######################################################################

data_FIPJAR
_symmetry_cell_setting           monoclinic
_symmetry_space_group_name_H-M   'C 2/c'
_symmetry_Int_Tables_number      15
_space_group_name_Hall           '-C 2yn'
loop_
_symmetry_equiv_pos_site_id
_symmetry_equiv_pos_as_xyz
1 x,y,z
2 -x,y,1/2-z
3 1/2+x,1/2+y,z
4 1/2-x,1/2+y,1/2-z
5 -x,-y,-z
6 x,-y,1/2+z
7 1/2-x,1/2-y,-z
8 1/2+x,1/2-y,1/2+z
_cell_length_a                   21.812(2)
_cell_length_b                   7.0688(6)
_cell_length_c                   18.8328(15)
_cell_angle_alpha                90
_cell_angle_beta                 121.799(9)
_cell_angle_gamma                90
_cell_volume                     2467.88
loop_
_atom_site_label
_atom_site_type_symbol
_atom_site_fract_x
_atom_site_fract_y
_atom_site_fract_z
Cd1 Cd 0.23540(5) 0.03609(17) 0.22149(6)
O1 O 0.1302(8) 0.110(2) 0.0872(9)
O2 O 0.1709(5) 0.333(2) 0.1805(6)
O3 O 0.3207(6) 0.125(2) 0.1981(7)
O4 O 0.2777(6) 0.2390(19) 0.3426(6)
O5 O 0.3355(8) 0.425(3) 0.2343(11)
N1 N 0.2856(11) 0.038(3) 0.4401(11)
H1 H 0.2554 -0.0438 0.4051
N2 N 0.3421(9) 0.300(3) 0.4841(8)
H2 H 0.3533 0.4161 0.4825
C1 C 0.1240(8) 0.266(3) 0.1085(10)
C2 C 0.0590(8) 0.388(3) 0.0525(9)
C3 C 0.0526(7) 0.567(3) 0.0764(10)
H3 H 0.0887 0.6127 0.1280
C4 C 0.3560(8) 0.274(3) 0.2218(9)
C5 C 0.4313(7) 0.274(2) 0.2353(9)
C6 C 0.4644(8) 0.105(3) 0.2418(10)
H4 H 0.4404 -0.0088 0.2354
C7 C 0.4661(9) 0.445(3) 0.2447(11)
H5 H 0.4440 0.5579 0.2437
C8 C 0.3002(9) 0.194(3) 0.4165(10)
C9 C 0.3238(13) 0.009(4) 0.5299(12)
H6 H 0.3554 -0.1001 0.5470
H7 H 0.2907 -0.0053 0.5492
C10 C 0.3662(13) 0.193(4) 0.5607(11)
H8 H 0.3552 0.2598 0.5976
H9 H 0.4177 0.1692 0.5901
C11 C 0.0061(8) 0.321(3) -0.0256(10)
H10 H 0.0103 0.2012 -0.0433
O1D O -0.1302(8) 0.890(2) -0.0872(9)
O2D O -0.1709(5) 0.667(2) -0.1805(6)
C1D C -0.1240(8) 0.734(3) -0.1085(10)
C2D C -0.0590(8) 0.612(3) -0.0525(9)
C3D C -0.0526(7) 0.433(3) -0.0764(10)
H3D H -0.0887 0.3873 -0.1280
C11D C -0.0061(8) 0.679(3) 0.0256(10)
H10D H -0.0103 0.7988 0.0433
O3A O 0.6793(6) 0.125(2) 0.3019(7)
O5A O 0.6645(8) 0.425(3) 0.2657(11)
C4A C 0.6440(8) 0.274(3) 0.2782(9)
C5A C 0.5687(7) 0.274(2) 0.2647(9)
C6A C 0.5356(8) 0.105(3) 0.2582(10)
H4A H 0.5596 -0.0088 0.2646
C7A C 0.5339(9) 0.445(3) 0.2553(11)
H5A H 0.5560 0.5579 0.2563
Cd1A Cd 0.76460(5) 0.03609(17) 0.27851(6)
O4A O 0.7223(6) 0.2390(19) 0.1574(6)
N1A N 0.7144(11) 0.038(3) 0.0599(11)
H1A H 0.7446 -0.0438 0.0949
N2A N 0.6579(9) 0.300(3) 0.0159(8)
H2A H 0.6467 0.4161 0.0175
C8A C 0.6998(9) 0.194(3) 0.0835(10)
C9A C 0.6762(13) 0.009(4) -0.0299(12)
H6A H 0.6446 -0.1001 -0.0470
H7A H 0.7093 -0.0053 -0.0492
C10A C 0.6338(13) 0.193(4) -0.0607(11)
H8A H 0.6448 0.2598 -0.0976
H9A H 0.5823 0.1692 -0.0901
Cd1B Cd 0.73540(5) 0.53609(17) 0.22149(6)
Cd1C Cd 0.26460(5) 0.53609(17) 0.27851(6)
Cd1D Cd -0.23540(5) 0.96391(17) -0.22149(6)
Cd1G Cd -0.26460(5) 0.46391(17) -0.27851(6)
O1A O 0.8698(8) 0.110(2) 0.4128(9)
O2A O 0.8291(5) 0.333(2) 0.3195(6)
O2B O 0.6709(5) -0.167(2) 0.1805(6)
O2C O 0.3291(5) -0.167(2) 0.3195(6)
O4B O 0.7777(6) -0.2610(19) 0.3426(6)
O4C O 0.2223(6) -0.2610(19) 0.1574(6)
O5B O 0.8355(8) -0.075(3) 0.2343(11)
O5C O 0.1645(8) -0.075(3) 0.2657(11)
loop_
_geom_bond_atom_site_label_1
_geom_bond_atom_site_label_2
_geom_bond_site_symmetry_1
_geom_bond_site_symmetry_2
Cd1 O1 1_555 1_555
O1 C1 1_555 1_555
O2 Cd1 1_555 1_555
O3 Cd1 1_555 1_555
O4 Cd1 1_555 1_555
O5 C4 1_555 1_555
N1 H1 1_555 1_555
N2 H2 1_555 1_555
C1 O2 1_555 1_555
C2 C1 1_555 1_555
C3 C2 1_555 1_555
H3 C3 1_555 1_555
C4 O3 1_555 1_555
C5 C4 1_555 1_555
C6 C5 1_555 1_555
H4 C6 1_555 1_555
C7 C5 1_555 1_555
H5 C7 1_555 1_555
C8 O4 1_555 1_555
C9 N1 1_555 1_555
H6 C9 1_555 1_555
H7 C9 1_555 1_555
C10 N2 1_555 1_555
H8 C10 1_555 1_555
H9 C10 1_555 1_555
C11 C2 1_555 1_555
H10 C11 1_555 1_555
O1D C1D 1_555 1_555
O2D C1D 1_555 1_555
C1D C2D 1_555 1_555
C2D C3D 1_555 1_555
C3D C11 1_555 1_555
H3D C3D 1_555 1_555
C11D C3 1_555 1_555
H10D C11D 1_555 1_555
O3A C4A 1_555 1_555
O5A C4A 1_555 1_555
C4A C5A 1_555 1_555
C5A C6A 1_555 1_555
C6A C6 1_555 1_555
H4A C6A 1_555 1_555
C7A C7 1_555 1_555
H5A C7A 1_555 1_555
Cd1A O3A 1_555 1_555
O4A Cd1A 1_555 1_555
N1A H1A 1_555 1_555
N2A H2A 1_555 1_555
C8A O4A 1_555 1_555
C9A N1A 1_555 1_555
H6A C9A 1_555 1_555
H7A C9A 1_555 1_555
C10A N2A 1_555 1_555
H8A C10A 1_555 1_555
H9A C10A 1_555 1_555
Cd1B O5A 1_555 1_555
Cd1C O2 1_555 1_555
Cd1D O1D 1_555 1_555
Cd1G O2D 1_555 1_555
O1A Cd1A 1_555 1_555
O2A Cd1A 1_555 1_555
O2B Cd1A 1_555 1_555
O2C Cd1 1_555 1_555
O4B Cd1A 1_555 1_555
O4C Cd1 1_555 1_555
O5B Cd1A 1_555 1_555
O5C Cd1 1_555 1_555
O4 Cd1C 1_555 1_555
O5 Cd1C 1_555 1_555
N1 C8 1_555 1_555
N2 C8 1_555 1_555
C9 C10 1_555 1_555
O2D Cd1D 1_555 1_555
C2D C11D 1_555 1_555
C5A C7A 1_555 1_555
O4A Cd1B 1_555 1_555
N1A C8A 1_555 1_555
N2A C8A 1_555 1_555
C9A C10A 1_555 1_555
Cd1B O2A 1_555 1_555

#END
