
#######################################################################
#
#                 Cambridge Crystallographic Data Centre
#                                CCDC 
#
#######################################################################
#
# If this CIF has been generated from an entry in the Cambridge 
# Structural Database, then it will include bibliographic, chemical, 
# crystal, experimental, refinement or atomic coordinate data resulting 
# from the CCDC's data processing and validation procedures.
#
#######################################################################

data_FIPJUL
_symmetry_cell_setting           monoclinic
_symmetry_space_group_name_H-M   'C 2/c'
_symmetry_Int_Tables_number      15
_space_group_name_Hall           '-C 2yn'
loop_
_symmetry_equiv_pos_site_id
_symmetry_equiv_pos_as_xyz
1 x,y,z
2 -x,y,1/2-z
3 1/2+x,1/2+y,z
4 1/2-x,1/2+y,1/2-z
5 -x,-y,-z
6 x,-y,1/2+z
7 1/2-x,1/2-y,-z
8 1/2+x,1/2-y,1/2+z
_cell_length_a                   6.8732(2)
_cell_length_b                   17.9213(5)
_cell_length_c                   14.9703(4)
_cell_angle_alpha                90
_cell_angle_beta                 91.444(2)
_cell_angle_gamma                90
_cell_volume                     1843.41
loop_
_atom_site_label
_atom_site_type_symbol
_atom_site_fract_x
_atom_site_fract_y
_atom_site_fract_z
Cd1 Cd -0.5000 0.73252(3) 0.7500
Cl1 Cl 0.0000 0.73555(8) 0.7500
O1 O -0.1168(8) 0.7819(3) 0.8055(3)
O2 O -0.1295(6) 0.6901(2) 0.6942(3)
C1 C -0.3918(7) 0.8954(3) 0.5257(4)
H1 H -0.3600 0.9390 0.4957
C2 C -0.4003(7) 0.8856(3) 0.6157(4)
H2 H -0.3742 0.9222 0.6584
C3 C -0.4755(6) 0.7810(2) 0.5554(3)
C4 C -0.6178(7) 0.5931(2) 0.5003(3)
H3 H -0.6506 0.5534 0.4629
C5 C -0.6057(7) 0.5922(2) 0.5911(3)
H4 H -0.6307 0.5510 0.6268
C6 C -0.5310(6) 0.7030(2) 0.5491(3)
N1 N -0.4527(5) 0.8141(2) 0.6335(3)
N2 N -0.4395(5) 0.8281(2) 0.4884(3)
H5 H -0.4453 0.8179 0.4323
N3 N -0.5510(5) 0.6612(2) 0.6219(2)
N4 N -0.5721(5) 0.66389(19) 0.4750(2)
H6 H -0.5701 0.6804 0.4211
O1A O 0.1168(8) 0.7819(3) 0.6945(3)
O2A O 0.1295(6) 0.6901(2) 0.8058(3)
C1A C -0.6082(7) 0.8954(3) 0.9743(4)
H1A H -0.6400 0.9390 1.0043
C2A C -0.5997(7) 0.8856(3) 0.8843(4)
H2A H -0.6258 0.9222 0.8416
C3A C -0.5245(6) 0.7810(2) 0.9446(3)
C4A C -0.3822(7) 0.5931(2) 0.9997(3)
H3A H -0.3494 0.5534 1.0371
C5A C -0.3943(7) 0.5922(2) 0.9089(3)
H4A H -0.3693 0.5510 0.8732
C6A C -0.4690(6) 0.7030(2) 0.9509(3)
N1A N -0.5473(5) 0.8141(2) 0.8665(3)
N2A N -0.5605(5) 0.8281(2) 1.0116(3)
H5A H -0.5547 0.8179 1.0677
N3A N -0.4490(5) 0.6612(2) 0.8781(2)
N4A N -0.4279(5) 0.66389(19) 1.0250(2)
H6A H -0.4299 0.6804 1.0789
Cd1_2 Cd 0.5000 0.73252(3) 0.7500
O2A_2 O -0.8705(6) 0.6901(2) 0.8058(3)
O3 O -0.6712(8) 1.0308(3) 0.6978(4)
H7 H -0.770(12) 0.999(5) 0.708(9)
H8 H -0.693(11) 1.0799(9) 0.704(5)
O4 O 0.0000 0.9505(3) 0.7500
H9 H 0.0000 0.9004(4) 0.7500
loop_
_geom_bond_atom_site_label_1
_geom_bond_atom_site_label_2
_geom_bond_site_symmetry_1
_geom_bond_site_symmetry_2
Cd1 O2 1_555 1_555
Cl1 O1 1_555 1_555
O2 Cl1 1_555 1_555
C1 H1 1_555 1_555
C2 C1 1_555 1_555
H2 C2 1_555 1_555
C3 C6 1_555 1_555
C4 H3 1_555 1_555
C5 C4 1_555 1_555
H4 C5 1_555 1_555
C6 N3 1_555 1_555
N1 Cd1 1_555 1_555
N2 C1 1_555 1_555
H5 N2 1_555 1_555
N3 Cd1 1_555 1_555
N4 C4 1_555 1_555
H6 N4 1_555 1_555
O3 H7 1_555 1_555
H8 O3 1_555 1_555
O4 H9 1_555 1_555
O1A Cl1 1_555 1_555
O2A Cl1 1_555 1_555
C1A H1A 1_555 1_555
C2A C1A 1_555 1_555
H2A C2A 1_555 1_555
C3A C6A 1_555 1_555
C4A H3A 1_555 1_555
C5A C4A 1_555 1_555
H4A C5A 1_555 1_555
C6A N3A 1_555 1_555
N1A Cd1 1_555 1_555
N2A C1A 1_555 1_555
H5A N2A 1_555 1_555
N3A Cd1 1_555 1_555
N4A C4A 1_555 1_555
H6A N4A 1_555 1_555
Cd1_2 O2A 1_555 1_555
O2A_2 Cd1 1_555 1_555
C2 N1 1_555 1_555
C3 N1 1_555 1_555
C3 N2 1_555 1_555
C5 N3 1_555 1_555
C6 N4 1_555 1_555
C2A N1A 1_555 1_555
C3A N1A 1_555 1_555
C3A N2A 1_555 1_555
C5A N3A 1_555 1_555
C6A N4A 1_555 1_555

#END
