
#######################################################################
#
#                 Cambridge Crystallographic Data Centre
#                                CCDC 
#
#######################################################################
#
# If this CIF has been generated from an entry in the Cambridge 
# Structural Database, then it will include bibliographic, chemical, 
# crystal, experimental, refinement or atomic coordinate data resulting 
# from the CCDC's data processing and validation procedures.
#
#######################################################################

data_FIPJAR01
_symmetry_cell_setting           monoclinic
_symmetry_space_group_name_H-M   'C 2/c'
_symmetry_Int_Tables_number      15
_space_group_name_Hall           '-C 2yn'
loop_
_symmetry_equiv_pos_site_id
_symmetry_equiv_pos_as_xyz
1 x,y,z
2 -x,y,1/2-z
3 1/2+x,1/2+y,z
4 1/2-x,1/2+y,1/2-z
5 -x,-y,-z
6 x,-y,1/2+z
7 1/2-x,1/2-y,-z
8 1/2+x,1/2-y,1/2+z
_cell_length_a                   21.821(8)
_cell_length_b                   7.0848(11)
_cell_length_c                   18.798(10)
_cell_angle_alpha                90
_cell_angle_beta                 121.59(5)
_cell_angle_gamma                90
_cell_volume                     2475.49
loop_
_atom_site_label
_atom_site_type_symbol
_atom_site_fract_x
_atom_site_fract_y
_atom_site_fract_z
Cd1 Cd 0.235413(15) 0.03643(4) 0.221545(16)
C1 C 0.1993(2) -0.3062(6) 0.0836(2)
C2 C 0.1762(4) -0.4914(8) -0.0300(3)
H1 H 0.1440 -0.5992 -0.0497
H2 H 0.2104 -0.5039 -0.0478
C3 C 0.1344(3) -0.3055(8) -0.0604(3)
H3 H 0.1462 -0.2385 -0.0967
H4 H 0.0830 -0.3277 -0.0902
C4 C 0.3561(2) 0.2755(6) 0.2217(2)
C5 C 0.4308(2) 0.2747(5) 0.2358(2)
C6 C 0.4656(3) 0.4446(5) 0.2433(3)
H5 H 0.4427 0.5583 0.2393
C7 C 0.4653(2) 0.1055(5) 0.2424(3)
H6 H 0.4418 -0.0083 0.2365
C8 C 0.1238(2) 0.2702(6) 0.1097(2)
C9 C 0.0592(2) 0.3875(6) 0.0527(2)
C10 C 0.0061(2) 0.3216(6) -0.0243(3)
H7 H 0.0099 0.2009 -0.0411
C11 C 0.0526(2) 0.5673(6) 0.0769(3)
H8 H 0.0878 0.6136 0.1288
O1 O 0.22185(15) -0.2608(4) 0.15749(15)
O2 O 0.32044(17) 0.1256(5) 0.1979(2)
O3 O 0.3348(2) 0.4274(5) 0.2338(3)
O4 O 0.17041(15) 0.3314(4) 0.17966(17)
O5 O 0.1298(2) 0.1091(5) 0.0865(2)
N1 N 0.1582(2) -0.2008(6) 0.0162(2)
H9 H 0.1471 -0.0851 0.0178
N2 N 0.2123(3) -0.4713(5) 0.0599(2)
H10 H 0.2394 -0.5572 0.0944
C4A C 0.6439(2) 0.2755(6) 0.2783(2)
C5A C 0.5692(2) 0.2747(5) 0.2642(2)
C6A C 0.5344(3) 0.4446(5) 0.2567(3)
H5A H 0.5573 0.5583 0.2607
C7A C 0.5347(2) 0.1055(5) 0.2576(3)
H6A H 0.5582 -0.0083 0.2635
O2A O 0.67956(17) 0.1256(5) 0.3021(2)
O3A O 0.6652(2) 0.4274(5) 0.2662(3)
C8D C -0.1238(2) 0.7298(6) -0.1097(2)
C9D C -0.0592(2) 0.6125(6) -0.0527(2)
C10D C -0.0061(2) 0.6784(6) 0.0243(3)
H7D H -0.0099 0.7991 0.0411
C11D C -0.0526(2) 0.4327(6) -0.0769(3)
H8D H -0.0878 0.3864 -0.1288
O4D O -0.17041(15) 0.6686(4) -0.17966(17)
O5D O -0.1298(2) 0.8909(5) -0.0865(2)
Cd1A Cd 0.764587(15) 0.03643(4) 0.278455(16)
C1A C 0.8007(2) -0.3062(6) 0.4164(2)
C2A C 0.8238(4) -0.4914(8) 0.5300(3)
H1A H 0.8560 -0.5992 0.5497
H2A H 0.7896 -0.5039 0.5478
C3A C 0.8656(3) -0.3055(8) 0.5604(3)
H3A H 0.8538 -0.2385 0.5967
H4A H 0.9170 -0.3277 0.5902
O1A O 0.77815(15) -0.2608(4) 0.34251(15)
N1A N 0.8418(2) -0.2008(6) 0.4838(2)
H9A H 0.8529 -0.0851 0.4822
N2A N 0.7877(3) -0.4713(5) 0.4401(2)
H10A H 0.7606 -0.5572 0.4056
Cd1B Cd 0.735413(15) -0.46357(4) 0.221545(16)
Cd1B_2 Cd 0.735413(15) 0.53643(4) 0.221545(16)
Cd1C Cd 0.264587(15) -0.46357(4) 0.278455(16)
Cd1C_2 Cd 0.264587(15) 0.53643(4) 0.278455(16)
Cd1D Cd -0.235413(15) 0.96357(4) -0.221545(16)
Cd1G Cd -0.264587(15) 0.46357(4) -0.278455(16)
O1B O 0.72185(15) 0.2392(4) 0.15749(15)
O1C O 0.27815(15) 0.2392(4) 0.34251(15)
O3B O 0.8348(2) -0.0726(5) 0.2338(3)
O3C O 0.1652(2) -0.0726(5) 0.2662(3)
O4A O 0.82959(15) 0.3314(4) 0.32034(17)
O4B O 0.67041(15) -0.1686(4) 0.17966(17)
O4C O 0.32959(15) -0.1686(4) 0.32034(17)
O5A O 0.8702(2) 0.1091(5) 0.4135(2)
loop_
_geom_bond_atom_site_label_1
_geom_bond_atom_site_label_2
_geom_bond_site_symmetry_1
_geom_bond_site_symmetry_2
Cd1 O1 1_555 1_555
C1 O1 1_555 1_555
C2 H1 1_555 1_555
H2 C2 1_555 1_555
C3 C2 1_555 1_555
H3 C3 1_555 1_555
H4 C3 1_555 1_555
C4 C5 1_555 1_555
C5 C6 1_555 1_555
C6 H5 1_555 1_555
C7 C5 1_555 1_555
H6 C7 1_555 1_555
C8 C9 1_555 1_555
C9 C10 1_555 1_555
C10 H7 1_555 1_555
C11 C9 1_555 1_555
H8 C11 1_555 1_555
O1 Cd1C 1_555 1_555
O2 Cd1 1_555 1_555
O3 C4 1_555 1_555
O4 Cd1 1_555 1_555
O5 Cd1 1_555 1_555
N1 C1 1_555 1_555
H9 N1 1_555 1_555
N2 C1 1_555 1_555
H10 N2 1_555 1_555
C4A C5A 1_555 1_555
C5A C6A 1_555 1_555
C6A C6 1_555 1_555
H5A C6A 1_555 1_555
C7A C7 1_555 1_555
H6A C7A 1_555 1_555
O2A C4A 1_555 1_555
O3A C4A 1_555 1_555
C8D C9D 1_555 1_555
C9D C10D 1_555 1_555
C10D C11 1_555 1_555
H7D C10D 1_555 1_555
C11D C10 1_555 1_555
H8D C11D 1_555 1_555
O4D C8D 1_555 1_555
O5D C8D 1_555 1_555
Cd1A O2A 1_555 1_555
C1A O1A 1_555 1_555
C2A H1A 1_555 1_555
H2A C2A 1_555 1_555
C3A C2A 1_555 1_555
H3A C3A 1_555 1_555
H4A C3A 1_555 1_555
O1A Cd1A 1_555 1_555
N1A C1A 1_555 1_555
H9A N1A 1_555 1_555
N2A C1A 1_555 1_555
H10A N2A 1_555 1_555
Cd1B O1A 1_555 1_555
Cd1B_2 O3A 1_555 1_555
Cd1C O4C 1_555 1_555
Cd1C_2 O3 1_555 1_555
Cd1D O4D 1_555 1_555
Cd1G O4D 1_555 1_555
O1B Cd1A 1_555 1_555
O1C Cd1 1_555 1_555
O3B Cd1A 1_555 1_555
O3C Cd1 1_555 1_555
O4A Cd1A 1_555 1_555
O4B Cd1A 1_555 1_555
O4C Cd1 1_555 1_555
O5A Cd1A 1_555 1_555
C2 N2 1_555 1_555
C3 N1 1_555 1_555
C4 O2 1_555 1_555
C8 O4 1_555 1_555
C8 O5 1_555 1_555
O4 Cd1C_2 1_555 1_555
C5A C7A 1_555 1_555
C9D C11D 1_555 1_555
O5D Cd1D 1_555 1_555
C2A N2A 1_555 1_555
C3A N1A 1_555 1_555
Cd1B O4B 1_555 1_555
Cd1B_2 O1B 1_555 1_555
Cd1B_2 O4A 1_555 1_555
Cd1C_2 O1C 1_555 1_555

#END
