
#######################################################################
#
#                 Cambridge Crystallographic Data Centre
#                                CCDC 
#
#######################################################################
#
# If this CIF has been generated from an entry in the Cambridge 
# Structural Database, then it will include bibliographic, chemical, 
# crystal, experimental, refinement or atomic coordinate data resulting 
# from the CCDC's data processing and validation procedures.
#
#######################################################################

data_FIPJUL01
_symmetry_cell_setting           monoclinic
_symmetry_space_group_name_H-M   'P 21/c'
_symmetry_Int_Tables_number      14
_space_group_name_Hall           '-P 2ybc'
loop_
_symmetry_equiv_pos_site_id
_symmetry_equiv_pos_as_xyz
1 x,y,z
2 -x,1/2+y,1/2-z
3 -x,-y,-z
4 x,1/2-y,1/2+z
_cell_length_a                   6.8785(11)
_cell_length_b                   17.938(3)
_cell_length_c                   14.985(2)
_cell_angle_alpha                90
_cell_angle_beta                 91.589(2)
_cell_angle_gamma                90
_cell_volume                     1848.24
loop_
_atom_site_label
_atom_site_type_symbol
_atom_site_fract_x
_atom_site_fract_y
_atom_site_fract_z
Cd1 Cd -0.23942(3) 0.482641(14) 0.241335(15)
Cl1 Cl 0.25829(10) 0.48548(4) 0.25663(4)
N1 N -0.1916(4) 0.41243(14) 0.37086(16)
N2 N -0.2900(4) 0.56370(14) 0.35719(17)
N3 N -0.1828(4) 0.41409(13) 0.51789(16)
H1 H -0.1894 0.4305 0.5717
N4 N -0.3105(4) 0.57908(14) 0.50196(18)
H2 H -0.3079 0.5693 0.5582
N5 N -0.2928(4) 0.41117(14) 0.11363(16)
N6 N -0.1968(4) 0.56465(14) 0.12445(17)
N7 N -0.3268(4) 0.41413(13) -0.03297(16)
H3 H -0.3284 0.4308 -0.0868
N8 N -0.1887(4) 0.57775(14) -0.02114(17)
H4 H -0.1970 0.5673 -0.0771
O1 O 0.1091(3) 0.44531(13) 0.20373(15)
O2 O 0.3967(4) 0.51837(16) 0.19652(18)
O3 O 0.3634(4) 0.43483(14) 0.31762(17)
O4 O 0.1633(4) 0.54401(15) 0.30679(17)
C1 C -0.1409(5) 0.34264(18) 0.4019(2)
H5 H -0.1145 0.3016 0.3663
C2 C -0.1353(5) 0.34311(18) 0.4931(2)
H6 H -0.1054 0.3033 0.5308
C3 C -0.2172(4) 0.45351(16) 0.44296(19)
C4 C -0.2721(4) 0.53132(16) 0.4359(2)
C5 C -0.3544(5) 0.64614(19) 0.4634(3)
H7 H -0.3860 0.6900 0.4926
C6 C -0.3429(5) 0.63616(19) 0.3742(2)
H8 H -0.3669 0.6726 0.3311
C7 C -0.3714(5) 0.34314(17) -0.0070(2)
H9 H -0.4089 0.3037 -0.0439
C8 C -0.3498(5) 0.34183(18) 0.0838(2)
H10 H -0.3705 0.3005 0.1198
C9 C -0.2803(4) 0.45293(16) 0.04119(19)
C10 C -0.2224(4) 0.53090(16) 0.0466(2)
C11 C -0.1442(5) 0.63607(18) 0.1056(2)
H11 H -0.1163 0.6729 0.1477
C12 C -0.1387(5) 0.64525(18) 0.0154(2)
H12 H -0.1073 0.6886 -0.0151
Cd1_2 Cd 0.76058(3) 0.482641(14) 0.241335(15)
O2_2 O -0.6033(4) 0.51837(16) 0.19652(18)
O5 O 0.0862(6) 0.28447(17) 0.2001(3)
H13 H 0.046(8) 0.3319(10) 0.205(4)
H14 H 0.210(6) 0.287(10) 0.222(7)
O6 O -0.2367(5) 0.20076(19) 0.2428(3)
H15 H -0.160(8) 0.162(2) 0.231(4)
H16 H -0.311(11) 0.179(5) 0.284(4)
O7 O 0.4336(5) 0.27689(16) 0.3036(2)
H17 H 0.473(6) 0.3245(8) 0.300(3)
loop_
_geom_bond_atom_site_label_1
_geom_bond_atom_site_label_2
_geom_bond_site_symmetry_1
_geom_bond_site_symmetry_2
Cd1 N1 1_555 1_555
Cl1 O1 1_555 1_555
N1 C1 1_555 1_555
N2 Cd1 1_555 1_555
N3 H1 1_555 1_555
N4 H2 1_555 1_555
N5 Cd1 1_555 1_555
N6 Cd1 1_555 1_555
N7 H3 1_555 1_555
N8 H4 1_555 1_555
O1 Cd1 1_555 1_555
O2 Cl1 1_555 1_555
O3 Cl1 1_555 1_555
O4 Cl1 1_555 1_555
C1 H5 1_555 1_555
C2 N3 1_555 1_555
H6 C2 1_555 1_555
C3 N1 1_555 1_555
C4 N2 1_555 1_555
C5 N4 1_555 1_555
H7 C5 1_555 1_555
C6 N2 1_555 1_555
H8 C6 1_555 1_555
C7 N7 1_555 1_555
H9 C7 1_555 1_555
C8 N5 1_555 1_555
H10 C8 1_555 1_555
C9 N5 1_555 1_555
C10 N6 1_555 1_555
C11 N6 1_555 1_555
H11 C11 1_555 1_555
C12 N8 1_555 1_555
H12 C12 1_555 1_555
O5 H13 1_555 1_555
H14 O5 1_555 1_555
O6 H15 1_555 1_555
H16 O6 1_555 1_555
O7 H17 1_555 1_555
Cd1_2 O2 1_555 1_555
O2_2 Cd1 1_555 1_555
N3 C3 1_555 1_555
N4 C4 1_555 1_555
N7 C9 1_555 1_555
N8 C10 1_555 1_555
C1 C2 1_555 1_555
C3 C4 1_555 1_555
C5 C6 1_555 1_555
C7 C8 1_555 1_555
C9 C10 1_555 1_555
C11 C12 1_555 1_555

#END
