
#######################################################################
#
#                 Cambridge Crystallographic Data Centre
#                                CCDC 
#
#######################################################################
#
# If this CIF has been generated from an entry in the Cambridge 
# Structural Database, then it will include bibliographic, chemical, 
# crystal, experimental, refinement or atomic coordinate data resulting 
# from the CCDC's data processing and validation procedures.
#
#######################################################################

data_FIPJEV
_symmetry_cell_setting           monoclinic
_symmetry_space_group_name_H-M   'C 2/c'
_symmetry_Int_Tables_number      15
_space_group_name_Hall           '-C 2yn'
loop_
_symmetry_equiv_pos_site_id
_symmetry_equiv_pos_as_xyz
1 x,y,z
2 -x,y,1/2-z
3 1/2+x,1/2+y,z
4 1/2-x,1/2+y,1/2-z
5 -x,-y,-z
6 x,-y,1/2+z
7 1/2-x,1/2-y,-z
8 1/2+x,1/2-y,1/2+z
_cell_length_a                   21.8879(17)
_cell_length_b                   7.0573(3)
_cell_length_c                   19.2414(13)
_cell_angle_alpha                90
_cell_angle_beta                 122.3440(10)
_cell_angle_gamma                90
_cell_volume                     2511.07
loop_
_atom_site_label
_atom_site_type_symbol
_atom_site_fract_x
_atom_site_fract_y
_atom_site_fract_z
Cd1 Cd 0.23585(4) 0.46950(12) 0.22143(5)
O1 O 0.1331(6) 0.3917(16) 0.0884(7)
O2 O 0.1691(4) 0.1686(14) 0.1810(5)
O3 O 0.3192(5) 0.3728(18) 0.1964(6)
O4 O 0.2747(5) 0.2695(13) 0.3404(5)
O5 O 0.3396(7) 0.0827(17) 0.2442(11)
N1 N 0.2836(9) 0.4769(18) 0.4355(9)
H1 H 0.2542 0.5595 0.4009
N2 N 0.3370(8) 0.2085(19) 0.4786(7)
H2 H 0.3464 0.0911 0.4766
N3 N 0.0071(14) 0.359(4) -0.0538(15)
H3 H -0.0278 0.3964 -0.1013
H4 H 0.0427 0.4341 -0.0235
N4 N 0.441(2) 0.579(7) 0.249(3)
H5 H 0.4021 0.5896 0.2490
H6 H 0.4656 0.6778 0.2527
N5 N 0.448(3) -0.113(8) 0.261(4)
H7 H 0.4116 -0.1233 0.2667
H8 H 0.4729 -0.2112 0.2655
C1 C 0.1246(6) 0.2327(19) 0.1101(8)
C2 C 0.0596(6) 0.1156(19) 0.0523(7)
C3 C 0.0059(7) 0.182(2) -0.0264(8)
C4 C 0.0517(6) -0.0644(19) 0.0760(7)
H9 H 0.0871 -0.1077 0.1280
C5 C 0.3571(7) 0.230(2) 0.2245(8)
C6 C 0.4310(7) 0.2339(19) 0.2358(8)
C7 C 0.4646(7) 0.4015(19) 0.2423(9)
C8 C 0.4658(9) 0.061(2) 0.2448(13)
C9 C 0.2977(7) 0.316(2) 0.4133(8)
C10 C 0.3621(12) 0.312(3) 0.5539(10)
H10 H 0.4141 0.3299 0.5840
H11 H 0.3495 0.2466 0.5889
C11 C 0.3219(12) 0.503(3) 0.5237(11)
H12 H 0.2888 0.5220 0.5421
H13 H 0.3553 0.6088 0.5416
O1D O -0.1331(6) -0.3917(16) -0.0884(7)
O2D O -0.1691(4) -0.1686(14) -0.1810(5)
N3D N -0.0071(14) -0.359(4) 0.0538(15)
H3D H 0.0278 -0.3964 0.1013
H4D H -0.0427 -0.4341 0.0235
C1D C -0.1246(6) -0.2327(19) -0.1101(8)
C2D C -0.0596(6) -0.1156(19) -0.0523(7)
C3D C -0.0059(7) -0.182(2) 0.0264(8)
C4D C -0.0517(6) 0.0644(19) -0.0760(7)
H9D H -0.0871 0.1077 -0.1280
O3A O 0.6808(5) 0.3728(18) 0.3036(6)
O5A O 0.6604(7) 0.0827(17) 0.2558(11)
N4A N 0.559(2) 0.579(7) 0.251(3)
H5A H 0.5979 0.5896 0.2510
H6A H 0.5344 0.6778 0.2473
N5A N 0.552(3) -0.113(8) 0.239(4)
H7A H 0.5884 -0.1233 0.2333
H8A H 0.5271 -0.2112 0.2345
C5A C 0.6429(7) 0.230(2) 0.2755(8)
C6A C 0.5690(7) 0.2339(19) 0.2642(8)
C7A C 0.5354(7) 0.4015(19) 0.2577(9)
C8A C 0.5342(9) 0.061(2) 0.2552(13)
Cd1A Cd 0.76415(4) 0.46950(12) 0.27857(5)
O4A O 0.7253(5) 0.2695(13) 0.1596(5)
N1A N 0.7164(9) 0.4769(18) 0.0645(9)
H1A H 0.7458 0.5595 0.0991
N2A N 0.6630(8) 0.2085(19) 0.0214(7)
H2A H 0.6536 0.0911 0.0234
C9A C 0.7023(7) 0.316(2) 0.0867(8)
C10A C 0.6379(12) 0.312(3) -0.0539(10)
H10A H 0.5859 0.3299 -0.0840
H11A H 0.6505 0.2466 -0.0889
C11A C 0.6781(12) 0.503(3) -0.0237(11)
H12A H 0.7112 0.5220 -0.0421
H13A H 0.6447 0.6088 -0.0416
Cd1B Cd 0.73585(4) -0.03050(12) 0.22143(5)
Cd1C Cd 0.26415(4) -0.03050(12) 0.27857(5)
Cd1D Cd -0.23585(4) -0.46950(12) -0.22143(5)
Cd1G Cd -0.26415(4) 0.03050(12) -0.27857(5)
O1A O 0.8669(6) 0.3917(16) 0.4116(7)
O2A O 0.8309(4) 0.1686(14) 0.3190(5)
O2B O 0.6691(4) 0.6686(14) 0.1810(5)
O2C O 0.3309(4) 0.6686(14) 0.3190(5)
O4B O 0.7747(5) 0.7695(13) 0.3404(5)
O4C O 0.2253(5) 0.7695(13) 0.1596(5)
O5B O 0.8396(7) 0.5827(17) 0.2442(11)
O5C O 0.1604(7) 0.5827(17) 0.2558(11)
loop_
_geom_bond_atom_site_label_1
_geom_bond_atom_site_label_2
_geom_bond_site_symmetry_1
_geom_bond_site_symmetry_2
Cd1 O1 1_555 1_555
O1 C1 1_555 1_555
O2 Cd1 1_555 1_555
O3 Cd1 1_555 1_555
O4 Cd1 1_555 1_555
O5 C5 1_555 1_555
N1 H1 1_555 1_555
N2 H2 1_555 1_555
N3 H3 1_555 1_555
H4 N3 1_555 1_555
N4 H5 1_555 1_555
H6 N4 1_555 1_555
N5 H7 1_555 1_555
H8 N5 1_555 1_555
C1 O2 1_555 1_555
C2 C1 1_555 1_555
C3 N3 1_555 1_555
C4 C2 1_555 1_555
H9 C4 1_555 1_555
C5 O3 1_555 1_555
C6 C5 1_555 1_555
C7 N4 1_555 1_555
C8 N5 1_555 1_555
C9 O4 1_555 1_555
C10 N2 1_555 1_555
H10 C10 1_555 1_555
H11 C10 1_555 1_555
C11 N1 1_555 1_555
H12 C11 1_555 1_555
H13 C11 1_555 1_555
O1D C1D 1_555 1_555
O2D C1D 1_555 1_555
N3D H3D 1_555 1_555
H4D N3D 1_555 1_555
C1D C2D 1_555 1_555
C2D C3D 1_555 1_555
C3D C4 1_555 1_555
C4D C3 1_555 1_555
H9D C4D 1_555 1_555
O3A C5A 1_555 1_555
O5A C5A 1_555 1_555
N4A H5A 1_555 1_555
H6A N4A 1_555 1_555
N5A H7A 1_555 1_555
H8A N5A 1_555 1_555
C5A C6A 1_555 1_555
C6A C7A 1_555 1_555
C7A C7 1_555 1_555
C8A C8 1_555 1_555
Cd1A O3A 1_555 1_555
O4A Cd1A 1_555 1_555
N1A H1A 1_555 1_555
N2A H2A 1_555 1_555
C9A O4A 1_555 1_555
C10A N2A 1_555 1_555
H10A C10A 1_555 1_555
H11A C10A 1_555 1_555
C11A N1A 1_555 1_555
H12A C11A 1_555 1_555
H13A C11A 1_555 1_555
Cd1B O5A 1_555 1_555
Cd1C O2 1_555 1_555
Cd1D O1D 1_555 1_555
Cd1G O2D 1_555 1_555
O1A Cd1A 1_555 1_555
O2A Cd1A 1_555 1_555
O2B Cd1A 1_555 1_555
O2C Cd1 1_555 1_555
O4B Cd1A 1_555 1_555
O4C Cd1 1_555 1_555
O5B Cd1A 1_555 1_555
O5C Cd1 1_555 1_555
O4 Cd1C 1_555 1_555
O5 Cd1C 1_555 1_555
N1 C9 1_555 1_555
N2 C9 1_555 1_555
C2 C3 1_555 1_555
C6 C7 1_555 1_555
C6 C8 1_555 1_555
C10 C11 1_555 1_555
O2D Cd1D 1_555 1_555
N3D C3D 1_555 1_555
C2D C4D 1_555 1_555
N4A C7A 1_555 1_555
N5A C8A 1_555 1_555
C6A C8A 1_555 1_555
O4A Cd1B 1_555 1_555
N1A C9A 1_555 1_555
N2A C9A 1_555 1_555
C10A C11A 1_555 1_555
Cd1B O2A 1_555 1_555

#END
