
#######################################################################
#
#                 Cambridge Crystallographic Data Centre
#                                CCDC 
#
#######################################################################
#
# If this CIF has been generated from an entry in the Cambridge 
# Structural Database, then it will include bibliographic, chemical, 
# crystal, experimental, refinement or atomic coordinate data resulting 
# from the CCDC's data processing and validation procedures.
#
#######################################################################

data_FIPKAR
_symmetry_cell_setting           triclinic
_symmetry_space_group_name_H-M   'P -1'
_symmetry_Int_Tables_number      2
_space_group_name_Hall           '-P 1'
loop_
_symmetry_equiv_pos_site_id
_symmetry_equiv_pos_as_xyz
1 x,y,z
2 -x,-y,-z
_cell_length_a                   10.844(2)
_cell_length_b                   13.478(2)
_cell_length_c                   21.706(4)
_cell_angle_alpha                107.300(3)
_cell_angle_beta                 96.639(3)
_cell_angle_gamma                96.877(3)
_cell_volume                     2968.63
loop_
_atom_site_label
_atom_site_type_symbol
_atom_site_fract_x
_atom_site_fract_y
_atom_site_fract_z
Ag1 Ag 0.03423(4) 0.66313(3) 0.17193(2)
Ag2 Ag 0.12431(4) 0.22738(3) -0.03996(2)
Ag3 Ag -0.04446(4) 0.53690(4) 0.43037(2)
N1 N -0.0933(4) 0.4227(3) 0.0985(2)
N2 N -0.0070(4) 0.5027(3) 0.0938(2)
C1 C 0.0618(5) 0.4548(4) 0.0528(3)
N3 N 0.0273(4) 0.3483(4) 0.0292(2)
C2 C -0.0703(5) 0.3333(4) 0.0595(3)
B1 B -0.2046(6) 0.4442(5) 0.1389(3)
N4 N -0.1501(4) 0.4979(3) 0.2124(2)
N5 N -0.0671(4) 0.5904(3) 0.2354(2)
C3 C -0.0519(5) 0.6132(4) 0.2992(3)
N6 N -0.1210(4) 0.5442(4) 0.3211(2)
C4 C -0.1795(5) 0.4721(4) 0.2643(3)
N7 N 0.3797(4) 0.3266(4) 0.0672(2)
N8 N 0.3213(4) 0.3380(4) 0.0107(2)
C5 C 0.3584(5) 0.4380(5) 0.0173(3)
N9 N 0.4367(4) 0.4948(4) 0.0742(2)
C6 C 0.4473(5) 0.4202(5) 0.1021(3)
B2 B 0.3711(6) 0.2196(6) 0.0811(4)
N10 N 0.2373(4) 0.1846(3) 0.0947(2)
N11 N 0.1355(4) 0.1444(4) 0.0456(2)
C7 C 0.0449(5) 0.1198(5) 0.0779(3)
N12 N 0.0807(5) 0.1401(4) 0.1424(2)
C8 C 0.2011(5) 0.1805(4) 0.1501(3)
P1 P 0.15310(13) 0.82469(11) 0.18019(7)
C9 C 0.2274(5) 0.8255(4) 0.1094(2)
C10 C 0.2982(5) 0.7470(4) 0.0877(3)
C11 C 0.3663(6) 0.7461(5) 0.0378(3)
C12 C 0.3617(5) 0.8230(5) 0.0075(3)
C13 C 0.2897(5) 0.9021(5) 0.0278(3)
C14 C 0.2229(5) 0.9030(4) 0.0789(3)
C15 C 0.2854(5) 0.8769(4) 0.2481(2)
C16 C 0.4034(5) 0.9214(4) 0.2404(3)
C17 C 0.5009(5) 0.9580(5) 0.2935(3)
C18 C 0.4798(6) 0.9515(5) 0.3539(3)
C19 C 0.3628(6) 0.9077(5) 0.3618(3)
C20 C 0.2656(5) 0.8700(4) 0.3091(3)
C21 C 0.0546(5) 0.9290(4) 0.1947(2)
P2 P -0.10680(13) 0.87650(11) 0.15073(6)
C22 C -0.1843(5) 0.9918(4) 0.1628(2)
C23 C -0.2967(5) 0.9815(4) 0.1209(3)
C24 C -0.3658(5) 1.0646(5) 0.1300(3)
C25 C -0.3224(6) 1.1563(5) 0.1793(3)
C26 C -0.2130(5) 1.1666(5) 0.2227(3)
C27 C -0.1440(5) 1.0848(4) 0.2143(3)
C28 C -0.1860(5) 0.8128(4) 0.2030(3)
C29 C -0.1569(5) 0.8490(4) 0.2703(3)
C30 C -0.2269(6) 0.8047(5) 0.3080(3)
C31 C -0.3285(6) 0.7258(5) 0.2779(3)
C32 C -0.3592(6) 0.6901(5) 0.2109(3)
C33 C -0.2874(5) 0.7328(5) 0.1737(3)
P3 P 0.12978(13) 0.44635(12) 0.39687(7)
C34 C 0.1854(5) 0.4764(4) 0.3272(3)
C35 C 0.1433(5) 0.4088(4) 0.2635(3)
C36 C 0.1791(5) 0.4371(5) 0.2103(3)
C37 C 0.2571(5) 0.5314(5) 0.2204(3)
C38 C 0.3001(5) 0.5986(5) 0.2834(3)
C39 C 0.2629(5) 0.5713(5) 0.3366(3)
C40 C 0.1091(5) 0.3035(4) 0.3785(2)
C41 C 0.0047(5) 0.2531(5) 0.3942(3)
C42 C -0.0040(5) 0.1467(5) 0.3906(3)
C43 C 0.0953(6) 0.0941(5) 0.3731(3)
C44 C 0.1994(6) 0.1432(5) 0.3544(3)
C45 C 0.2062(5) 0.2480(5) 0.3574(3)
C46 C 0.2716(5) 0.4905(4) 0.4599(3)
P4 P 0.24519(13) 0.45369(12) 0.53265(7)
C47 C 0.3074(5) 0.3318(5) 0.5227(2)
C48 C 0.2346(6) 0.2467(5) 0.5322(3)
C49 C 0.2830(8) 0.1516(5) 0.5237(3)
C50 C 0.4011(8) 0.1450(6) 0.5085(3)
C51 C 0.4746(6) 0.2286(6) 0.5001(3)
C52 C 0.4291(6) 0.3221(5) 0.5062(3)
C53 C 0.3558(5) 0.5555(5) 0.5979(3)
C54 C 0.4371(5) 0.5311(5) 0.6435(3)
C55 C 0.5074(5) 0.6115(6) 0.6971(3)
C56 C 0.4980(6) 0.7152(6) 0.7034(3)
C57 C 0.4168(6) 0.7401(5) 0.6580(3)
C58 C 0.3456(5) 0.6604(5) 0.6049(3)
N13 N 0.1545(5) 0.7883(5) 0.4711(3)
O1 O 0.1436(5) 0.6982(4) 0.4734(3)
O2 O 0.2387(5) 0.8574(4) 0.5063(3)
O3 O 0.0797(6) 0.8117(5) 0.4314(3)
H1 H 0.13151 0.49119 0.03881
H2 H -0.11873 0.26465 0.05278
H3 H -0.25699 0.49003 0.12289
H4 H -0.26069 0.37693 0.13305
H5 H 0.00333 0.67647 0.32785
H6 H -0.23546 0.40867 0.26088
H7 H 0.43520 0.22538 0.11920
H8 H 0.39056 0.16481 0.04287
H9 H 0.33148 0.46939 -0.01591
H10 H 0.50019 0.43358 0.14407
H11 H -0.04187 0.09018 0.05724
H12 H 0.25791 0.20438 0.19193
H13 H 0.30092 0.69236 0.10862
H14 H 0.41679 0.69178 0.02301
H15 H 0.40953 0.82357 -0.02745
H16 H 0.28594 0.95459 0.00656
H17 H 0.17476 0.95816 0.09404
H18 H 0.41712 0.92778 0.19822
H19 H 0.58339 0.98755 0.28862
H20 H 0.54665 0.97689 0.39051
H21 H 0.34935 0.90429 0.40451
H22 H 0.18393 0.83973 0.31424
H23 H 0.08992 0.98387 0.17899
H24 H 0.05308 0.95713 0.23987
H25 H -0.32791 0.91549 0.08561
H26 H -0.44470 1.05687 0.10122
H27 H -0.36756 1.21598 0.18454
H28 H -0.18672 1.23127 0.25892
H29 H -0.06623 1.09182 0.24463
H30 H -0.08841 0.90696 0.29223
H31 H -0.20410 0.82743 0.35453
H32 H -0.37711 0.69493 0.30397
H33 H -0.43080 0.63600 0.19030
H34 H -0.30693 0.70542 0.12687
H35 H 0.08889 0.34235 0.25608
H36 H 0.14856 0.39088 0.16641
H37 H 0.28096 0.55118 0.18330
H38 H 0.35717 0.66352 0.29060
H39 H 0.29197 0.61941 0.38028
H40 H -0.06246 0.29085 0.40869
H41 H -0.07933 0.11062 0.40010
H42 H 0.09417 0.02225 0.37467
H43 H 0.26494 0.10415 0.33928
H44 H 0.27771 0.28222 0.34487
H45 H 0.33764 0.45306 0.44319
H46 H 0.30060 0.56428 0.46685
H47 H 0.15078 0.25191 0.54297
H48 H 0.23266 0.09054 0.52793
H49 H 0.43255 0.08001 0.50219
H50 H 0.55945 0.22217 0.49218
H51 H 0.48185 0.38206 0.49964
H52 H 0.44427 0.45771 0.63775
H53 H 0.56299 0.59562 0.73011
H54 H 0.54973 0.77074 0.73934
H55 H 0.40828 0.81438 0.66295
H56 H 0.28788 0.67669 0.57312
Ag2A Ag -0.12431(4) 0.77262(3) 0.03996(2)
Ag3A Ag 0.04446(4) 0.46310(4) 0.56963(2)
P2A P 0.10680(13) 0.12350(11) -0.15073(6)
P4A P -0.24519(13) 0.54631(12) 0.46735(7)
O4 O 0.0414(19) 1.0317(16) 0.5454(10)
loop_
_geom_bond_atom_site_label_1
_geom_bond_atom_site_label_2
_geom_bond_site_symmetry_1
_geom_bond_site_symmetry_2
Ag1 N2 1_555 1_555
Ag2 N3 1_555 1_555
Ag3 N6 1_555 1_555
N1 N2 1_555 1_555
N2 C1 1_555 1_555
C1 N3 1_555 1_555
N3 C2 1_555 1_555
C2 N1 1_555 1_555
B1 N1 1_555 1_555
N4 B1 1_555 1_555
N5 Ag1 1_555 1_555
C3 N5 1_555 1_555
N6 C3 1_555 1_555
C4 N4 1_555 1_555
N7 N8 1_555 1_555
N8 Ag2 1_555 1_555
C5 N8 1_555 1_555
N9 C5 1_555 1_555
C6 N7 1_555 1_555
B2 N7 1_555 1_555
N10 B2 1_555 1_555
N11 Ag2 1_555 1_555
C7 N11 1_555 1_555
N12 C7 1_555 1_555
C8 N10 1_555 1_555
P1 Ag1 1_555 1_555
C9 P1 1_555 1_555
C10 C9 1_555 1_555
C11 C10 1_555 1_555
C12 C11 1_555 1_555
C13 C12 1_555 1_555
C14 C9 1_555 1_555
C15 P1 1_555 1_555
C16 C15 1_555 1_555
C17 C16 1_555 1_555
C18 C17 1_555 1_555
C19 C18 1_555 1_555
C20 C15 1_555 1_555
C21 P1 1_555 1_555
P2 C21 1_555 1_555
C22 P2 1_555 1_555
C23 C22 1_555 1_555
C24 C23 1_555 1_555
C25 C24 1_555 1_555
C26 C25 1_555 1_555
C27 C22 1_555 1_555
C28 P2 1_555 1_555
C29 C28 1_555 1_555
C30 C29 1_555 1_555
C31 C30 1_555 1_555
C32 C31 1_555 1_555
C33 C28 1_555 1_555
P3 Ag3 1_555 1_555
C34 P3 1_555 1_555
C35 C34 1_555 1_555
C36 C35 1_555 1_555
C37 C36 1_555 1_555
C38 C37 1_555 1_555
C39 C34 1_555 1_555
C40 P3 1_555 1_555
C41 C40 1_555 1_555
C42 C41 1_555 1_555
C43 C42 1_555 1_555
C44 C43 1_555 1_555
C45 C40 1_555 1_555
C46 P3 1_555 1_555
P4 C46 1_555 1_555
C47 P4 1_555 1_555
C48 C47 1_555 1_555
C49 C48 1_555 1_555
C50 C49 1_555 1_555
C51 C50 1_555 1_555
C52 C47 1_555 1_555
C53 P4 1_555 1_555
C54 C53 1_555 1_555
C55 C54 1_555 1_555
C56 C55 1_555 1_555
C57 C56 1_555 1_555
C58 C53 1_555 1_555
N13 O1 1_555 1_555
O1 Ag3 1_555 1_555
O2 N13 1_555 1_555
O3 N13 1_555 1_555
H1 C1 1_555 1_555
H2 C2 1_555 1_555
H3 B1 1_555 1_555
H4 B1 1_555 1_555
H5 C3 1_555 1_555
H6 C4 1_555 1_555
H7 B2 1_555 1_555
H8 B2 1_555 1_555
H9 C5 1_555 1_555
H10 C6 1_555 1_555
H11 C7 1_555 1_555
H12 C8 1_555 1_555
H13 C10 1_555 1_555
H14 C11 1_555 1_555
H15 C12 1_555 1_555
H16 C13 1_555 1_555
H17 C14 1_555 1_555
H18 C16 1_555 1_555
H19 C17 1_555 1_555
H20 C18 1_555 1_555
H21 C19 1_555 1_555
H22 C20 1_555 1_555
H23 C21 1_555 1_555
H24 C21 1_555 1_555
H25 C23 1_555 1_555
H26 C24 1_555 1_555
H27 C25 1_555 1_555
H28 C26 1_555 1_555
H29 C27 1_555 1_555
H30 C29 1_555 1_555
H31 C30 1_555 1_555
H32 C31 1_555 1_555
H33 C32 1_555 1_555
H34 C33 1_555 1_555
H35 C35 1_555 1_555
H36 C36 1_555 1_555
H37 C37 1_555 1_555
H38 C38 1_555 1_555
H39 C39 1_555 1_555
H40 C41 1_555 1_555
H41 C42 1_555 1_555
H42 C43 1_555 1_555
H43 C44 1_555 1_555
H44 C45 1_555 1_555
H45 C46 1_555 1_555
H46 C46 1_555 1_555
H47 C48 1_555 1_555
H48 C49 1_555 1_555
H49 C50 1_555 1_555
H50 C51 1_555 1_555
H51 C52 1_555 1_555
H52 C54 1_555 1_555
H53 C55 1_555 1_555
H54 C56 1_555 1_555
H55 C57 1_555 1_555
H56 C58 1_555 1_555
Ag2A P2 1_555 1_555
Ag3A P4 1_555 1_555
P2A Ag2 1_555 1_555
P4A Ag3 1_555 1_555
N4 N5 1_555 1_555
N6 C4 1_555 1_555
N9 C6 1_555 1_555
N10 N11 1_555 1_555
N12 C8 1_555 1_555
C13 C14 1_555 1_555
C19 C20 1_555 1_555
C26 C27 1_555 1_555
C32 C33 1_555 1_555
C38 C39 1_555 1_555
C44 C45 1_555 1_555
C51 C52 1_555 1_555
C57 C58 1_555 1_555

#END
