
#######################################################################
#
#                 Cambridge Crystallographic Data Centre
#                                CCDC 
#
#######################################################################
#
# If this CIF has been generated from an entry in the Cambridge 
# Structural Database, then it will include bibliographic, chemical, 
# crystal, experimental, refinement or atomic coordinate data resulting 
# from the CCDC's data processing and validation procedures.
#
#######################################################################

data_FIPKIA
_symmetry_cell_setting           triclinic
_symmetry_space_group_name_H-M   'P -1'
_symmetry_Int_Tables_number      2
_space_group_name_Hall           '-P 1'
loop_
_symmetry_equiv_pos_site_id
_symmetry_equiv_pos_as_xyz
1 x,y,z
2 -x,-y,-z
_cell_length_a                   8.467(2)
_cell_length_b                   11.674(3)
_cell_length_c                   12.265(3)
_cell_angle_alpha                73.605(3)
_cell_angle_beta                 78.656(3)
_cell_angle_gamma                81.484(3)
_cell_volume                     1134.77
loop_
_atom_site_label
_atom_site_type_symbol
_atom_site_fract_x
_atom_site_fract_y
_atom_site_fract_z
Zn1 Zn 0.40822(6) 0.21696(4) 0.38562(4)
C1 C 0.1482(6) 0.0941(4) 0.5627(4)
H1 H 0.1590 0.0442 0.5138
C2 C 0.0207(6) 0.0834(5) 0.6503(4)
H2 H -0.0520 0.0270 0.6620
C3 C 0.0024(6) 0.1595(5) 0.7221(4)
H3 H -0.0856 0.1570 0.7813
C4 C 0.1147(5) 0.2375(4) 0.7045(4)
H4 H 0.1040 0.2886 0.7521
C5 C 0.2463(5) 0.2412(4) 0.6151(3)
C6 C 0.5187(5) 0.3211(4) 0.5492(3)
C7 C 0.6250(5) 0.3770(4) 0.5876(4)
H5 H 0.5888 0.4120 0.6486
C8 C 0.7821(6) 0.3792(5) 0.5340(4)
H6 H 0.8536 0.4172 0.5574
C9 C 0.8349(6) 0.3251(5) 0.4455(4)
H7 H 0.9426 0.3235 0.4101
C10 C 0.7253(5) 0.2737(4) 0.4106(4)
H8 H 0.7603 0.2386 0.3497
C11 C 0.3325(5) 0.4164(3) 0.2271(3)
C12 C 0.2449(5) 0.5115(3) 0.1435(3)
C13 C 0.0802(5) 0.5211(4) 0.1518(3)
H9 H 0.0227 0.4686 0.2134
C14 C 0.0799(5) 0.6739(3) -0.0120(3)
C15 C 0.2466(5) 0.6713(4) -0.0280(4)
H10 H 0.3018 0.7239 -0.0908
C16 C 0.3282(5) 0.5896(4) 0.0508(4)
H11 H 0.4402 0.5865 0.0421
C17 C -0.3238(5) 0.8522(3) 0.0370(4)
C18 C -0.4727(5) 0.8349(4) 0.0959(4)
H12 H -0.5322 0.7800 0.0838
C19 C -0.5347(5) 0.8987(4) 0.1730(4)
H13 H -0.6378 0.8866 0.2147
C20 C -0.4506(5) 0.9807(3) 0.1917(4)
C21 C -0.2989(5) 0.9956(4) 0.1282(4)
H14 H -0.2393 1.0508 0.1396
C22 C -0.5210(7) 1.0526(4) 0.2769(4)
N1 N 0.5675(4) 0.2718(3) 0.4612(3)
N2 N 0.3600(4) 0.3196(3) 0.6062(3)
N3 N 0.2607(4) 0.1725(3) 0.5415(3)
N4 N -0.2310(5) 0.9324(3) 0.0483(4)
N5 N -0.0038(4) 0.6014(3) 0.0767(3)
S1 S -0.25960(14) 0.76200(11) -0.06172(11)
S2 S -0.02151(15) 0.78108(10) -0.11745(10)
O1 O 0.4815(4) 0.4121(3) 0.2172(3)
O2 O 0.2504(3) 0.3417(2) 0.3044(2)
O3 O -0.4397(4) 1.1326(3) 0.2827(3)
O4 O -0.6545(5) 1.0349(4) 0.3359(3)
Zn1_2 Zn -0.59178(6) 1.21696(4) 0.38562(4)
O3_2 O 0.5603(4) 0.1326(3) 0.2827(3)
O4_2 O 0.3455(5) 0.0349(4) 0.3359(3)
H15 H 0.6797 0.5956 0.2724
H16 H 0.7874 0.5717 0.1766
O5 O 0.6950(4) 0.5577(3) 0.2196(3)
loop_
_geom_bond_atom_site_label_1
_geom_bond_atom_site_label_2
_geom_bond_site_symmetry_1
_geom_bond_site_symmetry_2
Zn1 N1 1_555 1_555
C1 H1 1_555 1_555
C2 C1 1_555 1_555
H2 C2 1_555 1_555
C3 C2 1_555 1_555
H3 C3 1_555 1_555
C4 C3 1_555 1_555
H4 C4 1_555 1_555
C5 C4 1_555 1_555
C6 C7 1_555 1_555
C7 H5 1_555 1_555
C8 C7 1_555 1_555
H6 C8 1_555 1_555
C9 C8 1_555 1_555
H7 C9 1_555 1_555
C10 C9 1_555 1_555
H8 C10 1_555 1_555
C11 C12 1_555 1_555
C12 C13 1_555 1_555
C13 H9 1_555 1_555
C14 C15 1_555 1_555
C15 H10 1_555 1_555
C16 C12 1_555 1_555
H11 C16 1_555 1_555
C17 C18 1_555 1_555
C18 H12 1_555 1_555
C19 C18 1_555 1_555
H13 C19 1_555 1_555
C20 C19 1_555 1_555
C21 C20 1_555 1_555
H14 C21 1_555 1_555
C22 C20 1_555 1_555
N1 C6 1_555 1_555
N2 C5 1_555 1_555
N3 Zn1 1_555 1_555
N4 C17 1_555 1_555
N5 C13 1_555 1_555
S1 C17 1_555 1_555
S2 C14 1_555 1_555
O1 C11 1_555 1_555
O2 Zn1 1_555 1_555
O3 C22 1_555 1_555
O4 C22 1_555 1_555
H15 O5 1_555 1_555
H16 O5 1_555 1_555
Zn1_2 O3 1_555 1_555
O3_2 Zn1 1_555 1_555
O4_2 Zn1 1_555 1_555
C1 N3 1_555 1_555
C5 N3 1_555 1_555
C6 N2 1_555 1_555
C10 N1 1_555 1_555
C11 O2 1_555 1_555
C14 N5 1_555 1_555
C15 C16 1_555 1_555
C21 N4 1_555 1_555
S1 S2 1_555 1_555
O4 Zn1_2 1_555 1_555

#END
