
#######################################################################
#
#                 Cambridge Crystallographic Data Centre
#                                CCDC 
#
#######################################################################
#
# If this CIF has been generated from an entry in the Cambridge 
# Structural Database, then it will include bibliographic, chemical, 
# crystal, experimental, refinement or atomic coordinate data resulting 
# from the CCDC's data processing and validation procedures.
#
#######################################################################

data_FIPLIA
_symmetry_cell_setting           triclinic
_symmetry_space_group_name_H-M   'P -1'
_symmetry_Int_Tables_number      2
_space_group_name_Hall           '-P 1'
loop_
_symmetry_equiv_pos_site_id
_symmetry_equiv_pos_as_xyz
1 x,y,z
2 -x,-y,-z
_cell_length_a                   6.6774(3)
_cell_length_b                   7.3389(4)
_cell_length_c                   10.4329(6)
_cell_angle_alpha                77.323(2)
_cell_angle_beta                 87.664(2)
_cell_angle_gamma                89.533(3)
_cell_volume                     498.384
loop_
_atom_site_label
_atom_site_type_symbol
_atom_site_fract_x
_atom_site_fract_y
_atom_site_fract_z
La1 La 0.32568(4) 0.73853(4) 0.01605(3)
C1 C 0.2820(6) 0.5389(6) -0.3843(4)
C2 C 0.2593(7) 0.7234(6) -0.4473(4)
H1 H 0.2717 0.8160 -0.3999
C3 C 0.2188(7) 0.7734(7) -0.5782(5)
H2 H 0.2085 0.8987 -0.6198
C4 C 0.2180(6) 0.4565(6) -0.5893(4)
H3 H 0.2028 0.3658 -0.6380
C5 C 0.2651(6) 0.4052(6) -0.4593(4)
H4 H 0.2860 0.2800 -0.4212
C6 C 0.3285(6) 0.4923(6) -0.2423(4)
N1 N 0.1939(5) 0.6385(5) -0.6459(3)
O1 O 0.2741(4) 0.6091(4) -0.1774(3)
O2 O 0.4246(4) 0.3421(4) -0.1976(3)
O3 O 0.1385(4) 0.6869(4) -0.7697(3)
O4 O 0.6541(4) 0.9327(4) -0.0669(3)
O5 O 0.6670(4) 0.6184(4) -0.0841(3)
O6 O 0.9568(4) 0.7573(4) -0.0087(3)
O7 O 0.8716(4) 0.8463(4) -0.2363(3)
O8 O 0.2524(6) 0.9928(6) -0.1953(4)
S1 S 0.79419(15) 0.78863(15) -0.10096(10)
H5 H 0.263(8) 1.082(7) -0.193(5)
H6 H 0.131(9) 0.968(8) -0.204(6)
La1A La 0.67432(4) 0.26147(4) -0.01605(3)
La1_2 La 0.32568(4) 0.73853(4) -0.98395(3)
La1A_2 La 0.67432(4) 1.26147(4) -0.01605(3)
La1_3 La 1.32568(4) 0.73853(4) 0.01605(3)
O2A O 0.5754(4) 0.6579(4) 0.1976(3)
O3_2 O 0.1385(4) 0.6869(4) 0.2303(3)
O4A O 0.3459(4) 1.0673(4) 0.0669(3)
O5A O 0.3330(4) 0.3816(4) 0.0841(3)
O6_2 O -0.0432(4) 0.7573(4) -0.0087(3)
loop_
_geom_bond_atom_site_label_1
_geom_bond_atom_site_label_2
_geom_bond_site_symmetry_1
_geom_bond_site_symmetry_2
La1 O1 1_555 1_555
C1 C2 1_555 1_555
C2 H1 1_555 1_555
C3 C2 1_555 1_555
H2 C3 1_555 1_555
C4 H3 1_555 1_555
C5 C1 1_555 1_555
H4 C5 1_555 1_555
C6 C1 1_555 1_555
N1 C3 1_555 1_555
O1 C6 1_555 1_555
O2 C6 1_555 1_555
O3 N1 1_555 1_555
O4 La1 1_555 1_555
O5 La1 1_555 1_555
O6 S1 1_555 1_555
O7 S1 1_555 1_555
O8 La1 1_555 1_555
S1 O4 1_555 1_555
H5 O8 1_555 1_555
H6 O8 1_555 1_555
La1A O2 1_555 1_555
La1_2 O3 1_555 1_555
La1A_2 O4 1_555 1_555
La1_3 O6 1_555 1_555
O2A La1 1_555 1_555
O3_2 La1 1_555 1_555
O4A La1 1_555 1_555
O5A La1 1_555 1_555
O6_2 La1 1_555 1_555
C4 C5 1_555 1_555
C4 N1 1_555 1_555
O5 S1 1_555 1_555
O5 La1A 1_555 1_555
La1A O5A 1_555 1_555
La1A_2 O4A 1_555 1_555

#END
