
#######################################################################
#
#                 Cambridge Crystallographic Data Centre
#                                CCDC 
#
#######################################################################
#
# If this CIF has been generated from an entry in the Cambridge 
# Structural Database, then it will include bibliographic, chemical, 
# crystal, experimental, refinement or atomic coordinate data resulting 
# from the CCDC's data processing and validation procedures.
#
#######################################################################

data_FIPLUM
_symmetry_cell_setting           triclinic
_symmetry_space_group_name_H-M   'P -1'
_symmetry_Int_Tables_number      2
_space_group_name_Hall           '-P 1'
loop_
_symmetry_equiv_pos_site_id
_symmetry_equiv_pos_as_xyz
1 x,y,z
2 -x,-y,-z
_cell_length_a                   6.6182(2)
_cell_length_b                   7.2788(2)
_cell_length_c                   10.3611(3)
_cell_angle_alpha                77.3539(13)
_cell_angle_beta                 87.3002(12)
_cell_angle_gamma                90.0259(15)
_cell_volume                     486.442
loop_
_atom_site_label
_atom_site_type_symbol
_atom_site_fract_x
_atom_site_fract_y
_atom_site_fract_z
Pr1 Pr 0.32819(4) 0.73704(4) 0.01653(3)
C1 C 0.2840(8) 0.5375(8) -0.3836(5)
C2 C 0.2647(9) 0.7246(8) -0.4469(6)
H1 H 0.2772 0.8185 -0.3996
C3 C 0.2274(9) 0.7719(8) -0.5789(6)
H2 H 0.2227 0.8980 -0.6220
C4 C 0.2173(8) 0.4532(8) -0.5889(6)
H3 H 0.2002 0.3614 -0.6374
C5 C 0.2633(8) 0.4017(8) -0.4578(6)
H4 H 0.2807 0.2753 -0.4187
C6 C 0.3285(8) 0.4911(8) -0.2380(6)
N1 N 0.1972(7) 0.6356(7) -0.6469(5)
O1 O 0.2723(6) 0.6086(5) -0.1745(4)
O2 O 0.4253(5) 0.3408(5) -0.1951(4)
O3 O 0.1425(6) 0.6826(6) -0.7711(4)
O4 O 0.6560(5) 0.9344(5) -0.0654(4)
O5 O 0.6663(5) 0.6180(5) -0.0843(4)
O6 O 0.9591(5) 0.7565(6) -0.0072(4)
O7 O 0.8780(5) 0.8488(5) -0.2352(4)
O8 O 0.2647(8) 0.9871(7) -0.1955(5)
S1 S 0.79795(18) 0.78952(18) -0.09991(13)
H5 H 0.276(12) 1.069(12) -0.171(8)
H6 H 0.183(11) 0.983(11) -0.220(7)
Pr1A Pr 0.67181(4) 0.26296(4) -0.01653(3)
Pr1_2 Pr 0.32819(4) 0.73704(4) -0.98347(3)
Pr1A_2 Pr 0.67181(4) 1.26296(4) -0.01653(3)
Pr1_3 Pr 1.32819(4) 0.73704(4) 0.01653(3)
O2A O 0.5747(5) 0.6592(5) 0.1951(4)
O3_2 O 0.1425(6) 0.6826(6) 0.2289(4)
O4A O 0.3440(5) 1.0656(5) 0.0654(4)
O5A O 0.3337(5) 0.3820(5) 0.0843(4)
O6_2 O -0.0409(5) 0.7565(6) -0.0072(4)
loop_
_geom_bond_atom_site_label_1
_geom_bond_atom_site_label_2
_geom_bond_site_symmetry_1
_geom_bond_site_symmetry_2
Pr1 O1 1_555 1_555
C1 C2 1_555 1_555
C2 H1 1_555 1_555
C3 C2 1_555 1_555
H2 C3 1_555 1_555
C4 H3 1_555 1_555
C5 C1 1_555 1_555
H4 C5 1_555 1_555
C6 C1 1_555 1_555
N1 C3 1_555 1_555
O1 C6 1_555 1_555
O2 C6 1_555 1_555
O3 N1 1_555 1_555
O4 Pr1 1_555 1_555
O5 Pr1 1_555 1_555
O6 S1 1_555 1_555
O7 S1 1_555 1_555
O8 Pr1 1_555 1_555
S1 O4 1_555 1_555
H5 O8 1_555 1_555
H6 O8 1_555 1_555
Pr1A O2 1_555 1_555
Pr1_2 O3 1_555 1_555
Pr1A_2 O4 1_555 1_555
Pr1_3 O6 1_555 1_555
O2A Pr1 1_555 1_555
O3_2 Pr1 1_555 1_555
O4A Pr1 1_555 1_555
O5A Pr1 1_555 1_555
O6_2 Pr1 1_555 1_555
C4 C5 1_555 1_555
C4 N1 1_555 1_555
O5 S1 1_555 1_555
O5 Pr1A 1_555 1_555
Pr1A O5A 1_555 1_555
Pr1A_2 O4A 1_555 1_555

#END
