
#######################################################################
#
#                 Cambridge Crystallographic Data Centre
#                                CCDC 
#
#######################################################################
#
# If this CIF has been generated from an entry in the Cambridge 
# Structural Database, then it will include bibliographic, chemical, 
# crystal, experimental, refinement or atomic coordinate data resulting 
# from the CCDC's data processing and validation procedures.
#
#######################################################################

data_FIPMEX
_symmetry_cell_setting           monoclinic
_symmetry_space_group_name_H-M   'P 21/c'
_symmetry_Int_Tables_number      14
_space_group_name_Hall           '-P 2ybc'
loop_
_symmetry_equiv_pos_site_id
_symmetry_equiv_pos_as_xyz
1 x,y,z
2 -x,1/2+y,1/2-z
3 -x,-y,-z
4 x,1/2-y,1/2+z
_cell_length_a                   7.7564(2)
_cell_length_b                   20.5503(5)
_cell_length_c                   6.3399(3)
_cell_angle_alpha                90
_cell_angle_beta                 106.8235(10)
_cell_angle_gamma                90
_cell_volume                     967.306
loop_
_atom_site_label
_atom_site_type_symbol
_atom_site_fract_x
_atom_site_fract_y
_atom_site_fract_z
Eu1 Eu 0.15249(4) 0.429459(14) 0.70826(5)
C1 C -0.1069(10) 0.3282(3) 0.5691(10)
C2 C -0.2422(10) 0.2738(3) 0.5181(10)
C3 C -0.4262(10) 0.2852(3) 0.4544(10)
H1 H -0.4700 0.3276 0.4403
C4 C -0.5437(10) 0.2334(3) 0.4121(11)
H2 H -0.6672 0.2408 0.3699
C5 C -0.1822(9) 0.2100(3) 0.5387(10)
H3 H -0.0592 0.2015 0.5843
C6 C -0.3024(9) 0.1591(3) 0.4926(10)
H4 H -0.2614 0.1163 0.5032
N1 N -0.4805(8) 0.1720(2) 0.4316(8)
O1 O -0.1598(6) 0.3862(2) 0.5444(7)
O2 O 0.0573(7) 0.3142(2) 0.6414(8)
O3 O -0.5927(7) 0.1225(2) 0.3986(8)
O4 O 0.2735(7) 0.4842(2) 1.1268(8)
O5 O 0.0501(7) 0.4036(2) 1.0243(7)
O6 O 0.2655(7) 0.3982(2) 1.3913(7)
O7 O 0.0384(6) 0.4779(2) 1.3157(7)
O8 O 0.3570(9) 0.5158(3) 0.7021(12)
S1 S 0.1608(2) 0.44057(7) 1.2132(3)
H5 H 0.380(15) 0.533(5) 0.655(17)
H6 H 0.499(18) 0.506(6) 0.743(19)
Eu1C Eu -0.84751(4) 0.070541(14) 0.20826(5)
Eu1_2 Eu 0.15249(4) 0.429459(14) 1.70826(5)
Eu1B Eu -0.15249(4) 0.570541(14) 1.29174(5)
O3C O 0.4073(7) 0.3775(2) 0.8986(8)
O6_2 O 0.2655(7) 0.3982(2) 0.3913(7)
O7_2 O 0.0384(6) 0.4779(2) 0.3157(7)
O7B O -0.0384(6) 0.5221(2) 0.6843(7)
loop_
_geom_bond_atom_site_label_1
_geom_bond_atom_site_label_2
_geom_bond_site_symmetry_1
_geom_bond_site_symmetry_2
Eu1 O1 1_555 1_555
C1 C2 1_555 1_555
C2 C3 1_555 1_555
C3 H1 1_555 1_555
C4 C3 1_555 1_555
H2 C4 1_555 1_555
C5 C2 1_555 1_555
H3 C5 1_555 1_555
C6 C5 1_555 1_555
H4 C6 1_555 1_555
N1 C4 1_555 1_555
O1 C1 1_555 1_555
O2 Eu1 1_555 1_555
O3 N1 1_555 1_555
O4 Eu1 1_555 1_555
O5 Eu1 1_555 1_555
O6 S1 1_555 1_555
O7 S1 1_555 1_555
O8 Eu1 1_555 1_555
S1 O4 1_555 1_555
H5 O8 1_555 1_555
H6 O8 1_555 1_555
Eu1C O3 1_555 1_555
Eu1_2 O6 1_555 1_555
Eu1B O7 1_555 1_555
O3C Eu1 1_555 1_555
O6_2 Eu1 1_555 1_555
O7_2 Eu1 1_555 1_555
O7B Eu1 1_555 1_555
C1 O2 1_555 1_555
C6 N1 1_555 1_555
O5 S1 1_555 1_555
O7 Eu1_2 1_555 1_555

#END
