
#######################################################################
#
#                 Cambridge Crystallographic Data Centre
#                                CCDC 
#
#######################################################################
#
# If this CIF has been generated from an entry in the Cambridge 
# Structural Database, then it will include bibliographic, chemical, 
# crystal, experimental, refinement or atomic coordinate data resulting 
# from the CCDC's data processing and validation procedures.
#
#######################################################################

data_FIPMOI
_symmetry_cell_setting           monoclinic
_symmetry_space_group_name_H-M   'C 2/c'
_symmetry_Int_Tables_number      15
_space_group_name_Hall           '-C 2yn'
loop_
_symmetry_equiv_pos_site_id
_symmetry_equiv_pos_as_xyz
1 x,y,z
2 -x,y,1/2-z
3 1/2+x,1/2+y,z
4 1/2-x,1/2+y,1/2-z
5 -x,-y,-z
6 x,-y,1/2+z
7 1/2-x,1/2-y,-z
8 1/2+x,1/2-y,1/2+z
_cell_length_a                   15.445(2)
_cell_length_b                   18.419(2)
_cell_length_c                   14.954(2)
_cell_angle_alpha                90
_cell_angle_beta                 114.044(3)
_cell_angle_gamma                90
_cell_volume                     3885.02
loop_
_atom_site_label
_atom_site_type_symbol
_atom_site_fract_x
_atom_site_fract_y
_atom_site_fract_z
Br1 Br 0.60575(3) 0.30607(3) 0.19517(5)
C1 C 0.8487(2) 0.4287(2) 0.3189(3)
C2 C 0.9216(2) 0.38151(19) 0.3250(3)
C3 C 0.8993(3) 0.3114(2) 0.2908(3)
H1 H 0.9481 0.2791 0.2987
C4 C 0.8062(3) 0.2874(2) 0.2451(3)
C5 C 0.7351(3) 0.3351(2) 0.2427(3)
C6 C 0.7565(3) 0.4032(2) 0.2814(3)
H2 H 0.7084 0.4329 0.2826
C7 C 0.8634(2) 0.50550(19) 0.3541(3)
C8 C 1.0262(2) 0.40070(19) 0.3767(3)
C9 C 0.7889(3) 0.2119(2) 0.2021(3)
C10 C 0.9266(3) 0.6537(3) 0.0896(4)
H3 H 0.9842 0.6441 0.0858
C11 C 0.8690(3) 0.7061(3) 0.0292(4)
H4 H 0.8883 0.7312 -0.0135
C12 C 0.7826(3) 0.7216(2) 0.0315(3)
C13 C 0.7590(3) 0.6815(2) 0.0957(3)
H5 H 0.7007 0.6887 0.0990
C14 C 0.8213(3) 0.6308(2) 0.1552(3)
H6 H 0.8041 0.6055 0.1992
C15 C 1.3893(3) 0.3874(3) 0.5610(5)
H7 H 1.3979 0.3456 0.5986
C16 C 1.4677(4) 0.4214(4) 0.5578(5)
H8 H 1.5278 0.4028 0.5945
C17 C 1.4586(3) 0.4810(3) 0.5026(4)
C18 C 1.3685(3) 0.5039(3) 0.4514(4)
H9 H 1.3576 0.5442 0.4107
C19 C 1.2944(3) 0.4695(3) 0.4580(4)
H10 H 1.2339 0.4876 0.4217
N1 N 0.9045(2) 0.61600(16) 0.1532(2)
N2 N 1.3025(2) 0.41230(19) 0.5124(3)
O1 O 0.8164(2) 0.52438(14) 0.4013(2)
O2 O 0.91550(18) 0.54648(14) 0.3325(2)
O3 O 1.06267(16) 0.45373(13) 0.35395(18)
O4 O 1.07160(17) 0.35633(14) 0.4438(2)
O5 O 0.8382(2) 0.16140(16) 0.2486(2)
O6 O 0.7238(2) 0.20832(16) 0.1171(2)
Zn1 Zn 1.0000 0.53728(3) 0.2500
Zn2 Zn 1.19364(3) 0.38073(2) 0.54549(3)
C10F C 0.5734(3) 0.8463(3) -0.0896(4)
H3F H 0.5158 0.8559 -0.0858
C11F C 0.6310(3) 0.7939(3) -0.0292(4)
H4F H 0.6117 0.7688 0.0135
C12F C 0.7174(3) 0.7784(2) -0.0315(3)
C13F C 0.7410(3) 0.8185(2) -0.0957(3)
H5F H 0.7993 0.8113 -0.0990
C14F C 0.6787(3) 0.8692(2) -0.1552(3)
H6F H 0.6959 0.8945 -0.1992
N1F N 0.5955(2) 0.88400(16) -0.1532(2)
C15D C 1.6107(3) 0.6126(3) 0.4390(5)
H7D H 1.6021 0.6544 0.4014
C16D C 1.5323(4) 0.5786(4) 0.4422(5)
H8D H 1.4722 0.5972 0.4055
C17D C 1.5414(3) 0.5190(3) 0.4974(4)
C18D C 1.6315(3) 0.4961(3) 0.5486(4)
H9D H 1.6424 0.4558 0.5893
C19D C 1.7056(3) 0.5305(3) 0.5420(4)
H10D H 1.7661 0.5124 0.5783
N2D N 1.6975(2) 0.58770(19) 0.4876(3)
Br1A Br 1.39425(3) 0.30607(3) 0.30483(5)
C1A C 1.1513(2) 0.4287(2) 0.1811(3)
C2A C 1.0784(2) 0.38151(19) 0.1750(3)
C3A C 1.1007(3) 0.3114(2) 0.2092(3)
H1A H 1.0519 0.2791 0.2013
C4A C 1.1938(3) 0.2874(2) 0.2549(3)
C5A C 1.2649(3) 0.3351(2) 0.2573(3)
C6A C 1.2435(3) 0.4032(2) 0.2186(3)
H2A H 1.2916 0.4329 0.2174
C7A C 1.1366(2) 0.50550(19) 0.1459(3)
C8A C 0.9738(2) 0.40070(19) 0.1233(3)
C9A C 1.2111(3) 0.2119(2) 0.2979(3)
O1A O 1.1836(2) 0.52438(14) 0.0987(2)
O2A O 1.08450(18) 0.54648(14) 0.1675(2)
O3A O 0.93733(16) 0.45373(13) 0.14605(18)
O4A O 0.92840(17) 0.35633(14) 0.0562(2)
O5A O 1.1618(2) 0.16140(16) 0.2514(2)
O6A O 1.2762(2) 0.20832(16) 0.3829(2)
Zn2A Zn 0.80636(3) 0.38073(2) -0.04549(3)
N1A N 1.0955(2) 0.61600(16) 0.3468(2)
N2A N 0.6975(2) 0.41230(19) -0.0124(3)
O1D O 1.1836(2) 0.47562(14) 0.5987(2)
O1E O 0.8164(2) 0.47562(14) -0.0987(2)
O6F O 0.7762(2) 0.29168(16) -0.1171(2)
O6G O 1.2238(2) 0.29168(16) 0.6171(2)
Zn1F Zn 0.5000 0.96272(3) -0.2500
Zn2D Zn 0.80636(3) 0.61927(2) 0.45451(3)
Zn2D_2 Zn 1.80636(3) 0.61927(2) 0.45451(3)
Zn2E Zn 1.19364(3) 0.61927(2) 0.04549(3)
Zn2F Zn 1.30636(3) 0.11927(2) 0.45451(3)
Zn2G Zn 0.69364(3) 0.11927(2) 0.04549(3)
loop_
_geom_bond_atom_site_label_1
_geom_bond_atom_site_label_2
_geom_bond_site_symmetry_1
_geom_bond_site_symmetry_2
Br1 C5 1_555 1_555
C1 C2 1_555 1_555
C2 C3 1_555 1_555
C3 H1 1_555 1_555
C4 C3 1_555 1_555
C5 C4 1_555 1_555
C6 C1 1_555 1_555
H2 C6 1_555 1_555
C7 C1 1_555 1_555
C8 C2 1_555 1_555
C9 C4 1_555 1_555
C10 H3 1_555 1_555
C11 C10 1_555 1_555
H4 C11 1_555 1_555
C12 C11 1_555 1_555
C13 C12 1_555 1_555
H5 C13 1_555 1_555
C14 C13 1_555 1_555
H6 C14 1_555 1_555
C15 H7 1_555 1_555
C16 C15 1_555 1_555
H8 C16 1_555 1_555
C17 C16 1_555 1_555
C18 C17 1_555 1_555
H9 C18 1_555 1_555
C19 C18 1_555 1_555
H10 C19 1_555 1_555
N1 C10 1_555 1_555
N2 C15 1_555 1_555
O1 C7 1_555 1_555
O2 C7 1_555 1_555
O3 C8 1_555 1_555
O4 C8 1_555 1_555
O5 C9 1_555 1_555
O6 C9 1_555 1_555
Zn1 N1 1_555 1_555
Zn2 N2 1_555 1_555
C10F H3F 1_555 1_555
C11F C10F 1_555 1_555
H4F C11F 1_555 1_555
C12F C12 1_555 1_555
C13F C12F 1_555 1_555
H5F C13F 1_555 1_555
C14F C13F 1_555 1_555
H6F C14F 1_555 1_555
N1F C10F 1_555 1_555
C15D H7D 1_555 1_555
C16D C15D 1_555 1_555
H8D C16D 1_555 1_555
C17D C17 1_555 1_555
C18D C17D 1_555 1_555
H9D C18D 1_555 1_555
C19D C18D 1_555 1_555
H10D C19D 1_555 1_555
N2D C15D 1_555 1_555
Br1A C5A 1_555 1_555
C1A C2A 1_555 1_555
C2A C3A 1_555 1_555
C3A H1A 1_555 1_555
C4A C3A 1_555 1_555
C5A C4A 1_555 1_555
C6A C1A 1_555 1_555
H2A C6A 1_555 1_555
C7A C1A 1_555 1_555
C8A C2A 1_555 1_555
C9A C4A 1_555 1_555
O1A C7A 1_555 1_555
O2A Zn1 1_555 1_555
O3A Zn1 1_555 1_555
O4A C8A 1_555 1_555
O5A C9A 1_555 1_555
O6A C9A 1_555 1_555
Zn2A O4A 1_555 1_555
N1A Zn1 1_555 1_555
N2A Zn2A 1_555 1_555
O1D Zn2 1_555 1_555
O1E Zn2A 1_555 1_555
O6F Zn2A 1_555 1_555
O6G Zn2 1_555 1_555
Zn1F N1F 1_555 1_555
Zn2D O1 1_555 1_555
Zn2D_2 N2D 1_555 1_555
Zn2E O1A 1_555 1_555
Zn2F O6A 1_555 1_555
Zn2G O6 1_555 1_555
C5 C6 1_555 1_555
C14 N1 1_555 1_555
C19 N2 1_555 1_555
O2 Zn1 1_555 1_555
O3 Zn1 1_555 1_555
O4 Zn2 1_555 1_555
C11F C12F 1_555 1_555
C14F N1F 1_555 1_555
C16D C17D 1_555 1_555
C19D N2D 1_555 1_555
C5A C6A 1_555 1_555
C7A O2A 1_555 1_555
C8A O3A 1_555 1_555

#END
