
#######################################################################
#
#                 Cambridge Crystallographic Data Centre
#                                CCDC 
#
#######################################################################
#
# If this CIF has been generated from an entry in the Cambridge 
# Structural Database, then it will include bibliographic, chemical, 
# crystal, experimental, refinement or atomic coordinate data resulting 
# from the CCDC's data processing and validation procedures.
#
#######################################################################

data_FIPMIB
_symmetry_cell_setting           monoclinic
_symmetry_space_group_name_H-M   'P 21/c'
_symmetry_Int_Tables_number      14
_space_group_name_Hall           '-P 2ybc'
loop_
_symmetry_equiv_pos_site_id
_symmetry_equiv_pos_as_xyz
1 x,y,z
2 -x,1/2+y,1/2-z
3 -x,-y,-z
4 x,1/2-y,1/2+z
_cell_length_a                   7.7370(2)
_cell_length_b                   20.3121(6)
_cell_length_c                   6.3704(3)
_cell_angle_alpha                90
_cell_angle_beta                 106.3832(10)
_cell_angle_gamma                90
_cell_volume                     960.489
loop_
_atom_site_label
_atom_site_type_symbol
_atom_site_fract_x
_atom_site_fract_y
_atom_site_fract_z
Tb1 Tb 0.14820(5) 0.428385(16) 0.69792(5)
C1 C -0.1034(11) 0.3263(4) 0.5696(11)
C2 C -0.2415(11) 0.2722(4) 0.5176(11)
C3 C -0.4252(10) 0.2831(4) 0.4536(11)
H1 H -0.4681 0.3261 0.4403
C4 C -0.5456(11) 0.2319(4) 0.4092(11)
H2 H -0.6690 0.2399 0.3667
C5 C -0.1814(10) 0.2070(4) 0.5373(11)
H3 H -0.0586 0.1981 0.5824
C6 C -0.3035(10) 0.1557(4) 0.4903(11)
H4 H -0.2638 0.1122 0.5010
N1 N -0.4815(8) 0.1695(3) 0.4285(9)
O1 O -0.1584(7) 0.3854(2) 0.5439(8)
O2 O 0.0582(8) 0.3127(2) 0.6444(9)
O3 O -0.5932(7) 0.1190(3) 0.3913(9)
O4 O 0.2831(7) 0.4891(3) 1.1517(9)
O5 O 0.0614(7) 0.4082(3) 1.0192(8)
O6 O 0.2605(7) 0.3969(3) 1.3893(8)
O7 O 0.0362(6) 0.4782(2) 1.3167(7)
O8 O 0.3495(7) 0.5151(3) 0.7016(9)
S1 S 0.1643(3) 0.44322(8) 1.2159(3)
H5 H 0.477(3) 0.511(4) 0.751(12)
H6 H 0.324(9) 0.552(3) 0.606(11)
Tb1C Tb -0.85180(5) 0.071615(16) 0.19792(5)
Tb1_2 Tb 0.14820(5) 0.428385(16) 1.69792(5)
Tb1B Tb -0.14820(5) 0.571615(16) 1.30208(5)
O3C O 0.4068(7) 0.3810(3) 0.8913(9)
O6_2 O 0.2605(7) 0.3969(3) 0.3893(8)
O7_2 O 0.0362(6) 0.4782(2) 0.3167(7)
O7B O -0.0362(6) 0.5218(2) 0.6833(7)
loop_
_geom_bond_atom_site_label_1
_geom_bond_atom_site_label_2
_geom_bond_site_symmetry_1
_geom_bond_site_symmetry_2
Tb1 O1 1_555 1_555
C1 C2 1_555 1_555
C2 C3 1_555 1_555
C3 H1 1_555 1_555
C4 C3 1_555 1_555
H2 C4 1_555 1_555
C5 C2 1_555 1_555
H3 C5 1_555 1_555
C6 C5 1_555 1_555
H4 C6 1_555 1_555
N1 C4 1_555 1_555
O1 C1 1_555 1_555
O2 Tb1 1_555 1_555
O3 N1 1_555 1_555
O4 Tb1 1_555 1_555
O5 Tb1 1_555 1_555
O6 S1 1_555 1_555
O7 S1 1_555 1_555
O8 Tb1 1_555 1_555
S1 O4 1_555 1_555
H5 O8 1_555 1_555
H6 O8 1_555 1_555
Tb1C O3 1_555 1_555
Tb1_2 O6 1_555 1_555
Tb1B O7 1_555 1_555
O3C Tb1 1_555 1_555
O6_2 Tb1 1_555 1_555
O7_2 Tb1 1_555 1_555
O7B Tb1 1_555 1_555
C1 O2 1_555 1_555
C6 N1 1_555 1_555
O5 S1 1_555 1_555
O7 Tb1_2 1_555 1_555

#END
