
#######################################################################
#
#                 Cambridge Crystallographic Data Centre
#                                CCDC 
#
#######################################################################
#
# If this CIF has been generated from an entry in the Cambridge 
# Structural Database, then it will include bibliographic, chemical, 
# crystal, experimental, refinement or atomic coordinate data resulting 
# from the CCDC's data processing and validation procedures.
#
#######################################################################

data_FIPNIC
_symmetry_cell_setting           monoclinic
_symmetry_space_group_name_H-M   'P 21/c'
_symmetry_Int_Tables_number      14
_space_group_name_Hall           '-P 2ybc'
loop_
_symmetry_equiv_pos_site_id
_symmetry_equiv_pos_as_xyz
1 x,y,z
2 -x,1/2+y,1/2-z
3 -x,-y,-z
4 x,1/2-y,1/2+z
_cell_length_a                   9.3243(2)
_cell_length_b                   14.7539(4)
_cell_length_c                   7.6322(4)
_cell_angle_alpha                90
_cell_angle_beta                 100.4356(13)
_cell_angle_gamma                90
_cell_volume                     1032.59
loop_
_atom_site_label
_atom_site_type_symbol
_atom_site_fract_x
_atom_site_fract_y
_atom_site_fract_z
Dy1 Dy 0.27601(2) 0.042361(13) 0.13491(3)
C1 C -0.0322(6) 0.3950(3) 0.0949(6)
H1 H 0.0396 0.4379 0.1336
C2 C 0.0066(6) 0.3068(3) 0.0716(6)
H2 H 0.1043 0.2900 0.0959
C3 C -0.0990(5) 0.2432(3) 0.0123(6)
C4 C -0.2439(6) 0.2716(3) -0.0283(7)
H3 H -0.3171 0.2304 -0.0721
C5 C -0.2777(6) 0.3599(3) -0.0037(7)
H4 H -0.3741 0.3789 -0.0327
C6 C -0.0588(6) 0.1441(3) 0.0002(6)
N1 N -0.1730(4) 0.4198(2) 0.0623(5)
O1 O 0.0729(4) 0.1243(2) 0.0490(5)
O2 O -0.1585(4) 0.0903(2) -0.0586(5)
O3 O -0.2094(4) 0.5040(2) 0.0997(4)
O4 O 0.4394(4) 0.1308(2) -0.0001(4)
O5 O 0.2807(4) 0.0302(2) -0.1752(4)
O6 O 0.5254(4) 0.0454(2) -0.2330(5)
O7 O 0.3590(4) 0.1676(2) -0.3108(4)
O8 O 0.3533(4) 0.1601(2) 0.3320(5)
S1 S 0.40131(13) 0.09417(7) -0.18347(16)
H5 H 0.353(7) 0.224(5) 0.294(8)
H6 H 0.332(8) 0.162(4) 0.423(9)
Dy1B Dy -0.27601(2) -0.042361(13) -0.13491(3)
Dy1A Dy -0.27601(2) 0.542361(13) 0.36509(3)
Dy1B_2 Dy 0.72399(2) -0.042361(13) -0.13491(3)
O2B O 0.1585(4) -0.0903(2) 0.0586(5)
O3A O 0.2094(4) 0.0040(2) 0.4003(4)
O6B O 0.4746(4) -0.0454(2) 0.2330(5)
loop_
_geom_bond_atom_site_label_1
_geom_bond_atom_site_label_2
_geom_bond_site_symmetry_1
_geom_bond_site_symmetry_2
Dy1 O1 1_555 1_555
C1 H1 1_555 1_555
C2 C1 1_555 1_555
H2 C2 1_555 1_555
C3 C2 1_555 1_555
C4 C3 1_555 1_555
H3 C4 1_555 1_555
C5 C4 1_555 1_555
H4 C5 1_555 1_555
C6 C3 1_555 1_555
N1 C1 1_555 1_555
O1 C6 1_555 1_555
O2 C6 1_555 1_555
O3 N1 1_555 1_555
O4 Dy1 1_555 1_555
O5 Dy1 1_555 1_555
O6 S1 1_555 1_555
O7 S1 1_555 1_555
O8 Dy1 1_555 1_555
S1 O4 1_555 1_555
H5 O8 1_555 1_555
H6 O8 1_555 1_555
Dy1B O2 1_555 1_555
Dy1A O3 1_555 1_555
Dy1B_2 O6 1_555 1_555
O2B Dy1 1_555 1_555
O3A Dy1 1_555 1_555
O6B Dy1 1_555 1_555
C5 N1 1_555 1_555
O5 S1 1_555 1_555

#END
