
#######################################################################
#
#                 Cambridge Crystallographic Data Centre
#                                CCDC 
#
#######################################################################
#
# If this CIF has been generated from an entry in the Cambridge 
# Structural Database, then it will include bibliographic, chemical, 
# crystal, experimental, refinement or atomic coordinate data resulting 
# from the CCDC's data processing and validation procedures.
#
#######################################################################

data_FIPNAU
_symmetry_cell_setting           monoclinic
_symmetry_space_group_name_H-M   'P 21/c'
_symmetry_Int_Tables_number      14
_space_group_name_Hall           '-P 2ybc'
loop_
_symmetry_equiv_pos_site_id
_symmetry_equiv_pos_as_xyz
1 x,y,z
2 -x,1/2+y,1/2-z
3 -x,-y,-z
4 x,1/2-y,1/2+z
_cell_length_a                   9.2635(2)
_cell_length_b                   14.6315(4)
_cell_length_c                   7.5815(3)
_cell_angle_alpha                90
_cell_angle_beta                 100.3649(12)
_cell_angle_gamma                90
_cell_volume                     1010.82
loop_
_atom_site_label
_atom_site_type_symbol
_atom_site_fract_x
_atom_site_fract_y
_atom_site_fract_z
Yb1 Yb 0.27552(3) 0.042071(18) 0.13385(4)
C1 C -0.0315(8) 0.3961(5) 0.0968(9)
H1 H 0.0401 0.4398 0.1353
C2 C 0.0074(8) 0.3072(4) 0.0719(9)
H2 H 0.1059 0.2906 0.0950
C3 C -0.0977(7) 0.2427(4) 0.0134(8)
C4 C -0.2438(8) 0.2700(5) -0.0251(10)
H3 H -0.3170 0.2277 -0.0667
C5 C -0.2792(8) 0.3596(4) -0.0012(10)
H4 H -0.3763 0.3787 -0.0311
C6 C -0.0571(8) 0.1429(4) -0.0005(8)
N1 N -0.1744(6) 0.4195(4) 0.0648(7)
O1 O 0.0758(5) 0.1238(3) 0.0491(6)
O2 O -0.1571(5) 0.0881(3) -0.0577(6)
O3 O -0.2101(5) 0.5051(3) 0.1026(6)
O4 O 0.4369(5) 0.1317(3) 0.0040(6)
O5 O 0.2818(5) 0.0281(3) -0.1729(6)
O6 O 0.5293(5) 0.0459(3) -0.2271(6)
O7 O 0.3602(5) 0.1669(3) -0.3108(6)
O8 O 0.3508(6) 0.1584(3) 0.3299(6)
S1 S 0.40201(19) 0.09357(11) -0.1808(2)
H5 H 0.360(17) 0.220(3) 0.289(12)
H6 H 0.347(10) 0.164(6) 0.455(4)
Yb1B Yb -0.27552(3) -0.042071(18) -0.13385(4)
Yb1A Yb -0.27552(3) 0.542071(18) 0.36615(4)
Yb1B_2 Yb 0.72448(3) -0.042071(18) -0.13385(4)
O2B O 0.1571(5) -0.0881(3) 0.0577(6)
O3A O 0.2101(5) 0.0051(3) 0.3974(6)
O6B O 0.4707(5) -0.0459(3) 0.2271(6)
loop_
_geom_bond_atom_site_label_1
_geom_bond_atom_site_label_2
_geom_bond_site_symmetry_1
_geom_bond_site_symmetry_2
Yb1 O1 1_555 1_555
C1 H1 1_555 1_555
C2 C1 1_555 1_555
H2 C2 1_555 1_555
C3 C2 1_555 1_555
C4 C3 1_555 1_555
H3 C4 1_555 1_555
C5 C4 1_555 1_555
H4 C5 1_555 1_555
C6 C3 1_555 1_555
N1 C1 1_555 1_555
O1 C6 1_555 1_555
O2 C6 1_555 1_555
O3 N1 1_555 1_555
O4 Yb1 1_555 1_555
O5 Yb1 1_555 1_555
O6 S1 1_555 1_555
O7 S1 1_555 1_555
O8 Yb1 1_555 1_555
S1 O4 1_555 1_555
H5 O8 1_555 1_555
H6 O8 1_555 1_555
Yb1B O2 1_555 1_555
Yb1A O3 1_555 1_555
Yb1B_2 O6 1_555 1_555
O2B Yb1 1_555 1_555
O3A Yb1 1_555 1_555
O6B Yb1 1_555 1_555
C5 N1 1_555 1_555
O5 S1 1_555 1_555

#END
