
#######################################################################
#
#                 Cambridge Crystallographic Data Centre
#                                CCDC 
#
#######################################################################
#
# If this CIF has been generated from an entry in the Cambridge 
# Structural Database, then it will include bibliographic, chemical, 
# crystal, experimental, refinement or atomic coordinate data resulting 
# from the CCDC's data processing and validation procedures.
#
#######################################################################

data_FIPNOI
_symmetry_cell_setting           monoclinic
_symmetry_space_group_name_H-M   'P 21/c'
_symmetry_Int_Tables_number      14
_space_group_name_Hall           '-P 2ybc'
loop_
_symmetry_equiv_pos_site_id
_symmetry_equiv_pos_as_xyz
1 x,y,z
2 -x,1/2+y,1/2-z
3 -x,-y,-z
4 x,1/2-y,1/2+z
_cell_length_a                   9.2764(4)
_cell_length_b                   14.6665(9)
_cell_length_c                   7.5969(6)
_cell_angle_alpha                90
_cell_angle_beta                 100.370(2)
_cell_angle_gamma                90
_cell_volume                     1016.69
loop_
_atom_site_label
_atom_site_type_symbol
_atom_site_fract_x
_atom_site_fract_y
_atom_site_fract_z
Tm1 Tm 0.27567(3) 0.042177(17) 0.13406(3)
C1 C -0.0324(7) 0.3948(4) 0.0963(7)
H1 H 0.0396 0.4380 0.1363
C2 C 0.0062(6) 0.3068(4) 0.0713(7)
H2 H 0.1046 0.2903 0.0939
C3 C -0.0995(6) 0.2414(4) 0.0128(7)
C4 C -0.2430(7) 0.2713(4) -0.0260(8)
H3 H -0.3166 0.2298 -0.0694
C5 C -0.2798(7) 0.3603(4) -0.0024(8)
H4 H -0.3769 0.3793 -0.0316
C6 C -0.0580(7) 0.1429(4) 0.0007(7)
N1 N -0.1742(5) 0.4194(3) 0.0632(6)
O1 O 0.0748(4) 0.1233(3) 0.0489(5)
O2 O -0.1573(4) 0.0881(3) -0.0577(5)
O3 O -0.2097(4) 0.5045(3) 0.1018(5)
O4 O 0.4371(4) 0.1315(3) 0.0028(4)
O5 O 0.2820(4) 0.0286(3) -0.1734(5)
O6 O 0.5288(4) 0.0452(3) -0.2278(5)
O7 O 0.3590(4) 0.1669(3) -0.3105(5)
O8 O 0.3523(5) 0.1580(3) 0.3309(7)
S1 S 0.40178(16) 0.09367(10) -0.18167(19)
H5 H 0.361(7) 0.209(5) 0.297(8)
H6 H 0.329(10) 0.160(6) 0.434(11)
Tm1B Tm -0.27567(3) -0.042177(17) -0.13406(3)
Tm1A Tm -0.27567(3) 0.542177(17) 0.36594(3)
Tm1B_2 Tm 0.72433(3) -0.042177(17) -0.13406(3)
O2B O 0.1573(4) -0.0881(3) 0.0577(5)
O3A O 0.2097(4) 0.0045(3) 0.3982(5)
O6B O 0.4712(4) -0.0452(3) 0.2278(5)
loop_
_geom_bond_atom_site_label_1
_geom_bond_atom_site_label_2
_geom_bond_site_symmetry_1
_geom_bond_site_symmetry_2
Tm1 O1 1_555 1_555
C1 H1 1_555 1_555
C2 C1 1_555 1_555
H2 C2 1_555 1_555
C3 C2 1_555 1_555
C4 C3 1_555 1_555
H3 C4 1_555 1_555
C5 C4 1_555 1_555
H4 C5 1_555 1_555
C6 C3 1_555 1_555
N1 C1 1_555 1_555
O1 C6 1_555 1_555
O2 C6 1_555 1_555
O3 N1 1_555 1_555
O4 Tm1 1_555 1_555
O5 Tm1 1_555 1_555
O6 S1 1_555 1_555
O7 S1 1_555 1_555
O8 Tm1 1_555 1_555
S1 O4 1_555 1_555
H5 O8 1_555 1_555
H6 O8 1_555 1_555
Tm1B O2 1_555 1_555
Tm1A O3 1_555 1_555
Tm1B_2 O6 1_555 1_555
O2B Tm1 1_555 1_555
O3A Tm1 1_555 1_555
O6B Tm1 1_555 1_555
C5 N1 1_555 1_555
O5 S1 1_555 1_555

#END
