
#######################################################################
#
#                 Cambridge Crystallographic Data Centre
#                                CCDC 
#
#######################################################################
#
# If this CIF has been generated from an entry in the Cambridge 
# Structural Database, then it will include bibliographic, chemical, 
# crystal, experimental, refinement or atomic coordinate data resulting 
# from the CCDC's data processing and validation procedures.
#
#######################################################################

data_FIPNEY
_symmetry_cell_setting           monoclinic
_symmetry_space_group_name_H-M   'P 21/c'
_symmetry_Int_Tables_number      14
_space_group_name_Hall           '-P 2ybc'
loop_
_symmetry_equiv_pos_site_id
_symmetry_equiv_pos_as_xyz
1 x,y,z
2 -x,1/2+y,1/2-z
3 -x,-y,-z
4 x,1/2-y,1/2+z
_cell_length_a                   7.7706(2)
_cell_length_b                   20.6308(7)
_cell_length_c                   6.3439(2)
_cell_angle_alpha                90
_cell_angle_beta                 106.7118(14)
_cell_angle_gamma                90
_cell_volume                     974.059
loop_
_atom_site_label
_atom_site_type_symbol
_atom_site_fract_x
_atom_site_fract_y
_atom_site_fract_z
Sm1 Sm 0.15368(5) 0.429600(16) 0.71054(5)
C1 C -0.1089(11) 0.3285(4) 0.5680(11)
C2 C -0.2428(10) 0.2749(3) 0.5168(11)
C3 C -0.4251(10) 0.2858(4) 0.4543(11)
H1 H -0.4679 0.3281 0.4401
C4 C -0.5461(11) 0.2347(3) 0.4121(12)
H2 H -0.6693 0.2423 0.3701
C5 C -0.1824(10) 0.2098(4) 0.5385(11)
H3 H -0.0600 0.2007 0.5839
C6 C -0.3041(11) 0.1605(3) 0.4926(11)
H4 H -0.2640 0.1178 0.5025
N1 N -0.4801(8) 0.1727(3) 0.4336(9)
O1 O -0.1593(7) 0.3869(2) 0.5462(8)
O2 O 0.0553(8) 0.3146(2) 0.6393(9)
O3 O -0.5921(7) 0.1233(2) 0.3988(8)
O4 O 0.2715(7) 0.4832(2) 1.1240(8)
O5 O 0.0487(7) 0.4024(2) 1.0271(7)
O6 O 0.2642(7) 0.3978(2) 1.3900(8)
O7 O 0.0406(6) 0.4780(2) 1.3164(7)
O8 O 0.3588(9) 0.5159(3) 0.7000(11)
S1 S 0.1594(2) 0.44003(7) 1.2123(3)
H5 H 0.361(16) 0.544(5) 0.670(19)
H6 H 0.501(13) 0.513(4) 0.770(14)
Sm1C Sm -0.84632(5) 0.070400(16) 0.21054(5)
Sm1_2 Sm 0.15368(5) 0.429600(16) 1.71054(5)
Sm1B Sm -0.15368(5) 0.570400(16) 1.28946(5)
O3C O 0.4079(7) 0.3767(2) 0.8988(8)
O6_2 O 0.2642(7) 0.3978(2) 0.3900(8)
O7_2 O 0.0406(6) 0.4780(2) 0.3164(7)
O7B O -0.0406(6) 0.5220(2) 0.6836(7)
loop_
_geom_bond_atom_site_label_1
_geom_bond_atom_site_label_2
_geom_bond_site_symmetry_1
_geom_bond_site_symmetry_2
Sm1 O1 1_555 1_555
C1 C2 1_555 1_555
C2 C3 1_555 1_555
C3 H1 1_555 1_555
C4 C3 1_555 1_555
H2 C4 1_555 1_555
C5 C2 1_555 1_555
H3 C5 1_555 1_555
C6 C5 1_555 1_555
H4 C6 1_555 1_555
N1 C4 1_555 1_555
O1 C1 1_555 1_555
O2 Sm1 1_555 1_555
O3 N1 1_555 1_555
O4 Sm1 1_555 1_555
O5 Sm1 1_555 1_555
O6 S1 1_555 1_555
O7 S1 1_555 1_555
O8 Sm1 1_555 1_555
S1 O4 1_555 1_555
H5 O8 1_555 1_555
H6 O8 1_555 1_555
Sm1C O3 1_555 1_555
Sm1_2 O6 1_555 1_555
Sm1B O7 1_555 1_555
O3C Sm1 1_555 1_555
O6_2 Sm1 1_555 1_555
O7_2 Sm1 1_555 1_555
O7B Sm1 1_555 1_555
C1 O2 1_555 1_555
C6 N1 1_555 1_555
O5 S1 1_555 1_555
O7 Sm1_2 1_555 1_555

#END
