
#######################################################################
#
#                 Cambridge Crystallographic Data Centre
#                                CCDC 
#
#######################################################################
#
# If this CIF has been generated from an entry in the Cambridge 
# Structural Database, then it will include bibliographic, chemical, 
# crystal, experimental, refinement or atomic coordinate data resulting 
# from the CCDC's data processing and validation procedures.
#
#######################################################################

data_FIPPOK
_symmetry_cell_setting           orthorhombic
_symmetry_space_group_name_H-M   'P n a 21'
_symmetry_Int_Tables_number      33
_space_group_name_Hall           'P 2c -2n'
loop_
_symmetry_equiv_pos_site_id
_symmetry_equiv_pos_as_xyz
1 x,y,z
2 -x,-y,1/2+z
3 1/2+x,1/2-y,z
4 1/2-x,1/2+y,1/2+z
_cell_length_a                   18.800(7)
_cell_length_b                   6.540(2)
_cell_length_c                   18.684(7)
_cell_angle_alpha                90
_cell_angle_beta                 90
_cell_angle_gamma                90
_cell_volume                     2297.24
loop_
_atom_site_label
_atom_site_type_symbol
_atom_site_fract_x
_atom_site_fract_y
_atom_site_fract_z
Pr1 Pr 0.02310(2) 0.86364(5) 0.89207(2)
Pr2 Pr 0.255606(18) 0.86238(5) 0.851973(19)
S1 S 0.25959(8) 0.3617(2) 0.85294(13)
O1 O 0.1279(3) 0.7847(8) 0.8022(3)
O2 O 0.0603(3) 0.6826(10) 0.7095(3)
O3 O 0.3549(3) 0.9581(8) 0.7756(3)
O4 O 0.4118(3) 0.9910(10) 0.6713(3)
O5 O -0.1266(3) 0.7345(7) 0.9092(2)
O6 O -0.0475(3) 0.7289(9) 0.9965(3)
O7 O -0.3494(3) 0.5561(8) 0.9286(3)
O8 O -0.4135(3) 0.5261(8) 1.0254(3)
O9 O 0.2965(3) 0.5012(7) 0.8020(3)
O10 O 0.2099(3) 0.2245(7) 0.8155(3)
O11 O 0.2207(3) 0.5026(6) 0.9021(3)
O12 O 0.3093(2) 0.2305(6) 0.8927(4)
O13 O 0.0839(3) 0.5625(8) 0.9496(3)
H1 H 0.1253 0.5169 0.9322
H2 H 0.0664 0.4663 0.9796
O14 O -0.0101(3) 0.5538(8) 0.8223(3)
H3 H 0.0146 0.4454 0.8257
H4 H -0.0463 0.5566 0.7950
O15 O -0.0541(3) 0.9765(8) 0.7917(3)
H5 H -0.0486 1.0942 0.7733
H6 H -0.0862 0.8968 0.7758
O16 O 0.0654(3) 1.1914(8) 0.8422(4)
H7 H 0.1003 1.2528 0.8615
H8 H 0.0450 1.2430 0.8059
O17 O -0.0541(3) 1.1467(8) 0.9409(3)
H9 H -0.0394 1.2200 0.9755
H10 H -0.0948 1.1686 0.9228
N1 N 0.2346(3) 0.8611(9) 0.7124(3)
N2 N -0.2316(3) 0.6262(8) 0.9947(3)
C1 C 0.1146(4) 0.7558(12) 0.7344(4)
C2 C 0.1720(4) 0.8189(10) 0.6838(4)
C3 C 0.1606(4) 0.8258(11) 0.6100(4)
H11 H 0.1156 0.8023 0.5911
C4 C 0.2173(5) 0.8682(11) 0.5660(4)
H12 H 0.2111 0.8723 0.5167
C5 C 0.2827(4) 0.9044(11) 0.5952(5)
H13 H 0.3216 0.9294 0.5658
C6 C 0.2905(4) 0.9037(11) 0.6689(4)
C7 C 0.3581(4) 0.9558(12) 0.7070(4)
C8 C -0.1102(4) 0.7123(11) 0.9745(4)
C9 C -0.1688(4) 0.6621(10) 1.0260(4)
C10 C -0.1604(4) 0.6680(11) 1.0994(4)
H14 H -0.1159 0.6937 1.1192
C11 C -0.2188(4) 0.6350(11) 1.1434(4)
H15 H -0.2142 0.6388 1.1929
C12 C -0.2845(4) 0.5963(11) 1.1117(4)
H16 H -0.3247 0.5743 1.1395
C13 C -0.2885(4) 0.5913(10) 1.0367(4)
C14 C -0.3553(4) 0.5526(11) 0.9975(4)
Pr1B Pr -0.47690(2) 0.63636(5) 0.89207(2)
Pr2B Pr -0.244394(18) 0.63762(5) 0.851973(19)
Pr2_2 Pr 0.255606(18) -0.13762(5) 0.851973(19)
O5B O 0.3734(3) 0.7655(7) 0.9092(2)
O7B O 0.1506(3) 0.9439(8) 0.9286(3)
O10_2 O 0.2099(3) 1.2245(7) 0.8155(3)
O12_2 O 0.3093(2) 1.2305(6) 0.8927(4)
N2B N 0.2684(3) 0.8738(8) 0.9947(3)
O18 O 0.5120(4) 0.6511(11) 0.1644(4)
O19 O 0.5076(4) 0.1517(10) 0.0540(3)
loop_
_geom_bond_atom_site_label_1
_geom_bond_atom_site_label_2
_geom_bond_site_symmetry_1
_geom_bond_site_symmetry_2
Pr1 O1 1_555 1_555
Pr2 O1 1_555 1_555
S1 O9 1_555 1_555
O1 C1 1_555 1_555
O2 C1 1_555 1_555
O3 Pr2 1_555 1_555
O4 C7 1_555 1_555
O5 C8 1_555 1_555
O6 Pr1 1_555 1_555
O7 C14 1_555 1_555
O8 C14 1_555 1_555
O9 Pr2 1_555 1_555
O10 S1 1_555 1_555
O11 Pr2 1_555 1_555
O12 S1 1_555 1_555
O13 Pr1 1_555 1_555
H1 O13 1_555 1_555
H2 O13 1_555 1_555
O14 Pr1 1_555 1_555
H3 O14 1_555 1_555
H4 O14 1_555 1_555
O15 Pr1 1_555 1_555
H5 O15 1_555 1_555
H6 O15 1_555 1_555
O16 Pr1 1_555 1_555
H7 O16 1_555 1_555
H8 O16 1_555 1_555
O17 Pr1 1_555 1_555
H9 O17 1_555 1_555
H10 O17 1_555 1_555
N1 Pr2 1_555 1_555
N2 C9 1_555 1_555
C1 C2 1_555 1_555
C2 N1 1_555 1_555
C3 C2 1_555 1_555
H11 C3 1_555 1_555
C4 C3 1_555 1_555
H12 C4 1_555 1_555
C5 C4 1_555 1_555
H13 C5 1_555 1_555
C6 N1 1_555 1_555
C7 O3 1_555 1_555
C8 O6 1_555 1_555
C9 C8 1_555 1_555
C10 C9 1_555 1_555
H14 C10 1_555 1_555
C11 C10 1_555 1_555
H15 C11 1_555 1_555
C12 C11 1_555 1_555
H16 C12 1_555 1_555
C13 N2 1_555 1_555
C14 C13 1_555 1_555
Pr1B O7 1_555 1_555
Pr2B O5 1_555 1_555
Pr2_2 O10 1_555 1_555
O5B Pr2 1_555 1_555
O7B Pr1 1_555 1_555
O10_2 Pr2 1_555 1_555
O12_2 Pr2 1_555 1_555
N2B Pr2 1_555 1_555
Pr2 O7B 1_555 1_555
S1 O11 1_555 1_555
O7 Pr2B 1_555 1_555
O12 Pr2_2 1_555 1_555
N2 Pr2B 1_555 1_555
C5 C6 1_555 1_555
C6 C7 1_555 1_555
C12 C13 1_555 1_555

#END
