
#######################################################################
#
#                 Cambridge Crystallographic Data Centre
#                                CCDC 
#
#######################################################################
#
# If this CIF has been generated from an entry in the Cambridge 
# Structural Database, then it will include bibliographic, chemical, 
# crystal, experimental, refinement or atomic coordinate data resulting 
# from the CCDC's data processing and validation procedures.
#
#######################################################################

data_FIPPEA
_symmetry_cell_setting           monoclinic
_symmetry_space_group_name_H-M   'P 21/c'
_symmetry_Int_Tables_number      14
_space_group_name_Hall           '-P 2ybc'
loop_
_symmetry_equiv_pos_site_id
_symmetry_equiv_pos_as_xyz
1 x,y,z
2 -x,1/2+y,1/2-z
3 -x,-y,-z
4 x,1/2-y,1/2+z
_cell_length_a                   11.009(3)
_cell_length_b                   17.546(5)
_cell_length_c                   13.489(4)
_cell_angle_alpha                90
_cell_angle_beta                 101.022(4)
_cell_angle_gamma                90
_cell_volume                     2557.52
loop_
_atom_site_label
_atom_site_type_symbol
_atom_site_fract_x
_atom_site_fract_y
_atom_site_fract_z
Pr1 Pr 0.827812(18) 0.042215(12) 0.908820(16)
Pr2 Pr 0.343225(19) 0.259558(12) 0.907026(15)
N1 N 0.8743(3) 0.12128(19) 0.7567(2)
C1 C 0.8463(4) 0.1043(2) 1.1610(3)
O1 O 0.5599(3) 0.24083(17) 0.9281(3)
O2 O 0.9519(2) 0.01017(16) 1.0848(2)
O3 O 0.9846(2) 0.15027(16) 0.9436(2)
O4 O 1.0065(3) 0.0275(2) 1.2503(2)
O5 O 0.6757(3) 0.14908(17) 0.8793(2)
N2 N 0.7878(3) 0.12068(18) 1.0665(3)
O6 O 1.1347(3) 0.2156(2) 0.8930(3)
C2 C 0.9413(4) 0.0426(2) 1.1685(3)
C3 C 1.0045(4) 0.2065(3) 0.6875(4)
H1 H 1.0713 0.2400 0.6976
C4 C 0.9695(4) 0.1699(2) 0.7681(3)
O7 O 0.6533(2) -0.01351(16) 0.9745(2)
C5 C 0.8108(4) 0.1070(2) 0.6636(3)
C6 C 1.0351(4) 0.1795(2) 0.8767(3)
O8 O 0.2024(3) 0.3673(2) 0.8376(3)
O9 O 0.6279(3) -0.13956(16) 0.9867(2)
C7 C 0.6350(4) -0.0728(2) 1.0211(3)
C8 C 0.6250(3) -0.0646(2) 1.1312(3)
C9 C 0.8180(4) 0.1410(3) 1.2448(3)
H2 H 0.8610 0.1296 1.3094
C10 C 0.6397(4) 0.1883(2) 0.9446(3)
C11 C 0.7255(5) 0.1945(3) 1.2308(4)
H3 H 0.7043 0.2192 1.2861
C12 C 0.8393(4) 0.1419(3) 0.5797(3)
H4 H 0.7930 0.1319 0.5158
C13 C 0.9387(5) 0.1926(3) 0.5919(4)
H5 H 0.9601 0.2165 0.5362
C14 C 0.6640(4) 0.2115(3) 1.1342(4)
H6 H 0.6003 0.2472 1.1234
C15 C 0.6990(3) 0.1747(2) 1.0544(3)
C16 C 0.6000(4) 0.0032(2) 1.1740(3)
H7 H 0.5852 0.0472 1.1352
C17 C 0.5970(5) 0.0046(3) 1.2767(4)
H8 H 0.5800 0.0497 1.3077
O10 O 0.6442(3) 0.03338(19) 0.5750(2)
O11 O 0.7065(3) 0.01259(17) 0.7398(2)
C18 C 0.7114(4) 0.0472(2) 0.6584(3)
N3 N 0.6431(3) -0.13003(19) 1.1831(2)
C19 C 0.6417(4) -0.1285(2) 1.2824(3)
C20 C 0.6198(4) -0.0617(3) 1.3315(3)
H9 H 0.6205 -0.0618 1.4006
C21 C 0.6632(4) -0.2044(3) 1.3334(3)
O12 O 0.6722(3) -0.20495(19) 1.4276(2)
O13 O 0.6721(3) -0.26133(17) 1.2791(2)
O14 O 0.4587(3) 0.38815(16) 0.9290(2)
O15 O 0.8329(2) -0.10524(17) 0.8926(2)
Pr1B Pr 1.172188(18) -0.042215(12) 1.091180(16)
Pr2_2 Pr 1.343225(19) 0.259558(12) 0.907026(15)
Pr2B Pr 0.656775(19) -0.259558(12) 1.092974(15)
Pr2A Pr 0.656775(19) -0.240442(12) 1.592974(15)
O2B O 1.0481(2) -0.01017(16) 0.9152(2)
O6_2 O 0.1347(3) 0.2156(2) 0.8930(3)
O9B O 0.3721(3) 0.13956(16) 1.0133(2)
N3B N 0.3569(3) 0.13003(19) 0.8169(2)
O12A O 0.3278(3) 0.29505(19) 1.0724(2)
O13B O 0.3279(3) 0.26133(17) 0.7209(2)
O16 O 0.0621(14) 0.0528(7) 0.4771(14)
loop_
_geom_bond_atom_site_label_1
_geom_bond_atom_site_label_2
_geom_bond_site_symmetry_1
_geom_bond_site_symmetry_2
Pr1 N1 1_555 1_555
Pr2 O1 1_555 1_555
N1 C4 1_555 1_555
C1 N2 1_555 1_555
O1 C10 1_555 1_555
O2 Pr1 1_555 1_555
O3 Pr1 1_555 1_555
O4 C2 1_555 1_555
O5 Pr1 1_555 1_555
N2 Pr1 1_555 1_555
O6 C6 1_555 1_555
C2 C1 1_555 1_555
C3 H1 1_555 1_555
C4 C3 1_555 1_555
O7 Pr1 1_555 1_555
C5 N1 1_555 1_555
C6 O3 1_555 1_555
O8 Pr2 1_555 1_555
O9 C7 1_555 1_555
C7 O7 1_555 1_555
C8 C7 1_555 1_555
C9 C1 1_555 1_555
H2 C9 1_555 1_555
C10 O5 1_555 1_555
C11 C9 1_555 1_555
H3 C11 1_555 1_555
C12 C5 1_555 1_555
H4 C12 1_555 1_555
C13 C3 1_555 1_555
H5 C13 1_555 1_555
C14 C11 1_555 1_555
H6 C14 1_555 1_555
C15 N2 1_555 1_555
C16 C8 1_555 1_555
H7 C16 1_555 1_555
C17 C16 1_555 1_555
H8 C17 1_555 1_555
O10 C18 1_555 1_555
O11 Pr1 1_555 1_555
C18 C5 1_555 1_555
N3 C8 1_555 1_555
C19 N3 1_555 1_555
C20 C17 1_555 1_555
H9 C20 1_555 1_555
C21 C19 1_555 1_555
O12 C21 1_555 1_555
O13 C21 1_555 1_555
O14 Pr2 1_555 1_555
O15 Pr1 1_555 1_555
Pr1B O2 1_555 1_555
Pr2_2 O6 1_555 1_555
Pr2B O9 1_555 1_555
Pr2A O12 1_555 1_555
O2B Pr1 1_555 1_555
O6_2 Pr2 1_555 1_555
O9B Pr2 1_555 1_555
N3B Pr2 1_555 1_555
O12A Pr2 1_555 1_555
O13B Pr2 1_555 1_555
O2 C2 1_555 1_555
C4 C6 1_555 1_555
C10 C15 1_555 1_555
C12 C13 1_555 1_555
C14 C15 1_555 1_555
O11 C18 1_555 1_555
N3 Pr2B 1_555 1_555
C19 C20 1_555 1_555
O13 Pr2B 1_555 1_555
Pr1B O2B 1_555 1_555

#END
