
#######################################################################
#
#                 Cambridge Crystallographic Data Centre
#                                CCDC 
#
#######################################################################
#
# If this CIF has been generated from an entry in the Cambridge 
# Structural Database, then it will include bibliographic, chemical, 
# crystal, experimental, refinement or atomic coordinate data resulting 
# from the CCDC's data processing and validation procedures.
#
#######################################################################

data_FIPPEA01
_symmetry_cell_setting           monoclinic
_symmetry_space_group_name_H-M   'P 21/c'
_symmetry_Int_Tables_number      14
_space_group_name_Hall           '-P 2ybc'
loop_
_symmetry_equiv_pos_site_id
_symmetry_equiv_pos_as_xyz
1 x,y,z
2 -x,1/2+y,1/2-z
3 -x,-y,-z
4 x,1/2-y,1/2+z
_cell_length_a                   11.00150(18)
_cell_length_b                   17.5234(3)
_cell_length_c                   13.4699(2)
_cell_angle_alpha                90
_cell_angle_beta                 100.9506(17)
_cell_angle_gamma                90
_cell_volume                     2549.49
loop_
_atom_site_label
_atom_site_type_symbol
_atom_site_fract_x
_atom_site_fract_y
_atom_site_fract_z
Pr1 Pr 0.656773(15) 0.259443(9) 0.593044(12)
Pr2 Pr 1.172098(15) 0.042205(9) 0.591498(12)
N1 N 0.6429(2) 0.12971(14) 0.68284(18)
N2 N 1.1256(2) 0.12088(14) 0.74412(19)
N3 N 0.2118(2) 0.12133(13) 0.43381(19)
C1 C 0.6636(3) 0.2042(2) 0.8337(2)
C2 C 0.6412(3) 0.12838(18) 0.7821(2)
C3 C 0.6198(3) 0.0616(2) 0.8315(3)
H1 H 0.6204 0.0617 0.9007
C4 C 0.5976(4) -0.0047(2) 0.7765(3)
H2 H 0.5809 -0.0499 0.8076
C5 C 0.6005(3) -0.00333(18) 0.6740(3)
H3 H 0.5859 -0.0475 0.6353
C6 C 0.6253(3) 0.06471(17) 0.6305(2)
C7 C 0.6351(3) 0.07295(18) 0.5213(2)
C8 C 0.9649(3) 0.17941(18) 0.6236(2)
C9 C 1.0301(3) 0.16937(18) 0.7322(3)
C10 C 0.9947(3) 0.2057(2) 0.8131(3)
H4 H 0.9280 0.2393 0.8031
C11 C 1.0604(4) 0.1911(2) 0.9095(3)
H5 H 1.0385 0.2149 0.9653
C12 C 1.1587(3) 0.1410(2) 0.9220(3)
H6 H 1.2042 0.1306 0.9860
C13 C 1.1886(3) 0.10645(17) 0.8370(2)
C14 C 1.2886(3) 0.04656(18) 0.8420(3)
C15 C 0.0584(3) 0.04257(18) 0.3313(3)
C16 C 0.1538(3) 0.10410(18) 0.3393(2)
C17 C 0.1815(3) 0.14086(19) 0.2553(3)
H7 H 0.1386 0.1291 0.1908
C18 C 0.2740(3) 0.1954(2) 0.2690(3)
H8 H 0.2946 0.2207 0.2139
C19 C 0.3353(3) 0.21170(19) 0.3661(3)
H9 H 0.3990 0.2474 0.3771
C20 C 0.3008(3) 0.17443(17) 0.4458(3)
C21 C 0.3598(3) 0.18835(17) 0.5552(3)
O1 O 0.6728(3) 0.20523(13) 0.92774(17)
O2 O 0.6722(2) 0.26116(12) 0.77911(16)
O3 O 0.6279(2) 0.13942(12) 0.48662(16)
O4 O 0.6531(2) 0.01355(12) 0.47412(16)
O5 O 0.8653(2) 0.21519(15) 0.60726(19)
O6 O 1.01559(19) 0.15033(12) 0.55692(16)
O7 O 1.2930(2) 0.01220(12) 0.76054(17)
O8 O 1.3556(2) 0.03311(14) 0.92548(18)
O9 O -0.0064(3) 0.02692(16) 0.24965(19)
O10 O 0.04793(19) 0.01008(12) 0.41529(16)
O11 O 0.4403(2) 0.24043(13) 0.5721(2)
O12 O 0.3238(2) 0.14907(13) 0.62113(17)
O13 O 1.16651(19) -0.10448(12) 0.60823(16)
H10 H 1.1072 -0.1306 0.5754
H11 H 1.2326 -0.1302 0.6112
O14 O 0.7966(2) 0.36632(14) 0.6614(2)
H12 H 0.8425 0.3809 0.6209
H13 H 0.8109 0.4001 0.7074
O15 O 0.5421(2) 0.38680(12) 0.57151(17)
H14 H 0.4718 0.3969 0.5355
H15 H 0.5806 0.4291 0.5787
Pr1C Pr 0.656773(15) 0.240557(9) 1.093044(12)
Pr2_2 Pr 0.172098(15) 0.042205(9) 0.591498(12)
Pr2B Pr 0.827902(15) -0.042205(9) 0.408502(12)
Pr2B_2 Pr -0.172098(15) -0.042205(9) 0.408502(12)
N3_2 N 1.2118(2) 0.12133(13) 0.43381(19)
O1C O 0.6728(3) 0.29477(13) 0.42774(17)
O4B O 1.3469(2) -0.01355(12) 0.52588(16)
O10B O 0.95207(19) -0.01008(12) 0.58471(16)
O10_2 O 1.04793(19) 0.01008(12) 0.41529(16)
O12_2 O 1.3238(2) 0.14907(13) 0.62113(17)
O16 O 0.9324(11) 0.4462(5) 0.5264(11)
H16 H 0.9935 0.4275 0.5674
H17 H 0.8862 0.4687 0.5610
loop_
_geom_bond_atom_site_label_1
_geom_bond_atom_site_label_2
_geom_bond_site_symmetry_1
_geom_bond_site_symmetry_2
Pr1 N1 1_555 1_555
Pr2 N2 1_555 1_555
N1 C2 1_555 1_555
N2 C9 1_555 1_555
N3 C16 1_555 1_555
C1 C2 1_555 1_555
C2 C3 1_555 1_555
C3 H1 1_555 1_555
C4 C3 1_555 1_555
H2 C4 1_555 1_555
C5 C4 1_555 1_555
H3 C5 1_555 1_555
C6 N1 1_555 1_555
C7 C6 1_555 1_555
C8 C9 1_555 1_555
C9 C10 1_555 1_555
C10 H4 1_555 1_555
C11 C10 1_555 1_555
H5 C11 1_555 1_555
C12 C11 1_555 1_555
H6 C12 1_555 1_555
C13 N2 1_555 1_555
C14 C13 1_555 1_555
C15 C16 1_555 1_555
C16 C17 1_555 1_555
C17 H7 1_555 1_555
C18 C17 1_555 1_555
H8 C18 1_555 1_555
C19 C18 1_555 1_555
H9 C19 1_555 1_555
C20 N3 1_555 1_555
C21 C20 1_555 1_555
O1 C1 1_555 1_555
O2 Pr1 1_555 1_555
O3 Pr1 1_555 1_555
O4 C7 1_555 1_555
O5 Pr1 1_555 1_555
O6 Pr2 1_555 1_555
O7 Pr2 1_555 1_555
O8 C14 1_555 1_555
O9 C15 1_555 1_555
O10 C15 1_555 1_555
O11 Pr1 1_555 1_555
O12 C21 1_555 1_555
O13 Pr2 1_555 1_555
H10 O13 1_555 1_555
H11 O13 1_555 1_555
O14 Pr1 1_555 1_555
H12 O14 1_555 1_555
H13 O14 1_555 1_555
O15 Pr1 1_555 1_555
H14 O15 1_555 1_555
H15 O15 1_555 1_555
O16 H16 1_555 1_555
H17 O16 1_555 1_555
Pr1C O1 1_555 1_555
Pr2_2 N3 1_555 1_555
Pr2B O4 1_555 1_555
Pr2B_2 O10 1_555 1_555
N3_2 Pr2 1_555 1_555
O1C Pr1 1_555 1_555
O4B Pr2 1_555 1_555
O10B Pr2 1_555 1_555
O10_2 Pr2 1_555 1_555
O12_2 Pr2 1_555 1_555
C1 O2 1_555 1_555
C5 C6 1_555 1_555
C7 O3 1_555 1_555
C8 O5 1_555 1_555
C8 O6 1_555 1_555
C12 C13 1_555 1_555
C14 O7 1_555 1_555
C19 C20 1_555 1_555
C21 O11 1_555 1_555
O10 Pr2_2 1_555 1_555
O12 Pr2_2 1_555 1_555
Pr2B O10B 1_555 1_555
Pr2B O10_2 1_555 1_555

#END
