
#######################################################################
#
#                 Cambridge Crystallographic Data Centre
#                                CCDC 
#
#######################################################################
#
# If this CIF has been generated from an entry in the Cambridge 
# Structural Database, then it will include bibliographic, chemical, 
# crystal, experimental, refinement or atomic coordinate data resulting 
# from the CCDC's data processing and validation procedures.
#
#######################################################################

data_FIPVEH
_symmetry_cell_setting           triclinic
_symmetry_space_group_name_H-M   'P -1'
_symmetry_Int_Tables_number      2
_space_group_name_Hall           '-P 1'
loop_
_symmetry_equiv_pos_site_id
_symmetry_equiv_pos_as_xyz
1 x,y,z
2 -x,-y,-z
_cell_length_a                   11.8703(16)
_cell_length_b                   13.3143(18)
_cell_length_c                   15.472(2)
_cell_angle_alpha                98.700(3)
_cell_angle_beta                 111.450(3)
_cell_angle_gamma                93.803(4)
_cell_volume                     2229.97
loop_
_atom_site_label
_atom_site_type_symbol
_atom_site_fract_x
_atom_site_fract_y
_atom_site_fract_z
C1 C 0.5940(3) 0.3522(3) 0.7817(2)
C2 C 0.6975(3) 0.3356(3) 0.7639(2)
H1 H 0.7380 0.3876 0.7479
C3 C 0.7419(3) 0.2419(3) 0.7695(2)
C4 C 0.6798(4) 0.1661(3) 0.7940(3)
H2 H 0.7085 0.1029 0.7978
C5 C 0.5769(3) 0.1816(3) 0.8129(2)
C6 C 0.5352(3) 0.2753(3) 0.8041(2)
H3 H 0.4639 0.2862 0.8139
C7 C 0.5208(3) 0.0990(3) 0.8479(3)
H4 H 0.4360 0.1081 0.8343
H5 H 0.5217 0.0331 0.8117
C8 C 0.5780(3) 0.0951(2) 0.9469(2)
C9 C 0.6631(3) 0.0283(3) 0.9775(3)
H6 H 0.6844 -0.0144 0.9342
C10 C 0.7164(3) 0.0260(3) 1.0741(2)
C11 C 0.6839(3) 0.0872(3) 1.1372(3)
H7 H 0.7168 0.0828 1.2009
C12 C 0.6020(3) 0.1563(3) 1.1072(3)
C13 C 0.5510(3) 0.1624(2) 1.0127(2)
H8 H 0.4992 0.2109 0.9931
C14 C 0.8570(3) 0.2258(3) 0.7518(2)
C15 C 0.5479(4) 0.4547(3) 0.7734(3)
C16 C 0.8049(3) -0.0499(3) 1.1064(3)
C17 C 0.5642(3) 0.2234(3) 1.1753(2)
C18 C 0.9818(4) 0.1826(3) 0.5644(3)
H9 H 0.9178 0.2188 0.5654
C19 C 1.1419(4) 0.1019(3) 0.6068(3)
H10 H 1.2075 0.0729 0.6439
C20 C 1.1077(4) 0.0999(3) 0.5112(3)
H11 H 1.1449 0.0705 0.4719
C21 C 0.9350(4) 0.1689(3) 0.3902(3)
H12 H 0.8485 0.1566 0.3773
H13 H 0.9519 0.1213 0.3438
C22 C 0.9682(4) 0.2779(3) 0.3818(3)
C23 C 0.8808(4) 0.3459(3) 0.3694(3)
H14 H 0.8024 0.3252 0.3655
C24 C 0.9159(4) 0.4464(3) 0.3631(3)
H15 H 0.8599 0.4933 0.3548
C25 C 1.0301(4) 0.4759(4) 0.3689(3)
H16 H 1.0497 0.5431 0.3642
C26 C 1.1207(4) 0.4106(3) 0.3814(3)
C27 C 1.3808(3) 0.5204(3) 0.5513(3)
H17 H 1.3950 0.4590 0.5726
C28 C 1.3195(4) 0.6293(3) 0.4622(3)
H18 H 1.2819 0.6592 0.4100
C29 C 1.3879(4) 0.6781(3) 0.5468(3)
H19 H 1.4078 0.7489 0.5646
C30 C 0.8007(3) 0.8901(3) 0.7774(2)
H20 H 0.8301 0.9545 0.7721
C31 C 0.6824(3) 0.8437(3) 0.7356(3)
H21 H 0.6170 0.8717 0.6971
C32 C 0.7884(4) 0.7411(3) 0.8145(3)
H22 H 0.8103 0.6835 0.8409
C33 C 0.9991(4) 0.8462(3) 0.8865(3)
H23 H 1.0132 0.9027 0.9385
H24 H 1.0427 0.8669 0.8485
C34 C 1.0487(4) 0.7526(3) 0.9260(3)
C35 C 1.1305(3) 0.7035(3) 0.8960(3)
H25 H 1.1537 0.7258 0.8501
C36 C 1.1786(3) 0.6195(3) 0.9352(3)
C37 C 1.1405(4) 0.5850(3) 0.9997(3)
H26 H 1.1688 0.5273 1.0234
C38 C 1.0599(4) 0.6353(3) 1.0300(3)
H27 H 1.0353 0.6113 1.0746
C39 C 1.0144(4) 0.7213(3) 0.9954(3)
H28 H 0.9627 0.7564 1.0182
C40 C 1.2735(3) 0.5719(2) 0.9031(3)
H29 H 1.2617 0.5837 0.8402
H30 H 1.3549 0.6033 0.9458
C41 C 1.3295(3) 0.4112(3) 0.9703(3)
H31 H 1.3966 0.4389 1.0254
C42 C 1.1750(3) 0.3933(2) 0.8358(2)
H32 H 1.1181 0.4098 0.7818
C43 C 1.2783(4) 0.3136(3) 0.9390(3)
H33 H 1.3065 0.2609 0.9711
C44 C 1.0831(4) 0.3111(3) 0.3863(3)
H34 H 1.1389 0.2641 0.3930
C45 C 1.2445(3) 0.4418(3) 0.3846(3)
H35 H 1.2894 0.3833 0.3903
H36 H 1.2374 0.4628 0.3257
Co1 Co 1.06985(4) 0.17078(4) 0.77276(3)
Co2 Co 0.53277(5) 0.64740(4) 0.74348(4)
N1 N 1.0624(3) 0.1544(2) 0.6394(2)
N2 N 1.0061(3) 0.1510(2) 0.4864(2)
N3 N 1.3124(3) 0.5253(2) 0.4630(2)
N4 N 1.4261(3) 0.6099(2) 0.6053(2)
N5 N 0.6758(3) 0.7501(2) 0.7595(2)
N6 N 0.8675(3) 0.8242(2) 0.8282(2)
N7 N 1.1791(3) 0.2988(2) 0.85445(19)
N8 N 1.2605(3) 0.4607(2) 0.9025(2)
O1 O 0.9083(2) 0.29044(19) 0.72459(19)
O2 O 0.9017(2) 0.14183(19) 0.76950(18)
O3 O 0.6214(2) 0.5269(2) 0.77023(19)
O4 O 0.4451(3) 0.4649(2) 0.7672(2)
O5 O 0.8448(2) -0.09803(19) 1.05237(18)
O6 O 0.8357(2) -0.0578(2) 1.19269(18)
O7 O 0.5106(3) 0.2999(2) 1.14810(19)
O8 O 0.5826(2) 0.20363(19) 1.25370(18)
Co1A Co 0.93015(4) -0.17078(4) 1.22724(3)
Co2_2 Co 1.53277(5) 0.64740(4) 0.74348(4)
Co2A Co 0.46723(5) 0.35260(4) 1.25652(4)
N4_2 N 0.4261(3) 0.6099(2) 0.6053(2)
O6A O 1.1643(2) 0.0578(2) 0.80731(18)
O7A O 0.4894(3) 0.7001(2) 0.85190(19)
O9 O 0.3462(6) 0.9360(5) 0.6206(5)
H37 H 0.3776 0.9703 0.6768
H38 H 0.3921 0.9505 0.5918
O10 O 0.2800(3) 0.3289(2) 0.6299(2)
H39 H 0.3173 0.3555 0.6881
H40 H 0.2227 0.2832 0.6239
O11 O 0.6278(9) 0.0569(7) 0.5516(7)
H41 H 0.6045 0.0728 0.5970
H42 H 0.5716 0.0167 0.5060
O12 O 0.4305(9) 0.1766(7) 0.5498(7)
H43 H 0.4739 0.1568 0.5189
H44 H 0.3642 0.1922 0.5124
loop_
_geom_bond_atom_site_label_1
_geom_bond_atom_site_label_2
_geom_bond_site_symmetry_1
_geom_bond_site_symmetry_2
C1 C2 1_555 1_555
C2 H1 1_555 1_555
C3 C2 1_555 1_555
C4 C3 1_555 1_555
H2 C4 1_555 1_555
C5 C4 1_555 1_555
C6 C1 1_555 1_555
H3 C6 1_555 1_555
C7 C5 1_555 1_555
H4 C7 1_555 1_555
H5 C7 1_555 1_555
C8 C7 1_555 1_555
C9 C8 1_555 1_555
H6 C9 1_555 1_555
C10 C9 1_555 1_555
C11 C10 1_555 1_555
H7 C11 1_555 1_555
C12 C11 1_555 1_555
C13 C8 1_555 1_555
H8 C13 1_555 1_555
C14 C3 1_555 1_555
C15 C1 1_555 1_555
C16 C10 1_555 1_555
C17 C12 1_555 1_555
C18 H9 1_555 1_555
C19 H10 1_555 1_555
C20 C19 1_555 1_555
H11 C20 1_555 1_555
C21 H12 1_555 1_555
H13 C21 1_555 1_555
C22 C21 1_555 1_555
C23 C22 1_555 1_555
H14 C23 1_555 1_555
C24 C23 1_555 1_555
H15 C24 1_555 1_555
C25 C24 1_555 1_555
H16 C25 1_555 1_555
C26 C25 1_555 1_555
C27 H17 1_555 1_555
C28 H18 1_555 1_555
C29 C28 1_555 1_555
H19 C29 1_555 1_555
C30 H20 1_555 1_555
C31 C30 1_555 1_555
H21 C31 1_555 1_555
C32 H22 1_555 1_555
C33 H23 1_555 1_555
H24 C33 1_555 1_555
C34 C33 1_555 1_555
C35 C34 1_555 1_555
H25 C35 1_555 1_555
C36 C35 1_555 1_555
C37 C36 1_555 1_555
H26 C37 1_555 1_555
C38 C37 1_555 1_555
H27 C38 1_555 1_555
C39 C34 1_555 1_555
H28 C39 1_555 1_555
C40 C36 1_555 1_555
H29 C40 1_555 1_555
H30 C40 1_555 1_555
C41 H31 1_555 1_555
C42 H32 1_555 1_555
C43 C41 1_555 1_555
H33 C43 1_555 1_555
C44 C22 1_555 1_555
H34 C44 1_555 1_555
C45 C26 1_555 1_555
H35 C45 1_555 1_555
H36 C45 1_555 1_555
Co1 N1 1_555 1_555
Co2 N5 1_555 1_555
N1 C18 1_555 1_555
N2 C18 1_555 1_555
N3 C27 1_555 1_555
N4 C27 1_555 1_555
N5 C31 1_555 1_555
N6 C30 1_555 1_555
N7 C42 1_555 1_555
N8 C40 1_555 1_555
O1 C14 1_555 1_555
O2 C14 1_555 1_555
O3 C15 1_555 1_555
O4 C15 1_555 1_555
O5 C16 1_555 1_555
O6 C16 1_555 1_555
O7 C17 1_555 1_555
O8 C17 1_555 1_555
O9 H37 1_555 1_555
H38 O9 1_555 1_555
O10 H39 1_555 1_555
H40 O10 1_555 1_555
O11 H41 1_555 1_555
H42 O11 1_555 1_555
O12 H43 1_555 1_555
H44 O12 1_555 1_555
Co1A O6 1_555 1_555
Co2_2 N4 1_555 1_555
Co2A O7 1_555 1_555
N4_2 Co2 1_555 1_555
O6A Co1 1_555 1_555
O7A Co2 1_555 1_555
C5 C6 1_555 1_555
C12 C13 1_555 1_555
C19 N1 1_555 1_555
C20 N2 1_555 1_555
C21 N2 1_555 1_555
C26 C44 1_555 1_555
C28 N3 1_555 1_555
C29 N4 1_555 1_555
C32 N5 1_555 1_555
C32 N6 1_555 1_555
C33 N6 1_555 1_555
C38 C39 1_555 1_555
C41 N8 1_555 1_555
C42 N8 1_555 1_555
C43 N7 1_555 1_555
C45 N3 1_555 1_555
Co1 N7 1_555 1_555
Co1 O2 1_555 1_555
Co2 O3 1_555 1_555

#END
