
#######################################################################
#
#                 Cambridge Crystallographic Data Centre
#                                CCDC 
#
#######################################################################
#
# If this CIF has been generated from an entry in the Cambridge 
# Structural Database, then it will include bibliographic, chemical, 
# crystal, experimental, refinement or atomic coordinate data resulting 
# from the CCDC's data processing and validation procedures.
#
#######################################################################

data_FIQBOX
_symmetry_cell_setting           triclinic
_symmetry_space_group_name_H-M   'P -1'
_symmetry_Int_Tables_number      2
_space_group_name_Hall           '-P 1'
loop_
_symmetry_equiv_pos_site_id
_symmetry_equiv_pos_as_xyz
1 x,y,z
2 -x,-y,-z
_cell_length_a                   7.5493(8)
_cell_length_b                   9.7860(10)
_cell_length_c                   13.1480(10)
_cell_angle_alpha                69.7530(10)
_cell_angle_beta                 80.5420(10)
_cell_angle_gamma                71.3400(10)
_cell_volume                     861.845
loop_
_atom_site_label
_atom_site_type_symbol
_atom_site_fract_x
_atom_site_fract_y
_atom_site_fract_z
Pb1 Pb 0.86322(2) 0.10532(2) 0.347340(10)
O1 O 0.6325(4) 0.3924(4) 0.2951(3)
O2 O 0.8649(4) 0.3125(3) 0.4029(3)
O3 O 0.1768(5) 0.9947(3) 0.4192(3)
O4 O 0.1398(5) 0.8829(4) 0.3071(3)
N1 N 1.0689(5) 0.2409(4) 0.2042(3)
N2 N 0.8216(5) 0.1387(4) 0.1402(3)
C1 C 1.1888(7) 0.2907(6) 0.2344(5)
C2 C 1.3110(8) 0.3628(7) 0.1608(6)
C3 C 1.3093(9) 0.3834(7) 0.0546(6)
C4 C 1.1872(8) 0.3314(6) 0.0186(5)
C5 C 1.1790(10) 0.3475(8) -0.0923(5)
C6 C 1.0600(10) 0.2971(8) -0.1231(5)
C7 C 0.9342(8) 0.2266(6) -0.0462(4)
C8 C 0.8083(11) 0.1723(8) -0.0770(6)
C9 C 0.6961(10) 0.1034(8) -0.0001(6)
C10 C 0.7055(8) 0.0876(7) 0.1093(5)
C11 C 0.9368(7) 0.2072(5) 0.0635(4)
C12 C 1.0663(6) 0.2613(5) 0.0979(4)
C13 C 0.7223(6) 0.4116(5) 0.3577(3)
C14 C 0.6634(6) 0.5598(5) 0.3802(3)
C15 C 0.7887(6) 0.5989(5) 0.4242(4)
C16 C 0.7377(7) 0.7313(6) 0.4500(4)
C17 C 0.5580(7) 0.8265(5) 0.4335(4)
C18 C 0.4316(6) 0.7911(5) 0.3884(3)
C19 C 0.4856(6) 0.6585(5) 0.3611(3)
C20 C 0.2362(6) 0.8950(5) 0.3704(4)
H1 H 1.1915 0.2770 0.3078
H2 H 1.3933 0.3964 0.1850
H3 H 1.3898 0.4324 0.0050
H4 H 1.2586 0.3943 -0.1444
H5 H 1.0581 0.3081 -0.1962
H6 H 0.8021 0.1837 -0.1497
H7 H 0.6121 0.0662 -0.0194
H8 H 0.6271 0.0394 0.1615
H9 H 0.9094 0.5341 0.4362
H10 H 0.8234 0.7566 0.4784
H11 H 0.5215 0.9149 0.4528
H12 H 0.4015 0.6355 0.3297
Pb1_2 Pb -0.13678(2) 1.10532(2) 0.347340(10)
Pb1A Pb 0.13678(2) 0.89468(2) 0.652660(10)
O3_2 O 1.1768(5) -0.0053(3) 0.4192(3)
O3A O 0.8232(5) 0.0053(3) 0.5808(3)
O4_2 O 1.1398(5) -0.1171(4) 0.3071(3)
loop_
_geom_bond_atom_site_label_1
_geom_bond_atom_site_label_2
_geom_bond_site_symmetry_1
_geom_bond_site_symmetry_2
Pb1 O1 1_555 1_555
O1 C13 1_555 1_555
O2 Pb1 1_555 1_555
O3 C20 1_555 1_555
O4 C20 1_555 1_555
N1 Pb1 1_555 1_555
N2 Pb1 1_555 1_555
C1 N1 1_555 1_555
C2 C1 1_555 1_555
C3 C2 1_555 1_555
C4 C3 1_555 1_555
C5 C4 1_555 1_555
C6 C5 1_555 1_555
C7 C6 1_555 1_555
C8 C7 1_555 1_555
C9 C8 1_555 1_555
C10 N2 1_555 1_555
C11 N2 1_555 1_555
C12 N1 1_555 1_555
C13 O2 1_555 1_555
C14 C13 1_555 1_555
C15 C14 1_555 1_555
C16 C15 1_555 1_555
C17 C16 1_555 1_555
C18 C17 1_555 1_555
C19 C14 1_555 1_555
C20 C18 1_555 1_555
H1 C1 1_555 1_555
H2 C2 1_555 1_555
H3 C3 1_555 1_555
H4 C5 1_555 1_555
H5 C6 1_555 1_555
H6 C8 1_555 1_555
H7 C9 1_555 1_555
H8 C10 1_555 1_555
H9 C15 1_555 1_555
H10 C16 1_555 1_555
H11 C17 1_555 1_555
H12 C19 1_555 1_555
Pb1_2 O3 1_555 1_555
Pb1A O3 1_555 1_555
O3_2 Pb1 1_555 1_555
O3A Pb1 1_555 1_555
O4_2 Pb1 1_555 1_555
O4 Pb1_2 1_555 1_555
C4 C12 1_555 1_555
C7 C11 1_555 1_555
C9 C10 1_555 1_555
C11 C12 1_555 1_555
C18 C19 1_555 1_555

#END
