
#######################################################################
#
#                 Cambridge Crystallographic Data Centre
#                                CCDC 
#
#######################################################################
#
# If this CIF has been generated from an entry in the Cambridge 
# Structural Database, then it will include bibliographic, chemical, 
# crystal, experimental, refinement or atomic coordinate data resulting 
# from the CCDC's data processing and validation procedures.
#
#######################################################################

data_FIQBOW
_symmetry_cell_setting           orthorhombic
_symmetry_space_group_name_H-M   'P n a 21'
_symmetry_Int_Tables_number      33
_space_group_name_Hall           'P 2c -2n'
loop_
_symmetry_equiv_pos_site_id
_symmetry_equiv_pos_as_xyz
1 x,y,z
2 -x,-y,1/2+z
3 1/2+x,1/2-y,z
4 1/2-x,1/2+y,1/2+z
_cell_length_a                   7.1310(10)
_cell_length_b                   21.012(4)
_cell_length_c                   6.4700(10)
_cell_angle_alpha                90
_cell_angle_beta                 90
_cell_angle_gamma                90
_cell_volume                     969.443
loop_
_atom_site_label
_atom_site_type_symbol
_atom_site_fract_x
_atom_site_fract_y
_atom_site_fract_z
Zn1 Zn 0.36531(14) 0.74495(4) 0.31107(16)
Cl1 Cl 0.3720(3) 0.81624(11) 0.0720(5)
Cl2 Cl 0.6152(3) 0.74526(11) 0.5364(4)
O1 O 0.3417(9) 0.6522(3) 0.2508(12)
C1 C 0.3348(11) 0.6207(4) 0.0958(19)
C2 C 0.2882(12) 0.5518(4) 0.1103(19)
C3 C 0.3214(14) 0.5107(5) -0.0523(19)
H1 H 0.3734 0.5257 -0.1783
C4 C 0.2766(14) 0.4464(5) -0.0271(19)
H2 H 0.3011 0.4173 -0.1361
C5 C 0.1978(15) 0.4250(5) 0.1529(21)
H3 H 0.1652 0.3814 0.1662
C6 C 0.1653(12) 0.4660(4) 0.3148(24)
H4 H 0.1126 0.4509 0.4404
C7 C 0.2114(13) 0.5304(4) 0.2912(20)
H5 H 0.1891 0.5594 0.4013
C8 C 0.3667(14) 0.6495(4) -0.1145(18)
H6 H 0.2682 0.6352 -0.2092
H7 H 0.4893 0.6360 -0.1672
H8 H 0.3635 0.6960 -0.1039
Zn1B Zn 0.86531(14) 0.75505(4) 0.31107(16)
Cl2B Cl 0.1152(3) 0.75474(11) 0.5364(4)
loop_
_geom_bond_atom_site_label_1
_geom_bond_atom_site_label_2
_geom_bond_site_symmetry_1
_geom_bond_site_symmetry_2
Zn1 Cl1 1_555 1_555
Cl2 Zn1 1_555 1_555
O1 Zn1 1_555 1_555
C1 O1 1_555 1_555
C2 C1 1_555 1_555
C3 C2 1_555 1_555
H1 C3 1_555 1_555
C4 C3 1_555 1_555
H2 C4 1_555 1_555
C5 C4 1_555 1_555
H3 C5 1_555 1_555
C6 C5 1_555 1_555
H4 C6 1_555 1_555
C7 C2 1_555 1_555
H5 C7 1_555 1_555
C8 C1 1_555 1_555
H6 C8 1_555 1_555
H7 C8 1_555 1_555
H8 C8 1_555 1_555
Zn1B Cl2 1_555 1_555
Cl2B Zn1 1_555 1_555
C6 C7 1_555 1_555

#END
