
#######################################################################
#
#                 Cambridge Crystallographic Data Centre
#                                CCDC 
#
#######################################################################
#
# If this CIF has been generated from an entry in the Cambridge 
# Structural Database, then it will include bibliographic, chemical, 
# crystal, experimental, refinement or atomic coordinate data resulting 
# from the CCDC's data processing and validation procedures.
#
#######################################################################

data_FIQBOX02
_symmetry_cell_setting           triclinic
_symmetry_space_group_name_H-M   'P -1'
_symmetry_Int_Tables_number      2
_space_group_name_Hall           '-P 1'
loop_
_symmetry_equiv_pos_site_id
_symmetry_equiv_pos_as_xyz
1 x,y,z
2 -x,-y,-z
_cell_length_a                   7.5595(6)
_cell_length_b                   9.8199(8)
_cell_length_c                   13.1663(11)
_cell_angle_alpha                69.7590(10)
_cell_angle_beta                 80.6000(10)
_cell_angle_gamma                71.3180(10)
_cell_volume                     867.189
loop_
_atom_site_label
_atom_site_type_symbol
_atom_site_fract_x
_atom_site_fract_y
_atom_site_fract_z
C1 C -0.0169(8) 1.1594(7) 0.8607(5)
H1 H -0.1031 1.1354 0.8282
C2 C -0.0689(9) 1.2920(6) 0.8877(5)
C3 C 0.0576(10) 1.3288(8) 0.9327(6)
H2 H 0.0190 1.4182 0.9545
C4 C 0.2413(11) 1.2320(8) 0.9476(6)
H3 H 0.3318 1.2598 0.9738
C5 C 0.2905(10) 1.0991(8) 0.9232(6)
H4 H 0.4145 1.0316 0.9354
C6 C 0.1638(8) 1.0615(6) 0.8807(5)
C7 C 0.2208(8) 0.9123(6) 0.8573(5)
C8 C -0.2616(10) 1.3946(7) 0.8695(5)
C9 C 0.6881(10) 0.7923(8) 0.7346(7)
H5 H 0.6900 0.7768 0.8105
C10 C 0.8092(11) 0.8657(10) 0.6638(8)
H6 H 0.8914 0.9032 0.6885
C11 C 0.8054(12) 0.8839(10) 0.5545(9)
H7 H 0.8889 0.9324 0.5022
C12 C 0.6855(11) 0.8326(9) 0.5189(7)
C13 C 0.5665(9) 0.7610(7) 0.5977(5)
C14 C 0.4389(10) 0.7067(8) 0.5635(5)
C15 C 0.4395(12) 0.7273(9) 0.4510(6)
C16 C 0.5613(15) 0.7959(11) 0.3746(6)
H8 H 0.5593 0.8068 0.2995
C17 C 0.3044(16) 0.6720(11) 0.4228(8)
H9 H 0.2958 0.6824 0.3484
C18 C 0.1902(14) 0.6045(11) 0.5001(9)
H10 H 0.0999 0.5695 0.4804
C19 C 0.2040(11) 0.5880(10) 0.6090(7)
H11 H 0.1272 0.5359 0.6641
C20 C 0.6800(15) 0.8459(11) 0.4078(7)
H12 H 0.7640 0.8931 0.3550
N1 N 0.3233(8) 0.6399(6) 0.6400(5)
N2 N 0.5685(7) 0.7412(6) 0.7049(4)
O1 O 0.1313(7) 0.8924(5) 0.7953(4)
O2 O 0.3630(7) 0.8141(5) 0.9032(4)
O3 O -0.3639(7) 1.3832(6) 0.8080(4)
O4 O -0.3248(7) 1.4958(5) 0.9191(4)
Pb1 Pb 0.36219(3) 0.60598(2) 0.847498(17)
O3_2 O 0.6361(7) 0.3832(6) 0.8080(4)
O4_2 O 0.6752(7) 0.4958(5) 0.9191(4)
O4A O 0.3248(7) 0.5042(5) 1.0809(4)
Pb1_2 Pb -0.63781(3) 1.60598(2) 0.847498(17)
Pb1A Pb -0.36219(3) 1.39402(2) 1.152502(17)
loop_
_geom_bond_atom_site_label_1
_geom_bond_atom_site_label_2
_geom_bond_site_symmetry_1
_geom_bond_site_symmetry_2
C1 H1 1_555 1_555
C2 C1 1_555 1_555
C3 C2 1_555 1_555
H2 C3 1_555 1_555
C4 C3 1_555 1_555
H3 C4 1_555 1_555
C5 C4 1_555 1_555
H4 C5 1_555 1_555
C6 C1 1_555 1_555
C7 C6 1_555 1_555
C8 C2 1_555 1_555
C9 H5 1_555 1_555
C10 C9 1_555 1_555
H6 C10 1_555 1_555
C11 C10 1_555 1_555
H7 C11 1_555 1_555
C12 C11 1_555 1_555
C13 C12 1_555 1_555
C14 C13 1_555 1_555
C15 C14 1_555 1_555
C16 C15 1_555 1_555
H8 C16 1_555 1_555
C17 C15 1_555 1_555
H9 C17 1_555 1_555
C18 C17 1_555 1_555
H10 C18 1_555 1_555
C19 C18 1_555 1_555
H11 C19 1_555 1_555
C20 C12 1_555 1_555
H12 C20 1_555 1_555
N1 C14 1_555 1_555
N2 C9 1_555 1_555
O1 C7 1_555 1_555
O2 C7 1_555 1_555
O3 C8 1_555 1_555
O4 C8 1_555 1_555
Pb1 N1 1_555 1_555
O3_2 Pb1 1_555 1_555
O4_2 Pb1 1_555 1_555
O4A Pb1 1_555 1_555
Pb1_2 O3 1_555 1_555
Pb1A O4 1_555 1_555
C5 C6 1_555 1_555
C13 N2 1_555 1_555
C16 C20 1_555 1_555
C19 N1 1_555 1_555
N2 Pb1 1_555 1_555
O1 Pb1 1_555 1_555
O2 Pb1 1_555 1_555
O4 Pb1_2 1_555 1_555

#END
