
#######################################################################
#
#                 Cambridge Crystallographic Data Centre
#                                CCDC 
#
#######################################################################
#
# If this CIF has been generated from an entry in the Cambridge 
# Structural Database, then it will include bibliographic, chemical, 
# crystal, experimental, refinement or atomic coordinate data resulting 
# from the CCDC's data processing and validation procedures.
#
#######################################################################

data_FIQBOX01
_symmetry_cell_setting           triclinic
_symmetry_space_group_name_H-M   'P -1'
_symmetry_Int_Tables_number      2
_space_group_name_Hall           '-P 1'
loop_
_symmetry_equiv_pos_site_id
_symmetry_equiv_pos_as_xyz
1 x,y,z
2 -x,-y,-z
_cell_length_a                   7.5442(2)
_cell_length_b                   9.7962(3)
_cell_length_c                   13.1505(4)
_cell_angle_alpha                69.739(2)
_cell_angle_beta                 80.597(2)
_cell_angle_gamma                71.377(2)
_cell_volume                     862.482
loop_
_atom_site_label
_atom_site_type_symbol
_atom_site_fract_x
_atom_site_fract_y
_atom_site_fract_z
Pb1 Pb 1.137652(18) 0.894235(14) 0.152668(10)
O1 O 0.8225(4) 1.0043(3) 0.0811(2)
N1 N 0.9309(4) 0.7594(4) 0.2958(2)
O2 O 0.8619(4) 1.1173(4) 0.1921(2)
N2 N 1.1790(5) 0.8601(4) 0.3597(3)
C1 C 0.5165(5) 1.3405(4) 0.1387(3)
C2 C 0.7651(6) 1.1046(4) 0.1291(3)
C3 C 0.5691(5) 1.2082(4) 0.1119(3)
C4 C 1.0634(6) 0.7923(4) 0.4372(3)
C5 C 0.9344(5) 0.7390(4) 0.4025(3)
C6 C 0.3367(5) 1.4394(4) 0.1192(3)
C7 C 0.2101(6) 1.4002(5) 0.0767(3)
C8 C 0.8114(6) 0.7095(5) 0.2648(4)
C9 C 0.4414(6) 1.1723(5) 0.0672(3)
C10 C 0.8134(7) 0.6677(5) 0.4806(4)
C11 C 1.0643(7) 0.7738(5) 0.5480(3)
C12 C 1.1932(9) 0.8285(7) 0.5776(5)
C13 C 1.2951(7) 0.9126(6) 0.3912(4)
C14 C 0.2632(7) 1.2662(5) 0.0514(4)
C15 C 0.6883(7) 0.6365(6) 0.3370(5)
C16 C 1.3065(9) 0.8975(7) 0.4999(5)
C17 C 0.6921(7) 0.6163(6) 0.4456(5)
C18 C 0.9390(9) 0.7028(7) 0.6248(4)
C19 C 0.8201(9) 0.6516(7) 0.5924(4)
O3 O 0.1354(4) 1.6872(3) 0.0968(2)
O4 O 0.3683(4) 1.6069(3) 0.2049(2)
C20 C 0.2779(5) 1.5879(4) 0.1427(3)
H1 H 0.814(7) 0.733(6) 0.180(4)
H2 H 0.592(6) 1.356(5) 0.180(4)
H3 H 1.377(8) 0.977(7) 0.321(5)
H4 H 0.184(8) 1.247(6) 0.021(4)
H5 H 0.608(8) 0.612(7) 0.301(5)
H6 H 0.466(8) 1.086(7) 0.050(5)
H7 H 0.061(7) 1.474(6) 0.078(4)
H8 H 0.598(8) 0.570(6) 0.491(4)
H9 H 0.953(8) 0.718(7) 0.701(5)
H10 H 1.406(7) 0.922(6) 0.520(4)
H11 H 1.190(10) 0.808(9) 0.658(6)
H12 H 0.728(9) 0.611(7) 0.647(5)
Pb1_2 Pb 0.137652(18) 1.894235(14) 0.152668(10)
O3_2 O 1.1354(4) 0.6872(3) 0.0968(2)
O4_2 O 1.3683(4) 0.6069(3) 0.2049(2)
loop_
_geom_bond_atom_site_label_1
_geom_bond_atom_site_label_2
_geom_bond_site_symmetry_1
_geom_bond_site_symmetry_2
Pb1 O1 1_555 1_555
O1 C2 1_555 1_555
N1 Pb1 1_555 1_555
O2 Pb1 1_555 1_555
N2 Pb1 1_555 1_555
C1 C3 1_555 1_555
C2 O2 1_555 1_555
C3 C2 1_555 1_555
C4 N2 1_555 1_555
C5 N1 1_555 1_555
C6 C1 1_555 1_555
C7 C6 1_555 1_555
C8 N1 1_555 1_555
C9 C3 1_555 1_555
C10 C5 1_555 1_555
C11 C4 1_555 1_555
C12 C11 1_555 1_555
C13 N2 1_555 1_555
C14 C7 1_555 1_555
C15 C8 1_555 1_555
C16 C12 1_555 1_555
C17 C10 1_555 1_555
C18 C11 1_555 1_555
C19 C10 1_555 1_555
O3 C20 1_555 1_555
O4 C20 1_555 1_555
C20 C6 1_555 1_555
H1 C8 1_555 1_555
H2 C1 1_555 1_555
H3 C13 1_555 1_555
H4 C14 1_555 1_555
H5 C15 1_555 1_555
H6 C9 1_555 1_555
H7 C7 1_555 1_555
H8 C17 1_555 1_555
H9 C18 1_555 1_555
H10 C16 1_555 1_555
H11 C12 1_555 1_555
H12 C19 1_555 1_555
Pb1_2 O3 1_555 1_555
O3_2 Pb1 1_555 1_555
O4_2 Pb1 1_555 1_555
C4 C5 1_555 1_555
C9 C14 1_555 1_555
C13 C16 1_555 1_555
C15 C17 1_555 1_555
C18 C19 1_555 1_555
O4 Pb1_2 1_555 1_555

#END
