
#######################################################################
#
#                 Cambridge Crystallographic Data Centre
#                                CCDC 
#
#######################################################################
#
# If this CIF has been generated from an entry in the Cambridge 
# Structural Database, then it will include bibliographic, chemical, 
# crystal, experimental, refinement or atomic coordinate data resulting 
# from the CCDC's data processing and validation procedures.
#
#######################################################################

data_FIQBEN
_symmetry_cell_setting           monoclinic
_symmetry_space_group_name_H-M   'C 2/c'
_symmetry_Int_Tables_number      15
_space_group_name_Hall           '-C 2yn'
loop_
_symmetry_equiv_pos_site_id
_symmetry_equiv_pos_as_xyz
1 x,y,z
2 1/2+x,1/2+y,z
3 -x,y,1/2-z
4 1/2-x,1/2+y,1/2-z
5 -x,-y,-z
6 1/2-x,1/2-y,-z
7 x,-y,1/2+z
8 1/2+x,1/2-y,1/2+z
_cell_length_a                   17.1636(9)
_cell_length_b                   16.5180(9)
_cell_length_c                   14.6151(8)
_cell_angle_alpha                90
_cell_angle_beta                 100.7980(10)
_cell_angle_gamma                90
_cell_volume                     4070.14
loop_
_atom_site_label
_atom_site_type_symbol
_atom_site_fract_x
_atom_site_fract_y
_atom_site_fract_z
Ni1 Ni 0.884043(12) 0.897732(14) 1.008807(15)
S1 S 0.80471(3) 0.79708(3) 0.82499(3)
O1 O 0.90455(7) 0.95916(8) 0.89322(9)
O2 O 0.89727(9) 1.02135(10) 0.75828(10)
O3 O 0.86777(9) 0.79861(10) 0.77235(10)
O4 O 0.83331(8) 0.80180(8) 0.92626(9)
O5 O 0.75137(9) 0.72857(10) 0.80329(11)
O6 O 0.87651(8) 0.84251(9) 1.13900(9)
H1 H 0.8341 0.8185 1.1343
H2 H 0.8790 0.8778 1.1783
O7 O 0.93418(8) 0.99581(8) 1.08623(9)
H3 H 0.9244 0.9930 1.1390
H4 H 0.9816 1.0045 1.0938
N1 N 0.76944(9) 0.94160(10) 1.00886(11)
N2 N 0.99479(9) 0.84325(10) 1.01727(11)
C1 C 0.86680(11) 0.98053(11) 0.81413(13)
C2 C 0.77953(12) 0.96185(13) 0.78776(13)
C3 C 0.74586(12) 0.88496(13) 0.79180(14)
C4 C 0.66425(13) 0.87498(17) 0.76669(17)
H5 H 0.6421 0.8237 0.7682
C5 C 0.61584(14) 0.9409(2) 0.73952(19)
H6 H 0.5612 0.9337 0.7234
C6 C 0.64758(15) 1.01624(19) 0.73623(19)
H7 H 0.6146 1.0605 0.7189
C7 C 0.72931(14) 1.02695(16) 0.75879(16)
H8 H 0.7507 1.0782 0.7545
C8 C 0.75027(12) 1.01980(13) 1.00445(17)
H9 H 0.7903 1.0578 1.0043
C9 C 0.67367(12) 1.04696(14) 1.00009(19)
H10 H 0.6630 1.1022 0.9967
C10 C 0.61229(11) 0.99224(14) 1.00076(15)
C11 C 0.63270(12) 0.91089(13) 1.00691(16)
H11 H 0.5940 0.8718 1.0084
C12 C 0.71035(11) 0.88833(12) 1.01076(14)
H12 H 0.7227 0.8335 1.0149
C13 C 0.53102(12) 1.02201(15) 0.99555(18)
H13 H 0.5226 1.0771 0.9850
C14 C 1.04473(11) 0.83554(13) 1.09886(14)
H14 H 1.0273 0.8505 1.1530
C15 C 1.12092(12) 0.80636(13) 1.10635(14)
H15 H 1.1533 0.8015 1.1647
C16 C 1.14939(11) 0.78418(12) 1.02722(14)
C17 C 1.09644(12) 0.79025(14) 0.94250(14)
H16 H 1.1119 0.7744 0.8875
C18 C 1.02115(11) 0.81987(13) 0.94077(14)
H17 H 0.9869 0.8238 0.8836
C19 C 1.23182(11) 0.75747(12) 1.03522(14)
H18 H 1.2611 0.7504 1.0950
Ni1D Ni 0.115957(12) 1.102268(14) 0.991193(15)
Ni1E Ni 1.615957(12) 0.602268(14) 0.991193(15)
S1D S 0.19529(3) 1.20292(3) 1.17501(3)
O1D O 0.09545(7) 1.04084(8) 1.10678(9)
O2D O 0.10273(9) 0.97865(10) 1.24172(10)
O3D O 0.13223(9) 1.20139(10) 1.22765(10)
O4D O 0.16669(8) 1.19820(8) 1.07374(9)
O5D O 0.24863(9) 1.27143(10) 1.19671(11)
O6D O 0.12349(8) 1.15749(9) 0.86100(9)
H1D H 0.1659 1.1815 0.8657
H2D H 0.1210 1.1222 0.8217
O7D O 0.06582(8) 1.00419(8) 0.91377(9)
H3D H 0.0756 1.0070 0.8610
H4D H 0.0184 0.9955 0.9062
N1D N 0.23056(9) 1.05840(10) 0.99114(11)
N2E N 1.50521(9) 0.65675(10) 0.98273(11)
N2D N 0.00521(9) 1.15675(10) 0.98273(11)
C1D C 0.13320(11) 1.01947(11) 1.18587(13)
C2D C 0.22047(12) 1.03815(13) 1.21224(13)
C3D C 0.25414(12) 1.11504(13) 1.20820(14)
C4D C 0.33575(13) 1.12502(17) 1.23331(17)
H5D H 0.3579 1.1763 1.2318
C5D C 0.38416(14) 1.0591(2) 1.26048(19)
H6D H 0.4388 1.0663 1.2766
C6D C 0.35242(15) 0.98376(19) 1.26377(19)
H7D H 0.3854 0.9395 1.2811
C7D C 0.27069(14) 0.97305(16) 1.24121(16)
H8D H 0.2493 0.9218 1.2455
C8D C 0.24973(12) 0.98020(13) 0.99555(17)
H9D H 0.2097 0.9422 0.9957
C9D C 0.32633(12) 0.95304(14) 0.99991(19)
H10D H 0.3370 0.8978 1.0033
C10D C 0.38771(11) 1.00776(14) 0.99924(15)
C11D C 0.36730(12) 1.08911(13) 0.99309(16)
H11D H 0.4060 1.1282 0.9916
C12D C 0.28965(11) 1.11167(12) 0.98924(14)
H12D H 0.2773 1.1665 0.9851
C13D C 0.46898(12) 0.97799(15) 1.00445(18)
H13D H 0.4774 0.9229 1.0150
C14E C 1.45527(11) 0.66446(13) 0.90114(14)
H14E H 1.4727 0.6495 0.8470
C15E C 1.37908(12) 0.69364(13) 0.89365(14)
H15E H 1.3467 0.6985 0.8353
C16E C 1.35061(11) 0.71582(12) 0.97278(14)
C17E C 1.40356(12) 0.70975(14) 1.05750(14)
H16E H 1.3881 0.7256 1.1125
C18E C 1.47885(11) 0.68013(13) 1.05923(14)
H17E H 1.5131 0.6762 1.1164
C19E C 1.26818(11) 0.74253(12) 0.96478(14)
H18E H 1.2389 0.7496 0.9050
O8 O 0.5000 0.1761(3) 0.7500
loop_
_geom_bond_atom_site_label_1
_geom_bond_atom_site_label_2
_geom_bond_site_symmetry_1
_geom_bond_site_symmetry_2
Ni1 O1 1_555 1_555
S1 O3 1_555 1_555
O1 C1 1_555 1_555
O2 C1 1_555 1_555
O4 Ni1 1_555 1_555
O5 S1 1_555 1_555
O6 Ni1 1_555 1_555
H1 O6 1_555 1_555
H2 O6 1_555 1_555
O7 Ni1 1_555 1_555
H3 O7 1_555 1_555
H4 O7 1_555 1_555
N1 Ni1 1_555 1_555
N2 Ni1 1_555 1_555
C1 C2 1_555 1_555
C2 C3 1_555 1_555
C3 S1 1_555 1_555
C4 C3 1_555 1_555
H5 C4 1_555 1_555
C5 C4 1_555 1_555
H6 C5 1_555 1_555
C6 C5 1_555 1_555
H7 C6 1_555 1_555
C7 C2 1_555 1_555
H8 C7 1_555 1_555
C8 N1 1_555 1_555
H9 C8 1_555 1_555
C9 C8 1_555 1_555
H10 C9 1_555 1_555
C10 C9 1_555 1_555
C11 C10 1_555 1_555
H11 C11 1_555 1_555
C12 N1 1_555 1_555
H12 C12 1_555 1_555
C13 C10 1_555 1_555
H13 C13 1_555 1_555
C14 N2 1_555 1_555
H14 C14 1_555 1_555
C15 C14 1_555 1_555
H15 C15 1_555 1_555
C16 C15 1_555 1_555
C17 C16 1_555 1_555
H16 C17 1_555 1_555
C18 N2 1_555 1_555
H17 C18 1_555 1_555
C19 C16 1_555 1_555
H18 C19 1_555 1_555
Ni1D O1D 1_555 1_555
Ni1E N2E 1_555 1_555
S1D O3D 1_555 1_555
O1D C1D 1_555 1_555
O2D C1D 1_555 1_555
O4D Ni1D 1_555 1_555
O5D S1D 1_555 1_555
O6D Ni1D 1_555 1_555
H1D O6D 1_555 1_555
H2D O6D 1_555 1_555
O7D Ni1D 1_555 1_555
H3D O7D 1_555 1_555
H4D O7D 1_555 1_555
N1D Ni1D 1_555 1_555
N2E C14E 1_555 1_555
N2D Ni1D 1_555 1_555
C1D C2D 1_555 1_555
C2D C3D 1_555 1_555
C3D S1D 1_555 1_555
C4D C3D 1_555 1_555
H5D C4D 1_555 1_555
C5D C4D 1_555 1_555
H6D C5D 1_555 1_555
C6D C5D 1_555 1_555
H7D C6D 1_555 1_555
C7D C2D 1_555 1_555
H8D C7D 1_555 1_555
C8D N1D 1_555 1_555
H9D C8D 1_555 1_555
C9D C8D 1_555 1_555
H10D C9D 1_555 1_555
C10D C9D 1_555 1_555
C11D C10D 1_555 1_555
H11D C11D 1_555 1_555
C12D N1D 1_555 1_555
H12D C12D 1_555 1_555
C13D C13 1_555 1_555
H13D C13D 1_555 1_555
C14E H14E 1_555 1_555
C15E C14E 1_555 1_555
H15E C15E 1_555 1_555
C16E C15E 1_555 1_555
C17E C16E 1_555 1_555
H16E C17E 1_555 1_555
C18E N2E 1_555 1_555
H17E C18E 1_555 1_555
C19E C19 1_555 1_555
H18E C19E 1_555 1_555
S1 O4 1_555 1_555
C6 C7 1_555 1_555
C11 C12 1_555 1_555
C17 C18 1_555 1_555
S1D O4D 1_555 1_555
C6D C7D 1_555 1_555
C10D C13D 1_555 1_555
C11D C12D 1_555 1_555
C16E C19E 1_555 1_555
C17E C18E 1_555 1_555

#END
