
#######################################################################
#
#                 Cambridge Crystallographic Data Centre
#                                CCDC 
#
#######################################################################
#
# If this CIF has been generated from an entry in the Cambridge 
# Structural Database, then it will include bibliographic, chemical, 
# crystal, experimental, refinement or atomic coordinate data resulting 
# from the CCDC's data processing and validation procedures.
#
#######################################################################

data_FIQCEO
_symmetry_cell_setting           monoclinic
_symmetry_space_group_name_H-M   'P 21/n'
_symmetry_Int_Tables_number      14
_space_group_name_Hall           '-P 2yn'
loop_
_symmetry_equiv_pos_site_id
_symmetry_equiv_pos_as_xyz
1 x,y,z
2 1/2-x,1/2+y,1/2-z
3 -x,-y,-z
4 1/2+x,1/2-y,1/2+z
_cell_length_a                   14.2339(8)
_cell_length_b                   7.7622(4)
_cell_length_c                   17.8010(10)
_cell_angle_alpha                90
_cell_angle_beta                 110.9400(10)
_cell_angle_gamma                90
_cell_volume                     1836.87
loop_
_atom_site_label
_atom_site_type_symbol
_atom_site_fract_x
_atom_site_fract_y
_atom_site_fract_z
Cu1 Cu 0.41473(3) 0.43810(5) 0.67992(2)
S1 S 0.29903(5) 0.02259(9) 0.64844(4)
O1 O 0.34091(17) 0.1723(3) 0.69711(13)
H1 H 0.298(3) 0.659(2) 0.699(2)
H2 H 0.283(3) 0.503(4) 0.732(2)
O2 O 0.26904(17) -0.1060(3) 0.69620(14)
H3 H 0.477(2) 0.794(3) 0.669(2)
H4 H 0.552(2) 0.711(4) 0.7302(13)
O3 O 0.36249(17) -0.0509(3) 0.60858(14)
O4 O 0.0985(2) -0.1006(4) 0.33827(15)
O5 O -0.01686(18) 0.1053(3) 0.29452(13)
O6 O -0.06092(19) 0.3003(3) 0.39597(15)
H5 H -0.0714 0.2568 0.3517
O7 O 0.3048(2) 0.5534(3) 0.70075(16)
O8 O 0.5126(2) 0.7034(4) 0.68134(16)
N1 N 0.5126(2) 0.3111(4) 0.64346(17)
N2 N 0.3418(2) 0.4546(4) 0.56064(16)
C1 C 0.5980(3) 0.2396(6) 0.6905(3)
H6 H 0.6175 0.2524 0.7459
C2 C 0.6591(4) 0.1463(7) 0.6598(3)
H7 H 0.7188 0.0975 0.6940
C3 C 0.6302(4) 0.1275(6) 0.5784(3)
H8 H 0.6696 0.0637 0.5566
C4 C 0.5433(3) 0.2024(5) 0.5290(3)
H9 H 0.5237 0.1923 0.4735
C5 C 0.4847(3) 0.2939(4) 0.5629(2)
C6 C 0.3882(3) 0.3768(4) 0.5159(2)
C7 C 0.3473(3) 0.3769(6) 0.4324(2)
H10 H 0.3798 0.3221 0.4021
C8 C 0.2571(3) 0.4608(6) 0.3959(2)
H11 H 0.2286 0.4640 0.3400
C9 C 0.2092(3) 0.5391(6) 0.4407(2)
H12 H 0.1480 0.5949 0.4161
C10 C 0.2538(3) 0.5337(5) 0.5235(2)
H13 H 0.2215 0.5867 0.5544
C11 C 0.1878(2) 0.0945(4) 0.57212(17)
C12 C 0.1598(2) 0.0297(4) 0.49508(18)
H14 H 0.1974 -0.0585 0.4843
C13 C 0.0761(2) 0.0940(4) 0.43300(17)
C14 C 0.0193(2) 0.2245(4) 0.45086(19)
C15 C 0.0455(2) 0.2828(4) 0.52982(19)
H15 H 0.0055 0.3647 0.5421
C16 C 0.1298(2) 0.2208(4) 0.58982(18)
H16 H 0.1478 0.2633 0.6419
C17 C 0.0521(2) 0.0230(4) 0.34987(19)
Cu1C Cu -0.08527(3) 0.06190(5) 0.17992(2)
O5C O 0.48314(18) 0.3947(3) 0.79452(13)
loop_
_geom_bond_atom_site_label_1
_geom_bond_atom_site_label_2
_geom_bond_site_symmetry_1
_geom_bond_site_symmetry_2
Cu1 O1 1_555 1_555
S1 O1 1_555 1_555
H1 O7 1_555 1_555
H2 O7 1_555 1_555
O2 S1 1_555 1_555
H3 O8 1_555 1_555
H4 O8 1_555 1_555
O3 S1 1_555 1_555
O4 C17 1_555 1_555
O5 C17 1_555 1_555
O6 H5 1_555 1_555
O7 Cu1 1_555 1_555
O8 Cu1 1_555 1_555
N1 Cu1 1_555 1_555
N2 Cu1 1_555 1_555
C1 N1 1_555 1_555
H6 C1 1_555 1_555
C2 C1 1_555 1_555
H7 C2 1_555 1_555
C3 C2 1_555 1_555
H8 C3 1_555 1_555
C4 C3 1_555 1_555
H9 C4 1_555 1_555
C5 N1 1_555 1_555
C6 N2 1_555 1_555
C7 C6 1_555 1_555
H10 C7 1_555 1_555
C8 C7 1_555 1_555
H11 C8 1_555 1_555
C9 C8 1_555 1_555
H12 C9 1_555 1_555
C10 N2 1_555 1_555
H13 C10 1_555 1_555
C11 S1 1_555 1_555
C12 C11 1_555 1_555
H14 C12 1_555 1_555
C13 C12 1_555 1_555
C14 O6 1_555 1_555
C15 C14 1_555 1_555
H15 C15 1_555 1_555
C16 C11 1_555 1_555
H16 C16 1_555 1_555
C17 C13 1_555 1_555
Cu1C O5 1_555 1_555
O5C Cu1 1_555 1_555
C4 C5 1_555 1_555
C5 C6 1_555 1_555
C9 C10 1_555 1_555
C13 C14 1_555 1_555
C15 C16 1_555 1_555

#END
