
#######################################################################
#
#                 Cambridge Crystallographic Data Centre
#                                CCDC 
#
#######################################################################
#
# If this CIF has been generated from an entry in the Cambridge 
# Structural Database, then it will include bibliographic, chemical, 
# crystal, experimental, refinement or atomic coordinate data resulting 
# from the CCDC's data processing and validation procedures.
#
#######################################################################

data_FIQDIT
_symmetry_cell_setting           triclinic
_symmetry_space_group_name_H-M   'P -1'
_symmetry_Int_Tables_number      2
_space_group_name_Hall           '-P 1'
loop_
_symmetry_equiv_pos_site_id
_symmetry_equiv_pos_as_xyz
1 x,y,z
2 -x,-y,-z
_cell_length_a                   11.5181(18)
_cell_length_b                   13.8876(15)
_cell_length_c                   13.9889(10)
_cell_angle_alpha                93.532(7)
_cell_angle_beta                 95.868(9)
_cell_angle_gamma                109.014(9)
_cell_volume                     2093.73
loop_
_atom_site_label
_atom_site_type_symbol
_atom_site_fract_x
_atom_site_fract_y
_atom_site_fract_z
C1 C 0.9143(5) 0.4550(4) 0.8576(4)
C2 C 1.0300(6) 0.8065(5) 0.6941(5)
C3 C 0.8581(5) 0.5061(4) 0.5007(4)
C4 C 1.3213(5) 0.7069(4) 0.8882(4)
C5 C 0.8013(5) 0.1652(4) 0.7155(4)
C6 C 0.7954(7) 0.2395(5) 0.6577(4)
H1 H 0.7392 0.2735 0.6663
C7 C 0.8714(8) 0.2647(5) 0.5870(5)
H2 H 0.8655 0.3150 0.5477
C8 C 0.9559(7) 0.2162(5) 0.5739(5)
H3 H 1.0081 0.2339 0.5266
C9 C 0.9622(7) 0.1424(6) 0.6306(5)
H4 H 1.0189 0.1090 0.6218
C10 C 0.8856(6) 0.1158(5) 0.7018(5)
H5 H 0.8909 0.0647 0.7402
C11 C 0.7594(5) 0.0717(4) 0.8971(4)
C12 C 0.8424(6) 0.1355(5) 0.9731(4)
H6 H 0.8657 0.2062 0.9730
C13 C 0.8900(7) 0.0939(6) 1.0482(5)
H7 H 0.9430 0.1367 1.0996
C14 C 0.8597(8) -0.0099(7) 1.0477(6)
H8 H 0.8935 -0.0372 1.0980
C15 C 0.7800(8) -0.0734(6) 0.9735(7)
H9 H 0.7601 -0.1440 0.9730
C16 C 0.7285(6) -0.0324(5) 0.8985(5)
H10 H 0.6727 -0.0760 0.8489
C17 C 0.5609(5) 0.0261(4) 0.7429(4)
C18 C 0.5552(6) -0.0165(5) 0.6491(5)
H11 H 0.6226 0.0074 0.6152
C19 C 0.4502(8) -0.0940(7) 0.6061(6)
H12 H 0.4462 -0.1211 0.5429
C20 C 0.3537(7) -0.1302(6) 0.6557(6)
H13 H 0.2848 -0.1844 0.6271
C21 C 0.3545(6) -0.0892(5) 0.7473(5)
H14 H 0.2861 -0.1138 0.7800
C22 C 0.4584(5) -0.0109(5) 0.7905(4)
H15 H 0.4594 0.0175 0.8527
C23 C 0.4181(5) 0.2787(5) 0.6702(4)
C24 C 0.4157(10) 0.3300(8) 0.5920(7)
H16 H 0.4580 0.3998 0.5938
C25 C 0.3425(14) 0.2693(12) 0.5041(10)
H17 H 0.3302 0.3020 0.4499
C26 C 0.2928(12) 0.1676(10) 0.5002(7)
H18 H 0.2531 0.1303 0.4416
C27 C 0.2986(8) 0.1187(7) 0.5778(7)
H19 H 0.2623 0.0480 0.5745
C28 C 0.3610(7) 0.1760(6) 0.6654(5)
H20 H 0.3631 0.1429 0.7210
C29 C 0.3550(4) 0.3415(4) 0.8510(4)
C30 C 0.3754(5) 0.3688(4) 0.9499(4)
H21 H 0.4549 0.3866 0.9831
C31 C 0.2776(6) 0.3695(5) 0.9992(5)
H22 H 0.2915 0.3879 1.0655
C32 C 0.1621(6) 0.3438(5) 0.9516(5)
H23 H 0.0969 0.3442 0.9855
C33 C 0.1399(6) 0.3170(6) 0.8541(6)
H24 H 0.0597 0.2985 0.8221
C34 C 0.2369(6) 0.3176(6) 0.8031(5)
H25 H 0.2224 0.3019 0.7364
C35 C 0.5564(5) 0.4807(4) 0.7675(3)
C36 C 0.6728(5) 0.5122(5) 0.7381(4)
H26 H 0.7122 0.4646 0.7267
C37 C 0.7313(6) 0.6138(5) 0.7255(5)
H27 H 0.8101 0.6347 0.7066
C38 C 0.6719(7) 0.6843(5) 0.7412(4)
H28 H 0.7115 0.7531 0.7342
C39 C 0.5547(6) 0.6528(5) 0.7669(4)
H29 H 0.5143 0.7002 0.7749
C40 C 0.4955(5) 0.5520(5) 0.7813(4)
H30 H 0.4165 0.5317 0.7999
N1 N 0.9673(5) 0.4885(4) 0.7963(3)
N2 N 1.0568(5) 0.7364(4) 0.7028(5)
N3 N 0.9162(5) 0.5329(4) 0.5742(3)
N4 N 1.2442(5) 0.6530(4) 0.8311(3)
P1 P 0.69335(12) 0.12815(10) 0.80297(9)
P2 P 0.48484(12) 0.34845(11) 0.78656(9)
S1 S 0.84295(13) 0.41039(11) 0.95008(10)
S2 S 0.9920(3) 0.90670(19) 0.6841(2)
S3 S 0.76845(16) 0.46487(17) 0.39572(11)
S4 S 1.43519(13) 0.78663(12) 0.96599(10)
Cd1 Cd 1.08337(4) 0.58836(3) 0.70088(3)
Hg1 Hg 0.633841(18) 0.274940(16) 0.867716(14)
S3A S 1.23155(16) 0.53513(17) 0.60428(11)
S4A S 0.56481(13) 0.21337(12) 1.03401(10)
Cd1A Cd 0.91663(4) 0.41164(3) 0.29912(3)
Hg1A Hg 1.366159(18) 0.725060(16) 1.132284(14)
loop_
_geom_bond_atom_site_label_1
_geom_bond_atom_site_label_2
_geom_bond_site_symmetry_1
_geom_bond_site_symmetry_2
C1 N1 1_555 1_555
C2 N2 1_555 1_555
C3 N3 1_555 1_555
C4 N4 1_555 1_555
C5 C6 1_555 1_555
C6 H1 1_555 1_555
C7 C6 1_555 1_555
H2 C7 1_555 1_555
C8 C7 1_555 1_555
H3 C8 1_555 1_555
C9 C8 1_555 1_555
H4 C9 1_555 1_555
C10 C5 1_555 1_555
H5 C10 1_555 1_555
C11 C12 1_555 1_555
C12 H6 1_555 1_555
C13 C12 1_555 1_555
H7 C13 1_555 1_555
C14 C13 1_555 1_555
H8 C14 1_555 1_555
C15 C14 1_555 1_555
H9 C15 1_555 1_555
C16 C11 1_555 1_555
H10 C16 1_555 1_555
C17 C18 1_555 1_555
C18 H11 1_555 1_555
C19 C18 1_555 1_555
H12 C19 1_555 1_555
C20 C19 1_555 1_555
H13 C20 1_555 1_555
C21 C20 1_555 1_555
H14 C21 1_555 1_555
C22 C17 1_555 1_555
H15 C22 1_555 1_555
C23 C24 1_555 1_555
C24 H16 1_555 1_555
C25 C24 1_555 1_555
H17 C25 1_555 1_555
C26 C25 1_555 1_555
H18 C26 1_555 1_555
C27 C26 1_555 1_555
H19 C27 1_555 1_555
C28 C23 1_555 1_555
H20 C28 1_555 1_555
C29 C30 1_555 1_555
C30 H21 1_555 1_555
C31 C30 1_555 1_555
H22 C31 1_555 1_555
C32 C31 1_555 1_555
H23 C32 1_555 1_555
C33 C32 1_555 1_555
H24 C33 1_555 1_555
C34 C29 1_555 1_555
H25 C34 1_555 1_555
C35 C36 1_555 1_555
C36 H26 1_555 1_555
C37 C36 1_555 1_555
H27 C37 1_555 1_555
C38 C37 1_555 1_555
H28 C38 1_555 1_555
C39 C38 1_555 1_555
H29 C39 1_555 1_555
C40 C35 1_555 1_555
H30 C40 1_555 1_555
N1 Cd1 1_555 1_555
N2 Cd1 1_555 1_555
N3 Cd1 1_555 1_555
N4 Cd1 1_555 1_555
P1 C5 1_555 1_555
P2 C23 1_555 1_555
S1 C1 1_555 1_555
S2 C2 1_555 1_555
S3 C3 1_555 1_555
S4 C4 1_555 1_555
Cd1 S3A 1_555 1_555
Hg1 P1 1_555 1_555
S4A Hg1 1_555 1_555
Cd1A S3 1_555 1_555
Hg1A S4 1_555 1_555
C9 C10 1_555 1_555
C11 P1 1_555 1_555
C15 C16 1_555 1_555
C17 P1 1_555 1_555
C21 C22 1_555 1_555
C27 C28 1_555 1_555
C29 P2 1_555 1_555
C33 C34 1_555 1_555
C35 P2 1_555 1_555
C39 C40 1_555 1_555
P2 Hg1 1_555 1_555
S1 Hg1 1_555 1_555

#END
