
#######################################################################
#
#                 Cambridge Crystallographic Data Centre
#                                CCDC 
#
#######################################################################
#
# If this CIF has been generated from an entry in the Cambridge 
# Structural Database, then it will include bibliographic, chemical, 
# crystal, experimental, refinement or atomic coordinate data resulting 
# from the CCDC's data processing and validation procedures.
#
#######################################################################

data_FIQFUH
_symmetry_cell_setting           monoclinic
_symmetry_space_group_name_H-M   'C 2/c'
_symmetry_Int_Tables_number      15
_space_group_name_Hall           '-C 2yn'
loop_
_symmetry_equiv_pos_site_id
_symmetry_equiv_pos_as_xyz
1 x,y,z
2 1/2+x,1/2+y,z
3 -x,y,1/2-z
4 1/2-x,1/2+y,1/2-z
5 -x,-y,-z
6 1/2-x,1/2-y,-z
7 x,-y,1/2+z
8 1/2+x,1/2-y,1/2+z
_cell_length_a                   21.027(5)
_cell_length_b                   6.3196(17)
_cell_length_c                   13.382(4)
_cell_angle_alpha                90
_cell_angle_beta                 102.354(16)
_cell_angle_gamma                90
_cell_volume                     1737.05
loop_
_atom_site_label
_atom_site_type_symbol
_atom_site_fract_x
_atom_site_fract_y
_atom_site_fract_z
Cu1 Cu 0.36641(3) 0.06802(12) 0.84868(4)
N1 N 0.37253(19) 0.0570(8) 0.9999(3)
N2 N 0.3701(2) -0.0195(8) 1.2015(3)
O1 O 0.32784(17) -0.2133(6) 0.8544(2)
O2 O 0.29681(18) -0.4410(7) 0.9615(2)
C1 C 0.3228(2) -0.2773(10) 0.9428(4)
C2 C 0.3496(2) -0.1241(9) 1.0290(3)
C3 C 0.3486(3) -0.1624(9) 1.1298(3)
H1 H 0.3326 -0.2907 1.1480
C4 C 0.3932(3) 0.1600(10) 1.1720(4)
H2 H 0.4086 0.2627 1.2210
C5 C 0.3952(2) 0.2003(9) 1.0705(4)
H3 H 0.4123 0.3269 1.0525
N3 N 0.4747(3) 0.2954(13) 0.8663(4)
O3 O 0.4130(2) 0.3386(6) 0.8513(3)
O4 O 0.5123(3) 0.4429(11) 0.8679(4)
O5 O 0.4915(2) 0.1084(11) 0.8770(4)
O6 O 0.2729(2) 0.2365(8) 0.8204(3)
H4 H 0.2361(15) 0.256(11) 0.781(4)
H5 H 0.277(3) 0.341(10) 0.866(4)
Cu1F Cu 0.36641(3) -0.06802(12) 1.34868(4)
N2F N 0.3701(2) 0.0195(8) 0.7015(3)
loop_
_geom_bond_atom_site_label_1
_geom_bond_atom_site_label_2
_geom_bond_site_symmetry_1
_geom_bond_site_symmetry_2
Cu1 N1 1_555 1_555
N1 C2 1_555 1_555
N2 C3 1_555 1_555
O1 Cu1 1_555 1_555
O2 C1 1_555 1_555
C1 O1 1_555 1_555
C2 C1 1_555 1_555
C3 C2 1_555 1_555
H1 C3 1_555 1_555
C4 N2 1_555 1_555
H2 C4 1_555 1_555
C5 N1 1_555 1_555
H3 C5 1_555 1_555
N3 O3 1_555 1_555
O3 Cu1 1_555 1_555
O4 N3 1_555 1_555
O5 Cu1 1_555 1_555
O6 Cu1 1_555 1_555
H4 O6 1_555 1_555
H5 O6 1_555 1_555
Cu1F N2 1_555 1_555
N2F Cu1 1_555 1_555
C4 C5 1_555 1_555
N3 O5 1_555 1_555

#END
