
#######################################################################
#
#                 Cambridge Crystallographic Data Centre
#                                CCDC 
#
#######################################################################
#
# If this CIF has been generated from an entry in the Cambridge 
# Structural Database, then it will include bibliographic, chemical, 
# crystal, experimental, refinement or atomic coordinate data resulting 
# from the CCDC's data processing and validation procedures.
#
#######################################################################

data_FIQGES
_symmetry_cell_setting           monoclinic
_symmetry_space_group_name_H-M   'P 21/c'
_symmetry_Int_Tables_number      14
_space_group_name_Hall           '-P 2ybc'
loop_
_symmetry_equiv_pos_site_id
_symmetry_equiv_pos_as_xyz
1 x,y,z
2 -x,1/2+y,1/2-z
3 -x,-y,-z
4 x,1/2-y,1/2+z
_cell_length_a                   9.5936(5)
_cell_length_b                   11.3569(5)
_cell_length_c                   13.9792(7)
_cell_angle_alpha                90
_cell_angle_beta                 108.0230(10)
_cell_angle_gamma                90
_cell_volume                     1448.35
loop_
_atom_site_label
_atom_site_type_symbol
_atom_site_fract_x
_atom_site_fract_y
_atom_site_fract_z
Zr1 Zr 0.405310(10) 0.614720(10) 0.239390(10)
O1 O 0.60770(10) 0.49360(10) 0.26360(10)
O2 O 0.67640(10) 0.30250(10) 0.27520(10)
O3 O 0.33470(10) 0.42770(10) 0.23140(10)
O4 O 0.40560(10) 0.23900(10) 0.24810(10)
O5 O 0.24960(10) 0.61160(10) 0.32320(10)
O6 O 0.21420(10) 0.60730(10) 0.47410(10)
O7 O 0.52410(10) 0.62830(10) 0.39550(10)
O8 O 0.52420(10) 0.63610(10) 0.55470(10)
O9 O 0.18690(10) 0.61490(10) 0.12800(10)
O10 O 0.06190(10) 0.62090(10) -0.03580(10)
O11 O 0.43490(10) 0.60680(10) 0.09510(10)
O12 O 0.3312(2) 0.62380(10) -0.07150(10)
C1 C 0.58610(10) 0.38600(10) 0.26380(10)
C2 C 0.42900(10) 0.34700(10) 0.24710(10)
C3 C 0.2933(2) 0.61420(10) 0.42140(10)
C4 C 0.4613(2) 0.62750(10) 0.46480(10)
C5 C 0.1762(2) 0.61750(10) 0.03430(10)
C6 C 0.3253(2) 0.61630(10) 0.01350(10)
Zr1A Zr 0.594690(10) 0.114720(10) 0.260610(10)
O2A O 0.32360(10) 0.80250(10) 0.22480(10)
O4A O 0.59440(10) 0.73900(10) 0.25190(10)
N1 N 0.80030(10) 0.75990(10) 0.59890(10)
N2 N 1.04450(10) 0.69610(10) 0.77170(10)
C7 C 0.9129(2) 0.67230(10) 0.59110(10)
C8 C 0.9829(2) 0.60960(10) 0.68990(10)
C9 C 0.9313(2) 0.7801(2) 0.78140(10)
C10 C 0.8637(2) 0.84400(10) 0.68340(10)
C11 C 0.7405(2) 0.8263(2) 0.50220(10)
H1 H 0.731(2) 0.719(2) 0.6070(10)
H2 H 1.112(2) 0.737(2) 0.7590(10)
H3 H 1.075(2) 0.662(2) 0.8290(10)
H4 H 0.9883 0.7125 0.5707
H5 H 0.8671 0.6147 0.5398
H6 H 0.9102 0.5613 0.7065
H7 H 1.0604 0.5583 0.6835
H8 H 0.9755 0.8366 0.8341
H9 H 0.8558 0.7378 0.8001
H10 H 0.7871 0.8961 0.6901
H11 H 0.9378 0.8919 0.6681
H12 H 0.6996 0.7718 0.4483
H13 H 0.8180 0.8700 0.4888
H14 H 0.6656 0.8796 0.5076
loop_
_geom_bond_atom_site_label_1
_geom_bond_atom_site_label_2
_geom_bond_site_symmetry_1
_geom_bond_site_symmetry_2
Zr1 O1 1_555 1_555
O1 C1 1_555 1_555
O2 C1 1_555 1_555
O3 Zr1 1_555 1_555
O4 C2 1_555 1_555
O5 Zr1 1_555 1_555
O6 C3 1_555 1_555
O7 Zr1 1_555 1_555
O8 C4 1_555 1_555
O9 Zr1 1_555 1_555
O10 C5 1_555 1_555
O11 Zr1 1_555 1_555
O12 C6 1_555 1_555
N1 C7 1_555 1_555
N2 C8 1_555 1_555
C1 C2 1_555 1_555
C2 O3 1_555 1_555
C3 O5 1_555 1_555
C4 O7 1_555 1_555
C5 O9 1_555 1_555
C6 O11 1_555 1_555
C7 C8 1_555 1_555
C8 H6 1_555 1_555
C9 N2 1_555 1_555
C10 N1 1_555 1_555
C11 N1 1_555 1_555
H1 N1 1_555 1_555
H2 N2 1_555 1_555
H3 N2 1_555 1_555
H4 C7 1_555 1_555
H5 C7 1_555 1_555
H7 C8 1_555 1_555
H8 C9 1_555 1_555
H9 C9 1_555 1_555
H10 C10 1_555 1_555
H11 C10 1_555 1_555
H12 C11 1_555 1_555
H13 C11 1_555 1_555
H14 C11 1_555 1_555
Zr1A O2 1_555 1_555
O2A Zr1 1_555 1_555
O4A Zr1 1_555 1_555
O4 Zr1A 1_555 1_555
C3 C4 1_555 1_555
C5 C6 1_555 1_555
C9 C10 1_555 1_555

#END
