
#######################################################################
#
#                 Cambridge Crystallographic Data Centre
#                                CCDC 
#
#######################################################################
#
# If this CIF has been generated from an entry in the Cambridge 
# Structural Database, then it will include bibliographic, chemical, 
# crystal, experimental, refinement or atomic coordinate data resulting 
# from the CCDC's data processing and validation procedures.
#
#######################################################################

data_FIQKOG
_symmetry_cell_setting           orthorhombic
_symmetry_space_group_name_H-M   'P b c a'
_symmetry_Int_Tables_number      61
_space_group_name_Hall           '-P 2ac 2ab'
loop_
_symmetry_equiv_pos_site_id
_symmetry_equiv_pos_as_xyz
1 x,y,z
2 1/2-x,-y,1/2+z
3 -x,1/2+y,1/2-z
4 1/2+x,1/2-y,-z
5 -x,-y,-z
6 1/2+x,y,1/2-z
7 x,1/2-y,1/2+z
8 1/2-x,1/2+y,z
_cell_length_a                   21.602(6)
_cell_length_b                   7.127(2)
_cell_length_c                   21.721(7)
_cell_angle_alpha                90
_cell_angle_beta                 90
_cell_angle_gamma                90
_cell_volume                     3344.11
loop_
_atom_site_label
_atom_site_type_symbol
_atom_site_fract_x
_atom_site_fract_y
_atom_site_fract_z
Cu1 Cu 0.77258(5) 0.1057(2) 0.61705(5)
O1 O 0.6962(3) 0.0732(11) 0.6624(3)
O2 O 0.6876(3) -0.2846(11) 0.6882(3)
P1 P 0.66553(12) -0.0820(5) 0.69781(12)
C1 C 0.5844(4) -0.0742(17) 0.6814(5)
C2 C 0.5476(5) -0.2308(18) 0.6874(5)
H1 H 0.5660(5) -0.3463(18) 0.6994(5)
C3 C 0.4844(5) -0.2240(20) 0.6763(5)
H2 H 0.4596(5) -0.3335(20) 0.6796(5)
C4 C 0.4588(5) -0.0547(20) 0.6603(6)
H3 H 0.4155(5) -0.0475(20) 0.6531(6)
C5 C 0.4942(6) 0.1051(21) 0.6546(5)
H4 H 0.4753(6) 0.2200(21) 0.6429(5)
C6 C 0.5567(4) 0.0988(17) 0.6658(5)
H5 H 0.5810(4) 0.2095(17) 0.6630(5)
C7 C 0.6725(5) -0.0371(16) 0.7789(5)
C8 C 0.6847(5) 0.1470(19) 0.7991(5)
H6 H 0.6907(5) 0.2470(19) 0.7708(5)
C9 C 0.6875(5) 0.1763(19) 0.8629(6)
H7 H 0.6959(5) 0.2991(19) 0.8778(6)
C10 C 0.6786(5) 0.0366(20) 0.9041(6)
H8 H 0.6810(5) 0.0618(20) 0.9470(6)
C11 C 0.6662(6) -0.1422(18) 0.8837(6)
H9 H 0.6585(6) -0.2407(18) 0.9121(6)
C12 C 0.6651(5) -0.1753(18) 0.8219(5)
H10 H 0.6590(5) -0.3003(18) 0.8080(5)
N1 N 0.8336(4) 0.2212(12) 0.5586(3)
C13 C 0.8909(5) 0.1857(15) 0.5406(5)
Cl1 Cl 0.91844(13) -0.0360(4) 0.56018(14)
C14 C 0.9283(5) 0.3083(17) 0.5091(5)
H11 H 0.9692(5) 0.2763(17) 0.4970(5)
C15 C 0.9021(5) 0.4838(17) 0.4959(5)
H12 H 0.9265(5) 0.5748(17) 0.4751(5)
C16 C 0.8439(5) 0.5277(17) 0.5116(5)
H13 H 0.8273(5) 0.6475(17) 0.5019(5)
C17 C 0.8074(5) 0.3922(17) 0.5428(4)
O3 O 0.7507(3) 0.4131(9) 0.5597(3)
Cu1G Cu 0.72742(5) -0.3943(2) 0.61705(5)
Cu1G_2 Cu 0.72742(5) 0.6057(2) 0.61705(5)
O2G O 0.8124(3) 0.2154(11) 0.6882(3)
O3G O 0.7493(3) -0.0869(9) 0.5597(3)
loop_
_geom_bond_atom_site_label_1
_geom_bond_atom_site_label_2
_geom_bond_site_symmetry_1
_geom_bond_site_symmetry_2
Cu1 O1 1_555 1_555
O1 P1 1_555 1_555
O2 P1 1_555 1_555
P1 C1 1_555 1_555
C1 C2 1_555 1_555
C2 H1 1_555 1_555
C3 C2 1_555 1_555
H2 C3 1_555 1_555
C4 C3 1_555 1_555
H3 C4 1_555 1_555
C5 C4 1_555 1_555
H4 C5 1_555 1_555
C6 C1 1_555 1_555
H5 C6 1_555 1_555
C7 P1 1_555 1_555
C8 C7 1_555 1_555
H6 C8 1_555 1_555
C9 C8 1_555 1_555
H7 C9 1_555 1_555
C10 C9 1_555 1_555
H8 C10 1_555 1_555
C11 C10 1_555 1_555
H9 C11 1_555 1_555
C12 C7 1_555 1_555
H10 C12 1_555 1_555
N1 Cu1 1_555 1_555
C13 N1 1_555 1_555
Cl1 C13 1_555 1_555
C14 C13 1_555 1_555
H11 C14 1_555 1_555
C15 C14 1_555 1_555
H12 C15 1_555 1_555
C16 C15 1_555 1_555
H13 C16 1_555 1_555
C17 N1 1_555 1_555
O3 Cu1 1_555 1_555
Cu1G O2 1_555 1_555
Cu1G_2 O3 1_555 1_555
O2G Cu1 1_555 1_555
O3G Cu1 1_555 1_555
C5 C6 1_555 1_555
C11 C12 1_555 1_555
C16 C17 1_555 1_555
C17 O3 1_555 1_555
Cu1G O3G 1_555 1_555

#END
