
#######################################################################
#
#                 Cambridge Crystallographic Data Centre
#                                CCDC 
#
#######################################################################
#
# If this CIF has been generated from an entry in the Cambridge 
# Structural Database, then it will include bibliographic, chemical, 
# crystal, experimental, refinement or atomic coordinate data resulting 
# from the CCDC's data processing and validation procedures.
#
#######################################################################

data_FIQRUT
_symmetry_cell_setting           orthorhombic
_symmetry_space_group_name_H-M   'P 21 21 21'
_symmetry_Int_Tables_number      19
_space_group_name_Hall           'P 2ac 2ab'
loop_
_symmetry_equiv_pos_site_id
_symmetry_equiv_pos_as_xyz
1 x,y,z
2 1/2-x,-y,1/2+z
3 -x,1/2+y,1/2-z
4 1/2+x,1/2-y,-z
_cell_length_a                   14.834(2)
_cell_length_b                   22.470(4)
_cell_length_c                   29.320(4)
_cell_angle_alpha                90
_cell_angle_beta                 90
_cell_angle_gamma                90
_cell_volume                     9772.94
loop_
_atom_site_label
_atom_site_type_symbol
_atom_site_fract_x
_atom_site_fract_y
_atom_site_fract_z
Zn1 Zn 0.60190(6) 0.45834(5) 0.08856(3)
Zn2 Zn 0.26810(6) 0.43235(4) 0.17455(3)
Zn3 Zn 0.93153(6) 0.54407(4) 0.15099(3)
N1 N 0.5086(5) 0.5243(3) 0.0556(2)
N2 N 0.6889(5) 0.5035(3) 0.0460(2)
N3 N 0.5119(5) 0.4019(3) 0.0564(2)
N4 N 0.4694(4) 0.5843(3) 0.1681(2)
H1 H 0.4444 0.6187 0.1615
N5 N 0.1767(4) 0.3671(3) 0.1389(2)
N6 N 0.3561(5) 0.3625(3) 0.1627(2)
N7 N 0.1709(4) 0.4212(3) 0.2224(2)
N8 N 0.1492(4) 0.4774(3) 0.0518(2)
H2 H 0.1312 0.4562 0.0283
N9 N 0.8412(4) 0.5419(3) 0.2118(2)
N10 N 0.8325(5) 0.6022(3) 0.1302(3)
N11 N 1.0216(5) 0.5673(3) 0.2024(3)
N12 N 0.8051(4) 0.3877(3) 0.1908(2)
H3 H 0.7810 0.3763 0.2168
O1 O 0.5515(4) 0.5055(3) 0.14388(19)
O2 O 0.3483(4) 0.4984(3) 0.1868(2)
H4 H 0.3596 0.5224 0.1656
O3 O 0.4000(5) 0.4836(3) 0.2573(2)
O4 O 0.7065(4) 0.7980(3) 0.2364(2)
H5 H 0.7535 0.7871 0.2500
O5 O 0.0571(4) 0.6166(3) 0.0894(2)
O6 O 0.0145(4) 0.5234(3) 0.1009(2)
H6 H 0.0315 0.4895 0.0923
O7 O 0.2212(3) 0.4783(2) 0.11876(18)
O8 O 0.4666(4) 0.5654(3) -0.0895(2)
H7 H 0.4752 0.5338 -0.1041
O9 O 0.7406(4) 0.3576(3) 0.0758(2)
O10 O 0.6771(4) 0.4123(3) 0.1302(2)
H8 H 0.6863 0.4179 0.1582
O11 O 0.8859(4) 0.4580(2) 0.1520(2)
O12 O 1.0599(6) 0.2139(3) 0.2836(4)
H9 H 1.1064 0.2072 0.2681
C1 C 0.5483(6) 0.5386(4) 0.0118(3)
H10 H 0.5276 0.5785 0.0021
H11 H 0.5275 0.5093 -0.0111
C2 C 0.6522(6) 0.5378(4) 0.0138(3)
C3 C 0.7011(6) 0.5687(4) -0.0174(3)
H12 H 0.6732 0.5942 -0.0391
C4 C 0.7938(7) 0.5613(5) -0.0160(3)
H13 H 0.8301 0.5810 -0.0380
C5 C 0.8340(7) 0.5270(5) 0.0155(3)
H14 H 0.8977 0.5228 0.0162
C6 C 0.7794(6) 0.4977(4) 0.0474(3)
H15 H 0.8064 0.4734 0.0702
C7 C 0.4200(5) 0.4931(4) 0.0527(3)
H16 H 0.3820 0.5119 0.0289
H17 H 0.3880 0.4960 0.0822
C8 C 0.4370(6) 0.4275(4) 0.0407(3)
C9 C 0.3712(6) 0.3942(4) 0.0173(3)
H18 H 0.3186 0.4127 0.0054
C10 C 0.3849(7) 0.3356(4) 0.0121(3)
H19 H 0.3391 0.3119 -0.0014
C11 C 0.4645(6) 0.3090(4) 0.0262(3)
H20 H 0.4753 0.2678 0.0212
C12 C 0.5277(6) 0.3446(4) 0.0479(3)
H21 H 0.5836 0.3277 0.0569
C13 C 0.5024(5) 0.5744(4) 0.0873(3)
H22 H 0.4445 0.5955 0.0825
H23 H 0.5519 0.6028 0.0812
C14 C 0.5080(5) 0.5536(4) 0.1355(3)
C15 C 0.4668(5) 0.5627(4) 0.2152(3)
H24 H 0.5284 0.5478 0.2232
C16 C 0.3994(6) 0.5099(4) 0.2210(3)
C17 C 0.4445(6) 0.6133(4) 0.2473(3)
H25 H 0.4411 0.5976 0.2788
H26 H 0.3844 0.6293 0.2393
C18 C 0.5131(6) 0.6637(4) 0.2459(3)
C19 C 0.5988(6) 0.6562(4) 0.2645(3)
H27 H 0.6139 0.6203 0.2798
C20 C 0.6626(6) 0.7020(4) 0.2606(3)
H28 H 0.7211 0.6964 0.2730
C21 C 0.6423(6) 0.7540(4) 0.2393(3)
C22 C 0.5585(6) 0.7614(4) 0.2191(3)
H29 H 0.5454 0.7966 0.2024
C23 C 0.4934(6) 0.7169(4) 0.2234(3)
H30 H 0.4350 0.7229 0.2109
C24 C 0.2156(5) 0.3083(4) 0.1502(3)
H31 H 0.1950 0.2786 0.1275
H32 H 0.1941 0.2955 0.1806
C25 C 0.3184(6) 0.3106(4) 0.1501(3)
C26 C 0.3683(6) 0.2606(4) 0.1407(3)
H33 H 0.3401 0.2249 0.1307
C27 C 0.4611(7) 0.2638(4) 0.1462(3)
H34 H 0.4976 0.2299 0.1403
C28 C 0.5000(6) 0.3167(5) 0.1603(3)
H35 H 0.5633 0.3199 0.1645
C29 C 0.4439(6) 0.3648(4) 0.1680(3)
H36 H 0.4701 0.4013 0.1776
C30 C 0.0882(5) 0.3768(4) 0.1596(3)
H37 H 0.0509 0.3407 0.1554
H38 H 0.0578 0.4102 0.1438
C31 C 0.0954(6) 0.3909(3) 0.2102(3)
C32 C 0.0281(5) 0.3777(4) 0.2402(3)
H39 H -0.0241 0.3570 0.2302
C33 C 0.0362(6) 0.3947(4) 0.2856(4)
H40 H -0.0094 0.3851 0.3071
C34 C 0.1121(6) 0.4261(5) 0.2988(3)
H41 H 0.1192 0.4385 0.3295
C35 C 0.1768(5) 0.4389(4) 0.2671(3)
H42 H 0.2281 0.4610 0.2764
C36 C 0.1801(5) 0.3838(3) 0.0907(3)
H43 H 0.1258 0.3691 0.0747
H44 H 0.2340 0.3661 0.0761
C37 C 0.1845(5) 0.4504(4) 0.0881(3)
C38 C 0.1404(5) 0.5420(4) 0.0509(3)
H45 H 0.1980 0.5591 0.0628
C39 C 0.0639(6) 0.5626(5) 0.0830(3)
C40 C 0.1277(5) 0.5652(4) 0.0030(3)
H46 H 0.1037 0.6063 0.0043
H47 H 0.0830 0.5402 -0.0131
C41 C 0.2168(6) 0.5651(4) -0.0238(3)
C42 C 0.2425(7) 0.5158(4) -0.0495(3)
H48 H 0.2034 0.4825 -0.0518
C43 C 0.3267(6) 0.5152(4) -0.0720(3)
H49 H 0.3435 0.4816 -0.0897
C44 C 0.3846(6) 0.5631(4) -0.0686(3)
C45 C 0.3590(6) 0.6123(4) -0.0429(3)
H50 H 0.3977 0.6459 -0.0416
C46 C 0.2796(6) 0.6131(4) -0.0195(3)
H51 H 0.2657 0.6459 -0.0003
C47 C 0.7507(5) 0.5621(4) 0.1956(3)
H52 H 0.7158 0.5273 0.1847
H53 H 0.7174 0.5802 0.2213
C48 C 0.7593(6) 0.6061(4) 0.1581(3)
C49 C 0.6911(6) 0.6470(4) 0.1485(3)
H54 H 0.6406 0.6499 0.1683
C50 C 0.6958(7) 0.6833(4) 0.1104(3)
H55 H 0.6502 0.7118 0.1041
C51 C 0.7701(7) 0.6767(4) 0.0818(3)
H56 H 0.7741 0.6991 0.0544
C52 C 0.8375(7) 0.6377(4) 0.0932(3)
H57 H 0.8894 0.6355 0.0743
C53 C 0.8826(6) 0.5846(4) 0.2453(3)
H58 H 0.8611 0.5755 0.2765
H59 H 0.8644 0.6259 0.2378
C54 C 0.9839(6) 0.5790(4) 0.2432(3)
C55 C 1.0379(6) 0.5899(4) 0.2810(3)
H60 H 1.0112 0.5962 0.3101
C56 C 1.1291(6) 0.5914(4) 0.2764(3)
H61 H 1.1666 0.5995 0.3019
C57 C 1.1661(6) 0.5811(4) 0.2340(3)
H62 H 1.2295 0.5830 0.2299
C58 C 1.1116(6) 0.5681(4) 0.1984(3)
H63 H 1.1380 0.5593 0.1696
C59 C 0.8424(6) 0.4822(4) 0.2282(3)
H64 H 0.7879 0.4744 0.2467
H65 H 0.8961 0.4758 0.2476
C60 C 0.8450(6) 0.4402(4) 0.1874(3)
C61 C 0.8015(6) 0.3491(3) 0.1508(3)
H66 H 0.8628 0.3476 0.1367
C62 C 0.7337(6) 0.3740(4) 0.1151(3)
C63 C 0.7753(6) 0.2853(4) 0.1672(3)
H67 H 0.7177 0.2869 0.1842
H68 H 0.7668 0.2590 0.1404
C64 C 0.8478(6) 0.2602(4) 0.1974(3)
C65 C 0.9300(6) 0.2456(4) 0.1776(4)
H69 H 0.9385 0.2466 0.1455
C66 C 1.0025(7) 0.2288(4) 0.2086(5)
H70 H 1.0598 0.2181 0.1967
C67 C 0.9885(9) 0.2283(4) 0.2545(5)
C68 C 0.9053(10) 0.2419(4) 0.2726(4)
H71 H 0.8955 0.2392 0.3046
C69 C 0.8371(8) 0.2592(4) 0.2445(4)
H72 H 0.7810 0.2708 0.2573
Zn3_2 Zn -0.06847(6) 0.54407(4) 0.15099(3)
O6_2 O 1.0145(4) 0.5234(3) 0.1009(2)
H6_2 H 1.0315 0.4895 0.0923
S1 S 0.6438(2) 0.16331(12) 0.06280(9)
O13 O 0.6704(6) 0.2226(3) 0.0646(3)
O14 O 0.5429(5) 0.1613(4) 0.0657(3)
O15 O 0.6750(6) 0.1245(3) 0.0300(3)
C70 C 0.6686(9) 0.1337(5) 0.1166(4)
F1 F 0.6452(5) 0.0769(3) 0.1230(2)
F2 F 0.7636(5) 0.1321(4) 0.1197(3)
F3 F 0.6449(4) 0.1647(2) 0.1523(2)
S2 S 0.26968(18) 0.05136(12) 0.14858(9)
O16 O 0.2398(6) 0.1128(3) 0.1471(3)
O17 O 0.2980(4) 0.0313(3) 0.1926(2)
O18 O 0.2114(5) 0.0112(3) 0.1250(3)
C71 C 0.3684(11) 0.0471(10) 0.1156(5)
F4 F 0.4040(6) -0.0048(5) 0.1118(3)
F5 F 0.3586(6) 0.0685(4) 0.0739(3)
F6 F 0.4360(6) 0.0851(5) 0.1343(3)
S3 S 0.4153(3) -0.2292(3) 0.04414(14)
O19 O 0.4490(14) -0.2855(6) 0.0445(4)
O20 O 0.3304(11) -0.2242(12) 0.0681(8)
O21 O 0.4203(7) -0.2010(5) 0.0015(3)
C72 C 0.481(2) -0.1864(10) 0.0790(8)
F7 F 0.4650(6) -0.1276(5) 0.0797(3)
F8 F 0.5690(8) -0.1871(4) 0.0649(5)
F9 F 0.4876(15) -0.2048(6) 0.1196(4)
C73 C 0.5226(9) 0.3983(5) -0.0874(5)
H73 H 0.5588 0.3692 -0.1042
H74 H 0.4588 0.3873 -0.0892
H75 H 0.5415 0.3990 -0.0554
O22 O 0.5350(5) 0.4558(4) -0.1069(3)
H76 H 0.5898 0.4607 -0.1132
C74 C 0.7382(9) 0.3185(6) -0.0375(4)
H77 H 0.7162 0.3511 -0.0184
H78 H 0.7312 0.3292 -0.0698
H79 H 0.8021 0.3113 -0.0309
O23 O 0.6878(6) 0.2662(4) -0.0282(3)
H80 H 0.6897 0.2589 -0.0001
C75 C 0.3444(7) 0.4163(5) 0.3552(4)
H81 H 0.4007 0.4209 0.3723
H82 H 0.3034 0.3900 0.3721
H83 H 0.3160 0.4553 0.3511
O24 O 0.3636(5) 0.3905(3) 0.3109(2)
H84 H 0.3852 0.4167 0.2937
C76 C -0.3935(7) 0.4058(5) 0.2625(4)
H85 H -0.3885 0.4384 0.2846
H86 H -0.4452 0.3807 0.2704
H87 H -0.4021 0.4223 0.2319
O25 O -0.3128(4) 0.3709(3) 0.2634(2)
H88 H -0.2831 0.3790 0.2870
C77 C 0.6365(16) -0.2644(10) -0.0219(11)
H89 H 0.6020 -0.2501 -0.0482
H90 H 0.6948 -0.2799 -0.0322
H91 H 0.6463 -0.2315 -0.0006
O26 O 0.5822(11) -0.3155(6) 0.0028(7)
H92 H 0.5620 -0.3028 0.0277
C78 C -0.1854(10) 0.3565(6) 0.3660(5)
H93 H -0.1340 0.3302 0.3598
H94 H -0.2407 0.3328 0.3677
H95 H -0.1758 0.3771 0.3950
O27 O -0.1930(7) 0.3976(4) 0.3314(3)
H96 H -0.1986 0.4318 0.3427
C79 C 0.2670(8) 0.6617(6) 0.1300(5)
H97 H 0.2300 0.6832 0.1522
H98 H 0.2557 0.6189 0.1327
H99 H 0.2515 0.6750 0.0991
O28 O 0.3476(5) 0.6719(4) 0.1374(4)
H100 H 0.3599 0.7069 0.1294
C80 C -0.0560(9) 0.3886(7) 0.0317(5)
H101 H -0.0466 0.3982 0.0640
H102 H -0.0422 0.3465 0.0265
H103 H -0.1190 0.3964 0.0235
O29 O 0.0064(6) 0.4275(5) 0.0021(3)
H104 H -0.0046 0.4213 -0.0256
C82 C 0.4719(16) -0.2675(7) -0.1016(7)
H109 H 0.5133 -0.2823 -0.0782
H110 H 0.4562 -0.3001 -0.1224
H111 H 0.4170 -0.2523 -0.0871
O31 O 0.5109(10) -0.2246(4) -0.1247(5)
H112 H 0.4718 -0.2001 -0.1334
O33 O 0.5447(5) 0.2379(3) -0.0821(2)
C81? C -0.0981(14) 0.3109(9) 0.0409(7)
H105? H -0.1098 0.3478 0.0578
H106? H -0.1192 0.3153 0.0095
H107? H -0.0332 0.3027 0.0409
O30? O -0.1411(9) 0.2665(6) 0.0606(5)
H108? H -0.1274 0.2652 0.0884
C83? C 0.350(3) -0.3012(18) -0.1407(14)
H113? H 0.3454 -0.3012 -0.1074
H114? H 0.3775 -0.3387 -0.1509
H115? H 0.2903 -0.2969 -0.1542
O32? O 0.4056(16) -0.2529(12) -0.1547(11)
H116? H 0.3764 -0.2309 -0.1726
loop_
_geom_bond_atom_site_label_1
_geom_bond_atom_site_label_2
_geom_bond_site_symmetry_1
_geom_bond_site_symmetry_2
Zn1 N1 1_555 1_555
Zn2 N5 1_555 1_555
Zn3 N9 1_555 1_555
N1 C1 1_555 1_555
N2 Zn1 1_555 1_555
N3 Zn1 1_555 1_555
N4 H1 1_555 1_555
N5 C24 1_555 1_555
N6 Zn2 1_555 1_555
N7 Zn2 1_555 1_555
N8 H2 1_555 1_555
N9 C47 1_555 1_555
N10 Zn3 1_555 1_555
N11 Zn3 1_555 1_555
N12 H3 1_555 1_555
O1 Zn1 1_555 1_555
O2 Zn2 1_555 1_555
H4 O2 1_555 1_555
O3 C16 1_555 1_555
O4 H5 1_555 1_555
O5 C39 1_555 1_555
O6 H6 1_555 1_555
O7 Zn2 1_555 1_555
O8 H7 1_555 1_555
O9 C62 1_555 1_555
O10 Zn1 1_555 1_555
H8 O10 1_555 1_555
O11 Zn3 1_555 1_555
O12 H9 1_555 1_555
C1 H10 1_555 1_555
H11 C1 1_555 1_555
C2 N2 1_555 1_555
C3 C2 1_555 1_555
H12 C3 1_555 1_555
C4 C3 1_555 1_555
H13 C4 1_555 1_555
C5 C4 1_555 1_555
H14 C5 1_555 1_555
C6 N2 1_555 1_555
H15 C6 1_555 1_555
C7 N1 1_555 1_555
H16 C7 1_555 1_555
H17 C7 1_555 1_555
C8 N3 1_555 1_555
C9 C8 1_555 1_555
H18 C9 1_555 1_555
C10 C9 1_555 1_555
H19 C10 1_555 1_555
C11 C10 1_555 1_555
H20 C11 1_555 1_555
C12 N3 1_555 1_555
H21 C12 1_555 1_555
C13 N1 1_555 1_555
H22 C13 1_555 1_555
H23 C13 1_555 1_555
C14 N4 1_555 1_555
C15 N4 1_555 1_555
H24 C15 1_555 1_555
C16 O2 1_555 1_555
C17 C15 1_555 1_555
H25 C17 1_555 1_555
H26 C17 1_555 1_555
C18 C17 1_555 1_555
C19 C18 1_555 1_555
H27 C19 1_555 1_555
C20 C19 1_555 1_555
H28 C20 1_555 1_555
C21 O4 1_555 1_555
C22 C21 1_555 1_555
H29 C22 1_555 1_555
C23 C18 1_555 1_555
H30 C23 1_555 1_555
C24 H31 1_555 1_555
H32 C24 1_555 1_555
C25 N6 1_555 1_555
C26 C25 1_555 1_555
H33 C26 1_555 1_555
C27 C26 1_555 1_555
H34 C27 1_555 1_555
C28 C27 1_555 1_555
H35 C28 1_555 1_555
C29 N6 1_555 1_555
H36 C29 1_555 1_555
C30 N5 1_555 1_555
H37 C30 1_555 1_555
H38 C30 1_555 1_555
C31 N7 1_555 1_555
C32 C31 1_555 1_555
H39 C32 1_555 1_555
C33 C32 1_555 1_555
H40 C33 1_555 1_555
C34 C33 1_555 1_555
H41 C34 1_555 1_555
C35 N7 1_555 1_555
H42 C35 1_555 1_555
C36 N5 1_555 1_555
H43 C36 1_555 1_555
H44 C36 1_555 1_555
C37 N8 1_555 1_555
C38 N8 1_555 1_555
H45 C38 1_555 1_555
C39 O6 1_555 1_555
C40 C38 1_555 1_555
H46 C40 1_555 1_555
H47 C40 1_555 1_555
C41 C40 1_555 1_555
C42 C41 1_555 1_555
H48 C42 1_555 1_555
C43 C42 1_555 1_555
H49 C43 1_555 1_555
C44 O8 1_555 1_555
C45 C44 1_555 1_555
H50 C45 1_555 1_555
C46 C41 1_555 1_555
H51 C46 1_555 1_555
C47 H52 1_555 1_555
H53 C47 1_555 1_555
C48 N10 1_555 1_555
C49 C48 1_555 1_555
H54 C49 1_555 1_555
C50 C49 1_555 1_555
H55 C50 1_555 1_555
C51 C50 1_555 1_555
H56 C51 1_555 1_555
C52 N10 1_555 1_555
H57 C52 1_555 1_555
C53 N9 1_555 1_555
H58 C53 1_555 1_555
H59 C53 1_555 1_555
C54 N11 1_555 1_555
C55 C54 1_555 1_555
H60 C55 1_555 1_555
C56 C55 1_555 1_555
H61 C56 1_555 1_555
C57 C56 1_555 1_555
H62 C57 1_555 1_555
C58 N11 1_555 1_555
H63 C58 1_555 1_555
C59 N9 1_555 1_555
H64 C59 1_555 1_555
H65 C59 1_555 1_555
C60 N12 1_555 1_555
C61 N12 1_555 1_555
H66 C61 1_555 1_555
C62 O10 1_555 1_555
C63 C61 1_555 1_555
H67 C63 1_555 1_555
H68 C63 1_555 1_555
C64 C63 1_555 1_555
C65 C64 1_555 1_555
H69 C65 1_555 1_555
C66 C65 1_555 1_555
H70 C66 1_555 1_555
C67 O12 1_555 1_555
C68 C67 1_555 1_555
H71 C68 1_555 1_555
C69 C64 1_555 1_555
H72 C69 1_555 1_555
S1 O13 1_555 1_555
O14 S1 1_555 1_555
O15 S1 1_555 1_555
C70 S1 1_555 1_555
F1 C70 1_555 1_555
F2 C70 1_555 1_555
F3 C70 1_555 1_555
S2 O16 1_555 1_555
O17 S2 1_555 1_555
O18 S2 1_555 1_555
C71 S2 1_555 1_555
F4 C71 1_555 1_555
F5 C71 1_555 1_555
F6 C71 1_555 1_555
S3 O19 1_555 1_555
O20 S3 1_555 1_555
O21 S3 1_555 1_555
C72 S3 1_555 1_555
F7 C72 1_555 1_555
F8 C72 1_555 1_555
F9 C72 1_555 1_555
C73 H73 1_555 1_555
H74 C73 1_555 1_555
H75 C73 1_555 1_555
O22 C73 1_555 1_555
H76 O22 1_555 1_555
C74 H77 1_555 1_555
H78 C74 1_555 1_555
H79 C74 1_555 1_555
O23 C74 1_555 1_555
H80 O23 1_555 1_555
C75 H81 1_555 1_555
H82 C75 1_555 1_555
H83 C75 1_555 1_555
O24 C75 1_555 1_555
H84 O24 1_555 1_555
C76 H85 1_555 1_555
H86 C76 1_555 1_555
H87 C76 1_555 1_555
O25 C76 1_555 1_555
H88 O25 1_555 1_555
C77 H89 1_555 1_555
H90 C77 1_555 1_555
H91 C77 1_555 1_555
O26 C77 1_555 1_555
H92 O26 1_555 1_555
C78 H93 1_555 1_555
H94 C78 1_555 1_555
H95 C78 1_555 1_555
O27 C78 1_555 1_555
H96 O27 1_555 1_555
C79 H97 1_555 1_555
H98 C79 1_555 1_555
H99 C79 1_555 1_555
O28 C79 1_555 1_555
H100 O28 1_555 1_555
C80 H101 1_555 1_555
H102 C80 1_555 1_555
H103 C80 1_555 1_555
O29 C80 1_555 1_555
H104 O29 1_555 1_555
C82 H109 1_555 1_555
H110 C82 1_555 1_555
H111 C82 1_555 1_555
O31 C82 1_555 1_555
H112 O31 1_555 1_555
Zn3_2 O6 1_555 1_555
O6_2 Zn3 1_555 1_555
H6_2 O6_2 1_555 1_555
O1 C14 1_555 1_555
O7 C37 1_555 1_555
O11 C60 1_555 1_555
C1 C2 1_555 1_555
C5 C6 1_555 1_555
C7 C8 1_555 1_555
C11 C12 1_555 1_555
C13 C14 1_555 1_555
C15 C16 1_555 1_555
C20 C21 1_555 1_555
C22 C23 1_555 1_555
C24 C25 1_555 1_555
C28 C29 1_555 1_555
C30 C31 1_555 1_555
C34 C35 1_555 1_555
C36 C37 1_555 1_555
C38 C39 1_555 1_555
C43 C44 1_555 1_555
C45 C46 1_555 1_555
C47 C48 1_555 1_555
C51 C52 1_555 1_555
C53 C54 1_555 1_555
C57 C58 1_555 1_555
C59 C60 1_555 1_555
C61 C62 1_555 1_555
C66 C67 1_555 1_555
C68 C69 1_555 1_555

#END
