
#######################################################################
#
#                 Cambridge Crystallographic Data Centre
#                                CCDC 
#
#######################################################################
#
# If this CIF has been generated from an entry in the Cambridge 
# Structural Database, then it will include bibliographic, chemical, 
# crystal, experimental, refinement or atomic coordinate data resulting 
# from the CCDC's data processing and validation procedures.
#
#######################################################################

data_FIQSON
_symmetry_cell_setting           orthorhombic
_symmetry_space_group_name_H-M   'P b c a'
_symmetry_Int_Tables_number      61
_space_group_name_Hall           '-P 2ac 2ab'
loop_
_symmetry_equiv_pos_site_id
_symmetry_equiv_pos_as_xyz
1 x,y,z
2 1/2-x,-y,1/2+z
3 -x,1/2+y,1/2-z
4 1/2+x,1/2-y,-z
5 -x,-y,-z
6 1/2+x,y,1/2-z
7 x,1/2-y,1/2+z
8 1/2-x,1/2+y,z
_cell_length_a                   15.591(4)
_cell_length_b                   7.2274(15)
_cell_length_c                   40.355(5)
_cell_angle_alpha                90
_cell_angle_beta                 90
_cell_angle_gamma                90
_cell_volume                     4547.3
loop_
_atom_site_label
_atom_site_type_symbol
_atom_site_fract_x
_atom_site_fract_y
_atom_site_fract_z
Zn1 Zn 0.24770(7) 0.53857(18) 0.15033(2)
S1 S 0.16691(19) 0.5576(4) 0.10293(5)
S2 S 0.27969(17) 0.7868(4) 0.18529(5)
O1 O 0.3651(5) 0.5570(10) 0.12589(14)
C1 C 0.0589(7) 0.5890(15) 0.1102(2)
C2 C 0.0027(8) 0.6386(17) 0.0847(2)
C3 C -0.0827(9) 0.6564(19) 0.0877(3)
C4 C -0.1191(8) 0.625(2) 0.1185(3)
C5 C -0.0714(8) 0.5752(18) 0.1446(2)
C6 C 0.0173(7) 0.5578(15) 0.1404(2)
C7 C 0.2004(7) 0.7757(14) 0.21671(19)
C8 C 0.2244(8) 0.7212(17) 0.2482(2)
C9 C 0.1658(10) 0.7023(19) 0.2728(2)
C10 C 0.0803(10) 0.7422(16) 0.2672(2)
C11 C 0.0555(8) 0.7948(17) 0.2364(2)
C12 C 0.1153(7) 0.8137(16) 0.2115(2)
C13 C 0.4513(7) 0.6311(16) 0.0795(2)
C14 C 0.4448(7) 0.6779(18) 0.0458(2)
C15 C 0.5183(9) 0.7272(19) 0.0281(2)
H1 H 0.5135 0.7615 0.0055
C16 C 0.5985(8) 0.7268(16) 0.0433(2)
C17 C 0.6039(8) 0.6778(19) 0.0765(2)
H2 H 0.6587 0.6734 0.0867
C18 C 0.5333(7) 0.6358(15) 0.0949(2)
C19 C 0.3746(7) 0.5926(18) 0.0967(2)
H3 H 0.3237 0.5948 0.0837
C20 C 0.3596(10) 0.688(3) 0.0279(3)
H4 H 0.3282 0.7980 0.0354
H5 H 0.3260 0.5770 0.0329
H6 H 0.3696 0.6960 0.0040
C21 C 0.6764(9) 0.773(2) 0.0240(3)
H7 H 0.6891 0.6727 0.0085
H8 H 0.7248 0.7900 0.0392
H9 H 0.6666 0.8880 0.0116
C22 C 0.5436(8) 0.5855(17) 0.1311(2)
H10 H 0.5488 0.4510 0.1332
H11 H 0.4934 0.6284 0.1435
H12 H 0.5953 0.6448 0.1399
F1 F 0.0395(6) 0.6709(12) 0.05439(14)
F2 F -0.1291(7) 0.7093(15) 0.0617(2)
F3 F -0.2056(6) 0.6423(17) 0.1217(2)
F4 F -0.1051(6) 0.5469(12) 0.17404(18)
F5 F 0.0621(4) 0.5060(10) 0.16690(12)
F6 F 0.3057(5) 0.6804(11) 0.25461(14)
F7 F 0.1907(6) 0.6406(13) 0.30326(13)
F8 F 0.0220(6) 0.7219(11) 0.29131(14)
F9 F -0.0269(5) 0.8332(13) 0.23057(17)
F10 F 0.0878(5) 0.8736(10) 0.18190(13)
S2G S 0.22031(17) 0.2868(4) 0.18529(5)
Zn1G Zn 0.25230(7) 1.03857(18) 0.15033(2)
loop_
_geom_bond_atom_site_label_1
_geom_bond_atom_site_label_2
_geom_bond_site_symmetry_1
_geom_bond_site_symmetry_2
Zn1 S1 1_555 1_555
S1 C1 1_555 1_555
S2 Zn1 1_555 1_555
O1 Zn1 1_555 1_555
C1 C2 1_555 1_555
C2 C3 1_555 1_555
C3 C4 1_555 1_555
C4 C5 1_555 1_555
C5 C6 1_555 1_555
C6 C1 1_555 1_555
C7 S2 1_555 1_555
C8 C7 1_555 1_555
C9 C8 1_555 1_555
C10 C9 1_555 1_555
C11 C10 1_555 1_555
C12 C7 1_555 1_555
C13 C14 1_555 1_555
C14 C15 1_555 1_555
C15 H1 1_555 1_555
C16 C15 1_555 1_555
C17 C16 1_555 1_555
H2 C17 1_555 1_555
C18 C13 1_555 1_555
C19 O1 1_555 1_555
H3 C19 1_555 1_555
C20 C14 1_555 1_555
H4 C20 1_555 1_555
H5 C20 1_555 1_555
H6 C20 1_555 1_555
C21 C16 1_555 1_555
H7 C21 1_555 1_555
H8 C21 1_555 1_555
H9 C21 1_555 1_555
C22 C18 1_555 1_555
H10 C22 1_555 1_555
H11 C22 1_555 1_555
H12 C22 1_555 1_555
F1 C2 1_555 1_555
F2 C3 1_555 1_555
F3 C4 1_555 1_555
F4 C5 1_555 1_555
F5 C6 1_555 1_555
F6 C8 1_555 1_555
F7 C9 1_555 1_555
F8 C10 1_555 1_555
F9 C11 1_555 1_555
F10 C12 1_555 1_555
S2G Zn1 1_555 1_555
Zn1G S2 1_555 1_555
C11 C12 1_555 1_555
C13 C19 1_555 1_555
C17 C18 1_555 1_555

#END
