
#######################################################################
#
#                 Cambridge Crystallographic Data Centre
#                                CCDC 
#
#######################################################################
#
# If this CIF has been generated from an entry in the Cambridge 
# Structural Database, then it will include bibliographic, chemical, 
# crystal, experimental, refinement or atomic coordinate data resulting 
# from the CCDC's data processing and validation procedures.
#
#######################################################################

data_FIQXIM
_symmetry_cell_setting           orthorhombic
_symmetry_space_group_name_H-M   'I 2 2 2'
_symmetry_Int_Tables_number      23
_space_group_name_Hall           'I 2 2'
loop_
_symmetry_equiv_pos_site_id
_symmetry_equiv_pos_as_xyz
1 x,y,z
2 -x,-y,z
3 x,-y,-z
4 -x,y,-z
5 1/2+x,1/2+y,1/2+z
6 1/2-x,1/2-y,1/2+z
7 1/2+x,1/2-y,1/2-z
8 1/2-x,1/2+y,1/2-z
_cell_length_a                   8.001(5)
_cell_length_b                   22.990(20)
_cell_length_c                   4.982(3)
_cell_angle_alpha                90
_cell_angle_beta                 90
_cell_angle_gamma                90
_cell_volume                     916.404
loop_
_atom_site_label
_atom_site_type_symbol
_atom_site_fract_x
_atom_site_fract_y
_atom_site_fract_z
O1 O -0.1336(9) 0.5929(3) -0.014(4)
O2 O -0.017(4) 0.5387(6) 0.272(3)
N2 N -0.004(8) 0.5771(6) 0.075(3)
N2C N 0.004(8) 0.5771(6) -0.075(3)
O1C O 0.1336(9) 0.5929(3) 0.014(4)
O2C O 0.017(4) 0.5387(6) -0.272(3)
Ni1 Ni 0.50000 0.50000 0.50000
Cl1 Cl 0.50000 0.50000 0.00000
N1 N 0.6662(9) 0.5605(3) 0.480(3)
C1 C 0.5838(11) 0.6171(4) 0.430(2)
C2 C 0.6861(12) 0.6698(4) 0.525(5)
C3 C 0.5823(13) 0.7232(4) 0.428(3)
H1 H 0.76630 0.55210 0.63480
H2 H 0.72160 0.56480 0.31780
H3 H 0.56030 0.60550 0.22830
H4 H 0.78750 0.66410 0.54070
H5 H 0.69620 0.66530 0.73030
H6 H 0.65800 0.75990 0.52730
H7 H 0.58650 0.73820 0.21490
Cl1_2 Cl 0.50000 0.50000 1.00000
N1A N 0.3338(9) 0.4395(3) 0.480(3)
N1B N 0.6662(9) 0.4395(3) 0.520(3)
N1C N 0.3338(9) 0.5605(3) 0.520(3)
Ni1_2 Ni 0.50000 0.50000 -0.50000
C1C C 0.4162(11) 0.6171(4) 0.570(2)
C3C C 0.4177(13) 0.7232(4) 0.572(3)
C1A C 0.4162(11) 0.3829(4) 0.430(2)
H1A H 0.23370 0.44790 0.63480
H2A H 0.27840 0.43520 0.31780
C1B C 0.5838(11) 0.3829(4) 0.570(2)
H1B H 0.76630 0.44790 0.36520
H2B H 0.72160 0.43520 0.68220
H1C H 0.23370 0.55210 0.36520
H2C H 0.27840 0.56480 0.68220
C2C C 0.3139(12) 0.6698(4) 0.475(5)
H3C H 0.43970 0.60550 0.77170
H6C H 0.34200 0.75990 0.47270
H7C H 0.41350 0.73820 0.78510
C2A C 0.3139(12) 0.3302(4) 0.525(5)
H3A H 0.43970 0.39450 0.22830
C2B C 0.6861(12) 0.3302(4) 0.475(5)
H3B H 0.56030 0.39450 0.77170
H4C H 0.21250 0.66410 0.45930
H5C H 0.30380 0.66530 0.26970
C3A C 0.4177(13) 0.2768(4) 0.428(3)
H4A H 0.21250 0.33590 0.54070
H5A H 0.30380 0.33470 0.73030
C3B C 0.5823(13) 0.2768(4) 0.572(3)
H4B H 0.78750 0.33590 0.45930
H5B H 0.69620 0.33470 0.26970
H6A H 0.34200 0.24010 0.52730
H7A H 0.41350 0.26180 0.21490
H6B H 0.65800 0.24010 0.47270
H7B H 0.58650 0.26180 0.78510
loop_
_geom_bond_atom_site_label_1
_geom_bond_atom_site_label_2
_geom_bond_site_symmetry_1
_geom_bond_site_symmetry_2
Ni1 Cl1 1_555 1_555
Cl1 Ni1_2 1_555 1_555
N1 Ni1 1_555 1_555
C1 N1 1_555 1_555
C2 C1 1_555 1_555
C3 C2 1_555 1_555
O1 N2 1_555 1_555
O2 N2 1_555 1_555
N2 N2C 1_555 1_555
H1 N1 1_555 1_555
H2 N1 1_555 1_555
H3 C1 1_555 1_555
H4 C2 1_555 1_555
H5 C2 1_555 1_555
H6 C3 1_555 1_555
H7 C3 1_555 1_555
Cl1_2 Ni1 1_555 1_555
N1A Ni1 1_555 1_555
N1B Ni1 1_555 1_555
N1C Ni1 1_555 1_555
C1C C1 1_555 1_555
C3C C3 1_555 1_555
N2C O1 1_555 1_555
O1C N2 1_555 1_555
C1A N1A 1_555 1_555
H1A N1A 1_555 1_555
H2A N1A 1_555 1_555
C1B N1B 1_555 1_555
H1B N1B 1_555 1_555
H2B N1B 1_555 1_555
H1C N1C 1_555 1_555
H2C N1C 1_555 1_555
C2C C1C 1_555 1_555
H3C C1C 1_555 1_555
H6C C3C 1_555 1_555
H7C C3C 1_555 1_555
O2C N2C 1_555 1_555
C2A C1A 1_555 1_555
H3A C1A 1_555 1_555
C2B C1B 1_555 1_555
H3B C1B 1_555 1_555
H4C C2C 1_555 1_555
H5C C2C 1_555 1_555
C3A C2A 1_555 1_555
H4A C2A 1_555 1_555
H5A C2A 1_555 1_555
C3B C2B 1_555 1_555
H4B C2B 1_555 1_555
H5B C2B 1_555 1_555
H6A C3A 1_555 1_555
H7A C3A 1_555 1_555
H6B C3B 1_555 1_555
H7B C3B 1_555 1_555
N1C C1C 1_555 1_555
C3C C2C 1_555 1_555
N2C O1C 1_555 1_555
C1A C1B 1_555 1_555
C3A C3B 1_555 1_555

#END
