
#######################################################################
#
#                 Cambridge Crystallographic Data Centre
#                                CCDC 
#
#######################################################################
#
# If this CIF has been generated from an entry in the Cambridge 
# Structural Database, then it will include bibliographic, chemical, 
# crystal, experimental, refinement or atomic coordinate data resulting 
# from the CCDC's data processing and validation procedures.
#
#######################################################################

data_FIQYOV01
_symmetry_cell_setting           monoclinic
_symmetry_space_group_name_H-M   'C 2/c'
_symmetry_Int_Tables_number      15
_space_group_name_Hall           '-C 2yn'
loop_
_symmetry_equiv_pos_site_id
_symmetry_equiv_pos_as_xyz
1 x,y,z
2 -x,y,1/2-z
3 1/2+x,1/2+y,z
4 1/2-x,1/2+y,1/2-z
5 -x,-y,-z
6 x,-y,1/2+z
7 1/2-x,1/2-y,-z
8 1/2+x,1/2-y,1/2+z
_cell_length_a                   14.2067(13)
_cell_length_b                   16.6292(14)
_cell_length_c                   14.7442(14)
_cell_angle_alpha                90
_cell_angle_beta                 90.963(8)
_cell_angle_gamma                90
_cell_volume                     3482.77
loop_
_atom_site_label
_atom_site_type_symbol
_atom_site_fract_x
_atom_site_fract_y
_atom_site_fract_z
Zn1 Zn 0.21164(5) 0.33601(4) 0.49676(5)
S1 S 0.0000 0.24959(16) 0.2500
S2 S 0.5000 0.23405(18) 0.2500
O1 O 0.3168(5) 0.3365(4) 0.4014(5)
C1 C 0.0619(7) 0.1792(6) 0.3080(8)
O2 O 0.1307(4) 0.2746(3) 0.4037(4)
N1 N 0.1524(4) 0.4440(4) 0.4703(5)
N2 N 0.0983(4) 0.5667(4) 0.4806(6)
C2 C 0.1425(7) 0.5062(6) 0.5221(8)
C3 C 0.3694(7) 0.2825(6) 0.3754(8)
C4 C 0.4384(6) 0.3039(5) 0.3072(6)
C5 C 0.0357(6) 0.1036(6) 0.2833(7)
H1 H 0.0622 0.0572 0.3078
C6 C 0.1727(7) 0.7007(6) 0.5055(8)
C7 C 0.1129(6) 0.4631(6) 0.3895(8)
H2 H 0.1084 0.4280 0.3405
C8 C 0.4656(6) 0.3799(6) 0.2809(7)
H3 H 0.4390 0.4267 0.3036
C9 C 0.0806(7) 0.6491(5) 0.5117(8)
H4 H 0.0595 0.6481 0.5739
H5 H 0.0314 0.6733 0.4744
C10 C 0.0808(7) 0.5394(6) 0.3884(8)
H6 H 0.0539 0.5677 0.3402
C11 C 0.1743(7) 0.5151(5) 0.6152(8)
H7 H 0.1448 0.4751 0.6520
H8 H 0.1579 0.5677 0.6367
H9 H 0.2414 0.5085 0.6186
C12 C 0.1325(7) 0.2024(6) 0.3785(8)
O3 O 0.1852(4) 0.1471(4) 0.4091(5)
C13 C 0.2491 0.6765 0.4604
H10 H 0.2533 0.6246 0.4374
C14 C 0.1776(6) 0.7678(6) 0.5510(8)
H11 H 0.1309 0.7792 0.5925
O4 O 0.3697(4) 0.2107(4) 0.4025(4)
C1A C -0.0619(7) 0.1792(6) 0.1920(8)
O2A O -0.1307(4) 0.2746(3) 0.0963(4)
C5A C -0.0357(6) 0.1036(6) 0.2167(7)
H1A H -0.0622 0.0572 0.1922
C12A C -0.1325(7) 0.2024(6) 0.1215(8)
O3A O -0.1852(4) 0.1471(4) 0.0909(5)
O1A O 0.6832(5) 0.3365(4) 0.0986(5)
C3A C 0.6306(7) 0.2825(6) 0.1246(8)
C4A C 0.5616(6) 0.3039(5) 0.1928(6)
C8A C 0.5344(6) 0.3799(6) 0.2191(7)
H3A H 0.5610 0.4267 0.1964
O4A O 0.6303(4) 0.2107(4) 0.0975(4)
N1F N 0.3476(4) 1.0560(4) 0.5297(5)
N2F N 0.4017(4) 0.9333(4) 0.5194(6)
C2F C 0.3575(7) 0.9938(6) 0.4779(8)
C6F C 0.3273(7) 0.7993(6) 0.4945(8)
C7F C 0.3871(6) 1.0369(6) 0.6105(8)
H2F H 0.3916 1.0720 0.6595
C9F C 0.4194(7) 0.8509(5) 0.4883(8)
H4F H 0.4405 0.8519 0.4261
H5F H 0.4686 0.8267 0.5256
C10F C 0.4192(7) 0.9606(6) 0.6116(8)
H6F H 0.4461 0.9323 0.6598
C11F C 0.3257(7) 0.9849(5) 0.3848(8)
H7F H 0.3552 1.0249 0.3480
H8F H 0.3421 0.9323 0.3633
H9F H 0.2586 0.9915 0.3814
C13F C 0.2509 0.8235 0.5396
H10F H 0.2467 0.8754 0.5626
C14F C 0.3224(6) 0.7322(6) 0.4490(8)
H11F H 0.3691 0.7208 0.4075
Zn1A Zn -0.21164(5) 0.33601(4) 0.00324(5)
Zn1A_2 Zn 0.78836(5) 0.33601(4) 0.00324(5)
Zn1F Zn 0.28836(5) 0.16399(4) 0.50324(5)
Zn1F_2 Zn 0.28836(5) 1.16399(4) 0.50324(5)
Zn1G Zn -0.28836(5) 0.16399(4) -0.00324(5)
Zn1G_2 Zn 0.71164(5) 0.16399(4) -0.00324(5)
O1A_2 O -0.3168(5) 0.3365(4) 0.0986(5)
N1A N -0.1524(4) 0.4440(4) 0.0297(5)
O3F O 0.3148(4) 0.3529(4) 0.5909(5)
O3G O -0.3148(4) 0.3529(4) -0.0909(5)
O4F O 0.1303(4) 0.2893(4) 0.5975(4)
O4G O -0.1303(4) 0.2893(4) -0.0975(4)
loop_
_geom_bond_atom_site_label_1
_geom_bond_atom_site_label_2
_geom_bond_site_symmetry_1
_geom_bond_site_symmetry_2
Zn1 O1 1_555 1_555
S1 C1 1_555 1_555
S2 C4 1_555 1_555
O1 C3 1_555 1_555
C1 C5 1_555 1_555
O2 Zn1 1_555 1_555
N1 Zn1 1_555 1_555
N2 C2 1_555 1_555
C2 N1 1_555 1_555
C3 C4 1_555 1_555
C4 C8 1_555 1_555
C5 H1 1_555 1_555
C6 C9 1_555 1_555
C7 N1 1_555 1_555
H2 C7 1_555 1_555
C8 H3 1_555 1_555
C9 N2 1_555 1_555
H4 C9 1_555 1_555
H5 C9 1_555 1_555
C10 N2 1_555 1_555
H6 C10 1_555 1_555
C11 C2 1_555 1_555
H7 C11 1_555 1_555
H8 C11 1_555 1_555
H9 C11 1_555 1_555
C12 C1 1_555 1_555
O3 C12 1_555 1_555
C13 C6 1_555 1_555
H10 C13 1_555 1_555
C14 C6 1_555 1_555
H11 C14 1_555 1_555
O4 C3 1_555 1_555
C1A S1 1_555 1_555
O2A C12A 1_555 1_555
C5A C5 1_555 1_555
H1A C5A 1_555 1_555
C12A C1A 1_555 1_555
O3A C12A 1_555 1_555
O1A C3A 1_555 1_555
C3A C4A 1_555 1_555
C4A S2 1_555 1_555
C8A C8 1_555 1_555
H3A C8A 1_555 1_555
O4A C3A 1_555 1_555
N1F C2F 1_555 1_555
N2F C2F 1_555 1_555
C2F C11F 1_555 1_555
C6F C9F 1_555 1_555
C7F N1F 1_555 1_555
H2F C7F 1_555 1_555
C9F N2F 1_555 1_555
H4F C9F 1_555 1_555
H5F C9F 1_555 1_555
C10F N2F 1_555 1_555
H6F C10F 1_555 1_555
C11F H7F 1_555 1_555
H8F C11F 1_555 1_555
H9F C11F 1_555 1_555
C13F C14 1_555 1_555
H10F C13F 1_555 1_555
C14F C13 1_555 1_555
H11F C14F 1_555 1_555
Zn1A O2A 1_555 1_555
Zn1A_2 O1A 1_555 1_555
Zn1F O3 1_555 1_555
Zn1F_2 N1F 1_555 1_555
Zn1G O3A 1_555 1_555
Zn1G_2 O4A 1_555 1_555
O1A_2 Zn1A 1_555 1_555
N1A Zn1A 1_555 1_555
O3F Zn1 1_555 1_555
O3G Zn1A 1_555 1_555
O4F Zn1 1_555 1_555
O4G Zn1A 1_555 1_555
O2 C12 1_555 1_555
C7 C10 1_555 1_555
O4 Zn1F 1_555 1_555
C1A C5A 1_555 1_555
C4A C8A 1_555 1_555
C6F C13F 1_555 1_555
C6F C14F 1_555 1_555
C7F C10F 1_555 1_555

#END
