
#######################################################################
#
#                 Cambridge Crystallographic Data Centre
#                                CCDC 
#
#######################################################################
#
# If this CIF has been generated from an entry in the Cambridge 
# Structural Database, then it will include bibliographic, chemical, 
# crystal, experimental, refinement or atomic coordinate data resulting 
# from the CCDC's data processing and validation procedures.
#
#######################################################################

data_FIQYEL
_symmetry_cell_setting           triclinic
_symmetry_space_group_name_H-M   'P -1'
_symmetry_Int_Tables_number      2
_space_group_name_Hall           '-P 1'
loop_
_symmetry_equiv_pos_site_id
_symmetry_equiv_pos_as_xyz
1 x,y,z
2 -x,-y,-z
_cell_length_a                   6.9444(5)
_cell_length_b                   7.2209(5)
_cell_length_c                   15.6283(10)
_cell_angle_alpha                81.4330(8)
_cell_angle_beta                 79.1437(8)
_cell_angle_gamma                62.7916(7)
_cell_volume                     682.716
loop_
_atom_site_label
_atom_site_type_symbol
_atom_site_fract_x
_atom_site_fract_y
_atom_site_fract_z
Ni1 Ni 0.97918(3) 0.51542(3) 0.276975(13)
O1 O 0.6746(2) 0.1787(2) 0.23240(8)
O2 O 0.8387(2) 0.3866(2) 0.21352(8)
O3 O 0.7174(2) 0.1760(2) 0.68239(8)
O4 O 0.8889(2) 0.3788(2) 0.63922(8)
O5 O 0.7033(2) 0.7936(2) 0.28601(11)
H1 H 0.7141 0.8824 0.2436
H2 H 0.5887 0.7769 0.2829
N1 N 1.2733(3) 0.7597(2) 0.06311(9)
N2 N 0.8258(2) 0.3948(2) 0.38180(9)
C1 C 0.7553(3) 0.2776(3) 0.25980(11)
N3 N 1.1140(3) 0.6031(2) 0.16096(9)
O6 O 1.2530(2) 0.2318(2) 0.28679(13)
H3 H 1.2378 0.1326 0.2670
H4 H 1.3689 0.2395 0.2564
C2 C 0.7672(3) 0.2773(3) 0.53200(11)
C3 C 0.7921(3) 0.2787(3) 0.62638(10)
C4 C 1.4650(3) 1.1169(3) -0.07922(12)
H5 H 1.4414 1.1967 -0.1321
C5 C 0.7522(3) 0.2707(3) 0.35810(11)
C6 C 1.1293(3) 0.5417(3) 0.07931(12)
H6 H 1.0807 0.4484 0.0681
C7 C 0.6835(3) 0.1451(3) 0.41895(12)
H7 H 0.6309 0.0613 0.4013
C8 C 1.3892(3) 0.8818(3) 0.03020(11)
C9 C 1.3542(3) 0.9966(3) -0.04944(12)
H8 H 1.2577 0.9930 -0.0824
C10 C 1.2019(3) 0.7334(3) 0.14845(11)
H9 H 1.2134 0.7993 0.1927
C11 C 0.8269(3) 0.4018(3) 0.46687(11)
H10 H 0.8699 0.4947 0.4831
C12 C 0.6946(3) 0.1466(3) 0.50663(12)
H11 H 0.6535 0.0602 0.5482
C13 C 1.2261(3) 0.6383(3) 0.01798(11)
H12 H 1.2547 0.6254 -0.0420
N1A N 1.7267(3) 1.2403(2) -0.06311(9)
N3A N 1.8860(3) 1.3969(2) -0.16096(9)
C4A C 1.5350(3) 0.8831(3) 0.07922(12)
H5A H 1.5586 0.8033 0.1321
C6A C 1.8707(3) 1.4583(3) -0.07931(12)
H6A H 1.9193 1.5516 -0.0681
C8A C 1.6108(3) 1.1182(3) -0.03020(11)
C9A C 1.6458(3) 1.0034(3) 0.04944(12)
H8A H 1.7423 1.0070 0.0824
C10A C 1.7981(3) 1.2666(3) -0.14845(11)
H9A H 1.7866 1.2007 -0.1927
C13A C 1.7739(3) 1.3617(3) -0.01798(11)
H12A H 1.7453 1.3746 0.0420
Ni1A Ni 1.02082(3) 0.48458(3) 0.723025(13)
O1A O 1.3254(2) 0.8213(2) 0.76760(8)
O2A O 1.1613(2) 0.6134(2) 0.78648(8)
O3A O 1.2826(2) 0.8240(2) 0.31761(8)
O4A O 1.1111(2) 0.6212(2) 0.36078(8)
O5A O 1.2967(2) 0.2064(2) 0.71399(11)
H1A H 1.2859 0.1176 0.7564
H2A H 1.4113 0.2231 0.7171
N2A N 1.1742(2) 0.6052(2) 0.61820(9)
C1A C 1.2447(3) 0.7224(3) 0.74020(11)
O6A O 0.7470(2) 0.7682(2) 0.71321(13)
H3A H 0.7622 0.8674 0.7330
H4A H 0.6311 0.7605 0.7436
C2A C 1.2328(3) 0.7227(3) 0.46800(11)
C3A C 1.2079(3) 0.7213(3) 0.37362(10)
C5A C 1.2478(3) 0.7293(3) 0.64190(11)
C7A C 1.3165(3) 0.8549(3) 0.58105(12)
H7A H 1.3691 0.9387 0.5987
C11A C 1.1731(3) 0.5982(3) 0.53313(11)
H10A H 1.1301 0.5053 0.5169
C12A C 1.3054(3) 0.8534(3) 0.49337(12)
H11A H 1.3465 0.9398 0.4518
Ni1A_2 Ni 2.02082(3) 1.48458(3) -0.276975(13)
N3A_2 N 0.8860(3) 0.3969(2) 0.83904(9)
loop_
_geom_bond_atom_site_label_1
_geom_bond_atom_site_label_2
_geom_bond_site_symmetry_1
_geom_bond_site_symmetry_2
Ni1 O2 1_555 1_555
O1 C1 1_555 1_555
O2 C1 1_555 1_555
O3 C3 1_555 1_555
O4 C3 1_555 1_555
O5 Ni1 1_555 1_555
H1 O5 1_555 1_555
H2 O5 1_555 1_555
N1 C8 1_555 1_555
N2 Ni1 1_555 1_555
C1 C5 1_555 1_555
N3 Ni1 1_555 1_555
O6 Ni1 1_555 1_555
H3 O6 1_555 1_555
H4 O6 1_555 1_555
C2 C3 1_555 1_555
C4 H5 1_555 1_555
C5 N2 1_555 1_555
C6 N3 1_555 1_555
H6 C6 1_555 1_555
C7 C5 1_555 1_555
H7 C7 1_555 1_555
C8 C9 1_555 1_555
C9 C4 1_555 1_555
H8 C9 1_555 1_555
C10 N1 1_555 1_555
H9 C10 1_555 1_555
C11 N2 1_555 1_555
H10 C11 1_555 1_555
C12 C2 1_555 1_555
H11 C12 1_555 1_555
C13 N1 1_555 1_555
H12 C13 1_555 1_555
N1A C8A 1_555 1_555
N3A C6A 1_555 1_555
C4A C8 1_555 1_555
H5A C4A 1_555 1_555
C6A H6A 1_555 1_555
C8A C4 1_555 1_555
C9A C4A 1_555 1_555
H8A C9A 1_555 1_555
C10A N1A 1_555 1_555
H9A C10A 1_555 1_555
C13A N1A 1_555 1_555
H12A C13A 1_555 1_555
Ni1A O4 1_555 1_555
O1A C1A 1_555 1_555
O2A Ni1A 1_555 1_555
O3A C3A 1_555 1_555
O4A Ni1 1_555 1_555
O5A Ni1A 1_555 1_555
H1A O5A 1_555 1_555
H2A O5A 1_555 1_555
N2A Ni1A 1_555 1_555
C1A O2A 1_555 1_555
O6A Ni1A 1_555 1_555
H3A O6A 1_555 1_555
H4A O6A 1_555 1_555
C2A C3A 1_555 1_555
C3A O4A 1_555 1_555
C5A N2A 1_555 1_555
C7A C5A 1_555 1_555
H7A C7A 1_555 1_555
C11A N2A 1_555 1_555
H10A C11A 1_555 1_555
C12A C2A 1_555 1_555
H11A C12A 1_555 1_555
Ni1A_2 N3A 1_555 1_555
N3A_2 Ni1A 1_555 1_555
N3 C10 1_555 1_555
C2 C11 1_555 1_555
C6 C13 1_555 1_555
C7 C12 1_555 1_555
N3A C10A 1_555 1_555
C6A C13A 1_555 1_555
C8A C9A 1_555 1_555
C1A C5A 1_555 1_555
C2A C11A 1_555 1_555
C7A C12A 1_555 1_555

#END
