
#######################################################################
#
#                 Cambridge Crystallographic Data Centre
#                                CCDC 
#
#######################################################################
#
# If this CIF has been generated from an entry in the Cambridge 
# Structural Database, then it will include bibliographic, chemical, 
# crystal, experimental, refinement or atomic coordinate data resulting 
# from the CCDC's data processing and validation procedures.
#
#######################################################################

data_FIQZOV
_symmetry_cell_setting           triclinic
_symmetry_space_group_name_H-M   'P -1'
_symmetry_Int_Tables_number      2
_space_group_name_Hall           '-P 1'
loop_
_symmetry_equiv_pos_site_id
_symmetry_equiv_pos_as_xyz
1 x,y,z
2 -x,-y,-z
_cell_length_a                   7.7070(15)
_cell_length_b                   8.0490(16)
_cell_length_c                   14.128(3)
_cell_angle_alpha                96.90(3)
_cell_angle_beta                 97.03(3)
_cell_angle_gamma                103.25(3)
_cell_volume                     836.647
loop_
_atom_site_label
_atom_site_type_symbol
_atom_site_fract_x
_atom_site_fract_y
_atom_site_fract_z
Gd1 Gd 0.87123(7) 0.93140(7) 0.70989(4)
Gd2 Gd 1.40991(7) 0.01187(7) 0.79609(4)
O1 O 0.8559(13) 0.6259(13) 0.7221(8)
O2 O 1.1670(11) 0.1252(11) 0.7059(7)
O3 O 1.4010(13) 0.3170(13) 0.7903(8)
O4 O 0.9760(12) 1.1086(13) 0.8706(7)
O5 O 1.2538(12) 1.0898(12) 0.9210(6)
O6 O 1.3430(12) 1.1527(11) 1.1863(6)
O7 O 1.5565(11) 1.2050(11) 1.0991(6)
O8 O 0.6614(11) 1.1285(10) 0.7166(6)
O9 O 0.8170(12) 1.1294(13) 0.5968(7)
O10 O 0.6453(12) 1.1630(13) 0.3608(7)
O11 O 0.3929(12) 1.2215(13) 0.3961(7)
C1 C 1.1811(19) 0.4299(18) 0.7069(10)
H1 H 1.0949 0.3895 0.6479
H2 H 1.2784 0.5205 0.6941
C2 C 1.2546(18) 0.2851(17) 0.7354(10)
C3 C 1.1184(17) 1.1478(16) 0.9308(8)
C4 C 1.3218(17) 1.3501(16) 1.0727(9)
H3 H 1.3212 1.4457 1.1214
H4 H 1.3936 1.3969 1.0258
C5 C 1.4112(17) 1.2300(17) 1.1195(9)
C6 C 0.6957(17) 1.1816(18) 0.6367(9)
C7 C 0.5949(17) 1.2982(16) 0.5958(8)
H5 H 0.6080 1.3987 0.6439
H6 H 0.4678 1.2393 0.5812
C8 C 0.6586(15) 1.3588(14) 0.5028(8)
H7 H 0.7866 1.3661 0.5060
H8 H 0.6403 1.4731 0.4987
C9 C 0.5573(15) 1.2369(15) 0.4143(8)
O12 O 0.9947(15) 0.8289(16) 0.5680(8)
H9 H 1.021(18) 0.913(19) 0.549(10)
H10 H 1.0554 0.7759 0.5922
O13 O 1.6499(12) 0.1815(13) 0.9185(6)
H11 H 1.7397 0.1366 0.9205
H12 H 1.6148 0.1835 0.9732
C10 C 1.0161(17) 0.6531(15) 0.7585(9)
O14 O 1.1183(12) 0.8058(11) 0.7728(6)
C11 C 1.0884(17) 0.5034(18) 0.7860(9)
H13 H 0.9898 0.4132 0.7978
H14 H 1.1740 0.5416 0.8452
C12 C 1.1283(15) 1.2716(15) 1.0218(8)
H15 H 1.0593 1.2108 1.0657
H16 H 1.0736 1.3638 1.0057
Gd1_2 Gd 0.87123(7) -0.06860(7) 0.70989(4)
Gd1A Gd 1.12877(7) 1.06860(7) 1.29011(4)
Gd1A_2 Gd 0.12877(7) 1.06860(7) 0.29011(4)
Gd2_2 Gd 1.40991(7) 1.01187(7) 0.79609(4)
Gd2A Gd 1.59009(7) 0.98813(7) 1.20391(4)
Gd2_3 Gd 0.40991(7) 1.01187(7) 0.79609(4)
Gd2A_2 Gd 0.59009(7) 0.98813(7) 0.20391(4)
O2_2 O 1.1670(11) 1.1252(11) 0.7059(7)
O5_2 O 1.2538(12) 0.0898(12) 0.9210(6)
O6A O 0.6570(12) 0.8473(11) 0.8137(6)
O6A_2 O 1.6570(12) -0.1527(11) 0.8137(6)
O7A O 1.4435(11) -0.2050(11) 0.9009(6)
O8_2 O 1.6614(11) 0.1285(10) 0.7166(6)
O10A O 1.3547(12) -0.1630(13) 0.6392(7)
O11A O 0.6071(12) 0.7785(13) 0.6039(7)
O14_2 O 1.1183(12) -0.1942(11) 0.7728(6)
loop_
_geom_bond_atom_site_label_1
_geom_bond_atom_site_label_2
_geom_bond_site_symmetry_1
_geom_bond_site_symmetry_2
Gd1 O1 1_555 1_555
Gd2 O2 1_555 1_555
O1 C10 1_555 1_555
O2 C2 1_555 1_555
O3 Gd2 1_555 1_555
O4 Gd1 1_555 1_555
O5 C3 1_555 1_555
O6 C5 1_555 1_555
O7 C5 1_555 1_555
O8 Gd1 1_555 1_555
O9 Gd1 1_555 1_555
O10 C9 1_555 1_555
O11 C9 1_555 1_555
C1 H1 1_555 1_555
H2 C1 1_555 1_555
C2 O3 1_555 1_555
C3 O4 1_555 1_555
C4 H3 1_555 1_555
H4 C4 1_555 1_555
C5 C4 1_555 1_555
C6 O8 1_555 1_555
C7 C6 1_555 1_555
H5 C7 1_555 1_555
H6 C7 1_555 1_555
C8 C7 1_555 1_555
H7 C8 1_555 1_555
H8 C8 1_555 1_555
C9 C8 1_555 1_555
O12 Gd1 1_555 1_555
H9 O12 1_555 1_555
H10 O12 1_555 1_555
O13 Gd2 1_555 1_555
H11 O13 1_555 1_555
H12 O13 1_555 1_555
C10 O14 1_555 1_555
O14 Gd1 1_555 1_555
C11 C1 1_555 1_555
H13 C11 1_555 1_555
H14 C11 1_555 1_555
C12 C3 1_555 1_555
H15 C12 1_555 1_555
H16 C12 1_555 1_555
Gd1_2 O2 1_555 1_555
Gd1A O6 1_555 1_555
Gd1A_2 O11 1_555 1_555
Gd2_2 O5 1_555 1_555
Gd2A O6 1_555 1_555
Gd2_3 O8 1_555 1_555
Gd2A_2 O10 1_555 1_555
O2_2 Gd1 1_555 1_555
O5_2 Gd2 1_555 1_555
O6A Gd1 1_555 1_555
O6A_2 Gd2 1_555 1_555
O7A Gd2 1_555 1_555
O8_2 Gd2 1_555 1_555
O10A Gd2 1_555 1_555
O11A Gd1 1_555 1_555
O14_2 Gd2 1_555 1_555
O7 Gd2A 1_555 1_555
O9 C6 1_555 1_555
C1 C2 1_555 1_555
C4 C12 1_555 1_555
C10 C11 1_555 1_555
O14 Gd2_2 1_555 1_555
Gd1_2 O14_2 1_555 1_555
Gd2_2 O2_2 1_555 1_555
Gd2_3 O6A 1_555 1_555

#END
