
#######################################################################
#
#                 Cambridge Crystallographic Data Centre
#                                CCDC 
#
#######################################################################
#
# If this CIF has been generated from an entry in the Cambridge 
# Structural Database, then it will include bibliographic, chemical, 
# crystal, experimental, refinement or atomic coordinate data resulting 
# from the CCDC's data processing and validation procedures.
#
#######################################################################

data_FIQZEM
_symmetry_cell_setting           orthorhombic
_symmetry_space_group_name_H-M   'P 21 21 21'
_symmetry_Int_Tables_number      19
_space_group_name_Hall           'P 2ac 2ab'
loop_
_symmetry_equiv_pos_site_id
_symmetry_equiv_pos_as_xyz
1 x,y,z
2 1/2-x,-y,1/2+z
3 -x,1/2+y,1/2-z
4 1/2+x,1/2-y,-z
_cell_length_a                   6.7180(10)
_cell_length_b                   13.507(2)
_cell_length_c                   15.229(2)
_cell_angle_alpha                90
_cell_angle_beta                 90
_cell_angle_gamma                90
_cell_volume                     1381.88
loop_
_atom_site_label
_atom_site_type_symbol
_atom_site_fract_x
_atom_site_fract_y
_atom_site_fract_z
C1 C 0.1422(7) 0.5789(3) 0.7216(3)
C2 C 0.1397(8) 0.4794(3) 0.7020(3)
H1 H 0.1317 0.4591 0.6424
C3 C 0.1485(8) 0.4073(3) 0.7683(3)
H2 H 0.1580 0.3392 0.7531
C4 C 0.1434(8) 0.4351(3) 0.8549(3)
C5 C 0.1335(8) 0.5688(3) 0.9675(3)
H3 H 0.1308 0.5208 1.0131
C6 C 0.1335(9) 0.6667(3) 0.9888(3)
H4 H 0.1286 0.6862 1.0487
C7 C 0.1407(9) 0.7392(3) 0.9225(3)
H5 H 0.1405 0.8074 0.9378
C8 C 0.1480(8) 0.7120(3) 0.8366(3)
H6 H 0.1569 0.7618 0.7928
C9 C 0.1426(8) 0.6104(3) 0.8104(3)
C10 C 0.1374(8) 0.5366(3) 0.8784(3)
C11 C 0.1442(8) 0.6491(3) 0.6435(3)
C12 C 0.1404(8) 0.3536(3) 0.9224(3)
C13 C -0.1287(9) 0.5455(4) 0.3172(3)
H7 H -0.1267 0.6067 0.2865
C14 C -0.1337(10) 0.3675(4) 0.3119(5)
H8 H -0.0849 0.3738 0.3722
H9 H -0.0475 0.3219 0.2792
H10 H -0.2700 0.3416 0.3126
C15 C -0.1339(11) 0.4692(5) 0.1740(4)
H11 H -0.1222 0.5385 0.1556
H12 H -0.2590 0.4416 0.1517
H13 H -0.0217 0.4313 0.1503
Cd1 Cd -0.13223(5) 0.69377(2) 0.46847(2)
N1 N -0.1318(8) 0.4636(3) 0.2698(3)
O1 O 0.0471(5) 0.6212(2) 0.5768(2)
O2 O 0.2484(5) 0.7262(2) 0.6492(2)
O3 O 0.2719(5) 0.2862(2) 0.9154(2)
O4 O 0.0083(5) 0.3522(2) 0.9811(2)
O5 O -0.1282(6) 0.5488(2) 0.3981(2)
Cd1A Cd -0.36777(5) 0.30623(2) 0.96847(2)
Cd1A_2 Cd 0.63223(5) 0.30623(2) 0.96847(2)
Cd1B Cd 0.13223(5) 0.19377(2) 1.03153(2)
Cd1C Cd 0.36777(5) 0.80623(2) 0.53153(2)
O2C O -0.2516(5) 0.7738(2) 0.3508(2)
O3A O 0.2281(5) 0.7138(2) 0.4154(2)
O3B O -0.2719(5) 0.7862(2) 0.5846(2)
O4A O -0.5083(5) 0.6478(2) 0.4811(2)
O4B O -0.0083(5) 0.8522(2) 0.5189(2)
loop_
_geom_bond_atom_site_label_1
_geom_bond_atom_site_label_2
_geom_bond_site_symmetry_1
_geom_bond_site_symmetry_2
C1 C2 1_555 1_555
C2 H1 1_555 1_555
C3 C2 1_555 1_555
H2 C3 1_555 1_555
C4 C3 1_555 1_555
C5 H3 1_555 1_555
C6 C5 1_555 1_555
H4 C6 1_555 1_555
C7 C6 1_555 1_555
H5 C7 1_555 1_555
C8 C7 1_555 1_555
H6 C8 1_555 1_555
C9 C1 1_555 1_555
C10 C4 1_555 1_555
C11 C1 1_555 1_555
C12 C4 1_555 1_555
C13 H7 1_555 1_555
C14 H8 1_555 1_555
H9 C14 1_555 1_555
H10 C14 1_555 1_555
C15 H11 1_555 1_555
H12 C15 1_555 1_555
H13 C15 1_555 1_555
Cd1 O1 1_555 1_555
N1 C13 1_555 1_555
O1 C11 1_555 1_555
O2 C11 1_555 1_555
O3 C12 1_555 1_555
O4 C12 1_555 1_555
O5 C13 1_555 1_555
Cd1A O4 1_555 1_555
Cd1A_2 O3 1_555 1_555
Cd1B O3 1_555 1_555
Cd1C O2 1_555 1_555
O2C Cd1 1_555 1_555
O3A Cd1 1_555 1_555
O3B Cd1 1_555 1_555
O4A Cd1 1_555 1_555
O4B Cd1 1_555 1_555
C5 C10 1_555 1_555
C8 C9 1_555 1_555
C9 C10 1_555 1_555
C14 N1 1_555 1_555
C15 N1 1_555 1_555
Cd1 O5 1_555 1_555
O4 Cd1B 1_555 1_555
Cd1C O3A 1_555 1_555
Cd1C O4B 1_555 1_555

#END
