
#######################################################################
#
#                 Cambridge Crystallographic Data Centre
#                                CCDC 
#
#######################################################################
#
# If this CIF has been generated from an entry in the Cambridge 
# Structural Database, then it will include bibliographic, chemical, 
# crystal, experimental, refinement or atomic coordinate data resulting 
# from the CCDC's data processing and validation procedures.
#
#######################################################################

data_FIQZIP01
_symmetry_cell_setting           monoclinic
_symmetry_space_group_name_H-M   'C 2/c'
_symmetry_Int_Tables_number      15
_space_group_name_Hall           '-C 2yn'
loop_
_symmetry_equiv_pos_site_id
_symmetry_equiv_pos_as_xyz
1 x,y,z
2 1/2+x,1/2+y,z
3 -x,y,1/2-z
4 1/2-x,1/2+y,1/2-z
5 -x,-y,-z
6 1/2-x,1/2-y,-z
7 x,-y,1/2+z
8 1/2+x,1/2-y,1/2+z
_cell_length_a                   19.966(9)
_cell_length_b                   7.741(3)
_cell_length_c                   13.830(6)
_cell_angle_alpha                90
_cell_angle_beta                 121.610(5)
_cell_angle_gamma                90
_cell_volume                     1820.39
loop_
_atom_site_label
_atom_site_type_symbol
_atom_site_fract_x
_atom_site_fract_y
_atom_site_fract_z
Tb1 Tb 0.268770(16) 0.28332(3) -0.77007(2)
O1 O 0.1961(3) 0.2567(6) -0.6759(4)
O2 O 0.5936(2) 0.2291(5) 0.1199(4)
O3 O 0.1701(3) -0.2349(5) -0.4733(3)
O4 O 0.1864(2) 0.0177(5) 0.1355(3)
C1 C 0.5399(3) -0.0449(7) 0.0317(5)
H1 H 0.5380 -0.1373 0.0776
H2 H 0.5504 -0.0962 -0.0229
C2 C 0.1224(4) 0.1739(8) -0.5933(5)
H3 H 0.0784 0.2468 -0.6448
H4 H 0.1554 0.2399 -0.5246
C3 C 0.1692(3) 0.1312(6) -0.6474(4)
C4 C 0.1527(3) -0.0844(7) -0.4625(4)
C5 C 0.6055(3) 0.0763(7) 0.1067(4)
C6 C 0.0907(3) 0.0157(7) -0.5633(4)
H5 H 0.0655 -0.0606 -0.6285
H6 H 0.0509 0.0534 -0.5478
O5 O 0.1800(3) 0.0239(5) -0.1584(3)
O6 O 0.3334(2) 0.1119(5) -0.8487(3)
O8 O 0.6763(2) 0.0179(5) 0.1596(3)
Tb1F Tb 0.268770(16) -0.28332(3) -0.27007(2)
Tb1_2 Tb 0.268770(16) 0.28332(3) 0.22993(2)
Tb1B Tb 0.731230(16) 0.28332(3) 0.27007(2)
Tb1C Tb 0.231230(16) -0.21668(3) -0.72993(2)
Tb1A Tb 0.768770(16) -0.21668(3) 0.22993(2)
Tb1C_2 Tb 0.231230(16) -0.21668(3) 0.27007(2)
Tb1E Tb 0.231230(16) 0.21668(3) -0.22993(2)
O1F O 0.1961(3) -0.2567(6) -0.1759(4)
O2B O 0.4064(2) 0.2291(5) -0.6199(4)
O2D O 0.4064(2) -0.2291(5) -0.1199(4)
O3F O 0.1701(3) 0.2349(5) -0.9733(3)
O3F_2 O 0.1701(3) 0.2349(5) 0.0267(3)
O4_2 O 0.1864(2) 0.0177(5) -0.8645(3)
O4F O 0.1864(2) -0.0177(5) -0.3645(3)
O4E O 0.3136(2) -0.5177(5) -0.1355(3)
O4C O 0.3136(2) 0.5177(5) -0.6355(3)
C1D C 0.4601(3) 0.0449(7) -0.0317(5)
H1D H 0.4620 0.1373 -0.0776
H2D H 0.4496 0.0962 0.0229
C2F C 0.1224(4) -0.1739(8) -0.0933(5)
H3F H 0.0784 -0.2468 -0.1448
H4F H 0.1554 -0.2399 -0.0246
C3F C 0.1692(3) -0.1312(6) -0.1474(4)
C4F C 0.1527(3) 0.0844(7) 0.0375(4)
C5D C 0.3945(3) -0.0763(7) -0.1067(4)
C6F C 0.0907(3) -0.0157(7) -0.0633(4)
H5F H 0.0655 0.0606 -0.1285
H6F H 0.0509 -0.0534 -0.0478
O5E O 0.3200(3) 0.4761(5) -0.8416(3)
O5C O 0.3200(3) -0.4761(5) -0.3416(3)
O5F O 0.1800(3) -0.0239(5) -0.6584(3)
O6F O 0.3334(2) -0.1119(5) -0.3487(3)
O8B O 0.3237(2) 0.0179(5) -0.6596(3)
O8D O 0.3237(2) -0.0179(5) -0.1596(3)
O8G O 0.1763(2) -0.5179(5) -0.3404(3)
O8A O 0.1763(2) 0.5179(5) -0.8404(3)
O7 O 0.5000 0.029(2) -0.7500
loop_
_geom_bond_atom_site_label_1
_geom_bond_atom_site_label_2
_geom_bond_site_symmetry_1
_geom_bond_site_symmetry_2
Tb1 O1 1_555 1_555
O1 C3 1_555 1_555
O2 C5 1_555 1_555
O3 C4 1_555 1_555
O4 Tb1_2 1_555 1_555
C1 H1 1_555 1_555
H2 C1 1_555 1_555
C2 H3 1_555 1_555
H4 C2 1_555 1_555
C3 C2 1_555 1_555
C4 C6 1_555 1_555
C5 C1 1_555 1_555
C6 C2 1_555 1_555
H5 C6 1_555 1_555
H6 C6 1_555 1_555
O5 Tb1E 1_555 1_555
O6 Tb1 1_555 1_555
O8 C5 1_555 1_555
Tb1F O3 1_555 1_555
Tb1_2 O3F_2 1_555 1_555
Tb1B O2 1_555 1_555
Tb1C O4_2 1_555 1_555
Tb1A O8 1_555 1_555
Tb1C_2 O4 1_555 1_555
Tb1E O4F 1_555 1_555
O1F Tb1F 1_555 1_555
O2B Tb1 1_555 1_555
O2D Tb1F 1_555 1_555
O3F Tb1 1_555 1_555
O3F_2 C4F 1_555 1_555
O4_2 Tb1 1_555 1_555
O4F C4 1_555 1_555
O4E Tb1F 1_555 1_555
O4C Tb1 1_555 1_555
C1D C1 1_555 1_555
H1D C1D 1_555 1_555
H2D C1D 1_555 1_555
C2F H3F 1_555 1_555
H4F C2F 1_555 1_555
C3F O5 1_555 1_555
C4F O4 1_555 1_555
C5D O2D 1_555 1_555
C6F C2F 1_555 1_555
H5F C6F 1_555 1_555
H6F C6F 1_555 1_555
O5E Tb1 1_555 1_555
O5C Tb1F 1_555 1_555
O5F C3 1_555 1_555
O6F Tb1F 1_555 1_555
O8B Tb1 1_555 1_555
O8D Tb1F 1_555 1_555
O8G Tb1F 1_555 1_555
O8A Tb1 1_555 1_555
O8 Tb1B 1_555 1_555
Tb1F O4F 1_555 1_555
Tb1C O5F 1_555 1_555
Tb1C O8B 1_555 1_555
Tb1E O8D 1_555 1_555
O1F C3F 1_555 1_555
C1D C5D 1_555 1_555
C2F C3F 1_555 1_555
C4F C6F 1_555 1_555
C5D O8D 1_555 1_555

#END
