
#######################################################################
#
#                 Cambridge Crystallographic Data Centre
#                                CCDC 
#
#######################################################################
#
# If this CIF has been generated from an entry in the Cambridge 
# Structural Database, then it will include bibliographic, chemical, 
# crystal, experimental, refinement or atomic coordinate data resulting 
# from the CCDC's data processing and validation procedures.
#
#######################################################################

data_FIRBOX
_symmetry_cell_setting           monoclinic
_symmetry_space_group_name_H-M   'C 2/c'
_symmetry_Int_Tables_number      15
_space_group_name_Hall           '-C 2yn'
loop_
_symmetry_equiv_pos_site_id
_symmetry_equiv_pos_as_xyz
1 x,y,z
2 1/2+x,1/2+y,z
3 -x,y,1/2-z
4 1/2-x,1/2+y,1/2-z
5 -x,-y,-z
6 1/2-x,1/2-y,-z
7 x,-y,1/2+z
8 1/2+x,1/2-y,1/2+z
_cell_length_a                   19.077(4)
_cell_length_b                   9.995(3)
_cell_length_c                   14.588(4)
_cell_angle_alpha                90
_cell_angle_beta                 110.23(3)
_cell_angle_gamma                90
_cell_volume                     2609.97
loop_
_atom_site_label
_atom_site_type_symbol
_atom_site_fract_x
_atom_site_fract_y
_atom_site_fract_z
Fe1 Fe 0.0000 -0.99574(3) 0.2500
N1 N 0.07840(9) -1.00325(15) 0.18139(13)
C1 C 0.13370(9) -1.03527(16) 0.17821(11)
S1 S 0.21114(3) -1.08092(7) 0.17501(4)
N2 N -0.06659(8) -0.15304(14) 0.15006(10)
C2 C -0.08765(10) -0.14204(18) 0.05326(13)
C3 C -0.13473(10) -0.22942(19) -0.00989(13)
C4 C -0.16274(8) -0.33669(16) 0.02561(12)
C5 C -0.14115(10) -0.34783(18) 0.12595(14)
C6 C -0.09393(11) -0.25618(18) 0.18473(13)
C7 C -0.21297(10) -0.43530(18) -0.04189(14)
C8 C -0.17176(11) -0.5469(2) -0.07291(14)
C9 C -0.12472(9) -0.7954(2) 0.13511(15)
C10 C -0.16143(10) -0.7011(2) 0.06855(15)
C11 C -0.13085(9) -0.64128(16) 0.00706(12)
C12 C -0.06126(11) -0.6792(2) 0.02009(18)
C13 C -0.02726(11) -0.7735(2) 0.08937(18)
N3 N -0.05750(7) -0.83391(14) 0.14696(11)
H1 H -0.0681(13) -0.067(3) 0.0306(17)
H2 H -0.1494(12) -0.220(2) -0.0753(17)
H3 H -0.1585(12) -0.414(2) 0.1552(17)
H4 H -0.0778(12) -0.265(2) 0.2569(17)
H5 H -0.2401(13) -0.389(2) -0.0954(17)
H6 H -0.2438(14) -0.473(2) -0.0104(19)
H7 H -0.1409(14) -0.508(2) -0.1022(19)
H8 H -0.2047(13) -0.602(2) -0.1218(17)
H9 H -0.1442(12) -0.833(3) 0.1786(17)
H10 H -0.2057(13) -0.678(2) 0.0649(16)
H11 H -0.0376(13) -0.643(2) -0.0196(17)
H12 H 0.0220(13) -0.797(2) 0.1041(17)
Fe1_2 Fe 0.0000 0.00426(3) 0.2500
N1B N -0.07840(9) -1.00325(15) 0.31861(13)
C1B C -0.13370(9) -1.03527(16) 0.32179(11)
S1B S -0.21114(3) -1.08092(7) 0.32499(4)
N2_2 N -0.06659(8) -1.15304(14) 0.15006(10)
N2B N 0.06659(8) -1.15304(14) 0.34994(10)
N3B N 0.05750(7) -0.83391(14) 0.35304(11)
C9B C 0.12472(9) -0.7954(2) 0.36489(15)
C13B C 0.02726(11) -0.7735(2) 0.41063(18)
N2B_2 N 0.06659(8) -0.15304(14) 0.34994(10)
C2B C 0.08765(10) -0.14204(18) 0.44674(13)
C3B C 0.13473(10) -0.22942(19) 0.50989(13)
C4B C 0.16274(8) -0.33669(16) 0.47439(12)
C5B C 0.14115(10) -0.34783(18) 0.37405(14)
C6B C 0.09393(11) -0.25618(18) 0.31527(13)
H4B H 0.0778(12) -0.265(2) 0.2431(17)
H3B H 0.1585(12) -0.414(2) 0.3448(17)
C7B C 0.21297(10) -0.43530(18) 0.54189(14)
C8B C 0.17176(11) -0.5469(2) 0.57291(14)
C11B C 0.13085(9) -0.64128(16) 0.49294(12)
C10B C 0.16143(10) -0.7011(2) 0.43145(15)
H10B H 0.2057(13) -0.678(2) 0.4351(16)
C12B C 0.06126(11) -0.6792(2) 0.47991(18)
H11B H 0.0376(13) -0.643(2) 0.5196(17)
H7B H 0.1409(14) -0.508(2) 0.6022(19)
H8B H 0.2047(13) -0.602(2) 0.6218(17)
H5B H 0.2401(13) -0.389(2) 0.5954(17)
H6B H 0.2438(14) -0.473(2) 0.5104(19)
H2B H 0.1494(12) -0.220(2) 0.5753(17)
H1B H 0.0681(13) -0.067(3) 0.4694(17)
H9B H 0.1442(12) -0.833(3) 0.3214(17)
H12B H -0.0220(13) -0.797(2) 0.3959(17)
loop_
_geom_bond_atom_site_label_1
_geom_bond_atom_site_label_2
_geom_bond_site_symmetry_1
_geom_bond_site_symmetry_2
Fe1 N1 1_555 1_555
N1 C1 1_555 1_555
C1 S1 1_555 1_555
N2 C2 1_555 1_555
C2 C3 1_555 1_555
C3 C4 1_555 1_555
C4 C5 1_555 1_555
C5 C6 1_555 1_555
C6 N2 1_555 1_555
C7 C4 1_555 1_555
C8 C7 1_555 1_555
C9 C10 1_555 1_555
C10 C11 1_555 1_555
C11 C8 1_555 1_555
C12 C11 1_555 1_555
C13 C12 1_555 1_555
N3 Fe1 1_555 1_555
H1 C2 1_555 1_555
H2 C3 1_555 1_555
H3 C5 1_555 1_555
H4 C6 1_555 1_555
H5 C7 1_555 1_555
H6 C7 1_555 1_555
H7 C8 1_555 1_555
H8 C8 1_555 1_555
H9 C9 1_555 1_555
H10 C10 1_555 1_555
H11 C12 1_555 1_555
H12 C13 1_555 1_555
Fe1_2 N2 1_555 1_555
N1B Fe1 1_555 1_555
C1B N1B 1_555 1_555
S1B C1B 1_555 1_555
N2_2 Fe1 1_555 1_555
N2B Fe1 1_555 1_555
N3B Fe1 1_555 1_555
C9B N3B 1_555 1_555
C13B N3B 1_555 1_555
N2B_2 Fe1_2 1_555 1_555
C2B N2B_2 1_555 1_555
C3B C2B 1_555 1_555
C4B C3B 1_555 1_555
C5B C4B 1_555 1_555
C6B N2B_2 1_555 1_555
H4B C6B 1_555 1_555
H3B C5B 1_555 1_555
C7B C4B 1_555 1_555
C8B C7B 1_555 1_555
C11B C8B 1_555 1_555
C10B C9B 1_555 1_555
H10B C10B 1_555 1_555
C12B C13B 1_555 1_555
H11B C12B 1_555 1_555
H7B C8B 1_555 1_555
H8B C8B 1_555 1_555
H5B C7B 1_555 1_555
H6B C7B 1_555 1_555
H2B C3B 1_555 1_555
H1B C2B 1_555 1_555
H9B C9B 1_555 1_555
H12B C13B 1_555 1_555
C9 N3 1_555 1_555
C13 N3 1_555 1_555
C5B C6B 1_555 1_555
C11B C10B 1_555 1_555
C11B C12B 1_555 1_555

#END
