
#######################################################################
#
#                 Cambridge Crystallographic Data Centre
#                                CCDC 
#
#######################################################################
#
# If this CIF has been generated from an entry in the Cambridge 
# Structural Database, then it will include bibliographic, chemical, 
# crystal, experimental, refinement or atomic coordinate data resulting 
# from the CCDC's data processing and validation procedures.
#
#######################################################################

data_FIRCIS01
_symmetry_cell_setting           monoclinic
_symmetry_space_group_name_H-M   'C 2/c'
_symmetry_Int_Tables_number      15
_space_group_name_Hall           '-C 2yn'
loop_
_symmetry_equiv_pos_site_id
_symmetry_equiv_pos_as_xyz
1 x,y,z
2 1/2+x,1/2+y,z
3 x,-y,1/2+z
4 1/2+x,1/2-y,1/2+z
5 -x,-y,-z
6 1/2-x,1/2-y,-z
7 -x,y,1/2-z
8 1/2-x,1/2+y,1/2-z
_cell_length_a                   19.749(5)
_cell_length_b                   9.892(3)
_cell_length_c                   14.400(4)
_cell_angle_alpha                90.00
_cell_angle_beta                 110.319(4)
_cell_angle_gamma                90.00
_cell_volume                     2638.09
loop_
_atom_site_label
_atom_site_type_symbol
_atom_site_fract_x
_atom_site_fract_y
_atom_site_fract_z
Co1 Co 0.5000 0.00324(4) 0.2500
S1 S 0.71151(3) -0.08185(6) 0.17379(4)
N1 N 0.57653(10) -0.00488(17) 0.17934(13)
N2 N 0.44305(9) 0.16303(17) 0.14821(12)
C1 C 0.36846(11) 0.3579(2) 0.00607(15)
C2 C 0.32647(11) 0.4526(2) -0.07554(15)
H1 H 0.2921 0.4001 -0.1277
H2 H 0.3596 0.4945 -0.1032
C3 C 0.43918(11) 0.3216(2) 0.02039(16)
H3 H 0.4633 0.3615 -0.0176
C4 C 0.47383(11) 0.2263(2) 0.09106(16)
H4 H 0.5214 0.2049 0.0994
C5 C 0.37530(11) 0.2012(2) 0.13665(15)
H5 H 0.3527 0.1612 0.1766
C6 C 0.28518(11) 0.5650(2) -0.04315(15)
H6 H 0.2540 0.6123 -0.1012
H7 H 0.2550 0.5246 -0.0100
C7 C 0.63278(11) -0.0373(2) 0.17629(14)
C8 C 0.33756(11) 0.2967(2) 0.06863(15)
H8 H 0.2910 0.3203 0.0645
N3 N 0.43470(9) 0.84842(17) 0.15149(12)
C9 C 0.40726(11) 0.7438(2) 0.18716(15)
H9 H 0.4218 0.7331 0.2555
C10 C 0.35880(11) 0.6520(2) 0.12783(15)
H10 H 0.3413 0.5820 0.1563
C11 C 0.36432(11) 0.7723(2) -0.01167(15)
H11 H 0.3505 0.7853 -0.0797
C12 C 0.41284(11) 0.8602(2) 0.05268(15)
H12 H 0.4312 0.9309 0.0260
C13 C 0.33617(10) 0.6643(2) 0.02547(15)
N1F N 0.42347(10) -0.00488(17) 0.32066(13)
C7F C 0.36722(11) -0.0373(2) 0.32371(14)
S1F S 0.28849(3) -0.08185(6) 0.32621(4)
N3_2 N 0.43470(9) -0.15158(17) 0.15149(12)
Co1_2 Co 0.5000 1.00324(4) 0.2500
N3F N 0.56530(9) 0.84842(17) 0.34851(12)
N2F N 0.55695(9) 0.16303(17) 0.35179(12)
N3F_2 N 0.56530(9) -0.15158(17) 0.34851(12)
C9F C 0.59274(11) 0.7438(2) 0.31284(15)
C12F C 0.58716(11) 0.8602(2) 0.44732(15)
C4F C 0.52617(11) 0.2263(2) 0.40894(16)
C5F C 0.62470(11) 0.2012(2) 0.36335(15)
H9F H 0.5782 0.7331 0.2445
C10F C 0.64120(11) 0.6520(2) 0.37217(15)
C11F C 0.63568(11) 0.7723(2) 0.51167(15)
H12F H 0.5688 0.9309 0.4740
C3F C 0.56082(11) 0.3216(2) 0.47961(16)
H4F H 0.4786 0.2049 0.4006
H5F H 0.6473 0.1612 0.3234
C8F C 0.66244(11) 0.2967(2) 0.43137(15)
H10F H 0.6587 0.5820 0.3437
C13F C 0.66383(10) 0.6643(2) 0.47453(15)
H11F H 0.6495 0.7853 0.5797
C1F C 0.63154(11) 0.3579(2) 0.49393(15)
H3F H 0.5367 0.3615 0.5176
H8F H 0.7090 0.3203 0.4355
C6F C 0.71482(11) 0.5650(2) 0.54315(15)
C2F C 0.67353(11) 0.4526(2) 0.57554(15)
H6F H 0.7460 0.6123 0.6012
H7F H 0.7450 0.5246 0.5100
H1F H 0.7079 0.4001 0.6277
H2F H 0.6404 0.4945 0.6032
loop_
_geom_bond_atom_site_label_1
_geom_bond_atom_site_label_2
_geom_bond_site_symmetry_1
_geom_bond_site_symmetry_2
Co1 N1 1_555 1_555
S1 C7 1_555 1_555
N1 C7 1_555 1_555
N2 Co1 1_555 1_555
C1 C2 1_555 1_555
C2 H1 1_555 1_555
H2 C2 1_555 1_555
C3 C1 1_555 1_555
H3 C3 1_555 1_555
C4 N2 1_555 1_555
H4 C4 1_555 1_555
C5 N2 1_555 1_555
H5 C5 1_555 1_555
C6 C2 1_555 1_555
H6 C6 1_555 1_555
H7 C6 1_555 1_555
C8 C1 1_555 1_555
H8 C8 1_555 1_555
N3 C9 1_555 1_555
C9 H9 1_555 1_555
C10 C9 1_555 1_555
H10 C10 1_555 1_555
C11 H11 1_555 1_555
C12 N3 1_555 1_555
H12 C12 1_555 1_555
C13 C6 1_555 1_555
N1F Co1 1_555 1_555
C7F N1F 1_555 1_555
S1F C7F 1_555 1_555
N3_2 Co1 1_555 1_555
Co1_2 N3 1_555 1_555
N3F Co1_2 1_555 1_555
N2F Co1 1_555 1_555
N3F_2 Co1 1_555 1_555
C9F N3F 1_555 1_555
C12F N3F 1_555 1_555
C4F N2F 1_555 1_555
C5F N2F 1_555 1_555
H9F C9F 1_555 1_555
C10F C9F 1_555 1_555
C11F C12F 1_555 1_555
H12F C12F 1_555 1_555
C3F C4F 1_555 1_555
H4F C4F 1_555 1_555
H5F C5F 1_555 1_555
C8F C5F 1_555 1_555
H10F C10F 1_555 1_555
C13F C10F 1_555 1_555
H11F C11F 1_555 1_555
C1F C3F 1_555 1_555
H3F C3F 1_555 1_555
H8F C8F 1_555 1_555
C6F C13F 1_555 1_555
C2F C1F 1_555 1_555
H6F C6F 1_555 1_555
H7F C6F 1_555 1_555
H1F C2F 1_555 1_555
H2F C2F 1_555 1_555
C3 C4 1_555 1_555
C5 C8 1_555 1_555
C10 C13 1_555 1_555
C11 C12 1_555 1_555
C11 C13 1_555 1_555
C11F C13F 1_555 1_555
C8F C1F 1_555 1_555
C6F C2F 1_555 1_555

#END
