
#######################################################################
#
#                 Cambridge Crystallographic Data Centre
#                                CCDC 
#
#######################################################################
#
# If this CIF has been generated from an entry in the Cambridge 
# Structural Database, then it will include bibliographic, chemical, 
# crystal, experimental, refinement or atomic coordinate data resulting 
# from the CCDC's data processing and validation procedures.
#
#######################################################################

data_FIRFAN
_symmetry_cell_setting           orthorhombic
_symmetry_space_group_name_H-M   'P 21 21 21'
_symmetry_Int_Tables_number      19
_space_group_name_Hall           'P 2ac 2ab'
loop_
_symmetry_equiv_pos_site_id
_symmetry_equiv_pos_as_xyz
1 x,y,z
2 1/2-x,-y,1/2+z
3 1/2+x,1/2-y,-z
4 -x,1/2+y,1/2-z
_cell_length_a                   9.185(4)
_cell_length_b                   11.075(4)
_cell_length_c                   21.099(7)
_cell_angle_alpha                90
_cell_angle_beta                 90
_cell_angle_gamma                90
_cell_volume                     2146.27
loop_
_atom_site_label
_atom_site_type_symbol
_atom_site_fract_x
_atom_site_fract_y
_atom_site_fract_z
Sb1 Sb 0.0784(1) 0.2088(1) 0.24613(6)
P1 P 0.0205(5) -0.0521(5) 0.1590(2)
O1 O 0.111(1) 0.034(1) 0.1964(6)
O2 O 0.097(1) 0.380(1) 0.3062(6)
C1 C 0.124(2) 0.110(2) 0.3289(8)
C2 C 0.047(2) 0.002(2) 0.339(1)
C3 C 0.075(3) -0.065(2) 0.394(1)
C4 C 0.167(3) -0.026(2) 0.440(1)
C5 C 0.243(3) 0.079(2) 0.430(1)
C6 C 0.223(2) 0.145(2) 0.373(1)
C7 C 0.301(2) 0.247(2) 0.2181(8)
C8 C 0.336(3) 0.359(2) 0.198(2)
C9 C 0.480(3) 0.381(3) 0.177(2)
C10 C 0.582(3) 0.293(3) 0.185(1)
C11 C 0.545(2) 0.183(3) 0.208(1)
C12 C 0.403(2) 0.157(2) 0.224(1)
C13 C -0.067(2) 0.027(1) 0.0956(7)
C14 C 0.012(3) 0.087(2) 0.049(1)
C15 C -0.049(3) 0.146(2) 0.001(1)
C16 C -0.198(4) 0.146(3) -0.004(1)
C17 C -0.285(3) 0.092(2) 0.040(1)
C18 C -0.219(2) 0.030(2) 0.091(1)
C19 C 0.145(2) -0.154(2) 0.122(1)
C20 C 0.286(3) -0.165(4) 0.145(2)
C21 C 0.372(4) -0.257(4) 0.119(2)
C22 C 0.322(4) -0.331(3) 0.072(1)
C23 C 0.186(4) -0.318(2) 0.048(2)
C24 C 0.099(3) -0.230(2) 0.073(1)
H1 H -0.0264 -0.0257 0.3082
H2 H 0.0259 -0.1445 0.4047
H3 H 0.1854 -0.0737 0.4821
H4 H 0.3108 0.1126 0.4639
H5 H 0.2872 0.2182 0.3665
H6 H 0.2671 0.4349 0.2024
H7 H 0.5160 0.4560 0.1564
H8 H 0.6838 0.3095 0.1701
H9 H 0.6267 0.1245 0.2076
H10 H 0.3773 0.0671 0.2387
H11 H 0.1245 0.0839 0.0513
H12 H 0.0152 0.1834 -0.0343
H13 H -0.2437 0.1845 -0.0432
H14 H -0.3941 0.0937 0.0356
H15 H -0.2839 -0.0107 0.1237
H16 H 0.3206 -0.1385 0.1814
H17 H 0.4827 -0.2753 0.1316
H18 H 0.3798 -0.3978 0.0559
H19 H 0.1542 -0.3703 0.0097
H20 H -0.0011 -0.2192 0.0553
O2C O -0.097(1) -0.120(1) 0.1938(6)
P1C P -0.0205(5) 0.4479(5) 0.3410(2)
Sb1C Sb -0.0784(1) -0.2912(1) 0.25387(6)
O1C O -0.111(1) 0.534(1) 0.3036(6)
C13C C 0.067(2) 0.527(1) 0.4044(7)
C19C C -0.145(2) 0.346(2) 0.378(1)
O1C_2 O -0.111(1) -0.466(1) 0.3036(6)
C1C C -0.124(2) -0.390(2) 0.1711(8)
C7C C -0.301(2) -0.253(2) 0.2819(8)
Sb1C_2 Sb -0.0784(1) 0.7088(1) 0.25387(6)
C14C C -0.012(3) 0.587(2) 0.451(1)
C18C C 0.219(2) 0.530(2) 0.409(1)
C20C C -0.286(3) 0.335(4) 0.355(2)
C24C C -0.099(3) 0.270(2) 0.427(1)
C2C C -0.047(2) -0.498(2) 0.161(1)
C6C C -0.223(2) -0.355(2) 0.127(1)
C8C C -0.336(3) -0.141(2) 0.302(2)
C12C C -0.403(2) -0.343(2) 0.276(1)
C15C C 0.049(3) 0.646(2) 0.499(1)
H11C H -0.1245 0.5839 0.4487
C17C C 0.285(3) 0.592(2) 0.460(1)
H15C H 0.2839 0.4893 0.3763
C21C C -0.372(4) 0.243(4) 0.381(2)
H16C H -0.3206 0.3615 0.3186
C23C C -0.186(4) 0.182(2) 0.452(2)
H20C H 0.0011 0.2808 0.4447
C3C C -0.075(3) -0.565(2) 0.106(1)
H1C H 0.0264 -0.5257 0.1918
C5C C -0.243(3) -0.421(2) 0.070(1)
H5C H -0.2872 -0.2818 0.1335
C9C C -0.480(3) -0.119(3) 0.323(2)
H6C H -0.2671 -0.0651 0.2976
C11C C -0.545(2) -0.317(3) 0.292(1)
H10C H -0.3773 -0.4329 0.2613
C16C C 0.198(4) 0.646(3) 0.504(1)
H12C H -0.0152 0.6834 0.5343
H14C H 0.3941 0.5937 0.4644
C22C C -0.322(4) 0.169(3) 0.428(1)
H17C H -0.4827 0.2247 0.3684
H19C H -0.1542 0.1297 0.4903
C4C C -0.167(3) -0.526(2) 0.060(1)
H2C H -0.0259 -0.6445 0.0953
H4C H -0.3108 -0.3874 0.0361
C10C C -0.582(3) -0.207(3) 0.315(1)
H7C H -0.5160 -0.0440 0.3436
H9C H -0.6267 -0.3755 0.2924
H13C H 0.2437 0.6845 0.5432
H18C H -0.3798 0.1022 0.4441
H3C H -0.1854 -0.5737 0.0179
H8C H -0.6838 -0.1905 0.3299
loop_
_geom_bond_atom_site_label_1
_geom_bond_atom_site_label_2
_geom_bond_site_symmetry_1
_geom_bond_site_symmetry_2
Sb1 O1 1_555 1_555
P1 O1 1_555 1_555
O2 Sb1 1_555 1_555
C1 Sb1 1_555 1_555
C2 C1 1_555 1_555
C3 C2 1_555 1_555
C4 C3 1_555 1_555
C5 C4 1_555 1_555
C6 C1 1_555 1_555
C7 Sb1 1_555 1_555
C8 C7 1_555 1_555
C9 C8 1_555 1_555
C10 C9 1_555 1_555
C11 C10 1_555 1_555
C12 C7 1_555 1_555
C13 P1 1_555 1_555
C14 C13 1_555 1_555
C15 C14 1_555 1_555
C16 C15 1_555 1_555
C17 C16 1_555 1_555
C18 C13 1_555 1_555
C19 P1 1_555 1_555
C20 C19 1_555 1_555
C21 C20 1_555 1_555
C22 C21 1_555 1_555
C23 C22 1_555 1_555
C24 C19 1_555 1_555
H1 C2 1_555 1_555
H2 C3 1_555 1_555
H3 C4 1_555 1_555
H4 C5 1_555 1_555
H5 C6 1_555 1_555
H6 C8 1_555 1_555
H7 C9 1_555 1_555
H8 C10 1_555 1_555
H9 C11 1_555 1_555
H10 C12 1_555 1_555
H11 C14 1_555 1_555
H12 C15 1_555 1_555
H13 C16 1_555 1_555
H14 C17 1_555 1_555
H15 C18 1_555 1_555
H16 C20 1_555 1_555
H17 C21 1_555 1_555
H18 C22 1_555 1_555
H19 C23 1_555 1_555
H20 C24 1_555 1_555
O2C P1 1_555 1_555
P1C O2 1_555 1_555
Sb1C O2C 1_555 1_555
O1C P1C 1_555 1_555
C13C P1C 1_555 1_555
C19C P1C 1_555 1_555
O1C_2 Sb1C 1_555 1_555
C1C Sb1C 1_555 1_555
C7C Sb1C 1_555 1_555
Sb1C_2 O1C 1_555 1_555
C14C C13C 1_555 1_555
C18C C13C 1_555 1_555
C20C C19C 1_555 1_555
C24C C19C 1_555 1_555
C2C C1C 1_555 1_555
C6C C1C 1_555 1_555
C8C C7C 1_555 1_555
C12C C7C 1_555 1_555
C15C C14C 1_555 1_555
H11C C14C 1_555 1_555
C17C C18C 1_555 1_555
H15C C18C 1_555 1_555
C21C C20C 1_555 1_555
H16C C20C 1_555 1_555
C23C C24C 1_555 1_555
H20C C24C 1_555 1_555
C3C C2C 1_555 1_555
H1C C2C 1_555 1_555
C5C C6C 1_555 1_555
H5C C6C 1_555 1_555
C9C C8C 1_555 1_555
H6C C8C 1_555 1_555
C11C C12C 1_555 1_555
H10C C12C 1_555 1_555
C16C C15C 1_555 1_555
H12C C15C 1_555 1_555
H14C C17C 1_555 1_555
C22C C21C 1_555 1_555
H17C C21C 1_555 1_555
H19C C23C 1_555 1_555
C4C C3C 1_555 1_555
H2C C3C 1_555 1_555
H4C C5C 1_555 1_555
C10C C9C 1_555 1_555
H7C C9C 1_555 1_555
H9C C11C 1_555 1_555
H13C C16C 1_555 1_555
H18C C22C 1_555 1_555
H3C C4C 1_555 1_555
H8C C10C 1_555 1_555
C5 C6 1_555 1_555
C11 C12 1_555 1_555
C17 C18 1_555 1_555
C23 C24 1_555 1_555
C17C C16C 1_555 1_555
C23C C22C 1_555 1_555
C5C C4C 1_555 1_555
C11C C10C 1_555 1_555

#END
