
#######################################################################
#
#                 Cambridge Crystallographic Data Centre
#                                CCDC 
#
#######################################################################
#
# If this CIF has been generated from an entry in the Cambridge 
# Structural Database, then it will include bibliographic, chemical, 
# crystal, experimental, refinement or atomic coordinate data resulting 
# from the CCDC's data processing and validation procedures.
#
#######################################################################

data_FIRFIX
_symmetry_cell_setting           triclinic
_symmetry_space_group_name_H-M   'P -1'
_symmetry_Int_Tables_number      2
_space_group_name_Hall           '-P 1'
loop_
_symmetry_equiv_pos_site_id
_symmetry_equiv_pos_as_xyz
1 x,y,z
2 -x,-y,-z
_cell_length_a                   10.4401(6)
_cell_length_b                   12.6101(5)
_cell_length_c                   13.2633(8)
_cell_angle_alpha                112.457(5)
_cell_angle_beta                 108.122(6)
_cell_angle_gamma                90.422(4)
_cell_volume                     1517.75
loop_
_atom_site_label
_atom_site_type_symbol
_atom_site_fract_x
_atom_site_fract_y
_atom_site_fract_z
Zn1 Zn 0.70773(4) 0.34360(4) 0.73134(3)
O1 O 0.3989(3) 0.0768(2) 0.1247(2)
O2 O 0.1296(3) 0.1179(2) -0.2153(2)
O3 O 0.1550(3) -0.3046(2) -0.3537(2)
O4 O 0.2992(3) -0.3247(2) -0.1967(2)
O5 O 0.8403(3) 0.3390(2) 0.8989(3)
O6 O 0.7803(3) 0.1733(3) 0.7590(2)
O7 O 0.9027(4) 0.1891(3) 0.9307(3)
O8 O 0.6031(3) 0.4879(2) 0.6909(2)
O9 O 0.7134(3) 0.5324(2) 0.8720(2)
O10 O 0.5972(3) 0.6547(2) 0.8200(2)
N1 N 0.6272(3) 0.2331(2) 0.5520(2)
N2 N 0.5311(3) 0.3117(2) -0.2296(2)
N3 N -0.1100(3) -0.5888(2) -0.2748(2)
N4 N 0.8426(3) 0.2320(3) 0.8646(3)
N5 N 0.6373(3) 0.5601(2) 0.7944(3)
C1 C 0.3309(4) 0.0235(3) 0.0069(3)
C2 C 0.2736(4) 0.0973(3) -0.0429(3)
H1 H 0.2852 0.1764 0.0021
C3 C 0.1983(4) 0.0531(3) -0.1607(3)
C4 C 0.1857(4) -0.0646(3) -0.2275(3)
H2 H 0.1357 -0.0945 -0.3064
C5 C 0.2468(3) -0.1372(3) -0.1777(3)
C6 C 0.3210(4) -0.0943(3) -0.0576(3)
H3 H 0.3616 -0.1432 -0.0233
C7 C 0.4496(4) 0.0092(3) 0.1870(3)
H4 H 0.5173 -0.0335 0.1592
H5 H 0.3763 -0.0462 0.1762
C8 C 0.5134(3) 0.0885(3) 0.3149(3)
C9 C 0.5686(4) 0.0452(3) 0.3961(3)
H6 H 0.5687 -0.0343 0.3728
C10 C 0.6243(4) 0.1174(3) 0.5124(3)
H7 H 0.6611 0.0848 0.5654
C11 C 0.5734(3) 0.2753(3) 0.4720(3)
H8 H 0.5741 0.3551 0.4969
C12 C 0.5168(3) 0.2075(3) 0.3544(3)
H9 H 0.4814 0.2415 0.3024
C13 C 0.1675(4) 0.2417(3) -0.1641(4)
H10 H 0.1823 0.2716 -0.0816
H11 H 0.0948 0.2774 -0.1991
C14 C 0.2964(4) 0.2709(3) -0.1832(3)
C15 C 0.4197(4) 0.3187(4) -0.0947(3)
H12 H 0.4260 0.3382 -0.0181
C16 C 0.5332(4) 0.3375(4) -0.1209(3)
H13 H 0.6156 0.3695 -0.0603
C17 C 0.4116(3) 0.2681(3) -0.3145(3)
H14 H 0.4075 0.2520 -0.3900
C18 C 0.2930(4) 0.2455(3) -0.2956(3)
H15 H 0.2118 0.2136 -0.3576
C19 C 0.2274(4) -0.2619(3) -0.2528(3)
C20 C 0.2705(4) -0.4478(3) -0.2666(4)
H16 H 0.3418 -0.4859 -0.2336
H17 H 0.2687 -0.4625 -0.3444
C21 C 0.1349(4) -0.4964(3) -0.2718(3)
C22 C 0.0991(4) -0.4587(3) -0.1738(3)
H18 H 0.1566 -0.4012 -0.1052
C23 C -0.0222(4) -0.5065(3) -0.1778(3)
H19 H -0.0444 -0.4807 -0.1104
C24 C -0.0758(4) -0.6228(3) -0.3702(3)
H20 H -0.1363 -0.6783 -0.4387
C25 C 0.0444(4) -0.5797(3) -0.3725(3)
H21 H 0.0644 -0.6063 -0.4408
Zn1_2 Zn -0.29227(4) -0.65640(4) -0.26866(3)
Zn1_3 Zn 0.70773(4) 0.34360(4) -0.26866(3)
N2_2 N 0.5311(3) 0.3117(2) 0.7704(2)
N3_2 N 0.8900(3) 0.4112(2) 0.7252(2)
O11 O 0.2250(5) 0.1306(5) 0.4330(4)
N6 N 0.1531(3) 0.1886(3) 0.2854(3)
C26 C 0.0945(5) 0.1561(7) 0.1628(5)
H22 H 0.0731 0.0732 0.1239
H23 H 0.1584 0.1830 0.1361
H24 H 0.0129 0.1903 0.1465
C27 C 0.1931(6) 0.3116(4) 0.3619(6)
H25 H 0.2331 0.3202 0.4408
H26 H 0.1143 0.3507 0.3544
H27 H 0.2582 0.3449 0.3408
C28 C 0.1725(5) 0.1114(4) 0.3320(4)
H28 H 0.1423 0.0342 0.2811
O12 O 0.9457(10) 0.0702(8) 0.5174(8)
H29 H 0.9789 0.0973 0.5910
H30? H 0.9866 0.0230 0.5041
loop_
_geom_bond_atom_site_label_1
_geom_bond_atom_site_label_2
_geom_bond_site_symmetry_1
_geom_bond_site_symmetry_2
Zn1 O5 1_555 1_555
O1 C1 1_555 1_555
O2 C3 1_555 1_555
O3 C19 1_555 1_555
O4 C19 1_555 1_555
O5 N4 1_555 1_555
O6 Zn1 1_555 1_555
O7 N4 1_555 1_555
O8 Zn1 1_555 1_555
O9 Zn1 1_555 1_555
O10 N5 1_555 1_555
N1 Zn1 1_555 1_555
N2 C16 1_555 1_555
N3 C23 1_555 1_555
N4 O6 1_555 1_555
N5 O8 1_555 1_555
C1 C2 1_555 1_555
C2 H1 1_555 1_555
C3 C2 1_555 1_555
C4 C3 1_555 1_555
H2 C4 1_555 1_555
C5 C4 1_555 1_555
C6 C1 1_555 1_555
H3 C6 1_555 1_555
C7 O1 1_555 1_555
H4 C7 1_555 1_555
H5 C7 1_555 1_555
C8 C7 1_555 1_555
C9 C8 1_555 1_555
H6 C9 1_555 1_555
C10 N1 1_555 1_555
H7 C10 1_555 1_555
C11 N1 1_555 1_555
H8 C11 1_555 1_555
C12 C8 1_555 1_555
H9 C12 1_555 1_555
C13 O2 1_555 1_555
H10 C13 1_555 1_555
H11 C13 1_555 1_555
C14 C13 1_555 1_555
C15 C14 1_555 1_555
H12 C15 1_555 1_555
C16 C15 1_555 1_555
H13 C16 1_555 1_555
C17 N2 1_555 1_555
H14 C17 1_555 1_555
C18 C14 1_555 1_555
H15 C18 1_555 1_555
C19 C5 1_555 1_555
C20 O4 1_555 1_555
H16 C20 1_555 1_555
H17 C20 1_555 1_555
C21 C20 1_555 1_555
C22 C21 1_555 1_555
H18 C22 1_555 1_555
C23 C22 1_555 1_555
H19 C23 1_555 1_555
C24 N3 1_555 1_555
H20 C24 1_555 1_555
C25 C21 1_555 1_555
H21 C25 1_555 1_555
O11 C28 1_555 1_555
N6 C26 1_555 1_555
C26 H22 1_555 1_555
H23 C26 1_555 1_555
H24 C26 1_555 1_555
C27 N6 1_555 1_555
H25 C27 1_555 1_555
H26 C27 1_555 1_555
H27 C27 1_555 1_555
C28 N6 1_555 1_555
H28 C28 1_555 1_555
O12 H29 1_555 1_555
Zn1_2 N3 1_555 1_555
Zn1_3 N2 1_555 1_555
N2_2 Zn1 1_555 1_555
N3_2 Zn1 1_555 1_555
O9 N5 1_555 1_555
C5 C6 1_555 1_555
C9 C10 1_555 1_555
C11 C12 1_555 1_555
C17 C18 1_555 1_555
C24 C25 1_555 1_555

#END
