
#######################################################################
#
#                 Cambridge Crystallographic Data Centre
#                                CCDC 
#
#######################################################################
#
# If this CIF has been generated from an entry in the Cambridge 
# Structural Database, then it will include bibliographic, chemical, 
# crystal, experimental, refinement or atomic coordinate data resulting 
# from the CCDC's data processing and validation procedures.
#
#######################################################################

data_FIRFER
_symmetry_cell_setting           monoclinic
_symmetry_space_group_name_H-M   'P 21/n'
_symmetry_Int_Tables_number      14
_space_group_name_Hall           '-P 2yn'
loop_
_symmetry_equiv_pos_site_id
_symmetry_equiv_pos_as_xyz
1 x,y,z
2 1/2-x,1/2+y,1/2-z
3 -x,-y,-z
4 1/2+x,1/2-y,1/2+z
_cell_length_a                   9.842(4)
_cell_length_b                   10.561(4)
_cell_length_c                   21.182(7)
_cell_angle_alpha                90
_cell_angle_beta                 93.19(4)
_cell_angle_gamma                90
_cell_volume                     2198.27
loop_
_atom_site_label
_atom_site_type_symbol
_atom_site_fract_x
_atom_site_fract_y
_atom_site_fract_z
Sb1 Sb 0.36005(3) -0.62348(3) 0.26226(1)
P1 P 0.2822(1) -0.3797(1) 0.14930(5)
O1 O 0.3605(3) -0.4391(3) 0.2046(1)
S1 S 0.0880(1) -0.3323(1) 0.16246(6)
C1 C 0.4203(5) -0.5019(4) 0.3398(2)
C2 C 0.5284(5) -0.5293(5) 0.3821(2)
C3 C 0.5629(6) -0.4489(6) 0.4324(3)
C4 C 0.4872(8) -0.3405(6) 0.4401(3)
C5 C 0.3802(8) -0.3116(6) 0.3990(3)
C6 C 0.3461(6) -0.3922(5) 0.3485(2)
C7 C 0.5618(5) -0.6466(4) 0.2296(2)
C8 C 0.6473(5) -0.5416(5) 0.2286(2)
C9 C 0.7709(6) -0.5493(6) 0.2017(3)
C10 C 0.8105(6) -0.6635(7) 0.1756(3)
C11 C 0.7266(6) -0.7671(6) 0.1768(3)
C12 C 0.6020(6) -0.7596(5) 0.2040(3)
C13 C 0.2864(5) -0.4818(4) 0.0807(2)
C14 C 0.1888(6) -0.4777(6) 0.0313(2)
C15 C 0.2044(8) -0.5526(7) -0.0217(3)
C16 C 0.3141(8) -0.6333(7) -0.0246(3)
C17 C 0.4107(7) -0.6370(6) 0.0244(3)
C18 C 0.3989(6) -0.5616(5) 0.0770(2)
C19 C 0.3744(4) -0.2391(4) 0.1285(2)
C20 C 0.3249(5) -0.1600(5) 0.0801(2)
C21 C 0.3958(6) -0.0533(6) 0.0639(3)
C22 C 0.5172(7) -0.0247(6) 0.0955(3)
C23 C 0.5678(6) -0.1010(6) 0.1434(3)
C24 C 0.4966(6) -0.2084(5) 0.1605(3)
H1 H 0.5833 -0.6096 0.3758
H2 H 0.6434 -0.4704 0.4628
H3 H 0.5123 -0.2822 0.4772
H4 H 0.3240 -0.2314 0.4052
H5 H 0.2656 -0.3714 0.3177
H6 H 0.6174 -0.4591 0.2479
H7 H 0.8328 -0.4721 0.2003
H8 H 0.9015 -0.6695 0.1559
H9 H 0.7557 -0.8503 0.1574
H10 H 0.5402 -0.8369 0.2054
H11 H 0.1069 -0.4190 0.0342
H12 H 0.1332 -0.5477 -0.0587
H13 H 0.3230 -0.6887 -0.0630
H14 H 0.4721 -0.5629 0.1128
H15 H 0.2354 -0.1814 0.0568
H16 H 0.3579 0.0039 0.0283
H17 H 0.5699 0.0535 0.0835
H18 H 0.6576 -0.0782 0.1664
H19 H 0.5348 -0.2645 0.1969
S1A S 0.4120(1) -0.8323(1) 0.33754(6)
Sb1A Sb 0.13995(3) -0.12348(3) 0.23774(1)
loop_
_geom_bond_atom_site_label_1
_geom_bond_atom_site_label_2
_geom_bond_site_symmetry_1
_geom_bond_site_symmetry_2
Sb1 O1 1_555 1_555
P1 O1 1_555 1_555
S1 P1 1_555 1_555
C1 Sb1 1_555 1_555
C2 C1 1_555 1_555
C3 C2 1_555 1_555
C4 C3 1_555 1_555
C5 C4 1_555 1_555
C6 C1 1_555 1_555
C7 Sb1 1_555 1_555
C8 C7 1_555 1_555
C9 C8 1_555 1_555
C10 C9 1_555 1_555
C11 C10 1_555 1_555
C12 C7 1_555 1_555
C13 P1 1_555 1_555
C14 C13 1_555 1_555
C15 C14 1_555 1_555
C16 C15 1_555 1_555
C17 C16 1_555 1_555
C18 C13 1_555 1_555
C19 P1 1_555 1_555
C20 C19 1_555 1_555
C21 C20 1_555 1_555
C22 C21 1_555 1_555
C23 C22 1_555 1_555
C24 C19 1_555 1_555
H1 C2 1_555 1_555
H2 C3 1_555 1_555
H3 C4 1_555 1_555
H4 C5 1_555 1_555
H5 C6 1_555 1_555
H6 C8 1_555 1_555
H7 C9 1_555 1_555
H8 C10 1_555 1_555
H9 C11 1_555 1_555
H10 C12 1_555 1_555
H11 C14 1_555 1_555
H12 C15 1_555 1_555
H13 C16 1_555 1_555
H14 C18 1_555 1_555
H15 C20 1_555 1_555
H16 C21 1_555 1_555
H17 C22 1_555 1_555
H18 C23 1_555 1_555
H19 C24 1_555 1_555
S1A Sb1 1_555 1_555
Sb1A S1 1_555 1_555
C5 C6 1_555 1_555
C11 C12 1_555 1_555
C17 C18 1_555 1_555
C23 C24 1_555 1_555

#END
