
#######################################################################
#
#                 Cambridge Crystallographic Data Centre
#                                CCDC 
#
#######################################################################
#
# If this CIF has been generated from an entry in the Cambridge 
# Structural Database, then it will include bibliographic, chemical, 
# crystal, experimental, refinement or atomic coordinate data resulting 
# from the CCDC's data processing and validation procedures.
#
#######################################################################

data_FIRGAQ
_symmetry_cell_setting           triclinic
_symmetry_space_group_name_H-M   'P -1'
_symmetry_Int_Tables_number      2
_space_group_name_Hall           '-P 1'
loop_
_symmetry_equiv_pos_site_id
_symmetry_equiv_pos_as_xyz
1 x,y,z
2 -x,-y,-z
_cell_length_a                   9.010(3)
_cell_length_b                   11.919(3)
_cell_length_c                   14.052(4)
_cell_angle_alpha                104.308(3)
_cell_angle_beta                 105.047(5)
_cell_angle_gamma                98.273(6)
_cell_volume                     1376.76
loop_
_atom_site_label
_atom_site_type_symbol
_atom_site_fract_x
_atom_site_fract_y
_atom_site_fract_z
Ni1 Ni 0.10195(2) 0.483507(17) 0.713064(15)
O1 O 0.27710(19) 0.24965(13) 0.71941(10)
O2 O 0.64767(17) 0.12817(13) 1.17546(10)
O3 O 0.12896(15) 0.35445(11) 0.59030(9)
H1 H 0.1764 0.3046 0.6136
H2 H 0.0383 0.3170 0.5474
N1 N 0.05062(19) 0.77032(13) 0.93753(12)
O4 O 0.70324(15) 0.39854(11) 1.28738(9)
O5 O -0.02638(18) 0.55822(13) 0.60340(12)
H3 H 0.0000 0.5305 0.5875
H4 H 0.0000 0.6338 0.6280
N2 N -0.31562(18) 0.22365(14) 0.62636(13)
O6 O 0.23286(17) 0.41254(12) 0.81654(10)
O7 O 0.68673(18) 0.48001(13) 1.44467(11)
C1 C -0.4101(2) 0.10969(16) 0.56204(14)
C2 C 0.4891(2) 0.22818(15) 1.07915(13)
C3 C 0.5483(2) 0.18754(15) 1.17120(13)
C4 C 0.0252(2) 0.88761(15) 0.96967(14)
C5 C 0.5079(2) 0.29971(16) 1.34004(13)
C6 C -0.0596(2) 0.91271(16) 1.03836(16)
N3 N 0.08239(17) 0.60807(12) 0.83734(11)
C7 C 0.6435(2) 0.40082(15) 1.35963(13)
C8 C -0.0854(2) 1.02606(16) 1.06885(15)
N4 N -0.11079(19) 0.37520(14) 0.69638(13)
C9 C 0.0514(2) 0.71305(15) 0.84178(13)
H5 H 0.0324 0.7441 0.7863
C10 C 0.4981(3) 0.16382(17) 0.98491(15)
H6 H 0.5488 0.1010 0.9812
C11 C 0.3632(2) 0.29040(15) 0.90123(13)
C12 C 0.4633(2) 0.20313(15) 1.25127(13)
C13 C 0.2851(2) 0.31963(15) 0.80428(13)
C14 C 0.3609(3) 0.35777(17) 0.99679(15)
H7 H 0.3188 0.4250 1.0015
C15 C -0.4651(3) -0.05730(19) 0.41268(17)
C16 C 0.2551(3) 0.1143(2) 1.30605(18)
H8 H 0.1710 0.0524 1.2948
C17 C 0.4321(3) 0.19295(18) 0.89616(15)
H9 H 0.4339 0.1468 0.8328
C18 C 0.4199(3) 0.32555(18) 1.08445(14)
H10 H 0.4138 0.3693 1.1475
C19 C 0.1009(3) 0.59660(18) 0.93432(16)
H11 H 0.1234 0.5304 0.9540
C20 C 0.0813(3) 0.69555(19) 0.99654(16)
H12 H 0.0872 0.7101 1.0658
C21 C -0.3599(3) 0.3103(2) 0.6893(2)
C22 C 0.4240(2) 0.30227(19) 1.41107(15)
H13 H 0.4525 0.3667 1.4703
C23 C 0.2991(3) 0.2102(2) 1.39399(17)
H14 H 0.2443 0.2126 1.4419
C24 C 0.3367(2) 0.11085(18) 1.23487(15)
H15 H 0.3066 0.0465 1.1756
C25 C -0.3754(2) 0.05392(19) 0.47502(17)
C26 C -0.1663(2) 0.26715(18) 0.63280(17)
C27 C -0.2330(3) 0.4024(2) 0.7321(2)
H16 H -0.146(3) 1.040(2) 1.1119(17)
H17 H -0.099(3) 0.859(2) 1.0620(17)
H18 H -0.291(3) 0.092(2) 0.4587(19)
H19 H -0.440(3) -0.092(2) 0.353(2)
H20 H -0.456(4) 0.300(3) 0.698(2)
H21 H -0.111(3) 0.224(2) 0.603(2)
H22 H -0.223(4) 0.475(3) 0.778(2)
N1A N -0.05062(19) 1.22968(13) 1.06247(12)
C4A C -0.0252(2) 1.11239(15) 1.03033(14)
C6A C 0.0596(2) 1.08729(16) 0.96164(16)
N3A N -0.08239(17) 1.39193(12) 1.16266(11)
C8A C 0.0854(2) 0.97394(16) 0.93115(15)
C9A C -0.0514(2) 1.28695(15) 1.15822(13)
H5A H -0.0324 1.2559 1.2137
C19A C -0.1009(3) 1.40340(18) 1.06568(16)
H11A H -0.1234 1.4696 1.0460
C20A C -0.0813(3) 1.30445(19) 1.00346(16)
H12A H -0.0872 1.2899 0.9342
H16A H 0.146(3) 0.960(2) 0.8881(17)
H17A H 0.099(3) 1.141(2) 0.9380(17)
N2A N -0.68438(18) -0.22365(14) 0.37364(13)
C1A C -0.5899(2) -0.10969(16) 0.43796(14)
N4A N -0.88921(19) -0.37520(14) 0.30362(13)
C15A C -0.5349(3) 0.05730(19) 0.58732(17)
C21A C -0.6401(3) -0.3103(2) 0.3107(2)
C25A C -0.6246(2) -0.05392(19) 0.52498(17)
C26A C -0.8337(2) -0.26715(18) 0.36720(17)
C27A C -0.7670(3) -0.4024(2) 0.2679(2)
H18A H -0.709(3) -0.092(2) 0.5413(19)
H19A H -0.560(3) 0.092(2) 0.647(2)
H20A H -0.544(4) -0.300(3) 0.302(2)
H21A H -0.889(3) -0.224(2) 0.397(2)
H22A H -0.777(4) -0.475(3) 0.222(2)
Ni1A Ni -1.10195(2) -0.483507(17) 0.286936(15)
O1A O -1.27710(19) -0.24965(13) 0.28059(10)
O2A O -1.64767(17) -0.12817(13) -0.17546(10)
O3A O -1.12896(15) -0.35445(11) 0.40970(9)
H1A H -1.1764 -0.3046 0.3864
H2A H -1.0383 -0.3170 0.4526
O4A O -1.70324(15) -0.39854(11) -0.28738(9)
O5A O -0.97362(18) -0.55822(13) 0.39660(12)
H3A H -1.0000 -0.5305 0.4125
H4A H -1.0000 -0.6338 0.3720
O6A O -1.23286(17) -0.41254(12) 0.18346(10)
O7A O -1.68673(18) -0.48001(13) -0.44467(11)
C2A C -1.4891(2) -0.22818(15) -0.07915(13)
C3A C -1.5483(2) -0.18754(15) -0.17120(13)
C5A C -1.5079(2) -0.29971(16) -0.34004(13)
C7A C -1.6435(2) -0.40082(15) -0.35963(13)
C10A C -1.4981(3) -0.16382(17) 0.01509(15)
H6A H -1.5488 -0.1010 0.0188
C11A C -1.3632(2) -0.29040(15) 0.09877(13)
C12A C -1.4633(2) -0.20313(15) -0.25127(13)
C13A C -1.2851(2) -0.31963(15) 0.19572(13)
C14A C -1.3609(3) -0.35777(17) 0.00321(15)
H7A H -1.3188 -0.4250 -0.0015
C16A C -1.2551(3) -0.1143(2) -0.30605(18)
H8A H -1.1710 -0.0524 -0.2948
C17A C -1.4321(3) -0.19295(18) 0.10384(15)
H9A H -1.4339 -0.1468 0.1672
C18A C -1.4199(3) -0.32555(18) -0.08445(14)
H10A H -1.4138 -0.3693 -0.1475
C22A C -1.4240(2) -0.30227(19) -0.41107(15)
H13A H -1.4525 -0.3667 -0.4703
C23A C -1.2991(3) -0.2102(2) -0.39399(17)
H14A H -1.2443 -0.2126 -0.4419
C24A C -1.3367(2) -0.11085(18) -0.23487(15)
H15A H -1.3066 -0.0465 -0.1756
Ni1_2 Ni -1.89805(2) -0.516493(17) -0.286936(15)
Ni1A_2 Ni -0.10195(2) 1.516493(17) 1.286936(15)
Ni1A_3 Ni 0.89805(2) 0.516493(17) 1.286936(15)
O4_2 O -1.29676(15) -0.60146(11) 0.28738(9)
O4A_2 O 0.29676(15) 0.60146(11) 0.71262(9)
N3A_2 N -1.08239(17) -0.60807(12) 0.16266(11)
O8 O 0.8925(3) 0.1908(2) 0.3683(2)
H23 H 0.807(6) 0.173(4) 0.320(4)
H24 H 0.950(7) 0.201(5) 0.403(5)
O9 O 0.9584(3) 0.9738(2) 0.3899(2)
H25 H 0.9529 1.0075 0.4493
H26 H 0.8789 0.9163 0.3581
loop_
_geom_bond_atom_site_label_1
_geom_bond_atom_site_label_2
_geom_bond_site_symmetry_1
_geom_bond_site_symmetry_2
Ni1 O3 1_555 1_555
O1 C13 1_555 1_555
O2 C3 1_555 1_555
O3 H1 1_555 1_555
H2 O3 1_555 1_555
N1 C4 1_555 1_555
O4 C7 1_555 1_555
O5 Ni1 1_555 1_555
H3 O5 1_555 1_555
H4 O5 1_555 1_555
N2 C1 1_555 1_555
O6 Ni1 1_555 1_555
O7 C7 1_555 1_555
C1 C25 1_555 1_555
C2 C3 1_555 1_555
C3 C12 1_555 1_555
C4 C6 1_555 1_555
C5 C7 1_555 1_555
C6 C8 1_555 1_555
N3 Ni1 1_555 1_555
C8 H16 1_555 1_555
N4 Ni1 1_555 1_555
C9 N1 1_555 1_555
H5 C9 1_555 1_555
C10 C2 1_555 1_555
H6 C10 1_555 1_555
C11 C13 1_555 1_555
C12 C5 1_555 1_555
C13 O6 1_555 1_555
C14 C11 1_555 1_555
H7 C14 1_555 1_555
C15 C25 1_555 1_555
C16 H8 1_555 1_555
C17 C10 1_555 1_555
H9 C17 1_555 1_555
C18 C2 1_555 1_555
H10 C18 1_555 1_555
C19 N3 1_555 1_555
H11 C19 1_555 1_555
C20 N1 1_555 1_555
H12 C20 1_555 1_555
C21 N2 1_555 1_555
C22 C5 1_555 1_555
H13 C22 1_555 1_555
C23 C16 1_555 1_555
H14 C23 1_555 1_555
C24 C12 1_555 1_555
H15 C24 1_555 1_555
C25 H18 1_555 1_555
C26 N2 1_555 1_555
C27 N4 1_555 1_555
H17 C6 1_555 1_555
H19 C15 1_555 1_555
H20 C21 1_555 1_555
H21 C26 1_555 1_555
H22 C27 1_555 1_555
O8 H23 1_555 1_555
H24 O8 1_555 1_555
O9 H25 1_555 1_555
H26 O9 1_555 1_555
N1A C4A 1_555 1_555
C4A C8 1_555 1_555
C6A C4A 1_555 1_555
N3A C9A 1_555 1_555
C8A C4 1_555 1_555
C9A N1A 1_555 1_555
H5A C9A 1_555 1_555
C19A N3A 1_555 1_555
H11A C19A 1_555 1_555
C20A N1A 1_555 1_555
H12A C20A 1_555 1_555
H16A C8A 1_555 1_555
H17A C6A 1_555 1_555
N2A C1A 1_555 1_555
C1A C15 1_555 1_555
N4A C26A 1_555 1_555
C15A C1 1_555 1_555
C21A N2A 1_555 1_555
C25A C1A 1_555 1_555
C26A N2A 1_555 1_555
C27A N4A 1_555 1_555
H18A C25A 1_555 1_555
H19A C15A 1_555 1_555
H20A C21A 1_555 1_555
H21A C26A 1_555 1_555
H22A C27A 1_555 1_555
Ni1A N4A 1_555 1_555
O1A C13A 1_555 1_555
O2A C3A 1_555 1_555
O3A Ni1A 1_555 1_555
H1A O3A 1_555 1_555
H2A O3A 1_555 1_555
O4A C7A 1_555 1_555
O5A Ni1A 1_555 1_555
H3A O5A 1_555 1_555
H4A O5A 1_555 1_555
O6A Ni1A 1_555 1_555
O7A C7A 1_555 1_555
C2A C3A 1_555 1_555
C3A C12A 1_555 1_555
C5A C7A 1_555 1_555
C10A C2A 1_555 1_555
H6A C10A 1_555 1_555
C11A C13A 1_555 1_555
C12A C5A 1_555 1_555
C13A O6A 1_555 1_555
C14A C11A 1_555 1_555
H7A C14A 1_555 1_555
C16A H8A 1_555 1_555
C17A C10A 1_555 1_555
H9A C17A 1_555 1_555
C18A C2A 1_555 1_555
H10A C18A 1_555 1_555
C22A C5A 1_555 1_555
H13A C22A 1_555 1_555
C23A C16A 1_555 1_555
H14A C23A 1_555 1_555
C24A C12A 1_555 1_555
H15A C24A 1_555 1_555
Ni1_2 O4A 1_555 1_555
Ni1A_2 N3A 1_555 1_555
Ni1A_3 O4 1_555 1_555
O4_2 Ni1A 1_555 1_555
O4A_2 Ni1 1_555 1_555
N3A_2 Ni1A 1_555 1_555
N3 C9 1_555 1_555
N4 C26 1_555 1_555
C11 C17 1_555 1_555
C14 C18 1_555 1_555
C16 C24 1_555 1_555
C19 C20 1_555 1_555
C21 C27 1_555 1_555
C22 C23 1_555 1_555
C6A C8A 1_555 1_555
C19A C20A 1_555 1_555
C15A C25A 1_555 1_555
C21A C27A 1_555 1_555
C11A C17A 1_555 1_555
C14A C18A 1_555 1_555
C16A C24A 1_555 1_555
C22A C23A 1_555 1_555

#END
