
#######################################################################
#
#                 Cambridge Crystallographic Data Centre
#                                CCDC 
#
#######################################################################
#
# If this CIF has been generated from an entry in the Cambridge 
# Structural Database, then it will include bibliographic, chemical, 
# crystal, experimental, refinement or atomic coordinate data resulting 
# from the CCDC's data processing and validation procedures.
#
#######################################################################

data_FIRGIW
_symmetry_cell_setting           orthorhombic
_symmetry_space_group_name_H-M   'P 21 21 21'
_symmetry_Int_Tables_number      19
_space_group_name_Hall           'P 2ac 2ab'
loop_
_symmetry_equiv_pos_site_id
_symmetry_equiv_pos_as_xyz
1 x,y,z
2 1/2+x,1/2-y,-z
3 -x,1/2+y,1/2-z
4 1/2-x,-y,1/2+z
_cell_length_a                   8.556(1)
_cell_length_b                   8.566(1)
_cell_length_c                   9.804(1)
_cell_angle_alpha                90
_cell_angle_beta                 90
_cell_angle_gamma                90
_cell_volume                     718.542
loop_
_atom_site_label
_atom_site_type_symbol
_atom_site_fract_x
_atom_site_fract_y
_atom_site_fract_z
Zn1 Zn -0.1785(1) 0.1498(1) -0.0592(1)
Cl1 Cl -0.2798(1) 0.2588(1) -0.2452(1)
O1 O -0.4042(3) -0.0992(3) -0.0707(4)
O2 O -0.1452(3) -0.0763(3) -0.0632(3)
O3 O -0.0501(3) -0.2944(3) -0.4411(3)
O4 O -0.2864(3) -0.2309(4) -0.3743(3)
N1 N -0.4004(4) -0.3991(4) -0.1445(4)
C1 C -0.2749(4) -0.1527(5) -0.0783(4)
C2 C -0.2479(5) -0.3283(5) -0.1049(4)
C3 C -0.1217(4) -0.3586(6) -0.2115(4)
C4 C -0.1527(4) -0.2899(4) -0.3506(4)
H1 H -0.2081(40) -0.3674(44) -0.0151(36)
H2 H -0.1184(49) -0.4853(51) -0.2103(43)
H3 H -0.0251(46) -0.3124(52) -0.1728(41)
H4 H -0.4651(49) -0.3885(55) -0.0792(53)
H5 H -0.3853(55) -0.5100(58) -0.1482(50)
H6 H -0.4422(49) -0.3599(62) -0.2210(46)
O3B O 0.0501(3) 0.2056(3) -0.0589(3)
O4C O -0.2136(3) 0.2309(4) 0.1257(3)
Zn1B Zn 0.1785(1) -0.3502(1) -0.4408(1)
Zn1C Zn -0.3215(1) -0.1498(1) -0.5592(1)
loop_
_geom_bond_atom_site_label_1
_geom_bond_atom_site_label_2
_geom_bond_site_symmetry_1
_geom_bond_site_symmetry_2
Zn1 Cl1 1_555 1_555
O1 C1 1_555 1_555
O2 Zn1 1_555 1_555
O3 C4 1_555 1_555
O4 C4 1_555 1_555
N1 C2 1_555 1_555
C1 O2 1_555 1_555
C2 C1 1_555 1_555
C3 C2 1_555 1_555
C4 C3 1_555 1_555
H1 C2 1_555 1_555
H2 C3 1_555 1_555
H3 C3 1_555 1_555
H4 N1 1_555 1_555
H5 N1 1_555 1_555
H6 N1 1_555 1_555
O3B Zn1 1_555 1_555
O4C Zn1 1_555 1_555
Zn1B O3 1_555 1_555
Zn1C O4 1_555 1_555

#END
