
#######################################################################
#
#                 Cambridge Crystallographic Data Centre
#                                CCDC 
#
#######################################################################
#
# If this CIF has been generated from an entry in the Cambridge 
# Structural Database, then it will include bibliographic, chemical, 
# crystal, experimental, refinement or atomic coordinate data resulting 
# from the CCDC's data processing and validation procedures.
#
#######################################################################

data_FIRGUK
_symmetry_cell_setting           triclinic
_symmetry_space_group_name_H-M   'P -1'
_symmetry_Int_Tables_number      2
_space_group_name_Hall           '-P 1'
loop_
_symmetry_equiv_pos_site_id
_symmetry_equiv_pos_as_xyz
1 x,y,z
2 -x,-y,-z
_cell_length_a                   9.832(3)
_cell_length_b                   11.663(4)
_cell_length_c                   11.803(5)
_cell_angle_alpha                102.818(5)
_cell_angle_beta                 106.999(7)
_cell_angle_gamma                110.092(6)
_cell_volume                     1134.59
loop_
_atom_site_label
_atom_site_type_symbol
_atom_site_fract_x
_atom_site_fract_y
_atom_site_fract_z
Mn1 Mn 1.0000 0.5000 0.5000
O1 O 0.96488(19) 1.31347(15) 0.55168(16)
O2 O 0.8326(2) 0.42570(19) 0.74687(19)
O3 O 0.98346(17) 0.55702(15) 0.68003(15)
O4 O 0.3176(2) 0.45790(18) 0.73061(18)
O5 O 0.24000(19) 0.55809(17) 0.60358(18)
C1 C 0.4990(2) 0.5785(2) 0.6544(2)
O6 O 0.7817(3) 1.18746(19) 0.35801(18)
C2 C 0.7474(3) 0.5746(2) 0.6740(2)
C3 C 0.6845(3) 0.7386(2) 0.6048(2)
C4 C 0.6042(3) 0.5251(2) 0.6866(2)
H1 H 0.5793 0.4565 0.7165
C5 C 0.5390(3) 0.6832(2) 0.6127(2)
H2 H 0.4666 0.7171 0.5895
C6 C 0.7300(3) 0.8564(2) 0.5682(2)
C7 C 0.8142(3) 1.0850(2) 0.5078(2)
C8 C 0.8551(3) 1.2032(2) 0.4690(2)
C9 C 0.3407(3) 0.5258(2) 0.6632(2)
C10 C 0.7871(3) 0.6810(2) 0.6340(2)
H3 H 0.8834 0.7140 0.6266
C11 C 0.8841(3) 0.9544(2) 0.6251(2)
H4 H 0.9613 0.9439 0.6837
C12 C 0.9260(3) 1.0679(2) 0.5971(2)
H5 H 1.0297 1.1327 0.6383
C13 C 0.6609(3) 0.9861(2) 0.4482(3)
H6 H 0.5853 0.9949 0.3863
C14 C 0.8585(3) 0.5133(2) 0.7025(2)
C15 C 0.6178(3) 0.8744(2) 0.4786(3)
H7 H 0.5133 0.8109 0.4390
Mn2 Mn 1.09785(4) 1.43936(3) 0.75307(3)
N1 N 0.4678(2) 0.80323(19) 0.99284(18)
N2 N 0.9645(2) 1.18959(19) 0.95305(19)
N3 N 1.0829(2) 1.32480(19) 0.8722(2)
N4 N 0.2448(2) 0.6257(2) 0.9249(2)
C16 C 0.5926(3) 0.9070(2) 0.9861(2)
C17 C 0.8371(3) 1.0945(2) 0.9659(2)
C18 C 0.7259(3) 0.9939(2) 1.0938(2)
H8 H 0.7335 0.9887 1.1728
C19 C 0.5788(3) 0.9159(2) 0.8687(2)
H9 H 0.4870 0.8592 0.7968
C20 C 0.4748(3) 0.7560(3) 1.0914(2)
H10 H 0.5574 0.7917 1.1710
C21 C 1.1942(3) 1.3058(3) 0.9582(3)
H11 H 1.3023 1.3446 0.9785
C22 C 0.8484(3) 1.0887(2) 1.0836(2)
H12 H 0.9380 1.1484 1.1559
C23 C 1.1232(3) 1.2225(2) 1.0087(3)
H13 H 1.1716 1.1934 1.0687
C24 C 0.7022(3) 1.0095(3) 0.8589(2)
H14 H 0.6942 1.0153 0.7801
C25 C 0.9467(3) 1.2533(2) 0.8725(2)
H15 H 0.8500 1.2477 0.8230
C26 C 0.3264(3) 0.7219(2) 0.8967(2)
H16 H 0.2909 0.7327 0.8194
C27 C 0.3374(3) 0.6480(3) 1.0481(3)
H17 H 0.302(3) 0.595(3) 1.092(3)
O1A O 0.03512(19) -0.31347(15) 0.44832(16)
O2A O 0.1674(2) 0.57430(19) 0.25313(19)
O3A O 0.01654(17) 0.44298(15) 0.31997(15)
O4A O 0.6824(2) 0.54210(18) 0.26939(18)
O5A O 0.76000(19) 0.44191(17) 0.39642(18)
C1A C 0.5010(2) 0.4215(2) 0.3456(2)
O6A O 0.2183(3) -0.18746(19) 0.64199(18)
C2A C 0.2526(3) 0.4254(2) 0.3260(2)
C3A C 0.3155(3) 0.2614(2) 0.3952(2)
C4A C 0.3958(3) 0.4749(2) 0.3134(2)
H1A H 0.4207 0.5435 0.2835
C5A C 0.4610(3) 0.3168(2) 0.3873(2)
H2A H 0.5334 0.2829 0.4105
C6A C 0.2700(3) 0.1436(2) 0.4318(2)
C7A C 0.1858(3) -0.0850(2) 0.4922(2)
C8A C 0.1449(3) -0.2032(2) 0.5310(2)
C9A C 0.6593(3) 0.4742(2) 0.3368(2)
C10A C 0.2129(3) 0.3190(2) 0.3660(2)
H3A H 0.1166 0.2860 0.3734
C11A C 0.1159(3) 0.0456(2) 0.3749(2)
H4A H 0.0387 0.0561 0.3163
C12A C 0.0740(3) -0.0679(2) 0.4029(2)
H5A H -0.0297 -0.1327 0.3617
C13A C 0.3391(3) 0.0139(2) 0.5518(3)
H6A H 0.4147 0.0051 0.6137
C14A C 0.1415(3) 0.4867(2) 0.2975(2)
C15A C 0.3822(3) 0.1256(2) 0.5214(3)
H7A H 0.4867 0.1891 0.5610
Mn2A Mn -0.09785(4) -0.43936(3) 0.24693(3)
N1A N 0.5322(2) 0.19677(19) 0.00716(18)
N2A N 0.0355(2) -0.18959(19) 0.04695(19)
N3A N -0.0829(2) -0.32480(19) 0.1278(2)
N4A N 0.7552(2) 0.3743(2) 0.0751(2)
C16A C 0.4074(3) 0.0930(2) 0.0139(2)
C17A C 0.1629(3) -0.0945(2) 0.0341(2)
C18A C 0.2741(3) 0.0061(2) -0.0938(2)
H8A H 0.2665 0.0113 -0.1728
C19A C 0.4212(3) 0.0841(2) 0.1313(2)
H9A H 0.5130 0.1408 0.2032
C20A C 0.5252(3) 0.2440(3) -0.0914(2)
H10A H 0.4426 0.2083 -0.1710
C21A C -0.1942(3) -0.3058(3) 0.0418(3)
H11A H -0.3023 -0.3446 0.0215
C22A C 0.1516(3) -0.0887(2) -0.0836(2)
H12A H 0.0620 -0.1484 -0.1559
C23A C -0.1232(3) -0.2225(2) -0.0087(3)
H13A H -0.1716 -0.1934 -0.0687
C24A C 0.2978(3) -0.0095(3) 0.1411(2)
H14A H 0.3058 -0.0153 0.2199
C25A C 0.0533(3) -0.2533(2) 0.1275(2)
H15A H 0.1500 -0.2477 0.1770
C26A C 0.6736(3) 0.2781(2) 0.1033(2)
H16A H 0.7091 0.2673 0.1806
C27A C 0.6626(3) 0.3520(3) -0.0481(3)
H17A H 0.698(3) 0.405(3) -0.092(3)
Mn1_2 Mn 0.0000 -0.5000 0.5000
Mn1_3 Mn 0.0000 0.5000 0.5000
Mn1_4 Mn 1.0000 1.5000 0.5000
O1_2 O 0.96488(19) 0.31347(15) 0.55168(16)
O1A_2 O 1.03512(19) 0.68653(15) 0.44832(16)
O3_2 O 0.98346(17) 1.55702(15) 0.68003(15)
O3A_2 O 0.01654(17) -0.55702(15) 0.31997(15)
O3A_3 O 1.01654(17) 0.44298(15) 0.31997(15)
O4_2 O 1.3176(2) 1.45790(18) 0.73061(18)
O4A_2 O -0.3176(2) -0.45790(18) 0.26939(18)
O5_2 O 1.24000(19) 0.55809(17) 0.60358(18)
Mn2_2 Mn 0.09785(4) 0.43936(3) 0.75307(3)
Mn2_3 Mn 1.09785(4) 0.43936(3) 0.75307(3)
Mn2A_2 Mn -0.09785(4) 0.56064(3) 0.24693(3)
Mn2A_3 Mn 0.90215(4) 0.56064(3) 0.24693(3)
N4_2 N 1.2448(2) 1.6257(2) 0.9249(2)
N4A_2 N -0.2448(2) -0.6257(2) 0.0751(2)
loop_
_geom_bond_atom_site_label_1
_geom_bond_atom_site_label_2
_geom_bond_site_symmetry_1
_geom_bond_site_symmetry_2
Mn1 O3 1_555 1_555
O1 C8 1_555 1_555
O2 C14 1_555 1_555
O3 C14 1_555 1_555
O4 C9 1_555 1_555
O5 C9 1_555 1_555
C1 C4 1_555 1_555
O6 C8 1_555 1_555
C2 C4 1_555 1_555
C3 C5 1_555 1_555
C4 H1 1_555 1_555
C5 C1 1_555 1_555
H2 C5 1_555 1_555
C6 C3 1_555 1_555
C7 C8 1_555 1_555
C9 C1 1_555 1_555
C10 C2 1_555 1_555
H3 C10 1_555 1_555
C11 C6 1_555 1_555
H4 C11 1_555 1_555
C12 C7 1_555 1_555
H5 C12 1_555 1_555
C13 C7 1_555 1_555
H6 C13 1_555 1_555
C14 C2 1_555 1_555
C15 C6 1_555 1_555
H7 C15 1_555 1_555
Mn2 O1 1_555 1_555
N1 C16 1_555 1_555
N2 C17 1_555 1_555
N3 Mn2 1_555 1_555
N4 C26 1_555 1_555
C16 C18 1_555 1_555
C17 C22 1_555 1_555
C18 H8 1_555 1_555
C19 C16 1_555 1_555
H9 C19 1_555 1_555
C20 N1 1_555 1_555
H10 C20 1_555 1_555
C21 N3 1_555 1_555
H11 C21 1_555 1_555
C22 C18 1_555 1_555
H12 C22 1_555 1_555
C23 N2 1_555 1_555
H13 C23 1_555 1_555
C24 C17 1_555 1_555
H14 C24 1_555 1_555
C25 N2 1_555 1_555
H15 C25 1_555 1_555
C26 N1 1_555 1_555
H16 C26 1_555 1_555
C27 N4 1_555 1_555
H17 C27 1_555 1_555
O1A C8A 1_555 1_555
O2A C14A 1_555 1_555
O3A C14A 1_555 1_555
O4A C9A 1_555 1_555
O5A Mn1 1_555 1_555
C1A C4A 1_555 1_555
O6A C8A 1_555 1_555
C2A C4A 1_555 1_555
C3A C5A 1_555 1_555
C4A H1A 1_555 1_555
C5A C1A 1_555 1_555
H2A C5A 1_555 1_555
C6A C3A 1_555 1_555
C7A C8A 1_555 1_555
C9A O5A 1_555 1_555
C10A C2A 1_555 1_555
H3A C10A 1_555 1_555
C11A C6A 1_555 1_555
H4A C11A 1_555 1_555
C12A C7A 1_555 1_555
H5A C12A 1_555 1_555
C13A C7A 1_555 1_555
H6A C13A 1_555 1_555
C14A C2A 1_555 1_555
C15A C6A 1_555 1_555
H7A C15A 1_555 1_555
Mn2A O1A 1_555 1_555
N1A C16A 1_555 1_555
N2A C17A 1_555 1_555
N3A Mn2A 1_555 1_555
N4A C26A 1_555 1_555
C16A C18A 1_555 1_555
C17A C22A 1_555 1_555
C18A H8A 1_555 1_555
C19A C16A 1_555 1_555
H9A C19A 1_555 1_555
C20A N1A 1_555 1_555
H10A C20A 1_555 1_555
C21A N3A 1_555 1_555
H11A C21A 1_555 1_555
C22A C18A 1_555 1_555
H12A C22A 1_555 1_555
C23A N2A 1_555 1_555
H13A C23A 1_555 1_555
C24A C17A 1_555 1_555
H14A C24A 1_555 1_555
C25A N2A 1_555 1_555
H15A C25A 1_555 1_555
C26A N1A 1_555 1_555
H16A C26A 1_555 1_555
C27A N4A 1_555 1_555
H17A C27A 1_555 1_555
Mn1_2 O1A 1_555 1_555
Mn1_3 O5 1_555 1_555
Mn1_4 O1 1_555 1_555
O1_2 Mn1 1_555 1_555
O1A_2 Mn1 1_555 1_555
O3_2 Mn2 1_555 1_555
O3A_2 Mn2A 1_555 1_555
O3A_3 Mn1 1_555 1_555
O4_2 Mn2 1_555 1_555
O4A_2 Mn2A 1_555 1_555
O5_2 Mn1 1_555 1_555
Mn2_2 O4 1_555 1_555
Mn2_3 O3 1_555 1_555
Mn2A_2 O3A 1_555 1_555
Mn2A_3 O4A 1_555 1_555
N4_2 Mn2 1_555 1_555
N4A_2 Mn2A 1_555 1_555
C3 C10 1_555 1_555
C11 C12 1_555 1_555
C13 C15 1_555 1_555
N3 C25 1_555 1_555
N4 Mn2_2 1_555 1_555
C19 C24 1_555 1_555
C20 C27 1_555 1_555
C21 C23 1_555 1_555
O3A Mn1_3 1_555 1_555
C1A C9A 1_555 1_555
C3A C10A 1_555 1_555
C11A C12A 1_555 1_555
C13A C15A 1_555 1_555
N3A C25A 1_555 1_555
N4A Mn2A_3 1_555 1_555
C19A C24A 1_555 1_555
C20A C27A 1_555 1_555
C21A C23A 1_555 1_555
Mn1_2 O3A_2 1_555 1_555
Mn1_4 O3_2 1_555 1_555
O1_2 Mn2_3 1_555 1_555
O1A_2 Mn2A_3 1_555 1_555
O3A_3 Mn2A_3 1_555 1_555

#END
