
#######################################################################
#
#                 Cambridge Crystallographic Data Centre
#                                CCDC 
#
#######################################################################
#
# If this CIF has been generated from an entry in the Cambridge 
# Structural Database, then it will include bibliographic, chemical, 
# crystal, experimental, refinement or atomic coordinate data resulting 
# from the CCDC's data processing and validation procedures.
#
#######################################################################

data_FIRGOE
_symmetry_cell_setting           monoclinic
_symmetry_space_group_name_H-M   'C 2/c'
_symmetry_Int_Tables_number      15
_space_group_name_Hall           '-C 2yn'
loop_
_symmetry_equiv_pos_site_id
_symmetry_equiv_pos_as_xyz
1 x,y,z
2 -x,y,1/2-z
3 1/2+x,1/2+y,z
4 1/2-x,1/2+y,1/2-z
5 -x,-y,-z
6 x,-y,1/2+z
7 1/2-x,1/2-y,-z
8 1/2+x,1/2-y,1/2+z
_cell_length_a                   21.118(2)
_cell_length_b                   8.0055(7)
_cell_length_c                   25.556(3)
_cell_angle_alpha                90
_cell_angle_beta                 111.1730(10)
_cell_angle_gamma                90
_cell_volume                     4028.84
loop_
_atom_site_label
_atom_site_type_symbol
_atom_site_fract_x
_atom_site_fract_y
_atom_site_fract_z
Pb1 Pb 0.140567(14) 0.70630(3) 0.057558(12)
Pb2 Pb 0.181494(14) 1.20684(4) 0.052663(12)
O1 O 0.0926(3) 0.4374(7) 0.0784(3)
O2 O 0.0263(3) 0.6627(7) 0.0560(3)
O3 O -0.2061(3) 0.6552(7) 0.0469(3)
O4 O -0.2506(3) 0.4352(7) 0.0728(3)
O5 O 0.1252(3) 1.0013(7) 0.1018(2)
O6 O 0.1615(3) 0.7675(7) 0.1497(2)
O7 O 0.2522(3) 0.7632(7) 0.3553(3)
O8 O 0.2617(3) 0.9969(7) 0.4036(2)
C1 C -0.0230(4) 0.4115(9) 0.0739(3)
C2 C -0.0820(4) 0.4950(10) 0.0692(3)
H1 H -0.0838 0.6103 0.0644
C3 C -0.1385(4) 0.4126(9) 0.0716(3)
C4 C -0.1339(4) 0.2382(10) 0.0804(4)
H2 H -0.1715 0.1805 0.0818
C5 C -0.0746(4) 0.1503(10) 0.0870(4)
C6 C -0.0196(4) 0.2386(10) 0.0827(4)
H3 H 0.0200 0.1816 0.0857
C7 C 0.0355(4) 0.5068(10) 0.0693(3)
C8 C -0.2025(4) 0.5044(10) 0.0636(3)
C9 C -0.0695(5) -0.0347(11) 0.0985(5)
H4 H -0.1136 -0.0847 0.0816
H5 H -0.0529 -0.0536 0.1383
H6 H -0.0388 -0.0838 0.0828
C10 C 0.1590(4) 1.0105(10) 0.2021(3)
C11 C 0.1903(4) 0.9245(10) 0.2527(4)
H7 H 0.2017 0.8124 0.2524
C12 C 0.2042(4) 1.0081(10) 0.3034(3)
C13 C 0.1859(4) 1.1755(10) 0.3035(4)
H8 H 0.1952 1.2303 0.3376
C14 C 0.1541(5) 1.2622(11) 0.2536(4)
C15 C 0.1423(5) 1.1782(10) 0.2030(4)
H9 H 0.1229 1.2356 0.1694
C16 C 0.1478(4) 0.9218(10) 0.1484(3)
C17 C 0.2414(4) 0.9193(10) 0.3573(3)
C18 C 0.1343(7) 1.4444(13) 0.2535(5)
H10 H 0.0978 1.4540 0.2674
H11 H 0.1200 1.4874 0.2160
H12 H 0.1727 1.5071 0.2772
Pb1B Pb -0.359433(14) 0.20630(3) 0.057558(12)
Pb1C Pb 0.359433(14) 1.20630(3) 0.442442(12)
Pb2_2 Pb 0.181494(14) 0.20684(4) 0.052663(12)
Pb2B Pb -0.318506(14) 0.70684(4) 0.052663(12)
Pb2C Pb 0.318506(14) 0.70684(4) 0.447337(12)
O1_2 O 0.0926(3) 1.4374(7) 0.0784(3)
O3B O 0.2939(3) 1.1552(7) 0.0469(3)
O4B O 0.2494(3) 0.9352(7) 0.0728(3)
O7C O 0.2478(3) 1.2632(7) 0.1447(3)
O8C O 0.2383(3) 0.4969(7) 0.0964(2)
O8C_2 O 0.2383(3) 1.4969(7) 0.0964(2)
loop_
_geom_bond_atom_site_label_1
_geom_bond_atom_site_label_2
_geom_bond_site_symmetry_1
_geom_bond_site_symmetry_2
Pb1 O1 1_555 1_555
Pb2 O5 1_555 1_555
O1 C7 1_555 1_555
O2 Pb1 1_555 1_555
O3 C8 1_555 1_555
O4 C8 1_555 1_555
O5 Pb1 1_555 1_555
O6 Pb1 1_555 1_555
O7 C17 1_555 1_555
O8 C17 1_555 1_555
C1 C2 1_555 1_555
C2 H1 1_555 1_555
C3 C2 1_555 1_555
C4 C3 1_555 1_555
H2 C4 1_555 1_555
C5 C4 1_555 1_555
C6 C1 1_555 1_555
H3 C6 1_555 1_555
C7 O2 1_555 1_555
C8 C3 1_555 1_555
C9 C5 1_555 1_555
H4 C9 1_555 1_555
H5 C9 1_555 1_555
H6 C9 1_555 1_555
C10 C11 1_555 1_555
C11 H7 1_555 1_555
C12 C11 1_555 1_555
C13 C12 1_555 1_555
H8 C13 1_555 1_555
C14 C13 1_555 1_555
C15 C10 1_555 1_555
H9 C15 1_555 1_555
C16 O5 1_555 1_555
C17 C12 1_555 1_555
C18 C14 1_555 1_555
H10 C18 1_555 1_555
H11 C18 1_555 1_555
H12 C18 1_555 1_555
Pb1B O4 1_555 1_555
Pb1C O8 1_555 1_555
Pb2_2 O1 1_555 1_555
Pb2B O3 1_555 1_555
Pb2C O7 1_555 1_555
O1_2 Pb2 1_555 1_555
O3B Pb2 1_555 1_555
O4B Pb1 1_555 1_555
O7C Pb2 1_555 1_555
O8C Pb1 1_555 1_555
O8C_2 Pb2 1_555 1_555
Pb2 O4B 1_555 1_555
O4 Pb2B 1_555 1_555
O6 C16 1_555 1_555
O8 Pb2C 1_555 1_555
C1 C7 1_555 1_555
C5 C6 1_555 1_555
C10 C16 1_555 1_555
C14 C15 1_555 1_555
Pb2_2 O8C 1_555 1_555

#END
