
#######################################################################
#
#                 Cambridge Crystallographic Data Centre
#                                CCDC 
#
#######################################################################
#
# If this CIF has been generated from an entry in the Cambridge 
# Structural Database, then it will include bibliographic, chemical, 
# crystal, experimental, refinement or atomic coordinate data resulting 
# from the CCDC's data processing and validation procedures.
#
#######################################################################

data_FIRHAR
_symmetry_cell_setting           triclinic
_symmetry_space_group_name_H-M   'P -1'
_symmetry_Int_Tables_number      2
_space_group_name_Hall           '-P 1'
loop_
_symmetry_equiv_pos_site_id
_symmetry_equiv_pos_as_xyz
1 x,y,z
2 -x,-y,-z
_cell_length_a                   9.919(6)
_cell_length_b                   12.997(8)
_cell_length_c                   22.679(13)
_cell_angle_alpha                76.087(7)
_cell_angle_beta                 81.429(8)
_cell_angle_gamma                80.172(7)
_cell_volume                     2778.41
loop_
_atom_site_label
_atom_site_type_symbol
_atom_site_fract_x
_atom_site_fract_y
_atom_site_fract_z
Zn1 Zn 0.50902(8) 0.58600(6) 0.29872(4)
Zn2 Zn 0.57863(8) 0.37532(6) 0.16438(4)
Zn3 Zn 1.00172(9) 0.94300(7) 0.22363(4)
O1 O 0.9497(6) 0.8917(5) 0.1591(2)
O2 O 0.7419(6) 0.8754(4) 0.2120(2)
O3 O 0.7762(5) 0.6309(4) 0.2349(2)
O4 O 0.5547(5) 0.6813(4) 0.2193(2)
O5 O 0.6487 0.5110 0.1502
O6 O 0.5438(6) 0.5733(4) 0.0657(2)
O7 O 0.7997(7) 0.8304(5) -0.0893(3)
O8 O 0.8891(6) 0.9473(5) -0.0599(2)
O9 O 0.4876(5) 0.3895(4) 0.4045(2)
O10 O 0.6187(5) 0.4450(4) 0.3174(2)
O11 O 0.6142(5) 0.2858(4) 0.2455(2)
O12 O 0.8329(5) 0.3171(4) 0.2234(2)
O13 O 0.8827(6) 0.0660(4) 0.2481(3)
O14 O 1.0695(7) 0.0747(6) 0.2880(3)
O15 O 0.8673(5) -0.0289(5) 0.5141(2)
O16 O 0.7716(6) 0.1089(5) 0.5484(2)
O17 O 1.1947(5) 0.9540(5) 0.1849(2)
H1 H 1.1764 1.0142 0.1607
H2 H 1.2262 0.9584 0.2169
N1 N 0.8339(7) 0.8658(6) -0.0492(3)
N2 N 0.8131(7) 0.0665(5) 0.5059(3)
N3 N 0.5254(5) 0.6699(5) 0.3611(3)
N4 N 0.5884(6) 0.7876(5) 0.4041(3)
N5 N 0.3768(6) 0.3831(5) 0.1629(3)
N6 N 0.1591(6) 0.4416(5) 0.1455(3)
N7 N 0.6627(6) 0.2851(4) 0.1038(3)
N8 N 0.6899(6) 0.2103(5) 0.0244(3)
N9 N 1.0137(6) 0.8297(5) 0.3018(3)
N10 N 1.0844(6) 0.7233(5) 0.3846(3)
N11 N 0.8638(6) 0.5177(5) 0.7051(3)
N12 N 0.6805(6) 0.4385(5) 0.7116(3)
C1 C 0.7974(6) 0.8098(5) 0.1204(3)
C2 C 0.7244(6) 0.7219(5) 0.1352(3)
C3 C 0.6916(7) 0.6794(5) 0.0884(3)
C4 C 0.7277(7) 0.7263(6) 0.0288(3)
H3 H 0.7041 0.7000 -0.0024
C5 C 0.7999(7) 0.8133(5) 0.0149(3)
C6 C 0.8367(7) 0.8522(6) 0.0599(3)
H4 H 0.8890 0.9082 0.0496
C7 C 0.8262(9) 0.8626(6) 0.1680(3)
C8 C 0.6859(8) 0.6723(5) 0.2026(3)
C9 C 0.6217(8) 0.5780(6) 0.1026(4)
C10 C 0.6849(7) 0.2711(5) 0.3746(3)
C11 C 0.7577(6) 0.2330(5) 0.3256(3)
C12 C 0.8577(7) 0.1402(6) 0.3358(4)
C13 C 0.8757(7) 0.0877(5) 0.3966(4)
H5 H 0.9421 0.0278 0.4043
C14 C 0.7980(8) 0.1230(6) 0.4440(3)
C15 C 0.7031(7) 0.2180(6) 0.4336(3)
H6 H 0.6535 0.2442 0.4664
C16 C 0.5863(8) 0.3767(6) 0.3653(3)
C17 C 0.7357(7) 0.2843(5) 0.2593(3)
C18 C 0.9452(10) 0.0932(7) 0.2863(4)
C19 C 0.5610(7) 0.7661(6) 0.3524(4)
H7 H 0.5666 0.8138 0.3146
C20 C 0.5312(7) 0.6274(6) 0.4228(4)
H8 H 0.5119 0.5596 0.4433
C21 C 0.5697(7) 0.7002(6) 0.4490(4)
H9 H 0.5809 0.6914 0.4900
C22 C 0.6453(8) 0.8830(7) 0.4093(4)
H10 H 0.6469 0.9331 0.3699
H11 H 0.7398 0.8609 0.4184
C23 C 0.5672(8) 0.9408(7) 0.4574(5)
C24 C 0.4807(9) 1.0370(7) 0.4391(4)
H12 H 0.4662 1.0628 0.3982
C25 C 0.4167(8) 1.0935(7) 0.4833(4)
H13 H 0.3603 1.1578 0.4709
C26 C 0.2863(7) 0.4652(6) 0.1388(3)
H14 H 0.3101 0.5322 0.1192
C27 C 0.2956(8) 0.3008(6) 0.1867(3)
H15 H 0.3277 0.2318 0.2070
C28 C 0.1632(8) 0.3373(6) 0.1756(3)
H16 H 0.0894 0.2984 0.1866
C29 C 0.0360(7) 0.5143(7) 0.1228(3)
H17 H 0.0458 0.5874 0.1226
H18 H -0.0452 0.4959 0.1504
C30 C 0.0167(7) 0.5069(6) 0.0585(3)
C31 C 0.0767(8) 0.5714(7) 0.0083(4)
H19 H 0.1287 0.6211 0.0134
C32 C -0.0614(8) 0.4359(7) 0.0500(4)
H20 H -0.1046 0.3923 0.0837
C33 C 0.6183(7) 0.2855(6) 0.0515(3)
H21 H 0.5448 0.3334 0.0355
C34 C 0.7718(7) 0.2022(6) 0.1109(4)
H22 H 0.8236 0.1810 0.1438
C35 C 0.7897(7) 0.1581(6) 0.0624(3)
H23 H 0.8575 0.1021 0.0552
C36 C 0.6584(8) 0.1799(6) -0.0295(3)
H24 H 0.7438 0.1604 -0.0538
H25 H 0.6070 0.2412 -0.0543
C37 C 0.5749(7) 0.0864(6) -0.0132(3)
C38 C 0.5344(7) 0.0380(6) 0.0466(4)
H26 H 0.5571 0.0628 0.0785
C39 C 0.4591(7) -0.0484(6) 0.0592(3)
H27 H 0.4319 -0.0802 0.0996
C40 C 1.1108(9) 0.8050(6) 0.3378(4)
H28 H 1.1881 0.8396 0.3317
C41 C 0.9230(9) 0.7583(7) 0.3249(4)
H29 H 0.8442 0.7557 0.3080
C42 C 0.9659(8) 0.6917(6) 0.3766(4)
H30 H 0.9229 0.6358 0.4015
C43 C 1.1778(8) 0.6654(6) 0.4307(3)
H31 H 1.2544 0.7050 0.4268
H32 H 1.2149 0.5960 0.4218
C44 C 1.1114(7) 0.6490(6) 0.4954(3)
C45 C 0.9986(7) 0.7124(6) 0.5166(4)
H33 H 0.9542 0.7677 0.4887
C46 C 0.9488(8) 0.6975(6) 0.5772(4)
H34 H 0.8711 0.7417 0.5895
C47 C 1.0114(8) 0.6188(7) 0.6199(4)
C48 C 1.1254(8) 0.5525(6) 0.6002(4)
H35 H 1.1698 0.4984 0.6286
C49 C 1.1742(8) 0.5660(6) 0.5382(4)
H36 H 1.2489 0.5195 0.5254
C50 C 0.9583(8) 0.6008(7) 0.6861(3)
H37 H 0.9096 0.6678 0.6949
H38 H 1.0356 0.5790 0.7101
C51 C 0.7406(7) 0.5273(7) 0.6864(3)
H39 H 0.7010 0.5871 0.6597
C52 C 0.7723(7) 0.3727(6) 0.7484(3)
H40 H 0.7593 0.3057 0.7726
C53 C 0.8852(7) 0.4211(7) 0.7438(3)
H41 H 0.9632 0.3929 0.7637
N3A N 0.4746(5) 1.3301(5) 0.6389(3)
N4A N 0.4116(6) 1.2124(5) 0.5959(3)
C19A C 0.4390(7) 1.2339(6) 0.6476(4)
H7A H 0.4334 1.1862 0.6854
C20A C 0.4688(7) 1.3726(6) 0.5772(4)
H8A H 0.4881 1.4404 0.5567
C21A C 0.4303(7) 1.2998(6) 0.5510(4)
H9A H 0.4191 1.3086 0.5100
C22A C 0.3547(8) 1.1170(7) 0.5907(4)
H10A H 0.3531 1.0669 0.6301
H11A H 0.2602 1.1391 0.5816
C23A C 0.4328(8) 1.0592(7) 0.5426(5)
C24A C 0.5193(9) 0.9630(7) 0.5609(4)
H12A H 0.5338 0.9372 0.6018
C25A C 0.5833(8) 0.9065(7) 0.5167(4)
H13A H 0.6397 0.8422 0.5291
N5A N -0.3768(6) 0.6169(5) -0.1629(3)
N6A N -0.1591(6) 0.5584(5) -0.1455(3)
C26A C -0.2863(7) 0.5348(6) -0.1388(3)
H14A H -0.3101 0.4678 -0.1192
C27A C -0.2956(8) 0.6992(6) -0.1867(3)
H15A H -0.3277 0.7682 -0.2070
C28A C -0.1632(8) 0.6627(6) -0.1756(3)
H16A H -0.0894 0.7016 -0.1866
C29A C -0.0360(7) 0.4857(7) -0.1228(3)
H17A H -0.0458 0.4126 -0.1226
H18A H 0.0452 0.5041 -0.1504
C30A C -0.0167(7) 0.4931(6) -0.0585(3)
C31A C -0.0767(8) 0.4286(7) -0.0083(4)
H19A H -0.1287 0.3789 -0.0134
C32A C 0.0614(8) 0.5641(7) -0.0500(4)
H20A H 0.1046 0.6077 -0.0837
N7A N 0.3373(6) -0.2851(4) -0.1038(3)
N8A N 0.3101(6) -0.2103(5) -0.0244(3)
C33A C 0.3817(7) -0.2855(6) -0.0515(3)
H21A H 0.4552 -0.3334 -0.0355
C34A C 0.2282(7) -0.2022(6) -0.1109(4)
H22A H 0.1764 -0.1810 -0.1438
C35A C 0.2103(7) -0.1581(6) -0.0624(3)
H23A H 0.1425 -0.1021 -0.0552
C36A C 0.3416(8) -0.1799(6) 0.0295(3)
H24A H 0.2562 -0.1604 0.0538
H25A H 0.3930 -0.2412 0.0543
C37A C 0.4251(7) -0.0864(6) 0.0132(3)
C38A C 0.4656(7) -0.0380(6) -0.0466(4)
H26A H 0.4429 -0.0628 -0.0785
C39A C 0.5409(7) 0.0484(6) -0.0592(3)
H27A H 0.5681 0.0802 -0.0996
Zn1A Zn -0.50902(8) 0.41400(6) -0.29872(4)
Zn2A Zn -0.57863(8) 0.62468(6) -0.16438(4)
Zn3A Zn -1.00172(9) 0.05700(7) -0.22363(4)
O1A O -0.9497(6) 0.1083(5) -0.1591(2)
O2A O -0.7419(6) 0.1246(4) -0.2120(2)
O3A O -0.7762(5) 0.3691(4) -0.2349(2)
O4A O -0.5547(5) 0.3187(4) -0.2193(2)
O5A O -0.6487 0.4890 -0.1502
O6A O -0.5438(6) 0.4267(4) -0.0657(2)
O7A O -0.7997(7) 0.1696(5) 0.0893(3)
O8A O -0.8891(6) 0.0527(5) 0.0599(2)
O9A O -0.4876(5) 0.6105(4) -0.4045(2)
O10A O -0.6187(5) 0.5550(4) -0.3174(2)
O11A O -0.6142(5) 0.7142(4) -0.2455(2)
O12A O -0.8329(5) 0.6829(4) -0.2234(2)
O13A O -0.8827(6) 0.9340(4) -0.2481(3)
O14A O -1.0695(7) 0.9253(6) -0.2880(3)
O15A O -0.8673(5) 1.0289(5) -0.5141(2)
O16A O -0.7716(6) 0.8911(5) -0.5484(2)
O17A O -1.1947(5) 0.0460(5) -0.1849(2)
H1A H -1.1764 -0.0142 -0.1607
H2A H -1.2262 0.0416 -0.2169
N1A N -0.8339(7) 0.1342(6) 0.0492(3)
N2A N -0.8131(7) 0.9335(5) -0.5059(3)
N9A N -1.0137(6) 0.1703(5) -0.3018(3)
N10A N -1.0844(6) 0.2767(5) -0.3846(3)
N11A N -0.8638(6) 0.4823(5) -0.7051(3)
N12A N -0.6805(6) 0.5615(5) -0.7116(3)
C1A C -0.7974(6) 0.1902(5) -0.1204(3)
C2A C -0.7244(6) 0.2781(5) -0.1352(3)
C3A C -0.6916(7) 0.3206(5) -0.0884(3)
C4A C -0.7277(7) 0.2737(6) -0.0288(3)
H3A H -0.7041 0.3000 0.0024
C5A C -0.7999(7) 0.1867(5) -0.0149(3)
C6A C -0.8367(7) 0.1478(6) -0.0599(3)
H4A H -0.8890 0.0918 -0.0496
C7A C -0.8262(9) 0.1374(6) -0.1680(3)
C8A C -0.6859(8) 0.3277(5) -0.2026(3)
C9A C -0.6217(8) 0.4220(6) -0.1026(4)
C10A C -0.6849(7) 0.7289(5) -0.3746(3)
C11A C -0.7577(6) 0.7670(5) -0.3256(3)
C12A C -0.8577(7) 0.8598(6) -0.3358(4)
C13A C -0.8757(7) 0.9123(5) -0.3966(4)
H5A H -0.9421 0.9722 -0.4043
C14A C -0.7980(8) 0.8770(6) -0.4440(3)
C15A C -0.7031(7) 0.7820(6) -0.4336(3)
H6A H -0.6535 0.7558 -0.4664
C16A C -0.5863(8) 0.6233(6) -0.3653(3)
C17A C -0.7357(7) 0.7157(5) -0.2593(3)
C18A C -0.9452(10) 0.9068(7) -0.2863(4)
C40A C -1.1108(9) 0.1950(6) -0.3378(4)
H28A H -1.1881 0.1604 -0.3317
C41A C -0.9230(9) 0.2417(7) -0.3249(4)
H29A H -0.8442 0.2443 -0.3080
C42A C -0.9659(8) 0.3083(6) -0.3766(4)
H30A H -0.9229 0.3642 -0.4015
C43A C -1.1778(8) 0.3346(6) -0.4307(3)
H31A H -1.2544 0.2950 -0.4268
H32A H -1.2149 0.4040 -0.4218
C44A C -1.1114(7) 0.3510(6) -0.4954(3)
C45A C -0.9986(7) 0.2876(6) -0.5166(4)
H33A H -0.9542 0.2323 -0.4887
C46A C -0.9488(8) 0.3025(6) -0.5772(4)
H34A H -0.8711 0.2583 -0.5895
C47A C -1.0114(8) 0.3812(7) -0.6199(4)
C48A C -1.1254(8) 0.4475(6) -0.6002(4)
H35A H -1.1698 0.5016 -0.6286
C49A C -1.1742(8) 0.4340(6) -0.5382(4)
H36A H -1.2489 0.4805 -0.5254
C50A C -0.9583(8) 0.3992(7) -0.6861(3)
H37A H -0.9096 0.3322 -0.6949
H38A H -1.0356 0.4210 -0.7101
C51A C -0.7406(7) 0.4727(7) -0.6864(3)
H39A H -0.7010 0.4129 -0.6597
C52A C -0.7723(7) 0.6273(6) -0.7484(3)
H40A H -0.7593 0.6943 -0.7726
C53A C -0.8852(7) 0.5789(7) -0.7438(3)
H41A H -0.9632 0.6071 -0.7637
Zn1_2 Zn -0.49098(8) 0.58600(6) -0.70128(4)
Zn1A_2 Zn 0.49098(8) 0.41400(6) 0.70128(4)
Zn1A_3 Zn 0.49098(8) 1.41400(6) 0.70128(4)
Zn2A_2 Zn 0.42137(8) -0.37532(6) -0.16438(4)
Zn3_2 Zn 1.00172(9) -0.05700(7) 0.22363(4)
Zn3A_2 Zn -1.00172(9) 1.05700(7) -0.22363(4)
O13_2 O 0.8827(6) 1.0660(4) 0.2481(3)
O13A_2 O -0.8827(6) -0.0660(4) -0.2481(3)
N3A_2 N -0.5254(5) 0.3301(5) -0.3611(3)
N7A_2 N -0.6627(6) 0.7149(4) -0.1038(3)
N12_2 N -0.3195(6) 0.4385(5) -0.2884(3)
N12A_2 N 0.3195(6) 0.5615(5) 0.2884(3)
loop_
_geom_bond_atom_site_label_1
_geom_bond_atom_site_label_2
_geom_bond_site_symmetry_1
_geom_bond_site_symmetry_2
Zn1 O4 1_555 1_555
Zn2 O5 1_555 1_555
Zn3 O1 1_555 1_555
O1 C7 1_555 1_555
O2 C7 1_555 1_555
O3 C8 1_555 1_555
O4 C8 1_555 1_555
O5 C9 1_555 1_555
O6 C9 1_555 1_555
O7 N1 1_555 1_555
O8 N1 1_555 1_555
O9 C16 1_555 1_555
O10 Zn1 1_555 1_555
O11 Zn2 1_555 1_555
O12 C17 1_555 1_555
O13 C18 1_555 1_555
O14 C18 1_555 1_555
O15 N2 1_555 1_555
O16 N2 1_555 1_555
O17 Zn3 1_555 1_555
H1 O17 1_555 1_555
H2 O17 1_555 1_555
N1 C5 1_555 1_555
N2 C14 1_555 1_555
N3 Zn1 1_555 1_555
N4 C19 1_555 1_555
N5 Zn2 1_555 1_555
N6 C26 1_555 1_555
N7 Zn2 1_555 1_555
N8 C33 1_555 1_555
N9 Zn3 1_555 1_555
N10 C40 1_555 1_555
N11 C50 1_555 1_555
N12 C51 1_555 1_555
C1 C2 1_555 1_555
C2 C3 1_555 1_555
C3 C4 1_555 1_555
C4 H3 1_555 1_555
C5 C4 1_555 1_555
C6 C1 1_555 1_555
H4 C6 1_555 1_555
C7 C1 1_555 1_555
C8 C2 1_555 1_555
C9 C3 1_555 1_555
C10 C11 1_555 1_555
C11 C12 1_555 1_555
C12 C13 1_555 1_555
C13 H5 1_555 1_555
C14 C13 1_555 1_555
C15 C10 1_555 1_555
H6 C15 1_555 1_555
C16 O10 1_555 1_555
C17 O11 1_555 1_555
C18 C12 1_555 1_555
C19 N3 1_555 1_555
H7 C19 1_555 1_555
C20 N3 1_555 1_555
H8 C20 1_555 1_555
C21 N4 1_555 1_555
H9 C21 1_555 1_555
C22 N4 1_555 1_555
H10 C22 1_555 1_555
H11 C22 1_555 1_555
C23 C22 1_555 1_555
C24 C23 1_555 1_555
H12 C24 1_555 1_555
C25 C24 1_555 1_555
H13 C25 1_555 1_555
C26 N5 1_555 1_555
H14 C26 1_555 1_555
C27 N5 1_555 1_555
H15 C27 1_555 1_555
C28 N6 1_555 1_555
H16 C28 1_555 1_555
C29 N6 1_555 1_555
H17 C29 1_555 1_555
H18 C29 1_555 1_555
C30 C29 1_555 1_555
C31 C30 1_555 1_555
H19 C31 1_555 1_555
C32 C30 1_555 1_555
H20 C32 1_555 1_555
C33 N7 1_555 1_555
H21 C33 1_555 1_555
C34 N7 1_555 1_555
H22 C34 1_555 1_555
C35 N8 1_555 1_555
H23 C35 1_555 1_555
C36 N8 1_555 1_555
H24 C36 1_555 1_555
H25 C36 1_555 1_555
C37 C36 1_555 1_555
C38 C37 1_555 1_555
H26 C38 1_555 1_555
C39 C38 1_555 1_555
H27 C39 1_555 1_555
C40 N9 1_555 1_555
H28 C40 1_555 1_555
C41 N9 1_555 1_555
H29 C41 1_555 1_555
C42 N10 1_555 1_555
H30 C42 1_555 1_555
C43 N10 1_555 1_555
H31 C43 1_555 1_555
H32 C43 1_555 1_555
C44 C43 1_555 1_555
C45 C44 1_555 1_555
H33 C45 1_555 1_555
C46 C45 1_555 1_555
H34 C46 1_555 1_555
C47 C46 1_555 1_555
C48 C47 1_555 1_555
H35 C48 1_555 1_555
C49 C44 1_555 1_555
H36 C49 1_555 1_555
C50 C47 1_555 1_555
H37 C50 1_555 1_555
H38 C50 1_555 1_555
C51 N11 1_555 1_555
H39 C51 1_555 1_555
C52 N12 1_555 1_555
H40 C52 1_555 1_555
C53 N11 1_555 1_555
H41 C53 1_555 1_555
N3A C19A 1_555 1_555
N4A C19A 1_555 1_555
C19A H7A 1_555 1_555
C20A N3A 1_555 1_555
H8A C20A 1_555 1_555
C21A N4A 1_555 1_555
H9A C21A 1_555 1_555
C22A N4A 1_555 1_555
H10A C22A 1_555 1_555
H11A C22A 1_555 1_555
C23A C25 1_555 1_555
C24A C23A 1_555 1_555
H12A C24A 1_555 1_555
C25A C23 1_555 1_555
H13A C25A 1_555 1_555
N5A C26A 1_555 1_555
N6A C26A 1_555 1_555
C26A H14A 1_555 1_555
C27A N5A 1_555 1_555
H15A C27A 1_555 1_555
C28A N6A 1_555 1_555
H16A C28A 1_555 1_555
C29A N6A 1_555 1_555
H17A C29A 1_555 1_555
H18A C29A 1_555 1_555
C30A C29A 1_555 1_555
C31A C32 1_555 1_555
H19A C31A 1_555 1_555
C32A C31 1_555 1_555
H20A C32A 1_555 1_555
N7A C33A 1_555 1_555
N8A C33A 1_555 1_555
C33A H21A 1_555 1_555
C34A N7A 1_555 1_555
H22A C34A 1_555 1_555
C35A N8A 1_555 1_555
H23A C35A 1_555 1_555
C36A N8A 1_555 1_555
H24A C36A 1_555 1_555
H25A C36A 1_555 1_555
C37A C39 1_555 1_555
C38A C37A 1_555 1_555
H26A C38A 1_555 1_555
C39A C37 1_555 1_555
H27A C39A 1_555 1_555
Zn1A O4A 1_555 1_555
Zn2A N5A 1_555 1_555
Zn3A O1A 1_555 1_555
O1A C7A 1_555 1_555
O2A C7A 1_555 1_555
O3A C8A 1_555 1_555
O4A C8A 1_555 1_555
O5A Zn2A 1_555 1_555
O6A C9A 1_555 1_555
O7A N1A 1_555 1_555
O8A N1A 1_555 1_555
O9A C16A 1_555 1_555
O10A Zn1A 1_555 1_555
O11A Zn2A 1_555 1_555
O12A C17A 1_555 1_555
O13A C18A 1_555 1_555
O14A C18A 1_555 1_555
O15A N2A 1_555 1_555
O16A N2A 1_555 1_555
O17A Zn3A 1_555 1_555
H1A O17A 1_555 1_555
H2A O17A 1_555 1_555
N1A C5A 1_555 1_555
N2A C14A 1_555 1_555
N9A Zn3A 1_555 1_555
N10A C40A 1_555 1_555
N11A C50A 1_555 1_555
N12A C51A 1_555 1_555
C1A C2A 1_555 1_555
C2A C3A 1_555 1_555
C3A C4A 1_555 1_555
C4A H3A 1_555 1_555
C5A C4A 1_555 1_555
C6A C1A 1_555 1_555
H4A C6A 1_555 1_555
C7A C1A 1_555 1_555
C8A C2A 1_555 1_555
C9A O5A 1_555 1_555
C10A C11A 1_555 1_555
C11A C12A 1_555 1_555
C12A C13A 1_555 1_555
C13A H5A 1_555 1_555
C14A C13A 1_555 1_555
C15A C10A 1_555 1_555
H6A C15A 1_555 1_555
C16A O10A 1_555 1_555
C17A O11A 1_555 1_555
C18A C12A 1_555 1_555
C40A N9A 1_555 1_555
H28A C40A 1_555 1_555
C41A N9A 1_555 1_555
H29A C41A 1_555 1_555
C42A N10A 1_555 1_555
H30A C42A 1_555 1_555
C43A N10A 1_555 1_555
H31A C43A 1_555 1_555
H32A C43A 1_555 1_555
C44A C43A 1_555 1_555
C45A C44A 1_555 1_555
H33A C45A 1_555 1_555
C46A C45A 1_555 1_555
H34A C46A 1_555 1_555
C47A C46A 1_555 1_555
C48A C47A 1_555 1_555
H35A C48A 1_555 1_555
C49A C44A 1_555 1_555
H36A C49A 1_555 1_555
C50A C47A 1_555 1_555
H37A C50A 1_555 1_555
H38A C50A 1_555 1_555
C51A N11A 1_555 1_555
H39A C51A 1_555 1_555
C52A N12A 1_555 1_555
H40A C52A 1_555 1_555
C53A N11A 1_555 1_555
H41A C53A 1_555 1_555
Zn1_2 N12A 1_555 1_555
Zn1A_2 N12 1_555 1_555
Zn1A_3 N3A 1_555 1_555
Zn2A_2 N7A 1_555 1_555
Zn3_2 O13 1_555 1_555
Zn3A_2 O13A 1_555 1_555
O13_2 Zn3 1_555 1_555
O13A_2 Zn3A 1_555 1_555
N3A_2 Zn1A 1_555 1_555
N7A_2 Zn2A 1_555 1_555
N12_2 Zn1A 1_555 1_555
N12A_2 Zn1 1_555 1_555
C5 C6 1_555 1_555
C10 C16 1_555 1_555
C11 C17 1_555 1_555
C14 C15 1_555 1_555
C20 C21 1_555 1_555
C27 C28 1_555 1_555
C34 C35 1_555 1_555
C41 C42 1_555 1_555
C48 C49 1_555 1_555
C52 C53 1_555 1_555
C20A C21A 1_555 1_555
C22A C23A 1_555 1_555
C24A C25A 1_555 1_555
C27A C28A 1_555 1_555
C30A C31A 1_555 1_555
C30A C32A 1_555 1_555
C34A C35A 1_555 1_555
C36A C37A 1_555 1_555
C38A C39A 1_555 1_555
C3A C9A 1_555 1_555
C5A C6A 1_555 1_555
C10A C16A 1_555 1_555
C11A C17A 1_555 1_555
C14A C15A 1_555 1_555
C41A C42A 1_555 1_555
C48A C49A 1_555 1_555
C52A C53A 1_555 1_555

#END
