
#######################################################################
#
#                 Cambridge Crystallographic Data Centre
#                                CCDC 
#
#######################################################################
#
# If this CIF has been generated from an entry in the Cambridge 
# Structural Database, then it will include bibliographic, chemical, 
# crystal, experimental, refinement or atomic coordinate data resulting 
# from the CCDC's data processing and validation procedures.
#
#######################################################################

data_FIRKIA
_symmetry_cell_setting           monoclinic
_symmetry_space_group_name_H-M   'P 21/c'
_symmetry_Int_Tables_number      14
_space_group_name_Hall           '-P 2ybc'
loop_
_symmetry_equiv_pos_site_id
_symmetry_equiv_pos_as_xyz
1 x,y,z
2 x,1/2-y,1/2+z
3 -x,-y,-z
4 -x,1/2+y,1/2-z
_cell_length_a                   11.4303(6)
_cell_length_b                   11.4954(6)
_cell_length_c                   14.0444(7)
_cell_angle_alpha                90.00
_cell_angle_beta                 99.9480(10)
_cell_angle_gamma                90.00
_cell_volume                     1817.63
loop_
_atom_site_label
_atom_site_type_symbol
_atom_site_fract_x
_atom_site_fract_y
_atom_site_fract_z
Cu1 Cu 0.27878(2) -0.35807(2) 0.18675(2)
N1 N 0.39441(13) -0.31112(13) 0.09841(11)
N2 N 0.68198(13) 0.08061(14) 0.17396(11)
N3 N 0.1869(2) -0.4998(2) 0.11980(13)
N4 N 0.15055(15) -0.23835(15) 0.18367(13)
C1 C 0.4650(2) -0.1458(2) 0.19587(13)
H1 H 0.4134(2) -0.1665(2) 0.23935(13)
C2 C 0.46696(15) -0.2153(2) 0.11160(12)
C3 C 0.5403(2) -0.1827(2) 0.04478(12)
C4 C 0.5387(2) -0.2536(2) -0.03730(13)
H2 H 0.5871(2) -0.2350(2) -0.08381(13)
C5 C 0.4667(2) -0.3495(2) -0.04915(13)
H3 H 0.4649(2) -0.3982(2) -0.10402(13)
C6 C 0.3959(2) -0.3754(2) 0.01957(13)
H4 H 0.3463(2) -0.4422(2) 0.00975(13)
C7 C 0.5353(2) -0.0511(2) 0.21470(13)
H5 H 0.5332(2) -0.0072(2) 0.27171(13)
C8 C 0.6127(2) -0.0159(2) 0.15000(12)
C9 C 0.61320(15) -0.0788(2) 0.06366(12)
C10 C 0.6834(2) -0.0355(2) -0.00176(13)
H6 H 0.6860(2) -0.0750(2) -0.06080(13)
C11 C 0.7479(2) 0.0644(2) 0.02104(14)
H7 H 0.7934(2) 0.0963(2) -0.02325(14)
C12 C 0.7464(2) 0.1189(2) 0.10972(14)
H8 H 0.7936(2) 0.1866(2) 0.12505(14)
C13 C 0.1259(2) -0.5745(2) 0.0922(2)
C14 C 0.0450(3) -0.6692(3) 0.0578(2)
H9 H 0.0800(3) -0.7432(3) 0.0832(2)
H10 H 0.0314(3) -0.6711(3) -0.0130(2)
H11 H -0.0307(3) -0.6572(3) 0.0802(2)
C15 C 0.0724(2) -0.1763(2) 0.17565(15)
C16 C -0.0287(2) -0.0970(2) 0.1629(2)
H12 H -0.0273(2) -0.0515(2) 0.2221(2)
H13 H -0.1026(2) -0.1418(2) 0.1492(2)
H14 H -0.0239(2) -0.0443(2) 0.1088(2)
N2C N 0.31802(13) -0.41939(14) 0.32604(11)
Cu1C Cu 0.72122(2) 0.14193(2) 0.31325(2)
P1 P 0.21504(4) -0.61181(5) 0.79684(4)
F1 F 0.21565(13) -0.54306(15) 0.69877(10)
F2 F 0.1696(2) -0.49742(14) 0.84284(11)
F3 F 0.07953(13) -0.64693(15) 0.75808(15)
F4 F 0.21157(15) -0.6803(2) 0.89515(13)
F5 F 0.2574(2) -0.72727(15) 0.75217(15)
F6 F 0.34863(12) -0.57625(13) 0.83620(12)
loop_
_geom_bond_atom_site_label_1
_geom_bond_atom_site_label_2
_geom_bond_site_symmetry_1
_geom_bond_site_symmetry_2
Cu1 N1 1_555 1_555
P1 F1 1_555 1_555
F2 P1 1_555 1_555
F3 P1 1_555 1_555
F4 P1 1_555 1_555
F5 P1 1_555 1_555
F6 P1 1_555 1_555
N1 C2 1_555 1_555
N2 C8 1_555 1_555
N3 Cu1 1_555 1_555
N4 Cu1 1_555 1_555
C1 H1 1_555 1_555
C2 C1 1_555 1_555
C3 C2 1_555 1_555
C4 C3 1_555 1_555
H2 C4 1_555 1_555
C5 C4 1_555 1_555
H3 C5 1_555 1_555
C6 N1 1_555 1_555
H4 C6 1_555 1_555
C7 C1 1_555 1_555
H5 C7 1_555 1_555
C8 C7 1_555 1_555
C9 C3 1_555 1_555
C10 C9 1_555 1_555
H6 C10 1_555 1_555
C11 C10 1_555 1_555
H7 C11 1_555 1_555
C12 N2 1_555 1_555
H8 C12 1_555 1_555
C13 N3 1_555 1_555
C14 C13 1_555 1_555
H9 C14 1_555 1_555
H10 C14 1_555 1_555
H11 C14 1_555 1_555
C15 N4 1_555 1_555
C16 C15 1_555 1_555
H12 C16 1_555 1_555
H13 C16 1_555 1_555
H14 C16 1_555 1_555
N2C Cu1 1_555 1_555
Cu1C N2 1_555 1_555
C5 C6 1_555 1_555
C8 C9 1_555 1_555
C11 C12 1_555 1_555

#END
