
#######################################################################
#
#                 Cambridge Crystallographic Data Centre
#                                CCDC 
#
#######################################################################
#
# If this CIF has been generated from an entry in the Cambridge 
# Structural Database, then it will include bibliographic, chemical, 
# crystal, experimental, refinement or atomic coordinate data resulting 
# from the CCDC's data processing and validation procedures.
#
#######################################################################

data_FIRLID
_symmetry_cell_setting           monoclinic
_symmetry_space_group_name_H-M   'P 21/c'
_symmetry_Int_Tables_number      14
_space_group_name_Hall           '-P 2ybc'
loop_
_symmetry_equiv_pos_site_id
_symmetry_equiv_pos_as_xyz
1 x,y,z
2 -x,1/2+y,1/2-z
3 -x,-y,-z
4 x,1/2-y,1/2+z
_cell_length_a                   12.194(5)
_cell_length_b                   11.916(5)
_cell_length_c                   18.191(5)
_cell_angle_alpha                90
_cell_angle_beta                 97.202(5)
_cell_angle_gamma                90
_cell_volume                     2622.37
loop_
_atom_site_label
_atom_site_type_symbol
_atom_site_fract_x
_atom_site_fract_y
_atom_site_fract_z
Co1 Co 0.131250(15) 0.252754(15) 0.197507(10)
O1 O 0.31968(9) 0.33861(9) 0.20832(6)
O2 O 0.96677(9) 0.22764(10) 0.17356(7)
C1 C 0.40928(11) 0.02588(11) 0.03441(8)
N1 N 0.30995(10) 0.05112(10) 0.06648(7)
O3 O 0.41102(9) 0.34102(10) 0.06014(6)
O4 O 0.97125(10) 0.36723(11) 0.25417(8)
C2 C 0.80042(11) 0.32769(12) 0.18231(8)
N2 N 0.12327(10) 0.11915(11) 0.40646(6)
N3 N 0.16016(10) 0.19783(11) 0.30334(7)
C3 C 0.74987(11) 0.42007(12) 0.21055(8)
H1 H 0.7892 0.4636 0.2473
C4 C 0.58155(11) 0.38195(12) 0.13054(7)
C5 C 0.08494(14) -0.05234(13) 0.47058(8)
H2 H 0.1433 -0.0858 0.4505
C6 C 0.02344(14) -0.11520(13) 0.51442(8)
C7 C 0.46447(11) 0.40739(12) 0.10130(7)
C8 C 0.92102(11) 0.30633(12) 0.20653(8)
C9 C 0.64219(12) 0.44784(12) 0.18470(8)
H3 H 0.6098 0.5106 0.2034
N4 N 0.19235(10) 0.13641(11) 0.12990(7)
C10 C 0.48998(12) -0.01122(11) -0.07885(8)
O5 O 0.15892(9) 0.40652(11) 0.16129(8)
C11 C 0.63114(12) 0.28794(13) 0.10331(8)
H4 H 0.5910 0.2428 0.0679
C12 C 0.39927(11) 0.01500(11) -0.04214(8)
H5 H 0.3305 0.0254 -0.0697
C13 C 0.06105(13) 0.05986(13) 0.45599(7)
C14 C 0.73968(14) 0.26134(12) 0.12862(10)
H6 H 0.7724 0.1989 0.1098
C15 C 0.29540(12) 0.13386(12) 0.11485(8)
H7 H 0.3507 0.1827 0.1349
C16 C 0.26295(12) 0.41380(12) 0.17542(8)
C17 C 0.41465(11) 0.51657(12) 0.12042(8)
C18 C 0.31618(12) 0.51958(12) 0.15243(8)
C19 C 0.08939(13) 0.13557(14) 0.33412(8)
H8 H 0.0243 0.1067 0.3091
C20 C 0.47505(15) -0.01784(17) -0.16213(9)
H9 H 0.5365 0.0176 -0.1809
H10 H 0.4079 0.0197 -0.1814
H11 H 0.4712 -0.0951 -0.1772
C21 C 0.13853(13) 0.05057(15) 0.08954(10)
H12 H 0.0645 0.0317 0.0894
C22 C 0.21014(13) -0.00176(14) 0.05026(10)
H13 H 0.1947 -0.0622 0.0183
C23 C 0.24448(14) 0.22129(16) 0.35846(10)
H14 H 0.3072 0.2632 0.3527
C24 C 0.26927(15) 0.62270(14) 0.16528(11)
H15 H 0.2038 0.6253 0.1865
C25 C 0.22201(14) 0.17384(16) 0.42262(9)
H16 H 0.2651 0.1777 0.4685
C26 C 0.31862(18) 0.72182(16) 0.14695(13)
H17 H 0.2876 0.7904 0.1573
C27 C 0.46254(14) 0.61629(14) 0.10095(10)
H18 H 0.5278 0.6145 0.0794
C28 C 0.0467(2) -0.23790(15) 0.52795(13)
H19 H 0.0481 -0.2755 0.4814
H20 H -0.0102 -0.2700 0.5534
H21 H 0.1169 -0.2466 0.5577
C29 C 0.41376(17) 0.71854(16) 0.11337(12)
H22 H 0.4453 0.7849 0.0991
C1B C 0.59072(11) -0.02588(11) -0.03441(8)
N1B N 0.69005(10) -0.05112(10) -0.06648(7)
N4B N 0.80765(10) -0.13641(11) -0.12990(7)
C10B C 0.51002(12) 0.01122(11) 0.07885(8)
C12B C 0.60073(11) -0.01500(11) 0.04214(8)
H5B H 0.6695 -0.0254 0.0697
C15B C 0.70460(12) -0.13386(12) -0.11485(8)
H7B H 0.6493 -0.1827 -0.1349
C20B C 0.52495(15) 0.01784(17) 0.16213(9)
H9B H 0.4635 -0.0176 0.1809
H10B H 0.5921 -0.0197 0.1814
H11B H 0.5288 0.0951 0.1772
C21B C 0.86147(13) -0.05057(15) -0.08954(10)
H12B H 0.9355 -0.0317 -0.0894
C22B C 0.78986(13) 0.00176(14) -0.05026(10)
H13B H 0.8053 0.0622 -0.0183
N2B N -0.12327(10) -0.11915(11) 0.59354(6)
N3B N -0.16016(10) -0.19783(11) 0.69666(7)
C5B C -0.08494(14) 0.05234(13) 0.52942(8)
H2B H -0.1433 0.0858 0.5495
C6B C -0.02344(14) 0.11520(13) 0.48558(8)
C13B C -0.06105(13) -0.05986(13) 0.54401(7)
C19B C -0.08939(13) -0.13557(14) 0.66588(8)
H8B H -0.0243 -0.1067 0.6909
C23B C -0.24448(14) -0.22129(16) 0.64154(10)
H14B H -0.3072 -0.2632 0.6473
C25B C -0.22201(14) -0.17384(16) 0.57738(9)
H16B H -0.2651 -0.1777 0.5315
C28B C -0.0467(2) 0.23790(15) 0.47205(13)
H19B H -0.0481 0.2755 0.5186
H20B H 0.0102 0.2700 0.4466
H21B H -0.1169 0.2466 0.4423
Co1B Co -0.131250(15) -0.252754(15) 0.802493(10)
O1B O -0.31968(9) -0.33861(9) 0.79168(6)
O2B O -0.96677(9) -0.22764(10) 0.82644(7)
O3B O -0.41102(9) -0.34102(10) 0.93986(6)
O4B O -0.97125(10) -0.36723(11) 0.74583(8)
C2B C -0.80042(11) -0.32769(12) 0.81769(8)
C3B C -0.74987(11) -0.42007(12) 0.78945(8)
H1B H -0.7892 -0.4636 0.7527
C4B C -0.58155(11) -0.38195(12) 0.86946(7)
C7B C -0.46447(11) -0.40739(12) 0.89870(7)
C8B C -0.92102(11) -0.30633(12) 0.79347(8)
C9B C -0.64219(12) -0.44784(12) 0.81530(8)
H3B H -0.6098 -0.5106 0.7966
O5B O -0.15892(9) -0.40652(11) 0.83871(8)
C11B C -0.63114(12) -0.28794(13) 0.89669(8)
H4B H -0.5910 -0.2428 0.9321
C14B C -0.73968(14) -0.26134(12) 0.87138(10)
H6B H -0.7724 -0.1989 0.8902
C16B C -0.26295(12) -0.41380(12) 0.82458(8)
C17B C -0.41465(11) -0.51657(12) 0.87958(8)
C18B C -0.31618(12) -0.51958(12) 0.84757(8)
C24B C -0.26927(15) -0.62270(14) 0.83472(11)
H15B H -0.2038 -0.6253 0.8135
C26B C -0.31862(18) -0.72182(16) 0.85305(13)
H17B H -0.2876 -0.7904 0.8427
C27B C -0.46254(14) -0.61629(14) 0.89905(10)
H18B H -0.5278 -0.6145 0.9206
C29B C -0.41376(17) -0.71854(16) 0.88663(12)
H22B H -0.4453 -0.7849 0.9009
Co1_2 Co 1.131250(15) 0.252754(15) 0.197507(10)
Co1B_2 Co -1.131250(15) -0.252754(15) 0.802493(10)
Co1B_3 Co 0.868750(15) -0.252754(15) -0.197507(10)
O2_2 O -0.03323(9) 0.22764(10) 0.17356(7)
O2B_2 O 0.03323(9) -0.22764(10) 0.82644(7)
N4B_2 N -0.19235(10) -0.13641(11) 0.87010(7)
O6 O 0.13141(14) 0.50300(15) 0.35032(12)
H23 H 0.0950 0.5629 0.3398
H24 H 0.1068 0.4613 0.3141
loop_
_geom_bond_atom_site_label_1
_geom_bond_atom_site_label_2
_geom_bond_site_symmetry_1
_geom_bond_site_symmetry_2
Co1 N3 1_555 1_555
O1 C16 1_555 1_555
O2 C8 1_555 1_555
C1 N1 1_555 1_555
N1 C15 1_555 1_555
O3 C7 1_555 1_555
O4 C8 1_555 1_555
C2 C3 1_555 1_555
N2 C13 1_555 1_555
N3 C19 1_555 1_555
C3 H1 1_555 1_555
C4 C7 1_555 1_555
C5 H2 1_555 1_555
C6 C5 1_555 1_555
C7 C17 1_555 1_555
C8 C2 1_555 1_555
C9 C3 1_555 1_555
H3 C9 1_555 1_555
N4 Co1 1_555 1_555
C10 C12 1_555 1_555
O5 Co1 1_555 1_555
C11 C4 1_555 1_555
H4 C11 1_555 1_555
C12 C1 1_555 1_555
H5 C12 1_555 1_555
C13 C5 1_555 1_555
C14 C2 1_555 1_555
H6 C14 1_555 1_555
C15 N4 1_555 1_555
H7 C15 1_555 1_555
C16 O5 1_555 1_555
C17 C18 1_555 1_555
C18 C16 1_555 1_555
C19 N2 1_555 1_555
H8 C19 1_555 1_555
C20 C10 1_555 1_555
H9 C20 1_555 1_555
H10 C20 1_555 1_555
H11 C20 1_555 1_555
C21 N4 1_555 1_555
H12 C21 1_555 1_555
C22 N1 1_555 1_555
H13 C22 1_555 1_555
C23 N3 1_555 1_555
H14 C23 1_555 1_555
C24 C18 1_555 1_555
H15 C24 1_555 1_555
C25 N2 1_555 1_555
H16 C25 1_555 1_555
C26 C24 1_555 1_555
H17 C26 1_555 1_555
C27 C17 1_555 1_555
H18 C27 1_555 1_555
C28 C6 1_555 1_555
H19 C28 1_555 1_555
H20 C28 1_555 1_555
H21 C28 1_555 1_555
C29 C26 1_555 1_555
H22 C29 1_555 1_555
O6 H23 1_555 1_555
H24 O6 1_555 1_555
C1B C10 1_555 1_555
N1B C1B 1_555 1_555
N4B C15B 1_555 1_555
C10B C1 1_555 1_555
C12B C1B 1_555 1_555
H5B C12B 1_555 1_555
C15B N1B 1_555 1_555
H7B C15B 1_555 1_555
C20B C10B 1_555 1_555
H9B C20B 1_555 1_555
H10B C20B 1_555 1_555
H11B C20B 1_555 1_555
C21B N4B 1_555 1_555
H12B C21B 1_555 1_555
C22B N1B 1_555 1_555
H13B C22B 1_555 1_555
N2B C13B 1_555 1_555
N3B C19B 1_555 1_555
C5B H2B 1_555 1_555
C6B C13 1_555 1_555
C13B C6 1_555 1_555
C19B N2B 1_555 1_555
H8B C19B 1_555 1_555
C23B N3B 1_555 1_555
H14B C23B 1_555 1_555
C25B N2B 1_555 1_555
H16B C25B 1_555 1_555
C28B C6B 1_555 1_555
H19B C28B 1_555 1_555
H20B C28B 1_555 1_555
H21B C28B 1_555 1_555
Co1B N3B 1_555 1_555
O1B C16B 1_555 1_555
O2B C8B 1_555 1_555
O3B C7B 1_555 1_555
O4B C8B 1_555 1_555
C2B C3B 1_555 1_555
C3B H1B 1_555 1_555
C4B C7B 1_555 1_555
C7B C17B 1_555 1_555
C8B C2B 1_555 1_555
C9B C3B 1_555 1_555
H3B C9B 1_555 1_555
O5B Co1B 1_555 1_555
C11B C4B 1_555 1_555
H4B C11B 1_555 1_555
C14B C2B 1_555 1_555
H6B C14B 1_555 1_555
C16B O5B 1_555 1_555
C17B C18B 1_555 1_555
C18B C16B 1_555 1_555
C24B C18B 1_555 1_555
H15B C24B 1_555 1_555
C26B C24B 1_555 1_555
H17B C26B 1_555 1_555
C27B C17B 1_555 1_555
H18B C27B 1_555 1_555
C29B C26B 1_555 1_555
H22B C29B 1_555 1_555
Co1_2 O2 1_555 1_555
Co1B_2 O2B 1_555 1_555
Co1B_3 N4B 1_555 1_555
O2_2 Co1 1_555 1_555
O2B_2 Co1B 1_555 1_555
N4B_2 Co1B 1_555 1_555
C4 C9 1_555 1_555
C11 C14 1_555 1_555
C21 C22 1_555 1_555
C23 C25 1_555 1_555
C27 C29 1_555 1_555
C10B C12B 1_555 1_555
C21B C22B 1_555 1_555
C5B C6B 1_555 1_555
C5B C13B 1_555 1_555
C23B C25B 1_555 1_555
C4B C9B 1_555 1_555
C11B C14B 1_555 1_555
C27B C29B 1_555 1_555

#END
