
#######################################################################
#
#                 Cambridge Crystallographic Data Centre
#                                CCDC 
#
#######################################################################
#
# If this CIF has been generated from an entry in the Cambridge 
# Structural Database, then it will include bibliographic, chemical, 
# crystal, experimental, refinement or atomic coordinate data resulting 
# from the CCDC's data processing and validation procedures.
#
#######################################################################

data_FIRLOJ
_symmetry_cell_setting           monoclinic
_symmetry_space_group_name_H-M   'P 21/c'
_symmetry_Int_Tables_number      14
_space_group_name_Hall           '-P 2ybc'
loop_
_symmetry_equiv_pos_site_id
_symmetry_equiv_pos_as_xyz
1 x,y,z
2 -x,1/2+y,1/2-z
3 -x,-y,-z
4 x,1/2-y,1/2+z
_cell_length_a                   12.476(5)
_cell_length_b                   12.016(5)
_cell_length_c                   18.227(5)
_cell_angle_alpha                90
_cell_angle_beta                 98.687(5)
_cell_angle_gamma                90
_cell_volume                     2701.09
loop_
_atom_site_label
_atom_site_type_symbol
_atom_site_fract_x
_atom_site_fract_y
_atom_site_fract_z
Cd1 Cd 0.636742(10) 0.231868(12) 0.696783(7)
O1 O 1.45749(12) 0.27402(13) 0.66660(10)
N1 N 0.81398(12) 0.44777(12) 0.56289(9)
O2 O 0.81964(12) 0.14244(12) 0.70542(8)
C1 C 0.91102(14) 0.47309(14) 0.53251(10)
O3 O 1.47582(12) 0.12721(14) 0.73973(10)
N2 N 0.62228(13) 0.37843(14) 0.91147(8)
N3 N 0.69774(13) 0.36287(15) 0.62330(9)
C2 C 0.58542(17) 0.54925(18) 0.97352(10)
H1 H 0.6440 0.5809 0.9552
C3 C 1.12928(16) 0.20319(17) 0.60104(12)
H2 H 1.0869 0.2459 0.5652
N4 N 0.66312(14) 0.29879(15) 0.81137(9)
O4 O 0.91304(11) 0.14717(14) 0.56294(9)
O5 O 0.66922(12) 0.06586(16) 0.65222(12)
C4 C 1.29967(14) 0.16875(15) 0.67810(10)
C5 C 0.52563(17) 0.61334(18) 1.01576(10)
C6 C 0.92571(14) -0.02841(16) 0.62148(10)
C7 C 1.14780(14) 0.04846(17) 0.68577(10)
H3 H 1.1183 -0.0128 0.7067
C8 C 0.79744(16) 0.36287(16) 0.60791(11)
H4 H 0.8499 0.3107 0.6259
C9 C 1.25458(15) 0.07843(16) 0.70902(10)
H5 H 1.2965 0.0373 0.7459
C10 C 0.90079(15) 0.49113(14) 0.45648(10)
H6 H 0.8327 0.4847 0.4279
C11 C 1.08455(14) 0.11056(15) 0.63075(10)
C12 C 0.96945(14) 0.08192(16) 0.60285(10)
C13 C 0.82924(15) -0.03674(17) 0.65121(11)
C14 C 0.76979(15) 0.06525(17) 0.67116(11)
C15 C 0.98916(15) 0.51848(14) 0.42192(10)
C16 C 1.41912(15) 0.19201(17) 0.69759(11)
C17 C 0.71772(17) 0.50492(19) 0.54888(13)
H7 H 0.7037 0.5677 0.5192
C18 C 0.55977(16) 0.43967(18) 0.95824(9)
C19 C 0.97360(18) 0.5317(2) 0.33873(11)
H8 H 0.9718 0.6094 0.3264
H9 H 0.9065 0.4975 0.3174
H10 H 1.0326 0.4966 0.3194
C20 C 0.64789(17) 0.4526(2) 0.58632(13)
H11 H 0.5764 0.4741 0.5871
C21 C 0.78932(19) -0.1412(2) 0.66442(14)
H12 H 0.7252 -0.1472 0.6844
C22 C 0.9358(2) -0.2281(2) 0.61657(19)
H13 H 0.9699 -0.2922 0.6032
C23 C 0.97807(18) -0.12508(19) 0.60436(14)
H14 H 1.0423 -0.1201 0.5845
C24 C 0.59279(17) 0.36185(18) 0.83862(10)
H15 H 0.5305 0.3912 0.8109
C25 C 1.23602(17) 0.23229(16) 0.62435(13)
H16 H 1.2654 0.2943 0.6042
C26 C 0.74156(19) 0.2738(2) 0.86984(14)
H17 H 0.8023 0.2299 0.8672
C27 C 0.71738(19) 0.3224(2) 0.93170(13)
H18 H 0.7575 0.3186 0.9790
C28 C 0.5516(2) 0.7350(2) 1.03085(16)
H19 H 0.6288 0.7448 1.0407
H20 H 0.5201 0.7590 1.0731
H21 H 0.5223 0.7785 0.9883
C29 C 0.8429(2) -0.2360(2) 0.64856(19)
H22 H 0.8164 -0.3055 0.6594
N1B N 1.18602(12) 0.55223(12) 0.43711(9)
C1B C 1.08898(14) 0.52691(14) 0.46749(10)
N3B N 1.30226(13) 0.63713(15) 0.37670(9)
C8B C 1.20256(16) 0.63713(16) 0.39209(11)
H4B H 1.1501 0.6893 0.3741
C10B C 1.09921(15) 0.50887(14) 0.54352(10)
H6B H 1.1673 0.5153 0.5721
C15B C 1.01084(15) 0.48152(14) 0.57808(10)
C17B C 1.28228(17) 0.49508(19) 0.45112(13)
H7B H 1.2963 0.4323 0.4808
C19B C 1.02640(18) 0.4683(2) 0.66127(11)
H8B H 1.0282 0.3906 0.6736
H9B H 1.0935 0.5025 0.6826
H10B H 0.9674 0.5034 0.6806
C20B C 1.35211(17) 0.5474(2) 0.41368(13)
H11B H 1.4236 0.5259 0.4129
N2B N 0.37772(13) 0.62157(14) 1.08853(8)
C2B C 0.41458(17) 0.45075(18) 1.02648(10)
H1B H 0.3560 0.4191 1.0448
N4B N 0.33688(14) 0.70121(15) 1.18863(9)
C5B C 0.47437(17) 0.38666(18) 0.98424(10)
C18B C 0.44023(16) 0.56033(18) 1.04176(9)
C24B C 0.40721(17) 0.63815(18) 1.16138(10)
H15B H 0.4695 0.6088 1.1891
C26B C 0.25844(19) 0.7262(2) 1.13016(14)
H17B H 0.1977 0.7701 1.1328
C27B C 0.28262(19) 0.6776(2) 1.06830(13)
H18B H 0.2425 0.6814 1.0210
C28B C 0.4484(2) 0.2650(2) 0.96915(16)
H19B H 0.3712 0.2552 0.9593
H20B H 0.4799 0.2410 0.9269
H21B H 0.4777 0.2215 1.0117
Cd1B Cd 0.363258(10) 0.768132(12) 1.303217(7)
O1B O -0.45749(12) 0.72598(13) 1.33340(10)
O2B O 0.18036(12) 0.85756(12) 1.29458(8)
O3B O -0.47582(12) 0.87279(14) 1.26027(10)
C3B C -0.12928(16) 0.79681(17) 1.39896(12)
H2B H -0.0869 0.7541 1.4348
O4B O 0.08696(11) 0.85283(14) 1.43706(9)
O5B O 0.33078(12) 0.93414(16) 1.34778(12)
C4B C -0.29967(14) 0.83125(15) 1.32190(10)
C6B C 0.07429(14) 1.02841(16) 1.37852(10)
C7B C -0.14780(14) 0.95154(17) 1.31423(10)
H3B H -0.1183 1.0128 1.2933
C9B C -0.25458(15) 0.92157(16) 1.29098(10)
H5B H -0.2965 0.9627 1.2541
C11B C -0.08455(14) 0.88944(15) 1.36925(10)
C12B C 0.03055(14) 0.91808(16) 1.39715(10)
C13B C 0.17076(15) 1.03674(17) 1.34879(11)
C14B C 0.23021(15) 0.93475(17) 1.32884(11)
C16B C -0.41912(15) 0.80799(17) 1.30241(11)
C21B C 0.21068(19) 1.1412(2) 1.33558(14)
H12B H 0.2748 1.1472 1.3156
C22B C 0.0642(2) 1.2281(2) 1.38343(19)
H13B H 0.0301 1.2922 1.3968
C23B C 0.02193(18) 1.12508(19) 1.39564(14)
H14B H -0.0423 1.1201 1.4155
C25B C -0.23602(17) 0.76771(16) 1.37565(13)
H16B H -0.2654 0.7057 1.3958
C29B C 0.1571(2) 1.2360(2) 1.35144(19)
H22B H 0.1836 1.3055 1.3406
Cd1_2 Cd 1.636742(10) 0.231868(12) 0.696783(7)
Cd1B_2 Cd -0.636742(10) 0.768132(12) 1.303217(7)
Cd1B_3 Cd 1.363258(10) 0.768132(12) 0.303217(7)
O1_2 O 0.45749(12) 0.27402(13) 0.66660(10)
O1B_2 O 0.54251(12) 0.72598(13) 1.33340(10)
O3_2 O 0.47582(12) 0.12721(14) 0.73973(10)
O3B_2 O 0.52418(12) 0.87279(14) 1.26027(10)
N3B_2 N 0.30226(13) 0.63713(15) 1.37670(9)
O6 O 0.3741(2) 0.4961(2) 0.64642(17)
H23 H 0.4026 0.4323 0.6549
H24 H 0.4132 0.5449 0.6716
loop_
_geom_bond_atom_site_label_1
_geom_bond_atom_site_label_2
_geom_bond_site_symmetry_1
_geom_bond_site_symmetry_2
Cd1 O2 1_555 1_555
O1 C16 1_555 1_555
N1 C1 1_555 1_555
O2 C14 1_555 1_555
C1 C10 1_555 1_555
O3 C16 1_555 1_555
N2 C18 1_555 1_555
N3 Cd1 1_555 1_555
C2 H1 1_555 1_555
C3 H2 1_555 1_555
N4 Cd1 1_555 1_555
O4 C12 1_555 1_555
O5 Cd1 1_555 1_555
C4 C9 1_555 1_555
C5 C2 1_555 1_555
C6 C12 1_555 1_555
C7 H3 1_555 1_555
C8 N1 1_555 1_555
H4 C8 1_555 1_555
C9 C7 1_555 1_555
H5 C9 1_555 1_555
C10 H6 1_555 1_555
C11 C3 1_555 1_555
C12 C11 1_555 1_555
C13 C6 1_555 1_555
C14 O5 1_555 1_555
C15 C10 1_555 1_555
C16 C4 1_555 1_555
C17 N1 1_555 1_555
H7 C17 1_555 1_555
C18 C2 1_555 1_555
C19 C15 1_555 1_555
H8 C19 1_555 1_555
H9 C19 1_555 1_555
H10 C19 1_555 1_555
C20 N3 1_555 1_555
H11 C20 1_555 1_555
C21 C13 1_555 1_555
H12 C21 1_555 1_555
C22 H13 1_555 1_555
C23 C6 1_555 1_555
H14 C23 1_555 1_555
C24 N2 1_555 1_555
H15 C24 1_555 1_555
C25 C3 1_555 1_555
H16 C25 1_555 1_555
C26 N4 1_555 1_555
H17 C26 1_555 1_555
C27 N2 1_555 1_555
H18 C27 1_555 1_555
C28 C5 1_555 1_555
H19 C28 1_555 1_555
H20 C28 1_555 1_555
H21 C28 1_555 1_555
C29 C21 1_555 1_555
H22 C29 1_555 1_555
O6 H23 1_555 1_555
H24 O6 1_555 1_555
N1B C1B 1_555 1_555
C1B C15 1_555 1_555
N3B C8B 1_555 1_555
C8B N1B 1_555 1_555
H4B C8B 1_555 1_555
C10B C1B 1_555 1_555
H6B C10B 1_555 1_555
C15B C1 1_555 1_555
C17B N1B 1_555 1_555
H7B C17B 1_555 1_555
C19B C15B 1_555 1_555
H8B C19B 1_555 1_555
H9B C19B 1_555 1_555
H10B C19B 1_555 1_555
C20B N3B 1_555 1_555
H11B C20B 1_555 1_555
N2B C18B 1_555 1_555
C2B H1B 1_555 1_555
N4B C24B 1_555 1_555
C5B C18 1_555 1_555
C18B C5 1_555 1_555
C24B N2B 1_555 1_555
H15B C24B 1_555 1_555
C26B N4B 1_555 1_555
H17B C26B 1_555 1_555
C27B N2B 1_555 1_555
H18B C27B 1_555 1_555
C28B C5B 1_555 1_555
H19B C28B 1_555 1_555
H20B C28B 1_555 1_555
H21B C28B 1_555 1_555
Cd1B N4B 1_555 1_555
O1B C16B 1_555 1_555
O2B Cd1B 1_555 1_555
O3B C16B 1_555 1_555
C3B H2B 1_555 1_555
O4B C12B 1_555 1_555
O5B Cd1B 1_555 1_555
C4B C9B 1_555 1_555
C6B C12B 1_555 1_555
C7B H3B 1_555 1_555
C9B C7B 1_555 1_555
H5B C9B 1_555 1_555
C11B C3B 1_555 1_555
C12B C11B 1_555 1_555
C13B C6B 1_555 1_555
C14B O2B 1_555 1_555
C16B C4B 1_555 1_555
C21B C13B 1_555 1_555
H12B C21B 1_555 1_555
C22B H13B 1_555 1_555
C23B C6B 1_555 1_555
H14B C23B 1_555 1_555
C25B C3B 1_555 1_555
H16B C25B 1_555 1_555
C29B C21B 1_555 1_555
H22B C29B 1_555 1_555
Cd1_2 O1 1_555 1_555
Cd1B_2 O1B 1_555 1_555
Cd1B_3 N3B 1_555 1_555
O1_2 Cd1 1_555 1_555
O1B_2 Cd1B 1_555 1_555
O3_2 Cd1 1_555 1_555
O3B_2 Cd1B 1_555 1_555
N3B_2 Cd1B 1_555 1_555
O3 Cd1_2 1_555 1_555
N3 C8 1_555 1_555
N4 C24 1_555 1_555
C4 C25 1_555 1_555
C7 C11 1_555 1_555
C13 C14 1_555 1_555
C17 C20 1_555 1_555
C22 C23 1_555 1_555
C22 C29 1_555 1_555
C26 C27 1_555 1_555
C10B C15B 1_555 1_555
C17B C20B 1_555 1_555
C2B C5B 1_555 1_555
C2B C18B 1_555 1_555
C26B C27B 1_555 1_555
O3B Cd1B_2 1_555 1_555
O5B C14B 1_555 1_555
C4B C25B 1_555 1_555
C7B C11B 1_555 1_555
C13B C14B 1_555 1_555
C22B C23B 1_555 1_555
C22B C29B 1_555 1_555

#END
