
#######################################################################
#
#                 Cambridge Crystallographic Data Centre
#                                CCDC 
#
#######################################################################
#
# If this CIF has been generated from an entry in the Cambridge 
# Structural Database, then it will include bibliographic, chemical, 
# crystal, experimental, refinement or atomic coordinate data resulting 
# from the CCDC's data processing and validation procedures.
#
#######################################################################

data_FIRLUO
_symmetry_cell_setting           triclinic
_symmetry_space_group_name_H-M   'P -1'
_symmetry_Int_Tables_number      2
_space_group_name_Hall           '-P 1'
loop_
_symmetry_equiv_pos_site_id
_symmetry_equiv_pos_as_xyz
1 x,y,z
2 -x,-y,-z
_cell_length_a                   10.3012(15)
_cell_length_b                   13.0789(15)
_cell_length_c                   13.1742(18)
_cell_angle_alpha                107.058(10)
_cell_angle_beta                 107.345(11)
_cell_angle_gamma                103.352(11)
_cell_volume                     1517.91
loop_
_atom_site_label
_atom_site_type_symbol
_atom_site_fract_x
_atom_site_fract_y
_atom_site_fract_z
Ca1 Ca 1.0000 0.5000 0.0000
Ca2 Ca 0.67785(9) 0.62039(7) 0.03183(8)
Cl1 Cl 0.73597(14) 0.81867(12) -0.10050(11)
O1 O 0.6429(6) 0.6993(6) 0.2019(4)
H1 H 0.6624 0.6416 0.1998
H2 H 0.6781 0.7453 0.2689
O2 O 0.9118(4) 0.7402(3) 0.1434(3)
O3 O 1.0894(5) 0.6970(3) 0.0984(4)
O4 O 0.8068(3) 0.4685(3) 0.0632(3)
O5 O 0.5796(3) 0.4334(3) 0.0408(3)
O6 O 0.6455(5) 0.5225(4) -0.1540(3)
O7 O 0.8463(4) 0.5011(4) -0.1676(3)
O8 O 0.6720(4) 0.7778(3) -0.0288(3)
O9 O 0.6446(8) 0.7562(7) -0.2159(5)
O10 O 0.8701(7) 0.8029(7) -0.0805(7)
O11 O 0.7604(8) 0.9337(5) -0.0682(6)
N1 N 1.1084(4) 0.9688(3) 0.2940(3)
N2 N 0.7449(5) 0.2586(4) 0.1322(4)
N3 N 0.6592(4) 0.3652(4) -0.4141(3)
C1 C 1.0382(5) 0.7635(4) 0.1470(4)
C2 C 1.1475(5) 0.8834(4) 0.2171(5)
H3 H 1.2354 0.8775 0.2648
H4 H 1.1712 0.9140 0.1636
C3 C 1.2427(6) 1.0740(5) 0.3597(5)
H5 H 1.2728 1.0995 0.3063
H6 H 1.3189 1.0565 0.4062
H7 H 1.2222 1.1331 0.4086
C4 C 0.9910(7) 0.9982(6) 0.2241(7)
H8 H 1.0226 1.0280 0.1737
H9 H 0.9687 1.0547 0.2747
H10 H 0.9059 0.9310 0.1790
C5 C 1.0647(10) 0.9283(7) 0.3767(6)
H11 H 1.0625 0.9910 0.4357
H12 H 1.1332 0.8972 0.4115
H13 H 0.9700 0.8703 0.3367
C6 C 0.6880(5) 0.4038(4) 0.0477(4)
C7 C 0.6655(6) 0.2772(5) 0.0269(5)
H14 H 0.5626 0.2356 -0.0004
H15 H 0.6976 0.2457 -0.0335
C8 C 0.9033(8) 0.2934(10) 0.1598(9)
H16 H 0.9490 0.2699 0.2194
H17 H 0.9439 0.3749 0.1859
H18 H 0.9192 0.2579 0.0919
C9 C 0.6854(13) 0.1349(7) 0.1084(11)
H19 H 0.7092 0.0916 0.0484
H20 H 0.5819 0.1110 0.0842
H21 H 0.7269 0.1223 0.1773
C10 C 0.7143(11) 0.3204(9) 0.2309(7)
H22 H 0.7503 0.2975 0.2935
H23 H 0.6115 0.3028 0.2077
H24 H 0.7612 0.4011 0.2556
C11 C 0.7224(6) 0.5010(4) -0.2077(4)
C12 C 0.6541(5) 0.4734(4) -0.3368(4)
H25 H 0.5535 0.4681 -0.3572
H26 H 0.7032 0.5365 -0.3519
C13 C 0.5990(7) 0.2686(5) -0.3835(5)
H27 H 0.6549 0.2850 -0.3042
H28 H 0.6037 0.1998 -0.4321
H29 H 0.4999 0.2588 -0.3944
C14 C 0.8094(6) 0.3760(6) -0.4094(5)
H30 H 0.8703 0.3836 -0.3345
H31 H 0.8485 0.4421 -0.4234
H32 H 0.8055 0.3091 -0.4673
C15 C 0.5644(6) 0.3403(6) -0.5361(4)
H33 H 0.5618 0.2693 -0.5866
H34 H 0.6028 0.4005 -0.5581
H35 H 0.4679 0.3350 -0.5414
Ca2A Ca 1.32215(9) 0.37961(7) -0.03183(8)
Ca2A_2 Ca 0.32215(9) 0.37961(7) -0.03183(8)
Ca2_2 Ca 1.67785(9) 0.62039(7) 0.03183(8)
Cl1A Cl 1.26403(14) 0.18133(12) 0.10050(11)
O1A O 1.3571(6) 0.3007(6) -0.2019(4)
H1A H 1.3376 0.3584 -0.1998
H2A H 1.3219 0.2547 -0.2689
O2A O 1.0882(4) 0.2598(3) -0.1434(3)
O3A O 0.9106(5) 0.3030(3) -0.0984(4)
O4A O 1.1932(3) 0.5315(3) -0.0632(3)
O5A O 1.4204(3) 0.5666(3) -0.0408(3)
O5A_2 O 0.4204(3) 0.5666(3) -0.0408(3)
O5_2 O 1.5796(3) 0.4334(3) 0.0408(3)
O6A O 1.3545(5) 0.4775(4) 0.1540(3)
O7A O 1.1537(4) 0.4989(4) 0.1676(3)
O8A O 1.3280(4) 0.2222(3) 0.0288(3)
O9A O 1.3554(8) 0.2438(7) 0.2159(5)
O10A O 1.1299(7) 0.1971(7) 0.0805(7)
O11A O 1.2396(8) 0.0663(5) 0.0682(6)
N1A N 0.8916(4) 0.0312(3) -0.2940(3)
N2A N 1.2551(5) 0.7414(4) -0.1322(4)
N3A N 1.3408(4) 0.6348(4) 0.4141(3)
C1A C 0.9618(5) 0.2365(4) -0.1470(4)
C2A C 0.8525(5) 0.1166(4) -0.2171(5)
H3A H 0.7646 0.1225 -0.2648
H4A H 0.8288 0.0860 -0.1636
C3A C 0.7573(6) -0.0740(5) -0.3597(5)
H5A H 0.7272 -0.0995 -0.3063
H6A H 0.6811 -0.0565 -0.4062
H7A H 0.7778 -0.1331 -0.4086
C4A C 1.0090(7) 0.0018(6) -0.2241(7)
H8A H 0.9774 -0.0280 -0.1737
H9A H 1.0313 -0.0547 -0.2747
H10A H 1.0941 0.0690 -0.1790
C5A C 0.9353(10) 0.0717(7) -0.3767(6)
H11A H 0.9375 0.0090 -0.4357
H12A H 0.8668 0.1028 -0.4115
H13A H 1.0300 0.1297 -0.3367
C6A C 1.3120(5) 0.5962(4) -0.0477(4)
C7A C 1.3345(6) 0.7228(5) -0.0269(5)
H14A H 1.4374 0.7644 0.0004
H15A H 1.3024 0.7543 0.0335
C8A C 1.0967(8) 0.7066(10) -0.1598(9)
H16A H 1.0510 0.7301 -0.2194
H17A H 1.0561 0.6251 -0.1859
H18A H 1.0808 0.7421 -0.0919
C9A C 1.3146(13) 0.8651(7) -0.1084(11)
H19A H 1.2908 0.9084 -0.0484
H20A H 1.4181 0.8890 -0.0842
H21A H 1.2731 0.8777 -0.1773
C10A C 1.2857(11) 0.6796(9) -0.2309(7)
H22A H 1.2497 0.7025 -0.2935
H23A H 1.3885 0.6972 -0.2077
H24A H 1.2388 0.5989 -0.2556
C11A C 1.2776(6) 0.4990(4) 0.2077(4)
C12A C 1.3459(5) 0.5266(4) 0.3368(4)
H25A H 1.4465 0.5319 0.3572
H26A H 1.2968 0.4635 0.3519
C13A C 1.4010(7) 0.7314(5) 0.3835(5)
H27A H 1.3451 0.7150 0.3042
H28A H 1.3963 0.8002 0.4321
H29A H 1.5001 0.7412 0.3944
C14A C 1.1906(6) 0.6240(6) 0.4094(5)
H30A H 1.1297 0.6164 0.3345
H31A H 1.1515 0.5579 0.4234
H32A H 1.1945 0.6909 0.4673
C15A C 1.4356(6) 0.6597(6) 0.5361(4)
H33A H 1.4382 0.7307 0.5866
H34A H 1.3972 0.5995 0.5581
H35A H 1.5321 0.6650 0.5414
Cl2 Cl 0.39474(17) 0.00860(13) 0.68178(14)
O12 O 0.3156(14) -0.1026(7) 0.6368(9)
O13 O 0.2954(11) 0.0598(12) 0.6666(12)
O14 O 0.4527(14) 0.0142(13) 0.5998(12)
O15 O 0.4962(13) 0.0535(14) 0.7828(9)
Cl3 Cl 0.15293(17) 0.34391(13) 0.52862(15)
O16 O 0.1089(14) 0.4133(13) 0.580(2)
O17 O 0.084(2) 0.2460(8) 0.5143(17)
O18 O 0.158(4) 0.328(2) 0.4246(17)
O19 O 0.2864(11) 0.365(2) 0.5637(17)
loop_
_geom_bond_atom_site_label_1
_geom_bond_atom_site_label_2
_geom_bond_site_symmetry_1
_geom_bond_site_symmetry_2
Ca1 O3 1_555 1_555
Ca2 O1 1_555 1_555
Cl1 O8 1_555 1_555
O1 H1 1_555 1_555
H2 O1 1_555 1_555
O2 Ca2 1_555 1_555
O3 C1 1_555 1_555
O4 Ca1 1_555 1_555
O5 Ca2 1_555 1_555
O6 Ca2 1_555 1_555
O7 Ca1 1_555 1_555
O8 Ca2 1_555 1_555
O9 Cl1 1_555 1_555
O10 Cl1 1_555 1_555
O11 Cl1 1_555 1_555
N1 C2 1_555 1_555
N2 C7 1_555 1_555
N3 C12 1_555 1_555
C1 O2 1_555 1_555
C2 C1 1_555 1_555
H3 C2 1_555 1_555
H4 C2 1_555 1_555
C3 N1 1_555 1_555
H5 C3 1_555 1_555
H6 C3 1_555 1_555
H7 C3 1_555 1_555
C4 N1 1_555 1_555
H8 C4 1_555 1_555
H9 C4 1_555 1_555
H10 C4 1_555 1_555
C5 N1 1_555 1_555
H11 C5 1_555 1_555
H12 C5 1_555 1_555
H13 C5 1_555 1_555
C6 O4 1_555 1_555
C7 C6 1_555 1_555
H14 C7 1_555 1_555
H15 C7 1_555 1_555
C8 N2 1_555 1_555
H16 C8 1_555 1_555
H17 C8 1_555 1_555
H18 C8 1_555 1_555
C9 N2 1_555 1_555
H19 C9 1_555 1_555
H20 C9 1_555 1_555
H21 C9 1_555 1_555
C10 N2 1_555 1_555
H22 C10 1_555 1_555
H23 C10 1_555 1_555
H24 C10 1_555 1_555
C11 O6 1_555 1_555
C12 C11 1_555 1_555
H25 C12 1_555 1_555
H26 C12 1_555 1_555
C13 N3 1_555 1_555
H27 C13 1_555 1_555
H28 C13 1_555 1_555
H29 C13 1_555 1_555
C14 N3 1_555 1_555
H30 C14 1_555 1_555
H31 C14 1_555 1_555
H32 C14 1_555 1_555
C15 N3 1_555 1_555
H33 C15 1_555 1_555
H34 C15 1_555 1_555
H35 C15 1_555 1_555
Cl2 O12 1_555 1_555
O13 Cl2 1_555 1_555
O14 Cl2 1_555 1_555
O15 Cl2 1_555 1_555
Cl3 O16 1_555 1_555
O17 Cl3 1_555 1_555
O18 Cl3 1_555 1_555
O19 Cl3 1_555 1_555
Ca2A O1A 1_555 1_555
Ca2A_2 O5 1_555 1_555
Ca2_2 O5A 1_555 1_555
Cl1A O8A 1_555 1_555
O1A H1A 1_555 1_555
H2A O1A 1_555 1_555
O2A Ca2A 1_555 1_555
O3A Ca1 1_555 1_555
O4A Ca1 1_555 1_555
O5A Ca2A 1_555 1_555
O5A_2 Ca2 1_555 1_555
O5_2 Ca2A 1_555 1_555
O6A Ca2A 1_555 1_555
O7A Ca1 1_555 1_555
O8A Ca2A 1_555 1_555
O9A Cl1A 1_555 1_555
O10A Cl1A 1_555 1_555
O11A Cl1A 1_555 1_555
N1A C2A 1_555 1_555
N2A C7A 1_555 1_555
N3A C12A 1_555 1_555
C1A O2A 1_555 1_555
C2A C1A 1_555 1_555
H3A C2A 1_555 1_555
H4A C2A 1_555 1_555
C3A N1A 1_555 1_555
H5A C3A 1_555 1_555
H6A C3A 1_555 1_555
H7A C3A 1_555 1_555
C4A N1A 1_555 1_555
H8A C4A 1_555 1_555
H9A C4A 1_555 1_555
H10A C4A 1_555 1_555
C5A N1A 1_555 1_555
H11A C5A 1_555 1_555
H12A C5A 1_555 1_555
H13A C5A 1_555 1_555
C6A O4A 1_555 1_555
C7A C6A 1_555 1_555
H14A C7A 1_555 1_555
H15A C7A 1_555 1_555
C8A N2A 1_555 1_555
H16A C8A 1_555 1_555
H17A C8A 1_555 1_555
H18A C8A 1_555 1_555
C9A N2A 1_555 1_555
H19A C9A 1_555 1_555
H20A C9A 1_555 1_555
H21A C9A 1_555 1_555
C10A N2A 1_555 1_555
H22A C10A 1_555 1_555
H23A C10A 1_555 1_555
H24A C10A 1_555 1_555
C11A O6A 1_555 1_555
C12A C11A 1_555 1_555
H25A C12A 1_555 1_555
H26A C12A 1_555 1_555
C13A N3A 1_555 1_555
H27A C13A 1_555 1_555
H28A C13A 1_555 1_555
H29A C13A 1_555 1_555
C14A N3A 1_555 1_555
H30A C14A 1_555 1_555
H31A C14A 1_555 1_555
H32A C14A 1_555 1_555
C15A N3A 1_555 1_555
H33A C15A 1_555 1_555
H34A C15A 1_555 1_555
H35A C15A 1_555 1_555
Ca2 O4 1_555 1_555
O5 C6 1_555 1_555
O7 C11 1_555 1_555
Ca2A O4A 1_555 1_555
Ca2A_2 O5A_2 1_555 1_555
Ca2_2 O5_2 1_555 1_555
O3A C1A 1_555 1_555
O5A C6A 1_555 1_555
O7A C11A 1_555 1_555

#END
