
#######################################################################
#
#                 Cambridge Crystallographic Data Centre
#                                CCDC 
#
#######################################################################
#
# If this CIF has been generated from an entry in the Cambridge 
# Structural Database, then it will include bibliographic, chemical, 
# crystal, experimental, refinement or atomic coordinate data resulting 
# from the CCDC's data processing and validation procedures.
#
#######################################################################

data_FIRMOI
_symmetry_cell_setting           monoclinic
_symmetry_space_group_name_H-M   'P 21/c'
_symmetry_Int_Tables_number      14
_space_group_name_Hall           '-P 2ybc'
loop_
_symmetry_equiv_pos_site_id
_symmetry_equiv_pos_as_xyz
1 x,y,z
2 -x,1/2+y,1/2-z
3 -x,-y,-z
4 x,1/2-y,1/2+z
_cell_length_a                   8.7677(5)
_cell_length_b                   11.5140(7)
_cell_length_c                   14.8858(9)
_cell_angle_alpha                90
_cell_angle_beta                 96.5480(10)
_cell_angle_gamma                90
_cell_volume                     1492.94
loop_
_atom_site_label
_atom_site_type_symbol
_atom_site_fract_x
_atom_site_fract_y
_atom_site_fract_z
Cu1 Cu -0.06087(3) 0.16893(3) 0.16378(2)
N1 N 0.0639(2) 0.0761(2) 0.26220(12)
N2 N 0.0784(2) 0.2098(2) 0.62250(12)
N3 N -0.2712(3) 0.1385(2) 0.1292(2)
C1 C 0.1560(3) -0.0073(2) 0.2384(2)
H1 H 0.1515(3) -0.0262(2) 0.1775(2)
C2 C 0.2581(3) -0.0677(2) 0.2990(2)
H2 H 0.3186(3) -0.1265(2) 0.2789(2)
C3 C 0.2689(3) -0.0397(2) 0.3891(2)
H3 H 0.3380(3) -0.0786(2) 0.4306(2)
C4 C 0.1751(2) 0.0478(2) 0.41801(14)
C5 C 0.1795(2) 0.0840(2) 0.51190(14)
C6 C 0.2805(3) 0.0347(2) 0.5817(2)
H4 H 0.3480(3) -0.0238(2) 0.5689(2)
C7 C 0.2788(3) 0.0732(2) 0.6685(2)
H5 H 0.3451(3) 0.0413(2) 0.7153(2)
C8 C 0.1771(3) 0.1604(2) 0.6860(2)
H6 H 0.1777(3) 0.1858(2) 0.7453(2)
C9 C 0.0790(2) 0.1713(2) 0.53490(14)
C10 C -0.0282(3) 0.2224(2) 0.4664(2)
H7 H -0.0964(3) 0.2787(2) 0.4821(2)
C11 C -0.0312(3) 0.1896(2) 0.3792(2)
H8 H -0.1016(3) 0.2238(2) 0.3357(2)
C12 C 0.0713(2) 0.1035(2) 0.35248(13)
C13 C -0.3998(3) 0.1268(2) 0.1147(2)
C14 C -0.5644(3) 0.1120(3) 0.0991(2)
H9 H -0.5887(3) 0.0307(3) 0.0982(2)
H10 H -0.6023(3) 0.1462(3) 0.0421(2)
H11 H -0.6114(3) 0.1494(3) 0.1466(2)
N2C N 0.0784(2) 0.2902(2) 0.12250(12)
Cu1C Cu -0.06087(3) 0.33107(3) 0.66378(2)
F1 F 0.6187(3) -0.1649(2) 0.12410(15)
F2 F 0.3627(3) -0.1696(2) 0.1114(2)
F3 F 0.4897(2) -0.30726(15) 0.04522(12)
F4 F 0.4976(4) -0.3025(2) 0.1966(2)
B1 B 0.4946(4) -0.2372(3) 0.1202(2)
loop_
_geom_bond_atom_site_label_1
_geom_bond_atom_site_label_2
_geom_bond_site_symmetry_1
_geom_bond_site_symmetry_2
Cu1 N1 1_555 1_555
N1 C1 1_555 1_555
N2 C8 1_555 1_555
N3 Cu1 1_555 1_555
C1 H1 1_555 1_555
C2 C1 1_555 1_555
H2 C2 1_555 1_555
C3 C2 1_555 1_555
H3 C3 1_555 1_555
C4 C3 1_555 1_555
C5 C4 1_555 1_555
C6 C5 1_555 1_555
H4 C6 1_555 1_555
C7 C6 1_555 1_555
H5 C7 1_555 1_555
C8 C7 1_555 1_555
H6 C8 1_555 1_555
C9 N2 1_555 1_555
C10 C9 1_555 1_555
H7 C10 1_555 1_555
C11 C10 1_555 1_555
H8 C11 1_555 1_555
C12 N1 1_555 1_555
C13 N3 1_555 1_555
C14 C13 1_555 1_555
H9 C14 1_555 1_555
H10 C14 1_555 1_555
H11 C14 1_555 1_555
F1 B1 1_555 1_555
F2 B1 1_555 1_555
F3 B1 1_555 1_555
F4 B1 1_555 1_555
N2C Cu1 1_555 1_555
Cu1C N2 1_555 1_555
C4 C12 1_555 1_555
C5 C9 1_555 1_555
C11 C12 1_555 1_555

#END
