
#######################################################################
#
#                 Cambridge Crystallographic Data Centre
#                                CCDC 
#
#######################################################################
#
# If this CIF has been generated from an entry in the Cambridge 
# Structural Database, then it will include bibliographic, chemical, 
# crystal, experimental, refinement or atomic coordinate data resulting 
# from the CCDC's data processing and validation procedures.
#
#######################################################################

data_FIRNOK
_symmetry_cell_setting           monoclinic
_symmetry_space_group_name_H-M   'P 21/n'
_symmetry_Int_Tables_number      14
_space_group_name_Hall           '-P 2yn'
loop_
_symmetry_equiv_pos_site_id
_symmetry_equiv_pos_as_xyz
1 x,y,z
2 1/2-x,1/2+y,1/2-z
3 -x,-y,-z
4 1/2+x,1/2-y,1/2+z
_cell_length_a                   10.312(2)
_cell_length_b                   10.816(2)
_cell_length_c                   14.522(3)
_cell_angle_alpha                90
_cell_angle_beta                 99.03(3)
_cell_angle_gamma                90
_cell_volume                     1599.63
loop_
_atom_site_label
_atom_site_type_symbol
_atom_site_fract_x
_atom_site_fract_y
_atom_site_fract_z
Cu1 Cu 0.63828(2) 0.32942(2) 0.939534(17)
O1 O 0.45641(14) 0.35794(14) 0.86945(11)
O2 O 0.49063(15) 0.16739(14) 0.82426(11)
C1 C 0.41735(19) 0.25891(19) 0.82659(13)
C2 C 0.2769(2) 0.2549(2) 0.77534(15)
H1 H 0.2780 0.2604 0.7088
H2 H 0.2294 0.3260 0.7934
C3 C 0.2051(2) 0.1372(3) 0.79582(18)
H3 H 0.1224 0.1333 0.7536
H4 H 0.2572 0.0665 0.7829
C4 C 0.1773(2) 0.1272(2) 0.8949(2)
H5 H 0.2578 0.1431 0.9376
H6 H 0.1499 0.0433 0.9057
C5 C 0.0719(2) 0.2165(3) 0.91636(18)
H7 H -0.0053 0.2077 0.8692
H8 H 0.1038 0.3005 0.9134
C6 C 0.0329(2) 0.1940(3) 1.01346(18)
H9 H 0.0164 0.1066 1.0210
H10 H 0.1050 0.2180 1.0613
C7 C -0.0889(2) 0.2670(2) 1.02606(15)
O3 O -0.19204(14) 0.23864(15) 0.97009(11)
O4 O -0.08174(18) 0.3495(2) 1.08570(13)
O5 O 0.6980(2) 0.48855(19) 1.04329(14)
N1 N 0.71060(18) 0.43140(18) 0.84562(13)
C8 C 0.6540(2) 0.4700(3) 0.75854(16)
H11 H 0.5725 0.4447 0.7275
C9 C 0.7354(3) 0.5506(3) 0.72494(19)
H12 H 0.7210 0.5903 0.6674
N2 N 0.8422(2) 0.5619(2) 0.79211(16)
C10 C 0.8247(2) 0.4896(2) 0.86311(17)
H13 H 0.8845 0.4810 0.9177
N3 N 0.56045(17) 0.23684(17) 1.03545(12)
C11 C 0.4613(2) 0.2730(2) 1.08319(17)
H14 H 0.4211 0.3502 1.0789
C12 C 0.4317(3) 0.1787(2) 1.13706(18)
H15 H 0.3688 0.1788 1.1765
N4 N 0.5120(2) 0.0837(2) 1.12222(15)
C13 C 0.5875(2) 0.1219(2) 1.06120(16)
H16 H 0.6511 0.0736 1.0397
H17 H 0.751(3) 0.464(3) 1.067(2)
H18 H 0.657(3) 0.523(3) 1.084(2)
H19 H 0.909(3) 0.612(3) 0.795(2)
H20 H 0.516(3) 0.018(3) 1.144(2)
Cu1_2 Cu -0.36172(2) 0.32942(2) 0.939534(17)
O3_2 O 0.80796(14) 0.23864(15) 0.97009(11)
loop_
_geom_bond_atom_site_label_1
_geom_bond_atom_site_label_2
_geom_bond_site_symmetry_1
_geom_bond_site_symmetry_2
Cu1 O1 1_555 1_555
O1 C1 1_555 1_555
O2 C1 1_555 1_555
C1 C2 1_555 1_555
C2 H1 1_555 1_555
H2 C2 1_555 1_555
C3 C2 1_555 1_555
H3 C3 1_555 1_555
H4 C3 1_555 1_555
C4 C3 1_555 1_555
H5 C4 1_555 1_555
H6 C4 1_555 1_555
C5 C4 1_555 1_555
H7 C5 1_555 1_555
H8 C5 1_555 1_555
C6 C5 1_555 1_555
H9 C6 1_555 1_555
H10 C6 1_555 1_555
C7 C6 1_555 1_555
O3 C7 1_555 1_555
O4 C7 1_555 1_555
O5 Cu1 1_555 1_555
N1 Cu1 1_555 1_555
C8 N1 1_555 1_555
H11 C8 1_555 1_555
C9 C8 1_555 1_555
H12 C9 1_555 1_555
N2 C9 1_555 1_555
C10 N1 1_555 1_555
H13 C10 1_555 1_555
N3 Cu1 1_555 1_555
C11 N3 1_555 1_555
H14 C11 1_555 1_555
C12 C11 1_555 1_555
H15 C12 1_555 1_555
N4 C12 1_555 1_555
C13 N3 1_555 1_555
H16 C13 1_555 1_555
H17 O5 1_555 1_555
H18 O5 1_555 1_555
H19 N2 1_555 1_555
H20 N4 1_555 1_555
Cu1_2 O3 1_555 1_555
O3_2 Cu1 1_555 1_555
N2 C10 1_555 1_555
N4 C13 1_555 1_555

#END
