
#######################################################################
#
#                 Cambridge Crystallographic Data Centre
#                                CCDC 
#
#######################################################################
#
# If this CIF has been generated from an entry in the Cambridge 
# Structural Database, then it will include bibliographic, chemical, 
# crystal, experimental, refinement or atomic coordinate data resulting 
# from the CCDC's data processing and validation procedures.
#
#######################################################################

data_FIRNEZ
_symmetry_cell_setting           triclinic
_symmetry_space_group_name_H-M   'P -1'
_symmetry_Int_Tables_number      2
_space_group_name_Hall           '-P 1'
loop_
_symmetry_equiv_pos_site_id
_symmetry_equiv_pos_as_xyz
1 x,y,z
2 -x,-y,-z
_cell_length_a                   11.3378(10)
_cell_length_b                   12.4612(11)
_cell_length_c                   13.9045(13)
_cell_angle_alpha                115.909(2)
_cell_angle_beta                 100.870(2)
_cell_angle_gamma                92.052(2)
_cell_volume                     1719.7
loop_
_atom_site_label
_atom_site_type_symbol
_atom_site_fract_x
_atom_site_fract_y
_atom_site_fract_z
Cu1 Cu 0.33008(7) -0.23431(7) -0.04198(7)
Cu2 Cu 0.28785(7) -0.90345(7) -0.37962(7)
N1 N 0.4452(4) -0.8011(4) -0.2703(4)
N2 N 0.4752(5) -0.3029(5) -0.0421(4)
N3 N 0.1782(5) -0.1831(4) -0.0686(4)
N4 N 0.1427(5) 0.0674(4) -0.3180(4)
N5 N 0.3339(5) -1.0659(5) -0.4658(4)
N6 N 0.2130(5) -0.8212(5) -0.4683(4)
C1 C 0.5425(6) -0.8545(6) -0.2632(5)
H1 H 0.5339(6) -0.9399(6) -0.3016(5)
C2 C 0.6571(6) -0.7926(6) -0.2026(5)
H2 H 0.7240(6) -0.8359(6) -0.2006(5)
C3 C 0.6738(6) -0.6689(6) -0.1454(5)
H3 H 0.7517(6) -0.6260(6) -0.1040(5)
C4 C 0.5727(5) -0.6079(5) -0.1499(5)
C5 C 0.4593(5) -0.6778(5) -0.2113(5)
C6 C 0.3540(5) -0.6195(6) -0.2124(5)
H4 H 0.2774(5) -0.6663(6) -0.2526(5)
C7 C 0.3611(6) -0.4987(5) -0.1574(5)
H5 H 0.2891(6) -0.4621(5) -0.1592(5)
C8 C 0.4731(6) -0.4253(5) -0.0970(5)
C9 C 0.5810(5) -0.4796(5) -0.0935(5)
C10 C 0.6901(6) -0.4032(6) -0.0311(5)
H6 H 0.7638(6) -0.4360(6) -0.0246(5)
C11 C 0.6893(6) -0.2797(6) 0.0208(5)
H7 H 0.7627(6) -0.2268(6) 0.0611(5)
C12 C 0.5803(6) -0.2351(6) 0.0128(5)
H8 H 0.5809(6) -0.1503(6) 0.0490(5)
C13 C 0.0809(6) -0.2157(6) -0.0410(5)
H9 H 0.0900(6) -0.2606(6) -0.0003(5)
C14 C -0.0324(6) -0.1864(6) -0.0698(6)
H10 H -0.0999(6) -0.2125(6) -0.0503(6)
C15 C -0.0471(6) -0.1202(6) -0.1258(5)
H11 H -0.1246(6) -0.0983(6) -0.1438(5)
C16 C 0.0514(5) -0.0836(5) -0.1574(5)
C17 C 0.1649(6) -0.1170(5) -0.1263(5)
C18 C 0.2670(6) -0.0880(5) -0.1603(5)
H12 H 0.3429(6) -0.1107(5) -0.1389(5)
C19 C 0.2586(5) -0.0288(5) -0.2223(5)
H13 H 0.3284(5) -0.0105(5) -0.2437(5)
C20 C 0.1453(5) 0.0065(5) -0.2560(5)
C21 C 0.0437(6) -0.0174(5) -0.2210(5)
C22 C -0.0649(6) 0.0223(6) -0.2535(5)
H14 H -0.1360(6) 0.0081(6) -0.2317(5)
C23 C -0.0669(6) 0.0811(6) -0.3163(5)
H15 H -0.1399(6) 0.1069(6) -0.3397(5)
C24 C 0.0383(6) 0.1032(6) -0.3461(5)
H16 H 0.0355(6) 0.1460(6) -0.3886(5)
C25 C 0.3609(6) -1.1603(6) -0.5028(5)
C26 C 0.3938(6) -1.2819(6) -0.5518(5)
C27 C 0.5117(6) -1.2998(6) -0.5216(5)
H17 H 0.5709(6) -1.2345(6) -0.4691(5)
C28 C 0.5413(7) -1.4160(6) -0.5701(5)
H18 H 0.6216(7) -1.4302(6) -0.5493(5)
C29 C 0.4568(7) -1.5110(6) -0.6477(6)
H19 H 0.4790(7) -1.5897(6) -0.6801(6)
C30 C 0.3392(6) -1.4912(6) -0.6781(5)
H20 H 0.2807(6) -1.5561(6) -0.7324(5)
C31 C 0.3071(6) -1.3762(6) -0.6292(5)
H21 H 0.2262(6) -1.3622(6) -0.6487(5)
C32 C 0.1522(6) -0.7720(6) -0.5068(5)
C33 C 0.0737(6) -0.7119(5) -0.5547(5)
C34 C -0.0442(6) -0.7108(6) -0.5435(5)
H22 H -0.0720(6) -0.7471(6) -0.5030(5)
C35 C -0.1225(7) -0.6557(6) -0.5923(6)
H23 H -0.2047(7) -0.6563(6) -0.5866(6)
C36 C -0.0814(8) -0.6006(6) -0.6484(5)
H24 H -0.1347(8) -0.5617(6) -0.6802(5)
C37 C 0.0381(7) -0.6017(6) -0.6589(5)
H25 H 0.0665(7) -0.5631(6) -0.6974(5)
C38 C 0.1165(6) -0.6594(6) -0.6129(5)
H26 H 0.1976(6) -0.6625(6) -0.6215(5)
N4_2 N 0.1427(5) -0.9326(4) -0.3180(4)
Cu2_2 Cu 0.28785(7) 0.09655(7) -0.37962(7)
F1 F 0.4271(4) 0.0069(4) 0.1150(4)
F2 F 0.3338(4) 0.0807(4) 0.2568(4)
F3 F 0.5042(4) 0.1797(4) 0.2609(4)
F4 F 0.3322(5) 0.1702(6) 0.1496(6)
B1 B 0.3977(6) 0.1100(7) 0.1946(6)
F5 F -0.0247(5) 0.6253(4) -0.7286(3)
F6 F -0.0013(5) 0.6551(4) -0.8730(4)
F7 F -0.1119(4) 0.4875(4) -0.9016(4)
F8 F 0.0897(3) 0.5111(4) -0.8419(3)
B2 B -0.0112(7) 0.5717(6) -0.8377(6)
loop_
_geom_bond_atom_site_label_1
_geom_bond_atom_site_label_2
_geom_bond_site_symmetry_1
_geom_bond_site_symmetry_2
Cu1 N2 1_555 1_555
Cu2 N1 1_555 1_555
F1 B1 1_555 1_555
F2 B1 1_555 1_555
F3 B1 1_555 1_555
F4 B1 1_555 1_555
F5 B2 1_555 1_555
F6 B2 1_555 1_555
F7 B2 1_555 1_555
F8 B2 1_555 1_555
N1 C1 1_555 1_555
N2 C8 1_555 1_555
N3 Cu1 1_555 1_555
N4 C20 1_555 1_555
N5 Cu2 1_555 1_555
N6 Cu2 1_555 1_555
C1 H1 1_555 1_555
C2 C1 1_555 1_555
H2 C2 1_555 1_555
C3 C2 1_555 1_555
H3 C3 1_555 1_555
C4 C3 1_555 1_555
C5 N1 1_555 1_555
C6 C5 1_555 1_555
H4 C6 1_555 1_555
C7 C6 1_555 1_555
H5 C7 1_555 1_555
C8 C7 1_555 1_555
C9 C4 1_555 1_555
C10 C9 1_555 1_555
H6 C10 1_555 1_555
C11 C10 1_555 1_555
H7 C11 1_555 1_555
C12 N2 1_555 1_555
H8 C12 1_555 1_555
C13 N3 1_555 1_555
H9 C13 1_555 1_555
C14 C13 1_555 1_555
H10 C14 1_555 1_555
C15 C14 1_555 1_555
H11 C15 1_555 1_555
C16 C15 1_555 1_555
C17 N3 1_555 1_555
C18 C17 1_555 1_555
H12 C18 1_555 1_555
C19 C18 1_555 1_555
H13 C19 1_555 1_555
C20 C19 1_555 1_555
C21 C16 1_555 1_555
C22 C21 1_555 1_555
H14 C22 1_555 1_555
C23 C22 1_555 1_555
H15 C23 1_555 1_555
C24 N4 1_555 1_555
H16 C24 1_555 1_555
C25 N5 1_555 1_555
C26 C25 1_555 1_555
C27 C26 1_555 1_555
H17 C27 1_555 1_555
C28 C27 1_555 1_555
H18 C28 1_555 1_555
C29 C28 1_555 1_555
H19 C29 1_555 1_555
C30 C29 1_555 1_555
H20 C30 1_555 1_555
C31 C26 1_555 1_555
H21 C31 1_555 1_555
C32 N6 1_555 1_555
C33 C32 1_555 1_555
C34 C33 1_555 1_555
H22 C34 1_555 1_555
C35 C34 1_555 1_555
H23 C35 1_555 1_555
C36 C35 1_555 1_555
H24 C36 1_555 1_555
C37 C36 1_555 1_555
H25 C37 1_555 1_555
C38 C33 1_555 1_555
H26 C38 1_555 1_555
N4_2 Cu2 1_555 1_555
Cu2_2 N4 1_555 1_555
C4 C5 1_555 1_555
C8 C9 1_555 1_555
C11 C12 1_555 1_555
C16 C17 1_555 1_555
C20 C21 1_555 1_555
C23 C24 1_555 1_555
C30 C31 1_555 1_555
C37 C38 1_555 1_555

#END
