
#######################################################################
#
#                 Cambridge Crystallographic Data Centre
#                                CCDC 
#
#######################################################################
#
# If this CIF has been generated from an entry in the Cambridge 
# Structural Database, then it will include bibliographic, chemical, 
# crystal, experimental, refinement or atomic coordinate data resulting 
# from the CCDC's data processing and validation procedures.
#
#######################################################################

data_FIRNOJ
_symmetry_cell_setting           triclinic
_symmetry_space_group_name_H-M   'P -1'
_symmetry_Int_Tables_number      2
_space_group_name_Hall           '-P 1'
loop_
_symmetry_equiv_pos_site_id
_symmetry_equiv_pos_as_xyz
1 x,y,z
2 -x,-y,-z
_cell_length_a                   11.7480(10)
_cell_length_b                   12.5750(11)
_cell_length_c                   14.1390(13)
_cell_angle_alpha                115.700(2)
_cell_angle_beta                 98.810(2)
_cell_angle_gamma                96.020(2)
_cell_volume                     1825.2
loop_
_atom_site_label
_atom_site_type_symbol
_atom_site_fract_x
_atom_site_fract_y
_atom_site_fract_z
Cu1 Cu -0.15642(13) 0.25581(13) 0.45498(12)
Cu2 Cu -0.20795(12) -0.41009(12) 0.12194(11)
N1 N -0.3457(8) 0.5455(8) 0.1849(7)
N2 N -0.0192(8) 0.1924(8) 0.4603(7)
N3 N -0.2980(8) 0.3041(8) 0.4320(7)
N4 N -0.0523(8) -0.3001(8) 0.2280(7)
N5 N -0.2839(9) -0.3306(9) 0.0397(8)
N6 N -0.1659(9) -0.5668(10) 0.0294(8)
C1 C -0.1065(11) -0.7780(11) -0.0533(9)
C2 C -0.1906(10) -0.8771(11) -0.1253(9)
H1 H -0.2690 -0.8689 -0.1446
C3 C -0.1594(12) -0.9883(11) -0.1687(9)
H2 H -0.2160 -1.0573 -0.2195
C4 C -0.0452(12) -0.9989(11) -0.1381(10)
H3 H -0.0243 -1.0760 -0.1673
C5 C 0.0381(11) -0.9006(11) -0.0667(10)
H4 H 0.1165 -0.9091 -0.0476
C6 C 0.0078(11) -0.7887(11) -0.0223(9)
H5 H 0.0645 -0.7200 0.0287
C7 C -0.1387(10) -0.6592(12) -0.0057(9)
C8 C -0.3400(11) -0.2812(10) 0.0036(9)
C9 C -0.4151(10) -0.2221(9) -0.0395(9)
C10 C -0.5307(11) -0.2216(10) -0.0248(9)
H6 H -0.5585 -0.2573 0.0164
C11 C -0.6023(11) -0.1702(11) -0.0696(9)
H7 H -0.6800 -0.1690 -0.0584
C12 C -0.5651(11) -0.1204(11) -0.1301(9)
H8 H -0.6173 -0.0862 -0.1619
C13 C -0.4529(12) -0.1190(10) -0.1457(9)
H9 H -0.4268 -0.0830 -0.1873
C14 C -0.3777(10) -0.1707(10) -0.1003(9)
H10 H -0.3000 -0.1706 -0.1112
C15 C -0.4477(11) 0.5769(10) 0.1632(9)
H11 H -0.4524 0.6192 0.1215
C16 C -0.5476(11) 0.5523(10) 0.1973(10)
H12 H -0.6194 0.5726 0.1758
C17 C -0.5391(10) 0.4985(10) 0.2620(9)
H13 H -0.6051 0.4832 0.2887
C18 C -0.4337(10) 0.4648(9) 0.2902(9)
C19 C -0.3379(9) 0.4884(9) 0.2486(8)
C20 C -0.2308(9) 0.4555(9) 0.2722(8)
H14 H -0.1664 0.4744 0.2453
C21 C -0.2184(9) 0.3966(9) 0.3333(8)
H15 H -0.1453 0.3753 0.3492
C22 C 0.0431(11) -0.3462(10) 0.2314(9)
H16 H 0.0347 -0.4309 0.1911
C23 C 0.1549(9) -0.2812(11) 0.2891(9)
H17 H 0.2200 -0.3200 0.2887
C24 C 0.1675(9) -0.1615(11) 0.3454(8)
H18 H 0.2434 -0.1146 0.3843
C25 C 0.0715(10) -0.1048(10) 0.3478(8)
C26 C -0.0383(9) -0.1790(10) 0.2875(8)
C27 C -0.1385(9) -0.1237(10) 0.2888(8)
H19 H -0.2130 -0.1731 0.2484
C28 C -0.1314(10) -0.0036(10) 0.3454(8)
H20 H -0.2002 0.0301 0.3454
C29 C -0.0206(10) 0.0716(10) 0.4046(8)
C30 C 0.0824(9) 0.0241(10) 0.4065(8)
C31 C 0.1863(10) 0.1052(10) 0.4671(8)
H21 H 0.2571 0.0757 0.4720
C32 C 0.1897(10) 0.2259(11) 0.5199(9)
H22 H 0.2619 0.2811 0.5576
C33 C 0.0835(12) 0.2651(11) 0.5163(9)
H23 H 0.0844 0.3486 0.5562
C34 C -0.3146(9) 0.3667(9) 0.3738(8)
C35 C -0.4228(9) 0.4010(10) 0.3535(9)
C36 C -0.5138(10) 0.3677(10) 0.3944(9)
H24 H -0.5877 0.3896 0.3828
C37 C -0.4972(11) 0.3050(11) 0.4500(10)
H25 H -0.5591 0.2826 0.4777
C38 C -0.3910(12) 0.2734(10) 0.4665(9)
H26 H -0.3822 0.2273 0.5045
Cu2_2 Cu -0.20795(12) 0.58991(12) 0.12194(11)
N1_2 N -0.3457(8) -0.4545(8) 0.1849(7)
P1 P -0.4840(3) 0.9061(3) 0.3203(3)
F1 F -0.4187(9) 0.9377(13) 0.2458(9)
F2 F -0.3890(7) 1.0045(7) 0.4203(6)
F3 F -0.5720(6) 0.9951(6) 0.3336(6)
F4 F -0.3935(10) 0.8169(10) 0.3120(10)
F5 F -0.5730(8) 0.8050(7) 0.2149(6)
F6 F -0.5351(11) 0.8481(9) 0.3828(7)
P2 P -0.8781(3) 0.3951(3) 0.3114(3)
F7 F -0.8038(9) 0.4777(11) 0.2854(13)
F8 F -0.7818(7) 0.4015(8) 0.4012(7)
F9 F -0.9324(7) 0.4954(7) 0.3908(7)
F10 F -0.8209(9) 0.2954(9) 0.2271(8)
F11 F -0.9756(9) 0.3853(10) 0.2173(7)
F12 F -0.9637(8) 0.2916(8) 0.3066(9)
loop_
_geom_bond_atom_site_label_1
_geom_bond_atom_site_label_2
_geom_bond_site_symmetry_1
_geom_bond_site_symmetry_2
Cu1 N2 1_555 1_555
Cu2 N4 1_555 1_555
N1 C15 1_555 1_555
N2 C29 1_555 1_555
N3 Cu1 1_555 1_555
N4 C22 1_555 1_555
N5 Cu2 1_555 1_555
N6 Cu2 1_555 1_555
C1 C2 1_555 1_555
C2 H1 1_555 1_555
C3 C2 1_555 1_555
H2 C3 1_555 1_555
C4 C3 1_555 1_555
H3 C4 1_555 1_555
C5 C4 1_555 1_555
H4 C5 1_555 1_555
C6 C1 1_555 1_555
H5 C6 1_555 1_555
C7 N6 1_555 1_555
C8 N5 1_555 1_555
C9 C8 1_555 1_555
C10 C9 1_555 1_555
H6 C10 1_555 1_555
C11 C10 1_555 1_555
H7 C11 1_555 1_555
C12 C11 1_555 1_555
H8 C12 1_555 1_555
C13 C12 1_555 1_555
H9 C13 1_555 1_555
C14 C9 1_555 1_555
H10 C14 1_555 1_555
C15 H11 1_555 1_555
C16 C15 1_555 1_555
H12 C16 1_555 1_555
C17 C16 1_555 1_555
H13 C17 1_555 1_555
C18 C17 1_555 1_555
C19 N1 1_555 1_555
C20 C19 1_555 1_555
H14 C20 1_555 1_555
C21 C20 1_555 1_555
H15 C21 1_555 1_555
C22 H16 1_555 1_555
C23 C22 1_555 1_555
H17 C23 1_555 1_555
C24 C23 1_555 1_555
H18 C24 1_555 1_555
C25 C24 1_555 1_555
C26 N4 1_555 1_555
C27 C26 1_555 1_555
H19 C27 1_555 1_555
C28 C27 1_555 1_555
H20 C28 1_555 1_555
C29 C28 1_555 1_555
C30 C25 1_555 1_555
C31 C30 1_555 1_555
H21 C31 1_555 1_555
C32 C31 1_555 1_555
H22 C32 1_555 1_555
C33 N2 1_555 1_555
H23 C33 1_555 1_555
C34 N3 1_555 1_555
C35 C18 1_555 1_555
C36 C35 1_555 1_555
H24 C36 1_555 1_555
C37 C36 1_555 1_555
H25 C37 1_555 1_555
C38 N3 1_555 1_555
H26 C38 1_555 1_555
P1 F1 1_555 1_555
F2 P1 1_555 1_555
F3 P1 1_555 1_555
F4 P1 1_555 1_555
F5 P1 1_555 1_555
F6 P1 1_555 1_555
P2 F7 1_555 1_555
F8 P2 1_555 1_555
F9 P2 1_555 1_555
F10 P2 1_555 1_555
F11 P2 1_555 1_555
F12 P2 1_555 1_555
Cu2_2 N1 1_555 1_555
N1_2 Cu2 1_555 1_555
C1 C7 1_555 1_555
C5 C6 1_555 1_555
C13 C14 1_555 1_555
C18 C19 1_555 1_555
C21 C34 1_555 1_555
C25 C26 1_555 1_555
C29 C30 1_555 1_555
C32 C33 1_555 1_555
C34 C35 1_555 1_555
C37 C38 1_555 1_555

#END
