
#######################################################################
#
#                 Cambridge Crystallographic Data Centre
#                                CCDC 
#
#######################################################################
#
# If this CIF has been generated from an entry in the Cambridge 
# Structural Database, then it will include bibliographic, chemical, 
# crystal, experimental, refinement or atomic coordinate data resulting 
# from the CCDC's data processing and validation procedures.
#
#######################################################################

data_FIRPIH
_symmetry_cell_setting           monoclinic
_symmetry_space_group_name_H-M   'P 21/c'
_symmetry_Int_Tables_number      14
_space_group_name_Hall           '-P 2ybc'
loop_
_symmetry_equiv_pos_site_id
_symmetry_equiv_pos_as_xyz
1 x,y,z
2 -x,1/2+y,1/2-z
3 -x,-y,-z
4 x,1/2-y,1/2+z
_cell_length_a                   18.492(2)
_cell_length_b                   5.4356(12)
_cell_length_c                   19.104(3)
_cell_angle_alpha                90
_cell_angle_beta                 120.6880(10)
_cell_angle_gamma                90
_cell_volume                     1651.33
loop_
_atom_site_label
_atom_site_type_symbol
_atom_site_fract_x
_atom_site_fract_y
_atom_site_fract_z
Zn1 Zn 0.025920(19) 0.90853(5) -0.151814(18)
S1 S 0.27615(6) 0.85111(18) 0.11161(7)
O1 O 0.06275(14) 0.6088(3) -0.08699(12)
O2 O 0.06995(13) 0.7979(4) 0.01887(12)
O3 O 0.13292(12) 0.4477(4) 0.36711(12)
O4 O 0.04205(12) 0.2563(4) 0.25675(11)
O5 O -0.03508(12) 1.1837(4) -0.13791(11)
H1 H -0.0044 1.3107 -0.1273
H2 H -0.0498 1.1733 -0.1025
C1 C 0.5024(3) 0.5469(13) 0.1092(4)
H3 H 0.5483 0.4867 0.1069
C2 C 0.4612(3) 0.7536(14) 0.0671(4)
H4 H 0.4794 0.8345 0.0360
C3 C 0.3931(3) 0.8450(10) 0.0700(3)
H5 H 0.3669 0.9896 0.0428
C4 C 0.3645(2) 0.7192(7) 0.1137(2)
C5 C 0.4060(2) 0.5116(8) 0.1553(3)
H6 H 0.3873 0.4236 0.1847
C6 C 0.4757(3) 0.4339(11) 0.1533(3)
H7 H 0.5051 0.2973 0.1839
C7 C 0.25249(19) 0.6410(6) 0.1691(2)
C8 C 0.2915(2) 0.6706(7) 0.2529(2)
H8 H 0.3308 0.7958 0.2781
C9 C 0.2730(2) 0.5171(7) 0.2994(2)
H9 H 0.3001 0.5389 0.3555
C10 C 0.21492(17) 0.3332(6) 0.26307(17)
C11 C 0.17588(17) 0.3064(5) 0.17894(16)
H10 H 0.1367 0.1810 0.1540
C12 C 0.19292(18) 0.4580(5) 0.13090(17)
C13 C 0.1473(2) 0.4207(5) 0.04028(18)
H11 H 0.1887 0.3957 0.0242
H12 H 0.1143 0.2711 0.0275
C14 C 0.08994(17) 0.6260(5) -0.01008(17)
C15 C 0.18871(18) 0.1617(6) 0.31054(17)
H13 H 0.1665 0.0094 0.2793
C16 C 0.2582(2) 0.0944(7) 0.3959(2)
H14 H 0.2785 0.2406 0.4285
H15 H 0.3036 0.0174 0.3933
H16 H 0.2367 -0.0172 0.4198
C17 C 0.11684(18) 0.2950(5) 0.31176(16)
Zn1B Zn -0.025920(19) 0.09147(5) 0.151814(18)
Zn1C Zn 0.025920(19) 0.59147(5) 0.348186(18)
O3C O 0.13292(12) 1.0523(4) -0.13289(12)
O4B O -0.04205(12) 0.7437(4) -0.25675(11)
loop_
_geom_bond_atom_site_label_1
_geom_bond_atom_site_label_2
_geom_bond_site_symmetry_1
_geom_bond_site_symmetry_2
Zn1 O1 1_555 1_555
S1 C4 1_555 1_555
O1 C14 1_555 1_555
O2 C14 1_555 1_555
O3 C17 1_555 1_555
O4 C17 1_555 1_555
O5 Zn1 1_555 1_555
H1 O5 1_555 1_555
H2 O5 1_555 1_555
C1 H3 1_555 1_555
C2 C1 1_555 1_555
H4 C2 1_555 1_555
C3 C2 1_555 1_555
H5 C3 1_555 1_555
C4 C3 1_555 1_555
C5 C4 1_555 1_555
H6 C5 1_555 1_555
C6 C1 1_555 1_555
H7 C6 1_555 1_555
C7 S1 1_555 1_555
C8 C7 1_555 1_555
H8 C8 1_555 1_555
C9 C8 1_555 1_555
H9 C9 1_555 1_555
C10 C9 1_555 1_555
C11 C10 1_555 1_555
H10 C11 1_555 1_555
C12 C7 1_555 1_555
C13 C12 1_555 1_555
H11 C13 1_555 1_555
H12 C13 1_555 1_555
C14 C13 1_555 1_555
C15 C10 1_555 1_555
H13 C15 1_555 1_555
C16 C15 1_555 1_555
H14 C16 1_555 1_555
H15 C16 1_555 1_555
H16 C16 1_555 1_555
C17 C15 1_555 1_555
Zn1B O4 1_555 1_555
Zn1C O3 1_555 1_555
O3C Zn1 1_555 1_555
O4B Zn1 1_555 1_555
C5 C6 1_555 1_555
C11 C12 1_555 1_555

#END
