
#######################################################################
#
#                 Cambridge Crystallographic Data Centre
#                                CCDC 
#
#######################################################################
#
# If this CIF has been generated from an entry in the Cambridge 
# Structural Database, then it will include bibliographic, chemical, 
# crystal, experimental, refinement or atomic coordinate data resulting 
# from the CCDC's data processing and validation procedures.
#
#######################################################################

data_FIRPOM
_symmetry_cell_setting           monoclinic
_symmetry_space_group_name_H-M   'C 2/c'
_symmetry_Int_Tables_number      15
_space_group_name_Hall           '-C 2yn'
loop_
_symmetry_equiv_pos_site_id
_symmetry_equiv_pos_as_xyz
1 x,y,z
2 1/2+x,1/2+y,z
3 -x,y,1/2-z
4 1/2-x,1/2+y,1/2-z
5 -x,-y,-z
6 1/2-x,1/2-y,-z
7 x,-y,1/2+z
8 1/2+x,1/2-y,1/2+z
_cell_length_a                   15.1153(12)
_cell_length_b                   15.3621(13)
_cell_length_c                   6.8134(5)
_cell_angle_alpha                90
_cell_angle_beta                 92.908(3)
_cell_angle_gamma                90
_cell_volume                     1580.05
loop_
_atom_site_label
_atom_site_type_symbol
_atom_site_fract_x
_atom_site_fract_y
_atom_site_fract_z
Pb1 Pb 0.0000 0.43157(3) 0.2500
O1 O 0.0703(6) 0.5438(6) 0.0877(13)
O2 O 0.4085(7) 0.7494(8) 0.3602(17)
O3 O 0.3200(7) 0.8565(6) 0.2942(16)
N1 N 0.3346(8) 0.7785(7) 0.3094(15)
C1 C 0.1324(8) 0.5992(8) 0.1540(16)
C2 C 0.2156(10) 0.5696(8) 0.223(2)
H1 H 0.2269 0.5101 0.2301
C3 C 0.2807(9) 0.6279(10) 0.279(2)
H2 H 0.3356 0.6080 0.3281
C4 C 0.2643(8) 0.7169(8) 0.2641(17)
C5 C 0.1821(9) 0.7465(8) 0.2024(18)
H3 H 0.1711 0.8061 0.1970
C6 C 0.1150(9) 0.6883(8) 0.1481(18)
H4 H 0.0590 0.7086 0.1081
Pb1D Pb 0.0000 0.56843(3) -0.2500
Pb1D_2 Pb 0.0000 0.56843(3) 0.7500
O1F O 0.0703(6) 0.4562(6) 0.5877(13)
O1D O -0.0703(6) 0.4562(6) -0.0877(13)
O1B O -0.0703(6) 0.5438(6) 0.4123(13)
O2F O 0.4085(7) 0.2506(8) 0.8602(17)
O3F O 0.3200(7) 0.1435(6) 0.7942(16)
N1F N 0.3346(8) 0.2215(7) 0.8094(15)
C1F C 0.1324(8) 0.4008(8) 0.6540(16)
C2F C 0.2156(10) 0.4304(8) 0.723(2)
H1F H 0.2269 0.4899 0.7301
C3F C 0.2807(9) 0.3721(10) 0.779(2)
H2F H 0.3356 0.3920 0.8281
C4F C 0.2643(8) 0.2831(8) 0.7641(17)
C5F C 0.1821(9) 0.2535(8) 0.7024(18)
H3F H 0.1711 0.1939 0.6970
C6F C 0.1150(9) 0.3117(8) 0.6481(18)
H4F H 0.0590 0.2914 0.6081
loop_
_geom_bond_atom_site_label_1
_geom_bond_atom_site_label_2
_geom_bond_site_symmetry_1
_geom_bond_site_symmetry_2
Pb1 O1 1_555 1_555
O1 C1 1_555 1_555
O2 N1 1_555 1_555
O3 N1 1_555 1_555
N1 C4 1_555 1_555
C1 C2 1_555 1_555
C2 H1 1_555 1_555
C3 C2 1_555 1_555
H2 C3 1_555 1_555
C4 C3 1_555 1_555
C5 C4 1_555 1_555
H3 C5 1_555 1_555
C6 C1 1_555 1_555
H4 C6 1_555 1_555
Pb1D O1 1_555 1_555
Pb1D_2 O1F 1_555 1_555
O1F Pb1 1_555 1_555
O1D Pb1 1_555 1_555
O1B Pb1 1_555 1_555
O2F N1F 1_555 1_555
O3F N1F 1_555 1_555
N1F C4F 1_555 1_555
C1F O1F 1_555 1_555
C2F C1F 1_555 1_555
H1F C2F 1_555 1_555
C3F C2F 1_555 1_555
H2F C3F 1_555 1_555
C4F C3F 1_555 1_555
C5F C4F 1_555 1_555
H3F C5F 1_555 1_555
C6F C1F 1_555 1_555
H4F C6F 1_555 1_555
C5 C6 1_555 1_555
Pb1D O1D 1_555 1_555
Pb1D_2 O1B 1_555 1_555
C5F C6F 1_555 1_555

#END
