
#######################################################################
#
#                 Cambridge Crystallographic Data Centre
#                                CCDC 
#
#######################################################################
#
# If this CIF has been generated from an entry in the Cambridge 
# Structural Database, then it will include bibliographic, chemical, 
# crystal, experimental, refinement or atomic coordinate data resulting 
# from the CCDC's data processing and validation procedures.
#
#######################################################################

data_FIRPUT
_symmetry_cell_setting           orthorhombic
_symmetry_space_group_name_H-M   'P b c a'
_symmetry_Int_Tables_number      61
_space_group_name_Hall           '-P 2ac 2ab'
loop_
_symmetry_equiv_pos_site_id
_symmetry_equiv_pos_as_xyz
1 x,y,z
2 1/2-x,-y,1/2+z
3 -x,1/2+y,1/2-z
4 1/2+x,1/2-y,-z
5 -x,-y,-z
6 1/2+x,y,1/2-z
7 x,1/2-y,1/2+z
8 1/2-x,1/2+y,z
_cell_length_a                   11.7391(13)
_cell_length_b                   17.186(2)
_cell_length_c                   19.232(2)
_cell_angle_alpha                90
_cell_angle_beta                 90
_cell_angle_gamma                90
_cell_volume                     3880.02
loop_
_atom_site_label
_atom_site_type_symbol
_atom_site_fract_x
_atom_site_fract_y
_atom_site_fract_z
Co1 Co 0.54427(4) 0.10918(3) 0.36716(2)
O1 O 0.4569(3) 0.18405(17) 0.28938(14)
O2 O 0.6134(2) 0.12298(19) 0.26889(14)
O3 O 0.4766(2) 0.35210(16) -0.04173(13)
O4 O 0.6258(2) 0.28335(15) -0.07039(13)
N1 N 0.7235(6) 0.1406(5) 0.1444(4)
H1 H 0.7283 0.1135 0.1818
H2 H 0.7763 0.1376 0.1135
N2 N 0.7338(6) 0.2053(5) 0.0330(4)
H3 H 0.7441 0.2248 -0.0077
H4 H 0.7862 0.1774 0.0518
N3 N 0.3463(9) 0.2508(7) 0.1819(5)
H5 H 0.2910 0.2722 0.1596
H6 H 0.3358 0.2339 0.2235
N4 N 0.6887(2) 0.04293(18) 0.39493(14)
N5 N 1.4239(2) 0.02031(18) 0.35748(14)
C1 C 0.5360(4) 0.1683(2) 0.2487(2)
C2 C 0.5402(3) 0.2010(2) 0.17672(18)
C3 C 0.4489(3) 0.2439(2) 0.15171(19)
C4 C 0.4522(3) 0.2737(2) 0.08489(19)
H7 H 0.3906 0.3022 0.0683
C5 C 0.5460(3) 0.26192(19) 0.04215(17)
C6 C 0.6375(3) 0.2181(2) 0.06653(19)
C7 C 0.6347(3) 0.1871(2) 0.1342(2)
C8 C 0.5500(3) 0.3002(2) -0.02754(19)
C9 C 0.7880(3) 0.0803(2) 0.3964(2)
H8 H 0.7876 0.1342 0.3928
C10 C 0.8911(3) 0.0429(2) 0.4029(2)
H9 H 0.9580 0.0719 0.4034
C11 C 0.8967(3) -0.0365(2) 0.40867(19)
C12 C 0.7941(3) -0.0748(2) 0.4075(2)
H10 H 0.7925 -0.1287 0.4114
C13 C 0.6937(3) -0.0344(2) 0.4005(2)
H11 H 0.6258 -0.0624 0.3996
C14 C 1.0085(3) -0.0787(2) 0.4132(2)
H12 H 1.0033 -0.1185 0.4488
H13 H 1.0673 -0.0422 0.4271
C15 C 1.0422(3) -0.1161(3) 0.3450(2)
H14 H 1.0412 -0.0768 0.3087
H15 H 0.9862 -0.1554 0.3330
C16 C 1.1601(3) -0.1537(2) 0.3472(3)
H16 H 1.1646 -0.1880 0.3872
H17 H 1.1708 -0.1850 0.3058
C17 C 1.2532(3) -0.0946(2) 0.3516(2)
C18 C 1.2916(4) -0.0569(3) 0.2934(2)
H18 H 1.2605 -0.0691 0.2503
C19 C 1.3753(4) -0.0014(3) 0.2980(2)
H19 H 1.3996 0.0224 0.2572
C20 C 1.3866(3) -0.0171(2) 0.41413(19)
H20 H 1.4187 -0.0040 0.4568
C21 C 1.3039(3) -0.0736(2) 0.4133(2)
H21 H 1.2821 -0.0977 0.4545
Co1_2 Co 1.54427(4) 0.10918(3) 0.36716(2)
Co1F Co 0.54427(4) 0.39082(3) -0.13284(2)
O3F O 0.4766(2) 0.14790(16) 0.45827(13)
O4F O 0.6258(2) 0.21665(15) 0.42961(13)
N5_2 N 0.4239(2) 0.02031(18) 0.35748(14)
loop_
_geom_bond_atom_site_label_1
_geom_bond_atom_site_label_2
_geom_bond_site_symmetry_1
_geom_bond_site_symmetry_2
Co1 O1 1_555 1_555
O1 C1 1_555 1_555
O2 Co1 1_555 1_555
O3 C8 1_555 1_555
O4 C8 1_555 1_555
N1 H1 1_555 1_555
H2 N1 1_555 1_555
N2 H3 1_555 1_555
H4 N2 1_555 1_555
N3 H5 1_555 1_555
H6 N3 1_555 1_555
N4 Co1 1_555 1_555
N5 C19 1_555 1_555
C1 O2 1_555 1_555
C2 C1 1_555 1_555
C3 N3 1_555 1_555
C4 C3 1_555 1_555
H7 C4 1_555 1_555
C5 C4 1_555 1_555
C6 N2 1_555 1_555
C7 N1 1_555 1_555
C8 C5 1_555 1_555
C9 N4 1_555 1_555
H8 C9 1_555 1_555
C10 C9 1_555 1_555
H9 C10 1_555 1_555
C11 C10 1_555 1_555
C12 C11 1_555 1_555
H10 C12 1_555 1_555
C13 N4 1_555 1_555
H11 C13 1_555 1_555
C14 C11 1_555 1_555
H12 C14 1_555 1_555
H13 C14 1_555 1_555
C15 C14 1_555 1_555
H14 C15 1_555 1_555
H15 C15 1_555 1_555
C16 C15 1_555 1_555
H16 C16 1_555 1_555
H17 C16 1_555 1_555
C17 C16 1_555 1_555
C18 C17 1_555 1_555
H18 C18 1_555 1_555
C19 C18 1_555 1_555
H19 C19 1_555 1_555
C20 N5 1_555 1_555
H20 C20 1_555 1_555
C21 C17 1_555 1_555
H21 C21 1_555 1_555
Co1_2 N5 1_555 1_555
Co1F O3 1_555 1_555
O3F Co1 1_555 1_555
O4F Co1 1_555 1_555
N5_2 Co1 1_555 1_555
O4 Co1F 1_555 1_555
C2 C3 1_555 1_555
C2 C7 1_555 1_555
C5 C6 1_555 1_555
C6 C7 1_555 1_555
C12 C13 1_555 1_555
C20 C21 1_555 1_555

#END
