
#######################################################################
#
#                 Cambridge Crystallographic Data Centre
#                                CCDC 
#
#######################################################################
#
# If this CIF has been generated from an entry in the Cambridge 
# Structural Database, then it will include bibliographic, chemical, 
# crystal, experimental, refinement or atomic coordinate data resulting 
# from the CCDC's data processing and validation procedures.
#
#######################################################################

data_FIRQAA
_symmetry_cell_setting           triclinic
_symmetry_space_group_name_H-M   'P -1'
_symmetry_Int_Tables_number      2
_space_group_name_Hall           '-P 1'
loop_
_symmetry_equiv_pos_site_id
_symmetry_equiv_pos_as_xyz
1 x,y,z
2 -x,-y,-z
_cell_length_a                   9.9041(14)
_cell_length_b                   10.9899(15)
_cell_length_c                   15.985(2)
_cell_angle_alpha                93.411(2)
_cell_angle_beta                 101.013(2)
_cell_angle_gamma                112.5610(10)
_cell_volume                     1560.13
loop_
_atom_site_label
_atom_site_type_symbol
_atom_site_fract_x
_atom_site_fract_y
_atom_site_fract_z
C1 C -0.3574(3) 0.4066(2) 0.49038(16)
H1 H -0.4155 0.4011 0.5305
C2 C -0.3025(3) 0.3103(2) 0.38301(17)
H2 H -0.3209 0.2353 0.3450
N1 N -0.38896(17) 0.29782(15) 0.43760(11)
O1 O 0.48386(17) 0.99364(14) 0.62788(10)
Mn1 Mn 0.40655(3) 1.10573(3) 0.428603(18)
O2 O 0.32565(19) 1.16222(17) 0.29482(10)
O3 O 0.24496(17) 1.20094(15) 0.40643(10)
O4 O 0.43385(17) 1.14917(14) 0.56248(9)
N2 N 0.21065(17) 0.90907(15) 0.42557(11)
N3 N 0.2686(3) 1.6073(2) 0.19950(16)
H3 H 0.2242 1.6511 0.1714
H4 H 0.3650 1.6408 0.2162
N4 N 0.3505(4) 1.0178(3) 0.91257(16)
H5 H 0.3187 1.0354 0.9563
H6 H 0.3880 0.9589 0.9126
C3 C -0.1540(2) 0.54123(17) 0.43302(13)
C4 C -0.0287(2) 0.66879(17) 0.42998(12)
C5 C 0.1728(2) 1.2856(2) 0.28076(12)
C6 C 0.2522(2) 1.21115(19) 0.32973(13)
C7 C 0.3838(2) 1.11943(19) 0.69999(13)
C8 C 0.4380(2) 1.08498(18) 0.62446(13)
C9 C 0.1844(2) 0.79645(19) 0.37673(14)
H7 H 0.2477 0.7988 0.3402
C10 C -0.0028(2) 0.78646(19) 0.48033(15)
H8 H -0.0652 0.7874 0.5169
C11 C 0.0687(2) 0.67669(19) 0.37733(14)
H9 H 0.0562 0.6009 0.3421
C12 C 0.2554(2) 1.4091(2) 0.26135(14)
H10 H 0.3597 1.4436 0.2776
C13 C -0.1864(3) 0.4273(2) 0.37856(18)
H11 H -0.1293 0.4294 0.3383
C14 C 0.1158(2) 0.90160(19) 0.47563(15)
H12 H 0.1307 0.9793 0.5097
C15 C 0.0293(3) 1.4268(3) 0.19157(14)
H13 H -0.0199 1.4728 0.1607
C16 C -0.2437(3) 0.5282(2) 0.49010(17)
H14 H -0.2280 0.6016 0.5288
C17 C 0.3247(3) 1.2155(3) 0.69889(16)
H15 H 0.3192 1.2603 0.6516
C18 C 0.0169(3) 1.2323(2) 0.25600(15)
H16 H -0.0397 1.1498 0.2697
C19 C 0.3928(2) 1.0548(2) 0.77109(14)
H17 H 0.4333 0.9912 0.7716
C20 C 0.1850(3) 1.4831(2) 0.21778(14)
C21 C 0.3416(3) 1.0840(3) 0.84237(16)
C22 C -0.0527(3) 1.3036(3) 0.21074(16)
H18 H -0.1570 1.2676 0.1929
C23 C 0.2739(4) 1.2435(4) 0.7701(2)
H19 H 0.2335 1.3072 0.7702
C24 C 0.2828(4) 1.1784(4) 0.8397(2)
H20 H 0.2481 1.1987 0.8865
N1_2 N 0.61104(17) 1.29782(15) 0.43760(11)
O1A O 0.51614(17) 1.00636(14) 0.37212(10)
Mn1_2 Mn -0.59345(3) 0.10573(3) 0.428603(18)
Mn1A Mn 0.59345(3) 0.89427(3) 0.571397(18)
N5 N 0.1055(3) 0.7681(3) 0.11160(17)
C25 C 0.0219(3) 0.9516(2) 0.02323(14)
C26 C 0.0158(4) 0.7343(3) 0.0336(2)
H21 H -0.0211 0.6459 0.0083
C27 C 0.1541(4) 0.8946(3) 0.1446(2)
H22 H 0.2188 0.9226 0.1989
C28 C -0.0265(3) 0.8200(2) -0.01250(17)
H23 H -0.0878 0.7898 -0.0678
C29 C 0.1160(3) 0.9878(3) 0.10437(17)
H24 H 0.1536 1.0751 0.1318
N5A N -0.1055(3) 1.2319(3) -0.11160(17)
C25A C -0.0219(3) 1.0484(2) -0.02323(14)
C26A C -0.0158(4) 1.2657(3) -0.0336(2)
H21A H 0.0211 1.3541 -0.0083
C27A C -0.1541(4) 1.1054(3) -0.1446(2)
H22A H -0.2188 1.0774 -0.1989
C28A C 0.0265(3) 1.1800(2) 0.01250(17)
H23A H 0.0878 1.2102 0.0678
C29A C -0.1160(3) 1.0122(3) -0.10437(17)
H24A H -0.1536 0.9249 -0.1318
N6 N 0.5771(3) 0.2458(3) 0.10184(17)
C30 C 0.6083(3) 0.3919(4) -0.0046(2)
H25 H 0.6527 0.4209 -0.0501
C31 C 0.5171(3) 0.4485(3) 0.02151(17)
C32 C 0.4590(4) 0.3994(3) 0.09048(19)
H26 H 0.3980 0.4334 0.1122
C33 C 0.6339(4) 0.2933(4) 0.0359(2)
H27 H 0.6950 0.2575 0.0159
C34 C 0.4910(4) 0.3008(4) 0.1270(2)
H28 H 0.4490 0.2703 0.1730
N6A N 0.4229(3) 0.7542(3) -0.10184(17)
C30A C 0.3917(3) 0.6081(4) 0.0046(2)
H25A H 0.3473 0.5791 0.0501
C31A C 0.4829(3) 0.5515(3) -0.02151(17)
C32A C 0.5410(4) 0.6006(3) -0.09048(19)
H26A H 0.6020 0.5666 -0.1122
C33A C 0.3661(4) 0.7067(4) -0.0359(2)
H27A H 0.3050 0.7425 -0.0159
C34A C 0.5090(4) 0.6992(4) -0.1270(2)
H28A H 0.5510 0.7297 -0.1730
loop_
_geom_bond_atom_site_label_1
_geom_bond_atom_site_label_2
_geom_bond_site_symmetry_1
_geom_bond_site_symmetry_2
C1 H1 1_555 1_555
C2 H2 1_555 1_555
N1 C1 1_555 1_555
O1 C8 1_555 1_555
Mn1 O2 1_555 1_555
O2 C6 1_555 1_555
O3 Mn1 1_555 1_555
O4 Mn1 1_555 1_555
N2 Mn1 1_555 1_555
N3 H3 1_555 1_555
H4 N3 1_555 1_555
N4 H5 1_555 1_555
H6 N4 1_555 1_555
C3 C4 1_555 1_555
C4 C10 1_555 1_555
C5 C6 1_555 1_555
C6 O3 1_555 1_555
C7 C8 1_555 1_555
C8 O4 1_555 1_555
C9 N2 1_555 1_555
H7 C9 1_555 1_555
C10 H8 1_555 1_555
C11 C4 1_555 1_555
H9 C11 1_555 1_555
C12 C5 1_555 1_555
H10 C12 1_555 1_555
C13 C2 1_555 1_555
H11 C13 1_555 1_555
C14 N2 1_555 1_555
H12 C14 1_555 1_555
C15 H13 1_555 1_555
C16 C1 1_555 1_555
H14 C16 1_555 1_555
C17 C7 1_555 1_555
H15 C17 1_555 1_555
C18 C5 1_555 1_555
H16 C18 1_555 1_555
C19 C7 1_555 1_555
H17 C19 1_555 1_555
C20 N3 1_555 1_555
C21 N4 1_555 1_555
C22 C15 1_555 1_555
H18 C22 1_555 1_555
C23 C17 1_555 1_555
H19 C23 1_555 1_555
C24 C21 1_555 1_555
H20 C24 1_555 1_555
N5 C26 1_555 1_555
C25 C28 1_555 1_555
C26 H21 1_555 1_555
C27 N5 1_555 1_555
H22 C27 1_555 1_555
C28 C26 1_555 1_555
H23 C28 1_555 1_555
C29 C25 1_555 1_555
H24 C29 1_555 1_555
N6 C33 1_555 1_555
C30 H25 1_555 1_555
C31 C30 1_555 1_555
C32 C31 1_555 1_555
H26 C32 1_555 1_555
C33 C30 1_555 1_555
H27 C33 1_555 1_555
C34 N6 1_555 1_555
H28 C34 1_555 1_555
N1_2 Mn1 1_555 1_555
O1A Mn1 1_555 1_555
Mn1_2 N1 1_555 1_555
Mn1A O1 1_555 1_555
N5A C26A 1_555 1_555
C25A C25 1_555 1_555
C26A H21A 1_555 1_555
C27A N5A 1_555 1_555
H22A C27A 1_555 1_555
C28A C25A 1_555 1_555
H23A C28A 1_555 1_555
C29A C25A 1_555 1_555
H24A C29A 1_555 1_555
N6A C33A 1_555 1_555
C30A H25A 1_555 1_555
C31A C31 1_555 1_555
C32A C31A 1_555 1_555
H26A C32A 1_555 1_555
C33A C30A 1_555 1_555
H27A C33A 1_555 1_555
C34A N6A 1_555 1_555
H28A C34A 1_555 1_555
C2 N1 1_555 1_555
C3 C13 1_555 1_555
C3 C16 1_555 1_555
C9 C11 1_555 1_555
C10 C14 1_555 1_555
C12 C20 1_555 1_555
C15 C20 1_555 1_555
C18 C22 1_555 1_555
C19 C21 1_555 1_555
C23 C24 1_555 1_555
C27 C29 1_555 1_555
C32 C34 1_555 1_555
C26A C28A 1_555 1_555
C27A C29A 1_555 1_555
C30A C31A 1_555 1_555
C32A C34A 1_555 1_555

#END
