
#######################################################################
#
#                 Cambridge Crystallographic Data Centre
#                                CCDC 
#
#######################################################################
#
# If this CIF has been generated from an entry in the Cambridge 
# Structural Database, then it will include bibliographic, chemical, 
# crystal, experimental, refinement or atomic coordinate data resulting 
# from the CCDC's data processing and validation procedures.
#
#######################################################################

data_FIRQII
_symmetry_cell_setting           orthorhombic
_symmetry_space_group_name_H-M   'P 21 21 21'
_symmetry_Int_Tables_number      19
_space_group_name_Hall           'P 2ac 2ab'
loop_
_symmetry_equiv_pos_site_id
_symmetry_equiv_pos_as_xyz
1 x,y,z
2 1/2-x,-y,1/2+z
3 1/2+x,1/2-y,-z
4 -x,1/2+y,1/2-z
_cell_length_a                   8.1320(16)
_cell_length_b                   13.630(3)
_cell_length_c                   19.796(4)
_cell_angle_alpha                90
_cell_angle_beta                 90
_cell_angle_gamma                90
_cell_volume                     2194.17
loop_
_atom_site_label
_atom_site_type_symbol
_atom_site_fract_x
_atom_site_fract_y
_atom_site_fract_z
Sm1 Sm 0.72575(5) 0.29071(3) -0.005571(18)
O1 O 0.4418(10) 0.2758(6) 0.0623(4)
O2 O 0.6345(9) 0.1419(5) -0.0180(4)
O3 O 0.6088(10) 0.4042(7) 0.0651(4)
O4 O 0.8343(10) 0.2393(6) 0.0894(4)
O5 O 1.0798(10) 0.1646(6) 0.0942(4)
O6 O 0.3932(8) 0.0796(5) 0.0170(4)
C1 C 0.5450(12) 0.0713(6) 0.0069(5)
C2 C 0.6292(13) -0.0209(7) 0.0244(5)
C3 C 0.5356(15) -0.1029(8) 0.0398(6)
C4 C 0.6181(18) -0.1903(9) 0.0583(7)
C5 C 0.7919(17) -0.1939(10) 0.0613(7)
C6 C 0.8833(15) -0.1082(9) 0.0477(7)
C7 C 0.8014(12) -0.0223(7) 0.0276(5)
C8 C 1.0678(19) -0.1028(14) 0.0564(10)
C9 C 0.4955(15) 0.3543(9) 0.0912(5)
C10 C 0.4255(12) 0.3835(8) 0.1581(5)
C11 C 0.3066(15) 0.3253(9) 0.1901(5)
C12 C 0.2512(18) 0.3516(11) 0.2546(6)
C13 C 0.3194(17) 0.4329(11) 0.2876(6)
C14 C 0.4453(15) 0.4915(8) 0.2554(6)
C15 C 0.4954(16) 0.4648(8) 0.1906(6)
C16 C 0.527(2) 0.5744(11) 0.2963(8)
C17 C 0.9476(13) 0.1948(9) 0.1206(5)
C18 C 0.9190(16) 0.1804(10) 0.1967(5)
C19 C 1.0070(19) 0.1062(11) 0.2293(7)
C20 C 0.969(2) 0.0954(12) 0.3009(7)
C21 C 0.856(2) 0.1603(16) 0.3311(9)
C22 C 0.778(2) 0.2353(15) 0.2972(7)
C23 C 0.8033(18) 0.2454(11) 0.2268(6)
C24 C 1.046(3) 0.0168(15) 0.3381(11)
Sm1B Sm 0.22575(5) 0.20929(3) 0.005571(18)
Sm1B_2 Sm 1.22575(5) 0.20929(3) 0.005571(18)
O1B O 0.9418(10) 0.2242(6) -0.0623(4)
O5B O 0.5798(10) 0.3354(6) -0.0942(4)
O6B O 0.8932(8) 0.4204(5) -0.0170(4)
loop_
_geom_bond_atom_site_label_1
_geom_bond_atom_site_label_2
_geom_bond_site_symmetry_1
_geom_bond_site_symmetry_2
Sm1 O1 1_555 1_555
O1 C9 1_555 1_555
O2 Sm1 1_555 1_555
O3 Sm1 1_555 1_555
O4 Sm1 1_555 1_555
O5 C17 1_555 1_555
O6 C1 1_555 1_555
C1 O2 1_555 1_555
C2 C1 1_555 1_555
C3 C2 1_555 1_555
C4 C3 1_555 1_555
C5 C4 1_555 1_555
C6 C5 1_555 1_555
C7 C2 1_555 1_555
C8 C6 1_555 1_555
C9 O3 1_555 1_555
C10 C9 1_555 1_555
C11 C10 1_555 1_555
C12 C11 1_555 1_555
C13 C12 1_555 1_555
C14 C13 1_555 1_555
C15 C10 1_555 1_555
C16 C14 1_555 1_555
C17 O4 1_555 1_555
C18 C17 1_555 1_555
C19 C18 1_555 1_555
C20 C19 1_555 1_555
C21 C20 1_555 1_555
C22 C21 1_555 1_555
C23 C18 1_555 1_555
C24 C20 1_555 1_555
Sm1B O1 1_555 1_555
Sm1B_2 O5 1_555 1_555
O1B Sm1 1_555 1_555
O5B Sm1 1_555 1_555
O6B Sm1 1_555 1_555
O6 Sm1B 1_555 1_555
C6 C7 1_555 1_555
C14 C15 1_555 1_555
C22 C23 1_555 1_555
Sm1B_2 O1B 1_555 1_555

#END
