
#######################################################################
#
#                 Cambridge Crystallographic Data Centre
#                                CCDC 
#
#######################################################################
#
# If this CIF has been generated from an entry in the Cambridge 
# Structural Database, then it will include bibliographic, chemical, 
# crystal, experimental, refinement or atomic coordinate data resulting 
# from the CCDC's data processing and validation procedures.
#
#######################################################################

data_FIRQUU
_symmetry_cell_setting           monoclinic
_symmetry_space_group_name_H-M   'C 2/c'
_symmetry_Int_Tables_number      15
_space_group_name_Hall           '-C 2yn'
loop_
_symmetry_equiv_pos_site_id
_symmetry_equiv_pos_as_xyz
1 x,y,z
2 -x,y,1/2-z
3 1/2+x,1/2+y,z
4 1/2-x,1/2+y,1/2-z
5 -x,-y,-z
6 x,-y,1/2+z
7 1/2-x,1/2-y,-z
8 1/2+x,1/2-y,1/2+z
_cell_length_a                   11.5375(11)
_cell_length_b                   13.0086(13)
_cell_length_c                   9.7290(9)
_cell_angle_alpha                90
_cell_angle_beta                 90.162(2)
_cell_angle_gamma                90
_cell_volume                     1460.19
loop_
_atom_site_label
_atom_site_type_symbol
_atom_site_fract_x
_atom_site_fract_y
_atom_site_fract_z
Zn1 Zn 1.0000 0.10139(4) 0.2500
N1 N 1.1123(2) 0.21619(19) 0.1754(3)
O1 O 1.09813(18) 0.08957(16) 0.4337(2)
O2 O 1.09010(18) 0.01867(16) 0.6426(2)
N2 N 1.1530(2) 0.3537(2) 0.0523(3)
C1 C 1.1893(3) 0.2770(3) 0.2468(3)
H1 H 1.2194 0.2620 0.3332
C2 C 1.0545(2) 0.0313(2) 0.5220(3)
C3 C 1.2146(3) 0.3621(3) 0.1725(3)
H2 H 1.2638 0.4154 0.1979
C4 C 1.1421(3) 0.4312(3) -0.0570(4)
H3 H 1.1170 0.3981 -0.1401
H4 H 1.2165 0.4616 -0.0738
C5 C 1.0931(3) 0.2655(2) 0.0590(3)
H5 H 1.0440 0.2420 -0.0101
C6 C 1.0567(4) 0.5126(4) -0.0219(6)
H6 H 1.0521 0.5616 -0.0956
H7 H 1.0823 0.5466 0.0604
N1D N 0.8877(2) 0.78381(19) -0.1754(3)
N2D N 0.8470(2) 0.6463(2) -0.0523(3)
C1D C 0.8107(3) 0.7230(3) -0.2468(3)
H1D H 0.7806 0.7380 -0.3332
C3D C 0.7854(3) 0.6379(3) -0.1725(3)
H2D H 0.7362 0.5846 -0.1979
C4D C 0.8579(3) 0.5688(3) 0.0570(4)
H3D H 0.8830 0.6019 0.1401
H4D H 0.7835 0.5384 0.0738
C5D C 0.9069(3) 0.7345(2) -0.0590(3)
H5D H 0.9560 0.7580 0.0101
C6D C 0.9433(4) 0.4874(4) 0.0219(6)
H6D H 0.9479 0.4384 0.0956
H7D H 0.9177 0.4534 -0.0604
O1D O 0.90187(18) -0.08957(16) 0.5663(2)
O2D O 0.90990(18) -0.01867(16) 0.3574(2)
C2D C 0.9455(2) -0.0313(2) 0.4780(3)
Zn1D Zn 1.0000 -0.10139(4) 0.7500
Zn1D_2 Zn 1.0000 0.89861(4) -0.2500
N1A N 0.8877(2) 0.21619(19) 0.3246(3)
O1A O 0.90187(18) 0.08957(16) 0.0663(2)
O2E O 1.09010(18) -0.01867(16) 0.1426(2)
O3 O 1.5000 0.2778(3) 0.2500
H8 H 1.5094 0.3334 0.2946
H8A H 1.4906 0.3334 0.2054
loop_
_geom_bond_atom_site_label_1
_geom_bond_atom_site_label_2
_geom_bond_site_symmetry_1
_geom_bond_site_symmetry_2
Zn1 N1 1_555 1_555
N1 C1 1_555 1_555
O1 Zn1 1_555 1_555
O2 C2 1_555 1_555
N2 C3 1_555 1_555
C1 H1 1_555 1_555
C2 O1 1_555 1_555
C3 C1 1_555 1_555
H2 C3 1_555 1_555
C4 N2 1_555 1_555
H3 C4 1_555 1_555
H4 C4 1_555 1_555
C5 N1 1_555 1_555
H5 C5 1_555 1_555
C6 C4 1_555 1_555
H6 C6 1_555 1_555
H7 C6 1_555 1_555
O3 H8 1_555 1_555
N1D C1D 1_555 1_555
N2D C3D 1_555 1_555
C1D H1D 1_555 1_555
C3D C1D 1_555 1_555
H2D C3D 1_555 1_555
C4D N2D 1_555 1_555
H3D C4D 1_555 1_555
H4D C4D 1_555 1_555
C5D N1D 1_555 1_555
H5D C5D 1_555 1_555
C6D C6 1_555 1_555
H6D C6D 1_555 1_555
H7D C6D 1_555 1_555
O1D C2D 1_555 1_555
O2D Zn1 1_555 1_555
C2D C2 1_555 1_555
Zn1D O2 1_555 1_555
Zn1D_2 N1D 1_555 1_555
N1A Zn1 1_555 1_555
O1A Zn1 1_555 1_555
O2E Zn1 1_555 1_555
H8A O3 1_555 1_555
N2 C5 1_555 1_555
N2D C5D 1_555 1_555
C4D C6D 1_555 1_555
O1D Zn1D 1_555 1_555
O2D C2D 1_555 1_555

#END
