
#######################################################################
#
#                 Cambridge Crystallographic Data Centre
#                                CCDC 
#
#######################################################################
#
# If this CIF has been generated from an entry in the Cambridge 
# Structural Database, then it will include bibliographic, chemical, 
# crystal, experimental, refinement or atomic coordinate data resulting 
# from the CCDC's data processing and validation procedures.
#
#######################################################################

data_FIRQEE
_symmetry_cell_setting           monoclinic
_symmetry_space_group_name_H-M   'P 21/n'
_symmetry_Int_Tables_number      14
_space_group_name_Hall           '-P 2yn'
loop_
_symmetry_equiv_pos_site_id
_symmetry_equiv_pos_as_xyz
1 x,y,z
2 1/2-x,1/2+y,1/2-z
3 -x,-y,-z
4 1/2+x,1/2-y,1/2+z
_cell_length_a                   15.2084(3)
_cell_length_b                   10.5336(2)
_cell_length_c                   15.9664(3)
_cell_angle_alpha                90
_cell_angle_beta                 103.601(2)
_cell_angle_gamma                90
_cell_volume                     2486.08
loop_
_atom_site_label
_atom_site_type_symbol
_atom_site_fract_x
_atom_site_fract_y
_atom_site_fract_z
O1 O 0.5425(4) 0.9063(5) 0.2782(3)
N1 N 0.5420(5) 1.1453(7) 0.2169(4)
O2 O 0.3521(6) 0.9759(9) -0.0089(6)
O3 O 0.6858(5) 0.9266(7) 0.3500(5)
C1 C 0.6158(6) 0.9683(8) 0.3035(5)
O4 O 0.4577(4) 1.1159(7) 0.0193(4)
N2 N 0.3999(5) 1.0565(8) -0.0355(5)
C2 C 0.6157(5) 1.1055(8) 0.2753(5)
N3 N 0.3749(5) 1.0511(7) 0.2896(5)
O5 O 0.2931(5) 1.3394(7) 0.1937(5)
O6 O 0.3930(5) 1.0737(9) -0.1143(4)
C3 C 0.3169(6) 1.2279(9) 0.1960(5)
C4 C 0.3238(5) 1.1547(8) 0.2792(5)
C5 C 0.5395(6) 1.2613(8) 0.1837(5)
H1 H 0.4876 1.2872 0.1439
O7 O 0.8447(4) 1.1249(7) 0.3485(5)
O8 O 0.7625(5) 1.1525(9) 0.4465(4)
H2 H 0.8093 1.1314 0.4808
C6 C 0.6902(6) 1.1860(8) 0.3021(5)
C7 C 0.7744(6) 1.1477(9) 0.3682(6)
C8 C 0.6875(7) 1.3069(9) 0.2668(6)
H3 H 0.7365 1.3615 0.2838
C9 C 0.6117(7) 1.3454(10) 0.2063(7)
H4 H 0.609 1.4255 0.1814
O9 O 0.3425(4) 1.1667(6) 0.1363(4)
C10 C 0.3549(9) 1.0261(13) 0.4302(8)
H5 H 0.3687 0.9815 0.4819
C11 C 0.3899(8) 0.9859(8) 0.3629(7)
H6 H 0.4244 0.9122 0.3687
C12 C 0.2166(5) 1.3063(8) 0.3317(5)
C13 C 0.2825(6) 1.1973(8) 0.3444(5)
C14 C 0.3000(6) 1.1309(9) 0.4226(5)
H7 H 0.2753 1.1569 0.4678
O10 O 0.2385(4) 1.4053(7) 0.3746(5)
O11 O 0.1408(4) 1.2891(6) 0.2830(4)
Bi1 Bi 0.420949(18) 0.98475(3) 0.162051(18)
O10A O 0.2615(4) 0.9053(7) 0.1254(5)
O11A O 0.3592(4) 0.7891(6) 0.2170(4)
Bi1A Bi 0.079051(18) 1.48475(3) 0.337949(18)
N4 N 0.7022(6) 0.6645(9) 0.3894(6)
H8 H 0.7002 0.7358 0.3627
H9 H 0.7529 0.6366 0.4197
C15 C 0.6255(8) 0.4790(9) 0.4258(7)
H10 H 0.6786 0.4451 0.4595
N5 N 0.5487(6) 0.6420(8) 0.3361(5)
H11 H 0.5481 0.714 0.3105
C16 C 0.6280(6) 0.5982(9) 0.3837(6)
C17 C 0.5465(7) 0.4145(10) 0.4173(6)
C18 C 0.4691(8) 0.5771(12) 0.3266(8)
H12 H 0.4159 0.6113 0.2932
C19 C 0.4671(8) 0.4652(12) 0.3649(10)
H13 H 0.4131 0.4205 0.3569
C20 C 0.5465(9) 0.2874(11) 0.4617(9)
H14 H 0.4862 0.2534 0.4486
H15 H 0.5672 0.2983 0.5228
H16 H 0.586 0.2299 0.4416
O12 O 0.8823(6) 1.0490(9) 0.5708(6)
H17 H 0.852(17) 1.063(15) 0.616(12)
H18 H 0.897(8) 0.961(4) 0.574(5)
O13 O 0.5355(8) 1.3027(14) -0.0784(8)
H19 H 0.519(12) 1.251(16) -0.036(5)
H20 H 0.479(7) 1.330(8) -0.113(16)
loop_
_geom_bond_atom_site_label_1
_geom_bond_atom_site_label_2
_geom_bond_site_symmetry_1
_geom_bond_site_symmetry_2
O1 C1 1_555 1_555
N1 C2 1_555 1_555
O2 N2 1_555 1_555
O3 C1 1_555 1_555
C1 C2 1_555 1_555
O4 N2 1_555 1_555
N2 O6 1_555 1_555
C2 C6 1_555 1_555
N3 C4 1_555 1_555
O5 C3 1_555 1_555
C3 C4 1_555 1_555
C4 C13 1_555 1_555
C5 N1 1_555 1_555
H1 C5 1_555 1_555
O7 C7 1_555 1_555
O8 H2 1_555 1_555
C6 C7 1_555 1_555
C7 O8 1_555 1_555
C8 C6 1_555 1_555
H3 C8 1_555 1_555
C9 C5 1_555 1_555
H4 C9 1_555 1_555
O9 C3 1_555 1_555
C10 H5 1_555 1_555
C11 N3 1_555 1_555
H6 C11 1_555 1_555
C12 C13 1_555 1_555
C13 C14 1_555 1_555
C14 C10 1_555 1_555
H7 C14 1_555 1_555
O10 C12 1_555 1_555
O11 C12 1_555 1_555
Bi1 O1 1_555 1_555
N4 H8 1_555 1_555
H9 N4 1_555 1_555
C15 H10 1_555 1_555
N5 H11 1_555 1_555
C16 N4 1_555 1_555
C17 C15 1_555 1_555
C18 N5 1_555 1_555
H12 C18 1_555 1_555
C19 C17 1_555 1_555
H13 C19 1_555 1_555
C20 C17 1_555 1_555
H14 C20 1_555 1_555
H15 C20 1_555 1_555
H16 C20 1_555 1_555
O12 H17 1_555 1_555
H18 O12 1_555 1_555
O13 H19 1_555 1_555
H20 O13 1_555 1_555
O10A Bi1 1_555 1_555
O11A Bi1 1_555 1_555
Bi1A O10 1_555 1_555
N1 Bi1 1_555 1_555
O2 Bi1 1_555 1_555
O4 Bi1 1_555 1_555
N3 Bi1 1_555 1_555
C8 C9 1_555 1_555
O9 Bi1 1_555 1_555
C10 C11 1_555 1_555
O11 Bi1A 1_555 1_555
C15 C16 1_555 1_555
N5 C16 1_555 1_555
C18 C19 1_555 1_555

#END
