
#######################################################################
#
#                 Cambridge Crystallographic Data Centre
#                                CCDC 
#
#######################################################################
#
# If this CIF has been generated from an entry in the Cambridge 
# Structural Database, then it will include bibliographic, chemical, 
# crystal, experimental, refinement or atomic coordinate data resulting 
# from the CCDC's data processing and validation procedures.
#
#######################################################################

data_FIRROP
_symmetry_cell_setting           monoclinic
_symmetry_space_group_name_H-M   'C 2/c'
_symmetry_Int_Tables_number      15
_space_group_name_Hall           '-C 2yn'
loop_
_symmetry_equiv_pos_site_id
_symmetry_equiv_pos_as_xyz
1 x,y,z
2 -x,y,1/2-z
3 1/2+x,1/2+y,z
4 1/2-x,1/2+y,1/2-z
5 -x,-y,-z
6 x,-y,1/2+z
7 1/2-x,1/2-y,-z
8 1/2+x,1/2-y,1/2+z
_cell_length_a                   19.222(9)
_cell_length_b                   16.433(8)
_cell_length_c                   13.168(6)
_cell_angle_alpha                90
_cell_angle_beta                 96.429(5)
_cell_angle_gamma                90
_cell_volume                     4133.29
loop_
_atom_site_label
_atom_site_type_symbol
_atom_site_fract_x
_atom_site_fract_y
_atom_site_fract_z
Cd1 Cd 0.641951(9) 0.057035(12) 0.043444(13)
S1 S 0.57647(6) -0.32896(6) 0.16657(8)
O1 O 0.58773(11) -0.06800(12) 0.04967(15)
O2 O 0.66897(11) -0.05894(13) 0.18048(16)
O3 O 0.52799(10) 0.10125(13) 0.08490(15)
H1 H 0.5179 0.0724 0.1348
H2 H 0.4967 0.0965 0.0342
O4 O 0.64898(13) -0.18542(15) 0.44919(16)
O5 O 0.59979(10) -0.07900(12) 0.37046(14)
N1 N 0.67826(12) 0.13352(15) 0.18589(16)
N2 N 0.75713(12) 0.03038(17) 0.00803(19)
C1 C 0.61879(14) -0.09498(17) 0.1331(2)
C2 C 0.59763(14) -0.17560(18) 0.1715(2)
C3 C 0.60533(14) -0.20245(18) 0.2762(2)
C4 C 0.59544(19) -0.2839(2) 0.2833(3)
H3 H 0.5986 -0.3121 0.3449
C5 C 0.58059(17) -0.2379(2) 0.1056(2)
H4 H 0.5721 -0.2316 0.0351
C6 C 0.61912(14) -0.15258(19) 0.3702(2)
C7 C 0.66069(17) 0.1092(2) 0.2763(2)
H5 H 0.6374 0.0599 0.2800
C8 C 0.67540(18) 0.1537(2) 0.3640(2)
H6 H 0.6616 0.1347 0.4251
C9 C 0.71065(15) 0.22676(19) 0.3620(2)
C10 C 0.72775(16) 0.25253(19) 0.2684(2)
H7 H 0.7503 0.3021 0.2628
C11 C 0.71124(15) 0.2044(2) 0.1827(2)
H8 H 0.7238 0.2225 0.1203
C12 C 0.73058(18) 0.2750(2) 0.4579(2)
H9 H 0.6885 0.2970 0.4818
H10 H 0.7598 0.3204 0.4422
C13 C 0.80452(15) 0.0056(2) 0.0830(2)
H11 H 0.7895 -0.0093 0.1451
C14 C 0.87572(16) 0.0009(2) 0.0726(3)
H12 H 0.9070 -0.0172 0.1269
C15 C 0.89976(15) 0.0232(2) -0.0181(2)
C16 C 0.84985(17) 0.0461(2) -0.0963(3)
H13 H 0.8632 0.0595 -0.1599
C17 C 0.78043(17) 0.0490(2) -0.0807(3)
H14 H 0.7480 0.0648 -0.1348
C18 C 0.97627(16) 0.0244(2) -0.0350(3)
H15 H 0.9801 0.0058 -0.1041
H16 H 0.9923 0.0804 -0.0307
N1F N 0.82174(12) 0.36648(15) 0.81411(16)
C7F C 0.83931(17) 0.3908(2) 0.7237(2)
H5F H 0.8626 0.4401 0.7200
C8F C 0.82460(18) 0.3463(2) 0.6360(2)
H6F H 0.8384 0.3653 0.5749
C9F C 0.78935(15) 0.27324(19) 0.6380(2)
C10F C 0.77225(16) 0.24747(19) 0.7316(2)
H7F H 0.7497 0.1979 0.7372
C11F C 0.78876(15) 0.2956(2) 0.8173(2)
H8F H 0.7762 0.2775 0.8797
C12F C 0.76942(18) 0.2250(2) 0.5421(2)
H9F H 0.8115 0.2030 0.5182
H10F H 0.7402 0.1796 0.5578
N2D N 1.24287(12) -0.03038(17) -0.00803(19)
C13D C 1.19548(15) -0.0056(2) -0.0830(2)
H11D H 1.2105 0.0093 -0.1451
C14D C 1.12428(16) -0.0009(2) -0.0726(3)
H12D H 1.0930 0.0172 -0.1269
C15D C 1.10024(15) -0.0232(2) 0.0181(2)
C16D C 1.15015(17) -0.0461(2) 0.0963(3)
H13D H 1.1368 -0.0595 0.1599
C17D C 1.21957(17) -0.0490(2) 0.0807(3)
H14D H 1.2520 -0.0648 0.1348
C18D C 1.02373(16) -0.0244(2) 0.0350(3)
H15D H 1.0199 -0.0058 0.1041
H16D H 1.0077 -0.0804 0.0307
Cd1D Cd 1.358049(9) -0.057035(12) -0.043444(13)
S1D S 1.42353(6) 0.32896(6) -0.16657(8)
O1D O 1.41227(11) 0.06800(12) -0.04967(15)
O2D O 1.33103(11) 0.05894(13) -0.18048(16)
O3D O 1.47201(10) -0.10125(13) -0.08490(15)
H1D H 1.4821 -0.0724 -0.1348
H2D H 1.5033 -0.0965 -0.0342
O4D O 1.35102(13) 0.18542(15) -0.44919(16)
O5D O 1.40021(10) 0.07900(12) -0.37046(14)
C1D C 1.38121(14) 0.09498(17) -0.1331(2)
C2D C 1.40237(14) 0.17560(18) -0.1715(2)
C3D C 1.39467(14) 0.20245(18) -0.2762(2)
C4D C 1.40456(19) 0.2839(2) -0.2833(3)
H3D H 1.4014 0.3121 -0.3449
C5D C 1.41941(17) 0.2379(2) -0.1056(2)
H4D H 1.4279 0.2316 -0.0351
C6D C 1.38088(14) 0.15258(19) -0.3702(2)
Cd1A Cd 1.358049(9) 0.057035(12) -0.543444(13)
Cd1E Cd 0.641951(9) -0.057035(12) 0.543444(13)
Cd1F Cd 0.858049(9) 0.442965(12) 0.956556(13)
O4A O 1.35102(13) -0.18542(15) 0.05081(16)
O4E O 0.64898(13) 0.18542(15) -0.05081(16)
O5A O 1.40021(10) -0.07900(12) 0.12954(14)
O5E O 0.59979(10) 0.07900(12) -0.12954(14)
N1D N 1.32174(12) -0.13352(15) -0.18589(16)
O6 O 0.5000 0.3717(4) 0.2500
H17 H 0.5142 0.3423 0.2034
H17A H 0.4858 0.3423 0.2966
O7 O 0.54800(18) 0.27237(18) 0.0917(3)
H18 H 0.5114 0.2445 0.0740
H19 H 0.5807 0.2394 0.1120
O8 O 0.5000 1.00412(17) 0.2500
H20 H 0.4599 0.9961 0.2173
H20A H 0.5401 0.9961 0.2827
loop_
_geom_bond_atom_site_label_1
_geom_bond_atom_site_label_2
_geom_bond_site_symmetry_1
_geom_bond_site_symmetry_2
Cd1 O1 1_555 1_555
S1 C4 1_555 1_555
O1 C1 1_555 1_555
O2 Cd1 1_555 1_555
O3 Cd1 1_555 1_555
H1 O3 1_555 1_555
H2 O3 1_555 1_555
O4 C6 1_555 1_555
O5 C6 1_555 1_555
N1 Cd1 1_555 1_555
N2 Cd1 1_555 1_555
C1 O2 1_555 1_555
C2 C1 1_555 1_555
C3 C2 1_555 1_555
C4 C3 1_555 1_555
H3 C4 1_555 1_555
C5 S1 1_555 1_555
H4 C5 1_555 1_555
C6 C3 1_555 1_555
C7 N1 1_555 1_555
H5 C7 1_555 1_555
C8 C7 1_555 1_555
H6 C8 1_555 1_555
C9 C8 1_555 1_555
C10 C9 1_555 1_555
H7 C10 1_555 1_555
C11 N1 1_555 1_555
H8 C11 1_555 1_555
C12 C9 1_555 1_555
H9 C12 1_555 1_555
H10 C12 1_555 1_555
C13 N2 1_555 1_555
H11 C13 1_555 1_555
C14 C13 1_555 1_555
H12 C14 1_555 1_555
C15 C14 1_555 1_555
C16 C15 1_555 1_555
H13 C16 1_555 1_555
C17 N2 1_555 1_555
H14 C17 1_555 1_555
C18 C15 1_555 1_555
H15 C18 1_555 1_555
H16 C18 1_555 1_555
O6 H17 1_555 1_555
O7 H18 1_555 1_555
H19 O7 1_555 1_555
O8 H20 1_555 1_555
N1F C7F 1_555 1_555
C7F H5F 1_555 1_555
C8F C7F 1_555 1_555
H6F C8F 1_555 1_555
C9F C8F 1_555 1_555
C10F C9F 1_555 1_555
H7F C10F 1_555 1_555
C11F N1F 1_555 1_555
H8F C11F 1_555 1_555
C12F C12 1_555 1_555
H9F C12F 1_555 1_555
H10F C12F 1_555 1_555
N2D C13D 1_555 1_555
C13D H11D 1_555 1_555
C14D C13D 1_555 1_555
H12D C14D 1_555 1_555
C15D C14D 1_555 1_555
C16D C15D 1_555 1_555
H13D C16D 1_555 1_555
C17D N2D 1_555 1_555
H14D C17D 1_555 1_555
C18D C18 1_555 1_555
H15D C18D 1_555 1_555
H16D C18D 1_555 1_555
Cd1D N2D 1_555 1_555
S1D C4D 1_555 1_555
O1D Cd1D 1_555 1_555
O2D Cd1D 1_555 1_555
O3D Cd1D 1_555 1_555
H1D O3D 1_555 1_555
H2D O3D 1_555 1_555
O4D C6D 1_555 1_555
O5D C6D 1_555 1_555
C1D O1D 1_555 1_555
C2D C1D 1_555 1_555
C3D C2D 1_555 1_555
C4D C3D 1_555 1_555
H3D C4D 1_555 1_555
C5D S1D 1_555 1_555
H4D C5D 1_555 1_555
C6D C3D 1_555 1_555
Cd1A O4D 1_555 1_555
Cd1E O4 1_555 1_555
Cd1F N1F 1_555 1_555
O4A Cd1D 1_555 1_555
O4E Cd1 1_555 1_555
O5A Cd1D 1_555 1_555
O5E Cd1 1_555 1_555
N1D Cd1D 1_555 1_555
H17A O6 1_555 1_555
H20A O8 1_555 1_555
O5 Cd1E 1_555 1_555
C2 C5 1_555 1_555
C10 C11 1_555 1_555
C16 C17 1_555 1_555
C9F C12F 1_555 1_555
C10F C11F 1_555 1_555
C15D C18D 1_555 1_555
C16D C17D 1_555 1_555
O2D C1D 1_555 1_555
O5D Cd1A 1_555 1_555
C2D C5D 1_555 1_555

#END
