
#######################################################################
#
#                 Cambridge Crystallographic Data Centre
#                                CCDC 
#
#######################################################################
#
# If this CIF has been generated from an entry in the Cambridge 
# Structural Database, then it will include bibliographic, chemical, 
# crystal, experimental, refinement or atomic coordinate data resulting 
# from the CCDC's data processing and validation procedures.
#
#######################################################################

data_FIRTEH
_symmetry_cell_setting           trigonal
_symmetry_space_group_name_H-M   'P -3 m 1'
_symmetry_Int_Tables_number      164
_space_group_name_Hall           '-P 3 2"'
loop_
_symmetry_equiv_pos_site_id
_symmetry_equiv_pos_as_xyz
1 x,y,z
2 -y,x-y,z
3 -x+y,-x,z
4 x-y,-y,-z
5 -x,-x+y,-z
6 y,x,-z
7 -x,-y,-z
8 y,-x+y,-z
9 x-y,x,-z
10 -x+y,y,z
11 x,x-y,z
12 -y,-x,z
_cell_length_a                   18.550(3)
_cell_length_b                   18.550(3)
_cell_length_c                   6.7262(8)
_cell_angle_alpha                90
_cell_angle_beta                 90
_cell_angle_gamma                120
_cell_volume                     2004.42
loop_
_atom_site_label
_atom_site_type_symbol
_atom_site_fract_x
_atom_site_fract_y
_atom_site_fract_z
Cu1 Cu 0.523614(13) 1.04723(3) 0.65541(6)
O1 O 0.56126(9) 1.12252(18) 0.9162(5)
O2 O 0.41133(14) 0.96997(16) 0.7540(4)
O3 O 0.37151(17) 0.89110(16) 0.4878(4)
N1 N 0.16456(12) 0.83544(12) 1.2235(6)
N2 N 0.2080(4) 0.9067(4) 1.2864(8)
N3 N 0.2415(4) 0.9694(4) 1.3648(10)
C1 C 0.27707(18) 0.85282(16) 0.7530(5)
C2 C 0.25957(18) 0.87175(17) 0.9403(4)
C3 C 0.18355(13) 0.81645(13) 1.0322(7)
C4 C 0.22103(11) 0.77897(11) 0.6567(6)
C5 C 0.35982(17) 0.90924(16) 0.6558(4)
H1 H 0.2986 0.9216 1.0056
H2 H 0.2330 0.7670 0.5274
O2K O 0.03003(16) 0.58867(14) 0.7540(4)
O3K O 0.10890(16) 0.62849(17) 0.4878(4)
N2K N 0.0933(4) 0.7920(4) 1.2864(8)
N3K N 0.0306(4) 0.7585(4) 1.3648(10)
C1K C 0.14718(16) 0.72293(18) 0.7530(5)
C2K C 0.12825(17) 0.74043(18) 0.9403(4)
C5K C 0.09076(16) 0.64018(17) 0.6558(4)
H1K H 0.0784 0.7014 1.0056
Cu1A Cu -0.04723(3) 0.476384(33) 0.65541(6)
Cu1F Cu 0.476386(13) 0.95277(3) 0.34459(6)
Cu1G Cu 0.04723(3) 0.523616(33) 0.34459(6)
O2I O 0.55864(21) 0.96997(16) 0.7540(4)
O3F O 0.62849(17) 1.10890(16) 0.5122(4)
O3C O 0.48041(23) 1.10890(16) 0.5122(4)
loop_
_geom_bond_atom_site_label_1
_geom_bond_atom_site_label_2
_geom_bond_site_symmetry_1
_geom_bond_site_symmetry_2
Cu1 O1 1_555 1_555
O2 Cu1 1_555 1_555
O3 C5 1_555 1_555
N1 N2 1_555 1_555
N2 N3 1_555 1_555
C1 C2 1_555 1_555
C2 C3 1_555 1_555
C3 N1 1_555 1_555
C4 C1 1_555 1_555
C5 O2 1_555 1_555
H1 C2 1_555 1_555
H2 C4 1_555 1_555
O2K C5K 1_555 1_555
O3K C5K 1_555 1_555
N2K N1 1_555 1_555
N3K N2K 1_555 1_555
C1K C4 1_555 1_555
C2K C3 1_555 1_555
C5K C1K 1_555 1_555
H1K C2K 1_555 1_555
Cu1A O2K 1_555 1_555
Cu1F Cu1 1_555 1_555
Cu1G O3K 1_555 1_555
O2I Cu1 1_555 1_555
O3F Cu1 1_555 1_555
O3C Cu1 1_555 1_555
O3 Cu1F 1_555 1_555
C1 C5 1_555 1_555
C1K C2K 1_555 1_555
Cu1A Cu1G 1_555 1_555

#END
