
#######################################################################
#
#                 Cambridge Crystallographic Data Centre
#                                CCDC 
#
#######################################################################
#
# If this CIF has been generated from an entry in the Cambridge 
# Structural Database, then it will include bibliographic, chemical, 
# crystal, experimental, refinement or atomic coordinate data resulting 
# from the CCDC's data processing and validation procedures.
#
#######################################################################

data_FIRVOT
_symmetry_cell_setting           orthorhombic
_symmetry_space_group_name_H-M   'A b a 2'
_symmetry_Int_Tables_number      41
_space_group_name_Hall           'A 2 -2ab'
loop_
_symmetry_equiv_pos_site_id
_symmetry_equiv_pos_as_xyz
1 x,y,z
2 -x,-y,z
3 1/2+x,1/2-y,z
4 1/2-x,1/2+y,z
5 x,1/2+y,1/2+z
6 -x,1/2-y,1/2+z
7 1/2+x,-y,1/2+z
8 1/2-x,y,1/2+z
_cell_length_a                   23.109(3)
_cell_length_b                   20.296(2)
_cell_length_c                   7.183(1)
_cell_angle_alpha                90
_cell_angle_beta                 90
_cell_angle_gamma                90
_cell_volume                     3368.97
loop_
_atom_site_label
_atom_site_type_symbol
_atom_site_fract_x
_atom_site_fract_y
_atom_site_fract_z
Cu1 Cu 0.51888(3) 0.81999(4) 0.16821(12)
Br1 Br 0.32174(4) 0.87786(6) 0.3171(2)
Cl1 Cl 0.31106(10) 1.02273(10) -0.3341(5)
Cl2 Cl 0.51094(7) 0.79394(9) 0.4764(2)
O1 O 0.4410(2) 0.8523(2) 0.1768(9)
O2 O 0.7143(2) 0.7808(4) 0.3620(9)
N1 N 0.5336(2) 0.8664(3) -0.0659(8)
N2 N 0.6072(2) 0.7996(2) 0.1532(8)
C1 C 0.4382(3) 0.9143(3) -0.1068(11)
C2 C 0.4145(3) 0.8898(3) 0.0584(11)
C3 C 0.3563(3) 0.9089(4) 0.0950(11)
C4 C 0.3248(3) 0.9479(4) -0.0217(16)
H1 H 0.2867 0.9588 0.0062
C5 C 0.3510(3) 0.9708(4) -0.1832(16)
C6 C 0.4060(3) 0.9551(3) -0.2288(11)
H2 H 0.4225 0.9709 -0.3382
C7 C 0.4976(3) 0.9001(4) -0.1647(12)
H3 H 0.5100 0.9163 -0.2790
C8 C 0.5922(3) 0.8579(4) -0.1370(10)
H4 H 0.6150 0.8969 -0.1107
H5 H 0.5911 0.8517 -0.2709
C9 C 0.6194(3) 0.7993(3) -0.0471(10)
H6 H 0.6042 0.7593 -0.1025
H7 H 0.6609 0.8002 -0.0673
C10 C 0.6365(3) 0.8533(4) 0.2551(10)
H8 H 0.6199 0.8572 0.3786
H9 H 0.6302 0.8946 0.1904
C11 C 0.7030(3) 0.8402(5) 0.2719(12)
H10 H 0.7199 0.8392 0.1485
H11 H 0.7208 0.8759 0.3407
C12 C 0.6899(3) 0.7289(5) 0.2555(14)
H12 H 0.6988 0.6871 0.3141
H13 H 0.7070 0.7289 0.1322
C13 C 0.6241(3) 0.7364(4) 0.2384(12)
H14 H 0.6090 0.7005 0.1634
H15 H 0.6069 0.7331 0.3612
Cu1E Cu 0.48112(3) 0.68001(4) 0.66821(12)
Cl2E Cl 0.48906(7) 0.70606(9) -0.0236(2)
O3 O 0.5000 1.0000 0.277(3)
H16 H 0.4971 0.9811 0.3819
H17 H 0.5019 0.9771 0.1779
loop_
_geom_bond_atom_site_label_1
_geom_bond_atom_site_label_2
_geom_bond_site_symmetry_1
_geom_bond_site_symmetry_2
Cu1 Cl2 1_555 1_555
Br1 C3 1_555 1_555
Cl1 C5 1_555 1_555
Cl2 Cu1E 1_555 1_555
O1 Cu1 1_555 1_555
O2 C11 1_555 1_555
N1 Cu1 1_555 1_555
N2 Cu1 1_555 1_555
C1 C2 1_555 1_555
C2 O1 1_555 1_555
C3 C2 1_555 1_555
C4 C3 1_555 1_555
H1 C4 1_555 1_555
C5 C4 1_555 1_555
C6 C1 1_555 1_555
H2 C6 1_555 1_555
C7 N1 1_555 1_555
H3 C7 1_555 1_555
C8 N1 1_555 1_555
H4 C8 1_555 1_555
H5 C8 1_555 1_555
C9 N2 1_555 1_555
H6 C9 1_555 1_555
H7 C9 1_555 1_555
C10 N2 1_555 1_555
H8 C10 1_555 1_555
H9 C10 1_555 1_555
C11 C10 1_555 1_555
H10 C11 1_555 1_555
H11 C11 1_555 1_555
C12 O2 1_555 1_555
H12 C12 1_555 1_555
H13 C12 1_555 1_555
C13 N2 1_555 1_555
H14 C13 1_555 1_555
H15 C13 1_555 1_555
O3 H16 1_555 1_555
H17 O3 1_555 1_555
Cl2E Cu1 1_555 1_555
C1 C7 1_555 1_555
C5 C6 1_555 1_555
C8 C9 1_555 1_555
C12 C13 1_555 1_555

#END
