
#######################################################################
#
#                 Cambridge Crystallographic Data Centre
#                                CCDC 
#
#######################################################################
#
# If this CIF has been generated from an entry in the Cambridge 
# Structural Database, then it will include bibliographic, chemical, 
# crystal, experimental, refinement or atomic coordinate data resulting 
# from the CCDC's data processing and validation procedures.
#
#######################################################################

data_FIRXIP
_symmetry_cell_setting           monoclinic
_symmetry_space_group_name_H-M   'P 21'
_symmetry_Int_Tables_number      4
_space_group_name_Hall           'P 2yb'
loop_
_symmetry_equiv_pos_site_id
_symmetry_equiv_pos_as_xyz
1 x,y,z
2 -x,1/2+y,-z
_cell_length_a                   6.0980(4)
_cell_length_b                   12.2997(9)
_cell_length_c                   7.3818(4)
_cell_angle_alpha                90
_cell_angle_beta                 111.901(4)
_cell_angle_gamma                90
_cell_volume                     513.703
loop_
_atom_site_label
_atom_site_type_symbol
_atom_site_fract_x
_atom_site_fract_y
_atom_site_fract_z
Cd1 Cd 0.45902(4) 0.75096(10) 0.00151(3)
O1 O 0.3982(6) 0.9048(3) 0.1631(4)
O2 O 0.5200(6) 0.9945(3) 0.4453(5)
O3 O 0.5952(5) 0.7217(2) 0.3402(4)
H1 H 0.7197 0.6869 0.4068
O4 O 0.4739(6) 0.6928(2) 0.7008(4)
H2 H 0.4879 0.6276 0.6681
O5 O 0.2472(6) 0.8684(3) 0.7516(5)
O6 O 0.0551(5) 0.8902(3) 0.4327(4)
O7 O 0.8291(6) 0.8250(3) 0.0579(5)
H3 H 0.8288 0.8780 -0.0096
H4 H 0.9187 0.8389 0.1697
O8 O 0.0993(6) 0.6710(2) -0.0343(5)
H5 H 0.0174 0.7136 -0.0018
H6 H 0.1123 0.6156 0.0308
O9 O 0.6072(7) 0.5770(3) 0.0590(5)
H7 H 0.6512 0.5448 0.1638
H8 H 0.6068 0.5328 -0.0243
C1 C 0.4830(7) 0.9091(4) 0.3467(6)
C2 C 0.5485(7) 0.8024(4) 0.4591(6)
H9 H 0.6969 0.8145 0.5755
C3 C 0.3577(6) 0.7577(5) 0.5321(5)
H10 H 0.2500 0.7092 0.4281
C4 C 0.2081(8) 0.8445(4) 0.5752(6)
Cd1_2 Cd 0.45902(4) 0.75096(10) 1.00151(3)
O4_2 O 0.4739(6) 0.6928(2) -0.2992(4)
O5_2 O 0.2472(6) 0.8684(3) -0.2484(5)
O10 O -0.1378(6) 0.9862(3) 0.8122(5)
H11 H -0.2543 0.9983 0.7134
H12 H -0.0370 0.9593 0.7773
O11 O 0.0406(6) 1.1136(2) 0.4348(5)
H13 H 0.0083 1.1284 0.3193
H14 H 0.0399 1.0472 0.4435
loop_
_geom_bond_atom_site_label_1
_geom_bond_atom_site_label_2
_geom_bond_site_symmetry_1
_geom_bond_site_symmetry_2
Cd1 O1 1_555 1_555
O1 C1 1_555 1_555
O2 C1 1_555 1_555
O3 Cd1 1_555 1_555
H1 O3 1_555 1_555
O4 H2 1_555 1_555
O5 C4 1_555 1_555
O6 C4 1_555 1_555
O7 Cd1 1_555 1_555
H3 O7 1_555 1_555
H4 O7 1_555 1_555
O8 Cd1 1_555 1_555
H5 O8 1_555 1_555
H6 O8 1_555 1_555
O9 Cd1 1_555 1_555
H7 O9 1_555 1_555
H8 O9 1_555 1_555
C1 C2 1_555 1_555
C2 O3 1_555 1_555
H9 C2 1_555 1_555
C3 O4 1_555 1_555
H10 C3 1_555 1_555
C4 C3 1_555 1_555
O10 H11 1_555 1_555
H12 O10 1_555 1_555
O11 H13 1_555 1_555
H14 O11 1_555 1_555
Cd1_2 O4 1_555 1_555
O4_2 Cd1 1_555 1_555
O5_2 Cd1 1_555 1_555
O5 Cd1_2 1_555 1_555
C2 C3 1_555 1_555

#END
