
#######################################################################
#
#                 Cambridge Crystallographic Data Centre
#                                CCDC 
#
#######################################################################
#
# If this CIF has been generated from an entry in the Cambridge 
# Structural Database, then it will include bibliographic, chemical, 
# crystal, experimental, refinement or atomic coordinate data resulting 
# from the CCDC's data processing and validation procedures.
#
#######################################################################

data_FIRZAJ
_symmetry_cell_setting           monoclinic
_symmetry_space_group_name_H-M   'P 21'
_symmetry_Int_Tables_number      4
_space_group_name_Hall           'P 2yb'
loop_
_symmetry_equiv_pos_site_id
_symmetry_equiv_pos_as_xyz
1 x,y,z
2 -x,1/2+y,-z
_cell_length_a                   7.5739(5)
_cell_length_b                   11.1588(7)
_cell_length_c                   8.9904(6)
_cell_angle_alpha                90
_cell_angle_beta                 99.597(2)
_cell_angle_gamma                90
_cell_volume                     749.195
loop_
_atom_site_label
_atom_site_type_symbol
_atom_site_fract_x
_atom_site_fract_y
_atom_site_fract_z
C1 C 0.3731(6) 0.8554(4) 0.0081(5)
C2 C 0.1868(5) 0.8018(4) 0.0071(4)
H1 H 0.1076 0.8284 -0.0844
C3 C 0.1961(5) 0.6641(4) 0.0062(4)
H2 H 0.2593 0.6380 -0.0748
C4 C 0.0082(5) 0.6116(3) -0.0206(4)
C5 C 0.1454(6) 0.9127(4) 0.5439(4)
C6 C 0.3018(5) 0.8246(4) 0.5467(4)
H3 H 0.3882 0.8394 0.6388
C7 C 0.2370(6) 0.6962(4) 0.5510(5)
H4 H 0.1827 0.6861 0.6419
C8 C 0.3864(6) 0.6051(4) 0.5560(4)
O1 O 0.4269(4) 0.9364(3) 0.1044(3)
O2 O 0.4563(5) 0.8176(4) -0.0881(4)
O3 O 0.1165(4) 0.8433(3) 0.1348(4)
H5 H 0.003(3) 0.848(5) 0.127(5)
O4 O 0.2888(4) 0.6215(3) 0.1458(3)
H6 H 0.402(3) 0.631(5) 0.164(5)
O5 O -0.0446(4) 0.5594(3) 0.0862(3)
O6 O -0.0831(4) 0.6260(3) -0.1503(3)
O7 O 0.1181(5) 0.9881(4) 0.4398(4)
O8 O 0.0571(4) 0.9024(3) 0.6487(3)
O9 O 0.3891(4) 0.8441(3) 0.4218(4)
H7 H 0.498(3) 0.872(4) 0.456(5)
O10 O 0.1015(4) 0.6743(4) 0.4218(5)
H8 H -0.003(3) 0.677(5) 0.449(6)
O11 O 0.3610(4) 0.5171(3) 0.4689(3)
O12 O 0.5256(4) 0.6217(3) 0.6512(4)
O13 O 0.2436(5) 0.3539(3) 0.1922(5)
H9 H 0.344(5) 0.345(6) 0.161(8)
H10 H 0.201(8) 0.284(3) 0.203(8)
Mn1 Mn 0.27030(7) 0.99683(5) 0.26195(6)
Mn2 Mn 0.14392(7) 0.51007(5) 0.28578(6)
O6A O 0.0831(4) 1.1260(3) 0.1503(3)
O8A O -0.0571(4) 0.4024(3) 0.3513(3)
O12A O 0.4744(4) 1.1217(3) 0.3488(4)
Mn1A Mn -0.27030(7) 0.49683(5) -0.26195(6)
Mn1A_2 Mn 0.72970(7) 0.49683(5) 0.73805(6)
Mn2A Mn -0.14392(7) 1.01007(5) 0.71422(6)
O14 O 0.6333(6) 0.6188(7) 0.1946(7)
H11 H 0.687(13) 0.674(8) 0.257(11)
H12 H 0.710(11) 0.594(11) 0.137(11)
O15 O -0.2143(6) 0.8960(7) 0.2014(8)
H13 H -0.153(12) 0.958(7) 0.245(13)
H14 H -0.326(5) 0.919(9) 0.173(13)
O16 O -0.2335(11) 0.7475(9) 0.4396(10)
loop_
_geom_bond_atom_site_label_1
_geom_bond_atom_site_label_2
_geom_bond_site_symmetry_1
_geom_bond_site_symmetry_2
C1 C2 1_555 1_555
C2 H1 1_555 1_555
C3 C2 1_555 1_555
H2 C3 1_555 1_555
C4 C3 1_555 1_555
C5 C6 1_555 1_555
C6 H3 1_555 1_555
C7 C6 1_555 1_555
H4 C7 1_555 1_555
C8 C7 1_555 1_555
O1 C1 1_555 1_555
O2 C1 1_555 1_555
O3 C2 1_555 1_555
H5 O3 1_555 1_555
O4 C3 1_555 1_555
H6 O4 1_555 1_555
O5 C4 1_555 1_555
O6 C4 1_555 1_555
O7 C5 1_555 1_555
O8 C5 1_555 1_555
O9 C6 1_555 1_555
H7 O9 1_555 1_555
O10 C7 1_555 1_555
H8 O10 1_555 1_555
O11 C8 1_555 1_555
O12 C8 1_555 1_555
O13 H9 1_555 1_555
H10 O13 1_555 1_555
Mn1 O1 1_555 1_555
Mn2 O4 1_555 1_555
O14 H11 1_555 1_555
H12 O14 1_555 1_555
O15 H13 1_555 1_555
H14 O15 1_555 1_555
O6A Mn1 1_555 1_555
O8A Mn2 1_555 1_555
O12A Mn1 1_555 1_555
Mn1A O6 1_555 1_555
Mn1A_2 O12 1_555 1_555
Mn2A O8 1_555 1_555
O3 Mn1 1_555 1_555
O5 Mn2 1_555 1_555
O7 Mn1 1_555 1_555
O9 Mn1 1_555 1_555
O10 Mn2 1_555 1_555
O11 Mn2 1_555 1_555
O13 Mn2 1_555 1_555

#END
