
#######################################################################
#
#                 Cambridge Crystallographic Data Centre
#                                CCDC 
#
#######################################################################
#
# If this CIF has been generated from an entry in the Cambridge 
# Structural Database, then it will include bibliographic, chemical, 
# crystal, experimental, refinement or atomic coordinate data resulting 
# from the CCDC's data processing and validation procedures.
#
#######################################################################

data_FIRZIP
_symmetry_cell_setting           monoclinic
_symmetry_space_group_name_H-M   'P 21'
_symmetry_Int_Tables_number      4
_space_group_name_Hall           'P 2yb'
loop_
_symmetry_equiv_pos_site_id
_symmetry_equiv_pos_as_xyz
1 x,y,z
2 -x,1/2+y,-z
_cell_length_a                   12.710(4)
_cell_length_b                   13.760(2)
_cell_length_c                   12.699(6)
_cell_angle_alpha                90
_cell_angle_beta                 95.44(5)
_cell_angle_gamma                90
_cell_volume                     2210.92
loop_
_atom_site_label
_atom_site_type_symbol
_atom_site_fract_x
_atom_site_fract_y
_atom_site_fract_z
Zn1 Zn 0.06305(6) 0.00000 0.02860(6)
Zn2 Zn -0.13406(6) -0.16165(7) -0.03617(6)
C1 C 0.2843(6) -0.2431(7) -0.3283(6)
C2 C 0.3139(9) -0.3405(8) -0.3073(8)
C3 C 0.3548(11) -0.3927(9) -0.3835(13)
C4 C 0.3619(9) -0.3571(11) -0.4831(11)
C5 C 0.3339(8) -0.2608(12) -0.5053(7)
C6 C 0.2955(7) -0.2028(8) -0.4264(7)
S1 S 0.2405(2) -0.1725(2) -0.2229(2)
C7 C 0.1003(6) -0.1588(9) -0.2567(7)
C8 C 0.0520(11) -0.2490(13) -0.3097(13)
C9 C 0.0755(13) -0.0670(15) -0.3325(9)
C10 C 0.0513(6) -0.1326(6) -0.1560(6)
O1 O 0.1039(4) -0.0768(4) -0.0919(4)
O2 O -0.0377(4) -0.1659(5) -0.1454(4)
C11 C -0.3252(6) 0.0194(7) -0.2604(6)
C12 C -0.4338(7) 0.0127(9) -0.2601(7)
C13 C -0.4847(11) -0.0740(11) -0.2913(10)
C14 C -0.4345(13) -0.1515(13) -0.3189(10)
C15 C -0.3271(17) -0.1518(12) -0.3220(10)
C16 C -0.2653(10) -0.0590(10) -0.2903(8)
S2 S -0.2619(2) 0.1294(2) -0.2258(2)
C17 C -0.2389(6) 0.1292(6) -0.0807(6)
C18 C -0.3441(7) 0.1159(7) -0.0277(8)
C19 C -0.1849(8) 0.2255(7) -0.0539(9)
C20 C -0.1671(6) 0.0437(5) -0.0512(5)
O3 O -0.2095(4) -0.0384(4) -0.0418(4)
O4 O -0.0709(4) 0.0585(5) -0.0378(5)
C21 C -0.2450(7) -0.1333(8) 0.3021(8)
C22 C -0.3067(9) -0.1886(10) 0.3664(11)
C23 C -0.4050(13) -0.2206(13) 0.3247(19)
C24 C -0.4476(11) -0.1983(14) 0.2273(21)
C25 C -0.3879(11) -0.1413(15) 0.1629(14)
C26 C -0.2869(9) -0.1080(10) 0.2011(10)
S3 S -0.1194(2) -0.0918(2) 0.3524(2)
C27 C -0.0269(6) -0.1717(8) 0.2907(6)
C28 C -0.0571(8) -0.2799(8) 0.2955(8)
C29 C 0.0830(8) -0.1545(11) 0.3515(7)
C30 C -0.0239(6) -0.1351(6) 0.1763(6)
O5 O 0.0274(4) -0.0617(4) 0.1611(4)
O6 O -0.0767(4) -0.1851(4) 0.1075(4)
C31 C 0.2840(7) 0.0184(6) 0.2651(7)
C32 C 0.3677(8) -0.0161(10) 0.3371(9)
C33 C 0.3681(11) 0.0173(15) 0.4457(10)
C34 C 0.2925(13) 0.0732(10) 0.4772(10)
C35 C 0.2094(11) 0.1051(7) 0.4042(9)
C36 C 0.2032(9) 0.0759(7) 0.2995(8)
S4 S 0.2820(2) -0.0237(1) 0.1319(2)
C37 C 0.3178(5) 0.0875(6) 0.0617(6)
C38 C 0.4192(6) 0.1322(7) 0.1151(8)
C39 C 0.3360(7) 0.0541(7) -0.0537(8)
C40 C 0.2266(5) 0.1569(6) 0.0549(5)
O7 O 0.1325(3) 0.1278(4) 0.0387(4)
O8 O 0.2490(3) 0.2459(4) 0.0638(4)
O8A O -0.2490(3) -0.2541(4) -0.0638(4)
Zn2A Zn 0.13406(6) 0.33835(7) 0.03617(6)
loop_
_geom_bond_atom_site_label_1
_geom_bond_atom_site_label_2
_geom_bond_site_symmetry_1
_geom_bond_site_symmetry_2
Zn1 O1 1_555 1_555
Zn2 O2 1_555 1_555
C1 C2 1_555 1_555
C2 C3 1_555 1_555
C3 C4 1_555 1_555
C4 C5 1_555 1_555
C5 C6 1_555 1_555
C6 C1 1_555 1_555
S1 C1 1_555 1_555
C7 S1 1_555 1_555
C8 C7 1_555 1_555
C9 C7 1_555 1_555
C10 C7 1_555 1_555
O1 C10 1_555 1_555
O2 C10 1_555 1_555
C11 C12 1_555 1_555
C12 C13 1_555 1_555
C13 C14 1_555 1_555
C14 C15 1_555 1_555
C15 C16 1_555 1_555
C16 C11 1_555 1_555
S2 C11 1_555 1_555
C17 S2 1_555 1_555
C18 C17 1_555 1_555
C19 C17 1_555 1_555
C20 C17 1_555 1_555
O3 Zn2 1_555 1_555
O4 Zn1 1_555 1_555
C21 C22 1_555 1_555
C22 C23 1_555 1_555
C23 C24 1_555 1_555
C24 C25 1_555 1_555
C25 C26 1_555 1_555
C26 C21 1_555 1_555
S3 C21 1_555 1_555
C27 S3 1_555 1_555
C28 C27 1_555 1_555
C29 C27 1_555 1_555
C30 C27 1_555 1_555
O5 Zn1 1_555 1_555
O6 Zn2 1_555 1_555
C31 C32 1_555 1_555
C32 C33 1_555 1_555
C33 C34 1_555 1_555
C34 C35 1_555 1_555
C35 C36 1_555 1_555
C36 C31 1_555 1_555
S4 C31 1_555 1_555
C37 S4 1_555 1_555
C38 C37 1_555 1_555
C39 C37 1_555 1_555
C40 C37 1_555 1_555
O7 Zn1 1_555 1_555
O8 C40 1_555 1_555
O8A Zn2 1_555 1_555
Zn2A O8 1_555 1_555
C20 O3 1_555 1_555
C20 O4 1_555 1_555
C30 O5 1_555 1_555
C30 O6 1_555 1_555
C40 O7 1_555 1_555

#END
