
#######################################################################
#
#                 Cambridge Crystallographic Data Centre
#                                CCDC 
#
#######################################################################
#
# If this CIF has been generated from an entry in the Cambridge 
# Structural Database, then it will include bibliographic, chemical, 
# crystal, experimental, refinement or atomic coordinate data resulting 
# from the CCDC's data processing and validation procedures.
#
#######################################################################

data_FISCEQ
_symmetry_cell_setting           triclinic
_symmetry_space_group_name_H-M   'P -1'
_symmetry_Int_Tables_number      2
_space_group_name_Hall           '-P 1'
loop_
_symmetry_equiv_pos_site_id
_symmetry_equiv_pos_as_xyz
1 x,y,z
2 -x,-y,-z
_cell_length_a                   7.7965(10)
_cell_length_b                   8.7064(11)
_cell_length_c                   28.893(4)
_cell_angle_alpha                81.941(2)
_cell_angle_beta                 89.376(2)
_cell_angle_gamma                86.814(2)
_cell_volume                     1938.86
loop_
_atom_site_label
_atom_site_type_symbol
_atom_site_fract_x
_atom_site_fract_y
_atom_site_fract_z
Zn1 Zn 0.25164(5) 0.67040(5) 0.759669(12)
O1 O 0.1871(3) 0.9277(3) 0.57722(10)
O2 O -0.3666(4) 1.0676(3) 0.61069(10)
O3 O -0.0631(3) 0.5469(3) 0.43498(9)
O4 O -0.6157(3) 0.6708(3) 0.47355(9)
O5 O 0.4253(4) 0.7770(4) 0.98817(11)
O6 O -0.1033(4) 0.6383(4) 0.94933(11)
O15 O 0.4598(3) 0.8159(3) 0.73091(9)
O16 O 0.0257(3) 0.5505(3) 0.78689(9)
N1 N 0.0948(4) 0.8630(3) 0.74231(9)
N2 N -0.0759(4) 1.0259(3) 0.60015(10)
N3 N -0.3533(4) 0.5991(3) 0.44265(9)
N4 N -0.3149(3) 0.4870(3) 0.28397(9)
N5 N 0.3699(4) 0.6122(3) 0.82292(9)
N6 N 0.1800(4) 0.6775(4) 0.96391(10)
C1 C -0.0108(5) 0.9200(5) 0.77277(13)
H1 H -0.0080 0.8736 0.8038
C2 C -0.1240(7) 1.0448(6) 0.76021(17)
H2 H -0.1961 1.0822 0.7824
C3 C -0.1298(6) 1.1144(5) 0.71431(16)
H3 H -0.2065 1.1986 0.7052
C4 C -0.0213(5) 1.0581(4) 0.68234(12)
C5 C 0.0907(4) 0.9335(4) 0.69804(11)
H4 H 0.1674 0.8967 0.6767
C6 C -0.0184(6) 1.1294(4) 0.63188(13)
H5 H -0.0918 1.2240 0.6280
H6 H 0.0976 1.1574 0.6234
C7 C 0.0330(5) 0.9371(4) 0.57482(12)
C8 C -0.0819(4) 0.8610(4) 0.54499(11)
C9 C -0.0391(4) 0.7655(4) 0.51171(11)
H7 H 0.0740 0.7381 0.5045
C10 C -0.1787(4) 0.7141(3) 0.49001(10)
C11 C -0.3471(4) 0.7539(4) 0.50117(10)
C12 C -0.3903(4) 0.8496(4) 0.53427(11)
H8 H -0.5035 0.8768 0.5415
C13 C -0.2507(4) 0.9020(3) 0.55582(11)
C14 C -0.2479(5) 1.0074(4) 0.59160(12)
C15 C -0.1812(4) 0.6104(4) 0.45311(11)
C16 C -0.4627(4) 0.6753(4) 0.47190(11)
C17 C -0.4097(5) 0.4957(4) 0.41109(11)
H9 H -0.5320 0.4835 0.4154
H10 H -0.3515 0.3942 0.4192
C18 C -0.3750(4) 0.5536(4) 0.36035(11)
C19 C -0.3884(5) 0.7083(4) 0.34182(13)
H11 H -0.4126 0.7838 0.3611
C20 C -0.3657(5) 0.7506(4) 0.29438(13)
H12 H -0.3744 0.8548 0.2815
C21 C -0.3302(5) 0.6379(4) 0.26660(12)
H13 H -0.3162 0.6670 0.2346
C22 C -0.3382(4) 0.4475(4) 0.33005(10)
H14 H -0.3289 0.3427 0.3422
C23 C 0.5394(5) 0.5856(5) 0.82429(13)
H15 H 0.6003 0.5936 0.7963
C24 C 0.6283(5) 0.5466(6) 0.86539(15)
H16 H 0.7471 0.5300 0.8653
C25 C 0.5376(5) 0.5328(6) 0.90661(14)
H17 H 0.5955 0.5071 0.9348
C26 C 0.3626(5) 0.5565(4) 0.90647(11)
C27 C 0.2829(4) 0.5974(4) 0.86366(11)
H18 H 0.1642 0.6156 0.8630
C28 C 0.2575(5) 0.5332(5) 0.95077(12)
H19 H 0.1670 0.4641 0.9467
H20 H 0.3305 0.4830 0.9761
C29 C 0.2722(5) 0.7870(5) 0.98228(12)
C30 C 0.1432(4) 0.9111(5) 0.99301(11)
C31 C -0.0182(4) 0.8655(5) 0.98217(11)
C32 C 0.0037(5) 0.7162(5) 0.96312(12)
C33 C 0.1668(5) 1.0459(5) 1.01089(12)
H21 H 0.2751 1.0758 1.0179
Zn1A Zn -0.25164(5) 0.32960(5) 0.240331(12)
Zn1A_2 Zn -0.25164(5) 1.32960(5) 1.240331(12)
O1A O -0.1871(3) 0.0723(3) 0.42278(10)
O2A O 0.3666(4) -0.0676(3) 0.38931(10)
O3A O 0.0631(3) 0.4531(3) 0.56502(9)
O4A O 0.6157(3) 0.3292(3) 0.52645(9)
O5A O -0.4253(4) 1.2230(4) 1.01183(11)
O6A O 0.1033(4) 1.3617(4) 1.05067(11)
O15A O -0.4598(3) 0.1841(3) 0.26909(9)
O16A O -0.0257(3) 0.4495(3) 0.21311(9)
N1A N -0.0948(4) 0.1370(3) 0.25769(9)
N2A N 0.0759(4) -0.0259(3) 0.39985(10)
N3A N 0.3533(4) 0.4009(3) 0.55735(9)
N4A N 0.3149(3) 0.5130(3) 0.71603(9)
N5A N -0.3699(4) 1.3878(3) 1.17708(9)
N5A_2 N -0.3699(4) 0.3878(3) 0.17708(9)
N6A N -0.1800(4) 1.3225(4) 1.03609(10)
C1A C 0.0108(5) 0.0800(5) 0.22723(13)
H1A H 0.0080 0.1264 0.1962
C2A C 0.1240(7) -0.0448(6) 0.23979(17)
H2A H 0.1961 -0.0822 0.2176
C3A C 0.1298(6) -0.1144(5) 0.28569(16)
H3A H 0.2065 -0.1986 0.2948
C4A C 0.0213(5) -0.0581(4) 0.31766(12)
C5A C -0.0907(4) 0.0665(4) 0.30196(11)
H4A H -0.1674 0.1033 0.3233
C6A C 0.0184(6) -0.1294(4) 0.36812(13)
H5A H 0.0918 -0.2240 0.3720
H6A H -0.0976 -0.1574 0.3766
C7A C -0.0330(5) 0.0629(4) 0.42518(12)
C8A C 0.0819(4) 0.1390(4) 0.45501(11)
C9A C 0.0391(4) 0.2345(4) 0.48829(11)
H7A H -0.0740 0.2619 0.4955
C10A C 0.1787(4) 0.2859(3) 0.50999(10)
C11A C 0.3471(4) 0.2461(4) 0.49883(10)
C12A C 0.3903(4) 0.1504(4) 0.46573(11)
H8A H 0.5035 0.1232 0.4585
C13A C 0.2507(4) 0.0980(3) 0.44418(11)
C14A C 0.2479(5) -0.0074(4) 0.40840(12)
C15A C 0.1812(4) 0.3896(4) 0.54689(11)
C16A C 0.4627(4) 0.3247(4) 0.52810(11)
C17A C 0.4097(5) 0.5043(4) 0.58891(11)
H9A H 0.5320 0.5165 0.5846
H10A H 0.3515 0.6058 0.5808
C18A C 0.3750(4) 0.4464(4) 0.63965(11)
C19A C 0.3884(5) 0.2917(4) 0.65818(13)
H11A H 0.4126 0.2162 0.6389
C20A C 0.3657(5) 0.2494(4) 0.70562(13)
H12A H 0.3744 0.1452 0.7185
C21A C 0.3302(5) 0.3621(4) 0.73340(12)
H13A H 0.3162 0.3330 0.7654
C22A C 0.3382(4) 0.5525(4) 0.66995(10)
H14A H 0.3289 0.6573 0.6578
C23A C -0.5394(5) 1.4144(5) 1.17571(13)
H15A H -0.6003 1.4064 1.2037
C24A C -0.6283(5) 1.4534(6) 1.13461(15)
H16A H -0.7471 1.4700 1.1347
C25A C -0.5376(5) 1.4672(6) 1.09339(14)
H17A H -0.5955 1.4929 1.0652
C26A C -0.3626(5) 1.4435(4) 1.09353(11)
C27A C -0.2829(4) 1.4026(4) 1.13634(11)
H18A H -0.1642 1.3844 1.1370
C28A C -0.2575(5) 1.4668(5) 1.04923(12)
H19A H -0.1670 1.5359 1.0533
H20A H -0.3305 1.5170 1.0239
C29A C -0.2722(5) 1.2130(5) 1.01772(12)
C30A C -0.1432(4) 1.0889(5) 1.00699(11)
C31A C 0.0182(4) 1.1345(5) 1.01783(11)
C32A C -0.0037(5) 1.2838(5) 1.03688(12)
C33A C -0.1668(5) 0.9541(5) 0.98911(12)
H21A H -0.2751 0.9242 0.9821
Cl1 Cl -0.80523(11) 0.39764(11) 0.32713(3)
O7 O -0.7715(5) 0.4342(10) 0.27906(14)
O8 O -0.6820(5) 0.2779(5) 0.34408(17)
O9 O -0.9714(4) 0.3492(5) 0.33668(16)
O10 O -0.7710(6) 0.5217(5) 0.3507(2)
Cl2 Cl -1.0327(2) 0.80996(18) 0.12735(4)
O11 O -0.8669(14) 0.7689(16) 0.1448(5)
O12 O -1.0385(19) 0.7454(8) 0.0907(2)
O13 O -1.0497(9) 0.9687(5) 0.12138(15)
O14 O -1.1167(9) 0.7454(6) 0.1668(2)
N7 N 0.4793(7) 0.9887(6) 0.80677(19)
C34 C 0.4956(8) 1.0173(7) 0.8433(2)
C35 C 0.5195(12) 1.0548(13) 0.8898(2)
H22 H 0.4097 1.0652 0.9048
H23 H 0.5757 1.1508 0.8880
H24 H 0.5889 0.9733 0.9076
loop_
_geom_bond_atom_site_label_1
_geom_bond_atom_site_label_2
_geom_bond_site_symmetry_1
_geom_bond_site_symmetry_2
Zn1 O15 1_555 1_555
Cl1 O7 1_555 1_555
Cl2 O11 1_555 1_555
O1 C7 1_555 1_555
O2 C14 1_555 1_555
O3 C15 1_555 1_555
O4 C16 1_555 1_555
O5 C29 1_555 1_555
O6 C32 1_555 1_555
O8 Cl1 1_555 1_555
O9 Cl1 1_555 1_555
O10 Cl1 1_555 1_555
O12 Cl2 1_555 1_555
O13 Cl2 1_555 1_555
O14 Cl2 1_555 1_555
O16 Zn1 1_555 1_555
N1 Zn1 1_555 1_555
N2 C6 1_555 1_555
N3 C15 1_555 1_555
N4 C21 1_555 1_555
N5 Zn1 1_555 1_555
N6 C28 1_555 1_555
N7 C34 1_555 1_555
C1 N1 1_555 1_555
H1 C1 1_555 1_555
C2 C1 1_555 1_555
H2 C2 1_555 1_555
C3 C2 1_555 1_555
H3 C3 1_555 1_555
C4 C3 1_555 1_555
C5 N1 1_555 1_555
H4 C5 1_555 1_555
C6 C4 1_555 1_555
H5 C6 1_555 1_555
H6 C6 1_555 1_555
C7 N2 1_555 1_555
C8 C7 1_555 1_555
C9 C8 1_555 1_555
H7 C9 1_555 1_555
C10 C9 1_555 1_555
C11 C10 1_555 1_555
C12 C11 1_555 1_555
H8 C12 1_555 1_555
C13 C8 1_555 1_555
C14 N2 1_555 1_555
C15 C10 1_555 1_555
C16 N3 1_555 1_555
C17 N3 1_555 1_555
H9 C17 1_555 1_555
H10 C17 1_555 1_555
C18 C17 1_555 1_555
C19 C18 1_555 1_555
H11 C19 1_555 1_555
C20 C19 1_555 1_555
H12 C20 1_555 1_555
C21 C20 1_555 1_555
H13 C21 1_555 1_555
C22 N4 1_555 1_555
H14 C22 1_555 1_555
C23 N5 1_555 1_555
H15 C23 1_555 1_555
C24 C23 1_555 1_555
H16 C24 1_555 1_555
C25 C24 1_555 1_555
H17 C25 1_555 1_555
C26 C25 1_555 1_555
C27 N5 1_555 1_555
H18 C27 1_555 1_555
C28 C26 1_555 1_555
H19 C28 1_555 1_555
H20 C28 1_555 1_555
C29 N6 1_555 1_555
C30 C29 1_555 1_555
C31 C30 1_555 1_555
C32 N6 1_555 1_555
C33 C30 1_555 1_555
H21 C33 1_555 1_555
C34 C35 1_555 1_555
C35 H22 1_555 1_555
H23 C35 1_555 1_555
H24 C35 1_555 1_555
Zn1A N4 1_555 1_555
Zn1A_2 N5A 1_555 1_555
O1A C7A 1_555 1_555
O2A C14A 1_555 1_555
O3A C15A 1_555 1_555
O4A C16A 1_555 1_555
O5A C29A 1_555 1_555
O6A C32A 1_555 1_555
O15A Zn1A 1_555 1_555
O16A Zn1A 1_555 1_555
N1A Zn1A 1_555 1_555
N2A C6A 1_555 1_555
N3A C15A 1_555 1_555
N4A Zn1 1_555 1_555
N5A C23A 1_555 1_555
N5A_2 Zn1A 1_555 1_555
N6A C28A 1_555 1_555
C1A N1A 1_555 1_555
H1A C1A 1_555 1_555
C2A C1A 1_555 1_555
H2A C2A 1_555 1_555
C3A C2A 1_555 1_555
H3A C3A 1_555 1_555
C4A C3A 1_555 1_555
C5A N1A 1_555 1_555
H4A C5A 1_555 1_555
C6A C4A 1_555 1_555
H5A C6A 1_555 1_555
H6A C6A 1_555 1_555
C7A N2A 1_555 1_555
C8A C7A 1_555 1_555
C9A C8A 1_555 1_555
H7A C9A 1_555 1_555
C10A C9A 1_555 1_555
C11A C10A 1_555 1_555
C12A C11A 1_555 1_555
H8A C12A 1_555 1_555
C13A C8A 1_555 1_555
C14A N2A 1_555 1_555
C15A C10A 1_555 1_555
C16A N3A 1_555 1_555
C17A N3A 1_555 1_555
H9A C17A 1_555 1_555
H10A C17A 1_555 1_555
C18A C17A 1_555 1_555
C19A C18A 1_555 1_555
H11A C19A 1_555 1_555
C20A C19A 1_555 1_555
H12A C20A 1_555 1_555
C21A N4A 1_555 1_555
H13A C21A 1_555 1_555
C22A N4A 1_555 1_555
H14A C22A 1_555 1_555
C23A H15A 1_555 1_555
C24A C23A 1_555 1_555
H16A C24A 1_555 1_555
C25A C24A 1_555 1_555
H17A C25A 1_555 1_555
C26A C25A 1_555 1_555
C27A N5A 1_555 1_555
H18A C27A 1_555 1_555
C28A C26A 1_555 1_555
H19A C28A 1_555 1_555
H20A C28A 1_555 1_555
C29A N6A 1_555 1_555
C30A C29A 1_555 1_555
C31A C33 1_555 1_555
C32A N6A 1_555 1_555
C33A C31 1_555 1_555
H21A C33A 1_555 1_555
C4 C5 1_555 1_555
C11 C16 1_555 1_555
C12 C13 1_555 1_555
C13 C14 1_555 1_555
C18 C22 1_555 1_555
C26 C27 1_555 1_555
C31 C32 1_555 1_555
C4A C5A 1_555 1_555
C11A C16A 1_555 1_555
C12A C13A 1_555 1_555
C13A C14A 1_555 1_555
C18A C22A 1_555 1_555
C20A C21A 1_555 1_555
C26A C27A 1_555 1_555
C30A C31A 1_555 1_555
C30A C33A 1_555 1_555
C31A C32A 1_555 1_555

#END
