
#######################################################################
#
#                 Cambridge Crystallographic Data Centre
#                                CCDC 
#
#######################################################################
#
# If this CIF has been generated from an entry in the Cambridge 
# Structural Database, then it will include bibliographic, chemical, 
# crystal, experimental, refinement or atomic coordinate data resulting 
# from the CCDC's data processing and validation procedures.
#
#######################################################################

data_FISCAM
_symmetry_cell_setting           monoclinic
_symmetry_space_group_name_H-M   'P 21/c'
_symmetry_Int_Tables_number      14
_space_group_name_Hall           '-P 2ybc'
loop_
_symmetry_equiv_pos_site_id
_symmetry_equiv_pos_as_xyz
1 x,y,z
2 -x,1/2+y,1/2-z
3 -x,-y,-z
4 x,1/2-y,1/2+z
_cell_length_a                   13.5452(17)
_cell_length_b                   8.1348(10)
_cell_length_c                   14.8815(18)
_cell_angle_alpha                90
_cell_angle_beta                 95.568(2)
_cell_angle_gamma                90
_cell_volume                     1632.02
loop_
_atom_site_label
_atom_site_type_symbol
_atom_site_fract_x
_atom_site_fract_y
_atom_site_fract_z
Cl1 Cl 0.28685(8) 0.02402(14) 0.56430(9)
O4 O 0.3846(6) 0.043(2) 0.5951(12)
O5 O 0.2502(15) 0.1437(13) 0.5067(12)
O6 O 0.2306(11) 0.007(3) 0.6351(8)
O7 O 0.2755(7) -0.1230(9) 0.5172(8)
Cd1 Cd 0.5000 0.5000 0.5000
O1 O 0.89695(17) 0.4207(3) 0.54244(14)
O2 O 0.95389(17) 0.2010(3) 0.27147(12)
O3 O 0.5140(3) 0.2245(4) 0.5094(3)
H1 H 0.467(2) 0.165(4) 0.525(4)
H2 H 0.561(2) 0.167(4) 0.494(4)
N1 N 0.5988(2) 0.4836(3) 0.38099(18)
N2 N 0.91454(18) 0.3451(3) 0.39611(15)
N3 N 0.3561(3) 0.4648(5) 0.3974(2)
C1 C 0.5607(3) 0.4479(7) 0.2982(3)
H3 H 0.4922 0.4393 0.2867
C2 C 0.6182(3) 0.4230(11) 0.2285(3)
H4 H 0.5889 0.3967 0.1712
C3 C 0.7190(3) 0.4373(7) 0.2441(3)
H5 H 0.7590 0.4213 0.1974
C4 C 0.7603(2) 0.4751(4) 0.3285(2)
C5 C 0.6972(2) 0.4971(4) 0.3939(2)
H6 H 0.7251 0.5236 0.4516
C6 C 0.8711(2) 0.4914(3) 0.3517(2)
H7 H 0.9025 0.5113 0.2968
H8 H 0.8844 0.5855 0.3911
C7 C 0.9207(2) 0.3211(4) 0.48909(19)
C8 C 0.9632(2) 0.1545(4) 0.50571(17)
C9 C 0.9804(2) 0.0874(4) 0.42265(17)
C10 C 0.9493(2) 0.2106(4) 0.35177(18)
C11 C 0.9816(2) 0.0689(4) 0.58540(19)
H9 H 0.9692 0.1132 0.6408
C12 C 0.2850(3) 0.4236(6) 0.3595(3)
C13 C 0.1938(3) 0.3646(6) 0.3127(3)
H10 H 0.2065 0.3222 0.2547
H11 H 0.1471 0.4535 0.3047
H12 H 0.1669 0.2790 0.3474
Cd1_2 Cd 1.5000 -0.5000 0.5000
O1B O 1.10305(17) -0.4207(3) 0.45756(14)
O2B O 1.04611(17) -0.2010(3) 0.72853(12)
O3B O 0.4860(3) 0.7755(4) 0.4906(3)
H1B H 0.533(2) 0.835(4) 0.475(4)
H2B H 0.439(2) 0.833(4) 0.506(4)
N1B N 1.4012(2) -0.4836(3) 0.61901(18)
N1B_2 N 0.4012(2) 0.5164(3) 0.61901(18)
N2B N 1.08546(18) -0.3451(3) 0.60389(15)
N3B N 0.6439(3) 0.5352(5) 0.6026(2)
C1B C 1.4393(3) -0.4479(7) 0.7018(3)
H3B H 1.5078 -0.4393 0.7133
C2B C 1.3818(3) -0.4230(11) 0.7715(3)
H4B H 1.4111 -0.3967 0.8288
C3B C 1.2810(3) -0.4373(7) 0.7559(3)
H5B H 1.2410 -0.4213 0.8026
C4B C 1.2397(2) -0.4751(4) 0.6715(2)
C5B C 1.3028(2) -0.4971(4) 0.6061(2)
H6B H 1.2749 -0.5236 0.5484
C6B C 1.1289(2) -0.4914(3) 0.6483(2)
H7B H 1.0975 -0.5113 0.7032
H8B H 1.1156 -0.5855 0.6089
C7B C 1.0793(2) -0.3211(4) 0.51091(19)
C8B C 1.0368(2) -0.1545(4) 0.49429(17)
C9B C 1.0196(2) -0.0874(4) 0.57735(17)
C10B C 1.0507(2) -0.2106(4) 0.64823(18)
C11B C 1.0184(2) -0.0689(4) 0.41460(19)
H9B H 1.0308 -0.1132 0.3592
C12B C 0.7150(3) 0.5764(6) 0.6405(3)
C13B C 0.8062(3) 0.6354(6) 0.6873(3)
H10B H 0.7935 0.6778 0.7453
H11B H 0.8529 0.5465 0.6953
H12B H 0.8331 0.7210 0.6526
O8? O 0.3660(8) 0.0937(17) 0.6184(9)
O9? O 0.2148(6) 0.1441(10) 0.5507(8)
O10? O 0.2501(6) -0.0994(11) 0.6107(9)
O11? O 0.3179(10) -0.017(2) 0.4839(5)
loop_
_geom_bond_atom_site_label_1
_geom_bond_atom_site_label_2
_geom_bond_site_symmetry_1
_geom_bond_site_symmetry_2
Cd1 O3 1_555 1_555
O1 C7 1_555 1_555
O2 C10 1_555 1_555
O3 H1 1_555 1_555
H2 O3 1_555 1_555
N1 Cd1 1_555 1_555
N2 C6 1_555 1_555
N3 Cd1 1_555 1_555
C1 N1 1_555 1_555
H3 C1 1_555 1_555
C2 C1 1_555 1_555
H4 C2 1_555 1_555
C3 C2 1_555 1_555
H5 C3 1_555 1_555
C4 C3 1_555 1_555
C5 N1 1_555 1_555
H6 C5 1_555 1_555
C6 C4 1_555 1_555
H7 C6 1_555 1_555
H8 C6 1_555 1_555
C7 N2 1_555 1_555
C8 C7 1_555 1_555
C9 C8 1_555 1_555
C10 N2 1_555 1_555
C11 C8 1_555 1_555
H9 C11 1_555 1_555
C12 N3 1_555 1_555
C13 C12 1_555 1_555
H10 C13 1_555 1_555
H11 C13 1_555 1_555
H12 C13 1_555 1_555
Cl1 O4 1_555 1_555
O5 Cl1 1_555 1_555
O6 Cl1 1_555 1_555
O7 Cl1 1_555 1_555
Cd1_2 N1B 1_555 1_555
O1B C7B 1_555 1_555
O2B C10B 1_555 1_555
O3B Cd1 1_555 1_555
H1B O3B 1_555 1_555
H2B O3B 1_555 1_555
N1B C1B 1_555 1_555
N1B_2 Cd1 1_555 1_555
N2B C6B 1_555 1_555
N3B Cd1 1_555 1_555
C1B H3B 1_555 1_555
C2B C1B 1_555 1_555
H4B C2B 1_555 1_555
C3B C2B 1_555 1_555
H5B C3B 1_555 1_555
C4B C3B 1_555 1_555
C5B N1B 1_555 1_555
H6B C5B 1_555 1_555
C6B C4B 1_555 1_555
H7B C6B 1_555 1_555
H8B C6B 1_555 1_555
C7B N2B 1_555 1_555
C8B C7B 1_555 1_555
C9B C11 1_555 1_555
C10B N2B 1_555 1_555
C11B C9 1_555 1_555
H9B C11B 1_555 1_555
C12B N3B 1_555 1_555
C13B C12B 1_555 1_555
H10B C13B 1_555 1_555
H11B C13B 1_555 1_555
H12B C13B 1_555 1_555
C4 C5 1_555 1_555
C9 C10 1_555 1_555
C4B C5B 1_555 1_555
C8B C9B 1_555 1_555
C8B C11B 1_555 1_555
C9B C10B 1_555 1_555

#END
