
#######################################################################
#
#                 Cambridge Crystallographic Data Centre
#                                CCDC 
#
#######################################################################
#
# If this CIF has been generated from an entry in the Cambridge 
# Structural Database, then it will include bibliographic, chemical, 
# crystal, experimental, refinement or atomic coordinate data resulting 
# from the CCDC's data processing and validation procedures.
#
#######################################################################

data_FISDOA
_symmetry_cell_setting           orthorhombic
_symmetry_space_group_name_H-M   'P c c n'
_symmetry_Int_Tables_number      56
_space_group_name_Hall           '-P 2ab 2ac'
loop_
_symmetry_equiv_pos_site_id
_symmetry_equiv_pos_as_xyz
1 x,y,z
2 1/2-x,1/2-y,z
3 1/2+x,-y,1/2-z
4 -x,1/2+y,1/2-z
5 -x,-y,-z
6 1/2+x,1/2+y,-z
7 1/2-x,y,1/2+z
8 x,1/2-y,1/2+z
_cell_length_a                   26.772(8)
_cell_length_b                   10.479(3)
_cell_length_c                   6.007(1)
_cell_angle_alpha                90
_cell_angle_beta                 90
_cell_angle_gamma                90
_cell_volume                     1685.23
loop_
_atom_site_label
_atom_site_type_symbol
_atom_site_fract_x
_atom_site_fract_y
_atom_site_fract_z
Ag1 Ag 0.48591(2) 0.67149(4) 0.09056(7)
C1 C 0.3607(2) 0.5480(5) 0.0564(8)
C2 C 0.3219(2) 0.6166(6) -0.0415(10)
C3 C 0.2891(3) 0.5580(7) -0.1869(12)
C4 C 0.2960(3) 0.4280(8) -0.2298(10)
C5 C 0.3332(3) 0.3602(7) -0.1333(10)
C6 C 0.3675(2) 0.4206(5) 0.0075(9)
S1 S 0.3999(1) 0.6342(1) 0.2454(2)
C7 C 0.4156(2) 0.5126(5) 0.4464(8)
C8 C 0.4563(2) 0.4175(5) 0.3838(7)
O1 O 0.4882(1) 0.4483(3) 0.2410(6)
O2 O 0.4550(2) 0.3139(3) 0.4908(7)
H1 H 0.320(2) 0.698(5) -0.004(10)
H2 H 0.280(4) 0.390(9) -0.317(19)
H3 H 0.340(2) 0.273(7) -0.137(11)
H4 H 0.396(2) 0.367(5) 0.070(8)
H5 H 0.389(2) 0.470(5) 0.480(8)
H6 H 0.432(2) 0.546(6) 0.543(10)
O1D O 0.5118(1) 0.5517(3) -0.2410(6)
O2C O 0.5450(2) 0.8139(3) 0.0092(7)
Ag1D Ag 0.51409(2) 0.32851(4) -0.09056(7)
Ag1C Ag 0.51409(2) 0.17149(4) 0.40944(7)
loop_
_geom_bond_atom_site_label_1
_geom_bond_atom_site_label_2
_geom_bond_site_symmetry_1
_geom_bond_site_symmetry_2
Ag1 S1 1_555 1_555
C1 C2 1_555 1_555
C2 C3 1_555 1_555
C3 C4 1_555 1_555
C4 C5 1_555 1_555
C5 C6 1_555 1_555
C6 C1 1_555 1_555
S1 C1 1_555 1_555
C7 S1 1_555 1_555
C8 C7 1_555 1_555
O1 Ag1 1_555 1_555
O2 C8 1_555 1_555
H1 C2 1_555 1_555
H2 C4 1_555 1_555
H3 C5 1_555 1_555
H4 C6 1_555 1_555
H5 C7 1_555 1_555
H6 C7 1_555 1_555
O1D Ag1 1_555 1_555
O2C Ag1 1_555 1_555
Ag1D O1 1_555 1_555
Ag1C O2 1_555 1_555
C8 O1 1_555 1_555
O1D Ag1D 1_555 1_555

#END
