
#######################################################################
#
#                 Cambridge Crystallographic Data Centre
#                                CCDC 
#
#######################################################################
#
# If this CIF has been generated from an entry in the Cambridge 
# Structural Database, then it will include bibliographic, chemical, 
# crystal, experimental, refinement or atomic coordinate data resulting 
# from the CCDC's data processing and validation procedures.
#
#######################################################################

data_FISDIU
_symmetry_cell_setting           monoclinic
_symmetry_space_group_name_H-M   'A 2'
_symmetry_Int_Tables_number      5
_space_group_name_Hall           'A 2y'
loop_
_symmetry_equiv_pos_site_id
_symmetry_equiv_pos_as_xyz
1 x,y,z
2 x,1/2+y,1/2+z
3 -x,y,-z
4 -x,1/2+y,1/2-z
_cell_length_a                   15.801(5)
_cell_length_b                   4.909(2)
_cell_length_c                   14.090(7)
_cell_angle_alpha                90
_cell_angle_beta                 113.55(3)
_cell_angle_gamma                90
_cell_volume                     1001.89
loop_
_atom_site_label
_atom_site_type_symbol
_atom_site_fract_x
_atom_site_fract_y
_atom_site_fract_z
Li1 Li 0.4397(6) -0.1224(20) 0.2173(9)
O1 O 0.3849(3) -0.0313(11) 0.0713(3)
C1 C 0.1999(3) 0.1497(12) 0.2878(4)
C2 C 0.1576(4) -0.0214(13) 0.3338(4)
Cl1 Cl 0.1885(1) 0.0000 0.4667(1)
C3 C 0.0909(4) -0.2122(13) 0.2753(5)
C4 C 0.0678(4) -0.2298(14) 0.1729(6)
C5 C 0.1086(4) -0.0626(13) 0.1244(5)
C6 C 0.1746(4) 0.1269(13) 0.1813(4)
O2 O 0.2632(2) 0.3308(9) 0.3518(3)
C7 C 0.3106(3) 0.5012(13) 0.3060(4)
C8 C 0.3877(3) 0.3572(12) 0.2869(4)
O3 O 0.4004(2) 0.1077(9) 0.3076(3)
O4 O 0.4322(3) 0.5024(8) 0.2500(3)
H1 H 0.063(5) -0.324(18) 0.314(6)
H2 H 0.028(6) -0.413(24) 0.152(6)
H3 H 0.095(3) -0.082(10) 0.051(3)
H4 H 0.196(3) 0.216(11) 0.144(3)
H5 H 0.328(4) 0.621(15) 0.366(5)
H6 H 0.263(5) 0.601(20) 0.242(6)
H7 H 0.353(3) -0.044(10) 0.106(3)
H8 H 0.419(6) 0.0(26) 0.021(7)
C1_2 C 0.1999(3) -0.8503(12) 0.2878(4)
C2_2 C 0.1576(4) -1.0214(13) 0.3338(4)
Cl1_2 Cl 0.1885(1) -1.0000 0.4667(1)
C3_2 C 0.0909(4) -1.2122(13) 0.2753(5)
C4_2 C 0.0678(4) -1.2298(14) 0.1729(6)
C5_2 C 0.1086(4) -1.0626(13) 0.1244(5)
C6_2 C 0.1746(4) -0.8731(13) 0.1813(4)
O2_2 O 0.2632(2) -0.6692(9) 0.3518(3)
C7_2 C 0.3106(3) -0.4988(13) 0.3060(4)
C8_2 C 0.3877(3) -0.6428(12) 0.2869(4)
O3_2 O 0.4004(2) -0.8923(9) 0.3076(3)
O4_2 O 0.4322(3) -0.4976(8) 0.2500(3)
H1_2 H 0.063(5) -1.324(18) 0.314(6)
H2_2 H 0.028(6) -1.413(24) 0.152(6)
H3_2 H 0.095(3) -1.082(10) 0.051(3)
H4_2 H 0.196(3) -0.784(11) 0.144(3)
H5_2 H 0.328(4) -0.379(15) 0.366(5)
H6_2 H 0.263(5) -0.399(20) 0.242(6)
Li1_2 Li 0.4397(6) -1.1224(20) 0.2173(9)
O1_2 O 0.3849(3) -1.0313(11) 0.0713(3)
H7_2 H 0.353(3) -1.044(10) 0.106(3)
H8_2 H 0.419(6) -1.0(26) 0.021(7)
O4C O 0.5678(3) 0.0024(8) 0.2500(3)
Li1_3 Li 0.4397(6) 0.8776(20) 0.2173(9)
Li1C Li 0.5603(6) 0.3776(20) 0.2827(9)
Li1C_2 Li 0.5603(6) -0.6224(20) 0.2827(9)
O4_3 O 0.4322(3) -1.4976(8) 0.2500(3)
O4C_2 O 0.5678(3) -0.9976(8) 0.2500(3)
O5 O 0.5000 -0.1678(16) 0.5000
loop_
_geom_bond_atom_site_label_1
_geom_bond_atom_site_label_2
_geom_bond_site_symmetry_1
_geom_bond_site_symmetry_2
Li1 O1 1_555 1_555
O1 H7 1_555 1_555
C1 C2 1_555 1_555
C2 Cl1 1_555 1_555
C3 C2 1_555 1_555
C4 C3 1_555 1_555
C5 C4 1_555 1_555
C6 C1 1_555 1_555
O2 C1 1_555 1_555
C7 O2 1_555 1_555
C8 C7 1_555 1_555
O3 Li1 1_555 1_555
O4 C8 1_555 1_555
H1 C3 1_555 1_555
H2 C4 1_555 1_555
H3 C5 1_555 1_555
H4 C6 1_555 1_555
H5 C7 1_555 1_555
H6 C7 1_555 1_555
H8 O1 1_555 1_555
C1_2 C2_2 1_555 1_555
C2_2 Cl1_2 1_555 1_555
C3_2 C2_2 1_555 1_555
C4_2 C3_2 1_555 1_555
C5_2 C4_2 1_555 1_555
C6_2 C1_2 1_555 1_555
O2_2 C1_2 1_555 1_555
C7_2 O2_2 1_555 1_555
C8_2 C7_2 1_555 1_555
O3_2 C8_2 1_555 1_555
O4_2 Li1 1_555 1_555
H1_2 C3_2 1_555 1_555
H2_2 C4_2 1_555 1_555
H3_2 C5_2 1_555 1_555
H4_2 C6_2 1_555 1_555
H5_2 C7_2 1_555 1_555
H6_2 C7_2 1_555 1_555
Li1_2 O3_2 1_555 1_555
O1_2 Li1_2 1_555 1_555
H7_2 O1_2 1_555 1_555
H8_2 O1_2 1_555 1_555
O4C Li1 1_555 1_555
Li1_3 O4 1_555 1_555
Li1C O4 1_555 1_555
Li1C_2 O4_2 1_555 1_555
O4_3 Li1_2 1_555 1_555
O4C_2 Li1_2 1_555 1_555
C5 C6 1_555 1_555
C8 O3 1_555 1_555
C5_2 C6_2 1_555 1_555
C8_2 O4_2 1_555 1_555
O4C Li1C 1_555 1_555
Li1C_2 O4C_2 1_555 1_555

#END
