
#######################################################################
#
#                 Cambridge Crystallographic Data Centre
#                                CCDC 
#
#######################################################################
#
# If this CIF has been generated from an entry in the Cambridge 
# Structural Database, then it will include bibliographic, chemical, 
# crystal, experimental, refinement or atomic coordinate data resulting 
# from the CCDC's data processing and validation procedures.
#
#######################################################################

data_FISHUL
_symmetry_cell_setting           triclinic
_symmetry_space_group_name_H-M   'P -1'
_symmetry_Int_Tables_number      2
_space_group_name_Hall           '-P 1'
loop_
_symmetry_equiv_pos_site_id
_symmetry_equiv_pos_as_xyz
1 x,y,z
2 -x,-y,-z
_cell_length_a                   5.7792(5)
_cell_length_b                   10.4275(8)
_cell_length_c                   12.7426(10)
_cell_angle_alpha                104.478(2)
_cell_angle_beta                 98.077(2)
_cell_angle_gamma                94.366(2)
_cell_volume                     731.167
loop_
_atom_site_label
_atom_site_type_symbol
_atom_site_fract_x
_atom_site_fract_y
_atom_site_fract_z
Ag1 Ag 0.91023(6) -0.06533(3) 1.08068(3)
S1 S 0.69830(17) -0.20785(10) 0.89742(8)
O1 O 0.2589(7) -0.1038(4) 1.2198(3)
O2 O 0.3299(7) -0.1349(4) 1.0554(3)
O3 O 0.6045(6) -0.1463(4) 1.1860(3)
N1 N 0.8550(7) -0.3651(4) 0.7301(3)
N2 N 1.0562(6) -0.1451(4) 0.8022(3)
N3 N 0.3976(6) -0.1284(4) 1.1537(3)
C1 C 1.1955(8) -0.1724(5) 0.7256(4)
H1 H 1.303(11) -0.101(6) 0.721(5)
C2 C 1.1798(10) -0.2960(5) 0.6531(4)
H2 H 1.286(12) -0.317(6) 0.600(5)
C3 C 1.0047(10) -0.3895(5) 0.6575(4)
H3 H 0.980(10) -0.483(6) 0.610(5)
C4 C 0.8924(7) -0.2456(4) 0.8002(3)
C5 C 0.6105(8) -0.3747(4) 0.9125(4)
H4 H 0.524(9) -0.426(5) 0.843(4)
H5 H 0.503(9) -0.361(5) 0.956(4)
C6 C 0.8108(8) -0.4396(4) 0.9584(3)
C7 C 0.8986(9) -0.5459(4) 0.8908(4)
H6 H 0.829(8) -0.579(5) 0.819(4)
C8 C 0.9155(9) -0.3952(5) 1.0686(4)
H7 H 0.857(10) -0.324(6) 1.116(5)
Ag1A Ag 1.08977(6) -0.93467(3) 0.91932(3)
Ag1A_2 Ag 1.08977(6) 0.06533(3) 0.91932(3)
Ag1_2 Ag 0.91023(6) -1.06533(3) 1.08068(3)
S1A S 1.30170(17) -0.79215(10) 1.10258(8)
O1A O 1.7411(7) -0.8962(4) 0.7802(3)
O2A O 1.6701(7) -0.8651(4) 0.9446(3)
O3A O 1.3955(6) -0.8537(4) 0.8140(3)
N1A N 1.1450(7) -0.6349(4) 1.2699(3)
N2A N 0.9438(6) -0.8549(4) 1.1978(3)
N2A_2 N 0.9438(6) 0.1451(4) 1.1978(3)
N2_2 N 1.0562(6) -1.1451(4) 0.8022(3)
N3A N 1.6024(6) -0.8716(4) 0.8463(3)
C1A C 0.8045(8) -0.8276(5) 1.2744(4)
H1A H 0.697(11) -0.899(6) 1.279(5)
C2A C 0.8202(10) -0.7040(5) 1.3469(4)
H2A H 0.714(12) -0.683(6) 1.400(5)
C3A C 0.9953(10) -0.6105(5) 1.3425(4)
H3A H 1.020(10) -0.517(6) 1.390(5)
C4A C 1.1076(7) -0.7544(4) 1.1998(3)
C5A C 1.3895(8) -0.6253(4) 1.0875(4)
H4A H 1.476(9) -0.574(5) 1.157(4)
H5A H 1.497(9) -0.639(5) 1.044(4)
C6A C 1.1892(8) -0.5604(4) 1.0416(3)
C7A C 1.1014(9) -0.4541(4) 1.1092(4)
H6A H 1.171(8) -0.421(5) 1.181(4)
C8A C 1.0845(9) -0.6048(5) 0.9314(4)
H7A H 1.143(10) -0.676(6) 0.884(5)
Cl1 Cl 0.9609(3) -0.2130(2) 1.39157(14)
Cl2 Cl 0.5344(3) -0.37133(15) 1.39614(14)
Cl3 Cl 0.6733(3) -0.11693(14) 1.55685(11)
C9 C 0.6737(9) -0.2078(6) 1.4208(4)
H8 H 0.581(9) -0.168(5) 1.376(4)
loop_
_geom_bond_atom_site_label_1
_geom_bond_atom_site_label_2
_geom_bond_site_symmetry_1
_geom_bond_site_symmetry_2
Ag1 S1 1_555 1_555
S1 C4 1_555 1_555
Cl1 C9 1_555 1_555
Cl2 C9 1_555 1_555
Cl3 C9 1_555 1_555
O1 N3 1_555 1_555
O2 N3 1_555 1_555
O3 Ag1 1_555 1_555
N1 C3 1_555 1_555
N2 C1 1_555 1_555
N3 O3 1_555 1_555
C1 H1 1_555 1_555
C2 C1 1_555 1_555
H2 C2 1_555 1_555
C3 C2 1_555 1_555
H3 C3 1_555 1_555
C4 N1 1_555 1_555
C5 S1 1_555 1_555
H4 C5 1_555 1_555
H5 C5 1_555 1_555
C6 C5 1_555 1_555
C7 C6 1_555 1_555
H6 C7 1_555 1_555
C8 C6 1_555 1_555
H7 C8 1_555 1_555
C9 H8 1_555 1_555
Ag1A S1A 1_555 1_555
Ag1A_2 N2 1_555 1_555
Ag1_2 N2A 1_555 1_555
S1A C4A 1_555 1_555
O1A N3A 1_555 1_555
O2A N3A 1_555 1_555
O3A Ag1A 1_555 1_555
N1A C3A 1_555 1_555
N2A C1A 1_555 1_555
N2A_2 Ag1 1_555 1_555
N2_2 Ag1A 1_555 1_555
N3A O3A 1_555 1_555
C1A H1A 1_555 1_555
C2A C1A 1_555 1_555
H2A C2A 1_555 1_555
C3A C2A 1_555 1_555
H3A C3A 1_555 1_555
C4A N1A 1_555 1_555
C5A S1A 1_555 1_555
H4A C5A 1_555 1_555
H5A C5A 1_555 1_555
C6A C5A 1_555 1_555
C7A C8 1_555 1_555
H6A C7A 1_555 1_555
C8A C7 1_555 1_555
H7A C8A 1_555 1_555
N2 C4 1_555 1_555
N2A C4A 1_555 1_555
C6A C7A 1_555 1_555
C6A C8A 1_555 1_555

#END
