
#######################################################################
#
#                 Cambridge Crystallographic Data Centre
#                                CCDC 
#
#######################################################################
#
# If this CIF has been generated from an entry in the Cambridge 
# Structural Database, then it will include bibliographic, chemical, 
# crystal, experimental, refinement or atomic coordinate data resulting 
# from the CCDC's data processing and validation procedures.
#
#######################################################################

data_FISKAT
_symmetry_cell_setting           triclinic
_symmetry_space_group_name_H-M   'P -1'
_symmetry_Int_Tables_number      2
_space_group_name_Hall           '-P 1'
loop_
_symmetry_equiv_pos_site_id
_symmetry_equiv_pos_as_xyz
1 x,y,z
2 -x,-y,-z
_cell_length_a                   9.070(1)
_cell_length_b                   13.067(1)
_cell_length_c                   13.716(1)
_cell_angle_alpha                110.74(1)
_cell_angle_beta                 103.91(1)
_cell_angle_gamma                95.83(1)
_cell_volume                     1444.11
loop_
_atom_site_label
_atom_site_type_symbol
_atom_site_fract_x
_atom_site_fract_y
_atom_site_fract_z
Sr1 Sr 0.04622(4) -0.09813(3) 0.10136(3)
C1 C 0.2921(5) 0.2682(3) 0.2279(3)
C2 C 0.3238(5) 0.3831(4) 0.2573(3)
C3 C 0.4587(5) 0.4465(3) 0.3382(3)
C4 C 0.5653(5) 0.4005(4) 0.3904(3)
C5 C 0.5286(5) 0.2869(4) 0.3594(3)
C6 C 0.3959(5) 0.2189(3) 0.2789(3)
C7 C 0.1443(5) 0.1994(4) 0.1380(3)
N1 N 0.4883(5) 0.5686(3) 0.3721(3)
N2 N 0.6360(4) 0.2333(3) 0.4172(3)
O1 O 0.1132(3) 0.0961(2) 0.1151(2)
O2 O 0.0642(4) 0.2496(3) 0.0916(2)
O3 O 0.3899(5) 0.6082(3) 0.3302(4)
O4 O 0.6097(4) 0.6242(3) 0.4411(3)
O5 O 0.7643(4) 0.2890(3) 0.4721(4)
O6 O 0.5920(4) 0.1387(3) 0.4051(3)
C15 C 0.3475(6) -0.1217(6) 0.3180(5)
C16 C 0.3523(6) -0.2005(5) 0.2111(5)
C17 C 0.1218(5) -0.3409(4) 0.1479(4)
C18 C -0.0408(5) -0.3698(4) 0.0737(4)
O13 O -0.2461(3) -0.0671(3) 0.0819(2)
O14 O -0.0224(3) 0.0045(3) 0.2820(2)
O15 O 0.2660(4) -0.0406(3) 0.2984(3)
O16 O 0.2016(3) -0.2471(3) 0.1364(3)
O17 O -0.1101(3) -0.2755(3) 0.1112(3)
O18 O 0.2899(4) -0.0743(3) 0.0407(3)
C19 C -0.2707(8) 0.0127(6) 0.1776(3)
C20 C -0.1826(5) -0.0047(8) 0.2770(5)
C21 C 0.1073(7) 0.0755(6) 0.3755(6)
C22 C 0.2204(9) 0.0016(9) 0.3958(4)
H1 H 0.248(4) 0.425(3) 0.228(3)
H2 H 0.662(4) 0.449(3) 0.447(3)
H3 H 0.379(4) 0.142(3) 0.265(3)
H7 H -0.324(5) -0.119(4) 0.046(4)
H8 H -0.178(5) -0.286(5) 0.080(4)
H9 H 0.4632(6) -0.0818(6) 0.3723(5)
H10 H 0.2913(6) -0.1747(6) 0.3492(5)
H11 H 0.4077(6) -0.2663(5) 0.2230(5)
H12 H 0.4180(6) -0.1569(5) 0.1764(5)
H13 H 0.1795(5) -0.4099(4) 0.1230(4)
H14 H 0.1312(5) -0.3158(4) 0.2335(4)
H15 H -0.0977(5) -0.4448(4) 0.0768(4)
H16 H -0.0348(5) -0.3868(4) -0.0081(4)
H17 H 0.283(5) -0.031(4) 0.002(4)
H18 H 0.336(5) -0.110(4) 0.011(4)
H19 H -0.2312(8) 0.0970(6) 0.1858(3)
H20 H -0.3934(8) 0.0012(6) 0.1691(3)
H21 H -0.2287(5) -0.0865(8) 0.2723(5)
H22 H -0.1935(5) 0.0586(8) 0.3496(5)
H23 H 0.1588(7) 0.1448(6) 0.3608(6)
H24 H 0.0646(7) 0.1069(6) 0.4452(6)
H25 H 0.1727(9) -0.0631(9) 0.4181(4)
H26 H 0.3223(9) 0.0548(9) 0.4608(4)
O2A O -0.0642(4) -0.2496(3) -0.0916(2)
Sr1A Sr -0.04622(4) 0.09813(3) -0.10136(3)
C8 C -0.6513(4) -0.3979(4) -0.1416(3)
C9 C -0.6625(5) -0.5133(4) -0.1758(3)
C10 C -0.7854(5) -0.5831(4) -0.2649(4)
C11 C -0.8985(5) -0.5434(4) -0.3199(4)
C12 C -0.8836(5) -0.4294(4) -0.2834(3)
C13 C -0.7636(5) -0.3555(4) -0.1950(3)
C14 C -0.5100(5) -0.3180(4) -0.0504(3)
N3 N -0.7953(5) -0.7046(4) -0.3058(3)
N4 N -0.9978(5) -0.3844(4) -0.3441(3)
O7 O -0.5073(3) -0.2155(3) -0.0243(3)
O8 O -0.4068(3) -0.3621(3) -0.0133(3)
O9 O -0.6808(4) -0.7372(3) -0.2738(3)
O10 O -0.9173(5) -0.7648(3) -0.3701(3)
O11 O -1.1088(4) -0.4498(3) -0.4156(3)
O12 O -0.9785(5) -0.2857(4) -0.3195(3)
H4 H -0.580(4) -0.549(3) -0.134(3)
H5 H -0.980(4) -0.589(3) -0.380(3)
H6 H -0.760(5) -0.277(4) -0.175(3)
loop_
_geom_bond_atom_site_label_1
_geom_bond_atom_site_label_2
_geom_bond_site_symmetry_1
_geom_bond_site_symmetry_2
Sr1 O1 1_555 1_555
C1 C2 1_555 1_555
C2 C3 1_555 1_555
C3 C4 1_555 1_555
C4 C5 1_555 1_555
C5 C6 1_555 1_555
C6 C1 1_555 1_555
C7 C1 1_555 1_555
N1 C3 1_555 1_555
N2 C5 1_555 1_555
O1 C7 1_555 1_555
O2 C7 1_555 1_555
O3 N1 1_555 1_555
O4 N1 1_555 1_555
O5 N2 1_555 1_555
O6 N2 1_555 1_555
C8 C9 1_555 1_555
C9 C10 1_555 1_555
C10 C11 1_555 1_555
C11 C12 1_555 1_555
C12 C13 1_555 1_555
C13 C8 1_555 1_555
C14 C8 1_555 1_555
N3 C10 1_555 1_555
N4 C12 1_555 1_555
O7 C14 1_555 1_555
O8 C14 1_555 1_555
O9 N3 1_555 1_555
O10 N3 1_555 1_555
O11 N4 1_555 1_555
O12 N4 1_555 1_555
C15 C16 1_555 1_555
C16 O16 1_555 1_555
C17 C18 1_555 1_555
C18 O17 1_555 1_555
O13 Sr1 1_555 1_555
O14 Sr1 1_555 1_555
O15 Sr1 1_555 1_555
O16 Sr1 1_555 1_555
O17 Sr1 1_555 1_555
O18 Sr1 1_555 1_555
C19 O13 1_555 1_555
C20 O14 1_555 1_555
C21 O14 1_555 1_555
C22 O15 1_555 1_555
H1 C2 1_555 1_555
H2 C4 1_555 1_555
H3 C6 1_555 1_555
H4 C9 1_555 1_555
H5 C11 1_555 1_555
H6 C13 1_555 1_555
H7 O13 1_555 1_555
H8 O17 1_555 1_555
H9 C15 1_555 1_555
H10 C15 1_555 1_555
H11 C16 1_555 1_555
H12 C16 1_555 1_555
H13 C17 1_555 1_555
H14 C17 1_555 1_555
H15 C18 1_555 1_555
H16 C18 1_555 1_555
H17 O18 1_555 1_555
H18 O18 1_555 1_555
H19 C19 1_555 1_555
H20 C19 1_555 1_555
H21 C20 1_555 1_555
H22 C20 1_555 1_555
H23 C21 1_555 1_555
H24 C21 1_555 1_555
H25 C22 1_555 1_555
H26 C22 1_555 1_555
O2A Sr1 1_555 1_555
Sr1A O2 1_555 1_555
C15 O15 1_555 1_555
C17 O16 1_555 1_555
C19 C20 1_555 1_555
C21 C22 1_555 1_555

#END
