
#######################################################################
#
#                 Cambridge Crystallographic Data Centre
#                                CCDC 
#
#######################################################################
#
# If this CIF has been generated from an entry in the Cambridge 
# Structural Database, then it will include bibliographic, chemical, 
# crystal, experimental, refinement or atomic coordinate data resulting 
# from the CCDC's data processing and validation procedures.
#
#######################################################################

data_FISMUR
_symmetry_cell_setting           monoclinic
_symmetry_space_group_name_H-M   'C 2/c'
_symmetry_Int_Tables_number      15
_space_group_name_Hall           '-C 2yn'
loop_
_symmetry_equiv_pos_site_id
_symmetry_equiv_pos_as_xyz
1 x,y,z
2 -x,y,1/2-z
3 1/2+x,1/2+y,z
4 1/2-x,1/2+y,1/2-z
5 -x,-y,-z
6 x,-y,1/2+z
7 1/2-x,1/2-y,-z
8 1/2+x,1/2-y,1/2+z
_cell_length_a                   27.216(7)
_cell_length_b                   7.5350(18)
_cell_length_c                   21.379(5)
_cell_angle_alpha                90
_cell_angle_beta                 115.320(3)
_cell_angle_gamma                90
_cell_volume                     3963.07
loop_
_atom_site_label
_atom_site_type_symbol
_atom_site_fract_x
_atom_site_fract_y
_atom_site_fract_z
La1 La 0.924261(5) 0.297572(19) 0.617400(7)
O1 O 0.55093(8) 0.2924(2) 0.68881(11)
O2 O 0.61386(8) 0.2935(2) 0.79769(11)
O3 O 0.84814(7) 0.0620(3) 0.60079(10)
O4 O 0.84205(7) 0.5065(3) 0.60816(10)
O5 O 0.91535(8) 0.2793(3) 0.72712(10)
O6 O 0.95629(9) 0.5959(3) 0.67176(13)
H1 H 0.9612 0.6663 0.6427
H2 H 0.9323 0.6434 0.6835
O7 O 0.96597(8) 0.0077(3) 0.67683(10)
H3 H 0.9406 -0.0689 0.6738
H4 H 0.9855 -0.0404 0.6573
O8 O 0.92715(7) 0.5146(2) 1.01934(9)
O9 O 0.84957(7) 0.6568(3) 0.98900(10)
C1 C 0.59864(11) 0.3209(3) 0.73334(15)
O10 O 0.95234(7) 0.1101(3) 0.53713(10)
H5 H 0.9664 0.0108 0.5570
H6 H 0.9242 0.0878 0.4989
O11 O 0.97820(8) 0.3283(3) 0.83399(11)
C2 C 0.93010(11) 0.3270(3) 0.78945(14)
C3 C 0.64002(10) 0.3901(3) 0.71054(13)
C4 C 0.69491(10) 0.3925(3) 0.75638(13)
H7 H 0.7055 0.3550 0.8018
C5 C 0.79302(10) 0.4471(3) 0.78546(13)
C6 C 0.83257(9) 0.3901(3) 0.76461(13)
H8 H 0.8224 0.3544 0.7191
C7 C 0.73426(10) 0.4497(3) 0.73568(13)
C8 C 0.88726(10) 0.3862(3) 0.81159(13)
C9 C 0.62446(10) 0.4517(3) 0.64320(14)
H9 H 0.5879 0.4525 0.6123
C10 C 0.88076(10) 0.5599(3) 0.97367(13)
C11 C 0.80913(10) 0.5019(3) 0.85364(13)
H10 H 0.7831 0.5418 0.8677
C12 C 0.86345(10) 0.4978(3) 0.90089(13)
C13 C 0.90239(10) 0.4388(3) 0.87976(13)
H11 H 0.9388 0.4344 0.9114
C14 C 0.66293(10) 0.5117(4) 0.62209(14)
H12 H 0.6522 0.5537 0.5773
C15 C 0.71751(10) 0.5092(4) 0.66792(14)
H13 H 0.7433 0.5477 0.6532
H14 H 0.8543 -0.0159 0.6318
H15 H 0.8111 0.4594 0.5983
H16 H 0.8174 0.1062 0.5936
H17 H 0.8462 0.5969 0.6195
La1A La 1.075739(5) 0.297572(19) 0.882600(7)
La1E La 0.924261(5) 0.702428(19) 1.117400(7)
O8E O 0.92715(7) 0.4854(2) 0.51934(9)
O9E O 0.84957(7) 0.3432(3) 0.48900(10)
O11A O 1.02180(8) 0.3283(3) 0.66601(11)
O12 O 0.99446(7) 0.7735(2) 0.54491(9)
H18 H 1.0055 0.7954 0.5141
H19 H 0.9752 0.6803 0.5312
O13 O 0.74408(8) 0.7639(2) 0.93362(10)
H20 H 0.7765 0.7518 0.9383
H21 H 0.7500 0.7126 0.9014
O14 O 0.69778(11) 0.2623(3) 0.99639(13)
H22 H 0.6907 0.3523 0.9700
H23 H 0.6850 0.2776 1.0259
loop_
_geom_bond_atom_site_label_1
_geom_bond_atom_site_label_2
_geom_bond_site_symmetry_1
_geom_bond_site_symmetry_2
La1 O3 1_555 1_555
O1 C1 1_555 1_555
O2 C1 1_555 1_555
O3 H14 1_555 1_555
O4 La1 1_555 1_555
O5 La1 1_555 1_555
O6 La1 1_555 1_555
H1 O6 1_555 1_555
H2 O6 1_555 1_555
O7 La1 1_555 1_555
H3 O7 1_555 1_555
H4 O7 1_555 1_555
O8 C10 1_555 1_555
O9 C10 1_555 1_555
C1 C3 1_555 1_555
O10 La1 1_555 1_555
H5 O10 1_555 1_555
H6 O10 1_555 1_555
O11 C2 1_555 1_555
C2 O5 1_555 1_555
C3 C4 1_555 1_555
C4 H7 1_555 1_555
C5 C6 1_555 1_555
C6 H8 1_555 1_555
C7 C4 1_555 1_555
C8 C2 1_555 1_555
C9 C3 1_555 1_555
H9 C9 1_555 1_555
C10 C12 1_555 1_555
C11 C5 1_555 1_555
H10 C11 1_555 1_555
C12 C11 1_555 1_555
C13 C8 1_555 1_555
H11 C13 1_555 1_555
C14 C9 1_555 1_555
H12 C14 1_555 1_555
C15 C7 1_555 1_555
H13 C15 1_555 1_555
H15 O4 1_555 1_555
H16 O3 1_555 1_555
H17 O4 1_555 1_555
O12 H18 1_555 1_555
H19 O12 1_555 1_555
O13 H20 1_555 1_555
H21 O13 1_555 1_555
O14 H22 1_555 1_555
H23 O14 1_555 1_555
La1A O11 1_555 1_555
La1E O8 1_555 1_555
O8E La1 1_555 1_555
O9E La1 1_555 1_555
O11A La1 1_555 1_555
O9 La1E 1_555 1_555
C5 C7 1_555 1_555
C6 C8 1_555 1_555
C12 C13 1_555 1_555
C14 C15 1_555 1_555

#END
