
#######################################################################
#
#                 Cambridge Crystallographic Data Centre
#                                CCDC 
#
#######################################################################
#
# If this CIF has been generated from an entry in the Cambridge 
# Structural Database, then it will include bibliographic, chemical, 
# crystal, experimental, refinement or atomic coordinate data resulting 
# from the CCDC's data processing and validation procedures.
#
#######################################################################

data_FISPON
_symmetry_cell_setting           triclinic
_symmetry_space_group_name_H-M   'P -1'
_symmetry_Int_Tables_number      2
_space_group_name_Hall           '-P 1'
loop_
_symmetry_equiv_pos_site_id
_symmetry_equiv_pos_as_xyz
1 x,y,z
2 -x,-y,-z
_cell_length_a                   11.003(5)
_cell_length_b                   12.974(5)
_cell_length_c                   22.041(5)
_cell_angle_alpha                89.721(5)
_cell_angle_beta                 81.283(5)
_cell_angle_gamma                70.265(5)
_cell_volume                     2923.77
loop_
_atom_site_label
_atom_site_type_symbol
_atom_site_fract_x
_atom_site_fract_y
_atom_site_fract_z
Zn1 Zn 0.42972(4) 0.15315(3) 0.181187(19)
Zn2 Zn -0.45655(4) 0.86740(4) 0.31498(2)
O1 O 0.0436(3) 0.3410(2) 0.53325(11)
O2 O 0.3634(3) 0.1595(2) 0.26932(12)
O3 O 0.2086(3) 0.3014(2) 0.24118(12)
O4 O -0.2967(3) 0.4062(2) 0.57075(12)
O5 O -0.4092(3) 0.6206(2) 0.31849(14)
O6 O -0.4764(3) 0.7713(2) 0.37942(13)
O7 O -0.1076(3) 0.1333(2) 0.53945(12)
O8 O -0.4079(3) -0.0313(3) 0.36153(14)
O9 O -0.3131(3) 0.0601(2) 0.29438(12)
O10 O 0.2821(3) 0.5856(2) -0.05001(12)
O11 O 0.4986(3) 0.2708(2) 0.15981(12)
O12 O 0.4330(3) 0.4318(2) 0.21102(12)
O13 O -0.0472(3) 0.6398(2) -0.02971(11)
O14 O -0.2179(3) 0.7467(2) 0.25809(12)
O15 O -0.4029(3) 0.8397(2) 0.22624(12)
O16 O 0.1176(3) 0.8549(2) -0.05176(11)
O17 O 0.2943(3) 1.0197(2) 0.17873(13)
O18 O 0.3793(3) 1.1051(2) 0.10671(12)
O19 O 0.6030(3) 0.0356(2) 0.18823(14)
N1 N -0.1059(3) 0.2807(3) 0.62888(14)
N2 N 0.1092(3) 0.6868(2) -0.12541(13)
C1 C 0.0075(4) 0.3156(3) 0.63855(17)
H1 H -0.0220 0.3944 0.6465
H2 H 0.0449 0.2804 0.6736
C2 C 0.1086(4) 0.2830(4) 0.58139(18)
H3 H 0.1836 0.3038 0.5860
H4 H 0.1379 0.2044 0.5727
C3 C 0.1025(4) 0.3135(3) 0.47330(17)
C4 C 0.2218(4) 0.2311(3) 0.45535(18)
H5 H 0.2680 0.1906 0.4846
C5 C 0.2714(4) 0.2099(3) 0.39321(18)
H6 H 0.3512 0.1544 0.3810
C6 C 0.2042(4) 0.2698(3) 0.34885(18)
C7 C 0.0845(4) 0.3519(3) 0.36829(18)
H7 H 0.0377 0.3923 0.3392
C8 C 0.0341(4) 0.3746(3) 0.42984(17)
H8 H -0.0453 0.4305 0.4421
C9 C 0.2594(4) 0.2448(3) 0.28253(18)
C10 C -0.2343(4) 0.3528(3) 0.66511(17)
H9 H -0.2201 0.3762 0.7044
H10 H -0.2940 0.3119 0.6729
C11 C -0.2930(4) 0.4517(3) 0.62906(17)
H11 H -0.3803 0.4949 0.6491
H12 H -0.2390 0.4978 0.6246
C12 C -0.3317(4) 0.4766(3) 0.52444(18)
C13 C -0.3142(4) 0.4254(3) 0.46740(18)
H13 H -0.2806 0.3493 0.4626
C14 C -0.3472(4) 0.4885(3) 0.41696(19)
H14 H -0.3345 0.4548 0.3782
C15 C -0.3989(4) 0.6017(3) 0.42511(19)
C16 C -0.4181(4) 0.6518(3) 0.48267(19)
H15 H -0.4535 0.7278 0.4878
C17 C -0.3849(4) 0.5894(3) 0.53281(19)
H16 H -0.3982 0.6231 0.5716
C18 C -0.4318(4) 0.6697(3) 0.36911(19)
C19 C -0.0790(4) 0.1611(3) 0.64031(17)
H17 H -0.1055 0.1524 0.6835
H18 H 0.0139 0.1209 0.6297
C20 C -0.1537(4) 0.1163(3) 0.60190(17)
H19 H -0.1365 0.0389 0.6081
H20 H -0.2470 0.1551 0.6125
C21 C -0.1691(4) 0.1068(3) 0.49535(17)
C22 C -0.2659(4) 0.0595(3) 0.50759(18)
H21 H -0.2940 0.0447 0.5476
C23 C -0.3194(4) 0.0349(3) 0.45904(18)
H22 H -0.3828 0.0018 0.4667
C24 C -0.2804(4) 0.0585(3) 0.39892(18)
C25 C -0.1850(4) 0.1068(3) 0.38812(18)
H23 H -0.1584 0.1234 0.3483
C26 C -0.1289(4) 0.1305(3) 0.43564(17)
H24 H -0.0644 0.1624 0.4278
C27 C -0.3377(4) 0.0276(3) 0.34777(19)
C28 C 0.2413(4) 0.6072(3) -0.15149(17)
H25 H 0.3027 0.6460 -0.1616
H26 H 0.2359 0.5710 -0.1889
C29 C 0.2885(4) 0.5227(3) -0.10456(17)
H27 H 0.2326 0.4785 -0.0969
H28 H 0.3775 0.4747 -0.1188
C30 C 0.3241(4) 0.5285(3) 0.00013(18)
C31 C 0.3904(4) 0.4171(3) -0.00188(18)
H29 H 0.4094 0.3755 -0.0386
C32 C 0.4284(4) 0.3676(3) 0.05141(18)
H30 H 0.4719 0.2923 0.0503
C33 C 0.4026(4) 0.4286(3) 0.10653(17)
C34 C 0.3363(4) 0.5418(3) 0.10697(18)
H31 H 0.3181 0.5839 0.1434
C35 C 0.2975(4) 0.5918(3) 0.05463(18)
H32 H 0.2540 0.6671 0.0556
C36 C 0.4460(3) 0.3740(3) 0.16397(17)
C37 C -0.0007(4) 0.6471(3) -0.13538(17)
H33 H -0.0336 0.6761 -0.1726
H34 H 0.0310 0.5677 -0.1399
C38 C -0.1077(4) 0.6851(3) -0.08140(17)
H35 H -0.1422 0.7645 -0.0771
H36 H -0.1785 0.6583 -0.0857
C39 C -0.1122(4) 0.6774(3) 0.02874(18)
C40 C -0.0403(4) 0.6383(3) 0.07567(18)
H37 H 0.0454 0.5902 0.0666
C41 C -0.0965(4) 0.6708(3) 0.13557(18)
H38 H -0.0476 0.6451 0.1669
C42 C -0.2243(4) 0.7410(3) 0.15024(17)
C43 C -0.2960(4) 0.7797(3) 0.10270(17)
H39 H -0.3820 0.8270 0.1119
C44 C -0.2403(4) 0.7484(3) 0.04192(17)
H40 H -0.2883 0.7747 0.0104
C45 C -0.2814(4) 0.7753(3) 0.21635(19)
C46 C 0.0876(4) 0.8009(3) -0.14788(17)
H41 H 0.1161 0.7966 -0.1919
H42 H -0.0050 0.8436 -0.1397
C47 C 0.1624(4) 0.8567(3) -0.11628(17)
H43 H 0.2558 0.8176 -0.1261
H44 H 0.1444 0.9315 -0.1288
C48 C 0.1725(4) 0.8995(3) -0.01213(17)
C49 C 0.1258(4) 0.8970(3) 0.05015(17)
H45 H 0.0622 0.8655 0.0623
C50 C 0.1739(4) 0.9411(3) 0.09350(17)
H46 H 0.1429 0.9388 0.1350
C51 C 0.2695(4) 0.9896(3) 0.07596(17)
C52 C 0.3153(4) 0.9913(3) 0.01359(17)
H47 H 0.3786 1.0232 0.0014
C53 C 0.2681(4) 0.9461(3) -0.03090(18)
H48 H 0.2999 0.9470 -0.0724
C54 C 0.3177(4) 1.0407(3) 0.12386(17)
O29 O -0.6433(3) 0.9623(2) 0.31178(12)
H65 H -0.6346 1.0269 0.2925
H66 H -0.6756 0.9399 0.2907
H67 H 0.599(4) -0.019(3) 0.1903(18)
H68 H 0.616(5) 0.055(4) 0.218(2)
Zn1_2 Zn 0.42972(4) 1.15315(3) 0.181187(19)
Zn2_2 Zn -0.45655(4) -0.13260(4) 0.31498(2)
O8_2 O -0.4079(3) 0.9687(3) 0.36153(14)
O18_2 O 0.3793(3) 0.1051(2) 0.10671(12)
O20 O -0.4006(3) 1.3031(2) 0.29436(14)
H49 H -0.4619 1.3391 0.2712
H50 H -0.3907 1.2374 0.2808
O21 O -0.1376 1.2915 0.2897
H51 H -0.2227 1.2915 0.3001
H52 H -0.1322 1.3627 0.2881
O22 O 0.0696 1.0879 0.2726
H69 H 0.146(6) 1.079(5) 0.240(3)
H70 H 0.012(6) 1.166(5) 0.285(3)
O23 O -0.0583 0.9587 0.2275
H53 H -0.0150 1.0056 0.2457
H54 H -0.1549 0.9773 0.2481
O24 O 0.2999 0.8273 0.2292
H55 H 0.3773 0.7676 0.2211
H56 H 0.3028 0.8619 0.2557
O25 O 0.4868 0.6272 0.2158
H57 H 0.4747 0.6910 0.2004
H58 H 0.5206 0.6154 0.2509
O26 O 0.1118 0.7364 0.2076
H59 H 0.1777 0.7535 0.2207
H60 H 0.0334 0.7986 0.2076
O27 O 0.0942 0.5263 0.2356
H61 H 0.1597 0.4701 0.2454
H62 H 0.1342 0.5623 0.2224
O28 O -0.1454(3) 0.4997(2) 0.27125(15)
H63 H -0.0869 0.5281 0.2680
H64 H -0.2262 0.5642 0.2841
loop_
_geom_bond_atom_site_label_1
_geom_bond_atom_site_label_2
_geom_bond_site_symmetry_1
_geom_bond_site_symmetry_2
Zn1 O2 1_555 1_555
Zn2 O6 1_555 1_555
O1 C2 1_555 1_555
O2 C9 1_555 1_555
O3 C9 1_555 1_555
O4 C11 1_555 1_555
O5 C18 1_555 1_555
O6 C18 1_555 1_555
O7 C20 1_555 1_555
O8 C27 1_555 1_555
O9 C27 1_555 1_555
O10 C29 1_555 1_555
O11 Zn1 1_555 1_555
O12 C36 1_555 1_555
O13 C38 1_555 1_555
O14 C45 1_555 1_555
O15 Zn2 1_555 1_555
O16 C47 1_555 1_555
O17 C54 1_555 1_555
O18 C54 1_555 1_555
O19 Zn1 1_555 1_555
N1 C1 1_555 1_555
N2 C28 1_555 1_555
C1 H1 1_555 1_555
H2 C1 1_555 1_555
C2 C1 1_555 1_555
H3 C2 1_555 1_555
H4 C2 1_555 1_555
C3 O1 1_555 1_555
C4 C3 1_555 1_555
H5 C4 1_555 1_555
C5 C4 1_555 1_555
H6 C5 1_555 1_555
C6 C5 1_555 1_555
C7 C6 1_555 1_555
H7 C7 1_555 1_555
C8 C3 1_555 1_555
H8 C8 1_555 1_555
C9 C6 1_555 1_555
C10 N1 1_555 1_555
H9 C10 1_555 1_555
H10 C10 1_555 1_555
C11 C10 1_555 1_555
H11 C11 1_555 1_555
H12 C11 1_555 1_555
C12 O4 1_555 1_555
C13 C12 1_555 1_555
H13 C13 1_555 1_555
C14 C13 1_555 1_555
H14 C14 1_555 1_555
C15 C14 1_555 1_555
C16 C15 1_555 1_555
H15 C16 1_555 1_555
C17 C12 1_555 1_555
H16 C17 1_555 1_555
C18 C15 1_555 1_555
C19 N1 1_555 1_555
H17 C19 1_555 1_555
H18 C19 1_555 1_555
C20 C19 1_555 1_555
H19 C20 1_555 1_555
H20 C20 1_555 1_555
C21 O7 1_555 1_555
C22 C21 1_555 1_555
H21 C22 1_555 1_555
C23 C22 1_555 1_555
H22 C23 1_555 1_555
C24 C23 1_555 1_555
C25 C24 1_555 1_555
H23 C25 1_555 1_555
C26 C21 1_555 1_555
H24 C26 1_555 1_555
C27 C24 1_555 1_555
C28 H25 1_555 1_555
H26 C28 1_555 1_555
C29 C28 1_555 1_555
H27 C29 1_555 1_555
H28 C29 1_555 1_555
C30 O10 1_555 1_555
C31 C30 1_555 1_555
H29 C31 1_555 1_555
C32 C31 1_555 1_555
H30 C32 1_555 1_555
C33 C32 1_555 1_555
C34 C33 1_555 1_555
H31 C34 1_555 1_555
C35 C30 1_555 1_555
H32 C35 1_555 1_555
C36 O11 1_555 1_555
C37 N2 1_555 1_555
H33 C37 1_555 1_555
H34 C37 1_555 1_555
C38 C37 1_555 1_555
H35 C38 1_555 1_555
H36 C38 1_555 1_555
C39 O13 1_555 1_555
C40 C39 1_555 1_555
H37 C40 1_555 1_555
C41 C40 1_555 1_555
H38 C41 1_555 1_555
C42 C41 1_555 1_555
C43 C42 1_555 1_555
H39 C43 1_555 1_555
C44 C39 1_555 1_555
H40 C44 1_555 1_555
C45 O15 1_555 1_555
C46 N2 1_555 1_555
H41 C46 1_555 1_555
H42 C46 1_555 1_555
C47 C46 1_555 1_555
H43 C47 1_555 1_555
H44 C47 1_555 1_555
C48 O16 1_555 1_555
C49 C48 1_555 1_555
H45 C49 1_555 1_555
C50 C49 1_555 1_555
H46 C50 1_555 1_555
C51 C50 1_555 1_555
C52 C51 1_555 1_555
H47 C52 1_555 1_555
C53 C48 1_555 1_555
H48 C53 1_555 1_555
C54 C51 1_555 1_555
O20 H49 1_555 1_555
H50 O20 1_555 1_555
O21 H51 1_555 1_555
H52 O21 1_555 1_555
O22 H69 1_555 1_555
O23 H53 1_555 1_555
H54 O23 1_555 1_555
O24 H55 1_555 1_555
H56 O24 1_555 1_555
O25 H57 1_555 1_555
H58 O25 1_555 1_555
O26 H59 1_555 1_555
H60 O26 1_555 1_555
O27 H61 1_555 1_555
H62 O27 1_555 1_555
O28 H63 1_555 1_555
H64 O28 1_555 1_555
O29 Zn2 1_555 1_555
H65 O29 1_555 1_555
H66 O29 1_555 1_555
H67 O19 1_555 1_555
H68 O19 1_555 1_555
H70 O22 1_555 1_555
Zn1_2 O18 1_555 1_555
Zn2_2 O8 1_555 1_555
O8_2 Zn2 1_555 1_555
O18_2 Zn1 1_555 1_555
C7 C8 1_555 1_555
C16 C17 1_555 1_555
C25 C26 1_555 1_555
C33 C36 1_555 1_555
C34 C35 1_555 1_555
C42 C45 1_555 1_555
C43 C44 1_555 1_555
C52 C53 1_555 1_555

#END
