
#######################################################################
#
#                 Cambridge Crystallographic Data Centre
#                                CCDC 
#
#######################################################################
#
# If this CIF has been generated from an entry in the Cambridge 
# Structural Database, then it will include bibliographic, chemical, 
# crystal, experimental, refinement or atomic coordinate data resulting 
# from the CCDC's data processing and validation procedures.
#
#######################################################################

data_FISRUW
_symmetry_cell_setting           monoclinic
_symmetry_space_group_name_H-M   'P 21/c'
_symmetry_Int_Tables_number      14
_space_group_name_Hall           '-P 2ybc'
loop_
_symmetry_equiv_pos_site_id
_symmetry_equiv_pos_as_xyz
1 x,y,z
2 -x,1/2+y,1/2-z
3 -x,-y,-z
4 x,1/2-y,1/2+z
_cell_length_a                   13.690(3)
_cell_length_b                   7.4779(15)
_cell_length_c                   21.285(7)
_cell_angle_alpha                90
_cell_angle_beta                 116.04(2)
_cell_angle_gamma                90
_cell_volume                     1957.8
loop_
_atom_site_label
_atom_site_type_symbol
_atom_site_fract_x
_atom_site_fract_y
_atom_site_fract_z
Dy1 Dy 0.140915(9) 0.263274(15) -0.112053(6)
O1 O 0.11772(14) 0.4606(2) -0.02800(9)
O2 O 0.89768(15) 0.7204(2) 0.29580(10)
O3 O 0.04315(16) 0.7177(3) 0.15954(11)
O4 O 0.77117(16) 0.7188(2) 0.18410(10)
O5 O 0.17714(16) 0.7434(2) 0.26719(10)
C1 C 0.8014(2) 0.6995(3) 0.24942(14)
O6 O 0.10268(15) 0.0958(2) -0.02959(9)
H1 H 0.1212 0.1370 0.0113
H2 H 0.0708 -0.0048 -0.0411
C2 C 0.1416(2) 0.7090(3) 0.20280(14)
O7 O 0.28551(15) 0.4060(2) -0.01060(9)
O8 O 0.07488(15) -0.0044(2) -0.17711(10)
H3 H 0.0692 -0.0988 -0.1567
H4 H 0.0861 -0.0410 -0.2112
C3 C 0.4087(2) 0.5927(3) 0.19824(13)
C4 C 0.2192(2) 0.4644(3) 0.01107(13)
C5 C 0.5263(2) 0.5960(3) 0.24735(13)
N1 N 0.39120(19) -0.1858(3) -0.04695(12)
O9 O 0.28783(15) 0.0609(2) -0.06090(10)
C6 C 0.2596(2) 0.5335(3) 0.08425(13)
C7 C 0.1854(2) 0.5920(3) 0.10796(13)
H5 H 0.1115 0.5919 0.0779
C8 C 0.3702(2) 0.5323(3) 0.12974(13)
H6 H 0.4194 0.4903 0.1139
O10 O 0.09539(16) 0.5482(2) -0.16669(10)
H7 H 0.0647 0.5555 -0.2110
H8 H 0.0582 0.6150 -0.1531
C9 C 0.2214(2) 0.6505(3) 0.17635(13)
C10 C 0.7154(2) 0.6459(3) 0.27252(13)
C11 C 0.6687(2) 0.5589(4) 0.36525(14)
H9 H 0.6898 0.5319 0.4121
C12 C 0.5598(2) 0.5551(3) 0.31771(14)
H10 H 0.5080 0.5247 0.3331
C13 C 0.6057(2) 0.6413(3) 0.22559(13)
H11 H 0.5848 0.6689 0.1788
C14 C 0.3176(2) -0.0672(4) -0.08539(15)
H12 H 0.2861 -0.0805 -0.1337
C15 C 0.7455(2) 0.6032(3) 0.34235(14)
H13 H 0.8187 0.6046 0.3740
C16 C 0.4439(2) -0.1714(4) 0.02880(14)
H14 H 0.4386 -0.0505 0.0422
H15 H 0.5191 -0.2038 0.0461
H16 H 0.4090 -0.2502 0.0482
C17 C 0.3324(2) 0.6512(3) 0.22091(13)
H17 H 0.3563 0.6914 0.2666
C18 C 0.4183(3) -0.3385(4) -0.07808(17)
H18 H 0.3786 -0.3321 -0.1281
H19 H 0.3994 -0.4466 -0.0617
H20 H 0.4949 -0.3382 -0.0651
Dy1B Dy -0.140915(9) 0.736726(15) 0.112053(6)
Dy1B_2 Dy 0.859085(9) 0.736726(15) 0.112053(6)
O3B O -0.04315(16) 0.2823(3) -0.15954(11)
O4B O 0.22883(16) 0.2812(2) -0.18410(10)
O11 O 1.00311(16) 0.7264(2) 0.44438(11)
H21 H 0.9574 0.7649 0.4048
H22 H 1.0270 0.8363 0.4495
loop_
_geom_bond_atom_site_label_1
_geom_bond_atom_site_label_2
_geom_bond_site_symmetry_1
_geom_bond_site_symmetry_2
Dy1 O1 1_555 1_555
O1 C4 1_555 1_555
O2 C1 1_555 1_555
O3 C2 1_555 1_555
O4 C1 1_555 1_555
O5 C2 1_555 1_555
C1 C10 1_555 1_555
O6 Dy1 1_555 1_555
H1 O6 1_555 1_555
H2 O6 1_555 1_555
C2 C9 1_555 1_555
O7 Dy1 1_555 1_555
O8 Dy1 1_555 1_555
H3 O8 1_555 1_555
H4 O8 1_555 1_555
C3 C5 1_555 1_555
C4 O7 1_555 1_555
C5 C12 1_555 1_555
N1 C14 1_555 1_555
O9 Dy1 1_555 1_555
C6 C4 1_555 1_555
C7 C6 1_555 1_555
H5 C7 1_555 1_555
C8 C3 1_555 1_555
H6 C8 1_555 1_555
O10 Dy1 1_555 1_555
H7 O10 1_555 1_555
H8 O10 1_555 1_555
C9 C7 1_555 1_555
C10 C13 1_555 1_555
C11 H9 1_555 1_555
C12 C11 1_555 1_555
H10 C12 1_555 1_555
C13 C5 1_555 1_555
H11 C13 1_555 1_555
C14 O9 1_555 1_555
H12 C14 1_555 1_555
C15 C10 1_555 1_555
H13 C15 1_555 1_555
C16 N1 1_555 1_555
H14 C16 1_555 1_555
H15 C16 1_555 1_555
H16 C16 1_555 1_555
C17 C3 1_555 1_555
H17 C17 1_555 1_555
C18 N1 1_555 1_555
H18 C18 1_555 1_555
H19 C18 1_555 1_555
H20 C18 1_555 1_555
O11 H21 1_555 1_555
H22 O11 1_555 1_555
Dy1B O3 1_555 1_555
Dy1B_2 O4 1_555 1_555
O3B Dy1 1_555 1_555
O4B Dy1 1_555 1_555
C6 C8 1_555 1_555
C9 C17 1_555 1_555
C11 C15 1_555 1_555

#END
