
#######################################################################
#
#                 Cambridge Crystallographic Data Centre
#                                CCDC 
#
#######################################################################
#
# If this CIF has been generated from an entry in the Cambridge 
# Structural Database, then it will include bibliographic, chemical, 
# crystal, experimental, refinement or atomic coordinate data resulting 
# from the CCDC's data processing and validation procedures.
#
#######################################################################

data_FISSEH
_symmetry_cell_setting           monoclinic
_symmetry_space_group_name_H-M   'P 21/c'
_symmetry_Int_Tables_number      14
_space_group_name_Hall           '-P 2ybc'
loop_
_symmetry_equiv_pos_site_id
_symmetry_equiv_pos_as_xyz
1 x,y,z
2 -x,1/2+y,1/2-z
3 -x,-y,-z
4 x,1/2-y,1/2+z
_cell_length_a                   13.683(3)
_cell_length_b                   7.6057(15)
_cell_length_c                   21.533(7)
_cell_angle_alpha                90
_cell_angle_beta                 116.22(2)
_cell_angle_gamma                90
_cell_volume                     2010.33
loop_
_atom_site_label
_atom_site_type_symbol
_atom_site_fract_x
_atom_site_fract_y
_atom_site_fract_z
Gd1 Gd 0.641166(18) 0.73162(3) 0.887625(11)
O1 O 0.7301(4) 0.7142(5) 0.8156(2)
O2 O 0.6034(3) 0.7163(6) 0.7056(2)
O3 O 1.2138(3) 0.4023(5) 1.00805(19)
O4 O 1.3820(3) 0.4612(5) 1.02682(18)
O5 O 1.4565(3) 0.7011(6) 0.8378(2)
O6 O 1.3216(4) 0.7405(6) 0.7336(2)
O7 O 0.5987(4) 0.9014(5) 0.9683(2)
H1 H 0.5598 0.8564 0.9859
H2 H 0.6227 1.0057 0.9789
O8 O 0.5734(3) 0.9977(5) 0.8213(2)
H3 H 0.5519 1.0825 0.8380
H4 H 0.5709 1.0066 0.7813
O9 O 0.6020(4) 0.4417(5) 0.8365(2)
H5 H 0.5633 0.3707 0.8467
H6 H 0.6271 0.4107 0.8084
O10 O 0.7869(4) 0.9395(6) 0.9376(2)
C1 C 0.8181(6) 1.0643(9) 0.9137(3)
H7 H 0.7895 1.0740 0.8658
C2 C 0.9171(7) 1.3317(11) 0.9193(4)
H8 H 0.8796 1.3200 0.8699
H9 H 0.9943 1.3326 0.9338
H10 H 0.8958 1.4396 0.9329
C3 C 0.9363(7) 1.1800(11) 1.0262(3)
H11 H 0.8941 1.2529 1.0417
H12 H 1.0097 1.2233 1.0450
H13 H 0.9365 1.0615 1.0416
N1 N 0.8890(4) 1.1835(7) 0.9517(3)
C4 C 0.6991(4) 0.6959(7) 0.7511(3)
C5 C 0.7855(4) 0.6441(7) 0.7281(3)
C6 C 0.7543(4) 0.6018(7) 0.6589(3)
H14 H 0.6809 0.6042 0.6276
C7 C 0.8305(5) 0.5567(8) 0.6364(3)
H15 H 0.8094 0.5291 0.5901
C8 C 0.9389(4) 0.5528(7) 0.6835(3)
H16 H 0.9904 0.5215 0.6683
C9 C 0.9739(4) 0.5944(6) 0.7533(2)
C10 C 0.8947(4) 0.6380(7) 0.7752(3)
H17 H 0.9154 0.6629 0.8216
C11 C 1.0910(4) 0.5906(6) 0.8016(2)
C12 C 1.1302(4) 0.5310(7) 0.8692(2)
H18 H 1.0809 0.4901 0.8848
C13 C 1.1676(4) 0.6471(7) 0.7792(3)
H19 H 1.1438 0.6866 0.7340
C14 C 1.2783(4) 0.6451(6) 0.8232(2)
C15 C 1.3145(4) 0.5878(6) 0.8910(2)
H20 H 1.3886 0.5880 0.9208
C16 C 1.2410(4) 0.5304(6) 0.9146(2)
C17 C 1.2799(4) 0.4632(6) 0.9869(2)
C18 C 1.3570(4) 0.7009(7) 0.7962(3)
Gd1_2 Gd 1.641166(18) 0.73162(3) 0.887625(11)
Gd1B Gd 1.358834(18) 0.26838(3) 1.112375(11)
O3B O 0.7862(3) 0.5977(5) 0.99195(19)
O4B O 0.6180(3) 0.5388(5) 0.97318(18)
O5_2 O 0.4565(3) 0.7011(6) 0.8378(2)
O11 O 0.5049(4) 0.2256(5) 0.9446(2)
H21 H 0.474(5) 0.242(6) 0.9011(4)
H22 H 0.546(4) 0.314(5) 0.961(2)
loop_
_geom_bond_atom_site_label_1
_geom_bond_atom_site_label_2
_geom_bond_site_symmetry_1
_geom_bond_site_symmetry_2
Gd1 O1 1_555 1_555
O1 C4 1_555 1_555
O2 C4 1_555 1_555
O3 C17 1_555 1_555
O4 C17 1_555 1_555
O5 C18 1_555 1_555
O6 C18 1_555 1_555
O7 Gd1 1_555 1_555
H1 O7 1_555 1_555
H2 O7 1_555 1_555
O8 Gd1 1_555 1_555
H3 O8 1_555 1_555
H4 O8 1_555 1_555
O9 Gd1 1_555 1_555
H5 O9 1_555 1_555
H6 O9 1_555 1_555
O10 Gd1 1_555 1_555
C1 O10 1_555 1_555
H7 C1 1_555 1_555
C2 H8 1_555 1_555
H9 C2 1_555 1_555
H10 C2 1_555 1_555
C3 H11 1_555 1_555
H12 C3 1_555 1_555
H13 C3 1_555 1_555
N1 C1 1_555 1_555
C4 C5 1_555 1_555
C5 C6 1_555 1_555
C6 H14 1_555 1_555
C7 C6 1_555 1_555
H15 C7 1_555 1_555
C8 C7 1_555 1_555
H16 C8 1_555 1_555
C9 C8 1_555 1_555
C10 C5 1_555 1_555
H17 C10 1_555 1_555
C11 C9 1_555 1_555
C12 C11 1_555 1_555
H18 C12 1_555 1_555
C13 C11 1_555 1_555
H19 C13 1_555 1_555
C14 C13 1_555 1_555
C15 C14 1_555 1_555
H20 C15 1_555 1_555
C16 C12 1_555 1_555
C17 C16 1_555 1_555
C18 C14 1_555 1_555
O11 H21 1_555 1_555
H22 O11 1_555 1_555
Gd1_2 O5 1_555 1_555
Gd1B O3 1_555 1_555
O3B Gd1 1_555 1_555
O4B Gd1 1_555 1_555
O5_2 Gd1 1_555 1_555
O4 Gd1B 1_555 1_555
C2 N1 1_555 1_555
C3 N1 1_555 1_555
C9 C10 1_555 1_555
C15 C16 1_555 1_555

#END
