
#######################################################################
#
#                 Cambridge Crystallographic Data Centre
#                                CCDC 
#
#######################################################################
#
# If this CIF has been generated from an entry in the Cambridge 
# Structural Database, then it will include bibliographic, chemical, 
# crystal, experimental, refinement or atomic coordinate data resulting 
# from the CCDC's data processing and validation procedures.
#
#######################################################################

data_FISSOR
_symmetry_cell_setting           monoclinic
_symmetry_space_group_name_H-M   'C 2/c'
_symmetry_Int_Tables_number      15
_space_group_name_Hall           '-C 2yn'
loop_
_symmetry_equiv_pos_site_id
_symmetry_equiv_pos_as_xyz
1 x,y,z
2 -x,y,1/2-z
3 1/2+x,1/2+y,z
4 1/2-x,1/2+y,1/2-z
5 -x,-y,-z
6 x,-y,1/2+z
7 1/2-x,1/2-y,-z
8 1/2+x,1/2-y,1/2+z
_cell_length_a                   27.185(5)
_cell_length_b                   7.5951(15)
_cell_length_c                   21.260(4)
_cell_angle_alpha                90
_cell_angle_beta                 114.93(3)
_cell_angle_gamma                90
_cell_volume                     3980.6
loop_
_atom_site_label
_atom_site_type_symbol
_atom_site_fract_x
_atom_site_fract_y
_atom_site_fract_z
Pr1 Pr 0.574824(8) 0.69857(3) -0.118206(10)
O1 O 0.64848(11) 0.6511(4) 0.00787(15)
O2 O 0.57074(11) 0.5146(4) -0.02170(15)
O3 O 0.52101(12) 0.3282(5) 0.16696(17)
O4 O 0.58368(13) 0.2869(5) 0.27331(16)
O5 O 0.88511(13) 0.3014(5) 0.19941(18)
O6 O 0.94769(12) 0.3030(5) 0.30883(18)
O7 O 0.65613(13) 0.4942(5) -0.10912(18)
H1 H 0.6425 0.4228 -0.1429
H2 H 0.6762 0.4374 -0.0727
O8 O 0.65093(13) 0.9205(5) -0.09940(17)
H3 H 0.6423 0.9891 -0.1340
H4 H 0.6848 0.9200 -0.0760
O9 O 0.54887(13) 0.8836(5) -0.03774(16)
H5 H 0.5379 0.9892 -0.0413
H6 H 0.5320 0.8280 -0.0184
O10 O 0.54366(15) 0.4035(5) -0.1717(2)
H7 H 0.5667 0.3273 -0.1712
H8 H 0.5101 0.3782 -0.1893
O11 O 0.53662(13) 0.9900(5) -0.17272(18)
H9 H 0.5513 1.0464 -0.1949
H10 H 0.5090 1.0322 -0.1690
C1 C 0.89982(17) 0.3286(6) 0.2641(2)
C2 C 0.85806(15) 0.3943(6) 0.2872(2)
C3 C 0.87301(16) 0.4496(6) 0.3549(2)
H11 H 0.9094 0.4482 0.3862
C4 C 0.83446(17) 0.5064(7) 0.3762(2)
H12 H 0.8448 0.5451 0.4215
C5 C 0.77983(17) 0.5060(6) 0.3297(2)
H13 H 0.7539 0.5437 0.3445
C6 C 0.76368(15) 0.4501(5) 0.2619(2)
C7 C 0.80382(15) 0.3956(6) 0.2413(2)
H14 H 0.7938 0.3595 0.1958
C8 C 0.70540(15) 0.4464(5) 0.2123(2)
C9 C 0.68878(15) 0.5008(6) 0.1439(2)
H15 H 0.7145 0.5420 0.1292
C10 C 0.63441(15) 0.4945(5) 0.0969(2)
C11 C 0.61725(16) 0.5563(5) 0.0235(2)
C12 C 0.59571(15) 0.4368(5) 0.1185(2)
H16 H 0.5594 0.4320 0.0872
C13 C 0.61117(15) 0.3861(5) 0.1873(2)
C14 C 0.66579(15) 0.3899(6) 0.2336(2)
H17 H 0.6761 0.3544 0.2793
C15 C 0.56865(15) 0.3297(5) 0.2108(2)
Pr1D Pr 0.425176(8) 0.30143(3) 0.118206(10)
Pr1E Pr 0.574824(8) 0.30143(3) 0.381794(10)
O3D O 0.47899(12) 0.6718(5) -0.16696(17)
O4E O 0.58368(13) 0.7131(5) -0.22669(16)
O12 O 0.49528(13) 0.7786(4) 0.04636(18)
H18 H 0.5155 0.7664 0.0895
H19 H 0.4722 0.6962 0.0327
O13 O 0.6969(5) 0.2285(12) 0.9979(5)
O14 O 0.7533(2) 0.7700(8) 0.0631(3)
H20 H 0.7211 0.7926 0.0327
H21 H 0.7808 0.8383 0.0809
loop_
_geom_bond_atom_site_label_1
_geom_bond_atom_site_label_2
_geom_bond_site_symmetry_1
_geom_bond_site_symmetry_2
Pr1 O1 1_555 1_555
O1 C11 1_555 1_555
O2 Pr1 1_555 1_555
O3 C15 1_555 1_555
O4 C15 1_555 1_555
O5 C1 1_555 1_555
O6 C1 1_555 1_555
O7 Pr1 1_555 1_555
H1 O7 1_555 1_555
H2 O7 1_555 1_555
O8 Pr1 1_555 1_555
H3 O8 1_555 1_555
H4 O8 1_555 1_555
O9 Pr1 1_555 1_555
H5 O9 1_555 1_555
H6 O9 1_555 1_555
O10 Pr1 1_555 1_555
H7 O10 1_555 1_555
H8 O10 1_555 1_555
O11 Pr1 1_555 1_555
H9 O11 1_555 1_555
H10 O11 1_555 1_555
C1 C2 1_555 1_555
C2 C3 1_555 1_555
C3 H11 1_555 1_555
C4 C3 1_555 1_555
H12 C4 1_555 1_555
C5 C4 1_555 1_555
H13 C5 1_555 1_555
C6 C5 1_555 1_555
C7 C2 1_555 1_555
H14 C7 1_555 1_555
C8 C6 1_555 1_555
C9 C8 1_555 1_555
H15 C9 1_555 1_555
C10 C9 1_555 1_555
C11 O2 1_555 1_555
C12 C10 1_555 1_555
H16 C12 1_555 1_555
C13 C12 1_555 1_555
C14 C8 1_555 1_555
H17 C14 1_555 1_555
C15 C13 1_555 1_555
O12 H18 1_555 1_555
H19 O12 1_555 1_555
O14 H20 1_555 1_555
H21 O14 1_555 1_555
Pr1D O3 1_555 1_555
Pr1E O4 1_555 1_555
O3D Pr1 1_555 1_555
O4E Pr1 1_555 1_555
C6 C7 1_555 1_555
C10 C11 1_555 1_555
C13 C14 1_555 1_555

#END
