
#######################################################################
#
#                 Cambridge Crystallographic Data Centre
#                                CCDC 
#
#######################################################################
#
# If this CIF has been generated from an entry in the Cambridge 
# Structural Database, then it will include bibliographic, chemical, 
# crystal, experimental, refinement or atomic coordinate data resulting 
# from the CCDC's data processing and validation procedures.
#
#######################################################################

data_FISSIL
_symmetry_cell_setting           monoclinic
_symmetry_space_group_name_H-M   'C 2/c'
_symmetry_Int_Tables_number      15
_space_group_name_Hall           '-C 2yn'
loop_
_symmetry_equiv_pos_site_id
_symmetry_equiv_pos_as_xyz
1 x,y,z
2 -x,y,1/2-z
3 1/2+x,1/2+y,z
4 1/2-x,1/2+y,1/2-z
5 -x,-y,-z
6 x,-y,1/2+z
7 1/2-x,1/2-y,-z
8 1/2+x,1/2-y,1/2+z
_cell_length_a                   27.270(5)
_cell_length_b                   7.6022(15)
_cell_length_c                   21.167(4)
_cell_angle_alpha                90
_cell_angle_beta                 115.12(3)
_cell_angle_gamma                90
_cell_volume                     3973.14
loop_
_atom_site_label
_atom_site_type_symbol
_atom_site_fract_x
_atom_site_fract_y
_atom_site_fract_z
Nd1 Nd 0.073912(15) 0.20470(6) -0.11840(2)
O1 O 0.0683(2) 0.0175(8) -0.0237(3)
O2 O 0.3833(3) -0.1941(9) 0.1975(3)
O3 O 0.4457(2) -0.1937(9) 0.3065(4)
O4 O 0.0497(3) 0.3839(8) -0.0359(3)
H1 H 0.0311 0.3203 -0.0190
H2 H 0.0356 0.4860 -0.0439
O5 O 0.0370(3) 0.4984(9) -0.1713(4)
H3 H 0.0107 0.5683 -0.1803
H4 H 0.0625 0.5503 -0.1769
O6 O 0.1472(2) 0.1439(9) 0.0052(3)
O7 O 0.0204(2) -0.1760(10) 0.1671(3)
O8 O 0.0828(3) -0.2175(9) 0.2726(3)
O9 O 0.1500(2) 0.4174(9) -0.0978(3)
H5 H 0.1762 0.3635 -0.1007
H6 H 0.1394 0.5001 -0.1277
O10 O 0.0430(4) -0.0896(11) -0.1745(5)
H7 H 0.0160 -0.1270 -0.1670
H8 H 0.0691 -0.1647 -0.1574
C1 C 0.3021(3) -0.1063(11) 0.2400(4)
H9 H 0.2921 -0.1376 0.1937
C2 C 0.1871(3) -0.0044(11) 0.1424(4)
H10 H 0.2126 0.0360 0.1274
C3 C 0.2620(3) -0.0577(10) 0.2614(4)
C4 C 0.1647(3) -0.1170(11) 0.2326(4)
H11 H 0.1750 -0.1553 0.2782
C5 C 0.3982(4) -0.1697(11) 0.2623(5)
C6 C 0.3319(3) -0.0036(13) 0.3760(4)
H12 H 0.3418 0.0324 0.4218
C7 C 0.2042(3) -0.0590(10) 0.2117(4)
C8 C 0.1331(3) -0.0092(11) 0.0957(4)
C9 C 0.1152(3) 0.0554(11) 0.0216(4)
C10 C 0.2779(3) -0.0058(13) 0.3292(4)
H13 H 0.2518 0.0287 0.3441
C11 C 0.0946(3) -0.0680(11) 0.1180(4)
H14 H 0.0583 -0.0735 0.0869
C12 C 0.1110(3) -0.1182(11) 0.1869(4)
C13 C 0.3710(3) -0.0550(12) 0.3545(5)
H15 H 0.4073 -0.0537 0.3859
C14 C 0.3559(3) -0.1086(11) 0.2862(4)
C15 C 0.0682(3) -0.1756(10) 0.2109(4)
O11 O 0.1525(3) -0.0030(11) -0.1122(4)
H16 H 0.1821 0.0544 -0.0968
H17 H 0.1455 -0.0415 -0.1529
Nd1D Nd -0.073912(15) -0.20470(6) 0.11840(2)
Nd1E Nd 0.073912(15) -0.20470(6) 0.38160(2)
O7D O -0.0204(2) 0.1760(10) -0.1671(3)
O8E O 0.0828(3) 0.2175(9) -0.2274(3)
O12 O 0.0037(3) 0.7218(9) 0.9516(4)
H18 H -0.0158 0.7204 0.9078
H19 H 0.0240 0.8121 0.9622
O13 O 0.2455(5) 0.236(2) 0.9358(8)
O14 O 0.2311(18) 0.778(4) 0.0181(16)
loop_
_geom_bond_atom_site_label_1
_geom_bond_atom_site_label_2
_geom_bond_site_symmetry_1
_geom_bond_site_symmetry_2
Nd1 O1 1_555 1_555
O1 C9 1_555 1_555
O2 C5 1_555 1_555
O3 C5 1_555 1_555
O4 Nd1 1_555 1_555
H1 O4 1_555 1_555
H2 O4 1_555 1_555
O5 Nd1 1_555 1_555
H3 O5 1_555 1_555
H4 O5 1_555 1_555
O6 Nd1 1_555 1_555
O7 C15 1_555 1_555
O8 C15 1_555 1_555
O9 Nd1 1_555 1_555
H5 O9 1_555 1_555
H6 O9 1_555 1_555
O10 Nd1 1_555 1_555
H7 O10 1_555 1_555
H8 O10 1_555 1_555
C1 H9 1_555 1_555
C2 H10 1_555 1_555
C3 C1 1_555 1_555
C4 H11 1_555 1_555
C5 C14 1_555 1_555
C6 H12 1_555 1_555
C7 C2 1_555 1_555
C8 C2 1_555 1_555
C9 O6 1_555 1_555
C10 C3 1_555 1_555
H13 C10 1_555 1_555
C11 C8 1_555 1_555
H14 C11 1_555 1_555
C12 C4 1_555 1_555
C13 C6 1_555 1_555
H15 C13 1_555 1_555
C14 C1 1_555 1_555
C15 C12 1_555 1_555
O11 Nd1 1_555 1_555
H16 O11 1_555 1_555
H17 O11 1_555 1_555
O12 H18 1_555 1_555
H19 O12 1_555 1_555
Nd1D O7 1_555 1_555
Nd1E O8 1_555 1_555
O7D Nd1 1_555 1_555
O8E Nd1 1_555 1_555
C3 C7 1_555 1_555
C4 C7 1_555 1_555
C6 C10 1_555 1_555
C8 C9 1_555 1_555
C11 C12 1_555 1_555
C13 C14 1_555 1_555

#END
