
#######################################################################
#
#                 Cambridge Crystallographic Data Centre
#                                CCDC 
#
#######################################################################
#
# If this CIF has been generated from an entry in the Cambridge 
# Structural Database, then it will include bibliographic, chemical, 
# crystal, experimental, refinement or atomic coordinate data resulting 
# from the CCDC's data processing and validation procedures.
#
#######################################################################

data_FISSAD
_symmetry_cell_setting           monoclinic
_symmetry_space_group_name_H-M   'P 21/c'
_symmetry_Int_Tables_number      14
_space_group_name_Hall           '-P 2ybc'
loop_
_symmetry_equiv_pos_site_id
_symmetry_equiv_pos_as_xyz
1 x,y,z
2 -x,1/2+y,1/2-z
3 -x,-y,-z
4 x,1/2-y,1/2+z
_cell_length_a                   13.694(3)
_cell_length_b                   7.5770(15)
_cell_length_c                   21.438(7)
_cell_angle_alpha                90
_cell_angle_beta                 116.27(2)
_cell_angle_gamma                90
_cell_volume                     1994.66
loop_
_atom_site_label
_atom_site_type_symbol
_atom_site_fract_x
_atom_site_fract_y
_atom_site_fract_z
Eu1 Eu 0.14146(2) 0.73134(3) -0.112291(13)
O1 O 0.1188(3) 0.5380(5) -0.0264(2)
O2 O 0.2865(3) 0.5962(6) -0.0073(2)
O3 O 0.0441(3) 0.2984(7) 0.1620(2)
O4 O 0.1794(4) 0.2597(6) 0.2664(2)
O5 O 0.7697(4) 0.2849(6) 0.1846(2)
O6 O 0.8965(3) 0.2837(6) 0.2943(3)
O7 O 0.2875(4) 0.9413(6) -0.0619(2)
O8 O 0.0741(4) 1.0005(6) -0.1783(2)
H1 H 0.0573 1.0019 -0.2215
O9 O 0.1022(5) 0.4403(6) -0.1640(3)
O10 O 0.0983(4) 0.9017(6) -0.0314(2)
H2 H 0.1162 0.8630 0.0094
H3 H 0.0653 0.9999 -0.0440
N1 N 0.3898(4) 1.1849(7) -0.0483(3)
C1 C 0.5269(4) 0.4057(7) 0.2467(3)
C2 C 0.6058(4) 0.3624(7) 0.2254(3)
H4 H 0.5848 0.3366 0.1788
C3 C 0.7155(4) 0.3567(7) 0.2720(3)
C4 C 0.7457(5) 0.3997(8) 0.3405(3)
H5 H 0.8191 0.3988 0.3719
C5 C 0.6697(5) 0.4438(9) 0.3633(3)
H6 H 0.6915 0.4714 0.4099
C6 C 0.5605(4) 0.4469(8) 0.3167(3)
H7 H 0.5090 0.4767 0.3321
C7 C 0.8006(5) 0.3044(8) 0.2487(3)
C8 C 0.4091(4) 0.4097(7) 0.1985(3)
C9 C 0.3700(4) 0.4692(7) 0.1307(3)
H8 H 0.4192 0.5098 0.1149
C10 C 0.2592(4) 0.4702(7) 0.0853(3)
C11 C 0.1851(4) 0.4129(7) 0.1092(3)
H9 H 0.1110 0.4131 0.0794
C12 C 0.2213(4) 0.3558(7) 0.1768(3)
C13 C 0.3333(4) 0.3521(7) 0.2208(3)
H10 H 0.3575 0.3101 0.2660
C14 C 0.2207(4) 0.5363(7) 0.0134(3)
C15 C 0.1433(5) 0.2984(8) 0.2038(3)
C16 C 0.3201(6) 1.0636(9) -0.0861(4)
H11 H 0.2934 1.0703 -0.1341
C17 C 0.4188(7) 1.3309(11) -0.0798(4)
H12 H 0.3786 1.3235 -0.1294
H13 H 0.4954 1.3266 -0.0669
H14 H 0.4019 1.4398 -0.0639
C18 C 0.4372(7) 1.1796(12) 0.0265(4)
H15 H 0.4041 1.2684 0.0428
H16 H 0.5140 1.2014 0.0452
H17 H 0.4252 1.0654 0.0412
H18 H 0.123(3) 0.366(8) -0.185(3)
H19 H 0.042(4) 0.400(9) -0.167(5)
H20 H 0.022(3) 1.053(10) -0.1747(6)
Eu1B Eu -0.14146(2) 0.26866(3) 0.112291(13)
Eu1B_2 Eu 0.85854(2) 0.26866(3) 0.112291(13)
O3B O -0.0441(3) 0.7016(7) -0.1620(2)
O5B O 0.2303(4) 0.7151(6) -0.1846(2)
O11 O 0.0036(4) 0.2732(5) 0.4439(2)
H21 H 0.0490 0.2045 0.4742
H22 H 0.009(4) 0.251(6) 0.4066(9)
loop_
_geom_bond_atom_site_label_1
_geom_bond_atom_site_label_2
_geom_bond_site_symmetry_1
_geom_bond_site_symmetry_2
Eu1 O1 1_555 1_555
O1 C14 1_555 1_555
O2 Eu1 1_555 1_555
O3 C15 1_555 1_555
O4 C15 1_555 1_555
O5 C7 1_555 1_555
O6 C7 1_555 1_555
O7 Eu1 1_555 1_555
O8 Eu1 1_555 1_555
H1 O8 1_555 1_555
O9 Eu1 1_555 1_555
O10 Eu1 1_555 1_555
H2 O10 1_555 1_555
H3 O10 1_555 1_555
N1 C16 1_555 1_555
C1 C2 1_555 1_555
C2 H4 1_555 1_555
C3 C2 1_555 1_555
C4 C3 1_555 1_555
H5 C4 1_555 1_555
C5 C4 1_555 1_555
H6 C5 1_555 1_555
C6 C1 1_555 1_555
H7 C6 1_555 1_555
C7 C3 1_555 1_555
C8 C1 1_555 1_555
C9 C8 1_555 1_555
H8 C9 1_555 1_555
C10 C9 1_555 1_555
C11 C10 1_555 1_555
H9 C11 1_555 1_555
C12 C11 1_555 1_555
C13 C8 1_555 1_555
H10 C13 1_555 1_555
C14 O2 1_555 1_555
C15 C12 1_555 1_555
C16 O7 1_555 1_555
H11 C16 1_555 1_555
C17 N1 1_555 1_555
H12 C17 1_555 1_555
H13 C17 1_555 1_555
H14 C17 1_555 1_555
C18 N1 1_555 1_555
H15 C18 1_555 1_555
H16 C18 1_555 1_555
H17 C18 1_555 1_555
H18 O9 1_555 1_555
H19 O9 1_555 1_555
H20 O8 1_555 1_555
O11 H21 1_555 1_555
H22 O11 1_555 1_555
Eu1B O3 1_555 1_555
Eu1B_2 O5 1_555 1_555
O3B Eu1 1_555 1_555
O5B Eu1 1_555 1_555
C5 C6 1_555 1_555
C10 C14 1_555 1_555
C12 C13 1_555 1_555

#END
