
#######################################################################
#
#                 Cambridge Crystallographic Data Centre
#                                CCDC 
#
#######################################################################
#
# If this CIF has been generated from an entry in the Cambridge 
# Structural Database, then it will include bibliographic, chemical, 
# crystal, experimental, refinement or atomic coordinate data resulting 
# from the CCDC's data processing and validation procedures.
#
#######################################################################

data_FISTAE
_symmetry_cell_setting           monoclinic
_symmetry_space_group_name_H-M   'C 2/c'
_symmetry_Int_Tables_number      15
_space_group_name_Hall           '-C 2yn'
loop_
_symmetry_equiv_pos_site_id
_symmetry_equiv_pos_as_xyz
1 x,y,z
2 -x,y,1/2-z
3 1/2+x,1/2+y,z
4 1/2-x,1/2+y,1/2-z
5 -x,-y,-z
6 x,-y,1/2+z
7 1/2-x,1/2-y,-z
8 1/2+x,1/2-y,1/2+z
_cell_length_a                   27.284(5)
_cell_length_b                   7.4955(15)
_cell_length_c                   20.849(4)
_cell_angle_alpha                90
_cell_angle_beta                 115.02(3)
_cell_angle_gamma                90
_cell_volume                     3863.66
loop_
_atom_site_label
_atom_site_type_symbol
_atom_site_fract_x
_atom_site_fract_y
_atom_site_fract_z
Sm1 Sm 0.072496(11) 0.79112(4) 0.381794(14)
O1 O 0.0827(2) 0.7813(7) 0.2760(3)
O2 O 0.01984(19) 0.8207(8) 0.1689(3)
O3 O 0.06584(19) 1.0191(7) -0.0249(2)
O4 O 0.14550(18) 1.1322(8) 0.0019(3)
O5 O 0.44382(19) 0.8129(8) 0.3044(3)
O6 O 0.3812(2) 0.8116(7) 0.1942(3)
O7 O 0.1501(2) 0.5898(8) 0.4068(3)
H1 H 0.1465 0.4785 0.4113
O8 O 0.0451(3) 1.0870(10) 0.3261(4)
H2 H 0.0688 1.1609 0.3264
H3 H 0.0117 1.1147 0.3066
O9 O 0.0385(2) 0.4980(7) 0.3306(3)
H4 H 0.0534 0.4424 0.3080
H5 H 0.0118 0.4517 0.3354
O10 O 0.0493(2) 0.6132(7) 0.4642(3)
C1 C 0.0676(2) 0.8227(8) 0.2125(3)
C2 C 0.1095(2) 0.8795(8) 0.1869(3)
C3 C 0.0934(2) 0.9282(8) 0.1173(3)
H6 H 0.0570 0.9242 0.0861
C4 C 0.2028(2) 0.9346(8) 0.2110(3)
C5 C 0.1638(2) 0.8812(8) 0.2334(3)
H7 H 0.1742 0.8461 0.2801
C6 C 0.3961(3) 0.8330(9) 0.2594(4)
C7 C 0.3004(2) 0.8930(8) 0.2388(3)
H8 H 0.2903 0.8619 0.1917
C8 C 0.1858(2) 0.9887(8) 0.1412(3)
H9 H 0.2113 1.0295 0.1259
C9 C 0.1135(2) 1.0460(9) 0.0196(3)
C10 C 0.3545(2) 0.8921(8) 0.2853(3)
C11 C 0.1314(2) 0.9832(8) 0.0935(3)
C12 C 0.2768(3) 0.9887(10) 0.3307(3)
H10 H 0.2509 1.0213 0.3464
C13 C 0.2606(2) 0.9394(8) 0.2607(3)
C14 C 0.3697(2) 0.9404(9) 0.3549(3)
H11 H 0.4060 0.9392 0.3865
C15 C 0.3310(3) 0.9904(11) 0.3777(4)
H12 H 0.3413 1.0251 0.4244
O11 O 0.1513(4) 1.0075(13) 0.3872(5)
H13 H 0.1453 1.1187 0.3806
H14 H 0.123(2) 0.9572(13) 0.357(5)
H15 H 0.045(2) 0.686(8) 0.431(3)
H16 H 0.036(3) 0.665(8) 0.490(3)
H17 H 0.146(7) 0.603(3) 0.364(3)
Sm1A Sm -0.072496(11) 0.79112(4) 0.118206(14)
Sm1E Sm 0.072496(11) 1.20888(4) -0.118206(14)
O2A O -0.01984(19) 0.8207(8) 0.3311(3)
O3E O 0.06584(19) 0.9809(7) 0.4751(2)
O4E O 0.14550(18) 0.8678(8) 0.5019(3)
O12 O 0.0020(2) 0.2788(7) 0.4493(3)
H18 H 0.0304(14) 0.25(2) 0.444(4)
H19 H -0.0235(19) 0.276(14) 0.4079(16)
loop_
_geom_bond_atom_site_label_1
_geom_bond_atom_site_label_2
_geom_bond_site_symmetry_1
_geom_bond_site_symmetry_2
Sm1 O1 1_555 1_555
O1 C1 1_555 1_555
O2 C1 1_555 1_555
O3 C9 1_555 1_555
O4 C9 1_555 1_555
O5 C6 1_555 1_555
O6 C6 1_555 1_555
O7 Sm1 1_555 1_555
H1 O7 1_555 1_555
O8 Sm1 1_555 1_555
H2 O8 1_555 1_555
H3 O8 1_555 1_555
O9 Sm1 1_555 1_555
H4 O9 1_555 1_555
H5 O9 1_555 1_555
O10 Sm1 1_555 1_555
C1 C2 1_555 1_555
C2 C3 1_555 1_555
C3 H6 1_555 1_555
C4 C5 1_555 1_555
C5 C2 1_555 1_555
H7 C5 1_555 1_555
C6 C10 1_555 1_555
C7 H8 1_555 1_555
C8 C4 1_555 1_555
H9 C8 1_555 1_555
C9 C11 1_555 1_555
C10 C7 1_555 1_555
C11 C3 1_555 1_555
C12 H10 1_555 1_555
C13 C4 1_555 1_555
C14 C10 1_555 1_555
H11 C14 1_555 1_555
C15 C12 1_555 1_555
H12 C15 1_555 1_555
O11 Sm1 1_555 1_555
H13 O11 1_555 1_555
H14 O11 1_555 1_555
H15 O10 1_555 1_555
H16 O10 1_555 1_555
H17 O7 1_555 1_555
O12 H18 1_555 1_555
H19 O12 1_555 1_555
Sm1A O2 1_555 1_555
Sm1E O3 1_555 1_555
O2A Sm1 1_555 1_555
O3E Sm1 1_555 1_555
O4E Sm1 1_555 1_555
O4 Sm1E 1_555 1_555
C7 C13 1_555 1_555
C8 C11 1_555 1_555
C12 C13 1_555 1_555
C14 C15 1_555 1_555

#END
