
#######################################################################
#
#                 Cambridge Crystallographic Data Centre
#                                CCDC 
#
#######################################################################
#
# If this CIF has been generated from an entry in the Cambridge 
# Structural Database, then it will include bibliographic, chemical, 
# crystal, experimental, refinement or atomic coordinate data resulting 
# from the CCDC's data processing and validation procedures.
#
#######################################################################

data_FISZIR
_symmetry_cell_setting           monoclinic
_symmetry_space_group_name_H-M   'P 21/n'
_symmetry_Int_Tables_number      14
_space_group_name_Hall           '-P 2yn'
loop_
_symmetry_equiv_pos_site_id
_symmetry_equiv_pos_as_xyz
1 x,y,z
2 1/2-x,1/2+y,1/2-z
3 -x,-y,-z
4 1/2+x,1/2-y,1/2+z
_cell_length_a                   14.736(3)
_cell_length_b                   7.6268(15)
_cell_length_c                   20.720(4)
_cell_angle_alpha                90
_cell_angle_beta                 103.43(3)
_cell_angle_gamma                90
_cell_volume                     2265.01
loop_
_atom_site_label
_atom_site_type_symbol
_atom_site_fract_x
_atom_site_fract_y
_atom_site_fract_z
O7 O 0.7756(6) 0.9824(7) 0.0382(3)
H1 H 0.7610 1.0475 0.0656
C21 C 0.8627(9) 1.0346(13) 0.0275(5)
H14 H 0.8794 0.9597 -0.0051
H15 H 0.9093 1.0259 0.0684
H16 H 0.8589 1.1536 0.0121
Cd1 Cd 0.87749(3) 0.88219(4) 0.233007(18)
S1 S 0.72302(10) 0.78261(15) 0.33771(6)
O1 O 0.7449(3) 0.8733(5) 0.2803(2)
O2 O 0.6485(3) 0.6567(5) 0.3132(2)
O3 O 0.6914(3) 0.9123(5) 0.3794(2)
O4 O 0.8059(3) 0.6894(5) 0.37610(19)
O5 O 0.7734(3) 0.7646(5) 0.14240(19)
O6 O 0.8986(3) 0.5981(4) 0.2827(2)
N1 N 0.9653(3) 1.0133(5) 0.3235(2)
N2 N 0.9963(5) 1.2018(7) 0.4072(3)
N3 N 1.0622(4) 0.5969(6) 0.1283(3)
N4 N 0.9952(3) 0.7940(6) 0.1815(2)
C1 C 1.0668(5) 1.0783(7) 0.4218(3)
C2 C 1.1435(5) 1.0585(8) 0.4739(3)
H2 H 1.1566 1.1383 0.5087
C3 C 1.1995(5) 0.9167(8) 0.4721(3)
H3 H 1.2515 0.8988 0.5068
C4 C 1.1804(5) 0.7991(7) 0.4198(3)
H4 H 1.2200 0.7040 0.4202
C5 C 1.1045(4) 0.8187(7) 0.3674(3)
H5 H 1.0924 0.7391 0.3324
C6 C 1.0465(4) 0.9615(6) 0.3683(3)
C7 C 0.9402(5) 1.1584(8) 0.3487(3)
H6 H 0.8886 1.2246 0.3280
C8 C 1.0091(19) 1.395(2) 0.4385(10)
C10 C 0.9878(11) 1.3573(18) 0.5042(9)
C11 C 1.0374(12) 1.4745(19) 0.4591(8)
C12 C 1.0513(5) 0.4740(8) 0.0151(3)
C13 C 1.0711(5) 0.4392(8) 0.0896(3)
H7 H 1.0280 0.3508 0.0982
H8 H 1.1338 0.3930 0.1044
C14 C 0.9873(4) 0.6442(8) 0.1505(3)
H9 H 0.9338 0.5755 0.1443
C15 C 1.0829(4) 0.8536(7) 0.1800(3)
C16 C 1.1316(5) 1.0065(7) 0.2063(3)
H10 H 1.1039 1.0929 0.2269
C17 C 1.2218(6) 1.0214(9) 0.2000(4)
H11 H 1.2561 1.1189 0.2185
C18 C 1.2641(6) 0.9010(9) 0.1680(4)
H12 H 1.3250 0.9206 0.1644
C19 C 1.2190(4) 0.7524(8) 0.1409(3)
H13 H 1.2479 0.6697 0.1195
C20 C 1.1268(4) 0.7306(7) 0.1472(3)
Cd1A Cd 0.62251(3) 1.38219(4) 0.266993(18)
Cd1A_2 Cd 0.62251(3) 0.38219(4) 0.266993(18)
Cd1B Cd 1.12251(3) 2.11781(4) 0.766993(18)
Cd1B_2 Cd 1.12251(3) 0.11781(4) -0.233007(18)
S1A S 0.77698(10) 1.28261(15) 0.16229(6)
O1A O 0.7551(3) 1.3733(5) 0.2197(2)
O2A O 0.8515(3) 1.1567(5) 0.1868(2)
O2_2 O 0.6485(3) 1.6567(5) 0.3132(2)
O3A O 0.8086(3) 1.4123(5) 0.1206(2)
O4A O 0.6941(3) 1.1894(5) 0.12390(19)
O5A O 0.7266(3) 1.2646(5) 0.35760(19)
O6A O 0.6014(3) 1.0981(4) 0.2173(2)
N1B N 1.0347(3) 1.9867(5) 0.6765(2)
N1A N 0.5347(3) 1.5133(5) 0.1765(2)
N2B N 1.0037(5) 1.7982(7) 0.5928(3)
N3B N 0.9378(4) 0.4031(6) -0.1283(3)
N4B N 1.0048(3) 0.2060(6) -0.1815(2)
N4A N 0.5048(3) 1.2940(6) 0.3185(2)
C1B C 0.9332(5) 1.9217(7) 0.5782(3)
C2B C 0.8565(5) 1.9415(8) 0.5261(3)
H2B H 0.8434 1.8617 0.4913
C3B C 0.8005(5) 2.0833(8) 0.5279(3)
H3B H 0.7485 2.1012 0.4932
C4B C 0.8196(5) 2.2009(7) 0.5802(3)
H4B H 0.7800 2.2960 0.5798
C5B C 0.8955(4) 2.1813(7) 0.6326(3)
H5B H 0.9076 2.2609 0.6676
C6B C 0.9535(4) 2.0385(6) 0.6317(3)
C7B C 1.0598(5) 1.8416(8) 0.6513(3)
H6B H 1.1114 1.7754 0.6720
C8B C 0.9909(19) 1.605(2) 0.5615(10)
C10B C 1.0122(11) 1.6427(18) 0.4958(9)
C11B C 0.9626(12) 1.5255(19) 0.5409(8)
C12B C 0.9487(5) 0.5260(8) -0.0151(3)
C13B C 0.9289(5) 0.5608(8) -0.0896(3)
H7B H 0.9720 0.6492 -0.0982
H8B H 0.8662 0.6070 -0.1044
C14B C 1.0127(4) 0.3558(8) -0.1505(3)
H9B H 1.0662 0.4245 -0.1443
C15B C 0.9171(4) 0.1464(7) -0.1800(3)
C16B C 0.8684(5) -0.0065(7) -0.2063(3)
H10B H 0.8961 -0.0929 -0.2269
C17B C 0.7782(6) -0.0214(9) -0.2000(4)
H11B H 0.7439 -0.1189 -0.2185
C18B C 0.7359(6) 0.0990(9) -0.1680(4)
H12B H 0.6750 0.0794 -0.1644
C19B C 0.7810(4) 0.2476(8) -0.1409(3)
H13B H 0.7521 0.3303 -0.1195
C20B C 0.8732(4) 0.2694(7) -0.1472(3)
C9? C 0.9686(12) 1.325(2) 0.4549(10)
loop_
_geom_bond_atom_site_label_1
_geom_bond_atom_site_label_2
_geom_bond_site_symmetry_1
_geom_bond_site_symmetry_2
Cd1 O1 1_555 1_555
S1 O1 1_555 1_555
O2 S1 1_555 1_555
O3 S1 1_555 1_555
O4 S1 1_555 1_555
O5 Cd1 1_555 1_555
O6 Cd1 1_555 1_555
O7 H1 1_555 1_555
N1 Cd1 1_555 1_555
N2 C1 1_555 1_555
N3 C13 1_555 1_555
N4 Cd1 1_555 1_555
C1 C2 1_555 1_555
C2 H2 1_555 1_555
C3 C2 1_555 1_555
H3 C3 1_555 1_555
C4 C3 1_555 1_555
H4 C4 1_555 1_555
C5 C4 1_555 1_555
H5 C5 1_555 1_555
C6 N1 1_555 1_555
C7 N1 1_555 1_555
H6 C7 1_555 1_555
C8 N2 1_555 1_555
C10 C8 1_555 1_555
C11 C8 1_555 1_555
C12 C13 1_555 1_555
C13 H7 1_555 1_555
H8 C13 1_555 1_555
C14 N3 1_555 1_555
H9 C14 1_555 1_555
C15 N4 1_555 1_555
C16 C15 1_555 1_555
H10 C16 1_555 1_555
C17 C16 1_555 1_555
H11 C17 1_555 1_555
C18 C17 1_555 1_555
H12 C18 1_555 1_555
C19 C18 1_555 1_555
H13 C19 1_555 1_555
C20 N3 1_555 1_555
C21 O7 1_555 1_555
H14 C21 1_555 1_555
H15 C21 1_555 1_555
H16 C21 1_555 1_555
Cd1A O1A 1_555 1_555
Cd1A_2 O2 1_555 1_555
Cd1B N1B 1_555 1_555
Cd1B_2 N4B 1_555 1_555
S1A O1A 1_555 1_555
O2A Cd1 1_555 1_555
O2_2 Cd1A 1_555 1_555
O3A S1A 1_555 1_555
O4A S1A 1_555 1_555
O5A Cd1A 1_555 1_555
O6A Cd1A 1_555 1_555
N1B C6B 1_555 1_555
N1A Cd1A 1_555 1_555
N2B C1B 1_555 1_555
N3B C13B 1_555 1_555
N4B C14B 1_555 1_555
N4A Cd1A 1_555 1_555
C1B C2B 1_555 1_555
C2B H2B 1_555 1_555
C3B C2B 1_555 1_555
H3B C3B 1_555 1_555
C4B C3B 1_555 1_555
H4B C4B 1_555 1_555
C5B C4B 1_555 1_555
H5B C5B 1_555 1_555
C6B C1B 1_555 1_555
C7B N1B 1_555 1_555
H6B C7B 1_555 1_555
C8B N2B 1_555 1_555
C10B C11 1_555 1_555
C11B C10 1_555 1_555
C12B C12 1_555 1_555
C13B C12B 1_555 1_555
H7B C13B 1_555 1_555
H8B C13B 1_555 1_555
C14B N3B 1_555 1_555
H9B C14B 1_555 1_555
C15B N4B 1_555 1_555
C16B C15B 1_555 1_555
H10B C16B 1_555 1_555
C17B C16B 1_555 1_555
H11B C17B 1_555 1_555
C18B C17B 1_555 1_555
H12B C18B 1_555 1_555
C19B C18B 1_555 1_555
H13B C19B 1_555 1_555
C20B N3B 1_555 1_555
N2 C7 1_555 1_555
N4 C14 1_555 1_555
C1 C6 1_555 1_555
C5 C6 1_555 1_555
C10 C11 1_555 1_555
C15 C20 1_555 1_555
C19 C20 1_555 1_555
S1A O2A 1_555 1_555
N2B C7B 1_555 1_555
C5B C6B 1_555 1_555
C8B C10B 1_555 1_555
C8B C11B 1_555 1_555
C10B C11B 1_555 1_555
C15B C20B 1_555 1_555
C19B C20B 1_555 1_555

#END
