
#######################################################################
#
#                 Cambridge Crystallographic Data Centre
#                                CCDC 
#
#######################################################################
#
# If this CIF has been generated from an entry in the Cambridge 
# Structural Database, then it will include bibliographic, chemical, 
# crystal, experimental, refinement or atomic coordinate data resulting 
# from the CCDC's data processing and validation procedures.
#
#######################################################################

data_FITCIU
_symmetry_cell_setting           triclinic
_symmetry_space_group_name_H-M   'P -1'
_symmetry_Int_Tables_number      2
_space_group_name_Hall           '-P 1'
loop_
_symmetry_equiv_pos_site_id
_symmetry_equiv_pos_as_xyz
1 x,y,z
2 -x,-y,-z
_cell_length_a                   4.5587(8)
_cell_length_b                   4.5891(7)
_cell_length_c                   18.607(4)
_cell_angle_alpha                87.593(16)
_cell_angle_beta                 85.030(16)
_cell_angle_gamma                79.964(15)
_cell_volume                     381.723
loop_
_atom_site_label
_atom_site_type_symbol
_atom_site_fract_x
_atom_site_fract_y
_atom_site_fract_z
Ba1 Ba 0.0000 0.0000 0.0000
O1 O 0.4301(11) 0.5412(9) 0.4035(2)
O2 O 0.1072(14) 0.4927(8) 0.0784(2)
O3 O 0.4819(10) 0.1175(11) 0.0820(2)
C1 C 0.390(1) 0.507(1) 0.3316(2)
C2 C 0.635(3) 0.363(2) 0.2905(6)
C3 C 0.603(2) 0.311(2) 0.2173(5)
C4 C 0.3471(12) 0.4006(10) 0.1876(2)
C5 C 0.090(2) 0.570(2) 0.2294(5)
C6 C 0.113(3) 0.618(2) 0.3025(5)
C7 C 0.3122(13) 0.3377(11) 0.1106(3)
C8 C 0.230(3) 0.762(2) 0.4410(4)
O2_2 O 0.1072(14) -0.5073(8) 0.0784(2)
O2A O -0.1072(14) -0.4927(8) -0.0784(2)
O2A_2 O -0.1072(14) 0.5073(8) -0.0784(2)
O3_2 O -0.5181(10) 0.1175(11) 0.0820(2)
O3A O -0.4819(10) -0.1175(11) -0.0820(2)
O3A_2 O 0.5181(10) -0.1175(11) -0.0820(2)
Ba1_2 Ba 0.0000 1.0000 0.0000
Ba1_3 Ba 1.0000 0.0000 0.0000
Ba1_4 Ba 0.0000 -1.0000 0.0000
C7A C -0.3122(13) -0.3377(11) -0.1106(3)
Ba1_5 Ba -1.0000 0.0000 0.0000
C4A C -0.3471(12) -0.4006(10) -0.1876(2)
C3A C -0.603(2) -0.311(2) -0.2173(5)
C5A C -0.090(2) -0.570(2) -0.2294(5)
C2A C -0.635(3) -0.363(2) -0.2905(6)
C6A C -0.113(3) -0.618(2) -0.3025(5)
C1A C -0.390(1) -0.507(1) -0.3316(2)
O1A O -0.4301(11) -0.5412(9) -0.4035(2)
C8A C -0.230(3) -0.762(2) -0.4410(4)
loop_
_geom_bond_atom_site_label_1
_geom_bond_atom_site_label_2
_geom_bond_site_symmetry_1
_geom_bond_site_symmetry_2
Ba1 O2 1_555 1_555
O1 C1 1_555 1_555
O2 C7 1_555 1_555
O3 Ba1 1_555 1_555
C1 C2 1_555 1_555
C2 C3 1_555 1_555
C3 C4 1_555 1_555
C4 C5 1_555 1_555
C5 C6 1_555 1_555
C6 C1 1_555 1_555
C7 O3 1_555 1_555
C8 O1 1_555 1_555
O2_2 Ba1 1_555 1_555
O2A Ba1 1_555 1_555
O2A_2 Ba1 1_555 1_555
O3_2 Ba1 1_555 1_555
O3A Ba1 1_555 1_555
O3A_2 Ba1 1_555 1_555
Ba1_2 O2 1_555 1_555
Ba1_3 O3 1_555 1_555
Ba1_4 O2A 1_555 1_555
C7A O2A 1_555 1_555
Ba1_5 O3A 1_555 1_555
C4A C7A 1_555 1_555
C3A C4A 1_555 1_555
C5A C4A 1_555 1_555
C2A C3A 1_555 1_555
C6A C5A 1_555 1_555
C1A C2A 1_555 1_555
O1A C1A 1_555 1_555
C8A O1A 1_555 1_555
C4 C7 1_555 1_555
O3A C7A 1_555 1_555
C6A C1A 1_555 1_555

#END
