
#######################################################################
#
#                 Cambridge Crystallographic Data Centre
#                                CCDC 
#
#######################################################################
#
# If this CIF has been generated from an entry in the Cambridge 
# Structural Database, then it will include bibliographic, chemical, 
# crystal, experimental, refinement or atomic coordinate data resulting 
# from the CCDC's data processing and validation procedures.
#
#######################################################################

data_FITFAR
_symmetry_cell_setting           orthorhombic
_symmetry_space_group_name_H-M   'P 21 21 2'
_symmetry_Int_Tables_number      18
_space_group_name_Hall           'P 2 2ab'
loop_
_symmetry_equiv_pos_site_id
_symmetry_equiv_pos_as_xyz
1 x,y,z
2 -x,-y,z
3 1/2-x,1/2+y,-z
4 1/2+x,1/2-y,-z
_cell_length_a                   11.465(3)
_cell_length_b                   20.956(5)
_cell_length_c                   7.1395(16)
_cell_angle_alpha                90
_cell_angle_beta                 90
_cell_angle_gamma                90
_cell_volume                     1715.34
loop_
_atom_site_label
_atom_site_type_symbol
_atom_site_fract_x
_atom_site_fract_y
_atom_site_fract_z
C1 C 0.9830(11) 0.0694(7) 0.687(2)
C2 C 0.9797(10) 0.0681(6) 1.119(2)
C3 C 0.9032(11) -0.0459(6) 1.1381(19)
C4 C 0.8827(10) 0.0212(6) 1.1353(17)
C5 C 0.7653(11) 0.0435(7) 1.139(2)
H1 H 0.7517 0.0872 1.1319
C6 C 0.6723(12) 0.0034(7) 1.1515(18)
H2 H 0.5971 0.0199 1.1558
C7 C 0.6899(11) -0.0624(7) 1.1581(17)
H3 H 0.6260 -0.0896 1.1673
C8 C 0.7647(11) 0.0529(6) 0.6505(19)
C9 C 0.8806(11) 0.0286(6) 0.6677(17)
C10 C 0.6695(11) 0.0107(6) 0.642(2)
H4 H 0.5936 0.0259 0.6314
C11 C 0.8011(11) -0.0810(6) 0.6607(18)
H5 H 0.8117 -0.1250 0.6603
C12 C 0.8980(11) -0.0392(6) 0.6723(19)
C13 C 0.6926(12) -0.0554(7) 0.650(2)
H6 H 0.6293 -0.0831 0.6482
C14 C 0.8008(11) -0.0875(6) 1.1512(18)
O1 O 0.7501(7) 0.1660(4) 0.8172(12)
O2 O 0.8590(7) -0.1981(4) 0.9898(11)
O3 O 0.7913(9) 0.1632(4) 0.4784(12)
O4 O 0.5986(7) 0.1357(4) 0.6015(15)
O5 O 0.9787(7) 0.1290(4) 0.7090(12)
O6 O 0.9499(7) 0.1274(3) 1.0948(13)
O7 O 0.8303(8) 0.2444(4) 1.1879(11)
O8 O 1.0237(8) 0.3204(4) 1.0140(13)
O9 O 1.0365(8) 0.2570(4) 0.6266(13)
O10 O 0.6912(7) -0.1943(4) 1.1910(12)
O11 O 0.8852(7) -0.1886(4) 1.3268(13)
S1 S 0.8117(3) -0.17326(16) 1.1688(5)
S2 S 0.7242(3) 0.13558(16) 0.6316(5)
Sm1 Sm 0.93728(6) 0.21568(3) 0.90074(10)
H7 H 0.8198 0.2103 1.2972
H8 H 0.7736 0.2687 1.1797
H9 H 1.0294 0.2958 0.5986
H10 H 1.0931 0.2714 0.7150
H11 H 0.9855 0.3303 1.1489
H12 H 1.0976 0.3326 1.0703
C1A C 1.0170(11) -0.0694(7) 0.687(2)
C8A C 1.2353(11) -0.0529(6) 0.6505(19)
C9A C 1.1194(11) -0.0286(6) 0.6677(17)
C10A C 1.3305(11) -0.0107(6) 0.642(2)
H4A H 1.4064 -0.0259 0.6314
C11A C 1.1989(11) 0.0810(6) 0.6607(18)
H5A H 1.1883 0.1250 0.6603
C12A C 1.1020(11) 0.0392(6) 0.6723(19)
C13A C 1.3074(12) 0.0554(7) 0.650(2)
H6A H 1.3707 0.0831 0.6482
O1A O 1.2499(7) -0.1660(4) 0.8172(12)
O3A O 1.2087(9) -0.1632(4) 0.4784(12)
O4A O 1.4014(7) -0.1357(4) 0.6015(15)
O5A O 1.0213(7) -0.1290(4) 0.7090(12)
S2A S 1.2758(3) -0.13558(16) 0.6316(5)
C2A C 1.0203(10) -0.0681(6) 1.119(2)
C3A C 1.0968(11) 0.0459(6) 1.1381(19)
C4A C 1.1173(10) -0.0212(6) 1.1353(17)
C5A C 1.2347(11) -0.0435(7) 1.139(2)
H1A H 1.2483 -0.0872 1.1319
C6A C 1.3277(12) -0.0034(7) 1.1515(18)
H2A H 1.4029 -0.0199 1.1558
C7A C 1.3101(11) 0.0624(7) 1.1581(17)
H3A H 1.3740 0.0896 1.1673
C14A C 1.1992(11) 0.0875(6) 1.1512(18)
O6A O 1.0501(7) -0.1274(3) 1.0948(13)
O2A O 1.1410(7) 0.1981(4) 0.9898(11)
O10A O 1.3088(7) 0.1943(4) 1.1910(12)
O11A O 1.1148(7) 0.1886(4) 1.3268(13)
S1A S 1.1883(3) 0.17326(16) 1.1688(5)
O7A O 1.1697(8) -0.2444(4) 1.1879(11)
O8A O 0.9763(8) -0.3204(4) 1.0140(13)
O9A O 0.9635(8) -0.2570(4) 0.6266(13)
Sm1A Sm 1.06272(6) -0.21568(3) 0.90074(10)
H7A H 1.1802 -0.2103 1.2972
H8A H 1.2264 -0.2687 1.1797
H9A H 0.9706 -0.2958 0.5986
H10A H 0.9069 -0.2714 0.7150
H11A H 1.0145 -0.3303 1.1489
H12A H 0.9024 -0.3326 1.0703
O10B O 0.8088(7) 0.3057(4) 0.8090(12)
O10C O 1.1912(7) -0.3057(4) 0.8090(12)
Sm1B Sm 0.56272(6) -0.28432(3) 1.09926(10)
Sm1C Sm 1.43728(6) 0.28432(3) 1.09926(10)
loop_
_geom_bond_atom_site_label_1
_geom_bond_atom_site_label_2
_geom_bond_site_symmetry_1
_geom_bond_site_symmetry_2
C1 C9 1_555 1_555
C2 C4 1_555 1_555
C3 C4 1_555 1_555
C4 C5 1_555 1_555
C5 H1 1_555 1_555
C6 C5 1_555 1_555
H2 C6 1_555 1_555
C7 C6 1_555 1_555
H3 C7 1_555 1_555
C8 C9 1_555 1_555
C9 C12 1_555 1_555
C10 C8 1_555 1_555
H4 C10 1_555 1_555
C11 H5 1_555 1_555
C12 C11 1_555 1_555
C13 C10 1_555 1_555
H6 C13 1_555 1_555
C14 C3 1_555 1_555
O1 S2 1_555 1_555
O2 S1 1_555 1_555
O3 S2 1_555 1_555
O4 S2 1_555 1_555
O5 C1 1_555 1_555
O6 C2 1_555 1_555
O7 Sm1 1_555 1_555
O8 Sm1 1_555 1_555
O9 Sm1 1_555 1_555
O10 S1 1_555 1_555
O11 S1 1_555 1_555
S1 C14 1_555 1_555
S2 C8 1_555 1_555
Sm1 O1 1_555 1_555
H7 O7 1_555 1_555
H8 O7 1_555 1_555
H9 O9 1_555 1_555
H10 O9 1_555 1_555
H11 O8 1_555 1_555
H12 O8 1_555 1_555
C1A C12 1_555 1_555
C8A C9A 1_555 1_555
C9A C1A 1_555 1_555
C10A C8A 1_555 1_555
H4A C10A 1_555 1_555
C11A H5A 1_555 1_555
C12A C1 1_555 1_555
C13A C10A 1_555 1_555
H6A C13A 1_555 1_555
O1A S2A 1_555 1_555
O3A S2A 1_555 1_555
O4A S2A 1_555 1_555
O5A C1A 1_555 1_555
S2A C8A 1_555 1_555
C2A C3 1_555 1_555
C3A C2 1_555 1_555
C4A C2A 1_555 1_555
C5A C4A 1_555 1_555
H1A C5A 1_555 1_555
C6A C5A 1_555 1_555
H2A C6A 1_555 1_555
C7A C6A 1_555 1_555
H3A C7A 1_555 1_555
C14A C3A 1_555 1_555
O6A C2A 1_555 1_555
O2A Sm1 1_555 1_555
O10A S1A 1_555 1_555
O11A S1A 1_555 1_555
S1A C14A 1_555 1_555
O7A Sm1A 1_555 1_555
O8A Sm1A 1_555 1_555
O9A Sm1A 1_555 1_555
Sm1A O2 1_555 1_555
H7A O7A 1_555 1_555
H8A O7A 1_555 1_555
H9A O9A 1_555 1_555
H10A O9A 1_555 1_555
H11A O8A 1_555 1_555
H12A O8A 1_555 1_555
O10B Sm1 1_555 1_555
O10C Sm1A 1_555 1_555
Sm1B O10 1_555 1_555
Sm1C O10A 1_555 1_555
C7 C14 1_555 1_555
C11 C13 1_555 1_555
O5 Sm1 1_555 1_555
O6 Sm1 1_555 1_555
C9A C12A 1_555 1_555
C11A C12A 1_555 1_555
C11A C13A 1_555 1_555
O1A Sm1A 1_555 1_555
O5A Sm1A 1_555 1_555
C3A C4A 1_555 1_555
C7A C14A 1_555 1_555
O6A Sm1A 1_555 1_555
O2A S1A 1_555 1_555

#END
