
#######################################################################
#
#                 Cambridge Crystallographic Data Centre
#                                CCDC 
#
#######################################################################
#
# If this CIF has been generated from an entry in the Cambridge 
# Structural Database, then it will include bibliographic, chemical, 
# crystal, experimental, refinement or atomic coordinate data resulting 
# from the CCDC's data processing and validation procedures.
#
#######################################################################

data_FITGAS
_symmetry_cell_setting           triclinic
_symmetry_space_group_name_H-M   'P -1'
_symmetry_Int_Tables_number      2
_space_group_name_Hall           '-P 1'
loop_
_symmetry_equiv_pos_site_id
_symmetry_equiv_pos_as_xyz
1 x,y,z
2 -x,-y,-z
_cell_length_a                   13.5850(13)
_cell_length_b                   14.0134(13)
_cell_length_c                   14.9049(14)
_cell_angle_alpha                102.662(7)
_cell_angle_beta                 105.536(7)
_cell_angle_gamma                116.137(7)
_cell_volume                     2260.08
loop_
_atom_site_label
_atom_site_type_symbol
_atom_site_fract_x
_atom_site_fract_y
_atom_site_fract_z
Ni1 Ni 1.37875(6) 0.53587(6) 0.86722(5)
Ni2 Ni 1.33271(6) 0.99351(6) 1.36975(5)
O1 O 1.4594(4) 0.7131(3) 0.9520(3)
O2 O 1.4349(3) 0.5988(3) 1.0335(3)
O3 O 1.7050(3) 0.7048(3) 1.0868(3)
O4 O 1.6684(3) 0.6291(3) 1.1993(3)
O5 O 1.5662(3) 0.9039(3) 1.4669(3)
O6 O 1.7633(3) 1.0048(3) 1.5406(3)
O7 O 1.6282(4) 1.1129(3) 1.4049(3)
O8 O 1.4373(3) 0.9774(3) 1.2992(3)
O9 O 1.5507(3) 0.5642(3) 0.8989(3)
H1 H 1.5444 0.5037 0.9065
H2 H 1.6000 0.6210 0.9552
O10 O 1.3376(3) 0.8582(3) 1.4030(3)
H3 H 1.4068 0.8703 1.4103
H4 H 1.3334 0.8642 1.4597
N1 N 1.2028(4) 0.4945(4) 0.8325(4)
N2 N 0.6349(4) 0.4434(4) 0.2673(3)
N3 N 1.1813(4) 0.8775(4) 1.2371(3)
N4 N 0.6669(4) 0.8702(4) 0.6646(3)
C1 C 1.5679(5) 0.8067(4) 1.1331(4)
H5 H 1.6093 0.8717 1.1148
C2 C 1.6660(5) 0.8009(4) 1.2099(4)
H6 H 1.7425 0.8726 1.2302
C3 C 1.6453(5) 0.8023(4) 1.3068(4)
H7 H 1.6972 0.7845 1.3503
C4 C 1.6774(5) 0.9288(4) 1.3599(4)
H8 H 1.7614 0.9823 1.3736
C5 C 1.5955(5) 0.9508(4) 1.2830(4)
H9 H 1.6472 1.0004 1.2570
C6 C 1.4948(5) 0.8346(4) 1.1889(4)
H10 H 1.4344 0.8441 1.1453
C7 C 1.4388(5) 0.7399(4) 1.2218(4)
H11 H 1.3560 0.6970 1.2028
C8 C 1.5142(5) 0.7199(4) 1.2805(4)
H12 H 1.4883 0.6603 1.3032
C9 C 1.4822(5) 0.6986(5) 1.0349(4)
C10 C 1.6803(4) 0.7029(4) 1.1605(4)
C11 C 1.6665(5) 0.9451(4) 1.4597(4)
C12 C 1.5483(5) 1.0181(4) 1.3327(4)
C13 C 1.1718(6) 0.5671(5) 0.8675(5)
H13 H 1.2315 0.6357 0.9225
C14 C 1.0597(6) 0.5498(6) 0.8298(5)
H14 H 1.0464 0.6070 0.8571
C15 C 0.9659(5) 0.4479(5) 0.7515(4)
C16 C 0.9968(6) 0.3703(5) 0.7157(5)
H15 H 0.9375 0.2993 0.6633
C17 C 1.1113(6) 0.3952(5) 0.7553(5)
H16 H 1.1278 0.3407 0.7277
C18 C 0.8407(5) 0.4235(5) 0.7047(4)
H17 H 0.8314 0.4767 0.7504
H18 H 0.7834 0.3458 0.6956
C19 C 0.8123(5) 0.4347(6) 0.6045(5)
H19 H 0.8294 0.3872 0.5613
H20 H 0.8651 0.5143 0.6149
C20 C 0.6819(5) 0.3996(5) 0.5501(4)
H21 H 0.6283 0.3203 0.5396
H22 H 0.6645 0.4480 0.5919
C21 C 0.6593(5) 0.4111(5) 0.4498(4)
C22 C 0.6712(6) 0.3484(5) 0.3745(4)
H23 H 0.6878 0.2924 0.3830
C23 C 0.6591(6) 0.3661(5) 0.2856(5)
H24 H 0.6685 0.3215 0.2363
C24 C 0.6208(6) 0.5038(5) 0.3402(4)
H25 H 0.6035 0.5588 0.3298
C25 C 0.6304(6) 0.4892(5) 0.4294(5)
H26 H 0.6174 0.5323 0.4766
C26 C 1.0825(6) 0.8813(6) 1.2187(5)
H27 H 1.0836 0.9358 1.2681
C27 C 0.9781(6) 0.8098(6) 1.1313(5)
H28 H 0.9117 0.8170 1.1219
C28 C 0.9745(5) 0.7268(5) 1.0576(4)
C29 C 1.0760(6) 0.7195(6) 1.0804(5)
H29 H 1.0761 0.6626 1.0345
C30 C 1.1766(6) 0.7949(5) 1.1695(5)
H30 H 1.2433 0.7876 1.1827
C31 C 0.8649(5) 0.6489(5) 0.9579(4)
H31 H 0.7951 0.6039 0.9698
H32 H 0.8780 0.5961 0.9163
C32 C 0.8418(6) 0.7242(5) 0.9024(4)
H33 H 0.8196 0.7704 0.9410
H34 H 0.9156 0.7764 0.8990
C33 C 0.7418(5) 0.6506(5) 0.7954(4)
H35 H 0.7672 0.6105 0.7545
H36 H 0.6700 0.5931 0.7979
C34 C 0.7130(5) 0.7247(5) 0.7479(4)
C35 C 0.7455(6) 0.7487(5) 0.6706(4)
H37 H 0.7846 0.7167 0.6458
C36 C 0.7203(6) 0.8192(5) 0.6305(5)
H38 H 0.7413 0.8319 0.5779
C37 C 0.6346(5) 0.8476(5) 0.7382(4)
H39 H 0.5969 0.8822 0.7621
C38 C 0.6537(5) 0.7757(5) 0.7811(4)
H40 H 0.6277 0.7614 0.8311
Ni1A Ni 0.62125(6) 0.46413(6) 0.13278(5)
Ni1A_2 Ni 1.62125(6) 0.46413(6) 1.13278(5)
Ni2A Ni 0.66729(6) 1.00649(6) 0.63025(5)
Ni2A_2 Ni 1.66729(6) 1.00649(6) 1.63025(5)
O4A O 1.3316(3) 0.3709(3) 0.8007(3)
O5A O 1.4338(3) 1.0961(3) 1.5331(3)
O6A O 1.2367(3) 0.9952(3) 1.4594(3)
N2A N 1.3651(4) 0.5566(4) 0.7327(3)
N4A N 1.3331(4) 1.1298(4) 1.3354(3)
loop_
_geom_bond_atom_site_label_1
_geom_bond_atom_site_label_2
_geom_bond_site_symmetry_1
_geom_bond_site_symmetry_2
Ni1 O1 1_555 1_555
Ni2 O8 1_555 1_555
O1 C9 1_555 1_555
O2 Ni1 1_555 1_555
O3 C10 1_555 1_555
O4 C10 1_555 1_555
O5 C11 1_555 1_555
O6 C11 1_555 1_555
O7 C12 1_555 1_555
O8 C12 1_555 1_555
O9 Ni1 1_555 1_555
H1 O9 1_555 1_555
H2 O9 1_555 1_555
O10 Ni2 1_555 1_555
H3 O10 1_555 1_555
H4 O10 1_555 1_555
N1 Ni1 1_555 1_555
N2 C23 1_555 1_555
N3 Ni2 1_555 1_555
N4 C36 1_555 1_555
C1 H5 1_555 1_555
C2 C1 1_555 1_555
H6 C2 1_555 1_555
C3 C2 1_555 1_555
H7 C3 1_555 1_555
C4 C3 1_555 1_555
H8 C4 1_555 1_555
C5 C4 1_555 1_555
H9 C5 1_555 1_555
C6 C1 1_555 1_555
H10 C6 1_555 1_555
C7 C6 1_555 1_555
H11 C7 1_555 1_555
C8 C3 1_555 1_555
H12 C8 1_555 1_555
C9 O2 1_555 1_555
C10 C2 1_555 1_555
C11 C4 1_555 1_555
C12 C5 1_555 1_555
C13 N1 1_555 1_555
H13 C13 1_555 1_555
C14 C13 1_555 1_555
H14 C14 1_555 1_555
C15 C14 1_555 1_555
C16 C15 1_555 1_555
H15 C16 1_555 1_555
C17 N1 1_555 1_555
H16 C17 1_555 1_555
C18 C15 1_555 1_555
H17 C18 1_555 1_555
H18 C18 1_555 1_555
C19 C18 1_555 1_555
H19 C19 1_555 1_555
H20 C19 1_555 1_555
C20 C19 1_555 1_555
H21 C20 1_555 1_555
H22 C20 1_555 1_555
C21 C20 1_555 1_555
C22 C21 1_555 1_555
H23 C22 1_555 1_555
C23 C22 1_555 1_555
H24 C23 1_555 1_555
C24 N2 1_555 1_555
H25 C24 1_555 1_555
C25 C21 1_555 1_555
H26 C25 1_555 1_555
C26 N3 1_555 1_555
H27 C26 1_555 1_555
C27 C26 1_555 1_555
H28 C27 1_555 1_555
C28 C27 1_555 1_555
C29 C28 1_555 1_555
H29 C29 1_555 1_555
C30 N3 1_555 1_555
H30 C30 1_555 1_555
C31 C28 1_555 1_555
H31 C31 1_555 1_555
H32 C31 1_555 1_555
C32 C31 1_555 1_555
H33 C32 1_555 1_555
H34 C32 1_555 1_555
C33 C32 1_555 1_555
H35 C33 1_555 1_555
H36 C33 1_555 1_555
C34 C33 1_555 1_555
C35 C34 1_555 1_555
H37 C35 1_555 1_555
C36 C35 1_555 1_555
H38 C36 1_555 1_555
C37 N4 1_555 1_555
H39 C37 1_555 1_555
C38 C34 1_555 1_555
H40 C38 1_555 1_555
Ni1A N2 1_555 1_555
Ni1A_2 O4 1_555 1_555
Ni2A N4 1_555 1_555
Ni2A_2 O5 1_555 1_555
O4A Ni1 1_555 1_555
O5A Ni2 1_555 1_555
O6A Ni2 1_555 1_555
N2A Ni1 1_555 1_555
N4A Ni2 1_555 1_555
O6 Ni2A_2 1_555 1_555
C1 C9 1_555 1_555
C5 C6 1_555 1_555
C7 C8 1_555 1_555
C16 C17 1_555 1_555
C24 C25 1_555 1_555
C29 C30 1_555 1_555
C37 C38 1_555 1_555

#END
