
#######################################################################
#
#                 Cambridge Crystallographic Data Centre
#                                CCDC 
#
#######################################################################
#
# If this CIF has been generated from an entry in the Cambridge 
# Structural Database, then it will include bibliographic, chemical, 
# crystal, experimental, refinement or atomic coordinate data resulting 
# from the CCDC's data processing and validation procedures.
#
#######################################################################

data_FITGEW
_symmetry_cell_setting           rhombohedral
_symmetry_space_group_name_H-M   'R -3'
_symmetry_Int_Tables_number      148
_space_group_name_Hall           '-R 3'
loop_
_symmetry_equiv_pos_site_id
_symmetry_equiv_pos_as_xyz
1 x,y,z
2 -y,x-y,z
3 -x+y,-x,z
4 2/3+x,1/3+y,1/3+z
5 2/3-y,1/3+x-y,1/3+z
6 2/3-x+y,1/3-x,1/3+z
7 1/3+x,2/3+y,2/3+z
8 1/3-y,2/3+x-y,2/3+z
9 1/3-x+y,2/3-x,2/3+z
10 -x,-y,-z
11 y,-x+y,-z
12 x-y,x,-z
13 1/3-x,2/3-y,2/3-z
14 1/3+y,2/3-x+y,2/3-z
15 1/3+x-y,2/3+x,2/3-z
16 2/3-x,1/3-y,1/3-z
17 2/3+y,1/3-x+y,1/3-z
18 2/3+x-y,1/3+x,1/3-z
_cell_length_a                   37.4822(8)
_cell_length_b                   37.4822(8)
_cell_length_c                   17.2024(6)
_cell_angle_alpha                90
_cell_angle_beta                 90
_cell_angle_gamma                120
_cell_volume                     20930
loop_
_atom_site_label
_atom_site_type_symbol
_atom_site_fract_x
_atom_site_fract_y
_atom_site_fract_z
Ni1 Ni 0.50708(2) 0.30913(2) 1.81054(4)
Ni2 Ni 0.43149(2) 0.43934(2) 1.51966(4)
O1 O 0.52342(9) 0.34607(9) 1.71266(17)
O2 O 0.53769(13) 0.31242(10) 1.6227(2)
O3 O 0.61591(10) 0.39328(9) 1.72227(18)
O4 O 0.61005(9) 0.44807(9) 1.75486(17)
O5 O 0.59982(10) 0.52678(9) 1.46543(18)
O6 O 0.54657(9) 0.50484(9) 1.54239(17)
O7 O 0.51327(10) 0.44710(10) 1.39996(18)
O8 O 0.47090(10) 0.41776(10) 1.50098(18)
O9 O 0.51597(10) 0.26669(9) 1.74957(18)
H1 H 0.5325 0.2593 1.7672
H2 H 0.5265 0.2812 1.7090
O10 O 0.56953(9) 0.34262(9) 1.84129(18)
H3 H 0.5884 0.3539 1.8073
H4 H 0.5727 0.3247 1.8658
O11 O 0.47171(10) 0.47509(10) 1.61162(17)
H5 H 0.4718 0.4978 1.6124
H6 H 0.4941 0.4793 1.5908
N1 N 0.44548(12) 0.27355(11) 1.7769(2)
N2 N 0.19003(11) 0.16971(12) 1.5344(2)
N3 N 0.39483(12) 0.40882(12) 1.4255(2)
N4 N 0.27118(12) 0.33844(12) 0.9362(2)
C1 C 0.55461(14) 0.38144(13) 1.5940(2)
H7 H 0.5641 0.3741 1.5453
C2 C 0.59163(14) 0.42211(13) 1.6259(2)
H8 H 0.6155 0.4287 1.5909
C3 C 0.51947(14) 0.39022(14) 1.5708(3)
H9 H 0.4939 0.3641 1.5565
C4 C 0.53571(14) 0.41984(13) 1.5007(2)
H10 H 0.5442 0.4065 1.4600
C5 C 0.57549(14) 0.46051(14) 1.5265(2)
H11 H 0.5996 0.4624 1.4979
C6 C 0.58207(14) 0.45739(14) 1.6155(3)
H12 H 0.6054 0.4839 1.6353
C7 C 0.51109(14) 0.41153(14) 1.6364(2)
H13 H 0.4847 0.4006 1.6599
C8 C 0.54311(14) 0.44648(14) 1.6588(2)
H14 H 0.5417 0.4633 1.6986
C9 C 0.53800(14) 0.34404(13) 1.6484(3)
C10 C 0.60600(13) 0.42039(13) 1.7082(3)
C11 C 0.50394(14) 0.42897(13) 1.4640(3)
C12 C 0.57360(14) 0.49921(14) 1.5106(2)
C13 C 0.43618(14) 0.26351(15) 1.7017(3)
H15 H 0.4581 0.2729 1.6652
C14 C 0.39634(14) 0.24016(15) 1.6751(3)
H16 H 0.3913 0.2342 1.6212
C15 C 0.36326(14) 0.22515(14) 1.7269(3)
C16 C 0.37286(15) 0.23328(15) 1.8058(3)
H17 H 0.3516 0.2222 1.8438
C17 C 0.41373(15) 0.25774(15) 1.8284(3)
H18 H 0.4197 0.2637 1.8821
C18 C 0.31994(15) 0.20474(15) 1.7019(3)
H19 H 0.2993 0.1945 1.7411
C19 C 0.30750(16) 0.19953(16) 1.6279(3)
H20 H 0.3280 0.2053 1.5897
C20 C 0.26575(15) 0.18586(14) 1.5986(3)
C21 C 0.26062(16) 0.18874(18) 1.5189(3)
H21 H 0.2831 0.1961 1.4845
C22 C 0.22317(15) 0.18102(17) 1.4899(3)
H22 H 0.2208 0.1839 1.4356
C23 C 0.19402(15) 0.16515(15) 1.6106(3)
H23 H 0.1705 0.1563 1.6429
C24 C 0.23072(16) 0.17271(15) 1.6447(3)
H24 H 0.2320 0.1689 1.6990
C25 C 0.35525(15) 0.39819(15) 1.4227(3)
H25 H 0.3426 0.4008 1.4685
C26 C 0.33172(15) 0.38346(15) 1.3558(3)
H26 H 0.3035 0.3761 1.3563
C27 C 0.34956(15) 0.37940(14) 1.2878(3)
C28 C 0.39117(16) 0.39021(16) 1.2916(3)
H27 H 0.4046 0.3875 1.2470
C29 C 0.41252(16) 0.40486(16) 1.3609(3)
H28 H 0.4408 0.4124 1.3627
C30 C 0.32581(16) 0.36499(15) 1.2162(3)
H29 H 0.2970 0.3469 1.2205
C31 C 0.34177(16) 0.37546(14) 1.1446(3)
H30 H 0.3707 0.3929 1.1401
C32 C 0.31758(15) 0.36179(15) 1.0729(3)
C33 C 0.33033(15) 0.38713(15) 1.0064(3)
H31 H 0.3554 0.4127 1.0071
C34 C 0.30631(14) 0.37459(15) 0.9404(3)
H32 H 0.3150 0.3922 0.8963
C35 C 0.25981(15) 0.31323(15) 0.9986(3)
H33 H 0.2356 0.2870 0.9950
C36 C 0.28176(14) 0.32387(15) 1.0671(3)
H34 H 0.2725 0.3054 1.1100
Ni1H Ni 0.13538(3) 0.15959(2) 1.47721(4)
Ni1M Ni 0.64246(2) 0.46872(3) 1.85613(4)
Ni2D Ni 0.22733(2) 0.32548(3) 0.85299(4)
Ni2I Ni 0.56851(2) 0.56066(2) 1.48034(4)
O4N O 0.49531(13) 0.27672(9) 1.91181(17)
O5I O 0.40018(10) 0.47322(9) 1.53457(18)
O6I O 0.45343(9) 0.49516(9) 1.45761(17)
N2D N 0.49696(12) 0.35365(16) 1.8677(2)
N4H N 0.40059(17) 0.39549(12) 1.6029(2)
O12 O -0.12503(17) 0.17990(16) 0.8843(3)
H35 H -0.1266 0.1865 0.9309
H36 H -0.1404 0.1540 0.8800
O13 O 0.20625(19) 0.2468(2) 1.1630(4)
H37 H 0.1988 0.2640 1.1500
H38 H 0.1977 0.2279 1.1286
O14 O -0.0882(2) 0.1147(2) 0.9792(3)
H39 H -0.1082 0.1161 0.9589
H40 H -0.0805 0.1026 0.9473
O15 O 0.4888(3) 0.4277(3) 1.2226(6)
H41 H 0.4914 0.4281 1.2718
H42 H 0.4723 0.4031 1.2083
O16 O 0.2118(3) 0.1985(3) 0.8922(6)
H43 H 0.1865 0.1815 0.8844
H44 H 0.2132 0.2210 0.9055
O17 O -0.0881(3) 0.1064(4) 0.8128(6)
H45 H -0.0782 0.1319 0.8226
H46 H -0.0711 0.1038 0.7841
O18 O 0.1763(4) 0.1846(3) 1.0454(6)
H47 H 0.1662 0.1937 1.0119
H48 H 0.1982 0.1872 1.0248
O19 O -0.2012(4) 0.3113(4) 0.5347(7)
H49 H -0.2070 0.2863 0.5319
H50 H -0.2236 0.3117 0.5314
O20 O 0.0187(4) -0.0321(5) 0.7208(7)
H51 H -0.0072 -0.0481 0.7183
H52 H 0.0305 -0.0379 0.6849
O21 O -0.0681(5) -0.0805(5) 0.8384(9)
O23 O -0.0257(7) -0.1220(7) 1.0406(12)
O24 O -0.1187(8) 0.0346(8) 0.9112(14)
O22? O -0.0511(8) -0.0980(8) 0.8192(13)
loop_
_geom_bond_atom_site_label_1
_geom_bond_atom_site_label_2
_geom_bond_site_symmetry_1
_geom_bond_site_symmetry_2
Ni1 O1 1_555 1_555
Ni2 O8 1_555 1_555
O1 C9 1_555 1_555
O2 C9 1_555 1_555
O3 C10 1_555 1_555
O4 C10 1_555 1_555
O5 C12 1_555 1_555
O6 C12 1_555 1_555
O7 C11 1_555 1_555
O8 C11 1_555 1_555
O9 Ni1 1_555 1_555
H1 O9 1_555 1_555
H2 O9 1_555 1_555
O10 Ni1 1_555 1_555
H3 O10 1_555 1_555
H4 O10 1_555 1_555
O11 Ni2 1_555 1_555
H5 O11 1_555 1_555
H6 O11 1_555 1_555
N1 Ni1 1_555 1_555
N2 C22 1_555 1_555
N3 Ni2 1_555 1_555
N4 C34 1_555 1_555
C1 H7 1_555 1_555
C2 C1 1_555 1_555
H8 C2 1_555 1_555
C3 C1 1_555 1_555
H9 C3 1_555 1_555
C4 C3 1_555 1_555
H10 C4 1_555 1_555
C5 C4 1_555 1_555
H11 C5 1_555 1_555
C6 C2 1_555 1_555
H12 C6 1_555 1_555
C7 C3 1_555 1_555
H13 C7 1_555 1_555
C8 C6 1_555 1_555
H14 C8 1_555 1_555
C9 C1 1_555 1_555
C10 C2 1_555 1_555
C11 C4 1_555 1_555
C12 C5 1_555 1_555
C13 N1 1_555 1_555
H15 C13 1_555 1_555
C14 C13 1_555 1_555
H16 C14 1_555 1_555
C15 C14 1_555 1_555
C16 C15 1_555 1_555
H17 C16 1_555 1_555
C17 N1 1_555 1_555
H18 C17 1_555 1_555
C18 C15 1_555 1_555
H19 C18 1_555 1_555
C19 C18 1_555 1_555
H20 C19 1_555 1_555
C20 C19 1_555 1_555
C21 C20 1_555 1_555
H21 C21 1_555 1_555
C22 C21 1_555 1_555
H22 C22 1_555 1_555
C23 N2 1_555 1_555
H23 C23 1_555 1_555
C24 C20 1_555 1_555
H24 C24 1_555 1_555
C25 N3 1_555 1_555
H25 C25 1_555 1_555
C26 C25 1_555 1_555
H26 C26 1_555 1_555
C27 C26 1_555 1_555
C28 C27 1_555 1_555
H27 C28 1_555 1_555
C29 N3 1_555 1_555
H28 C29 1_555 1_555
C30 C27 1_555 1_555
H29 C30 1_555 1_555
C31 C30 1_555 1_555
H30 C31 1_555 1_555
C32 C31 1_555 1_555
C33 C32 1_555 1_555
H31 C33 1_555 1_555
C34 C33 1_555 1_555
H32 C34 1_555 1_555
C35 N4 1_555 1_555
H33 C35 1_555 1_555
C36 C32 1_555 1_555
H34 C36 1_555 1_555
O12 H35 1_555 1_555
H36 O12 1_555 1_555
O13 H37 1_555 1_555
H38 O13 1_555 1_555
O14 H39 1_555 1_555
H40 O14 1_555 1_555
O15 H41 1_555 1_555
H42 O15 1_555 1_555
O16 H43 1_555 1_555
H44 O16 1_555 1_555
O17 H45 1_555 1_555
H46 O17 1_555 1_555
O18 H47 1_555 1_555
H48 O18 1_555 1_555
O19 H49 1_555 1_555
H50 O19 1_555 1_555
O20 H51 1_555 1_555
H52 O20 1_555 1_555
Ni1H N2 1_555 1_555
Ni1M O4 1_555 1_555
Ni2D N4 1_555 1_555
Ni2I O5 1_555 1_555
O4N Ni1 1_555 1_555
O5I Ni2 1_555 1_555
O6I Ni2 1_555 1_555
N2D Ni1 1_555 1_555
N4H Ni2 1_555 1_555
O6 Ni2I 1_555 1_555
C5 C6 1_555 1_555
C7 C8 1_555 1_555
C16 C17 1_555 1_555
C23 C24 1_555 1_555
C28 C29 1_555 1_555
C35 C36 1_555 1_555

#END
