
#######################################################################
#
#                 Cambridge Crystallographic Data Centre
#                                CCDC 
#
#######################################################################
#
# If this CIF has been generated from an entry in the Cambridge 
# Structural Database, then it will include bibliographic, chemical, 
# crystal, experimental, refinement or atomic coordinate data resulting 
# from the CCDC's data processing and validation procedures.
#
#######################################################################

data_FITGIA
_symmetry_cell_setting           monoclinic
_symmetry_space_group_name_H-M   'P 21/c'
_symmetry_Int_Tables_number      14
_space_group_name_Hall           '-P 2ybc'
loop_
_symmetry_equiv_pos_site_id
_symmetry_equiv_pos_as_xyz
1 x,y,z
2 -x,1/2+y,1/2-z
3 -x,-y,-z
4 x,1/2-y,1/2+z
_cell_length_a                   11.4980(5)
_cell_length_b                   11.5593(4)
_cell_length_c                   22.7562(9)
_cell_angle_alpha                90
_cell_angle_beta                 102.0870(10)
_cell_angle_gamma                90
_cell_volume                     2957.45
loop_
_atom_site_label
_atom_site_type_symbol
_atom_site_fract_x
_atom_site_fract_y
_atom_site_fract_z
Co1 Co 0.41960(3) 1.19305(3) 0.448145(14)
Co2 Co 0.77948(3) 1.07113(3) 0.191438(14)
O1 O 0.39228(15) 1.24834(13) 0.35775(7)
O2 O 0.31916(16) 1.42752(14) 0.35369(7)
O3 O 0.12040(15) 1.45541(15) 0.25281(8)
O4 O 0.10370(17) 1.27067(15) 0.22693(9)
O5 O 0.39519(16) 1.15800(14) 0.07455(7)
O6 O 0.44887(14) 1.32970(13) 0.04367(7)
O7 O 0.65627(16) 1.20906(14) 0.14277(8)
O8 O 0.64343(15) 1.13002(14) 0.22899(7)
O9 O 0.40603(16) 1.02103(14) 0.42874(8)
H1 H 0.4604 0.9701 0.4361
H2 H 0.4185 1.0328 0.3937
O10 O 0.45016(16) 1.37195(14) 0.46708(7)
H3 H 0.3956 1.4016 0.4403
H4 H 0.4061 1.3808 0.4924
O11 O 0.88388(16) 1.20658(15) 0.23928(8)
H5 H 0.9549 1.2296 0.2417
H6 H 0.8493 1.2486 0.2611
N1 N 0.60894(18) 1.17511(16) 0.44909(9)
N2 N 1.22675(18) 1.18965(17) 0.44566(9)
N3 N 0.86609(19) 1.07018(18) 0.12087(10)
C1 C 0.3909(2) 1.3591(2) 0.26807(10)
H7 H 0.4379 1.4301 0.2697
C2 C 0.2805(2) 1.37343(19) 0.21419(10)
H8 H 0.2849 1.4513 0.1977
C3 C 0.2946(2) 1.28570(19) 0.16405(10)
H9 H 0.2262 1.2900 0.1303
C4 C 0.4116(2) 1.3192(2) 0.14336(10)
H10 H 0.4094 1.4031 0.1369
C5 C 0.5180(2) 1.29393(19) 0.19736(10)
H11 H 0.5611 1.3669 0.2069
C6 C 0.4692(2) 1.2601(2) 0.25327(10)
H12 H 0.5349 1.2452 0.2875
C7 C 0.3950(2) 1.1532(2) 0.23788(11)
H13 H 0.4100 1.0844 0.2593
C8 C 0.3060(2) 1.1661(2) 0.19084(11)
H14 H 0.2547 1.1061 0.1756
C9 C 0.3637(2) 1.3426(2) 0.33039(10)
C10 C 0.1598(2) 1.3635(2) 0.23260(11)
C11 C 0.4207(2) 1.2626(2) 0.08325(10)
C12 C 0.6084(2) 1.2043(2) 0.18794(11)
C13 C 0.6477(2) 1.1499(2) 0.39853(11)
H15 H 0.5916 1.1315 0.3640
C14 C 0.7664(2) 1.1499(2) 0.39535(11)
H16 H 0.7887 1.1352 0.3591
C15 C 0.8530(2) 1.1723(2) 0.44734(11)
C16 C 0.8133(2) 1.1917(2) 0.50014(11)
H17 H 0.8677 1.2024 0.5362
C17 C 0.6921(2) 1.1951(2) 0.49886(11)
H18 H 0.6674 1.2121 0.5343
C18 C 0.9819(2) 1.1768(2) 0.44628(11)
C19 C 1.0227(2) 1.2281(2) 0.39927(12)
H19 H 0.9688 1.2587 0.3667
C20 C 1.1437(2) 1.2337(2) 0.40075(11)
H20 H 1.1687 1.2698 0.3690
C21 C 1.1864(2) 1.1372(2) 0.49066(11)
H21 H 1.2416 1.1028 0.5215
C22 C 1.0677(2) 1.1320(2) 0.49322(11)
H22 H 1.0449 1.0987 0.5263
C23 C 0.8012(2) 1.0530(2) 0.06594(11)
H23 H 0.7191 1.0604 0.0599
C24 C 0.8502(2) 1.0246(2) 0.01754(11)
H24 H 0.8015 1.0113 -0.0199
C25 C 0.9715(2) 1.0163(2) 0.02514(11)
C26 C 1.0384(3) 1.0399(4) 0.08109(15)
H25 H 1.1210 1.0379 0.0879
C27 C 0.9824(3) 1.0667(4) 0.12720(15)
H26 H 1.0293 1.0832 0.1648
N3B N 1.13391(19) 0.92982(18) -0.12087(10)
C23B C 1.1988(2) 0.9470(2) -0.06594(11)
H23B H 1.2809 0.9396 -0.0599
C24B C 1.1498(2) 0.9754(2) -0.01754(11)
H24B H 1.1985 0.9887 0.0199
C25B C 1.0285(2) 0.9837(2) -0.02514(11)
C26B C 0.9616(3) 0.9601(4) -0.08109(15)
H25B H 0.8790 0.9621 -0.0879
C27B C 1.0176(3) 0.9333(4) -0.12720(15)
H26B H 0.9707 0.9168 -0.1648
Co1B Co 1.58040(3) 0.80695(3) -0.448145(14)
Co2B Co 1.22052(3) 0.92887(3) -0.191438(14)
O1B O 1.60772(15) 0.75166(13) -0.35775(7)
O2B O 1.68084(16) 0.57248(14) -0.35369(7)
O3B O 1.87960(15) 0.54459(15) -0.25281(8)
O4B O 1.89630(17) 0.72933(15) -0.22693(9)
O5B O 1.60481(16) 0.84200(14) -0.07455(7)
O6B O 1.55113(14) 0.67030(13) -0.04367(7)
O7B O 1.34373(16) 0.79094(14) -0.14277(8)
O8B O 1.35657(15) 0.86998(14) -0.22899(7)
O9B O 1.59397(16) 0.97897(14) -0.42874(8)
H1B H 1.5396 1.0299 -0.4361
H2B H 1.5815 0.9672 -0.3937
O10B O 1.54984(16) 0.62805(14) -0.46708(7)
H3B H 1.6044 0.5984 -0.4403
H4B H 1.5939 0.6192 -0.4924
O11B O 1.11612(16) 0.79342(15) -0.23928(8)
H5B H 1.0451 0.7704 -0.2417
H6B H 1.1507 0.7514 -0.2611
N1B N 1.39106(18) 0.82489(16) -0.44909(9)
N2B N 0.77325(18) 0.81035(17) -0.44566(9)
C1B C 1.6091(2) 0.6409(2) -0.26807(10)
H7B H 1.5621 0.5699 -0.2697
C2B C 1.7195(2) 0.62657(19) -0.21419(10)
H8B H 1.7151 0.5487 -0.1977
C3B C 1.7054(2) 0.71430(19) -0.16405(10)
H9B H 1.7738 0.7100 -0.1303
C4B C 1.5884(2) 0.6808(2) -0.14336(10)
H10B H 1.5906 0.5969 -0.1369
C5B C 1.4820(2) 0.70607(19) -0.19736(10)
H11B H 1.4389 0.6331 -0.2069
C6B C 1.5308(2) 0.7399(2) -0.25327(10)
H12B H 1.4651 0.7548 -0.2875
C7B C 1.6050(2) 0.8468(2) -0.23788(11)
H13B H 1.5900 0.9156 -0.2593
C8B C 1.6940(2) 0.8339(2) -0.19084(11)
H14B H 1.7453 0.8939 -0.1756
C9B C 1.6363(2) 0.6574(2) -0.33039(10)
C10B C 1.8402(2) 0.6365(2) -0.23260(11)
C11B C 1.5793(2) 0.7374(2) -0.08325(10)
C12B C 1.3916(2) 0.7957(2) -0.18794(11)
C13B C 1.3523(2) 0.8501(2) -0.39853(11)
H15B H 1.4084 0.8685 -0.3640
C14B C 1.2336(2) 0.8501(2) -0.39535(11)
H16B H 1.2113 0.8648 -0.3591
C15B C 1.1470(2) 0.8277(2) -0.44734(11)
C16B C 1.1867(2) 0.8083(2) -0.50014(11)
H17B H 1.1323 0.7976 -0.5362
C17B C 1.3079(2) 0.8049(2) -0.49886(11)
H18B H 1.3326 0.7879 -0.5343
C18B C 1.0181(2) 0.8232(2) -0.44628(11)
C19B C 0.9773(2) 0.7719(2) -0.39927(12)
H19B H 1.0312 0.7413 -0.3667
C20B C 0.8563(2) 0.7663(2) -0.40075(11)
H20B H 0.8313 0.7302 -0.3690
C21B C 0.8136(2) 0.8628(2) -0.49066(11)
H21B H 0.7584 0.8972 -0.5215
C22B C 0.9323(2) 0.8680(2) -0.49322(11)
H22B H 0.9551 0.9013 -0.5263
Co1_2 Co 1.41960(3) 1.19305(3) 0.448145(14)
Co1A Co 1.58040(3) 0.69305(3) 0.051855(14)
Co1B_2 Co 0.58040(3) 0.80695(3) -0.448145(14)
Co1C Co 0.41960(3) 1.30695(3) -0.051855(14)
Co2A Co 0.22052(3) 1.57113(3) 0.308562(14)
Co2C Co 1.77948(3) 0.42887(3) -0.308562(14)
O2A O 0.68084(16) 0.92752(14) 0.14631(7)
O2C O 1.31916(16) 1.07248(14) -0.14631(7)
O3A O 0.87960(15) 0.95541(15) 0.24719(8)
O3C O 1.12040(15) 1.04459(15) -0.24719(8)
O6A O 1.55113(14) 0.82970(13) -0.54367(7)
O6C O 0.44887(14) 1.17030(13) 0.54367(7)
N2_2 N 0.22675(18) 1.18965(17) 0.44566(9)
N2B_2 N 1.77325(18) 0.81035(17) -0.44566(9)
O12 O 0.88353(17) 0.53172(16) 0.22918(9)
H27 H 0.8776 0.6041 0.2346
H28 H 0.9558 0.5165 0.2290
O13 O 0.78874(17) 0.41077(16) 0.12630(8)
H29 H 0.8038 0.4526 0.1577
H30 H 0.7559 0.3488 0.1346
O14 O 0.36276(17) 0.93554(15) 0.11763(9)
H31 H 0.3795 1.0062 0.1132
H32 H 0.3968 0.8964 0.0945
O15 O 0.22208(19) 0.87176(17) 0.20344(10)
H33 H 0.2633 0.8870 0.1775
H34 H 0.2017 0.9361 0.2164
loop_
_geom_bond_atom_site_label_1
_geom_bond_atom_site_label_2
_geom_bond_site_symmetry_1
_geom_bond_site_symmetry_2
Co1 O1 1_555 1_555
Co2 O7 1_555 1_555
O1 C9 1_555 1_555
O2 C9 1_555 1_555
O3 C10 1_555 1_555
O4 C10 1_555 1_555
O5 C11 1_555 1_555
O6 C11 1_555 1_555
O7 C12 1_555 1_555
O8 Co2 1_555 1_555
O9 Co1 1_555 1_555
H1 O9 1_555 1_555
H2 O9 1_555 1_555
O10 Co1 1_555 1_555
H3 O10 1_555 1_555
H4 O10 1_555 1_555
O11 Co2 1_555 1_555
H5 O11 1_555 1_555
H6 O11 1_555 1_555
N1 Co1 1_555 1_555
N2 C20 1_555 1_555
N3 Co2 1_555 1_555
C1 H7 1_555 1_555
C2 C1 1_555 1_555
H8 C2 1_555 1_555
C3 C2 1_555 1_555
H9 C3 1_555 1_555
C4 C3 1_555 1_555
H10 C4 1_555 1_555
C5 C4 1_555 1_555
H11 C5 1_555 1_555
C6 C1 1_555 1_555
H12 C6 1_555 1_555
C7 C6 1_555 1_555
H13 C7 1_555 1_555
C8 C3 1_555 1_555
H14 C8 1_555 1_555
C9 C1 1_555 1_555
C10 C2 1_555 1_555
C11 C4 1_555 1_555
C12 O8 1_555 1_555
C13 N1 1_555 1_555
H15 C13 1_555 1_555
C14 C13 1_555 1_555
H16 C14 1_555 1_555
C15 C14 1_555 1_555
C16 C15 1_555 1_555
H17 C16 1_555 1_555
C17 N1 1_555 1_555
H18 C17 1_555 1_555
C18 C15 1_555 1_555
C19 C18 1_555 1_555
H19 C19 1_555 1_555
C20 C19 1_555 1_555
H20 C20 1_555 1_555
C21 N2 1_555 1_555
H21 C21 1_555 1_555
C22 C18 1_555 1_555
H22 C22 1_555 1_555
C23 N3 1_555 1_555
H23 C23 1_555 1_555
C24 C23 1_555 1_555
H24 C24 1_555 1_555
C25 C24 1_555 1_555
C26 C25 1_555 1_555
H25 C26 1_555 1_555
C27 N3 1_555 1_555
H26 C27 1_555 1_555
O12 H27 1_555 1_555
H28 O12 1_555 1_555
O13 H29 1_555 1_555
H30 O13 1_555 1_555
O14 H31 1_555 1_555
H32 O14 1_555 1_555
O15 H33 1_555 1_555
H34 O15 1_555 1_555
N3B C23B 1_555 1_555
C23B H23B 1_555 1_555
C24B C23B 1_555 1_555
H24B C24B 1_555 1_555
C25B C25 1_555 1_555
C26B C25B 1_555 1_555
H25B C26B 1_555 1_555
C27B N3B 1_555 1_555
H26B C27B 1_555 1_555
Co1B O1B 1_555 1_555
Co2B N3B 1_555 1_555
O1B C9B 1_555 1_555
O2B C9B 1_555 1_555
O3B C10B 1_555 1_555
O4B C10B 1_555 1_555
O5B C11B 1_555 1_555
O6B C11B 1_555 1_555
O7B Co2B 1_555 1_555
O8B Co2B 1_555 1_555
O9B Co1B 1_555 1_555
H1B O9B 1_555 1_555
H2B O9B 1_555 1_555
O10B Co1B 1_555 1_555
H3B O10B 1_555 1_555
H4B O10B 1_555 1_555
O11B Co2B 1_555 1_555
H5B O11B 1_555 1_555
H6B O11B 1_555 1_555
N1B Co1B 1_555 1_555
N2B C20B 1_555 1_555
C1B H7B 1_555 1_555
C2B C1B 1_555 1_555
H8B C2B 1_555 1_555
C3B C2B 1_555 1_555
H9B C3B 1_555 1_555
C4B C3B 1_555 1_555
H10B C4B 1_555 1_555
C5B C4B 1_555 1_555
H11B C5B 1_555 1_555
C6B C1B 1_555 1_555
H12B C6B 1_555 1_555
C7B C6B 1_555 1_555
H13B C7B 1_555 1_555
C8B C3B 1_555 1_555
H14B C8B 1_555 1_555
C9B C1B 1_555 1_555
C10B C2B 1_555 1_555
C11B C4B 1_555 1_555
C12B O7B 1_555 1_555
C13B N1B 1_555 1_555
H15B C13B 1_555 1_555
C14B C13B 1_555 1_555
H16B C14B 1_555 1_555
C15B C14B 1_555 1_555
C16B C15B 1_555 1_555
H17B C16B 1_555 1_555
C17B N1B 1_555 1_555
H18B C17B 1_555 1_555
C18B C15B 1_555 1_555
C19B C18B 1_555 1_555
H19B C19B 1_555 1_555
C20B C19B 1_555 1_555
H20B C20B 1_555 1_555
C21B N2B 1_555 1_555
H21B C21B 1_555 1_555
C22B C18B 1_555 1_555
H22B C22B 1_555 1_555
Co1_2 N2 1_555 1_555
Co1A O6B 1_555 1_555
Co1B_2 N2B 1_555 1_555
Co1C O6 1_555 1_555
Co2A O2 1_555 1_555
Co2C O2B 1_555 1_555
O2A Co2 1_555 1_555
O2C Co2B 1_555 1_555
O3A Co2 1_555 1_555
O3C Co2B 1_555 1_555
O6A Co1B 1_555 1_555
O6C Co1 1_555 1_555
N2_2 Co1 1_555 1_555
N2B_2 Co1B 1_555 1_555
O3 Co2A 1_555 1_555
C5 C6 1_555 1_555
C5 C12 1_555 1_555
C7 C8 1_555 1_555
C16 C17 1_555 1_555
C21 C22 1_555 1_555
C26 C27 1_555 1_555
C24B C25B 1_555 1_555
C26B C27B 1_555 1_555
O3B Co2C 1_555 1_555
O8B C12B 1_555 1_555
C5B C6B 1_555 1_555
C5B C12B 1_555 1_555
C7B C8B 1_555 1_555
C16B C17B 1_555 1_555
C21B C22B 1_555 1_555

#END
