
#######################################################################
#
#                 Cambridge Crystallographic Data Centre
#                                CCDC 
#
#######################################################################
#
# If this CIF has been generated from an entry in the Cambridge 
# Structural Database, then it will include bibliographic, chemical, 
# crystal, experimental, refinement or atomic coordinate data resulting 
# from the CCDC's data processing and validation procedures.
#
#######################################################################

data_FITHEW
_symmetry_cell_setting           rhombohedral
_symmetry_space_group_name_H-M   'R -3 c'
_symmetry_Int_Tables_number      167
_space_group_name_Hall           '-R 3 2"c'
loop_
_symmetry_equiv_pos_site_id
_symmetry_equiv_pos_as_xyz
1 x,y,z
2 -y,x-y,z
3 -x+y,-x,z
4 y,x,1/2-z
5 2/3+x,1/3+y,1/3+z
6 2/3-y,1/3+x-y,1/3+z
7 2/3-x+y,1/3-x,1/3+z
8 2/3+y,1/3+x,5/6-z
9 1/3+x,2/3+y,2/3+z
10 1/3+y,2/3+x,1/6-z
11 x-y,-y,1/2-z
12 -x,-x+y,1/2-z
13 1/3-y,2/3+x-y,2/3+z
14 1/3-x+y,2/3-x,2/3+z
15 1/3+x-y,2/3-y,1/6-z
16 1/3-x,2/3-x+y,1/6-z
17 2/3+x-y,1/3-y,5/6-z
18 2/3-x,1/3-x+y,5/6-z
19 -x,-y,-z
20 y,-x+y,-z
21 x-y,x,-z
22 -y,-x,1/2+z
23 1/3-x,2/3-y,2/3-z
24 1/3+y,2/3-x+y,2/3-z
25 1/3+x-y,2/3+x,2/3-z
26 1/3-y,2/3-x,1/6+z
27 2/3-x,1/3-y,1/3-z
28 2/3-y,1/3-x,5/6+z
29 -x+y,y,1/2+z
30 x,x-y,1/2+z
31 2/3+y,1/3-x+y,1/3-z
32 2/3+x-y,1/3+x,1/3-z
33 2/3-x+y,1/3+y,5/6+z
34 2/3+x,1/3+x-y,5/6+z
35 1/3-x+y,2/3+y,1/6+z
36 1/3+x,2/3+x-y,1/6+z
_cell_length_a                   20.4951(14)
_cell_length_b                   20.4951(14)
_cell_length_c                   15.818(2)
_cell_angle_alpha                90
_cell_angle_beta                 90
_cell_angle_gamma                120.00
_cell_volume                     5754.16
loop_
_atom_site_label
_atom_site_type_symbol
_atom_site_fract_x
_atom_site_fract_y
_atom_site_fract_z
Sc1 Sc 0.0000 0.0000 0.0000
O1 O 0.07926(10) -0.00777(11) 0.07485(14)
N1 N 0.14900(12) 0.04110(13) 0.10173(15)
C1 C 0.17093(18) 0.11415(17) 0.1114(2)
H1 H 0.1366 0.1316 0.1004
C2 C 0.24318(17) 0.16381(18) 0.1373(2)
H2 H 0.2586 0.2157 0.1434
C3 C 0.29361(14) 0.13968(15) 0.15448(16)
C4 C 0.26723(16) 0.06294(16) 0.1465(2)
H3 H 0.2998 0.0438 0.1594
C5 C 0.19522(16) 0.01458(17) 0.1202(2)
H4 H 0.1780 -0.0377 0.1151
Sc1D Sc 0.6667 0.3333 0.3333
Sc1D_2 Sc -0.3333 0.3333 0.3333
Sc1D_3 Sc -0.3333 -0.6667 0.3333
O1Z O 0.58741(10) 0.34110(11) 0.25848(14)
O1A O 0.00777(11) 0.08703(15) 0.07485(14)
O1DA O -0.34110(11) 0.24630(15) 0.25848(14)
O1B O -0.08703(15) -0.07926(10) 0.07485(14)
O1EA O -0.24630(15) -0.58741(10) 0.25848(14)
O1R O -0.07926(10) 0.00777(11) -0.07485(14)
O1S O -0.00777(11) -0.08703(15) -0.07485(14)
O1T O 0.08703(15) 0.07926(10) -0.07485(14)
N1Z N 0.51767(12) 0.29223(13) 0.23160(15)
N1A N -0.04110(13) 0.10790(18) 0.10173(15)
N1DA N -0.29223(13) 0.22543(18) 0.23160(15)
N1B N -0.10790(18) -0.14900(12) 0.10173(15)
N1EA N -0.22543(18) -0.51767(12) 0.23160(15)
C1Z C 0.49574(18) 0.21918(17) 0.2219(2)
C1A C -0.11415(17) 0.05678(25) 0.1114(2)
C1DA C -0.21918(17) 0.27655(25) 0.2219(2)
C1B C -0.05678(25) -0.17093(18) 0.1114(2)
C1EA C -0.27655(25) -0.49574(18) 0.2219(2)
H1Z H 0.5301 0.2017 0.2329
H1A H -0.1316 0.0050 0.1004
H1DA H -0.2017 0.3283 0.2329
H1B H -0.0050 -0.1366 0.1004
H1EA H -0.3283 -0.5301 0.2329
C2Z C 0.42349(17) 0.16952(18) 0.1960(2)
C2A C -0.16381(18) 0.07937(25) 0.1373(2)
C2DA C -0.16952(18) 0.25396(25) 0.1960(2)
C2B C -0.07937(25) -0.24318(17) 0.1373(2)
C2EA C -0.25396(25) -0.42349(17) 0.1960(2)
H2Z H 0.4081 0.1176 0.1899
H2A H -0.2157 0.0429 0.1434
H2DA H -0.1176 0.2904 0.1899
H2B H -0.0429 -0.2586 0.1434
H2EA H -0.2904 -0.4081 0.1899
C3Z C 0.37306(14) 0.19365(15) 0.17885(16)
C3A C -0.13968(15) 0.15393(21) 0.15448(16)
C3DA C -0.19365(15) 0.17940(21) 0.17885(16)
C3B C -0.15393(21) -0.29361(14) 0.15448(16)
C3EA C -0.17940(21) -0.37306(14) 0.17885(16)
C4Z C 0.39944(16) 0.27039(16) 0.1868(2)
C4A C -0.06294(16) 0.20429(23) 0.1465(2)
C4DA C -0.27039(16) 0.12904(23) 0.1868(2)
C4B C -0.20429(23) -0.26723(16) 0.1465(2)
C4EA C -0.12904(23) -0.39944(16) 0.1868(2)
H3Z H 0.3669 0.2895 0.1739
H3A H -0.0438 0.2560 0.1594
H3DA H -0.2895 0.0773 0.1739
H3B H -0.2560 -0.2998 0.1594
H3EA H -0.0773 -0.3669 0.1739
C5Z C 0.47145(16) 0.31875(17) 0.2131(2)
C5A C -0.01458(17) 0.18064(23) 0.1202(2)
C5DA C -0.31875(17) 0.15269(23) 0.2131(2)
C5B C -0.18064(23) -0.19522(16) 0.1202(2)
C5EA C -0.15269(23) -0.47145(16) 0.2131(2)
H4Z H 0.4887 0.3710 0.2182
H4A H 0.0377 0.2157 0.1151
H4DA H -0.3710 0.1176 0.2182
H4B H -0.2157 -0.1780 0.1151
H4EA H -0.1176 -0.4887 0.2182
Cl1 Cl 0.3333 0.12161(6) -0.0833
O4 O 0.3235(3) 0.0563(3) -0.0416(4)
O5 O 0.3159(4) 0.1674(4) -0.0315(4)
O4Q O 0.3432(3) 0.0661(4) -0.1251(4)
O5Q O 0.3508(4) 0.1848(6) -0.1352(4)
O2? O 0.2585(3) 0.0914(3) -0.0530(3)
O3? O 0.3853(3) 0.1519(3) -0.0097(3)
loop_
_geom_bond_atom_site_label_1
_geom_bond_atom_site_label_2
_geom_bond_site_symmetry_1
_geom_bond_site_symmetry_2
Sc1 O1 1_555 1_555
O1 N1 1_555 1_555
N1 C1 1_555 1_555
C1 H1 1_555 1_555
C2 C1 1_555 1_555
H2 C2 1_555 1_555
C3 C2 1_555 1_555
C4 C3 1_555 1_555
H3 C4 1_555 1_555
C5 N1 1_555 1_555
H4 C5 1_555 1_555
Cl1 O4 1_555 1_555
O5 Cl1 1_555 1_555
Sc1D O1Z 1_555 1_555
Sc1D_2 O1DA 1_555 1_555
Sc1D_3 O1EA 1_555 1_555
O1Z N1Z 1_555 1_555
O1A Sc1 1_555 1_555
O1DA N1DA 1_555 1_555
O1B Sc1 1_555 1_555
O1EA N1EA 1_555 1_555
O1R Sc1 1_555 1_555
O1S Sc1 1_555 1_555
O1T Sc1 1_555 1_555
N1Z C1Z 1_555 1_555
N1A O1A 1_555 1_555
N1DA C1DA 1_555 1_555
N1B O1B 1_555 1_555
N1EA C1EA 1_555 1_555
C1Z H1Z 1_555 1_555
C1A N1A 1_555 1_555
C1DA H1DA 1_555 1_555
C1B N1B 1_555 1_555
C1EA H1EA 1_555 1_555
H1A C1A 1_555 1_555
H1B C1B 1_555 1_555
C2Z C1Z 1_555 1_555
C2A C1A 1_555 1_555
C2DA C1DA 1_555 1_555
C2B C1B 1_555 1_555
C2EA C1EA 1_555 1_555
H2Z C2Z 1_555 1_555
H2A C2A 1_555 1_555
H2DA C2DA 1_555 1_555
H2B C2B 1_555 1_555
H2EA C2EA 1_555 1_555
C3Z C3 1_555 1_555
C3A C2A 1_555 1_555
C3DA C2DA 1_555 1_555
C3B C2B 1_555 1_555
C3EA C2EA 1_555 1_555
C4Z C3Z 1_555 1_555
C4A C3A 1_555 1_555
C4DA C3DA 1_555 1_555
C4B C3B 1_555 1_555
C4EA C3EA 1_555 1_555
H3Z C4Z 1_555 1_555
H3A C4A 1_555 1_555
H3DA C4DA 1_555 1_555
H3B C4B 1_555 1_555
H3EA C4EA 1_555 1_555
C5Z N1Z 1_555 1_555
C5A N1A 1_555 1_555
C5DA N1DA 1_555 1_555
C5B N1B 1_555 1_555
C5EA N1EA 1_555 1_555
H4Z C5Z 1_555 1_555
H4A C5A 1_555 1_555
H4DA C5DA 1_555 1_555
H4B C5B 1_555 1_555
H4EA C5EA 1_555 1_555
O4Q Cl1 1_555 1_555
O5Q Cl1 1_555 1_555
C4 C5 1_555 1_555
C2Z C3Z 1_555 1_555
C3A C3DA 1_555 1_555
C3B C3EA 1_555 1_555
C4Z C5Z 1_555 1_555
C4A C5A 1_555 1_555
C4DA C5DA 1_555 1_555
C4B C5B 1_555 1_555
C4EA C5EA 1_555 1_555

#END
