
#######################################################################
#
#                 Cambridge Crystallographic Data Centre
#                                CCDC 
#
#######################################################################
#
# If this CIF has been generated from an entry in the Cambridge 
# Structural Database, then it will include bibliographic, chemical, 
# crystal, experimental, refinement or atomic coordinate data resulting 
# from the CCDC's data processing and validation procedures.
#
#######################################################################

data_FITHUM
_symmetry_cell_setting           monoclinic
_symmetry_space_group_name_H-M   'C 2/c'
_symmetry_Int_Tables_number      15
_space_group_name_Hall           '-C 2yn'
loop_
_symmetry_equiv_pos_site_id
_symmetry_equiv_pos_as_xyz
1 x,y,z
2 1/2+x,1/2+y,z
3 -x,y,1/2-z
4 1/2-x,1/2+y,1/2-z
5 -x,-y,-z
6 1/2-x,1/2-y,-z
7 x,-y,1/2+z
8 1/2+x,1/2-y,1/2+z
_cell_length_a                   14.0040(5)
_cell_length_b                   10.7125(4)
_cell_length_c                   15.6716(3)
_cell_angle_alpha                90
_cell_angle_beta                 98.036(2)
_cell_angle_gamma                90
_cell_volume                     2327.93
loop_
_atom_site_label
_atom_site_type_symbol
_atom_site_fract_x
_atom_site_fract_y
_atom_site_fract_z
Gd1 Gd 0.44454(2) 0.22550(3) 0.440527(17)
P1 P 0.20701(11) 0.40133(15) 0.40351(10)
N1 N 0.2309(4) 0.3814(5) 0.2306(3)
H1 H 0.2728 0.3221 0.2548
C1 C 0.1563(4) 0.3935(7) 0.2906(4)
H2 H 0.1186 0.4683 0.2756
H3 H 0.1129 0.3226 0.2820
C2 C 0.2912(5) 0.4958(7) 0.2244(4)
H4 H 0.3373 0.4802 0.1858
H5 H 0.2503 0.5642 0.2031
H6 H 0.3244 0.5163 0.2804
C3 C 0.1901(5) 0.3301(6) 0.1446(4)
H7 H 0.2428 0.3157 0.1117
H8 H 0.1611 0.2497 0.1534
C4 C 0.1148(4) 0.4114(5) 0.0906(4)
C5 C 0.5536(4) 0.2167(5) 0.2690(4)
C6 C 0.4946(5) 0.4820(6) 0.5469(4)
O1 O 0.5736(3) 0.2014(4) 0.3488(3)
O2 O 0.6130(3) 0.2306(4) 0.2169(3)
O3 O 0.4777(4) 0.3703(4) 0.5611(3)
O4 O 0.5050(4) 0.5687(4) 0.6015(3)
O5 O 0.2963(3) 0.3241(5) 0.4145(3)
O6 O 0.1276(3) 0.3669(4) 0.4523(3)
O7 O 0.2386(3) 0.5414(5) 0.4230(3)
H9 H 0.1948 0.5883 0.4031
O8 O 0.0958(3) 0.5180(4) 0.1153(3)
O9 O 0.0824(3) 0.3618(4) 0.0189(3)
Gd1B Gd 0.55546(2) 0.22550(3) 0.059473(17)
Gd1D Gd 0.55546(2) 0.77450(3) 0.559473(17)
Gd1E Gd 0.05546(2) 0.27450(3) 0.559473(17)
Gd1C Gd 0.05546(2) 0.72550(3) 0.059473(17)
Gd1G Gd -0.05546(2) 0.27450(3) -0.059473(17)
Gd1F Gd 0.44454(2) -0.22550(3) 0.940527(17)
Gd1B_2 Gd 0.55546(2) 0.22550(3) 1.059473(17)
P1E P 0.29299(11) 0.09867(15) 0.59649(10)
N1E N 0.2691(4) 0.1186(5) 0.7694(3)
H1E H 0.2272 0.1779 0.7452
C1E C 0.3437(4) 0.1065(7) 0.7094(4)
H2E H 0.3814 0.0317 0.7244
H3E H 0.3871 0.1774 0.7180
C2E C 0.2088(5) 0.0042(7) 0.7756(4)
H4E H 0.1627 0.0198 0.8142
H5E H 0.2497 -0.0642 0.7969
H6E H 0.1756 -0.0163 0.7196
C3E C 0.3099(5) 0.1699(6) 0.8554(4)
H7E H 0.2572 0.1843 0.8883
H8E H 0.3389 0.2503 0.8466
C4E C 0.3852(4) 0.0886(5) 0.9094(4)
C5B C 0.4464(4) 0.2167(5) 0.2310(4)
C6D C 0.5054(5) 0.5180(6) 0.4531(4)
O1B O 0.4264(3) 0.2014(4) 0.1512(3)
O2B O 0.3870(3) 0.2306(4) 0.2831(3)
O3D O 0.5223(4) 0.6297(4) 0.4389(3)
O3B O 0.5223(4) 0.3703(4) -0.0611(3)
O4D O 0.4950(4) 0.4313(4) 0.3985(3)
O4F O 0.5050(4) 0.4313(4) 0.1015(3)
O5E O 0.2037(3) 0.1759(5) 0.5855(3)
O5B O 0.7037(3) 0.3241(5) 0.0855(3)
O6E O 0.3724(3) 0.1331(4) 0.5477(3)
O6G O 0.6276(3) 0.1331(4) -0.0477(3)
O7E O 0.2614(3) -0.0414(5) 0.5770(3)
H9E H 0.3052 -0.0883 0.5969
O8E O 0.4042(3) -0.0180(4) 0.8847(3)
O8C O 0.4042(3) 0.0180(4) 0.3847(3)
O8A O 0.5958(3) 0.0180(4) 0.1153(3)
O9E O 0.4176(3) 0.1382(4) 0.9811(3)
O9G O 0.5824(3) 0.1382(4) 0.5189(3)
O9E_2 O 0.4176(3) 0.1382(4) -0.0189(3)
O10 O 0.5000 0.3375(9) 0.7500
loop_
_geom_bond_atom_site_label_1
_geom_bond_atom_site_label_2
_geom_bond_site_symmetry_1
_geom_bond_site_symmetry_2
Gd1 O1 1_555 1_555
P1 C1 1_555 1_555
N1 H1 1_555 1_555
C1 N1 1_555 1_555
H2 C1 1_555 1_555
H3 C1 1_555 1_555
C2 N1 1_555 1_555
H4 C2 1_555 1_555
H5 C2 1_555 1_555
H6 C2 1_555 1_555
C3 N1 1_555 1_555
H7 C3 1_555 1_555
H8 C3 1_555 1_555
C4 C3 1_555 1_555
C5 O1 1_555 1_555
C6 O3 1_555 1_555
O2 C5 1_555 1_555
O3 Gd1 1_555 1_555
O4 C6 1_555 1_555
O5 Gd1 1_555 1_555
O6 P1 1_555 1_555
O7 P1 1_555 1_555
H9 O7 1_555 1_555
O8 C4 1_555 1_555
O9 C4 1_555 1_555
Gd1B O2 1_555 1_555
Gd1D O4 1_555 1_555
Gd1E O6 1_555 1_555
Gd1C O8 1_555 1_555
Gd1G O9 1_555 1_555
Gd1F O8E 1_555 1_555
Gd1B_2 O9E 1_555 1_555
P1E C1E 1_555 1_555
N1E H1E 1_555 1_555
C1E N1E 1_555 1_555
H2E C1E 1_555 1_555
H3E C1E 1_555 1_555
C2E N1E 1_555 1_555
H4E C2E 1_555 1_555
H5E C2E 1_555 1_555
H6E C2E 1_555 1_555
C3E N1E 1_555 1_555
H7E C3E 1_555 1_555
H8E C3E 1_555 1_555
C4E C3E 1_555 1_555
C5B C5 1_555 1_555
C6D C6 1_555 1_555
O1B Gd1B 1_555 1_555
O2B Gd1 1_555 1_555
O3D Gd1D 1_555 1_555
O3B Gd1B 1_555 1_555
O4D Gd1 1_555 1_555
O4F Gd1B 1_555 1_555
O5E Gd1E 1_555 1_555
O5B Gd1B 1_555 1_555
O6E Gd1 1_555 1_555
O6G Gd1B 1_555 1_555
O7E P1E 1_555 1_555
H9E O7E 1_555 1_555
O8E C4E 1_555 1_555
O8C Gd1 1_555 1_555
O8A Gd1B 1_555 1_555
O9E C4E 1_555 1_555
O9G Gd1 1_555 1_555
O9E_2 Gd1B 1_555 1_555
P1 O5 1_555 1_555
P1E O5E 1_555 1_555
P1E O6E 1_555 1_555
C5B O1B 1_555 1_555
C5B O2B 1_555 1_555
C6D O3D 1_555 1_555
C6D O4D 1_555 1_555

#END
