
#######################################################################
#
#                 Cambridge Crystallographic Data Centre
#                                CCDC 
#
#######################################################################
#
# If this CIF has been generated from an entry in the Cambridge 
# Structural Database, then it will include bibliographic, chemical, 
# crystal, experimental, refinement or atomic coordinate data resulting 
# from the CCDC's data processing and validation procedures.
#
#######################################################################

data_FITJUO
_symmetry_cell_setting           triclinic
_symmetry_space_group_name_H-M   'P -1'
_symmetry_Int_Tables_number      2
_space_group_name_Hall           '-P 1'
loop_
_symmetry_equiv_pos_site_id
_symmetry_equiv_pos_as_xyz
1 x,y,z
2 -x,-y,-z
_cell_length_a                   9.4258(9)
_cell_length_b                   10.9658(11)
_cell_length_c                   11.0486(11)
_cell_angle_alpha                117.290(2)
_cell_angle_beta                 91.203(2)
_cell_angle_gamma                109.647(2)
_cell_volume                     934.643
loop_
_atom_site_label
_atom_site_type_symbol
_atom_site_fract_x
_atom_site_fract_y
_atom_site_fract_z
La1 La 0.53675(4) 0.68135(4) 0.33829(4)
La2 La 0.14565(4) 0.04328(4) 0.29477(4)
P1 P 0.97221(18) 0.78948(18) 0.42854(17)
N1 N 0.8828(7) 0.4836(6) 0.2516(7)
H1 H 0.7976 0.4995 0.2346
C1 C 0.4235(7) 0.3649(7) 0.3530(7)
C2 C 0.2722(7) 0.3868(8) 0.3325(7)
C3 C 0.4213(7) 0.9635(7) 0.4493(6)
C4 C 0.4285(8) 0.5179(8) -0.0089(7)
C5 C -0.0817(7) -0.0316(8) 0.0126(7)
C6 C 0.9794(8) 0.6116(7) 0.3912(7)
H2 H 1.0855 0.6206 0.3942
H3 H 0.9442 0.5895 0.4635
C7 C 0.8309(10) 0.3397(9) 0.2525(11)
H4 H 0.7694 0.2601 0.1628
H5 H 0.7707 0.3444 0.3223
H6 H 0.9191 0.3220 0.2728
C8 C 0.9692(12) 0.4778(11) 0.1385(9)
H7 H 0.9057 0.3966 0.0504
H8 H 1.0611 0.4636 0.1555
H9 H 0.9964 0.5697 0.1370
O1 O 0.5449(5) 0.4555(5) 0.3505(5)
O2 O 0.4146(5) 0.2598(5) 0.3758(5)
O3 O 0.2873(5) 0.5071(5) 0.3368(6)
O4 O 0.1494(5) 0.2857(5) 0.3154(5)
O5 O 0.3665(5) 0.8257(5) 0.3722(5)
O6 O 0.3616(5) 1.0508(5) 0.4529(4)
O7 O 0.3853(6) 0.5861(6) 0.0985(5)
O8 O 0.3695(6) 0.4755(6) -0.1321(5)
O9 O -0.0910(6) -0.0580(6) 0.1112(5)
O10 O -0.1923(5) -0.0508(6) -0.0687(5)
O11 O 1.0235(5) 0.8223(5) 0.3150(5)
O12 O 0.8042(5) 0.7681(5) 0.4362(5)
O13 O 1.0657(5) 0.9018(5) 0.5751(5)
O15 O 0.6657(6) 0.8755(6) 0.2625(5)
O16 O 0.2683(6) -0.1452(6) 0.1460(5)
La1A La 0.46325(4) 1.31865(4) 0.66171(4)
La1A_2 La 0.46325(4) 0.31865(4) -0.33829(4)
La1_2 La -0.46325(4) -0.31865(4) 0.33829(4)
La2_2 La 0.14565(4) 1.04328(4) 0.29477(4)
La2A La -0.14565(4) -0.04328(4) -0.29477(4)
La2_3 La 1.14565(4) 1.04328(4) 0.29477(4)
La2A_2 La 0.85435(4) 0.95672(4) 0.70523(4)
La2A_3 La -0.14565(4) -0.04328(4) 0.70523(4)
La2A_4 La 0.85435(4) 1.95672(4) 0.70523(4)
P1_2 P -0.02779(18) -0.21052(18) 0.42854(17)
N1_2 N -0.1172(7) -0.5164(6) 0.2516(7)
H1_2 H -0.2024 -0.5005 0.2346
C1A C 0.5765(7) 1.6351(7) 0.6470(7)
C2A C 0.7278(7) 1.6132(8) 0.6675(7)
C3A C 0.5787(7) 1.0365(7) 0.5507(6)
C4A C 0.5715(8) 0.4821(8) 0.0089(7)
C5A C 0.0817(7) 0.0316(8) -0.0126(7)
C6_2 C -0.0206(8) -0.3884(7) 0.3912(7)
H2_2 H 0.0855 -0.3794 0.3942
H3_2 H -0.0558 -0.4105 0.4635
C7_2 C -0.1691(10) -0.6603(9) 0.2525(11)
H4_2 H -0.2306 -0.7399 0.1628
H5_2 H -0.2293 -0.6556 0.3223
H6_2 H -0.0809 -0.6780 0.2728
C8_2 C -0.0308(12) -0.5222(11) 0.1385(9)
H7_2 H -0.0943 -0.6034 0.0504
H8_2 H 0.0611 -0.5364 0.1555
H9_2 H -0.0036 -0.4303 0.1370
O1A O 0.4551(5) 1.5445(5) 0.6495(5)
O2A O 0.5854(5) 1.7402(5) 0.6242(5)
O2_2 O 0.4146(5) 1.2598(5) 0.3758(5)
O3A O 0.7127(5) 1.4929(5) 0.6632(6)
O4A O 0.8506(5) 1.7143(5) 0.6846(5)
O4_2 O 0.1494(5) 1.2857(5) 0.3154(5)
O5A O 0.6335(5) 1.1743(5) 0.6278(5)
O6A O 0.6384(5) 0.9492(5) 0.5471(4)
O6_2 O 0.3616(5) 0.0508(5) 0.4529(4)
O7A O 0.6147(6) 0.4139(6) -0.0985(5)
O7A_2 O 0.6147(6) 1.4139(6) 0.9015(5)
O8A O 0.6305(6) 0.5245(6) 0.1321(5)
O8_2 O 0.3695(6) 1.4755(6) 0.8679(5)
O9A O 0.0910(6) 0.0580(6) -0.1112(5)
O9_2 O -0.0910(6) 0.9420(6) 0.1112(5)
O10A O 0.1923(5) 0.0508(6) 0.0687(5)
O10A_2 O 0.1923(5) 1.0508(6) 0.0687(5)
O11_2 O 0.0235(5) -0.1777(5) 0.3150(5)
O11_3 O 0.0235(5) 0.8223(5) 0.3150(5)
O12_2 O -0.1958(5) -0.2319(5) 0.4362(5)
O12A O 0.1958(5) 0.2319(5) 0.5638(5)
O12A_2 O 0.1958(5) 1.2319(5) 0.5638(5)
O13_2 O 0.0657(5) -0.0982(5) 0.5751(5)
O13A O -0.0657(5) 0.0982(5) 0.4249(5)
O13A_2 O -0.0657(5) 1.0982(5) 0.4249(5)
O15A O 0.3343(6) 1.1245(6) 0.7375(5)
O16_2 O 0.2683(6) 0.8548(6) 0.1460(5)
O14 O 0.5233(10) 0.8599(17) 1.0053(12)
loop_
_geom_bond_atom_site_label_1
_geom_bond_atom_site_label_2
_geom_bond_site_symmetry_1
_geom_bond_site_symmetry_2
La1 O1 1_555 1_555
La2 O2 1_555 1_555
P1 C6 1_555 1_555
N1 H1 1_555 1_555
C1 C2 1_555 1_555
C2 O3 1_555 1_555
C3 O5 1_555 1_555
C4 O7 1_555 1_555
C5 O9 1_555 1_555
C6 N1 1_555 1_555
H2 C6 1_555 1_555
H3 C6 1_555 1_555
C7 N1 1_555 1_555
H4 C7 1_555 1_555
H5 C7 1_555 1_555
H6 C7 1_555 1_555
C8 N1 1_555 1_555
H7 C8 1_555 1_555
H8 C8 1_555 1_555
H9 C8 1_555 1_555
O1 C1 1_555 1_555
O2 C1 1_555 1_555
O3 La1 1_555 1_555
O4 La2 1_555 1_555
O5 La1 1_555 1_555
O6 C3 1_555 1_555
O7 La1 1_555 1_555
O8 C4 1_555 1_555
O9 La2 1_555 1_555
O10 C5 1_555 1_555
O11 P1 1_555 1_555
O12 La1 1_555 1_555
O13 P1 1_555 1_555
O15 La1 1_555 1_555
O16 La2 1_555 1_555
La1A O6 1_555 1_555
La1A_2 O8 1_555 1_555
La1_2 O12_2 1_555 1_555
La2_2 O6 1_555 1_555
La2A O10 1_555 1_555
La2_3 O11 1_555 1_555
La2A_2 O12 1_555 1_555
La2A_3 O12_2 1_555 1_555
La2A_4 O2A 1_555 1_555
P1_2 C6_2 1_555 1_555
N1_2 H1_2 1_555 1_555
C1A C2A 1_555 1_555
C2A O3A 1_555 1_555
C3A C3 1_555 1_555
C4A C4 1_555 1_555
C5A C5 1_555 1_555
C6_2 N1_2 1_555 1_555
H2_2 C6_2 1_555 1_555
H3_2 C6_2 1_555 1_555
C7_2 N1_2 1_555 1_555
H4_2 C7_2 1_555 1_555
H5_2 C7_2 1_555 1_555
H6_2 C7_2 1_555 1_555
C8_2 N1_2 1_555 1_555
H7_2 C8_2 1_555 1_555
H8_2 C8_2 1_555 1_555
H9_2 C8_2 1_555 1_555
O1A La1A 1_555 1_555
O2A C1A 1_555 1_555
O2_2 La2_2 1_555 1_555
O3A La1A 1_555 1_555
O4A La2A_4 1_555 1_555
O4_2 La2_2 1_555 1_555
O5A La1A 1_555 1_555
O6A La1 1_555 1_555
O6_2 La2 1_555 1_555
O7A La1A_2 1_555 1_555
O7A_2 La1A 1_555 1_555
O8A La1 1_555 1_555
O8_2 La1A 1_555 1_555
O9A La2A 1_555 1_555
O9_2 La2_2 1_555 1_555
O10A La2 1_555 1_555
O10A_2 La2_2 1_555 1_555
O11_2 La2 1_555 1_555
O11_3 La2_2 1_555 1_555
O12_2 P1_2 1_555 1_555
O12A La2 1_555 1_555
O12A_2 La1A 1_555 1_555
O13_2 La2A_3 1_555 1_555
O13A La2 1_555 1_555
O13A_2 La2_2 1_555 1_555
O15A La1A 1_555 1_555
O16_2 La2_2 1_555 1_555
P1 O12 1_555 1_555
C2 O4 1_555 1_555
O13 La2A_2 1_555 1_555
La2_2 O12A_2 1_555 1_555
La2A_2 O6A 1_555 1_555
P1_2 O11_2 1_555 1_555
P1_2 O13_2 1_555 1_555
C1A O1A 1_555 1_555
C2A O4A 1_555 1_555
C3A O5A 1_555 1_555
C3A O6A 1_555 1_555
C4A O7A 1_555 1_555
C4A O8A 1_555 1_555
C5A O9A 1_555 1_555
C5A O10A 1_555 1_555

#END
