
#######################################################################
#
#                 Cambridge Crystallographic Data Centre
#                                CCDC 
#
#######################################################################
#
# If this CIF has been generated from an entry in the Cambridge 
# Structural Database, then it will include bibliographic, chemical, 
# crystal, experimental, refinement or atomic coordinate data resulting 
# from the CCDC's data processing and validation procedures.
#
#######################################################################

data_FITJOI
_symmetry_cell_setting           triclinic
_symmetry_space_group_name_H-M   'P -1'
_symmetry_Int_Tables_number      2
_space_group_name_Hall           '-P 1'
loop_
_symmetry_equiv_pos_site_id
_symmetry_equiv_pos_as_xyz
1 x,y,z
2 -x,-y,-z
_cell_length_a                   9.3948(3)
_cell_length_b                   10.7213(3)
_cell_length_c                   10.8727(4)
_cell_angle_alpha                116.3100(10)
_cell_angle_beta                 91.8040(10)
_cell_angle_gamma                109.8690(10)
_cell_volume                     901.461
loop_
_atom_site_label
_atom_site_type_symbol
_atom_site_fract_x
_atom_site_fract_y
_atom_site_fract_z
Nd1 Nd 0.54063(4) 0.68457(4) 0.33531(4)
Nd2 Nd 0.14685(4) 0.04908(4) 0.29715(4)
P1 P 0.9713(2) 0.7896(2) 0.4307(2)
N1 N 0.8782(8) 0.4795(8) 0.2496(8)
H1 H 0.7935 0.4962 0.2306
C1 C 0.4266(9) 0.3677(9) 0.3520(10)
C2 C 0.2770(8) 0.3920(9) 0.3324(9)
C3 C 0.4223(8) 0.9637(8) 0.4485(8)
C4 C 0.4254(9) 0.5155(9) -0.0107(9)
C5 C -0.0807(9) -0.0357(10) 0.0116(9)
C6 C 0.9744(9) 0.6079(9) 0.3902(9)
H2 H 1.0808 0.6166 0.3941
H3 H 0.9381 0.5832 0.4623
C7 C 0.8232(12) 0.3313(10) 0.2496(13)
H4 H 0.7613 0.2518 0.1587
H5 H 0.7621 0.3349 0.3193
H6 H 0.9109 0.3120 0.2709
C8 C 0.9680(14) 0.4776(14) 0.1397(12)
H7 H 0.9058 0.3962 0.0496
H8 H 1.0599 0.4634 0.1592
H9 H 0.9964 0.5721 0.1389
O1 O 0.5473(6) 0.4601(6) 0.3501(6)
O2 O 0.4137(6) 0.2565(6) 0.3703(7)
O3 O 0.2939(6) 0.5169(7) 0.3377(7)
O4 O 0.1519(6) 0.2910(7) 0.3162(7)
O5 O 0.3690(6) 0.8239(6) 0.3661(6)
O6 O 0.3580(6) 1.0511(6) 0.4550(6)
O7 O 0.3848(7) 0.5855(7) 0.0979(6)
O8 O 0.3624(6) 0.4649(7) -0.1353(6)
O9 O -0.0874(6) -0.0599(7) 0.1142(6)
O10 O -0.1958(6) -0.0623(7) -0.0732(7)
O11 O 1.0252(6) 0.8283(6) 0.3186(6)
O12 O 0.8018(6) 0.7690(6) 0.4384(6)
O13 O 1.0652(6) 0.8985(6) 0.5789(6)
O15 O 0.6686(7) 0.8757(7) 0.2599(7)
O16 O 0.2569(8) -0.1408(7) 0.1479(7)
Nd1A Nd 0.45937(4) 1.31543(4) 0.66469(4)
Nd1A_2 Nd 0.45937(4) 0.31543(4) -0.33531(4)
Nd1_2 Nd -0.45937(4) -0.31543(4) 0.33531(4)
Nd2_2 Nd 0.14685(4) 1.04908(4) 0.29715(4)
Nd2A Nd -0.14685(4) -0.04908(4) -0.29715(4)
Nd2_3 Nd 1.14685(4) 1.04908(4) 0.29715(4)
Nd2A_2 Nd 0.85315(4) 0.95092(4) 0.70285(4)
Nd2A_3 Nd -0.14685(4) -0.04908(4) 0.70285(4)
Nd2A_4 Nd 0.85315(4) 1.95092(4) 0.70285(4)
P1_2 P -0.0287(2) -0.2104(2) 0.4307(2)
N1_2 N -0.1218(8) -0.5205(8) 0.2496(8)
H1_2 H -0.2065 -0.5038 0.2306
C1A C 0.5734(9) 1.6323(9) 0.6480(10)
C2A C 0.7230(8) 1.6080(9) 0.6676(9)
C3A C 0.5777(8) 1.0363(8) 0.5515(8)
C4A C 0.5746(9) 0.4845(9) 0.0107(9)
C5A C 0.0807(9) 0.0357(10) -0.0116(9)
C6_2 C -0.0256(9) -0.3921(9) 0.3902(9)
H2_2 H 0.0808 -0.3834 0.3941
H3_2 H -0.0619 -0.4168 0.4623
C7_2 C -0.1768(12) -0.6687(10) 0.2496(13)
H4_2 H -0.2387 -0.7482 0.1587
H5_2 H -0.2379 -0.6651 0.3193
H6_2 H -0.0891 -0.6880 0.2709
C8_2 C -0.0320(14) -0.5224(14) 0.1397(12)
H7_2 H -0.0942 -0.6038 0.0496
H8_2 H 0.0599 -0.5366 0.1592
H9_2 H -0.0036 -0.4279 0.1389
O1A O 0.4527(6) 1.5399(6) 0.6499(6)
O2A O 0.5863(6) 1.7435(6) 0.6297(7)
O2_2 O 0.4137(6) 1.2565(6) 0.3703(7)
O3A O 0.7061(6) 1.4831(7) 0.6623(7)
O4A O 0.8481(6) 1.7090(7) 0.6838(7)
O4_2 O 0.1519(6) 1.2910(7) 0.3162(7)
O5A O 0.6310(6) 1.1761(6) 0.6339(6)
O6A O 0.6420(6) 0.9489(6) 0.5450(6)
O6_2 O 0.3580(6) 0.0511(6) 0.4550(6)
O7A O 0.6152(7) 0.4145(7) -0.0979(6)
O7A_2 O 0.6152(7) 1.4145(7) 0.9021(6)
O8A O 0.6376(6) 0.5351(7) 0.1353(6)
O8_2 O 0.3624(6) 1.4649(7) 0.8647(6)
O9A O 0.0874(6) 0.0599(7) -0.1142(6)
O9_2 O -0.0874(6) 0.9401(7) 0.1142(6)
O10A O 0.1958(6) 0.0623(7) 0.0732(7)
O10A_2 O 0.1958(6) 1.0623(7) 0.0732(7)
O11_2 O 0.0252(6) -0.1717(6) 0.3186(6)
O11_3 O 0.0252(6) 0.8283(6) 0.3186(6)
O12_2 O -0.1982(6) -0.2310(6) 0.4384(6)
O12A O 0.1982(6) 0.2310(6) 0.5616(6)
O12A_2 O 0.1982(6) 1.2310(6) 0.5616(6)
O13_2 O 0.0652(6) -0.1015(6) 0.5789(6)
O13A O -0.0652(6) 0.1015(6) 0.4211(6)
O13A_2 O -0.0652(6) 1.1015(6) 0.4211(6)
O15A O 0.3314(7) 1.1243(7) 0.7401(7)
O16_2 O 0.2569(8) 0.8592(7) 0.1479(7)
O14 O 0.5217(13) 0.880(2) 1.0214(17)
loop_
_geom_bond_atom_site_label_1
_geom_bond_atom_site_label_2
_geom_bond_site_symmetry_1
_geom_bond_site_symmetry_2
Nd1 O1 1_555 1_555
Nd2 O2 1_555 1_555
P1 C6 1_555 1_555
N1 H1 1_555 1_555
C1 C2 1_555 1_555
C2 O3 1_555 1_555
C3 O5 1_555 1_555
C4 O7 1_555 1_555
C5 O9 1_555 1_555
C6 N1 1_555 1_555
H2 C6 1_555 1_555
H3 C6 1_555 1_555
C7 N1 1_555 1_555
H4 C7 1_555 1_555
H5 C7 1_555 1_555
H6 C7 1_555 1_555
C8 N1 1_555 1_555
H7 C8 1_555 1_555
H8 C8 1_555 1_555
H9 C8 1_555 1_555
O1 C1 1_555 1_555
O2 C1 1_555 1_555
O3 Nd1 1_555 1_555
O4 Nd2 1_555 1_555
O5 Nd1 1_555 1_555
O6 C3 1_555 1_555
O7 Nd1 1_555 1_555
O8 C4 1_555 1_555
O9 Nd2 1_555 1_555
O10 C5 1_555 1_555
O11 P1 1_555 1_555
O12 Nd1 1_555 1_555
O13 P1 1_555 1_555
O15 Nd1 1_555 1_555
O16 Nd2 1_555 1_555
Nd1A O6 1_555 1_555
Nd1A_2 O8 1_555 1_555
Nd1_2 O12_2 1_555 1_555
Nd2_2 O6 1_555 1_555
Nd2A O10 1_555 1_555
Nd2_3 O11 1_555 1_555
Nd2A_2 O12 1_555 1_555
Nd2A_3 O12_2 1_555 1_555
Nd2A_4 O2A 1_555 1_555
P1_2 C6_2 1_555 1_555
N1_2 H1_2 1_555 1_555
C1A C2A 1_555 1_555
C2A O3A 1_555 1_555
C3A C3 1_555 1_555
C4A C4 1_555 1_555
C5A C5 1_555 1_555
C6_2 N1_2 1_555 1_555
H2_2 C6_2 1_555 1_555
H3_2 C6_2 1_555 1_555
C7_2 N1_2 1_555 1_555
H4_2 C7_2 1_555 1_555
H5_2 C7_2 1_555 1_555
H6_2 C7_2 1_555 1_555
C8_2 N1_2 1_555 1_555
H7_2 C8_2 1_555 1_555
H8_2 C8_2 1_555 1_555
H9_2 C8_2 1_555 1_555
O1A Nd1A 1_555 1_555
O2A C1A 1_555 1_555
O2_2 Nd2_2 1_555 1_555
O3A Nd1A 1_555 1_555
O4A Nd2A_4 1_555 1_555
O4_2 Nd2_2 1_555 1_555
O5A Nd1A 1_555 1_555
O6A Nd1 1_555 1_555
O6_2 Nd2 1_555 1_555
O7A Nd1A_2 1_555 1_555
O7A_2 Nd1A 1_555 1_555
O8A Nd1 1_555 1_555
O8_2 Nd1A 1_555 1_555
O9A Nd2A 1_555 1_555
O9_2 Nd2_2 1_555 1_555
O10A Nd2 1_555 1_555
O10A_2 Nd2_2 1_555 1_555
O11_2 Nd2 1_555 1_555
O11_3 Nd2_2 1_555 1_555
O12_2 P1_2 1_555 1_555
O12A Nd2 1_555 1_555
O12A_2 Nd1A 1_555 1_555
O13_2 Nd2A_3 1_555 1_555
O13A Nd2 1_555 1_555
O13A_2 Nd2_2 1_555 1_555
O15A Nd1A 1_555 1_555
O16_2 Nd2_2 1_555 1_555
P1 O12 1_555 1_555
C2 O4 1_555 1_555
O13 Nd2A_2 1_555 1_555
Nd2_2 O12A_2 1_555 1_555
Nd2A_2 O6A 1_555 1_555
P1_2 O11_2 1_555 1_555
P1_2 O13_2 1_555 1_555
C1A O1A 1_555 1_555
C2A O4A 1_555 1_555
C3A O5A 1_555 1_555
C3A O6A 1_555 1_555
C4A O7A 1_555 1_555
C4A O8A 1_555 1_555
C5A O9A 1_555 1_555
C5A O10A 1_555 1_555

#END
