
#######################################################################
#
#                 Cambridge Crystallographic Data Centre
#                                CCDC 
#
#######################################################################
#
# If this CIF has been generated from an entry in the Cambridge 
# Structural Database, then it will include bibliographic, chemical, 
# crystal, experimental, refinement or atomic coordinate data resulting 
# from the CCDC's data processing and validation procedures.
#
#######################################################################

data_FITZOX
_symmetry_cell_setting           rhombohedral
_symmetry_space_group_name_H-M   'R -3'
_symmetry_Int_Tables_number      148
_space_group_name_Hall           '-P 3*'
loop_
_symmetry_equiv_pos_site_id
_symmetry_equiv_pos_as_xyz
1 x,y,z
2 z,x,y
3 y,z,x
4 -x,-y,-z
5 -z,-x,-y
6 -y,-z,-x
_cell_length_a                   7.507(1)
_cell_length_b                   7.507(1)
_cell_length_c                   7.507(1)
_cell_angle_alpha                92.29(2)
_cell_angle_beta                 92.29(2)
_cell_angle_gamma                92.29(2)
_cell_volume                     422.016
loop_
_atom_site_label
_atom_site_type_symbol
_atom_site_fract_x
_atom_site_fract_y
_atom_site_fract_z
I1 I 0.0000 0.00000 0.0000
Na1 Na 0.5000 0.50000 0.5000
O1 O 0.5269(2) 0.81590(18) 0.4728(2)
C1 C 0.4014(3) 0.9067(3) 0.3646(3)
C2 C 0.6697(3) 0.9388(3) 0.5324(3)
H1 H 0.309(4) 0.821(4) 0.327(4)
H2 H 0.470(4) 0.959(4) 0.267(4)
H3 H 0.749(4) 0.873(4) 0.606(4)
H4 H 0.731(4) 0.982(4) 0.434(4)
O1A O 0.4728(2) 0.5269(2) 0.81590(18)
O1B O 0.81590(18) 0.4728(2) 0.5269(2)
O1C O 0.4731(2) 0.18410(18) 0.5272(2)
O1D O 0.5272(2) 0.4731(2) 0.18410(18)
O1E O 0.18410(18) 0.5272(2) 0.4731(2)
C2C C 0.3303(3) 1.0612(3) 0.4676(3)
C1C C 0.5986(3) 1.0933(3) 0.6354(3)
O1C_2 O 0.4731(2) 1.18410(18) 0.5272(2)
H3C H 0.251(4) 1.127(4) 0.394(4)
H4C H 0.269(4) 1.018(4) 0.566(4)
H1C H 0.691(4) 1.179(4) 0.673(4)
H2C H 0.530(4) 1.041(4) 0.733(4)
Na1_2 Na 0.5000 1.50000 0.5000
C1A C 0.3646(3) 0.4014(3) 0.9067(3)
C2A C 0.5324(3) 0.6697(3) 0.9388(3)
C1B C 0.9067(3) 0.3646(3) 0.4014(3)
C2B C 0.9388(3) 0.5324(3) 0.6697(3)
C2D C 0.4676(3) 0.3303(3) 1.0612(3)
H1A H 0.327(4) 0.309(4) 0.821(4)
H2A H 0.267(4) 0.470(4) 0.959(4)
C1D C 0.6354(3) 0.5986(3) 1.0933(3)
H3A H 0.606(4) 0.749(4) 0.873(4)
H4A H 0.434(4) 0.731(4) 0.982(4)
C2E C 1.0612(3) 0.4676(3) 0.3303(3)
H1B H 0.821(4) 0.327(4) 0.309(4)
H2B H 0.959(4) 0.267(4) 0.470(4)
C1E C 1.0933(3) 0.6354(3) 0.5986(3)
H3B H 0.873(4) 0.606(4) 0.749(4)
H4B H 0.982(4) 0.434(4) 0.731(4)
O1E_2 O 1.18410(18) 0.5272(2) 0.4731(2)
H1E H 1.179(4) 0.673(4) 0.691(4)
H2E H 1.041(4) 0.733(4) 0.530(4)
H3E H 1.127(4) 0.394(4) 0.251(4)
H4E H 1.018(4) 0.566(4) 0.269(4)
O1D_2 O 0.5272(2) 0.4731(2) 1.18410(18)
H3D H 0.394(4) 0.251(4) 1.127(4)
H4D H 0.566(4) 0.269(4) 1.018(4)
Na1_3 Na 0.5000 0.50000 1.5000
Na1_4 Na 1.5000 0.50000 0.5000
H1D H 0.673(4) 0.691(4) 1.179(4)
H2D H 0.733(4) 0.530(4) 1.041(4)
loop_
_geom_bond_atom_site_label_1
_geom_bond_atom_site_label_2
_geom_bond_site_symmetry_1
_geom_bond_site_symmetry_2
Na1 O1 1_555 1_555
O1 C1 1_555 1_555
C1 H1 1_555 1_555
C2 O1 1_555 1_555
H2 C1 1_555 1_555
H3 C2 1_555 1_555
H4 C2 1_555 1_555
O1A Na1 1_555 1_555
O1B Na1 1_555 1_555
O1C Na1 1_555 1_555
O1D Na1 1_555 1_555
O1E Na1 1_555 1_555
C2C C1 1_555 1_555
C1C C2 1_555 1_555
O1C_2 C2C 1_555 1_555
H3C C2C 1_555 1_555
H4C C2C 1_555 1_555
H1C C1C 1_555 1_555
H2C C1C 1_555 1_555
Na1_2 O1C_2 1_555 1_555
C1A O1A 1_555 1_555
C2A O1A 1_555 1_555
C1B O1B 1_555 1_555
C2B O1B 1_555 1_555
C2D C1A 1_555 1_555
H1A C1A 1_555 1_555
H2A C1A 1_555 1_555
C1D C2A 1_555 1_555
H3A C2A 1_555 1_555
H4A C2A 1_555 1_555
C2E C1B 1_555 1_555
H1B C1B 1_555 1_555
H2B C1B 1_555 1_555
C1E C2B 1_555 1_555
H3B C2B 1_555 1_555
H4B C2B 1_555 1_555
O1E_2 C2E 1_555 1_555
H1E C1E 1_555 1_555
H2E C1E 1_555 1_555
H3E C2E 1_555 1_555
H4E C2E 1_555 1_555
O1D_2 C2D 1_555 1_555
H3D C2D 1_555 1_555
H4D C2D 1_555 1_555
Na1_3 O1D_2 1_555 1_555
Na1_4 O1E_2 1_555 1_555
H1D C1D 1_555 1_555
H2D C1D 1_555 1_555
C1C O1C_2 1_555 1_555
C1D O1D_2 1_555 1_555
C1E O1E_2 1_555 1_555

#END
