
#######################################################################
#
#                 Cambridge Crystallographic Data Centre
#                                CCDC 
#
#######################################################################
#
# If this CIF has been generated from an entry in the Cambridge 
# Structural Database, then it will include bibliographic, chemical, 
# crystal, experimental, refinement or atomic coordinate data resulting 
# from the CCDC's data processing and validation procedures.
#
#######################################################################

data_FIVCIX
_symmetry_cell_setting           monoclinic
_symmetry_space_group_name_H-M   'P 21/n'
_symmetry_Int_Tables_number      14
_space_group_name_Hall           '-P 2yn'
loop_
_symmetry_equiv_pos_site_id
_symmetry_equiv_pos_as_xyz
1 x,y,z
2 1/2-x,1/2+y,1/2-z
3 -x,-y,-z
4 1/2+x,1/2-y,1/2+z
_cell_length_a                   11.2065(5)
_cell_length_b                   12.2217(5)
_cell_length_c                   13.2421(6)
_cell_angle_alpha                90
_cell_angle_beta                 106.0590(10)
_cell_angle_gamma                90
_cell_volume                     1742.9
loop_
_atom_site_label
_atom_site_type_symbol
_atom_site_fract_x
_atom_site_fract_y
_atom_site_fract_z
I1 I 0.978811(12) 0.821296(11) 0.039760(10)
Cu1 Cu 0.87341(2) 1.01484(2) -0.006055(19)
N1 N 0.80229(16) 1.07042(14) 0.11117(13)
C1 C 0.8508(2) 1.15823(18) 0.16950(17)
H1 H 0.9244 1.1897 0.1599
N2 N 0.24847(16) 0.99559(14) 0.15614(13)
C2 C 0.7991(2) 1.20505(19) 0.24264(17)
H2 H 0.8370 1.2668 0.2823
C3 C 0.6916(2) 1.1607(2) 0.25737(18)
H3 H 0.6538 1.1918 0.3066
C4 C 0.6407(2) 1.0703(2) 0.19910(17)
H4 H 0.5671 1.0380 0.2079
C5 C 0.69828(19) 1.02628(17) 0.12678(16)
C6 C 0.64735(19) 0.93207(18) 0.06590(16)
C7 C 0.60198(19) 0.85094(18) 0.02120(17)
C8 C 0.54282(19) 0.75347(18) -0.02907(16)
C9 C 0.5873(2) 0.6978(2) -0.10355(19)
H5 H 0.6593 0.7235 -0.1206
C10 C 0.5267(2) 0.6054(2) -0.15234(18)
H6 H 0.5561 0.5690 -0.2042
C11 C 0.4235(2) 0.56562(19) -0.12614(19)
H7 H 0.3833 0.5014 -0.1592
C12 C 0.3786(2) 0.61909(18) -0.05192(18)
H8 H 0.3079 0.5911 -0.0342
C13 C 0.43658(19) 0.71371(17) -0.00316(16)
C14 C 0.38955(19) 0.77448(17) 0.07014(16)
C15 C 0.35439(19) 0.83435(17) 0.12808(17)
C16 C 0.32538(19) 0.91227(17) 0.19905(16)
C17 C 0.3806(2) 0.9037(2) 0.30682(18)
H9 H 0.4312 0.8425 0.3349
C18 C 0.3604(2) 0.9860(2) 0.37246(18)
H10 H 0.3950 0.9810 0.4464
C19 C 0.2896(2) 1.0747(2) 0.32874(18)
H11 H 0.2794 1.1346 0.3713
C20 C 0.2335(2) 1.07546(18) 0.22164(18)
H12 H 0.1815 1.1356 0.1927
I1B I 1.021189(12) 1.178704(11) -0.039760(10)
Cu1B Cu 1.12659(2) 0.98516(2) 0.006055(19)
Cu1B_2 Cu 0.12659(2) 0.98516(2) 0.006055(19)
N2B N 0.75153(16) 1.00441(14) -0.15614(13)
loop_
_geom_bond_atom_site_label_1
_geom_bond_atom_site_label_2
_geom_bond_site_symmetry_1
_geom_bond_site_symmetry_2
I1 Cu1 1_555 1_555
Cu1 N1 1_555 1_555
N1 C1 1_555 1_555
C1 H1 1_555 1_555
N2 C16 1_555 1_555
C2 C1 1_555 1_555
H2 C2 1_555 1_555
C3 C2 1_555 1_555
H3 C3 1_555 1_555
C4 C3 1_555 1_555
H4 C4 1_555 1_555
C5 N1 1_555 1_555
C6 C5 1_555 1_555
C7 C6 1_555 1_555
C8 C7 1_555 1_555
C9 C8 1_555 1_555
H5 C9 1_555 1_555
C10 C9 1_555 1_555
H6 C10 1_555 1_555
C11 C10 1_555 1_555
H7 C11 1_555 1_555
C12 C11 1_555 1_555
H8 C12 1_555 1_555
C13 C8 1_555 1_555
C14 C13 1_555 1_555
C15 C14 1_555 1_555
C16 C15 1_555 1_555
C17 C16 1_555 1_555
H9 C17 1_555 1_555
C18 C17 1_555 1_555
H10 C18 1_555 1_555
C19 C18 1_555 1_555
H11 C19 1_555 1_555
C20 N2 1_555 1_555
H12 C20 1_555 1_555
I1B Cu1 1_555 1_555
Cu1B I1 1_555 1_555
Cu1B_2 N2 1_555 1_555
N2B Cu1 1_555 1_555
C4 C5 1_555 1_555
C12 C13 1_555 1_555
C19 C20 1_555 1_555
I1B Cu1B 1_555 1_555

#END
