
#######################################################################
#
#                 Cambridge Crystallographic Data Centre
#                                CCDC 
#
#######################################################################
#
# If this CIF has been generated from an entry in the Cambridge 
# Structural Database, then it will include bibliographic, chemical, 
# crystal, experimental, refinement or atomic coordinate data resulting 
# from the CCDC's data processing and validation procedures.
#
#######################################################################

data_FIVHOI
_symmetry_cell_setting           monoclinic
_symmetry_space_group_name_H-M   'P 21/a'
_symmetry_Int_Tables_number      14
_space_group_name_Hall           '-P 2yab'
loop_
_symmetry_equiv_pos_site_id
_symmetry_equiv_pos_as_xyz
1 x,y,z
2 1/2-x,1/2+y,-z
3 -x,-y,-z
4 1/2+x,1/2-y,z
_cell_length_a                   9.931(2)
_cell_length_b                   10.952(3)
_cell_length_c                   10.448(2)
_cell_angle_alpha                90
_cell_angle_beta                 106.77(2)
_cell_angle_gamma                90
_cell_volume                     1088.04
loop_
_atom_site_label
_atom_site_type_symbol
_atom_site_fract_x
_atom_site_fract_y
_atom_site_fract_z
K1 K 0.44425(5) 0.12861(5) 0.19596(5)
O1 O 0.7286(2) 0.18776(19) 0.14260(19)
O2 O 0.6436(3) 0.0177(2) 0.0537(2)
O3 O 0.4641(3) -0.2400(2) -0.4875(2)
O4 O 0.4136(2) -0.1541(2) -0.6828(2)
N1 N 0.8996(2) 0.0620(2) -0.17383(18)
N2 N 0.8088(2) 0.02018(18) -0.10858(18)
N3 N 0.8909(3) 0.2064(2) -0.0280(2)
N4 N 0.7218(2) 0.1047(2) 0.06358(19)
N5 N 0.8063(2) -0.02976(18) -0.40662(17)
N6 N 0.7038(2) -0.11128(18) -0.40596(18)
N7 N 0.6514(2) -0.0152(2) -0.60583(19)
N8 N 0.4896(2) -0.1696(2) -0.5686(2)
B1 B 0.9397(3) -0.0130(3) -0.2851(3)
C1 C 0.9461(3) 0.1708(3) -0.1238(3)
C2 C 0.8097(2) 0.1110(2) -0.0253(2)
C3 C 0.7724(3) 0.0254(3) -0.5261(2)
C4 C 0.6169(2) -0.0980(2) -0.5265(2)
H1 H 1.018(3) 0.045(3) -0.314(3)
H2 H 1.014(4) 0.214(3) -0.153(3)
H3 H 0.974(3) -0.105(3) -0.244(3)
H4 H 0.827(3) 0.085(3) -0.547(3)
K1C K 0.94425(5) 0.37139(5) 0.19596(5)
K1B K 0.55575(5) -0.12861(5) -0.19596(5)
K1_2 K 0.44425(5) 0.12861(5) -0.80404(5)
O1C O 0.2286(2) 0.31224(19) 0.14260(19)
O2B O 0.3564(3) -0.0177(2) -0.0537(2)
O3B O 0.5359(3) 0.2400(2) 0.4875(2)
N2B N 0.1912(2) -0.02018(18) 0.10858(18)
N3C N 0.3909(3) 0.2936(2) -0.0280(2)
N6B N 0.2962(2) 0.11128(18) 0.40596(18)
N7_2 N 0.6514(2) -0.0152(2) 0.39417(19)
loop_
_geom_bond_atom_site_label_1
_geom_bond_atom_site_label_2
_geom_bond_site_symmetry_1
_geom_bond_site_symmetry_2
K1 O1 1_555 1_555
O1 N4 1_555 1_555
O2 K1 1_555 1_555
O3 N8 1_555 1_555
O4 N8 1_555 1_555
N1 N2 1_555 1_555
N2 C2 1_555 1_555
N3 C1 1_555 1_555
N4 O2 1_555 1_555
N5 N6 1_555 1_555
N6 C4 1_555 1_555
N7 C3 1_555 1_555
N8 C4 1_555 1_555
B1 N1 1_555 1_555
C1 N1 1_555 1_555
C2 N3 1_555 1_555
C3 N5 1_555 1_555
C4 N7 1_555 1_555
H1 B1 1_555 1_555
H2 C1 1_555 1_555
H3 B1 1_555 1_555
H4 C3 1_555 1_555
K1C O1 1_555 1_555
K1B O2 1_555 1_555
K1_2 N7 1_555 1_555
O1C K1 1_555 1_555
O2B K1 1_555 1_555
O3B K1 1_555 1_555
N2B K1 1_555 1_555
N3C K1 1_555 1_555
N6B K1 1_555 1_555
N7_2 K1 1_555 1_555
O3 K1B 1_555 1_555
N2 K1B 1_555 1_555
N3 K1C 1_555 1_555
N4 C2 1_555 1_555
N5 B1 1_555 1_555
N6 K1B 1_555 1_555
K1B O2B 1_555 1_555

#END
