
#######################################################################
#
#                 Cambridge Crystallographic Data Centre
#                                CCDC 
#
#######################################################################
#
# If this CIF has been generated from an entry in the Cambridge 
# Structural Database, then it will include bibliographic, chemical, 
# crystal, experimental, refinement or atomic coordinate data resulting 
# from the CCDC's data processing and validation procedures.
#
#######################################################################

data_FIVJEA
_symmetry_cell_setting           orthorhombic
_symmetry_space_group_name_H-M   'P n m a'
_symmetry_Int_Tables_number      62
_space_group_name_Hall           '-P 2ac 2n'
loop_
_symmetry_equiv_pos_site_id
_symmetry_equiv_pos_as_xyz
1 x,y,z
2 1/2-x,-y,1/2+z
3 -x,1/2+y,-z
4 1/2+x,1/2-y,1/2-z
5 -x,-y,-z
6 1/2+x,y,1/2-z
7 x,1/2-y,z
8 1/2-x,1/2+y,1/2+z
_cell_length_a                   13.908(3)
_cell_length_b                   9.2880(10)
_cell_length_c                   8.7380(10)
_cell_angle_alpha                90
_cell_angle_beta                 90
_cell_angle_gamma                90
_cell_volume                     1128.75
loop_
_atom_site_label
_atom_site_type_symbol
_atom_site_fract_x
_atom_site_fract_y
_atom_site_fract_z
Na1 Na 0.07258(7) 0.2500 0.58285(11)
B1 B 0.2734(2) 0.2500 0.0852(3)
N1 N 0.1503(2) 0.2500 0.3277(3)
C1 C 0.2020(2) 0.2500 0.2273(3)
N2 N 0.38559(15) 0.0099(2) 0.0908(2)
C2 C 0.33942(14) 0.11035(19) 0.08991(19)
N3 N 0.16669(19) 0.2500 -0.1768(3)
C3 C 0.2119(2) 0.2500 -0.0679(3)
O1 O -0.06833(13) 0.2500 0.7293(2)
C4 C -0.08816(18) 0.1248(2) 0.8197(3)
H1 H -0.0342 0.0588 0.8160
H2 H -0.1446 0.0756 0.7810
C5 C -0.1045(3) 0.1727(3) 0.9759(3)
H3 H -0.1657 0.1368 1.0128
H4 H -0.0540 0.1368 1.0424
Na1G Na 0.42742(7) -0.2500 0.08285(11)
Na1_2 Na 0.07258(7) 0.2500 -0.41715(11)
Na1G_2 Na 0.42742(7) 0.7500 0.08285(11)
N2F N 0.38559(15) 0.4901(2) 0.0908(2)
N2G N 0.11441(15) 0.5099(2) 0.5908(2)
N2A N 0.11441(15) -0.0099(2) 0.5908(2)
C2F C 0.33942(14) 0.38965(19) 0.08991(19)
N3_2 N 0.16669(19) 0.2500 0.8232(3)
C4F C -0.08816(18) 0.3752(2) 0.8197(3)
H1F H -0.0342 0.4412 0.8160
H2F H -0.1446 0.4244 0.7810
C5F C -0.1045(3) 0.3273(3) 0.9759(3)
H3F H -0.1657 0.3632 1.0128
H4F H -0.0540 0.3632 1.0424
loop_
_geom_bond_atom_site_label_1
_geom_bond_atom_site_label_2
_geom_bond_site_symmetry_1
_geom_bond_site_symmetry_2
Na1 N1 1_555 1_555
B1 C1 1_555 1_555
N1 C1 1_555 1_555
N2 C2 1_555 1_555
C2 B1 1_555 1_555
N3 C3 1_555 1_555
C3 B1 1_555 1_555
O1 Na1 1_555 1_555
C4 O1 1_555 1_555
H1 C4 1_555 1_555
H2 C4 1_555 1_555
C5 C4 1_555 1_555
H3 C5 1_555 1_555
H4 C5 1_555 1_555
Na1G N2 1_555 1_555
Na1_2 N3 1_555 1_555
Na1G_2 N2F 1_555 1_555
N2F C2F 1_555 1_555
N2G Na1 1_555 1_555
N2A Na1 1_555 1_555
C2F B1 1_555 1_555
N3_2 Na1 1_555 1_555
C4F O1 1_555 1_555
H1F C4F 1_555 1_555
H2F C4F 1_555 1_555
C5F C5 1_555 1_555
H3F C5F 1_555 1_555
H4F C5F 1_555 1_555
C4F C5F 1_555 1_555

#END
