
#######################################################################
#
#                 Cambridge Crystallographic Data Centre
#                                CCDC 
#
#######################################################################
#
# If this CIF has been generated from an entry in the Cambridge 
# Structural Database, then it will include bibliographic, chemical, 
# crystal, experimental, refinement or atomic coordinate data resulting 
# from the CCDC's data processing and validation procedures.
#
#######################################################################

data_FIVJAW
_symmetry_cell_setting           monoclinic
_symmetry_space_group_name_H-M   'C 2/c'
_symmetry_Int_Tables_number      15
_space_group_name_Hall           '-C 2yn'
loop_
_symmetry_equiv_pos_site_id
_symmetry_equiv_pos_as_xyz
1 x,y,z
2 1/2+x,1/2+y,z
3 -x,y,1/2-z
4 1/2-x,1/2+y,1/2-z
5 -x,-y,-z
6 1/2-x,1/2-y,-z
7 x,-y,1/2+z
8 1/2+x,1/2-y,1/2+z
_cell_length_a                   14.4639(8)
_cell_length_b                   7.7209(4)
_cell_length_c                   8.5172(5)
_cell_angle_alpha                90
_cell_angle_beta                 126.076(2)
_cell_angle_gamma                90
_cell_volume                     768.756
loop_
_atom_site_label
_atom_site_type_symbol
_atom_site_fract_x
_atom_site_fract_y
_atom_site_fract_z
Cu1 Cu 0.2500 0.2500 0.0000
O1 O 0.34971(10) 0.49543(15) -0.00525(16)
O2 O 0.28653(9) 0.67717(16) -0.24977(15)
N1 N 0.39876(10) 0.10705(16) 0.14401(17)
C1 C 0.33356(14) 0.5399(2) -0.1593(2)
H1 H 0.3586 0.4646 -0.2123
C2 C 0.39919(13) -0.0661(2) 0.1427(3)
H2 H 0.3300 -0.1253 0.0678
C3 C 0.5000 -0.1590(3) 0.2500
H3 H 0.5000 -0.2795 0.2500
C4 C 0.5000 0.1876(3) 0.2500
H4 H 0.5000 0.3081 0.2500
Cu1F Cu 0.2500 0.7500 -0.5000
Cu1G Cu 0.7500 0.2500 0.5000
Cu1F_2 Cu 0.2500 -0.2500 0.5000
O1E O 0.15029(10) 0.00457(15) 0.00525(16)
O2E O 0.21347(9) -0.17717(16) 0.24977(15)
O2F O 0.28653(9) 0.32283(16) 0.25023(15)
O2C O 0.21347(9) 0.17717(16) -0.25023(15)
N1B N 0.60124(10) 0.10705(16) 0.35599(17)
N1E N 0.10124(10) 0.39295(16) -0.14401(17)
C1E C 0.16644(14) -0.0399(2) 0.1593(2)
H1E H 0.1414 0.0354 0.2123
C2B C 0.60081(13) -0.0661(2) 0.3573(3)
H2B H 0.6700 -0.1253 0.4322
loop_
_geom_bond_atom_site_label_1
_geom_bond_atom_site_label_2
_geom_bond_site_symmetry_1
_geom_bond_site_symmetry_2
Cu1 O1 1_555 1_555
O1 C1 1_555 1_555
O2 C1 1_555 1_555
N1 Cu1 1_555 1_555
C1 H1 1_555 1_555
C2 N1 1_555 1_555
H2 C2 1_555 1_555
C3 C2 1_555 1_555
H3 C3 1_555 1_555
C4 N1 1_555 1_555
H4 C4 1_555 1_555
Cu1F O2 1_555 1_555
Cu1G N1B 1_555 1_555
Cu1F_2 O2E 1_555 1_555
O1E Cu1 1_555 1_555
O2E C1E 1_555 1_555
O2F Cu1 1_555 1_555
O2C Cu1 1_555 1_555
N1B C4 1_555 1_555
N1E Cu1 1_555 1_555
C1E O1E 1_555 1_555
H1E C1E 1_555 1_555
C2B C3 1_555 1_555
H2B C2B 1_555 1_555
N1B C2B 1_555 1_555

#END
