
#######################################################################
#
#                 Cambridge Crystallographic Data Centre
#                                CCDC 
#
#######################################################################
#
# If this CIF has been generated from an entry in the Cambridge 
# Structural Database, then it will include bibliographic, chemical, 
# crystal, experimental, refinement or atomic coordinate data resulting 
# from the CCDC's data processing and validation procedures.
#
#######################################################################

data_FIVKAW
_symmetry_cell_setting           monoclinic
_symmetry_space_group_name_H-M   'P 21/a'
_symmetry_Int_Tables_number      14
_space_group_name_Hall           '-P 2yab'
loop_
_symmetry_equiv_pos_site_id
_symmetry_equiv_pos_as_xyz
1 x,y,z
2 1/2-x,1/2+y,-z
3 -x,-y,-z
4 1/2+x,1/2-y,z
_cell_length_a                   13.222(3)
_cell_length_b                   10.820(2)
_cell_length_c                   11.821(3)
_cell_angle_alpha                90
_cell_angle_beta                 110.51(2)
_cell_angle_gamma                90
_cell_volume                     1583.94
loop_
_atom_site_label
_atom_site_type_symbol
_atom_site_fract_x
_atom_site_fract_y
_atom_site_fract_z
Cu1 Cu 0.13409(5) 0.18959(6) 0.14295(6)
O1 O 0.1943(3) 0.3296(3) 0.0850(3)
O2 O 0.2072(3) 0.5356(3) 0.0941(4)
O3 O 0.0665(3) 0.0576(3) 0.1926(4)
O4 O -0.2071(3) 0.3485(3) 0.3096(4)
O5 O 0.1708(4) 0.0644(4) 0.0425(4)
N1 N -0.0929(3) -0.0511(4) 0.3547(4)
N2 N 0.0670(3) 0.3151(4) 0.2116(4)
C1 C -0.0310(4) -0.0514(5) 0.2872(5)
C2 C 0.0044(4) 0.0642(4) 0.2552(5)
C3 C -0.0301(4) 0.1741(4) 0.2964(4)
C4 C -0.0991(4) 0.1659(5) 0.3649(5)
C5 C -0.1288(4) 0.0524(5) 0.3938(5)
C6 C 0.1724(4) 0.4356(5) 0.1181(5)
C7 C 0.0960(4) 0.4385(4) 0.1873(4)
C8 C 0.1050(4) 0.5425(4) 0.2746(5)
C9 C 0.0133(4) 0.5419(5) 0.1595(5)
C10 C -0.0005(5) -0.1703(5) 0.2470(6)
C11 C 0.0028(4) 0.2959(5) 0.2697(5)
C12 C -0.1415(4) 0.2792(5) 0.4103(5)
H1 H -0.117(5) -0.114(6) 0.367(6)
H2 H -0.179(4) 0.041(5) 0.433(5)
H3 H 0.166(4) 0.600(5) 0.288(4)
H4 H 0.092(3) 0.523(4) 0.340(4)
H5 H -0.055(4) 0.521(4) 0.159(4)
H6 H 0.012(4) 0.594(5) 0.093(4)
H7 H -0.014(4) -0.169(5) 0.167(4)
H8 H -0.034(5) -0.237(5) 0.275(5)
H9 H 0.068(4) -0.178(5) 0.282(4)
H10 H -0.025(3) 0.363(4) 0.304(4)
H11 H -0.080(4) 0.317(5) 0.461(4)
H12 H -0.180(4) 0.252(5) 0.465(4)
H13 H -0.225(8) 0.410(9) 0.326(9)
O4C O 0.2929(3) 0.1515(3) 0.3096(4)
Cu1C Cu -0.36591(5) 0.31041(6) 0.14295(6)
H13C H 0.275(8) 0.090(9) 0.326(9)
O6 O -0.1886(5) -0.2462(5) 0.4241(5)
O7 O -0.2402(4) -0.4350(5) 0.4159(5)
O8 O -0.0920(6) -0.3943(7) 0.3939(8)
N3 N -0.1752(4) -0.3546(4) 0.4073(4)
O9 O 0.1506(5) 0.8058(5) 0.0329(5)
loop_
_geom_bond_atom_site_label_1
_geom_bond_atom_site_label_2
_geom_bond_site_symmetry_1
_geom_bond_site_symmetry_2
Cu1 O1 1_555 1_555
O1 C6 1_555 1_555
O2 C6 1_555 1_555
O3 Cu1 1_555 1_555
O4 C12 1_555 1_555
O5 Cu1 1_555 1_555
N1 C1 1_555 1_555
N2 Cu1 1_555 1_555
C1 C2 1_555 1_555
C2 O3 1_555 1_555
C3 C2 1_555 1_555
C4 C3 1_555 1_555
C5 N1 1_555 1_555
C6 C7 1_555 1_555
C7 N2 1_555 1_555
C8 C7 1_555 1_555
C9 C7 1_555 1_555
C10 C1 1_555 1_555
C11 N2 1_555 1_555
C12 C4 1_555 1_555
H1 N1 1_555 1_555
H2 C5 1_555 1_555
H3 C8 1_555 1_555
H4 C8 1_555 1_555
H5 C9 1_555 1_555
H6 C9 1_555 1_555
H7 C10 1_555 1_555
H8 C10 1_555 1_555
H9 C10 1_555 1_555
H10 C11 1_555 1_555
H11 C12 1_555 1_555
H12 C12 1_555 1_555
H13 O4 1_555 1_555
O6 N3 1_555 1_555
O7 N3 1_555 1_555
O8 N3 1_555 1_555
O4C Cu1 1_555 1_555
Cu1C O4 1_555 1_555
H13C O4C 1_555 1_555
C3 C11 1_555 1_555
C4 C5 1_555 1_555
C8 C9 1_555 1_555

#END
