
#######################################################################
#
#                 Cambridge Crystallographic Data Centre
#                                CCDC 
#
#######################################################################
#
# If this CIF has been generated from an entry in the Cambridge 
# Structural Database, then it will include bibliographic, chemical, 
# crystal, experimental, refinement or atomic coordinate data resulting 
# from the CCDC's data processing and validation procedures.
#
#######################################################################

data_FIVMOM
_symmetry_cell_setting           monoclinic
_symmetry_space_group_name_H-M   'P 21/c'
_symmetry_Int_Tables_number      14
_space_group_name_Hall           '-P 2ybc'
loop_
_symmetry_equiv_pos_site_id
_symmetry_equiv_pos_as_xyz
1 x,y,z
2 -x,1/2+y,1/2-z
3 -x,-y,-z
4 x,1/2-y,1/2+z
_cell_length_a                   8.944(2)
_cell_length_b                   13.689(5)
_cell_length_c                   10.309(2)
_cell_angle_alpha                90
_cell_angle_beta                 113.31(2)
_cell_angle_gamma                90
_cell_volume                     1159.15
loop_
_atom_site_label
_atom_site_type_symbol
_atom_site_fract_x
_atom_site_fract_y
_atom_site_fract_z
I1 I -0.32458(11) 0.45160(5) -0.15693(7)
Cu1 Cu 0.08713(14) -0.00666(7) 0.15938(11)
O1 O 0.0773(8) -0.0680(4) -0.0122(6)
O2 O 0.1146(11) 0.3880(6) 0.3022(8)
N1 N 0.2798(13) -0.0805(8) 0.2849(9)
N2 N 0.0966(12) 0.0818(6) 0.3170(8)
C1 C 0.1767(13) -0.1454(7) -0.0256(9)
C2 C 0.3344(13) -0.1573(7) 0.0944(10)
C3 C 0.3237(14) -0.1732(7) 0.2372(10)
C4 C 0.2335(13) 0.3444(8) 0.4249(12)
C5 C 0.1795(13) 0.2439(6) 0.4402(10)
C6 C 0.1842(13) 0.1743(7) 0.3264(9)
H1 H 0.133(10) 0.404(7) 0.257(9)
H2 H 0.266(10) -0.082(8) 0.336(8)
H3 H 0.341(10) -0.045(7) 0.317(9)
H4 H 0.003(9) 0.106(6) 0.320(8)
H5 H 0.159(9) 0.066(7) 0.392(8)
H6 H 0.1171(13) -0.2053(7) -0.0370(9)
H7 H 0.1976(13) -0.1333(7) -0.1087(9)
H8 H 0.3885(13) -0.2128(7) 0.0757(10)
H9 H 0.3980(13) -0.0996(7) 0.0757(10)
H10 H 0.4272(14) -0.1951(7) 0.3049(10)
H11 H 0.2422(14) -0.2215(7) 0.2278(10)
H12 H 0.3362(13) 0.3416(8) 0.4157(12)
H13 H 0.2450(13) 0.3825(8) 0.5065(12)
H14 H 0.2498(13) 0.2188(6) 0.5308(10)
H15 H 0.0699(13) 0.2470(6) 0.4347(10)
H16 H 0.2960(13) 0.1549(7) 0.3460(9)
H17 H 0.1362(13) 0.2068(7) 0.2368(9)
Cu1A Cu -0.08713(14) 0.49334(7) 0.34062(11)
O1B O -0.0773(8) 0.0680(4) 0.0122(6)
O2A O -0.1146(11) -0.1120(6) 0.1978(8)
Cu1B Cu -0.08713(14) 0.00666(7) -0.15938(11)
H1A H -0.133(10) -0.096(7) 0.243(9)
loop_
_geom_bond_atom_site_label_1
_geom_bond_atom_site_label_2
_geom_bond_site_symmetry_1
_geom_bond_site_symmetry_2
Cu1 O1 1_555 1_555
O1 C1 1_555 1_555
O2 C4 1_555 1_555
N1 Cu1 1_555 1_555
N2 Cu1 1_555 1_555
C1 C2 1_555 1_555
C2 C3 1_555 1_555
C3 N1 1_555 1_555
C4 C5 1_555 1_555
C5 C6 1_555 1_555
C6 N2 1_555 1_555
H1 O2 1_555 1_555
H2 N1 1_555 1_555
H3 N1 1_555 1_555
H4 N2 1_555 1_555
H5 N2 1_555 1_555
H6 C1 1_555 1_555
H7 C1 1_555 1_555
H8 C2 1_555 1_555
H9 C2 1_555 1_555
H10 C3 1_555 1_555
H11 C3 1_555 1_555
H12 C4 1_555 1_555
H13 C4 1_555 1_555
H14 C5 1_555 1_555
H15 C5 1_555 1_555
H16 C6 1_555 1_555
H17 C6 1_555 1_555
Cu1A O2 1_555 1_555
O1B Cu1 1_555 1_555
O2A Cu1 1_555 1_555
Cu1B O1 1_555 1_555
H1A O2A 1_555 1_555
O1B Cu1B 1_555 1_555

#END
