
#######################################################################
#
#                 Cambridge Crystallographic Data Centre
#                                CCDC 
#
#######################################################################
#
# If this CIF has been generated from an entry in the Cambridge 
# Structural Database, then it will include bibliographic, chemical, 
# crystal, experimental, refinement or atomic coordinate data resulting 
# from the CCDC's data processing and validation procedures.
#
#######################################################################

data_FIVTOU
_symmetry_cell_setting           triclinic
_symmetry_space_group_name_H-M   'P -1'
_symmetry_Int_Tables_number      2
_space_group_name_Hall           '-P 1'
loop_
_symmetry_equiv_pos_site_id
_symmetry_equiv_pos_as_xyz
1 x,y,z
2 -x,-y,-z
_cell_length_a                   7.7730(6)
_cell_length_b                   11.7968(10)
_cell_length_c                   12.1458(9)
_cell_angle_alpha                114.089(2)
_cell_angle_beta                 102.310(2)
_cell_angle_gamma                102.905(2)
_cell_volume                     931.284
loop_
_atom_site_label
_atom_site_type_symbol
_atom_site_fract_x
_atom_site_fract_y
_atom_site_fract_z
Ga1 Ga 0.8093(3) 0.82744(18) 0.48583(19)
Ga2 Ga 0.6435(2) 0.38399(16) 0.36657(16)
P1 P 0.9636(6) 0.6768(4) 0.6075(4)
P2 P 1.1767(6) 0.8868(4) 0.4183(5)
P3 P 0.4416(6) 0.5980(4) 0.3824(4)
O1 O 0.9649(16) 0.8463(12) 0.3974(12)
O2 O 0.9202(14) 0.8008(10) 0.6159(11)
O3 O 1.2480(16) 1.0273(11) 0.4368(13)
O4 O 0.6045(15) 0.6854(12) 0.3663(11)
O5 O 0.8287(14) 0.5548(11) 0.4885(10)
O6 O 1.1676(15) 0.7031(10) 0.6198(11)
O7 O 0.4490(14) 0.6685(10) 0.5221(10)
O8 O 0.4447(14) 0.4579(9) 0.3388(11)
O9 O 0.9469(16) 0.6719(11) 0.7315(11)
H1 H 0.8367 0.6355 0.7196
O10 O 1.2829(16) 0.9012(12) 0.5512(12)
H2 H 1.2322 0.8355 0.5562
O11 O 0.2570(14) 0.5819(11) 0.2883(10)
H3 H 0.2540 0.6552 0.3012
O12 O 1.2113(17) 0.7904(12) 0.3070(12)
N1 N 0.6898(17) 0.4034(13) 0.2101(12)
N2 N 0.4597(17) 0.1997(12) 0.2132(12)
C1 C 0.809(2) 0.5028(17) 0.2112(17)
H4 H 0.8952 0.5710 0.2894
C2 C 0.810(3) 0.5099(19) 0.0993(18)
H5 H 0.8930 0.5827 0.1030
C3 C 0.685(3) 0.4071(18) -0.0163(18)
H6 H 0.6816 0.4111 -0.0916
C4 C 0.564(3) 0.296(2) -0.022(2)
C5 C 0.437(4) 0.187(3) -0.140(2)
H7 H 0.4293 0.1867 -0.2176
C6 C 0.324(3) 0.081(2) -0.136(2)
H8 H 0.2428 0.0074 -0.2132
C7 C 0.325(3) 0.0786(18) -0.0215(17)
C8 C 0.217(3) -0.0236(19) -0.008(2)
H9 H 0.1292 -0.0980 -0.0815
C9 C 0.235(3) -0.019(2) 0.106(2)
H10 H 0.1654 -0.0906 0.1113
C10 C 0.361(2) 0.0970(16) 0.2193(17)
H11 H 0.3743 0.1006 0.2988
C11 C 0.570(2) 0.3021(18) 0.0949(16)
C12 C 0.447(2) 0.1919(18) 0.0977(16)
Ga1A Ga 1.1907(3) 1.17256(18) 0.51417(19)
Ga2A Ga 1.3565(2) 0.61601(16) 0.63343(16)
Ga2A_2 Ga 0.3565(2) 0.61601(16) 0.63343(16)
O3A O 0.7520(16) 0.9727(11) 0.5632(13)
O6A O 0.8324(15) 0.2969(10) 0.3802(11)
O7A O 0.5510(14) 0.3315(10) 0.4779(10)
loop_
_geom_bond_atom_site_label_1
_geom_bond_atom_site_label_2
_geom_bond_site_symmetry_1
_geom_bond_site_symmetry_2
Ga1 O1 1_555 1_555
Ga2 O5 1_555 1_555
P1 O2 1_555 1_555
P2 O1 1_555 1_555
P3 O4 1_555 1_555
O2 Ga1 1_555 1_555
O3 P2 1_555 1_555
O4 Ga1 1_555 1_555
O5 P1 1_555 1_555
O6 P1 1_555 1_555
O7 P3 1_555 1_555
O8 Ga2 1_555 1_555
O9 P1 1_555 1_555
H1 O9 1_555 1_555
O10 P2 1_555 1_555
H2 O10 1_555 1_555
O11 P3 1_555 1_555
H3 O11 1_555 1_555
O12 P2 1_555 1_555
N1 Ga2 1_555 1_555
N2 Ga2 1_555 1_555
C1 N1 1_555 1_555
H4 C1 1_555 1_555
C2 C1 1_555 1_555
H5 C2 1_555 1_555
C3 C2 1_555 1_555
H6 C3 1_555 1_555
C4 C3 1_555 1_555
C5 C4 1_555 1_555
H7 C5 1_555 1_555
C6 C5 1_555 1_555
H8 C6 1_555 1_555
C7 C6 1_555 1_555
C8 C7 1_555 1_555
H9 C8 1_555 1_555
C9 C8 1_555 1_555
H10 C9 1_555 1_555
C10 N2 1_555 1_555
H11 C10 1_555 1_555
C11 N1 1_555 1_555
C12 N2 1_555 1_555
Ga1A O3 1_555 1_555
Ga2A O6 1_555 1_555
Ga2A_2 O7 1_555 1_555
O3A Ga1 1_555 1_555
O6A Ga2 1_555 1_555
O7A Ga2 1_555 1_555
P3 O8 1_555 1_555
C4 C11 1_555 1_555
C7 C12 1_555 1_555
C9 C10 1_555 1_555
C11 C12 1_555 1_555

#END
