
#######################################################################
#
#                 Cambridge Crystallographic Data Centre
#                                CCDC 
#
#######################################################################
#
# If this CIF has been generated from an entry in the Cambridge 
# Structural Database, then it will include bibliographic, chemical, 
# crystal, experimental, refinement or atomic coordinate data resulting 
# from the CCDC's data processing and validation procedures.
#
#######################################################################

data_FIVYIT
_symmetry_cell_setting           monoclinic
_symmetry_space_group_name_H-M   'P 21/c'
_symmetry_Int_Tables_number      14
_space_group_name_Hall           '-P 2ybc'
loop_
_symmetry_equiv_pos_site_id
_symmetry_equiv_pos_as_xyz
1 x,y,z
2 -x,1/2+y,1/2-z
3 -x,-y,-z
4 x,1/2-y,1/2+z
_cell_length_a                   8.2187(6)
_cell_length_b                   24.1485(17)
_cell_length_c                   17.1040(12)
_cell_angle_alpha                90
_cell_angle_beta                 103.5900(10)
_cell_angle_gamma                90
_cell_volume                     3299.58
loop_
_atom_site_label
_atom_site_type_symbol
_atom_site_fract_x
_atom_site_fract_y
_atom_site_fract_z
Cl1 Cl 0.47262(13) 0.30738(5) 0.34415(7)
O1 O 0.5089(5) 0.30503(19) 0.2656(2)
O2 O 0.5234(16) 0.3623(3) 0.3670(7)
O3 O 0.3040(6) 0.3054(4) 0.3448(4)
O4 O 0.5632(9) 0.2756(3) 0.4105(5)
Cu1 Cu 0.03372(5) 0.605992(16) 0.02054(2)
P1 P 0.41996(11) 0.55846(4) 0.06947(5)
O5 O 0.8011(3) 0.45082(11) 0.27963(17)
O6 O 1.0933(4) 0.50521(12) 0.37222(16)
O7 O 1.0470(4) 0.59745(13) 0.47231(17)
O8 O 0.7536(4) 0.66192(12) 0.41907(17)
O9 O 0.4551(4) 0.60954(11) 0.33367(17)
O10 O 0.3007(3) 0.60468(9) 0.07168(15)
O11 O 0.3410(3) 0.50201(10) 0.04845(14)
O12 O 0.5391(3) 0.57522(11) 0.01467(15)
H1 H 0.5738 0.5466 -0.0041
O13 O -0.0150(3) 0.54095(9) 0.08265(14)
O14 O -0.0237(3) 0.44844(9) 0.06741(14)
N1 N 0.5134(4) 0.51956(13) 0.23192(18)
N2 N 0.0103(3) 0.65890(11) 0.10644(17)
N3 N 0.0314(4) 0.83537(11) 0.43813(16)
C1 C 0.9683(5) 0.43602(18) 0.2760(3)
H2 H 1.0038 0.4583 0.2343
H3 H 0.9730 0.3964 0.2620
C2 C 1.0816(6) 0.44695(19) 0.3565(3)
H4 H 1.0376 0.4281 0.3986
H5 H 1.1943 0.4319 0.3580
C3 C 1.1980(6) 0.5166(3) 0.4507(3)
H6 H 1.3120 0.5020 0.4542
H7 H 1.1519 0.4980 0.4924
C4 C 1.2058(6) 0.5777(3) 0.4651(3)
H8 H 1.2913 0.5860 0.5150
H9 H 1.2387 0.5966 0.4198
C5 C 1.0399(7) 0.6566(2) 0.4804(3)
H10 H 1.0620 0.6746 0.4319
H11 H 1.1275 0.6688 0.5275
C6 C 0.8752(7) 0.67358(19) 0.4907(3)
H12 H 0.8483 0.6532 0.5363
H13 H 0.8755 0.7137 0.5026
C7 C 0.5884(7) 0.67763(18) 0.4270(3)
H14 H 0.5879 0.7173 0.4415
H15 H 0.5579 0.6557 0.4703
C8 C 0.4645(6) 0.66768(17) 0.3497(3)
H16 H 0.3533 0.6818 0.3532
H17 H 0.4990 0.6875 0.3055
C9 C 0.3330(5) 0.59679(19) 0.2625(2)
H18 H 0.3527 0.6191 0.2171
H19 H 0.2198 0.6055 0.2698
C10 C 0.3454(5) 0.53650(18) 0.2452(2)
H20 H 0.2578 0.5270 0.1966
H21 H 0.3229 0.5149 0.2907
C11 C 0.5131(5) 0.45767(16) 0.2204(3)
H22 H 0.4847 0.4396 0.2674
H23 H 0.4251 0.4478 0.1722
C12 C 0.6786(6) 0.43558(16) 0.2106(2)
H24 H 0.6736 0.3948 0.2051
H25 H 0.7059 0.4514 0.1619
C13 C 0.5660(5) 0.55265(15) 0.1681(2)
H26 H 0.6724 0.5702 0.1784
C14 C 0.1084(4) 0.70408(14) 0.1198(2)
H27 H 0.1775 0.7120 0.0838
C15 C 0.1134(4) 0.73939(14) 0.1833(2)
H28 H 0.1843 0.7710 0.1902
C16 C 0.0148(4) 0.72902(14) 0.2376(2)
C17 C -0.0877(4) 0.68179(14) 0.2240(2)
H29 H -0.1578 0.6730 0.2592
C18 C -0.0852(4) 0.64824(15) 0.1588(2)
H30 H -0.1541 0.6162 0.1506
C19 C 0.0203(4) 0.76561(14) 0.3073(2)
C20 C 0.1684(4) 0.79168(14) 0.3463(2)
H31 H 0.2682 0.7860 0.3285
C21 C 0.1690(4) 0.82578(14) 0.4112(2)
H32 H 0.2709 0.8430 0.4377
C22 C -0.1133(4) 0.81012(14) 0.4012(2)
H33 H -0.2111 0.8164 0.4205
C23 C -0.1221(4) 0.77541(14) 0.3359(2)
H34 H -0.2252 0.7583 0.3107
C24 C -0.0110(4) 0.49729(14) 0.0430(2)
H35 H 0.592(5) 0.5278(17) 0.280(3)
Cu1B Cu -0.03372(5) 0.394008(16) -0.02054(2)
Cu1C Cu 0.03372(5) 0.894008(16) 0.52054(2)
Cu1C_2 Cu 0.03372(5) 0.894008(16) -0.47946(2)
P1B P -0.41996(11) 0.44154(4) -0.06947(5)
O5B O -0.8011(3) 0.54918(11) -0.27963(17)
O6B O -1.0933(4) 0.49479(12) -0.37222(16)
O7B O -1.0470(4) 0.40255(13) -0.47231(17)
O8B O -0.7536(4) 0.33808(12) -0.41907(17)
O9B O -0.4551(4) 0.39046(11) -0.33367(17)
O10B O -0.3007(3) 0.39532(9) -0.07168(15)
O11B O -0.3410(3) 0.49799(10) -0.04845(14)
O12B O -0.5391(3) 0.42478(11) -0.01467(15)
H1B H -0.5738 0.4534 0.0041
O13B O 0.0150(3) 0.45905(9) -0.08265(14)
O14B O 0.0237(3) 0.55156(9) -0.06741(14)
N1B N -0.5134(4) 0.48044(13) -0.23192(18)
N2C N 0.0103(3) 0.84110(11) -0.39356(17)
N2B N -0.0103(3) 0.34110(11) -0.10644(17)
N3C N 0.0314(4) 0.66463(11) -0.06187(16)
N3A N -0.0314(4) 0.33537(11) 0.06187(16)
C1B C -0.9683(5) 0.56398(18) -0.2760(3)
H2B H -1.0038 0.5417 -0.2343
H3B H -0.9730 0.6036 -0.2620
C2B C -1.0816(6) 0.55305(19) -0.3565(3)
H4B H -1.0376 0.5719 -0.3986
H5B H -1.1943 0.5681 -0.3580
C3B C -1.1980(6) 0.4834(3) -0.4507(3)
H6B H -1.3120 0.4980 -0.4542
H7B H -1.1519 0.5020 -0.4924
C4B C -1.2058(6) 0.4223(3) -0.4651(3)
H8B H -1.2913 0.4140 -0.5150
H9B H -1.2387 0.4034 -0.4198
C5B C -1.0399(7) 0.3434(2) -0.4804(3)
H10B H -1.0620 0.3254 -0.4319
H11B H -1.1275 0.3312 -0.5275
C6B C -0.8752(7) 0.32642(19) -0.4907(3)
H12B H -0.8483 0.3468 -0.5363
H13B H -0.8755 0.2863 -0.5026
C7B C -0.5884(7) 0.32237(18) -0.4270(3)
H14B H -0.5879 0.2827 -0.4415
H15B H -0.5579 0.3443 -0.4703
C8B C -0.4645(6) 0.33232(17) -0.3497(3)
H16B H -0.3533 0.3182 -0.3532
H17B H -0.4990 0.3125 -0.3055
C9B C -0.3330(5) 0.40321(19) -0.2625(2)
H18B H -0.3527 0.3809 -0.2171
H19B H -0.2198 0.3945 -0.2698
C10B C -0.3454(5) 0.46350(18) -0.2452(2)
H20B H -0.2578 0.4730 -0.1966
H21B H -0.3229 0.4851 -0.2907
C11B C -0.5131(5) 0.54233(16) -0.2204(3)
H22B H -0.4847 0.5604 -0.2674
H23B H -0.4251 0.5522 -0.1722
C12B C -0.6786(6) 0.56442(16) -0.2106(2)
H24B H -0.6736 0.6052 -0.2051
H25B H -0.7059 0.5486 -0.1619
C13B C -0.5660(5) 0.44735(15) -0.1681(2)
H26B H -0.6724 0.4298 -0.1784
C14C C 0.1084(4) 0.79592(14) -0.3802(2)
H27C H 0.1775 0.7880 -0.4162
C15C C 0.1134(4) 0.76061(14) -0.3167(2)
H28C H 0.1843 0.7290 -0.3098
C16C C 0.0148(4) 0.77098(14) -0.2624(2)
C17C C -0.0877(4) 0.81821(14) -0.2760(2)
H29C H -0.1578 0.8270 -0.2408
C18C C -0.0852(4) 0.85176(15) -0.3412(2)
H30C H -0.1541 0.8838 -0.3494
C19C C 0.0203(4) 0.73439(14) -0.1927(2)
C20C C 0.1684(4) 0.70832(14) -0.1537(2)
H31C H 0.2682 0.7140 -0.1715
C21C C 0.1690(4) 0.67422(14) -0.0888(2)
H32C H 0.2709 0.6570 -0.0623
C22C C -0.1133(4) 0.68988(14) -0.0988(2)
H33C H -0.2111 0.6836 -0.0795
C23C C -0.1221(4) 0.72459(14) -0.1641(2)
H34C H -0.2252 0.7417 -0.1893
C24B C 0.0110(4) 0.50271(14) -0.0430(2)
H35B H -0.592(5) 0.4722(17) -0.280(3)
O15 O 0.4039(4) 0.30826(13) 0.9962(2)
H36 H 0.4116 0.3382 0.9851
H37 H 0.4807 0.2852 0.9936
O16 O 0.7501(10) 0.5472(3) 0.3603(5)
H38 H 0.784(6) 0.586(2) 0.365(3)
H39 H 0.876(11) 0.547(4) 0.346(5)
O17? O 0.7871(8) 0.5660(3) 0.3286(4)
O18? O 0.3867(19) 0.3526(5) 0.3465(7)
O19? O 0.3855(18) 0.2583(5) 0.3406(7)
O20? O 0.6155(9) 0.3025(5) 0.4037(5)
loop_
_geom_bond_atom_site_label_1
_geom_bond_atom_site_label_2
_geom_bond_site_symmetry_1
_geom_bond_site_symmetry_2
Cl1 O1 1_555 1_555
O2 Cl1 1_555 1_555
O3 Cl1 1_555 1_555
O4 Cl1 1_555 1_555
Cu1 O10 1_555 1_555
P1 O10 1_555 1_555
O5 C1 1_555 1_555
O6 C2 1_555 1_555
O7 C4 1_555 1_555
O8 C6 1_555 1_555
O9 C8 1_555 1_555
O11 P1 1_555 1_555
O12 P1 1_555 1_555
H1 O12 1_555 1_555
O13 Cu1 1_555 1_555
O14 C24 1_555 1_555
N1 C10 1_555 1_555
N2 Cu1 1_555 1_555
N3 C21 1_555 1_555
C1 H2 1_555 1_555
H3 C1 1_555 1_555
C2 C1 1_555 1_555
H4 C2 1_555 1_555
H5 C2 1_555 1_555
C3 O6 1_555 1_555
H6 C3 1_555 1_555
H7 C3 1_555 1_555
C4 C3 1_555 1_555
H8 C4 1_555 1_555
H9 C4 1_555 1_555
C5 O7 1_555 1_555
H10 C5 1_555 1_555
H11 C5 1_555 1_555
C6 C5 1_555 1_555
H12 C6 1_555 1_555
H13 C6 1_555 1_555
C7 O8 1_555 1_555
H14 C7 1_555 1_555
H15 C7 1_555 1_555
C8 C7 1_555 1_555
H16 C8 1_555 1_555
H17 C8 1_555 1_555
C9 O9 1_555 1_555
H18 C9 1_555 1_555
H19 C9 1_555 1_555
C10 C9 1_555 1_555
H20 C10 1_555 1_555
H21 C10 1_555 1_555
C11 N1 1_555 1_555
H22 C11 1_555 1_555
H23 C11 1_555 1_555
C12 O5 1_555 1_555
H24 C12 1_555 1_555
H25 C12 1_555 1_555
C13 P1 1_555 1_555
H26 C13 1_555 1_555
C14 N2 1_555 1_555
H27 C14 1_555 1_555
C15 C14 1_555 1_555
H28 C15 1_555 1_555
C16 C15 1_555 1_555
C17 C16 1_555 1_555
H29 C17 1_555 1_555
C18 N2 1_555 1_555
H30 C18 1_555 1_555
C19 C16 1_555 1_555
C20 C19 1_555 1_555
H31 C20 1_555 1_555
C21 C20 1_555 1_555
H32 C21 1_555 1_555
C22 N3 1_555 1_555
H33 C22 1_555 1_555
C23 C19 1_555 1_555
H34 C23 1_555 1_555
C24 O13 1_555 1_555
H35 N1 1_555 1_555
O15 H36 1_555 1_555
H37 O15 1_555 1_555
O16 H38 1_555 1_555
H39 O16 1_555 1_555
Cu1B O14 1_555 1_555
Cu1C N3 1_555 1_555
Cu1C_2 N2C 1_555 1_555
P1B O10B 1_555 1_555
O5B C1B 1_555 1_555
O6B C2B 1_555 1_555
O7B C4B 1_555 1_555
O8B C6B 1_555 1_555
O9B C8B 1_555 1_555
O10B Cu1B 1_555 1_555
O11B P1B 1_555 1_555
O12B P1B 1_555 1_555
H1B O12B 1_555 1_555
O13B Cu1B 1_555 1_555
O14B Cu1 1_555 1_555
N1B C10B 1_555 1_555
N2C C14C 1_555 1_555
N2B Cu1B 1_555 1_555
N3C Cu1 1_555 1_555
N3A Cu1B 1_555 1_555
C1B H2B 1_555 1_555
H3B C1B 1_555 1_555
C2B C1B 1_555 1_555
H4B C2B 1_555 1_555
H5B C2B 1_555 1_555
C3B O6B 1_555 1_555
H6B C3B 1_555 1_555
H7B C3B 1_555 1_555
C4B C3B 1_555 1_555
H8B C4B 1_555 1_555
H9B C4B 1_555 1_555
C5B O7B 1_555 1_555
H10B C5B 1_555 1_555
H11B C5B 1_555 1_555
C6B C5B 1_555 1_555
H12B C6B 1_555 1_555
H13B C6B 1_555 1_555
C7B O8B 1_555 1_555
H14B C7B 1_555 1_555
H15B C7B 1_555 1_555
C8B C7B 1_555 1_555
H16B C8B 1_555 1_555
H17B C8B 1_555 1_555
C9B O9B 1_555 1_555
H18B C9B 1_555 1_555
H19B C9B 1_555 1_555
C10B C9B 1_555 1_555
H20B C10B 1_555 1_555
H21B C10B 1_555 1_555
C11B N1B 1_555 1_555
H22B C11B 1_555 1_555
H23B C11B 1_555 1_555
C12B O5B 1_555 1_555
H24B C12B 1_555 1_555
H25B C12B 1_555 1_555
C13B P1B 1_555 1_555
H26B C13B 1_555 1_555
C14C H27C 1_555 1_555
C15C C14C 1_555 1_555
H28C C15C 1_555 1_555
C16C C15C 1_555 1_555
C17C C16C 1_555 1_555
H29C C17C 1_555 1_555
C18C N2C 1_555 1_555
H30C C18C 1_555 1_555
C19C C16C 1_555 1_555
C20C C19C 1_555 1_555
H31C C20C 1_555 1_555
C21C N3C 1_555 1_555
H32C C21C 1_555 1_555
C22C N3C 1_555 1_555
H33C C22C 1_555 1_555
C23C C19C 1_555 1_555
H34C C23C 1_555 1_555
C24B C24 1_555 1_555
H35B N1B 1_555 1_555
N1 C13 1_555 1_555
C11 C12 1_555 1_555
C17 C18 1_555 1_555
C22 C23 1_555 1_555
O13B C24B 1_555 1_555
O14B C24B 1_555 1_555
N1B C13B 1_555 1_555
C11B C12B 1_555 1_555
C17C C18C 1_555 1_555
C20C C21C 1_555 1_555
C22C C23C 1_555 1_555

#END
