
#######################################################################
#
#                 Cambridge Crystallographic Data Centre
#                                CCDC 
#
#######################################################################
#
# If this CIF has been generated from an entry in the Cambridge 
# Structural Database, then it will include bibliographic, chemical, 
# crystal, experimental, refinement or atomic coordinate data resulting 
# from the CCDC's data processing and validation procedures.
#
#######################################################################

data_FIVYUF
_symmetry_cell_setting           monoclinic
_symmetry_space_group_name_H-M   'C c'
_symmetry_Int_Tables_number      9
_space_group_name_Hall           'C -2yc'
loop_
_symmetry_equiv_pos_site_id
_symmetry_equiv_pos_as_xyz
1 x,y,z
2 x,-y,1/2+z
3 1/2+x,1/2+y,z
4 1/2+x,1/2-y,1/2+z
_cell_length_a                   26.594(4)
_cell_length_b                   9.5792(14)
_cell_length_c                   24.200(4)
_cell_angle_alpha                90
_cell_angle_beta                 114.730(3)
_cell_angle_gamma                90
_cell_volume                     5599.54
loop_
_atom_site_label
_atom_site_type_symbol
_atom_site_fract_x
_atom_site_fract_y
_atom_site_fract_z
Sn1 Sn 0.45041(4) 0.16473(9) 0.76583(4)
N1 N 0.3526(5) 0.1882(12) 0.7416(5)
O1 O 0.4326(4) 0.0798(9) 0.8421(4)
O2 O 0.3819(4) 0.1202(10) 0.8957(4)
O3 O 0.1632(4) 0.2173(10) 0.6091(4)
O4 O 0.2208(4) 0.3202(10) 0.5790(4)
C1 C 0.3113(5) 0.2259(14) 0.6883(6)
H1 H 0.3195 0.2497 0.6548
C2 C 0.2572(5) 0.2302(14) 0.6818(6)
C3 C 0.2447(5) 0.1985(15) 0.7306(6)
H2 H 0.2074 0.1942 0.7259
C4 C 0.2881(6) 0.1734(16) 0.7860(6)
H3 H 0.2816 0.1662 0.8216
C5 C 0.3411(5) 0.1587(14) 0.7898(6)
C6 C 0.3887(6) 0.1157(14) 0.8460(6)
C7 C 0.2107(6) 0.2596(15) 0.6197(6)
C8 C 0.4629(6) 0.3604(15) 0.8129(6)
H4 H 0.4265 0.4075 0.7993
H5 H 0.4759 0.3406 0.8568
C9 C 0.5030(6) 0.4614(15) 0.8050(7)
H6 H 0.4892 0.4905 0.7619
H7 H 0.5395 0.4161 0.8168
C10 C 0.5089(6) 0.5917(16) 0.8464(7)
H8 H 0.4718 0.6326 0.8358
H9 H 0.5239 0.5616 0.8894
C11 C 0.5465(7) 0.7021(17) 0.8392(8)
H10 H 0.5809 0.6584 0.8422
H11 H 0.5551 0.7723 0.8713
H12 H 0.5279 0.7471 0.7994
C12 C 0.4328(6) -0.0230(14) 0.7142(7)
H13 H 0.4141 0.0035 0.6708
H14 H 0.4687 -0.0653 0.7204
C13 C 0.3984(7) -0.1365(16) 0.7249(8)
H15 H 0.3621 -0.0973 0.7190
H16 H 0.4172 -0.1690 0.7676
C14 C 0.3892(7) -0.2597(16) 0.6828(8)
H17 H 0.3694 -0.2266 0.6403
H18 H 0.4258 -0.2951 0.6875
C15 C 0.3570(8) -0.3794(18) 0.6924(8)
H19 H 0.3690 -0.3948 0.7362
H20 H 0.3638 -0.4641 0.6738
H21 H 0.3174 -0.3573 0.6737
Sn2 Sn 0.12842(4) 0.27659(11) 0.50482(4)
N2 N 0.6643(5) 0.0769(12) 0.9477(5)
O5 O 0.5661(4) 0.2043(9) 0.9084(4)
O6 O 0.5346(4) 0.0826(10) 0.8203(4)
O7 O 0.7933(4) -0.2232(10) 0.9176(4)
O8 O 0.8263(4) -0.0894(10) 0.9985(4)
C16 C 0.7159(6) 0.0192(14) 0.9678(6)
H22 H 0.7427 0.0401 1.0076
C17 C 0.7298(5) -0.0697(14) 0.9309(6)
C18 C 0.6891(5) -0.1019(16) 0.8723(6)
H23 H 0.6972 -0.1635 0.8464
C19 C 0.6378(6) -0.0429(15) 0.8534(6)
H24 H 0.6099 -0.0632 0.8141
C20 C 0.6267(5) 0.0463(14) 0.8916(6)
C21 C 0.5716(6) 0.1155(14) 0.8734(6)
C22 C 0.7864(6) -0.1340(15) 0.9513(6)
C23 C 0.0986(6) 0.4556(15) 0.5328(6)
H25 H 0.0883 0.4273 0.5660
H26 H 0.1296 0.5227 0.5503
C24 C 0.0488(6) 0.5336(15) 0.4844(7)
H27 H 0.0189 0.4661 0.4623
H28 H 0.0603 0.5779 0.4545
C25 C 0.0267(6) 0.6471(17) 0.5143(7)
H29 H 0.0173 0.6039 0.5459
H30 H 0.0557 0.7182 0.5341
C26 C -0.0243(7) 0.7164(17) 0.4667(7)
H31 H -0.0168 0.7445 0.4319
H32 H -0.0338 0.7990 0.4843
H33 H -0.0553 0.6505 0.4530
C27 C 0.1572(6) 0.0925(14) 0.4812(7)
H34 H 0.1259 0.0470 0.4475
H35 H 0.1851 0.1175 0.4656
C28 C 0.1835(7) -0.0144(17) 0.5334(8)
H36 H 0.2166 0.0292 0.5655
H37 H 0.1567 -0.0325 0.5512
C29 C 0.2001(7) -0.1493(15) 0.5174(7)
H38 H 0.2249 -0.1325 0.4970
H39 H 0.1667 -0.1982 0.4883
C30 C 0.2291(8) -0.2411(17) 0.5717(8)
H40 H 0.2648 -0.1994 0.5980
H41 H 0.2352 -0.3333 0.5581
H42 H 0.2062 -0.2506 0.5944
Sn3 Sn 0.38919(3) 0.29486(9) 0.96560(4)
N3 N 0.4508(4) 0.5573(12) 0.5480(5)
O9 O 0.4776(4) 0.7292(10) 0.4764(4)
O10 O 0.5632(4) 0.6391(10) 0.5121(4)
O11 O 0.4998(4) 0.2341(10) 0.7112(4)
O12 O 0.4134(4) 0.3076(10) 0.6693(4)
C31 C 0.4370(6) 0.4739(14) 0.5840(6)
H43 H 0.3996 0.4708 0.5789
C32 C 0.4764(5) 0.3919(14) 0.6287(6)
C33 C 0.5302(5) 0.3906(15) 0.6324(6)
H44 H 0.5574 0.3327 0.6616
C34 C 0.5441(6) 0.4697(15) 0.5953(6)
H45 H 0.5809 0.4703 0.5983
C35 C 0.5025(6) 0.5519(14) 0.5516(6)
C36 C 0.5151(6) 0.6476(14) 0.5102(6)
C37 C 0.4620(6) 0.3067(14) 0.6719(6)
C38 C 0.3817(6) 0.4519(14) 0.8996(6)
H46 H 0.4192 0.4896 0.9093
H47 H 0.3689 0.4061 0.8593
C39 C 0.3427(6) 0.5770(15) 0.8936(7)
H48 H 0.3054 0.5420 0.8864
H49 H 0.3572 0.6314 0.9319
C40 C 0.3385(6) 0.6724(16) 0.8401(7)
H50 H 0.3758 0.7063 0.8468
H51 H 0.3233 0.6188 0.8016
C41 C 0.3004(7) 0.7978(16) 0.8356(8)
H52 H 0.2621 0.7652 0.8215
H53 H 0.3027 0.8661 0.8066
H54 H 0.3121 0.8414 0.8757
C42 C 0.4003(6) 0.1217(15) 1.0241(7)
H55 H 0.4326 0.0671 1.0261
H56 H 0.4089 0.1568 1.0656
C43 C 0.3504(7) 0.0247(17) 1.0050(8)
H57 H 0.3212 0.0706 1.0139
H58 H 0.3353 0.0097 0.9605
C44 C 0.3637(7) -0.1132(16) 1.0362(7)
H59 H 0.3797 -0.0977 1.0807
H60 H 0.3923 -0.1596 1.0265
C45 C 0.3139(8) -0.2108(18) 1.0186(8)
H61 H 0.2852 -0.1657 1.0279
H62 H 0.3254 -0.2980 1.0417
H63 H 0.2990 -0.2313 0.9750
Sn2C Sn 0.62842(4) 0.22341(11) 1.00482(4)
Sn2B Sn 0.62842(4) 0.77659(11) 0.50482(4)
N2C N 0.1643(5) 0.4231(12) 0.4477(5)
O5C O 0.0661(4) 0.2957(9) 0.4084(4)
O7B O 0.2933(4) 0.2768(10) 0.9176(4)
O8B O 0.3263(4) 0.4106(10) 0.9985(4)
Sn3B Sn 0.88919(3) -0.20514(9) 0.96560(4)
Sn3A Sn 0.38919(3) 0.70514(9) 0.46560(4)
N3A N 0.4508(4) 0.4427(12) 1.0480(5)
O9A O 0.4776(4) 0.2708(10) 0.9764(4)
O10B O 0.0632(4) 0.1391(10) 0.5121(4)
O13 O 0.1570(9) 0.022(2) 0.7813(9)
H64 H 0.1515 -0.0594 0.7676
C46 C 0.1836(13) 0.018(4) 0.8475(12)
H65 H 0.2000 0.1096 0.8631
H66 H 0.2126 -0.0531 0.8607
H67 H 0.1560 -0.0041 0.8631
O14 O 0.1169(9) 0.278(2) 0.7339(10)
H68 H 0.1180 0.2007 0.7507
C47 C 0.0649(13) 0.289(4) 0.6782(13)
H69 H 0.0361 0.2332 0.6831
H70 H 0.0710 0.2535 0.6435
H71 H 0.0532 0.3866 0.6711
O15 O 0.1703(8) 0.548(2) 0.7422(9)
H72 H 0.1527 0.4727 0.7325
C48 C 0.1867(13) 0.590(4) 0.6943(11)
H73 H 0.1858 0.6923 0.6910
H74 H 0.1611 0.5498 0.6555
H75 H 0.2244 0.5569 0.7040
O16 O 0.6174(9) 0.256(2) 0.7714(9)
loop_
_geom_bond_atom_site_label_1
_geom_bond_atom_site_label_2
_geom_bond_site_symmetry_1
_geom_bond_site_symmetry_2
Sn1 N1 1_555 1_555
N1 C1 1_555 1_555
O1 Sn1 1_555 1_555
O2 C6 1_555 1_555
O3 C7 1_555 1_555
O4 C7 1_555 1_555
C1 H1 1_555 1_555
C2 C1 1_555 1_555
C3 C2 1_555 1_555
H2 C3 1_555 1_555
C4 C3 1_555 1_555
H3 C4 1_555 1_555
C5 N1 1_555 1_555
C6 O1 1_555 1_555
C7 C2 1_555 1_555
C8 Sn1 1_555 1_555
H4 C8 1_555 1_555
H5 C8 1_555 1_555
C9 C8 1_555 1_555
H6 C9 1_555 1_555
H7 C9 1_555 1_555
C10 C9 1_555 1_555
H8 C10 1_555 1_555
H9 C10 1_555 1_555
C11 C10 1_555 1_555
H10 C11 1_555 1_555
H11 C11 1_555 1_555
H12 C11 1_555 1_555
C12 Sn1 1_555 1_555
H13 C12 1_555 1_555
H14 C12 1_555 1_555
C13 C12 1_555 1_555
H15 C13 1_555 1_555
H16 C13 1_555 1_555
C14 C13 1_555 1_555
H17 C14 1_555 1_555
H18 C14 1_555 1_555
C15 C14 1_555 1_555
H19 C15 1_555 1_555
H20 C15 1_555 1_555
H21 C15 1_555 1_555
Sn2 O3 1_555 1_555
N2 C16 1_555 1_555
O5 C21 1_555 1_555
O6 Sn1 1_555 1_555
O7 C22 1_555 1_555
O8 C22 1_555 1_555
C16 H22 1_555 1_555
C17 C16 1_555 1_555
C18 C17 1_555 1_555
H23 C18 1_555 1_555
C19 C18 1_555 1_555
H24 C19 1_555 1_555
C20 N2 1_555 1_555
C21 O6 1_555 1_555
C22 C17 1_555 1_555
C23 Sn2 1_555 1_555
H25 C23 1_555 1_555
H26 C23 1_555 1_555
C24 C23 1_555 1_555
H27 C24 1_555 1_555
H28 C24 1_555 1_555
C25 C24 1_555 1_555
H29 C25 1_555 1_555
H30 C25 1_555 1_555
C26 C25 1_555 1_555
H31 C26 1_555 1_555
H32 C26 1_555 1_555
H33 C26 1_555 1_555
C27 Sn2 1_555 1_555
H34 C27 1_555 1_555
H35 C27 1_555 1_555
C28 C27 1_555 1_555
H36 C28 1_555 1_555
H37 C28 1_555 1_555
C29 C28 1_555 1_555
H38 C29 1_555 1_555
H39 C29 1_555 1_555
C30 C29 1_555 1_555
H40 C30 1_555 1_555
H41 C30 1_555 1_555
H42 C30 1_555 1_555
Sn3 O2 1_555 1_555
N3 C31 1_555 1_555
O9 C36 1_555 1_555
O10 C36 1_555 1_555
O11 Sn1 1_555 1_555
O12 Sn1 1_555 1_555
C31 H43 1_555 1_555
C32 C31 1_555 1_555
C33 C32 1_555 1_555
H44 C33 1_555 1_555
C34 C33 1_555 1_555
H45 C34 1_555 1_555
C35 N3 1_555 1_555
C36 C35 1_555 1_555
C37 O11 1_555 1_555
C38 Sn3 1_555 1_555
H46 C38 1_555 1_555
H47 C38 1_555 1_555
C39 C38 1_555 1_555
H48 C39 1_555 1_555
H49 C39 1_555 1_555
C40 C39 1_555 1_555
H50 C40 1_555 1_555
H51 C40 1_555 1_555
C41 C40 1_555 1_555
H52 C41 1_555 1_555
H53 C41 1_555 1_555
H54 C41 1_555 1_555
C42 Sn3 1_555 1_555
H55 C42 1_555 1_555
H56 C42 1_555 1_555
C43 C42 1_555 1_555
H57 C43 1_555 1_555
H58 C43 1_555 1_555
C44 C43 1_555 1_555
H59 C44 1_555 1_555
H60 C44 1_555 1_555
C45 C44 1_555 1_555
H61 C45 1_555 1_555
H62 C45 1_555 1_555
H63 C45 1_555 1_555
O13 H64 1_555 1_555
C46 O13 1_555 1_555
H65 C46 1_555 1_555
H66 C46 1_555 1_555
H67 C46 1_555 1_555
O14 H68 1_555 1_555
C47 O14 1_555 1_555
H69 C47 1_555 1_555
H70 C47 1_555 1_555
H71 C47 1_555 1_555
O15 H72 1_555 1_555
C48 O15 1_555 1_555
H73 C48 1_555 1_555
H74 C48 1_555 1_555
H75 C48 1_555 1_555
Sn2C N2 1_555 1_555
Sn2B O10 1_555 1_555
N2C Sn2 1_555 1_555
O5C Sn2 1_555 1_555
O7B Sn3 1_555 1_555
O8B Sn3 1_555 1_555
Sn3B O7 1_555 1_555
Sn3A N3 1_555 1_555
N3A Sn3 1_555 1_555
O9A Sn3 1_555 1_555
O10B Sn2 1_555 1_555
O4 Sn2 1_555 1_555
C4 C5 1_555 1_555
C5 C6 1_555 1_555
O5 Sn2C 1_555 1_555
O8 Sn3B 1_555 1_555
C19 C20 1_555 1_555
C20 C21 1_555 1_555
O9 Sn3A 1_555 1_555
O12 C37 1_555 1_555
C32 C37 1_555 1_555
C34 C35 1_555 1_555

#END
