
#######################################################################
#
#                 Cambridge Crystallographic Data Centre
#                                CCDC 
#
#######################################################################
#
# If this CIF has been generated from an entry in the Cambridge 
# Structural Database, then it will include bibliographic, chemical, 
# crystal, experimental, refinement or atomic coordinate data resulting 
# from the CCDC's data processing and validation procedures.
#
#######################################################################

data_FIVYEP
_symmetry_cell_setting           monoclinic
_symmetry_space_group_name_H-M   'C 2/m'
_symmetry_Int_Tables_number      12
_space_group_name_Hall           '-C 2y'
loop_
_symmetry_equiv_pos_site_id
_symmetry_equiv_pos_as_xyz
1 x,y,z
2 1/2+x,1/2+y,z
3 -x,y,-z
4 1/2-x,1/2+y,-z
5 -x,-y,-z
6 1/2-x,1/2-y,-z
7 x,-y,z
8 1/2+x,1/2-y,z
_cell_length_a                   20.437(3)
_cell_length_b                   12.841(4)
_cell_length_c                   14.614(5)
_cell_angle_alpha                90
_cell_angle_beta                 94.52(6)
_cell_angle_gamma                90
_cell_volume                     3823.25
loop_
_atom_site_label
_atom_site_type_symbol
_atom_site_fract_x
_atom_site_fract_y
_atom_site_fract_z
O5 O 0.0661 0.1246 -0.0080
H1 H 0.0985 0.1004 -0.0526
H2 H 0.0471 0.0619 -0.0114
O6 O 0.0391 0.3630 -0.0631
H9 H 0.008(2) 0.368(14) -0.114(5)
H10 H 0.0799 0.3982 -0.1113
O8 O 0.1078(11) 0.372(4) 0.247(4)
H5 H 0.1079 0.4308 0.2976
H6 H 0.1397 0.4162 0.2138
O9 O 0.120(3) 0.5000 0.047(5)
H4 H 0.0893 0.4634 0.0121
H4F H 0.0893 0.5366 0.0121
O10 O 0.1110(3) 0.1563(7) 0.1686(5)
H3 H 0.1067 0.0821 0.1787
H11 H 0.138(10) 0.143(3) 0.121(11)
K1C K -0.43872(16) -0.5000 -0.5910(2)
K1C_2 K -0.43872(16) 0.5000 -0.5910(2)
C1 C -0.2840(4) -0.2317(7) 0.0139(6)
C2 C -0.2166(5) -0.1690(8) -0.3716(7)
C3 C -0.2879(5) -0.1472(8) -0.4094(7)
C4 C 0.0860(5) -0.1405(10) -0.3529(8)
C5 C 0.0448(5) -0.1778(9) -0.2761(8)
O1 O -0.0149(4) -0.1617(10) -0.2827(8)
O2 O 0.0589(5) -0.1163(13) -0.4283(8)
K1 K -0.06128(16) 0.0000 -0.4090(2)
Mg1 Mg -0.0781(3) -0.2909(5) -0.4332(5)
O3 O -0.3012(4) -0.1258(9) -0.4911(6)
O4 O -0.1701(4) -0.1332(7) -0.4109(6)
O7 O 0.0398(8) -0.3924(14) -0.4010(19)
K2 K -0.21228(19) 0.0000 -0.5650(2)
H7 H 0.024(6) -0.420(12) -0.350(6)
H8 H 0.082(4) -0.370(18) -0.390(10)
U1 U -0.305290(13) -0.25111(2) -0.210960(19)
O11 O -0.3735(3) -0.0875(6) -0.1902(6)
O12 O -0.3274(3) -0.2161(6) -0.0498(5)
O13 O -0.2899(4) -0.2202(7) 0.0979(5)
O14 O -0.2388(4) -0.4132(5) -0.2412(5)
C6 C -0.3119(6) -0.5000 -0.1487(9)
O15 O -0.2434(3) -0.0868(5) -0.1695(6)
O16 O -0.2127(4) -0.2249(7) -0.2999(5)
C7 C -0.3460(6) 0.0000 -0.1862(9)
O17 O 0.0773(4) -0.2239(7) -0.2104(6)
C8 C -0.2708(7) 0.0000 -0.1738(9)
O18 O -0.3286(4) -0.1544(7) -0.3479(6)
C9 C -0.2581(6) -0.5000 -0.2159(9)
O19 O -0.3321(4) -0.4129(6) -0.1247(5)
O20 O 0.1474(4) -0.1387(7) -0.3301(5)
C1E C -0.2160(4) -0.2683(7) -0.0139(6)
O12E O -0.1726(3) -0.2839(6) 0.0498(5)
O13E O -0.2101(4) -0.2798(7) -0.0979(5)
O11F O -0.3735(3) 0.0875(6) -0.1902(6)
O15F O -0.2434(3) 0.0868(5) -0.1695(6)
O14F O -0.2388(4) -0.5868(5) -0.2412(5)
O19F O -0.3321(4) -0.5871(6) -0.1247(5)
C4F C 0.0860(5) 0.1405(10) -0.3529(8)
C5F C 0.0448(5) 0.1778(9) -0.2761(8)
O1F O -0.0149(4) 0.1617(10) -0.2827(8)
O2F O 0.0589(5) 0.1163(13) -0.4283(8)
O17F O 0.0773(4) 0.2239(7) -0.2104(6)
O20F O 0.1474(4) 0.1387(7) -0.3301(5)
C2F C -0.2166(5) 0.1690(8) -0.3716(7)
C3F C -0.2879(5) 0.1472(8) -0.4094(7)
O3F O -0.3012(4) 0.1258(9) -0.4911(6)
O4F O -0.1701(4) 0.1332(7) -0.4109(6)
O16F O -0.2127(4) 0.2249(7) -0.2999(5)
O18F O -0.3286(4) 0.1544(7) -0.3479(6)
Mg1F Mg -0.0781(3) 0.2909(5) -0.4332(5)
U1F U -0.305290(13) 0.25111(2) -0.210960(19)
O7F O 0.0398(8) 0.3924(14) -0.4010(19)
H7F H 0.024(6) 0.420(12) -0.350(6)
H8F H 0.082(4) 0.370(18) -0.390(10)
K1B K 0.06128(16) 0.0000 -0.5910(2)
O2B O -0.0589(5) -0.1163(13) -0.5717(8)
O2D O -0.0589(5) 0.1163(13) -0.5717(8)
O20B O -0.1474(4) -0.1387(7) -0.6699(5)
O20D O -0.1474(4) 0.1387(7) -0.6699(5)
O17G O -0.4227(4) -0.2761(7) -0.2104(6)
O20G O -0.3526(4) -0.3613(7) -0.3301(5)
U1E U -0.194710(13) -0.24889(2) 0.210960(19)
U1G U 0.194710(13) -0.24889(2) -0.210960(19)
K2B K 0.21228(19) 0.0000 -0.4350(2)
U1F_2 U -0.305290(13) -0.74889(2) -0.210960(19)
U1A U 0.194710(13) 0.24889(2) -0.210960(19)
O12F O -0.3274(3) 0.2161(6) -0.0498(5)
O13C O -0.2101(4) 0.2798(7) -0.0979(5)
O14F_2 O -0.2388(4) 0.4132(5) -0.2412(5)
O17A O -0.4227(4) 0.2761(7) -0.2104(6)
O19F_2 O -0.3321(4) 0.4129(6) -0.1247(5)
O20A O -0.3526(4) 0.3613(7) -0.3301(5)
O1B O 0.0149(4) -0.1617(10) -0.7173(8)
O1D O 0.0149(4) 0.1617(10) -0.7173(8)
Mg1B Mg 0.0781(3) -0.2909(5) -0.5668(5)
Mg1D Mg 0.0781(3) 0.2909(5) -0.5668(5)
O4B O 0.1701(4) -0.1332(7) -0.5891(6)
O4D O 0.1701(4) 0.1332(7) -0.5891(6)
C4B C -0.0860(5) -0.1405(10) -0.6471(8)
C4D C -0.0860(5) 0.1405(10) -0.6471(8)
U1E_2 U -0.194710(13) -0.24889(2) -0.789040(19)
U1C U -0.194710(13) 0.24889(2) -0.789040(19)
C5G C -0.4552(5) -0.3222(9) -0.2761(8)
C4G C -0.4140(5) -0.3595(10) -0.3529(8)
K2C K -0.28772(19) -0.5000 -0.4350(2)
O11E O -0.1265(3) -0.4125(6) 0.1902(6)
O14E O -0.2612(4) -0.0868(5) 0.2412(5)
O15E O -0.2566(3) -0.4132(5) 0.1695(6)
O16E O -0.2873(4) -0.2751(7) 0.2999(5)
O17B O -0.0773(4) -0.2239(7) 0.2104(6)
O18E O -0.1714(4) -0.3456(7) 0.3479(6)
O19E O -0.1679(4) -0.0871(6) 0.1247(5)
O20B_2 O -0.1474(4) -0.1387(7) 0.3301(5)
O11G O 0.1265(3) -0.4125(6) -0.1902(6)
O12G O 0.1726(3) -0.2839(6) -0.0498(5)
O13B O 0.2899(4) -0.2202(7) -0.0979(5)
O14G O 0.2612(4) -0.0868(5) -0.2412(5)
O15G O 0.2566(3) -0.4132(5) -0.1695(6)
O16G O 0.2873(4) -0.2751(7) -0.2999(5)
O18G O 0.1714(4) -0.3456(7) -0.3479(6)
O19G O 0.1679(4) -0.0871(6) -0.1247(5)
O3B O 0.3012(4) -0.1258(9) -0.5089(6)
O3D O 0.3012(4) 0.1258(9) -0.5089(6)
O11F_2 O -0.3735(3) -0.9125(6) -0.1902(6)
O12F_2 O -0.3274(3) -0.7839(6) -0.0498(5)
O13C_2 O -0.2101(4) -0.7202(7) -0.0979(5)
O15F_2 O -0.2434(3) -0.9132(5) -0.1695(6)
O16F_2 O -0.2127(4) -0.7751(7) -0.2999(5)
O17A_2 O -0.4227(4) -0.7239(7) -0.2104(6)
O18F_2 O -0.3286(4) -0.8456(7) -0.3479(6)
O20A_2 O -0.3526(4) -0.6387(7) -0.3301(5)
O11A O 0.1265(3) 0.4125(6) -0.1902(6)
O12A O 0.1726(3) 0.2839(6) -0.0498(5)
O13D O 0.2899(4) 0.2202(7) -0.0979(5)
O14A O 0.2612(4) 0.0868(5) -0.2412(5)
O15A O 0.2566(3) 0.4132(5) -0.1695(6)
O16A O 0.2873(4) 0.2751(7) -0.2999(5)
O18A O 0.1714(4) 0.3456(7) -0.3479(6)
O19A O 0.1679(4) 0.0871(6) -0.1247(5)
C1F C -0.2840(4) 0.2317(7) 0.0139(6)
C1C C -0.2160(4) 0.2683(7) -0.0139(6)
C9_2 C -0.2581(6) 0.5000 -0.2159(9)
C5A C -0.4552(5) 0.3222(9) -0.2761(8)
C6_2 C -0.3119(6) 0.5000 -0.1487(9)
C4A C -0.4140(5) 0.3595(10) -0.3529(8)
K2C_2 K -0.28772(19) 0.5000 -0.4350(2)
C5B C -0.0448(5) -0.1778(9) -0.7239(8)
C5D C -0.0448(5) 0.1778(9) -0.7239(8)
O7B O -0.0398(8) -0.3924(14) -0.5990(19)
O7D O -0.0398(8) 0.3924(14) -0.5990(19)
C2B C 0.2166(5) -0.1690(8) -0.6284(7)
C2D C 0.2166(5) 0.1690(8) -0.6284(7)
O11E_2 O -0.1265(3) -0.4125(6) -0.8098(6)
O12E_2 O -0.1726(3) -0.2839(6) -0.9502(5)
O13_2 O -0.2899(4) -0.2202(7) -0.9021(5)
O14E_2 O -0.2612(4) -0.0868(5) -0.7588(5)
O15E_2 O -0.2566(3) -0.4132(5) -0.8305(6)
O16E_2 O -0.2873(4) -0.2751(7) -0.7001(5)
O17B_2 O -0.0773(4) -0.2239(7) -0.7896(6)
O18E_2 O -0.1714(4) -0.3456(7) -0.6521(6)
O19E_2 O -0.1679(4) -0.0871(6) -0.8753(5)
O11C O -0.1265(3) 0.4125(6) -0.8098(6)
O12C O -0.1726(3) 0.2839(6) -0.9502(5)
O13F O -0.2899(4) 0.2202(7) -0.9021(5)
O14C O -0.2612(4) 0.0868(5) -0.7588(5)
O15C O -0.2566(3) 0.4132(5) -0.8305(6)
O16C O -0.2873(4) 0.2751(7) -0.7001(5)
O17D O -0.0773(4) 0.2239(7) -0.7896(6)
O18C O -0.1714(4) 0.3456(7) -0.6521(6)
O19C O -0.1679(4) 0.0871(6) -0.8753(5)
O1G O -0.5149(4) -0.3383(10) -0.2827(8)
O2G O -0.4411(5) -0.3837(13) -0.4283(8)
O3C O -0.1988(4) -0.6258(9) -0.5089(6)
O3E O -0.1988(4) -0.3742(9) -0.5089(6)
O4C O -0.3299(4) -0.6332(7) -0.5891(6)
O4E O -0.3299(4) -0.3668(7) -0.5891(6)
C7C C -0.1540(6) -0.5000 0.1862(9)
C9C C -0.2419(6) 0.0000 0.2159(9)
C8C C -0.2292(7) -0.5000 0.1738(9)
C2E C -0.2834(5) -0.3310(8) 0.3716(7)
C5B_2 C -0.0448(5) -0.1778(9) 0.2761(8)
C3E C -0.2121(5) -0.3528(8) 0.4094(7)
C6C C -0.1881(6) 0.0000 0.1487(9)
C4B_2 C -0.0860(5) -0.1405(10) 0.3529(8)
K2_2 K -0.21228(19) 0.0000 0.4350(2)
C7A C 0.1540(6) -0.5000 -0.1862(9)
C1G C 0.2160(4) -0.2683(7) 0.0139(6)
C1B C 0.2840(4) -0.2317(7) -0.0139(6)
C9A C 0.2419(6) 0.0000 -0.2159(9)
C8A C 0.2292(7) -0.5000 -0.1738(9)
C2G C 0.2834(5) -0.3310(8) -0.3716(7)
C3G C 0.2121(5) -0.3528(8) -0.4094(7)
C6A C 0.1881(6) 0.0000 -0.1487(9)
C3B C 0.2879(5) -0.1472(8) -0.5906(7)
C3D C 0.2879(5) 0.1472(8) -0.5906(7)
C7_2 C -0.3460(6) -1.0000 -0.1862(9)
C1F_2 C -0.2840(4) -0.7683(7) 0.0139(6)
C1C_2 C -0.2160(4) -0.7317(7) -0.0139(6)
C8_2 C -0.2708(7) -1.0000 -0.1738(9)
C2F_2 C -0.2166(5) -0.8310(8) -0.3716(7)
C5A_2 C -0.4552(5) -0.6778(9) -0.2761(8)
C3F_2 C -0.2879(5) -0.8528(8) -0.4094(7)
C4A_2 C -0.4140(5) -0.6405(10) -0.3529(8)
C7A_2 C 0.1540(6) 0.5000 -0.1862(9)
C1A C 0.2160(4) 0.2683(7) 0.0139(6)
C1D C 0.2840(4) 0.2317(7) -0.0139(6)
C8A_2 C 0.2292(7) 0.5000 -0.1738(9)
C2A C 0.2834(5) 0.3310(8) -0.3716(7)
C3A C 0.2121(5) 0.3528(8) -0.4094(7)
O13F_2 O -0.2899(4) 0.2202(7) 0.0979(5)
O12C_2 O -0.1726(3) 0.2839(6) 0.0498(5)
O14_2 O -0.2388(4) 0.5868(5) -0.2412(5)
O1A O -0.5149(4) 0.3383(10) -0.2827(8)
O19_2 O -0.3321(4) 0.5871(6) -0.1247(5)
O2A O -0.4411(5) 0.3837(13) -0.4283(8)
O3C_2 O -0.1988(4) 0.3742(9) -0.5089(6)
O3E_2 O -0.1988(4) 0.6258(9) -0.5089(6)
O4C_2 O -0.3299(4) 0.3668(7) -0.5891(6)
O4E_2 O -0.3299(4) 0.6332(7) -0.5891(6)
O20G_2 O -0.3526(4) 0.6387(7) -0.3301(5)
loop_
_geom_bond_atom_site_label_1
_geom_bond_atom_site_label_2
_geom_bond_site_symmetry_1
_geom_bond_site_symmetry_2
C1 O12 1_555 1_555
C2 C3 1_555 1_555
C3 O3 1_555 1_555
C4 C5 1_555 1_555
C5 O1 1_555 1_555
O1 K1 1_555 1_555
O2 C4 1_555 1_555
K1 O2 1_555 1_555
Mg1 O4 1_555 1_555
O3 K2 1_555 1_555
O4 C2 1_555 1_555
O5 H1 1_555 1_555
O6 H9 1_555 1_555
O7 Mg1 1_555 1_555
O8 H5 1_555 1_555
O9 H4 1_555 1_555
K2 O4 1_555 1_555
O10 H3 1_555 1_555
H2 O5 1_555 1_555
H6 O8 1_555 1_555
H7 O7 1_555 1_555
H8 O7 1_555 1_555
H10 O6 1_555 1_555
H11 O10 1_555 1_555
U1 O11 1_555 1_555
O11 C7 1_555 1_555
O12 U1 1_555 1_555
O13 C1 1_555 1_555
O14 U1 1_555 1_555
C6 C9 1_555 1_555
O15 U1 1_555 1_555
O16 C2 1_555 1_555
C7 C8 1_555 1_555
O17 C5 1_555 1_555
C8 O15 1_555 1_555
O18 C3 1_555 1_555
C9 O14 1_555 1_555
O19 U1 1_555 1_555
O20 C4 1_555 1_555
C1E C1 1_555 1_555
O12E C1E 1_555 1_555
O13E U1 1_555 1_555
H4F O9 1_555 1_555
O11F C7 1_555 1_555
O15F C8 1_555 1_555
O14F C9 1_555 1_555
O19F C6 1_555 1_555
C4F C5F 1_555 1_555
C5F O1F 1_555 1_555
O1F K1 1_555 1_555
O2F K1 1_555 1_555
O17F C5F 1_555 1_555
O20F C4F 1_555 1_555
C2F C3F 1_555 1_555
C3F O3F 1_555 1_555
O3F K2 1_555 1_555
O4F K1 1_555 1_555
O16F C2F 1_555 1_555
O18F C3F 1_555 1_555
Mg1F O4F 1_555 1_555
U1F O11F 1_555 1_555
O7F Mg1F 1_555 1_555
H7F O7F 1_555 1_555
H8F O7F 1_555 1_555
K1B O2 1_555 1_555
O2B K1 1_555 1_555
O2D K1 1_555 1_555
O20B K2 1_555 1_555
O20D K2 1_555 1_555
O17G U1 1_555 1_555
O20G U1 1_555 1_555
U1E O13 1_555 1_555
U1G O17 1_555 1_555
K2B O20 1_555 1_555
U1F_2 O14F 1_555 1_555
U1A O17F 1_555 1_555
O12F U1F 1_555 1_555
O13C U1F 1_555 1_555
O14F_2 U1F 1_555 1_555
O17A U1F 1_555 1_555
O19F_2 U1F 1_555 1_555
O20A U1F 1_555 1_555
O1B K1B 1_555 1_555
O1D K1B 1_555 1_555
Mg1B O4B 1_555 1_555
Mg1D O4D 1_555 1_555
O4B K1B 1_555 1_555
O4D K1B 1_555 1_555
C4B O2B 1_555 1_555
C4D O2D 1_555 1_555
U1E_2 O20B 1_555 1_555
U1C O20D 1_555 1_555
C5G O17G 1_555 1_555
C4G O20G 1_555 1_555
K2C O20G 1_555 1_555
O11E U1E 1_555 1_555
O14E U1E 1_555 1_555
O15E U1E 1_555 1_555
O16E U1E 1_555 1_555
O17B U1E 1_555 1_555
O18E U1E 1_555 1_555
O19E U1E 1_555 1_555
O20B_2 U1E 1_555 1_555
O11G U1G 1_555 1_555
O12G U1G 1_555 1_555
O13B U1G 1_555 1_555
O14G U1G 1_555 1_555
O15G U1G 1_555 1_555
O16G U1G 1_555 1_555
O18G U1G 1_555 1_555
O19G U1G 1_555 1_555
O3B K2B 1_555 1_555
O3D K2B 1_555 1_555
O11F_2 U1F_2 1_555 1_555
O12F_2 U1F_2 1_555 1_555
O13C_2 U1F_2 1_555 1_555
O15F_2 U1F_2 1_555 1_555
O16F_2 U1F_2 1_555 1_555
O17A_2 U1F_2 1_555 1_555
O18F_2 U1F_2 1_555 1_555
O20A_2 U1F_2 1_555 1_555
O11A U1A 1_555 1_555
O12A U1A 1_555 1_555
O13D U1A 1_555 1_555
O14A U1A 1_555 1_555
O15A U1A 1_555 1_555
O16A U1A 1_555 1_555
O18A U1A 1_555 1_555
O19A U1A 1_555 1_555
C1F O12F 1_555 1_555
C1C O13C 1_555 1_555
C9_2 O14F_2 1_555 1_555
C5A O17A 1_555 1_555
C6_2 O19F_2 1_555 1_555
C4A O20A 1_555 1_555
K2C_2 O20A 1_555 1_555
C5B O1B 1_555 1_555
C5D O1D 1_555 1_555
O7B Mg1B 1_555 1_555
O7D Mg1D 1_555 1_555
C2B O4B 1_555 1_555
C2D O4D 1_555 1_555
O11E_2 U1E_2 1_555 1_555
O12E_2 U1E_2 1_555 1_555
O13_2 U1E_2 1_555 1_555
O14E_2 U1E_2 1_555 1_555
O15E_2 U1E_2 1_555 1_555
O16E_2 U1E_2 1_555 1_555
O17B_2 U1E_2 1_555 1_555
O18E_2 U1E_2 1_555 1_555
O19E_2 U1E_2 1_555 1_555
O11C U1C 1_555 1_555
O12C U1C 1_555 1_555
O13F U1C 1_555 1_555
O14C U1C 1_555 1_555
O15C U1C 1_555 1_555
O16C U1C 1_555 1_555
O17D U1C 1_555 1_555
O18C U1C 1_555 1_555
O19C U1C 1_555 1_555
O1G C5G 1_555 1_555
O2G C4G 1_555 1_555
O3C K2C 1_555 1_555
O3E K2C 1_555 1_555
O4C K2C 1_555 1_555
O4E K2C 1_555 1_555
C7C O11E 1_555 1_555
C9C O14E 1_555 1_555
C8C O15E 1_555 1_555
C2E O16E 1_555 1_555
C5B_2 O17B 1_555 1_555
C3E O18E 1_555 1_555
C6C O19E 1_555 1_555
C4B_2 O20B_2 1_555 1_555
K2_2 O20B_2 1_555 1_555
C7A O11G 1_555 1_555
C1G O12G 1_555 1_555
C1B O13B 1_555 1_555
C9A O14G 1_555 1_555
C8A O15G 1_555 1_555
C2G O16G 1_555 1_555
C3G O18G 1_555 1_555
C6A O19G 1_555 1_555
C3B O3B 1_555 1_555
C3D O3D 1_555 1_555
C7_2 O11F_2 1_555 1_555
C1F_2 O12F_2 1_555 1_555
C1C_2 O13C_2 1_555 1_555
C8_2 O15F_2 1_555 1_555
C2F_2 O16F_2 1_555 1_555
C5A_2 O17A_2 1_555 1_555
C3F_2 O18F_2 1_555 1_555
C4A_2 O20A_2 1_555 1_555
C7A_2 O11A 1_555 1_555
C1A O12A 1_555 1_555
C1D O13D 1_555 1_555
C8A_2 O15A 1_555 1_555
C2A O16A 1_555 1_555
C3A O18A 1_555 1_555
O13F_2 C1F 1_555 1_555
O12C_2 C1C 1_555 1_555
O14_2 C9_2 1_555 1_555
O1A C5A 1_555 1_555
O19_2 C6_2 1_555 1_555
O2A C4A 1_555 1_555
O3C_2 K2C_2 1_555 1_555
O3E_2 K2C_2 1_555 1_555
O4C_2 K2C_2 1_555 1_555
O4E_2 K2C_2 1_555 1_555
O20G_2 K2C_2 1_555 1_555
K1 O4 1_555 1_555
K2 O4F 1_555 1_555
U1 O16 1_555 1_555
U1 O18 1_555 1_555
C6 O19 1_555 1_555
O20 U1G 1_555 1_555
C1E O13E 1_555 1_555
O12E U1E 1_555 1_555
O15F U1F 1_555 1_555
O19F U1F_2 1_555 1_555
C4F O2F 1_555 1_555
O2F K1B 1_555 1_555
O20F K2B 1_555 1_555
O20F U1A 1_555 1_555
C2F O4F 1_555 1_555
O16F U1F 1_555 1_555
O18F U1F 1_555 1_555
K1B O2B 1_555 1_555
K1B O2D 1_555 1_555
O20B C4B 1_555 1_555
O20D C4D 1_555 1_555
K2B O4B 1_555 1_555
K2B O4D 1_555 1_555
C4B C5B 1_555 1_555
C4D C5D 1_555 1_555
C5G C4G 1_555 1_555
K2C O20A_2 1_555 1_555
O14A C9A 1_555 1_555
O19A C6A 1_555 1_555
C1F C1C 1_555 1_555
C9_2 C6_2 1_555 1_555
C5A C4A 1_555 1_555

#END
