
#######################################################################
#
#                 Cambridge Crystallographic Data Centre
#                                CCDC 
#
#######################################################################
#
# If this CIF has been generated from an entry in the Cambridge 
# Structural Database, then it will include bibliographic, chemical, 
# crystal, experimental, refinement or atomic coordinate data resulting 
# from the CCDC's data processing and validation procedures.
#
#######################################################################

data_FIWBAO
_symmetry_cell_setting           triclinic
_symmetry_space_group_name_H-M   'P -1'
_symmetry_Int_Tables_number      2
_space_group_name_Hall           '-P 1'
loop_
_symmetry_equiv_pos_site_id
_symmetry_equiv_pos_as_xyz
1 x,y,z
2 -x,-y,-z
_cell_length_a                   7.904(5)
_cell_length_b                   8.899(6)
_cell_length_c                   9.335(7)
_cell_angle_alpha                108.26(4)
_cell_angle_beta                 112.63(3)
_cell_angle_gamma                91.41(3)
_cell_volume                     567.584
loop_
_atom_site_label
_atom_site_type_symbol
_atom_site_fract_x
_atom_site_fract_y
_atom_site_fract_z
Li1 Li 0.4472(3) 0.6233(2) 0.4892(3)
N1 N 0.59448(13) 0.58437(11) 0.70404(12)
C1 C 0.49778(18) 0.56225(15) 0.80393(16)
H1 H 0.5781 0.5111 0.8814
C2 C 0.4659(2) 0.71986(16) 0.91008(18)
H2 H 0.3828 0.7719 0.8369
H3 H 0.4041 0.6967 0.9769
C3 C 0.6480(2) 0.83313(16) 1.02436(17)
H4 H 0.6227 0.9400 1.0773
H5 H 0.7205 0.7919 1.1128
C4 C 0.75924(19) 0.84824(16) 0.92790(17)
H6 H 0.8851 0.9088 1.0059
H7 H 0.6983 0.9093 0.8552
C5 C 0.77594(17) 0.68274(15) 0.82182(16)
H8 H 0.8382 0.6250 0.8992
C6 C 0.90167(19) 0.70195(18) 0.73852(19)
H9 H 1.0232 0.7627 0.8228
H10 H 0.8460 0.7597 0.6626
H11 H 0.9172 0.5959 0.6763
C7 C 0.3142(2) 0.44993(17) 0.69851(18)
H12 H 0.2559 0.4351 0.7698
H13 H 0.3355 0.3460 0.6373
H14 H 0.2321 0.4959 0.6200
N2 N 0.31558(14) 0.82032(12) 0.43349(13)
C8 C 0.41197(17) 0.98801(14) 0.51236(16)
H15 H 0.4437 1.0232 0.6326
H16 H 0.3263 1.0569 0.4663
C9 C 0.2419(2) 0.76955(16) 0.25212(17)
H17 H 0.3452 0.7699 0.2187
H18 H 0.1615 0.8439 0.2142
H19 H 0.1699 0.6611 0.2024
C10 C 0.1593(2) 0.81009(18) 0.4807(2)
H20 H 0.2062 0.8477 0.6017
H21 H 0.0966 0.6985 0.4340
H22 H 0.0711 0.8773 0.4377
C8A C 0.58803(17) 1.01199(14) 0.48764(16)
N2A N 0.68442(14) 1.17968(12) 0.56651(13)
C9A C 0.7581(2) 1.23045(16) 0.74788(17)
H17A H 0.6548 1.2301 0.7813
H18A H 0.8385 1.1561 0.7858
H19A H 0.8301 1.3389 0.7976
C10A C 0.8407(2) 1.18991(18) 0.5193(2)
H20A H 0.7938 1.1523 0.3983
H21A H 0.9034 1.3015 0.5660
H22A H 0.9289 1.1227 0.5623
H15A H 0.5563 0.9768 0.3674
H16A H 0.6737 0.9431 0.5337
N1A N 0.40552(13) 0.41563(11) 0.29596(12)
C1A C 0.50222(18) 0.43775(15) 0.19607(16)
H1A H 0.4219 0.4889 0.1186
C2A C 0.5341(2) 0.28014(16) 0.08992(18)
H2A H 0.6172 0.2281 0.1631
H3A H 0.5959 0.3033 0.0231
C3A C 0.3520(2) 0.16687(16) -0.02436(17)
H4A H 0.3773 0.0600 -0.0773
H5A H 0.2795 0.2081 -0.1128
C4A C 0.24076(19) 0.15176(16) 0.07210(17)
H6A H 0.1149 0.0912 -0.0059
H7A H 0.3017 0.0907 0.1448
C5A C 0.22406(17) 0.31726(15) 0.17818(16)
H8A H 0.1618 0.3750 0.1008
C6A C 0.09833(19) 0.29805(18) 0.26148(19)
H9A H -0.0232 0.2373 0.1772
H10A H 0.1540 0.2403 0.3374
H11A H 0.0828 0.4041 0.3237
C7A C 0.6858(2) 0.55007(17) 0.30149(18)
H12A H 0.7441 0.5649 0.2302
H13A H 0.6645 0.6540 0.3627
H14A H 0.7679 0.5041 0.3800
Li1A Li 0.5528(3) 0.3767(2) 0.5108(3)
Li1A_2 Li 0.5528(3) 1.3767(2) 0.5108(3)
N2A_2 N 0.68442(14) 0.17968(12) 0.56651(13)
loop_
_geom_bond_atom_site_label_1
_geom_bond_atom_site_label_2
_geom_bond_site_symmetry_1
_geom_bond_site_symmetry_2
Li1 N1 1_555 1_555
N1 C1 1_555 1_555
C1 H1 1_555 1_555
C2 C1 1_555 1_555
H2 C2 1_555 1_555
H3 C2 1_555 1_555
C3 C2 1_555 1_555
H4 C3 1_555 1_555
H5 C3 1_555 1_555
C4 C3 1_555 1_555
H6 C4 1_555 1_555
H7 C4 1_555 1_555
C5 N1 1_555 1_555
H8 C5 1_555 1_555
C6 C5 1_555 1_555
H9 C6 1_555 1_555
H10 C6 1_555 1_555
H11 C6 1_555 1_555
C7 C1 1_555 1_555
H12 C7 1_555 1_555
H13 C7 1_555 1_555
H14 C7 1_555 1_555
N2 Li1 1_555 1_555
C8 N2 1_555 1_555
H15 C8 1_555 1_555
H16 C8 1_555 1_555
C9 N2 1_555 1_555
H17 C9 1_555 1_555
H18 C9 1_555 1_555
H19 C9 1_555 1_555
C10 N2 1_555 1_555
H20 C10 1_555 1_555
H21 C10 1_555 1_555
H22 C10 1_555 1_555
C8A C8 1_555 1_555
N2A C8A 1_555 1_555
C9A N2A 1_555 1_555
H17A C9A 1_555 1_555
H18A C9A 1_555 1_555
H19A C9A 1_555 1_555
C10A N2A 1_555 1_555
H20A C10A 1_555 1_555
H21A C10A 1_555 1_555
H22A C10A 1_555 1_555
H15A C8A 1_555 1_555
H16A C8A 1_555 1_555
N1A Li1 1_555 1_555
C1A N1A 1_555 1_555
H1A C1A 1_555 1_555
C2A C1A 1_555 1_555
H2A C2A 1_555 1_555
H3A C2A 1_555 1_555
C3A C2A 1_555 1_555
H4A C3A 1_555 1_555
H5A C3A 1_555 1_555
C4A C3A 1_555 1_555
H6A C4A 1_555 1_555
H7A C4A 1_555 1_555
C5A N1A 1_555 1_555
H8A C5A 1_555 1_555
C6A C5A 1_555 1_555
H9A C6A 1_555 1_555
H10A C6A 1_555 1_555
H11A C6A 1_555 1_555
C7A C1A 1_555 1_555
H12A C7A 1_555 1_555
H13A C7A 1_555 1_555
H14A C7A 1_555 1_555
Li1A N1 1_555 1_555
Li1A_2 N2A 1_555 1_555
N2A_2 Li1A 1_555 1_555
C4 C5 1_555 1_555
N1A Li1A 1_555 1_555
C4A C5A 1_555 1_555

#END
