
#######################################################################
#
#                 Cambridge Crystallographic Data Centre
#                                CCDC 
#
#######################################################################
#
# If this CIF has been generated from an entry in the Cambridge 
# Structural Database, then it will include bibliographic, chemical, 
# crystal, experimental, refinement or atomic coordinate data resulting 
# from the CCDC's data processing and validation procedures.
#
#######################################################################

data_FIWGUN
_symmetry_cell_setting           monoclinic
_symmetry_space_group_name_H-M   'P 21/c'
_symmetry_Int_Tables_number      14
_space_group_name_Hall           '-P 2ybc'
loop_
_symmetry_equiv_pos_site_id
_symmetry_equiv_pos_as_xyz
1 x,y,z
2 -x,1/2+y,1/2-z
3 -x,-y,-z
4 x,1/2-y,1/2+z
_cell_length_a                   12.193(1)
_cell_length_b                   17.562(2)
_cell_length_c                   21.840(3)
_cell_angle_alpha                90
_cell_angle_beta                 97.71(1)
_cell_angle_gamma                90
_cell_volume                     4634.4
loop_
_atom_site_label
_atom_site_type_symbol
_atom_site_fract_x
_atom_site_fract_y
_atom_site_fract_z
Sn1 Sn 0.31677(3) -0.50091(2) 0.26811(2)
S1 S 0.1117(2) -0.7222(2) 0.3442(1)
N1 N 0.0457(5) -0.6382(5) 0.4331(4)
O1 O 0.2966(3) -0.5798(2) 0.3436(2)
O2 O 0.4389(3) -0.6565(2) 0.3397(2)
O3 O 0.2274(4) -0.6524(3) 0.4391(2)
C1 C 0.3126(3) -0.5856(2) 0.1985(2)
C2 C 0.3637(3) -0.5722(2) 0.1463(2)
C3 C 0.3632(4) -0.6283(3) 0.1014(2)
C4 C 0.3117(4) -0.6977(2) 0.1086(2)
C5 C 0.2607(4) -0.7111(2) 0.1608(2)
C6 C 0.4710(2) -0.4607(2) 0.3116(2)
C7 C 0.2612(3) -0.6550(2) 0.2058(2)
C8 C 0.4789(4) -0.4231(3) 0.3681(2)
C9 C 0.5816(5) -0.3999(3) 0.3975(2)
C10 C 0.6765(3) -0.4143(3) 0.3705(3)
C11 C 0.6686(3) -0.4519(3) 0.3141(3)
C12 C 0.5659(3) -0.4751(3) 0.2847(2)
C13 C 0.1693(2) -0.4482(2) 0.2896(2)
C14 C 0.1596(3) -0.3693(2) 0.2888(2)
C15 C 0.0629(4) -0.3352(2) 0.3025(2)
C16 C -0.0241(3) -0.3800(3) 0.3169(2)
C17 C -0.0144(3) -0.4588(3) 0.3177(2)
C18 C 0.0823(3) -0.4929(2) 0.3040(2)
C19 C 0.3557(4) -0.6360(3) 0.3627(2)
C20 C 0.3244(5) -0.6784(4) 0.4172(3)
C21 C 0.1291(6) -0.6685(4) 0.4093(3)
C22 C 0.094(1) -0.5983(6) 0.4915(4)
C23 C -0.0668(6) -0.6505(7) 0.4075(5)
Sn2 Sn 0.41714(3) -0.24628(2) 0.14259(1)
S2 S 0.2044(2) -0.4535(1) 0.0044(1)
O4 O 0.2713(3) -0.3207(2) 0.1225(2)
O5 O 0.3240(3) -0.4071(2) 0.1944(2)
O6 O 0.0803(3) -0.3937(2) 0.0822(2)
N2 N 0.0187(4) -0.3738(3) -0.0149(2)
C24 C 0.3517(3) -0.1845(2) 0.0615(1)
C25 C 0.2916(3) -0.2230(2) 0.0125(2)
C26 C 0.2417(3) -0.1827(2) -0.0386(1)
C27 C 0.2521(3) -0.1040(2) -0.0407(1)
C28 C 0.3122(3) -0.0655(2) 0.0084(2)
C29 C 0.3621(3) -0.1057(2) 0.0595(1)
C30 C 0.5348(3) -0.3342(2) 0.1350(2)
C31 C 0.6335(3) -0.3362(2) 0.1750(2)
C32 C 0.7131(3) -0.3907(3) 0.1671(2)
C33 C 0.6940(4) -0.4432(2) 0.1193(2)
C34 C 0.5953(4) -0.4412(2) 0.0792(2)
C35 C 0.5157(3) -0.3867(2) 0.0871(2)
C36 C 0.3733(3) -0.2100(2) 0.2284(1)
C37 C 0.2907(4) -0.1556(3) 0.2290(2)
C38 C 0.2585(4) -0.1324(3) 0.2848(2)
C39 C 0.3090(5) -0.1635(3) 0.3400(2)
C40 C 0.3916(4) -0.2179(3) 0.3394(1)
C41 C 0.4238(3) -0.2412(2) 0.2837(2)
C42 C 0.2575(4) -0.3813(3) 0.1506(2)
C43 C 0.1539(5) -0.4260(3) 0.1315(3)
C44 C 0.0985(4) -0.4055(3) 0.0236(3)
C45 C -0.0759(6) -0.3354(5) 0.0054(4)
C46 C 0.0187(7) -0.3813(5) -0.0814(3)
H1 H 0.3981 -0.5258 0.1415
H2 H 0.3974 -0.6194 0.0664
H3 H 0.3114 -0.7352 0.0785
H4 H 0.2262 -0.7575 0.1657
H5 H 0.2270 -0.6639 0.2407
H6 H 0.4154 -0.4135 0.3861
H7 H 0.5868 -0.3748 0.4353
H8 H 0.7452 -0.3988 0.3902
H9 H 0.7321 -0.4615 0.2961
H10 H 0.5607 -0.5002 0.2469
H11 H 0.2179 -0.3394 0.2792
H12 H 0.0565 -0.2824 0.3019
H13 H -0.0888 -0.3572 0.3260
H14 H -0.0726 -0.4888 0.3273
H15 H 0.0888 -0.5457 0.3046
H16 H 0.3147 -0.7317 0.4060
H17 H 0.3853 -0.6752 0.4505
H18 H 0.0349 -0.5754 0.5104
H19 H 0.1441 -0.5595 0.4820
H20 H 0.1321 -0.6345 0.5195
H21 H -0.1146 -0.6236 0.4316
H22 H -0.0831 -0.7039 0.4080
H23 H -0.0784 -0.6322 0.3657
H24 H 0.2847 -0.2757 0.0138
H25 H 0.2015 -0.2085 -0.0715
H26 H 0.2187 -0.0770 -0.0748
H27 H 0.3191 -0.0128 0.0070
H28 H 0.4023 -0.0800 0.0923
H29 H 0.6463 -0.3011 0.2070
H30 H 0.7792 -0.3920 0.1939
H31 H 0.7473 -0.4796 0.1140
H32 H 0.5826 -0.4763 0.0472
H33 H 0.4496 -0.3854 0.0603
H34 H 0.2569 -0.1348 0.1921
H35 H 0.2032 -0.0960 0.2851
H36 H 0.2875 -0.1479 0.3773
H37 H 0.4254 -0.2387 0.3763
H38 H 0.4791 -0.2775 0.2833
H39 H 0.1744 -0.4766 0.1193
H40 H 0.1146 -0.4316 0.1670
H41 H -0.1234 -0.3164 -0.0299
H42 H -0.0505 -0.2937 0.0321
H43 H -0.1162 -0.3707 0.0275
H44 H -0.0443 -0.3551 -0.1028
H45 H 0.0150 -0.4342 -0.0925
H46 H 0.0853 -0.3595 -0.0928
Sn2A Sn 0.58286(3) -0.74628(2) 0.35741(1)
O2A O 0.5611(3) -0.1565(2) 0.1603(2)
loop_
_geom_bond_atom_site_label_1
_geom_bond_atom_site_label_2
_geom_bond_site_symmetry_1
_geom_bond_site_symmetry_2
Sn1 O1 1_555 1_555
S1 C21 1_555 1_555
N1 C21 1_555 1_555
O1 C19 1_555 1_555
O2 C19 1_555 1_555
O3 C20 1_555 1_555
C1 Sn1 1_555 1_555
C2 C1 1_555 1_555
C3 C2 1_555 1_555
C4 C3 1_555 1_555
C5 C4 1_555 1_555
C6 Sn1 1_555 1_555
C7 C1 1_555 1_555
C8 C6 1_555 1_555
C9 C8 1_555 1_555
C10 C9 1_555 1_555
C11 C10 1_555 1_555
C12 C6 1_555 1_555
C13 Sn1 1_555 1_555
C14 C13 1_555 1_555
C15 C14 1_555 1_555
C16 C15 1_555 1_555
C17 C16 1_555 1_555
C18 C13 1_555 1_555
C19 C20 1_555 1_555
C20 H16 1_555 1_555
C21 O3 1_555 1_555
C22 N1 1_555 1_555
C23 N1 1_555 1_555
Sn2 O4 1_555 1_555
S2 C44 1_555 1_555
O4 C42 1_555 1_555
O5 Sn1 1_555 1_555
O6 C43 1_555 1_555
N2 C44 1_555 1_555
C24 Sn2 1_555 1_555
C25 C24 1_555 1_555
C26 C25 1_555 1_555
C27 C26 1_555 1_555
C28 C27 1_555 1_555
C29 C24 1_555 1_555
C30 Sn2 1_555 1_555
C31 C30 1_555 1_555
C32 C31 1_555 1_555
C33 C32 1_555 1_555
C34 C33 1_555 1_555
C35 C30 1_555 1_555
C36 Sn2 1_555 1_555
C37 C36 1_555 1_555
C38 C37 1_555 1_555
C39 C38 1_555 1_555
C40 C39 1_555 1_555
C41 C36 1_555 1_555
C42 O5 1_555 1_555
C43 C42 1_555 1_555
C44 O6 1_555 1_555
C45 N2 1_555 1_555
C46 N2 1_555 1_555
H1 C2 1_555 1_555
H2 C3 1_555 1_555
H3 C4 1_555 1_555
H4 C5 1_555 1_555
H5 C7 1_555 1_555
H6 C8 1_555 1_555
H7 C9 1_555 1_555
H8 C10 1_555 1_555
H9 C11 1_555 1_555
H10 C12 1_555 1_555
H11 C14 1_555 1_555
H12 C15 1_555 1_555
H13 C16 1_555 1_555
H14 C17 1_555 1_555
H15 C18 1_555 1_555
H17 C20 1_555 1_555
H18 C22 1_555 1_555
H19 C22 1_555 1_555
H20 C22 1_555 1_555
H21 C23 1_555 1_555
H22 C23 1_555 1_555
H23 C23 1_555 1_555
H24 C25 1_555 1_555
H25 C26 1_555 1_555
H26 C27 1_555 1_555
H27 C28 1_555 1_555
H28 C29 1_555 1_555
H29 C31 1_555 1_555
H30 C32 1_555 1_555
H31 C33 1_555 1_555
H32 C34 1_555 1_555
H33 C35 1_555 1_555
H34 C37 1_555 1_555
H35 C38 1_555 1_555
H36 C39 1_555 1_555
H37 C40 1_555 1_555
H38 C41 1_555 1_555
H39 C43 1_555 1_555
H40 C43 1_555 1_555
H41 C45 1_555 1_555
H42 C45 1_555 1_555
H43 C45 1_555 1_555
H44 C46 1_555 1_555
H45 C46 1_555 1_555
H46 C46 1_555 1_555
Sn2A O2 1_555 1_555
O2A Sn2 1_555 1_555
C5 C7 1_555 1_555
C11 C12 1_555 1_555
C17 C18 1_555 1_555
C28 C29 1_555 1_555
C34 C35 1_555 1_555
C40 C41 1_555 1_555

#END
