
#######################################################################
#
#                 Cambridge Crystallographic Data Centre
#                                CCDC 
#
#######################################################################
#
# If this CIF has been generated from an entry in the Cambridge 
# Structural Database, then it will include bibliographic, chemical, 
# crystal, experimental, refinement or atomic coordinate data resulting 
# from the CCDC's data processing and validation procedures.
#
#######################################################################

data_FIWHIE
_symmetry_cell_setting           orthorhombic
_symmetry_space_group_name_H-M   'P 21 21 21'
_symmetry_Int_Tables_number      19
_space_group_name_Hall           'P 2ac 2ab'
loop_
_symmetry_equiv_pos_site_id
_symmetry_equiv_pos_as_xyz
1 x,y,z
2 1/2-x,-y,1/2+z
3 -x,1/2+y,1/2-z
4 1/2+x,1/2-y,-z
_cell_length_a                   7.2339(4)
_cell_length_b                   22.3320(14)
_cell_length_c                   23.4396(13)
_cell_angle_alpha                90
_cell_angle_beta                 90
_cell_angle_gamma                90
_cell_volume                     3786.61
loop_
_atom_site_label
_atom_site_type_symbol
_atom_site_fract_x
_atom_site_fract_y
_atom_site_fract_z
Cd1 Cd 0.79459(6) 0.486806(19) 0.187075(16)
Ba1 Ba 0.31748(5) 0.546007(15) 0.227610(14)
C1 C -0.1617(9) 0.4344(3) 0.6035(3)
C2 C -0.0846(9) 0.3971(3) 0.5552(3)
C3 C -0.1729(11) 0.3453(3) 0.5367(3)
H1 H -0.2801 0.3325 0.5548
C4 C -0.1028(11) 0.3128(3) 0.4916(3)
H2 H -0.1621 0.2780 0.4798
C5 C 0.0587(12) 0.3322(3) 0.4633(3)
C6 C 0.1453(11) 0.3834(3) 0.4814(3)
H3 H 0.2514 0.3967 0.4629
C7 C 0.0758(12) 0.4150(3) 0.5265(3)
H4 H 0.1369 0.4494 0.5385
C8 C 0.2400(10) 0.3229(3) 0.3795(3)
C9 C 0.1679(11) 0.3594(3) 0.3372(3)
H5 H 0.0417 0.3672 0.3357
C10 C 0.2856(10) 0.3841(3) 0.2975(3)
H6 H 0.2379 0.4086 0.2689
C11 C 0.4724(10) 0.3731(3) 0.2994(3)
C12 C 0.5418(12) 0.3350(4) 0.3397(3)
H7 H 0.6676 0.3265 0.3406
C13 C 0.4215(12) 0.3085(4) 0.3801(4)
H8 H 0.4668 0.2814 0.4068
C14 C 0.6024(9) 0.4064(3) 0.2608(3)
C15 C 0.8157(8) 0.5728(3) 0.2752(2)
C16 C 0.8407(8) 0.6045(3) 0.3309(2)
C17 C 0.9904(10) 0.5874(4) 0.3665(3)
H9 H 1.0685 0.5564 0.3555
C18 C 1.0194(12) 0.6166(4) 0.4172(3)
H10 H 1.1215 0.6067 0.4394
C19 C 0.9001(10) 0.6598(3) 0.4354(3)
C20 C 0.7506(11) 0.6754(3) 0.4026(3)
H11 H 0.6687 0.7046 0.4152
C21 C 0.7218(10) 0.6472(3) 0.3502(3)
H12 H 0.6199 0.6577 0.3281
C22 C 1.0523(10) 0.6647(3) 0.5241(2)
C23 C 1.2350(11) 0.6808(3) 0.5206(3)
H13 H 1.2726 0.7102 0.4951
C24 C 1.3638(10) 0.6525(3) 0.5558(3)
H14 H 1.4885 0.6623 0.5534
C25 C 1.3032(8) 0.6090(2) 0.5946(2)
C26 C 1.1154(9) 0.5960(3) 0.5994(3)
H15 H 1.0740 0.5688 0.6267
C27 C 0.9892(9) 0.6244(3) 0.5626(3)
H16 H 0.8637 0.6156 0.5647
C28 C 1.4416(9) 0.5753(3) 0.6295(2)
C29 C 0.1577(13) 0.6930(3) 0.2704(4)
H17 H 0.0602 0.6823 0.2466
C30 C 0.292(2) 0.7626(5) 0.3364(5)
H18 H 0.3886 0.7332 0.3360
H19 H 0.2459 0.7671 0.3746
H20 H 0.3398 0.8003 0.3233
C31 C -0.0212(16) 0.7810(4) 0.2922(5)
H21 H -0.1076 0.7606 0.2680
H22 H 0.0129 0.8184 0.2750
H23 H -0.0770 0.7883 0.3287
O1 O -0.0506(7) 0.4657(2) 0.63147(18)
O2 O -0.3298(7) 0.4337(2) 0.6135(2)
O3 O 0.1185(9) 0.2967(2) 0.4200(2)
O4 O 0.7727(7) 0.3967(3) 0.2628(2)
O5 O 0.5363(6) 0.44608(19) 0.22794(17)
O6 O 0.9437(6) 0.5387(2) 0.25769(18)
O7 O 0.6679(7) 0.5793(3) 0.2484(2)
O8 O 0.9237(7) 0.6898(2) 0.48662(19)
O9 O 1.6106(6) 0.5839(2) 0.62230(19)
O10 O 1.3829(6) 0.5373(2) 0.66535(19)
O11 O 0.2939(10) 0.6589(3) 0.2732(3)
O12 O 0.4083(9) 0.5203(3) 0.3428(2)
H24 H 0.5159 0.5044 0.3548
H25 H 0.3213 0.5294 0.3635
N1 N 0.1448(11) 0.7437(3) 0.2997(3)
O13 O 0.1418(9) 0.6198(3) 0.1488(3)
C32 C 0.191(2) 0.6750(5) 0.1266(5)
H26 H 0.0974 0.6881 0.1003
H27 H 0.3069 0.6716 0.1071
H28 H 0.2015 0.7035 0.1570
Cd1A Cd -0.29459(6) 0.513194(19) 0.687075(16)
Cd1A_2 Cd 1.70541(6) 0.513194(19) 0.687075(16)
Ba1_2 Ba 1.31748(5) 0.546007(15) 0.227610(14)
Ba1A Ba 0.18252(5) 0.453993(15) 0.727610(14)
Ba1A_2 Ba 1.18252(5) 0.453993(15) 0.727610(14)
O1A O 0.5506(7) 0.5343(2) 0.13147(18)
O2A O 0.8298(7) 0.5663(2) 0.1135(2)
O6_2 O -0.0563(6) 0.5387(2) 0.25769(18)
O9A O 0.8894(6) 0.4161(2) 0.12230(19)
O10A O 0.1171(6) 0.4627(2) 0.16535(19)
O10A_2 O 1.1171(6) 0.4627(2) 0.16535(19)
O14 O 0.5639(10) 0.5029(3) 0.4223(3)
H29 H 0.6785 0.4879 0.4264
H30 H 0.4936 0.5102 0.4532
loop_
_geom_bond_atom_site_label_1
_geom_bond_atom_site_label_2
_geom_bond_site_symmetry_1
_geom_bond_site_symmetry_2
Cd1 O4 1_555 1_555
Ba1 O5 1_555 1_555
C1 C2 1_555 1_555
C2 C3 1_555 1_555
C3 H1 1_555 1_555
C4 C3 1_555 1_555
H2 C4 1_555 1_555
C5 C4 1_555 1_555
C6 C5 1_555 1_555
H3 C6 1_555 1_555
C7 C2 1_555 1_555
H4 C7 1_555 1_555
C8 C9 1_555 1_555
C9 H5 1_555 1_555
C10 C9 1_555 1_555
H6 C10 1_555 1_555
C11 C10 1_555 1_555
C12 C11 1_555 1_555
H7 C12 1_555 1_555
C13 C8 1_555 1_555
H8 C13 1_555 1_555
C14 C11 1_555 1_555
C15 C16 1_555 1_555
C16 C17 1_555 1_555
C17 H9 1_555 1_555
C18 C17 1_555 1_555
H10 C18 1_555 1_555
C19 C18 1_555 1_555
C20 C19 1_555 1_555
H11 C20 1_555 1_555
C21 C16 1_555 1_555
H12 C21 1_555 1_555
C22 C23 1_555 1_555
C23 H13 1_555 1_555
C24 C23 1_555 1_555
H14 C24 1_555 1_555
C25 C24 1_555 1_555
C26 C25 1_555 1_555
H15 C26 1_555 1_555
C27 C22 1_555 1_555
H16 C27 1_555 1_555
C28 C25 1_555 1_555
C29 H17 1_555 1_555
C30 H18 1_555 1_555
H19 C30 1_555 1_555
H20 C30 1_555 1_555
C31 H21 1_555 1_555
H22 C31 1_555 1_555
H23 C31 1_555 1_555
O1 C1 1_555 1_555
O2 C1 1_555 1_555
O3 C5 1_555 1_555
O4 C14 1_555 1_555
O5 Cd1 1_555 1_555
O6 Cd1 1_555 1_555
O7 Cd1 1_555 1_555
O8 C19 1_555 1_555
O9 C28 1_555 1_555
O10 C28 1_555 1_555
O11 Ba1 1_555 1_555
O12 Ba1 1_555 1_555
H24 O12 1_555 1_555
H25 O12 1_555 1_555
N1 C29 1_555 1_555
O13 Ba1 1_555 1_555
C32 O13 1_555 1_555
H26 C32 1_555 1_555
H27 C32 1_555 1_555
H28 C32 1_555 1_555
O14 H29 1_555 1_555
H30 O14 1_555 1_555
Cd1A O1 1_555 1_555
Cd1A_2 O9 1_555 1_555
Ba1_2 O6 1_555 1_555
Ba1A O1 1_555 1_555
Ba1A_2 O10 1_555 1_555
O1A Cd1 1_555 1_555
O2A Cd1 1_555 1_555
O6_2 Ba1 1_555 1_555
O9A Cd1 1_555 1_555
O10A Ba1 1_555 1_555
O10A_2 Cd1 1_555 1_555
Ba1 O7 1_555 1_555
Ba1 O1A 1_555 1_555
C6 C7 1_555 1_555
C8 O3 1_555 1_555
C12 C13 1_555 1_555
C14 O5 1_555 1_555
C15 O6 1_555 1_555
C15 O7 1_555 1_555
C20 C21 1_555 1_555
C22 O8 1_555 1_555
C26 C27 1_555 1_555
C29 O11 1_555 1_555
C30 N1 1_555 1_555
C31 N1 1_555 1_555
O2 Cd1A 1_555 1_555
O10 Cd1A_2 1_555 1_555
Ba1_2 O10A_2 1_555 1_555

#END
