
#######################################################################
#
#                 Cambridge Crystallographic Data Centre
#                                CCDC 
#
#######################################################################
#
# If this CIF has been generated from an entry in the Cambridge 
# Structural Database, then it will include bibliographic, chemical, 
# crystal, experimental, refinement or atomic coordinate data resulting 
# from the CCDC's data processing and validation procedures.
#
#######################################################################

data_FIWHAU
_symmetry_cell_setting           monoclinic
_symmetry_space_group_name_H-M   'C 2/c'
_symmetry_Int_Tables_number      15
_space_group_name_Hall           '-C 2yn'
loop_
_symmetry_equiv_pos_site_id
_symmetry_equiv_pos_as_xyz
1 x,y,z
2 1/2+x,1/2+y,z
3 -x,y,1/2-z
4 1/2-x,1/2+y,1/2-z
5 -x,-y,-z
6 1/2-x,1/2-y,-z
7 x,-y,1/2+z
8 1/2+x,1/2-y,1/2+z
_cell_length_a                   27.404(1)
_cell_length_b                   17.855(1)
_cell_length_c                   21.682(1)
_cell_angle_alpha                90
_cell_angle_beta                 98.11(1)
_cell_angle_gamma                90
_cell_volume                     10502.9
loop_
_atom_site_label
_atom_site_type_symbol
_atom_site_fract_x
_atom_site_fract_y
_atom_site_fract_z
Sn1 Sn 0.28172(2) 0.51092(3) 0.35946(2)
S1 S 0.44645(9) 0.6434(2) 0.4321(1)
O1 O 0.3443(2) 0.5877(3) 0.3838(2)
O2 O 0.3229(2) 0.6793(3) 0.3167(2)
O3 O 0.3903(3) 0.6766(4) 0.5048(5)
N1 N 0.4619(3) 0.6181(5) 0.5528(4)
C1 C 0.2996(2) 0.4799(3) 0.2713(2)
C2 C 0.3310(2) 0.4194(3) 0.2677(2)
C3 C 0.3421(2) 0.3959(3) 0.2101(3)
C4 C 0.3217(2) 0.4329(3) 0.1561(2)
C5 C 0.2903(2) 0.4934(3) 0.1597(2)
C6 C 0.2793(2) 0.5169(3) 0.2173(2)
C7 C 0.3132(2) 0.4450(2) 0.4376(2)
C8 C 0.3062(2) 0.3679(2) 0.4376(2)
C9 C 0.3287(2) 0.3250(2) 0.4871(3)
C10 C 0.3580(2) 0.3593(3) 0.5367(2)
C11 C 0.3650(2) 0.4364(3) 0.5367(2)
C12 C 0.3426(2) 0.4792(2) 0.4871(2)
C13 C 0.2286(2) 0.5948(3) 0.3719(3)
C14 C 0.2381(2) 0.6450(4) 0.4212(3)
C15 C 0.2026(3) 0.6972(4) 0.4318(3)
C16 C 0.1576(3) 0.6992(4) 0.3932(4)
C17 C 0.1481(2) 0.6490(4) 0.3440(4)
C18 C 0.1836(2) 0.5968(3) 0.3333(3)
C19 C 0.3513(2) 0.6506(4) 0.3606(3)
C20 C 0.3960(3) 0.6936(4) 0.3886(4)
C21 C 0.4275(4) 0.6467(6) 0.5069(4)
C22 C 0.5079(5) 0.5853(7) 0.5483(5)
C23 C 0.5493(4) 0.6157(9) 0.5962(5)
C24 C 0.5339(5) 0.6042(9) 0.6608(5)
C25 C 0.4852(4) 0.6460(9) 0.6611(5)
C26 C 0.4453(5) 0.6154(9) 0.6125(5)
Sn2 Sn 0.16895(2) 0.27017(3) 0.25851(2)
S2 S 0.13346(8) 0.3799(1) 0.46124(9)
O4 O 0.1560(2) 0.3462(3) 0.3337(2)
O5 O 0.2191(2) 0.4235(3) 0.3361(2)
O6 O 0.0636(3) 0.4458(5) 0.3866(4)
N2 N 0.0377(3) 0.3657(5) 0.4550(4)
C27 C 0.1073(1) 0.2082(2) 0.2819(2)
C28 C 0.1073(2) 0.1306(2) 0.2774(2)
C29 C 0.0698(2) 0.0892(2) 0.2980(3)
C30 C 0.0323(2) 0.1255(3) 0.3232(3)
C31 C 0.0323(2) 0.2031(3) 0.3277(3)
C32 C 0.0698(2) 0.2445(2) 0.3071(2)
C33 C 0.2377(2) 0.2315(3) 0.3032(2)
C34 C 0.2390(2) 0.1980(3) 0.3613(2)
C35 C 0.2831(3) 0.1699(3) 0.3921(2)
C36 C 0.3259(2) 0.1753(4) 0.3649(4)
C37 C 0.3247(2) 0.2088(4) 0.3068(4)
C38 C 0.2806(2) 0.2369(4) 0.2760(2)
C39 C 0.1631(2) 0.3548(3) 0.1893(2)
C40 C 0.1859(2) 0.3467(3) 0.1364(3)
C41 C 0.1818(3) 0.4030(5) 0.0916(3)
C42 C 0.1549(3) 0.4673(4) 0.0998(4)
C43 C 0.1321(3) 0.4754(3) 0.1528(4)
C44 C 0.1362(2) 0.4192(4) 0.1975(3)
C45 C 0.1830(3) 0.3993(4) 0.3577(3)
C46 C 0.1673(3) 0.4368(5) 0.4140(4)
C47 C 0.0725(3) 0.4016(5) 0.4294(4)
C48 C 0.0480(4) 0.3136(6) 0.5049(6)
C49 C 0.0260(5) 0.3436(8) 0.5608(6)
C50 C -0.0294(5) 0.3543(9) 0.5457(7)
C51 C -0.0408(5) 0.4068(9) 0.4900(8)
C52 C -0.0160(4) 0.3761(9) 0.4363(7)
H1 H 0.3446 0.3947 0.3038
H2 H 0.3631 0.3554 0.2077
H3 H 0.3291 0.4171 0.1176
H4 H 0.2767 0.5181 0.1236
H5 H 0.2582 0.5573 0.2197
H6 H 0.2866 0.3450 0.4044
H7 H 0.3240 0.2734 0.4872
H8 H 0.3730 0.3306 0.5699
H9 H 0.3847 0.4593 0.5698
H10 H 0.3473 0.5308 0.4871
H11 H 0.2682 0.6437 0.4470
H12 H 0.2089 0.7308 0.4648
H13 H 0.1338 0.7341 0.4003
H14 H 0.1179 0.6503 0.3182
H15 H 0.1772 0.5632 0.3004
H16 H 0.3853 0.7314 0.4159
H17 H 0.4087 0.7198 0.3551
H18 H 0.5162 0.5942 0.5068
H19 H 0.5055 0.5316 0.5538
H20 H 0.5544 0.6685 0.5889
H21 H 0.5798 0.5892 0.5933
H22 H 0.5296 0.5513 0.6687
H23 H 0.5588 0.6240 0.6928
H24 H 0.4748 0.6415 0.7019
H25 H 0.4900 0.6987 0.6530
H26 H 0.4155 0.6449 0.6118
H27 H 0.4379 0.5641 0.6226
H28 H 0.1324 0.1063 0.2605
H29 H 0.0698 0.0372 0.2950
H30 H 0.0072 0.0978 0.3370
H31 H 0.0072 0.2274 0.3446
H32 H 0.0698 0.2965 0.3102
H33 H 0.2103 0.1944 0.3795
H34 H 0.2840 0.1474 0.4309
H35 H 0.3555 0.1565 0.3855
H36 H 0.3533 0.2124 0.2886
H37 H 0.2797 0.2594 0.2371
H38 H 0.2039 0.3037 0.1309
H39 H 0.1971 0.3976 0.0562
H40 H 0.1522 0.5050 0.0699
H41 H 0.1141 0.5185 0.1583
H42 H 0.1209 0.4246 0.2329
H43 H 0.1472 0.4799 0.4000
H44 H 0.1965 0.4553 0.4400
H45 H 0.0834 0.3074 0.5157
H46 H 0.0338 0.2652 0.4925
H47 H 0.0330 0.3088 0.5953
H48 H 0.0413 0.3911 0.5736
H49 H -0.0453 0.3063 0.5361
H50 H -0.0422 0.3753 0.5814
H51 H -0.0285 0.4567 0.5011
H52 H -0.0762 0.4100 0.4775
H53 H -0.0309 0.3285 0.4227
H54 H -0.0214 0.4106 0.4014
Sn2C Sn 0.33105(2) 0.77017(3) 0.24149(2)
O2C O 0.1771(2) 0.1793(3) 0.1833(2)
loop_
_geom_bond_atom_site_label_1
_geom_bond_atom_site_label_2
_geom_bond_site_symmetry_1
_geom_bond_site_symmetry_2
Sn1 O1 1_555 1_555
S1 C20 1_555 1_555
O1 C19 1_555 1_555
O2 C19 1_555 1_555
O3 C21 1_555 1_555
N1 C21 1_555 1_555
C1 Sn1 1_555 1_555
C2 C1 1_555 1_555
C3 C2 1_555 1_555
C4 C3 1_555 1_555
C5 C4 1_555 1_555
C6 C1 1_555 1_555
C7 Sn1 1_555 1_555
C8 C7 1_555 1_555
C9 C8 1_555 1_555
C10 C9 1_555 1_555
C11 C10 1_555 1_555
C12 C7 1_555 1_555
C13 Sn1 1_555 1_555
C14 C13 1_555 1_555
C15 C14 1_555 1_555
C16 C15 1_555 1_555
C17 C16 1_555 1_555
C18 C13 1_555 1_555
C19 C20 1_555 1_555
C20 H16 1_555 1_555
C21 S1 1_555 1_555
C22 N1 1_555 1_555
C23 C22 1_555 1_555
C24 C23 1_555 1_555
C25 C24 1_555 1_555
C26 N1 1_555 1_555
Sn2 O4 1_555 1_555
S2 C46 1_555 1_555
O4 C45 1_555 1_555
O5 Sn1 1_555 1_555
O6 C47 1_555 1_555
N2 C47 1_555 1_555
C27 Sn2 1_555 1_555
C28 C27 1_555 1_555
C29 C28 1_555 1_555
C30 C29 1_555 1_555
C31 C30 1_555 1_555
C32 C27 1_555 1_555
C33 Sn2 1_555 1_555
C34 C33 1_555 1_555
C35 C34 1_555 1_555
C36 C35 1_555 1_555
C37 C36 1_555 1_555
C38 C33 1_555 1_555
C39 Sn2 1_555 1_555
C40 C39 1_555 1_555
C41 C40 1_555 1_555
C42 C41 1_555 1_555
C43 C42 1_555 1_555
C44 C39 1_555 1_555
C45 O5 1_555 1_555
C46 C45 1_555 1_555
C47 S2 1_555 1_555
C48 N2 1_555 1_555
C49 C48 1_555 1_555
C50 C49 1_555 1_555
C51 C50 1_555 1_555
C52 N2 1_555 1_555
H1 C2 1_555 1_555
H2 C3 1_555 1_555
H3 C4 1_555 1_555
H4 C5 1_555 1_555
H5 C6 1_555 1_555
H6 C8 1_555 1_555
H7 C9 1_555 1_555
H8 C10 1_555 1_555
H9 C11 1_555 1_555
H10 C12 1_555 1_555
H11 C14 1_555 1_555
H12 C15 1_555 1_555
H13 C16 1_555 1_555
H14 C17 1_555 1_555
H15 C18 1_555 1_555
H17 C20 1_555 1_555
H18 C22 1_555 1_555
H19 C22 1_555 1_555
H20 C23 1_555 1_555
H21 C23 1_555 1_555
H22 C24 1_555 1_555
H23 C24 1_555 1_555
H24 C25 1_555 1_555
H25 C25 1_555 1_555
H26 C26 1_555 1_555
H27 C26 1_555 1_555
H28 C28 1_555 1_555
H29 C29 1_555 1_555
H30 C30 1_555 1_555
H31 C31 1_555 1_555
H32 C32 1_555 1_555
H33 C34 1_555 1_555
H34 C35 1_555 1_555
H35 C36 1_555 1_555
H36 C37 1_555 1_555
H37 C38 1_555 1_555
H38 C40 1_555 1_555
H39 C41 1_555 1_555
H40 C42 1_555 1_555
H41 C43 1_555 1_555
H42 C44 1_555 1_555
H43 C46 1_555 1_555
H44 C46 1_555 1_555
H45 C48 1_555 1_555
H46 C48 1_555 1_555
H47 C49 1_555 1_555
H48 C49 1_555 1_555
H49 C50 1_555 1_555
H50 C50 1_555 1_555
H51 C51 1_555 1_555
H52 C51 1_555 1_555
H53 C52 1_555 1_555
H54 C52 1_555 1_555
Sn2C O2 1_555 1_555
O2C Sn2 1_555 1_555
C5 C6 1_555 1_555
C11 C12 1_555 1_555
C17 C18 1_555 1_555
C25 C26 1_555 1_555
C31 C32 1_555 1_555
C37 C38 1_555 1_555
C43 C44 1_555 1_555
C51 C52 1_555 1_555

#END
