
#######################################################################
#
#                 Cambridge Crystallographic Data Centre
#                                CCDC 
#
#######################################################################
#
# If this CIF has been generated from an entry in the Cambridge 
# Structural Database, then it will include bibliographic, chemical, 
# crystal, experimental, refinement or atomic coordinate data resulting 
# from the CCDC's data processing and validation procedures.
#
#######################################################################

data_FIWHOK
_symmetry_cell_setting           orthorhombic
_symmetry_space_group_name_H-M   'P 21 21 21'
_symmetry_Int_Tables_number      19
_space_group_name_Hall           'P 2ac 2ab'
loop_
_symmetry_equiv_pos_site_id
_symmetry_equiv_pos_as_xyz
1 x,y,z
2 1/2-x,-y,1/2+z
3 -x,1/2+y,1/2-z
4 1/2+x,1/2-y,-z
_cell_length_a                   7.2243(6)
_cell_length_b                   22.315(2)
_cell_length_c                   23.376(2)
_cell_angle_alpha                90
_cell_angle_beta                 90
_cell_angle_gamma                90
_cell_volume                     3768.45
loop_
_atom_site_label
_atom_site_type_symbol
_atom_site_fract_x
_atom_site_fract_y
_atom_site_fract_z
Cd1 Cd 0.20569(8) 0.48691(3) 0.18669(2)
Ba1 Ba 0.68297(7) 0.54600(2) 0.227462(19)
C1 C 0.3962(14) 0.4058(4) 0.2609(4)
C2 C 0.5272(14) 0.3734(4) 0.2986(4)
C3 C 0.4642(18) 0.3340(5) 0.3405(5)
H1 H 0.3380 0.3260 0.3426
C4 C 0.5779(19) 0.3068(6) 0.3783(6)
H2 H 0.5325 0.2777 0.4030
C5 C 0.7610(15) 0.3227(4) 0.3797(4)
C6 C 0.8312(16) 0.3590(4) 0.3380(5)
H3 H 0.9576 0.3668 0.3369
C7 C 0.7151(14) 0.3842(4) 0.2972(4)
H4 H 0.7645 0.4085 0.2688
C8 C 0.9428(16) 0.3316(4) 0.4636(4)
C9 C 1.1035(16) 0.3130(5) 0.4916(4)
H5 H 1.1656 0.2788 0.4793
C10 C 0.8569(15) 0.3841(5) 0.4802(4)
H6 H 0.7553 0.3985 0.4601
C11 C 1.1684(17) 0.3445(4) 0.5363(4)
H7 H 1.2731 0.3308 0.5554
C12 C 1.0844(14) 0.3966(4) 0.5545(4)
C13 C 0.9231(16) 0.4147(5) 0.5270(5)
H8 H 0.8592 0.4481 0.5404
C14 C 1.1593(14) 0.4340(4) 0.6030(4)
C15 C 0.1848(12) 0.5728(4) 0.2753(3)
C16 C 0.1595(11) 0.6047(4) 0.3305(3)
C17 C 0.0078(14) 0.5897(6) 0.3650(4)
H9 H -0.0762 0.5610 0.3526
C18 C -0.0178(16) 0.6169(5) 0.4167(4)
H10 H -0.1174 0.6061 0.4397
C19 C 0.1026(14) 0.6599(4) 0.4345(3)
C20 C 0.2455(14) 0.6756(4) 0.4014(4)
H11 H 0.3228 0.7066 0.4131
C21 C 0.2808(15) 0.6466(4) 0.3500(4)
H12 H 0.3865 0.6557 0.3290
C22 C -0.0536(14) 0.6642(3) 0.5240(3)
C23 C -0.2362(14) 0.6811(4) 0.5200(4)
H13 H -0.2739 0.7106 0.4945
C24 C -0.3636(13) 0.6522(4) 0.5558(4)
H14 H -0.4886 0.6618 0.5537
C25 C -0.3038(11) 0.6095(3) 0.5942(3)
C26 C -0.1178(13) 0.5963(4) 0.5996(4)
H15 H -0.0784 0.5691 0.6272
C27 C 0.0128(13) 0.6242(5) 0.5632(4)
H16 H 0.1385 0.6156 0.5659
C28 C -0.4416(14) 0.5748(4) 0.6302(3)
C29 C 0.8415(19) 0.6935(5) 0.2687(6)
H17 H 0.9344 0.6834 0.2428
C30 C 0.694(4) 0.7610(8) 0.3391(9)
H18 H 0.5998 0.7306 0.3367
H19 H 0.6431 0.7988 0.3273
H20 H 0.7366 0.7640 0.3779
C31 C 1.023(2) 0.7810(5) 0.2927(7)
H21 H 1.1087 0.7622 0.2668
H22 H 1.0813 0.7860 0.3294
H23 H 0.9879 0.8194 0.2780
O1 O 0.4649(9) 0.4461(3) 0.2270(2)
O2 O 0.2295(11) 0.3963(4) 0.2615(3)
O3 O 0.8781(13) 0.2965(3) 0.4196(3)
O4 O 1.3316(11) 0.4340(4) 0.6130(3)
O5 O 1.0486(10) 0.4657(3) 0.6312(3)
O6 O 0.0568(9) 0.5393(4) 0.2568(3)
O7 O 0.3304(10) 0.5792(3) 0.2483(3)
O8 O 0.0754(10) 0.6899(3) 0.4861(3)
O9 O -0.3834(9) 0.5375(3) 0.6660(2)
O10 O -0.6113(8) 0.5840(3) 0.6217(3)
O11 O 0.8613(14) 0.6192(4) 0.1469(5)
O12 O 0.7055(15) 0.6589(4) 0.2730(5)
O13 O 0.5845(14) 0.5208(4) 0.3422(3)
H24 H 0.4663 0.5300 0.3554
H25 H 0.6703 0.5034 0.3668
N1 N 0.8609(16) 0.7437(4) 0.2988(4)
C32 C 0.813(5) 0.6677(12) 0.1226(12)
H26 H 0.8972 0.6766 0.0921
H27 H 0.8148 0.6998 0.1500
H28 H 0.6900 0.6634 0.1075
Cd1A Cd -0.70569(8) 0.51309(3) 0.68669(2)
Cd1A_2 Cd 1.29431(8) 0.51309(3) 0.68669(2)
Ba1_2 Ba -0.31703(7) 0.54600(2) 0.227462(19)
Ba1A Ba -0.18297(7) 0.45400(2) 0.727462(19)
Ba1A_2 Ba 0.81703(7) 0.45400(2) 0.727462(19)
O4A O 0.1684(11) 0.5660(4) 0.1130(3)
O5A O 0.4514(10) 0.5343(3) 0.1312(3)
O6_2 O 1.0568(9) 0.5393(4) 0.2568(3)
O9A O -0.1166(9) 0.4625(3) 0.1660(2)
O9A_2 O 0.8834(9) 0.4625(3) 0.1660(2)
O10A O 0.1113(8) 0.4160(3) 0.1217(3)
O14 O 0.4301(18) 0.5018(6) 0.4219(4)
H29 H 0.3152 0.4867 0.4256
H30 H 0.4994 0.5087 0.4531
loop_
_geom_bond_atom_site_label_1
_geom_bond_atom_site_label_2
_geom_bond_site_symmetry_1
_geom_bond_site_symmetry_2
Cd1 O1 1_555 1_555
Ba1 O1 1_555 1_555
C1 C2 1_555 1_555
C2 C3 1_555 1_555
C3 H1 1_555 1_555
C4 C3 1_555 1_555
H2 C4 1_555 1_555
C5 C4 1_555 1_555
C6 C5 1_555 1_555
H3 C6 1_555 1_555
C7 C2 1_555 1_555
H4 C7 1_555 1_555
C8 C9 1_555 1_555
C9 H5 1_555 1_555
C10 C8 1_555 1_555
H6 C10 1_555 1_555
C11 C9 1_555 1_555
H7 C11 1_555 1_555
C12 C11 1_555 1_555
C13 C10 1_555 1_555
H8 C13 1_555 1_555
C14 C12 1_555 1_555
C15 C16 1_555 1_555
C16 C17 1_555 1_555
C17 H9 1_555 1_555
C18 C17 1_555 1_555
H10 C18 1_555 1_555
C19 C18 1_555 1_555
C20 C19 1_555 1_555
H11 C20 1_555 1_555
C21 C16 1_555 1_555
H12 C21 1_555 1_555
C22 C23 1_555 1_555
C23 H13 1_555 1_555
C24 C23 1_555 1_555
H14 C24 1_555 1_555
C25 C24 1_555 1_555
C26 C25 1_555 1_555
H15 C26 1_555 1_555
C27 C22 1_555 1_555
H16 C27 1_555 1_555
C28 C25 1_555 1_555
C29 H17 1_555 1_555
C30 H18 1_555 1_555
H19 C30 1_555 1_555
H20 C30 1_555 1_555
C31 H21 1_555 1_555
H22 C31 1_555 1_555
H23 C31 1_555 1_555
O1 C1 1_555 1_555
O2 Cd1 1_555 1_555
O3 C5 1_555 1_555
O4 C14 1_555 1_555
O5 C14 1_555 1_555
O6 Cd1 1_555 1_555
O7 Cd1 1_555 1_555
O8 C19 1_555 1_555
O9 C28 1_555 1_555
O10 C28 1_555 1_555
O11 Ba1 1_555 1_555
O12 Ba1 1_555 1_555
O13 Ba1 1_555 1_555
H24 O13 1_555 1_555
H25 O13 1_555 1_555
N1 C29 1_555 1_555
C32 O11 1_555 1_555
H26 C32 1_555 1_555
H27 C32 1_555 1_555
H28 C32 1_555 1_555
O14 H29 1_555 1_555
H30 O14 1_555 1_555
Cd1A O9 1_555 1_555
Cd1A_2 O4 1_555 1_555
Ba1_2 O6 1_555 1_555
Ba1A O9 1_555 1_555
Ba1A_2 O5 1_555 1_555
O4A Cd1 1_555 1_555
O5A Cd1 1_555 1_555
O6_2 Ba1 1_555 1_555
O9A Cd1 1_555 1_555
O9A_2 Ba1 1_555 1_555
O10A Cd1 1_555 1_555
Ba1 O7 1_555 1_555
Ba1 O5A 1_555 1_555
C1 O2 1_555 1_555
C6 C7 1_555 1_555
C8 O3 1_555 1_555
C12 C13 1_555 1_555
C15 O6 1_555 1_555
C15 O7 1_555 1_555
C20 C21 1_555 1_555
C22 O8 1_555 1_555
C26 C27 1_555 1_555
C29 O12 1_555 1_555
C30 N1 1_555 1_555
C31 N1 1_555 1_555
O5 Cd1A_2 1_555 1_555
O10 Cd1A 1_555 1_555
Ba1_2 O9A 1_555 1_555

#END
