
#######################################################################
#
#                 Cambridge Crystallographic Data Centre
#                                CCDC 
#
#######################################################################
#
# If this CIF has been generated from an entry in the Cambridge 
# Structural Database, then it will include bibliographic, chemical, 
# crystal, experimental, refinement or atomic coordinate data resulting 
# from the CCDC's data processing and validation procedures.
#
#######################################################################

data_FIWREJ
_symmetry_cell_setting           triclinic
_symmetry_space_group_name_H-M   'P -1'
_symmetry_Int_Tables_number      2
_space_group_name_Hall           '-P 1'
loop_
_symmetry_equiv_pos_site_id
_symmetry_equiv_pos_as_xyz
1 x,y,z
2 -x,-y,-z
_cell_length_a                   6.8673(3)
_cell_length_b                   7.0112(3)
_cell_length_c                   18.4121(7)
_cell_angle_alpha                84.104(3)
_cell_angle_beta                 82.745(3)
_cell_angle_gamma                89.622(3)
_cell_volume                     874.738
loop_
_atom_site_label
_atom_site_type_symbol
_atom_site_fract_x
_atom_site_fract_y
_atom_site_fract_z
I1 I 0.02279(5) -0.27103(5) -0.926180(14)
O1 O -0.1302(5) -0.3406(4) -0.62358(17)
O2 O 0.1473(5) -0.3573(4) -0.57188(15)
C1 C 0.0722(6) -0.3122(6) -0.7644(2)
H1 H -0.0643 -0.3165 -0.7587
C2 C 0.3766(6) -0.3217(6) -0.7120(2)
H2 H 0.4439 -0.3309 -0.6710
C3 C 0.1774(6) -0.2931(6) -0.8342(2)
C4 C 0.4789(7) -0.3049(9) -0.7822(3)
H3 H 0.6154 -0.3027 -0.7881
C5 C 0.0548(6) -0.3426(5) -0.6271(2)
C6 C 0.1713(6) -0.3247(5) -0.7032(2)
C7 C 0.3811(7) -0.2915(8) -0.8433(3)
H4 H 0.4509 -0.2814 -0.8902
I2 I -0.40565(5) -0.23116(5) -0.067600(16)
O3 O -0.3852(5) -0.1564(5) -0.3671(2)
O4 O -0.0816(5) -0.1400(4) -0.42524(15)
C8 C -0.1992(6) -0.1561(5) -0.3674(2)
C9 C -0.1957(7) -0.2082(7) -0.1614(2)
C10 C -0.1260(6) -0.1727(5) -0.29333(19)
C11 C -0.2611(6) -0.1901(6) -0.2298(2)
H5 H -0.3950 -0.1896 -0.2333
C12 C 0.0745(6) -0.1735(6) -0.2871(2)
H6 H 0.1659 -0.1623 -0.3291
C13 C 0.1369(6) -0.1911(8) -0.2179(3)
H7 H 0.2706 -0.1919 -0.2139
C14 C 0.0027(7) -0.2075(7) -0.1544(2)
H8 H 0.0453 -0.2178 -0.1081
Na1 Na -0.2595(2) -0.3733(2) -0.49061(8)
Na2 Na 0.2222(2) -0.1299(2) -0.49739(8)
O5 O -0.6143(4) -0.3792(4) -0.42924(14)
O6 O -0.3841(4) -0.0925(4) -0.56480(14)
O2A O -0.1473(5) -0.6427(4) -0.42812(15)
O4A O 0.0816(5) 0.1400(4) -0.57476(15)
Na1A Na 0.2595(2) -0.6267(2) -0.50939(8)
Na1A_2 Na -0.7405(2) -0.6267(2) -0.50939(8)
Na2_2 Na -0.7778(2) -0.1299(2) -0.49739(8)
Na2A Na -0.2222(2) 0.1299(2) -0.50261(8)
O5A O -0.3857(4) -0.6208(4) -0.57076(14)
O5_2 O 0.3857(4) -0.3792(4) -0.42924(14)
O6A O 0.3841(4) 0.0925(4) -0.43520(14)
O6_2 O 0.6159(4) -0.0925(4) -0.56480(14)
loop_
_geom_bond_atom_site_label_1
_geom_bond_atom_site_label_2
_geom_bond_site_symmetry_1
_geom_bond_site_symmetry_2
I1 C3 1_555 1_555
O1 C5 1_555 1_555
O2 C5 1_555 1_555
C1 H1 1_555 1_555
C2 H2 1_555 1_555
C3 C1 1_555 1_555
C4 C2 1_555 1_555
H3 C4 1_555 1_555
C5 C6 1_555 1_555
C6 C1 1_555 1_555
C7 C3 1_555 1_555
H4 C7 1_555 1_555
I2 C9 1_555 1_555
O3 C8 1_555 1_555
O4 C8 1_555 1_555
C8 C10 1_555 1_555
C9 C11 1_555 1_555
C10 C11 1_555 1_555
C11 H5 1_555 1_555
C12 C10 1_555 1_555
H6 C12 1_555 1_555
C13 C12 1_555 1_555
H7 C13 1_555 1_555
C14 C9 1_555 1_555
H8 C14 1_555 1_555
Na1 O1 1_555 1_555
Na2 O2 1_555 1_555
O5 Na1 1_555 1_555
O6 Na1 1_555 1_555
O2A Na1 1_555 1_555
O4A Na2 1_555 1_555
Na1A O2 1_555 1_555
Na1A_2 O5 1_555 1_555
Na2_2 O5 1_555 1_555
Na2A O4 1_555 1_555
O5A Na1 1_555 1_555
O5_2 Na2 1_555 1_555
O6A Na2 1_555 1_555
O6_2 Na2 1_555 1_555
C2 C6 1_555 1_555
C4 C7 1_555 1_555
O4 Na1 1_555 1_555
O4 Na2 1_555 1_555
C13 C14 1_555 1_555
O6 Na2_2 1_555 1_555
O6 Na2A 1_555 1_555
O4A Na2A 1_555 1_555
Na1A O5_2 1_555 1_555
Na1A_2 O5A 1_555 1_555

#END
