
#######################################################################
#
#                 Cambridge Crystallographic Data Centre
#                                CCDC 
#
#######################################################################
#
# If this CIF has been generated from an entry in the Cambridge 
# Structural Database, then it will include bibliographic, chemical, 
# crystal, experimental, refinement or atomic coordinate data resulting 
# from the CCDC's data processing and validation procedures.
#
#######################################################################

data_FIWRIN
_symmetry_cell_setting           monoclinic
_symmetry_space_group_name_H-M   'C 2/c'
_symmetry_Int_Tables_number      15
_space_group_name_Hall           '-C 2yn'
loop_
_symmetry_equiv_pos_site_id
_symmetry_equiv_pos_as_xyz
1 x,y,z
2 1/2+x,1/2+y,z
3 -x,y,1/2-z
4 1/2-x,1/2+y,1/2-z
5 -x,-y,-z
6 1/2-x,1/2-y,-z
7 x,-y,1/2+z
8 1/2+x,1/2-y,1/2+z
_cell_length_a                   32.889(2)
_cell_length_b                   3.8563(3)
_cell_length_c                   11.6525(8)
_cell_angle_alpha                90
_cell_angle_beta                 95.976(4)
_cell_angle_gamma                90
_cell_volume                     1469.85
loop_
_atom_site_label
_atom_site_type_symbol
_atom_site_fract_x
_atom_site_fract_y
_atom_site_fract_z
Rb1 Rb 0.0000 0.3641(3) -0.2500
Br1 Br -0.21454(3) -0.5604(2) -0.15552(7)
O1 O -0.05371(19) -0.1803(16) -0.1469(5)
O2 O 0.03335(19) 0.0265(17) -0.0357(5)
H1 H 0.0000 0.0000 0.0000
C1 C -0.1719(3) -0.369(2) -0.0515(7)
C2 C -0.1327(3) -0.328(2) -0.0855(7)
H2 H -0.1270 -0.3986 -0.1584
C3 C -0.1021(3) -0.178(2) -0.0075(7)
C4 C -0.1113(3) -0.078(2) 0.1003(7)
H3 H -0.0909 0.0166 0.1523
C5 C -0.1508(3) -0.116(2) 0.1328(7)
H4 H -0.1567 -0.0443 0.2054
C6 C -0.1815(3) -0.263(2) 0.0558(7)
H5 H -0.2079 -0.2898 0.0765
C7 C -0.0607(3) -0.130(2) -0.0463(7)
Rb1_2 Rb 0.0000 -0.6359(3) -0.2500
Rb1F Rb 0.0000 0.6359(3) 0.2500
Rb1F_2 Rb 0.0000 -0.3641(3) 0.2500
Br1D Br 0.21454(3) 0.5604(2) 0.15552(7)
O1_2 O -0.05371(19) 0.8197(16) -0.1469(5)
O1B O 0.05371(19) -0.1803(16) -0.3531(5)
O1B_2 O 0.05371(19) 0.8197(16) -0.3531(5)
O1D O 0.05371(19) 0.1803(16) 0.1469(5)
O2B O -0.03335(19) 0.0265(17) -0.4643(5)
O2D O -0.03335(19) -0.0265(17) 0.0357(5)
C1D C 0.1719(3) 0.369(2) 0.0515(7)
C2D C 0.1327(3) 0.328(2) 0.0855(7)
H2D H 0.1270 0.3986 0.1584
C3D C 0.1021(3) 0.178(2) 0.0075(7)
C4D C 0.1113(3) 0.078(2) -0.1003(7)
H3D H 0.0909 -0.0166 -0.1523
C5D C 0.1508(3) 0.116(2) -0.1328(7)
H4D H 0.1567 0.0443 -0.2054
C6D C 0.1815(3) 0.263(2) -0.0558(7)
H5D H 0.2079 0.2898 -0.0765
C7D C 0.0607(3) 0.130(2) 0.0463(7)
loop_
_geom_bond_atom_site_label_1
_geom_bond_atom_site_label_2
_geom_bond_site_symmetry_1
_geom_bond_site_symmetry_2
Rb1 O1 1_555 1_555
Br1 C1 1_555 1_555
O1 C7 1_555 1_555
O2 Rb1 1_555 1_555
H1 O2 1_555 1_555
C1 C2 1_555 1_555
C2 H2 1_555 1_555
C3 C2 1_555 1_555
C4 C3 1_555 1_555
H3 C4 1_555 1_555
C5 C4 1_555 1_555
H4 C5 1_555 1_555
C6 C1 1_555 1_555
H5 C6 1_555 1_555
C7 C3 1_555 1_555
Rb1_2 O1 1_555 1_555
Rb1F O1D 1_555 1_555
Rb1F_2 O1D 1_555 1_555
Br1D C1D 1_555 1_555
O1_2 Rb1 1_555 1_555
O1B Rb1 1_555 1_555
O1B_2 Rb1 1_555 1_555
O1D C7D 1_555 1_555
O2B Rb1 1_555 1_555
O2D H1 1_555 1_555
C1D C2D 1_555 1_555
C2D H2D 1_555 1_555
C3D C2D 1_555 1_555
C4D C3D 1_555 1_555
H3D C4D 1_555 1_555
C5D C4D 1_555 1_555
H4D C5D 1_555 1_555
C6D C1D 1_555 1_555
H5D C6D 1_555 1_555
C7D O2 1_555 1_555
C5 C6 1_555 1_555
C7 O2D 1_555 1_555
Rb1_2 O1B 1_555 1_555
Rb1F_2 O2D 1_555 1_555
C3D C7D 1_555 1_555
C5D C6D 1_555 1_555

#END
