
#######################################################################
#
#                 Cambridge Crystallographic Data Centre
#                                CCDC 
#
#######################################################################
#
# If this CIF has been generated from an entry in the Cambridge 
# Structural Database, then it will include bibliographic, chemical, 
# crystal, experimental, refinement or atomic coordinate data resulting 
# from the CCDC's data processing and validation procedures.
#
#######################################################################

data_FIWRAF
_symmetry_cell_setting           monoclinic
_symmetry_space_group_name_H-M   'C 2/c'
_symmetry_Int_Tables_number      15
_space_group_name_Hall           '-C 2yn'
loop_
_symmetry_equiv_pos_site_id
_symmetry_equiv_pos_as_xyz
1 x,y,z
2 1/2+x,1/2+y,z
3 -x,y,1/2-z
4 1/2-x,1/2+y,1/2-z
5 -x,-y,-z
6 1/2-x,1/2-y,-z
7 x,-y,1/2+z
8 1/2+x,1/2-y,1/2+z
_cell_length_a                   32.1084(12)
_cell_length_b                   3.81040(10)
_cell_length_c                   11.6212(4)
_cell_angle_alpha                90
_cell_angle_beta                 96.446(2)
_cell_angle_gamma                90
_cell_volume                     1412.82
loop_
_atom_site_label
_atom_site_type_symbol
_atom_site_fract_x
_atom_site_fract_y
_atom_site_fract_z
Rb1 Rb 0.0000 -0.87250(7) 0.2500
Cl1 Cl 0.215240(14) 0.06248(15) 0.15620(4)
O1 O 0.05503(5) -0.3310(4) 0.14788(14)
O2 O -0.03431(5) -0.5217(5) 0.03593(13)
C1 C 0.10536(7) -0.3171(6) 0.0113(2)
C2 C 0.13610(7) -0.1671(6) 0.09093(19)
C3 C 0.17590(7) -0.1185(5) 0.0578(2)
C4 C 0.18575(7) -0.2126(6) -0.05116(18)
C5 C 0.15494(7) -0.3642(5) -0.1288(2)
C6 C 0.11470(7) -0.4152(6) -0.09846(19)
C7 C 0.06229(7) -0.3759(5) 0.0468(2)
H1 H 0.1303(10) -0.106(8) 0.165(3)
H2 H 0.2134(10) -0.182(8) -0.072(3)
H3 H 0.1613(9) -0.435(9) -0.204(3)
H4 H 0.0947(9) -0.523(9) -0.153(3)
H5 H 0.0000 -0.5000 0.0000
Rb1_2 Rb 0.0000 0.12750(7) 0.2500
Rb1F Rb 0.0000 -0.12750(7) -0.2500
Rb1F_2 Rb 0.0000 -1.12750(7) -0.2500
Cl1D Cl -0.215240(14) -1.06248(15) -0.15620(4)
O1_2 O 0.05503(5) -1.3310(4) 0.14788(14)
O1B O -0.05503(5) -1.3310(4) 0.35212(14)
O1B_2 O -0.05503(5) -0.3310(4) 0.35212(14)
O1D O -0.05503(5) -0.6690(4) -0.14788(14)
O2B O 0.03431(5) -0.5217(5) 0.46407(13)
O2D O 0.03431(5) -0.4783(5) -0.03593(13)
C1D C -0.10536(7) -0.6829(6) -0.0113(2)
C2D C -0.13610(7) -0.8329(6) -0.09093(19)
C3D C -0.17590(7) -0.8815(5) -0.0578(2)
C4D C -0.18575(7) -0.7874(6) 0.05116(18)
C5D C -0.15494(7) -0.6358(5) 0.1288(2)
C6D C -0.11470(7) -0.5848(6) 0.09846(19)
C7D C -0.06229(7) -0.6241(5) -0.0468(2)
H1D H -0.1303(10) -0.894(8) -0.165(3)
H2D H -0.2134(10) -0.818(8) 0.072(3)
H3D H -0.1613(9) -0.565(9) 0.204(3)
H4D H -0.0947(9) -0.477(9) 0.153(3)
loop_
_geom_bond_atom_site_label_1
_geom_bond_atom_site_label_2
_geom_bond_site_symmetry_1
_geom_bond_site_symmetry_2
Rb1 O1 1_555 1_555
Cl1 C3 1_555 1_555
O1 C7 1_555 1_555
O2 Rb1 1_555 1_555
C1 C2 1_555 1_555
C2 C3 1_555 1_555
C3 C4 1_555 1_555
C4 C5 1_555 1_555
C5 C6 1_555 1_555
C6 C1 1_555 1_555
C7 C1 1_555 1_555
H1 C2 1_555 1_555
H2 C4 1_555 1_555
H3 C5 1_555 1_555
H4 C6 1_555 1_555
H5 O2 1_555 1_555
Rb1_2 O1 1_555 1_555
Rb1F O1D 1_555 1_555
Rb1F_2 O1D 1_555 1_555
Cl1D C3D 1_555 1_555
O1_2 Rb1 1_555 1_555
O1B Rb1 1_555 1_555
O1B_2 Rb1 1_555 1_555
O1D C7D 1_555 1_555
O2B Rb1 1_555 1_555
O2D C7 1_555 1_555
C1D C2D 1_555 1_555
C2D C3D 1_555 1_555
C3D C4D 1_555 1_555
C4D C5D 1_555 1_555
C5D C6D 1_555 1_555
C6D C1D 1_555 1_555
C7D O2 1_555 1_555
H1D C2D 1_555 1_555
H2D C4D 1_555 1_555
H3D C5D 1_555 1_555
H4D C6D 1_555 1_555
H5 O2D 1_555 1_555
Rb1_2 O1B_2 1_555 1_555
Rb1F O2D 1_555 1_555
C1D C7D 1_555 1_555

#END
