
#######################################################################
#
#                 Cambridge Crystallographic Data Centre
#                                CCDC 
#
#######################################################################
#
# If this CIF has been generated from an entry in the Cambridge 
# Structural Database, then it will include bibliographic, chemical, 
# crystal, experimental, refinement or atomic coordinate data resulting 
# from the CCDC's data processing and validation procedures.
#
#######################################################################

data_FIWREJ01
_symmetry_cell_setting           triclinic
_symmetry_space_group_name_H-M   'P -1'
_symmetry_Int_Tables_number      2
_space_group_name_Hall           '-P 1'
loop_
_symmetry_equiv_pos_site_id
_symmetry_equiv_pos_as_xyz
1 x,y,z
2 -x,-y,-z
_cell_length_a                   6.86202(14)
_cell_length_b                   7.02675(17)
_cell_length_c                   18.4262(3)
_cell_angle_alpha                84.1100(13)
_cell_angle_beta                 82.7110(11)
_cell_angle_gamma                89.6110(14)
_cell_volume                     876.619
loop_
_atom_site_label
_atom_site_type_symbol
_atom_site_fract_x
_atom_site_fract_y
_atom_site_fract_z
I1 I 0.47651(11) 0.27115(10) 0.42612(3)
I2 I 0.90645(11) 0.23121(11) -0.43219(3)
Na1 Na 0.7585(5) 0.3721(4) -0.00936(16)
Na2 Na 0.7222(5) -0.1295(5) 0.00231(17)
O1 O 0.6302(9) 0.3415(9) 0.1234(4)
O2 O 0.3574(10) 0.3577(8) 0.0718(3)
O3 O 0.5825(10) 0.1385(8) -0.0750(3)
O4 O 0.8870(11) 0.1568(10) -0.1333(4)
O5 O 0.8869(8) 0.0906(8) 0.0653(3)
O6 O 1.1125(8) 0.3788(8) -0.0718(3)
C1 C 0.4440(14) 0.3433(11) 0.1280(5)
C2 C 0.3318(12) 0.3243(11) 0.2025(4)
C3 C 0.4229(12) 0.3105(11) 0.2642(4)
C4 C 0.3212(14) 0.2939(13) 0.3351(5)
C5 C 0.1257(15) 0.2907(15) 0.3415(5)
C6 C 0.0219(16) 0.3054(17) 0.2809(6)
C7 C 0.1237(15) 0.3201(14) 0.2099(5)
C8 C 0.6996(15) 0.1540(12) -0.1332(5)
C9 C 0.6250(13) 0.1730(12) -0.2057(4)
C10 C 0.7618(14) 0.1902(12) -0.2698(5)
C11 C 0.6985(15) 0.2070(13) -0.3386(5)
C12 C 0.4970(14) 0.2053(16) -0.3442(5)
C13 C 0.3625(14) 0.1902(14) -0.2807(5)
C14 C 0.4248(13) 0.1704(13) -0.2131(5)
H1 H 0.56247 0.31212 0.25877
H2 H 0.0541 0.27787 0.3894
H3 H -0.11772 0.30539 0.28792
H4 H 0.05569 0.3271 0.16788
H5 H 0.89849 0.19029 -0.26585
H6 H 0.45242 0.21441 -0.39122
H7 H 0.22573 0.19386 -0.2846
H8 H 0.33084 0.15447 -0.17033
Na1A Na 0.2415(5) 0.6279(4) 0.00936(16)
Na1A_2 Na 1.2415(5) 0.6279(4) 0.00936(16)
Na2A Na 0.2778(5) 0.1295(5) -0.00231(17)
Na2A_2 Na 1.2778(5) 0.1295(5) -0.00231(17)
O2A O 0.6426(10) -0.3577(8) -0.0718(3)
O2A_2 O 0.6426(10) 0.6423(8) -0.0718(3)
O3A O 0.4175(10) -0.1385(8) 0.0750(3)
O5A O 1.1131(8) -0.0906(8) -0.0653(3)
O6A O 0.8875(8) -0.3788(8) 0.0718(3)
O6A_2 O 0.8875(8) 0.6212(8) 0.0718(3)
loop_
_geom_bond_atom_site_label_1
_geom_bond_atom_site_label_2
_geom_bond_site_symmetry_1
_geom_bond_site_symmetry_2
I1 C4 1_555 1_555
I2 C11 1_555 1_555
Na1 O1 1_555 1_555
Na2 O3 1_555 1_555
O1 C1 1_555 1_555
O2 Na1 1_555 1_555
O3 Na1 1_555 1_555
O4 Na1 1_555 1_555
O5 Na1 1_555 1_555
O6 Na1 1_555 1_555
C1 O2 1_555 1_555
C2 C1 1_555 1_555
C3 C2 1_555 1_555
C4 C3 1_555 1_555
C5 C4 1_555 1_555
C6 C5 1_555 1_555
C7 C2 1_555 1_555
C8 O3 1_555 1_555
C9 C8 1_555 1_555
C10 C9 1_555 1_555
C11 C10 1_555 1_555
C12 C11 1_555 1_555
C13 C12 1_555 1_555
C14 C9 1_555 1_555
H1 C3 1_555 1_555
H2 C5 1_555 1_555
H3 C6 1_555 1_555
H4 C7 1_555 1_555
H5 C10 1_555 1_555
H6 C12 1_555 1_555
H7 C13 1_555 1_555
H8 C14 1_555 1_555
Na1A O2 1_555 1_555
Na1A_2 O6 1_555 1_555
Na2A O2 1_555 1_555
Na2A_2 O5 1_555 1_555
O2A Na2 1_555 1_555
O2A_2 Na1 1_555 1_555
O3A Na2 1_555 1_555
O5A Na2 1_555 1_555
O6A Na2 1_555 1_555
O6A_2 Na1 1_555 1_555
Na2 O5 1_555 1_555
O3 Na2A 1_555 1_555
O4 C8 1_555 1_555
O6 Na2A_2 1_555 1_555
C6 C7 1_555 1_555
C13 C14 1_555 1_555
Na1A O2A_2 1_555 1_555
Na1A_2 O6A_2 1_555 1_555
Na2A O3A 1_555 1_555
Na2A_2 O5A 1_555 1_555

#END
