
#######################################################################
#
#                 Cambridge Crystallographic Data Centre
#                                CCDC 
#
#######################################################################
#
# If this CIF has been generated from an entry in the Cambridge 
# Structural Database, then it will include bibliographic, chemical, 
# crystal, experimental, refinement or atomic coordinate data resulting 
# from the CCDC's data processing and validation procedures.
#
#######################################################################

data_FIWTUC
_symmetry_cell_setting           monoclinic
_symmetry_space_group_name_H-M   'P 21/c'
_symmetry_Int_Tables_number      14
_space_group_name_Hall           '-P 2ybc'
loop_
_symmetry_equiv_pos_site_id
_symmetry_equiv_pos_as_xyz
1 x,y,z
2 -x,1/2+y,1/2-z
3 -x,-y,-z
4 x,1/2-y,1/2+z
_cell_length_a                   14.5377(2)
_cell_length_b                   24.2888(3)
_cell_length_c                   8.82720(10)
_cell_angle_alpha                90
_cell_angle_beta                 106.923(2)
_cell_angle_gamma                90
_cell_volume                     2981.94
loop_
_atom_site_label
_atom_site_type_symbol
_atom_site_fract_x
_atom_site_fract_y
_atom_site_fract_z
Ni1 Ni 0.60688(2) 0.57429(2) 0.60265(3)
F1 F 1.07307(7) 0.62961(5) -0.06418(12)
F2 F 0.92752(7) 0.65757(5) -0.11339(12)
F3 F 0.96570(8) 0.57684(5) -0.01630(13)
F4 F 1.08990(7) 0.73323(4) 0.08292(12)
F5 F 0.94167(7) 0.73799(4) 0.07918(12)
F6 F 1.05218(7) 0.73629(4) 0.30108(11)
O1 O 0.63897(8) 0.61378(5) 0.40365(13)
O2 O 0.75271(8) 0.58633(4) 0.61514(13)
O3 O 1.39469(8) 0.49833(5) 0.52689(13)
O4 O 1.46217(8) 0.58140(5) 0.53090(14)
N1 N 0.60817(9) 0.65102(5) 0.70906(16)
N2 N 0.55451(10) 0.72620(6) 0.79586(16)
N3 N 0.39700(10) 0.97039(5) 0.52015(16)
N4 N 0.37676(10) 1.02932(5) 0.69684(16)
C1 C 0.72685(11) 0.60582(6) 0.47618(19)
C2 C 0.80197(11) 0.61868(6) 0.39571(19)
C3 C 0.77585(11) 0.63293(7) 0.23648(19)
H1 H 0.7097 0.6360 0.1791
C4 C 0.84553(11) 0.64269(7) 0.16033(19)
H2 H 0.8267 0.6524 0.0513
C5 C 0.94289(11) 0.63839(6) 0.24282(19)
C6 C 0.96881(11) 0.62589(7) 0.4037(2)
H3 H 1.0349 0.6243 0.4623
C7 C 0.89912(11) 0.61573(7) 0.4795(2)
H4 H 0.9178 0.6067 0.5889
C8 C 1.02158(11) 0.65157(7) 0.16252(19)
C9 C 0.99634(12) 0.62882(8) -0.0091(2)
C10 C 1.02609(12) 0.71509(7) 0.1549(2)
C11 C 1.11972(11) 0.62621(7) 0.25406(19)
C12 C 1.20359(11) 0.65702(7) 0.31054(19)
H5 H 1.2016 0.6958 0.2957
C13 C 1.28999(11) 0.63170(7) 0.38824(19)
H6 H 1.3464 0.6534 0.4257
C14 C 1.29552(11) 0.57510(7) 0.41220(19)
C15 C 1.21185(12) 0.54397(7) 0.3570(2)
H7 H 1.2140 0.5052 0.3726
C16 C 1.12549(12) 0.56940(7) 0.2795(2)
H8 H 1.0690 0.5477 0.2429
C17 C 1.39124(11) 0.54875(7) 0.49523(18)
C18 C 0.68111(12) 0.68948(7) 0.7499(2)
H9 H 0.7444 0.6842 0.7424
C19 C 0.64850(12) 0.73611(7) 0.8027(2)
H10 H 0.6838 0.7690 0.8374
C20 C 0.53344(11) 0.67480(6) 0.73833(19)
H11 H 0.4724 0.6578 0.7210
C21 C 0.48658(12) 0.76521(7) 0.8323(2)
H12 H 0.5230 0.7933 0.9072
H13 H 0.4448 0.7452 0.8846
C22 C 0.42445(11) 0.79350(6) 0.68519(19)
C23 C 0.33510(12) 0.77248(7) 0.6012(2)
H14 H 0.3126 0.7393 0.6352
C24 C 0.27867(12) 0.79963(7) 0.4679(2)
H15 H 0.2176 0.7851 0.4115
C25 C 0.31146(12) 0.84799(7) 0.4170(2)
H16 H 0.2730 0.8664 0.3255
C26 C 0.40074(11) 0.86945(6) 0.50006(19)
C27 C 0.45670(11) 0.84205(6) 0.63366(19)
H17 H 0.5176 0.8566 0.6904
C28 C 0.43538(12) 0.92358(6) 0.4524(2)
H18 H 0.5065 0.9246 0.4891
H19 H 0.4148 0.9266 0.3355
C29 C 0.43121(11) 0.98923(6) 0.66959(19)
H20 H 0.4871 0.9755 0.7453
C30 C 0.30359(13) 1.03582(8) 0.5589(2)
H21 H 0.2525 1.0616 0.5432
C31 C 0.31527(14) 0.99982(8) 0.4480(2)
H22 H 0.2752 0.9958 0.3424
Ni1_2 Ni 1.60688(2) 0.57429(2) 0.60265(3)
Ni1A Ni 0.39312(2) 1.07429(2) 0.89735(3)
Ni1B Ni 1.39312(2) 0.42571(2) 0.39735(3)
O3B O 0.60531(8) 0.50167(5) 0.47311(13)
O4_2 O 0.46217(8) 0.58140(5) 0.53090(14)
N4A N 0.62324(10) 0.52932(5) 0.80316(16)
loop_
_geom_bond_atom_site_label_1
_geom_bond_atom_site_label_2
_geom_bond_site_symmetry_1
_geom_bond_site_symmetry_2
Ni1 O1 1_555 1_555
F1 C9 1_555 1_555
F2 C9 1_555 1_555
F3 C9 1_555 1_555
F4 C10 1_555 1_555
F5 C10 1_555 1_555
F6 C10 1_555 1_555
O1 C1 1_555 1_555
O2 Ni1 1_555 1_555
O3 C17 1_555 1_555
O4 C17 1_555 1_555
N1 Ni1 1_555 1_555
N2 C19 1_555 1_555
N3 C28 1_555 1_555
N4 C29 1_555 1_555
C1 O2 1_555 1_555
C2 C1 1_555 1_555
C3 C2 1_555 1_555
H1 C3 1_555 1_555
C4 C3 1_555 1_555
H2 C4 1_555 1_555
C5 C4 1_555 1_555
C6 C5 1_555 1_555
H3 C6 1_555 1_555
C7 C2 1_555 1_555
H4 C7 1_555 1_555
C8 C5 1_555 1_555
C9 C8 1_555 1_555
C10 C8 1_555 1_555
C11 C8 1_555 1_555
C12 C11 1_555 1_555
H5 C12 1_555 1_555
C13 C12 1_555 1_555
H6 C13 1_555 1_555
C14 C13 1_555 1_555
C15 C14 1_555 1_555
H7 C15 1_555 1_555
C16 C11 1_555 1_555
H8 C16 1_555 1_555
C17 C14 1_555 1_555
C18 N1 1_555 1_555
H9 C18 1_555 1_555
C19 C18 1_555 1_555
H10 C19 1_555 1_555
C20 N1 1_555 1_555
H11 C20 1_555 1_555
C21 N2 1_555 1_555
H12 C21 1_555 1_555
H13 C21 1_555 1_555
C22 C21 1_555 1_555
C23 C22 1_555 1_555
H14 C23 1_555 1_555
C24 C23 1_555 1_555
H15 C24 1_555 1_555
C25 C24 1_555 1_555
H16 C25 1_555 1_555
C26 C25 1_555 1_555
C27 C22 1_555 1_555
H17 C27 1_555 1_555
C28 C26 1_555 1_555
H18 C28 1_555 1_555
H19 C28 1_555 1_555
C29 N3 1_555 1_555
H20 C29 1_555 1_555
C30 N4 1_555 1_555
H21 C30 1_555 1_555
C31 N3 1_555 1_555
H22 C31 1_555 1_555
Ni1_2 O4 1_555 1_555
Ni1A N4 1_555 1_555
Ni1B O3 1_555 1_555
O3B Ni1 1_555 1_555
O4_2 Ni1 1_555 1_555
N4A Ni1 1_555 1_555
N2 C20 1_555 1_555
C6 C7 1_555 1_555
C15 C16 1_555 1_555
C26 C27 1_555 1_555
C30 C31 1_555 1_555

#END
