
#######################################################################
#
#                 Cambridge Crystallographic Data Centre
#                                CCDC 
#
#######################################################################
#
# If this CIF has been generated from an entry in the Cambridge 
# Structural Database, then it will include bibliographic, chemical, 
# crystal, experimental, refinement or atomic coordinate data resulting 
# from the CCDC's data processing and validation procedures.
#
#######################################################################

data_FIWWEP
_symmetry_cell_setting           monoclinic
_symmetry_space_group_name_H-M   'P 21/c'
_symmetry_Int_Tables_number      14
_space_group_name_Hall           '-P 2ybc'
loop_
_symmetry_equiv_pos_site_id
_symmetry_equiv_pos_as_xyz
1 x,y,z
2 -x,1/2+y,1/2-z
3 -x,-y,-z
4 x,1/2-y,1/2+z
_cell_length_a                   15.5290(7)
_cell_length_b                   9.5600(5)
_cell_length_c                   29.9519(15)
_cell_angle_alpha                90
_cell_angle_beta                 109.376(4)
_cell_angle_gamma                90
_cell_volume                     4194.73
loop_
_atom_site_label
_atom_site_type_symbol
_atom_site_fract_x
_atom_site_fract_y
_atom_site_fract_z
Co1 Co 0.32495(5) 0.41809(7) 0.40368(2)
S1 S 0.30229(10) 0.40004(14) 0.47498(4)
S2 S 0.22385(9) 0.53681(14) 0.34142(4)
Si1 Si 0.20861(10) 0.24217(15) 0.47472(4)
Si2 Si 0.27299(10) 0.47653(15) 0.28766(5)
O1 O 0.2353(2) 0.1660(3) 0.52625(10)
O2 O 0.2137(2) 0.1225(3) 0.43671(10)
O3 O 0.1060(2) 0.3002(4) 0.46404(10)
O4 O 0.2414(2) 0.3202(3) 0.26643(11)
O5 O 0.2420(2) 0.5803(3) 0.24210(10)
O6 O 0.3848(2) 0.4671(3) 0.30955(10)
N1 N 0.4434(3) 0.5249(4) 0.41312(13)
H1 H 0.4904 0.4773 0.4348
H2 H 0.4549 0.5258 0.3849
N2 N 0.3404(3) 1.2161(4) 0.38465(13)
H3 H 0.2893 1.1661 0.3839
H4 H 0.3431 1.2166 0.3544
C1 C 0.2144(4) 0.1978(5) 0.56876(16)
C2 C 0.1158(4) 0.1618(6) 0.56150(19)
H5 H 0.1058 0.0618 0.5546
H6 H 0.0759 0.2162 0.5349
H7 H 0.1018 0.1843 0.5903
C3 C 0.2770(4) 0.1065(6) 0.60696(17)
H8 H 0.3406 0.1304 0.6113
H9 H 0.2661 0.008 0.5977
H10 H 0.2649 0.1217 0.6367
C4 C 0.2330(4) 0.3515(5) 0.58134(18)
H11 H 0.1926 0.4093 0.556
H12 H 0.2967 0.3731 0.5851
H13 H 0.2217 0.3711 0.611
C5 C 0.1859(4) -0.0242(5) 0.43321(17)
C6 C 0.1011(4) -0.0429(6) 0.44706(19)
H14 H 0.0517 0.0154 0.4267
H15 H 0.1144 -0.0149 0.4801
H16 H 0.0823 -0.1413 0.4433
C7 C 0.2646(4) -0.1077(5) 0.46560(17)
H17 H 0.2757 -0.0792 0.4985
H18 H 0.3195 -0.0906 0.4572
H19 H 0.2496 -0.2076 0.4622
C8 C 0.1650(4) -0.0663(5) 0.38191(16)
H20 H 0.22 -0.0556 0.3731
H21 H 0.1164 -0.0064 0.3617
H22 H 0.1451 -0.1641 0.3778
C9 C 0.0421(4) 0.3795(6) 0.42629(17)
C10 C -0.0504(4) 0.3510(8) 0.43117(19)
H23 H -0.0499 0.3812 0.4625
H24 H -0.0635 0.2506 0.4274
H25 H -0.0975 0.4028 0.4067
C11 C 0.0674(5) 0.5332(6) 0.4320(2)
H26 H 0.1274 0.5464 0.4285
H27 H 0.0696 0.5648 0.4635
H28 H 0.0216 0.5876 0.4078
C12 C 0.0441(4) 0.3285(6) 0.37824(16)
H29 H 0.0291 0.2286 0.3747
H30 H 0.1052 0.3431 0.3763
H31 H -0.0007 0.3809 0.3529
C13 C 0.1519(4) 0.2599(5) 0.24323(17)
C14 C 0.1310(4) 0.1651(6) 0.27888(18)
H32 H 0.1262 0.2212 0.3053
H33 H 0.1801 0.0963 0.2907
H34 H 0.0731 0.1164 0.2636
C15 C 0.1612(4) 0.1750(6) 0.20232(18)
H35 H 0.2112 0.1078 0.2142
H36 H 0.1742 0.2378 0.1795
H37 H 0.1041 0.1246 0.1868
C16 C 0.0775(4) 0.3704(6) 0.2256(2)
H38 H 0.0928 0.4333 0.2035
H39 H 0.0728 0.4243 0.2525
H40 H 0.019 0.3245 0.2094
C17 C 0.2325(4) 0.7309(5) 0.23716(16)
C18 C 0.3136(4) 0.8014(6) 0.27380(18)
H41 H 0.3703 0.77 0.2695
H42 H 0.3143 0.7764 0.3057
H43 H 0.3081 0.9031 0.2698
C19 C 0.1421(4) 0.7738(6) 0.24251(18)
H44 H 0.1432 0.7528 0.2747
H45 H 0.0922 0.7217 0.2198
H46 H 0.1325 0.8743 0.2365
C20 C 0.2341(4) 0.7602(6) 0.18746(17)
H47 H 0.1851 0.7075 0.1644
H48 H 0.2931 0.7314 0.1852
H49 H 0.2251 0.8605 0.1807
C21 C 0.4520(4) 0.4143(6) 0.28937(16)
C22 C 0.4170(4) 0.4205(6) 0.23569(16)
H50 H 0.4007 0.5171 0.2254
H51 H 0.363 0.3606 0.2235
H52 H 0.4647 0.3877 0.2235
C23 C 0.5350(4) 0.5062(6) 0.30893(18)
H53 H 0.5573 0.5001 0.3436
H54 H 0.5187 0.6033 0.2993
H55 H 0.5829 0.4747 0.2967
C24 C 0.4739(4) 0.2642(6) 0.30592(18)
H56 H 0.4182 0.2076 0.2947
H57 H 0.498 0.2617 0.3406
H58 H 0.5196 0.2264 0.2931
C25 C 0.4434(4) 0.6719(5) 0.42970(17)
H59 H 0.4531 0.6714 0.4641
H60 H 0.3828 0.714 0.4135
C26 C 0.5164(4) 0.7618(5) 0.42049(17)
H61 H 0.5095 0.757 0.3865
H62 H 0.5773 0.724 0.4387
C27 C 0.5109(4) 0.9158(5) 0.43452(16)
H63 H 0.5019 0.919 0.4657
H64 H 0.5696 0.9624 0.4378
C28 C 0.4339(4) 0.9964(5) 0.39875(16)
H65 H 0.4471 1.0038 0.3687
H66 H 0.3763 0.9434 0.3923
C29 C 0.4212(4) 1.1426(5) 0.41565(16)
H67 H 0.4164 1.1357 0.4477
H68 H 0.4761 1.199 0.4182
Co1_2 Co 0.32495(5) 1.41809(7) 0.40368(2)
N2_2 N 0.3404(3) 0.2161(4) 0.38465(13)
O7 O 0.6261(3) 0.3668(4) 0.44345(13)
H69 H 0.6536 0.4304 0.4621
C30 C 0.6874(4) 0.3005(6) 0.4243(2)
H70 H 0.6995 0.3623 0.401
H71 H 0.6604 0.2129 0.4089
H72 H 0.7447 0.2803 0.4497
loop_
_geom_bond_atom_site_label_1
_geom_bond_atom_site_label_2
_geom_bond_site_symmetry_1
_geom_bond_site_symmetry_2
Co1 S1 1_555 1_555
S1 Si1 1_555 1_555
S2 Co1 1_555 1_555
Si1 O1 1_555 1_555
Si2 S2 1_555 1_555
O1 C1 1_555 1_555
O2 Si1 1_555 1_555
O3 Si1 1_555 1_555
O4 Si2 1_555 1_555
O5 Si2 1_555 1_555
O6 Si2 1_555 1_555
N1 Co1 1_555 1_555
H1 N1 1_555 1_555
H2 N1 1_555 1_555
N2 H3 1_555 1_555
H4 N2 1_555 1_555
C1 C2 1_555 1_555
C2 H5 1_555 1_555
H6 C2 1_555 1_555
H7 C2 1_555 1_555
C3 C1 1_555 1_555
H8 C3 1_555 1_555
H9 C3 1_555 1_555
H10 C3 1_555 1_555
C4 C1 1_555 1_555
H11 C4 1_555 1_555
H12 C4 1_555 1_555
H13 C4 1_555 1_555
C5 O2 1_555 1_555
C6 C5 1_555 1_555
H14 C6 1_555 1_555
H15 C6 1_555 1_555
H16 C6 1_555 1_555
C7 C5 1_555 1_555
H17 C7 1_555 1_555
H18 C7 1_555 1_555
H19 C7 1_555 1_555
C8 C5 1_555 1_555
H20 C8 1_555 1_555
H21 C8 1_555 1_555
H22 C8 1_555 1_555
C9 O3 1_555 1_555
C10 C9 1_555 1_555
H23 C10 1_555 1_555
H24 C10 1_555 1_555
H25 C10 1_555 1_555
C11 C9 1_555 1_555
H26 C11 1_555 1_555
H27 C11 1_555 1_555
H28 C11 1_555 1_555
C12 C9 1_555 1_555
H29 C12 1_555 1_555
H30 C12 1_555 1_555
H31 C12 1_555 1_555
C13 O4 1_555 1_555
C14 C13 1_555 1_555
H32 C14 1_555 1_555
H33 C14 1_555 1_555
H34 C14 1_555 1_555
C15 C13 1_555 1_555
H35 C15 1_555 1_555
H36 C15 1_555 1_555
H37 C15 1_555 1_555
C16 C13 1_555 1_555
H38 C16 1_555 1_555
H39 C16 1_555 1_555
H40 C16 1_555 1_555
C17 O5 1_555 1_555
C18 C17 1_555 1_555
H41 C18 1_555 1_555
H42 C18 1_555 1_555
H43 C18 1_555 1_555
C19 C17 1_555 1_555
H44 C19 1_555 1_555
H45 C19 1_555 1_555
H46 C19 1_555 1_555
C20 C17 1_555 1_555
H47 C20 1_555 1_555
H48 C20 1_555 1_555
H49 C20 1_555 1_555
C21 O6 1_555 1_555
C22 C21 1_555 1_555
H50 C22 1_555 1_555
H51 C22 1_555 1_555
H52 C22 1_555 1_555
C23 C21 1_555 1_555
H53 C23 1_555 1_555
H54 C23 1_555 1_555
H55 C23 1_555 1_555
C24 C21 1_555 1_555
H56 C24 1_555 1_555
H57 C24 1_555 1_555
H58 C24 1_555 1_555
C25 N1 1_555 1_555
H59 C25 1_555 1_555
H60 C25 1_555 1_555
C26 C25 1_555 1_555
H61 C26 1_555 1_555
H62 C26 1_555 1_555
C27 C26 1_555 1_555
H63 C27 1_555 1_555
H64 C27 1_555 1_555
C28 C27 1_555 1_555
H65 C28 1_555 1_555
H66 C28 1_555 1_555
C29 N2 1_555 1_555
H67 C29 1_555 1_555
H68 C29 1_555 1_555
O7 H69 1_555 1_555
C30 O7 1_555 1_555
H70 C30 1_555 1_555
H71 C30 1_555 1_555
H72 C30 1_555 1_555
Co1_2 N2 1_555 1_555
N2_2 Co1 1_555 1_555
C28 C29 1_555 1_555

#END
