
#######################################################################
#
#                 Cambridge Crystallographic Data Centre
#                                CCDC 
#
#######################################################################
#
# If this CIF has been generated from an entry in the Cambridge 
# Structural Database, then it will include bibliographic, chemical, 
# crystal, experimental, refinement or atomic coordinate data resulting 
# from the CCDC's data processing and validation procedures.
#
#######################################################################

data_FIXCEW
_symmetry_cell_setting           triclinic
_symmetry_space_group_name_H-M   'P -1'
_symmetry_Int_Tables_number      2
_space_group_name_Hall           '-P 1'
loop_
_symmetry_equiv_pos_site_id
_symmetry_equiv_pos_as_xyz
1 x,y,z
2 -x,-y,-z
_cell_length_a                   8.5095(7)
_cell_length_b                   8.9230(8)
_cell_length_c                   12.0313(10)
_cell_angle_alpha                96.7150(10)
_cell_angle_beta                 103.9440(10)
_cell_angle_gamma                106.1360(10)
_cell_volume                     834.957
loop_
_atom_site_label
_atom_site_type_symbol
_atom_site_fract_x
_atom_site_fract_y
_atom_site_fract_z
Cu1 Cu 0.46915(3) 0.02324(3) 0.39183(2)
O1 O 0.4695(2) 0.1718(2) 0.63486(15)
O2 O 0.4088(2) 0.2077(2) 0.45051(15)
O3 O -0.2286(2) 0.1076(2) 0.64082(14)
O4 O -0.2846(2) 0.1453(2) 0.45708(14)
N1 N 0.4933(3) 0.0856(2) 0.22526(17)
N2 N 0.8430(3) 0.3734(2) -0.01621(17)
C1 C 0.4167(3) 0.2432(3) 0.5565(2)
C2 C 0.3626(3) 0.3852(3) 0.5947(2)
H1 H 0.4663 0.4816 0.6167
C3 C 0.2282(3) 0.4147(3) 0.4974(2)
H2 H 0.2198 0.5218 0.5204
H3 H 0.2652 0.4129 0.4254
C4 C 0.0522(3) 0.2908(3) 0.4714(2)
H4 H -0.0318 0.3201 0.4128
H5 H 0.0563 0.1858 0.4378
C5 C -0.0057(3) 0.2790(3) 0.5817(2)
H6 H -0.0073 0.3875 0.6126
C6 C 0.1265(3) 0.2418(3) 0.6753(2)
H7 H 0.1365 0.1369 0.6475
H8 H 0.0893 0.2367 0.7471
C7 C 0.2998(3) 0.3703(3) 0.7029(2)
H9 H 0.2905 0.4737 0.7351
H10 H 0.3844 0.3442 0.7632
C8 C -0.1864(3) 0.1671(3) 0.5579(2)
C9 C 0.6321(3) 0.0732(3) 0.1958(2)
H11 H 0.6946 0.0127 0.2359
C10 C 0.6888(3) 0.1432(3) 0.1108(2)
H12 H 0.7880 0.1308 0.0931
C11 C 0.6001(3) 0.2320(3) 0.0509(2)
C12 C 0.4546(3) 0.2416(3) 0.0790(2)
H13 H 0.3878 0.2986 0.0386
C13 C 0.4063(3) 0.1684(3) 0.1657(2)
H14 H 0.3063 0.1773 0.1839
C14 C 0.6583(3) 0.3147(3) -0.0412(2)
H15 H 0.6097 0.2395 -0.1173
H16 H 0.6132 0.4052 -0.0481
C15 C 0.9199(3) 0.4987(3) 0.0892(2)
H17 H 0.8913 0.4556 0.1565
H18 H 0.8718 0.5869 0.0787
C16 C 0.8895(3) 0.4384(3) -0.1144(2)
H19 H 0.8405 0.5252 -0.1286
H20 H 0.8413 0.3540 -0.1858
N1A N 1.5067(3) 0.9144(2) -0.22526(17)
N2A N 1.1570(3) 0.6266(2) 0.01621(17)
C9A C 1.3679(3) 0.9268(3) -0.1958(2)
H11A H 1.3054 0.9873 -0.2359
C10A C 1.3112(3) 0.8568(3) -0.1108(2)
H12A H 1.2120 0.8692 -0.0931
C11A C 1.3999(3) 0.7680(3) -0.0509(2)
C12A C 1.5454(3) 0.7584(3) -0.0790(2)
H13A H 1.6122 0.7014 -0.0386
C13A C 1.5937(3) 0.8316(3) -0.1657(2)
H14A H 1.6937 0.8227 -0.1839
C14A C 1.3417(3) 0.6853(3) 0.0412(2)
H15A H 1.3903 0.7605 0.1173
H16A H 1.3868 0.5948 0.0481
C15A C 1.0801(3) 0.5013(3) -0.0892(2)
H17A H 1.1087 0.5444 -0.1565
H18A H 1.1282 0.4131 -0.0787
C16A C 1.1105(3) 0.5616(3) 0.1144(2)
H19A H 1.1595 0.4748 0.1286
H20A H 1.1587 0.6460 0.1858
Cu1A Cu -0.46915(3) -0.02324(3) 0.60817(2)
O1A O -0.4695(2) -0.1718(2) 0.36514(15)
O2A O -0.4088(2) -0.2077(2) 0.54949(15)
O3A O 0.2286(2) -0.1076(2) 0.35918(14)
O4A O 0.2846(2) -0.1453(2) 0.54292(14)
C1A C -0.4167(3) -0.2432(3) 0.4435(2)
C2A C -0.3626(3) -0.3852(3) 0.4053(2)
H1A H -0.4663 -0.4816 0.3833
C3A C -0.2282(3) -0.4147(3) 0.5026(2)
H2A H -0.2198 -0.5218 0.4796
H3A H -0.2652 -0.4129 0.5746
C4A C -0.0522(3) -0.2908(3) 0.5286(2)
H4A H 0.0318 -0.3201 0.5872
H5A H -0.0563 -0.1858 0.5622
C5A C 0.0057(3) -0.2790(3) 0.4183(2)
H6A H 0.0073 -0.3875 0.3874
C6A C -0.1265(3) -0.2418(3) 0.3247(2)
H7A H -0.1365 -0.1369 0.3525
H8A H -0.0893 -0.2367 0.2529
C7A C -0.2998(3) -0.3703(3) 0.2971(2)
H9A H -0.2905 -0.4737 0.2649
H10A H -0.3844 -0.3442 0.2368
C8A C 0.1864(3) -0.1671(3) 0.4421(2)
Cu1_2 Cu -0.53085(3) 0.02324(3) 0.39183(2)
Cu1A_2 Cu 0.53085(3) -0.02324(3) 0.60817(2)
Cu1A_3 Cu 1.53085(3) 0.97676(3) -0.39183(2)
O1_2 O -0.5305(2) 0.1718(2) 0.63486(15)
O1A_2 O 0.5305(2) -0.1718(2) 0.36514(15)
O4_2 O 0.7154(2) 0.1453(2) 0.45708(14)
O4A_2 O -0.7154(2) -0.1453(2) 0.54292(14)
N1A_2 N -0.4933(3) -0.0856(2) 0.77474(17)
O5 O -0.0136(12) 0.1142(7) 0.9234(8)
H21 H -0.045(10) 0.196(6) 0.922(3)
H22 H 0.0411 0.0915 0.9844
loop_
_geom_bond_atom_site_label_1
_geom_bond_atom_site_label_2
_geom_bond_site_symmetry_1
_geom_bond_site_symmetry_2
Cu1 O2 1_555 1_555
O1 C1 1_555 1_555
O2 C1 1_555 1_555
O3 C8 1_555 1_555
O4 C8 1_555 1_555
N1 Cu1 1_555 1_555
N2 C14 1_555 1_555
C1 C2 1_555 1_555
C2 H1 1_555 1_555
C3 C2 1_555 1_555
H2 C3 1_555 1_555
H3 C3 1_555 1_555
C4 C3 1_555 1_555
H4 C4 1_555 1_555
H5 C4 1_555 1_555
C5 C4 1_555 1_555
H6 C5 1_555 1_555
C6 C5 1_555 1_555
H7 C6 1_555 1_555
H8 C6 1_555 1_555
C7 C2 1_555 1_555
H9 C7 1_555 1_555
H10 C7 1_555 1_555
C8 C5 1_555 1_555
C9 N1 1_555 1_555
H11 C9 1_555 1_555
C10 C9 1_555 1_555
H12 C10 1_555 1_555
C11 C10 1_555 1_555
C12 C11 1_555 1_555
H13 C12 1_555 1_555
C13 N1 1_555 1_555
H14 C13 1_555 1_555
C14 C11 1_555 1_555
H15 C14 1_555 1_555
H16 C14 1_555 1_555
C15 N2 1_555 1_555
H17 C15 1_555 1_555
H18 C15 1_555 1_555
C16 N2 1_555 1_555
H19 C16 1_555 1_555
H20 C16 1_555 1_555
O5 H21 1_555 1_555
H22 O5 1_555 1_555
N1A C9A 1_555 1_555
N2A C14A 1_555 1_555
C9A H11A 1_555 1_555
C10A C9A 1_555 1_555
H12A C10A 1_555 1_555
C11A C10A 1_555 1_555
C12A C11A 1_555 1_555
H13A C12A 1_555 1_555
C13A N1A 1_555 1_555
H14A C13A 1_555 1_555
C14A C11A 1_555 1_555
H15A C14A 1_555 1_555
H16A C14A 1_555 1_555
C15A C16 1_555 1_555
H17A C15A 1_555 1_555
H18A C15A 1_555 1_555
C16A C15 1_555 1_555
H19A C16A 1_555 1_555
H20A C16A 1_555 1_555
Cu1A O3 1_555 1_555
O1A C1A 1_555 1_555
O2A Cu1A 1_555 1_555
O3A Cu1 1_555 1_555
O4A C8A 1_555 1_555
C1A O2A 1_555 1_555
C2A C1A 1_555 1_555
H1A C2A 1_555 1_555
C3A C2A 1_555 1_555
H2A C3A 1_555 1_555
H3A C3A 1_555 1_555
C4A C3A 1_555 1_555
H4A C4A 1_555 1_555
H5A C4A 1_555 1_555
C5A C4A 1_555 1_555
H6A C5A 1_555 1_555
C6A C5A 1_555 1_555
H7A C6A 1_555 1_555
H8A C6A 1_555 1_555
C7A C2A 1_555 1_555
H9A C7A 1_555 1_555
H10A C7A 1_555 1_555
C8A O3A 1_555 1_555
Cu1_2 O4 1_555 1_555
Cu1A_2 Cu1 1_555 1_555
Cu1A_3 N1A 1_555 1_555
O1_2 Cu1A 1_555 1_555
O1A_2 Cu1 1_555 1_555
O4_2 Cu1 1_555 1_555
O4A_2 Cu1A 1_555 1_555
N1A_2 Cu1A 1_555 1_555
O1 Cu1A_2 1_555 1_555
C6 C7 1_555 1_555
C12 C13 1_555 1_555
N2A C15A 1_555 1_555
N2A C16A 1_555 1_555
C12A C13A 1_555 1_555
Cu1A Cu1_2 1_555 1_555
O1A Cu1_2 1_555 1_555
O4A Cu1A_2 1_555 1_555
C5A C8A 1_555 1_555
C6A C7A 1_555 1_555

#END
