
#######################################################################
#
#                 Cambridge Crystallographic Data Centre
#                                CCDC 
#
#######################################################################
#
# If this CIF has been generated from an entry in the Cambridge 
# Structural Database, then it will include bibliographic, chemical, 
# crystal, experimental, refinement or atomic coordinate data resulting 
# from the CCDC's data processing and validation procedures.
#
#######################################################################

data_FIXCAS
_symmetry_cell_setting           triclinic
_symmetry_space_group_name_H-M   'P -1'
_symmetry_Int_Tables_number      2
_space_group_name_Hall           '-P 1'
loop_
_symmetry_equiv_pos_site_id
_symmetry_equiv_pos_as_xyz
1 x,y,z
2 -x,-y,-z
_cell_length_a                   6.6780(8)
_cell_length_b                   10.9964(13)
_cell_length_c                   11.7222(14)
_cell_angle_alpha                111.2010(10)
_cell_angle_beta                 92.8630(10)
_cell_angle_gamma                104.8880(10)
_cell_volume                     765.793
loop_
_atom_site_label
_atom_site_type_symbol
_atom_site_fract_x
_atom_site_fract_y
_atom_site_fract_z
Cu1 Cu 0.5000 0.0000 0.0000
O1 O 0.9757(2) 0.19477(15) 0.05987(17)
O2 O 0.3877(2) 0.37808(15) 0.59843(14)
O3 O 0.6501(2) 0.16837(13) -0.01791(13)
N1 N 0.1188(3) 0.41219(17) 0.50205(15)
N2 N 0.4293(2) 0.11060(16) 0.16316(15)
C1 C 0.0806(3) 0.5056(2) 0.61836(19)
H1 H 0.2013 0.5338 0.6844
H2 H -0.0462 0.4590 0.6438
C2 C 0.3537(3) 0.3139(2) 0.28738(19)
H3 H 0.3404 0.4007 0.2964
C3 C 1.1480(3) 0.4308(2) 0.0236(2)
H4 H 1.2343 0.3685 -0.0084
H5 H 1.1711 0.4637 0.1152
C4 C 0.3164(3) 0.2666(2) 0.38122(19)
C5 C 0.9180(3) 0.35284(19) -0.02572(19)
H6 H 0.9017 0.3175 -0.1182
C6 C 0.3391(3) 0.1390(2) 0.36345(19)
H7 H 0.3177 0.1039 0.4264
C7 C 0.2731(3) 0.3551(2) 0.50312(19)
C8 C -0.0501(3) 0.3698(2) 0.39904(19)
H8 H -0.1818 0.3183 0.4163
H9 H -0.0147 0.3091 0.3222
C9 C 0.4100(3) 0.23470(19) 0.1815(2)
H10 H 0.4365 0.2689 0.1183
C10 C 0.3930(3) 0.06452(19) 0.25392(19)
H11 H 0.4050 -0.0234 0.2419
C11 C 0.8445(3) 0.22964(19) 0.00922(18)
C12 C 0.7814(3) 0.4477(2) 0.0143(2)
H12 H 0.7885 0.4813 0.1054
H13 H 0.6337 0.3962 -0.0240
O4 O 0.1790(2) 0.02420(16) -0.11169(15)
H14 H 0.125(4) -0.0514(18) -0.104(2)
H15 H 0.125(4) 0.081(2) -0.068(2)
O1A O 1.0243(2) 0.80523(15) -0.05987(17)
O3A O 1.3499(2) 0.83163(13) 0.01791(13)
C3A C 0.8520(3) 0.5692(2) -0.0236(2)
H4A H 0.7657 0.6315 0.0084
H5A H 0.8289 0.5363 -0.1152
C5A C 1.0820(3) 0.64716(19) 0.02572(19)
H6A H 1.0983 0.6825 0.1182
C11A C 1.1555(3) 0.77036(19) -0.00922(18)
C12A C 1.2186(3) 0.5523(2) -0.0143(2)
H12A H 1.2115 0.5187 -0.1054
H13A H 1.3663 0.6038 0.0240
O2A O -0.3877(2) 0.62192(15) 0.40157(14)
N1A N -0.1188(3) 0.58781(17) 0.49795(15)
N2A N -0.4293(2) 0.88940(16) 0.83684(15)
C1A C -0.0806(3) 0.4944(2) 0.38164(19)
H1A H -0.2013 0.4662 0.3156
H2A H 0.0462 0.5410 0.3562
C2A C -0.3537(3) 0.6861(2) 0.71262(19)
H3A H -0.3404 0.5993 0.7036
C4A C -0.3164(3) 0.7334(2) 0.61878(19)
C6A C -0.3391(3) 0.8610(2) 0.63655(19)
H7A H -0.3177 0.8961 0.5736
C7A C -0.2731(3) 0.6449(2) 0.49688(19)
C8A C 0.0501(3) 0.6302(2) 0.60096(19)
H8A H 0.1818 0.6817 0.5837
H9A H 0.0147 0.6909 0.6778
C9A C -0.4100(3) 0.76530(19) 0.8185(2)
H10A H -0.4365 0.7311 0.8817
C10A C -0.3930(3) 0.93548(19) 0.74608(19)
H11A H -0.4050 1.0234 0.7581
O4A O 0.8210(2) -0.02420(16) 0.11169(15)
H14A H 0.875(4) 0.0514(18) 0.104(2)
H15A H 0.875(4) -0.081(2) 0.068(2)
Cu1_2 Cu -0.5000 1.0000 1.0000
Cu1_3 Cu 1.5000 1.0000 0.0000
O3A_2 O 0.3499(2) -0.16837(13) 0.01791(13)
N2A_2 N 0.5707(2) -0.11060(16) -0.16316(15)
O5 O 0.5892(3) 0.2277(2) -0.31771(18)
H16 H 0.549(4) 0.281(3) -0.341(3)
H17 H 0.680(4) 0.203(3) -0.359(2)
O6 O 0.1972(3) 0.0646(2) -0.33092(18)
H18 H 0.181(4) 0.049(3) -0.266(2)
H19 H 0.322(3) 0.115(3) -0.322(3)
O7 O -0.0967(3) 0.15283(19) -0.4408(2)
H20 H -0.009(4) 0.137(3) -0.400(2)
H21 H -0.133(5) 0.084(2) -0.5087(19)
loop_
_geom_bond_atom_site_label_1
_geom_bond_atom_site_label_2
_geom_bond_site_symmetry_1
_geom_bond_site_symmetry_2
Cu1 O3 1_555 1_555
O1 C11 1_555 1_555
O2 C7 1_555 1_555
O3 C11 1_555 1_555
N1 C1 1_555 1_555
N2 Cu1 1_555 1_555
C1 H1 1_555 1_555
H2 C1 1_555 1_555
C2 H3 1_555 1_555
C3 H4 1_555 1_555
H5 C3 1_555 1_555
C4 C2 1_555 1_555
C5 C3 1_555 1_555
H6 C5 1_555 1_555
C6 C4 1_555 1_555
H7 C6 1_555 1_555
C7 N1 1_555 1_555
C8 N1 1_555 1_555
H8 C8 1_555 1_555
H9 C8 1_555 1_555
C9 N2 1_555 1_555
H10 C9 1_555 1_555
C10 N2 1_555 1_555
H11 C10 1_555 1_555
C11 C5 1_555 1_555
C12 C5 1_555 1_555
H12 C12 1_555 1_555
H13 C12 1_555 1_555
O4 Cu1 1_555 1_555
H14 O4 1_555 1_555
H15 O4 1_555 1_555
O5 H16 1_555 1_555
H17 O5 1_555 1_555
O6 H18 1_555 1_555
H19 O6 1_555 1_555
O7 H20 1_555 1_555
H21 O7 1_555 1_555
O1A C11A 1_555 1_555
O3A C11A 1_555 1_555
C3A C12 1_555 1_555
H4A C3A 1_555 1_555
H5A C3A 1_555 1_555
C5A C3A 1_555 1_555
H6A C5A 1_555 1_555
C11A C5A 1_555 1_555
C12A C3 1_555 1_555
H12A C12A 1_555 1_555
H13A C12A 1_555 1_555
O2A C7A 1_555 1_555
N1A C1A 1_555 1_555
N2A C9A 1_555 1_555
C1A C8 1_555 1_555
H1A C1A 1_555 1_555
H2A C1A 1_555 1_555
C2A H3A 1_555 1_555
C4A C2A 1_555 1_555
C6A C4A 1_555 1_555
H7A C6A 1_555 1_555
C7A N1A 1_555 1_555
C8A C1 1_555 1_555
H8A C8A 1_555 1_555
H9A C8A 1_555 1_555
C9A C2A 1_555 1_555
H10A C9A 1_555 1_555
C10A N2A 1_555 1_555
H11A C10A 1_555 1_555
O4A Cu1 1_555 1_555
H14A O4A 1_555 1_555
H15A O4A 1_555 1_555
Cu1_2 N2A 1_555 1_555
Cu1_3 O3A 1_555 1_555
O3A_2 Cu1 1_555 1_555
N2A_2 Cu1 1_555 1_555
C2 C9 1_555 1_555
C4 C7 1_555 1_555
C6 C10 1_555 1_555
C5A C12A 1_555 1_555
N1A C8A 1_555 1_555
C4A C7A 1_555 1_555
C6A C10A 1_555 1_555

#END
