
#######################################################################
#
#                 Cambridge Crystallographic Data Centre
#                                CCDC 
#
#######################################################################
#
# If this CIF has been generated from an entry in the Cambridge 
# Structural Database, then it will include bibliographic, chemical, 
# crystal, experimental, refinement or atomic coordinate data resulting 
# from the CCDC's data processing and validation procedures.
#
#######################################################################

data_FIXGAV
_symmetry_cell_setting           monoclinic
_symmetry_space_group_name_H-M   'P n'
_symmetry_Int_Tables_number      7
_space_group_name_Hall           'P -2yac'
loop_
_symmetry_equiv_pos_site_id
_symmetry_equiv_pos_as_xyz
1 x,y,z
2 1/2+x,-y,1/2+z
_cell_length_a                   7.7210(15)
_cell_length_b                   9.2375(18)
_cell_length_c                   10.602(2)
_cell_angle_alpha                90
_cell_angle_beta                 96.10(3)
_cell_angle_gamma                90
_cell_volume                     751.882
loop_
_atom_site_label
_atom_site_type_symbol
_atom_site_fract_x
_atom_site_fract_y
_atom_site_fract_z
Zn1 Zn 0.44991(6) 0.26155(2) 0.22950(6)
C1 C 0.4334(5) 0.2219(3) -0.0637(4)
H1 H 0.4465 0.3220 -0.0655
C2 C 0.4189(5) 0.1466(4) -0.1764(4)
H2 H 0.4223 0.1950 -0.2530
C3 C 0.3994(6) -0.0011(4) -0.1738(4)
H3 H 0.3891 -0.0539 -0.2489
C4 C 0.3951(4) -0.0706(3) -0.0590(3)
H4 H 0.3823 -0.1706 -0.0556
C5 C 0.4100(3) 0.0108(3) 0.0506(3)
C6 C 0.4053(4) -0.0521(3) 0.1797(3)
C7 C 0.3779(5) -0.1998(3) 0.1989(4)
H5 H 0.3618 -0.2632 0.1305
C8 C 0.3752(7) -0.2498(3) 0.3223(5)
H6 H 0.3560 -0.3475 0.3371
C9 C 0.4006(5) -0.1553(4) 0.4222(4)
H7 H 0.4003 -0.1874 0.5053
C10 C 0.4269(5) -0.0108(4) 0.3956(4)
H8 H 0.4439 0.0540 0.4629
C11 C 0.5510(3) 0.4201(3) 0.4855(3)
H9 H 0.6628 0.4148 0.4608
C12 C 0.5234(3) 0.5066(3) 0.5882(3)
C13 C 0.3566(3) 0.5145(3) 0.6281(2)
C14 C 0.2255(3) 0.4340(3) 0.5599(3)
H10 H 0.1125 0.4368 0.5827
C15 C 0.2634(3) 0.3506(3) 0.4589(3)
H11 H 0.1742 0.2967 0.4156
C16 C 0.6699(3) 0.6011(3) 0.6468(2)
C17 C 0.3160(3) 0.5991(3) 0.7432(3)
N1 N 0.4237(3) 0.3433(2) 0.4197(2)
N2 N 0.4293(3) 0.1557(2) 0.0484(2)
N3 N 0.4290(3) 0.0399(2) 0.2776(2)
O1 O 0.6354(3) 0.7231(2) 0.6846(2)
O2 O 0.8238(2) 0.5511(2) 0.6521(2)
O3 O 0.1990(3) 0.6953(2) 0.7222(2)
O4 O 0.3954(3) 0.5664(3) 0.8461(2)
Zn1A Zn 0.94991(6) 0.73845(2) 0.72950(6)
Zn1A_2 Zn -0.05009(6) 0.73845(2) 0.72950(6)
O1A O 0.1354(3) 0.2769(2) 0.1846(2)
O2A O 0.3238(2) 0.4489(2) 0.1521(2)
O3A O 0.6990(3) 0.3047(2) 0.2222(2)
loop_
_geom_bond_atom_site_label_1
_geom_bond_atom_site_label_2
_geom_bond_site_symmetry_1
_geom_bond_site_symmetry_2
Zn1 N1 1_555 1_555
C1 H1 1_555 1_555
C2 C1 1_555 1_555
H2 C2 1_555 1_555
C3 C2 1_555 1_555
H3 C3 1_555 1_555
C4 C3 1_555 1_555
H4 C4 1_555 1_555
C5 C4 1_555 1_555
C6 C5 1_555 1_555
C7 C6 1_555 1_555
H5 C7 1_555 1_555
C8 C7 1_555 1_555
H6 C8 1_555 1_555
C9 C8 1_555 1_555
H7 C9 1_555 1_555
C10 C9 1_555 1_555
H8 C10 1_555 1_555
C11 H9 1_555 1_555
C12 C11 1_555 1_555
C13 C12 1_555 1_555
C14 C13 1_555 1_555
H10 C14 1_555 1_555
C15 C14 1_555 1_555
H11 C15 1_555 1_555
C16 C12 1_555 1_555
C17 C13 1_555 1_555
N1 C11 1_555 1_555
N2 Zn1 1_555 1_555
N3 Zn1 1_555 1_555
O1 C16 1_555 1_555
O2 C16 1_555 1_555
O3 C17 1_555 1_555
O4 C17 1_555 1_555
Zn1A O1 1_555 1_555
Zn1A_2 O3 1_555 1_555
O1A Zn1 1_555 1_555
O2A Zn1 1_555 1_555
O3A Zn1 1_555 1_555
C1 N2 1_555 1_555
C5 N2 1_555 1_555
C6 N3 1_555 1_555
C10 N3 1_555 1_555
C15 N1 1_555 1_555
O2 Zn1A 1_555 1_555

#END
