
#######################################################################
#
#                 Cambridge Crystallographic Data Centre
#                                CCDC 
#
#######################################################################
#
# If this CIF has been generated from an entry in the Cambridge 
# Structural Database, then it will include bibliographic, chemical, 
# crystal, experimental, refinement or atomic coordinate data resulting 
# from the CCDC's data processing and validation procedures.
#
#######################################################################

data_FIXGEZ
_symmetry_cell_setting           monoclinic
_symmetry_space_group_name_H-M   'P 21/n'
_symmetry_Int_Tables_number      14
_space_group_name_Hall           '-P 2yn'
loop_
_symmetry_equiv_pos_site_id
_symmetry_equiv_pos_as_xyz
1 x,y,z
2 1/2-x,1/2+y,1/2-z
3 -x,-y,-z
4 1/2+x,1/2-y,1/2+z
_cell_length_a                   7.0294(14)
_cell_length_b                   17.733(4)
_cell_length_c                   12.420(3)
_cell_angle_alpha                90
_cell_angle_beta                 97.40(3)
_cell_angle_gamma                90
_cell_volume                     1535.29
loop_
_atom_site_label
_atom_site_type_symbol
_atom_site_fract_x
_atom_site_fract_y
_atom_site_fract_z
Cd1 Cd 0.28030(3) 0.108772(13) 0.16500(2)
N1 N 0.2293(4) 0.18794(15) 0.3065(2)
N2 N 0.1254(4) -0.00513(15) 0.1953(2)
C1 C 0.3652(4) 0.21668(17) 0.3791(3)
H1 H 0.4915 0.2042 0.3721
C2 C 0.4121(5) -0.03478(18) 0.3176(3)
N3 N 0.4809(4) 0.03175(15) 0.2871(2)
C3 C 0.1447(4) 0.28113(17) 0.4766(3)
C4 C 0.3353(4) 0.26349(16) 0.4639(3)
C5 C 0.0459(4) 0.20601(19) 0.3175(3)
H2 H -0.0528 0.1868 0.2680
C6 C 0.2141(5) -0.05464(18) 0.2669(3)
C7 C 0.6558(5) 0.0530(2) 0.3307(3)
H3 H 0.7051 0.0980 0.3076
C8 C -0.0516(5) -0.0205(2) 0.1476(3)
H4 H -0.1118 0.0137 0.0976
C9 C 0.1256(5) -0.12122(18) 0.2916(3)
H5 H 0.1895 -0.1555 0.3402
C10 C 0.5192(5) -0.0805(2) 0.3927(3)
H6 H 0.4707 -0.1265 0.4125
C11 C 0.6989(5) -0.0569(2) 0.4380(4)
H7 H 0.7733 -0.0871 0.4881
C12 C 0.0014(4) 0.2520(2) 0.4000(3)
H8 H -0.1262 0.2638 0.4047
C13 C -0.0586(5) -0.1360(2) 0.2430(3)
H9 H -0.1210 -0.1799 0.2599
C14 C 0.7666(5) 0.0114(2) 0.4083(3)
H10 H 0.8851 0.0292 0.4399
C15 C -0.1488(5) -0.0856(2) 0.1698(3)
H11 H -0.2723 -0.0948 0.1358
O1 O 0.4901(3) 0.36047(12) 0.5721(2)
O2 O 0.6533(3) 0.25544(13) 0.5513(2)
C16 C 0.5065(4) 0.29546(18) 0.5357(3)
O3 O -0.0268(3) 0.38243(13) 0.53827(18)
O4 O 0.1200(3) 0.30375(13) 0.6620(2)
C17 C 0.0806(4) 0.32742(18) 0.5684(3)
Cd1C Cd 0.78030(3) 0.391228(13) 0.66500(2)
Cd1C_2 Cd -0.21970(3) 0.391228(13) 0.66500(2)
O1C O -0.0099(3) 0.13953(12) 0.0721(2)
O3C O 0.4732(3) 0.11757(13) 0.03827(18)
loop_
_geom_bond_atom_site_label_1
_geom_bond_atom_site_label_2
_geom_bond_site_symmetry_1
_geom_bond_site_symmetry_2
Cd1 N1 1_555 1_555
N1 C1 1_555 1_555
N2 Cd1 1_555 1_555
C1 H1 1_555 1_555
C2 N3 1_555 1_555
N3 Cd1 1_555 1_555
C3 C4 1_555 1_555
C4 C1 1_555 1_555
C5 N1 1_555 1_555
H2 C5 1_555 1_555
C6 N2 1_555 1_555
C7 N3 1_555 1_555
H3 C7 1_555 1_555
C8 N2 1_555 1_555
H4 C8 1_555 1_555
C9 C6 1_555 1_555
H5 C9 1_555 1_555
C10 C2 1_555 1_555
H6 C10 1_555 1_555
C11 C10 1_555 1_555
H7 C11 1_555 1_555
C12 C3 1_555 1_555
H8 C12 1_555 1_555
C13 C9 1_555 1_555
H9 C13 1_555 1_555
C14 C7 1_555 1_555
H10 C14 1_555 1_555
C15 C8 1_555 1_555
H11 C15 1_555 1_555
O1 C16 1_555 1_555
O2 C16 1_555 1_555
C16 C4 1_555 1_555
O3 C17 1_555 1_555
O4 C17 1_555 1_555
C17 C3 1_555 1_555
Cd1C O1 1_555 1_555
Cd1C_2 O3 1_555 1_555
O1C Cd1 1_555 1_555
O3C Cd1 1_555 1_555
C2 C6 1_555 1_555
C5 C12 1_555 1_555
C11 C14 1_555 1_555
C13 C15 1_555 1_555

#END
