
#######################################################################
#
#                 Cambridge Crystallographic Data Centre
#                                CCDC 
#
#######################################################################
#
# If this CIF has been generated from an entry in the Cambridge 
# Structural Database, then it will include bibliographic, chemical, 
# crystal, experimental, refinement or atomic coordinate data resulting 
# from the CCDC's data processing and validation procedures.
#
#######################################################################

data_FIXPOT
_symmetry_cell_setting           monoclinic
_symmetry_space_group_name_H-M   'P 21/n'
_symmetry_Int_Tables_number      14
_space_group_name_Hall           '-P 2yn'
loop_
_symmetry_equiv_pos_site_id
_symmetry_equiv_pos_as_xyz
1 x,y,z
2 1/2-x,1/2+y,1/2-z
3 -x,-y,-z
4 1/2+x,1/2-y,1/2+z
_cell_length_a                   12.7411(8)
_cell_length_b                   14.9255(9)
_cell_length_c                   13.5881(8)
_cell_angle_alpha                90
_cell_angle_beta                 90.9890(10)
_cell_angle_gamma                90
_cell_volume                     2583.63
loop_
_atom_site_label
_atom_site_type_symbol
_atom_site_fract_x
_atom_site_fract_y
_atom_site_fract_z
Zn1 Zn 0.47304(3) 0.22805(3) 0.14658(3)
O1 O 0.97127(17) -0.15314(16) 0.31208(17)
N1 N 0.3958(2) 0.20680(19) 0.0132(2)
N2 N 0.0370(2) 0.12816(19) -0.0979(2)
H1 H 0.0373 0.1267 -0.1612
O2 O 0.5830(2) 0.13759(19) 0.16462(19)
N3 N 0.3233(2) 0.20327(19) 0.1968(2)
N4 N -0.0218(2) 0.1167(2) 0.0560(2)
C1 C 0.0817(2) 0.1436(2) 0.0572(2)
C2 C 0.1192(2) 0.1509(2) -0.0369(2)
C3 C 0.7215(3) -0.0740(2) 0.3818(2)
C4 C 0.2528(2) 0.1850(2) 0.1226(2)
C5 C 0.2923(2) 0.1887(2) 0.0236(2)
C6 C 0.1475(3) 0.1635(2) 0.1406(2)
O3 O -0.2880(2) 0.0321(2) -0.3132(2)
C7 C 0.5956(3) 0.1314(2) 0.2575(3)
C8 C 0.6448(2) -0.0105(2) 0.3503(2)
C9 C -0.0457(3) 0.1082(2) -0.0392(3)
O4 O 0.5452(2) 0.1766(2) 0.3156(2)
C10 C 0.6762(3) 0.0650(2) 0.2936(2)
C11 C 0.2257(3) 0.1726(2) -0.0583(2)
C12 C -0.1500(3) 0.0830(2) -0.0788(3)
C13 C 0.9097(3) -0.1287(3) 0.3812(3)
C14 C 0.8549(3) 0.0117(3) 0.2995(3)
H2 H 0.9245 0.0196 0.2819
C15 C 0.1159(3) 0.1630(3) 0.2394(3)
H3 H 0.0465 0.1507 0.2545
C16 C 0.5379(3) -0.0258(3) 0.3733(3)
H4 H 0.4873 0.0155 0.3533
C17 C -0.1664(3) 0.0701(2) -0.1793(3)
H5 H -0.1111 0.0770 -0.2224
O5 O 0.9160(2) -0.1640(3) 0.4629(2)
C18 C 0.2904(3) 0.1998(3) 0.2887(3)
H6 H 0.3387 0.2107 0.3394
C19 C 0.5836(3) -0.1618(3) 0.4550(3)
H7 H 0.5628 -0.2116 0.4910
C20 C 0.8283(2) -0.0606(2) 0.3550(2)
C21 C 0.6869(3) -0.1510(3) 0.4337(3)
H8 H 0.7352 -0.1944 0.4534
C22 C 0.7791(3) 0.0749(3) 0.2683(3)
H9 H 0.7992 0.1236 0.2302
C23 C -0.3482(3) 0.0370(3) -0.1499(3)
H10 H -0.4148 0.0222 -0.1738
C24 C 0.4355(3) 0.2083(3) -0.0764(3)
H11 H 0.5067 0.2199 -0.0831
C25 C -0.2653(3) 0.0470(3) -0.2150(3)
C26 C -0.2328(3) 0.0725(3) -0.0145(3)
H12 H -0.2224 0.0810 0.0527
C27 C 0.3748(3) 0.1932(3) -0.1603(3)
H13 H 0.4053 0.1943 -0.2220
C28 C 0.2697(3) 0.1768(3) -0.1518(3)
H14 H 0.2279 0.1684 -0.2077
C29 C 0.1870(3) 0.1806(3) 0.3130(3)
H15 H 0.1668 0.1798 0.3784
C30 C 0.5085(3) -0.0995(3) 0.4236(3)
H16 H 0.4381 -0.1087 0.4375
C31 C -0.2087(4) 0.0490(4) -0.3848(3)
H17 H -0.2363 0.0360 -0.4495
H18 H -0.1489 0.0115 -0.3713
H19 H -0.1880 0.1108 -0.3815
C32 C -0.3316(3) 0.0490(3) -0.0519(3)
H20 H -0.3869 0.0413 -0.0090
Zn1A Zn 1.02696(3) -0.27195(3) 0.35342(3)
O1A O 0.52873(17) 0.34686(16) 0.18792(17)
loop_
_geom_bond_atom_site_label_1
_geom_bond_atom_site_label_2
_geom_bond_site_symmetry_1
_geom_bond_site_symmetry_2
Zn1 N1 1_555 1_555
O1 C13 1_555 1_555
N1 C5 1_555 1_555
N2 H1 1_555 1_555
O2 Zn1 1_555 1_555
N3 Zn1 1_555 1_555
N4 C1 1_555 1_555
C1 C2 1_555 1_555
C2 N2 1_555 1_555
C3 C8 1_555 1_555
C4 N3 1_555 1_555
C5 C4 1_555 1_555
C6 C1 1_555 1_555
O3 C25 1_555 1_555
C7 O2 1_555 1_555
C8 C10 1_555 1_555
C9 N2 1_555 1_555
O4 Zn1 1_555 1_555
C10 C7 1_555 1_555
C11 C2 1_555 1_555
C12 C9 1_555 1_555
C13 O5 1_555 1_555
C14 H2 1_555 1_555
C15 C6 1_555 1_555
H3 C15 1_555 1_555
C16 C8 1_555 1_555
H4 C16 1_555 1_555
C17 C12 1_555 1_555
H5 C17 1_555 1_555
C18 N3 1_555 1_555
H6 C18 1_555 1_555
C19 H7 1_555 1_555
C20 C3 1_555 1_555
C21 C3 1_555 1_555
H8 C21 1_555 1_555
C22 C10 1_555 1_555
H9 C22 1_555 1_555
C23 H10 1_555 1_555
C24 N1 1_555 1_555
H11 C24 1_555 1_555
C25 C17 1_555 1_555
C26 C12 1_555 1_555
H12 C26 1_555 1_555
C27 C24 1_555 1_555
H13 C27 1_555 1_555
C28 C11 1_555 1_555
H14 C28 1_555 1_555
C29 C15 1_555 1_555
H15 C29 1_555 1_555
C30 C16 1_555 1_555
H16 C30 1_555 1_555
C31 O3 1_555 1_555
H17 C31 1_555 1_555
H18 C31 1_555 1_555
H19 C31 1_555 1_555
C32 C23 1_555 1_555
H20 C32 1_555 1_555
Zn1A O1 1_555 1_555
O1A Zn1 1_555 1_555
N4 C9 1_555 1_555
C4 C6 1_555 1_555
C5 C11 1_555 1_555
C7 O4 1_555 1_555
C13 C20 1_555 1_555
C14 C20 1_555 1_555
C14 C22 1_555 1_555
C18 C29 1_555 1_555
C19 C21 1_555 1_555
C19 C30 1_555 1_555
C23 C25 1_555 1_555
C26 C32 1_555 1_555
C27 C28 1_555 1_555

#END
