
#######################################################################
#
#                 Cambridge Crystallographic Data Centre
#                                CCDC 
#
#######################################################################
#
# If this CIF has been generated from an entry in the Cambridge 
# Structural Database, then it will include bibliographic, chemical, 
# crystal, experimental, refinement or atomic coordinate data resulting 
# from the CCDC's data processing and validation procedures.
#
#######################################################################

data_FIXPEI
_symmetry_cell_setting           monoclinic
_symmetry_space_group_name_H-M   'C 2/c'
_symmetry_Int_Tables_number      15
_space_group_name_Hall           '-C 2yn'
loop_
_symmetry_equiv_pos_site_id
_symmetry_equiv_pos_as_xyz
1 x,y,z
2 1/2+x,1/2+y,z
3 -x,y,1/2-z
4 1/2-x,1/2+y,1/2-z
5 -x,-y,-z
6 1/2-x,1/2-y,-z
7 x,-y,1/2+z
8 1/2+x,1/2-y,1/2+z
_cell_length_a                   16.4410(11)
_cell_length_b                   15.4767(11)
_cell_length_c                   11.1496(8)
_cell_angle_alpha                90
_cell_angle_beta                 117.694(4)
_cell_angle_gamma                90
_cell_volume                     2512.04
loop_
_atom_site_label
_atom_site_type_symbol
_atom_site_fract_x
_atom_site_fract_y
_atom_site_fract_z
Au1 Au 0.397224(11) 0.829569(10) 0.210223(15)
P1 P 0.38041(7) 0.90221(7) 0.37059(10)
Cl1 Cl 0.40149(9) 0.75294(8) 0.03724(12)
C1 C 0.4696(3) 0.9757(3) 0.4657(4)
C2 C 0.3778(3) 0.8359(3) 0.5021(4)
C3 C 0.3702(3) 0.7467(3) 0.4847(4)
H1 H 0.3661 0.7214 0.4045
C4 C 0.3686(4) 0.6950(3) 0.5854(5)
H2 H 0.3635 0.6341 0.5742
C5 C 0.3744(3) 0.7321(3) 0.7024(5)
H3 H 0.3740 0.6965 0.7716
C6 C 0.3807(4) 0.8235(4) 0.7187(5)
H4 H 0.3833 0.8495 0.7976
C7 C 0.3831(3) 0.8731(3) 0.6193(4)
H5 H 0.3884 0.9340 0.6302
C8 C 0.2784(3) 0.9692(3) 0.3030(4)
C9 C 0.2073(3) 0.9483(3) 0.1767(5)
H6 H 0.2142 0.9022 0.1259
C10 C 0.1260(4) 0.9950(4) 0.1252(6)
H7 H 0.0778 0.9816 0.0378
C11 C 0.1146(4) 1.0606(3) 0.1996(6)
H8 H 0.0574 1.0900 0.1657
C12 C 0.1866(4) 1.0837(4) 0.3242(6)
H9 H 0.1801 1.1306 0.3741
C13 C 0.2678(4) 1.0374(3) 0.3746(5)
H10 H 0.3171 1.0528 0.4600
Au1D Au 0.602776(11) 1.170431(10) 0.789777(15)
Au1B Au 0.602776(11) 0.829569(10) 0.289777(15)
Au1F Au 0.397224(11) 1.170431(10) 0.710223(15)
P1D P 0.61959(7) 1.09779(7) 0.62941(10)
Cl1D Cl 0.59851(9) 1.24706(8) 0.96276(12)
C1D C 0.5304(3) 1.0243(3) 0.5343(4)
C2D C 0.6222(3) 1.1641(3) 0.4979(4)
C3D C 0.6298(3) 1.2533(3) 0.5153(4)
H1D H 0.6339 1.2786 0.5955
C4D C 0.6314(4) 1.3050(3) 0.4146(5)
H2D H 0.6365 1.3659 0.4258
C5D C 0.6256(3) 1.2679(3) 0.2976(5)
H3D H 0.6260 1.3035 0.2284
C6D C 0.6193(4) 1.1765(4) 0.2813(5)
H4D H 0.6167 1.1505 0.2024
C7D C 0.6169(3) 1.1269(3) 0.3807(4)
H5D H 0.6116 1.0660 0.3698
C8D C 0.7216(3) 1.0308(3) 0.6970(4)
C9D C 0.7927(3) 1.0517(3) 0.8233(5)
H6D H 0.7858 1.0978 0.8741
C10D C 0.8740(4) 1.0050(4) 0.8748(6)
H7D H 0.9222 1.0184 0.9622
C11D C 0.8854(4) 0.9394(3) 0.8004(6)
H8D H 0.9426 0.9100 0.8343
C12D C 0.8134(4) 0.9163(4) 0.6758(6)
H9D H 0.8199 0.8694 0.6259
C13D C 0.7322(4) 0.9626(3) 0.6254(5)
H10D H 0.6829 0.9472 0.5400
loop_
_geom_bond_atom_site_label_1
_geom_bond_atom_site_label_2
_geom_bond_site_symmetry_1
_geom_bond_site_symmetry_2
Au1 P1 1_555 1_555
P1 C1 1_555 1_555
Cl1 Au1 1_555 1_555
C1 C1D 1_555 1_555
C2 P1 1_555 1_555
C3 C2 1_555 1_555
H1 C3 1_555 1_555
C4 C3 1_555 1_555
H2 C4 1_555 1_555
C5 C4 1_555 1_555
H3 C5 1_555 1_555
C6 C5 1_555 1_555
H4 C6 1_555 1_555
C7 C2 1_555 1_555
H5 C7 1_555 1_555
C8 P1 1_555 1_555
C9 C8 1_555 1_555
H6 C9 1_555 1_555
C10 C9 1_555 1_555
H7 C10 1_555 1_555
C11 C10 1_555 1_555
H8 C11 1_555 1_555
C12 C11 1_555 1_555
H9 C12 1_555 1_555
C13 C8 1_555 1_555
H10 C13 1_555 1_555
Au1D Au1F 1_555 1_555
Au1B Au1 1_555 1_555
P1D Au1D 1_555 1_555
Cl1D Au1D 1_555 1_555
C1D P1D 1_555 1_555
C2D P1D 1_555 1_555
C3D C2D 1_555 1_555
H1D C3D 1_555 1_555
C4D C3D 1_555 1_555
H2D C4D 1_555 1_555
C5D C4D 1_555 1_555
H3D C5D 1_555 1_555
C6D C5D 1_555 1_555
H4D C6D 1_555 1_555
C7D C2D 1_555 1_555
H5D C7D 1_555 1_555
C8D P1D 1_555 1_555
C9D C8D 1_555 1_555
H6D C9D 1_555 1_555
C10D C9D 1_555 1_555
H7D C10D 1_555 1_555
C11D C10D 1_555 1_555
H8D C11D 1_555 1_555
C12D C11D 1_555 1_555
H9D C12D 1_555 1_555
C13D C8D 1_555 1_555
H10D C13D 1_555 1_555
C6 C7 1_555 1_555
C12 C13 1_555 1_555
C6D C7D 1_555 1_555
C12D C13D 1_555 1_555

#END
