
#######################################################################
#
#                 Cambridge Crystallographic Data Centre
#                                CCDC 
#
#######################################################################
#
# If this CIF has been generated from an entry in the Cambridge 
# Structural Database, then it will include bibliographic, chemical, 
# crystal, experimental, refinement or atomic coordinate data resulting 
# from the CCDC's data processing and validation procedures.
#
#######################################################################

data_FIXVUF
_symmetry_cell_setting           triclinic
_symmetry_space_group_name_H-M   'P -1'
_symmetry_Int_Tables_number      2
_space_group_name_Hall           '-P 1'
loop_
_symmetry_equiv_pos_site_id
_symmetry_equiv_pos_as_xyz
1 x,y,z
2 -x,-y,-z
_cell_length_a                   13.121(4)
_cell_length_b                   13.167(3)
_cell_length_c                   27.262(6)
_cell_angle_alpha                90.921(16)
_cell_angle_beta                 102.291(11)
_cell_angle_gamma                119.341(5)
_cell_volume                     3971.33
loop_
_atom_site_label
_atom_site_type_symbol
_atom_site_fract_x
_atom_site_fract_y
_atom_site_fract_z
Pt1 Pt -0.28364(2) 0.11281(2) 0.59492(2)
Ag1 Ag 0.10796(4) 0.44690(3) 0.50566(2)
Ag2 Ag 0.09321(4) 0.15396(3) 0.49468(2)
P1 P -0.33273(11) 0.20540(10) 0.64719(5)
P2 P -0.36870(11) -0.07424(10) 0.61113(5)
C1 C -0.2983(4) 0.3433(4) 0.62002(19)
H1 H -0.3654 0.3590 0.6182
H2 H -0.2237 0.4102 0.6419
C2 C -0.2814(4) 0.3309(4) 0.56716(19)
H3 H -0.3605 0.2805 0.5426
H4 H -0.2410 0.4089 0.5558
N1 N -0.2061(3) 0.2767(3) 0.57112(15)
C3 C -0.0989(4) 0.3303(4) 0.56243(17)
O1 O -0.0563(3) 0.4212(3) 0.54021(12)
C4 C -0.0125(4) 0.2917(4) 0.58769(18)
C5 C 0.0828(4) 0.3751(4) 0.62671(19)
H5 H 0.0893 0.4492 0.6339
C6 C 0.1676(4) 0.3522(4) 0.6550(2)
H6 H 0.2320 0.4099 0.6814
C7 C 0.1581(5) 0.2444(5) 0.6447(2)
H7 H 0.2155 0.2272 0.6643
C8 C 0.0654(4) 0.1617(4) 0.60586(19)
H8 H 0.0615 0.0891 0.5982
C9 C -0.0224(4) 0.1826(4) 0.57769(17)
C10 C -0.1232(4) 0.0818(4) 0.53924(18)
O2 O -0.0950(3) 0.0329(3) 0.50847(13)
N2 N -0.2344(3) 0.0442(3) 0.54224(14)
C11 C -0.3270(4) -0.0764(4) 0.51844(18)
H9 H -0.2995 -0.1049 0.4931
H10 H -0.4034 -0.0797 0.5014
C12 C -0.3450(5) -0.1508(4) 0.56188(19)
H11 H -0.2728 -0.1580 0.5752
H12 H -0.4160 -0.2307 0.5500
C13 C -0.4870(4) 0.1393(4) 0.65327(18)
C14 C -0.5729(4) 0.1481(4) 0.61660(19)
H13 H -0.5492 0.1944 0.5904
C15 C -0.6930(5) 0.0896(5) 0.6183(2)
H14 H -0.7517 0.0953 0.5931
C16 C -0.7269(5) 0.0232(5) 0.6565(2)
H15 H -0.8093 -0.0174 0.6575
C17 C -0.6420(5) 0.0151(4) 0.6935(2)
H16 H -0.6660 -0.0296 0.7201
C18 C -0.5223(4) 0.0719(4) 0.6918(2)
H17 H -0.4643 0.0650 0.7168
C19 C -0.2411(4) 0.2480(4) 0.71200(18)
C20 C -0.1583(4) 0.2115(4) 0.72782(19)
H18 H -0.1481 0.1651 0.7044
C21 C -0.0905(4) 0.2422(4) 0.7776(2)
H19 H -0.0351 0.2155 0.7883
C22 C -0.1029(5) 0.3115(4) 0.8118(2)
H20 H -0.0568 0.3316 0.8461
C23 C -0.1828(5) 0.3513(5) 0.7959(2)
H21 H -0.1898 0.4009 0.8190
C24 C -0.2530(5) 0.3186(5) 0.7460(2)
H22 H -0.3090 0.3447 0.7353
C25 C -0.5299(4) -0.1569(4) 0.60261(18)
C26 C -0.6039(4) -0.1166(4) 0.57729(19)
H23 H -0.5686 -0.0409 0.5668
C27 C -0.7286(5) -0.1856(5) 0.5672(2)
H24 H -0.7784 -0.1564 0.5508
C28 C -0.7800(5) -0.2969(4) 0.5812(2)
H25 H -0.8654 -0.3447 0.5744
C29 C -0.7067(5) -0.3385(4) 0.6050(2)
H26 H -0.7424 -0.4158 0.6139
C30 C -0.5834(5) -0.2699(4) 0.6161(2)
H27 H -0.5342 -0.2994 0.6329
C31 C -0.3002(4) -0.0947(4) 0.67235(18)
C32 C -0.1870(5) -0.0845(4) 0.6812(2)
H28 H -0.1488 -0.0737 0.6542
C33 C -0.1299(5) -0.0901(5) 0.7289(2)
H29 H -0.0524 -0.0826 0.7345
C34 C -0.1844(5) -0.1064(5) 0.7685(2)
H30 H -0.1454 -0.1113 0.8013
C35 C -0.2964(5) -0.1156(5) 0.7598(2)
H31 H -0.3339 -0.1258 0.7869
C36 C -0.3539(5) -0.1103(4) 0.71269(19)
H32 H -0.4312 -0.1172 0.7074
O3 O 0.0277(4) 0.2812(3) 0.44135(15)
O4 O 0.0545(4) 0.1534(3) 0.39946(15)
C37 C 0.0439(4) 0.2404(5) 0.4045(2)
C38 C 0.0523(5) 0.3061(5) 0.3590(2)
F1 F -0.0177(4) 0.2367(4) 0.31566(14)
F2 F 0.0253(3) 0.3915(3) 0.36254(14)
F3 F 0.1649(4) 0.3620(4) 0.35394(19)
O5 O 0.2884(3) 0.4605(3) 0.53489(16)
O6 O 0.2858(3) 0.2882(3) 0.52960(16)
C39 C 0.3317(5) 0.3959(4) 0.5402(2)
C40 C 0.4665(5) 0.4556(5) 0.5673(3)
F4 F 0.5265(3) 0.4230(3) 0.54329(15)
F5 F 0.4803(3) 0.4232(3) 0.61372(14)
F6 F 0.5232(3) 0.5710(3) 0.57399(19)
Ag1A Ag -0.10796(4) 0.55310(3) 0.49434(2)
Ag2A Ag -0.09321(4) -0.15396(3) 0.50532(2)
O1A O 0.0563(3) 0.5788(3) 0.45979(12)
O2A O 0.0950(3) -0.0329(3) 0.49153(13)
Pt2 Pt 0.52279(2) 0.63068(2) 0.90731(2)
Ag3 Ag 1.05322(4) 0.90299(3) 0.98373(2)
Ag4 Ag 0.32971(4) 0.89890(3) 0.99198(2)
P3 P 0.59990(11) 0.53273(10) 0.87545(5)
P4 P 0.32490(11) 0.53600(10) 0.86730(5)
C41 C 0.7478(5) 0.5895(4) 0.9213(2)
H33 H 0.7639 0.5245 0.9283
H34 H 0.8128 0.6488 0.9073
C42 C 0.7443(4) 0.6448(4) 0.96974(19)
H35 H 0.6920 0.5835 0.9878
H36 H 0.8266 0.6912 0.9926
N3 N 0.6953(3) 0.7211(3) 0.95381(15)
C43 C 0.7674(4) 0.8362(4) 0.96352(18)
O7 O 0.8712(3) 0.8884(3) 0.99426(13)
C44 C 0.7305(4) 0.9106(4) 0.93228(18)
C45 C 0.8138(5) 0.9828(4) 0.90602(19)
H37 H 0.8871 0.9822 0.9097
C46 C 0.7915(5) 1.0551(4) 0.8748(2)
H38 H 0.8485 1.1025 0.8567
C47 C 0.6861(5) 1.0585(4) 0.8700(2)
H39 H 0.6704 1.1082 0.8486
C48 C 0.6037(5) 0.9890(4) 0.8966(2)
H40 H 0.5326 0.9932 0.8941
C49 C 0.6233(4) 0.9124(4) 0.92710(19)
C50 C 0.5259(4) 0.8423(4) 0.95314(19)
O8 O 0.4988(3) 0.9006(3) 0.97976(14)
N4 N 0.4691(4) 0.7264(3) 0.94426(15)
C51 C 0.3572(4) 0.6541(4) 0.95882(19)
H41 H 0.3351 0.7045 0.9759
H42 H 0.3669 0.6015 0.9825
C52 C 0.2587(4) 0.5814(4) 0.91061(19)
H43 H 0.2255 0.6288 0.8939
H44 H 0.1920 0.5110 0.9192
C53 C 0.5231(4) 0.3752(4) 0.87324(19)
C54 C 0.4662(4) 0.3252(4) 0.9115(2)
H45 H 0.4649 0.3743 0.9370
C55 C 0.4114(5) 0.2048(5) 0.9129(2)
H46 H 0.3732 0.1715 0.9391
C56 C 0.4133(5) 0.1341(5) 0.8755(3)
H47 H 0.3762 0.0516 0.8761
C57 C 0.4688(5) 0.1825(5) 0.8373(3)
H48 H 0.4698 0.1332 0.8118
C58 C 0.5227(5) 0.3018(4) 0.8362(2)
H49 H 0.5601 0.3342 0.8096
C59 C 0.6263(4) 0.5599(4) 0.81317(19)
C60 C 0.5342(5) 0.5494(5) 0.7743(2)
H50 H 0.4595 0.5316 0.7810
C61 C 0.5478(5) 0.5640(5) 0.7257(2)
H51 H 0.4831 0.5562 0.6993
C62 C 0.6562(5) 0.5899(5) 0.7156(2)
H52 H 0.6656 0.5975 0.6820
C63 C 0.7498(5) 0.6046(5) 0.7541(2)
H53 H 0.8252 0.6253 0.7473
C64 C 0.7365(5) 0.5899(4) 0.8029(2)
H54 H 0.8024 0.6001 0.8294
C65 C 0.2405(4) 0.3770(4) 0.85387(18)
C66 C 0.1853(4) 0.3105(4) 0.8897(2)
H55 H 0.1845 0.3484 0.9194
C67 C 0.1315(5) 0.1888(5) 0.8816(2)
H56 H 0.0957 0.1439 0.9064
C68 C 0.1295(5) 0.1331(5) 0.8386(2)
H57 H 0.0910 0.0496 0.8332
C69 C 0.1836(5) 0.1980(4) 0.8027(2)
H58 H 0.1834 0.1592 0.7729
C70 C 0.2377(4) 0.3187(4) 0.8103(2)
H59 H 0.2736 0.3628 0.7853
C71 C 0.2914(4) 0.5898(4) 0.80894(19)
C72 C 0.1757(5) 0.5361(5) 0.7778(2)
H60 H 0.1144 0.4644 0.7850
C73 C 0.1480(6) 0.5855(5) 0.7365(2)
H61 H 0.0679 0.5478 0.7154
C74 C 0.2355(6) 0.6888(6) 0.7256(2)
H62 H 0.2168 0.7214 0.6966
C75 C 0.3507(6) 0.7449(6) 0.7570(3)
H63 H 0.4112 0.8173 0.7501
C76 C 0.3785(5) 0.6960(5) 0.7987(2)
H64 H 0.4578 0.7355 0.8204
O9 O 0.1417(3) 0.7889(3) 1.00752(15)
O10 O -0.0004(3) 0.6938(3) 1.04938(15)
C77 C 0.0880(5) 0.7137(4) 1.0342(2)
C78 C 0.1429(5) 0.6348(5) 1.0486(2)
F7 F 0.1341(3) 0.5694(3) 1.00815(12)
F8 F 0.0908(3) 0.5591(3) 1.07947(13)
F9 F 0.2612(3) 0.6984(3) 1.07213(15)
O11 O 1.0071(4) 0.8349(4) 0.89397(17)
O12 O 1.2059(4) 0.9240(4) 0.92074(17)
C79 C 1.1083(6) 0.8584(5) 0.8909(2)
C80 C 1.1104(6) 0.7982(6) 0.8425(3)
F10 F 1.0401(4) 0.6821(4) 0.8360(2)
F11 F 1.2183(4) 0.8140(4) 0.8441(2)
F12 F 1.0740(7) 0.8344(5) 0.80249(16)
Ag3_2 Ag 0.05322(4) 0.90299(3) 0.98373(2)
Ag3A Ag 0.94678(4) 1.09701(3) 1.01627(2)
Ag4_2 Ag 1.32971(4) 0.89890(3) 0.99198(2)
Ag4A Ag 0.67029(4) 1.10110(3) 1.00802(2)
O7A O 1.1288(3) 1.1116(3) 1.00574(13)
O8A O 0.5012(3) 1.0994(3) 1.02024(14)
O9_2 O 1.1417(3) 0.7889(3) 1.00752(15)
O12_2 O 0.2059(4) 0.9240(4) 0.92074(17)
loop_
_geom_bond_atom_site_label_1
_geom_bond_atom_site_label_2
_geom_bond_site_symmetry_1
_geom_bond_site_symmetry_2
Pt1 P1 1_555 1_555
Ag1 O1 1_555 1_555
Ag2 O2 1_555 1_555
P1 C1 1_555 1_555
P2 Pt1 1_555 1_555
C1 H1 1_555 1_555
H2 C1 1_555 1_555
C2 C1 1_555 1_555
H3 C2 1_555 1_555
H4 C2 1_555 1_555
N1 Pt1 1_555 1_555
C3 N1 1_555 1_555
O1 C3 1_555 1_555
C4 C3 1_555 1_555
C5 C4 1_555 1_555
H5 C5 1_555 1_555
C6 C5 1_555 1_555
H6 C6 1_555 1_555
C7 C6 1_555 1_555
H7 C7 1_555 1_555
C8 C7 1_555 1_555
H8 C8 1_555 1_555
C9 C4 1_555 1_555
C10 C9 1_555 1_555
O2 C10 1_555 1_555
N2 Pt1 1_555 1_555
C11 N2 1_555 1_555
H9 C11 1_555 1_555
H10 C11 1_555 1_555
C12 P2 1_555 1_555
H11 C12 1_555 1_555
H12 C12 1_555 1_555
C13 P1 1_555 1_555
C14 C13 1_555 1_555
H13 C14 1_555 1_555
C15 C14 1_555 1_555
H14 C15 1_555 1_555
C16 C15 1_555 1_555
H15 C16 1_555 1_555
C17 C16 1_555 1_555
H16 C17 1_555 1_555
C18 C13 1_555 1_555
H17 C18 1_555 1_555
C19 P1 1_555 1_555
C20 C19 1_555 1_555
H18 C20 1_555 1_555
C21 C20 1_555 1_555
H19 C21 1_555 1_555
C22 C21 1_555 1_555
H20 C22 1_555 1_555
C23 C22 1_555 1_555
H21 C23 1_555 1_555
C24 C19 1_555 1_555
H22 C24 1_555 1_555
C25 P2 1_555 1_555
C26 C25 1_555 1_555
H23 C26 1_555 1_555
C27 C26 1_555 1_555
H24 C27 1_555 1_555
C28 C27 1_555 1_555
H25 C28 1_555 1_555
C29 C28 1_555 1_555
H26 C29 1_555 1_555
C30 C25 1_555 1_555
H27 C30 1_555 1_555
C31 P2 1_555 1_555
C32 C31 1_555 1_555
H28 C32 1_555 1_555
C33 C32 1_555 1_555
H29 C33 1_555 1_555
C34 C33 1_555 1_555
H30 C34 1_555 1_555
C35 C34 1_555 1_555
H31 C35 1_555 1_555
C36 C31 1_555 1_555
H32 C36 1_555 1_555
O3 Ag1 1_555 1_555
O4 Ag2 1_555 1_555
C37 O3 1_555 1_555
C38 C37 1_555 1_555
F1 C38 1_555 1_555
F2 C38 1_555 1_555
F3 C38 1_555 1_555
O5 Ag1 1_555 1_555
O6 Ag2 1_555 1_555
C39 O5 1_555 1_555
C40 C39 1_555 1_555
F4 C40 1_555 1_555
F5 C40 1_555 1_555
F6 C40 1_555 1_555
Pt2 P3 1_555 1_555
Ag3 O7 1_555 1_555
Ag4 O8 1_555 1_555
P3 C41 1_555 1_555
P4 Pt2 1_555 1_555
C41 H33 1_555 1_555
H34 C41 1_555 1_555
C42 C41 1_555 1_555
H35 C42 1_555 1_555
H36 C42 1_555 1_555
N3 Pt2 1_555 1_555
C43 N3 1_555 1_555
O7 C43 1_555 1_555
C44 C43 1_555 1_555
C45 C44 1_555 1_555
H37 C45 1_555 1_555
C46 C45 1_555 1_555
H38 C46 1_555 1_555
C47 C46 1_555 1_555
H39 C47 1_555 1_555
C48 C47 1_555 1_555
H40 C48 1_555 1_555
C49 C44 1_555 1_555
C50 C49 1_555 1_555
O8 C50 1_555 1_555
N4 Pt2 1_555 1_555
C51 N4 1_555 1_555
H41 C51 1_555 1_555
H42 C51 1_555 1_555
C52 P4 1_555 1_555
H43 C52 1_555 1_555
H44 C52 1_555 1_555
C53 P3 1_555 1_555
C54 C53 1_555 1_555
H45 C54 1_555 1_555
C55 C54 1_555 1_555
H46 C55 1_555 1_555
C56 C55 1_555 1_555
H47 C56 1_555 1_555
C57 C56 1_555 1_555
H48 C57 1_555 1_555
C58 C53 1_555 1_555
H49 C58 1_555 1_555
C59 P3 1_555 1_555
C60 C59 1_555 1_555
H50 C60 1_555 1_555
C61 C60 1_555 1_555
H51 C61 1_555 1_555
C62 C61 1_555 1_555
H52 C62 1_555 1_555
C63 C62 1_555 1_555
H53 C63 1_555 1_555
C64 C59 1_555 1_555
H54 C64 1_555 1_555
C65 P4 1_555 1_555
C66 C65 1_555 1_555
H55 C66 1_555 1_555
C67 C66 1_555 1_555
H56 C67 1_555 1_555
C68 C67 1_555 1_555
H57 C68 1_555 1_555
C69 C68 1_555 1_555
H58 C69 1_555 1_555
C70 C65 1_555 1_555
H59 C70 1_555 1_555
C71 P4 1_555 1_555
C72 C71 1_555 1_555
H60 C72 1_555 1_555
C73 C72 1_555 1_555
H61 C73 1_555 1_555
C74 C73 1_555 1_555
H62 C74 1_555 1_555
C75 C74 1_555 1_555
H63 C75 1_555 1_555
C76 C71 1_555 1_555
H64 C76 1_555 1_555
O9 Ag4 1_555 1_555
O10 C77 1_555 1_555
C77 O9 1_555 1_555
C78 C77 1_555 1_555
F7 C78 1_555 1_555
F8 C78 1_555 1_555
F9 C78 1_555 1_555
O11 Ag3 1_555 1_555
O12 C79 1_555 1_555
C79 O11 1_555 1_555
C80 C79 1_555 1_555
F10 C80 1_555 1_555
F11 C80 1_555 1_555
F12 C80 1_555 1_555
Ag1A O1 1_555 1_555
Ag2A O2 1_555 1_555
O1A Ag1 1_555 1_555
O2A Ag2 1_555 1_555
Ag3_2 O9 1_555 1_555
Ag3A O7 1_555 1_555
Ag4_2 O12 1_555 1_555
Ag4A O8 1_555 1_555
O7A Ag3 1_555 1_555
O8A Ag4 1_555 1_555
O9_2 Ag3 1_555 1_555
O12_2 Ag4 1_555 1_555
Ag2 O3 1_555 1_555
C2 N1 1_555 1_555
C8 C9 1_555 1_555
C10 N2 1_555 1_555
C11 C12 1_555 1_555
C17 C18 1_555 1_555
C23 C24 1_555 1_555
C29 C30 1_555 1_555
C35 C36 1_555 1_555
O4 C37 1_555 1_555
O6 C39 1_555 1_555
C42 N3 1_555 1_555
C48 C49 1_555 1_555
C50 N4 1_555 1_555
C51 C52 1_555 1_555
C57 C58 1_555 1_555
C63 C64 1_555 1_555
C69 C70 1_555 1_555
C75 C76 1_555 1_555
Ag1A O1A 1_555 1_555
Ag2A O2A 1_555 1_555
Ag3A O7A 1_555 1_555
Ag4_2 O9_2 1_555 1_555
Ag4A O8A 1_555 1_555

#END
