
#######################################################################
#
#                 Cambridge Crystallographic Data Centre
#                                CCDC 
#
#######################################################################
#
# If this CIF has been generated from an entry in the Cambridge 
# Structural Database, then it will include bibliographic, chemical, 
# crystal, experimental, refinement or atomic coordinate data resulting 
# from the CCDC's data processing and validation procedures.
#
#######################################################################

data_FIYBAR
_symmetry_cell_setting           triclinic
_symmetry_space_group_name_H-M   'P -1'
_symmetry_Int_Tables_number      2
_space_group_name_Hall           '-P 1'
loop_
_symmetry_equiv_pos_site_id
_symmetry_equiv_pos_as_xyz
1 x,y,z
2 -x,-y,-z
_cell_length_a                   11.850(5)
_cell_length_b                   14.219(6)
_cell_length_c                   14.879(6)
_cell_angle_alpha                91.012(7)
_cell_angle_beta                 91.930(7)
_cell_angle_gamma                112.393(6)
_cell_volume                     2315.41
loop_
_atom_site_label
_atom_site_type_symbol
_atom_site_fract_x
_atom_site_fract_y
_atom_site_fract_z
Ag1 Ag 0.00890(6) -0.02880(5) 0.24572(4)
P1 P 0.0967(2) -0.05028(16) 0.39463(14)
P2 P 0.1220(2) -0.01973(18) 0.10966(14)
N1 N -0.0870(7) 0.0868(5) 0.2565(5)
N2 N -0.1213(7) 0.2165(5) 0.3145(5)
N3 N -0.2897(8) 0.6585(6) 0.2240(7)
N4 N -0.1731(7) 0.8201(5) 0.2452(6)
C1 C 0.0064(8) -0.0513(6) 0.4923(5)
H1 H -0.0742 -0.1047 0.4833
H2 H 0.0452 -0.0665 0.5455
C2 C 0.0684(7) 0.0305(6) 0.0117(6)
H3 H 0.0815 0.1012 0.0240
H4 H 0.1155 0.0277 -0.0396
C3 C 0.2490(7) 0.0355(7) 0.4329(6)
C4 C 0.3030(12) 0.1232(12) 0.3898(9)
H5 H 0.2624 0.1380 0.3409
C5 C 0.4176(15) 0.1909(16) 0.4176(14)
H6 H 0.4567 0.2500 0.3866
C6 C 0.4736(13) 0.1679(14) 0.4939(13)
H7 H 0.5510 0.2132 0.5133
C7 C 0.4221(11) 0.0861(11) 0.5386(8)
H8 H 0.4599 0.0735 0.5902
C8 C 0.3097(9) 0.0187(8) 0.5071(7)
H9 H 0.2729 -0.0412 0.5375
C9 C 0.1040(8) -0.1766(7) 0.3967(5)
C10 C 0.2090(10) -0.1909(9) 0.3747(7)
H10 H 0.2798 -0.1349 0.3645
C11 C 0.2093(13) -0.2896(11) 0.3676(9)
H11 H 0.2813 -0.2985 0.3559
C12 C 0.1067(14) -0.3705(10) 0.3776(9)
H12 H 0.1067 -0.4357 0.3721
C13 C 0.0004(12) -0.3573(8) 0.3963(8)
H13 H -0.0714 -0.4138 0.4023
C14 C -0.0005(10) -0.2614(7) 0.4061(7)
H14 H -0.0728 -0.2537 0.4193
C15 C 0.2815(9) 0.0616(8) 0.1232(6)
C16 C 0.3780(11) 0.0301(11) 0.1092(10)
H15 H 0.3619 -0.0360 0.0886
C17 C 0.4994(12) 0.0983(15) 0.1262(13)
H16 H 0.5626 0.0752 0.1206
C18 C 0.5261(13) 0.1977(12) 0.1507(12)
H17 H 0.6069 0.2433 0.1572
C19 C 0.4339(11) 0.2293(10) 0.1654(9)
H18 H 0.4509 0.2961 0.1846
C20 C 0.3130(10) 0.1611(9) 0.1516(8)
H19 H 0.2508 0.1841 0.1622
C21 C 0.1222(8) -0.1416(7) 0.0693(6)
C22 C 0.1118(10) -0.2152(8) 0.1304(7)
H20 H 0.1012 -0.2040 0.1907
C23 C 0.1174(12) -0.3067(9) 0.1014(10)
H21 H 0.1095 -0.3572 0.1424
C24 C 0.1343(14) -0.3229(11) 0.0135(10)
H22 H 0.1378 -0.3844 -0.0054
C25 C 0.1459(14) -0.2496(12) -0.0468(9)
H23 H 0.1577 -0.2608 -0.1069
C26 C 0.1403(12) -0.1598(9) -0.0194(8)
H24 H 0.1488 -0.1099 -0.0611
C27 C -0.0368(9) 0.1790(7) 0.2908(7)
H25 H 0.0471 0.2149 0.2982
C28 C -0.2109(9) 0.0632(7) 0.2560(7)
H26 H -0.2703 0.0020 0.2341
C29 C -0.2338(9) 0.1410(7) 0.2916(7)
H27 H -0.3100 0.1437 0.2993
C30 C -0.1002(11) 0.3132(7) 0.3622(7)
H28 H -0.0131 0.3532 0.3674
H29 H -0.1297 0.2996 0.4225
C31 C -0.1631(9) 0.3734(6) 0.3150(7)
C32 C -0.2659(10) 0.3820(7) 0.3469(8)
H30 H -0.2993 0.3476 0.3982
C33 C -0.1171(9) 0.4251(8) 0.2381(8)
H31 H -0.0465 0.4223 0.2150
C34 C -0.3208(10) 0.4391(8) 0.3060(10)
H32 H -0.3900 0.4436 0.3302
C35 C -0.1747(11) 0.4804(8) 0.1957(8)
H33 H -0.1443 0.5120 0.1426
C36 C -0.2761(9) 0.4902(7) 0.2298(9)
C37 C -0.3366(11) 0.5548(8) 0.1836(11)
H34 H -0.3204 0.5578 0.1200
H35 H -0.4243 0.5237 0.1894
C38 C -0.1922(10) 0.7388(8) 0.1949(8)
H36 H -0.1461 0.7360 0.1464
C39 C -0.3308(10) 0.6932(8) 0.2946(10)
H37 H -0.3961 0.6555 0.3288
C40 C -0.2600(10) 0.7936(8) 0.3074(9)
H38 H -0.2695 0.8370 0.3514
Ag1A Ag -0.00890(6) 0.02880(5) 0.75428(4)
Ag1_2 Ag 0.00890(6) 0.97120(5) 0.24572(4)
Ag1A_2 Ag -0.00890(6) 0.02880(5) -0.24572(4)
Ag1_3 Ag 0.00890(6) -1.02880(5) 0.24572(4)
P1A P -0.0967(2) 0.05028(16) 0.60537(14)
P2A P -0.1220(2) 0.01973(18) -0.10966(14)
P2A_2 P -0.1220(2) 0.01973(18) 0.89034(14)
N1_2 N -0.0870(7) -0.9132(5) 0.2565(5)
N1A N 0.0870(7) -0.0868(5) 0.7435(5)
N2_2 N -0.1213(7) -0.7835(5) 0.3145(5)
N3_2 N -0.2897(8) -0.3415(6) 0.2240(7)
N4_2 N -0.1731(7) -0.1799(5) 0.2452(6)
N4A N 0.1731(7) 0.1799(5) 0.7548(6)
C1A C -0.0064(8) 0.0513(6) 0.5077(5)
H1A H 0.0742 0.1047 0.5167
H2A H -0.0452 0.0665 0.4545
C2A C -0.0684(7) -0.0305(6) -0.0117(6)
H3A H -0.0815 -0.1012 -0.0240
H4A H -0.1155 -0.0277 0.0396
C3A C -0.2490(7) -0.0355(7) 0.5671(6)
C4A C -0.3030(12) -0.1232(12) 0.6102(9)
H5A H -0.2624 -0.1380 0.6591
C5A C -0.4176(15) -0.1909(16) 0.5824(14)
H6A H -0.4567 -0.2500 0.6134
C6A C -0.4736(13) -0.1679(14) 0.5061(13)
H7A H -0.5510 -0.2132 0.4867
C7A C -0.4221(11) -0.0861(11) 0.4614(8)
H8A H -0.4599 -0.0735 0.4098
C8A C -0.3097(9) -0.0187(8) 0.4929(7)
H9A H -0.2729 0.0412 0.4625
C9A C -0.1040(8) 0.1766(7) 0.6033(5)
C10A C -0.2090(10) 0.1909(9) 0.6253(7)
H10A H -0.2798 0.1349 0.6355
C11A C -0.2093(13) 0.2896(11) 0.6324(9)
H11A H -0.2813 0.2985 0.6441
C12A C -0.1067(14) 0.3705(10) 0.6224(9)
H12A H -0.1067 0.4357 0.6279
C13A C -0.0004(12) 0.3573(8) 0.6037(8)
H13A H 0.0714 0.4138 0.5977
C14A C 0.0005(10) 0.2614(7) 0.5939(7)
H14A H 0.0728 0.2537 0.5807
C15A C -0.2815(9) -0.0616(8) -0.1232(6)
C16A C -0.3780(11) -0.0301(11) -0.1092(10)
H15A H -0.3619 0.0360 -0.0886
C17A C -0.4994(12) -0.0983(15) -0.1262(13)
H16A H -0.5626 -0.0752 -0.1206
C18A C -0.5261(13) -0.1977(12) -0.1507(12)
H17A H -0.6069 -0.2433 -0.1572
C19A C -0.4339(11) -0.2293(10) -0.1654(9)
H18A H -0.4509 -0.2961 -0.1846
C20A C -0.3130(10) -0.1611(9) -0.1516(8)
H19A H -0.2508 -0.1841 -0.1622
C21A C -0.1222(8) 0.1416(7) -0.0693(6)
C22A C -0.1118(10) 0.2152(8) -0.1304(7)
H20A H -0.1012 0.2040 -0.1907
C23A C -0.1174(12) 0.3067(9) -0.1014(10)
H21A H -0.1095 0.3572 -0.1424
C24A C -0.1343(14) 0.3229(11) -0.0135(10)
H22A H -0.1378 0.3844 0.0054
C25A C -0.1459(14) 0.2496(12) 0.0468(9)
H23A H -0.1577 0.2608 0.1069
C26A C -0.1403(12) 0.1598(9) 0.0194(8)
H24A H -0.1488 0.1099 0.0611
C27_2 C -0.0368(9) -0.8210(7) 0.2908(7)
H25_2 H 0.0471 -0.7851 0.2982
C28_2 C -0.2109(9) -0.9368(7) 0.2560(7)
H26_2 H -0.2703 -0.9980 0.2341
C29_2 C -0.2338(9) -0.8590(7) 0.2916(7)
H27_2 H -0.3100 -0.8563 0.2993
C30_2 C -0.1002(11) -0.6868(7) 0.3622(7)
H28_2 H -0.0131 -0.6468 0.3674
H29_2 H -0.1297 -0.7004 0.4225
C31_2 C -0.1631(9) -0.6266(6) 0.3150(7)
C32_2 C -0.2659(10) -0.6180(7) 0.3469(8)
H30_2 H -0.2993 -0.6524 0.3982
C33_2 C -0.1171(9) -0.5749(8) 0.2381(8)
H31_2 H -0.0465 -0.5777 0.2150
C34_2 C -0.3208(10) -0.5609(8) 0.3060(10)
H32_2 H -0.3900 -0.5564 0.3302
C35_2 C -0.1747(11) -0.5196(8) 0.1957(8)
H33_2 H -0.1443 -0.4880 0.1426
C36_2 C -0.2761(9) -0.5098(7) 0.2298(9)
C37_2 C -0.3366(11) -0.4452(8) 0.1836(11)
H34_2 H -0.3204 -0.4422 0.1200
H35_2 H -0.4243 -0.4763 0.1894
C38_2 C -0.1922(10) -0.2612(8) 0.1949(8)
H36_2 H -0.1461 -0.2640 0.1464
C39_2 C -0.3308(10) -0.3068(8) 0.2946(10)
H37_2 H -0.3961 -0.3445 0.3288
C40_2 C -0.2600(10) -0.2064(8) 0.3074(9)
H38_2 H -0.2695 -0.1630 0.3514
S1 S 0.2919(5) 0.4369(4) 0.2991(6)
O1 O 0.1817(12) 0.4463(14) 0.2750(12)
F1 F 0.4011(16) 0.4221(19) 0.4478(11)
O2 O 0.290(3) 0.3385(16) 0.2761(14)
F2 F 0.214(2) 0.346(3) 0.4461(13)
O3 O 0.3969(15) 0.518(2) 0.2809(19)
C41 C 0.2966(12) 0.4297(15) 0.4173(8)
F3 F 0.292(4) 0.506(3) 0.4594(12)
N5 N -0.519(3) 0.728(4) 0.1000(18)
C42 C -0.567(8) 0.626(5) 0.051(8)
H39 H -0.6420 0.5827 0.0762
H40 H -0.5082 0.5953 0.0559
H41 H -0.5828 0.6352 -0.0117
C43 C -0.555(4) 0.773(5) 0.180(3)
H42 H -0.5964 0.7142 0.2111
C44 C -0.408(4) 0.821(4) 0.0830(19)
H43 H -0.4071 0.8765 0.1209
H44 H -0.4099 0.8384 0.0211
H45 H -0.3358 0.8074 0.0960
O4 O -0.564(5) 0.828(3) 0.223(2)
O5 O 0.227(5) -0.573(3) 0.076(2)
C45 C 0.165(4) -0.672(3) 0.088(4)
loop_
_geom_bond_atom_site_label_1
_geom_bond_atom_site_label_2
_geom_bond_site_symmetry_1
_geom_bond_site_symmetry_2
Ag1 P1 1_555 1_555
P1 C1 1_555 1_555
P2 Ag1 1_555 1_555
N1 Ag1 1_555 1_555
N2 C27 1_555 1_555
N3 C37 1_555 1_555
N4 C38 1_555 1_555
C1 H1 1_555 1_555
H2 C1 1_555 1_555
C2 P2 1_555 1_555
H3 C2 1_555 1_555
H4 C2 1_555 1_555
C3 P1 1_555 1_555
C4 C3 1_555 1_555
H5 C4 1_555 1_555
C5 C4 1_555 1_555
H6 C5 1_555 1_555
C6 C5 1_555 1_555
H7 C6 1_555 1_555
C7 C6 1_555 1_555
H8 C7 1_555 1_555
C8 C3 1_555 1_555
H9 C8 1_555 1_555
C9 P1 1_555 1_555
C10 C9 1_555 1_555
H10 C10 1_555 1_555
C11 C10 1_555 1_555
H11 C11 1_555 1_555
C12 C11 1_555 1_555
H12 C12 1_555 1_555
C13 C12 1_555 1_555
H13 C13 1_555 1_555
C14 C9 1_555 1_555
H14 C14 1_555 1_555
C15 P2 1_555 1_555
C16 C15 1_555 1_555
H15 C16 1_555 1_555
C17 C16 1_555 1_555
H16 C17 1_555 1_555
C18 C17 1_555 1_555
H17 C18 1_555 1_555
C19 C18 1_555 1_555
H18 C19 1_555 1_555
C20 C15 1_555 1_555
H19 C20 1_555 1_555
C21 P2 1_555 1_555
C22 C21 1_555 1_555
H20 C22 1_555 1_555
C23 C22 1_555 1_555
H21 C23 1_555 1_555
C24 C23 1_555 1_555
H22 C24 1_555 1_555
C25 C24 1_555 1_555
H23 C25 1_555 1_555
C26 C21 1_555 1_555
H24 C26 1_555 1_555
C27 N1 1_555 1_555
H25 C27 1_555 1_555
C28 N1 1_555 1_555
H26 C28 1_555 1_555
C29 N2 1_555 1_555
H27 C29 1_555 1_555
C30 N2 1_555 1_555
H28 C30 1_555 1_555
H29 C30 1_555 1_555
C31 C30 1_555 1_555
C32 C31 1_555 1_555
H30 C32 1_555 1_555
C33 C31 1_555 1_555
H31 C33 1_555 1_555
C34 C32 1_555 1_555
H32 C34 1_555 1_555
C35 C33 1_555 1_555
H33 C35 1_555 1_555
C36 C34 1_555 1_555
C37 C36 1_555 1_555
H34 C37 1_555 1_555
H35 C37 1_555 1_555
C38 N3 1_555 1_555
H36 C38 1_555 1_555
C39 N3 1_555 1_555
H37 C39 1_555 1_555
C40 N4 1_555 1_555
H38 C40 1_555 1_555
S1 O1 1_555 1_555
F1 C41 1_555 1_555
O2 S1 1_555 1_555
F2 C41 1_555 1_555
O3 S1 1_555 1_555
C41 S1 1_555 1_555
F3 C41 1_555 1_555
N5 C42 1_555 1_555
C42 H39 1_555 1_555
H40 C42 1_555 1_555
H41 C42 1_555 1_555
C43 N5 1_555 1_555
H42 C43 1_555 1_555
C44 N5 1_555 1_555
H43 C44 1_555 1_555
H44 C44 1_555 1_555
H45 C44 1_555 1_555
O4 C43 1_555 1_555
O5 C45 1_555 1_555
Ag1A P1A 1_555 1_555
Ag1_2 N4 1_555 1_555
Ag1A_2 P2A 1_555 1_555
Ag1_3 N1_2 1_555 1_555
P1A C1A 1_555 1_555
P2A C2A 1_555 1_555
P2A_2 Ag1A 1_555 1_555
N1_2 C27_2 1_555 1_555
N1A Ag1A 1_555 1_555
N2_2 C27_2 1_555 1_555
N3_2 C37_2 1_555 1_555
N4_2 Ag1 1_555 1_555
N4A Ag1A 1_555 1_555
C1A C1 1_555 1_555
H1A C1A 1_555 1_555
H2A C1A 1_555 1_555
C2A C2 1_555 1_555
H3A C2A 1_555 1_555
H4A C2A 1_555 1_555
C3A P1A 1_555 1_555
C4A C3A 1_555 1_555
H5A C4A 1_555 1_555
C5A C4A 1_555 1_555
H6A C5A 1_555 1_555
C6A C5A 1_555 1_555
H7A C6A 1_555 1_555
C7A C6A 1_555 1_555
H8A C7A 1_555 1_555
C8A C3A 1_555 1_555
H9A C8A 1_555 1_555
C9A P1A 1_555 1_555
C10A C9A 1_555 1_555
H10A C10A 1_555 1_555
C11A C10A 1_555 1_555
H11A C11A 1_555 1_555
C12A C11A 1_555 1_555
H12A C12A 1_555 1_555
C13A C12A 1_555 1_555
H13A C13A 1_555 1_555
C14A C9A 1_555 1_555
H14A C14A 1_555 1_555
C15A P2A 1_555 1_555
C16A C15A 1_555 1_555
H15A C16A 1_555 1_555
C17A C16A 1_555 1_555
H16A C17A 1_555 1_555
C18A C17A 1_555 1_555
H17A C18A 1_555 1_555
C19A C18A 1_555 1_555
H18A C19A 1_555 1_555
C20A C15A 1_555 1_555
H19A C20A 1_555 1_555
C21A P2A 1_555 1_555
C22A C21A 1_555 1_555
H20A C22A 1_555 1_555
C23A C22A 1_555 1_555
H21A C23A 1_555 1_555
C24A C23A 1_555 1_555
H22A C24A 1_555 1_555
C25A C24A 1_555 1_555
H23A C25A 1_555 1_555
C26A C21A 1_555 1_555
H24A C26A 1_555 1_555
C27_2 H25_2 1_555 1_555
C28_2 N1_2 1_555 1_555
H26_2 C28_2 1_555 1_555
C29_2 N2_2 1_555 1_555
H27_2 C29_2 1_555 1_555
C30_2 N2_2 1_555 1_555
H28_2 C30_2 1_555 1_555
H29_2 C30_2 1_555 1_555
C31_2 C30_2 1_555 1_555
C32_2 C31_2 1_555 1_555
H30_2 C32_2 1_555 1_555
C33_2 C31_2 1_555 1_555
H31_2 C33_2 1_555 1_555
C34_2 C32_2 1_555 1_555
H32_2 C34_2 1_555 1_555
C35_2 C33_2 1_555 1_555
H33_2 C35_2 1_555 1_555
C36_2 C34_2 1_555 1_555
C37_2 C36_2 1_555 1_555
H34_2 C37_2 1_555 1_555
H35_2 C37_2 1_555 1_555
C38_2 N3_2 1_555 1_555
H36_2 C38_2 1_555 1_555
C39_2 N3_2 1_555 1_555
H37_2 C39_2 1_555 1_555
C40_2 N4_2 1_555 1_555
H38_2 C40_2 1_555 1_555
C7 C8 1_555 1_555
C13 C14 1_555 1_555
C19 C20 1_555 1_555
C25 C26 1_555 1_555
C28 C29 1_555 1_555
C35 C36 1_555 1_555
C39 C40 1_555 1_555
N4_2 C38_2 1_555 1_555
C7A C8A 1_555 1_555
C13A C14A 1_555 1_555
C19A C20A 1_555 1_555
C25A C26A 1_555 1_555
C28_2 C29_2 1_555 1_555
C35_2 C36_2 1_555 1_555
C39_2 C40_2 1_555 1_555

#END
