
#######################################################################
#
#                 Cambridge Crystallographic Data Centre
#                                CCDC 
#
#######################################################################
#
# If this CIF has been generated from an entry in the Cambridge 
# Structural Database, then it will include bibliographic, chemical, 
# crystal, experimental, refinement or atomic coordinate data resulting 
# from the CCDC's data processing and validation procedures.
#
#######################################################################

data_FIYCAT
_symmetry_cell_setting           orthorhombic
_symmetry_space_group_name_H-M   'P 21 21 21'
_symmetry_Int_Tables_number      19
_space_group_name_Hall           'P 2ac 2ab'
loop_
_symmetry_equiv_pos_site_id
_symmetry_equiv_pos_as_xyz
1 x,y,z
2 1/2-x,-y,1/2+z
3 -x,1/2+y,1/2-z
4 1/2+x,1/2-y,-z
_cell_length_a                   18.551(18)
_cell_length_b                   19.415(14)
_cell_length_c                   21.83(2)
_cell_angle_alpha                90
_cell_angle_beta                 90
_cell_angle_gamma                90
_cell_volume                     7862.46
loop_
_atom_site_label
_atom_site_type_symbol
_atom_site_fract_x
_atom_site_fract_y
_atom_site_fract_z
Au1 Au 0.20242(3) 0.93149(4) 0.743982(18)
Au2 Au 0.24807(3) 0.92910(3) 0.876278(18)
Fe1 Fe 0.23492(9) 0.99953(10) 0.55998(7)
P1 P 0.2929(2) 0.9999(2) 0.70801(13)
P2 P 0.31367(19) 0.98278(19) 0.41964(13)
S1 S 0.1097(3) 0.8649(3) 0.78360(16)
S2 S 0.3149(3) 0.8430(2) 0.83135(14)
O1 O 0.0978(5) 0.7868(6) 0.6855(4)
O2 O -0.0253(6) 0.9295(7) 0.7144(5)
O3 O 0.0276(6) 1.0278(6) 0.6847(5)
O4 O -0.0252(5) 0.9109(5) 0.5808(5)
O5 O -0.1379(7) 0.8749(7) 0.5576(6)
O6 O -0.0230(6) 0.7599(5) 0.5574(4)
O7 O 0.0148(7) 0.8162(6) 0.4743(4)
O8 O 0.1528(6) 0.7167(6) 0.5783(5)
O9 O 0.1043(8) 0.6686(7) 0.4954(6)
O10 O 0.2920(6) 0.7613(5) 0.9279(4)
O11 O 0.4620(5) 0.8479(5) 0.8974(4)
O12 O 0.4464(6) 0.9592(5) 0.9213(5)
O13 O 0.4662(5) 0.8207(5) 1.0287(4)
O14 O 0.5645(6) 0.7557(7) 1.0249(6)
O15 O 0.3947(5) 0.6873(5) 1.0530(4)
O16 O 0.3641(10) 0.7418(8) 1.1380(5)
O17 O 0.2208(5) 0.7161(5) 1.0373(4)
O18 O 0.1458(7) 0.6297(7) 1.0607(6)
C1 C 0.2641(7) 1.0447(7) 0.6405(6)
C2 C 0.1877(7) 1.0568(7) 0.6282(5)
H1 H 0.1483 1.0424 0.6528
C3 C 0.1839(8) 1.0942(7) 0.5726(6)
H2 H 0.1409 1.1104 0.5538
C4 C 0.2528(8) 1.1034(6) 0.5502(5)
H3 H 0.2649 1.1260 0.5130
C5 C 0.3037(6) 1.0730(7) 0.5925(5)
H4 H 0.3547 1.0725 0.5883
C6 C 0.2662(6) 0.9475(6) 0.4818(4)
C7 C 0.1865(7) 0.9528(6) 0.4863(5)
H5 H 0.1552 0.9745 0.4578
C8 C 0.1659(7) 0.9187(7) 0.5419(5)
H6 H 0.1179 0.9129 0.5563
C9 C 0.2293(7) 0.8951(8) 0.5720(6)
H7 H 0.2303 0.8712 0.6099
C10 C 0.2902(8) 0.9126(7) 0.5371(4)
H8 H 0.3389 0.9033 0.5478
C11 C 0.3748(7) 0.9533(8) 0.6882(5)
C12 C 0.3762(9) 0.8835(8) 0.6897(6)
H9 H 0.3337 0.8588 0.7002
C13 C 0.4393(11) 0.8475(9) 0.6760(7)
H10 H 0.4401 0.7986 0.6770
C14 C 0.5022(12) 0.8854(12) 0.6606(8)
H11 H 0.5451 0.8620 0.6490
C15 C 0.5007(9) 0.9559(11) 0.6626(7)
H12 H 0.5438 0.9809 0.6550
C16 C 0.4388(7) 0.9913(9) 0.6754(6)
H13 H 0.4385 1.0403 0.6757
C17 C 0.3240(6) 1.0693(9) 0.7574(5)
C18 C 0.3670(8) 1.0524(8) 0.8083(6)
H14 H 0.3779 1.0055 0.8166
C19 C 0.3937(7) 1.1033(8) 0.8465(5)
H15 H 0.4230 1.0913 0.8805
C20 C 0.3774(8) 1.1719(9) 0.8349(6)
H16 H 0.3943 1.2071 0.8615
C21 C 0.3366(9) 1.1884(8) 0.7842(6)
H17 H 0.3272 1.2354 0.7749
C22 C 0.3082(8) 1.1360(8) 0.7457(6)
H18 H 0.2782 1.1478 0.7119
C23 C 0.3328(7) 0.9087(6) 0.3706(5)
C24 C 0.3121(8) 0.8424(7) 0.3865(5)
H19 H 0.2872 0.8341 0.4238
C25 C 0.3281(8) 0.7886(8) 0.3475(6)
H20 H 0.3138 0.7433 0.3583
C26 C 0.3648(8) 0.7992(8) 0.2925(6)
H21 H 0.3752 0.7614 0.2664
C27 C 0.3852(8) 0.8623(8) 0.2768(6)
H22 H 0.4107 0.8696 0.2397
C28 C 0.3686(8) 0.9190(8) 0.3160(5)
H23 H 0.3823 0.9643 0.3043
C29 C 0.4018(7) 1.0055(7) 0.4520(6)
C30 C 0.4148(7) 1.0760(8) 0.4647(6)
H24 H 0.3811 1.1105 0.4530
C31 C 0.4780(8) 1.0931(9) 0.4946(8)
H25 H 0.4875 1.1396 0.5056
C32 C 0.5269(9) 1.0426(9) 0.5084(7)
H26 H 0.5706 1.0553 0.5280
C33 C 0.5154(8) 0.9736(8) 0.4948(7)
H27 H 0.5501 0.9398 0.5057
C34 C 0.4515(8) 0.9546(8) 0.4648(6)
H28 H 0.4427 0.9081 0.4535
C35 C 0.0563(8) 0.8358(9) 0.7208(6)
H29 H 0.0145 0.8102 0.7386
C36 C 0.0266(8) 0.8874(8) 0.6787(6)
H30 H 0.0662 0.9174 0.6628
C37 C -0.0152(8) 0.8572(7) 0.6257(6)
H31 H -0.0631 0.8404 0.6403
C38 C 0.0252(7) 0.7995(8) 0.5962(6)
H32 H 0.0663 0.8180 0.5716
C39 C 0.0525(8) 0.7490(8) 0.6440(6)
H33 H 0.0106 0.7297 0.6670
C40 C -0.0151(9) 0.9980(10) 0.7141(7)
C41 C -0.0688(12) 1.0342(12) 0.7553(9)
H34 H -0.0457 1.0456 0.7943
H35 H -0.1101 1.0038 0.7628
H36 H -0.0854 1.0765 0.7354
C42 C -0.0857(10) 0.9145(11) 0.5517(9)
C43 C -0.0827(13) 0.9730(15) 0.5025(14)
H37 H -0.1302 0.9948 0.4991
H38 H -0.0691 0.9533 0.4628
H39 H -0.0470 1.0076 0.5147
C44 C -0.0239(10) 0.7752(9) 0.4957(7)
C45 C -0.0769(11) 0.7316(11) 0.4655(7)
H40 H -0.0976 0.7563 0.4305
H41 H -0.1153 0.7199 0.4945
H42 H -0.0536 0.6893 0.4511
C46 C 0.0947(9) 0.6910(9) 0.6164(8)
H43 H 0.1150 0.6620 0.6495
H44 H 0.0623 0.6619 0.5914
C47 C 0.1520(11) 0.7018(9) 0.5184(7)
C48 C 0.2147(11) 0.7330(11) 0.4873(8)
H45 H 0.2097 0.7273 0.4429
H46 H 0.2589 0.7103 0.5012
H47 H 0.2170 0.7822 0.4973
C49 C 0.3499(9) 0.7911(8) 0.8917(6)
H48 H 0.3762 0.7519 0.8720
C50 C 0.4018(8) 0.8258(7) 0.9336(6)
H49 H 0.3780 0.8671 0.9521
C51 C 0.4290(7) 0.7792(8) 0.9847(6)
H50 H 0.4632 0.7445 0.9672
C52 C 0.3670(7) 0.7423(7) 1.0152(6)
H51 H 0.3384 0.7752 1.0406
C53 C 0.3189(7) 0.7077(7) 0.9686(5)
H52 H 0.3487 0.6749 0.9440
C54 C 0.4757(8) 0.9144(8) 0.8908(6)
C55 C 0.5266(8) 0.9262(11) 0.8387(7)
H53 H 0.5446 0.9736 0.8402
H54 H 0.5013 0.9186 0.7998
H55 H 0.5672 0.8941 0.8418
C56 C 0.5332(10) 0.8001(13) 1.0449(8)
C57 C 0.5624(14) 0.8401(15) 1.0993(13)
H56 H 0.5764 0.8864 1.0861
H57 H 0.6047 0.8162 1.1159
H58 H 0.5252 0.8434 1.1309
C58 C 0.3895(9) 0.6941(9) 1.1154(6)
C59 C 0.4209(10) 0.6333(9) 1.1444(7)
H59 H 0.4723 0.6305 1.1342
H60 H 0.3963 0.5919 1.1296
H61 H 0.4153 0.6367 1.1889
C60 C 0.2551(9) 0.6687(8) 0.9949(6)
H62 H 0.2212 0.6552 0.9620
H63 H 0.2714 0.6267 1.0165
C61 C 0.1677(10) 0.6864(10) 1.0684(7)
C62 C 0.1344(13) 0.7385(11) 1.1144(10)
H64 H 0.1279 0.7831 1.0942
H65 H 0.1668 0.7439 1.1496
H66 H 0.0876 0.7213 1.1285
Au2A Au 0.25193(3) 1.07090(3) 0.376278(18)
P2A P 0.18633(19) 1.01722(19) 0.91964(13)
Cl1 Cl 0.7087(5) 0.8864(4) 0.6679(4)
Cl2 Cl 0.7142(6) 1.0177(4) 0.6062(4)
C63 C 0.7078(12) 0.9308(11) 0.5974(9)
H67 H 0.7486 0.9145 0.5719
H68 H 0.6626 0.9199 0.5753
Cl3 Cl 0.2989(6) 0.4749(4) 0.0782(4)
C64 C 0.2218(14) 0.4858(16) 0.1260(14)
H69 H 0.1811 0.5042 0.1017
H70 H 0.2072 0.4408 0.1434
Cl4 Cl 0.2433(7) 0.5437(12) 0.1858(6)
O19 O 0.7183(8) 0.8506(7) 0.1901(7)
O21 O 0.1996(11) 0.2947(8) 0.1699(9)
O23 O 0.4556(13) 0.6611(12) 0.7816(11)
O25 O 0.5557(8) 0.7907(8) 0.1938(7)
O20? O 0.7185(12) 0.8675(12) 0.2392(11)
O22? O 0.2338(10) 0.2906(9) 0.1987(9)
O24? O 0.4834(16) 0.6476(15) 0.8513(13)
loop_
_geom_bond_atom_site_label_1
_geom_bond_atom_site_label_2
_geom_bond_site_symmetry_1
_geom_bond_site_symmetry_2
Au1 Au2 1_555 1_555
Au2 S2 1_555 1_555
Fe1 C1 1_555 1_555
P1 Au1 1_555 1_555
P2 C6 1_555 1_555
S1 Au1 1_555 1_555
S2 C49 1_555 1_555
O1 C35 1_555 1_555
O2 C36 1_555 1_555
O3 C40 1_555 1_555
O4 C37 1_555 1_555
O5 C42 1_555 1_555
O6 C38 1_555 1_555
O7 C44 1_555 1_555
O8 C46 1_555 1_555
O9 C47 1_555 1_555
O10 C49 1_555 1_555
O11 C50 1_555 1_555
O12 C54 1_555 1_555
O13 C51 1_555 1_555
O14 C56 1_555 1_555
O15 C52 1_555 1_555
O16 C58 1_555 1_555
O17 C60 1_555 1_555
O18 C61 1_555 1_555
C1 P1 1_555 1_555
C2 Fe1 1_555 1_555
H1 C2 1_555 1_555
C3 Fe1 1_555 1_555
H2 C3 1_555 1_555
C4 Fe1 1_555 1_555
H3 C4 1_555 1_555
C5 Fe1 1_555 1_555
H4 C5 1_555 1_555
C6 Fe1 1_555 1_555
C7 Fe1 1_555 1_555
H5 C7 1_555 1_555
C8 Fe1 1_555 1_555
H6 C8 1_555 1_555
C9 Fe1 1_555 1_555
H7 C9 1_555 1_555
C10 Fe1 1_555 1_555
H8 C10 1_555 1_555
C11 P1 1_555 1_555
C12 C11 1_555 1_555
H9 C12 1_555 1_555
C13 C12 1_555 1_555
H10 C13 1_555 1_555
C14 C13 1_555 1_555
H11 C14 1_555 1_555
C15 C14 1_555 1_555
H12 C15 1_555 1_555
C16 C11 1_555 1_555
H13 C16 1_555 1_555
C17 P1 1_555 1_555
C18 C17 1_555 1_555
H14 C18 1_555 1_555
C19 C18 1_555 1_555
H15 C19 1_555 1_555
C20 C19 1_555 1_555
H16 C20 1_555 1_555
C21 C20 1_555 1_555
H17 C21 1_555 1_555
C22 C17 1_555 1_555
H18 C22 1_555 1_555
C23 P2 1_555 1_555
C24 C23 1_555 1_555
H19 C24 1_555 1_555
C25 C24 1_555 1_555
H20 C25 1_555 1_555
C26 C25 1_555 1_555
H21 C26 1_555 1_555
C27 C26 1_555 1_555
H22 C27 1_555 1_555
C28 C23 1_555 1_555
H23 C28 1_555 1_555
C29 P2 1_555 1_555
C30 C29 1_555 1_555
H24 C30 1_555 1_555
C31 C30 1_555 1_555
H25 C31 1_555 1_555
C32 C31 1_555 1_555
H26 C32 1_555 1_555
C33 C32 1_555 1_555
H27 C33 1_555 1_555
C34 C29 1_555 1_555
H28 C34 1_555 1_555
C35 S1 1_555 1_555
H29 C35 1_555 1_555
C36 C35 1_555 1_555
H30 C36 1_555 1_555
C37 C36 1_555 1_555
H31 C37 1_555 1_555
C38 C37 1_555 1_555
H32 C38 1_555 1_555
C39 O1 1_555 1_555
H33 C39 1_555 1_555
C40 O2 1_555 1_555
C41 C40 1_555 1_555
H34 C41 1_555 1_555
H35 C41 1_555 1_555
H36 C41 1_555 1_555
C42 O4 1_555 1_555
C43 C42 1_555 1_555
H37 C43 1_555 1_555
H38 C43 1_555 1_555
H39 C43 1_555 1_555
C44 O6 1_555 1_555
C45 C44 1_555 1_555
H40 C45 1_555 1_555
H41 C45 1_555 1_555
H42 C45 1_555 1_555
C46 C39 1_555 1_555
H43 C46 1_555 1_555
H44 C46 1_555 1_555
C47 O8 1_555 1_555
C48 C47 1_555 1_555
H45 C48 1_555 1_555
H46 C48 1_555 1_555
H47 C48 1_555 1_555
C49 H48 1_555 1_555
C50 C49 1_555 1_555
H49 C50 1_555 1_555
C51 C50 1_555 1_555
H50 C51 1_555 1_555
C52 C51 1_555 1_555
H51 C52 1_555 1_555
C53 O10 1_555 1_555
H52 C53 1_555 1_555
C54 O11 1_555 1_555
C55 C54 1_555 1_555
H53 C55 1_555 1_555
H54 C55 1_555 1_555
H55 C55 1_555 1_555
C56 O13 1_555 1_555
C57 C56 1_555 1_555
H56 C57 1_555 1_555
H57 C57 1_555 1_555
H58 C57 1_555 1_555
C58 O15 1_555 1_555
C59 C58 1_555 1_555
H59 C59 1_555 1_555
H60 C59 1_555 1_555
H61 C59 1_555 1_555
C60 C53 1_555 1_555
H62 C60 1_555 1_555
H63 C60 1_555 1_555
C61 O17 1_555 1_555
C62 C61 1_555 1_555
H64 C62 1_555 1_555
H65 C62 1_555 1_555
H66 C62 1_555 1_555
Cl1 C63 1_555 1_555
Cl2 C63 1_555 1_555
C63 H67 1_555 1_555
H68 C63 1_555 1_555
Cl3 C64 1_555 1_555
C64 H69 1_555 1_555
H70 C64 1_555 1_555
Cl4 C64 1_555 1_555
Au2A P2 1_555 1_555
P2A Au2 1_555 1_555
C1 C2 1_555 1_555
C1 C5 1_555 1_555
C2 C3 1_555 1_555
C3 C4 1_555 1_555
C4 C5 1_555 1_555
C6 C7 1_555 1_555
C6 C10 1_555 1_555
C7 C8 1_555 1_555
C8 C9 1_555 1_555
C9 C10 1_555 1_555
C15 C16 1_555 1_555
C21 C22 1_555 1_555
C27 C28 1_555 1_555
C33 C34 1_555 1_555
C38 C39 1_555 1_555
C52 C53 1_555 1_555

#END
