
#######################################################################
#
#                 Cambridge Crystallographic Data Centre
#                                CCDC 
#
#######################################################################
#
# If this CIF has been generated from an entry in the Cambridge 
# Structural Database, then it will include bibliographic, chemical, 
# crystal, experimental, refinement or atomic coordinate data resulting 
# from the CCDC's data processing and validation procedures.
#
#######################################################################

data_FIYGOJ
_symmetry_cell_setting           triclinic
_symmetry_space_group_name_H-M   'P -1'
_symmetry_Int_Tables_number      2
_space_group_name_Hall           '-P 1'
loop_
_symmetry_equiv_pos_site_id
_symmetry_equiv_pos_as_xyz
1 x,y,z
2 -x,-y,-z
_cell_length_a                   11.076(3)
_cell_length_b                   18.478(8)
_cell_length_c                   9.299(3)
_cell_angle_alpha                104.60(3)
_cell_angle_beta                 114.84(2)
_cell_angle_gamma                81.12(3)
_cell_volume                     1668.77
loop_
_atom_site_label
_atom_site_type_symbol
_atom_site_fract_x
_atom_site_fract_y
_atom_site_fract_z
Cd1 Cd 0.00000 0.00000 0.00000
Cd2 Cd 0.50000 0.50000 0.50000
Cd3 Cd 0.25004(4) 0.24999(2) 0.52439(5)
S1 S -0.1216(2) 0.0744(1) 0.2017(2)
S2 S 0.3765(2) 0.1670(2) 0.3270(3)
S3 S 0.1228(2) 0.3335(1) 0.2839(2)
S4 S 0.6216(2) 0.4256(1) 0.7491(2)
N1 N 0.0578(5) 0.1854(3) 0.3828(6)
N2 N 0.1829(5) 0.0673(3) 0.1219(6)
N3 N 0.3171(5) 0.4330(3) 0.3716(6)
N4 N 0.4414(5) 0.3142(3) 0.6394(6)
C1 C -0.0157(5) 0.1400(3) 0.3091(6)
C2 C 0.2623(5) 0.1082(3) 0.2078(6)
C3 C 0.2371(5) 0.3920(3) 0.3363(6)
C4 C 0.5158(5) 0.3599(3) 0.6849(6)
N5 N 0.1440(5) 0.3338(3) 0.6810(5)
C5 C 0.0151(6) 0.3511(4) 0.5947(7)
C6 C -0.0664(7) 0.3961(4) 0.6601(8)
C7 C -0.0153(7) 0.4236(5) 0.8227(9)
C8 C 0.1166(7) 0.4082(4) 0.9132(8)
C9 C 0.1940(6) 0.3625(3) 0.8403(6)
C10 C 0.3367(6) 0.3432(4) 0.9406(7)
N6 N 0.3562(4) 0.1666(3) 0.7039(6)
C11 C 0.4869(6) 0.1487(4) 0.7305(8)
C12 C 0.5681(7) 0.1041(4) 0.8328(10)
C13 C 0.5157(7) 0.0753(5) 0.9137(11)
C14 C 0.3831(7) 0.0917(4) 0.8885(9)
C15 C 0.3048(6) 0.1376(3) 0.7829(7)
C16 C 0.1624(7) 0.1561(4) 0.7603(9)
N7 N 0.6032(4) 0.4019(3) 0.3365(5)
C17 C 0.5758(6) 0.3315(3) 0.3293(7)
C18 C 0.6202(7) 0.2683(3) 0.2467(7)
C19 C 0.6952(7) 0.2762(4) 0.1668(8)
C20 C 0.7246(7) 0.3462(4) 0.1728(8)
C21 C 0.6778(6) 0.4089(3) 0.2579(7)
C22 C 0.7100(8) 0.4858(4) 0.2652(10)
N8 N -0.1039(4) 0.0984(3) -0.1689(5)
C23 C -0.0758(6) 0.1677(3) -0.0781(7)
C24 C -0.1206(7) 0.2313(4) -0.1429(8)
C25 C -0.1952(7) 0.2235(4) -0.3051(9)
C26 C -0.2239(6) 0.1528(4) -0.3976(8)
C27 C -0.1772(6) 0.0912(3) -0.3291(7)
C28 C -0.2108(8) 0.0142(4) -0.4317(8)
H1 H -0.026 0.328 0.465
H2 H -0.170 0.409 0.584
H3 H -0.080 0.457 0.880
H4 H 0.160 0.431 1.043
H5 H 0.528 0.171 0.664
H6 H 0.672 0.092 0.850
H7 H 0.579 0.040 0.999
H8 H 0.341 0.070 0.954
H9 H 0.515 0.325 0.392
H10 H 0.596 0.213 0.244
H11 H 0.731 0.227 0.099
H12 H 0.785 0.353 0.110
H13 H -0.015 0.174 0.052
H14 H -0.096 0.287 -0.065
H15 H -0.232 0.272 -0.361
H16 H -0.285 0.146 -0.528
S1A S 0.1216(2) -0.0744(1) -0.2017(2)
N1A N -0.0578(5) -0.1854(3) -0.3828(6)
C1A C 0.0157(5) -0.1400(3) -0.3091(6)
S2A S -0.3765(2) -0.1670(2) -0.3270(3)
N2A N -0.1829(5) -0.0673(3) -0.1219(6)
C2A C -0.2623(5) -0.1082(3) -0.2078(6)
N8A N 0.1039(4) -0.0984(3) 0.1689(5)
C23A C 0.0758(6) -0.1677(3) 0.0781(7)
C24A C 0.1206(7) -0.2313(4) 0.1429(8)
C25A C 0.1952(7) -0.2235(4) 0.3051(9)
C26A C 0.2239(6) -0.1528(4) 0.3976(8)
C27A C 0.1772(6) -0.0912(3) 0.3291(7)
C28A C 0.2108(8) -0.0142(4) 0.4317(8)
H13A H 0.015 -0.174 -0.052
H14A H 0.096 -0.287 0.065
H15A H 0.232 -0.272 0.361
H16A H 0.285 -0.146 0.528
Cd3A Cd -0.25004(4) -0.24999(2) -0.52439(5)
S3A S -0.1228(2) -0.3335(1) -0.2839(2)
N3A N -0.3171(5) -0.4330(3) -0.3716(6)
C3A C -0.2371(5) -0.3920(3) -0.3363(6)
S4A S -0.6216(2) -0.4256(1) -0.7491(2)
N4A N -0.4414(5) -0.3142(3) -0.6394(6)
C4A C -0.5158(5) -0.3599(3) -0.6849(6)
N5A N -0.1440(5) -0.3338(3) -0.6810(5)
C5A C -0.0151(6) -0.3511(4) -0.5947(7)
C6A C 0.0664(7) -0.3961(4) -0.6601(8)
C7A C 0.0153(7) -0.4236(5) -0.8227(9)
C8A C -0.1166(7) -0.4082(4) -0.9132(8)
C9A C -0.1940(6) -0.3625(3) -0.8403(6)
C10A C -0.3367(6) -0.3432(4) -0.9406(7)
H1A H 0.026 -0.328 -0.465
H2A H 0.170 -0.409 -0.584
H3A H 0.080 -0.457 -0.880
H4A H -0.160 -0.431 -1.043
N6A N -0.3562(4) -0.1666(3) -0.7039(6)
C11A C -0.4869(6) -0.1487(4) -0.7305(8)
C12A C -0.5681(7) -0.1041(4) -0.8328(10)
C13A C -0.5157(7) -0.0753(5) -0.9137(11)
C14A C -0.3831(7) -0.0917(4) -0.8885(9)
C15A C -0.3048(6) -0.1376(3) -0.7829(7)
C16A C -0.1624(7) -0.1561(4) -0.7603(9)
H5A H -0.528 -0.171 -0.664
H6A H -0.672 -0.092 -0.850
H7A H -0.579 -0.040 -0.999
H8A H -0.341 -0.070 -0.954
N7A N 0.3968(4) 0.5981(3) 0.6635(5)
C17A C 0.4242(6) 0.6685(3) 0.6707(7)
C18A C 0.3798(7) 0.7317(3) 0.7533(7)
C19A C 0.3048(7) 0.7238(4) 0.8332(8)
C20A C 0.2754(7) 0.6538(4) 0.8272(8)
C21A C 0.3222(6) 0.5911(3) 0.7421(7)
C22A C 0.2900(8) 0.5142(4) 0.7348(10)
H9A H 0.485 0.675 0.608
H10A H 0.404 0.787 0.756
H11A H 0.269 0.773 0.901
H12A H 0.215 0.647 0.890
S4A_2 S 0.3784(2) 0.5744(1) 0.2509(2)
N3A_2 N 0.6829(5) 0.5670(3) 0.6284(6)
Cd2_2 Cd -0.50000 -0.50000 -0.50000
loop_
_geom_bond_atom_site_label_1
_geom_bond_atom_site_label_2
_geom_bond_site_symmetry_1
_geom_bond_site_symmetry_2
Cd1 S1 1_555 1_555
Cd2 S4 1_555 1_555
Cd3 S2 1_555 1_555
S1 C1 1_555 1_555
S2 C2 1_555 1_555
S3 Cd3 1_555 1_555
S4 C4 1_555 1_555
N1 Cd3 1_555 1_555
N2 Cd1 1_555 1_555
N3 Cd2 1_555 1_555
N4 Cd3 1_555 1_555
C1 N1 1_555 1_555
C2 N2 1_555 1_555
C3 S3 1_555 1_555
C4 N4 1_555 1_555
N5 Cd3 1_555 1_555
C5 N5 1_555 1_555
C6 C5 1_555 1_555
C7 C6 1_555 1_555
C8 C7 1_555 1_555
C9 N5 1_555 1_555
C10 C9 1_555 1_555
N6 Cd3 1_555 1_555
C11 N6 1_555 1_555
C12 C11 1_555 1_555
C13 C12 1_555 1_555
C14 C13 1_555 1_555
C15 N6 1_555 1_555
C16 C15 1_555 1_555
N7 Cd2 1_555 1_555
C17 N7 1_555 1_555
C18 C17 1_555 1_555
C19 C18 1_555 1_555
C20 C19 1_555 1_555
C21 N7 1_555 1_555
C22 C21 1_555 1_555
N8 Cd1 1_555 1_555
C23 N8 1_555 1_555
C24 C23 1_555 1_555
C25 C24 1_555 1_555
C26 C25 1_555 1_555
C27 N8 1_555 1_555
C28 C27 1_555 1_555
H1 C5 1_555 1_555
H2 C6 1_555 1_555
H3 C7 1_555 1_555
H4 C8 1_555 1_555
H5 C11 1_555 1_555
H6 C12 1_555 1_555
H7 C13 1_555 1_555
H8 C14 1_555 1_555
H9 C17 1_555 1_555
H10 C18 1_555 1_555
H11 C19 1_555 1_555
H12 C20 1_555 1_555
H13 C23 1_555 1_555
H14 C24 1_555 1_555
H15 C25 1_555 1_555
H16 C26 1_555 1_555
S1A Cd1 1_555 1_555
N1A C1A 1_555 1_555
C1A S1A 1_555 1_555
S2A C2A 1_555 1_555
N2A Cd1 1_555 1_555
C2A N2A 1_555 1_555
N8A Cd1 1_555 1_555
C23A N8A 1_555 1_555
C24A C23A 1_555 1_555
C25A C24A 1_555 1_555
C26A C25A 1_555 1_555
C27A N8A 1_555 1_555
C28A C27A 1_555 1_555
H13A C23A 1_555 1_555
H14A C24A 1_555 1_555
H15A C25A 1_555 1_555
H16A C26A 1_555 1_555
Cd3A N1A 1_555 1_555
S3A Cd3A 1_555 1_555
N3A C3A 1_555 1_555
C3A S3A 1_555 1_555
S4A C4A 1_555 1_555
N4A Cd3A 1_555 1_555
C4A N4A 1_555 1_555
N5A Cd3A 1_555 1_555
C5A N5A 1_555 1_555
C6A C5A 1_555 1_555
C7A C6A 1_555 1_555
C8A C7A 1_555 1_555
C9A N5A 1_555 1_555
C10A C9A 1_555 1_555
H1A C5A 1_555 1_555
H2A C6A 1_555 1_555
H3A C7A 1_555 1_555
H4A C8A 1_555 1_555
N6A Cd3A 1_555 1_555
C11A N6A 1_555 1_555
C12A C11A 1_555 1_555
C13A C12A 1_555 1_555
C14A C13A 1_555 1_555
C15A N6A 1_555 1_555
C16A C15A 1_555 1_555
H5A C11A 1_555 1_555
H6A C12A 1_555 1_555
H7A C13A 1_555 1_555
H8A C14A 1_555 1_555
N7A Cd2 1_555 1_555
C17A N7A 1_555 1_555
C18A C17A 1_555 1_555
C19A C18A 1_555 1_555
C20A C19A 1_555 1_555
C21A N7A 1_555 1_555
C22A C21A 1_555 1_555
H9A C17A 1_555 1_555
H10A C18A 1_555 1_555
H11A C19A 1_555 1_555
H12A C20A 1_555 1_555
S4A_2 Cd2 1_555 1_555
N3A_2 Cd2 1_555 1_555
Cd2_2 N3A 1_555 1_555
N3 C3 1_555 1_555
C8 C9 1_555 1_555
C14 C15 1_555 1_555
C20 C21 1_555 1_555
C26 C27 1_555 1_555
S2A Cd3A 1_555 1_555
C26A C27A 1_555 1_555
S4A Cd2_2 1_555 1_555
C8A C9A 1_555 1_555
C14A C15A 1_555 1_555
C20A C21A 1_555 1_555

#END
