
#######################################################################
#
#                 Cambridge Crystallographic Data Centre
#                                CCDC 
#
#######################################################################
#
# If this CIF has been generated from an entry in the Cambridge 
# Structural Database, then it will include bibliographic, chemical, 
# crystal, experimental, refinement or atomic coordinate data resulting 
# from the CCDC's data processing and validation procedures.
#
#######################################################################

data_FIYGOK
_symmetry_cell_setting           monoclinic
_symmetry_space_group_name_H-M   'P 21/c'
_symmetry_Int_Tables_number      14
_space_group_name_Hall           '-P 2ybc'
loop_
_symmetry_equiv_pos_site_id
_symmetry_equiv_pos_as_xyz
1 x,y,z
2 -x,1/2+y,1/2-z
3 -x,-y,-z
4 x,1/2-y,1/2+z
_cell_length_a                   21.790(4)
_cell_length_b                   16.601(3)
_cell_length_c                   21.009(4)
_cell_angle_alpha                90
_cell_angle_beta                 99.98(3)
_cell_angle_gamma                90
_cell_volume                     7484.71
loop_
_atom_site_label
_atom_site_type_symbol
_atom_site_fract_x
_atom_site_fract_y
_atom_site_fract_z
Mo6 Mo 0.55399(6) -0.17396(9) 0.42521(7)
Mo7 Mo 0.56015(8) -0.05937(11) 0.66040(8)
Mo8 Mo 0.66413(7) -0.04170(10) 0.53715(8)
Mo9 Mo 0.39405(9) -0.12766(13) 0.39217(10)
Mo10 Mo 0.45143(7) -0.19174(10) 0.55091(7)
V3 V 0.59850(10) 0.01700(15) 0.38012(10)
V4 V 0.59560(12) -0.19477(18) 0.57187(13)
P2 P 0.5000 0.0000 0.5000
Co2 Co 0.68647(10) -0.32215(14) 0.68266(11)
O4 O 0.6857(6) -0.2087(8) 0.7275(6)
O19 O 0.5821(7) -0.2569(8) 0.3976(7)
O20 O 0.5243(5) -0.2190(9) 0.5043(6)
O21 O 0.4345(6) -0.2818(8) 0.5742(8)
O22 O 0.5291(5) -0.1662(8) 0.6162(5)
O23 O 0.4033(5) -0.1853(11) 0.4733(6)
O24 O 0.6250(5) -0.1476(8) 0.5003(5)
O25 O 0.6065(12) 0.0413(16) 0.6777(11)
O27 O 0.5818(7) -0.0970(10) 0.3781(7)
O28 O 0.4735(5) -0.1714(10) 0.3851(6)
O32 O 0.5901(5) -0.0941(8) 0.7326(6)
O33 O 0.6280(7) -0.0942(9) 0.6107(7)
O34 O 0.5180(5) 0.0329(10) 0.3310(7)
O35 O 0.7384(5) -0.0703(8) 0.5558(6)
O36 O 0.6599(6) -0.0036(9) 0.4558(7)
O39 O 0.6400(8) 0.0260(9) 0.3256(8)
O40 O 0.3471(5) -0.1860(8) 0.3461(6)
O41 O 0.6366(5) -0.2738(7) 0.5995(6)
O42 O 0.5942(6) 0.1276(9) 0.4076(7)
O43 O 0.6787(12) 0.0547(16) 0.5929(12)
O53 O 0.5508(8) -0.0386(11) 0.4706(9)
O54 O 0.5174(10) 0.0493(15) 0.4450(8)
N5 N 0.7474(6) -0.3507(8) 0.7667(7)
N6 N 0.7722(6) -0.2895(8) 0.6582(6)
N7 N 0.5990(7) -0.3601(10) 0.7034(6)
N8 N 0.6826(7) -0.4411(9) 0.6491(7)
C22 C 0.7329(10) -0.3735(13) 0.8237(10)
H14 H 0.6920 -0.3871 0.8265
C23 C 0.7786(12) -0.3765(13) 0.8779(10)
H15 H 0.7668 -0.3919 0.9166
C24 C 0.8363(10) -0.3597(13) 0.8791(11)
H16 H 0.8647 -0.3608 0.9176
C25 C 0.8558(9) -0.3393(12) 0.8196(10)
C26 C 0.9174(10) -0.3236(12) 0.8121(12)
H17 H 0.9496 -0.3343 0.8463
C27 C 0.9312(7) -0.2931(11) 0.7560(11)
H18 H 0.9723 -0.2816 0.7525
C28 C 0.8827(9) -0.2792(10) 0.7031(10)
C29 C 0.8903(9) -0.2439(12) 0.6448(11)
H19 H 0.9304 -0.2300 0.6393
C30 C 0.8419(9) -0.2282(11) 0.5946(9)
H20 H 0.8479 -0.2021 0.5570
C31 C 0.7832(8) -0.2543(11) 0.6045(9)
H21 H 0.7495 -0.2466 0.5712
C32 C 0.8215(7) -0.3010(10) 0.7060(8)
C33 C 0.8075(8) -0.3328(9) 0.7655(9)
C34 C 0.5571(10) -0.3166(12) 0.7269(9)
H22 H 0.5673 -0.2641 0.7403
C35 C 0.4980(9) -0.3464(16) 0.7324(10)
H23 H 0.4695 -0.3144 0.7491
C36 C 0.4829(8) -0.4248(16) 0.7123(10)
H24 H 0.4440 -0.4459 0.7156
C37 C 0.5277(9) -0.4733(15) 0.6863(10)
C38 C 0.5176(12) -0.5553(17) 0.6669(13)
H25 H 0.4805 -0.5800 0.6723
C39 C 0.5594(13) -0.5982(18) 0.6413(14)
H26 H 0.5503 -0.6502 0.6260
C40 C 0.6175(10) -0.5622(13) 0.6382(11)
C41 C 0.6655(13) -0.6003(17) 0.6123(13)
H27 H 0.6619 -0.6551 0.6032
C42 C 0.7153(11) -0.5615(18) 0.6004(15)
H28 H 0.7439 -0.5871 0.5792
C43 C 0.7245(10) -0.4796(14) 0.6208(12)
H29 H 0.7603 -0.4526 0.6143
C44 C 0.6299(7) -0.4831(12) 0.6548(9)
C45 C 0.5839(7) -0.4390(12) 0.6845(8)
Mo6B Mo 0.44601(6) 0.17396(9) 0.57479(7)
Mo7B Mo 0.43985(8) 0.05937(11) 0.33960(8)
Mo8B Mo 0.33587(7) 0.04170(10) 0.46285(8)
Mo9B Mo 0.60595(9) 0.12766(13) 0.60783(10)
Mo10B Mo 0.54857(7) 0.19174(10) 0.44909(7)
V3B V 0.40150(10) -0.01700(15) 0.61988(10)
V4B V 0.40440(12) 0.19477(18) 0.42813(13)
Co2B Co 0.31353(10) 0.32215(14) 0.31734(11)
O4B O 0.3143(6) 0.2087(8) 0.2725(6)
O19B O 0.4179(7) 0.2569(8) 0.6024(7)
O20B O 0.4757(5) 0.2190(9) 0.4957(6)
O21B O 0.5655(6) 0.2818(8) 0.4258(8)
O22B O 0.4709(5) 0.1662(8) 0.3838(5)
O23B O 0.5967(5) 0.1853(11) 0.5267(6)
O24B O 0.3750(5) 0.1476(8) 0.4997(5)
O25B O 0.3935(12) -0.0413(16) 0.3223(11)
O27B O 0.4182(7) 0.0970(10) 0.6219(7)
O28B O 0.5265(5) 0.1714(10) 0.6149(6)
O32B O 0.4099(5) 0.0941(8) 0.2674(6)
O33B O 0.3720(7) 0.0942(9) 0.3893(7)
O34B O 0.4820(5) -0.0329(10) 0.6690(7)
O35B O 0.2616(5) 0.0703(8) 0.4442(6)
O36B O 0.3401(6) 0.0036(9) 0.5442(7)
O39B O 0.3600(8) -0.0260(9) 0.6744(8)
O40B O 0.6529(5) 0.1860(8) 0.6539(6)
O41B O 0.3634(5) 0.2738(7) 0.4005(6)
O42B O 0.4058(6) -0.1276(9) 0.5924(7)
O43B O 0.3213(12) -0.0547(16) 0.4071(12)
O53B O 0.4492(8) 0.0386(11) 0.5294(9)
O54B O 0.4826(10) -0.0493(15) 0.5550(8)
N5B N 0.2526(6) 0.3507(8) 0.2333(7)
N6B N 0.2278(6) 0.2895(8) 0.3418(6)
N7B N 0.4010(7) 0.3601(10) 0.2966(6)
N8B N 0.3174(7) 0.4411(9) 0.3509(7)
C22B C 0.2671(10) 0.3735(13) 0.1763(10)
H14B H 0.3080 0.3871 0.1735
C23B C 0.2214(12) 0.3765(13) 0.1221(10)
H15B H 0.2332 0.3919 0.0834
C24B C 0.1637(10) 0.3597(13) 0.1209(11)
H16B H 0.1353 0.3608 0.0824
C25B C 0.1442(9) 0.3393(12) 0.1804(10)
C26B C 0.0826(10) 0.3236(12) 0.1879(12)
H17B H 0.0504 0.3343 0.1537
C27B C 0.0688(7) 0.2931(11) 0.2440(11)
H18B H 0.0277 0.2816 0.2475
C28B C 0.1173(9) 0.2792(10) 0.2969(10)
C29B C 0.1097(9) 0.2439(12) 0.3552(11)
H19B H 0.0696 0.2300 0.3607
C30B C 0.1581(9) 0.2282(11) 0.4054(9)
H20B H 0.1521 0.2021 0.4430
C31B C 0.2168(8) 0.2543(11) 0.3955(9)
H21B H 0.2505 0.2466 0.4288
C32B C 0.1785(7) 0.3010(10) 0.2940(8)
C33B C 0.1925(8) 0.3328(9) 0.2345(9)
C34B C 0.4429(10) 0.3166(12) 0.2731(9)
H22B H 0.4327 0.2641 0.2597
C35B C 0.5020(9) 0.3464(16) 0.2676(10)
H23B H 0.5305 0.3144 0.2509
C36B C 0.5171(8) 0.4248(16) 0.2877(10)
H24B H 0.5560 0.4459 0.2844
C37B C 0.4723(9) 0.4733(15) 0.3137(10)
C38B C 0.4824(12) 0.5553(17) 0.3331(13)
H25B H 0.5195 0.5800 0.3277
C39B C 0.4406(13) 0.5982(18) 0.3587(14)
H26B H 0.4497 0.6502 0.3740
C40B C 0.3825(10) 0.5622(13) 0.3618(11)
C41B C 0.3345(13) 0.6003(17) 0.3877(13)
H27B H 0.3381 0.6551 0.3968
C42B C 0.2847(11) 0.5615(18) 0.3996(15)
H28B H 0.2561 0.5871 0.4208
C43B C 0.2755(10) 0.4796(14) 0.3792(12)
H29B H 0.2397 0.4526 0.3857
C44B C 0.3701(7) 0.4831(12) 0.3452(9)
C45B C 0.4161(7) 0.4390(12) 0.3155(8)
O5 O 0.6929(9) -0.1778(12) 0.8541(9)
O6 O -0.343(3) 0.503(4) 0.457(4)
O7 O 0.565(3) -0.541(4) 0.478(3)
O8 O 0.557(3) -0.414(4) 0.502(3)
Mo1 Mo 0.08602(6) 0.48339(8) 0.37140(6)
Mo2 Mo -0.06929(6) 0.58339(8) 0.34884(6)
Mo3 Mo 0.14140(6) 0.61293(9) 0.51588(6)
Mo4 Mo -0.01289(7) 0.71508(8) 0.49258(7)
Mo5 Mo 0.14982(8) 0.40157(10) 0.52199(8)
V1 V 0.05951(12) 0.66568(15) 0.38524(12)
V2 V -0.05354(10) 0.37395(13) 0.36149(10)
P1 P 0.0000 0.5000 0.5000
Co1 Co 0.13051(9) 0.82471(12) 0.30317(10)
O1 O 0.1212(5) 0.5862(6) 0.4198(5)
O2 O 0.1356(6) 0.4225(6) 0.4316(5)
O3 O 0.0224(5) 0.5709(7) 0.3414(6)
O11 O 0.0275(5) 0.4073(6) 0.3496(8)
O12 O -0.0238(5) 0.6788(7) 0.3985(5)
O13 O -0.0972(5) 0.6232(7) 0.2773(5)
O14 O -0.0819(5) 0.4775(7) 0.3338(8)
O15 O 0.0751(6) 0.6934(8) 0.4763(5)
O16 O 0.1222(6) 0.6312(12) 0.5935(6)
O17 O -0.0930(6) 0.6866(9) 0.4934(6)
O18 O 0.0147(6) 0.7070(11) 0.5786(6)
O29 O 0.1724(7) 0.5130(7) 0.5316(6)
O30 O -0.1331(7) 0.5976(8) 0.3932(6)
O31 O 0.2154(5) 0.3573(8) 0.5321(6)
O37 O 0.0753(4) 0.8231(6) 0.2040(5)
O38 O 0.0809(5) 0.7325(6) 0.3372(5)
O45 O 0.1251(6) 0.4838(6) 0.3107(5)
O46 O 0.2058(5) 0.6649(7) 0.5160(6)
O47 O -0.0167(6) 0.8145(6) 0.4821(5)
O50 O -0.0430(8) 0.5667(11) 0.4688(9)
O51 O -0.0016(9) 0.4965(11) 0.4278(9)
N1 N 0.1781(6) 0.8411(8) 0.3982(7)
N2 N 0.0765(5) 0.9174(7) 0.3370(6)
N3 N 0.1877(7) 0.7399(11) 0.2663(7)
N4 N 0.1941(6) 0.9016(11) 0.2674(7)
C1 C 0.2304(8) 0.8078(10) 0.4257(10)
H1 H 0.2525 0.7746 0.4020
C2 C 0.2537(9) 0.8233(13) 0.4935(10)
H2 H 0.2897 0.7973 0.5134
C3 C 0.2260(10) 0.8723(13) 0.5275(10)
H3 H 0.2424 0.8820 0.5707
C4 C 0.1712(9) 0.9100(12) 0.4981(9)
C5 C 0.1377(13) 0.9685(14) 0.5289(10)
H4 H 0.1517 0.9799 0.5724
C6 C 0.0873(11) 1.0076(15) 0.4983(11)
H5 H 0.0658 1.0429 0.5209
C7 C 0.0673(10) 0.9948(11) 0.4320(9)
C8 C 0.0174(10) 1.0393(12) 0.3927(11)
H6 H -0.0008 1.0825 0.4106
C9 C -0.0027(8) 1.0196(11) 0.3320(11)
H7 H -0.0367 1.0460 0.3082
C10 C 0.0275(7) 0.9588(10) 0.3036(9)
H8 H 0.0137 0.9462 0.2604
C11 C 0.0954(7) 0.9354(9) 0.3989(8)
C12 C 0.1502(8) 0.8932(10) 0.4318(7)
C13 C 0.1821(12) 0.6637(15) 0.2648(10)
H9 H 0.1501 0.6405 0.2827
C14 C 0.2635(19) 0.644(3) 0.2048(14)
H10 H 0.2878 0.6105 0.1835
C15 C 0.2710(10) 0.729(3) 0.2019(11)
C16 C 0.2750(12) 0.895(3) 0.2037(13)
C17 C 0.2793(14) 0.975(4) 0.2066(16)
H11 H 0.3083 1.0009 0.1857
C18 C 0.2407(13) 1.0242(18) 0.2408(16)
H12 H 0.2434 1.0801 0.2416
C19 C 0.1986(10) 0.9821(16) 0.2731(13)
H13 H 0.1743 1.0099 0.2980
C20 C 0.2326(8) 0.8609(18) 0.2354(9)
C21 C 0.2295(8) 0.7732(14) 0.2347(9)
C46 C 0.2233(17) 0.611(2) 0.2366(14)
H30 H 0.2212 0.5556 0.2410
C47 C 0.3147(18) 0.775(4) 0.175(2)
H31 H 0.3447 0.7463 0.1581
C48 C 0.317(2) 0.846(3) 0.172(3)
H32 H 0.3454 0.8700 0.1493
Mo1B Mo -0.08602(6) 0.51661(8) 0.62860(6)
Mo2B Mo 0.06929(6) 0.41661(8) 0.65116(6)
Mo3B Mo -0.14140(6) 0.38707(9) 0.48412(6)
Mo4B Mo 0.01289(7) 0.28492(8) 0.50742(7)
Mo5B Mo -0.14982(8) 0.59843(10) 0.47801(8)
V1B V -0.05951(12) 0.33432(15) 0.61476(12)
V1A V -0.05951(12) 0.16568(15) 0.11476(12)
V2B V 0.05354(10) 0.62605(13) 0.63851(10)
V2A V 0.05354(10) 0.87395(13) 0.13851(10)
Co1A Co -0.13051(9) 0.32471(12) 0.19683(10)
O1B O -0.1212(5) 0.4138(6) 0.5802(5)
O2B O -0.1356(6) 0.5775(6) 0.5684(5)
O3B O -0.0224(5) 0.4291(7) 0.6586(6)
O11B O -0.0275(5) 0.5927(6) 0.6504(8)
O12B O 0.0238(5) 0.3212(7) 0.6015(5)
O13B O 0.0972(5) 0.3768(7) 0.7227(5)
O14B O 0.0819(5) 0.5225(7) 0.6662(8)
O15B O -0.0751(6) 0.3066(8) 0.5237(5)
O16B O -0.1222(6) 0.3688(12) 0.4065(6)
O17B O 0.0930(6) 0.3134(9) 0.5066(6)
O18B O -0.0147(6) 0.2930(11) 0.4214(6)
O29B O -0.1724(7) 0.4870(7) 0.4684(6)
O30B O 0.1331(7) 0.4024(8) 0.6068(6)
O31B O -0.2154(5) 0.6427(8) 0.4679(6)
O37A O -0.0753(4) 0.3231(6) 0.2960(5)
O37C O 0.0753(4) 0.6769(6) 0.7040(5)
O38A O -0.0809(5) 0.2325(6) 0.1628(5)
O38B O -0.0809(5) 0.2675(6) 0.6628(5)
O45B O -0.1251(6) 0.5162(6) 0.6893(5)
O46B O -0.2058(5) 0.3351(7) 0.4840(6)
O47B O 0.0167(6) 0.1855(6) 0.5179(5)
O50B O 0.0430(8) 0.4333(11) 0.5312(9)
O51B O 0.0016(9) 0.5035(11) 0.5722(9)
N1A N -0.1781(6) 0.3411(8) 0.1018(7)
N2A N -0.0765(5) 0.4174(7) 0.1630(6)
N3A N -0.1877(7) 0.2399(11) 0.2337(7)
N4A N -0.1941(6) 0.4016(11) 0.2326(7)
C1A C -0.2304(8) 0.3078(10) 0.0743(10)
H1A H -0.2525 0.2746 0.0980
C2A C -0.2537(9) 0.3233(13) 0.0065(10)
H2A H -0.2897 0.2973 -0.0134
C3A C -0.2260(10) 0.3723(13) -0.0275(10)
H3A H -0.2424 0.3820 -0.0707
C4A C -0.1712(9) 0.4100(12) 0.0019(9)
C5A C -0.1377(13) 0.4685(14) -0.0289(10)
H4A H -0.1517 0.4799 -0.0724
C6A C -0.0873(11) 0.5076(15) 0.0017(11)
H5A H -0.0658 0.5429 -0.0209
C7A C -0.0673(10) 0.4948(11) 0.0680(9)
C8A C -0.0174(10) 0.5393(12) 0.1073(11)
H6A H 0.0008 0.5825 0.0894
C9A C 0.0027(8) 0.5196(11) 0.1680(11)
H7A H 0.0367 0.5460 0.1918
C10A C -0.0275(7) 0.4588(10) 0.1964(9)
H8A H -0.0137 0.4462 0.2396
C11A C -0.0954(7) 0.4354(9) 0.1011(8)
C12A C -0.1502(8) 0.3932(10) 0.0682(7)
C13A C -0.1821(12) 0.1637(15) 0.2352(10)
H9A H -0.1501 0.1405 0.2173
C14A C -0.2635(19) 0.144(3) 0.2952(14)
H10A H -0.2878 0.1105 0.3165
C15A C -0.2710(10) 0.229(3) 0.2981(11)
C16A C -0.2750(12) 0.395(3) 0.2963(13)
C17A C -0.2793(14) 0.475(4) 0.2934(16)
H11A H -0.3083 0.5009 0.3143
C18A C -0.2407(13) 0.5242(18) 0.2592(16)
H12A H -0.2434 0.5801 0.2584
C19A C -0.1986(10) 0.4821(16) 0.2269(13)
H13A H -0.1743 0.5099 0.2020
C20A C -0.2326(8) 0.3609(18) 0.2646(9)
C21A C -0.2295(8) 0.2732(14) 0.2653(9)
C46A C -0.2233(17) 0.111(2) 0.2634(14)
H30A H -0.2212 0.0556 0.2590
C47A C -0.3147(18) 0.275(4) 0.325(2)
H31A H -0.3447 0.2463 0.3419
C48A C -0.317(2) 0.346(3) 0.328(3)
H32A H -0.3454 0.3700 0.3507
O9? O 0.576(4) -0.472(5) 0.487(4)
O10? O 0.518(4) -0.540(5) 0.489(4)
O26? O 0.5741(14) 0.0423(16) 0.6501(12)
O44? O 0.6458(12) 0.0526(14) 0.5642(12)
O48? O 0.4885(8) -0.0876(12) 0.4827(8)
O49? O 0.0355(8) 0.5838(12) 0.5232(9)
O52? O 0.0641(9) 0.4972(12) 0.4843(9)
O55? O 0.4376(10) -0.0042(16) 0.4424(11)
loop_
_geom_bond_atom_site_label_1
_geom_bond_atom_site_label_2
_geom_bond_site_symmetry_1
_geom_bond_site_symmetry_2
Mo1 O1 1_555 1_555
Mo2 O3 1_555 1_555
Mo3 O1 1_555 1_555
Mo4 O12 1_555 1_555
Mo5 O2 1_555 1_555
Mo6 O19 1_555 1_555
Mo7 O22 1_555 1_555
Mo8 O24 1_555 1_555
Mo9 O23 1_555 1_555
Mo10 O20 1_555 1_555
V1 O1 1_555 1_555
V2 O11 1_555 1_555
V3 O27 1_555 1_555
V4 O20 1_555 1_555
P1 O50 1_555 1_555
P2 O53 1_555 1_555
Co1 O37 1_555 1_555
Co2 O4 1_555 1_555
O2 Mo1 1_555 1_555
O3 Mo1 1_555 1_555
O11 Mo1 1_555 1_555
O12 Mo2 1_555 1_555
O13 Mo2 1_555 1_555
O14 Mo2 1_555 1_555
O15 Mo3 1_555 1_555
O16 Mo3 1_555 1_555
O17 Mo4 1_555 1_555
O18 Mo4 1_555 1_555
O20 Mo6 1_555 1_555
O21 Mo10 1_555 1_555
O22 Mo10 1_555 1_555
O23 Mo10 1_555 1_555
O24 Mo6 1_555 1_555
O25 Mo7 1_555 1_555
O27 Mo6 1_555 1_555
O28 Mo6 1_555 1_555
O29 Mo3 1_555 1_555
O30 Mo2 1_555 1_555
O31 Mo5 1_555 1_555
O32 Mo7 1_555 1_555
O33 Mo7 1_555 1_555
O34 V3 1_555 1_555
O35 Mo8 1_555 1_555
O36 Mo8 1_555 1_555
O37 V2A 1_555 1_555
O38 V1 1_555 1_555
O39 V3 1_555 1_555
O40 Mo9 1_555 1_555
O41 V4 1_555 1_555
O42 V3 1_555 1_555
O43 Mo8 1_555 1_555
O45 Mo1 1_555 1_555
O46 Mo3 1_555 1_555
O47 Mo4 1_555 1_555
O50 Mo2 1_555 1_555
O51 Mo1 1_555 1_555
O53 Mo6 1_555 1_555
O54 V3 1_555 1_555
N1 Co1 1_555 1_555
N2 Co1 1_555 1_555
N3 Co1 1_555 1_555
N4 Co1 1_555 1_555
N5 Co2 1_555 1_555
N6 Co2 1_555 1_555
N7 Co2 1_555 1_555
N8 Co2 1_555 1_555
C1 N1 1_555 1_555
H1 C1 1_555 1_555
C2 C1 1_555 1_555
H2 C2 1_555 1_555
C3 C2 1_555 1_555
H3 C3 1_555 1_555
C4 C3 1_555 1_555
C5 C4 1_555 1_555
H4 C5 1_555 1_555
C6 C5 1_555 1_555
H5 C6 1_555 1_555
C7 C6 1_555 1_555
C8 C7 1_555 1_555
H6 C8 1_555 1_555
C9 C8 1_555 1_555
H7 C9 1_555 1_555
C10 N2 1_555 1_555
H8 C10 1_555 1_555
C11 N2 1_555 1_555
C12 N1 1_555 1_555
C13 N3 1_555 1_555
H9 C13 1_555 1_555
C14 H10 1_555 1_555
C15 C14 1_555 1_555
C16 C17 1_555 1_555
C17 H11 1_555 1_555
C18 C17 1_555 1_555
H12 C18 1_555 1_555
C19 N4 1_555 1_555
H13 C19 1_555 1_555
C20 N4 1_555 1_555
C21 N3 1_555 1_555
C22 N5 1_555 1_555
H14 C22 1_555 1_555
C23 C22 1_555 1_555
H15 C23 1_555 1_555
C24 C23 1_555 1_555
H16 C24 1_555 1_555
C25 C24 1_555 1_555
C26 C25 1_555 1_555
H17 C26 1_555 1_555
C27 C26 1_555 1_555
H18 C27 1_555 1_555
C28 C27 1_555 1_555
C29 C28 1_555 1_555
H19 C29 1_555 1_555
C30 C29 1_555 1_555
H20 C30 1_555 1_555
C31 N6 1_555 1_555
H21 C31 1_555 1_555
C32 N6 1_555 1_555
C33 N5 1_555 1_555
C34 N7 1_555 1_555
H22 C34 1_555 1_555
C35 C34 1_555 1_555
H23 C35 1_555 1_555
C36 C35 1_555 1_555
H24 C36 1_555 1_555
C37 C36 1_555 1_555
C38 C37 1_555 1_555
H25 C38 1_555 1_555
C39 C38 1_555 1_555
H26 C39 1_555 1_555
C40 C39 1_555 1_555
C41 C40 1_555 1_555
H27 C41 1_555 1_555
C42 C41 1_555 1_555
H28 C42 1_555 1_555
C43 N8 1_555 1_555
H29 C43 1_555 1_555
C44 N8 1_555 1_555
C45 N7 1_555 1_555
C46 C13 1_555 1_555
H30 C46 1_555 1_555
C47 C15 1_555 1_555
H31 C47 1_555 1_555
C48 C16 1_555 1_555
H32 C48 1_555 1_555
Mo1B O1B 1_555 1_555
Mo2B O3B 1_555 1_555
Mo3B O1B 1_555 1_555
Mo4B O12B 1_555 1_555
Mo5B O17 1_555 1_555
Mo6B O19B 1_555 1_555
Mo7B O34 1_555 1_555
Mo8B O24B 1_555 1_555
Mo9B O25 1_555 1_555
Mo10B O42 1_555 1_555
V1B O1B 1_555 1_555
V1A O38A 1_555 1_555
V2B O16 1_555 1_555
V3B O27B 1_555 1_555
V4B O20B 1_555 1_555
Co1A O37A 1_555 1_555
Co2B O4B 1_555 1_555
O2B Mo1B 1_555 1_555
O3B Mo1B 1_555 1_555
O11B Mo1B 1_555 1_555
O12B Mo2B 1_555 1_555
O13B Mo2B 1_555 1_555
O14B Mo2B 1_555 1_555
O15B Mo3B 1_555 1_555
O16B V2 1_555 1_555
O17B Mo5 1_555 1_555
O18B V2 1_555 1_555
O20B Mo6B 1_555 1_555
O21B Mo10B 1_555 1_555
O22B Mo7B 1_555 1_555
O23B Mo9B 1_555 1_555
O24B Mo6B 1_555 1_555
O25B Mo9 1_555 1_555
O27B Mo6B 1_555 1_555
O28B Mo6B 1_555 1_555
O29B Mo3B 1_555 1_555
O30B Mo5 1_555 1_555
O31B Mo5B 1_555 1_555
O32B Mo7B 1_555 1_555
O33B Mo7B 1_555 1_555
O34B Mo7 1_555 1_555
O35B Mo8B 1_555 1_555
O36B Mo8B 1_555 1_555
O37A V2 1_555 1_555
O37C V2B 1_555 1_555
O38A Co1A 1_555 1_555
O38B V1B 1_555 1_555
O39B V3B 1_555 1_555
O40B Mo9B 1_555 1_555
O41B V4B 1_555 1_555
O42B Mo10 1_555 1_555
O43B Mo9 1_555 1_555
O45B Mo1B 1_555 1_555
O46B Mo3B 1_555 1_555
O47B Mo4B 1_555 1_555
O50B Mo5 1_555 1_555
O51B P1 1_555 1_555
O53B P2 1_555 1_555
O54B Mo7 1_555 1_555
N1A Co1A 1_555 1_555
N2A Co1A 1_555 1_555
N3A Co1A 1_555 1_555
N4A Co1A 1_555 1_555
N5B Co2B 1_555 1_555
N6B Co2B 1_555 1_555
N7B Co2B 1_555 1_555
N8B Co2B 1_555 1_555
C1A N1A 1_555 1_555
H1A C1A 1_555 1_555
C2A C1A 1_555 1_555
H2A C2A 1_555 1_555
C3A C2A 1_555 1_555
H3A C3A 1_555 1_555
C4A C3A 1_555 1_555
C5A C4A 1_555 1_555
H4A C5A 1_555 1_555
C6A C5A 1_555 1_555
H5A C6A 1_555 1_555
C7A C6A 1_555 1_555
C8A C7A 1_555 1_555
H6A C8A 1_555 1_555
C9A C8A 1_555 1_555
H7A C9A 1_555 1_555
C10A N2A 1_555 1_555
H8A C10A 1_555 1_555
C11A N2A 1_555 1_555
C12A N1A 1_555 1_555
C13A N3A 1_555 1_555
H9A C13A 1_555 1_555
C14A H10A 1_555 1_555
C15A C14A 1_555 1_555
C16A C17A 1_555 1_555
C17A H11A 1_555 1_555
C18A C17A 1_555 1_555
H12A C18A 1_555 1_555
C19A N4A 1_555 1_555
H13A C19A 1_555 1_555
C20A N4A 1_555 1_555
C21A N3A 1_555 1_555
C22B N5B 1_555 1_555
H14B C22B 1_555 1_555
C23B C22B 1_555 1_555
H15B C23B 1_555 1_555
C24B C23B 1_555 1_555
H16B C24B 1_555 1_555
C25B C24B 1_555 1_555
C26B C25B 1_555 1_555
H17B C26B 1_555 1_555
C27B C26B 1_555 1_555
H18B C27B 1_555 1_555
C28B C27B 1_555 1_555
C29B C28B 1_555 1_555
H19B C29B 1_555 1_555
C30B C29B 1_555 1_555
H20B C30B 1_555 1_555
C31B N6B 1_555 1_555
H21B C31B 1_555 1_555
C32B N6B 1_555 1_555
C33B N5B 1_555 1_555
C34B N7B 1_555 1_555
H22B C34B 1_555 1_555
C35B C34B 1_555 1_555
H23B C35B 1_555 1_555
C36B C35B 1_555 1_555
H24B C36B 1_555 1_555
C37B C36B 1_555 1_555
C38B C37B 1_555 1_555
H25B C38B 1_555 1_555
C39B C38B 1_555 1_555
H26B C39B 1_555 1_555
C40B C39B 1_555 1_555
C41B C40B 1_555 1_555
H27B C41B 1_555 1_555
C42B C41B 1_555 1_555
H28B C42B 1_555 1_555
C43B N8B 1_555 1_555
H29B C43B 1_555 1_555
C44B N8B 1_555 1_555
C45B N7B 1_555 1_555
C46A C13A 1_555 1_555
H30A C46A 1_555 1_555
C47A C15A 1_555 1_555
H31A C47A 1_555 1_555
C48A C16A 1_555 1_555
H32A C48A 1_555 1_555
Mo2 O51 1_555 1_555
Mo4 O15 1_555 1_555
Mo4 O50 1_555 1_555
Mo5 O29 1_555 1_555
Mo8 O33 1_555 1_555
Mo8 O53 1_555 1_555
Mo9 O28 1_555 1_555
Mo10 O54B 1_555 1_555
V1 O3 1_555 1_555
V1 O12 1_555 1_555
V1 O15 1_555 1_555
V2 O14 1_555 1_555
V3 O36 1_555 1_555
V3 O53 1_555 1_555
V4 O22 1_555 1_555
V4 O24 1_555 1_555
V4 O33 1_555 1_555
P1 O51 1_555 1_555
P1 O50B 1_555 1_555
P2 O54 1_555 1_555
P2 O54B 1_555 1_555
Co1 O38 1_555 1_555
Co2 O41 1_555 1_555
O18 V2B 1_555 1_555
O30 Mo5B 1_555 1_555
O43 Mo9B 1_555 1_555
O50 Mo5B 1_555 1_555
O54 Mo7B 1_555 1_555
O54 Mo10B 1_555 1_555
C4 C12 1_555 1_555
C7 C11 1_555 1_555
C9 C10 1_555 1_555
C11 C12 1_555 1_555
C14 C46 1_555 1_555
C15 C21 1_555 1_555
C16 C20 1_555 1_555
C18 C19 1_555 1_555
C20 C21 1_555 1_555
C25 C33 1_555 1_555
C28 C32 1_555 1_555
C30 C31 1_555 1_555
C32 C33 1_555 1_555
C37 C45 1_555 1_555
C40 C44 1_555 1_555
C42 C43 1_555 1_555
C44 C45 1_555 1_555
C47 C48 1_555 1_555
Mo1B O51B 1_555 1_555
Mo2B O30B 1_555 1_555
Mo2B O50B 1_555 1_555
Mo2B O51B 1_555 1_555
Mo3B O16B 1_555 1_555
Mo4B O15B 1_555 1_555
Mo4B O17B 1_555 1_555
Mo4B O18B 1_555 1_555
Mo4B O50B 1_555 1_555
Mo5B O2B 1_555 1_555
Mo5B O29B 1_555 1_555
Mo6B O53B 1_555 1_555
Mo7B O25B 1_555 1_555
Mo8B O33B 1_555 1_555
Mo8B O43B 1_555 1_555
Mo8B O53B 1_555 1_555
Mo9B O28B 1_555 1_555
Mo10B O20B 1_555 1_555
Mo10B O22B 1_555 1_555
Mo10B O23B 1_555 1_555
V1B O3B 1_555 1_555
V1B O12B 1_555 1_555
V1B O15B 1_555 1_555
V2B O11B 1_555 1_555
V2B O14B 1_555 1_555
V3B O34B 1_555 1_555
V3B O36B 1_555 1_555
V3B O42B 1_555 1_555
V3B O53B 1_555 1_555
V3B O54B 1_555 1_555
V4B O22B 1_555 1_555
V4B O24B 1_555 1_555
V4B O33B 1_555 1_555
Co2B O41B 1_555 1_555
C4A C12A 1_555 1_555
C7A C11A 1_555 1_555
C9A C10A 1_555 1_555
C11A C12A 1_555 1_555
C14A C46A 1_555 1_555
C15A C21A 1_555 1_555
C16A C20A 1_555 1_555
C18A C19A 1_555 1_555
C20A C21A 1_555 1_555
C25B C33B 1_555 1_555
C28B C32B 1_555 1_555
C30B C31B 1_555 1_555
C32B C33B 1_555 1_555
C37B C45B 1_555 1_555
C40B C44B 1_555 1_555
C42B C43B 1_555 1_555
C44B C45B 1_555 1_555
C47A C48A 1_555 1_555

#END
