
#######################################################################
#
#                 Cambridge Crystallographic Data Centre
#                                CCDC 
#
#######################################################################
#
# If this CIF has been generated from an entry in the Cambridge 
# Structural Database, then it will include bibliographic, chemical, 
# crystal, experimental, refinement or atomic coordinate data resulting 
# from the CCDC's data processing and validation procedures.
#
#######################################################################

data_FIYGOJ01
_symmetry_cell_setting           monoclinic
_symmetry_space_group_name_H-M   'C 2/c'
_symmetry_Int_Tables_number      15
_space_group_name_Hall           '-C 2yn'
loop_
_symmetry_equiv_pos_site_id
_symmetry_equiv_pos_as_xyz
1 x,y,z
2 1/2+x,1/2+y,z
3 x,-y,1/2+z
4 1/2+x,1/2-y,1/2+z
5 -x,-y,-z
6 1/2-x,1/2-y,-z
7 -x,y,1/2-z
8 1/2-x,1/2+y,1/2-z
_cell_length_a                   20.103
_cell_length_b                   9.299
_cell_length_c                   20.023
_cell_angle_alpha                90
_cell_angle_beta                 116.92
_cell_angle_gamma                90
_cell_volume                     3337.46
loop_
_atom_site_label
_atom_site_type_symbol
_atom_site_fract_x
_atom_site_fract_y
_atom_site_fract_z
Cd1 Cd 0.2500 0.2500 0.5000
Cd2 Cd 0.5000 0.5244 0.7500
S1 S 0.2264 0.4754 0.5744
S2 S 0.5218 0.3055 0.6668
N1 N 0.3719 0.5114 0.6856
N2 N 0.3750 0.2467 0.5672
C1 C 0.3122 0.4970 0.6400
C2 C 0.4354 0.2722 0.6081
N3 N 0.4888 0.6923 0.8336
C3 C 0.4326 0.6622 0.8512
C4 C 0.4144 0.7460 0.8960
C5 C 0.4543 0.8684 0.9242
C6 C 0.5125 0.9010 0.9082
C7 C 0.5285 0.8119 0.8624
C8 C 0.5904 0.8508 0.8436
N4 N 0.2526 0.4161 0.4018
C9 C 0.2038 0.3742 0.3319
C10 C 0.1944 0.4479 0.2685
C11 C 0.2358 0.5691 0.2764
C12 C 0.2855 0.6123 0.3467
C13 C 0.2932 0.5358 0.4088
C14 C 0.3481 0.5830 0.4858
S1E S 0.2736 0.0246 0.4256
N1E N 0.1281 -0.0114 0.3144
C1E C 0.1878 0.0030 0.3600
S2E S -0.0218 0.1945 0.3332
N2E N 0.1250 0.2533 0.4328
C2E C 0.0646 0.2278 0.3919
N4E N 0.2474 0.0839 0.5982
C9E C 0.2962 0.1258 0.6681
C10E C 0.3056 0.0521 0.7315
C11E C 0.2642 -0.0691 0.7236
C12E C 0.2145 -0.1123 0.6533
C13E C 0.2068 -0.0358 0.5912
C14E C 0.1519 -0.0830 0.5142
N3F N 0.5112 0.6923 0.6664
C3F C 0.5674 0.6622 0.6488
C4F C 0.5856 0.7460 0.6040
C5F C 0.5457 0.8684 0.5758
C6F C 0.4875 0.9010 0.5918
C7F C 0.4715 0.8119 0.6376
C8F C 0.4096 0.8508 0.6564
S2F S 0.4782 0.3055 0.8332
N1F N 0.6281 0.5114 0.8144
Cd2C Cd 0.0000 -0.0244 0.2500
loop_
_geom_bond_atom_site_label_1
_geom_bond_atom_site_label_2
_geom_bond_site_symmetry_1
_geom_bond_site_symmetry_2
Cd1 S1 1_555 1_555
Cd2 S2 1_555 1_555
S1 C1 1_555 1_555
S2 C2 1_555 1_555
N1 Cd2 1_555 1_555
N2 Cd1 1_555 1_555
C1 N1 1_555 1_555
C2 N2 1_555 1_555
N3 Cd2 1_555 1_555
C3 N3 1_555 1_555
C4 C3 1_555 1_555
C5 C4 1_555 1_555
C6 C5 1_555 1_555
C7 N3 1_555 1_555
C8 C7 1_555 1_555
N4 Cd1 1_555 1_555
C9 N4 1_555 1_555
C10 C9 1_555 1_555
C11 C10 1_555 1_555
C12 C11 1_555 1_555
C13 N4 1_555 1_555
C14 C13 1_555 1_555
S1E Cd1 1_555 1_555
N1E C1E 1_555 1_555
C1E S1E 1_555 1_555
S2E C2E 1_555 1_555
N2E Cd1 1_555 1_555
C2E N2E 1_555 1_555
N4E Cd1 1_555 1_555
C9E N4E 1_555 1_555
C10E C9E 1_555 1_555
C11E C10E 1_555 1_555
C12E C11E 1_555 1_555
C13E N4E 1_555 1_555
C14E C13E 1_555 1_555
N3F Cd2 1_555 1_555
C3F N3F 1_555 1_555
C4F C3F 1_555 1_555
C5F C4F 1_555 1_555
C6F C5F 1_555 1_555
C7F N3F 1_555 1_555
C8F C7F 1_555 1_555
S2F Cd2 1_555 1_555
N1F Cd2 1_555 1_555
Cd2C N1E 1_555 1_555
C6 C7 1_555 1_555
C12 C13 1_555 1_555
S2E Cd2C 1_555 1_555
C12E C13E 1_555 1_555
C6F C7F 1_555 1_555

#END
