
#######################################################################
#
#                 Cambridge Crystallographic Data Centre
#                                CCDC 
#
#######################################################################
#
# If this CIF has been generated from an entry in the Cambridge 
# Structural Database, then it will include bibliographic, chemical, 
# crystal, experimental, refinement or atomic coordinate data resulting 
# from the CCDC's data processing and validation procedures.
#
#######################################################################

data_FIYJON
_symmetry_cell_setting           trigonal
_symmetry_space_group_name_H-M   'P 31 2 1'
_symmetry_Int_Tables_number      152
_space_group_name_Hall           'P 31 2"'
loop_
_symmetry_equiv_pos_site_id
_symmetry_equiv_pos_as_xyz
1 x,y,z
2 -y,x-y,1/3+z
3 -x+y,-x,2/3+z
4 y,x,-z
5 x-y,-y,2/3-z
6 -x,-x+y,1/3-z
_cell_length_a                   11.4375(5)
_cell_length_b                   11.4375(5)
_cell_length_c                   20.9234(5)
_cell_angle_alpha                90
_cell_angle_beta                 90
_cell_angle_gamma                120
_cell_volume                     2370.42
loop_
_atom_site_label
_atom_site_type_symbol
_atom_site_fract_x
_atom_site_fract_y
_atom_site_fract_z
Mn1 Mn 0.0000 0.45208(11) 0.1667
Mn2 Mn -0.64752(11) 0.35248(11) 0.0000
N1 N 0.0000 0.2662(8) 0.1667
N2 N 0.0000 -0.3587(7) 0.1667
N3 N -0.8381(8) 0.1619(8) 0.0000
N4 N -1.4591(7) -0.4591(7) 0.0000
N5 N -0.1611(6) 0.3747(6) 0.0928(3)
O1 O -0.4577(5) 0.1501(5) -0.0940(2)
O2 O -0.5647(5) 0.2510(5) -0.0517(2)
O3 O -0.5972(5) 0.2905(5) 0.0821(2)
O4 O -0.5820(6) 0.1254(7) 0.1262(3)
C1 C 0.1152(7) 0.2614(7) 0.1661(3)
H1 H 0.1966 0.3425 0.1668
C2 C 0.1193(8) 0.1426(7) 0.1645(3)
H2 H 0.2018 0.1453 0.1619
C3 C 0.0000 0.0193(9) 0.1667
C4 C 0.0000 -0.1132(9) 0.1667
C5 C -0.1184(8) -0.2361(8) 0.1739(4)
H3 H -0.2002 -0.2384 0.1794
C6 C -0.1147(8) -0.3535(8) 0.1729(3)
H4 H -0.1958 -0.4345 0.1767
C7 C -0.4737(7) 0.2231(7) -0.0523(3)
C8 C -0.9579(7) 0.1580(8) 0.0018(4)
H5 H -0.9581 0.2392 0.0033
C9 C -1.0792(8) 0.0402(8) 0.0017(4)
H6 H -1.1588 0.0433 0.0027
C10 C -1.0853(9) -0.0853(9) 0.0000
C11 C -1.2136(9) -0.2136(9) 0.0000
C12 C -1.3170(8) -0.2365(8) 0.0415(4)
H7 H -1.3073 -0.1687 0.0693
C13 C -1.4344(8) -0.3599(8) 0.0417(4)
H8 H -1.4998 -0.3754 0.0723
C14 C -0.1340(8) 0.3787(8) 0.0302(3)
H9 H -0.0442 0.4176 0.0178
C15 C -0.2313(8) 0.3286(9) -0.0164(3)
H10 H -0.2067 0.3292 -0.0588
C16 C -0.3678(7) 0.2764(8) -0.0004(3)
C17 C -0.3975(7) 0.2766(7) 0.0638(3)
C18 C -0.5383(8) 0.2255(8) 0.0919(4)
C19 C -0.2925(7) 0.3223(7) 0.1082(3)
H11 H -0.3147 0.3162 0.1513
Mn1_2 Mn 0.0000 -0.54792(11) 0.1667
Mn1B Mn -0.54792(11) 0.0000 -0.1666
Mn1A Mn 0.54792(11) 0.54792(11) 0.5000
Mn2_2 Mn -1.64752(11) -0.64752(11) 0.0000
Mn2A Mn 0.64752(11) 1.00000(16) 0.3333
N2_2 N 0.0000 0.6413(7) 0.1667
N4_2 N -0.4591(7) 0.5409(7) 0.0000
N5E N 0.1611(6) 0.5358(8) 0.2405(3)
O1E O 0.4577(5) 0.6078(7) 0.4273(2)
O1A O -0.1501(5) 0.3922(7) 0.2393(2)
O1C O 0.1501(5) 0.5423(5) 0.0940(2)
O2E O 0.5647(5) 0.8157(7) 0.3850(2)
O2C O -0.7490(5) 0.4353(5) 0.0517(2)
O3E O 0.5972(5) 0.8877(7) 0.2512(2)
O3C O -0.7095(5) 0.4028(5) -0.0821(2)
O4E O 0.5820(6) 0.7074(9) 0.2071(3)
C1E C -0.1152(7) 0.1462(10) 0.1672(3)
H1E H -0.1966 0.1459 0.1665
C2E C -0.1193(8) 0.0233(11) 0.1688(3)
H2E H -0.2018 -0.0565 0.1714
C5E C 0.1184(8) -0.1177(11) 0.1594(4)
H3E H 0.2002 -0.0382 0.1539
C6E C 0.1147(8) -0.2388(11) 0.1604(3)
H4E H 0.1958 -0.2387 0.1566
C7E C 0.4737(7) 0.6968(10) 0.3856(3)
C8C C -0.8420(8) 0.0421(7) -0.0018(4)
H5C H -0.7608 0.0419 -0.0033
C9C C -0.9598(8) -0.0792(8) -0.0017(4)
H6C H -0.9567 -0.1588 -0.0027
C12C C -1.2365(8) -0.3170(8) -0.0415(4)
H7C H -1.1687 -0.3073 -0.0693
C13C C -1.3599(8) -0.4344(8) -0.0417(4)
H8C H -1.3754 -0.4998 -0.0723
C14E C 0.1340(8) 0.5127(11) 0.3031(3)
H9E H 0.0442 0.4618 0.3155
C15E C 0.2313(8) 0.5599(12) 0.3497(3)
H10E H 0.2067 0.5359 0.3921
C16E C 0.3678(7) 0.6442(11) 0.3337(3)
C17E C 0.3975(7) 0.6741(10) 0.2695(3)
C18E C 0.5383(8) 0.7638(11) 0.2414(4)
C19E C 0.2925(7) 0.6148(10) 0.2251(3)
H11E H 0.3147 0.6309 0.1820
O5 O 0.5278(12) -0.0468(11) 0.1286(5)
H12 H 0.513(13) 0.019(10) 0.135(7)
H13 H 0.571(10) -0.028(11) 0.166(3)
loop_
_geom_bond_atom_site_label_1
_geom_bond_atom_site_label_2
_geom_bond_site_symmetry_1
_geom_bond_site_symmetry_2
Mn1 N1 1_555 1_555
Mn2 N3 1_555 1_555
N1 C1 1_555 1_555
N2 C6 1_555 1_555
N3 C8 1_555 1_555
N4 C13 1_555 1_555
N5 Mn1 1_555 1_555
O1 C7 1_555 1_555
O2 Mn2 1_555 1_555
O3 Mn2 1_555 1_555
O4 C18 1_555 1_555
O5 H12 1_555 1_555
C1 H1 1_555 1_555
C2 C1 1_555 1_555
H2 C2 1_555 1_555
C3 C2 1_555 1_555
C4 C3 1_555 1_555
C5 C4 1_555 1_555
H3 C5 1_555 1_555
C6 C5 1_555 1_555
H4 C6 1_555 1_555
C7 O2 1_555 1_555
C8 H5 1_555 1_555
C9 C8 1_555 1_555
H6 C9 1_555 1_555
C10 C9 1_555 1_555
C11 C10 1_555 1_555
C12 C11 1_555 1_555
H7 C12 1_555 1_555
C13 C12 1_555 1_555
H8 C13 1_555 1_555
C14 N5 1_555 1_555
H9 C14 1_555 1_555
C15 C14 1_555 1_555
H10 C15 1_555 1_555
C16 C7 1_555 1_555
C17 C16 1_555 1_555
C18 O3 1_555 1_555
C19 N5 1_555 1_555
H11 C19 1_555 1_555
H13 O5 1_555 1_555
Mn1_2 N2 1_555 1_555
Mn1B O1 1_555 1_555
Mn1A O1E 1_555 1_555
Mn2_2 N4 1_555 1_555
Mn2A O2E 1_555 1_555
N2_2 Mn1 1_555 1_555
N4_2 Mn2 1_555 1_555
N5E Mn1 1_555 1_555
O1E C7E 1_555 1_555
O1A Mn1 1_555 1_555
O1C Mn1 1_555 1_555
O2E C7E 1_555 1_555
O2C Mn2 1_555 1_555
O3E Mn2A 1_555 1_555
O3C Mn2 1_555 1_555
O4E C18E 1_555 1_555
C1E N1 1_555 1_555
H1E C1E 1_555 1_555
C2E C3 1_555 1_555
H2E C2E 1_555 1_555
C5E C4 1_555 1_555
H3E C5E 1_555 1_555
C6E N2 1_555 1_555
H4E C6E 1_555 1_555
C7E C16E 1_555 1_555
C8C N3 1_555 1_555
H5C C8C 1_555 1_555
C9C C10 1_555 1_555
H6C C9C 1_555 1_555
C12C C11 1_555 1_555
H7C C12C 1_555 1_555
C13C N4 1_555 1_555
H8C C13C 1_555 1_555
C14E N5E 1_555 1_555
H9E C14E 1_555 1_555
C15E C14E 1_555 1_555
H10E C15E 1_555 1_555
C16E C15E 1_555 1_555
C17E C16E 1_555 1_555
C18E O3E 1_555 1_555
C19E N5E 1_555 1_555
H11E C19E 1_555 1_555
C15 C16 1_555 1_555
C17 C18 1_555 1_555
C17 C19 1_555 1_555
C1E C2E 1_555 1_555
C5E C6E 1_555 1_555
C8C C9C 1_555 1_555
C12C C13C 1_555 1_555
C17E C18E 1_555 1_555
C17E C19E 1_555 1_555

#END
