
#######################################################################
#
#                 Cambridge Crystallographic Data Centre
#                                CCDC 
#
#######################################################################
#
# If this CIF has been generated from an entry in the Cambridge 
# Structural Database, then it will include bibliographic, chemical, 
# crystal, experimental, refinement or atomic coordinate data resulting 
# from the CCDC's data processing and validation procedures.
#
#######################################################################

data_FIYKAA02
_symmetry_cell_setting           triclinic
_symmetry_space_group_name_H-M   'P -1'
_symmetry_Int_Tables_number      2
_space_group_name_Hall           '-P 1'
loop_
_symmetry_equiv_pos_site_id
_symmetry_equiv_pos_as_xyz
1 x,y,z
2 -x,-y,-z
_cell_length_a                   7.362(2)
_cell_length_b                   8.89(2)
_cell_length_c                   11.842(4)
_cell_angle_alpha                101.44(6)
_cell_angle_beta                 98.08(3)
_cell_angle_gamma                92.53(8)
_cell_volume                     750.024
loop_
_atom_site_label
_atom_site_type_symbol
_atom_site_fract_x
_atom_site_fract_y
_atom_site_fract_z
Cu1 Cu 0.14150(6) 0.29267(4) 0.13413(3)
C1 C 0.0479(5) 0.4512(4) -0.0488(3)
C2 C 0.0944(5) 0.9661(4) -0.0076(3)
C3 C 0.4017(7) 0.5702(5) 0.2002(6)
H1 H 0.3192 0.6167 0.2505
H2 H 0.3643 0.5864 0.1228
H3 H 0.5244 0.6158 0.2288
C4 C 0.5339(6) 0.3372(6) 0.1256(5)
H4 H 0.4919 0.3400 0.0456
H5 H 0.5496 0.2327 0.1327
H6 H 0.6494 0.3971 0.1514
C5 C 0.4453(8) 0.3726(8) 0.3163(5)
H7 H 0.5024 0.2758 0.3119
H8 H 0.5342 0.4536 0.3617
C6 C 0.2852(9) 0.3670(9) 0.3748(5)
H9 H 0.2418 0.4692 0.3927
H10 H 0.3194 0.3338 0.4476
C7 C 0.1497(12) 0.0968(7) 0.3106(6)
H11 H 0.1631 0.0907 0.3913
H12 H 0.2551 0.0585 0.2782
H13 H 0.0408 0.0361 0.2691
C8 C -0.0370(8) 0.3065(8) 0.3413(5)
H14 H -0.1388 0.2410 0.2950
H15 H -0.0529 0.4111 0.3346
H16 H -0.0314 0.2987 0.4214
O1 O 0.1440(4) 0.3467(3) -0.0218(2)
O2 O -0.0222(4) 0.5145(3) 0.1461(2)
O3 O 0.0943(4) 0.8356(3) -0.0711(3)
O4 O 0.2342(4) 1.0487(3) 0.0469(3)
N1 N 0.3974(5) 0.4013(4) 0.1979(3)
N2 N 0.1345(5) 0.2587(4) 0.3001(3)
Cu1A Cu -0.14150(6) 0.70733(4) -0.13413(3)
Cu1_2 Cu 0.14150(6) 1.29267(4) 0.13413(3)
C1A C -0.0479(5) 0.5488(4) 0.0488(3)
C2A C -0.0944(5) 1.0339(4) 0.0076(3)
C3A C -0.4017(7) 0.4298(5) -0.2002(6)
H1A H -0.3192 0.3833 -0.2505
H2A H -0.3643 0.4136 -0.1228
H3A H -0.5244 0.3842 -0.2288
C4A C -0.5339(6) 0.6628(6) -0.1256(5)
H4A H -0.4919 0.6600 -0.0456
H5A H -0.5496 0.7673 -0.1327
H6A H -0.6494 0.6029 -0.1514
C5A C -0.4453(8) 0.6274(8) -0.3163(5)
H7A H -0.5024 0.7242 -0.3119
H8A H -0.5342 0.5464 -0.3617
C6A C -0.2852(9) 0.6330(9) -0.3748(5)
H9A H -0.2418 0.5308 -0.3927
H10A H -0.3194 0.6662 -0.4476
C7A C -0.1497(12) 0.9032(7) -0.3106(6)
H11A H -0.1631 0.9093 -0.3913
H12A H -0.2551 0.9415 -0.2782
H13A H -0.0408 0.9639 -0.2691
C8A C 0.0370(8) 0.6935(8) -0.3413(5)
H14A H 0.1388 0.7590 -0.2950
H15A H 0.0529 0.5889 -0.3346
H16A H 0.0314 0.7013 -0.4214
O1A O -0.1440(4) 0.6533(3) 0.0218(2)
O2A O 0.0222(4) 0.4855(3) -0.1461(2)
O3A O -0.0943(4) 0.1644(3) 0.0711(3)
O3A_2 O -0.0943(4) 1.1644(3) 0.0711(3)
O4_2 O 0.2342(4) 0.0487(3) 0.0469(3)
O4A O -0.2342(4) 0.9513(3) -0.0469(3)
N1A N -0.3974(5) 0.5987(4) -0.1979(3)
N2A N -0.1345(5) 0.7413(4) -0.3001(3)
O5 O 0.5447(6) 0.9210(5) 0.1446(3)
H17 H 0.624(6) 0.910(8) 0.096(4)
H18 H 0.460(6) 0.961(7) 0.101(4)
O6 O 0.6430(6) 0.9045(5) 0.3717(3)
H19 H 0.629(8) 0.916(7) 0.298(2)
H20 H 0.61(2) 0.804(5) 0.352(6)
O7 O 0.9646(6) 0.7366(5) 0.3504(3)
H21 H 0.959(7) 0.694(6) 0.276(2)
H22 H 0.856(7) 0.775(11) 0.342(6)
O8 O 0.6732(6) 0.1876(5) 0.5300(4)
H23 H 0.771(5) 0.190(11) 0.582(5)
H24 H 0.591(6) 0.163(8) 0.571(5)
loop_
_geom_bond_atom_site_label_1
_geom_bond_atom_site_label_2
_geom_bond_site_symmetry_1
_geom_bond_site_symmetry_2
Cu1 O1 1_555 1_555
C1 O1 1_555 1_555
C2 O3 1_555 1_555
C3 H1 1_555 1_555
H2 C3 1_555 1_555
H3 C3 1_555 1_555
C4 H4 1_555 1_555
H5 C4 1_555 1_555
H6 C4 1_555 1_555
C5 H7 1_555 1_555
H8 C5 1_555 1_555
C6 C5 1_555 1_555
H9 C6 1_555 1_555
H10 C6 1_555 1_555
C7 H11 1_555 1_555
H12 C7 1_555 1_555
H13 C7 1_555 1_555
C8 H14 1_555 1_555
H15 C8 1_555 1_555
H16 C8 1_555 1_555
O2 Cu1 1_555 1_555
O3 Cu1A 1_555 1_555
O4 C2 1_555 1_555
O5 H17 1_555 1_555
O6 H19 1_555 1_555
O7 H21 1_555 1_555
O8 H23 1_555 1_555
N1 Cu1 1_555 1_555
N2 Cu1 1_555 1_555
H18 O5 1_555 1_555
H20 O6 1_555 1_555
H22 O7 1_555 1_555
H24 O8 1_555 1_555
Cu1A O1A 1_555 1_555
Cu1_2 O4 1_555 1_555
C1A C1 1_555 1_555
C2A C2 1_555 1_555
C3A H1A 1_555 1_555
H2A C3A 1_555 1_555
H3A C3A 1_555 1_555
C4A H4A 1_555 1_555
H5A C4A 1_555 1_555
H6A C4A 1_555 1_555
C5A H7A 1_555 1_555
H8A C5A 1_555 1_555
C6A C5A 1_555 1_555
H9A C6A 1_555 1_555
H10A C6A 1_555 1_555
C7A H11A 1_555 1_555
H12A C7A 1_555 1_555
H13A C7A 1_555 1_555
C8A H14A 1_555 1_555
H15A C8A 1_555 1_555
H16A C8A 1_555 1_555
O1A C1A 1_555 1_555
O2A C1 1_555 1_555
O3A Cu1 1_555 1_555
O3A_2 Cu1_2 1_555 1_555
O4_2 Cu1 1_555 1_555
O4A Cu1A 1_555 1_555
N1A Cu1A 1_555 1_555
N2A Cu1A 1_555 1_555
C3 N1 1_555 1_555
C4 N1 1_555 1_555
C5 N1 1_555 1_555
C6 N2 1_555 1_555
C7 N2 1_555 1_555
C8 N2 1_555 1_555
O2 C1A 1_555 1_555
Cu1A O2A 1_555 1_555
C2A O3A_2 1_555 1_555
C2A O4A 1_555 1_555
C3A N1A 1_555 1_555
C4A N1A 1_555 1_555
C5A N1A 1_555 1_555
C6A N2A 1_555 1_555
C7A N2A 1_555 1_555
C8A N2A 1_555 1_555

#END
