
#######################################################################
#
#                 Cambridge Crystallographic Data Centre
#                                CCDC 
#
#######################################################################
#
# If this CIF has been generated from an entry in the Cambridge 
# Structural Database, then it will include bibliographic, chemical, 
# crystal, experimental, refinement or atomic coordinate data resulting 
# from the CCDC's data processing and validation procedures.
#
#######################################################################

data_FIYKAA03
_symmetry_cell_setting           triclinic
_symmetry_space_group_name_H-M   'P -1'
_symmetry_Int_Tables_number      2
_space_group_name_Hall           '-P 1'
loop_
_symmetry_equiv_pos_site_id
_symmetry_equiv_pos_as_xyz
1 x,y,z
2 -x,-y,-z
_cell_length_a                   7.411(7)
_cell_length_b                   8.861(8)
_cell_length_c                   11.864(11)
_cell_angle_alpha                101.489(13)
_cell_angle_beta                 98.077(11)
_cell_angle_gamma                92.537(12)
_cell_volume                     753.812
loop_
_atom_site_label
_atom_site_type_symbol
_atom_site_fract_x
_atom_site_fract_y
_atom_site_fract_z
C1 C 0.7875(7) 0.8617(7) 0.8728(4)
H1 H 0.7455 0.9639 0.8955
H2 H 0.8236 0.8235 0.9432
C2 C 0.9431(6) 0.8736(6) 0.8158(3)
H3 H 1.0045 0.7786 0.8117
H4 H 1.0278 0.9570 0.8620
C3 C 0.6472(9) 0.5971(5) 0.8091(4)
H5 H 0.6524 0.5892 0.8890
H6 H 0.7557 0.5599 0.7810
H7 H 0.5419 0.5361 0.7634
C4 C 0.4650(6) 0.8095(6) 0.8430(4)
H8 H 0.3632 0.7404 0.8015
H9 H 0.4460 0.9120 0.8311
H10 H 0.4755 0.8093 0.9246
C5 C 1.0337(5) 0.8376(5) 0.6257(4)
H11 H 1.1503 0.8936 0.6548
H12 H 0.9963 0.8465 0.5466
H13 H 1.0434 0.7307 0.6287
C6 C 0.9030(6) 1.0695(4) 0.7004(4)
H14 H 0.8190 1.1164 0.7491
H15 H 0.8694 1.0860 0.6229
H16 H 1.0245 1.1148 0.7308
Cu1 Cu 0.64114(5) 0.79281(4) 0.63421(3)
N1 N 0.6343(4) 0.7586(3) 0.7999(2)
N2 N 0.8969(3) 0.9021(3) 0.6978(2)
O1 O 0.5223(3) 0.9855(2) 0.35372(17)
O2 O 0.2662(3) 0.4514(3) 0.4533(2)
O3 O 0.6437(3) 0.8471(2) 0.47864(18)
O4 O 0.4064(3) 0.6635(2) 0.5714(2)
C7 C 0.5474(4) 0.9522(3) 0.4516(2)
C8 C 0.4054(4) 0.5332(3) 0.5067(3)
C1A C 0.2125(7) 0.1383(7) 0.1272(4)
H1A H 0.2545 0.0361 0.1045
H2A H 0.1764 0.1765 0.0568
C2A C 0.0569(6) 0.1264(6) 0.1842(3)
H3A H -0.0045 0.2214 0.1883
H4A H -0.0278 0.0430 0.1380
C3A C 0.3528(9) 0.4029(5) 0.1909(4)
H5A H 0.3476 0.4108 0.1110
H6A H 0.2443 0.4401 0.2190
H7A H 0.4581 0.4639 0.2366
C4A C 0.5350(6) 0.1905(6) 0.1570(4)
H8A H 0.6368 0.2596 0.1985
H9A H 0.5540 0.0880 0.1689
H10A H 0.5245 0.1907 0.0754
C5A C -0.0337(5) 0.1624(5) 0.3743(4)
H11A H -0.1503 0.1064 0.3452
H12A H 0.0037 0.1535 0.4534
H13A H -0.0434 0.2693 0.3713
C6A C 0.0970(6) -0.0695(4) 0.2996(4)
H14A H 0.1810 -0.1164 0.2509
H15A H 0.1306 -0.0860 0.3771
H16A H -0.0245 -0.1148 0.2692
Cu1A Cu 0.35886(5) 0.20719(4) 0.36579(3)
Cu1A_2 Cu 0.35886(5) 1.20719(4) 0.36579(3)
N1A N 0.3657(4) 0.2414(3) 0.2001(2)
N2A N 0.1031(3) 0.0979(3) 0.3022(2)
O1A O 0.4777(3) 1.0145(2) 0.64628(17)
O1_2 O 0.5223(3) -0.0145(2) 0.35372(17)
O2A O 0.7338(3) 0.5486(3) 0.5467(2)
O3A O 0.3563(3) 1.1529(2) 0.52136(18)
O3A_2 O 0.3563(3) 0.1529(2) 0.52136(18)
O4A O 0.5936(3) 0.3365(2) 0.4286(2)
C7A C 0.4526(4) 1.0478(3) 0.5484(2)
C8A C 0.5946(4) 0.4668(3) 0.4933(3)
O5 O 0.9537(4) 0.5790(4) 0.3559(2)
H17 H 0.8606 0.5841 0.4072
H18 H 1.0596 0.5471 0.3974
O6 O 0.4636(4) 1.2365(3) 0.8503(2)
H19 H 0.4338 1.1637 0.7809
H20 H 0.3525 1.2871 0.8625
O7 O 0.8584(4) 0.5968(3) 0.1285(2)
H21 H 0.8946 0.5789 0.2004
H22 H 0.8138 0.5133 0.0894
O8 O 0.8263(4) 1.3136(3) 0.9702(3)
H23 H 0.7196 1.2855 0.9305
H24 H 0.8976 1.3221 0.9201
loop_
_geom_bond_atom_site_label_1
_geom_bond_atom_site_label_2
_geom_bond_site_symmetry_1
_geom_bond_site_symmetry_2
C1 H1 1_555 1_555
H2 C1 1_555 1_555
C2 C1 1_555 1_555
H3 C2 1_555 1_555
H4 C2 1_555 1_555
C3 H5 1_555 1_555
H6 C3 1_555 1_555
H7 C3 1_555 1_555
C4 H8 1_555 1_555
H9 C4 1_555 1_555
H10 C4 1_555 1_555
C5 H11 1_555 1_555
H12 C5 1_555 1_555
H13 C5 1_555 1_555
C6 H14 1_555 1_555
H15 C6 1_555 1_555
H16 C6 1_555 1_555
Cu1 N1 1_555 1_555
N1 C1 1_555 1_555
N2 C2 1_555 1_555
O1 C7 1_555 1_555
O2 C8 1_555 1_555
O3 Cu1 1_555 1_555
O4 Cu1 1_555 1_555
C7 O3 1_555 1_555
C8 O4 1_555 1_555
O5 H17 1_555 1_555
O6 H19 1_555 1_555
O7 H21 1_555 1_555
O8 H23 1_555 1_555
H18 O5 1_555 1_555
H20 O6 1_555 1_555
H22 O7 1_555 1_555
H24 O8 1_555 1_555
C1A H1A 1_555 1_555
H2A C1A 1_555 1_555
C2A C1A 1_555 1_555
H3A C2A 1_555 1_555
H4A C2A 1_555 1_555
C3A H5A 1_555 1_555
H6A C3A 1_555 1_555
H7A C3A 1_555 1_555
C4A H8A 1_555 1_555
H9A C4A 1_555 1_555
H10A C4A 1_555 1_555
C5A H11A 1_555 1_555
H12A C5A 1_555 1_555
H13A C5A 1_555 1_555
C6A H14A 1_555 1_555
H15A C6A 1_555 1_555
H16A C6A 1_555 1_555
Cu1A O2 1_555 1_555
Cu1A_2 O1 1_555 1_555
N1A C1A 1_555 1_555
N2A C2A 1_555 1_555
O1A Cu1 1_555 1_555
O1_2 Cu1A 1_555 1_555
O2A Cu1 1_555 1_555
O3A Cu1A_2 1_555 1_555
O3A_2 Cu1A 1_555 1_555
O4A Cu1A 1_555 1_555
C7A C7 1_555 1_555
C8A C8 1_555 1_555
C3 N1 1_555 1_555
C4 N1 1_555 1_555
C5 N2 1_555 1_555
C6 N2 1_555 1_555
Cu1 N2 1_555 1_555
C3A N1A 1_555 1_555
C4A N1A 1_555 1_555
C5A N2A 1_555 1_555
C6A N2A 1_555 1_555
Cu1A N1A 1_555 1_555
Cu1A N2A 1_555 1_555
O1A C7A 1_555 1_555
O2A C8A 1_555 1_555
O3A C7A 1_555 1_555
O4A C8A 1_555 1_555

#END
