
#######################################################################
#
#                 Cambridge Crystallographic Data Centre
#                                CCDC 
#
#######################################################################
#
# If this CIF has been generated from an entry in the Cambridge 
# Structural Database, then it will include bibliographic, chemical, 
# crystal, experimental, refinement or atomic coordinate data resulting 
# from the CCDC's data processing and validation procedures.
#
#######################################################################

data_FIYKAA
_symmetry_cell_setting           triclinic
_symmetry_space_group_name_H-M   'P -1'
_symmetry_Int_Tables_number      2
_space_group_name_Hall           '-P 1'
loop_
_symmetry_equiv_pos_site_id
_symmetry_equiv_pos_as_xyz
1 x,y,z
2 -x,-y,-z
_cell_length_a                   7.3891(6)
_cell_length_b                   8.860(2)
_cell_length_c                   11.849(3)
_cell_angle_alpha                101.30(2)
_cell_angle_beta                 98.024(15)
_cell_angle_gamma                92.745(16)
_cell_volume                     750.974
loop_
_atom_site_label
_atom_site_type_symbol
_atom_site_fract_x
_atom_site_fract_y
_atom_site_fract_z
Cu1 Cu 0.85845(7) 0.20726(6) 0.86589(4)
C1 C 1.0947(5) 0.4667(5) 0.9931(4)
C2 C 0.9531(5) 0.0477(5) 1.0486(3)
O1 O 1.0940(4) 0.3358(3) 0.9289(3)
O2 O 0.8563(4) 0.1532(4) 1.0216(2)
O3 O 1.2336(4) 0.5493(3) 1.0470(3)
O4 O 0.9779(4) 0.0147(3) 1.1461(2)
N1 N 0.6032(5) 0.0977(4) 0.8019(3)
C3 C 0.4657(7) 0.1629(6) 0.8750(5)
H1 H 0.4963 0.1437 0.9521
H2 H 0.3461 0.1147 0.8412
H3 H 0.4662 0.2721 0.8787
C4 C 0.5975(8) -0.0697(6) 0.7997(6)
H4 H 0.6290 -0.0862 0.8776
H5 H 0.6836 -0.1159 0.7523
H6 H 0.4764 -0.1159 0.7679
C5 C 0.5558(8) 0.1267(9) 0.6831(5)
H7 H 0.4695 0.0440 0.6373
H8 H 0.4962 0.2224 0.6873
N2 N 0.8655(5) 0.2424(5) 0.7006(3)
C6 C 0.7129(9) 0.1366(10) 0.6262(5)
H9 H 0.6781 0.1730 0.5548
H10 H 0.7555 0.0344 0.6056
C7 C 1.0362(9) 0.1919(8) 0.6582(5)
H11 H 1.0492 0.0862 0.6641
H12 H 1.1392 0.2556 0.7047
H13 H 1.0310 0.2009 0.5784
C8 C 0.8522(12) 0.4030(8) 0.6908(6)
H14 H 0.7419 0.4390 0.7172
H15 H 0.8497 0.4110 0.6110
H16 H 0.9563 0.4648 0.7378
Cu1A Cu 1.14155(7) 0.79274(6) 1.13411(4)
Cu1A_2 Cu 1.14155(7) -0.20726(6) 1.13411(4)
C1A C 0.9053(5) 0.5333(5) 1.0069(4)
C2A C 1.0469(5) -0.0477(5) 0.9514(3)
O1A O 0.9060(4) 0.6642(3) 1.0711(3)
O2A O 1.1437(4) -0.1532(4) 0.9784(2)
O2A_2 O 1.1437(4) 0.8468(4) 0.9784(2)
O3A O 0.7664(4) 0.4507(3) 0.9530(3)
O4A O 1.0221(4) -0.0147(3) 0.8539(2)
O4_2 O 0.9779(4) 1.0147(3) 1.1461(2)
N1A N 1.3968(5) 0.9023(4) 1.1981(3)
C3A C 1.5343(7) 0.8371(6) 1.1250(5)
H1A H 1.5037 0.8563 1.0479
H2A H 1.6539 0.8853 1.1588
H3A H 1.5338 0.7279 1.1213
C4A C 1.4025(8) 1.0697(6) 1.2003(6)
H4A H 1.3710 1.0862 1.1224
H5A H 1.3164 1.1159 1.2477
H6A H 1.5236 1.1159 1.2321
C5A C 1.4442(8) 0.8733(9) 1.3169(5)
H7A H 1.5305 0.9560 1.3627
H8A H 1.5038 0.7776 1.3127
N2A N 1.1345(5) 0.7576(5) 1.2994(3)
C6A C 1.2871(9) 0.8634(10) 1.3738(5)
H9A H 1.3219 0.8270 1.4452
H10A H 1.2445 0.9656 1.3944
C7A C 0.9638(9) 0.8081(8) 1.3418(5)
H11A H 0.9508 0.9138 1.3359
H12A H 0.8608 0.7444 1.2953
H13A H 0.9690 0.7991 1.4216
C8A C 1.1478(12) 0.5970(8) 1.3092(6)
H14A H 1.2581 0.5610 1.2828
H15A H 1.1503 0.5890 1.3890
H16A H 1.0437 0.5352 1.2622
O5 O 0.3265(6) 0.3137(5) 0.4690(3)
O6 O 0.3579(5) 0.5954(4) 0.6288(3)
O7 O 0.0374(6) 0.7640(5) 0.6508(3)
O8 O 0.4552(5) 0.5785(5) 0.8566(3)
loop_
_geom_bond_atom_site_label_1
_geom_bond_atom_site_label_2
_geom_bond_site_symmetry_1
_geom_bond_site_symmetry_2
Cu1 O1 1_555 1_555
C1 O1 1_555 1_555
C2 O2 1_555 1_555
O2 Cu1 1_555 1_555
O3 C1 1_555 1_555
O4 C2 1_555 1_555
N1 Cu1 1_555 1_555
C3 N1 1_555 1_555
H1 C3 1_555 1_555
H2 C3 1_555 1_555
H3 C3 1_555 1_555
C4 N1 1_555 1_555
H4 C4 1_555 1_555
H5 C4 1_555 1_555
H6 C4 1_555 1_555
C5 N1 1_555 1_555
H7 C5 1_555 1_555
H8 C5 1_555 1_555
N2 Cu1 1_555 1_555
C6 C5 1_555 1_555
H9 C6 1_555 1_555
H10 C6 1_555 1_555
C7 N2 1_555 1_555
H11 C7 1_555 1_555
H12 C7 1_555 1_555
H13 C7 1_555 1_555
C8 N2 1_555 1_555
H14 C8 1_555 1_555
H15 C8 1_555 1_555
H16 C8 1_555 1_555
Cu1A O3 1_555 1_555
Cu1A_2 O4 1_555 1_555
C1A C1 1_555 1_555
C2A C2 1_555 1_555
O1A Cu1A 1_555 1_555
O2A Cu1A_2 1_555 1_555
O2A_2 Cu1A 1_555 1_555
O3A Cu1 1_555 1_555
O4A Cu1 1_555 1_555
O4_2 Cu1A 1_555 1_555
N1A Cu1A 1_555 1_555
C3A N1A 1_555 1_555
H1A C3A 1_555 1_555
H2A C3A 1_555 1_555
H3A C3A 1_555 1_555
C4A N1A 1_555 1_555
H4A C4A 1_555 1_555
H5A C4A 1_555 1_555
H6A C4A 1_555 1_555
C5A N1A 1_555 1_555
H7A C5A 1_555 1_555
H8A C5A 1_555 1_555
N2A Cu1A 1_555 1_555
C6A C5A 1_555 1_555
H9A C6A 1_555 1_555
H10A C6A 1_555 1_555
C7A N2A 1_555 1_555
H11A C7A 1_555 1_555
H12A C7A 1_555 1_555
H13A C7A 1_555 1_555
C8A N2A 1_555 1_555
H14A C8A 1_555 1_555
H15A C8A 1_555 1_555
H16A C8A 1_555 1_555
N2 C6 1_555 1_555
C1A O1A 1_555 1_555
C1A O3A 1_555 1_555
C2A O2A 1_555 1_555
C2A O4A 1_555 1_555
N2A C6A 1_555 1_555

#END
