
#######################################################################
#
#                 Cambridge Crystallographic Data Centre
#                                CCDC 
#
#######################################################################
#
# If this CIF has been generated from an entry in the Cambridge 
# Structural Database, then it will include bibliographic, chemical, 
# crystal, experimental, refinement or atomic coordinate data resulting 
# from the CCDC's data processing and validation procedures.
#
#######################################################################

data_FIYKUT
_symmetry_cell_setting           monoclinic
_symmetry_space_group_name_H-M   'C 2/m'
_symmetry_Int_Tables_number      12
_space_group_name_Hall           '-C 2y'
loop_
_symmetry_equiv_pos_site_id
_symmetry_equiv_pos_as_xyz
1 x,y,z
2 1/2+x,1/2+y,z
3 -x,y,-z
4 1/2-x,1/2+y,-z
5 -x,-y,-z
6 1/2-x,1/2-y,-z
7 x,-y,z
8 1/2+x,1/2-y,z
_cell_length_a                   10.540(3)
_cell_length_b                   16.851(2)
_cell_length_c                   6.467(1)
_cell_angle_alpha                90
_cell_angle_beta                 106.05(2)
_cell_angle_gamma                90
_cell_volume                     1103.83
loop_
_atom_site_label
_atom_site_type_symbol
_atom_site_fract_x
_atom_site_fract_y
_atom_site_fract_z
Ca1 Ca 0.2998(1) 0.00000 0.3552(1)
Cl1 Cl 0.0968(1) 0.19894(4) 0.8372(1)
O1 O 0.2226(2) 0.0949(1) 0.5787(3)
O2 O 0.3454(2) 0.1365(1) 0.2914(5)
C1 C 0.2315(3) 0.1682(1) 0.5492(4)
C2 C 0.3041(2) 0.1923(1) 0.3830(4)
C3 C 0.1815(3) 0.2270(1) 0.6544(4)
O3 O 0.2452(3) 0.00000 -0.0360(5)
O4 O 0.4740(2) 0.00000 0.7046(4)
O5 O 0.0529(3) 0.00000 0.2379(6)
H1 H 0.2224(30) 0.0337(22) -0.1089(54)
H2 H 0.4693(26) -0.0378(16) 0.7744(43)
O1F O 0.2226(2) -0.0949(1) 0.5787(3)
O2F O 0.3454(2) -0.1365(1) 0.2914(5)
O4B O 0.5260(2) 0.00000 0.2954(4)
C3E C 0.3185(3) 0.2730(1) 0.3456(4)
C2E C 0.1959(2) 0.3077(1) 0.6170(4)
H1F H 0.2224(30) -0.0337(22) -0.1089(54)
H2F H 0.4693(26) 0.0378(16) 0.7744(43)
Ca1B Ca 0.7002(1) 0.00000 0.6448(1)
H2B H 0.5307(26) -0.0378(16) 0.2256(43)
H2D H 0.5307(26) 0.0378(16) 0.2256(43)
Cl1E Cl 0.4032(1) 0.30106(4) 0.1628(1)
C1E C 0.2685(3) 0.3318(1) 0.4508(4)
O2E O 0.1546(2) 0.3635(1) 0.7086(5)
O1E O 0.2774(2) 0.4051(1) 0.4213(3)
Ca1C Ca 0.2002(1) 0.50000 0.6448(1)
O6 O 0.0000 0.3771(2) 0.0000
H3 H 0.0433(27) 0.3503(18) -0.0515(52)
H3B H -0.0433(27) 0.3503(18) 0.0515(52)
loop_
_geom_bond_atom_site_label_1
_geom_bond_atom_site_label_2
_geom_bond_site_symmetry_1
_geom_bond_site_symmetry_2
Ca1 O1 1_555 1_555
Cl1 C3 1_555 1_555
O1 C1 1_555 1_555
O2 Ca1 1_555 1_555
C1 C2 1_555 1_555
C2 O2 1_555 1_555
C3 C1 1_555 1_555
O3 Ca1 1_555 1_555
O4 Ca1 1_555 1_555
O5 Ca1 1_555 1_555
O6 H3 1_555 1_555
H1 O3 1_555 1_555
H2 O4 1_555 1_555
O1F Ca1 1_555 1_555
O2F Ca1 1_555 1_555
O4B Ca1 1_555 1_555
C3E C2 1_555 1_555
C2E C3 1_555 1_555
H1F O3 1_555 1_555
H2F O4 1_555 1_555
Ca1B O4 1_555 1_555
H3B O6 1_555 1_555
H2B O4B 1_555 1_555
H2D O4B 1_555 1_555
Cl1E C3E 1_555 1_555
C1E C3E 1_555 1_555
O2E C2E 1_555 1_555
O1E C1E 1_555 1_555
Ca1C O2E 1_555 1_555
O4B Ca1B 1_555 1_555
C2E C1E 1_555 1_555
O1E Ca1C 1_555 1_555

#END
