
#######################################################################
#
#                 Cambridge Crystallographic Data Centre
#                                CCDC 
#
#######################################################################
#
# If this CIF has been generated from an entry in the Cambridge 
# Structural Database, then it will include bibliographic, chemical, 
# crystal, experimental, refinement or atomic coordinate data resulting 
# from the CCDC's data processing and validation procedures.
#
#######################################################################

data_FIYLII
_symmetry_cell_setting           monoclinic
_symmetry_space_group_name_H-M   'C 2/m'
_symmetry_Int_Tables_number      12
_space_group_name_Hall           '-C 2y'
loop_
_symmetry_equiv_pos_site_id
_symmetry_equiv_pos_as_xyz
1 x,y,z
2 1/2+x,1/2+y,z
3 -x,y,-z
4 1/2-x,1/2+y,-z
5 -x,-y,-z
6 1/2-x,1/2-y,-z
7 x,-y,z
8 1/2+x,1/2-y,z
_cell_length_a                   10.807(2)
_cell_length_b                   17.384(3)
_cell_length_c                   6.441(1)
_cell_angle_alpha                90
_cell_angle_beta                 105.32(1)
_cell_angle_gamma                90
_cell_volume                     1167.06
loop_
_atom_site_label
_atom_site_type_symbol
_atom_site_fract_x
_atom_site_fract_y
_atom_site_fract_z
O5 O 0.0000 0.3756(2) 0.0000
H3 H -0.0601(39) 0.3726(22) -0.005(11)
H3B H 0.0601(39) 0.3726(22) 0.005(11)
Sr1 Sr 0.2956(1) 0.0000 0.3429(1)
Cl1 Cl 0.0986(1) 0.2000(1) 0.8374(2)
O1 O 0.2263(2) 0.0991(1) 0.5820(5)
O2 O 0.3479(3) 0.1409(1) 0.2930(5)
C1 C 0.2334(3) 0.1705(2) 0.5512(7)
C2 C 0.3052(4) 0.1942(2) 0.3832(6)
C3 C 0.1816(3) 0.2273(2) 0.6535(7)
O3 O 0.2297(4) 0.0000 -0.0695(7)
O4 O 0.4734(3) 0.0000 0.7177(6)
H1 H 0.2250(30) 0.0297(19) -0.1403(65)
H2 H 0.4482(31) -0.0305(19) 0.7631(66)
O1F O 0.2263(2) -0.0991(1) 0.5820(5)
O2F O 0.3479(3) -0.1409(1) 0.2930(5)
O4B O 0.5266(3) 0.0000 0.2823(6)
C3E C 0.3184(3) 0.2727(2) 0.3465(7)
C2E C 0.1948(4) 0.3058(2) 0.6168(6)
H1F H 0.2250(30) -0.0297(19) -0.1403(65)
H2F H 0.4482(31) 0.0305(19) 0.7631(66)
Sr1B Sr 0.7044(1) 0.0000 0.6571(1)
loop_
_geom_bond_atom_site_label_1
_geom_bond_atom_site_label_2
_geom_bond_site_symmetry_1
_geom_bond_site_symmetry_2
Sr1 O1 1_555 1_555
Cl1 C3 1_555 1_555
O1 C1 1_555 1_555
O2 Sr1 1_555 1_555
C1 C2 1_555 1_555
C2 O2 1_555 1_555
C3 C1 1_555 1_555
O3 Sr1 1_555 1_555
O4 Sr1 1_555 1_555
O5 H3 1_555 1_555
H1 O3 1_555 1_555
H2 O4 1_555 1_555
O1F Sr1 1_555 1_555
O2F Sr1 1_555 1_555
O4B Sr1 1_555 1_555
C3E C2 1_555 1_555
C2E C3 1_555 1_555
H1F O3 1_555 1_555
H2F O4 1_555 1_555
Sr1B O4 1_555 1_555
H3B O5 1_555 1_555
O4B Sr1B 1_555 1_555

#END
