
#######################################################################
#
#                 Cambridge Crystallographic Data Centre
#                                CCDC 
#
#######################################################################
#
# If this CIF has been generated from an entry in the Cambridge 
# Structural Database, then it will include bibliographic, chemical, 
# crystal, experimental, refinement or atomic coordinate data resulting 
# from the CCDC's data processing and validation procedures.
#
#######################################################################

data_FIYLEF
_symmetry_cell_setting           triclinic
_symmetry_space_group_name_H-M   'P -1'
_symmetry_Int_Tables_number      2
_space_group_name_Hall           '-P 1'
loop_
_symmetry_equiv_pos_site_id
_symmetry_equiv_pos_as_xyz
1 x,y,z
2 -x,-y,-z
_cell_length_a                   11.1000(3)
_cell_length_b                   13.6800(6)
_cell_length_c                   15.7170(6)
_cell_angle_alpha                98.866(2)
_cell_angle_beta                 90.857(2)
_cell_angle_gamma                95.610(2)
_cell_volume                     2345.69
loop_
_atom_site_label
_atom_site_type_symbol
_atom_site_fract_x
_atom_site_fract_y
_atom_site_fract_z
Zn1 Zn 0.08469(5) -0.10094(5) 1.46879(4)
Zn2 Zn -0.54105(6) -0.62623(5) 1.04078(4)
O1 O 0.0271(4) -0.2187(3) 1.3839(3)
O2 O -0.1216(4) -0.1238(3) 1.3976(3)
C1 C -0.0781(6) -0.2001(5) 1.3638(4)
C2 C -0.1512(5) -0.2725(4) 1.2957(4)
C3 C -0.2279(5) -0.3512(4) 1.3192(4)
C4 C -0.3001(5) -0.4124(4) 1.2560(4)
H1 H -0.3514 -0.4644 1.2713
C5 C -0.2980(4) -0.3985(4) 1.1710(3)
C6 C -0.2252(5) -0.3192(4) 1.1485(4)
H2 H -0.2253 -0.3086 1.0915
C7 C -0.1511(5) -0.2544(4) 1.2100(4)
C8 C -0.3720(5) -0.4675(5) 1.1034(4)
O3 O -0.4309(3) -0.5420(3) 1.1259(2)
O4 O -0.3689(3) -0.4516(3) 1.0265(2)
C9 C -0.2357(4) -0.3719(4) 1.4099(2)
C10 C -0.3475(4) -0.3748(4) 1.4486(3)
H3 H -0.4161 -0.3633 1.4184
C11 C -0.3568(6) -0.3948(5) 1.5325(3)
H4 H -0.4316 -0.3968 1.5584
C12 C -0.2543(7) -0.4119(4) 1.5776(2)
H5 H -0.2606 -0.4253 1.6337
C13 C -0.1425(6) -0.4090(4) 1.5389(3)
H6 H -0.0739 -0.4205 1.5691
C14 C -0.1332(4) -0.3890(4) 1.4551(3)
H7 H -0.0584 -0.3870 1.4292
C15 C -0.0764(4) -0.1686(3) 1.1821(3)
C16 C -0.1318(4) -0.1075(4) 1.1339(3)
H8 H -0.2145 -0.1189 1.1212
C17 C -0.0635(6) -0.0293(3) 1.1048(3)
H9 H -0.1005 0.0116 1.0726
C18 C 0.0602(6) -0.0122(3) 1.1239(3)
H10 H 0.1059 0.0402 1.1044
C19 C 0.1155(4) -0.0733(4) 1.1721(3)
H11 H 0.1983 -0.0619 1.1848
C20 C 0.0472(4) -0.1515(4) 1.2012(3)
H12 H 0.0843 -0.1924 1.2334
O5 O 0.1461(3) 0.0108(3) 1.4154(2)
O6 O -0.0108(3) 0.1036(3) 1.4206(2)
C21 C 0.0908(5) 0.0793(4) 1.3933(3)
C22 C 0.1479(5) 0.1373(4) 1.3292(3)
C23 C 0.2704(5) 0.1348(4) 1.3128(3)
H13 H 0.3163 0.0967 1.3423
C24 C 0.3252(4) 0.1879(4) 1.2531(3)
C25 C 0.2540(5) 0.2433(4) 1.2075(3)
C26 C 0.1305(5) 0.2452(4) 1.2220(3)
C27 C 0.0798(5) 0.1934(4) 1.2844(3)
H14 H -0.0016 0.1965 1.2963
C28 C 0.3141(5) 0.3077(5) 1.1465(4)
O7 O 0.3632(3) 0.2629(3) 1.0812(2)
O8 O 0.3154(4) 0.3977(3) 1.1635(3)
C29 C 0.0546(3) 0.2997(3) 1.1705(2)
C30 C 0.0486(4) 0.2774(3) 1.0811(2)
H15 H 0.0900 0.2265 1.0531
C31 C -0.0194(4) 0.3312(4) 1.0335(2)
H16 H -0.0235 0.3163 0.9737
C32 C -0.0814(4) 0.4074(4) 1.0753(3)
H17 H -0.1269 0.4434 1.0435
C33 C -0.0754(4) 0.4297(3) 1.1647(3)
H18 H -0.1169 0.4806 1.1927
C34 C -0.0074(4) 0.3758(3) 1.2123(2)
H19 H -0.0034 0.3908 1.2721
C35 C 0.4592(2) 0.1868(3) 1.2404(3)
C36 C 0.5072(4) 0.0962(3) 1.2204(3)
H20 H 0.4570 0.0370 1.2170
C37 C 0.6301(4) 0.0940(3) 1.2055(3)
H21 H 0.6621 0.0334 1.1921
C38 C 0.7050(3) 0.1824(4) 1.2105(3)
H22 H 0.7872 0.1809 1.2005
C39 C 0.6570(3) 0.2730(3) 1.2305(3)
H23 H 0.7071 0.3321 1.2339
C40 C 0.5341(3) 0.2752(3) 1.2454(3)
H24 H 0.5020 0.3358 1.2588
O9 O 0.2489(4) -0.1309(4) 1.5065(3)
H25 H 0.2726 -0.0757 1.5327
C41 C 0.2777(12) -0.2028(10) 1.5541(8)
H26 H 0.3650 -0.2032 1.5551
H27 H 0.2542 -0.1827 1.6129
C42 C 0.2290(14) -0.2952(12) 1.5283(11)
H28 H 0.2542 -0.3374 1.5673
H29 H 0.2552 -0.3183 1.4715
H30 H 0.1423 -0.2969 1.5275
O10 O -0.4391(4) -0.6946(4) 0.9528(3)
H31 H -0.4066 -0.6665 0.9155
C43 C -0.3672(13) -0.7755(10) 0.9707(10)
H32 H -0.2975 -0.7783 0.9343
H33 H -0.3387 -0.7633 1.0304
C44 C -0.4384(13) -0.8614(12) 0.9547(10)
H34 H -0.3944 -0.9144 0.9681
H35 H -0.4633 -0.8744 0.8949
H36 H -0.5085 -0.8572 0.9895
O6A O 0.0108(3) -0.1036(3) 1.5794(2)
O4A O -0.6311(3) -0.5484(3) 0.9735(2)
O7_2 O -0.6368(3) -0.7371(3) 1.0812(2)
Zn2A Zn -0.45895(6) -0.37377(5) 0.95922(4)
Zn1A Zn -0.08469(5) 0.10094(5) 1.53121(4)
Zn2_2 Zn 0.45895(6) 0.37377(5) 1.04078(4)
O11 O 0.3258(8) 0.0327(7) 1.6083(5)
H37 H 0.2628 0.0594 1.6087
C45 C 0.4182(15) 0.0928(13) 1.5780(12)
H38 H 0.3870 0.1407 1.5462
H39 H 0.4725 0.0540 1.5422
C46 C 0.4773(17) 0.1409(15) 1.6602(12)
H40 H 0.5444 0.1867 1.6493
H41 H 0.5060 0.0913 1.6902
H42 H 0.4201 0.1763 1.6948
O12 O 0.7203(9) 0.4145(7) 0.8755(6)
H43 H 0.6862 0.4605 0.8617
C47 C 0.7940(15) 0.3835(14) 0.8147(11)
H44 H 0.8346 0.3277 0.8278
H45 H 0.8535 0.4363 0.8033
C48 C 0.704(3) 0.354(3) 0.7443(11)
H46 H 0.6258 0.3694 0.7642
H47 H 0.7021 0.2839 0.7247
H48 H 0.7254 0.3896 0.6976
O13? O 0.6550(10) 0.3985(9) 0.8352(7)
H49? H 0.6637 0.3447 0.8501
C49? C 0.669(3) 0.391(10) 0.7464(17)
H50? H 0.6381 0.4471 0.7250
H51? H 0.6272 0.3302 0.7164
C50? C 0.805(2) 0.3931(19) 0.7339(16)
H52? H 0.8295 0.3279 0.7355
H53? H 0.8473 0.4396 0.7792
H54? H 0.8244 0.4128 0.6793
loop_
_geom_bond_atom_site_label_1
_geom_bond_atom_site_label_2
_geom_bond_site_symmetry_1
_geom_bond_site_symmetry_2
Zn1 O1 1_555 1_555
Zn2 O3 1_555 1_555
O1 C1 1_555 1_555
O2 C1 1_555 1_555
C1 C2 1_555 1_555
C2 C3 1_555 1_555
C3 C4 1_555 1_555
C4 H1 1_555 1_555
C5 C4 1_555 1_555
C6 C5 1_555 1_555
H2 C6 1_555 1_555
C7 C2 1_555 1_555
C8 C5 1_555 1_555
O3 C8 1_555 1_555
O4 C8 1_555 1_555
C9 C3 1_555 1_555
C10 C9 1_555 1_555
H3 C10 1_555 1_555
C11 C10 1_555 1_555
H4 C11 1_555 1_555
C12 C11 1_555 1_555
H5 C12 1_555 1_555
C13 C12 1_555 1_555
H6 C13 1_555 1_555
C14 C9 1_555 1_555
H7 C14 1_555 1_555
C15 C7 1_555 1_555
C16 C15 1_555 1_555
H8 C16 1_555 1_555
C17 C16 1_555 1_555
H9 C17 1_555 1_555
C18 C17 1_555 1_555
H10 C18 1_555 1_555
C19 C18 1_555 1_555
H11 C19 1_555 1_555
C20 C15 1_555 1_555
H12 C20 1_555 1_555
O5 Zn1 1_555 1_555
O6 C21 1_555 1_555
C21 O5 1_555 1_555
C22 C21 1_555 1_555
C23 C22 1_555 1_555
H13 C23 1_555 1_555
C24 C23 1_555 1_555
C25 C24 1_555 1_555
C26 C25 1_555 1_555
C27 C22 1_555 1_555
H14 C27 1_555 1_555
C28 C25 1_555 1_555
O7 C28 1_555 1_555
O8 C28 1_555 1_555
C29 C26 1_555 1_555
C30 C29 1_555 1_555
H15 C30 1_555 1_555
C31 C30 1_555 1_555
H16 C31 1_555 1_555
C32 C31 1_555 1_555
H17 C32 1_555 1_555
C33 C32 1_555 1_555
H18 C33 1_555 1_555
C34 C29 1_555 1_555
H19 C34 1_555 1_555
C35 C24 1_555 1_555
C36 C35 1_555 1_555
H20 C36 1_555 1_555
C37 C36 1_555 1_555
H21 C37 1_555 1_555
C38 C37 1_555 1_555
H22 C38 1_555 1_555
C39 C38 1_555 1_555
H23 C39 1_555 1_555
C40 C35 1_555 1_555
H24 C40 1_555 1_555
O9 Zn1 1_555 1_555
H25 O9 1_555 1_555
C41 O9 1_555 1_555
H26 C41 1_555 1_555
H27 C41 1_555 1_555
C42 C41 1_555 1_555
H28 C42 1_555 1_555
H29 C42 1_555 1_555
H30 C42 1_555 1_555
O10 Zn2 1_555 1_555
H31 O10 1_555 1_555
C43 O10 1_555 1_555
H32 C43 1_555 1_555
H33 C43 1_555 1_555
C44 C43 1_555 1_555
H34 C44 1_555 1_555
H35 C44 1_555 1_555
H36 C44 1_555 1_555
O11 H37 1_555 1_555
C45 O11 1_555 1_555
H38 C45 1_555 1_555
H39 C45 1_555 1_555
C46 C45 1_555 1_555
H40 C46 1_555 1_555
H41 C46 1_555 1_555
H42 C46 1_555 1_555
O12 H43 1_555 1_555
C47 O12 1_555 1_555
H44 C47 1_555 1_555
H45 C47 1_555 1_555
C48 C47 1_555 1_555
H46 C48 1_555 1_555
H47 C48 1_555 1_555
H48 C48 1_555 1_555
O6A Zn1 1_555 1_555
O4A Zn2 1_555 1_555
O7_2 Zn2 1_555 1_555
Zn2A O4 1_555 1_555
Zn1A O6 1_555 1_555
Zn2_2 O7 1_555 1_555
C6 C7 1_555 1_555
C13 C14 1_555 1_555
C19 C20 1_555 1_555
C26 C27 1_555 1_555
C33 C34 1_555 1_555
C39 C40 1_555 1_555

#END
