
#######################################################################
#
#                 Cambridge Crystallographic Data Centre
#                                CCDC 
#
#######################################################################
#
# If this CIF has been generated from an entry in the Cambridge 
# Structural Database, then it will include bibliographic, chemical, 
# crystal, experimental, refinement or atomic coordinate data resulting 
# from the CCDC's data processing and validation procedures.
#
#######################################################################

data_FIYNOR
_symmetry_cell_setting           monoclinic
_symmetry_space_group_name_H-M   'P 21/c'
_symmetry_Int_Tables_number      14
_space_group_name_Hall           '-P 2ybc'
loop_
_symmetry_equiv_pos_site_id
_symmetry_equiv_pos_as_xyz
1 x,y,z
2 -x,1/2+y,1/2-z
3 -x,-y,-z
4 x,1/2-y,1/2+z
_cell_length_a                   14.018(3)
_cell_length_b                   12.832(3)
_cell_length_c                   11.094(2)
_cell_angle_alpha                90
_cell_angle_beta                 102.69(3)
_cell_angle_gamma                90
_cell_volume                     1946.83
loop_
_atom_site_label
_atom_site_type_symbol
_atom_site_fract_x
_atom_site_fract_y
_atom_site_fract_z
Ag1 Ag 0.93743(4) 0.02933(5) 0.38314(5)
Ag2 Ag 0.95934(4) -0.04741(5) 0.88610(5)
Ag3 Ag 0.99684(4) 0.24676(5) 0.91118(5)
Ag4 Ag 0.89086(5) 0.23122(5) 1.10087(5)
O1 O 0.8801(3) 0.1526(4) 0.7999(4)
O2 O 0.7865(4) 0.1623(4) 0.9377(5)
O3 O 0.8388(4) 0.0717(4) 0.5137(5)
O4 O 0.9122(3) -0.0353(4) 0.6635(4)
O5 O 0.9170(4) -0.0327(4) 0.1656(5)
O6 O 0.8457(4) -0.0951(4) -0.0198(5)
O7 O 0.9037(3) -0.1687(4) 0.4426(4)
O8 O 0.9488(4) -0.2504(4) 0.2870(4)
O9 O 0.6801(4) 0.1149(5) 1.3429(5)
H1 H 0.7213 0.0799 1.3896
O10 O 0.7986(4) 0.1374(4) 1.2415(5)
C1 C 0.8037(6) 0.1316(6) 0.8391(7)
C2 C 0.7294(5) 0.0649(5) 0.7565(7)
C3 C 0.6369(5) 0.0562(6) 0.7818(7)
H2 H 0.6236 0.0920 0.8492
C4 C 0.5639(6) -0.0041(7) 0.7102(8)
H3 H 0.5024 -0.0086 0.7286
C5 C 0.5846(6) -0.0573(6) 0.6112(7)
H4 H 0.5372 -0.0995 0.5629
C6 C 0.6738(6) -0.0482(6) 0.5837(7)
H5 H 0.6866 -0.0842 0.5163
C7 C 0.7457(5) 0.0128(5) 0.6531(6)
C8 C 0.8401(5) 0.0188(5) 0.6092(7)
C9 C 0.8511(5) -0.0808(5) 0.0924(7)
C10 C 0.7698(5) -0.1285(5) 0.1439(7)
C11 C 0.7894(5) -0.1794(5) 0.2582(6)
C12 C 0.7108(6) -0.2178(6) 0.3040(8)
H6 H 0.7227 -0.2541 0.3784
C13 C 0.6158(6) -0.2021(6) 0.2395(8)
H7 H 0.5638 -0.2245 0.2725
C14 C 0.5981(6) -0.1534(6) 0.1267(8)
H8 H 0.5340 -0.1451 0.0826
C15 C 0.6732(6) -0.1167(6) 0.0778(7)
H9 H 0.6601 -0.0840 0.0011
C16 C 0.8885(5) -0.1999(5) 0.3344(7)
C17 C 0.7123(7) 0.1388(6) 1.2438(8)
C18 C 0.6346(6) 0.1706(7) 1.1374(8)
H10 H 0.6576 0.1628 1.0626
H11 H 0.5780 0.1275 1.1336
H12 H 0.6176 0.2421 1.1469
Ag1B Ag 1.06257(4) -0.02933(5) 0.61686(5)
Ag1C Ag 0.93743(4) 0.47067(5) 0.88314(5)
Ag2B Ag 1.04066(4) 0.04741(5) 1.11390(5)
Ag2B_2 Ag 1.04066(4) 0.04741(5) 0.11390(5)
Ag2_2 Ag 0.95934(4) -0.04741(5) -0.11390(5)
Ag3C Ag 0.99684(4) 0.25324(5) 0.41118(5)
Ag3B Ag 1.00316(4) -0.24676(5) 1.08882(5)
Ag3A Ag 1.00316(4) -0.25324(5) 0.58882(5)
Ag3B_2 Ag 1.00316(4) -0.24676(5) 0.08882(5)
Ag4B Ag 1.10914(5) -0.23122(5) 0.89913(5)
Ag4A Ag 1.10914(5) -0.26878(5) 0.39913(5)
O4B O 1.0878(3) 0.0353(4) 0.3365(4)
O5B O 1.0830(4) 0.0327(4) 0.8344(5)
O6_2 O 0.8457(4) -0.0951(4) 0.9802(5)
O7A O 1.0963(3) 0.3313(4) 1.0574(4)
O8B O 1.0512(4) 0.2504(4) 0.7130(4)
O8A O 1.0512(4) 0.2496(4) 1.2130(4)
loop_
_geom_bond_atom_site_label_1
_geom_bond_atom_site_label_2
_geom_bond_site_symmetry_1
_geom_bond_site_symmetry_2
Ag1 O3 1_555 1_555
Ag2 O4 1_555 1_555
Ag3 Ag4 1_555 1_555
Ag4 O2 1_555 1_555
O1 Ag3 1_555 1_555
O2 C1 1_555 1_555
O3 C8 1_555 1_555
O4 C8 1_555 1_555
O5 Ag1 1_555 1_555
O6 C9 1_555 1_555
O7 C16 1_555 1_555
O8 C16 1_555 1_555
O9 H1 1_555 1_555
O10 Ag4 1_555 1_555
C1 O1 1_555 1_555
C2 C1 1_555 1_555
C3 C2 1_555 1_555
H2 C3 1_555 1_555
C4 C3 1_555 1_555
H3 C4 1_555 1_555
C5 C4 1_555 1_555
H4 C5 1_555 1_555
C6 C5 1_555 1_555
H5 C6 1_555 1_555
C7 C2 1_555 1_555
C8 C7 1_555 1_555
C9 O5 1_555 1_555
C10 C9 1_555 1_555
C11 C10 1_555 1_555
C12 C11 1_555 1_555
H6 C12 1_555 1_555
C13 C12 1_555 1_555
H7 C13 1_555 1_555
C14 C13 1_555 1_555
H8 C14 1_555 1_555
C15 C10 1_555 1_555
H9 C15 1_555 1_555
C16 C11 1_555 1_555
C17 O9 1_555 1_555
C18 C17 1_555 1_555
H10 C18 1_555 1_555
H11 C18 1_555 1_555
H12 C18 1_555 1_555
Ag1B Ag1 1_555 1_555
Ag1C Ag3 1_555 1_555
Ag2B Ag2 1_555 1_555
Ag2B_2 O5 1_555 1_555
Ag2_2 O6 1_555 1_555
Ag3C Ag1 1_555 1_555
Ag3B Ag2 1_555 1_555
Ag3A O7 1_555 1_555
Ag3B_2 O8 1_555 1_555
Ag4B Ag2 1_555 1_555
Ag4A O8 1_555 1_555
O4B Ag1 1_555 1_555
O5B Ag2 1_555 1_555
O6_2 Ag2 1_555 1_555
O7A Ag3 1_555 1_555
O8B Ag3 1_555 1_555
O8A Ag4 1_555 1_555
Ag3 Ag2B 1_555 1_555
Ag4 Ag2B 1_555 1_555
O4 Ag1B 1_555 1_555
O10 C17 1_555 1_555
C6 C7 1_555 1_555
C14 C15 1_555 1_555
Ag1B Ag3A 1_555 1_555
Ag1B O5B 1_555 1_555
Ag2B_2 Ag2_2 1_555 1_555
Ag2B_2 O4B 1_555 1_555
Ag2_2 Ag3B_2 1_555 1_555
Ag3B Ag4B 1_555 1_555
Ag3A Ag4A 1_555 1_555

#END
