
#######################################################################
#
#                 Cambridge Crystallographic Data Centre
#                                CCDC 
#
#######################################################################
#
# If this CIF has been generated from an entry in the Cambridge 
# Structural Database, then it will include bibliographic, chemical, 
# crystal, experimental, refinement or atomic coordinate data resulting 
# from the CCDC's data processing and validation procedures.
#
#######################################################################

data_FIYQIO
_symmetry_cell_setting           monoclinic
_symmetry_space_group_name_H-M   'C 2/c'
_symmetry_Int_Tables_number      15
_space_group_name_Hall           '-C 2yn'
loop_
_symmetry_equiv_pos_site_id
_symmetry_equiv_pos_as_xyz
1 x,y,z
2 1/2+x,1/2+y,z
3 -x,y,1/2-z
4 1/2-x,1/2+y,1/2-z
5 -x,-y,-z
6 1/2-x,1/2-y,-z
7 x,-y,1/2+z
8 1/2+x,1/2-y,1/2+z
_cell_length_a                   19.222(4)
_cell_length_b                   6.0970(12)
_cell_length_c                   15.634(3)
_cell_angle_alpha                90
_cell_angle_beta                 103.50(3)
_cell_angle_gamma                90
_cell_volume                     1781.63
loop_
_atom_site_label
_atom_site_type_symbol
_atom_site_fract_x
_atom_site_fract_y
_atom_site_fract_z
Tb1 Tb 0.407650(17) -0.05937(6) -0.20378(2)
C1 C 0.3399(5) -0.4074(16) -0.3660(5)
C2 C 0.2712(5) -0.5292(16) -0.4176(5)
H1 H 0.2530 -0.4519 -0.4725
H2 H 0.2850 -0.6749 -0.4322
C3 C 0.2112(4) -0.5519(14) -0.3713(4)
C4 C 0.3894(4) -0.3613(13) -0.4287(5)
H3 H 0.4047 -0.5014 -0.4473
H4 H 0.3611 -0.2898 -0.4808
C5 C 0.4535(4) -0.2275(15) -0.3957(5)
C6 C 0.3786(5) -0.5433(15) -0.2905(5)
O1 O 0.2115(3) -0.4274(9) -0.3061(4)
O2 O 0.1627(3) -0.6819(10) -0.3998(3)
O3 O 0.4601(2) -0.1205(8) -0.3268(3)
O4 O 0.5051(3) -0.2357(10) -0.4325(3)
O5 O 0.4068(3) -0.4391(11) -0.2194(3)
O6 O 0.3846(3) -0.7456(10) -0.2967(3)
O7 O 0.3192(3) -0.2001(9) -0.3361(3)
H5 H 0.2731 -0.2168 -0.3216
O8 O 0.4492(3) 0.2310(10) -0.1084(3)
H6 H 0.4589 0.1796 -0.0487
H7 H 0.4134 0.3438 -0.1166
Tb1C Tb 0.092350(17) -0.55937(6) -0.29622(2)
Tb1_2 Tb 0.407650(17) -1.05937(6) -0.20378(2)
Tb1B Tb 0.592350(17) -0.05937(6) -0.29622(2)
O1C O 0.2885(3) 0.0726(9) -0.1939(4)
O2C O 0.3373(3) -0.1819(10) -0.1002(3)
O3B O 0.5399(2) -0.1205(8) -0.1732(3)
O4B O 0.4949(3) -0.2357(10) -0.0675(3)
O6_2 O 0.3846(3) 0.2544(10) -0.2967(3)
loop_
_geom_bond_atom_site_label_1
_geom_bond_atom_site_label_2
_geom_bond_site_symmetry_1
_geom_bond_site_symmetry_2
Tb1 O3 1_555 1_555
C1 C2 1_555 1_555
C2 H1 1_555 1_555
H2 C2 1_555 1_555
C3 C2 1_555 1_555
C4 C1 1_555 1_555
H3 C4 1_555 1_555
H4 C4 1_555 1_555
C5 C4 1_555 1_555
C6 C1 1_555 1_555
O1 C3 1_555 1_555
O2 C3 1_555 1_555
O3 C5 1_555 1_555
O4 C5 1_555 1_555
O5 Tb1 1_555 1_555
O6 C6 1_555 1_555
O7 Tb1 1_555 1_555
H5 O7 1_555 1_555
O8 Tb1 1_555 1_555
H6 O8 1_555 1_555
H7 O8 1_555 1_555
Tb1C O1 1_555 1_555
Tb1_2 O6 1_555 1_555
Tb1B O3 1_555 1_555
O1C Tb1 1_555 1_555
O2C Tb1 1_555 1_555
O3B Tb1 1_555 1_555
O4B Tb1 1_555 1_555
O6_2 Tb1 1_555 1_555
C1 O7 1_555 1_555
C6 O5 1_555 1_555
O2 Tb1C 1_555 1_555
O4 Tb1B 1_555 1_555
Tb1B O3B 1_555 1_555

#END
