
#######################################################################
#
#                 Cambridge Crystallographic Data Centre
#                                CCDC 
#
#######################################################################
#
# If this CIF has been generated from an entry in the Cambridge 
# Structural Database, then it will include bibliographic, chemical, 
# crystal, experimental, refinement or atomic coordinate data resulting 
# from the CCDC's data processing and validation procedures.
#
#######################################################################

data_FIYQEK
_symmetry_cell_setting           monoclinic
_symmetry_space_group_name_H-M   'C 2/c'
_symmetry_Int_Tables_number      15
_space_group_name_Hall           '-C 2yn'
loop_
_symmetry_equiv_pos_site_id
_symmetry_equiv_pos_as_xyz
1 x,y,z
2 1/2+x,1/2+y,z
3 -x,y,1/2-z
4 1/2-x,1/2+y,1/2-z
5 -x,-y,-z
6 1/2-x,1/2-y,-z
7 x,-y,1/2+z
8 1/2+x,1/2-y,1/2+z
_cell_length_a                   19.243(5)
_cell_length_b                   6.1288(14)
_cell_length_c                   15.645(4)
_cell_angle_alpha                90
_cell_angle_beta                 103.616(7)
_cell_angle_gamma                90
_cell_volume                     1793.26
loop_
_atom_site_label
_atom_site_type_symbol
_atom_site_fract_x
_atom_site_fract_y
_atom_site_fract_z
Eu1 Eu 0.092614(10) 0.05954(3) 0.703084(13)
C1 C 0.1616(2) 0.4094(6) 0.8683(3)
C2 C 0.1206(2) 0.5453(6) 0.7877(3)
C3 C 0.1126(2) 0.3660(8) 0.9301(3)
H1 H 0.0984 0.5058 0.9496
H2 H 0.1403 0.2914 0.9816
C4 C 0.0454(2) 0.2340(7) 0.8946(3)
C5 C 0.2266(2) 0.5357(7) 0.9182(3)
H3 H 0.2115 0.6821 0.9288
H4 H 0.2441 0.4668 0.9750
C6 C 0.2883(2) 0.5526(7) 0.8732(3)
O1 O 0.09439(18) 0.4421(5) 0.7180(2)
O2 O 0.11577(18) 0.7449(5) 0.7962(2)
O3 O 0.03981(16) 0.1210(5) 0.8261(2)
O4 O -0.00421(15) 0.2373(5) 0.93220(19)
O5 O 0.28711(19) 0.4365(6) 0.8068(2)
O6 O 0.33815(17) 0.6784(7) 0.9022(3)
O7 O 0.18157(15) 0.2046(5) 0.83660(19)
H5 H 0.2219 0.2194 0.8240
O8 O 0.05085(19) -0.2329(5) 0.6068(2)
H6 H 0.0698 -0.3512 0.6294
H7 H 0.0057 -0.2415 0.5986
Eu1_2 Eu 0.092614(10) 1.05954(3) 0.703084(13)
Eu1B Eu -0.092614(10) 0.05954(3) 0.796916(13)
Eu1C Eu 0.407386(10) 0.55954(3) 0.796916(13)
O2_2 O 0.11577(18) -0.2551(5) 0.7962(2)
O3B O -0.03981(16) 0.1210(5) 0.6739(2)
O4B O 0.00421(15) 0.2373(5) 0.56780(19)
O5C O 0.21289(19) -0.0635(6) 0.6932(2)
O6C O 0.16185(17) 0.1784(7) 0.5978(3)
loop_
_geom_bond_atom_site_label_1
_geom_bond_atom_site_label_2
_geom_bond_site_symmetry_1
_geom_bond_site_symmetry_2
Eu1 O1 1_555 1_555
C1 C2 1_555 1_555
C2 O1 1_555 1_555
C3 C1 1_555 1_555
H1 C3 1_555 1_555
H2 C3 1_555 1_555
C4 C3 1_555 1_555
C5 C1 1_555 1_555
H3 C5 1_555 1_555
H4 C5 1_555 1_555
C6 C5 1_555 1_555
O2 C2 1_555 1_555
O3 Eu1 1_555 1_555
O4 C4 1_555 1_555
O5 C6 1_555 1_555
O6 C6 1_555 1_555
O7 Eu1 1_555 1_555
H5 O7 1_555 1_555
O8 Eu1 1_555 1_555
H6 O8 1_555 1_555
H7 O8 1_555 1_555
Eu1_2 O2 1_555 1_555
Eu1B O3 1_555 1_555
Eu1C O5 1_555 1_555
O2_2 Eu1 1_555 1_555
O3B Eu1 1_555 1_555
O4B Eu1 1_555 1_555
O5C Eu1 1_555 1_555
O6C Eu1 1_555 1_555
C1 O7 1_555 1_555
C4 O3 1_555 1_555
O4 Eu1B 1_555 1_555
O6 Eu1C 1_555 1_555
Eu1B O3B 1_555 1_555

#END
