
#######################################################################
#
#                 Cambridge Crystallographic Data Centre
#                                CCDC 
#
#######################################################################
#
# If this CIF has been generated from an entry in the Cambridge 
# Structural Database, then it will include bibliographic, chemical, 
# crystal, experimental, refinement or atomic coordinate data resulting 
# from the CCDC's data processing and validation procedures.
#
#######################################################################

data_FIYYUJ
_symmetry_cell_setting           monoclinic
_symmetry_space_group_name_H-M   'P 21/c'
_symmetry_Int_Tables_number      14
_space_group_name_Hall           '-P 2ybc'
loop_
_symmetry_equiv_pos_site_id
_symmetry_equiv_pos_as_xyz
1 x,y,z
2 -x,1/2+y,1/2-z
3 -x,-y,-z
4 x,1/2-y,1/2+z
_cell_length_a                   17.6090(3)
_cell_length_b                   12.3369(2)
_cell_length_c                   17.6426(3)
_cell_angle_alpha                90
_cell_angle_beta                 99.8883(13)
_cell_angle_gamma                90
_cell_volume                     3775.75
loop_
_atom_site_label
_atom_site_type_symbol
_atom_site_fract_x
_atom_site_fract_y
_atom_site_fract_z
Hg1 Hg 0.448196(13) 0.967839(19) 0.181729(17)
Cl1 Cl 0.57231(9) 1.03787(13) 0.19601(13)
Hg2 Hg 0.400982(14) 0.601675(19) 0.466933(18)
Cl2 Cl 0.41069(10) 0.41688(13) 0.50068(12)
C1 C 0.3239(3) 1.1303(5) 0.2137(4)
C2 C 0.2697(3) 1.0667(5) 0.1537(4)
C3 C 0.2741(3) 0.9465(5) 0.1712(4)
C4 C 0.3444(3) 0.8893(5) 0.1815(4)
C5 C 0.3470(3) 0.7802(5) 0.2020(4)
C6 C 0.2815(3) 0.7276(5) 0.2149(4)
C7 C 0.2110(3) 0.7808(5) 0.2062(4)
C8 C 0.1415(3) 0.7237(5) 0.2288(4)
C9 C 0.1638(3) 0.6718(5) 0.3067(4)
C10 C 0.1699(4) 0.5596(6) 0.3168(5)
C11 C 0.1980(4) 0.5152(6) 0.3875(5)
C12 C 0.2250(4) 0.5829(5) 0.4501(4)
C13 C 0.2220(3) 0.6951(5) 0.4425(4)
C14 C 0.2642(3) 0.7678(5) 0.5061(4)
C15 C 0.3313(3) 0.8247(5) 0.4783(4)
C16 C 0.3900(3) 0.7685(5) 0.4515(4)
C17 C 0.4458(4) 0.8226(5) 0.4201(5)
C18 C 0.4431(3) 0.9347(6) 0.4125(4)
C19 C 0.3873(4) 0.9949(5) 0.4402(4)
C20 C 0.3835(4) 1.1167(5) 0.4306(5)
C21 C 0.3824(4) 1.1522(5) 0.3490(4)
C22 C 0.4406(4) 1.2132(5) 0.3272(4)
C23 C 0.4393(3) 1.2371(5) 0.2488(5)
C24 C 0.3830(4) 1.1943(5) 0.1920(4)
C25 C 0.2083(3) 0.8879(5) 0.1824(4)
C26 C 0.1863(3) 0.7375(5) 0.3713(4)
C27 C 0.3336(3) 0.9379(5) 0.4751(4)
C28 C 0.3214(3) 1.1175(5) 0.2910(4)
O1 O 0.1385(2) 0.9441(4) 0.1744(3)
C29 C 0.0881(3) 0.9266(6) 0.1019(5)
C30 C 0.0136(4) 0.9875(6) 0.1058(5)
C31 C 0.0231(5) 1.1086(7) 0.1060(7)
O2 O 0.1781(3) 0.8484(3) 0.3640(3)
C32 C 0.1177(5) 0.8939(7) 0.4011(7)
C33 C 0.0429(5) 0.9013(8) 0.3486(8)
C34 C -0.0177(6) 0.9524(11) 0.3918(9)
O3 O 0.2790(3) 0.9965(4) 0.5077(3)
C35 C 0.3089(5) 1.0238(6) 0.5857(5)
C36 C 0.2440(5) 1.0683(8) 0.6238(6)
C37 C 0.2062(6) 1.1637(8) 0.5862(7)
O4 O 0.2615(2) 1.0608(4) 0.3139(3)
C38 C 0.1907(5) 1.1202(7) 0.3025(7)
C39 C 0.1803(7) 1.1916(9) 0.3666(10)
C40 C 0.0989(6) 1.2434(9) 0.3500(10)
H1 H 0.217825 1.091636 0.152344
H2 H 0.28292 1.079329 0.103828
H3 H 0.394921 0.741442 0.207147
H4 H 0.284644 0.652854 0.23021
H5 H 0.101121 0.775521 0.230464
H6 H 0.123261 0.669074 0.191299
H7 H 0.154175 0.512631 0.273582
H8 H 0.19921 0.437922 0.39395
H9 H 0.245762 0.551351 0.499005
H10 H 0.229172 0.821001 0.519743
H11 H 0.283496 0.7246 0.550493
H12 H 0.486616 0.782501 0.403392
H13 H 0.480398 0.970883 0.38764
H14 H 0.338463 1.143787 0.448235
H15 H 0.426601 1.149274 0.463382
H16 H 0.481945 1.239546 0.365393
H17 H 0.478138 1.283769 0.234458
H18 H 0.384249 1.207971 0.138646
H19 H 0.07735 0.850584 0.095277
H20 H 0.111484 0.955687 0.060993
H21 H -0.025113 0.966487 0.063177
H22 H -0.005956 0.96554 0.150995
H23 H -0.026494 1.142528 0.102244
H24 H 0.055387 1.130739 0.15296
H25 H 0.046435 1.130016 0.063007
H26 H 0.132968 0.964637 0.420679
H27 H 0.112021 0.850483 0.444878
H28 H 0.026276 0.830062 0.33114
H29 H 0.048384 0.945742 0.305159
H30 H -0.066596 0.955825 0.358089
H31 H -0.022357 0.908855 0.435848
H32 H -0.001618 1.024245 0.408272
H33 H 0.348337 1.077761 0.587119
H34 H 0.330076 0.96016 0.612749
H35 H 0.206435 1.012481 0.625895
H36 H 0.263583 1.0845 0.676721
H37 H 0.188908 1.2093 0.623985
H38 H 0.241948 1.203119 0.561262
H39 H 0.162796 1.141818 0.54873
H40 H 0.148148 1.07067 0.292093
H41 H 0.186402 1.161998 0.256059
H42 H 0.218678 1.247682 0.372164
H43 H 0.18574 1.150116 0.413224
H44 H 0.09398 1.29533 0.389427
H45 H 0.091659 1.279101 0.300929
H46 H 0.060547 1.187938 0.349411
Cl1A Cl 0.42769(9) 0.53787(13) 0.30399(13)
Hg2A Hg 0.599018(14) 1.101675(19) 0.033067(18)
loop_
_geom_bond_atom_site_label_1
_geom_bond_atom_site_label_2
_geom_bond_site_symmetry_1
_geom_bond_site_symmetry_2
Hg1 Cl1 1_555 1_555
Cl1 Hg2A 1_555 1_555
Hg2 Cl2 1_555 1_555
C1 C2 1_555 1_555
C2 C3 1_555 1_555
C3 C4 1_555 1_555
C4 Hg1 1_555 1_555
C5 C4 1_555 1_555
C6 C5 1_555 1_555
C7 C6 1_555 1_555
C8 C7 1_555 1_555
C9 C8 1_555 1_555
C10 C9 1_555 1_555
C11 C10 1_555 1_555
C12 C11 1_555 1_555
C13 C12 1_555 1_555
C14 C13 1_555 1_555
C15 C14 1_555 1_555
C16 Hg2 1_555 1_555
C17 C16 1_555 1_555
C18 C17 1_555 1_555
C19 C18 1_555 1_555
C20 C19 1_555 1_555
C21 C20 1_555 1_555
C22 C21 1_555 1_555
C23 C22 1_555 1_555
C24 C1 1_555 1_555
C25 C3 1_555 1_555
C26 C9 1_555 1_555
C27 C15 1_555 1_555
C28 C1 1_555 1_555
O1 C25 1_555 1_555
C29 O1 1_555 1_555
C30 C29 1_555 1_555
C31 C30 1_555 1_555
O2 C26 1_555 1_555
C32 O2 1_555 1_555
C33 C32 1_555 1_555
C34 C33 1_555 1_555
O3 C27 1_555 1_555
C35 O3 1_555 1_555
C36 C35 1_555 1_555
C37 C36 1_555 1_555
O4 C28 1_555 1_555
C38 O4 1_555 1_555
C39 C38 1_555 1_555
C40 C39 1_555 1_555
H1 C2 1_555 1_555
H2 C2 1_555 1_555
H3 C5 1_555 1_555
H4 C6 1_555 1_555
H5 C8 1_555 1_555
H6 C8 1_555 1_555
H7 C10 1_555 1_555
H8 C11 1_555 1_555
H9 C12 1_555 1_555
H10 C14 1_555 1_555
H11 C14 1_555 1_555
H12 C17 1_555 1_555
H13 C18 1_555 1_555
H14 C20 1_555 1_555
H15 C20 1_555 1_555
H16 C22 1_555 1_555
H17 C23 1_555 1_555
H18 C24 1_555 1_555
H19 C29 1_555 1_555
H20 C29 1_555 1_555
H21 C30 1_555 1_555
H22 C30 1_555 1_555
H23 C31 1_555 1_555
H24 C31 1_555 1_555
H25 C31 1_555 1_555
H26 C32 1_555 1_555
H27 C32 1_555 1_555
H28 C33 1_555 1_555
H29 C33 1_555 1_555
H30 C34 1_555 1_555
H31 C34 1_555 1_555
H32 C34 1_555 1_555
H33 C35 1_555 1_555
H34 C35 1_555 1_555
H35 C36 1_555 1_555
H36 C36 1_555 1_555
H37 C37 1_555 1_555
H38 C37 1_555 1_555
H39 C37 1_555 1_555
H40 C38 1_555 1_555
H41 C38 1_555 1_555
H42 C39 1_555 1_555
H43 C39 1_555 1_555
H44 C40 1_555 1_555
H45 C40 1_555 1_555
H46 C40 1_555 1_555
Cl1A Hg2 1_555 1_555
C7 C25 1_555 1_555
C13 C26 1_555 1_555
C15 C16 1_555 1_555
C19 C27 1_555 1_555
C21 C28 1_555 1_555
C23 C24 1_555 1_555

#END
