
#######################################################################
#
#                 Cambridge Crystallographic Data Centre
#                                CCDC 
#
#######################################################################
#
# If this CIF has been generated from an entry in the Cambridge 
# Structural Database, then it will include bibliographic, chemical, 
# crystal, experimental, refinement or atomic coordinate data resulting 
# from the CCDC's data processing and validation procedures.
#
#######################################################################

data_FIYZIX
_symmetry_cell_setting           monoclinic
_symmetry_space_group_name_H-M   'P 2/n'
_symmetry_Int_Tables_number      13
_space_group_name_Hall           '-P 2yac'
loop_
_symmetry_equiv_pos_site_id
_symmetry_equiv_pos_as_xyz
1 x,y,z
2 1/2-x,y,1/2-z
3 -x,-y,-z
4 1/2+x,-y,1/2+z
_cell_length_a                   12.588(2)
_cell_length_b                   5.0727(5)
_cell_length_c                   28.600(4)
_cell_angle_alpha                90
_cell_angle_beta                 101.229(7)
_cell_angle_gamma                90
_cell_volume                     1791.3
loop_
_atom_site_label
_atom_site_type_symbol
_atom_site_fract_x
_atom_site_fract_y
_atom_site_fract_z
Ag1 Ag 0.35131(3) 0.14188(6) 0.29422(1)
S1 S 0.35165(7) -0.3358(2) 0.20653(3)
F1 F 0.4129(3) -0.4656(9) 0.1287(1)
F2 F 0.5384(3) -0.4809(9) 0.1901(2)
F3 F 0.4824(3) -0.1106(8) 0.1597(2)
O1 O 0.4070(3) -0.2061(5) 0.2489(1)
O2 O 0.2647(2) -0.1897(5) 0.1788(1)
O3 O 0.3290(2) -0.6094(5) 0.2133(1)
C1 C 0.9562(3) -0.9046(6) 0.4904(1)
C2 C 0.8698(4) -0.8614(9) 0.5123(2)
C3 C 0.7897(4) -0.6828(10) 0.4940(2)
C4 C 0.7913(3) -0.5381(7) 0.4537(1)
C5 C 0.8762(4) -0.5865(10) 0.4314(2)
C6 C 0.9567(4) -0.766(1) 0.4496(2)
C7 C 0.7057(3) -0.3469(8) 0.4360(2)
C8 C 0.6965(3) -0.1936(8) 0.3990(2)
C9 C 0.6115(3) 0.0040(7) 0.3828(1)
C10 C 0.6120(3) 0.1517(8) 0.3417(2)
C11 C 0.5352(4) 0.3478(8) 0.3293(2)
C12 C 0.4578(4) 0.3982(8) 0.3562(2)
C13 C 0.4534(4) 0.247(1) 0.3960(2)
C14 C 0.5318(4) 0.0546(9) 0.4086(2)
C15 C 0.6938(5) 0.106(1) 0.3101(2)
C16 C 0.3700(6) 0.295(2) 0.4254(3)
C17 C 0.4529(5) -0.347(1) 0.1690(2)
H1 H 0.8651 -0.9559 0.5405
H2 H 0.7310 -0.6594 0.5100
H3 H 0.8800 -0.4949 0.4028
H4 H 1.0142 -0.7933 0.4330
H5 H 0.6497 -0.3331 0.4538
H6 H 0.7507 -0.2110 0.3803
H7 H 0.5358 0.4502 0.3016
H8 H 0.4072 0.5371 0.3474
H9 H 0.5305 -0.0478 0.4363
H10 H 0.7408 -0.0341 0.3226
H11 H 0.6569 0.0618 0.2788
H12 H 0.7350 0.2621 0.3089
H13 H 0.4044 0.3434 0.4568
H14 H 0.3234 0.4337 0.4116
H15 H 0.3288 0.1393 0.4266
Ag1A Ag 0.14869(3) 0.14188(6) 0.20578(1)
Ag1_2 Ag 0.35131(3) -0.85812(6) 0.29422(1)
Ag1A_2 Ag 0.14869(3) -0.85812(6) 0.20578(1)
Ag1B Ag 1.64869(3) -2.14188(6) 0.70578(1)
S1A S 0.14835(7) -0.3358(2) 0.29347(3)
F1A F 0.0871(3) -0.4656(9) 0.3713(1)
F2A F -0.0384(3) -0.4809(9) 0.3099(2)
F3A F 0.0176(3) -0.1106(8) 0.3403(2)
O1A O 0.0930(3) -0.2061(5) 0.2511(1)
O2A O 0.2353(2) -0.1897(5) 0.3212(1)
O3A O 0.1710(2) -0.6094(5) 0.2867(1)
O3_2 O 0.3290(2) 0.3906(5) 0.2133(1)
O3A_2 O 0.1710(2) 0.3906(5) 0.2867(1)
C1B C 1.0438(3) -1.0954(6) 0.5096(1)
C2B C 1.1302(4) -1.1386(9) 0.4877(2)
C3B C 1.2103(4) -1.3172(10) 0.5060(2)
C4B C 1.2087(3) -1.4619(7) 0.5463(1)
C5B C 1.1238(4) -1.4135(10) 0.5686(2)
C6B C 1.0433(4) -1.234(1) 0.5504(2)
C7B C 1.2943(3) -1.6531(8) 0.5640(2)
C8B C 1.3035(3) -1.8064(8) 0.6010(2)
C9B C 1.3885(3) -2.0040(7) 0.6172(1)
C10B C 1.3880(3) -2.1517(8) 0.6583(2)
C11B C 1.4648(4) -2.3478(8) 0.6707(2)
C12B C 1.5422(4) -2.3982(8) 0.6438(2)
C12A C 0.0422(4) 0.3982(8) 0.1438(2)
C13B C 1.5466(4) -2.247(1) 0.6040(2)
C14B C 1.4682(4) -2.0546(9) 0.5914(2)
C15B C 1.3062(5) -2.106(1) 0.6899(2)
C16B C 1.6300(6) -2.295(2) 0.5746(3)
C17A C 0.0471(5) -0.347(1) 0.3310(2)
H1B H 1.1349 -1.0441 0.4595
H2B H 1.2690 -1.3406 0.4900
H3B H 1.1200 -1.5051 0.5972
H4B H 0.9858 -1.2067 0.5670
H5B H 1.3503 -1.6669 0.5462
H6B H 1.2493 -1.7890 0.6197
H7B H 1.4642 -2.4502 0.6984
H8B H 1.5928 -2.5371 0.6526
H8A H 0.0928 0.5371 0.1526
H9B H 1.4695 -1.9522 0.5637
H10B H 1.2592 -1.9659 0.6774
H11B H 1.3431 -2.0618 0.7212
H12B H 1.2650 -2.2621 0.6911
H13B H 1.5956 -2.3434 0.5432
H14B H 1.6766 -2.4337 0.5884
H15B H 1.6712 -2.1393 0.5734
loop_
_geom_bond_atom_site_label_1
_geom_bond_atom_site_label_2
_geom_bond_site_symmetry_1
_geom_bond_site_symmetry_2
Ag1 O1 1_555 1_555
S1 O1 1_555 1_555
F1 C17 1_555 1_555
F2 C17 1_555 1_555
F3 C17 1_555 1_555
O2 S1 1_555 1_555
O3 S1 1_555 1_555
C1 C2 1_555 1_555
C2 C3 1_555 1_555
C3 C4 1_555 1_555
C4 C5 1_555 1_555
C5 C6 1_555 1_555
C6 C1 1_555 1_555
C7 C4 1_555 1_555
C8 C7 1_555 1_555
C9 C8 1_555 1_555
C10 C9 1_555 1_555
C11 C10 1_555 1_555
C12 Ag1 1_555 1_555
C13 C12 1_555 1_555
C14 C9 1_555 1_555
C15 C10 1_555 1_555
C16 C13 1_555 1_555
C17 S1 1_555 1_555
H1 C2 1_555 1_555
H2 C3 1_555 1_555
H3 C5 1_555 1_555
H4 C6 1_555 1_555
H5 C7 1_555 1_555
H6 C8 1_555 1_555
H7 C11 1_555 1_555
H8 C12 1_555 1_555
H9 C14 1_555 1_555
H10 C15 1_555 1_555
H11 C15 1_555 1_555
H12 C15 1_555 1_555
H13 C16 1_555 1_555
H14 C16 1_555 1_555
H15 C16 1_555 1_555
Ag1A O2 1_555 1_555
Ag1_2 O3 1_555 1_555
Ag1A_2 O3 1_555 1_555
Ag1B C12B 1_555 1_555
S1A O1A 1_555 1_555
F1A C17A 1_555 1_555
F2A C17A 1_555 1_555
F3A C17A 1_555 1_555
O1A Ag1A 1_555 1_555
O2A Ag1 1_555 1_555
O3A Ag1_2 1_555 1_555
O3_2 Ag1 1_555 1_555
O3A_2 Ag1 1_555 1_555
C1B C1 1_555 1_555
C2B C1B 1_555 1_555
C3B C2B 1_555 1_555
C4B C3B 1_555 1_555
C5B C4B 1_555 1_555
C6B C1B 1_555 1_555
C7B C4B 1_555 1_555
C8B C7B 1_555 1_555
C9B C8B 1_555 1_555
C10B C9B 1_555 1_555
C11B C10B 1_555 1_555
C12B C11B 1_555 1_555
C12A Ag1A 1_555 1_555
C13B C12B 1_555 1_555
C14B C9B 1_555 1_555
C15B C10B 1_555 1_555
C16B C13B 1_555 1_555
C17A S1A 1_555 1_555
H1B C2B 1_555 1_555
H2B C3B 1_555 1_555
H3B C5B 1_555 1_555
H4B C6B 1_555 1_555
H5B C7B 1_555 1_555
H6B C8B 1_555 1_555
H7B C11B 1_555 1_555
H8B C12B 1_555 1_555
H8A C12A 1_555 1_555
H9B C14B 1_555 1_555
H10B C15B 1_555 1_555
H11B C15B 1_555 1_555
H12B C15B 1_555 1_555
H13B C16B 1_555 1_555
H14B C16B 1_555 1_555
H15B C16B 1_555 1_555
C11 C12 1_555 1_555
C13 C14 1_555 1_555
Ag1A O3_2 1_555 1_555
Ag1A O3A_2 1_555 1_555
Ag1A_2 O3A 1_555 1_555
S1A O2A 1_555 1_555
S1A O3A 1_555 1_555
C5B C6B 1_555 1_555
C13B C14B 1_555 1_555

#END
