
#######################################################################
#
#                 Cambridge Crystallographic Data Centre
#                                CCDC 
#
#######################################################################
#
# If this CIF has been generated from an entry in the Cambridge 
# Structural Database, then it will include bibliographic, chemical, 
# crystal, experimental, refinement or atomic coordinate data resulting 
# from the CCDC's data processing and validation procedures.
#
#######################################################################

data_FIZBEV01
_symmetry_cell_setting           monoclinic
_symmetry_space_group_name_H-M   'P 21/a'
_symmetry_Int_Tables_number      14
_space_group_name_Hall           '-P 2yab'
loop_
_symmetry_equiv_pos_site_id
_symmetry_equiv_pos_as_xyz
1 x,y,z
2 1/2+x,1/2-y,z
3 -x,-y,-z
4 1/2-x,1/2+y,-z
_cell_length_a                   10.1887(8)
_cell_length_b                   8.0008(11)
_cell_length_c                   11.6684(9)
_cell_angle_alpha                90
_cell_angle_beta                 98.31(1)
_cell_angle_gamma                90
_cell_volume                     941.195
loop_
_atom_site_label
_atom_site_type_symbol
_atom_site_fract_x
_atom_site_fract_y
_atom_site_fract_z
Cu1 Cu 0.55602(3) -0.43201(3) -0.22335(2)
O1 O 0.4108(2) -0.3148(2) -0.3173(1)
O2 O 0.2512(2) -0.1332(3) -0.2980(2)
O3 O 0.6512(2) -0.5389(2) -0.0847(1)
O4 O 0.7029(2) -0.5058(3) 0.1059(2)
N1 N 0.5641(2) -0.2283(2) -0.1234(2)
N2 N 0.0340(2) 0.1399(2) -0.3194(2)
C1 C 0.4383(3) -0.1362(3) -0.1520(2)
C2 C 0.3594(2) -0.1981(3) -0.2643(2)
C3 C 0.5996(3) -0.2787(3) -0.0013(2)
C4 C 0.6567(2) -0.4541(3) 0.0090(2)
C5 C -0.0616(3) 0.1525(3) -0.4108(2)
C6 C -0.0785(3) 0.2911(4) -0.4804(2)
C7 C 0.0066(2) 0.4254(3) -0.4614(2)
C8 C 0.1049(3) 0.4129(3) -0.3658(2)
C9 C 0.1154(3) 0.2706(3) -0.2985(2)
H1 H 0.624(3) -0.177(3) -0.136(2)
H2 H 0.382(3) -0.151(4) -0.090(3)
H3 H 0.453(3) -0.023(5) -0.158(3)
H4 H 0.519(3) -0.280(4) 0.036(3)
H5 H 0.660(3) -0.204(4) 0.036(2)
H6 H -0.120(3) 0.061(4) -0.424(3)
H7 H -0.140(3) 0.288(4) -0.534(3)
H8 H 0.161(3) 0.496(4) -0.348(2)
H9 H 0.178(3) 0.257(4) -0.245(3)
O2A O 0.7512(2) -0.3668(3) -0.2980(2)
Cu1A Cu 0.05602(3) -0.06799(3) -0.22335(2)
O1A O -0.0892(2) -0.1852(2) -0.3173(1)
C2A C -0.1406(2) -0.3019(3) -0.2643(2)
O2A_2 O -0.2488(2) -0.3668(3) -0.2980(2)
Cu1_2 Cu -0.44398(3) -0.43201(3) -0.22335(2)
C1A C -0.0617(3) -0.3638(3) -0.1520(2)
O3A O 0.1512(2) 0.0389(2) -0.0847(1)
N1A N 0.0641(2) -0.2717(2) -0.1234(2)
N2A N 0.5340(2) -0.6399(2) -0.3194(2)
C3A C 0.0996(3) -0.2213(3) -0.0013(2)
H1A H 0.124(3) -0.323(3) -0.136(2)
H2A H -0.118(3) -0.349(4) -0.090(3)
H3A H -0.047(3) -0.477(5) -0.158(3)
C4A C 0.1567(2) -0.0459(3) 0.0090(2)
H4A H 0.019(3) -0.220(4) 0.036(3)
H5A H 0.160(3) -0.296(4) 0.036(2)
O4A O 0.2029(2) 0.0058(3) 0.1059(2)
C7B C -0.0066(2) 0.5746(3) -0.5386(2)
C6B C 0.0785(3) 0.7089(4) -0.5196(2)
C8B C -0.1049(3) 0.5871(3) -0.6342(2)
C5B C 0.0616(3) 0.8475(3) -0.5892(2)
H7B H 0.140(3) 0.712(4) -0.466(3)
C9B C -0.1154(3) 0.7294(3) -0.7015(2)
H8B H -0.161(3) 0.504(4) -0.652(2)
N2B N -0.0340(2) 0.8601(2) -0.6806(2)
H6B H 0.120(3) 0.939(4) -0.576(3)
H9B H -0.178(3) 0.743(4) -0.755(3)
Cu1C Cu -0.05602(3) 1.06799(3) -0.77665(2)
loop_
_geom_bond_atom_site_label_1
_geom_bond_atom_site_label_2
_geom_bond_site_symmetry_1
_geom_bond_site_symmetry_2
Cu1 O1 1_555 1_555
O1 C2 1_555 1_555
O2 C2 1_555 1_555
O3 Cu1 1_555 1_555
O4 C4 1_555 1_555
N1 Cu1 1_555 1_555
N2 C5 1_555 1_555
C1 N1 1_555 1_555
C2 C1 1_555 1_555
C3 N1 1_555 1_555
C4 O3 1_555 1_555
C5 C6 1_555 1_555
C6 C7 1_555 1_555
C7 C8 1_555 1_555
C8 C9 1_555 1_555
C9 N2 1_555 1_555
H1 N1 1_555 1_555
H2 C1 1_555 1_555
H3 C1 1_555 1_555
H4 C3 1_555 1_555
H5 C3 1_555 1_555
H6 C5 1_555 1_555
H7 C6 1_555 1_555
H8 C8 1_555 1_555
H9 C9 1_555 1_555
O2A Cu1 1_555 1_555
Cu1A O2 1_555 1_555
O1A Cu1A 1_555 1_555
C2A O1A 1_555 1_555
O2A_2 C2A 1_555 1_555
Cu1_2 O2A_2 1_555 1_555
C1A C2A 1_555 1_555
O3A Cu1A 1_555 1_555
N1A Cu1A 1_555 1_555
N2A Cu1 1_555 1_555
C3A N1A 1_555 1_555
H1A N1A 1_555 1_555
H2A C1A 1_555 1_555
H3A C1A 1_555 1_555
C4A O3A 1_555 1_555
H4A C3A 1_555 1_555
H5A C3A 1_555 1_555
O4A C4A 1_555 1_555
C7B C7 1_555 1_555
C6B C7B 1_555 1_555
C8B C7B 1_555 1_555
C5B C6B 1_555 1_555
H7B C6B 1_555 1_555
C9B C8B 1_555 1_555
H8B C8B 1_555 1_555
N2B C5B 1_555 1_555
H6B C5B 1_555 1_555
H9B C9B 1_555 1_555
Cu1C N2B 1_555 1_555
N2 Cu1A 1_555 1_555
C3 C4 1_555 1_555
C1A N1A 1_555 1_555
C3A C4A 1_555 1_555
C9B N2B 1_555 1_555

#END
