
#######################################################################
#
#                 Cambridge Crystallographic Data Centre
#                                CCDC 
#
#######################################################################
#
# If this CIF has been generated from an entry in the Cambridge 
# Structural Database, then it will include bibliographic, chemical, 
# crystal, experimental, refinement or atomic coordinate data resulting 
# from the CCDC's data processing and validation procedures.
#
#######################################################################

data_FIZBEV
_symmetry_cell_setting           monoclinic
_symmetry_space_group_name_H-M   'P 21/c'
_symmetry_Int_Tables_number      14
_space_group_name_Hall           '-P 2ybc'
loop_
_symmetry_equiv_pos_site_id
_symmetry_equiv_pos_as_xyz
1 x,y,z
2 -x,1/2+y,1/2-z
3 -x,-y,-z
4 x,1/2-y,1/2+z
_cell_length_a                   11.650(1)
_cell_length_b                   7.994(1)
_cell_length_c                   10.158(1)
_cell_angle_alpha                90
_cell_angle_beta                 98.2(1)
_cell_angle_gamma                90
_cell_volume                     936.344
loop_
_atom_site_label
_atom_site_type_symbol
_atom_site_fract_x
_atom_site_fract_y
_atom_site_fract_z
Cu1 Cu 0.22351(8) 0.0678(1) 0.4446(1)
O1 O 0.3177(4) 0.1852(6) 0.5893(5)
O2 O 0.2977(5) 0.3672(8) 0.7485(6)
O3 O 0.0843(4) -0.0384(6) 0.3490(5)
O4 O -0.1056(5) -0.0054(8) 0.2983(6)
N1 N 0.1240(5) 0.2714(8) 0.4362(6)
N2 N 0.3196(5) -0.1394(8) 0.4659(6)
C1 C 0.1521(7) 0.362(1) 0.5615(8)
C2 C 0.0018(6) 0.222(1) 0.4005(8)
C3 C 0.2661(6) 0.301(1) 0.6407(7)
C4 C -0.0089(6) 0.047(1) 0.3436(7)
C5 C 0.4110(7) -0.154(1) 0.5618(8)
C6 C 0.4815(7) -0.292(1) 0.5805(9)
C7 C 0.4619(6) -0.425(1) 0.4944(7)
C8 C 0.3656(7) -0.412(1) 0.3936(8)
C9 C 0.2990(7) -0.270(1) 0.3839(9)
C7B C 0.5381(6) -0.575(1) 0.5056(7)
C6B C 0.5185(7) -0.708(1) 0.4195(9)
C5B C 0.5890(7) -0.846(1) 0.4382(8)
N2B N 0.6804(5) -0.8606(8) 0.5341(6)
C9B C 0.7010(7) -0.730(1) 0.6161(9)
C8B C 0.6344(7) -0.588(1) 0.6064(8)
O1C O 0.3177(4) 0.3148(6) 0.0893(5)
O2C O 0.2977(5) 0.1328(8) 0.2485(6)
O3C O 0.0843(4) 0.5384(6) -0.1510(5)
O4C O -0.1056(5) 0.5054(8) -0.2017(6)
N1C N 0.1240(5) 0.2286(8) -0.0638(6)
C1C C 0.1521(7) 0.138(1) 0.0615(8)
C2C C 0.0018(6) 0.278(1) -0.0995(8)
C3C C 0.2661(6) 0.199(1) 0.1407(7)
C4C C -0.0089(6) 0.453(1) -0.1564(7)
Cu1C Cu 0.22351(8) 0.4322(1) -0.0554(1)
Cu1C_2 Cu 0.22351(8) 0.4322(1) 0.9446(1)
Cu1B Cu 0.77649(8) -1.0678(1) 0.5554(1)
O2_2 O 0.2977(5) 0.3672(8) -0.2515(6)
N2C N 0.3196(5) 0.6394(8) -0.0341(6)
loop_
_geom_bond_atom_site_label_1
_geom_bond_atom_site_label_2
_geom_bond_site_symmetry_1
_geom_bond_site_symmetry_2
Cu1 O1 1_555 1_555
O1 C3 1_555 1_555
O2 C3 1_555 1_555
O3 Cu1 1_555 1_555
O4 C4 1_555 1_555
N1 Cu1 1_555 1_555
N2 Cu1 1_555 1_555
C1 N1 1_555 1_555
C2 N1 1_555 1_555
C3 C1 1_555 1_555
C4 O3 1_555 1_555
C5 N2 1_555 1_555
C6 C5 1_555 1_555
C7 C6 1_555 1_555
C8 C7 1_555 1_555
C9 N2 1_555 1_555
C7B C7 1_555 1_555
C6B C7B 1_555 1_555
C5B C6B 1_555 1_555
N2B C5B 1_555 1_555
C9B N2B 1_555 1_555
C8B C7B 1_555 1_555
O1C C3C 1_555 1_555
O2C Cu1 1_555 1_555
O3C C4C 1_555 1_555
O4C C4C 1_555 1_555
N1C C1C 1_555 1_555
C1C C3C 1_555 1_555
C2C N1C 1_555 1_555
C3C O2C 1_555 1_555
C4C C2C 1_555 1_555
Cu1C O1C 1_555 1_555
Cu1C_2 O2 1_555 1_555
Cu1B N2B 1_555 1_555
O2_2 Cu1C 1_555 1_555
N2C Cu1C 1_555 1_555
C2 C4 1_555 1_555
C8 C9 1_555 1_555
C9B C8B 1_555 1_555
O3C Cu1C 1_555 1_555
N1C Cu1C 1_555 1_555

#END
