
#######################################################################
#
#                 Cambridge Crystallographic Data Centre
#                                CCDC 
#
#######################################################################
#
# If this CIF has been generated from an entry in the Cambridge 
# Structural Database, then it will include bibliographic, chemical, 
# crystal, experimental, refinement or atomic coordinate data resulting 
# from the CCDC's data processing and validation procedures.
#
#######################################################################

data_FIZHOL
_symmetry_cell_setting           monoclinic
_symmetry_space_group_name_H-M   'P 21'
_symmetry_Int_Tables_number      4
_space_group_name_Hall           'P 2yb'
loop_
_symmetry_equiv_pos_site_id
_symmetry_equiv_pos_as_xyz
1 x,y,z
2 -x,1/2+y,-z
_cell_length_a                   4.955(1)
_cell_length_b                   12.948(3)
_cell_length_c                   7.241(1)
_cell_angle_alpha                90
_cell_angle_beta                 92.15(1)
_cell_angle_gamma                90
_cell_volume                     464.236
loop_
_atom_site_label
_atom_site_type_symbol
_atom_site_fract_x
_atom_site_fract_y
_atom_site_fract_z
Cu1 Cu 0.33380(9) 0.026 -0.19526(6)
S1 S 0.7724(2) -0.12464(8) -0.1429(1)
O1 O 0.4764(5) -0.1079(2) -0.1393(4)
O2 O 0.8298(6) -0.1958(3) -0.2915(5)
O3 O 0.8670(7) -0.1681(3) 0.0352(4)
O4 O 0.9038(6) -0.0236(2) -0.1673(5)
N1 N 0.7352(7) 0.1763(3) 0.2538(5)
C1 C 0.6336(9) 0.1452(3) 0.0881(6)
N2 N 0.4458(7) 0.0743(3) 0.0649(4)
C2 C 0.3645(7) 0.0345(4) 0.2270(4)
C3 C 0.4502(8) 0.0635(3) 0.4007(5)
C4 C 0.6483(8) 0.1421(3) 0.4246(6)
O5 O 0.7441(7) 0.1774(3) 0.5700(4)
N3 N 0.3202(7) 0.0069(3) 0.5311(4)
C5 C 0.1636(9) -0.0571(3) 0.4351(6)
N4 N 0.1847(8) -0.0442(3) 0.2514(5)
O6 O 0.2134(7) 0.1698(3) -0.2448(5)
H1 H 0.853(9) 0.208(4) 0.266(7)
H2 H 0.699(9) 0.175(4) -0.006(7)
H3 H 0.05(1) -0.114(5) 0.476(7)
H4 H 0.12(1) -0.068(4) 0.189(7)
H5 H 0.18(1) 0.212(4) -0.148(7)
H6 H 0.09(1) 0.163(4) -0.286(7)
O4_2 O -0.0962(6) -0.0236(2) -0.1673(5)
N3_2 N 0.3202(7) 0.0069(3) -0.4689(4)
Cu1_2 Cu 1.33380(9) 0.026 -0.19526(6)
Cu1_3 Cu 0.33380(9) 0.026 0.80474(6)
loop_
_geom_bond_atom_site_label_1
_geom_bond_atom_site_label_2
_geom_bond_site_symmetry_1
_geom_bond_site_symmetry_2
Cu1 O1 1_555 1_555
S1 O1 1_555 1_555
O2 S1 1_555 1_555
O3 S1 1_555 1_555
O4 S1 1_555 1_555
N1 C1 1_555 1_555
C1 N2 1_555 1_555
N2 Cu1 1_555 1_555
C2 N2 1_555 1_555
C3 C2 1_555 1_555
C4 N1 1_555 1_555
O5 C4 1_555 1_555
N3 C3 1_555 1_555
C5 N3 1_555 1_555
N4 C2 1_555 1_555
O6 Cu1 1_555 1_555
H1 N1 1_555 1_555
H2 C1 1_555 1_555
H3 C5 1_555 1_555
H4 N4 1_555 1_555
H5 O6 1_555 1_555
H6 O6 1_555 1_555
O4_2 Cu1 1_555 1_555
N3_2 Cu1 1_555 1_555
Cu1_2 O4 1_555 1_555
Cu1_3 N3 1_555 1_555
C3 C4 1_555 1_555
C5 N4 1_555 1_555

#END
