
#######################################################################
#
#                 Cambridge Crystallographic Data Centre
#                                CCDC 
#
#######################################################################
#
# If this CIF has been generated from an entry in the Cambridge 
# Structural Database, then it will include bibliographic, chemical, 
# crystal, experimental, refinement or atomic coordinate data resulting 
# from the CCDC's data processing and validation procedures.
#
#######################################################################

data_FIZTOY
_symmetry_cell_setting           monoclinic
_symmetry_space_group_name_H-M   'P 21/n'
_symmetry_Int_Tables_number      14
_space_group_name_Hall           '-P 2yn'
loop_
_symmetry_equiv_pos_site_id
_symmetry_equiv_pos_as_xyz
1 x,y,z
2 1/2-x,1/2+y,1/2-z
3 -x,-y,-z
4 1/2+x,1/2-y,1/2+z
_cell_length_a                   7.012(3)
_cell_length_b                   14.332(2)
_cell_length_c                   9.996(4)
_cell_angle_alpha                90
_cell_angle_beta                 93.26(4)
_cell_angle_gamma                90
_cell_volume                     1002.93
loop_
_atom_site_label
_atom_site_type_symbol
_atom_site_fract_x
_atom_site_fract_y
_atom_site_fract_z
Cd1 Cd 0.75770(4) 0.01934(2) 0.56583(3)
Cl1 Cl 0.9323(1) 0.07412(8) 0.3635(1)
Cl2 Cl 0.5545(1) -0.12357(7) 0.5103(1)
O1 O 0.7900(5) 0.1419(2) 0.7288(3)
O2 O 0.6286(5) 0.0170(2) 0.7821(3)
N1 N 0.4114(6) 0.1810(3) 1.1645(4)
C1 C 0.6735(6) 0.1013(3) 0.7999(4)
C2 C 0.5786(6) 0.1576(3) 0.9066(4)
C3 C 0.7013(6) 0.1576(3) 1.0379(4)
C4 C 0.6088(6) 0.2154(3) 1.1436(4)
C5 C 0.2873(6) 0.1794(4) 1.0371(5)
C6 C 0.3778(6) 0.1224(3) 0.9308(5)
Cd1B Cd 1.24230(4) -0.01934(2) 0.43417(3)
Cd1B_2 Cd 0.24230(4) -0.01934(2) 0.43417(3)
Cl1B Cl 1.0677(1) -0.07412(8) 0.6365(1)
Cl2B Cl 0.4455(1) 0.12357(7) 0.4897(1)
loop_
_geom_bond_atom_site_label_1
_geom_bond_atom_site_label_2
_geom_bond_site_symmetry_1
_geom_bond_site_symmetry_2
Cd1 Cl1 1_555 1_555
Cl1 Cd1B 1_555 1_555
Cl2 Cd1 1_555 1_555
O1 Cd1 1_555 1_555
O2 Cd1 1_555 1_555
N1 C4 1_555 1_555
C1 O1 1_555 1_555
C2 C1 1_555 1_555
C3 C2 1_555 1_555
C4 C3 1_555 1_555
C5 N1 1_555 1_555
C6 C2 1_555 1_555
Cd1B Cl1B 1_555 1_555
Cd1B_2 Cl2 1_555 1_555
Cl1B Cd1 1_555 1_555
Cl2B Cd1 1_555 1_555
O2 C1 1_555 1_555
C5 C6 1_555 1_555
Cd1B_2 Cl2B 1_555 1_555

#END
