
#######################################################################
#
#                 Cambridge Crystallographic Data Centre
#                                CCDC 
#
#######################################################################
#
# If this CIF has been generated from an entry in the Cambridge 
# Structural Database, then it will include bibliographic, chemical, 
# crystal, experimental, refinement or atomic coordinate data resulting 
# from the CCDC's data processing and validation procedures.
#
#######################################################################

data_FIZTAL
_symmetry_cell_setting           monoclinic
_symmetry_space_group_name_H-M   'C 2/c'
_symmetry_Int_Tables_number      15
_space_group_name_Hall           '-C 2yn'
loop_
_symmetry_equiv_pos_site_id
_symmetry_equiv_pos_as_xyz
1 x,y,z
2 -x,y,1/2-z
3 1/2+x,1/2+y,z
4 1/2-x,1/2+y,1/2-z
5 -x,-y,-z
6 x,-y,1/2+z
7 1/2-x,1/2-y,-z
8 1/2+x,1/2-y,1/2+z
_cell_length_a                   22.7901(7)
_cell_length_b                   13.2617(4)
_cell_length_c                   16.0147(5)
_cell_angle_alpha                90
_cell_angle_beta                 90.1331(11)
_cell_angle_gamma                90
_cell_volume                     4840.2
loop_
_atom_site_label
_atom_site_type_symbol
_atom_site_fract_x
_atom_site_fract_y
_atom_site_fract_z
I1 I 0.29413(2) 0.78625(2) 0.13737(2)
I2 I 0.21155(2) 0.70883(2) 0.36955(2)
I3 I 0.53447(2) 0.48766(2) 0.37526(2)
Cu1 Cu 0.21364(3) 0.83701(4) 0.24398(4)
Cu2 Cu 0.28997(3) 0.65637(4) 0.26059(4)
Cu3 Cu 0.43893(3) 0.49454(4) 0.28170(5)
S1 S 0.23250(5) 0.99877(6) 0.29790(7)
S2 S 0.38268(4) 0.63444(7) 0.31771(6)
S3 S 0.37944(4) 0.35549(7) 0.31404(6)
C1 C 0.3097(2) 1.0004(3) 0.3280(4)
H1 H 0.3325 0.9529 0.2932
H2 H 0.3263 1.0688 0.3215
C2 C 0.3109(2) 0.9683(4) 0.4187(4)
H3 H 0.3479 0.9898 0.4456
H4 H 0.3074 0.8941 0.4234
C3 C 0.2582(3) 1.0201(4) 0.4600(3)
H5 H 0.2519 0.9926 0.5168
H6 H 0.2653 1.0936 0.4647
C4 C 0.2054(2) 1.0004(3) 0.4061(3)
H7 H 0.1757 1.0542 0.4135
H8 H 0.1873 0.9348 0.4206
C5 C 0.3829(2) 0.6442(4) 0.4321(3)
H9 H 0.3422 0.6469 0.4534
H10 H 0.4028 0.5850 0.4570
C6 C 0.4155(3) 0.7401(4) 0.4547(4)
H11 H 0.3872 0.7959 0.4631
H12 H 0.4377 0.7302 0.5072
C7 C 0.4567(3) 0.7658(4) 0.3852(4)
H13 H 0.4919 0.7221 0.3882
H14 H 0.4695 0.8369 0.3902
C8 C 0.4254(2) 0.7499(4) 0.3031(4)
H15 H 0.4538 0.7418 0.2570
H16 H 0.3993 0.8076 0.2903
C9 C 0.4217(2) 0.2412(3) 0.2908(3)
H17 H 0.3959 0.1877 0.2683
H18 H 0.4529 0.2556 0.2496
C10 C 0.4483(2) 0.2090(4) 0.3741(3)
H19 H 0.4588 0.1366 0.3726
H20 H 0.4842 0.2486 0.3860
C11 C 0.4021(2) 0.2282(4) 0.4407(3)
H21 H 0.4195 0.2212 0.4971
H22 H 0.3695 0.1792 0.4352
C12 C 0.3795(2) 0.3353(3) 0.4277(3)
H23 H 0.4055 0.3847 0.4558
H24 H 0.3394 0.3426 0.4505
I3A I 0.46553(2) 0.48766(2) 0.12474(2)
Cu1C Cu 0.28636(3) 0.33701(4) 0.25602(4)
Cu2C Cu 0.21003(3) 1.15637(4) 0.23941(4)
Cu3A Cu 0.56107(3) 0.49454(4) 0.21830(5)
S1C S 0.26750(5) 0.49877(6) 0.20210(7)
S3C S 0.12056(4) 0.85549(7) 0.18596(6)
N1 N 0.4677(5) -0.0073(7) 0.5028(9)
C13 C 0.4443(5) -0.0041(6) 0.5658(8)
C14 C 0.4150(8) 0.0004(10) 0.6430(13)
H25 H 0.3886 0.0587 0.6435
H26 H 0.4438 0.0069 0.6882
H27 H 0.3921 -0.0615 0.6509
N2? N 0.4619(5) 0.0130(7) 0.7423(9)
C15? C 0.4389(7) 0.0042(6) 0.6812(11)
C16? C 0.4097(7) -0.0066(9) 0.6018(11)
H28? H 0.4213 -0.0705 0.5760
H29? H 0.4207 0.0494 0.5652
H30? H 0.3671 -0.0060 0.6103
loop_
_geom_bond_atom_site_label_1
_geom_bond_atom_site_label_2
_geom_bond_site_symmetry_1
_geom_bond_site_symmetry_2
I1 Cu1 1_555 1_555
I2 Cu1 1_555 1_555
I3 Cu3 1_555 1_555
Cu1 S1 1_555 1_555
Cu2 I1 1_555 1_555
Cu3 S2 1_555 1_555
S1 C1 1_555 1_555
S2 Cu2 1_555 1_555
S3 Cu3 1_555 1_555
C1 H1 1_555 1_555
H2 C1 1_555 1_555
C2 C1 1_555 1_555
H3 C2 1_555 1_555
H4 C2 1_555 1_555
C3 C2 1_555 1_555
H5 C3 1_555 1_555
H6 C3 1_555 1_555
C4 S1 1_555 1_555
H7 C4 1_555 1_555
H8 C4 1_555 1_555
C5 S2 1_555 1_555
H9 C5 1_555 1_555
H10 C5 1_555 1_555
C6 C5 1_555 1_555
H11 C6 1_555 1_555
H12 C6 1_555 1_555
C7 C6 1_555 1_555
H13 C7 1_555 1_555
H14 C7 1_555 1_555
C8 S2 1_555 1_555
H15 C8 1_555 1_555
H16 C8 1_555 1_555
C9 S3 1_555 1_555
H17 C9 1_555 1_555
H18 C9 1_555 1_555
C10 C9 1_555 1_555
H19 C10 1_555 1_555
H20 C10 1_555 1_555
C11 C10 1_555 1_555
H21 C11 1_555 1_555
H22 C11 1_555 1_555
C12 S3 1_555 1_555
H23 C12 1_555 1_555
H24 C12 1_555 1_555
N1 C13 1_555 1_555
C13 C14 1_555 1_555
C14 H25 1_555 1_555
H26 C14 1_555 1_555
H27 C14 1_555 1_555
I3A Cu3 1_555 1_555
Cu1C S3 1_555 1_555
Cu2C S1 1_555 1_555
Cu3A I3 1_555 1_555
S1C Cu2 1_555 1_555
S3C Cu1 1_555 1_555
I2 Cu2 1_555 1_555
C3 C4 1_555 1_555
C7 C8 1_555 1_555
C11 C12 1_555 1_555
I3A Cu3A 1_555 1_555
Cu1C S1C 1_555 1_555

#END
