
#######################################################################
#
#                 Cambridge Crystallographic Data Centre
#                                CCDC 
#
#######################################################################
#
# If this CIF has been generated from an entry in the Cambridge 
# Structural Database, then it will include bibliographic, chemical, 
# crystal, experimental, refinement or atomic coordinate data resulting 
# from the CCDC's data processing and validation procedures.
#
#######################################################################

data_FIZVIV
_symmetry_cell_setting           monoclinic
_symmetry_space_group_name_H-M   'P 21/c'
_symmetry_Int_Tables_number      14
_space_group_name_Hall           '-P 2ybc'
loop_
_symmetry_equiv_pos_site_id
_symmetry_equiv_pos_as_xyz
1 x,y,z
2 -x,1/2+y,1/2-z
3 -x,-y,-z
4 x,1/2-y,1/2+z
_cell_length_a                   11.7276(2)
_cell_length_b                   15.6930(3)
_cell_length_c                   15.2043(3)
_cell_angle_alpha                90
_cell_angle_beta                 105.3080(10)
_cell_angle_gamma                90
_cell_volume                     2698.94
loop_
_atom_site_label
_atom_site_type_symbol
_atom_site_fract_x
_atom_site_fract_y
_atom_site_fract_z
Er1 Er 0.809703(13) 0.016302(9) 0.462841(10)
O1 O 0.6735(2) 0.02817(15) 0.55612(17)
H1 H 0.6191(13) -0.0110(4) 0.543(2)
H2 H 0.6364(16) 0.0734(4) 0.546(2)
O2 O 0.6692(2) -0.09048(17) 0.41573(18)
C1 C 0.5255(3) -0.1934(2) 0.3593(2)
O3 O 0.5481(2) -0.12197(15) 0.50055(17)
C2 C 0.4239(3) -0.1709(2) 0.2952(3)
H3 H 0.3924 -0.1167 0.2963
O4 O 0.3012(2) -0.34877(15) 0.07511(16)
C3 C 0.3673(3) -0.2293(2) 0.2280(3)
H4 H 0.3006 -0.2122 0.1833
O5 O 0.3147(2) -0.44396(17) 0.18268(17)
C4 C 0.4082(3) -0.3107(2) 0.2267(2)
O6 O 1.0859(2) -0.10058(17) 0.42072(19)
C5 C 0.5134(3) -0.3367(2) 0.2925(2)
O7 O 0.8943(2) -0.07922(16) 0.38540(18)
C6 C 0.5618(4) -0.4199(3) 0.2952(3)
H5 H 0.5253 -0.4596 0.2514
O8 O 0.8777(3) -0.41875(17) 0.07556(19)
C7 C 0.6602(4) -0.4426(3) 0.3604(3)
H6 H 0.6883 -0.4982 0.3619
O9 O 1.0688(2) -0.40196(18) 0.0992(2)
C8 C 0.7208(4) -0.3832(3) 0.4261(3)
H7 H 0.7885 -0.3991 0.4704
C9 C 0.6785(3) -0.3030(2) 0.4233(3)
H8 H 0.7202 -0.2633 0.4650
C10 C 0.5736(3) -0.2768(2) 0.3596(2)
C11 C 0.5863(3) -0.1302(2) 0.4310(3)
C12 C 0.3372(3) -0.3714(2) 0.1573(3)
C13 C 0.9699(3) -0.1809(2) 0.3013(2)
C14 C 0.9304(3) -0.2594(2) 0.3142(2)
H9 H 0.9052 -0.2707 0.3661
C15 C 0.9271(3) -0.3248(2) 0.2495(2)
H10 H 0.8968 -0.3781 0.2579
C16 C 0.9684(3) -0.3100(2) 0.1745(2)
C17 C 1.0067(3) -0.2266(2) 0.1567(2)
C18 C 1.0399(3) -0.2060(2) 0.0773(2)
H11 H 1.0430 -0.2487 0.0355
C19 C 1.0677(4) -0.1246(2) 0.0603(3)
H12 H 1.0886 -0.1121 0.0069
C20 C 1.0651(4) -0.0599(3) 0.1223(3)
H13 H 1.0828 -0.0043 0.1095
C21 C 1.0365(3) -0.0778(2) 0.2017(3)
H14 H 1.0375 -0.0344 0.2435
C22 C 1.0056(3) -0.1611(2) 0.2213(2)
C23 C 0.9834(3) -0.1137(2) 0.3755(2)
C24 C 0.9724(3) -0.3828(2) 0.1107(2)
Er1A Er 0.190297(13) -0.483698(9) 0.037159(10)
Er1A_2 Er 1.190297(13) -0.483698(9) 0.037159(10)
Er1B Er 1.190297(13) -0.016302(9) 0.537159(10)
Er1C Er 0.809703(13) -0.516302(9) -0.037159(10)
O4A O 0.6988(2) 0.15123(15) 0.42489(16)
O5A O 0.6853(2) 0.05604(17) 0.31732(17)
O6B O 0.9141(2) 0.10058(17) 0.57928(19)
O8C O 0.8777(3) -0.08125(17) 0.57556(19)
O9A O 0.9312(2) 0.09804(18) 0.4008(2)
N1 N 0.6773(3) 0.20915(19) 0.0286(2)
H15 H 0.6729 0.2564 -0.0007
N2 N 0.6326(3) 0.08104(19) 0.0671(2)
N3 N 0.4379(3) 0.22265(19) -0.0976(2)
H16 H 0.4622 0.2730 -0.0794
N4 N 0.4289(3) 0.0853(2) -0.1075(2)
H17 H 0.4450 0.0321 -0.0975
C25 C 0.7658(4) 0.1855(3) 0.1018(3)
H18 H 0.8323 0.2173 0.1301
C26 C 0.7383(4) 0.1071(3) 0.1252(3)
H19 H 0.7837 0.0751 0.1734
C27 C 0.5976(3) 0.1454(2) 0.0101(3)
C28 C 0.4891(3) 0.1496(2) -0.0634(2)
C29 C 0.3412(4) 0.2037(3) -0.1661(3)
H20 H 0.2888 0.2425 -0.2017
C30 C 0.3352(4) 0.1186(3) -0.1727(3)
H21 H 0.2778 0.0875 -0.2142
loop_
_geom_bond_atom_site_label_1
_geom_bond_atom_site_label_2
_geom_bond_site_symmetry_1
_geom_bond_site_symmetry_2
Er1 O1 1_555 1_555
O1 H1 1_555 1_555
H2 O1 1_555 1_555
O2 Er1 1_555 1_555
C1 C2 1_555 1_555
O3 C11 1_555 1_555
C2 H3 1_555 1_555
O4 C12 1_555 1_555
C3 C2 1_555 1_555
H4 C3 1_555 1_555
O5 C12 1_555 1_555
C4 C3 1_555 1_555
O6 C23 1_555 1_555
C5 C4 1_555 1_555
O7 Er1 1_555 1_555
C6 C5 1_555 1_555
H5 C6 1_555 1_555
O8 C24 1_555 1_555
C7 C6 1_555 1_555
H6 C7 1_555 1_555
O9 C24 1_555 1_555
C8 C7 1_555 1_555
H7 C8 1_555 1_555
C9 C8 1_555 1_555
H8 C9 1_555 1_555
C10 C1 1_555 1_555
C11 O2 1_555 1_555
C12 C4 1_555 1_555
C13 C14 1_555 1_555
C14 H9 1_555 1_555
C15 C14 1_555 1_555
H10 C15 1_555 1_555
C16 C15 1_555 1_555
C17 C16 1_555 1_555
C18 C17 1_555 1_555
H11 C18 1_555 1_555
C19 C18 1_555 1_555
H12 C19 1_555 1_555
C20 C19 1_555 1_555
H13 C20 1_555 1_555
C21 C20 1_555 1_555
H14 C21 1_555 1_555
C22 C13 1_555 1_555
C23 O7 1_555 1_555
C24 C16 1_555 1_555
N1 H15 1_555 1_555
N2 C26 1_555 1_555
N3 H16 1_555 1_555
N4 H17 1_555 1_555
C25 N1 1_555 1_555
H18 C25 1_555 1_555
C26 C25 1_555 1_555
H19 C26 1_555 1_555
C27 N1 1_555 1_555
C28 N3 1_555 1_555
C29 N3 1_555 1_555
H20 C29 1_555 1_555
C30 N4 1_555 1_555
H21 C30 1_555 1_555
Er1A O4 1_555 1_555
Er1A_2 O9 1_555 1_555
Er1B O6 1_555 1_555
Er1C O8 1_555 1_555
O4A Er1 1_555 1_555
O5A Er1 1_555 1_555
O6B Er1 1_555 1_555
O8C Er1 1_555 1_555
O9A Er1 1_555 1_555
C1 C11 1_555 1_555
O5 Er1A 1_555 1_555
C5 C10 1_555 1_555
C9 C10 1_555 1_555
C13 C23 1_555 1_555
C17 C22 1_555 1_555
C21 C22 1_555 1_555
N2 C27 1_555 1_555
N4 C28 1_555 1_555
C27 C28 1_555 1_555
C29 C30 1_555 1_555

#END
