
#######################################################################
#
#                 Cambridge Crystallographic Data Centre
#                                CCDC 
#
#######################################################################
#
# If this CIF has been generated from an entry in the Cambridge 
# Structural Database, then it will include bibliographic, chemical, 
# crystal, experimental, refinement or atomic coordinate data resulting 
# from the CCDC's data processing and validation procedures.
#
#######################################################################

data_FIZVUH
_symmetry_cell_setting           monoclinic
_symmetry_space_group_name_H-M   'P 21/n'
_symmetry_Int_Tables_number      14
_space_group_name_Hall           '-P 2yn'
loop_
_symmetry_equiv_pos_site_id
_symmetry_equiv_pos_as_xyz
1 x,y,z
2 1/2-x,1/2+y,1/2-z
3 -x,-y,-z
4 1/2+x,1/2-y,1/2+z
_cell_length_a                   12.1335(11)
_cell_length_b                   7.9711(7)
_cell_length_c                   20.3084(19)
_cell_angle_alpha                90
_cell_angle_beta                 97.4430(10)
_cell_angle_gamma                90
_cell_volume                     1947.62
loop_
_atom_site_label
_atom_site_type_symbol
_atom_site_fract_x
_atom_site_fract_y
_atom_site_fract_z
Zn1 Zn 0.28573(2) 0.33737(4) 0.027763(13)
Cl1 Cl 0.19603(6) 0.58663(10) 0.01663(4)
N1 N -0.17021(17) -0.1720(3) 0.01878(11)
N2 N 0.00427(16) 0.0654(3) 0.23055(10)
N3 N -0.11015(17) 0.1436(3) 0.45541(10)
O1 O 0.40878(19) 0.1162(3) 0.07775(10)
O2 O 0.31309(16) 0.2992(2) 0.12513(9)
C1 C -0.0622(2) -0.2118(4) 0.02643(13)
H1 H -0.0379 -0.2903 -0.0023
C2 C 0.0144(2) -0.1434(4) 0.07430(13)
H2 H 0.0888 -0.1738 0.0769
C3 C -0.01919(19) -0.0289(3) 0.11867(12)
C4 C -0.1296(2) 0.0214(4) 0.10809(14)
H3 H -0.1552 0.1038 0.1348
C5 C -0.2007(2) -0.0510(4) 0.05803(15)
H4 H -0.2739 -0.0138 0.0511
C6 C 0.05585(19) 0.0287(3) 0.17783(12)
C7 C 0.17061(19) 0.0332(3) 0.18000(11)
H5 H 0.2033 0.0038 0.1427
C8 C 0.23681(19) 0.0817(3) 0.23821(11)
C9 C 0.1821(2) 0.1230(3) 0.29195(12)
H6 H 0.2225 0.1598 0.3313
C10 C 0.0673(2) 0.1095(3) 0.28710(12)
C11 C -0.0161(2) 0.2273(4) 0.45354(12)
H7 H 0.0106 0.2930 0.4900
C12 C 0.0442(2) 0.2222(4) 0.40048(12)
H8 H 0.1097 0.2834 0.4018
C13 C 0.00729(19) 0.1268(3) 0.34577(12)
C14 C -0.0902(2) 0.0373(4) 0.34800(14)
H9 H -0.1186 -0.0294 0.3122
C15 C -0.1447(2) 0.0471(5) 0.40274(15)
H10 H -0.2089 -0.0163 0.4034
C16 C 0.36039(19) 0.0726(3) 0.24603(12)
C17 C 0.4145(2) 0.0139(4) 0.30633(12)
H11 H 0.3726 -0.0131 0.3401
C18 C 0.5284(2) -0.0054(4) 0.31749(15)
H12 H 0.5629 -0.0413 0.3587
C19 C 0.5905(2) 0.0292(5) 0.26696(16)
H13 H 0.6672 0.0158 0.2738
C20 C 0.5391(2) 0.0834(4) 0.20650(15)
H14 H 0.5816 0.1032 0.1723
C21 C 0.4251(2) 0.1092(3) 0.19523(12)
C22 C 0.3788(2) 0.1777(4) 0.12819(12)
Zn1B Zn -0.28573(2) -0.33737(4) -0.027763(13)
Zn1C Zn -0.21427(2) 0.16263(4) 0.527763(13)
N1B N 0.17021(17) 0.1720(3) -0.01878(11)
N3C N 0.38985(17) 0.3564(3) -0.04459(10)
loop_
_geom_bond_atom_site_label_1
_geom_bond_atom_site_label_2
_geom_bond_site_symmetry_1
_geom_bond_site_symmetry_2
Zn1 Cl1 1_555 1_555
N1 C1 1_555 1_555
N2 C6 1_555 1_555
N3 C11 1_555 1_555
O1 Zn1 1_555 1_555
O2 Zn1 1_555 1_555
C1 H1 1_555 1_555
C2 C1 1_555 1_555
H2 C2 1_555 1_555
C3 C2 1_555 1_555
C4 C3 1_555 1_555
H3 C4 1_555 1_555
C5 N1 1_555 1_555
H4 C5 1_555 1_555
C6 C3 1_555 1_555
C7 C6 1_555 1_555
H5 C7 1_555 1_555
C8 C7 1_555 1_555
C9 C8 1_555 1_555
H6 C9 1_555 1_555
C10 N2 1_555 1_555
C11 H7 1_555 1_555
C12 C11 1_555 1_555
H8 C12 1_555 1_555
C13 C10 1_555 1_555
C14 C13 1_555 1_555
H9 C14 1_555 1_555
C15 N3 1_555 1_555
H10 C15 1_555 1_555
C16 C8 1_555 1_555
C17 C16 1_555 1_555
H11 C17 1_555 1_555
C18 C17 1_555 1_555
H12 C18 1_555 1_555
C19 C18 1_555 1_555
H13 C19 1_555 1_555
C20 C19 1_555 1_555
H14 C20 1_555 1_555
C21 C16 1_555 1_555
C22 O1 1_555 1_555
Zn1B N1 1_555 1_555
Zn1C N3 1_555 1_555
N1B Zn1 1_555 1_555
N3C Zn1 1_555 1_555
O2 C22 1_555 1_555
C4 C5 1_555 1_555
C9 C10 1_555 1_555
C12 C13 1_555 1_555
C14 C15 1_555 1_555
C20 C21 1_555 1_555
C21 C22 1_555 1_555

#END
