
#######################################################################
#
#                 Cambridge Crystallographic Data Centre
#                                CCDC 
#
#######################################################################
#
# If this CIF has been generated from an entry in the Cambridge 
# Structural Database, then it will include bibliographic, chemical, 
# crystal, experimental, refinement or atomic coordinate data resulting 
# from the CCDC's data processing and validation procedures.
#
#######################################################################

data_FIZVER
_symmetry_cell_setting           monoclinic
_symmetry_space_group_name_H-M   'P 21/c'
_symmetry_Int_Tables_number      14
_space_group_name_Hall           '-P 2ybc'
loop_
_symmetry_equiv_pos_site_id
_symmetry_equiv_pos_as_xyz
1 x,y,z
2 -x,1/2+y,1/2-z
3 -x,-y,-z
4 x,1/2-y,1/2+z
_cell_length_a                   11.74390(10)
_cell_length_b                   15.7292(2)
_cell_length_c                   15.2552(2)
_cell_angle_alpha                90
_cell_angle_beta                 105.1690(10)
_cell_angle_gamma                90
_cell_volume                     2719.79
loop_
_atom_site_label
_atom_site_type_symbol
_atom_site_fract_x
_atom_site_fract_y
_atom_site_fract_z
Dy1 Dy 0.809474(10) 0.516293(8) 0.962919(7)
O1 O 0.6700(2) 0.52824(14) 1.05516(15)
H1 H 0.6325(14) 0.4875(8) 1.0676(17)
H2 H 0.694(2) 0.5594(9) 1.0947(13)
C1 C 0.5258(2) 0.30624(19) 0.85915(17)
O2 O 0.6683(2) 0.40911(16) 0.91548(15)
O3 O 0.54800(19) 0.37735(14) 1.00015(13)
C2 C 0.4251(3) 0.3288(2) 0.7951(2)
H3 H 0.3943 0.3832 0.7959
C3 C 0.3678(3) 0.2705(2) 0.72824(19)
H4 H 0.3005 0.2873 0.6844
O4 O 0.30231(18) 0.15162(13) 0.57602(13)
O5 O 0.3140(2) 0.05686(15) 0.68321(14)
C4 C 0.4093(3) 0.1895(2) 0.72663(18)
O6 O 1.0865(2) 0.39902(16) 0.91980(16)
C5 C 0.5130(3) 0.16348(19) 0.79228(19)
O7 O 0.8947(2) 0.41986(15) 0.88523(16)
C6 C 0.5611(3) 0.0801(2) 0.7951(2)
H5 H 0.5245 0.0401 0.7520
O8 O 1.0663(2) 0.09834(16) 0.59862(18)
C7 C 0.6596(3) 0.0585(2) 0.8600(3)
H6 H 0.6881 0.0032 0.8620
O9 O 0.8761(2) 0.08124(16) 0.57628(17)
C8 C 0.7193(3) 0.1172(2) 0.9238(2)
H7 H 0.7875 0.1012 0.9671
C9 C 0.6782(3) 0.1980(2) 0.9229(2)
H8 H 0.7195 0.2372 0.9650
C10 C 0.5733(2) 0.2232(2) 0.85890(18)
C11 C 0.5854(2) 0.36923(19) 0.93050(18)
C12 C 0.3380(3) 0.1291(2) 0.65841(19)
C13 C 0.9706(2) 0.31896(17) 0.80114(16)
C14 C 0.9307(2) 0.24005(17) 0.81399(17)
H9 H 0.9050 0.2286 0.8655
C15 C 0.9282(2) 0.17568(18) 0.74965(17)
H10 H 0.8993 0.1222 0.7586
C16 C 0.9674(2) 0.19015(17) 0.67440(17)
C17 C 1.0057(2) 0.27257(18) 0.65722(17)
C18 C 1.0396(3) 0.2934(2) 0.57669(19)
H11 H 1.0432 0.2509 0.5351
C19 C 1.0666(3) 0.3750(2) 0.5601(2)
H12 H 1.0859 0.3877 0.5062
C20 C 1.0658(3) 0.4400(2) 0.6228(2)
H13 H 1.0846 0.4954 0.6104
C21 C 1.0375(3) 0.4219(2) 0.7021(2)
H14 H 1.0392 0.4649 0.7442
C22 C 1.0058(2) 0.33853(17) 0.72085(17)
C23 C 0.9840(2) 0.38557(18) 0.87505(17)
C24 C 0.9712(3) 0.11754(18) 0.61122(18)
Dy1A Dy 0.190526(10) 0.016293(8) 0.537081(7)
Dy1A_2 Dy 1.190526(10) 0.016293(8) 0.537081(7)
Dy1B Dy 1.190526(10) 0.483707(8) 1.037081(7)
Dy1C Dy 0.809474(10) -0.016293(8) 0.462919(7)
O4A O 0.69769(18) 0.65162(13) 0.92398(13)
O5A O 0.6860(2) 0.55686(15) 0.81679(14)
O6B O 0.9135(2) 0.60098(16) 1.08020(16)
O8A O 0.9337(2) 0.59834(16) 0.90138(18)
O9C O 0.8761(2) 0.41876(16) 1.07628(17)
N1 N 0.4282(2) 0.58470(18) 0.39303(17)
H15 H 0.4442 0.5317 0.4035
N2 N 0.4371(2) 0.72274(16) 0.40226(16)
H16 H 0.4608 0.7731 0.4200
N3 N 0.6325(2) 0.58264(17) 0.56705(17)
N4 N 0.6758(2) 0.70906(19) 0.52723(16)
H17 H 0.6714 0.7561 0.4978
C25 C 0.3412(3) 0.7027(2) 0.3345(2)
H18 H 0.2888 0.7411 0.2988
C26 C 0.3350(3) 0.6174(3) 0.3277(2)
H19 H 0.2780 0.5863 0.2863
C27 C 0.4887(3) 0.64954(19) 0.43686(19)
C28 C 0.5968(3) 0.64588(19) 0.50893(19)
C29 C 0.7644(3) 0.6861(2) 0.6002(2)
H20 H 0.8304 0.7183 0.6280
C30 C 0.7377(3) 0.6073(2) 0.6247(2)
H21 H 0.7830 0.5753 0.6725
loop_
_geom_bond_atom_site_label_1
_geom_bond_atom_site_label_2
_geom_bond_site_symmetry_1
_geom_bond_site_symmetry_2
Dy1 O1 1_555 1_555
O1 H1 1_555 1_555
H2 O1 1_555 1_555
C1 C2 1_555 1_555
O2 Dy1 1_555 1_555
O3 C11 1_555 1_555
C2 H3 1_555 1_555
C3 C2 1_555 1_555
H4 C3 1_555 1_555
O4 C12 1_555 1_555
O5 C12 1_555 1_555
C4 C3 1_555 1_555
O6 C23 1_555 1_555
C5 C4 1_555 1_555
O7 Dy1 1_555 1_555
C6 C5 1_555 1_555
H5 C6 1_555 1_555
O8 C24 1_555 1_555
C7 C6 1_555 1_555
H6 C7 1_555 1_555
O9 C24 1_555 1_555
C8 C7 1_555 1_555
H7 C8 1_555 1_555
C9 C8 1_555 1_555
H8 C9 1_555 1_555
C10 C1 1_555 1_555
C11 C1 1_555 1_555
C12 C4 1_555 1_555
C13 C14 1_555 1_555
C14 H9 1_555 1_555
C15 C14 1_555 1_555
H10 C15 1_555 1_555
C16 C15 1_555 1_555
C17 C16 1_555 1_555
C18 C17 1_555 1_555
H11 C18 1_555 1_555
C19 C18 1_555 1_555
H12 C19 1_555 1_555
C20 C19 1_555 1_555
H13 C20 1_555 1_555
C21 C20 1_555 1_555
H14 C21 1_555 1_555
C22 C13 1_555 1_555
C23 O7 1_555 1_555
C24 C16 1_555 1_555
N1 H15 1_555 1_555
N2 H16 1_555 1_555
N3 C28 1_555 1_555
N4 H17 1_555 1_555
C25 N2 1_555 1_555
H18 C25 1_555 1_555
C26 N1 1_555 1_555
H19 C26 1_555 1_555
C27 N1 1_555 1_555
C28 N4 1_555 1_555
C29 N4 1_555 1_555
H20 C29 1_555 1_555
C30 N3 1_555 1_555
H21 C30 1_555 1_555
Dy1A O4 1_555 1_555
Dy1A_2 O8 1_555 1_555
Dy1B O6 1_555 1_555
Dy1C O9 1_555 1_555
O4A Dy1 1_555 1_555
O5A Dy1 1_555 1_555
O6B Dy1 1_555 1_555
O8A Dy1 1_555 1_555
O9C Dy1 1_555 1_555
O2 C11 1_555 1_555
O5 Dy1A 1_555 1_555
C5 C10 1_555 1_555
C9 C10 1_555 1_555
C13 C23 1_555 1_555
C17 C22 1_555 1_555
C21 C22 1_555 1_555
N2 C27 1_555 1_555
C25 C26 1_555 1_555
C27 C28 1_555 1_555
C29 C30 1_555 1_555

#END
