
#######################################################################
#
#                 Cambridge Crystallographic Data Centre
#                                CCDC 
#
#######################################################################
#
# If this CIF has been generated from an entry in the Cambridge 
# Structural Database, then it will include bibliographic, chemical, 
# crystal, experimental, refinement or atomic coordinate data resulting 
# from the CCDC's data processing and validation procedures.
#
#######################################################################

data_FIZWES
_symmetry_cell_setting           triclinic
_symmetry_space_group_name_H-M   'P -1'
_symmetry_Int_Tables_number      2
_space_group_name_Hall           '-P 1'
loop_
_symmetry_equiv_pos_site_id
_symmetry_equiv_pos_as_xyz
1 x,y,z
2 -x,-y,-z
_cell_length_a                   11.605(2)
_cell_length_b                   12.340(2)
_cell_length_c                   14.606(4)
_cell_angle_alpha                99.002(3)
_cell_angle_beta                 96.346(4)
_cell_angle_gamma                116.734(2)
_cell_volume                     1805.84
loop_
_atom_site_label
_atom_site_type_symbol
_atom_site_fract_x
_atom_site_fract_y
_atom_site_fract_z
Cd1 Cd 0.887798(19) 0.997182(17) 0.242228(14)
N1 N 0.0942(2) 0.1649(2) 0.27018(17)
N2 N 0.5713(2) 0.47776(19) 0.36304(15)
N3 N 1.0041(3) 0.4853(3) 0.3676(2)
N4 N 0.9259(2) 1.8303(2) 0.22576(16)
N5 N 1.0689(2) 1.50965(19) 0.13281(15)
N6 N 1.4865(3) 1.4885(3) 0.1193(2)
O1 O 0.8693(2) 1.05501(19) 0.39566(16)
O2 O 0.70203(19) 0.88146(18) 0.30984(14)
O3 O 0.7904(2) 0.93754(19) 0.08004(15)
O4 O 0.80265(19) 1.10652(18) 0.16496(14)
C1 C 0.1050(3) 0.2677(3) 0.3247(2)
H1 H 0.0293 0.2657 0.3417
C2 C 0.2214(3) 0.3760(3) 0.3570(2)
H2 H 0.2233 0.4456 0.3941
C3 C 0.3357(2) 0.3816(2) 0.33433(18)
C4 C 0.3243(3) 0.2765(2) 0.2753(2)
H3 H 0.3983 0.2770 0.2561
C5 C 0.2041(3) 0.1718(3) 0.2452(2)
H4 H 0.1987 0.1023 0.2055
C6 C 0.4663(2) 0.4950(2) 0.37084(18)
C7 C 0.4778(3) 0.6095(2) 0.40937(18)
H5 H 0.4026 0.6175 0.4143
C8 C 0.6012(3) 0.7128(2) 0.44068(17)
C9 C 0.7097(3) 0.6954(2) 0.43058(18)
H6 H 0.7943 0.7627 0.4491
C10 C 0.6910(2) 0.5770(2) 0.39269(18)
C11 C 0.8789(3) 0.4068(3) 0.3270(2)
H7 H 0.8592 0.3288 0.2917
C12 C 0.7772(3) 0.4330(3) 0.3338(2)
H8 H 0.6914 0.3734 0.3044
C13 C 0.8022(3) 0.5488(2) 0.38440(19)
C14 C 0.9319(3) 0.6325(3) 0.4256(2)
H9 H 0.9550 0.7121 0.4595
C15 C 1.0270(3) 0.5956(3) 0.4155(2)
H10 H 1.1138 0.6529 0.4446
C16 C 0.6143(3) 0.8337(2) 0.48928(18)
C17 C 0.5460(3) 0.8316(3) 0.5628(2)
H11 H 0.4930 0.7559 0.5769
C18 C 0.5563(4) 0.9402(3) 0.6147(2)
H12 H 0.5085 0.9372 0.6622
C19 C 0.6371(4) 1.0524(3) 0.5963(2)
H13 H 0.6461 1.1259 0.6324
C20 C 0.7044(3) 1.0562(3) 0.5249(2)
H14 H 0.7592 1.1331 0.5132
C21 C 0.6935(3) 0.9490(2) 0.46931(19)
C22 C 0.7593(3) 0.9611(3) 0.3859(2)
C23 C 0.8185(3) 1.7213(3) 0.1906(2)
H15 H 0.7371 1.7195 0.1875
C24 C 0.8193(3) 1.6118(3) 0.1588(2)
H16 H 0.7405 1.5382 0.1353
C25 C 0.9383(2) 1.6110(2) 0.16163(18)
C26 C 1.0507(3) 1.7237(3) 0.2012(2)
H17 H 1.1333 1.7277 0.2071
C27 C 1.0407(3) 1.8287(3) 0.2316(2)
H18 H 1.1178 1.9030 0.2577
C28 C 0.9478(2) 1.4975(2) 0.12304(18)
C29 C 0.8366(3) 1.3857(2) 0.07700(18)
H19 H 0.7537 1.3809 0.0697
C30 C 0.8496(2) 1.2820(2) 0.04213(18)
C31 C 0.9758(3) 1.2955(2) 0.05399(18)
H20 H 0.9885 1.2275 0.0322
C32 C 1.0832(2) 1.4101(2) 0.09831(18)
C33 C 1.4523(3) 1.5653(3) 0.1686(2)
H21 H 1.5191 1.6390 0.2083
C34 C 1.3235(3) 1.5427(3) 0.1647(2)
H22 H 1.3054 1.6005 0.2003
C35 C 1.2218(3) 1.4330(2) 0.10736(18)
C36 C 1.2562(3) 1.3509(3) 0.0576(2)
H23 H 1.1914 1.2749 0.0195
C37 C 1.3876(3) 1.3833(3) 0.0653(3)
H24 H 1.4085 1.3274 0.0301
C38 C 0.7338(2) 1.1651(2) -0.01381(18)
C39 C 0.6529(3) 1.1734(3) -0.08797(19)
H25 H 0.6716 1.2513 -0.0989
C40 C 0.5463(3) 1.0684(3) -0.1450(2)
H26 H 0.4926 1.0759 -0.1930
C41 C 0.5194(3) 0.9528(3) -0.1308(2)
H27 H 0.4480 0.8817 -0.1697
C42 C 0.5979(3) 0.9421(3) -0.0590(2)
H28 H 0.5806 0.8634 -0.0509
C43 C 0.7033(3) 1.0475(2) 0.00188(18)
C44 C 0.7710(3) 1.0307(3) 0.0881(2)
Cd1_2 Cd -0.112202(19) -0.002818(17) 0.242228(14)
Cd1_3 Cd 0.887798(19) 1.997182(17) 0.242228(14)
N1_2 N 1.0942(2) 1.1649(2) 0.27018(17)
N4_2 N 0.9259(2) 0.8303(2) 0.22576(16)
O5 O 0.0296(8) 0.9824(9) 0.0465(5)
loop_
_geom_bond_atom_site_label_1
_geom_bond_atom_site_label_2
_geom_bond_site_symmetry_1
_geom_bond_site_symmetry_2
Cd1 O1 1_555 1_555
N1 C1 1_555 1_555
N2 C6 1_555 1_555
N3 C11 1_555 1_555
N4 C23 1_555 1_555
N5 C28 1_555 1_555
N6 C33 1_555 1_555
O1 C22 1_555 1_555
O2 Cd1 1_555 1_555
O3 Cd1 1_555 1_555
O4 Cd1 1_555 1_555
C1 H1 1_555 1_555
C2 C1 1_555 1_555
H2 C2 1_555 1_555
C3 C2 1_555 1_555
C4 C3 1_555 1_555
H3 C4 1_555 1_555
C5 N1 1_555 1_555
H4 C5 1_555 1_555
C6 C3 1_555 1_555
C7 C6 1_555 1_555
H5 C7 1_555 1_555
C8 C7 1_555 1_555
C9 C8 1_555 1_555
H6 C9 1_555 1_555
C10 N2 1_555 1_555
C11 H7 1_555 1_555
C12 C11 1_555 1_555
H8 C12 1_555 1_555
C13 C10 1_555 1_555
C14 C13 1_555 1_555
H9 C14 1_555 1_555
C15 N3 1_555 1_555
H10 C15 1_555 1_555
C16 C8 1_555 1_555
C17 C16 1_555 1_555
H11 C17 1_555 1_555
C18 C17 1_555 1_555
H12 C18 1_555 1_555
C19 C18 1_555 1_555
H13 C19 1_555 1_555
C20 C19 1_555 1_555
H14 C20 1_555 1_555
C21 C16 1_555 1_555
C22 O2 1_555 1_555
C23 H15 1_555 1_555
C24 C23 1_555 1_555
H16 C24 1_555 1_555
C25 C24 1_555 1_555
C26 C25 1_555 1_555
H17 C26 1_555 1_555
C27 N4 1_555 1_555
H18 C27 1_555 1_555
C28 C25 1_555 1_555
C29 C28 1_555 1_555
H19 C29 1_555 1_555
C30 C29 1_555 1_555
C31 C30 1_555 1_555
H20 C31 1_555 1_555
C32 N5 1_555 1_555
C33 H21 1_555 1_555
C34 C33 1_555 1_555
H22 C34 1_555 1_555
C35 C32 1_555 1_555
C36 C35 1_555 1_555
H23 C36 1_555 1_555
C37 N6 1_555 1_555
H24 C37 1_555 1_555
C38 C30 1_555 1_555
C39 C38 1_555 1_555
H25 C39 1_555 1_555
C40 C39 1_555 1_555
H26 C40 1_555 1_555
C41 C40 1_555 1_555
H27 C41 1_555 1_555
C42 C41 1_555 1_555
H28 C42 1_555 1_555
C43 C38 1_555 1_555
C44 O3 1_555 1_555
Cd1_2 N1 1_555 1_555
Cd1_3 N4 1_555 1_555
N1_2 Cd1 1_555 1_555
N4_2 Cd1 1_555 1_555
O4 C44 1_555 1_555
C4 C5 1_555 1_555
C9 C10 1_555 1_555
C12 C13 1_555 1_555
C14 C15 1_555 1_555
C20 C21 1_555 1_555
C21 C22 1_555 1_555
C26 C27 1_555 1_555
C31 C32 1_555 1_555
C34 C35 1_555 1_555
C36 C37 1_555 1_555
C42 C43 1_555 1_555
C43 C44 1_555 1_555

#END
