
#######################################################################
#
#                 Cambridge Crystallographic Data Centre
#                                CCDC 
#
#######################################################################
#
# If this CIF has been generated from an entry in the Cambridge 
# Structural Database, then it will include bibliographic, chemical, 
# crystal, experimental, refinement or atomic coordinate data resulting 
# from the CCDC's data processing and validation procedures.
#
#######################################################################

data_FIZWIW
_symmetry_cell_setting           monoclinic
_symmetry_space_group_name_H-M   'P 21/n'
_symmetry_Int_Tables_number      14
_space_group_name_Hall           '-P 2yn'
loop_
_symmetry_equiv_pos_site_id
_symmetry_equiv_pos_as_xyz
1 x,y,z
2 1/2-x,1/2+y,1/2-z
3 -x,-y,-z
4 1/2+x,1/2-y,1/2+z
_cell_length_a                   14.896(3)
_cell_length_b                   9.8043(17)
_cell_length_c                   17.559(3)
_cell_angle_alpha                90
_cell_angle_beta                 93.155(3)
_cell_angle_gamma                90
_cell_volume                     2560.51
loop_
_atom_site_label
_atom_site_type_symbol
_atom_site_fract_x
_atom_site_fract_y
_atom_site_fract_z
Cd1 Cd -0.10655(3) 0.95409(5) 0.18236(3)
Cd2 Cd 0.0000 1.0000 0.0000
N1 N 0.1128(4) 1.0035(6) 0.6854(3)
N2 N 0.0231(4) 0.7481(6) 0.4473(3)
N3 N -0.2376(4) 0.4704(6) 0.3440(4)
O1 O 0.0415(3) 0.9510(5) 0.2153(3)
O2 O 0.0990(3) 0.9735(5) 0.1013(3)
O3 O -0.0972(3) 1.0982(5) 0.0804(3)
O4 O -0.1208(4) 1.2286(5) 0.1785(3)
O5 O -0.0971(4) 1.7372(5) 0.1434(3)
O6 O -0.0840(4) 1.8165(5) 0.0256(3)
C1 C 0.1581(5) 1.0555(8) 0.6302(4)
H1 H 0.1951 1.1298 0.6421
C2 C 0.1552(5) 1.0082(7) 0.5557(4)
H2 H 0.1892 1.0500 0.5195
C3 C 0.1011(5) 0.8985(8) 0.5361(4)
C4 C 0.0505(6) 0.8436(9) 0.5934(4)
H3 H 0.0118 0.7706 0.5831
C5 C 0.0589(6) 0.8992(10) 0.6648(4)
H4 H 0.0243 0.8615 0.7020
C6 C 0.0913(5) 0.8380(7) 0.4584(4)
C7 C 0.1494(5) 0.8672(7) 0.4018(4)
H5 H 0.1959 0.9294 0.4110
C8 C 0.1383(5) 0.8038(7) 0.3312(4)
C9 C 0.0684(5) 0.7143(7) 0.3190(4)
H6 H 0.0592 0.6710 0.2721
C10 C 0.0105(5) 0.6886(7) 0.3783(4)
C11 C -0.1859(6) 0.5004(11) 0.2883(5)
H7 H -0.2059 0.4771 0.2389
C12 C -0.1036(6) 0.5644(11) 0.2984(4)
H8 H -0.0702 0.5815 0.2562
C13 C -0.0706(5) 0.6027(7) 0.3684(4)
C14 C -0.1210(5) 0.5645(9) 0.4266(4)
H9 H -0.1011 0.5827 0.4767
C15 C -0.2025(5) 0.4981(9) 0.4115(5)
H10 H -0.2344 0.4715 0.4530
C16 C 0.2084(5) 0.8248(7) 0.2729(4)
C17 C 0.2934(5) 0.7783(8) 0.2947(4)
H11 H 0.3023 0.7334 0.3412
C18 C 0.3658(6) 0.7961(9) 0.2498(5)
H12 H 0.4226 0.7647 0.2661
C19 C 0.3528(6) 0.8608(9) 0.1808(5)
H13 H 0.4012 0.8749 0.1504
C20 C 0.2679(5) 0.9050(8) 0.1564(4)
H14 H 0.2595 0.9465 0.1089
C21 C 0.1938(5) 0.8883(7) 0.2022(4)
C22 C 0.1041(5) 0.9431(7) 0.1707(4)
C23 C -0.1104(5) 1.2172(7) 0.1106(4)
C24 C -0.1141(4) 1.3377(7) 0.0581(4)
C25 C -0.1290(5) 1.3216(7) -0.0200(4)
H15 H -0.1381 1.2349 -0.0406
C26 C -0.1305(5) 1.4334(8) -0.0670(4)
H16 H -0.1419 1.4224 -0.1192
C27 C -0.1151(5) 1.5616(8) -0.0373(4)
H17 H -0.1115 1.6362 -0.0698
C28 C -0.1052(5) 1.5794(7) 0.0404(4)
C29 C -0.1047(5) 1.4674(6) 0.0882(4)
H18 H -0.0981 1.4794 0.1407
C30 C -0.0936(5) 1.7222(7) 0.0723(5)
Cd1B Cd 0.10655(3) 1.04591(5) -0.18236(3)
N1B N -0.1128(4) 0.9965(6) -0.6854(3)
N2B N -0.0231(4) 1.2519(6) -0.4473(3)
N3B N 0.2376(4) 1.5296(6) -0.3440(4)
O1B O -0.0415(3) 1.0490(5) -0.2153(3)
O2B O -0.0990(3) 1.0265(5) -0.1013(3)
O3B O 0.0972(3) 0.9018(5) -0.0804(3)
O4B O 0.1208(4) 0.7714(5) -0.1785(3)
O5B O 0.0971(4) 0.2628(5) -0.1434(3)
O6B O 0.0840(4) 0.1835(5) -0.0256(3)
C1B C -0.1581(5) 0.9445(8) -0.6302(4)
H1B H -0.1951 0.8702 -0.6421
C2B C -0.1552(5) 0.9918(7) -0.5557(4)
H2B H -0.1892 0.9500 -0.5195
C3B C -0.1011(5) 1.1015(8) -0.5361(4)
C4B C -0.0505(6) 1.1564(9) -0.5934(4)
H3B H -0.0118 1.2294 -0.5831
C5B C -0.0589(6) 1.1008(10) -0.6648(4)
H4B H -0.0243 1.1385 -0.7020
C6B C -0.0913(5) 1.1620(7) -0.4584(4)
C7B C -0.1494(5) 1.1328(7) -0.4018(4)
H5B H -0.1959 1.0706 -0.4110
C8B C -0.1383(5) 1.1962(7) -0.3312(4)
C9B C -0.0684(5) 1.2857(7) -0.3190(4)
H6B H -0.0592 1.3290 -0.2721
C10B C -0.0105(5) 1.3114(7) -0.3783(4)
C11B C 0.1859(6) 1.4996(11) -0.2883(5)
H7B H 0.2059 1.5229 -0.2389
C12B C 0.1036(6) 1.4356(11) -0.2984(4)
H8B H 0.0702 1.4185 -0.2562
C13B C 0.0706(5) 1.3973(7) -0.3684(4)
C14B C 0.1210(5) 1.4355(9) -0.4266(4)
H9B H 0.1011 1.4173 -0.4767
C15B C 0.2025(5) 1.5019(9) -0.4115(5)
H10B H 0.2344 1.5285 -0.4530
C16B C -0.2084(5) 1.1752(7) -0.2729(4)
C17B C -0.2934(5) 1.2217(8) -0.2947(4)
H11B H -0.3023 1.2666 -0.3412
C18B C -0.3658(6) 1.2039(9) -0.2498(5)
H12B H -0.4226 1.2353 -0.2661
C19B C -0.3528(6) 1.1392(9) -0.1808(5)
H13B H -0.4012 1.1251 -0.1504
C20B C -0.2679(5) 1.0950(8) -0.1564(4)
H14B H -0.2595 1.0535 -0.1089
C21B C -0.1938(5) 1.1117(7) -0.2022(4)
C22B C -0.1041(5) 1.0569(7) -0.1707(4)
C23B C 0.1104(5) 0.7828(7) -0.1106(4)
C24B C 0.1141(4) 0.6623(7) -0.0581(4)
C25B C 0.1290(5) 0.6784(7) 0.0200(4)
H15B H 0.1381 0.7651 0.0406
C26B C 0.1305(5) 0.5666(8) 0.0670(4)
H16B H 0.1419 0.5776 0.1192
C27B C 0.1151(5) 0.4384(8) 0.0373(4)
H17B H 0.1115 0.3638 0.0698
C28B C 0.1052(5) 0.4206(7) -0.0404(4)
C29B C 0.1047(5) 0.5326(6) -0.0882(4)
H18B H 0.0981 0.5206 -0.1407
C30B C 0.0936(5) 0.2778(7) -0.0723(5)
Cd1_2 Cd -0.10655(3) 0.95409(5) -0.81764(3)
Cd1_3 Cd -0.10655(3) 1.95409(5) 0.18236(3)
Cd1A Cd -0.39345(3) 0.45409(5) 0.31764(3)
Cd1B_2 Cd 0.10655(3) 0.04591(5) -0.18236(3)
Cd1B_3 Cd 0.10655(3) 1.04591(5) 0.81764(3)
Cd1C Cd 0.39345(3) 1.54591(5) -0.31764(3)
Cd2_2 Cd 0.0000 0.0000 0.0000
Cd2_3 Cd 0.0000 2.0000 0.0000
N1_2 N 0.1128(4) 1.0035(6) -0.3146(3)
N1B_2 N -0.1128(4) 0.9965(6) 0.3146(3)
N3A N -0.2624(4) 0.9704(6) 0.1560(4)
N3C N 0.2624(4) 1.0296(6) -0.1560(4)
O5_2 O -0.0971(4) 0.7372(5) 0.1434(3)
O5B_2 O 0.0971(4) 1.2628(5) -0.1434(3)
O6_2 O -0.0840(4) 0.8165(5) 0.0256(3)
O6B_2 O 0.0840(4) 1.1835(5) -0.0256(3)
loop_
_geom_bond_atom_site_label_1
_geom_bond_atom_site_label_2
_geom_bond_site_symmetry_1
_geom_bond_site_symmetry_2
Cd1 O1 1_555 1_555
Cd2 O2 1_555 1_555
N1 C1 1_555 1_555
N2 C6 1_555 1_555
N3 C11 1_555 1_555
O1 C22 1_555 1_555
O2 C22 1_555 1_555
O3 Cd1 1_555 1_555
O4 Cd1 1_555 1_555
O5 C30 1_555 1_555
O6 C30 1_555 1_555
C1 H1 1_555 1_555
C2 C1 1_555 1_555
H2 C2 1_555 1_555
C3 C2 1_555 1_555
C4 C3 1_555 1_555
H3 C4 1_555 1_555
C5 N1 1_555 1_555
H4 C5 1_555 1_555
C6 C3 1_555 1_555
C7 C6 1_555 1_555
H5 C7 1_555 1_555
C8 C7 1_555 1_555
C9 C8 1_555 1_555
H6 C9 1_555 1_555
C10 N2 1_555 1_555
C11 H7 1_555 1_555
C12 C11 1_555 1_555
H8 C12 1_555 1_555
C13 C10 1_555 1_555
C14 C13 1_555 1_555
H9 C14 1_555 1_555
C15 N3 1_555 1_555
H10 C15 1_555 1_555
C16 C8 1_555 1_555
C17 C16 1_555 1_555
H11 C17 1_555 1_555
C18 C17 1_555 1_555
H12 C18 1_555 1_555
C19 C18 1_555 1_555
H13 C19 1_555 1_555
C20 C19 1_555 1_555
H14 C20 1_555 1_555
C21 C16 1_555 1_555
C22 C21 1_555 1_555
C23 O3 1_555 1_555
C24 C23 1_555 1_555
C25 C24 1_555 1_555
H15 C25 1_555 1_555
C26 C25 1_555 1_555
H16 C26 1_555 1_555
C27 C26 1_555 1_555
H17 C27 1_555 1_555
C28 C27 1_555 1_555
C29 C24 1_555 1_555
H18 C29 1_555 1_555
C30 C28 1_555 1_555
Cd1B O1B 1_555 1_555
N1B C1B 1_555 1_555
N2B C6B 1_555 1_555
N3B C11B 1_555 1_555
O1B C22B 1_555 1_555
O2B Cd2 1_555 1_555
O3B Cd2 1_555 1_555
O4B Cd1B 1_555 1_555
O5B C30B 1_555 1_555
O6B C30B 1_555 1_555
C1B H1B 1_555 1_555
C2B C1B 1_555 1_555
H2B C2B 1_555 1_555
C3B C2B 1_555 1_555
C4B C3B 1_555 1_555
H3B C4B 1_555 1_555
C5B N1B 1_555 1_555
H4B C5B 1_555 1_555
C6B C3B 1_555 1_555
C7B C6B 1_555 1_555
H5B C7B 1_555 1_555
C8B C7B 1_555 1_555
C9B C8B 1_555 1_555
H6B C9B 1_555 1_555
C10B N2B 1_555 1_555
C11B H7B 1_555 1_555
C12B C11B 1_555 1_555
H8B C12B 1_555 1_555
C13B C10B 1_555 1_555
C14B C13B 1_555 1_555
H9B C14B 1_555 1_555
C15B N3B 1_555 1_555
H10B C15B 1_555 1_555
C16B C8B 1_555 1_555
C17B C16B 1_555 1_555
H11B C17B 1_555 1_555
C18B C17B 1_555 1_555
H12B C18B 1_555 1_555
C19B C18B 1_555 1_555
H13B C19B 1_555 1_555
C20B C19B 1_555 1_555
H14B C20B 1_555 1_555
C21B C16B 1_555 1_555
C22B O2B 1_555 1_555
C23B O3B 1_555 1_555
C24B C23B 1_555 1_555
C25B C24B 1_555 1_555
H15B C25B 1_555 1_555
C26B C25B 1_555 1_555
H16B C26B 1_555 1_555
C27B C26B 1_555 1_555
H17B C27B 1_555 1_555
C28B C27B 1_555 1_555
C29B C24B 1_555 1_555
H18B C29B 1_555 1_555
C30B C28B 1_555 1_555
Cd1_2 N1B 1_555 1_555
Cd1_3 O5 1_555 1_555
Cd1A N3 1_555 1_555
Cd1B_2 O5B 1_555 1_555
Cd1B_3 N1 1_555 1_555
Cd1C N3B 1_555 1_555
Cd2_2 O6B 1_555 1_555
Cd2_3 O6 1_555 1_555
N1_2 Cd1B 1_555 1_555
N1B_2 Cd1 1_555 1_555
N3A Cd1 1_555 1_555
N3C Cd1B 1_555 1_555
O5_2 Cd1 1_555 1_555
O5B_2 Cd1B 1_555 1_555
O6_2 Cd2 1_555 1_555
O6B_2 Cd2 1_555 1_555
Cd2 O3 1_555 1_555
O4 C23 1_555 1_555
C4 C5 1_555 1_555
C9 C10 1_555 1_555
C12 C13 1_555 1_555
C14 C15 1_555 1_555
C20 C21 1_555 1_555
C28 C29 1_555 1_555
Cd1B O3B 1_555 1_555
O4B C23B 1_555 1_555
C4B C5B 1_555 1_555
C9B C10B 1_555 1_555
C12B C13B 1_555 1_555
C14B C15B 1_555 1_555
C20B C21B 1_555 1_555
C21B C22B 1_555 1_555
C28B C29B 1_555 1_555

#END
