
#######################################################################
#
#                 Cambridge Crystallographic Data Centre
#                                CCDC 
#
#######################################################################
#
# If this CIF has been generated from an entry in the Cambridge 
# Structural Database, then it will include bibliographic, chemical, 
# crystal, experimental, refinement or atomic coordinate data resulting 
# from the CCDC's data processing and validation procedures.
#
#######################################################################

data_FIZWAO
_symmetry_cell_setting           triclinic
_symmetry_space_group_name_H-M   'P -1'
_symmetry_Int_Tables_number      2
_space_group_name_Hall           '-P 1'
loop_
_symmetry_equiv_pos_site_id
_symmetry_equiv_pos_as_xyz
1 x,y,z
2 -x,-y,-z
_cell_length_a                   11.5711(9)
_cell_length_b                   12.1705(9)
_cell_length_c                   14.5802(19)
_cell_angle_alpha                98.625(2)
_cell_angle_beta                 94.455(2)
_cell_angle_gamma                116.5010(10)
_cell_volume                     1792.32
loop_
_atom_site_label
_atom_site_type_symbol
_atom_site_fract_x
_atom_site_fract_y
_atom_site_fract_z
Zn1 Zn 0.89616(3) 1.49970(3) 0.23910(3)
N1 N 0.0802(2) 0.6528(2) 0.26901(18)
N2 N 0.5547(2) 0.9640(2) 0.35808(16)
N3 N 0.9929(3) 0.9744(3) 0.3638(2)
N4 N 0.9230(2) 1.3411(2) 0.22367(18)
N5 N 1.0735(2) 1.0174(2) 0.13649(16)
N6 N 1.4920(3) 0.9914(3) 0.1210(2)
O1 O 0.8478(2) 1.5222(2) 0.36528(16)
O2 O 0.6611(2) 1.3618(2) 0.29055(15)
O3 O 0.8060(3) 0.6116(3) 0.1764(2)
O4 O 0.8118(3) 0.4518(3) 0.0953(3)
C1 C 0.0905(3) 0.7523(3) 0.3294(2)
H1 H 0.0152 0.7479 0.3507
C2 C 0.2053(3) 0.8599(3) 0.3615(2)
H2 H 0.2062 0.9272 0.4020
C3 C 0.3207(3) 0.8687(3) 0.3337(2)
C4 C 0.3105(3) 0.7665(3) 0.2701(2)
H3 H 0.3845 0.7684 0.2482
C5 C 0.1916(3) 0.6633(3) 0.2397(2)
H4 H 0.1872 0.5967 0.1963
C6 C 0.4490(3) 0.9812(3) 0.3685(2)
C7 C 0.4607(3) 1.0973(3) 0.4085(2)
H5 H 0.3861 1.1056 0.4174
C8 C 0.5827(3) 1.2008(3) 0.43524(19)
C9 C 0.6908(3) 1.1822(3) 0.4218(2)
H6 H 0.7746 1.2497 0.4373
C10 C 0.6736(3) 1.0627(3) 0.3852(2)
C11 C 1.0120(4) 1.0860(4) 0.4075(3)
H7 H 1.0970 1.1450 0.4349
C12 C 0.9141(3) 1.1209(3) 0.4153(2)
H8 H 0.9343 1.2014 0.4464
C13 C 0.7861(3) 1.0360(3) 0.3767(2)
C14 C 0.7661(4) 0.9193(3) 0.3296(2)
H9 H 0.6823 0.8584 0.3014
C15 C 0.8701(4) 0.8940(4) 0.3249(3)
H10 H 0.8534 0.8153 0.2923
C16 C 0.5996(3) 1.3254(3) 0.4825(2)
C17 C 0.5431(3) 1.3316(3) 0.5626(2)
H11 H 0.4906 1.2580 0.5816
C18 C 0.5636(4) 1.4449(4) 0.6140(3)
H12 H 0.5238 1.4471 0.6668
C19 C 0.6424(4) 1.5548(4) 0.5878(3)
H13 H 0.6577 1.6314 0.6235
C20 C 0.6989(3) 1.5508(3) 0.5082(3)
H14 H 0.7527 1.6254 0.4909
C21 C 0.6767(3) 1.4372(3) 0.4533(2)
C22 C 0.7299(3) 1.4377(3) 0.3627(2)
C23 C 1.0360(3) 1.3369(3) 0.2368(2)
H15 H 1.1101 1.4098 0.2675
C24 C 1.0493(3) 1.2311(3) 0.2077(2)
H16 H 1.1311 1.2340 0.2175
C25 C 0.9405(3) 1.1200(3) 0.1636(2)
C26 C 0.8219(3) 1.1228(3) 0.1550(2)
H17 H 0.7451 1.0497 0.1294
C27 C 0.8172(3) 1.2331(3) 0.1841(2)
H18 H 0.7365 1.2327 0.1760
C28 C 0.9516(3) 1.0056(3) 0.12690(19)
C29 C 0.8432(3) 0.8933(3) 0.0821(2)
H19 H 0.7605 0.8887 0.0748
C30 C 0.8579(3) 0.7891(3) 0.0485(2)
C31 C 0.9844(3) 0.8017(3) 0.0603(2)
H20 H 0.9984 0.7333 0.0394
C32 C 1.0891(3) 0.9164(3) 0.1033(2)
C33 C 1.4545(3) 1.0676(3) 0.1700(2)
H21 H 1.5193 1.1408 0.2090
C34 C 1.3279(3) 1.0465(3) 0.1675(2)
H22 H 1.3092 1.1046 0.2035
C35 C 1.2273(3) 0.9382(3) 0.1111(2)
C36 C 1.2631(3) 0.8560(3) 0.0607(2)
H23 H 1.1998 0.7807 0.0230
C37 C 1.3947(3) 0.8874(3) 0.0671(3)
H24 H 1.4168 0.8319 0.0311
C38 C 0.7450(3) 0.6713(3) -0.0054(2)
C39 C 0.6672(3) 0.6791(3) -0.0786(2)
H25 H 0.6848 0.7577 -0.0904
C40 C 0.5643(3) 0.5736(3) -0.1347(2)
H26 H 0.5118 0.5811 -0.1824
C41 C 0.5402(4) 0.4570(3) -0.1191(3)
H27 H 0.4723 0.3851 -0.1571
C42 C 0.6165(3) 0.4472(3) -0.0474(3)
H28 H 0.6008 0.3680 -0.0383
C43 C 0.7174(3) 0.5535(3) 0.0124(2)
C44 C 0.7842(3) 0.5400(4) 0.1018(4)
Zn1_2 Zn -0.10384(3) 0.49970(3) 0.23910(3)
Zn1_3 Zn 0.89616(3) 0.49970(3) 0.23910(3)
N1_2 N 1.0802(2) 1.6528(2) 0.26901(18)
O3_2 O 0.8060(3) 1.6116(3) 0.1764(2)
O4_2 O 0.8118(3) 1.4518(3) 0.0953(3)
O5 O -0.0104(9) 0.4298(8) 0.4716(7)
O6 O 0.0444(18) 0.498(2) 0.0297(13)
loop_
_geom_bond_atom_site_label_1
_geom_bond_atom_site_label_2
_geom_bond_site_symmetry_1
_geom_bond_site_symmetry_2
Zn1 N4 1_555 1_555
N1 C1 1_555 1_555
N2 C6 1_555 1_555
N3 C11 1_555 1_555
N4 C23 1_555 1_555
N5 C28 1_555 1_555
N6 C33 1_555 1_555
O1 Zn1 1_555 1_555
O2 C22 1_555 1_555
O3 C44 1_555 1_555
O4 C44 1_555 1_555
C1 H1 1_555 1_555
C2 C1 1_555 1_555
H2 C2 1_555 1_555
C3 C2 1_555 1_555
C4 C3 1_555 1_555
H3 C4 1_555 1_555
C5 N1 1_555 1_555
H4 C5 1_555 1_555
C6 C3 1_555 1_555
C7 C6 1_555 1_555
H5 C7 1_555 1_555
C8 C7 1_555 1_555
C9 C8 1_555 1_555
H6 C9 1_555 1_555
C10 N2 1_555 1_555
C11 H7 1_555 1_555
C12 C11 1_555 1_555
H8 C12 1_555 1_555
C13 C10 1_555 1_555
C14 C13 1_555 1_555
H9 C14 1_555 1_555
C15 N3 1_555 1_555
H10 C15 1_555 1_555
C16 C8 1_555 1_555
C17 C16 1_555 1_555
H11 C17 1_555 1_555
C18 C17 1_555 1_555
H12 C18 1_555 1_555
C19 C18 1_555 1_555
H13 C19 1_555 1_555
C20 C19 1_555 1_555
H14 C20 1_555 1_555
C21 C16 1_555 1_555
C22 O1 1_555 1_555
C23 H15 1_555 1_555
C24 C23 1_555 1_555
H16 C24 1_555 1_555
C25 C24 1_555 1_555
C26 C25 1_555 1_555
H17 C26 1_555 1_555
C27 N4 1_555 1_555
H18 C27 1_555 1_555
C28 C25 1_555 1_555
C29 C28 1_555 1_555
H19 C29 1_555 1_555
C30 C29 1_555 1_555
C31 C30 1_555 1_555
H20 C31 1_555 1_555
C32 N5 1_555 1_555
C33 H21 1_555 1_555
C34 C33 1_555 1_555
H22 C34 1_555 1_555
C35 C32 1_555 1_555
C36 C35 1_555 1_555
H23 C36 1_555 1_555
C37 N6 1_555 1_555
H24 C37 1_555 1_555
C38 C30 1_555 1_555
C39 C38 1_555 1_555
H25 C39 1_555 1_555
C40 C39 1_555 1_555
H26 C40 1_555 1_555
C41 C40 1_555 1_555
H27 C41 1_555 1_555
C42 C41 1_555 1_555
H28 C42 1_555 1_555
C43 C38 1_555 1_555
C44 C43 1_555 1_555
Zn1_2 N1 1_555 1_555
Zn1_3 O3 1_555 1_555
N1_2 Zn1 1_555 1_555
O3_2 Zn1 1_555 1_555
O4_2 Zn1 1_555 1_555
O4 Zn1_3 1_555 1_555
C4 C5 1_555 1_555
C9 C10 1_555 1_555
C12 C13 1_555 1_555
C14 C15 1_555 1_555
C20 C21 1_555 1_555
C21 C22 1_555 1_555
C26 C27 1_555 1_555
C31 C32 1_555 1_555
C34 C35 1_555 1_555
C36 C37 1_555 1_555
C42 C43 1_555 1_555

#END
