
#######################################################################
#
#                 Cambridge Crystallographic Data Centre
#                                CCDC 
#
#######################################################################
#
# If this CIF has been generated from an entry in the Cambridge 
# Structural Database, then it will include bibliographic, chemical, 
# crystal, experimental, refinement or atomic coordinate data resulting 
# from the CCDC's data processing and validation procedures.
#
#######################################################################

data_FIZXUJ
_symmetry_cell_setting           orthorhombic
_symmetry_space_group_name_H-M   'P b c a'
_symmetry_Int_Tables_number      61
_space_group_name_Hall           '-P 2ac 2ab'
loop_
_symmetry_equiv_pos_site_id
_symmetry_equiv_pos_as_xyz
1 x,y,z
2 1/2-x,-y,1/2+z
3 -x,1/2+y,1/2-z
4 1/2+x,1/2-y,-z
5 -x,-y,-z
6 1/2+x,y,1/2-z
7 x,1/2-y,1/2+z
8 1/2-x,1/2+y,z
_cell_length_a                   6.9658(7)
_cell_length_b                   18.5806(19)
_cell_length_c                   21.667(2)
_cell_angle_alpha                90
_cell_angle_beta                 90
_cell_angle_gamma                90
_cell_volume                     2804.33
loop_
_atom_site_label
_atom_site_type_symbol
_atom_site_fract_x
_atom_site_fract_y
_atom_site_fract_z
Cd1 Cd 0.10060(7) 0.22112(2) 0.45968(2)
S1 S 0.1260(2) 0.11855(9) 0.71736(7)
S2 S 0.0946(2) 0.30931(9) 0.59268(7)
O1 O -0.0462(7) 0.2722(2) 0.5506(2)
O2 O 0.1103(8) 0.2689(3) 0.6511(2)
O3 O 0.0235(7) 0.3824(3) 0.6055(2)
O4 O 0.2790(7) 0.3117(3) 0.5598(2)
O5 O 0.1449(7) 0.1470(3) 0.3725(2)
N1 N 0.1421(8) 0.1241(3) 0.5186(2)
N2 N 0.1426(8) 0.0593(3) 0.6038(2)
N3 N 0.1133(8) 0.0904(3) 0.8394(2)
N4 N 0.1042(8) 0.1706(3) 0.9137(2)
C1 C 0.1081(15) 0.1232(4) 0.5772(3)
H1 H 0.0630 0.1640 0.5994
C2 C 0.204(2) 0.0581(6) 0.5083(5)
H2 H 0.2413 0.0409 0.4688
C3 C 0.209(2) 0.0182(6) 0.5595(5)
H3 H 0.2515 -0.0301 0.5631
C4 C 0.1283(10) 0.0456(4) 0.6674(3)
C5 C 0.1232(11) -0.0181(4) 0.6975(3)
H4 H 0.1263 -0.0635 0.6773
C6 C 0.1127(10) -0.0096(4) 0.7625(3)
H5 H 0.1055 -0.0486 0.7908
C7 C 0.1141(9) 0.0604(4) 0.7797(3)
C8 C 0.0904(11) 0.1602(4) 0.8547(3)
H6 H 0.0668 0.1975 0.8257
C9 C 0.148(2) 0.0552(5) 0.8929(4)
H7 H 0.1737 0.0053 0.8978
C10 C 0.138(2) 0.1054(5) 0.9383(4)
H8 H 0.1536 0.0959 0.9811
Cd1C Cd -0.39940(7) 0.27888(2) 0.54032(2)
Cd1C_2 Cd 0.60060(7) 0.27888(2) 0.54032(2)
Cd1F Cd 0.10060(7) 0.27888(2) 0.95968(2)
O1C O 0.4538(7) 0.2278(2) 0.4494(2)
O4C O -0.2210(7) 0.1883(3) 0.4402(2)
N4F N 0.1042(8) 0.3294(3) 0.4137(2)
O6 O 0.0421(8) 0.7987(3) 0.7306(2)
loop_
_geom_bond_atom_site_label_1
_geom_bond_atom_site_label_2
_geom_bond_site_symmetry_1
_geom_bond_site_symmetry_2
Cd1 O1 1_555 1_555
S1 C4 1_555 1_555
S2 O1 1_555 1_555
O1 Cd1C 1_555 1_555
O2 S2 1_555 1_555
O3 S2 1_555 1_555
O4 S2 1_555 1_555
O5 Cd1 1_555 1_555
N1 Cd1 1_555 1_555
N2 C1 1_555 1_555
N3 C7 1_555 1_555
N4 C8 1_555 1_555
C1 N1 1_555 1_555
H1 C1 1_555 1_555
C2 N1 1_555 1_555
H2 C2 1_555 1_555
C3 N2 1_555 1_555
H3 C3 1_555 1_555
C4 N2 1_555 1_555
C5 C4 1_555 1_555
H4 C5 1_555 1_555
C6 C5 1_555 1_555
H5 C6 1_555 1_555
C7 S1 1_555 1_555
C8 N3 1_555 1_555
H6 C8 1_555 1_555
C9 N3 1_555 1_555
H7 C9 1_555 1_555
C10 N4 1_555 1_555
H8 C10 1_555 1_555
Cd1C_2 O4 1_555 1_555
Cd1F N4 1_555 1_555
O1C Cd1 1_555 1_555
O4C Cd1 1_555 1_555
N4F Cd1 1_555 1_555
C2 C3 1_555 1_555
C6 C7 1_555 1_555
C9 C10 1_555 1_555
Cd1C_2 O1C 1_555 1_555

#END
