
#######################################################################
#
#                 Cambridge Crystallographic Data Centre
#                                CCDC 
#
#######################################################################
#
# If this CIF has been generated from an entry in the Cambridge 
# Structural Database, then it will include bibliographic, chemical, 
# crystal, experimental, refinement or atomic coordinate data resulting 
# from the CCDC's data processing and validation procedures.
#
#######################################################################

data_FIZXOD
_symmetry_cell_setting           orthorhombic
_symmetry_space_group_name_H-M   'P b c n'
_symmetry_Int_Tables_number      60
_space_group_name_Hall           '-P 2n 2ab'
loop_
_symmetry_equiv_pos_site_id
_symmetry_equiv_pos_as_xyz
1 x,y,z
2 1/2-x,1/2-y,1/2+z
3 -x,y,1/2-z
4 1/2+x,1/2-y,-z
5 -x,-y,-z
6 1/2+x,1/2+y,1/2-z
7 x,-y,1/2+z
8 1/2-x,1/2+y,z
_cell_length_a                   24.636(3)
_cell_length_b                   9.2458(13)
_cell_length_c                   22.123(3)
_cell_angle_alpha                90
_cell_angle_beta                 90
_cell_angle_gamma                90
_cell_volume                     5039.17
loop_
_atom_site_label
_atom_site_type_symbol
_atom_site_fract_x
_atom_site_fract_y
_atom_site_fract_z
Zn1 Zn 0.431913(13) 0.51930(3) 1.019884(14)
S1 S 0.42750(3) 0.73345(7) 0.76995(3)
S2 S 0.53013(3) 0.67033(7) 1.10364(3)
O1 O 0.51637(8) 0.58179(19) 1.04847(8)
O2 O 0.52928(9) 0.5740(2) 1.15657(8)
O3 O 0.58423(9) 0.7321(2) 1.09560(9)
O4 O 0.48900(8) 0.7834(2) 1.11052(9)
O5 O 0.39598(9) 0.6259(2) 1.09311(9)
H1 H 0.4170 0.6908 1.1058
O6 O 0.35905(9) 0.4353(2) 0.98458(9)
H2 H 0.3423 0.5009 0.9661
N1 N 0.42500(9) 0.7039(3) 0.96656(10)
N2 N 0.42317(9) 0.8374(2) 0.88426(10)
N3 N 0.43614(9) 0.8100(2) 0.65200(10)
N4 N 0.43720(9) 0.6665(2) 0.57262(10)
C1 C 0.43191(11) 0.7038(3) 0.90758(13)
H3 H 0.4417 0.6213 0.8845
C2 C 0.41107(12) 0.8440(3) 0.98146(12)
H4 H 0.4033 0.8768 1.0212
C3 C 0.41014(12) 0.9279(3) 0.93134(12)
H5 H 0.4022 1.0283 0.9292
C4 C 0.42637(10) 0.8732(3) 0.82215(11)
C5 C 0.42903(11) 1.0049(3) 0.79674(13)
H6 H 0.4290 1.0928 0.8189
C6 C 0.43198(11) 0.9969(3) 0.73213(12)
H7 H 0.4341 1.0790 0.7064
C7 C 0.43134(10) 0.8592(3) 0.71213(12)
C8 C 0.43042(11) 0.6725(3) 0.63195(12)
H8 H 0.4226 0.5916 0.6570
C9 C 0.44825(12) 0.8959(3) 0.60228(12)
H9 H 0.4552 0.9969 0.6021
C10 C 0.44818(12) 0.8058(3) 0.55406(12)
H10 H 0.4547 0.8343 0.5135
H11 H 0.3659(10) 0.672(3) 1.0939(15)
H12 H 0.3687(13) 0.378(3) 0.9590(12)
Zn1D Zn 0.568087(13) 0.48070(3) 0.980116(14)
Zn1F Zn 0.431913(13) 0.48070(3) 0.519884(14)
O1D O 0.48363(8) 0.41821(19) 0.95153(8)
N4F N 0.43720(9) 0.3335(2) 1.07262(10)
S3 S 0.28474(3) 0.87144(8) 0.75129(4)
N5 N 0.28729(11) 0.6086(3) 0.92111(12)
N6 N 0.24410(9) 0.7272(3) 0.84928(11)
N7 N 0.25690(10) 1.0585(3) 0.66114(10)
N8 N 0.30640(11) 1.2050(3) 0.60473(12)
C11 C 0.29206(13) 0.6977(4) 0.87597(16)
H13 H 0.3257 0.7376 0.8632
C12 C 0.23324(13) 0.5779(4) 0.92451(15)
H14 H 0.2170 0.5154 0.9534
C13 C 0.20625(13) 0.6499(4) 0.88062(16)
H15 H 0.1683 0.6472 0.8731
C14 C 0.23349(12) 0.8213(3) 0.80086(13)
C15 C 0.18531(13) 0.8805(4) 0.78631(15)
H16 H 0.1527 0.8635 0.8081
C16 C 0.18884(13) 0.9712(4) 0.73460(15)
H17 H 0.1587 1.0213 0.7179
C17 C 0.23934(12) 0.9787(3) 0.71192(14)
C18 C 0.30373(13) 1.1348(3) 0.65624(14)
H18 H 0.3312 1.1372 0.6864
C19 C 0.22740(13) 1.0844(3) 0.60922(14)
H19 H 0.1925 1.0472 0.5994
C20 C 0.25843(13) 1.1737(3) 0.57503(14)
H20 H 0.2486 1.2095 0.5363
O7 O 0.43214(9) 0.6296(3) 0.22698(10)
H21 H 0.4619(11) 0.624(4) 0.2026(14)
H22 H 0.444(2) 0.656(7) 0.2638(12)
loop_
_geom_bond_atom_site_label_1
_geom_bond_atom_site_label_2
_geom_bond_site_symmetry_1
_geom_bond_site_symmetry_2
Zn1 O1 1_555 1_555
S1 C4 1_555 1_555
S2 O1 1_555 1_555
O1 Zn1D 1_555 1_555
O2 S2 1_555 1_555
O3 S2 1_555 1_555
O4 S2 1_555 1_555
O5 Zn1 1_555 1_555
H1 O5 1_555 1_555
O6 Zn1 1_555 1_555
H2 O6 1_555 1_555
N1 Zn1 1_555 1_555
N2 C1 1_555 1_555
N3 C7 1_555 1_555
N4 C8 1_555 1_555
C1 N1 1_555 1_555
H3 C1 1_555 1_555
C2 N1 1_555 1_555
H4 C2 1_555 1_555
C3 N2 1_555 1_555
H5 C3 1_555 1_555
C4 N2 1_555 1_555
C5 C4 1_555 1_555
H6 C5 1_555 1_555
C6 C5 1_555 1_555
H7 C6 1_555 1_555
C7 S1 1_555 1_555
C8 N3 1_555 1_555
H8 C8 1_555 1_555
C9 N3 1_555 1_555
H9 C9 1_555 1_555
C10 N4 1_555 1_555
H10 C10 1_555 1_555
H11 O5 1_555 1_555
H12 O6 1_555 1_555
S3 C14 1_555 1_555
N5 C11 1_555 1_555
N6 C11 1_555 1_555
N7 C17 1_555 1_555
N8 C18 1_555 1_555
C11 H13 1_555 1_555
C12 N5 1_555 1_555
H14 C12 1_555 1_555
C13 N6 1_555 1_555
H15 C13 1_555 1_555
C14 N6 1_555 1_555
C15 C14 1_555 1_555
H16 C15 1_555 1_555
C16 C15 1_555 1_555
H17 C16 1_555 1_555
C17 S3 1_555 1_555
C18 N7 1_555 1_555
H18 C18 1_555 1_555
C19 N7 1_555 1_555
H19 C19 1_555 1_555
C20 N8 1_555 1_555
H20 C20 1_555 1_555
O7 H21 1_555 1_555
H22 O7 1_555 1_555
Zn1D O1D 1_555 1_555
Zn1F N4 1_555 1_555
O1D Zn1 1_555 1_555
N4F Zn1 1_555 1_555
C2 C3 1_555 1_555
C6 C7 1_555 1_555
C9 C10 1_555 1_555
C12 C13 1_555 1_555
C16 C17 1_555 1_555
C19 C20 1_555 1_555

#END
