
#######################################################################
#
#                 Cambridge Crystallographic Data Centre
#                                CCDC 
#
#######################################################################
#
# If this CIF has been generated from an entry in the Cambridge 
# Structural Database, then it will include bibliographic, chemical, 
# crystal, experimental, refinement or atomic coordinate data resulting 
# from the CCDC's data processing and validation procedures.
#
#######################################################################

data_FNPHPB
_symmetry_cell_setting           monoclinic
_symmetry_space_group_name_H-M   'C c'
_symmetry_Int_Tables_number      9
_space_group_name_Hall           'C -2yc'
loop_
_symmetry_equiv_pos_site_id
_symmetry_equiv_pos_as_xyz
1 x,y,z
2 1/2+x,1/2+y,z
3 x,-y,1/2+z
4 1/2+x,1/2-y,1/2+z
_cell_length_a                   15.970(3)
_cell_length_b                   16.626(1)
_cell_length_c                   8.859(2)
_cell_angle_alpha                90
_cell_angle_beta                 116.50(1)
_cell_angle_gamma                90
_cell_volume                     2105.08
loop_
_atom_site_label
_atom_site_type_symbol
_atom_site_fract_x
_atom_site_fract_y
_atom_site_fract_z
Pb1 Pb 0.50000 0.30640 0.50000
F1 F 0.41800 0.19900 0.86400
O1 O 0.38800 0.30200 0.61500
O2 O 0.63800 0.31400 0.43700
N1 N 0.61400 0.26300 0.31000
C1 C 0.31900 0.29100 0.65400
C2 C 0.33200 0.22700 0.79300
C3 C 0.26800 0.21900 0.84600
C4 C 0.68200 0.25200 0.26600
C5 C 0.66900 0.19300 0.12700
C6 C 0.22900 0.32000 0.58400
C7 C 0.40600 0.37200 0.26800
C8 C 0.44700 0.41500 0.18600
C9 C 0.38400 0.45400 0.04200
C10 C 0.28000 0.45000 -0.03400
C11 C 0.24800 0.40200 0.06000
C12 C 0.31600 0.37200 0.22400
C13 C 0.49200 0.17800 0.47500
C14 C 0.43800 0.14900 0.31400
C15 C 0.43900 0.06400 0.31900
C16 C 0.48200 0.01500 0.45400
C17 C 0.53400 0.03600 0.61300
C18 C 0.53700 0.13300 0.62600
C19 C 0.59300 0.36500 0.73900
C20 C 0.68800 0.35900 0.80200
C21 C 0.74500 0.40500 0.94900
C22 C 0.70200 0.44800 1.02800
C23 C 0.61600 0.43900 0.99200
C24 C 0.55800 0.39500 0.84100
C4C C 0.18200 0.24800 0.76600
C3C C 0.76800 0.28100 0.34600
C6C C 0.72900 0.18000 0.08400
C5C C 0.16900 0.30700 0.62700
N1C N 0.11400 0.23700 0.81000
C2C C 0.83200 0.27300 0.29300
C1C C 0.81900 0.20900 0.15400
O2C O 0.13800 0.18600 0.93700
F1C F 0.91800 0.30100 0.36400
O1C O 0.88800 0.19800 0.11500
Pb1C Pb 0.00000 0.19360 1.00000
Pb1C_2 Pb 1.00000 0.19360 0.00000
O1C_2 O -0.11200 0.19800 1.11500
C7C C -0.09400 0.12800 0.76800
C13C C -0.00800 0.32200 0.97500
C19C C 0.09300 0.13500 1.23900
C8C C -0.05300 0.08500 0.68600
C12C C -0.18400 0.12800 0.72400
C14C C -0.06200 0.35100 0.81400
C18C C 0.03700 0.36700 1.12600
C20C C 0.18800 0.14100 1.30200
C24C C 0.05800 0.10500 1.34100
C9C C -0.11600 0.04600 0.54200
C11C C -0.25200 0.09800 0.56000
C15C C -0.06100 0.43600 0.81900
C17C C 0.03400 0.46400 1.11300
C21C C 0.24500 0.09500 1.44900
C23C C 0.11600 0.06100 1.49200
C10C C -0.22000 0.05000 0.46600
C16C C -0.01800 0.48500 0.95400
C22C C 0.20200 0.05200 1.52800
loop_
_geom_bond_atom_site_label_1
_geom_bond_atom_site_label_2
_geom_bond_site_symmetry_1
_geom_bond_site_symmetry_2
Pb1 O1 1_555 1_555
F1 C2 1_555 1_555
O1 C1 1_555 1_555
O2 Pb1 1_555 1_555
N1 O2 1_555 1_555
C1 C2 1_555 1_555
C2 C3 1_555 1_555
C3 C4C 1_555 1_555
C4 N1 1_555 1_555
C5 C4 1_555 1_555
C6 C1 1_555 1_555
C7 Pb1 1_555 1_555
C8 C7 1_555 1_555
C9 C8 1_555 1_555
C10 C9 1_555 1_555
C11 C10 1_555 1_555
C12 C7 1_555 1_555
C13 Pb1 1_555 1_555
C14 C13 1_555 1_555
C15 C14 1_555 1_555
C16 C15 1_555 1_555
C17 C16 1_555 1_555
C18 C13 1_555 1_555
C19 Pb1 1_555 1_555
C20 C19 1_555 1_555
C21 C20 1_555 1_555
C22 C21 1_555 1_555
C23 C22 1_555 1_555
C24 C19 1_555 1_555
C4C C5C 1_555 1_555
C3C C4 1_555 1_555
C6C C5 1_555 1_555
C5C C6 1_555 1_555
N1C C4C 1_555 1_555
C2C C3C 1_555 1_555
C1C C6C 1_555 1_555
O2C N1C 1_555 1_555
F1C C2C 1_555 1_555
O1C C1C 1_555 1_555
Pb1C O2C 1_555 1_555
Pb1C_2 O1C 1_555 1_555
O1C_2 Pb1C 1_555 1_555
C7C Pb1C 1_555 1_555
C13C Pb1C 1_555 1_555
C19C Pb1C 1_555 1_555
C8C C7C 1_555 1_555
C12C C7C 1_555 1_555
C14C C13C 1_555 1_555
C18C C13C 1_555 1_555
C20C C19C 1_555 1_555
C24C C19C 1_555 1_555
C9C C8C 1_555 1_555
C11C C12C 1_555 1_555
C15C C14C 1_555 1_555
C17C C18C 1_555 1_555
C21C C20C 1_555 1_555
C23C C24C 1_555 1_555
C10C C9C 1_555 1_555
C16C C15C 1_555 1_555
C22C C21C 1_555 1_555
C11 C12 1_555 1_555
C17 C18 1_555 1_555
C23 C24 1_555 1_555
C2C C1C 1_555 1_555
C11C C10C 1_555 1_555
C17C C16C 1_555 1_555
C23C C22C 1_555 1_555

#END
