
#######################################################################
#
#                 Cambridge Crystallographic Data Centre
#                                CCDC 
#
#######################################################################
#
# If this CIF has been generated from an entry in the Cambridge 
# Structural Database, then it will include bibliographic, chemical, 
# crystal, experimental, refinement or atomic coordinate data resulting 
# from the CCDC's data processing and validation procedures.
#
#######################################################################

data_FOBCEG
_symmetry_cell_setting           monoclinic
_symmetry_space_group_name_H-M   'C 2/c'
_symmetry_Int_Tables_number      15
_space_group_name_Hall           '-C 2yn'
loop_
_symmetry_equiv_pos_site_id
_symmetry_equiv_pos_as_xyz
1 x,y,z
2 -x,y,1/2-z
3 1/2+x,1/2+y,z
4 1/2-x,1/2+y,1/2-z
5 -x,-y,-z
6 x,-y,1/2+z
7 1/2-x,1/2-y,-z
8 1/2+x,1/2-y,1/2+z
_cell_length_a                   17.537(4)
_cell_length_b                   12.938(3)
_cell_length_c                   13.328(3)
_cell_angle_alpha                90
_cell_angle_beta                 93.78(3)
_cell_angle_gamma                90
_cell_volume                     3017.46
loop_
_atom_site_label
_atom_site_type_symbol
_atom_site_fract_x
_atom_site_fract_y
_atom_site_fract_z
Cu1 Cu 0.0000 0.0000 0.0000
S1 S 0.23060(5) 0.31566(8) 0.27952(7)
S2 S 0.0000 -0.13138(10) 0.2500
O1 O -0.00065(14) -0.06580(19) 0.16061(19)
O2 O -0.06973(19) -0.1951(2) 0.2453(2)
N1 N 0.04939(16) 0.1303(2) 0.0626(2)
N2 N 0.10612(16) 0.2365(2) 0.1714(2)
N3 N 0.39338(16) 0.4479(2) 0.5123(2)
N4 N 0.27863(16) 0.3908(2) 0.4637(2)
C1 C 0.07282(19) 0.1432(3) 0.1572(3)
H1 H 0.0672 0.0947 0.2077
C2 C 0.0695(2) 0.2176(3) 0.0128(3)
H2 H 0.0611 0.2289 -0.0559
C3 C 0.1034(2) 0.2845(3) 0.0787(3)
H3 H 0.1215 0.3501 0.0647
C4 C 0.1358(2) 0.2785(3) 0.2645(3)
C5 C 0.0990(2) 0.2889(3) 0.3488(3)
H4 H 0.0478 0.2723 0.3534
C6 C 0.1468(2) 0.3280(3) 0.4308(3)
H5 H 0.1309 0.3396 0.4950
C7 C 0.2179(2) 0.3459(3) 0.4030(3)
C8 C 0.35183(19) 0.3981(3) 0.4398(3)
H6 H 0.3708 0.3721 0.3813
C9 C 0.3435(2) 0.4731(3) 0.5846(3)
H7 H 0.3564 0.5094 0.6435
C10 C 0.2724(2) 0.4365(3) 0.5562(3)
H8 H 0.2287 0.4414 0.5919
O1A O 0.00065(14) -0.06580(19) 0.33939(19)
O2A O 0.06973(19) -0.1951(2) 0.2547(2)
S1D S -0.23060(5) -0.31566(8) -0.27952(7)
N1D N -0.04939(16) -0.1303(2) -0.0626(2)
N2D N -0.10612(16) -0.2365(2) -0.1714(2)
N3D N -0.39338(16) -0.4479(2) -0.5123(2)
N4D N -0.27863(16) -0.3908(2) -0.4637(2)
C1D C -0.07282(19) -0.1432(3) -0.1572(3)
H1D H -0.0672 -0.0947 -0.2077
C2D C -0.0695(2) -0.2176(3) -0.0128(3)
H2D H -0.0611 -0.2289 0.0559
C3D C -0.1034(2) -0.2845(3) -0.0787(3)
H3D H -0.1215 -0.3501 -0.0647
C4D C -0.1358(2) -0.2785(3) -0.2645(3)
C5D C -0.0990(2) -0.2889(3) -0.3488(3)
H4D H -0.0478 -0.2723 -0.3534
C6D C -0.1468(2) -0.3280(3) -0.4308(3)
H5D H -0.1309 -0.3396 -0.4950
C7D C -0.2179(2) -0.3459(3) -0.4030(3)
C8D C -0.35183(19) -0.3981(3) -0.4398(3)
H6D H -0.3708 -0.3721 -0.3813
C9D C -0.3435(2) -0.4731(3) -0.5846(3)
H7D H -0.3564 -0.5094 -0.6435
C10D C -0.2724(2) -0.4365(3) -0.5562(3)
H8D H -0.2287 -0.4414 -0.5919
Cu1A Cu 0.0000 0.0000 0.5000
Cu1C Cu -0.5000 -0.5000 -0.5000
Cu1C_2 Cu 0.5000 0.5000 0.5000
O1D O 0.00065(14) 0.06580(19) -0.16061(19)
N3C N 0.10662(16) -0.0521(2) -0.0123(2)
N3G N -0.10662(16) 0.0521(2) 0.0123(2)
loop_
_geom_bond_atom_site_label_1
_geom_bond_atom_site_label_2
_geom_bond_site_symmetry_1
_geom_bond_site_symmetry_2
Cu1 O1 1_555 1_555
S1 C4 1_555 1_555
S2 O1 1_555 1_555
O2 S2 1_555 1_555
N1 Cu1 1_555 1_555
N2 C1 1_555 1_555
N3 C8 1_555 1_555
N4 C7 1_555 1_555
C1 N1 1_555 1_555
H1 C1 1_555 1_555
C2 N1 1_555 1_555
H2 C2 1_555 1_555
C3 N2 1_555 1_555
H3 C3 1_555 1_555
C4 N2 1_555 1_555
C5 C4 1_555 1_555
H4 C5 1_555 1_555
C6 C5 1_555 1_555
H5 C6 1_555 1_555
C7 S1 1_555 1_555
C8 N4 1_555 1_555
H6 C8 1_555 1_555
C9 N3 1_555 1_555
H7 C9 1_555 1_555
C10 N4 1_555 1_555
H8 C10 1_555 1_555
O1A S2 1_555 1_555
O2A S2 1_555 1_555
S1D C4D 1_555 1_555
N1D Cu1 1_555 1_555
N2D C1D 1_555 1_555
N3D C8D 1_555 1_555
N4D C7D 1_555 1_555
C1D N1D 1_555 1_555
H1D C1D 1_555 1_555
C2D N1D 1_555 1_555
H2D C2D 1_555 1_555
C3D N2D 1_555 1_555
H3D C3D 1_555 1_555
C4D N2D 1_555 1_555
C5D C4D 1_555 1_555
H4D C5D 1_555 1_555
C6D C5D 1_555 1_555
H5D C6D 1_555 1_555
C7D S1D 1_555 1_555
C8D N4D 1_555 1_555
H6D C8D 1_555 1_555
C9D N3D 1_555 1_555
H7D C9D 1_555 1_555
C10D N4D 1_555 1_555
H8D C10D 1_555 1_555
Cu1A O1A 1_555 1_555
Cu1C N3D 1_555 1_555
Cu1C_2 N3 1_555 1_555
O1D Cu1 1_555 1_555
N3C Cu1 1_555 1_555
N3G Cu1 1_555 1_555
C2 C3 1_555 1_555
C6 C7 1_555 1_555
C9 C10 1_555 1_555
C2D C3D 1_555 1_555
C6D C7D 1_555 1_555
C9D C10D 1_555 1_555

#END
