
#######################################################################
#
#                 Cambridge Crystallographic Data Centre
#                                CCDC 
#
#######################################################################
#
# If this CIF has been generated from an entry in the Cambridge 
# Structural Database, then it will include bibliographic, chemical, 
# crystal, experimental, refinement or atomic coordinate data resulting 
# from the CCDC's data processing and validation procedures.
#
#######################################################################

data_FOBGAG
_symmetry_cell_setting           triclinic
_symmetry_space_group_name_H-M   'P -1'
_symmetry_Int_Tables_number      2
_space_group_name_Hall           '-P 1'
loop_
_symmetry_equiv_pos_site_id
_symmetry_equiv_pos_as_xyz
1 x,y,z
2 -x,-y,-z
_cell_length_a                   14.198(3)
_cell_length_b                   14.443(3)
_cell_length_c                   18.560(3)
_cell_angle_alpha                67.524(3)
_cell_angle_beta                 71.377(3)
_cell_angle_gamma                65.820(3)
_cell_volume                     3147.93
loop_
_atom_site_label
_atom_site_type_symbol
_atom_site_fract_x
_atom_site_fract_y
_atom_site_fract_z
Zn1 Zn 0.86388(3) 0.75215(3) 0.46400(2)
Zn2 Zn 1.0000 0.5000 0.5000
Zn3 Zn 0.67182(3) 0.17047(3) 0.95254(3)
Zn4 Zn 0.67365(4) 0.77959(3) -0.03009(3)
Zn5 Zn 1.13403(3) 0.66742(3) 0.46539(2)
N1 N 0.8389(2) 0.9121(2) 0.43405(18)
N2 N 0.6470(2) 1.3042(2) 0.38837(19)
N3 N 0.2883(2) 1.5793(2) 0.43183(18)
N4 N 0.6935(2) 0.6185(2) 0.01734(19)
N5 N 0.8376(2) 0.2208(2) 0.10108(19)
N6 N 1.1725(3) -0.0799(3) 0.0637(2)
O1 O 0.9407(2) 1.5228(2) 0.40343(15)
O2 O 0.8862(2) 1.3911(2) 0.41838(15)
O3 O 0.4592(2) 0.1740(2) 0.07311(17)
O4 O 0.6302(2) 0.1156(2) 0.06868(16)
O5 O 0.8102(2) 0.71166(19) 0.57943(15)
O6 O 0.8487(2) 0.5482(2) 0.57394(15)
O7 O 0.6518(3) 0.3211(2) 0.92577(17)
O8 O 0.7010(4) 0.2916(3) 0.8106(2)
O9 O 0.7608(2) 0.7495(2) 0.41712(17)
O10 O 0.8569(2) 0.8060(3) 0.29873(19)
O11 O 0.5934(2) 0.8210(2) 0.06939(16)
O12 O 0.7622(2) 0.7781(2) 0.06504(16)
O13 O 1.1199(3) 0.8158(2) 0.4658(2)
O14 O 1.1440(2) 0.8036(2) 0.3471(2)
O15 O 1.2022(3) 1.2467(2) 0.12547(17)
O16 O 1.2750(2) 1.0850(2) 0.11806(16)
C1 C 0.7604(3) 0.9693(3) 0.4779(2)
H1 H 0.7255 0.9335 0.5250
C2 C 0.7275(3) 1.0784(3) 0.4578(2)
H2 H 0.6711 1.1147 0.4901
C3 C 0.7805(3) 1.1336(3) 0.3880(2)
C4 C 0.8625(3) 1.0740(3) 0.3420(2)
H3 H 0.8999 1.1074 0.2952
C5 C 0.8884(3) 0.9651(3) 0.3660(2)
H4 H 0.9423 0.9267 0.3338
C6 C 0.7490(3) 1.2522(3) 0.3644(2)
C7 C 0.8227(3) 1.3035(3) 0.3208(2)
H5 H 0.8922 1.2645 0.3045
C8 C 0.7921(3) 1.4130(3) 0.3017(2)
C9 C 0.6867(3) 1.4676(3) 0.3237(2)
H6 H 0.6628 1.5413 0.3105
C10 C 0.6164(3) 1.4108(3) 0.3661(2)
C11 C 0.3474(3) 1.6179(3) 0.3633(2)
H7 H 0.3159 1.6834 0.3297
C12 C 0.4521(3) 1.5656(3) 0.3402(2)
H8 H 0.4895 1.5959 0.2919
C13 C 0.5022(3) 1.4681(3) 0.3886(2)
C14 C 0.4403(3) 1.4267(3) 0.4584(3)
H9 H 0.4697 1.3602 0.4920
C15 C 0.3359(3) 1.4831(3) 0.4783(3)
H10 H 0.2964 1.4537 0.5258
C16 C 0.8686(3) 1.4723(3) 0.2542(2)
C17 C 0.8816(3) 1.5043(3) 0.1719(2)
H11 H 0.8458 1.4856 0.1484
C18 C 0.9468(4) 1.5634(4) 0.1242(2)
H12 H 0.9544 1.5839 0.0692
C19 C 0.9999(3) 1.5917(3) 0.1576(2)
H13 H 1.0437 1.6314 0.1253
C20 C 0.9887(3) 1.5616(3) 0.2391(2)
H14 H 1.0252 1.5811 0.2614
C21 C 0.9230(3) 1.5020(3) 0.2888(2)
C22 C 0.9167(3) 1.4697(3) 0.3766(2)
C23 C 0.6232(3) 0.5831(3) 0.0772(3)
H15 H 0.5633 0.6328 0.0963
C24 C 0.6340(3) 0.4774(3) 0.1126(3)
H16 H 0.5824 0.4568 0.1544
C25 C 0.7231(3) 0.4014(3) 0.0851(2)
C26 C 0.7963(3) 0.4386(3) 0.0251(2)
H17 H 0.8582 0.3907 0.0061
C27 C 0.7800(3) 0.5452(3) -0.0077(2)
H18 H 0.8310 0.5675 -0.0490
C28 C 0.7393(3) 0.2851(3) 0.1197(2)
C29 C 0.6570(3) 0.2476(3) 0.1645(2)
H19 H 0.5900 0.2946 0.1760
C30 C 0.6754(3) 0.1389(3) 0.1921(2)
C31 C 0.7771(3) 0.0719(3) 0.1756(2)
H20 H 0.7924 -0.0013 0.1955
C32 C 0.8558(3) 0.1148(3) 0.1292(2)
C33 C 1.0983(4) -0.1217(3) 0.1108(4)
H21 H 1.1170 -0.1952 0.1305
C34 C 0.9953(4) -0.0622(3) 0.1320(3)
H22 H 0.9458 -0.0953 0.1637
C35 C 0.9660(3) 0.0472(3) 0.1057(2)
C36 C 1.0423(3) 0.0890(3) 0.0565(3)
H23 H 1.0256 0.1623 0.0359
C37 C 1.1432(3) 0.0251(3) 0.0369(3)
H24 H 1.1932 0.0566 0.0034
C38 C 0.5853(3) 0.0979(3) 0.2360(2)
C39 C 0.5644(3) 0.0661(3) 0.3189(2)
H25 H 0.6087 0.0670 0.3460
C40 C 0.4781(4) 0.0332(3) 0.3610(3)
H26 H 0.4645 0.0131 0.4163
C41 C 0.4124(3) 0.0301(3) 0.3220(2)
H27 H 0.3547 0.0078 0.3505
C42 C 0.4332(3) 0.0605(3) 0.2401(2)
H28 H 0.3891 0.0578 0.2137
C43 C 0.5186(3) 0.0952(3) 0.1959(2)
C44 C 0.5365(3) 0.1306(3) 0.1058(2)
C45 C 0.8065(3) 0.6172(3) 0.6101(2)
C46 C 0.7477(3) 0.5891(3) 0.6947(2)
C47 C 0.7060(3) 0.6629(3) 0.7379(2)
H29 H 0.7110 0.7306 0.7137
C48 C 0.6575(4) 0.6349(3) 0.8163(2)
H30 H 0.6301 0.6841 0.8448
C49 C 0.6490(3) 0.5347(3) 0.8534(2)
H31 H 0.6172 0.5167 0.9067
C50 C 0.6875(3) 0.4610(3) 0.8115(2)
C51 C 0.7375(3) 0.4895(3) 0.7318(2)
H32 H 0.7645 0.4404 0.7033
C52 C 0.6788(3) 0.3512(3) 0.8502(3)
C53 C 0.7801(3) 0.7789(3) 0.3409(3)
C54 C 0.6998(3) 0.7796(3) 0.3037(2)
C55 C 0.6015(3) 0.7751(3) 0.3489(2)
H33 H 0.5866 0.7691 0.4028
C56 C 0.5262(3) 0.7792(3) 0.3152(2)
H34 H 0.4612 0.7755 0.3462
C57 C 0.5472(3) 0.7889(3) 0.2349(2)
H35 H 0.4958 0.7929 0.2119
C58 C 0.6452(3) 0.7926(3) 0.1886(2)
C59 C 0.7214(3) 0.7877(3) 0.2233(2)
H36 H 0.7870 0.7898 0.1926
C60 C 0.6700(3) 0.7987(3) 0.1024(2)
C61 C 1.1327(3) 0.8554(3) 0.3925(3)
C62 C 1.1322(3) 0.9683(3) 0.3564(2)
C63 C 1.0927(3) 1.0375(3) 0.4034(3)
H37 H 1.0718 1.0120 0.4580
C64 C 1.0848(3) 1.1432(3) 0.3691(2)
H38 H 1.0563 1.1892 0.4003
C65 C 1.1195(3) 1.1802(3) 0.2881(2)
H39 H 1.1139 1.2514 0.2650
C66 C 1.1626(3) 1.1120(3) 0.2413(2)
C67 C 1.1674(3) 1.0067(3) 0.2753(2)
H40 H 1.1946 0.9615 0.2436
C68 C 1.2128(3) 1.1503(3) 0.1563(2)
O17 O 1.00994(19) 0.65598(18) 0.44412(14)
H41 H 1.020(3) 0.660(3) 0.3999(12)
O18 O 0.6131(2) 0.1039(3) 0.9100(2)
H42 H 0.651(3) 0.049(2) 0.896(3)
H43 H 0.5486(17) 0.113(4) 0.917(3)
Zn1A Zn 0.13612(3) 0.24785(3) -0.46400(2)
Zn3A Zn 0.32818(3) 0.82953(3) -0.95254(3)
Zn4A Zn 0.32635(4) 0.22041(3) 0.03009(3)
Zn5A Zn -0.13403(3) 0.33258(3) -0.46539(2)
N1A N 0.1611(2) 0.0879(2) -0.43405(18)
N2A N 0.3530(2) -0.3042(2) -0.38837(19)
N3A N 0.7117(2) -0.5793(2) -0.43183(18)
N4A N 0.3065(2) 0.3815(2) -0.01734(19)
N5A N 0.1624(2) 0.7792(2) -0.10108(19)
N6A N -0.1725(3) 1.0799(3) -0.0637(2)
O1A O 0.0593(2) -0.5228(2) -0.40343(15)
O2A O 0.1138(2) -0.3911(2) -0.41838(15)
O3A O 0.5408(2) 0.8260(2) -0.07311(17)
O4A O 0.3698(2) 0.8844(2) -0.06868(16)
O5A O 0.1898(2) 0.28834(19) -0.57943(15)
O6A O 0.1513(2) 0.4518(2) -0.57394(15)
O7A O 0.3482(3) 0.6789(2) -0.92577(17)
O8A O 0.2990(4) 0.7084(3) -0.8106(2)
O9A O 0.2392(2) 0.2505(2) -0.41712(17)
O10A O 0.1431(2) 0.1940(3) -0.29873(19)
O11A O 0.4066(2) 0.1790(2) -0.06939(16)
O12A O 0.2378(2) 0.2219(2) -0.06504(16)
O13A O -0.1199(3) 0.1842(2) -0.4658(2)
O14A O -0.1440(2) 0.1964(2) -0.3471(2)
O15A O -0.2022(3) -0.2467(2) -0.12547(17)
O16A O -0.2750(2) -0.0850(2) -0.11806(16)
C1A C 0.2396(3) 0.0307(3) -0.4779(2)
H1A H 0.2745 0.0665 -0.5250
C2A C 0.2725(3) -0.0784(3) -0.4578(2)
H2A H 0.3289 -0.1147 -0.4901
C3A C 0.2195(3) -0.1336(3) -0.3880(2)
C4A C 0.1375(3) -0.0740(3) -0.3420(2)
H3A H 0.1001 -0.1074 -0.2952
C5A C 0.1116(3) 0.0349(3) -0.3660(2)
H4A H 0.0577 0.0733 -0.3338
C6A C 0.2510(3) -0.2522(3) -0.3644(2)
C7A C 0.1773(3) -0.3035(3) -0.3208(2)
H5A H 0.1078 -0.2645 -0.3045
C8A C 0.2079(3) -0.4130(3) -0.3017(2)
C9A C 0.3133(3) -0.4676(3) -0.3237(2)
H6A H 0.3372 -0.5413 -0.3105
C10A C 0.3836(3) -0.4108(3) -0.3661(2)
C11A C 0.6526(3) -0.6179(3) -0.3633(2)
H7A H 0.6841 -0.6834 -0.3297
C12A C 0.5479(3) -0.5656(3) -0.3402(2)
H8A H 0.5105 -0.5959 -0.2919
C13A C 0.4978(3) -0.4681(3) -0.3886(2)
C14A C 0.5597(3) -0.4267(3) -0.4584(3)
H9A H 0.5303 -0.3602 -0.4920
C15A C 0.6641(3) -0.4831(3) -0.4783(3)
H10A H 0.7036 -0.4537 -0.5258
C16A C 0.1314(3) -0.4723(3) -0.2542(2)
C17A C 0.1184(3) -0.5043(3) -0.1719(2)
H11A H 0.1542 -0.4856 -0.1484
C18A C 0.0532(4) -0.5634(4) -0.1242(2)
H12A H 0.0456 -0.5839 -0.0692
C19A C 0.0001(3) -0.5917(3) -0.1576(2)
H13A H -0.0437 -0.6314 -0.1253
C20A C 0.0113(3) -0.5616(3) -0.2391(2)
H14A H -0.0252 -0.5811 -0.2614
C21A C 0.0770(3) -0.5020(3) -0.2888(2)
C22A C 0.0833(3) -0.4697(3) -0.3766(2)
C23A C 0.3768(3) 0.4169(3) -0.0772(3)
H15A H 0.4367 0.3672 -0.0963
C24A C 0.3660(3) 0.5226(3) -0.1126(3)
H16A H 0.4176 0.5432 -0.1544
C25A C 0.2769(3) 0.5986(3) -0.0851(2)
C26A C 0.2037(3) 0.5614(3) -0.0251(2)
H17A H 0.1418 0.6093 -0.0061
C27A C 0.2200(3) 0.4548(3) 0.0077(2)
H18A H 0.1690 0.4325 0.0490
C28A C 0.2607(3) 0.7149(3) -0.1197(2)
C29A C 0.3430(3) 0.7524(3) -0.1645(2)
H19A H 0.4100 0.7054 -0.1760
C30A C 0.3246(3) 0.8611(3) -0.1921(2)
C31A C 0.2229(3) 0.9281(3) -0.1756(2)
H20A H 0.2076 1.0013 -0.1955
C32A C 0.1442(3) 0.8852(3) -0.1292(2)
C33A C -0.0983(4) 1.1217(3) -0.1108(4)
H21A H -0.1170 1.1952 -0.1305
C34A C 0.0047(4) 1.0622(3) -0.1320(3)
H22A H 0.0542 1.0953 -0.1637
C35A C 0.0340(3) 0.9528(3) -0.1057(2)
C36A C -0.0423(3) 0.9110(3) -0.0565(3)
H23A H -0.0256 0.8377 -0.0359
C37A C -0.1432(3) 0.9749(3) -0.0369(3)
H24A H -0.1932 0.9434 -0.0034
C38A C 0.4147(3) 0.9021(3) -0.2360(2)
C39A C 0.4356(3) 0.9339(3) -0.3189(2)
H25A H 0.3913 0.9330 -0.3460
C40A C 0.5219(4) 0.9668(3) -0.3610(3)
H26A H 0.5355 0.9869 -0.4163
C41A C 0.5876(3) 0.9699(3) -0.3220(2)
H27A H 0.6453 0.9922 -0.3505
C42A C 0.5668(3) 0.9395(3) -0.2401(2)
H28A H 0.6109 0.9422 -0.2137
C43A C 0.4814(3) 0.9048(3) -0.1959(2)
C44A C 0.4635(3) 0.8694(3) -0.1058(2)
C45A C 0.1935(3) 0.3828(3) -0.6101(2)
C46A C 0.2523(3) 0.4109(3) -0.6947(2)
C47A C 0.2940(3) 0.3371(3) -0.7379(2)
H29A H 0.2890 0.2694 -0.7137
C48A C 0.3425(4) 0.3651(3) -0.8163(2)
H30A H 0.3699 0.3159 -0.8448
C49A C 0.3510(3) 0.4653(3) -0.8534(2)
H31A H 0.3828 0.4833 -0.9067
C50A C 0.3125(3) 0.5390(3) -0.8115(2)
C51A C 0.2625(3) 0.5105(3) -0.7318(2)
H32A H 0.2355 0.5596 -0.7033
C52A C 0.3212(3) 0.6488(3) -0.8502(3)
C53A C 0.2199(3) 0.2211(3) -0.3409(3)
C54A C 0.3002(3) 0.2204(3) -0.3037(2)
C55A C 0.3985(3) 0.2249(3) -0.3489(2)
H33A H 0.4134 0.2309 -0.4028
C56A C 0.4738(3) 0.2208(3) -0.3152(2)
H34A H 0.5388 0.2245 -0.3462
C57A C 0.4528(3) 0.2111(3) -0.2349(2)
H35A H 0.5042 0.2071 -0.2119
C58A C 0.3548(3) 0.2074(3) -0.1886(2)
C59A C 0.2786(3) 0.2123(3) -0.2233(2)
H36A H 0.2130 0.2102 -0.1926
C60A C 0.3300(3) 0.2013(3) -0.1024(2)
C61A C -0.1327(3) 0.1446(3) -0.3925(3)
C62A C -0.1322(3) 0.0317(3) -0.3564(2)
C63A C -0.0927(3) -0.0375(3) -0.4034(3)
H37A H -0.0718 -0.0120 -0.4580
C64A C -0.0848(3) -0.1432(3) -0.3691(2)
H38A H -0.0563 -0.1892 -0.4003
C65A C -0.1195(3) -0.1802(3) -0.2881(2)
H39A H -0.1139 -0.2514 -0.2650
C66A C -0.1626(3) -0.1120(3) -0.2413(2)
C67A C -0.1674(3) -0.0067(3) -0.2753(2)
H40A H -0.1946 0.0385 -0.2436
C68A C -0.2128(3) -0.1503(3) -0.1563(2)
O17A O -0.00994(19) 0.34402(18) -0.44412(14)
H41A H -0.020(3) 0.340(3) -0.3999(12)
O18A O 0.3869(2) 0.8961(3) -0.9100(2)
H42A H 0.349(3) 0.951(2) -0.896(3)
H43A H 0.4514(17) 0.887(4) -0.917(3)
Zn2_2 Zn 0.0000 -0.5000 -0.5000
Zn2_3 Zn 0.0000 0.5000 -0.5000
Zn2_4 Zn 1.0000 1.5000 0.5000
Zn3_2 Zn -0.32818(3) 1.17047(3) -0.04746(3)
Zn3_3 Zn 0.67182(3) 0.17047(3) -0.04746(3)
Zn3A_2 Zn 0.32818(3) 0.82953(3) 0.04746(3)
Zn3A_3 Zn 1.32818(3) -0.17047(3) 0.04746(3)
Zn4_2 Zn -0.32635(4) -0.22041(3) -0.03009(3)
Zn4A_2 Zn 1.32635(4) 1.22041(3) 0.03009(3)
Zn5_2 Zn 0.13403(3) -0.33258(3) -0.53461(2)
Zn5_3 Zn 0.13403(3) 1.66742(3) 0.46539(2)
Zn5A_2 Zn 0.86597(3) -0.66742(3) -0.46539(2)
Zn5A_3 Zn 0.86597(3) 1.33258(3) 0.53461(2)
N3_2 N 1.2883(2) 0.5793(2) 0.43183(18)
N3A_2 N -0.2883(2) 0.4207(2) -0.43183(18)
N6_2 N 0.1725(3) 0.9201(3) -0.9363(2)
N6A_2 N 0.8275(3) 0.0799(3) 0.9363(2)
O1_2 O 0.9407(2) 0.5228(2) 0.40343(15)
O1A_2 O 1.0593(2) 0.4772(2) 0.59657(15)
O2_2 O -0.1138(2) 0.3911(2) -0.58162(15)
O2A_2 O 1.1138(2) 0.6089(2) 0.58162(15)
O4_2 O 0.6302(2) 0.1156(2) 1.06868(16)
O4A_2 O 0.3698(2) 0.8844(2) -1.06868(16)
O6A_2 O 1.1513(2) 0.4518(2) 0.42606(15)
O15_2 O 0.2022(3) 0.2467(2) 0.12547(17)
O15A_2 O 0.7978(3) 0.7533(2) -0.12547(17)
O16_2 O 0.2750(2) 0.0850(2) 0.11806(16)
O16A_2 O 0.7250(2) 0.9150(2) -0.11806(16)
O17A_2 O 0.99006(19) 0.34402(18) 0.55588(14)
O19 O 0.0625(4) 0.7168(4) 0.2799(3)
O20 O 0.5494(10) 0.8157(10) 0.5348(7)
loop_
_geom_bond_atom_site_label_1
_geom_bond_atom_site_label_2
_geom_bond_site_symmetry_1
_geom_bond_site_symmetry_2
Zn1 N1 1_555 1_555
Zn2 O6 1_555 1_555
Zn3 O7 1_555 1_555
Zn4 N4 1_555 1_555
Zn5 O13 1_555 1_555
N1 C1 1_555 1_555
N2 C6 1_555 1_555
N3 C11 1_555 1_555
N4 C23 1_555 1_555
N5 C28 1_555 1_555
N6 C33 1_555 1_555
O1 C22 1_555 1_555
O2 C22 1_555 1_555
O3 C44 1_555 1_555
O4 C44 1_555 1_555
O5 Zn1 1_555 1_555
O6 C45 1_555 1_555
O7 C52 1_555 1_555
O8 Zn3 1_555 1_555
O9 Zn1 1_555 1_555
O10 C53 1_555 1_555
O11 Zn4 1_555 1_555
O12 Zn4 1_555 1_555
O13 C61 1_555 1_555
O14 Zn5 1_555 1_555
O15 C68 1_555 1_555
O16 C68 1_555 1_555
C1 H1 1_555 1_555
C2 C1 1_555 1_555
H2 C2 1_555 1_555
C3 C2 1_555 1_555
C4 C3 1_555 1_555
H3 C4 1_555 1_555
C5 N1 1_555 1_555
H4 C5 1_555 1_555
C6 C3 1_555 1_555
C7 C6 1_555 1_555
H5 C7 1_555 1_555
C8 C7 1_555 1_555
C9 C8 1_555 1_555
H6 C9 1_555 1_555
C10 N2 1_555 1_555
C11 H7 1_555 1_555
C12 C11 1_555 1_555
H8 C12 1_555 1_555
C13 C10 1_555 1_555
C14 C13 1_555 1_555
H9 C14 1_555 1_555
C15 N3 1_555 1_555
H10 C15 1_555 1_555
C16 C8 1_555 1_555
C17 C16 1_555 1_555
H11 C17 1_555 1_555
C18 C17 1_555 1_555
H12 C18 1_555 1_555
C19 C18 1_555 1_555
H13 C19 1_555 1_555
C20 C19 1_555 1_555
H14 C20 1_555 1_555
C21 C16 1_555 1_555
C22 C21 1_555 1_555
C23 H15 1_555 1_555
C24 C23 1_555 1_555
H16 C24 1_555 1_555
C25 C24 1_555 1_555
C26 C25 1_555 1_555
H17 C26 1_555 1_555
C27 N4 1_555 1_555
H18 C27 1_555 1_555
C28 C25 1_555 1_555
C29 C28 1_555 1_555
H19 C29 1_555 1_555
C30 C29 1_555 1_555
C31 C30 1_555 1_555
H20 C31 1_555 1_555
C32 N5 1_555 1_555
C33 H21 1_555 1_555
C34 C33 1_555 1_555
H22 C34 1_555 1_555
C35 C32 1_555 1_555
C36 C35 1_555 1_555
H23 C36 1_555 1_555
C37 N6 1_555 1_555
H24 C37 1_555 1_555
C38 C30 1_555 1_555
C39 C38 1_555 1_555
H25 C39 1_555 1_555
C40 C39 1_555 1_555
H26 C40 1_555 1_555
C41 C40 1_555 1_555
H27 C41 1_555 1_555
C42 C41 1_555 1_555
H28 C42 1_555 1_555
C43 C38 1_555 1_555
C44 C43 1_555 1_555
C45 O5 1_555 1_555
C46 C45 1_555 1_555
C47 C46 1_555 1_555
H29 C47 1_555 1_555
C48 C47 1_555 1_555
H30 C48 1_555 1_555
C49 C48 1_555 1_555
H31 C49 1_555 1_555
C50 C49 1_555 1_555
C51 C46 1_555 1_555
H32 C51 1_555 1_555
C52 O8 1_555 1_555
C53 O9 1_555 1_555
C54 C53 1_555 1_555
C55 C54 1_555 1_555
H33 C55 1_555 1_555
C56 C55 1_555 1_555
H34 C56 1_555 1_555
C57 C56 1_555 1_555
H35 C57 1_555 1_555
C58 C57 1_555 1_555
C59 C54 1_555 1_555
H36 C59 1_555 1_555
C60 O11 1_555 1_555
C61 O14 1_555 1_555
C62 C61 1_555 1_555
C63 C62 1_555 1_555
H37 C63 1_555 1_555
C64 C63 1_555 1_555
H38 C64 1_555 1_555
C65 C64 1_555 1_555
H39 C65 1_555 1_555
C66 C65 1_555 1_555
C67 C62 1_555 1_555
H40 C67 1_555 1_555
C68 C66 1_555 1_555
O17 Zn1 1_555 1_555
H41 O17 1_555 1_555
O18 Zn3 1_555 1_555
H42 O18 1_555 1_555
H43 O18 1_555 1_555
Zn1A N1A 1_555 1_555
Zn3A O7A 1_555 1_555
Zn4A O3 1_555 1_555
Zn5A O13A 1_555 1_555
N1A C1A 1_555 1_555
N2A C6A 1_555 1_555
N3A C11A 1_555 1_555
N4A Zn4A 1_555 1_555
N5A C28A 1_555 1_555
N6A C33A 1_555 1_555
O1A C22A 1_555 1_555
O2A C22A 1_555 1_555
O3A Zn4 1_555 1_555
O4A C44A 1_555 1_555
O5A Zn1A 1_555 1_555
O6A C45A 1_555 1_555
O7A C52A 1_555 1_555
O8A Zn3A 1_555 1_555
O9A Zn1A 1_555 1_555
O10A C53A 1_555 1_555
O11A Zn4A 1_555 1_555
O12A Zn4A 1_555 1_555
O13A C61A 1_555 1_555
O14A Zn5A 1_555 1_555
O15A C68A 1_555 1_555
O16A C68A 1_555 1_555
C1A H1A 1_555 1_555
C2A C1A 1_555 1_555
H2A C2A 1_555 1_555
C3A C2A 1_555 1_555
C4A C3A 1_555 1_555
H3A C4A 1_555 1_555
C5A N1A 1_555 1_555
H4A C5A 1_555 1_555
C6A C3A 1_555 1_555
C7A C6A 1_555 1_555
H5A C7A 1_555 1_555
C8A C7A 1_555 1_555
C9A C8A 1_555 1_555
H6A C9A 1_555 1_555
C10A N2A 1_555 1_555
C11A H7A 1_555 1_555
C12A C11A 1_555 1_555
H8A C12A 1_555 1_555
C13A C10A 1_555 1_555
C14A C13A 1_555 1_555
H9A C14A 1_555 1_555
C15A N3A 1_555 1_555
H10A C15A 1_555 1_555
C16A C8A 1_555 1_555
C17A C16A 1_555 1_555
H11A C17A 1_555 1_555
C18A C17A 1_555 1_555
H12A C18A 1_555 1_555
C19A C18A 1_555 1_555
H13A C19A 1_555 1_555
C20A C19A 1_555 1_555
H14A C20A 1_555 1_555
C21A C16A 1_555 1_555
C22A C21A 1_555 1_555
C23A N4A 1_555 1_555
H15A C23A 1_555 1_555
C24A C23A 1_555 1_555
H16A C24A 1_555 1_555
C25A C24A 1_555 1_555
C26A C25A 1_555 1_555
H17A C26A 1_555 1_555
C27A N4A 1_555 1_555
H18A C27A 1_555 1_555
C28A C25A 1_555 1_555
C29A C28A 1_555 1_555
H19A C29A 1_555 1_555
C30A C29A 1_555 1_555
C31A C30A 1_555 1_555
H20A C31A 1_555 1_555
C32A N5A 1_555 1_555
C33A H21A 1_555 1_555
C34A C33A 1_555 1_555
H22A C34A 1_555 1_555
C35A C32A 1_555 1_555
C36A C35A 1_555 1_555
H23A C36A 1_555 1_555
C37A N6A 1_555 1_555
H24A C37A 1_555 1_555
C38A C30A 1_555 1_555
C39A C38A 1_555 1_555
H25A C39A 1_555 1_555
C40A C39A 1_555 1_555
H26A C40A 1_555 1_555
C41A C40A 1_555 1_555
H27A C41A 1_555 1_555
C42A C41A 1_555 1_555
H28A C42A 1_555 1_555
C43A C38A 1_555 1_555
C44A O3A 1_555 1_555
C45A O5A 1_555 1_555
C46A C45A 1_555 1_555
C47A C46A 1_555 1_555
H29A C47A 1_555 1_555
C48A C47A 1_555 1_555
H30A C48A 1_555 1_555
C49A C48A 1_555 1_555
H31A C49A 1_555 1_555
C50A C49A 1_555 1_555
C51A C46A 1_555 1_555
H32A C51A 1_555 1_555
C52A O8A 1_555 1_555
C53A O9A 1_555 1_555
C54A C53A 1_555 1_555
C55A C54A 1_555 1_555
H33A C55A 1_555 1_555
C56A C55A 1_555 1_555
H34A C56A 1_555 1_555
C57A C56A 1_555 1_555
H35A C57A 1_555 1_555
C58A C57A 1_555 1_555
C59A C54A 1_555 1_555
H36A C59A 1_555 1_555
C60A O11A 1_555 1_555
C61A O14A 1_555 1_555
C62A C61A 1_555 1_555
C63A C62A 1_555 1_555
H37A C63A 1_555 1_555
C64A C63A 1_555 1_555
H38A C64A 1_555 1_555
C65A C64A 1_555 1_555
H39A C65A 1_555 1_555
C66A C65A 1_555 1_555
C67A C62A 1_555 1_555
H40A C67A 1_555 1_555
C68A C66A 1_555 1_555
O17A Zn1A 1_555 1_555
H41A O17A 1_555 1_555
O18A Zn3A 1_555 1_555
H42A O18A 1_555 1_555
H43A O18A 1_555 1_555
Zn2_2 O1A 1_555 1_555
Zn2_3 O6A 1_555 1_555
Zn2_4 O1 1_555 1_555
Zn3_2 N6A 1_555 1_555
Zn3_3 O4 1_555 1_555
Zn3A_2 O4A 1_555 1_555
Zn3A_3 N6 1_555 1_555
Zn4_2 O15A 1_555 1_555
Zn4A_2 O15 1_555 1_555
Zn5_2 O2A 1_555 1_555
Zn5_3 N3 1_555 1_555
Zn5A_2 N3A 1_555 1_555
Zn5A_3 O2 1_555 1_555
N3_2 Zn5 1_555 1_555
N3A_2 Zn5A 1_555 1_555
N6_2 Zn3A 1_555 1_555
N6A_2 Zn3 1_555 1_555
O1_2 Zn2 1_555 1_555
O1A_2 Zn2 1_555 1_555
O2_2 Zn5A 1_555 1_555
O2A_2 Zn5 1_555 1_555
O4_2 Zn3 1_555 1_555
O4A_2 Zn3A 1_555 1_555
O6A_2 Zn2 1_555 1_555
O15_2 Zn4A 1_555 1_555
O15A_2 Zn4 1_555 1_555
O16_2 Zn4A 1_555 1_555
O16A_2 Zn4 1_555 1_555
O17A_2 Zn2 1_555 1_555
Zn2 O17 1_555 1_555
Zn5 O17 1_555 1_555
O12 C60 1_555 1_555
O16 Zn4A_2 1_555 1_555
C4 C5 1_555 1_555
C9 C10 1_555 1_555
C12 C13 1_555 1_555
C14 C15 1_555 1_555
C20 C21 1_555 1_555
C26 C27 1_555 1_555
C31 C32 1_555 1_555
C34 C35 1_555 1_555
C36 C37 1_555 1_555
C42 C43 1_555 1_555
C50 C51 1_555 1_555
C50 C52 1_555 1_555
C58 C59 1_555 1_555
C58 C60 1_555 1_555
C66 C67 1_555 1_555
Zn5A O17A 1_555 1_555
O12A C60A 1_555 1_555
O16A Zn4_2 1_555 1_555
C4A C5A 1_555 1_555
C9A C10A 1_555 1_555
C12A C13A 1_555 1_555
C14A C15A 1_555 1_555
C20A C21A 1_555 1_555
C26A C27A 1_555 1_555
C31A C32A 1_555 1_555
C34A C35A 1_555 1_555
C36A C37A 1_555 1_555
C42A C43A 1_555 1_555
C43A C44A 1_555 1_555
C50A C51A 1_555 1_555
C50A C52A 1_555 1_555
C58A C59A 1_555 1_555
C58A C60A 1_555 1_555
C66A C67A 1_555 1_555
O17A Zn2_3 1_555 1_555

#END
