
#######################################################################
#
#                 Cambridge Crystallographic Data Centre
#                                CCDC 
#
#######################################################################
#
# If this CIF has been generated from an entry in the Cambridge 
# Structural Database, then it will include bibliographic, chemical, 
# crystal, experimental, refinement or atomic coordinate data resulting 
# from the CCDC's data processing and validation procedures.
#
#######################################################################

data_FOBGUZ
_symmetry_cell_setting           monoclinic
_symmetry_space_group_name_H-M   'P 21/c'
_symmetry_Int_Tables_number      14
_space_group_name_Hall           '-P 2ybc'
loop_
_symmetry_equiv_pos_site_id
_symmetry_equiv_pos_as_xyz
1 x,y,z
2 -x,1/2+y,1/2-z
3 -x,-y,-z
4 x,1/2-y,1/2+z
_cell_length_a                   16.988(5)
_cell_length_b                   8.264(5)
_cell_length_c                   16.684(5)
_cell_angle_alpha                90
_cell_angle_beta                 115.545(5)
_cell_angle_gamma                90
_cell_volume                     2113.29
loop_
_atom_site_label
_atom_site_type_symbol
_atom_site_fract_x
_atom_site_fract_y
_atom_site_fract_z
K1 K 0.48393(4) 0.76680(8) 0.44990(4)
K2 K 0.48713(4) 0.25630(8) 0.30078(4)
O1 O 0.56423(15) 0.5064(3) 0.41519(15)
H1 H 0.593(2) 0.530(4) 0.388(2)
H2 H 0.600(2) 0.488(4) 0.469(2)
P1 P 0.33805(5) 0.91344(9) 0.24331(5)
O2 O 0.36536(13) 1.0483(2) 0.20149(12)
O3 O 0.39210(13) 0.7605(2) 0.26240(12)
O4 O 0.33949(13) 0.9678(3) 0.33459(12)
H3 H 0.345(2) 1.075(4) 0.349(2)
P2 P 0.32654(5) 0.41668(9) 0.34859(5)
O5 O 0.34161(13) 0.5556(2) 0.41123(12)
O6 O 0.37650(12) 0.2624(2) 0.38732(12)
O7 O 0.34709(13) 0.4659(3) 0.26816(12)
H4 H 0.354(2) 0.581(4) 0.2584(19)
O8 O 0.58219(14) 1.0514(3) 0.44093(14)
C1 C 0.6599(2) 1.0863(4) 0.4900(2)
H5 H 0.678(2) 1.189(4) 0.523(2)
N1 N 0.72794(17) 0.9940(3) 0.50084(16)
C2 C 0.7170(2) 0.8421(4) 0.4539(2)
H6 H 0.7163 0.7529 0.4922
H7 H 0.7655 0.8269 0.4376
H8 H 0.6619 0.8437 0.3999
C3 C 0.8147(2) 1.0357(5) 0.5668(2)
H9 H 0.8128 1.1403 0.5936
H10 H 0.8544 1.0429 0.5383
H11 H 0.8355 0.9522 0.613
C4 C 0.22678(19) 0.8596(3) 0.17227(18)
C5 C 0.1865(2) 0.9167(4) 0.08473(19)
H12 H 0.217 0.9888 0.0637
C6 C 0.1026(2) 0.8686(4) 0.0287(2)
H13 H 0.0756 0.9095 -0.0303
C7 C 0.0577(2) 0.7617(4) 0.0575(2)
H14 H 0.0003 0.7285 0.0185
C8 C 0.0970(2) 0.7035(4) 0.1436(2)
H15 H 0.0667 0.6289 0.1635
C9 C 0.1801(2) 0.7528(3) 0.2009(2)
H16 H 0.2058 0.714 0.2603
C10 C 0.21195(19) 0.3656(3) 0.29914(18)
C11 C 0.1563(2) 0.4214(3) 0.33420(19)
H17 H 0.1779 0.4936 0.3833
C12 C 0.0697(2) 0.3732(4) 0.2985(2)
H18 H 0.0322 0.4127 0.323
C13 C 0.0376(2) 0.2671(4) 0.2266(2)
H19 H -0.0217 0.2336 0.2022
C14 C 0.0923(2) 0.2106(4) 0.1911(2)
H20 H 0.0706 0.1382 0.1421
C15 C 0.1786(2) 0.2594(3) 0.22680(19)
H21 H 0.2157 0.2203 0.2018
K1B K 0.51607(4) 0.23320(8) 0.55010(4)
K1B_2 K 0.51607(4) 1.23320(8) 0.55010(4)
K2_2 K 0.48713(4) 1.25630(8) 0.30078(4)
K2A K 0.51287(4) 0.75630(8) 0.19922(4)
O2_2 O 0.36536(13) 0.0483(2) 0.20149(12)
O3A O 0.60790(13) 0.2605(2) 0.23760(12)
O6B O 0.62350(12) 0.7376(2) 0.61268(12)
O8B O 0.41781(14) 0.9486(3) 0.55907(14)
O8_2 O 0.58219(14) 0.0514(3) 0.44093(14)
loop_
_geom_bond_atom_site_label_1
_geom_bond_atom_site_label_2
_geom_bond_site_symmetry_1
_geom_bond_site_symmetry_2
K1 O1 1_555 1_555
K2 O1 1_555 1_555
O1 H1 1_555 1_555
H2 O1 1_555 1_555
P1 O2 1_555 1_555
O2 K2_2 1_555 1_555
O3 K1 1_555 1_555
O4 K1 1_555 1_555
H3 O4 1_555 1_555
P2 O5 1_555 1_555
O5 K1 1_555 1_555
O6 K2 1_555 1_555
O7 K2 1_555 1_555
H4 O7 1_555 1_555
O8 K1 1_555 1_555
C1 O8 1_555 1_555
H5 C1 1_555 1_555
N1 C1 1_555 1_555
C2 N1 1_555 1_555
H6 C2 1_555 1_555
H7 C2 1_555 1_555
H8 C2 1_555 1_555
C3 N1 1_555 1_555
H9 C3 1_555 1_555
H10 C3 1_555 1_555
H11 C3 1_555 1_555
C4 P1 1_555 1_555
C5 C4 1_555 1_555
H12 C5 1_555 1_555
C6 C5 1_555 1_555
H13 C6 1_555 1_555
C7 C6 1_555 1_555
H14 C7 1_555 1_555
C8 C7 1_555 1_555
H15 C8 1_555 1_555
C9 C4 1_555 1_555
H16 C9 1_555 1_555
C10 P2 1_555 1_555
C11 C10 1_555 1_555
H17 C11 1_555 1_555
C12 C11 1_555 1_555
H18 C12 1_555 1_555
C13 C12 1_555 1_555
H19 C13 1_555 1_555
C14 C13 1_555 1_555
H20 C14 1_555 1_555
C15 C10 1_555 1_555
H21 C15 1_555 1_555
K1B O6 1_555 1_555
K1B_2 O8 1_555 1_555
K2_2 O8 1_555 1_555
K2A O3 1_555 1_555
O2_2 K2 1_555 1_555
O3A K2 1_555 1_555
O6B K1 1_555 1_555
O8B K1 1_555 1_555
O8_2 K2 1_555 1_555
P1 O3 1_555 1_555
P1 O4 1_555 1_555
P2 O6 1_555 1_555
P2 O7 1_555 1_555
C8 C9 1_555 1_555
C14 C15 1_555 1_555
K1B O8_2 1_555 1_555
K1B_2 O8B 1_555 1_555

#END
