
#######################################################################
#
#                 Cambridge Crystallographic Data Centre
#                                CCDC 
#
#######################################################################
#
# If this CIF has been generated from an entry in the Cambridge 
# Structural Database, then it will include bibliographic, chemical, 
# crystal, experimental, refinement or atomic coordinate data resulting 
# from the CCDC's data processing and validation procedures.
#
#######################################################################

data_FOBGIN
_symmetry_cell_setting           orthorhombic
_symmetry_space_group_name_H-M   'P b c a'
_symmetry_Int_Tables_number      61
_space_group_name_Hall           '-P 2ac 2ab'
loop_
_symmetry_equiv_pos_site_id
_symmetry_equiv_pos_as_xyz
1 x,y,z
2 1/2-x,-y,1/2+z
3 -x,1/2+y,1/2-z
4 1/2+x,1/2-y,-z
5 -x,-y,-z
6 1/2+x,y,1/2-z
7 x,1/2-y,1/2+z
8 1/2-x,1/2+y,z
_cell_length_a                   9.885(3)
_cell_length_b                   8.867(2)
_cell_length_c                   17.092(4)
_cell_angle_alpha                90
_cell_angle_beta                 90
_cell_angle_gamma                90
_cell_volume                     1498.12
loop_
_atom_site_label
_atom_site_type_symbol
_atom_site_fract_x
_atom_site_fract_y
_atom_site_fract_z
Cu1 Cu 0.5000 0.5000 0.5000
Cl1 Cl 0.60885(5) 0.47837(6) 0.61608(3)
N1 N 0.34388(18) 0.7420(2) 0.54928(10)
N2 N 0.30988(16) 0.80519(19) 0.61691(9)
N3 N 0.20047(17) 0.8880(2) 0.61424(9)
N4 N 0.15870(16) 0.87998(18) 0.54076(9)
C1 C 0.2466(2) 0.7918(3) 0.50275(11)
H1 H 0.2401 0.7683 0.4499
C2 C 0.3933(2) 0.7940(3) 0.68746(12)
H2 H 0.3412 0.8275 0.7323
H3 H 0.4183 0.6895 0.6960
C3 C 0.5195(3) 0.8884(4) 0.68043(16)
H4 H 0.5790 0.8425 0.6421
H5 H 0.5662 0.8880 0.7303
C4 C 0.4932(4) 1.0486(5) 0.6569(3)
H6 H 0.4255 1.0913 0.6905
H7 H 0.5753 1.1059 0.6614
H8 H 0.4620 1.0513 0.6037
Cu1G Cu 0.0000 1.0000 0.5000
Cu1G_2 Cu 1.0000 0.0000 0.5000
Cl1D Cl 0.39115(5) 0.52163(6) 0.38392(3)
N1D N 0.65612(18) 0.2580(2) 0.45072(10)
N2D N 0.69012(16) 0.19481(19) 0.38309(9)
N3D N 0.79953(17) 0.1120(2) 0.38576(9)
N4D N 0.84130(16) 0.12002(18) 0.45924(9)
N4G N 0.34130(16) 0.37998(18) 0.54076(9)
N4C N 0.65870(16) 0.62002(18) 0.45924(9)
C1D C 0.7534(2) 0.2082(3) 0.49725(11)
H1D H 0.7599 0.2317 0.5501
C2D C 0.6067(2) 0.2060(3) 0.31254(12)
H2D H 0.6588 0.1725 0.2677
H3D H 0.5817 0.3105 0.3040
C3D C 0.4805(3) 0.1116(4) 0.31957(16)
H4D H 0.4210 0.1575 0.3579
H5D H 0.4338 0.1120 0.2697
C4D C 0.5068(4) -0.0486(5) 0.3431(3)
H6D H 0.5745 -0.0913 0.3095
H7D H 0.4247 -0.1059 0.3386
H8D H 0.5380 -0.0513 0.3963
loop_
_geom_bond_atom_site_label_1
_geom_bond_atom_site_label_2
_geom_bond_site_symmetry_1
_geom_bond_site_symmetry_2
Cu1 Cl1 1_555 1_555
N1 Cu1 1_555 1_555
N2 N1 1_555 1_555
N3 N2 1_555 1_555
N4 N3 1_555 1_555
C1 N1 1_555 1_555
H1 C1 1_555 1_555
C2 N2 1_555 1_555
H2 C2 1_555 1_555
H3 C2 1_555 1_555
C3 C2 1_555 1_555
H4 C3 1_555 1_555
H5 C3 1_555 1_555
C4 C3 1_555 1_555
H6 C4 1_555 1_555
H7 C4 1_555 1_555
H8 C4 1_555 1_555
Cu1G N4 1_555 1_555
Cu1G_2 N4D 1_555 1_555
Cl1D Cu1 1_555 1_555
N1D Cu1 1_555 1_555
N2D N1D 1_555 1_555
N3D N2D 1_555 1_555
N4D N3D 1_555 1_555
N4G Cu1 1_555 1_555
N4C Cu1 1_555 1_555
C1D N1D 1_555 1_555
H1D C1D 1_555 1_555
C2D N2D 1_555 1_555
H2D C2D 1_555 1_555
H3D C2D 1_555 1_555
C3D C2D 1_555 1_555
H4D C3D 1_555 1_555
H5D C3D 1_555 1_555
C4D C3D 1_555 1_555
H6D C4D 1_555 1_555
H7D C4D 1_555 1_555
H8D C4D 1_555 1_555
N4 C1 1_555 1_555
N4D C1D 1_555 1_555

#END
