
#######################################################################
#
#                 Cambridge Crystallographic Data Centre
#                                CCDC 
#
#######################################################################
#
# If this CIF has been generated from an entry in the Cambridge 
# Structural Database, then it will include bibliographic, chemical, 
# crystal, experimental, refinement or atomic coordinate data resulting 
# from the CCDC's data processing and validation procedures.
#
#######################################################################

data_FOBGOT
_symmetry_cell_setting           monoclinic
_symmetry_space_group_name_H-M   'P 21/c'
_symmetry_Int_Tables_number      14
_space_group_name_Hall           '-P 2ybc'
loop_
_symmetry_equiv_pos_site_id
_symmetry_equiv_pos_as_xyz
1 x,y,z
2 -x,1/2+y,1/2-z
3 -x,-y,-z
4 x,1/2-y,1/2+z
_cell_length_a                   8.524(3)
_cell_length_b                   8.855(3)
_cell_length_c                   9.593(2)
_cell_angle_alpha                90
_cell_angle_beta                 105.51(2)
_cell_angle_gamma                90
_cell_volume                     697.712
loop_
_atom_site_label
_atom_site_type_symbol
_atom_site_fract_x
_atom_site_fract_y
_atom_site_fract_z
Cu1 Cu 1.0000 0.5000 0.5000
Cl1 Cl 0.75801(6) 0.38044(6) 0.46359(5)
N1 N 0.9006(2) 0.7257(2) 0.6272(2)
N2 N 0.7622(2) 0.79875(19) 0.61737(18)
N3 N 0.7682(2) 0.8954(2) 0.72137(18)
N4 N 0.9182(2) 0.88685(18) 0.80631(18)
C1 C 0.9958(3) 0.7833(3) 0.7467(2)
H1 H 1.1040 0.7557 0.7853
C2 C 0.6133(3) 0.7740(3) 0.5005(2)
H2 H 0.6116 0.6703 0.4677
H3 H 0.5196 0.7886 0.5383
C3 C 0.5992(3) 0.8769(3) 0.3747(3)
H4 H 0.5045 0.8686 0.2995
C4 C 0.7047(6) 0.9770(4) 0.3584(4)
H5 H 0.8015 0.9899 0.4303
H6 H 0.6834 1.0355 0.2750
Cu1C Cu 1.0000 1.0000 1.0000
Cu1C_2 Cu 1.0000 0.0000 0.0000
Cl1B Cl 1.24199(6) 0.61956(6) 0.53641(5)
N1B N 1.0994(2) 0.2743(2) 0.3728(2)
N2B N 1.2378(2) 0.20125(19) 0.38263(18)
N3B N 1.2318(2) 0.1046(2) 0.27863(18)
N4B N 1.0818(2) 0.11315(18) 0.19369(18)
N4C N 0.9182(2) 0.61315(18) 0.30631(18)
N4A N 1.0818(2) 0.38685(18) 0.69369(18)
C1B C 1.0042(3) 0.2167(3) 0.2533(2)
H1B H 0.8960 0.2443 0.2147
C2B C 1.3867(3) 0.2260(3) 0.4995(2)
H2B H 1.3884 0.3297 0.5323
H3B H 1.4804 0.2114 0.4617
C3B C 1.4008(3) 0.1231(3) 0.6253(3)
H4B H 1.4955 0.1314 0.7005
C4B C 1.2953(6) 0.0230(4) 0.6416(4)
H5B H 1.1985 0.0101 0.5697
H6B H 1.3166 -0.0355 0.7250
loop_
_geom_bond_atom_site_label_1
_geom_bond_atom_site_label_2
_geom_bond_site_symmetry_1
_geom_bond_site_symmetry_2
Cu1 Cl1 1_555 1_555
N1 Cu1 1_555 1_555
N2 N1 1_555 1_555
N3 N2 1_555 1_555
N4 N3 1_555 1_555
C1 N1 1_555 1_555
H1 C1 1_555 1_555
C2 N2 1_555 1_555
H2 C2 1_555 1_555
H3 C2 1_555 1_555
C3 C2 1_555 1_555
H4 C3 1_555 1_555
C4 C3 1_555 1_555
H5 C4 1_555 1_555
H6 C4 1_555 1_555
Cu1C N4 1_555 1_555
Cu1C_2 N4B 1_555 1_555
Cl1B Cu1 1_555 1_555
N1B Cu1 1_555 1_555
N2B N1B 1_555 1_555
N3B N2B 1_555 1_555
N4B N3B 1_555 1_555
N4C Cu1 1_555 1_555
N4A Cu1 1_555 1_555
C1B N1B 1_555 1_555
H1B C1B 1_555 1_555
C2B N2B 1_555 1_555
H2B C2B 1_555 1_555
H3B C2B 1_555 1_555
C3B C2B 1_555 1_555
H4B C3B 1_555 1_555
C4B C3B 1_555 1_555
H5B C4B 1_555 1_555
H6B C4B 1_555 1_555
N4 C1 1_555 1_555
N4B C1B 1_555 1_555

#END
