
#######################################################################
#
#                 Cambridge Crystallographic Data Centre
#                                CCDC 
#
#######################################################################
#
# If this CIF has been generated from an entry in the Cambridge 
# Structural Database, then it will include bibliographic, chemical, 
# crystal, experimental, refinement or atomic coordinate data resulting 
# from the CCDC's data processing and validation procedures.
#
#######################################################################

data_FOBGEJ
_symmetry_cell_setting           monoclinic
_symmetry_space_group_name_H-M   'C 2/c'
_symmetry_Int_Tables_number      15
_space_group_name_Hall           '-C 2yn'
loop_
_symmetry_equiv_pos_site_id
_symmetry_equiv_pos_as_xyz
1 x,y,z
2 1/2+x,1/2+y,z
3 -x,y,1/2-z
4 1/2-x,1/2+y,1/2-z
5 -x,-y,-z
6 1/2-x,1/2-y,-z
7 x,-y,1/2+z
8 1/2+x,1/2-y,1/2+z
_cell_length_a                   15.159(4)
_cell_length_b                   16.758(4)
_cell_length_c                   8.954(2)
_cell_angle_alpha                90
_cell_angle_beta                 116.534(4)
_cell_angle_gamma                90
_cell_volume                     2035.04
loop_
_atom_site_label
_atom_site_type_symbol
_atom_site_fract_x
_atom_site_fract_y
_atom_site_fract_z
Mn1 Mn 0.5000 0.60804(3) 0.2500
O1 O 0.5000 0.48051(14) 0.2500
O2 O 0.47762(11) 0.61073(9) 0.48286(18)
O3 O 0.42974(11) 0.72364(9) 0.34538(18)
N1 N 0.79659(13) 0.67070(11) 0.6125(2)
H1 H 0.8332 0.6992 0.6977
N2 N 0.66212(12) 0.60945(11) 0.4250(2)
C1 C 0.70035(16) 0.65556(14) 0.5580(3)
H2 H 0.6638 0.6758 0.6096
C2 C 0.74632(17) 0.54631(14) 0.2644(3)
H3 H 0.6911 0.5199 0.1861
C3 C 0.83540(18) 0.54129(15) 0.2609(3)
H4 H 0.8404 0.5105 0.1785
C4 C 0.91957(18) 0.58104(16) 0.3775(3)
H5 H 0.9787 0.5762 0.3703
C5 C 0.91604(17) 0.62694(14) 0.5021(3)
H6 H 0.9715 0.6533 0.5800
C6 C 0.82603(16) 0.63194(13) 0.5058(3)
C7 C 0.74162(16) 0.59263(13) 0.3901(3)
C8 C 0.43051(15) 0.67614(14) 0.4541(2)
C9 C 0.37271(16) 0.69502(15) 0.5505(3)
H7 H 0.4154 0.7232 0.6518
H8 H 0.3533 0.6453 0.5829
C10 C 0.28131(16) 0.74493(14) 0.4540(3)
H9 H 0.2419 0.7198 0.3470
H10 H 0.3010 0.7971 0.4329
H11 H 0.5058(19) 0.4520(16) 0.332(3)
Mn1G Mn 0.0000 0.89196(3) 0.7500
O2E O 0.02238(11) 0.88927(9) 0.51714(18)
O2B O 0.52238(11) 0.61073(9) 0.01714(18)
O3E O 0.07026(11) 0.77636(9) 0.65462(18)
O3B O 0.57026(11) 0.72364(9) 0.15462(18)
N1B N 0.20341(13) 0.67070(11) -0.1125(2)
H1B H 0.1668 0.6992 -0.1977
N2B N 0.33788(12) 0.60945(11) 0.0750(2)
C1B C 0.29965(16) 0.65556(14) -0.0580(3)
H2B H 0.3362 0.6758 -0.1096
C2B C 0.25368(17) 0.54631(14) 0.2356(3)
H3B H 0.3089 0.5199 0.3139
C3B C 0.16460(18) 0.54129(15) 0.2391(3)
H4B H 0.1596 0.5105 0.3215
C4B C 0.08043(18) 0.58104(16) 0.1225(3)
H5B H 0.0213 0.5762 0.1297
C5B C 0.08396(17) 0.62694(14) -0.0021(3)
H6B H 0.0285 0.6533 -0.0800
C6B C 0.17397(16) 0.63194(13) -0.0058(3)
C7B C 0.25838(16) 0.59263(13) 0.1099(3)
C8E C 0.06949(15) 0.82386(14) 0.5459(2)
C9E C 0.12729(16) 0.80498(15) 0.4495(3)
H7E H 0.0846 0.7768 0.3482
H8E H 0.1467 0.8547 0.4171
C10E C 0.21869(16) 0.75507(14) 0.5460(3)
H9E H 0.2581 0.7802 0.6530
H10E H 0.1990 0.7029 0.5671
H11B H 0.4942(19) 0.4520(16) 0.168(3)
loop_
_geom_bond_atom_site_label_1
_geom_bond_atom_site_label_2
_geom_bond_site_symmetry_1
_geom_bond_site_symmetry_2
Mn1 O1 1_555 1_555
O1 H11 1_555 1_555
O2 Mn1 1_555 1_555
O3 Mn1 1_555 1_555
N1 H1 1_555 1_555
N2 Mn1 1_555 1_555
C1 N1 1_555 1_555
H2 C1 1_555 1_555
C2 H3 1_555 1_555
C3 C2 1_555 1_555
H4 C3 1_555 1_555
C4 C3 1_555 1_555
H5 C4 1_555 1_555
C5 C4 1_555 1_555
H6 C5 1_555 1_555
C6 N1 1_555 1_555
C7 N2 1_555 1_555
C8 O2 1_555 1_555
C9 C8 1_555 1_555
H7 C9 1_555 1_555
H8 C9 1_555 1_555
C10 C9 1_555 1_555
H9 C10 1_555 1_555
H10 C10 1_555 1_555
Mn1G O2E 1_555 1_555
O2E C8E 1_555 1_555
O2B Mn1 1_555 1_555
O3E Mn1G 1_555 1_555
O3B Mn1 1_555 1_555
N1B H1B 1_555 1_555
N2B Mn1 1_555 1_555
C1B N1B 1_555 1_555
H2B C1B 1_555 1_555
C2B H3B 1_555 1_555
C3B C2B 1_555 1_555
H4B C3B 1_555 1_555
C4B C3B 1_555 1_555
H5B C4B 1_555 1_555
C5B C4B 1_555 1_555
H6B C5B 1_555 1_555
C6B N1B 1_555 1_555
C7B N2B 1_555 1_555
C8E O3E 1_555 1_555
C9E C8E 1_555 1_555
H7E C9E 1_555 1_555
H8E C9E 1_555 1_555
C10E C10 1_555 1_555
H9E C10E 1_555 1_555
H10E C10E 1_555 1_555
H11B O1 1_555 1_555
O3 C8 1_555 1_555
N2 C1 1_555 1_555
C2 C7 1_555 1_555
C5 C6 1_555 1_555
C6 C7 1_555 1_555
N2B C1B 1_555 1_555
C2B C7B 1_555 1_555
C5B C6B 1_555 1_555
C6B C7B 1_555 1_555
C9E C10E 1_555 1_555

#END
