
#######################################################################
#
#                 Cambridge Crystallographic Data Centre
#                                CCDC 
#
#######################################################################
#
# If this CIF has been generated from an entry in the Cambridge 
# Structural Database, then it will include bibliographic, chemical, 
# crystal, experimental, refinement or atomic coordinate data resulting 
# from the CCDC's data processing and validation procedures.
#
#######################################################################

data_FOBGUA
_symmetry_cell_setting           monoclinic
_symmetry_space_group_name_H-M   'P 21/c'
_symmetry_Int_Tables_number      14
_space_group_name_Hall           '-P 2ybc'
loop_
_symmetry_equiv_pos_site_id
_symmetry_equiv_pos_as_xyz
1 x,y,z
2 -x,1/2+y,1/2-z
3 -x,-y,-z
4 x,1/2-y,1/2+z
_cell_length_a                   11.8907(7)
_cell_length_b                   10.7607(7)
_cell_length_c                   8.4193(5)
_cell_angle_alpha                90
_cell_angle_beta                 101.4600(10)
_cell_angle_gamma                90
_cell_volume                     1055.79
loop_
_atom_site_label
_atom_site_type_symbol
_atom_site_fract_x
_atom_site_fract_y
_atom_site_fract_z
Mn1 Mn 0.91559(3) 0.67273(3) 1.05927(4)
P1 P 0.03326(5) 0.59088(5) 0.76161(6)
N1 N 0.17299(16) 0.5481(2) 0.5480(3)
H1 H 0.1030 0.5505 0.4832
H2 H 0.1880 0.4683 0.5763
O1 O 0.01914(13) 0.45066(14) 0.75818(19)
O2 O 0.04520(14) 0.65173(15) 0.92558(19)
O3 O -0.05809(13) 0.64770(14) 0.63047(18)
O4 O 0.76169(15) 0.6105(2) 0.9232(2)
O5 O 0.76043(17) 0.7959(2) 0.8089(3)
C1 C 0.16846(19) 0.6199(2) 0.6969(3)
H3 H 0.1756 0.7079 0.6759
H4 H 0.2321 0.5960 0.7825
C2 C 0.25853(19) 0.5902(3) 0.4525(3)
H5 H 0.2305 0.6659 0.3956
H6 H 0.2643 0.5276 0.3716
C3 C 0.37724(18) 0.6144(2) 0.5516(3)
C4 C 0.4349(2) 0.7216(2) 0.5230(3)
H7 H 0.3993 0.7780 0.4454
C5 C 0.54486(19) 0.7455(2) 0.6086(3)
H8 H 0.5830 0.8170 0.5865
C6 C 0.59825(18) 0.6635(2) 0.7269(3)
C7 C 0.5413(2) 0.5557(2) 0.7540(3)
H9 H 0.5768 0.4992 0.8317
C8 C 0.43151(19) 0.5308(2) 0.6664(3)
H10 H 0.3945 0.4577 0.6851
C9 C 0.7156(2) 0.6939(3) 0.8255(3)
Mn1_2 Mn -0.08441(3) 0.67273(3) 1.05927(4)
Mn1B Mn 0.08441(3) 0.32727(3) 0.94073(4)
Mn1C Mn -0.08441(3) 0.82727(3) 0.55927(4)
O1B O 0.98086(13) 0.54934(14) 1.24182(19)
O2_2 O 1.04520(14) 0.65173(15) 0.92558(19)
O3C O 0.94191(13) 0.85230(14) 1.13047(18)
loop_
_geom_bond_atom_site_label_1
_geom_bond_atom_site_label_2
_geom_bond_site_symmetry_1
_geom_bond_site_symmetry_2
Mn1 O4 1_555 1_555
P1 O1 1_555 1_555
N1 H1 1_555 1_555
H2 N1 1_555 1_555
O1 Mn1B 1_555 1_555
O2 P1 1_555 1_555
O3 P1 1_555 1_555
O4 C9 1_555 1_555
O5 C9 1_555 1_555
C1 P1 1_555 1_555
H3 C1 1_555 1_555
H4 C1 1_555 1_555
C2 N1 1_555 1_555
H5 C2 1_555 1_555
H6 C2 1_555 1_555
C3 C2 1_555 1_555
C4 C3 1_555 1_555
H7 C4 1_555 1_555
C5 C4 1_555 1_555
H8 C5 1_555 1_555
C6 C5 1_555 1_555
C7 C6 1_555 1_555
H9 C7 1_555 1_555
C8 C3 1_555 1_555
H10 C8 1_555 1_555
C9 C6 1_555 1_555
Mn1_2 O2 1_555 1_555
Mn1C O3 1_555 1_555
O1B Mn1 1_555 1_555
O2_2 Mn1 1_555 1_555
O3C Mn1 1_555 1_555
N1 C1 1_555 1_555
C7 C8 1_555 1_555

#END
