
#######################################################################
#
#                 Cambridge Crystallographic Data Centre
#                                CCDC 
#
#######################################################################
#
# If this CIF has been generated from an entry in the Cambridge 
# Structural Database, then it will include bibliographic, chemical, 
# crystal, experimental, refinement or atomic coordinate data resulting 
# from the CCDC's data processing and validation procedures.
#
#######################################################################

data_FOBGIO
_symmetry_cell_setting           monoclinic
_symmetry_space_group_name_H-M   'P 2/n'
_symmetry_Int_Tables_number      13
_space_group_name_Hall           '-P 2yac'
loop_
_symmetry_equiv_pos_site_id
_symmetry_equiv_pos_as_xyz
1 x,y,z
2 1/2-x,y,1/2-z
3 -x,-y,-z
4 1/2+x,-y,1/2+z
_cell_length_a                   12.5807(16)
_cell_length_b                   9.3402(12)
_cell_length_c                   19.104(3)
_cell_angle_alpha                90
_cell_angle_beta                 103.775(3)
_cell_angle_gamma                90
_cell_volume                     2180.27
loop_
_atom_site_label
_atom_site_type_symbol
_atom_site_fract_x
_atom_site_fract_y
_atom_site_fract_z
Zn1 Zn 0.51655(4) -0.00777(5) 0.14705(3)
N1 N 0.5291(3) 0.0505(4) 0.25178(19)
N2 N 0.4448(3) 0.1783(4) 0.4873(2)
N3 N 0.1524(3) 0.0867(4) 0.61696(19)
O1 O 0.9431(3) 0.1876(3) 0.6382(2)
O2 O 0.7749(3) 0.1145(3) 0.6306(2)
O3 O 0.4767(3) 0.1564(3) 0.08506(16)
O4 O 0.6323(3) 0.2565(3) 0.14556(17)
C1 C 0.6099(4) 0.1337(5) 0.2883(3)
H1 H 0.6660 0.1578 0.2664
C2 C 0.6152(4) 0.1852(5) 0.3557(2)
H2 H 0.6737 0.2424 0.3785
C3 C 0.5329(4) 0.1521(5) 0.3903(2)
C4 C 0.4493(4) 0.0652(5) 0.3534(3)
H3 H 0.3929 0.0393 0.3747
C5 C 0.4491(4) 0.0169(5) 0.2858(2)
H4 H 0.3917 -0.0413 0.2621
C6 C 0.5352(4) 0.2058(5) 0.4637(2)
C7 C 0.6225(4) 0.2796(5) 0.5053(2)
H5 H 0.6848 0.2950 0.4882
C8 C 0.6178(4) 0.3313(5) 0.5730(2)
C9 C 0.5220(4) 0.3060(5) 0.5955(2)
H6 H 0.5146 0.3415 0.6396
C10 C 0.4375(4) 0.2280(5) 0.5524(2)
C11 C 0.2135(4) 0.1935(5) 0.6518(2)
H7 H 0.1920 0.2365 0.6902
C12 C 0.3069(4) 0.2430(5) 0.6339(2)
H8 H 0.3490 0.3140 0.6615
C13 C 0.3376(4) 0.1865(5) 0.5743(2)
C14 C 0.2685(4) 0.0827(5) 0.5352(2)
H9 H 0.2832 0.0452 0.4933
C15 C 0.1794(4) 0.0355(5) 0.5578(2)
H10 H 0.1356 -0.0351 0.5311
C16 C 0.7098(4) 0.4186(5) 0.6176(2)
C17 C 0.6897(4) 0.5626(5) 0.6284(3)
H11 H 0.6197 0.5994 0.6111
C18 C 0.7721(5) 0.6513(5) 0.6643(3)
H12 H 0.7574 0.7474 0.6706
C19 C 0.8746(5) 0.5996(5) 0.6906(3)
H13 H 0.9295 0.6593 0.7160
C20 C 0.8970(4) 0.4576(5) 0.6794(3)
H14 H 0.9679 0.4231 0.6963
C21 C 0.8148(4) 0.3652(5) 0.6431(2)
C22 C 0.8431(4) 0.2088(5) 0.6353(3)
C23 C 0.5472(4) 0.2581(5) 0.0966(3)
C24 C 0.5213(4) 0.3838(4) 0.0460(2)
C25 C 0.4187(4) 0.4024(5) 0.0024(2)
H15 H 0.3635 0.3373 0.0042
C26 C 0.3971(4) 0.5179(5) -0.0441(2)
H16 H 0.3277 0.5294 -0.0742
O3B O 0.5233(3) 0.8436(3) -0.08506(16)
O4B O 0.3677(3) 0.7435(3) -0.14556(17)
C23B C 0.4528(4) 0.7419(5) -0.0966(3)
C24B C 0.4787(4) 0.6162(4) -0.0460(2)
C25B C 0.5813(4) 0.5976(5) -0.0024(2)
H15B H 0.6365 0.6627 -0.0042
C26B C 0.6029(4) 0.4821(5) 0.0441(2)
H16B H 0.6723 0.4706 0.0742
Zn1B Zn 0.48345(4) 1.00777(5) -0.14705(3)
N1B N 0.4709(3) 0.9495(4) -0.25178(19)
N2B N 0.5552(3) 0.8217(4) -0.4873(2)
N3B N 0.8476(3) 0.9133(4) -0.61696(19)
O1B O 0.0569(3) 0.8124(3) -0.6382(2)
O2B O 0.2251(3) 0.8855(3) -0.6306(2)
C1B C 0.3901(4) 0.8663(5) -0.2883(3)
H1B H 0.3340 0.8422 -0.2664
C2B C 0.3848(4) 0.8148(5) -0.3557(2)
H2B H 0.3263 0.7576 -0.3785
C3B C 0.4671(4) 0.8479(5) -0.3903(2)
C4B C 0.5507(4) 0.9348(5) -0.3534(3)
H3B H 0.6071 0.9607 -0.3747
C5B C 0.5509(4) 0.9831(5) -0.2858(2)
H4B H 0.6083 1.0413 -0.2621
C6B C 0.4648(4) 0.7942(5) -0.4637(2)
C7B C 0.3775(4) 0.7204(5) -0.5053(2)
H5B H 0.3152 0.7050 -0.4882
C8B C 0.3822(4) 0.6687(5) -0.5730(2)
C9B C 0.4780(4) 0.6940(5) -0.5955(2)
H6B H 0.4854 0.6585 -0.6396
C10B C 0.5625(4) 0.7720(5) -0.5524(2)
C11B C 0.7865(4) 0.8065(5) -0.6518(2)
H7B H 0.8080 0.7635 -0.6902
C12B C 0.6931(4) 0.7570(5) -0.6339(2)
H8B H 0.6510 0.6860 -0.6615
C13B C 0.6624(4) 0.8135(5) -0.5743(2)
C14B C 0.7315(4) 0.9173(5) -0.5352(2)
H9B H 0.7168 0.9548 -0.4933
C15B C 0.8206(4) 0.9645(5) -0.5578(2)
H10B H 0.8644 1.0351 -0.5311
C16B C 0.2902(4) 0.5814(5) -0.6176(2)
C17B C 0.3103(4) 0.4374(5) -0.6284(3)
H11B H 0.3803 0.4006 -0.6111
C18B C 0.2279(5) 0.3487(5) -0.6643(3)
H12B H 0.2426 0.2526 -0.6706
C19B C 0.1254(5) 0.4004(5) -0.6906(3)
H13B H 0.0705 0.3407 -0.7160
C20B C 0.1030(4) 0.5424(5) -0.6794(3)
H14B H 0.0321 0.5769 -0.6963
C21B C 0.1852(4) 0.6348(5) -0.6431(2)
C22B C 0.1569(4) 0.7912(5) -0.6353(3)
Zn1A Zn -0.01655(4) 0.99223(5) -0.64705(3)
Zn1A_2 Zn 0.98345(4) 0.99223(5) -0.64705(3)
Zn1C Zn 0.01655(4) 0.00777(5) 0.64705(3)
Zn1C_2 Zn 1.01655(4) 0.00777(5) 0.64705(3)
N3A N 0.3476(3) 1.0867(4) -0.11696(19)
N3C N 0.6524(3) -0.0867(4) 0.11696(19)
O1A O 0.5569(3) 1.1876(3) -0.1382(2)
O1C O 0.4431(3) -0.1876(3) 0.1382(2)
O5 O 0.2500 0.5200(6) 0.7500
H17 H 0.238(7) 0.581(5) 0.717(2)
H17A H 0.262(7) 0.581(5) 0.783(2)
loop_
_geom_bond_atom_site_label_1
_geom_bond_atom_site_label_2
_geom_bond_site_symmetry_1
_geom_bond_site_symmetry_2
Zn1 N1 1_555 1_555
N1 C1 1_555 1_555
N2 C6 1_555 1_555
N3 C11 1_555 1_555
O1 C22 1_555 1_555
O2 C22 1_555 1_555
O3 Zn1 1_555 1_555
O4 C23 1_555 1_555
C1 H1 1_555 1_555
C2 C1 1_555 1_555
H2 C2 1_555 1_555
C3 C2 1_555 1_555
C4 C3 1_555 1_555
H3 C4 1_555 1_555
C5 N1 1_555 1_555
H4 C5 1_555 1_555
C6 C3 1_555 1_555
C7 C6 1_555 1_555
H5 C7 1_555 1_555
C8 C7 1_555 1_555
C9 C8 1_555 1_555
H6 C9 1_555 1_555
C10 N2 1_555 1_555
C11 H7 1_555 1_555
C12 C11 1_555 1_555
H8 C12 1_555 1_555
C13 C10 1_555 1_555
C14 C13 1_555 1_555
H9 C14 1_555 1_555
C15 N3 1_555 1_555
H10 C15 1_555 1_555
C16 C8 1_555 1_555
C17 C16 1_555 1_555
H11 C17 1_555 1_555
C18 C17 1_555 1_555
H12 C18 1_555 1_555
C19 C18 1_555 1_555
H13 C19 1_555 1_555
C20 C19 1_555 1_555
H14 C20 1_555 1_555
C21 C16 1_555 1_555
C22 C21 1_555 1_555
C23 O3 1_555 1_555
C24 C23 1_555 1_555
C25 C24 1_555 1_555
H15 C25 1_555 1_555
C26 C25 1_555 1_555
H16 C26 1_555 1_555
O5 H17 1_555 1_555
O3B C23B 1_555 1_555
O4B C23B 1_555 1_555
C23B C24B 1_555 1_555
C24B C26 1_555 1_555
C25B C24B 1_555 1_555
H15B C25B 1_555 1_555
C26B C24 1_555 1_555
H16B C26B 1_555 1_555
Zn1B O3B 1_555 1_555
N1B Zn1B 1_555 1_555
N2B C6B 1_555 1_555
N3B C11B 1_555 1_555
O1B C22B 1_555 1_555
O2B C22B 1_555 1_555
C1B N1B 1_555 1_555
H1B C1B 1_555 1_555
C2B C1B 1_555 1_555
H2B C2B 1_555 1_555
C3B C2B 1_555 1_555
C4B C3B 1_555 1_555
H3B C4B 1_555 1_555
C5B N1B 1_555 1_555
H4B C5B 1_555 1_555
C6B C3B 1_555 1_555
C7B C6B 1_555 1_555
H5B C7B 1_555 1_555
C8B C7B 1_555 1_555
C9B C8B 1_555 1_555
H6B C9B 1_555 1_555
C10B N2B 1_555 1_555
C11B H7B 1_555 1_555
C12B C11B 1_555 1_555
H8B C12B 1_555 1_555
C13B C10B 1_555 1_555
C14B C13B 1_555 1_555
H9B C14B 1_555 1_555
C15B N3B 1_555 1_555
H10B C15B 1_555 1_555
C16B C8B 1_555 1_555
C17B C16B 1_555 1_555
H11B C17B 1_555 1_555
C18B C17B 1_555 1_555
H12B C18B 1_555 1_555
C19B C18B 1_555 1_555
H13B C19B 1_555 1_555
C20B C19B 1_555 1_555
H14B C20B 1_555 1_555
C21B C16B 1_555 1_555
C22B C21B 1_555 1_555
Zn1A O1B 1_555 1_555
Zn1A_2 N3B 1_555 1_555
Zn1C N3 1_555 1_555
Zn1C_2 O1 1_555 1_555
N3A Zn1B 1_555 1_555
N3C Zn1 1_555 1_555
O1A Zn1B 1_555 1_555
O1C Zn1 1_555 1_555
H17A O5 1_555 1_555
C4 C5 1_555 1_555
C9 C10 1_555 1_555
C12 C13 1_555 1_555
C14 C15 1_555 1_555
C20 C21 1_555 1_555
C25B C26B 1_555 1_555
C4B C5B 1_555 1_555
C9B C10B 1_555 1_555
C12B C13B 1_555 1_555
C14B C15B 1_555 1_555
C20B C21B 1_555 1_555

#END
