
#######################################################################
#
#                 Cambridge Crystallographic Data Centre
#                                CCDC 
#
#######################################################################
#
# If this CIF has been generated from an entry in the Cambridge 
# Structural Database, then it will include bibliographic, chemical, 
# crystal, experimental, refinement or atomic coordinate data resulting 
# from the CCDC's data processing and validation procedures.
#
#######################################################################

data_FOBHAG
_symmetry_cell_setting           monoclinic
_symmetry_space_group_name_H-M   'C 2/c'
_symmetry_Int_Tables_number      15
_space_group_name_Hall           '-C 2yn'
loop_
_symmetry_equiv_pos_site_id
_symmetry_equiv_pos_as_xyz
1 x,y,z
2 1/2+x,1/2+y,z
3 -x,y,1/2-z
4 1/2-x,1/2+y,1/2-z
5 -x,-y,-z
6 1/2-x,1/2-y,-z
7 x,-y,1/2+z
8 1/2+x,1/2-y,1/2+z
_cell_length_a                   21.343(7)
_cell_length_b                   15.260(5)
_cell_length_c                   16.658(6)
_cell_angle_alpha                90
_cell_angle_beta                 127.094(5)
_cell_angle_gamma                90
_cell_volume                     4327.57
loop_
_atom_site_label
_atom_site_type_symbol
_atom_site_fract_x
_atom_site_fract_y
_atom_site_fract_z
Ni1 Ni 0.133935(17) 0.251246(17) 0.62064(2)
Cr1 Cr 0.33243(2) 0.20390(3) 0.77624(3)
Cr2 Cr 0.42678(2) 0.26482(3) 1.00533(3)
O1 O 0.25321(10) 0.26572(11) 0.70270(13)
O2 O 0.31487(11) 0.10568(13) 0.73330(15)
O3 O 0.40446(11) 0.24397(13) 0.78138(15)
O4 O 0.35578(10) 0.19958(12) 0.89870(12)
O5 O 0.40137(12) 0.36647(12) 0.98216(16)
O6 O 0.42760(11) 0.23169(13) 1.09782(14)
O7 O 0.51402(10) 0.25213(10) 1.03205(13)
N1 N 0.12171(11) 0.35891(13) 0.52794(14)
N2 N 0.13155(11) 0.16338(13) 0.52288(14)
N3 N 0.13357(11) -0.14412(13) 0.20560(14)
N4 N 0.13908(11) 0.65958(12) 0.21796(14)
C1 C 0.15302(14) 0.43888(15) 0.56355(17)
H1 H 0.1735 0.4526 0.6309
C2 C 0.15693(14) 0.50248(15) 0.50702(17)
H2 H 0.1775 0.5590 0.5344
C3 C 0.13002(13) 0.48201(15) 0.40908(17)
C4 C 0.09568(13) 0.39992(15) 0.37108(17)
H3 H 0.0762 0.3837 0.3047
C5 C 0.09025(13) 0.34223(15) 0.43078(17)
H4 H 0.0632 0.2885 0.4021
C6 C 0.07940(13) 0.60332(14) 0.18138(17)
H5 H 0.0379 0.6037 0.1112
C7 C 0.07586(13) 0.54488(15) 0.24163(17)
H6 H 0.0331 0.5051 0.2126
C8 C 0.13481(14) 0.54408(15) 0.34481(17)
C9 C 0.19738(14) 0.60186(15) 0.38292(17)
H7 H 0.2393 0.6030 0.4529
C10 C 0.19774(14) 0.65782(15) 0.31730(17)
H8 H 0.2411 0.6963 0.3437
C11 C 0.18492(13) 0.16913(15) 0.50452(17)
H9 H 0.2261 0.2108 0.5412
C12 C 0.18243(14) 0.11706(15) 0.43466(17)
H10 H 0.2194 0.1255 0.4211
C13 C 0.12506(14) 0.05208(15) 0.38428(17)
C14 C 0.06953(14) 0.04724(15) 0.40277(17)
H11 H 0.0287 0.0049 0.3687
C15 C 0.07394(14) 0.10401(15) 0.47052(17)
H12 H 0.0346 0.1009 0.4805
C16 C 0.10397(14) -0.16031(15) 0.25672(17)
H13 H 0.0842 -0.2173 0.2524
C17 C 0.10103(14) -0.09849(16) 0.31476(18)
H14 H 0.0821 -0.1140 0.3518
C18 C 0.12610(13) -0.01273(15) 0.31878(16)
C19 C 0.15314(14) 0.00602(16) 0.26246(17)
H15 H 0.1686 0.0639 0.2604
C20 C 0.15720(14) -0.06155(15) 0.20910(17)
H16 H 0.1778 -0.0485 0.1734
Ni1F Ni 0.133935(17) -0.251246(17) 0.12064(2)
Ni1F_2 Ni 0.133935(17) 0.748754(17) 0.12064(2)
Ni1G Ni 0.633935(17) 0.248754(17) 1.12064(2)
O7G O 0.01402(10) 0.24787(10) 0.53205(13)
N3F N 0.13357(11) 0.14412(13) 0.70560(14)
N4F N 0.13908(11) 0.34042(12) 0.71796(14)
loop_
_geom_bond_atom_site_label_1
_geom_bond_atom_site_label_2
_geom_bond_site_symmetry_1
_geom_bond_site_symmetry_2
Ni1 O1 1_555 1_555
Cr1 O1 1_555 1_555
Cr2 O4 1_555 1_555
O2 Cr1 1_555 1_555
O3 Cr1 1_555 1_555
O4 Cr1 1_555 1_555
O5 Cr2 1_555 1_555
O6 Cr2 1_555 1_555
O7 Cr2 1_555 1_555
N1 Ni1 1_555 1_555
N2 Ni1 1_555 1_555
N3 C16 1_555 1_555
N4 C6 1_555 1_555
C1 N1 1_555 1_555
H1 C1 1_555 1_555
C2 C1 1_555 1_555
H2 C2 1_555 1_555
C3 C2 1_555 1_555
C4 C3 1_555 1_555
H3 C4 1_555 1_555
C5 N1 1_555 1_555
H4 C5 1_555 1_555
C6 H5 1_555 1_555
C7 C6 1_555 1_555
H6 C7 1_555 1_555
C8 C3 1_555 1_555
C9 C8 1_555 1_555
H7 C9 1_555 1_555
C10 N4 1_555 1_555
H8 C10 1_555 1_555
C11 N2 1_555 1_555
H9 C11 1_555 1_555
C12 C11 1_555 1_555
H10 C12 1_555 1_555
C13 C12 1_555 1_555
C14 C13 1_555 1_555
H11 C14 1_555 1_555
C15 N2 1_555 1_555
H12 C15 1_555 1_555
C16 H13 1_555 1_555
C17 C16 1_555 1_555
H14 C17 1_555 1_555
C18 C13 1_555 1_555
C19 C18 1_555 1_555
H15 C19 1_555 1_555
C20 N3 1_555 1_555
H16 C20 1_555 1_555
Ni1F N3 1_555 1_555
Ni1F_2 N4 1_555 1_555
Ni1G O7 1_555 1_555
O7G Ni1 1_555 1_555
N3F Ni1 1_555 1_555
N4F Ni1 1_555 1_555
C4 C5 1_555 1_555
C7 C8 1_555 1_555
C9 C10 1_555 1_555
C14 C15 1_555 1_555
C17 C18 1_555 1_555
C19 C20 1_555 1_555

#END
