
#######################################################################
#
#                 Cambridge Crystallographic Data Centre
#                                CCDC 
#
#######################################################################
#
# If this CIF has been generated from an entry in the Cambridge 
# Structural Database, then it will include bibliographic, chemical, 
# crystal, experimental, refinement or atomic coordinate data resulting 
# from the CCDC's data processing and validation procedures.
#
#######################################################################

data_FOBJEN
_symmetry_cell_setting           monoclinic
_symmetry_space_group_name_H-M   'P 21/c'
_symmetry_Int_Tables_number      14
_space_group_name_Hall           '-P 2ybc'
loop_
_symmetry_equiv_pos_site_id
_symmetry_equiv_pos_as_xyz
1 x,y,z
2 -x,1/2+y,1/2-z
3 -x,-y,-z
4 x,1/2-y,1/2+z
_cell_length_a                   11.179(5)
_cell_length_b                   15.482(7)
_cell_length_c                   16.052(7)
_cell_angle_alpha                90
_cell_angle_beta                 103.943(4)
_cell_angle_gamma                90
_cell_volume                     2696.32
loop_
_atom_site_label
_atom_site_type_symbol
_atom_site_fract_x
_atom_site_fract_y
_atom_site_fract_z
Pr1 Pr 0.816516(12) 0.483488(10) 0.459851(8)
O1 O 0.6485(3) 0.4345(2) 0.53942(18)
H1 H 0.687(3) 0.3892(9) 0.541(3)
H2 H 0.697(3) 0.4734(13) 0.561(3)
O2 O 0.7518(2) 0.42193(15) 0.29937(14)
C1 C 0.6162(3) 0.2989(2) 0.26197(18)
O3 O 0.7112(2) 0.34520(14) 0.40311(13)
C2 C 0.6458(3) 0.2138(2) 0.2653(2)
H3 H 0.7172 0.1944 0.3033
O4 O 0.2861(3) 0.12822(18) 0.0461(2)
C3 C 0.5680(3) 0.1548(2) 0.2111(2)
H4 H 0.5889 0.0965 0.2150
O5 O 0.4058(3) 0.03280(17) 0.1223(2)
C4 C 0.4620(3) 0.1801(2) 0.15241(18)
O6 O 1.1703(2) 0.44608(15) 0.38871(15)
C5 C 0.4304(3) 0.2702(2) 0.14487(18)
O7 O 1.01121(18) 0.41497(13) 0.44108(12)
C6 C 0.3263(3) 0.3034(2) 0.0843(2)
H5 H 0.2771 0.2662 0.0450
O8 O 0.90253(19) 0.12037(14) 0.07752(13)
C7 C 0.2970(3) 0.3903(2) 0.0832(2)
H6 H 0.2280 0.4109 0.0436
O9 O 1.0965(2) 0.07907(16) 0.13547(14)
C8 C 0.3707(3) 0.4472(2) 0.1411(2)
H7 H 0.3494 0.5054 0.1401
C9 C 0.4726(3) 0.4190(2) 0.1986(2)
H8 H 0.5205 0.4580 0.2365
C10 C 0.5077(3) 0.3300(2) 0.20188(18)
C11 C 0.6986(3) 0.3595(2) 0.32381(19)
C12 C 0.3811(3) 0.1096(2) 0.10327(19)
C13 C 1.0493(2) 0.32705(19) 0.32499(17)
C14 C 1.0733(3) 0.3419(2) 0.24606(19)
H9 H 1.1014 0.3960 0.2342
C15 C 1.0562(3) 0.2768(2) 0.18293(18)
H10 H 1.0715 0.2887 0.1297
C16 C 1.0169(2) 0.19583(19) 0.19963(18)
C17 C 0.9928(2) 0.17755(19) 0.28011(18)
C18 C 0.9573(3) 0.0938(2) 0.3001(2)
H11 H 0.9473 0.0509 0.2585
C19 C 0.9375(4) 0.0743(2) 0.3779(2)
H12 H 0.9142 0.0188 0.3896
C20 C 0.9529(3) 0.1408(2) 0.4417(2)
H13 H 0.9405 0.1278 0.4956
C21 C 0.9852(3) 0.2222(2) 0.42485(19)
H14 H 0.9928 0.2644 0.4670
C22 C 1.0076(3) 0.24405(19) 0.34426(17)
C23 C 1.0783(3) 0.40093(19) 0.38856(18)
C24 C 1.0045(3) 0.12569(18) 0.13207(17)
Pr1A Pr 0.183484(12) -0.016512(10) 0.040149(8)
Pr1A_2 Pr 1.183484(12) -0.016512(10) 0.040149(8)
Pr1B Pr 1.183484(12) 0.516512(10) 0.540149(8)
Pr1C Pr 0.816516(12) 0.016512(10) -0.040149(8)
O4A O 0.7139(3) 0.62822(18) 0.4539(2)
O5A O 0.5942(3) 0.53280(17) 0.3777(2)
O6B O 0.8297(2) 0.55392(15) 0.61129(15)
O7B O 0.98879(18) 0.58503(13) 0.55892(12)
O8C O 0.90253(19) 0.37963(14) 0.57752(13)
O9A O 0.9035(2) 0.57907(16) 0.36453(14)
N1 N 0.4031(2) 0.42430(18) -0.10760(17)
H15 H 0.4185 0.4756 -0.0872
N2 N 0.4160(2) 0.28711(19) -0.12569(18)
H16 H 0.4410 0.2344 -0.1192
N3 N 0.6205(3) 0.41075(18) 0.04562(16)
N4 N 0.6561(3) 0.2814(2) 0.00172(18)
H17 H 0.6475 0.2350 -0.0285
C25 C 0.3143(3) 0.3167(3) -0.1866(2)
H18 H 0.2611 0.2835 -0.2278
C26 C 0.3072(3) 0.4012(3) -0.1749(2)
H19 H 0.2478 0.4382 -0.2066
C27 C 0.4680(3) 0.3537(2) -0.07947(19)
C28 C 0.5796(3) 0.3504(2) -0.01093(19)
C29 C 0.7271(3) 0.3781(3) 0.0988(2)
H20 H 0.7756 0.4065 0.1460
C30 C 0.7497(3) 0.2996(3) 0.0718(2)
H21 H 0.8162 0.2641 0.0960
O10 O 1.5669(2) 0.88853(18) 1.09654(18)
H22 H 1.6344(15) 0.914(2) 1.0944(17)
H23 H 1.558(3) 0.899(3) 1.1448(14)
loop_
_geom_bond_atom_site_label_1
_geom_bond_atom_site_label_2
_geom_bond_site_symmetry_1
_geom_bond_site_symmetry_2
Pr1 O1 1_555 1_555
O1 H1 1_555 1_555
H2 O1 1_555 1_555
O2 Pr1 1_555 1_555
C1 C2 1_555 1_555
O3 Pr1 1_555 1_555
C2 H3 1_555 1_555
O4 C12 1_555 1_555
C3 C2 1_555 1_555
H4 C3 1_555 1_555
O5 C12 1_555 1_555
C4 C3 1_555 1_555
O6 C23 1_555 1_555
C5 C4 1_555 1_555
O7 Pr1 1_555 1_555
C6 C5 1_555 1_555
H5 C6 1_555 1_555
O8 C24 1_555 1_555
C7 C6 1_555 1_555
H6 C7 1_555 1_555
O9 C24 1_555 1_555
C8 C7 1_555 1_555
H7 C8 1_555 1_555
C9 C8 1_555 1_555
H8 C9 1_555 1_555
C10 C1 1_555 1_555
C11 O2 1_555 1_555
C12 C4 1_555 1_555
C13 C14 1_555 1_555
C14 H9 1_555 1_555
C15 C14 1_555 1_555
H10 C15 1_555 1_555
C16 C15 1_555 1_555
C17 C16 1_555 1_555
C18 C17 1_555 1_555
H11 C18 1_555 1_555
C19 C18 1_555 1_555
H12 C19 1_555 1_555
C20 C19 1_555 1_555
H13 C20 1_555 1_555
C21 C20 1_555 1_555
H14 C21 1_555 1_555
C22 C13 1_555 1_555
C23 O7 1_555 1_555
C24 C16 1_555 1_555
N1 H15 1_555 1_555
N2 H16 1_555 1_555
N3 C28 1_555 1_555
N4 H17 1_555 1_555
C25 N2 1_555 1_555
H18 C25 1_555 1_555
C26 N1 1_555 1_555
H19 C26 1_555 1_555
C27 N1 1_555 1_555
C28 N4 1_555 1_555
C29 N3 1_555 1_555
H20 C29 1_555 1_555
C30 N4 1_555 1_555
H21 C30 1_555 1_555
O10 H22 1_555 1_555
H23 O10 1_555 1_555
Pr1A O4 1_555 1_555
Pr1A_2 O9 1_555 1_555
Pr1B O6 1_555 1_555
Pr1C O8 1_555 1_555
O4A Pr1 1_555 1_555
O5A Pr1 1_555 1_555
O6B Pr1 1_555 1_555
O7B Pr1 1_555 1_555
O8C Pr1 1_555 1_555
O9A Pr1 1_555 1_555
C1 C11 1_555 1_555
O3 C11 1_555 1_555
O5 Pr1A 1_555 1_555
C5 C10 1_555 1_555
O7 Pr1B 1_555 1_555
C9 C10 1_555 1_555
C13 C23 1_555 1_555
C17 C22 1_555 1_555
C21 C22 1_555 1_555
N2 C27 1_555 1_555
C25 C26 1_555 1_555
C27 C28 1_555 1_555
C29 C30 1_555 1_555
Pr1B O7B 1_555 1_555

#END
