
#######################################################################
#
#                 Cambridge Crystallographic Data Centre
#                                CCDC 
#
#######################################################################
#
# If this CIF has been generated from an entry in the Cambridge 
# Structural Database, then it will include bibliographic, chemical, 
# crystal, experimental, refinement or atomic coordinate data resulting 
# from the CCDC's data processing and validation procedures.
#
#######################################################################

data_FOBJOX
_symmetry_cell_setting           monoclinic
_symmetry_space_group_name_H-M   'P 21/c'
_symmetry_Int_Tables_number      14
_space_group_name_Hall           '-P 2ybc'
loop_
_symmetry_equiv_pos_site_id
_symmetry_equiv_pos_as_xyz
1 x,y,z
2 -x,1/2+y,1/2-z
3 -x,-y,-z
4 x,1/2-y,1/2+z
_cell_length_a                   11.72250(10)
_cell_length_b                   15.74660(10)
_cell_length_c                   15.42610(10)
_cell_angle_alpha                90
_cell_angle_beta                 104.63
_cell_angle_gamma                90
_cell_volume                     2755.17
loop_
_atom_site_label
_atom_site_type_symbol
_atom_site_fract_x
_atom_site_fract_y
_atom_site_fract_z
Eu1 Eu 0.189365(10) 0.015933(8) 0.537385(8)
O1 O 0.3319(2) 0.02876(15) 0.44415(17)
H1 H 0.368(2) -0.0182(8) 0.457(3)
H2 H 0.3819(17) 0.0652(10) 0.469(2)
C1 C 0.5952(3) -0.30772(19) 0.77336(19)
O2 O 0.69734(19) -0.34843(13) 0.92196(14)
O3 O 0.6948(2) -0.43926(14) 0.81359(14)
C2 C 0.6365(3) -0.2268(2) 0.7733(2)
H3 H 0.7031 -0.2103 0.8170
C3 C 0.5793(3) -0.1677(2) 0.7076(2)
H4 H 0.6094 -0.1132 0.7071
O4 O 0.3371(2) -0.08756(16) 0.58858(16)
O5 O 0.4531(2) -0.12488(15) 0.50190(15)
C4 C 0.4784(2) -0.1912(2) 0.6441(2)
C5 C 0.4318(2) -0.2740(2) 0.64441(19)
O6 O -0.0510(3) -0.09485(18) 0.4094(2)
O7 O 0.1364(3) -0.08673(17) 0.42387(18)
C6 C 0.3262(3) -0.2998(3) 0.5811(2)
H5 H 0.2845 -0.2608 0.5399
O8 O -0.08962(19) -0.39786(16) 0.08232(16)
C7 C 0.2862(3) -0.3802(3) 0.5804(3)
H6 H 0.2186 -0.3967 0.5378
O9 O 0.10380(19) -0.41682(14) 0.11608(15)
C8 C 0.3450(4) -0.4376(3) 0.6423(3)
H7 H 0.3162 -0.4927 0.6411
C9 C 0.4443(3) -0.4163(2) 0.7057(2)
H8 H 0.4812 -0.4565 0.7475
C10 C 0.4916(3) -0.3342(2) 0.7084(2)
C11 C 0.6657(3) -0.3691(2) 0.8403(2)
C12 C 0.4182(2) -0.1290(2) 0.5739(2)
C13 C 0.0344(2) -0.18924(16) 0.32617(17)
C14 C 0.0721(2) -0.17415(18) 0.25054(18)
H9 H 0.1017 -0.1210 0.2416
C15 C 0.0665(2) -0.23819(17) 0.18649(17)
H10 H 0.0909 -0.2268 0.1348
C16 C 0.0256(2) -0.31707(17) 0.19921(17)
C17 C -0.0081(2) -0.33683(17) 0.27884(17)
C18 C -0.0413(3) -0.4196(2) 0.2978(2)
H11 H -0.0450 -0.4623 0.2556
C19 C -0.0679(4) -0.4383(2) 0.3764(2)
H12 H -0.0882 -0.4935 0.3880
C20 C -0.0646(3) -0.3733(2) 0.4406(2)
H13 H -0.0817 -0.3863 0.4948
C21 C -0.0368(3) -0.2930(2) 0.42384(19)
H14 H -0.0384 -0.2508 0.4657
C22 C -0.0049(2) -0.27125(17) 0.34328(17)
C23 C 0.0398(3) -0.11812(18) 0.39171(19)
C24 C 0.0131(2) -0.38336(17) 0.12651(17)
Eu1A Eu -0.189365(10) -0.484067(8) -0.037385(8)
Eu1A_2 Eu 0.810635(10) -0.484067(8) 0.962615(8)
Eu1B Eu -0.189365(10) -0.015933(8) 0.462615(8)
Eu1C Eu 0.189365(10) -0.515933(8) 0.037385(8)
O2A O 0.30266(19) 0.15157(13) 0.57804(14)
O3A O 0.3052(2) 0.06074(14) 0.68641(14)
O6B O 0.0510(3) 0.09485(18) 0.5906(2)
O8A O 0.08962(19) 0.10214(16) 0.41768(16)
O9C O 0.10380(19) -0.08318(14) 0.61608(15)
N1 N 0.5669(2) 0.22038(17) 1.09937(18)
H15 H 0.5446 0.2710 1.0821
N2 N 0.5730(2) 0.08178(17) 1.10562(17)
N3 N 0.3295(2) 0.21099(19) 0.97700(17)
H16 H 0.3347 0.2580 1.0062
N4 N 0.3704(2) 0.08477(17) 0.93665(17)
H17 H 0.4052 0.0370 0.9346
C25 C 0.6621(3) 0.1992(3) 1.1663(3)
H18 H 0.7148 0.2368 1.2021
C26 C 0.6666(3) 0.1136(3) 1.1714(3)
H19 H 0.7226 0.0817 1.2118
C27 C 0.5143(2) 0.14844(18) 1.0652(2)
C28 C 0.4072(3) 0.14674(18) 0.9942(2)
C29 C 0.2406(3) 0.1882(2) 0.9047(2)
H20 H 0.1750 0.2207 0.8775
C30 C 0.2660(3) 0.1107(2) 0.8808(2)
H21 H 0.2203 0.0792 0.8337
loop_
_geom_bond_atom_site_label_1
_geom_bond_atom_site_label_2
_geom_bond_site_symmetry_1
_geom_bond_site_symmetry_2
Eu1 O1 1_555 1_555
O1 H1 1_555 1_555
H2 O1 1_555 1_555
C1 C2 1_555 1_555
O2 C11 1_555 1_555
O3 C11 1_555 1_555
C2 H3 1_555 1_555
C3 C2 1_555 1_555
H4 C3 1_555 1_555
O4 Eu1 1_555 1_555
O5 C12 1_555 1_555
C4 C3 1_555 1_555
C5 C4 1_555 1_555
O6 C23 1_555 1_555
O7 Eu1 1_555 1_555
C6 C5 1_555 1_555
H5 C6 1_555 1_555
O8 C24 1_555 1_555
C7 C6 1_555 1_555
H6 C7 1_555 1_555
O9 C24 1_555 1_555
C8 C7 1_555 1_555
H7 C8 1_555 1_555
C9 C8 1_555 1_555
H8 C9 1_555 1_555
C10 C1 1_555 1_555
C11 C1 1_555 1_555
C12 O4 1_555 1_555
C13 C14 1_555 1_555
C14 H9 1_555 1_555
C15 C14 1_555 1_555
H10 C15 1_555 1_555
C16 C15 1_555 1_555
C17 C16 1_555 1_555
C18 C17 1_555 1_555
H11 C18 1_555 1_555
C19 C18 1_555 1_555
H12 C19 1_555 1_555
C20 C19 1_555 1_555
H13 C20 1_555 1_555
C21 C20 1_555 1_555
H14 C21 1_555 1_555
C22 C13 1_555 1_555
C23 O7 1_555 1_555
C24 C16 1_555 1_555
N1 H15 1_555 1_555
N2 C26 1_555 1_555
N3 H16 1_555 1_555
N4 H17 1_555 1_555
C25 N1 1_555 1_555
H18 C25 1_555 1_555
C26 C25 1_555 1_555
H19 C26 1_555 1_555
C27 N1 1_555 1_555
C28 N3 1_555 1_555
C29 N3 1_555 1_555
H20 C29 1_555 1_555
C30 N4 1_555 1_555
H21 C30 1_555 1_555
Eu1A O8 1_555 1_555
Eu1A_2 O2 1_555 1_555
Eu1B O6 1_555 1_555
Eu1C O9 1_555 1_555
O2A Eu1 1_555 1_555
O3A Eu1 1_555 1_555
O6B Eu1 1_555 1_555
O8A Eu1 1_555 1_555
O9C Eu1 1_555 1_555
O3 Eu1A_2 1_555 1_555
C4 C12 1_555 1_555
C5 C10 1_555 1_555
C9 C10 1_555 1_555
C13 C23 1_555 1_555
C17 C22 1_555 1_555
C21 C22 1_555 1_555
N2 C27 1_555 1_555
N4 C28 1_555 1_555
C27 C28 1_555 1_555
C29 C30 1_555 1_555

#END
