
#######################################################################
#
#                 Cambridge Crystallographic Data Centre
#                                CCDC 
#
#######################################################################
#
# If this CIF has been generated from an entry in the Cambridge 
# Structural Database, then it will include bibliographic, chemical, 
# crystal, experimental, refinement or atomic coordinate data resulting 
# from the CCDC's data processing and validation procedures.
#
#######################################################################

data_FOBJIR
_symmetry_cell_setting           monoclinic
_symmetry_space_group_name_H-M   'P 21/c'
_symmetry_Int_Tables_number      14
_space_group_name_Hall           '-P 2ybc'
loop_
_symmetry_equiv_pos_site_id
_symmetry_equiv_pos_as_xyz
1 x,y,z
2 -x,1/2+y,1/2-z
3 -x,-y,-z
4 x,1/2-y,1/2+z
_cell_length_a                   23.0803(7)
_cell_length_b                   15.5854(3)
_cell_length_c                   15.6694(4)
_cell_angle_alpha                90
_cell_angle_beta                 103.898(2)
_cell_angle_gamma                90
_cell_volume                     5471.52
loop_
_atom_site_label
_atom_site_type_symbol
_atom_site_fract_x
_atom_site_fract_y
_atom_site_fract_z
Sm1 Sm 0.342518(6) 1.010413(9) 0.534319(10)
Sm2 Sm 0.163933(6) 0.982745(9) 0.452565(11)
C1 C 0.44391(13) 1.1965(2) 0.7182(2)
C2 C 0.42493(14) 1.2799(2) 0.7172(2)
H1 H 0.3919 1.2977 0.6742
C3 C 0.45498(15) 1.3390(2) 0.7805(2)
H2 H 0.4407 1.3948 0.7803
C4 C 0.50496(14) 1.3153(2) 0.8424(2)
C5 C 0.52768(13) 1.2310(2) 0.8439(2)
C6 C 0.58015(14) 1.2036(2) 0.9058(2)
H3 H 0.6014 1.2427 0.9462
C7 C 0.56841(16) 1.0613(3) 0.8452(3)
H4 H 0.5819 1.0050 0.8465
C8 C 0.51868(15) 1.0844(2) 0.7835(3)
H5 H 0.4992 1.0443 0.7427
C9 C 0.49636(13) 1.1695(2) 0.7812(2)
C10 C 0.40745(13) 1.13384(19) 0.6551(2)
C11 C 0.53493(13) 1.3794(2) 0.9121(2)
C12 C 0.24502(12) 1.19305(18) 0.29648(19)
C13 C 0.22255(13) 1.27233(19) 0.3097(2)
H6 H 0.2125 1.2840 0.3626
C14 C 0.21468(14) 1.3354(2) 0.2448(2)
H7 H 0.1991 1.3884 0.2552
C15 C 0.22922(12) 1.32159(19) 0.1665(2)
C16 C 0.26539(15) 1.2178(2) 0.0683(2)
H8 H 0.2615 1.2594 0.0247
C17 C 0.28289(17) 1.1378(2) 0.0524(2)
H9 H 0.2900 1.1247 -0.0021
C18 C 0.29030(17) 1.0747(2) 0.1173(3)
H10 H 0.3026 1.0200 0.1058
C19 C 0.27973(15) 1.0925(2) 0.1977(2)
H11 H 0.2856 1.0501 0.2407
C20 C 0.25279(12) 1.2398(2) 0.1496(2)
C21 C 0.25048(12) 1.12409(18) 0.36688(19)
C22 C 0.21632(13) 1.39056(19) 0.0974(2)
C23 C 0.27225(13) 0.8108(2) 0.3345(2)
C24 C 0.28102(16) 0.8319(2) 0.2540(2)
H12 H 0.2912 0.8880 0.2435
C25 C 0.27505(15) 0.7706(2) 0.1865(2)
H13 H 0.2816 0.7865 0.1324
C26 C 0.25972(12) 0.68802(18) 0.19991(19)
C27 C 0.24852(13) 0.6635(2) 0.2816(2)
C28 C 0.23165(17) 0.5796(2) 0.2978(2)
H14 H 0.2270 0.5389 0.2534
C29 C 0.2219(2) 0.5564(3) 0.3778(3)
H15 H 0.2117 0.5002 0.3880
C30 C 0.22760(19) 0.6193(3) 0.4444(3)
H16 H 0.2204 0.6043 0.4983
C31 C 0.24294(16) 0.6994(2) 0.4313(2)
H17 H 0.2458 0.7394 0.4761
C32 C 0.25526(13) 0.7259(2) 0.3500(2)
C33 C 0.28912(13) 0.8747(2) 0.4083(2)
C34 C 0.25649(12) 0.62198(18) 0.12756(18)
C35 C 0.06525(14) 0.7962(2) 0.2694(2)
C36 C 0.08483(14) 0.7131(2) 0.2793(2)
H18 H 0.1197 0.6999 0.3211
C37 C 0.05281(14) 0.6474(2) 0.2267(2)
H19 H 0.0681 0.5919 0.2327
C38 C -0.00011(14) 0.6625(2) 0.1671(2)
C39 C -0.02318(13) 0.7494(2) 0.1553(2)
C40 C -0.07610(14) 0.7719(2) 0.0921(2)
H20 H -0.0972 0.7295 0.0558
C41 C -0.09667(16) 0.8532(2) 0.0832(3)
H21 H -0.1318 0.8658 0.0419
C42 C -0.06514(16) 0.9190(2) 0.1363(3)
H22 H -0.0799 0.9748 0.1304
C43 C -0.01314(15) 0.9015(2) 0.1963(2)
H23 H 0.0073 0.9456 0.2307
C44 C 0.01030(14) 0.8168(2) 0.2070(2)
C45 C 0.10423(14) 0.8612(2) 0.3266(2)
C46 C -0.03192(13) 0.5866(2) 0.1191(2)
C47 C 0.25995(13) 1.1750(2) 0.2158(2)
C48 C 0.59995(17) 1.1204(3) 0.9068(3)
H24 H 0.6340 1.1032 0.9481
O1 O 0.30413(10) 0.58511(16) 0.12620(16)
O2 O 0.40185(12) 1.14434(17) 0.57261(17)
O3 O 0.38337(12) 1.07184(16) 0.68246(16)
O4 O 0.41366(15) 1.0151(2) 0.4381(3)
H25 H 0.3834(7) 0.9828(15) 0.425(4)
H26 H 0.4427(8) 0.9839(17) 0.463(3)
O5 O 0.08101(12) 0.9300(2) 0.5126(3)
H27 H 0.0965(18) 0.922(2) 0.5669(9)
H28 H 0.074(2) 0.9833(8) 0.512(3)
O6 O 0.52184(13) 1.37229(18) 0.98765(19)
O7 O 0.57009(10) 1.42979(16) 0.89502(16)
O8 O 0.20248(9) 1.09158(15) 0.37314(16)
O9 O 0.30183(9) 1.10744(14) 0.41224(15)
O10 O 0.16502(11) 1.4222(2) 0.0781(2)
O11 O 0.25523(10) 1.41916(14) 0.06230(15)
O12 O 0.25461(10) 0.93015(15) 0.42123(16)
O13 O 0.33943(15) 0.8678(2) 0.4577(2)
O14 O 0.20702(10) 0.60826(15) 0.07664(16)
O15 O 0.13295(15) 0.83698(16) 0.40040(18)
O16 O 0.11071(12) 0.93521(16) 0.30187(16)
O17 O -0.08631(10) 0.58456(15) 0.09720(17)
O18 O 0.00120(12) 0.52360(15) 0.1088(2)
Sm1A Sm 0.657482(6) 1.510413(9) 0.965681(10)
Sm1C Sm 0.342518(6) 0.489587(9) 0.034319(10)
Sm1C_2 Sm 0.342518(6) 1.489587(9) 0.034319(10)
Sm2A Sm -0.163933(6) 0.482745(9) 0.047435(11)
Sm2C Sm 0.163933(6) 0.517255(9) -0.047435(11)
Sm2C_2 Sm 0.163933(6) 1.517255(9) -0.047435(11)
O1C O 0.30413(10) 0.91489(16) 0.62620(16)
O7A O 0.42991(10) 0.92979(16) 0.60498(16)
O10C O 0.16502(11) 1.0778(2) 0.5781(2)
O11C O 0.25523(10) 1.08084(14) 0.56230(15)
O14C O 0.20702(10) 0.89174(15) 0.57664(16)
O17A O 0.08631(10) 1.08456(15) 0.40280(17)
C49 C 0.38738(17) 0.3856(3) 0.3844(3)
H29 H 0.3638 0.4173 0.3388
C50 C 0.37655(17) 0.3051(3) 0.4062(3)
H30 H 0.3447 0.2707 0.3785
C51 C 0.45894(15) 0.3505(2) 0.4954(2)
C52 C 0.51192(15) 0.3501(2) 0.5662(2)
C53 C 0.58710(19) 0.3009(3) 0.6676(3)
H31 H 0.6144 0.2642 0.7031
C54 C 0.58662(17) 0.3877(3) 0.6722(3)
H32 H 0.6132 0.4213 0.7126
N1 N 0.43914(13) 0.4133(2) 0.4407(2)
H33 H 0.4555 0.4628 0.4401
N2 N 0.42144(13) 0.2834(2) 0.4771(2)
H34 H 0.4250 0.2354 0.5049
N3 N 0.54039(13) 0.4173(2) 0.6075(2)
H35 H 0.5314 0.4702 0.5957
N4 N 0.53912(13) 0.2771(2) 0.5999(2)
C55 C -0.11297(17) 0.1273(3) -0.0927(3)
H36 H -0.1398 0.0987 -0.1374
C56 C -0.11876(17) 0.2094(3) -0.0680(3)
H37 H -0.1495 0.2472 -0.0924
C57 C -0.03763(15) 0.1542(2) 0.0130(2)
C58 C 0.01700(15) 0.1450(2) 0.0806(2)
C59 C 0.09384(16) 0.0896(3) 0.1742(3)
H38 H 0.1213 0.0497 0.2042
C60 C 0.09424(17) 0.1738(3) 0.1903(3)
H39 H 0.1219 0.2038 0.2329
N5 N -0.07099(14) 0.2256(2) -0.0008(2)
H40 H -0.0634 0.2730 0.0278
N6 N -0.06172(13) 0.0926(2) -0.0418(2)
H41 H -0.0482 0.0416 -0.0448
N7 N 0.04601(13) 0.20705(19) 0.1317(2)
H42 H 0.0359 0.2603 0.1283
N8 N 0.04550(13) 0.07206(19) 0.1053(2)
O19 O 0.05578(17) 0.3713(2) 0.1090(3)
H43 H 0.0278(10) 0.373(4) 0.0684(15)
H44 H 0.063(2) 0.388(3) 0.1583(11)
loop_
_geom_bond_atom_site_label_1
_geom_bond_atom_site_label_2
_geom_bond_site_symmetry_1
_geom_bond_site_symmetry_2
Sm1 O2 1_555 1_555
Sm2 O5 1_555 1_555
C1 C2 1_555 1_555
C2 H1 1_555 1_555
C3 C2 1_555 1_555
H2 C3 1_555 1_555
C4 C3 1_555 1_555
C5 C4 1_555 1_555
C6 C5 1_555 1_555
H3 C6 1_555 1_555
C7 H4 1_555 1_555
C8 C7 1_555 1_555
H5 C8 1_555 1_555
C9 C1 1_555 1_555
C10 C1 1_555 1_555
C11 C4 1_555 1_555
C12 C13 1_555 1_555
C13 H6 1_555 1_555
C14 C13 1_555 1_555
H7 C14 1_555 1_555
C15 C14 1_555 1_555
C16 H8 1_555 1_555
C17 C16 1_555 1_555
H9 C17 1_555 1_555
C18 C17 1_555 1_555
H10 C18 1_555 1_555
C19 C18 1_555 1_555
H11 C19 1_555 1_555
C20 C15 1_555 1_555
C21 C12 1_555 1_555
C22 C15 1_555 1_555
C23 C24 1_555 1_555
C24 H12 1_555 1_555
C25 C24 1_555 1_555
H13 C25 1_555 1_555
C26 C25 1_555 1_555
C27 C26 1_555 1_555
C28 C27 1_555 1_555
H14 C28 1_555 1_555
C29 C28 1_555 1_555
H15 C29 1_555 1_555
C30 C29 1_555 1_555
H16 C30 1_555 1_555
C31 C30 1_555 1_555
H17 C31 1_555 1_555
C32 C23 1_555 1_555
C33 C23 1_555 1_555
C34 C26 1_555 1_555
C35 C36 1_555 1_555
C36 H18 1_555 1_555
C37 C36 1_555 1_555
H19 C37 1_555 1_555
C38 C37 1_555 1_555
C39 C38 1_555 1_555
C40 C39 1_555 1_555
H20 C40 1_555 1_555
C41 C40 1_555 1_555
H21 C41 1_555 1_555
C42 C41 1_555 1_555
H22 C42 1_555 1_555
C43 C42 1_555 1_555
H23 C43 1_555 1_555
C44 C35 1_555 1_555
C45 C35 1_555 1_555
C46 C38 1_555 1_555
C47 C12 1_555 1_555
C48 C6 1_555 1_555
H24 C48 1_555 1_555
O1 C34 1_555 1_555
O2 C10 1_555 1_555
O3 Sm1 1_555 1_555
O4 Sm1 1_555 1_555
H25 O4 1_555 1_555
H26 O4 1_555 1_555
O5 H27 1_555 1_555
H28 O5 1_555 1_555
O6 C11 1_555 1_555
O7 C11 1_555 1_555
O8 Sm2 1_555 1_555
O9 Sm1 1_555 1_555
O10 C22 1_555 1_555
O11 C22 1_555 1_555
O12 Sm1 1_555 1_555
O13 Sm1 1_555 1_555
O14 C34 1_555 1_555
O15 Sm2 1_555 1_555
O16 Sm2 1_555 1_555
O17 C46 1_555 1_555
O18 C46 1_555 1_555
C49 H29 1_555 1_555
C50 C49 1_555 1_555
H30 C50 1_555 1_555
C51 C52 1_555 1_555
C52 N3 1_555 1_555
C53 H31 1_555 1_555
C54 C53 1_555 1_555
H32 C54 1_555 1_555
N1 C49 1_555 1_555
H33 N1 1_555 1_555
N2 C50 1_555 1_555
H34 N2 1_555 1_555
N3 C54 1_555 1_555
H35 N3 1_555 1_555
N4 C52 1_555 1_555
C55 H36 1_555 1_555
C56 C55 1_555 1_555
H37 C56 1_555 1_555
C57 C58 1_555 1_555
C58 N7 1_555 1_555
C59 H38 1_555 1_555
C60 C59 1_555 1_555
H39 C60 1_555 1_555
N5 C56 1_555 1_555
H40 N5 1_555 1_555
N6 C55 1_555 1_555
H41 N6 1_555 1_555
N7 C60 1_555 1_555
H42 N7 1_555 1_555
N8 C58 1_555 1_555
O19 H43 1_555 1_555
H44 O19 1_555 1_555
Sm1A O7 1_555 1_555
Sm1C O1 1_555 1_555
Sm1C_2 O11 1_555 1_555
Sm2A O17 1_555 1_555
Sm2C O14 1_555 1_555
Sm2C_2 O10 1_555 1_555
O1C Sm1 1_555 1_555
O7A Sm1 1_555 1_555
O10C Sm2 1_555 1_555
O11C Sm1 1_555 1_555
O14C Sm2 1_555 1_555
O17A Sm2 1_555 1_555
Sm2 O12 1_555 1_555
Sm2 O11C 1_555 1_555
C5 C9 1_555 1_555
C7 C48 1_555 1_555
C8 C9 1_555 1_555
C10 O3 1_555 1_555
C16 C20 1_555 1_555
C19 C47 1_555 1_555
C20 C47 1_555 1_555
C21 O8 1_555 1_555
C21 O9 1_555 1_555
C27 C32 1_555 1_555
C31 C32 1_555 1_555
C33 O12 1_555 1_555
C33 O13 1_555 1_555
C39 C44 1_555 1_555
C43 C44 1_555 1_555
C45 O15 1_555 1_555
C45 O16 1_555 1_555
O11 Sm2C_2 1_555 1_555
C51 N1 1_555 1_555
C51 N2 1_555 1_555
C53 N4 1_555 1_555
C57 N5 1_555 1_555
C57 N6 1_555 1_555
C59 N8 1_555 1_555

#END
