
#######################################################################
#
#                 Cambridge Crystallographic Data Centre
#                                CCDC 
#
#######################################################################
#
# If this CIF has been generated from an entry in the Cambridge 
# Structural Database, then it will include bibliographic, chemical, 
# crystal, experimental, refinement or atomic coordinate data resulting 
# from the CCDC's data processing and validation procedures.
#
#######################################################################

data_FOBNAN
_symmetry_cell_setting           monoclinic
_symmetry_space_group_name_H-M   'C 2/c'
_symmetry_Int_Tables_number      15
_space_group_name_Hall           '-C 2yn'
loop_
_symmetry_equiv_pos_site_id
_symmetry_equiv_pos_as_xyz
1 x,y,z
2 -x,y,1/2-z
3 1/2+x,1/2+y,z
4 1/2-x,1/2+y,1/2-z
5 -x,-y,-z
6 x,-y,1/2+z
7 1/2-x,1/2-y,-z
8 1/2+x,1/2-y,1/2+z
_cell_length_a                   31.28(3)
_cell_length_b                   14.735(13)
_cell_length_c                   28.51(5)
_cell_angle_alpha                90
_cell_angle_beta                 120.13(5)
_cell_angle_gamma                90
_cell_volume                     11365.1
loop_
_atom_site_label
_atom_site_type_symbol
_atom_site_fract_x
_atom_site_fract_y
_atom_site_fract_z
Dy1 Dy 0.231937(14) 0.88217(3) 0.512459(14)
C1 C 0.1912(3) 1.0287(7) 0.1278(4)
C2 C 0.2266(3) 1.0398(7) 0.1844(4)
C3 C 0.1680(4) 0.9816(7) 0.2077(4)
C4 C 0.1456(4) 0.9959(7) 0.1130(4)
H1 H 0.1228 0.9880 0.0763
C5 C 0.2161(4) 1.0120(7) 0.2238(4)
C6 C 0.1318(4) 0.9739(8) 0.1513(4)
C7 C 0.1522(5) 0.9596(9) 0.2458(5)
H2 H 0.1742 0.9656 0.2828
C8 C 0.1050(5) 0.9299(11) 0.2279(6)
H3 H 0.0959 0.9143 0.2533
C9 C 0.0703(5) 0.9223(12) 0.1732(6)
H4 H 0.0384 0.9024 0.1623
O1 O 0.2709(3) 1.0769(6) 0.1996(3)
H5 H 0.2696 1.1041 0.1738
C10 C 0.0825(3) 0.7926(6) 0.3297(3)
C11 C 0.0000 0.8283(10) 0.2500
H6 H -0.0001 0.8673 0.2774
C12 C 0.1647(3) 0.7623(7) 0.4141(3)
C13 C 0.0567(3) 0.7068(8) 0.2481(4)
C14 C 0.0474(3) 0.7736(7) 0.2763(3)
C15 C 0.1264(3) 0.7400(6) 0.3571(3)
C16 C 0.1339(3) 0.6705(8) 0.3316(4)
H7 H 0.1616 0.6338 0.3505
C17 C 0.0998(4) 0.6523(9) 0.2760(4)
C18 C 0.0254(4) 0.6902(10) 0.1919(4)
H8 H -0.0026 0.7258 0.1723
C19 C 0.0355(5) 0.6234(13) 0.1661(5)
H9 H 0.0148 0.6148 0.1291
C20 C 0.0776(5) 0.5660(16) 0.1954(7)
H10 H 0.0834 0.5185 0.1779
O2 O 0.0733(3) 0.8607(6) 0.3549(3)
H11 H 0.0996 0.8821 0.3786
C21 C 0.3030(4) 0.8711(7) 0.3019(4)
C22 C 0.3143(5) 0.8864(9) 0.2602(4)
H12 H 0.3040 0.9396 0.2399
C23 C 0.3562(6) 0.7435(10) 0.2778(6)
H13 H 0.3730 0.7008 0.2690
C24 C 0.3206(4) 0.7896(8) 0.3316(4)
C25 C 0.3473(5) 0.7270(9) 0.3189(5)
H14 H 0.3589 0.6737 0.3389
C26 C 0.3409(5) 0.8216(10) 0.2497(5)
H15 H 0.3483 0.8327 0.2224
C27 C 0.2882(3) 0.8347(7) 0.3893(3)
C28 C 0.2698(4) 0.9155(7) 0.3587(3)
C29 C 0.2753(4) 0.9334(7) 0.3141(4)
C30 C 0.3127(4) 0.7737(7) 0.3754(4)
H16 H 0.3245 0.7204 0.3953
O3 O 0.1591(2) 0.8350(5) 0.4341(2)
O4 O 0.2453(3) 0.9775(5) 0.3718(3)
H17 H 0.2384 0.9551 0.3935
C31 C 0.2549(4) 1.0217(7) 0.2826(3)
H18 H 0.2411 1.0571 0.3005
H19 H 0.2823 1.0561 0.2847
C32 C 0.2811(3) 0.8140(6) 0.4361(3)
C33 C 0.2053(3) 1.0507(6) 0.0866(3)
O5 O 0.2488(2) 1.0782(6) 0.1017(3)
O6 O 0.1738(3) 1.0464(5) 0.0365(3)
O7 O 0.2594(2) 0.8717(5) 0.4491(2)
O8 O 0.2964(3) 0.9894(6) 0.5462(3)
O9 O 0.2969(2) 0.7393(5) 0.4594(2)
O10 O 0.2008(2) 0.7113(5) 0.4388(2)
C34 C 0.0831(5) 0.9441(10) 0.1361(5)
H20 H 0.0596 0.9397 0.0994
C35 C 0.1940(9) 1.0859(15) 0.4664(10)
H21 H 0.1956 1.0938 0.4997
C36 C 0.1800(18) 1.150(3) 0.3833(14)
H22 H 0.1704 1.0889 0.3706
H23 H 0.2108 1.1637 0.3852
H24 H 0.1550 1.1912 0.3587
N1 N 0.1856(13) 1.1592(16) 0.4369(12)
O11 O 0.1997(3) 1.0118(5) 0.4558(3)
C37 C 0.1085(5) 0.5810(13) 0.2479(6)
H25 H 0.1362 0.5443 0.2667
C38 C 0.1786(19) 1.2515(18) 0.466(2)
H26 H 0.1985 1.2461 0.5045
H27 H 0.1445 1.2579 0.4556
H28 H 0.1889 1.3038 0.4540
C10A C -0.0825(3) 0.7926(6) 0.1703(3)
H6A H 0.0001 0.8673 0.2226
C12A C -0.1647(3) 0.7623(7) 0.0859(3)
C13A C -0.0567(3) 0.7068(8) 0.2519(4)
C14A C -0.0474(3) 0.7736(7) 0.2237(3)
C15A C -0.1264(3) 0.7400(6) 0.1429(3)
C16A C -0.1339(3) 0.6705(8) 0.1684(4)
H7A H -0.1616 0.6338 0.1495
C17A C -0.0998(4) 0.6523(9) 0.2240(4)
C18A C -0.0254(4) 0.6902(10) 0.3081(4)
H8A H 0.0026 0.7258 0.3277
C19A C -0.0355(5) 0.6234(13) 0.3339(5)
H9A H -0.0148 0.6148 0.3709
C20A C -0.0776(5) 0.5660(16) 0.3046(7)
H10A H -0.0834 0.5185 0.3221
O2A O -0.0733(3) 0.8607(6) 0.1451(3)
H11A H -0.0996 0.8821 0.1214
O3A O -0.1591(2) 0.8350(5) 0.0659(2)
O10A O -0.2008(2) 0.7113(5) 0.0612(2)
C37A C -0.1085(5) 0.5810(13) 0.2521(6)
H25A H -0.1362 0.5443 0.2333
Dy1A Dy -0.231937(14) 0.88217(3) -0.012459(14)
C1A C -0.1912(3) 1.0287(7) 0.3722(4)
C2A C -0.2266(3) 1.0398(7) 0.3156(4)
C3A C -0.1680(4) 0.9816(7) 0.2923(4)
C4A C -0.1456(4) 0.9959(7) 0.3870(4)
H1A H -0.1228 0.9880 0.4237
C5A C -0.2161(4) 1.0120(7) 0.2762(4)
C6A C -0.1318(4) 0.9739(8) 0.3487(4)
C7A C -0.1522(5) 0.9596(9) 0.2542(5)
H2A H -0.1742 0.9656 0.2172
C8A C -0.1050(5) 0.9299(11) 0.2721(6)
H3A H -0.0959 0.9143 0.2467
C9A C -0.0703(5) 0.9223(12) 0.3268(6)
H4A H -0.0384 0.9024 0.3377
O1A O -0.2709(3) 1.0769(6) 0.3004(3)
H5A H -0.2696 1.1041 0.3262
C21A C -0.3030(4) 0.8711(7) 0.1981(4)
C22A C -0.3143(5) 0.8864(9) 0.2398(4)
H12A H -0.3040 0.9396 0.2601
C23A C -0.3562(6) 0.7435(10) 0.2222(6)
H13A H -0.3730 0.7008 0.2310
C24A C -0.3206(4) 0.7896(8) 0.1684(4)
C25A C -0.3473(5) 0.7270(9) 0.1811(5)
H14A H -0.3589 0.6737 0.1611
C26A C -0.3409(5) 0.8216(10) 0.2503(5)
H15A H -0.3483 0.8327 0.2776
C27A C -0.2882(3) 0.8347(7) 0.1107(3)
C28A C -0.2698(4) 0.9155(7) 0.1413(3)
C29A C -0.2753(4) 0.9334(7) 0.1859(4)
C30A C -0.3127(4) 0.7737(7) 0.1246(4)
H16A H -0.3245 0.7204 0.1047
O4A O -0.2453(3) 0.9775(5) 0.1282(3)
H17A H -0.2384 0.9551 0.1065
C31A C -0.2549(4) 1.0217(7) 0.2174(3)
H18A H -0.2411 1.0571 0.1995
H19A H -0.2823 1.0561 0.2153
C32A C -0.2811(3) 0.8140(6) 0.0639(3)
C33A C -0.2053(3) 1.0507(6) 0.4134(3)
O5A O -0.2488(2) 1.0782(6) 0.3983(3)
O6A O -0.1738(3) 1.0464(5) 0.4635(3)
O7A O -0.2594(2) 0.8717(5) 0.0509(2)
O8A O -0.2964(3) 0.9894(6) -0.0462(3)
O9A O -0.2969(2) 0.7393(5) 0.0406(2)
C34A C -0.0831(5) 0.9441(10) 0.3639(5)
H20A H -0.0596 0.9397 0.4006
C35A C -0.1940(9) 1.0859(15) 0.0336(10)
H21A H -0.1956 1.0938 0.0003
C36A C -0.1800(18) 1.150(3) 0.1167(14)
H22A H -0.1704 1.0889 0.1294
H23A H -0.2108 1.1637 0.1148
H24A H -0.1550 1.1912 0.1413
N1A N -0.1856(13) 1.1592(16) 0.0631(12)
O11A O -0.1997(3) 1.0118(5) 0.0442(3)
C38A C -0.1786(19) 1.2515(18) 0.034(2)
H26A H -0.1985 1.2461 -0.0045
H27A H -0.1445 1.2579 0.0444
H28A H -0.1889 1.3038 0.0460
Dy1D Dy -0.231937(14) 1.11783(3) 0.487541(14)
Dy1E Dy 0.231937(14) 1.11783(3) 0.012459(14)
Dy1F Dy 0.268063(14) 0.61783(3) 0.487541(14)
Dy1G Dy -0.268063(14) 0.61783(3) 0.012459(14)
O5D O -0.2488(2) 0.9218(6) -0.1017(3)
O5E O 0.2488(2) 0.9218(6) 0.6017(3)
O6D O -0.1738(3) 0.9536(5) -0.0365(3)
O6E O 0.1738(3) 0.9536(5) 0.5365(3)
O9F O 0.2031(2) 0.7607(5) 0.5406(2)
O9G O -0.2031(2) 0.7607(5) -0.0406(2)
O10F O 0.2992(2) 0.7887(5) 0.5612(2)
O10G O -0.2992(2) 0.7887(5) -0.0612(2)
loop_
_geom_bond_atom_site_label_1
_geom_bond_atom_site_label_2
_geom_bond_site_symmetry_1
_geom_bond_site_symmetry_2
Dy1 O3 1_555 1_555
C1 C2 1_555 1_555
C2 C5 1_555 1_555
C3 C5 1_555 1_555
C4 C1 1_555 1_555
H1 C4 1_555 1_555
C5 C31 1_555 1_555
C6 C3 1_555 1_555
C7 C3 1_555 1_555
H2 C7 1_555 1_555
C8 C7 1_555 1_555
H3 C8 1_555 1_555
C9 C8 1_555 1_555
H4 C9 1_555 1_555
O1 C2 1_555 1_555
H5 O1 1_555 1_555
C10 C14 1_555 1_555
C11 H6 1_555 1_555
C12 C15 1_555 1_555
C13 C14 1_555 1_555
C14 C11 1_555 1_555
C15 C10 1_555 1_555
C16 C15 1_555 1_555
H7 C16 1_555 1_555
C17 C13 1_555 1_555
C18 C13 1_555 1_555
H8 C18 1_555 1_555
C19 C18 1_555 1_555
H9 C19 1_555 1_555
C20 C19 1_555 1_555
H10 C20 1_555 1_555
O2 C10 1_555 1_555
H11 O2 1_555 1_555
C21 C22 1_555 1_555
C22 H12 1_555 1_555
C23 H13 1_555 1_555
C24 C21 1_555 1_555
C25 C23 1_555 1_555
H14 C25 1_555 1_555
C26 C22 1_555 1_555
H15 C26 1_555 1_555
C27 C28 1_555 1_555
C28 C29 1_555 1_555
C29 C21 1_555 1_555
C30 C24 1_555 1_555
H16 C30 1_555 1_555
O3 C12 1_555 1_555
O4 C28 1_555 1_555
H17 O4 1_555 1_555
C31 C29 1_555 1_555
H18 C31 1_555 1_555
H19 C31 1_555 1_555
C32 C27 1_555 1_555
C33 C1 1_555 1_555
O5 C33 1_555 1_555
O6 C33 1_555 1_555
O7 Dy1 1_555 1_555
O8 Dy1 1_555 1_555
O9 C32 1_555 1_555
O10 C12 1_555 1_555
C34 C6 1_555 1_555
H20 C34 1_555 1_555
C35 H21 1_555 1_555
C36 H22 1_555 1_555
H23 C36 1_555 1_555
H24 C36 1_555 1_555
N1 C35 1_555 1_555
O11 Dy1 1_555 1_555
C37 C17 1_555 1_555
H25 C37 1_555 1_555
C38 N1 1_555 1_555
H26 C38 1_555 1_555
H27 C38 1_555 1_555
H28 C38 1_555 1_555
C10A C14A 1_555 1_555
H6A C11 1_555 1_555
C12A C15A 1_555 1_555
C13A C14A 1_555 1_555
C14A C11 1_555 1_555
C15A C10A 1_555 1_555
C16A C15A 1_555 1_555
H7A C16A 1_555 1_555
C17A C13A 1_555 1_555
C18A C13A 1_555 1_555
H8A C18A 1_555 1_555
C19A C18A 1_555 1_555
H9A C19A 1_555 1_555
C20A C19A 1_555 1_555
H10A C20A 1_555 1_555
O2A C10A 1_555 1_555
H11A O2A 1_555 1_555
O3A C12A 1_555 1_555
O10A C12A 1_555 1_555
C37A C17A 1_555 1_555
H25A C37A 1_555 1_555
Dy1A O3A 1_555 1_555
C1A C2A 1_555 1_555
C2A C5A 1_555 1_555
C3A C5A 1_555 1_555
C4A C1A 1_555 1_555
H1A C4A 1_555 1_555
C5A C31A 1_555 1_555
C6A C3A 1_555 1_555
C7A C3A 1_555 1_555
H2A C7A 1_555 1_555
C8A C7A 1_555 1_555
H3A C8A 1_555 1_555
C9A C8A 1_555 1_555
H4A C9A 1_555 1_555
O1A C2A 1_555 1_555
H5A O1A 1_555 1_555
C21A C22A 1_555 1_555
C22A H12A 1_555 1_555
C23A H13A 1_555 1_555
C24A C21A 1_555 1_555
C25A C23A 1_555 1_555
H14A C25A 1_555 1_555
C26A C22A 1_555 1_555
H15A C26A 1_555 1_555
C27A C28A 1_555 1_555
C28A C29A 1_555 1_555
C29A C21A 1_555 1_555
C30A C24A 1_555 1_555
H16A C30A 1_555 1_555
O4A C28A 1_555 1_555
H17A O4A 1_555 1_555
C31A C29A 1_555 1_555
H18A C31A 1_555 1_555
H19A C31A 1_555 1_555
C32A C27A 1_555 1_555
C33A C1A 1_555 1_555
O5A C33A 1_555 1_555
O6A C33A 1_555 1_555
O7A Dy1A 1_555 1_555
O8A Dy1A 1_555 1_555
O9A C32A 1_555 1_555
C34A C6A 1_555 1_555
H20A C34A 1_555 1_555
C35A H21A 1_555 1_555
C36A H22A 1_555 1_555
H23A C36A 1_555 1_555
H24A C36A 1_555 1_555
N1A C35A 1_555 1_555
O11A Dy1A 1_555 1_555
C38A N1A 1_555 1_555
H26A C38A 1_555 1_555
H27A C38A 1_555 1_555
H28A C38A 1_555 1_555
Dy1D O5A 1_555 1_555
Dy1E O5 1_555 1_555
Dy1F O9 1_555 1_555
Dy1G O10A 1_555 1_555
O5D Dy1A 1_555 1_555
O5E Dy1 1_555 1_555
O6D Dy1A 1_555 1_555
O6E Dy1 1_555 1_555
O9F Dy1 1_555 1_555
O9G Dy1A 1_555 1_555
O10F Dy1 1_555 1_555
O10G Dy1A 1_555 1_555
C4 C6 1_555 1_555
C9 C34 1_555 1_555
C16 C17 1_555 1_555
C20 C37 1_555 1_555
C23 C26 1_555 1_555
C24 C25 1_555 1_555
C27 C30 1_555 1_555
C32 O7 1_555 1_555
O6 Dy1E 1_555 1_555
O10 Dy1F 1_555 1_555
C35 O11 1_555 1_555
C36 N1 1_555 1_555
C16A C17A 1_555 1_555
C20A C37A 1_555 1_555
C4A C6A 1_555 1_555
C9A C34A 1_555 1_555
C23A C26A 1_555 1_555
C24A C25A 1_555 1_555
C27A C30A 1_555 1_555
C32A O7A 1_555 1_555
O6A Dy1D 1_555 1_555
O9A Dy1G 1_555 1_555
C35A O11A 1_555 1_555
C36A N1A 1_555 1_555

#END
