
#######################################################################
#
#                 Cambridge Crystallographic Data Centre
#                                CCDC 
#
#######################################################################
#
# If this CIF has been generated from an entry in the Cambridge 
# Structural Database, then it will include bibliographic, chemical, 
# crystal, experimental, refinement or atomic coordinate data resulting 
# from the CCDC's data processing and validation procedures.
#
#######################################################################

data_FOBTOG
_symmetry_cell_setting           monoclinic
_symmetry_space_group_name_H-M   'P 21/n'
_symmetry_Int_Tables_number      14
_space_group_name_Hall           '-P 2yn'
loop_
_symmetry_equiv_pos_site_id
_symmetry_equiv_pos_as_xyz
1 x,y,z
2 1/2-x,1/2+y,1/2-z
3 -x,-y,-z
4 1/2+x,1/2-y,1/2+z
_cell_length_a                   11.398(4)
_cell_length_b                   18.283(6)
_cell_length_c                   11.659(4)
_cell_angle_alpha                90
_cell_angle_beta                 115.690(5)
_cell_angle_gamma                90
_cell_volume                     2189.45
loop_
_atom_site_label
_atom_site_type_symbol
_atom_site_fract_x
_atom_site_fract_y
_atom_site_fract_z
Li1 Li 0.2564(5) 0.1267(3) 0.1526(5)
N1 N 0.4210(2) 0.17438(14) 0.2474(2)
N2 N 0.1504(2) 0.16677(14) 0.2309(2)
N3 N 0.6729(2) 0.36768(14) 0.4593(2)
Si1 Si 0.56233(9) 0.12539(6) 0.29166(9)
Si2 Si 0.07108(9) 0.09181(5) 0.24724(8)
C1 C 0.1662(3) 0.23808(18) 0.2450(3)
C2 C 0.0588(3) 0.28644(17) 0.2567(3)
C3 C 0.0292(3) 0.25756(18) 0.3642(3)
H1 H 0.1076 0.2573 0.4422
H2 H -0.0045 0.2087 0.3445
H3 H -0.0342 0.2885 0.3734
C4 C -0.0645(3) 0.28363(17) 0.1307(3)
H4 H -0.1332 0.3098 0.1394
H5 H -0.0903 0.2336 0.1089
H6 H -0.0475 0.3057 0.0647
C5 C 0.0958(3) 0.36687(17) 0.2870(3)
H7 H 0.1748 0.3704 0.3642
H8 H 0.0272 0.3921 0.2975
H9 H 0.1086 0.3887 0.2184
C6 C 0.2771(3) 0.27347(16) 0.2483(3)
H10 H 0.2715 0.3242 0.2414
C7 C 0.3946(3) 0.24312(19) 0.2606(3)
C8 C 0.5032(3) 0.29881(17) 0.2925(3)
C9 C 0.5437(3) 0.32449(18) 0.2059(3)
H11 H 0.5012 0.3101 0.1212
C10 C 0.6478(3) 0.3719(2) 0.2444(3)
H12 H 0.6760 0.3907 0.1865
C11 C 0.7090(3) 0.39061(17) 0.3714(3)
H13 H 0.7807 0.4215 0.3974
C12 C 0.5688(3) 0.32324(16) 0.4169(3)
H14 H 0.5386 0.3077 0.4752
C13 C 0.7211(3) 0.17301(18) 0.3567(3)
H15 H 0.7247 0.2051 0.2932
H16 H 0.7899 0.1376 0.3806
H17 H 0.7311 0.2010 0.4301
C14 C 0.5697(3) 0.0622(2) 0.4179(3)
H18 H 0.5802 0.0897 0.4918
H19 H 0.6422 0.0296 0.4393
H20 H 0.4906 0.0344 0.3881
C15 C 0.5462(3) 0.07068(18) 0.1524(3)
H21 H 0.4673 0.0426 0.1222
H22 H 0.6193 0.0383 0.1766
H23 H 0.5435 0.1027 0.0861
C16 C 0.1064(3) 0.07107(17) 0.4155(2)
H24 H 0.1973 0.0789 0.4690
H25 H 0.0846 0.0210 0.4221
H26 H 0.0556 0.1026 0.4422
C17 C -0.1079(3) 0.08788(17) 0.1460(3)
H27 H -0.1506 0.1235 0.1753
H28 H -0.1396 0.0399 0.1513
H29 H -0.1257 0.0982 0.0593
C18 C 0.1420(3) 0.01364(16) 0.1940(3)
H30 H 0.1253 0.0207 0.1067
H31 H 0.1027 -0.0313 0.2022
H32 H 0.2342 0.0115 0.2460
Li1C Li 0.7564(5) 0.3733(3) 0.6526(5)
N3C N 0.1729(2) 0.13232(14) -0.0407(2)
loop_
_geom_bond_atom_site_label_1
_geom_bond_atom_site_label_2
_geom_bond_site_symmetry_1
_geom_bond_site_symmetry_2
Li1 N1 1_555 1_555
N1 Si1 1_555 1_555
N2 Li1 1_555 1_555
N3 C11 1_555 1_555
Si1 C13 1_555 1_555
Si2 N2 1_555 1_555
C1 N2 1_555 1_555
C2 C1 1_555 1_555
C3 C2 1_555 1_555
H1 C3 1_555 1_555
H2 C3 1_555 1_555
H3 C3 1_555 1_555
C4 C2 1_555 1_555
H4 C4 1_555 1_555
H5 C4 1_555 1_555
H6 C4 1_555 1_555
C5 C2 1_555 1_555
H7 C5 1_555 1_555
H8 C5 1_555 1_555
H9 C5 1_555 1_555
C6 C1 1_555 1_555
H10 C6 1_555 1_555
C7 N1 1_555 1_555
C8 C7 1_555 1_555
C9 C8 1_555 1_555
H11 C9 1_555 1_555
C10 C9 1_555 1_555
H12 C10 1_555 1_555
C11 C10 1_555 1_555
H13 C11 1_555 1_555
C12 N3 1_555 1_555
H14 C12 1_555 1_555
C13 H15 1_555 1_555
H16 C13 1_555 1_555
H17 C13 1_555 1_555
C14 Si1 1_555 1_555
H18 C14 1_555 1_555
H19 C14 1_555 1_555
H20 C14 1_555 1_555
C15 Si1 1_555 1_555
H21 C15 1_555 1_555
H22 C15 1_555 1_555
H23 C15 1_555 1_555
C16 Si2 1_555 1_555
H24 C16 1_555 1_555
H25 C16 1_555 1_555
H26 C16 1_555 1_555
C17 Si2 1_555 1_555
H27 C17 1_555 1_555
H28 C17 1_555 1_555
H29 C17 1_555 1_555
C18 Si2 1_555 1_555
H30 C18 1_555 1_555
H31 C18 1_555 1_555
H32 C18 1_555 1_555
Li1C N3 1_555 1_555
N3C Li1 1_555 1_555
C6 C7 1_555 1_555
C8 C12 1_555 1_555

#END
