
#######################################################################
#
#                 Cambridge Crystallographic Data Centre
#                                CCDC 
#
#######################################################################
#
# If this CIF has been generated from an entry in the Cambridge 
# Structural Database, then it will include bibliographic, chemical, 
# crystal, experimental, refinement or atomic coordinate data resulting 
# from the CCDC's data processing and validation procedures.
#
#######################################################################

data_FOBWAV
_symmetry_cell_setting           monoclinic
_symmetry_space_group_name_H-M   'P 21/c'
_symmetry_Int_Tables_number      14
_space_group_name_Hall           '-P 2ybc'
loop_
_symmetry_equiv_pos_site_id
_symmetry_equiv_pos_as_xyz
1 x,y,z
2 -x,1/2+y,1/2-z
3 -x,-y,-z
4 x,1/2-y,1/2+z
_cell_length_a                   12.2223(18)
_cell_length_b                   15.017(2)
_cell_length_c                   11.3182(16)
_cell_angle_alpha                90
_cell_angle_beta                 92.026(3)
_cell_angle_gamma                90
_cell_volume                     2076.07
loop_
_atom_site_label
_atom_site_type_symbol
_atom_site_fract_x
_atom_site_fract_y
_atom_site_fract_z
Ni1 Ni 0.61514(3) 0.05986(2) 0.79313(3)
O1 O 0.49510(16) 0.11844(13) 0.87899(17)
O2 O 0.50408(16) 0.17099(14) 0.69694(18)
O3 O 0.04701(17) 0.33318(16) 0.83212(18)
O4 O -0.26269(16) 0.37183(13) 0.37038(18)
O5 O -0.26358(19) 0.50757(15) 0.4409(2)
N1 N 0.51615(19) -0.03797(15) 0.7379(2)
N2 N 0.69440(18) 0.02205(16) 0.6498(2)
C1 C 0.4289(3) -0.0678(2) 0.7939(3)
H1 H 0.4126 -0.0428 0.8664
C2 C 0.3623(3) -0.1342(2) 0.7481(3)
H2 H 0.3028 -0.1546 0.7894
C3 C 0.3858(3) -0.1697(2) 0.6396(3)
H3 H 0.3415 -0.2140 0.6061
C4 C 0.4750(2) -0.13938(18) 0.5811(3)
H4 H 0.4910 -0.1622 0.5073
C5 C 0.5404(2) -0.07461(18) 0.6335(2)
C6 C 0.6424(2) -0.04008(18) 0.5833(2)
C7 C 0.6831(3) -0.0687(2) 0.4780(3)
H5 H 0.6466 -0.1120 0.4331
C8 C 0.7787(3) -0.0320(3) 0.4408(3)
H6 H 0.8079 -0.0508 0.3702
C9 C 0.8316(3) 0.0323(3) 0.5073(3)
H7 H 0.8959 0.0582 0.4823
C10 C 0.7871(3) 0.0573(2) 0.6115(3)
H8 H 0.8227 0.1005 0.6574
C11 C 0.4562(2) 0.16481(19) 0.7923(3)
C12 C 0.3479(2) 0.20919(17) 0.8047(2)
C13 C 0.3142(2) 0.27215(19) 0.7210(2)
H9 H 0.3597 0.2864 0.6597
C14 C 0.2140(2) 0.31377(18) 0.7279(3)
H10 H 0.1922 0.3564 0.6723
C15 C 0.1471(2) 0.2913(2) 0.8182(3)
C16 C 0.1788(2) 0.2292(2) 0.9026(3)
H11 H 0.1328 0.2148 0.9634
C17 C 0.2801(2) 0.18895(19) 0.8954(2)
H12 H 0.3027 0.1477 0.9525
C18 C -0.0122(2) 0.3562(2) 0.7287(3)
C19 C -0.0481(3) 0.2923(2) 0.6506(3)
H13 H -0.0281 0.2330 0.6617
C20 C -0.1148(2) 0.3169(2) 0.5544(3)
H14 H -0.1384 0.2739 0.5002
C21 C -0.1466(2) 0.4038(2) 0.5380(3)
C22 C -0.1068(3) 0.4672(2) 0.6169(3)
H15 H -0.1259 0.5266 0.6057
C23 C -0.0391(3) 0.4435(2) 0.7120(3)
H16 H -0.0121 0.4868 0.7642
C24 C -0.2286(2) 0.4309(2) 0.4434(3)
Ni1C Ni -0.38486(3) 0.44014(2) 0.29313(3)
O4C O 0.73731(16) 0.12817(13) 0.87038(18)
O5C O 0.73642(19) -0.00757(15) 0.9409(2)
loop_
_geom_bond_atom_site_label_1
_geom_bond_atom_site_label_2
_geom_bond_site_symmetry_1
_geom_bond_site_symmetry_2
Ni1 O1 1_555 1_555
O1 C11 1_555 1_555
O2 Ni1 1_555 1_555
O3 C15 1_555 1_555
O4 C24 1_555 1_555
O5 C24 1_555 1_555
N1 Ni1 1_555 1_555
N2 Ni1 1_555 1_555
C1 N1 1_555 1_555
H1 C1 1_555 1_555
C2 C1 1_555 1_555
H2 C2 1_555 1_555
C3 C2 1_555 1_555
H3 C3 1_555 1_555
C4 C3 1_555 1_555
H4 C4 1_555 1_555
C5 N1 1_555 1_555
C6 N2 1_555 1_555
C7 C6 1_555 1_555
H5 C7 1_555 1_555
C8 C7 1_555 1_555
H6 C8 1_555 1_555
C9 C8 1_555 1_555
H7 C9 1_555 1_555
C10 N2 1_555 1_555
H8 C10 1_555 1_555
C11 O2 1_555 1_555
C12 C11 1_555 1_555
C13 C12 1_555 1_555
H9 C13 1_555 1_555
C14 C13 1_555 1_555
H10 C14 1_555 1_555
C15 C14 1_555 1_555
C16 C15 1_555 1_555
H11 C16 1_555 1_555
C17 C12 1_555 1_555
H12 C17 1_555 1_555
C18 O3 1_555 1_555
C19 C18 1_555 1_555
H13 C19 1_555 1_555
C20 C19 1_555 1_555
H14 C20 1_555 1_555
C21 C20 1_555 1_555
C22 C21 1_555 1_555
H15 C22 1_555 1_555
C23 C18 1_555 1_555
H16 C23 1_555 1_555
C24 C21 1_555 1_555
Ni1C O4 1_555 1_555
O4C Ni1 1_555 1_555
O5C Ni1 1_555 1_555
O5 Ni1C 1_555 1_555
C4 C5 1_555 1_555
C5 C6 1_555 1_555
C9 C10 1_555 1_555
C16 C17 1_555 1_555
C22 C23 1_555 1_555

#END
