
#######################################################################
#
#                 Cambridge Crystallographic Data Centre
#                                CCDC 
#
#######################################################################
#
# If this CIF has been generated from an entry in the Cambridge 
# Structural Database, then it will include bibliographic, chemical, 
# crystal, experimental, refinement or atomic coordinate data resulting 
# from the CCDC's data processing and validation procedures.
#
#######################################################################

data_FOBXIF
_symmetry_cell_setting           triclinic
_symmetry_space_group_name_H-M   'P -1'
_symmetry_Int_Tables_number      2
_space_group_name_Hall           '-P 1'
loop_
_symmetry_equiv_pos_site_id
_symmetry_equiv_pos_as_xyz
1 x,y,z
2 -x,-y,-z
_cell_length_a                   7.6660(10)
_cell_length_b                   13.1780(10)
_cell_length_c                   16.1230(10)
_cell_angle_alpha                100.2320(10)
_cell_angle_beta                 99.5760(10)
_cell_angle_gamma                98.7850(10)
_cell_volume                     1552.41
loop_
_atom_site_label
_atom_site_type_symbol
_atom_site_fract_x
_atom_site_fract_y
_atom_site_fract_z
C1 C 0.3015(6) 0.2736(3) -0.1279(3)
H1 H 0.3125 0.2054 -0.1509
C2 C 0.3184(7) 0.3488(4) -0.1779(3)
H2 H 0.3363 0.3303 -0.2339
C3 C 0.3086(7) 0.4501(4) -0.1444(3)
H3 H 0.3227 0.5014 -0.1769
C4 C 0.2774(6) 0.4759(3) -0.0610(3)
C5 C 0.2653(7) 0.5804(3) -0.0215(3)
H4 H 0.2781 0.6340 -0.0518
C6 C 0.2357(7) 0.6014(3) 0.0585(4)
H5 H 0.2280 0.6697 0.0828
C7 C 0.2153(6) 0.5216(3) 0.1082(3)
C8 C 0.1845(7) 0.5410(4) 0.1922(3)
H6 H 0.1779 0.6084 0.2192
C9 C 0.1640(7) 0.4598(4) 0.2346(3)
H7 H 0.1408 0.4712 0.2899
C10 C 0.1784(6) 0.3593(3) 0.1934(3)
H8 H 0.1659 0.3051 0.2231
C11 C 0.2258(5) 0.4179(3) 0.0716(3)
C12 C 0.2592(5) 0.3949(3) -0.0145(3)
C13 C 0.6556(5) 0.2336(3) 0.1791(2)
C14 C 0.6702(5) 0.2408(3) 0.2759(3)
C15 C 0.5237(6) 0.2021(4) 0.3061(3)
H9 H 0.4157 0.1692 0.2691
C16 C 0.5424(7) 0.2136(5) 0.3938(3)
H10 H 0.4453 0.1858 0.4158
C17 C 0.8295(6) 0.2957(4) 0.4126(3)
C18 C 1.0011(6) 0.3463(4) 0.4733(3)
C19 C 1.1639(7) 0.3519(4) 0.4477(4)
H11 H 1.1676 0.3251 0.3908
C20 C 1.3221(8) 0.3970(5) 0.5059(4)
H12 H 1.4320 0.3992 0.4884
C21 C 1.3171(9) 0.4392(5) 0.5906(4)
H13 H 1.4231 0.4707 0.6298
C22 C 1.1555(9) 0.4339(5) 0.6158(4)
H14 H 1.1513 0.4621 0.6724
C23 C 0.9996(8) 0.3877(5) 0.5584(3)
H15 H 0.8904 0.3839 0.5768
C24 C -0.0097(5) 0.0343(3) 0.1563(2)
C25 C -0.0682(5) 0.0284(3) 0.2414(2)
C26 C 0.0493(6) 0.0726(4) 0.3178(3)
H16 H 0.1626 0.1111 0.3195
C27 C -0.0085(7) 0.0573(4) 0.3923(3)
H17 H 0.0709 0.0827 0.4447
C28 C -0.2810(6) -0.0284(3) 0.3142(3)
C29 C -0.4691(6) -0.0796(3) 0.3121(3)
C30 C -0.5243(8) -0.0959(5) 0.3871(3)
H18 H -0.4419 -0.0774 0.4391
C31 C -0.7012(8) -0.1396(6) 0.3851(4)
H19 H -0.7380 -0.1479 0.4361
C32 C -0.8216(7) -0.1704(4) 0.3094(3)
H20 H -0.9391 -0.2023 0.3084
C33 C -0.7705(6) -0.1547(4) 0.2343(3)
H21 H -0.8536 -0.1745 0.1826
C34 C -0.5950(6) -0.1092(3) 0.2360(3)
H22 H -0.5609 -0.0984 0.1851
C35 C 0.5403(5) 0.0360(3) -0.0278(2)
Eu1 Eu 0.23695(2) 0.152353(12) 0.038944(10)
N1 N 0.2704(4) 0.2949(2) -0.0487(2)
N2 N 0.2090(4) 0.3381(2) 0.1146(2)
N3 N 0.6922(6) 0.2623(4) 0.4477(2)
N4 N 0.8274(5) 0.2868(3) 0.3278(2)
N5 N -0.1730(5) 0.0077(3) 0.3916(2)
N6 N -0.2337(4) -0.0225(2) 0.2383(2)
O1 O 0.4976(4) 0.2259(2) 0.13838(18)
O2 O 0.7947(4) 0.2375(3) 0.1500(2)
O3 O 0.1165(3) 0.1087(2) 0.15825(17)
O4 O -0.0856(4) -0.0339(2) 0.09100(16)
O5 O 0.6680(3) 0.00791(19) -0.06040(17)
O6 O 0.4782(3) 0.11617(19) -0.03471(17)
O7 O -0.0705(3) 0.1841(2) 0.00457(17)
H23 H -0.119(7) 0.200(4) 0.053(2)
H24 H -0.150(6) 0.134(4) -0.037(2)
C35A C 0.4597(5) -0.0360(3) 0.0278(2)
O5A O 0.3320(3) -0.00791(19) 0.06040(17)
O6A O 0.5218(3) -0.11617(19) 0.03471(17)
C1A C -0.3015(6) -0.2736(3) 0.1279(3)
H1A H -0.3125 -0.2054 0.1509
C2A C -0.3184(7) -0.3488(4) 0.1779(3)
H2A H -0.3363 -0.3303 0.2339
C3A C -0.3086(7) -0.4501(4) 0.1444(3)
H3A H -0.3227 -0.5014 0.1769
C4A C -0.2774(6) -0.4759(3) 0.0610(3)
C5A C -0.2653(7) -0.5804(3) 0.0215(3)
H4A H -0.2781 -0.6340 0.0518
C6A C -0.2357(7) -0.6014(3) -0.0585(4)
H5A H -0.2280 -0.6697 -0.0828
C7A C -0.2153(6) -0.5216(3) -0.1082(3)
C8A C -0.1845(7) -0.5410(4) -0.1922(3)
H6A H -0.1779 -0.6084 -0.2192
C9A C -0.1640(7) -0.4598(4) -0.2346(3)
H7A H -0.1408 -0.4712 -0.2899
C10A C -0.1784(6) -0.3593(3) -0.1934(3)
H8A H -0.1659 -0.3051 -0.2231
C11A C -0.2258(5) -0.4179(3) -0.0716(3)
C12A C -0.2592(5) -0.3949(3) 0.0145(3)
C13A C -0.6556(5) -0.2336(3) -0.1791(2)
C14A C -0.6702(5) -0.2408(3) -0.2759(3)
C15A C -0.5237(6) -0.2021(4) -0.3061(3)
H9A H -0.4157 -0.1692 -0.2691
C16A C -0.5424(7) -0.2136(5) -0.3938(3)
H10A H -0.4453 -0.1858 -0.4158
C17A C -0.8295(6) -0.2957(4) -0.4126(3)
C18A C -1.0011(6) -0.3463(4) -0.4733(3)
C19A C -1.1639(7) -0.3519(4) -0.4477(4)
H11A H -1.1676 -0.3251 -0.3908
C20A C -1.3221(8) -0.3970(5) -0.5059(4)
H12A H -1.4320 -0.3992 -0.4884
C21A C -1.3171(9) -0.4392(5) -0.5906(4)
H13A H -1.4231 -0.4707 -0.6298
C22A C -1.1555(9) -0.4339(5) -0.6158(4)
H14A H -1.1513 -0.4621 -0.6724
C23A C -0.9996(8) -0.3877(5) -0.5584(3)
H15A H -0.8904 -0.3839 -0.5768
C24A C 0.0097(5) -0.0343(3) -0.1563(2)
C25A C 0.0682(5) -0.0284(3) -0.2414(2)
C26A C -0.0493(6) -0.0726(4) -0.3178(3)
H16A H -0.1626 -0.1111 -0.3195
C27A C 0.0085(7) -0.0573(4) -0.3923(3)
H17A H -0.0709 -0.0827 -0.4447
C28A C 0.2810(6) 0.0284(3) -0.3142(3)
C29A C 0.4691(6) 0.0796(3) -0.3121(3)
C30A C 0.5243(8) 0.0959(5) -0.3871(3)
H18A H 0.4419 0.0774 -0.4391
C31A C 0.7012(8) 0.1396(6) -0.3851(4)
H19A H 0.7380 0.1479 -0.4361
C32A C 0.8216(7) 0.1704(4) -0.3094(3)
H20A H 0.9391 0.2023 -0.3084
C33A C 0.7705(6) 0.1547(4) -0.2343(3)
H21A H 0.8536 0.1745 -0.1826
C34A C 0.5950(6) 0.1092(3) -0.2360(3)
H22A H 0.5609 0.0984 -0.1851
Eu1A Eu -0.23695(2) -0.152353(12) -0.038944(10)
N1A N -0.2704(4) -0.2949(2) 0.0487(2)
N2A N -0.2090(4) -0.3381(2) -0.1146(2)
N3A N -0.6922(6) -0.2623(4) -0.4477(2)
N4A N -0.8274(5) -0.2868(3) -0.3278(2)
N5A N 0.1730(5) -0.0077(3) -0.3916(2)
N6A N 0.2337(4) 0.0225(2) -0.2383(2)
O1A O -0.4976(4) -0.2259(2) -0.13838(18)
O2A O -0.7947(4) -0.2375(3) -0.1500(2)
O3A O -0.1165(3) -0.1087(2) -0.15825(17)
O4A O 0.0856(4) 0.0339(2) -0.09100(16)
O7A O 0.0705(3) -0.1841(2) -0.00457(17)
H23A H 0.119(7) -0.200(4) -0.053(2)
H24A H 0.150(6) -0.134(4) 0.037(2)
Eu1A_2 Eu 0.76305(2) -0.152353(12) -0.038944(10)
O5_2 O -0.3320(3) 0.00791(19) -0.06040(17)
O6A_2 O -0.4782(3) -0.11617(19) 0.03471(17)
loop_
_geom_bond_atom_site_label_1
_geom_bond_atom_site_label_2
_geom_bond_site_symmetry_1
_geom_bond_site_symmetry_2
C1 H1 1_555 1_555
C2 C1 1_555 1_555
H2 C2 1_555 1_555
C3 C2 1_555 1_555
H3 C3 1_555 1_555
C4 C3 1_555 1_555
C5 C4 1_555 1_555
H4 C5 1_555 1_555
C6 C5 1_555 1_555
H5 C6 1_555 1_555
C7 C6 1_555 1_555
C8 C7 1_555 1_555
H6 C8 1_555 1_555
C9 C8 1_555 1_555
H7 C9 1_555 1_555
C10 C9 1_555 1_555
H8 C10 1_555 1_555
C11 C7 1_555 1_555
C12 C4 1_555 1_555
C13 C14 1_555 1_555
C14 C15 1_555 1_555
C15 H9 1_555 1_555
C16 C15 1_555 1_555
H10 C16 1_555 1_555
C17 C18 1_555 1_555
C18 C19 1_555 1_555
C19 H11 1_555 1_555
C20 C19 1_555 1_555
H12 C20 1_555 1_555
C21 C20 1_555 1_555
H13 C21 1_555 1_555
C22 C21 1_555 1_555
H14 C22 1_555 1_555
C23 C18 1_555 1_555
H15 C23 1_555 1_555
C24 C25 1_555 1_555
C25 C26 1_555 1_555
C26 H16 1_555 1_555
C27 C26 1_555 1_555
H17 C27 1_555 1_555
C28 C29 1_555 1_555
C29 C30 1_555 1_555
C30 H18 1_555 1_555
C31 C30 1_555 1_555
H19 C31 1_555 1_555
C32 C31 1_555 1_555
H20 C32 1_555 1_555
C33 C32 1_555 1_555
H21 C33 1_555 1_555
C34 C29 1_555 1_555
H22 C34 1_555 1_555
C35 O5 1_555 1_555
Eu1 N1 1_555 1_555
N1 C1 1_555 1_555
N2 C10 1_555 1_555
N3 C16 1_555 1_555
N4 C14 1_555 1_555
N5 C27 1_555 1_555
N6 C25 1_555 1_555
O1 C13 1_555 1_555
O2 C13 1_555 1_555
O3 C24 1_555 1_555
O4 C24 1_555 1_555
O5 Eu1A_2 1_555 1_555
O6 C35 1_555 1_555
O7 Eu1 1_555 1_555
H23 O7 1_555 1_555
H24 O7 1_555 1_555
C35A C35 1_555 1_555
O5A Eu1 1_555 1_555
O6A C35A 1_555 1_555
C1A H1A 1_555 1_555
C2A C1A 1_555 1_555
H2A C2A 1_555 1_555
C3A C2A 1_555 1_555
H3A C3A 1_555 1_555
C4A C3A 1_555 1_555
C5A C4A 1_555 1_555
H4A C5A 1_555 1_555
C6A C5A 1_555 1_555
H5A C6A 1_555 1_555
C7A C6A 1_555 1_555
C8A C7A 1_555 1_555
H6A C8A 1_555 1_555
C9A C8A 1_555 1_555
H7A C9A 1_555 1_555
C10A C9A 1_555 1_555
H8A C10A 1_555 1_555
C11A C7A 1_555 1_555
C12A C4A 1_555 1_555
C13A C14A 1_555 1_555
C14A C15A 1_555 1_555
C15A H9A 1_555 1_555
C16A C15A 1_555 1_555
H10A C16A 1_555 1_555
C17A C18A 1_555 1_555
C18A C19A 1_555 1_555
C19A H11A 1_555 1_555
C20A C19A 1_555 1_555
H12A C20A 1_555 1_555
C21A C20A 1_555 1_555
H13A C21A 1_555 1_555
C22A C21A 1_555 1_555
H14A C22A 1_555 1_555
C23A C18A 1_555 1_555
H15A C23A 1_555 1_555
C24A C25A 1_555 1_555
C25A C26A 1_555 1_555
C26A H16A 1_555 1_555
C27A C26A 1_555 1_555
H17A C27A 1_555 1_555
C28A C29A 1_555 1_555
C29A C30A 1_555 1_555
C30A H18A 1_555 1_555
C31A C30A 1_555 1_555
H19A C31A 1_555 1_555
C32A C31A 1_555 1_555
H20A C32A 1_555 1_555
C33A C32A 1_555 1_555
H21A C33A 1_555 1_555
C34A C29A 1_555 1_555
H22A C34A 1_555 1_555
Eu1A O4 1_555 1_555
N1A C1A 1_555 1_555
N2A C10A 1_555 1_555
N3A C16A 1_555 1_555
N4A C14A 1_555 1_555
N5A C27A 1_555 1_555
N6A C25A 1_555 1_555
O1A C13A 1_555 1_555
O2A C13A 1_555 1_555
O3A C24A 1_555 1_555
O4A Eu1 1_555 1_555
O7A Eu1A 1_555 1_555
H23A O7A 1_555 1_555
H24A O7A 1_555 1_555
Eu1A_2 O6A 1_555 1_555
O5_2 Eu1A 1_555 1_555
O6A_2 Eu1A 1_555 1_555
C11 C12 1_555 1_555
C11 N2 1_555 1_555
C12 N1 1_555 1_555
C17 N3 1_555 1_555
C17 N4 1_555 1_555
C22 C23 1_555 1_555
C28 N5 1_555 1_555
C28 N6 1_555 1_555
C33 C34 1_555 1_555
Eu1 N2 1_555 1_555
Eu1 O1 1_555 1_555
Eu1 O3 1_555 1_555
Eu1 O6 1_555 1_555
C35A O5A 1_555 1_555
C11A C12A 1_555 1_555
C11A N2A 1_555 1_555
C12A N1A 1_555 1_555
C17A N3A 1_555 1_555
C17A N4A 1_555 1_555
C22A C23A 1_555 1_555
C24A O4A 1_555 1_555
C28A N5A 1_555 1_555
C28A N6A 1_555 1_555
C33A C34A 1_555 1_555
Eu1A N1A 1_555 1_555
Eu1A N2A 1_555 1_555
Eu1A O1A 1_555 1_555
Eu1A O3A 1_555 1_555

#END
