
#######################################################################
#
#                 Cambridge Crystallographic Data Centre
#                                CCDC 
#
#######################################################################
#
# If this CIF has been generated from an entry in the Cambridge 
# Structural Database, then it will include bibliographic, chemical, 
# crystal, experimental, refinement or atomic coordinate data resulting 
# from the CCDC's data processing and validation procedures.
#
#######################################################################

data_FOBXUR
_symmetry_cell_setting           triclinic
_symmetry_space_group_name_H-M   'P -1'
_symmetry_Int_Tables_number      2
_space_group_name_Hall           '-P 1'
loop_
_symmetry_equiv_pos_site_id
_symmetry_equiv_pos_as_xyz
1 x,y,z
2 -x,-y,-z
_cell_length_a                   8.942(1)
_cell_length_b                   10.033(1)
_cell_length_c                   12.792(1)
_cell_angle_alpha                79.834(1)
_cell_angle_beta                 79.463(1)
_cell_angle_gamma                86.005(1)
_cell_volume                     1109.74
loop_
_atom_site_label
_atom_site_type_symbol
_atom_site_fract_x
_atom_site_fract_y
_atom_site_fract_z
C1 C 0.7113(4) 0.9906(4) 0.1228(3)
C2 C 0.5498(4) 0.9900(4) 0.1807(3)
C3 C 0.4321(4) 1.0512(4) 0.1265(3)
H1 H 0.4526 1.0978 0.0562
C4 C 0.2868(4) 1.0389(4) 0.1821(3)
C5 C 0.1560(4) 1.0877(4) 0.1227(3)
C6 C 0.3742(4) 0.9437(4) 0.3352(3)
C7 C 0.3431(4) 0.8982(4) 0.4538(3)
C8 C 0.2036(5) 0.9217(5) 0.5132(4)
H2 H 0.1274 0.9702 0.4802
C9 C 0.1762(7) 0.8725(7) 0.6239(4)
H3 H 0.0803 0.8876 0.6636
C10 C 0.2840(7) 0.8042(6) 0.6747(4)
H4 H 0.2624 0.7713 0.7483
C11 C 0.4270(7) 0.7833(5) 0.6168(4)
H5 H 0.5027 0.7376 0.6519
C12 C 0.4591(6) 0.8298(5) 0.5064(4)
H6 H 0.5559 0.8161 0.4676
C13 C 0.8921(5) 0.7532(5) 0.3269(4)
H7 H 0.8048 0.7900 0.3012
C14 C 0.8860(6) 0.7228(6) 0.4387(4)
H8 H 0.7966 0.7406 0.4849
C15 C 1.0083(6) 0.6681(5) 0.4792(4)
H9 H 1.0047 0.6481 0.5534
C16 C 1.1443(5) 0.6408(4) 0.4071(4)
C17 C 1.2761(6) 0.5844(5) 0.4443(4)
H10 H 1.2750 0.5602 0.5180
C18 C 1.4077(6) 0.5644(5) 0.3729(4)
H11 H 1.4948 0.5273 0.3988
C19 C 1.4113(5) 0.6002(5) 0.2595(4)
C20 C 1.5411(5) 0.5862(5) 0.1832(4)
H12 H 1.6323 0.5542 0.2054
C21 C 1.5356(5) 0.6187(5) 0.0767(4)
H13 H 1.6224 0.6084 0.0258
C22 C 1.3994(5) 0.6677(5) 0.0440(4)
H14 H 1.3968 0.6874 -0.0294
C23 C 1.1419(5) 0.6760(4) 0.2956(3)
C24 C 1.2756(4) 0.6557(4) 0.2207(3)
C25 C 1.0646(4) 0.5127(4) -0.0499(3)
Eu1 Eu 1.028262(19) 0.792508(18) 0.046594(14)
N1 N 0.5211(4) 0.9335(3) 0.2842(3)
N2 N 0.2551(4) 0.9879(3) 0.2871(3)
N3 N 1.0142(4) 0.7328(3) 0.2563(3)
N4 N 1.2713(4) 0.6880(3) 0.1138(3)
O1 O 0.7814(3) 0.8775(3) 0.1221(2)
O2 O 0.7607(3) 1.1036(3) 0.0784(2)
O3 O 0.1380(3) 1.2113(3) 0.0905(3)
O4 O 0.0738(3) 1.0014(3) 0.1018(2)
O5 O 1.1315(3) 0.6217(3) -0.0655(2)
O6 O 1.0908(3) 0.4208(3) -0.1071(2)
C25A C 0.9354(4) 0.4873(4) 0.0499(3)
O5A O 0.8685(3) 0.3783(3) 0.0655(2)
O6A O 0.9092(3) 0.5792(3) 0.1071(2)
C1A C 0.2887(4) 1.0094(4) -0.1228(3)
C2A C 0.4502(4) 1.0100(4) -0.1807(3)
C3A C 0.5679(4) 0.9488(4) -0.1265(3)
H1A H 0.5474 0.9022 -0.0562
C4A C 0.7132(4) 0.9611(4) -0.1821(3)
C5A C 0.8440(4) 0.9123(4) -0.1227(3)
C6A C 0.6258(4) 1.0563(4) -0.3352(3)
C7A C 0.6569(4) 1.1018(4) -0.4538(3)
C8A C 0.7964(5) 1.0783(5) -0.5132(4)
H2A H 0.8726 1.0298 -0.4802
C9A C 0.8238(7) 1.1275(7) -0.6239(4)
H3A H 0.9197 1.1124 -0.6636
C10A C 0.7160(7) 1.1958(6) -0.6747(4)
H4A H 0.7376 1.2287 -0.7483
C11A C 0.5730(7) 1.2167(5) -0.6168(4)
H5A H 0.4973 1.2624 -0.6519
C12A C 0.5409(6) 1.1702(5) -0.5064(4)
H6A H 0.4441 1.1839 -0.4676
C13A C 0.1079(5) 1.2468(5) -0.3269(4)
H7A H 0.1952 1.2100 -0.3012
C14A C 0.1140(6) 1.2772(6) -0.4387(4)
H8A H 0.2034 1.2594 -0.4849
C15A C -0.0083(6) 1.3319(5) -0.4792(4)
H9A H -0.0047 1.3519 -0.5534
C16A C -0.1443(5) 1.3592(4) -0.4071(4)
C17A C -0.2761(6) 1.4156(5) -0.4443(4)
H10A H -0.2750 1.4398 -0.5180
C18A C -0.4077(6) 1.4356(5) -0.3729(4)
H11A H -0.4948 1.4727 -0.3988
C19A C -0.4113(5) 1.3998(5) -0.2595(4)
C20A C -0.5411(5) 1.4138(5) -0.1832(4)
H12A H -0.6323 1.4458 -0.2054
C21A C -0.5356(5) 1.3813(5) -0.0767(4)
H13A H -0.6224 1.3916 -0.0258
C22A C -0.3994(5) 1.3323(5) -0.0440(4)
H14A H -0.3968 1.3126 0.0294
C23A C -0.1419(5) 1.3240(4) -0.2956(3)
C24A C -0.2756(4) 1.3443(4) -0.2207(3)
Eu1A Eu -0.028262(19) 1.207492(18) -0.046594(14)
N1A N 0.4789(4) 1.0665(3) -0.2842(3)
N2A N 0.7449(4) 1.0121(3) -0.2871(3)
N3A N -0.0142(4) 1.2672(3) -0.2563(3)
N4A N -0.2713(4) 1.3120(3) -0.1138(3)
O1A O 0.2186(3) 1.1225(3) -0.1221(2)
O2A O 0.2393(3) 0.8964(3) -0.0784(2)
O3A O 0.8620(3) 0.7887(3) -0.0905(3)
O4A O 0.9262(3) 0.9986(3) -0.1018(2)
Eu1_2 Eu 0.028262(19) 0.792508(18) 0.046594(14)
Eu1A_2 Eu 0.971738(19) 0.207492(18) -0.046594(14)
Eu1A_3 Eu 0.971738(19) 1.207492(18) -0.046594(14)
O2_2 O -0.2393(3) 1.1036(3) 0.0784(2)
O2A_2 O 1.2393(3) 0.8964(3) -0.0784(2)
O4_2 O 1.0738(3) 1.0014(3) 0.1018(2)
O4A_2 O -0.0738(3) 0.9986(3) -0.1018(2)
O5A_2 O -0.1315(3) 1.3783(3) 0.0655(2)
O6_2 O 0.0908(3) 1.4208(3) -0.1071(2)
O7 O 0.864(2) 0.6310(14) 0.7409(10)
loop_
_geom_bond_atom_site_label_1
_geom_bond_atom_site_label_2
_geom_bond_site_symmetry_1
_geom_bond_site_symmetry_2
C1 C2 1_555 1_555
C2 C3 1_555 1_555
C3 H1 1_555 1_555
C4 C3 1_555 1_555
C5 C4 1_555 1_555
C6 C7 1_555 1_555
C7 C8 1_555 1_555
C8 H2 1_555 1_555
C9 C8 1_555 1_555
H3 C9 1_555 1_555
C10 C9 1_555 1_555
H4 C10 1_555 1_555
C11 C10 1_555 1_555
H5 C11 1_555 1_555
C12 C7 1_555 1_555
H6 C12 1_555 1_555
C13 H7 1_555 1_555
C14 C13 1_555 1_555
H8 C14 1_555 1_555
C15 C14 1_555 1_555
H9 C15 1_555 1_555
C16 C15 1_555 1_555
C17 C16 1_555 1_555
H10 C17 1_555 1_555
C18 C17 1_555 1_555
H11 C18 1_555 1_555
C19 C18 1_555 1_555
C20 C19 1_555 1_555
H12 C20 1_555 1_555
C21 C20 1_555 1_555
H13 C21 1_555 1_555
C22 C21 1_555 1_555
H14 C22 1_555 1_555
C23 C16 1_555 1_555
C24 C19 1_555 1_555
C25 O5 1_555 1_555
Eu1 N3 1_555 1_555
N1 C2 1_555 1_555
N2 C4 1_555 1_555
N3 C13 1_555 1_555
N4 C22 1_555 1_555
O1 C1 1_555 1_555
O2 C1 1_555 1_555
O3 C5 1_555 1_555
O4 C5 1_555 1_555
O5 Eu1 1_555 1_555
O6 C25 1_555 1_555
C25A C25 1_555 1_555
O5A C25A 1_555 1_555
O6A Eu1 1_555 1_555
C1A C2A 1_555 1_555
C2A C3A 1_555 1_555
C3A H1A 1_555 1_555
C4A C3A 1_555 1_555
C5A C4A 1_555 1_555
C6A C7A 1_555 1_555
C7A C8A 1_555 1_555
C8A H2A 1_555 1_555
C9A C8A 1_555 1_555
H3A C9A 1_555 1_555
C10A C9A 1_555 1_555
H4A C10A 1_555 1_555
C11A C10A 1_555 1_555
H5A C11A 1_555 1_555
C12A C7A 1_555 1_555
H6A C12A 1_555 1_555
C13A H7A 1_555 1_555
C14A C13A 1_555 1_555
H8A C14A 1_555 1_555
C15A C14A 1_555 1_555
H9A C15A 1_555 1_555
C16A C15A 1_555 1_555
C17A C16A 1_555 1_555
H10A C17A 1_555 1_555
C18A C17A 1_555 1_555
H11A C18A 1_555 1_555
C19A C18A 1_555 1_555
C20A C19A 1_555 1_555
H12A C20A 1_555 1_555
C21A C20A 1_555 1_555
H13A C21A 1_555 1_555
C22A C21A 1_555 1_555
H14A C22A 1_555 1_555
C23A C16A 1_555 1_555
C24A C19A 1_555 1_555
Eu1A O3 1_555 1_555
N1A C2A 1_555 1_555
N2A C4A 1_555 1_555
N3A C13A 1_555 1_555
N4A C22A 1_555 1_555
O1A C1A 1_555 1_555
O2A C1A 1_555 1_555
O3A Eu1 1_555 1_555
O4A Eu1 1_555 1_555
Eu1_2 O4 1_555 1_555
Eu1A_2 O6 1_555 1_555
Eu1A_3 O2 1_555 1_555
O2_2 Eu1A 1_555 1_555
O2A_2 Eu1 1_555 1_555
O4_2 Eu1 1_555 1_555
O4A_2 Eu1A 1_555 1_555
O5A_2 Eu1A 1_555 1_555
O6_2 Eu1A 1_555 1_555
C6 N1 1_555 1_555
C6 N2 1_555 1_555
C11 C12 1_555 1_555
C23 C24 1_555 1_555
C23 N3 1_555 1_555
C24 N4 1_555 1_555
Eu1 N4 1_555 1_555
Eu1 O1 1_555 1_555
O4 Eu1A 1_555 1_555
C25A O6A 1_555 1_555
O5A Eu1A_2 1_555 1_555
C5A O3A 1_555 1_555
C5A O4A 1_555 1_555
C6A N1A 1_555 1_555
C6A N2A 1_555 1_555
C11A C12A 1_555 1_555
C23A C24A 1_555 1_555
C23A N3A 1_555 1_555
C24A N4A 1_555 1_555
Eu1A N3A 1_555 1_555
Eu1A N4A 1_555 1_555
Eu1A O1A 1_555 1_555
O2A Eu1_2 1_555 1_555
O4A Eu1A_3 1_555 1_555
Eu1_2 O4A_2 1_555 1_555
Eu1A_3 O4_2 1_555 1_555

#END
