
#######################################################################
#
#                 Cambridge Crystallographic Data Centre
#                                CCDC 
#
#######################################################################
#
# If this CIF has been generated from an entry in the Cambridge 
# Structural Database, then it will include bibliographic, chemical, 
# crystal, experimental, refinement or atomic coordinate data resulting 
# from the CCDC's data processing and validation procedures.
#
#######################################################################

data_FOBXOL
_symmetry_cell_setting           triclinic
_symmetry_space_group_name_H-M   'P -1'
_symmetry_Int_Tables_number      2
_space_group_name_Hall           '-P 1'
loop_
_symmetry_equiv_pos_site_id
_symmetry_equiv_pos_as_xyz
1 x,y,z
2 -x,-y,-z
_cell_length_a                   7.6260(10)
_cell_length_b                   13.1170(10)
_cell_length_c                   16.1030(10)
_cell_angle_alpha                99.9720(10)
_cell_angle_beta                 99.6900(10)
_cell_angle_gamma                98.6670(10)
_cell_volume                     1536.75
loop_
_atom_site_label
_atom_site_type_symbol
_atom_site_fract_x
_atom_site_fract_y
_atom_site_fract_z
C1 C 0.3001(6) 0.2711(4) -0.1273(3)
H1 H 0.3066 0.2022 -0.1508
C2 C 0.3207(7) 0.3498(4) -0.1780(3)
H2 H 0.3418 0.3326 -0.2335
C3 C 0.3089(7) 0.4500(4) -0.1437(3)
H3 H 0.3224 0.5021 -0.1759
C4 C 0.2765(6) 0.4752(3) -0.0605(3)
C5 C 0.2655(7) 0.5804(4) -0.0210(4)
H4 H 0.2797 0.6346 -0.0511
C6 C 0.2347(7) 0.6004(4) 0.0597(4)
H5 H 0.2251 0.6684 0.0841
C7 C 0.2163(6) 0.5200(3) 0.1088(3)
C8 C 0.1853(7) 0.5380(4) 0.1938(4)
H6 H 0.1777 0.6053 0.2210
C9 C 0.1671(8) 0.4591(4) 0.2347(3)
H7 H 0.1457 0.4705 0.2905
C10 C 0.1804(6) 0.3573(4) 0.1933(3)
H8 H 0.1677 0.3029 0.2232
C11 C 0.2267(5) 0.4167(3) 0.0724(3)
C12 C 0.2600(5) 0.3938(3) -0.0147(3)
C13 C 0.6573(5) 0.2322(3) 0.1787(3)
C14 C 0.6701(6) 0.2401(4) 0.2755(3)
C15 C 0.5219(7) 0.2012(4) 0.3044(3)
H9 H 0.4138 0.1691 0.2666
C16 C 0.5380(7) 0.2112(5) 0.3939(3)
H10 H 0.4407 0.1826 0.4157
C17 C 0.8299(6) 0.2960(4) 0.4122(3)
C18 C 1.0004(7) 0.3459(4) 0.4740(3)
C19 C 1.1655(8) 0.3510(5) 0.4480(4)
H11 H 1.1695 0.3237 0.3912
C20 C 1.3241(8) 0.3967(6) 0.5065(5)
H12 H 1.4353 0.4002 0.4896
C21 C 1.3145(9) 0.4382(5) 0.5926(4)
H13 H 1.4204 0.4661 0.6333
C22 C 1.1551(9) 0.4373(6) 0.6156(4)
H14 H 1.1496 0.4690 0.6712
C23 C 0.9990(8) 0.3900(5) 0.5579(3)
H15 H 0.8889 0.3876 0.5758
C24 C -0.0117(5) 0.0322(3) 0.1548(2)
C25 C -0.0689(6) 0.0280(3) 0.2393(2)
C26 C 0.0484(7) 0.0727(4) 0.3157(3)
H16 H 0.1615 0.1122 0.3175
C27 C -0.0105(8) 0.0558(5) 0.3908(3)
H17 H 0.0700 0.0793 0.4433
C28 C -0.2822(6) -0.0292(4) 0.3133(3)
C29 C -0.4701(6) -0.0790(4) 0.3114(3)
C30 C -0.5259(8) -0.0960(5) 0.3876(4)
H18 H -0.4431 -0.0776 0.4397
C31 C -0.7027(9) -0.1399(6) 0.3852(4)
H19 H -0.7395 -0.1487 0.4361
C32 C -0.8252(7) -0.1708(5) 0.3089(4)
H20 H -0.9435 -0.2022 0.3080
C33 C -0.7743(7) -0.1558(4) 0.2350(3)
H21 H -0.8584 -0.1764 0.1834
C34 C -0.5976(6) -0.1097(4) 0.2348(3)
H22 H -0.5647 -0.0995 0.1834
C35 C 0.5416(5) 0.0368(3) -0.0278(2)
Tb1 Tb 0.23852(2) 0.151979(13) 0.038916(10)
N1 N 0.2723(4) 0.2936(3) -0.0486(2)
N2 N 0.2095(5) 0.3358(3) 0.1152(2)
N3 N 0.6906(6) 0.2610(4) 0.4476(3)
N4 N 0.8273(5) 0.2863(3) 0.3276(2)
N5 N -0.1738(6) 0.0082(4) 0.3898(2)
N6 N -0.2350(5) -0.0232(3) 0.2372(2)
O1 O 0.4968(4) 0.2235(3) 0.13783(19)
O2 O 0.7950(4) 0.2368(3) 0.1495(2)
O3 O 0.1165(4) 0.1071(2) 0.15545(17)
O4 O -0.0897(4) -0.0366(2) 0.09004(17)
O5 O 0.6690(4) 0.0080(2) -0.05986(17)
O6 O 0.4783(4) 0.1167(2) -0.03364(17)
O7 O -0.0670(4) 0.1842(2) 0.00519(19)
H23 H -0.138(12) 0.148(7) 0.038(5)
H24 H -0.125(12) 0.161(7) -0.0526(19)
C35A C 0.4584(5) -0.0368(3) 0.0278(2)
O5A O 0.3310(4) -0.0080(2) 0.05986(17)
O6A O 0.5217(4) -0.1167(2) 0.03364(17)
C1A C -0.3001(6) -0.2711(4) 0.1273(3)
H1A H -0.3066 -0.2022 0.1508
C2A C -0.3207(7) -0.3498(4) 0.1780(3)
H2A H -0.3418 -0.3326 0.2335
C3A C -0.3089(7) -0.4500(4) 0.1437(3)
H3A H -0.3224 -0.5021 0.1759
C4A C -0.2765(6) -0.4752(3) 0.0605(3)
C5A C -0.2655(7) -0.5804(4) 0.0210(4)
H4A H -0.2797 -0.6346 0.0511
C6A C -0.2347(7) -0.6004(4) -0.0597(4)
H5A H -0.2251 -0.6684 -0.0841
C7A C -0.2163(6) -0.5200(3) -0.1088(3)
C8A C -0.1853(7) -0.5380(4) -0.1938(4)
H6A H -0.1777 -0.6053 -0.2210
C9A C -0.1671(8) -0.4591(4) -0.2347(3)
H7A H -0.1457 -0.4705 -0.2905
C10A C -0.1804(6) -0.3573(4) -0.1933(3)
H8A H -0.1677 -0.3029 -0.2232
C11A C -0.2267(5) -0.4167(3) -0.0724(3)
C12A C -0.2600(5) -0.3938(3) 0.0147(3)
C13A C -0.6573(5) -0.2322(3) -0.1787(3)
C14A C -0.6701(6) -0.2401(4) -0.2755(3)
C15A C -0.5219(7) -0.2012(4) -0.3044(3)
H9A H -0.4138 -0.1691 -0.2666
C16A C -0.5380(7) -0.2112(5) -0.3939(3)
H10A H -0.4407 -0.1826 -0.4157
C17A C -0.8299(6) -0.2960(4) -0.4122(3)
C18A C -1.0004(7) -0.3459(4) -0.4740(3)
C19A C -1.1655(8) -0.3510(5) -0.4480(4)
H11A H -1.1695 -0.3237 -0.3912
C20A C -1.3241(8) -0.3967(6) -0.5065(5)
H12A H -1.4353 -0.4002 -0.4896
C21A C -1.3145(9) -0.4382(5) -0.5926(4)
H13A H -1.4204 -0.4661 -0.6333
C22A C -1.1551(9) -0.4373(6) -0.6156(4)
H14A H -1.1496 -0.4690 -0.6712
C23A C -0.9990(8) -0.3900(5) -0.5579(3)
H15A H -0.8889 -0.3876 -0.5758
C24A C 0.0117(5) -0.0322(3) -0.1548(2)
C25A C 0.0689(6) -0.0280(3) -0.2393(2)
C26A C -0.0484(7) -0.0727(4) -0.3157(3)
H16A H -0.1615 -0.1122 -0.3175
C27A C 0.0105(8) -0.0558(5) -0.3908(3)
H17A H -0.0700 -0.0793 -0.4433
C28A C 0.2822(6) 0.0292(4) -0.3133(3)
C29A C 0.4701(6) 0.0790(4) -0.3114(3)
C30A C 0.5259(8) 0.0960(5) -0.3876(4)
H18A H 0.4431 0.0776 -0.4397
C31A C 0.7027(9) 0.1399(6) -0.3852(4)
H19A H 0.7395 0.1487 -0.4361
C32A C 0.8252(7) 0.1708(5) -0.3089(4)
H20A H 0.9435 0.2022 -0.3080
C33A C 0.7743(7) 0.1558(4) -0.2350(3)
H21A H 0.8584 0.1764 -0.1834
C34A C 0.5976(6) 0.1097(4) -0.2348(3)
H22A H 0.5647 0.0995 -0.1834
Tb1A Tb -0.23852(2) -0.151979(13) -0.038916(10)
N1A N -0.2723(4) -0.2936(3) 0.0486(2)
N2A N -0.2095(5) -0.3358(3) -0.1152(2)
N3A N -0.6906(6) -0.2610(4) -0.4476(3)
N4A N -0.8273(5) -0.2863(3) -0.3276(2)
N5A N 0.1738(6) -0.0082(4) -0.3898(2)
N6A N 0.2350(5) 0.0232(3) -0.2372(2)
O1A O -0.4968(4) -0.2235(3) -0.13783(19)
O2A O -0.7950(4) -0.2368(3) -0.1495(2)
O3A O -0.1165(4) -0.1071(2) -0.15545(17)
O4A O 0.0897(4) 0.0366(2) -0.09004(17)
O7A O 0.0670(4) -0.1842(2) -0.00519(19)
H23A H 0.138(12) -0.148(7) -0.038(5)
H24A H 0.125(12) -0.161(7) 0.0526(19)
Tb1A_2 Tb 0.76148(2) -0.151979(13) -0.038916(10)
O5_2 O -0.3310(4) 0.0080(2) -0.05986(17)
O6A_2 O -0.4783(4) -0.1167(2) 0.03364(17)
loop_
_geom_bond_atom_site_label_1
_geom_bond_atom_site_label_2
_geom_bond_site_symmetry_1
_geom_bond_site_symmetry_2
C1 H1 1_555 1_555
C2 C1 1_555 1_555
H2 C2 1_555 1_555
C3 C2 1_555 1_555
H3 C3 1_555 1_555
C4 C3 1_555 1_555
C5 C4 1_555 1_555
H4 C5 1_555 1_555
C6 C5 1_555 1_555
H5 C6 1_555 1_555
C7 C6 1_555 1_555
C8 C7 1_555 1_555
H6 C8 1_555 1_555
C9 C8 1_555 1_555
H7 C9 1_555 1_555
C10 C9 1_555 1_555
H8 C10 1_555 1_555
C11 C7 1_555 1_555
C12 C4 1_555 1_555
C13 C14 1_555 1_555
C14 C15 1_555 1_555
C15 H9 1_555 1_555
C16 C15 1_555 1_555
H10 C16 1_555 1_555
C17 C18 1_555 1_555
C18 C19 1_555 1_555
C19 H11 1_555 1_555
C20 C19 1_555 1_555
H12 C20 1_555 1_555
C21 C20 1_555 1_555
H13 C21 1_555 1_555
C22 C21 1_555 1_555
H14 C22 1_555 1_555
C23 C18 1_555 1_555
H15 C23 1_555 1_555
C24 C25 1_555 1_555
C25 C26 1_555 1_555
C26 H16 1_555 1_555
C27 C26 1_555 1_555
H17 C27 1_555 1_555
C28 C29 1_555 1_555
C29 C30 1_555 1_555
C30 H18 1_555 1_555
C31 C30 1_555 1_555
H19 C31 1_555 1_555
C32 C31 1_555 1_555
H20 C32 1_555 1_555
C33 C32 1_555 1_555
H21 C33 1_555 1_555
C34 C29 1_555 1_555
H22 C34 1_555 1_555
C35 O5 1_555 1_555
Tb1 N1 1_555 1_555
N1 C1 1_555 1_555
N2 C10 1_555 1_555
N3 C16 1_555 1_555
N4 C14 1_555 1_555
N5 C27 1_555 1_555
N6 C25 1_555 1_555
O1 C13 1_555 1_555
O2 C13 1_555 1_555
O3 C24 1_555 1_555
O4 C24 1_555 1_555
O5 Tb1A_2 1_555 1_555
O6 C35 1_555 1_555
O7 Tb1 1_555 1_555
H23 O7 1_555 1_555
H24 O7 1_555 1_555
C35A C35 1_555 1_555
O5A Tb1 1_555 1_555
O6A C35A 1_555 1_555
C1A H1A 1_555 1_555
C2A C1A 1_555 1_555
H2A C2A 1_555 1_555
C3A C2A 1_555 1_555
H3A C3A 1_555 1_555
C4A C3A 1_555 1_555
C5A C4A 1_555 1_555
H4A C5A 1_555 1_555
C6A C5A 1_555 1_555
H5A C6A 1_555 1_555
C7A C6A 1_555 1_555
C8A C7A 1_555 1_555
H6A C8A 1_555 1_555
C9A C8A 1_555 1_555
H7A C9A 1_555 1_555
C10A C9A 1_555 1_555
H8A C10A 1_555 1_555
C11A C7A 1_555 1_555
C12A C4A 1_555 1_555
C13A C14A 1_555 1_555
C14A C15A 1_555 1_555
C15A H9A 1_555 1_555
C16A C15A 1_555 1_555
H10A C16A 1_555 1_555
C17A C18A 1_555 1_555
C18A C19A 1_555 1_555
C19A H11A 1_555 1_555
C20A C19A 1_555 1_555
H12A C20A 1_555 1_555
C21A C20A 1_555 1_555
H13A C21A 1_555 1_555
C22A C21A 1_555 1_555
H14A C22A 1_555 1_555
C23A C18A 1_555 1_555
H15A C23A 1_555 1_555
C24A C25A 1_555 1_555
C25A C26A 1_555 1_555
C26A H16A 1_555 1_555
C27A C26A 1_555 1_555
H17A C27A 1_555 1_555
C28A C29A 1_555 1_555
C29A C30A 1_555 1_555
C30A H18A 1_555 1_555
C31A C30A 1_555 1_555
H19A C31A 1_555 1_555
C32A C31A 1_555 1_555
H20A C32A 1_555 1_555
C33A C32A 1_555 1_555
H21A C33A 1_555 1_555
C34A C29A 1_555 1_555
H22A C34A 1_555 1_555
Tb1A O4 1_555 1_555
N1A C1A 1_555 1_555
N2A C10A 1_555 1_555
N3A C16A 1_555 1_555
N4A C14A 1_555 1_555
N5A C27A 1_555 1_555
N6A C25A 1_555 1_555
O1A C13A 1_555 1_555
O2A C13A 1_555 1_555
O3A C24A 1_555 1_555
O4A Tb1 1_555 1_555
O7A Tb1A 1_555 1_555
H23A O7A 1_555 1_555
H24A O7A 1_555 1_555
Tb1A_2 O6A 1_555 1_555
O5_2 Tb1A 1_555 1_555
O6A_2 Tb1A 1_555 1_555
C11 C12 1_555 1_555
C11 N2 1_555 1_555
C12 N1 1_555 1_555
C17 N3 1_555 1_555
C17 N4 1_555 1_555
C22 C23 1_555 1_555
C28 N5 1_555 1_555
C28 N6 1_555 1_555
C33 C34 1_555 1_555
Tb1 N2 1_555 1_555
Tb1 O1 1_555 1_555
Tb1 O3 1_555 1_555
Tb1 O6 1_555 1_555
C35A O5A 1_555 1_555
C11A C12A 1_555 1_555
C11A N2A 1_555 1_555
C12A N1A 1_555 1_555
C17A N3A 1_555 1_555
C17A N4A 1_555 1_555
C22A C23A 1_555 1_555
C24A O4A 1_555 1_555
C28A N5A 1_555 1_555
C28A N6A 1_555 1_555
C33A C34A 1_555 1_555
Tb1A N1A 1_555 1_555
Tb1A N2A 1_555 1_555
Tb1A O1A 1_555 1_555
Tb1A O3A 1_555 1_555

#END
