
#######################################################################
#
#                 Cambridge Crystallographic Data Centre
#                                CCDC 
#
#######################################################################
#
# If this CIF has been generated from an entry in the Cambridge 
# Structural Database, then it will include bibliographic, chemical, 
# crystal, experimental, refinement or atomic coordinate data resulting 
# from the CCDC's data processing and validation procedures.
#
#######################################################################

data_FOBXEA
_symmetry_cell_setting           triclinic
_symmetry_space_group_name_H-M   'P -1'
_symmetry_Int_Tables_number      2
_space_group_name_Hall           '-P 1'
loop_
_symmetry_equiv_pos_site_id
_symmetry_equiv_pos_as_xyz
1 x,y,z
2 -x,-y,-z
_cell_length_a                   9.5370(10)
_cell_length_b                   9.9500(10)
_cell_length_c                   11.3630(10)
_cell_angle_alpha                94.156(2)
_cell_angle_beta                 107.839(2)
_cell_angle_gamma                113.535(2)
_cell_volume                     917.306
loop_
_atom_site_label
_atom_site_type_symbol
_atom_site_fract_x
_atom_site_fract_y
_atom_site_fract_z
O9 O 0.1511(8) 0.0196(7) 0.8189(4)
H1 H 0.211(7) 0.088(6) 0.791(6)
H2 H 0.058(4) -0.035(7) 0.761(5)
Cu1 Cu 0.49376(7) 0.33223(6) 0.52464(5)
O1 O 0.5543(4) 0.4071(4) 0.7055(3)
O2 O 0.3151(6) 0.2287(5) 0.6951(4)
O3 O 0.7700(13) 0.3680(13) 0.9325(9)
O4 O 0.8944(16) 0.6084(18) 0.9832(13)
O5 O 0.3408(4) 0.4212(3) 0.4883(3)
O6 O 0.1063(4) 0.2104(4) 0.3970(4)
N1 N 0.6448(5) 0.2354(4) 0.5605(4)
N2 N 0.4367(5) 0.2277(4) 0.3480(4)
N3 N 0.7732(13) 0.4851(17) 0.9639(11)
C1 C 0.7537(6) 0.2502(6) 0.6743(6)
H3 H 0.7618 0.3100 0.7452
C2 C 0.8528(7) 0.1797(7) 0.6887(7)
H4 H 0.9271 0.1915 0.7686
C3 C 0.8426(8) 0.0933(7) 0.5872(8)
H5 H 0.9083 0.0435 0.5968
C4 C 0.7371(8) 0.0790(6) 0.4716(7)
H6 H 0.7324 0.0219 0.4007
C5 C 0.6346(6) 0.1498(5) 0.4577(5)
C6 C 0.5173(7) 0.1441(5) 0.3380(5)
C7 C 0.4862(9) 0.0596(7) 0.2239(6)
H7 H 0.5444 0.0047 0.2191
C8 C 0.3671(11) 0.0574(8) 0.1161(7)
H8 H 0.3405 -0.0024 0.0384
C9 C 0.2889(8) 0.1448(7) 0.1258(5)
H9 H 0.2113 0.1476 0.0540
C10 C 0.3262(7) 0.2286(6) 0.2427(5)
H10 H 0.2726 0.2876 0.2483
C11 C 0.4450(8) 0.3425(6) 0.7509(5)
C12 C 0.4756(7) 0.4223(6) 0.8818(4)
C13 C 0.6295(7) 0.5016(6) 0.9743(5)
C14 C 0.3445(7) 0.4221(6) 0.9099(5)
H12 H 0.2383 0.3699 0.8500
C15 C 0.1838(6) 0.3429(6) 0.4485(5)
C16 C 0.0913(5) 0.4293(5) 0.4740(5)
C17 C 0.1391(5) 0.5109(5) 0.5937(5)
H13 H 0.2323 0.5192 0.6580
C18 C -0.0489(6) 0.4195(5) 0.3816(5)
H14 H -0.0832 0.3641 0.3002
Cu1A Cu 0.50624(7) 0.66777(6) 0.47536(5)
O5A O 0.6592(4) 0.5788(3) 0.5117(3)
C13A C 0.3705(7) 0.4984(6) 1.0257(5)
C14A C 0.6555(7) 0.5779(6) 1.0901(5)
C17A C -0.1391(5) 0.4891(5) 0.4063(5)
C18A C 0.0489(6) 0.5805(5) 0.6184(5)
O7? O 0.0193(10) 0.3611(9) 0.2169(7)
O8? O -0.2353(10) 0.2929(11) 0.1863(7)
N4? N -0.0966(12) 0.3505(10) 0.2492(6)
H11? H 0.7196 0.5035 0.9574
loop_
_geom_bond_atom_site_label_1
_geom_bond_atom_site_label_2
_geom_bond_site_symmetry_1
_geom_bond_site_symmetry_2
Cu1 O1 1_555 1_555
O1 C11 1_555 1_555
O2 C11 1_555 1_555
O3 N3 1_555 1_555
O4 N3 1_555 1_555
O5 Cu1 1_555 1_555
O6 C15 1_555 1_555
O9 H1 1_555 1_555
H2 O9 1_555 1_555
N1 Cu1 1_555 1_555
N2 Cu1 1_555 1_555
N3 C13 1_555 1_555
C1 N1 1_555 1_555
H3 C1 1_555 1_555
C2 C1 1_555 1_555
H4 C2 1_555 1_555
C3 C2 1_555 1_555
H5 C3 1_555 1_555
C4 C3 1_555 1_555
H6 C4 1_555 1_555
C5 N1 1_555 1_555
C6 N2 1_555 1_555
C7 C6 1_555 1_555
H7 C7 1_555 1_555
C8 C7 1_555 1_555
H8 C8 1_555 1_555
C9 C8 1_555 1_555
H9 C9 1_555 1_555
C10 N2 1_555 1_555
H10 C10 1_555 1_555
C11 C12 1_555 1_555
C12 C13 1_555 1_555
C13 C14A 1_555 1_555
C14 C12 1_555 1_555
H12 C14 1_555 1_555
C15 O5 1_555 1_555
C16 C15 1_555 1_555
C17 C16 1_555 1_555
H13 C17 1_555 1_555
C18 C16 1_555 1_555
H14 C18 1_555 1_555
Cu1A O5 1_555 1_555
O5A Cu1 1_555 1_555
C13A C14 1_555 1_555
C17A C18 1_555 1_555
C18A C17 1_555 1_555
C4 C5 1_555 1_555
C5 C6 1_555 1_555
C9 C10 1_555 1_555
Cu1A O5A 1_555 1_555

#END
