
#######################################################################
#
#                 Cambridge Crystallographic Data Centre
#                                CCDC 
#
#######################################################################
#
# If this CIF has been generated from an entry in the Cambridge 
# Structural Database, then it will include bibliographic, chemical, 
# crystal, experimental, refinement or atomic coordinate data resulting 
# from the CCDC's data processing and validation procedures.
#
#######################################################################

data_FOBYAY
_symmetry_cell_setting           monoclinic
_symmetry_space_group_name_H-M   'P 21/c'
_symmetry_Int_Tables_number      14
_space_group_name_Hall           '-P 2ybc'
loop_
_symmetry_equiv_pos_site_id
_symmetry_equiv_pos_as_xyz
1 x,y,z
2 -x,1/2+y,1/2-z
3 -x,-y,-z
4 x,1/2-y,1/2+z
_cell_length_a                   10.330(1)
_cell_length_b                   20.786(1)
_cell_length_c                   12.908(1)
_cell_angle_alpha                90
_cell_angle_beta                 100.697(1)
_cell_angle_gamma                90
_cell_volume                     2723.43
loop_
_atom_site_label
_atom_site_type_symbol
_atom_site_fract_x
_atom_site_fract_y
_atom_site_fract_z
C1 C 0.8296(3) 0.51565(14) 0.8007(2)
C2 C 0.9546(3) 0.53594(13) 0.7637(2)
C3 C 1.0530(2) 0.56689(13) 0.6281(2)
C4 C 1.0401(3) 0.58452(13) 0.5151(2)
C5 C 0.9177(3) 0.58488(16) 0.4507(2)
H1 H 0.8439 0.5737 0.4785
C6 C 0.9026(3) 0.60154(17) 0.3459(2)
H2 H 0.8194 0.6007 0.3034
C7 C 1.0094(4) 0.61928(18) 0.3039(3)
H3 H 0.9989 0.6327 0.2341
C8 C 1.1317(4) 0.6170(2) 0.3660(3)
H4 H 1.2051 0.6275 0.3372
C9 C 1.1484(3) 0.59940(17) 0.4713(2)
H5 H 1.2325 0.5976 0.5123
C10 C 1.1844(2) 0.55081(13) 0.7881(2)
C11 C 1.3225(3) 0.54729(14) 0.8538(2)
C12 C 1.0756(3) 0.53445(13) 0.8315(2)
H6 H 1.0833 0.5231 0.9021
C13 C 0.6455(3) 0.60387(14) 1.0416(2)
C14 C 0.7251(3) 0.66386(14) 1.0702(2)
C15 C 0.8079(4) 0.6865(2) 1.0056(3)
H7 H 0.8180 0.6637 0.9456
C16 C 0.8756(5) 0.7435(3) 1.0314(5)
H8 H 0.9293 0.7597 0.9872
C17 C 0.8646(6) 0.7757(2) 1.1198(5)
H9 H 0.9137 0.8130 1.1370
C18 C 0.7831(5) 0.75492(19) 1.1849(4)
H10 H 0.7748 0.7781 1.2448
C19 C 0.7128(3) 0.69823(16) 1.1595(3)
H11 H 0.6570 0.6833 1.2030
C20 C 0.4528(4) 0.4587(2) 0.6150(3)
H12 H 0.4359 0.5020 0.6243
C21 C 0.4053(4) 0.4306(3) 0.5161(3)
H13 H 0.3607 0.4553 0.4608
C22 C 0.4252(5) 0.3683(4) 0.5029(4)
H14 H 0.3942 0.3493 0.4378
C23 C 0.4921(4) 0.3310(2) 0.5859(4)
C24 C 0.5126(6) 0.2643(3) 0.5791(6)
H15 H 0.4814 0.2431 0.5159
C25 C 0.5762(6) 0.2307(3) 0.6618(6)
H16 H 0.5833 0.1862 0.6563
C26 C 0.6329(5) 0.2617(2) 0.7580(5)
C27 C 0.7086(6) 0.2301(2) 0.8441(6)
H17 H 0.7207 0.1858 0.8412
C28 C 0.7639(6) 0.2625(2) 0.9306(5)
H18 H 0.8139 0.2411 0.9876
C29 C 0.7451(4) 0.3294(2) 0.9342(4)
H19 H 0.7858 0.3519 0.9936
C30 C 0.5407(3) 0.36308(19) 0.6823(3)
C31 C 0.6159(3) 0.32804(18) 0.7682(3)
N1 N 0.9419(2) 0.55306(11) 0.66236(17)
N2 N 1.1747(2) 0.56645(11) 0.68671(17)
N3 N 0.5201(3) 0.42635(14) 0.6951(2)
N4 N 0.6719(3) 0.36152(14) 0.8563(2)
O1 O 0.8416(2) 0.48338(10) 0.88405(17)
O2 O 0.71915(19) 0.53100(11) 0.74824(16)
O3 O 1.3315(2) 0.54998(11) 0.95125(15)
O4 O 1.41642(19) 0.54060(11) 0.80608(16)
O5 O 0.6557(2) 0.57662(10) 0.95687(17)
O6 O 0.5743(2) 0.58527(10) 1.10397(17)
Tb1 Tb 0.603937(11) 0.479174(6) 0.874412(9)
O3B O 0.6685(2) 0.45002(11) 1.04875(15)
O4_2 O 0.41642(19) 0.54060(11) 0.80608(16)
O6B O 0.4257(2) 0.41473(10) 0.89603(17)
Tb1_2 Tb 1.603937(11) 0.479174(6) 0.874412(9)
Tb1B Tb 0.396063(11) 0.520826(6) 1.125588(9)
Tb1B_2 Tb 1.396063(11) 0.520826(6) 1.125588(9)
loop_
_geom_bond_atom_site_label_1
_geom_bond_atom_site_label_2
_geom_bond_site_symmetry_1
_geom_bond_site_symmetry_2
C1 C2 1_555 1_555
C2 C12 1_555 1_555
C3 C4 1_555 1_555
C4 C5 1_555 1_555
C5 H1 1_555 1_555
C6 C5 1_555 1_555
H2 C6 1_555 1_555
C7 C6 1_555 1_555
H3 C7 1_555 1_555
C8 C7 1_555 1_555
H4 C8 1_555 1_555
C9 C4 1_555 1_555
H5 C9 1_555 1_555
C10 C11 1_555 1_555
C11 O3 1_555 1_555
C12 C10 1_555 1_555
H6 C12 1_555 1_555
C13 C14 1_555 1_555
C14 C15 1_555 1_555
C15 H7 1_555 1_555
C16 C15 1_555 1_555
H8 C16 1_555 1_555
C17 C16 1_555 1_555
H9 C17 1_555 1_555
C18 C17 1_555 1_555
H10 C18 1_555 1_555
C19 C14 1_555 1_555
H11 C19 1_555 1_555
C20 H12 1_555 1_555
C21 C20 1_555 1_555
H13 C21 1_555 1_555
C22 C21 1_555 1_555
H14 C22 1_555 1_555
C23 C22 1_555 1_555
C24 C23 1_555 1_555
H15 C24 1_555 1_555
C25 C24 1_555 1_555
H16 C25 1_555 1_555
C26 C25 1_555 1_555
C27 C26 1_555 1_555
H17 C27 1_555 1_555
C28 C27 1_555 1_555
H18 C28 1_555 1_555
C29 C28 1_555 1_555
H19 C29 1_555 1_555
C30 C23 1_555 1_555
C31 C26 1_555 1_555
N1 C2 1_555 1_555
N2 C3 1_555 1_555
N3 C20 1_555 1_555
N4 C29 1_555 1_555
O1 C1 1_555 1_555
O2 C1 1_555 1_555
O3 Tb1B_2 1_555 1_555
O4 C11 1_555 1_555
O5 C13 1_555 1_555
O6 C13 1_555 1_555
Tb1 N3 1_555 1_555
O3B Tb1 1_555 1_555
O4_2 Tb1 1_555 1_555
O6B Tb1 1_555 1_555
Tb1_2 O4 1_555 1_555
Tb1B O6 1_555 1_555
C3 N1 1_555 1_555
C8 C9 1_555 1_555
C10 N2 1_555 1_555
C18 C19 1_555 1_555
C30 C31 1_555 1_555
C30 N3 1_555 1_555
C31 N4 1_555 1_555
N4 Tb1 1_555 1_555
O1 Tb1 1_555 1_555
O2 Tb1 1_555 1_555
O5 Tb1 1_555 1_555

#END
