
#######################################################################
#
#                 Cambridge Crystallographic Data Centre
#                                CCDC 
#
#######################################################################
#
# If this CIF has been generated from an entry in the Cambridge 
# Structural Database, then it will include bibliographic, chemical, 
# crystal, experimental, refinement or atomic coordinate data resulting 
# from the CCDC's data processing and validation procedures.
#
#######################################################################

data_FOBZEB
_symmetry_cell_setting           orthorhombic
_symmetry_space_group_name_H-M   'P n a 21'
_symmetry_Int_Tables_number      33
_space_group_name_Hall           'P 2c -2n'
loop_
_symmetry_equiv_pos_site_id
_symmetry_equiv_pos_as_xyz
1 x,y,z
2 1/2-x,1/2+y,1/2+z
3 1/2+x,1/2-y,z
4 -x,-y,1/2+z
_cell_length_a                   9.939(4)
_cell_length_b                   12.798(6)
_cell_length_c                   5.776(3)
_cell_angle_alpha                90
_cell_angle_beta                 90
_cell_angle_gamma                90
_cell_volume                     734.703
loop_
_atom_site_label
_atom_site_type_symbol
_atom_site_fract_x
_atom_site_fract_y
_atom_site_fract_z
Ag1 Ag 0.31996(8) 0.26077(6) 0.3373
Cl1 Cl 0.0992(3) 0.2400(2) -0.166(1)
O1 O 0.1622(13) 0.1943(11) 0.029(2)
O2 O 0.1487(2) 0.1877(11) -0.374(2)
O3 O -0.0437(8) 0.2239(8) -0.164(3)
O4 O 0.1262(9) 0.3498(7) -0.186(3)
N1 N -0.0461(9) 0.3791(7) 0.330(3)
C1 C 0.0489(10) 0.4293(8) 0.311(3)
C2 C 0.1690(9) 0.4927(8) 0.320(3)
C3 C 0.2913(10) 0.4459(9) 0.250(2)
C4 C 0.4063(10) 0.4312(8) 0.367(3)
O2_2 O 0.1487(2) 0.1877(11) 0.626(2)
N1B N 0.4539(9) 0.1209(7) 0.330(3)
Ag1B Ag -0.18004(8) 0.23923(6) 0.3373
Ag1_2 Ag 0.31996(8) 0.26077(6) -0.6627
loop_
_geom_bond_atom_site_label_1
_geom_bond_atom_site_label_2
_geom_bond_site_symmetry_1
_geom_bond_site_symmetry_2
Ag1 O1 1_555 1_555
Cl1 O1 1_555 1_555
O2 Cl1 1_555 1_555
O3 Cl1 1_555 1_555
O4 Cl1 1_555 1_555
N1 C1 1_555 1_555
C1 C2 1_555 1_555
C2 C3 1_555 1_555
C3 Ag1 1_555 1_555
C4 Ag1 1_555 1_555
O2_2 Ag1 1_555 1_555
N1B Ag1 1_555 1_555
Ag1B N1 1_555 1_555
Ag1_2 O2 1_555 1_555
C3 C4 1_555 1_555

#END
