
#######################################################################
#
#                 Cambridge Crystallographic Data Centre
#                                CCDC 
#
#######################################################################
#
# If this CIF has been generated from an entry in the Cambridge 
# Structural Database, then it will include bibliographic, chemical, 
# crystal, experimental, refinement or atomic coordinate data resulting 
# from the CCDC's data processing and validation procedures.
#
#######################################################################

data_FOCFUZ
_symmetry_cell_setting           orthorhombic
_symmetry_space_group_name_H-M   'P 21 21 21'
_symmetry_Int_Tables_number      19
_space_group_name_Hall           'P 2ac 2ab'
loop_
_symmetry_equiv_pos_site_id
_symmetry_equiv_pos_as_xyz
1 x,y,z
2 1/2-x,-y,1/2+z
3 -x,1/2+y,1/2-z
4 1/2+x,1/2-y,-z
_cell_length_a                   8.529(2)
_cell_length_b                   10.799(1)
_cell_length_c                   19.661(3)
_cell_angle_alpha                90
_cell_angle_beta                 90
_cell_angle_gamma                90
_cell_volume                     1810.87
loop_
_atom_site_label
_atom_site_type_symbol
_atom_site_fract_x
_atom_site_fract_y
_atom_site_fract_z
Sn1 Sn 0.49077(4) 0.74972(5) 1.001369(19)
O1 O 0.2361(5) 0.7371(5) 0.9663(4)
H1 H 0.2202 0.7663 0.9278
C1 C 0.4399(9) 0.9342(8) 1.0372(5)
H2 H 0.3320 0.9541 1.0260
H3 H 0.4494 0.9354 1.0864
C2 C 0.5439(10) 1.0318(7) 1.0083(5)
C3 C 0.5350(12) 1.0641(9) 0.9399(5)
H4 H 0.4616 1.0284 0.9110
C4 C 0.6446(16) 1.1552(12) 0.9161(7)
H5 H 0.6449 1.1756 0.8702
C5 C 0.7493(18) 1.2137(14) 0.9587(13)
H6 H 0.8168 1.2748 0.9428
C6 C 0.7494(13) 1.1797(15) 1.0219(12)
H7 H 0.8190 1.2196 1.0510
C7 C 0.6560(12) 1.0905(8) 1.0493(6)
H8 H 0.6665 1.0686 1.0948
C8 C 0.5681(9) 0.7308(9) 0.8973(4)
H9 H 0.5552 0.8101 0.8748
H10 H 0.6792 0.7118 0.8975
C9 C 0.4854(9) 0.6341(8) 0.8559(4)
C10 C 0.5262(11) 0.5092(8) 0.8607(5)
H11 H 0.6031 0.4855 0.8916
C11 C 0.4560(14) 0.4202(11) 0.8210(6)
H12 H 0.4856 0.3376 0.8245
C12 C 0.3438(18) 0.4548(15) 0.7769(8)
H13 H 0.2967 0.3952 0.7496
C13 C 0.2969(13) 0.5764(14) 0.7714(5)
H14 H 0.2160 0.5978 0.7419
C14 C 0.3700(10) 0.6661(10) 0.8095(5)
H15 H 0.3419 0.7487 0.8041
C15 C 0.4446(11) 0.5871(8) 1.0600(4)
H16 H 0.3323 0.5828 1.0674
H17 H 0.4730 0.5161 1.0325
C16 C 0.5227(10) 0.5725(11) 1.1276(5)
C17 C 0.4875(12) 0.6578(13) 1.1810(6)
H18 H 0.4228 0.7254 1.1726
C18 C 0.549(2) 0.640(2) 1.2448(7)
H19 H 0.5249 0.6915 1.2812
C19 C 0.649(2) 0.542(2) 1.2515(11)
H20 H 0.6917 0.5295 1.2945
C20 C 0.694(2) 0.459(2) 1.2023(11)
H21 H 0.7655 0.3959 1.2102
C21 C 0.6223(13) 0.4775(13) 1.1399(8)
H22 H 0.6438 0.4221 1.1049
Sn1C Sn -0.00923(4) 0.75028(5) 0.998631(19)
O1C O 0.7361(5) 0.7629(5) 1.0337(4)
H1C H 0.7202 0.7337 1.0722
loop_
_geom_bond_atom_site_label_1
_geom_bond_atom_site_label_2
_geom_bond_site_symmetry_1
_geom_bond_site_symmetry_2
Sn1 O1 1_555 1_555
O1 H1 1_555 1_555
C1 Sn1 1_555 1_555
H2 C1 1_555 1_555
H3 C1 1_555 1_555
C2 C1 1_555 1_555
C3 C2 1_555 1_555
H4 C3 1_555 1_555
C4 C3 1_555 1_555
H5 C4 1_555 1_555
C5 C4 1_555 1_555
H6 C5 1_555 1_555
C6 C5 1_555 1_555
H7 C6 1_555 1_555
C7 C2 1_555 1_555
H8 C7 1_555 1_555
C8 Sn1 1_555 1_555
H9 C8 1_555 1_555
H10 C8 1_555 1_555
C9 C8 1_555 1_555
C10 C9 1_555 1_555
H11 C10 1_555 1_555
C11 C10 1_555 1_555
H12 C11 1_555 1_555
C12 C11 1_555 1_555
H13 C12 1_555 1_555
C13 C12 1_555 1_555
H14 C13 1_555 1_555
C14 C9 1_555 1_555
H15 C14 1_555 1_555
C15 Sn1 1_555 1_555
H16 C15 1_555 1_555
H17 C15 1_555 1_555
C16 C15 1_555 1_555
C17 C16 1_555 1_555
H18 C17 1_555 1_555
C18 C17 1_555 1_555
H19 C18 1_555 1_555
C19 C18 1_555 1_555
H20 C19 1_555 1_555
C20 C19 1_555 1_555
H21 C20 1_555 1_555
C21 C16 1_555 1_555
H22 C21 1_555 1_555
Sn1C O1 1_555 1_555
O1C Sn1 1_555 1_555
H1C O1C 1_555 1_555
C6 C7 1_555 1_555
C13 C14 1_555 1_555
C20 C21 1_555 1_555

#END
