
#######################################################################
#
#                 Cambridge Crystallographic Data Centre
#                                CCDC 
#
#######################################################################
#
# If this CIF has been generated from an entry in the Cambridge 
# Structural Database, then it will include bibliographic, chemical, 
# crystal, experimental, refinement or atomic coordinate data resulting 
# from the CCDC's data processing and validation procedures.
#
#######################################################################

data_FOCKUF
_symmetry_cell_setting           monoclinic
_symmetry_space_group_name_H-M   'C c'
_symmetry_Int_Tables_number      9
_space_group_name_Hall           'C -2yn'
loop_
_symmetry_equiv_pos_site_id
_symmetry_equiv_pos_as_xyz
1 x,y,z
2 x,-y,1/2+z
3 1/2+x,1/2-y,1/2+z
4 1/2+x,1/2+y,z
_cell_length_a                   11.488(4)
_cell_length_b                   39.84(2)
_cell_length_c                   9.366(3)
_cell_angle_alpha                90
_cell_angle_beta                 114.70(3)
_cell_angle_gamma                90
_cell_volume                     3894.46
loop_
_atom_site_label
_atom_site_type_symbol
_atom_site_fract_x
_atom_site_fract_y
_atom_site_fract_z
Mn1 Mn 0.9567(26) 0.8758(68) -0.1756(33)
Mn2 Mn 0.4634(36) 0.8697(67) -0.1377(64)
N1 N 0.1392(25) 0.8558(69) -0.0910(65)
C1 C 0.2590(24) 0.8405(61) -0.0452(66)
S1 S 0.4088(27) 0.8213(65) 0.0122(63)
N2 N 0.2731(26) 0.8926(64) -0.2164(75)
C2 C 0.1517(86) 0.9072(65) -0.2666(65)
S2 S 0.0129(96) 0.9240(65) -0.3241(85)
N3 N 0.7798(26) 0.8911(35) -0.2098(25)
C3 C 0.6599(36) 0.9047(35) -0.2495(85)
S3 S 0.5209(56) 0.9206(61) -0.2956(35)
N4 N 0.6480(65) 0.8496(61) -0.0693(65)
C4 C 0.7704(65) 0.8377(15) -0.0291(25)
S4 S 0.9205(66) 0.8247(15) 0.0137(65)
N5 N 0.8685(61) 0.8456(64) -0.3802(62)
C5 C 0.7415(35) 0.8398(63) -0.4513(62)
C6 C 0.6933(34) 0.8196(62) -0.5784(15)
C7 C 0.7721(66) 0.8054(63) -0.6345(65)
C8 C 0.8991(67) 0.8112(66) -0.5634(68)
C9 C 0.9474(68) 0.8313(55) -0.4362(78)
C10 C 0.7156(68) 0.7818(45) -0.7836(45)
C11 C 0.7063(62) 0.7472(75) -0.7415(35)
N6 N 0.3878(66) 0.8344(75) -0.3516(43)
C12 C 0.3335(65) 0.8472(95) -0.4979(23)
C13 C 0.2891(68) 0.8265(69) -0.6232(65)
C14 C 0.2988(65) 0.7930(69) -0.6022(56)
C15 C 0.3531(69) 0.7802(64) -0.4558(78)
C16 C 0.3975(69) 0.8009(65) -0.3305(68)
C17 C 0.2467(65) 0.7688(64) -0.7491(65)
C18 C 0.1113(85) 0.7615(62) -0.8004(55)
N7 N 1.0295(77) 0.9127(23) 0.0445(62)
C19 C 0.9710(65) 0.9419(15) 0.0459(61)
C20 C 1.0192(66) 0.9621(55) 0.1731(61)
C21 C 1.1259(63) 0.9529(45) 0.2988(15)
C22 C 1.1845(65) 0.9237(35) 0.2974(15)
C23 C 1.1363(62) 0.9036(65) 0.1702(95)
C24 C 1.1825(65) 0.9765(68) 0.4479(15)
C25 C 1.2996(61) 0.9929(67) 0.4627(65)
N8 N 0.5410(55) 0.9057(61) 0.0809(65)
C26 C 0.4607(45) 0.9177(63) 0.1401(75)
C27 C 0.5052(25) 0.9384(63) 0.2654(65)
C28 C 0.6300(65) 0.9470(25) 0.3315(90)
C29 C 0.7103(67) 0.9350(25) 0.2722(65)
C30 C 0.6658(68) 0.9144(85) 0.1469(60)
C31 C 0.6821(62) 0.9713(75) 0.4784(66)
C32 C 0.7456(65) 1.0005(55) 0.4514(66)
Mn1_2 Mn -0.0433(26) 0.8758(68) -0.1756(33)
N1_2 N 1.1392(25) 0.8558(69) -0.0910(65)
S2_2 S 1.0129(96) 0.9240(65) -0.3241(85)
loop_
_geom_bond_atom_site_label_1
_geom_bond_atom_site_label_2
_geom_bond_site_symmetry_1
_geom_bond_site_symmetry_2
Mn1 N3 1_555 1_555
Mn2 S1 1_555 1_555
N1 C1 1_555 1_555
C1 S1 1_555 1_555
N2 Mn2 1_555 1_555
C2 N2 1_555 1_555
S2 C2 1_555 1_555
N3 C3 1_555 1_555
C3 S3 1_555 1_555
S3 Mn2 1_555 1_555
N4 Mn2 1_555 1_555
C4 N4 1_555 1_555
S4 C4 1_555 1_555
N5 Mn1 1_555 1_555
C5 N5 1_555 1_555
C6 C5 1_555 1_555
C7 C6 1_555 1_555
C8 C7 1_555 1_555
C9 N5 1_555 1_555
C10 C7 1_555 1_555
C11 C10 1_555 1_555
N6 Mn2 1_555 1_555
C12 N6 1_555 1_555
C13 C12 1_555 1_555
C14 C13 1_555 1_555
C15 C14 1_555 1_555
C16 N6 1_555 1_555
C17 C14 1_555 1_555
C18 C17 1_555 1_555
N7 Mn1 1_555 1_555
C19 N7 1_555 1_555
C20 C19 1_555 1_555
C21 C20 1_555 1_555
C22 C21 1_555 1_555
C23 N7 1_555 1_555
C24 C21 1_555 1_555
C25 C24 1_555 1_555
N8 Mn2 1_555 1_555
C26 N8 1_555 1_555
C27 C26 1_555 1_555
C28 C27 1_555 1_555
C29 C28 1_555 1_555
C30 N8 1_555 1_555
C31 C28 1_555 1_555
C32 C31 1_555 1_555
Mn1_2 N1 1_555 1_555
N1_2 Mn1 1_555 1_555
S2_2 Mn1 1_555 1_555
S2 Mn1_2 1_555 1_555
C8 C9 1_555 1_555
C15 C16 1_555 1_555
C22 C23 1_555 1_555
C29 C30 1_555 1_555

#END
