
#######################################################################
#
#                 Cambridge Crystallographic Data Centre
#                                CCDC 
#
#######################################################################
#
# If this CIF has been generated from an entry in the Cambridge 
# Structural Database, then it will include bibliographic, chemical, 
# crystal, experimental, refinement or atomic coordinate data resulting 
# from the CCDC's data processing and validation procedures.
#
#######################################################################

data_FOCKOZ
_symmetry_cell_setting           monoclinic
_symmetry_space_group_name_H-M   'C c'
_symmetry_Int_Tables_number      9
_space_group_name_Hall           'C -2yn'
loop_
_symmetry_equiv_pos_site_id
_symmetry_equiv_pos_as_xyz
1 x,y,z
2 x,-y,1/2+z
3 1/2+x,1/2-y,1/2+z
4 1/2+x,1/2+y,z
_cell_length_a                   11.365(7)
_cell_length_b                   39.80(3)
_cell_length_c                   9.276(6)
_cell_angle_alpha                90
_cell_angle_beta                 115.09(5)
_cell_angle_gamma                90
_cell_volume                     3799.88
loop_
_atom_site_label
_atom_site_type_symbol
_atom_site_fract_x
_atom_site_fract_y
_atom_site_fract_z
Fe1 Fe 0.7469(24) 0.8724(23) -0.5935(56)
Fe2 Fe 0.2688(23) 0.8738(10) -0.6032(25)
N1 N -0.0587(54) 0.8928(23) -0.5302(23)
C1 C 0.0559(23) 0.9049(39) -0.4928(43)
S1 S 0.2114(89) 0.9212(56) -0.4422(19)
N2 N 1.0741(34) 0.8530(23) -0.6647(23)
C2 C 0.9502(50) 0.8397(81) -0.7039(18)
S2 S 0.7953(10) 0.8231(19) -0.7528(32)
N3 N 0.5934(10) 0.8538(34) -0.6834(67)
C3 C 0.4839(23) 0.8409(25) -0.7220(78)
S3 S 0.3305(24) 0.8229(36) -0.7761(23)
N4 N 0.4370(24) 0.8918(53) -0.5500(67)
C4 C 0.5432(23) 0.9032(23) -0.5165(98)
S4 S 0.6804(25) 0.9178(23) -0.4731(56)
N5 N 0.6750(73) 0.9015(23) -0.7972(34)
C5 C 0.7579(83) 0.9136(34) -0.8589(23)
C6 C 0.7099(23) 0.9331(23) -0.9949(23)
C7 C 0.5790(33) 0.9404(12) -1.0692(56)
C8 C 0.4961(23) 0.9283(23) -1.0075(24)
C9 C 0.5441(40) 0.9089(23) -0.8714(53)
C10 C 0.5241(34) 0.9627(12) -1.2249(63)
C11 C 0.5532(28) 0.9980(67) -1.1899(75)
N6 N 0.8215(29) 0.8422(82) -0.3822(23)
C12 C 0.9510(23) 0.8333(56) -0.3131(56)
C13 C 0.9990(93) 0.8138(37) -0.1771(91)
C14 C 0.9175(13) 0.8034(17) -0.1102(13)
C15 C 0.7880(33) 0.8123(24) -0.1792(20)
C16 C 0.7400(23) 0.8318(32) -0.3153(45)
C17 C 0.9725(33) 0.7811(12) 0.0456(23)
C18 C 1.0712(23) 0.7578(17) 0.0476(78)
N7 N 0.3434(43) 0.8437(21) -0.4046(23)
C19 C 0.4304(53) 0.8568(19) -0.2610(23)
C20 C 0.4804(23) 0.8365(29) -0.1277(56)
C21 C 0.4435(26) 0.8033(56) -0.1379(23)
C22 C 0.3566(23) 0.7902(28) -0.2815(89)
C23 C 0.3065(53) 0.8104(53) -0.4148(23)
C24 C 0.5009(23) 0.7801(45) 0.0147(24)
C25 C 0.5541(53) 0.7491(45) -0.0146(25)
N8 N 0.1859(23) 0.9073(60) -0.8240(63)
C26 C 0.2685(23) 0.9247(20) -0.8713(13)
C27 C 0.2185(23) 0.9449(23) -1.0046(73)
C28 C 0.0857(23) 0.9477(67) -1.0907(43)
C29 C 0.0031(67) 0.9303(34) -1.0435(73)
C30 C 0.0532(89) 0.9101(28) -0.9101(23)
C31 C 0.0284(43) 0.9709(63) -1.2434(45)
C32 C -0.0713(20) 0.9933(23) -1.2412(18)
Fe1_2 Fe -0.2531(24) 0.8724(23) -0.5935(56)
Fe2_2 Fe 1.2688(23) 0.8738(10) -0.6032(25)
N1_2 N 0.9413(54) 0.8928(23) -0.5302(23)
N2_2 N 0.0741(34) 0.8530(23) -0.6647(23)
loop_
_geom_bond_atom_site_label_1
_geom_bond_atom_site_label_2
_geom_bond_site_symmetry_1
_geom_bond_site_symmetry_2
Fe1 S2 1_555 1_555
Fe2 S1 1_555 1_555
N1 C1 1_555 1_555
C1 S1 1_555 1_555
N2 C2 1_555 1_555
C2 S2 1_555 1_555
N3 Fe1 1_555 1_555
C3 N3 1_555 1_555
S3 C3 1_555 1_555
N4 Fe2 1_555 1_555
C4 N4 1_555 1_555
S4 Fe1 1_555 1_555
N5 Fe1 1_555 1_555
C5 N5 1_555 1_555
C6 C5 1_555 1_555
C7 C6 1_555 1_555
C8 C7 1_555 1_555
C9 N5 1_555 1_555
C10 C7 1_555 1_555
C11 C10 1_555 1_555
N6 Fe1 1_555 1_555
C12 N6 1_555 1_555
C13 C12 1_555 1_555
C14 C13 1_555 1_555
C15 C14 1_555 1_555
C16 N6 1_555 1_555
C17 C14 1_555 1_555
C18 C17 1_555 1_555
N7 Fe2 1_555 1_555
C19 N7 1_555 1_555
C20 C19 1_555 1_555
C21 C20 1_555 1_555
C22 C21 1_555 1_555
C23 N7 1_555 1_555
C24 C21 1_555 1_555
C25 C24 1_555 1_555
N8 Fe2 1_555 1_555
C26 N8 1_555 1_555
C27 C26 1_555 1_555
C28 C27 1_555 1_555
C29 C28 1_555 1_555
C30 N8 1_555 1_555
C31 C28 1_555 1_555
C32 C31 1_555 1_555
Fe1_2 N1 1_555 1_555
Fe2_2 N2 1_555 1_555
N1_2 Fe1 1_555 1_555
N2_2 Fe2 1_555 1_555
C4 S4 1_555 1_555
C8 C9 1_555 1_555
C15 C16 1_555 1_555
C22 C23 1_555 1_555
C29 C30 1_555 1_555

#END
