
#######################################################################
#
#                 Cambridge Crystallographic Data Centre
#                                CCDC 
#
#######################################################################
#
# If this CIF has been generated from an entry in the Cambridge 
# Structural Database, then it will include bibliographic, chemical, 
# crystal, experimental, refinement or atomic coordinate data resulting 
# from the CCDC's data processing and validation procedures.
#
#######################################################################

data_FOCKEP
_symmetry_cell_setting           triclinic
_symmetry_space_group_name_H-M   'P -1'
_symmetry_Int_Tables_number      2
_space_group_name_Hall           '-P 1'
loop_
_symmetry_equiv_pos_site_id
_symmetry_equiv_pos_as_xyz
1 x,y,z
2 -x,-y,-z
_cell_length_a                   8.9684(6)
_cell_length_b                   10.6770(7)
_cell_length_c                   10.9560(7)
_cell_angle_alpha                67.460(5)
_cell_angle_beta                 67.360(5)
_cell_angle_gamma                83.940(5)
_cell_volume                     893.208
loop_
_atom_site_label
_atom_site_type_symbol
_atom_site_fract_x
_atom_site_fract_y
_atom_site_fract_z
Ni1 Ni 1.0000 0.5000 0.5000
Ni2 Ni 0.5000 0.5000 1.0000
N1 N 0.9007(3) 0.6080(3) 0.6274(3)
C1 C 0.8360(4) 0.6324(4) 0.7287(4)
S1 S 0.74439(11) 0.66634(11) 0.87362(10)
N2 N 0.5859(3) 0.4035(3) 0.8601(3)
C2 C 0.6592(4) 0.3709(4) 0.7655(4)
S2 S 0.76738(11) 0.32447(10) 0.63129(10)
N3 N 0.8834(3) 0.6182(3) 0.3604(3)
C3 C 0.9578(4) 0.6594(4) 0.2182(4)
H1 H 1.0628 0.6290 0.1801
C4 C 0.8891(4) 0.7435(4) 0.1251(4)
H2 H 0.9461 0.7684 0.0254
C5 C 0.7369(4) 0.7926(4) 0.1756(4)
C6 C 0.6595(4) 0.7482(4) 0.3237(4)
H3 H 0.5544 0.7771 0.3645
C7 C 0.7353(4) 0.6624(4) 0.4114(4)
H4 H 0.6800 0.6336 0.5117
C8 C 0.6582(5) 0.8884(4) 0.0788(5)
H5 H 0.5777 0.9388 0.1316
H6 H 0.5991 0.8344 0.0542
C9 C 0.7743(6) 0.9900(5) -0.0582(5)
H7 H 0.7137 1.0480 -0.1150
H8 H 0.8532 0.9414 -0.1126
H9 H 0.8311 1.0463 -0.0354
N4 N 0.3818(4) 0.6356(3) 0.8707(3)
C10 C 0.3206(5) 0.5947(4) 0.7965(4)
H10 H 0.3303 0.5027 0.8045
C11 C 0.2444(5) 0.6803(4) 0.7093(5)
H11 H 0.2029 0.6467 0.6593
C12 C 0.2289(5) 0.8151(5) 0.6952(4)
C13 C 0.2908(5) 0.8560(4) 0.7721(5)
H12 H 0.2821 0.9473 0.7666
C14 C 0.3655(5) 0.7645(4) 0.8573(4)
H13 H 0.4073 0.7958 0.9087
C15 C 0.1529(5) 0.9146(5) 0.5963(5)
H14 H 0.0871 0.8634 0.5745
H15 H 0.0796 0.9712 0.6454
C16 C 0.2772(7) 1.0055(6) 0.4590(6)
H16 H 0.2226 1.0680 0.3990
H17 H 0.3484 0.9500 0.4088
H18 H 0.3414 1.0575 0.4799
N1A N 0.0993(3) 0.3920(3) 1.3726(3)
C1A C 0.1640(4) 0.3676(4) 1.2713(4)
S1A S 0.25561(11) 0.33366(11) 1.12638(10)
N2A N 0.4141(3) 0.5965(3) 1.1399(3)
C2A C 0.3408(4) 0.6291(4) 1.2345(4)
S2A S 0.23262(11) 0.67553(10) 1.36871(10)
N4A N 0.6182(4) 0.3644(3) 1.1293(3)
C10A C 0.6794(5) 0.4053(4) 1.2035(4)
H10A H 0.6697 0.4973 1.1955
C11A C 0.7556(5) 0.3197(4) 1.2907(5)
H11A H 0.7971 0.3533 1.3407
C12A C 0.7711(5) 0.1849(5) 1.3048(4)
C13A C 0.7092(5) 0.1440(4) 1.2279(5)
H12A H 0.7179 0.0527 1.2334
C14A C 0.6345(5) 0.2355(4) 1.1427(4)
H13A H 0.5927 0.2042 1.0913
C15A C 0.8471(5) 0.0854(5) 1.4037(5)
H14A H 0.9129 0.1366 1.4255
H15A H 0.9204 0.0288 1.3546
C16A C 0.7228(7) -0.0055(6) 1.5410(6)
H16A H 0.7774 -0.0680 1.6010
H17A H 0.6516 0.0500 1.5912
H18A H 0.6586 -0.0575 1.5201
N3A N 1.1166(3) 0.3818(3) 0.6396(3)
C3A C 1.0422(4) 0.3406(4) 0.7818(4)
H1A H 0.9372 0.3710 0.8199
C4A C 1.1109(4) 0.2565(4) 0.8749(4)
H2A H 1.0539 0.2316 0.9746
C5A C 1.2631(4) 0.2074(4) 0.8244(4)
C6A C 1.3405(4) 0.2518(4) 0.6763(4)
H3A H 1.4456 0.2229 0.6355
C7A C 1.2647(4) 0.3376(4) 0.5886(4)
H4A H 1.3200 0.3664 0.4883
C8A C 1.3418(5) 0.1116(4) 0.9212(5)
H5A H 1.4223 0.0612 0.8684
H6A H 1.4009 0.1656 0.9458
C9A C 1.2257(6) 0.0100(5) 1.0582(5)
H7A H 1.2863 -0.0480 1.1150
H8A H 1.1468 0.0586 1.1126
H9A H 1.1689 -0.0463 1.0354
Ni1_2 Ni 0.0000 0.5000 1.5000
N1A_2 N 1.0993(3) 0.3920(3) 0.3726(3)
S2A_2 S 1.23262(11) 0.67553(10) 0.36871(10)
loop_
_geom_bond_atom_site_label_1
_geom_bond_atom_site_label_2
_geom_bond_site_symmetry_1
_geom_bond_site_symmetry_2
Ni1 N1 1_555 1_555
Ni2 S1 1_555 1_555
N1 C1 1_555 1_555
C1 S1 1_555 1_555
N2 Ni2 1_555 1_555
C2 N2 1_555 1_555
S2 Ni1 1_555 1_555
N3 Ni1 1_555 1_555
C3 N3 1_555 1_555
H1 C3 1_555 1_555
C4 C3 1_555 1_555
H2 C4 1_555 1_555
C5 C4 1_555 1_555
C6 C5 1_555 1_555
H3 C6 1_555 1_555
C7 N3 1_555 1_555
H4 C7 1_555 1_555
C8 C5 1_555 1_555
H5 C8 1_555 1_555
H6 C8 1_555 1_555
C9 C8 1_555 1_555
H7 C9 1_555 1_555
H8 C9 1_555 1_555
H9 C9 1_555 1_555
N4 Ni2 1_555 1_555
C10 N4 1_555 1_555
H10 C10 1_555 1_555
C11 C10 1_555 1_555
H11 C11 1_555 1_555
C12 C11 1_555 1_555
C13 C12 1_555 1_555
H12 C13 1_555 1_555
C14 N4 1_555 1_555
H13 C14 1_555 1_555
C15 C12 1_555 1_555
H14 C15 1_555 1_555
H15 C15 1_555 1_555
C16 C15 1_555 1_555
H16 C16 1_555 1_555
H17 C16 1_555 1_555
H18 C16 1_555 1_555
N1A C1A 1_555 1_555
C1A S1A 1_555 1_555
S1A Ni2 1_555 1_555
N2A Ni2 1_555 1_555
C2A N2A 1_555 1_555
S2A C2A 1_555 1_555
N4A Ni2 1_555 1_555
C10A N4A 1_555 1_555
H10A C10A 1_555 1_555
C11A C10A 1_555 1_555
H11A C11A 1_555 1_555
C12A C11A 1_555 1_555
C13A C12A 1_555 1_555
H12A C13A 1_555 1_555
C14A N4A 1_555 1_555
H13A C14A 1_555 1_555
C15A C12A 1_555 1_555
H14A C15A 1_555 1_555
H15A C15A 1_555 1_555
C16A C15A 1_555 1_555
H16A C16A 1_555 1_555
H17A C16A 1_555 1_555
H18A C16A 1_555 1_555
N3A Ni1 1_555 1_555
C3A N3A 1_555 1_555
H1A C3A 1_555 1_555
C4A C3A 1_555 1_555
H2A C4A 1_555 1_555
C5A C4A 1_555 1_555
C6A C5A 1_555 1_555
H3A C6A 1_555 1_555
C7A N3A 1_555 1_555
H4A C7A 1_555 1_555
C8A C5A 1_555 1_555
H5A C8A 1_555 1_555
H6A C8A 1_555 1_555
C9A C8A 1_555 1_555
H7A C9A 1_555 1_555
H8A C9A 1_555 1_555
H9A C9A 1_555 1_555
Ni1_2 N1A 1_555 1_555
N1A_2 Ni1 1_555 1_555
S2A_2 Ni1 1_555 1_555
C2 S2 1_555 1_555
C6 C7 1_555 1_555
C13 C14 1_555 1_555
S2A Ni1_2 1_555 1_555
C13A C14A 1_555 1_555
C6A C7A 1_555 1_555

#END
