
#######################################################################
#
#                 Cambridge Crystallographic Data Centre
#                                CCDC 
#
#######################################################################
#
# If this CIF has been generated from an entry in the Cambridge 
# Structural Database, then it will include bibliographic, chemical, 
# crystal, experimental, refinement or atomic coordinate data resulting 
# from the CCDC's data processing and validation procedures.
#
#######################################################################

data_FOCLUF
_symmetry_cell_setting           triclinic
_symmetry_space_group_name_H-M   'P -1'
_symmetry_Int_Tables_number      2
_space_group_name_Hall           '-P 1'
loop_
_symmetry_equiv_pos_site_id
_symmetry_equiv_pos_as_xyz
1 x,y,z
2 -x,-y,-z
_cell_length_a                   12.9270(5)
_cell_length_b                   12.9856(5)
_cell_length_c                   14.3925(6)
_cell_angle_alpha                64.1320(10)
_cell_angle_beta                 68.6810(10)
_cell_angle_gamma                71.7640(10)
_cell_volume                     1990.54
loop_
_atom_site_label
_atom_site_type_symbol
_atom_site_fract_x
_atom_site_fract_y
_atom_site_fract_z
Mo1 Mo 0.11111(3) 1.21273(3) 0.70278(3)
Mo2 Mo 0.32132(3) 1.32895(3) 0.44837(3)
Mo3 Mo 0.30451(3) 1.14396(3) 0.83569(3)
Mo4 Mo 0.53404(3) 1.24240(3) 0.58464(3)
Mo5 Mo 0.18716(3) 1.11875(3) 0.46975(3)
Mo6 Mo 0.41245(4) 1.04360(3) 0.24176(3)
Mo7 Mo 0.17952(3) 0.92748(3) 0.87289(3)
Mo8 Mo 0.24514(3) 0.82424(3) 0.64847(3)
Mo9 Mo 0.45308(3) 0.73891(3) 0.78346(3)
As1 As 0.37985(3) 1.03676(3) 0.62301(3)
Cu1 Cu 0.40319(4) 0.44499(5) 0.98949(4)
O1 O 0.3992(2) 1.2275(2) 0.7130(2)
O2 O 0.3050(2) 1.1869(2) 0.9308(2)
O3 O 0.1714(2) 1.2349(2) 0.8010(2)
O4 O 0.2765(2) 1.0679(2) 0.72735(19)
O5 O 0.2138(2) 1.3058(2) 0.5903(2)
O6 O -0.0116(2) 1.3103(3) 0.7111(2)
O7 O 0.1087(2) 1.1495(2) 0.6130(2)
O8 O 0.0652(2) 1.1625(3) 0.4366(2)
O9 O 0.2835(3) 1.0882(4) 0.3521(3)
O10 O 0.0630(2) 1.0750(2) 0.8288(2)
O11 O 0.0899(2) 0.8529(2) 0.9853(2)
O12 O 0.1664(2) 0.8915(2) 0.7665(2)
O13 O 0.2238(2) 1.0129(2) 0.9311(2)
O14 O 0.3186(2) 0.8259(2) 0.8721(2)
O15 O 0.1509(2) 0.7408(3) 0.6882(2)
O16 O 0.6525(3) 1.2212(3) 0.4648(3)
O17 O 0.4406(2) 1.0120(2) 0.8413(2)
O18 O 0.3392(2) 1.0813(3) 0.1545(2)
O19 O 0.4318(3) 1.3118(3) 0.3183(2)
O20 O 0.4594(3) 0.6132(2) 0.8917(2)
O21 O 0.5756(3) 1.3459(3) 0.5926(3)
O22 O 0.2721(3) 1.4698(3) 0.3948(2)
O23 O 0.5041(4) 1.0596(4) 0.6182(3)
O24 O 0.3437(4) 1.1257(4) 0.5095(3)
O25 O 0.3925(4) 0.8948(4) 0.6453(3)
O35 O 0.4383(4) 1.3002(5) 0.5002(4)
O36 O 0.2042(4) 1.2857(5) 0.4177(4)
O37 O 0.6139(4) 1.1179(4) 0.6928(4)
O38 O 0.1490(7) 0.9588(5) 0.5579(4)
O39 O 0.3300(4) 0.7039(5) 0.7578(4)
O40 O 0.4623(4) 1.1689(4) 0.2256(5)
N1 N 0.2512(3) 0.4755(3) 1.0723(3)
N2 N -0.1401(3) 0.4757(3) 1.3326(3)
H1 H -0.0910 0.4561 1.3694
N3 N 0.5229(3) 0.3529(3) 0.9165(3)
N4 N 0.8300(3) 0.0158(3) 0.8627(3)
H2 H 0.8104 0.0063 0.9308
C1 C 0.1780(4) 0.5747(4) 1.0349(4)
H3 H 0.2069 0.6365 0.9727
C2 C 0.0634(4) 0.5893(4) 1.0838(4)
H4 H 0.0148 0.6598 1.0551
C3 C 0.0198(3) 0.5003(3) 1.1749(3)
C4 C 0.0950(4) 0.4005(4) 1.2161(3)
H5 H 0.0683 0.3393 1.2803
C5 C 0.2085(4) 0.3909(4) 1.1630(4)
H6 H 0.2587 0.3218 1.1917
C6 C -0.1030(3) 0.5079(3) 1.2248(3)
C7 C -0.1806(3) 0.5404(3) 1.1670(3)
H7 H -0.1566 0.5651 1.0911
C8 C -0.2938(4) 0.5369(4) 1.2202(4)
H8 H -0.3474 0.5583 1.1810
C9 C -0.3281(3) 0.5018(3) 1.3310(4)
H9 H -0.4051 0.4980 1.3686
C10 C -0.2493(3) 0.4729(3) 1.3850(3)
H10 H -0.2722 0.4506 1.4607
C11 C 0.6195(3) 0.3883(3) 0.8466(3)
H11 H 0.6257 0.4670 0.8247
C12 C 0.7098(3) 0.3151(3) 0.8056(3)
H12 H 0.7764 0.3429 0.7565
C13 C 0.7010(3) 0.2005(3) 0.8377(3)
C14 C 0.6017(3) 0.1629(3) 0.9088(3)
H13 H 0.5938 0.0845 0.9316
C15 C 0.5150(3) 0.2413(3) 0.9455(3)
H14 H 0.4468 0.2157 0.9932
C16 C 0.7903(3) 0.1181(3) 0.7930(3)
C17 C 0.8254(4) 0.1364(4) 0.6849(3)
H15 H 0.8031 0.2098 0.6339
C18 C 0.8942(4) 0.0450(4) 0.6523(4)
H16 H 0.9170 0.0550 0.5788
C19 C 0.9291(3) -0.0601(4) 0.7270(4)
H17 H 0.9741 -0.1235 0.7056
C20 C 0.8982(3) -0.0717(4) 0.8322(4)
H18 H 0.9253 -0.1421 0.8836
Mo1A Mo 0.88889(3) 0.78727(3) 0.29722(3)
Mo2A Mo 0.67868(3) 0.67105(3) 0.55163(3)
Mo3A Mo 0.69549(3) 0.85604(3) 0.16431(3)
Mo4A Mo 0.46596(3) 0.75760(3) 0.41536(3)
Mo5A Mo 0.81284(3) 0.88125(3) 0.53025(3)
Mo6A Mo 0.58755(4) 0.95640(3) 0.75824(3)
Mo7A Mo 0.82048(3) 1.07252(3) 0.12711(3)
Mo8A Mo 0.75486(3) 1.17576(3) 0.35153(3)
Mo9A Mo 0.54692(3) 1.26109(3) 0.21654(3)
As1A As 0.62015(3) 0.96324(3) 0.37699(3)
Cu1A Cu 0.59681(4) 0.55501(5) 1.01051(4)
Cu1_2 Cu 0.40319(4) 1.44499(5) -0.01051(4)
Cu1A_2 Cu 0.59681(4) 1.55501(5) 0.01051(4)
O1A O 0.6008(2) 0.7725(2) 0.2870(2)
O2A O 0.6950(2) 0.8131(2) 0.0692(2)
O3A O 0.8286(2) 0.7651(2) 0.1990(2)
O4A O 0.7235(2) 0.9321(2) 0.27265(19)
O5A O 0.7862(2) 0.6942(2) 0.4097(2)
O6A O 1.0116(2) 0.6897(3) 0.2889(2)
O7A O 0.8913(2) 0.8505(2) 0.3870(2)
O8A O 0.9348(2) 0.8375(3) 0.5634(2)
O9A O 0.7165(3) 0.9118(4) 0.6479(3)
O10A O 0.9370(2) 0.9250(2) 0.1712(2)
O11A O 0.9101(2) 1.1471(2) 0.0147(2)
O12A O 0.8336(2) 1.1085(2) 0.2335(2)
O13A O 0.7762(2) 0.9871(2) 0.0689(2)
O14A O 0.6814(2) 1.1741(2) 0.1279(2)
O15A O 0.8491(2) 1.2592(3) 0.3118(2)
O16A O 0.3475(3) 0.7788(3) 0.5352(3)
O17A O 0.5594(2) 0.9880(2) 0.1587(2)
O18A O 0.6608(2) 0.9187(3) 0.8455(2)
O19A O 0.5682(3) 0.6882(3) 0.6817(2)
O20A O 0.5406(3) 0.3868(2) 1.1083(2)
O20A_2 O 0.5406(3) 1.3868(2) 0.1083(2)
O21A O 0.4244(3) 0.6541(3) 0.4074(3)
O22A O 0.7279(3) 0.5302(3) 0.6052(2)
O23A O 0.4959(4) 0.9404(4) 0.3818(3)
O24A O 0.6563(4) 0.8743(4) 0.4905(3)
O25A O 0.6075(4) 1.1052(4) 0.3547(3)
O35A O 0.5617(4) 0.6998(5) 0.4998(4)
O36A O 0.7958(4) 0.7143(5) 0.5823(4)
O37A O 0.3861(4) 0.8821(4) 0.3072(4)
O38A O 0.8510(7) 1.0412(5) 0.4421(4)
O39A O 0.6700(4) 1.2961(5) 0.2422(4)
O40A O 0.5377(4) 0.8311(4) 0.7744(5)
N1A N 0.7488(3) 0.5245(3) 0.9277(3)
N2A N 1.1401(3) 0.5243(3) 0.6674(3)
H1A H 1.0910 0.5439 0.6306
N3A N 0.4771(3) 0.6471(3) 1.0835(3)
N4A N 0.1700(3) 0.9842(3) 1.1373(3)
H2A H 0.1896 0.9937 1.0692
C1A C 0.8220(4) 0.4253(4) 0.9651(4)
H3A H 0.7931 0.3635 1.0273
C2A C 0.9366(4) 0.4107(4) 0.9162(4)
H4A H 0.9852 0.3402 0.9449
C3A C 0.9802(3) 0.4997(3) 0.8251(3)
C4A C 0.9050(4) 0.5995(4) 0.7839(3)
H5A H 0.9317 0.6607 0.7197
C5A C 0.7915(4) 0.6091(4) 0.8370(4)
H6A H 0.7413 0.6782 0.8083
C6A C 1.1030(3) 0.4921(3) 0.7752(3)
C7A C 1.1806(3) 0.4596(3) 0.8330(3)
H7A H 1.1566 0.4349 0.9089
C8A C 1.2938(4) 0.4631(4) 0.7798(4)
H8A H 1.3474 0.4417 0.8190
C9A C 1.3281(3) 0.4982(3) 0.6690(4)
H9A H 1.4051 0.5020 0.6314
C10A C 1.2493(3) 0.5271(3) 0.6150(3)
H10A H 1.2722 0.5494 0.5393
C11A C 0.3805(3) 0.6117(3) 1.1534(3)
H11A H 0.3743 0.5330 1.1753
C12A C 0.2902(3) 0.6849(3) 1.1944(3)
H12A H 0.2236 0.6571 1.2435
C13A C 0.2990(3) 0.7995(3) 1.1623(3)
C14A C 0.3983(3) 0.8371(3) 1.0912(3)
H13A H 0.4062 0.9155 1.0684
C15A C 0.4850(3) 0.7587(3) 1.0545(3)
H14A H 0.5532 0.7843 1.0068
C16A C 0.2097(3) 0.8819(3) 1.2070(3)
C17A C 0.1746(4) 0.8636(4) 1.3151(3)
H15A H 0.1969 0.7902 1.3661
C18A C 0.1058(4) 0.9550(4) 1.3477(4)
H16A H 0.0830 0.9450 1.4212
C19A C 0.0709(3) 1.0601(4) 1.2730(4)
H17A H 0.0259 1.1235 1.2944
C20A C 0.1018(3) 1.0717(4) 1.1678(4)
H18A H 0.0747 1.1421 1.1164
O41 O 0.9827(4) 0.4122(4) 0.4728(4)
O26? O 0.4292(5) 1.1593(5) 0.5391(4)
O27? O 0.3164(5) 0.9960(5) 0.5637(4)
O28? O 0.4759(5) 0.9294(5) 0.6750(5)
O29? O 0.4279(5) 1.3652(6) 0.4968(4)
O30? O 0.2557(6) 1.2338(6) 0.4352(5)
O31? O 0.4106(5) 0.9042(5) 0.3412(5)
O32? O 0.2121(5) 0.9654(5) 0.5536(4)
O33? O 0.3567(5) 0.7604(6) 0.7130(5)
O34? O 0.5478(5) 0.7934(5) 0.8297(6)
loop_
_geom_bond_atom_site_label_1
_geom_bond_atom_site_label_2
_geom_bond_site_symmetry_1
_geom_bond_site_symmetry_2
Mo1 O3 1_555 1_555
Mo2 O5 1_555 1_555
Mo3 O1 1_555 1_555
Mo4 O1 1_555 1_555
Mo5 O7 1_555 1_555
Mo6 O9 1_555 1_555
Mo7 O4 1_555 1_555
Mo8 O12 1_555 1_555
Mo9 O14 1_555 1_555
As1 O4 1_555 1_555
Cu1 O20 1_555 1_555
O2 Mo3 1_555 1_555
O3 Mo3 1_555 1_555
O4 Mo1 1_555 1_555
O5 Mo1 1_555 1_555
O6 Mo1 1_555 1_555
O7 Mo1 1_555 1_555
O8 Mo5 1_555 1_555
O9 Mo5 1_555 1_555
O10 Mo1 1_555 1_555
O11 Mo7 1_555 1_555
O12 Mo7 1_555 1_555
O13 Mo3 1_555 1_555
O14 Mo7 1_555 1_555
O15 Mo8 1_555 1_555
O16 Mo4 1_555 1_555
O17 Mo3 1_555 1_555
O18 Mo6 1_555 1_555
O19 Mo2 1_555 1_555
O20 Mo9 1_555 1_555
O21 Mo4 1_555 1_555
O22 Mo2 1_555 1_555
O23 Mo4 1_555 1_555
O24 Mo2 1_555 1_555
O25 Mo8 1_555 1_555
O35 Mo2 1_555 1_555
O36 Mo2 1_555 1_555
O37 Mo4 1_555 1_555
O38 Mo5 1_555 1_555
O39 Mo8 1_555 1_555
O40 Mo6 1_555 1_555
N1 Cu1 1_555 1_555
N2 H1 1_555 1_555
N3 Cu1 1_555 1_555
N4 H2 1_555 1_555
C1 N1 1_555 1_555
H3 C1 1_555 1_555
C2 C1 1_555 1_555
H4 C2 1_555 1_555
C3 C2 1_555 1_555
C4 C3 1_555 1_555
H5 C4 1_555 1_555
C5 N1 1_555 1_555
H6 C5 1_555 1_555
C6 N2 1_555 1_555
C7 C6 1_555 1_555
H7 C7 1_555 1_555
C8 C7 1_555 1_555
H8 C8 1_555 1_555
C9 C8 1_555 1_555
H9 C9 1_555 1_555
C10 N2 1_555 1_555
H10 C10 1_555 1_555
C11 N3 1_555 1_555
H11 C11 1_555 1_555
C12 C11 1_555 1_555
H12 C12 1_555 1_555
C13 C12 1_555 1_555
C14 C13 1_555 1_555
H13 C14 1_555 1_555
C15 N3 1_555 1_555
H14 C15 1_555 1_555
C16 N4 1_555 1_555
C17 C16 1_555 1_555
H15 C17 1_555 1_555
C18 C17 1_555 1_555
H16 C18 1_555 1_555
C19 C18 1_555 1_555
H17 C19 1_555 1_555
C20 N4 1_555 1_555
H18 C20 1_555 1_555
Mo1A O3A 1_555 1_555
Mo2A O5A 1_555 1_555
Mo3A O1A 1_555 1_555
Mo4A O1A 1_555 1_555
Mo5A O7A 1_555 1_555
Mo6A O17 1_555 1_555
Mo7A O4A 1_555 1_555
Mo8A O16 1_555 1_555
Mo9A O19 1_555 1_555
As1A O4A 1_555 1_555
Cu1A O20 1_555 1_555
Cu1_2 O20A_2 1_555 1_555
Cu1A_2 O20A_2 1_555 1_555
O2A Mo3A 1_555 1_555
O3A Mo3A 1_555 1_555
O4A Mo1A 1_555 1_555
O5A Mo1A 1_555 1_555
O6A Mo1A 1_555 1_555
O7A Mo1A 1_555 1_555
O8A Mo5A 1_555 1_555
O9A Mo5A 1_555 1_555
O10A Mo1A 1_555 1_555
O11A Mo7A 1_555 1_555
O12A Mo7A 1_555 1_555
O13A Mo3A 1_555 1_555
O14A Mo7A 1_555 1_555
O15A Mo8A 1_555 1_555
O16A Mo8 1_555 1_555
O17A Mo6 1_555 1_555
O18A Mo6A 1_555 1_555
O19A Mo9 1_555 1_555
O20A Cu1 1_555 1_555
O20A_2 Mo9A 1_555 1_555
O21A Mo4A 1_555 1_555
O22A Mo2A 1_555 1_555
O23A Mo6 1_555 1_555
O24A Mo2A 1_555 1_555
O25A Mo8A 1_555 1_555
O35A Mo2A 1_555 1_555
O36A Mo2A 1_555 1_555
O37A Mo6 1_555 1_555
O38A Mo5A 1_555 1_555
O39A Mo8A 1_555 1_555
O40A Mo9 1_555 1_555
N1A Cu1A 1_555 1_555
N2A H1A 1_555 1_555
N3A Cu1A 1_555 1_555
N4A H2A 1_555 1_555
C1A N1A 1_555 1_555
H3A C1A 1_555 1_555
C2A C1A 1_555 1_555
H4A C2A 1_555 1_555
C3A C2A 1_555 1_555
C4A C3A 1_555 1_555
H5A C4A 1_555 1_555
C5A N1A 1_555 1_555
H6A C5A 1_555 1_555
C6A N2A 1_555 1_555
C7A C6A 1_555 1_555
H7A C7A 1_555 1_555
C8A C7A 1_555 1_555
H8A C8A 1_555 1_555
C9A C8A 1_555 1_555
H9A C9A 1_555 1_555
C10A N2A 1_555 1_555
H10A C10A 1_555 1_555
C11A N3A 1_555 1_555
H11A C11A 1_555 1_555
C12A C11A 1_555 1_555
H12A C12A 1_555 1_555
C13A C12A 1_555 1_555
C14A C13A 1_555 1_555
H13A C14A 1_555 1_555
C15A N3A 1_555 1_555
H14A C15A 1_555 1_555
C16A N4A 1_555 1_555
C17A C16A 1_555 1_555
H15A C17A 1_555 1_555
C18A C17A 1_555 1_555
H16A C18A 1_555 1_555
C19A C18A 1_555 1_555
H17A C19A 1_555 1_555
C20A N4A 1_555 1_555
H18A C20A 1_555 1_555
Mo3 O4 1_555 1_555
Mo4 O35 1_555 1_555
Mo5 O24 1_555 1_555
Mo5 O36 1_555 1_555
Mo7 O10 1_555 1_555
Mo7 O13 1_555 1_555
Mo8 O38 1_555 1_555
Mo9 O25 1_555 1_555
Mo9 O39 1_555 1_555
As1 O23 1_555 1_555
As1 O24 1_555 1_555
As1 O25 1_555 1_555
O23 Mo6A 1_555 1_555
O37 Mo6A 1_555 1_555
O40 Mo9A 1_555 1_555
C3 C6 1_555 1_555
C4 C5 1_555 1_555
C9 C10 1_555 1_555
C13 C16 1_555 1_555
C14 C15 1_555 1_555
C19 C20 1_555 1_555
Mo2A O19A 1_555 1_555
Mo3A O4A 1_555 1_555
Mo3A O17A 1_555 1_555
Mo4A O16A 1_555 1_555
Mo4A O23A 1_555 1_555
Mo4A O35A 1_555 1_555
Mo4A O37A 1_555 1_555
Mo5A O24A 1_555 1_555
Mo5A O36A 1_555 1_555
Mo6A O9A 1_555 1_555
Mo6A O40A 1_555 1_555
Mo7A O10A 1_555 1_555
Mo7A O13A 1_555 1_555
Mo8A O12A 1_555 1_555
Mo8A O38A 1_555 1_555
Mo9A O14A 1_555 1_555
Mo9A O25A 1_555 1_555
Mo9A O39A 1_555 1_555
As1A O23A 1_555 1_555
As1A O24A 1_555 1_555
As1A O25A 1_555 1_555
Cu1A O20A 1_555 1_555
C3A C6A 1_555 1_555
C4A C5A 1_555 1_555
C9A C10A 1_555 1_555
C13A C16A 1_555 1_555
C14A C15A 1_555 1_555
C19A C20A 1_555 1_555

#END
