
#######################################################################
#
#                 Cambridge Crystallographic Data Centre
#                                CCDC 
#
#######################################################################
#
# If this CIF has been generated from an entry in the Cambridge 
# Structural Database, then it will include bibliographic, chemical, 
# crystal, experimental, refinement or atomic coordinate data resulting 
# from the CCDC's data processing and validation procedures.
#
#######################################################################

data_FOCLIT
_symmetry_cell_setting           monoclinic
_symmetry_space_group_name_H-M   'P 21/n'
_symmetry_Int_Tables_number      14
_space_group_name_Hall           '-P 2yn'
loop_
_symmetry_equiv_pos_site_id
_symmetry_equiv_pos_as_xyz
1 x,y,z
2 1/2-x,1/2+y,1/2-z
3 -x,-y,-z
4 1/2+x,1/2-y,1/2+z
_cell_length_a                   14.8916(12)
_cell_length_b                   20.0290(16)
_cell_length_c                   19.9235(16)
_cell_angle_alpha                90
_cell_angle_beta                 101.110(2)
_cell_angle_gamma                90
_cell_volume                     5831.09
loop_
_atom_site_label
_atom_site_type_symbol
_atom_site_fract_x
_atom_site_fract_y
_atom_site_fract_z
Mo1 Mo 0.12056(2) 0.089020(16) 0.138310(15)
Mo2 Mo 0.14369(2) 0.014200(15) 0.292650(16)
Mo3 Mo -0.12936(2) 0.062440(15) 0.132010(15)
Mo4 Mo -0.04451(2) 0.231570(16) 0.095860(16)
Mo5 Mo 0.24955(2) 0.163110(16) 0.277930(16)
Mo6 Mo 0.10285(2) 0.312040(15) 0.221370(16)
Mo7 Mo -0.10481(2) 0.008340(15) 0.297250(16)
Mo8 Mo -0.12352(2) 0.308370(15) 0.224950(16)
Mo9 Mo -0.23674(2) 0.143800(15) 0.244520(16)
Mo10 Mo 0.13518(2) 0.253750(15) 0.402920(16)
Mo11 Mo 0.05690(2) 0.099400(15) 0.433930(15)
Mo12 Mo -0.09332(2) 0.229730(16) 0.395640(16)
Cu1 Cu 0.18836(3) 0.09110(3) -0.03112(2)
Cu2 Cu 0.48492(4) 0.01719(3) -0.27937(3)
As1 As 0.00639(2) 0.159410(17) 0.263300(17)
O1 O 0.14829(18) 0.05720(14) 0.06582(13)
O2 O -0.06198(18) 0.24628(14) 0.01154(13)
O3 O -0.18067(17) 0.02617(13) 0.05721(13)
O4 O 0.06131(17) 0.16694(13) 0.10764(13)
O5 O -0.00654(17) 0.05241(13) 0.13213(13)
O6 O -0.11348(17) 0.15519(13) 0.10257(13)
O7 O 0.22837(17) 0.12802(13) 0.18005(13)
O8 O 0.15281(17) 0.01117(13) 0.20020(13)
O9 O 0.36032(17) 0.18516(14) 0.28485(14)
O10 O 0.19472(18) -0.05674(13) 0.32439(13)
O11 O 0.25578(17) 0.07485(13) 0.30481(13)
O12 O 0.09909(16) 0.11985(12) 0.24756(12)
O13 O 0.02203(17) -0.00636(13) 0.28066(13)
O14 O 0.18723(17) 0.24286(13) 0.23042(13)
O15 O 0.16835(18) 0.38061(13) 0.22188(13)
O16 O -0.12901(18) -0.06686(13) 0.32648(13)
O17 O 0.05605(17) 0.29693(13) 0.12884(13)
O18 O 0.12756(17) 0.05930(13) 0.37858(13)
O19 O -0.13635(17) -0.00478(13) 0.19502(13)
O20 O -0.12446(17) 0.29076(13) 0.12640(13)
O21 O 0.11278(17) 0.30044(13) 0.32226(13)
O22 O -0.01410(17) 0.35622(12) 0.22788(13)
O23 O -0.08532(16) 0.11042(12) 0.24150(12)
O24 O -0.21624(17) 0.05452(13) 0.28854(13)
O25 O -0.04653(17) 0.05165(12) 0.37565(12)
O26 O -0.34852(17) 0.15458(14) 0.24732(14)
O27 O -0.20247(17) 0.22768(13) 0.21680(13)
O28 O 0.21716(17) 0.19702(13) 0.35516(13)
O29 O -0.00956(16) 0.22957(12) 0.21723(12)
O30 O -0.19964(18) 0.37070(13) 0.21828(14)
O31 O 0.21443(18) 0.29941(13) 0.45500(13)
O32 O 0.02203(16) 0.17881(12) 0.34615(12)
O33 O 0.13902(17) 0.17022(13) 0.45941(13)
O34 O -0.04119(17) 0.15703(13) 0.45411(13)
O35 O -0.10104(17) 0.28984(13) 0.31937(13)
O36 O 0.02793(17) 0.27499(12) 0.43133(13)
O37 O -0.15885(19) 0.26569(14) 0.44542(14)
O38 O -0.17599(17) 0.17453(13) 0.33875(13)
O39 O 0.07600(17) 0.05105(13) 0.50499(13)
O40 O -0.24032(17) 0.10275(13) 0.16088(13)
N1 N 0.5406(2) 0.01921(16) -0.18561(17)
N2 N 0.3206(2) 0.09594(15) -0.00286(16)
N3 N 0.0672(2) 0.11875(16) -0.07849(16)
N4 N 0.0300(2) 0.20898(17) -0.34383(17)
N5 N 0.4306(2) 0.02720(16) -0.37335(16)
N6 N 0.6634(2) 0.11551(17) -0.53901(17)
C1 C 0.6317(3) 0.0187(2) -0.1679(2)
C2 C 0.6776(3) 0.0390(2) -0.1033(2)
C3 C 0.6282(3) 0.06031(19) -0.0558(2)
C4 C 0.5324(2) 0.06127(18) -0.07262(19)
C5 C 0.4899(2) 0.03938(18) -0.13814(19)
C6 C 0.3928(3) 0.0367(2) -0.15694(19)
C7 C 0.3395(3) 0.05577(19) -0.11247(19)
C8 C 0.3793(2) 0.07854(18) -0.04553(19)
C9 C 0.4751(2) 0.08226(18) -0.02470(19)
C10 C 0.5107(3) 0.10493(19) 0.0417(2)
C11 C 0.4522(3) 0.12147(19) 0.0842(2)
C12 C 0.3574(3) 0.11638(18) 0.0603(2)
C13 C -0.0074(3) 0.1063(2) -0.0521(2)
C14 C -0.0953(3) 0.1206(2) -0.0850(2)
C15 C -0.1103(3) 0.1449(2) -0.1505(2)
C16 C -0.0347(2) 0.15674(18) -0.18191(19)
C17 C 0.0533(2) 0.14629(18) -0.14282(19)
C18 C 0.1321(3) 0.1648(2) -0.1699(2)
C19 C 0.1247(3) 0.18703(19) -0.2346(2)
C20 C 0.0363(3) 0.19175(18) -0.27670(19)
C21 C -0.0435(3) 0.17918(18) -0.2522(2)
C22 C -0.1274(3) 0.18768(19) -0.2973(2)
C23 C -0.1304(3) 0.2057(2) -0.3643(2)
C24 C -0.0492(3) 0.2149(2) -0.3870(2)
C25 C 0.3412(3) 0.0373(2) -0.3897(2)
C26 C 0.2997(3) 0.0719(2) -0.4480(2)
C27 C 0.3535(3) 0.0977(2) -0.4914(2)
C28 C 0.4484(2) 0.08620(19) -0.47642(19)
C29 C 0.4859(3) 0.05024(19) -0.41700(19)
C30 C 0.5810(3) 0.0360(2) -0.3996(2)
C31 C 0.6391(3) 0.05693(19) -0.43948(19)
C32 C 0.6043(3) 0.09436(18) -0.49910(19)
C33 C 0.5105(2) 0.10969(18) -0.51896(19)
C34 C 0.4828(3) 0.1473(2) -0.5792(2)
C35 C 0.5457(3) 0.1670(2) -0.6177(2)
C36 C 0.6373(3) 0.1508(2) -0.5959(2)
H1 H 0.661(3) 0.009(3) -0.200(3)
H2 H 0.740(4) 0.041(3) -0.097(3)
H3 H 0.659(3) 0.0772(19) -0.016(2)
H4 H 0.365(3) 0.020(2) -0.203(3)
H5 H 0.278(3) 0.056(2) -0.126(2)
H6 H 0.573(3) 0.109(2) 0.057(2)
H7 H 0.476(3) 0.138(2) 0.131(2)
H8 H 0.314(3) 0.125(2) 0.088(2)
H9 H 0.004(3) 0.086(2) -0.008(2)
H10 H -0.142(3) 0.117(2) -0.062(2)
H11 H -0.167(4) 0.152(3) -0.174(3)
H12 H 0.184(3) 0.164(2) -0.142(2)
H13 H 0.172(3) 0.1981(19) -0.2502(19)
H14 H -0.184(3) 0.181(2) -0.283(2)
H15 H -0.191(4) 0.212(3) -0.392(3)
H16 H -0.045(3) 0.231(2) -0.435(2)
H17 H 0.311(3) 0.017(2) -0.359(2)
H18 H 0.239(3) 0.078(2) -0.452(2)
H19 H 0.329(3) 0.119(2) -0.531(2)
H20 H 0.597(4) 0.010(3) -0.371(3)
H21 H 0.698(3) 0.048(2) -0.430(2)
H22 H 0.420(3) 0.163(2) -0.593(2)
H23 H 0.525(3) 0.195(2) -0.656(3)
H24 H 0.687(3) 0.166(2) -0.623(2)
H25 H 0.074(4) 0.214(3) -0.361(3)
H26 H 0.722(3) 0.102(2) -0.527(2)
Cu1B Cu -0.18836(3) -0.09110(3) 0.03112(2)
Cu2C Cu -0.01508(4) 0.48281(3) 0.22063(3)
O3B O 0.18067(17) -0.02617(13) -0.05721(13)
O22C O 0.48590(17) 0.14378(12) -0.27212(13)
O41 O 0.1659(2) 0.23462(19) -0.40938(16)
H27 H 0.165(6) 0.211(4) -0.448(2)
H28 H 0.219(2) 0.256(3) -0.398(3)
O42 O 0.8371(2) 0.07863(16) -0.49564(17)
H29 H 0.849(6) 0.0369(19) -0.506(5)
H30 H 0.879(3) 0.103(2) -0.511(3)
O43 O 0.6836(4) 0.2482(3) -0.4684(3)
loop_
_geom_bond_atom_site_label_1
_geom_bond_atom_site_label_2
_geom_bond_site_symmetry_1
_geom_bond_site_symmetry_2
Mo1 O1 1_555 1_555
Mo2 O8 1_555 1_555
Mo3 O3 1_555 1_555
Mo4 O2 1_555 1_555
Mo5 O7 1_555 1_555
Mo6 O14 1_555 1_555
Mo7 O13 1_555 1_555
Mo8 O20 1_555 1_555
Mo9 O23 1_555 1_555
Mo10 O21 1_555 1_555
Mo11 O18 1_555 1_555
Mo12 O32 1_555 1_555
Cu1 O1 1_555 1_555
Cu2 N1 1_555 1_555
As1 O12 1_555 1_555
O3 Cu1B 1_555 1_555
O4 Mo1 1_555 1_555
O5 Mo1 1_555 1_555
O6 Mo3 1_555 1_555
O7 Mo1 1_555 1_555
O8 Mo1 1_555 1_555
O9 Mo5 1_555 1_555
O10 Mo2 1_555 1_555
O11 Mo2 1_555 1_555
O12 Mo1 1_555 1_555
O13 Mo2 1_555 1_555
O14 Mo5 1_555 1_555
O15 Mo6 1_555 1_555
O16 Mo7 1_555 1_555
O17 Mo4 1_555 1_555
O18 Mo2 1_555 1_555
O19 Mo3 1_555 1_555
O20 Mo4 1_555 1_555
O21 Mo6 1_555 1_555
O22 Mo6 1_555 1_555
O23 Mo3 1_555 1_555
O24 Mo7 1_555 1_555
O25 Mo7 1_555 1_555
O26 Mo9 1_555 1_555
O27 Mo8 1_555 1_555
O28 Mo5 1_555 1_555
O29 Mo4 1_555 1_555
O30 Mo8 1_555 1_555
O31 Mo10 1_555 1_555
O32 Mo10 1_555 1_555
O33 Mo10 1_555 1_555
O34 Mo11 1_555 1_555
O35 Mo8 1_555 1_555
O36 Mo10 1_555 1_555
O37 Mo12 1_555 1_555
O38 Mo9 1_555 1_555
O39 Mo11 1_555 1_555
O40 Mo3 1_555 1_555
O41 H27 1_555 1_555
O42 H29 1_555 1_555
N1 C1 1_555 1_555
N2 Cu1 1_555 1_555
N3 Cu1 1_555 1_555
N4 C20 1_555 1_555
N5 Cu2 1_555 1_555
N6 C32 1_555 1_555
C1 C2 1_555 1_555
C2 C3 1_555 1_555
C3 C4 1_555 1_555
C4 C5 1_555 1_555
C5 N1 1_555 1_555
C6 C5 1_555 1_555
C7 C6 1_555 1_555
C8 N2 1_555 1_555
C9 C4 1_555 1_555
C10 C9 1_555 1_555
C11 C10 1_555 1_555
C12 N2 1_555 1_555
C13 N3 1_555 1_555
C14 C13 1_555 1_555
C15 C14 1_555 1_555
C16 C15 1_555 1_555
C17 N3 1_555 1_555
C18 C17 1_555 1_555
C19 C18 1_555 1_555
C20 C19 1_555 1_555
C21 C16 1_555 1_555
C22 C21 1_555 1_555
C23 C22 1_555 1_555
C24 N4 1_555 1_555
C25 N5 1_555 1_555
C26 C25 1_555 1_555
C27 C26 1_555 1_555
C28 C27 1_555 1_555
C29 N5 1_555 1_555
C30 C29 1_555 1_555
C31 C30 1_555 1_555
C32 C31 1_555 1_555
C33 C28 1_555 1_555
C34 C33 1_555 1_555
C35 C34 1_555 1_555
C36 N6 1_555 1_555
H1 C1 1_555 1_555
H2 C2 1_555 1_555
H3 C3 1_555 1_555
H4 C6 1_555 1_555
H5 C7 1_555 1_555
H6 C10 1_555 1_555
H7 C11 1_555 1_555
H8 C12 1_555 1_555
H9 C13 1_555 1_555
H10 C14 1_555 1_555
H11 C15 1_555 1_555
H12 C18 1_555 1_555
H13 C19 1_555 1_555
H14 C22 1_555 1_555
H15 C23 1_555 1_555
H16 C24 1_555 1_555
H17 C25 1_555 1_555
H18 C26 1_555 1_555
H19 C27 1_555 1_555
H20 C30 1_555 1_555
H21 C31 1_555 1_555
H22 C34 1_555 1_555
H23 C35 1_555 1_555
H24 C36 1_555 1_555
H25 N4 1_555 1_555
H26 N6 1_555 1_555
H28 O41 1_555 1_555
H30 O42 1_555 1_555
Cu2C O22 1_555 1_555
O3B Cu1 1_555 1_555
O22C Cu2 1_555 1_555
Mo2 O12 1_555 1_555
Mo3 O5 1_555 1_555
Mo4 O4 1_555 1_555
Mo4 O6 1_555 1_555
Mo5 O11 1_555 1_555
Mo5 O12 1_555 1_555
Mo6 O17 1_555 1_555
Mo6 O29 1_555 1_555
Mo7 O19 1_555 1_555
Mo7 O23 1_555 1_555
Mo8 O22 1_555 1_555
Mo8 O29 1_555 1_555
Mo9 O24 1_555 1_555
Mo9 O27 1_555 1_555
Mo9 O40 1_555 1_555
Mo10 O28 1_555 1_555
Mo11 O25 1_555 1_555
Mo11 O32 1_555 1_555
Mo11 O33 1_555 1_555
Mo12 O34 1_555 1_555
Mo12 O35 1_555 1_555
Mo12 O36 1_555 1_555
Mo12 O38 1_555 1_555
As1 O23 1_555 1_555
As1 O29 1_555 1_555
As1 O32 1_555 1_555
C7 C8 1_555 1_555
C8 C9 1_555 1_555
C11 C12 1_555 1_555
C16 C17 1_555 1_555
C20 C21 1_555 1_555
C23 C24 1_555 1_555
C28 C29 1_555 1_555
C32 C33 1_555 1_555
C35 C36 1_555 1_555

#END
