
#######################################################################
#
#                 Cambridge Crystallographic Data Centre
#                                CCDC 
#
#######################################################################
#
# If this CIF has been generated from an entry in the Cambridge 
# Structural Database, then it will include bibliographic, chemical, 
# crystal, experimental, refinement or atomic coordinate data resulting 
# from the CCDC's data processing and validation procedures.
#
#######################################################################

data_FOCMEQ
_symmetry_cell_setting           triclinic
_symmetry_space_group_name_H-M   'P -1'
_symmetry_Int_Tables_number      2
_space_group_name_Hall           '-P 1'
loop_
_symmetry_equiv_pos_site_id
_symmetry_equiv_pos_as_xyz
1 x,y,z
2 -x,-y,-z
_cell_length_a                   8.4963(5)
_cell_length_b                   8.5640(5)
_cell_length_c                   11.1014(7)
_cell_angle_alpha                68.8720(10)
_cell_angle_beta                 89.7480(10)
_cell_angle_gamma                68.6810(10)
_cell_volume                     694.409
loop_
_atom_site_label
_atom_site_type_symbol
_atom_site_fract_x
_atom_site_fract_y
_atom_site_fract_z
Mo1 Mo 0.51672(5) 0.27565(5) 1.09072(3)
As1 As 0.15148(6) 0.60008(6) 0.91277(4)
Cu1 Cu -0.09024(7) 0.47267(7) 0.78974(5)
F1 F 0.5730(3) 0.4455(3) 0.9166(2)
O1 O 0.4475(4) 0.2176(4) 1.2380(3)
O2 O 0.5931(4) 0.0816(4) 1.0646(3)
O3 O 0.2972(4) 0.3804(4) 0.9768(3)
O4 O 0.0218(4) 0.6299(4) 0.7875(3)
O5 O 0.0456(4) 0.6597(4) 1.0259(3)
O6 O 0.2601(4) 0.7359(4) 0.8448(3)
N1 N -0.1698(5) 0.2969(5) 0.7587(3)
N2 N -0.1540(5) 0.5996(5) 0.5966(3)
C1 C -0.1746(6) 0.1443(6) 0.8450(4)
H1 H -0.1356 0.1093 0.9325
C2 C -0.2358(6) 0.0345(6) 0.8091(5)
H2 H -0.2383 -0.0711 0.8721
C3 C -0.2928(6) 0.0840(6) 0.6793(4)
H3 H -0.3334 0.0114 0.6543
C4 C -0.2891(5) 0.2452(6) 0.5846(4)
C5 C -0.3512(6) 0.3144(6) 0.4484(4)
H4 H -0.3946 0.2493 0.4164
C6 C -0.3475(6) 0.4732(6) 0.3659(4)
H5 H -0.3900 0.5162 0.2780
C7 C -0.2798(5) 0.5778(6) 0.4099(4)
C8 C -0.2266(5) 0.3467(6) 0.6305(4)
C9 C -0.2205(5) 0.5136(6) 0.5426(4)
C10 C -0.2689(6) 0.7418(6) 0.3289(4)
H6 H -0.3070 0.7910 0.2397
C11 C -0.2006(6) 0.8290(6) 0.3837(4)
H7 H -0.1914 0.9370 0.3314
C12 C -0.1457(6) 0.7545(6) 0.5177(4)
H8 H -0.1014 0.8158 0.5532
Mo1A Mo 0.48328(5) 0.72435(5) 0.90928(3)
Cu1A Cu 0.09024(7) 0.52733(7) 1.21026(5)
F1A F 0.4270(3) 0.5545(3) 1.0834(2)
O5A O -0.0456(4) 0.3403(4) 0.9741(3)
O6A O 0.7399(4) 0.2641(4) 1.1552(3)
loop_
_geom_bond_atom_site_label_1
_geom_bond_atom_site_label_2
_geom_bond_site_symmetry_1
_geom_bond_site_symmetry_2
Mo1 F1 1_555 1_555
As1 O3 1_555 1_555
Cu1 O4 1_555 1_555
F1 Mo1A 1_555 1_555
O1 Mo1 1_555 1_555
O2 Mo1 1_555 1_555
O3 Mo1 1_555 1_555
O4 As1 1_555 1_555
O5 As1 1_555 1_555
O6 As1 1_555 1_555
N1 Cu1 1_555 1_555
N2 Cu1 1_555 1_555
C1 N1 1_555 1_555
H1 C1 1_555 1_555
C2 C1 1_555 1_555
H2 C2 1_555 1_555
C3 C2 1_555 1_555
H3 C3 1_555 1_555
C4 C3 1_555 1_555
C5 C4 1_555 1_555
H4 C5 1_555 1_555
C6 C5 1_555 1_555
H5 C6 1_555 1_555
C7 C6 1_555 1_555
C8 N1 1_555 1_555
C9 N2 1_555 1_555
C10 C7 1_555 1_555
H6 C10 1_555 1_555
C11 C10 1_555 1_555
H7 C11 1_555 1_555
C12 N2 1_555 1_555
H8 C12 1_555 1_555
Mo1A O6 1_555 1_555
Cu1A O5 1_555 1_555
F1A Mo1 1_555 1_555
O5A Cu1 1_555 1_555
O6A Mo1 1_555 1_555
C4 C8 1_555 1_555
C7 C9 1_555 1_555
C8 C9 1_555 1_555
C11 C12 1_555 1_555
Mo1A F1A 1_555 1_555

#END
