
#######################################################################
#
#                 Cambridge Crystallographic Data Centre
#                                CCDC 
#
#######################################################################
#
# If this CIF has been generated from an entry in the Cambridge 
# Structural Database, then it will include bibliographic, chemical, 
# crystal, experimental, refinement or atomic coordinate data resulting 
# from the CCDC's data processing and validation procedures.
#
#######################################################################

data_FOCMAM
_symmetry_cell_setting           monoclinic
_symmetry_space_group_name_H-M   'P 21/c'
_symmetry_Int_Tables_number      14
_space_group_name_Hall           '-P 2ybc'
loop_
_symmetry_equiv_pos_site_id
_symmetry_equiv_pos_as_xyz
1 x,y,z
2 -x,1/2+y,1/2-z
3 -x,-y,-z
4 x,1/2-y,1/2+z
_cell_length_a                   8.4578(4)
_cell_length_b                   10.5400(5)
_cell_length_c                   17.3648(8)
_cell_angle_alpha                90
_cell_angle_beta                 103.2690(10)
_cell_angle_gamma                90
_cell_volume                     1506.66
loop_
_atom_site_label
_atom_site_type_symbol
_atom_site_fract_x
_atom_site_fract_y
_atom_site_fract_z
Mo1 Mo 0.38693(4) 1.01155(3) 0.40041(2)
As1 As 0.78794(5) 1.05359(4) 0.45212(3)
Cu1 Cu 0.89961(6) 0.76618(4) 0.50807(3)
F1 F 0.5472(3) 0.8941(2) 0.48426(14)
O1 O 0.5995(3) 1.0787(3) 0.39088(17)
O2 O 0.3584(4) 0.9111(3) 0.32190(17)
O3 O 0.2701(4) 1.1391(3) 0.36538(19)
O4 O 0.7672(3) 1.0739(3) 0.54734(17)
O5 O 0.8579(3) 0.9101(3) 0.43820(17)
O6 O 0.9000(4) 1.1713(3) 0.42917(18)
N1 N 0.7254(4) 0.6606(3) 0.4417(2)
N2 N 0.9311(4) 0.6073(3) 0.5718(2)
C1 C 0.6298(5) 0.6967(4) 0.3733(2)
H1 H 0.6381 0.7813 0.3558
C2 C 0.5194(5) 0.6164(4) 0.3269(2)
H2 H 0.4532 0.6456 0.2784
C3 C 0.5054(5) 0.4923(4) 0.3515(2)
C4 C 0.6042(5) 0.4546(4) 0.4234(2)
H3 H 0.5963 0.3709 0.4425
C5 C 0.7144(5) 0.5397(4) 0.4670(2)
C6 C 0.8305(5) 0.5099(4) 0.5431(2)
C7 C 0.8409(5) 0.3941(4) 0.5811(2)
H4 H 0.7697 0.3269 0.5594
C8 C 0.9582(5) 0.3770(4) 0.6521(2)
C9 C 1.0600(5) 0.4784(4) 0.6806(2)
H5 H 1.1406 0.4701 0.7285
C10 C 1.0433(5) 0.5913(4) 0.6391(2)
H6 H 1.1140 0.6598 0.6590
C11 C 0.3866(5) 0.4016(4) 0.3026(3)
H7 H 0.2889 0.3967 0.3238
H8 H 0.4363 0.3173 0.3044
H9 H 0.3571 0.4314 0.2477
C12 C 0.9740(6) 0.2529(4) 0.6951(3)
H10 H 1.0162 0.1887 0.6642
H11 H 0.8672 0.2263 0.7022
H12 H 1.0489 0.2625 0.7469
Mo1B Mo 0.61307(4) 0.98845(3) 0.59959(2)
Cu1B Cu 1.10039(6) 1.23382(4) 0.49193(3)
F1B F 0.4528(3) 1.1059(2) 0.51574(14)
O4B O 0.2328(3) 0.9261(3) 0.45266(17)
O6B O 1.1000(4) 0.8287(3) 0.57083(18)
loop_
_geom_bond_atom_site_label_1
_geom_bond_atom_site_label_2
_geom_bond_site_symmetry_1
_geom_bond_site_symmetry_2
Mo1 F1 1_555 1_555
As1 O1 1_555 1_555
Cu1 O5 1_555 1_555
F1 Mo1B 1_555 1_555
O1 Mo1 1_555 1_555
O2 Mo1 1_555 1_555
O3 Mo1 1_555 1_555
O4 As1 1_555 1_555
O5 As1 1_555 1_555
O6 As1 1_555 1_555
N1 Cu1 1_555 1_555
N2 Cu1 1_555 1_555
C1 N1 1_555 1_555
H1 C1 1_555 1_555
C2 C1 1_555 1_555
H2 C2 1_555 1_555
C3 C2 1_555 1_555
C4 C3 1_555 1_555
H3 C4 1_555 1_555
C5 N1 1_555 1_555
C6 N2 1_555 1_555
C7 C6 1_555 1_555
H4 C7 1_555 1_555
C8 C7 1_555 1_555
C9 C8 1_555 1_555
H5 C9 1_555 1_555
C10 N2 1_555 1_555
H6 C10 1_555 1_555
C11 C3 1_555 1_555
H7 C11 1_555 1_555
H8 C11 1_555 1_555
H9 C11 1_555 1_555
C12 C8 1_555 1_555
H10 C12 1_555 1_555
H11 C12 1_555 1_555
H12 C12 1_555 1_555
Mo1B O4 1_555 1_555
Cu1B O6 1_555 1_555
F1B Mo1 1_555 1_555
O4B Mo1 1_555 1_555
O6B Cu1 1_555 1_555
C4 C5 1_555 1_555
C5 C6 1_555 1_555
C9 C10 1_555 1_555
Mo1B F1B 1_555 1_555

#END
