
#######################################################################
#
#                 Cambridge Crystallographic Data Centre
#                                CCDC 
#
#######################################################################
#
# If this CIF has been generated from an entry in the Cambridge 
# Structural Database, then it will include bibliographic, chemical, 
# crystal, experimental, refinement or atomic coordinate data resulting 
# from the CCDC's data processing and validation procedures.
#
#######################################################################

data_FOCRAS
_symmetry_cell_setting           monoclinic
_symmetry_space_group_name_H-M   'P 21'
_symmetry_Int_Tables_number      4
_space_group_name_Hall           'P 2yb'
loop_
_symmetry_equiv_pos_site_id
_symmetry_equiv_pos_as_xyz
1 x,y,z
2 -x,1/2+y,-z
_cell_length_a                   10.7791(7)
_cell_length_b                   22.9541(16)
_cell_length_c                   24.1692(17)
_cell_angle_alpha                90
_cell_angle_beta                 90.2120(10)
_cell_angle_gamma                90
_cell_volume                     5980.01
loop_
_atom_site_label
_atom_site_type_symbol
_atom_site_fract_x
_atom_site_fract_y
_atom_site_fract_z
O1 O 0.5153(7) 0.6393(3) 0.6464(3)
O2 O 0.2634(7) 0.6287(3) 0.6207(3)
O3 O 0.0147(7) 0.6585(3) 0.6068(3)
O4 O -0.2330(7) 0.6680(3) 0.6348(3)
O5 O 0.6907(10) 0.7363(4) 0.7293(3)
O6 O 0.6099(9) 0.6519(3) 0.7589(3)
C1 C 0.6466(13) 0.7049(5) 0.7667(4)
C2 C 0.6242(11) 0.7300(5) 0.8237(4)
C3 C 0.6497(14) 0.7886(5) 0.8310(5)
H1 H 0.6812 0.8116 0.8016
C4 C 0.6276(15) 0.8125(6) 0.8830(5)
H2 H 0.6431 0.8528 0.8888
C5 C 0.5842(14) 0.7796(7) 0.9256(6)
H3 H 0.5688 0.7971 0.9606
C6 C 0.5623(17) 0.7200(7) 0.9181(6)
H4 H 0.5352 0.6962 0.9479
C7 C 0.5814(14) 0.6967(6) 0.8657(5)
H5 H 0.5641 0.6567 0.8593
O7 O 0.6087(10) 0.7065(5) 0.5326(4)
O8 O 0.4127(9) 0.6791(4) 0.5206(4)
C8 C 0.5127(11) 0.7035(5) 0.5043(4)
C9 C 0.5152(11) 0.7266(5) 0.4461(5)
C10 C 0.6039(13) 0.7667(5) 0.4323(5)
H6 H 0.6616 0.7788 0.4598
C11 C 0.6124(15) 0.7900(6) 0.3802(6)
H7 H 0.6730 0.8189 0.3723
C12 C 0.5317(16) 0.7711(6) 0.3390(5)
H8 H 0.5390 0.7849 0.3021
C13 C 0.4412(14) 0.7320(7) 0.3532(5)
H9 H 0.3843 0.7195 0.3256
C14 C 0.4296(11) 0.7101(6) 0.4064(6)
H10 H 0.3639 0.6843 0.4154
O9 O 0.4435(12) 0.5299(5) 0.6960(6)
O10 O 0.3161(10) 0.5043(5) 0.6293(4)
C15 C 0.3642(15) 0.4964(5) 0.6755(6)
C16 C 0.3143(12) 0.4469(4) 0.7105(5)
C17 C 0.3821(14) 0.4272(6) 0.7551(5)
H11 H 0.4602 0.4442 0.7636
C18 C 0.3351(16) 0.3819(6) 0.7878(7)
H12 H 0.3832 0.3676 0.8179
C19 C 0.2247(17) 0.3587(6) 0.7776(6)
H13 H 0.1946 0.3284 0.8007
C20 C 0.1513(14) 0.3785(6) 0.7328(7)
H14 H 0.0716 0.3626 0.7254
C21 C 0.2012(12) 0.4220(5) 0.7004(5)
H15 H 0.1546 0.4354 0.6695
O11 O 0.3713(11) 0.7422(4) 0.6925(5)
O12 O 0.1760(10) 0.7594(5) 0.6647(4)
C22 C 0.2777(14) 0.7745(5) 0.6865(5)
C23 C 0.2902(12) 0.8358(5) 0.7050(5)
C24 C 0.3783(14) 0.8508(6) 0.7433(6)
H16 H 0.4324 0.8217 0.7574
C25 C 0.3906(19) 0.9080(8) 0.7620(8)
H17 H 0.4508 0.9179 0.7892
C26 C 0.312(2) 0.9505(8) 0.7396(8)
H18 H 0.3165 0.9895 0.7524
C27 C 0.230(2) 0.9364(9) 0.7006(11)
H19 H 0.1822 0.9663 0.6837
C28 C 0.2131(15) 0.8778(7) 0.6834(7)
H20 H 0.1498 0.8679 0.6576
O13 O 0.1924(8) 0.5661(4) 0.5225(3)
O14 O 0.1015(9) 0.6494(4) 0.4937(3)
C29 C 0.1399(12) 0.5978(5) 0.4849(4)
C30 C 0.1172(12) 0.5715(5) 0.4303(4)
C31 C 0.0846(13) 0.6074(5) 0.3861(5)
H21 H 0.0777 0.6483 0.3911
C32 C 0.0623(14) 0.5821(6) 0.3343(5)
H22 H 0.0437 0.6064 0.3035
C33 C 0.0668(15) 0.5225(7) 0.3274(6)
H23 H 0.0462 0.5054 0.2927
C34 C 0.1018(17) 0.4881(6) 0.3718(5)
H24 H 0.1111 0.4473 0.3667
C35 C 0.1234(12) 0.5118(5) 0.4230(5)
H25 H 0.1427 0.4873 0.4535
O15 O 0.1200(10) 0.5838(4) 0.7192(3)
O16 O -0.0794(9) 0.6099(4) 0.7316(4)
C36 C 0.0207(11) 0.5890(6) 0.7480(5)
C37 C 0.0282(11) 0.5692(5) 0.8069(4)
C38 C 0.1186(11) 0.5292(5) 0.8224(5)
H26 H 0.1767 0.5156 0.7958
C39 C 0.1243(14) 0.5087(6) 0.8768(5)
H27 H 0.1837 0.4801 0.8873
C40 C 0.0419(14) 0.5309(6) 0.9152(5)
H28 H 0.0462 0.5176 0.9524
C41 C -0.0449(13) 0.5710(6) 0.9012(6)
H29 H -0.0991 0.5863 0.9285
C42 C -0.0541(11) 0.5896(5) 0.8470(5)
H30 H -0.1172 0.6165 0.8369
O17 O -0.0509(12) 0.7706(5) 0.5480(4)
O18 O -0.1628(10) 0.7872(4) 0.6239(4)
C43 C -0.1313(14) 0.7987(5) 0.5745(6)
C44 C -0.1992(12) 0.8474(5) 0.5465(5)
C45 C -0.1648(14) 0.8658(5) 0.4939(5)
H31 H -0.0923 0.8503 0.4772
C46 C -0.2344(16) 0.9061(5) 0.4662(5)
H32 H -0.2115 0.9183 0.4301
C47 C -0.3386(17) 0.9290(6) 0.4913(8)
H33 H -0.3860 0.9577 0.4724
C48 C -0.3757(17) 0.9112(6) 0.5435(8)
H34 H -0.4480 0.9271 0.5601
C49 C -0.3056(13) 0.8701(5) 0.5709(6)
H35 H -0.3299 0.8571 0.6066
O19 O -0.1145(10) 0.5512(4) 0.5468(5)
O20 O -0.3075(11) 0.5547(5) 0.5806(5)
C50 C -0.2194(12) 0.5277(5) 0.5586(6)
C51 C -0.2354(11) 0.4650(5) 0.5426(5)
C52 C -0.3411(13) 0.4351(6) 0.5626(5)
H36 H -0.3976 0.4547 0.5862
C53 C -0.3619(15) 0.3801(7) 0.5488(6)
H37 H -0.4312 0.3598 0.5634
C54 C -0.2807(14) 0.3523(6) 0.5123(7)
H38 H -0.2955 0.3128 0.5024
C55 C -0.1813(15) 0.3804(7) 0.4907(6)
H39 H -0.1282 0.3614 0.4651
C56 C -0.1585(13) 0.4380(6) 0.5069(6)
H40 H -0.0886 0.4582 0.4928
Pb1 Pb 0.59932(4) 0.729398(17) 0.633537(17)
Pb2 Pb 0.42442(4) 0.587742(17) 0.574458(17)
Pb3 Pb 0.35156(4) 0.638535(18) 0.706156(17)
Pb4 Pb 0.17978(4) 0.706960(18) 0.571560(17)
Pb5 Pb 0.09830(4) 0.566985(17) 0.618784(17)
Pb6 Pb -0.07329(4) 0.708159(18) 0.680147(16)
Pb7 Pb -0.14841(4) 0.656834(18) 0.547140(17)
Pb8 Pb -0.32027(4) 0.590902(17) 0.681868(18)
O1_2 O -0.4847(7) 0.6393(3) 0.6464(3)
O4_2 O 0.7670(7) 0.6680(3) 0.6348(3)
O5_2 O -0.3093(10) 0.7363(4) 0.7293(3)
O6_2 O -0.3901(9) 0.6519(3) 0.7589(3)
O7_2 O -0.3913(10) 0.7065(5) 0.5326(4)
O9_2 O -0.5565(12) 0.5299(5) 0.6960(6)
O18_2 O 0.8372(10) 0.7872(4) 0.6239(4)
Pb1_2 Pb -0.40068(4) 0.729398(17) 0.633537(17)
Pb6_2 Pb 0.92671(4) 0.708159(18) 0.680147(16)
Pb7_2 Pb 0.85159(4) 0.656834(18) 0.547140(17)
Pb8_2 Pb 0.67973(4) 0.590902(17) 0.681868(18)
O21 O 0.7083(8) 0.6424(3) 0.1345(3)
O22 O 0.4560(7) 0.6617(3) 0.1484(3)
O23 O 0.2091(7) 0.6723(3) 0.1147(3)
O24 O -0.0444(7) 0.6528(3) 0.0992(3)
O25 O 0.8493(8) 0.5525(3) 0.0379(3)
O26 O 0.7984(8) 0.5280(4) 0.1245(3)
C57 C 0.8164(11) 0.5159(5) 0.0742(4)
C58 C 0.7938(10) 0.4542(5) 0.0580(5)
C59 C 0.8003(12) 0.4355(5) 0.0023(5)
H41 H 0.8230 0.4625 -0.0257
C60 C 0.7740(14) 0.3784(5) -0.0120(5)
H42 H 0.7801 0.3662 -0.0495
C61 C 0.7385(16) 0.3388(6) 0.0288(6)
H43 H 0.7218 0.2994 0.0194
C62 C 0.7278(16) 0.3575(6) 0.0836(6)
H44 H 0.7022 0.3311 0.1115
C63 C 0.7545(13) 0.4143(5) 0.0967(6)
H45 H 0.7454 0.4265 0.1340
O27 O 0.4409(9) 0.5776(4) 0.2488(4)
O28 O 0.6359(9) 0.6039(4) 0.2366(4)
C64 C 0.5479(12) 0.5884(5) 0.2673(5)
C65 C 0.5712(11) 0.5816(5) 0.3288(4)
C66 C 0.6865(11) 0.5920(6) 0.3489(5)
H46 H 0.7525 0.6038 0.3255
C67 C 0.7035(16) 0.5846(8) 0.4061(6)
H47 H 0.7822 0.5932 0.4219
C68 C 0.6091(16) 0.5651(8) 0.4401(6)
H48 H 0.6249 0.5583 0.4783
C69 C 0.4904(16) 0.5554(6) 0.4182(5)
H49 H 0.4231 0.5435 0.4408
C70 C 0.4764(11) 0.5639(6) 0.3620(5)
H50 H 0.3973 0.5571 0.3457
O29 O 0.5554(9) 0.5992(4) 0.0404(4)
O30 O 0.3615(8) 0.6134(4) 0.0147(4)
C71 C 0.4694(12) 0.5949(5) 0.0053(5)
C72 C 0.4990(10) 0.5700(5) -0.0496(4)
C73 C 0.6171(11) 0.5504(5) -0.0613(5)
H51 H 0.6795 0.5529 -0.0335
C74 C 0.6475(14) 0.5270(6) -0.1134(5)
H52 H 0.7284 0.5125 -0.1205
C75 C 0.5569(14) 0.5256(7) -0.1540(6)
H53 H 0.5746 0.5093 -0.1892
C76 C 0.4391(13) 0.5481(7) -0.1430(5)
H54 H 0.3781 0.5495 -0.1714
C77 C 0.4118(12) 0.5683(6) -0.0910(5)
H55 H 0.3300 0.5815 -0.0834
O31 O 0.2823(10) 0.5480(4) 0.1445(4)
O32 O 0.0787(8) 0.5397(4) 0.1345(4)
C78 C 0.1796(12) 0.5221(5) 0.1539(5)
C79 C 0.1748(12) 0.4705(5) 0.1909(5)
C80 C 0.0695(16) 0.4361(7) 0.1938(6)
H56 H 0.0000 0.4442 0.1707
C81 C 0.0665(17) 0.3898(6) 0.2306(6)
H57 H -0.0046 0.3654 0.2310
C82 C 0.1606(18) 0.3781(6) 0.2658(7)
H58 H 0.1535 0.3479 0.2925
C83 C 0.2661(16) 0.4107(6) 0.2622(5)
H59 H 0.3346 0.4012 0.2853
C84 C 0.2769(13) 0.4575(6) 0.2257(6)
H60 H 0.3507 0.4801 0.2243
O33 O 0.3523(8) 0.7563(4) 0.2137(4)
O34 O 0.2947(8) 0.7884(3) 0.1310(3)
C85 C 0.3105(12) 0.7945(5) 0.1818(5)
C86 C 0.2654(11) 0.8515(5) 0.2069(5)
C87 C 0.2975(14) 0.8672(5) 0.2614(6)
H61 H 0.3520 0.8432 0.2823
C88 C 0.2493(16) 0.9177(6) 0.2847(6)
H62 H 0.2696 0.9275 0.3218
C89 C 0.1746(13) 0.9529(6) 0.2552(6)
H63 H 0.1421 0.9873 0.2715
C90 C 0.1449(13) 0.9389(5) 0.2008(6)
H64 H 0.0947 0.9645 0.1794
C91 C 0.1885(11) 0.8875(5) 0.1779(5)
H65 H 0.1644 0.8772 0.1413
O35 O 0.1376(8) 0.7108(4) 0.0143(3)
O36 O -0.0563(9) 0.7370(4) -0.0010(3)
C92 C 0.0500(12) 0.7246(6) -0.0179(5)
C93 C 0.0777(11) 0.7245(5) -0.0798(4)
C94 C -0.0162(12) 0.7454(5) -0.1157(5)
H66 H -0.0940 0.7584 -0.1021
C95 C 0.0112(14) 0.7461(6) -0.1721(5)
H67 H -0.0491 0.7596 -0.1978
C96 C 0.1263(15) 0.7271(7) -0.1909(5)
H68 H 0.1440 0.7293 -0.2293
C97 C 0.2156(14) 0.7050(6) -0.1554(5)
H69 H 0.2923 0.6908 -0.1692
C98 C 0.1901(12) 0.7041(5) -0.0994(5)
H70 H 0.2502 0.6894 -0.0742
O37 O 0.0620(9) 0.7182(4) 0.2086(3)
O38 O -0.1380(9) 0.7063(4) 0.2274(4)
C99 C -0.0295(13) 0.7206(5) 0.2418(5)
C100 C -0.0081(10) 0.7374(5) 0.2998(4)
C101 C 0.1089(12) 0.7600(5) 0.3151(5)
H71 H 0.1728 0.7644 0.2884
C102 C 0.1287(12) 0.7757(5) 0.3697(5)
H72 H 0.2073 0.7908 0.3803
C103 C 0.0359(12) 0.7700(6) 0.4099(5)
H73 H 0.0503 0.7821 0.4469
C104 C -0.0743(14) 0.7470(6) 0.3947(5)
H74 H -0.1358 0.7403 0.4221
C105 C -0.0996(12) 0.7327(5) 0.3393(5)
H75 H -0.1801 0.7197 0.3290
O39 O 0.7849(8) 0.7647(4) 0.0999(4)
O40 O 0.5820(8) 0.7760(4) 0.1094(4)
C106 C 0.6879(11) 0.7922(5) 0.0909(5)
C107 C 0.6880(11) 0.8456(5) 0.0540(5)
C108 C 0.5851(13) 0.8779(5) 0.0479(5)
H76 H 0.5124 0.8678 0.0679
C109 C 0.5828(16) 0.9261(6) 0.0128(6)
H77 H 0.5084 0.9477 0.0077
C110 C 0.6913(16) 0.9424(6) -0.0148(6)
H78 H 0.6916 0.9755 -0.0384
C111 C 0.7980(15) 0.9100(5) -0.0074(6)
H79 H 0.8717 0.9209 -0.0261
C112 C 0.7987(12) 0.8610(5) 0.0276(5)
H80 H 0.8723 0.8390 0.0331
Pb9 Pb 0.78102(4) 0.659002(19) 0.048143(17)
Pb10 Pb 0.54924(4) 0.573871(17) 0.141089(17)
Pb11 Pb 0.62050(4) 0.712418(18) 0.187661(17)
Pb12 Pb 0.38079(4) 0.708768(18) 0.073349(16)
Pb13 Pb 0.27988(4) 0.653771(18) 0.200507(17)
Pb14 Pb 0.12309(4) 0.603642(18) 0.059289(17)
Pb15 Pb 0.04721(4) 0.740960(17) 0.107723(17)
Pb16 Pb -0.11834(4) 0.607046(18) 0.176314(16)
O21_2 O -0.2917(8) 0.6424(3) 0.1345(3)
O24_2 O 0.9556(7) 0.6528(3) 0.0992(3)
O26_2 O -0.2016(8) 0.5280(4) 0.1245(3)
O36_2 O 0.9437(9) 0.7370(4) -0.0010(3)
O38_2 O 0.8620(9) 0.7063(4) 0.2274(4)
O39_2 O -0.2151(8) 0.7647(4) 0.0999(4)
Pb9_2 Pb -0.21898(4) 0.659002(19) 0.048143(17)
Pb11_2 Pb -0.37950(4) 0.712418(18) 0.187661(17)
Pb15_2 Pb 1.04721(4) 0.740960(17) 0.107723(17)
Pb16_2 Pb 0.88166(4) 0.607046(18) 0.176314(16)
loop_
_geom_bond_atom_site_label_1
_geom_bond_atom_site_label_2
_geom_bond_site_symmetry_1
_geom_bond_site_symmetry_2
O1 Pb1 1_555 1_555
O2 Pb2 1_555 1_555
O3 Pb4 1_555 1_555
O4 Pb6 1_555 1_555
O5 C1 1_555 1_555
O6 C1 1_555 1_555
C1 C2 1_555 1_555
C2 C3 1_555 1_555
C3 H1 1_555 1_555
C4 C3 1_555 1_555
H2 C4 1_555 1_555
C5 C4 1_555 1_555
H3 C5 1_555 1_555
C6 C5 1_555 1_555
H4 C6 1_555 1_555
C7 C2 1_555 1_555
H5 C7 1_555 1_555
O7 C8 1_555 1_555
O8 C8 1_555 1_555
C8 C9 1_555 1_555
C9 C10 1_555 1_555
C10 H6 1_555 1_555
C11 C10 1_555 1_555
H7 C11 1_555 1_555
C12 C11 1_555 1_555
H8 C12 1_555 1_555
C13 C12 1_555 1_555
H9 C13 1_555 1_555
C14 C9 1_555 1_555
H10 C14 1_555 1_555
O9 C15 1_555 1_555
O10 C15 1_555 1_555
C15 C16 1_555 1_555
C16 C17 1_555 1_555
C17 H11 1_555 1_555
C18 C17 1_555 1_555
H12 C18 1_555 1_555
C19 C18 1_555 1_555
H13 C19 1_555 1_555
C20 C19 1_555 1_555
H14 C20 1_555 1_555
C21 C16 1_555 1_555
H15 C21 1_555 1_555
O11 C22 1_555 1_555
O12 C22 1_555 1_555
C22 C23 1_555 1_555
C23 C24 1_555 1_555
C24 H16 1_555 1_555
C25 C24 1_555 1_555
H17 C25 1_555 1_555
C26 C25 1_555 1_555
H18 C26 1_555 1_555
C27 C26 1_555 1_555
H19 C27 1_555 1_555
C28 C23 1_555 1_555
H20 C28 1_555 1_555
O13 C29 1_555 1_555
O14 C29 1_555 1_555
C29 C30 1_555 1_555
C30 C31 1_555 1_555
C31 H21 1_555 1_555
C32 C31 1_555 1_555
H22 C32 1_555 1_555
C33 C32 1_555 1_555
H23 C33 1_555 1_555
C34 C33 1_555 1_555
H24 C34 1_555 1_555
C35 C30 1_555 1_555
H25 C35 1_555 1_555
O15 C36 1_555 1_555
O16 C36 1_555 1_555
C36 C37 1_555 1_555
C37 C38 1_555 1_555
C38 H26 1_555 1_555
C39 C38 1_555 1_555
H27 C39 1_555 1_555
C40 C39 1_555 1_555
H28 C40 1_555 1_555
C41 C40 1_555 1_555
H29 C41 1_555 1_555
C42 C37 1_555 1_555
H30 C42 1_555 1_555
O17 C43 1_555 1_555
O18 C43 1_555 1_555
C43 C44 1_555 1_555
C44 C45 1_555 1_555
C45 H31 1_555 1_555
C46 C45 1_555 1_555
H32 C46 1_555 1_555
C47 C46 1_555 1_555
H33 C47 1_555 1_555
C48 C47 1_555 1_555
H34 C48 1_555 1_555
C49 C44 1_555 1_555
H35 C49 1_555 1_555
O19 C50 1_555 1_555
O20 C50 1_555 1_555
C50 C51 1_555 1_555
C51 C52 1_555 1_555
C52 H36 1_555 1_555
C53 C52 1_555 1_555
H37 C53 1_555 1_555
C54 C53 1_555 1_555
H38 C54 1_555 1_555
C55 C54 1_555 1_555
H39 C55 1_555 1_555
C56 C51 1_555 1_555
H40 C56 1_555 1_555
Pb1 O5 1_555 1_555
Pb2 O1 1_555 1_555
Pb3 O1 1_555 1_555
Pb4 O2 1_555 1_555
Pb5 O2 1_555 1_555
Pb6 O3 1_555 1_555
Pb7 O3 1_555 1_555
Pb8 O4 1_555 1_555
O21 Pb9 1_555 1_555
O22 Pb10 1_555 1_555
O23 Pb12 1_555 1_555
O24 Pb14 1_555 1_555
O25 C57 1_555 1_555
O26 C57 1_555 1_555
C57 C58 1_555 1_555
C58 C59 1_555 1_555
C59 H41 1_555 1_555
C60 C59 1_555 1_555
H42 C60 1_555 1_555
C61 C60 1_555 1_555
H43 C61 1_555 1_555
C62 C61 1_555 1_555
H44 C62 1_555 1_555
C63 C58 1_555 1_555
H45 C63 1_555 1_555
O27 C64 1_555 1_555
O28 C64 1_555 1_555
C64 C65 1_555 1_555
C65 C66 1_555 1_555
C66 H46 1_555 1_555
C67 C66 1_555 1_555
H47 C67 1_555 1_555
C68 C67 1_555 1_555
H48 C68 1_555 1_555
C69 C68 1_555 1_555
H49 C69 1_555 1_555
C70 C65 1_555 1_555
H50 C70 1_555 1_555
O29 C71 1_555 1_555
O30 C71 1_555 1_555
C71 C72 1_555 1_555
C72 C73 1_555 1_555
C73 H51 1_555 1_555
C74 C73 1_555 1_555
H52 C74 1_555 1_555
C75 C74 1_555 1_555
H53 C75 1_555 1_555
C76 C75 1_555 1_555
H54 C76 1_555 1_555
C77 C72 1_555 1_555
H55 C77 1_555 1_555
O31 C78 1_555 1_555
O32 C78 1_555 1_555
C78 C79 1_555 1_555
C79 C80 1_555 1_555
C80 H56 1_555 1_555
C81 C80 1_555 1_555
H57 C81 1_555 1_555
C82 C81 1_555 1_555
H58 C82 1_555 1_555
C83 C82 1_555 1_555
H59 C83 1_555 1_555
C84 C79 1_555 1_555
H60 C84 1_555 1_555
O33 C85 1_555 1_555
O34 C85 1_555 1_555
C85 C86 1_555 1_555
C86 C87 1_555 1_555
C87 H61 1_555 1_555
C88 C87 1_555 1_555
H62 C88 1_555 1_555
C89 C88 1_555 1_555
H63 C89 1_555 1_555
C90 C89 1_555 1_555
H64 C90 1_555 1_555
C91 C86 1_555 1_555
H65 C91 1_555 1_555
O35 C92 1_555 1_555
O36 C92 1_555 1_555
C92 C93 1_555 1_555
C93 C94 1_555 1_555
C94 H66 1_555 1_555
C95 C94 1_555 1_555
H67 C95 1_555 1_555
C96 C95 1_555 1_555
H68 C96 1_555 1_555
C97 C96 1_555 1_555
H69 C97 1_555 1_555
C98 C93 1_555 1_555
H70 C98 1_555 1_555
O37 C99 1_555 1_555
O38 C99 1_555 1_555
C99 C100 1_555 1_555
C100 C101 1_555 1_555
C101 H71 1_555 1_555
C102 C101 1_555 1_555
H72 C102 1_555 1_555
C103 C102 1_555 1_555
H73 C103 1_555 1_555
C104 C103 1_555 1_555
H74 C104 1_555 1_555
C105 C100 1_555 1_555
H75 C105 1_555 1_555
O39 C106 1_555 1_555
O40 C106 1_555 1_555
C106 C107 1_555 1_555
C107 C108 1_555 1_555
C108 H76 1_555 1_555
C109 C108 1_555 1_555
H77 C109 1_555 1_555
C110 C109 1_555 1_555
H78 C110 1_555 1_555
C111 C110 1_555 1_555
H79 C111 1_555 1_555
C112 C107 1_555 1_555
H80 C112 1_555 1_555
Pb9 O25 1_555 1_555
Pb10 O21 1_555 1_555
Pb11 O21 1_555 1_555
Pb12 O22 1_555 1_555
Pb13 O22 1_555 1_555
Pb14 O23 1_555 1_555
Pb15 O23 1_555 1_555
Pb16 O24 1_555 1_555
O1_2 Pb8 1_555 1_555
O4_2 Pb1 1_555 1_555
O5_2 Pb6 1_555 1_555
O6_2 Pb8 1_555 1_555
O7_2 Pb7 1_555 1_555
O9_2 Pb8 1_555 1_555
O18_2 Pb1 1_555 1_555
Pb1_2 O4 1_555 1_555
Pb6_2 O5 1_555 1_555
Pb7_2 O7 1_555 1_555
Pb8_2 O1 1_555 1_555
O21_2 Pb16 1_555 1_555
O24_2 Pb9 1_555 1_555
O26_2 Pb16 1_555 1_555
O36_2 Pb9 1_555 1_555
O38_2 Pb11 1_555 1_555
O39_2 Pb15 1_555 1_555
Pb9_2 O24 1_555 1_555
Pb11_2 O38 1_555 1_555
Pb15_2 O39 1_555 1_555
Pb16_2 O21 1_555 1_555
O2 Pb3 1_555 1_555
O3 Pb5 1_555 1_555
O4 Pb7 1_555 1_555
O6 Pb8_2 1_555 1_555
C6 C7 1_555 1_555
O7 Pb1 1_555 1_555
O8 Pb2 1_555 1_555
O8 Pb4 1_555 1_555
C13 C14 1_555 1_555
O9 Pb3 1_555 1_555
O9 Pb8_2 1_555 1_555
O10 Pb2 1_555 1_555
O10 Pb5 1_555 1_555
C20 C21 1_555 1_555
O11 Pb1 1_555 1_555
O11 Pb3 1_555 1_555
O12 Pb4 1_555 1_555
C27 C28 1_555 1_555
O13 Pb2 1_555 1_555
O13 Pb5 1_555 1_555
O14 Pb4 1_555 1_555
C34 C35 1_555 1_555
O15 Pb3 1_555 1_555
O15 Pb5 1_555 1_555
O16 Pb6 1_555 1_555
O16 Pb8 1_555 1_555
C41 C42 1_555 1_555
O17 Pb7 1_555 1_555
O18 Pb6 1_555 1_555
O18 Pb1_2 1_555 1_555
C48 C49 1_555 1_555
O19 Pb5 1_555 1_555
O19 Pb7 1_555 1_555
O20 Pb8 1_555 1_555
C55 C56 1_555 1_555
O22 Pb11 1_555 1_555
O23 Pb13 1_555 1_555
O24 Pb15 1_555 1_555
O26 Pb10 1_555 1_555
O26 Pb16_2 1_555 1_555
C62 C63 1_555 1_555
O27 Pb10 1_555 1_555
O27 Pb13 1_555 1_555
O28 Pb10 1_555 1_555
O28 Pb11 1_555 1_555
C69 C70 1_555 1_555
O29 Pb9 1_555 1_555
O29 Pb10 1_555 1_555
O30 Pb12 1_555 1_555
O30 Pb14 1_555 1_555
C76 C77 1_555 1_555
O31 Pb13 1_555 1_555
O32 Pb14 1_555 1_555
O32 Pb16 1_555 1_555
C83 C84 1_555 1_555
O33 Pb13 1_555 1_555
O34 Pb12 1_555 1_555
C90 C91 1_555 1_555
O35 Pb14 1_555 1_555
O35 Pb15 1_555 1_555
O36 Pb15 1_555 1_555
O36 Pb9_2 1_555 1_555
C97 C98 1_555 1_555
O37 Pb13 1_555 1_555
O37 Pb15 1_555 1_555
O38 Pb16 1_555 1_555
C104 C105 1_555 1_555
O39 Pb9 1_555 1_555
O40 Pb11 1_555 1_555
O40 Pb12 1_555 1_555
C111 C112 1_555 1_555
O1_2 Pb1_2 1_555 1_555
O4_2 Pb6_2 1_555 1_555
O4_2 Pb7_2 1_555 1_555
O4_2 Pb8_2 1_555 1_555
O5_2 Pb1_2 1_555 1_555
O7_2 Pb1_2 1_555 1_555
O18_2 Pb6_2 1_555 1_555
O21_2 Pb9_2 1_555 1_555
O21_2 Pb11_2 1_555 1_555
O24_2 Pb15_2 1_555 1_555
O24_2 Pb16_2 1_555 1_555
O36_2 Pb15_2 1_555 1_555
O38_2 Pb16_2 1_555 1_555
O39_2 Pb9_2 1_555 1_555

#END
