
#######################################################################
#
#                 Cambridge Crystallographic Data Centre
#                                CCDC 
#
#######################################################################
#
# If this CIF has been generated from an entry in the Cambridge 
# Structural Database, then it will include bibliographic, chemical, 
# crystal, experimental, refinement or atomic coordinate data resulting 
# from the CCDC's data processing and validation procedures.
#
#######################################################################

data_FOCSUN
_symmetry_cell_setting           triclinic
_symmetry_space_group_name_H-M   'P -1'
_symmetry_Int_Tables_number      2
_space_group_name_Hall           '-P 1'
loop_
_symmetry_equiv_pos_site_id
_symmetry_equiv_pos_as_xyz
1 x,y,z
2 -x,-y,-z
_cell_length_a                   7.4434(8)
_cell_length_b                   7.9047(9)
_cell_length_c                   11.4650(9)
_cell_angle_alpha                100.0218(24)
_cell_angle_beta                 100.7817(22)
_cell_angle_gamma                113.8686(30)
_cell_volume                     582.11
loop_
_atom_site_label
_atom_site_type_symbol
_atom_site_fract_x
_atom_site_fract_y
_atom_site_fract_z
Cu1 Cu 1.00000 0.50000 0.50000
S1 S 1.26389(16) 0.49271(16) 0.28815(10)
O1 O 1.0797(4) 0.8247(4) 0.5453(3)
O2 O 1.2061(6) 0.2937(5) 0.2361(3)
O3 O 0.8552(5) 0.6419(5) 0.2552(3)
O4 O 1.4510(4) 0.5935(5) 0.3879(3)
N1 N 1.0779(5) 0.5249(5) 0.3273(3)
N2 N 1.2914(5) 0.6221(5) 0.5993(3)
H1 H 1.2985 0.5823 0.6682
H2 H 1.3609 0.5797 0.5556
C1 C 1.1271(6) 0.6719(6) 0.1632(4)
C2 C 1.2779(6) 0.6142(6) 0.1725(4)
C3 C 1.0039(6) 0.6128(6) 0.2521(4)
C4 C 1.3817(8) 0.7457(8) 0.0144(4)
H3 H 1.4677 0.7718 -0.0364
C5 C 1.2562(8) 0.9193(7) 0.6490(5)
H4 H 1.2165 0.9063 0.7241
H5 H 1.3248 1.0554 0.6546
C6 C 0.9551(7) 0.9232(6) 0.5324(4)
H6 H 0.9523 0.9823 0.6131
H7 H 0.8157 0.8324 0.4843
C7 C 1.4096(7) 0.6492(7) 0.0997(4)
H8 H 1.5121 0.6097 0.1078
C8 C 1.2302(8) 0.8049(7) 0.0018(4)
H9 H 1.2164 0.8704 -0.0565
C9 C 1.0975(8) 0.7676(7) 0.0757(4)
H10 H 0.9935 0.8052 0.067
C10 C 1.3946(8) 0.8342(7) 0.6358(5)
H11 H 1.50000 0.88 0.7137
H12 H 1.4614 0.8777 0.5742
O1A O 0.9203(4) 1.1753(4) 0.4547(3)
N2A N 0.7086(5) 1.3779(5) 0.4007(3)
H1A H 0.7015 1.4177 0.3318
H2A H 0.6391 1.4203 0.4444
C5A C 0.7438(8) 1.0807(7) 0.3510(5)
H4A H 0.7835 1.0937 0.2759
H5A H 0.6752 0.9446 0.3454
C6A C 1.0449(7) 1.0768(6) 0.4676(4)
H6A H 1.0477 1.0177 0.3869
H7A H 1.1843 1.1676 0.5157
C10A C 0.6054(8) 1.1658(7) 0.3642(5)
H11A H 0.50000 1.12 0.2863
H12A H 0.5386 1.1223 0.4258
S1A S 0.73611(16) 0.50729(16) 0.71185(10)
O2A O 0.7939(6) 0.7063(5) 0.7639(3)
O3A O 1.1448(5) 0.3581(5) 0.7448(3)
O4A O 0.5490(4) 0.4065(5) 0.6121(3)
N1A N 0.9221(5) 0.4751(5) 0.6727(3)
C1A C 0.8729(6) 0.3281(6) 0.8368(4)
C2A C 0.7221(6) 0.3858(6) 0.8275(4)
C3A C 0.9961(6) 0.3872(6) 0.7479(4)
C4A C 0.6183(8) 0.2543(8) 0.9856(4)
H3A H 0.5323 0.2282 1.0364
C7A C 0.5904(7) 0.3508(7) 0.9003(4)
H8A H 0.4879 0.3903 0.8922
C8A C 0.7698(8) 0.1951(7) 0.9982(4)
H9A H 0.7836 0.1296 1.0565
C9A C 0.9025(8) 0.2324(7) 0.9243(4)
H10A H 1.0065 0.1948 0.933
Cu1_2 Cu 1.00000 1.50000 0.50000
O1A_2 O 0.9203(4) 0.1753(4) 0.4547(3)
N2A_2 N 0.7086(5) 0.3779(5) 0.4007(3)
loop_
_geom_bond_atom_site_label_1
_geom_bond_atom_site_label_2
_geom_bond_site_symmetry_1
_geom_bond_site_symmetry_2
Cu1 O1 1_555 1_555
S1 O2 1_555 1_555
O1 C5 1_555 1_555
O3 C3 1_555 1_555
O4 S1 1_555 1_555
N1 Cu1 1_555 1_555
N2 Cu1 1_555 1_555
H1 N2 1_555 1_555
H2 N2 1_555 1_555
C1 C2 1_555 1_555
C2 S1 1_555 1_555
C3 N1 1_555 1_555
C4 H3 1_555 1_555
C5 H4 1_555 1_555
H5 C5 1_555 1_555
C6 O1 1_555 1_555
H6 C6 1_555 1_555
H7 C6 1_555 1_555
C7 C2 1_555 1_555
H8 C7 1_555 1_555
C8 C4 1_555 1_555
H9 C8 1_555 1_555
C9 C1 1_555 1_555
H10 C9 1_555 1_555
C10 N2 1_555 1_555
H11 C10 1_555 1_555
H12 C10 1_555 1_555
O1A C5A 1_555 1_555
N2A H1A 1_555 1_555
H2A N2A 1_555 1_555
C5A H4A 1_555 1_555
H5A C5A 1_555 1_555
C6A C6 1_555 1_555
H6A C6A 1_555 1_555
H7A C6A 1_555 1_555
C10A N2A 1_555 1_555
H11A C10A 1_555 1_555
H12A C10A 1_555 1_555
S1A O2A 1_555 1_555
O3A C3A 1_555 1_555
O4A S1A 1_555 1_555
N1A Cu1 1_555 1_555
C1A C2A 1_555 1_555
C2A S1A 1_555 1_555
C3A N1A 1_555 1_555
C4A H3A 1_555 1_555
C7A C2A 1_555 1_555
H8A C7A 1_555 1_555
C8A C4A 1_555 1_555
H9A C8A 1_555 1_555
C9A C1A 1_555 1_555
H10A C9A 1_555 1_555
Cu1_2 O1A 1_555 1_555
O1A_2 Cu1 1_555 1_555
N2A_2 Cu1 1_555 1_555
S1 N1 1_555 1_555
C1 C3 1_555 1_555
C4 C7 1_555 1_555
C5 C10 1_555 1_555
C8 C9 1_555 1_555
O1A C6A 1_555 1_555
N2A Cu1_2 1_555 1_555
C5A C10A 1_555 1_555
S1A N1A 1_555 1_555
C1A C3A 1_555 1_555
C4A C7A 1_555 1_555
C8A C9A 1_555 1_555

#END
