
#######################################################################
#
#                 Cambridge Crystallographic Data Centre
#                                CCDC 
#
#######################################################################
#
# If this CIF has been generated from an entry in the Cambridge 
# Structural Database, then it will include bibliographic, chemical, 
# crystal, experimental, refinement or atomic coordinate data resulting 
# from the CCDC's data processing and validation procedures.
#
#######################################################################

data_FOCTUO
_symmetry_cell_setting           monoclinic
_symmetry_space_group_name_H-M   'C 2/c'
_symmetry_Int_Tables_number      15
_space_group_name_Hall           '-C 2yn'
loop_
_symmetry_equiv_pos_site_id
_symmetry_equiv_pos_as_xyz
1 x,y,z
2 -x,y,1/2-z
3 1/2+x,1/2+y,z
4 1/2-x,1/2+y,1/2-z
5 -x,-y,-z
6 x,-y,1/2+z
7 1/2-x,1/2-y,-z
8 1/2+x,1/2-y,1/2+z
_cell_length_a                   33.1540(5)
_cell_length_b                   16.0516(2)
_cell_length_c                   14.9568(2)
_cell_angle_alpha                90
_cell_angle_beta                 108.3080(10)
_cell_angle_gamma                90
_cell_volume                     7556.73
loop_
_atom_site_label
_atom_site_type_symbol
_atom_site_fract_x
_atom_site_fract_y
_atom_site_fract_z
O5 O 0.1456(4) 0.3046(7) 0.8565(10)
O6 O 0.0954(8) 0.4121(13) 0.856(3)
O7 O 0.1452(3) 0.4302(7) 0.7709(10)
N7 N 0.1294(4) 0.3823(6) 0.8280(10)
O8 O 0.0606(4) 0.2721(8) 0.9073(8)
H33 H 0.0601 0.2199 0.9043
C31 C 0.0185(12) 0.304(2) 0.871(3)
H34 H 0.0138 0.3463 0.9130
H35 H -0.0019 0.2580 0.8650
H36 H 0.0144 0.3280 0.8083
O9 O 0.5806(6) 0.075(2) 0.864(3)
H37 H 0.6034 0.0557 0.8596
C32 C 0.556(2) 0.105(3) 0.784(5)
H38 H 0.5513 0.1650 0.7906
H39 H 0.5281 0.0766 0.7667
H40 H 0.5687 0.0964 0.7343
O10 O 0.0573(10) 0.482(3) 0.606(4)
H41 H 0.0468 0.4758 0.6501
H42 H 0.0393 0.4687 0.5548
O11 O 0.5347(16) 0.054(3) 0.940(5)
H43 H 0.5098 0.0719 0.9156
H44 H 0.5604 0.0684 0.9608
Ag1 Ag 0.226209(19) 0.11783(3) 0.30243(4)
Ag2 Ag 0.51301(8) 0.5245(2) 1.0066(2)
O1 O 0.2868(2) 0.2059(4) 0.4177(4)
O2 O 0.4293(3) 0.4143(6) 0.8104(5)
O3 O 0.29103(16) 0.5051(3) 0.4280(4)
O4 O 0.26843(18) 0.1144(3) 0.1861(4)
H1 H 0.2938 0.1043 0.1899
H2 H 0.2524 0.0794 0.1503
N1 N 0.2313(2) -0.0155(4) 0.3401(4)
N2 N 0.3405(2) 0.1271(4) 0.5060(5)
H3 H 0.3647 0.1250 0.5520
N3 N 0.5426(4) 0.3949(10) 1.0489(8)
N4 N 0.4404(2) 0.2779(6) 0.8002(5)
H4 H 0.4345 0.2312 0.7679
N5 N 0.30637(18) 0.7349(4) 0.2542(4)
N6 N 0.3481(2) 0.5758(4) 0.5221(4)
H5 H 0.3709 0.5735 0.5718
C1 C 0.2079(3) -0.0708(5) 0.2782(5)
H6 H 0.1883 -0.0505 0.2216
C2 C 0.2111(3) -0.1557(5) 0.2926(6)
H7 H 0.1940 -0.1929 0.2468
C3 C 0.2396(3) -0.1856(5) 0.3751(6)
H8 H 0.2424 -0.2437 0.3874
C4 C 0.2636(3) -0.1295(5) 0.4386(6)
H9 H 0.2834 -0.1486 0.4957
C5 C 0.2589(2) -0.0440(4) 0.4198(5)
C6 C 0.2854(3) 0.0192(5) 0.4871(5)
H10 H 0.2969 -0.0063 0.5503
H11 H 0.2672 0.0667 0.4921
C7 C 0.3222(3) 0.0515(5) 0.4562(6)
H12 H 0.3445 0.0080 0.4680
H13 H 0.3120 0.0628 0.3876
C8 C 0.3204(2) 0.1999(4) 0.4819(5)
C9 C 0.3401(2) 0.2763(4) 0.5364(5)
C10 C 0.3720(2) 0.2732(5) 0.6243(5)
H14 H 0.3820 0.2210 0.6526
C11 C 0.5694(6) 0.3977(10) 1.1379(9)
H15 H 0.5704 0.4468 1.1740
C12 C 0.5950(3) 0.3326(7) 1.1778(7)
H16 H 0.6125 0.3358 1.2416
C13 C 0.5953(3) 0.2641(7) 1.1269(7)
H17 H 0.6130 0.2183 1.1544
C14 C 0.5699(3) 0.2606(8) 1.0348(7)
H18 H 0.5704 0.2128 0.9977
C15 C 0.5439(3) 0.3263(11) 0.9964(7)
C16 C 0.5146(3) 0.3236(14) 0.8964(7)
H19 H 0.5279 0.2916 0.8565
H20 H 0.5088 0.3808 0.8708
C17 C 0.4722(3) 0.2810(12) 0.8961(8)
H21 H 0.4783 0.2236 0.9208
H22 H 0.4600 0.3121 0.9387
C18 C 0.4217(3) 0.3492(7) 0.7662(6)
C19 C 0.3888(2) 0.3476(5) 0.6699(5)
C20 C 0.3741(2) 0.4236(5) 0.6278(5)
H23 H 0.3856 0.4740 0.6588
C21 C 0.2935(3) 0.8066(5) 0.2053(6)
H24 H 0.2698 0.8043 0.1494
C22 C 0.3128(3) 0.8822(5) 0.2326(6)
H25 H 0.3028 0.9309 0.1965
C23 C 0.3471(3) 0.8856(5) 0.3136(6)
H26 H 0.3614 0.9368 0.3338
C24 C 0.3603(3) 0.8144(5) 0.3647(6)
H27 H 0.3837 0.8162 0.4210
C25 C 0.3395(2) 0.7395(4) 0.3344(5)
C26 C 0.3527(2) 0.6605(5) 0.3902(5)
H28 H 0.3841 0.6577 0.4139
H29 H 0.3424 0.6121 0.3481
C27 C 0.3356(3) 0.6543(5) 0.4729(6)
H30 H 0.3467 0.7011 0.5168
H31 H 0.3042 0.6585 0.4500
C28 C 0.3250(2) 0.5066(4) 0.4923(5)
C29 C 0.3430(2) 0.4263(4) 0.5413(5)
C30 C 0.3258(2) 0.3528(5) 0.4965(5)
H32 H 0.3039 0.3550 0.4377
Ag1C Ag 0.273791(19) 0.61783(3) 0.19757(4)
Ag2D Ag 0.48699(8) 0.4755(2) 0.9934(2)
N3D N 0.4574(4) 0.6051(10) 0.9511(8)
N5C N 0.19363(18) 0.2349(4) 0.2458(4)
O12? O 0.4423(3) 0.5797(8) 0.6173(7)
O13? O 0.5000 0.5345(9) 0.7500
O14? O 0.4873(5) 0.6801(8) 0.7192(15)
N8? N 0.4776(5) 0.5973(7) 0.6932(10)
loop_
_geom_bond_atom_site_label_1
_geom_bond_atom_site_label_2
_geom_bond_site_symmetry_1
_geom_bond_site_symmetry_2
Ag1 O1 1_555 1_555
Ag2 N3 1_555 1_555
O1 C8 1_555 1_555
O2 C18 1_555 1_555
O3 C28 1_555 1_555
O4 Ag1 1_555 1_555
H1 O4 1_555 1_555
H2 O4 1_555 1_555
N1 Ag1 1_555 1_555
N2 H3 1_555 1_555
N3 C11 1_555 1_555
N4 H4 1_555 1_555
N5 C21 1_555 1_555
N6 H5 1_555 1_555
C1 N1 1_555 1_555
H6 C1 1_555 1_555
C2 C1 1_555 1_555
H7 C2 1_555 1_555
C3 C2 1_555 1_555
H8 C3 1_555 1_555
C4 C3 1_555 1_555
H9 C4 1_555 1_555
C5 N1 1_555 1_555
C6 C5 1_555 1_555
H10 C6 1_555 1_555
H11 C6 1_555 1_555
C7 N2 1_555 1_555
H12 C7 1_555 1_555
H13 C7 1_555 1_555
C8 N2 1_555 1_555
C9 C8 1_555 1_555
C10 C9 1_555 1_555
H14 C10 1_555 1_555
C11 H15 1_555 1_555
C12 C11 1_555 1_555
H16 C12 1_555 1_555
C13 C12 1_555 1_555
H17 C13 1_555 1_555
C14 C13 1_555 1_555
H18 C14 1_555 1_555
C15 N3 1_555 1_555
C16 C15 1_555 1_555
H19 C16 1_555 1_555
H20 C16 1_555 1_555
C17 N4 1_555 1_555
H21 C17 1_555 1_555
H22 C17 1_555 1_555
C18 N4 1_555 1_555
C19 C10 1_555 1_555
C20 C19 1_555 1_555
H23 C20 1_555 1_555
C21 H24 1_555 1_555
C22 C21 1_555 1_555
H25 C22 1_555 1_555
C23 C22 1_555 1_555
H26 C23 1_555 1_555
C24 C23 1_555 1_555
H27 C24 1_555 1_555
C25 N5 1_555 1_555
C26 C25 1_555 1_555
H28 C26 1_555 1_555
H29 C26 1_555 1_555
C27 N6 1_555 1_555
H30 C27 1_555 1_555
H31 C27 1_555 1_555
C28 N6 1_555 1_555
C29 C20 1_555 1_555
C30 C9 1_555 1_555
H32 C30 1_555 1_555
O5 N7 1_555 1_555
O6 N7 1_555 1_555
O7 N7 1_555 1_555
O8 H33 1_555 1_555
C31 O8 1_555 1_555
H34 C31 1_555 1_555
H35 C31 1_555 1_555
H36 C31 1_555 1_555
O9 H37 1_555 1_555
C32 O9 1_555 1_555
H38 C32 1_555 1_555
H39 C32 1_555 1_555
H40 C32 1_555 1_555
O10 H41 1_555 1_555
H42 O10 1_555 1_555
O11 H43 1_555 1_555
H44 O11 1_555 1_555
Ag1C N5 1_555 1_555
Ag2D Ag2 1_555 1_555
N3D Ag2 1_555 1_555
N5C Ag1 1_555 1_555
N3 Ag2D 1_555 1_555
C4 C5 1_555 1_555
C6 C7 1_555 1_555
C14 C15 1_555 1_555
C16 C17 1_555 1_555
C18 C19 1_555 1_555
C24 C25 1_555 1_555
C26 C27 1_555 1_555
C28 C29 1_555 1_555
C29 C30 1_555 1_555
Ag2D N3D 1_555 1_555

#END
