
#######################################################################
#
#                 Cambridge Crystallographic Data Centre
#                                CCDC 
#
#######################################################################
#
# If this CIF has been generated from an entry in the Cambridge 
# Structural Database, then it will include bibliographic, chemical, 
# crystal, experimental, refinement or atomic coordinate data resulting 
# from the CCDC's data processing and validation procedures.
#
#######################################################################

data_FOCVEZ
_symmetry_cell_setting           monoclinic
_symmetry_space_group_name_H-M   'C 2'
_symmetry_Int_Tables_number      5
_space_group_name_Hall           'C 2y'
loop_
_symmetry_equiv_pos_site_id
_symmetry_equiv_pos_as_xyz
1 x,y,z
2 -x,y,-z
3 1/2+x,1/2+y,z
4 1/2-x,1/2+y,-z
_cell_length_a                   24.984(4)
_cell_length_b                   7.2818(12)
_cell_length_c                   17.170(3)
_cell_angle_alpha                90
_cell_angle_beta                 104.245(5)
_cell_angle_gamma                90
_cell_volume                     3027.67
loop_
_atom_site_label
_atom_site_type_symbol
_atom_site_fract_x
_atom_site_fract_y
_atom_site_fract_z
Ag1 Ag 0.18857(2) -0.29262(8) -0.53970(2)
N1 N 0.16739(17) -0.2916(11) -0.4249(2)
N2 N 0.29740(17) 0.2057(11) -0.3413(2)
O1 O 0.13677(15) -0.1173(5) -0.1527(2)
O2 O 0.21745(12) 0.2071(9) -0.10300(17)
C1 C 0.1231(2) -0.2805(11) -0.1989(3)
H1 H 0.0837 -0.3015 -0.2083
H2 H 0.1418 -0.3832 -0.1677
C2 C 0.13804(17) -0.2775(10) -0.2782(3)
C3 C 0.1173(3) -0.4114(9) -0.3355(3)
H3 H 0.0929 -0.4994 -0.3253
C4 C 0.1322(3) -0.4143(10) -0.4062(4)
H4 H 0.1176 -0.5051 -0.4435
C5 C 0.1873(3) -0.1642(10) -0.3709(4)
H5 H 0.2117 -0.0782 -0.3824
C6 C 0.1735(2) -0.1527(8) -0.2985(3)
H6 H 0.1884 -0.0594 -0.2627
C7 C 0.10530(19) 0.1636(7) -0.1117(3)
C8 C 0.09975(19) 0.0275(8) -0.1696(3)
C9 C 0.0584(2) 0.0366(8) -0.2428(3)
H7 H 0.0555 -0.0563 -0.2807
C10 C 0.0235(2) 0.1804(10) -0.2571(3)
H8 H -0.0032 0.1852 -0.3055
C11 C 0.0260(2) 0.3217(8) -0.2019(3)
C12 C -0.0117(2) 0.4721(10) -0.2142(5)
H9 H -0.0388 0.4788 -0.2621
C13 C -0.0094(3) 0.6047(10) -0.1590(4)
H10 H -0.0352 0.6991 -0.1688
C14 C 0.0318(3) 0.6016(9) -0.0863(4)
H11 H 0.0334 0.6948 -0.0488
C15 C 0.0697(2) 0.4601(8) -0.0708(3)
H12 H 0.0968 0.4590 -0.0227
C16 C 0.0682(2) 0.3184(8) -0.1263(3)
C17 C 0.27419(18) 0.1974(11) -0.1018(3)
H13 H 0.2902 0.0863 -0.0744
H14 H 0.2935 0.3020 -0.0730
C18 C 0.28014(17) 0.1968(10) -0.1866(3)
C19 C 0.2438(2) 0.2830(8) -0.2479(3)
H15 H 0.2125 0.3400 -0.2392
C20 C 0.2544(3) 0.2844(9) -0.3240(3)
H16 H 0.2294 0.3448 -0.3651
C21 C 0.3319(3) 0.1226(9) -0.2822(4)
H17 H 0.3627 0.0669 -0.2933
C22 C 0.3259(2) 0.1115(9) -0.2047(4)
H18 H 0.3517 0.0489 -0.1653
C23 C 0.1485(2) 0.1565(6) -0.0342(3)
C24 C 0.20365(19) 0.1844(9) -0.0308(3)
C25 C 0.24323(18) 0.1987(11) 0.0423(3)
H19 H 0.2801 0.2181 0.0426
C26 C 0.2280(2) 0.1840(10) 0.1139(3)
H20 H 0.2544 0.2002 0.1622
C27 C 0.1724(2) 0.1444(7) 0.1146(3)
C28 C 0.1554(2) 0.1253(8) 0.1877(3)
H21 H 0.1814 0.1399 0.2364
C29 C 0.1034(2) 0.0872(9) 0.1879(3)
H22 H 0.0936 0.0707 0.2363
C30 C 0.0632(2) 0.0720(9) 0.1146(4)
H23 H 0.0266 0.0494 0.1148
C31 C 0.0774(2) 0.0900(8) 0.0435(3)
H24 H 0.0502 0.0771 -0.0042
C32 C 0.1324(2) 0.1277(7) 0.0396(3)
Ag1C Ag 0.31143(2) 0.20738(8) -0.46030(2)
N2C N 0.20260(17) -0.2943(11) -0.6587(2)
Cl1 Cl 0.34769(9) -0.2924(4) -0.43482(9)
O3 O 0.3831(3) -0.1532(10) -0.4060(5)
O4 O 0.3446(7) -0.3320(18) -0.5092(4)
O5 O 0.3552(9) -0.4337(16) -0.3896(7)
O6 O 0.2995(3) -0.216(2) -0.4471(15)
loop_
_geom_bond_atom_site_label_1
_geom_bond_atom_site_label_2
_geom_bond_site_symmetry_1
_geom_bond_site_symmetry_2
Ag1 N1 1_555 1_555
N1 C4 1_555 1_555
N2 C20 1_555 1_555
O1 C1 1_555 1_555
O2 C17 1_555 1_555
C1 H1 1_555 1_555
H2 C1 1_555 1_555
C2 C1 1_555 1_555
C3 C2 1_555 1_555
H3 C3 1_555 1_555
C4 C3 1_555 1_555
H4 C4 1_555 1_555
C5 N1 1_555 1_555
H5 C5 1_555 1_555
C6 C2 1_555 1_555
H6 C6 1_555 1_555
C7 C8 1_555 1_555
C8 O1 1_555 1_555
C9 C8 1_555 1_555
H7 C9 1_555 1_555
C10 C9 1_555 1_555
H8 C10 1_555 1_555
C11 C10 1_555 1_555
C12 C11 1_555 1_555
H9 C12 1_555 1_555
C13 C12 1_555 1_555
H10 C13 1_555 1_555
C14 C13 1_555 1_555
H11 C14 1_555 1_555
C15 C14 1_555 1_555
H12 C15 1_555 1_555
C16 C7 1_555 1_555
C17 H13 1_555 1_555
H14 C17 1_555 1_555
C18 C17 1_555 1_555
C19 C18 1_555 1_555
H15 C19 1_555 1_555
C20 C19 1_555 1_555
H16 C20 1_555 1_555
C21 N2 1_555 1_555
H17 C21 1_555 1_555
C22 C18 1_555 1_555
H18 C22 1_555 1_555
C23 C7 1_555 1_555
C24 O2 1_555 1_555
C25 C24 1_555 1_555
H19 C25 1_555 1_555
C26 C25 1_555 1_555
H20 C26 1_555 1_555
C27 C26 1_555 1_555
C28 C27 1_555 1_555
H21 C28 1_555 1_555
C29 C28 1_555 1_555
H22 C29 1_555 1_555
C30 C29 1_555 1_555
H23 C30 1_555 1_555
C31 C30 1_555 1_555
H24 C31 1_555 1_555
C32 C23 1_555 1_555
Cl1 O3 1_555 1_555
O4 Cl1 1_555 1_555
O5 Cl1 1_555 1_555
O6 Cl1 1_555 1_555
Ag1C N2 1_555 1_555
N2C Ag1 1_555 1_555
C5 C6 1_555 1_555
C11 C16 1_555 1_555
C15 C16 1_555 1_555
C21 C22 1_555 1_555
C23 C24 1_555 1_555
C27 C32 1_555 1_555
C31 C32 1_555 1_555

#END
