
#######################################################################
#
#                 Cambridge Crystallographic Data Centre
#                                CCDC 
#
#######################################################################
#
# If this CIF has been generated from an entry in the Cambridge 
# Structural Database, then it will include bibliographic, chemical, 
# crystal, experimental, refinement or atomic coordinate data resulting 
# from the CCDC's data processing and validation procedures.
#
#######################################################################

data_FOCVID
_symmetry_cell_setting           monoclinic
_symmetry_space_group_name_H-M   'C 2'
_symmetry_Int_Tables_number      5
_space_group_name_Hall           'C 2y'
loop_
_symmetry_equiv_pos_site_id
_symmetry_equiv_pos_as_xyz
1 x,y,z
2 -x,y,-z
3 1/2+x,1/2+y,z
4 1/2-x,1/2+y,-z
_cell_length_a                   25.704(5)
_cell_length_b                   7.1752(13)
_cell_length_c                   17.089(3)
_cell_angle_alpha                90
_cell_angle_beta                 105.375(4)
_cell_angle_gamma                90
_cell_volume                     3038.95
loop_
_atom_site_label
_atom_site_type_symbol
_atom_site_fract_x
_atom_site_fract_y
_atom_site_fract_z
Cd1 Cd 0.321520(17) -0.09193(6) 0.54992(2)
Cl1 Cl 0.27431(7) 0.2389(2) 0.52273(10)
Cl2 Cl 0.41830(8) 0.0029(3) 0.61699(12)
N1 N 0.20077(18) 0.3952(12) 0.3265(3)
N2 N 0.33700(17) -0.0988(13) 0.4223(3)
O1 O 0.28565(13) 0.3929(9) 0.09557(19)
O2 O 0.36390(15) 0.0617(6) 0.1456(2)
O3 O 0.3510(2) -0.4086(7) 0.5769(3)
C1 C 0.2296(2) 0.3832(12) 0.0914(3)
H1 H 0.2144 0.2700 0.0635
H2 H 0.2110 0.4885 0.0607
C2 C 0.2213(2) 0.3851(12) 0.1756(3)
C3 C 0.1749(2) 0.3095(9) 0.1891(4)
H3 H 0.1493 0.2543 0.1465
C4 C 0.1667(2) 0.3159(9) 0.2639(4)
H4 H 0.1356 0.2617 0.2717
C5 C 0.2455(2) 0.4632(8) 0.3156(3)
H5 H 0.2702 0.5163 0.3598
C6 C 0.2578(2) 0.4604(8) 0.2415(3)
H6 H 0.2904 0.5087 0.2366
C7 C 0.3529(2) 0.3423(7) 0.0272(3)
C8 C 0.2989(2) 0.3715(8) 0.0230(3)
C9 C 0.2610(2) 0.3865(12) -0.0513(3)
H7 H 0.2251 0.4101 -0.0530
C10 C 0.2757(2) 0.3669(8) -0.1220(3)
H8 H 0.2496 0.3785 -0.1712
C11 C 0.3287(2) 0.3301(8) -0.1219(3)
C12 C 0.3456(3) 0.3061(9) -0.1944(4)
H9 H 0.3198 0.3153 -0.2440
C13 C 0.3969(3) 0.2708(10) -0.1945(4)
H10 H 0.4066 0.2569 -0.2429
C14 C 0.4358(3) 0.2553(10) -0.1184(4)
H11 H 0.4715 0.2306 -0.1173
C15 C 0.4223(2) 0.2756(9) -0.0466(3)
H12 H 0.4488 0.2634 0.0022
C16 C 0.3681(2) 0.3152(8) -0.0458(3)
C17 C 0.3955(2) 0.3462(8) 0.1077(3)
C18 C 0.4010(2) 0.2072(8) 0.1648(3)
C19 C 0.4412(2) 0.2123(9) 0.2372(4)
H13 H 0.4443 0.1158 0.2745
C20 C 0.4762(2) 0.3581(9) 0.2540(4)
H14 H 0.5030 0.3596 0.3028
C21 C 0.4728(2) 0.5069(9) 0.1992(4)
C22 C 0.5096(3) 0.6552(10) 0.2141(4)
H15 H 0.5363 0.6593 0.2630
C23 C 0.5071(3) 0.7918(11) 0.1594(5)
H16 H 0.5319 0.8891 0.1707
C24 C 0.4680(3) 0.7880(10) 0.0868(4)
H17 H 0.4669 0.8831 0.0494
C25 C 0.4310(3) 0.6484(9) 0.0683(4)
H18 H 0.4046 0.6503 0.0191
C26 C 0.4324(2) 0.4994(8) 0.1237(3)
C27 C 0.3768(2) -0.1042(13) 0.1928(3)
H19 H 0.4151 -0.1284 0.2027
H20 H 0.3576 -0.2078 0.1616
C28 C 0.36315(18) -0.0974(13) 0.2728(3)
C29 C 0.3298(3) 0.0360(10) 0.2917(4)
H21 H 0.3161 0.1317 0.2554
C30 C 0.3167(3) 0.0266(10) 0.3651(4)
H22 H 0.2923 0.1131 0.3750
C31 C 0.3690(3) -0.2290(11) 0.4019(4)
H23 H 0.3833 -0.3211 0.4398
C32 C 0.3821(3) -0.2344(11) 0.3286(4)
H24 H 0.4034 -0.3300 0.3174
Cd1C Cd 0.178480(17) 0.40807(6) 0.45008(2)
Cl1C Cl 0.22569(7) -0.2611(2) 0.47727(10)
N1C N 0.29923(18) -0.1048(12) 0.6735(3)
O4 O 0.4284(4) 0.3785(17) 0.5292(7)
loop_
_geom_bond_atom_site_label_1
_geom_bond_atom_site_label_2
_geom_bond_site_symmetry_1
_geom_bond_site_symmetry_2
Cd1 Cl1 1_555 1_555
Cl1 Cd1C 1_555 1_555
Cl2 Cd1 1_555 1_555
N1 C4 1_555 1_555
N2 Cd1 1_555 1_555
O1 C1 1_555 1_555
O2 C18 1_555 1_555
O3 Cd1 1_555 1_555
C1 H1 1_555 1_555
H2 C1 1_555 1_555
C2 C1 1_555 1_555
C3 C2 1_555 1_555
H3 C3 1_555 1_555
C4 C3 1_555 1_555
H4 C4 1_555 1_555
C5 N1 1_555 1_555
H5 C5 1_555 1_555
C6 C2 1_555 1_555
H6 C6 1_555 1_555
C7 C8 1_555 1_555
C8 O1 1_555 1_555
C9 C8 1_555 1_555
H7 C9 1_555 1_555
C10 C9 1_555 1_555
H8 C10 1_555 1_555
C11 C10 1_555 1_555
C12 C11 1_555 1_555
H9 C12 1_555 1_555
C13 C12 1_555 1_555
H10 C13 1_555 1_555
C14 C13 1_555 1_555
H11 C14 1_555 1_555
C15 C14 1_555 1_555
H12 C15 1_555 1_555
C16 C7 1_555 1_555
C17 C7 1_555 1_555
C18 C17 1_555 1_555
C19 C18 1_555 1_555
H13 C19 1_555 1_555
C20 C19 1_555 1_555
H14 C20 1_555 1_555
C21 C20 1_555 1_555
C22 C21 1_555 1_555
H15 C22 1_555 1_555
C23 C22 1_555 1_555
H16 C23 1_555 1_555
C24 C23 1_555 1_555
H17 C24 1_555 1_555
C25 C24 1_555 1_555
H18 C25 1_555 1_555
C26 C17 1_555 1_555
C27 O2 1_555 1_555
H19 C27 1_555 1_555
H20 C27 1_555 1_555
C28 C27 1_555 1_555
C29 C28 1_555 1_555
H21 C29 1_555 1_555
C30 N2 1_555 1_555
H22 C30 1_555 1_555
C31 N2 1_555 1_555
H23 C31 1_555 1_555
C32 C28 1_555 1_555
H24 C32 1_555 1_555
Cd1C N1 1_555 1_555
Cl1C Cd1 1_555 1_555
N1C Cd1 1_555 1_555
C5 C6 1_555 1_555
C11 C16 1_555 1_555
C15 C16 1_555 1_555
C21 C26 1_555 1_555
C25 C26 1_555 1_555
C29 C30 1_555 1_555
C31 C32 1_555 1_555

#END
