
#######################################################################
#
#                 Cambridge Crystallographic Data Centre
#                                CCDC 
#
#######################################################################
#
# If this CIF has been generated from an entry in the Cambridge 
# Structural Database, then it will include bibliographic, chemical, 
# crystal, experimental, refinement or atomic coordinate data resulting 
# from the CCDC's data processing and validation procedures.
#
#######################################################################

data_FOCVUQ
_symmetry_cell_setting           monoclinic
_symmetry_space_group_name_H-M   'P 21/c'
_symmetry_Int_Tables_number      14
_space_group_name_Hall           '-P 2ybc'
loop_
_symmetry_equiv_pos_site_id
_symmetry_equiv_pos_as_xyz
1 x,y,z
2 -x,1/2+y,1/2-z
3 -x,-y,-z
4 x,1/2-y,1/2+z
_cell_length_a                   3.5082(7)
_cell_length_b                   15.467(3)
_cell_length_c                   9.6850(19)
_cell_angle_alpha                90
_cell_angle_beta                 98.03(3)
_cell_angle_gamma                90
_cell_volume                     520.368
loop_
_atom_site_label
_atom_site_type_symbol
_atom_site_fract_x
_atom_site_fract_y
_atom_site_fract_z
Ag1 Ag 0.26034(8) 0.574421(18) 0.31968(3)
O1 O 0.3047(7) 0.73027(17) 0.3604(3)
O2 O -0.0532(8) 0.71592(17) 0.1588(3)
O3 O 0.2259(7) 0.99421(17) 0.3157(3)
N1 N 0.1168(8) 0.7636(2) 0.2524(3)
N2 N -0.2387(9) 0.9114(2) 0.0049(3)
N3 N 0.4634(8) 0.8874(2) 0.4610(3)
H1 H 0.5666 0.9249 0.5235
H2 H 0.4897 0.8316 0.4774
C1 C 0.1010(10) 0.8520(2) 0.2379(4)
C2 C -0.0911(10) 0.8828(2) 0.1086(4)
C3 C 0.2686(9) 0.9148(2) 0.3423(4)
Ag1A Ag -0.26034(8) 1.074421(18) 0.18032(3)
Ag1A_2 Ag 0.73966(8) 1.074421(18) 0.18032(3)
Ag1C Ag -0.73966(8) 0.925579(18) -0.18032(3)
Ag1C_2 Ag 0.26034(8) 0.925579(18) -0.18032(3)
O3A O -0.2259(7) 0.49421(17) 0.1843(3)
O3A_2 O 0.7741(7) 0.49421(17) 0.1843(3)
N2C N -0.2387(9) 0.5886(2) 0.5049(3)
N2C_2 N 0.7613(9) 0.5886(2) 0.5049(3)
loop_
_geom_bond_atom_site_label_1
_geom_bond_atom_site_label_2
_geom_bond_site_symmetry_1
_geom_bond_site_symmetry_2
Ag1 O1 1_555 1_555
O1 N1 1_555 1_555
O2 N1 1_555 1_555
O3 C3 1_555 1_555
N1 C1 1_555 1_555
N2 C2 1_555 1_555
N3 H1 1_555 1_555
H2 N3 1_555 1_555
C1 C2 1_555 1_555
C3 N3 1_555 1_555
Ag1A O3 1_555 1_555
Ag1A_2 O3 1_555 1_555
Ag1C N2 1_555 1_555
Ag1C_2 N2 1_555 1_555
O3A Ag1 1_555 1_555
O3A_2 Ag1 1_555 1_555
N2C Ag1 1_555 1_555
N2C_2 Ag1 1_555 1_555
C1 C3 1_555 1_555

#END
