
#######################################################################
#
#                 Cambridge Crystallographic Data Centre
#                                CCDC 
#
#######################################################################
#
# If this CIF has been generated from an entry in the Cambridge 
# Structural Database, then it will include bibliographic, chemical, 
# crystal, experimental, refinement or atomic coordinate data resulting 
# from the CCDC's data processing and validation procedures.
#
#######################################################################

data_FOCYED
_symmetry_cell_setting           monoclinic
_symmetry_space_group_name_H-M   'P 21/c'
_symmetry_Int_Tables_number      14
_space_group_name_Hall           '-P 2ybc'
loop_
_symmetry_equiv_pos_site_id
_symmetry_equiv_pos_as_xyz
1 x,y,z
2 -x,1/2+y,1/2-z
3 -x,-y,-z
4 x,1/2-y,1/2+z
_cell_length_a                   5.7737(4)
_cell_length_b                   18.3907(10)
_cell_length_c                   8.5647(6)
_cell_angle_alpha                90
_cell_angle_beta                 96.165(8)
_cell_angle_gamma                90
_cell_volume                     904.161
loop_
_atom_site_label
_atom_site_type_symbol
_atom_site_fract_x
_atom_site_fract_y
_atom_site_fract_z
Mn1 Mn 0.5000 0.5000 1.0000
N1 N 0.7979(2) 0.55792(7) 0.93467(17)
C1 C 0.9765(2) 0.57891(7) 0.90381(17)
S1 S 1.22972(6) 0.60920(2) 0.86040(5)
N2 N 0.4725(2) 0.43904(7) 0.76412(16)
C2 C 0.2783(3) 0.44078(9) 0.6624(2)
H1 H 0.1582 0.4738 0.6822
C3 C 0.2443(3) 0.39718(9) 0.5307(2)
H2 H 0.1041 0.4010 0.4622
C4 C 0.4142(3) 0.34773(9) 0.49827(19)
C5 C 0.6168(3) 0.34696(10) 0.6012(2)
H3 H 0.7402 0.3149 0.5835
C6 C 0.6388(3) 0.39306(11) 0.7298(2)
H4 H 0.7804 0.3919 0.7974
C7 C 0.3775(3) 0.29587(10) 0.3620(2)
H5 H 0.5259 0.2705 0.3500
H6 H 0.3328 0.3238 0.2646
C8 C 0.1916(4) 0.24021(11) 0.3830(3)
H7 H 0.1734 0.2079 0.2915
H8 H 0.0437 0.2650 0.3932
H9 H 0.2370 0.2116 0.4779
N1B N 0.2021(2) 0.44208(7) 1.06533(17)
C1B C 0.0235(2) 0.42109(7) 1.09619(17)
S1B S -0.22972(6) 0.39080(2) 1.13960(5)
N2B N 0.5275(2) 0.56096(7) 1.23588(16)
C2B C 0.7217(3) 0.55922(9) 1.3376(2)
H1B H 0.8418 0.5262 1.3178
C3B C 0.7557(3) 0.60282(9) 1.4693(2)
H2B H 0.8959 0.5990 1.5378
C4B C 0.5858(3) 0.65227(9) 1.50173(19)
C5B C 0.3832(3) 0.65304(10) 1.3988(2)
H3B H 0.2598 0.6851 1.4165
C6B C 0.3612(3) 0.60694(11) 1.2702(2)
H4B H 0.2196 0.6081 1.2026
C7B C 0.6225(3) 0.70413(10) 1.6380(2)
H5B H 0.4741 0.7295 1.6500
H6B H 0.6672 0.6762 1.7354
C8B C 0.8084(4) 0.75979(11) 1.6170(3)
H7B H 0.8266 0.7921 1.7085
H8B H 0.9563 0.7350 1.6068
H9B H 0.7630 0.7884 1.5221
Mn1_2 Mn -0.5000 0.5000 1.0000
Mn1_3 Mn 1.5000 0.5000 1.0000
S1_2 S 0.22972(6) 0.60920(2) 0.86040(5)
S1B_2 S 0.77028(6) 0.39080(2) 1.13960(5)
loop_
_geom_bond_atom_site_label_1
_geom_bond_atom_site_label_2
_geom_bond_site_symmetry_1
_geom_bond_site_symmetry_2
Mn1 N1 1_555 1_555
N1 C1 1_555 1_555
C1 S1 1_555 1_555
S1 Mn1_3 1_555 1_555
N2 Mn1 1_555 1_555
C2 N2 1_555 1_555
H1 C2 1_555 1_555
C3 C2 1_555 1_555
H2 C3 1_555 1_555
C4 C3 1_555 1_555
C5 C4 1_555 1_555
H3 C5 1_555 1_555
C6 N2 1_555 1_555
H4 C6 1_555 1_555
C7 C4 1_555 1_555
H5 C7 1_555 1_555
H6 C7 1_555 1_555
C8 C7 1_555 1_555
H7 C8 1_555 1_555
H8 C8 1_555 1_555
H9 C8 1_555 1_555
N1B Mn1 1_555 1_555
C1B N1B 1_555 1_555
S1B C1B 1_555 1_555
N2B Mn1 1_555 1_555
C2B N2B 1_555 1_555
H1B C2B 1_555 1_555
C3B C2B 1_555 1_555
H2B C3B 1_555 1_555
C4B C3B 1_555 1_555
C5B C4B 1_555 1_555
H3B C5B 1_555 1_555
C6B N2B 1_555 1_555
H4B C6B 1_555 1_555
C7B C4B 1_555 1_555
H5B C7B 1_555 1_555
H6B C7B 1_555 1_555
C8B C7B 1_555 1_555
H7B C8B 1_555 1_555
H8B C8B 1_555 1_555
H9B C8B 1_555 1_555
Mn1_2 S1B 1_555 1_555
S1_2 Mn1 1_555 1_555
S1B_2 Mn1 1_555 1_555
C5 C6 1_555 1_555
C5B C6B 1_555 1_555

#END
