
#######################################################################
#
#                 Cambridge Crystallographic Data Centre
#                                CCDC 
#
#######################################################################
#
# If this CIF has been generated from an entry in the Cambridge 
# Structural Database, then it will include bibliographic, chemical, 
# crystal, experimental, refinement or atomic coordinate data resulting 
# from the CCDC's data processing and validation procedures.
#
#######################################################################

data_FOCZII
_symmetry_cell_setting           triclinic
_symmetry_space_group_name_H-M   'P -1'
_symmetry_Int_Tables_number      2
_space_group_name_Hall           '-P 1'
loop_
_symmetry_equiv_pos_site_id
_symmetry_equiv_pos_as_xyz
1 x,y,z
2 -x,-y,-z
_cell_length_a                   10.279(7)
_cell_length_b                   14.310(9)
_cell_length_c                   18.560(11)
_cell_angle_alpha                83.628(8)
_cell_angle_beta                 82.150(9)
_cell_angle_gamma                90.025(9)
_cell_volume                     2687.41
loop_
_atom_site_label
_atom_site_type_symbol
_atom_site_fract_x
_atom_site_fract_y
_atom_site_fract_z
Zn1 Zn 0.10923(9) 0.28208(7) 0.12950(5)
Zn2 Zn 0.47316(10) 0.39070(7) 0.65555(5)
O1 O 0.2652(5) 0.2035(4) 0.1392(3)
O2 O 0.4013(6) 0.3009(4) 0.0607(4)
O3 O 0.8621(5) 0.3145(4) 0.1265(3)
O4 O 0.9662(6) 0.1754(4) 0.1361(3)
O5 O -0.3554(5) 0.3769(4) 0.5915(3)
O6 O -0.2702(7) 0.4118(8) 0.6880(4)
O7 O 0.2134(6) 0.4130(4) 0.6836(3)
O8 O 0.3458(5) 0.3786(4) 0.5835(3)
N1 N 0.5471(8) -0.2397(5) 0.3061(4)
N2 N 0.0669(7) 0.2926(5) 0.2445(4)
N3 N 0.1561(6) 0.4326(5) 0.1126(4)
N4 N 0.1191(7) 0.3110(6) 0.0121(4)
N5 N 0.4636(7) 0.4248(6) 0.7630(4)
N6 N 0.4725(7) 0.5426(5) 0.6405(4)
C1 C 0.3805(10) 0.2302(6) 0.1084(5)
C2 C 0.8625(9) 0.2245(7) 0.1336(4)
C3 C 0.4945(8) 0.1783(6) 0.1335(5)
C4 C 0.6216(7) 0.2191(5) 0.1195(4)
H1 H 0.6326 0.2777 0.0921
C5 C 0.7300(7) 0.1774(5) 0.1440(4)
C6 C 0.7148(8) 0.0873(6) 0.1839(4)
H2 H 0.7865 0.0559 0.2001
C7 C 0.5885(8) 0.0462(6) 0.1984(5)
C8 C 0.4785(8) 0.0898(5) 0.1741(5)
H3 H 0.3962 0.0605 0.1846
C9 C 0.5756(9) -0.0554(6) 0.2387(5)
C10 C 0.4550(9) -0.0935(7) 0.2737(6)
H4 H 0.3797 -0.0574 0.2758
C11 C 0.4501(12) -0.1853(7) 0.3050(7)
H5 H 0.3686 -0.2095 0.3273
C12 C 0.6627(10) -0.2082(6) 0.2727(6)
H6 H 0.7346 -0.2476 0.2731
C13 C 0.6800(9) -0.1167(7) 0.2365(6)
H7 H 0.7615 -0.0972 0.2110
C14 C -0.2573(9) 0.3933(7) 0.6246(6)
C15 C 0.2287(9) 0.3951(5) 0.6181(6)
C16 C -0.1226(7) 0.3851(5) 0.5803(5)
C17 C -0.0125(8) 0.3949(5) 0.6153(5)
H8 H -0.0233 0.4075 0.6639
C18 C 0.1129(8) 0.3862(5) 0.5785(5)
C19 C 0.1277(8) 0.3680(5) 0.5065(5)
H9 H 0.2120 0.3628 0.4818
C20 C 0.0215(8) 0.3573(6) 0.4698(4)
C21 C -0.1082(8) 0.3678(5) 0.5085(5)
H10 H -0.1817 0.3629 0.4848
C22 C 0.0375(8) 0.3353(6) 0.3925(5)
C23 C -0.0538(8) 0.3643(6) 0.3459(5)
H11 H -0.1268 0.3984 0.3624
C24 C -0.0337(10) 0.3415(7) 0.2739(5)
H12 H -0.0958 0.3621 0.2439
C25 C 0.1529(9) 0.2661(7) 0.2901(5)
H13 H 0.2253 0.2324 0.2723
C26 C 0.1419(8) 0.2856(6) 0.3631(5)
H14 H 0.2058 0.2647 0.3918
C27 C 0.1774(8) 0.4881(6) 0.1623(5)
H15 H 0.1747 0.4610 0.2104
C28 C 0.2038(9) 0.5845(6) 0.1474(6)
H16 H 0.2159 0.6216 0.1840
C29 C 0.2109(9) 0.6216(7) 0.0745(6)
H17 H 0.2292 0.6854 0.0614
C30 C 0.1914(8) 0.5657(6) 0.0220(5)
H18 H 0.1960 0.5914 -0.0266
C31 C 0.1643(7) 0.4696(6) 0.0413(5)
C32 C 0.1395(8) 0.4065(7) -0.0132(5)
C33 C 0.1405(8) 0.4340(7) -0.0887(5)
H19 H 0.1540 0.4967 -0.1076
C34 C 0.1215(9) 0.3675(9) -0.1337(6)
H20 H 0.1220 0.3850 -0.1835
C35 C 0.1024(11) 0.2780(9) -0.1067(7)
H21 H 0.0932 0.2321 -0.1375
C36 C 0.0963(9) 0.2541(7) -0.0324(6)
H22 H 0.0741 0.1923 -0.0137
C37 C 0.4639(9) 0.3638(9) 0.8256(6)
H23 H 0.4616 0.2992 0.8238
C38 C 0.4677(9) 0.4022(12) 0.8951(7)
H24 H 0.4611 0.3613 0.9381
C39 C 0.4808(12) 0.4977(12) 0.8987(8)
H25 H 0.4887 0.5215 0.9425
C40 C 0.4815(11) 0.5544(10) 0.8362(7)
H26 H 0.4896 0.6188 0.8378
C41 C 0.4707(9) 0.5222(9) 0.7675(6)
C42 C 0.4701(9) 0.5852(8) 0.6989(5)
C43 C 0.4634(14) 0.6896(9) 0.6945(8)
H27 H 0.4628 0.7212 0.7357
C44 C 0.4581(17) 0.7364(9) 0.6272(10)
H28 H 0.4472 0.8012 0.6220
C45 C 0.4688(13) 0.6886(9) 0.5674(7)
H29 H 0.4751 0.7215 0.5209
C46 C 0.4703(9) 0.5937(7) 0.5752(6)
H30 H 0.4698 0.5624 0.5339
Zn1_2 Zn 1.10923(9) 0.28208(7) 0.12950(5)
Zn2_2 Zn -0.52684(10) 0.39070(7) 0.65555(5)
Zn2A Zn 0.52684(10) -0.39070(7) 0.34445(5)
O4_2 O -0.0338(6) 0.1754(4) 0.1361(3)
O5_2 O 0.6446(5) 0.3769(4) 0.5915(3)
N1A N 0.4529(8) 0.2397(5) 0.6939(4)
loop_
_geom_bond_atom_site_label_1
_geom_bond_atom_site_label_2
_geom_bond_site_symmetry_1
_geom_bond_site_symmetry_2
Zn1 O1 1_555 1_555
Zn2 O8 1_555 1_555
O1 C1 1_555 1_555
O2 C1 1_555 1_555
O3 C2 1_555 1_555
O4 C2 1_555 1_555
O5 C14 1_555 1_555
O6 C14 1_555 1_555
O7 C15 1_555 1_555
O8 C15 1_555 1_555
N1 C11 1_555 1_555
N2 Zn1 1_555 1_555
N3 Zn1 1_555 1_555
N4 Zn1 1_555 1_555
N5 Zn2 1_555 1_555
N6 Zn2 1_555 1_555
C1 C3 1_555 1_555
C2 C5 1_555 1_555
C3 C4 1_555 1_555
C4 H1 1_555 1_555
C5 C4 1_555 1_555
C6 C5 1_555 1_555
H2 C6 1_555 1_555
C7 C6 1_555 1_555
C8 C3 1_555 1_555
H3 C8 1_555 1_555
C9 C7 1_555 1_555
C10 C9 1_555 1_555
H4 C10 1_555 1_555
C11 C10 1_555 1_555
H5 C11 1_555 1_555
C12 N1 1_555 1_555
H6 C12 1_555 1_555
C13 C9 1_555 1_555
H7 C13 1_555 1_555
C14 C16 1_555 1_555
C15 C18 1_555 1_555
C16 C17 1_555 1_555
C17 H8 1_555 1_555
C18 C17 1_555 1_555
C19 C18 1_555 1_555
H9 C19 1_555 1_555
C20 C19 1_555 1_555
C21 C16 1_555 1_555
H10 C21 1_555 1_555
C22 C20 1_555 1_555
C23 C22 1_555 1_555
H11 C23 1_555 1_555
C24 N2 1_555 1_555
H12 C24 1_555 1_555
C25 N2 1_555 1_555
H13 C25 1_555 1_555
C26 C22 1_555 1_555
H14 C26 1_555 1_555
C27 N3 1_555 1_555
H15 C27 1_555 1_555
C28 C27 1_555 1_555
H16 C28 1_555 1_555
C29 C28 1_555 1_555
H17 C29 1_555 1_555
C30 C29 1_555 1_555
H18 C30 1_555 1_555
C31 N3 1_555 1_555
C32 N4 1_555 1_555
C33 C32 1_555 1_555
H19 C33 1_555 1_555
C34 C33 1_555 1_555
H20 C34 1_555 1_555
C35 C34 1_555 1_555
H21 C35 1_555 1_555
C36 N4 1_555 1_555
H22 C36 1_555 1_555
C37 N5 1_555 1_555
H23 C37 1_555 1_555
C38 C37 1_555 1_555
H24 C38 1_555 1_555
C39 C38 1_555 1_555
H25 C39 1_555 1_555
C40 C39 1_555 1_555
H26 C40 1_555 1_555
C41 N5 1_555 1_555
C42 N6 1_555 1_555
C43 C42 1_555 1_555
H27 C43 1_555 1_555
C44 C43 1_555 1_555
H28 C44 1_555 1_555
C45 C44 1_555 1_555
H29 C45 1_555 1_555
C46 N6 1_555 1_555
H30 C46 1_555 1_555
Zn1_2 O4 1_555 1_555
Zn2_2 O5 1_555 1_555
Zn2A N1 1_555 1_555
O4_2 Zn1 1_555 1_555
O5_2 Zn2 1_555 1_555
N1A Zn2 1_555 1_555
C7 C8 1_555 1_555
C12 C13 1_555 1_555
C20 C21 1_555 1_555
C23 C24 1_555 1_555
C25 C26 1_555 1_555
C30 C31 1_555 1_555
C31 C32 1_555 1_555
C35 C36 1_555 1_555
C40 C41 1_555 1_555
C41 C42 1_555 1_555
C45 C46 1_555 1_555

#END
