
#######################################################################
#
#                 Cambridge Crystallographic Data Centre
#                                CCDC 
#
#######################################################################
#
# If this CIF has been generated from an entry in the Cambridge 
# Structural Database, then it will include bibliographic, chemical, 
# crystal, experimental, refinement or atomic coordinate data resulting 
# from the CCDC's data processing and validation procedures.
#
#######################################################################

data_FODCOS
_symmetry_cell_setting           monoclinic
_symmetry_space_group_name_H-M   'I 2/a'
_symmetry_Int_Tables_number      15
_space_group_name_Hall           '-I 2ya'
loop_
_symmetry_equiv_pos_site_id
_symmetry_equiv_pos_as_xyz
1 x,y,z
2 1/2-x,y,-z
3 1/2+x,1/2+y,1/2+z
4 -x,1/2+y,1/2-z
5 -x,-y,-z
6 1/2+x,-y,z
7 1/2-x,1/2-y,1/2-z
8 x,1/2-y,1/2+z
_cell_length_a                   14.5663(6)
_cell_length_b                   13.4855(5)
_cell_length_c                   24.6581(14)
_cell_angle_alpha                90
_cell_angle_beta                 94.734(2)
_cell_angle_gamma                90
_cell_volume                     4827.16
loop_
_atom_site_label
_atom_site_type_symbol
_atom_site_fract_x
_atom_site_fract_y
_atom_site_fract_z
Cu1 Cu 0.15430(3) 0.24001(3) 0.305697(16)
O1 O 0.28625(19) 0.13002(19) 0.18429(10)
O2 O 0.21212(18) 0.11728(18) 0.25971(10)
O3 O -0.04508(16) -0.34099(18) 0.17510(10)
O4 O -0.0386(2) -0.2207(2) 0.11523(15)
N1 N 0.57862(19) -0.2159(2) 0.73764(11)
N2 N 0.2348(2) 0.1868(2) 0.36990(12)
N3 N 0.3881(2) -0.0246(2) 0.52079(12)
N4 N 0.4365(2) -0.0410(2) 0.57224(12)
C1 C 0.2403(2) 0.0834(2) 0.21689(14)
C2 C 0.2203(2) -0.0236(2) 0.20319(13)
C3 C 0.2548(3) -0.0685(3) 0.15835(17)
H1 H 0.2917 -0.0312 0.1357
C4 C 0.2356(3) -0.1675(3) 0.14638(18)
H2 H 0.2588 -0.1970 0.1153
C5 C 0.1827(2) -0.2239(3) 0.17948(16)
C6 C 0.1492(2) -0.1787(3) 0.22449(15)
H3 H 0.1132 -0.2160 0.2476
C7 C 0.1676(2) -0.0801(3) 0.23592(15)
H4 H 0.1438 -0.0505 0.2668
C8 C -0.0061(2) -0.2975(3) 0.13758(15)
C9 C 0.0816(3) -0.3412(3) 0.12083(16)
H5 H 0.0990 -0.3073 0.0876
H6 H 0.0718 -0.4122 0.1121
C10 C 0.1603(3) -0.3311(3) 0.16567(18)
H7 H 0.1429 -0.3655 0.1988
H8 H 0.2159 -0.3639 0.1537
C11 C 0.5612(2) -0.1195(2) 0.72620(14)
H9 H 0.5819 -0.0708 0.7522
C12 C 0.5143(2) -0.0889(3) 0.67798(14)
H10 H 0.5029 -0.0205 0.6711
C13 C 0.4841(2) -0.1605(3) 0.63961(14)
C14 C 0.4984(3) -0.2598(3) 0.65256(15)
H11 H 0.4759 -0.3102 0.6280
C15 C 0.5457(2) -0.2843(2) 0.70156(14)
H12 H 0.5554 -0.3524 0.7101
C16 C 0.2815(3) 0.2455(3) 0.40582(15)
H13 H 0.2789 0.3153 0.4007
C17 C 0.3344(3) 0.2069(3) 0.45091(16)
H14 H 0.3672 0.2505 0.4758
C18 C 0.3390(2) 0.1063(3) 0.45943(14)
C19 C 0.2898(2) 0.0460(3) 0.42134(14)
H15 H 0.2910 -0.0240 0.4256
C20 C 0.2398(2) 0.0883(3) 0.37768(14)
H16 H 0.2073 0.0461 0.3519
C21 C 0.3892(2) 0.0673(3) 0.50885(14)
H17 H 0.4234 0.1117 0.5326
C22 C 0.4377(3) -0.1318(3) 0.58658(14)
H18 H 0.4090 -0.1807 0.5632
Cu1B Cu 0.65430(3) -0.25999(3) 0.805697(16)
Cu1C Cu -0.15430(3) -0.25999(3) 0.194303(16)
Cu1F Cu 0.34570(3) 0.25999(3) 0.194303(16)
O1F O 0.21375(19) 0.36998(19) 0.31571(10)
O3C O 0.04508(16) 0.15901(18) 0.32490(10)
O4C O 0.0386(2) 0.2793(2) 0.38477(15)
N1B N 0.07862(19) 0.2841(2) 0.23764(11)
loop_
_geom_bond_atom_site_label_1
_geom_bond_atom_site_label_2
_geom_bond_site_symmetry_1
_geom_bond_site_symmetry_2
Cu1 O2 1_555 1_555
O1 C1 1_555 1_555
O2 C1 1_555 1_555
O3 C8 1_555 1_555
O4 C8 1_555 1_555
N1 C11 1_555 1_555
N2 Cu1 1_555 1_555
N3 N4 1_555 1_555
N4 C22 1_555 1_555
C1 C2 1_555 1_555
C2 C3 1_555 1_555
C3 H1 1_555 1_555
C4 C3 1_555 1_555
H2 C4 1_555 1_555
C5 C4 1_555 1_555
C6 C5 1_555 1_555
H3 C6 1_555 1_555
C7 C2 1_555 1_555
H4 C7 1_555 1_555
C8 C9 1_555 1_555
C9 H5 1_555 1_555
H6 C9 1_555 1_555
C10 C5 1_555 1_555
H7 C10 1_555 1_555
H8 C10 1_555 1_555
C11 H9 1_555 1_555
C12 C11 1_555 1_555
H10 C12 1_555 1_555
C13 C12 1_555 1_555
C14 C13 1_555 1_555
H11 C14 1_555 1_555
C15 N1 1_555 1_555
H12 C15 1_555 1_555
C16 N2 1_555 1_555
H13 C16 1_555 1_555
C17 C16 1_555 1_555
H14 C17 1_555 1_555
C18 C17 1_555 1_555
C19 C18 1_555 1_555
H15 C19 1_555 1_555
C20 N2 1_555 1_555
H16 C20 1_555 1_555
C21 N3 1_555 1_555
H17 C21 1_555 1_555
C22 C13 1_555 1_555
H18 C22 1_555 1_555
Cu1B N1 1_555 1_555
Cu1C O3 1_555 1_555
Cu1F O1 1_555 1_555
O1F Cu1 1_555 1_555
O3C Cu1 1_555 1_555
O4C Cu1 1_555 1_555
N1B Cu1 1_555 1_555
O4 Cu1C 1_555 1_555
C6 C7 1_555 1_555
C9 C10 1_555 1_555
C14 C15 1_555 1_555
C18 C21 1_555 1_555
C19 C20 1_555 1_555

#END
