
#######################################################################
#
#                 Cambridge Crystallographic Data Centre
#                                CCDC 
#
#######################################################################
#
# If this CIF has been generated from an entry in the Cambridge 
# Structural Database, then it will include bibliographic, chemical, 
# crystal, experimental, refinement or atomic coordinate data resulting 
# from the CCDC's data processing and validation procedures.
#
#######################################################################

data_FODDEJ
_symmetry_cell_setting           monoclinic
_symmetry_space_group_name_H-M   'P 21/c'
_symmetry_Int_Tables_number      14
_space_group_name_Hall           '-P 2ybc'
loop_
_symmetry_equiv_pos_site_id
_symmetry_equiv_pos_as_xyz
1 x,y,z
2 -x,1/2+y,1/2-z
3 -x,-y,-z
4 x,1/2-y,1/2+z
_cell_length_a                   11.6251(9)
_cell_length_b                   12.2299(11)
_cell_length_c                   15.6845(13)
_cell_angle_alpha                90
_cell_angle_beta                 109.713(4)
_cell_angle_gamma                90
_cell_volume                     2099.24
loop_
_atom_site_label
_atom_site_type_symbol
_atom_site_fract_x
_atom_site_fract_y
_atom_site_fract_z
Cd1 Cd -0.00170(3) 0.64869(2) -0.051884(19)
O1 O 0.0877(3) 0.7064(3) 0.1074(2)
O2 O 0.0303(4) 0.5371(3) 0.0868(3)
O3 O 0.7452(3) 0.6703(3) 0.2340(2)
O4 O 0.7920(3) 0.5487(3) 0.3459(2)
H1 H 0.7794 0.5505 0.3942
O5 O -0.0010(3) 0.8389(3) -0.0576(3)
H2 H -0.0747 0.8639 -0.0818
H3 H 0.0418 0.8607 -0.0901
O6 O -0.0735(3) 0.6759(3) -0.2104(2)
H4 H -0.0161 0.6634 -0.2312
H5 H -0.0976 0.7416 -0.2220
N1 N -0.8016(4) 0.6351(3) -0.0465(3)
N2 N -0.1993(4) 0.6598(3) -0.0568(3)
C1 C 0.0798(4) 0.6161(4) 0.1404(3)
C2 C 0.1201(5) 0.5966(5) 0.2413(4)
H6 H 0.0500 0.6073 0.2607
H7 H 0.1446 0.5206 0.2526
C3 C 0.2215(6) 0.6658(5) 0.2988(4)
H8 H 0.2000 0.7417 0.2837
H9 H 0.2273 0.6555 0.3615
C4 C 0.3419(7) 0.6464(5) 0.2921(5)
C5 C 0.3930(6) 0.7143(6) 0.2384(5)
H10 H 0.3471 0.7717 0.2048
C6 C 0.5031(6) 0.6960(6) 0.2364(4)
H11 H 0.5290 0.7392 0.1975
C7 C 0.5875(4) 0.6156(5) 0.2886(3)
C8 C 0.5404(7) 0.5461(5) 0.3426(4)
H12 H 0.5880 0.4901 0.3771
C9 C 0.4210(8) 0.5642(6) 0.3423(5)
H13 H 0.3920 0.5185 0.3779
C10 C 0.7163(5) 0.6125(4) 0.2889(3)
C11 C -0.2304(4) 0.7078(4) 0.0095(3)
H14 H -0.1699 0.7450 0.0545
C12 C -0.3456(4) 0.7052(4) 0.0148(3)
H15 H -0.3613 0.7399 0.0625
C13 C -0.4407(5) 0.6500(4) -0.0521(3)
C14 C -0.4056(5) 0.5982(4) -0.1212(3)
H16 H -0.4636 0.5598 -0.1670
C15 C -0.2886(4) 0.6043(4) -0.1210(3)
H17 H -0.2690 0.5689 -0.1667
C16 C -0.5628(4) 0.6437(4) -0.0491(3)
C17 C -0.6063(5) 0.7200(5) -0.0007(4)
H18 H -0.5554 0.7756 0.0315
C18 C -0.7239(5) 0.7127(5) -0.0010(4)
H19 H -0.7510 0.7638 0.0318
C19 C -0.6457(4) 0.5619(4) -0.0943(3)
H20 H -0.6208 0.5071 -0.1254
C20 C -0.7618(4) 0.5619(4) -0.0931(3)
H21 H -0.8158 0.5088 -0.1262
Cd1_2 Cd -1.00170(3) 0.64869(2) -0.051884(19)
Cd1B Cd 0.00170(3) 0.35131(2) 0.051884(19)
O2B O -0.0303(4) 0.4629(3) -0.0868(3)
N1_2 N 0.1984(4) 0.6351(3) -0.0465(3)
O7 O 0.0263(3) 0.9011(2) 0.1636(2)
H22 H -0.0015 0.8434 0.1334
H23 H 0.0977 0.9139 0.1626
O8 O 0.8237(3) 0.4947(3) 0.5246(2)
H24 H 0.7706 0.4467 0.5241
H25 H 0.8643 0.5117 0.5791
loop_
_geom_bond_atom_site_label_1
_geom_bond_atom_site_label_2
_geom_bond_site_symmetry_1
_geom_bond_site_symmetry_2
Cd1 O1 1_555 1_555
O1 C1 1_555 1_555
O2 Cd1 1_555 1_555
O3 C10 1_555 1_555
O4 H1 1_555 1_555
O5 Cd1 1_555 1_555
H2 O5 1_555 1_555
H3 O5 1_555 1_555
O6 Cd1 1_555 1_555
H4 O6 1_555 1_555
H5 O6 1_555 1_555
N1 C18 1_555 1_555
N2 Cd1 1_555 1_555
C1 O2 1_555 1_555
C2 C1 1_555 1_555
H6 C2 1_555 1_555
H7 C2 1_555 1_555
C3 C2 1_555 1_555
H8 C3 1_555 1_555
H9 C3 1_555 1_555
C4 C3 1_555 1_555
C5 C4 1_555 1_555
H10 C5 1_555 1_555
C6 C5 1_555 1_555
H11 C6 1_555 1_555
C7 C6 1_555 1_555
C8 C7 1_555 1_555
H12 C8 1_555 1_555
C9 C4 1_555 1_555
H13 C9 1_555 1_555
C10 O4 1_555 1_555
C11 N2 1_555 1_555
H14 C11 1_555 1_555
C12 C11 1_555 1_555
H15 C12 1_555 1_555
C13 C12 1_555 1_555
C14 C13 1_555 1_555
H16 C14 1_555 1_555
C15 N2 1_555 1_555
H17 C15 1_555 1_555
C16 C13 1_555 1_555
C17 C16 1_555 1_555
H18 C17 1_555 1_555
C18 C17 1_555 1_555
H19 C18 1_555 1_555
C19 C16 1_555 1_555
H20 C19 1_555 1_555
C20 N1 1_555 1_555
H21 C20 1_555 1_555
O7 H22 1_555 1_555
H23 O7 1_555 1_555
O8 H24 1_555 1_555
H25 O8 1_555 1_555
Cd1_2 N1 1_555 1_555
Cd1B O2 1_555 1_555
O2B Cd1 1_555 1_555
N1_2 Cd1 1_555 1_555
C7 C10 1_555 1_555
C8 C9 1_555 1_555
C14 C15 1_555 1_555
C19 C20 1_555 1_555
Cd1B O2B 1_555 1_555

#END
