
#######################################################################
#
#                 Cambridge Crystallographic Data Centre
#                                CCDC 
#
#######################################################################
#
# If this CIF has been generated from an entry in the Cambridge 
# Structural Database, then it will include bibliographic, chemical, 
# crystal, experimental, refinement or atomic coordinate data resulting 
# from the CCDC's data processing and validation procedures.
#
#######################################################################

data_FODDUZ
_symmetry_cell_setting           triclinic
_symmetry_space_group_name_H-M   'P -1'
_symmetry_Int_Tables_number      2
_space_group_name_Hall           '-P 1'
loop_
_symmetry_equiv_pos_site_id
_symmetry_equiv_pos_as_xyz
1 x,y,z
2 -x,-y,-z
_cell_length_a                   8.6901(11)
_cell_length_b                   10.6622(14)
_cell_length_c                   10.7588(14)
_cell_angle_alpha                71.659(2)
_cell_angle_beta                 80.212(2)
_cell_angle_gamma                84.494(2)
_cell_volume                     931.488
loop_
_atom_site_label
_atom_site_type_symbol
_atom_site_fract_x
_atom_site_fract_y
_atom_site_fract_z
C1 C 0.4373(9) 0.6935(8) 0.6111(8)
C2 C 0.4452(9) 0.7653(8) 0.4621(8)
C3 C 0.4778(11) 0.6998(9) 0.3691(9)
H1 H 0.4922 0.6081 0.3953
C4 C 0.4893(11) 0.7701(9) 0.2365(10)
H2 H 0.5121 0.7241 0.1746
C5 C 0.4209(10) 0.9011(9) 0.4178(9)
H3 H 0.3967 0.9490 0.4779
C6 C 0.4328(12) 0.9647(10) 0.2841(9)
H4 H 0.4148 1.0560 0.2557
C7 C -0.0589(9) 0.6864(8) 0.6069(8)
C8 C -0.0433(10) 0.7604(9) 0.4593(8)
C9 C 0.0453(10) 0.7066(9) 0.3669(9)
H5 H 0.0989 0.6251 0.3935
C10 C 0.0518(11) 0.7783(9) 0.2327(9)
H6 H 0.1098 0.7426 0.1699
C11 C -0.1187(11) 0.8810(10) 0.4159(9)
H7 H -0.1785 0.9187 0.4764
C12 C -0.1059(11) 0.9468(9) 0.2823(9)
H8 H -0.1570 1.0292 0.2542
N1 N 0.4690(9) 0.9017(7) 0.1934(7)
N2 N -0.0227(9) 0.8964(7) 0.1918(7)
O1 O 0.1794(7) 0.3739(6) 0.8482(6)
O2 O 0.1193(7) 0.7190(6) 0.8250(6)
O3 O 0.6382(7) 0.7241(6) 0.9283(6)
O4 O 0.6740(7) 0.4738(6) 0.7699(6)
O5 O 0.3819(7) 0.5727(6) 0.9345(6)
O6 O 0.1120(6) 0.4760(6) 1.0717(6)
O7 O 0.5170(7) 0.7384(6) 0.6722(6)
O8 O 0.3537(7) 0.5950(6) 0.6580(6)
O9 O 0.0344(7) 0.5877(6) 0.6432(6)
O10 O -0.1606(7) 0.7305(6) 0.6782(6)
O11 O 0.0901(7) 1.1422(6) 0.0439(6)
Cu1 Cu 0.5000 1.0000 0.0000
Cu2 Cu 0.0000 1.0000 0.0000
U1 U 0.14254(3) 0.54524(3) 0.84541(3)
U2 U 0.65955(3) 0.59655(3) 0.84980(3)
Cl1 Cl 0.3086(2) 0.8859(2) -0.0336(2)
C1A C -0.4373(9) 0.3065(8) 1.3889(8)
C2A C -0.4452(9) 0.2347(8) 1.5379(8)
C3A C -0.4778(11) 0.3002(9) 1.6309(9)
H1A H -0.4922 0.3919 1.6047
C4A C -0.4893(11) 0.2299(9) 1.7635(10)
H2A H -0.5121 0.2759 1.8254
C5A C -0.4209(10) 0.0989(9) 1.5822(9)
H3A H -0.3967 0.0510 1.5221
C6A C -0.4328(12) 0.0353(10) 1.7159(9)
H4A H -0.4148 -0.0560 1.7443
C7A C 0.0589(9) 0.3136(8) 1.3931(8)
C8A C 0.0433(10) 0.2396(9) 1.5407(8)
C9A C -0.0453(10) 0.2934(9) 1.6331(9)
H5A H -0.0989 0.3749 1.6065
C10A C -0.0518(11) 0.2217(9) 1.7673(9)
H6A H -0.1098 0.2574 1.8301
C11A C 0.1187(11) 0.1190(10) 1.5841(9)
H7A H 0.1785 0.0813 1.5236
C12A C 0.1059(11) 0.0532(9) 1.7177(9)
H8A H 0.1570 -0.0292 1.7458
N1A N -0.4690(9) 0.0983(7) 1.8066(7)
N2A N 0.0227(9) 0.1036(7) 1.8082(7)
O1A O -0.1794(7) 0.6261(6) 1.1518(6)
O2A O -0.1193(7) 0.2810(6) 1.1750(6)
O3A O -0.6382(7) 0.2759(6) 1.0717(6)
O4A O -0.6740(7) 0.5262(6) 1.2301(6)
O5A O -0.3819(7) 0.4273(6) 1.0655(6)
O6A O -0.1120(6) 0.5240(6) 0.9283(6)
O7A O -0.5170(7) 0.2616(6) 1.3278(6)
O8A O -0.3537(7) 0.4050(6) 1.3420(6)
O9A O -0.0344(7) 0.4123(6) 1.3568(6)
O10A O 0.1606(7) 0.2695(6) 1.3218(6)
U1A U -0.14254(3) 0.45476(3) 1.15459(3)
U2A U -0.65955(3) 0.40345(3) 1.15020(3)
O11A O -0.0901(7) 0.8578(6) -0.0439(6)
Cl1A Cl 0.6914(2) 1.1141(2) 0.0336(2)
N1A_2 N 0.5310(9) 1.0983(7) -0.1934(7)
N2A_2 N 0.0227(9) 1.1036(7) -0.1918(7)
O5_2 O -0.6181(7) 0.5727(6) 0.9345(6)
O5A_2 O 0.6181(7) 0.4273(6) 1.0655(6)
O6_2 O -0.8880(6) 0.4760(6) 1.0717(6)
O6A_2 O 0.8880(6) 0.5240(6) 0.9283(6)
O10_2 O 0.8394(7) 0.7305(6) 0.6782(6)
O10A_2 O -0.8394(7) 0.2695(6) 1.3218(6)
Cu1_2 Cu -0.5000 0.0000 2.0000
Cu2_2 Cu 0.0000 0.0000 2.0000
Cu2_3 Cu 1.0000 1.0000 0.0000
U2_2 U -0.34045(3) 0.59655(3) 0.84980(3)
U2A_2 U 0.34045(3) 0.40345(3) 1.15020(3)
Cl1A_2 Cl -0.3086(2) 1.1141(2) 0.0336(2)
loop_
_geom_bond_atom_site_label_1
_geom_bond_atom_site_label_2
_geom_bond_site_symmetry_1
_geom_bond_site_symmetry_2
C1 C2 1_555 1_555
C2 C3 1_555 1_555
C3 H1 1_555 1_555
C4 C3 1_555 1_555
H2 C4 1_555 1_555
C5 C2 1_555 1_555
H3 C5 1_555 1_555
C6 C5 1_555 1_555
H4 C6 1_555 1_555
C7 C8 1_555 1_555
C8 C9 1_555 1_555
C9 H5 1_555 1_555
C10 C9 1_555 1_555
H6 C10 1_555 1_555
C11 C8 1_555 1_555
H7 C11 1_555 1_555
C12 C11 1_555 1_555
H8 C12 1_555 1_555
N1 C4 1_555 1_555
N2 C10 1_555 1_555
O1 U1 1_555 1_555
O2 U1 1_555 1_555
O3 U2 1_555 1_555
O4 U2 1_555 1_555
O5 U1 1_555 1_555
O6 U1 1_555 1_555
O7 C1 1_555 1_555
O8 C1 1_555 1_555
O9 C7 1_555 1_555
O10 C7 1_555 1_555
O11 Cu2 1_555 1_555
Cu1 N1 1_555 1_555
Cu2 N2 1_555 1_555
U1 O8 1_555 1_555
U2 O5 1_555 1_555
Cl1 Cu1 1_555 1_555
C1A C2A 1_555 1_555
C2A C3A 1_555 1_555
C3A H1A 1_555 1_555
C4A C3A 1_555 1_555
H2A C4A 1_555 1_555
C5A C2A 1_555 1_555
H3A C5A 1_555 1_555
C6A C5A 1_555 1_555
H4A C6A 1_555 1_555
C7A C8A 1_555 1_555
C8A C9A 1_555 1_555
C9A H5A 1_555 1_555
C10A C9A 1_555 1_555
H6A C10A 1_555 1_555
C11A C8A 1_555 1_555
H7A C11A 1_555 1_555
C12A C11A 1_555 1_555
H8A C12A 1_555 1_555
N1A C4A 1_555 1_555
N2A C10A 1_555 1_555
O1A U1A 1_555 1_555
O2A U1A 1_555 1_555
O3A U2A 1_555 1_555
O4A U2A 1_555 1_555
O5A U1A 1_555 1_555
O6A U1 1_555 1_555
O7A C1A 1_555 1_555
O8A C1A 1_555 1_555
O9A C7A 1_555 1_555
O10A C7A 1_555 1_555
U1A O6 1_555 1_555
U2A O5A 1_555 1_555
O11A Cu2 1_555 1_555
Cl1A Cu1 1_555 1_555
N1A_2 Cu1 1_555 1_555
N2A_2 Cu2 1_555 1_555
O5_2 U2A 1_555 1_555
O5A_2 U2 1_555 1_555
O6_2 U2A 1_555 1_555
O6A_2 U2 1_555 1_555
O10_2 U2 1_555 1_555
O10A_2 U2A 1_555 1_555
Cu1_2 N1A 1_555 1_555
Cu2_2 N2A 1_555 1_555
Cu2_3 Cl1A 1_555 1_555
U2_2 O10 1_555 1_555
U2A_2 O5 1_555 1_555
Cl1A_2 Cu2 1_555 1_555
C6 N1 1_555 1_555
C12 N2 1_555 1_555
O6 U2A_2 1_555 1_555
O7 U2 1_555 1_555
O9 U1 1_555 1_555
Cu2 Cl1 1_555 1_555
C6A N1A 1_555 1_555
C12A N2A 1_555 1_555
O5A U2_2 1_555 1_555
O6A U1A 1_555 1_555
O6A U2_2 1_555 1_555
O7A U2A 1_555 1_555
O8A U1A 1_555 1_555
O9A U1A 1_555 1_555
O10A U2A_2 1_555 1_555
O5_2 U2_2 1_555 1_555
O5A_2 U2A_2 1_555 1_555

#END
