
#######################################################################
#
#                 Cambridge Crystallographic Data Centre
#                                CCDC 
#
#######################################################################
#
# If this CIF has been generated from an entry in the Cambridge 
# Structural Database, then it will include bibliographic, chemical, 
# crystal, experimental, refinement or atomic coordinate data resulting 
# from the CCDC's data processing and validation procedures.
#
#######################################################################

data_FODFOV
_symmetry_cell_setting           triclinic
_symmetry_space_group_name_H-M   'P -1'
_symmetry_Int_Tables_number      2
_space_group_name_Hall           '-P 1'
loop_
_symmetry_equiv_pos_site_id
_symmetry_equiv_pos_as_xyz
1 x,y,z
2 -x,-y,-z
_cell_length_a                   9.907(2)
_cell_length_b                   10.421(2)
_cell_length_c                   16.142(3)
_cell_angle_alpha                81.18(3)
_cell_angle_beta                 75.18(3)
_cell_angle_gamma                81.78(3)
_cell_volume                     1582.61
loop_
_atom_site_label
_atom_site_type_symbol
_atom_site_fract_x
_atom_site_fract_y
_atom_site_fract_z
Zn1 Zn 0.34927(3) 0.88090(3) 0.53832(2)
N1 N 0.4495(3) 0.7882(3) 0.42479(18)
N2 N 1.2674(3) -0.0271(3) -0.34613(18)
O1 O 0.5067(2) 0.7822(2) 0.59213(15)
O2 O 0.6411(3) 0.9396(2) 0.53422(17)
O3 O 1.2299(2) 0.6870(3) 0.59553(18)
O4 O 1.1490(2) 0.8668(3) 0.52719(18)
C1 C 0.4505(4) 0.8430(4) 0.3439(2)
H1 H 0.4107 0.9300 0.3354
C2 C 0.5068(5) 0.7781(4) 0.2732(3)
H2 H 0.5043 0.8206 0.2178
C3 C 0.5673(4) 0.6499(4) 0.2829(2)
C4 C 0.5683(4) 0.5941(3) 0.3668(2)
H3 H 0.6104 0.5083 0.3771
C5 C 0.5080(4) 0.6645(3) 0.4339(2)
H4 H 0.5075 0.6237 0.4901
C6 C 0.6292(5) 0.5799(4) 0.2085(2)
H5 H 0.6213 0.6240 0.1543
C7 C 0.6945(5) 0.4620(4) 0.2096(3)
H6 H 0.6977 0.4155 0.2639
C8 C 0.7646(6) 0.3944(4) 0.1320(3)
C9 C 0.6869(6) 0.3578(5) 0.0802(3)
C10 C 0.7580(6) 0.3015(5) 0.0055(3)
C11 C 0.9052(6) 0.2828(4) -0.0158(3)
C12 C 0.9826(6) 0.3155(4) 0.0375(3)
C13 C 0.9110(6) 0.3702(4) 0.1128(3)
C14 C 0.9786(6) 0.2282(5) -0.0976(3)
H7 H 0.9545 0.2727 -0.1479
C15 C 1.0719(5) 0.1265(5) -0.1084(3)
H8 H 1.0970 0.0810 -0.0586
C16 C 1.1416(5) 0.0763(4) -0.1906(3)
C17 C 1.1393(5) 0.1482(5) -0.2699(3)
H9 H 1.0965 0.2347 -0.2727
C18 C 1.1997(5) 0.0929(4) -0.3445(3)
H10 H 1.1931 0.1425 -0.3974
C19 C 1.2780(4) -0.0911(4) -0.2695(3)
H11 H 1.3300 -0.1739 -0.2684
C20 C 1.2182(5) -0.0438(4) -0.1926(3)
H12 H 1.2296 -0.0940 -0.1408
C21 C 0.5288(6) 0.3723(6) 0.1070(4)
H13 H 0.4917 0.4353 0.0653
H14 H 0.4979 0.4025 0.1635
H15 H 0.4950 0.2886 0.1095
C22 C 0.6787(7) 0.2595(7) -0.0513(4)
H16 H 0.6121 0.2007 -0.0172
H17 H 0.7441 0.2150 -0.0965
H18 H 0.6287 0.3356 -0.0772
C23 C 1.1418(6) 0.2998(6) 0.0150(3)
H19 H 1.1755 0.2226 0.0489
H20 H 1.1752 0.3762 0.0275
H21 H 1.1767 0.2907 -0.0459
C24 C 0.9921(6) 0.4072(6) 0.1722(3)
H22 H 0.9311 0.4108 0.2296
H23 H 1.0248 0.4921 0.1500
H24 H 1.0720 0.3424 0.1750
C25 C 0.7496(3) 0.7373(3) 0.5848(2)
C26 C 0.7369(3) 0.6073(3) 0.6151(3)
H25 H 0.6490 0.5752 0.6278
C27 C 0.8549(4) 0.5247(4) 0.6266(3)
C28 C 0.9842(4) 0.5690(4) 0.6090(3)
H26 H 1.0634 0.5114 0.6166
C29 C 0.9965(3) 0.7011(3) 0.5797(2)
C30 C 0.8798(3) 0.7828(3) 0.5657(2)
H27 H 0.8890 0.8706 0.5428
C31 C 0.6231(3) 0.8272(3) 0.5690(2)
C32 C 1.1353(3) 0.7523(4) 0.5663(2)
Cl1 Cl 0.83818(13) 0.35964(12) 0.66104(13)
Zn1_2 Zn 1.34927(3) -0.11910(3) -0.46168(2)
Zn1_3 Zn 1.34927(3) 0.88090(3) 0.53832(2)
Zn1A Zn 0.65073(3) 1.11910(3) 0.46168(2)
N2_2 N 0.2674(3) 0.9729(3) 0.65387(18)
O2A O 0.3589(3) 1.0604(2) 0.46578(17)
O3_2 O 0.2299(2) 0.6870(3) 0.59553(18)
O4_2 O 0.1490(2) 0.8668(3) 0.52719(18)
C33 C 0.1378(13) 1.0202(16) 0.2712(12)
H28 H 0.0976 0.9531 0.2527
H29 H 0.0697 1.0967 0.2787
H30 H 0.1627 0.9875 0.3255
C34 C 0.2454(19) 1.0501(16) 0.2153(14)
N3 N 0.344(2) 1.0686(18) 0.1693(14)
loop_
_geom_bond_atom_site_label_1
_geom_bond_atom_site_label_2
_geom_bond_site_symmetry_1
_geom_bond_site_symmetry_2
Zn1 N1 1_555 1_555
N1 C1 1_555 1_555
N2 C18 1_555 1_555
O1 Zn1 1_555 1_555
O2 C31 1_555 1_555
O3 C32 1_555 1_555
O4 C32 1_555 1_555
C1 H1 1_555 1_555
C2 C1 1_555 1_555
H2 C2 1_555 1_555
C3 C2 1_555 1_555
C4 C3 1_555 1_555
H3 C4 1_555 1_555
C5 N1 1_555 1_555
H4 C5 1_555 1_555
C6 C3 1_555 1_555
H5 C6 1_555 1_555
C7 C6 1_555 1_555
H6 C7 1_555 1_555
C8 C7 1_555 1_555
C9 C8 1_555 1_555
C10 C9 1_555 1_555
C11 C10 1_555 1_555
C12 C11 1_555 1_555
C13 C8 1_555 1_555
C14 C11 1_555 1_555
H7 C14 1_555 1_555
C15 C14 1_555 1_555
H8 C15 1_555 1_555
C16 C15 1_555 1_555
C17 C16 1_555 1_555
H9 C17 1_555 1_555
C18 C17 1_555 1_555
H10 C18 1_555 1_555
C19 N2 1_555 1_555
H11 C19 1_555 1_555
C20 C16 1_555 1_555
H12 C20 1_555 1_555
C21 C9 1_555 1_555
H13 C21 1_555 1_555
H14 C21 1_555 1_555
H15 C21 1_555 1_555
C22 C10 1_555 1_555
H16 C22 1_555 1_555
H17 C22 1_555 1_555
H18 C22 1_555 1_555
C23 C12 1_555 1_555
H19 C23 1_555 1_555
H20 C23 1_555 1_555
H21 C23 1_555 1_555
C24 C13 1_555 1_555
H22 C24 1_555 1_555
H23 C24 1_555 1_555
H24 C24 1_555 1_555
C25 C26 1_555 1_555
C26 H25 1_555 1_555
C27 C26 1_555 1_555
C28 C27 1_555 1_555
H26 C28 1_555 1_555
C29 C28 1_555 1_555
C30 C25 1_555 1_555
H27 C30 1_555 1_555
C31 O1 1_555 1_555
C32 C29 1_555 1_555
Cl1 C27 1_555 1_555
C33 H28 1_555 1_555
H29 C33 1_555 1_555
H30 C33 1_555 1_555
C34 C33 1_555 1_555
N3 C34 1_555 1_555
Zn1_2 N2 1_555 1_555
Zn1_3 O3 1_555 1_555
Zn1A O2 1_555 1_555
N2_2 Zn1 1_555 1_555
O2A Zn1 1_555 1_555
O3_2 Zn1 1_555 1_555
O4_2 Zn1 1_555 1_555
O4 Zn1_3 1_555 1_555
C4 C5 1_555 1_555
C12 C13 1_555 1_555
C19 C20 1_555 1_555
C25 C31 1_555 1_555
C29 C30 1_555 1_555

#END
