
#######################################################################
#
#                 Cambridge Crystallographic Data Centre
#                                CCDC 
#
#######################################################################
#
# If this CIF has been generated from an entry in the Cambridge 
# Structural Database, then it will include bibliographic, chemical, 
# crystal, experimental, refinement or atomic coordinate data resulting 
# from the CCDC's data processing and validation procedures.
#
#######################################################################

data_FODFIP
_symmetry_cell_setting           triclinic
_symmetry_space_group_name_H-M   'P -1'
_symmetry_Int_Tables_number      2
_space_group_name_Hall           '-P 1'
loop_
_symmetry_equiv_pos_site_id
_symmetry_equiv_pos_as_xyz
1 x,y,z
2 -x,-y,-z
_cell_length_a                   9.4258(19)
_cell_length_b                   10.052(2)
_cell_length_c                   15.309(3)
_cell_angle_alpha                97.47(3)
_cell_angle_beta                 105.32(3)
_cell_angle_gamma                103.94(3)
_cell_volume                     1328.38
loop_
_atom_site_label
_atom_site_type_symbol
_atom_site_fract_x
_atom_site_fract_y
_atom_site_fract_z
Zn1 Zn 0.65508(4) 0.87812(3) 0.54165(2)
N1 N 0.6967(2) 0.8552(2) 0.40875(15)
N2 N 1.5749(3) 0.8713(2) -0.33713(16)
O1 O 0.6485(2) 0.66472(19) 0.53526(13)
O2 O 0.8778(2) 0.81494(18) 0.59967(14)
O3 O 0.5718(2) 0.16150(19) 0.53677(15)
O4 O 0.7736(2) 0.08182(17) 0.57857(13)
C1 C 0.6145(3) 0.7372(3) 0.34520(19)
H1 H 0.5325 0.6762 0.3573
C2 C 0.6444(3) 0.7014(3) 0.26349(19)
H2 H 0.5827 0.6184 0.2209
C3 C 0.7661(3) 0.7883(3) 0.24418(19)
C4 C 0.8485(3) 0.9129(3) 0.30848(19)
H3 H 0.9290 0.9770 0.2971
C5 C 0.8110(3) 0.9417(3) 0.38927(18)
H4 H 0.8684 1.0255 0.4322
C6 C 0.8066(4) 0.7462(4) 0.1606(2)
H5 H 0.7272 0.6917 0.1077
C7 C 0.9468(4) 0.7803(3) 0.1556(2)
H6 H 1.0234 0.8316 0.2106
C8 C 1.0016(3) 0.7489(3) 0.0745(2)
C9 C 1.1236(3) 0.6896(3) 0.08621(19)
C10 C 1.1962(3) 0.6804(3) 0.0177(2)
C11 C 1.1434(3) 0.7308(3) -0.06290(19)
C12 C 1.0122(4) 0.7763(3) -0.0786(2)
C13 C 0.9407(4) 0.7878(4) -0.0098(2)
C14 C 1.2302(4) 0.7346(4) -0.1314(2)
H7 H 1.2054 0.6531 -0.1768
C15 C 1.3386(4) 0.8435(3) -0.1332(2)
H8 H 1.3636 0.9239 -0.0868
C16 C 1.4246(3) 0.8518(3) -0.2006(2)
C17 C 1.4295(4) 0.7336(3) -0.2566(2)
H9 H 1.3825 0.6440 -0.2491
C18 C 1.5033(3) 0.7476(3) -0.3232(2)
H10 H 1.5031 0.6657 -0.3608
C19 C 1.5758(4) 0.9846(3) -0.2813(2)
H11 H 1.6275 1.0728 -0.2886
C20 C 1.5044(4) 0.9797(3) -0.2127(2)
H12 H 1.5103 1.0632 -0.1744
C21 C 1.1759(4) 0.6320(4) 0.1721(2)
H13 H 1.1181 0.6503 0.2138
H14 H 1.2845 0.6772 0.2028
H15 H 1.1586 0.5318 0.1545
C22 C 1.3284(4) 0.6192(4) 0.0303(2)
H16 H 1.4163 0.6812 0.0794
H17 H 1.3545 0.6083 -0.0269
H18 H 1.3000 0.5284 0.0464
C23 C 0.9465(4) 0.8160(4) -0.1703(2)
H19 H 0.8368 0.7703 -0.1941
H20 H 0.9958 0.7861 -0.2144
H21 H 0.9650 0.9167 -0.1608
C24 C 0.8056(4) 0.8473(5) -0.0260(3)
H22 H 0.8253 0.9263 -0.0557
H23 H 0.7908 0.8780 0.0329
H24 H 0.7139 0.7758 -0.0654
C25 C 0.8573(3) 0.5714(2) 0.58668(16)
C26 C 1.0147(3) 0.5926(3) 0.61274(19)
H25 H 1.0815 0.6838 0.6260
C27 C 1.0739(3) 0.4786(3) 0.6192(2)
H26 H 1.1806 0.4928 0.6353
C28 C 0.9762(3) 0.3447(3) 0.60204(18)
H27 H 1.0167 0.2681 0.6064
C29 C 0.8178(3) 0.3230(2) 0.57826(16)
C30 C 0.7587(3) 0.4368(2) 0.56893(16)
H28 H 0.6519 0.4224 0.5506
C31 C 0.7919(3) 0.6920(3) 0.57369(17)
C32 C 0.7118(3) 0.1782(2) 0.56181(16)
Zn1_2 Zn 0.65508(4) -0.12188(3) 0.54165(2)
Zn1_3 Zn 1.65508(4) 0.87812(3) -0.45835(2)
Zn1A Zn 0.34492(4) 0.12188(3) 0.45835(2)
N2_2 N 0.5749(3) 0.8713(2) 0.66287(16)
O3A O 0.4282(2) 0.83850(19) 0.46323(15)
O4_2 O 0.7736(2) 1.08182(17) 0.57857(13)
loop_
_geom_bond_atom_site_label_1
_geom_bond_atom_site_label_2
_geom_bond_site_symmetry_1
_geom_bond_site_symmetry_2
Zn1 N1 1_555 1_555
N1 C1 1_555 1_555
N2 C18 1_555 1_555
O1 Zn1 1_555 1_555
O2 Zn1 1_555 1_555
O3 C32 1_555 1_555
O4 C32 1_555 1_555
C1 H1 1_555 1_555
C2 C1 1_555 1_555
H2 C2 1_555 1_555
C3 C2 1_555 1_555
C4 C3 1_555 1_555
H3 C4 1_555 1_555
C5 N1 1_555 1_555
H4 C5 1_555 1_555
C6 C3 1_555 1_555
H5 C6 1_555 1_555
C7 C6 1_555 1_555
H6 C7 1_555 1_555
C8 C7 1_555 1_555
C9 C8 1_555 1_555
C10 C9 1_555 1_555
C11 C10 1_555 1_555
C12 C11 1_555 1_555
C13 C8 1_555 1_555
C14 C11 1_555 1_555
H7 C14 1_555 1_555
C15 C14 1_555 1_555
H8 C15 1_555 1_555
C16 C15 1_555 1_555
C17 C16 1_555 1_555
H9 C17 1_555 1_555
C18 C17 1_555 1_555
H10 C18 1_555 1_555
C19 N2 1_555 1_555
H11 C19 1_555 1_555
C20 C16 1_555 1_555
H12 C20 1_555 1_555
C21 C9 1_555 1_555
H13 C21 1_555 1_555
H14 C21 1_555 1_555
H15 C21 1_555 1_555
C22 C10 1_555 1_555
H16 C22 1_555 1_555
H17 C22 1_555 1_555
H18 C22 1_555 1_555
C23 C12 1_555 1_555
H19 C23 1_555 1_555
H20 C23 1_555 1_555
H21 C23 1_555 1_555
C24 C13 1_555 1_555
H22 C24 1_555 1_555
H23 C24 1_555 1_555
H24 C24 1_555 1_555
C25 C26 1_555 1_555
C26 H25 1_555 1_555
C27 C26 1_555 1_555
H26 C27 1_555 1_555
C28 C27 1_555 1_555
H27 C28 1_555 1_555
C29 C28 1_555 1_555
C30 C25 1_555 1_555
H28 C30 1_555 1_555
C31 O1 1_555 1_555
C32 C29 1_555 1_555
Zn1_2 O4 1_555 1_555
Zn1_3 N2 1_555 1_555
Zn1A O3 1_555 1_555
N2_2 Zn1 1_555 1_555
O3A Zn1 1_555 1_555
O4_2 Zn1 1_555 1_555
O2 C31 1_555 1_555
C4 C5 1_555 1_555
C12 C13 1_555 1_555
C19 C20 1_555 1_555
C25 C31 1_555 1_555
C29 C30 1_555 1_555

#END
