
#######################################################################
#
#                 Cambridge Crystallographic Data Centre
#                                CCDC 
#
#######################################################################
#
# If this CIF has been generated from an entry in the Cambridge 
# Structural Database, then it will include bibliographic, chemical, 
# crystal, experimental, refinement or atomic coordinate data resulting 
# from the CCDC's data processing and validation procedures.
#
#######################################################################

data_FODGAI
_symmetry_cell_setting           monoclinic
_symmetry_space_group_name_H-M   'P 21/c'
_symmetry_Int_Tables_number      14
_space_group_name_Hall           '-P 2ybc'
loop_
_symmetry_equiv_pos_site_id
_symmetry_equiv_pos_as_xyz
1 x,y,z
2 -x,1/2+y,1/2-z
3 -x,-y,-z
4 x,1/2-y,1/2+z
_cell_length_a                   16.096(3)
_cell_length_b                   7.6958(15)
_cell_length_c                   16.148(3)
_cell_angle_alpha                90
_cell_angle_beta                 99.06(3)
_cell_angle_gamma                90
_cell_volume                     1975.32
loop_
_atom_site_label
_atom_site_type_symbol
_atom_site_fract_x
_atom_site_fract_y
_atom_site_fract_z
Zn1 Zn 0.36549(5) 0.50407(6) 0.21078(4)
N1 N 0.2662(3) 0.6572(5) 0.1632(2)
N2 N 0.4693(3) 0.8787(4) 0.6700(2)
H1 H 0.4984 0.9604 0.6456
H2 H 0.5041 0.8349 0.7151
O1 O 0.3724(3) 0.5343(4) 0.3312(2)
O2 O 0.4232(2) 0.8045(4) 0.34908(19)
O3 O 0.3504(3) 0.1527(4) 0.5687(2)
O4 O 0.3868(2) 0.2475(4) 0.69781(19)
C1 C 0.2464(4) 0.7946(7) 0.2083(3)
H3 H 0.2698 0.8000 0.2653
C2 C 0.1943(4) 0.9266(8) 0.1756(4)
H4 H 0.1829 1.0192 0.2101
C3 C 0.1587(4) 0.9239(7) 0.0931(4)
C4 C 0.1784(5) 0.7803(8) 0.0456(4)
H5 H 0.1558 0.7728 -0.0117
C5 C 0.2301(4) 0.6524(7) 0.0823(3)
H6 H 0.2409 0.5565 0.0496
C6 C 0.1073(4) 1.0640(9) 0.0518(4)
H7 H 0.0730 1.0374 0.0007
C7 C 0.1044(5) 1.2261(8) 0.0795(4)
H8 H 0.1385 1.2530 0.1307
C8 C 0.0047(9) 1.4181(13) 0.1750(5)
H9 H -0.0084 1.5198 0.2060
H10 H 0.0602 1.3758 0.1983
H11 H -0.0367 1.3281 0.1792
C9 C 0.0029(6) 1.4652(10) 0.0850(5)
C10 C 0.0519(5) 1.3682(8) 0.0368(4)
C11 C 0.0518(6) 1.4082(9) -0.0481(4)
C12 C 0.1104(8) 1.3184(13) -0.0984(6)
H12 H 0.0809 1.2239 -0.1302
H13 H 0.1583 1.2726 -0.0608
H14 H 0.1297 1.4009 -0.1366
C13 C 0.4081(3) 0.6358(5) 0.4704(3)
C14 C 0.3868(3) 0.4764(5) 0.5000(3)
H15 H 0.3667 0.3876 0.4621
C15 C 0.3951(3) 0.4467(5) 0.5862(3)
C16 C 0.4227(3) 0.5788(5) 0.6418(3)
H16 H 0.4268 0.5605 0.6998
C17 C 0.4446(3) 0.7410(5) 0.6109(2)
C18 C 0.4368(3) 0.7684(5) 0.5254(2)
H17 H 0.4510 0.8768 0.5047
C19 C 0.4014(3) 0.6637(5) 0.3762(2)
C20 C 0.3753(3) 0.2709(5) 0.6188(3)
N1B N -0.2662(3) 2.3428(5) -0.1632(2)
C1B C -0.2464(4) 2.2054(7) -0.2083(3)
H3B H -0.2698 2.2000 -0.2653
C2B C -0.1943(4) 2.0734(8) -0.1756(4)
H4B H -0.1829 1.9808 -0.2101
C3B C -0.1587(4) 2.0761(7) -0.0931(4)
C4B C -0.1784(5) 2.2197(8) -0.0456(4)
H5B H -0.1558 2.2272 0.0117
C5B C -0.2301(4) 2.3476(7) -0.0823(3)
H6B H -0.2409 2.4435 -0.0496
C6B C -0.1073(4) 1.9360(9) -0.0518(4)
H7B H -0.0730 1.9626 -0.0007
C7B C -0.1044(5) 1.7739(8) -0.0795(4)
H8B H -0.1385 1.7470 -0.1307
C8B C -0.0047(9) 1.5819(13) -0.1750(5)
H9B H 0.0084 1.4802 -0.2060
H10B H -0.0602 1.6242 -0.1983
H11B H 0.0367 1.6719 -0.1792
C9B C -0.0029(6) 1.5348(10) -0.0850(5)
C10B C -0.0519(5) 1.6318(8) -0.0368(4)
C11B C -0.0518(6) 1.5918(9) 0.0481(4)
C12B C -0.1104(8) 1.6816(13) 0.0984(6)
H12B H -0.0809 1.7761 0.1302
H13B H -0.1583 1.7274 0.0608
H14B H -0.1297 1.5991 0.1366
Zn1B Zn -0.36549(5) 2.49593(6) -0.21078(4)
N2B N -0.4693(3) 2.1213(4) -0.6700(2)
H1B H -0.4984 2.0396 -0.6456
H2B H -0.5041 2.1651 -0.7151
O1B O -0.3724(3) 2.4657(4) -0.3312(2)
O2B O -0.4232(2) 2.1955(4) -0.34908(19)
O3B O -0.3504(3) 2.8473(4) -0.5687(2)
O4B O -0.3868(2) 2.7525(4) -0.69781(19)
C13B C -0.4081(3) 2.3642(5) -0.4704(3)
C14B C -0.3868(3) 2.5236(5) -0.5000(3)
H15B H -0.3667 2.6124 -0.4621
C15B C -0.3951(3) 2.5533(5) -0.5862(3)
C16B C -0.4227(3) 2.4212(5) -0.6418(3)
H16B H -0.4268 2.4395 -0.6998
C17B C -0.4446(3) 2.2590(5) -0.6109(2)
C18B C -0.4368(3) 2.2316(5) -0.5254(2)
H17B H -0.4510 2.1232 -0.5047
C19B C -0.4014(3) 2.3363(5) -0.3762(2)
C20B C -0.3753(3) 2.7291(5) -0.6188(3)
Zn1A Zn -0.36549(5) 2.00407(6) -0.71078(4)
Zn1A_2 Zn -0.36549(5) 3.00407(6) -0.71078(4)
Zn1C Zn 0.36549(5) -0.00407(6) 0.71078(4)
Zn1C_2 Zn 0.36549(5) 0.99593(6) 0.71078(4)
N2A N -0.4693(3) 2.3787(4) -0.1700(2)
N2C N 0.4693(3) 0.6213(4) 0.1700(2)
O3A O -0.3504(3) 2.6527(4) -0.0687(2)
O3C O 0.3504(3) 0.3473(4) 0.0687(2)
O4A O -0.3868(2) 2.7475(4) -0.19781(19)
O4C O 0.3868(2) 0.2525(4) 0.19781(19)
O5 O 0.3095(6) 0.0725(11) 0.3886(5)
H18 H 0.3312 0.1081 0.4370
H19 H 0.3166 -0.0354 0.3810
O6 O 0.2305(7) 0.3244(12) 0.2771(7)
H20 H 0.2751 0.2802 0.3041
H21 H 0.1989 0.4106 0.2828
loop_
_geom_bond_atom_site_label_1
_geom_bond_atom_site_label_2
_geom_bond_site_symmetry_1
_geom_bond_site_symmetry_2
Zn1 N1 1_555 1_555
N1 C1 1_555 1_555
N2 H1 1_555 1_555
H2 N2 1_555 1_555
O1 Zn1 1_555 1_555
O2 C19 1_555 1_555
O3 C20 1_555 1_555
O4 C20 1_555 1_555
C1 H3 1_555 1_555
C2 C1 1_555 1_555
H4 C2 1_555 1_555
C3 C2 1_555 1_555
C4 C3 1_555 1_555
H5 C4 1_555 1_555
C5 N1 1_555 1_555
H6 C5 1_555 1_555
C6 C3 1_555 1_555
H7 C6 1_555 1_555
C7 C6 1_555 1_555
H8 C7 1_555 1_555
C8 H9 1_555 1_555
H10 C8 1_555 1_555
H11 C8 1_555 1_555
C9 C8 1_555 1_555
C10 C7 1_555 1_555
C11 C10 1_555 1_555
C12 C11 1_555 1_555
H12 C12 1_555 1_555
H13 C12 1_555 1_555
H14 C12 1_555 1_555
C13 C14 1_555 1_555
C14 H15 1_555 1_555
C15 C14 1_555 1_555
C16 C15 1_555 1_555
H16 C16 1_555 1_555
C17 N2 1_555 1_555
C18 C13 1_555 1_555
H17 C18 1_555 1_555
C19 O1 1_555 1_555
C20 C15 1_555 1_555
O5 H18 1_555 1_555
H19 O5 1_555 1_555
O6 H20 1_555 1_555
H21 O6 1_555 1_555
N1B C1B 1_555 1_555
C1B H3B 1_555 1_555
C2B C1B 1_555 1_555
H4B C2B 1_555 1_555
C3B C2B 1_555 1_555
C4B C3B 1_555 1_555
H5B C4B 1_555 1_555
C5B N1B 1_555 1_555
H6B C5B 1_555 1_555
C6B C3B 1_555 1_555
H7B C6B 1_555 1_555
C7B C6B 1_555 1_555
H8B C7B 1_555 1_555
C8B H9B 1_555 1_555
H10B C8B 1_555 1_555
H11B C8B 1_555 1_555
C9B C11 1_555 1_555
C10B C7B 1_555 1_555
C11B C9 1_555 1_555
C12B C11B 1_555 1_555
H12B C12B 1_555 1_555
H13B C12B 1_555 1_555
H14B C12B 1_555 1_555
Zn1B N1B 1_555 1_555
N2B H1B 1_555 1_555
H2B N2B 1_555 1_555
O1B Zn1B 1_555 1_555
O2B C19B 1_555 1_555
O3B C20B 1_555 1_555
O4B C20B 1_555 1_555
C13B C14B 1_555 1_555
C14B H15B 1_555 1_555
C15B C14B 1_555 1_555
C16B C15B 1_555 1_555
H16B C16B 1_555 1_555
C17B N2B 1_555 1_555
C18B C13B 1_555 1_555
H17B C18B 1_555 1_555
C19B O1B 1_555 1_555
C20B C15B 1_555 1_555
Zn1A N2B 1_555 1_555
Zn1A_2 O3B 1_555 1_555
Zn1C O3 1_555 1_555
Zn1C_2 N2 1_555 1_555
N2A Zn1B 1_555 1_555
N2C Zn1 1_555 1_555
O3A Zn1B 1_555 1_555
O3C Zn1 1_555 1_555
O4A Zn1B 1_555 1_555
O4C Zn1 1_555 1_555
O4 Zn1C 1_555 1_555
C4 C5 1_555 1_555
C9 C10 1_555 1_555
C13 C19 1_555 1_555
C16 C17 1_555 1_555
C17 C18 1_555 1_555
C4B C5B 1_555 1_555
C8B C9B 1_555 1_555
C9B C10B 1_555 1_555
C10B C11B 1_555 1_555
O4B Zn1A_2 1_555 1_555
C13B C19B 1_555 1_555
C16B C17B 1_555 1_555
C17B C18B 1_555 1_555

#END
