
#######################################################################
#
#                 Cambridge Crystallographic Data Centre
#                                CCDC 
#
#######################################################################
#
# If this CIF has been generated from an entry in the Cambridge 
# Structural Database, then it will include bibliographic, chemical, 
# crystal, experimental, refinement or atomic coordinate data resulting 
# from the CCDC's data processing and validation procedures.
#
#######################################################################

data_FODGUB02
_symmetry_cell_setting           monoclinic
_symmetry_space_group_name_H-M   'P 21/c'
_symmetry_Int_Tables_number      14
_space_group_name_Hall           '-P 2ybc'
loop_
_symmetry_equiv_pos_site_id
_symmetry_equiv_pos_as_xyz
1 x,y,z
2 -x,1/2+y,1/2-z
3 -x,-y,-z
4 x,1/2-y,1/2+z
_cell_length_a                   10.4291(9)
_cell_length_b                   6.0983(5)
_cell_length_c                   15.2762(13)
_cell_angle_alpha                90
_cell_angle_beta                 106.992(2)
_cell_angle_gamma                90
_cell_volume                     929.15
loop_
_atom_site_label
_atom_site_type_symbol
_atom_site_fract_x
_atom_site_fract_y
_atom_site_fract_z
Cd1 Cd 0.52491(2) 0.79042(3) 1.312057(15)
Cd2 Cd 0.56953(2) 0.76824(3) 1.060454(14)
O1 O 0.5740(2) 0.6115(4) 1.19771(13)
H1 H 0.6561(15) 0.580(7) 1.218(3)
O2 O 0.5551(2) 0.5581(3) 1.42396(13)
H2 H 0.6338(16) 0.508(5) 1.434(2)
O3 O 1.3769(2) 0.9279(4) 1.49094(15)
O4 O 1.2162(2) 0.7017(3) 1.50426(16)
O5 O 0.7402(2) 0.9052(4) 1.34886(15)
O6 O 0.7017(3) 1.1941(4) 1.25511(18)
N1 N 1.1961(3) 1.2247(4) 1.39984(18)
C1 C 1.1514(3) 1.0331(5) 1.42276(19)
C2 C 1.0167(3) 0.9796(5) 1.39821(18)
H3 H 0.9890 0.8452 1.4151
C3 C 0.9229(3) 1.1298(5) 1.34785(19)
C4 C 0.9699(3) 1.3291(6) 1.3263(2)
H4 H 0.9102 1.4337 1.2933
C5 C 1.1058(3) 1.3713(5) 1.3541(2)
H5 H 1.1359 1.5071 1.3405
C6 C 1.2552(3) 0.8722(5) 1.47741(19)
C7 C 0.7759(3) 1.0729(5) 1.3154(2)
Cd1A Cd 0.47509(2) 0.29042(3) 1.187943(15)
Cd1A_2 Cd 0.47509(2) 1.29042(3) 1.187943(15)
Cd2C Cd 0.56953(2) 0.73176(3) 1.560454(14)
Cd2A Cd 0.43047(2) 0.26824(3) 1.439546(14)
Cd2C_2 Cd 1.56953(2) 0.73176(3) 1.560454(14)
Cd2A_2 Cd 1.43047(2) 1.26824(3) 1.439546(14)
O1A O 0.4260(2) 1.1115(4) 1.30229(13)
H1A H 0.3439(15) 1.080(7) 1.282(3)
O2C O 0.5551(2) 0.9419(3) 0.92396(13)
O2A O 0.4449(2) 1.0581(3) 1.07604(13)
H2C H 0.6338(16) 0.992(5) 0.934(2)
H2A H 0.3662(16) 1.008(5) 1.066(2)
O3C O 0.3769(2) 0.5721(4) 0.99094(15)
O3A O 0.6231(2) 0.4279(4) 1.00906(15)
O6A O 0.2983(3) 0.6941(4) 1.24489(18)
N1A N 0.8039(3) 0.7247(4) 1.10016(18)
loop_
_geom_bond_atom_site_label_1
_geom_bond_atom_site_label_2
_geom_bond_site_symmetry_1
_geom_bond_site_symmetry_2
Cd1 O1 1_555 1_555
Cd2 O1 1_555 1_555
O1 H1 1_555 1_555
O2 Cd1 1_555 1_555
H2 O2 1_555 1_555
O3 C6 1_555 1_555
O4 C6 1_555 1_555
O5 Cd1 1_555 1_555
O6 C7 1_555 1_555
N1 C1 1_555 1_555
C1 C2 1_555 1_555
C2 H3 1_555 1_555
C3 C2 1_555 1_555
C4 C3 1_555 1_555
H4 C4 1_555 1_555
C5 N1 1_555 1_555
H5 C5 1_555 1_555
C6 C1 1_555 1_555
C7 O5 1_555 1_555
Cd1A O1 1_555 1_555
Cd1A_2 O6 1_555 1_555
Cd2C O2 1_555 1_555
Cd2A O2 1_555 1_555
Cd2C_2 O3 1_555 1_555
Cd2A_2 O3 1_555 1_555
O1A Cd1 1_555 1_555
H1A O1A 1_555 1_555
O2C Cd2 1_555 1_555
O2A Cd2 1_555 1_555
H2C O2C 1_555 1_555
H2A O2A 1_555 1_555
O3C Cd2 1_555 1_555
O3A Cd2 1_555 1_555
O6A Cd1 1_555 1_555
N1A Cd2 1_555 1_555
N1 Cd2A_2 1_555 1_555
C3 C7 1_555 1_555
C4 C5 1_555 1_555
Cd1A_2 O1A 1_555 1_555
Cd1A_2 O2A 1_555 1_555

#END
