
#######################################################################
#
#                 Cambridge Crystallographic Data Centre
#                                CCDC 
#
#######################################################################
#
# If this CIF has been generated from an entry in the Cambridge 
# Structural Database, then it will include bibliographic, chemical, 
# crystal, experimental, refinement or atomic coordinate data resulting 
# from the CCDC's data processing and validation procedures.
#
#######################################################################

data_FODGUB01
_symmetry_cell_setting           monoclinic
_symmetry_space_group_name_H-M   'P 21/c'
_symmetry_Int_Tables_number      14
_space_group_name_Hall           '-P 2ybc'
loop_
_symmetry_equiv_pos_site_id
_symmetry_equiv_pos_as_xyz
1 x,y,z
2 -x,1/2+y,1/2-z
3 -x,-y,-z
4 x,1/2-y,1/2+z
_cell_length_a                   10.523(6)
_cell_length_b                   11.065(8)
_cell_length_c                   8.061(4)
_cell_angle_alpha                90
_cell_angle_beta                 94.643(12)
_cell_angle_gamma                90
_cell_volume                     935.519
loop_
_atom_site_label
_atom_site_type_symbol
_atom_site_fract_x
_atom_site_fract_y
_atom_site_fract_z
Cd1 Cd 0.39767(3) 0.47303(2) 0.65287(4)
Cd2 Cd 0.39014(3) 0.76300(2) 0.49889(4)
O1 O 0.4041(3) 0.5702(3) 0.4102(4)
H1 H 0.348(4) 0.560(5) 0.330(5)
O2 O 0.4315(3) 0.6620(3) 0.7528(3)
H2 H 0.5122(11) 0.666(6) 0.766(9)
O3 O 0.4205(3) 0.3558(3) 0.8928(4)
O4 O 0.3165(3) 0.2185(4) 1.0294(6)
O5 O -0.1620(3) 0.2482(3) 1.0121(5)
O6 O -0.2541(3) 0.4061(3) 0.8888(4)
N1 N 0.2005(3) 0.4505(3) 0.7551(4)
C1 C 0.1941(4) 0.3619(3) 0.8680(5)
C2 C 0.0801(4) 0.3230(4) 0.9246(5)
H3 H 0.0789 0.2598 1.0005
C3 C -0.0323(4) 0.3799(3) 0.8661(5)
C4 C -0.0265(4) 0.4732(4) 0.7526(5)
H4 H -0.1001 0.5137 0.7126
C5 C 0.0913(2) 0.5055(2) 0.6992(3)
H5 H 0.0946 0.5675 0.6218
C6 C 0.3199(2) 0.3069(2) 0.9364(3)
C7 C -0.1570(2) 0.3414(2) 0.9271(3)
Cd1B Cd 0.60233(3) 0.52697(2) 0.34713(4)
Cd1C Cd 0.39767(3) 0.02697(2) 1.15287(4)
Cd2C Cd 0.39014(3) 0.73700(2) 0.99889(4)
Cd2A Cd 0.60986(3) 0.26300(2) 1.00111(4)
Cd2A_2 Cd -0.39014(3) 0.26300(2) 1.00111(4)
O1B O 0.5959(3) 0.4298(3) 0.5898(4)
H1B H 0.652(4) 0.440(5) 0.670(5)
O2C O 0.4315(3) 0.8380(3) 0.2528(3)
H2C H 0.5122(11) 0.834(6) 0.266(9)
O3A O 0.5795(3) 0.8558(3) 0.6072(4)
O4C O 0.3165(3) 0.2815(4) 0.5294(6)
O5A O 0.1620(3) 0.7482(3) 0.4879(5)
O6A O 0.2541(3) 0.9061(3) 0.6112(4)
loop_
_geom_bond_atom_site_label_1
_geom_bond_atom_site_label_2
_geom_bond_site_symmetry_1
_geom_bond_site_symmetry_2
Cd1 O1 1_555 1_555
Cd2 O1 1_555 1_555
O1 H1 1_555 1_555
O2 Cd1 1_555 1_555
H2 O2 1_555 1_555
O3 Cd1 1_555 1_555
O4 C6 1_555 1_555
O5 C7 1_555 1_555
O6 C7 1_555 1_555
N1 Cd1 1_555 1_555
C1 N1 1_555 1_555
C2 C1 1_555 1_555
H3 C2 1_555 1_555
C3 C2 1_555 1_555
C4 C3 1_555 1_555
H4 C4 1_555 1_555
C5 N1 1_555 1_555
H5 C5 1_555 1_555
C6 O3 1_555 1_555
C7 C3 1_555 1_555
Cd1B O1 1_555 1_555
Cd1C O4 1_555 1_555
Cd2C O2 1_555 1_555
Cd2A O3 1_555 1_555
Cd2A_2 O5 1_555 1_555
O1B Cd1 1_555 1_555
H1B O1B 1_555 1_555
O2C Cd2 1_555 1_555
H2C O2C 1_555 1_555
O3A Cd2 1_555 1_555
O4C Cd1 1_555 1_555
O5A Cd2 1_555 1_555
O6A Cd2 1_555 1_555
Cd2 O2 1_555 1_555
O6 Cd2A_2 1_555 1_555
C1 C6 1_555 1_555
C4 C5 1_555 1_555
Cd1B O1B 1_555 1_555

#END
