
#######################################################################
#
#                 Cambridge Crystallographic Data Centre
#                                CCDC 
#
#######################################################################
#
# If this CIF has been generated from an entry in the Cambridge 
# Structural Database, then it will include bibliographic, chemical, 
# crystal, experimental, refinement or atomic coordinate data resulting 
# from the CCDC's data processing and validation procedures.
#
#######################################################################

data_FODGOW
_symmetry_cell_setting           monoclinic
_symmetry_space_group_name_H-M   'P 21/c'
_symmetry_Int_Tables_number      14
_space_group_name_Hall           '-P 2ybc'
loop_
_symmetry_equiv_pos_site_id
_symmetry_equiv_pos_as_xyz
1 x,y,z
2 -x,1/2+y,1/2-z
3 -x,-y,-z
4 x,1/2-y,1/2+z
_cell_length_a                   7.9048(16)
_cell_length_b                   13.300(3)
_cell_length_c                   19.304(4)
_cell_angle_alpha                90
_cell_angle_beta                 95.11(3)
_cell_angle_gamma                90
_cell_volume                     2021.44
loop_
_atom_site_label
_atom_site_type_symbol
_atom_site_fract_x
_atom_site_fract_y
_atom_site_fract_z
Sr1 Sr 0.27251(2) 1.077237(14) 0.503154(10)
O1 O 0.23938(19) 0.92717(10) 0.58157(8)
O2 O 0.43429(19) 1.15436(10) 0.40658(9)
H1 H 0.4491 1.2171 0.4013
H2 H 0.5297 1.1245 0.4089
O3 O 0.44857(18) 0.93432(10) 1.43103(8)
O4 O -0.01039(18) 0.85036(10) 0.56442(7)
O5 O 0.11436(19) 1.13737(10) 0.60455(8)
H3 H 0.0252 1.1031 0.6091
H4 H 0.0871 1.1978 0.5945
O6 O 0.17881(18) 0.96435(10) 1.39790(7)
O7 O 0.44676(19) 0.85643(10) 1.10516(8)
O8 O 0.1164(2) 0.80378(10) 0.89210(7)
O9 O 0.1157(2) 1.17337(10) 0.91836(8)
H5 H 0.0890 1.2329 0.9194
C1 C 0.5460(3) 0.87441(15) 1.22315(12)
H6 H 0.6546 0.8604 1.2109
C2 C 0.1163(3) 0.86316(14) 0.68064(11)
C3 C 0.1669(3) 0.97457(15) 0.93188(11)
H7 H 0.1070 1.0000 0.8921
C4 C 0.2469(3) 0.89815(15) 1.19016(12)
H8 H 0.1565 0.8992 1.1559
O10 O 0.26859(18) 1.21165(10) 1.01794(8)
C5 C 0.2203(3) 0.91590(14) 1.25902(12)
H9 H 0.1113 0.9299 1.2710
C6 C 0.2343(3) 1.03862(16) 0.98357(11)
C7 C -0.0335(3) 0.83864(15) 0.70956(11)
H10 H -0.1344 0.8337 0.6811
C8 C 0.2668(3) 0.87156(15) 0.72364(12)
H11 H 0.3667 0.8895 0.7048
C9 C 0.1901(3) 0.87157(15) 0.94027(11)
C10 C 0.3252(3) 0.93677(14) 1.38465(11)
C11 C 0.4104(3) 0.87882(14) 1.17318(11)
C12 C 0.5174(3) 0.89136(15) 1.29243(12)
H12 H 0.6078 0.8882 1.3267
C13 C 0.2685(3) 0.85334(15) 0.79418(12)
H13 H 0.3692 0.8579 0.8228
C14 C 0.1179(3) 0.82821(14) 0.82170(11)
C15 C 0.3252(3) 1.00130(15) 1.04339(11)
H14 H 0.3714 1.0445 1.0779
C16 C 0.3557(3) 0.91290(14) 1.31075(11)
C17 C -0.0338(3) 0.82144(15) 0.78044(11)
H15 H -0.1341 0.8057 0.7998
C18 C 0.3448(3) 0.89796(15) 1.04989(11)
C19 C 0.2782(3) 0.83153(17) 0.99889(11)
H16 H 0.2925 0.7625 1.0041
C20 C 0.2097(3) 1.15007(16) 0.97588(12)
C21 C 0.1163(3) 0.88177(15) 0.60393(11)
Sr1_2 Sr 0.27251(2) 1.077237(14) 1.503154(10)
Sr1B Sr -0.27251(2) 0.922763(14) 0.496846(10)
Sr1B_2 Sr 0.72749(2) 0.922763(14) 1.496846(10)
Sr1C Sr 0.27251(2) 1.422763(14) 1.003154(10)
O3_2 O 0.44857(18) 0.93432(10) 0.43103(8)
O3B O 0.55143(18) 1.06568(10) 0.56897(8)
O4B O 0.01039(18) 1.14964(10) 0.43558(7)
O6_2 O 0.17881(18) 0.96435(10) 0.39790(7)
O10C O 0.26859(18) 1.28835(10) 0.51794(8)
loop_
_geom_bond_atom_site_label_1
_geom_bond_atom_site_label_2
_geom_bond_site_symmetry_1
_geom_bond_site_symmetry_2
Sr1 O1 1_555 1_555
O1 C21 1_555 1_555
O2 Sr1 1_555 1_555
H1 O2 1_555 1_555
H2 O2 1_555 1_555
O3 C10 1_555 1_555
O4 C21 1_555 1_555
O5 Sr1 1_555 1_555
H3 O5 1_555 1_555
H4 O5 1_555 1_555
O6 C10 1_555 1_555
O7 C11 1_555 1_555
O8 C9 1_555 1_555
O9 H5 1_555 1_555
C1 H6 1_555 1_555
C2 C7 1_555 1_555
C3 H7 1_555 1_555
C4 H8 1_555 1_555
O10 C20 1_555 1_555
C5 C4 1_555 1_555
H9 C5 1_555 1_555
C6 C3 1_555 1_555
C7 H10 1_555 1_555
C8 C2 1_555 1_555
H11 C8 1_555 1_555
C9 C3 1_555 1_555
C10 C16 1_555 1_555
C11 C1 1_555 1_555
C12 C1 1_555 1_555
H12 C12 1_555 1_555
C13 C8 1_555 1_555
H13 C13 1_555 1_555
C14 O8 1_555 1_555
C15 C6 1_555 1_555
H14 C15 1_555 1_555
C16 C5 1_555 1_555
C17 C7 1_555 1_555
H15 C17 1_555 1_555
C18 O7 1_555 1_555
C19 C9 1_555 1_555
H16 C19 1_555 1_555
C20 O9 1_555 1_555
C21 C2 1_555 1_555
Sr1_2 O3 1_555 1_555
Sr1B O4 1_555 1_555
Sr1B_2 O3 1_555 1_555
Sr1C O10 1_555 1_555
O3_2 Sr1 1_555 1_555
O3B Sr1 1_555 1_555
O4B Sr1 1_555 1_555
O6_2 Sr1 1_555 1_555
O10C Sr1 1_555 1_555
O6 Sr1_2 1_555 1_555
C4 C11 1_555 1_555
C6 C20 1_555 1_555
C12 C16 1_555 1_555
C13 C14 1_555 1_555
C14 C17 1_555 1_555
C15 C18 1_555 1_555
C18 C19 1_555 1_555

#END
