
#######################################################################
#
#                 Cambridge Crystallographic Data Centre
#                                CCDC 
#
#######################################################################
#
# If this CIF has been generated from an entry in the Cambridge 
# Structural Database, then it will include bibliographic, chemical, 
# crystal, experimental, refinement or atomic coordinate data resulting 
# from the CCDC's data processing and validation procedures.
#
#######################################################################

data_FODHAI01
_symmetry_cell_setting           monoclinic
_symmetry_space_group_name_H-M   'P 21/c'
_symmetry_Int_Tables_number      14
_space_group_name_Hall           '-P 2ybc'
loop_
_symmetry_equiv_pos_site_id
_symmetry_equiv_pos_as_xyz
1 x,y,z
2 -x,1/2+y,1/2-z
3 -x,-y,-z
4 x,1/2-y,1/2+z
_cell_length_a                   19.0317(8)
_cell_length_b                   7.4124(4)
_cell_length_c                   26.3256(12)
_cell_angle_alpha                90
_cell_angle_beta                 90.092(2)
_cell_angle_gamma                90
_cell_volume                     3713.76
loop_
_atom_site_label
_atom_site_type_symbol
_atom_site_fract_x
_atom_site_fract_y
_atom_site_fract_z
Co1 Co 1.022658(19) 0.18012(6) 1.171582(17)
Co2 Co 0.91573(2) 0.25819(6) 1.054147(18)
Co3 Co 0.479031(19) 0.26618(5) 0.920227(17)
Co4 Co 0.58325(2) 0.36254(5) 0.803616(16)
C1 C 1.07392(15) 0.2346(4) 1.06961(13)
C2 C 1.13861(15) 0.1960(4) 1.10063(12)
C3 C 1.20483(14) 0.2080(4) 1.07943(13)
H1 H 1.2104 0.2416 1.0448
C4 C 1.26290(15) 0.1703(4) 1.10919(13)
C5 C 1.33598(15) 0.1829(4) 1.08662(13)
C6 C 1.25269(15) 0.1206(5) 1.15921(13)
H2 H 1.2916 0.0925 1.1804
C7 C 1.18426(16) 0.1123(5) 1.17822(12)
H3 H 1.1774 0.0783 1.2126
C8 C 0.86311(14) 0.2837(4) 0.66782(12)
C9 C 0.90152(15) 0.2826(4) 0.94312(13)
C10 C 0.82658(15) 0.3035(4) 0.96179(12)
C11 C 0.76995(15) 0.3158(4) 0.92970(12)
H4 H 0.7765 0.3148 0.8939
C12 C 0.70253(15) 0.3298(4) 0.95011(12)
C13 C 0.63760(15) 0.3341(4) 0.91660(12)
C14 C 0.69658(15) 0.3374(5) 1.00241(13)
H5 H 0.6517 0.3503 1.0178
C15 C 0.75573(16) 0.3261(5) 1.03199(13)
H6 H 0.7507 0.3330 1.0678
C16 C 0.42656(15) 0.3494(4) 0.82091(12)
C17 C 0.36161(15) 0.2965(4) 0.85097(12)
C18 C 0.29519(14) 0.3111(4) 0.83049(13)
H7 H 0.2888 0.3566 0.7971
C19 C 0.23781(16) 0.2586(4) 0.85922(13)
C20 C 0.16466(15) 0.2712(4) 0.83749(13)
C21 C 0.25012(16) 0.1915(5) 0.90758(14)
H8 H 0.2121 0.1518 0.9281
C22 C 0.31823(16) 0.1828(5) 0.92559(13)
H9 H 0.3261 0.1375 0.9589
C23 C 0.59801(14) 0.3083(4) 0.69274(13)
C24 C 0.67323(14) 0.3282(4) 0.71128(12)
C25 C 0.73036(14) 0.2969(4) 0.68031(12)
H10 H 0.7237 0.2616 0.6460
C26 C 0.79755(14) 0.3175(4) 0.69979(12)
C27 C 0.80404(15) 0.3725(5) 0.75004(12)
H11 H 0.8492 0.3906 0.7646
C28 C 0.74438(15) 0.4006(5) 0.77856(12)
H12 H 0.7497 0.4387 0.8128
N1 N 1.12813(12) 0.1506(3) 1.14950(10)
N2 N 0.82033(12) 0.3059(4) 1.01269(10)
N3 N 0.37346(13) 0.2355(3) 0.89817(10)
N4 N 0.67929(13) 0.3769(4) 0.76045(10)
O1 O 1.01474(10) 0.2159(3) 1.09301(9)
O2 O 1.08141(12) 0.2787(4) 1.02539(9)
O3 O 1.38691(10) 0.1390(3) 1.11466(8)
O4 O 1.34090(12) 0.2359(4) 1.04188(10)
O5 O 0.91967(11) 0.2960(3) 0.69135(9)
O6 O 0.85476(10) 0.2496(3) 0.62165(9)
O7 O 0.94739(11) 0.2508(3) 0.97595(9)
O8 O 0.91157(12) 0.2975(3) 0.89603(9)
O9 O 0.58220(11) 0.2850(3) 0.93873(9)
O10 O 0.64414(10) 0.3839(3) 0.87169(8)
O11 O 0.48567(10) 0.3214(3) 0.84264(8)
O12 O 0.41808(11) 0.4144(3) 0.77870(8)
O13 O 0.15814(12) 0.3448(4) 0.79521(10)
O14 O 0.11511(11) 0.2078(4) 0.86361(10)
O15 O 0.55031(10) 0.3257(3) 0.72565(8)
O16 O 0.58914(11) 0.2789(3) 0.64628(8)
O17 O 1.00958(10) -0.0987(3) 1.16817(9)
O18 O 1.04239(13) 0.4573(3) 1.17872(10)
O19 O 1.03485(11) 0.1674(3) 1.25198(9)
O20 O 0.93613(12) 0.5263(3) 1.06200(9)
O21 O 0.90509(14) -0.0155(3) 1.05057(9)
O22 O 0.49029(10) -0.0153(3) 0.91697(8)
O23 O 0.45777(12) 0.5398(3) 0.93122(9)
O24 O 0.46525(11) 0.2425(3) 1.00060(9)
O25 O 0.56899(11) 0.6351(3) 0.80469(9)
O26 O 0.59481(14) 0.0916(3) 0.80666(9)
H13 H 1.0756(12) 0.174(5) 1.2630(15)
H14 H 1.0163(18) 0.252(4) 1.2648(16)
H15 H 0.603(2) 0.027(4) 0.8309(10)
H16 H 0.586(2) 0.029(5) 0.7837(10)
H17 H 1.0470(19) 0.518(5) 1.1519(10)
H18 H 1.0104(15) 0.508(5) 1.1920(13)
H19 H 0.9702(11) -0.129(5) 1.1602(15)
H20 H 1.0380(15) -0.150(5) 1.1514(14)
H21 H 0.5378(16) 0.695(5) 0.7947(15)
H22 H 0.5882(18) 0.687(5) 0.8276(12)
H23 H 0.4883(17) 0.163(4) 1.0140(15)
H24 H 0.4248(12) 0.242(5) 1.0114(16)
H25 H 0.4810(19) 0.581(5) 0.9533(11)
H26 H 0.450(2) 0.603(5) 0.9076(11)
H27 H 0.4640(15) -0.070(5) 0.8986(13)
H28 H 0.5295(11) -0.049(5) 0.9103(15)
H29 H 0.895(2) -0.073(5) 1.0752(10)
H30 H 0.922(2) -0.080(5) 1.0296(11)
H31 H 0.941(2) 0.587(5) 1.0373(10)
H32 H 0.920(2) 0.585(5) 1.0843(10)
Co1C Co 1.022658(19) 0.31988(6) 0.671582(17)
Co2C Co 0.91573(2) 0.24181(6) 0.554147(18)
O5C O 0.91967(11) 0.2040(3) 1.19135(9)
O6C O 0.85476(10) 0.2504(3) 1.12165(9)
loop_
_geom_bond_atom_site_label_1
_geom_bond_atom_site_label_2
_geom_bond_site_symmetry_1
_geom_bond_site_symmetry_2
Co1 N1 1_555 1_555
Co2 N2 1_555 1_555
Co3 N3 1_555 1_555
Co4 N4 1_555 1_555
C1 C2 1_555 1_555
C2 C3 1_555 1_555
C3 H1 1_555 1_555
C4 C3 1_555 1_555
C5 C4 1_555 1_555
C6 C4 1_555 1_555
H2 C6 1_555 1_555
C7 C6 1_555 1_555
H3 C7 1_555 1_555
C8 C26 1_555 1_555
C9 C10 1_555 1_555
C10 C11 1_555 1_555
C11 H4 1_555 1_555
C12 C11 1_555 1_555
C13 C12 1_555 1_555
C14 C12 1_555 1_555
H5 C14 1_555 1_555
C15 C14 1_555 1_555
H6 C15 1_555 1_555
C16 C17 1_555 1_555
C17 C18 1_555 1_555
C18 H7 1_555 1_555
C19 C18 1_555 1_555
C20 C19 1_555 1_555
C21 C19 1_555 1_555
H8 C21 1_555 1_555
C22 C21 1_555 1_555
H9 C22 1_555 1_555
C23 C24 1_555 1_555
C24 C25 1_555 1_555
C25 H10 1_555 1_555
C26 C25 1_555 1_555
C27 C26 1_555 1_555
H11 C27 1_555 1_555
C28 C27 1_555 1_555
H12 C28 1_555 1_555
N1 C2 1_555 1_555
N2 C10 1_555 1_555
N3 C17 1_555 1_555
N4 C24 1_555 1_555
O1 Co1 1_555 1_555
O2 C1 1_555 1_555
O3 C5 1_555 1_555
O4 C5 1_555 1_555
O5 C8 1_555 1_555
O6 C8 1_555 1_555
O7 Co2 1_555 1_555
O8 C9 1_555 1_555
O9 Co3 1_555 1_555
O10 Co4 1_555 1_555
O11 Co3 1_555 1_555
O12 C16 1_555 1_555
O13 C20 1_555 1_555
O14 C20 1_555 1_555
O15 Co4 1_555 1_555
O16 C23 1_555 1_555
O17 Co1 1_555 1_555
O18 Co1 1_555 1_555
O19 Co1 1_555 1_555
O20 Co2 1_555 1_555
O21 Co2 1_555 1_555
O22 Co3 1_555 1_555
O23 Co3 1_555 1_555
O24 Co3 1_555 1_555
O25 Co4 1_555 1_555
O26 Co4 1_555 1_555
H13 O19 1_555 1_555
H14 O19 1_555 1_555
H15 O26 1_555 1_555
H16 O26 1_555 1_555
H17 O18 1_555 1_555
H18 O18 1_555 1_555
H19 O17 1_555 1_555
H20 O17 1_555 1_555
H21 O25 1_555 1_555
H22 O25 1_555 1_555
H23 O24 1_555 1_555
H24 O24 1_555 1_555
H25 O23 1_555 1_555
H26 O23 1_555 1_555
H27 O22 1_555 1_555
H28 O22 1_555 1_555
H29 O21 1_555 1_555
H30 O21 1_555 1_555
H31 O20 1_555 1_555
H32 O20 1_555 1_555
Co1C O5 1_555 1_555
Co2C O6 1_555 1_555
O5C Co1 1_555 1_555
O6C Co2 1_555 1_555
Co2 O1 1_555 1_555
Co4 O11 1_555 1_555
C1 O1 1_555 1_555
C7 N1 1_555 1_555
C9 O7 1_555 1_555
C13 O9 1_555 1_555
C13 O10 1_555 1_555
C15 N2 1_555 1_555
C16 O11 1_555 1_555
C22 N3 1_555 1_555
C23 O15 1_555 1_555
C28 N4 1_555 1_555

#END
