
#######################################################################
#
#                 Cambridge Crystallographic Data Centre
#                                CCDC 
#
#######################################################################
#
# If this CIF has been generated from an entry in the Cambridge 
# Structural Database, then it will include bibliographic, chemical, 
# crystal, experimental, refinement or atomic coordinate data resulting 
# from the CCDC's data processing and validation procedures.
#
#######################################################################

data_FODHIQ02
_symmetry_cell_setting           monoclinic
_symmetry_space_group_name_H-M   'P 21/c'
_symmetry_Int_Tables_number      14
_space_group_name_Hall           '-P 2ybc'
loop_
_symmetry_equiv_pos_site_id
_symmetry_equiv_pos_as_xyz
1 x,y,z
2 -x,1/2+y,1/2-z
3 -x,-y,-z
4 x,1/2-y,1/2+z
_cell_length_a                   5.0445(5)
_cell_length_b                   10.3733(10)
_cell_length_c                   15.5878(16)
_cell_angle_alpha                90
_cell_angle_beta                 92.152(2)
_cell_angle_gamma                90
_cell_volume                     815.105
loop_
_atom_site_label
_atom_site_type_symbol
_atom_site_fract_x
_atom_site_fract_y
_atom_site_fract_z
Cu1 Cu -0.90471(6) 0.13308(3) 0.01560(2)
Cu2 Cu -1.0000 0.5000 0.0000
O1 O -0.7922(4) 0.5454(2) -0.09990(15)
O2 O -1.1844(4) 0.04083(19) -0.04588(12)
O3 O -1.0095(4) 0.2912(2) -0.03760(13)
O4 O -1.2989(4) 0.43083(19) -0.08415(14)
O5 O -1.3980(4) -0.2037(2) -0.07180(14)
O6 O -1.7968(4) -0.19858(19) -0.13169(14)
C1 C -1.3858(5) 0.2139(3) -0.12541(18)
C2 C -1.3675(5) 0.0813(3) -0.10397(17)
C3 C -1.5543(5) -0.0054(3) -0.14107(17)
C4 C -1.7378(5) 0.0400(3) -0.20337(18)
H1 H -1.8597 -0.0172 -0.2285
C5 C -1.7428(6) 0.1674(3) -0.2285(2)
H2 H -1.8598 0.1944 -0.2724
C6 C -1.5749(6) 0.2538(3) -0.18861(18)
H3 H -1.5857 0.3405 -0.2035
C7 C -1.2263(5) 0.3150(3) -0.08141(18)
C8 C -1.5823(6) -0.1434(3) -0.11307(18)
H4 H -0.641(3) 0.511(2) -0.100(2)
H5 H -0.782(6) 0.6265(10) -0.104(3)
Cu1B Cu -1.09529(6) -0.13308(3) -0.01560(2)
Cu1B_2 Cu -1.09529(6) 0.86692(3) -0.01560(2)
Cu1_2 Cu -0.90471(6) 1.13308(3) 0.01560(2)
Cu1B_3 Cu -2.09529(6) -0.13308(3) -0.01560(2)
Cu1_3 Cu 0.09529(6) 1.13308(3) 0.01560(2)
O1B O -1.2078(4) 0.4546(2) 0.09990(15)
O2B O -0.8156(4) -0.04083(19) 0.04588(12)
O2B_2 O -0.8156(4) 0.95917(19) 0.04588(12)
O2_2 O -1.1844(4) 1.04083(19) -0.04588(12)
O3B O -0.9905(4) 0.7088(2) 0.03760(13)
O4B O -0.7011(4) 0.56917(19) 0.08415(14)
O5_2 O -1.3980(4) 0.7963(2) -0.07180(14)
O5B O -0.6020(4) 0.2037(2) 0.07180(14)
O5B_2 O -0.6020(4) 1.2037(2) 0.07180(14)
O6_2 O -0.7968(4) 0.80142(19) -0.13169(14)
O6B O -1.2032(4) 0.19858(19) 0.13169(14)
O6B_2 O -0.2032(4) 1.19858(19) 0.13169(14)
C1B C -0.6142(5) 0.7861(3) 0.12541(18)
C2B C -0.6325(5) 0.9187(3) 0.10397(17)
C3B C -0.4457(5) 1.0054(3) 0.14107(17)
C4B C -0.2622(5) 0.9600(3) 0.20337(18)
H1B H -0.1403 1.0172 0.2285
C5B C -0.2572(6) 0.8326(3) 0.2285(2)
H2B H -0.1402 0.8056 0.2724
C6B C -0.4251(6) 0.7462(3) 0.18861(18)
H3B H -0.4143 0.6595 0.2035
C7B C -0.7737(5) 0.6850(3) 0.08141(18)
C8B C -0.4177(6) 1.1434(3) 0.11307(18)
H4B H -1.359(3) 0.489(2) 0.100(2)
H5B H -1.218(6) 0.3735(10) 0.104(3)
loop_
_geom_bond_atom_site_label_1
_geom_bond_atom_site_label_2
_geom_bond_site_symmetry_1
_geom_bond_site_symmetry_2
Cu1 O2 1_555 1_555
Cu2 O1 1_555 1_555
O1 H4 1_555 1_555
O2 C2 1_555 1_555
O3 Cu1 1_555 1_555
O4 Cu2 1_555 1_555
O5 C8 1_555 1_555
O6 C8 1_555 1_555
C1 C2 1_555 1_555
C2 C3 1_555 1_555
C3 C4 1_555 1_555
C4 H1 1_555 1_555
C5 C4 1_555 1_555
H2 C5 1_555 1_555
C6 C1 1_555 1_555
H3 C6 1_555 1_555
C7 O3 1_555 1_555
C8 C3 1_555 1_555
H5 O1 1_555 1_555
Cu1B O2 1_555 1_555
Cu1B_2 O2B_2 1_555 1_555
Cu1_2 O2B_2 1_555 1_555
Cu1B_3 O6 1_555 1_555
Cu1_3 O6B_2 1_555 1_555
O1B Cu2 1_555 1_555
O2B Cu1 1_555 1_555
O2B_2 C2B 1_555 1_555
O2_2 Cu1B_2 1_555 1_555
O3B Cu2 1_555 1_555
O4B Cu2 1_555 1_555
O5_2 Cu1B_2 1_555 1_555
O5B Cu1 1_555 1_555
O5B_2 Cu1_2 1_555 1_555
O6_2 Cu1B_2 1_555 1_555
O6B Cu1 1_555 1_555
O6B_2 C8B 1_555 1_555
C1B C2B 1_555 1_555
C2B C3B 1_555 1_555
C3B C4B 1_555 1_555
C4B H1B 1_555 1_555
C5B C4B 1_555 1_555
H2B C5B 1_555 1_555
C6B C1B 1_555 1_555
H3B C6B 1_555 1_555
C7B O3B 1_555 1_555
C8B O5B_2 1_555 1_555
H4B O1B 1_555 1_555
H5B O1B 1_555 1_555
Cu2 O3 1_555 1_555
O4 C7 1_555 1_555
O5 Cu1B 1_555 1_555
C1 C7 1_555 1_555
C5 C6 1_555 1_555
Cu1B O2B 1_555 1_555
Cu1B_2 O3B 1_555 1_555
Cu1_2 O2_2 1_555 1_555
O4B C7B 1_555 1_555
C1B C7B 1_555 1_555
C3B C8B 1_555 1_555
C5B C6B 1_555 1_555

#END
