
#######################################################################
#
#                 Cambridge Crystallographic Data Centre
#                                CCDC 
#
#######################################################################
#
# If this CIF has been generated from an entry in the Cambridge 
# Structural Database, then it will include bibliographic, chemical, 
# crystal, experimental, refinement or atomic coordinate data resulting 
# from the CCDC's data processing and validation procedures.
#
#######################################################################

data_FODHEN
_symmetry_cell_setting           monoclinic
_symmetry_space_group_name_H-M   'P 21/n'
_symmetry_Int_Tables_number      14
_space_group_name_Hall           '-P 2yn'
loop_
_symmetry_equiv_pos_site_id
_symmetry_equiv_pos_as_xyz
1 x,y,z
2 1/2-x,1/2+y,1/2-z
3 -x,-y,-z
4 1/2+x,1/2-y,1/2+z
_cell_length_a                   21.8098(15)
_cell_length_b                   10.4421(7)
_cell_length_c                   13.9042(10)
_cell_angle_alpha                90
_cell_angle_beta                 104.1840(10)
_cell_angle_gamma                90
_cell_volume                     3070.01
loop_
_atom_site_label
_atom_site_type_symbol
_atom_site_fract_x
_atom_site_fract_y
_atom_site_fract_z
C1 C 0.33603(18) 0.0833(3) -0.8420(3)
C2 C 0.39496(17) 0.0903(3) -0.7578(3)
C3 C 0.44567(19) 0.0154(4) -0.7657(3)
H1 H 0.4428 -0.0338 -0.8223
C4 C 0.5009(2) 0.0123(4) -0.6902(3)
H2 H 0.5347 -0.0387 -0.6964
C5 C 0.50540(19) 0.0850(4) -0.6061(3)
H3 H 0.5422 0.0834 -0.5553
C6 C 0.45504(18) 0.1600(4) -0.5978(3)
H4 H 0.4584 0.2091 -0.5410
C7 C 0.39941(17) 0.1642(3) -0.6720(3)
C8 C 0.34662(17) 0.2509(4) -0.6607(3)
C9 C 0.17229(18) 0.0579(3) -1.1504(3)
C10 C 0.10982(17) 0.0448(3) -1.2249(3)
C11 C 0.06034(19) 0.1171(4) -1.2080(3)
H5 H 0.0671 0.1675 -1.1512
C12 C 0.0015(2) 0.1167(5) -1.2725(4)
H6 H -0.0308 0.1674 -1.2602
C13 C -0.0090(2) 0.0395(5) -1.3563(4)
H7 H -0.0485 0.0386 -1.4008
C14 C 0.03924(19) -0.0361(4) -1.3735(3)
H8 H 0.0315 -0.0895 -1.4288
C15 C 0.09892(17) -0.0333(4) -1.3095(3)
C16 C 0.15103(18) -0.1159(3) -1.3302(3)
C17 C 0.1348(2) 0.2490(4) -0.8303(3)
H9 H 0.1374 0.3315 -0.8043
C18 C 0.0809(2) 0.1850(4) -0.8719(3)
H10 H 0.0395 0.2134 -0.8803
C19 C 0.1009(2) 0.0684(4) -0.8990(3)
H11 H 0.0739 0.0036 -0.9298
C20 C 0.2832(2) -0.3353(4) -1.0857(3)
H12 H 0.2768 -0.3801 -1.1452
C21 C 0.3314(2) -0.3504(4) -1.0053(3)
H13 H 0.3649 -0.4076 -0.9977
C22 C 0.3209(2) -0.2625(4) -0.9357(3)
H14 H 0.3471 -0.2521 -0.8725
C23 C 0.2250(2) 0.4701(4) -0.9125(3)
H15 H 0.2303 0.5126 -0.8522
C24 C 0.1785(2) 0.4907(4) -0.9946(3)
H16 H 0.1459 0.5503 -1.0030
C25 C 0.18968(19) 0.4043(4) -1.0640(3)
H17 H 0.1646 0.3962 -1.1282
C26 C 0.3684(2) -0.1192(4) -1.1655(3)
H18 H 0.3653 -0.2001 -1.1942
C27 C 0.4225(2) -0.0611(4) -1.1139(3)
H19 H 0.4635 -0.0937 -1.1002
C28 C 0.4035(2) 0.0556(4) -1.0868(3)
H20 H 0.4306 0.1165 -1.0502
N1 N 0.16351(15) 0.0599(3) -0.8759(2)
N2 N 0.18330(16) 0.1734(3) -0.8332(2)
H21 H 0.2223 0.1942 -0.8107
N3 N 0.26910(15) -0.1962(3) -0.9710(2)
N4 N 0.24616(16) -0.2434(3) -1.0638(2)
H22 H 0.2118 -0.2173 -1.1038
N5 N 0.24080(15) 0.3349(3) -1.0265(2)
N6 N 0.26231(16) 0.3775(3) -0.9329(2)
H23 H 0.2956 0.3490 -0.8918
N7 N 0.34165(15) 0.0708(3) -1.1193(2)
N8 N 0.32120(16) -0.0393(3) -1.1671(2)
H24 H 0.2823 -0.0556 -1.1951
O1 O 0.29501(12) 0.0040(2) -0.82804(18)
O2 O 0.33325(13) 0.1485(3) -0.91745(19)
O3 O 0.35122(12) 0.3013(2) -0.57611(18)
O4 O 0.30134(12) 0.2723(2) -0.73381(18)
O5 O 0.21050(12) 0.1375(2) -1.17112(18)
O6 O 0.18059(13) -0.0061(3) -1.07309(19)
O7 O 0.14031(12) -0.1675(2) -1.41607(18)
O8 O 0.20053(12) -0.1328(2) -1.26457(18)
Cu1 Cu 0.21885(2) -0.07069(4) -0.91454(4)
Cu2 Cu 0.28872(2) 0.20788(4) -1.08452(4)
O3A O 0.14878(12) -0.1987(2) -0.92389(18)
O4A O 0.19866(12) -0.2277(2) -0.76619(18)
O7A O 0.35969(12) 0.3325(2) -1.08393(18)
O8A O 0.29947(12) 0.3672(2) -1.23543(18)
Cu1A Cu 0.28115(2) 0.42931(4) -0.58546(4)
Cu2A Cu 0.21128(2) -0.29212(4) -1.41548(4)
O9 O 0.4154(4) 0.2593(6) -0.3736(5)
H25 H 0.411(5) 0.301(7) -0.425(4)
H26 H 0.421(5) 0.302(7) -0.322(4)
loop_
_geom_bond_atom_site_label_1
_geom_bond_atom_site_label_2
_geom_bond_site_symmetry_1
_geom_bond_site_symmetry_2
C1 C2 1_555 1_555
C2 C3 1_555 1_555
C3 H1 1_555 1_555
C4 C3 1_555 1_555
H2 C4 1_555 1_555
C5 C4 1_555 1_555
H3 C5 1_555 1_555
C6 C5 1_555 1_555
H4 C6 1_555 1_555
C7 C2 1_555 1_555
C8 C7 1_555 1_555
C9 C10 1_555 1_555
C10 C11 1_555 1_555
C11 H5 1_555 1_555
C12 C11 1_555 1_555
H6 C12 1_555 1_555
C13 C12 1_555 1_555
H7 C13 1_555 1_555
C14 C13 1_555 1_555
H8 C14 1_555 1_555
C15 C10 1_555 1_555
C16 C15 1_555 1_555
C17 H9 1_555 1_555
C18 C17 1_555 1_555
H10 C18 1_555 1_555
C19 C18 1_555 1_555
H11 C19 1_555 1_555
C20 H12 1_555 1_555
C21 C20 1_555 1_555
H13 C21 1_555 1_555
C22 C21 1_555 1_555
H14 C22 1_555 1_555
C23 H15 1_555 1_555
C24 C23 1_555 1_555
H16 C24 1_555 1_555
C25 C24 1_555 1_555
H17 C25 1_555 1_555
C26 H18 1_555 1_555
C27 C26 1_555 1_555
H19 C27 1_555 1_555
C28 C27 1_555 1_555
H20 C28 1_555 1_555
N1 C19 1_555 1_555
N2 C17 1_555 1_555
H21 N2 1_555 1_555
N3 C22 1_555 1_555
N4 C20 1_555 1_555
H22 N4 1_555 1_555
N5 C25 1_555 1_555
N6 C23 1_555 1_555
H23 N6 1_555 1_555
N7 C28 1_555 1_555
N8 C26 1_555 1_555
H24 N8 1_555 1_555
O1 C1 1_555 1_555
O2 C1 1_555 1_555
O3 C8 1_555 1_555
O4 C8 1_555 1_555
O5 C9 1_555 1_555
O6 C9 1_555 1_555
O7 C16 1_555 1_555
O8 C16 1_555 1_555
Cu1 N1 1_555 1_555
Cu2 N5 1_555 1_555
O9 H25 1_555 1_555
H26 O9 1_555 1_555
O3A Cu1 1_555 1_555
O4A Cu1 1_555 1_555
O7A Cu2 1_555 1_555
O8A Cu2 1_555 1_555
Cu1A O3 1_555 1_555
Cu2A O7 1_555 1_555
C6 C7 1_555 1_555
C14 C15 1_555 1_555
N1 N2 1_555 1_555
N3 N4 1_555 1_555
N3 Cu1 1_555 1_555
N5 N6 1_555 1_555
N7 N8 1_555 1_555
N7 Cu2 1_555 1_555
O1 Cu1 1_555 1_555
O2 Cu2 1_555 1_555
O4 Cu1A 1_555 1_555
O5 Cu2 1_555 1_555
O6 Cu1 1_555 1_555
O8 Cu2A 1_555 1_555

#END
