
#######################################################################
#
#                 Cambridge Crystallographic Data Centre
#                                CCDC 
#
#######################################################################
#
# If this CIF has been generated from an entry in the Cambridge 
# Structural Database, then it will include bibliographic, chemical, 
# crystal, experimental, refinement or atomic coordinate data resulting 
# from the CCDC's data processing and validation procedures.
#
#######################################################################

data_FODHIQ01
_symmetry_cell_setting           monoclinic
_symmetry_space_group_name_H-M   'P 21/c'
_symmetry_Int_Tables_number      14
_space_group_name_Hall           '-P 2ybc'
loop_
_symmetry_equiv_pos_site_id
_symmetry_equiv_pos_as_xyz
1 x,y,z
2 -x,1/2+y,1/2-z
3 -x,-y,-z
4 x,1/2-y,1/2+z
_cell_length_a                   5.0349(3)
_cell_length_b                   10.4216(7)
_cell_length_c                   15.6392(11)
_cell_angle_alpha                90.00
_cell_angle_beta                 91.977(2)
_cell_angle_gamma                90.00
_cell_volume                     820.127
loop_
_atom_site_label
_atom_site_type_symbol
_atom_site_fract_x
_atom_site_fract_y
_atom_site_fract_z
Cu1 Cu 0.40422(7) -0.63254(3) 0.48503(2)
Cu2 Cu 0.5000 0.0000 0.5000
O1 O 0.3147(4) -0.45959(19) 0.45437(14)
O2 O 0.1027(4) -0.7040(2) 0.42854(15)
O3 O 0.4898(4) -0.21053(19) 0.46159(14)
O4 O 0.1996(4) -0.0712(2) 0.41552(15)
O5 O -0.2962(4) -0.6997(2) 0.36809(15)
O6 O 0.7067(4) 0.0451(2) 0.40095(16)
H1 H 0.721(6) 0.1251(10) 0.394(2)
H2 H 0.854(4) 0.008(3) 0.400(2)
C1 C 0.1324(5) -0.4194(3) 0.39620(18)
C2 C 0.1126(5) -0.2878(3) 0.37431(19)
C3 C -0.0753(6) -0.2483(3) 0.31153(19)
H3 H -0.0860 -0.1620 0.2967
C4 C -0.2441(7) -0.3348(3) 0.2714(2)
H4 H -0.3620 -0.3081 0.2279
C5 C -0.2362(6) -0.4622(3) 0.2966(2)
H5 H -0.3556 -0.5199 0.2711
C6 C -0.0548(6) -0.5061(3) 0.35883(19)
C7 C -0.0816(6) -0.6445(3) 0.38672(19)
C8 C 0.2737(6) -0.1860(3) 0.4187(2)
Cu1B Cu 0.59578(7) 0.63254(3) 0.51497(2)
Cu1B_2 Cu 0.59578(7) -0.36746(3) 0.51497(2)
Cu1_2 Cu -0.59578(7) -0.63254(3) 0.48503(2)
Cu1_3 Cu 0.40422(7) 0.36746(3) 0.48503(2)
Cu1B_3 Cu 1.59578(7) 0.63254(3) 0.51497(2)
O1B O 0.6853(4) 0.45959(19) 0.54563(14)
O1B_2 O 0.6853(4) -0.54041(19) 0.54563(14)
O1_2 O 0.3147(4) 0.54041(19) 0.45437(14)
O2B O 0.8973(4) 0.7040(2) 0.57146(15)
O3B O 0.5102(4) 0.21053(19) 0.53841(14)
O3B_2 O 0.5102(4) -0.78947(19) 0.53841(14)
O3_2 O 0.4898(4) 0.78947(19) 0.46159(14)
O4B O 0.8004(4) 0.0712(2) 0.58448(15)
O5B O 1.2962(4) 0.6997(2) 0.63191(15)
O5_2 O 0.7038(4) -0.6997(2) 0.36809(15)
O5B_2 O 0.2962(4) 0.6997(2) 0.63191(15)
O6B O 0.2933(4) -0.0451(2) 0.59905(16)
H1B H 0.279(6) -0.1251(10) 0.606(2)
H2B H 0.146(4) -0.008(3) 0.600(2)
C1B C 0.8676(5) 0.4194(3) 0.60380(18)
C2B C 0.8874(5) 0.2878(3) 0.62569(19)
C3B C 1.0753(6) 0.2483(3) 0.68847(19)
H3B H 1.0860 0.1620 0.7033
C4B C 1.2441(7) 0.3348(3) 0.7286(2)
H4B H 1.3620 0.3081 0.7721
C5B C 1.2362(6) 0.4622(3) 0.7034(2)
H5B H 1.3556 0.5199 0.7289
C6B C 1.0548(6) 0.5061(3) 0.64117(19)
C7B C 1.0816(6) 0.6445(3) 0.61328(19)
C8B C 0.7263(6) 0.1860(3) 0.5813(2)
loop_
_geom_bond_atom_site_label_1
_geom_bond_atom_site_label_2
_geom_bond_site_symmetry_1
_geom_bond_site_symmetry_2
Cu1 O1 1_555 1_555
Cu2 O3 1_555 1_555
O1 C1 1_555 1_555
O2 Cu1 1_555 1_555
O3 C8 1_555 1_555
O4 Cu2 1_555 1_555
O5 C7 1_555 1_555
O6 Cu2 1_555 1_555
H1 O6 1_555 1_555
H2 O6 1_555 1_555
C1 C2 1_555 1_555
C2 C3 1_555 1_555
C3 H3 1_555 1_555
C4 C3 1_555 1_555
H4 C4 1_555 1_555
C5 C4 1_555 1_555
H5 C5 1_555 1_555
C6 C1 1_555 1_555
C7 O2 1_555 1_555
C8 O4 1_555 1_555
Cu1B O1B 1_555 1_555
Cu1B_2 O1 1_555 1_555
Cu1_2 O5 1_555 1_555
Cu1_3 O1B 1_555 1_555
Cu1B_3 O5B 1_555 1_555
O1B C1B 1_555 1_555
O1B_2 Cu1 1_555 1_555
O1_2 Cu1B 1_555 1_555
O2B Cu1B 1_555 1_555
O3B Cu2 1_555 1_555
O3B_2 Cu1 1_555 1_555
O3_2 Cu1B 1_555 1_555
O4B Cu2 1_555 1_555
O5B C7B 1_555 1_555
O5_2 Cu1 1_555 1_555
O5B_2 Cu1B 1_555 1_555
O6B Cu2 1_555 1_555
H1B O6B 1_555 1_555
H2B O6B 1_555 1_555
C1B C2B 1_555 1_555
C2B C3B 1_555 1_555
C3B H3B 1_555 1_555
C4B C3B 1_555 1_555
H4B C4B 1_555 1_555
C5B C4B 1_555 1_555
H5B C5B 1_555 1_555
C6B C1B 1_555 1_555
C7B O2B 1_555 1_555
C8B O3B 1_555 1_555
O3 Cu1B_2 1_555 1_555
C2 C8 1_555 1_555
C5 C6 1_555 1_555
C6 C7 1_555 1_555
Cu1B_2 O1B_2 1_555 1_555
Cu1_3 O1_2 1_555 1_555
Cu1_3 O3B 1_555 1_555
O4B C8B 1_555 1_555
C2B C8B 1_555 1_555
C5B C6B 1_555 1_555
C6B C7B 1_555 1_555

#END
