
#######################################################################
#
#                 Cambridge Crystallographic Data Centre
#                                CCDC 
#
#######################################################################
#
# If this CIF has been generated from an entry in the Cambridge 
# Structural Database, then it will include bibliographic, chemical, 
# crystal, experimental, refinement or atomic coordinate data resulting 
# from the CCDC's data processing and validation procedures.
#
#######################################################################

data_FODHIR
_symmetry_cell_setting           triclinic
_symmetry_space_group_name_H-M   'P -1'
_symmetry_Int_Tables_number      2
_space_group_name_Hall           '-P 1'
loop_
_symmetry_equiv_pos_site_id
_symmetry_equiv_pos_as_xyz
1 x,y,z
2 -x,-y,-z
_cell_length_a                   10.3366(19)
_cell_length_b                   11.036(2)
_cell_length_c                   13.302(2)
_cell_angle_alpha                99.684(2)
_cell_angle_beta                 91.139(2)
_cell_angle_gamma                91.430(2)
_cell_volume                     1494.89
loop_
_atom_site_label
_atom_site_type_symbol
_atom_site_fract_x
_atom_site_fract_y
_atom_site_fract_z
C1 C 0.4171(4) 0.9383(5) 0.6530(4)
C2 C 0.3886(4) 1.0594(5) 0.7154(4)
C3 C 0.4682(6) 1.1604(5) 0.7077(5)
H1 H 0.5357 1.1513 0.6620
C4 C 0.4499(7) 1.2736(6) 0.7658(6)
H2 H 0.5046 1.3400 0.7598
C5 C 0.3491(7) 1.2881(6) 0.8338(6)
H3 H 0.3344 1.3649 0.8719
C6 C 0.2704(6) 1.1878(5) 0.8445(5)
H4 H 0.2051 1.1972 0.8921
C7 C 0.2875(5) 1.0737(4) 0.7855(4)
C8 C 0.1967(5) 0.9681(4) 0.7929(4)
C9 C -0.3149(6) 0.9518(6) 0.8642(5)
H5 H -0.4043 0.9403 0.8578
C10 C -0.2495(7) 1.0602(6) 0.8718(5)
H6 H -0.2836 1.1375 0.8725
C11 C -0.1218(6) 1.0319(5) 0.8784(5)
H7 H -0.0536 1.0894 0.8848
C12 C 0.3073(5) 0.5978(5) 0.9971(4)
H8 H 0.3254 0.5385 1.0371
C13 C 0.3963(6) 0.6632(6) 0.9516(5)
H9 H 0.4858 0.6569 0.9536
C14 C 0.3259(5) 0.7396(6) 0.9024(4)
H10 H 0.3616 0.7956 0.8650
C15 C 0.1598(8) 0.5694(7) 0.6314(6)
H11 H 0.0713 0.5806 0.6384
C16 C 0.2198(7) 0.4601(7) 0.6084(6)
H12 H 0.1810 0.3819 0.5960
C17 C 0.3483(8) 0.4893(6) 0.6073(5)
H13 H 0.4131 0.4323 0.5939
C18 C 0.8050(6) 0.9130(5) 0.5112(5)
H14 H 0.8257 0.9687 0.4684
C19 C 0.8906(5) 0.8517(6) 0.5631(5)
H15 H 0.9805 0.8575 0.5633
C20 C 0.8147(5) 0.7802(6) 0.6145(4)
H16 H 0.8471 0.7279 0.6563
N1 N -0.1076(5) 0.9117(4) 0.8745(3)
N2 N -0.2294(5) 0.8636(5) 0.8673(4)
H17 H -0.2491 0.7870 0.8650
N3 N 0.1982(4) 0.7232(4) 0.9152(3)
N4 N 0.1907(4) 0.6342(4) 0.9742(3)
H18 H 0.1195 0.6053 0.9942
N5 N 0.3687(4) 0.6109(4) 0.6282(3)
N6 N 0.2524(5) 0.6576(4) 0.6418(4)
H19 H 0.2382 0.7350 0.6556
N7 N 0.6908(4) 0.7944(4) 0.5975(3)
N8 N 0.6869(4) 0.8775(4) 0.5337(3)
H20 H 0.6167 0.9041 0.5105
Cu1 Cu 0.04849(6) 0.81297(6) 0.87115(5)
Cu2 Cu 0.53372(6) 0.70718(6) 0.64213(5)
O1 O 0.4510(3) 0.8552(3) 0.7046(3)
O2 O 0.4183(4) 0.9235(4) 0.5588(3)
O3 O 0.1555(4) 0.9630(4) 0.8819(3)
O4 O 0.1655(3) 0.8915(3) 0.7164(3)
C21 C -0.0833(4) 0.5777(5) 0.8555(4)
C22 C -0.1176(5) 0.4601(4) 0.7854(4)
C23 C -0.0370(6) 0.3613(5) 0.7848(5)
H21 H 0.0313 0.3672 0.8321
C24 C -0.0566(7) 0.2551(6) 0.7154(6)
H22 H -0.0011 0.1900 0.7154
C25 C -0.1590(7) 0.2446(6) 0.6454(6)
H23 H -0.1730 0.1723 0.5989
C26 C -0.2390(6) 0.3408(5) 0.6450(5)
H24 H -0.3065 0.3341 0.5970
C27 C -0.2215(5) 0.4487(4) 0.7153(4)
C28 C -0.3148(5) 0.5515(5) 0.7167(4)
O5 O -0.0469(3) 0.6659(3) 0.8093(3)
O6 O -0.0820(4) 0.5839(4) 0.9491(3)
O7 O -0.3706(4) 0.5565(4) 0.6309(3)
O8 O -0.3324(3) 0.6256(3) 0.7947(3)
Cu2_2 Cu -0.46628(6) 0.70718(6) 0.64213(5)
O7_2 O 0.6294(4) 0.5565(4) 0.6309(3)
O8_2 O 0.6676(3) 0.6256(3) 0.7947(3)
loop_
_geom_bond_atom_site_label_1
_geom_bond_atom_site_label_2
_geom_bond_site_symmetry_1
_geom_bond_site_symmetry_2
C1 C2 1_555 1_555
C2 C3 1_555 1_555
C3 H1 1_555 1_555
C4 C3 1_555 1_555
H2 C4 1_555 1_555
C5 C4 1_555 1_555
H3 C5 1_555 1_555
C6 C5 1_555 1_555
H4 C6 1_555 1_555
C7 C2 1_555 1_555
C8 C7 1_555 1_555
C9 H5 1_555 1_555
C10 C9 1_555 1_555
H6 C10 1_555 1_555
C11 C10 1_555 1_555
H7 C11 1_555 1_555
C12 H8 1_555 1_555
C13 C12 1_555 1_555
H9 C13 1_555 1_555
C14 C13 1_555 1_555
H10 C14 1_555 1_555
C15 H11 1_555 1_555
C16 C15 1_555 1_555
H12 C16 1_555 1_555
C17 C16 1_555 1_555
H13 C17 1_555 1_555
C18 H14 1_555 1_555
C19 C18 1_555 1_555
H15 C19 1_555 1_555
C20 C19 1_555 1_555
H16 C20 1_555 1_555
N1 C11 1_555 1_555
N2 C9 1_555 1_555
H17 N2 1_555 1_555
N3 C14 1_555 1_555
N4 C12 1_555 1_555
H18 N4 1_555 1_555
N5 C17 1_555 1_555
N6 C15 1_555 1_555
H19 N6 1_555 1_555
N7 C20 1_555 1_555
N8 C18 1_555 1_555
H20 N8 1_555 1_555
Cu1 N1 1_555 1_555
Cu2 N5 1_555 1_555
O1 C1 1_555 1_555
O2 C1 1_555 1_555
O3 C8 1_555 1_555
O4 C8 1_555 1_555
C21 C22 1_555 1_555
C22 C23 1_555 1_555
C23 H21 1_555 1_555
C24 C23 1_555 1_555
H22 C24 1_555 1_555
C25 C24 1_555 1_555
H23 C25 1_555 1_555
C26 C25 1_555 1_555
H24 C26 1_555 1_555
C27 C22 1_555 1_555
C28 C27 1_555 1_555
O5 Cu1 1_555 1_555
O6 C21 1_555 1_555
O7 C28 1_555 1_555
O8 C28 1_555 1_555
Cu2_2 O7 1_555 1_555
O7_2 Cu2 1_555 1_555
O8_2 Cu2 1_555 1_555
C6 C7 1_555 1_555
N1 N2 1_555 1_555
N3 N4 1_555 1_555
N3 Cu1 1_555 1_555
N5 N6 1_555 1_555
N7 N8 1_555 1_555
N7 Cu2 1_555 1_555
Cu1 O3 1_555 1_555
Cu1 O4 1_555 1_555
Cu2 O1 1_555 1_555
C21 O5 1_555 1_555
C26 C27 1_555 1_555
O8 Cu2_2 1_555 1_555

#END
