
#######################################################################
#
#                 Cambridge Crystallographic Data Centre
#                                CCDC 
#
#######################################################################
#
# If this CIF has been generated from an entry in the Cambridge 
# Structural Database, then it will include bibliographic, chemical, 
# crystal, experimental, refinement or atomic coordinate data resulting 
# from the CCDC's data processing and validation procedures.
#
#######################################################################

data_FODHAI
_symmetry_cell_setting           orthorhombic
_symmetry_space_group_name_H-M   'P n m a'
_symmetry_Int_Tables_number      62
_space_group_name_Hall           '-P 2ac 2n'
loop_
_symmetry_equiv_pos_site_id
_symmetry_equiv_pos_as_xyz
1 x,y,z
2 1/2-x,-y,1/2+z
3 -x,1/2+y,-z
4 1/2+x,1/2-y,1/2-z
5 -x,-y,-z
6 1/2+x,y,1/2-z
7 x,1/2-y,z
8 1/2-x,1/2+y,1/2+z
_cell_length_a                   13.570(3)
_cell_length_b                   7.3930(10)
_cell_length_c                   18.803(4)
_cell_angle_alpha                90
_cell_angle_beta                 90
_cell_angle_gamma                90
_cell_volume                     1886.37
loop_
_atom_site_label
_atom_site_type_symbol
_atom_site_fract_x
_atom_site_fract_y
_atom_site_fract_z
Co1 Co 0.10882(7) 0.2500 0.58400(5)
Co2 Co -0.16151(7) 0.2500 1.02513(5)
O1 O -0.0425(3) 0.2500 0.5490(2)
O2 O -0.1983(3) 0.2500 0.5856(3)
O3 O -0.2596(4) 0.2500 0.8528(3)
O4 O -0.1266(4) 0.2500 0.9201(2)
O5 O 0.1849(3) 0.2500 0.4822(2)
O6 O 0.0527(4) 0.2500 0.4151(3)
O7 O 0.2260(4) 0.2500 0.1041(3)
O8 O 0.0837(4) 0.2500 0.1548(3)
N1 N 0.0243(4) 0.2500 0.6810(3)
N2 N 0.2991(4) 0.2500 0.3661(3)
C1 C -0.1072(5) 0.2500 0.5959(4)
C2 C -0.0732(5) 0.2500 0.6728(3)
C3 C -0.1383(5) 0.2500 0.7290(3)
H1 H -0.2080 0.2500 0.7204
C4 C -0.1024(5) 0.2500 0.7979(4)
C5 C -0.0023(6) 0.2500 0.8066(4)
H2 H 0.0256 0.2500 0.8535
C6 C 0.0584(6) 0.2500 0.7473(4)
H3 H 0.1285 0.2500 0.7544
C7 C -0.1699(5) 0.2500 0.8621(4)
C8 C 0.1402(5) 0.2500 0.4230(4)
C9 C 0.2025(5) 0.2500 0.3567(4)
C10 C 0.1601(5) 0.2500 0.2901(3)
H4 H 0.0896 0.2500 0.2854
C11 C 0.2187(5) 0.2500 0.2303(3)
C12 C 0.3190(5) 0.2500 0.2403(4)
H5 H 0.3627 0.2500 0.2001
C13 C 0.3558(6) 0.2500 0.3086(4)
H6 H 0.4260 0.2500 0.3151
C14 C 0.1725(5) 0.2500 0.1572(4)
O9 O 0.1103(3) -0.0298(8) 0.5770(2)
O10 O -0.0077(4) 0.2500 1.0350(3)
O11 O -0.1628(3) -0.0347(7) 1.0213(2)
H7 H 0.1134 0.0313 0.6097
H8 H 0.1604 -0.0984 0.5707
H9 H 0.0301 0.2500 1.0958
H10 H 0.0417 0.2500 0.9863
H11 H -0.1281 -0.0393 1.0554
H12 H -0.2172 -0.0634 1.0387
Co1E Co -0.39118(7) 0.2500 0.91600(5)
Co2E Co 0.33849(7) 0.2500 0.47487(5)
O3E O 0.2404(4) 0.2500 0.6472(3)
O5E O -0.3151(3) 0.2500 1.0178(2)
N2E N -0.2009(4) 0.2500 1.1339(3)
O9F O 0.1103(3) 0.5298(8) 0.5770(2)
O11F O -0.1628(3) 0.5347(7) 1.0213(2)
H7F H 0.1134 0.4687 0.6097
H8F H 0.1604 0.5984 0.5707
H11F H -0.1281 0.5393 1.0554
H12F H -0.2172 0.5634 1.0387
loop_
_geom_bond_atom_site_label_1
_geom_bond_atom_site_label_2
_geom_bond_site_symmetry_1
_geom_bond_site_symmetry_2
Co1 O1 1_555 1_555
Co2 O4 1_555 1_555
O1 C1 1_555 1_555
O2 C1 1_555 1_555
O3 C7 1_555 1_555
O4 C7 1_555 1_555
O5 Co1 1_555 1_555
O6 C8 1_555 1_555
O7 C14 1_555 1_555
O8 C14 1_555 1_555
N1 Co1 1_555 1_555
N2 C9 1_555 1_555
C1 C2 1_555 1_555
C2 N1 1_555 1_555
C3 C2 1_555 1_555
H1 C3 1_555 1_555
C4 C3 1_555 1_555
C5 C4 1_555 1_555
H2 C5 1_555 1_555
C6 N1 1_555 1_555
H3 C6 1_555 1_555
C7 C4 1_555 1_555
C8 O5 1_555 1_555
C9 C8 1_555 1_555
C10 C9 1_555 1_555
H4 C10 1_555 1_555
C11 C10 1_555 1_555
C12 C11 1_555 1_555
H5 C12 1_555 1_555
C13 N2 1_555 1_555
H6 C13 1_555 1_555
C14 C11 1_555 1_555
O9 Co1 1_555 1_555
O10 Co2 1_555 1_555
O11 Co2 1_555 1_555
H7 O9 1_555 1_555
H8 O9 1_555 1_555
H9 O10 1_555 1_555
H10 O10 1_555 1_555
H11 O11 1_555 1_555
H12 O11 1_555 1_555
Co1E O3 1_555 1_555
Co2E O5 1_555 1_555
O3E Co1 1_555 1_555
O5E Co2 1_555 1_555
N2E Co2 1_555 1_555
O9F Co1 1_555 1_555
O11F Co2 1_555 1_555
H7F O9F 1_555 1_555
H8F O9F 1_555 1_555
H11F O11F 1_555 1_555
H12F O11F 1_555 1_555
N2 Co2E 1_555 1_555
C5 C6 1_555 1_555
C12 C13 1_555 1_555
Co1E O5E 1_555 1_555

#END
