
#######################################################################
#
#                 Cambridge Crystallographic Data Centre
#                                CCDC 
#
#######################################################################
#
# If this CIF has been generated from an entry in the Cambridge 
# Structural Database, then it will include bibliographic, chemical, 
# crystal, experimental, refinement or atomic coordinate data resulting 
# from the CCDC's data processing and validation procedures.
#
#######################################################################

data_FODKUF
_symmetry_cell_setting           orthorhombic
_symmetry_space_group_name_H-M   'F d d 2'
_symmetry_Int_Tables_number      43
_space_group_name_Hall           'F 2 -2d'
loop_
_symmetry_equiv_pos_site_id
_symmetry_equiv_pos_as_xyz
1 x,y,z
2 -x,-y,z
3 1/4+x,1/4-y,1/4+z
4 1/4-x,1/4+y,1/4+z
5 x,1/2+y,1/2+z
6 -x,1/2-y,1/2+z
7 1/4+x,3/4-y,3/4+z
8 1/4-x,3/4+y,3/4+z
9 1/2+x,y,1/2+z
10 1/2-x,-y,1/2+z
11 3/4+x,1/4-y,3/4+z
12 3/4-x,1/4+y,3/4+z
13 1/2+x,1/2+y,z
14 1/2-x,1/2-y,z
15 3/4+x,3/4-y,1/4+z
16 3/4-x,3/4+y,1/4+z
_cell_length_a                   30.937(6)
_cell_length_b                   31.173(6)
_cell_length_c                   9.0190(18)
_cell_angle_alpha                90
_cell_angle_beta                 90
_cell_angle_gamma                90
_cell_volume                     8697.92
loop_
_atom_site_label
_atom_site_type_symbol
_atom_site_fract_x
_atom_site_fract_y
_atom_site_fract_z
Fe1 Fe 0.15132(3) 0.02298(3) 0.69660(9)
Cu1 Cu 0.26773(3) 0.09940(4) 0.41976(12)
N1 N 0.15946(18) 0.05524(19) 0.8816(6)
N2 N 0.11005(18) 0.07103(18) 0.6587(7)
N3 N 0.10011(19) -0.00975(19) 0.7678(7)
N4 N 0.1368(2) -0.0086(2) 0.5148(7)
N5 N 0.2251(3) 0.0724(3) 0.5561(10)
N6 N 0.2075(2) -0.0512(2) 0.8046(8)
N7 N 0.2938(4) 0.1938(3) 0.4289(15)
C1 C 0.1888(3) 0.0475(3) 0.9868(9)
H1 H 0.2079 0.0250 0.9720
C2 C 0.1923(3) 0.0706(3) 1.1147(10)
H2 H 0.2131 0.0637 1.1853
C3 C 0.1643(3) 0.1048(3) 1.1370(11)
H3 H 0.1660 0.1213 1.2228
C4 C 0.1338(3) 0.1139(3) 1.0287(11)
H4 H 0.1146 0.1365 1.0405
C5 C 0.1327(2) 0.0886(2) 0.9029(8)
C6 C 0.1039(2) 0.0972(2) 0.7784(9)
C7 C 0.0713(3) 0.1290(3) 0.7761(11)
H5 H 0.0666 0.1462 0.8590
C8 C 0.0477(3) 0.1342(3) 0.6566(12)
H6 H 0.0259 0.1547 0.6559
C9 C 0.0547(3) 0.1097(3) 0.5324(11)
H7 H 0.0391 0.1146 0.4461
C10 C 0.0858(3) 0.0772(3) 0.5380(9)
H8 H 0.0896 0.0595 0.4561
C11 C 0.0832(2) -0.0095(3) 0.9050(9)
H9 H 0.0979 0.0055 0.9784
C12 C 0.0458(3) -0.0300(3) 0.9440(11)
H10 H 0.0352 -0.0287 1.0403
C13 C 0.0243(3) -0.0529(3) 0.8339(13)
H11 H -0.0013 -0.0673 0.8555
C14 C 0.0408(3) -0.0541(3) 0.6970(12)
H12 H 0.0264 -0.0693 0.6230
C15 C 0.0792(2) -0.0330(2) 0.6641(9)
C16 C 0.1014(3) -0.0336(3) 0.5206(10)
C17 C 0.0876(3) -0.0576(3) 0.4004(11)
H13 H 0.0626 -0.0741 0.4057
C18 C 0.1116(5) -0.0564(4) 0.2747(13)
H14 H 0.1028 -0.0725 0.1932
C19 C 0.1483(5) -0.0321(4) 0.2645(11)
H15 H 0.1645 -0.0310 0.1777
C20 C 0.1602(3) -0.0089(3) 0.3911(10)
H16 H 0.1857 0.0069 0.3886
C21 C 0.1975(3) 0.0535(3) 0.6118(10)
C22 C 0.1874(3) -0.0226(3) 0.7580(9)
C23 C 0.2821(3) 0.1566(3) 0.4148(13)
Fe1I Fe 0.34868(3) -0.02298(3) 1.19660(9)
Fe1I_2 Fe 0.34868(3) -0.02298(3) 0.19660(9)
Cu1I Cu 0.23227(3) -0.09940(4) 0.91976(12)
N1I N 0.34054(18) -0.05524(19) 1.3816(6)
N2I N 0.38995(18) -0.07103(18) 1.1587(7)
N3I N 0.39989(19) 0.00975(19) 1.2678(7)
N4I N 0.3632(2) 0.0086(2) 1.0148(7)
N5I N 0.2749(3) -0.0724(3) 1.0561(10)
N6I N 0.2925(2) 0.0512(2) 0.3046(8)
N7I N 0.2062(4) -0.1938(3) 0.9289(15)
C1I C 0.3112(3) -0.0475(3) 1.4868(9)
H1I H 0.2921 -0.0250 1.4720
C2I C 0.3077(3) -0.0706(3) 1.6147(10)
H2I H 0.2869 -0.0637 1.6853
C3I C 0.3357(3) -0.1048(3) 1.6370(11)
H3I H 0.3340 -0.1213 1.7228
C4I C 0.3662(3) -0.1139(3) 1.5287(11)
H4I H 0.3854 -0.1365 1.5405
C5I C 0.3673(2) -0.0886(2) 1.4029(8)
C6I C 0.3961(2) -0.0972(2) 1.2784(9)
C7I C 0.4287(3) -0.1290(3) 1.2761(11)
H5I H 0.4334 -0.1462 1.3590
C8I C 0.4523(3) -0.1342(3) 1.1566(12)
H6I H 0.4741 -0.1547 1.1559
C9I C 0.4453(3) -0.1097(3) 1.0324(11)
H7I H 0.4609 -0.1146 0.9461
C10I C 0.4142(3) -0.0772(3) 1.0380(9)
H8I H 0.4104 -0.0595 0.9561
C11I C 0.4168(2) 0.0095(3) 1.4050(9)
H9I H 0.4021 -0.0055 1.4784
C12I C 0.4542(3) 0.0300(3) 1.4440(11)
H10I H 0.4648 0.0287 1.5403
C13I C 0.4757(3) 0.0529(3) 1.3339(13)
H11I H 0.5013 0.0673 1.3555
C14I C 0.4592(3) 0.0541(3) 1.1970(12)
H12I H 0.4736 0.0693 1.1230
C15I C 0.4208(2) 0.0330(2) 1.1641(9)
C16I C 0.3986(3) 0.0336(3) 1.0206(10)
C17I C 0.4124(3) 0.0576(3) 0.9004(11)
H13I H 0.4374 0.0741 0.9057
C18I C 0.3884(5) 0.0564(4) 0.7747(13)
H14I H 0.3972 0.0725 0.6932
C19I C 0.3517(5) 0.0321(4) 0.7645(11)
H15I H 0.3355 0.0310 0.6777
C20I C 0.3398(3) 0.0089(3) 0.8911(10)
H16I H 0.3143 -0.0069 0.8886
C21I C 0.3025(3) -0.0535(3) 1.1118(10)
C22I C 0.3126(3) 0.0226(3) 0.2580(9)
C22I_2 C 0.3126(3) 0.0226(3) 1.2580(9)
C23I C 0.2179(3) -0.1566(3) 0.9148(13)
O1 O 0.2500 0.2500 0.6332(15)
H17 H 0.268(3) 0.221(3) 0.535(12)
H17M H 0.232(3) 0.279(3) 0.535(12)
loop_
_geom_bond_atom_site_label_1
_geom_bond_atom_site_label_2
_geom_bond_site_symmetry_1
_geom_bond_site_symmetry_2
Fe1 N1 1_555 1_555
Cu1 N5 1_555 1_555
N1 C1 1_555 1_555
N2 Fe1 1_555 1_555
N3 Fe1 1_555 1_555
N4 Fe1 1_555 1_555
N5 C21 1_555 1_555
N6 C22 1_555 1_555
N7 C23 1_555 1_555
C1 H1 1_555 1_555
C2 C1 1_555 1_555
H2 C2 1_555 1_555
C3 C2 1_555 1_555
H3 C3 1_555 1_555
C4 C3 1_555 1_555
H4 C4 1_555 1_555
C5 N1 1_555 1_555
C6 N2 1_555 1_555
C7 C6 1_555 1_555
H5 C7 1_555 1_555
C8 C7 1_555 1_555
H6 C8 1_555 1_555
C9 C8 1_555 1_555
H7 C9 1_555 1_555
C10 N2 1_555 1_555
H8 C10 1_555 1_555
C11 N3 1_555 1_555
H9 C11 1_555 1_555
C12 C11 1_555 1_555
H10 C12 1_555 1_555
C13 C12 1_555 1_555
H11 C13 1_555 1_555
C14 C13 1_555 1_555
H12 C14 1_555 1_555
C15 N3 1_555 1_555
C16 N4 1_555 1_555
C17 C16 1_555 1_555
H13 C17 1_555 1_555
C18 C17 1_555 1_555
H14 C18 1_555 1_555
C19 C18 1_555 1_555
H15 C19 1_555 1_555
C20 N4 1_555 1_555
H16 C20 1_555 1_555
C21 Fe1 1_555 1_555
C22 Fe1 1_555 1_555
C23 Cu1 1_555 1_555
O1 H17 1_555 1_555
Fe1I N1I 1_555 1_555
Fe1I_2 C22I 1_555 1_555
Cu1I N6 1_555 1_555
N1I C1I 1_555 1_555
N2I Fe1I 1_555 1_555
N3I Fe1I 1_555 1_555
N4I Fe1I 1_555 1_555
N5I Cu1I 1_555 1_555
N6I Cu1 1_555 1_555
N7I C23I 1_555 1_555
C1I H1I 1_555 1_555
C2I C1I 1_555 1_555
H2I C2I 1_555 1_555
C3I C2I 1_555 1_555
H3I C3I 1_555 1_555
C4I C3I 1_555 1_555
H4I C4I 1_555 1_555
C5I N1I 1_555 1_555
C6I N2I 1_555 1_555
C7I C6I 1_555 1_555
H5I C7I 1_555 1_555
C8I C7I 1_555 1_555
H6I C8I 1_555 1_555
C9I C8I 1_555 1_555
H7I C9I 1_555 1_555
C10I N2I 1_555 1_555
H8I C10I 1_555 1_555
C11I N3I 1_555 1_555
H9I C11I 1_555 1_555
C12I C11I 1_555 1_555
H10I C12I 1_555 1_555
C13I C12I 1_555 1_555
H11I C13I 1_555 1_555
C14I C13I 1_555 1_555
H12I C14I 1_555 1_555
C15I N3I 1_555 1_555
C16I N4I 1_555 1_555
C17I C16I 1_555 1_555
H13I C17I 1_555 1_555
C18I C17I 1_555 1_555
H14I C18I 1_555 1_555
C19I C18I 1_555 1_555
H15I C19I 1_555 1_555
C20I N4I 1_555 1_555
H16I C20I 1_555 1_555
C21I Fe1I 1_555 1_555
C22I N6I 1_555 1_555
C22I_2 Fe1I 1_555 1_555
C23I Cu1I 1_555 1_555
H17M O1 1_555 1_555
C4 C5 1_555 1_555
C5 C6 1_555 1_555
C9 C10 1_555 1_555
C14 C15 1_555 1_555
C15 C16 1_555 1_555
C19 C20 1_555 1_555
N5I C21I 1_555 1_555
C4I C5I 1_555 1_555
C5I C6I 1_555 1_555
C9I C10I 1_555 1_555
C14I C15I 1_555 1_555
C15I C16I 1_555 1_555
C19I C20I 1_555 1_555

#END
