
#######################################################################
#
#                 Cambridge Crystallographic Data Centre
#                                CCDC 
#
#######################################################################
#
# If this CIF has been generated from an entry in the Cambridge 
# Structural Database, then it will include bibliographic, chemical, 
# crystal, experimental, refinement or atomic coordinate data resulting 
# from the CCDC's data processing and validation procedures.
#
#######################################################################

data_FODLAM01
_symmetry_cell_setting           trigonal
_symmetry_space_group_name_H-M   'P 32'
_symmetry_Int_Tables_number      145
_space_group_name_Hall           'P 32'
loop_
_symmetry_equiv_pos_site_id
_symmetry_equiv_pos_as_xyz
1 x,y,z
2 -y,x-y,2/3+z
3 -x+y,-x,1/3+z
_cell_length_a                   14.4307(8)
_cell_length_b                   14.4307(8)
_cell_length_c                   12.8975(11)
_cell_angle_alpha                90
_cell_angle_beta                 90
_cell_angle_gamma                120
_cell_volume                     2326.01
loop_
_atom_site_label
_atom_site_type_symbol
_atom_site_fract_x
_atom_site_fract_y
_atom_site_fract_z
Cu1 Cu 0.94002(6) 0.88452(5) 0.17820(4)
N1 N 0.9416(4) 0.9574(4) 0.3044(4)
N2 N 0.7961(4) 0.7379(4) 0.1582(4)
N3 N 0.9805(4) 0.7721(4) 0.2332(4)
C1 C 0.9464(4) 0.9984(4) 0.3836(4)
C2 C 0.7050(5) 0.7292(5) 0.1209(6)
H1 H 0.7009 0.7899 0.1047
C3 C 0.6194(6) 0.6301(7) 0.1075(8)
H2 H 0.5558 0.6249 0.0846
C4 C 0.6205(6) 0.5391(7) 0.1250(10)
H3 H 0.5615 0.4726 0.1103
C5 C 0.7131(6) 0.5486(5) 0.1658(8)
H4 H 0.7161 0.4879 0.1848
C6 C 0.8007(4) 0.6482(5) 0.1782(5)
C7 C 0.9043(5) 0.6667(5) 0.2194(5)
C8 C 0.9238(7) 0.5875(6) 0.2492(7)
H5 H 0.8696 0.5164 0.2445
C9 C 1.0260(9) 0.6125(9) 0.2876(9)
H6 H 1.0427 0.5595 0.3028
C10 C 1.0983(7) 0.7183(7) 0.3008(6)
H7 H 1.1649 0.7392 0.3297
C11 C 1.0728(6) 0.7922(6) 0.2717(6)
H8 H 1.1251 0.8636 0.2795
Cu1B Cu 0.94450(8) 1.05998(6) 0.51153(4)
C1A C 1.0016(4) 0.9480(6) 0.0503(4)
Cu2 Cu 0.27208(6) -0.27914(6) 0.54478(6)
N4 N 0.2748(4) -0.3519(4) 0.4195(5)
N5 N 0.3057(6) -0.1272(4) 0.4968(4)
N6 N 0.1276(5) -0.2806(5) 0.5718(5)
C12 C 0.2783(4) -0.3877(4) 0.3397(5)
C13 C 0.4044(8) -0.0539(6) 0.4537(6)
H9 H 0.4533 -0.0764 0.4397
C14 C 0.4323(7) 0.0490(6) 0.4313(7)
H10 H 0.4992 0.0988 0.4056
C15 C 0.3525(9) 0.0725(7) 0.4501(10)
H11 H 0.3672 0.1408 0.4316
C16 C 0.2568(8) 0.0087(8) 0.4916(9)
H12 H 0.2080 0.0315 0.5054
C17 C 0.2345(7) -0.0996(6) 0.5137(7)
C18 C 0.1358(7) -0.1808(7) 0.5538(6)
C19 C 0.0479(7) -0.1673(7) 0.5721(9)
H13 H 0.0491 -0.1036 0.5573
C20 C -0.0376(9) -0.2515(8) 0.6122(11)
H14 H -0.0947 -0.2411 0.6279
C21 C -0.0531(7) -0.3497(9) 0.6334(9)
H15 H -0.1160 -0.4046 0.6615
C22 C 0.0377(6) -0.3605(7) 0.6078(6)
H16 H 0.0329 -0.4266 0.6170
Cu2A Cu 0.27914(6) -0.44878(8) 0.21145(6)
C12B C 0.3340(6) -0.2783(4) 0.6730(5)
Cu3 Cu 0.61062(8) 0.39255(7) 0.5308(3)
N7 N 0.6096(5) 0.3219(5) 0.4027(7)
N8 N 0.6413(6) 0.5443(4) 0.4874(5)
N9 N 0.4664(5) 0.3865(5) 0.5619(5)
C23 C 0.6121(6) 0.2875(5) 0.3225(8)
C24 C 0.7387(8) 0.6195(6) 0.4501(7)
H17 H 0.7887 0.5972 0.4431
C25 C 0.7717(8) 0.7184(6) 0.4229(6)
H18 H 0.8414 0.7680 0.4038
C26 C 0.6883(8) 0.7379(7) 0.4267(7)
H19 H 0.7040 0.8054 0.4039
C27 C 0.5867(9) 0.6739(10) 0.4586(11)
H20 H 0.5360 0.6958 0.4579
C28 C 0.5604(9) 0.5626(7) 0.4960(5)
C29 C 0.4604(7) 0.4767(8) 0.5368(5)
C30 C 0.3787(7) 0.4964(8) 0.5525(7)
H21 H 0.3846 0.5633 0.5450
C31 C 0.2936(9) 0.4125(9) 0.5786(11)
H22 H 0.2331 0.4197 0.5805
C32 C 0.2762(7) 0.3150(8) 0.6041(8)
H23 H 0.2099 0.2582 0.6233
C33 C 0.3742(6) 0.3086(7) 0.5979(6)
H24 H 0.3715 0.2462 0.6207
Cu3A Cu 0.60745(7) 0.21807(11) 0.1975(3)
C23B C 0.6754(8) 0.3879(6) 0.6558(8)
loop_
_geom_bond_atom_site_label_1
_geom_bond_atom_site_label_2
_geom_bond_site_symmetry_1
_geom_bond_site_symmetry_2
Cu1 N1 1_555 1_555
N1 C1 1_555 1_555
N2 Cu1 1_555 1_555
N3 Cu1 1_555 1_555
C1 Cu1B 1_555 1_555
C2 N2 1_555 1_555
H1 C2 1_555 1_555
C3 C2 1_555 1_555
H2 C3 1_555 1_555
C4 C3 1_555 1_555
H3 C4 1_555 1_555
C5 C4 1_555 1_555
H4 C5 1_555 1_555
C6 N2 1_555 1_555
C7 N3 1_555 1_555
C8 C7 1_555 1_555
H5 C8 1_555 1_555
C9 C8 1_555 1_555
H6 C9 1_555 1_555
C10 C9 1_555 1_555
H7 C10 1_555 1_555
C11 N3 1_555 1_555
H8 C11 1_555 1_555
Cu2 N4 1_555 1_555
N4 C12 1_555 1_555
N5 Cu2 1_555 1_555
N6 Cu2 1_555 1_555
C12 Cu2A 1_555 1_555
C13 N5 1_555 1_555
H9 C13 1_555 1_555
C14 C13 1_555 1_555
H10 C14 1_555 1_555
C15 C14 1_555 1_555
H11 C15 1_555 1_555
C16 C15 1_555 1_555
H12 C16 1_555 1_555
C17 N5 1_555 1_555
C18 N6 1_555 1_555
C19 C18 1_555 1_555
H13 C19 1_555 1_555
C20 C19 1_555 1_555
H14 C20 1_555 1_555
C21 C20 1_555 1_555
H15 C21 1_555 1_555
C22 N6 1_555 1_555
H16 C22 1_555 1_555
Cu3 N7 1_555 1_555
N7 C23 1_555 1_555
N8 Cu3 1_555 1_555
N9 Cu3 1_555 1_555
C23 Cu3A 1_555 1_555
C24 N8 1_555 1_555
H17 C24 1_555 1_555
C25 C24 1_555 1_555
H18 C25 1_555 1_555
C26 C25 1_555 1_555
H19 C26 1_555 1_555
C27 C26 1_555 1_555
H20 C27 1_555 1_555
C28 N8 1_555 1_555
C29 N9 1_555 1_555
C30 C29 1_555 1_555
H21 C30 1_555 1_555
C31 C30 1_555 1_555
H22 C31 1_555 1_555
C32 C31 1_555 1_555
H23 C32 1_555 1_555
C33 N9 1_555 1_555
H24 C33 1_555 1_555
C1A Cu1 1_555 1_555
C12B Cu2 1_555 1_555
C23B Cu3 1_555 1_555
C5 C6 1_555 1_555
C6 C7 1_555 1_555
C10 C11 1_555 1_555
C16 C17 1_555 1_555
C17 C18 1_555 1_555
C21 C22 1_555 1_555
C27 C28 1_555 1_555
C28 C29 1_555 1_555
C32 C33 1_555 1_555

#END
