
#######################################################################
#
#                 Cambridge Crystallographic Data Centre
#                                CCDC 
#
#######################################################################
#
# If this CIF has been generated from an entry in the Cambridge 
# Structural Database, then it will include bibliographic, chemical, 
# crystal, experimental, refinement or atomic coordinate data resulting 
# from the CCDC's data processing and validation procedures.
#
#######################################################################

data_FODLAM
_symmetry_cell_setting           trigonal
_symmetry_space_group_name_H-M   'P 31'
_symmetry_Int_Tables_number      144
_space_group_name_Hall           'P 31'
loop_
_symmetry_equiv_pos_site_id
_symmetry_equiv_pos_as_xyz
1 x,y,z
2 -y,x-y,1/3+z
3 -x+y,-x,2/3+z
_cell_length_a                   14.541(2)
_cell_length_b                   14.541(2)
_cell_length_c                   12.997(3)
_cell_angle_alpha                90
_cell_angle_beta                 90
_cell_angle_gamma                120
_cell_volume                     2379.92
loop_
_atom_site_label
_atom_site_type_symbol
_atom_site_fract_x
_atom_site_fract_y
_atom_site_fract_z
Cu1 Cu 0.11188(8) 0.05831(9) 0.9876(3)
N1 N 0.2480(9) 0.0436(9) 1.0261(6)
N2 N 0.2444(8) 0.2058(6) 0.9525(6)
N3 N 0.0467(6) -0.0074(6) 0.8546(6)
C1 C 0.2379(13) -0.0450(13) 1.0649(8)
H1 H 0.1701 -0.1021 1.0761
C2 C 0.324(3) -0.056(3) 1.0893(12)
H2 H 0.3197 -0.1114 1.1286
C3 C 0.4183(17) 0.026(2) 1.0481(18)
H3 H 0.4742 0.0133 1.0368
C4 C 0.4319(14) 0.119(2) 1.0250(13)
H4 H 0.4993 0.1787 1.0243
C5 C 0.3431(11) 0.1262(17) 1.0014(8)
C6 C 0.3392(11) 0.2196(13) 0.9635(8)
C7 C 0.4366(13) 0.3070(15) 0.9312(12)
H5 H 0.5043 0.3155 0.9273
C8 C 0.4023(16) 0.3724(13) 0.9082(14)
H6 H 0.4652 0.4360 0.8974
C9 C 0.331(2) 0.3995(12) 0.8918(12)
H7 H 0.3359 0.4632 0.8726
C10 C 0.2383(14) 0.2906(9) 0.9152(8)
H8 H 0.1707 0.2803 0.9031
C11 C 0.0092(8) -0.0443(7) 0.7749(6)
Cu1B Cu -0.05357(12) -0.11188(8) 0.6543(3)
C11A C 0.0443(7) 0.0535(11) 1.1082(6)
Cu2 Cu 0.60903(9) 0.22157(8) 0.68107(4)
N4 N 0.6468(6) 0.1048(6) 0.6287(5)
N5 N 0.4653(6) 0.0735(7) 0.7013(6)
N6 N 0.6702(6) 0.2849(6) 0.8151(7)
C12 C 0.7403(8) 0.1281(9) 0.5893(7)
H9 H 0.7915 0.1987 0.5779
C13 C 0.7621(9) 0.0495(10) 0.5655(8)
H10 H 0.8289 0.0673 0.5406
C14 C 0.6870(11) -0.0547(10) 0.5779(9)
H11 H 0.6997 -0.1088 0.5585
C15 C 0.5933(10) -0.0758(11) 0.6197(11)
H12 H 0.5430 -0.1460 0.6342
C16 C 0.5693(9) 0.0028(9) 0.6417(7)
C17 C 0.4696(8) -0.0111(7) 0.6844(7)
C18 C 0.3865(9) -0.1147(8) 0.7024(9)
H13 H 0.3939 -0.1738 0.6908
C19 C 0.2915(10) -0.1240(8) 0.7389(10)
H14 H 0.2323 -0.1907 0.7492
C20 C 0.2864(9) -0.0323(9) 0.7598(9)
H15 H 0.2254 -0.0369 0.7878
C21 C 0.3724(8) 0.0636(7) 0.7381(6)
H16 H 0.3682 0.1246 0.7486
C22 C 0.7078(6) 0.3200(7) 0.8918(6)
Cu2A Cu 0.77843(8) 0.38746(12) 1.01440(4)
C22B C 0.6122(9) 0.2922(6) 0.5585(6)
Cu3 Cu 0.27659(9) 0.55450(8) 0.64876(12)
N7 N 0.2752(6) 0.4088(6) 0.6269(6)
N8 N 0.1237(5) 0.4361(6) 0.7002(5)
N9 N 0.2799(5) 0.6196(6) 0.5182(7)
C23 C 0.3556(8) 0.3967(8) 0.5896(6)
H17 H 0.4175 0.4573 0.5690
C24 C 0.3515(9) 0.3024(10) 0.5806(9)
H18 H 0.4116 0.2995 0.5613
C25 C 0.2542(12) 0.2071(11) 0.6008(12)
H19 H 0.2460 0.1403 0.5893
C26 C 0.1729(11) 0.2205(9) 0.6385(9)
H20 H 0.1088 0.1609 0.6563
C27 C 0.1845(9) 0.3214(7) 0.6507(7)
C28 C 0.0992(8) 0.3364(8) 0.6901(7)
C29 C -0.0002(10) 0.2574(9) 0.7259(10)
H21 H -0.0168 0.1867 0.7258
C30 C -0.0732(10) 0.2835(13) 0.7613(11)
H22 H -0.1413 0.2303 0.7788
C31 C -0.0470(9) 0.3828(12) 0.7703(9)
H23 H -0.0947 0.4009 0.7984
C32 C 0.0494(8) 0.4591(8) 0.7389(6)
H24 H 0.0665 0.5298 0.7435
C33 C 0.2776(6) 0.6546(7) 0.4391(6)
Cu3B Cu 0.27791(12) 0.72341(9) 0.31543(12)
C33A C 0.3454(7) 0.6230(9) 0.7724(6)
loop_
_geom_bond_atom_site_label_1
_geom_bond_atom_site_label_2
_geom_bond_site_symmetry_1
_geom_bond_site_symmetry_2
Cu1 N1 1_555 1_555
N1 C1 1_555 1_555
N2 Cu1 1_555 1_555
N3 Cu1 1_555 1_555
C1 H1 1_555 1_555
C2 C1 1_555 1_555
H2 C2 1_555 1_555
C3 C2 1_555 1_555
H3 C3 1_555 1_555
C4 C3 1_555 1_555
H4 C4 1_555 1_555
C5 N1 1_555 1_555
C6 N2 1_555 1_555
C7 C6 1_555 1_555
H5 C7 1_555 1_555
C8 C7 1_555 1_555
H6 C8 1_555 1_555
C9 C8 1_555 1_555
H7 C9 1_555 1_555
C10 N2 1_555 1_555
H8 C10 1_555 1_555
C11 N3 1_555 1_555
Cu2 N4 1_555 1_555
N4 C12 1_555 1_555
N5 Cu2 1_555 1_555
N6 Cu2 1_555 1_555
C12 H9 1_555 1_555
C13 C12 1_555 1_555
H10 C13 1_555 1_555
C14 C13 1_555 1_555
H11 C14 1_555 1_555
C15 C14 1_555 1_555
H12 C15 1_555 1_555
C16 N4 1_555 1_555
C17 N5 1_555 1_555
C18 C17 1_555 1_555
H13 C18 1_555 1_555
C19 C18 1_555 1_555
H14 C19 1_555 1_555
C20 C19 1_555 1_555
H15 C20 1_555 1_555
C21 N5 1_555 1_555
H16 C21 1_555 1_555
C22 N6 1_555 1_555
Cu3 N7 1_555 1_555
N7 C23 1_555 1_555
N8 Cu3 1_555 1_555
N9 Cu3 1_555 1_555
C23 H17 1_555 1_555
C24 C23 1_555 1_555
H18 C24 1_555 1_555
C25 C24 1_555 1_555
H19 C25 1_555 1_555
C26 C25 1_555 1_555
H20 C26 1_555 1_555
C27 N7 1_555 1_555
C28 N8 1_555 1_555
C29 C28 1_555 1_555
H21 C29 1_555 1_555
C30 C29 1_555 1_555
H22 C30 1_555 1_555
C31 C30 1_555 1_555
H23 C31 1_555 1_555
C32 N8 1_555 1_555
H24 C32 1_555 1_555
C33 N9 1_555 1_555
Cu1B C11 1_555 1_555
C11A Cu1 1_555 1_555
Cu2A C22 1_555 1_555
C22B Cu2 1_555 1_555
Cu3B C33 1_555 1_555
C33A Cu3 1_555 1_555
C4 C5 1_555 1_555
C5 C6 1_555 1_555
C9 C10 1_555 1_555
C15 C16 1_555 1_555
C16 C17 1_555 1_555
C20 C21 1_555 1_555
C26 C27 1_555 1_555
C27 C28 1_555 1_555
C31 C32 1_555 1_555

#END
