
#######################################################################
#
#                 Cambridge Crystallographic Data Centre
#                                CCDC 
#
#######################################################################
#
# If this CIF has been generated from an entry in the Cambridge 
# Structural Database, then it will include bibliographic, chemical, 
# crystal, experimental, refinement or atomic coordinate data resulting 
# from the CCDC's data processing and validation procedures.
#
#######################################################################

data_FODLAM02
_symmetry_cell_setting           trigonal
_symmetry_space_group_name_H-M   'P 32'
_symmetry_Int_Tables_number      145
_space_group_name_Hall           'P 32'
loop_
_symmetry_equiv_pos_site_id
_symmetry_equiv_pos_as_xyz
1 x,y,z
2 -y,x-y,2/3+z
3 -x+y,-x,1/3+z
_cell_length_a                   14.4883(6)
_cell_length_b                   14.4883(6)
_cell_length_c                   12.9205(11)
_cell_angle_alpha                90
_cell_angle_beta                 90
_cell_angle_gamma                120
_cell_volume                     2348.79
loop_
_atom_site_label
_atom_site_type_symbol
_atom_site_fract_x
_atom_site_fract_y
_atom_site_fract_z
Cu1 Cu 0.78122(5) 0.38995(6) 0.34218(11)
N1 N 0.7104(4) 0.3909(4) 0.2149(5)
N2 N 0.8952(4) 0.3508(4) 0.2922(4)
N3 N 0.9254(3) 0.5342(3) 0.3646(4)
C1 C 0.6722(4) 0.3870(5) 0.1366(5)
C2 C 0.8735(6) 0.2570(5) 0.2527(5)
H1 H 0.8005 0.2048 0.2444
C3 C 0.9458(6) 0.2298(6) 0.2236(5)
H2 H 0.9263 0.1601 0.2005
C4 C 1.0503(7) 0.3104(7) 0.2296(6)
H3 H 1.1045 0.2962 0.2075
C5 C 1.0806(6) 0.4135(7) 0.2674(7)
H4 H 1.1531 0.4683 0.2704
C6 C 1.1192(5) 0.6192(5) 0.3530(6)
H5 H 1.1801 0.6128 0.3386
C7 C 1.1292(6) 0.7125(6) 0.3873(8)
H6 H 1.1977 0.7736 0.3962
C8 C 1.0353(6) 0.7172(5) 0.4097(6)
H7 H 1.0398 0.7824 0.4297
C9 C 0.9390(5) 0.6262(4) 0.4018(5)
H8 H 0.8776 0.6283 0.4242
C10 C 0.9982(5) 0.4304(6) 0.3001(5)
C11 C 1.0153(5) 0.5323(5) 0.3397(5)
Cu1A Cu 0.61005(6) 0.39127(8) 0.00885(11)
C1B C 0.7148(6) 0.3278(4) 0.4699(5)
Cu2 Cu 0.11456(5) 0.05478(5) 0.31039(4)
N4 N 0.0411(3) -0.0178(4) 0.4374(3)
N5 N 0.2614(3) 0.0585(3) 0.2905(4)
N6 N 0.2275(3) 0.2079(3) 0.3665(3)
C12 C 0.0007(4) -0.0530(3) 0.5154(4)
C13 C 0.2730(4) -0.0226(4) 0.2553(5)
H9 H 0.2111 -0.0899 0.2434
C14 C 0.3690(6) -0.0114(6) 0.2365(6)
H10 H 0.3741 -0.0699 0.2102
C15 C 0.4587(6) 0.0828(7) 0.2546(8)
H11 H 0.5268 0.0912 0.2399
C16 C 0.4497(5) 0.1675(5) 0.2952(6)
H12 H 0.5112 0.2334 0.3119
C17 C 0.4088(5) 0.3355(5) 0.3807(7)
H13 H 0.4815 0.3541 0.3747
C18 C 0.3834(7) 0.4094(5) 0.4168(7)
H14 H 0.4379 0.4807 0.4296
C19 C 0.2816(6) 0.3798(5) 0.4336(6)
H15 H 0.2627 0.4277 0.4642
C20 C 0.2050(5) 0.2794(4) 0.4061(4)
H16 H 0.1324 0.2595 0.4155
C21 C 0.3509(4) 0.1525(4) 0.3098(4)
C22 C 0.3312(4) 0.2366(4) 0.3535(4)
Cu2B Cu -0.05978(7) -0.11456(5) 0.64372(4)
C12A C 0.0530(3) 0.0537(5) 0.1821(4)
Cu3 Cu 0.27974(5) 0.55230(5) 0.67679(9)
N7 N 0.3511(4) 0.6267(3) 0.5513(4)
C23 C 0.3863(4) 0.6648(4) 0.4696(4)
N8 N 0.1300(3) 0.4293(4) 0.6328(3)
C24 C 0.0535(4) 0.4498(5) 0.5912(4)
H17 H 0.0712 0.5210 0.5761
C25 C -0.0488(3) 0.3662(7) 0.5717(5)
H18 H -0.1010 0.3802 0.5432
C26 C -0.0746(4) 0.2621(6) 0.5937(5)
H19 H -0.1445 0.2050 0.5803
C27 C 0.0018(6) 0.2416(4) 0.6353(5)
H20 H -0.0159 0.1704 0.6503
C28 C 0.1041(5) 0.3251(4) 0.6548(4)
C29 C 0.1882(4) 0.3202(4) 0.6907(4)
C30 C 0.1752(6) 0.2207(3) 0.7141(5)
H21 H 0.1083 0.1582 0.7030
C31 C 0.2601(7) 0.2128(4) 0.7538(5)
H22 H 0.2513 0.1448 0.7698
C32 C 0.3580(6) 0.3042(6) 0.7701(4)
H23 H 0.4160 0.2988 0.7972
C33 C 0.3710(4) 0.4037(5) 0.7467(4)
H24 H 0.4378 0.4662 0.7579
N9 N 0.2860(4) 0.4117(3) 0.7070(3)
Cu3A Cu 0.44770(5) 0.72744(7) 0.34346(9)
C23B C 0.2785(6) 0.6137(4) 0.8029(4)
loop_
_geom_bond_atom_site_label_1
_geom_bond_atom_site_label_2
_geom_bond_site_symmetry_1
_geom_bond_site_symmetry_2
Cu1 N1 1_555 1_555
N1 C1 1_555 1_555
N2 Cu1 1_555 1_555
N3 Cu1 1_555 1_555
C1 Cu1A 1_555 1_555
C2 N2 1_555 1_555
H1 C2 1_555 1_555
C3 C2 1_555 1_555
H2 C3 1_555 1_555
C4 C3 1_555 1_555
H3 C4 1_555 1_555
C5 C4 1_555 1_555
H4 C5 1_555 1_555
C6 H5 1_555 1_555
C7 C6 1_555 1_555
H6 C7 1_555 1_555
C8 C7 1_555 1_555
H7 C8 1_555 1_555
C9 N3 1_555 1_555
H8 C9 1_555 1_555
C10 N2 1_555 1_555
C11 N3 1_555 1_555
Cu2 N4 1_555 1_555
N4 C12 1_555 1_555
N5 Cu2 1_555 1_555
N6 Cu2 1_555 1_555
C12 Cu2B 1_555 1_555
C13 N5 1_555 1_555
H9 C13 1_555 1_555
C14 C13 1_555 1_555
H10 C14 1_555 1_555
C15 C14 1_555 1_555
H11 C15 1_555 1_555
C16 C15 1_555 1_555
H12 C16 1_555 1_555
C17 H13 1_555 1_555
C18 C17 1_555 1_555
H14 C18 1_555 1_555
C19 C18 1_555 1_555
H15 C19 1_555 1_555
C20 N6 1_555 1_555
H16 C20 1_555 1_555
C21 N5 1_555 1_555
C22 N6 1_555 1_555
Cu3 N7 1_555 1_555
N7 C23 1_555 1_555
C23 Cu3A 1_555 1_555
N8 Cu3 1_555 1_555
C24 N8 1_555 1_555
H17 C24 1_555 1_555
C25 C24 1_555 1_555
H18 C25 1_555 1_555
C26 C25 1_555 1_555
H19 C26 1_555 1_555
C27 C26 1_555 1_555
H20 C27 1_555 1_555
C28 N8 1_555 1_555
C29 C28 1_555 1_555
C30 C29 1_555 1_555
H21 C30 1_555 1_555
C31 C30 1_555 1_555
H22 C31 1_555 1_555
C32 C31 1_555 1_555
H23 C32 1_555 1_555
C33 C32 1_555 1_555
H24 C33 1_555 1_555
N9 Cu3 1_555 1_555
C1B Cu1 1_555 1_555
C12A Cu2 1_555 1_555
C23B Cu3 1_555 1_555
C5 C10 1_555 1_555
C6 C11 1_555 1_555
C8 C9 1_555 1_555
C10 C11 1_555 1_555
C16 C21 1_555 1_555
C17 C22 1_555 1_555
C19 C20 1_555 1_555
C21 C22 1_555 1_555
C27 C28 1_555 1_555
C29 N9 1_555 1_555
C33 N9 1_555 1_555

#END
