
#######################################################################
#
#                 Cambridge Crystallographic Data Centre
#                                CCDC 
#
#######################################################################
#
# If this CIF has been generated from an entry in the Cambridge 
# Structural Database, then it will include bibliographic, chemical, 
# crystal, experimental, refinement or atomic coordinate data resulting 
# from the CCDC's data processing and validation procedures.
#
#######################################################################

data_FODNIX
_symmetry_cell_setting           monoclinic
_symmetry_space_group_name_H-M   'P 2'
_symmetry_Int_Tables_number      3
_space_group_name_Hall           'P 2y'
loop_
_symmetry_equiv_pos_site_id
_symmetry_equiv_pos_as_xyz
1 x,y,z
2 -x,y,-z
_cell_length_a                   11.423(6)
_cell_length_b                   5.719(3)
_cell_length_c                   14.424(8)
_cell_angle_alpha                90
_cell_angle_beta                 103.647(8)
_cell_angle_gamma                90
_cell_volume                     915.69
loop_
_atom_site_label
_atom_site_type_symbol
_atom_site_fract_x
_atom_site_fract_y
_atom_site_fract_z
Ba1 Ba -0.5000 -1.8615 -0.5000
O1 O -0.7875(2) -2.3497(12) -0.99368(18)
O2 O -0.6369(3) -2.2443(6) -0.5688(2)
O3 O -0.5931(3) -2.5520(6) -0.6481(2)
O4 O -0.9255(3) -1.7605(6) -0.8131(2)
O5 O -0.4873(5) -1.7551(7) -1.2198(3)
H1 H -0.4634 -1.6925 -1.2631
C1 C -0.6417(3) -2.3573(16) -0.6451(2)
C2 C -0.7145(4) -2.2483(9) -0.7366(3)
C3 C -0.7262(3) -2.3617(18) -1.1374(3)
H2 H -0.7658 -2.5043 -1.1505
O6 O -0.5489(3) -2.0296(6) -1.3301(2)
C4 C -0.9786(4) -1.5226(9) -0.6962(4)
H3 H -0.9250 -1.4105 -0.7081
C5 C -1.1348(3) -1.8607(17) -0.6582(3)
H4 H -1.1853 -1.9761 -0.6441
C6 C -0.7272(4) -2.2418(9) -1.0539(3)
C7 C -0.8562(5) -1.9578(9) -0.8136(4)
C8 C -0.9882(4) -1.7350(9) -0.7420(3)
C9 C -0.5462(4) -1.9480(9) -1.2518(4)
C10 C -0.7853(4) -2.2453(9) -0.9064(3)
C11 C -0.6105(4) -1.9350(9) -1.0983(3)
H5 H -0.5716 -1.7916 -1.0853
C12 C -0.6703(4) -2.0291(9) -1.0337(3)
H6 H -0.6720 -1.9499 -0.9777
C13 C -0.7852(4) -2.0515(8) -0.7304(3)
H7 H -0.7846 -1.9846 -0.6716
C14 C -1.1286(4) -1.6434(9) -0.6140(3)
C15 C -1.0650(4) -1.9053(9) -0.7238(3)
H8 H -1.0703 -2.0488 -0.7549
C16 C -0.7150(3) -2.3495(16) -0.8252(3)
H9 H -0.6697 -2.4824 -0.8295
C17 C -0.6657(4) -2.2663(9) -1.2008(3)
H10 H -0.6637 -2.3464 -1.2565
C18 C -0.8565(4) -2.0518(9) -0.9023(3)
H11 H -0.9035 -1.9864 -0.9577
C19 C -0.6079(4) -2.0525(9) -1.1820(3)
O7 O -1.2142(3) -1.3583(11) -0.5334(2)
H12 H -1.2687 -1.3313 -0.5068
O8 O -1.2749(3) -1.7308(6) -0.5249(3)
C20 C -1.0490(4) -1.4763(9) -0.6325(3)
H13 H -1.0430 -1.3322 -0.6018
C21 C -1.2122(4) -1.5862(8) -0.5527(3)
O1A O -1.2125(2) -2.3497(12) -0.00632(18)
O2A O -1.3631(3) -2.2443(6) -0.4312(2)
O3A O -1.4069(3) -2.5520(6) -0.3519(2)
O4A O -1.0745(3) -1.7605(6) -0.1869(2)
O5A O -1.5127(5) -1.7551(7) 0.2198(3)
H1A H -1.5366 -1.6925 0.2631
C1A C -1.3583(3) -2.3573(16) -0.3549(2)
C2A C -1.2855(4) -2.2483(9) -0.2634(3)
C3A C -1.2738(3) -2.3617(18) 0.1374(3)
H2A H -1.2342 -2.5043 0.1505
O6A O -1.4511(3) -2.0296(6) 0.3301(2)
C4A C -1.0214(4) -1.5226(9) -0.3038(4)
H3A H -1.0750 -1.4105 -0.2919
C5A C -0.8652(3) -1.8607(17) -0.3418(3)
H4A H -0.8147 -1.9761 -0.3559
C6A C -1.2728(4) -2.2418(9) 0.0539(3)
C7A C -1.1438(5) -1.9578(9) -0.1864(4)
C8A C -1.0118(4) -1.7350(9) -0.2580(3)
C9A C -1.4538(4) -1.9480(9) 0.2518(4)
C10A C -1.2147(4) -2.2453(9) -0.0936(3)
C11A C -1.3895(4) -1.9350(9) 0.0983(3)
H5A H -1.4284 -1.7916 0.0853
C12A C -1.3297(4) -2.0291(9) 0.0337(3)
H6A H -1.3280 -1.9499 -0.0223
C13A C -1.2148(4) -2.0515(8) -0.2696(3)
H7A H -1.2154 -1.9846 -0.3284
C14A C -0.8714(4) -1.6434(9) -0.3860(3)
C15A C -0.9350(4) -1.9053(9) -0.2762(3)
H8A H -0.9297 -2.0488 -0.2451
C16A C -1.2850(3) -2.3495(16) -0.1748(3)
H9A H -1.3303 -2.4824 -0.1705
C17A C -1.3343(4) -2.2663(9) 0.2008(3)
H10A H -1.3363 -2.3464 0.2565
C18A C -1.1435(4) -2.0518(9) -0.0977(3)
H11A H -1.0965 -1.9864 -0.0423
C19A C -1.3921(4) -2.0525(9) 0.1820(3)
O7A O -0.7858(3) -1.3583(11) -0.4666(2)
H12A H -0.7313 -1.3313 -0.4932
O8A O -0.7251(3) -1.7308(6) -0.4751(3)
C20A C -0.9510(4) -1.4763(9) -0.3675(3)
H13A H -0.9570 -1.3322 -0.3982
C21A C -0.7878(4) -1.5862(8) -0.4473(3)
Ba1_2 Ba -1.5000 -2.8615 -0.5000
Ba1_3 Ba -1.5000 -1.8615 -0.5000
Ba1_4 Ba -1.5000 -1.8615 0.5000
Ba1_5 Ba -0.5000 -2.8615 -0.5000
Ba1_6 Ba -0.5000 -1.8615 -1.5000
O2A_2 O -0.3631(3) -2.2443(6) -0.4312(2)
O3_2 O -0.5931(3) -1.5520(6) -0.6481(2)
O3A_2 O -0.4069(3) -1.5520(6) -0.3519(2)
O6_2 O -0.5489(3) -2.0296(6) -0.3301(2)
O6A_2 O -0.4511(3) -2.0296(6) -0.6699(2)
O8_2 O -0.2749(3) -1.7308(6) -0.5249(3)
loop_
_geom_bond_atom_site_label_1
_geom_bond_atom_site_label_2
_geom_bond_site_symmetry_1
_geom_bond_site_symmetry_2
Ba1 O2 1_555 1_555
O1 C6 1_555 1_555
O2 C1 1_555 1_555
O3 C1 1_555 1_555
O4 C7 1_555 1_555
O5 H1 1_555 1_555
C1 C2 1_555 1_555
C2 C13 1_555 1_555
C3 H2 1_555 1_555
O6 C9 1_555 1_555
C4 H3 1_555 1_555
C5 H4 1_555 1_555
C6 C3 1_555 1_555
C7 C13 1_555 1_555
C8 O4 1_555 1_555
C9 O5 1_555 1_555
C10 O1 1_555 1_555
C11 H5 1_555 1_555
C12 C6 1_555 1_555
H6 C12 1_555 1_555
C13 H7 1_555 1_555
C14 C5 1_555 1_555
C15 C5 1_555 1_555
H8 C15 1_555 1_555
C16 C2 1_555 1_555
H9 C16 1_555 1_555
C17 C3 1_555 1_555
H10 C17 1_555 1_555
C18 C7 1_555 1_555
H11 C18 1_555 1_555
C19 C9 1_555 1_555
O7 H12 1_555 1_555
O8 C21 1_555 1_555
C20 C4 1_555 1_555
H13 C20 1_555 1_555
C21 C14 1_555 1_555
O1A C6A 1_555 1_555
O2A C1A 1_555 1_555
O3A C1A 1_555 1_555
O4A C7A 1_555 1_555
O5A H1A 1_555 1_555
C1A C2A 1_555 1_555
C2A C13A 1_555 1_555
C3A H2A 1_555 1_555
O6A C9A 1_555 1_555
C4A H3A 1_555 1_555
C5A H4A 1_555 1_555
C6A C3A 1_555 1_555
C7A C13A 1_555 1_555
C8A O4A 1_555 1_555
C9A O5A 1_555 1_555
C10A O1A 1_555 1_555
C11A H5A 1_555 1_555
C12A C6A 1_555 1_555
H6A C12A 1_555 1_555
C13A H7A 1_555 1_555
C14A C5A 1_555 1_555
C15A C5A 1_555 1_555
H8A C15A 1_555 1_555
C16A C2A 1_555 1_555
H9A C16A 1_555 1_555
C17A C3A 1_555 1_555
H10A C17A 1_555 1_555
C18A C7A 1_555 1_555
H11A C18A 1_555 1_555
C19A C9A 1_555 1_555
O7A H12A 1_555 1_555
O8A Ba1 1_555 1_555
C20A C4A 1_555 1_555
H13A C20A 1_555 1_555
C21A C14A 1_555 1_555
Ba1_2 O3A 1_555 1_555
Ba1_3 O8 1_555 1_555
Ba1_4 O6A 1_555 1_555
Ba1_5 O3 1_555 1_555
Ba1_6 O6 1_555 1_555
O2A_2 Ba1 1_555 1_555
O3_2 Ba1 1_555 1_555
O3A_2 Ba1 1_555 1_555
O6_2 Ba1 1_555 1_555
O6A_2 Ba1 1_555 1_555
O8_2 Ba1 1_555 1_555
C4 C8 1_555 1_555
C8 C15 1_555 1_555
C10 C16 1_555 1_555
C10 C18 1_555 1_555
C11 C12 1_555 1_555
C11 C19 1_555 1_555
C14 C20 1_555 1_555
C17 C19 1_555 1_555
O7 C21 1_555 1_555
O2A Ba1_3 1_555 1_555
C4A C8A 1_555 1_555
C8A C15A 1_555 1_555
C10A C16A 1_555 1_555
C10A C18A 1_555 1_555
C11A C12A 1_555 1_555
C11A C19A 1_555 1_555
C14A C20A 1_555 1_555
C17A C19A 1_555 1_555
O7A C21A 1_555 1_555
O8A C21A 1_555 1_555

#END
