
#######################################################################
#
#                 Cambridge Crystallographic Data Centre
#                                CCDC 
#
#######################################################################
#
# If this CIF has been generated from an entry in the Cambridge 
# Structural Database, then it will include bibliographic, chemical, 
# crystal, experimental, refinement or atomic coordinate data resulting 
# from the CCDC's data processing and validation procedures.
#
#######################################################################

data_FODROH
_symmetry_cell_setting           triclinic
_symmetry_space_group_name_H-M   'P 1'
_symmetry_Int_Tables_number      1
_space_group_name_Hall           'P 1'
loop_
_symmetry_equiv_pos_site_id
_symmetry_equiv_pos_as_xyz
1 x,y,z
_cell_length_a                   8.4010(19)
_cell_length_b                   12.5882(19)
_cell_length_c                   16.095(2)
_cell_angle_alpha                82.070(13)
_cell_angle_beta                 89.048(15)
_cell_angle_gamma                86.522(15)
_cell_volume                     1682.66
loop_
_atom_site_label
_atom_site_type_symbol
_atom_site_fract_x
_atom_site_fract_y
_atom_site_fract_z
Hg1 Hg 0.75119(5) 0.48969(4) 0.56683(4)
Hg2 Hg 1.24860(6) 0.51111(4) 0.43305(4)
S1 S 0.7200(6) 0.6678(4) 0.4897(3)
S2 S 0.9107(5) 0.5126(3) 0.3973(3)
S3 S 0.8654(6) 0.4749(4) 0.7323(3)
S4 S 0.8277(6) 0.3050(4) 0.6233(3)
S5 S 1.3223(6) 0.3458(3) 0.3759(3)
S6 S 1.3630(6) 0.5527(4) 0.2662(3)
S7 S 0.2181(6) 0.6606(4) 0.5132(3)
S8 S 0.4110(5) 0.4721(3) 0.6006(3)
C1 C 0.8455(17) 0.6381(12) 0.4045(9)
N1 N 0.8745(15) 0.7234(11) 0.3467(8)
C2 C 0.812(2) 0.8358(13) 0.3536(10)
H1 H 0.7121 0.8335 0.3846
H2 H 0.7906 0.8735 0.2978
C3 C 0.929(2) 0.8982(16) 0.3975(14)
H3 H 0.9503 0.8605 0.4532
H4 H 1.0286 0.9008 0.3663
C4 C 0.865(2) 1.0110(16) 0.4044(12)
C5 C 0.731(3) 1.0323(16) 0.4548(15)
H5 H 0.6780 0.9760 0.4847
C6 C 0.679(3) 1.1356(18) 0.4591(13)
H6 H 0.5899 1.1499 0.4918
C7 C 0.757(3) 1.2205(18) 0.4152(15)
H7 H 0.7206 1.2912 0.4178
C8 C 0.884(3) 1.1990(15) 0.3701(15)
H8 H 0.9379 1.2550 0.3407
C9 C 0.936(2) 1.0973(16) 0.3660(14)
H9 H 1.0277 1.0856 0.3344
C10 C 0.987(2) 0.7110(16) 0.2773(10)
H10 H 1.0583 0.7694 0.2713
H11 H 1.0507 0.6441 0.2901
C11 C 0.9001(14) 0.7112(12) 0.1962(7)
C12 C 0.9942(13) 0.7277(14) 0.1243(9)
H12 H 1.1018 0.7393 0.1286
N2 N 0.927(2) 0.7269(17) 0.0460(7)
C13 C 0.766(2) 0.7096(17) 0.0396(7)
H13 H 0.7217 0.7091 -0.0128
C14 C 0.6723(14) 0.6932(13) 0.1116(9)
H14 H 0.5646 0.6816 0.1073
C15 C 0.7391(13) 0.6940(11) 0.1899(7)
H15 H 0.6762 0.6829 0.2380
C16 C 0.8811(18) 0.3428(13) 0.7195(10)
N3 N 0.9389(18) 0.2700(11) 0.7766(10)
C17 C 0.966(2) 0.1534(13) 0.7621(12)
H16 H 1.0508 0.1184 0.7980
H17 H 0.9971 0.1499 0.7042
C18 C 0.809(2) 0.0953(15) 0.7823(13)
H18 H 0.7801 0.0962 0.8408
H19 H 0.7235 0.1315 0.7478
C19 C 0.8371(19) -0.0186(15) 0.7646(12)
C20 C 0.852(2) -0.0403(17) 0.6814(14)
H20 H 0.8454 0.0168 0.6380
C21 C 0.877(3) -0.142(2) 0.6622(17)
H21 H 0.8867 -0.1531 0.6064
C22 C 0.888(3) -0.227(2) 0.725(2)
H22 H 0.8981 -0.2963 0.7103
C23 C 0.886(3) -0.218(2) 0.800(2)
H23 H 0.9037 -0.2776 0.8404
C24 C 0.856(3) -0.1089(19) 0.8263(15)
H24 H 0.8488 -0.1010 0.8829
C25 C 0.989(2) 0.2927(18) 0.8583(13)
H25 H 0.9439 0.2413 0.9013
H26 H 0.9449 0.3635 0.8664
C26 C 1.169(2) 0.2889(15) 0.8708(13)
C27 C 1.232(2) 0.2692(19) 0.9489(12)
H27 H 1.1635 0.2524 0.9940
N4 N 1.384(3) 0.272(2) 0.9645(15)
C28 C 1.481(3) 0.287(2) 0.9015(16)
H28 H 1.5892 0.2792 0.9129
C29 C 1.437(2) 0.3145(16) 0.8187(15)
H29 H 1.5096 0.3298 0.7750
C30 C 1.266(3) 0.3165(18) 0.8070(16)
H30 H 1.2234 0.3376 0.7538
C31 C 1.3833(17) 0.4164(12) 0.2811(11)
N5 N 1.4481(15) 0.3613(11) 0.2238(8)
C32 C 1.472(2) 0.2425(13) 0.2370(12)
H31 H 1.4994 0.2186 0.2952
H32 H 1.5609 0.2211 0.2025
C33 C 1.324(2) 0.1882(15) 0.2152(12)
H33 H 1.3034 0.2050 0.1555
H34 H 1.2320 0.2155 0.2450
C34 C 1.3460(15) 0.0638(7) 0.2396(9)
C35 C 1.3559(17) -0.0022(11) 0.1770(8)
H35 H 1.3480 0.0277 0.1210
C36 C 1.3776(17) -0.1129(10) 0.1981(10)
H36 H 1.3842 -0.1571 0.1562
C37 C 1.3894(16) -0.1577(7) 0.2819(11)
H37 H 1.4040 -0.2317 0.2960
C38 C 1.3796(17) -0.0917(11) 0.3445(8)
H38 H 1.3875 -0.1216 0.4005
C39 C 1.3579(16) 0.0191(10) 0.3233(8)
H39 H 1.3513 0.0632 0.3652
C40 C 1.496(2) 0.4088(15) 0.1413(11)
H40 H 1.4494 0.4816 0.1301
H41 H 1.4563 0.3681 0.0999
C41 C 1.6784(18) 0.4110(13) 0.1323(11)
C42 C 1.748(4) 0.412(2) 0.0552(17)
H42 H 1.6817 0.4118 0.0093
N6 N 1.908(2) 0.412(2) 0.0416(13)
C43 C 1.993(3) 0.419(2) 0.1036(17)
H43 H 2.1017 0.4238 0.0935
C44 C 1.942(2) 0.4205(18) 0.1834(14)
H44 H 2.0132 0.4206 0.2271
C45 C 1.777(3) 0.4218(17) 0.1967(12)
H45 H 1.7343 0.4301 0.2493
C46 C 0.3422(18) 0.6029(13) 0.5970(10)
N7 N 0.3725(14) 0.6660(11) 0.6531(9)
C47 C 0.4778(18) 0.6282(15) 0.7234(11)
H46 H 0.5600 0.6789 0.7242
H47 H 0.5300 0.5600 0.7140
C48 C 0.3954(19) 0.6135(14) 0.8101(10)
C49 C 0.242(3) 0.5851(19) 0.8226(15)
H48 H 0.1824 0.5741 0.7768
N8 N 0.175(3) 0.5725(18) 0.8999(14)
C50 C 0.270(4) 0.587(3) 0.9599(18)
H49 H 0.2234 0.5890 1.0125
C51 C 0.425(3) 0.599(3) 0.9545(14)
H50 H 0.4880 0.5933 1.0019
C52 C 0.483(3) 0.617(3) 0.8822(17)
H51 H 0.5887 0.6339 0.8764
C53 C 0.311(2) 0.7771(14) 0.6497(11)
H52 H 0.2921 0.7938 0.7062
H53 H 0.2101 0.7869 0.6203
C54 C 0.4272(19) 0.8518(14) 0.6055(13)
H54 H 0.5270 0.8426 0.6358
H55 H 0.4483 0.8330 0.5497
C55 C 0.368(2) 0.9671(16) 0.5981(13)
C56 C 0.437(2) 1.0415(16) 0.6434(14)
H56 H 0.5233 1.0176 0.6776
C57 C 0.385(3) 1.141(2) 0.6396(16)
H57 H 0.4344 1.1852 0.6719
C58 C 0.260(2) 1.1846(17) 0.5902(14)
H58 H 0.2266 1.2568 0.5874
C59 C 0.184(3) 1.1158(19) 0.5436(16)
H59 H 0.0969 1.1416 0.5103
C60 C 0.240(3) 1.0084(15) 0.5477(13)
H60 H 0.1914 0.9637 0.5158
Hg2_2 Hg 0.24860(6) 0.51111(4) 0.43305(4)
S7_2 S 1.2181(6) 0.6606(4) 0.5132(3)
S8_2 S 1.4110(5) 0.4721(3) 0.6006(3)
loop_
_geom_bond_atom_site_label_1
_geom_bond_atom_site_label_2
_geom_bond_site_symmetry_1
_geom_bond_site_symmetry_2
Hg1 S1 1_555 1_555
Hg2 S2 1_555 1_555
S1 C1 1_555 1_555
S2 Hg1 1_555 1_555
S3 Hg1 1_555 1_555
S4 Hg1 1_555 1_555
S5 Hg2 1_555 1_555
S6 Hg2 1_555 1_555
S7 C46 1_555 1_555
S8 Hg1 1_555 1_555
C1 S2 1_555 1_555
N1 C1 1_555 1_555
C2 N1 1_555 1_555
H1 C2 1_555 1_555
H2 C2 1_555 1_555
C3 C2 1_555 1_555
H3 C3 1_555 1_555
H4 C3 1_555 1_555
C4 C3 1_555 1_555
C5 C4 1_555 1_555
H5 C5 1_555 1_555
C6 C5 1_555 1_555
H6 C6 1_555 1_555
C7 C6 1_555 1_555
H7 C7 1_555 1_555
C8 C7 1_555 1_555
H8 C8 1_555 1_555
C9 C4 1_555 1_555
H9 C9 1_555 1_555
C10 N1 1_555 1_555
H10 C10 1_555 1_555
H11 C10 1_555 1_555
C11 C10 1_555 1_555
C12 C11 1_555 1_555
H12 C12 1_555 1_555
N2 C12 1_555 1_555
C13 N2 1_555 1_555
H13 C13 1_555 1_555
C14 C13 1_555 1_555
H14 C14 1_555 1_555
C15 C11 1_555 1_555
H15 C15 1_555 1_555
C16 S3 1_555 1_555
N3 C16 1_555 1_555
C17 N3 1_555 1_555
H16 C17 1_555 1_555
H17 C17 1_555 1_555
C18 C17 1_555 1_555
H18 C18 1_555 1_555
H19 C18 1_555 1_555
C19 C18 1_555 1_555
C20 C19 1_555 1_555
H20 C20 1_555 1_555
C21 C20 1_555 1_555
H21 C21 1_555 1_555
C22 C21 1_555 1_555
H22 C22 1_555 1_555
C23 C22 1_555 1_555
H23 C23 1_555 1_555
C24 C19 1_555 1_555
H24 C24 1_555 1_555
C25 N3 1_555 1_555
H25 C25 1_555 1_555
H26 C25 1_555 1_555
C26 C25 1_555 1_555
C27 C26 1_555 1_555
H27 C27 1_555 1_555
N4 C27 1_555 1_555
C28 N4 1_555 1_555
H28 C28 1_555 1_555
C29 C28 1_555 1_555
H29 C29 1_555 1_555
C30 C26 1_555 1_555
H30 C30 1_555 1_555
C31 S5 1_555 1_555
N5 C31 1_555 1_555
C32 N5 1_555 1_555
H31 C32 1_555 1_555
H32 C32 1_555 1_555
C33 C32 1_555 1_555
H33 C33 1_555 1_555
H34 C33 1_555 1_555
C34 C33 1_555 1_555
C35 C34 1_555 1_555
H35 C35 1_555 1_555
C36 C35 1_555 1_555
H36 C36 1_555 1_555
C37 C36 1_555 1_555
H37 C37 1_555 1_555
C38 C37 1_555 1_555
H38 C38 1_555 1_555
C39 C34 1_555 1_555
H39 C39 1_555 1_555
C40 N5 1_555 1_555
H40 C40 1_555 1_555
H41 C40 1_555 1_555
C41 C40 1_555 1_555
C42 C41 1_555 1_555
H42 C42 1_555 1_555
N6 C42 1_555 1_555
C43 N6 1_555 1_555
H43 C43 1_555 1_555
C44 C43 1_555 1_555
H44 C44 1_555 1_555
C45 C41 1_555 1_555
H45 C45 1_555 1_555
C46 S8 1_555 1_555
N7 C46 1_555 1_555
C47 N7 1_555 1_555
H46 C47 1_555 1_555
H47 C47 1_555 1_555
C48 C47 1_555 1_555
C49 C48 1_555 1_555
H48 C49 1_555 1_555
N8 C49 1_555 1_555
C50 N8 1_555 1_555
H49 C50 1_555 1_555
C51 C50 1_555 1_555
H50 C51 1_555 1_555
C52 C48 1_555 1_555
H51 C52 1_555 1_555
C53 N7 1_555 1_555
H52 C53 1_555 1_555
H53 C53 1_555 1_555
C54 C53 1_555 1_555
H54 C54 1_555 1_555
H55 C54 1_555 1_555
C55 C54 1_555 1_555
C56 C55 1_555 1_555
H56 C56 1_555 1_555
C57 C56 1_555 1_555
H57 C57 1_555 1_555
C58 C57 1_555 1_555
H58 C58 1_555 1_555
C59 C58 1_555 1_555
H59 C59 1_555 1_555
C60 C55 1_555 1_555
H60 C60 1_555 1_555
Hg2_2 S7 1_555 1_555
S7_2 Hg2 1_555 1_555
S8_2 Hg2 1_555 1_555
S4 C16 1_555 1_555
S6 C31 1_555 1_555
S8 Hg2_2 1_555 1_555
C8 C9 1_555 1_555
C14 C15 1_555 1_555
C23 C24 1_555 1_555
C29 C30 1_555 1_555
C38 C39 1_555 1_555
C44 C45 1_555 1_555
C51 C52 1_555 1_555
C59 C60 1_555 1_555

#END
