
#######################################################################
#
#                 Cambridge Crystallographic Data Centre
#                                CCDC 
#
#######################################################################
#
# If this CIF has been generated from an entry in the Cambridge 
# Structural Database, then it will include bibliographic, chemical, 
# crystal, experimental, refinement or atomic coordinate data resulting 
# from the CCDC's data processing and validation procedures.
#
#######################################################################

data_FODRIB
_symmetry_cell_setting           monoclinic
_symmetry_space_group_name_H-M   'C 2/c'
_symmetry_Int_Tables_number      15
_space_group_name_Hall           '-C 2yn'
loop_
_symmetry_equiv_pos_site_id
_symmetry_equiv_pos_as_xyz
1 x,y,z
2 -x,y,1/2-z
3 1/2+x,1/2+y,z
4 1/2-x,1/2+y,1/2-z
5 -x,-y,-z
6 x,-y,1/2+z
7 1/2-x,1/2-y,-z
8 1/2+x,1/2-y,1/2+z
_cell_length_a                   23.103(2)
_cell_length_b                   6.2441(15)
_cell_length_c                   18.0358(15)
_cell_angle_alpha                90
_cell_angle_beta                 94.053(9)
_cell_angle_gamma                90
_cell_volume                     2595.29
loop_
_atom_site_label
_atom_site_type_symbol
_atom_site_fract_x
_atom_site_fract_y
_atom_site_fract_z
Hg1 Hg 0.7500 0.7500 0.0000
S1 S 0.65162(6) 0.81771(19) -0.05935(7)
S2 S 0.69671(6) 0.3713(2) -0.05603(7)
C1 C 0.64815(19) 0.5543(7) -0.0898(2)
N1 N 0.60618(15) 0.5022(6) -0.14187(17)
C2 C 0.5633(2) 0.6561(8) -0.1721(2)
H1 H 0.5511 0.6161 -0.2228
H2 H 0.5811 0.7966 -0.1734
C3 C 0.5114(2) 0.6676(9) -0.1279(2)
O1 O 0.47953(17) 0.4866(7) -0.1241(2)
C4 C 0.4365(3) 0.5340(15) -0.0788(3)
H3 H 0.4085 0.4369 -0.0658
C5 C 0.4395(3) 0.7324(13) -0.0559(4)
H4 H 0.4148 0.8011 -0.0252
C6 C 0.4886(3) 0.8214(11) -0.0880(3)
H5 H 0.5023 0.9609 -0.0821
C7 C 0.6054(2) 0.2949(7) -0.1777(2)
H6 H 0.5656 0.2583 -0.1935
H7 H 0.6197 0.1882 -0.1418
C8 C 0.6375(3) 0.1102(9) -0.2917(3)
H8 H 0.6124 -0.0022 -0.2832
C9 C 0.6417(2) 0.2864(7) -0.2445(2)
C10 C 0.6796(2) 0.4468(9) -0.2605(2)
H9 H 0.6841 0.5662 -0.2298
C11 C 0.7110(2) 0.4286(9) -0.3225(3)
H10 H 0.7359 0.5397 -0.3332
N2 N 0.7074(2) 0.2612(7) -0.3677(2)
C12 C 0.6715(3) 0.1062(10) -0.3515(3)
H11 H 0.6690 -0.0131 -0.3824
S1F S 0.84838(6) 0.68229(19) 0.05935(7)
S2F S 0.80329(6) 1.1287(2) 0.05603(7)
C1F C 0.85185(19) 0.9457(7) 0.0898(2)
N1F N 0.89382(15) 0.9978(6) 0.14187(17)
C2F C 0.9367(2) 0.8439(8) 0.1721(2)
H1F H 0.9489 0.8839 0.2228
H2F H 0.9189 0.7034 0.1734
C3F C 0.9886(2) 0.8324(9) 0.1279(2)
O1F O 1.02047(17) 1.0134(7) 0.1241(2)
C4F C 1.0635(3) 0.9660(15) 0.0788(3)
H3F H 1.0915 1.0631 0.0658
C5F C 1.0605(3) 0.7676(13) 0.0559(4)
H4F H 1.0852 0.6989 0.0252
C6F C 1.0114(3) 0.6786(11) 0.0880(3)
H5F H 0.9977 0.5391 0.0821
C7F C 0.8946(2) 1.2051(7) 0.1777(2)
H6F H 0.9344 1.2417 0.1935
H7F H 0.8803 1.3118 0.1418
C8F C 0.8625(3) 1.3898(9) 0.2917(3)
H8F H 0.8876 1.5022 0.2832
C9F C 0.8583(2) 1.2136(7) 0.2445(2)
C10F C 0.8204(2) 1.0532(9) 0.2605(2)
H9F H 0.8159 0.9338 0.2298
C11F C 0.7890(2) 1.0714(9) 0.3225(3)
H10F H 0.7641 0.9603 0.3332
N2F N 0.7926(2) 1.2388(7) 0.3677(2)
C12F C 0.8285(3) 1.3938(10) 0.3515(3)
H11F H 0.8310 1.5131 0.3824
Hg1C Hg 0.7500 0.2500 -0.5000
Hg1C_2 Hg 0.7500 1.2500 0.5000
N2C N 0.7926(2) 0.7612(7) -0.1323(2)
N2E N 0.7074(2) 0.7388(7) 0.1323(2)
loop_
_geom_bond_atom_site_label_1
_geom_bond_atom_site_label_2
_geom_bond_site_symmetry_1
_geom_bond_site_symmetry_2
Hg1 S1 1_555 1_555
S1 C1 1_555 1_555
S2 Hg1 1_555 1_555
C1 S2 1_555 1_555
N1 C1 1_555 1_555
C2 N1 1_555 1_555
H1 C2 1_555 1_555
H2 C2 1_555 1_555
C3 C2 1_555 1_555
O1 C3 1_555 1_555
C4 O1 1_555 1_555
H3 C4 1_555 1_555
C5 C4 1_555 1_555
H4 C5 1_555 1_555
C6 C3 1_555 1_555
H5 C6 1_555 1_555
C7 N1 1_555 1_555
H6 C7 1_555 1_555
H7 C7 1_555 1_555
C8 H8 1_555 1_555
C9 C7 1_555 1_555
C10 C9 1_555 1_555
H9 C10 1_555 1_555
C11 C10 1_555 1_555
H10 C11 1_555 1_555
N2 C11 1_555 1_555
C12 C8 1_555 1_555
H11 C12 1_555 1_555
S1F Hg1 1_555 1_555
S2F Hg1 1_555 1_555
C1F S1F 1_555 1_555
N1F C1F 1_555 1_555
C2F N1F 1_555 1_555
H1F C2F 1_555 1_555
H2F C2F 1_555 1_555
C3F C2F 1_555 1_555
O1F C3F 1_555 1_555
C4F O1F 1_555 1_555
H3F C4F 1_555 1_555
C5F C4F 1_555 1_555
H4F C5F 1_555 1_555
C6F C3F 1_555 1_555
H5F C6F 1_555 1_555
C7F N1F 1_555 1_555
H6F C7F 1_555 1_555
H7F C7F 1_555 1_555
C8F H8F 1_555 1_555
C9F C7F 1_555 1_555
C10F C9F 1_555 1_555
H9F C10F 1_555 1_555
C11F C10F 1_555 1_555
H10F C11F 1_555 1_555
N2F C11F 1_555 1_555
C12F C8F 1_555 1_555
H11F C12F 1_555 1_555
Hg1C N2 1_555 1_555
Hg1C_2 N2F 1_555 1_555
N2C Hg1 1_555 1_555
N2E Hg1 1_555 1_555
C5 C6 1_555 1_555
C8 C9 1_555 1_555
N2 C12 1_555 1_555
S2F C1F 1_555 1_555
C5F C6F 1_555 1_555
C8F C9F 1_555 1_555
N2F C12F 1_555 1_555

#END
