
#######################################################################
#
#                 Cambridge Crystallographic Data Centre
#                                CCDC 
#
#######################################################################
#
# If this CIF has been generated from an entry in the Cambridge 
# Structural Database, then it will include bibliographic, chemical, 
# crystal, experimental, refinement or atomic coordinate data resulting 
# from the CCDC's data processing and validation procedures.
#
#######################################################################

data_FODROG
_symmetry_cell_setting           triclinic
_symmetry_space_group_name_H-M   'P -1'
_symmetry_Int_Tables_number      2
_space_group_name_Hall           '-P 1'
loop_
_symmetry_equiv_pos_site_id
_symmetry_equiv_pos_as_xyz
1 x,y,z
2 -x,-y,-z
_cell_length_a                   6.037(3)
_cell_length_b                   7.008(4)
_cell_length_c                   10.749(5)
_cell_angle_alpha                89.58(3)
_cell_angle_beta                 87.06(3)
_cell_angle_gamma                67.09(3)
_cell_volume                     418.298
loop_
_atom_site_label
_atom_site_type_symbol
_atom_site_fract_x
_atom_site_fract_y
_atom_site_fract_z
Zn1 Zn 0.27692(5) 0.95126(4) 0.45017(3)
N1 N 0.0853(4) 0.9028(3) 0.6011(2)
N2 N 0.1708(4) 0.7826(4) 0.6833(2)
N3 N 0.2530(4) 0.6715(4) 0.7623(2)
N4 N 0.3840(4) 1.1941(3) 0.4625(2)
N5 N 0.2796(4) 1.3715(4) 0.4316(2)
N6 N 0.1830(5) 1.5396(4) 0.4024(3)
N7 N 0.4190(4) 0.8326(3) 0.2753(2)
C1 C 0.6418(5) 0.8138(4) 0.2419(3)
H1 H 0.7330 0.8311 0.3047
N8 N 0.7471(4) 0.7733(4) 0.1291(2)
C2 C 0.6170(5) 0.7432(4) 0.0391(2)
C3 C 0.3859(5) 0.7560(4) 0.0656(3)
H2 H 0.2960 0.7343 0.0036
C4 C 0.2918(5) 0.8015(4) 0.1854(3)
H3 H 0.1359 0.8109 0.2046
C5 C 0.7368(5) 0.6964(4) -0.0882(3)
H4 H 0.6170 0.7240 -0.1488
H5 H 0.8442 0.5532 -0.0938
H6 H 0.8263 0.7819 -0.1041
Zn1A Zn -0.27692(5) 1.04874(4) 0.54983(3)
Zn1A_2 Zn 0.72308(5) 1.04874(4) 0.54983(3)
N1A N -0.0853(4) 1.0972(3) 0.3989(2)
N4A N 0.6160(4) 0.8059(3) 0.5375(2)
loop_
_geom_bond_atom_site_label_1
_geom_bond_atom_site_label_2
_geom_bond_site_symmetry_1
_geom_bond_site_symmetry_2
Zn1 N1 1_555 1_555
N1 N2 1_555 1_555
N2 N3 1_555 1_555
N4 Zn1 1_555 1_555
N5 N4 1_555 1_555
N6 N5 1_555 1_555
N7 Zn1 1_555 1_555
C1 N7 1_555 1_555
H1 C1 1_555 1_555
N8 C1 1_555 1_555
C2 N8 1_555 1_555
C3 C2 1_555 1_555
H2 C3 1_555 1_555
C4 N7 1_555 1_555
H3 C4 1_555 1_555
C5 C2 1_555 1_555
H4 C5 1_555 1_555
H5 C5 1_555 1_555
H6 C5 1_555 1_555
Zn1A N1 1_555 1_555
Zn1A_2 N4 1_555 1_555
N1A Zn1 1_555 1_555
N4A Zn1 1_555 1_555
C3 C4 1_555 1_555
Zn1A N1A 1_555 1_555
Zn1A_2 N4A 1_555 1_555

#END
