
#######################################################################
#
#                 Cambridge Crystallographic Data Centre
#                                CCDC 
#
#######################################################################
#
# If this CIF has been generated from an entry in the Cambridge 
# Structural Database, then it will include bibliographic, chemical, 
# crystal, experimental, refinement or atomic coordinate data resulting 
# from the CCDC's data processing and validation procedures.
#
#######################################################################

data_FODRIA
_symmetry_cell_setting           monoclinic
_symmetry_space_group_name_H-M   'P 21'
_symmetry_Int_Tables_number      4
_space_group_name_Hall           'P 2yb'
loop_
_symmetry_equiv_pos_site_id
_symmetry_equiv_pos_as_xyz
1 x,y,z
2 -x,1/2+y,-z
_cell_length_a                   6.106(2)
_cell_length_b                   7.788(2)
_cell_length_c                   20.586(8)
_cell_angle_alpha                90
_cell_angle_beta                 97.57(3)
_cell_angle_gamma                90
_cell_volume                     970.405
loop_
_atom_site_label
_atom_site_type_symbol
_atom_site_fract_x
_atom_site_fract_y
_atom_site_fract_z
Zn1 Zn 0.89367(11) 0.83078(10) 0.25022(3)
Zn2 Zn 1.38408(11) 0.96357(11) 0.22550(4)
N1 N 1.2093(8) 0.9393(11) 0.3016(3)
N2 N 1.2829(10) 0.9620(13) 0.3576(3)
N3 N 1.3520(12) 0.9848(19) 0.4118(3)
N4 N 1.0679(9) 0.8672(10) 0.1761(2)
N5 N 0.9967(8) 0.8409(10) 0.1191(2)
N6 N 0.9261(10) 0.8193(14) 0.0664(3)
N7 N 0.7041(8) 1.0008(9) 0.2918(3)
N8 N 0.7739(9) 1.1141(9) 0.3284(3)
N9 N 0.8350(12) 1.2237(11) 0.3629(3)
N10 N 0.5766(9) 0.7796(8) 0.1930(3)
N11 N 0.4984(9) 0.6818(9) 0.1505(3)
N12 N 0.4243(11) 0.5934(11) 0.1101(4)
O1 O 0.9206(8) 0.6045(7) 0.2945(2)
N13 N 1.0174(10) 0.5958(9) 0.3566(3)
C1 C 1.2155(12) 0.5206(11) 0.3701(4)
C2 C 1.3097(15) 0.5127(13) 0.4351(4)
H1 H 1.4487 0.4639 0.4458
C3 C 1.2008(17) 0.5755(14) 0.4830(5)
H2 H 1.2652 0.5682 0.5264
C4 C 0.9951(17) 0.6503(14) 0.4682(4)
H3 H 0.9203 0.6935 0.5012
C5 C 0.9048(14) 0.6593(12) 0.4044(4)
H4 H 0.7662 0.7087 0.3932
C6 C 1.3229(15) 0.4542(17) 0.3162(4)
H5 H 1.2493 0.3513 0.2994
H6 H 1.4747 0.4289 0.3316
H7 H 1.3154 0.5386 0.2820
O2 O 1.3969(7) 1.1836(8) 0.1792(3)
N14 N 1.5784(8) 1.2232(8) 0.1513(3)
C7 C 1.5929(11) 1.1751(9) 0.0886(3)
C8 C 1.7742(12) 1.2335(10) 0.0614(3)
H8 H 1.7888 1.2015 0.0186
C9 C 1.9327(11) 1.3360(13) 0.0943(3)
H9 H 2.0507 1.3752 0.0741
C10 C 1.9145(11) 1.3802(10) 0.1581(4)
H10 H 2.0238 1.4455 0.1823
C11 C 1.7348(10) 1.3271(12) 0.1853(3)
H11 H 1.7177 1.3618 0.2276
C12 C 1.4158(12) 1.0659(12) 0.0537(4)
H12 H 1.4449 0.9476 0.0648
H13 H 1.4122 1.0807 0.0072
H14 H 1.2759 1.0986 0.0663
Zn2_2 Zn 0.38408(11) 0.96357(11) 0.22550(4)
N7_2 N 1.7041(8) 1.0008(9) 0.2918(3)
N10_2 N 1.5766(9) 0.7796(8) 0.1930(3)
loop_
_geom_bond_atom_site_label_1
_geom_bond_atom_site_label_2
_geom_bond_site_symmetry_1
_geom_bond_site_symmetry_2
Zn1 N1 1_555 1_555
Zn2 N1 1_555 1_555
N1 N2 1_555 1_555
N2 N3 1_555 1_555
N4 Zn1 1_555 1_555
N5 N4 1_555 1_555
N6 N5 1_555 1_555
N7 Zn1 1_555 1_555
N8 N7 1_555 1_555
N9 N8 1_555 1_555
N10 Zn1 1_555 1_555
N11 N10 1_555 1_555
N12 N11 1_555 1_555
O1 Zn1 1_555 1_555
N13 O1 1_555 1_555
C1 N13 1_555 1_555
C2 C1 1_555 1_555
H1 C2 1_555 1_555
C3 C2 1_555 1_555
H2 C3 1_555 1_555
C4 C3 1_555 1_555
H3 C4 1_555 1_555
C5 N13 1_555 1_555
H4 C5 1_555 1_555
C6 C1 1_555 1_555
H5 C6 1_555 1_555
H6 C6 1_555 1_555
H7 C6 1_555 1_555
O2 Zn2 1_555 1_555
N14 O2 1_555 1_555
C7 N14 1_555 1_555
C8 C7 1_555 1_555
H8 C8 1_555 1_555
C9 C8 1_555 1_555
H9 C9 1_555 1_555
C10 C9 1_555 1_555
H10 C10 1_555 1_555
C11 N14 1_555 1_555
H11 C11 1_555 1_555
C12 C7 1_555 1_555
H12 C12 1_555 1_555
H13 C12 1_555 1_555
H14 C12 1_555 1_555
Zn2_2 N7 1_555 1_555
N7_2 Zn2 1_555 1_555
N10_2 Zn2 1_555 1_555
Zn2 N4 1_555 1_555
N10 Zn2_2 1_555 1_555
C4 C5 1_555 1_555
C10 C11 1_555 1_555

#END
