
#######################################################################
#
#                 Cambridge Crystallographic Data Centre
#                                CCDC 
#
#######################################################################
#
# If this CIF has been generated from an entry in the Cambridge 
# Structural Database, then it will include bibliographic, chemical, 
# crystal, experimental, refinement or atomic coordinate data resulting 
# from the CCDC's data processing and validation procedures.
#
#######################################################################

data_FODSAT
_symmetry_cell_setting           monoclinic
_symmetry_space_group_name_H-M   'P 21/n'
_symmetry_Int_Tables_number      14
_space_group_name_Hall           '-P 2yn'
loop_
_symmetry_equiv_pos_site_id
_symmetry_equiv_pos_as_xyz
1 x,y,z
2 1/2-x,1/2+y,1/2-z
3 -x,-y,-z
4 1/2+x,1/2-y,1/2+z
_cell_length_a                   8.937(4)
_cell_length_b                   8.129(3)
_cell_length_c                   12.768(5)
_cell_angle_alpha                90
_cell_angle_beta                 109.11(3)
_cell_angle_gamma                90
_cell_volume                     876.463
loop_
_atom_site_label
_atom_site_type_symbol
_atom_site_fract_x
_atom_site_fract_y
_atom_site_fract_z
Cd1 Cd 0.04109(4) 0.18881(4) 0.07064(3)
N1 N -0.1727(4) 0.0306(5) -0.0192(3)
N2 N -0.3045(5) 0.0875(5) -0.0514(3)
N3 N -0.4306(5) 0.1407(6) -0.0812(4)
N4 N -0.1011(5) 0.4104(5) 0.0978(4)
N5 N -0.0604(4) 0.5489(5) 0.1019(3)
N6 N -0.0266(5) 0.6896(5) 0.1067(3)
N7 N 0.0670(4) 0.0379(5) 0.2384(3)
C1 C 0.1970(5) -0.0543(6) 0.2786(4)
H1 H 0.2759 -0.0416 0.2464
N8 N 0.2234(4) -0.1627(5) 0.3606(3)
C2 C 0.1100(6) -0.1802(6) 0.4069(4)
H2 H 0.1252 -0.2543 0.4650
C3 C -0.0268(6) -0.0924(6) 0.3715(4)
H3 H -0.1043 -0.1053 0.4049
C4 C -0.0481(5) 0.0169(6) 0.2844(4)
C5 C -0.1974(6) 0.1123(7) 0.2394(4)
H4 H -0.2372 0.1396 0.2985
H5 H -0.2744 0.0474 0.1850
H6 H -0.1770 0.2115 0.2056
Cd1B Cd -0.04109(4) -0.18881(4) -0.07064(3)
Cd1B_2 Cd -0.04109(4) 0.81119(4) -0.07064(3)
Cd1A Cd 0.45891(4) -0.31119(4) 0.42936(3)
N1B N 0.1727(4) -0.0306(5) 0.0192(3)
N6B N 0.0266(5) 0.3104(5) -0.1067(3)
N8A N 0.2766(4) 0.3373(5) 0.1394(3)
loop_
_geom_bond_atom_site_label_1
_geom_bond_atom_site_label_2
_geom_bond_site_symmetry_1
_geom_bond_site_symmetry_2
Cd1 N1 1_555 1_555
N1 N2 1_555 1_555
N2 N3 1_555 1_555
N4 Cd1 1_555 1_555
N5 N4 1_555 1_555
N6 N5 1_555 1_555
N7 Cd1 1_555 1_555
C1 N7 1_555 1_555
H1 C1 1_555 1_555
N8 C1 1_555 1_555
C2 N8 1_555 1_555
H2 C2 1_555 1_555
C3 C2 1_555 1_555
H3 C3 1_555 1_555
C4 N7 1_555 1_555
C5 C4 1_555 1_555
H4 C5 1_555 1_555
H5 C5 1_555 1_555
H6 C5 1_555 1_555
Cd1B N1 1_555 1_555
Cd1B_2 N6 1_555 1_555
Cd1A N8 1_555 1_555
N1B Cd1 1_555 1_555
N6B Cd1 1_555 1_555
N8A Cd1 1_555 1_555
C3 C4 1_555 1_555
Cd1B N1B 1_555 1_555

#END
