
#######################################################################
#
#                 Cambridge Crystallographic Data Centre
#                                CCDC 
#
#######################################################################
#
# If this CIF has been generated from an entry in the Cambridge 
# Structural Database, then it will include bibliographic, chemical, 
# crystal, experimental, refinement or atomic coordinate data resulting 
# from the CCDC's data processing and validation procedures.
#
#######################################################################

data_FODTID
_symmetry_cell_setting           monoclinic
_symmetry_space_group_name_H-M   'P 2/n'
_symmetry_Int_Tables_number      13
_space_group_name_Hall           '-P 2yac'
loop_
_symmetry_equiv_pos_site_id
_symmetry_equiv_pos_as_xyz
1 x,y,z
2 1/2-x,y,1/2-z
3 -x,-y,-z
4 1/2+x,-y,1/2+z
_cell_length_a                   12.3557(10)
_cell_length_b                   11.3518(9)
_cell_length_c                   13.6847(11)
_cell_angle_alpha                90
_cell_angle_beta                 107.2830(10)
_cell_angle_gamma                90
_cell_volume                     1832.75
loop_
_atom_site_label
_atom_site_type_symbol
_atom_site_fract_x
_atom_site_fract_y
_atom_site_fract_z
N1 N 0.7500 -0.16227(17) 0.7500
C1 C 0.7139(2) -0.10090(17) 0.81741(16)
H1 H 0.6873 -0.1420 0.8644
Co1 Co 0.7500 0.64962(3) 0.7500
N2 N 0.7500 0.46019(17) 0.7500
O1 O 0.70915(10) 0.64978(10) 0.58866(9)
C2 C 0.7500 0.0836(2) 0.7500
C3 C 0.7500 0.2143(2) 0.7500
C4 C 0.61027(15) 0.66629(16) 0.41257(13)
O2 O 0.92158(11) 0.65737(13) 0.75542(10)
H2 H 0.9613 0.6583 0.8153
O3 O 0.57241(14) 0.87277(12) 0.39827(13)
O4 O 0.83325(15) 1.35871(14) 0.43478(17)
C5 C 0.81380(17) 0.27720(16) 0.83400(14)
H3 H 0.8573 0.2380 0.8921
O5 O 0.52367(13) 0.67946(19) 0.54436(11)
C6 C 0.61371(15) 0.66697(15) 0.52376(13)
C7 C 0.81220(17) 0.39818(16) 0.83058(14)
H4 H 0.8566 0.4392 0.8871
C8 C 0.79155(19) 1.15447(17) 0.41681(16)
O6 O 0.97231(14) 1.23519(15) 0.43775(16)
H5 H 1.0088 1.2965 0.4437
C9 C 0.58957(17) 0.76693(17) 0.35348(15)
C10 C 0.62544(18) 0.56108(18) 0.36651(16)
H6 H 0.6412 0.4926 0.4054
C11 C 0.86630(19) 1.25979(19) 0.43000(17)
C12 C 0.83089(19) 1.04026(19) 0.41152(18)
H7 H 0.9059 1.0282 0.4135
C13 C 0.6174(2) 0.5568(2) 0.26409(18)
H8 H 0.6277 0.4858 0.2341
C14 C 0.7142(2) 0.02012(17) 0.82090(16)
H9 H 0.6904 0.0591 0.8707
C15 C 0.7593(2) 0.94461(19) 0.40343(18)
H10 H 0.7858 0.8686 0.3999
C16 C 0.64794(18) 0.96330(17) 0.40065(16)
C17 C 0.67954(19) 1.17045(18) 0.41297(19)
H11 H 0.6523 1.2464 0.4156
C18 C 0.60725(19) 1.07601(18) 0.40529(19)
H12 H 0.5321 1.0880 0.4033
C19 C 0.5804(2) 0.7630(2) 0.25032(18)
H13 H 0.5651 0.8313 0.2111
C20 C 0.5942(2) 0.6577(3) 0.20625(17)
H14 H 0.5877 0.6546 0.1368
H15 H 0.946(3) 0.606(3) 0.733(3)
C1A C 0.7861(2) -0.10090(17) 0.68259(16)
H1A H 0.8127 -0.1420 0.6356
C5A C 0.68620(17) 0.27720(16) 0.66600(14)
H3A H 0.6427 0.2380 0.6079
C7A C 0.68780(17) 0.39818(16) 0.66942(14)
H4A H 0.6434 0.4392 0.6129
C14A C 0.7858(2) 0.02012(17) 0.67910(16)
H9A H 0.8096 0.0591 0.6293
O1A O 0.79085(10) 0.64978(10) 0.91134(9)
C4A C 0.88973(15) 0.66629(16) 1.08743(13)
O2A O 0.57842(11) 0.65737(13) 0.74458(10)
H2A H 0.5387 0.6583 0.6847
O3A O 0.92759(14) 0.87277(12) 1.10173(13)
O4A O 0.66675(15) 1.35871(14) 1.06522(17)
O5A O 0.97633(13) 0.67946(19) 0.95564(11)
C6A C 0.88629(15) 0.66697(15) 0.97624(13)
C8A C 0.70845(19) 1.15447(17) 1.08319(16)
O6A O 0.52769(14) 1.23519(15) 1.06225(16)
H5A H 0.4912 1.2965 1.0563
C9A C 0.91043(17) 0.76693(17) 1.14652(15)
C10A C 0.87456(18) 0.56108(18) 1.13349(16)
H6A H 0.8588 0.4926 1.0946
C11A C 0.63370(19) 1.25979(19) 1.07000(17)
C12A C 0.66911(19) 1.04026(19) 1.08848(18)
H7A H 0.5941 1.0282 1.0865
C13A C 0.8826(2) 0.5568(2) 1.23591(18)
H8A H 0.8723 0.4858 1.2659
C15A C 0.7407(2) 0.94461(19) 1.09657(18)
H10A H 0.7142 0.8686 1.1001
C16A C 0.85206(18) 0.96330(17) 1.09935(16)
C17A C 0.82046(19) 1.17045(18) 1.08703(19)
H11A H 0.8477 1.2464 1.0844
C18A C 0.89275(19) 1.07601(18) 1.09471(19)
H12A H 0.9679 1.0880 1.0967
C19A C 0.9196(2) 0.7630(2) 1.24968(18)
H13A H 0.9349 0.8313 1.2889
C20A C 0.9058(2) 0.6577(3) 1.29375(17)
H14A H 0.9123 0.6546 1.3632
H15A H 0.554(3) 0.606(3) 0.767(3)
N1_2 N 0.7500 0.83773(17) 0.7500
Co1_2 Co 0.7500 -0.35038(3) 0.7500
O7 O 0.90140(14) 0.57344(17) 0.54891(13)
H16 H 0.838(3) 0.598(3) 0.547(2)
H17 H 0.893(2) 0.517(3) 0.514(2)
loop_
_geom_bond_atom_site_label_1
_geom_bond_atom_site_label_2
_geom_bond_site_symmetry_1
_geom_bond_site_symmetry_2
N1 C1 1_555 1_555
C1 H1 1_555 1_555
Co1 N2 1_555 1_555
N2 C7 1_555 1_555
O1 Co1 1_555 1_555
C2 C3 1_555 1_555
C3 C5 1_555 1_555
C4 C6 1_555 1_555
O2 Co1 1_555 1_555
H2 O2 1_555 1_555
O3 C9 1_555 1_555
O4 C11 1_555 1_555
C5 H3 1_555 1_555
O5 C6 1_555 1_555
C6 O1 1_555 1_555
C7 C5 1_555 1_555
H4 C7 1_555 1_555
C8 C11 1_555 1_555
O6 H5 1_555 1_555
C9 C4 1_555 1_555
C10 C4 1_555 1_555
H6 C10 1_555 1_555
C11 O6 1_555 1_555
C12 C8 1_555 1_555
H7 C12 1_555 1_555
C13 C10 1_555 1_555
H8 C13 1_555 1_555
C14 C1 1_555 1_555
H9 C14 1_555 1_555
C15 C12 1_555 1_555
H10 C15 1_555 1_555
C16 O3 1_555 1_555
C17 C8 1_555 1_555
H11 C17 1_555 1_555
C18 C16 1_555 1_555
H12 C18 1_555 1_555
C19 C9 1_555 1_555
H13 C19 1_555 1_555
C20 C13 1_555 1_555
H14 C20 1_555 1_555
H15 O2 1_555 1_555
O7 H16 1_555 1_555
H17 O7 1_555 1_555
C1A N1 1_555 1_555
H1A C1A 1_555 1_555
C5A C3 1_555 1_555
H3A C5A 1_555 1_555
C7A N2 1_555 1_555
H4A C7A 1_555 1_555
C14A C2 1_555 1_555
H9A C14A 1_555 1_555
O1A Co1 1_555 1_555
C4A C6A 1_555 1_555
O2A Co1 1_555 1_555
H2A O2A 1_555 1_555
O3A C9A 1_555 1_555
O4A C11A 1_555 1_555
O5A C6A 1_555 1_555
C6A O1A 1_555 1_555
C8A C11A 1_555 1_555
O6A H5A 1_555 1_555
C9A C4A 1_555 1_555
C10A C4A 1_555 1_555
H6A C10A 1_555 1_555
C11A O6A 1_555 1_555
C12A C8A 1_555 1_555
H7A C12A 1_555 1_555
C13A C10A 1_555 1_555
H8A C13A 1_555 1_555
C15A C12A 1_555 1_555
H10A C15A 1_555 1_555
C16A O3A 1_555 1_555
C17A C8A 1_555 1_555
H11A C17A 1_555 1_555
C18A C16A 1_555 1_555
H12A C18A 1_555 1_555
C19A C9A 1_555 1_555
H13A C19A 1_555 1_555
C20A C13A 1_555 1_555
H14A C20A 1_555 1_555
H15A O2A 1_555 1_555
N1_2 Co1 1_555 1_555
Co1_2 N1 1_555 1_555
C2 C14 1_555 1_555
C15 C16 1_555 1_555
C17 C18 1_555 1_555
C19 C20 1_555 1_555
C1A C14A 1_555 1_555
C5A C7A 1_555 1_555
C15A C16A 1_555 1_555
C17A C18A 1_555 1_555
C19A C20A 1_555 1_555

#END
