
#######################################################################
#
#                 Cambridge Crystallographic Data Centre
#                                CCDC 
#
#######################################################################
#
# If this CIF has been generated from an entry in the Cambridge 
# Structural Database, then it will include bibliographic, chemical, 
# crystal, experimental, refinement or atomic coordinate data resulting 
# from the CCDC's data processing and validation procedures.
#
#######################################################################

data_FODVUQ
_symmetry_cell_setting           monoclinic
_symmetry_space_group_name_H-M   'P 21/n'
_symmetry_Int_Tables_number      14
_space_group_name_Hall           '-P 2yn'
loop_
_symmetry_equiv_pos_site_id
_symmetry_equiv_pos_as_xyz
1 x,y,z
2 1/2-x,1/2+y,1/2-z
3 -x,-y,-z
4 1/2+x,1/2-y,1/2+z
_cell_length_a                   16.3911(14)
_cell_length_b                   10.6924(5)
_cell_length_c                   41.291(3)
_cell_angle_alpha                90
_cell_angle_beta                 94.205(7)
_cell_angle_gamma                90
_cell_volume                     7217.19
loop_
_atom_site_label
_atom_site_type_symbol
_atom_site_fract_x
_atom_site_fract_y
_atom_site_fract_z
Cr1 Cr 0.07272(7) 0.19639(12) 0.11724(3)
Mn1 Mn 0.20473(7) 0.58833(11) 0.06333(3)
Mn2 Mn -0.02842(7) -0.18047(11) 0.18647(3)
O1 O 0.2050(3) 0.7083(5) 0.10900(12)
O2 O 0.3142(3) 0.5276(5) 0.09680(12)
O3 O -0.0406(3) -0.2988(5) 0.13958(12)
O4 O -0.1436(3) -0.1167(5) 0.15803(13)
O5 O 0.2917(3) 0.7196(5) 0.04439(13)
H1 H 0.3498 0.7380 0.0508
H2 H 0.2811 0.7899 0.0283
O6 O -0.1096(3) -0.3153(5) 0.20905(13)
H3 H -0.1494 -0.3550 0.1976
H4 H -0.0903 -0.3509 0.2210
N1 N 0.1044(4) 0.7310(6) 0.05448(15)
N2 N 0.1405(4) 0.5562(6) 0.01550(15)
N3 N 0.2624(4) 0.4215(6) 0.04097(16)
N4 N 0.1238(4) 0.4623(7) 0.08882(16)
N5 N 0.0402(4) -0.0578(6) 0.15533(16)
N6 N -0.0239(4) 0.2989(7) 0.17686(17)
N7 N -0.0936(5) 0.1366(8) 0.07421(19)
N8 N 0.1660(5) 0.1018(7) 0.0557(2)
N9 N 0.2435(5) 0.2078(8) 0.16021(19)
N10 N 0.0699(4) -0.3273(6) 0.19041(15)
N11 N 0.0481(4) -0.1515(6) 0.23186(15)
N12 N -0.0786(4) -0.0174(6) 0.21271(16)
C1 C 0.0841(5) 0.6339(7) 0.0035(2)
C2 C 0.0411(5) 0.6131(8) -0.02660(19)
H5 H -0.0010 0.6684 -0.0347
C3 C 0.0618(5) 0.5103(8) -0.0440(2)
H6 H 0.0345 0.4945 -0.0647
C4 C 0.1218(5) 0.4298(8) -0.03187(19)
H7 H 0.1349 0.3570 -0.0436
C5 C 0.1623(5) 0.4567(8) -0.00242(19)
C6 C 0.2318(5) 0.3808(8) 0.0133(2)
C7 C 0.2624(6) 0.2705(9) -0.0040(2)
H8 H 0.2451 0.2764 -0.0272
H9 H 0.2402 0.1940 0.0050
H10 H 0.3223 0.2684 -0.0012
C8 C 0.3314(6) 0.3654(9) 0.0588(2)
H11 H 0.3827 0.3975 0.0505
H12 H 0.3299 0.2736 0.0556
C9 C 0.3299(5) 0.3952(8) 0.0943(2)
H13 H 0.2863 0.3467 0.1040
H14 H 0.3830 0.3737 0.1059
C10 C 0.3102(5) 0.5724(8) 0.1291(2)
H15 H 0.3643 0.5643 0.1412
H16 H 0.2701 0.5227 0.1404
C11 C 0.2846(5) 0.7072(8) 0.1275(2)
H17 H 0.2799 0.7412 0.1496
H18 H 0.3248 0.7580 0.1165
C12 C 0.1766(5) 0.8313(7) 0.1003(2)
H19 H 0.2162 0.8738 0.0870
H20 H 0.1703 0.8819 0.1200
C13 C 0.0951(5) 0.8172(8) 0.0811(2)
H21 H 0.0538 0.7848 0.0953
H22 H 0.0762 0.8995 0.0725
C14 C 0.0651(5) 0.7384(7) 0.0262(2)
C15 C 0.0073(6) 0.8401(9) 0.0149(2)
H23 H -0.0089 0.8289 -0.0082
H24 H 0.0342 0.9215 0.0183
H25 H -0.0414 0.8368 0.0274
C16 C 0.0993(5) 0.3705(8) 0.0989(2)
C17 C 0.0550(4) 0.0278(8) 0.13941(19)
C18 C 0.0089(5) 0.2671(8) 0.1549(2)
C19 C -0.0353(6) 0.1656(8) 0.0890(2)
C20 C 0.1340(5) 0.1307(8) 0.0785(2)
C21 C 0.1818(6) 0.2071(8) 0.1451(2)
C22 C 0.0273(5) -0.0654(8) 0.25264(19)
C23 C 0.0704(6) -0.0461(8) 0.2828(2)
H26 H 0.0551 0.0171 0.2973
C24 C 0.1363(6) -0.1238(9) 0.2902(2)
H27 H 0.1666 -0.1157 0.3106
C25 C 0.1593(5) -0.2142(8) 0.26816(19)
H28 H 0.2055 -0.2662 0.2731
C26 C 0.1122(5) -0.2256(8) 0.23882(19)
C27 C 0.1264(5) -0.3198(8) 0.21289(19)
C28 C 0.2048(5) -0.3936(9) 0.2151(2)
H29 H 0.2338 -0.3802 0.2364
H30 H 0.2393 -0.3660 0.1981
H31 H 0.1924 -0.4827 0.2123
C29 C 0.0724(5) -0.4141(8) 0.16313(19)
H32 H 0.0919 -0.4971 0.1710
H33 H 0.1104 -0.3826 0.1474
C30 C -0.0134(5) -0.4253(7) 0.1468(2)
H34 H -0.0127 -0.4749 0.1266
H35 H -0.0502 -0.4667 0.1614
C31 C -0.1249(4) -0.2937(7) 0.12524(19)
H36 H -0.1614 -0.3436 0.1383
H37 H -0.1282 -0.3275 0.1029
C32 C -0.1495(5) -0.1592(8) 0.1250(2)
H38 H -0.1129 -0.1095 0.1120
H39 H -0.2063 -0.1499 0.1154
C33 C -0.1575(5) 0.0162(7) 0.1616(2)
H40 H -0.2122 0.0395 0.1516
H41 H -0.1156 0.0647 0.1510
C34 C -0.1522(5) 0.0424(8) 0.1976(2)
H42 H -0.1498 0.1338 0.2014
H43 H -0.2013 0.0092 0.2072
C35 C -0.0463(5) 0.0122(7) 0.2408(2)
C36 C -0.0765(6) 0.1150(9) 0.2614(2)
H44 H -0.0721 0.0889 0.2842
H45 H -0.1339 0.1331 0.2546
H46 H -0.0435 0.1903 0.2589
Cr2 Cr 0.58688(8) 0.71652(12) 0.12868(3)
Mn3 Mn 0.59611(7) 0.21915(11) 0.12981(3)
O7 O 0.5646(3) 0.2045(5) 0.18233(12)
O8 O 0.7096(3) 0.2764(5) 0.16191(13)
N13 N 0.4729(4) 0.1293(6) 0.12957(16)
N14 N 0.5480(4) 0.1889(6) 0.07946(16)
N15 N 0.6898(4) 0.2850(6) 0.09661(17)
N16 N 0.5537(4) 0.4201(7) 0.13173(16)
N17 N 0.6329(4) 1.0115(6) 0.13003(17)
N18 N 0.7193(5) 0.6321(8) 0.07970(18)
N19 N 0.4463(4) 0.7816(7) 0.17723(17)
N20 N 0.7238(4) 0.6828(7) 0.18795(17)
N21 N 0.4564(5) 0.7499(8) 0.06722(19)
C37 C 0.4790(5) 0.1283(7) 0.07281(19)
C38 C 0.4487(6) 0.1011(8) 0.0412(2)
H47 H 0.3997 0.0544 0.0370
C39 C 0.4929(6) 0.1451(8) 0.0159(2)
H48 H 0.4731 0.1317 -0.0061
C40 C 0.5656(6) 0.2084(8) 0.0230(2)
H49 H 0.5959 0.2389 0.0059
C41 C 0.5941(5) 0.2273(8) 0.05461(19)
C42 C 0.6729(5) 0.2842(8) 0.0660(2)
C43 C 0.7268(6) 0.3353(9) 0.0421(2)
H50 H 0.7006 0.3252 0.0201
H51 H 0.7790 0.2902 0.0438
H52 H 0.7367 0.4243 0.0465
C44 C 0.7668(5) 0.3319(8) 0.1120(2)
H53 H 0.7857 0.4045 0.0997
H54 H 0.8091 0.2659 0.1120
C45 C 0.7550(5) 0.3707(8) 0.1465(2)
H55 H 0.8089 0.3823 0.1586
H56 H 0.7252 0.4512 0.1465
C46 C 0.6898(6) 0.3120(9) 0.1939(2)
H57 H 0.6610 0.3935 0.1934
H58 H 0.7400 0.3190 0.2087
C47 C 0.6345(5) 0.2089(9) 0.2054(2)
H59 H 0.6635 0.1276 0.2062
H60 H 0.6175 0.2281 0.2274
C48 C 0.5107(5) 0.1019(8) 0.1873(2)
H61 H 0.4898 0.1077 0.2091
H62 H 0.5405 0.0218 0.1858
C49 C 0.4402(5) 0.1072(8) 0.1614(2)
H63 H 0.4095 0.0274 0.1610
H64 H 0.4022 0.1755 0.1663
C50 C 0.4363(5) 0.0938(7) 0.1028(2)
C51 C 0.3568(5) 0.0248(9) 0.0989(2)
H65 H 0.3631 -0.0493 0.0853
H66 H 0.3146 0.0795 0.0885
H67 H 0.3405 -0.0010 0.1203
C52 C 0.5601(5) 0.5276(9) 0.13073(19)
C53 C 0.6183(5) 0.9067(9) 0.12832(19)
C54 C 0.6724(6) 0.6654(8) 0.0971(2)
C55 C 0.4960(5) 0.7587(7) 0.1599(2)
C56 C 0.6720(5) 0.6966(7) 0.16708(19)
C57 C 0.5035(5) 0.7388(7) 0.0891(2)
Mn3_2 Mn 0.59611(7) 1.21915(11) 0.12981(3)
N17_2 N 0.6329(4) 0.0115(6) 0.13003(17)
O9 O 0.1176 0.1710 0.2249
O10 O 0.1126 0.3796 0.2666
O11 O 0.2642 0.4874 0.2943
O12 O 0.2597 0.9450 0.0175
O13 O 0.7567 1.0084 0.0497
O15 O 0.5443 0.9512 0.2670
O16 O 0.8062 0.4045 0.2646
O17 O 0.5603 0.5467 0.0241
O14? O 0.7994 0.9971 0.0432
loop_
_geom_bond_atom_site_label_1
_geom_bond_atom_site_label_2
_geom_bond_site_symmetry_1
_geom_bond_site_symmetry_2
Cr1 C16 1_555 1_555
Mn1 O1 1_555 1_555
Mn2 O3 1_555 1_555
O1 C11 1_555 1_555
O2 Mn1 1_555 1_555
O3 C30 1_555 1_555
O4 Mn2 1_555 1_555
O5 Mn1 1_555 1_555
H1 O5 1_555 1_555
H2 O5 1_555 1_555
O6 Mn2 1_555 1_555
H3 O6 1_555 1_555
H4 O6 1_555 1_555
N1 Mn1 1_555 1_555
N2 Mn1 1_555 1_555
N3 Mn1 1_555 1_555
N4 Mn1 1_555 1_555
N5 Mn2 1_555 1_555
N6 C18 1_555 1_555
N7 C19 1_555 1_555
N8 C20 1_555 1_555
N9 C21 1_555 1_555
N10 Mn2 1_555 1_555
N11 Mn2 1_555 1_555
N12 Mn2 1_555 1_555
C1 N2 1_555 1_555
C2 C1 1_555 1_555
H5 C2 1_555 1_555
C3 C2 1_555 1_555
H6 C3 1_555 1_555
C4 C3 1_555 1_555
H7 C4 1_555 1_555
C5 N2 1_555 1_555
C6 N3 1_555 1_555
C7 C6 1_555 1_555
H8 C7 1_555 1_555
H9 C7 1_555 1_555
H10 C7 1_555 1_555
C8 N3 1_555 1_555
H11 C8 1_555 1_555
H12 C8 1_555 1_555
C9 O2 1_555 1_555
H13 C9 1_555 1_555
H14 C9 1_555 1_555
C10 O2 1_555 1_555
H15 C10 1_555 1_555
H16 C10 1_555 1_555
C11 C10 1_555 1_555
H17 C11 1_555 1_555
H18 C11 1_555 1_555
C12 O1 1_555 1_555
H19 C12 1_555 1_555
H20 C12 1_555 1_555
C13 N1 1_555 1_555
H21 C13 1_555 1_555
H22 C13 1_555 1_555
C14 N1 1_555 1_555
C15 C14 1_555 1_555
H23 C15 1_555 1_555
H24 C15 1_555 1_555
H25 C15 1_555 1_555
C16 N4 1_555 1_555
C17 Cr1 1_555 1_555
C18 Cr1 1_555 1_555
C19 Cr1 1_555 1_555
C20 Cr1 1_555 1_555
C21 Cr1 1_555 1_555
C22 N11 1_555 1_555
C23 C22 1_555 1_555
H26 C23 1_555 1_555
C24 C23 1_555 1_555
H27 C24 1_555 1_555
C25 C24 1_555 1_555
H28 C25 1_555 1_555
C26 N11 1_555 1_555
C27 N10 1_555 1_555
C28 C27 1_555 1_555
H29 C28 1_555 1_555
H30 C28 1_555 1_555
H31 C28 1_555 1_555
C29 N10 1_555 1_555
H32 C29 1_555 1_555
H33 C29 1_555 1_555
C30 C29 1_555 1_555
H34 C30 1_555 1_555
H35 C30 1_555 1_555
C31 O3 1_555 1_555
H36 C31 1_555 1_555
H37 C31 1_555 1_555
C32 O4 1_555 1_555
H38 C32 1_555 1_555
H39 C32 1_555 1_555
C33 O4 1_555 1_555
H40 C33 1_555 1_555
H41 C33 1_555 1_555
C34 N12 1_555 1_555
H42 C34 1_555 1_555
H43 C34 1_555 1_555
C35 N12 1_555 1_555
C36 C35 1_555 1_555
H44 C36 1_555 1_555
H45 C36 1_555 1_555
H46 C36 1_555 1_555
Cr2 C52 1_555 1_555
Mn3 O7 1_555 1_555
O7 C47 1_555 1_555
O8 Mn3 1_555 1_555
N13 Mn3 1_555 1_555
N14 Mn3 1_555 1_555
N15 Mn3 1_555 1_555
N16 Mn3 1_555 1_555
N17 C53 1_555 1_555
N18 C54 1_555 1_555
N19 C55 1_555 1_555
N20 C56 1_555 1_555
N21 C57 1_555 1_555
C37 N14 1_555 1_555
C38 C37 1_555 1_555
H47 C38 1_555 1_555
C39 C38 1_555 1_555
H48 C39 1_555 1_555
C40 C39 1_555 1_555
H49 C40 1_555 1_555
C41 N14 1_555 1_555
C42 N15 1_555 1_555
C43 C42 1_555 1_555
H50 C43 1_555 1_555
H51 C43 1_555 1_555
H52 C43 1_555 1_555
C44 N15 1_555 1_555
H53 C44 1_555 1_555
H54 C44 1_555 1_555
C45 O8 1_555 1_555
H55 C45 1_555 1_555
H56 C45 1_555 1_555
C46 O8 1_555 1_555
H57 C46 1_555 1_555
H58 C46 1_555 1_555
C47 C46 1_555 1_555
H59 C47 1_555 1_555
H60 C47 1_555 1_555
C48 O7 1_555 1_555
H61 C48 1_555 1_555
H62 C48 1_555 1_555
C49 N13 1_555 1_555
H63 C49 1_555 1_555
H64 C49 1_555 1_555
C50 N13 1_555 1_555
C51 C50 1_555 1_555
H65 C51 1_555 1_555
H66 C51 1_555 1_555
H67 C51 1_555 1_555
C52 N16 1_555 1_555
C53 Cr2 1_555 1_555
C54 Cr2 1_555 1_555
C55 Cr2 1_555 1_555
C56 Cr2 1_555 1_555
C57 Cr2 1_555 1_555
Mn3_2 N17 1_555 1_555
N17_2 Mn3 1_555 1_555
N5 C17 1_555 1_555
C1 C14 1_555 1_555
C4 C5 1_555 1_555
C5 C6 1_555 1_555
C8 C9 1_555 1_555
C12 C13 1_555 1_555
C22 C35 1_555 1_555
C25 C26 1_555 1_555
C26 C27 1_555 1_555
C31 C32 1_555 1_555
C33 C34 1_555 1_555
C37 C50 1_555 1_555
C40 C41 1_555 1_555
C41 C42 1_555 1_555
C44 C45 1_555 1_555
C48 C49 1_555 1_555

#END
