
#######################################################################
#
#                 Cambridge Crystallographic Data Centre
#                                CCDC 
#
#######################################################################
#
# If this CIF has been generated from an entry in the Cambridge 
# Structural Database, then it will include bibliographic, chemical, 
# crystal, experimental, refinement or atomic coordinate data resulting 
# from the CCDC's data processing and validation procedures.
#
#######################################################################

data_FODVIE
_symmetry_cell_setting           monoclinic
_symmetry_space_group_name_H-M   'C 2/c'
_symmetry_Int_Tables_number      15
_space_group_name_Hall           '-C 2yn'
loop_
_symmetry_equiv_pos_site_id
_symmetry_equiv_pos_as_xyz
1 x,y,z
2 1/2+x,1/2+y,z
3 -x,y,1/2-z
4 1/2-x,1/2+y,1/2-z
5 -x,-y,-z
6 1/2-x,1/2-y,-z
7 x,-y,1/2+z
8 1/2+x,1/2-y,1/2+z
_cell_length_a                   17.7871(14)
_cell_length_b                   11.7403(8)
_cell_length_c                   10.6354(9)
_cell_angle_alpha                90
_cell_angle_beta                 90.715(10)
_cell_angle_gamma                90
_cell_volume                     2220.77
loop_
_atom_site_label
_atom_site_type_symbol
_atom_site_fract_x
_atom_site_fract_y
_atom_site_fract_z
Pd1 Pd -0.2500 0.2500 0.5000
Mn1 Mn 0.0000 0.22362(4) 0.7500
O1 O 0.05402(11) 0.06894(14) 0.6619(2)
N1 N 0.0000 0.4119(2) 0.7500
N2 N 0.09040(11) 0.28530(18) 0.62231(19)
N3 N -0.08537(13) 0.2143(2) 0.5954(2)
N4 N -0.2949(2) 0.3102(4) 0.7740(3)
C1 C 0.0000 0.6412(4) 0.7500
H1 H 0.0000 0.7204 0.7500
C2 C 0.0504(3) 0.5844(3) 0.6771(4)
H2 H 0.0844 0.6237 0.6276
C3 C 0.04932(17) 0.4669(2) 0.6793(3)
C4 C 0.10046(16) 0.3917(2) 0.6058(3)
C5 C 0.1571(2) 0.4441(3) 0.5202(4)
H3 H 0.1978 0.4753 0.5694
H4 H 0.1336 0.5037 0.4720
H5 H 0.1761 0.3870 0.4644
C6 C 0.13418(17) 0.1986(3) 0.5586(3)
H6 H 0.1864 0.2220 0.5559
H7 H 0.1159 0.1901 0.4728
C7 C 0.1284(2) 0.0884(3) 0.6252(4)
H8 H 0.1446 0.0274 0.5703
H9 H 0.1611 0.0890 0.6988
C8 C 0.0373(3) -0.0321(2) 0.7259(6)
H10 H 0.0729 -0.0419 0.7949
H11 H 0.0430 -0.0961 0.6691
C9 C -0.14525(15) 0.2256(2) 0.5582(2)
C10 C -0.27856(17) 0.2877(3) 0.6753(3)
Mn1G Mn -0.5000 0.27638(4) 0.2500
O1B O -0.05402(11) 0.06894(14) 0.8381(2)
N2B N -0.09040(11) 0.28530(18) 0.87769(19)
N3E N -0.41463(13) 0.2857(2) 0.4046(2)
N3B N 0.08537(13) 0.2143(2) 0.9046(2)
N4E N -0.2051(2) 0.1898(4) 0.2260(3)
C2B C -0.0504(3) 0.5844(3) 0.8229(4)
H2B H -0.0844 0.6237 0.8724
C3B C -0.04932(17) 0.4669(2) 0.8207(3)
C4B C -0.10046(16) 0.3917(2) 0.8942(3)
C5B C -0.1571(2) 0.4441(3) 0.9798(4)
H3B H -0.1978 0.4753 0.9306
H4B H -0.1336 0.5037 1.0280
H5B H -0.1761 0.3870 1.0356
C6B C -0.13418(17) 0.1986(3) 0.9414(3)
H6B H -0.1864 0.2220 0.9441
H7B H -0.1159 0.1901 1.0272
C7B C -0.1284(2) 0.0884(3) 0.8748(4)
H8B H -0.1446 0.0274 0.9297
H9B H -0.1611 0.0890 0.8012
C8B C -0.0373(3) -0.0321(2) 0.7741(6)
H10B H -0.0729 -0.0419 0.7051
H11B H -0.0430 -0.0961 0.8309
C9E C -0.35475(15) 0.2744(2) 0.4418(2)
C10E C -0.22144(17) 0.2123(3) 0.3247(3)
loop_
_geom_bond_atom_site_label_1
_geom_bond_atom_site_label_2
_geom_bond_site_symmetry_1
_geom_bond_site_symmetry_2
Pd1 C9 1_555 1_555
Mn1 O1 1_555 1_555
O1 C7 1_555 1_555
N1 Mn1 1_555 1_555
N2 Mn1 1_555 1_555
N3 Mn1 1_555 1_555
N4 C10 1_555 1_555
C1 H1 1_555 1_555
C2 C1 1_555 1_555
H2 C2 1_555 1_555
C3 N1 1_555 1_555
C4 N2 1_555 1_555
C5 C4 1_555 1_555
H3 C5 1_555 1_555
H4 C5 1_555 1_555
H5 C5 1_555 1_555
C6 N2 1_555 1_555
H6 C6 1_555 1_555
H7 C6 1_555 1_555
C7 C6 1_555 1_555
H8 C7 1_555 1_555
H9 C7 1_555 1_555
C8 O1 1_555 1_555
H10 C8 1_555 1_555
H11 C8 1_555 1_555
C9 N3 1_555 1_555
C10 Pd1 1_555 1_555
Mn1G N3E 1_555 1_555
O1B Mn1 1_555 1_555
N2B Mn1 1_555 1_555
N3E C9E 1_555 1_555
N3B Mn1 1_555 1_555
N4E C10E 1_555 1_555
C2B C1 1_555 1_555
H2B C2B 1_555 1_555
C3B N1 1_555 1_555
C4B N2B 1_555 1_555
C5B C4B 1_555 1_555
H3B C5B 1_555 1_555
H4B C5B 1_555 1_555
H5B C5B 1_555 1_555
C6B N2B 1_555 1_555
H6B C6B 1_555 1_555
H7B C6B 1_555 1_555
C7B O1B 1_555 1_555
H8B C7B 1_555 1_555
H9B C7B 1_555 1_555
C8B C8 1_555 1_555
H10B C8B 1_555 1_555
H11B C8B 1_555 1_555
C9E Pd1 1_555 1_555
C10E Pd1 1_555 1_555
C2 C3 1_555 1_555
C3 C4 1_555 1_555
O1B C8B 1_555 1_555
C2B C3B 1_555 1_555
C3B C4B 1_555 1_555
C6B C7B 1_555 1_555

#END
