
#######################################################################
#
#                 Cambridge Crystallographic Data Centre
#                                CCDC 
#
#######################################################################
#
# If this CIF has been generated from an entry in the Cambridge 
# Structural Database, then it will include bibliographic, chemical, 
# crystal, experimental, refinement or atomic coordinate data resulting 
# from the CCDC's data processing and validation procedures.
#
#######################################################################

data_FODVOK
_symmetry_cell_setting           monoclinic
_symmetry_space_group_name_H-M   'C 2/c'
_symmetry_Int_Tables_number      15
_space_group_name_Hall           '-C 2yn'
loop_
_symmetry_equiv_pos_site_id
_symmetry_equiv_pos_as_xyz
1 x,y,z
2 1/2+x,1/2+y,z
3 -x,y,1/2-z
4 1/2-x,1/2+y,1/2-z
5 -x,-y,-z
6 1/2-x,1/2-y,-z
7 x,-y,1/2+z
8 1/2+x,1/2-y,1/2+z
_cell_length_a                   18.0503(18)
_cell_length_b                   12.2689(8)
_cell_length_c                   9.4884(10)
_cell_angle_alpha                90
_cell_angle_beta                 92.496(12)
_cell_angle_gamma                90
_cell_volume                     2099.28
loop_
_atom_site_label
_atom_site_type_symbol
_atom_site_fract_x
_atom_site_fract_y
_atom_site_fract_z
C1 C 0.5000 -0.1314(8) 0.7500
H1 H 0.5000 -0.2089 0.7500
C2 C 0.5497(5) -0.0766(5) 0.8363(9)
H2 H 0.5847 -0.1149 0.8953
C3 C 0.5480(4) 0.0360(6) 0.8357(8)
C4 C 0.5982(4) 0.1098(6) 0.9260(8)
C5 C 0.6545(4) 0.0576(7) 1.0247(8)
H3 H 0.6794 0.1138 1.0827
H4 H 0.6911 0.0189 0.9702
H5 H 0.6297 0.0059 1.0858
C6 C 0.6305(4) 0.2934(6) 0.9851(7)
H6 H 0.6826 0.2692 1.0002
H7 H 0.6091 0.3033 1.0785
C7 C 0.6279(4) 0.4010(6) 0.9041(9)
H8 H 0.6468 0.4612 0.9652
H9 H 0.6589 0.3964 0.8207
C8 C 0.5394(4) 0.5170(5) 0.7769(9)
H10 H 0.5730 0.5173 0.6971
H11 H 0.5497 0.5826 0.8352
C9 C 0.6466(4) 0.2753(5) 0.5555(7)
C10 C 0.7646(3) 0.1553(5) 0.6708(6)
N1 N 0.5000 0.0905(5) 0.7500
N2 N 0.5882(3) 0.2109(5) 0.9042(6)
N3 N 0.5875(3) 0.2858(5) 0.5916(6)
N4 N 0.7712(3) 0.0995(4) 0.7674(6)
Mn1 Mn 0.5000 0.27195(12) 0.7500
Pt1 Pt 0.7500 0.2500 0.5000
O1 O 0.5510(3) 0.4202(4) 0.8602(5)
C2B C 0.4503(5) -0.0766(5) 0.6637(9)
H2B H 0.4153 -0.1149 0.6047
C3B C 0.4520(4) 0.0360(6) 0.6643(8)
C4B C 0.4018(4) 0.1098(6) 0.5740(8)
C5B C 0.3455(4) 0.0576(7) 0.4753(8)
H3B H 0.3206 0.1138 0.4173
H4B H 0.3089 0.0189 0.5298
H5B H 0.3703 0.0059 0.4142
C6B C 0.3695(4) 0.2934(6) 0.5149(7)
H6B H 0.3174 0.2692 0.4998
H7B H 0.3909 0.3033 0.4215
C7B C 0.3721(4) 0.4010(6) 0.5959(9)
H8B H 0.3532 0.4612 0.5348
H9B H 0.3411 0.3964 0.6793
C8B C 0.4606(4) 0.5170(5) 0.7231(9)
H10B H 0.4270 0.5173 0.8029
H11B H 0.4503 0.5826 0.6648
C9E C 0.8534(4) 0.2247(5) 0.4445(7)
C10E C 0.7354(3) 0.3447(5) 0.3292(6)
N2B N 0.4118(3) 0.2109(5) 0.5958(6)
N3B N 0.4125(3) 0.2858(5) 0.9084(6)
N3E N 0.9125(3) 0.2142(5) 0.4084(6)
N4E N 0.7288(3) 0.4005(4) 0.2326(6)
Mn1G Mn 1.0000 0.22805(12) 0.2500
O1B O 0.4490(3) 0.4202(4) 0.6398(5)
loop_
_geom_bond_atom_site_label_1
_geom_bond_atom_site_label_2
_geom_bond_site_symmetry_1
_geom_bond_site_symmetry_2
C1 H1 1_555 1_555
C2 C1 1_555 1_555
H2 C2 1_555 1_555
C3 C2 1_555 1_555
C4 C3 1_555 1_555
C5 C4 1_555 1_555
H3 C5 1_555 1_555
H4 C5 1_555 1_555
H5 C5 1_555 1_555
C6 H6 1_555 1_555
H7 C6 1_555 1_555
C7 C6 1_555 1_555
H8 C7 1_555 1_555
H9 C7 1_555 1_555
C8 H10 1_555 1_555
H11 C8 1_555 1_555
C9 N3 1_555 1_555
C10 N4 1_555 1_555
N1 C3 1_555 1_555
N2 C4 1_555 1_555
N3 Mn1 1_555 1_555
Mn1 N1 1_555 1_555
Pt1 C9 1_555 1_555
O1 C7 1_555 1_555
C2B C1 1_555 1_555
H2B C2B 1_555 1_555
C3B N1 1_555 1_555
C4B C3B 1_555 1_555
C5B C4B 1_555 1_555
H3B C5B 1_555 1_555
H4B C5B 1_555 1_555
H5B C5B 1_555 1_555
C6B H6B 1_555 1_555
H7B C6B 1_555 1_555
C7B C6B 1_555 1_555
H8B C7B 1_555 1_555
H9B C7B 1_555 1_555
C8B C8 1_555 1_555
H10B C8B 1_555 1_555
H11B C8B 1_555 1_555
C9E Pt1 1_555 1_555
C10E Pt1 1_555 1_555
N2B Mn1 1_555 1_555
N3B Mn1 1_555 1_555
N3E C9E 1_555 1_555
N4E C10E 1_555 1_555
Mn1G N3E 1_555 1_555
O1B Mn1 1_555 1_555
C6 N2 1_555 1_555
C8 O1 1_555 1_555
C10 Pt1 1_555 1_555
N2 Mn1 1_555 1_555
Mn1 O1 1_555 1_555
C2B C3B 1_555 1_555
C4B N2B 1_555 1_555
C6B N2B 1_555 1_555
C7B O1B 1_555 1_555
C8B O1B 1_555 1_555

#END
