
#######################################################################
#
#                 Cambridge Crystallographic Data Centre
#                                CCDC 
#
#######################################################################
#
# If this CIF has been generated from an entry in the Cambridge 
# Structural Database, then it will include bibliographic, chemical, 
# crystal, experimental, refinement or atomic coordinate data resulting 
# from the CCDC's data processing and validation procedures.
#
#######################################################################

data_FODVEB
_symmetry_cell_setting           monoclinic
_symmetry_space_group_name_H-M   'C 2/c'
_symmetry_Int_Tables_number      15
_space_group_name_Hall           '-C 2yn'
loop_
_symmetry_equiv_pos_site_id
_symmetry_equiv_pos_as_xyz
1 x,y,z
2 -x,y,1/2-z
3 1/2+x,1/2+y,z
4 1/2-x,1/2+y,1/2-z
5 -x,-y,-z
6 x,-y,1/2+z
7 1/2-x,1/2-y,-z
8 1/2+x,1/2-y,1/2+z
_cell_length_a                   20.508(4)
_cell_length_b                   10.899(2)
_cell_length_c                   8.2818(17)
_cell_angle_alpha                90
_cell_angle_beta                 109.90(3)
_cell_angle_gamma                90
_cell_volume                     1740.59
loop_
_atom_site_label
_atom_site_type_symbol
_atom_site_fract_x
_atom_site_fract_y
_atom_site_fract_z
Pb1 Pb 0.5000 0.55017(2) 0.7500
C1 C 0.41692(19) 0.3406(4) 0.5626(5)
C2 C 0.3883(2) 0.2213(4) 0.4781(5)
C3 C 0.4313(2) 0.1452(4) 0.4251(6)
H1 H 0.4765 0.1692 0.4403
C4 C 0.4066(3) 0.0331(5) 0.3492(8)
H2 H 0.4356 -0.0178 0.3137
C5 C 0.3402(3) -0.0031(5) 0.3261(7)
H3 H 0.3246 -0.0792 0.2775
C6 C 0.2959(3) 0.0728(4) 0.3746(7)
H4 H 0.2504 0.0488 0.3565
C7 C 0.3200(2) 0.1851(4) 0.4502(5)
C8 C 0.6640(3) 0.6853(7) 0.9810(8)
H5 H 0.6808 0.6038 1.0151
H6 H 0.6931 0.7436 1.0601
H7 H 0.6647 0.7014 0.8677
N1 N 0.27692(17) 0.2721(3) 0.4925(5)
O1 O 0.44550(17) 0.4094(3) 0.4864(4)
O2 O 0.41432(17) 0.3673(3) 0.7057(4)
O3 O 0.59552(17) 0.6959(4) 0.9811(5)
H8 H 0.6047 0.6754 1.0856
C1F C 0.08308(19) 0.1594(4) 0.4374(5)
C2F C 0.1117(2) 0.2787(4) 0.5219(5)
C3F C 0.0687(2) 0.3548(4) 0.5749(6)
H1F H 0.0235 0.3308 0.5597
C4F C 0.0934(3) 0.4669(5) 0.6508(8)
H2F H 0.0644 0.5178 0.6863
C5F C 0.1598(3) 0.5031(5) 0.6739(7)
H3F H 0.1754 0.5792 0.7225
C6F C 0.2041(3) 0.4272(4) 0.6254(7)
H4F H 0.2496 0.4512 0.6435
C7F C 0.1800(2) 0.3149(4) 0.5498(5)
N1F N 0.22308(17) 0.2279(3) 0.5075(5)
O1F O 0.05450(17) 0.0906(3) 0.5136(4)
O2F O 0.08568(17) 0.1327(3) 0.2943(4)
C8A C 0.3360(3) 0.6853(7) 0.5190(8)
H5A H 0.3192 0.6038 0.4849
H6A H 0.3069 0.7436 0.4399
H7A H 0.3353 0.7014 0.6323
O3A O 0.40448(17) 0.6959(4) 0.5189(5)
H8A H 0.3953 0.6754 0.4144
Pb1B Pb 0.0000 0.05017(2) 0.7500
Pb1D Pb 0.5000 0.44983(2) 0.2500
Pb1F Pb 0.0000 -0.05017(2) 0.2500
O1A O 0.55450(17) 0.4094(3) 1.0136(4)
O1D O 0.55450(17) 0.5906(3) 0.5136(4)
O1E O 0.44550(17) 0.5906(3) 0.9864(4)
O2A O 0.58568(17) 0.3673(3) 0.7943(4)
loop_
_geom_bond_atom_site_label_1
_geom_bond_atom_site_label_2
_geom_bond_site_symmetry_1
_geom_bond_site_symmetry_2
Pb1 O1 1_555 1_555
C1 C2 1_555 1_555
C2 C3 1_555 1_555
C3 H1 1_555 1_555
C4 C3 1_555 1_555
H2 C4 1_555 1_555
C5 C4 1_555 1_555
H3 C5 1_555 1_555
C6 C5 1_555 1_555
H4 C6 1_555 1_555
C7 C2 1_555 1_555
C8 H5 1_555 1_555
H6 C8 1_555 1_555
H7 C8 1_555 1_555
N1 C7 1_555 1_555
O1 C1 1_555 1_555
O2 Pb1 1_555 1_555
O3 Pb1 1_555 1_555
H8 O3 1_555 1_555
C1F C2F 1_555 1_555
C2F C3F 1_555 1_555
C3F H1F 1_555 1_555
C4F C3F 1_555 1_555
H2F C4F 1_555 1_555
C5F C4F 1_555 1_555
H3F C5F 1_555 1_555
C6F C5F 1_555 1_555
H4F C6F 1_555 1_555
C7F C2F 1_555 1_555
N1F N1 1_555 1_555
O1F C1F 1_555 1_555
O2F C1F 1_555 1_555
C8A H5A 1_555 1_555
H6A C8A 1_555 1_555
H7A C8A 1_555 1_555
O3A Pb1 1_555 1_555
H8A O3A 1_555 1_555
Pb1B O1F 1_555 1_555
Pb1D O1 1_555 1_555
Pb1F O1F 1_555 1_555
O1A Pb1 1_555 1_555
O1D Pb1 1_555 1_555
O1E Pb1 1_555 1_555
O2A Pb1 1_555 1_555
C1 O2 1_555 1_555
C6 C7 1_555 1_555
C8 O3 1_555 1_555
C6F C7F 1_555 1_555
C7F N1F 1_555 1_555
O2F Pb1F 1_555 1_555
C8A O3A 1_555 1_555
Pb1D O1D 1_555 1_555

#END
