
#######################################################################
#
#                 Cambridge Crystallographic Data Centre
#                                CCDC 
#
#######################################################################
#
# If this CIF has been generated from an entry in the Cambridge 
# Structural Database, then it will include bibliographic, chemical, 
# crystal, experimental, refinement or atomic coordinate data resulting 
# from the CCDC's data processing and validation procedures.
#
#######################################################################

data_FODVUR
_symmetry_cell_setting           triclinic
_symmetry_space_group_name_H-M   'P -1'
_symmetry_Int_Tables_number      2
_space_group_name_Hall           '-P 1'
loop_
_symmetry_equiv_pos_site_id
_symmetry_equiv_pos_as_xyz
1 x,y,z
2 -x,-y,-z
_cell_length_a                   8.7371(4)
_cell_length_b                   8.9562(4)
_cell_length_c                   18.4436(9)
_cell_angle_alpha                89.4490(10)
_cell_angle_beta                 85.1690(10)
_cell_angle_gamma                67.0770(10)
_cell_volume                     1324.12
loop_
_atom_site_label
_atom_site_type_symbol
_atom_site_fract_x
_atom_site_fract_y
_atom_site_fract_z
Mn1 Mn 0.65131(5) 0.64384(5) 0.24071(2)
C1 C 0.5657(3) 0.3339(3) 0.26887(14)
C2 C 0.4812(4) 0.2318(4) 0.26722(17)
H1 H 0.5312 0.1240 0.2802
C3 C 0.3218(4) 0.2933(4) 0.24589(18)
H2 H 0.2627 0.2267 0.2446
C4 C 0.2485(4) 0.4537(4) 0.22634(17)
H3 H 0.1397 0.4969 0.2130
C5 C 0.3420(3) 0.5480(3) 0.22718(14)
C6 C 0.7300(3) 0.2903(3) 0.29642(15)
C7 C 0.8423(4) 0.1442(4) 0.32156(18)
H4 H 0.8328 0.0443 0.3221
C8 C 0.9696(4) 0.1796(4) 0.34527(18)
C9 C 1.1243(5) 0.0782(5) 0.3795(3)
H5 H 1.1856 0.1434 0.3891
H6 H 1.1919 -0.0105 0.3471
H7 H 1.0949 0.0366 0.4243
C10 C 0.2867(3) 0.7154(3) 0.20341(14)
C11 C 0.1310(4) 0.8305(4) 0.18849(16)
H8 H 0.0293 0.8192 0.1938
C12 C 0.1594(4) 0.9632(4) 0.16433(15)
C13 C 0.0469(4) 1.1229(4) 0.1374(2)
H9 H 0.1102 1.1875 0.1247
H10 H -0.0396 1.1783 0.1749
H11 H -0.0023 1.1054 0.0954
C14 C 0.8199(4) 0.6980(4) 0.12361(16)
C15 C 0.9177(5) 0.7071(5) 0.05357(18)
H12 H 0.9790 0.7741 0.0625
H13 H 0.8391 0.7619 0.0183
C16 C 1.0409(4) 0.5462(5) 0.01929(18)
H14 H 1.1200 0.5672 -0.0152
H15 H 1.1030 0.4793 0.0571
C17 C 0.7049(4) 0.7893(3) 0.36042(16)
C18 C 0.6865(4) 0.8654(4) 0.43459(16)
H16 H 0.7514 0.9322 0.4333
H17 H 0.7324 0.7803 0.4690
C19 C 0.5083(4) 0.9684(4) 0.46133(17)
H18 H 0.4411 0.9046 0.4588
H19 H 0.4652 1.0595 0.4295
N1 N 0.4980(3) 0.4881(3) 0.24801(12)
N2 N 0.7851(3) 0.4086(3) 0.30289(13)
N3 N 0.4050(3) 0.7744(3) 0.19042(13)
N4 N 0.9313(3) 0.3379(3) 0.33254(14)
H20 H 0.9935 0.3883 0.3423
N5 N 0.3241(3) 0.9256(3) 0.16700(13)
H21 H 0.3721 0.9910 0.1551
O1 O 0.7243(3) 0.8289(3) 0.15578(12)
O2 O 0.8334(3) 0.5644(3) 0.14960(12)
O3 O 0.5753(3) 0.7988(3) 0.33190(12)
O4 O 0.8468(3) 0.7162(3) 0.32838(13)
C14A C 1.1801(4) 0.3020(4) -0.12361(16)
C15A C 1.0823(5) 0.2929(5) -0.05357(18)
H12A H 1.0210 0.2259 -0.0625
H13A H 1.1609 0.2381 -0.0183
C16A C 0.9591(4) 0.4538(5) -0.01929(18)
H14A H 0.8800 0.4328 0.0152
H15A H 0.8970 0.5207 -0.0571
O1A O 1.2757(3) 0.1711(3) -0.15578(12)
O2A O 1.1666(3) 0.4356(3) -0.14960(12)
C17A C 0.2951(4) 1.2107(3) 0.63958(16)
C18A C 0.3135(4) 1.1346(4) 0.56541(16)
H16A H 0.2486 1.0678 0.5667
H17A H 0.2676 1.2197 0.5310
C19A C 0.4917(4) 1.0316(4) 0.53867(17)
H18A H 0.5589 1.0954 0.5412
H19A H 0.5348 0.9405 0.5705
O3A O 0.4247(3) 1.2012(3) 0.66810(12)
O4A O 0.1532(3) 1.2838(3) 0.67162(13)
Mn1A Mn 0.34869(5) 1.35616(5) 0.75929(2)
C1A C 0.4343(3) 1.6661(3) 0.73113(14)
C2A C 0.5188(4) 1.7682(4) 0.73278(17)
H1A H 0.4688 1.8760 0.7198
C3A C 0.6782(4) 1.7067(4) 0.75411(18)
H2A H 0.7373 1.7733 0.7554
C4A C 0.7515(4) 1.5463(4) 0.77366(17)
H3A H 0.8603 1.5031 0.7870
C5A C 0.6580(3) 1.4520(3) 0.77282(14)
C6A C 0.2700(3) 1.7097(3) 0.70358(15)
C7A C 0.1577(4) 1.8558(4) 0.67844(18)
H4A H 0.1672 1.9557 0.6779
C8A C 0.0304(4) 1.8204(4) 0.65473(18)
C9A C -0.1243(5) 1.9218(5) 0.6205(3)
H5A H -0.1856 1.8566 0.6109
H6A H -0.1919 2.0105 0.6529
H7A H -0.0949 1.9634 0.5757
C10A C 0.7133(3) 1.2846(3) 0.79659(14)
C11A C 0.8690(4) 1.1695(4) 0.81151(16)
H8A H 0.9707 1.1808 0.8062
C12A C 0.8406(4) 1.0368(4) 0.83567(15)
C13A C 0.9531(4) 0.8771(4) 0.8626(2)
H9A H 0.8898 0.8125 0.8753
H10A H 1.0396 0.8217 0.8251
H11A H 1.0023 0.8946 0.9046
N1A N 0.5020(3) 1.5119(3) 0.75199(12)
N2A N 0.2149(3) 1.5914(3) 0.69711(13)
N3A N 0.5950(3) 1.2256(3) 0.80958(13)
N4A N 0.0687(3) 1.6621(3) 0.66746(14)
H20A H 0.0065 1.6117 0.6577
N5A N 0.6759(3) 1.0744(3) 0.83300(13)
H21A H 0.6279 1.0090 0.8449
Mn1A_2 Mn 1.34869(5) 0.35616(5) -0.24071(2)
O2A_2 O 0.1666(3) 1.4356(3) 0.85040(12)
C20 C 0.5067(4) 0.4386(4) 0.02983(17)
H22 H 0.5933 0.4347 0.0603
H23 H 0.4021 0.4732 0.0601
C21 C 0.5466(5) 0.2737(4) -0.00164(19)
H24 H 0.6545 0.2367 -0.0295
H25 H 0.4639 0.2793 -0.0347
C22 C 0.5496(4) 0.1533(4) 0.05638(19)
O5 O 0.6943(3) 0.0834(4) 0.08230(18)
H26 H 0.6893 0.0181 0.1129
O6 O 0.4307(3) 0.1262(3) 0.07758(15)
C20A C 0.4933(4) 0.5614(4) -0.02983(17)
H22A H 0.4067 0.5653 -0.0603
H23A H 0.5979 0.5268 -0.0601
C21A C 0.4534(5) 0.7263(4) 0.00164(19)
H24A H 0.3455 0.7633 0.0295
H25A H 0.5361 0.7207 0.0347
C22A C 0.4504(4) 0.8467(4) -0.05638(19)
O5A O 0.3057(3) 0.9166(4) -0.08230(18)
H26A H 0.3107 0.9819 -0.1129
O6A O 0.5693(3) 0.8738(3) -0.07758(15)
C23 C 0.4386(7) 0.4893(9) 0.4734(3)
H27 H 0.4905 0.4848 0.4244
H28 H 0.4362 0.3833 0.4821
C24 C 0.2929(11) 0.5851(12) 0.4728(6)
H29 H 0.2965 0.6908 0.4643
H30 H 0.2423 0.5895 0.5220
C25 C 0.1735(6) 0.5708(7) 0.4243(3)
O7 O 0.0937(5) 0.7069(4) 0.3958(2)
H31 H 0.014(7) 0.707(6) 0.369(3)
O8 O 0.1505(4) 0.4493(4) 0.41421(18)
C23A C 0.5614(7) 0.5107(9) 0.5266(3)
H27A H 0.5095 0.5152 0.5756
H28A H 0.5638 0.6167 0.5179
C24A C 0.7071(11) 0.4149(12) 0.5272(6)
H29A H 0.7035 0.3092 0.5357
H30A H 0.7577 0.4105 0.4780
C25A C 0.8265(6) 0.4292(7) 0.5757(3)
O7A O 0.9063(5) 0.2931(4) 0.6042(2)
H31A H 0.986(7) 0.293(6) 0.631(3)
O8A O 0.8495(4) 0.5507(4) 0.58579(18)
loop_
_geom_bond_atom_site_label_1
_geom_bond_atom_site_label_2
_geom_bond_site_symmetry_1
_geom_bond_site_symmetry_2
Mn1 N1 1_555 1_555
C1 C2 1_555 1_555
C2 H1 1_555 1_555
C3 C2 1_555 1_555
H2 C3 1_555 1_555
C4 C3 1_555 1_555
H3 C4 1_555 1_555
C5 C4 1_555 1_555
C6 C1 1_555 1_555
C7 C6 1_555 1_555
H4 C7 1_555 1_555
C8 C7 1_555 1_555
C9 C8 1_555 1_555
H5 C9 1_555 1_555
H6 C9 1_555 1_555
H7 C9 1_555 1_555
C10 C5 1_555 1_555
C11 C10 1_555 1_555
H8 C11 1_555 1_555
C12 C11 1_555 1_555
C13 C12 1_555 1_555
H9 C13 1_555 1_555
H10 C13 1_555 1_555
H11 C13 1_555 1_555
C14 C15 1_555 1_555
C15 H12 1_555 1_555
H13 C15 1_555 1_555
C16 C15 1_555 1_555
H14 C16 1_555 1_555
H15 C16 1_555 1_555
C17 C18 1_555 1_555
C18 H16 1_555 1_555
H17 C18 1_555 1_555
C19 C18 1_555 1_555
H18 C19 1_555 1_555
H19 C19 1_555 1_555
N1 C1 1_555 1_555
N2 Mn1 1_555 1_555
N3 Mn1 1_555 1_555
N4 C8 1_555 1_555
H20 N4 1_555 1_555
N5 C12 1_555 1_555
H21 N5 1_555 1_555
O1 C14 1_555 1_555
O2 Mn1 1_555 1_555
O3 Mn1 1_555 1_555
O4 C17 1_555 1_555
C20 H22 1_555 1_555
H23 C20 1_555 1_555
C21 C20 1_555 1_555
H24 C21 1_555 1_555
H25 C21 1_555 1_555
C22 C21 1_555 1_555
O5 C22 1_555 1_555
H26 O5 1_555 1_555
O6 C22 1_555 1_555
C23 H27 1_555 1_555
H28 C23 1_555 1_555
C24 C23 1_555 1_555
H29 C24 1_555 1_555
H30 C24 1_555 1_555
C25 C24 1_555 1_555
O7 C25 1_555 1_555
H31 O7 1_555 1_555
O8 C25 1_555 1_555
C14A C15A 1_555 1_555
C15A H12A 1_555 1_555
H13A C15A 1_555 1_555
C16A C16 1_555 1_555
H14A C16A 1_555 1_555
H15A C16A 1_555 1_555
O1A C14A 1_555 1_555
O2A C14A 1_555 1_555
C17A C18A 1_555 1_555
C18A H16A 1_555 1_555
H17A C18A 1_555 1_555
C19A C19 1_555 1_555
H18A C19A 1_555 1_555
H19A C19A 1_555 1_555
O3A C17A 1_555 1_555
O4A C17A 1_555 1_555
Mn1A O3A 1_555 1_555
C1A C2A 1_555 1_555
C2A H1A 1_555 1_555
C3A C2A 1_555 1_555
H2A C3A 1_555 1_555
C4A C3A 1_555 1_555
H3A C4A 1_555 1_555
C5A C4A 1_555 1_555
C6A C1A 1_555 1_555
C7A C6A 1_555 1_555
H4A C7A 1_555 1_555
C8A C7A 1_555 1_555
C9A C8A 1_555 1_555
H5A C9A 1_555 1_555
H6A C9A 1_555 1_555
H7A C9A 1_555 1_555
C10A C5A 1_555 1_555
C11A C10A 1_555 1_555
H8A C11A 1_555 1_555
C12A C11A 1_555 1_555
C13A C12A 1_555 1_555
H9A C13A 1_555 1_555
H10A C13A 1_555 1_555
H11A C13A 1_555 1_555
N1A Mn1A 1_555 1_555
N2A Mn1A 1_555 1_555
N3A Mn1A 1_555 1_555
N4A C8A 1_555 1_555
H20A N4A 1_555 1_555
N5A C12A 1_555 1_555
H21A N5A 1_555 1_555
Mn1A_2 O2A 1_555 1_555
O2A_2 Mn1A 1_555 1_555
C20A C20 1_555 1_555
H22A C20A 1_555 1_555
H23A C20A 1_555 1_555
C21A C20A 1_555 1_555
H24A C21A 1_555 1_555
H25A C21A 1_555 1_555
C22A C21A 1_555 1_555
O5A C22A 1_555 1_555
H26A O5A 1_555 1_555
O6A C22A 1_555 1_555
C23A C23 1_555 1_555
H27A C23A 1_555 1_555
H28A C23A 1_555 1_555
C24A C23A 1_555 1_555
H29A C24A 1_555 1_555
H30A C24A 1_555 1_555
C25A C24A 1_555 1_555
O7A C25A 1_555 1_555
H31A O7A 1_555 1_555
O8A C25A 1_555 1_555
C5 N1 1_555 1_555
C6 N2 1_555 1_555
C10 N3 1_555 1_555
C14 O2 1_555 1_555
C17 O3 1_555 1_555
N2 N4 1_555 1_555
N3 N5 1_555 1_555
C15A C16A 1_555 1_555
C18A C19A 1_555 1_555
C1A N1A 1_555 1_555
C5A N1A 1_555 1_555
C6A N2A 1_555 1_555
C10A N3A 1_555 1_555
N2A N4A 1_555 1_555
N3A N5A 1_555 1_555

#END
