
#######################################################################
#
#                 Cambridge Crystallographic Data Centre
#                                CCDC 
#
#######################################################################
#
# If this CIF has been generated from an entry in the Cambridge 
# Structural Database, then it will include bibliographic, chemical, 
# crystal, experimental, refinement or atomic coordinate data resulting 
# from the CCDC's data processing and validation procedures.
#
#######################################################################

data_FOFGIS
_symmetry_cell_setting           triclinic
_symmetry_space_group_name_H-M   'P -1'
_symmetry_Int_Tables_number      2
_space_group_name_Hall           '-P 1'
loop_
_symmetry_equiv_pos_site_id
_symmetry_equiv_pos_as_xyz
1 x,y,z
2 -x,-y,-z
_cell_length_a                   11.420(5)
_cell_length_b                   13.067(5)
_cell_length_c                   21.319(5)
_cell_angle_alpha                81.246(5)
_cell_angle_beta                 87.945(5)
_cell_angle_gamma                70.695(5)
_cell_volume                     2967.12
loop_
_atom_site_label
_atom_site_type_symbol
_atom_site_fract_x
_atom_site_fract_y
_atom_site_fract_z
Ni1 Ni 0.52060(6) 0.33189(5) 0.39292(3)
Ni2 Ni -0.02356(6) 0.15972(5) 0.11599(3)
Mo1 Mo -0.41179(4) 0.04378(3) 0.762683(19)
Mo2 Mo -0.57221(4) 0.12215(3) 0.885161(19)
Mo3 Mo -0.81935(4) 0.33679(3) 0.871925(19)
Mo4 Mo -1.08486(4) 0.43432(3) 0.748782(19)
Mo5 Mo -0.93011(4) 0.35511(3) 0.623099(19)
Mo6 Mo -0.86400(4) 0.18399(3) 0.769413(19)
Mo7 Mo -0.62749(4) 0.29641(3) 0.739945(19)
Mo8 Mo -0.67547(4) 0.14754(3) 0.638629(19)
C1 C 0.3757(5) 0.1890(4) 0.4491(2)
H1 H 0.4509 0.1507 0.4702
C2 C 0.2749(5) 0.1556(4) 0.4654(2)
H2 H 0.2828 0.0964 0.4971
C3 C 0.2628(5) 0.3240(5) 0.3732(3)
H3 H 0.2585 0.3805 0.3401
C4 C 0.1575(5) 0.2961(5) 0.3876(3)
H4 H 0.0835 0.3353 0.3656
C5 C 0.1624(4) 0.2097(4) 0.4348(2)
C6 C 0.0514(4) 0.1775(4) 0.4513(2)
C7 C -0.0333(4) 0.1554(4) 0.4158(2)
C8 C -0.0321(4) 0.1494(4) 0.3475(2)
C9 C 0.0755(5) 0.1372(4) 0.3133(2)
H5 H 0.1498 0.1273 0.3338
C10 C 0.0719(5) 0.1397(4) 0.2484(2)
H6 H 0.1452 0.1337 0.2265
C11 C -0.1303(5) 0.1565(5) 0.2486(3)
H7 H -0.2020 0.1619 0.2272
C12 C -0.1361(5) 0.1559(5) 0.3136(3)
H8 H -0.2100 0.1599 0.3345
C13 C -0.0946(4) 0.1443(4) 0.5134(2)
C14 C -0.1672(4) 0.1332(4) 0.5699(2)
C15 C -0.2661(5) 0.0954(4) 0.5670(2)
H9 H -0.2860 0.0787 0.5287
C16 C -0.3357(4) 0.0821(4) 0.6196(2)
H10 H -0.4006 0.0549 0.6162
C17 C -0.2180(5) 0.1426(4) 0.6792(3)
H11 H -0.2004 0.1591 0.7180
C18 C -0.1430(5) 0.1568(4) 0.6280(2)
H12 H -0.0772 0.1821 0.6329
C19 C 0.1521(4) 0.2863(4) 0.1282(2)
H13 H 0.0911 0.3246 0.1540
C20 C 0.2564(5) 0.3165(4) 0.1170(3)
H14 H 0.2653 0.3732 0.1358
C21 C 0.2264(5) 0.1488(4) 0.0679(2)
H15 H 0.2176 0.0895 0.0517
C22 C 0.3325(4) 0.1747(4) 0.0541(2)
H16 H 0.3933 0.1339 0.0291
C23 C 0.3478(4) 0.2626(4) 0.0779(2)
C24 C 0.4556(4) 0.2970(4) 0.0608(2)
C25 C 0.5357(4) 0.3259(4) 0.0955(2)
C26 C 0.5390(4) 0.3242(4) 0.1645(2)
C27 C 0.5155(5) 0.2406(4) 0.2063(2)
H17 H 0.5005 0.1830 0.1910
C28 C 0.5146(5) 0.2444(4) 0.2707(2)
H18 H 0.4985 0.1882 0.2981
C29 C 0.5616(4) 0.4038(4) 0.2557(2)
H19 H 0.5767 0.4601 0.2723
C30 C 0.5667(5) 0.4054(4) 0.1905(2)
H20 H 0.5882 0.4601 0.1644
C31 C 0.5934(4) 0.3428(4) -0.0025(2)
C32 C 0.6673(4) 0.3559(4) -0.0591(2)
C33 C 0.7623(4) 0.3980(4) -0.0552(2)
H21 H 0.7774 0.4201 -0.0177
C34 C 0.8345(4) 0.4071(4) -0.1076(2)
H22 H 0.8995 0.4341 -0.1042
C35 C 0.7215(5) 0.3400(4) -0.1670(2)
H23 H 0.7065 0.3208 -0.2055
C36 C 0.6459(5) 0.3274(4) -0.1164(2)
H24 H 0.5815 0.3001 -0.1209
N1 N 0.3704(4) 0.2738(3) 0.40443(19)
N2 N -0.0284(4) 0.1500(3) 0.21487(19)
N3 N -0.1242(4) 0.1349(3) 0.45530(18)
N4 N 0.0133(3) 0.1680(3) 0.51274(18)
H25 H 0.0506 0.1756 0.5452
N5 N -0.3133(4) 0.1069(3) 0.67559(18)
N6 N 0.1347(4) 0.2038(3) 0.10341(18)
N7 N 0.5360(4) 0.3249(3) 0.29586(19)
N8 N 0.4933(4) 0.3075(3) -0.00083(18)
H26 H 0.4599 0.2942 -0.0328
N9 N 0.6212(4) 0.3548(3) 0.05565(18)
N10 N 0.8153(4) 0.3789(3) -0.16304(18)
O1 O -0.5587(3) 0.1361(2) 0.70588(15)
O2 O -0.3690(3) -0.0754(3) 0.73222(16)
O3 O -0.2828(3) 0.0429(3) 0.80201(16)
O4 O -0.5120(3) 0.0123(2) 0.82919(15)
O5 O -0.5040(3) 0.2109(2) 0.79780(15)
O6 O -0.4400(3) 0.1027(3) 0.92691(17)
O7 O -0.6529(3) 0.0555(3) 0.93334(16)
O8 O -0.6519(3) 0.2735(3) 0.90318(15)
O9 O -0.7309(3) 0.2003(2) 0.81753(14)
O10 O -0.8884(3) 0.2757(3) 0.93097(16)
O11 O -0.8629(3) 0.4702(3) 0.88454(17)
O12 O -0.7142(3) 0.3986(2) 0.78346(15)
O13 O -0.9368(3) 0.3445(2) 0.80426(15)
O14 O -1.1241(3) 0.5576(3) 0.77410(17)
O15 O -1.2151(3) 0.4327(3) 0.71150(16)
O16 O -0.9903(3) 0.2668(2) 0.71273(15)
O17 O -0.9869(3) 0.4643(2) 0.67960(15)
O18 O -1.0656(3) 0.3723(3) 0.58520(17)
O19 O -0.8550(3) 0.4236(3) 0.57235(17)
O20 O -0.8443(3) 0.2050(3) 0.60752(15)
O21 O -0.7643(3) 0.2833(2) 0.69217(14)
O22 O -0.7754(3) 0.0828(3) 0.72680(16)
O23 O -0.9324(3) 0.1164(3) 0.82653(17)
O24 O -0.5536(3) 0.3606(3) 0.68470(16)
O25 O -0.6292(3) 0.0166(3) 0.62123(18)
O26 O -0.6105(3) 0.2164(3) 0.58144(16)
O27 O 0.6357(3) 0.1704(3) 0.41911(16)
O28 O 0.4131(3) 0.5015(3) 0.37389(17)
O29 O 0.4987(3) 0.3565(3) 0.48957(17)
O30 O 0.6726(3) 0.3810(3) 0.39591(18)
O31 O 0.0868(3) -0.0072(3) 0.12297(16)
O32 O -0.1434(3) 0.3203(3) 0.10501(19)
O33 O -0.1799(3) 0.1083(3) 0.11579(18)
O34 O -0.0231(4) 0.1630(3) 0.01567(16)
Mo4_2 Mo 0.91514(4) 0.43432(3) -0.251218(19)
N10_2 N -1.1847(4) 0.3789(3) 0.83696(18)
O35 O 0.8384(4) 0.4095(3) 0.3054(2)
O36 O 0.7210(4) 0.4669(4) 0.49772(19)
O37 O -0.2226(5) 0.0899(4) -0.0071(3)
loop_
_geom_bond_atom_site_label_1
_geom_bond_atom_site_label_2
_geom_bond_site_symmetry_1
_geom_bond_site_symmetry_2
Ni1 N1 1_555 1_555
Ni2 N2 1_555 1_555
Mo1 N5 1_555 1_555
Mo2 O4 1_555 1_555
Mo3 O8 1_555 1_555
Mo4 O13 1_555 1_555
Mo5 O16 1_555 1_555
Mo6 O9 1_555 1_555
Mo7 O1 1_555 1_555
Mo8 O1 1_555 1_555
C1 H1 1_555 1_555
C2 C1 1_555 1_555
H2 C2 1_555 1_555
C3 H3 1_555 1_555
C4 C3 1_555 1_555
H4 C4 1_555 1_555
C5 C2 1_555 1_555
C6 C5 1_555 1_555
C7 C6 1_555 1_555
C8 C7 1_555 1_555
C9 C8 1_555 1_555
H5 C9 1_555 1_555
C10 C9 1_555 1_555
H6 C10 1_555 1_555
C11 H7 1_555 1_555
C12 C8 1_555 1_555
H8 C12 1_555 1_555
C13 C14 1_555 1_555
C14 C15 1_555 1_555
C15 H9 1_555 1_555
C16 C15 1_555 1_555
H10 C16 1_555 1_555
C17 H11 1_555 1_555
C18 C14 1_555 1_555
H12 C18 1_555 1_555
C19 H13 1_555 1_555
C20 C19 1_555 1_555
H14 C20 1_555 1_555
C21 H15 1_555 1_555
C22 C21 1_555 1_555
H16 C22 1_555 1_555
C23 C20 1_555 1_555
C24 C23 1_555 1_555
C25 C24 1_555 1_555
C26 C25 1_555 1_555
C27 C26 1_555 1_555
H17 C27 1_555 1_555
C28 C27 1_555 1_555
H18 C28 1_555 1_555
C29 H19 1_555 1_555
C30 C26 1_555 1_555
H20 C30 1_555 1_555
C31 C32 1_555 1_555
C32 C33 1_555 1_555
C33 H21 1_555 1_555
C34 C33 1_555 1_555
H22 C34 1_555 1_555
C35 H23 1_555 1_555
C36 C32 1_555 1_555
H24 C36 1_555 1_555
N1 C1 1_555 1_555
N2 C10 1_555 1_555
N3 C7 1_555 1_555
N4 C6 1_555 1_555
H25 N4 1_555 1_555
N5 C16 1_555 1_555
N6 Ni2 1_555 1_555
N7 Ni1 1_555 1_555
N8 C24 1_555 1_555
H26 N8 1_555 1_555
N9 C25 1_555 1_555
N10 C34 1_555 1_555
O1 Mo1 1_555 1_555
O2 Mo1 1_555 1_555
O3 Mo1 1_555 1_555
O4 Mo1 1_555 1_555
O5 Mo1 1_555 1_555
O6 Mo2 1_555 1_555
O7 Mo2 1_555 1_555
O8 Mo2 1_555 1_555
O9 Mo2 1_555 1_555
O10 Mo3 1_555 1_555
O11 Mo3 1_555 1_555
O12 Mo3 1_555 1_555
O13 Mo3 1_555 1_555
O14 Mo4 1_555 1_555
O15 Mo4 1_555 1_555
O16 Mo4 1_555 1_555
O17 Mo4 1_555 1_555
O18 Mo5 1_555 1_555
O19 Mo5 1_555 1_555
O20 Mo5 1_555 1_555
O21 Mo5 1_555 1_555
O22 Mo6 1_555 1_555
O23 Mo6 1_555 1_555
O24 Mo7 1_555 1_555
O25 Mo8 1_555 1_555
O26 Mo8 1_555 1_555
O27 Ni1 1_555 1_555
O28 Ni1 1_555 1_555
O29 Ni1 1_555 1_555
O30 Ni1 1_555 1_555
O31 Ni2 1_555 1_555
O32 Ni2 1_555 1_555
O33 Ni2 1_555 1_555
O34 Ni2 1_555 1_555
Mo4_2 N10 1_555 1_555
N10_2 Mo4 1_555 1_555
Mo2 O5 1_555 1_555
Mo3 O9 1_555 1_555
Mo5 O17 1_555 1_555
Mo6 O13 1_555 1_555
Mo6 O16 1_555 1_555
Mo6 O21 1_555 1_555
Mo7 O5 1_555 1_555
Mo7 O9 1_555 1_555
Mo7 O12 1_555 1_555
Mo7 O21 1_555 1_555
Mo8 O20 1_555 1_555
Mo8 O21 1_555 1_555
Mo8 O22 1_555 1_555
C3 N1 1_555 1_555
C4 C5 1_555 1_555
C11 C12 1_555 1_555
C11 N2 1_555 1_555
C13 N3 1_555 1_555
C13 N4 1_555 1_555
C17 C18 1_555 1_555
C17 N5 1_555 1_555
C19 N6 1_555 1_555
C21 N6 1_555 1_555
C22 C23 1_555 1_555
C28 N7 1_555 1_555
C29 C30 1_555 1_555
C29 N7 1_555 1_555
C31 N8 1_555 1_555
C31 N9 1_555 1_555
C35 C36 1_555 1_555
C35 N10 1_555 1_555

#END
