
#######################################################################
#
#                 Cambridge Crystallographic Data Centre
#                                CCDC 
#
#######################################################################
#
# If this CIF has been generated from an entry in the Cambridge 
# Structural Database, then it will include bibliographic, chemical, 
# crystal, experimental, refinement or atomic coordinate data resulting 
# from the CCDC's data processing and validation procedures.
#
#######################################################################

data_FOFGUD
_symmetry_cell_setting           monoclinic
_symmetry_space_group_name_H-M   'C 2'
_symmetry_Int_Tables_number      5
_space_group_name_Hall           'C 2y'
loop_
_symmetry_equiv_pos_site_id
_symmetry_equiv_pos_as_xyz
1 x,y,z
2 -x,y,-z
3 1/2+x,1/2+y,z
4 1/2-x,1/2+y,-z
_cell_length_a                   15.089(3)
_cell_length_b                   5.4096(11)
_cell_length_c                   8.0336(16)
_cell_angle_alpha                90.00
_cell_angle_beta                 93.31(3)
_cell_angle_gamma                90.00
_cell_volume                     654.652
loop_
_atom_site_label
_atom_site_type_symbol
_atom_site_fract_x
_atom_site_fract_y
_atom_site_fract_z
Ag1 Ag 0.0000 0.91511(11) 0.5000
Ag2 Ag 0.5000 1.29470(2) 0.0000
C1 C 0.1653(2) 0.6750(8) 0.3861(4)
H1 H 0.1417 0.5439 0.4486
C2 C 0.2506(2) 0.6506(7) 0.3298(4)
H2 H 0.2853 0.5076 0.3553
C3 C 0.2830(2) 0.8405(6) 0.2358(4)
C4 C 0.1472(2) 1.0572(7) 0.2601(4)
H3 H 0.1113 1.1985 0.2361
C5 C 0.2307(2) 1.0437(7) 0.1961(4)
H4 H 0.2512 1.1712 0.1267
N1 N 0.1156(2) 0.8755(6) 0.3554(3)
O1 O 0.39440(16) 0.9626(5) 0.0165(3)
O2 O 0.41075(19) 0.5613(6) 0.1516(4)
O3 O 0.44916(16) 0.9332(7) 0.3065(3)
S1 S 0.39484(5) 0.82341(17) 0.17163(10)
Ag2_2 Ag 0.5000 0.29470(2) 0.0000
Ag2_3 Ag -0.5000 1.29470(2) 1.0000
Ag2_4 Ag -0.5000 0.29470(2) 1.0000
C1A C -0.1653(2) 0.6750(8) 0.6139(4)
H1A H -0.1417 0.5439 0.5514
C2A C -0.2506(2) 0.6506(7) 0.6702(4)
H2A H -0.2853 0.5076 0.6447
C3A C -0.2830(2) 0.8405(6) 0.7642(4)
C4A C -0.1472(2) 1.0572(7) 0.7399(4)
H3A H -0.1113 1.1985 0.7639
C5A C -0.2307(2) 1.0437(7) 0.8039(4)
H4A H -0.2512 1.1712 0.8733
N1A N -0.1156(2) 0.8755(6) 0.6446(3)
O1A O -0.39440(16) 0.9626(5) 0.9835(3)
O1A_2 O 0.60560(16) 0.9626(5) -0.0165(3)
O2A O -0.41075(19) 0.5613(6) 0.8484(4)
O2_2 O 0.41075(19) 1.5613(6) 0.1516(4)
O2A_2 O 0.58925(19) 1.5613(6) -0.1516(4)
O3A O -0.44916(16) 0.9332(7) 0.6935(3)
S1A S -0.39484(5) 0.82341(17) 0.82837(10)
loop_
_geom_bond_atom_site_label_1
_geom_bond_atom_site_label_2
_geom_bond_site_symmetry_1
_geom_bond_site_symmetry_2
Ag1 N1 1_555 1_555
Ag2 O1 1_555 1_555
C1 H1 1_555 1_555
C2 C1 1_555 1_555
H2 C2 1_555 1_555
C3 C2 1_555 1_555
C4 H3 1_555 1_555
C5 C3 1_555 1_555
H4 C5 1_555 1_555
N1 C1 1_555 1_555
O1 S1 1_555 1_555
O2 S1 1_555 1_555
O3 S1 1_555 1_555
S1 C3 1_555 1_555
Ag2_2 O2 1_555 1_555
Ag2_3 O1A 1_555 1_555
Ag2_4 O2A 1_555 1_555
C1A H1A 1_555 1_555
C2A C1A 1_555 1_555
H2A C2A 1_555 1_555
C3A C2A 1_555 1_555
C4A H3A 1_555 1_555
C5A C3A 1_555 1_555
H4A C5A 1_555 1_555
N1A Ag1 1_555 1_555
O1A S1A 1_555 1_555
O1A_2 Ag2 1_555 1_555
O2A S1A 1_555 1_555
O2_2 Ag2 1_555 1_555
O2A_2 Ag2 1_555 1_555
O3A S1A 1_555 1_555
S1A C3A 1_555 1_555
C4 C5 1_555 1_555
C4 N1 1_555 1_555
C1A N1A 1_555 1_555
C4A C5A 1_555 1_555
C4A N1A 1_555 1_555

#END
