
#######################################################################
#
#                 Cambridge Crystallographic Data Centre
#                                CCDC 
#
#######################################################################
#
# If this CIF has been generated from an entry in the Cambridge 
# Structural Database, then it will include bibliographic, chemical, 
# crystal, experimental, refinement or atomic coordinate data resulting 
# from the CCDC's data processing and validation procedures.
#
#######################################################################

data_FOFGUC
_symmetry_cell_setting           orthorhombic
_symmetry_space_group_name_H-M   'P m m n'
_symmetry_Int_Tables_number      59
_space_group_name_Hall           '-P 2ab 2a'
loop_
_symmetry_equiv_pos_site_id
_symmetry_equiv_pos_as_xyz
1 x,y,z
2 1/2-x,y,z
3 x,1/2-y,z
4 1/2-x,1/2-y,z
5 -x,-y,-z
6 1/2+x,-y,-z
7 -x,1/2+y,-z
8 1/2+x,1/2+y,-z
_cell_length_a                   10.831(3)
_cell_length_b                   7.835(1)
_cell_length_c                   6.740(2)
_cell_angle_alpha                90
_cell_angle_beta                 90
_cell_angle_gamma                90
_cell_volume                     571.962
loop_
_atom_site_label
_atom_site_type_symbol
_atom_site_fract_x
_atom_site_fract_y
_atom_site_fract_z
In1 In 0.7500 0.7500 0.79720(5)
C1 C 0.5750(3) 0.7500 0.6386(6)
C2 C 0.7500 0.7500 1.1195(8)
N1 N 0.7500 0.4149(3) 0.7949(4)
C3 C 0.7500 0.3486(4) 0.5901(5)
C4 C 0.6395(3) 0.3480(3) 0.8957(6)
C1A C 0.9250(3) 0.7500 0.6386(6)
N1B N 0.7500 1.0851(3) 0.7949(4)
C4A C 0.8605(3) 0.3480(3) 0.8957(6)
C3B C 0.7500 0.1514(4) 0.5901(5)
C4B C 0.6395(3) 0.1520(3) 0.8957(6)
C3B_2 C 0.7500 1.1514(4) 0.5901(5)
C4B_2 C 0.6395(3) 1.1520(3) 0.8957(6)
C4C C 0.8605(3) 1.1520(3) 0.8957(6)
C4C_2 C 0.8605(3) 0.1520(3) 0.8957(6)
N1B_2 N 0.7500 0.0851(3) 0.7949(4)
C4A_2 C 0.8605(3) 1.3480(3) 0.8957(6)
loop_
_geom_bond_atom_site_label_1
_geom_bond_atom_site_label_2
_geom_bond_site_symmetry_1
_geom_bond_site_symmetry_2
In1 C1 1_555 1_555
C2 In1 1_555 1_555
N1 In1 1_555 1_555
C3 N1 1_555 1_555
C4 N1 1_555 1_555
C1A In1 1_555 1_555
N1B In1 1_555 1_555
C4A N1 1_555 1_555
C3B C3 1_555 1_555
C4B C4 1_555 1_555
C3B_2 N1B 1_555 1_555
C4B_2 N1B 1_555 1_555
C4C N1B 1_555 1_555
C4C_2 C4A 1_555 1_555
N1B_2 C3B 1_555 1_555
C4A_2 C4C 1_555 1_555
C4B N1B_2 1_555 1_555

#END
