
#######################################################################
#
#                 Cambridge Crystallographic Data Centre
#                                CCDC 
#
#######################################################################
#
# If this CIF has been generated from an entry in the Cambridge 
# Structural Database, then it will include bibliographic, chemical, 
# crystal, experimental, refinement or atomic coordinate data resulting 
# from the CCDC's data processing and validation procedures.
#
#######################################################################

data_FOFGEO
_symmetry_cell_setting           orthorhombic
_symmetry_space_group_name_H-M   'P b c a'
_symmetry_Int_Tables_number      61
_space_group_name_Hall           '-P 2ac 2ab'
loop_
_symmetry_equiv_pos_site_id
_symmetry_equiv_pos_as_xyz
1 x,y,z
2 1/2-x,-y,1/2+z
3 1/2+x,1/2-y,-z
4 -x,1/2+y,1/2-z
5 -x,-y,-z
6 1/2+x,y,1/2-z
7 1/2-x,1/2+y,z
8 x,1/2-y,1/2+z
_cell_length_a                   13.994(2)
_cell_length_b                   20.878(3)
_cell_length_c                   28.618(5)
_cell_angle_alpha                90
_cell_angle_beta                 90
_cell_angle_gamma                90
_cell_volume                     8361.23
loop_
_atom_site_label
_atom_site_type_symbol
_atom_site_fract_x
_atom_site_fract_y
_atom_site_fract_z
Ag1 Ag 0.26675(8) 0.23344(5) 0.46403(3)
C1 C 0.2612(8) 0.1482(5) 0.3793(4)
H1 H 0.2629 0.1180 0.4032
C2 C 0.2555(8) 0.1263(5) 0.3348(4)
H2 H 0.2507 0.0826 0.3292
C3 C 0.2634(9) 0.2528(6) 0.3555(5)
H3 H 0.2643 0.2964 0.3622
C4 C 0.2610(8) 0.2335(5) 0.3103(4)
H4 H 0.2623 0.2646 0.2871
C5 C 0.2566(7) 0.1696(5) 0.2969(4)
C6 C 0.2522(7) 0.1491(4) 0.2489(3)
C7 C 0.2394(7) 0.0883(4) 0.2299(3)
C8 C 0.2399(10) 0.0212(5) 0.2485(4)
C9 C 0.1605(14) -0.0139(7) 0.2502(7)
H5 H 0.1015 0.0024 0.2410
C10 C 0.171(2) -0.0781(10) 0.2669(10)
H6 H 0.1159 -0.1025 0.2699
C11 C 0.324(2) -0.0688(9) 0.2771(7)
H7 H 0.3818 -0.0862 0.2863
C12 C 0.3246(14) -0.0053(6) 0.2633(6)
H8 H 0.3806 0.0187 0.2641
C13 C 0.2449(7) 0.1612(4) 0.1732(4)
C14 C 0.2470(7) 0.1855(4) 0.1260(4)
C15 C 0.2359(8) 0.1465(5) 0.0878(4)
H9 H 0.2236 0.1032 0.0923
C16 C 0.2424(8) 0.1697(5) 0.0434(4)
H10 H 0.2373 0.1415 0.0184
C17 C 0.2614(9) 0.2500(5) 0.1174(4)
H11 H 0.2681 0.2787 0.1420
C18 C 0.2657(10) 0.2707(5) 0.0724(4)
H12 H 0.2759 0.3141 0.0671
N1 N 0.2646(7) 0.2095(4) 0.3913(3)
N2 N 0.253(3) -0.1056(7) 0.2783(7)
N3 N 0.2346(6) 0.0972(4) 0.1831(3)
H13 H 0.2265 0.0674 0.1627
N4 N 0.2567(5) 0.1935(3) 0.2123(3)
N5 N 0.2560(7) 0.2317(4) 0.0350(3)
Ag1G Ag 0.26675(8) 0.26656(5) -0.03597(3)
N5G N 0.2560(7) 0.2683(4) 0.5350(3)
Ag2 Ag 0.50302(7) 0.22692(4) -0.07861(3)
C19 C 0.5229(8) 0.2413(5) 0.0293(3)
H14 H 0.5358 0.2836 0.0212
C20 C 0.5255(8) 0.2256(5) 0.0745(4)
H15 H 0.5410 0.2564 0.0967
C21 C 0.4821(8) 0.1401(5) 0.0068(3)
H16 H 0.4664 0.1111 -0.0166
C22 C 0.4828(8) 0.1194(5) 0.0523(4)
H17 H 0.4687 0.0769 0.0592
C23 C 0.5047(8) 0.1624(4) 0.0888(3)
C24 C 0.5050(7) 0.1427(4) 0.1374(3)
C25 C 0.4997(8) 0.0837(4) 0.1591(3)
C26 C 0.4977(8) 0.0179(4) 0.1394(3)
C27 C 0.5758(10) -0.0106(6) 0.1218(5)
H18 H 0.6328 0.0121 0.1198
C28 C 0.5718(10) -0.0740(6) 0.1066(5)
H19 H 0.6275 -0.0918 0.0946
C29 C 0.4197(10) -0.0819(5) 0.1256(5)
H20 H 0.3633 -0.1055 0.1270
C30 C 0.4195(10) -0.0191(5) 0.1421(5)
H21 H 0.3641 -0.0026 0.1553
C31 C 0.5053(7) 0.1539(4) 0.2146(3)
C32 C 0.5072(7) 0.1802(4) 0.2613(3)
C33 C 0.5034(7) 0.1420(5) 0.2994(3)
H22 H 0.5007 0.0978 0.2959
C34 C 0.5036(7) 0.1688(5) 0.3438(3)
H23 H 0.5004 0.1412 0.3693
C35 C 0.5121(9) 0.2679(5) 0.3146(4)
H24 H 0.5138 0.3120 0.3192
C36 C 0.5138(9) 0.2465(5) 0.2690(4)
H25 H 0.5192 0.2750 0.2442
N6 N 0.5032(6) 0.2003(4) -0.0050(3)
N7 N 0.4972(7) -0.1093(4) 0.1080(3)
N8 N 0.4998(6) 0.0907(4) 0.2065(3)
H26 H 0.4969 0.0607 0.2270
N9 N 0.5089(5) 0.1871(4) 0.1747(3)
N10 N 0.5082(6) 0.2314(4) 0.3523(3)
Ag2G Ag 0.50302(7) 0.27308(4) 0.42139(3)
N10G N 0.5082(6) 0.2686(4) -0.1477(3)
Mo1 Mo 0.76128(7) 0.53623(4) -0.00960(4)
Mo2 Mo 0.61375(8) 0.45992(5) 0.08318(4)
Mo3 Mo 0.38149(8) 0.44996(4) 0.10148(3)
Mo4 Mo 0.47074(7) 0.42200(4) -0.01193(3)
O1 O 0.8101(6) 0.6102(4) -0.0029(3)
O2 O 0.8497(6) 0.4857(4) 0.0051(3)
O3 O 0.6677(5) 0.5209(3) 0.0349(3)
O4 O 0.7033(6) 0.4067(4) 0.0871(4)
O5 O 0.6263(7) 0.5121(4) 0.1277(3)
O6 O 0.5765(5) 0.4000(3) 0.0152(3)
O7 O 0.4898(5) 0.5063(3) 0.0474(2)
O8 O 0.5064(5) 0.4125(3) 0.1067(2)
O9 O 0.3954(6) 0.5157(3) 0.1361(3)
O10 O 0.3225(6) 0.3957(3) 0.1350(3)
O11 O 0.2688(5) 0.4883(4) 0.0693(3)
O12 O 0.3778(5) 0.4058(3) 0.0351(2)
O13 O 0.4496(6) 0.3616(3) -0.0501(2)
Mo1D Mo 0.23872(7) 0.46377(4) 0.00960(4)
Mo2D Mo 0.38625(8) 0.54008(5) -0.08318(4)
Mo3D Mo 0.61851(8) 0.55004(4) -0.10148(3)
Mo4D Mo 0.52926(7) 0.57800(4) 0.01193(3)
O1D O 0.1899(6) 0.3898(4) 0.0029(3)
O2D O 0.1503(6) 0.5143(4) -0.0051(3)
O3D O 0.3323(5) 0.4791(3) -0.0349(3)
O4D O 0.2967(6) 0.5933(4) -0.0871(4)
O5D O 0.3737(7) 0.4879(4) -0.1277(3)
O6D O 0.4235(5) 0.6000(3) -0.0152(3)
O7D O 0.5102(5) 0.4937(3) -0.0474(2)
O8D O 0.4936(5) 0.5875(3) -0.1067(2)
O9D O 0.6046(6) 0.4843(3) -0.1361(3)
O10D O 0.6775(6) 0.6043(3) -0.1350(3)
O11D O 0.7312(5) 0.5117(4) -0.0693(3)
O12D O 0.6222(5) 0.5942(3) -0.0351(2)
O13D O 0.5504(6) 0.6384(3) 0.0501(2)
O14 O 0.5611(14) 0.3189(8) 0.1690(7)
O15? O 0.4855(17) 0.3215(8) 0.1731(7)
loop_
_geom_bond_atom_site_label_1
_geom_bond_atom_site_label_2
_geom_bond_site_symmetry_1
_geom_bond_site_symmetry_2
Ag1 N1 1_555 1_555
C1 H1 1_555 1_555
C2 C1 1_555 1_555
H2 C2 1_555 1_555
C3 H3 1_555 1_555
C4 C3 1_555 1_555
H4 C4 1_555 1_555
C5 C2 1_555 1_555
C6 C5 1_555 1_555
C7 C6 1_555 1_555
C8 C7 1_555 1_555
C9 C8 1_555 1_555
H5 C9 1_555 1_555
C10 C9 1_555 1_555
H6 C10 1_555 1_555
C11 H7 1_555 1_555
C12 C8 1_555 1_555
H8 C12 1_555 1_555
C13 C14 1_555 1_555
C14 C15 1_555 1_555
C15 H9 1_555 1_555
C16 C15 1_555 1_555
H10 C16 1_555 1_555
C17 C14 1_555 1_555
H11 C17 1_555 1_555
C18 C17 1_555 1_555
H12 C18 1_555 1_555
N1 C1 1_555 1_555
N2 C10 1_555 1_555
N3 C7 1_555 1_555
H13 N3 1_555 1_555
N4 C6 1_555 1_555
N5 C16 1_555 1_555
Ag2 N6 1_555 1_555
C19 H14 1_555 1_555
C20 C19 1_555 1_555
H15 C20 1_555 1_555
C21 H16 1_555 1_555
C22 C21 1_555 1_555
H17 C22 1_555 1_555
C23 C20 1_555 1_555
C24 C23 1_555 1_555
C25 C24 1_555 1_555
C26 C25 1_555 1_555
C27 C26 1_555 1_555
H18 C27 1_555 1_555
C28 C27 1_555 1_555
H19 C28 1_555 1_555
C29 H20 1_555 1_555
C30 C26 1_555 1_555
H21 C30 1_555 1_555
C31 C32 1_555 1_555
C32 C33 1_555 1_555
C33 H22 1_555 1_555
C34 C33 1_555 1_555
H23 C34 1_555 1_555
C35 H24 1_555 1_555
C36 C32 1_555 1_555
H25 C36 1_555 1_555
N6 C19 1_555 1_555
N7 C28 1_555 1_555
N8 C25 1_555 1_555
H26 N8 1_555 1_555
N9 C24 1_555 1_555
N10 C34 1_555 1_555
Mo1 O1 1_555 1_555
Mo2 O3 1_555 1_555
Mo3 O7 1_555 1_555
Mo4 O6 1_555 1_555
O2 Mo1 1_555 1_555
O3 Mo1 1_555 1_555
O4 Mo2 1_555 1_555
O5 Mo2 1_555 1_555
O6 Mo2 1_555 1_555
O7 Mo2 1_555 1_555
O8 Mo2 1_555 1_555
O9 Mo3 1_555 1_555
O10 Mo3 1_555 1_555
O11 Mo3 1_555 1_555
O12 Mo3 1_555 1_555
O13 Mo4 1_555 1_555
Ag1G N5 1_555 1_555
N5G Ag1 1_555 1_555
Ag2G N10 1_555 1_555
N10G Ag2 1_555 1_555
Mo1D O11 1_555 1_555
Mo2D O3D 1_555 1_555
Mo3D O7D 1_555 1_555
Mo4D O3 1_555 1_555
O1D Mo1D 1_555 1_555
O2D Mo1D 1_555 1_555
O3D Mo4 1_555 1_555
O4D Mo2D 1_555 1_555
O5D Mo2D 1_555 1_555
O6D Mo2D 1_555 1_555
O7D Mo4 1_555 1_555
O8D Mo2D 1_555 1_555
O9D Mo3D 1_555 1_555
O10D Mo3D 1_555 1_555
O11D Mo1 1_555 1_555
O12D Mo1 1_555 1_555
O13D Mo4D 1_555 1_555
C3 N1 1_555 1_555
C4 C5 1_555 1_555
C11 C12 1_555 1_555
C11 N2 1_555 1_555
C13 N3 1_555 1_555
C13 N4 1_555 1_555
C18 N5 1_555 1_555
C21 N6 1_555 1_555
C22 C23 1_555 1_555
C29 C30 1_555 1_555
C29 N7 1_555 1_555
C31 N8 1_555 1_555
C31 N9 1_555 1_555
C35 C36 1_555 1_555
C35 N10 1_555 1_555
Mo3 O8 1_555 1_555
Mo4 O7 1_555 1_555
Mo4 O12 1_555 1_555
O7 Mo4D 1_555 1_555
O12 Mo1D 1_555 1_555
Mo1D O3D 1_555 1_555
Mo2D O7D 1_555 1_555
Mo3D O8D 1_555 1_555
Mo3D O11D 1_555 1_555
Mo3D O12D 1_555 1_555
Mo4D O6D 1_555 1_555
Mo4D O7D 1_555 1_555
Mo4D O12D 1_555 1_555

#END
