
#######################################################################
#
#                 Cambridge Crystallographic Data Centre
#                                CCDC 
#
#######################################################################
#
# If this CIF has been generated from an entry in the Cambridge 
# Structural Database, then it will include bibliographic, chemical, 
# crystal, experimental, refinement or atomic coordinate data resulting 
# from the CCDC's data processing and validation procedures.
#
#######################################################################

data_FOFHOY
_symmetry_cell_setting           orthorhombic
_symmetry_space_group_name_H-M   'P b c a'
_symmetry_Int_Tables_number      61
_space_group_name_Hall           '-P 2ac 2ab'
loop_
_symmetry_equiv_pos_site_id
_symmetry_equiv_pos_as_xyz
1 x,y,z
2 1/2-x,-y,1/2+z
3 -x,1/2+y,1/2-z
4 1/2+x,1/2-y,-z
5 -x,-y,-z
6 1/2+x,y,1/2-z
7 x,1/2-y,1/2+z
8 1/2-x,1/2+y,z
_cell_length_a                   15.8224(7)
_cell_length_b                   9.0385(4)
_cell_length_c                   17.4504(8)
_cell_angle_alpha                90
_cell_angle_beta                 90
_cell_angle_gamma                90
_cell_volume                     2495.6
loop_
_atom_site_label
_atom_site_type_symbol
_atom_site_fract_x
_atom_site_fract_y
_atom_site_fract_z
Ga1 Ga 0.130596(19) 0.43061(3) 0.490858(19)
V1 V 0.11630(3) 0.87729(5) 0.60194(3)
P1 P 0.02082(5) 0.55143(8) 0.61986(4)
P2 P 0.27153(4) 0.66020(8) 0.53518(4)
O1 O 0.07571(15) 0.4290(3) 0.58225(14)
O2 O 0.02645(15) 0.5321(3) 0.70551(13)
O3 O -0.07173(13) 0.5201(3) 0.59495(13)
O4 O 0.04675(15) 0.6996(3) 0.58795(15)
O5 O 0.21686(14) 0.5625(2) 0.48325(12)
O6 O 0.33097(14) 0.7417(2) 0.47863(12)
O7 O 0.32328(14) 0.5698(2) 0.59141(13)
O8 O 0.22066(13) 0.7734(2) 0.57951(13)
O9 O 0.09005(14) 0.8988(2) 0.47887(12)
O10 O -0.00620(13) 0.9970(2) 0.40037(12)
O11 O 0.11815(15) 0.8807(3) 0.69676(14)
C1 C 0.02434(17) 0.9697(3) 0.46539(16)
Ga1D Ga -0.130596(19) 0.56939(3) 0.509142(19)
Ga1G Ga 0.369404(19) 0.93061(3) 0.490858(19)
Ga1G_2 Ga 0.369404(19) -0.06939(3) 0.490858(19)
V1D V -0.11630(3) 0.12271(5) 0.39806(3)
V1G V 0.38370(3) 0.37729(5) 0.60194(3)
V1D_2 V -0.11630(3) 1.12271(5) 0.39806(3)
V1_2 V 0.11630(3) -0.12271(5) 0.60194(3)
P1D P -0.02082(5) 0.44857(8) 0.38014(4)
P2G P 0.22847(4) 0.16020(8) 0.53518(4)
O1D O -0.07571(15) 0.5710(3) 0.41775(14)
O2D O -0.02645(15) 0.4679(3) 0.29449(13)
O3D O 0.07173(13) 0.4799(3) 0.40505(13)
O4D O -0.04675(15) 0.3004(3) 0.41205(15)
O5G O 0.28314(14) 0.0625(2) 0.48325(12)
O5D O -0.21686(14) 0.4375(2) 0.51675(12)
O6G O 0.16903(14) 0.2417(2) 0.47863(12)
O6C O -0.16903(14) 0.7583(2) 0.52137(12)
O7G O 0.17672(14) 0.0698(2) 0.59141(13)
O7G_2 O 0.17672(14) 1.0698(2) 0.59141(13)
O7C O -0.17672(14) -0.0698(2) 0.40859(13)
O8G O 0.27934(13) 0.2734(2) 0.57951(13)
O8D O -0.22066(13) 0.2266(2) 0.42049(13)
O9D O -0.09005(14) 1.1012(2) 0.52113(12)
O9D_2 O -0.09005(14) 0.1012(2) 0.52113(12)
O10D O 0.00620(13) 1.0030(2) 0.59963(12)
O10_2 O -0.00620(13) -0.0030(2) 0.40037(12)
O11D O -0.11815(15) 0.1193(3) 0.30324(14)
C1D C -0.02434(17) 1.0303(3) 0.53461(16)
N1 N 0.3984(2) 0.7264(4) 0.71999(18)
N2 N 0.1178(2) 0.6962(4) 0.8182(2)
C2 C 0.3234(3) 0.7593(5) 0.7698(2)
C3 C 0.2670(3) 0.6312(6) 0.7783(3)
C4 C 0.2012(3) 0.6490(7) 0.8422(3)
H1 H 0.3745 0.6670 0.6780
H2 H 0.4222 0.8104 0.7130
H3 H 0.4326 0.6562 0.7485
H4 H 0.1163 0.7859 0.7890
H5 H 0.0858 0.7145 0.8659
H6 H 0.0948 0.6231 0.7793
H7 H 0.3527 0.7929 0.8191
H8 H 0.2849 0.8365 0.7456
H9 H 0.2393 0.6081 0.7288
H10 H 0.3081 0.5359 0.8067
H11 H 0.1960 0.5554 0.8696
H12 H 0.2227 0.7192 0.8798
loop_
_geom_bond_atom_site_label_1
_geom_bond_atom_site_label_2
_geom_bond_site_symmetry_1
_geom_bond_site_symmetry_2
Ga1 O1 1_555 1_555
V1 O4 1_555 1_555
P1 O1 1_555 1_555
P2 O5 1_555 1_555
O2 P1 1_555 1_555
O3 P1 1_555 1_555
O4 P1 1_555 1_555
O5 Ga1 1_555 1_555
O6 P2 1_555 1_555
O7 P2 1_555 1_555
O8 V1 1_555 1_555
O9 V1 1_555 1_555
O10 C1 1_555 1_555
O11 V1 1_555 1_555
N1 C2 1_555 1_555
N2 C4 1_555 1_555
C1 O9 1_555 1_555
C2 C3 1_555 1_555
C3 C4 1_555 1_555
C4 H11 1_555 1_555
H1 N1 1_555 1_555
H2 N1 1_555 1_555
H3 N1 1_555 1_555
H4 N2 1_555 1_555
H5 N2 1_555 1_555
H6 N2 1_555 1_555
H7 C2 1_555 1_555
H8 C2 1_555 1_555
H9 C3 1_555 1_555
H10 C3 1_555 1_555
H12 C4 1_555 1_555
Ga1D O3 1_555 1_555
Ga1G O6 1_555 1_555
Ga1G_2 O5G 1_555 1_555
V1D O4D 1_555 1_555
V1G O7 1_555 1_555
V1D_2 O10 1_555 1_555
V1_2 O7G 1_555 1_555
P1D O1D 1_555 1_555
P2G O5G 1_555 1_555
O1D Ga1D 1_555 1_555
O2D P1D 1_555 1_555
O3D Ga1 1_555 1_555
O4D P1D 1_555 1_555
O5D Ga1D 1_555 1_555
O6G Ga1 1_555 1_555
O6C Ga1D 1_555 1_555
O7G P2G 1_555 1_555
O7G_2 V1 1_555 1_555
O7C V1D 1_555 1_555
O8G V1G 1_555 1_555
O8D V1D 1_555 1_555
O9D V1D_2 1_555 1_555
O9D_2 V1D 1_555 1_555
O10D V1 1_555 1_555
O10_2 V1D 1_555 1_555
O11D V1D 1_555 1_555
C1D C1 1_555 1_555
P2 O8 1_555 1_555
P1D O3D 1_555 1_555
P2G O6G 1_555 1_555
P2G O8G 1_555 1_555
O9D C1D 1_555 1_555
O10D C1D 1_555 1_555

#END
