
#######################################################################
#
#                 Cambridge Crystallographic Data Centre
#                                CCDC 
#
#######################################################################
#
# If this CIF has been generated from an entry in the Cambridge 
# Structural Database, then it will include bibliographic, chemical, 
# crystal, experimental, refinement or atomic coordinate data resulting 
# from the CCDC's data processing and validation procedures.
#
#######################################################################

data_FOFHIS
_symmetry_cell_setting           triclinic
_symmetry_space_group_name_H-M   'P -1'
_symmetry_Int_Tables_number      2
_space_group_name_Hall           '-P 1'
loop_
_symmetry_equiv_pos_site_id
_symmetry_equiv_pos_as_xyz
1 x,y,z
2 -x,-y,-z
_cell_length_a                   8.2932(4)
_cell_length_b                   9.0002(5)
_cell_length_c                   10.1814(5)
_cell_angle_alpha                82.4150(10)
_cell_angle_beta                 81.0800(10)
_cell_angle_gamma                78.5720(10)
_cell_volume                     731.834
loop_
_atom_site_label
_atom_site_type_symbol
_atom_site_fract_x
_atom_site_fract_y
_atom_site_fract_z
Ga1 Ga 0.25185(6) 0.52088(5) 0.53654(5)
V1 V 0.27958(8) 0.09441(7) 0.35468(7)
P1 P 0.10063(14) 0.45132(13) 0.30442(12)
P2 P 0.53780(13) 0.23588(12) 0.50693(12)
O1 O 0.2118(4) 0.5376(4) 0.3640(3)
O2 O -0.0828(4) 0.5279(3) 0.3410(3)
O3 O 0.1221(4) 0.2868(4) 0.3647(4)
O4 O 0.1425(4) 0.4740(4) 0.1536(3)
O5 O 0.4572(4) 0.1797(4) 0.4046(3)
O6 O 0.4189(4) 0.3644(3) 0.5795(3)
O7 O 0.6892(4) 0.3032(3) 0.4312(3)
O8 O 0.5917(4) 0.1136(3) 0.6169(3)
O9 O 0.1607(4) 0.0582(3) 0.5580(3)
O10 O -0.0794(4) 0.0023(4) 0.6683(3)
O11 O 0.3445(5) 0.1127(4) 0.1880(3)
C1 C 0.0224(6) 0.0180(5) 0.5667(4)
Ga1A Ga -0.25185(6) 0.47912(5) 0.46346(5)
Ga1A_2 Ga 0.74815(6) 0.47912(5) 0.46346(5)
V1A V -0.27958(8) 0.90559(7) 0.64532(7)
V1A_2 V 0.72042(8) -0.09441(7) 0.64532(7)
V1A_3 V -0.27958(8) -0.09441(7) 0.64532(7)
V1A_4 V 0.72042(8) 0.90559(7) 0.64532(7)
V1_2 V 0.27958(8) 1.09441(7) 0.35468(7)
P1A P -0.10063(14) 0.54868(13) 0.69558(12)
P2A P 0.46220(13) 0.76412(12) 0.49307(12)
O1A O -0.2118(4) 0.4624(4) 0.6360(3)
O2A O 0.0828(4) 0.4721(3) 0.6590(3)
O3A O -0.1221(4) 0.7132(4) 0.6353(4)
O4A O -0.1425(4) 0.5260(4) 0.8464(3)
O5A O 0.5428(4) 0.8203(4) 0.5954(3)
O5A_2 O -0.4572(4) 0.8203(4) 0.5954(3)
O6A O 0.5811(4) 0.6356(3) 0.4205(3)
O6A_2 O -0.4189(4) 0.6356(3) 0.4205(3)
O7A O 0.3108(4) 0.6968(3) 0.5688(3)
O7_2 O -0.3108(4) 0.3032(3) 0.4312(3)
O8A O 0.4083(4) 0.8864(3) 0.3831(3)
O8A_2 O 0.4083(4) -0.1136(3) 0.3831(3)
O8_2 O -0.4083(4) 1.1136(3) 0.6169(3)
O9A O -0.1607(4) -0.0582(3) 0.4420(3)
O9A_2 O -0.1607(4) 0.9418(3) 0.4420(3)
O10A O 0.0794(4) -0.0023(4) 0.3317(3)
O10_2 O -0.0794(4) 1.0023(4) 0.6683(3)
O11A O -0.3445(5) 0.8873(4) 0.8120(3)
C1A C -0.0224(6) -0.0180(5) 0.4333(4)
O12 O 0.1095(5) 0.3042(5) -0.0390(5)
N1 N 0.2817(7) 0.0863(8) 0.7934(6)
N2 N 0.3757(7) -0.3719(6) 1.0440(5)
C2 C 0.2294(12) -0.0537(9) 0.8551(8)
C3 C 0.3196(15) -0.0855(13) 0.9811(10)
C5 C 0.2561(15) -0.2158(13) 1.0687(12)
C7 C 0.4075(8) -0.4064(8) 0.9012(6)
C8 C 0.5287(8) -0.4248(8) 1.1063(6)
H1 H 0.2035 0.1283 0.6827
H2 H 0.2064 0.1585 0.8330
H3 H 0.4027 0.0068 0.8102
H4 H 0.2906 -0.4263 1.0985
H5 H 0.2565 -0.1357 0.7969
H6 H 0.1212 -0.0616 0.8510
H7 H 0.4962 -0.3285 0.8402
H8 H 0.3162 -0.3741 0.8687
H9 H 0.4446 -0.4096 1.2154
H10 H 0.6087 -0.3779 1.0582
N1A N 0.7183(7) -1.0863(8) 1.2066(6)
N2A N 0.6243(7) -0.6281(6) 0.9560(5)
C2A C 0.7706(12) -0.9463(9) 1.1449(8)
C3A C 0.6804(15) -0.9145(13) 1.0189(10)
C5A C 0.7439(15) -0.7842(13) 0.9313(12)
C7A C 0.5925(8) -0.5936(8) 1.0988(6)
C8A C 0.4713(8) -0.5752(8) 0.8937(6)
H1A H 0.7965 -1.1283 1.3173
H2A H 0.7936 -1.1585 1.1670
H3A H 0.5973 -1.0068 1.1898
H4A H 0.7094 -0.5737 0.9015
H5A H 0.7435 -0.8643 1.2031
H6A H 0.8788 -0.9384 1.1490
H7A H 0.5038 -0.6715 1.1598
H8A H 0.6838 -0.6259 1.1313
H9A H 0.5554 -0.5904 0.7846
H10A H 0.3913 -0.6221 0.9418
C4? C 0.198(2) -0.1118(19) 1.0136(14)
C6? C 0.3590(19) -0.1990(16) 1.0606(14)
loop_
_geom_bond_atom_site_label_1
_geom_bond_atom_site_label_2
_geom_bond_site_symmetry_1
_geom_bond_site_symmetry_2
Ga1 O1 1_555 1_555
V1 O3 1_555 1_555
P1 O1 1_555 1_555
P2 O5 1_555 1_555
O2 P1 1_555 1_555
O3 P1 1_555 1_555
O4 P1 1_555 1_555
O5 V1 1_555 1_555
O6 Ga1 1_555 1_555
O7 P2 1_555 1_555
O8 P2 1_555 1_555
O9 V1 1_555 1_555
O10 C1 1_555 1_555
O11 V1 1_555 1_555
C1 O9 1_555 1_555
N1 C2 1_555 1_555
N2 C5 1_555 1_555
C2 C3 1_555 1_555
C3 C5 1_555 1_555
C7 N2 1_555 1_555
C8 N2 1_555 1_555
H1 N1 1_555 1_555
H2 N1 1_555 1_555
H3 N1 1_555 1_555
H4 N2 1_555 1_555
H5 C2 1_555 1_555
H6 C2 1_555 1_555
H7 C7 1_555 1_555
H8 C7 1_555 1_555
H9 C8 1_555 1_555
H10 C8 1_555 1_555
Ga1A O2 1_555 1_555
Ga1A_2 O7 1_555 1_555
V1A O3A 1_555 1_555
V1A_2 O8 1_555 1_555
V1A_3 O10 1_555 1_555
V1A_4 O5A 1_555 1_555
V1_2 O8A 1_555 1_555
P1A O1A 1_555 1_555
P2A O5A 1_555 1_555
O1A Ga1A 1_555 1_555
O2A Ga1 1_555 1_555
O3A P1A 1_555 1_555
O4A P1A 1_555 1_555
O5A_2 V1A 1_555 1_555
O6A Ga1A_2 1_555 1_555
O6A_2 Ga1A 1_555 1_555
O7A Ga1 1_555 1_555
O7_2 Ga1A 1_555 1_555
O8A P2A 1_555 1_555
O8A_2 V1 1_555 1_555
O8_2 V1A 1_555 1_555
O9A V1A_3 1_555 1_555
O9A_2 V1A 1_555 1_555
O10A V1 1_555 1_555
O10_2 V1A 1_555 1_555
O11A V1A 1_555 1_555
C1A C1 1_555 1_555
N1A C2A 1_555 1_555
N2A C5A 1_555 1_555
C2A C3A 1_555 1_555
C3A C5A 1_555 1_555
C7A C8 1_555 1_555
C8A C7 1_555 1_555
H1A N1A 1_555 1_555
H2A N1A 1_555 1_555
H3A N1A 1_555 1_555
H4A N2A 1_555 1_555
H5A C2A 1_555 1_555
H6A C2A 1_555 1_555
H7A C7A 1_555 1_555
H8A C7A 1_555 1_555
H9A C8A 1_555 1_555
H10A C8A 1_555 1_555
P2 O6 1_555 1_555
P1A O2A 1_555 1_555
P2A O6A 1_555 1_555
P2A O7A 1_555 1_555
O9A C1A 1_555 1_555
O10A C1A 1_555 1_555
N2A C7A 1_555 1_555
N2A C8A 1_555 1_555

#END
