
#######################################################################
#
#                 Cambridge Crystallographic Data Centre
#                                CCDC 
#
#######################################################################
#
# If this CIF has been generated from an entry in the Cambridge 
# Structural Database, then it will include bibliographic, chemical, 
# crystal, experimental, refinement or atomic coordinate data resulting 
# from the CCDC's data processing and validation procedures.
#
#######################################################################

data_FOFHEP
_symmetry_cell_setting           orthorhombic
_symmetry_space_group_name_H-M   'P c a 21'
_symmetry_Int_Tables_number      29
_space_group_name_Hall           'P 2c -2ac'
loop_
_symmetry_equiv_pos_site_id
_symmetry_equiv_pos_as_xyz
1 x,y,z
2 -x,-y,1/2+z
3 1/2-x,y,1/2+z
4 1/2+x,-y,z
_cell_length_a                   30.1144(4)
_cell_length_b                   14.9083(2)
_cell_length_c                   21.9452(2)
_cell_angle_alpha                90
_cell_angle_beta                 90
_cell_angle_gamma                90
_cell_volume                     9852.4
loop_
_atom_site_label
_atom_site_type_symbol
_atom_site_fract_x
_atom_site_fract_y
_atom_site_fract_z
Cu1 Cu 0.43708(3) -0.37936(7) 0.49016(6)
Cu2 Cu 0.04798(4) -0.21485(8) 0.30910(6)
Cu3 Cu -0.04625(4) -0.34970(8) 0.31402(6)
Cu4 Cu -0.45991(4) -0.11742(8) 0.40836(7)
Cl1 Cl 0.50572(5) -0.43504(12) 0.50418(11)
Cl2 Cl 0.02467(6) -0.39031(13) 0.33036(10)
Cl3 Cl -0.02337(6) -0.17947(14) 0.28516(11)
Cl4 Cl -0.53056(6) -0.07188(15) 0.39270(14)
Cl5 Cl 0.06585(7) -0.21740(17) 0.21106(11)
Cl6 Cl -0.04882(7) -0.42139(16) 0.22205(13)
N1 N -0.1009(2) 0.2673(4) 0.4858(3)
N2 N 0.3818(2) -0.4681(4) 0.4671(3)
N3 N 0.31695(19) -0.5153(4) 0.5062(3)
N4 N 0.0294(2) -0.8413(5) 0.4937(4)
N5 N 0.1104(2) -0.6633(4) 0.4670(3)
N6 N -0.13488(19) 0.1667(4) 0.4276(3)
N7 N 0.0403(2) -0.1820(4) 0.3984(4)
N8 N -0.4053(2) -0.0299(4) 0.4324(4)
N9 N 0.1085(2) -0.2458(4) 0.3412(3)
N10 N -0.1064(2) -0.2998(4) 0.3105(4)
N11 N -0.0516(2) 0.3425(4) 0.4038(4)
N12 N 0.1500(2) -0.2838(4) 0.4208(3)
N13 N 0.4179(2) -0.4195(5) 0.5730(3)
N14 N -0.34187(19) 0.0241(4) 0.3934(3)
N15 N -0.4423(2) -0.0733(5) 0.3268(4)
N16 N -0.1652(2) -0.2387(5) 0.3551(4)
N17 N 0.0765(2) -0.7665(4) 0.4092(4)
N18 N -0.0611(2) -0.3381(5) 0.4056(3)
C1 C -0.1277(2) 0.2172(5) 0.5229(4)
C2 C 0.1581(2) -0.5426(5) 0.5136(4)
C3 C 0.3805(2) -0.4710(5) 0.5763(4)
C4 C -0.2613(2) 0.0111(5) 0.3663(4)
C5 C 0.1470(2) -0.4548(5) 0.4997(4)
C6 C 0.3297(3) -0.5238(6) 0.3174(4)
H1 H 0.3340 -0.5232 0.2755
C7 C -0.1265(2) -0.2803(5) 0.3625(4)
C8 C 0.2904(3) -0.5583(6) 0.3419(4)
H2 H 0.2694 -0.5825 0.3155
C9 C -0.3369(3) 0.0239(6) 0.4570(4)
C10 C 0.0505(3) -0.7433(6) 0.5739(4)
H3 H 0.0670 -0.6943 0.5871
C11 C -0.3766(3) -0.0115(5) 0.4807(4)
C12 C 0.0037(3) -0.1442(6) 0.4239(5)
H4 H -0.0203 -0.1306 0.3988
C13 C -0.4049(2) -0.0192(6) 0.3224(4)
C14 C -0.2894(3) -0.1466(6) 0.3726(5)
H5 H -0.3047 -0.1491 0.4110
H6 H -0.2777 -0.2048 0.3630
H7 H -0.3096 -0.1280 0.3413
C15 C 0.4311(3) -0.4448(6) 0.6791(4)
H8 H 0.4487 -0.4347 0.7133
C16 C 0.1000(3) -0.4287(6) 0.4860(5)
H9 H 0.0802 -0.4656 0.5093
H10 H 0.0943 -0.4369 0.4434
H11 H 0.0956 -0.3669 0.4967
C17 C 0.1573(3) -0.5950(6) 0.3811(4)
H12 H 0.1713 -0.5502 0.4036
C18 C -0.1793(3) 0.0902(6) 0.5130(4)
H13 H -0.1942 0.0474 0.4898
C19 C 0.1681(3) -0.2932(5) 0.4829(4)
H14 H 0.1462 -0.2724 0.5120
H15 H 0.1941 -0.2553 0.4868
C20 C 0.0360(3) -0.1432(6) 0.5221(4)
H16 H 0.0342 -0.1311 0.5635
C21 C -0.0345(3) -0.3607(6) 0.4513(5)
H17 H -0.0068 -0.3841 0.4418
C22 C 0.0002(3) -0.1253(6) 0.4846(5)
H18 H -0.0257 -0.1008 0.5004
C23 C -0.1641(3) 0.1622(7) 0.6110(5)
H19 H -0.1699 0.1657 0.6525
C24 C 0.1572(3) -0.3146(7) 0.2586(4)
H20 H 0.1396 -0.3004 0.2251
C25 C -0.1963(3) -0.2025(5) 0.4005(5)
H21 H -0.1831 -0.2078 0.4407
H22 H -0.2232 -0.2380 0.4002
C26 C -0.1347(3) 0.2219(6) 0.5848(4)
H23 H -0.1199 0.2643 0.6084
C27 C -0.0457(3) -0.3515(6) 0.5129(4)
H24 H -0.0257 -0.3660 0.5437
C28 C 0.2021(2) -0.5678(5) 0.5252(3)
C29 C 0.1142(3) -0.7313(6) 0.3106(5)
H25 H 0.0996 -0.7750 0.2879
C30 C -0.1261(3) -0.0688(5) 0.4059(5)
H26 H -0.1098 -0.0168 0.4187
H27 H -0.1121 -0.0945 0.3707
H28 H -0.1265 -0.1120 0.4383
C31 C 0.0748(3) -0.1795(6) 0.4976(4)
H29 H 0.0996 -0.1890 0.5220
C32 C 0.1660(3) -0.6077(6) 0.3177(4)
H30 H 0.1860 -0.5698 0.2981
C33 C 0.1224(2) -0.6124(5) 0.5215(4)
H31 H 0.0959 -0.5829 0.5367
H32 H 0.1320 -0.6545 0.5525
C34 C 0.1454(3) -0.6757(6) 0.2842(4)
H33 H 0.1529 -0.6836 0.2435
C35 C 0.2229(3) -0.3835(6) 0.3018(4)
H34 H 0.2493 -0.4140 0.2949
C36 C -0.0020(3) -0.8602(6) 0.5923(6)
H35 H -0.0209 -0.8916 0.6182
C37 C -0.1160(3) -0.2983(6) 0.4793(5)
H36 H -0.1445 -0.2780 0.4881
C38 C -0.3932(3) 0.0203(7) 0.2688(5)
H37 H -0.3690 0.0592 0.2675
C39 C -0.2032(3) -0.1852(7) 0.2570(5)
H38 H -0.2291 -0.1626 0.2744
C40 C -0.1707(3) -0.2261(6) 0.2918(4)
C41 C 0.3141(2) -0.5230(5) 0.4423(4)
C42 C -0.1055(2) 0.2364(5) 0.4290(4)
C43 C 0.2810(2) -0.5580(5) 0.4049(4)
H39 H 0.2544 -0.5798 0.4205
C44 C 0.0756(2) -0.2010(5) 0.4365(4)
C45 C 0.3592(2) -0.4845(5) 0.5172(3)
C46 C -0.3837(2) -0.0088(5) 0.3817(4)
C47 C -0.1735(2) -0.0418(5) 0.3901(4)
C48 C 0.0800(2) -0.7321(5) 0.4638(4)
C49 C -0.1498(2) 0.1518(5) 0.4860(4)
C50 C 0.2807(2) -0.5258(6) 0.5516(4)
H40 H 0.2872 -0.4883 0.5866
H41 H 0.2802 -0.5876 0.5654
C51 C 0.1808(2) -0.3886(5) 0.4983(4)
C52 C -0.1333(3) -0.2645(6) 0.2642(4)
C53 C -0.0245(2) 0.3864(6) 0.3660(4)
H42 H -0.0054 0.4293 0.3821
C54 C 0.3630(2) -0.4897(5) 0.3568(4)
H43 H 0.3896 -0.4673 0.3416
C55 C 0.3931(3) -0.4964(7) 0.6829(4)
H44 H 0.3848 -0.5215 0.7200
C56 C 0.2101(3) -0.3631(6) 0.3609(5)
H45 H 0.2274 -0.3803 0.3941
C57 C -0.1834(2) 0.0480(5) 0.3779(4)
C58 C 0.1052(2) -0.7198(5) 0.3724(4)
C59 C -0.1458(2) 0.1145(5) 0.3708(4)
H46 H -0.1194 0.0823 0.3579
H47 H -0.1534 0.1565 0.3387
C60 C -0.0793(2) 0.2783(5) 0.3813(4)
C61 C 0.1447(2) -0.2918(5) 0.3194(4)
C62 C 0.1120(2) -0.2429(5) 0.4009(4)
C63 C 0.1710(3) -0.3166(5) 0.3686(4)
C64 C 0.1263(2) -0.6542(5) 0.4075(4)
C65 C 0.3674(3) -0.5109(6) 0.6313(4)
H48 H 0.3420 -0.5464 0.6332
C66 C 0.2350(2) -0.5015(5) 0.5273(3)
C67 C -0.1018(3) -0.3067(6) 0.4186(4)
C68 C -0.2515(2) -0.0798(5) 0.3768(4)
C69 C 0.0232(3) -0.7879(5) 0.6145(4)
H49 H 0.0216 -0.7706 0.6551
C70 C 0.4422(3) -0.4087(6) 0.6233(4)
H50 H 0.4681 -0.3749 0.6205
C71 C 0.2146(3) -0.6658(5) 0.5332(4)
H51 H 0.2128 -0.6816 0.5755
H52 H 0.2443 -0.6753 0.5188
H53 H 0.1944 -0.7026 0.5103
C72 C 0.3544(2) -0.4912(5) 0.4185(4)
C73 C -0.2268(3) 0.0762(5) 0.3672(4)
C74 C 0.0014(3) -0.8841(6) 0.5323(5)
H54 H -0.0160 -0.9310 0.5176
C75 C 0.2248(2) -0.4113(5) 0.5149(4)
C76 C -0.2079(3) -0.1053(5) 0.3889(4)
C77 C -0.4642(4) -0.0900(8) 0.2753(6)
H55 H -0.4887 -0.1281 0.2768
C78 C 0.0534(2) -0.7710(5) 0.5142(4)
C79 C -0.0237(3) 0.3708(6) 0.3044(5)
H56 H -0.0046 0.4035 0.2796
C80 C -0.1258(3) -0.2593(6) 0.2018(4)
H57 H -0.1007 -0.2838 0.1836
C81 C -0.0797(3) 0.2590(5) 0.3190(4)
H58 H -0.0986 0.2151 0.3036
C82 C -0.1852(3) 0.0960(7) 0.5755(4)
H59 H -0.2038 0.0549 0.5947
C83 C -0.0510(3) 0.3068(6) 0.2793(5)
H60 H -0.0508 0.2952 0.2376
C84 C -0.2368(3) 0.1751(5) 0.3594(5)
H61 H -0.2104 0.2093 0.3668
H62 H -0.2594 0.1927 0.3878
H63 H -0.2470 0.1859 0.3186
C85 C -0.0869(3) -0.3207(6) 0.5257(5)
H64 H -0.0957 -0.3145 0.5661
C86 C -0.3030(3) 0.0540(6) 0.4949(4)
H65 H -0.2772 0.0794 0.4794
C87 C -0.3071(3) 0.0416(7) 0.3463(4)
H66 H -0.3063 0.1053 0.3375
H67 H -0.3151 0.0105 0.3090
C88 C -0.3098(4) 0.0443(8) 0.5565(5)
H68 H -0.2879 0.0638 0.5833
C89 C 0.2605(3) -0.3401(6) 0.5199(5)
H69 H 0.2624 -0.3078 0.4821
H70 H 0.2885 -0.3682 0.5284
H71 H 0.2531 -0.2994 0.5522
C90 C -0.3495(4) 0.0051(8) 0.5811(5)
H72 H -0.3524 -0.0020 0.6230
C91 C -0.3830(3) -0.0217(7) 0.5437(5)
H73 H -0.4091 -0.0459 0.5592
C92 C 0.1966(3) -0.3586(6) 0.2531(5)
H74 H 0.2065 -0.3728 0.2141
C93 C -0.4172(3) 0.0027(9) 0.2162(6)
H75 H -0.4092 0.0289 0.1793
C94 C -0.1577(3) -0.2160(7) 0.1689(5)
H76 H -0.1539 -0.2108 0.1270
C95 C -0.4524(4) -0.0532(10) 0.2196(6)
H77 H -0.4687 -0.0669 0.1848
C96 C -0.1953(3) -0.1796(7) 0.1946(5)
H78 H -0.2159 -0.1507 0.1698
Cu1C Cu -0.06292(3) 0.37936(7) 0.49016(6)
Cu4C Cu 0.04009(4) -0.88258(8) 0.40836(7)
N1C N 0.3991(2) -0.2673(4) 0.4858(3)
N4C N -0.4706(2) -0.1587(5) 0.4937(4)
N11C N 0.4484(2) -0.3425(4) 0.4038(4)
N17C N -0.4235(2) -0.2335(4) 0.4092(4)
O1 O -0.1848(3) -0.2496(15) 0.6051(8)
O2 O -0.0865(4) -0.0377(10) 0.5659(4)
H79 H -0.0804 0.0002 0.5937
H80 H -0.0928 -0.0880 0.5821
O3 O -0.2133(7) -0.1376(8) 0.5525(5)
O4 O -0.0710(4) 0.0095(8) 0.2587(6)
H81 H -0.0801 0.0211 0.2228
H82 H -0.0665 -0.0466 0.2621
O5 O 0.2453(4) -0.0969(12) 0.7090(6)
H83 H 0.2310 -0.1341 0.6873
H84 H 0.2276 -0.0573 0.7227
O6 O 0.1298(4) -0.4876(10) 0.6514(5)
H85 H 0.1341 -0.4316 0.6554
H86 H 0.1106 -0.5048 0.6772
O7 O 0.1508(4) -0.1088(9) 0.7280(5)
H87 H 0.1262 -0.0894 0.7145
H88 H 0.1636 -0.0677 0.7485
O8 O -0.2376(6) -0.3718(12) 0.6936(7)
H89 H -0.2242 -0.4220 0.6932
H90 H -0.2608 -0.3750 0.6717
O9 O 0.2204(4) -0.4645(11) 0.6747(5)
H91 H 0.2257 -0.5202 0.6709
H92 H 0.2447 -0.4356 0.6734
O10 O -0.0340(6) -0.2512(11) 0.6724(8)
H93 H -0.0532 -0.2365 0.6989
H94 H -0.0167 -0.2945 0.6641
O11 O 0.0426(4) -0.1385(7) 0.6714(5)
O12 O 0.4807(4) 0.6045(9) 0.1380(6)
H95 H 0.4908 0.5527 0.1298
H96 H 0.4532 0.6008 0.1462
O13 O 0.2767(4) 0.7302(13) 0.1529(7)
H97 H 0.2662 0.7623 0.1815
H98 H 0.2709 0.6752 0.1598
O14 O -0.19675(18) -0.0749(6) 0.7040(3)
O15 O 0.38323(13) 0.7290(3) 0.1350(2)
loop_
_geom_bond_atom_site_label_1
_geom_bond_atom_site_label_2
_geom_bond_site_symmetry_1
_geom_bond_site_symmetry_2
Cu1 Cl1 1_555 1_555
Cu2 Cl2 1_555 1_555
Cu3 Cl2 1_555 1_555
Cu4 Cl4 1_555 1_555
Cl3 Cu2 1_555 1_555
Cl5 Cu2 1_555 1_555
Cl6 Cu3 1_555 1_555
N1 C1 1_555 1_555
N2 Cu1 1_555 1_555
N3 C41 1_555 1_555
N4 C74 1_555 1_555
N5 C33 1_555 1_555
N6 C42 1_555 1_555
N7 Cu2 1_555 1_555
N8 Cu4 1_555 1_555
N9 Cu2 1_555 1_555
N10 Cu3 1_555 1_555
N11 C53 1_555 1_555
N12 C19 1_555 1_555
N13 Cu1 1_555 1_555
N14 C9 1_555 1_555
N15 Cu4 1_555 1_555
N16 C7 1_555 1_555
N17 C48 1_555 1_555
N18 Cu3 1_555 1_555
C1 C26 1_555 1_555
C2 C5 1_555 1_555
C3 N13 1_555 1_555
C4 C68 1_555 1_555
C5 C16 1_555 1_555
C6 H1 1_555 1_555
C7 N10 1_555 1_555
C8 C6 1_555 1_555
H2 C8 1_555 1_555
C9 C11 1_555 1_555
C10 H3 1_555 1_555
C11 N8 1_555 1_555
C12 N7 1_555 1_555
H4 C12 1_555 1_555
C13 N15 1_555 1_555
C14 H5 1_555 1_555
H6 C14 1_555 1_555
H7 C14 1_555 1_555
C15 H8 1_555 1_555
C16 H9 1_555 1_555
H10 C16 1_555 1_555
H11 C16 1_555 1_555
C17 H12 1_555 1_555
C18 H13 1_555 1_555
C19 H14 1_555 1_555
H15 C19 1_555 1_555
C20 H16 1_555 1_555
C21 N18 1_555 1_555
H17 C21 1_555 1_555
C22 C12 1_555 1_555
H18 C22 1_555 1_555
C23 H19 1_555 1_555
C24 H20 1_555 1_555
C25 N16 1_555 1_555
H21 C25 1_555 1_555
H22 C25 1_555 1_555
C26 C23 1_555 1_555
H23 C26 1_555 1_555
C27 C21 1_555 1_555
H24 C27 1_555 1_555
C28 C2 1_555 1_555
C29 H25 1_555 1_555
C30 H26 1_555 1_555
H27 C30 1_555 1_555
H28 C30 1_555 1_555
C31 C20 1_555 1_555
H29 C31 1_555 1_555
C32 C17 1_555 1_555
H30 C32 1_555 1_555
C33 C2 1_555 1_555
H31 C33 1_555 1_555
H32 C33 1_555 1_555
C34 C29 1_555 1_555
H33 C34 1_555 1_555
C35 H34 1_555 1_555
C36 H35 1_555 1_555
C37 H36 1_555 1_555
C38 C13 1_555 1_555
H37 C38 1_555 1_555
C39 H38 1_555 1_555
C40 N16 1_555 1_555
C41 C43 1_555 1_555
C42 N1 1_555 1_555
C43 C8 1_555 1_555
H39 C43 1_555 1_555
C44 N7 1_555 1_555
C45 N2 1_555 1_555
C46 N8 1_555 1_555
C47 C30 1_555 1_555
C48 N5 1_555 1_555
C49 N6 1_555 1_555
C50 N3 1_555 1_555
H40 C50 1_555 1_555
H41 C50 1_555 1_555
C51 C5 1_555 1_555
C52 N10 1_555 1_555
C53 H42 1_555 1_555
C54 C6 1_555 1_555
H43 C54 1_555 1_555
C55 C15 1_555 1_555
H44 C55 1_555 1_555
C56 C35 1_555 1_555
H45 C56 1_555 1_555
C57 C47 1_555 1_555
C58 N17 1_555 1_555
C59 N6 1_555 1_555
H46 C59 1_555 1_555
H47 C59 1_555 1_555
C60 N11 1_555 1_555
C61 N9 1_555 1_555
C62 N9 1_555 1_555
C63 N12 1_555 1_555
C64 N5 1_555 1_555
C65 C3 1_555 1_555
H48 C65 1_555 1_555
C66 C28 1_555 1_555
C67 N18 1_555 1_555
C68 C14 1_555 1_555
C69 C10 1_555 1_555
H49 C69 1_555 1_555
C70 N13 1_555 1_555
H50 C70 1_555 1_555
C71 C28 1_555 1_555
H51 C71 1_555 1_555
H52 C71 1_555 1_555
H53 C71 1_555 1_555
C72 N2 1_555 1_555
C73 C4 1_555 1_555
C74 C36 1_555 1_555
H54 C74 1_555 1_555
C75 C51 1_555 1_555
C76 C25 1_555 1_555
C77 N15 1_555 1_555
H55 C77 1_555 1_555
C78 N4 1_555 1_555
C79 C53 1_555 1_555
H56 C79 1_555 1_555
C80 C52 1_555 1_555
H57 C80 1_555 1_555
C81 C60 1_555 1_555
H58 C81 1_555 1_555
C82 C18 1_555 1_555
H59 C82 1_555 1_555
C83 C79 1_555 1_555
H60 C83 1_555 1_555
C84 C73 1_555 1_555
H61 C84 1_555 1_555
H62 C84 1_555 1_555
H63 C84 1_555 1_555
C85 C27 1_555 1_555
H64 C85 1_555 1_555
C86 C9 1_555 1_555
H65 C86 1_555 1_555
C87 N14 1_555 1_555
H66 C87 1_555 1_555
H67 C87 1_555 1_555
C88 C86 1_555 1_555
H68 C88 1_555 1_555
C89 C75 1_555 1_555
H69 C89 1_555 1_555
H70 C89 1_555 1_555
H71 C89 1_555 1_555
C90 C88 1_555 1_555
H72 C90 1_555 1_555
C91 C11 1_555 1_555
H73 C91 1_555 1_555
C92 C24 1_555 1_555
H74 C92 1_555 1_555
C93 C38 1_555 1_555
H75 C93 1_555 1_555
C94 C80 1_555 1_555
H76 C94 1_555 1_555
C95 C77 1_555 1_555
H77 C95 1_555 1_555
C96 C39 1_555 1_555
H78 C96 1_555 1_555
O2 H79 1_555 1_555
H80 O2 1_555 1_555
O4 H81 1_555 1_555
H82 O4 1_555 1_555
O5 H83 1_555 1_555
H84 O5 1_555 1_555
O6 H85 1_555 1_555
H86 O6 1_555 1_555
O7 H87 1_555 1_555
H88 O7 1_555 1_555
O8 H89 1_555 1_555
H90 O8 1_555 1_555
O9 H91 1_555 1_555
H92 O9 1_555 1_555
O10 H93 1_555 1_555
H94 O10 1_555 1_555
O12 H95 1_555 1_555
H96 O12 1_555 1_555
O13 H97 1_555 1_555
H98 O13 1_555 1_555
Cu1C N1 1_555 1_555
Cu4C N4 1_555 1_555
N1C Cu1 1_555 1_555
N4C Cu4 1_555 1_555
N11C Cu1 1_555 1_555
N17C Cu4 1_555 1_555
Cu3 Cl3 1_555 1_555
N3 C45 1_555 1_555
N11 Cu1C 1_555 1_555
N12 C62 1_555 1_555
N14 C46 1_555 1_555
N17 Cu4C 1_555 1_555
C1 C49 1_555 1_555
C3 C45 1_555 1_555
C4 C87 1_555 1_555
C7 C67 1_555 1_555
C10 C78 1_555 1_555
C13 C46 1_555 1_555
C15 C70 1_555 1_555
C17 C64 1_555 1_555
C18 C49 1_555 1_555
C19 C51 1_555 1_555
C20 C22 1_555 1_555
C23 C82 1_555 1_555
C24 C61 1_555 1_555
C29 C58 1_555 1_555
C31 C44 1_555 1_555
C32 C34 1_555 1_555
C35 C92 1_555 1_555
C36 C69 1_555 1_555
C37 C67 1_555 1_555
C37 C85 1_555 1_555
C39 C40 1_555 1_555
C40 C52 1_555 1_555
C41 C72 1_555 1_555
C42 C60 1_555 1_555
C44 C62 1_555 1_555
C47 C76 1_555 1_555
C48 C78 1_555 1_555
C50 C66 1_555 1_555
C54 C72 1_555 1_555
C55 C65 1_555 1_555
C56 C63 1_555 1_555
C57 C59 1_555 1_555
C57 C73 1_555 1_555
C58 C64 1_555 1_555
C61 C63 1_555 1_555
C66 C75 1_555 1_555
C68 C76 1_555 1_555
C81 C83 1_555 1_555
C90 C91 1_555 1_555
C93 C95 1_555 1_555
C94 C96 1_555 1_555

#END
