
#######################################################################
#
#                 Cambridge Crystallographic Data Centre
#                                CCDC 
#
#######################################################################
#
# If this CIF has been generated from an entry in the Cambridge 
# Structural Database, then it will include bibliographic, chemical, 
# crystal, experimental, refinement or atomic coordinate data resulting 
# from the CCDC's data processing and validation procedures.
#
#######################################################################

data_FOFKOC
_symmetry_cell_setting           monoclinic
_symmetry_space_group_name_H-M   'P 21/c'
_symmetry_Int_Tables_number      14
_space_group_name_Hall           '-P 2ybc'
loop_
_symmetry_equiv_pos_site_id
_symmetry_equiv_pos_as_xyz
1 x,y,z
2 -x,1/2+y,1/2-z
3 -x,-y,-z
4 x,1/2-y,1/2+z
_cell_length_a                   15.2845(4)
_cell_length_b                   7.0250(2)
_cell_length_c                   16.1105(5)
_cell_angle_alpha                90
_cell_angle_beta                 103.35
_cell_angle_gamma                90
_cell_volume                     1683.1
loop_
_atom_site_label
_atom_site_type_symbol
_atom_site_fract_x
_atom_site_fract_y
_atom_site_fract_z
Cd1 Cd 0.359455(9) 0.77381(2) 0.269949(8)
O1 O 0.48406(9) 0.6494(2) 0.36225(10)
O2 O 0.48357(9) 0.9613(2) 0.35792(9)
O3 O 0.64045(10) 0.8977(2) 0.27796(9)
O4 O 0.73386(9) 1.1200(2) 0.34367(8)
O5 O 0.93037(11) 0.7804(3) 0.60907(11)
O6 O 0.85952(10) 0.8152(3) 0.71394(9)
O7 O 0.43347(11) 0.8078(2) 0.15866(10)
H1 H 0.4612 0.9104 0.1535
H2 H 0.4597 0.7041 0.1520
O8 O 0.27794(10) 1.0412(2) 0.22124(10)
H3 H 0.2362 1.0597 0.2472
H4 H 0.3119 1.1352 0.2177
N1 N 0.02580(12) 0.6940(3) 0.32079(11)
H5 H -0.0235 0.6944 0.2821
N2 N -0.06242(14) 0.6910(4) 0.41903(14)
H6 H -0.0696 0.6899 0.4704
H7 H -0.1085 0.6932 0.3767
N3 N 0.09074(12) 0.6862(3) 0.46986(11)
N4 N 0.10272(12) 0.7001(3) 0.21321(11)
H8 H 0.0518 0.6992 0.1767
H9 H 0.1520 0.7026 0.1960
N5 N 0.27340(11) 0.7168(2) 0.36619(11)
N6 N 0.25214(12) 0.6943(3) 0.49770(11)
H10 H 0.2647 0.6856 0.5524
C1 C 0.02053(15) 0.6895(3) 0.40492(14)
C2 C 0.16859(14) 0.6914(3) 0.44505(13)
C3 C 0.18180(13) 0.7009(3) 0.36289(13)
C4 C 0.10522(13) 0.6978(3) 0.29528(13)
C5 C 0.31164(14) 0.7134(3) 0.44799(13)
H11 H 0.3734 0.7231 0.4695
C6 C 0.61143(13) 0.8051(3) 0.44657(12)
C7 C 0.68983(12) 0.8793(3) 0.42853(11)
C8 C 0.76970(12) 0.8743(3) 0.49051(12)
H12 H 0.8221 0.9202 0.4777
C9 C 0.77259(14) 0.8017(3) 0.57146(13)
C10 C 0.69376(15) 0.7335(3) 0.58978(13)
H13 H 0.6944 0.6885 0.6442
C11 C 0.61445(15) 0.7321(3) 0.52766(14)
H14 H 0.5626 0.6820 0.5401
C12 C 0.52152(13) 0.8078(3) 0.38347(12)
C13 C 0.68836(12) 0.9685(3) 0.34368(12)
C14 C 0.86102(14) 0.7991(3) 0.63612(13)
Cd1A Cd 0.640545(9) 1.27381(2) 0.230051(8)
O3A O 0.35955(10) 0.3977(2) 0.22204(9)
O4A O 0.26614(9) 0.6200(2) 0.15633(8)
loop_
_geom_bond_atom_site_label_1
_geom_bond_atom_site_label_2
_geom_bond_site_symmetry_1
_geom_bond_site_symmetry_2
Cd1 O1 1_555 1_555
O1 C12 1_555 1_555
O2 Cd1 1_555 1_555
O3 C13 1_555 1_555
O4 C13 1_555 1_555
O5 C14 1_555 1_555
O6 C14 1_555 1_555
O7 Cd1 1_555 1_555
H1 O7 1_555 1_555
H2 O7 1_555 1_555
O8 Cd1 1_555 1_555
H3 O8 1_555 1_555
H4 O8 1_555 1_555
N1 H5 1_555 1_555
N2 H6 1_555 1_555
H7 N2 1_555 1_555
N3 C1 1_555 1_555
N4 H8 1_555 1_555
H9 N4 1_555 1_555
N5 Cd1 1_555 1_555
N6 H10 1_555 1_555
C1 N1 1_555 1_555
C2 N3 1_555 1_555
C3 N5 1_555 1_555
C4 N1 1_555 1_555
C5 N5 1_555 1_555
H11 C5 1_555 1_555
C6 C7 1_555 1_555
C7 C8 1_555 1_555
C8 H12 1_555 1_555
C9 C8 1_555 1_555
C10 C9 1_555 1_555
H13 C10 1_555 1_555
C11 C6 1_555 1_555
H14 C11 1_555 1_555
C12 O2 1_555 1_555
C13 C7 1_555 1_555
C14 C9 1_555 1_555
Cd1A O3 1_555 1_555
O3A Cd1 1_555 1_555
O4A Cd1 1_555 1_555
O4 Cd1A 1_555 1_555
N2 C1 1_555 1_555
N4 C4 1_555 1_555
N6 C2 1_555 1_555
N6 C5 1_555 1_555
C2 C3 1_555 1_555
C3 C4 1_555 1_555
C6 C12 1_555 1_555
C10 C11 1_555 1_555

#END
