
#######################################################################
#
#                 Cambridge Crystallographic Data Centre
#                                CCDC 
#
#######################################################################
#
# If this CIF has been generated from an entry in the Cambridge 
# Structural Database, then it will include bibliographic, chemical, 
# crystal, experimental, refinement or atomic coordinate data resulting 
# from the CCDC's data processing and validation procedures.
#
#######################################################################

data_FOFMOE
_symmetry_cell_setting           monoclinic
_symmetry_space_group_name_H-M   'P 21'
_symmetry_Int_Tables_number      4
_space_group_name_Hall           'P 2yb'
loop_
_symmetry_equiv_pos_site_id
_symmetry_equiv_pos_as_xyz
1 x,y,z
2 -x,1/2+y,-z
_cell_length_a                   9.1427(7)
_cell_length_b                   24.503(2)
_cell_length_c                   24.588(2)
_cell_angle_alpha                90
_cell_angle_beta                 91.0890(10)
_cell_angle_gamma                90
_cell_volume                     5507.3
loop_
_atom_site_label
_atom_site_type_symbol
_atom_site_fract_x
_atom_site_fract_y
_atom_site_fract_z
C1 C 1.1495(16) 0.8481(5) 1.0164(5)
C2 C 1.1932(14) 0.8229(6) 1.1027(6)
C3 C 1.1035(14) 0.7613(5) 1.0436(6)
C4 C 1.1454(15) 0.8688(5) 0.9166(5)
H1 H 1.2427 0.8618 0.9033
H2 H 1.0895 0.8353 0.9139
C5 C 1.0748(15) 0.9110(6) 0.8833(5)
H3 H 0.9737 0.9158 0.8949
C6 C 1.1577(15) 0.9651(6) 0.8906(5)
H4 H 1.2556 0.9615 0.8764
H5 H 1.1075 0.9937 0.8704
C7 C 1.1663(15) 0.9798(6) 0.9495(5)
H6 H 1.2232 1.0130 0.9536
H7 H 1.0683 0.9874 0.9620
C8 C 1.2307(17) 0.9382(6) 0.9838(6)
H8 H 1.2233 0.9487 1.0217
H9 H 1.3336 0.9342 0.9756
C9 C 1.0744(12) 0.8925(5) 0.8239(5)
C10 C 1.2918(15) 0.8931(6) 1.1664(5)
H10 H 1.3885 0.8957 1.1832
H11 H 1.2883 0.9164 1.1346
C11 C 1.1785(14) 0.9097(6) 1.2055(6)
H12 H 1.0836 0.9065 1.1866
C12 C 1.1732(17) 0.8742(5) 1.2541(6)
H13 H 1.0930 0.8857 1.2767
H14 H 1.2633 0.8783 1.2752
C13 C 1.1531(18) 0.8151(6) 1.2390(6)
H15 H 1.0541 0.8095 1.2252
H16 H 1.1669 0.7926 1.2711
C14 C 1.2611(16) 0.7977(6) 1.1959(6)
H17 H 1.3589 0.7963 1.2119
H18 H 1.2362 0.7615 1.1829
C15 C 1.1991(15) 0.9700(6) 1.2200(6)
C16 C 1.0124(17) 0.6715(5) 1.0771(6)
H19 H 0.9078 0.6679 1.0821
H20 H 1.0571 0.6833 1.1112
C17 C 1.0768(16) 0.6178(6) 1.0596(6)
H21 H 1.0560 0.5903 1.0867
H22 H 1.1822 0.6214 1.0576
C18 C 1.0162(15) 0.5990(6) 1.0046(5)
H23 H 1.0615 0.5648 0.9946
H24 H 0.9116 0.5932 1.0068
C19 C 1.0468(15) 0.6418(6) 0.9619(6)
H25 H 1.1533 0.6462 0.9616
C20 C 0.9831(14) 0.6981(5) 0.9784(5)
H26 H 1.0108 0.7257 0.9523
H27 H 0.8772 0.6963 0.9791
C21 C 1.0000(15) 0.6271(6) 0.9040(6)
C22 C 0.4555(14) 1.1551(5) 0.9029(5)
C23 C 0.3915(16) 1.2220(6) 0.9577(6)
C24 C 0.5057(16) 1.1492(6) 0.9948(5)
C25 C 0.5449(15) 1.0825(6) 0.8437(5)
H28 H 0.5772 1.0665 0.8779
H29 H 0.6307 1.0905 0.8225
C26 C 0.4472(16) 1.0423(6) 0.8128(5)
H30 H 0.3580 1.0360 0.8334
C27 C 0.4064(15) 1.0698(6) 0.7581(5)
H31 H 0.3434 1.0457 0.7369
H32 H 0.4944 1.0763 0.7377
C28 C 0.3261(15) 1.1251(6) 0.7679(5)
H33 H 0.3118 1.1441 0.7336
H34 H 0.2308 1.1183 0.7832
C29 C 0.4139(14) 1.1587(5) 0.8053(4)
H35 H 0.4986 1.1718 0.7860
H36 H 0.3563 1.1904 0.8150
C30 C 0.5268(17) 0.9885(5) 0.8055(6)
C31 C 0.2636(19) 1.3019(6) 0.9161(6)
H37 H 0.2907 1.2831 0.8831
H38 H 0.1578 1.3021 0.9180
C32 C 0.3186(16) 1.3577(7) 0.9153(6)
H39 H 0.2724 1.3770 0.8850
H40 H 0.4230 1.3569 0.9089
C33 C 0.2913(15) 1.3897(7) 0.9679(6)
H41 H 0.1874 1.3918 0.9748
H42 H 0.3298 1.4265 0.9652
C34 C 0.3712(14) 1.3581(6) 1.0141(5)
H43 H 0.4761 1.3564 1.0069
C35 C 0.3066(14) 1.2999(5) 1.0150(5)
H44 H 0.3535 1.2790 1.0440
H45 H 0.2028 1.3018 1.0223
C36 C 0.3456(16) 1.3904(7) 1.0675(6)
C37 C 0.5187(18) 1.1322(6) 1.0891(6)
H46 H 0.4857 1.1698 1.0897
H47 H 0.6065 1.1301 1.1118
C38 C 0.4041(15) 1.0979(6) 1.1149(5)
H48 H 0.3083 1.1089 1.1002
C39 C 0.4289(18) 1.0364(7) 1.1010(6)
H49 H 0.5027 1.0217 1.1258
H50 H 0.3387 1.0166 1.1068
C40 C 0.4753(17) 1.0275(7) 1.0450(6)
H51 H 0.3921 1.0334 1.0206
H52 H 0.5052 0.9897 1.0412
C41 C 0.5988(17) 1.0637(6) 1.0278(6)
H53 H 0.6859 1.0557 1.0495
H54 H 0.6205 1.0570 0.9899
C42 C 0.3990(13) 1.0998(6) 1.1768(5)
C43 C 0.5650(15) 0.8118(5) 0.4981(5)
C44 C 0.6373(18) 0.7309(6) 0.4633(6)
C45 C 0.6102(15) 0.8043(6) 0.4101(5)
C46 C 0.5043(14) 0.9029(5) 0.5331(6)
H55 H 0.4753 0.9115 0.4960
H56 H 0.4297 0.9167 0.5570
C47 C 0.6452(15) 0.9292(6) 0.5464(5)
H57 H 0.6372 0.9684 0.5418
H58 H 0.7203 0.9159 0.5224
C48 C 0.6865(15) 0.9150(6) 0.6074(6)
H59 H 0.7836 0.9291 0.6157
H60 H 0.6185 0.9334 0.6310
C49 C 0.6841(17) 0.8536(6) 0.6200(6)
H61 H 0.7688 0.8361 0.6034
C50 C 0.5390(17) 0.8268(7) 0.5962(6)
H62 H 0.5460 0.7873 0.5987
H63 H 0.4562 0.8385 0.6173
C51 C 0.6995(14) 0.8505(6) 0.6784(5)
C52 C 0.6711(17) 0.6495(6) 0.5229(5)
H64 H 0.7644 0.6328 0.5324
H65 H 0.6472 0.6752 0.5514
C53 C 0.5593(18) 0.6077(6) 0.5195(5)
H66 H 0.4643 0.6257 0.5147
C54 C 0.5814(17) 0.5686(6) 0.4700(5)
H67 H 0.4977 0.5445 0.4661
H68 H 0.6679 0.5464 0.4763
C55 C 0.5991(16) 0.6030(6) 0.4167(5)
H69 H 0.6244 0.5792 0.3868
H70 H 0.5076 0.6211 0.4074
C56 C 0.7193(17) 0.6454(6) 0.4258(6)
H71 H 0.8117 0.6271 0.4333
H72 H 0.7299 0.6673 0.3933
C57 C 0.5527(16) 0.5717(7) 0.5699(5)
C58 C 0.6517(16) 0.7956(6) 0.3138(5)
H73 H 0.5612 0.7868 0.2946
H74 H 0.6987 0.7617 0.3246
C59 C 0.7520(17) 0.8276(6) 0.2762(6)
H75 H 0.8468 0.8325 0.2939
H76 H 0.7663 0.8069 0.2431
C60 C 0.6874(15) 0.8826(7) 0.2623(5)
H77 H 0.5964 0.8776 0.2420
H78 H 0.7543 0.9025 0.2394
C61 C 0.6582(15) 0.9162(6) 0.3137(5)
H79 H 0.7518 0.9236 0.3323
C62 C 0.5616(15) 0.8810(6) 0.3520(6)
H80 H 0.5547 0.8990 0.3869
H81 H 0.4636 0.8782 0.3364
C63 C 0.5844(14) 0.9688(6) 0.3018(5)
C64 C -0.0917(17) 1.1049(6) 0.5104(6)
C65 C -0.0780(18) 1.1915(6) 0.5367(5)
C66 C -0.1474(17) 1.1260(6) 0.5957(6)
C67 C -0.0738(16) 1.0854(6) 0.4129(6)
H82 H -0.1702 1.0819 0.3960
H83 H -0.0449 1.1234 0.4110
C68 C 0.0313(14) 1.0516(6) 0.3833(5)
H84 H 0.1288 1.0570 0.3996
C69 C -0.0093(17) 0.9891(6) 0.3870(6)
H85 H -0.1040 0.9825 0.3698
H86 H 0.0633 0.9672 0.3688
C70 C -0.0132(16) 0.9749(6) 0.4461(5)
H87 H -0.0458 0.9375 0.4499
H88 H 0.0850 0.9774 0.4616
C71 C -0.1113(13) 1.0111(6) 0.4767(5)
H89 H -0.2115 1.0044 0.4648
H90 H -0.1038 1.0020 0.5151
C72 C 0.0379(13) 1.0645(6) 0.3220(5)
C73 C -0.0085(16) 1.2628(6) 0.4731(5)
H91 H -0.0142 1.2324 0.4480
H92 H 0.0897 1.2777 0.4723
C74 C -0.1179(15) 1.3060(6) 0.4565(5)
H93 H -0.2145 1.2887 0.4552
C75 C -0.1252(16) 1.3510(6) 0.4954(5)
H94 H -0.2038 1.3756 0.4849
H95 H -0.0342 1.3713 0.4953
C76 C -0.1526(17) 1.3282(6) 0.5541(5)
H96 H -0.1440 1.3578 0.5802
H97 H -0.2512 1.3138 0.5557
C77 C -0.0464(16) 1.2845(6) 0.5689(6)
H98 H 0.0499 1.3004 0.5744
H99 H -0.0751 1.2676 0.6027
C78 C -0.0849(15) 1.3267(6) 0.3970(6)
C79 C -0.2116(15) 1.0539(5) 0.6611(5)
H100 H -0.2093 1.0304 0.6294
H101 H -0.3038 1.0480 0.6791
C80 C -0.0881(16) 1.0398(6) 0.6989(6)
H102 H 0.0052 1.0453 0.6807
C81 C -0.0976(16) 1.0780(6) 0.7483(5)
H103 H -0.1890 1.0717 0.7667
H104 H -0.0181 1.0699 0.7738
C82 C -0.0890(19) 1.1360(7) 0.7313(6)
H105 H 0.0073 1.1436 0.7173
H106 H -0.1041 1.1595 0.7625
C83 C -0.2058(14) 1.1479(6) 0.6874(5)
H107 H -0.3017 1.1460 0.7034
H108 H -0.1923 1.1847 0.6739
C84 C -0.1044(14) 0.9814(5) 0.7142(5)
C85 C 0.4391(16) 1.2075(7) 0.2964(5)
H109 H 0.3900 1.2404 0.2915
C86 C 0.6942(15) 0.7564(6) 0.8280(6)
H110 H 0.7521 0.7258 0.8348
Gd1 Gd 1.08031(6) 0.85996(8) 0.70944(2)
Gd2 Gd 0.69650(7) 0.88953(8) 0.79039(2)
Gd3 Gd 0.40866(7) 1.06615(8) 0.28767(2)
Gd4 Gd 0.01872(6) 1.09213(8) 0.20519(2)
N1 N 1.1921(12) 0.8643(5) 1.0656(4)
N2 N 1.1499(13) 0.7730(5) 1.0951(5)
N3 N 1.1076(13) 0.7964(5) 1.0015(5)
N4 N 1.1555(12) 0.8864(5) 0.9747(4)
N5 N 1.2591(13) 0.8352(5) 1.1509(5)
N6 N 1.0426(13) 0.7119(4) 1.0331(4)
N7 N 0.3921(14) 1.2019(5) 0.9081(5)
N8 N 0.4449(12) 1.1987(5) 1.0036(4)
N9 N 0.5079(13) 1.1246(5) 0.9465(4)
N10 N 0.4636(13) 1.1332(5) 0.8540(5)
N11 N 0.3275(13) 1.2730(5) 0.9644(5)
N12 N 0.5579(13) 1.1195(5) 1.0349(4)
N13 N 0.5966(14) 0.7586(5) 0.5078(5)
N14 N 0.6544(15) 0.7509(5) 0.4135(6)
N15 N 0.5690(13) 0.8361(5) 0.4481(5)
N16 N 0.5168(13) 0.8428(5) 0.5394(5)
N17 N 0.6839(12) 0.6793(5) 0.4700(4)
N18 N 0.6212(13) 0.8265(5) 0.3599(4)
N19 N -0.0689(12) 1.1570(5) 0.4965(4)
N20 N -0.1194(13) 1.1793(5) 0.5879(4)
N21 N -0.1305(16) 1.0867(6) 0.5584(5)
N22 N -0.0794(12) 1.0680(5) 0.4701(4)
N23 N -0.0407(16) 1.2445(5) 0.5276(5)
N24 N -0.2001(14) 1.1116(5) 0.6441(5)
O1 O 0.9464(10) 0.8889(5) 0.8004(4)
O2 O 1.1892(10) 0.8830(5) 0.8011(4)
O3 O 1.1024(11) 1.0031(5) 1.2032(4)
O4 O 1.3130(10) 0.9846(4) 1.2452(4)
O5 O 0.9909(11) 0.5763(4) 0.8924(4)
O6 O 0.9753(11) 0.6615(4) 0.8696(4)
O7 O 0.6285(11) 0.9737(4) 0.8376(4)
O8 O 0.4945(11) 0.9563(4) 0.7657(4)
O9 O 0.4041(10) 1.4371(4) 1.0662(4)
H111 H 0.3889 1.4532 1.0948
O10 O 0.2785(9) 1.3731(3) 1.1049(3)
O11 O 0.2750(10) 1.0998(5) 1.1983(4)
O12 O 0.5089(10) 1.0964(6) 1.2042(3)
O13 O 0.5886(10) 0.8533(6) 0.7084(4)
O14 O 0.8191(9) 0.8511(4) 0.7021(4)
O15 O 0.6099(10) 0.5847(4) 0.6104(4)
O16 O 0.4795(10) 0.5284(4) 0.5653(4)
H112 H 0.4822 0.5118 0.5943
O17 O 0.6118(10) 0.9969(4) 0.2634(4)
O18 O 0.5001(11) 0.9894(4) 0.3382(3)
O19 O 0.1569(9) 1.0712(4) 0.2992(3)
O20 O -0.0804(9) 1.0688(6) 0.2964(4)
O21 O -0.0582(9) 1.2909(4) 0.3631(4)
O22 O -0.0870(11) 1.3752(4) 0.3865(4)
O23 O -0.2140(10) 0.9645(4) 0.7391(4)
O24 O 0.0006(10) 0.9492(4) 0.7016(4)
O25 O 0.3667(10) 1.1622(4) 0.2938(4)
O26 O 0.5776(11) 1.2077(4) 0.3057(4)
O27 O 0.7545(10) 0.7961(4) 0.8046(4)
O28 O 0.5688(11) 0.7540(4) 0.8424(4)
O29 O 1.2886(11) 0.9198(4) 0.6892(4)
H113 H 1.3766 0.8985 0.6878
H114 H 1.2980 0.9465 0.7177
O30 O 1.3065(9) 0.8082(4) 0.7105(4)
H115 H 1.2840 0.7700 0.7127
H116 H 1.3635 0.8189 0.7419
O31 O 1.0243(10) 0.7801(4) 0.7628(4)
H117 H 1.0781 0.7494 0.7494
H118 H 0.9560 0.7897 0.7904
O32 O 0.4723(9) 0.8553(4) 0.8267(4)
H119 H 0.4934 0.8334 0.8582
H120 H 0.4125 0.8858 0.8368
O33 O 0.0803(11) 1.1730(4) 0.2561(4)
H121 H 0.1583 1.1649 0.2815
H122 H 0.1108 1.2013 0.2318
O34 O -0.2052(10) 1.1408(4) 0.2094(4)
H123 H -0.2343 1.1513 0.1731
H124 H -0.1932 1.1729 0.2314
O35 O -0.1889(10) 1.0284(4) 0.1847(4)
H125 H -0.2778 1.0490 0.1805
H126 H -0.1982 1.0031 0.2142
O36 O 0.6372(10) 1.1031(4) 0.3201(4)
H127 H 0.7200 1.0862 0.3035
H128 H 0.6335 1.1410 0.3103
Gd1_2 Gd 0.08031(6) 0.85996(8) 0.70944(2)
Gd1A Gd -0.08031(6) 1.35996(8) 0.29056(2)
Gd2_2 Gd -0.30350(7) 0.88953(8) 0.79039(2)
Gd2A Gd 0.30350(7) 1.38953(8) 1.20961(2)
Gd3_2 Gd 0.40866(7) 1.06615(8) 1.28767(2)
Gd3_3 Gd 1.40866(7) 1.06615(8) 1.28767(2)
Gd3A Gd 0.59134(7) 0.56615(8) 0.71233(2)
Gd4_2 Gd 0.01872(6) 1.09213(8) 1.20519(2)
Gd4_3 Gd 1.01872(6) 1.09213(8) 1.20519(2)
Gd4A Gd 0.98128(6) 0.59213(8) 0.79481(2)
O3_2 O 0.1024(11) 1.0031(5) 0.2032(4)
O4_2 O 0.3130(10) 0.9846(4) 0.2452(4)
O5A O 0.0091(11) 1.0763(4) 0.1076(4)
O6A O 0.0247(11) 1.1615(4) 0.1304(4)
O10A O 0.7215(9) 0.8731(3) 0.8951(3)
O11_2 O 0.2750(10) 1.0998(5) 0.1983(4)
O12_2 O 0.5089(10) 1.0964(6) 0.2042(3)
O15A O 0.3901(10) 1.0847(4) 0.3896(4)
O21A O 1.0582(9) 0.7909(4) 0.6369(4)
O22A O 1.0870(11) 0.8752(4) 0.6135(4)
O23_2 O 0.7860(10) 0.9645(4) 0.7391(4)
O24_2 O 1.0006(10) 0.9492(4) 0.7016(4)
O37 O 0.9399(11) 0.9650(5) 0.0927(4)
H129 H 0.9175 0.9931 0.0739
H130 H 1.0265 0.9744 0.1140
O38 O 0.2520(11) 0.7434(4) 0.8302(4)
H131 H 0.3241 0.7319 0.8122
H132 H 0.2222 0.7735 0.8169
O39 O 0.8271(12) 0.4822(5) 0.4059(4)
H133 H 0.8142 0.4486 0.4131
H134 H 0.9004 0.4856 0.3854
O40 O 0.3337(13) 0.7576(5) 0.9325(5)
H135 H 0.3052 0.7327 0.9540
H136 H 0.3324 0.7455 0.9001
loop_
_geom_bond_atom_site_label_1
_geom_bond_atom_site_label_2
_geom_bond_site_symmetry_1
_geom_bond_site_symmetry_2
C1 N1 1_555 1_555
C2 N1 1_555 1_555
C3 N2 1_555 1_555
C4 H1 1_555 1_555
H2 C4 1_555 1_555
C5 C4 1_555 1_555
H3 C5 1_555 1_555
C6 C5 1_555 1_555
H4 C6 1_555 1_555
H5 C6 1_555 1_555
C7 C6 1_555 1_555
H6 C7 1_555 1_555
H7 C7 1_555 1_555
C8 C7 1_555 1_555
H8 C8 1_555 1_555
H9 C8 1_555 1_555
C9 C5 1_555 1_555
C10 H10 1_555 1_555
H11 C10 1_555 1_555
C11 C10 1_555 1_555
H12 C11 1_555 1_555
C12 C11 1_555 1_555
H13 C12 1_555 1_555
H14 C12 1_555 1_555
C13 C12 1_555 1_555
H15 C13 1_555 1_555
H16 C13 1_555 1_555
C14 C13 1_555 1_555
H17 C14 1_555 1_555
H18 C14 1_555 1_555
C15 C11 1_555 1_555
C16 H19 1_555 1_555
H20 C16 1_555 1_555
C17 C16 1_555 1_555
H21 C17 1_555 1_555
H22 C17 1_555 1_555
C18 C17 1_555 1_555
H23 C18 1_555 1_555
H24 C18 1_555 1_555
C19 C18 1_555 1_555
H25 C19 1_555 1_555
C20 C19 1_555 1_555
H26 C20 1_555 1_555
H27 C20 1_555 1_555
C21 C19 1_555 1_555
C22 N7 1_555 1_555
C23 N7 1_555 1_555
C24 N8 1_555 1_555
C25 H28 1_555 1_555
H29 C25 1_555 1_555
C26 C25 1_555 1_555
H30 C26 1_555 1_555
C27 C26 1_555 1_555
H31 C27 1_555 1_555
H32 C27 1_555 1_555
C28 C27 1_555 1_555
H33 C28 1_555 1_555
H34 C28 1_555 1_555
C29 C28 1_555 1_555
H35 C29 1_555 1_555
H36 C29 1_555 1_555
C30 C26 1_555 1_555
C31 H37 1_555 1_555
H38 C31 1_555 1_555
C32 C31 1_555 1_555
H39 C32 1_555 1_555
H40 C32 1_555 1_555
C33 C32 1_555 1_555
H41 C33 1_555 1_555
H42 C33 1_555 1_555
C34 C33 1_555 1_555
H43 C34 1_555 1_555
C35 C34 1_555 1_555
H44 C35 1_555 1_555
H45 C35 1_555 1_555
C36 C34 1_555 1_555
C37 H46 1_555 1_555
H47 C37 1_555 1_555
C38 C37 1_555 1_555
H48 C38 1_555 1_555
C39 C38 1_555 1_555
H49 C39 1_555 1_555
H50 C39 1_555 1_555
C40 C39 1_555 1_555
H51 C40 1_555 1_555
H52 C40 1_555 1_555
C41 C40 1_555 1_555
H53 C41 1_555 1_555
H54 C41 1_555 1_555
C42 C38 1_555 1_555
C43 N13 1_555 1_555
C44 N13 1_555 1_555
C45 N14 1_555 1_555
C46 H55 1_555 1_555
H56 C46 1_555 1_555
C47 C46 1_555 1_555
H57 C47 1_555 1_555
H58 C47 1_555 1_555
C48 C47 1_555 1_555
H59 C48 1_555 1_555
H60 C48 1_555 1_555
C49 C48 1_555 1_555
H61 C49 1_555 1_555
C50 C49 1_555 1_555
H62 C50 1_555 1_555
H63 C50 1_555 1_555
C51 C49 1_555 1_555
C52 H64 1_555 1_555
H65 C52 1_555 1_555
C53 C52 1_555 1_555
H66 C53 1_555 1_555
C54 C53 1_555 1_555
H67 C54 1_555 1_555
H68 C54 1_555 1_555
C55 C54 1_555 1_555
H69 C55 1_555 1_555
H70 C55 1_555 1_555
C56 C55 1_555 1_555
H71 C56 1_555 1_555
H72 C56 1_555 1_555
C57 C53 1_555 1_555
C58 H73 1_555 1_555
H74 C58 1_555 1_555
C59 C58 1_555 1_555
H75 C59 1_555 1_555
H76 C59 1_555 1_555
C60 C59 1_555 1_555
H77 C60 1_555 1_555
H78 C60 1_555 1_555
C61 C60 1_555 1_555
H79 C61 1_555 1_555
C62 C61 1_555 1_555
H80 C62 1_555 1_555
H81 C62 1_555 1_555
C63 C61 1_555 1_555
C64 N19 1_555 1_555
C65 N19 1_555 1_555
C66 N20 1_555 1_555
C67 H82 1_555 1_555
H83 C67 1_555 1_555
C68 C67 1_555 1_555
H84 C68 1_555 1_555
C69 C68 1_555 1_555
H85 C69 1_555 1_555
H86 C69 1_555 1_555
C70 C69 1_555 1_555
H87 C70 1_555 1_555
H88 C70 1_555 1_555
C71 C70 1_555 1_555
H89 C71 1_555 1_555
H90 C71 1_555 1_555
C72 C68 1_555 1_555
C73 H91 1_555 1_555
H92 C73 1_555 1_555
C74 C73 1_555 1_555
H93 C74 1_555 1_555
C75 C74 1_555 1_555
H94 C75 1_555 1_555
H95 C75 1_555 1_555
C76 C75 1_555 1_555
H96 C76 1_555 1_555
H97 C76 1_555 1_555
C77 C76 1_555 1_555
H98 C77 1_555 1_555
H99 C77 1_555 1_555
C78 C74 1_555 1_555
C79 H100 1_555 1_555
H101 C79 1_555 1_555
C80 C79 1_555 1_555
H102 C80 1_555 1_555
C81 C80 1_555 1_555
H103 C81 1_555 1_555
H104 C81 1_555 1_555
C82 C81 1_555 1_555
H105 C82 1_555 1_555
H106 C82 1_555 1_555
C83 C82 1_555 1_555
H107 C83 1_555 1_555
H108 C83 1_555 1_555
C84 C80 1_555 1_555
C85 H109 1_555 1_555
C86 H110 1_555 1_555
Gd1 O1 1_555 1_555
Gd2 O1 1_555 1_555
Gd3 O17 1_555 1_555
Gd4 O19 1_555 1_555
N2 C2 1_555 1_555
N3 C1 1_555 1_555
N4 C1 1_555 1_555
N5 C2 1_555 1_555
N6 C3 1_555 1_555
N8 C23 1_555 1_555
N9 C22 1_555 1_555
N10 C22 1_555 1_555
N11 C23 1_555 1_555
N12 C24 1_555 1_555
N14 C44 1_555 1_555
N15 C43 1_555 1_555
N16 C43 1_555 1_555
N17 C44 1_555 1_555
N18 C45 1_555 1_555
N20 C65 1_555 1_555
N21 C64 1_555 1_555
N22 C64 1_555 1_555
N23 C65 1_555 1_555
N24 C66 1_555 1_555
O1 C9 1_555 1_555
O2 C9 1_555 1_555
O3 C15 1_555 1_555
O4 C15 1_555 1_555
O5 C21 1_555 1_555
O6 C21 1_555 1_555
O7 C30 1_555 1_555
O8 C30 1_555 1_555
O9 C36 1_555 1_555
H111 O9 1_555 1_555
O10 C36 1_555 1_555
O11 C42 1_555 1_555
O12 C42 1_555 1_555
O13 C51 1_555 1_555
O14 C51 1_555 1_555
O15 C57 1_555 1_555
O16 C57 1_555 1_555
H112 O16 1_555 1_555
O17 C63 1_555 1_555
O18 C63 1_555 1_555
O19 C72 1_555 1_555
O20 C72 1_555 1_555
O21 C78 1_555 1_555
O22 C78 1_555 1_555
O23 C84 1_555 1_555
O24 C84 1_555 1_555
O25 C85 1_555 1_555
O26 C85 1_555 1_555
O27 C86 1_555 1_555
O28 C86 1_555 1_555
O29 Gd1 1_555 1_555
H113 O29 1_555 1_555
H114 O29 1_555 1_555
O30 Gd1 1_555 1_555
H115 O30 1_555 1_555
H116 O30 1_555 1_555
O31 Gd1 1_555 1_555
H117 O31 1_555 1_555
H118 O31 1_555 1_555
O32 Gd2 1_555 1_555
H119 O32 1_555 1_555
H120 O32 1_555 1_555
O33 Gd4 1_555 1_555
H121 O33 1_555 1_555
H122 O33 1_555 1_555
O34 Gd4 1_555 1_555
H123 O34 1_555 1_555
H124 O34 1_555 1_555
O35 Gd4 1_555 1_555
H125 O35 1_555 1_555
H126 O35 1_555 1_555
O36 Gd3 1_555 1_555
H127 O36 1_555 1_555
H128 O36 1_555 1_555
O37 H129 1_555 1_555
H130 O37 1_555 1_555
O38 H131 1_555 1_555
H132 O38 1_555 1_555
O39 H133 1_555 1_555
H134 O39 1_555 1_555
O40 H135 1_555 1_555
H136 O40 1_555 1_555
Gd1_2 O24 1_555 1_555
Gd1A O21 1_555 1_555
Gd2_2 O23 1_555 1_555
Gd2A O10 1_555 1_555
Gd3_2 O11 1_555 1_555
Gd3_3 O4 1_555 1_555
Gd3A O15 1_555 1_555
Gd4_2 O11 1_555 1_555
Gd4_3 O3 1_555 1_555
Gd4A O5 1_555 1_555
O3_2 Gd4 1_555 1_555
O4_2 Gd3 1_555 1_555
O5A Gd4 1_555 1_555
O6A Gd4 1_555 1_555
O10A Gd2 1_555 1_555
O11_2 Gd3 1_555 1_555
O12_2 Gd3 1_555 1_555
O15A Gd3 1_555 1_555
O21A Gd1 1_555 1_555
O22A Gd1 1_555 1_555
O23_2 Gd2 1_555 1_555
O24_2 Gd1 1_555 1_555
C3 N3 1_555 1_555
C4 N4 1_555 1_555
C8 N4 1_555 1_555
C10 N5 1_555 1_555
C14 N5 1_555 1_555
C16 N6 1_555 1_555
C20 N6 1_555 1_555
C24 N9 1_555 1_555
C25 N10 1_555 1_555
C29 N10 1_555 1_555
C31 N11 1_555 1_555
C35 N11 1_555 1_555
C37 N12 1_555 1_555
C41 N12 1_555 1_555
C45 N15 1_555 1_555
C46 N16 1_555 1_555
C50 N16 1_555 1_555
C52 N17 1_555 1_555
C56 N17 1_555 1_555
C58 N18 1_555 1_555
C62 N18 1_555 1_555
C66 N21 1_555 1_555
C67 N22 1_555 1_555
C71 N22 1_555 1_555
C73 N23 1_555 1_555
C77 N23 1_555 1_555
C79 N24 1_555 1_555
C83 N24 1_555 1_555
Gd1 O2 1_555 1_555
Gd1 O14 1_555 1_555
Gd2 O7 1_555 1_555
Gd2 O8 1_555 1_555
Gd2 O13 1_555 1_555
Gd2 O14 1_555 1_555
Gd2 O27 1_555 1_555
Gd3 O18 1_555 1_555
Gd3 O19 1_555 1_555
Gd3 O25 1_555 1_555
Gd4 O20 1_555 1_555
Gd4 O11_2 1_555 1_555
O6 Gd4A 1_555 1_555
O12 Gd3_2 1_555 1_555
O22 Gd1A 1_555 1_555

#END
