
#######################################################################
#
#                 Cambridge Crystallographic Data Centre
#                                CCDC 
#
#######################################################################
#
# If this CIF has been generated from an entry in the Cambridge 
# Structural Database, then it will include bibliographic, chemical, 
# crystal, experimental, refinement or atomic coordinate data resulting 
# from the CCDC's data processing and validation procedures.
#
#######################################################################

data_FOFPUN
_symmetry_cell_setting           monoclinic
_symmetry_space_group_name_H-M   'C 2/c'
_symmetry_Int_Tables_number      15
_space_group_name_Hall           '-C 2yn'
loop_
_symmetry_equiv_pos_site_id
_symmetry_equiv_pos_as_xyz
1 x,y,z
2 -x,y,1/2-z
3 1/2+x,1/2+y,z
4 1/2-x,1/2+y,1/2-z
5 -x,-y,-z
6 x,-y,1/2+z
7 1/2-x,1/2-y,-z
8 1/2+x,1/2-y,1/2+z
_cell_length_a                   14.7637(12)
_cell_length_b                   20.5458(15)
_cell_length_c                   9.5211(8)
_cell_angle_alpha                90
_cell_angle_beta                 107.412(9)
_cell_angle_gamma                90
_cell_volume                     2755.72
loop_
_atom_site_label
_atom_site_type_symbol
_atom_site_fract_x
_atom_site_fract_y
_atom_site_fract_z
Fe1 Fe 0.0000 0.172311(16) -0.7500
K1 K 0.0000 0.12581(3) -0.2500
O1 O -0.10406(10) 0.23951(7) -0.79960(14)
O2 O -0.18479(13) 0.30368(9) -0.69047(18)
O3 O -0.10988(10) 0.23290(7) -0.43558(15)
O4 O -0.02407(9) 0.17936(6) -0.55264(13)
O5 O -0.08634(8) 0.09890(6) -0.83873(13)
O6 O -0.08787(10) -0.00865(7) -0.85840(18)
O7 O 0.17330(13) 0.10971(9) -0.33650(19)
C1 C -0.05030(11) 0.04201(8) -0.80744(18)
C2 C -0.13013(13) 0.25931(9) -0.6906(2)
C3 C -0.08554(12) 0.22150(8) -0.54553(19)
H1 H 0.213(2) 0.1376(14) -0.314(3)
H2 H 0.147(2) 0.1109(14) -0.427(4)
O5A O 0.08634(8) 0.09890(6) -0.66127(13)
O6A O 0.08787(10) -0.00865(7) -0.64160(18)
C1A C 0.05030(11) 0.04201(8) -0.69256(18)
O1A O 0.10406(10) 0.23951(7) -0.70040(14)
O2A O 0.18479(13) 0.30368(9) -0.80953(18)
O3A O 0.10988(10) 0.23290(7) -1.06442(15)
O4A O 0.02407(9) 0.17936(6) -0.94736(13)
C2A C 0.13013(13) 0.25931(9) -0.8094(2)
C3A C 0.08554(12) 0.22150(8) -0.95447(19)
O7A O -0.17330(13) 0.10971(9) -0.16350(19)
H1A H -0.213(2) 0.1376(14) -0.186(3)
H2A H -0.147(2) 0.1109(14) -0.073(4)
K1_2 K 0.0000 0.12581(3) -1.2500
K1D K 0.0000 -0.12581(3) -0.7500
O3A_2 O 0.10988(10) 0.23290(7) -0.06442(15)
O4A_2 O 0.02407(9) 0.17936(6) 0.05264(13)
O6D O 0.08787(10) 0.00865(7) -0.14160(18)
O6E O -0.08787(10) 0.00865(7) -0.35840(18)
N1 N -0.29553(10) 0.15488(8) -0.60636(16)
H3 H -0.3079 0.1876 -0.5588
N2 N -0.29149(10) 0.09193(7) -0.78345(16)
C4 C -0.38075(19) 0.19694(12) -0.8582(3)
H4 H -0.4460 0.1834 -0.8909
H5 H -0.3568 0.2000 -0.9412
H6 H -0.3762 0.2387 -0.8112
C5 C -0.32419(12) 0.14869(9) -0.7522(2)
C6 C -0.24354(12) 0.10161(9) -0.5432(2)
H7 H -0.2157 0.0943 -0.4432
C7 C -0.24062(12) 0.06212(9) -0.6536(2)
H8 H -0.2100 0.0221 -0.6447
C8 C -0.31518(13) 0.06204(11) -0.9309(2)
H9 H -0.2670 0.0303 -0.9331
H10 H -0.3159 0.0953 -1.0036
C9 C -0.41109(13) 0.02919(10) -0.9688(2)
C10 C -0.42136(14) -0.02949(11) -0.9058(2)
H11 H -0.3686 -0.0497 -0.8421
C11 C -0.49034(15) 0.05861(11) -1.0633(2)
H12 H -0.4842 0.0983 -1.1065
N1D N -0.70447(10) -0.15488(8) -1.39364(16)
H3D H -0.6921 -0.1876 -1.4412
N2D N -0.70851(10) -0.09193(7) -1.21655(16)
C4D C -0.61925(19) -0.19694(12) -1.1418(3)
H4D H -0.5540 -0.1834 -1.1091
H5D H -0.6432 -0.2000 -1.0588
H6D H -0.6238 -0.2387 -1.1888
C5D C -0.67581(12) -0.14869(9) -1.2478(2)
C6D C -0.75646(12) -0.10161(9) -1.4568(2)
H7D H -0.7843 -0.0943 -1.5568
C7D C -0.75938(12) -0.06212(9) -1.3464(2)
H8D H -0.7900 -0.0221 -1.3553
C8D C -0.68482(13) -0.06204(11) -1.0691(2)
H9D H -0.7330 -0.0303 -1.0669
H10D H -0.6841 -0.0953 -0.9964
C9D C -0.58891(13) -0.02919(10) -1.0312(2)
C10D C -0.57864(14) 0.02949(11) -1.0942(2)
H11D H -0.6314 0.0497 -1.1579
C11D C -0.50966(15) -0.05861(11) -0.9367(2)
H12D H -0.5158 -0.0983 -0.8935
loop_
_geom_bond_atom_site_label_1
_geom_bond_atom_site_label_2
_geom_bond_site_symmetry_1
_geom_bond_site_symmetry_2
Fe1 O1 1_555 1_555
K1 O3 1_555 1_555
O1 C2 1_555 1_555
O2 C2 1_555 1_555
O3 C3 1_555 1_555
O4 Fe1 1_555 1_555
O5 Fe1 1_555 1_555
O6 C1 1_555 1_555
O7 K1 1_555 1_555
C1 O5 1_555 1_555
C2 C3 1_555 1_555
C3 O4 1_555 1_555
H1 O7 1_555 1_555
H2 O7 1_555 1_555
N1 H3 1_555 1_555
N2 C5 1_555 1_555
C4 H4 1_555 1_555
H5 C4 1_555 1_555
H6 C4 1_555 1_555
C5 N1 1_555 1_555
C6 N1 1_555 1_555
H7 C6 1_555 1_555
C7 N2 1_555 1_555
H8 C7 1_555 1_555
C8 N2 1_555 1_555
H9 C8 1_555 1_555
H10 C8 1_555 1_555
C9 C8 1_555 1_555
C10 C9 1_555 1_555
H11 C10 1_555 1_555
C11 C9 1_555 1_555
H12 C11 1_555 1_555
O5A Fe1 1_555 1_555
O6A C1A 1_555 1_555
C1A C1 1_555 1_555
O1A Fe1 1_555 1_555
O2A C2A 1_555 1_555
O3A C3A 1_555 1_555
O4A Fe1 1_555 1_555
C2A O1A 1_555 1_555
C3A O4A 1_555 1_555
O7A K1 1_555 1_555
H1A O7A 1_555 1_555
H2A O7A 1_555 1_555
K1_2 O3A 1_555 1_555
K1D O6 1_555 1_555
O3A_2 K1 1_555 1_555
O4A_2 K1 1_555 1_555
O6D K1 1_555 1_555
O6E K1 1_555 1_555
N1D H3D 1_555 1_555
N2D C5D 1_555 1_555
C4D H4D 1_555 1_555
H5D C4D 1_555 1_555
H6D C4D 1_555 1_555
C5D N1D 1_555 1_555
C6D N1D 1_555 1_555
H7D C6D 1_555 1_555
C7D N2D 1_555 1_555
H8D C7D 1_555 1_555
C8D N2D 1_555 1_555
H9D C8D 1_555 1_555
H10D C8D 1_555 1_555
C9D C8D 1_555 1_555
C10D C11 1_555 1_555
H11D C10D 1_555 1_555
C11D C10 1_555 1_555
H12D C11D 1_555 1_555
K1 O4 1_555 1_555
C4 C5 1_555 1_555
C6 C7 1_555 1_555
O5A C1A 1_555 1_555
O6A K1D 1_555 1_555
O4A K1_2 1_555 1_555
C2A C3A 1_555 1_555
C4D C5D 1_555 1_555
C6D C7D 1_555 1_555
C9D C10D 1_555 1_555
C9D C11D 1_555 1_555

#END
