
#######################################################################
#
#                 Cambridge Crystallographic Data Centre
#                                CCDC 
#
#######################################################################
#
# If this CIF has been generated from an entry in the Cambridge 
# Structural Database, then it will include bibliographic, chemical, 
# crystal, experimental, refinement or atomic coordinate data resulting 
# from the CCDC's data processing and validation procedures.
#
#######################################################################

data_FOFPEX
_symmetry_cell_setting           orthorhombic
_symmetry_space_group_name_H-M   'C c c a'
_symmetry_Int_Tables_number      68
_space_group_name_Hall           '-C 2b 2bc'
loop_
_symmetry_equiv_pos_site_id
_symmetry_equiv_pos_as_xyz
1 x,y,z
2 1/2-x,-y,z
3 -x,y,1/2-z
4 1/2+x,-y,1/2-z
5 1/2+x,1/2+y,z
6 -x,1/2-y,z
7 1/2-x,1/2+y,1/2-z
8 x,1/2-y,1/2-z
9 -x,-y,-z
10 1/2+x,y,-z
11 x,-y,1/2+z
12 1/2-x,y,1/2+z
13 1/2-x,1/2-y,-z
14 x,1/2+y,-z
15 1/2+x,1/2-y,1/2+z
16 -x,1/2+y,1/2+z
_cell_length_a                   13.4174(6)
_cell_length_b                   18.1772(7)
_cell_length_c                   22.3340(8)
_cell_angle_alpha                90
_cell_angle_beta                 90
_cell_angle_gamma                90
_cell_volume                     5447.06
loop_
_atom_site_label
_atom_site_type_symbol
_atom_site_fract_x
_atom_site_fract_y
_atom_site_fract_z
Fe1 Fe 0.0000 0.05295(3) 0.2500
K1 K 0.13789(6) -0.2500 0.2500
O1 O -0.01655(14) -0.15407(10) 0.31048(7)
O2 O -0.06604(14) 0.12388(10) 0.30609(7)
O3 O -0.13191(13) 0.06309(10) 0.20989(7)
O4 O -0.02598(14) -0.03149(9) 0.30616(7)
O5 O -0.27603(15) 0.12325(12) 0.21419(9)
C1 C -0.01234(19) -0.09504(14) 0.28397(10)
O6 O -0.20653(16) 0.18681(11) 0.32028(8)
C2 C -0.1943(2) 0.10824(14) 0.23398(11)
C3 C -0.1543(2) 0.14393(15) 0.29233(11)
O1B O 0.01655(14) -0.15407(10) 0.18952(7)
O4B O 0.02598(14) -0.03149(9) 0.19384(7)
C1B C 0.01234(19) -0.09504(14) 0.21603(10)
O2B O 0.06604(14) 0.12388(10) 0.19391(7)
O3B O 0.13191(13) 0.06309(10) 0.29011(7)
O5B O 0.27603(15) 0.12325(12) 0.28581(9)
O6B O 0.20653(16) 0.18681(11) 0.17972(8)
C2B C 0.1943(2) 0.10824(14) 0.26602(11)
C3B C 0.1543(2) 0.14393(15) 0.20767(11)
K1A K 0.36211(6) 0.2500 0.2500
K1B K -0.13789(6) -0.2500 0.2500
K1C K -0.36211(6) 0.2500 0.2500
O1E O 0.01655(14) -0.34593(10) 0.31048(7)
O1G O -0.01655(14) -0.34593(10) 0.18952(7)
O5C O 0.22397(15) -0.12325(12) 0.28581(9)
O5D O 0.22397(15) -0.37675(12) 0.21419(9)
O6C O 0.29347(16) -0.18681(11) 0.17972(8)
O6D O 0.29347(16) -0.31319(11) 0.32028(8)
C4 C 0.12403(19) -0.02765(15) 0.44646(11)
N1 N 0.12966(17) 0.03375(13) 0.40974(9)
H1 H 0.1310 0.0328 0.3712
N2 N 0.13090(17) 0.07455(13) 0.50044(10)
H2 H 0.1329 0.1045 0.5302
C5 C 0.1206(2) -0.04827(17) 0.55342(12)
H3 H 0.1210 -0.0306 0.5925
C6 C 0.12536(18) -0.00098(16) 0.50475(11)
C7 C 0.1152(2) -0.12200(18) 0.54139(13)
H4 H 0.1125 -0.1553 0.5730
C8 C 0.1326(2) 0.09377(16) 0.44290(12)
C9 C 0.1179(2) -0.10164(16) 0.43389(12)
H5 H 0.1169 -0.1192 0.3948
C10 C 0.1363(3) 0.16960(18) 0.42010(15)
H6 H 0.1913 0.1746 0.3929
H7 H 0.1447 0.2031 0.4530
H8 H 0.0752 0.1806 0.3995
C11 C 0.1135(2) -0.14835(17) 0.48248(13)
H9 H 0.1094 -0.1988 0.4759
O7 O 0.6406(2) 0.17266(13) 0.40838(9)
H10 H 0.596(2) 0.1673(19) 0.3836(14)
H11 H 0.701(2) 0.1690(17) 0.3818(14)
loop_
_geom_bond_atom_site_label_1
_geom_bond_atom_site_label_2
_geom_bond_site_symmetry_1
_geom_bond_site_symmetry_2
Fe1 O2 1_555 1_555
K1 O1 1_555 1_555
O1 C1 1_555 1_555
O2 C3 1_555 1_555
O3 Fe1 1_555 1_555
O4 Fe1 1_555 1_555
O5 C2 1_555 1_555
C1 O4 1_555 1_555
O6 C3 1_555 1_555
C2 O3 1_555 1_555
C3 C2 1_555 1_555
C4 N1 1_555 1_555
N1 H1 1_555 1_555
N2 H2 1_555 1_555
C5 H3 1_555 1_555
C6 C4 1_555 1_555
C7 C5 1_555 1_555
H4 C7 1_555 1_555
C8 N1 1_555 1_555
C9 C4 1_555 1_555
H5 C9 1_555 1_555
C10 C8 1_555 1_555
H6 C10 1_555 1_555
H7 C10 1_555 1_555
H8 C10 1_555 1_555
C11 C7 1_555 1_555
H9 C11 1_555 1_555
O7 H10 1_555 1_555
H11 O7 1_555 1_555
O1B K1 1_555 1_555
O4B Fe1 1_555 1_555
C1B C1 1_555 1_555
O2B Fe1 1_555 1_555
O3B Fe1 1_555 1_555
O5B C2B 1_555 1_555
O6B C3B 1_555 1_555
C2B O3B 1_555 1_555
C3B O2B 1_555 1_555
K1A O5B 1_555 1_555
K1B O1 1_555 1_555
K1C O5 1_555 1_555
O1E K1 1_555 1_555
O1G K1 1_555 1_555
O5C K1 1_555 1_555
O5D K1 1_555 1_555
O6C K1 1_555 1_555
O6D K1 1_555 1_555
O6 K1C 1_555 1_555
N2 C6 1_555 1_555
N2 C8 1_555 1_555
C5 C6 1_555 1_555
C9 C11 1_555 1_555
O1B C1B 1_555 1_555
O1B K1B 1_555 1_555
O4B C1B 1_555 1_555
O6B K1A 1_555 1_555
C2B C3B 1_555 1_555
K1B O1E 1_555 1_555
K1B O1G 1_555 1_555

#END
