
#######################################################################
#
#                 Cambridge Crystallographic Data Centre
#                                CCDC 
#
#######################################################################
#
# If this CIF has been generated from an entry in the Cambridge 
# Structural Database, then it will include bibliographic, chemical, 
# crystal, experimental, refinement or atomic coordinate data resulting 
# from the CCDC's data processing and validation procedures.
#
#######################################################################

data_FOFZAD
_symmetry_cell_setting           orthorhombic
_symmetry_space_group_name_H-M   'P n a 21'
_symmetry_Int_Tables_number      33
_space_group_name_Hall           'P 2c -2n'
loop_
_symmetry_equiv_pos_site_id
_symmetry_equiv_pos_as_xyz
1 x,y,z
2 -x,-y,1/2+z
3 1/2-x,1/2+y,1/2+z
4 1/2+x,1/2-y,z
_cell_length_a                   15.081(5)
_cell_length_b                   16.728(5)
_cell_length_c                   13.061(5)
_cell_angle_alpha                90
_cell_angle_beta                 90
_cell_angle_gamma                90
_cell_volume                     3294.96
loop_
_atom_site_label
_atom_site_type_symbol
_atom_site_fract_x
_atom_site_fract_y
_atom_site_fract_z
C1 C 1.4451(5) 0.4190(5) 0.3266(7)
C2 C 1.4263(5) 0.3610(5) 0.2514(6)
C3 C 1.4955(4) 0.3327(4) 0.1900(7)
C4 C 1.5824(5) 0.3634(5) 0.2000(6)
C5 C 1.5985(5) 0.4253(5) 0.2690(8)
C6 C 1.5303(5) 0.4535(5) 0.3337(7)
C7 C 1.5507(6) 0.5162(5) 0.4130(8)
H1 H 1.4994 0.5527 0.4191
H2 H 1.6023 0.5480 0.3898
C8 C 1.5712(7) 0.4808(7) 0.5178(8)
H3 H 1.5199 0.4501 0.5420
H4 H 1.5839 0.5240 0.5663
H5 H 1.6228 0.4455 0.5127
C9 C 1.3734(6) 0.4469(6) 0.3983(7)
H6 H 1.3401 0.3998 0.4235
H7 H 1.4012 0.4731 0.4582
C10 C 1.3379(5) 0.5631(5) 0.2859(7)
H8 H 1.3990 0.5660 0.2686
C11 C 1.2815(5) 0.6183(5) 0.2466(7)
H9 H 1.3037 0.6586 0.2023
C12 C 1.1900(6) 0.6164(6) 0.2707(8)
C13 C 1.1635(5) 0.5559(6) 0.3379(7)
H10 H 1.1033 0.5527 0.3587
C14 C 1.2238(5) 0.5006(5) 0.3747(8)
H11 H 1.2039 0.4593 0.4191
C15 C 1.3333(5) 0.3288(6) 0.2385(7)
H12 H 1.3023 0.3315 0.3053
H13 H 1.3367 0.2719 0.2182
C16 C 1.2778(5) 0.3751(5) 0.1574(9)
H14 H 1.2774 0.4322 0.1744
H15 H 1.2169 0.3548 0.1571
H16 H 1.3042 0.3676 0.0895
C17 C 1.4758(6) 0.2711(5) 0.1082(7)
H17 H 1.4191 0.2851 0.0744
H18 H 1.5231 0.2732 0.0557
C18 C 1.4332(6) 0.1316(6) 0.0888(7)
H19 H 1.4086 0.1467 0.0247
C19 C 1.4304(6) 0.0534(6) 0.1175(8)
H20 H 1.4027 0.0155 0.0737
C20 C 1.4676(6) 0.0272(6) 0.2105(7)
C21 C 1.5051(6) 0.0887(5) 0.2734(7)
H21 H 1.5298 0.0757 0.3382
C22 C 1.5051(6) 0.1656(5) 0.2400(8)
H22 H 1.5310 0.2055 0.2822
C23 C 1.6579(5) 0.3281(6) 0.1386(7)
H23 H 1.6458 0.2708 0.1260
H24 H 1.7133 0.3318 0.1792
C24 C 1.6714(7) 0.3706(7) 0.0360(8)
H25 H 1.6178 0.3651 -0.0057
H26 H 1.7217 0.3464 -0.0001
H27 H 1.6835 0.4274 0.0480
C25 C 1.6871(5) 0.4671(5) 0.2676(8)
H28 H 1.7184 0.4524 0.2037
H29 H 1.6767 0.5255 0.2657
C26 C 1.7546(6) 0.3751(6) 0.3917(8)
H30 H 1.7150 0.3346 0.3693
C27 C 1.8183(6) 0.3563(6) 0.4592(8)
H31 H 1.8219 0.3032 0.4847
C28 C 1.8804(6) 0.4144(6) 0.4934(8)
C29 C 1.8633(6) 0.4921(6) 0.4609(8)
H32 H 1.8979 0.5349 0.4869
C30 C 1.7986(6) 0.5073(6) 0.3932(8)
H33 H 1.7897 0.5608 0.3710
N1 N 1.3099(4) 0.5042(4) 0.3490(6)
N2 N 1.4696(5) 0.1878(4) 0.1487(5)
N3 N 1.7454(4) 0.4489(4) 0.3552(6)
N4 N 0.8997(5) 0.6923(4) 0.3704(6)
N5 N 1.0650(6) 0.8329(5) 0.1510(6)
N6 N 0.8552(7) 0.6898(6) 0.0170(9)
O1 O 1.1357(4) 0.6670(4) 0.2341(6)
O2 O 1.4689(4) -0.0455(4) 0.2390(5)
O3 O 1.9475(5) 0.3972(4) 0.5466(6)
O4 O 0.8583(5) 0.6940(5) 0.2859(6)
O5 O 0.9813(4) 0.6871(4) 0.3674(5)
O6 O 0.8584(5) 0.6944(5) 0.4496(6)
O7 O 1.0145(5) 0.8140(4) 0.2261(6)
O8 O 1.0757(5) 0.7821(4) 0.0828(6)
O9 O 1.1004(6) 0.8982(5) 0.1477(6)
O10 O 0.8943(5) 0.7480(5) 0.0546(7)
O11 O 0.8623(5) 0.6263(4) 0.0664(6)
O12 O 0.8102(7) 0.6945(5) -0.0591(8)
Dy1 Dy 0.99197(2) 0.67312(2) 0.17605(6)
O2C O 0.9689(4) 0.5455(4) 0.2390(5)
O3A O 1.0525(5) 0.6028(4) 0.0466(6)
Dy1A Dy 2.00803(2) 0.32688(2) 0.67605(6)
Dy1C Dy 1.49197(2) -0.17312(2) 0.17605(6)
loop_
_geom_bond_atom_site_label_1
_geom_bond_atom_site_label_2
_geom_bond_site_symmetry_1
_geom_bond_site_symmetry_2
C1 C2 1_555 1_555
C2 C3 1_555 1_555
C3 C4 1_555 1_555
C4 C5 1_555 1_555
C5 C6 1_555 1_555
C6 C1 1_555 1_555
C7 C6 1_555 1_555
H1 C7 1_555 1_555
H2 C7 1_555 1_555
C8 C7 1_555 1_555
H3 C8 1_555 1_555
H4 C8 1_555 1_555
H5 C8 1_555 1_555
C9 C1 1_555 1_555
H6 C9 1_555 1_555
H7 C9 1_555 1_555
C10 H8 1_555 1_555
C11 C10 1_555 1_555
H9 C11 1_555 1_555
C12 C11 1_555 1_555
C13 C12 1_555 1_555
H10 C13 1_555 1_555
C14 C13 1_555 1_555
H11 C14 1_555 1_555
C15 C2 1_555 1_555
H12 C15 1_555 1_555
H13 C15 1_555 1_555
C16 C15 1_555 1_555
H14 C16 1_555 1_555
H15 C16 1_555 1_555
H16 C16 1_555 1_555
C17 C3 1_555 1_555
H17 C17 1_555 1_555
H18 C17 1_555 1_555
C18 H19 1_555 1_555
C19 C18 1_555 1_555
H20 C19 1_555 1_555
C20 C19 1_555 1_555
C21 C20 1_555 1_555
H21 C21 1_555 1_555
C22 C21 1_555 1_555
H22 C22 1_555 1_555
C23 C4 1_555 1_555
H23 C23 1_555 1_555
H24 C23 1_555 1_555
C24 C23 1_555 1_555
H25 C24 1_555 1_555
H26 C24 1_555 1_555
H27 C24 1_555 1_555
C25 C5 1_555 1_555
H28 C25 1_555 1_555
H29 C25 1_555 1_555
C26 H30 1_555 1_555
C27 C26 1_555 1_555
H31 C27 1_555 1_555
C28 C27 1_555 1_555
C29 C28 1_555 1_555
H32 C29 1_555 1_555
C30 C29 1_555 1_555
H33 C30 1_555 1_555
N1 C9 1_555 1_555
N2 C17 1_555 1_555
N3 C25 1_555 1_555
N4 O4 1_555 1_555
N5 O7 1_555 1_555
N6 O10 1_555 1_555
O1 C12 1_555 1_555
O2 C20 1_555 1_555
O3 C28 1_555 1_555
O4 Dy1 1_555 1_555
O5 N4 1_555 1_555
O6 N4 1_555 1_555
O7 Dy1 1_555 1_555
O8 N5 1_555 1_555
O9 N5 1_555 1_555
O10 Dy1 1_555 1_555
O11 N6 1_555 1_555
O12 N6 1_555 1_555
Dy1 O1 1_555 1_555
O2C Dy1 1_555 1_555
O3A Dy1 1_555 1_555
Dy1A O3 1_555 1_555
Dy1C O2 1_555 1_555
C10 N1 1_555 1_555
C14 N1 1_555 1_555
C18 N2 1_555 1_555
C22 N2 1_555 1_555
C26 N3 1_555 1_555
C30 N3 1_555 1_555
O5 Dy1 1_555 1_555
O8 Dy1 1_555 1_555
O11 Dy1 1_555 1_555

#END
