
#######################################################################
#
#                 Cambridge Crystallographic Data Centre
#                                CCDC 
#
#######################################################################
#
# If this CIF has been generated from an entry in the Cambridge 
# Structural Database, then it will include bibliographic, chemical, 
# crystal, experimental, refinement or atomic coordinate data resulting 
# from the CCDC's data processing and validation procedures.
#
#######################################################################

data_FOGHEQ
_symmetry_cell_setting           monoclinic
_symmetry_space_group_name_H-M   'P 21/n'
_symmetry_Int_Tables_number      14
_space_group_name_Hall           '-P 2yn'
loop_
_symmetry_equiv_pos_site_id
_symmetry_equiv_pos_as_xyz
1 x,y,z
2 1/2-x,1/2+y,1/2-z
3 -x,-y,-z
4 1/2+x,1/2-y,1/2+z
_cell_length_a                   9.0190(11)
_cell_length_b                   24.563(5)
_cell_length_c                   17.339(2)
_cell_angle_alpha                90
_cell_angle_beta                 99.422(12)
_cell_angle_gamma                90
_cell_volume                     3789.35
loop_
_atom_site_label
_atom_site_type_symbol
_atom_site_fract_x
_atom_site_fract_y
_atom_site_fract_z
Eu1 Eu 0.04004(9) 0.18495(3) 0.57814(5)
Mn1 Mn 0.4991(2) 0.08970(10) 0.42247(15)
Mn2 Mn -0.4764(3) 0.33220(12) 0.51706(16)
O1 O -0.1006(11) 0.1782(4) 0.6877(6)
O2 O -0.1601(11) 0.2492(4) 0.5396(6)
O3 O 0.2750(11) 0.1283(4) 0.3811(6)
O4 O 0.0960(12) -0.0797(4) 0.6438(7)
H1 H 0.1458 -0.0911 0.6116
O5 O -0.1729(11) 0.1305(4) 0.5232(6)
O6 O -0.2943(10) 0.0525(5) 0.4936(6)
O7 O 0.2589(10) 0.1566(4) 0.6697(6)
O8 O 0.2170(11) 0.2570(4) 0.5545(6)
O9 O 0.1906(10) 0.1391(4) 0.4930(6)
O10 O 0.1207(11) 0.3903(5) 0.8300(7)
O11 O 0.3362(12) 0.3347(5) 0.5853(7)
C1 C 0.1690(16) 0.3028(6) 0.6663(9)
O12 O -0.1571(13) 0.2056(5) 0.7990(7)
O13 O 0.3920(12) 0.0576(5) 0.5196(7)
H2 H 0.4101 0.0790 0.5594
H3 H 0.4273 0.0257 0.5332
O14 O 0.4362(16) 0.0118(5) 0.3662(9)
H4 H 0.4277 0.0149 0.3150
H5 H 0.3490 0.0004 0.3767
O15 O -0.6011(11) 0.2638(5) 0.4533(6)
H6 H -0.5478 0.2329 0.4574
H7 H -0.6248 0.2712 0.4023
N1 N 0.0782(13) 0.2601(5) 0.6744(7)
N2 N -0.0097(13) 0.2102(5) 0.4348(7)
O16 O 0.5435(12) 0.1645(5) 0.4863(7)
H8 H 0.5937 0.1586 0.5336
H9 H 0.4589 0.1809 0.4916
N3 N 0.0497(12) 0.0861(6) 0.6120(8)
O17 O -0.3751(13) 0.2812(6) 0.6138(8)
H10 H -0.3370 0.3007 0.6563
H11 H -0.2993 0.2612 0.6012
C2 C 0.0773(16) 0.1917(6) 0.3847(9)
C3 C 0.1849(15) 0.1491(6) 0.4193(9)
C4 C -0.1224(17) 0.2746(7) 0.3369(10)
H12 H -0.1919 0.3022 0.3218
C5 C 0.1729(17) 0.0662(7) 0.6586(10)
C6 C 0.0830(16) -0.0261(7) 0.6375(9)
C7 C 0.0110(17) 0.3018(7) 0.7903(10)
H13 H -0.0445 0.2997 0.8309
C8 C 0.0677(16) 0.2109(6) 0.3099(9)
H14 H 0.1263 0.1958 0.2761
C9 C 0.0024(16) 0.2593(6) 0.7347(9)
C10 C -0.0291(16) 0.2527(6) 0.2856(8)
C11 C -0.1961(17) 0.2711(7) 0.4703(9)
C12 C -0.1017(15) 0.2520(6) 0.4099(9)
C13 C 0.2854(17) 0.1080(7) 0.6900(10)
O18 O 0.4011(14) 0.0924(6) 0.7391(9)
C14 C 0.1925(16) 0.0108(6) 0.6706(9)
H15 H 0.2800 -0.0019 0.7012
C15 C 0.1875(17) 0.3466(7) 0.7174(9)
H16 H 0.2517 0.3750 0.7097
C16 C 0.1042(16) 0.3479(7) 0.7842(10)
C17 C -0.1879(16) 0.0796(7) 0.5270(10)
C18 C -0.0568(16) 0.0509(6) 0.5815(9)
C19 C -0.0475(15) -0.0051(6) 0.5934(9)
H17 H -0.1262 -0.0279 0.5724
C20 C -0.0916(16) 0.2123(7) 0.7420(10)
C21 C 0.2462(17) 0.2996(7) 0.5977(9)
O19 O -0.5831(19) 0.3852(7) 0.4221(10)
H18 H -0.5281 0.4190 0.4149
H19 H -0.6859 0.3994 0.4254
O20 O -0.3620(18) 0.4028(7) 0.5729(11)
H20 H -0.2987 0.4033 0.6211
H21 H -0.3672 0.4382 0.5531
O21 O -0.2968(12) 0.3065(5) 0.4531(7)
O22 O -0.0348(12) 0.2722(5) 0.2119(6)
H22 H -0.1146 0.2882 0.1984
Mn1_2 Mn -0.5009(2) 0.08970(10) 0.42247(15)
Mn1C Mn -0.0009(2) 0.41030(10) 0.92247(15)
Mn2_2 Mn 0.5236(3) 0.33220(12) 0.51706(16)
O6_2 O 0.7057(10) 0.0525(5) 0.4936(6)
O10C O 0.6207(11) 0.1097(5) 0.3300(7)
O11_2 O -0.6638(12) 0.3347(5) 0.5853(7)
O23 O -0.798(3) 0.4108(10) 0.1983(16)
C22 C -0.887(8) 0.416(2) 0.389(4)
C23 C -0.994(8) 0.407(3) 0.445(4)
O24 O -0.847(5) 0.377(2) 0.345(3)
O25? O -0.314(6) 0.427(2) 0.719(4)
loop_
_geom_bond_atom_site_label_1
_geom_bond_atom_site_label_2
_geom_bond_site_symmetry_1
_geom_bond_site_symmetry_2
Eu1 O1 1_555 1_555
Mn1 O3 1_555 1_555
Mn2 O15 1_555 1_555
O1 C20 1_555 1_555
O2 Eu1 1_555 1_555
O3 C3 1_555 1_555
O4 H1 1_555 1_555
O5 Eu1 1_555 1_555
O6 C17 1_555 1_555
O7 Eu1 1_555 1_555
O8 Eu1 1_555 1_555
O9 Eu1 1_555 1_555
O10 C16 1_555 1_555
O11 C21 1_555 1_555
C1 N1 1_555 1_555
O12 C20 1_555 1_555
O13 Mn1 1_555 1_555
H2 O13 1_555 1_555
H3 O13 1_555 1_555
O14 Mn1 1_555 1_555
H4 O14 1_555 1_555
H5 O14 1_555 1_555
O15 H6 1_555 1_555
H7 O15 1_555 1_555
N1 Eu1 1_555 1_555
N2 Eu1 1_555 1_555
O16 Mn1 1_555 1_555
H8 O16 1_555 1_555
H9 O16 1_555 1_555
N3 Eu1 1_555 1_555
O17 Mn2 1_555 1_555
H10 O17 1_555 1_555
H11 O17 1_555 1_555
C2 N2 1_555 1_555
C3 O9 1_555 1_555
C4 H12 1_555 1_555
C5 N3 1_555 1_555
C6 O4 1_555 1_555
C7 H13 1_555 1_555
C8 C2 1_555 1_555
H14 C8 1_555 1_555
C9 N1 1_555 1_555
C10 C4 1_555 1_555
C11 O2 1_555 1_555
C12 N2 1_555 1_555
C13 O7 1_555 1_555
O18 C13 1_555 1_555
C14 C5 1_555 1_555
H15 C14 1_555 1_555
C15 C1 1_555 1_555
H16 C15 1_555 1_555
C16 C7 1_555 1_555
C17 O5 1_555 1_555
C18 N3 1_555 1_555
C19 C6 1_555 1_555
H17 C19 1_555 1_555
C20 C9 1_555 1_555
C21 O8 1_555 1_555
O19 Mn2 1_555 1_555
H18 O19 1_555 1_555
H19 O19 1_555 1_555
O20 Mn2 1_555 1_555
H20 O20 1_555 1_555
H21 O20 1_555 1_555
O21 Mn2 1_555 1_555
O22 C10 1_555 1_555
H22 O22 1_555 1_555
C22 C23 1_555 1_555
O24 C22 1_555 1_555
Mn1_2 O6 1_555 1_555
Mn1C O10 1_555 1_555
Mn2_2 O11 1_555 1_555
O6_2 Mn1 1_555 1_555
O10C Mn1 1_555 1_555
O11_2 Mn2 1_555 1_555
C1 C21 1_555 1_555
C2 C3 1_555 1_555
C4 C12 1_555 1_555
C5 C13 1_555 1_555
C6 C14 1_555 1_555
C7 C9 1_555 1_555
C8 C10 1_555 1_555
C11 C12 1_555 1_555
C11 O21 1_555 1_555
C15 C16 1_555 1_555
C17 C18 1_555 1_555
C18 C19 1_555 1_555

#END
