
#######################################################################
#
#                 Cambridge Crystallographic Data Centre
#                                CCDC 
#
#######################################################################
#
# If this CIF has been generated from an entry in the Cambridge 
# Structural Database, then it will include bibliographic, chemical, 
# crystal, experimental, refinement or atomic coordinate data resulting 
# from the CCDC's data processing and validation procedures.
#
#######################################################################

data_FOGPUO
_symmetry_cell_setting           monoclinic
_symmetry_space_group_name_H-M   'C 2/c'
_symmetry_Int_Tables_number      15
_space_group_name_Hall           '-C 2yn'
loop_
_symmetry_equiv_pos_site_id
_symmetry_equiv_pos_as_xyz
1 x,y,z
2 -x,y,1/2-z
3 1/2+x,1/2+y,z
4 1/2-x,1/2+y,1/2-z
5 -x,-y,-z
6 x,-y,1/2+z
7 1/2-x,1/2-y,-z
8 1/2+x,1/2-y,1/2+z
_cell_length_a                   30.229(8)
_cell_length_b                   14.919(3)
_cell_length_c                   10.217(3)
_cell_angle_alpha                90
_cell_angle_beta                 102.947(3)
_cell_angle_gamma                90
_cell_volume                     4490.59
loop_
_atom_site_label
_atom_site_type_symbol
_atom_site_fract_x
_atom_site_fract_y
_atom_site_fract_z
Gd1 Gd 0.5000 0.000922(10) 0.2500
O1 O 0.48013(7) 0.14021(13) 0.1099(2)
H1 H 0.4716 0.1262 0.0306
C1 C 0.37330(7) 0.06472(14) 0.4234(2)
C2 C 0.42244(8) 0.03875(16) 0.4452(3)
O2 O 0.52161(7) -0.14971(11) 0.1766(2)
N1 N 0.22006(8) 0.03494(17) 0.4923(3)
O3 O 0.43768(6) 0.02389(13) 0.3430(2)
C3 C 0.34555(8) 0.06290(16) 0.2955(3)
H2 H 0.3575 0.0452 0.2231
C4 C 0.30983(8) 0.11822(16) 0.5083(3)
H3 H 0.2978 0.1366 0.5801
C5 C 0.28268(8) 0.11579(16) 0.3799(3)
O4 O 0.44530(6) 0.03433(15) 0.5624(2)
C6 C 0.30047(8) 0.08712(17) 0.2743(3)
H4 H 0.2820 0.0841 0.1884
N2 N 0.23630(7) 0.14643(14) 0.3533(2)
C7 C 0.35512(8) 0.09319(16) 0.5296(3)
H5 H 0.3734 0.0955 0.6158
N3 N 0.18249(8) 0.22122(16) 0.1889(3)
C8 C 0.45924(9) -0.62278(17) 0.2393(3)
N4 N 0.46177(8) -0.69913(15) 0.3095(3)
C9 C 0.20579(8) 0.10976(17) 0.4247(3)
C10 C 0.5000 -0.2926(2) 0.2500
C11 C 0.22473(9) 0.21861(17) 0.2612(3)
C12 C 0.5000 -0.1913(2) 0.2500
C13 C 0.52336(11) -0.43269(17) 0.1699(3)
H6 H 0.5389 -0.4638 0.1151
N5 N 0.5000 -0.57550(19) 0.2500
C14 C 0.52372(11) -0.33972(18) 0.1710(3)
H7 H 0.5400 -0.3088 0.1182
C15 C 0.25688(10) 0.2830(2) 0.2534(3)
H8 H 0.2862 0.2784 0.3056
C16 C 0.16385(9) 0.1485(2) 0.4269(3)
H9 H 0.1538 0.1995 0.3765
C17 C 0.38233(11) -0.7201(2) 0.2203(4)
H10 H 0.3565 -0.7549 0.2156
C18 C 0.41934(10) -0.5920(2) 0.1606(3)
H11 H 0.4186 -0.5381 0.1142
C19 C 0.38045(11) -0.6417(2) 0.1510(4)
H12 H 0.3531 -0.6220 0.0976
C20 C 0.42302(11) -0.74575(19) 0.2966(4)
H13 H 0.4242 -0.7995 0.3433
C21 C 0.19392(12) -0.0001(2) 0.5692(4)
H14 H 0.2042 -0.0514 0.6185
C22 C 0.13781(10) 0.1091(2) 0.5060(4)
H15 H 0.1097 0.1334 0.5091
C23 C 0.5000 -0.4793(2) 0.2500
C24 C 0.15316(11) 0.0348(3) 0.5794(4)
H16 H 0.1363 0.0085 0.6350
C25 C 0.20074(15) 0.3596(2) 0.0929(4)
H17 H 0.1915 0.4073 0.0346
C26 C 0.17122(13) 0.2933(2) 0.1075(3)
H18 H 0.1414 0.2978 0.0585
C27 C 0.24463(14) 0.3539(2) 0.1668(4)
H19 H 0.2658 0.3974 0.1584
H20 H 0.4897(11) 0.187(2) 0.126(3)
O2A O 0.47839(7) -0.14971(11) 0.3234(2)
C8A C 0.54076(9) -0.62278(17) 0.2607(3)
N4A N 0.53823(8) -0.69913(15) 0.1905(3)
C13A C 0.47664(11) -0.43269(17) 0.3301(3)
H6A H 0.4611 -0.4638 0.3849
C14A C 0.47628(11) -0.33972(18) 0.3290(3)
H7A H 0.4600 -0.3088 0.3818
C17A C 0.61767(11) -0.7201(2) 0.2797(4)
H10A H 0.6435 -0.7549 0.2844
C18A C 0.58066(10) -0.5920(2) 0.3394(3)
H11A H 0.5814 -0.5381 0.3858
C19A C 0.61955(11) -0.6417(2) 0.3490(4)
H12A H 0.6469 -0.6220 0.4024
C20A C 0.57698(11) -0.74575(19) 0.2034(4)
H13A H 0.5758 -0.7995 0.1567
O1A O 0.51987(7) 0.14021(13) 0.3901(2)
H1A H 0.5284 0.1262 0.4694
C1A C 0.62670(7) 0.06472(14) 0.0766(2)
C2A C 0.57756(8) 0.03875(16) 0.0548(3)
N1A N 0.77994(8) 0.03494(17) 0.0077(3)
O3A O 0.56232(6) 0.02389(13) 0.1570(2)
C3A C 0.65445(8) 0.06290(16) 0.2045(3)
H2A H 0.6425 0.0452 0.2769
C4A C 0.69017(8) 0.11822(16) -0.0083(3)
H3A H 0.7022 0.1366 -0.0801
C5A C 0.71732(8) 0.11579(16) 0.1201(3)
O4A O 0.55470(6) 0.03433(15) -0.0624(2)
C6A C 0.69953(8) 0.08712(17) 0.2257(3)
H4A H 0.7180 0.0841 0.3116
N2A N 0.76370(7) 0.14643(14) 0.1467(2)
C7A C 0.64488(8) 0.09319(16) -0.0296(3)
H5A H 0.6266 0.0955 -0.1158
N3A N 0.81751(8) 0.22122(16) 0.3111(3)
C9A C 0.79421(8) 0.10976(17) 0.0753(3)
C11A C 0.77527(9) 0.21861(17) 0.2388(3)
C15A C 0.74312(10) 0.2830(2) 0.2466(3)
H8A H 0.7138 0.2784 0.1944
C16A C 0.83615(9) 0.1485(2) 0.0731(3)
H9A H 0.8462 0.1995 0.1235
C21A C 0.80608(12) -0.0001(2) -0.0692(4)
H14A H 0.7958 -0.0514 -0.1185
C22A C 0.86219(10) 0.1091(2) -0.0060(4)
H15A H 0.8903 0.1334 -0.0091
C24A C 0.84684(11) 0.0348(3) -0.0794(4)
H16A H 0.8637 0.0085 -0.1350
C25A C 0.79926(15) 0.3596(2) 0.4071(4)
H17A H 0.8085 0.4073 0.4654
C26A C 0.82878(13) 0.2933(2) 0.3925(3)
H18A H 0.8586 0.2978 0.4415
C27A C 0.75537(14) 0.3539(2) 0.3332(4)
H19A H 0.7342 0.3974 0.3416
H20A H 0.5103(11) 0.187(2) 0.374(3)
Gd1D Gd 0.5000 -0.000922(10) -0.2500
Gd1D_2 Gd 0.5000 -0.000922(10) 0.7500
O4D O 0.55470(6) -0.03433(15) 0.4376(2)
O4E O 0.44530(6) -0.03433(15) 0.0624(2)
loop_
_geom_bond_atom_site_label_1
_geom_bond_atom_site_label_2
_geom_bond_site_symmetry_1
_geom_bond_site_symmetry_2
Gd1 O1 1_555 1_555
O1 H1 1_555 1_555
C1 C2 1_555 1_555
C2 O3 1_555 1_555
O2 Gd1 1_555 1_555
N1 C9 1_555 1_555
O3 Gd1 1_555 1_555
C3 C1 1_555 1_555
H2 C3 1_555 1_555
C4 H3 1_555 1_555
C5 C4 1_555 1_555
O4 C2 1_555 1_555
C6 C3 1_555 1_555
H4 C6 1_555 1_555
N2 C5 1_555 1_555
C7 C1 1_555 1_555
H5 C7 1_555 1_555
N3 C11 1_555 1_555
C8 N4 1_555 1_555
N4 C20 1_555 1_555
C9 N2 1_555 1_555
C10 C12 1_555 1_555
C11 N2 1_555 1_555
C12 O2 1_555 1_555
C13 H6 1_555 1_555
N5 C8 1_555 1_555
C14 C10 1_555 1_555
H7 C14 1_555 1_555
C15 C11 1_555 1_555
H8 C15 1_555 1_555
C16 C9 1_555 1_555
H9 C16 1_555 1_555
C17 H10 1_555 1_555
C18 C8 1_555 1_555
H11 C18 1_555 1_555
C19 C17 1_555 1_555
H12 C19 1_555 1_555
C20 C17 1_555 1_555
H13 C20 1_555 1_555
C21 N1 1_555 1_555
H14 C21 1_555 1_555
C22 C16 1_555 1_555
H15 C22 1_555 1_555
C23 C13 1_555 1_555
C24 C21 1_555 1_555
H16 C24 1_555 1_555
C25 H17 1_555 1_555
C26 N3 1_555 1_555
H18 C26 1_555 1_555
C27 C15 1_555 1_555
H19 C27 1_555 1_555
H20 O1 1_555 1_555
O2A Gd1 1_555 1_555
C8A N5 1_555 1_555
N4A C8A 1_555 1_555
C13A C23 1_555 1_555
H6A C13A 1_555 1_555
C14A C10 1_555 1_555
H7A C14A 1_555 1_555
C17A H10A 1_555 1_555
C18A C8A 1_555 1_555
H11A C18A 1_555 1_555
C19A C17A 1_555 1_555
H12A C19A 1_555 1_555
C20A N4A 1_555 1_555
H13A C20A 1_555 1_555
O1A Gd1 1_555 1_555
H1A O1A 1_555 1_555
C1A C2A 1_555 1_555
C2A O3A 1_555 1_555
N1A C9A 1_555 1_555
O3A Gd1 1_555 1_555
C3A C1A 1_555 1_555
H2A C3A 1_555 1_555
C4A H3A 1_555 1_555
C5A C4A 1_555 1_555
O4A C2A 1_555 1_555
C6A C3A 1_555 1_555
H4A C6A 1_555 1_555
N2A C5A 1_555 1_555
C7A C1A 1_555 1_555
H5A C7A 1_555 1_555
N3A C11A 1_555 1_555
C9A N2A 1_555 1_555
C11A N2A 1_555 1_555
C15A C11A 1_555 1_555
H8A C15A 1_555 1_555
C16A C9A 1_555 1_555
H9A C16A 1_555 1_555
C21A N1A 1_555 1_555
H14A C21A 1_555 1_555
C22A C16A 1_555 1_555
H15A C22A 1_555 1_555
C24A C21A 1_555 1_555
H16A C24A 1_555 1_555
C25A H17A 1_555 1_555
C26A N3A 1_555 1_555
H18A C26A 1_555 1_555
C27A C15A 1_555 1_555
H19A C27A 1_555 1_555
H20A O1A 1_555 1_555
Gd1D O4A 1_555 1_555
Gd1D_2 O4 1_555 1_555
O4D Gd1 1_555 1_555
O4E Gd1 1_555 1_555
C4 C7 1_555 1_555
C5 C6 1_555 1_555
C12 O2A 1_555 1_555
C13 C14 1_555 1_555
N5 C23 1_555 1_555
C18 C19 1_555 1_555
C22 C24 1_555 1_555
C25 C26 1_555 1_555
C25 C27 1_555 1_555
C13A C14A 1_555 1_555
C17A C20A 1_555 1_555
C18A C19A 1_555 1_555
C4A C7A 1_555 1_555
C5A C6A 1_555 1_555
C22A C24A 1_555 1_555
C25A C26A 1_555 1_555
C25A C27A 1_555 1_555

#END
