
#######################################################################
#
#                 Cambridge Crystallographic Data Centre
#                                CCDC 
#
#######################################################################
#
# If this CIF has been generated from an entry in the Cambridge 
# Structural Database, then it will include bibliographic, chemical, 
# crystal, experimental, refinement or atomic coordinate data resulting 
# from the CCDC's data processing and validation procedures.
#
#######################################################################

data_FOGPEY
_symmetry_cell_setting           monoclinic
_symmetry_space_group_name_H-M   'P 21/c'
_symmetry_Int_Tables_number      14
_space_group_name_Hall           '-P 2ybc'
loop_
_symmetry_equiv_pos_site_id
_symmetry_equiv_pos_as_xyz
1 x,y,z
2 -x,1/2+y,1/2-z
3 -x,-y,-z
4 x,1/2-y,1/2+z
_cell_length_a                   22.1610(2)
_cell_length_b                   12.89656(9)
_cell_length_c                   22.9751(2)
_cell_angle_alpha                90
_cell_angle_beta                 110.9504(11)
_cell_angle_gamma                90
_cell_volume                     6132.2
loop_
_atom_site_label
_atom_site_type_symbol
_atom_site_fract_x
_atom_site_fract_y
_atom_site_fract_z
Ag1 Ag 0.868795(8) 0.371893(12) 0.402599(7)
N1 N 0.93780(9) 0.29256(14) 0.48014(8)
N2 N 1.19864(9) 0.51032(14) 0.64119(8)
C1 C 1.36284(12) 0.5959(2) 0.74081(10)
H1 H 1.3891 0.6535 0.7558
C2 C 1.35274(12) 0.4076(2) 0.73784(11)
H2 H 1.3701 0.3418 0.7494
O1 O 0.89748(9) 0.43179(15) 0.86507(10)
H3 H 0.8589 0.4210 0.8465
C3 C 1.28809(11) 0.42254(18) 0.69911(10)
C4 C 1.02595(11) 0.27713(16) 0.56855(10)
C5 C 1.10120(11) 0.40918(17) 0.53115(10)
H4 H 1.1282 0.4523 0.5191
C6 C 1.12454(11) 0.36808(17) 0.59213(10)
O2 O 0.90635(8) 0.26784(12) 0.83757(7)
N3 N 1.23886(9) 0.35253(14) 0.66955(9)
C7 C 1.00180(12) 0.36180(16) 0.89511(10)
N4 N 0.97610(9) 0.21629(14) 0.57304(8)
C8 C 1.05922(11) 0.19073(17) 0.79731(10)
H5 H 1.0899 0.1587 0.8314
C9 C 0.99884(11) 0.19521(17) 0.68658(10)
C10 C 1.00156(10) 0.32358(16) 0.50981(10)
C11 C 1.18675(11) 0.40901(17) 0.63496(10)
C12 C 1.13281(13) 0.37490(19) 0.96603(12)
H6 H 1.1767 0.3793 0.9895
C13 C 0.93070(12) 0.34838(18) 0.86237(10)
C14 C 1.02801(11) 0.28045(17) 0.80632(10)
C15 C 1.24560(13) 0.24003(18) 0.67476(12)
H7 H 1.2450 0.2182 0.7145
H8 H 1.2105 0.2080 0.6421
H9 H 1.2858 0.2198 0.6711
C16 C 1.02292(12) 0.40476(17) 0.95496(11)
H10 H 0.9928 0.4300 0.9710
C17 C 0.98281(11) 0.32738(17) 0.75423(10)
H11 H 0.9621 0.3875 0.7593
C18 C 1.04663(12) 0.32518(17) 0.86978(10)
C19 C 0.92423(11) 0.22884(16) 0.51905(10)
C20 C 1.29912(11) 0.61047(18) 0.70253(10)
H12 H 1.2818 0.6764 0.6915
C21 C 0.96826(11) 0.28594(17) 0.69502(10)
H13 H 0.9381 0.3185 0.6608
C22 C 1.11245(12) 0.33303(19) 0.90649(11)
H14 H 1.1431 0.3096 0.8905
C23 C 0.82184(12) 0.23303(19) 0.54395(11)
H15 H 0.7793 0.2019 0.5319
H16 H 0.8442 0.2197 0.5880
C24 C 1.38890(12) 0.4963(2) 0.75764(11)
H17 H 1.4321 0.4900 0.7831
C25 C 1.08783(13) 0.41020(18) 0.99053(11)
H18 H 1.1013 0.4374 1.0307
C26 C 1.26212(11) 0.52109(17) 0.68121(10)
C27 C 0.81450(13) 0.34984(19) 0.53342(13)
H19 H 0.7906 0.3635 0.4902
H20 H 0.8565 0.3812 0.5451
H21 H 0.7918 0.3784 0.5583
C28 C 1.08781(11) 0.29788(16) 0.61154(10)
H22 H 1.1034 0.2668 0.6506
C29 C 0.85937(11) 0.18159(18) 0.50670(11)
H23 H 0.8648 0.1085 0.5171
H24 H 0.8341 0.1872 0.4626
C30 C 1.04028(11) 0.38861(16) 0.48854(10)
C31 C 1.04490(11) 0.14915(17) 0.73825(10)
H25 H 1.0663 0.0898 0.7331
C32 C 1.01715(11) 0.43190(17) 0.42333(10)
H26 H 0.9842 0.4829 0.4189
H27 H 0.9998 0.3769 0.3940
H28 H 1.0527 0.4636 0.4155
C33 C 0.98233(11) 0.14351(17) 0.62400(10)
H29 H 1.0157 0.0933 0.6263
H30 H 0.9420 0.1061 0.6146
Ag1B Ag 1.131205(8) 0.628107(12) 0.597401(7)
Ag1C Ag 0.868795(8) 0.128107(12) 0.902599(7)
N2B N 0.80136(9) 0.48968(14) 0.35881(8)
O2C O 0.90635(8) 0.23216(12) 0.33757(7)
Ag2 Ag 0.637649(8) -0.122688(12) 0.590225(8)
C34 C 0.48435(11) 0.35849(16) 0.62261(10)
H31 H 0.4454 0.3997 0.6132
H32 H 0.5195 0.4054 0.6253
O3 O 0.39660(8) 0.21888(13) 0.83166(7)
C35 C 0.58717(11) 0.20377(16) 0.60553(10)
H33 H 0.6044 0.2350 0.6445
C36 C 0.35995(11) 0.32829(17) 0.50626(10)
H34 H 0.3362 0.3291 0.4617
H35 H 0.3685 0.3997 0.5201
C37 C 0.53418(11) 0.11125(16) 0.48327(10)
C38 C 0.76504(11) -0.00717(17) 0.67530(10)
C39 C 0.54138(11) 0.35655(17) 0.73777(10)
H36 H 0.5618 0.4173 0.7331
N5 N 0.70129(9) -0.00252(14) 0.63470(9)
N6 N 0.47575(9) 0.28586(14) 0.57123(8)
N7 N 0.73711(9) 0.15865(14) 0.65764(9)
C40 C 0.49727(11) 0.17623(16) 0.50654(10)
C41 C 0.80415(11) -0.09253(19) 0.70072(11)
H37 H 0.7888 -0.1600 0.6918
C42 C 0.49873(11) 0.30726(17) 0.68521(10)
O4 O 0.39697(8) 0.05160(14) 0.85719(9)
H38 H 0.3578 0.0575 0.8392
C43 C 0.50775(11) 0.06686(17) 0.41843(10)
H39 H 0.4761 0.0148 0.4164
H40 H 0.5423 0.0364 0.4083
H41 H 0.4880 0.1211 0.3892
C44 C 0.58146(12) 0.09623(18) 0.98969(10)
H42 H 0.5944 0.0689 1.0298
C45 C 0.42263(11) 0.27457(16) 0.51845(10)
C46 C 0.52446(11) 0.22444(17) 0.80494(10)
C47 C 0.62267(11) 0.13455(16) 0.58374(10)
C48 C 0.48234(11) 0.17445(17) 0.75216(10)
H43 H 0.4625 0.1130 0.7567
C49 C 0.31747(12) 0.2785(2) 0.53852(12)
H44 H 0.3079 0.2075 0.5244
H45 H 0.3407 0.2774 0.5832
C50 C 0.60714(12) 0.17905(19) 0.90778(11)
H46 H 0.6381 0.2062 0.8934
C51 C 0.88976(12) 0.0299(2) 0.75346(11)
H47 H 0.9324 0.0403 0.7796
C52 C 0.46954(11) 0.21496(17) 0.69282(10)
H48 H 0.4415 0.1805 0.6582
C53 C 0.25483(13) 0.3379(2) 0.52452(13)
H49 H 0.2330 0.3428 0.4802
H50 H 0.2641 0.4063 0.5419
H51 H 0.2277 0.3023 0.5426
C54 C 0.42557(12) 0.14249(18) 0.85632(10)
C55 C 0.54201(11) 0.18026(16) 0.86854(10)
C56 C 0.68657(11) 0.09755(17) 0.62516(10)
C57 C 0.49689(11) 0.13747(16) 0.89180(10)
C58 C 0.62660(13) 0.13837(19) 0.96756(11)
H52 H 0.6701 0.1394 0.9928
C59 C 0.74019(13) 0.27179(18) 0.65956(13)
H53 H 0.7072 0.2995 0.6233
H54 H 0.7818 0.2940 0.6604
H55 H 0.7335 0.2962 0.6963
C60 C 0.52423(11) 0.22318(16) 0.56516(10)
C61 C 0.55385(11) 0.31652(17) 0.79683(10)
H56 H 0.5820 0.3511 0.8314
C62 C 0.51712(12) 0.09513(17) 0.95168(10)
H57 H 0.4868 0.0658 0.9662
C63 C 0.59675(11) 0.09198(17) 0.52337(10)
H58 H 0.6228 0.0490 0.5098
C64 C 0.78806(11) 0.09359(18) 0.69005(10)
C65 C 0.85111(12) 0.11519(19) 0.72933(11)
H59 H 0.8662 0.1827 0.7387
C66 C 0.86670(12) -0.0721(2) 0.73972(11)
H60 H 0.8943 -0.1272 0.7573
N8 N 0.43369(9) 0.20899(14) 0.47891(8)
Ag2B Ag 0.362351(8) 0.122688(12) 0.409775(8)
C34B C 0.51565(11) -0.35849(16) 0.37739(10)
H31B H 0.5546 -0.3997 0.3868
H32B H 0.4805 -0.4054 0.3747
O3B O 0.60340(8) -0.21888(13) 0.16834(7)
C35B C 0.41283(11) -0.20377(16) 0.39447(10)
H33B H 0.3956 -0.2350 0.3555
C36B C 0.64005(11) -0.32829(17) 0.49374(10)
H34B H 0.6638 -0.3291 0.5383
H35B H 0.6315 -0.3997 0.4799
C37B C 0.46582(11) -0.11125(16) 0.51673(10)
C38B C 0.23496(11) 0.00717(17) 0.32470(10)
C39B C 0.45862(11) -0.35655(17) 0.26223(10)
H36B H 0.4382 -0.4173 0.2669
N5B N 0.29871(9) 0.00252(14) 0.36530(9)
N6B N 0.52425(9) -0.28586(14) 0.42877(8)
N7B N 0.26289(9) -0.15865(14) 0.34236(9)
C40B C 0.50273(11) -0.17623(16) 0.49346(10)
C41B C 0.19585(11) 0.09253(19) 0.29928(11)
H37B H 0.2112 0.1600 0.3082
C42B C 0.50127(11) -0.30726(17) 0.31479(10)
O4B O 0.60303(8) -0.05160(14) 0.14281(9)
H38B H 0.6422 -0.0575 0.1608
C43B C 0.49225(11) -0.06686(17) 0.58157(10)
H39B H 0.5239 -0.0148 0.5836
H40B H 0.4577 -0.0364 0.5917
H41B H 0.5120 -0.1211 0.6108
C44B C 0.41854(12) -0.09623(18) 0.01031(10)
H42B H 0.4056 -0.0689 -0.0298
C45B C 0.57737(11) -0.27457(16) 0.48155(10)
C46B C 0.47554(11) -0.22444(17) 0.19506(10)
C47B C 0.37733(11) -0.13455(16) 0.41626(10)
C48B C 0.51766(11) -0.17445(17) 0.24784(10)
H43B H 0.5375 -0.1130 0.2433
C49B C 0.68253(12) -0.2785(2) 0.46148(12)
H44B H 0.6921 -0.2075 0.4756
H45B H 0.6593 -0.2774 0.4168
C50B C 0.39286(12) -0.17905(19) 0.09222(11)
H46B H 0.3619 -0.2062 0.1066
C51B C 0.11024(12) -0.0299(2) 0.24654(11)
H47B H 0.0676 -0.0403 0.2204
C52B C 0.53046(11) -0.21496(17) 0.30718(10)
H48B H 0.5585 -0.1805 0.3418
C53B C 0.74517(13) -0.3379(2) 0.47548(13)
H49B H 0.7670 -0.3428 0.5198
H50B H 0.7359 -0.4063 0.4581
H51B H 0.7723 -0.3023 0.4574
C54B C 0.57443(12) -0.14249(18) 0.14368(10)
C55B C 0.45799(11) -0.18026(16) 0.13146(10)
C56B C 0.31343(11) -0.09755(17) 0.37484(10)
C57B C 0.50311(11) -0.13747(16) 0.10820(10)
C58B C 0.37340(13) -0.13837(19) 0.03244(11)
H52B H 0.3299 -0.1394 0.0072
C59B C 0.25981(13) -0.27179(18) 0.34044(13)
H53B H 0.2928 -0.2995 0.3767
H54B H 0.2182 -0.2940 0.3396
H55B H 0.2665 -0.2962 0.3037
C60B C 0.47577(11) -0.22318(16) 0.43484(10)
C61B C 0.44615(11) -0.31652(17) 0.20317(10)
H56B H 0.4180 -0.3511 0.1686
C62B C 0.48288(12) -0.09513(17) 0.04832(10)
H57B H 0.5132 -0.0658 0.0338
C63B C 0.40325(11) -0.09198(17) 0.47663(10)
H58B H 0.3772 -0.0490 0.4902
C64B C 0.21194(11) -0.09359(18) 0.30995(10)
C65B C 0.14889(12) -0.11519(19) 0.27067(11)
H59B H 0.1338 -0.1827 0.2613
C66B C 0.13330(12) 0.0721(2) 0.26028(11)
H60B H 0.1057 0.1272 0.2427
N8B N 0.56631(9) -0.20899(14) 0.52109(8)
Cl1 Cl 0.70591(3) 0.01439(5) 0.41897(3)
O5 O 0.75378(10) -0.04285(17) 0.40400(9)
O6 O 0.64286(10) -0.02611(17) 0.38637(12)
O7 O 0.72092(11) 0.0094(2) 0.48465(10)
O8 O 0.70850(12) 0.12022(16) 0.40003(14)
Cl2 Cl 0.23266(3) 0.44771(4) 0.34128(3)
O9 O 0.26645(10) 0.44927(18) 0.29635(9)
O10 O 0.27403(9) 0.49813(14) 0.39691(8)
O11 O 0.22169(11) 0.34312(16) 0.35435(12)
O12 O 0.17338(9) 0.50355(15) 0.31414(10)
O13 O 0.77716(13) 0.4100(3) 0.80494(10)
H61 H 0.7709 0.3754 0.8338
H62 H 0.7437 0.4457 0.7857
loop_
_geom_bond_atom_site_label_1
_geom_bond_atom_site_label_2
_geom_bond_site_symmetry_1
_geom_bond_site_symmetry_2
Ag1 N1 1_555 1_555
N1 C10 1_555 1_555
N2 C11 1_555 1_555
C1 H1 1_555 1_555
C2 H2 1_555 1_555
O1 H3 1_555 1_555
C3 C2 1_555 1_555
C4 N4 1_555 1_555
C5 H4 1_555 1_555
C6 C5 1_555 1_555
O2 C13 1_555 1_555
N3 C3 1_555 1_555
C7 C13 1_555 1_555
N4 C19 1_555 1_555
C8 H5 1_555 1_555
C9 C21 1_555 1_555
C10 C4 1_555 1_555
C11 C6 1_555 1_555
C12 H6 1_555 1_555
C13 O1 1_555 1_555
C14 C8 1_555 1_555
C15 N3 1_555 1_555
H7 C15 1_555 1_555
H8 C15 1_555 1_555
H9 C15 1_555 1_555
C16 C7 1_555 1_555
H10 C16 1_555 1_555
C17 C14 1_555 1_555
H11 C17 1_555 1_555
C18 C7 1_555 1_555
C19 N1 1_555 1_555
C20 C1 1_555 1_555
H12 C20 1_555 1_555
C21 C17 1_555 1_555
H13 C21 1_555 1_555
C22 C12 1_555 1_555
H14 C22 1_555 1_555
C23 H15 1_555 1_555
H16 C23 1_555 1_555
C24 C1 1_555 1_555
H17 C24 1_555 1_555
C25 C12 1_555 1_555
H18 C25 1_555 1_555
C26 N2 1_555 1_555
C27 C23 1_555 1_555
H19 C27 1_555 1_555
H20 C27 1_555 1_555
H21 C27 1_555 1_555
C28 C4 1_555 1_555
H22 C28 1_555 1_555
C29 C19 1_555 1_555
H23 C29 1_555 1_555
H24 C29 1_555 1_555
C30 C5 1_555 1_555
C31 C8 1_555 1_555
H25 C31 1_555 1_555
C32 C30 1_555 1_555
H26 C32 1_555 1_555
H27 C32 1_555 1_555
H28 C32 1_555 1_555
C33 N4 1_555 1_555
H29 C33 1_555 1_555
H30 C33 1_555 1_555
Ag2 N5 1_555 1_555
C34 H31 1_555 1_555
H32 C34 1_555 1_555
O3 C54 1_555 1_555
C35 H33 1_555 1_555
C36 H34 1_555 1_555
H35 C36 1_555 1_555
C37 C40 1_555 1_555
C38 N5 1_555 1_555
C39 H36 1_555 1_555
N5 C56 1_555 1_555
N6 C34 1_555 1_555
N7 C56 1_555 1_555
C40 C60 1_555 1_555
C41 C38 1_555 1_555
H37 C41 1_555 1_555
C42 C34 1_555 1_555
O4 H38 1_555 1_555
C43 C37 1_555 1_555
H39 C43 1_555 1_555
H40 C43 1_555 1_555
H41 C43 1_555 1_555
C44 H42 1_555 1_555
C45 C36 1_555 1_555
C46 C48 1_555 1_555
C47 C35 1_555 1_555
C48 H43 1_555 1_555
C49 C36 1_555 1_555
H44 C49 1_555 1_555
H45 C49 1_555 1_555
C50 H46 1_555 1_555
C51 H47 1_555 1_555
C52 C42 1_555 1_555
H48 C52 1_555 1_555
C53 C49 1_555 1_555
H49 C53 1_555 1_555
H50 C53 1_555 1_555
H51 C53 1_555 1_555
C54 O4 1_555 1_555
C55 C46 1_555 1_555
C56 C47 1_555 1_555
C57 C54 1_555 1_555
C58 C44 1_555 1_555
H52 C58 1_555 1_555
C59 N7 1_555 1_555
H53 C59 1_555 1_555
H54 C59 1_555 1_555
H55 C59 1_555 1_555
C60 C35 1_555 1_555
C61 C39 1_555 1_555
H56 C61 1_555 1_555
C62 C44 1_555 1_555
H57 C62 1_555 1_555
C63 C37 1_555 1_555
H58 C63 1_555 1_555
C64 C38 1_555 1_555
C65 C51 1_555 1_555
H59 C65 1_555 1_555
C66 C41 1_555 1_555
H60 C66 1_555 1_555
N8 C40 1_555 1_555
Cl1 O5 1_555 1_555
O6 Cl1 1_555 1_555
O7 Cl1 1_555 1_555
O8 Cl1 1_555 1_555
Cl2 O9 1_555 1_555
O10 Cl2 1_555 1_555
O11 Cl2 1_555 1_555
O12 Cl2 1_555 1_555
O13 H61 1_555 1_555
H62 O13 1_555 1_555
Ag1B N2 1_555 1_555
Ag1C O2 1_555 1_555
N2B Ag1 1_555 1_555
O2C Ag1 1_555 1_555
Ag2B N8 1_555 1_555
C34B H31B 1_555 1_555
H32B C34B 1_555 1_555
O3B C54B 1_555 1_555
C35B H33B 1_555 1_555
C36B H34B 1_555 1_555
H35B C36B 1_555 1_555
C37B C40B 1_555 1_555
C38B N5B 1_555 1_555
C39B H36B 1_555 1_555
N5B Ag2B 1_555 1_555
N6B C34B 1_555 1_555
N7B C56B 1_555 1_555
C40B C60B 1_555 1_555
C41B C38B 1_555 1_555
H37B C41B 1_555 1_555
C42B C34B 1_555 1_555
O4B H38B 1_555 1_555
C43B C37B 1_555 1_555
H39B C43B 1_555 1_555
H40B C43B 1_555 1_555
H41B C43B 1_555 1_555
C44B H42B 1_555 1_555
C45B C36B 1_555 1_555
C46B C48B 1_555 1_555
C47B C35B 1_555 1_555
C48B H43B 1_555 1_555
C49B C36B 1_555 1_555
H44B C49B 1_555 1_555
H45B C49B 1_555 1_555
C50B H46B 1_555 1_555
C51B H47B 1_555 1_555
C52B C42B 1_555 1_555
H48B C52B 1_555 1_555
C53B C49B 1_555 1_555
H49B C53B 1_555 1_555
H50B C53B 1_555 1_555
H51B C53B 1_555 1_555
C54B O4B 1_555 1_555
C55B C46B 1_555 1_555
C56B N5B 1_555 1_555
C57B C54B 1_555 1_555
C58B C44B 1_555 1_555
H52B C58B 1_555 1_555
C59B N7B 1_555 1_555
H53B C59B 1_555 1_555
H54B C59B 1_555 1_555
H55B C59B 1_555 1_555
C60B C35B 1_555 1_555
C61B C39B 1_555 1_555
H56B C61B 1_555 1_555
C62B C44B 1_555 1_555
H57B C62B 1_555 1_555
C63B C37B 1_555 1_555
H58B C63B 1_555 1_555
C64B C38B 1_555 1_555
C65B C51B 1_555 1_555
H59B C65B 1_555 1_555
C66B C41B 1_555 1_555
H60B C66B 1_555 1_555
N8B Ag2 1_555 1_555
C2 C24 1_555 1_555
C3 C26 1_555 1_555
C6 C28 1_555 1_555
N3 C11 1_555 1_555
C9 C31 1_555 1_555
C9 C33 1_555 1_555
C10 C30 1_555 1_555
C14 C18 1_555 1_555
C16 C25 1_555 1_555
C18 C22 1_555 1_555
C20 C26 1_555 1_555
C23 C29 1_555 1_555
C39 C42 1_555 1_555
N6 C45 1_555 1_555
N6 C60 1_555 1_555
N7 C64 1_555 1_555
C45 N8 1_555 1_555
C46 C61 1_555 1_555
C47 C63 1_555 1_555
C48 C52 1_555 1_555
C50 C55 1_555 1_555
C50 C58 1_555 1_555
C51 C66 1_555 1_555
C55 C57 1_555 1_555
C57 C62 1_555 1_555
C64 C65 1_555 1_555
C39B C42B 1_555 1_555
N6B C45B 1_555 1_555
N6B C60B 1_555 1_555
N7B C64B 1_555 1_555
C40B N8B 1_555 1_555
C45B N8B 1_555 1_555
C46B C61B 1_555 1_555
C47B C56B 1_555 1_555
C47B C63B 1_555 1_555
C48B C52B 1_555 1_555
C50B C55B 1_555 1_555
C50B C58B 1_555 1_555
C51B C66B 1_555 1_555
C55B C57B 1_555 1_555
C57B C62B 1_555 1_555
C64B C65B 1_555 1_555

#END
