
#######################################################################
#
#                 Cambridge Crystallographic Data Centre
#                                CCDC 
#
#######################################################################
#
# If this CIF has been generated from an entry in the Cambridge 
# Structural Database, then it will include bibliographic, chemical, 
# crystal, experimental, refinement or atomic coordinate data resulting 
# from the CCDC's data processing and validation procedures.
#
#######################################################################

data_FOGPOI
_symmetry_cell_setting           monoclinic
_symmetry_space_group_name_H-M   'C 2/c'
_symmetry_Int_Tables_number      15
_space_group_name_Hall           '-C 2yn'
loop_
_symmetry_equiv_pos_site_id
_symmetry_equiv_pos_as_xyz
1 x,y,z
2 -x,y,1/2-z
3 1/2+x,1/2+y,z
4 1/2-x,1/2+y,1/2-z
5 -x,-y,-z
6 x,-y,1/2+z
7 1/2-x,1/2-y,-z
8 1/2+x,1/2-y,1/2+z
_cell_length_a                   38.973(2)
_cell_length_b                   17.2005(3)
_cell_length_c                   29.5303(19)
_cell_angle_alpha                90
_cell_angle_beta                 139.054(12)
_cell_angle_gamma                90
_cell_volume                     12973.1
loop_
_atom_site_label
_atom_site_type_symbol
_atom_site_fract_x
_atom_site_fract_y
_atom_site_fract_z
Cd1 Cd 0.747751(6) 0.373078(11) 0.865267(9)
O1 O 0.73919(8) 0.49035(12) 0.88477(10)
O2 O 1.19123(7) 0.20202(12) 1.26856(10)
N1 N 0.67057(8) 0.86632(13) 0.58422(11)
O3 O 1.19969(10) 0.08379(13) 1.25077(12)
O4 O 0.66221(10) 0.43830(14) 0.82468(14)
N2 N 0.77434(8) 0.29304(14) 0.94832(11)
N3 N 0.59211(8) 0.82122(14) 0.52571(11)
N4 N 0.96537(9) 0.53627(15) 1.15539(12)
N5 N 0.82438(8) 0.22584(14) 1.04614(11)
N6 N 0.76798(9) 0.59022(15) 0.71149(14)
N7 N 0.99782(8) 0.41541(15) 1.18764(11)
N8 N 0.72793(11) 0.50539(16) 0.62603(16)
C1 C 0.60803(11) 1.05749(19) 0.54419(15)
H1 H 0.6132 1.1110 0.5486
C2 C 0.83831(10) 0.43304(17) 1.03444(13)
H2 H 0.8023 0.4403 0.9999
C3 C 0.85761(10) 0.35652(17) 1.05412(14)
C4 C 0.63851(10) 0.92878(16) 0.56278(13)
C5 C 0.58912(10) 0.90051(18) 0.52642(13)
C6 C 0.75075(10) 0.22169(16) 0.93310(14)
C7 C 0.72520(11) 0.58576(18) 0.75741(15)
H3 H 0.7135 0.5510 0.7238
C8 C 0.91145(10) 0.34211(17) 1.10532(13)
H4 H 0.9251 0.2920 1.1188
C9 C 0.72433(11) 0.62756(17) 0.65091(16)
C10 C 0.70633(10) 0.70260(17) 0.64069(14)
H5 H 0.7241 0.7370 0.6772
C11 C 0.92439(10) 0.48380(17) 1.11594(14)
C12 C 0.64145(9) 0.80302(16) 0.56054(13)
C13 C 0.87003(10) 0.49824(17) 1.06372(14)
C14 C 0.94333(10) 0.40753(17) 1.13478(13)
C15 C 1.05088(10) 0.31989(17) 1.19551(13)
C16 C 1.07509(10) 0.33664(18) 1.14136(14)
H6 H 1.0797 0.3693 1.1211
C17 C 0.64866(10) 1.00811(17) 0.57155(14)
H7 H 0.6810 1.0274 0.5945
C18 C 0.54891(10) 0.95009(19) 0.50015(14)
H8 H 0.5165 0.9312 0.4770
C19 C 0.81907(10) 0.29231(17) 1.01676(14)
C20 C 0.69280(11) 0.11488(18) 0.86993(16)
H9 H 0.6628 0.0918 0.8283
C21 C 0.66031(10) 0.72336(17) 0.57281(14)
C22 C 0.84870(11) 0.57943(18) 1.04256(16)
H10 H 0.8112 0.5777 1.0034
H11 H 0.8623 0.6074 1.0305
H12 H 0.8590 0.6052 1.0802
C23 C 1.17902(11) 0.14882(18) 1.22866(16)
C24 C 1.14032(11) 0.16755(17) 1.15294(15)
C25 C 0.55984(11) 1.02809(19) 0.51039(15)
H13 H 0.5341 1.0628 0.4942
C26 C 1.10029(10) 0.22333(18) 1.11754(14)
C27 C 0.76845(11) 0.63212(18) 0.79164(16)
C28 C 0.70505(10) 0.18972(18) 0.86920(14)
H14 H 0.6840 0.2176 0.8283
C29 C 0.69928(11) 0.59064(18) 0.77265(16)
H15 H 0.6701 0.5595 0.7487
C30 C 1.00842(10) 0.49329(18) 1.19749(14)
C31 C 1.07813(10) 0.21002(18) 1.17750(14)
H16 H 1.0848 0.1570 1.1819
C32 C 1.03521(10) 0.35135(18) 1.22591(14)
H17 H 1.0202 0.3092 1.2286
H18 H 1.0665 0.3687 1.2727
C33 C 1.08555(10) 0.25796(18) 1.14738(14)
C34 C 1.14795(13) 0.13077(18) 1.11855(17)
H19 H 1.1732 0.0921 1.1410
C35 C 0.78163(10) 0.17865(17) 0.99389(14)
C36 C 1.06083(10) 0.24092(18) 1.20095(14)
H20 H 1.0558 0.2082 1.2206
C37 C 0.71603(12) 0.64135(18) 0.82316(17)
C38 C 0.69190(12) 0.49550(19) 0.85129(16)
C39 C 0.72379(11) 0.07250(18) 0.93102(16)
H21 H 0.7141 0.0221 0.9290
C40 C 0.76886(11) 0.10426(18) 0.99467(16)
H22 H 0.7893 0.0768 1.0356
C41 C 0.69928(12) 0.57443(17) 0.59779(17)
C42 C 0.86496(11) 0.20544(18) 1.11952(14)
H23 H 0.8925 0.1774 1.1320
H24 H 0.8501 0.1735 1.1280
H25 H 0.8790 0.2520 1.1467
C43 C 1.07133(11) 0.2429(2) 1.05030(15)
H26 H 1.0451 0.2802 1.0267
C44 C 1.05783(10) 0.36764(17) 1.16511(15)
H27 H 1.0509 0.4206 1.1605
C45 C 0.55237(11) 0.76595(19) 0.50115(17)
H28 H 0.5375 0.7835 0.5144
H29 H 0.5681 0.7158 0.5212
H30 H 0.5253 0.7622 0.4517
C46 C 0.76821(12) 0.51756(19) 0.69385(18)
C47 C 0.63403(11) 0.66982(18) 0.51793(15)
H31 H 0.6031 0.6852 0.4731
C48 C 0.65283(12) 0.59542(18) 0.52887(17)
C49 C 0.68774(13) 0.6435(2) 0.83893(17)
C50 C 0.67248(15) 0.7144(2) 0.8422(2)
H32 H 0.6823 0.7603 0.8377
C51 C 0.67373(13) 0.5751(2) 0.84745(17)
C52 C 1.06346(11) 0.5248(2) 1.25182(16)
H33 H 1.0858 0.4880 1.2584
H34 H 1.0759 0.5287 1.2951
C53 C 1.11846(14) 0.1513(2) 1.05182(18)
H35 H 1.1240 0.1267 1.0297
C54 C 0.78387(12) 0.68606(18) 0.84007(16)
H36 H 0.8117 0.7194 0.8620
C55 C 0.81031(14) 0.4584(2) 0.7434(2)
H37 H 0.8380 0.4822 0.7887
H38 H 0.8251 0.4442 0.7290
C56 C 0.75830(12) 0.69019(19) 0.85557(16)
H39 H 0.7693 0.7261 0.8881
C57 C 0.79945(12) 0.62343(19) 0.77939(17)
H40 H 0.8124 0.6740 0.7830
H41 H 0.8294 0.5902 0.8149
C58 C 0.83613(13) 0.32553(19) 0.79581(17)
H42 H 0.8469 0.3110 0.7766
H43 H 0.8235 0.2805 0.7990
H44 H 0.8654 0.3471 0.8411
C59 C 1.08029(13) 0.2091(2) 1.01771(17)
H45 H 1.0611 0.2245 0.9734
C60 C 0.79280(13) 0.38566(19) 0.74961(18)
H46 H 0.7633 0.3636 0.7040
H47 H 0.7811 0.3987 0.7682
C61 C 0.62440(15) 0.5390(2) 0.4702(2)
H48 H 0.6488 0.5159 0.4737
H49 H 0.5978 0.5661 0.4270
H50 H 0.6085 0.4990 0.4724
C62 C 1.06922(14) 0.6040(2) 1.2351(2)
H51 H 1.0500 0.6419 1.2336
H52 H 1.1059 0.6188 1.2724
C63 C 0.64296(16) 0.5788(2) 0.8560(2)
H53 H 0.6329 0.5332 0.8605
C64 C 0.64292(18) 0.7178(3) 0.8521(2)
H54 H 0.6336 0.7657 0.8548
C65 C 1.05054(16) 0.6084(3) 1.1684(2)
H55 H 1.0140 0.5957 1.1307
H56 H 1.0699 0.5721 1.1695
H57 H 1.0558 0.6600 1.1623
C66 C 0.62739(19) 0.6505(3) 0.8578(3)
H58 H 0.6066 0.6528 0.8628
Cd1C Cd 0.752249(6) 0.873078(11) 0.634733(9)
Cd1G Cd 1.247751(6) 0.126922(11) 1.365267(9)
O2G O 0.69123(7) 0.29798(12) 0.76856(10)
N1C N 0.82943(8) 0.36632(13) 0.91578(11)
O3G O 0.69969(10) 0.41621(13) 0.75077(12)
loop_
_geom_bond_atom_site_label_1
_geom_bond_atom_site_label_2
_geom_bond_site_symmetry_1
_geom_bond_site_symmetry_2
Cd1 O1 1_555 1_555
O1 C38 1_555 1_555
O2 C23 1_555 1_555
N1 C4 1_555 1_555
O3 C23 1_555 1_555
O4 Cd1 1_555 1_555
N2 Cd1 1_555 1_555
N3 C5 1_555 1_555
N4 C11 1_555 1_555
N5 C19 1_555 1_555
N6 C9 1_555 1_555
N7 C14 1_555 1_555
N8 C41 1_555 1_555
C1 H1 1_555 1_555
C2 H2 1_555 1_555
C3 C2 1_555 1_555
C4 C5 1_555 1_555
C5 C18 1_555 1_555
C6 N2 1_555 1_555
C7 H3 1_555 1_555
C8 C3 1_555 1_555
H4 C8 1_555 1_555
C9 C10 1_555 1_555
C10 H5 1_555 1_555
C11 C13 1_555 1_555
C12 N1 1_555 1_555
C13 C2 1_555 1_555
C14 C8 1_555 1_555
C15 C32 1_555 1_555
C16 H6 1_555 1_555
C17 C1 1_555 1_555
H7 C17 1_555 1_555
C18 H8 1_555 1_555
C19 N2 1_555 1_555
C20 H9 1_555 1_555
C21 C10 1_555 1_555
C22 C13 1_555 1_555
H10 C22 1_555 1_555
H11 C22 1_555 1_555
H12 C22 1_555 1_555
C23 C24 1_555 1_555
C24 C26 1_555 1_555
C25 C1 1_555 1_555
H13 C25 1_555 1_555
C26 C33 1_555 1_555
C27 C7 1_555 1_555
C28 C6 1_555 1_555
H14 C28 1_555 1_555
C29 C7 1_555 1_555
H15 C29 1_555 1_555
C30 N4 1_555 1_555
C31 H16 1_555 1_555
C32 N7 1_555 1_555
H17 C32 1_555 1_555
H18 C32 1_555 1_555
C33 C16 1_555 1_555
C34 C24 1_555 1_555
H19 C34 1_555 1_555
C35 N5 1_555 1_555
C36 C15 1_555 1_555
H20 C36 1_555 1_555
C37 C29 1_555 1_555
C38 O4 1_555 1_555
C39 C20 1_555 1_555
H21 C39 1_555 1_555
C40 C35 1_555 1_555
H22 C40 1_555 1_555
C41 C9 1_555 1_555
C42 N5 1_555 1_555
H23 C42 1_555 1_555
H24 C42 1_555 1_555
H25 C42 1_555 1_555
C43 C26 1_555 1_555
H26 C43 1_555 1_555
C44 C15 1_555 1_555
H27 C44 1_555 1_555
C45 N3 1_555 1_555
H28 C45 1_555 1_555
H29 C45 1_555 1_555
H30 C45 1_555 1_555
C46 N6 1_555 1_555
C47 C21 1_555 1_555
H31 C47 1_555 1_555
C48 C41 1_555 1_555
C49 C37 1_555 1_555
C50 C49 1_555 1_555
H32 C50 1_555 1_555
C51 C38 1_555 1_555
C52 C30 1_555 1_555
H33 C52 1_555 1_555
H34 C52 1_555 1_555
C53 C34 1_555 1_555
H35 C53 1_555 1_555
C54 C27 1_555 1_555
H36 C54 1_555 1_555
C55 C46 1_555 1_555
H37 C55 1_555 1_555
H38 C55 1_555 1_555
C56 C37 1_555 1_555
H39 C56 1_555 1_555
C57 N6 1_555 1_555
H40 C57 1_555 1_555
H41 C57 1_555 1_555
C58 H42 1_555 1_555
H43 C58 1_555 1_555
H44 C58 1_555 1_555
C59 C43 1_555 1_555
H45 C59 1_555 1_555
C60 C55 1_555 1_555
H46 C60 1_555 1_555
H47 C60 1_555 1_555
C61 C48 1_555 1_555
H48 C61 1_555 1_555
H49 C61 1_555 1_555
H50 C61 1_555 1_555
C62 C52 1_555 1_555
H51 C62 1_555 1_555
H52 C62 1_555 1_555
C63 C51 1_555 1_555
H53 C63 1_555 1_555
C64 C50 1_555 1_555
H54 C64 1_555 1_555
C65 C62 1_555 1_555
H55 C65 1_555 1_555
H56 C65 1_555 1_555
H57 C65 1_555 1_555
C66 C63 1_555 1_555
H58 C66 1_555 1_555
Cd1C N1 1_555 1_555
Cd1G O2 1_555 1_555
O2G Cd1 1_555 1_555
N1C Cd1 1_555 1_555
O3G Cd1 1_555 1_555
O3 Cd1G 1_555 1_555
N3 C12 1_555 1_555
N7 C30 1_555 1_555
N8 C46 1_555 1_555
C3 C19 1_555 1_555
C4 C17 1_555 1_555
C6 C35 1_555 1_555
C11 C14 1_555 1_555
C12 C21 1_555 1_555
C16 C44 1_555 1_555
C18 C25 1_555 1_555
C20 C28 1_555 1_555
C27 C57 1_555 1_555
C31 C33 1_555 1_555
C31 C36 1_555 1_555
C39 C40 1_555 1_555
C47 C48 1_555 1_555
C49 C51 1_555 1_555
C53 C59 1_555 1_555
C54 C56 1_555 1_555
C58 C60 1_555 1_555
C64 C66 1_555 1_555

#END
