
#######################################################################
#
#                 Cambridge Crystallographic Data Centre
#                                CCDC 
#
#######################################################################
#
# If this CIF has been generated from an entry in the Cambridge 
# Structural Database, then it will include bibliographic, chemical, 
# crystal, experimental, refinement or atomic coordinate data resulting 
# from the CCDC's data processing and validation procedures.
#
#######################################################################

data_FOGRIE
_symmetry_cell_setting           monoclinic
_symmetry_space_group_name_H-M   'P 21/c'
_symmetry_Int_Tables_number      14
_space_group_name_Hall           '-P 2ybc'
loop_
_symmetry_equiv_pos_site_id
_symmetry_equiv_pos_as_xyz
1 x,y,z
2 -x,1/2+y,1/2-z
3 -x,-y,-z
4 x,1/2-y,1/2+z
_cell_length_a                   10.2738(2)
_cell_length_b                   20.8895(5)
_cell_length_c                   19.9247(5)
_cell_angle_alpha                90
_cell_angle_beta                 97.822(2)
_cell_angle_gamma                90
_cell_volume                     4236.34
loop_
_atom_site_label
_atom_site_type_symbol
_atom_site_fract_x
_atom_site_fract_y
_atom_site_fract_z
Co1 Co 0.31755(6) 0.33571(3) 0.66196(3)
P1 P 0.53526(12) 0.41096(7) 0.78769(7)
P2 P -0.21648(14) 0.78936(7) 0.99502(7)
N1 N 0.5924(4) 0.18198(19) 0.6927(2)
N2 N 0.4344(4) 0.2514(2) 0.6626(2)
N3 N 0.8630(3) 0.01077(18) 0.8007(2)
N4 N 0.8049(4) -0.08345(19) 0.8358(2)
N5 N 1.0619(4) 0.21142(19) 0.7504(2)
N6 N 1.2020(4) 0.28329(19) 0.7229(2)
C1 C 0.4964(6) 0.4117(3) 0.8730(3)
H1 H 0.4709 0.3687 0.8845
H2 H 0.5751 0.4227 0.9034
C2 C 0.3877(6) 0.4576(3) 0.8855(3)
C3 C 0.2562(6) 0.4458(3) 0.8630(3)
H3 H 0.2317 0.4094 0.8376
C4 C 0.1604(6) 0.4888(3) 0.8785(3)
H4 H 0.0727 0.4801 0.8629
C5 C 0.1905(5) 0.5437(3) 0.9163(3)
C6 C 0.3231(6) 0.5558(3) 0.9360(3)
H5 H 0.3483 0.5930 0.9599
C7 C 0.4188(6) 0.5133(3) 0.9206(3)
H6 H 0.5068 0.5229 0.9345
C8 C 0.0881(6) 0.5869(3) 0.9370(3)
C9 C -0.0376(6) 0.5648(3) 0.9436(3)
H7 H -0.0610 0.5230 0.9310
C10 C -0.1284(6) 0.6045(3) 0.9688(3)
H8 H -0.2112 0.5881 0.9729
C11 C -0.1014(6) 0.6658(3) 0.9877(3)
C12 C 0.0226(6) 0.6885(3) 0.9793(4)
H9 H 0.0446 0.7307 0.9907
C13 C 0.1138(6) 0.6497(3) 0.9543(3)
H10 H 0.1954 0.6667 0.9489
C14 C -0.2015(6) 0.7063(3) 1.0171(3)
H11 H -0.2547 0.6884 1.0464
C15 C 0.7924(6) 0.3975(4) 0.8222(5)
H12 H 0.7876 0.4127 0.8678
H13 H 0.8121 0.4339 0.7951
C16 C 0.8980(7) 0.3508(4) 0.8240(5)
H14 H 0.9794 0.3702 0.8430
H15 H 0.9045 0.3365 0.7788
H16 H 0.8795 0.3149 0.8513
C17 C -0.0626(11) 0.8871(6) 1.0319(4)
H17 H -0.0956 0.9002 0.9860
H18 H -0.1018 0.9144 1.0630
C18 C 0.0741(15) 0.8932(8) 1.0431(7)
H19 H 0.0979 0.9370 1.0368
H20 H 0.1122 0.8666 1.0117
H21 H 0.1061 0.8801 1.0886
C19 C 0.7184(4) 0.1573(2) 0.7195(2)
C20 C 0.7283(4) 0.0968(2) 0.7464(2)
H22 H 0.6536 0.0716 0.7461
C21 C 0.8503(4) 0.0733(2) 0.7739(2)
C22 C 0.9622(5) 0.1107(2) 0.7744(2)
H23 H 1.0445 0.0949 0.7921
C23 C 0.9483(4) 0.1723(2) 0.7479(2)
C24 C 0.8276(4) 0.1959(2) 0.7195(2)
H24 H 0.8201 0.2367 0.7007
C25 C 0.5584(5) 0.2440(2) 0.6869(3)
H25 H 0.6161 0.2777 0.6988
C26 C 0.3854(5) 0.1905(3) 0.6527(3)
H26 H 0.2989 0.1807 0.6356
C27 C 0.4804(5) 0.1467(3) 0.6713(3)
H27 H 0.4723 0.1024 0.6700
C28 C 0.7635(4) -0.0287(2) 0.8122(3)
H28 H 0.6752 -0.0174 0.8039
C29 C 0.9399(5) -0.0811(3) 0.8405(3)
H29 H 0.9968 -0.1142 0.8558
C30 C 0.9768(5) -0.0235(3) 0.8195(3)
H30 H 1.0623 -0.0095 0.8179
C31 C 1.0912(5) 0.2529(2) 0.7028(2)
H31 H 1.0398 0.2593 0.6612
C32 C 1.2463(5) 0.2596(3) 0.7862(3)
H32 H 1.3240 0.2719 0.8127
C33 C 1.1612(5) 0.2162(3) 0.8046(3)
H33 H 1.1678 0.1939 0.8453
O1 O 0.5552(4) 0.47782(18) 0.7661(2)
O2 O 0.4384(3) 0.37064(18) 0.74524(19)
O3 O 0.6664(3) 0.37114(18) 0.7942(2)
O4 O -0.1986(3) 0.80032(16) 0.92264(16)
O5 O -0.3443(4) 0.81344(19) 1.0148(2)
O6 O -0.0975(4) 0.8200(2) 1.04227(19)
O7 O 0.4329(3) 0.38807(18) 0.59344(19)
Co1_2 Co 1.31755(6) 0.33571(3) 0.66196(3)
Co1A Co -0.31755(6) 0.83571(3) 0.83804(3)
Co1A_2 Co 0.68245(6) -0.16429(3) 0.83804(3)
N4A N 0.1951(4) 0.41655(19) 0.6642(2)
N6_2 N 0.2020(4) 0.28329(19) 0.7229(2)
O4A O 0.1986(3) 0.30032(16) 0.57736(16)
O8 O 0.7905(6) 0.3140(3) 0.6057(3)
O9 O 0.7132(5) 0.5397(3) 0.6910(4)
O10 O 0.6915(6) 0.4375(3) 0.5987(4)
O11 O -0.4613(7) 0.8739(3) 1.1129(3)
O12 O 0.5943(6) 0.2476(4) 0.5065(4)
O13 O 0.6138(7) 0.4791(3) 0.4557(4)
O14 O 0.6261(10) 0.2364(5) 0.8716(5)
loop_
_geom_bond_atom_site_label_1
_geom_bond_atom_site_label_2
_geom_bond_site_symmetry_1
_geom_bond_site_symmetry_2
Co1 N2 1_555 1_555
P1 C1 1_555 1_555
P2 C14 1_555 1_555
N1 C19 1_555 1_555
N2 C25 1_555 1_555
N3 C21 1_555 1_555
N4 C28 1_555 1_555
N5 C23 1_555 1_555
N6 C31 1_555 1_555
C1 H1 1_555 1_555
H2 C1 1_555 1_555
C2 C1 1_555 1_555
C3 C2 1_555 1_555
H3 C3 1_555 1_555
C4 C3 1_555 1_555
H4 C4 1_555 1_555
C5 C4 1_555 1_555
C6 C5 1_555 1_555
H5 C6 1_555 1_555
C7 C2 1_555 1_555
H6 C7 1_555 1_555
C8 C5 1_555 1_555
C9 C8 1_555 1_555
H7 C9 1_555 1_555
C10 C9 1_555 1_555
H8 C10 1_555 1_555
C11 C10 1_555 1_555
C12 C11 1_555 1_555
H9 C12 1_555 1_555
C13 C8 1_555 1_555
H10 C13 1_555 1_555
C14 C11 1_555 1_555
H11 C14 1_555 1_555
C15 H12 1_555 1_555
H13 C15 1_555 1_555
C16 C15 1_555 1_555
H14 C16 1_555 1_555
H15 C16 1_555 1_555
H16 C16 1_555 1_555
C17 H17 1_555 1_555
H18 C17 1_555 1_555
C18 C17 1_555 1_555
H19 C18 1_555 1_555
H20 C18 1_555 1_555
H21 C18 1_555 1_555
C19 C20 1_555 1_555
C20 H22 1_555 1_555
C21 C20 1_555 1_555
C22 C21 1_555 1_555
H23 C22 1_555 1_555
C23 C22 1_555 1_555
C24 C19 1_555 1_555
H24 C24 1_555 1_555
C25 N1 1_555 1_555
H25 C25 1_555 1_555
C26 N2 1_555 1_555
H26 C26 1_555 1_555
C27 N1 1_555 1_555
H27 C27 1_555 1_555
C28 N3 1_555 1_555
H28 C28 1_555 1_555
C29 N4 1_555 1_555
H29 C29 1_555 1_555
C30 N3 1_555 1_555
H30 C30 1_555 1_555
C31 N5 1_555 1_555
H31 C31 1_555 1_555
C32 N6 1_555 1_555
H32 C32 1_555 1_555
C33 N5 1_555 1_555
H33 C33 1_555 1_555
O1 P1 1_555 1_555
O2 Co1 1_555 1_555
O3 P1 1_555 1_555
O4 P2 1_555 1_555
O5 P2 1_555 1_555
O6 P2 1_555 1_555
O7 Co1 1_555 1_555
Co1_2 N6 1_555 1_555
Co1A O4 1_555 1_555
Co1A_2 N4 1_555 1_555
N4A Co1 1_555 1_555
N6_2 Co1 1_555 1_555
O4A Co1 1_555 1_555
P1 O2 1_555 1_555
C6 C7 1_555 1_555
C12 C13 1_555 1_555
C15 O3 1_555 1_555
C17 O6 1_555 1_555
C23 C24 1_555 1_555
C26 C27 1_555 1_555
C29 C30 1_555 1_555
C32 C33 1_555 1_555

#END
