
#######################################################################
#
#                 Cambridge Crystallographic Data Centre
#                                CCDC 
#
#######################################################################
#
# If this CIF has been generated from an entry in the Cambridge 
# Structural Database, then it will include bibliographic, chemical, 
# crystal, experimental, refinement or atomic coordinate data resulting 
# from the CCDC's data processing and validation procedures.
#
#######################################################################

data_FOGXEF
_symmetry_cell_setting           triclinic
_symmetry_space_group_name_H-M   'P -1'
_symmetry_Int_Tables_number      2
_space_group_name_Hall           '-P 1'
loop_
_symmetry_equiv_pos_site_id
_symmetry_equiv_pos_as_xyz
1 x,y,z
2 -x,-y,-z
_cell_length_a                   9.5043(19)
_cell_length_b                   9.812(2)
_cell_length_c                   11.584(2)
_cell_angle_alpha                70.73(3)
_cell_angle_beta                 67.49(3)
_cell_angle_gamma                83.26(3)
_cell_volume                     942.013
loop_
_atom_site_label
_atom_site_type_symbol
_atom_site_fract_x
_atom_site_fract_y
_atom_site_fract_z
Co1 Co 0.91556(4) 0.34177(4) 0.23458(3)
O1 O 0.7464(2) 0.3732(2) 0.1458(2)
O2 O 0.7304(2) 0.1815(2) 0.3154(2)
O3 O 0.2628(2) -0.0166(2) 0.1303(2)
O4 O 0.0638(2) 0.2041(2) 0.1440(2)
O5 O 0.0511(3) 0.2243(3) -0.0513(2)
O6 O 1.0561(2) 0.5141(2) 0.11067(19)
N1 N 0.7834(2) 0.4793(2) 0.3502(2)
N2 N 0.9777(2) 0.2700(2) 0.4016(2)
C1 C 0.6905(3) 0.5859(3) 0.3209(4)
C2 C 0.6080(4) 0.6616(4) 0.4097(5)
C3 C 0.6204(4) 0.6276(4) 0.5285(5)
C4 C 0.7165(4) 0.5141(4) 0.5645(3)
C5 C 0.7382(5) 0.4677(5) 0.6878(4)
C6 C 0.8344(5) 0.3604(5) 0.7142(3)
C7 C 0.9216(4) 0.2915(4) 0.6185(3)
C8 C 1.0281(4) 0.1821(4) 0.6387(3)
C9 C 1.1057(4) 0.1227(4) 0.5431(4)
C10 C 1.0777(3) 0.1677(3) 0.4249(3)
C11 C 0.9016(3) 0.3318(3) 0.4975(3)
C12 C 0.7970(3) 0.4449(3) 0.4692(3)
C13 C 0.6892(3) 0.2499(3) 0.2210(3)
C14 C 0.5711(3) 0.1858(3) 0.1965(3)
C15 C 0.5340(3) 0.2523(3) 0.0860(3)
C16 C 0.4300(3) 0.1908(3) 0.0595(3)
C17 C 0.3643(3) 0.0577(3) 0.1449(3)
C18 C 0.3994(3) -0.0089(3) 0.2572(3)
C19 C 0.5030(3) 0.0547(3) 0.2820(3)
C20 C 0.2096(3) 0.0466(3) 0.0250(3)
C21 C 0.0978(3) 0.1706(3) 0.0416(3)
H1 H 1.013(4) 0.595(2) 0.093(3)
H2 H 1.131(3) 0.507(3) 0.044(2)
H3 H 0.6799 0.6109 0.2399
H4 H 0.5441 0.7360 0.3865
H5 H 0.5659 0.6788 0.5863
H6 H 0.6845 0.5129 0.7509
H7 H 0.8441 0.3309 0.7958
H8 H 1.0447 0.1514 0.7175
H9 H 1.1777 0.0520 0.5548
H10 H 1.1313 0.1241 0.3606
H11 H 0.5800 0.3402 0.0283
H12 H 0.4047 0.2377 -0.0139
H13 H 0.3530 -0.0963 0.3157
H14 H 0.5269 0.0091 0.3563
H15 H 0.1605 -0.0280 0.0154
H16 H 0.2968 0.0821 -0.0556
Co1_2 Co -0.08444(4) 0.34177(4) 0.23458(3)
O4_2 O 1.0638(2) 0.2041(2) 0.1440(2)
loop_
_geom_bond_atom_site_label_1
_geom_bond_atom_site_label_2
_geom_bond_site_symmetry_1
_geom_bond_site_symmetry_2
Co1 O1 1_555 1_555
O1 C13 1_555 1_555
O2 Co1 1_555 1_555
O3 C17 1_555 1_555
O4 C21 1_555 1_555
O5 C21 1_555 1_555
O6 Co1 1_555 1_555
N1 Co1 1_555 1_555
N2 Co1 1_555 1_555
C1 N1 1_555 1_555
C2 C1 1_555 1_555
C3 C2 1_555 1_555
C4 C3 1_555 1_555
C5 C4 1_555 1_555
C6 C5 1_555 1_555
C7 C6 1_555 1_555
C8 C7 1_555 1_555
C9 C8 1_555 1_555
C10 N2 1_555 1_555
C11 N2 1_555 1_555
C12 N1 1_555 1_555
C13 O2 1_555 1_555
C14 C13 1_555 1_555
C15 C14 1_555 1_555
C16 C15 1_555 1_555
C17 C16 1_555 1_555
C18 C17 1_555 1_555
C19 C14 1_555 1_555
C20 O3 1_555 1_555
C21 C20 1_555 1_555
H1 O6 1_555 1_555
H2 O6 1_555 1_555
H3 C1 1_555 1_555
H4 C2 1_555 1_555
H5 C3 1_555 1_555
H6 C5 1_555 1_555
H7 C6 1_555 1_555
H8 C8 1_555 1_555
H9 C9 1_555 1_555
H10 C10 1_555 1_555
H11 C15 1_555 1_555
H12 C16 1_555 1_555
H13 C18 1_555 1_555
H14 C19 1_555 1_555
H15 C20 1_555 1_555
H16 C20 1_555 1_555
Co1_2 O4 1_555 1_555
O4_2 Co1 1_555 1_555
C4 C12 1_555 1_555
C7 C11 1_555 1_555
C9 C10 1_555 1_555
C11 C12 1_555 1_555
C18 C19 1_555 1_555

#END
