
#######################################################################
#
#                 Cambridge Crystallographic Data Centre
#                                CCDC 
#
#######################################################################
#
# If this CIF has been generated from an entry in the Cambridge 
# Structural Database, then it will include bibliographic, chemical, 
# crystal, experimental, refinement or atomic coordinate data resulting 
# from the CCDC's data processing and validation procedures.
#
#######################################################################

data_FOGXAB
_symmetry_cell_setting           triclinic
_symmetry_space_group_name_H-M   'P -1'
_symmetry_Int_Tables_number      2
_space_group_name_Hall           '-P 1'
loop_
_symmetry_equiv_pos_site_id
_symmetry_equiv_pos_as_xyz
1 x,y,z
2 -x,-y,-z
_cell_length_a                   10.580(3)
_cell_length_b                   11.356(3)
_cell_length_c                   11.492(3)
_cell_angle_alpha                116.06(2)
_cell_angle_beta                 100.32(2)
_cell_angle_gamma                104.936(14)
_cell_volume                     1128.41
loop_
_atom_site_label
_atom_site_type_symbol
_atom_site_fract_x
_atom_site_fract_y
_atom_site_fract_z
Zn1 Zn 0.74550(5) 0.89735(5) 0.68338(5)
O1 O 0.8747(3) 0.8960(3) 0.8255(3)
O2 O 0.8601(3) 0.6840(3) 0.6722(3)
O3 O 0.9940(3) 0.6508(3) 0.8778(3)
O4 O 0.7018(3) 0.0702(3) 0.7632(3)
O5 O 0.9159(3) 0.1644(3) 0.7723(3)
N1 N 0.5598(3) 0.7461(3) 0.6316(3)
N2 N 0.3532(4) 0.5726(4) 0.5123(4)
N3 N 0.7845(3) 0.8594(3) 0.5080(3)
N4 N 0.9021(4) 0.8260(4) 0.3624(4)
C1 C 0.4721(5) 0.6476(5) 0.5084(5)
C2 C 0.4941(4) 0.7354(4) 0.7238(4)
C3 C 0.5368(5) 0.8156(5) 0.8656(5)
C4 C 0.4463(6) 0.7845(7) 0.9298(6)
C5 C 0.3156(7) 0.6766(7) 0.8547(7)
C6 C 0.2712(6) 0.5965(6) 0.7155(7)
C7 C 0.3644(5) 0.6274(4) 0.6507(5)
C8 C 0.8739(5) 0.8060(4) 0.4632(4)
C9 C 0.7527(4) 0.9218(4) 0.4316(4)
C10 C 0.6675(5) 0.9974(5) 0.4371(5)
C11 C 0.6634(5) 1.0514(6) 0.3517(6)
C12 C 0.7383(5) 1.0324(5) 0.2624(6)
C13 C 0.8208(5) 0.9568(5) 0.2539(5)
C14 C 0.8274(4) 0.9014(4) 0.3399(4)
C15 C 0.8993(4) 0.7841(4) 0.7909(4)
C16 C 0.9893(5) 0.7856(4) 0.9107(5)
C17 C 0.8795(4) 0.5500(4) 0.8631(4)
C18 C 0.7565(5) 0.5656(4) 0.8766(5)
C19 C 0.6478(5) 0.4537(5) 0.8582(5)
C20 C 0.6589(5) 0.3245(5) 0.8251(5)
C21 C 0.7840(4) 0.3102(4) 0.8158(4)
C22 C 0.8927(4) 0.4221(4) 0.8339(4)
C23 C 0.8044(5) 0.1736(4) 0.7828(4)
H1 H 0.4901 0.6314 0.4276
H2 H 0.6240 0.8883 0.9161
H3 H 0.4732 0.8366 1.0253
H4 H 0.2568 0.6588 0.9013
H5 H 0.1834 0.5247 0.6656
H6 H 0.9138 0.7590 0.4978
H7 H 0.6157 1.0106 0.4959
H8 H 0.6078 1.1032 0.3537
H9 H 0.7322 1.0721 0.2071
H10 H 0.8705 0.9430 0.1932
H11 H 1.0831 0.8531 0.9411
H12 H 0.9540 0.8179 0.9865
H13 H 0.7471 0.6513 0.8982
H14 H 0.5657 0.4651 0.8680
H15 H 0.5839 0.2486 0.8094
H16 H 0.9758 0.4118 0.8266
H17 H 0.2833 0.5037 0.4425
H18 H 0.9567 0.7971 0.3197
Zn1_2 Zn 0.74550(5) -0.10265(5) 0.68338(5)
O4_2 O 0.7018(3) 1.0702(3) 0.7632(3)
loop_
_geom_bond_atom_site_label_1
_geom_bond_atom_site_label_2
_geom_bond_site_symmetry_1
_geom_bond_site_symmetry_2
Zn1 O1 1_555 1_555
O1 C15 1_555 1_555
O2 C15 1_555 1_555
O3 C16 1_555 1_555
O4 C23 1_555 1_555
O5 C23 1_555 1_555
N1 Zn1 1_555 1_555
N2 C1 1_555 1_555
N3 Zn1 1_555 1_555
N4 C8 1_555 1_555
C1 N1 1_555 1_555
C2 N1 1_555 1_555
C3 C2 1_555 1_555
C4 C3 1_555 1_555
C5 C4 1_555 1_555
C6 C5 1_555 1_555
C7 N2 1_555 1_555
C8 N3 1_555 1_555
C9 N3 1_555 1_555
C10 C9 1_555 1_555
C11 C10 1_555 1_555
C12 C11 1_555 1_555
C13 C12 1_555 1_555
C14 N4 1_555 1_555
C15 C16 1_555 1_555
C16 H11 1_555 1_555
C17 O3 1_555 1_555
C18 C17 1_555 1_555
C19 C18 1_555 1_555
C20 C19 1_555 1_555
C21 C20 1_555 1_555
C22 C17 1_555 1_555
C23 C21 1_555 1_555
H1 C1 1_555 1_555
H2 C3 1_555 1_555
H3 C4 1_555 1_555
H4 C5 1_555 1_555
H5 C6 1_555 1_555
H6 C8 1_555 1_555
H7 C10 1_555 1_555
H8 C11 1_555 1_555
H9 C12 1_555 1_555
H10 C13 1_555 1_555
H12 C16 1_555 1_555
H13 C18 1_555 1_555
H14 C19 1_555 1_555
H15 C20 1_555 1_555
H16 C22 1_555 1_555
H17 N2 1_555 1_555
H18 N4 1_555 1_555
Zn1_2 O4 1_555 1_555
O4_2 Zn1 1_555 1_555
C2 C7 1_555 1_555
C6 C7 1_555 1_555
C9 C14 1_555 1_555
C13 C14 1_555 1_555
C21 C22 1_555 1_555

#END
