
#######################################################################
#
#                 Cambridge Crystallographic Data Centre
#                                CCDC 
#
#######################################################################
#
# If this CIF has been generated from an entry in the Cambridge 
# Structural Database, then it will include bibliographic, chemical, 
# crystal, experimental, refinement or atomic coordinate data resulting 
# from the CCDC's data processing and validation procedures.
#
#######################################################################

data_FOGZOR
_symmetry_cell_setting           monoclinic
_symmetry_space_group_name_H-M   'C 2/c'
_symmetry_Int_Tables_number      15
_space_group_name_Hall           '-C 2yn'
loop_
_symmetry_equiv_pos_site_id
_symmetry_equiv_pos_as_xyz
1 x,y,z
2 1/2+x,1/2+y,z
3 -x,y,1/2-z
4 1/2-x,1/2+y,1/2-z
5 -x,-y,-z
6 1/2-x,1/2-y,-z
7 x,-y,1/2+z
8 1/2+x,1/2-y,1/2+z
_cell_length_a                   35.035(6)
_cell_length_b                   5.8335(10)
_cell_length_c                   16.049(3)
_cell_angle_alpha                90
_cell_angle_beta                 116.837(2)
_cell_angle_gamma                90
_cell_volume                     2926.76
loop_
_atom_site_label
_atom_site_type_symbol
_atom_site_fract_x
_atom_site_fract_y
_atom_site_fract_z
Pb1 Pb 0.220298(14) 0.43726(6) 0.29174(3)
Pb2 Pb 0.198940(14) 1.32275(7) 0.01089(3)
N1 N 0.1753(4) 0.6682(15) 0.1409(7)
N2 N 0.1942(4) 0.8436(19) 0.1209(8)
N3 N 0.1645(4) 0.9558(19) 0.0437(8)
N4 N 0.1660(3) 1.2195(19) -0.1687(7)
N5 N 0.1762(4) 1.013(2) -0.1939(8)
N6 N 0.1430(4) 0.9011(18) -0.2530(9)
O1 O 0.2537(3) 0.7955(12) 0.3201(6)
O2 O 0.2432(3) 1.0265(14) 0.0183(5)
C1 C 0.1274(4) 0.850(2) 0.0163(9)
C2 C 0.1329(4) 0.6650(18) 0.0772(8)
C3 C 0.1008(5) 0.512(3) 0.0639(9)
C4 C 0.0627(5) 0.552(3) -0.0072(12)
C5 C 0.0565(4) 0.744(3) -0.0693(10)
C6 C 0.0870(5) 0.890(3) -0.0595(10)
C7 C 0.1078(5) 1.027(2) -0.2682(9)
C8 C 0.1223(4) 1.232(2) -0.2148(9)
C9 C 0.0936(5) 1.400(2) -0.2155(11)
C10 C 0.0516(5) 1.361(3) -0.2694(12)
C11 C 0.0373(5) 1.155(3) -0.3254(13)
C12 C 0.0648(5) 0.990(3) -0.3218(12)
H1 H 0.1055 0.3865 0.1030
H2 H 0.0398 0.4557 -0.0172
H3 H 0.0294 0.7649 -0.1189
H4 H 0.0821 1.0125 -0.1003
H5 H 0.1032 1.5332 -0.1803
H6 H 0.0316 1.4673 -0.2705
H7 H 0.0083 1.1368 -0.3650
H8 H 0.0549 0.8541 -0.3548
Pb1C Pb 0.279702(14) 0.93726(6) 0.20826(3)
Pb2C Pb 0.301060(14) 0.82275(7) 0.48911(3)
Pb2E Pb 0.301060(14) 1.17725(7) -0.01089(3)
N2C N 0.3058(4) 0.3436(19) 0.3791(8)
O1C O 0.2463(3) 0.2955(12) 0.1799(6)
O1C_2 O 0.2463(3) 1.2955(12) 0.1799(6)
O2E O 0.2568(3) 1.4735(14) -0.0183(5)
loop_
_geom_bond_atom_site_label_1
_geom_bond_atom_site_label_2
_geom_bond_site_symmetry_1
_geom_bond_site_symmetry_2
Pb1 N1 1_555 1_555
Pb2 N3 1_555 1_555
N1 N2 1_555 1_555
N2 N3 1_555 1_555
N3 C1 1_555 1_555
N4 Pb2 1_555 1_555
N5 N4 1_555 1_555
N6 N5 1_555 1_555
O1 Pb1 1_555 1_555
O2 Pb2 1_555 1_555
C1 C2 1_555 1_555
C2 N1 1_555 1_555
C3 C2 1_555 1_555
C4 C3 1_555 1_555
C5 C4 1_555 1_555
C6 C1 1_555 1_555
C7 N6 1_555 1_555
C8 N4 1_555 1_555
C9 C8 1_555 1_555
C10 C9 1_555 1_555
C11 C10 1_555 1_555
C12 C7 1_555 1_555
H1 C3 1_555 1_555
H2 C4 1_555 1_555
H3 C5 1_555 1_555
H4 C6 1_555 1_555
H5 C9 1_555 1_555
H6 C10 1_555 1_555
H7 C11 1_555 1_555
H8 C12 1_555 1_555
Pb1C N2 1_555 1_555
Pb2C O1 1_555 1_555
Pb2E O2 1_555 1_555
N2C Pb1 1_555 1_555
O1C Pb1 1_555 1_555
O1C_2 Pb2 1_555 1_555
O2E Pb2 1_555 1_555
O1 Pb1C 1_555 1_555
C5 C6 1_555 1_555
C7 C8 1_555 1_555
C11 C12 1_555 1_555
Pb1C O1C_2 1_555 1_555
Pb2E O2E 1_555 1_555

#END
