
#######################################################################
#
#                 Cambridge Crystallographic Data Centre
#                                CCDC 
#
#######################################################################
#
# If this CIF has been generated from an entry in the Cambridge 
# Structural Database, then it will include bibliographic, chemical, 
# crystal, experimental, refinement or atomic coordinate data resulting 
# from the CCDC's data processing and validation procedures.
#
#######################################################################

data_FOHFEO
_symmetry_cell_setting           monoclinic
_symmetry_space_group_name_H-M   'C 2/c'
_symmetry_Int_Tables_number      15
_space_group_name_Hall           '-C 2yn'
loop_
_symmetry_equiv_pos_site_id
_symmetry_equiv_pos_as_xyz
1 x,y,z
2 1/2+x,1/2+y,z
3 -x,y,1/2-z
4 1/2-x,1/2+y,1/2-z
5 -x,-y,-z
6 1/2-x,1/2-y,-z
7 x,-y,1/2+z
8 1/2+x,1/2-y,1/2+z
_cell_length_a                   35.937(2)
_cell_length_b                   8.3365(4)
_cell_length_c                   25.4320(10)
_cell_angle_alpha                90
_cell_angle_beta                 126.0760(10)
_cell_angle_gamma                90
_cell_volume                     6158.07
loop_
_atom_site_label
_atom_site_type_symbol
_atom_site_fract_x
_atom_site_fract_y
_atom_site_fract_z
Pb1 Pb 0.231838(7) 0.50370(2) 0.489411(8)
O1 O 0.20490(10) 0.7784(3) 0.4769(2)
O2 O 0.21010(10) 0.2648(3) 0.4259(2)
N1 N 0.1452(2) 0.5296(4) 0.4204(2)
N2 N 0.22020(10) 0.5482(5) 0.3842(2)
C1 C 0.1165(2) 0.4073(6) 0.3925(3)
C2 C 0.0687(2) 0.4261(8) 0.3615(3)
C3 C 0.0515(2) 0.5730(8) 0.3599(3)
C4 C 0.0816(2) 0.7037(6) 0.3901(3)
C5 C 0.0663(2) 0.8559(7) 0.3928(3)
C6 C 0.0976(3) 0.9764(6) 0.4249(3)
C7 C 0.1445(2) 0.9525(6) 0.4535(3)
C8 C 0.1612(2) 0.8055(5) 0.4510(2)
C9 C 0.1286(2) 0.6775(6) 0.4195(2)
C10 C 0.2257(2) 0.6878(6) 0.3645(3)
C11 C 0.2173(2) 0.7050(7) 0.3029(3)
C12 C 0.2027(2) 0.5777(8) 0.2625(3)
C13 C 0.1960(2) 0.4308(7) 0.2820(3)
C14 C 0.1795(2) 0.2975(8) 0.2408(3)
C15 C 0.1731(2) 0.1567(8) 0.2630(3)
C16 C 0.1829(2) 0.1433(6) 0.3252(3)
C17 C 0.1998(2) 0.2731(6) 0.3675(2)
C18 C 0.2050(2) 0.4186(6) 0.3434(2)
H1 H 0.1280 0.3066 0.3934
H2 H 0.0491 0.3384 0.3423
H3 H 0.0201 0.5866 0.3388
H4 H 0.0352 0.8745 0.3729
H5 H 0.0876 1.0766 0.4279
H6 H 0.1649 1.0376 0.4745
H7 H 0.2353 0.7765 0.3918
H8 H 0.2218 0.8036 0.2903
H9 H 0.1971 0.5879 0.2220
H10 H 0.1730 0.3037 0.1996
H11 H 0.1619 0.0674 0.2359
H12 H 0.1780 0.0460 0.3382
Pb1E Pb 0.268162(7) 0.99630(2) 0.510589(8)
Pb1E_2 Pb 0.268162(7) -0.00370(2) 0.510589(8)
O1E O 0.29510(10) 0.7216(3) 0.5231(2)
O2E O 0.28990(10) 0.2352(3) 0.5741(2)
Pb2 Pb 0.002870(5) 0.25041(2) 0.502647(7)
O3 O 0.00930(10) 0.0165(3) 0.5623(2)
O4 O 0.04400(10) 0.4799(3) 0.5029(2)
N3 N 0.04570(10) 0.3040(4) 0.6206(2)
N4 N 0.08500(10) 0.1902(4) 0.5504(2)
C19 C 0.0629(2) 0.4435(6) 0.6490(2)
C20 C 0.0866(2) 0.4699(6) 0.7152(3)
C21 C 0.0928(2) 0.3424(7) 0.7533(2)
C22 C 0.0744(2) 0.1887(6) 0.7259(2)
C23 C 0.0777(2) 0.0557(7) 0.7621(3)
C24 C 0.0590(2) -0.0830(8) 0.7309(3)
C25 C 0.0362(2) -0.1030(6) 0.6639(3)
C26 C 0.0317(2) 0.0262(5) 0.6255(3)
C27 C 0.0513(2) 0.1743(5) 0.6583(2)
C28 C 0.1054(2) 0.0505(6) 0.5748(3)
C29 C 0.1524(2) 0.0263(6) 0.6074(3)
C30 C 0.1792(2) 0.1538(7) 0.6147(3)
C31 C 0.1595(2) 0.3048(6) 0.5895(2)
C32 C 0.1844(2) 0.4418(7) 0.5952(3)
C33 C 0.1623(2) 0.5842(7) 0.5710(3)
C34 C 0.1153(2) 0.5998(6) 0.5401(2)
C35 C 0.0881(2) 0.4711(5) 0.5315(2)
C36 C 0.1112(2) 0.3197(5) 0.5573(2)
H13 H 0.0589 0.5299 0.6229
H14 H 0.0979 0.5710 0.7331
H15 H 0.1093 0.3564 0.7980
H16 H 0.0927 0.0636 0.8068
H17 H 0.0612 -0.1710 0.7551
H18 H 0.0241 -0.2026 0.6448
H19 H 0.0873 -0.0364 0.5698
H20 H 0.1654 -0.0741 0.6240
H21 H 0.2107 0.1399 0.6367
H22 H 0.2160 0.4351 0.6155
H23 H 0.1791 0.6742 0.5754
H24 H 0.1017 0.7000 0.5246
Pb2D Pb -0.002870(5) -0.25041(2) 0.497353(7)
Pb2D_2 Pb -0.002870(5) 0.74959(2) 0.497353(7)
O3D O -0.00930(10) -0.0165(3) 0.4377(2)
O4D O -0.04400(10) 0.5201(3) 0.4971(2)
loop_
_geom_bond_atom_site_label_1
_geom_bond_atom_site_label_2
_geom_bond_site_symmetry_1
_geom_bond_site_symmetry_2
Pb1 O1 1_555 1_555
Pb2 O3 1_555 1_555
O1 C8 1_555 1_555
O2 Pb1 1_555 1_555
O3 C26 1_555 1_555
O4 Pb2 1_555 1_555
N1 Pb1 1_555 1_555
N2 Pb1 1_555 1_555
N3 Pb2 1_555 1_555
N4 Pb2 1_555 1_555
C1 N1 1_555 1_555
C2 C1 1_555 1_555
C3 C2 1_555 1_555
C4 C3 1_555 1_555
C5 C4 1_555 1_555
C6 C5 1_555 1_555
C7 C6 1_555 1_555
C8 C7 1_555 1_555
C9 N1 1_555 1_555
C10 N2 1_555 1_555
C11 C10 1_555 1_555
C12 C11 1_555 1_555
C13 C12 1_555 1_555
C14 C13 1_555 1_555
C15 C14 1_555 1_555
C16 C15 1_555 1_555
C17 O2 1_555 1_555
C18 N2 1_555 1_555
C19 N3 1_555 1_555
C20 C19 1_555 1_555
C21 C20 1_555 1_555
C22 C21 1_555 1_555
C23 C22 1_555 1_555
C24 C23 1_555 1_555
C25 C24 1_555 1_555
C26 C25 1_555 1_555
C27 N3 1_555 1_555
C28 N4 1_555 1_555
C29 C28 1_555 1_555
C30 C29 1_555 1_555
C31 C30 1_555 1_555
C32 C31 1_555 1_555
C33 C32 1_555 1_555
C34 C33 1_555 1_555
C35 O4 1_555 1_555
C36 N4 1_555 1_555
H1 C1 1_555 1_555
H2 C2 1_555 1_555
H3 C3 1_555 1_555
H4 C5 1_555 1_555
H5 C6 1_555 1_555
H6 C7 1_555 1_555
H7 C10 1_555 1_555
H8 C11 1_555 1_555
H9 C12 1_555 1_555
H10 C14 1_555 1_555
H11 C15 1_555 1_555
H12 C16 1_555 1_555
H13 C19 1_555 1_555
H14 C20 1_555 1_555
H15 C21 1_555 1_555
H16 C23 1_555 1_555
H17 C24 1_555 1_555
H18 C25 1_555 1_555
H19 C28 1_555 1_555
H20 C29 1_555 1_555
H21 C30 1_555 1_555
H22 C32 1_555 1_555
H23 C33 1_555 1_555
H24 C34 1_555 1_555
Pb1E O1 1_555 1_555
Pb1E_2 O2 1_555 1_555
Pb2D O3 1_555 1_555
Pb2D_2 O4 1_555 1_555
O1E Pb1 1_555 1_555
O2E Pb1 1_555 1_555
O3D Pb2 1_555 1_555
O4D Pb2 1_555 1_555
C4 C9 1_555 1_555
C8 C9 1_555 1_555
C13 C18 1_555 1_555
C16 C17 1_555 1_555
C17 C18 1_555 1_555
C22 C27 1_555 1_555
C26 C27 1_555 1_555
C31 C36 1_555 1_555
C34 C35 1_555 1_555
C35 C36 1_555 1_555
Pb1E O1E 1_555 1_555
Pb1E_2 O2E 1_555 1_555
Pb2D O3D 1_555 1_555
Pb2D_2 O4D 1_555 1_555

#END
