
#######################################################################
#
#                 Cambridge Crystallographic Data Centre
#                                CCDC 
#
#######################################################################
#
# If this CIF has been generated from an entry in the Cambridge 
# Structural Database, then it will include bibliographic, chemical, 
# crystal, experimental, refinement or atomic coordinate data resulting 
# from the CCDC's data processing and validation procedures.
#
#######################################################################

data_FOHFUE
_symmetry_cell_setting           orthorhombic
_symmetry_space_group_name_H-M   'P c a 21'
_symmetry_Int_Tables_number      29
_space_group_name_Hall           'P 2c -2ac'
loop_
_symmetry_equiv_pos_site_id
_symmetry_equiv_pos_as_xyz
1 x,y,z
2 -x,-y,1/2+z
3 1/2+x,-y,z
4 1/2-x,y,1/2+z
_cell_length_a                   15.096(3)
_cell_length_b                   6.1108(12)
_cell_length_c                   32.164(6)
_cell_angle_alpha                90
_cell_angle_beta                 90
_cell_angle_gamma                90
_cell_volume                     2967.09
loop_
_atom_site_label
_atom_site_type_symbol
_atom_site_fract_x
_atom_site_fract_y
_atom_site_fract_z
Cd1 Cd 0.381806(15) 0.60214(3) 0.66001(2)
N1 N 0.2683(3) 0.5501(10) 0.60997(15)
N2 N 0.1685(2) 0.3253(6) 0.58428(11)
N3 N 0.4934(3) 0.5467(10) 0.71040(16)
N4 N 0.5945(2) 0.3200(6) 0.73489(11)
O1 O -0.0177(3) 0.1112(6) 0.63473(12)
O2 O -0.0016(3) 0.4444(10) 0.60964(15)
O3 O 0.7860(2) 0.1170(6) 0.68547(11)
O4 O 0.7625(3) 0.4461(9) 0.70957(16)
O5 O 0.3810(2) 0.2237(4) 0.6592(3)
C1 C 0.2113(3) 0.3959(7) 0.61847(14)
C2 C 0.2621(3) 0.5856(6) 0.56710(13)
C3 C 0.3173(3) 0.7499(7) 0.54663(12)
C4 C 0.3343(3) 0.9488(7) 0.56675(16)
C5 C 0.3882(4) 1.1036(10) 0.5477(3)
C6 C 0.4229(4) 1.0688(9) 0.5099(2)
C7 C 0.4074(5) 0.8703(12) 0.4896(2)
C8 C 0.3553(4) 0.7126(9) 0.50771(15)
C9 C 0.1994(3) 0.4468(7) 0.55074(13)
C10 C 0.1685(3) 0.4124(8) 0.50752(16)
C11 C 0.1819(4) 0.2145(8) 0.48757(15)
C12 C 0.1520(4) 0.1860(10) 0.44743(17)
C13 C 0.1075(4) 0.3517(12) 0.42734(16)
C14 C 0.0944(4) 0.5464(13) 0.4467(2)
C15 C 0.1243(4) 0.5787(10) 0.4876(2)
C16 C 0.0966(3) 0.1678(8) 0.58491(17)
C17 C 0.0196(3) 0.2495(9) 0.61204(13)
C18 C 0.5494(3) 0.3892(8) 0.70142(13)
C19 C 0.5031(3) 0.5809(7) 0.75301(13)
C20 C 0.4490(3) 0.7461(7) 0.77437(14)
C21 C 0.4278(3) 0.9418(7) 0.75509(15)
C22 C 0.3764(4) 1.0980(11) 0.7744(4)
C23 C 0.3466(4) 1.0583(11) 0.8152(2)
C24 C 0.3675(5) 0.8661(12) 0.8348(2)
C25 C 0.4188(4) 0.7098(9) 0.81479(15)
C26 C 0.5657(3) 0.4416(7) 0.76786(13)
C27 C 0.6001(3) 0.4101(8) 0.81050(17)
C28 C 0.5896(4) 0.2130(9) 0.83129(14)
C29 C 0.6223(4) 0.1886(11) 0.87158(16)
C30 C 0.6658(4) 0.3572(12) 0.89041(17)
C31 C 0.6758(4) 0.5554(12) 0.87056(19)
C32 C 0.6437(4) 0.5793(11) 0.8299(2)
C33 C 0.6663(3) 0.1614(7) 0.73259(16)
C34 C 0.7436(3) 0.2509(9) 0.70732(13)
H1 H 0.423(3) 0.136(7) 0.6535(18)
H2 H 0.346(3) 0.163(8) 0.6764(14)
H3 H 0.2013 0.3411 0.6450
H4 H 0.3097 0.9771 0.5927
H5 H 0.4005 1.2341 0.5614
H6 H 0.4572 1.1764 0.4973
H7 H 0.4325 0.8448 0.4636
H8 H 0.3453 0.5809 0.4940
H9 H 0.2109 0.1012 0.5012
H10 H 0.1619 0.0539 0.4338
H11 H 0.0863 0.3302 0.4005
H12 H 0.0655 0.6591 0.4327
H13 H 0.1143 0.7112 0.5010
H14 H 0.1181 0.0294 0.5957
H15 H 0.0756 0.1434 0.5568
H16 H 0.5569 0.3320 0.6749
H17 H 0.4488 0.9686 0.7284
H18 H 0.3616 1.2272 0.7607
H19 H 0.3127 1.1629 0.8289
H20 H 0.3473 0.8403 0.8617
H21 H 0.4331 0.5802 0.8284
H22 H 0.5609 0.0970 0.8183
H23 H 0.6143 0.0571 0.8857
H24 H 0.6890 0.3381 0.9169
H25 H 0.7034 0.6718 0.8839
H26 H 0.6519 0.7110 0.8160
H27 H 0.6448 0.0278 0.7198
H28 H 0.6864 0.1264 0.7605
Cd1B Cd -0.118194(15) 0.39786(3) 0.66001(2)
Cd1B_2 Cd 0.881806(15) 0.39786(3) 0.66001(2)
O1B O 0.4823(3) 0.8888(6) 0.63473(12)
O2B O 0.4984(3) 0.5556(10) 0.60964(15)
O3B O 0.2860(2) 0.8830(6) 0.68547(11)
O4B O 0.2625(3) 0.5539(9) 0.70957(16)
loop_
_geom_bond_atom_site_label_1
_geom_bond_atom_site_label_2
_geom_bond_site_symmetry_1
_geom_bond_site_symmetry_2
Cd1 N1 1_555 1_555
N1 C1 1_555 1_555
N2 C1 1_555 1_555
N3 Cd1 1_555 1_555
N4 C18 1_555 1_555
O1 C17 1_555 1_555
O2 C17 1_555 1_555
O3 C34 1_555 1_555
O4 C34 1_555 1_555
O5 Cd1 1_555 1_555
C1 H3 1_555 1_555
C2 N1 1_555 1_555
C3 C2 1_555 1_555
C4 C3 1_555 1_555
C5 C4 1_555 1_555
C6 C5 1_555 1_555
C7 C6 1_555 1_555
C8 C3 1_555 1_555
C9 N2 1_555 1_555
C10 C9 1_555 1_555
C11 C10 1_555 1_555
C12 C11 1_555 1_555
C13 C12 1_555 1_555
C14 C13 1_555 1_555
C15 C10 1_555 1_555
C16 N2 1_555 1_555
C17 C16 1_555 1_555
C18 N3 1_555 1_555
C19 N3 1_555 1_555
C20 C19 1_555 1_555
C21 C20 1_555 1_555
C22 C21 1_555 1_555
C23 C22 1_555 1_555
C24 C23 1_555 1_555
C25 C20 1_555 1_555
C26 N4 1_555 1_555
C27 C26 1_555 1_555
C28 C27 1_555 1_555
C29 C28 1_555 1_555
C30 C29 1_555 1_555
C31 C30 1_555 1_555
C32 C27 1_555 1_555
C33 N4 1_555 1_555
C34 C33 1_555 1_555
H1 O5 1_555 1_555
H2 O5 1_555 1_555
H4 C4 1_555 1_555
H5 C5 1_555 1_555
H6 C6 1_555 1_555
H7 C7 1_555 1_555
H8 C8 1_555 1_555
H9 C11 1_555 1_555
H10 C12 1_555 1_555
H11 C13 1_555 1_555
H12 C14 1_555 1_555
H13 C15 1_555 1_555
H14 C16 1_555 1_555
H15 C16 1_555 1_555
H16 C18 1_555 1_555
H17 C21 1_555 1_555
H18 C22 1_555 1_555
H19 C23 1_555 1_555
H20 C24 1_555 1_555
H21 C25 1_555 1_555
H22 C28 1_555 1_555
H23 C29 1_555 1_555
H24 C30 1_555 1_555
H25 C31 1_555 1_555
H26 C32 1_555 1_555
H27 C33 1_555 1_555
H28 C33 1_555 1_555
Cd1B O1 1_555 1_555
Cd1B_2 O3 1_555 1_555
O1B Cd1 1_555 1_555
O2B Cd1 1_555 1_555
O3B Cd1 1_555 1_555
O4B Cd1 1_555 1_555
O2 Cd1B 1_555 1_555
O4 Cd1B_2 1_555 1_555
C2 C9 1_555 1_555
C7 C8 1_555 1_555
C14 C15 1_555 1_555
C19 C26 1_555 1_555
C24 C25 1_555 1_555
C31 C32 1_555 1_555

#END
