
#######################################################################
#
#                 Cambridge Crystallographic Data Centre
#                                CCDC 
#
#######################################################################
#
# If this CIF has been generated from an entry in the Cambridge 
# Structural Database, then it will include bibliographic, chemical, 
# crystal, experimental, refinement or atomic coordinate data resulting 
# from the CCDC's data processing and validation procedures.
#
#######################################################################

data_FOHJAP
_symmetry_cell_setting           monoclinic
_symmetry_space_group_name_H-M   'P 21'
_symmetry_Int_Tables_number      4
_space_group_name_Hall           'P 2yb'
loop_
_symmetry_equiv_pos_site_id
_symmetry_equiv_pos_as_xyz
1 x,y,z
2 -x,1/2+y,-z
_cell_length_a                   11.1063(11)
_cell_length_b                   9.8185(10)
_cell_length_c                   14.4725(14)
_cell_angle_alpha                90
_cell_angle_beta                 98.187(2)
_cell_angle_gamma                90
_cell_volume                     1562.1
loop_
_atom_site_label
_atom_site_type_symbol
_atom_site_fract_x
_atom_site_fract_y
_atom_site_fract_z
Ni1 Ni 0.94147(5) 0.42723(6) 1.03695(4)
C1 C 0.8388(5) 0.4962(6) 0.8497(4)
C2 C 0.7558(6) 0.5254(7) 0.7710(4)
H1 H 0.7825 0.5501 0.7153
C3 C 0.6317(7) 0.5173(8) 0.7771(5)
H2 H 0.5746 0.5350 0.7250
C4 C 0.5946(6) 0.4828(9) 0.8607(5)
H3 H 0.5124 0.4808 0.8670
C5 C 0.6821(5) 0.4515(7) 0.9347(4)
H4 H 0.6573 0.4238 0.9905
C6 C 0.9725(5) 0.5033(6) 0.8456(3)
H5 H 0.9928 0.4378 0.8001
H6 H 0.9921 0.5933 0.8244
C7 C 1.1316(4) 0.3578(5) 0.9356(3)
H7 H 1.1634 0.3551 0.8758
C8 C 1.0598(4) 0.2274(5) 0.9466(3)
C9 C 1.2389(4) 0.3715(6) 1.0156(3)
H8 H 1.2920 0.2935 1.0132
H9 H 1.2851 0.4520 1.0039
C10 C 1.2070(4) 0.3815(5) 1.1133(3)
N1 N 0.8024(4) 0.4592(5) 0.9301(3)
N2 N 1.0476(4) 0.4759(5) 0.9360(3)
H10 H 1.0844 0.5563 0.9505
O1 O 0.9654(3) 0.2355(4) 0.9850(2)
O2 O 1.1004(3) 0.1196(3) 0.9168(2)
O3 O 1.1008(3) 0.3997(4) 1.1302(2)
O4 O 1.2968(3) 0.3716(5) 1.1777(2)
O5 O 0.8477(3) 0.3555(4) 1.1380(2)
H11 H 0.8897 0.3537 1.1894
H12 H 0.7948 0.2994 1.1201
Ni1A Ni 1.05853(5) -0.07277(6) 0.96305(4)
O2A O 0.8996(3) 0.6196(3) 1.0832(2)
Ni2 Ni 0.42114(5) 0.74375(6) 0.52387(4)
C11 C 0.3117(5) 0.6900(6) 0.3355(3)
C12 C 0.2271(6) 0.6730(6) 0.2583(4)
H13 H 0.2504 0.6708 0.1991
C13 C 0.1048(6) 0.6589(7) 0.2698(4)
H14 H 0.0459 0.6457 0.2181
C14 C 0.0724(6) 0.6645(8) 0.3572(5)
H15 H -0.0086 0.6572 0.3663
C15 C 0.1666(5) 0.6818(7) 0.4342(4)
H16 H 0.1463 0.6863 0.4942
C16 C 0.4472(5) 0.6942(6) 0.3289(3)
H17 H 0.4759 0.6024 0.3204
H18 H 0.4602 0.7472 0.2746
C17 C 0.6297(4) 0.6780(5) 0.4447(3)
H19 H 0.6694 0.6551 0.3904
C18 C 0.5892(4) 0.5441(5) 0.4883(3)
C19 C 0.7187(4) 0.7601(6) 0.5138(3)
H20 H 0.7921 0.7063 0.5291
H21 H 0.7408 0.8413 0.4819
C20 C 0.6777(4) 0.8036(5) 0.6037(3)
N3 N 0.2815(3) 0.6916(5) 0.4224(3)
N4 N 0.5183(3) 0.7543(5) 0.4129(3)
H22 H 0.5365 0.8436 0.4135
O6 O 0.4965(3) 0.5507(4) 0.5300(2)
O7 O 0.6491(3) 0.4387(4) 0.4779(2)
O8 O 0.5697(3) 0.8069(4) 0.6157(2)
O9 O 0.7633(3) 0.8422(4) 0.6668(2)
O10 O 0.3308(3) 0.7108(4) 0.6372(2)
H23 H 0.3312 0.6285 0.6470
H24 H 0.3520 0.7652 0.6793
Ni2A Ni 0.57886(5) 0.24375(6) 0.47613(4)
O7A O 0.3509(3) 0.9387(4) 0.5221(2)
O11 O 0.0261(4) 0.5371(6) 0.6200(3)
H25 H 0.0266 0.6152 0.6401
H26 H 0.0966 0.5183 0.6411
H27 H -0.0480 0.5462 0.6098
O12 O 0.0249(3) 0.8115(5) 0.6869(3)
H28 H -0.0445 0.8171 0.6999
H29 H 0.0575 0.8700 0.6581
O13 O 0.3115(4) 0.6434(5) 0.8819(3)
H30 H 0.3160 0.5638 0.8656
H31 H 0.3615 0.7002 0.8705
O14 O 0.3211(4) 0.1096(6) 0.8201(4)
H32 H 0.2669 0.0956 0.8520
H33 H 0.3325 0.1857 0.7995
O15 O 0.1093(4) 0.9644(5) 0.5531(3)
H34 H 0.0761 1.0288 0.5237
H35 H 0.1822 0.9497 0.5547
O16 O 0.4356(4) 0.8540(5) 0.8017(3)
H36 H 0.4129 0.9277 0.8197
H37 H 0.5063 0.8288 0.8149
Cl1 Cl 0.28613(13) 0.41906(17) 0.72144(9)
loop_
_geom_bond_atom_site_label_1
_geom_bond_atom_site_label_2
_geom_bond_site_symmetry_1
_geom_bond_site_symmetry_2
Ni1 N1 1_555 1_555
C1 C2 1_555 1_555
C2 H1 1_555 1_555
C3 C2 1_555 1_555
H2 C3 1_555 1_555
C4 C3 1_555 1_555
H3 C4 1_555 1_555
C5 C4 1_555 1_555
H4 C5 1_555 1_555
C6 C1 1_555 1_555
H5 C6 1_555 1_555
H6 C6 1_555 1_555
C7 H7 1_555 1_555
C8 C7 1_555 1_555
C9 C7 1_555 1_555
H8 C9 1_555 1_555
H9 C9 1_555 1_555
C10 C9 1_555 1_555
N1 C1 1_555 1_555
N2 Ni1 1_555 1_555
H10 N2 1_555 1_555
O1 Ni1 1_555 1_555
O2 C8 1_555 1_555
O3 Ni1 1_555 1_555
O4 C10 1_555 1_555
O5 Ni1 1_555 1_555
H11 O5 1_555 1_555
H12 O5 1_555 1_555
Ni2 N3 1_555 1_555
C11 C12 1_555 1_555
C12 H13 1_555 1_555
C13 C12 1_555 1_555
H14 C13 1_555 1_555
C14 C13 1_555 1_555
H15 C14 1_555 1_555
C15 C14 1_555 1_555
H16 C15 1_555 1_555
C16 C11 1_555 1_555
H17 C16 1_555 1_555
H18 C16 1_555 1_555
C17 H19 1_555 1_555
C18 C17 1_555 1_555
C19 C17 1_555 1_555
H20 C19 1_555 1_555
H21 C19 1_555 1_555
C20 C19 1_555 1_555
N3 C11 1_555 1_555
N4 Ni2 1_555 1_555
H22 N4 1_555 1_555
O6 Ni2 1_555 1_555
O7 C18 1_555 1_555
O8 Ni2 1_555 1_555
O9 C20 1_555 1_555
O10 Ni2 1_555 1_555
H23 O10 1_555 1_555
H24 O10 1_555 1_555
O11 H25 1_555 1_555
H26 O11 1_555 1_555
H27 O11 1_555 1_555
O12 H28 1_555 1_555
H29 O12 1_555 1_555
O13 H30 1_555 1_555
H31 O13 1_555 1_555
O14 H32 1_555 1_555
H33 O14 1_555 1_555
O15 H34 1_555 1_555
H35 O15 1_555 1_555
O16 H36 1_555 1_555
H37 O16 1_555 1_555
Ni1A O2 1_555 1_555
O2A Ni1 1_555 1_555
Ni2A O7 1_555 1_555
O7A Ni2 1_555 1_555
C5 N1 1_555 1_555
C6 N2 1_555 1_555
C7 N2 1_555 1_555
C8 O1 1_555 1_555
C10 O3 1_555 1_555
C15 N3 1_555 1_555
C16 N4 1_555 1_555
C17 N4 1_555 1_555
C18 O6 1_555 1_555
C20 O8 1_555 1_555

#END
