
#######################################################################
#
#                 Cambridge Crystallographic Data Centre
#                                CCDC 
#
#######################################################################
#
# If this CIF has been generated from an entry in the Cambridge 
# Structural Database, then it will include bibliographic, chemical, 
# crystal, experimental, refinement or atomic coordinate data resulting 
# from the CCDC's data processing and validation procedures.
#
#######################################################################

data_FOHMAQ
_symmetry_cell_setting           orthorhombic
_symmetry_space_group_name_H-M   'P c c n'
_symmetry_Int_Tables_number      56
_space_group_name_Hall           '-P 2ab 2ac'
loop_
_symmetry_equiv_pos_site_id
_symmetry_equiv_pos_as_xyz
1 x,y,z
2 1/2-x,y,1/2+z
3 x,1/2-y,1/2+z
4 1/2-x,1/2-y,z
5 -x,-y,-z
6 1/2+x,-y,1/2-z
7 -x,1/2+y,1/2-z
8 1/2+x,1/2+y,-z
_cell_length_a                   11.455(4)
_cell_length_b                   23.75(1)
_cell_length_c                   5.645(1)
_cell_angle_alpha                90
_cell_angle_beta                 90
_cell_angle_gamma                90
_cell_volume                     1535.76
loop_
_atom_site_label
_atom_site_type_symbol
_atom_site_fract_x
_atom_site_fract_y
_atom_site_fract_z
Ag1 Ag 0.15761(4) 0.19353(2) -0.88277(8)
C1 C 0.0738(4) 0.1674(2) -0.3562(9)
C2 C 0.0680(4) 0.1095(2) -0.4035(9)
Cl1 Cl 0.1536(1) 0.0824(1) -0.6291(3)
C3 C -0.0039(4) 0.0736(2) -0.2757(11)
C4 C -0.0723(5) 0.0939(2) -0.0941(10)
Cl2 Cl -0.1573(1) 0.0472(1) 0.0664(3)
C5 C -0.0716(4) 0.1505(2) -0.0451(10)
Cl3 Cl -0.1597(1) 0.1783(1) 0.1746(3)
C6 C -0.0001(4) 0.1870(2) -0.1727(9)
O1 O 0.1424(3) 0.2019(1) -0.4749(7)
H1 H 0.000(3) 0.035(2) -0.342(8)
H2 H -0.011(3) 0.232(2) -0.155(7)
Ag1_2 Ag 0.15761(4) 0.19353(2) 0.11723(8)
Ag1A Ag 0.34239(4) 0.19353(2) -0.38277(8)
Ag1B Ag 0.15761(4) 0.30647(2) -0.38277(8)
C6_2 C -0.0001(4) 0.1870(2) -1.1727(9)
O1A O 0.3576(3) 0.2019(1) -0.9749(7)
O1B O 0.1424(3) 0.2981(1) -0.9749(7)
H2_2 H -0.011(3) 0.232(2) -1.155(7)
loop_
_geom_bond_atom_site_label_1
_geom_bond_atom_site_label_2
_geom_bond_site_symmetry_1
_geom_bond_site_symmetry_2
Ag1 O1 1_555 1_555
C1 C2 1_555 1_555
C2 Cl1 1_555 1_555
C3 C2 1_555 1_555
C4 C3 1_555 1_555
Cl2 C4 1_555 1_555
C5 C4 1_555 1_555
Cl3 C5 1_555 1_555
C6 C1 1_555 1_555
O1 C1 1_555 1_555
H1 C3 1_555 1_555
H2 C6 1_555 1_555
Ag1_2 C6 1_555 1_555
Ag1A O1 1_555 1_555
Ag1B O1 1_555 1_555
C6_2 Ag1 1_555 1_555
O1A Ag1 1_555 1_555
O1B Ag1 1_555 1_555
H2_2 C6_2 1_555 1_555
C5 C6 1_555 1_555

#END
