
#######################################################################
#
#                 Cambridge Crystallographic Data Centre
#                                CCDC 
#
#######################################################################
#
# If this CIF has been generated from an entry in the Cambridge 
# Structural Database, then it will include bibliographic, chemical, 
# crystal, experimental, refinement or atomic coordinate data resulting 
# from the CCDC's data processing and validation procedures.
#
#######################################################################

data_FOHMUM
_symmetry_cell_setting           triclinic
_symmetry_space_group_name_H-M   'P -1'
_symmetry_Int_Tables_number      2
_space_group_name_Hall           '-P 1'
loop_
_symmetry_equiv_pos_site_id
_symmetry_equiv_pos_as_xyz
1 x,y,z
2 -x,-y,-z
_cell_length_a                   8.6033(15)
_cell_length_b                   9.0659(16)
_cell_length_c                   10.1203(18)
_cell_angle_alpha                74.826(3)
_cell_angle_beta                 73.131(3)
_cell_angle_gamma                85.128(3)
_cell_volume                     729.014
loop_
_atom_site_label
_atom_site_type_symbol
_atom_site_fract_x
_atom_site_fract_y
_atom_site_fract_z
Cd1 Cd 0.12235(3) 0.56940(3) 0.31023(3)
O1 O 0.3260(4) 0.4305(4) 0.2216(4)
O2 O 0.2263(5) 0.2233(5) 0.3802(4)
O3 O 1.0395(6) 0.2144(4) -0.3657(5)
H1 H 1.1420 0.2295 -0.4354
O4 O -0.1351(4) 0.4565(4) 0.4627(3)
O5 O -0.0832(4) 0.4912(4) 0.2341(3)
N1 N 0.7870(5) 0.2155(4) -0.1441(4)
N2 N 0.8001(5) -0.0343(4) -0.0544(4)
H2 H 0.8335 -0.1298 -0.0472
C1 C 0.3262(5) 0.2885(5) 0.2723(4)
C2 C 0.4549(5) 0.1969(5) 0.1915(4)
C3 C 0.4653(6) 0.0377(5) 0.2480(5)
H3 H 0.3936 -0.0079 0.3381
C4 C 0.5766(6) -0.0534(5) 0.1764(5)
H4 H 0.5835 -0.1605 0.2146
C5 C 0.6782(5) 0.0201(5) 0.0448(5)
C6 C 0.6708(5) 0.1776(5) -0.0116(4)
C7 C 0.5596(5) 0.2685(5) 0.0610(4)
H5 H 0.5548 0.3759 0.0232
C8 C 0.8581(6) 0.0862(5) -0.1639(5)
C9 C 0.9871(8) 0.0767(7) -0.3004(7)
C10 C 1.0799(8) -0.0585(7) -0.3009(7)
H6 H 1.1588 -0.0489 -0.3946
H7 H 1.0081 -0.1447 -0.2810
H8 H 1.1375 -0.0762 -0.2275
C11 C -0.1803(5) 0.4515(5) 0.3575(5)
C12 C -0.3454(5) 0.3925(6) 0.3740(6)
H9 H -0.3357 0.2818 0.3786
H10 H -0.3806 0.4440 0.2881
C13 C -0.4766(5) 0.4167(5) 0.5058(5)
H11 H -0.5741 0.3578 0.5190
H12 H -0.4365 0.3768 0.5909
O4A O -0.8649(4) 0.5435(4) 0.5373(3)
O5A O -0.9168(4) 0.5088(4) 0.7659(3)
C11A C -0.8197(5) 0.5485(5) 0.6425(5)
C12A C -0.6546(5) 0.6075(6) 0.6260(6)
H9A H -0.6643 0.7182 0.6214
H10A H -0.6194 0.5560 0.7119
C13A C -0.5234(5) 0.5833(5) 0.4942(5)
H11A H -0.4259 0.6422 0.4810
H12A H -0.5635 0.6232 0.4091
Cd1A Cd -1.12235(3) 0.43060(3) 0.68977(3)
O1A O -1.3260(4) 0.5695(4) 0.7784(4)
O2A O -1.2263(5) 0.7767(5) 0.6198(4)
O3A O -2.0395(6) 0.7856(4) 1.3657(5)
H1A H -2.1420 0.7705 1.4354
N1A N -1.7870(5) 0.7845(4) 1.1441(4)
N2A N -1.8001(5) 1.0343(4) 1.0544(4)
H2A H -1.8335 1.1298 1.0472
C1A C -1.3262(5) 0.7115(5) 0.7277(4)
C2A C -1.4549(5) 0.8031(5) 0.8085(4)
C3A C -1.4653(6) 0.9623(5) 0.7520(5)
H3A H -1.3936 1.0079 0.6619
C4A C -1.5766(6) 1.0534(5) 0.8236(5)
H4A H -1.5835 1.1605 0.7854
C5A C -1.6782(5) 0.9799(5) 0.9552(5)
C6A C -1.6708(5) 0.8224(5) 1.0116(4)
C7A C -1.5596(5) 0.7315(5) 0.9390(4)
H5A H -1.5548 0.6241 0.9768
C8A C -1.8581(6) 0.9138(5) 1.1639(5)
C9A C -1.9871(8) 0.9233(7) 1.3004(7)
C10A C -2.0799(8) 1.0585(7) 1.3009(7)
H6A H -2.1588 1.0489 1.3946
H7A H -2.0081 1.1447 1.2810
H8A H -2.1375 1.0762 1.2275
Cd1_2 Cd -1.87765(3) 0.56940(3) 1.31023(3)
Cd1_3 Cd -0.87765(3) 0.56940(3) 0.31023(3)
Cd1A_2 Cd -0.12235(3) 0.43060(3) 0.68977(3)
Cd1A_3 Cd 0.87765(3) 0.43060(3) -0.31023(3)
O3_2 O -0.9605(6) 0.2144(4) 0.6343(5)
O3A_2 O -0.0395(6) 0.7856(4) 0.3657(5)
O4_2 O -1.1351(4) 0.4565(4) 0.4627(3)
O4A_2 O 0.1351(4) 0.5435(4) 0.5373(3)
N1_2 N -1.2130(5) 0.2155(4) 0.8559(4)
N1A_2 N 0.2130(5) 0.7845(4) 0.1441(4)
O6 O 0.1479(7) 0.3431(5) 1.0142(5)
H13 H 0.0603 0.3241 0.9982
H14 H 0.2358 0.3404 0.9502
loop_
_geom_bond_atom_site_label_1
_geom_bond_atom_site_label_2
_geom_bond_site_symmetry_1
_geom_bond_site_symmetry_2
Cd1 O1 1_555 1_555
O1 C1 1_555 1_555
O2 C1 1_555 1_555
O3 H1 1_555 1_555
O4 Cd1 1_555 1_555
O5 Cd1 1_555 1_555
N1 C6 1_555 1_555
N2 H2 1_555 1_555
C1 C2 1_555 1_555
C2 C3 1_555 1_555
C3 H3 1_555 1_555
C4 C3 1_555 1_555
H4 C4 1_555 1_555
C5 N2 1_555 1_555
C6 C5 1_555 1_555
C7 C2 1_555 1_555
H5 C7 1_555 1_555
C8 N1 1_555 1_555
C9 O3 1_555 1_555
C10 C9 1_555 1_555
H6 C10 1_555 1_555
H7 C10 1_555 1_555
H8 C10 1_555 1_555
C11 O4 1_555 1_555
C12 C11 1_555 1_555
H9 C12 1_555 1_555
H10 C12 1_555 1_555
C13 C12 1_555 1_555
H11 C13 1_555 1_555
H12 C13 1_555 1_555
O6 H13 1_555 1_555
H14 O6 1_555 1_555
O4A C11A 1_555 1_555
O5A C11A 1_555 1_555
C11A C12A 1_555 1_555
C12A H9A 1_555 1_555
H10A C12A 1_555 1_555
C13A C13 1_555 1_555
H11A C13A 1_555 1_555
H12A C13A 1_555 1_555
Cd1A O4A 1_555 1_555
O1A Cd1A 1_555 1_555
O2A C1A 1_555 1_555
O3A H1A 1_555 1_555
N1A C6A 1_555 1_555
N2A H2A 1_555 1_555
C1A O1A 1_555 1_555
C2A C1A 1_555 1_555
C3A C2A 1_555 1_555
H3A C3A 1_555 1_555
C4A C3A 1_555 1_555
H4A C4A 1_555 1_555
C5A N2A 1_555 1_555
C6A C5A 1_555 1_555
C7A C2A 1_555 1_555
H5A C7A 1_555 1_555
C8A N1A 1_555 1_555
C9A O3A 1_555 1_555
C10A C9A 1_555 1_555
H6A C10A 1_555 1_555
H7A C10A 1_555 1_555
H8A C10A 1_555 1_555
Cd1_2 O3A 1_555 1_555
Cd1_3 O4A 1_555 1_555
Cd1A_2 O4 1_555 1_555
Cd1A_3 O3 1_555 1_555
O3_2 Cd1A 1_555 1_555
O3A_2 Cd1 1_555 1_555
O4_2 Cd1A 1_555 1_555
O4A_2 Cd1 1_555 1_555
N1_2 Cd1A 1_555 1_555
N1A_2 Cd1 1_555 1_555
O5 C11 1_555 1_555
N1 Cd1A_3 1_555 1_555
N2 C8 1_555 1_555
C4 C5 1_555 1_555
C6 C7 1_555 1_555
C8 C9 1_555 1_555
O5A Cd1A 1_555 1_555
C12A C13A 1_555 1_555
N1A Cd1_2 1_555 1_555
N2A C8A 1_555 1_555
C4A C5A 1_555 1_555
C6A C7A 1_555 1_555
C8A C9A 1_555 1_555
Cd1_3 O4_2 1_555 1_555
Cd1A_2 O4A_2 1_555 1_555

#END
