
#######################################################################
#
#                 Cambridge Crystallographic Data Centre
#                                CCDC 
#
#######################################################################
#
# If this CIF has been generated from an entry in the Cambridge 
# Structural Database, then it will include bibliographic, chemical, 
# crystal, experimental, refinement or atomic coordinate data resulting 
# from the CCDC's data processing and validation procedures.
#
#######################################################################

data_FOHNUN
_symmetry_cell_setting           monoclinic
_symmetry_space_group_name_H-M   'P 21/n'
_symmetry_Int_Tables_number      14
_space_group_name_Hall           '-P 2yn'
loop_
_symmetry_equiv_pos_site_id
_symmetry_equiv_pos_as_xyz
1 x,y,z
2 1/2-x,1/2+y,1/2-z
3 -x,-y,-z
4 1/2+x,1/2-y,1/2+z
_cell_length_a                   14.0818(11)
_cell_length_b                   12.7834(11)
_cell_length_c                   22.436(3)
_cell_angle_alpha                90
_cell_angle_beta                 97.836(9)
_cell_angle_gamma                90
_cell_volume                     4001.07
loop_
_atom_site_label
_atom_site_type_symbol
_atom_site_fract_x
_atom_site_fract_y
_atom_site_fract_z
Bi1 Bi 0.400826(9) 0.459371(10) 0.176650(6)
S1 S 0.28626(6) 0.30342(7) 0.12887(4)
S2 S 0.31690(7) 0.12501(7) 0.21532(4)
S3 S 0.53897(7) 0.31780(7) 0.22548(4)
S4 S 0.69863(7) 0.39069(8) 0.15872(4)
S5 S 0.46471(6) 0.45570(7) 0.06369(4)
S6 S 0.35139(7) 0.36642(8) -0.04656(4)
S7 S 0.32762(6) 0.40150(7) 0.28185(4)
S8 S 0.48077(7) 0.54664(8) 0.34805(4)
S9 S 0.60725(7) 0.10388(8) 0.36606(4)
S10 S 0.61382(7) 0.09469(8) 0.50098(4)
S11 S 0.28120(6) 0.05018(7) 0.36766(4)
S12 S 0.14316(6) 0.20970(7) 0.41080(4)
O1 O 0.5469(2) 0.5979(2) 0.17969(15)
O2 O 0.4328(2) 0.6541(2) 0.22720(12)
O3 O 0.5683(3) 0.7368(3) 0.2343(2)
N1 N 0.4290(2) 0.1549(2) 0.13887(12)
N2 N 0.4650(2) 0.0666(2) 0.17005(13)
N3 N 0.5776(2) 0.2585(2) 0.11379(13)
N4 N 0.6375(2) 0.2718(2) 0.07028(13)
N5 N 0.4288(2) 0.2476(2) 0.03580(12)
N6 N 0.3830(2) 0.1803(2) -0.00780(13)
N7 N 0.4550(2) 0.3611(2) 0.37927(12)
N8 N 0.5290(2) 0.3972(2) 0.42138(13)
N9 N 0.4832(2) 0.1910(2) 0.43484(12)
N10 N 0.4638(2) 0.2083(2) 0.49307(12)
N11 N 0.3143(2) 0.2511(2) 0.39904(12)
N12 N 0.2795(2) 0.3428(2) 0.42089(12)
N13 N 0.5168(3) 0.6636(3) 0.21379(18)
B1 B 0.4899(3) 0.1883(3) 0.08900(18)
H1 H 0.5155 0.1233 0.0722
B2 B 0.4196(3) 0.2459(3) 0.38333(17)
H2 H 0.4216 0.2083 0.3444
C1 C 0.3505(3) 0.1951(3) 0.15683(15)
C2 C 0.4134(2) 0.0417(3) 0.21180(15)
C3 C 0.4351(3) -0.0492(3) 0.25222(17)
H3 H 0.4913 -0.0861 0.2414
H4 H 0.3800 -0.0968 0.2480
H5 H 0.4484 -0.0249 0.2940
C4 C 0.5993(3) 0.3146(3) 0.16387(16)
C5 C 0.7042(3) 0.3400(3) 0.08767(16)
C6 C 0.7756(3) 0.3735(3) 0.04903(17)
H6 H 0.8037 0.3117 0.0324
H7 H 0.8263 0.4139 0.0730
H8 H 0.7443 0.4169 0.0161
C7 C 0.4190(3) 0.3497(3) 0.02295(15)
C8 C 0.3404(3) 0.2317(3) -0.05340(17)
C9 C 0.2878(3) 0.1793(3) -0.10779(19)
H9 H 0.3149 0.2018 -0.1437
H10 H 0.2198 0.1984 -0.1119
H11 H 0.2942 0.1032 -0.1034
C10 C 0.4204(3) 0.4291(3) 0.33677(15)
C11 C 0.5502(3) 0.4933(3) 0.41058(17)
C12 C 0.6268(3) 0.5529(3) 0.44878(18)
H12 H 0.6583 0.5072 0.4805
H13 H 0.5982 0.6128 0.4670
H14 H 0.6741 0.5779 0.4239
C13 C 0.5621(3) 0.1334(3) 0.42928(15)
C14 C 0.5256(3) 0.1627(3) 0.53217(15)
C15 C 0.5210(3) 0.1668(3) 0.59847(16)
H15 H 0.4708 0.2159 0.6064
H16 H 0.5829 0.1901 0.6196
H17 H 0.5062 0.0970 0.6128
C16 C 0.2526(2) 0.1720(3) 0.39100(15)
C17 C 0.1908(3) 0.3331(3) 0.42890(15)
C18 C 0.1327(3) 0.4182(3) 0.45204(16)
H18 H 0.1693 0.4836 0.4547
H19 H 0.1178 0.3991 0.4921
H20 H 0.0730 0.4275 0.4246
Bi1A Bi 0.099174(9) -0.040629(10) 0.323350(6)
S11A S 0.21880(6) 0.55018(7) 0.13234(4)
O4 O 0.7862(3) 0.1475(4) 0.17647(18)
H21 H 0.8328 0.1698 0.2005
C19 C 0.7317(5) 0.0707(5) 0.2076(3)
H22 H 0.7726 0.0103 0.2199
H23 H 0.6754 0.0476 0.1803
H24 H 0.7110 0.1034 0.2432
loop_
_geom_bond_atom_site_label_1
_geom_bond_atom_site_label_2
_geom_bond_site_symmetry_1
_geom_bond_site_symmetry_2
Bi1 S1 1_555 1_555
S1 C1 1_555 1_555
S2 C1 1_555 1_555
S3 Bi1 1_555 1_555
S4 C4 1_555 1_555
S5 Bi1 1_555 1_555
S6 C7 1_555 1_555
S7 Bi1 1_555 1_555
S8 C10 1_555 1_555
S9 C13 1_555 1_555
S10 C13 1_555 1_555
S11 C16 1_555 1_555
S12 C16 1_555 1_555
O1 Bi1 1_555 1_555
O2 Bi1 1_555 1_555
O3 N13 1_555 1_555
N1 N2 1_555 1_555
N2 C2 1_555 1_555
N3 N4 1_555 1_555
N4 C5 1_555 1_555
N5 N6 1_555 1_555
N6 C8 1_555 1_555
N7 N8 1_555 1_555
N8 C11 1_555 1_555
N9 N10 1_555 1_555
N10 C14 1_555 1_555
N11 N12 1_555 1_555
N12 C17 1_555 1_555
N13 O1 1_555 1_555
B1 N1 1_555 1_555
H1 B1 1_555 1_555
B2 N7 1_555 1_555
H2 B2 1_555 1_555
C1 N1 1_555 1_555
C2 S2 1_555 1_555
C3 C2 1_555 1_555
H3 C3 1_555 1_555
H4 C3 1_555 1_555
H5 C3 1_555 1_555
C4 S3 1_555 1_555
C5 S4 1_555 1_555
C6 C5 1_555 1_555
H6 C6 1_555 1_555
H7 C6 1_555 1_555
H8 C6 1_555 1_555
C7 S5 1_555 1_555
C8 S6 1_555 1_555
C9 C8 1_555 1_555
H9 C9 1_555 1_555
H10 C9 1_555 1_555
H11 C9 1_555 1_555
C10 S7 1_555 1_555
C11 S8 1_555 1_555
C12 C11 1_555 1_555
H12 C12 1_555 1_555
H13 C12 1_555 1_555
H14 C12 1_555 1_555
C13 N9 1_555 1_555
C14 S10 1_555 1_555
C15 C14 1_555 1_555
H15 C15 1_555 1_555
H16 C15 1_555 1_555
H17 C15 1_555 1_555
C16 N11 1_555 1_555
C17 S12 1_555 1_555
C18 C17 1_555 1_555
H18 C18 1_555 1_555
H19 C18 1_555 1_555
H20 C18 1_555 1_555
O4 H21 1_555 1_555
C19 O4 1_555 1_555
H22 C19 1_555 1_555
H23 C19 1_555 1_555
H24 C19 1_555 1_555
Bi1A S11 1_555 1_555
S11A Bi1 1_555 1_555
O2 N13 1_555 1_555
N3 B1 1_555 1_555
N3 C4 1_555 1_555
N5 B1 1_555 1_555
N5 C7 1_555 1_555
N7 C10 1_555 1_555
N9 B2 1_555 1_555
N11 B2 1_555 1_555

#END
