
#######################################################################
#
#                 Cambridge Crystallographic Data Centre
#                                CCDC 
#
#######################################################################
#
# If this CIF has been generated from an entry in the Cambridge 
# Structural Database, then it will include bibliographic, chemical, 
# crystal, experimental, refinement or atomic coordinate data resulting 
# from the CCDC's data processing and validation procedures.
#
#######################################################################

data_FOHNEW
_symmetry_cell_setting           monoclinic
_symmetry_space_group_name_H-M   'P 21/n'
_symmetry_Int_Tables_number      14
_space_group_name_Hall           '-P 2yn'
loop_
_symmetry_equiv_pos_site_id
_symmetry_equiv_pos_as_xyz
1 x,y,z
2 1/2-x,1/2+y,1/2-z
3 -x,-y,-z
4 1/2+x,1/2-y,1/2+z
_cell_length_a                   6.506(3)
_cell_length_b                   9.294(4)
_cell_length_c                   18.822(8)
_cell_angle_alpha                90
_cell_angle_beta                 94.781(6)
_cell_angle_gamma                90
_cell_volume                     1134.15
loop_
_atom_site_label
_atom_site_type_symbol
_atom_site_fract_x
_atom_site_fract_y
_atom_site_fract_z
Zn1 Zn 0.0000 0.5000 0.0000
N1 N 0.0937(2) 0.44789(16) 0.10732(8)
C1 C 0.2688(3) 0.3753(2) 0.12470(9)
H1 H 0.3574 0.3559 0.0882
C2 C 0.3271(3) 0.3273(2) 0.19277(9)
H2 H 0.4535 0.2772 0.2026
C3 C 0.1985(3) 0.35319(19) 0.24705(9)
C4 C 0.0183(3) 0.43114(19) 0.22980(9)
H3 H -0.0716 0.4538 0.2655
C5 C -0.0281(3) 0.47514(18) 0.16024(10)
H4 H -0.1522 0.5273 0.1491
C6 C 0.2524(3) 0.29424(19) 0.32083(9)
H5 H 0.1706 0.2062 0.3274
H6 H 0.4001 0.2673 0.3258
N2 N 0.2126(2) 0.39790(16) 0.37597(8)
H7 H 0.2861 0.4775 0.3786
C7 C 0.0720(3) 0.37992(19) 0.42266(9)
C8 C 0.0614(3) 0.50073(18) 0.47362(9)
H8 H 0.1461 0.5826 0.4682
O1 O -0.03874(19) 0.27043(13) 0.42419(7)
O5 O -0.0804(2) 0.70838(14) 0.03464(7)
H9 H -0.047(4) 0.769(3) 0.0039(15)
O6 O -0.2952(2) 0.41514(14) 0.01803(8)
H10 H -0.189(4) 0.736(3) 0.0454(13)
H11 H -0.283(3) 0.349(3) 0.0465(13)
H12 H -0.370(4) 0.386(3) -0.0163(14)
Zn1_2 Zn 0.0000 0.5000 1.0000
N1B N -0.0937(2) 0.55211(16) 0.89268(8)
N1B_2 N -0.0937(2) 0.55211(16) -0.10732(8)
C1B C -0.2688(3) 0.6247(2) 0.87530(9)
H1B H -0.3574 0.6441 0.9118
C2B C -0.3271(3) 0.6727(2) 0.80723(9)
H2B H -0.4535 0.7228 0.7974
C3B C -0.1985(3) 0.64681(19) 0.75295(9)
C4B C -0.0183(3) 0.56886(19) 0.77020(9)
H3B H 0.0716 0.5462 0.7345
C5B C 0.0281(3) 0.52486(18) 0.83976(10)
H4B H 0.1522 0.4727 0.8509
C6B C -0.2524(3) 0.70576(19) 0.67917(9)
H5B H -0.1706 0.7938 0.6726
H6B H -0.4001 0.7327 0.6742
N2B N -0.2126(2) 0.60210(16) 0.62403(8)
H7B H -0.2861 0.5225 0.6214
C7B C -0.0720(3) 0.62008(19) 0.57734(9)
C8B C -0.0614(3) 0.49927(18) 0.52638(9)
H8B H -0.1461 0.4174 0.5318
O1B O 0.03874(19) 0.72957(13) 0.57581(7)
O5B O 0.0804(2) 0.29162(14) -0.03464(7)
H9B H 0.047(4) 0.231(3) -0.0039(15)
O6B O 0.2952(2) 0.58486(14) -0.01803(8)
H10B H 0.189(4) 0.264(3) -0.0454(13)
H11B H 0.283(3) 0.651(3) -0.0465(13)
H12B H 0.370(4) 0.614(3) 0.0163(14)
O2 O 0.1152(2) 0.96608(17) -0.17459(8)
O3 O 0.28750(19) 0.79493(14) -0.11875(7)
O4 O 0.0281(2) 0.89557(15) -0.07172(7)
N3 N 0.1440(2) 0.88572(16) -0.12238(8)
loop_
_geom_bond_atom_site_label_1
_geom_bond_atom_site_label_2
_geom_bond_site_symmetry_1
_geom_bond_site_symmetry_2
Zn1 N1 1_555 1_555
N1 C1 1_555 1_555
C1 H1 1_555 1_555
C2 C1 1_555 1_555
H2 C2 1_555 1_555
C3 C2 1_555 1_555
C4 C3 1_555 1_555
H3 C4 1_555 1_555
C5 N1 1_555 1_555
H4 C5 1_555 1_555
C6 C3 1_555 1_555
H5 C6 1_555 1_555
H6 C6 1_555 1_555
N2 C6 1_555 1_555
H7 N2 1_555 1_555
C7 N2 1_555 1_555
C8 C7 1_555 1_555
H8 C8 1_555 1_555
O1 C7 1_555 1_555
O2 N3 1_555 1_555
O3 N3 1_555 1_555
O4 N3 1_555 1_555
O5 Zn1 1_555 1_555
H9 O5 1_555 1_555
O6 Zn1 1_555 1_555
H10 O5 1_555 1_555
H11 O6 1_555 1_555
H12 O6 1_555 1_555
Zn1_2 N1B 1_555 1_555
N1B C1B 1_555 1_555
N1B_2 Zn1 1_555 1_555
C1B H1B 1_555 1_555
C2B C1B 1_555 1_555
H2B C2B 1_555 1_555
C3B C2B 1_555 1_555
C4B C3B 1_555 1_555
H3B C4B 1_555 1_555
C5B N1B 1_555 1_555
H4B C5B 1_555 1_555
C6B C3B 1_555 1_555
H5B C6B 1_555 1_555
H6B C6B 1_555 1_555
N2B C6B 1_555 1_555
H7B N2B 1_555 1_555
C7B N2B 1_555 1_555
C8B C8 1_555 1_555
H8B C8B 1_555 1_555
O1B C7B 1_555 1_555
O5B Zn1 1_555 1_555
H9B O5B 1_555 1_555
O6B Zn1 1_555 1_555
H10B O5B 1_555 1_555
H11B O6B 1_555 1_555
H12B O6B 1_555 1_555
C4 C5 1_555 1_555
C4B C5B 1_555 1_555
C7B C8B 1_555 1_555

#END
