
#######################################################################
#
#                 Cambridge Crystallographic Data Centre
#                                CCDC 
#
#######################################################################
#
# If this CIF has been generated from an entry in the Cambridge 
# Structural Database, then it will include bibliographic, chemical, 
# crystal, experimental, refinement or atomic coordinate data resulting 
# from the CCDC's data processing and validation procedures.
#
#######################################################################

data_FOHPIC
_symmetry_cell_setting           monoclinic
_symmetry_space_group_name_H-M   'C 2'
_symmetry_Int_Tables_number      5
_space_group_name_Hall           'C 2y'
loop_
_symmetry_equiv_pos_site_id
_symmetry_equiv_pos_as_xyz
1 x,y,z
2 -x,y,-z
3 1/2+x,1/2+y,z
4 1/2-x,1/2+y,-z
_cell_length_a                   25.135(4)
_cell_length_b                   7.3173(13)
_cell_length_c                   17.101(3)
_cell_angle_alpha                90
_cell_angle_beta                 104.390(4)
_cell_angle_gamma                90
_cell_volume                     3046.55
loop_
_atom_site_label
_atom_site_type_symbol
_atom_site_fract_x
_atom_site_fract_y
_atom_site_fract_z
Ag1 Ag -0.19080(2) 0.38753(10) 0.03855(2)
N1 N -0.16754(18) 0.3853(11) -0.0750(2)
N2 N -0.29697(18) -0.1068(11) -0.1601(2)
O1 O -0.13687(15) 0.2057(5) -0.3483(2)
O2 O -0.21703(12) -0.1204(9) -0.39821(17)
C1 C -0.1232(2) 0.3698(11) -0.3022(3)
H1 H -0.1416 0.4718 -0.3339
H2 H -0.0839 0.3902 -0.2921
C2 C -0.13872(18) 0.3669(9) -0.2227(3)
C3 C -0.1198(2) 0.5072(9) -0.1680(3)
H3 H -0.0968 0.5979 -0.1791
C4 C -0.1361(3) 0.5074(11) -0.0971(4)
H4 H -0.1237 0.6032 -0.0615
C5 C -0.1846(3) 0.2477(11) -0.1279(4)
H5 H -0.2064 0.1562 -0.1145
C6 C -0.1708(3) 0.2375(9) -0.2014(3)
H6 H -0.1837 0.1410 -0.2363
C7 C -0.10501(19) -0.0722(7) -0.3886(3)
C8 C -0.0995(2) 0.0615(8) -0.3310(3)
C9 C -0.0585(2) 0.0542(9) -0.2583(3)
H7 H -0.0553 0.1477 -0.2206
C10 C -0.0230(2) -0.0917(13) -0.2432(3)
H8 H 0.0034 -0.0981 -0.1944
C11 C -0.0259(2) -0.2290(9) -0.2996(4)
C12 C 0.0129(3) -0.3753(10) -0.2850(5)
H9 H 0.0403 -0.3790 -0.2371
C13 C 0.0096(3) -0.5092(11) -0.3411(5)
H10 H 0.0352 -0.6038 -0.3313
C14 C -0.0320(3) -0.5073(10) -0.4143(4)
H11 H -0.0338 -0.6005 -0.4518
C15 C -0.0701(2) -0.3655(8) -0.4297(3)
H12 H -0.0974 -0.3643 -0.4777
C16 C -0.0677(2) -0.2255(8) -0.3740(3)
C17 C -0.1484(2) -0.0652(7) -0.4668(3)
C18 C -0.20294(18) -0.0982(11) -0.4706(2)
C19 C -0.24192(19) -0.1108(12) -0.5442(3)
H13 H -0.2785 -0.1320 -0.5451
C20 C -0.2267(2) -0.0920(10) -0.6159(3)
H14 H -0.2531 -0.1053 -0.6645
C21 C -0.1724(2) -0.0533(7) -0.6170(3)
C22 C -0.1559(2) -0.0308(8) -0.6896(3)
H15 H -0.1817 -0.0428 -0.7388
C23 C -0.1034(3) 0.0078(9) -0.6884(3)
H16 H -0.0934 0.0232 -0.7369
C24 C -0.0637(3) 0.0248(9) -0.6158(4)
H17 H -0.0275 0.0493 -0.6162
C25 C -0.0778(2) 0.0056(9) -0.5433(3)
H18 H -0.0509 0.0201 -0.4953
C26 C -0.1321(2) -0.0355(7) -0.5406(3)
C27 C -0.27361(17) -0.1125(11) -0.3997(3)
H19 H -0.2923 -0.2191 -0.4272
H20 H -0.2900 -0.0044 -0.4287
C28 C -0.27975(18) -0.1066(11) -0.3154(2)
C29 C -0.2441(2) -0.1982(9) -0.2541(3)
H21 H -0.2138 -0.2596 -0.2633
C30 C -0.2545(3) -0.1965(9) -0.1777(3)
H22 H -0.2307 -0.2609 -0.1365
C31 C -0.3305(3) -0.0208(10) -0.2192(4)
H23 H -0.3601 0.0419 -0.2083
C32 C -0.3242(3) -0.0188(10) -0.2964(4)
H24 H -0.3499 0.0417 -0.3366
Ag1C Ag -0.30920(2) -0.11247(10) -0.03855(2)
N2C N -0.20303(18) 0.3932(11) 0.1601(2)
Cl1 Cl -0.15809(10) 0.8762(4) 0.06560(11)
O3 O -0.1750(9) 0.987(3) 0.1108(7)
O4 O -0.2026(3) 0.7696(16) 0.0388(10)
O5 O -0.1569(6) 0.9333(17) -0.0079(4)
O6 O -0.1201(3) 0.7532(11) 0.0982(5)
loop_
_geom_bond_atom_site_label_1
_geom_bond_atom_site_label_2
_geom_bond_site_symmetry_1
_geom_bond_site_symmetry_2
Ag1 N1 1_555 1_555
N1 C4 1_555 1_555
N2 C30 1_555 1_555
O1 C1 1_555 1_555
O2 C18 1_555 1_555
C1 H1 1_555 1_555
H2 C1 1_555 1_555
C2 C1 1_555 1_555
C3 C2 1_555 1_555
H3 C3 1_555 1_555
C4 C3 1_555 1_555
H4 C4 1_555 1_555
C5 N1 1_555 1_555
H5 C5 1_555 1_555
C6 C2 1_555 1_555
H6 C6 1_555 1_555
C7 C8 1_555 1_555
C8 O1 1_555 1_555
C9 C8 1_555 1_555
H7 C9 1_555 1_555
C10 C9 1_555 1_555
H8 C10 1_555 1_555
C11 C10 1_555 1_555
C12 C11 1_555 1_555
H9 C12 1_555 1_555
C13 C12 1_555 1_555
H10 C13 1_555 1_555
C14 C13 1_555 1_555
H11 C14 1_555 1_555
C15 C14 1_555 1_555
H12 C15 1_555 1_555
C16 C7 1_555 1_555
C17 C7 1_555 1_555
C18 C17 1_555 1_555
C19 C18 1_555 1_555
H13 C19 1_555 1_555
C20 C19 1_555 1_555
H14 C20 1_555 1_555
C21 C20 1_555 1_555
C22 C21 1_555 1_555
H15 C22 1_555 1_555
C23 C22 1_555 1_555
H16 C23 1_555 1_555
C24 C23 1_555 1_555
H17 C24 1_555 1_555
C25 C24 1_555 1_555
H18 C25 1_555 1_555
C26 C17 1_555 1_555
C27 O2 1_555 1_555
H19 C27 1_555 1_555
H20 C27 1_555 1_555
C28 C27 1_555 1_555
C29 C28 1_555 1_555
H21 C29 1_555 1_555
C30 C29 1_555 1_555
H22 C30 1_555 1_555
C31 N2 1_555 1_555
H23 C31 1_555 1_555
C32 C28 1_555 1_555
H24 C32 1_555 1_555
Cl1 O3 1_555 1_555
O4 Cl1 1_555 1_555
O5 Cl1 1_555 1_555
O6 Cl1 1_555 1_555
Ag1C N2 1_555 1_555
N2C Ag1 1_555 1_555
C5 C6 1_555 1_555
C11 C16 1_555 1_555
C15 C16 1_555 1_555
C21 C26 1_555 1_555
C25 C26 1_555 1_555
C31 C32 1_555 1_555

#END
