
#######################################################################
#
#                 Cambridge Crystallographic Data Centre
#                                CCDC 
#
#######################################################################
#
# If this CIF has been generated from an entry in the Cambridge 
# Structural Database, then it will include bibliographic, chemical, 
# crystal, experimental, refinement or atomic coordinate data resulting 
# from the CCDC's data processing and validation procedures.
#
#######################################################################

data_FOHRUR
_symmetry_cell_setting           triclinic
_symmetry_space_group_name_H-M   'P -1'
_symmetry_Int_Tables_number      2
_space_group_name_Hall           '-P 1'
loop_
_symmetry_equiv_pos_site_id
_symmetry_equiv_pos_as_xyz
1 x,y,z
2 -x,-y,-z
_cell_length_a                   10.1250(8)
_cell_length_b                   10.7664(9)
_cell_length_c                   13.2928(12)
_cell_angle_alpha                86.5210(10)
_cell_angle_beta                 73.151(2)
_cell_angle_gamma                85.3170(10)
_cell_volume                     1381.17
loop_
_atom_site_label
_atom_site_type_symbol
_atom_site_fract_x
_atom_site_fract_y
_atom_site_fract_z
Mn1 Mn -0.13841(6) 0.59120(5) 0.30786(5)
Mn2 Mn 0.0000 1.0000 0.0000
C1 C 0.1205(4) 1.2501(4) 0.0723(3)
C2 C 0.1999(4) 1.2260(3) 0.1522(3)
C3 C 0.2538(4) 1.3219(4) 0.1908(3)
H1 H 0.2349 1.4046 0.1722
C4 C 0.3357(5) 1.2922(4) 0.2568(3)
H2 H 0.3718 1.3561 0.2824
C5 C 0.3653(4) 1.1705(4) 0.2857(3)
H3 H 0.4228 1.1527 0.3288
C6 C 0.3089(4) 1.0745(4) 0.2501(3)
C7 C 0.2254(4) 1.1043(3) 0.1843(3)
H4 H 0.1858 1.0407 0.1612
C8 C 0.3339(4) 0.9402(4) 0.2777(3)
C9 C 0.4622(4) 0.8869(4) 0.2824(3)
H5 H 0.5360 0.9369 0.2726
C10 C 0.4801(4) 0.7582(4) 0.3021(3)
C11 C 0.6205(4) 0.6998(4) 0.2997(3)
C12 C 0.3701(4) 0.6829(4) 0.3190(3)
H6 H 0.3824 0.5976 0.3325
C13 C 0.2415(4) 0.7360(4) 0.3157(3)
C14 C 0.1199(4) 0.6576(4) 0.3299(3)
C15 C 0.2253(4) 0.8619(4) 0.2940(3)
H7 H 0.1395 0.8960 0.2900
C16 C -0.1722(5) 0.3047(4) 0.2686(4)
H8 H -0.2144 0.3268 0.2160
C17 C -0.1482(5) 0.1885(4) 0.3020(4)
H9 H -0.1692 0.1158 0.2772
C18 C -0.0732(4) 0.3179(3) 0.3892(3)
H10 H -0.0326 0.3491 0.4360
C19 C -0.4256(4) 1.1549(4) 0.0338(4)
H11 H -0.5191 1.1451 0.0442
C20 C -0.3274(4) 1.0644(4) 0.0380(3)
H12 H -0.3429 0.9805 0.0528
C21 C -0.2256(4) 1.2346(4) 0.0012(3)
H13 H -0.1582 1.2922 -0.0148
C22 C -0.4285(4) 1.3860(4) 0.0036(3)
C23 C -0.5288(4) 1.3987(4) -0.0489(3)
H14 H -0.5481 1.3310 -0.0812
C24 C -0.3991(4) 1.4850(4) 0.0527(3)
H15 H -0.3319 1.4748 0.0882
C25 C -0.0413(4) 0.0960(3) 0.4411(3)
C26 C -0.1062(4) -0.0151(4) 0.4564(3)
H16 H -0.1773 -0.0245 0.4268
C27 C 0.06450(8) 0.11152(7) 0.48419(7)
H17 H 0.1074 0.1863 0.4733
N1 N -0.12557(8) 0.38720(7) 0.32318(7)
N2 N -0.08601(8) 0.19707(7) 0.38036(7)
N3 N -0.20048(8) 1.11385(7) 0.01711(7)
N4 N -0.36070(8) 1.26439(7) 0.01111(7)
O1 O 0.09533(8) 1.36148(7) 0.04575(7)
O2 O 0.08750(8) 1.15768(7) 0.03482(7)
O3 O 0.72158(8) 0.76600(7) 0.28249(7)
O4 O 0.63660(8) 0.58449(7) 0.31350(7)
O5 O 0.11590(8) 0.55269(7) 0.37449(7)
O6 O 0.02340(8) 0.70710(7) 0.29301(7)
O7 O -0.21517(8) 0.60355(7) 0.48418(7)
O8 O -0.05873(8) 0.56274(7) 0.13873(7)
O9 O -0.06918(8) 0.91766(7) 0.17134(7)
H18 H -0.1459 0.8797 0.1895
H19 H -0.0170 0.8570 0.1902
H20 H -0.3011 0.6082 0.5125
H21 H -0.1804 0.5721 0.5311
H22 H -0.0189 0.4914 0.1233
H23 H -0.0774 0.5896 0.0831
C16A C 0.1722(5) -0.3047(4) 0.7314(4)
H8A H 0.2144 -0.3268 0.7840
C17A C 0.1482(5) -0.1885(4) 0.6980(4)
H9A H 0.1692 -0.1158 0.7228
C18A C 0.0732(4) -0.3179(3) 0.6108(3)
H10A H 0.0326 -0.3491 0.5640
C25A C 0.0413(4) -0.0960(3) 0.5589(3)
C26A C 0.1062(4) 0.0151(4) 0.5436(3)
H16A H 0.1773 0.0245 0.5732
C27A C -0.06450(8) -0.11152(7) 0.51581(7)
H17A H -0.1074 -0.1863 0.5267
N1A N 0.12557(8) -0.38720(7) 0.67682(7)
N2A N 0.08601(8) -0.19707(7) 0.61964(7)
C19A C -0.5744(4) 1.8451(4) -0.0338(4)
H11A H -0.4809 1.8549 -0.0442
C20A C -0.6726(4) 1.9356(4) -0.0380(3)
H12A H -0.6571 2.0195 -0.0528
C21A C -0.7744(4) 1.7654(4) -0.0012(3)
H13A H -0.8418 1.7078 0.0148
C22A C -0.5715(4) 1.6140(4) -0.0036(3)
C23A C -0.4712(4) 1.6013(4) 0.0489(3)
H14A H -0.4519 1.6690 0.0812
C24A C -0.6009(4) 1.5150(4) -0.0527(3)
H15A H -0.6681 1.5252 -0.0882
N3A N -0.79952(8) 1.88615(7) -0.01711(7)
N4A N -0.63930(8) 1.73561(7) -0.01111(7)
Mn1_2 Mn -1.13841(6) 0.59120(5) 0.30786(5)
C1_2 C -0.8795(4) 1.2501(4) 0.0723(3)
C2_2 C -0.8001(4) 1.2260(3) 0.1522(3)
C3_2 C -0.7462(4) 1.3219(4) 0.1908(3)
H1_2 H -0.7651 1.4046 0.1722
C4_2 C -0.6643(5) 1.2922(4) 0.2568(3)
H2_2 H -0.6282 1.3561 0.2824
C5_2 C -0.6347(4) 1.1705(4) 0.2857(3)
H3_2 H -0.5772 1.1527 0.3288
C6_2 C -0.6911(4) 1.0745(4) 0.2501(3)
C7_2 C -0.7746(4) 1.1043(3) 0.1843(3)
H4_2 H -0.8142 1.0407 0.1612
C8_2 C -0.6661(4) 0.9402(4) 0.2777(3)
C9_2 C -0.5378(4) 0.8869(4) 0.2824(3)
H5_2 H -0.4640 0.9369 0.2726
C10_2 C -0.5199(4) 0.7582(4) 0.3021(3)
C11_2 C -0.3795(4) 0.6998(4) 0.2997(3)
C12_2 C -0.6299(4) 0.6829(4) 0.3190(3)
H6_2 H -0.6176 0.5976 0.3325
C13_2 C -0.7585(4) 0.7360(4) 0.3157(3)
C14_2 C -0.8801(4) 0.6576(4) 0.3299(3)
C15_2 C -0.7747(4) 0.8619(4) 0.2940(3)
H7_2 H -0.8605 0.8960 0.2900
O1_2 O -0.90467(8) 1.36148(7) 0.04575(7)
O2_2 O -0.91250(8) 1.15768(7) 0.03482(7)
O3_2 O -0.27842(8) 0.76600(7) 0.28249(7)
O4_2 O -0.36340(8) 0.58449(7) 0.31350(7)
O5_2 O -0.88410(8) 0.55269(7) 0.37449(7)
O6_2 O -0.97660(8) 0.70710(7) 0.29301(7)
O7_2 O -1.21517(8) 0.60355(7) 0.48418(7)
O8_2 O -1.05873(8) 0.56274(7) 0.13873(7)
H20_2 H -1.3011 0.6082 0.5125
H21_2 H -1.1804 0.5721 0.5311
H22_2 H -1.0189 0.4914 0.1233
H23_2 H -1.0774 0.5896 0.0831
O9A O 0.06918(8) 1.08234(7) -0.17134(7)
H18A H 0.1459 1.1203 -0.1895
H19A H 0.0170 1.1430 -0.1902
Mn1_3 Mn 0.86159(6) 0.59120(5) 0.30786(5)
Mn1A Mn 0.13841(6) -0.59120(5) 0.69214(5)
Mn2_2 Mn -1.0000 1.0000 0.0000
Mn2_3 Mn -1.0000 2.0000 0.0000
N1_2 N -1.12557(8) 0.38720(7) 0.32318(7)
N3A_2 N 0.20048(8) 0.88615(7) -0.01711(7)
O2A O -0.08750(8) 0.84232(7) -0.03482(7)
O3_3 O -1.27842(8) 0.76600(7) 0.28249(7)
O4_3 O -1.36340(8) 0.58449(7) 0.31350(7)
O10 O 0.50215(8) 0.37797(7) 0.43053(7)
H24 H 0.5490 0.4414 0.4201
H25 H 0.5315 0.3354 0.4775
loop_
_geom_bond_atom_site_label_1
_geom_bond_atom_site_label_2
_geom_bond_site_symmetry_1
_geom_bond_site_symmetry_2
Mn1 N1 1_555 1_555
Mn2 N3 1_555 1_555
C1 C2 1_555 1_555
C2 C3 1_555 1_555
C3 H1 1_555 1_555
C4 C3 1_555 1_555
H2 C4 1_555 1_555
C5 C4 1_555 1_555
H3 C5 1_555 1_555
C6 C5 1_555 1_555
C7 C2 1_555 1_555
H4 C7 1_555 1_555
C8 C6 1_555 1_555
C9 C8 1_555 1_555
H5 C9 1_555 1_555
C10 C9 1_555 1_555
C11 C10 1_555 1_555
C12 C10 1_555 1_555
H6 C12 1_555 1_555
C13 C12 1_555 1_555
C14 C13 1_555 1_555
C15 C8 1_555 1_555
H7 C15 1_555 1_555
C16 H8 1_555 1_555
C17 C16 1_555 1_555
H9 C17 1_555 1_555
C18 H10 1_555 1_555
C19 H11 1_555 1_555
C20 C19 1_555 1_555
H12 C20 1_555 1_555
C21 H13 1_555 1_555
C22 C23 1_555 1_555
C23 H14 1_555 1_555
C24 C22 1_555 1_555
H15 C24 1_555 1_555
C25 C26 1_555 1_555
C26 H16 1_555 1_555
C27 C25 1_555 1_555
H17 C27 1_555 1_555
N1 C16 1_555 1_555
N2 C17 1_555 1_555
N3 C20 1_555 1_555
N4 C19 1_555 1_555
O1 C1 1_555 1_555
O2 Mn2 1_555 1_555
O3 C11 1_555 1_555
O4 C11 1_555 1_555
O5 C14 1_555 1_555
O6 Mn1 1_555 1_555
O7 Mn1 1_555 1_555
O8 Mn1 1_555 1_555
O9 Mn2 1_555 1_555
H18 O9 1_555 1_555
H19 O9 1_555 1_555
H20 O7 1_555 1_555
H21 O7 1_555 1_555
H22 O8 1_555 1_555
H23 O8 1_555 1_555
O10 H24 1_555 1_555
H25 O10 1_555 1_555
C16A H8A 1_555 1_555
C17A C16A 1_555 1_555
H9A C17A 1_555 1_555
C18A H10A 1_555 1_555
C25A C26A 1_555 1_555
C26A C27 1_555 1_555
H16A C26A 1_555 1_555
C27A C26 1_555 1_555
H17A C27A 1_555 1_555
N1A C16A 1_555 1_555
N2A C17A 1_555 1_555
C19A H11A 1_555 1_555
C20A C19A 1_555 1_555
H12A C20A 1_555 1_555
C21A H13A 1_555 1_555
C22A C23A 1_555 1_555
C23A C24 1_555 1_555
H14A C23A 1_555 1_555
C24A C23 1_555 1_555
H15A C24A 1_555 1_555
N3A C20A 1_555 1_555
N4A C19A 1_555 1_555
Mn1_2 O6_2 1_555 1_555
C1_2 C2_2 1_555 1_555
C2_2 C3_2 1_555 1_555
C3_2 H1_2 1_555 1_555
C4_2 C3_2 1_555 1_555
H2_2 C4_2 1_555 1_555
C5_2 C4_2 1_555 1_555
H3_2 C5_2 1_555 1_555
C6_2 C5_2 1_555 1_555
C7_2 C2_2 1_555 1_555
H4_2 C7_2 1_555 1_555
C8_2 C6_2 1_555 1_555
C9_2 C8_2 1_555 1_555
H5_2 C9_2 1_555 1_555
C10_2 C9_2 1_555 1_555
C11_2 C10_2 1_555 1_555
C12_2 C10_2 1_555 1_555
H6_2 C12_2 1_555 1_555
C13_2 C12_2 1_555 1_555
C14_2 C13_2 1_555 1_555
C15_2 C8_2 1_555 1_555
H7_2 C15_2 1_555 1_555
O1_2 C1_2 1_555 1_555
O2_2 C1_2 1_555 1_555
O3_2 Mn1 1_555 1_555
O4_2 Mn1 1_555 1_555
O5_2 C14_2 1_555 1_555
O6_2 C14_2 1_555 1_555
O7_2 Mn1_2 1_555 1_555
O8_2 Mn1_2 1_555 1_555
H20_2 O7_2 1_555 1_555
H21_2 O7_2 1_555 1_555
H22_2 O8_2 1_555 1_555
H23_2 O8_2 1_555 1_555
O9A Mn2 1_555 1_555
H18A O9A 1_555 1_555
H19A O9A 1_555 1_555
Mn1_3 O3 1_555 1_555
Mn1A N1A 1_555 1_555
Mn2_2 O2_2 1_555 1_555
Mn2_3 N3A 1_555 1_555
N1_2 Mn1_2 1_555 1_555
N3A_2 Mn2 1_555 1_555
O2A Mn2 1_555 1_555
O3_3 Mn1_2 1_555 1_555
O4_3 Mn1_2 1_555 1_555
C1 O2 1_555 1_555
C6 C7 1_555 1_555
C13 C15 1_555 1_555
C14 O6 1_555 1_555
C18 N1 1_555 1_555
C18 N2 1_555 1_555
C21 N3 1_555 1_555
C21 N4 1_555 1_555
C22 N4 1_555 1_555
C25 N2 1_555 1_555
O4 Mn1_3 1_555 1_555
C18A N1A 1_555 1_555
C18A N2A 1_555 1_555
C25A C27A 1_555 1_555
C25A N2A 1_555 1_555
C21A N3A 1_555 1_555
C21A N4A 1_555 1_555
C22A C24A 1_555 1_555
C22A N4A 1_555 1_555
C6_2 C7_2 1_555 1_555
C11_2 O3_2 1_555 1_555
C11_2 O4_2 1_555 1_555
C13_2 C15_2 1_555 1_555

#END
