
#######################################################################
#
#                 Cambridge Crystallographic Data Centre
#                                CCDC 
#
#######################################################################
#
# If this CIF has been generated from an entry in the Cambridge 
# Structural Database, then it will include bibliographic, chemical, 
# crystal, experimental, refinement or atomic coordinate data resulting 
# from the CCDC's data processing and validation procedures.
#
#######################################################################

data_FOHSEC
_symmetry_cell_setting           monoclinic
_symmetry_space_group_name_H-M   'P 21/c'
_symmetry_Int_Tables_number      14
_space_group_name_Hall           '-P 2ybc'
loop_
_symmetry_equiv_pos_site_id
_symmetry_equiv_pos_as_xyz
1 x,y,z
2 -x,1/2+y,1/2-z
3 -x,-y,-z
4 x,1/2-y,1/2+z
_cell_length_a                   13.683(2)
_cell_length_b                   23.839(4)
_cell_length_c                   14.576(2)
_cell_angle_alpha                90
_cell_angle_beta                 99.745(4)
_cell_angle_gamma                90
_cell_volume                     4685.93
loop_
_atom_site_label
_atom_site_type_symbol
_atom_site_fract_x
_atom_site_fract_y
_atom_site_fract_z
Ni1 Ni 0.0000 0.5000 1.0000
Ni2 Ni -0.01770(7) 0.74490(5) 0.21803(8)
C1 C 0.0850(6) 0.6256(4) 0.2421(6)
H1 H 0.1014 0.6247 0.1827
C2 C 0.1092(7) 0.5856(4) 0.3071(7)
H2 H 0.1452 0.5531 0.3016
C3 C 0.0243(6) 0.6524(4) 0.3608(6)
H3 H -0.0086 0.6729 0.4005
C4 C 0.0766(7) 0.5762(4) 0.4731(6)
C5 C 0.1661(7) 0.5547(4) 0.5160(7)
H4 H 0.2206 0.5548 0.4857
C6 C 0.1735(6) 0.5335(4) 0.6036(7)
H5 H 0.2337 0.5186 0.6328
C7 C 0.0929(7) 0.5335(4) 0.6501(7)
C8 C 0.0033(7) 0.5531(4) 0.6060(6)
H6 H -0.0515 0.5520 0.6359
C9 C -0.0054(6) 0.5746(4) 0.5164(6)
H7 H -0.0662 0.5879 0.4858
C10 C 0.1805(8) 0.4851(5) 0.7927(8)
H8 H 0.2355 0.4718 0.7696
C11 C 0.1629(8) 0.4793(5) 0.8809(7)
H9 H 0.2056 0.4623 0.9293
C12 C 0.0401(7) 0.5231(4) 0.8046(7)
H10 H -0.0198 0.5421 0.7891
C13 C 0.1570(7) 0.8288(5) 0.2411(9)
H11 H 0.1159 0.8585 0.2506
C14 C 0.2536(7) 0.8335(4) 0.2402(9)
H12 H 0.2915 0.8661 0.2492
C15 C 0.2068(6) 0.7479(4) 0.2173(7)
H13 H 0.2084 0.7094 0.2075
C16 C 0.3830(6) 0.7650(4) 0.2159(7)
C17 C 0.4115(6) 0.7096(4) 0.2286(7)
H14 H 0.3658 0.6829 0.2408
C18 C 0.5070(6) 0.6935(4) 0.2232(7)
H15 H 0.5256 0.6560 0.2314
C19 C 0.5749(6) 0.7330(4) 0.2056(6)
C20 C 0.5468(6) 0.7878(4) 0.1935(7)
H16 H 0.5932 0.8144 0.1823
C21 C 0.4515(6) 0.8046(4) 0.1975(7)
H17 H 0.4332 0.8420 0.1879
C22 C 0.7048(6) 0.6627(4) 0.1793(7)
H18 H 0.6650 0.6311 0.1657
C23 C 0.8048(7) 0.6659(4) 0.1826(7)
H19 H 0.8451 0.6364 0.1703
C24 C 0.7573(6) 0.7488(4) 0.2161(6)
H20 H 0.7571 0.7867 0.2312
N1 N 0.0694(5) 0.6027(3) 0.3838(5)
N2 N 0.0322(5) 0.6683(3) 0.2760(5)
N3 N 0.1035(5) 0.5139(3) 0.7445(5)
N4 N 0.0727(5) 0.5021(3) 0.8878(5)
N5 N 0.1264(5) 0.7753(3) 0.2263(5)
N6 N 0.2862(5) 0.7808(3) 0.2237(5)
N7 N 0.8374(5) 0.7194(3) 0.2070(5)
N8 N 0.6753(5) 0.7152(3) 0.1999(5)
O1 O -0.0221(4) 0.7117(3) 0.0855(4)
H21 H 0.0346 0.7072 0.0756
O2 O -0.0671(5) 0.8218(2) 0.1553(4)
H22 H -0.0861 0.8422 0.1940
O3 O -0.0315(4) 0.7828(3) 0.3452(4)
H23 H 0.0202 0.7991 0.3663
O4 O 0.1309(4) 0.5204(2) 1.0887(4)
H24 H 0.1676 0.4930 1.0956
H25 H 0.1408 0.5369 1.0381
O5 O 0.0348(4) 0.4158(2) 1.0185(5)
H26 H 0.0117 0.4037 1.0630
H27 H 0.0954 0.4170 1.0441
H28 H -0.0540 0.7249 0.0377
H29 H -0.0718 0.8437 0.1041
H30 H -0.0559 0.8205 0.3086
Ni2B Ni 0.01770(7) 0.25510(5) 1.78197(8)
C1B C -0.0850(6) 0.3744(4) 1.7579(6)
H1B H -0.1014 0.3753 1.8173
C2B C -0.1092(7) 0.4144(4) 1.6929(7)
H2B H -0.1452 0.4469 1.6984
C3B C -0.0243(6) 0.3476(4) 1.6392(6)
H3B H 0.0086 0.3271 1.5995
C4B C -0.0766(7) 0.4238(4) 1.5269(6)
C5B C -0.1661(7) 0.4453(4) 1.4840(7)
H4B H -0.2206 0.4452 1.5143
C6B C -0.1735(6) 0.4665(4) 1.3964(7)
H5B H -0.2337 0.4814 1.3672
C7B C -0.0929(7) 0.4665(4) 1.3499(7)
C8B C -0.0033(7) 0.4469(4) 1.3940(6)
H6B H 0.0515 0.4480 1.3641
C9B C 0.0054(6) 0.4254(4) 1.4836(6)
H7B H 0.0662 0.4121 1.5142
C10B C -0.1805(8) 0.5149(5) 1.2073(8)
H8B H -0.2355 0.5282 1.2304
C11B C -0.1629(8) 0.5207(5) 1.1191(7)
H9B H -0.2056 0.5377 1.0707
C12B C -0.0401(7) 0.4769(4) 1.1954(7)
H10B H 0.0198 0.4579 1.2109
C13B C -0.1570(7) 0.1712(5) 1.7589(9)
H11B H -0.1159 0.1415 1.7494
C14B C -0.2536(7) 0.1665(4) 1.7598(9)
H12B H -0.2915 0.1339 1.7508
C15B C -0.2068(6) 0.2521(4) 1.7827(7)
H13B H -0.2084 0.2906 1.7925
C16B C -0.3830(6) 0.2350(4) 1.7841(7)
C17B C -0.4115(6) 0.2904(4) 1.7714(7)
H14B H -0.3658 0.3171 1.7592
C18B C -0.5070(6) 0.3065(4) 1.7768(7)
H15B H -0.5256 0.3440 1.7686
C19B C -0.5749(6) 0.2670(4) 1.7944(6)
C20B C -0.5468(6) 0.2122(4) 1.8065(7)
H16B H -0.5932 0.1856 1.8177
C21B C -0.4515(6) 0.1954(4) 1.8025(7)
H17B H -0.4332 0.1580 1.8121
C22B C -0.7048(6) 0.3373(4) 1.8207(7)
H18B H -0.6650 0.3689 1.8343
C23B C -0.8048(7) 0.3341(4) 1.8174(7)
H19B H -0.8451 0.3636 1.8297
C24B C -0.7573(6) 0.2512(4) 1.7839(6)
H20B H -0.7571 0.2133 1.7688
N1B N -0.0694(5) 0.3973(3) 1.6162(5)
N2B N -0.0322(5) 0.3317(3) 1.7240(5)
N3B N -0.1035(5) 0.4861(3) 1.2555(5)
N4B N -0.0727(5) 0.4979(3) 1.1122(5)
N5B N -0.1264(5) 0.2247(3) 1.7737(5)
N6B N -0.2862(5) 0.2192(3) 1.7763(5)
N7B N -0.8374(5) 0.2806(3) 1.7930(5)
N8B N -0.6753(5) 0.2848(3) 1.8001(5)
O1B O 0.0221(4) 0.2883(3) 1.9145(4)
H21B H -0.0346 0.2928 1.9244
O2B O 0.0671(5) 0.1782(2) 1.8447(4)
H22B H 0.0861 0.1578 1.8060
O3B O 0.0315(4) 0.2172(3) 1.6548(4)
H23B H -0.0202 0.2009 1.6337
O4B O -0.1309(4) 0.4796(2) 0.9113(4)
H24B H -0.1676 0.5070 0.9044
H25B H -0.1408 0.4631 0.9619
O5B O -0.0348(4) 0.5842(2) 0.9815(5)
H26B H -0.0117 0.5963 0.9370
H27B H -0.0954 0.5830 0.9559
H28B H 0.0540 0.2751 1.9623
H29B H 0.0718 0.1563 1.8959
H30B H 0.0559 0.1795 1.6914
Ni2_2 Ni 0.98230(7) 0.74490(5) 0.21803(8)
Ni2B_2 Ni -0.98230(7) 0.25510(5) 1.78197(8)
N7_2 N -0.1626(5) 0.7194(3) 0.2070(5)
N7B_2 N 0.1626(5) 0.2806(3) 1.7930(5)
C25 C 0.2945(6) 0.7006(4) 0.4572(7)
H31 H 0.2719 0.6638 0.4491
C26 C 0.3926(6) 0.7124(4) 0.4527(7)
H32 H 0.4353 0.6835 0.4426
C27 C 0.4280(6) 0.7674(4) 0.4633(6)
C28 C 0.3615(6) 0.8073(4) 0.4810(6)
H33 H 0.3837 0.8441 0.4893
C29 C 0.2656(6) 0.7966(3) 0.4873(6)
C30 C 0.2301(6) 0.7418(4) 0.4734(7)
H34 H 0.1640 0.7335 0.4752
C31 C 0.1948(7) 0.8422(4) 0.5057(7)
C32 C 0.6058(6) 0.7398(4) 0.4615(6)
H35 H 0.5900 0.7030 0.4741
C33 C 0.7018(6) 0.7526(4) 0.4505(6)
C34 C 0.7257(6) 0.8077(4) 0.4318(6)
H36 H 0.7901 0.8164 0.4241
C35 C 0.6557(6) 0.8492(4) 0.4246(6)
C36 C 0.5585(6) 0.8357(4) 0.4354(7)
H37 H 0.5108 0.8639 0.4299
C37 C 0.5317(6) 0.7812(4) 0.4540(6)
C38 C 0.7799(7) 0.7070(4) 0.4627(7)
C39 C 0.6826(7) 0.9099(4) 0.4063(7)
O6 O 0.1033(4) 0.8342(2) 0.4827(4)
O7 O 0.2300(5) 0.8853(3) 0.5440(6)
O8 O 0.7566(5) 0.6577(3) 0.4746(7)
O9 O 0.8702(4) 0.7219(3) 0.4618(4)
O10 O 0.7704(4) 0.9196(3) 0.3967(5)
O11 O 0.6178(5) 0.9454(3) 0.4031(7)
O12 O 0.6156(6) 0.0564(3) 0.3542(8)
O13 O 0.3972(16) 0.5668(8) 0.3483(19)
O14 O 0.6115(12) 0.5802(6) 0.4274(16)
O15 O 0.8092(6) 0.8993(4) 0.2228(7)
O16 O 0.4289(10) 0.9464(5) 0.2786(18)
O17 O 0.5776(6) 0.9525(4) 0.6012(9)
loop_
_geom_bond_atom_site_label_1
_geom_bond_atom_site_label_2
_geom_bond_site_symmetry_1
_geom_bond_site_symmetry_2
Ni1 N4 1_555 1_555
Ni2 N2 1_555 1_555
C1 H1 1_555 1_555
C2 C1 1_555 1_555
H2 C2 1_555 1_555
C3 H3 1_555 1_555
C4 C5 1_555 1_555
C5 H4 1_555 1_555
C6 C5 1_555 1_555
H5 C6 1_555 1_555
C7 C6 1_555 1_555
C8 C7 1_555 1_555
H6 C8 1_555 1_555
C9 C4 1_555 1_555
H7 C9 1_555 1_555
C10 H8 1_555 1_555
C11 C10 1_555 1_555
H9 C11 1_555 1_555
C12 H10 1_555 1_555
C13 H11 1_555 1_555
C14 C13 1_555 1_555
H12 C14 1_555 1_555
C15 H13 1_555 1_555
C16 C17 1_555 1_555
C17 H14 1_555 1_555
C18 C17 1_555 1_555
H15 C18 1_555 1_555
C19 C18 1_555 1_555
C20 C19 1_555 1_555
H16 C20 1_555 1_555
C21 C16 1_555 1_555
H17 C21 1_555 1_555
C22 H18 1_555 1_555
C23 C22 1_555 1_555
H19 C23 1_555 1_555
C24 H20 1_555 1_555
N1 C2 1_555 1_555
N2 C1 1_555 1_555
N3 C7 1_555 1_555
N4 C11 1_555 1_555
N5 Ni2 1_555 1_555
N6 C14 1_555 1_555
N7 C23 1_555 1_555
N8 C19 1_555 1_555
O1 Ni2 1_555 1_555
H21 O1 1_555 1_555
O2 Ni2 1_555 1_555
H22 O2 1_555 1_555
O3 Ni2 1_555 1_555
H23 O3 1_555 1_555
O4 Ni1 1_555 1_555
H24 O4 1_555 1_555
H25 O4 1_555 1_555
O5 Ni1 1_555 1_555
H26 O5 1_555 1_555
H27 O5 1_555 1_555
H28 O1 1_555 1_555
H29 O2 1_555 1_555
H30 O3 1_555 1_555
C25 H31 1_555 1_555
C26 C25 1_555 1_555
H32 C26 1_555 1_555
C27 C26 1_555 1_555
C28 C27 1_555 1_555
H33 C28 1_555 1_555
C29 C28 1_555 1_555
C30 C25 1_555 1_555
H34 C30 1_555 1_555
C31 C29 1_555 1_555
C32 H35 1_555 1_555
C33 C32 1_555 1_555
C34 C33 1_555 1_555
H36 C34 1_555 1_555
C35 C34 1_555 1_555
C36 C35 1_555 1_555
H37 C36 1_555 1_555
C37 C27 1_555 1_555
C38 C33 1_555 1_555
C39 C35 1_555 1_555
O6 C31 1_555 1_555
O7 C31 1_555 1_555
O8 C38 1_555 1_555
O9 C38 1_555 1_555
O10 C39 1_555 1_555
O11 C39 1_555 1_555
Ni2B N2B 1_555 1_555
C1B H1B 1_555 1_555
C2B C1B 1_555 1_555
H2B C2B 1_555 1_555
C3B H3B 1_555 1_555
C4B C5B 1_555 1_555
C5B H4B 1_555 1_555
C6B C5B 1_555 1_555
H5B C6B 1_555 1_555
C7B C6B 1_555 1_555
C8B C7B 1_555 1_555
H6B C8B 1_555 1_555
C9B C4B 1_555 1_555
H7B C9B 1_555 1_555
C10B H8B 1_555 1_555
C11B C10B 1_555 1_555
H9B C11B 1_555 1_555
C12B H10B 1_555 1_555
C13B H11B 1_555 1_555
C14B C13B 1_555 1_555
H12B C14B 1_555 1_555
C15B H13B 1_555 1_555
C16B C17B 1_555 1_555
C17B H14B 1_555 1_555
C18B C17B 1_555 1_555
H15B C18B 1_555 1_555
C19B C18B 1_555 1_555
C20B C19B 1_555 1_555
H16B C20B 1_555 1_555
C21B C16B 1_555 1_555
H17B C21B 1_555 1_555
C22B H18B 1_555 1_555
C23B C22B 1_555 1_555
H19B C23B 1_555 1_555
C24B H20B 1_555 1_555
N1B C2B 1_555 1_555
N2B C1B 1_555 1_555
N3B C7B 1_555 1_555
N4B Ni1 1_555 1_555
N5B Ni2B 1_555 1_555
N6B C14B 1_555 1_555
N7B C23B 1_555 1_555
N8B C19B 1_555 1_555
O1B Ni2B 1_555 1_555
H21B O1B 1_555 1_555
O2B Ni2B 1_555 1_555
H22B O2B 1_555 1_555
O3B Ni2B 1_555 1_555
H23B O3B 1_555 1_555
O4B Ni1 1_555 1_555
H24B O4B 1_555 1_555
H25B O4B 1_555 1_555
O5B Ni1 1_555 1_555
H26B O5B 1_555 1_555
H27B O5B 1_555 1_555
H28B O1B 1_555 1_555
H29B O2B 1_555 1_555
H30B O3B 1_555 1_555
Ni2_2 N7 1_555 1_555
Ni2B_2 N7B 1_555 1_555
N7_2 Ni2 1_555 1_555
N7B_2 Ni2B 1_555 1_555
C3 N1 1_555 1_555
C3 N2 1_555 1_555
C4 N1 1_555 1_555
C8 C9 1_555 1_555
C10 N3 1_555 1_555
C12 N3 1_555 1_555
C12 N4 1_555 1_555
C13 N5 1_555 1_555
C15 N5 1_555 1_555
C15 N6 1_555 1_555
C16 N6 1_555 1_555
C20 C21 1_555 1_555
C22 N8 1_555 1_555
C24 N7 1_555 1_555
C24 N8 1_555 1_555
C29 C30 1_555 1_555
C32 C37 1_555 1_555
C36 C37 1_555 1_555
C3B N1B 1_555 1_555
C3B N2B 1_555 1_555
C4B N1B 1_555 1_555
C8B C9B 1_555 1_555
C10B N3B 1_555 1_555
C11B N4B 1_555 1_555
C12B N3B 1_555 1_555
C12B N4B 1_555 1_555
C13B N5B 1_555 1_555
C15B N5B 1_555 1_555
C15B N6B 1_555 1_555
C16B N6B 1_555 1_555
C20B C21B 1_555 1_555
C22B N8B 1_555 1_555
C24B N7B 1_555 1_555
C24B N8B 1_555 1_555

#END
