
#######################################################################
#
#                 Cambridge Crystallographic Data Centre
#                                CCDC 
#
#######################################################################
#
# If this CIF has been generated from an entry in the Cambridge 
# Structural Database, then it will include bibliographic, chemical, 
# crystal, experimental, refinement or atomic coordinate data resulting 
# from the CCDC's data processing and validation procedures.
#
#######################################################################

data_FOHSAY
_symmetry_cell_setting           orthorhombic
_symmetry_space_group_name_H-M   'P 21 21 21'
_symmetry_Int_Tables_number      19
_space_group_name_Hall           'P 2ac 2ab'
loop_
_symmetry_equiv_pos_site_id
_symmetry_equiv_pos_as_xyz
1 x,y,z
2 1/2-x,-y,1/2+z
3 -x,1/2+y,1/2-z
4 1/2+x,1/2-y,-z
_cell_length_a                   11.6286(16)
_cell_length_b                   13.6585(18)
_cell_length_c                   15.944(2)
_cell_angle_alpha                90
_cell_angle_beta                 90
_cell_angle_gamma                90
_cell_volume                     2532.37
loop_
_atom_site_label
_atom_site_type_symbol
_atom_site_fract_x
_atom_site_fract_y
_atom_site_fract_z
Ni1 Ni 0.80588(6) 0.65022(5) 1.04409(4)
C1 C 0.5945(4) 0.5212(4) 1.0480(4)
C2 C 0.5295(4) 0.4446(4) 1.0979(3)
C3 C 0.5791(4) 0.4025(4) 1.1686(3)
H1 H 0.6533 0.4199 1.1845
C4 C 0.5175(4) 0.3343(4) 1.2156(3)
C5 C 0.4045(4) 0.3125(4) 1.1932(3)
H2 H 0.3622 0.2697 1.2265
C6 C 0.3536(4) 0.3527(4) 1.1225(3)
C7 C 0.4176(5) 0.4187(4) 1.0756(3)
H3 H 0.3850 0.4465 1.0279
C8 C 0.5715(5) 0.2884(4) 1.2922(3)
C9 C 0.2332(4) 0.3305(4) 1.1010(3)
C10 C 0.1479(4) 0.3278(4) 1.1633(3)
H4 H 0.1685 0.3376 1.2190
C11 C 0.0328(4) 0.3109(4) 1.1430(3)
C12 C 0.0024(5) 0.2952(4) 1.0606(4)
H5 H -0.0744 0.2855 1.0467
C13 C 0.0853(5) 0.2939(4) 0.9981(4)
H6 H 0.0647 0.2808 0.9429
C14 C 0.1998(5) 0.3124(4) 1.0187(3)
H7 H 0.2550 0.3127 0.9765
C15 C -0.0528(5) 0.3105(4) 1.2132(4)
C16 C 0.8439(5) 0.4823(4) 0.9161(4)
H8 H 0.7678 0.4616 0.9190
C17 C 0.9252(5) 0.4441(5) 0.8639(4)
H9 H 0.9152 0.3942 0.8249
C18 C 0.9985(4) 0.5606(4) 0.9409(3)
H10 H 1.0509 0.6047 0.9635
C19 C 1.1359(5) 0.4812(4) 0.8430(4)
C20 C 1.1452(5) 0.4415(4) 0.7630(4)
H11 H 1.0793 0.4267 0.7325
C21 C 1.2523(5) 0.4239(4) 0.7289(4)
H12 H 1.2585 0.3948 0.6764
C22 C 1.3505(4) 0.4496(4) 0.7727(3)
C23 C 1.3420(5) 0.4913(4) 0.8516(4)
H13 H 1.4078 0.5095 0.8810
C24 C 1.2341(5) 0.5055(4) 0.8859(4)
H14 H 1.2280 0.5321 0.9394
C25 C 1.4871(5) 0.3976(5) 0.6605(3)
H15 H 1.4319 0.3816 0.6206
C26 C 1.6477(5) 0.4198(4) 0.7225(4)
H16 H 1.7263 0.4215 0.7332
C27 C 1.5663(5) 0.4458(5) 0.7771(4)
H17 H 1.5776 0.4693 0.8312
N1 N 0.8911(4) 0.5560(3) 0.9641(3)
N2 N 1.0261(4) 0.4950(3) 0.8808(3)
N3 N 1.4626(4) 0.4311(3) 0.7380(3)
N4 N 1.5993(4) 0.3901(3) 0.6481(3)
O1 O 0.6875(3) 0.5492(3) 1.0797(2)
O2 O 0.5543(3) 0.5498(3) 0.9787(2)
O3 O -0.1587(3) 0.2966(4) 1.1846(3)
H18 H -0.2052 0.3118 1.2210
O4 O -0.0281(3) 0.3216(3) 1.2861(3)
O5 O 0.5086(3) 0.2424(3) 1.3430(2)
O6 O 0.6787(3) 0.2989(3) 1.3020(2)
O7 O 0.7197(3) 0.7533(3) 1.1194(2)
H19 H 0.7563 0.7624 1.1626
H20 H 0.6501 0.7471 1.1348
O8 O 0.7015(3) 0.7001(3) 0.9477(2)
H21 H 0.6524 0.6587 0.9371
H22 H 0.7388 0.6995 0.9018
O9 O 0.9205(4) 0.7629(3) 1.0103(3)
H23 H 0.9354 0.7588 0.9602
H24 H 0.9622 0.8139 1.0152
Ni1A Ni 1.69412(6) 0.34978(5) 0.54409(4)
N4A N 0.9007(4) 0.6099(3) 1.1481(3)
loop_
_geom_bond_atom_site_label_1
_geom_bond_atom_site_label_2
_geom_bond_site_symmetry_1
_geom_bond_site_symmetry_2
Ni1 N1 1_555 1_555
C1 C2 1_555 1_555
C2 C3 1_555 1_555
C3 H1 1_555 1_555
C4 C3 1_555 1_555
C5 C4 1_555 1_555
H2 C5 1_555 1_555
C6 C5 1_555 1_555
C7 C2 1_555 1_555
H3 C7 1_555 1_555
C8 C4 1_555 1_555
C9 C6 1_555 1_555
C10 C9 1_555 1_555
H4 C10 1_555 1_555
C11 C10 1_555 1_555
C12 C11 1_555 1_555
H5 C12 1_555 1_555
C13 C12 1_555 1_555
H6 C13 1_555 1_555
C14 C9 1_555 1_555
H7 C14 1_555 1_555
C15 C11 1_555 1_555
C16 H8 1_555 1_555
C17 C16 1_555 1_555
H9 C17 1_555 1_555
C18 H10 1_555 1_555
C19 C20 1_555 1_555
C20 H11 1_555 1_555
C21 C20 1_555 1_555
H12 C21 1_555 1_555
C22 C21 1_555 1_555
C23 C22 1_555 1_555
H13 C23 1_555 1_555
C24 C19 1_555 1_555
H14 C24 1_555 1_555
C25 H15 1_555 1_555
C26 H16 1_555 1_555
C27 C26 1_555 1_555
H17 C27 1_555 1_555
N1 C16 1_555 1_555
N2 C17 1_555 1_555
N3 C22 1_555 1_555
N4 C25 1_555 1_555
O1 Ni1 1_555 1_555
O2 C1 1_555 1_555
O3 C15 1_555 1_555
H18 O3 1_555 1_555
O4 C15 1_555 1_555
O5 C8 1_555 1_555
O6 C8 1_555 1_555
O7 Ni1 1_555 1_555
H19 O7 1_555 1_555
H20 O7 1_555 1_555
O8 Ni1 1_555 1_555
H21 O8 1_555 1_555
H22 O8 1_555 1_555
O9 Ni1 1_555 1_555
H23 O9 1_555 1_555
H24 O9 1_555 1_555
Ni1A N4 1_555 1_555
N4A Ni1 1_555 1_555
C1 O1 1_555 1_555
C6 C7 1_555 1_555
C13 C14 1_555 1_555
C18 N1 1_555 1_555
C18 N2 1_555 1_555
C19 N2 1_555 1_555
C23 C24 1_555 1_555
C25 N3 1_555 1_555
C26 N4 1_555 1_555
C27 N3 1_555 1_555

#END
