
#######################################################################
#
#                 Cambridge Crystallographic Data Centre
#                                CCDC 
#
#######################################################################
#
# If this CIF has been generated from an entry in the Cambridge 
# Structural Database, then it will include bibliographic, chemical, 
# crystal, experimental, refinement or atomic coordinate data resulting 
# from the CCDC's data processing and validation procedures.
#
#######################################################################

data_FOJBOX
_symmetry_cell_setting           triclinic
_symmetry_space_group_name_H-M   'P -1'
_symmetry_Int_Tables_number      2
_space_group_name_Hall           '-P 1'
loop_
_symmetry_equiv_pos_site_id
_symmetry_equiv_pos_as_xyz
1 x,y,z
2 -x,-y,-z
_cell_length_a                   10.3437(4)
_cell_length_b                   13.3030(6)
_cell_length_c                   13.8717(5)
_cell_angle_alpha                61.453(4)
_cell_angle_beta                 83.117(3)
_cell_angle_gamma                88.190(3)
_cell_volume                     1663.91
loop_
_atom_site_label
_atom_site_type_symbol
_atom_site_fract_x
_atom_site_fract_y
_atom_site_fract_z
Cd1 Cd 0.50532(2) 0.70305(2) 0.852654(18)
Cd2 Cd 1.5000 0.5000 0.5000
S1 S 0.95339(10) 0.55431(9) 1.30062(8)
O1 O 0.7595(3) 0.6884(3) 0.8355(2)
O2 O 0.6376(2) 0.6436(2) 0.9929(2)
O3 O 1.2523(2) 0.7066(2) 0.8253(2)
O4 O 1.3316(2) 0.6167(2) 0.9855(2)
O5 O 0.9490(5) 0.4334(3) 1.3653(3)
O6 O 1.0657(4) 0.6039(5) 1.3097(3)
O7 O 0.8377(5) 0.6080(5) 1.3156(3)
O8 O 0.5237(3) 0.5305(2) 0.8455(2)
O9 O 1.5565(4) 0.4781(4) 0.3435(3)
O10 O 1.6842(3) 0.6028(4) 0.4847(3)
N1 N 0.6897(3) 0.9487(2) 0.5301(2)
N2 N 0.6094(3) 0.9098(3) 0.4836(2)
N3 N 0.5613(3) 0.8225(3) 0.6679(2)
N4 N 1.2882(3) 0.8054(3) 0.2958(3)
N5 N 1.3901(4) 0.8622(3) 0.3047(3)
N6 N 1.4145(3) 0.6717(3) 0.3949(3)
N7 N 0.3272(3) 1.0036(3) 0.8557(3)
N8 N 0.3863(4) 0.9746(4) 0.9464(3)
N9 N 0.4569(3) 0.8681(3) 0.8663(2)
C1 C 0.8973(3) 0.9867(3) 0.4076(3)
C2 C 0.9724(4) 1.0642(3) 0.3118(3)
H1 H 0.9593 1.1431 0.2834
C3 C 1.0662(4) 1.0264(3) 0.2581(3)
H2 H 1.1168 1.0801 0.1937
C4 C 1.0871(4) 0.9101(3) 0.2974(3)
C5 C 1.0136(4) 0.8331(3) 0.3947(3)
H3 H 1.0276 0.7542 0.4240
C6 C 0.9204(4) 0.8708(3) 0.4490(3)
H4 H 0.8720 0.8173 0.5149
C7 C 0.7956(4) 1.0325(3) 0.4625(3)
H5 H 0.8371 1.0551 0.5095
H6 H 0.7590 1.1011 0.4056
C8 C 1.1817(4) 0.8690(4) 0.2335(3)
H7 H 1.1348 0.8196 0.2140
H8 H 1.2183 0.9350 0.1646
C9 C 0.6597(3) 0.8967(3) 0.6384(3)
H9 H 0.7020 0.9104 0.6875
C10 C 0.5337(3) 0.8340(3) 0.5705(3)
H10 H 0.4665 0.7917 0.5650
C11 C 1.4624(4) 0.7773(4) 0.3641(3)
H11 H 1.5421 0.7891 0.3840
C12 C 1.3046(4) 0.6944(4) 0.3491(4)
H12 H 1.2464 0.6388 0.3540
C13 C 0.1080(4) 1.0398(3) 0.9187(3)
C14 C 0.0648(4) 0.9272(3) 0.9681(3)
H13 H 0.1088 0.8765 0.9472
C15 C -0.0424(4) 0.8877(3) 1.0478(3)
H14 H -0.0709 0.8108 1.0795
C16 C 0.2219(4) 1.0851(3) 0.8293(3)
H15 H 0.1933 1.0998 0.7589
H16 H 0.2541 1.1578 0.8207
C17 C 0.4634(4) 0.8934(5) 0.9486(4)
H17 H 0.5188 0.8557 1.0036
C18 C 0.3693(4) 0.9400(3) 0.8096(3)
H18 H 0.3410 0.9449 0.7455
C19 C 0.8672(3) 0.6324(3) 0.9960(3)
C20 C 0.9912(3) 0.6476(3) 0.9376(3)
H19 H 0.9997 0.6693 0.8619
C21 C 1.1022(3) 0.6310(3) 0.9905(3)
C22 C 1.0888(3) 0.5990(3) 1.1025(3)
H20 H 1.1631 0.5873 1.1391
C23 C 0.9657(3) 0.5845(3) 1.1602(3)
C24 C 0.8546(3) 0.6006(3) 1.1076(3)
H21 H 0.7716 0.5898 1.1475
C25 C 0.7473(3) 0.6565(3) 0.9361(3)
C26 C 1.2373(3) 0.6522(3) 0.9287(3)
H22 H 0.596(3) 0.503(3) 0.877(3)
H23 H 0.461(3) 0.484(3) 0.892(3)
H24 H 1.604(3) 0.4177(19) 0.354(3)
H25 H 1.614(3) 0.531(2) 0.328(2)
H26 H 1.748(3) 0.617(3) 0.434(3)
H27 H 1.703(4) 0.609(3) 0.541(2)
N7A N -0.3272(3) 0.9964(3) 1.1443(3)
N8A N -0.3863(4) 1.0254(4) 1.0536(3)
N9A N -0.4569(3) 1.1319(3) 1.1337(2)
C13A C -0.1080(4) 0.9602(3) 1.0813(3)
C14A C -0.0648(4) 1.0728(3) 1.0319(3)
H13A H -0.1088 1.1235 1.0528
C15A C 0.0424(4) 1.1123(3) 0.9522(3)
H14A H 0.0709 1.1892 0.9205
C16A C -0.2219(4) 0.9149(3) 1.1707(3)
H15A H -0.1933 0.9002 1.2411
H16A H -0.2541 0.8422 1.1793
C17A C -0.4634(4) 1.1066(5) 1.0514(4)
H17A H -0.5188 1.1443 0.9964
C18A C -0.3693(4) 1.0600(3) 1.1904(3)
H18A H -0.3410 1.0551 1.2545
Cd1A Cd -0.50532(2) 1.29695(2) 1.147346(18)
S1A S -0.95339(10) 1.44569(9) 0.69938(8)
O1A O -0.7595(3) 1.3116(3) 1.1645(2)
O2A O -0.6376(2) 1.3564(2) 1.0071(2)
O3A O -1.2523(2) 1.2934(2) 1.1747(2)
O4A O -1.3316(2) 1.3833(2) 1.0145(2)
O5A O -0.9490(5) 1.5666(3) 0.6347(3)
O6A O -1.0657(4) 1.3961(5) 0.6903(3)
O7A O -0.8377(5) 1.3920(5) 0.6844(3)
O8A O -0.5237(3) 1.4695(2) 1.1545(2)
N1A N -0.6897(3) 1.0513(2) 1.4699(2)
N2A N -0.6094(3) 1.0902(3) 1.5164(2)
N3A N -0.5613(3) 1.1775(3) 1.3321(2)
N4A N -1.2882(3) 1.1946(3) 1.7042(3)
N5A N -1.3901(4) 1.1378(3) 1.6953(3)
N6A N -1.4145(3) 1.3283(3) 1.6051(3)
C1A C -0.8973(3) 1.0133(3) 1.5924(3)
C2A C -0.9724(4) 0.9358(3) 1.6882(3)
H1A H -0.9593 0.8569 1.7166
C3A C -1.0662(4) 0.9736(3) 1.7419(3)
H2A H -1.1168 0.9199 1.8063
C4A C -1.0871(4) 1.0899(3) 1.7026(3)
C5A C -1.0136(4) 1.1669(3) 1.6053(3)
H3A H -1.0276 1.2458 1.5760
C6A C -0.9204(4) 1.1292(3) 1.5510(3)
H4A H -0.8720 1.1827 1.4851
C7A C -0.7956(4) 0.9675(3) 1.5375(3)
H5A H -0.8371 0.9449 1.4905
H6A H -0.7590 0.8989 1.5944
C8A C -1.1817(4) 1.1310(4) 1.7665(3)
H7A H -1.1348 1.1804 1.7860
H8A H -1.2183 1.0650 1.8354
C9A C -0.6597(3) 1.1033(3) 1.3616(3)
H9A H -0.7020 1.0896 1.3125
C10A C -0.5337(3) 1.1660(3) 1.4295(3)
H10A H -0.4665 1.2083 1.4350
C11A C -1.4624(4) 1.2227(4) 1.6359(3)
H11A H -1.5421 1.2109 1.6160
C12A C -1.3046(4) 1.3056(4) 1.6509(4)
H12A H -1.2464 1.3612 1.6460
C19A C -0.8672(3) 1.3676(3) 1.0040(3)
C20A C -0.9912(3) 1.3524(3) 1.0624(3)
H19A H -0.9997 1.3307 1.1381
C21A C -1.1022(3) 1.3690(3) 1.0095(3)
C22A C -1.0888(3) 1.4010(3) 0.8975(3)
H20A H -1.1631 1.4127 0.8609
C23A C -0.9657(3) 1.4155(3) 0.8398(3)
C24A C -0.8546(3) 1.3994(3) 0.8924(3)
H21A H -0.7716 1.4102 0.8525
C25A C -0.7473(3) 1.3435(3) 1.0639(3)
C26A C -1.2373(3) 1.3478(3) 1.0713(3)
H22A H -0.596(3) 1.497(3) 1.123(3)
H23A H -0.461(3) 1.516(3) 1.108(3)
O9A O 1.4435(4) 0.5219(4) 0.6565(3)
H24A H 1.396(3) 0.5823(19) 0.646(3)
H25A H 1.386(3) 0.469(2) 0.672(2)
O10A O 1.3158(3) 0.3972(4) 0.5153(3)
H26A H 1.252(3) 0.383(3) 0.566(3)
H27A H 1.297(4) 0.391(3) 0.459(2)
Cd1_2 Cd 1.50532(2) 0.70305(2) 0.852654(18)
Cd1A_2 Cd -1.50532(2) 1.29695(2) 1.147346(18)
Cd2_2 Cd -1.5000 1.5000 1.5000
O3_2 O 0.2523(2) 0.7066(2) 0.8253(2)
O3A_2 O -0.2523(2) 1.2934(2) 1.1747(2)
O4_2 O 0.3316(2) 0.6167(2) 0.9855(2)
O4A_2 O -0.3316(2) 1.3833(2) 1.0145(2)
N6A_2 N 1.5855(3) 0.3283(3) 0.6051(3)
O11 O 1.2653(3) 0.6821(3) 0.6390(3)
H28 H 1.250(4) 0.681(3) 0.706(2)
H29 H 1.200(3) 0.637(3) 0.640(3)
O12 O 0.7662(4) 0.6207(3) 0.6575(3)
H30 H 0.753(4) 0.637(3) 0.714(2)
H31 H 0.837(3) 0.576(3) 0.664(3)
loop_
_geom_bond_atom_site_label_1
_geom_bond_atom_site_label_2
_geom_bond_site_symmetry_1
_geom_bond_site_symmetry_2
Cd1 O1 1_555 1_555
Cd2 O9 1_555 1_555
S1 O5 1_555 1_555
O1 C25 1_555 1_555
O2 Cd1 1_555 1_555
O3 C26 1_555 1_555
O4 C26 1_555 1_555
O6 S1 1_555 1_555
O7 S1 1_555 1_555
O8 Cd1 1_555 1_555
O9 H24 1_555 1_555
O10 Cd2 1_555 1_555
N1 N2 1_555 1_555
N2 C10 1_555 1_555
N3 Cd1 1_555 1_555
N4 N5 1_555 1_555
N5 C11 1_555 1_555
N6 Cd2 1_555 1_555
N7 N8 1_555 1_555
N8 C17 1_555 1_555
N9 Cd1 1_555 1_555
C1 C2 1_555 1_555
C2 H1 1_555 1_555
C3 C2 1_555 1_555
H2 C3 1_555 1_555
C4 C3 1_555 1_555
C5 C4 1_555 1_555
H3 C5 1_555 1_555
C6 C1 1_555 1_555
H4 C6 1_555 1_555
C7 N1 1_555 1_555
H5 C7 1_555 1_555
H6 C7 1_555 1_555
C8 N4 1_555 1_555
H7 C8 1_555 1_555
H8 C8 1_555 1_555
C9 N1 1_555 1_555
H9 C9 1_555 1_555
C10 N3 1_555 1_555
H10 C10 1_555 1_555
C11 N6 1_555 1_555
H11 C11 1_555 1_555
C12 N4 1_555 1_555
H12 C12 1_555 1_555
C13 C14 1_555 1_555
C14 H13 1_555 1_555
C15 C14 1_555 1_555
H14 C15 1_555 1_555
C16 N7 1_555 1_555
H15 C16 1_555 1_555
H16 C16 1_555 1_555
C17 N9 1_555 1_555
H17 C17 1_555 1_555
C18 N7 1_555 1_555
H18 C18 1_555 1_555
C19 C20 1_555 1_555
C20 H19 1_555 1_555
C21 C20 1_555 1_555
C22 C21 1_555 1_555
H20 C22 1_555 1_555
C23 S1 1_555 1_555
C24 C19 1_555 1_555
H21 C24 1_555 1_555
C25 O2 1_555 1_555
C26 C21 1_555 1_555
H22 O8 1_555 1_555
H23 O8 1_555 1_555
H25 O9 1_555 1_555
H26 O10 1_555 1_555
H27 O10 1_555 1_555
O11 H28 1_555 1_555
H29 O11 1_555 1_555
O12 H30 1_555 1_555
H31 O12 1_555 1_555
N7A N8A 1_555 1_555
N8A C17A 1_555 1_555
N9A C17A 1_555 1_555
C13A C15 1_555 1_555
C14A C13A 1_555 1_555
H13A C14A 1_555 1_555
C15A C13 1_555 1_555
H14A C15A 1_555 1_555
C16A N7A 1_555 1_555
H15A C16A 1_555 1_555
H16A C16A 1_555 1_555
C17A H17A 1_555 1_555
C18A N7A 1_555 1_555
H18A C18A 1_555 1_555
Cd1A N9A 1_555 1_555
S1A O5A 1_555 1_555
O1A Cd1A 1_555 1_555
O2A Cd1A 1_555 1_555
O3A C26A 1_555 1_555
O4A C26A 1_555 1_555
O6A S1A 1_555 1_555
O7A S1A 1_555 1_555
O8A Cd1A 1_555 1_555
N1A N2A 1_555 1_555
N2A C10A 1_555 1_555
N3A Cd1A 1_555 1_555
N4A N5A 1_555 1_555
N5A C11A 1_555 1_555
N6A C11A 1_555 1_555
C1A C2A 1_555 1_555
C2A H1A 1_555 1_555
C3A C2A 1_555 1_555
H2A C3A 1_555 1_555
C4A C3A 1_555 1_555
C5A C4A 1_555 1_555
H3A C5A 1_555 1_555
C6A C1A 1_555 1_555
H4A C6A 1_555 1_555
C7A N1A 1_555 1_555
H5A C7A 1_555 1_555
H6A C7A 1_555 1_555
C8A N4A 1_555 1_555
H7A C8A 1_555 1_555
H8A C8A 1_555 1_555
C9A N1A 1_555 1_555
H9A C9A 1_555 1_555
C10A N3A 1_555 1_555
H10A C10A 1_555 1_555
C11A H11A 1_555 1_555
C12A N4A 1_555 1_555
H12A C12A 1_555 1_555
C19A C20A 1_555 1_555
C20A H19A 1_555 1_555
C21A C20A 1_555 1_555
C22A C21A 1_555 1_555
H20A C22A 1_555 1_555
C23A S1A 1_555 1_555
C24A C19A 1_555 1_555
H21A C24A 1_555 1_555
C25A O1A 1_555 1_555
C26A C21A 1_555 1_555
H22A O8A 1_555 1_555
H23A O8A 1_555 1_555
O9A Cd2 1_555 1_555
H24A O9A 1_555 1_555
H25A O9A 1_555 1_555
O10A Cd2 1_555 1_555
H26A O10A 1_555 1_555
H27A O10A 1_555 1_555
Cd1_2 O3 1_555 1_555
Cd1A_2 O3A 1_555 1_555
Cd2_2 N6A 1_555 1_555
O3_2 Cd1 1_555 1_555
O3A_2 Cd1A 1_555 1_555
O4_2 Cd1 1_555 1_555
O4A_2 Cd1A 1_555 1_555
N6A_2 Cd2 1_555 1_555
O4 Cd1_2 1_555 1_555
N3 C9 1_555 1_555
N6 C12 1_555 1_555
N9 C18 1_555 1_555
C1 C7 1_555 1_555
C4 C8 1_555 1_555
C5 C6 1_555 1_555
C13 C16 1_555 1_555
C19 C25 1_555 1_555
C22 C23 1_555 1_555
C23 C24 1_555 1_555
N9A C18A 1_555 1_555
C13A C16A 1_555 1_555
C14A C15A 1_555 1_555
O2A C25A 1_555 1_555
O4A Cd1A_2 1_555 1_555
N3A C9A 1_555 1_555
N6A C12A 1_555 1_555
C1A C7A 1_555 1_555
C4A C8A 1_555 1_555
C5A C6A 1_555 1_555
C19A C25A 1_555 1_555
C22A C23A 1_555 1_555
C23A C24A 1_555 1_555

#END
