
#######################################################################
#
#                 Cambridge Crystallographic Data Centre
#                                CCDC 
#
#######################################################################
#
# If this CIF has been generated from an entry in the Cambridge 
# Structural Database, then it will include bibliographic, chemical, 
# crystal, experimental, refinement or atomic coordinate data resulting 
# from the CCDC's data processing and validation procedures.
#
#######################################################################

data_FOJBUC
_symmetry_cell_setting           triclinic
_symmetry_space_group_name_H-M   'P -1'
_symmetry_Int_Tables_number      2
_space_group_name_Hall           '-P 1'
loop_
_symmetry_equiv_pos_site_id
_symmetry_equiv_pos_as_xyz
1 x,y,z
2 -x,-y,-z
_cell_length_a                   8.6260(10)
_cell_length_b                   11.207(2)
_cell_length_c                   18.647(3)
_cell_angle_alpha                93.551(3)
_cell_angle_beta                 100.141(8)
_cell_angle_gamma                107.408(5)
_cell_volume                     1680.55
loop_
_atom_site_label
_atom_site_type_symbol
_atom_site_fract_x
_atom_site_fract_y
_atom_site_fract_z
C1 C 0.6555(9) 0.9534(8) 0.7971(4)
H1 H 0.6909 0.8975 0.7648
H2 H 0.7375 1.0386 0.8028
C2 C 0.6629(9) 0.9067(8) 0.8719(4)
H3 H 0.5821 0.8211 0.8668
H4 H 0.6290 0.9626 0.9049
C3 C 0.8356(8) 0.9024(7) 0.9075(3)
H5 H 0.8319 0.8734 0.9564
H6 H 0.9159 0.9884 0.9146
C4 C 0.0831(8) 1.2217(7) 0.8476(4)
C5 C -0.0458(12) 1.2485(9) 0.7326(5)
H7 H -0.0525 1.2427 0.6810
C6 C -0.1534(12) 1.2947(10) 0.7603(6)
H8 H -0.2341 1.3198 0.7288
C7 C -0.1450(11) 1.3047(9) 0.8327(6)
H9 H -0.2201 1.3372 0.8528
C8 C -0.0240(10) 1.2671(8) 0.8802(5)
H10 H -0.0170 1.2729 0.9318
C9 C 0.9119(12) 0.8217(10) 0.5786(4)
C10 C 0.7293(14) 0.6191(12) 0.5539(6)
H11 H 0.6579 0.5490 0.5706
C11 C 0.7480(16) 0.6080(14) 0.4824(6)
H12 H 0.6902 0.5322 0.4505
C12 C 0.8498(14) 0.7065(13) 0.4584(5)
H13 H 0.8643 0.7007 0.4091
C13 C 0.9321(13) 0.8143(12) 0.5047(5)
H14 H 1.0029 0.8843 0.4876
C14 C 0.5085(10) 1.0371(9) 0.6717(4)
C15 C 0.4522(11) 1.1379(9) 0.6516(5)
H15 H 0.3788 1.1628 0.6772
C16 C 0.5037(12) 1.2003(10) 0.5947(5)
H16 H 0.4649 1.2683 0.5814
C17 C 0.6096(12) 1.1670(11) 0.5567(5)
H17 H 0.6459 1.2124 0.5181
C18 C 0.6617(11) 1.0680(10) 0.5750(4)
H18 H 0.7344 1.0442 0.5485
C19 C 0.6118(10) 1.0006(9) 0.6314(4)
H19 H 0.6477 0.9303 0.6424
C20 C 0.3289(10) 0.8010(8) 0.7163(4)
C21 C 0.2731(11) 0.7603(9) 0.6419(5)
H20 H 0.3091 0.8160 0.6074
C22 C 0.1663(13) 0.6407(10) 0.6170(5)
H21 H 0.1281 0.6147 0.5658
C23 C 0.1150(13) 0.5585(9) 0.6667(5)
H22 H 0.0426 0.4755 0.6497
C24 C 0.1690(11) 0.5973(9) 0.7407(5)
H23 H 0.1346 0.5404 0.7748
C25 C 0.2721(9) 0.7172(8) 0.7658(4)
H24 H 0.3054 0.7438 0.8171
C26 C 0.7356(9) 0.6538(7) 0.8288(4)
C27 C 0.6811(10) 0.5964(8) 0.7562(4)
H25 H 0.7362 0.6322 0.7190
C28 C 0.5481(11) 0.4886(9) 0.7389(5)
H26 H 0.5117 0.4495 0.6896
C29 C 0.4663(11) 0.4359(9) 0.7921(5)
H27 H 0.3745 0.3608 0.7793
C30 C 0.5169(11) 0.4915(9) 0.8636(5)
H28 H 0.4602 0.4549 0.9001
C31 C 0.6499(10) 0.6004(8) 0.8824(4)
H29 H 0.6838 0.6395 0.9318
C32 C 1.0661(8) 0.7562(7) 0.9131(4)
C33 C 1.0611(9) 0.6328(7) 0.9154(4)
H30 H 0.9676 0.5673 0.8882
C34 C 1.1911(11) 0.6029(9) 0.9570(5)
H31 H 1.1855 0.5173 0.9589
C35 C 1.3280(11) 0.6975(9) 0.9955(5)
H32 H 1.4182 0.6773 1.0234
C36 C 1.3342(10) 0.8206(8) 0.9937(4)
H33 H 1.4288 0.8855 1.0207
C37 C 1.2054(8) 0.8519(7) 0.9535(3)
H34 H 1.2107 0.9377 0.9530
N1 N 0.0701(9) 1.2102(7) 0.7738(4)
N2 N 0.8057(10) 0.7227(8) 0.6011(4)
P1 P 0.4544(2) 0.9615(2) 0.75060(10)
P2 P 0.9077(2) 0.79682(18) 0.85163(9)
S1 S 0.2388(2) 1.17677(19) 0.90193(9)
S2 S 1.0223(2) 0.9546(2) 0.63996(10)
Au1 Au 0.33381(3) 1.06444(3) 0.820402(14)
Au2 Au 0.98318(3) 0.87957(3) 0.750791(13)
Au1_2 Au 1.33381(3) 1.06444(3) 0.820402(14)
Au2_2 Au -0.01682(3) 0.87957(3) 0.750791(13)
loop_
_geom_bond_atom_site_label_1
_geom_bond_atom_site_label_2
_geom_bond_site_symmetry_1
_geom_bond_site_symmetry_2
C1 H1 1_555 1_555
H2 C1 1_555 1_555
C2 C1 1_555 1_555
H3 C2 1_555 1_555
H4 C2 1_555 1_555
C3 C2 1_555 1_555
H5 C3 1_555 1_555
H6 C3 1_555 1_555
C4 C8 1_555 1_555
C5 H7 1_555 1_555
C6 C5 1_555 1_555
H8 C6 1_555 1_555
C7 C6 1_555 1_555
H9 C7 1_555 1_555
C8 C7 1_555 1_555
H10 C8 1_555 1_555
C9 C13 1_555 1_555
C10 H11 1_555 1_555
C11 C10 1_555 1_555
H12 C11 1_555 1_555
C12 C11 1_555 1_555
H13 C12 1_555 1_555
C13 C12 1_555 1_555
H14 C13 1_555 1_555
C14 C15 1_555 1_555
C15 H15 1_555 1_555
C16 C15 1_555 1_555
H16 C16 1_555 1_555
C17 C16 1_555 1_555
H17 C17 1_555 1_555
C18 C17 1_555 1_555
H18 C18 1_555 1_555
C19 C14 1_555 1_555
H19 C19 1_555 1_555
C20 C21 1_555 1_555
C21 H20 1_555 1_555
C22 C21 1_555 1_555
H21 C22 1_555 1_555
C23 C22 1_555 1_555
H22 C23 1_555 1_555
C24 C23 1_555 1_555
H23 C24 1_555 1_555
C25 C20 1_555 1_555
H24 C25 1_555 1_555
C26 C27 1_555 1_555
C27 H25 1_555 1_555
C28 C27 1_555 1_555
H26 C28 1_555 1_555
C29 C28 1_555 1_555
H27 C29 1_555 1_555
C30 C29 1_555 1_555
H28 C30 1_555 1_555
C31 C26 1_555 1_555
H29 C31 1_555 1_555
C32 C33 1_555 1_555
C33 H30 1_555 1_555
C34 C33 1_555 1_555
H31 C34 1_555 1_555
C35 C34 1_555 1_555
H32 C35 1_555 1_555
C36 C35 1_555 1_555
H33 C36 1_555 1_555
C37 C32 1_555 1_555
H34 C37 1_555 1_555
N1 C4 1_555 1_555
N2 C9 1_555 1_555
P1 C1 1_555 1_555
P2 C3 1_555 1_555
S1 C4 1_555 1_555
S2 C9 1_555 1_555
Au1 P1 1_555 1_555
Au2 P2 1_555 1_555
Au1_2 Au2 1_555 1_555
Au2_2 Au1 1_555 1_555
C5 N1 1_555 1_555
C10 N2 1_555 1_555
C14 P1 1_555 1_555
C18 C19 1_555 1_555
C20 P1 1_555 1_555
C24 C25 1_555 1_555
C26 P2 1_555 1_555
C30 C31 1_555 1_555
C32 P2 1_555 1_555
C36 C37 1_555 1_555
S1 Au1 1_555 1_555
S2 Au2 1_555 1_555

#END
