
#######################################################################
#
#                 Cambridge Crystallographic Data Centre
#                                CCDC 
#
#######################################################################
#
# If this CIF has been generated from an entry in the Cambridge 
# Structural Database, then it will include bibliographic, chemical, 
# crystal, experimental, refinement or atomic coordinate data resulting 
# from the CCDC's data processing and validation procedures.
#
#######################################################################

data_FOJBAI
_symmetry_cell_setting           monoclinic
_symmetry_space_group_name_H-M   'C 2/c'
_symmetry_Int_Tables_number      15
_space_group_name_Hall           '-C 2yn'
loop_
_symmetry_equiv_pos_site_id
_symmetry_equiv_pos_as_xyz
1 x,y,z
2 1/2+x,1/2+y,z
3 -x,y,1/2-z
4 1/2-x,1/2+y,1/2-z
5 -x,-y,-z
6 1/2-x,1/2-y,-z
7 x,-y,1/2+z
8 1/2+x,1/2-y,1/2+z
_cell_length_a                   16.035(5)
_cell_length_b                   20.323(5)
_cell_length_c                   11.264(5)
_cell_angle_alpha                90.000(5)
_cell_angle_beta                 114.330(5)
_cell_angle_gamma                90.000(5)
_cell_volume                     3344.7
loop_
_atom_site_label
_atom_site_type_symbol
_atom_site_fract_x
_atom_site_fract_y
_atom_site_fract_z
Au1 Au 0.40038(3) 0.13752(2) 0.16203(5)
S1 S 0.4097(3) 0.0570(2) 0.3120(4)
P1 P 0.3887(2) 0.22019(18) 0.0219(3)
N1 N 0.2286(9) 0.0791(6) 0.2317(12)
C1 C 0.2811(11) 0.2617(9) -0.0208(15)
C2 C 0.3060(12) 0.0510(8) 0.3245(15)
C3 C 0.3004(12) 0.0156(6) 0.4271(16)
H1 H 0.3528 -0.0052 0.4861
C4 C 0.2242(13) 0.0103(8) 0.4436(16)
H2 H 0.2237 -0.0146 0.5126
C5 C 0.1450(13) 0.0410(8) 0.3606(18)
H3 H 0.0921 0.0403 0.3754
C6 C 0.1484(11) 0.0736(8) 0.2522(16)
H4 H 0.0949 0.0923 0.1915
C7 C 0.4731(9) 0.2868(7) 0.0757(13)
C8 C 0.5664(9) 0.2677(7) 0.1179(13)
H5 H 0.5834 0.2237 0.1226
C9 C 0.6311(10) 0.3184(8) 0.1521(14)
H6 H 0.6924 0.3080 0.1760
C10 C 0.6070(12) 0.3815(9) 0.1511(18)
H7 H 0.6524 0.4135 0.1804
C11 C 0.5167(11) 0.4004(8) 0.1080(16)
H8 H 0.5010 0.4446 0.1042
C12 C 0.4501(11) 0.3522(8) 0.0707(17)
H9 H 0.3889 0.3642 0.0417
C13 C 0.3854(8) 0.1997(7) -0.1347(12)
C14 C 0.3891(13) 0.1339(7) -0.1684(15)
H10 H 0.3948 0.1007 -0.1087
C15 C 0.3842(17) 0.1179(9) -0.2907(19)
H11 H 0.3904 0.0742 -0.3104
C16 C 0.3707(14) 0.1643(10) -0.3808(19)
H12 H 0.3637 0.1521 -0.4640
C17 C 0.3668(11) 0.2320(8) -0.3512(15)
H13 H 0.3587 0.2650 -0.4122
C18 C 0.3757(11) 0.2460(8) -0.2265(15)
H14 H 0.3749 0.2900 -0.2039
H15 H 0.278(7) 0.307(6) -0.034(11)
Au1E Au 0.09962(3) 0.36248(2) -0.16203(5)
Au1B Au 0.59962(3) 0.13752(2) 0.33797(5)
Au1G Au -0.09962(3) 0.36248(2) -0.33797(5)
S1E S 0.0903(3) 0.4430(2) -0.3120(4)
P1E P 0.1113(2) 0.27981(18) -0.0219(3)
N1E N 0.2714(9) 0.4209(6) -0.2317(12)
C1E C 0.2189(11) 0.2383(9) 0.0208(15)
C2E C 0.1940(12) 0.4490(8) -0.3245(15)
C3E C 0.1996(12) 0.4844(6) -0.4271(16)
H1E H 0.1472 0.5052 -0.4861
C4E C 0.2758(13) 0.4897(8) -0.4436(16)
H2E H 0.2763 0.5146 -0.5126
C5E C 0.3550(13) 0.4590(8) -0.3606(18)
H3E H 0.4079 0.4597 -0.3754
C6E C 0.3516(11) 0.4264(8) -0.2522(16)
H4E H 0.4051 0.4077 -0.1915
C7E C 0.0269(9) 0.2132(7) -0.0757(13)
C8E C -0.0664(9) 0.2323(7) -0.1179(13)
H5E H -0.0834 0.2763 -0.1226
C9E C -0.1311(10) 0.1816(8) -0.1521(14)
H6E H -0.1924 0.1920 -0.1760
C10E C -0.1070(12) 0.1185(9) -0.1511(18)
H7E H -0.1524 0.0865 -0.1804
C11E C -0.0167(11) 0.0996(8) -0.1080(16)
H8E H -0.0010 0.0554 -0.1042
C12E C 0.0499(11) 0.1478(8) -0.0707(17)
H9E H 0.1111 0.1358 -0.0417
C13E C 0.1146(8) 0.3003(7) 0.1347(12)
C14E C 0.1109(13) 0.3661(7) 0.1684(15)
H10E H 0.1052 0.3993 0.1087
C15E C 0.1158(17) 0.3821(9) 0.2907(19)
H11E H 0.1096 0.4258 0.3104
C16E C 0.1293(14) 0.3357(10) 0.3808(19)
H12E H 0.1363 0.3479 0.4640
C17E C 0.1332(11) 0.2680(8) 0.3512(15)
H13E H 0.1413 0.2350 0.4122
C18E C 0.1243(11) 0.2540(8) 0.2265(15)
H14E H 0.1251 0.2100 0.2039
H15E H 0.222(7) 0.193(6) 0.034(11)
loop_
_geom_bond_atom_site_label_1
_geom_bond_atom_site_label_2
_geom_bond_site_symmetry_1
_geom_bond_site_symmetry_2
Au1 S1 1_555 1_555
S1 C2 1_555 1_555
P1 Au1 1_555 1_555
N1 C2 1_555 1_555
C1 P1 1_555 1_555
C2 C3 1_555 1_555
C3 H1 1_555 1_555
C4 C3 1_555 1_555
H2 C4 1_555 1_555
C5 C4 1_555 1_555
H3 C5 1_555 1_555
C6 N1 1_555 1_555
H4 C6 1_555 1_555
C7 P1 1_555 1_555
C8 C7 1_555 1_555
H5 C8 1_555 1_555
C9 C8 1_555 1_555
H6 C9 1_555 1_555
C10 C9 1_555 1_555
H7 C10 1_555 1_555
C11 C10 1_555 1_555
H8 C11 1_555 1_555
C12 C7 1_555 1_555
H9 C12 1_555 1_555
C13 P1 1_555 1_555
C14 C13 1_555 1_555
H10 C14 1_555 1_555
C15 C14 1_555 1_555
H11 C15 1_555 1_555
C16 C15 1_555 1_555
H12 C16 1_555 1_555
C17 C16 1_555 1_555
H13 C17 1_555 1_555
C18 C13 1_555 1_555
H14 C18 1_555 1_555
H15 C1 1_555 1_555
Au1E Au1G 1_555 1_555
Au1B Au1 1_555 1_555
S1E Au1E 1_555 1_555
P1E Au1E 1_555 1_555
N1E C2E 1_555 1_555
C1E C1 1_555 1_555
C2E S1E 1_555 1_555
C3E C2E 1_555 1_555
H1E C3E 1_555 1_555
C4E C3E 1_555 1_555
H2E C4E 1_555 1_555
C5E C4E 1_555 1_555
H3E C5E 1_555 1_555
C6E N1E 1_555 1_555
H4E C6E 1_555 1_555
C7E P1E 1_555 1_555
C8E C7E 1_555 1_555
H5E C8E 1_555 1_555
C9E C8E 1_555 1_555
H6E C9E 1_555 1_555
C10E C9E 1_555 1_555
H7E C10E 1_555 1_555
C11E C10E 1_555 1_555
H8E C11E 1_555 1_555
C12E C7E 1_555 1_555
H9E C12E 1_555 1_555
C13E P1E 1_555 1_555
C14E C13E 1_555 1_555
H10E C14E 1_555 1_555
C15E C14E 1_555 1_555
H11E C15E 1_555 1_555
C16E C15E 1_555 1_555
H12E C16E 1_555 1_555
C17E C16E 1_555 1_555
H13E C17E 1_555 1_555
C18E C13E 1_555 1_555
H14E C18E 1_555 1_555
H15E C1E 1_555 1_555
C5 C6 1_555 1_555
C11 C12 1_555 1_555
C17 C18 1_555 1_555
P1E C1E 1_555 1_555
C5E C6E 1_555 1_555
C11E C12E 1_555 1_555
C17E C18E 1_555 1_555

#END
