
#######################################################################
#
#                 Cambridge Crystallographic Data Centre
#                                CCDC 
#
#######################################################################
#
# If this CIF has been generated from an entry in the Cambridge 
# Structural Database, then it will include bibliographic, chemical, 
# crystal, experimental, refinement or atomic coordinate data resulting 
# from the CCDC's data processing and validation procedures.
#
#######################################################################

data_FOJBIR
_symmetry_cell_setting           triclinic
_symmetry_space_group_name_H-M   'P -1'
_symmetry_Int_Tables_number      2
_space_group_name_Hall           '-P 1'
loop_
_symmetry_equiv_pos_site_id
_symmetry_equiv_pos_as_xyz
1 x,y,z
2 -x,-y,-z
_cell_length_a                   10.187(3)
_cell_length_b                   13.377(4)
_cell_length_c                   17.241(5)
_cell_angle_alpha                101.129(8)
_cell_angle_beta                 100.063(7)
_cell_angle_gamma                93.506(5)
_cell_volume                     2258.84
loop_
_atom_site_label
_atom_site_type_symbol
_atom_site_fract_x
_atom_site_fract_y
_atom_site_fract_z
Cd1 Cd 1.5000 1.5000 0.5000
Cd2 Cd 0.72178(4) 0.92000(4) 0.85012(3)
S1 S 0.15369(17) 0.49120(13) 0.71735(10)
O1 O 0.5489(5) 0.7921(4) 0.8030(3)
O2 O 0.4738(4) 0.9336(4) 0.8540(3)
O3 O -0.0301(4) 0.9280(4) 0.8474(3)
O4 O -0.1501(4) 0.7784(4) 0.8164(3)
O5 O 0.2820(5) 0.4613(4) 0.6994(4)
O6 O 0.0532(6) 0.4787(4) 0.6451(3)
O7 O 0.1120(6) 0.4426(4) 0.7781(3)
O8 O 1.3603(7) 1.6266(5) 0.4781(5)
O9 O 1.5204(6) 1.4649(7) 0.3675(4)
N1 N 1.0945(6) 1.3433(5) 0.4479(3)
N2 N 1.1375(7) 1.2788(5) 0.3864(4)
N3 N 1.3068(6) 1.3919(5) 0.4618(4)
N4 N 0.7356(7) 0.9541(7) 0.6029(4)
N5 N 0.6081(7) 0.9741(7) 0.5987(4)
N6 N 0.6971(6) 0.9578(5) 0.7226(3)
N7 N 0.8011(5) 1.2483(4) 0.9771(3)
N8 N 0.9240(6) 1.2145(5) 0.9980(4)
N9 N 0.7765(5) 1.0861(4) 0.9192(3)
N10 N 0.7095(5) 0.7502(4) 1.0437(3)
N11 N 0.6272(6) 0.8213(5) 1.0683(4)
N12 N 0.7272(5) 0.8687(5) 0.9729(3)
C1 C 0.9154(7) 1.2323(6) 0.4751(4)
C2 C 0.8395(8) 1.1551(7) 0.4172(5)
H1 H 0.8135 1.1652 0.3645
C3 C 0.8006(8) 1.0618(7) 0.4360(5)
H2 H 0.7487 1.0099 0.3957
C4 C 0.8375(8) 1.0452(6) 0.5128(4)
C5 C 0.9160(8) 1.1218(6) 0.5711(4)
H3 H 0.9440 1.1108 0.6234
C6 C 0.9532(7) 1.2139(6) 0.5528(4)
H4 H 1.0051 1.2655 0.5933
C7 C 0.9561(7) 1.3330(6) 0.4548(5)
H5 H 0.9002 1.3388 0.4038
H6 H 0.9400 1.3890 0.4968
C8 C 0.8004(10) 0.9435(7) 0.5326(5)
H7 H 0.7397 0.9008 0.4860
H8 H 0.8815 0.9086 0.5430
C9 C 1.2656(8) 1.3149(6) 0.3985(5)
H9 H 1.3234 1.2879 0.3646
C10 C 1.1944(8) 1.4087(6) 0.4917(5)
H10 H 1.1884 1.4592 0.5368
C11 C 0.5900(8) 0.9766(8) 0.6734(5)
H11 H 0.5086 0.9904 0.6900
C12 C 0.7867(8) 0.9445(8) 0.6759(5)
H12 H 0.8751 0.9301 0.6927
C13 C 0.8951(7) 1.4299(5) 1.0047(4)
C14 C 1.0052(7) 1.4560(6) 1.0653(4)
H13 H 1.0091 1.4265 1.1108
C15 C 1.1106(7) 1.5238(6) 1.0623(5)
H14 H 1.1856 1.5390 1.1045
C16 C 0.7814(7) 1.3544(5) 1.0093(5)
H15 H 0.7719 1.3613 1.0656
H16 H 0.6979 1.3714 0.9791
C17 C 0.9024(7) 1.1176(6) 0.9617(5)
H17 H 0.9699 1.0728 0.9649
C18 C 0.7165(7) 1.1711(6) 0.9312(4)
H18 H 0.6263 1.1763 0.9100
C19 C 0.6029(7) 0.5771(5) 1.0362(4)
C20 C 0.5463(7) 0.5196(5) 1.0819(4)
H19 H 0.5778 0.5321 1.1378
C21 C 0.4425(7) 0.4429(6) 1.0464(4)
H20 H 0.4034 0.4048 1.0784
C22 C 0.7198(7) 0.6576(5) 1.0750(4)
H21 H 0.7234 0.6743 1.1332
H22 H 0.8035 0.6292 1.0656
C23 C 0.6423(7) 0.8918(6) 1.0246(4)
H23 H 0.5983 0.9518 1.0292
C24 C 0.7666(6) 0.7795(5) 0.9873(4)
H24 H 0.8270 0.7423 0.9608
C25 C 0.3180(6) 0.7824(5) 0.8084(4)
C26 C 0.2064(6) 0.8336(5) 0.8247(4)
H25 H 0.2167 0.9040 0.8475
C27 C 0.0810(6) 0.7792(5) 0.8069(4)
C28 C 0.0644(6) 0.6724(5) 0.7768(4)
H26 H -0.0191 0.6343 0.7694
C29 C 0.1772(6) 0.6258(5) 0.7585(4)
C30 C 0.3028(6) 0.6789(5) 0.7750(4)
H27 H 0.3774 0.6448 0.7636
C31 C 0.4559(6) 0.8398(5) 0.8230(4)
C32 C -0.0424(6) 0.8315(5) 0.8247(4)
H28 H 1.307(12) 1.608(9) 0.433(4)
H29 H 1.390(13) 1.690(4) 0.483(7)
H30 H 1.580(8) 1.498(10) 0.351(6)
H31 H 1.446(3) 1.455(11) 0.3368(12)
N7A N 1.1989(5) 1.7517(4) 1.0229(3)
N8A N 1.0760(6) 1.7855(5) 1.0020(4)
N9A N 1.2235(5) 1.9139(4) 1.0808(3)
C13A C 1.1049(7) 1.5701(5) 0.9953(4)
C14A C 0.9948(7) 1.5440(6) 0.9347(4)
H13A H 0.9909 1.5735 0.8892
C15A C 0.8894(7) 1.4762(6) 0.9377(5)
H14A H 0.8144 1.4610 0.8955
C16A C 1.2186(7) 1.6456(5) 0.9907(5)
H15A H 1.2281 1.6387 0.9344
H16A H 1.3021 1.6286 1.0209
C17A C 1.0976(7) 1.8824(6) 1.0383(5)
H17A H 1.0301 1.9272 1.0351
C18A C 1.2835(7) 1.8289(6) 1.0688(4)
H18A H 1.3737 1.8237 1.0900
N10A N 0.2905(5) 0.2498(4) 0.9563(3)
N11A N 0.3728(6) 0.1787(5) 0.9317(4)
N12A N 0.2728(5) 0.1313(5) 1.0271(3)
C19A C 0.3971(7) 0.4229(5) 0.9638(4)
C20A C 0.4537(7) 0.4804(5) 0.9181(4)
H19A H 0.4222 0.4679 0.8622
C21A C 0.5575(7) 0.5571(6) 0.9536(4)
H20A H 0.5966 0.5952 0.9216
C22A C 0.2802(7) 0.3424(5) 0.9250(4)
H21A H 0.2766 0.3257 0.8668
H22A H 0.1965 0.3708 0.9344
C23A C 0.3577(7) 0.1082(6) 0.9754(4)
H23A H 0.4017 0.0482 0.9708
C24A C 0.2334(6) 0.2205(5) 1.0127(4)
H24A H 0.1730 0.2577 1.0392
Cd2A Cd 0.27822(4) 0.08000(4) 1.14988(3)
S1A S 0.84631(17) 0.50880(13) 1.28265(10)
O1A O 0.4511(5) 0.2079(4) 1.1970(3)
O2A O 0.5262(4) 0.0664(4) 1.1460(3)
O3A O 1.0301(4) 0.0720(4) 1.1526(3)
O4A O 1.1501(4) 0.2216(4) 1.1836(3)
O5A O 0.7180(5) 0.5387(4) 1.3006(4)
O6A O 0.9468(6) 0.5213(4) 1.3549(3)
O7A O 0.8880(6) 0.5574(4) 1.2219(3)
N1A N -0.0945(6) -0.3433(5) 1.5521(3)
N2A N -0.1375(7) -0.2788(5) 1.6136(4)
N3A N -0.3068(6) -0.3919(5) 1.5382(4)
N4A N 0.2644(7) 0.0459(7) 1.3971(4)
N5A N 0.3919(7) 0.0259(7) 1.4013(4)
N6A N 0.3029(6) 0.0422(5) 1.2774(3)
C1A C 0.0846(7) -0.2323(6) 1.5249(4)
C2A C 0.1605(8) -0.1551(7) 1.5828(5)
H1A H 0.1865 -0.1652 1.6355
C3A C 0.1994(8) -0.0618(7) 1.5640(5)
H2A H 0.2513 -0.0099 1.6043
C4A C 0.1625(8) -0.0452(6) 1.4872(4)
C5A C 0.0840(8) -0.1218(6) 1.4289(4)
H3A H 0.0560 -0.1108 1.3766
C6A C 0.0468(7) -0.2139(6) 1.4472(4)
H4A H -0.0051 -0.2655 1.4067
C7A C 0.0439(7) -0.3330(6) 1.5452(5)
H5A H 0.0998 -0.3388 1.5962
H6A H 0.0600 -0.3890 1.5032
C8A C 0.1996(10) 0.0565(7) 1.4674(5)
H7A H 0.2603 0.0992 1.5140
H8A H 0.1185 0.0914 1.4570
C9A C -0.2656(8) -0.3149(6) 1.6015(5)
H9A H -0.3234 -0.2879 1.6354
C10A C -0.1944(8) -0.4087(6) 1.5083(5)
H10A H -0.1884 -0.4592 1.4632
C11A C 0.4100(8) 0.0234(8) 1.3266(5)
H11A H 0.4914 0.0096 1.3100
C12A C 0.2133(8) 0.0555(8) 1.3241(5)
H12A H 0.1249 0.0699 1.3073
C25A C 0.6820(6) 0.2176(5) 1.1916(4)
C26A C 0.7936(6) 0.1664(5) 1.1753(4)
H25A H 0.7833 0.0960 1.1525
C27A C 0.9190(6) 0.2208(5) 1.1931(4)
C28A C 0.9356(6) 0.3276(5) 1.2232(4)
H26A H 1.0191 0.3657 1.2306
C29A C 0.8228(6) 0.3742(5) 1.2415(4)
C30A C 0.6972(6) 0.3211(5) 1.2250(4)
H27A H 0.6226 0.3552 1.2364
C31A C 0.5441(6) 0.1602(5) 1.1770(4)
C32A C 1.0424(6) 0.1685(5) 1.1753(4)
O8A O 1.6397(7) 1.3734(5) 0.5219(5)
H28A H 1.693(12) 1.392(9) 0.567(4)
H29A H 1.610(13) 1.310(4) 0.517(7)
O9A O 1.4796(6) 1.5351(7) 0.6325(4)
H30A H 1.420(8) 1.502(10) 0.649(6)
H31A H 1.554(3) 1.545(11) 0.6632(12)
Cd1_2 Cd -0.5000 -0.5000 1.5000
Cd2_2 Cd -0.27822(4) 0.92000(4) 0.85012(3)
Cd2A_2 Cd 1.27822(4) 0.08000(4) 1.14988(3)
Cd2A_3 Cd 1.27822(4) 2.08000(4) 1.14988(3)
O3_2 O 0.9699(4) 0.9280(4) 0.8474(3)
O3A_2 O 0.0301(4) 0.0720(4) 1.1526(3)
O4_2 O 0.8499(4) 0.7784(4) 0.8164(3)
O4A_2 O 0.1501(4) 0.2216(4) 1.1836(3)
N3A_2 N 1.6932(6) 1.6081(5) 0.5382(4)
N9A_2 N 0.2235(5) -0.0861(4) 1.0808(3)
O10 O 0.3298(8) 0.4070(6) 0.2299(4)
H32 H 0.324(8) 0.341(3) 0.207(8)
H33 H 0.245(4) 0.422(8) 0.221(5)
O11 O 0.9254(9) 0.9233(8) 0.2242(6)
O12 O 0.7946(9) 1.4340(8) 0.6721(6)
O13 O 0.6673(9) 0.9170(8) 0.2500(6)
O14 O 1.4711(9) 1.8032(8) 0.4515(6)
O15 O 1.0337(9) 0.7442(8) 0.2080(6)
O16 O 0.5899(19) 0.7331(16) 0.3078(16)
O17? O 0.6773(19) 0.7550(16) 0.3529(16)
O18? O 0.713(3) 1.264(3) 0.716(3)
loop_
_geom_bond_atom_site_label_1
_geom_bond_atom_site_label_2
_geom_bond_site_symmetry_1
_geom_bond_site_symmetry_2
Cd1 O8 1_555 1_555
Cd2 O1 1_555 1_555
S1 O5 1_555 1_555
O1 C31 1_555 1_555
O2 Cd2 1_555 1_555
O3 C32 1_555 1_555
O4 C32 1_555 1_555
O6 S1 1_555 1_555
O7 S1 1_555 1_555
O8 H28 1_555 1_555
O9 Cd1 1_555 1_555
N1 N2 1_555 1_555
N2 C9 1_555 1_555
N3 Cd1 1_555 1_555
N4 N5 1_555 1_555
N5 C11 1_555 1_555
N6 Cd2 1_555 1_555
N7 N8 1_555 1_555
N8 C17 1_555 1_555
N9 Cd2 1_555 1_555
N10 N11 1_555 1_555
N11 C23 1_555 1_555
N12 Cd2 1_555 1_555
C1 C2 1_555 1_555
C2 H1 1_555 1_555
C3 C2 1_555 1_555
H2 C3 1_555 1_555
C4 C3 1_555 1_555
C5 C4 1_555 1_555
H3 C5 1_555 1_555
C6 C1 1_555 1_555
H4 C6 1_555 1_555
C7 N1 1_555 1_555
H5 C7 1_555 1_555
H6 C7 1_555 1_555
C8 N4 1_555 1_555
H7 C8 1_555 1_555
H8 C8 1_555 1_555
C9 N3 1_555 1_555
H9 C9 1_555 1_555
C10 N1 1_555 1_555
H10 C10 1_555 1_555
C11 N6 1_555 1_555
H11 C11 1_555 1_555
C12 N4 1_555 1_555
H12 C12 1_555 1_555
C13 C14 1_555 1_555
C14 H13 1_555 1_555
C15 C14 1_555 1_555
H14 C15 1_555 1_555
C16 N7 1_555 1_555
H15 C16 1_555 1_555
H16 C16 1_555 1_555
C17 N9 1_555 1_555
H17 C17 1_555 1_555
C18 N7 1_555 1_555
H18 C18 1_555 1_555
C19 C20 1_555 1_555
C20 H19 1_555 1_555
C21 C20 1_555 1_555
H20 C21 1_555 1_555
C22 N10 1_555 1_555
H21 C22 1_555 1_555
H22 C22 1_555 1_555
C23 N12 1_555 1_555
H23 C23 1_555 1_555
C24 N10 1_555 1_555
H24 C24 1_555 1_555
C25 C26 1_555 1_555
C26 H25 1_555 1_555
C27 C26 1_555 1_555
C28 C27 1_555 1_555
H26 C28 1_555 1_555
C29 S1 1_555 1_555
C30 C25 1_555 1_555
H27 C30 1_555 1_555
C31 O2 1_555 1_555
C32 C27 1_555 1_555
H29 O8 1_555 1_555
H30 O9 1_555 1_555
H31 O9 1_555 1_555
O10 H32 1_555 1_555
H33 O10 1_555 1_555
N7A N8A 1_555 1_555
N8A C17A 1_555 1_555
N9A C17A 1_555 1_555
C13A C15 1_555 1_555
C14A C13A 1_555 1_555
H13A C14A 1_555 1_555
C15A C13 1_555 1_555
H14A C15A 1_555 1_555
C16A N7A 1_555 1_555
H15A C16A 1_555 1_555
H16A C16A 1_555 1_555
C17A H17A 1_555 1_555
C18A N7A 1_555 1_555
H18A C18A 1_555 1_555
N10A N11A 1_555 1_555
N11A C23A 1_555 1_555
N12A C23A 1_555 1_555
C19A C21 1_555 1_555
C20A C19A 1_555 1_555
H19A C20A 1_555 1_555
C21A C19 1_555 1_555
H20A C21A 1_555 1_555
C22A N10A 1_555 1_555
H21A C22A 1_555 1_555
H22A C22A 1_555 1_555
C23A H23A 1_555 1_555
C24A N10A 1_555 1_555
H24A C24A 1_555 1_555
Cd2A N12A 1_555 1_555
S1A O5A 1_555 1_555
O1A Cd2A 1_555 1_555
O2A Cd2A 1_555 1_555
O3A C32A 1_555 1_555
O4A C32A 1_555 1_555
O6A S1A 1_555 1_555
O7A S1A 1_555 1_555
N1A N2A 1_555 1_555
N2A C9A 1_555 1_555
N3A C9A 1_555 1_555
N4A N5A 1_555 1_555
N5A C11A 1_555 1_555
N6A Cd2A 1_555 1_555
C1A C2A 1_555 1_555
C2A H1A 1_555 1_555
C3A C2A 1_555 1_555
H2A C3A 1_555 1_555
C4A C3A 1_555 1_555
C5A C4A 1_555 1_555
H3A C5A 1_555 1_555
C6A C1A 1_555 1_555
H4A C6A 1_555 1_555
C7A N1A 1_555 1_555
H5A C7A 1_555 1_555
H6A C7A 1_555 1_555
C8A N4A 1_555 1_555
H7A C8A 1_555 1_555
H8A C8A 1_555 1_555
C9A H9A 1_555 1_555
C10A N1A 1_555 1_555
H10A C10A 1_555 1_555
C11A N6A 1_555 1_555
H11A C11A 1_555 1_555
C12A N4A 1_555 1_555
H12A C12A 1_555 1_555
C25A C26A 1_555 1_555
C26A H25A 1_555 1_555
C27A C26A 1_555 1_555
C28A C27A 1_555 1_555
H26A C28A 1_555 1_555
C29A S1A 1_555 1_555
C30A C25A 1_555 1_555
H27A C30A 1_555 1_555
C31A O1A 1_555 1_555
C32A C27A 1_555 1_555
O8A Cd1 1_555 1_555
H28A O8A 1_555 1_555
H29A O8A 1_555 1_555
O9A Cd1 1_555 1_555
H30A O9A 1_555 1_555
H31A O9A 1_555 1_555
Cd1_2 N3A 1_555 1_555
Cd2_2 O3 1_555 1_555
Cd2A_2 O3A 1_555 1_555
Cd2A_3 N9A 1_555 1_555
O3_2 Cd2 1_555 1_555
O3A_2 Cd2A 1_555 1_555
O4_2 Cd2 1_555 1_555
O4A_2 Cd2A 1_555 1_555
N3A_2 Cd1 1_555 1_555
N9A_2 Cd2A 1_555 1_555
O4 Cd2_2 1_555 1_555
N3 C10 1_555 1_555
N6 C12 1_555 1_555
N9 C18 1_555 1_555
N12 C24 1_555 1_555
C1 C7 1_555 1_555
C4 C8 1_555 1_555
C5 C6 1_555 1_555
C13 C16 1_555 1_555
C19 C22 1_555 1_555
C25 C31 1_555 1_555
C28 C29 1_555 1_555
C29 C30 1_555 1_555
N9A C18A 1_555 1_555
C13A C16A 1_555 1_555
C14A C15A 1_555 1_555
N12A C24A 1_555 1_555
C19A C22A 1_555 1_555
C20A C21A 1_555 1_555
O2A C31A 1_555 1_555
O4A Cd2A_2 1_555 1_555
N3A C10A 1_555 1_555
N6A C12A 1_555 1_555
C1A C7A 1_555 1_555
C4A C8A 1_555 1_555
C5A C6A 1_555 1_555
C25A C31A 1_555 1_555
C28A C29A 1_555 1_555
C29A C30A 1_555 1_555

#END
