
#######################################################################
#
#                 Cambridge Crystallographic Data Centre
#                                CCDC 
#
#######################################################################
#
# If this CIF has been generated from an entry in the Cambridge 
# Structural Database, then it will include bibliographic, chemical, 
# crystal, experimental, refinement or atomic coordinate data resulting 
# from the CCDC's data processing and validation procedures.
#
#######################################################################

data_FOJCAJ
_symmetry_cell_setting           triclinic
_symmetry_space_group_name_H-M   'P -1'
_symmetry_Int_Tables_number      2
_space_group_name_Hall           '-P 1'
loop_
_symmetry_equiv_pos_site_id
_symmetry_equiv_pos_as_xyz
1 x,y,z
2 -x,-y,-z
_cell_length_a                   8.7180(16)
_cell_length_b                   11.637(2)
_cell_length_c                   17.863(3)
_cell_angle_alpha                92.446(3)
_cell_angle_beta                 93.144(4)
_cell_angle_gamma                108.415(3)
_cell_volume                     1713.39
loop_
_atom_site_label
_atom_site_type_symbol
_atom_site_fract_x
_atom_site_fract_y
_atom_site_fract_z
C1 C 1.2233(8) 0.4826(7) 0.2998(4)
C2 C 1.3569(8) 0.4037(7) 0.4104(4)
C3 C 1.1994(8) 0.4123(7) 0.3709(4)
C4 C 0.6273(8) 0.7216(6) 0.3306(4)
C5 C 0.6243(8) 0.7156(6) 0.2532(4)
C6 C 0.5271(9) 0.7637(7) 0.2100(4)
C7 C 0.4282(9) 0.8205(7) 0.2447(5)
C8 C 0.4311(9) 0.8262(7) 0.3219(5)
C9 C 0.5280(8) 0.7783(6) 0.3651(4)
C10 C 1.4693(8) 0.2743(7) 0.0832(4)
C11 C 1.5059(10) 0.1730(8) 0.1037(4)
C12 C 1.4162(11) 0.0571(9) 0.0734(5)
C13 C 1.2925(10) 0.0440(9) 0.0202(5)
C14 C 1.2621(10) 0.1460(8) -0.0034(5)
C15 C 1.3473(9) 0.2605(8) 0.0272(4)
C16 C 1.5883(7) 0.2671(6) 0.4233(3)
C17 C 1.7135(9) 0.3586(7) 0.4623(4)
C18 C 1.8305(8) 0.3327(7) 0.5045(4)
C19 C 1.8302(9) 0.2150(7) 0.5093(4)
C20 C 1.7044(8) 0.1202(7) 0.4716(4)
C21 C 1.5866(9) 0.1486(7) 0.4280(4)
C22 C 1.2784(8) 0.1603(6) 0.3424(4)
C23 C 1.1732(8) 0.1126(7) 0.3979(4)
C24 C 1.0557(9) 0.0054(7) 0.3855(5)
C25 C 1.0378(9) -0.0637(7) 0.3178(5)
C26 C 1.1381(8) -0.0175(7) 0.2621(5)
C27 C 1.2585(8) 0.0931(7) 0.2742(4)
C28 C 1.0908(7) 0.5456(6) 0.1617(4)
C29 C 1.0016(8) 0.6152(7) 0.1298(4)
C30 C 1.0436(10) 0.6690(8) 0.0640(5)
C31 C 1.1709(9) 0.6554(8) 0.0273(5)
C32 C 1.2615(9) 0.5884(7) 0.0580(4)
C33 C 1.2228(8) 0.5359(7) 0.1248(4)
C34 C 0.9468(8) 0.3097(6) 0.2213(4)
C35 C 0.9952(9) 0.2567(7) 0.1598(4)
C36 C 0.9365(9) 0.1327(7) 0.1448(5)
C37 C 0.8290(9) 0.0597(8) 0.1907(4)
C38 C 0.7822(8) 0.1118(7) 0.2527(4)
C39 C 0.8402(8) 0.2349(7) 0.2681(4)
P1 P 1.03180(19) 0.47161(16) 0.24735(9)
P2 P 1.44277(19) 0.30339(16) 0.35776(9)
S1 S 0.74962(19) 0.66113(16) 0.38926(9)
S2 S 1.5827(2) 0.42196(18) 0.12505(9)
Au1 Au 0.87395(3) 0.55566(2) 0.313216(13)
Au2 Au 1.53893(3) 0.37458(2) 0.248130(13)
H1 H 1.290(9) 0.444(7) 0.265(4)
H2 H 1.275(9) 0.559(8) 0.307(4)
H3 H 1.444(8) 0.486(6) 0.413(4)
H4 H 1.331(6) 0.372(5) 0.456(3)
H5 H 1.136(7) 0.332(6) 0.357(3)
H6 H 1.149(7) 0.453(6) 0.408(3)
H7 H 0.681(8) 0.678(6) 0.233(4)
H8 H 0.525(8) 0.746(6) 0.158(4)
H9 H 0.372(8) 0.850(6) 0.218(4)
H10 H 0.383(7) 0.859(6) 0.340(3)
H11 H 0.534(8) 0.787(6) 0.421(4)
H12 H 1.575(9) 0.183(7) 0.132(4)
H13 H 1.440(12) -0.011(9) 0.092(5)
H14 H 1.242(9) -0.041(7) -0.005(4)
H15 H 1.183(8) 0.140(6) -0.034(4)
H16 H 1.334(9) 0.325(7) 0.007(4)
H17 H 1.709(9) 0.430(7) 0.458(4)
H18 H 1.909(8) 0.394(6) 0.530(3)
H19 H 1.915(9) 0.201(7) 0.536(4)
H20 H 1.705(7) 0.048(6) 0.471(3)
H21 H 1.518(8) 0.101(6) 0.399(4)
H22 H 1.177(7) 0.162(6) 0.441(4)
H23 H 0.992(7) -0.026(5) 0.418(3)
H24 H 0.959(10) -0.140(8) 0.301(5)
H25 H 1.115(7) -0.068(6) 0.216(4)
H26 H 1.319(9) 0.128(7) 0.238(4)
H27 H 0.907(7) 0.612(5) 0.159(3)
H28 H 1.000(8) 0.701(6) 0.049(4)
H29 H 1.197(7) 0.706(6) -0.009(4)
H30 H 1.356(8) 0.574(6) 0.034(4)
H31 H 1.283(10) 0.485(7) 0.143(4)
H32 H 1.066(7) 0.303(5) 0.128(3)
H33 H 0.956(7) 0.105(6) 0.106(4)
H34 H 0.806(7) -0.015(6) 0.181(3)
H35 H 0.700(9) 0.062(7) 0.281(4)
H36 H 0.811(9) 0.281(7) 0.306(4)
Au1_2 Au 1.87395(3) 0.55566(2) 0.313216(13)
Au2_2 Au 0.53893(3) 0.37458(2) 0.248130(13)
loop_
_geom_bond_atom_site_label_1
_geom_bond_atom_site_label_2
_geom_bond_site_symmetry_1
_geom_bond_site_symmetry_2
C1 C3 1_555 1_555
C2 C3 1_555 1_555
C3 H5 1_555 1_555
C4 C5 1_555 1_555
C5 C6 1_555 1_555
C6 C7 1_555 1_555
C7 C8 1_555 1_555
C8 C9 1_555 1_555
C9 C4 1_555 1_555
C10 C11 1_555 1_555
C11 C12 1_555 1_555
C12 C13 1_555 1_555
C13 C14 1_555 1_555
C14 C15 1_555 1_555
C15 C10 1_555 1_555
C16 C17 1_555 1_555
C17 C18 1_555 1_555
C18 C19 1_555 1_555
C19 C20 1_555 1_555
C20 C21 1_555 1_555
C21 C16 1_555 1_555
C22 C23 1_555 1_555
C23 C24 1_555 1_555
C24 C25 1_555 1_555
C25 C26 1_555 1_555
C26 C27 1_555 1_555
C27 C22 1_555 1_555
C28 C29 1_555 1_555
C29 C30 1_555 1_555
C30 C31 1_555 1_555
C31 C32 1_555 1_555
C32 C33 1_555 1_555
C33 C28 1_555 1_555
C34 C35 1_555 1_555
C35 C36 1_555 1_555
C36 C37 1_555 1_555
C37 C38 1_555 1_555
C38 C39 1_555 1_555
C39 C34 1_555 1_555
P1 C1 1_555 1_555
P2 C2 1_555 1_555
S1 C4 1_555 1_555
S2 C10 1_555 1_555
Au1 P1 1_555 1_555
Au2 P2 1_555 1_555
H1 C1 1_555 1_555
H2 C1 1_555 1_555
H3 C2 1_555 1_555
H4 C2 1_555 1_555
H6 C3 1_555 1_555
H7 C5 1_555 1_555
H8 C6 1_555 1_555
H9 C7 1_555 1_555
H10 C8 1_555 1_555
H11 C9 1_555 1_555
H12 C11 1_555 1_555
H13 C12 1_555 1_555
H14 C13 1_555 1_555
H15 C14 1_555 1_555
H16 C15 1_555 1_555
H17 C17 1_555 1_555
H18 C18 1_555 1_555
H19 C19 1_555 1_555
H20 C20 1_555 1_555
H21 C21 1_555 1_555
H22 C23 1_555 1_555
H23 C24 1_555 1_555
H24 C25 1_555 1_555
H25 C26 1_555 1_555
H26 C27 1_555 1_555
H27 C29 1_555 1_555
H28 C30 1_555 1_555
H29 C31 1_555 1_555
H30 C32 1_555 1_555
H31 C33 1_555 1_555
H32 C35 1_555 1_555
H33 C36 1_555 1_555
H34 C37 1_555 1_555
H35 C38 1_555 1_555
H36 C39 1_555 1_555
Au1_2 Au2 1_555 1_555
Au2_2 Au1 1_555 1_555
C16 P2 1_555 1_555
C22 P2 1_555 1_555
C28 P1 1_555 1_555
C34 P1 1_555 1_555
S1 Au1 1_555 1_555
S2 Au2 1_555 1_555

#END
