
#######################################################################
#
#                 Cambridge Crystallographic Data Centre
#                                CCDC 
#
#######################################################################
#
# If this CIF has been generated from an entry in the Cambridge 
# Structural Database, then it will include bibliographic, chemical, 
# crystal, experimental, refinement or atomic coordinate data resulting 
# from the CCDC's data processing and validation procedures.
#
#######################################################################

data_FOJDEP
_symmetry_cell_setting           orthorhombic
_symmetry_space_group_name_H-M   'P c c n'
_symmetry_Int_Tables_number      56
_space_group_name_Hall           '-P 2ab 2ac'
loop_
_symmetry_equiv_pos_site_id
_symmetry_equiv_pos_as_xyz
1 x,y,z
2 1/2-x,1/2-y,z
3 -x,1/2+y,1/2-z
4 1/2+x,-y,1/2-z
5 -x,-y,-z
6 1/2+x,1/2+y,-z
7 x,1/2-y,1/2+z
8 1/2-x,y,1/2+z
_cell_length_a                   12.6869(7)
_cell_length_b                   22.7919(14)
_cell_length_c                   28.5112(19)
_cell_angle_alpha                90
_cell_angle_beta                 90
_cell_angle_gamma                90
_cell_volume                     8244.26
loop_
_atom_site_label
_atom_site_type_symbol
_atom_site_fract_x
_atom_site_fract_y
_atom_site_fract_z
O25 O 0.2500 0.7500 0.1983(12)
H25 H 0.2151 0.7731 0.2158
H25A H 0.2849 0.7269 0.2158
W1 W 0.7500 0.7500 0.40216(4)
W2 W 0.68641(8) 0.62124(4) 0.33961(4)
W3 W 0.94685(8) 0.67377(5) 0.34039(4)
W4 W 0.94598(9) 0.67376(4) 0.21698(4)
W5 W 0.7500 0.7500 0.15362(5)
W6 W 0.68588(7) 0.62094(4) 0.21526(3)
W7 W 0.48982(8) 0.69733(5) 0.27765(4)
Si1 Si 0.7500 0.7500 0.2766(3)
Cu1 Cu 1.0930(2) 0.54761(13) 0.15938(11)
C1 C 0.802(4) 0.041(3) -0.113(2)
H1 H 0.7877 0.0038 -0.1018
N1 N 0.889(4) 0.068(2) -0.1057(17)
C2 C 0.789(2) 0.1221(14) -0.1482(9)
H2 H 0.7687 0.1500 -0.1702
C3 C 0.957(2) 0.1684(12) -0.1234(10)
H3 H 0.9604 0.1888 -0.1533
H4 H 1.0239 0.1484 -0.1189
C4 C 0.943(2) 0.2133(12) -0.0846(11)
C5 C 0.987(5) 0.210(3) -0.045(2)
H5 H 1.0422 0.1840 -0.0424
C6 C 0.963(5) 0.241(3) -0.004(2)
H6 H 0.9961 0.2330 0.0248
C7 C 0.889(2) 0.2831(13) -0.0081(9)
C8 C 0.864(3) 0.2971(16) -0.0524(12)
H7 H 0.8295 0.3323 -0.0581
C9 C 0.889(2) 0.2612(13) -0.0896(10)
H8 H 0.8649 0.2714 -0.1194
C10 C 0.8500(17) 0.3194(11) 0.0316(8)
C11 C 0.843(4) 0.286(3) 0.0777(19)
H9 H 0.8660 0.2476 0.0801
C12 C 0.799(5) 0.316(3) 0.117(2)
H10 H 0.7838 0.2963 0.1448
C13 C 0.783(5) 0.406(3) 0.071(2)
H11 H 0.7589 0.4440 0.0679
C14 C 0.823(4) 0.377(3) 0.0338(19)
H12 H 0.8321 0.3986 0.0066
C15 C 0.780(2) 0.3809(14) 0.1104(11)
C16 C 0.742(2) 0.4140(15) 0.1528(12)
H13 H 0.6830 0.4390 0.1440
H14 H 0.7168 0.3865 0.1763
C17 C 0.906(2) 0.4728(14) 0.1498(13)
H15 H 0.9171 0.4692 0.1176
C18 C 0.920(2) 0.4966(12) 0.2213(10)
H16 H 0.9416 0.5165 0.2481
C19 C 1.029(3) 0.5354(15) 0.0571(11)
H17 H 1.0758 0.5049 0.0514
C20 C 0.945(2) 0.6054(12) 0.0908(10)
H18 H 0.9222 0.6330 0.1126
C21 C 0.817(3) 0.6290(15) 0.0267(12)
H19 H 0.7968 0.6609 0.0474
H20 H 0.8385 0.6461 -0.0029
C22 C 0.726(2) 0.5925(11) 0.0187(11)
C23 C 0.680(3) 0.5863(15) -0.0251(11)
H21 H 0.7069 0.6073 -0.0502
C24 C 0.595(3) 0.5503(16) -0.0325(13)
H22 H 0.5705 0.5460 -0.0630
C25 C 0.543(2) 0.5199(13) 0.0028(11)
C26 C 0.589(3) 0.5258(15) 0.0477(12)
H23 H 0.5588 0.5055 0.0727
C27 C 0.675(2) 0.5602(13) 0.0559(10)
H24 H 0.7020 0.5629 0.0862
N2 N 0.7306(17) 0.0751(11) -0.1379(10)
N3 N 0.8739(18) 0.1251(12) -0.1255(9)
N4 N 0.9679(16) 0.5019(10) 0.1794(8)
N5 N 0.8414(18) 0.4614(9) 0.2205(8)
N6 N 0.8277(17) 0.4504(11) 0.1728(10)
N7 N 1.0222(19) 0.5651(10) 0.0975(8)
N8 N 0.906(2) 0.5984(11) 0.0472(8)
N9 N 0.958(2) 0.5554(12) 0.0260(9)
O1 O 0.816(2) 0.8117(13) 0.2772(10)
O2 O 0.772(2) 0.7171(12) 0.3243(9)
O3 O 0.622(2) 0.7718(13) 0.2769(10)
O4 O 0.7707(19) 0.7137(11) 0.2325(8)
O5 O 0.691(2) 0.6741(15) 0.4001(12)
O6 O 0.608(3) 0.7874(14) 0.3985(12)
O7 O 0.564(3) 0.6600(15) 0.3249(11)
O8 O 0.706(2) 0.6040(15) 0.2823(11)
O9 O 0.839(3) 0.6113(15) 0.3554(12)
O10 O 1.043(3) 0.7358(14) 0.3265(11)
O11 O 0.936(3) 0.6512(14) 0.2769(11)
O12 O 0.988(3) 0.7496(15) 0.2312(11)
O13 O 0.883(3) 0.7223(15) 0.1783(12)
O14 O 0.691(3) 0.6848(15) 0.1759(12)
O15 O 0.674(3) 0.5630(16) 0.1817(13)
O16 O 0.558(2) 0.6634(15) 0.2347(11)
O17 O 0.6550(13) 0.5582(7) 0.3678(6)
O18 O 1.0383(18) 0.6357(10) 0.3687(8)
O19 O 0.8398(15) 0.6201(10) 0.2130(9)
O20 O 1.0409(14) 0.6375(8) 0.1878(6)
O21 O 0.7500 0.7500 0.0946(9)
O22 O 0.3666(15) 0.6740(10) 0.2749(8)
O23 O 1.1529(16) 0.5328(10) 0.2242(8)
O24 O 0.745(4) 0.7608(17) 0.4614(10)
O1A O 0.684(2) 0.6883(13) 0.2772(10)
O2A O 0.728(2) 0.7829(12) 0.3243(9)
O3A O 0.878(2) 0.7282(13) 0.2769(10)
O4A O 0.7293(19) 0.7863(11) 0.2325(8)
C19D C -0.029(3) 0.4646(15) -0.0571(11)
H17D H -0.0758 0.4951 -0.0514
C20D C 0.055(2) 0.3946(12) -0.0908(10)
H18D H 0.0778 0.3670 -0.1126
C21D C 0.183(3) 0.3710(15) -0.0267(12)
H19D H 0.2032 0.3391 -0.0474
H20D H 0.1615 0.3539 0.0029
C22D C 0.274(2) 0.4075(11) -0.0187(11)
C23D C 0.320(3) 0.4137(15) 0.0251(11)
H21D H 0.2931 0.3927 0.0502
C24D C 0.405(3) 0.4497(16) 0.0325(13)
H22D H 0.4295 0.4540 0.0630
C25D C 0.457(2) 0.4801(13) -0.0028(11)
C26D C 0.411(3) 0.4742(15) -0.0477(12)
H23D H 0.4412 0.4945 -0.0727
C27D C 0.325(2) 0.4398(13) -0.0559(10)
H24D H 0.2980 0.4371 -0.0862
N7D N -0.0222(19) 0.4349(10) -0.0975(8)
N8D N 0.094(2) 0.4016(11) -0.0472(8)
N9D N 0.042(2) 0.4446(12) -0.0260(9)
W2A W 0.81359(8) 0.87876(4) 0.33961(4)
W3A W 0.55315(8) 0.82623(5) 0.34039(4)
W4A W 0.55402(9) 0.82624(4) 0.21698(4)
W6A W 0.81412(7) 0.87906(4) 0.21526(3)
W7A W 1.01018(8) 0.80267(5) 0.27765(4)
Cu1A Cu 0.4070(2) 0.95239(13) 0.15938(11)
C1A C 0.698(4) 1.459(3) -0.113(2)
H1A H 0.7123 1.4962 -0.1018
N1A N 0.611(4) 1.432(2) -0.1057(17)
C2A C 0.711(2) 1.3779(14) -0.1482(9)
H2A H 0.7313 1.3500 -0.1702
C3A C 0.543(2) 1.3316(12) -0.1234(10)
H3A H 0.5396 1.3112 -0.1533
H4A H 0.4761 1.3516 -0.1189
C4A C 0.557(2) 1.2867(12) -0.0846(11)
C5A C 0.513(5) 1.290(3) -0.045(2)
H5A H 0.4578 1.3160 -0.0424
C6A C 0.537(5) 1.259(3) -0.004(2)
H6A H 0.5039 1.2670 0.0248
C7A C 0.611(2) 1.2169(13) -0.0081(9)
C8A C 0.636(3) 1.2029(16) -0.0524(12)
H7A H 0.6705 1.1677 -0.0581
C9A C 0.611(2) 1.2388(13) -0.0896(10)
H8A H 0.6351 1.2286 -0.1194
C10A C 0.6500(17) 1.1806(11) 0.0316(8)
C11A C 0.657(4) 1.214(3) 0.0777(19)
H9A H 0.6340 1.2524 0.0801
C12A C 0.701(5) 1.184(3) 0.117(2)
H10A H 0.7162 1.2037 0.1448
C13A C 0.717(5) 1.094(3) 0.071(2)
H11A H 0.7411 1.0560 0.0679
C14A C 0.677(4) 1.123(3) 0.0338(19)
H12A H 0.6679 1.1014 0.0066
C15A C 0.720(2) 1.1191(14) 0.1104(11)
C16A C 0.758(2) 1.0860(15) 0.1528(12)
H13A H 0.8170 1.0610 0.1440
H14A H 0.7832 1.1135 0.1763
C17A C 0.594(2) 1.0272(14) 0.1498(13)
H15A H 0.5829 1.0308 0.1176
C18A C 0.580(2) 1.0034(12) 0.2213(10)
H16A H 0.5584 0.9835 0.2481
N2A N 0.7694(17) 1.4249(11) -0.1379(10)
N3A N 0.6261(18) 1.3749(12) -0.1255(9)
N4A N 0.5321(16) 0.9981(10) 0.1794(8)
N5A N 0.6586(18) 1.0386(9) 0.2205(8)
N6A N 0.6723(17) 1.0496(11) 0.1728(10)
O5A O 0.809(2) 0.8259(15) 0.4001(12)
O6A O 0.892(3) 0.7126(14) 0.3985(12)
O7A O 0.936(3) 0.8400(15) 0.3249(11)
O8A O 0.794(2) 0.8960(15) 0.2823(11)
O9A O 0.661(3) 0.8887(15) 0.3554(12)
O10A O 0.457(3) 0.7642(14) 0.3265(11)
O11A O 0.564(3) 0.8488(14) 0.2769(11)
O12A O 0.512(3) 0.7504(15) 0.2312(11)
O13A O 0.617(3) 0.7777(15) 0.1783(12)
O14A O 0.809(3) 0.8152(15) 0.1759(12)
O15A O 0.826(3) 0.9370(16) 0.1817(13)
O16A O 0.942(2) 0.8366(15) 0.2347(11)
O17A O 0.8450(13) 0.9418(7) 0.3678(6)
O18A O 0.4617(18) 0.8643(10) 0.3687(8)
O19A O 0.6602(15) 0.8799(10) 0.2130(9)
O20A O 0.4591(14) 0.8625(8) 0.1878(6)
O22A O 1.1334(15) 0.8260(10) 0.2749(8)
O23A O 0.3471(16) 0.9672(10) 0.2242(8)
O24A O 0.755(4) 0.7392(17) 0.4614(10)
Cu1B Cu 0.9070(2) 1.04761(13) 0.34062(11)
Cu1C Cu 0.5930(2) 0.45239(13) 0.34062(11)
Cu1D Cu -0.0930(2) 0.45239(13) -0.15938(11)
Cu1D_2 Cu 0.9070(2) 1.45239(13) -0.15938(11)
Cu1E Cu 0.5930(2) 0.04761(13) -0.15938(11)
N2D N 0.2694(17) 0.9249(11) 0.1379(10)
N2E N 1.2306(17) 0.5751(11) 0.1379(10)
N7A N 0.4778(19) 0.9349(10) 0.0975(8)
O17B O 0.3450(13) 1.0582(7) 0.1322(6)
O17C O 1.1550(13) 0.4418(7) 0.1322(6)
C28? C 0.777(4) 0.059(3) -0.096(2)
H26? H 0.7498 0.0307 -0.0760
N10? N 0.867(4) 0.089(2) -0.0870(17)
C29? C 0.951(5) 0.182(3) -0.040(2)
H27? H 0.9643 0.1425 -0.0372
C30? C 0.934(5) 0.225(3) 0.000(2)
H28? H 0.9520 0.2137 0.0305
C31? C 0.908(5) 0.310(3) 0.0737(19)
H29? H 0.9726 0.2904 0.0754
C32? C 0.851(5) 0.336(3) 0.115(2)
H30? H 0.8649 0.3212 0.1448
C33? C 0.734(5) 0.387(3) 0.0652(19)
H31? H 0.6813 0.4153 0.0621
C34? C 0.763(5) 0.356(2) 0.024(2)
H32? H 0.7270 0.3583 -0.0042
O26? O 0.684(3) 0.6789(15) 0.3783(12)
O27? O 0.625(2) 0.7804(14) 0.3772(12)
O28? O 0.534(3) 0.6351(15) 0.3208(11)
O29? O 0.690(3) 0.5771(15) 0.2743(11)
O30? O 0.837(3) 0.6225(15) 0.3340(12)
O31? O 0.989(3) 0.7482(15) 0.3193(11)
O32? O 1.001(3) 0.6422(14) 0.2802(11)
O33? O 1.050(3) 0.7370(14) 0.2332(11)
O34? O 0.881(3) 0.7075(15) 0.1566(12)
O35? O 0.686(3) 0.6682(15) 0.1590(11)
O36? O 0.632(3) 0.5552(17) 0.1960(14)
O37? O 0.544(3) 0.6342(15) 0.2273(11)
loop_
_geom_bond_atom_site_label_1
_geom_bond_atom_site_label_2
_geom_bond_site_symmetry_1
_geom_bond_site_symmetry_2
W1 O2 1_555 1_555
W2 O2 1_555 1_555
W3 O2 1_555 1_555
W4 O4 1_555 1_555
W5 O4 1_555 1_555
W6 O4 1_555 1_555
W7 O3 1_555 1_555
Si1 O1 1_555 1_555
Cu1 N4 1_555 1_555
C1 H1 1_555 1_555
N1 C1 1_555 1_555
C2 H2 1_555 1_555
C3 H3 1_555 1_555
H4 C3 1_555 1_555
C4 C3 1_555 1_555
C5 C4 1_555 1_555
H5 C5 1_555 1_555
C6 C5 1_555 1_555
H6 C6 1_555 1_555
C7 C6 1_555 1_555
C8 C7 1_555 1_555
H7 C8 1_555 1_555
C9 C4 1_555 1_555
H8 C9 1_555 1_555
C10 C7 1_555 1_555
C11 C10 1_555 1_555
H9 C11 1_555 1_555
C12 C11 1_555 1_555
H10 C12 1_555 1_555
C13 H11 1_555 1_555
C14 C10 1_555 1_555
H12 C14 1_555 1_555
C15 C12 1_555 1_555
C16 C15 1_555 1_555
H13 C16 1_555 1_555
H14 C16 1_555 1_555
C17 H15 1_555 1_555
C18 H16 1_555 1_555
C19 H17 1_555 1_555
C20 H18 1_555 1_555
C21 H19 1_555 1_555
H20 C21 1_555 1_555
C22 C21 1_555 1_555
C23 C22 1_555 1_555
H21 C23 1_555 1_555
C24 C23 1_555 1_555
H22 C24 1_555 1_555
C25 C24 1_555 1_555
C26 C25 1_555 1_555
H23 C26 1_555 1_555
C27 C22 1_555 1_555
H24 C27 1_555 1_555
N2 C1 1_555 1_555
N3 N1 1_555 1_555
N4 C17 1_555 1_555
N5 C18 1_555 1_555
N6 C16 1_555 1_555
N7 Cu1 1_555 1_555
N8 C20 1_555 1_555
N9 C19 1_555 1_555
O1 O4A 1_555 1_555
O2 Si1 1_555 1_555
O3 Si1 1_555 1_555
O4 Si1 1_555 1_555
O5 W1 1_555 1_555
O6 W1 1_555 1_555
O7 W2 1_555 1_555
O8 W2 1_555 1_555
O9 W2 1_555 1_555
O10 W3 1_555 1_555
O11 W3 1_555 1_555
O12 W4 1_555 1_555
O13 W4 1_555 1_555
O14 W5 1_555 1_555
O15 W6 1_555 1_555
O16 W6 1_555 1_555
O17 W2 1_555 1_555
O18 W3 1_555 1_555
O19 W4 1_555 1_555
O20 W4 1_555 1_555
O21 W5 1_555 1_555
O22 W7 1_555 1_555
O23 Cu1 1_555 1_555
O24 W1 1_555 1_555
O25 H25 1_555 1_555
O1A W2 1_555 1_555
O2A W1 1_555 1_555
O3A W3 1_555 1_555
O4A W5 1_555 1_555
C19D H17D 1_555 1_555
C20D H18D 1_555 1_555
C21D H19D 1_555 1_555
H20D C21D 1_555 1_555
C22D C21D 1_555 1_555
C23D C22D 1_555 1_555
H21D C23D 1_555 1_555
C24D C23D 1_555 1_555
H22D C24D 1_555 1_555
C25D C25 1_555 1_555
C26D C25D 1_555 1_555
H23D C26D 1_555 1_555
C27D C22D 1_555 1_555
H24D C27D 1_555 1_555
N7D C19D 1_555 1_555
N8D C20D 1_555 1_555
N9D C19D 1_555 1_555
W2A O1 1_555 1_555
W3A O3 1_555 1_555
W4A O3 1_555 1_555
W6A O1 1_555 1_555
W7A O1 1_555 1_555
Cu1A N4A 1_555 1_555
C1A H1A 1_555 1_555
N1A C1A 1_555 1_555
C2A H2A 1_555 1_555
C3A H3A 1_555 1_555
H4A C3A 1_555 1_555
C4A C3A 1_555 1_555
C5A C4A 1_555 1_555
H5A C5A 1_555 1_555
C6A C5A 1_555 1_555
H6A C6A 1_555 1_555
C7A C6A 1_555 1_555
C8A C7A 1_555 1_555
H7A C8A 1_555 1_555
C9A C4A 1_555 1_555
H8A C9A 1_555 1_555
C10A C7A 1_555 1_555
C11A C10A 1_555 1_555
H9A C11A 1_555 1_555
C12A C11A 1_555 1_555
H10A C12A 1_555 1_555
C13A H11A 1_555 1_555
C14A C10A 1_555 1_555
H12A C14A 1_555 1_555
C15A C12A 1_555 1_555
C16A C15A 1_555 1_555
H13A C16A 1_555 1_555
H14A C16A 1_555 1_555
C17A H15A 1_555 1_555
C18A H16A 1_555 1_555
N2A C1A 1_555 1_555
N3A N1A 1_555 1_555
N4A C17A 1_555 1_555
N5A C18A 1_555 1_555
N6A C16A 1_555 1_555
O5A W1 1_555 1_555
O6A W1 1_555 1_555
O7A W2A 1_555 1_555
O8A W2A 1_555 1_555
O9A W2A 1_555 1_555
O10A W7 1_555 1_555
O11A W3A 1_555 1_555
O12A W7 1_555 1_555
O13A W5 1_555 1_555
O14A W5 1_555 1_555
O15A W6A 1_555 1_555
O16A W6A 1_555 1_555
O17A W2A 1_555 1_555
O18A W3A 1_555 1_555
O19A W4A 1_555 1_555
O20A W4A 1_555 1_555
O22A W7A 1_555 1_555
O23A Cu1A 1_555 1_555
O24A W1 1_555 1_555
Cu1B O17A 1_555 1_555
Cu1C O17 1_555 1_555
Cu1D N7D 1_555 1_555
Cu1D_2 N2A 1_555 1_555
Cu1E N2 1_555 1_555
N2D Cu1A 1_555 1_555
N2E Cu1 1_555 1_555
N7A Cu1A 1_555 1_555
O17B Cu1A 1_555 1_555
O17C Cu1 1_555 1_555
H25A O25 1_555 1_555
W2 O5 1_555 1_555
W3 O9 1_555 1_555
W3 O6A 1_555 1_555
W4 O11 1_555 1_555
W4 O3A 1_555 1_555
W5 O13 1_555 1_555
W6 O8 1_555 1_555
W6 O14 1_555 1_555
W6 O19 1_555 1_555
W6 O1A 1_555 1_555
W7 O7 1_555 1_555
W7 O16 1_555 1_555
W7 O1A 1_555 1_555
Si1 O1A 1_555 1_555
Si1 O2A 1_555 1_555
Si1 O3A 1_555 1_555
Si1 O4A 1_555 1_555
Cu1 O20 1_555 1_555
C2 N2 1_555 1_555
C2 N3 1_555 1_555
C3 N3 1_555 1_555
C8 C9 1_555 1_555
C13 C14 1_555 1_555
C13 C15 1_555 1_555
C17 N6 1_555 1_555
C18 N4 1_555 1_555
C19 N7 1_555 1_555
C20 N7 1_555 1_555
C21 N8 1_555 1_555
C26 C27 1_555 1_555
N5 N6 1_555 1_555
N8 N9 1_555 1_555
O2 O2A 1_555 1_555
O4 O1A 1_555 1_555
O4 O4A 1_555 1_555
O6 W3A 1_555 1_555
O10 W7A 1_555 1_555
O12 W7A 1_555 1_555
O2A W2A 1_555 1_555
O2A W3A 1_555 1_555
O3A W7A 1_555 1_555
O4A W4A 1_555 1_555
O4A W6A 1_555 1_555
C20D N7D 1_555 1_555
C21D N8D 1_555 1_555
C24D C25D 1_555 1_555
C26D C27D 1_555 1_555
N8D N9D 1_555 1_555
W2A O5A 1_555 1_555
W3A O9A 1_555 1_555
W3A O10A 1_555 1_555
W4A O11A 1_555 1_555
W4A O12A 1_555 1_555
W4A O13A 1_555 1_555
W6A O8A 1_555 1_555
W6A O14A 1_555 1_555
W6A O19A 1_555 1_555
W7A O7A 1_555 1_555
W7A O16A 1_555 1_555
Cu1A O20A 1_555 1_555
C2A N2A 1_555 1_555
C2A N3A 1_555 1_555
C3A N3A 1_555 1_555
C8A C9A 1_555 1_555
C13A C14A 1_555 1_555
C13A C15A 1_555 1_555
C17A N6A 1_555 1_555
C18A N4A 1_555 1_555
N5A N6A 1_555 1_555

#END
