
#######################################################################
#
#                 Cambridge Crystallographic Data Centre
#                                CCDC 
#
#######################################################################
#
# If this CIF has been generated from an entry in the Cambridge 
# Structural Database, then it will include bibliographic, chemical, 
# crystal, experimental, refinement or atomic coordinate data resulting 
# from the CCDC's data processing and validation procedures.
#
#######################################################################

data_FOJGIV
_symmetry_cell_setting           monoclinic
_symmetry_space_group_name_H-M   'C 2/c'
_symmetry_Int_Tables_number      15
_space_group_name_Hall           '-C 2yn'
loop_
_symmetry_equiv_pos_site_id
_symmetry_equiv_pos_as_xyz
1 x,y,z
2 -x,y,1/2-z
3 1/2+x,1/2+y,z
4 1/2-x,1/2+y,1/2-z
5 -x,-y,-z
6 x,-y,1/2+z
7 1/2-x,1/2-y,-z
8 1/2+x,1/2-y,1/2+z
_cell_length_a                   9.835(1)
_cell_length_b                   21.719(2)
_cell_length_c                   10.869(1)
_cell_angle_alpha                90
_cell_angle_beta                 102.723(8)
_cell_angle_gamma                90
_cell_volume                     2264.68
loop_
_atom_site_label
_atom_site_type_symbol
_atom_site_fract_x
_atom_site_fract_y
_atom_site_fract_z
C1 C 0.0673(2) 0.3571(1) 0.2451(2)
C2 C 0.0000 0.2633(1) 0.2500
C3 C 0.7259(2) 0.1305(1) 0.2748(2)
C4 C 0.7796(3) 0.0772(1) 0.2299(2)
C5 C 0.7585(3) 0.0196(1) 0.2745(3)
C6 C 0.6822(4) 0.0124(1) 0.3671(3)
C7 C 0.6258(3) 0.0630(1) 0.4104(2)
C8 C 0.6444(2) 0.1226(1) 0.3667(2)
C9 C 0.5755(2) 0.1725(1) 0.4151(2)
C10 C 0.5563(2) 0.3291(1) 0.4110(2)
C11 C 0.4851(3) 0.3839(1) 0.4504(3)
N1 N 0.1113(2) 0.2969(1) 0.2430(2)
N2 N 0.5924(2) 0.2296(1) 0.3910(2)
N3 N 0.5136(2) 0.2741(1) 0.4378(2)
O1 O 0.7530(2) 0.1845(1) 0.2296(1)
O2 O 0.6539(1) 0.3391(1) 0.3523(1)
K1 K 0.2500 0.2500 0.5000
Cu1 Cu 0.2750(1) 0.2618(1) 0.1964(1)
H1 H 0.1230(30) 0.3895(12) 0.2390(20)
H2 H 0.0000 0.2164(15) 0.2500
H3 H 0.8400(30) 0.0844(12) 0.1740(30)
H4 H 0.7960(30) -0.0117(15) 0.2440(30)
H5 H 0.6700(30) -0.0247(14) 0.3980(30)
H6 H 0.5730(30) 0.0599(13) 0.4710(30)
H7 H 0.5070(20) 0.1624(10) 0.4670(20)
H8 H 0.5530(30) 0.4131(13) 0.4910(30)
H9 H 0.4300(30) 0.3746(13) 0.4920(30)
H10 H 0.4360(30) 0.4063(13) 0.3770(30)
C1A C -0.0673(2) 0.3571(1) 0.2549(2)
C3F C -0.2259(2) 0.3695(1) 0.7252(2)
C4F C -0.2796(3) 0.4228(1) 0.7701(2)
C5F C -0.2585(3) 0.4804(1) 0.7255(3)
C6F C -0.1822(4) 0.4876(1) 0.6329(3)
C7F C -0.1258(3) 0.4370(1) 0.5896(2)
C8F C -0.1444(2) 0.3774(1) 0.6333(2)
C9F C -0.0755(2) 0.3275(1) 0.5849(2)
C10F C -0.0563(2) 0.1709(1) 0.5890(2)
C11F C 0.0149(3) 0.1161(1) 0.5496(3)
N1A N -0.1113(2) 0.2969(1) 0.2570(2)
N1F N 0.3887(2) 0.2031(1) 0.7570(2)
N2F N -0.0924(2) 0.2704(1) 0.6090(2)
N2A N 0.4076(2) 0.2296(1) 0.1090(2)
N2_2 N -0.4076(2) 0.2296(1) 0.3910(2)
N3F N -0.0136(2) 0.2259(1) 0.5622(2)
O1F O -0.2530(2) 0.3155(1) 0.7704(1)
O1A O 0.2470(2) 0.1845(1) 0.2704(1)
O1G O 0.2530(2) 0.3155(1) 0.7296(1)
O1_2 O -0.2470(2) 0.1845(1) 0.2296(1)
O2F O -0.1539(1) 0.1609(1) 0.6477(1)
O2A O 0.3461(1) 0.3391(1) 0.1477(1)
O2_2 O -0.3461(1) 0.3391(1) 0.3523(1)
K1A K 0.7500 0.2500 0.0000
K1A_2 K -0.2500 0.2500 0.0000
K1A_3 K -0.2500 0.2500 1.0000
Cu1A Cu -0.2750(1) 0.2618(1) 0.3036(1)
Cu1A_2 Cu 0.7250(1) 0.2618(1) 0.3036(1)
Cu1F Cu 0.2250(1) 0.2382(1) 0.8036(1)
Cu1G Cu -0.2250(1) 0.2382(1) 0.6964(1)
H1A H -0.1230(30) 0.3895(12) 0.2610(20)
H3F H -0.3400(30) 0.4156(12) 0.8260(30)
H4F H -0.2960(30) 0.5117(15) 0.7560(30)
H5F H -0.1700(30) 0.5247(14) 0.6020(30)
H6F H -0.0730(30) 0.4401(13) 0.5290(30)
H7F H -0.0070(20) 0.3376(10) 0.5330(20)
H8F H -0.0530(30) 0.0869(13) 0.5090(30)
H9F H 0.0700(30) 0.1254(13) 0.5080(30)
H10F H 0.0640(30) 0.0937(13) 0.6230(30)
loop_
_geom_bond_atom_site_label_1
_geom_bond_atom_site_label_2
_geom_bond_site_symmetry_1
_geom_bond_site_symmetry_2
C1 N1 1_555 1_555
C2 N1 1_555 1_555
C3 C4 1_555 1_555
C4 C5 1_555 1_555
C5 C6 1_555 1_555
C6 C7 1_555 1_555
C7 C8 1_555 1_555
C8 C3 1_555 1_555
C9 C8 1_555 1_555
C10 C11 1_555 1_555
C11 H8 1_555 1_555
N1 K1 1_555 1_555
N2 C9 1_555 1_555
N3 C10 1_555 1_555
O1 C3 1_555 1_555
O2 C10 1_555 1_555
K1 N3 1_555 1_555
Cu1 N1 1_555 1_555
H1 C1 1_555 1_555
H2 C2 1_555 1_555
H3 C4 1_555 1_555
H4 C5 1_555 1_555
H5 C6 1_555 1_555
H6 C7 1_555 1_555
H7 C9 1_555 1_555
H9 C11 1_555 1_555
H10 C11 1_555 1_555
C1A C1 1_555 1_555
C3F C4F 1_555 1_555
C4F C5F 1_555 1_555
C5F C6F 1_555 1_555
C6F C7F 1_555 1_555
C7F C8F 1_555 1_555
C8F C3F 1_555 1_555
C9F C8F 1_555 1_555
C10F C11F 1_555 1_555
C11F H8F 1_555 1_555
N1A C2 1_555 1_555
N1F K1 1_555 1_555
N2F C9F 1_555 1_555
N2A Cu1 1_555 1_555
N2_2 Cu1A 1_555 1_555
N3F K1 1_555 1_555
O1F C3F 1_555 1_555
O1A K1 1_555 1_555
O1G K1 1_555 1_555
O1_2 K1A_2 1_555 1_555
O2F C10F 1_555 1_555
O2A Cu1 1_555 1_555
O2_2 Cu1A 1_555 1_555
K1A O1 1_555 1_555
K1A_2 N1A 1_555 1_555
K1A_3 O1F 1_555 1_555
Cu1A N1A 1_555 1_555
Cu1A_2 N2 1_555 1_555
Cu1F N1F 1_555 1_555
Cu1G N2F 1_555 1_555
H1A C1A 1_555 1_555
H3F C4F 1_555 1_555
H4F C5F 1_555 1_555
H5F C6F 1_555 1_555
H6F C7F 1_555 1_555
H7F C9F 1_555 1_555
H9F C11F 1_555 1_555
H10F C11F 1_555 1_555
N2 N3 1_555 1_555
O1 Cu1A_2 1_555 1_555
O2 Cu1A_2 1_555 1_555
Cu1 O1A 1_555 1_555
C1A N1A 1_555 1_555
C10F N3F 1_555 1_555
N2F N3F 1_555 1_555
O1F Cu1G 1_555 1_555
O1G Cu1F 1_555 1_555
O1_2 Cu1A 1_555 1_555
O2F Cu1G 1_555 1_555

#END
