
#######################################################################
#
#                 Cambridge Crystallographic Data Centre
#                                CCDC 
#
#######################################################################
#
# If this CIF has been generated from an entry in the Cambridge 
# Structural Database, then it will include bibliographic, chemical, 
# crystal, experimental, refinement or atomic coordinate data resulting 
# from the CCDC's data processing and validation procedures.
#
#######################################################################

data_FOJKOG
_symmetry_cell_setting           monoclinic
_symmetry_space_group_name_H-M   'P 21/n'
_symmetry_Int_Tables_number      14
_space_group_name_Hall           '-P 2yn'
loop_
_symmetry_equiv_pos_site_id
_symmetry_equiv_pos_as_xyz
1 x,y,z
2 1/2-x,1/2+y,1/2-z
3 -x,-y,-z
4 1/2+x,1/2-y,1/2+z
_cell_length_a                   15.4072(6)
_cell_length_b                   14.0406(4)
_cell_length_c                   17.6117(7)
_cell_angle_alpha                90
_cell_angle_beta                 115.464(5)
_cell_angle_gamma                90
_cell_volume                     3439.77
loop_
_atom_site_label
_atom_site_type_symbol
_atom_site_fract_x
_atom_site_fract_y
_atom_site_fract_z
Mg1 Mg 0.5000 0.5000 0.5000
Mg2 Mg 0.26817(5) 0.49926(5) 0.50553(5)
O1 O 0.40757(12) 0.59482(13) 0.41680(11)
O2 O 0.26741(13) 0.59942(14) 0.42304(13)
O3 O 0.22409(13) 0.89486(13) 0.07185(13)
O4 O 0.07876(13) 0.88820(13) 0.06897(12)
O5 O 0.26973(14) 0.60193(14) 0.58704(13)
O6 O 0.41648(15) 0.60204(17) 0.69218(14)
O7 O 0.10363(18) 0.82320(17) 0.85768(18)
O8 O 0.24260(14) 0.89828(15) 0.91434(14)
O9 O 0.42410(11) 0.49212(10) 0.57627(10)
N1 N 0.11013(17) 0.50016(16) 0.44003(15)
C1 C 0.32172(17) 0.61666(15) 0.38874(15)
C2 C 0.16454(17) 0.86208(17) 0.09493(15)
C3 C 0.27745(17) 0.67118(16) 0.30693(15)
C4 C 0.2127(2) 0.74143(19) 0.29987(17)
H1 H 0.1944 0.7506 0.3432
C5 C 0.1737(2) 0.79957(18) 0.22842(18)
H2 H 0.1297 0.8467 0.2251
C6 C 0.19905(17) 0.78829(16) 0.16361(16)
C7 C 0.26126(17) 0.71185(16) 0.16532(15)
C8 C 0.30080(16) 0.65205(16) 0.23790(15)
C9 C 0.35910(19) 0.57393(18) 0.23732(18)
H3 H 0.3843 0.5335 0.2836
C10 C 0.3787(2) 0.5572(2) 0.1704(2)
H4 H 0.4172 0.5058 0.1713
C11 C 0.3410(3) 0.6176(3) 0.0996(2)
H5 H 0.3553 0.6062 0.0543
C12 C 0.2841(2) 0.6920(2) 0.09721(18)
H6 H 0.2595 0.7308 0.0498
C13 C 0.3306(2) 0.62634(18) 0.65941(17)
C14 C 0.1866(2) 0.84011(19) 0.86505(18)
C15 C 0.2939(2) 0.68840(18) 0.70944(17)
C16 C 0.3248(3) 0.6682(2) 0.7926(2)
H7 H 0.3704 0.6205 0.8167
C17 C 0.2897(3) 0.7176(2) 0.8430(2)
H8 H 0.3125 0.7025 0.8998
C18 C 0.2225(2) 0.78729(19) 0.80938(18)
C19 C 0.1900(2) 0.81306(18) 0.72387(18)
C20 C 0.2260(2) 0.76285(19) 0.67250(17)
C21 C 0.1932(3) 0.7917(2) 0.5875(2)
H9 H 0.2157 0.7602 0.5530
C22 C 0.1300(3) 0.8640(3) 0.5557(3)
H10 H 0.1098 0.8820 0.4998
C23 C 0.0944(3) 0.9127(3) 0.6066(3)
H11 H 0.0501 0.9618 0.5841
C24 C 0.1250(3) 0.8874(3) 0.6888(2)
H12 H 0.1020 0.9205 0.7222
C25 C 0.0586(3) 0.4218(3) 0.4328(2)
H13 H 0.0904 0.3653 0.4561
C26 C -0.0412(3) 0.4216(4) 0.3917(3)
H14 H -0.0749 0.3654 0.3873
C27 C -0.0888(3) 0.5023(4) 0.3584(3)
H15 H -0.1557 0.5034 0.3317
C28 C -0.0375(3) 0.5813(4) 0.3646(4)
H16 H -0.0687 0.6379 0.3406
C29 C 0.0613(2) 0.5791(3) 0.4063(3)
H17 H 0.0953 0.6353 0.4111
Mg2B Mg 0.73183(5) 0.50074(5) 0.49447(5)
O1B O 0.59243(12) 0.40518(13) 0.58320(11)
O2B O 0.73259(13) 0.40058(14) 0.57696(13)
O3B O 0.77591(13) 0.10514(13) 0.92815(13)
O4B O 0.92124(13) 0.11180(13) 0.93103(12)
O5B O 0.73027(14) 0.39807(14) 0.41296(13)
O6B O 0.58352(15) 0.39796(17) 0.30782(14)
O7B O 0.89637(18) 0.17680(17) 0.14232(18)
O8B O 0.75740(14) 0.10172(15) 0.08566(14)
O9B O 0.57590(11) 0.50788(10) 0.42373(10)
N1B N 0.88987(17) 0.49984(16) 0.55997(15)
C1B C 0.67828(17) 0.38334(15) 0.61126(15)
C2B C 0.83546(17) 0.13792(17) 0.90507(15)
C3B C 0.72255(17) 0.32882(16) 0.69307(15)
C4B C 0.7873(2) 0.25857(19) 0.70013(17)
H1B H 0.8056 0.2494 0.6568
C5B C 0.8263(2) 0.20043(18) 0.77158(18)
H2B H 0.8703 0.1533 0.7749
C6B C 0.80095(17) 0.21171(16) 0.83639(16)
C7B C 0.73874(17) 0.28815(16) 0.83468(15)
C8B C 0.69920(16) 0.34795(16) 0.76210(15)
C9B C 0.64090(19) 0.42607(18) 0.76268(18)
H3B H 0.6157 0.4665 0.7164
C10B C 0.6213(2) 0.4428(2) 0.8296(2)
H4B H 0.5828 0.4942 0.8287
C11B C 0.6590(3) 0.3824(3) 0.9004(2)
H5B H 0.6447 0.3938 0.9457
C12B C 0.7159(2) 0.3080(2) 0.90279(18)
H6B H 0.7405 0.2692 0.9502
C13B C 0.6694(2) 0.37366(18) 0.34059(17)
C14B C 0.8134(2) 0.15989(19) 0.13495(18)
C15B C 0.7061(2) 0.31160(18) 0.29056(17)
C16B C 0.6752(3) 0.3318(2) 0.2074(2)
H7B H 0.6296 0.3795 0.1833
C17B C 0.7103(3) 0.2824(2) 0.1570(2)
H8B H 0.6875 0.2975 0.1002
C18B C 0.7775(2) 0.21271(19) 0.19062(18)
C19B C 0.8100(2) 0.18694(18) 0.27613(18)
C20B C 0.7740(2) 0.23715(19) 0.32750(17)
C21B C 0.8068(3) 0.2083(2) 0.4125(2)
H9B H 0.7843 0.2398 0.4470
C22B C 0.8700(3) 0.1360(3) 0.4443(3)
H10B H 0.8902 0.1180 0.5002
C23B C 0.9056(3) 0.0873(3) 0.3934(3)
H11B H 0.9499 0.0382 0.4159
C24B C 0.8750(3) 0.1126(3) 0.3112(2)
H12B H 0.8980 0.0795 0.2778
C25B C 0.9414(3) 0.5782(3) 0.5672(2)
H13B H 0.9096 0.6347 0.5439
C26B C 1.0412(3) 0.5784(4) 0.6083(3)
H14B H 1.0749 0.6346 0.6127
C27B C 1.0888(3) 0.4977(4) 0.6416(3)
H15B H 1.1557 0.4966 0.6683
C28B C 1.0375(3) 0.4187(4) 0.6354(4)
H16B H 1.0687 0.3621 0.6594
C29B C 0.9387(2) 0.4209(3) 0.5937(3)
H17B H 0.9047 0.3647 0.5889
Mg1A Mg 0.0000 1.0000 0.0000
Mg1A_2 Mg 1.0000 0.0000 1.0000
Mg2A Mg 0.23183(5) 0.99926(5) -0.00553(5)
Mg2A_2 Mg 0.23183(5) 0.99926(5) 0.99447(5)
Mg2C Mg 0.76817(5) 0.00074(5) 0.00553(5)
Mg2C_2 Mg 0.76817(5) 0.00074(5) 1.00553(5)
O3A O 0.27591(13) 0.39486(13) 0.42815(13)
O3C O 0.72409(13) 0.60514(13) 0.57185(13)
O4A O 0.42124(13) 0.38820(13) 0.43103(12)
O4C O 0.57876(13) 0.61180(13) 0.56897(12)
O8A O 0.25740(14) 0.39828(15) 0.58566(14)
O8C O 0.74260(14) 0.60172(15) 0.41434(14)
loop_
_geom_bond_atom_site_label_1
_geom_bond_atom_site_label_2
_geom_bond_site_symmetry_1
_geom_bond_site_symmetry_2
Mg1 O1 1_555 1_555
Mg2 O2 1_555 1_555
O1 C1 1_555 1_555
O2 C1 1_555 1_555
O3 C2 1_555 1_555
O4 C2 1_555 1_555
O5 Mg2 1_555 1_555
O6 C13 1_555 1_555
O7 C14 1_555 1_555
O8 C14 1_555 1_555
O9 Mg1 1_555 1_555
N1 Mg2 1_555 1_555
C1 C3 1_555 1_555
C2 C6 1_555 1_555
C3 C4 1_555 1_555
C4 H1 1_555 1_555
C5 C4 1_555 1_555
H2 C5 1_555 1_555
C6 C5 1_555 1_555
C7 C6 1_555 1_555
C8 C3 1_555 1_555
C9 C8 1_555 1_555
H3 C9 1_555 1_555
C10 C9 1_555 1_555
H4 C10 1_555 1_555
C11 C10 1_555 1_555
H5 C11 1_555 1_555
C12 C7 1_555 1_555
H6 C12 1_555 1_555
C13 O5 1_555 1_555
C14 C18 1_555 1_555
C15 C13 1_555 1_555
C16 C15 1_555 1_555
H7 C16 1_555 1_555
C17 C16 1_555 1_555
H8 C17 1_555 1_555
C18 C17 1_555 1_555
C19 C18 1_555 1_555
C20 C15 1_555 1_555
C21 C20 1_555 1_555
H9 C21 1_555 1_555
C22 C21 1_555 1_555
H10 C22 1_555 1_555
C23 C22 1_555 1_555
H11 C23 1_555 1_555
C24 C19 1_555 1_555
H12 C24 1_555 1_555
C25 N1 1_555 1_555
H13 C25 1_555 1_555
C26 C25 1_555 1_555
H14 C26 1_555 1_555
C27 C26 1_555 1_555
H15 C27 1_555 1_555
C28 C27 1_555 1_555
H16 C28 1_555 1_555
C29 N1 1_555 1_555
H17 C29 1_555 1_555
Mg2B O2B 1_555 1_555
O1B Mg1 1_555 1_555
O2B C1B 1_555 1_555
O3B C2B 1_555 1_555
O4B C2B 1_555 1_555
O5B Mg2B 1_555 1_555
O6B C13B 1_555 1_555
O7B C14B 1_555 1_555
O8B C14B 1_555 1_555
O9B Mg1 1_555 1_555
N1B Mg2B 1_555 1_555
C1B O1B 1_555 1_555
C2B C6B 1_555 1_555
C3B C1B 1_555 1_555
C4B C3B 1_555 1_555
H1B C4B 1_555 1_555
C5B C4B 1_555 1_555
H2B C5B 1_555 1_555
C6B C5B 1_555 1_555
C7B C6B 1_555 1_555
C8B C3B 1_555 1_555
C9B C8B 1_555 1_555
H3B C9B 1_555 1_555
C10B C9B 1_555 1_555
H4B C10B 1_555 1_555
C11B C10B 1_555 1_555
H5B C11B 1_555 1_555
C12B C7B 1_555 1_555
H6B C12B 1_555 1_555
C13B O5B 1_555 1_555
C14B C18B 1_555 1_555
C15B C13B 1_555 1_555
C16B C15B 1_555 1_555
H7B C16B 1_555 1_555
C17B C16B 1_555 1_555
H8B C17B 1_555 1_555
C18B C17B 1_555 1_555
C19B C18B 1_555 1_555
C20B C15B 1_555 1_555
C21B C20B 1_555 1_555
H9B C21B 1_555 1_555
C22B C21B 1_555 1_555
H10B C22B 1_555 1_555
C23B C22B 1_555 1_555
H11B C23B 1_555 1_555
C24B C19B 1_555 1_555
H12B C24B 1_555 1_555
C25B N1B 1_555 1_555
H13B C25B 1_555 1_555
C26B C25B 1_555 1_555
H14B C26B 1_555 1_555
C27B C26B 1_555 1_555
H15B C27B 1_555 1_555
C28B C27B 1_555 1_555
H16B C28B 1_555 1_555
C29B N1B 1_555 1_555
H17B C29B 1_555 1_555
Mg1A O4 1_555 1_555
Mg1A_2 O4B 1_555 1_555
Mg2A O3 1_555 1_555
Mg2A_2 O8 1_555 1_555
Mg2C O8B 1_555 1_555
Mg2C_2 O3B 1_555 1_555
O3A Mg2 1_555 1_555
O3C Mg2B 1_555 1_555
O4A Mg1 1_555 1_555
O4C Mg1 1_555 1_555
O8A Mg2 1_555 1_555
O8C Mg2B 1_555 1_555
Mg2 O9 1_555 1_555
C7 C8 1_555 1_555
C11 C12 1_555 1_555
C19 C20 1_555 1_555
C23 C24 1_555 1_555
C28 C29 1_555 1_555
Mg2B O9B 1_555 1_555
C7B C8B 1_555 1_555
C11B C12B 1_555 1_555
C19B C20B 1_555 1_555
C23B C24B 1_555 1_555
C28B C29B 1_555 1_555

#END
