
#######################################################################
#
#                 Cambridge Crystallographic Data Centre
#                                CCDC 
#
#######################################################################
#
# If this CIF has been generated from an entry in the Cambridge 
# Structural Database, then it will include bibliographic, chemical, 
# crystal, experimental, refinement or atomic coordinate data resulting 
# from the CCDC's data processing and validation procedures.
#
#######################################################################

data_FOJKAS
_symmetry_cell_setting           monoclinic
_symmetry_space_group_name_H-M   'C 2/c'
_symmetry_Int_Tables_number      15
_space_group_name_Hall           '-C 2yn'
loop_
_symmetry_equiv_pos_site_id
_symmetry_equiv_pos_as_xyz
1 x,y,z
2 -x,y,1/2-z
3 1/2+x,1/2+y,z
4 1/2-x,1/2+y,1/2-z
5 -x,-y,-z
6 x,-y,1/2+z
7 1/2-x,1/2-y,-z
8 1/2+x,1/2-y,1/2+z
_cell_length_a                   32.4781(18)
_cell_length_b                   6.3911(3)
_cell_length_c                   22.9635(13)
_cell_angle_alpha                90
_cell_angle_beta                 130.0170(10)
_cell_angle_gamma                90
_cell_volume                     3650.48
loop_
_atom_site_label
_atom_site_type_symbol
_atom_site_fract_x
_atom_site_fract_y
_atom_site_fract_z
C1 C 0.90192(7) 0.0801(3) 0.38399(10)
C2 C 0.84156(7) 0.0875(3) 0.32066(10)
C3 C 0.82371(6) 0.0330(2) 0.24200(9)
C4 C 0.84979(7) -0.1715(3) 0.24480(10)
C5 C 0.83003(7) -0.2247(3) 0.16561(11)
C6 C 0.76886(7) -0.2517(3) 0.11082(11)
C7 C 0.74146(7) -0.0483(3) 0.10572(9)
C8 C 0.76223(7) 0.0056(3) 0.18569(10)
C9 C 0.75760(8) 0.1264(3) 0.07809(10)
C10 C 0.81854(8) 0.1544(3) 0.13328(11)
C11 C 0.83817(7) 0.2088(3) 0.21244(10)
C12 C 0.84523(9) -0.0487(4) 0.13776(13)
C13 C 0.67997(7) -0.0846(3) 0.04923(11)
C14 C 0.64788(7) 0.1017(3) 0.03928(10)
C15 C 1.01024(7) 0.3628(3) 0.58788(10)
C16 C 0.96021(8) 0.0964(3) 0.58047(11)
C17 C 1.00097(8) 0.4861(3) 0.62751(12)
C18 C 0.95009(8) 0.2105(3) 0.62062(12)
C19 C 0.96960(7) 0.4122(3) 0.64450(10)
C20 C 0.95479(9) 0.5450(4) 0.68319(13)
C21 C 1.0000 0.6738(5) 0.7500
N1 N 0.98998(5) 0.1696(2) 0.56342(8)
O1 O 0.92161(4) -0.0758(2) 0.43052(6)
O2 O 0.93157(5) 0.2158(2) 0.39049(8)
O3 O 0.63485(6) 0.0957(3) 0.08310(9)
O4 O 0.63516(7) 0.2429(3) -0.00377(10)
Cu1 Cu 1.0000 0.0000 0.5000
H1 H 0.8299(8) 0.228(3) 0.3194(11)
H2 H 0.8240(9) -0.005(3) 0.3307(13)
H3 H 0.8874(8) -0.160(3) 0.2786(11)
H4 H 0.8421(8) -0.284(3) 0.2640(12)
H5 H 0.8463(9) -0.353(4) 0.1682(13)
H6 H 0.7591(8) -0.365(3) 0.1286(11)
H7 H 0.7556(8) -0.288(3) 0.0614(13)
H8 H 0.7460(7) 0.130(3) 0.1852(10)
H9 H 0.7530(7) -0.100(3) 0.2026(11)
H10 H 0.7436(9) 0.090(4) 0.0270(14)
H11 H 0.7397(8) 0.254(3) 0.0747(11)
H12 H 0.8267(8) 0.265(3) 0.1152(12)
H13 H 0.8222(8) 0.333(3) 0.2120(11)
H14 H 0.8769(8) 0.229(3) 0.2475(11)
H15 H 0.8336(10) -0.080(4) 0.0881(15)
H16 H 0.8831(11) -0.032(4) 0.1716(16)
H17 H 0.6713(8) -0.193(3) 0.0657(12)
H18 H 0.6693(9) -0.114(4) 0.0010(14)
H19 H 0.6165(11) 0.202(4) 0.0752(16)
H20 H 1.0321(8) 0.417(3) 0.5770(11)
H21 H 0.9463(9) -0.038(4) 0.5614(14)
H22 H 1.0163(8) 0.623(4) 0.6423(12)
H23 H 0.9282(9) 0.148(3) 0.6296(13)
H24 H 0.9425(9) 0.459(3) 0.7016(13)
H25 H 0.9263(10) 0.633(4) 0.6426(15)
H26 H 0.9848(10) 0.768(4) 0.7645(15)
C15A C 0.98976(7) 0.3628(3) 0.91212(10)
C16A C 1.03979(8) 0.0964(3) 0.91953(11)
C17A C 0.99903(8) 0.4861(3) 0.87249(12)
C18A C 1.04991(8) 0.2105(3) 0.87938(12)
C19A C 1.03040(7) 0.4122(3) 0.85550(10)
C20A C 1.04521(9) 0.5450(4) 0.81681(13)
N1A N 1.01002(5) 0.1696(2) 0.93658(8)
H20A H 0.9679(8) 0.417(3) 0.9230(11)
H21A H 1.0537(9) -0.038(4) 0.9386(14)
H22A H 0.9837(8) 0.623(4) 0.8577(12)
H23A H 1.0718(9) 0.148(3) 0.8704(13)
H24A H 1.0575(9) 0.459(3) 0.7984(13)
H25A H 1.0737(10) 0.633(4) 0.8574(15)
H26A H 1.0152(10) 0.768(4) 0.7355(15)
C1D C 1.09808(7) -0.0801(3) 0.61601(10)
C2D C 1.15844(7) -0.0875(3) 0.67934(10)
C3D C 1.17629(6) -0.0330(2) 0.75800(9)
C4D C 1.15021(7) 0.1715(3) 0.75520(10)
C5D C 1.16997(7) 0.2247(3) 0.83439(11)
C6D C 1.23114(7) 0.2517(3) 0.88918(11)
C7D C 1.25854(7) 0.0483(3) 0.89428(9)
C8D C 1.23777(7) -0.0056(3) 0.81431(10)
C9D C 1.24240(8) -0.1264(3) 0.92191(10)
C10D C 1.18146(8) -0.1544(3) 0.86672(11)
C11D C 1.16183(7) -0.2088(3) 0.78756(10)
C12D C 1.15477(9) 0.0487(4) 0.86224(13)
C13D C 1.32003(7) 0.0846(3) 0.95077(11)
C14D C 1.35212(7) -0.1017(3) 0.96072(10)
O1D O 1.07839(4) 0.0758(2) 0.56948(6)
O2D O 1.06843(5) -0.2158(2) 0.60951(8)
O3D O 1.36515(6) -0.0957(3) 0.91690(9)
O4D O 1.36484(7) -0.2429(3) 1.00377(10)
H1D H 1.1701(8) -0.228(3) 0.6806(11)
H2D H 1.1760(9) 0.005(3) 0.6693(13)
H3D H 1.1126(8) 0.160(3) 0.7214(11)
H4D H 1.1579(8) 0.284(3) 0.7360(12)
H5D H 1.1537(9) 0.353(4) 0.8318(13)
H6D H 1.2409(8) 0.365(3) 0.8714(11)
H7D H 1.2444(8) 0.288(3) 0.9386(13)
H8D H 1.2540(7) -0.130(3) 0.8148(10)
H9D H 1.2470(7) 0.100(3) 0.7974(11)
H10D H 1.2564(9) -0.090(4) 0.9730(14)
H11D H 1.2603(8) -0.254(3) 0.9253(11)
H12D H 1.1733(8) -0.265(3) 0.8848(12)
H13D H 1.1778(8) -0.333(3) 0.7880(11)
H14D H 1.1231(8) -0.229(3) 0.7525(11)
H15D H 1.1664(10) 0.080(4) 0.9119(15)
H16D H 1.1169(11) 0.032(4) 0.8284(16)
H17D H 1.3287(8) 0.193(3) 0.9343(12)
H18D H 1.3307(9) 0.114(4) 0.9990(14)
H19D H 1.3835(11) -0.202(4) 0.9248(16)
N1D N 1.01002(5) -0.1696(2) 0.43658(8)
Cu1A Cu 1.0000 0.0000 1.0000
loop_
_geom_bond_atom_site_label_1
_geom_bond_atom_site_label_2
_geom_bond_site_symmetry_1
_geom_bond_site_symmetry_2
C1 C2 1_555 1_555
C2 C3 1_555 1_555
C3 C4 1_555 1_555
C4 C5 1_555 1_555
C5 C6 1_555 1_555
C6 C7 1_555 1_555
C7 C8 1_555 1_555
C8 C3 1_555 1_555
C9 C7 1_555 1_555
C10 C9 1_555 1_555
C11 C3 1_555 1_555
C12 C5 1_555 1_555
C13 C7 1_555 1_555
C14 C13 1_555 1_555
C15 C17 1_555 1_555
C16 C18 1_555 1_555
C17 C19 1_555 1_555
C18 C19 1_555 1_555
C19 C20 1_555 1_555
C20 C21 1_555 1_555
C21 H26 1_555 1_555
N1 C15 1_555 1_555
O1 C1 1_555 1_555
O2 C1 1_555 1_555
O3 C14 1_555 1_555
O4 C14 1_555 1_555
Cu1 N1 1_555 1_555
H1 C2 1_555 1_555
H2 C2 1_555 1_555
H3 C4 1_555 1_555
H4 C4 1_555 1_555
H5 C5 1_555 1_555
H6 C6 1_555 1_555
H7 C6 1_555 1_555
H8 C8 1_555 1_555
H9 C8 1_555 1_555
H10 C9 1_555 1_555
H11 C9 1_555 1_555
H12 C10 1_555 1_555
H13 C11 1_555 1_555
H14 C11 1_555 1_555
H15 C12 1_555 1_555
H16 C12 1_555 1_555
H17 C13 1_555 1_555
H18 C13 1_555 1_555
H19 O3 1_555 1_555
H20 C15 1_555 1_555
H21 C16 1_555 1_555
H22 C17 1_555 1_555
H23 C18 1_555 1_555
H24 C20 1_555 1_555
H25 C20 1_555 1_555
C15A C17A 1_555 1_555
C16A C18A 1_555 1_555
C17A C19A 1_555 1_555
C18A C19A 1_555 1_555
C19A C20A 1_555 1_555
C20A C21 1_555 1_555
N1A C15A 1_555 1_555
H20A C15A 1_555 1_555
H21A C16A 1_555 1_555
H22A C17A 1_555 1_555
H23A C18A 1_555 1_555
H24A C20A 1_555 1_555
H25A C20A 1_555 1_555
H26A C21 1_555 1_555
C1D C2D 1_555 1_555
C2D C3D 1_555 1_555
C3D C4D 1_555 1_555
C4D C5D 1_555 1_555
C5D C6D 1_555 1_555
C6D C7D 1_555 1_555
C7D C8D 1_555 1_555
C8D C3D 1_555 1_555
C9D C7D 1_555 1_555
C10D C9D 1_555 1_555
C11D C3D 1_555 1_555
C12D C5D 1_555 1_555
C13D C7D 1_555 1_555
C14D C13D 1_555 1_555
O1D Cu1 1_555 1_555
O2D Cu1 1_555 1_555
O3D C14D 1_555 1_555
O4D C14D 1_555 1_555
H1D C2D 1_555 1_555
H2D C2D 1_555 1_555
H3D C4D 1_555 1_555
H4D C4D 1_555 1_555
H5D C5D 1_555 1_555
H6D C6D 1_555 1_555
H7D C6D 1_555 1_555
H8D C8D 1_555 1_555
H9D C8D 1_555 1_555
H10D C9D 1_555 1_555
H11D C9D 1_555 1_555
H12D C10D 1_555 1_555
H13D C11D 1_555 1_555
H14D C11D 1_555 1_555
H15D C12D 1_555 1_555
H16D C12D 1_555 1_555
H17D C13D 1_555 1_555
H18D C13D 1_555 1_555
H19D O3D 1_555 1_555
N1D Cu1 1_555 1_555
Cu1A N1A 1_555 1_555
C10 C11 1_555 1_555
C10 C12 1_555 1_555
C16 N1 1_555 1_555
O1 Cu1 1_555 1_555
O2 Cu1 1_555 1_555
C16A N1A 1_555 1_555
C1D O1D 1_555 1_555
C1D O2D 1_555 1_555
C10D C11D 1_555 1_555
C10D C12D 1_555 1_555

#END
