
#######################################################################
#
#                 Cambridge Crystallographic Data Centre
#                                CCDC 
#
#######################################################################
#
# If this CIF has been generated from an entry in the Cambridge 
# Structural Database, then it will include bibliographic, chemical, 
# crystal, experimental, refinement or atomic coordinate data resulting 
# from the CCDC's data processing and validation procedures.
#
#######################################################################

data_FOJLOH
_symmetry_cell_setting           monoclinic
_symmetry_space_group_name_H-M   'C 2/c'
_symmetry_Int_Tables_number      15
_space_group_name_Hall           '-C 2yn'
loop_
_symmetry_equiv_pos_site_id
_symmetry_equiv_pos_as_xyz
1 x,y,z
2 -x,y,1/2-z
3 1/2+x,1/2+y,z
4 1/2-x,1/2+y,1/2-z
5 -x,-y,-z
6 x,-y,1/2+z
7 1/2-x,1/2-y,-z
8 1/2+x,1/2-y,1/2+z
_cell_length_a                   36.991(14)
_cell_length_b                   8.394(3)
_cell_length_c                   36.940(15)
_cell_angle_alpha                90
_cell_angle_beta                 116.750(5)
_cell_angle_gamma                90
_cell_volume                     10242.4
loop_
_atom_site_label
_atom_site_type_symbol
_atom_site_fract_x
_atom_site_fract_y
_atom_site_fract_z
Zn1 Zn 0.830746(17) 0.03267(7) 0.177017(16)
O1 O 0.59234(9) 0.1970(4) 0.02214(11)
O2 O 0.41362(13) 0.0465(4) -0.12169(10)
O3 O 0.42730(11) 0.3209(4) 0.02048(11)
O4 O 0.76270(12) -0.1237(5) 0.13257(14)
O5 O 0.77862(10) 0.1320(5) 0.14470(11)
O6 O 0.34648(13) -0.3625(5) -0.28289(12)
O7 O 0.3221(4) -0.4881(12) -0.2497(3)
O8 O 0.35552(13) 0.4597(5) 0.14270(13)
O9 O 0.3636(2) 0.7183(4) 0.1277(2)
O10 O 0.86066(13) 0.2210(5) 0.21049(13)
C1 C 0.50161(15) 0.1537(5) -0.05664(15)
C2 C 0.46296(14) 0.2197(5) -0.07809(13)
C3 C 0.44450(13) 0.3055(5) -0.05836(13)
C4 C 0.46558(12) 0.3270(5) -0.01622(12)
C5 C 0.50302(13) 0.2538(5) 0.00574(13)
C6 C 0.52061(13) 0.1622(5) -0.01515(14)
C7 C 0.5226(2) 0.0768(7) -0.0795(2)
H1 H 0.5050 0.0805 -0.1081
H2 H 0.5290 -0.0321 -0.0710
H3 H 0.5472 0.1336 -0.0737
C8 C 0.40203(16) 0.3698(6) -0.08151(17)
H4 H 0.3920 0.3453 -0.1098
H5 H 0.4023 0.4832 -0.0780
H6 H 0.3848 0.3217 -0.0714
C9 C 0.52452(16) 0.2696(6) 0.05139(14)
H7 H 0.5497 0.2130 0.0618
H8 H 0.5079 0.2257 0.0627
H9 H 0.5296 0.3801 0.0586
C10 C 0.56014(13) 0.0769(6) 0.00913(17)
H10 H 0.5599 0.0253 0.0325
H11 H 0.5644 -0.0037 -0.0074
C11 C 0.63061(14) 0.1438(6) 0.04721(14)
C12 C 0.65991(16) 0.2629(6) 0.06288(17)
H12 H 0.6529 0.3691 0.0563
C13 C 0.69953(17) 0.2209(6) 0.08839(17)
H13 H 0.7193 0.2996 0.0985
C14 C 0.71007(15) 0.0640(6) 0.09905(16)
C15 C 0.68069(17) -0.0530(6) 0.08166(17)
H14 H 0.6879 -0.1594 0.0878
C16 C 0.64167(17) -0.0154(6) 0.05589(18)
H15 H 0.6225 -0.0955 0.0442
C17 C 0.75348(17) 0.0149(6) 0.12749(17)
C18 C 0.43883(19) 0.1768(7) -0.12220(14)
H16 H 0.4565 0.1439 -0.1339
H17 H 0.4225 0.2661 -0.1376
C19 C 0.39647(19) -0.0510(6) -0.15538(15)
C20 C 0.3759(2) -0.1826(8) -0.1507(2)
H18 H 0.3732 -0.1970 -0.1271
C21 C 0.3598(3) -0.2894(9) -0.1818(2)
H19 H 0.3476 -0.3810 -0.1784
C22 C 0.36119(19) -0.2664(9) -0.21777(19)
C23 C 0.3801(2) -0.1354(9) -0.22235(17)
H20 H 0.3813 -0.1191 -0.2467
C24 C 0.3976(2) -0.0259(8) -0.19150(18)
H21 H 0.4102 0.0644 -0.1952
C25 C 0.3437(3) -0.3857(14) -0.2522(3)
C26 C 0.44799(15) 0.4251(5) 0.00534(15)
H22 H 0.4693 0.4820 0.0276
H23 H 0.4292 0.5024 -0.0131
C27 C 0.41323(17) 0.3905(6) 0.04511(18)
C28 C 0.41233(19) 0.5524(6) 0.05169(18)
H24 H 0.4225 0.6241 0.0393
C29 C 0.3962(2) 0.6073(7) 0.0769(2)
H25 H 0.3945 0.7163 0.0804
C30 C 0.3824(2) 0.4996(6) 0.0971(2)
C31 C 0.3828(3) 0.3421(8) 0.0902(3)
H26 H 0.3723 0.2710 0.1024
C32 C 0.3989(2) 0.2844(6) 0.0646(2)
H27 H 0.3999 0.1753 0.0607
C33 C 0.3662(2) 0.5633(7) 0.1254(2)
H28 H 0.8763 0.2901 0.2277
H29 H 0.8393 0.2717 0.1947
H30 H 0.3790 0.8033 0.1214
Zn1B Zn 0.330746(17) 0.53267(7) 0.177017(16)
Zn1G Zn 0.330746(17) -0.53267(7) -0.322983(16)
O6G O 0.84648(13) -0.1375(5) 0.21711(12)
O8B O 0.85552(13) -0.0403(5) 0.14270(13)
loop_
_geom_bond_atom_site_label_1
_geom_bond_atom_site_label_2
_geom_bond_site_symmetry_1
_geom_bond_site_symmetry_2
Zn1 O5 1_555 1_555
O1 C10 1_555 1_555
O2 C18 1_555 1_555
O3 C26 1_555 1_555
O4 C17 1_555 1_555
O5 C17 1_555 1_555
O6 C25 1_555 1_555
O7 C25 1_555 1_555
O8 C33 1_555 1_555
O9 C33 1_555 1_555
O10 Zn1 1_555 1_555
C1 C2 1_555 1_555
C2 C3 1_555 1_555
C3 C4 1_555 1_555
C4 C5 1_555 1_555
C5 C6 1_555 1_555
C6 C1 1_555 1_555
C7 C1 1_555 1_555
H1 C7 1_555 1_555
H2 C7 1_555 1_555
H3 C7 1_555 1_555
C8 C3 1_555 1_555
H4 C8 1_555 1_555
H5 C8 1_555 1_555
H6 C8 1_555 1_555
C9 C5 1_555 1_555
H7 C9 1_555 1_555
H8 C9 1_555 1_555
H9 C9 1_555 1_555
C10 C6 1_555 1_555
H10 C10 1_555 1_555
H11 C10 1_555 1_555
C11 O1 1_555 1_555
C12 C11 1_555 1_555
H12 C12 1_555 1_555
C13 C12 1_555 1_555
H13 C13 1_555 1_555
C14 C13 1_555 1_555
C15 C14 1_555 1_555
H14 C15 1_555 1_555
C16 C11 1_555 1_555
H15 C16 1_555 1_555
C17 C14 1_555 1_555
C18 C2 1_555 1_555
H16 C18 1_555 1_555
H17 C18 1_555 1_555
C19 O2 1_555 1_555
C20 C19 1_555 1_555
H18 C20 1_555 1_555
C21 C20 1_555 1_555
H19 C21 1_555 1_555
C22 C21 1_555 1_555
C23 C22 1_555 1_555
H20 C23 1_555 1_555
C24 C19 1_555 1_555
H21 C24 1_555 1_555
C25 C22 1_555 1_555
C26 C4 1_555 1_555
H22 C26 1_555 1_555
H23 C26 1_555 1_555
C27 O3 1_555 1_555
C28 C27 1_555 1_555
H24 C28 1_555 1_555
C29 C28 1_555 1_555
H25 C29 1_555 1_555
C30 C29 1_555 1_555
C31 C30 1_555 1_555
H26 C31 1_555 1_555
C32 C27 1_555 1_555
H27 C32 1_555 1_555
C33 C30 1_555 1_555
H28 O10 1_555 1_555
H29 O10 1_555 1_555
H30 O9 1_555 1_555
Zn1B O8 1_555 1_555
Zn1G O6 1_555 1_555
O6G Zn1 1_555 1_555
O8B Zn1 1_555 1_555
C15 C16 1_555 1_555
C23 C24 1_555 1_555
C31 C32 1_555 1_555

#END
