
#######################################################################
#
#                 Cambridge Crystallographic Data Centre
#                                CCDC 
#
#######################################################################
#
# If this CIF has been generated from an entry in the Cambridge 
# Structural Database, then it will include bibliographic, chemical, 
# crystal, experimental, refinement or atomic coordinate data resulting 
# from the CCDC's data processing and validation procedures.
#
#######################################################################

data_FOJLUN
_symmetry_cell_setting           triclinic
_symmetry_space_group_name_H-M   'P -1'
_symmetry_Int_Tables_number      2
_space_group_name_Hall           '-P 1'
loop_
_symmetry_equiv_pos_site_id
_symmetry_equiv_pos_as_xyz
1 x,y,z
2 -x,-y,-z
_cell_length_a                   14.275(5)
_cell_length_b                   18.902(5)
_cell_length_c                   19.667(7)
_cell_angle_alpha                67.586(16)
_cell_angle_beta                 85.46(2)
_cell_angle_gamma                68.972(16)
_cell_volume                     4568.83
loop_
_atom_site_label
_atom_site_type_symbol
_atom_site_fract_x
_atom_site_fract_y
_atom_site_fract_z
Cd1 Cd 0.77002(3) 0.49001(2) 0.099696(19)
O1 O 0.8907(2) 0.6749(2) 0.3932(2)
O2 O 0.8874(2) 0.7129(3) 0.66115(19)
O3 O 0.9499(2) 0.9907(2) 0.36687(18)
O4 O 0.7157(3) 0.5598(2) 0.1837(2)
O5 O 0.8702(3) 0.5381(2) 0.1481(2)
O6 O 0.8744(3) 0.5100(2) 1.00063(19)
O7 O 0.7200(3) 0.5987(3) 0.9796(2)
O8 O 0.7900(3) 1.3783(2) 0.2080(2)
O9 O 0.8624(3) 1.3444(2) 0.1162(2)
O10 O 0.6197(3) 0.4776(3) 0.0874(2)
N1 N 0.5528(4) 0.3812(3) 0.1030(4)
C1 C 0.9723(3) 0.7389(3) 0.4381(3)
C2 C 0.9914(3) 0.6992(3) 0.5149(3)
C3 C 0.9783(3) 0.7459(3) 0.5577(3)
C4 C 0.9485(3) 0.8304(3) 0.5255(3)
C5 C 0.9217(3) 0.8701(3) 0.4498(2)
C6 C 0.9343(3) 0.8233(3) 0.4063(3)
C7 C 1.0223(4) 0.6060(3) 0.5507(3)
H1 H 1.0274 0.5842 0.5131
H2 H 0.9726 0.5921 0.5836
H3 H 1.0862 0.5831 0.5778
C8 C 0.9409(4) 0.8816(4) 0.5712(3)
H4 H 0.9186 0.9385 0.5396
H5 H 1.0057 0.8659 0.5945
H6 H 0.8937 0.8726 0.6081
C9 C 0.9064(4) 0.8664(3) 0.3225(3)
H7 H 0.8816 0.9247 0.3090
H8 H 0.8554 0.8505 0.3100
H9 H 0.9650 0.8507 0.2964
C10 C 0.9842(4) 0.6896(3) 0.3915(3)
H10 H 0.9962 0.7197 0.3413
H11 H 1.0403 0.6382 0.4112
C11 C 0.8790(4) 0.6397(3) 0.3476(3)
C12 C 0.7822(4) 0.6358(4) 0.3450(3)
H12 H 0.7346 0.6520 0.3765
C13 C 0.7592(4) 0.6081(4) 0.2960(3)
H13 H 0.6954 0.6060 0.2941
C14 C 0.8303(4) 0.5828(3) 0.2483(3)
C15 C 0.9257(4) 0.5821(3) 0.2558(3)
H14 H 0.9751 0.5609 0.2278
C16 C 0.9511(3) 0.6115(3) 0.3032(3)
H15 H 1.0154 0.6124 0.3054
C17 C 0.8033(4) 0.5584(3) 0.1903(3)
C18 C 0.9899(4) 0.7034(3) 0.6412(3)
H16 H 1.0321 0.6461 0.6563
H17 H 1.0186 0.7297 0.6633
C19 C 0.8728(4) 0.6773(4) 0.7332(3)
C20 C 0.7735(4) 0.6871(4) 0.7501(3)
H18 H 0.7223 0.7153 0.7127
C21 C 0.7510(4) 0.6545(4) 0.8231(3)
H19 H 0.6845 0.6617 0.8341
C22 C 0.8271(4) 0.6109(3) 0.8802(3)
C23 C 0.9246(4) 0.6016(3) 0.8619(3)
H20 H 0.9764 0.5712 0.8988
C24 C 0.9478(4) 0.6369(3) 0.7888(3)
H21 H 1.0137 0.6329 0.7781
C25 C 0.8057(4) 0.5717(4) 0.9578(3)
C26 C 0.8770(3) 0.9620(3) 0.4146(3)
H22 H 0.8151 0.9787 0.3860
H23 H 0.8620 0.9852 0.4522
C27 C 0.9185(3) 1.0726(3) 0.3234(3)
C28 C 0.8351(3) 1.1310(3) 0.3368(3)
H24 H 0.7962 1.1160 0.3762
C29 C 0.8116(4) 1.2126(3) 0.2895(3)
H25 H 0.7561 1.2522 0.2981
C30 C 0.8684(4) 1.2371(3) 0.2296(3)
C31 C 0.9506(4) 1.1762(3) 0.2181(3)
H26 H 0.9885 1.1904 0.1779
C32 C 0.9765(4) 1.0967(3) 0.2646(3)
H27 H 1.0337 1.0576 0.2571
C33 C 0.8377(4) 1.3261(4) 0.1814(3)
C34 C 0.6066(4) 0.4274(4) 0.0651(3)
C35 C 0.6496(5) 0.4207(4) -0.0054(4)
H28 H 0.6330 0.3802 -0.0148
H29 H 0.7214 0.4049 -0.0011
H30 H 0.6219 0.4727 -0.0454
C36 C 0.5107(6) 0.3888(6) 0.1724(4)
H31 H 0.4746 0.3521 0.1931
H32 H 0.4657 0.4441 0.1621
H33 H 0.5644 0.3753 0.2068
C37 C 0.5277(5) 0.3284(5) 0.0764(6)
H34 H 0.4896 0.3006 0.1117
H35 H 0.5884 0.2889 0.0695
H36 H 0.4884 0.3607 0.0303
Cd1_2 Cd 0.77002(3) 0.49001(2) 1.099696(19)
Cd1_3 Cd 0.77002(3) 1.49001(2) 0.099696(19)
O6_2 O 0.8744(3) 0.5100(2) 0.00063(19)
O7_2 O 0.7200(3) 0.5987(3) -0.0204(2)
O8_2 O 0.7900(3) 0.3783(2) 0.2080(2)
O9_2 O 0.8624(3) 0.3444(2) 0.1162(2)
Cd2 Cd 0.81083(3) 0.27206(2) 0.793404(19)
O11 O 0.6917(2) 0.0823(2) 0.5008(2)
O12 O 0.6749(3) 0.0703(3) 0.23006(19)
O13 O 0.6257(2) -0.2323(2) 0.5208(2)
O14 O 0.8402(3) 0.1999(2) 0.7197(2)
O15 O 0.6794(3) 0.2737(3) 0.7095(2)
O16 O 0.8248(2) -0.6112(2) 0.7169(2)
O17 O 0.6770(3) -0.5853(2) 0.7624(2)
O18 O 0.8213(4) 0.2527(3) -0.0772(2)
O19 O 0.7246(3) 0.2066(3) -0.1147(2)
O20 O 0.9859(3) 0.2198(3) 0.8170(2)
N2 N 1.1387(6) 0.1372(5) 0.8690(5)
C38 C 0.6077(3) 0.0251(3) 0.4488(2)
C39 C 0.5884(4) 0.0605(3) 0.3713(3)
C40 C 0.5980(3) 0.0089(3) 0.3333(3)
C41 C 0.6301(3) -0.0764(3) 0.3697(3)
C42 C 0.6560(3) -0.1111(3) 0.4450(3)
C43 C 0.6451(3) -0.0603(3) 0.4852(2)
C44 C 0.5561(4) 0.1512(3) 0.3302(3)
H37 H 0.5527 0.1772 0.3643
H38 H 0.4910 0.1712 0.3055
H39 H 0.6038 0.1633 0.2946
C45 C 0.6335(4) -0.1314(4) 0.3289(3)
H40 H 0.6571 -0.1875 0.3627
H41 H 0.6784 -0.1242 0.2899
H42 H 0.5673 -0.1171 0.3085
C46 C 0.6705(4) -0.0987(3) 0.5676(3)
H43 H 0.6944 -0.1573 0.5835
H44 H 0.6114 -0.0808 0.5925
H45 H 0.7217 -0.0824 0.5791
C47 C 0.5941(3) 0.0785(3) 0.4915(3)
H46 H 0.5461 0.1329 0.4650
H47 H 0.5692 0.0555 0.5392
C48 C 0.7005(4) 0.1205(3) 0.5462(3)
C49 C 0.6189(4) 0.1689(3) 0.5714(3)
H48 H 0.5535 0.1783 0.5573
C50 C 0.6367(4) 0.2027(3) 0.6178(3)
H49 H 0.5822 0.2360 0.6340
C51 C 0.7329(4) 0.1888(3) 0.6410(3)
C52 C 0.8137(4) 0.1416(3) 0.6139(3)
H50 H 0.8790 0.1323 0.6281
C53 C 0.7982(4) 0.1088(3) 0.5667(3)
H51 H 0.8528 0.0784 0.5481
C54 C 0.7525(4) 0.2234(3) 0.6939(3)
C55 C 0.5874(4) 0.0467(4) 0.2496(3)
H52 H 0.5877 0.0073 0.2292
H53 H 0.5258 0.0941 0.2321
C56 C 0.6879(4) 0.1066(4) 0.1563(3)
C57 C 0.6319(5) 0.1131(4) 0.0978(3)
H54 H 0.5786 0.0941 0.1063
C58 C 0.6571(5) 0.1479(4) 0.0279(3)
H55 H 0.6215 0.1511 -0.0114
C59 C 0.7345(4) 0.1789(3) 0.0136(3)
C60 C 0.7843(5) 0.1774(4) 0.0708(3)
H56 H 0.8322 0.2023 0.0616
C61 C 0.7634(5) 0.1388(4) 0.1429(3)
H57 H 0.8003 0.1346 0.1820
C62 C 0.7625(4) 0.2172(3) -0.0655(3)
C63 C 0.7037(4) -0.2028(3) 0.4845(3)
H58 H 0.7331 -0.2282 0.4495
H59 H 0.7564 -0.2160 0.5204
C64 C 0.6579(3) -0.3132(3) 0.5672(3)
C65 C 0.5854(4) -0.3405(3) 0.6091(3)
H60 H 0.5193 -0.3045 0.6037
C66 C 0.6111(4) -0.4206(3) 0.6586(3)
H61 H 0.5626 -0.4381 0.6873
C67 C 0.7085(4) -0.4746(3) 0.6654(3)
C68 C 0.7798(4) -0.4476(3) 0.6234(3)
H62 H 0.8456 -0.4840 0.6282
C69 C 0.7555(4) -0.3676(3) 0.5741(3)
H63 H 0.8044 -0.3503 0.5458
C70 C 0.7380(4) -0.5628(4) 0.7191(3)
C71 C 1.0383(7) 0.1508(6) 0.8530(5)
C72 C 1.0021(8) 0.0746(6) 0.8794(6)
H64 H 1.0569 0.0255 0.9061
H65 H 0.9799 0.0695 0.8372
H66 H 0.9475 0.0827 0.9108
C73 C 1.1817(8) 0.2027(6) 0.8463(6)
H67 H 1.2512 0.1794 0.8638
H68 H 1.1454 0.2426 0.8670
H69 H 1.1763 0.2286 0.7935
C74 C 1.2091(11) 0.0501(7) 0.9054(10)
H70 H 1.2748 0.0494 0.9137
H71 H 1.2128 0.0209 0.8741
H72 H 1.1846 0.0243 0.9517
Cd2_2 Cd 0.81083(3) -0.72794(2) 0.793404(19)
Cd2_3 Cd 0.81083(3) 0.27206(2) -0.206596(19)
O16_2 O 0.8248(2) 0.3888(2) 0.7169(2)
O17_2 O 0.6770(3) 0.4147(2) 0.7624(2)
O18_2 O 0.8213(4) 0.2527(3) 0.9228(2)
O19_2 O 0.7246(3) 0.2066(3) 0.8853(2)
N3 N 0.4911(5) 0.6358(6) 0.2113(4)
H73 H 0.4323 0.6368 0.2319
H74 H 0.5405 0.5916 0.2413
C75 C 0.4882(5) 0.6303(5) 0.1383(5)
H75 H 0.4778 0.5808 0.1444
H76 H 0.5508 0.6297 0.1162
H77 H 0.4341 0.6767 0.1069
C76 C 0.5092(6) 0.7108(7) 0.2024(6)
H78 H 0.5100 0.7146 0.2497
H79 H 0.4566 0.7578 0.1703
H80 H 0.5728 0.7089 0.1816
N4 N 0.9914(4) 0.3980(3) 0.9412(3)
H81 H 0.9627 0.4357 0.9613
H82 H 1.0323 0.4161 0.9073
C77 C 1.0518(6) 0.3194(4) 0.9996(4)
H83 H 1.1021 0.3277 1.0223
H84 H 1.0840 0.2795 0.9781
H85 H 1.0086 0.3002 1.0361
C78 C 0.9126(5) 0.3890(5) 0.9049(5)
H86 H 0.8756 0.4408 0.8674
H87 H 0.8678 0.3711 0.9407
H88 H 0.9430 0.3493 0.8830
loop_
_geom_bond_atom_site_label_1
_geom_bond_atom_site_label_2
_geom_bond_site_symmetry_1
_geom_bond_site_symmetry_2
Cd1 O4 1_555 1_555
O1 C10 1_555 1_555
O2 C18 1_555 1_555
O3 C26 1_555 1_555
O4 C17 1_555 1_555
O5 Cd1 1_555 1_555
O6 C25 1_555 1_555
O7 C25 1_555 1_555
O8 C33 1_555 1_555
O9 C33 1_555 1_555
O10 Cd1 1_555 1_555
N1 C34 1_555 1_555
C1 C2 1_555 1_555
C2 C3 1_555 1_555
C3 C4 1_555 1_555
C4 C5 1_555 1_555
C5 C6 1_555 1_555
C6 C1 1_555 1_555
C7 C2 1_555 1_555
H1 C7 1_555 1_555
H2 C7 1_555 1_555
H3 C7 1_555 1_555
C8 C4 1_555 1_555
H4 C8 1_555 1_555
H5 C8 1_555 1_555
H6 C8 1_555 1_555
C9 C6 1_555 1_555
H7 C9 1_555 1_555
H8 C9 1_555 1_555
H9 C9 1_555 1_555
C10 C1 1_555 1_555
H10 C10 1_555 1_555
H11 C10 1_555 1_555
C11 O1 1_555 1_555
C12 C11 1_555 1_555
H12 C12 1_555 1_555
C13 C12 1_555 1_555
H13 C13 1_555 1_555
C14 C13 1_555 1_555
C15 C14 1_555 1_555
H14 C15 1_555 1_555
C16 C11 1_555 1_555
H15 C16 1_555 1_555
C17 O5 1_555 1_555
C18 C3 1_555 1_555
H16 C18 1_555 1_555
H17 C18 1_555 1_555
C19 O2 1_555 1_555
C20 C19 1_555 1_555
H18 C20 1_555 1_555
C21 C20 1_555 1_555
H19 C21 1_555 1_555
C22 C21 1_555 1_555
C23 C22 1_555 1_555
H20 C23 1_555 1_555
C24 C19 1_555 1_555
H21 C24 1_555 1_555
C25 C22 1_555 1_555
C26 C5 1_555 1_555
H22 C26 1_555 1_555
H23 C26 1_555 1_555
C27 O3 1_555 1_555
C28 C27 1_555 1_555
H24 C28 1_555 1_555
C29 C28 1_555 1_555
H25 C29 1_555 1_555
C30 C29 1_555 1_555
C31 C30 1_555 1_555
H26 C31 1_555 1_555
C32 C27 1_555 1_555
H27 C32 1_555 1_555
C33 C30 1_555 1_555
C34 O10 1_555 1_555
C35 C34 1_555 1_555
H28 C35 1_555 1_555
H29 C35 1_555 1_555
H30 C35 1_555 1_555
C36 N1 1_555 1_555
H31 C36 1_555 1_555
H32 C36 1_555 1_555
H33 C36 1_555 1_555
C37 N1 1_555 1_555
H34 C37 1_555 1_555
H35 C37 1_555 1_555
H36 C37 1_555 1_555
Cd2 O14 1_555 1_555
O11 C47 1_555 1_555
O12 C55 1_555 1_555
O13 C63 1_555 1_555
O14 C54 1_555 1_555
O15 Cd2 1_555 1_555
O16 C70 1_555 1_555
O17 C70 1_555 1_555
O18 C62 1_555 1_555
O19 C62 1_555 1_555
O20 Cd2 1_555 1_555
N2 C71 1_555 1_555
C38 C39 1_555 1_555
C39 C40 1_555 1_555
C40 C41 1_555 1_555
C41 C42 1_555 1_555
C42 C43 1_555 1_555
C43 C38 1_555 1_555
C44 C39 1_555 1_555
H37 C44 1_555 1_555
H38 C44 1_555 1_555
H39 C44 1_555 1_555
C45 C41 1_555 1_555
H40 C45 1_555 1_555
H41 C45 1_555 1_555
H42 C45 1_555 1_555
C46 C43 1_555 1_555
H43 C46 1_555 1_555
H44 C46 1_555 1_555
H45 C46 1_555 1_555
C47 C38 1_555 1_555
H46 C47 1_555 1_555
H47 C47 1_555 1_555
C48 O11 1_555 1_555
C49 C48 1_555 1_555
H48 C49 1_555 1_555
C50 C49 1_555 1_555
H49 C50 1_555 1_555
C51 C50 1_555 1_555
C52 C51 1_555 1_555
H50 C52 1_555 1_555
C53 C48 1_555 1_555
H51 C53 1_555 1_555
C54 O15 1_555 1_555
C55 C40 1_555 1_555
H52 C55 1_555 1_555
H53 C55 1_555 1_555
C56 O12 1_555 1_555
C57 C56 1_555 1_555
H54 C57 1_555 1_555
C58 C57 1_555 1_555
H55 C58 1_555 1_555
C59 C58 1_555 1_555
C60 C59 1_555 1_555
H56 C60 1_555 1_555
C61 C56 1_555 1_555
H57 C61 1_555 1_555
C62 C59 1_555 1_555
C63 C42 1_555 1_555
H58 C63 1_555 1_555
H59 C63 1_555 1_555
C64 O13 1_555 1_555
C65 C64 1_555 1_555
H60 C65 1_555 1_555
C66 C65 1_555 1_555
H61 C66 1_555 1_555
C67 C66 1_555 1_555
C68 C67 1_555 1_555
H62 C68 1_555 1_555
C69 C64 1_555 1_555
H63 C69 1_555 1_555
C70 C67 1_555 1_555
C71 O20 1_555 1_555
C72 C71 1_555 1_555
H64 C72 1_555 1_555
H65 C72 1_555 1_555
H66 C72 1_555 1_555
C73 N2 1_555 1_555
H67 C73 1_555 1_555
H68 C73 1_555 1_555
H69 C73 1_555 1_555
C74 N2 1_555 1_555
H70 C74 1_555 1_555
H71 C74 1_555 1_555
H72 C74 1_555 1_555
N3 H73 1_555 1_555
H74 N3 1_555 1_555
C75 N3 1_555 1_555
H75 C75 1_555 1_555
H76 C75 1_555 1_555
H77 C75 1_555 1_555
C76 N3 1_555 1_555
H78 C76 1_555 1_555
H79 C76 1_555 1_555
H80 C76 1_555 1_555
N4 H81 1_555 1_555
H82 N4 1_555 1_555
C77 N4 1_555 1_555
H83 C77 1_555 1_555
H84 C77 1_555 1_555
H85 C77 1_555 1_555
C78 N4 1_555 1_555
H86 C78 1_555 1_555
H87 C78 1_555 1_555
H88 C78 1_555 1_555
Cd1_2 O6 1_555 1_555
Cd1_3 O8 1_555 1_555
O6_2 Cd1 1_555 1_555
O7_2 Cd1 1_555 1_555
O8_2 Cd1 1_555 1_555
O9_2 Cd1 1_555 1_555
Cd2_2 O16 1_555 1_555
Cd2_3 O18 1_555 1_555
O16_2 Cd2 1_555 1_555
O17_2 Cd2 1_555 1_555
O18_2 Cd2 1_555 1_555
O19_2 Cd2 1_555 1_555
O7 Cd1_2 1_555 1_555
O9 Cd1_3 1_555 1_555
C14 C17 1_555 1_555
C15 C16 1_555 1_555
C23 C24 1_555 1_555
C31 C32 1_555 1_555
O17 Cd2_2 1_555 1_555
O19 Cd2_3 1_555 1_555
C51 C54 1_555 1_555
C52 C53 1_555 1_555
C60 C61 1_555 1_555
C68 C69 1_555 1_555

#END
