
#######################################################################
#
#                 Cambridge Crystallographic Data Centre
#                                CCDC 
#
#######################################################################
#
# If this CIF has been generated from an entry in the Cambridge 
# Structural Database, then it will include bibliographic, chemical, 
# crystal, experimental, refinement or atomic coordinate data resulting 
# from the CCDC's data processing and validation procedures.
#
#######################################################################

data_FOJPEB
_symmetry_cell_setting           orthorhombic
_symmetry_space_group_name_H-M   'F d d d'
_symmetry_Int_Tables_number      70
_space_group_name_Hall           '-F 2uv 2vw'
loop_
_symmetry_equiv_pos_site_id
_symmetry_equiv_pos_as_xyz
1 x,y,z
2 3/4-x,3/4-y,z
3 3/4-x,y,3/4-z
4 x,3/4-y,3/4-z
5 x,1/2+y,1/2+z
6 3/4-x,1/4-y,1/2+z
7 3/4-x,1/2+y,1/4-z
8 x,1/4-y,1/4-z
9 1/2+x,y,1/2+z
10 1/4-x,3/4-y,1/2+z
11 1/4-x,y,1/4-z
12 1/2+x,3/4-y,1/4-z
13 1/2+x,1/2+y,z
14 1/4-x,1/4-y,z
15 1/4-x,1/2+y,3/4-z
16 1/2+x,1/4-y,3/4-z
17 -x,-y,-z
18 1/4+x,1/4+y,-z
19 1/4+x,-y,1/4+z
20 -x,1/4+y,1/4+z
21 -x,1/2-y,1/2-z
22 1/4+x,3/4+y,1/2-z
23 1/4+x,1/2-y,3/4+z
24 -x,3/4+y,3/4+z
25 1/2-x,-y,1/2-z
26 3/4+x,1/4+y,1/2-z
27 3/4+x,-y,3/4+z
28 1/2-x,1/4+y,3/4+z
29 1/2-x,1/2-y,-z
30 3/4+x,3/4+y,-z
31 3/4+x,1/2-y,1/4+z
32 1/2-x,3/4+y,1/4+z
_cell_length_a                   13.529(3)
_cell_length_b                   32.896(8)
_cell_length_c                   39.785(9)
_cell_angle_alpha                90
_cell_angle_beta                 90
_cell_angle_gamma                90
_cell_volume                     17706.3
loop_
_atom_site_label
_atom_site_type_symbol
_atom_site_fract_x
_atom_site_fract_y
_atom_site_fract_z
Cd1 Cd 0.00907(4) 0.694498(15) 0.260539(11)
N1 N 0.2349(4) 0.69912(17) 0.28652(14)
N2 N 0.0117(5) 0.66765(18) 0.20671(13)
O1 O 0.0979(4) 0.75518(15) 0.25421(12)
O2 O 0.2031(5) 0.80314(18) 0.26396(17)
O3 O 0.1763(4) 0.67984(14) 0.26554(11)
O4 O 0.3050(4) 0.61407(15) 0.27843(12)
O5 O 0.2402(4) 0.54339(15) 0.31663(12)
C1 C 0.1772(6) 0.7683(2) 0.26667(18)
C2 C 0.2419(6) 0.7407(2) 0.28755(18)
C3 C 0.3095(6) 0.7588(3) 0.3090(2)
H1 H 0.3158 0.7869 0.3090
C4 C 0.3675(7) 0.7359(3) 0.3301(3)
H2 H 0.4120 0.7482 0.3448
C5 C 0.3576(7) 0.6942(3) 0.3289(2)
H3 H 0.3969 0.6783 0.3428
C6 C 0.2918(6) 0.6756(2) 0.30788(17)
C7 C 0.2799(5) 0.6305(2) 0.30623(17)
C8 C 0.2503(5) 0.6117(2) 0.33528(18)
H4 H 0.2393 0.6282 0.3539
C9 C 0.2348(6) 0.5696(2) 0.33965(17)
C10 C 0.2104(6) 0.5537(3) 0.37355(19)
C11 C 0.2457(7) 0.5726(4) 0.4022(2)
H5 H 0.2810 0.5967 0.4003
C12 C 0.0180(6) 0.6910(2) 0.17949(18)
H6 H 0.0245 0.7190 0.1823
C13 C 0.0151(6) 0.6754(2) 0.14716(17)
H7 H 0.0218 0.6927 0.1288
C14 C 0.0022(6) 0.6340(2) 0.14215(16)
C15 C -0.0055(6) 0.6101(2) 0.17100(18)
H8 H -0.0145 0.5822 0.1691
C16 C 0.0001(6) 0.6277(2) 0.20234(18)
H9 H -0.0043 0.6111 0.2212
C17 C 0.1711(10) 0.5224(5) 0.4369(2)
H10 H 0.1567 0.5126 0.4583
C18 C 0.1534(7) 0.5187(3) 0.3764(2)
H11 H 0.1288 0.5062 0.3572
C19 C 0.1329(8) 0.5023(3) 0.4083(2)
H12 H 0.0951 0.4788 0.4105
C20 C 0.2295(10) 0.5562(4) 0.4333(3)
H13 H 0.2582 0.5680 0.4521
N2G N 0.0117(5) 0.58235(18) 0.04329(13)
C12G C 0.0180(6) 0.5590(2) 0.07051(18)
H6G H 0.0245 0.5310 0.0677
C13G C 0.0151(6) 0.5746(2) 0.10284(17)
H7G H 0.0218 0.5573 0.1212
C14G C 0.0022(6) 0.6160(2) 0.10785(16)
C15G C -0.0055(6) 0.6399(2) 0.07900(18)
H8G H -0.0145 0.6678 0.0809
C16G C 0.0001(6) 0.6223(2) 0.04766(18)
H9G H -0.0043 0.6389 0.0288
Cd1G Cd 0.00907(4) 0.555502(15) -0.010539(11)
N1G N 0.2349(4) 0.55088(17) -0.03652(14)
O1G O 0.0979(4) 0.49482(15) -0.00421(12)
O2G O 0.2031(5) 0.44686(18) -0.01396(17)
O3G O 0.1763(4) 0.57016(14) -0.01554(11)
O4G O 0.3050(4) 0.63593(15) -0.02843(12)
O5G O 0.2402(4) 0.70661(15) -0.06663(12)
C1G C 0.1772(6) 0.4817(2) -0.01667(18)
C2G C 0.2419(6) 0.5093(2) -0.03755(18)
C3G C 0.3095(6) 0.4912(3) -0.0590(2)
H1G H 0.3158 0.4631 -0.0590
C4G C 0.3675(7) 0.5141(3) -0.0801(3)
H2G H 0.4120 0.5018 -0.0948
C5G C 0.3576(7) 0.5558(3) -0.0789(2)
H3G H 0.3969 0.5717 -0.0928
C6G C 0.2918(6) 0.5744(2) -0.05788(17)
C7G C 0.2799(5) 0.6195(2) -0.05623(17)
C8G C 0.2503(5) 0.6383(2) -0.08528(18)
H4G H 0.2393 0.6218 -0.1039
C9G C 0.2348(6) 0.6804(2) -0.08965(17)
C10G C 0.2104(6) 0.6963(3) -0.12355(19)
C11G C 0.2457(7) 0.6774(4) -0.1522(2)
H5G H 0.2810 0.6533 -0.1503
C17G C 0.1711(10) 0.7276(5) -0.1869(2)
H10G H 0.1567 0.7374 -0.2083
C18G C 0.1534(7) 0.7313(3) -0.1264(2)
H11G H 0.1288 0.7438 -0.1072
C19G C 0.1329(8) 0.7477(3) -0.1583(2)
H12G H 0.0951 0.7712 -0.1605
C20G C 0.2295(10) 0.6938(4) -0.1833(3)
H13G H 0.2582 0.6820 -0.2021
Cd1J Cd 0.24093(4) 0.694498(15) -0.010539(11)
Cd1M Cd 0.24093(4) 0.555502(15) 0.260539(11)
Cd1T Cd -0.00907(4) 0.805502(15) 0.239461(11)
Cd1W Cd -0.00907(4) 0.444498(15) 0.010539(11)
O1T O -0.0979(4) 0.74482(15) 0.24579(12)
O1W O -0.0979(4) 0.50518(15) 0.00421(12)
O4J O -0.0550(4) 0.61407(15) -0.02843(12)
O4M O -0.0550(4) 0.63593(15) 0.27843(12)
O5J O 0.0098(4) 0.54339(15) -0.06663(12)
O5M O 0.0098(4) 0.70661(15) 0.31663(12)
C21 C 0.519(3) 0.6515(13) 0.2399(12)
O6 O 0.527(3) 0.6300(13) 0.2096(11)
O7? O 0.473(3) 0.6899(12) 0.2395(10)
loop_
_geom_bond_atom_site_label_1
_geom_bond_atom_site_label_2
_geom_bond_site_symmetry_1
_geom_bond_site_symmetry_2
Cd1 N2 1_555 1_555
N1 O3 1_555 1_555
N2 C12 1_555 1_555
O1 Cd1 1_555 1_555
O2 C1 1_555 1_555
O3 Cd1 1_555 1_555
O4 C7 1_555 1_555
O5 C9 1_555 1_555
C1 O1 1_555 1_555
C2 N1 1_555 1_555
C3 C2 1_555 1_555
H1 C3 1_555 1_555
C4 C3 1_555 1_555
H2 C4 1_555 1_555
C5 C4 1_555 1_555
H3 C5 1_555 1_555
C6 N1 1_555 1_555
C7 C6 1_555 1_555
C8 C7 1_555 1_555
H4 C8 1_555 1_555
C9 C8 1_555 1_555
C10 C9 1_555 1_555
C11 C10 1_555 1_555
H5 C11 1_555 1_555
C12 H6 1_555 1_555
C13 C12 1_555 1_555
H7 C13 1_555 1_555
C14 C13 1_555 1_555
C15 C14 1_555 1_555
H8 C15 1_555 1_555
C16 N2 1_555 1_555
H9 C16 1_555 1_555
C17 H10 1_555 1_555
C18 C10 1_555 1_555
H11 C18 1_555 1_555
C19 C17 1_555 1_555
H12 C19 1_555 1_555
C20 C11 1_555 1_555
H13 C20 1_555 1_555
C21 O6 1_555 1_555
N2G C12G 1_555 1_555
C12G H6G 1_555 1_555
C13G C12G 1_555 1_555
H7G C13G 1_555 1_555
C14G C14 1_555 1_555
C15G C14G 1_555 1_555
H8G C15G 1_555 1_555
C16G N2G 1_555 1_555
H9G C16G 1_555 1_555
Cd1G N2G 1_555 1_555
N1G O3G 1_555 1_555
O1G Cd1G 1_555 1_555
O2G C1G 1_555 1_555
O3G Cd1G 1_555 1_555
O4G C7G 1_555 1_555
O5G C9G 1_555 1_555
C1G O1G 1_555 1_555
C2G N1G 1_555 1_555
C3G C2G 1_555 1_555
H1G C3G 1_555 1_555
C4G C3G 1_555 1_555
H2G C4G 1_555 1_555
C5G C4G 1_555 1_555
H3G C5G 1_555 1_555
C6G N1G 1_555 1_555
C7G C6G 1_555 1_555
C8G C7G 1_555 1_555
H4G C8G 1_555 1_555
C9G C8G 1_555 1_555
C10G C9G 1_555 1_555
C11G C10G 1_555 1_555
H5G C11G 1_555 1_555
C17G H10G 1_555 1_555
C18G C10G 1_555 1_555
H11G C18G 1_555 1_555
C19G C17G 1_555 1_555
H12G C19G 1_555 1_555
C20G C11G 1_555 1_555
H13G C20G 1_555 1_555
Cd1J O4G 1_555 1_555
Cd1M O4 1_555 1_555
Cd1T O1 1_555 1_555
Cd1W O1G 1_555 1_555
O1T Cd1 1_555 1_555
O1W Cd1G 1_555 1_555
O4J Cd1G 1_555 1_555
O4M Cd1 1_555 1_555
O5J Cd1G 1_555 1_555
O5M Cd1 1_555 1_555
O5 Cd1M 1_555 1_555
C1 C2 1_555 1_555
C5 C6 1_555 1_555
C15 C16 1_555 1_555
C17 C20 1_555 1_555
C18 C19 1_555 1_555
C13G C14G 1_555 1_555
C15G C16G 1_555 1_555
O5G Cd1J 1_555 1_555
C1G C2G 1_555 1_555
C5G C6G 1_555 1_555
C17G C20G 1_555 1_555
C18G C19G 1_555 1_555
Cd1T O1T 1_555 1_555
Cd1W O1W 1_555 1_555

#END
