
#######################################################################
#
#                 Cambridge Crystallographic Data Centre
#                                CCDC 
#
#######################################################################
#
# If this CIF has been generated from an entry in the Cambridge 
# Structural Database, then it will include bibliographic, chemical, 
# crystal, experimental, refinement or atomic coordinate data resulting 
# from the CCDC's data processing and validation procedures.
#
#######################################################################

data_FOJPUR
_symmetry_cell_setting           triclinic
_symmetry_space_group_name_H-M   'P -1'
_symmetry_Int_Tables_number      2
_space_group_name_Hall           '-P 1'
loop_
_symmetry_equiv_pos_site_id
_symmetry_equiv_pos_as_xyz
1 x,y,z
2 -x,-y,-z
_cell_length_a                   7.0611(11)
_cell_length_b                   7.5483(12)
_cell_length_c                   15.581(3)
_cell_angle_alpha                85.764(2)
_cell_angle_beta                 86.509(2)
_cell_angle_gamma                68.312(2)
_cell_volume                     769.055
loop_
_atom_site_label
_atom_site_type_symbol
_atom_site_fract_x
_atom_site_fract_y
_atom_site_fract_z
Co1 Co 0.26627(6) 0.86920(5) 0.30675(2)
O1 O 0.3909(3) 0.6095(3) 0.36423(15)
O2 O 0.4815(3) 0.2987(3) 0.37547(14)
O3 O 0.1363(4) 0.2335(4) 0.29770(14)
O4 O 0.1850(3) 0.0360(3) 0.41134(14)
N1 N -0.0413(3) 0.8731(3) 0.31021(14)
N2 N -0.4283(3) 0.8653(3) 0.30003(14)
N3 N 0.2273(4) 0.8266(4) 0.18244(15)
N4 N 0.3394(4) 0.8017(4) 0.10754(16)
N5 N 0.0414(4) 0.7664(4) 0.08510(16)
N6 N 0.4033(5) 0.6810(4) -0.20831(17)
H1 H 0.4369 0.6671 -0.2621
C1 C -0.1711(4) 0.9057(4) 0.37795(17)
H2 H -0.1330 0.9358 0.4294
C2 C -0.3617(4) 0.8957(4) 0.37322(18)
H3 H -0.4455 0.9106 0.4227
C3 C -0.2980(4) 0.8329(4) 0.23082(18)
H4 H -0.3394 0.8091 0.1788
C4 C -0.1037(4) 0.8344(4) 0.23613(17)
C5 C 0.0518(4) 0.8055(4) 0.16639(18)
C6 C 0.2244(5) 0.7653(5) 0.05166(19)
C7 C 0.2310(6) 0.6655(6) -0.1791(2)
H5 H 0.1495 0.6379 -0.2167
C8 C 0.1700(6) 0.6893(6) -0.0947(2)
H6 H 0.0485 0.6769 -0.0747
C9 C 0.2900(5) 0.7319(5) -0.03899(19)
C10 C 0.4721(6) 0.7436(5) -0.0706(2)
H7 H 0.5572 0.7688 -0.0340
C11 C 0.5280(6) 0.7179(6) -0.1567(2)
H8 H 0.6502 0.7261 -0.1786
C12 C 0.1748(4) 0.4802(4) 0.44824(17)
C13 C 0.0651(4) 0.3619(4) 0.43828(17)
C14 C -0.1089(4) 0.3843(4) 0.49062(18)
H9 H -0.1822 0.3062 0.4842
C15 C 0.3625(4) 0.4614(4) 0.39218(17)
C16 C 0.1349(4) 0.2023(4) 0.37661(19)
O1A O -0.3909(3) 0.3905(3) 0.63577(15)
O2A O -0.4815(3) 0.7013(3) 0.62453(14)
O3A O -0.1363(4) 0.7665(4) 0.70230(14)
O4A O -0.1850(3) 0.9640(3) 0.58866(14)
C12A C -0.1748(4) 0.5198(4) 0.55176(17)
C13A C -0.0651(4) 0.6381(4) 0.56172(17)
C14A C 0.1089(4) 0.6157(4) 0.50938(18)
H9A H 0.1822 0.6938 0.5158
C15A C -0.3625(4) 0.5386(4) 0.60782(17)
C16A C -0.1349(4) 0.7977(4) 0.62339(19)
Co1A Co -0.26627(6) 0.13080(5) 0.69325(2)
N1A N 0.0413(3) 0.1269(3) 0.68979(14)
N2A N 0.4283(3) 0.1347(3) 0.69997(14)
N3A N -0.2273(4) 0.1734(4) 0.81756(15)
N4A N -0.3394(4) 0.1983(4) 0.89246(16)
N5A N -0.0414(4) 0.2336(4) 0.91490(16)
N6A N -0.4033(5) 0.3190(4) 1.20831(17)
H1A H -0.4369 0.3329 1.2621
C1A C 0.1711(4) 0.0943(4) 0.62205(17)
H2A H 0.1330 0.0642 0.5706
C2A C 0.3617(4) 0.1043(4) 0.62678(18)
H3A H 0.4455 0.0894 0.5773
C3A C 0.2980(4) 0.1671(4) 0.76918(18)
H4A H 0.3394 0.1909 0.8212
C4A C 0.1037(4) 0.1656(4) 0.76387(17)
C5A C -0.0518(4) 0.1945(4) 0.83361(18)
C6A C -0.2244(5) 0.2347(5) 0.94834(19)
C7A C -0.2310(6) 0.3345(6) 1.1791(2)
H5A H -0.1495 0.3621 1.2167
C8A C -0.1700(6) 0.3107(6) 1.0947(2)
H6A H -0.0485 0.3231 1.0747
C9A C -0.2900(5) 0.2681(5) 1.03899(19)
C10A C -0.4721(6) 0.2564(5) 1.0706(2)
H7A H -0.5572 0.2312 1.0340
C11A C -0.5280(6) 0.2821(6) 1.1567(2)
H8A H -0.6502 0.2739 1.1786
Co1_2 Co -0.73373(6) 0.86920(5) 0.30675(2)
Co1_3 Co 0.26627(6) -0.13080(5) 0.30675(2)
Co1A_2 Co -0.26627(6) 1.13080(5) 0.69325(2)
Co1A_3 Co 0.73373(6) 0.13080(5) 0.69325(2)
O4_2 O 0.1850(3) 1.0360(3) 0.41134(14)
O4A_2 O -0.1850(3) -0.0360(3) 0.58866(14)
N2_2 N 0.5717(3) 0.8653(3) 0.30003(14)
N2A_2 N -0.5717(3) 0.1347(3) 0.69997(14)
loop_
_geom_bond_atom_site_label_1
_geom_bond_atom_site_label_2
_geom_bond_site_symmetry_1
_geom_bond_site_symmetry_2
Co1 O1 1_555 1_555
O1 C15 1_555 1_555
O2 C15 1_555 1_555
O3 C16 1_555 1_555
O4 C16 1_555 1_555
N1 Co1 1_555 1_555
N2 C2 1_555 1_555
N3 Co1 1_555 1_555
N4 N3 1_555 1_555
N5 C5 1_555 1_555
N6 H1 1_555 1_555
C1 N1 1_555 1_555
H2 C1 1_555 1_555
C2 C1 1_555 1_555
H3 C2 1_555 1_555
C3 N2 1_555 1_555
H4 C3 1_555 1_555
C4 N1 1_555 1_555
C5 N3 1_555 1_555
C6 N4 1_555 1_555
C7 N6 1_555 1_555
H5 C7 1_555 1_555
C8 C7 1_555 1_555
H6 C8 1_555 1_555
C9 C6 1_555 1_555
C10 C9 1_555 1_555
H7 C10 1_555 1_555
C11 N6 1_555 1_555
H8 C11 1_555 1_555
C12 C13 1_555 1_555
C13 C14 1_555 1_555
C14 H9 1_555 1_555
C15 C12 1_555 1_555
C16 C13 1_555 1_555
O1A C15A 1_555 1_555
O2A C15A 1_555 1_555
O3A C16A 1_555 1_555
O4A C16A 1_555 1_555
C12A C14 1_555 1_555
C13A C12A 1_555 1_555
C14A C12 1_555 1_555
H9A C14A 1_555 1_555
C15A C12A 1_555 1_555
C16A C13A 1_555 1_555
Co1A O1A 1_555 1_555
N1A Co1A 1_555 1_555
N2A C2A 1_555 1_555
N3A Co1A 1_555 1_555
N4A N3A 1_555 1_555
N5A C5A 1_555 1_555
N6A H1A 1_555 1_555
C1A N1A 1_555 1_555
H2A C1A 1_555 1_555
C2A C1A 1_555 1_555
H3A C2A 1_555 1_555
C3A N2A 1_555 1_555
H4A C3A 1_555 1_555
C4A N1A 1_555 1_555
C5A N3A 1_555 1_555
C6A N4A 1_555 1_555
C7A N6A 1_555 1_555
H5A C7A 1_555 1_555
C8A C7A 1_555 1_555
H6A C8A 1_555 1_555
C9A C6A 1_555 1_555
C10A C9A 1_555 1_555
H7A C10A 1_555 1_555
C11A N6A 1_555 1_555
H8A C11A 1_555 1_555
Co1_2 N2 1_555 1_555
Co1_3 O4 1_555 1_555
Co1A_2 O4A 1_555 1_555
Co1A_3 N2A 1_555 1_555
O4_2 Co1 1_555 1_555
O4A_2 Co1A 1_555 1_555
N2_2 Co1 1_555 1_555
N2A_2 Co1A 1_555 1_555
N5 C6 1_555 1_555
C3 C4 1_555 1_555
C4 C5 1_555 1_555
C8 C9 1_555 1_555
C10 C11 1_555 1_555
C13A C14A 1_555 1_555
N5A C6A 1_555 1_555
C3A C4A 1_555 1_555
C4A C5A 1_555 1_555
C8A C9A 1_555 1_555
C10A C11A 1_555 1_555

#END
