
#######################################################################
#
#                 Cambridge Crystallographic Data Centre
#                                CCDC 
#
#######################################################################
#
# If this CIF has been generated from an entry in the Cambridge 
# Structural Database, then it will include bibliographic, chemical, 
# crystal, experimental, refinement or atomic coordinate data resulting 
# from the CCDC's data processing and validation procedures.
#
#######################################################################

data_FOJQOM
_symmetry_cell_setting           triclinic
_symmetry_space_group_name_H-M   'P -1'
_symmetry_Int_Tables_number      2
_space_group_name_Hall           '-P 1'
loop_
_symmetry_equiv_pos_site_id
_symmetry_equiv_pos_as_xyz
1 x,y,z
2 -x,-y,-z
_cell_length_a                   12.04230(10)
_cell_length_b                   12.8077(2)
_cell_length_c                   14.1410(4)
_cell_angle_alpha                72.2450(10)
_cell_angle_beta                 87.081(2)
_cell_angle_gamma                86.5060(10)
_cell_volume                     2072.08
loop_
_atom_site_label
_atom_site_type_symbol
_atom_site_fract_x
_atom_site_fract_y
_atom_site_fract_z
Cd1 Cd 0.18337(2) 0.24144(2) 0.391004(19)
F1 F 0.5285(2) 0.6113(2) -0.0337(2)
F2 F 0.1650(2) 0.7594(3) -0.07775(19)
F3 F 0.1808(2) 0.64882(19) 0.73530(17)
F4 F 0.2778(3) 0.3031(2) 0.9488(2)
N1 N 0.4490(3) 0.7221(3) 0.6121(2)
N2 N 0.4614(3) 0.6893(3) 0.7130(2)
N3 N 0.6272(3) 0.7116(3) 0.6311(3)
N4 N 0.1544(2) 0.3675(3) 0.4816(2)
N5 N 0.0899(2) 0.4575(3) 0.5884(2)
N6 N 0.1608(2) 0.5199(2) 0.5184(2)
N7 N 0.1261(3) 0.3729(3) 0.2438(2)
N8 N 0.1172(3) 0.4786(3) 0.0846(2)
N9 N 0.0643(2) 0.5312(2) 0.1466(2)
N10 N -0.0325(3) 0.8702(3) 0.1100(3)
N11 N -0.1102(4) 0.8882(3) 0.0403(3)
N12 N -0.1898(4) 0.9050(4) 0.1819(4)
O1 O 0.2508(2) -0.1921(2) 0.3051(2)
O2 O 0.4299(3) -0.2423(2) 0.3356(2)
O3 O 0.3238(3) -0.0119(2) 0.3940(2)
O4 O 0.2286(2) 0.1309(2) 0.29382(18)
O5 O 0.1146(2) 0.6904(2) 0.23602(18)
H1 H 0.1592 0.7271 0.2523
O6 O 0.3867(2) 0.5786(2) 0.50832(19)
H2 H 0.3973 0.6274 0.4560
O7 O 0.2283(3) 0.0907(3) 0.5247(2)
H3 H 0.2637 0.0590 0.4868
H4 H 0.2738 0.1017 0.5643
O8 O 0.0022(2) 0.1949(3) 0.4247(2)
H5 H -0.0175 0.1652 0.4851
H6 H -0.0281 0.1624 0.3893
C1 C 0.3537(3) -0.1780(3) 0.2917(3)
C2 C 0.3863(3) -0.0739(3) 0.2111(2)
C3 C 0.4408(3) -0.0844(3) 0.1253(3)
H7 H 0.4572 -0.1545 0.1202
C4 C 0.4719(3) 0.0058(3) 0.0464(2)
C5 C 0.4438(4) 0.1100(3) 0.0570(3)
H8 H 0.4640 0.1725 0.0067
C6 C 0.3865(4) 0.1208(3) 0.1413(3)
H9 H 0.3670 0.1907 0.1456
C7 C 0.3577(3) 0.0299(3) 0.2192(3)
C8 C 0.2985(3) 0.0488(3) 0.3100(3)
C9 C 0.5702(4) 0.6841(4) 0.7191(3)
H10 H 0.6053 0.6629 0.7796
C10 C 0.5481(3) 0.7338(3) 0.5665(3)
H11 H 0.5600 0.7549 0.4979
C11 C 0.3389(3) 0.7308(3) 0.5709(3)
H12 H 0.2845 0.7586 0.6113
H13 H 0.3393 0.7818 0.5041
C12 C 0.3070(3) 0.6166(3) 0.5685(3)
C13 C 0.1912(3) 0.6273(3) 0.5217(3)
H14 H 0.1358 0.6556 0.5611
H15 H 0.1937 0.6784 0.4551
C14 C 0.1975(3) 0.4649(3) 0.4571(3)
H16 H 0.2471 0.4912 0.4038
C15 C 0.0882(3) 0.3678(3) 0.5629(3)
H17 H 0.0455 0.3091 0.5971
C16 C 0.3027(3) 0.5332(3) 0.6717(3)
C17 C 0.3565(3) 0.4302(3) 0.6898(3)
H18 H 0.3997 0.4135 0.6394
C18 C 0.3465(4) 0.3513(4) 0.7830(4)
H19 H 0.3807 0.2817 0.7942
C19 C 0.2857(4) 0.3780(4) 0.8572(3)
C20 C 0.2309(3) 0.4778(3) 0.8431(3)
H20 H 0.1898 0.4948 0.8944
C21 C 0.2392(3) 0.5522(3) 0.7499(3)
C22 C 0.1526(4) 0.3846(4) 0.1463(3)
H21 H 0.1923 0.3306 0.1253
C23 C 0.0705(3) 0.4662(3) 0.2403(3)
H22 H 0.0400 0.4841 0.2954
C24 C 0.0269(3) 0.6456(3) 0.1107(3)
H23 H -0.0432 0.6568 0.1441
H24 H 0.0147 0.6658 0.0400
C25 C 0.1147(3) 0.7186(3) 0.1306(3)
C26 C 0.2280(3) 0.6925(3) 0.0866(3)
C27 C 0.3149(3) 0.6392(3) 0.1466(3)
H25 H 0.3050 0.6227 0.2151
C28 C 0.4154(3) 0.6100(3) 0.1081(3)
H26 H 0.4724 0.5740 0.1495
C29 C 0.4287(3) 0.6361(4) 0.0053(3)
C30 C 0.3467(4) 0.6869(4) -0.0568(3)
H27 H 0.3569 0.7036 -0.1254
C31 C 0.2489(3) 0.7123(4) -0.0150(3)
C32 C 0.0819(3) 0.8415(3) 0.0877(3)
H28 H 0.1306 0.8831 0.1136
H29 H 0.0939 0.8632 0.0161
C33 C -0.0816(4) 0.8814(4) 0.1933(4)
H30 H -0.0449 0.8736 0.2515
C34 C -0.1997(4) 0.9090(4) 0.0873(5)
H31 H -0.2677 0.9260 0.0566
O1A O 0.7492(2) 0.1921(2) -0.3051(2)
O2A O 0.5701(3) 0.2423(2) -0.3356(2)
O3A O 0.6762(3) 0.0119(2) -0.3940(2)
O4A O 0.7714(2) -0.1309(2) -0.29382(18)
C1A C 0.6463(3) 0.1780(3) -0.2917(3)
C2A C 0.6137(3) 0.0739(3) -0.2111(2)
C3A C 0.5592(3) 0.0844(3) -0.1253(3)
H7A H 0.5428 0.1545 -0.1202
C4A C 0.5281(3) -0.0058(3) -0.0464(2)
C5A C 0.5562(4) -0.1100(3) -0.0570(3)
H8A H 0.5360 -0.1725 -0.0067
C6A C 0.6135(4) -0.1208(3) -0.1413(3)
H9A H 0.6330 -0.1907 -0.1456
C7A C 0.6423(3) -0.0299(3) -0.2192(3)
C8A C 0.7015(3) -0.0488(3) -0.3100(3)
Cd1A Cd 0.81663(2) -0.24144(2) -0.391004(19)
F1A F 0.4715(2) -0.6113(2) 0.0337(2)
F2A F 0.8350(2) -0.7594(3) 0.07775(19)
F3A F 0.8192(2) -0.64882(19) -0.73530(17)
F4A F 0.7222(3) -0.3031(2) -0.9488(2)
N1A N 0.5510(3) -0.7221(3) -0.6121(2)
N2A N 0.5386(3) -0.6893(3) -0.7130(2)
N3A N 0.3728(3) -0.7116(3) -0.6311(3)
N4A N 0.8456(2) -0.3675(3) -0.4816(2)
N5A N 0.9101(2) -0.4575(3) -0.5884(2)
N6A N 0.8392(2) -0.5199(2) -0.5184(2)
N7A N 0.8739(3) -0.3729(3) -0.2438(2)
N8A N 0.8828(3) -0.4786(3) -0.0846(2)
N9A N 0.9357(2) -0.5312(2) -0.1466(2)
N10A N 1.0325(3) -0.8702(3) -0.1100(3)
N11A N 1.1102(4) -0.8882(3) -0.0403(3)
N12A N 1.1898(4) -0.9050(4) -0.1819(4)
O5A O 0.8854(2) -0.6904(2) -0.23602(18)
H1A H 0.8408 -0.7271 -0.2523
O6A O 0.6133(2) -0.5786(2) -0.50832(19)
H2A H 0.6027 -0.6274 -0.4560
O7A O 0.7717(3) -0.0907(3) -0.5247(2)
H3A H 0.7363 -0.0590 -0.4868
H4A H 0.7262 -0.1017 -0.5643
O8A O 0.9978(2) -0.1949(3) -0.4247(2)
H5A H 1.0175 -0.1652 -0.4851
H6A H 1.0281 -0.1624 -0.3893
C9A C 0.4298(4) -0.6841(4) -0.7191(3)
H10A H 0.3947 -0.6629 -0.7796
C10A C 0.4519(3) -0.7338(3) -0.5665(3)
H11A H 0.4400 -0.7549 -0.4979
C11A C 0.6611(3) -0.7308(3) -0.5709(3)
H12A H 0.7155 -0.7586 -0.6113
H13A H 0.6607 -0.7818 -0.5041
C12A C 0.6930(3) -0.6166(3) -0.5685(3)
C13A C 0.8088(3) -0.6273(3) -0.5217(3)
H14A H 0.8642 -0.6556 -0.5611
H15A H 0.8063 -0.6784 -0.4551
C14A C 0.8025(3) -0.4649(3) -0.4571(3)
H16A H 0.7529 -0.4912 -0.4038
C15A C 0.9118(3) -0.3678(3) -0.5629(3)
H17A H 0.9545 -0.3091 -0.5971
C16A C 0.6973(3) -0.5332(3) -0.6717(3)
C17A C 0.6435(3) -0.4302(3) -0.6898(3)
H18A H 0.6003 -0.4135 -0.6394
C18A C 0.6535(4) -0.3513(4) -0.7830(4)
H19A H 0.6193 -0.2817 -0.7942
C19A C 0.7143(4) -0.3780(4) -0.8572(3)
C20A C 0.7691(3) -0.4778(3) -0.8431(3)
H20A H 0.8102 -0.4948 -0.8944
C21A C 0.7608(3) -0.5522(3) -0.7499(3)
C22A C 0.8474(4) -0.3846(4) -0.1463(3)
H21A H 0.8077 -0.3306 -0.1253
C23A C 0.9295(3) -0.4662(3) -0.2403(3)
H22A H 0.9600 -0.4841 -0.2954
C24A C 0.9731(3) -0.6456(3) -0.1107(3)
H23A H 1.0432 -0.6568 -0.1441
H24A H 0.9853 -0.6658 -0.0400
C25A C 0.8853(3) -0.7186(3) -0.1306(3)
C26A C 0.7720(3) -0.6925(3) -0.0866(3)
C27A C 0.6851(3) -0.6392(3) -0.1466(3)
H25A H 0.6950 -0.6227 -0.2151
C28A C 0.5846(3) -0.6100(3) -0.1081(3)
H26A H 0.5276 -0.5740 -0.1495
C29A C 0.5713(3) -0.6361(4) -0.0053(3)
C30A C 0.6533(4) -0.6869(4) 0.0568(3)
H27A H 0.6431 -0.7036 0.1254
C31A C 0.7511(3) -0.7123(4) 0.0150(3)
C32A C 0.9181(3) -0.8415(3) -0.0877(3)
H28A H 0.8694 -0.8831 -0.1136
H29A H 0.9061 -0.8632 -0.0161
C33A C 1.0816(4) -0.8814(4) -0.1933(4)
H30A H 1.0449 -0.8736 -0.2515
C34A C 1.1997(4) -0.9090(4) -0.0873(5)
H31A H 1.2677 -0.9260 -0.0566
Cd1_2 Cd 0.18337(2) -0.75856(2) -0.608996(19)
Cd1A_2 Cd 0.81663(2) 0.75856(2) 0.608996(19)
N3_2 N 0.6272(3) -0.2884(3) -0.3689(3)
N3A_2 N 0.3728(3) 0.2884(3) 0.3689(3)
O9 O 0.9440(3) 0.1054(3) 0.6154(2)
H32 H 0.8881 0.1189 0.6498
H33 H 0.9767 0.0456 0.6481
O10 O 0.3603(4) 0.1331(4) 0.6627(3)
H34 H 0.4289 0.1463 0.6517
H35 H 0.3316 0.1761 0.6935
O11 O 0.9083(4) 0.0935(4) 0.3090(3)
H36 H 0.9518 0.1020 0.2582
H37 H 0.8420 0.0930 0.2914
O12 O 0.0666(4) 0.1198(5) 0.1589(4)
H38 H 0.1222 0.1227 0.1925
H39 H 0.0899 0.1177 0.1017
O13 O 0.6890(7) 0.0886(7) 0.2734(7)
H40 H 0.6410 0.1365 0.2824
H41 H 0.6622 0.0256 0.2964
loop_
_geom_bond_atom_site_label_1
_geom_bond_atom_site_label_2
_geom_bond_site_symmetry_1
_geom_bond_site_symmetry_2
Cd1 N4 1_555 1_555
F1 C29 1_555 1_555
F2 C31 1_555 1_555
F3 C21 1_555 1_555
F4 C19 1_555 1_555
N1 N2 1_555 1_555
N2 C9 1_555 1_555
N3 C9 1_555 1_555
N4 C14 1_555 1_555
N5 N6 1_555 1_555
N6 C13 1_555 1_555
N7 Cd1 1_555 1_555
N8 N9 1_555 1_555
N9 C23 1_555 1_555
N10 N11 1_555 1_555
N11 C34 1_555 1_555
N12 C33 1_555 1_555
O1 C1 1_555 1_555
O2 C1 1_555 1_555
O3 C8 1_555 1_555
O4 Cd1 1_555 1_555
O5 H1 1_555 1_555
O6 H2 1_555 1_555
O7 Cd1 1_555 1_555
H3 O7 1_555 1_555
H4 O7 1_555 1_555
O8 Cd1 1_555 1_555
H5 O8 1_555 1_555
H6 O8 1_555 1_555
C1 C2 1_555 1_555
C2 C3 1_555 1_555
C3 H7 1_555 1_555
C4 C3 1_555 1_555
C5 C4 1_555 1_555
H8 C5 1_555 1_555
C6 C5 1_555 1_555
H9 C6 1_555 1_555
C7 C2 1_555 1_555
C8 O4 1_555 1_555
C9 H10 1_555 1_555
C10 N1 1_555 1_555
H11 C10 1_555 1_555
C11 N1 1_555 1_555
H12 C11 1_555 1_555
H13 C11 1_555 1_555
C12 O6 1_555 1_555
C13 C12 1_555 1_555
H14 C13 1_555 1_555
H15 C13 1_555 1_555
C14 N6 1_555 1_555
H16 C14 1_555 1_555
C15 N4 1_555 1_555
H17 C15 1_555 1_555
C16 C12 1_555 1_555
C17 C16 1_555 1_555
H18 C17 1_555 1_555
C18 C17 1_555 1_555
H19 C18 1_555 1_555
C19 C18 1_555 1_555
C20 C19 1_555 1_555
H20 C20 1_555 1_555
C21 C16 1_555 1_555
C22 N7 1_555 1_555
H21 C22 1_555 1_555
C23 N7 1_555 1_555
H22 C23 1_555 1_555
C24 N9 1_555 1_555
H23 C24 1_555 1_555
H24 C24 1_555 1_555
C25 O5 1_555 1_555
C26 C25 1_555 1_555
C27 C26 1_555 1_555
H25 C27 1_555 1_555
C28 C27 1_555 1_555
H26 C28 1_555 1_555
C29 C28 1_555 1_555
C30 C29 1_555 1_555
H27 C30 1_555 1_555
C31 C26 1_555 1_555
C32 N10 1_555 1_555
H28 C32 1_555 1_555
H29 C32 1_555 1_555
C33 N10 1_555 1_555
H30 C33 1_555 1_555
C34 N12 1_555 1_555
H31 C34 1_555 1_555
O9 H32 1_555 1_555
H33 O9 1_555 1_555
O10 H34 1_555 1_555
H35 O10 1_555 1_555
O11 H36 1_555 1_555
H37 O11 1_555 1_555
O12 H38 1_555 1_555
H39 O12 1_555 1_555
O13 H40 1_555 1_555
H41 O13 1_555 1_555
O1A C1A 1_555 1_555
O2A C1A 1_555 1_555
O3A C8A 1_555 1_555
O4A C8A 1_555 1_555
C1A C2A 1_555 1_555
C2A C3A 1_555 1_555
C3A H7A 1_555 1_555
C4A C4 1_555 1_555
C5A C4A 1_555 1_555
H8A C5A 1_555 1_555
C6A C5A 1_555 1_555
H9A C6A 1_555 1_555
C7A C2A 1_555 1_555
C8A C7A 1_555 1_555
Cd1A O4A 1_555 1_555
F1A C29A 1_555 1_555
F2A C31A 1_555 1_555
F3A C21A 1_555 1_555
F4A C19A 1_555 1_555
N1A N2A 1_555 1_555
N2A C9A 1_555 1_555
N3A C9A 1_555 1_555
N4A Cd1A 1_555 1_555
N5A N6A 1_555 1_555
N6A C13A 1_555 1_555
N7A Cd1A 1_555 1_555
N8A N9A 1_555 1_555
N9A C23A 1_555 1_555
N10A N11A 1_555 1_555
N11A C34A 1_555 1_555
N12A C33A 1_555 1_555
O5A H1A 1_555 1_555
O6A H2A 1_555 1_555
O7A Cd1A 1_555 1_555
H3A O7A 1_555 1_555
H4A O7A 1_555 1_555
O8A Cd1A 1_555 1_555
H5A O8A 1_555 1_555
H6A O8A 1_555 1_555
C9A H10A 1_555 1_555
C10A N1A 1_555 1_555
H11A C10A 1_555 1_555
C11A N1A 1_555 1_555
H12A C11A 1_555 1_555
H13A C11A 1_555 1_555
C12A O6A 1_555 1_555
C13A C12A 1_555 1_555
H14A C13A 1_555 1_555
H15A C13A 1_555 1_555
C14A N4A 1_555 1_555
H16A C14A 1_555 1_555
C15A N4A 1_555 1_555
H17A C15A 1_555 1_555
C16A C12A 1_555 1_555
C17A C16A 1_555 1_555
H18A C17A 1_555 1_555
C18A C17A 1_555 1_555
H19A C18A 1_555 1_555
C19A C18A 1_555 1_555
C20A C19A 1_555 1_555
H20A C20A 1_555 1_555
C21A C16A 1_555 1_555
C22A N7A 1_555 1_555
H21A C22A 1_555 1_555
C23A N7A 1_555 1_555
H22A C23A 1_555 1_555
C24A N9A 1_555 1_555
H23A C24A 1_555 1_555
H24A C24A 1_555 1_555
C25A O5A 1_555 1_555
C26A C25A 1_555 1_555
C27A C26A 1_555 1_555
H25A C27A 1_555 1_555
C28A C27A 1_555 1_555
H26A C28A 1_555 1_555
C29A C28A 1_555 1_555
C30A C29A 1_555 1_555
H27A C30A 1_555 1_555
C31A C26A 1_555 1_555
C32A N10A 1_555 1_555
H28A C32A 1_555 1_555
H29A C32A 1_555 1_555
C33A N10A 1_555 1_555
H30A C33A 1_555 1_555
C34A N12A 1_555 1_555
H31A C34A 1_555 1_555
Cd1_2 N3A 1_555 1_555
Cd1A_2 N3 1_555 1_555
N3_2 Cd1A 1_555 1_555
N3A_2 Cd1 1_555 1_555
N3 C10 1_555 1_555
N5 C15 1_555 1_555
N8 C22 1_555 1_555
C6 C7 1_555 1_555
C7 C8 1_555 1_555
C11 C12 1_555 1_555
C20 C21 1_555 1_555
C24 C25 1_555 1_555
C25 C32 1_555 1_555
C30 C31 1_555 1_555
C3A C4A 1_555 1_555
C6A C7A 1_555 1_555
N3A C10A 1_555 1_555
N5A C15A 1_555 1_555
N6A C14A 1_555 1_555
N8A C22A 1_555 1_555
C11A C12A 1_555 1_555
C20A C21A 1_555 1_555
C24A C25A 1_555 1_555
C25A C32A 1_555 1_555
C30A C31A 1_555 1_555

#END
