
#######################################################################
#
#                 Cambridge Crystallographic Data Centre
#                                CCDC 
#
#######################################################################
#
# If this CIF has been generated from an entry in the Cambridge 
# Structural Database, then it will include bibliographic, chemical, 
# crystal, experimental, refinement or atomic coordinate data resulting 
# from the CCDC's data processing and validation procedures.
#
#######################################################################

data_FOJQUS
_symmetry_cell_setting           triclinic
_symmetry_space_group_name_H-M   'P -1'
_symmetry_Int_Tables_number      2
_space_group_name_Hall           '-P 1'
loop_
_symmetry_equiv_pos_site_id
_symmetry_equiv_pos_as_xyz
1 x,y,z
2 -x,-y,-z
_cell_length_a                   10.2392(3)
_cell_length_b                   11.6260(3)
_cell_length_c                   20.2026(4)
_cell_angle_alpha                81.016(2)
_cell_angle_beta                 75.480(2)
_cell_angle_gamma                75.2540(10)
_cell_volume                     2240.46
loop_
_atom_site_label
_atom_site_type_symbol
_atom_site_fract_x
_atom_site_fract_y
_atom_site_fract_z
Cd1 Cd 0.89282(2) 0.678488(18) 0.739355(11)
F1 F 0.5664(3) 1.0658(2) 0.20316(13)
F2 F 0.9014(3) 1.0097(2) 0.33207(12)
F3 F 0.2110(3) 1.3277(3) 0.8079(2)
F4 F 0.6582(2) 1.33980(19) 0.81312(13)
N1 N 1.0406(3) 0.5150(2) 0.28970(15)
N2 N 1.0118(4) 0.7137(3) 0.27529(16)
N3 N 0.9950(3) 0.6737(2) 0.34300(14)
N4 N 0.8652(3) 0.8464(2) 0.52891(14)
N5 N 0.9974(3) 0.8532(3) 0.52597(15)
N6 N 0.9130(3) 0.7525(2) 0.62410(14)
N7 N 0.8493(3) 0.8770(2) 0.75938(14)
N8 N 0.7677(3) 1.0753(2) 0.75495(15)
N9 N 0.8273(3) 1.0346(2) 0.80959(14)
N10 N 0.8033(3) 1.1910(3) 0.99690(15)
N11 N 0.9294(4) 1.2149(4) 0.97005(19)
N12 N 0.9234(5) 1.1132(4) 1.0745(2)
O1 O 0.7511(3) 0.7168(2) 0.45243(13)
H1 H 0.6726 0.7439 0.4738
O2 O 0.6826(3) 1.0288(2) 0.95661(12)
H2 H 0.6767 0.9777 0.9344
O3 O 0.3315(3) 0.4950(3) 0.99303(14)
H3 H 0.2554 0.4786 1.0074
O4 O 0.0161(2) 0.6266(2) 0.82624(12)
O5 O 0.1487(2) 0.6772(2) 0.72806(12)
O6 O 0.7052(2) 0.6537(2) 0.82555(14)
O7 O 0.6498(2) 0.6716(2) 0.72567(14)
C1 C 1.0378(4) 0.6158(3) 0.24610(19)
H4 H 1.0533 0.6152 0.1988
C2 C 0.9692(4) 0.7549(3) 0.39485(18)
H5 H 1.0187 0.8178 0.3762
H6 H 1.0056 0.7117 0.4339
C3 C 0.8145(3) 0.8119(3) 0.41978(17)
C4 C 0.7474(3) 0.8791(3) 0.36033(16)
C5 C 0.6389(4) 0.8475(3) 0.34427(17)
H7 H 0.6062 0.7827 0.3698
C6 C 0.5769(4) 0.9086(3) 0.2916(2)
H8 H 0.5037 0.8858 0.2817
C7 C 0.6266(4) 1.0035(3) 0.2545(2)
C8 C 0.7359(5) 1.0389(3) 0.2669(2)
H9 H 0.7692 1.1029 0.2407
C9 C 0.7932(4) 0.9754(3) 0.31970(18)
C10 C 0.7969(4) 0.9008(3) 0.47209(17)
H10 H 0.8353 0.9683 0.4488
H11 H 0.6989 0.9306 0.4906
C11 C 1.0194(4) 0.7957(3) 0.58438(18)
H12 H 1.1028 0.7854 0.5975
C12 C 0.8173(4) 0.7872(3) 0.58739(16)
H13 H 0.7290 0.7721 0.6008
C13 C 0.7841(4) 0.9770(3) 0.72684(18)
H14 H 0.7530 0.9763 0.6874
C14 C 0.8751(3) 0.9175(3) 0.81105(17)
H15 H 0.9205 0.8704 0.8438
C15 C 0.8277(3) 1.1145(3) 0.85846(17)
H16 H 0.8421 1.1904 0.8339
H17 H 0.9042 1.0802 0.8810
C16 C 0.6918(4) 1.1359(3) 0.91310(17)
C17 C 0.5631(4) 1.1841(3) 0.88313(18)
C18 C 0.4491(4) 1.1338(4) 0.9040(2)
H18 H 0.4526 1.0661 0.9355
C19 C 0.3293(5) 1.1813(5) 0.8794(3)
H19 H 0.2532 1.1465 0.8944
C20 C 0.3257(5) 1.2799(5) 0.8328(3)
C21 C 0.4367(5) 1.3332(4) 0.8089(2)
H20 H 0.4340 1.3990 0.7761
C22 C 0.5505(4) 1.2843(3) 0.8357(2)
C23 C 0.6919(4) 1.2279(3) 0.96061(19)
H21 H 0.6994 1.3032 0.9332
H22 H 0.6042 1.2412 0.9939
C24 C 0.9953(5) 1.1648(5) 1.0189(3)
H23 H 1.0876 1.1654 1.0149
C25 C 0.8037(5) 1.1307(4) 1.0585(2)
H24 H 0.7279 1.1042 1.0867
C26 C 0.6206(3) 0.6532(3) 0.78964(19)
C27 C 0.4827(3) 0.6264(3) 0.82625(17)
C28 C 0.4655(3) 0.5766(3) 0.89353(18)
H25 H 0.5377 0.5626 0.9161
C29 C 0.3414(3) 0.5474(3) 0.92751(17)
C30 C 0.2335(3) 0.5710(3) 0.89393(16)
H26 H 0.1494 0.5527 0.9170
C31 C 0.2492(3) 0.6215(3) 0.82645(16)
C32 C 0.3755(3) 0.6484(3) 0.79203(17)
H27 H 0.3880 0.6809 0.7464
C33 C 0.1326(3) 0.6426(3) 0.79092(16)
C34 C 1.0125(4) 0.5561(3) 0.35044(18)
H28 H 1.0060 0.5090 0.3923
Cd1_2 Cd -0.10718(2) 0.678488(18) 0.739355(11)
Cd1A Cd 1.10718(2) 0.321512(18) 0.260645(11)
N1A N 0.9594(3) 0.4850(2) 0.71030(15)
O4_2 O 1.0161(2) 0.6266(2) 0.82624(12)
O5_2 O 1.1487(2) 0.6772(2) 0.72806(12)
O8 O 0.6510(4) 0.8086(3) 0.92927(18)
H29 H 0.6490 0.7777 0.8942
H30 H 0.7125 0.7619 0.9484
O9 O 0.6209(4) 0.5253(3) 0.63737(18)
H31 H 0.6438 0.5737 0.6574
H32 H 0.6730 0.5197 0.5975
O10 O 0.6818(4) 0.2767(3) 0.65546(17)
H33 H 0.7062 0.2344 0.6905
H34 H 0.6693 0.3501 0.6608
O11 O 0.3516(3) 0.6262(4) 0.61163(18)
H35 H 0.2918 0.6404 0.6488
H36 H 0.4302 0.5964 0.6213
O12 O 0.7242(3) 0.1208(3) 0.56129(16)
H37 H 0.8024 0.1251 0.5352
H38 H 0.7064 0.1684 0.5919
O13 O 0.5179(3) 0.1965(3) 0.48263(17)
H39 H 0.5486 0.2493 0.4530
H40 H 0.5748 0.1693 0.5086
O14 O 0.0631(5) 0.5342(5) 0.0613(3)
O16 O 0.7747(9) 0.4657(6) 0.4879(4)
O15? O 0.1304(7) 0.3900(7) 0.0373(3)
O17? O 0.8539(12) 0.4915(10) 0.5200(6)
loop_
_geom_bond_atom_site_label_1
_geom_bond_atom_site_label_2
_geom_bond_site_symmetry_1
_geom_bond_site_symmetry_2
Cd1 N6 1_555 1_555
F1 C7 1_555 1_555
F2 C9 1_555 1_555
F3 C20 1_555 1_555
F4 C22 1_555 1_555
N1 C1 1_555 1_555
N2 N3 1_555 1_555
N3 C2 1_555 1_555
N4 N5 1_555 1_555
N5 C11 1_555 1_555
N6 C11 1_555 1_555
N7 Cd1 1_555 1_555
N8 N9 1_555 1_555
N9 C14 1_555 1_555
N10 N11 1_555 1_555
N11 C24 1_555 1_555
N12 C24 1_555 1_555
O1 H1 1_555 1_555
O2 H2 1_555 1_555
O3 H3 1_555 1_555
O4 C33 1_555 1_555
O5 C33 1_555 1_555
O6 Cd1 1_555 1_555
O7 Cd1 1_555 1_555
C1 N2 1_555 1_555
H4 C1 1_555 1_555
C2 H5 1_555 1_555
H6 C2 1_555 1_555
C3 O1 1_555 1_555
C4 C3 1_555 1_555
C5 C4 1_555 1_555
H7 C5 1_555 1_555
C6 C5 1_555 1_555
H8 C6 1_555 1_555
C7 C6 1_555 1_555
C8 C7 1_555 1_555
H9 C8 1_555 1_555
C9 C4 1_555 1_555
C10 N4 1_555 1_555
H10 C10 1_555 1_555
H11 C10 1_555 1_555
C11 H12 1_555 1_555
C12 N4 1_555 1_555
H13 C12 1_555 1_555
C13 N7 1_555 1_555
H14 C13 1_555 1_555
C14 N7 1_555 1_555
H15 C14 1_555 1_555
C15 N9 1_555 1_555
H16 C15 1_555 1_555
H17 C15 1_555 1_555
C16 O2 1_555 1_555
C17 C16 1_555 1_555
C18 C17 1_555 1_555
H18 C18 1_555 1_555
C19 C18 1_555 1_555
H19 C19 1_555 1_555
C20 C19 1_555 1_555
C21 C20 1_555 1_555
H20 C21 1_555 1_555
C22 C17 1_555 1_555
C23 N10 1_555 1_555
H21 C23 1_555 1_555
H22 C23 1_555 1_555
C24 H23 1_555 1_555
C25 N10 1_555 1_555
H24 C25 1_555 1_555
C26 O6 1_555 1_555
C27 C26 1_555 1_555
C28 C27 1_555 1_555
H25 C28 1_555 1_555
C29 O3 1_555 1_555
C30 C29 1_555 1_555
H26 C30 1_555 1_555
C31 C30 1_555 1_555
C32 C27 1_555 1_555
H27 C32 1_555 1_555
C33 C31 1_555 1_555
C34 N1 1_555 1_555
H28 C34 1_555 1_555
O8 H29 1_555 1_555
H30 O8 1_555 1_555
O9 H31 1_555 1_555
H32 O9 1_555 1_555
O10 H33 1_555 1_555
H34 O10 1_555 1_555
O11 H35 1_555 1_555
H36 O11 1_555 1_555
O12 H37 1_555 1_555
H38 O12 1_555 1_555
O13 H39 1_555 1_555
H40 O13 1_555 1_555
Cd1_2 O4 1_555 1_555
Cd1A N1 1_555 1_555
N1A Cd1 1_555 1_555
O4_2 Cd1 1_555 1_555
O5_2 Cd1 1_555 1_555
N3 C34 1_555 1_555
N6 C12 1_555 1_555
N8 C13 1_555 1_555
N12 C25 1_555 1_555
O5 Cd1_2 1_555 1_555
O7 C26 1_555 1_555
C2 C3 1_555 1_555
C3 C10 1_555 1_555
C8 C9 1_555 1_555
C15 C16 1_555 1_555
C16 C23 1_555 1_555
C21 C22 1_555 1_555
C28 C29 1_555 1_555
C31 C32 1_555 1_555

#END
