
#######################################################################
#
#                 Cambridge Crystallographic Data Centre
#                                CCDC 
#
#######################################################################
#
# If this CIF has been generated from an entry in the Cambridge 
# Structural Database, then it will include bibliographic, chemical, 
# crystal, experimental, refinement or atomic coordinate data resulting 
# from the CCDC's data processing and validation procedures.
#
#######################################################################

data_FOJQAY
_symmetry_cell_setting           triclinic
_symmetry_space_group_name_H-M   'P -1'
_symmetry_Int_Tables_number      2
_space_group_name_Hall           '-P 1'
loop_
_symmetry_equiv_pos_site_id
_symmetry_equiv_pos_as_xyz
1 x,y,z
2 -x,-y,-z
_cell_length_a                   7.1695(10)
_cell_length_b                   7.6147(10)
_cell_length_c                   15.391(2)
_cell_angle_alpha                84.4430(10)
_cell_angle_beta                 86.9160(10)
_cell_angle_gamma                67.2280(10)
_cell_volume                     770.992
loop_
_atom_site_label
_atom_site_type_symbol
_atom_site_fract_x
_atom_site_fract_y
_atom_site_fract_z
Zn1 Zn 0.27393(4) 0.86460(4) 0.310102(18)
O1 O 0.4000(3) 0.6129(3) 0.37830(15)
O2 O 0.4787(3) 0.3031(3) 0.37691(13)
O3 O 0.1275(3) 0.2742(3) 0.28944(13)
O4 O 0.1858(3) 0.0518(3) 0.40054(13)
N1 N -0.0431(3) 0.8757(3) 0.31294(14)
N2 N -0.4208(3) 0.8628(3) 0.29974(14)
N3 N 0.2294(4) 0.8245(4) 0.18624(15)
N4 N 0.3401(4) 0.7992(4) 0.11120(15)
N5 N 0.0465(4) 0.7674(4) 0.08624(15)
N6 N 0.4130(4) 0.6790(4) -0.20731(16)
H1 H 0.4485 0.6643 -0.2613
C1 C -0.1728(4) 0.9088(4) 0.38023(16)
H2 H -0.1374 0.9401 0.4321
C2 C -0.3595(4) 0.8975(4) 0.37428(16)
H3 H -0.4443 0.9144 0.4233
C3 C -0.2918(4) 0.8305(4) 0.23133(17)
H4 H -0.3304 0.8054 0.1787
C4 C -0.1005(4) 0.8342(4) 0.23821(16)
C5 C 0.0561(4) 0.8050(4) 0.16862(17)
C6 C 0.2276(4) 0.7657(4) 0.05378(18)
C7 C 0.2410(6) 0.6658(6) -0.1793(2)
H5 H 0.1616 0.6394 -0.2179
C8 C 0.1786(5) 0.6905(6) -0.0943(2)
H6 H 0.0584 0.6789 -0.0749
C9 C 0.2937(5) 0.7325(4) -0.03743(18)
C10 C 0.4750(5) 0.7427(5) -0.0678(2)
H7 H 0.5571 0.7683 -0.0303
C11 C 0.5333(6) 0.7145(5) -0.1542(2)
H8 H 0.6551 0.7203 -0.1751
C12 C 0.1763(4) 0.4804(3) 0.45139(15)
C13 C 0.0665(4) 0.3701(3) 0.43531(16)
C14 C -0.1098(4) 0.3919(3) 0.48424(16)
H9 H -0.1839 0.3197 0.4735
C15 C 0.3657(4) 0.4636(4) 0.39830(16)
C16 C 0.1332(4) 0.2240(4) 0.36847(17)
O1A O -0.4000(3) 0.3871(3) 0.62170(15)
O2A O -0.4787(3) 0.6969(3) 0.62309(13)
O3A O -0.1275(3) 0.7258(3) 0.71056(13)
O4A O -0.1858(3) 0.9482(3) 0.59946(13)
C12A C -0.1763(4) 0.5196(3) 0.54861(15)
C13A C -0.0665(4) 0.6299(3) 0.56469(16)
C14A C 0.1098(4) 0.6081(3) 0.51576(16)
H9A H 0.1839 0.6803 0.5265
C15A C -0.3657(4) 0.5364(4) 0.60170(16)
C16A C -0.1332(4) 0.7760(4) 0.63153(17)
Zn1A Zn -0.27393(4) 0.13540(4) 0.689898(18)
N1A N 0.0431(3) 0.1243(3) 0.68706(14)
N2A N 0.4208(3) 0.1372(3) 0.70026(14)
N3A N -0.2294(4) 0.1755(4) 0.81376(15)
N4A N -0.3401(4) 0.2008(4) 0.88880(15)
N5A N -0.0465(4) 0.2326(4) 0.91376(15)
N6A N -0.4130(4) 0.3210(4) 1.20731(16)
H1A H -0.4485 0.3357 1.2613
C1A C 0.1728(4) 0.0912(4) 0.61977(16)
H2A H 0.1374 0.0599 0.5679
C2A C 0.3595(4) 0.1025(4) 0.62572(16)
H3A H 0.4443 0.0856 0.5767
C3A C 0.2918(4) 0.1695(4) 0.76867(17)
H4A H 0.3304 0.1946 0.8213
C4A C 0.1005(4) 0.1658(4) 0.76179(16)
C5A C -0.0561(4) 0.1950(4) 0.83138(17)
C6A C -0.2276(4) 0.2343(4) 0.94622(18)
C7A C -0.2410(6) 0.3342(6) 1.1793(2)
H5A H -0.1616 0.3606 1.2179
C8A C -0.1786(5) 0.3095(6) 1.0943(2)
H6A H -0.0584 0.3211 1.0749
C9A C -0.2937(5) 0.2675(4) 1.03743(18)
C10A C -0.4750(5) 0.2573(5) 1.0678(2)
H7A H -0.5571 0.2317 1.0303
C11A C -0.5333(6) 0.2855(5) 1.1542(2)
H8A H -0.6551 0.2797 1.1751
Zn1_2 Zn -0.72607(4) 0.86460(4) 0.310102(18)
Zn1_3 Zn 0.27393(4) -0.13540(4) 0.310102(18)
Zn1A_2 Zn -0.27393(4) 1.13540(4) 0.689898(18)
Zn1A_3 Zn 0.72607(4) 0.13540(4) 0.689898(18)
O4_2 O 0.1858(3) 1.0518(3) 0.40054(13)
O4A_2 O -0.1858(3) -0.0518(3) 0.59946(13)
N2_2 N 0.5792(3) 0.8628(3) 0.29974(14)
N2A_2 N -0.5792(3) 0.1372(3) 0.70026(14)
loop_
_geom_bond_atom_site_label_1
_geom_bond_atom_site_label_2
_geom_bond_site_symmetry_1
_geom_bond_site_symmetry_2
Zn1 O1 1_555 1_555
O1 C15 1_555 1_555
O2 C15 1_555 1_555
O3 C16 1_555 1_555
O4 C16 1_555 1_555
N1 Zn1 1_555 1_555
N2 C2 1_555 1_555
N3 Zn1 1_555 1_555
N4 N3 1_555 1_555
N5 C5 1_555 1_555
N6 H1 1_555 1_555
C1 N1 1_555 1_555
H2 C1 1_555 1_555
C2 C1 1_555 1_555
H3 C2 1_555 1_555
C3 N2 1_555 1_555
H4 C3 1_555 1_555
C4 N1 1_555 1_555
C5 N3 1_555 1_555
C6 N4 1_555 1_555
C7 N6 1_555 1_555
H5 C7 1_555 1_555
C8 C7 1_555 1_555
H6 C8 1_555 1_555
C9 C6 1_555 1_555
C10 C9 1_555 1_555
H7 C10 1_555 1_555
C11 N6 1_555 1_555
H8 C11 1_555 1_555
C12 C13 1_555 1_555
C13 C14 1_555 1_555
C14 H9 1_555 1_555
C15 C12 1_555 1_555
C16 C13 1_555 1_555
O1A C15A 1_555 1_555
O2A C15A 1_555 1_555
O3A C16A 1_555 1_555
O4A C16A 1_555 1_555
C12A C14 1_555 1_555
C13A C12A 1_555 1_555
C14A C12 1_555 1_555
H9A C14A 1_555 1_555
C15A C12A 1_555 1_555
C16A C13A 1_555 1_555
Zn1A O1A 1_555 1_555
N1A Zn1A 1_555 1_555
N2A C2A 1_555 1_555
N3A Zn1A 1_555 1_555
N4A N3A 1_555 1_555
N5A C5A 1_555 1_555
N6A H1A 1_555 1_555
C1A N1A 1_555 1_555
H2A C1A 1_555 1_555
C2A C1A 1_555 1_555
H3A C2A 1_555 1_555
C3A N2A 1_555 1_555
H4A C3A 1_555 1_555
C4A N1A 1_555 1_555
C5A N3A 1_555 1_555
C6A N4A 1_555 1_555
C7A N6A 1_555 1_555
H5A C7A 1_555 1_555
C8A C7A 1_555 1_555
H6A C8A 1_555 1_555
C9A C6A 1_555 1_555
C10A C9A 1_555 1_555
H7A C10A 1_555 1_555
C11A N6A 1_555 1_555
H8A C11A 1_555 1_555
Zn1_2 N2 1_555 1_555
Zn1_3 O4 1_555 1_555
Zn1A_2 O4A 1_555 1_555
Zn1A_3 N2A 1_555 1_555
O4_2 Zn1 1_555 1_555
O4A_2 Zn1A 1_555 1_555
N2_2 Zn1 1_555 1_555
N2A_2 Zn1A 1_555 1_555
N5 C6 1_555 1_555
C3 C4 1_555 1_555
C4 C5 1_555 1_555
C8 C9 1_555 1_555
C10 C11 1_555 1_555
C13A C14A 1_555 1_555
N5A C6A 1_555 1_555
C3A C4A 1_555 1_555
C4A C5A 1_555 1_555
C8A C9A 1_555 1_555
C10A C11A 1_555 1_555

#END
