
#######################################################################
#
#                 Cambridge Crystallographic Data Centre
#                                CCDC 
#
#######################################################################
#
# If this CIF has been generated from an entry in the Cambridge 
# Structural Database, then it will include bibliographic, chemical, 
# crystal, experimental, refinement or atomic coordinate data resulting 
# from the CCDC's data processing and validation procedures.
#
#######################################################################

data_FOJWAE
_symmetry_cell_setting           monoclinic
_symmetry_space_group_name_H-M   'P 21/c'
_symmetry_Int_Tables_number      14
_space_group_name_Hall           '-P 2ybc'
loop_
_symmetry_equiv_pos_site_id
_symmetry_equiv_pos_as_xyz
1 x,y,z
2 -x,1/2+y,1/2-z
3 -x,-y,-z
4 x,1/2-y,1/2+z
_cell_length_a                   7.2580(16)
_cell_length_b                   14.804(3)
_cell_length_c                   10.706(2)
_cell_angle_alpha                90
_cell_angle_beta                 100.989(5)
_cell_angle_gamma                90
_cell_volume                     1129.24
loop_
_atom_site_label
_atom_site_type_symbol
_atom_site_fract_x
_atom_site_fract_y
_atom_site_fract_z
Zn1 Zn 0.50673(4) 0.302175(19) 0.02255(3)
O1 O 0.7638(3) 0.34586(14) 0.0394(2)
O2 O 0.6604(2) 0.45786(13) -0.0893(2)
O3 O 0.5248(3) 0.18253(12) 0.10593(19)
O4 O 0.5318(3) 0.15747(12) -0.09378(18)
O5 O 0.4154(4) 0.37223(15) 0.1590(2)
H1 H 0.389(5) 0.4295(14) 0.143(3)
H2 H 0.460(5) 0.367(2) 0.2403(18)
N1 N 0.2935(3) 0.33068(14) -0.12119(19)
N2 N 0.1377(4) 0.27652(19) -0.1526(3)
N3 N 0.1167(3) 0.38768(14) -0.28900(19)
C1 C 0.0546(3) 0.44547(17) -0.3970(2)
C2 C 0.0612(4) 0.53761(18) -0.3806(2)
H3 H 0.1024 0.5623 -0.3002
C3 C -0.0060(3) 0.4067(2) -0.5153(2)
H4 H -0.0096 0.3442 -0.5246
C4 C 0.2768(3) 0.39586(17) -0.2035(2)
H5 H 0.3639 0.4420 -0.2032
C5 C 0.0365(5) 0.3126(2) -0.2529(3)
H6 H -0.0777 0.2894 -0.2949
C6 C 0.9774(3) 0.46015(19) 0.0183(2)
H7 H 1.0707 0.4262 0.0688
C7 C 0.7863(3) 0.41995(16) -0.0153(2)
C8 C 0.5258(4) 0.03107(18) 0.0427(3)
H8 H 0.5644 0.0130 0.1268
C9 C 0.5269(3) 0.12902(18) 0.0138(2)
O1B O 1.2362(3) 0.65414(14) -0.0394(2)
O2B O 1.3396(2) 0.54214(13) 0.0893(2)
C6B C 1.0226(3) 0.53985(19) -0.0183(2)
H7B H 0.9293 0.5738 -0.0688
C7B C 1.2137(3) 0.58005(16) 0.0153(2)
O3B O 0.4752(3) -0.18253(12) -0.10593(19)
O4B O 0.4682(3) -0.15747(12) 0.09378(18)
C8B C 0.4742(4) -0.03107(18) -0.0427(3)
H8B H 0.4356 -0.0130 -0.1268
C9B C 0.4731(3) -0.12902(18) -0.0138(2)
N1B N -0.2935(3) 0.66932(14) -0.87881(19)
N2B N -0.1377(4) 0.72348(19) -0.8474(3)
N3B N -0.1167(3) 0.61232(14) -0.71100(19)
C1B C -0.0546(3) 0.55453(17) -0.6030(2)
C2B C -0.0612(4) 0.46239(18) -0.6194(2)
H3B H -0.1024 0.4377 -0.6998
C3B C 0.0060(3) 0.5933(2) -0.4847(2)
H4B H 0.0096 0.6558 -0.4754
C4B C -0.2768(3) 0.60414(17) -0.7965(2)
H5B H -0.3639 0.5580 -0.7968
C5B C -0.0365(5) 0.6874(2) -0.7471(3)
H6B H 0.0777 0.7106 -0.7051
Zn1B Zn -0.50673(4) 0.697825(19) -1.02255(3)
O5B O -0.4154(4) 0.62777(15) -1.1590(2)
H1B H -0.389(5) 0.5705(14) -1.143(3)
H2B H -0.460(5) 0.633(2) -1.2403(18)
Zn1B_2 Zn 0.49327(4) -0.302175(19) -0.02255(3)
Zn1B_3 Zn 1.49327(4) 0.697825(19) -0.02255(3)
O1B_2 O -0.7638(3) 0.65414(14) -1.0394(2)
O3B_2 O -0.5248(3) 0.81747(12) -1.10593(19)
O4B_2 O -0.5318(3) 0.84253(12) -0.90622(18)
loop_
_geom_bond_atom_site_label_1
_geom_bond_atom_site_label_2
_geom_bond_site_symmetry_1
_geom_bond_site_symmetry_2
Zn1 O1 1_555 1_555
O1 C7 1_555 1_555
O2 C7 1_555 1_555
O3 Zn1 1_555 1_555
O4 Zn1 1_555 1_555
O5 Zn1 1_555 1_555
H1 O5 1_555 1_555
H2 O5 1_555 1_555
N1 Zn1 1_555 1_555
N2 N1 1_555 1_555
N3 C1 1_555 1_555
C1 C2 1_555 1_555
C2 H3 1_555 1_555
C3 C1 1_555 1_555
H4 C3 1_555 1_555
C4 N1 1_555 1_555
H5 C4 1_555 1_555
C5 N2 1_555 1_555
H6 C5 1_555 1_555
C6 H7 1_555 1_555
C7 C6 1_555 1_555
C8 H8 1_555 1_555
C9 O3 1_555 1_555
O1B C7B 1_555 1_555
O2B C7B 1_555 1_555
C6B C6 1_555 1_555
H7B C6B 1_555 1_555
C7B C6B 1_555 1_555
O3B C9B 1_555 1_555
O4B C9B 1_555 1_555
C8B C8 1_555 1_555
H8B C8B 1_555 1_555
C9B C8B 1_555 1_555
N1B N2B 1_555 1_555
N2B C5B 1_555 1_555
N3B C1B 1_555 1_555
C1B C2B 1_555 1_555
C2B C3 1_555 1_555
H3B C2B 1_555 1_555
C3B C2 1_555 1_555
H4B C3B 1_555 1_555
C4B N1B 1_555 1_555
H5B C4B 1_555 1_555
C5B N3B 1_555 1_555
H6B C5B 1_555 1_555
Zn1B N1B 1_555 1_555
O5B Zn1B 1_555 1_555
H1B O5B 1_555 1_555
H2B O5B 1_555 1_555
Zn1B_2 O3B 1_555 1_555
Zn1B_3 O1B 1_555 1_555
O1B_2 Zn1B 1_555 1_555
O3B_2 Zn1B 1_555 1_555
O4B_2 Zn1B 1_555 1_555
O4 C9 1_555 1_555
N3 C4 1_555 1_555
N3 C5 1_555 1_555
C8 C9 1_555 1_555
O4B Zn1B_2 1_555 1_555
N3B C4B 1_555 1_555
C1B C3B 1_555 1_555

#END
