
#######################################################################
#
#                 Cambridge Crystallographic Data Centre
#                                CCDC 
#
#######################################################################
#
# If this CIF has been generated from an entry in the Cambridge 
# Structural Database, then it will include bibliographic, chemical, 
# crystal, experimental, refinement or atomic coordinate data resulting 
# from the CCDC's data processing and validation procedures.
#
#######################################################################

data_FOJYAE
_symmetry_cell_setting           triclinic
_symmetry_space_group_name_H-M   'P -1'
_symmetry_Int_Tables_number      2
_space_group_name_Hall           '-P 1'
loop_
_symmetry_equiv_pos_site_id
_symmetry_equiv_pos_as_xyz
1 x,y,z
2 -x,-y,-z
_cell_length_a                   12.297(2)
_cell_length_b                   11.319(3)
_cell_length_c                   13.592(2)
_cell_angle_alpha                111.24(2)
_cell_angle_beta                 79.87(10)
_cell_angle_gamma                115.34(2)
_cell_volume                     1593.2
loop_
_atom_site_label
_atom_site_type_symbol
_atom_site_fract_x
_atom_site_fract_y
_atom_site_fract_z
Li1 Li -0.484(1) 0.166(1) 0.2584(9)
Li2 Li -0.736(1) 0.172(1) 0.6082(9)
C13 C -0.5828(7) 0.182(1) 0.4960(7)
C14 C -0.6243(7) 0.1983(9) 0.4145(6)
C15 C -0.6749(7) 0.1091(9) 0.3223(6)
O1 O -0.3798(5) 0.3634(4) 0.2798(3)
C16 C -0.3389(8) 0.4567(7) 0.3843(5)
C17 C -0.2260(7) 0.5772(7) 0.3761(6)
O2 O -0.7519(4) 0.3518(4) 0.6828(4)
C18 C -0.7097(8) 0.4455(67) 0.7877(6)
C19 C -0.4029(7) 0.4370(8) 0.2217(6)
O3 O -0.7163(4) 0.1037(5) 0.7162(4)
C20 C -0.5997(6) 0.1614(8) 0.7630(7)
C21 C -0.5354(6) 0.0655(7) 0.7087(7)
O4 O -0.3916(4) 0.0708(4) 0.2834(4)
C22 C -0.2780(7) 0.1269(7) 0.3320(7)
C23 C -0.7883(7) -0.0324(8) 0.7239(7)
O5 O -0.5004(4) 0.0813(5) 0.1052(4)
C24 C -0.6116(6) -0.0214(9) 0.0520(7)
C25 C -0.410(1) 0.131(1) 0.028(1)
O6 O -0.8987(4) 0.0472(5) 0.5595(4)
C26 C -1.0097(6) 0.0570(8) 0.6103(6)
C27 C -0.9227(6) -0.0707(7) 0.4647(6)
O2A O -0.2481(4) 0.6482(4) 0.3172(4)
C17A C -0.7740(7) 0.4228(7) 0.6239(6)
C19A C -0.5971(7) 0.5630(8) 0.7783(6)
C18A C -0.2903(8) 0.5545(67) 0.2123(6)
O4A O -0.6084(4) -0.0708(4) 0.7166(4)
C21A C -0.4646(6) -0.0655(7) 0.2913(7)
C23A C -0.2117(7) 0.0324(8) 0.2761(7)
C22A C -0.7220(7) -0.1269(7) 0.6680(7)
C25A C -0.590(1) -0.131(1) -0.028(1)
C24A C -0.3884(6) 0.0214(9) -0.0520(7)
C27A C -1.0773(6) 0.0707(7) 0.5353(6)
C26A C -0.9903(6) -0.0570(8) 0.3897(6)
Li2A Li -0.264(1) 0.828(1) 0.3918(9)
C16A C -0.6611(8) 0.5433(7) 0.6157(5)
O1A O -0.6202(5) 0.6366(4) 0.7202(3)
Li1A Li -0.516(1) -0.166(1) 0.7416(9)
C20A C -0.4003(6) -0.1614(8) 0.2370(7)
O3A O -0.2837(4) -0.1037(5) 0.2838(4)
O5A O -0.4996(4) -0.0813(5) -0.1052(4)
O6A O -1.1013(4) -0.0472(5) 0.4405(4)
C13A C -0.4172(7) 0.818(1) 0.5040(7)
O3A_2 O -0.2837(4) 0.8963(5) 0.2838(4)
O6A_2 O -0.1013(4) 0.9528(5) 0.4405(4)
Li1A_2 Li -0.516(1) 0.834(1) 0.7416(9)
C14A C -0.3757(7) -0.1983(9) 0.5855(6)
C15A C -0.3251(7) -0.1091(9) 0.6777(6)
O1A_2 O -0.6202(5) -0.3634(4) 0.7202(3)
O5A_2 O -0.4996(4) -0.0813(5) 0.8948(4)
Li2A_2 Li -0.264(1) -0.172(1) 0.3918(9)
Li1A_3 Li -0.516(1) -0.166(1) -0.2584(9)
Li2A_3 Li -1.264(1) -0.172(1) 0.3918(9)
C14A_2 C -0.3757(7) 0.8017(9) 0.5855(6)
C13A_2 C -0.4172(7) -0.182(1) 0.5040(7)
Ce1 Ce 0.14457(3) 0.39972(4) 0.16758(3)
C1 C 0.0393(7) 0.3156(8) -0.0308(7)
C2 C -0.0531(8) 0.2627(8) 0.0338(7)
C3 C -0.0894(8) 0.3285(9) 0.1296(8)
C4 C 0.2807(8) 0.4747(9) 0.3447(7)
C5 C 0.170(1) 0.474(1) 0.3857(9)
C6 C 0.054(1) 0.383(1) 0.3690(9)
C7 C 0.168(1) 0.678(1) 0.2338(9)
C8 C 0.2323(9) 0.659(1) 0.1404(8)
C9 C 0.3222(9) 0.612(1) 0.1115(8)
C10 C 0.148(1) 0.136(2) 0.104(1)
C11 C 0.258(2) 0.212(2) 0.099(1)
C12 C 0.311(2) 0.305(2) 0.031(2)
loop_
_geom_bond_atom_site_label_1
_geom_bond_atom_site_label_2
_geom_bond_site_symmetry_1
_geom_bond_site_symmetry_2
Ce1 C1 1_555 1_555
C1 C2 1_555 1_555
C2 Ce1 1_555 1_555
C3 Ce1 1_555 1_555
C4 Ce1 1_555 1_555
C5 Ce1 1_555 1_555
C6 Ce1 1_555 1_555
C7 Ce1 1_555 1_555
C8 Ce1 1_555 1_555
C9 Ce1 1_555 1_555
C10 Ce1 1_555 1_555
C11 Ce1 1_555 1_555
C12 Ce1 1_555 1_555
Li1 C14 1_555 1_555
Li2 C13 1_555 1_555
C13 C14 1_555 1_555
C14 C15 1_555 1_555
C15 Li1 1_555 1_555
O1 Li1 1_555 1_555
C16 O1 1_555 1_555
C17 C16 1_555 1_555
O2 Li2 1_555 1_555
C18 O2 1_555 1_555
C19 O1 1_555 1_555
O3 Li2 1_555 1_555
C20 O3 1_555 1_555
C21 C20 1_555 1_555
O4 Li1 1_555 1_555
C22 O4 1_555 1_555
C23 O3 1_555 1_555
O5 Li1 1_555 1_555
C24 O5 1_555 1_555
C25 O5 1_555 1_555
O6 Li2 1_555 1_555
C26 O6 1_555 1_555
C27 O6 1_555 1_555
O2A C17 1_555 1_555
C17A O2 1_555 1_555
C19A C18 1_555 1_555
C18A C19 1_555 1_555
O4A C21 1_555 1_555
C21A O4 1_555 1_555
C23A C22 1_555 1_555
C22A C23 1_555 1_555
C25A C24 1_555 1_555
C24A C25 1_555 1_555
C27A C26 1_555 1_555
C26A C27 1_555 1_555
Li2A O2A 1_555 1_555
C16A C17A 1_555 1_555
O1A C19A 1_555 1_555
Li1A O4A 1_555 1_555
C20A C21A 1_555 1_555
O3A C23A 1_555 1_555
O5A C25A 1_555 1_555
O6A C27A 1_555 1_555
C13A Li2A 1_555 1_555
O3A_2 Li2A 1_555 1_555
O6A_2 Li2A 1_555 1_555
Li1A_2 O1A 1_555 1_555
C14A Li1A 1_555 1_555
C15A Li1A 1_555 1_555
O1A_2 Li1A 1_555 1_555
O5A_2 Li1A 1_555 1_555
Li2A_2 O3A 1_555 1_555
Li1A_3 O5A 1_555 1_555
Li2A_3 O6A 1_555 1_555
C14A_2 C13A 1_555 1_555
C13A_2 C14A 1_555 1_555
C2 C3 1_555 1_555
C4 C5 1_555 1_555
C5 C6 1_555 1_555
C7 C8 1_555 1_555
C8 C9 1_555 1_555
C10 C11 1_555 1_555
C11 C12 1_555 1_555
O2A C18A 1_555 1_555
O4A C22A 1_555 1_555
C24A O5A 1_555 1_555
C26A O6A 1_555 1_555
C16A O1A 1_555 1_555
C20A O3A 1_555 1_555
C14A C15A 1_555 1_555

#END
