
#######################################################################
#
#                 Cambridge Crystallographic Data Centre
#                                CCDC 
#
#######################################################################
#
# If this CIF has been generated from an entry in the Cambridge 
# Structural Database, then it will include bibliographic, chemical, 
# crystal, experimental, refinement or atomic coordinate data resulting 
# from the CCDC's data processing and validation procedures.
#
#######################################################################

data_FOJYIO
_symmetry_cell_setting           monoclinic
_symmetry_space_group_name_H-M   'P 21/c'
_symmetry_Int_Tables_number      14
_space_group_name_Hall           '-P 2ybc'
loop_
_symmetry_equiv_pos_site_id
_symmetry_equiv_pos_as_xyz
1 x,y,z
2 -x,1/2+y,1/2-z
3 -x,-y,-z
4 x,1/2-y,1/2+z
_cell_length_a                   11.4322(5)
_cell_length_b                   17.8277(7)
_cell_length_c                   8.5398(3)
_cell_angle_alpha                90
_cell_angle_beta                 103.9910(10)
_cell_angle_gamma                90
_cell_volume                     1688.86
loop_
_atom_site_label
_atom_site_type_symbol
_atom_site_fract_x
_atom_site_fract_y
_atom_site_fract_z
Co1 Co 0.691815(18) 0.670413(11) 0.22158(2)
N1 N 1.50441(12) 0.66827(7) 0.21669(16)
N2 N 0.88337(12) 0.67256(7) 0.22848(16)
C1 C 1.42718(15) 0.71789(9) 0.1296(2)
C2 C 1.30679(15) 0.72073(9) 0.1297(2)
C3 C 1.25916(14) 0.67011(9) 0.22273(18)
C4 C 1.12978(14) 0.67074(8) 0.22479(19)
C5 C 1.04849(15) 0.72042(10) 0.1304(2)
C6 C 0.92838(15) 0.71986(10) 0.1356(2)
C7 C 0.96131(15) 0.62443(9) 0.31897(19)
C8 C 1.08277(15) 0.62148(9) 0.32159(19)
C9 C 1.33953(15) 0.61852(9) 0.3131(2)
C10 C 1.45901(15) 0.61920(9) 0.3058(2)
O1 O 0.69338(11) 0.55490(6) 0.19063(13)
O2 O 0.73222(13) 0.50281(7) 0.43516(15)
C11 C 0.71226(15) 0.49939(9) 0.2844(2)
C12 C 0.7174(2) 0.42321(11) 0.2071(3)
H1 H 0.6882 0.3842 0.2708
H2 H 0.6643 0.4231 0.0967
C13 C 0.8455(3) 0.40568(15) 0.1997(3)
H3 H 0.8722 0.4424 0.1304
H4 H 0.8487 0.3552 0.1553
H5 H 0.8984 0.4080 0.3085
O3 O 0.68919(10) 0.78789(6) 0.23699(13)
O4 O 0.65233(10) 0.80543(6) 0.47725(13)
C14 C 0.67298(14) 0.82994(9) 0.34941(18)
C15 C 0.68195(19) 0.91382(10) 0.3239(2)
H6 H 0.6433 0.9411 0.3989
H7 H 0.6388 0.9269 0.2122
C16 C 0.8132(2) 0.93734(12) 0.3531(3)
H8 H 0.8551 0.9260 0.4649
H9 H 0.8177 0.9913 0.3338
H10 H 0.8515 0.9098 0.2795
O5 O 0.74008(11) 0.64870(7) 0.46941(14)
H11 H 1.2578(19) 0.7567(12) 0.068(3)
H12 H 1.4612(18) 0.7517(11) 0.064(2)
H13 H 0.9305(18) 0.5913(11) 0.387(2)
H14 H 1.3169(17) 0.5843(11) 0.382(2)
H15 H 1.1315(18) 0.5863(11) 0.385(2)
H16 H 1.072(2) 0.7558(13) 0.058(3)
H17 H 0.7383(19) 0.6038(14) 0.477(3)
H18 H 0.715(2) 0.6675(13) 0.539(3)
H19 H 1.515(2) 0.5852(12) 0.369(3)
H20 H 0.874(2) 0.7553(13) 0.070(3)
Co1_2 Co 1.691815(18) 0.670413(11) 0.22158(2)
Co1C Co 0.691815(18) 0.829587(11) 0.72158(2)
N1_2 N 0.50441(12) 0.66827(7) 0.21669(16)
O4C O 0.65233(10) 0.69457(6) -0.02275(13)
loop_
_geom_bond_atom_site_label_1
_geom_bond_atom_site_label_2
_geom_bond_site_symmetry_1
_geom_bond_site_symmetry_2
Co1 N2 1_555 1_555
N1 C1 1_555 1_555
N2 C6 1_555 1_555
C1 C2 1_555 1_555
C2 C3 1_555 1_555
C3 C4 1_555 1_555
C4 C5 1_555 1_555
C5 C6 1_555 1_555
C6 H20 1_555 1_555
C7 N2 1_555 1_555
C8 C4 1_555 1_555
C9 C3 1_555 1_555
C10 N1 1_555 1_555
O1 Co1 1_555 1_555
O2 C11 1_555 1_555
C11 O1 1_555 1_555
C12 C11 1_555 1_555
H1 C12 1_555 1_555
H2 C12 1_555 1_555
C13 C12 1_555 1_555
H3 C13 1_555 1_555
H4 C13 1_555 1_555
H5 C13 1_555 1_555
O3 Co1 1_555 1_555
O4 C14 1_555 1_555
C14 O3 1_555 1_555
C15 C14 1_555 1_555
H6 C15 1_555 1_555
H7 C15 1_555 1_555
C16 C15 1_555 1_555
H8 C16 1_555 1_555
H9 C16 1_555 1_555
H10 C16 1_555 1_555
O5 Co1 1_555 1_555
H11 C2 1_555 1_555
H12 C1 1_555 1_555
H13 C7 1_555 1_555
H14 C9 1_555 1_555
H15 C8 1_555 1_555
H16 C5 1_555 1_555
H17 O5 1_555 1_555
H18 O5 1_555 1_555
H19 C10 1_555 1_555
Co1_2 N1 1_555 1_555
Co1C O4 1_555 1_555
N1_2 Co1 1_555 1_555
O4C Co1 1_555 1_555
C7 C8 1_555 1_555
C9 C10 1_555 1_555

#END
