
#######################################################################
#
#                 Cambridge Crystallographic Data Centre
#                                CCDC 
#
#######################################################################
#
# If this CIF has been generated from an entry in the Cambridge 
# Structural Database, then it will include bibliographic, chemical, 
# crystal, experimental, refinement or atomic coordinate data resulting 
# from the CCDC's data processing and validation procedures.
#
#######################################################################

data_FOJYOU
_symmetry_cell_setting           triclinic
_symmetry_space_group_name_H-M   'P -1'
_symmetry_Int_Tables_number      2
_space_group_name_Hall           '-P 1'
loop_
_symmetry_equiv_pos_site_id
_symmetry_equiv_pos_as_xyz
1 x,y,z
2 -x,-y,-z
_cell_length_a                   10.2943(10)
_cell_length_b                   11.0353(10)
_cell_length_c                   12.2925(12)
_cell_angle_alpha                77.1110(10)
_cell_angle_beta                 89.2580(10)
_cell_angle_gamma                81.8810(10)
_cell_volume                     1347.36
loop_
_atom_site_label
_atom_site_type_symbol
_atom_site_fract_x
_atom_site_fract_y
_atom_site_fract_z
Co1 Co 0.21095(3) 0.52620(3) 0.58657(3)
Co2 Co 0.51427(4) 0.35066(3) 0.50002(3)
C1 C 0.2617(3) 0.2476(3) 0.5781(2)
O1 O 0.40595(18) 0.49296(18) 0.57488(16)
O2 O 0.19002(19) 0.35281(18) 0.55410(16)
O3 O 0.3843(2) 0.23013(19) 0.57185(18)
O4 O -0.1828(2) 0.3903(2) 0.58704(17)
O5 O 0.0056(2) 0.5469(2) 0.60717(18)
O6 O 0.3588(2) -0.2042(2) 0.53731(19)
O7 O 0.0284(2) 0.24456(19) 0.70476(19)
O8 O 0.1938(2) -0.29863(19) 0.61977(19)
O9 O -0.3708(2) 0.3217(2) 0.64954(18)
N1 N 0.4262(3) 0.3644(2) 1.3285(2)
N2 N 0.2258(2) 0.4482(2) 0.7672(2)
C2 C -0.1908(3) 0.2779(3) 0.7744(2)
C3 C 0.2511(3) -0.2040(3) 0.5855(2)
C4 C 0.1942(3) 0.1341(3) 0.6132(2)
C5 C -0.0582(3) 0.2351(3) 0.7932(3)
C6 C 0.0761(3) 0.1365(3) 0.6717(3)
C7 C 0.2482(3) 0.0230(3) 0.5855(3)
H1 H 0.3277 0.0199 0.5487
C8 C 0.2895(3) 0.3977(3) 0.9947(3)
C9 C 0.3162(3) 0.3520(3) 0.8140(3)
H2 H 0.3574 0.3012 0.7690
C10 C -0.2530(3) 0.3343(3) 0.6605(2)
C11 C -0.2212(4) 0.2136(4) 0.9734(3)
H3 H -0.2767 0.2057 1.0342
C12 C 0.0676(3) -0.0775(3) 0.6645(3)
H4 H 0.0235 -0.1471 0.6795
C13 C 0.1871(3) -0.0839(3) 0.6112(3)
C14 C 0.3515(3) 0.3243(3) 0.9257(3)
H5 H 0.4162 0.2572 0.9544
C15 C 0.3348(3) 0.3820(3) 1.1112(3)
C16 C -0.2714(4) 0.2646(4) 0.8679(3)
H6 H -0.3612 0.2911 0.8580
C17 C 0.0137(3) 0.0311(3) 0.6954(3)
H7 H -0.0656 0.0334 0.7327
C18 C 0.1894(3) 0.4920(3) 0.9477(3)
H8 H 0.1412 0.5397 0.9919
C19 C 0.2490(3) 0.3853(4) 1.1987(3)
H9 H 0.1588 0.3940 1.1863
C20 C 0.2992(3) 0.3755(3) 1.3043(3)
H10 H 0.2403 0.3767 1.3622
C21 C 0.5083(3) 0.3625(4) 1.2434(3)
H11 H 0.5979 0.3556 1.2577
C22 C 0.4670(3) 0.3700(4) 1.1357(3)
H12 H 0.5281 0.3671 1.0795
C23 C -0.0065(4) 0.1848(4) 0.8992(3)
H13 H 0.0832 0.1582 0.9097
C24 C 0.1621(3) 0.5143(3) 0.8352(3)
H14 H 0.0958 0.5789 0.8048
C25 C -0.0884(4) 0.1739(4) 0.9895(3)
H15 H -0.0541 0.1398 1.0612
H16 H 0.42(2) 0.48(2) 0.645(4)
H17 H -0.035(4) 0.490(3) 0.610(4)
H18 H -0.034(4) 0.602(3) 0.557(3)
Co1_2 Co 0.21095(3) -0.47380(3) 0.58657(3)
Co1A Co -0.21095(3) 0.47380(3) 0.41343(3)
Co2_2 Co -0.48573(4) 0.35066(3) 0.50002(3)
Co2_3 Co 0.51427(4) 0.35066(3) 1.50002(3)
Co2A Co 0.48573(4) -0.35066(3) 0.49998(3)
Co2A_2 Co 0.48573(4) 0.64934(3) 0.49998(3)
O1A O 0.59405(18) 0.50704(18) 0.42512(16)
O4A O 0.1828(2) 0.6097(2) 0.41296(17)
O6A O 0.6412(2) 0.2042(2) 0.46269(19)
O8_2 O 0.1938(2) 0.70137(19) 0.61977(19)
O9_2 O 0.6292(2) 0.3217(2) 0.64954(18)
N1_2 N 0.4262(3) 0.3644(2) 0.3285(2)
C26 C 0.4203(12) 0.0033(9) 0.2747(12)
H19 H 0.4091 0.0694 0.3146
H20 H 0.5105 -0.0118 0.2543
H21 H 0.3962 -0.0719 0.3215
C27 C 0.3398(16) 0.0387(13) 0.1775(14)
N3 N 0.2456(14) 0.0866(12) 0.1190(14)
loop_
_geom_bond_atom_site_label_1
_geom_bond_atom_site_label_2
_geom_bond_site_symmetry_1
_geom_bond_site_symmetry_2
Co1 O1 1_555 1_555
Co2 O1 1_555 1_555
C1 O2 1_555 1_555
O1 H16 1_555 1_555
O2 Co1 1_555 1_555
O3 Co2 1_555 1_555
O4 C10 1_555 1_555
O5 Co1 1_555 1_555
O6 C3 1_555 1_555
O7 C5 1_555 1_555
O8 C3 1_555 1_555
O9 C10 1_555 1_555
N1 C20 1_555 1_555
N2 Co1 1_555 1_555
C2 C5 1_555 1_555
C3 C13 1_555 1_555
C4 C1 1_555 1_555
C5 C23 1_555 1_555
C6 O7 1_555 1_555
C7 C4 1_555 1_555
H1 C7 1_555 1_555
C8 C14 1_555 1_555
C9 N2 1_555 1_555
H2 C9 1_555 1_555
C10 C2 1_555 1_555
C11 H3 1_555 1_555
C12 H4 1_555 1_555
C13 C7 1_555 1_555
C14 C9 1_555 1_555
H5 C14 1_555 1_555
C15 C8 1_555 1_555
C16 C2 1_555 1_555
H6 C16 1_555 1_555
C17 C6 1_555 1_555
H7 C17 1_555 1_555
C18 C8 1_555 1_555
H8 C18 1_555 1_555
C19 C15 1_555 1_555
H9 C19 1_555 1_555
C20 C19 1_555 1_555
H10 C20 1_555 1_555
C21 N1 1_555 1_555
H11 C21 1_555 1_555
C22 C15 1_555 1_555
H12 C22 1_555 1_555
C23 H13 1_555 1_555
C24 N2 1_555 1_555
H14 C24 1_555 1_555
C25 C11 1_555 1_555
H15 C25 1_555 1_555
H17 O5 1_555 1_555
H18 O5 1_555 1_555
C26 H19 1_555 1_555
H20 C26 1_555 1_555
H21 C26 1_555 1_555
C27 C26 1_555 1_555
N3 C27 1_555 1_555
Co1_2 O8 1_555 1_555
Co1A O4 1_555 1_555
Co2_2 O9 1_555 1_555
Co2_3 N1 1_555 1_555
Co2A O6 1_555 1_555
Co2A_2 O1 1_555 1_555
O1A Co2 1_555 1_555
O4A Co1 1_555 1_555
O6A Co2 1_555 1_555
O8_2 Co1 1_555 1_555
O9_2 Co2 1_555 1_555
N1_2 Co2 1_555 1_555
C1 O3 1_555 1_555
C4 C6 1_555 1_555
C11 C16 1_555 1_555
C12 C13 1_555 1_555
C12 C17 1_555 1_555
C18 C24 1_555 1_555
C21 C22 1_555 1_555
C23 C25 1_555 1_555
Co2A_2 O1A 1_555 1_555

#END
