
#######################################################################
#
#                 Cambridge Crystallographic Data Centre
#                                CCDC 
#
#######################################################################
#
# If this CIF has been generated from an entry in the Cambridge 
# Structural Database, then it will include bibliographic, chemical, 
# crystal, experimental, refinement or atomic coordinate data resulting 
# from the CCDC's data processing and validation procedures.
#
#######################################################################

data_FOKBIS
_symmetry_cell_setting           triclinic
_symmetry_space_group_name_H-M   'P -1'
_symmetry_Int_Tables_number      2
_space_group_name_Hall           '-P 1'
loop_
_symmetry_equiv_pos_site_id
_symmetry_equiv_pos_as_xyz
1 x,y,z
2 -x,-y,-z
_cell_length_a                   9.892(6)
_cell_length_b                   12.291(8)
_cell_length_c                   12.810(8)
_cell_angle_alpha                114.692(7)
_cell_angle_beta                 95.435(7)
_cell_angle_gamma                107.515(7)
_cell_volume                     1305.06
loop_
_atom_site_label
_atom_site_type_symbol
_atom_site_fract_x
_atom_site_fract_y
_atom_site_fract_z
Zn1 Zn 0.64779(9) 0.47571(9) 0.59959(8)
N1 N 0.9131(9) 0.2427(9) 0.9561(7)
N2 N 0.0695(9) 0.0755(8) 0.7080(7)
N3 N 0.6363(7) 0.3116(7) 0.4373(5)
N4 N 0.6623(7) -0.3543(7) -0.2415(5)
O1 O 0.9513(10) 0.5352(10) 0.6717(8)
O2 O 0.7512(8) 0.4260(7) 0.6977(5)
O3 O 0.6742(6) 0.1879(7) 0.6990(6)
H1 H 0.6039 0.1364 0.7046
O4 O 0.6636(7) 0.3381(9) 0.8661(5)
O5 O 0.7853(9) 0.1850(13) 0.9202(10)
O6 O 0.9828(10) 0.2345(11) 1.0301(8)
O7 O 0.2928(7) 0.4115(7) 0.4759(5)
O8 O 0.4381(6) 0.3838(6) 0.5960(5)
O9 O 0.3943(6) 0.1450(6) 0.6169(5)
O10 O 0.4026(6) 0.3122(6) 0.7841(5)
H2 H 0.4869 0.3181 0.8034
O11 O 0.1863(9) 0.0779(9) 0.7487(8)
O12 O -0.0431(9) 0.0232(9) 0.7234(7)
C1 C 0.9674(9) 0.4306(8) 0.7904(6)
C2 C 0.8961(8) 0.3490(8) 0.8320(6)
C3 C 0.9824(9) 0.3260(9) 0.9063(7)
C4 C 1.1340(9) 0.3788(10) 0.9358(7)
H3 H 1.1882 0.3606 0.9853
C5 C 1.2024(9) 0.4567(10) 0.8923(7)
H4 H 1.3043 0.4919 0.9109
C6 C 1.1217(9) 0.4839(9) 0.8206(7)
H5 H 1.1694 0.5384 0.7914
C7 C 0.8869(11) 0.4687(10) 0.7126(8)
C8 C 0.7311(9) 0.2903(10) 0.7984(7)
C9 C 0.1849(8) 0.2755(8) 0.5555(6)
C10 C 0.1936(8) 0.2130(8) 0.6220(6)
C11 C 0.0668(9) 0.1411(9) 0.6352(7)
C12 C -0.0703(9) 0.1268(9) 0.5814(8)
H6 H -0.1546 0.0770 0.5913
C13 C -0.0800(9) 0.1861(10) 0.5138(8)
H7 H -0.1716 0.1760 0.4766
C14 C 0.0438(9) 0.2606(10) 0.5003(7)
H8 H 0.0359 0.3019 0.4548
C15 C 0.3174(9) 0.3642(9) 0.5427(7)
C16 C 0.3428(9) 0.2234(9) 0.6781(7)
C17 C 0.7240(8) 0.3181(9) 0.3646(7)
H9 H 0.8051 0.3937 0.3891
C18 C 0.6959(10) 0.2133(10) 0.2525(7)
H10 H 0.7592 0.2210 0.2045
C19 C 0.5794(9) 0.1014(8) 0.2121(7)
C20 C 0.5006(10) 0.0959(9) 0.2936(7)
H11 H 0.4233 0.0193 0.2737
C21 C 0.5312(9) 0.1971(9) 0.4010(7)
H12 H 0.4756 0.1865 0.4531
C22 C 0.5138(10) -0.0068(9) 0.0839(7)
H13 H 0.4731 -0.0910 0.0821
C23 C 0.6070(9) -0.0131(9) -0.0067(7)
H14 H 0.6983 0.0634 0.0288
C24 C 0.7568(9) -0.2379(9) -0.2118(7)
H15 H 0.8318 -0.2316 -0.2502
C25 C 0.7517(10) -0.1253(10) -0.1278(8)
H16 H 0.8229 -0.0458 -0.1088
C26 C 0.6376(10) -0.1321(9) -0.0714(7)
C27 C 0.5502(9) -0.2528(9) -0.0924(7)
H17 H 0.4823 -0.2625 -0.0482
C28 C 0.5631(10) -0.3586(9) -0.1783(7)
H18 H 0.4983 -0.4395 -0.1940
N3A N 0.3637(7) -0.3116(7) -0.4373(5)
N4A N 0.3377(7) 0.3543(7) 0.2415(5)
C17A C 0.2760(8) -0.3181(9) -0.3646(7)
H9A H 0.1949 -0.3937 -0.3891
C18A C 0.3041(10) -0.2133(10) -0.2525(7)
H10A H 0.2408 -0.2210 -0.2045
C19A C 0.4206(9) -0.1014(8) -0.2121(7)
C20A C 0.4994(10) -0.0959(9) -0.2936(7)
H11A H 0.5767 -0.0193 -0.2737
C21A C 0.4688(9) -0.1971(9) -0.4010(7)
H12A H 0.5244 -0.1865 -0.4531
C22A C 0.4862(10) 0.0068(9) -0.0839(7)
H13A H 0.5269 0.0910 -0.0821
C23A C 0.3930(9) 0.0131(9) 0.0067(7)
H14A H 0.3017 -0.0634 -0.0288
C24A C 0.2432(9) 0.2379(9) 0.2118(7)
H15A H 0.1682 0.2316 0.2502
C25A C 0.2483(10) 0.1253(10) 0.1278(8)
H16A H 0.1771 0.0458 0.1088
C26A C 0.3624(10) 0.1321(9) 0.0714(7)
C27A C 0.4498(9) 0.2528(9) 0.0924(7)
H17A H 0.5177 0.2625 0.0482
C28A C 0.4369(10) 0.3586(9) 0.1783(7)
H18A H 0.5017 0.4395 0.1940
Zn1A Zn 0.35221(9) -0.47571(9) -0.59959(8)
N1A N 0.0869(9) -0.2427(9) -0.9561(7)
N2A N 0.9305(9) -0.0755(8) -0.7080(7)
O1A O 0.0487(10) -0.5352(10) -0.6717(8)
O2A O 0.2488(8) -0.4260(7) -0.6977(5)
O3A O 0.3258(6) -0.1879(7) -0.6990(6)
H1A H 0.3961 -0.1364 -0.7046
O4A O 0.3364(7) -0.3381(9) -0.8661(5)
O5A O 0.2147(9) -0.1850(13) -0.9202(10)
O6A O 0.0172(10) -0.2345(11) -1.0301(8)
O7A O 0.7072(7) -0.4115(7) -0.4759(5)
O8A O 0.5619(6) -0.3838(6) -0.5960(5)
O9A O 0.6057(6) -0.1450(6) -0.6169(5)
O10A O 0.5974(6) -0.3122(6) -0.7841(5)
H2A H 0.5131 -0.3181 -0.8034
O11A O 0.8137(9) -0.0779(9) -0.7487(8)
O12A O 1.0431(9) -0.0232(9) -0.7234(7)
C1A C 0.0326(9) -0.4306(8) -0.7904(6)
C2A C 0.1039(8) -0.3490(8) -0.8320(6)
C3A C 0.0176(9) -0.3260(9) -0.9063(7)
C4A C -0.1340(9) -0.3788(10) -0.9358(7)
H3A H -0.1882 -0.3606 -0.9853
C5A C -0.2024(9) -0.4567(10) -0.8923(7)
H4A H -0.3043 -0.4919 -0.9109
C6A C -0.1217(9) -0.4839(9) -0.8206(7)
H5A H -0.1694 -0.5384 -0.7914
C7A C 0.1131(11) -0.4687(10) -0.7126(8)
C8A C 0.2689(9) -0.2903(10) -0.7984(7)
C9A C 0.8151(8) -0.2755(8) -0.5555(6)
C10A C 0.8064(8) -0.2130(8) -0.6220(6)
C11A C 0.9332(9) -0.1411(9) -0.6352(7)
C12A C 1.0703(9) -0.1268(9) -0.5814(8)
H6A H 1.1546 -0.0770 -0.5913
C13A C 1.0800(9) -0.1861(10) -0.5138(8)
H7A H 1.1716 -0.1760 -0.4766
C14A C 0.9562(9) -0.2606(10) -0.5003(7)
H8A H 0.9641 -0.3019 -0.4548
C15A C 0.6826(9) -0.3642(9) -0.5427(7)
C16A C 0.6572(9) -0.2234(9) -0.6781(7)
Zn1_2 Zn 0.64779(9) -0.52429(9) -0.40041(8)
Zn1A_2 Zn 0.35221(9) 0.52429(9) 0.40041(8)
N4_2 N 0.6623(7) 0.6457(7) 0.7585(5)
N4A_2 N 0.3377(7) -0.6457(7) -0.7585(5)
O7_2 O 0.2928(7) -0.5885(7) -0.5241(5)
O7A_2 O 0.7072(7) 0.5885(7) 0.5241(5)
loop_
_geom_bond_atom_site_label_1
_geom_bond_atom_site_label_2
_geom_bond_site_symmetry_1
_geom_bond_site_symmetry_2
Zn1 N3 1_555 1_555
N1 O5 1_555 1_555
N2 O11 1_555 1_555
N3 C17 1_555 1_555
N4 C24 1_555 1_555
O1 C7 1_555 1_555
O2 Zn1 1_555 1_555
O3 H1 1_555 1_555
O4 C8 1_555 1_555
O6 N1 1_555 1_555
O7 C15 1_555 1_555
O8 Zn1 1_555 1_555
O9 C16 1_555 1_555
O10 H2 1_555 1_555
O12 N2 1_555 1_555
C1 C2 1_555 1_555
C2 C3 1_555 1_555
C3 N1 1_555 1_555
C4 C3 1_555 1_555
H3 C4 1_555 1_555
C5 C4 1_555 1_555
H4 C5 1_555 1_555
C6 C1 1_555 1_555
H5 C6 1_555 1_555
C7 O2 1_555 1_555
C8 O3 1_555 1_555
C9 C10 1_555 1_555
C10 C11 1_555 1_555
C11 N2 1_555 1_555
C12 C11 1_555 1_555
H6 C12 1_555 1_555
C13 C12 1_555 1_555
H7 C13 1_555 1_555
C14 C9 1_555 1_555
H8 C14 1_555 1_555
C15 O8 1_555 1_555
C16 O10 1_555 1_555
C17 H9 1_555 1_555
C18 C17 1_555 1_555
H10 C18 1_555 1_555
C19 C18 1_555 1_555
C20 C19 1_555 1_555
H11 C20 1_555 1_555
C21 N3 1_555 1_555
H12 C21 1_555 1_555
C22 C19 1_555 1_555
H13 C22 1_555 1_555
C23 C22 1_555 1_555
H14 C23 1_555 1_555
C24 H15 1_555 1_555
C25 C24 1_555 1_555
H16 C25 1_555 1_555
C26 C23 1_555 1_555
C27 C26 1_555 1_555
H17 C27 1_555 1_555
C28 N4 1_555 1_555
H18 C28 1_555 1_555
N3A C17A 1_555 1_555
N4A C24A 1_555 1_555
C17A H9A 1_555 1_555
C18A C17A 1_555 1_555
H10A C18A 1_555 1_555
C19A C18A 1_555 1_555
C20A C19A 1_555 1_555
H11A C20A 1_555 1_555
C21A N3A 1_555 1_555
H12A C21A 1_555 1_555
C22A C23 1_555 1_555
H13A C22A 1_555 1_555
C23A C22 1_555 1_555
H14A C23A 1_555 1_555
C24A H15A 1_555 1_555
C25A C24A 1_555 1_555
H16A C25A 1_555 1_555
C26A C23A 1_555 1_555
C27A C26A 1_555 1_555
H17A C27A 1_555 1_555
C28A N4A 1_555 1_555
H18A C28A 1_555 1_555
Zn1A N3A 1_555 1_555
N1A O5A 1_555 1_555
N2A O11A 1_555 1_555
O1A C7A 1_555 1_555
O2A Zn1A 1_555 1_555
O3A H1A 1_555 1_555
O4A C8A 1_555 1_555
O6A N1A 1_555 1_555
O7A C15A 1_555 1_555
O8A Zn1A 1_555 1_555
O9A C16A 1_555 1_555
O10A H2A 1_555 1_555
O12A N2A 1_555 1_555
C1A C2A 1_555 1_555
C2A C3A 1_555 1_555
C3A N1A 1_555 1_555
C4A C3A 1_555 1_555
H3A C4A 1_555 1_555
C5A C4A 1_555 1_555
H4A C5A 1_555 1_555
C6A C1A 1_555 1_555
H5A C6A 1_555 1_555
C7A O2A 1_555 1_555
C8A O3A 1_555 1_555
C9A C10A 1_555 1_555
C10A C11A 1_555 1_555
C11A N2A 1_555 1_555
C12A C11A 1_555 1_555
H6A C12A 1_555 1_555
C13A C12A 1_555 1_555
H7A C13A 1_555 1_555
C14A C9A 1_555 1_555
H8A C14A 1_555 1_555
C15A O8A 1_555 1_555
C16A O10A 1_555 1_555
Zn1_2 N4 1_555 1_555
Zn1A_2 O7 1_555 1_555
N4_2 Zn1 1_555 1_555
N4A_2 Zn1A 1_555 1_555
O7_2 Zn1A 1_555 1_555
O7A_2 Zn1 1_555 1_555
C1 C7 1_555 1_555
C2 C8 1_555 1_555
C5 C6 1_555 1_555
C9 C15 1_555 1_555
C10 C16 1_555 1_555
C13 C14 1_555 1_555
C20 C21 1_555 1_555
C25 C26 1_555 1_555
C27 C28 1_555 1_555
N4A Zn1A_2 1_555 1_555
C19A C22A 1_555 1_555
C20A C21A 1_555 1_555
C22A C23A 1_555 1_555
C25A C26A 1_555 1_555
C27A C28A 1_555 1_555
O7A Zn1_2 1_555 1_555
C1A C7A 1_555 1_555
C2A C8A 1_555 1_555
C5A C6A 1_555 1_555
C9A C15A 1_555 1_555
C10A C16A 1_555 1_555
C13A C14A 1_555 1_555

#END
