
#######################################################################
#
#                 Cambridge Crystallographic Data Centre
#                                CCDC 
#
#######################################################################
#
# If this CIF has been generated from an entry in the Cambridge 
# Structural Database, then it will include bibliographic, chemical, 
# crystal, experimental, refinement or atomic coordinate data resulting 
# from the CCDC's data processing and validation procedures.
#
#######################################################################

data_FOKFUI
_symmetry_cell_setting           monoclinic
_symmetry_space_group_name_H-M   'C 2/c'
_symmetry_Int_Tables_number      15
_space_group_name_Hall           '-C 2yn'
loop_
_symmetry_equiv_pos_site_id
_symmetry_equiv_pos_as_xyz
1 x,y,z
2 -x,y,1/2-z
3 1/2+x,1/2+y,z
4 1/2-x,1/2+y,1/2-z
5 -x,-y,-z
6 x,-y,1/2+z
7 1/2-x,1/2-y,-z
8 1/2+x,1/2-y,1/2+z
_cell_length_a                   16.8049(8)
_cell_length_b                   15.0912(6)
_cell_length_c                   18.2627(7)
_cell_angle_alpha                90
_cell_angle_beta                 111.186(5)
_cell_angle_gamma                90
_cell_volume                     4318.5
loop_
_atom_site_label
_atom_site_type_symbol
_atom_site_fract_x
_atom_site_fract_y
_atom_site_fract_z
Ag1 Ag 0.588485(17) -0.040124(18) 0.305168(13)
S1 S 0.79214(6) 0.03439(7) 0.30588(5)
O1 O 0.74732(18) 0.0030(3) 0.35330(18)
N1 N 0.42937(16) 0.13958(17) 0.38841(14)
N2 N 0.36782(17) 0.18668(17) 0.48287(14)
N3 N 0.52178(16) 0.06563(17) 0.34906(14)
F1 F 0.93833(17) -0.0027(2) 0.41549(18)
C1 C 0.4848(2) 0.2025(2) 0.37746(17)
C2 C 0.3516(2) 0.1602(2) 0.40172(16)
H1 H 0.3146 0.1086 0.3892
H2 H 0.3220 0.2078 0.3668
C3 C 0.35688(19) 0.2665(2) 0.51293(17)
C4 C 0.3777(2) 0.3187(2) 0.64447(19)
H3 H 0.3937 0.3088 0.6981
C5 C 0.45449(19) 0.05861(19) 0.36953(16)
N4 N 0.39467(18) 0.12507(18) 0.54013(15)
O2 O 0.7593(2) 0.1157(2) 0.26628(16)
C6 C 0.3799(2) 0.2508(2) 0.59352(17)
C7 C 0.3285(2) 0.3493(2) 0.4796(2)
H4 H 0.3123 0.3594 0.4260
C8 C 0.3514(2) 0.4000(2) 0.6127(2)
H5 H 0.3499 0.4468 0.6454
C9 C 0.5417(2) 0.1554(2) 0.35314(17)
C10 C 0.3262(2) 0.4148(2) 0.5310(2)
H6 H 0.3073 0.4709 0.5114
C11 C 0.4872(3) 0.2939(2) 0.3846(2)
H7 H 0.4492 0.3247 0.4017
F2 F 0.8857(3) 0.1177(2) 0.4319(2)
F3 F 0.9392(2) 0.1098(3) 0.3452(3)
C12 C 0.6051(2) 0.1995(3) 0.3342(2)
H8 H 0.6443 0.1689 0.3186
C13 C 0.6065(3) 0.2900(3) 0.3398(3)
H9 H 0.6468 0.3216 0.3265
C14 C 0.5489(3) 0.3363(3) 0.3651(3)
H10 H 0.5527 0.3977 0.3688
O3 O 0.8123(3) -0.0292(3) 0.2591(3)
C15 C 0.8946(3) 0.0643(3) 0.3757(3)
N5 N 0.40219(19) 0.16249(18) 0.60680(15)
C16 C 0.41162(19) -0.0262(2) 0.37198(17)
C17 C 0.3912(2) -0.0505(2) 0.43637(19)
H11 H 0.4038 -0.0128 0.4794
N6 N 0.39542(17) -0.07977(17) 0.30923(15)
C18 C 0.3578(2) -0.1573(2) 0.3104(2)
H12 H 0.3466 -0.1947 0.2673
C19 C 0.3347(2) -0.1850(2) 0.3715(2)
H13 H 0.3077 -0.2393 0.3694
C20 C 0.3521(2) -0.1310(2) 0.4358(2)
H14 H 0.3378 -0.1483 0.4784
Ag1A Ag 0.411515(17) -0.040124(18) 0.194832(13)
Ag1D Ag 0.411515(17) 0.040124(18) 0.694832(13)
N5D N 0.59781(19) -0.16249(18) 0.39320(15)
N6A N 0.60458(17) -0.07977(17) 0.19077(15)
loop_
_geom_bond_atom_site_label_1
_geom_bond_atom_site_label_2
_geom_bond_site_symmetry_1
_geom_bond_site_symmetry_2
Ag1 O1 1_555 1_555
S1 O1 1_555 1_555
N1 C1 1_555 1_555
N2 C2 1_555 1_555
N3 Ag1 1_555 1_555
F1 C15 1_555 1_555
C1 C9 1_555 1_555
C2 N1 1_555 1_555
H1 C2 1_555 1_555
H2 C2 1_555 1_555
C3 N2 1_555 1_555
C4 H3 1_555 1_555
C5 N1 1_555 1_555
N4 N2 1_555 1_555
O2 S1 1_555 1_555
C6 C3 1_555 1_555
C7 C3 1_555 1_555
H4 C7 1_555 1_555
C8 C4 1_555 1_555
H5 C8 1_555 1_555
C9 N3 1_555 1_555
C10 C7 1_555 1_555
H6 C10 1_555 1_555
C11 C1 1_555 1_555
H7 C11 1_555 1_555
F2 C15 1_555 1_555
F3 C15 1_555 1_555
C12 C9 1_555 1_555
H8 C12 1_555 1_555
C13 C12 1_555 1_555
H9 C13 1_555 1_555
C14 C11 1_555 1_555
H10 C14 1_555 1_555
O3 S1 1_555 1_555
C15 S1 1_555 1_555
N5 N4 1_555 1_555
C16 C5 1_555 1_555
C17 C16 1_555 1_555
H11 C17 1_555 1_555
N6 C16 1_555 1_555
C18 N6 1_555 1_555
H12 C18 1_555 1_555
C19 C18 1_555 1_555
H13 C19 1_555 1_555
C20 C17 1_555 1_555
H14 C20 1_555 1_555
Ag1A Ag1 1_555 1_555
Ag1D N5 1_555 1_555
N5D Ag1 1_555 1_555
N6A Ag1 1_555 1_555
N3 C5 1_555 1_555
C4 C6 1_555 1_555
C6 N5 1_555 1_555
C8 C10 1_555 1_555
C13 C14 1_555 1_555
N6 Ag1A 1_555 1_555
C19 C20 1_555 1_555

#END
