
#######################################################################
#
#                 Cambridge Crystallographic Data Centre
#                                CCDC 
#
#######################################################################
#
# If this CIF has been generated from an entry in the Cambridge 
# Structural Database, then it will include bibliographic, chemical, 
# crystal, experimental, refinement or atomic coordinate data resulting 
# from the CCDC's data processing and validation procedures.
#
#######################################################################

data_FOKHIW
_symmetry_cell_setting           monoclinic
_symmetry_space_group_name_H-M   'P 21'
_symmetry_Int_Tables_number      4
_space_group_name_Hall           'P 2yb'
loop_
_symmetry_equiv_pos_site_id
_symmetry_equiv_pos_as_xyz
1 x,y,z
2 -x,1/2+y,-z
_cell_length_a                   8.867(2)
_cell_length_b                   7.126(1)
_cell_length_c                   19.207(3)
_cell_angle_alpha                90
_cell_angle_beta                 103.67(2)
_cell_angle_gamma                90
_cell_volume                     1179.24
loop_
_atom_site_label
_atom_site_type_symbol
_atom_site_fract_x
_atom_site_fract_y
_atom_site_fract_z
K1 K 1.1257(1) 0.8803 1.28100(6)
C1 C 0.7062(5) 0.7406(8) 1.1801(2)
O1 O 0.8623(4) 0.7242(7) 1.1950(2)
C2 C 0.6343(5) 0.7383(8) 1.2386(2)
C3 C 0.4751(5) 0.7479(8) 1.2239(2)
O2 O 0.3962(4) 0.7434(7) 1.2761(2)
C4 C 0.3845(5) 0.7626(8) 1.1533(2)
O3 O 0.2283(4) 0.7667(7) 1.1454(2)
C5 C 0.4546(5) 0.7655(8) 1.0964(2)
C6 C 0.3520(6) 0.7720(9) 0.8952(3)
C7 C 0.4178(6) 0.7722(8) 0.8366(2)
O4 O 0.3261(4) 0.7852(6) 0.7709(2)
C8 C 0.5819(6) 0.7653(8) 0.8473(2)
C9 C 0.6447(7) 0.7459(9) 0.7814(2)
O5 O 0.7780(5) 0.6904(7) 0.7848(2)
O6 O 0.5492(5) 0.7810(7) 0.7209(2)
C10 C 0.6767(6) 0.7724(8) 0.9175(2)
C11 C 0.8508(6) 0.800(1) 0.9287(3)
C12 C 0.6071(5) 0.7665(8) 0.9758(2)
C13 C 0.6985(6) 0.7522(9) 1.0511(2)
O7 O 0.8423(4) 0.7345(8) 1.0655(2)
C14 C 0.6195(2) 0.7544(8) 1.1096(2)
C15 C 0.3629(6) 0.7708(9) 1.0235(2)
O8 O 0.2194(4) 0.7746(8) 1.0104(2)
C16 C 0.4416(5) 0.7674(8) 0.9634(2)
C17 C 0.7324(5) 0.7240(7) 1.3143(2)
O9 O 0.6489(4) 0.6127(5) 1.3545(2)
C18 C 0.7670(5) 0.9181(8) 1.3504(2)
O10 O 0.8651(4) 1.0222(6) 1.3167(2)
C19 C 0.8507(5) 0.8951(8) 1.4285(2)
O11 O 0.8590(4) 1.0716(6) 1.4662(2)
C20 C 0.7680(5) 0.7593(8) 1.4670(2)
O12 O 0.8647(4) 0.7278(6) 1.5367(2)
C21 C 0.7350(5) 0.5737(7) 1.4262(2)
C22 C 0.6405(6) 0.4389(8) 1.4583(3)
O13 O 0.5116(4) 0.5236(7) 1.4782(2)
O14 O 1.3312(5) 1.1096(7) 1.3830(2)
O15 O 1.2083(5) 0.6148(7) 1.3957(2)
H1 H 0.881(8) 0.688(9) 1.146(4)
H2 H 0.453(7) 0.697(9) 1.317(3)
H3 H 0.192(7) 0.779(9) 1.097(3)
H4 H 0.253(7) 0.788(9) 0.887(3)
H5 H 0.388(8) 0.788(9) 0.735(4)
H6 H 0.873(7) 0.859(9) 0.884(3)
H7 H 0.892(7) 0.918(9) 0.972(3)
H8 H 0.900(8) 0.644(9) 0.943(4)
H9 H 0.830(7) 0.635(9) 1.311(3)
H10 H 0.671(6) 0.997(9) 1.348(3)
H11 H 0.807(6) 1.105(9) 1.286(4)
H12 H 0.958(7) 0.837(9) 1.430(3)
H13 H 0.939(9) 1.123(9) 1.460(4)
H14 H 0.675(6) 0.814(9) 1.468(3)
H15 H 0.823(7) 0.697(9) 1.573(3)
H16 H 0.824(7) 0.497(9) 1.421(3)
H17 H 0.614(7) 0.340(8) 1.421(3)
H18 H 0.708(7) 0.380(9) 1.506(3)
H19 H 0.439(8) 0.545(9) 1.449(4)
H20 H 1.372(9) 1.172(9) 1.346(4)
H21 H 1.386(9) 1.086(9) 1.430(4)
H22 H 1.188(9) 0.603(9) 1.440(4)
H23 H 1.151(9) 0.547(9) 1.357(4)
O2_2 O 1.3962(4) 0.7434(7) 1.2761(2)
O5A O 1.2220(5) 1.1904(7) 1.2152(2)
K1_2 K 0.1257(1) 0.8803 1.28100(6)
K1A K 0.8743(1) 0.3803 0.71900(6)
H2_2 H 1.453(7) 0.697(9) 1.317(3)
O16 O 1.9580(6) 0.909(1) 1.7164(3)
H24 H 1.898(9) 0.835(9) 1.739(4)
H25 H 2.021(9) 1.009(9) 1.745(4)
loop_
_geom_bond_atom_site_label_1
_geom_bond_atom_site_label_2
_geom_bond_site_symmetry_1
_geom_bond_site_symmetry_2
K1 O1 1_555 1_555
C1 O1 1_555 1_555
O1 H1 1_555 1_555
C2 C1 1_555 1_555
C3 C2 1_555 1_555
O2 C3 1_555 1_555
C4 C3 1_555 1_555
O3 C4 1_555 1_555
C5 C4 1_555 1_555
C6 C7 1_555 1_555
C7 O4 1_555 1_555
O4 H5 1_555 1_555
C8 C7 1_555 1_555
C9 C8 1_555 1_555
O5 C9 1_555 1_555
O6 C9 1_555 1_555
C10 C8 1_555 1_555
C11 C10 1_555 1_555
C12 C10 1_555 1_555
C13 C12 1_555 1_555
O7 C13 1_555 1_555
C14 C1 1_555 1_555
C15 C5 1_555 1_555
O8 C15 1_555 1_555
C16 C6 1_555 1_555
C17 C2 1_555 1_555
O9 C17 1_555 1_555
C18 C17 1_555 1_555
O10 K1 1_555 1_555
C19 C18 1_555 1_555
O11 C19 1_555 1_555
C20 C19 1_555 1_555
O12 C20 1_555 1_555
C21 O9 1_555 1_555
C22 C21 1_555 1_555
O13 C22 1_555 1_555
O14 K1 1_555 1_555
O15 K1 1_555 1_555
O16 H24 1_555 1_555
H2 O2 1_555 1_555
H3 O3 1_555 1_555
H4 C6 1_555 1_555
H6 C11 1_555 1_555
H7 C11 1_555 1_555
H8 C11 1_555 1_555
H9 C17 1_555 1_555
H10 C18 1_555 1_555
H11 O10 1_555 1_555
H12 C19 1_555 1_555
H13 O11 1_555 1_555
H14 C20 1_555 1_555
H15 O12 1_555 1_555
H16 C21 1_555 1_555
H17 C22 1_555 1_555
H18 C22 1_555 1_555
H19 O13 1_555 1_555
H20 O14 1_555 1_555
H21 O14 1_555 1_555
H22 O15 1_555 1_555
H23 O15 1_555 1_555
H25 O16 1_555 1_555
O2_2 K1 1_555 1_555
O5A K1 1_555 1_555
K1_2 O2 1_555 1_555
K1A O5 1_555 1_555
H2_2 O2_2 1_555 1_555
C5 C14 1_555 1_555
C12 C16 1_555 1_555
C13 C14 1_555 1_555
C15 C16 1_555 1_555
C18 O10 1_555 1_555
C20 C21 1_555 1_555

#END
