
#######################################################################
#
#                 Cambridge Crystallographic Data Centre
#                                CCDC 
#
#######################################################################
#
# If this CIF has been generated from an entry in the Cambridge 
# Structural Database, then it will include bibliographic, chemical, 
# crystal, experimental, refinement or atomic coordinate data resulting 
# from the CCDC's data processing and validation procedures.
#
#######################################################################

data_FOKKUN
_symmetry_cell_setting           monoclinic
_symmetry_space_group_name_H-M   'P 21/n'
_symmetry_Int_Tables_number      14
_space_group_name_Hall           '-P 2yn'
loop_
_symmetry_equiv_pos_site_id
_symmetry_equiv_pos_as_xyz
1 x,y,z
2 1/2-x,1/2+y,1/2-z
3 -x,-y,-z
4 1/2+x,1/2-y,1/2+z
_cell_length_a                   7.5321(3)
_cell_length_b                   8.5648(4)
_cell_length_c                   16.6328(6)
_cell_angle_alpha                90
_cell_angle_beta                 91.126(3)
_cell_angle_gamma                90
_cell_volume                     1072.79
loop_
_atom_site_label
_atom_site_type_symbol
_atom_site_fract_x
_atom_site_fract_y
_atom_site_fract_z
Cu1 Cu 0.17164(4) 0.11860(3) 0.041306(16)
N1 N 0.2299(3) 0.3422(3) 0.01506(12)
N2 N 0.2761(3) 0.4465(3) 0.07312(12)
N3 N 0.0630(3) 0.1959(2) 0.14403(12)
N4 N 0.1243(3) 0.3285(3) 0.18079(12)
N5 N 0.0719(4) -0.2322(3) 0.18109(16)
N6 N 0.0798(3) -0.1627(3) 0.12120(13)
N7 N 0.0857(3) -0.0987(2) 0.05770(13)
O1 O 0.3068(2) 0.0531(2) -0.05468(10)
O2 O 0.5498(2) -0.0676(2) -0.09610(10)
C1 C 0.2306(4) 0.4233(3) -0.05256(17)
H1 H 0.2014 0.3821 -0.1028
C2 C 0.2800(4) 0.5774(4) -0.03932(19)
H2 H 0.2915 0.6562 -0.0774
C3 C 0.3081(4) 0.5879(3) 0.04137(19)
H3 H 0.3432 0.6768 0.0696
C4 C 0.2905(4) 0.3949(3) 0.15568(16)
H4 H 0.3839 0.3175 0.1609
H5 H 0.3215 0.4827 0.1900
C5 C 0.0159(4) 0.3733(3) 0.23890(16)
H6 H 0.0307 0.4600 0.2721
C6 C -0.1206(4) 0.2689(3) 0.24076(16)
H7 H -0.2168 0.2699 0.2750
C7 C -0.0858(4) 0.1610(3) 0.18093(16)
H8 H -0.1574 0.0755 0.1685
C8 C 0.4598(3) -0.0049(3) -0.04358(14)
O1B O 0.6932(2) -0.0531(2) 0.05468(10)
C8B C 0.5402(3) 0.0049(3) 0.04358(14)
O2B O 0.4502(2) 0.0676(2) 0.09610(10)
Cu1B Cu -0.17164(4) -0.11860(3) -0.041306(16)
N1B N -0.2299(3) -0.3422(3) -0.01506(12)
N2B N -0.2761(3) -0.4465(3) -0.07312(12)
N3B N -0.0630(3) -0.1959(2) -0.14403(12)
N4B N -0.1243(3) -0.3285(3) -0.18079(12)
N5B N -0.0719(4) 0.2322(3) -0.18109(16)
N6B N -0.0798(3) 0.1627(3) -0.12120(13)
N7B N -0.0857(3) 0.0987(2) -0.05770(13)
C1B C -0.2306(4) -0.4233(3) 0.05256(17)
H1B H -0.2014 -0.3821 0.1028
C2B C -0.2800(4) -0.5774(4) 0.03932(19)
H2B H -0.2915 -0.6562 0.0774
C3B C -0.3081(4) -0.5879(3) -0.04137(19)
H3B H -0.3432 -0.6768 -0.0696
C4B C -0.2905(4) -0.3949(3) -0.15568(16)
H4B H -0.3839 -0.3175 -0.1609
H5B H -0.3215 -0.4827 -0.1900
C5B C -0.0159(4) -0.3733(3) -0.23890(16)
H6B H -0.0307 -0.4600 -0.2721
C6B C 0.1206(4) -0.2689(3) -0.24076(16)
H7B H 0.2168 -0.2699 -0.2750
C7B C 0.0858(4) -0.1610(3) -0.18093(16)
H8B H 0.1574 -0.0755 -0.1685
Cu1B_2 Cu 0.82836(4) -0.11860(3) -0.041306(16)
O1B_2 O -0.3068(2) -0.0531(2) 0.05468(10)
O2_2 O -0.4502(2) -0.0676(2) -0.09610(10)
loop_
_geom_bond_atom_site_label_1
_geom_bond_atom_site_label_2
_geom_bond_site_symmetry_1
_geom_bond_site_symmetry_2
Cu1 N1 1_555 1_555
N1 N2 1_555 1_555
N2 C3 1_555 1_555
N3 Cu1 1_555 1_555
N4 N3 1_555 1_555
N5 N6 1_555 1_555
N6 N7 1_555 1_555
N7 Cu1 1_555 1_555
O1 Cu1 1_555 1_555
O2 C8 1_555 1_555
C1 N1 1_555 1_555
H1 C1 1_555 1_555
C2 C1 1_555 1_555
H2 C2 1_555 1_555
C3 C2 1_555 1_555
H3 C3 1_555 1_555
C4 N2 1_555 1_555
H4 C4 1_555 1_555
H5 C4 1_555 1_555
C5 N4 1_555 1_555
H6 C5 1_555 1_555
C6 C5 1_555 1_555
H7 C6 1_555 1_555
C7 N3 1_555 1_555
H8 C7 1_555 1_555
C8 O1 1_555 1_555
O1B C8B 1_555 1_555
C8B C8 1_555 1_555
O2B Cu1 1_555 1_555
Cu1B N7 1_555 1_555
N1B Cu1B 1_555 1_555
N2B N1B 1_555 1_555
N3B Cu1B 1_555 1_555
N4B N3B 1_555 1_555
N5B N6B 1_555 1_555
N6B N7B 1_555 1_555
N7B Cu1 1_555 1_555
C1B N1B 1_555 1_555
H1B C1B 1_555 1_555
C2B C1B 1_555 1_555
H2B C2B 1_555 1_555
C3B N2B 1_555 1_555
H3B C3B 1_555 1_555
C4B N2B 1_555 1_555
H4B C4B 1_555 1_555
H5B C4B 1_555 1_555
C5B N4B 1_555 1_555
H6B C5B 1_555 1_555
C6B C5B 1_555 1_555
H7B C6B 1_555 1_555
C7B N3B 1_555 1_555
H8B C7B 1_555 1_555
Cu1B_2 O2 1_555 1_555
O1B_2 Cu1B 1_555 1_555
O2_2 Cu1B 1_555 1_555
N4 C4 1_555 1_555
C6 C7 1_555 1_555
O1B Cu1B_2 1_555 1_555
C8B O2B 1_555 1_555
Cu1B N7B 1_555 1_555
N4B C4B 1_555 1_555
C2B C3B 1_555 1_555
C6B C7B 1_555 1_555

#END
