
#######################################################################
#
#                 Cambridge Crystallographic Data Centre
#                                CCDC 
#
#######################################################################
#
# If this CIF has been generated from an entry in the Cambridge 
# Structural Database, then it will include bibliographic, chemical, 
# crystal, experimental, refinement or atomic coordinate data resulting 
# from the CCDC's data processing and validation procedures.
#
#######################################################################

data_FOKKOH
_symmetry_cell_setting           triclinic
_symmetry_space_group_name_H-M   'P 1'
_symmetry_Int_Tables_number      1
_space_group_name_Hall           'P 1'
loop_
_symmetry_equiv_pos_site_id
_symmetry_equiv_pos_as_xyz
1 x,y,z
_cell_length_a                   9.162(1)
_cell_length_b                   11.105(1)
_cell_length_c                   11.262(1)
_cell_angle_alpha                104.493(2)
_cell_angle_beta                 98.356(2)
_cell_angle_gamma                97.679(2)
_cell_volume                     1080.18
loop_
_atom_site_label
_atom_site_type_symbol
_atom_site_fract_x
_atom_site_fract_y
_atom_site_fract_z
Cu1 Cu 0.52711(9) 0.53670(8) 0.68944(8)
Cu2 Cu 0.96347(8) 0.48237(7) 0.19388(7)
Br1 Br 1.12688(7) 0.76620(7) 0.94513(7)
Br2 Br -0.06963(8) 0.26043(7) 0.52717(7)
Br3 Br 0.90808(15) -0.00106(11) 0.88662(12)
O1 O 0.8940(5) 0.5224(4) 0.3538(4)
O2 O 1.1337(6) 0.5720(5) 0.4466(5)
O3 O 0.0205(5) 0.4408(4) 1.0277(5)
O4 O 0.2635(6) 0.5119(6) 1.0998(5)
O5 O 0.5553(5) 0.3594(5) 0.6350(5)
O6 O 0.6389(6) 0.4010(5) 0.8375(5)
O7 O 0.4314(6) 0.5284(6) 0.4838(5)
H1 H 0.4650 0.5643 0.4223
H2 H 0.3349 0.5436 0.4977
O8 O 0.7252(6) 0.4253(5) 0.0882(5)
H3 H 0.7093 0.4014 -0.0004
H4 H 0.6955 0.3573 0.1217
N1 N 0.7465(6) 0.5946(6) 0.6861(6)
N2 N 0.3304(6) 0.4690(5) 0.7319(6)
N3 N 0.6258(10) -0.0088(8) 0.5689(9)
N4 N 0.9823(6) 0.6685(5) 0.2010(6)
N5 N 0.9798(6) 1.3068(5) 0.2096(5)
C1 C 0.7966(8) 0.5653(7) 0.5790(7)
H5 H 0.7274 0.5227 0.5053
C2 C 0.9483(8) 0.5955(7) 0.5713(8)
C3 C 1.0474(7) 0.6560(6) 0.6809(7)
H6 H 1.1502 0.6775 0.6811
C4 C 0.9919(8) 0.6847(7) 0.7915(7)
C5 C 0.8433(8) 0.6542(7) 0.7914(7)
H7 H 0.8082 0.6756 0.8670
C6 C 0.9995(8) 0.5608(7) 0.4487(7)
C7 C 0.3084(8) 0.4878(7) 0.8494(7)
H8 H 0.3876 0.5340 0.9144
C8 C 0.1728(8) 0.4420(7) 0.8802(7)
C9 C 0.0562(8) 0.3768(7) 0.7843(7)
H9 H -0.0384 0.3491 0.8006
C10 C 0.0819(8) 0.3532(7) 0.6643(8)
C11 C 0.2200(8) 0.3995(7) 0.6395(7)
H10 H 0.2357 0.3816 0.5567
C12 C 0.1514(9) 0.4680(6) 1.0147(7)
C13 C 0.5916(10) 0.1096(9) 0.5953(8)
H11 H 0.5300 0.1321 0.5330
C14 C 0.6429(9) 0.1970(8) 0.7082(8)
C15 C 0.7359(9) 0.1647(7) 0.8003(8)
H12 H 0.7706 0.2208 0.8803
C16 C 0.7753(10) 0.0447(8) 0.7681(10)
C17 C 0.7196(13) -0.0364(9) 0.6554(12)
H13 H 0.7484 -0.1162 0.6369
C18 C 0.6096(8) 0.3297(8) 0.7333(8)
C19 C 1.1048(8) 0.7534(7) 0.2563(7)
H14 H 1.1896 0.7255 0.2905
C20 C 1.1141(8) 0.8813(7) 0.2662(7)
H15 H 1.2043 0.9378 0.3040
C21 C 0.9879(8) 0.9257(6) 0.2194(7)
C22 C 0.8589(9) 0.8343(7) 0.1594(8)
H16 H 0.7718 0.8581 0.1239
C23 C 0.8628(8) 0.7087(7) 0.1538(8)
H17 H 0.7758 0.6486 0.1144
C24 C 1.1074(9) 1.2621(7) 0.2152(8)
H18 H 1.1955 1.3162 0.2150
C25 C 1.1183(9) 1.1414(7) 0.2212(8)
H19 H 1.2113 1.1143 0.2246
C26 C 0.9871(8) 1.0590(7) 0.2220(7)
C27 C 0.8574(8) 1.1068(7) 0.2196(7)
H20 H 0.7679 1.0550 0.2208
C28 C 0.8552(8) 1.2314(6) 0.2154(7)
H21 H 0.7650 1.2629 0.2166
Br4 Br 0.1709(4) 1.0423(3) 0.6025(2)
O9 O 0.4860(11) 0.7076(6) 0.7362(6)
O10 O 0.5671(9) 0.7662(6) 0.9423(6)
N6 N 0.4030(8) 1.1058(5) 0.9510(3)
C29 C 0.4646(6) 1.0034(5) 0.9509(3)
H22 H 0.5223 0.9985 1.0272
C30 C 0.4482(5) 0.9048(4) 0.8452(4)
C31 C 0.3561(5) 0.9147(3) 0.7335(3)
H23 H 0.3381 0.8489 0.6566
C32 C 0.2946(3) 1.0243(3) 0.7426(2)
C33 C 0.3178(6) 1.1139(4) 0.8496(3)
H24 H 0.2712 1.1868 0.8533
C34 C 0.5057(8) 0.7820(5) 0.8414(5)
Cu2_2 Cu -0.03653(8) 0.48237(7) 1.19388(7)
Cu2_3 Cu 0.96347(8) 1.48237(7) 0.19388(7)
O3_2 O 1.0205(5) 0.4408(4) 0.0277(5)
N5_2 N 0.9798(6) 0.3068(5) 0.2096(5)
O13 O 0.6287(16) 0.6506(13) 0.3665(14)
O15 O 0.4737(9) 0.7265(8) 0.1582(8)
O16 O 0.513(2) 0.969(2) 0.302(2)
O18 O 0.5497(12) 1.2568(10) 0.3688(11)
O19 O 0.4663(9) 1.3414(8) 0.1573(8)
Br5? Br 0.1965(9) 1.0699(8) 0.6607(9)
O11? O 0.501(3) 0.7055(18) 0.7309(19)
O12? O 0.582(3) 0.7340(18) 0.935(2)
N7? N 0.427(2) 1.0818(15) 0.9979(9)
C35? C 0.4855(17) 0.9766(14) 0.9810(11)
H25? H 0.5423 0.9598 1.0518
C36? C 0.4676(16) 0.8915(12) 0.8656(13)
C37? C 0.3770(14) 0.9188(10) 0.7625(10)
H26? H 0.3581 0.8628 0.6796
C38? C 0.3182(9) 1.0299(7) 0.7890(8)
C39? C 0.3427(17) 1.1056(11) 0.9042(9)
H27? H 0.2979 1.1801 0.9197
C40? C 0.522(3) 0.7657(16) 0.8421(17)
O14? O 0.563(3) 0.732(2) 0.407(2)
O17? O 0.464(3) 1.016(2) 0.244(2)
loop_
_geom_bond_atom_site_label_1
_geom_bond_atom_site_label_2
_geom_bond_site_symmetry_1
_geom_bond_site_symmetry_2
Cu1 O5 1_555 1_555
Cu2 O1 1_555 1_555
Br1 C4 1_555 1_555
Br2 C10 1_555 1_555
Br3 C16 1_555 1_555
O1 C6 1_555 1_555
O2 C6 1_555 1_555
O3 C12 1_555 1_555
O4 C12 1_555 1_555
O5 C18 1_555 1_555
O6 Cu1 1_555 1_555
O7 Cu1 1_555 1_555
H1 O7 1_555 1_555
H2 O7 1_555 1_555
O8 Cu2 1_555 1_555
H3 O8 1_555 1_555
H4 O8 1_555 1_555
N1 Cu1 1_555 1_555
N2 Cu1 1_555 1_555
N3 C13 1_555 1_555
N4 Cu2 1_555 1_555
N5 C24 1_555 1_555
C1 N1 1_555 1_555
H5 C1 1_555 1_555
C2 C1 1_555 1_555
C3 C2 1_555 1_555
H6 C3 1_555 1_555
C4 C3 1_555 1_555
C5 N1 1_555 1_555
H7 C5 1_555 1_555
C6 C2 1_555 1_555
C7 N2 1_555 1_555
H8 C7 1_555 1_555
C8 C7 1_555 1_555
C9 C8 1_555 1_555
H9 C9 1_555 1_555
C10 C9 1_555 1_555
C11 N2 1_555 1_555
H10 C11 1_555 1_555
C12 C8 1_555 1_555
C13 H11 1_555 1_555
C14 C13 1_555 1_555
C15 C14 1_555 1_555
H12 C15 1_555 1_555
C16 C15 1_555 1_555
C17 N3 1_555 1_555
H13 C17 1_555 1_555
C18 O6 1_555 1_555
C19 N4 1_555 1_555
H14 C19 1_555 1_555
C20 C19 1_555 1_555
H15 C20 1_555 1_555
C21 C20 1_555 1_555
C22 C21 1_555 1_555
H16 C22 1_555 1_555
C23 N4 1_555 1_555
H17 C23 1_555 1_555
C24 H18 1_555 1_555
C25 C24 1_555 1_555
H19 C25 1_555 1_555
C26 C21 1_555 1_555
C27 C26 1_555 1_555
H20 C27 1_555 1_555
C28 N5 1_555 1_555
H21 C28 1_555 1_555
Br4 C32 1_555 1_555
O9 Cu1 1_555 1_555
O10 C34 1_555 1_555
N6 C29 1_555 1_555
C29 H22 1_555 1_555
C30 C29 1_555 1_555
C31 C30 1_555 1_555
H23 C31 1_555 1_555
C32 C31 1_555 1_555
C33 N6 1_555 1_555
H24 C33 1_555 1_555
C34 O9 1_555 1_555
Cu2_2 O3 1_555 1_555
Cu2_3 N5 1_555 1_555
O3_2 Cu2 1_555 1_555
N5_2 Cu2 1_555 1_555
C4 C5 1_555 1_555
C10 C11 1_555 1_555
C14 C18 1_555 1_555
C16 C17 1_555 1_555
C22 C23 1_555 1_555
C25 C26 1_555 1_555
C27 C28 1_555 1_555
C30 C34 1_555 1_555
C32 C33 1_555 1_555

#END
