
#######################################################################
#
#                 Cambridge Crystallographic Data Centre
#                                CCDC 
#
#######################################################################
#
# If this CIF has been generated from an entry in the Cambridge 
# Structural Database, then it will include bibliographic, chemical, 
# crystal, experimental, refinement or atomic coordinate data resulting 
# from the CCDC's data processing and validation procedures.
#
#######################################################################

data_FOKKIB
_symmetry_cell_setting           monoclinic
_symmetry_space_group_name_H-M   'P 21/c'
_symmetry_Int_Tables_number      14
_space_group_name_Hall           '-P 2ybc'
loop_
_symmetry_equiv_pos_site_id
_symmetry_equiv_pos_as_xyz
1 x,y,z
2 -x,1/2+y,1/2-z
3 -x,-y,-z
4 x,1/2-y,1/2+z
_cell_length_a                   11.8340(10)
_cell_length_b                   22.0811(19)
_cell_length_c                   11.5723(9)
_cell_angle_alpha                90
_cell_angle_beta                 109.7610(10)
_cell_angle_gamma                90
_cell_volume                     2845.86
loop_
_atom_site_label
_atom_site_type_symbol
_atom_site_fract_x
_atom_site_fract_y
_atom_site_fract_z
Ag1 Ag 0.1900(3) 0.1973(2) 0.1585(4)
N1 N 0.3632(16) 0.2415(9) 0.2970(17)
C1 C 0.4323(19) 0.2089(10) 0.3987(18)
H1 H 0.3940 0.1787 0.4277
C2 C 0.422(2) 0.2870(10) 0.2673(19)
H2 H 0.3786 0.3117 0.2024
C3 C 0.5447(19) 0.3011(9) 0.3256(17)
H3 H 0.5796 0.3340 0.3003
C4 C 0.6115(19) 0.2644(9) 0.4216(17)
C5 C 0.5521(19) 0.2175(9) 0.4599(17)
H4 H 0.5935 0.1927 0.5255
C6 C 0.7368(18) 0.2736(9) 0.4797(17)
C7 C 0.8037(18) 0.2533(9) 0.5983(17)
H5 H 0.7634 0.2348 0.6453
C8 C 0.8046(19) 0.3041(9) 0.4197(18)
H6 H 0.7667 0.3191 0.3409
C9 C 0.9246(19) 0.2597(9) 0.6468(18)
H7 H 0.9653 0.2431 0.7234
C10 C 0.9241(19) 0.3121(9) 0.4738(17)
H8 H 0.9654 0.3339 0.4321
N2 N 0.9869(16) 0.2894(8) 0.5872(16)
Ag1C Ag 1.1900(3) 0.3027(2) 0.6585(4)
N2C N -0.0131(16) 0.2106(8) 0.0872(16)
C11 C 0.486(3) 0.0848(17) 0.035(4)
H9 H 0.5528 0.0997 0.0187
C12 C 0.365(4) 0.0004(13) 0.044(4)
H10 H 0.3431 -0.0401 0.0303
C13 C 0.298(3) 0.0402(17) 0.087(4)
H11 H 0.2302 0.0247 0.0993
C14 C 0.420(3) 0.1254(13) 0.069(4)
H12 H 0.4329 0.1669 0.0663
C15 C 0.466(4) 0.0235(16) 0.020(4)
N3 N 0.322(3) 0.0993(17) 0.112(4)
C11B C 0.514(3) -0.0848(17) -0.035(4)
H9B H 0.4472 -0.0997 -0.0187
C12B C 0.635(4) -0.0004(13) -0.044(4)
H10B H 0.6569 0.0401 -0.0303
C13B C 0.702(3) -0.0402(17) -0.087(4)
H11B H 0.7698 -0.0247 -0.0993
C14B C 0.580(3) -0.1254(13) -0.069(4)
H12B H 0.5671 -0.1669 -0.0663
C15B C 0.534(4) -0.0235(16) -0.020(4)
N3B N 0.678(3) -0.0993(17) -0.112(4)
W1 W 0.10934(6) 0.39691(3) 0.24856(6)
W2 W 0.31292(6) 0.46516(3) 0.12086(6)
W3 W -0.20230(7) 0.43276(3) 0.12966(7)
W4 W 0.10335(6) 0.35459(3) -0.04940(7)
W5 W -0.20928(7) 0.38868(4) -0.16928(7)
W6 W 0.00862(7) 0.54252(4) 0.29968(7)
P1 P 0.0000 0.5000 0.0000
O1 O 0.2533(13) 0.4290(6) 0.2377(12)
O2 O 0.2484(13) 0.3974(6) 0.0162(12)
O3 O 0.0988(12) 0.3471(6) 0.1109(12)
O4 O -0.2953(12) 0.3988(6) 0.1881(14)
O5 O -0.3066(12) 0.3359(6) -0.2462(13)
O6 O 0.0106(13) 0.5627(6) 0.4375(11)
O7 O -0.2247(18) 0.3833(6) -0.0135(12)
O8 O 0.1531(13) 0.2855(6) -0.0716(14)
O9 O 0.1594(15) 0.3473(7) 0.3675(13)
O10 O -0.1333(13) 0.4950(7) 0.2401(17)
O11 O 0.4591(12) 0.4492(9) 0.1798(13)
O12 O 0.3045(19) 0.5091(6) -0.0229(13)
O13 O -0.0653(14) 0.3447(10) -0.1059(14)
O14 O 0.3061(19) 0.5402(7) 0.1962(13)
O15 O -0.0604(12) 0.3883(7) 0.2065(17)
O16 O 0.1244(17) 0.5200(9) 0.0249(19)
O17 O 0.0866(16) 0.4543(9) 0.0520(19)
O18 O 0.016(2) 0.5566(10) 0.091(2)
O19 O -0.0133(16) 0.4746(8) 0.1157(18)
O20 O 0.0945(13) 0.4680(7) 0.3314(18)
O21 O 0.1448(12) 0.5791(10) 0.2828(16)
O22 O 0.0823(15) 0.3948(9) -0.1953(16)
O16B O -0.1244(17) 0.4800(9) -0.0249(19)
O17B O -0.0866(16) 0.5457(9) -0.0520(19)
O18B O -0.016(2) 0.4434(10) -0.091(2)
O19B O 0.0133(16) 0.5254(8) -0.1157(18)
W1B W -0.10934(6) 0.60309(3) -0.24856(6)
W2B W -0.31292(6) 0.53484(3) -0.12086(6)
W3B W 0.20230(7) 0.56724(3) -0.12966(7)
W4B W -0.10335(6) 0.64541(3) 0.04940(7)
W5B W 0.20928(7) 0.61132(4) 0.16928(7)
W6B W -0.00862(7) 0.45748(4) -0.29968(7)
O1B O -0.2533(13) 0.5710(6) -0.2377(12)
O2B O -0.2484(13) 0.6026(6) -0.0162(12)
O3B O -0.0988(12) 0.6529(6) -0.1109(12)
O4B O 0.2953(12) 0.6012(6) -0.1881(14)
O5B O 0.3066(12) 0.6641(6) 0.2462(13)
O6B O -0.0106(13) 0.4373(6) -0.4375(11)
O7B O 0.2247(18) 0.6167(6) 0.0135(12)
O8B O -0.1531(13) 0.7145(6) 0.0716(14)
O9B O -0.1594(15) 0.6527(7) -0.3675(13)
O10B O 0.1333(13) 0.5050(7) -0.2401(17)
O11B O -0.4591(12) 0.5508(9) -0.1798(13)
O12B O -0.3045(19) 0.4909(6) 0.0229(13)
O13B O 0.0653(14) 0.6553(10) 0.1059(14)
O14B O -0.3061(19) 0.4598(7) -0.1962(13)
O15B O 0.0604(12) 0.6117(7) -0.2065(17)
O20B O -0.0945(13) 0.5320(7) -0.3314(18)
O21B O -0.1448(12) 0.4209(10) -0.2828(16)
O22B O -0.0823(15) 0.6052(9) 0.1953(16)
loop_
_geom_bond_atom_site_label_1
_geom_bond_atom_site_label_2
_geom_bond_site_symmetry_1
_geom_bond_site_symmetry_2
W1 O1 1_555 1_555
W2 O1 1_555 1_555
W3 O4 1_555 1_555
W4 O2 1_555 1_555
W5 O5 1_555 1_555
W6 O6 1_555 1_555
P1 O16 1_555 1_555
O2 W2 1_555 1_555
O3 W1 1_555 1_555
O7 W3 1_555 1_555
O8 W4 1_555 1_555
O9 W1 1_555 1_555
O10 W3 1_555 1_555
O11 W2 1_555 1_555
O12 W2 1_555 1_555
O13 W4 1_555 1_555
O14 W2 1_555 1_555
O15 W1 1_555 1_555
O16 W2 1_555 1_555
O17 P1 1_555 1_555
O18 W6 1_555 1_555
O19 W1 1_555 1_555
O20 W1 1_555 1_555
O21 W6 1_555 1_555
O22 W4 1_555 1_555
Ag1 N1 1_555 1_555
N1 C1 1_555 1_555
C1 H1 1_555 1_555
C2 N1 1_555 1_555
H2 C2 1_555 1_555
C3 C2 1_555 1_555
H3 C3 1_555 1_555
C4 C3 1_555 1_555
C5 C1 1_555 1_555
H4 C5 1_555 1_555
C6 C4 1_555 1_555
C7 C6 1_555 1_555
H5 C7 1_555 1_555
C8 C6 1_555 1_555
H6 C8 1_555 1_555
C9 C7 1_555 1_555
H7 C9 1_555 1_555
C10 C8 1_555 1_555
H8 C10 1_555 1_555
N2 C9 1_555 1_555
C11 H9 1_555 1_555
C12 H10 1_555 1_555
C13 C12 1_555 1_555
H11 C13 1_555 1_555
C14 C11 1_555 1_555
H12 C14 1_555 1_555
C15 C11 1_555 1_555
N3 C13 1_555 1_555
O16B P1 1_555 1_555
O17B P1 1_555 1_555
O18B W4 1_555 1_555
O19B P1 1_555 1_555
W1B O19B 1_555 1_555
W2B O16B 1_555 1_555
W3B O12 1_555 1_555
W4B O18 1_555 1_555
W5B O14 1_555 1_555
W6B O22 1_555 1_555
O1B W1B 1_555 1_555
O2B W2B 1_555 1_555
O3B W1B 1_555 1_555
O4B W3B 1_555 1_555
O5B W5B 1_555 1_555
O6B W6B 1_555 1_555
O7B W3B 1_555 1_555
O8B W4B 1_555 1_555
O9B W1B 1_555 1_555
O10B W3B 1_555 1_555
O11B W2B 1_555 1_555
O12B W3 1_555 1_555
O13B W4B 1_555 1_555
O14B W5 1_555 1_555
O15B W1B 1_555 1_555
O20B W1B 1_555 1_555
O21B W5 1_555 1_555
O22B W6 1_555 1_555
Ag1C N2 1_555 1_555
N2C Ag1 1_555 1_555
C11B H9B 1_555 1_555
C12B H10B 1_555 1_555
C13B C12B 1_555 1_555
H11B C13B 1_555 1_555
C14B C11B 1_555 1_555
H12B C14B 1_555 1_555
C15B C15 1_555 1_555
N3B C13B 1_555 1_555
W3 O15 1_555 1_555
W3 O19 1_555 1_555
W4 O3 1_555 1_555
W5 O7 1_555 1_555
W5 O13 1_555 1_555
W5 O18B 1_555 1_555
W6 O10 1_555 1_555
W6 O20 1_555 1_555
P1 O18 1_555 1_555
P1 O19 1_555 1_555
P1 O18B 1_555 1_555
O16 O17 1_555 1_555
O16 O19B 1_555 1_555
O17 O19 1_555 1_555
O17 O18B 1_555 1_555
O18 O17B 1_555 1_555
O18 W5B 1_555 1_555
O19 O16B 1_555 1_555
O21 W5B 1_555 1_555
C4 C5 1_555 1_555
C10 N2 1_555 1_555
C12 C15 1_555 1_555
C14 N3 1_555 1_555
O16B O17B 1_555 1_555
O17B O19B 1_555 1_555
O18B W6B 1_555 1_555
O19B W3B 1_555 1_555
W2B O1B 1_555 1_555
W2B O12B 1_555 1_555
W2B O14B 1_555 1_555
W3B O15B 1_555 1_555
W4B O2B 1_555 1_555
W4B O3B 1_555 1_555
W4B O22B 1_555 1_555
W5B O7B 1_555 1_555
W5B O13B 1_555 1_555
W6B O10B 1_555 1_555
W6B O20B 1_555 1_555
W6B O21B 1_555 1_555
C11B C15B 1_555 1_555
C12B C15B 1_555 1_555
C14B N3B 1_555 1_555

#END
