
#######################################################################
#
#                 Cambridge Crystallographic Data Centre
#                                CCDC 
#
#######################################################################
#
# If this CIF has been generated from an entry in the Cambridge 
# Structural Database, then it will include bibliographic, chemical, 
# crystal, experimental, refinement or atomic coordinate data resulting 
# from the CCDC's data processing and validation procedures.
#
#######################################################################

data_FOKLAU
_symmetry_cell_setting           monoclinic
_symmetry_space_group_name_H-M   'P 21/c'
_symmetry_Int_Tables_number      14
_space_group_name_Hall           '-P 2ybc'
loop_
_symmetry_equiv_pos_site_id
_symmetry_equiv_pos_as_xyz
1 x,y,z
2 -x,1/2+y,1/2-z
3 -x,-y,-z
4 x,1/2-y,1/2+z
_cell_length_a                   17.4129(10)
_cell_length_b                   17.3271(9)
_cell_length_c                   24.5233(10)
_cell_angle_alpha                90
_cell_angle_beta                 133.857(2)
_cell_angle_gamma                90
_cell_volume                     5335.24
loop_
_atom_site_label
_atom_site_type_symbol
_atom_site_fract_x
_atom_site_fract_y
_atom_site_fract_z
Si1 Si 0.7502(4) 0.7750(3) 0.5337(3)
W1 W 0.56003(6) 0.78046(4) 0.33458(4)
W2 W 0.70888(6) 0.65490(4) 0.62718(4)
W3 W 0.93813(6) 0.75738(5) 0.73324(4)
W4 W 0.80931(6) 0.89223(4) 0.44834(4)
W5 W 0.55697(6) 0.83465(5) 0.53472(4)
W6 W 0.69887(6) 0.61716(4) 0.42346(4)
W7 W 0.99065(6) 0.87885(4) 0.63896(4)
W8 W 0.60406(6) 0.94607(4) 0.44803(5)
W9 W 0.78621(6) 0.93584(4) 0.63772(4)
W10 W 0.94828(6) 0.72785(5) 0.53441(4)
W11 W 0.90034(6) 0.60513(4) 0.63111(4)
W12 W 0.50991(6) 0.66940(4) 0.42027(4)
Ag1 Ag 0.46318(14) 0.35269(9) 0.32327(9)
Ag2 Ag 0.58744(12) 0.48256(9) 0.25854(9)
Ag3 Ag 0.76401(18) 0.33132(12) 0.39672(12)
Ag4 Ag 0.57906(13) 1.15979(10) 0.37923(9)
O1 O 0.9843(11) 0.6599(8) 0.7247(8)
O2 O 0.8192(12) 0.6755(8) 0.4571(8)
O3 O 1.0352(10) 0.6848(8) 0.5325(7)
O4 O 0.8112(11) 0.9529(8) 0.3946(7)
O5 O 0.6076(11) 0.6364(7) 0.5233(7)
O6 O 0.8033(10) 0.5818(7) 0.6416(8)
O7 O 0.5322(11) 1.0237(7) 0.3887(8)
O8 O 0.6140(11) 0.6835(8) 0.3373(8)
O9 O 0.9595(11) 0.6643(8) 0.6036(8)
O10 O 0.4997(11) 0.7615(8) 0.4558(8)
O11 O 0.4713(12) 0.8061(9) 0.2397(8)
O12 O 0.4564(11) 0.8422(8) 0.5304(7)
O13 O 0.5724(11) 0.5948(8) 0.4023(8)
O14 O 0.9993(12) 0.8092(8) 0.7008(8)
O15 O 0.8046(11) 0.7190(8) 0.6048(8)
O16 O 0.7847(11) 0.5895(8) 0.5253(8)
O17 O 0.8415(11) 0.8079(8) 0.5378(8)
O18 O 0.3963(11) 0.6226(8) 0.3796(8)
O19 O 0.5130(12) 0.9136(8) 0.4628(8)
O20 O 0.8566(11) 0.8482(8) 0.7028(8)
O21 O 0.5457(11) 0.8653(8) 0.3765(8)
O22 O 0.4624(12) 0.7252(8) 0.3324(8)
O23 O 0.6870(11) 0.8304(8) 0.3738(8)
O24 O 1.0355(11) 0.7660(8) 0.8296(8)
O25 O 1.0401(12) 0.8001(9) 0.6129(8)
O26 O 0.8977(12) 0.8120(9) 0.4642(8)
O27 O 0.6966(12) 0.9972(9) 0.5450(8)
O28 O 0.6956(12) 0.8480(8) 0.5372(8)
O29 O 0.8344(11) 0.6986(8) 0.7232(8)
O30 O 0.6574(12) 0.9072(8) 0.6125(8)
O31 O 0.9305(12) 0.9307(8) 0.5456(8)
O32 O 0.6412(11) 0.7540(8) 0.6023(8)
O33 O 0.6640(12) 0.6042(8) 0.6601(8)
O34 O 0.9643(12) 0.5204(8) 0.6564(9)
O35 O 0.7069(11) 0.5363(8) 0.3856(8)
O36 O 0.8291(12) 1.0079(8) 0.6999(9)
O37 O 0.6628(11) 0.7288(8) 0.4567(8)
N1 N 0.4163(13) 0.4737(9) 0.2695(9)
N2 N 0.4504(14) 0.5098(10) 0.2414(9)
N3 N 0.3997(14) 0.5730(9) 0.2095(9)
N4 N 0.6940(13) 0.4187(9) 0.2585(9)
N5 N 0.6860(15) 0.4146(10) 0.1987(11)
N6 N 0.7358(15) 0.3494(10) 0.2067(10)
N7 N 0.7527(14) 1.1638(10) 0.4691(10)
N8 N 0.8163(14) 1.2145(10) 0.4712(10)
N9 N 0.9163(14) 1.1949(10) 0.5298(10)
N10 N 0.9177(15) 1.1356(10) 0.5615(10)
N11 N 0.3572(14) 1.2451(10) 0.2661(10)
N12 N 0.3334(15) 1.1216(10) 0.2545(9)
N13 N 0.2423(14) 1.1544(9) 0.2060(9)
N14 N 0.7235(15) 0.3716(10) 0.4624(10)
N15 N 0.6255(17) 0.3588(12) 0.4421(11)
N16 N 0.6482(16) 0.3697(12) 0.5052(12)
N17 N 0.7464(15) 0.3888(10) 0.5594(10)
C1 C 0.3433(16) 0.5188(11) 0.2572(12)
H1 H 0.3086 0.5098 0.2730
C2 C 0.758(2) 0.3215(14) 0.1639(14)
H2 H 0.7283 0.3565 0.1230
H3 H 0.7264 0.2714 0.1439
H4 H 0.8334 0.3180 0.1960
C3 C 0.8166(16) 1.1140(11) 0.5243(11)
H5 H 0.7965 1.0721 0.5358
C4 C 1.0189(18) 1.0997(12) 0.6303(12)
H6 H 1.0782 1.1269 0.6441
H7 H 1.0211 1.0467 0.6201
H8 H 1.0225 1.1024 0.6711
C5 C 0.2579(17) 1.2305(12) 0.2142(11)
H9 H 0.2043 1.2675 0.1861
C6 C 0.1393(19) 1.1100(15) 0.1523(12)
H10 H 0.1542 1.0557 0.1600
H11 H 0.1025 1.1231 0.1011
H12 H 0.0955 1.1230 0.1615
C7 C 0.797(2) 0.3894(13) 0.5352(13)
H13 H 0.8686 0.4000 0.5640
C8 C 0.801(2) 0.4016(12) 0.6395(12)
H14 H 0.7495 0.3987 0.6432
H15 H 0.8336 0.4516 0.6558
H16 H 0.8542 0.3627 0.6711
O38 O 1.1022(16) 0.9317(11) 0.6992(11)
N18 N 0.330(2) 0.5799(14) 0.2173(14)
N19 N 0.741(2) 0.3529(14) 0.2959(14)
C9 C 0.767(2) 0.3130(18) 0.2689(17)
H17 H 0.8022 0.2658 0.2880
N20 N 0.402(2) 1.1760(14) 0.2892(14)
O39 O 0.7191(16) 0.9431(11) 0.4548(11)
O40 O 0.8879(16) 0.9330(11) 0.6334(11)
C10 C 0.259(2) 0.6471(17) 0.1882(17)
H18 H 0.2164 0.6414 0.1991
H19 H 0.2142 0.6507 0.1345
H20 H 0.3016 0.6931 0.2119
Ag1_2 Ag 0.46318(14) 1.35269(9) 0.32327(9)
Ag1A Ag 0.53682(14) 0.85269(9) 0.17673(9)
Ag1B Ag 0.53682(14) 0.64731(9) 0.67673(9)
Ag3_2 Ag 0.76401(18) 1.33132(12) 0.39672(12)
Ag3B Ag 1.23599(18) 0.66868(12) 0.60328(12)
Ag4B Ag 0.42094(13) 0.84021(10) 0.62077(9)
O3B O 0.9648(10) 0.3152(8) 0.4675(7)
O11A O 0.5287(12) 0.3061(9) 0.2603(8)
O12B O 0.5436(11) 1.1578(8) 0.4696(7)
O33B O 0.3360(12) 0.3958(8) 0.3399(8)
N8_2 N 0.8163(14) 0.2145(10) 0.4712(10)
N11_2 N 0.3572(14) 0.2451(10) 0.2661(10)
O41 O 0.9152(17) 0.4638(11) 0.4960(11)
loop_
_geom_bond_atom_site_label_1
_geom_bond_atom_site_label_2
_geom_bond_site_symmetry_1
_geom_bond_site_symmetry_2
Si1 O15 1_555 1_555
W1 O8 1_555 1_555
W2 O5 1_555 1_555
W3 O1 1_555 1_555
W4 O4 1_555 1_555
W5 O10 1_555 1_555
W6 O2 1_555 1_555
W7 O14 1_555 1_555
W8 O7 1_555 1_555
W9 O20 1_555 1_555
W10 O2 1_555 1_555
W11 O1 1_555 1_555
W12 O5 1_555 1_555
Ag1 N1 1_555 1_555
Ag2 O35 1_555 1_555
Ag3 N14 1_555 1_555
Ag4 O7 1_555 1_555
O3 W10 1_555 1_555
O6 W2 1_555 1_555
O8 W6 1_555 1_555
O9 W10 1_555 1_555
O10 W12 1_555 1_555
O11 W1 1_555 1_555
O12 W5 1_555 1_555
O13 W6 1_555 1_555
O14 W3 1_555 1_555
O15 W2 1_555 1_555
O16 W6 1_555 1_555
O17 Si1 1_555 1_555
O18 W12 1_555 1_555
O19 W5 1_555 1_555
O20 W3 1_555 1_555
O21 W1 1_555 1_555
O22 W1 1_555 1_555
O23 W1 1_555 1_555
O24 W3 1_555 1_555
O25 W7 1_555 1_555
O26 W4 1_555 1_555
O27 W8 1_555 1_555
O28 Si1 1_555 1_555
O29 W2 1_555 1_555
O30 W5 1_555 1_555
O31 W4 1_555 1_555
O32 W2 1_555 1_555
O33 W2 1_555 1_555
O34 W11 1_555 1_555
O35 W6 1_555 1_555
O36 W9 1_555 1_555
O37 Si1 1_555 1_555
N1 N2 1_555 1_555
N2 Ag2 1_555 1_555
N3 N2 1_555 1_555
N4 Ag2 1_555 1_555
N5 N4 1_555 1_555
N6 N5 1_555 1_555
N7 Ag4 1_555 1_555
N8 N7 1_555 1_555
N9 N8 1_555 1_555
N10 N9 1_555 1_555
N11 C5 1_555 1_555
N12 N13 1_555 1_555
N13 C5 1_555 1_555
N14 N15 1_555 1_555
N15 Ag1 1_555 1_555
N16 N15 1_555 1_555
N17 N16 1_555 1_555
C1 N1 1_555 1_555
H1 C1 1_555 1_555
C2 N6 1_555 1_555
H2 C2 1_555 1_555
H3 C2 1_555 1_555
H4 C2 1_555 1_555
C3 N7 1_555 1_555
H5 C3 1_555 1_555
C4 N10 1_555 1_555
H6 C4 1_555 1_555
H7 C4 1_555 1_555
H8 C4 1_555 1_555
C5 H9 1_555 1_555
C6 N13 1_555 1_555
H10 C6 1_555 1_555
H11 C6 1_555 1_555
H12 C6 1_555 1_555
C7 N14 1_555 1_555
H13 C7 1_555 1_555
C8 N17 1_555 1_555
H14 C8 1_555 1_555
H15 C8 1_555 1_555
H16 C8 1_555 1_555
O38 W7 1_555 1_555
N18 N3 1_555 1_555
N19 Ag3 1_555 1_555
C9 N6 1_555 1_555
H17 C9 1_555 1_555
N20 Ag4 1_555 1_555
O39 W4 1_555 1_555
O40 W7 1_555 1_555
C10 N18 1_555 1_555
H18 C10 1_555 1_555
H19 C10 1_555 1_555
H20 C10 1_555 1_555
Ag1_2 N11 1_555 1_555
Ag1A O11 1_555 1_555
Ag1B O33 1_555 1_555
Ag3_2 N8 1_555 1_555
Ag3B O3 1_555 1_555
Ag4B O12 1_555 1_555
O3B Ag3 1_555 1_555
O11A Ag1 1_555 1_555
O12B Ag4 1_555 1_555
O33B Ag1 1_555 1_555
N8_2 Ag3 1_555 1_555
N11_2 Ag1 1_555 1_555
W1 O37 1_555 1_555
W3 O15 1_555 1_555
W3 O29 1_555 1_555
W4 O17 1_555 1_555
W4 O23 1_555 1_555
W5 O28 1_555 1_555
W5 O32 1_555 1_555
W6 O37 1_555 1_555
W7 O17 1_555 1_555
W7 O31 1_555 1_555
W8 O19 1_555 1_555
W8 O21 1_555 1_555
W8 O28 1_555 1_555
W8 O39 1_555 1_555
W9 O27 1_555 1_555
W9 O28 1_555 1_555
W9 O30 1_555 1_555
W9 O40 1_555 1_555
W10 O17 1_555 1_555
W10 O25 1_555 1_555
W10 O26 1_555 1_555
W11 O6 1_555 1_555
W11 O9 1_555 1_555
W11 O15 1_555 1_555
W11 O16 1_555 1_555
W12 O13 1_555 1_555
W12 O22 1_555 1_555
W12 O37 1_555 1_555
N4 N19 1_555 1_555
N10 C3 1_555 1_555
N11 N20 1_555 1_555
N12 N20 1_555 1_555
N17 C7 1_555 1_555
C1 N18 1_555 1_555
N19 C9 1_555 1_555

#END
