
#######################################################################
#
#                 Cambridge Crystallographic Data Centre
#                                CCDC 
#
#######################################################################
#
# If this CIF has been generated from an entry in the Cambridge 
# Structural Database, then it will include bibliographic, chemical, 
# crystal, experimental, refinement or atomic coordinate data resulting 
# from the CCDC's data processing and validation procedures.
#
#######################################################################

data_FOKLEY
_symmetry_cell_setting           monoclinic
_symmetry_space_group_name_H-M   'P 21/c'
_symmetry_Int_Tables_number      14
_space_group_name_Hall           '-P 2ybc'
loop_
_symmetry_equiv_pos_site_id
_symmetry_equiv_pos_as_xyz
1 x,y,z
2 -x,1/2+y,1/2-z
3 -x,-y,-z
4 x,1/2-y,1/2+z
_cell_length_a                   11.4687(18)
_cell_length_b                   19.202(3)
_cell_length_c                   13.6914(16)
_cell_angle_alpha                90
_cell_angle_beta                 120.779(9)
_cell_angle_gamma                90
_cell_volume                     2590.46
loop_
_atom_site_label
_atom_site_type_symbol
_atom_site_fract_x
_atom_site_fract_y
_atom_site_fract_z
Si1 Si 0.5000 0.5000 0.5000
W1 W 0.27722(13) 0.63533(7) 0.33446(11)
Ag1 Ag 1.1916(3) 0.64620(16) 0.7323(2)
O1 O 0.783(3) 0.5333(14) 0.307(2)
O2 O 0.897(3) 0.6077(13) 0.107(2)
N1 N 1.049(3) 0.6743(16) 0.558(3)
C1 C 0.982(4) 0.7375(19) 0.532(3)
H1 H 0.9864 0.7712 0.5829
W2 W 0.44123(13) 0.64204(7) 0.63284(11)
Ag2 Ag 0.7698(3) 0.64909(15) 0.1916(2)
O3 O 0.690(3) 0.7471(12) 0.499(2)
N2 N 0.926(3) 0.6788(15) 0.371(3)
C2 C 1.010(4) 0.645(2) 0.462(4)
H2 H 1.0416 0.6010 0.4585
W3 W 0.34080(13) 0.49472(7) 0.20114(10)
O4 O 1.020(2) 0.5497(14) 0.751(2)
N3 N 0.906(3) 0.7398(15) 0.415(2)
C3 C 0.802(4) 0.791(2) 0.351(3)
H3 H 0.8088 0.8283 0.3998
H4 H 0.7143 0.7696 0.3181
H5 H 0.8141 0.8091 0.2909
W4 W 0.62907(15) 0.66698(7) 0.49569(12)
O5 O 0.406(2) 0.7089(15) 0.694(2)
N4 N 0.551(3) 0.6410(16) 0.075(3)
C4 C 0.455(3) 0.6551(18) 0.092(3)
H6 H 0.4677 0.6651 0.1631
W5 W 0.69519(14) 0.52355(7) 0.36969(12)
O6 O 0.172(3) 0.6997(15) 0.257(2)
N5 N 0.353(3) 0.6426(15) -0.091(2)
C5 C 0.485(4) 0.6328(19) -0.045(3)
H7 H 0.5285 0.6223 -0.0851
W6 W 0.85230(13) 0.53375(7) 0.66800(12)
O7 O 0.450(3) 0.6707(17) 0.379(3)
N6 N 0.334(3) 0.6541(16) -0.003(3)
C6 C 0.192(3) 0.6740(19) -0.024(3)
H8 H 0.1976 0.6802 0.0480
H9 H 0.1287 0.6375 -0.0656
H10 H 0.1625 0.7166 -0.0664
O8 O 0.151(3) 0.5684(15) 0.318(3)
O9 O 0.580(3) 0.5971(15) 0.756(3)
O10 O 0.300(3) 0.6548(16) 0.474(3)
O11 O 0.264(3) 0.4922(14) 0.059(2)
O12 O 0.199(3) 0.4616(15) 0.221(3)
O13 O 0.321(3) 0.5734(15) 0.630(3)
O14 O 0.776(3) 0.6247(16) 0.620(3)
O15 O 0.293(3) 0.5876(15) 0.214(2)
O16 O 0.566(3) 0.6808(16) 0.599(3)
O17 O 0.674(3) 0.6217(15) 0.395(2)
O18 O 0.832(3) 0.5186(15) 0.525(3)
O19 O 0.464(6) 0.584(3) 0.489(5)
O20 O 0.364(6) 0.522(3) 0.381(5)
O21 O 0.512(3) 0.5266(15) 0.245(3)
O22 O 0.630(6) 0.539(3) 0.510(5)
O23 O 0.518(6) 0.475(3) 0.391(5)
O19B O 0.536(6) 0.416(3) 0.511(5)
O20B O 0.636(6) 0.478(3) 0.619(5)
O22B O 0.370(6) 0.461(3) 0.490(5)
O23B O 0.482(6) 0.525(3) 0.609(5)
W1B W 0.72278(13) 0.36467(7) 0.66554(11)
Ag1B Ag -0.1916(3) 0.35380(16) 0.2677(2)
O1B O 0.217(3) 0.4667(14) 0.693(2)
O2B O 0.103(3) 0.3923(13) 0.893(2)
N1B N -0.049(3) 0.3257(16) 0.442(3)
C1B C 0.018(4) 0.2625(19) 0.468(3)
H1B H 0.0136 0.2288 0.4171
W2B W 0.55877(13) 0.35796(7) 0.36716(11)
Ag2B Ag 0.2302(3) 0.35091(15) 0.8084(2)
O3B O 0.310(3) 0.2529(12) 0.501(2)
N2B N 0.074(3) 0.3212(15) 0.629(3)
C2B C -0.010(4) 0.355(2) 0.538(4)
H2B H -0.0416 0.3990 0.5415
W3B W 0.65920(13) 0.50528(7) 0.79886(10)
O4B O -0.020(2) 0.4503(14) 0.249(2)
N3B N 0.094(3) 0.2602(15) 0.585(2)
C3B C 0.198(4) 0.209(2) 0.649(3)
H3B H 0.1912 0.1717 0.6002
H4B H 0.2857 0.2304 0.6819
H5B H 0.1859 0.1909 0.7091
W4B W 0.37093(15) 0.33302(7) 0.50431(12)
O5B O 0.594(2) 0.2911(15) 0.306(2)
N4B N 0.449(3) 0.3590(16) 0.925(3)
C4B C 0.545(3) 0.3449(18) 0.908(3)
H6B H 0.5323 0.3349 0.8369
W5B W 0.30481(14) 0.47645(7) 0.63031(12)
O6B O 0.828(3) 0.3003(15) 0.743(2)
N5B N 0.647(3) 0.3574(15) 1.091(2)
C5B C 0.515(4) 0.3672(19) 1.045(3)
H7B H 0.4715 0.3777 1.0851
W6B W 0.14770(13) 0.46625(7) 0.33200(12)
O7B O 0.550(3) 0.3293(17) 0.621(3)
N6B N 0.666(3) 0.3459(16) 1.003(3)
C6B C 0.808(3) 0.3260(19) 1.024(3)
H8B H 0.8024 0.3198 0.9520
H9B H 0.8713 0.3625 1.0656
H10B H 0.8375 0.2834 1.0664
O8B O 0.849(3) 0.4316(15) 0.682(3)
O9B O 0.420(3) 0.4029(15) 0.244(3)
O10B O 0.700(3) 0.3452(16) 0.526(3)
O11B O 0.736(3) 0.5078(14) 0.941(2)
O12B O 0.801(3) 0.5384(15) 0.779(3)
O13B O 0.679(3) 0.4266(15) 0.370(3)
O14B O 0.224(3) 0.3753(16) 0.380(3)
O15B O 0.707(3) 0.4124(15) 0.786(2)
O16B O 0.434(3) 0.3192(16) 0.401(3)
O17B O 0.326(3) 0.3783(15) 0.605(2)
O18B O 0.168(3) 0.4814(15) 0.475(3)
O21B O 0.488(3) 0.4734(15) 0.755(3)
Ag1_2 Ag 0.1916(3) 0.64620(16) -0.2677(2)
Ag1B_2 Ag 0.8084(3) 0.35380(16) 1.2677(2)
N5_2 N 1.353(3) 0.6426(15) 0.909(2)
N5B_2 N -0.353(3) 0.3574(15) 0.091(2)
loop_
_geom_bond_atom_site_label_1
_geom_bond_atom_site_label_2
_geom_bond_site_symmetry_1
_geom_bond_site_symmetry_2
Si1 O19 1_555 1_555
W1 O6 1_555 1_555
Ag1 N1 1_555 1_555
O1 Ag2 1_555 1_555
O2 Ag2 1_555 1_555
N1 C1 1_555 1_555
C1 H1 1_555 1_555
W2 O5 1_555 1_555
Ag2 N2 1_555 1_555
O3 W4 1_555 1_555
N2 C2 1_555 1_555
C2 N1 1_555 1_555
H2 C2 1_555 1_555
W3 O11 1_555 1_555
O4 W6 1_555 1_555
N3 C1 1_555 1_555
C3 N3 1_555 1_555
H3 C3 1_555 1_555
H4 C3 1_555 1_555
H5 C3 1_555 1_555
W4 O7 1_555 1_555
N4 Ag2 1_555 1_555
C4 N4 1_555 1_555
H6 C4 1_555 1_555
W5 O1 1_555 1_555
N5 C5 1_555 1_555
C5 N4 1_555 1_555
H7 C5 1_555 1_555
W6 O14 1_555 1_555
O7 W1 1_555 1_555
N6 C4 1_555 1_555
C6 N6 1_555 1_555
H8 C6 1_555 1_555
H9 C6 1_555 1_555
H10 C6 1_555 1_555
O8 W1 1_555 1_555
O9 W2 1_555 1_555
O10 W1 1_555 1_555
O12 W3 1_555 1_555
O13 W2 1_555 1_555
O14 W4 1_555 1_555
O15 W1 1_555 1_555
O16 W2 1_555 1_555
O17 W4 1_555 1_555
O18 W5 1_555 1_555
O19 W1 1_555 1_555
O20 Si1 1_555 1_555
O21 W3 1_555 1_555
O22 Si1 1_555 1_555
O23 Si1 1_555 1_555
O19B Si1 1_555 1_555
O20B Si1 1_555 1_555
O22B Si1 1_555 1_555
O23B Si1 1_555 1_555
W1B O19B 1_555 1_555
Ag1B N1B 1_555 1_555
O1B Ag2B 1_555 1_555
O2B Ag2B 1_555 1_555
N1B C1B 1_555 1_555
C1B H1B 1_555 1_555
W2B O23 1_555 1_555
Ag2B N2B 1_555 1_555
O3B W4B 1_555 1_555
N2B C2B 1_555 1_555
C2B N1B 1_555 1_555
H2B C2B 1_555 1_555
W3B O9 1_555 1_555
O4B W6B 1_555 1_555
N3B C1B 1_555 1_555
C3B N3B 1_555 1_555
H3B C3B 1_555 1_555
H4B C3B 1_555 1_555
H5B C3B 1_555 1_555
W4B O19B 1_555 1_555
O5B W2B 1_555 1_555
N4B Ag2B 1_555 1_555
C4B N4B 1_555 1_555
H6B C4B 1_555 1_555
W5B O13 1_555 1_555
O6B W1B 1_555 1_555
N5B C5B 1_555 1_555
C5B N4B 1_555 1_555
H7B C5B 1_555 1_555
W6B O8 1_555 1_555
O7B W1B 1_555 1_555
N6B C4B 1_555 1_555
C6B N6B 1_555 1_555
H8B C6B 1_555 1_555
H9B C6B 1_555 1_555
H10B C6B 1_555 1_555
O8B W6 1_555 1_555
O9B W3 1_555 1_555
O10B W1B 1_555 1_555
O11B W3B 1_555 1_555
O12B W6 1_555 1_555
O13B W5 1_555 1_555
O14B W4B 1_555 1_555
O15B W1B 1_555 1_555
O16B W2B 1_555 1_555
O17B W4B 1_555 1_555
O18B W5B 1_555 1_555
O21B W3B 1_555 1_555
Ag1_2 N5 1_555 1_555
Ag1B_2 N5B 1_555 1_555
N5_2 Ag1 1_555 1_555
N5B_2 Ag1B 1_555 1_555
W1 O20 1_555 1_555
W2 O10 1_555 1_555
W2 O19 1_555 1_555
W2 O23B 1_555 1_555
N2 N3 1_555 1_555
W3 O15 1_555 1_555
W3 O20 1_555 1_555
W3 O23 1_555 1_555
W4 O16 1_555 1_555
W4 O19 1_555 1_555
W4 O22 1_555 1_555
W5 O17 1_555 1_555
W5 O21 1_555 1_555
W5 O22 1_555 1_555
W5 O23 1_555 1_555
N5 N6 1_555 1_555
W6 O18 1_555 1_555
W6 O22 1_555 1_555
W6 O20B 1_555 1_555
O12 W6B 1_555 1_555
O19 O20 1_555 1_555
O20 W6B 1_555 1_555
O19B O20B 1_555 1_555
O19B W2B 1_555 1_555
O20B W1B 1_555 1_555
O20B W3B 1_555 1_555
O22B W4B 1_555 1_555
O22B W5B 1_555 1_555
O22B W6B 1_555 1_555
O23B W3B 1_555 1_555
O23B W5B 1_555 1_555
W1B O8B 1_555 1_555
O1B W5B 1_555 1_555
W2B O9B 1_555 1_555
W2B O10B 1_555 1_555
W2B O13B 1_555 1_555
N2B N3B 1_555 1_555
W3B O12B 1_555 1_555
W3B O15B 1_555 1_555
W4B O7B 1_555 1_555
W4B O16B 1_555 1_555
W5B O17B 1_555 1_555
W5B O21B 1_555 1_555
N5B N6B 1_555 1_555
W6B O14B 1_555 1_555
W6B O18B 1_555 1_555

#END
