
#######################################################################
#
#                 Cambridge Crystallographic Data Centre
#                                CCDC 
#
#######################################################################
#
# If this CIF has been generated from an entry in the Cambridge 
# Structural Database, then it will include bibliographic, chemical, 
# crystal, experimental, refinement or atomic coordinate data resulting 
# from the CCDC's data processing and validation procedures.
#
#######################################################################

data_FOKVEI
_symmetry_cell_setting           tetragonal
_symmetry_space_group_name_H-M   'I 41/a'
_symmetry_Int_Tables_number      88
_space_group_name_Hall           '-I 4ad'
loop_
_symmetry_equiv_pos_site_id
_symmetry_equiv_pos_as_xyz
1 x,y,z
2 3/4-y,1/4+x,1/4+z
3 1/2-x,-y,1/2+z
4 3/4+y,3/4-x,3/4+z
5 1/2+x,1/2+y,1/2+z
6 1/4-y,3/4+x,3/4+z
7 -x,1/2-y,z
8 1/4+y,1/4-x,1/4+z
9 -x,-y,-z
10 1/4+y,3/4-x,3/4-z
11 1/2+x,y,1/2-z
12 1/4-y,1/4+x,1/4-z
13 1/2-x,1/2-y,1/2-z
14 3/4+y,1/4-x,1/4-z
15 x,1/2+y,-z
16 3/4-y,3/4+x,3/4-z
_cell_length_a                   26.7137(17)
_cell_length_b                   26.7137(17)
_cell_length_c                   13.7390(10)
_cell_angle_alpha                90
_cell_angle_beta                 90
_cell_angle_gamma                90
_cell_volume                     9804.45
loop_
_atom_site_label
_atom_site_type_symbol
_atom_site_fract_x
_atom_site_fract_y
_atom_site_fract_z
Cu1 Cu 0.764559(13) 0.841139(12) 0.45603(3)
C1 C 0.69448(10) 0.90123(11) 0.3592(2)
C2 C 0.66797(10) 0.86078(11) 0.3164(2)
C3 C 0.62733(10) 0.88274(10) 0.2661(2)
C4 C 0.58809(12) 0.85944(12) 0.2033(3)
H1 H 0.5591 0.8520 0.2420
H2 H 0.6009 0.8291 0.1754
H3 H 0.5791 0.8822 0.1522
C5 C 0.67388(11) 0.99329(11) 0.3714(2)
C6 C 0.63225(14) 1.01468(14) 0.4134(3)
H4 H 0.6028 0.9964 0.4198
C7 C 0.63464(18) 1.06359(16) 0.4462(4)
H5 H 0.6066 1.0784 0.4741
C8 C 0.67797(19) 1.09009(15) 0.4375(4)
H6 H 0.6795 1.1228 0.4604
C9 C 0.71959(16) 1.06872(14) 0.3950(3)
H7 H 0.7490 1.0871 0.3893
C10 C 0.71771(12) 1.01988(12) 0.3607(3)
H8 H 0.7455 1.0054 0.3312
C11 C 0.68260(10) 0.80928(11) 0.3251(2)
C12 C 0.65529(12) 0.76846(11) 0.2724(3)
H9 H 0.6792 0.7428 0.2541
H10 H 0.6413 0.7822 0.2129
C13 C 0.61356(13) 0.74429(12) 0.3301(4)
C14 C 0.61504(18) 0.73972(19) 0.4295(5)
H11 H 0.6416 0.7533 0.4644
C15 C 0.5766(2) 0.7146(2) 0.4780(7)
H12 H 0.5779 0.7118 0.5454
C16 C 0.5383(3) 0.6946(3) 0.4306(10)
H13 H 0.5134 0.6776 0.4646
C17 C 0.5354(2) 0.6989(2) 0.3321(9)
H14 H 0.5083 0.6854 0.2988
C18 C 0.57309(15) 0.72348(15) 0.2811(5)
H15 H 0.5712 0.7260 0.2137
C19 C 0.77021(10) 0.74106(10) 0.4504(2)
C20 C 0.78906(11) 0.68918(10) 0.4617(2)
C21 C 0.77169(11) 0.64975(11) 0.4029(2)
C22 C 0.79329(12) 0.60237(11) 0.4115(3)
H16 H 0.7827 0.5766 0.3710
C23 C 0.83009(12) 0.59353(11) 0.4794(3)
H17 H 0.8439 0.5617 0.4849
C24 C 0.84668(12) 0.63152(12) 0.5395(3)
H18 H 0.8713 0.6252 0.5858
C25 C 0.82645(12) 0.67916(12) 0.5304(2)
H19 H 0.8379 0.7048 0.5706
H20 H 0.7260(15) 0.6825(16) 0.337(3)
N1 N 0.66970(9) 0.94360(9) 0.33269(19)
N2 N 0.62805(9) 0.93215(9) 0.27641(19)
N3 N 0.72067(9) 0.79848(8) 0.38074(19)
N4 N 0.73363(9) 0.74764(9) 0.3877(2)
O1 O 0.73395(7) 0.90224(7) 0.41227(16)
O2 O 0.79083(8) 0.77707(7) 0.49837(18)
O3 O 0.73488(9) 0.65559(9) 0.3370(2)
Cu1C Cu 0.591139(12) 0.985441(13) 0.20603(3)
N2A N 0.81785(9) 0.87805(9) 0.52641(19)
loop_
_geom_bond_atom_site_label_1
_geom_bond_atom_site_label_2
_geom_bond_site_symmetry_1
_geom_bond_site_symmetry_2
Cu1 N3 1_555 1_555
C1 C2 1_555 1_555
C2 C3 1_555 1_555
C3 C4 1_555 1_555
C4 H1 1_555 1_555
H2 C4 1_555 1_555
H3 C4 1_555 1_555
C5 C6 1_555 1_555
C6 H4 1_555 1_555
C7 C6 1_555 1_555
H5 C7 1_555 1_555
C8 C7 1_555 1_555
H6 C8 1_555 1_555
C9 C8 1_555 1_555
H7 C9 1_555 1_555
C10 C5 1_555 1_555
H8 C10 1_555 1_555
C11 C2 1_555 1_555
C12 C11 1_555 1_555
H9 C12 1_555 1_555
H10 C12 1_555 1_555
C13 C12 1_555 1_555
C14 C13 1_555 1_555
H11 C14 1_555 1_555
C15 C14 1_555 1_555
H12 C15 1_555 1_555
C16 C15 1_555 1_555
H13 C16 1_555 1_555
C17 C16 1_555 1_555
H14 C17 1_555 1_555
C18 C13 1_555 1_555
H15 C18 1_555 1_555
C19 C20 1_555 1_555
C20 C21 1_555 1_555
C21 C22 1_555 1_555
C22 H16 1_555 1_555
C23 C22 1_555 1_555
H17 C23 1_555 1_555
C24 C23 1_555 1_555
H18 C24 1_555 1_555
C25 C20 1_555 1_555
H19 C25 1_555 1_555
H20 O3 1_555 1_555
N1 C1 1_555 1_555
N2 C3 1_555 1_555
N3 C11 1_555 1_555
N4 C19 1_555 1_555
O1 Cu1 1_555 1_555
O2 Cu1 1_555 1_555
O3 C21 1_555 1_555
Cu1C N2 1_555 1_555
N2A Cu1 1_555 1_555
C1 O1 1_555 1_555
C5 N1 1_555 1_555
C9 C10 1_555 1_555
C17 C18 1_555 1_555
C19 O2 1_555 1_555
C24 C25 1_555 1_555
N1 N2 1_555 1_555
N3 N4 1_555 1_555

#END
