
#######################################################################
#
#                 Cambridge Crystallographic Data Centre
#                                CCDC 
#
#######################################################################
#
# If this CIF has been generated from an entry in the Cambridge 
# Structural Database, then it will include bibliographic, chemical, 
# crystal, experimental, refinement or atomic coordinate data resulting 
# from the CCDC's data processing and validation procedures.
#
#######################################################################

data_FOKWEJ
_symmetry_cell_setting           triclinic
_symmetry_space_group_name_H-M   'P -1'
_symmetry_Int_Tables_number      2
_space_group_name_Hall           '-P 1'
loop_
_symmetry_equiv_pos_site_id
_symmetry_equiv_pos_as_xyz
1 x,y,z
2 -x,-y,-z
_cell_length_a                   12.4510(6)
_cell_length_b                   13.2780(6)
_cell_length_c                   14.6734(7)
_cell_angle_alpha                106.430(4)
_cell_angle_beta                 113.246(5)
_cell_angle_gamma                98.763(4)
_cell_volume                     2039.76
loop_
_atom_site_label
_atom_site_type_symbol
_atom_site_fract_x
_atom_site_fract_y
_atom_site_fract_z
Cu1 Cu 0.0000 0.5000 0.0000
S1 S 0.22866(6) 0.36994(5) 0.16104(5)
S2 S 0.73639(7) -0.17602(6) 0.21839(6)
O1 O 0.13326(18) 0.38504(15) 0.07489(14)
O2 O 0.1935(2) 0.36261(19) 0.24232(17)
O3 O 0.3469(2) 0.44711(17) 0.2030(2)
O4 O 0.57975(17) 0.17073(15) 0.17974(17)
O5 O 0.1680(2) -0.16270(17) -0.08361(18)
O6 O 0.6962(2) -0.27482(18) 0.2337(2)
O7 O 0.80103(18) -0.08149(16) 0.31879(15)
O8 O 0.8009(2) -0.1858(2) 0.15542(19)
N1 N -0.0724(2) 0.49782(17) 0.09913(15)
N2 N -0.1350(2) 0.44633(18) 0.20343(16)
N3 N 0.1297(2) 0.64338(17) 0.10870(16)
N4 N 0.3059(2) 0.76645(18) 0.23039(17)
C1 C -0.0621(2) 0.4360(2) 0.15645(19)
H1 H -0.0112 0.3912 0.1634
C2 C -0.1555(3) 0.5499(3) 0.1105(2)
H2 H -0.1808 0.5993 0.0789
C3 C -0.1951(3) 0.5187(3) 0.1743(2)
H3 H -0.2520 0.5418 0.1945
C4 C -0.1512(3) 0.3864(2) 0.2695(2)
H4 H -0.1342 0.3170 0.2480
H5 H -0.2361 0.3699 0.2556
C5 C -0.0699(2) 0.4486(2) 0.3888(2)
C6 C -0.0803(3) 0.5469(2) 0.4433(2)
H6 H -0.1342 0.5792 0.4059
C7 C 0.0107(3) 0.4023(2) 0.4465(2)
H7 H 0.0183 0.3358 0.4107
C8 C 0.2433(3) 0.6591(2) 0.1772(2)
H8 H 0.2763 0.6026 0.1875
C9 C 0.1189(3) 0.7465(3) 0.1192(2)
H9 H 0.0477 0.7619 0.0815
C10 C 0.2267(3) 0.8223(2) 0.1926(2)
H10 H 0.2438 0.8983 0.2134
C11 C 0.4357(3) 0.8113(3) 0.3083(2)
H11 H 0.4822 0.8320 0.2733
H12 H 0.4626 0.7541 0.3316
C12 C 0.4648(3) 0.9103(2) 0.4059(2)
C13 C 0.5848(3) 0.9787(2) 0.4647(2)
H13 H 0.6424 0.9649 0.4413
C14 C 0.3808(3) 0.9325(2) 0.4419(2)
H14 H 0.3001 0.8873 0.4031
C15 C 0.2417(2) 0.2374(2) 0.1045(2)
C16 C 0.3551(2) 0.2203(2) 0.1315(2)
H15 H 0.4261 0.2794 0.1748
C17 C 0.3630(2) 0.1143(2) 0.0938(2)
C18 C 0.2556(2) 0.0264(2) 0.0256(2)
C19 C 0.1426(3) 0.0457(2) -0.0036(2)
H16 H 0.0711 -0.0119 -0.0512
C20 C 0.1362(3) 0.1503(2) 0.0378(2)
H17 H 0.0602 0.1623 0.0207
C21 C 0.4847(2) 0.0952(2) 0.1297(2)
C22 C 0.4867(2) -0.0213(2) 0.1072(2)
C23 C 0.5958(2) -0.0427(2) 0.1583(2)
H18 H 0.6678 0.0153 0.2027
C24 C 0.5982(2) -0.1501(2) 0.1436(2)
C25 C 0.4922(3) -0.2369(2) 0.0733(2)
H19 H 0.4945 -0.3089 0.0617
C26 C 0.3834(3) -0.2170(2) 0.0207(2)
H20 H 0.3128 -0.2756 -0.0268
C27 C 0.3789(2) -0.1089(2) 0.0382(2)
C28 C 0.2600(3) -0.0887(2) -0.0141(2)
Cu2 Cu 1.0000 0.0000 0.5000
N5 N 0.9222(2) -0.08365(18) 0.56411(18)
N6 N 0.8045(2) -0.21897(18) 0.57094(18)
N7 N 0.17238(19) -0.24302(17) 0.48374(17)
N8 N 0.0697(2) -0.12360(18) 0.46046(18)
C29 C 0.8285(2) -0.1733(2) 0.5077(2)
H21 H 0.7845 -0.2017 0.4334
C30 C 0.8891(3) -0.1545(3) 0.6740(2)
H22 H 0.8959 -0.1661 0.7354
C31 C 0.9611(3) -0.0707(3) 0.6697(2)
H23 H 1.0262 -0.0137 0.7284
C32 C 0.7084(2) -0.3210(2) 0.5349(2)
H24 H 0.7391 -0.3594 0.5823
H25 H 0.6923 -0.3676 0.4639
C33 C 0.5893(2) -0.3065(2) 0.5309(2)
C34 C 0.5816(3) -0.2157(2) 0.6010(2)
H26 H 0.6516 -0.1566 0.6487
C35 C 0.4711(3) -0.2124(2) 0.6006(2)
H27 H 0.4674 -0.1507 0.6475
C36 C 0.3656(2) -0.2996(2) 0.5313(2)
C37 C 0.3725(3) -0.3879(2) 0.4587(2)
H28 H 0.3020 -0.4459 0.4093
C38 C 0.4828(3) -0.3909(2) 0.4586(2)
H29 H 0.4854 -0.4510 0.4090
C39 C 0.2476(3) -0.3032(2) 0.5386(2)
H30 H 0.1988 -0.3796 0.5089
H31 H 0.2672 -0.2736 0.6136
C40 C 0.1467(3) -0.1548(2) 0.5312(2)
H32 H 0.1791 -0.1197 0.6050
C41 C 0.1072(3) -0.2711(2) 0.3754(2)
H33 H 0.1060 -0.3295 0.3217
C42 C 0.0452(3) -0.1970(2) 0.3622(2)
H34 H -0.0064 -0.1959 0.2965
N1A N 0.0724(2) 0.50218(17) 0.90087(15)
N2A N 0.1350(2) 0.55367(18) 0.79657(16)
C1A C 0.0621(2) 0.5640(2) 0.84355(19)
H1A H 0.0112 0.6088 0.8366
C2A C 0.1555(3) 0.4501(3) 0.8895(2)
H2A H 0.1808 0.4007 0.9211
C3A C 0.1951(3) 0.4813(3) 0.8257(2)
H3A H 0.2520 0.4582 0.8055
C4A C 0.1512(3) 0.6136(2) 0.7305(2)
H4A H 0.1342 0.6830 0.7520
H5A H 0.2361 0.6301 0.7444
C5A C 0.0699(2) 0.5514(2) 0.6112(2)
C6A C 0.0803(3) 0.4531(2) 0.5567(2)
H6A H 0.1342 0.4208 0.5941
C7A C -0.0107(3) 0.5977(2) 0.5535(2)
H7A H -0.0183 0.6642 0.5893
N3A N 0.8703(2) 1.35662(17) 0.89130(16)
N4A N 0.6941(2) 1.23355(18) 0.76961(17)
C8A C 0.7567(3) 1.3409(2) 0.8228(2)
H8A H 0.7237 1.3974 0.8125
C9A C 0.8811(3) 1.2535(3) 0.8808(2)
H9A H 0.9523 1.2381 0.9185
C10A C 0.7733(3) 1.1777(2) 0.8074(2)
H10A H 0.7562 1.1017 0.7866
C11A C 0.5643(3) 1.1887(3) 0.6917(2)
H11A H 0.5178 1.1680 0.7267
H12A H 0.5374 1.2459 0.6684
C12A C 0.5352(3) 1.0897(2) 0.5941(2)
C13A C 0.4152(3) 1.0213(2) 0.5353(2)
H13A H 0.3576 1.0351 0.5587
C14A C 0.6192(3) 1.0675(2) 0.5581(2)
H14A H 0.6999 1.1127 0.5969
S1A S -0.22866(6) 0.63006(5) -0.16104(5)
S2A S -0.73639(7) 1.17602(6) -0.21839(6)
O1A O -0.13326(18) 0.61496(15) -0.07489(14)
O2A O -0.1935(2) 0.63739(19) -0.24232(17)
O3A O -0.3469(2) 0.55289(17) -0.2030(2)
O4A O -0.57975(17) 0.82927(15) -0.17974(17)
O5A O -0.1680(2) 1.16270(17) 0.08361(18)
O6A O -0.6962(2) 1.27482(18) -0.2337(2)
O7A O -0.80103(18) 1.08149(16) -0.31879(15)
O8A O -0.8009(2) 1.1858(2) -0.15542(19)
C15A C -0.2417(2) 0.7626(2) -0.1045(2)
C16A C -0.3551(2) 0.7797(2) -0.1315(2)
H15A H -0.4261 0.7206 -0.1748
C17A C -0.3630(2) 0.8857(2) -0.0938(2)
C18A C -0.2556(2) 0.9736(2) -0.0256(2)
C19A C -0.1426(3) 0.9543(2) 0.0036(2)
H16A H -0.0711 1.0119 0.0512
C20A C -0.1362(3) 0.8497(2) -0.0378(2)
H17A H -0.0602 0.8377 -0.0207
C21A C -0.4847(2) 0.9048(2) -0.1297(2)
C22A C -0.4867(2) 1.0213(2) -0.1072(2)
C23A C -0.5958(2) 1.0427(2) -0.1583(2)
H18A H -0.6678 0.9847 -0.2027
C24A C -0.5982(2) 1.1501(2) -0.1436(2)
C25A C -0.4922(3) 1.2369(2) -0.0733(2)
H19A H -0.4945 1.3089 -0.0617
C26A C -0.3834(3) 1.2170(2) -0.0207(2)
H20A H -0.3128 1.2756 0.0268
C27A C -0.3789(2) 1.1089(2) -0.0382(2)
C28A C -0.2600(3) 1.0887(2) 0.0141(2)
N5A N 1.0778(2) 0.08365(18) 0.43589(18)
N6A N 1.1955(2) 0.21897(18) 0.42906(18)
N7A N 1.82762(19) 0.24302(17) 0.51626(17)
N8A N 1.9303(2) 0.12360(18) 0.53954(18)
C29A C 1.1715(2) 0.1733(2) 0.4923(2)
H21A H 1.2155 0.2017 0.5666
C30A C 1.1109(3) 0.1545(3) 0.3260(2)
H22A H 1.1041 0.1661 0.2646
C31A C 1.0389(3) 0.0707(3) 0.3303(2)
H23A H 0.9738 0.0137 0.2716
C32A C 1.2916(2) 0.3210(2) 0.4651(2)
H24A H 1.2609 0.3594 0.4177
H25A H 1.3077 0.3676 0.5361
C33A C 1.4107(2) 0.3065(2) 0.4691(2)
C34A C 1.4184(3) 0.2157(2) 0.3990(2)
H26A H 1.3484 0.1566 0.3513
C35A C 1.5289(3) 0.2124(2) 0.3994(2)
H27A H 1.5326 0.1507 0.3525
C36A C 1.6344(2) 0.2996(2) 0.4687(2)
C37A C 1.6275(3) 0.3879(2) 0.5413(2)
H28A H 1.6980 0.4459 0.5907
C38A C 1.5172(3) 0.3909(2) 0.5414(2)
H29A H 1.5146 0.4510 0.5910
C39A C 1.7524(3) 0.3032(2) 0.4614(2)
H30A H 1.8012 0.3796 0.4911
H31A H 1.7328 0.2736 0.3864
C40A C 1.8533(3) 0.1548(2) 0.4688(2)
H32A H 1.8209 0.1197 0.3950
C41A C 1.8928(3) 0.2711(2) 0.6246(2)
H33A H 1.8940 0.3295 0.6783
C42A C 1.9548(3) 0.1970(2) 0.6378(2)
H34A H 2.0064 0.1959 0.7035
Cu1_2 Cu 0.0000 0.5000 1.0000
Cu1_3 Cu 1.0000 1.5000 1.0000
O7A_2 O 1.19897(18) 0.08149(16) 0.68121(15)
N1A_2 N 0.0724(2) 0.50218(17) -0.09913(15)
N3A_2 N -0.1297(2) 0.35662(17) -0.10870(16)
Cu2_2 Cu -1.0000 1.0000 -0.5000
Cu2_3 Cu 0.0000 0.0000 0.5000
Cu2_4 Cu 2.0000 0.0000 0.5000
N8_2 N 1.0697(2) -0.12360(18) 0.46046(18)
N8A_2 N 0.9303(2) 0.12360(18) 0.53954(18)
O9 O 0.5987(3) 0.5401(4) 0.2677(3)
H35 H 0.548(4) 0.509(4) 0.2016(14)
H36 H 0.589(6) 0.601(3) 0.262(5)
loop_
_geom_bond_atom_site_label_1
_geom_bond_atom_site_label_2
_geom_bond_site_symmetry_1
_geom_bond_site_symmetry_2
Cu1 O1 1_555 1_555
S1 O1 1_555 1_555
S2 O6 1_555 1_555
O2 S1 1_555 1_555
O3 S1 1_555 1_555
O4 C21 1_555 1_555
O5 C28 1_555 1_555
O7 S2 1_555 1_555
O8 S2 1_555 1_555
N1 Cu1 1_555 1_555
N2 C1 1_555 1_555
N3 Cu1 1_555 1_555
N4 C8 1_555 1_555
C1 N1 1_555 1_555
H1 C1 1_555 1_555
C2 N1 1_555 1_555
H2 C2 1_555 1_555
C3 N2 1_555 1_555
H3 C3 1_555 1_555
C4 N2 1_555 1_555
H4 C4 1_555 1_555
H5 C4 1_555 1_555
C5 C4 1_555 1_555
C6 C5 1_555 1_555
H6 C6 1_555 1_555
C7 C5 1_555 1_555
H7 C7 1_555 1_555
C8 N3 1_555 1_555
H8 C8 1_555 1_555
C9 N3 1_555 1_555
H9 C9 1_555 1_555
C10 N4 1_555 1_555
H10 C10 1_555 1_555
C11 N4 1_555 1_555
H11 C11 1_555 1_555
H12 C11 1_555 1_555
C12 C11 1_555 1_555
C13 C12 1_555 1_555
H13 C13 1_555 1_555
C14 C12 1_555 1_555
H14 C14 1_555 1_555
C15 S1 1_555 1_555
C16 C15 1_555 1_555
H15 C16 1_555 1_555
C17 C16 1_555 1_555
C18 C17 1_555 1_555
C19 C18 1_555 1_555
H16 C19 1_555 1_555
C20 C15 1_555 1_555
H17 C20 1_555 1_555
C21 C17 1_555 1_555
C22 C21 1_555 1_555
C23 C22 1_555 1_555
H18 C23 1_555 1_555
C24 S2 1_555 1_555
C25 C24 1_555 1_555
H19 C25 1_555 1_555
C26 C25 1_555 1_555
H20 C26 1_555 1_555
C27 C22 1_555 1_555
C28 C18 1_555 1_555
Cu2 O7 1_555 1_555
N5 Cu2 1_555 1_555
N6 C29 1_555 1_555
N7 C39 1_555 1_555
N8 C40 1_555 1_555
C29 N5 1_555 1_555
H21 C29 1_555 1_555
C30 N6 1_555 1_555
H22 C30 1_555 1_555
C31 N5 1_555 1_555
H23 C31 1_555 1_555
C32 N6 1_555 1_555
H24 C32 1_555 1_555
H25 C32 1_555 1_555
C33 C32 1_555 1_555
C34 C33 1_555 1_555
H26 C34 1_555 1_555
C35 C34 1_555 1_555
H27 C35 1_555 1_555
C36 C35 1_555 1_555
C37 C36 1_555 1_555
H28 C37 1_555 1_555
C38 C33 1_555 1_555
H29 C38 1_555 1_555
C39 C36 1_555 1_555
H30 C39 1_555 1_555
H31 C39 1_555 1_555
C40 N7 1_555 1_555
H32 C40 1_555 1_555
C41 N7 1_555 1_555
H33 C41 1_555 1_555
C42 N8 1_555 1_555
H34 C42 1_555 1_555
O9 H35 1_555 1_555
H36 O9 1_555 1_555
N1A C1A 1_555 1_555
N2A C1A 1_555 1_555
C1A H1A 1_555 1_555
C2A N1A 1_555 1_555
H2A C2A 1_555 1_555
C3A N2A 1_555 1_555
H3A C3A 1_555 1_555
C4A N2A 1_555 1_555
H4A C4A 1_555 1_555
H5A C4A 1_555 1_555
C5A C4A 1_555 1_555
C6A C7 1_555 1_555
H6A C6A 1_555 1_555
C7A C6 1_555 1_555
H7A C7A 1_555 1_555
N3A C8A 1_555 1_555
N4A C8A 1_555 1_555
C8A H8A 1_555 1_555
C9A N3A 1_555 1_555
H9A C9A 1_555 1_555
C10A N4A 1_555 1_555
H10A C10A 1_555 1_555
C11A N4A 1_555 1_555
H11A C11A 1_555 1_555
H12A C11A 1_555 1_555
C12A C11A 1_555 1_555
C13A C14 1_555 1_555
H13A C13A 1_555 1_555
C14A C13 1_555 1_555
H14A C14A 1_555 1_555
S1A O1A 1_555 1_555
S2A O6A 1_555 1_555
O1A Cu1 1_555 1_555
O2A S1A 1_555 1_555
O3A S1A 1_555 1_555
O4A C21A 1_555 1_555
O5A C28A 1_555 1_555
O7A S2A 1_555 1_555
O8A S2A 1_555 1_555
C15A S1A 1_555 1_555
C16A C15A 1_555 1_555
H15A C16A 1_555 1_555
C17A C16A 1_555 1_555
C18A C17A 1_555 1_555
C19A C18A 1_555 1_555
H16A C19A 1_555 1_555
C20A C15A 1_555 1_555
H17A C20A 1_555 1_555
C21A C17A 1_555 1_555
C22A C21A 1_555 1_555
C23A C22A 1_555 1_555
H18A C23A 1_555 1_555
C24A S2A 1_555 1_555
C25A C24A 1_555 1_555
H19A C25A 1_555 1_555
C26A C25A 1_555 1_555
H20A C26A 1_555 1_555
C27A C22A 1_555 1_555
C28A C18A 1_555 1_555
N5A Cu2 1_555 1_555
N6A C29A 1_555 1_555
N7A C39A 1_555 1_555
N8A C40A 1_555 1_555
C29A N5A 1_555 1_555
H21A C29A 1_555 1_555
C30A N6A 1_555 1_555
H22A C30A 1_555 1_555
C31A N5A 1_555 1_555
H23A C31A 1_555 1_555
C32A N6A 1_555 1_555
H24A C32A 1_555 1_555
H25A C32A 1_555 1_555
C33A C32A 1_555 1_555
C34A C33A 1_555 1_555
H26A C34A 1_555 1_555
C35A C34A 1_555 1_555
H27A C35A 1_555 1_555
C36A C35A 1_555 1_555
C37A C36A 1_555 1_555
H28A C37A 1_555 1_555
C38A C33A 1_555 1_555
H29A C38A 1_555 1_555
C39A C36A 1_555 1_555
H30A C39A 1_555 1_555
H31A C39A 1_555 1_555
C40A N7A 1_555 1_555
H32A C40A 1_555 1_555
C41A N7A 1_555 1_555
H33A C41A 1_555 1_555
C42A N8A 1_555 1_555
H34A C42A 1_555 1_555
Cu1_2 N1A 1_555 1_555
Cu1_3 N3A 1_555 1_555
O7A_2 Cu2 1_555 1_555
N1A_2 Cu1 1_555 1_555
N3A_2 Cu1 1_555 1_555
Cu2_2 O7A 1_555 1_555
Cu2_3 N8 1_555 1_555
Cu2_4 N8A 1_555 1_555
N8_2 Cu2 1_555 1_555
N8A_2 Cu2 1_555 1_555
C2 C3 1_555 1_555
C9 C10 1_555 1_555
C19 C20 1_555 1_555
C23 C24 1_555 1_555
C26 C27 1_555 1_555
C27 C28 1_555 1_555
C30 C31 1_555 1_555
C37 C38 1_555 1_555
C41 C42 1_555 1_555
C2A C3A 1_555 1_555
C5A C6A 1_555 1_555
C5A C7A 1_555 1_555
C9A C10A 1_555 1_555
C12A C13A 1_555 1_555
C12A C14A 1_555 1_555
C19A C20A 1_555 1_555
C23A C24A 1_555 1_555
C26A C27A 1_555 1_555
C27A C28A 1_555 1_555
C30A C31A 1_555 1_555
C37A C38A 1_555 1_555
C41A C42A 1_555 1_555

#END
