
#######################################################################
#
#                 Cambridge Crystallographic Data Centre
#                                CCDC 
#
#######################################################################
#
# If this CIF has been generated from an entry in the Cambridge 
# Structural Database, then it will include bibliographic, chemical, 
# crystal, experimental, refinement or atomic coordinate data resulting 
# from the CCDC's data processing and validation procedures.
#
#######################################################################

data_FOKWUZ
_symmetry_cell_setting           triclinic
_symmetry_space_group_name_H-M   'P -1'
_symmetry_Int_Tables_number      2
_space_group_name_Hall           '-P 1'
loop_
_symmetry_equiv_pos_site_id
_symmetry_equiv_pos_as_xyz
1 x,y,z
2 -x,-y,-z
_cell_length_a                   10.6470(8)
_cell_length_b                   13.9628(8)
_cell_length_c                   14.6808(11)
_cell_angle_alpha                81.190(5)
_cell_angle_beta                 87.549(6)
_cell_angle_gamma                80.972(5)
_cell_volume                     2129.62
loop_
_atom_site_label
_atom_site_type_symbol
_atom_site_fract_x
_atom_site_fract_y
_atom_site_fract_z
Cd1 Cd 0.5000 0.0000 0.5000
Cd2 Cd 0.91392(6) 0.00378(4) 0.38517(4)
Cd3 Cd 1.5000 0.0000 0.0000
Cd4 Cd 1.35598(6) -0.02397(4) -0.21407(5)
C1 C 0.7009(8) -0.1338(6) 0.3899(6)
C2 C 0.7361(7) -0.2264(6) 0.3520(6)
C3 C 0.6874(8) -0.3090(6) 0.3957(6)
H1 H 0.6394 -0.3075 0.4500
C4 C 0.7133(8) -0.3940(6) 0.3547(7)
C5 C 0.7811(8) -0.3972(6) 0.2748(7)
H2 H 0.7950 -0.4543 0.2481
C6 C 0.8288(8) -0.3154(6) 0.2339(7)
C7 C 0.8074(7) -0.2305(6) 0.2720(6)
H3 H 0.8411 -0.1756 0.2436
C8 C 0.9293(8) -0.8438(6) 0.5183(6)
C9 C 0.8576(8) -0.7462(6) 0.4877(6)
C10 C 0.9181(9) -0.6632(7) 0.4765(8)
H4 H 1.0039 -0.6702 0.4902
C11 C 0.8539(9) -0.5720(6) 0.4459(7)
H5 H 0.8957 -0.5175 0.4390
C12 C 0.7262(9) -0.5612(6) 0.4251(6)
C13 C 0.6643(8) -0.6423(6) 0.4356(6)
H6 H 0.5788 -0.6355 0.4214
C14 C 0.7308(8) -0.7332(6) 0.4674(6)
H7 H 0.6885 -0.7874 0.4754
C15 C 1.2234(8) -0.0719(6) -0.0252(7)
C16 C 1.1314(8) -0.1333(7) 0.0242(7)
C17 C 1.1588(9) -0.1863(7) 0.1091(7)
H8 H 1.2326 -0.1811 0.1386
C18 C 1.0760(9) -0.2480(7) 0.1512(7)
H9 H 1.0961 -0.2851 0.2083
C19 C 0.9687(9) -0.2550(7) 0.1116(8)
C20 C 0.9367(11) -0.1997(9) 0.0277(8)
H10 H 0.8599 -0.2026 0.0010
C21 C 1.0187(10) -0.1401(9) -0.0165(8)
H11 H 0.9985 -0.1042 -0.0741
C22 C 0.5571(7) 0.8092(6) -0.1198(6)
C23 C 0.6180(8) 0.7031(6) -0.1137(6)
C24 C 0.6966(7) 0.6604(6) -0.0416(6)
H12 H 0.7118 0.6962 0.0041
C25 C 0.7519(8) 0.5642(6) -0.0380(6)
C26 C 0.7301(8) 0.5077(6) -0.1026(6)
H13 H 0.7689 0.4428 -0.0992
C27 C 0.6483(9) 0.5508(6) -0.1729(6)
C28 C 0.5928(8) 0.6477(6) -0.1792(6)
H14 H 0.5385 0.6756 -0.2273
C29 C 0.8705(9) 0.1809(6) 0.2785(6)
C30 C 0.8602(8) 0.2735(6) 0.2134(6)
C31 C 0.9578(8) 0.3303(6) 0.2019(6)
H15 H 1.0302 0.3110 0.2374
C32 C 0.9487(8) 0.4136(6) 0.1393(7)
H16 H 1.0150 0.4504 0.1315
C33 C 0.8417(8) 0.4430(6) 0.0878(6)
C34 C 0.7429(8) 0.3890(6) 0.0992(7)
H17 H 0.6702 0.4097 0.0642
C35 C 0.7516(8) 0.3048(7) 0.1620(7)
H18 H 0.6844 0.2688 0.1700
C36 C 0.4943(7) 0.1254(6) -0.2061(6)
C37 C 0.5356(8) 0.2222(6) -0.2127(6)
C38 C 0.5064(8) 0.2790(6) -0.1435(6)
H19 H 0.4635 0.2543 -0.0907
C39 C 0.5393(9) 0.3722(6) -0.1507(7)
H20 H 0.5208 0.4090 -0.1028
C40 C 0.5985(8) 0.4081(6) -0.2283(6)
C41 C 0.6310(9) 0.3535(6) -0.3000(6)
H21 H 0.6731 0.3792 -0.3527
C42 C 0.5995(8) 0.2610(6) -0.2909(6)
H22 H 0.6213 0.2234 -0.3380
O1 O 0.6374(6) -0.1320(4) 0.4621(4)
O2 O 0.7363(5) -0.0564(4) 0.3439(4)
O3 O 1.0425(6) -0.8503(4) 0.5422(5)
O4 O 0.8787(6) -0.9214(4) 0.5212(4)
O5 O 1.3151(5) -0.0575(4) 0.0192(5)
O6 O 1.2036(6) -0.0403(5) -0.1110(5)
O7 O 0.6532(5) -0.4730(4) 0.3952(5)
O8 O 0.8891(7) -0.3224(5) 0.1490(5)
O9 O 0.5892(6) 0.8609(4) -0.0654(4)
O10 O 0.4759(6) 0.8375(4) -0.1826(5)
O11 O 0.9753(6) 0.1499(4) 0.3196(4)
O12 O 0.7786(6) 0.1335(4) 0.2931(4)
O13 O 0.4299(5) 0.0945(4) -0.1352(4)
O14 O 0.5127(5) 0.0769(4) -0.2717(4)
O15 O 0.8414(6) 0.5297(4) 0.0297(5)
O16 O 0.6299(7) 0.5022(4) -0.2464(4)
O17 O 0.4595(7) -0.1187(5) 0.6227(5)
H23 H 0.5329 -0.1685 0.6321
H24 H 0.4419 -0.0886 0.6774
O18 O 0.3477(6) -0.0338(5) 0.4152(5)
H25 H 0.3828 -0.0851 0.3806
H26 H 0.2805 -0.0549 0.4552
O19 O 1.0033(7) -0.0417(5) 0.2496(5)
H27 H 0.9474 -0.0239 0.2081
H28 H 1.0344 -0.1015 0.2459
Cd2A Cd 0.08608(6) -0.00378(4) 0.61483(4)
Cd4A Cd -0.35598(6) 0.02397(4) 1.21407(5)
C1A C 0.2991(8) 0.1338(6) 0.6101(6)
C2A C 0.2639(7) 0.2264(6) 0.6480(6)
C3A C 0.3126(8) 0.3090(6) 0.6043(6)
H1A H 0.3606 0.3075 0.5500
C4A C 0.2867(8) 0.3940(6) 0.6453(7)
C5A C 0.2189(8) 0.3972(6) 0.7252(7)
H2A H 0.2050 0.4543 0.7519
C6A C 0.1712(8) 0.3154(6) 0.7661(7)
C7A C 0.1926(7) 0.2305(6) 0.7280(6)
H3A H 0.1589 0.1756 0.7564
C8A C 0.0707(8) 0.8438(6) 0.4817(6)
C9A C 0.1424(8) 0.7462(6) 0.5123(6)
C10A C 0.0819(9) 0.6632(7) 0.5235(8)
H4A H -0.0039 0.6702 0.5098
C11A C 0.1461(9) 0.5720(6) 0.5541(7)
H5A H 0.1043 0.5175 0.5610
C12A C 0.2738(9) 0.5612(6) 0.5749(6)
C13A C 0.3357(8) 0.6423(6) 0.5644(6)
H6A H 0.4212 0.6355 0.5786
C14A C 0.2692(8) 0.7332(6) 0.5326(6)
H7A H 0.3115 0.7874 0.5246
C15A C -0.2234(8) 0.0719(6) 1.0252(7)
C16A C -0.1314(8) 0.1333(7) 0.9758(7)
C17A C -0.1588(9) 0.1863(7) 0.8909(7)
H8A H -0.2326 0.1811 0.8614
C18A C -0.0760(9) 0.2480(7) 0.8488(7)
H9A H -0.0961 0.2851 0.7917
C19A C 0.0313(9) 0.2550(7) 0.8884(8)
C20A C 0.0633(11) 0.1997(9) 0.9723(8)
H10A H 0.1401 0.2026 0.9990
C21A C -0.0187(10) 0.1401(9) 1.0165(8)
H11A H 0.0015 0.1042 1.0741
C22A C 0.4429(7) -0.8092(6) 1.1198(6)
C23A C 0.3820(8) -0.7031(6) 1.1137(6)
C24A C 0.3034(7) -0.6604(6) 1.0416(6)
H12A H 0.2882 -0.6962 0.9959
C25A C 0.2481(8) -0.5642(6) 1.0380(6)
C26A C 0.2699(8) -0.5077(6) 1.1026(6)
H13A H 0.2311 -0.4428 1.0992
C27A C 0.3517(9) -0.5508(6) 1.1729(6)
C28A C 0.4072(8) -0.6477(6) 1.1792(6)
H14A H 0.4615 -0.6756 1.2273
C29A C 0.1295(9) -0.1809(6) 0.7215(6)
C30A C 0.1398(8) -0.2735(6) 0.7866(6)
C31A C 0.0422(8) -0.3303(6) 0.7981(6)
H15A H -0.0302 -0.3110 0.7626
C32A C 0.0513(8) -0.4136(6) 0.8607(7)
H16A H -0.0150 -0.4504 0.8685
C33A C 0.1583(8) -0.4430(6) 0.9122(6)
C34A C 0.2571(8) -0.3890(6) 0.9008(7)
H17A H 0.3298 -0.4097 0.9358
C35A C 0.2484(8) -0.3048(7) 0.8380(7)
H18A H 0.3156 -0.2688 0.8300
C36A C 0.5057(7) -0.1254(6) 1.2061(6)
C37A C 0.4644(8) -0.2222(6) 1.2127(6)
C38A C 0.4936(8) -0.2790(6) 1.1435(6)
H19A H 0.5365 -0.2543 1.0907
C39A C 0.4607(9) -0.3722(6) 1.1507(7)
H20A H 0.4792 -0.4090 1.1028
C40A C 0.4015(8) -0.4081(6) 1.2283(6)
C41A C 0.3690(9) -0.3535(6) 1.3000(6)
H21A H 0.3269 -0.3792 1.3527
C42A C 0.4005(8) -0.2610(6) 1.2909(6)
H22A H 0.3787 -0.2234 1.3380
O1A O 0.3626(6) 0.1320(4) 0.5379(4)
O2A O 0.2637(5) 0.0564(4) 0.6561(4)
O3A O -0.0425(6) 0.8503(4) 0.4578(5)
O4A O 0.1213(6) 0.9214(4) 0.4788(4)
O5A O -0.3151(5) 0.0575(4) 0.9808(5)
O6A O -0.2036(6) 0.0403(5) 1.1110(5)
O7A O 0.3468(5) 0.4730(4) 0.6048(5)
O8A O 0.1109(7) 0.3224(5) 0.8510(5)
O9A O 0.4108(6) -0.8609(4) 1.0654(4)
O10A O 0.5241(6) -0.8375(4) 1.1826(5)
O11A O 0.0247(6) -0.1499(4) 0.6804(4)
O12A O 0.2214(6) -0.1335(4) 0.7069(4)
O13A O 0.5701(5) -0.0945(4) 1.1352(4)
O14A O 0.4873(5) -0.0769(4) 1.2717(4)
O15A O 0.1586(6) -0.5297(4) 0.9703(5)
O16A O 0.3701(7) -0.5022(4) 1.2464(4)
O17A O 0.5405(7) 0.1187(5) 0.3773(5)
H23A H 0.4671 0.1685 0.3679
H24A H 0.5581 0.0886 0.3226
O18A O 0.6523(6) 0.0338(5) 0.5848(5)
H25A H 0.6172 0.0851 0.6194
H26A H 0.7195 0.0549 0.5448
O19A O -0.0033(7) 0.0417(5) 0.7504(5)
H27A H 0.0526 0.0239 0.7919
H28A H -0.0344 0.1015 0.7541
Cd2_2 Cd -0.08608(6) 1.00378(4) 0.38517(4)
Cd2_3 Cd 0.91392(6) -0.99622(4) 0.38517(4)
Cd2A_2 Cd 0.08608(6) 0.99622(4) 0.61483(4)
Cd2A_3 Cd 1.08608(6) -1.00378(4) 0.61483(4)
Cd3_2 Cd -0.5000 0.0000 1.0000
Cd3_3 Cd 0.5000 -1.0000 1.0000
Cd3_4 Cd 0.5000 0.0000 0.0000
Cd3_5 Cd 0.5000 0.0000 1.0000
Cd3_6 Cd 0.5000 1.0000 0.0000
Cd4_2 Cd 0.35598(6) -0.02397(4) -0.21407(5)
Cd4_3 Cd 0.35598(6) -0.02397(4) 0.78593(5)
Cd4_4 Cd 0.35598(6) 0.97603(4) -0.21407(5)
Cd4A_2 Cd 0.64402(6) -0.97603(4) 1.21407(5)
Cd4A_3 Cd 0.64402(6) 0.02397(4) 0.21407(5)
Cd4A_4 Cd 0.64402(6) 0.02397(4) 1.21407(5)
O2_2 O -0.2637(5) -0.0564(4) 1.3439(4)
O2A_2 O 1.2637(5) 0.0564(4) -0.3439(4)
O3_2 O 0.0425(6) 0.1497(4) 0.5422(5)
O3A_2 O 0.9575(6) -0.1497(4) 0.4578(5)
O4_2 O -0.1213(6) 0.0786(4) 0.5212(4)
O4_3 O 0.8787(6) 0.0786(4) 0.5212(4)
O4A_2 O 0.1213(6) -0.0786(4) 0.4788(4)
O4A_3 O 1.1213(6) -0.0786(4) 0.4788(4)
O5A_2 O 1.6849(5) 0.0575(4) -0.0192(5)
O9_2 O 1.5892(6) -0.1391(4) -0.0654(4)
O9A_2 O 1.4108(6) 0.1391(4) 0.0654(4)
O10_2 O 1.4759(6) -0.1625(4) -0.1826(5)
O10A_2 O -0.4759(6) 0.1625(4) 1.1826(5)
O12_2 O -0.2214(6) 0.1335(4) 1.2931(4)
O12A_2 O 1.2214(6) -0.1335(4) -0.2931(4)
O13_2 O 1.4299(5) 0.0945(4) -0.1352(4)
O13A_2 O -0.4299(5) -0.0945(4) 1.1352(4)
O13A_3 O 1.5701(5) -0.0945(4) 0.1352(4)
O14_2 O 1.5127(5) 0.0769(4) -0.2717(4)
O14A_2 O -0.5127(5) -0.0769(4) 1.2717(4)
O20 O 0.2137(8) 0.0336(10) 0.1967(7)
H29 H 0.2654 0.0290 0.1511
H30 H 0.1504 0.0765 0.1785
O21 O 0.2431(12) 0.1798(10) 0.3320(10)
H31 H 0.2755 0.1218 0.3550
H32 H 0.1637 0.1860 0.3433
loop_
_geom_bond_atom_site_label_1
_geom_bond_atom_site_label_2
_geom_bond_site_symmetry_1
_geom_bond_site_symmetry_2
Cd1 O1 1_555 1_555
Cd2 O2 1_555 1_555
Cd3 O5 1_555 1_555
Cd4 O6 1_555 1_555
C1 C2 1_555 1_555
C2 C3 1_555 1_555
C3 H1 1_555 1_555
C4 C3 1_555 1_555
C5 C4 1_555 1_555
H2 C5 1_555 1_555
C6 C5 1_555 1_555
C7 C2 1_555 1_555
H3 C7 1_555 1_555
C8 C9 1_555 1_555
C9 C10 1_555 1_555
C10 H4 1_555 1_555
C11 C10 1_555 1_555
H5 C11 1_555 1_555
C12 C11 1_555 1_555
C13 C12 1_555 1_555
H6 C13 1_555 1_555
C14 C9 1_555 1_555
H7 C14 1_555 1_555
C15 C16 1_555 1_555
C16 C17 1_555 1_555
C17 H8 1_555 1_555
C18 C17 1_555 1_555
H9 C18 1_555 1_555
C19 C18 1_555 1_555
C20 C19 1_555 1_555
H10 C20 1_555 1_555
C21 C16 1_555 1_555
H11 C21 1_555 1_555
C22 C23 1_555 1_555
C23 C24 1_555 1_555
C24 H12 1_555 1_555
C25 C24 1_555 1_555
C26 C25 1_555 1_555
H13 C26 1_555 1_555
C27 C26 1_555 1_555
C28 C23 1_555 1_555
H14 C28 1_555 1_555
C29 C30 1_555 1_555
C30 C31 1_555 1_555
C31 H15 1_555 1_555
C32 C31 1_555 1_555
H16 C32 1_555 1_555
C33 C32 1_555 1_555
C34 C33 1_555 1_555
H17 C34 1_555 1_555
C35 C30 1_555 1_555
H18 C35 1_555 1_555
C36 C37 1_555 1_555
C37 C38 1_555 1_555
C38 H19 1_555 1_555
C39 C38 1_555 1_555
H20 C39 1_555 1_555
C40 C39 1_555 1_555
C41 C40 1_555 1_555
H21 C41 1_555 1_555
C42 C37 1_555 1_555
H22 C42 1_555 1_555
O1 C1 1_555 1_555
O2 C1 1_555 1_555
O3 C8 1_555 1_555
O4 C8 1_555 1_555
O5 C15 1_555 1_555
O6 C15 1_555 1_555
O7 C4 1_555 1_555
O8 C6 1_555 1_555
O9 C22 1_555 1_555
O10 C22 1_555 1_555
O11 Cd2 1_555 1_555
O12 Cd2 1_555 1_555
O13 C36 1_555 1_555
O14 C36 1_555 1_555
O15 C25 1_555 1_555
O16 C27 1_555 1_555
O17 Cd1 1_555 1_555
H23 O17 1_555 1_555
H24 O17 1_555 1_555
O18 Cd1 1_555 1_555
H25 O18 1_555 1_555
H26 O18 1_555 1_555
O19 Cd2 1_555 1_555
H27 O19 1_555 1_555
H28 O19 1_555 1_555
O20 H29 1_555 1_555
H30 O20 1_555 1_555
O21 H31 1_555 1_555
H32 O21 1_555 1_555
Cd2A O2A 1_555 1_555
Cd4A O6A 1_555 1_555
C1A C2A 1_555 1_555
C2A C3A 1_555 1_555
C3A H1A 1_555 1_555
C4A C3A 1_555 1_555
C5A C4A 1_555 1_555
H2A C5A 1_555 1_555
C6A C5A 1_555 1_555
C7A C2A 1_555 1_555
H3A C7A 1_555 1_555
C8A C9A 1_555 1_555
C9A C10A 1_555 1_555
C10A H4A 1_555 1_555
C11A C10A 1_555 1_555
H5A C11A 1_555 1_555
C12A C11A 1_555 1_555
C13A C12A 1_555 1_555
H6A C13A 1_555 1_555
C14A C9A 1_555 1_555
H7A C14A 1_555 1_555
C15A C16A 1_555 1_555
C16A C17A 1_555 1_555
C17A H8A 1_555 1_555
C18A C17A 1_555 1_555
H9A C18A 1_555 1_555
C19A C18A 1_555 1_555
C20A C19A 1_555 1_555
H10A C20A 1_555 1_555
C21A C16A 1_555 1_555
H11A C21A 1_555 1_555
C22A C23A 1_555 1_555
C23A C24A 1_555 1_555
C24A H12A 1_555 1_555
C25A C24A 1_555 1_555
C26A C25A 1_555 1_555
H13A C26A 1_555 1_555
C27A C26A 1_555 1_555
C28A C23A 1_555 1_555
H14A C28A 1_555 1_555
C29A C30A 1_555 1_555
C30A C31A 1_555 1_555
C31A H15A 1_555 1_555
C32A C31A 1_555 1_555
H16A C32A 1_555 1_555
C33A C32A 1_555 1_555
C34A C33A 1_555 1_555
H17A C34A 1_555 1_555
C35A C30A 1_555 1_555
H18A C35A 1_555 1_555
C36A C37A 1_555 1_555
C37A C38A 1_555 1_555
C38A H19A 1_555 1_555
C39A C38A 1_555 1_555
H20A C39A 1_555 1_555
C40A C39A 1_555 1_555
C41A C40A 1_555 1_555
H21A C41A 1_555 1_555
C42A C37A 1_555 1_555
H22A C42A 1_555 1_555
O1A Cd1 1_555 1_555
O2A C1A 1_555 1_555
O3A C8A 1_555 1_555
O4A C8A 1_555 1_555
O5A C15A 1_555 1_555
O6A C15A 1_555 1_555
O7A C4A 1_555 1_555
O8A C6A 1_555 1_555
O9A C22A 1_555 1_555
O10A C22A 1_555 1_555
O11A Cd2A 1_555 1_555
O12A Cd2A 1_555 1_555
O13A C36A 1_555 1_555
O14A C36A 1_555 1_555
O15A C25A 1_555 1_555
O16A C27A 1_555 1_555
O17A Cd1 1_555 1_555
H23A O17A 1_555 1_555
H24A O17A 1_555 1_555
O18A Cd1 1_555 1_555
H25A O18A 1_555 1_555
H26A O18A 1_555 1_555
O19A Cd2A 1_555 1_555
H27A O19A 1_555 1_555
H28A O19A 1_555 1_555
Cd2_2 O3A 1_555 1_555
Cd2_3 O4 1_555 1_555
Cd2A_2 O4A 1_555 1_555
Cd2A_3 O3 1_555 1_555
Cd3_2 O5A 1_555 1_555
Cd3_3 O9A 1_555 1_555
Cd3_4 O13 1_555 1_555
Cd3_5 O13A 1_555 1_555
Cd3_6 O9 1_555 1_555
Cd4_2 O13 1_555 1_555
Cd4_3 O2A 1_555 1_555
Cd4_4 O10 1_555 1_555
Cd4A_2 O10A 1_555 1_555
Cd4A_3 O2 1_555 1_555
Cd4A_4 O13A 1_555 1_555
O2_2 Cd4A 1_555 1_555
O2A_2 Cd4 1_555 1_555
O3_2 Cd2A 1_555 1_555
O3A_2 Cd2 1_555 1_555
O4_2 Cd2A 1_555 1_555
O4_3 Cd2 1_555 1_555
O4A_2 Cd2A 1_555 1_555
O4A_3 Cd2 1_555 1_555
O5A_2 Cd3 1_555 1_555
O9_2 Cd3 1_555 1_555
O9A_2 Cd3 1_555 1_555
O10_2 Cd4 1_555 1_555
O10A_2 Cd4A 1_555 1_555
O12_2 Cd4A 1_555 1_555
O12A_2 Cd4 1_555 1_555
O13_2 Cd3 1_555 1_555
O13A_2 Cd4A 1_555 1_555
O13A_3 Cd3 1_555 1_555
O14_2 Cd4 1_555 1_555
O14A_2 Cd4A 1_555 1_555
Cd4 O13_2 1_555 1_555
C6 C7 1_555 1_555
C12 O7 1_555 1_555
C13 C14 1_555 1_555
C19 O8 1_555 1_555
C20 C21 1_555 1_555
C27 C28 1_555 1_555
C29 O11 1_555 1_555
C29 O12 1_555 1_555
C33 O15 1_555 1_555
C34 C35 1_555 1_555
C40 O16 1_555 1_555
C41 C42 1_555 1_555
O4 Cd2A_3 1_555 1_555
O12 Cd4A_3 1_555 1_555
O14 Cd4_2 1_555 1_555
C1A O1A 1_555 1_555
C6A C7A 1_555 1_555
C12A O7A 1_555 1_555
C13A C14A 1_555 1_555
C19A O8A 1_555 1_555
C20A C21A 1_555 1_555
C27A C28A 1_555 1_555
C29A O11A 1_555 1_555
C29A O12A 1_555 1_555
C33A O15A 1_555 1_555
C34A C35A 1_555 1_555
C40A O16A 1_555 1_555
C41A C42A 1_555 1_555
O4A Cd2_2 1_555 1_555
O12A Cd4_3 1_555 1_555
O14A Cd4A_4 1_555 1_555
Cd3_2 O13A_2 1_555 1_555

#END
