
#######################################################################
#
#                 Cambridge Crystallographic Data Centre
#                                CCDC 
#
#######################################################################
#
# If this CIF has been generated from an entry in the Cambridge 
# Structural Database, then it will include bibliographic, chemical, 
# crystal, experimental, refinement or atomic coordinate data resulting 
# from the CCDC's data processing and validation procedures.
#
#######################################################################

data_FOKYIP
_symmetry_cell_setting           monoclinic
_symmetry_space_group_name_H-M   'C 2/c'
_symmetry_Int_Tables_number      15
_space_group_name_Hall           '-C 2yn'
loop_
_symmetry_equiv_pos_site_id
_symmetry_equiv_pos_as_xyz
1 x,y,z
2 -x,y,1/2-z
3 1/2+x,1/2+y,z
4 1/2-x,1/2+y,1/2-z
5 -x,-y,-z
6 x,-y,1/2+z
7 1/2-x,1/2-y,-z
8 1/2+x,1/2-y,1/2+z
_cell_length_a                   24.8718(8)
_cell_length_b                   13.7591(4)
_cell_length_c                   13.6832(4)
_cell_angle_alpha                90
_cell_angle_beta                 98.949(3)
_cell_angle_gamma                90
_cell_volume                     4625.58
loop_
_atom_site_label
_atom_site_type_symbol
_atom_site_fract_x
_atom_site_fract_y
_atom_site_fract_z
Nd1 Nd 0.169935(4) 0.215976(8) 0.461143(7)
C1 C 0.07445(8) 0.28171(17) 0.53794(17)
C2 C 0.02339(8) 0.31325(18) 0.57545(16)
C3 C -0.01509(9) 0.2441(2) 0.5928(2)
H1 H -0.0079 0.1780 0.5880
C4 C -0.06421(10) 0.2756(2) 0.6174(2)
H2 H -0.0901 0.2296 0.6279
C5 C -0.07611(8) 0.37343(18) 0.62696(16)
C6 C -0.03703(8) 0.4411(2) 0.61123(18)
H3 H -0.0438 0.5072 0.6169
C7 C 0.01210(9) 0.40952(19) 0.58702(18)
H4 H 0.0384 0.4554 0.5783
C8 C -0.13128(8) 0.40076(18) 0.64894(16)
C9 C -0.15327(8) 0.34646(18) 0.71905(16)
H5 H -0.1322 0.2991 0.7553
C10 C -0.20685(8) 0.36262(17) 0.73541(15)
C11 C -0.23788(8) 0.43227(18) 0.67891(15)
H6 H -0.2743 0.4402 0.6852
C12 C -0.21507(7) 0.49013(17) 0.61314(14)
C13 C -0.16117(8) 0.47531(17) 0.59998(15)
H7 H -0.1454 0.5159 0.5581
C14 C -0.22852(8) 0.30586(17) 0.81514(16)
C15 C -0.24955(8) 0.56796(15) 0.55919(14)
C16 C 0.0602(3) 0.3410(7) 0.1628(5)
H8 H 0.0291 0.3089 0.1819
H9 H 0.0567 0.3423 0.0919
H10 H 0.0622 0.4063 0.1878
C17 C 0.1597(3) 0.3526(7) 0.1840(6)
H11 H 0.1952 0.3257 0.2052
H12 H 0.1564 0.4132 0.2172
H13 H 0.1546 0.3632 0.1138
C18 C 0.18028(13) -0.0667(3) 0.3259(3)
H14 H 0.2144 -0.0376 0.3531
H15 H 0.1859 -0.1122 0.2753
H16 H 0.1654 -0.0999 0.3772
C19 C 0.07698(14) -0.0466(3) 0.2355(3)
H17 H 0.0646 -0.0739 0.2926
H18 H 0.0868 -0.0980 0.1942
H19 H 0.0484 -0.0083 0.1990
O1 O 0.10647(6) 0.34469(13) 0.51580(13)
O2 O 0.08320(6) 0.19170(13) 0.52801(13)
O3 O -0.22779(5) 0.64288(11) 0.52902(11)
O4 O -0.30057(5) 0.55746(12) 0.54456(12)
O5 O -0.27723(5) 0.32574(14) 0.82768(11)
O6 O -0.19849(6) 0.24627(13) 0.86159(11)
O7 O 0.12417(9) 0.30138(17) 0.31511(15)
O8 O 0.12051(6) 0.08501(14) 0.36065(12)
S1 S 0.11625(6) 0.28143(10) 0.20900(8)
S2 S 0.13352(3) 0.02684(6) 0.27314(5)
Nd1A Nd -0.169935(4) 0.215976(8) 1.038857(7)
Nd1B Nd -0.330065(4) 0.715976(8) 0.461143(7)
Nd1D Nd -0.169935(4) 0.784024(8) 0.538857(7)
Nd1G Nd -0.330065(4) 0.284024(8) 0.961143(7)
O3B O 0.27221(5) 0.14288(11) 0.52902(11)
O3D O 0.22779(5) 0.35712(11) 0.47098(11)
O4B O 0.19943(5) 0.05746(12) 0.54456(12)
O5G O 0.22277(5) 0.17426(14) 0.32768(11)
O6A O 0.19849(6) 0.24627(13) 0.63841(11)
loop_
_geom_bond_atom_site_label_1
_geom_bond_atom_site_label_2
_geom_bond_site_symmetry_1
_geom_bond_site_symmetry_2
Nd1 O1 1_555 1_555
C1 C2 1_555 1_555
C2 C3 1_555 1_555
C3 H1 1_555 1_555
C4 C3 1_555 1_555
H2 C4 1_555 1_555
C5 C4 1_555 1_555
C6 C5 1_555 1_555
H3 C6 1_555 1_555
C7 C2 1_555 1_555
H4 C7 1_555 1_555
C8 C5 1_555 1_555
C9 C8 1_555 1_555
H5 C9 1_555 1_555
C10 C9 1_555 1_555
C11 C10 1_555 1_555
H6 C11 1_555 1_555
C12 C11 1_555 1_555
C13 C8 1_555 1_555
H7 C13 1_555 1_555
C14 C10 1_555 1_555
C15 C12 1_555 1_555
C16 H8 1_555 1_555
H9 C16 1_555 1_555
H10 C16 1_555 1_555
C17 H11 1_555 1_555
H12 C17 1_555 1_555
H13 C17 1_555 1_555
C18 H14 1_555 1_555
H15 C18 1_555 1_555
H16 C18 1_555 1_555
C19 H17 1_555 1_555
H18 C19 1_555 1_555
H19 C19 1_555 1_555
O1 C1 1_555 1_555
O2 Nd1 1_555 1_555
O3 C15 1_555 1_555
O4 C15 1_555 1_555
O5 C14 1_555 1_555
O6 C14 1_555 1_555
O7 Nd1 1_555 1_555
O8 Nd1 1_555 1_555
S1 C16 1_555 1_555
S2 C18 1_555 1_555
Nd1A O6 1_555 1_555
Nd1B O3 1_555 1_555
Nd1D O3 1_555 1_555
Nd1G O5 1_555 1_555
O3B Nd1 1_555 1_555
O3D Nd1 1_555 1_555
O4B Nd1 1_555 1_555
O5G Nd1 1_555 1_555
O6A Nd1 1_555 1_555
C1 O2 1_555 1_555
C6 C7 1_555 1_555
C12 C13 1_555 1_555
C17 S1 1_555 1_555
C19 S2 1_555 1_555
O4 Nd1B 1_555 1_555
O7 S1 1_555 1_555
O8 S2 1_555 1_555

#END
