
#######################################################################
#
#                 Cambridge Crystallographic Data Centre
#                                CCDC 
#
#######################################################################
#
# If this CIF has been generated from an entry in the Cambridge 
# Structural Database, then it will include bibliographic, chemical, 
# crystal, experimental, refinement or atomic coordinate data resulting 
# from the CCDC's data processing and validation procedures.
#
#######################################################################

data_FOKZEM
_symmetry_cell_setting           monoclinic
_symmetry_space_group_name_H-M   'C 2/c'
_symmetry_Int_Tables_number      15
_space_group_name_Hall           '-C 2yn'
loop_
_symmetry_equiv_pos_site_id
_symmetry_equiv_pos_as_xyz
1 x,y,z
2 -x,y,1/2-z
3 1/2+x,1/2+y,z
4 1/2-x,1/2+y,1/2-z
5 -x,-y,-z
6 x,-y,1/2+z
7 1/2-x,1/2-y,-z
8 1/2+x,1/2-y,1/2+z
_cell_length_a                   19.1194(4)
_cell_length_b                   15.6049(3)
_cell_length_c                   22.6509(5)
_cell_angle_alpha                90
_cell_angle_beta                 109.7240(10)
_cell_angle_gamma                90
_cell_volume                     6361.54
loop_
_atom_site_label
_atom_site_type_symbol
_atom_site_fract_x
_atom_site_fract_y
_atom_site_fract_z
C1 C 0.6268(3) 0.6433(4) 0.6046(3)
C2 C 1.1093(2) 0.7206(3) 0.9024(2)
C3 C 0.8798(3) 0.7459(3) 0.7731(3)
H1 H 0.8480 0.6994 0.7595
C4 C 0.7925(3) 0.9783(3) 0.6272(2)
C5 C 1.1819(2) 0.7373(3) 0.9523(2)
C6 C 0.6846(3) 0.9694(4) 0.7678(3)
H2 H 0.6968 1.0110 0.7436
C7 C 0.9980(2) 0.7981(3) 0.8342(2)
C8 C 0.7560(3) 1.2103(4) 0.5186(3)
C9 C 0.9009(3) 0.8884(3) 0.7735(2)
H3 H 0.8843 0.9434 0.7602
C10 C 1.1977(3) 0.8145(4) 0.9858(2)
H4 H 1.1623 0.8580 0.9763
C11 C 0.7795(3) 1.0594(3) 0.5899(3)
C12 C 0.6829(3) 0.7028(5) 0.6484(3)
C13 C 1.2350(3) 0.6736(3) 0.9674(2)
H5 H 1.2252 0.6219 0.9456
C14 C 0.9716(3) 0.8791(3) 0.8132(3)
H6 H 1.0022 0.9267 0.8261
C15 C 0.5656(3) 0.6738(4) 0.5580(3)
H7 H 0.5570 0.7325 0.5537
C16 C 0.4599(4) 0.9352(4) 0.9603(3)
H8 H 0.4336 0.8921 0.9336
C17 C 0.6374(4) 0.5576(4) 0.6091(3)
H9 H 0.6789 0.5360 0.6404
C18 C 0.5162(3) 0.6176(4) 0.5172(3)
H10 H 0.4750 0.6396 0.4859
C19 C 0.6347(3) 0.9352(4) 0.8473(3)
C20 C 0.6544(5) 0.8512(4) 0.8424(4)
H11 H 0.6464 0.8089 0.8683
C21 C 0.7231(4) 1.1136(4) 0.5869(4)
H12 H 0.6916 1.1007 0.6092
C22 C 0.6515(3) 0.9947(4) 0.8093(3)
H13 H 0.6403 1.0523 0.8121
C23 C 0.5265(3) 0.5299(4) 0.5217(2)
C24 C 0.7114(4) 1.1875(5) 0.5515(4)
H14 H 0.6717 1.2228 0.5502
C25 C 0.5700(4) 1.0242(4) 0.9996(3)
H15 H 0.6167 1.0401 0.9990
C26 C 0.9502(3) 0.7301(3) 0.8128(3)
H16 H 0.9656 0.6744 0.8252
C27 C 0.5307(4) 0.9601(4) 0.9603(3)
C28 C 0.6864(5) 0.8317(4) 0.7978(4)
H17 H 0.6990 0.7748 0.7944
C29 C 0.5623(4) 0.9127(4) 0.9179(4)
C30 C 0.8115(6) 1.1560(5) 0.5214(5)
H18 H 0.8430 1.1690 0.4991
C31 C 0.5884(4) 0.5008(4) 0.5686(3)
H19 H 0.5976 0.4423 0.5733
C32 C 0.8235(5) 1.0817(5) 0.5562(4)
H20 H 0.8626 1.0459 0.5566
N1 N 0.7005(2) 0.8875(3) 0.7598(2)
N2 N 0.8536(2) 0.8236(3) 0.75250(18)
N3 N 1.0711(2) 0.7918(3) 0.87578(19)
H21 H 1.0949 0.8394 0.8857
N4 N 0.6007(3) 0.9628(3) 0.8895(3)
H22 H 0.6041 1.0165 0.8986
O1 O 0.6768(2) 0.7811(3) 0.6342(2)
O2 O 0.7287(3) 0.6760(4) 0.6950(3)
O3 O 0.7471(2) 0.9612(2) 0.65506(19)
O4 O 0.8472(3) 0.9340(3) 0.6303(2)
O5 O 0.5533(4) 0.8365(3) 0.9090(3)
O6 O 1.08605(19) 0.6485(2) 0.88749(19)
Zn1 Zn 0.74880(3) 0.85088(3) 0.69537(2)
C1D C 0.3732(3) 0.3567(4) 0.3954(3)
C12D C 0.3171(3) 0.2972(5) 0.3516(3)
C15D C 0.4344(3) 0.3262(4) 0.4420(3)
H7D H 0.4430 0.2675 0.4463
C17D C 0.3626(4) 0.4424(4) 0.3909(3)
H9D H 0.3211 0.4640 0.3596
C18D C 0.4838(3) 0.3824(4) 0.4828(3)
H10D H 0.5250 0.3604 0.5141
C23D C 0.4735(3) 0.4701(4) 0.4783(2)
C31D C 0.4116(4) 0.4992(4) 0.4314(3)
H19D H 0.4024 0.5577 0.4267
O1D O 0.3232(2) 0.2189(3) 0.3658(2)
O2D O 0.2713(3) 0.3240(4) 0.3050(3)
C2F C 1.3907(2) 0.7794(3) 1.0976(2)
C3F C 1.6202(3) 0.7541(3) 1.2269(3)
H1F H 1.6520 0.8006 1.2405
C5F C 1.3181(2) 0.7627(3) 1.0477(2)
C7F C 1.5020(2) 0.7019(3) 1.1658(2)
C9F C 1.5991(3) 0.6116(3) 1.2265(2)
H3F H 1.6157 0.5566 1.2398
C10F C 1.3023(3) 0.6855(4) 1.0142(2)
H4F H 1.3377 0.6420 1.0237
C13F C 1.2650(3) 0.8264(3) 1.0326(2)
H5F H 1.2748 0.8781 1.0544
C14F C 1.5284(3) 0.6209(3) 1.1868(3)
H6F H 1.4978 0.5733 1.1739
C26F C 1.5498(3) 0.7699(3) 1.1872(3)
H16F H 1.5344 0.8256 1.1748
N2F N 1.6464(2) 0.6764(3) 1.24750(18)
N3F N 1.4289(2) 0.7082(3) 1.12422(19)
H21F H 1.4051 0.6606 1.1143
O6F O 1.41395(19) 0.8515(2) 1.11251(19)
C4F C 0.7075(3) 1.5217(3) 0.3728(2)
C8F C 0.7440(3) 1.2897(4) 0.4814(3)
C11F C 0.7205(3) 1.4406(3) 0.4101(3)
C21F C 0.7769(4) 1.3864(4) 0.4131(4)
H12F H 0.8084 1.3993 0.3908
C24F C 0.7886(4) 1.3125(5) 0.4485(4)
H14F H 0.8283 1.2772 0.4498
C30F C 0.6885(6) 1.3440(5) 0.4786(5)
H18F H 0.6570 1.3310 0.5009
C32F C 0.6765(5) 1.4183(5) 0.4438(4)
H20F H 0.6374 1.4541 0.4434
O3F O 0.7529(2) 1.5388(2) 0.34494(19)
O4F O 0.6528(3) 1.5660(3) 0.3697(2)
C6D C 0.3154(3) 1.0306(4) 1.2322(3)
H2D H 0.3032 0.9890 1.2564
C16D C 0.5401(4) 1.0648(4) 1.0397(3)
H8D H 0.5664 1.1079 1.0664
C19D C 0.3653(3) 1.0648(4) 1.1527(3)
C20D C 0.3456(5) 1.1488(4) 1.1576(4)
H11D H 0.3536 1.1911 1.1317
C22D C 0.3485(3) 1.0053(4) 1.1907(3)
H13D H 0.3597 0.9477 1.1879
C25D C 0.4300(4) 0.9758(4) 1.0004(3)
H15D H 0.3833 0.9599 1.0010
C27D C 0.4693(4) 1.0399(4) 1.0397(3)
C28D C 0.3136(5) 1.1683(4) 1.2022(4)
H17D H 0.3010 1.2252 1.2056
C29D C 0.4377(4) 1.0873(4) 1.0821(4)
N1D N 0.2995(2) 1.1125(3) 1.2402(2)
N4D N 0.3993(3) 1.0372(3) 1.1105(3)
H22D H 0.3959 0.9835 1.1014
O5D O 0.4467(4) 1.1635(3) 1.0910(3)
Zn1D Zn 0.25120(3) 0.14912(3) 0.30463(2)
N1D_2 N 0.2995(2) 0.1125(3) 0.2402(2)
N2D N 0.1464(2) 0.1764(3) 0.24750(18)
O3D O 0.2529(2) 0.0388(2) 0.34494(19)
Zn1D_2 Zn 0.25120(3) 1.14912(3) 1.30463(2)
Zn1F Zn 0.75120(3) 1.64912(3) 0.30463(2)
Zn1F_2 Zn 1.75120(3) 0.64912(3) 1.30463(2)
O7 O 0.5000 0.6578(8) 0.7500
O8? O 0.6043(19) 0.600(2) 0.7574(16)
loop_
_geom_bond_atom_site_label_1
_geom_bond_atom_site_label_2
_geom_bond_site_symmetry_1
_geom_bond_site_symmetry_2
C1 C12 1_555 1_555
C2 C5 1_555 1_555
C3 H1 1_555 1_555
C4 C11 1_555 1_555
C5 C10 1_555 1_555
C6 H2 1_555 1_555
C7 C14 1_555 1_555
C8 C24 1_555 1_555
C9 H3 1_555 1_555
C10 H4 1_555 1_555
C11 C21 1_555 1_555
C12 O1 1_555 1_555
C13 C5 1_555 1_555
H5 C13 1_555 1_555
C14 C9 1_555 1_555
H6 C14 1_555 1_555
C15 C1 1_555 1_555
H7 C15 1_555 1_555
C16 H8 1_555 1_555
C17 C1 1_555 1_555
H9 C17 1_555 1_555
C18 C15 1_555 1_555
H10 C18 1_555 1_555
C19 C20 1_555 1_555
C20 H11 1_555 1_555
C21 H12 1_555 1_555
C22 C6 1_555 1_555
H13 C22 1_555 1_555
C23 C18 1_555 1_555
C24 C21 1_555 1_555
H14 C24 1_555 1_555
C25 H15 1_555 1_555
C26 C3 1_555 1_555
H16 C26 1_555 1_555
C27 C16 1_555 1_555
C28 C20 1_555 1_555
H17 C28 1_555 1_555
C29 C27 1_555 1_555
C30 C8 1_555 1_555
H18 C30 1_555 1_555
C31 C17 1_555 1_555
H19 C31 1_555 1_555
C32 C11 1_555 1_555
H20 C32 1_555 1_555
N1 C6 1_555 1_555
N2 C3 1_555 1_555
N3 C2 1_555 1_555
H21 N3 1_555 1_555
N4 C19 1_555 1_555
H22 N4 1_555 1_555
O1 Zn1 1_555 1_555
O2 C12 1_555 1_555
O3 C4 1_555 1_555
O4 C4 1_555 1_555
O5 C29 1_555 1_555
O6 C2 1_555 1_555
Zn1 N1 1_555 1_555
C1D C12D 1_555 1_555
C12D O1D 1_555 1_555
C15D C1D 1_555 1_555
H7D C15D 1_555 1_555
C17D C1D 1_555 1_555
H9D C17D 1_555 1_555
C18D C15D 1_555 1_555
H10D C18D 1_555 1_555
C23D C23 1_555 1_555
C31D C17D 1_555 1_555
H19D C31D 1_555 1_555
O1D Zn1D 1_555 1_555
O2D C12D 1_555 1_555
C2F C5F 1_555 1_555
C3F H1F 1_555 1_555
C5F C10F 1_555 1_555
C7F C14F 1_555 1_555
C9F H3F 1_555 1_555
C10F C13 1_555 1_555
H4F C10F 1_555 1_555
C13F C10 1_555 1_555
H5F C13F 1_555 1_555
C14F C9F 1_555 1_555
H6F C14F 1_555 1_555
C26F C3F 1_555 1_555
H16F C26F 1_555 1_555
N2F C3F 1_555 1_555
N3F C2F 1_555 1_555
H21F N3F 1_555 1_555
O6F C2F 1_555 1_555
C4F C11F 1_555 1_555
C8F C8 1_555 1_555
C11F C21F 1_555 1_555
C21F H12F 1_555 1_555
C24F C8F 1_555 1_555
H14F C24F 1_555 1_555
C30F C8F 1_555 1_555
H18F C30F 1_555 1_555
C32F C11F 1_555 1_555
H20F C32F 1_555 1_555
O3F C4F 1_555 1_555
O4F C4F 1_555 1_555
C6D H2D 1_555 1_555
C16D C25 1_555 1_555
H8D C16D 1_555 1_555
C19D C20D 1_555 1_555
C20D H11D 1_555 1_555
C22D C6D 1_555 1_555
H13D C22D 1_555 1_555
C25D C16 1_555 1_555
H15D C25D 1_555 1_555
C27D C16D 1_555 1_555
C28D C20D 1_555 1_555
H17D C28D 1_555 1_555
C29D C27D 1_555 1_555
N1D C6D 1_555 1_555
N4D C19D 1_555 1_555
H22D N4D 1_555 1_555
O5D C29D 1_555 1_555
Zn1D N1D_2 1_555 1_555
N2D Zn1D 1_555 1_555
O3D Zn1D 1_555 1_555
Zn1D_2 N1D 1_555 1_555
Zn1F O3F 1_555 1_555
Zn1F_2 N2F 1_555 1_555
C7 C26 1_555 1_555
C7 N3 1_555 1_555
C9 N2 1_555 1_555
C19 C22 1_555 1_555
C23 C31 1_555 1_555
C25 C27 1_555 1_555
C28 N1 1_555 1_555
C29 N4 1_555 1_555
C30 C32 1_555 1_555
N2 Zn1 1_555 1_555
O3 Zn1 1_555 1_555
C18D C23D 1_555 1_555
C23D C31D 1_555 1_555
C5F C13F 1_555 1_555
C7F C26F 1_555 1_555
C7F N3F 1_555 1_555
C9F N2F 1_555 1_555
C21F C24F 1_555 1_555
C30F C32F 1_555 1_555
C19D C22D 1_555 1_555
C25D C27D 1_555 1_555
C28D N1D 1_555 1_555
C29D N4D 1_555 1_555

#END
