
#######################################################################
#
#                 Cambridge Crystallographic Data Centre
#                                CCDC 
#
#######################################################################
#
# If this CIF has been generated from an entry in the Cambridge 
# Structural Database, then it will include bibliographic, chemical, 
# crystal, experimental, refinement or atomic coordinate data resulting 
# from the CCDC's data processing and validation procedures.
#
#######################################################################

data_FOKZIQ
_symmetry_cell_setting           triclinic
_symmetry_space_group_name_H-M   'P -1'
_symmetry_Int_Tables_number      2
_space_group_name_Hall           '-P 1'
loop_
_symmetry_equiv_pos_site_id
_symmetry_equiv_pos_as_xyz
1 x,y,z
2 -x,-y,-z
_cell_length_a                   7.8927(12)
_cell_length_b                   10.3260(15)
_cell_length_c                   12.799(3)
_cell_angle_alpha                111.008(3)
_cell_angle_beta                 95.351(3)
_cell_angle_gamma                106.177(2)
_cell_volume                     913.269
loop_
_atom_site_label
_atom_site_type_symbol
_atom_site_fract_x
_atom_site_fract_y
_atom_site_fract_z
Cd1 Cd 0.317585(18) 0.577975(14) 0.449171(12)
Cd2 Cd 0.612045(19) 0.710781(15) 0.026237(12)
O1 O 0.5027(2) 0.55529(16) 0.11940(12)
O2 O 1.1732(2) 1.34055(17) 0.38065(15)
O3 O 1.0533(2) 0.62237(17) 0.36684(14)
O4 O 0.6611(3) 0.74582(19) -0.13979(15)
O5 O 1.2958(2) 0.80800(17) 0.47757(13)
O6 O 0.3259(2) 0.7115(2) -0.00909(16)
O7 O 0.6957(3) 0.96711(18) 0.06776(14)
O8 O 0.8891(2) 0.6895(2) 0.03555(16)
N1 N 0.6394(2) 0.86634(17) 0.23734(14)
O9 O 0.3856(2) 0.53160(17) 0.26570(14)
C1 C 0.8259(2) 0.9151(2) 0.29495(15)
C2 C 1.1220(3) 1.1033(2) 0.37836(16)
O10 O 0.2509(3) 0.5869(2) 0.62060(17)
C3 C 0.9426(3) 1.0586(2) 0.32332(16)
H1 H 0.8994 1.1246 0.3050
C4 C 1.2399(3) 1.2606(2) 0.41225(17)
C5 C 0.8941(3) 0.8179(2) 0.32306(17)
H2 H 0.8190 0.7219 0.3039
C6 C 1.1446(3) 0.7591(2) 0.41130(16)
O11 O 1.3931(2) 1.3021(2) 0.4722(2)
O12 O 0.6542(3) 1.17707(18) 0.16879(14)
C7 C 1.0736(3) 0.8633(2) 0.37953(16)
C8 C 1.1889(3) 1.0062(2) 0.40706(17)
H3 H 1.3089 1.0362 0.4441
C9 C 0.5156(3) 0.7724(2) 0.28118(18)
C10 C 0.5755(3) 0.9863(2) 0.23448(17)
H4 H 0.6118 1.0650 0.3105
H5 H 0.4446 0.9499 0.2135
C11 C 0.4676(3) 0.6078(2) 0.21666(17)
C12 C 0.6491(3) 1.0477(2) 0.15041(17)
H6 H 0.644(6) 0.648(5) -0.198(4)
H7 H 0.594(6) 0.782(5) -0.160(4)
H8 H 0.244(6) 0.640(5) -0.044(4)
H9 H 0.322(6) 0.758(5) -0.046(4)
H10 H 0.927(6) 0.656(5) 0.068(4)
H11 H 0.969(6) 0.769(5) 0.053(4)
H12 H 0.285(7) 0.656(5) 0.673(4)
H13 H 0.161(6) 0.524(5) 0.617(4)
H14 H 0.557(4) 0.795(3) 0.356(2)
H15 H 0.398(4) 0.780(3) 0.271(2)
Cd1_2 Cd 1.317585(18) 0.577975(14) 0.449171(12)
Cd1_3 Cd 1.317585(18) 1.577975(14) 0.449171(12)
Cd1A Cd 1.682415(18) 1.422025(14) 0.550829(12)
Cd2A Cd 0.387955(19) 0.289219(15) -0.026237(12)
O1A O 0.4973(2) 0.44471(16) -0.11940(12)
O2_2 O 0.1732(2) 0.34055(17) 0.38065(15)
O3_2 O 0.0533(2) 0.62237(17) 0.36684(14)
O5_2 O 0.2958(2) 0.80800(17) 0.47757(13)
O11A O 0.6069(2) 0.6979(2) 0.5278(2)
O13 O -0.0057(3) 0.5203(2) 0.13335(18)
H16 H 0.048(7) 0.471(5) 0.111(4)
H17 H 0.006(6) 0.541(5) 0.198(4)
O14 O 0.1338(4) 0.9475(2) 0.0889(2)
H18 H 0.184(6) 0.956(5) 0.029(4)
H19 H 0.095(7) 1.006(6) 0.101(4)
loop_
_geom_bond_atom_site_label_1
_geom_bond_atom_site_label_2
_geom_bond_site_symmetry_1
_geom_bond_site_symmetry_2
Cd1 O9 1_555 1_555
Cd2 O1 1_555 1_555
O1 C11 1_555 1_555
O2 C4 1_555 1_555
O3 C6 1_555 1_555
O4 Cd2 1_555 1_555
O5 C6 1_555 1_555
O6 Cd2 1_555 1_555
O7 Cd2 1_555 1_555
O8 Cd2 1_555 1_555
N1 Cd2 1_555 1_555
O9 C11 1_555 1_555
C1 N1 1_555 1_555
C2 C3 1_555 1_555
O10 Cd1 1_555 1_555
C3 C1 1_555 1_555
H1 C3 1_555 1_555
C4 C2 1_555 1_555
C5 C1 1_555 1_555
H2 C5 1_555 1_555
C6 C7 1_555 1_555
O11 C4 1_555 1_555
O12 C12 1_555 1_555
C7 C5 1_555 1_555
C8 C2 1_555 1_555
H3 C8 1_555 1_555
C9 N1 1_555 1_555
C10 N1 1_555 1_555
H4 C10 1_555 1_555
H5 C10 1_555 1_555
C11 C9 1_555 1_555
C12 O7 1_555 1_555
H6 O4 1_555 1_555
H7 O4 1_555 1_555
H8 O6 1_555 1_555
H9 O6 1_555 1_555
H10 O8 1_555 1_555
H11 O8 1_555 1_555
H12 O10 1_555 1_555
H13 O10 1_555 1_555
H14 C9 1_555 1_555
H15 C9 1_555 1_555
O13 H16 1_555 1_555
H17 O13 1_555 1_555
O14 H18 1_555 1_555
H19 O14 1_555 1_555
Cd1_2 O3 1_555 1_555
Cd1_3 O2 1_555 1_555
Cd1A O11 1_555 1_555
Cd2A O1 1_555 1_555
O1A Cd2 1_555 1_555
O2_2 Cd1 1_555 1_555
O3_2 Cd1 1_555 1_555
O5_2 Cd1 1_555 1_555
O11A Cd1 1_555 1_555
O5 Cd1_2 1_555 1_555
C7 C8 1_555 1_555
C10 C12 1_555 1_555
Cd2A O1A 1_555 1_555

#END
