
#######################################################################
#
#                 Cambridge Crystallographic Data Centre
#                                CCDC 
#
#######################################################################
#
# If this CIF has been generated from an entry in the Cambridge 
# Structural Database, then it will include bibliographic, chemical, 
# crystal, experimental, refinement or atomic coordinate data resulting 
# from the CCDC's data processing and validation procedures.
#
#######################################################################

data_FOLBAJ
_symmetry_cell_setting           monoclinic
_symmetry_space_group_name_H-M   'P 21/c'
_symmetry_Int_Tables_number      14
_space_group_name_Hall           '-P 2ybc'
loop_
_symmetry_equiv_pos_site_id
_symmetry_equiv_pos_as_xyz
1 x,y,z
2 -x,1/2+y,1/2-z
3 -x,-y,-z
4 x,1/2-y,1/2+z
_cell_length_a                   4.337(1)
_cell_length_b                   11.999(2)
_cell_length_c                   16.120(2)
_cell_angle_alpha                90
_cell_angle_beta                 97.54(1)
_cell_angle_gamma                90
_cell_volume                     831.626
loop_
_atom_site_label
_atom_site_type_symbol
_atom_site_fract_x
_atom_site_fract_y
_atom_site_fract_z
I1 I 0.7469(1) 0.6610(1) 0.48370(4)
Cu1 Cu 0.7236(4) 0.4462(1) 0.4508(1)
N1 N 0.6485(17) 0.4111(7) 0.3278(4)
C1 C 0.4578(22) 0.3314(9) 0.2938(6)
N2 N 0.4511(19) 0.3267(7) 0.2088(5)
C2 C 0.7087(23) 0.4470(10) 0.1078(6)
C3 C 0.9074(24) 0.5385(10) 0.1083(7)
C4 C 1.0298(24) 0.5893(10) 0.1834(7)
C5 C 0.9646(23) 0.5535(9) 0.2605(6)
C6 C 0.7616(20) 0.4627(8) 0.2614(5)
C7 C 0.6442(20) 0.4123(8) 0.1857(6)
H1 H 0.3526 0.2701 0.3324
H2 H 0.2555 0.3048 0.1649
H3 H 0.6046 0.3980 0.0541
H4 H 0.9828 0.5629 0.0528
H5 H 1.1917 0.6600 0.1821
H6 H 1.0466 0.5799 0.3199
Cu1B Cu 0.2764(4) 0.5538(1) 0.5492(1)
Cu1B_2 Cu 1.2764(4) 0.5538(1) 0.5492(1)
I1B I 0.2531(1) 0.3390(1) 0.51630(4)
I1B_2 I 1.2531(1) 0.3390(1) 0.51630(4)
I1_2 I -0.2531(1) 0.6610(1) 0.48370(4)
Cu1_2 Cu -0.2764(4) 0.4462(1) 0.4508(1)
N1B N 0.3515(17) 0.5889(7) 0.6722(4)
C1B C 0.5422(22) 0.6686(9) 0.7062(6)
C6B C 0.2384(20) 0.5373(8) 0.7386(5)
N2B N 0.5489(19) 0.6733(7) 0.7912(5)
H1B H 0.6474 0.7299 0.6676
C5B C 0.0354(23) 0.4465(9) 0.7395(6)
C7B C 0.3558(20) 0.5877(8) 0.8143(6)
H2B H 0.7445 0.6952 0.8351
C4B C -0.0298(24) 0.4107(10) 0.8166(7)
H6B H -0.0466 0.4201 0.6801
C2B C 0.2913(23) 0.5530(10) 0.8922(6)
C3B C 0.0926(24) 0.4615(10) 0.8917(7)
H5B H -0.1917 0.3400 0.8179
H3B H 0.3954 0.6020 0.9459
H4B H 0.0172 0.4371 0.9472
loop_
_geom_bond_atom_site_label_1
_geom_bond_atom_site_label_2
_geom_bond_site_symmetry_1
_geom_bond_site_symmetry_2
I1 Cu1 1_555 1_555
Cu1 N1 1_555 1_555
N1 C1 1_555 1_555
C1 N2 1_555 1_555
N2 C7 1_555 1_555
C2 C3 1_555 1_555
C3 C4 1_555 1_555
C4 C5 1_555 1_555
C5 C6 1_555 1_555
C6 N1 1_555 1_555
C7 C2 1_555 1_555
H1 C1 1_555 1_555
H2 N2 1_555 1_555
H3 C2 1_555 1_555
H4 C3 1_555 1_555
H5 C4 1_555 1_555
H6 C5 1_555 1_555
Cu1B I1 1_555 1_555
Cu1B_2 I1 1_555 1_555
I1B Cu1 1_555 1_555
I1B_2 Cu1 1_555 1_555
I1_2 Cu1B 1_555 1_555
Cu1_2 Cu1B 1_555 1_555
N1B Cu1B 1_555 1_555
C1B N1B 1_555 1_555
C6B N1B 1_555 1_555
N2B C1B 1_555 1_555
H1B C1B 1_555 1_555
C5B C6B 1_555 1_555
C7B C6B 1_555 1_555
H2B N2B 1_555 1_555
C4B C5B 1_555 1_555
H6B C5B 1_555 1_555
C2B C7B 1_555 1_555
C3B C4B 1_555 1_555
H5B C4B 1_555 1_555
H3B C2B 1_555 1_555
H4B C3B 1_555 1_555
Cu1 Cu1B 1_555 1_555
Cu1 Cu1B_2 1_555 1_555
C6 C7 1_555 1_555
Cu1B I1B 1_555 1_555
I1B Cu1_2 1_555 1_555
N2B C7B 1_555 1_555
C2B C3B 1_555 1_555

#END
