
#######################################################################
#
#                 Cambridge Crystallographic Data Centre
#                                CCDC 
#
#######################################################################
#
# If this CIF has been generated from an entry in the Cambridge 
# Structural Database, then it will include bibliographic, chemical, 
# crystal, experimental, refinement or atomic coordinate data resulting 
# from the CCDC's data processing and validation procedures.
#
#######################################################################

data_FOLBOZ
_symmetry_cell_setting           orthorhombic
_symmetry_space_group_name_H-M   'P b c n'
_symmetry_Int_Tables_number      60
_space_group_name_Hall           '-P 2n 2ab'
loop_
_symmetry_equiv_pos_site_id
_symmetry_equiv_pos_as_xyz
1 x,y,z
2 1/2-x,1/2-y,1/2+z
3 -x,y,1/2-z
4 1/2+x,1/2-y,-z
5 -x,-y,-z
6 1/2+x,1/2+y,1/2-z
7 x,-y,1/2+z
8 1/2-x,1/2+y,z
_cell_length_a                   10.525(4)
_cell_length_b                   15.709(6)
_cell_length_c                   10.580(4)
_cell_angle_alpha                90
_cell_angle_beta                 90
_cell_angle_gamma                90
_cell_volume                     1749.27
loop_
_atom_site_label
_atom_site_type_symbol
_atom_site_fract_x
_atom_site_fract_y
_atom_site_fract_z
Zn1 Zn 0.0000 0.04950(3) 0.2500
O1 O -0.13871(17) -0.02879(13) 0.2111(2)
N1 N 0.0216(2) 0.12681(16) 0.0985(2)
N2 N 0.0436(2) 0.29733(15) -0.2009(2)
H1 H 0.1057 0.3329 -0.2021
C1 C 0.0325(2) 0.24237(16) -0.1036(3)
C2 C -0.2510(2) -0.00063(18) 0.1951(3)
O2 O -0.2795(2) 0.07443(15) 0.2112(3)
C3 C -0.0579(3) 0.12200(17) -0.0002(3)
H2 H -0.1174 0.0782 -0.0007
C4 C 0.1079(3) 0.18983(19) 0.0949(3)
H3 H 0.1647 0.1946 0.1619
C5 C -0.0575(2) 0.17702(17) -0.1002(3)
H4 H -0.1164 0.1711 -0.1651
C6 C 0.1169(3) 0.24705(18) -0.0013(3)
H5 H 0.1790 0.2892 0.0009
C7 C -0.3466(3) -0.0651(3) 0.1488(5)
H6 H -0.3248 -0.1200 0.1846
H7 H -0.3381 -0.0698 0.0577
C8 C -0.4864(3) -0.0466(2) 0.1794(5)
H8 H -0.5091 0.0085 0.1447
H9 H -0.5392 -0.0891 0.1389
O1B O -0.86129(17) -0.02879(13) 0.2889(2)
C2B C -0.7490(2) -0.00063(18) 0.3049(3)
O2B O -0.7205(2) 0.07443(15) 0.2888(3)
C7B C -0.6534(3) -0.0651(3) 0.3512(5)
H6B H -0.6752 -0.1200 0.3154
H7B H -0.6619 -0.0698 0.4423
C8B C -0.5136(3) -0.0466(2) 0.3206(5)
H8B H -0.4909 0.0085 0.3553
H9B H -0.4608 -0.0891 0.3611
N1B N -0.0216(2) 0.12681(16) -0.5985(2)
N2B N -0.0436(2) 0.29733(15) -0.2991(2)
H1B H -0.1057 0.3329 -0.2979
C1B C -0.0325(2) 0.24237(16) -0.3964(3)
C3B C 0.0579(3) 0.12200(17) -0.4998(3)
H2B H 0.1174 0.0782 -0.4993
C4B C -0.1079(3) 0.18983(19) -0.5949(3)
H3B H -0.1647 0.1946 -0.6619
C5B C 0.0575(2) 0.17702(17) -0.3998(3)
H4B H 0.1164 0.1711 -0.3349
C6B C -0.1169(3) 0.24705(18) -0.4987(3)
H5B H -0.1790 0.2892 -0.5009
Zn1_2 Zn -1.0000 0.04950(3) 0.2500
Zn1_3 Zn 0.0000 0.04950(3) -0.7500
O1B_2 O 0.13871(17) -0.02879(13) 0.2889(2)
N1B_2 N -0.0216(2) 0.12681(16) 0.4015(2)
loop_
_geom_bond_atom_site_label_1
_geom_bond_atom_site_label_2
_geom_bond_site_symmetry_1
_geom_bond_site_symmetry_2
Zn1 O1 1_555 1_555
O1 C2 1_555 1_555
N1 Zn1 1_555 1_555
N2 H1 1_555 1_555
C1 N2 1_555 1_555
C2 O2 1_555 1_555
C3 N1 1_555 1_555
H2 C3 1_555 1_555
C4 N1 1_555 1_555
H3 C4 1_555 1_555
C5 C1 1_555 1_555
H4 C5 1_555 1_555
C6 C1 1_555 1_555
H5 C6 1_555 1_555
C7 C2 1_555 1_555
H6 C7 1_555 1_555
H7 C7 1_555 1_555
C8 C7 1_555 1_555
H8 C8 1_555 1_555
H9 C8 1_555 1_555
O1B C2B 1_555 1_555
C2B O2B 1_555 1_555
C7B C2B 1_555 1_555
H6B C7B 1_555 1_555
H7B C7B 1_555 1_555
C8B C8 1_555 1_555
H8B C8B 1_555 1_555
H9B C8B 1_555 1_555
N1B C3B 1_555 1_555
N2B N2 1_555 1_555
H1B N2B 1_555 1_555
C1B N2B 1_555 1_555
C3B H2B 1_555 1_555
C4B N1B 1_555 1_555
H3B C4B 1_555 1_555
C5B C1B 1_555 1_555
H4B C5B 1_555 1_555
C6B C1B 1_555 1_555
H5B C6B 1_555 1_555
Zn1_2 O1B 1_555 1_555
Zn1_3 N1B 1_555 1_555
O1B_2 Zn1 1_555 1_555
N1B_2 Zn1 1_555 1_555
C3 C5 1_555 1_555
C4 C6 1_555 1_555
C7B C8B 1_555 1_555
C3B C5B 1_555 1_555
C4B C6B 1_555 1_555

#END
