
#######################################################################
#
#                 Cambridge Crystallographic Data Centre
#                                CCDC 
#
#######################################################################
#
# If this CIF has been generated from an entry in the Cambridge 
# Structural Database, then it will include bibliographic, chemical, 
# crystal, experimental, refinement or atomic coordinate data resulting 
# from the CCDC's data processing and validation procedures.
#
#######################################################################

data_FOMBAL
_symmetry_cell_setting           monoclinic
_symmetry_space_group_name_H-M   'P 21'
_symmetry_Int_Tables_number      4
_space_group_name_Hall           'P 2yb'
loop_
_symmetry_equiv_pos_site_id
_symmetry_equiv_pos_as_xyz
1 x,y,z
2 -x,1/2+y,-z
_cell_length_a                   7.5404(2)
_cell_length_b                   6.5754(2)
_cell_length_c                   31.4285(10)
_cell_angle_alpha                90
_cell_angle_beta                 94.6675(15)
_cell_angle_gamma                90
_cell_volume                     1553.09
loop_
_atom_site_label
_atom_site_type_symbol
_atom_site_fract_x
_atom_site_fract_y
_atom_site_fract_z
Ba1 Ba 0.42870(3) 0.7500 0.259573(8)
N1 N 0.6469(5) 0.3762(6) 0.03952(13)
C1 C 0.7995(7) 0.3837(8) 0.06411(16)
N2 N 0.7924(5) 0.4017(6) 0.10565(13)
C2 C 0.6285(7) 0.4081(8) 0.12773(17)
C3 C 0.6754(8) 0.4963(8) 0.17247(19)
O1 O 0.5535(5) 0.4971(5) 0.19734(11)
O2 O 0.8302(5) 0.5662(6) 0.18066(11)
C4 C 0.5417(6) 0.1990(7) 0.12951(16)
C5 C 0.6574(8) 0.0373(9) 0.1542(2)
C6 C 0.8285(7) -0.0051(8) 0.13563(17)
O3 O 0.9736(5) 0.0404(6) 0.15246(12)
O4 O 0.8071(4) -0.0969(6) 0.09769(11)
N3 N 0.9662(5) 0.3698(6) 0.04923(13)
C7 C 1.1262(6) 0.3587(8) 0.07945(16)
C8 C 0.9863(6) 0.3595(8) 0.00545(16)
O5 O 1.1346(4) 0.3516(6) -0.00758(11)
C9 C 0.8216(6) 0.3534(8) -0.02243(16)
N4 N 0.8447(5) 0.3433(6) -0.06404(13)
O6 O 0.7065(4) 0.3282(5) -0.09029(11)
C10 C 0.6539(6) 0.3589(7) -0.00274(15)
N5 N 0.5029(5) 0.3522(6) -0.02657(13)
N6 N 0.8272(5) 0.3454(6) 0.45924(13)
C11 C 0.6748(6) 0.3454(8) 0.43501(16)
N7 N 0.6805(5) 0.3627(6) 0.39302(12)
C12 C 0.8457(7) 0.3837(8) 0.37248(16)
C13 C 0.8001(7) 0.4661(8) 0.32733(18)
O7 O 0.6392(4) 0.4714(6) 0.31339(11)
O8 O 0.9293(4) 0.5242(5) 0.30766(11)
C14 C 0.9491(7) 0.1847(7) 0.37068(16)
C15 C 0.8502(7) 0.0139(9) 0.34511(18)
C16 C 0.6833(7) -0.0585(8) 0.36301(16)
O9 O 0.5397(5) -0.0657(6) 0.34270(11)
O10 O 0.7097(4) -0.1180(6) 0.40314(11)
N8 N 0.5077(5) 0.3251(6) 0.44995(12)
C17 C 0.3484(6) 0.3093(8) 0.41990(15)
C18 C 0.4879(6) 0.3172(7) 0.49344(16)
O11 O 0.3396(4) 0.3061(5) 0.50658(10)
C19 C 0.6536(6) 0.3207(7) 0.52122(15)
N9 N 0.6290(5) 0.3150(6) 0.56257(13)
O12 O 0.7677(4) 0.3151(5) 0.58952(11)
C20 C 0.8193(6) 0.3309(7) 0.50156(15)
N10 N 0.9711(5) 0.3288(6) 0.52549(13)
O13 O 0.2684(5) 0.8184(6) 0.18036(11)
O14 O 0.2720(5) 0.6223(6) 0.33193(12)
O15 O 0.1355(5) 1.0094(6) 0.26124(14)
O16 O 0.5008(5) 1.1670(5) 0.25299(12)
O17 O 0.8020(4) 0.8102(5) 0.24924(10)
O18 O 0.1437(5) 0.4575(7) 0.24056(12)
H1 H 0.8941 0.4105 0.1214
H2 H 0.5429 0.5024 0.1118
H3 H 0.5128 0.1502 0.1000
H4 H 0.4284 0.2130 0.1431
H5 H 0.6830 0.0838 0.1840
H6 H 0.5888 -0.0908 0.1549
H7 H 0.9058 -0.1052 0.0872
H8 H 1.1337 0.4812 0.0973
H9 H 1.2324 0.3491 0.0635
H10 H 1.1189 0.2385 0.0976
H11 H 0.4014 0.3590 -0.0147
H12 H 0.5030 0.3409 -0.0545
H13 H 0.5795 0.3614 0.3769
H14 H 0.9226 0.4855 0.3888
H15 H 0.9789 0.1362 0.4002
H16 H 1.0624 0.2121 0.3579
H17 H 0.8199 0.0627 0.3156
H18 H 0.9319 -0.1032 0.3435
H19 H 0.6115 -0.1467 0.4125
H20 H 0.2436 0.2872 0.4358
H21 H 0.3620 0.1947 0.4005
H22 H 0.3336 0.4354 0.4034
H23 H 1.0724 0.3367 0.5135
H24 H 0.9711 0.3194 0.5534
H25 H 0.2819 0.8165 0.1521
H26 H 0.1803 0.8926 0.1752
H27 H 0.8486 0.7497 0.2257
H28 H 0.8791 0.7620 0.2719
H29 H 0.0813 0.4347 0.2189
H30 H 0.0394 0.5313 0.2539
Ba1_2 Ba 0.42870(3) -0.2500 0.259573(8)
O9_2 O 0.5397(5) 0.9343(6) 0.34270(11)
loop_
_geom_bond_atom_site_label_1
_geom_bond_atom_site_label_2
_geom_bond_site_symmetry_1
_geom_bond_site_symmetry_2
Ba1 O1 1_555 1_555
N1 C1 1_555 1_555
C1 N2 1_555 1_555
N2 C2 1_555 1_555
C2 C3 1_555 1_555
C3 O1 1_555 1_555
O2 C3 1_555 1_555
C4 C2 1_555 1_555
C5 C4 1_555 1_555
C6 C5 1_555 1_555
O3 C6 1_555 1_555
O4 C6 1_555 1_555
N3 C1 1_555 1_555
C7 N3 1_555 1_555
C8 N3 1_555 1_555
O5 C8 1_555 1_555
C9 C8 1_555 1_555
N4 C9 1_555 1_555
O6 N4 1_555 1_555
C10 N1 1_555 1_555
N5 C10 1_555 1_555
N6 C11 1_555 1_555
C11 N7 1_555 1_555
N7 C12 1_555 1_555
C12 C13 1_555 1_555
C13 O7 1_555 1_555
O7 Ba1 1_555 1_555
O8 C13 1_555 1_555
C14 C12 1_555 1_555
C15 C14 1_555 1_555
C16 C15 1_555 1_555
O9 C16 1_555 1_555
O10 C16 1_555 1_555
N8 C11 1_555 1_555
C17 N8 1_555 1_555
C18 N8 1_555 1_555
O11 C18 1_555 1_555
C19 C18 1_555 1_555
N9 C19 1_555 1_555
O12 N9 1_555 1_555
C20 N6 1_555 1_555
N10 C20 1_555 1_555
O13 Ba1 1_555 1_555
O14 Ba1 1_555 1_555
O15 Ba1 1_555 1_555
O16 Ba1 1_555 1_555
O17 Ba1 1_555 1_555
O18 Ba1 1_555 1_555
H1 N2 1_555 1_555
H2 C2 1_555 1_555
H3 C4 1_555 1_555
H4 C4 1_555 1_555
H5 C5 1_555 1_555
H6 C5 1_555 1_555
H7 O4 1_555 1_555
H8 C7 1_555 1_555
H9 C7 1_555 1_555
H10 C7 1_555 1_555
H11 N5 1_555 1_555
H12 N5 1_555 1_555
H13 N7 1_555 1_555
H14 C12 1_555 1_555
H15 C14 1_555 1_555
H16 C14 1_555 1_555
H17 C15 1_555 1_555
H18 C15 1_555 1_555
H19 O10 1_555 1_555
H20 C17 1_555 1_555
H21 C17 1_555 1_555
H22 C17 1_555 1_555
H23 N10 1_555 1_555
H24 N10 1_555 1_555
H25 O13 1_555 1_555
H26 O13 1_555 1_555
H27 O17 1_555 1_555
H28 O17 1_555 1_555
H29 O18 1_555 1_555
H30 O18 1_555 1_555
Ba1_2 O9 1_555 1_555
O9_2 Ba1 1_555 1_555
C9 C10 1_555 1_555
C19 C20 1_555 1_555

#END
