
#######################################################################
#
#                 Cambridge Crystallographic Data Centre
#                                CCDC 
#
#######################################################################
#
# If this CIF has been generated from an entry in the Cambridge 
# Structural Database, then it will include bibliographic, chemical, 
# crystal, experimental, refinement or atomic coordinate data resulting 
# from the CCDC's data processing and validation procedures.
#
#######################################################################

data_FOMCOA
_symmetry_cell_setting           orthorhombic
_symmetry_space_group_name_H-M   'P 21 21 21'
_symmetry_Int_Tables_number      19
_space_group_name_Hall           'P 2ac 2ab'
loop_
_symmetry_equiv_pos_site_id
_symmetry_equiv_pos_as_xyz
1 x,y,z
2 1/2-x,-y,1/2+z
3 -x,1/2+y,1/2-z
4 1/2+x,1/2-y,-z
_cell_length_a                   9.0307(9)
_cell_length_b                   10.4375(12)
_cell_length_c                   16.1471(18)
_cell_angle_alpha                90
_cell_angle_beta                 90
_cell_angle_gamma                90
_cell_volume                     1521.99
loop_
_atom_site_label
_atom_site_type_symbol
_atom_site_fract_x
_atom_site_fract_y
_atom_site_fract_z
Cu1 Cu 0.40970(10) 0.35067(8) 0.49942(8)
O1 O 0.6050(10) 0.4465(6) 0.0854(4)
H1 H 0.636(12) 0.370(4) 0.090(7)
O2 O 0.3197(7) 0.7021(5) 0.4223(4)
O3 O 0.2077(6) 0.2797(4) 0.5017(5)
O4 O -0.0165(7) 0.3041(5) 0.4511(4)
N1 N 0.5822(7) 0.4670(5) 0.4986(6)
H2 H 0.6222 0.4698 0.5497
H3 H 0.6512 0.4362 0.4637
N2 N 0.3198(8) 0.4842(6) 0.4387(4)
C1 C 0.6188(10) 0.4933(9) 0.1640(6)
C2 C 0.5624(11) 0.6135(8) 0.1815(6)
H4 H 0.5175 0.6607 0.1396
C3 C 0.5716(11) 0.6637(8) 0.2594(5)
H5 H 0.5317 0.7444 0.2695
C4 C 0.6381(10) 0.5984(8) 0.3237(6)
C5 C 0.7009(11) 0.4791(9) 0.3044(6)
H6 H 0.7497 0.4332 0.3456
C6 C 0.6916(11) 0.4282(8) 0.2252(6)
H7 H 0.7352 0.3495 0.2137
C7 C 0.6477(9) 0.6557(9) 0.4098(5)
H8 H 0.6298 0.7472 0.4059
H9 H 0.7477 0.6441 0.4304
C8 C 0.5399(10) 0.5990(8) 0.4726(5)
H10 H 0.5431 0.6534 0.5220
C9 C 0.3778(10) 0.5976(8) 0.4415(5)
C10 C 0.1662(9) 0.4623(7) 0.4151(5)
H11 H 0.1047 0.5353 0.4315
C11 C 0.1152(10) 0.3401(9) 0.4601(5)
C12 C 0.1479(11) 0.4352(8) 0.3223(5)
H12 H 0.2144 0.3660 0.3075
H13 H 0.0476 0.4051 0.3130
C13 C 0.1764(12) 0.5458(10) 0.2646(6)
H14 H 0.2716 0.5846 0.2794
C14 C 0.1862(16) 0.4958(14) 0.1739(6)
H15 H 0.2797 0.4538 0.1656
H16 H 0.1778 0.5666 0.1362
H17 H 0.1073 0.4362 0.1638
C15 C 0.0574(13) 0.6476(11) 0.2709(8)
H18 H 0.0615 0.6870 0.3245
H19 H -0.0381 0.6090 0.2631
H20 H 0.0733 0.7114 0.2290
Cu1C Cu -0.09030(10) 0.14933(8) 0.50058(8)
O4C O 0.4835(7) 0.1959(5) 0.5489(4)
loop_
_geom_bond_atom_site_label_1
_geom_bond_atom_site_label_2
_geom_bond_site_symmetry_1
_geom_bond_site_symmetry_2
Cu1 O3 1_555 1_555
O1 H1 1_555 1_555
O2 C9 1_555 1_555
O3 C11 1_555 1_555
O4 C11 1_555 1_555
N1 Cu1 1_555 1_555
H2 N1 1_555 1_555
H3 N1 1_555 1_555
N2 Cu1 1_555 1_555
C1 O1 1_555 1_555
C2 C1 1_555 1_555
H4 C2 1_555 1_555
C3 C2 1_555 1_555
H5 C3 1_555 1_555
C4 C3 1_555 1_555
C5 C4 1_555 1_555
H6 C5 1_555 1_555
C6 C1 1_555 1_555
H7 C6 1_555 1_555
C7 C4 1_555 1_555
H8 C7 1_555 1_555
H9 C7 1_555 1_555
C8 N1 1_555 1_555
H10 C8 1_555 1_555
C9 N2 1_555 1_555
C10 N2 1_555 1_555
H11 C10 1_555 1_555
C11 C10 1_555 1_555
C12 C10 1_555 1_555
H12 C12 1_555 1_555
H13 C12 1_555 1_555
C13 C12 1_555 1_555
H14 C13 1_555 1_555
C14 C13 1_555 1_555
H15 C14 1_555 1_555
H16 C14 1_555 1_555
H17 C14 1_555 1_555
C15 C13 1_555 1_555
H18 C15 1_555 1_555
H19 C15 1_555 1_555
H20 C15 1_555 1_555
Cu1C O4 1_555 1_555
O4C Cu1 1_555 1_555
C5 C6 1_555 1_555
C7 C8 1_555 1_555
C8 C9 1_555 1_555

#END
