
#######################################################################
#
#                 Cambridge Crystallographic Data Centre
#                                CCDC 
#
#######################################################################
#
# If this CIF has been generated from an entry in the Cambridge 
# Structural Database, then it will include bibliographic, chemical, 
# crystal, experimental, refinement or atomic coordinate data resulting 
# from the CCDC's data processing and validation procedures.
#
#######################################################################

data_FOMCAM
_symmetry_cell_setting           monoclinic
_symmetry_space_group_name_H-M   'P 21/n'
_symmetry_Int_Tables_number      14
_space_group_name_Hall           '-P 2yn'
loop_
_symmetry_equiv_pos_site_id
_symmetry_equiv_pos_as_xyz
1 x,y,z
2 1/2-x,1/2+y,1/2-z
3 -x,-y,-z
4 1/2+x,1/2-y,1/2+z
_cell_length_a                   7.3340(11)
_cell_length_b                   30.125(6)
_cell_length_c                   10.4340(17)
_cell_angle_alpha                90
_cell_angle_beta                 103.689(15)
_cell_angle_gamma                90
_cell_volume                     2239.77
loop_
_atom_site_label
_atom_site_type_symbol
_atom_site_fract_x
_atom_site_fract_y
_atom_site_fract_z
Hg1 Hg 0.58598(2) 0.134014(4) 0.411176(15)
S1 S 0.11191(13) 0.13232(3) 0.40925(9)
S2 S -0.15321(16) 0.10384(3) 0.06340(10)
O1 O 0.2183(4) 0.15490(9) 0.3295(3)
O2 O 0.2204(4) 0.10251(9) 0.5050(3)
O3 O -0.0162(4) 0.16044(8) 0.4552(3)
O4 O -0.0180(4) 0.09509(7) 0.3123(2)
O5 O -0.1627(4) 0.11929(9) 0.2149(3)
O6 O 0.0108(5) 0.12427(11) 0.0378(3)
O7 O -0.1519(5) 0.05695(9) 0.0632(3)
O8 O -0.3275(5) 0.12412(11) -0.0029(3)
N1 N 0.5151(4) 0.06822(9) 0.3137(3)
N2 N 0.7551(4) 0.08067(9) 0.5529(3)
C1 C 0.3953(6) 0.06403(14) 0.1958(4)
H1 H 0.3278 0.0887 0.1576
C2 C 0.3692(6) 0.02447(14) 0.1300(4)
H2 H 0.2845 0.0223 0.0483
C3 C 0.4693(6) -0.01192(13) 0.1856(5)
H3 H 0.4566 -0.0389 0.1410
C4 C 0.5899(6) -0.00806(12) 0.3095(4)
H4 H 0.6555 -0.0327 0.3498
C5 C 0.6120(5) 0.03268(11) 0.3727(4)
C6 C 0.7366(5) 0.03912(11) 0.5057(4)
C7 C 0.8301(6) 0.00434(12) 0.5800(4)
H5 H 0.8168 -0.0244 0.5466
C8 C 0.9421(6) 0.01231(13) 0.7029(4)
H6 H 1.0046 -0.0109 0.7539
C9 C 0.9608(6) 0.05524(13) 0.7497(4)
H7 H 1.0372 0.0616 0.8323
C10 C 0.8647(6) 0.08822(13) 0.6725(4)
H8 H 0.8762 0.1172 0.7045
N3 N 0.5838(4) 0.20230(9) 0.3285(3)
N4 N 0.5553(4) 0.18388(9) 0.5769(3)
C11 C 0.5835(6) 0.20982(13) 0.2020(4)
H9 H 0.5916 0.1857 0.1479
C12 C 0.5717(7) 0.25141(14) 0.1495(4)
H10 H 0.5697 0.2556 0.0609
C13 C 0.5629(7) 0.28699(13) 0.2299(5)
H11 H 0.5573 0.3157 0.1968
C14 C 0.5625(6) 0.27972(12) 0.3599(4)
H12 H 0.5560 0.3036 0.4152
C15 C 0.5717(5) 0.23702(12) 0.4077(4)
C16 C 0.5667(5) 0.22705(11) 0.5458(4)
C17 C 0.5678(6) 0.25949(12) 0.6389(4)
H13 H 0.5737 0.2893 0.6166
C18 C 0.5601(7) 0.24782(13) 0.7644(4)
H14 H 0.5622 0.2696 0.8280
C19 C 0.5493(7) 0.20356(13) 0.7958(4)
H15 H 0.5438 0.1949 0.8804
C20 C 0.5468(6) 0.17285(13) 0.6996(4)
H16 H 0.5389 0.1430 0.7201
Hg1_2 Hg -0.41402(2) 0.134014(4) 0.411176(15)
O3_2 O 0.9838(4) 0.16044(8) 0.4552(3)
O9 O 0.2977(19) 0.1213(5) -0.1050(15)
H17 H 0.27(2) 0.139(6) -0.054(17)
H18 H 0.412(5) 0.118(6) -0.089(19)
loop_
_geom_bond_atom_site_label_1
_geom_bond_atom_site_label_2
_geom_bond_site_symmetry_1
_geom_bond_site_symmetry_2
Hg1 O1 1_555 1_555
S1 O1 1_555 1_555
S2 O5 1_555 1_555
O2 S1 1_555 1_555
O3 S1 1_555 1_555
O4 S1 1_555 1_555
O5 O4 1_555 1_555
O6 S2 1_555 1_555
O7 S2 1_555 1_555
O8 S2 1_555 1_555
N1 Hg1 1_555 1_555
N2 Hg1 1_555 1_555
C1 N1 1_555 1_555
H1 C1 1_555 1_555
C2 C1 1_555 1_555
H2 C2 1_555 1_555
C3 C2 1_555 1_555
H3 C3 1_555 1_555
C4 C3 1_555 1_555
H4 C4 1_555 1_555
C5 N1 1_555 1_555
C6 N2 1_555 1_555
C7 C6 1_555 1_555
H5 C7 1_555 1_555
C8 C7 1_555 1_555
H6 C8 1_555 1_555
C9 C8 1_555 1_555
H7 C9 1_555 1_555
C10 N2 1_555 1_555
H8 C10 1_555 1_555
N3 Hg1 1_555 1_555
N4 Hg1 1_555 1_555
C11 N3 1_555 1_555
H9 C11 1_555 1_555
C12 C11 1_555 1_555
H10 C12 1_555 1_555
C13 C12 1_555 1_555
H11 C13 1_555 1_555
C14 C13 1_555 1_555
H12 C14 1_555 1_555
C15 N3 1_555 1_555
C16 N4 1_555 1_555
C17 C16 1_555 1_555
H13 C17 1_555 1_555
C18 C17 1_555 1_555
H14 C18 1_555 1_555
C19 C18 1_555 1_555
H15 C19 1_555 1_555
C20 N4 1_555 1_555
H16 C20 1_555 1_555
O9 H17 1_555 1_555
H18 O9 1_555 1_555
Hg1_2 O3 1_555 1_555
O3_2 Hg1 1_555 1_555
C4 C5 1_555 1_555
C5 C6 1_555 1_555
C9 C10 1_555 1_555
C14 C15 1_555 1_555
C15 C16 1_555 1_555
C19 C20 1_555 1_555

#END
