
#######################################################################
#
#                 Cambridge Crystallographic Data Centre
#                                CCDC 
#
#######################################################################
#
# If this CIF has been generated from an entry in the Cambridge 
# Structural Database, then it will include bibliographic, chemical, 
# crystal, experimental, refinement or atomic coordinate data resulting 
# from the CCDC's data processing and validation procedures.
#
#######################################################################

data_FOMDAO
_symmetry_cell_setting           orthorhombic
_symmetry_space_group_name_H-M   'P c c n'
_symmetry_Int_Tables_number      56
_space_group_name_Hall           '-P 2ab 2ac'
loop_
_symmetry_equiv_pos_site_id
_symmetry_equiv_pos_as_xyz
1 x,y,z
2 1/2-x,1/2-y,z
3 -x,1/2+y,1/2-z
4 1/2+x,-y,1/2-z
5 -x,-y,-z
6 1/2+x,1/2+y,-z
7 x,1/2-y,1/2+z
8 1/2-x,y,1/2+z
_cell_length_a                   28.848(2)
_cell_length_b                   7.6951(6)
_cell_length_c                   11.5552(9)
_cell_angle_alpha                90
_cell_angle_beta                 90
_cell_angle_gamma                90
_cell_volume                     2565.12
loop_
_atom_site_label
_atom_site_type_symbol
_atom_site_fract_x
_atom_site_fract_y
_atom_site_fract_z
C1 C 0.5734(2) -0.1009(9) 0.8956(6)
C2 C 0.6208(2) -0.1384(8) 0.9392(6)
C3 C 0.6513(2) -0.2424(9) 0.8764(6)
H1 H 0.6417 -0.2897 0.8064
C4 C 0.6956(2) -0.2771(9) 0.9154(6)
H2 H 0.7157 -0.3452 0.8720
C5 C 0.7094(2) -0.2083(9) 1.0209(6)
C6 C 0.6800(2) -0.1024(10) 1.0835(6)
H3 H 0.6898 -0.0543 1.1532
C7 C 0.6359(2) -0.0681(9) 1.0422(6)
H4 H 0.6162 0.0033 1.0845
C8 C 0.5771(2) 0.1331(8) 0.6408(6)
C9 C 0.6229(2) 0.1623(8) 0.6965(6)
C10 C 0.6630(2) 0.0911(10) 0.6504(6)
H5 H 0.6609 0.0208 0.5851
C11 C 0.7057(3) 0.1217(11) 0.6988(6)
H6 H 0.7324 0.0750 0.6659
C12 C 0.7084(2) 0.2221(11) 0.7965(6)
C13 C 0.6693(3) 0.2891(10) 0.8460(6)
H7 H 0.6716 0.3536 0.9138
C14 C 0.6266(2) 0.2623(9) 0.7968(6)
H8 H 0.6002 0.3104 0.8302
O1 O 0.54797(16) 0.0003(6) 0.9558(4)
O2 O 0.55922(15) -0.1621(6) 0.8014(4)
O3 O 0.7500 -0.2500 1.0763(6)
O4 O 0.54129(15) 0.1963(6) 0.6909(4)
O5 O 0.57524(16) 0.0527(7) 0.5467(4)
O6 O 0.7500 0.2500 0.8559(6)
O7 O 0.50051(16) 0.3399(7) 0.9030(4)
H9 H 0.5215 0.3388 0.9547
H10 H 0.4756 0.3820 0.9306
Pb1 Pb 0.487889(8) 0.03283(3) 0.81150(2)
C1A C 0.9266(2) -0.3991(9) 0.8956(6)
C2A C 0.8792(2) -0.3616(8) 0.9392(6)
C3A C 0.8487(2) -0.2576(9) 0.8764(6)
H1A H 0.8583 -0.2103 0.8064
C4A C 0.8044(2) -0.2229(9) 0.9154(6)
H2A H 0.7843 -0.1548 0.8720
C5A C 0.7906(2) -0.2917(9) 1.0209(6)
C6A C 0.8200(2) -0.3976(10) 1.0835(6)
H3A H 0.8102 -0.4457 1.1532
C7A C 0.8641(2) -0.4319(9) 1.0422(6)
H4A H 0.8838 -0.5033 1.0845
O1A O 0.95203(16) -0.5003(6) 0.9558(4)
O2A O 0.94078(15) -0.3379(6) 0.8014(4)
C8A C 0.9229(2) 0.3669(8) 0.6408(6)
C9A C 0.8771(2) 0.3377(8) 0.6965(6)
C10A C 0.8370(2) 0.4089(10) 0.6504(6)
H5A H 0.8391 0.4792 0.5851
C11A C 0.7943(3) 0.3783(11) 0.6988(6)
H6A H 0.7676 0.4250 0.6659
C12A C 0.7916(2) 0.2779(11) 0.7965(6)
C13A C 0.8307(3) 0.2109(10) 0.8460(6)
H7A H 0.8284 0.1464 0.9138
C14A C 0.8734(2) 0.2377(9) 0.7968(6)
H8A H 0.8998 0.1896 0.8302
O4A O 0.95871(15) 0.3037(6) 0.6909(4)
O5A O 0.92476(16) 0.4473(7) 0.5467(4)
O7A O 0.99949(16) -0.8399(7) 0.9030(4)
H9A H 0.9785 -0.8388 0.9547
H10A H 1.0244 -0.8820 0.9306
Pb1A Pb 1.012111(8) -0.53283(3) 0.81150(2)
O1D O 0.45203(16) -0.0003(6) 1.0442(4)
O1E O 1.04797(16) -0.4997(6) 1.0442(4)
O4A_2 O 0.95871(15) -0.6963(6) 0.6909(4)
O4B O 0.45871(15) -0.3037(6) 0.8091(4)
O4C O 1.04129(15) -0.1963(6) 0.8091(4)
O7B O 0.49949(16) -0.1601(7) 0.5970(4)
O7C O 1.00051(16) -0.3399(7) 0.5970(4)
Pb1A_2 Pb 1.012111(8) 0.46717(3) 0.81150(2)
Pb1B Pb 0.512111(8) 0.53283(3) 0.68850(2)
Pb1C Pb 0.987889(8) -1.03283(3) 0.68850(2)
Pb1C_2 Pb 0.987889(8) -0.03283(3) 0.68850(2)
Pb1D Pb 0.512111(8) -0.03283(3) 1.18850(2)
Pb1E Pb 0.987889(8) -0.46717(3) 1.18850(2)
loop_
_geom_bond_atom_site_label_1
_geom_bond_atom_site_label_2
_geom_bond_site_symmetry_1
_geom_bond_site_symmetry_2
C1 C2 1_555 1_555
C2 C3 1_555 1_555
C3 H1 1_555 1_555
C4 C3 1_555 1_555
H2 C4 1_555 1_555
C5 C4 1_555 1_555
C6 C5 1_555 1_555
H3 C6 1_555 1_555
C7 C2 1_555 1_555
H4 C7 1_555 1_555
C8 C9 1_555 1_555
C9 C10 1_555 1_555
C10 H5 1_555 1_555
C11 C10 1_555 1_555
H6 C11 1_555 1_555
C12 C11 1_555 1_555
C13 C12 1_555 1_555
H7 C13 1_555 1_555
C14 C9 1_555 1_555
H8 C14 1_555 1_555
O1 C1 1_555 1_555
O2 C1 1_555 1_555
O3 C5 1_555 1_555
O4 C8 1_555 1_555
O5 C8 1_555 1_555
O6 C12 1_555 1_555
O7 H9 1_555 1_555
H10 O7 1_555 1_555
Pb1 O1 1_555 1_555
C1A C2A 1_555 1_555
C2A C3A 1_555 1_555
C3A H1A 1_555 1_555
C4A C3A 1_555 1_555
H2A C4A 1_555 1_555
C5A O3 1_555 1_555
C6A C5A 1_555 1_555
H3A C6A 1_555 1_555
C7A C2A 1_555 1_555
H4A C7A 1_555 1_555
O1A C1A 1_555 1_555
O2A C1A 1_555 1_555
C8A C9A 1_555 1_555
C9A C10A 1_555 1_555
C10A H5A 1_555 1_555
C11A C10A 1_555 1_555
H6A C11A 1_555 1_555
C12A O6 1_555 1_555
C13A C12A 1_555 1_555
H7A C13A 1_555 1_555
C14A C9A 1_555 1_555
H8A C14A 1_555 1_555
O4A C8A 1_555 1_555
O5A C8A 1_555 1_555
O7A H9A 1_555 1_555
H10A O7A 1_555 1_555
Pb1A O1A 1_555 1_555
O1D Pb1 1_555 1_555
O1E Pb1A 1_555 1_555
O4A_2 Pb1A 1_555 1_555
O4B Pb1 1_555 1_555
O4C Pb1A 1_555 1_555
O7B Pb1 1_555 1_555
O7C Pb1A 1_555 1_555
Pb1A_2 O4A 1_555 1_555
Pb1B O4 1_555 1_555
Pb1C O7A 1_555 1_555
Pb1C_2 O4A 1_555 1_555
Pb1D O1 1_555 1_555
Pb1E O1A 1_555 1_555
C6 C7 1_555 1_555
C13 C14 1_555 1_555
O2 Pb1 1_555 1_555
O4 Pb1 1_555 1_555
O7 Pb1 1_555 1_555
O7 Pb1B 1_555 1_555
C4A C5A 1_555 1_555
C6A C7A 1_555 1_555
O2A Pb1A 1_555 1_555
C11A C12A 1_555 1_555
C13A C14A 1_555 1_555
O7A Pb1A 1_555 1_555
O1D Pb1D 1_555 1_555
O1E Pb1E 1_555 1_555
O4A_2 Pb1C 1_555 1_555
O4C Pb1C_2 1_555 1_555
O7C Pb1C_2 1_555 1_555

#END
