
#######################################################################
#
#                 Cambridge Crystallographic Data Centre
#                                CCDC 
#
#######################################################################
#
# If this CIF has been generated from an entry in the Cambridge 
# Structural Database, then it will include bibliographic, chemical, 
# crystal, experimental, refinement or atomic coordinate data resulting 
# from the CCDC's data processing and validation procedures.
#
#######################################################################

data_FOMGIX
_symmetry_cell_setting           tetragonal
_symmetry_space_group_name_H-M   'I 41/a'
_symmetry_Int_Tables_number      88
_space_group_name_Hall           '-I 4ad'
loop_
_symmetry_equiv_pos_site_id
_symmetry_equiv_pos_as_xyz
1 x,y,z
2 3/4-y,1/4+x,1/4+z
3 1/2-x,-y,1/2+z
4 3/4+y,3/4-x,3/4+z
5 1/2+x,1/2+y,1/2+z
6 1/4-y,3/4+x,3/4+z
7 -x,1/2-y,z
8 1/4+y,1/4-x,1/4+z
9 -x,-y,-z
10 1/4+y,3/4-x,3/4-z
11 1/2+x,y,1/2-z
12 1/4-y,1/4+x,1/4-z
13 1/2-x,1/2-y,1/2-z
14 3/4+y,1/4-x,1/4-z
15 x,1/2+y,-z
16 3/4-y,3/4+x,3/4-z
_cell_length_a                   16.006(3)
_cell_length_b                   16.006(3)
_cell_length_c                   27.745(7)
_cell_angle_alpha                90
_cell_angle_beta                 90
_cell_angle_gamma                90
_cell_volume                     7108.05
loop_
_atom_site_label
_atom_site_type_symbol
_atom_site_fract_x
_atom_site_fract_y
_atom_site_fract_z
Cu1 Cu -0.5326(1) 0.0779(1) 0.08816(5)
O1 O -0.4187(5) 0.1084(5) 0.0751(3)
O2 O -0.1954(5) 0.2521(5) -0.0938(2)
O3 O -0.3120(5) 0.2361(5) -0.1328(3)
N1 N -0.5676(6) 0.1004(5) 0.0223(3)
N2 N -0.6578(6) 0.0628(6) 0.1000(3)
C1 C -0.3859(8) 0.1361(7) 0.0353(4)
C2 C -0.4344(7) 0.1481(6) -0.0079(4)
C3 C -0.3936(7) 0.1790(7) -0.0488(3)
C4 C -0.3109(7) 0.1981(7) -0.0499(3)
C5 C -0.2644(7) 0.1856(7) -0.0083(4)
C6 C -0.3013(7) 0.1555(8) 0.0333(4)
C7 C -0.5222(7) 0.1282(6) -0.0113(4)
C8 C -0.2723(8) 0.2308(7) -0.0955(4)
C9 C -0.6566(7) 0.0870(8) 0.0131(4)
C10 C -0.6912(8) 0.0341(8) 0.0517(5)
C11 C -0.693(1) 0.141(1) 0.1134(6)
C12 C -0.6831(9) -0.001(1) 0.1352(5)
O2A O -0.5021(5) 0.0546(5) 0.1562(2)
O3A O -0.4861(5) -0.0620(5) 0.1172(3)
Cu1C Cu -0.1721(1) 0.2826(1) -0.16184(5)
O4 O -0.903(2) 0.477(2) 0.0101(7)
O5 O -0.933(1) 0.082(1) 0.104(1)
O6 O -0.5976(9) 0.078(1) 0.5870(5)
O7 O -0.397(2) 0.164(2) 0.521(1)
O8 O -0.086(2) 0.162(4) 0.064(1)
loop_
_geom_bond_atom_site_label_1
_geom_bond_atom_site_label_2
_geom_bond_site_symmetry_1
_geom_bond_site_symmetry_2
Cu1 O1 1_555 1_555
O1 C1 1_555 1_555
O2 C8 1_555 1_555
O3 C8 1_555 1_555
N1 Cu1 1_555 1_555
N2 Cu1 1_555 1_555
C1 C2 1_555 1_555
C2 C3 1_555 1_555
C3 C4 1_555 1_555
C4 C5 1_555 1_555
C5 C6 1_555 1_555
C6 C1 1_555 1_555
C7 N1 1_555 1_555
C8 C4 1_555 1_555
C9 N1 1_555 1_555
C10 N2 1_555 1_555
C11 N2 1_555 1_555
C12 N2 1_555 1_555
O2A Cu1 1_555 1_555
O3A Cu1 1_555 1_555
Cu1C O2 1_555 1_555
O3 Cu1C 1_555 1_555
C2 C7 1_555 1_555
C9 C10 1_555 1_555

#END
