
#######################################################################
#
#                 Cambridge Crystallographic Data Centre
#                                CCDC 
#
#######################################################################
#
# If this CIF has been generated from an entry in the Cambridge 
# Structural Database, then it will include bibliographic, chemical, 
# crystal, experimental, refinement or atomic coordinate data resulting 
# from the CCDC's data processing and validation procedures.
#
#######################################################################

data_FOMGEV01
_symmetry_cell_setting           monoclinic
_symmetry_space_group_name_H-M   'C 2/c'
_symmetry_Int_Tables_number      15
_space_group_name_Hall           '-C 2yn'
loop_
_symmetry_equiv_pos_site_id
_symmetry_equiv_pos_as_xyz
1 x,y,z
2 -x,y,1/2-z
3 1/2+x,1/2+y,z
4 1/2-x,1/2+y,1/2-z
5 -x,-y,-z
6 x,-y,1/2+z
7 1/2-x,1/2-y,-z
8 1/2+x,1/2-y,1/2+z
_cell_length_a                   25.764(5)
_cell_length_b                   18.867(4)
_cell_length_c                   10.648(2)
_cell_angle_alpha                90
_cell_angle_beta                 90.67(3)
_cell_angle_gamma                90
_cell_volume                     5175.53
loop_
_atom_site_label
_atom_site_type_symbol
_atom_site_fract_x
_atom_site_fract_y
_atom_site_fract_z
Ni1 Ni 0.41533(2) 0.13122(3) 0.52184(5)
O1 O 0.46951(10) 0.13538(15) 0.6692(3)
O2 O 0.42891(13) 0.23563(16) 0.4853(3)
O3 O 0.47026(12) 0.10774(18) 0.3853(3)
O4 O 0.40567(13) 0.02086(17) 0.5366(3)
N1 N 0.35661(13) 0.1537(2) 0.6471(4)
O5 O 0.35651(11) 0.13268(17) 0.3896(3)
Ni2 Ni 0.5000 0.23101(4) 0.7500
S1 S 0.5000 0.08437(8) 0.7500
H1 H 0.4441 0.0883 0.3181
H2 H 0.4705 0.0649 0.3726
H3 H 0.4163 -0.0157 0.4843
H4 H 0.4140 0.0078 0.6075
C1 C 0.32065(18) 0.2028(2) 0.6174(5)
C2 C 0.34963(18) 0.1171(3) 0.7537(5)
C3 C 0.34770(18) 0.0884(2) 0.3029(4)
O6 O 0.46530(12) 0.30288(16) 0.6376(3)
N2 N 0.43749(13) 0.23776(19) 0.8753(4)
O7 O 0.46595(12) 0.04224(18) 0.8274(3)
H5 H 0.3251 0.2292 0.5446
C4 C 0.27777(18) 0.2158(3) 0.6888(5)
C5 C 0.30703(18) 0.1272(3) 0.8286(5)
H6 H 0.3744 0.0837 0.7778
C6 C 0.29144(18) 0.0734(2) 0.2759(5)
O8 O 0.38223(13) 0.05961(18) 0.2391(3)
C7 C 0.4032(2) 0.2896(3) 0.8624(5)
C8 C 0.43212(19) 0.1968(3) 0.9752(5)
H7 H 0.2540 0.2504 0.6643
C9 C 0.26992(17) 0.1772(3) 0.7981(5)
H8 H 0.3032 0.1000 0.9007
C10 C 0.2755(2) 0.0372(3) 0.1677(5)
C11 C 0.25379(19) 0.0958(3) 0.3573(5)
H9 H 0.4067 0.3203 0.7946
C12 C 0.3627(2) 0.3010(3) 0.9428(6)
H10 H 0.4560 0.1604 0.9881
C13 C 0.3926(2) 0.2053(3) 1.0622(5)
C14 C 0.22535(18) 0.1880(3) 0.8815(5)
C15 C 0.2236(2) 0.0249(3) 0.1429(5)
H11 H 0.3003 0.0212 0.1115
H12 H 0.2638 0.1198 0.4300
C16 C 0.20143(19) 0.0837(3) 0.3347(5)
C17 C 0.35602(18) 0.2574(3) 1.0452(5)
H13 H 0.3398 0.3383 0.9282
H14 H 0.3910 0.1757 1.1319
H15 H 0.2238 0.1590 0.9520
C18 C 0.18760(18) 0.2341(3) 0.8672(5)
C19 C 0.18686(19) 0.0486(2) 0.2264(5)
H16 H 0.2134 0.0007 0.0705
H17 H 0.1766 0.0990 0.3915
H18 H 0.1883 0.2634 0.7971
O9 O 0.13409(13) 0.04197(18) 0.2040(4)
C20 C 0.11624(19) -0.0200(3) 0.1457(5)
C21 C 0.0831(2) -0.0133(3) 0.0450(6)
C22 C 0.1298(2) -0.0854(3) 0.1907(6)
C23 C 0.06387(19) -0.0737(2) -0.0138(5)
H19 H 0.0734 0.0314 0.0162
C24 C 0.1105(2) -0.1453(3) 0.1328(5)
H20 H 0.1520 -0.0894 0.2599
C25 C 0.07759(17) -0.1400(2) 0.0302(5)
H21 H 0.0417 -0.0694 -0.0830
H22 H 0.1197 -0.1898 0.1633
C26 C 0.05917(16) -0.2066(2) -0.0363(5)
O1A O 0.53049(10) 0.13538(15) 0.8308(3)
O6A O 0.53470(12) 0.30288(16) 0.8624(3)
N2A N 0.56251(13) 0.23776(19) 0.6247(4)
O7A O 0.53405(12) 0.04224(18) 0.6726(3)
Ni1A Ni 0.58467(2) 0.13122(3) 0.97816(5)
O2A O 0.57109(13) 0.23563(16) 1.0147(3)
O3A O 0.52974(12) 0.10774(18) 1.1147(3)
O4A O 0.59433(13) 0.02086(17) 0.9634(3)
N1A N 0.64339(13) 0.1537(2) 0.8529(4)
O5A O 0.64349(11) 0.13268(17) 1.1104(3)
H1A H 0.5559 0.0883 1.1819
H2A H 0.5295 0.0649 1.1274
H3A H 0.5837 -0.0157 1.0157
H4A H 0.5860 0.0078 0.8925
C3A C 0.65230(18) 0.0884(2) 1.1971(4)
C6A C 0.70856(18) 0.0734(2) 1.2241(5)
O8A O 0.61777(13) 0.05961(18) 1.2609(3)
C18F C 0.31240(18) 0.2659(3) 1.1328(5)
C17F C 0.14398(18) 0.2426(3) 0.9548(5)
C10A C 0.7245(2) 0.0372(3) 1.3323(5)
C11A C 0.74621(19) 0.0958(3) 1.1427(5)
C14F C 0.27465(18) 0.3120(3) 1.1185(5)
H18F H 0.3117 0.2366 1.2029
C13F C 0.1074(2) 0.2947(3) 0.9378(5)
C12F C 0.1373(2) 0.1990(3) 1.0572(6)
C15A C 0.7764(2) 0.0249(3) 1.3571(5)
H11A H 0.6997 0.0212 1.3885
H12A H 0.7362 0.1198 1.0700
C16A C 0.79857(19) 0.0837(3) 1.1653(5)
C9F C 0.23008(17) 0.3228(3) 1.2019(5)
H15F H 0.2762 0.3410 1.0480
H14F H 0.1090 0.3243 0.8681
C8F C 0.06788(19) 0.3032(3) 1.0248(5)
H13F H 0.1602 0.1617 1.0718
C7F C 0.0968(2) 0.2104(3) 1.1376(5)
C19A C 0.81314(19) 0.0486(2) 1.2736(5)
H16A H 0.7866 0.0007 1.4295
H17A H 0.8234 0.0990 1.1085
C5F C 0.19297(18) 0.3728(3) 1.1714(5)
C4F C 0.22223(18) 0.2842(3) 1.3112(5)
H10F H 0.0440 0.3396 1.0119
N2F N 0.06251(13) 0.26224(19) 1.1247(4)
H9F H 0.0933 0.1797 1.2054
O9A O 0.86591(13) 0.04197(18) 1.2960(4)
C2F C 0.15037(18) 0.3829(3) 1.2463(5)
H8F H 0.1968 0.4000 1.0993
C1F C 0.17935(18) 0.2972(2) 1.3826(5)
H7F H 0.2460 0.2496 1.3357
Ni2F Ni 0.0000 0.26899(4) 1.2500
C20A C 0.88376(19) -0.0200(3) 1.3543(5)
N1F N 0.14339(13) 0.3463(2) 1.3529(4)
H6F H 0.1256 0.4163 1.2222
H5F H 0.1749 0.2708 1.4554
C21A C 0.9169(2) -0.0133(3) 1.4550(6)
C22A C 0.8702(2) -0.0854(3) 1.3093(6)
Ni1F Ni 0.08467(2) 0.36878(3) 1.47816(5)
O2C O 0.07109(13) -0.26437(16) 0.0147(3)
O6C O 0.03470(12) -0.19712(16) -0.1376(3)
C23A C 0.93613(19) -0.0737(2) 1.5138(5)
H19A H 0.9266 0.0314 1.4838
C24A C 0.8895(2) -0.1453(3) 1.3672(5)
H20A H 0.8480 -0.0894 1.2401
Ni1C Ni 0.08467(2) -0.36878(3) -0.02184(5)
Ni2B Ni 0.0000 -0.26899(4) -0.2500
C25A C 0.92241(17) -0.1400(2) 1.4698(5)
H21A H 0.9583 -0.0694 1.5830
H22A H 0.8803 -0.1898 1.3367
C26A C 0.94083(16) -0.2066(2) 1.5363(5)
O2B O 0.92891(13) -0.26437(16) 1.4853(3)
O6B O 0.96530(12) -0.19712(16) 1.6376(3)
Ni1B Ni 0.91533(2) -0.36878(3) 1.52184(5)
Ni2B_2 Ni 1.0000 -0.26899(4) 1.7500
O10 O 0.5000 0.2357(4) 0.2500
H23 H 0.4876 0.2092 0.3066
H23A H 0.5124 0.2092 0.1934
H24? H 0.4876 0.2092 0.3066
loop_
_geom_bond_atom_site_label_1
_geom_bond_atom_site_label_2
_geom_bond_site_symmetry_1
_geom_bond_site_symmetry_2
Ni1 O1 1_555 1_555
O1 Ni2 1_555 1_555
O2 Ni1 1_555 1_555
O3 Ni1 1_555 1_555
O4 Ni1 1_555 1_555
N1 Ni1 1_555 1_555
O5 Ni1 1_555 1_555
Ni2 O6 1_555 1_555
S1 O1 1_555 1_555
H1 O3 1_555 1_555
H2 O3 1_555 1_555
H3 O4 1_555 1_555
H4 O4 1_555 1_555
C1 N1 1_555 1_555
C2 N1 1_555 1_555
C3 O5 1_555 1_555
N2 Ni2 1_555 1_555
O7 S1 1_555 1_555
H5 C1 1_555 1_555
C4 C1 1_555 1_555
C5 C2 1_555 1_555
H6 C2 1_555 1_555
C6 C3 1_555 1_555
O8 C3 1_555 1_555
C7 N2 1_555 1_555
C8 N2 1_555 1_555
H7 C4 1_555 1_555
C9 C4 1_555 1_555
H8 C5 1_555 1_555
C10 C6 1_555 1_555
C11 C6 1_555 1_555
H9 C7 1_555 1_555
C12 C7 1_555 1_555
H10 C8 1_555 1_555
C13 C8 1_555 1_555
C14 C9 1_555 1_555
C15 C10 1_555 1_555
H11 C10 1_555 1_555
H12 C11 1_555 1_555
C16 C11 1_555 1_555
C17 C12 1_555 1_555
H13 C12 1_555 1_555
H14 C13 1_555 1_555
H15 C14 1_555 1_555
C18 C14 1_555 1_555
C19 C15 1_555 1_555
H16 C15 1_555 1_555
H17 C16 1_555 1_555
H18 C18 1_555 1_555
O9 C19 1_555 1_555
C20 O9 1_555 1_555
C21 C20 1_555 1_555
C22 C20 1_555 1_555
C23 C21 1_555 1_555
H19 C21 1_555 1_555
C24 C22 1_555 1_555
H20 C22 1_555 1_555
C25 C23 1_555 1_555
H21 C23 1_555 1_555
H22 C24 1_555 1_555
C26 C25 1_555 1_555
O10 H23 1_555 1_555
O1A Ni2 1_555 1_555
O6A Ni2 1_555 1_555
N2A Ni2 1_555 1_555
O7A S1 1_555 1_555
Ni1A O1A 1_555 1_555
O2A Ni1A 1_555 1_555
O3A Ni1A 1_555 1_555
O4A Ni1A 1_555 1_555
N1A Ni1A 1_555 1_555
O5A Ni1A 1_555 1_555
H1A O3A 1_555 1_555
H2A O3A 1_555 1_555
H3A O4A 1_555 1_555
H4A O4A 1_555 1_555
C3A O5A 1_555 1_555
C6A C3A 1_555 1_555
O8A C3A 1_555 1_555
C18F C17 1_555 1_555
C17F C18 1_555 1_555
C10A C6A 1_555 1_555
C11A C6A 1_555 1_555
C14F C18F 1_555 1_555
H18F C18F 1_555 1_555
C13F C17F 1_555 1_555
C12F C17F 1_555 1_555
C15A C10A 1_555 1_555
H11A C10A 1_555 1_555
H12A C11A 1_555 1_555
C16A C11A 1_555 1_555
C9F C14F 1_555 1_555
H15F C14F 1_555 1_555
H14F C13F 1_555 1_555
C8F C13F 1_555 1_555
H13F C12F 1_555 1_555
C7F C12F 1_555 1_555
C19A C15A 1_555 1_555
H16A C15A 1_555 1_555
H17A C16A 1_555 1_555
C5F C9F 1_555 1_555
C4F C9F 1_555 1_555
H10F C8F 1_555 1_555
N2F C8F 1_555 1_555
H9F C7F 1_555 1_555
O9A C19A 1_555 1_555
C2F C5F 1_555 1_555
H8F C5F 1_555 1_555
C1F C4F 1_555 1_555
H7F C4F 1_555 1_555
Ni2F N2F 1_555 1_555
C20A O9A 1_555 1_555
N1F C2F 1_555 1_555
H6F C2F 1_555 1_555
H5F C1F 1_555 1_555
C21A C20A 1_555 1_555
C22A C20A 1_555 1_555
Ni1F N1F 1_555 1_555
O2C C26 1_555 1_555
O6C C26 1_555 1_555
C23A C21A 1_555 1_555
H19A C21A 1_555 1_555
C24A C22A 1_555 1_555
H20A C22A 1_555 1_555
Ni1C O2C 1_555 1_555
Ni2B O6C 1_555 1_555
C25A C23A 1_555 1_555
H21A C23A 1_555 1_555
H22A C24A 1_555 1_555
C26A C25A 1_555 1_555
O2B C26A 1_555 1_555
O6B C26A 1_555 1_555
Ni1B O2B 1_555 1_555
Ni2B_2 O6B 1_555 1_555
H23A O10 1_555 1_555
S1 O1A 1_555 1_555
C5 C9 1_555 1_555
C13 C17 1_555 1_555
C16 C19 1_555 1_555
C24 C25 1_555 1_555
C16A C19A 1_555 1_555
C7F N2F 1_555 1_555
C1F N1F 1_555 1_555
C24A C25A 1_555 1_555

#END
