
#######################################################################
#
#                 Cambridge Crystallographic Data Centre
#                                CCDC 
#
#######################################################################
#
# If this CIF has been generated from an entry in the Cambridge 
# Structural Database, then it will include bibliographic, chemical, 
# crystal, experimental, refinement or atomic coordinate data resulting 
# from the CCDC's data processing and validation procedures.
#
#######################################################################

data_FOMGEV03
_symmetry_cell_setting           monoclinic
_symmetry_space_group_name_H-M   'C 2/c'
_symmetry_Int_Tables_number      15
_space_group_name_Hall           '-C 2yn'
loop_
_symmetry_equiv_pos_site_id
_symmetry_equiv_pos_as_xyz
1 x,y,z
2 -x,y,1/2-z
3 1/2+x,1/2+y,z
4 1/2-x,1/2+y,1/2-z
5 -x,-y,-z
6 x,-y,1/2+z
7 1/2-x,1/2-y,-z
8 1/2+x,1/2-y,1/2+z
_cell_length_a                   25.7560(7)
_cell_length_b                   18.8726(6)
_cell_length_c                   10.6553(4)
_cell_angle_alpha                90
_cell_angle_beta                 90.667(3)
_cell_angle_gamma                90
_cell_volume                     5179.01
loop_
_atom_site_label
_atom_site_type_symbol
_atom_site_fract_x
_atom_site_fract_y
_atom_site_fract_z
Ni1 Ni 0.5000 0.23114(2) 0.2500
Ni2 Ni 0.415319(12) 0.131139(18) 0.02241(3)
O1 O 0.46611(8) 0.04224(11) 0.3270(2)
O2 O 0.46953(6) 0.13550(9) 0.16917(17)
O3 O 0.40580(8) 0.02067(10) 0.03754(18)
H1 H 0.4052 0.0069 0.1135
H2 H 0.4288 -0.0021 -0.0023
O4 O 0.46952(7) 0.10699(11) -0.11440(18)
H3 H 0.4521 0.0939 -0.1786
H4 H 0.4857 0.0705 -0.0880
O5 O 0.35666(7) 0.13248(10) -0.10919(18)
O6 O 0.38238(8) 0.05936(11) -0.25984(19)
O7 O 0.13409(8) 0.04172(11) -0.2960(2)
O8 O 0.03478(7) -0.19712(10) -0.63723(17)
O9 O 0.07100(8) -0.26431(10) -0.48549(19)
S1 S 0.5000 0.08437(5) 0.2500
C1 C 0.32057(11) 0.20265(16) 0.1180(3)
H5 H 0.3250 0.2290 0.0452
C2 C 0.27764(11) 0.21579(17) 0.1893(3)
H6 H 0.2538 0.2502 0.1646
C3 C 0.27006(11) 0.17724(16) 0.2989(3)
C4 C 0.30725(11) 0.12706(17) 0.3292(3)
H7 H 0.3037 0.0999 0.4015
C5 C 0.34958(11) 0.11684(16) 0.2532(3)
H8 H 0.3741 0.0830 0.2761
C6 C 0.22546(11) 0.18796(17) 0.3809(3)
H9 H 0.2237 0.1584 0.4505
C7 C 0.18752(11) 0.23432(16) 0.3681(3)
H10 H 0.1885 0.2643 0.2989
C8 C 0.10746(12) 0.29482(18) 0.4388(3)
H11 H 0.1093 0.3249 0.3700
C9 C 0.14381(10) 0.24249(15) 0.4543(3)
C10 C 0.13755(13) 0.19895(18) 0.5574(3)
H12 H 0.1608 0.1621 0.5724
C11 C 0.09703(13) 0.21010(18) 0.6377(3)
H13 H 0.0935 0.1795 0.7056
C12 C 0.06794(12) 0.30342(18) 0.5246(3)
H14 H 0.0442 0.3399 0.5118
C13 C 0.34792(11) 0.08901(14) -0.1958(3)
C14 C 0.29150(11) 0.07340(14) -0.2241(3)
C15 C 0.25348(11) 0.09600(16) -0.1421(3)
H15 H 0.2633 0.1204 -0.0698
C16 C 0.20143(12) 0.08325(16) -0.1649(3)
H16 H 0.1766 0.0982 -0.1081
C17 C 0.18688(12) 0.04810(15) -0.2729(3)
C18 C 0.22383(13) 0.02493(18) -0.3566(3)
H17 H 0.2137 0.0011 -0.4292
C19 C 0.27587(12) 0.03737(16) -0.3317(3)
H18 H 0.3007 0.0214 -0.3878
C20 C 0.11642(12) -0.02015(16) -0.3541(3)
C21 C 0.13036(15) -0.08539(18) -0.3095(4)
H19 H 0.1528 -0.0893 -0.2409
C22 C 0.11084(13) -0.14528(17) -0.3670(3)
H20 H 0.1200 -0.1897 -0.3362
C23 C 0.07768(11) -0.14024(14) -0.4701(3)
C24 C 0.06403(12) -0.07352(16) -0.5135(3)
H21 H 0.0417 -0.0691 -0.5823
C25 C 0.08345(13) -0.01332(17) -0.4550(3)
H22 H 0.0741 0.0314 -0.4842
C26 C 0.05944(10) -0.20642(14) -0.5365(3)
N1 N 0.35659(8) 0.15371(12) 0.1479(2)
N2 N 0.06251(8) 0.26195(12) 0.6242(2)
O1A O 0.53389(8) 0.04224(11) 0.1730(2)
O2A O 0.53047(6) 0.13550(9) 0.33083(17)
Ni2A Ni 0.584681(12) 0.131139(18) 0.47759(3)
O3A O 0.59420(8) 0.02067(10) 0.46246(18)
H1A H 0.5948 0.0069 0.3865
H2A H 0.5712 -0.0021 0.5023
O4A O 0.53048(7) 0.10699(11) 0.61440(18)
H3A H 0.5479 0.0939 0.6786
H4A H 0.5143 0.0705 0.5880
O5A O 0.64334(7) 0.13248(10) 0.60919(18)
O6A O 0.61762(8) 0.05936(11) 0.75984(19)
O7A O 0.86591(8) 0.04172(11) 0.7960(2)
O8A O 0.96522(7) -0.19712(10) 1.13723(17)
O9A O 0.92900(8) -0.26431(10) 0.98549(19)
C1A C 0.67943(11) 0.20265(16) 0.3820(3)
H5A H 0.6750 0.2290 0.4548
C2A C 0.72236(11) 0.21579(17) 0.3107(3)
H6A H 0.7462 0.2502 0.3354
C3A C 0.72994(11) 0.17724(16) 0.2011(3)
C4A C 0.69275(11) 0.12706(17) 0.1708(3)
H7A H 0.6963 0.0999 0.0985
C5A C 0.65042(11) 0.11684(16) 0.2468(3)
H8A H 0.6259 0.0830 0.2239
C6A C 0.77454(11) 0.18796(17) 0.1191(3)
H9A H 0.7763 0.1584 0.0495
C7A C 0.81248(11) 0.23432(16) 0.1319(3)
H10A H 0.8115 0.2643 0.2011
C8A C 0.89254(12) 0.29482(18) 0.0612(3)
H11A H 0.8907 0.3249 0.1300
C9A C 0.85619(10) 0.24249(15) 0.0457(3)
C10A C 0.86245(13) 0.19895(18) -0.0574(3)
H12A H 0.8392 0.1621 -0.0724
C11A C 0.90297(13) 0.21010(18) -0.1377(3)
H13A H 0.9065 0.1795 -0.2056
C12A C 0.93206(12) 0.30342(18) -0.0246(3)
H14A H 0.9558 0.3399 -0.0118
C13A C 0.65208(11) 0.08901(14) 0.6958(3)
C14A C 0.70850(11) 0.07340(14) 0.7241(3)
C15A C 0.74652(11) 0.09600(16) 0.6421(3)
H15A H 0.7367 0.1204 0.5698
C16A C 0.79857(12) 0.08325(16) 0.6649(3)
H16A H 0.8234 0.0982 0.6081
C17A C 0.81312(12) 0.04810(15) 0.7729(3)
C18A C 0.77617(13) 0.02493(18) 0.8566(3)
H17A H 0.7863 0.0011 0.9292
C19A C 0.72413(12) 0.03737(16) 0.8317(3)
H18A H 0.6993 0.0214 0.8878
C20A C 0.88358(12) -0.02015(16) 0.8541(3)
C21A C 0.86964(15) -0.08539(18) 0.8095(4)
H19A H 0.8472 -0.0893 0.7409
C22A C 0.88916(13) -0.14528(17) 0.8670(3)
H20A H 0.8800 -0.1897 0.8362
C23A C 0.92232(11) -0.14024(14) 0.9701(3)
C24A C 0.93597(12) -0.07352(16) 1.0135(3)
H21A H 0.9583 -0.0691 1.0823
C25A C 0.91655(13) -0.01332(17) 0.9550(3)
H22A H 0.9259 0.0314 0.9842
C26A C 0.94056(10) -0.20642(14) 1.0365(3)
N1A N 0.64341(8) 0.15371(12) 0.3521(2)
N2A N 0.93749(8) 0.26195(12) -0.1242(2)
Ni1B Ni 0.0000 -0.26886(2) -0.7500
Ni1B_2 Ni 1.0000 -0.26886(2) 1.2500
Ni1F Ni 0.0000 0.26886(2) 0.7500
Ni1F_2 Ni 1.0000 0.26886(2) -0.2500
Ni2B Ni 0.915319(12) -0.368861(18) 1.02241(3)
Ni2C Ni 0.084681(12) -0.368861(18) -0.52241(3)
O8B O 0.53478(7) 0.30288(10) 0.36277(17)
O8C O 0.46522(7) 0.30288(10) 0.13723(17)
O9B O 0.57100(8) 0.23569(10) 0.51451(19)
O9C O 0.42900(8) 0.23569(10) -0.01451(19)
N2F N 0.43749(8) 0.23805(12) 0.3758(2)
N2G N 0.56251(8) 0.23805(12) 0.1242(2)
O10 O 0.5000 0.2358(3) 0.7500
H23 H 0.4873 0.2092 0.8062
H23A H 0.5127 0.2092 0.6938
H24? H 0.4873 0.2092 0.8062
loop_
_geom_bond_atom_site_label_1
_geom_bond_atom_site_label_2
_geom_bond_site_symmetry_1
_geom_bond_site_symmetry_2
Ni1 O2 1_555 1_555
Ni2 O2 1_555 1_555
O1 S1 1_555 1_555
O2 S1 1_555 1_555
O3 Ni2 1_555 1_555
H1 O3 1_555 1_555
H2 O3 1_555 1_555
O4 Ni2 1_555 1_555
H3 O4 1_555 1_555
H4 O4 1_555 1_555
O5 Ni2 1_555 1_555
O6 C13 1_555 1_555
O7 C17 1_555 1_555
O8 C26 1_555 1_555
O9 C26 1_555 1_555
S1 O1A 1_555 1_555
C1 H5 1_555 1_555
C2 C1 1_555 1_555
H6 C2 1_555 1_555
C3 C2 1_555 1_555
C4 C3 1_555 1_555
H7 C4 1_555 1_555
C5 C4 1_555 1_555
H8 C5 1_555 1_555
C6 C3 1_555 1_555
H9 C6 1_555 1_555
C7 C6 1_555 1_555
H10 C7 1_555 1_555
C8 H11 1_555 1_555
C9 C7 1_555 1_555
C10 C9 1_555 1_555
H12 C10 1_555 1_555
C11 C10 1_555 1_555
H13 C11 1_555 1_555
C12 C8 1_555 1_555
H14 C12 1_555 1_555
C13 O5 1_555 1_555
C14 C13 1_555 1_555
C15 C14 1_555 1_555
H15 C15 1_555 1_555
C16 C15 1_555 1_555
H16 C16 1_555 1_555
C17 C16 1_555 1_555
C18 C17 1_555 1_555
H17 C18 1_555 1_555
C19 C14 1_555 1_555
H18 C19 1_555 1_555
C20 O7 1_555 1_555
C21 C20 1_555 1_555
H19 C21 1_555 1_555
C22 C21 1_555 1_555
H20 C22 1_555 1_555
C23 C22 1_555 1_555
C24 C23 1_555 1_555
H21 C24 1_555 1_555
C25 C20 1_555 1_555
H22 C25 1_555 1_555
C26 C23 1_555 1_555
N1 Ni2 1_555 1_555
N2 C11 1_555 1_555
O10 H23 1_555 1_555
O2A Ni1 1_555 1_555
Ni2A O2A 1_555 1_555
O3A Ni2A 1_555 1_555
H1A O3A 1_555 1_555
H2A O3A 1_555 1_555
O4A Ni2A 1_555 1_555
H3A O4A 1_555 1_555
H4A O4A 1_555 1_555
O5A Ni2A 1_555 1_555
O6A C13A 1_555 1_555
O7A C17A 1_555 1_555
O8A C26A 1_555 1_555
O9A C26A 1_555 1_555
C1A H5A 1_555 1_555
C2A C1A 1_555 1_555
H6A C2A 1_555 1_555
C3A C2A 1_555 1_555
C4A C3A 1_555 1_555
H7A C4A 1_555 1_555
C5A C4A 1_555 1_555
H8A C5A 1_555 1_555
C6A C3A 1_555 1_555
H9A C6A 1_555 1_555
C7A C6A 1_555 1_555
H10A C7A 1_555 1_555
C8A H11A 1_555 1_555
C9A C7A 1_555 1_555
C10A C9A 1_555 1_555
H12A C10A 1_555 1_555
C11A C10A 1_555 1_555
H13A C11A 1_555 1_555
C12A C8A 1_555 1_555
H14A C12A 1_555 1_555
C13A O5A 1_555 1_555
C14A C13A 1_555 1_555
C15A C14A 1_555 1_555
H15A C15A 1_555 1_555
C16A C15A 1_555 1_555
H16A C16A 1_555 1_555
C17A C16A 1_555 1_555
C18A C17A 1_555 1_555
H17A C18A 1_555 1_555
C19A C14A 1_555 1_555
H18A C19A 1_555 1_555
C20A O7A 1_555 1_555
C21A C20A 1_555 1_555
H19A C21A 1_555 1_555
C22A C21A 1_555 1_555
H20A C22A 1_555 1_555
C23A C22A 1_555 1_555
C24A C23A 1_555 1_555
H21A C24A 1_555 1_555
C25A C20A 1_555 1_555
H22A C25A 1_555 1_555
C26A C23A 1_555 1_555
N1A Ni2A 1_555 1_555
N2A C11A 1_555 1_555
Ni1B O8 1_555 1_555
Ni1B_2 O8A 1_555 1_555
Ni1F N2 1_555 1_555
Ni1F_2 N2A 1_555 1_555
Ni2B O9A 1_555 1_555
Ni2C O9 1_555 1_555
O8B Ni1 1_555 1_555
O8C Ni1 1_555 1_555
O9B Ni2A 1_555 1_555
O9C Ni2 1_555 1_555
N2F Ni1 1_555 1_555
N2G Ni1 1_555 1_555
H23A O10 1_555 1_555
S1 O2A 1_555 1_555
C1 N1 1_555 1_555
C5 N1 1_555 1_555
C8 C9 1_555 1_555
C12 N2 1_555 1_555
C18 C19 1_555 1_555
C24 C25 1_555 1_555
C1A N1A 1_555 1_555
C5A N1A 1_555 1_555
C8A C9A 1_555 1_555
C12A N2A 1_555 1_555
C18A C19A 1_555 1_555
C24A C25A 1_555 1_555

#END
