
#######################################################################
#
#                 Cambridge Crystallographic Data Centre
#                                CCDC 
#
#######################################################################
#
# If this CIF has been generated from an entry in the Cambridge 
# Structural Database, then it will include bibliographic, chemical, 
# crystal, experimental, refinement or atomic coordinate data resulting 
# from the CCDC's data processing and validation procedures.
#
#######################################################################

data_FOMJIA
_symmetry_cell_setting           monoclinic
_symmetry_space_group_name_H-M   'P 21/c'
_symmetry_Int_Tables_number      14
_space_group_name_Hall           '-P 2ybc'
loop_
_symmetry_equiv_pos_site_id
_symmetry_equiv_pos_as_xyz
1 x,y,z
2 -x,1/2+y,1/2-z
3 -x,-y,-z
4 x,1/2-y,1/2+z
_cell_length_a                   9.149(6)
_cell_length_b                   17.566(6)
_cell_length_c                   11.004(6)
_cell_angle_alpha                90
_cell_angle_beta                 110.03(4)
_cell_angle_gamma                90
_cell_volume                     1661.5
loop_
_atom_site_label
_atom_site_type_symbol
_atom_site_fract_x
_atom_site_fract_y
_atom_site_fract_z
Cu1 Cu 0.1160(2) -0.27042(8) 0.1277(1)
O1 O 0.179(1) -0.3657(4) 0.2184(7)
O2 O -0.050(1) -0.7043(4) 0.2241(7)
O3 O -0.259(1) -0.6581(5) 0.0740(9)
N1 N -0.102(1) -0.3060(5) 0.0561(9)
N2 N 0.086(1) -0.1828(6) -0.0045(9)
N3 N 0.349(1) -0.2489(6) 0.211(1)
C1 C 0.109(1) -0.4320(7) 0.198(1)
C2 C -0.050(1) -0.4404(7) 0.119(1)
C3 C -0.117(1) -0.5125(7) 0.105(1)
C4 C -0.043(2) -0.5757(7) 0.166(1)
C5 C 0.111(2) -0.5678(7) 0.240(1)
C6 C 0.186(1) -0.4990(7) 0.257(1)
C7 C -0.142(1) -0.3753(7) 0.060(1)
C8 C -0.122(2) -0.6515(8) 0.152(1)
C9 C -0.225(1) -0.2504(7) 0.000(1)
C10 C -0.198(1) -0.2031(8) -0.103(1)
C11 C -0.068(2) -0.1463(7) -0.055(1)
C12 C 0.202(2) -0.1214(7) 0.037(1)
C13 C 0.376(2) -0.1488(9) 0.067(1)
C14 C 0.443(2) -0.1847(8) 0.195(1)
O2A O 0.050(1) -0.2043(4) 0.2759(7)
Cu1A Cu -0.1160(2) -0.77042(8) 0.3723(1)
O4 O 0.476(1) -0.908(1) 0.363(1)
loop_
_geom_bond_atom_site_label_1
_geom_bond_atom_site_label_2
_geom_bond_site_symmetry_1
_geom_bond_site_symmetry_2
Cu1 O1 1_555 1_555
O1 C1 1_555 1_555
O2 C8 1_555 1_555
O3 C8 1_555 1_555
N1 Cu1 1_555 1_555
N2 Cu1 1_555 1_555
N3 Cu1 1_555 1_555
C1 C2 1_555 1_555
C2 C3 1_555 1_555
C3 C4 1_555 1_555
C4 C5 1_555 1_555
C5 C6 1_555 1_555
C6 C1 1_555 1_555
C7 N1 1_555 1_555
C8 C4 1_555 1_555
C9 N1 1_555 1_555
C10 C9 1_555 1_555
C11 N2 1_555 1_555
C12 N2 1_555 1_555
C13 C12 1_555 1_555
C14 N3 1_555 1_555
O2A Cu1 1_555 1_555
Cu1A O2 1_555 1_555
C2 C7 1_555 1_555
C10 C11 1_555 1_555
C13 C14 1_555 1_555

#END
