
#######################################################################
#
#                 Cambridge Crystallographic Data Centre
#                                CCDC 
#
#######################################################################
#
# If this CIF has been generated from an entry in the Cambridge 
# Structural Database, then it will include bibliographic, chemical, 
# crystal, experimental, refinement or atomic coordinate data resulting 
# from the CCDC's data processing and validation procedures.
#
#######################################################################

data_FOMNIG08
_symmetry_cell_setting           monoclinic
_symmetry_space_group_name_H-M   'C 2/c'
_symmetry_Int_Tables_number      15
_space_group_name_Hall           '-C 2yn'
loop_
_symmetry_equiv_pos_site_id
_symmetry_equiv_pos_as_xyz
1 x,y,z
2 -x,y,1/2-z
3 1/2+x,1/2+y,z
4 1/2-x,1/2+y,1/2-z
5 -x,-y,-z
6 x,-y,1/2+z
7 1/2-x,1/2-y,-z
8 1/2+x,1/2-y,1/2+z
_cell_length_a                   25.5558(10)
_cell_length_b                   18.8016(8)
_cell_length_c                   10.6080(4)
_cell_angle_alpha                90
_cell_angle_beta                 90.079(2)
_cell_angle_gamma                90
_cell_volume                     5097.03
loop_
_atom_site_label
_atom_site_type_symbol
_atom_site_fract_x
_atom_site_fract_y
_atom_site_fract_z
Ni1 Ni 0.0000 0.23448(3) 0.7500
Ni2 Ni 0.085000(17) 0.12877(2) 0.97705(4)
S1 S 0.0000 0.08520(6) 0.7500
O1 O 0.03107(9) 0.13648(12) 0.8296(2)
N1 N 0.06243(11) 0.24390(15) 0.6218(3)
O2 O 0.35659(10) 0.63351(14) 1.3924(2)
O3 O 0.02963(10) 0.10774(14) 1.1162(2)
H1 H 0.0470 0.0974 1.1821
H2 H 0.0143 0.0697 1.0934
O4 O 0.09360(10) 0.01770(13) 0.9677(2)
H3 H 0.0946 0.0026 0.8922
H4 H 0.0699 -0.0040 1.0086
O5 O 0.38178(10) 0.56473(14) 1.2332(2)
O6 O 0.03570(9) 0.30469(13) 0.8646(2)
O7 O 0.07273(11) 0.23365(14) 1.0103(3)
O8 O 0.13194(11) 0.53496(15) 1.2307(3)
N2 N 0.14450(11) 0.14509(16) 0.8490(3)
C1 C 0.34736(15) 0.59168(19) 1.3028(3)
C2 C 0.29082(14) 0.57499(19) 1.2801(3)
C3 C 0.15719(15) 0.25029(19) 0.4884(4)
C4 C 0.21648(15) 0.2140(2) 0.7748(4)
H5 H 0.2396 0.2515 0.7889
C5 C 0.17936(15) 0.1974(2) 0.8639(4)
H6 H 0.1785 0.2239 0.9380
C6 C 0.25324(15) 0.5984(2) 1.3654(3)
H7 H 0.2637 0.6247 1.4352
C7 C 0.21286(15) 0.2394(2) 0.4467(4)
H8 H 0.2141 0.2162 0.3640
C8 C 0.06364(15) 0.4249(2) 0.9999(4)
H9 H 0.0417 0.4308 0.9306
C9 C 0.11056(17) 0.3490(2) 1.1416(4)
H10 H 0.1204 0.3036 1.1675
C10 C 0.06023(13) 0.29264(19) 0.9641(3)
C11 C 0.07293(16) 0.1986(2) 0.5279(4)
H11 H 0.0481 0.1643 0.5073
C12 C 0.08208(15) 0.4839(2) 1.0645(4)
H12 H 0.0724 0.5295 1.0394
C13 C 0.22156(17) 0.5206(2) 1.1584(4)
H13 H 0.2108 0.4948 1.0882
C14 C 0.09649(14) 0.2972(2) 0.6385(4)
H14 H 0.0880 0.3329 0.6956
C15 C 0.21950(15) 0.1752(2) 0.6647(4)
C16 C 0.20041(16) 0.5835(2) 1.3488(4)
H15 H 0.1758 0.5995 1.4068
C17 C 0.24841(15) 0.1976(2) 0.5472(4)
H16 H 0.2650 0.1563 0.5075
C18 C 0.11482(16) 0.4745(2) 1.1662(4)
C19 C 0.27396(16) 0.5355(2) 1.1769(4)
H17 H 0.2984 0.5187 1.1193
C20 C 0.07789(14) 0.3567(2) 1.0386(4)
C21 C 0.12888(19) 0.4075(2) 1.2068(4)
H18 H 0.1504 0.4018 1.2769
C22 C 0.14356(14) 0.30172(19) 0.5751(4)
H19 H 0.1661 0.3395 0.5909
C23 C 0.14925(15) 0.1046(2) 0.7462(4)
H20 H 0.1265 0.0665 0.7358
C24 C 0.11900(16) 0.2005(2) 0.4605(4)
H21 H 0.1245 0.1681 0.3956
C25 C 0.18518(15) 0.5445(2) 1.2451(4)
C26 C 0.18628(16) 0.1168(2) 0.6554(4)
H22 H 0.1892 0.0860 0.5872
O9 O 0.03355(10) 0.04218(14) 0.6707(2)
O1A O -0.03107(9) 0.13648(12) 0.6704(2)
O9A O -0.03355(10) 0.04218(14) 0.8293(2)
N1F N 0.43757(11) 0.25610(15) 0.3782(3)
N2F N 0.35550(11) 0.35491(16) 0.1510(3)
C3F C 0.34281(15) 0.24971(19) 0.5116(4)
C4F C 0.28352(15) 0.2860(2) 0.2252(4)
H5F H 0.2604 0.2485 0.2111
C5F C 0.32064(15) 0.3026(2) 0.1361(4)
H6F H 0.3215 0.2761 0.0620
C7F C 0.28714(15) 0.2606(2) 0.5533(4)
H8F H 0.2859 0.2838 0.6360
C11F C 0.42707(16) 0.3014(2) 0.4721(4)
H11F H 0.4519 0.3357 0.4927
C14F C 0.40351(14) 0.2028(2) 0.3615(4)
H14F H 0.4120 0.1671 0.3044
C15F C 0.28050(15) 0.3248(2) 0.3353(4)
C17F C 0.25159(15) 0.3024(2) 0.4528(4)
H16F H 0.2350 0.3437 0.4925
C22F C 0.35644(14) 0.19828(19) 0.4249(4)
H19F H 0.3339 0.1605 0.4091
C23F C 0.35075(15) 0.3954(2) 0.2538(4)
H20F H 0.3735 0.4335 0.2642
C24F C 0.38100(16) 0.2995(2) 0.5395(4)
H21F H 0.3755 0.3319 0.6044
C26F C 0.31372(16) 0.3832(2) 0.3446(4)
H22F H 0.3108 0.4140 0.4128
Ni2A Ni -0.085000(17) 0.12877(2) 0.52295(4)
O2A O -0.35659(10) 0.63351(14) 0.1076(2)
O3A O -0.02963(10) 0.10774(14) 0.3838(2)
H1A H -0.0470 0.0974 0.3179
H2A H -0.0143 0.0697 0.4066
O4A O -0.09360(10) 0.01770(13) 0.5323(2)
H3A H -0.0946 0.0026 0.6078
H4A H -0.0699 -0.0040 0.4914
O5A O -0.38178(10) 0.56473(14) 0.2668(2)
O6A O -0.03570(9) 0.30469(13) 0.6354(2)
O7A O -0.07273(11) 0.23365(14) 0.4897(3)
O8A O -0.13194(11) 0.53496(15) 0.2693(3)
C1A C -0.34736(15) 0.59168(19) 0.1972(3)
C2A C -0.29082(14) 0.57499(19) 0.2199(3)
C6A C -0.25324(15) 0.5984(2) 0.1346(3)
H7A H -0.2637 0.6247 0.0648
C8A C -0.06364(15) 0.4249(2) 0.5001(4)
H9A H -0.0417 0.4308 0.5694
C9A C -0.11056(17) 0.3490(2) 0.3584(4)
H10A H -0.1204 0.3036 0.3325
C10A C -0.06023(13) 0.29264(19) 0.5359(3)
C12A C -0.08208(15) 0.4839(2) 0.4355(4)
H12A H -0.0724 0.5295 0.4606
C13A C -0.22156(17) 0.5206(2) 0.3416(4)
H13A H -0.2108 0.4948 0.4118
C16A C -0.20041(16) 0.5835(2) 0.1512(4)
H15A H -0.1758 0.5995 0.0932
C18A C -0.11482(16) 0.4745(2) 0.3338(4)
C19A C -0.27396(16) 0.5355(2) 0.3231(4)
H17A H -0.2984 0.5187 0.3807
C20A C -0.07789(14) 0.3567(2) 0.4614(4)
C21A C -0.12888(19) 0.4075(2) 0.2932(4)
H18A H -0.1504 0.4018 0.2231
C25A C -0.18518(15) 0.5445(2) 0.2549(4)
Ni1F Ni 0.5000 0.26552(3) 0.2500
Ni2B Ni -0.415000(17) 0.62877(2) -0.02295(4)
Ni2C Ni 0.415000(17) 0.62877(2) 1.52295(4)
Ni2F Ni 0.415000(17) 0.37123(2) 0.02295(4)
N1A N -0.06243(11) 0.24390(15) 0.8782(3)
O2B O -0.14341(10) 0.13351(14) 0.3924(2)
O2C O 0.14341(10) 0.13351(14) 1.1076(2)
N2A N -0.14450(11) 0.14509(16) 0.6510(3)
O10 O 0.0000 0.2385(7) 0.2500
H23 H 0.0127 0.2118 0.1930
H23A H -0.0127 0.2118 0.3070
H24? H 0.0127 0.2118 0.1930
loop_
_geom_bond_atom_site_label_1
_geom_bond_atom_site_label_2
_geom_bond_site_symmetry_1
_geom_bond_site_symmetry_2
Ni1 O1 1_555 1_555
Ni2 O1 1_555 1_555
S1 O1 1_555 1_555
N1 Ni1 1_555 1_555
O2 C1 1_555 1_555
O3 Ni2 1_555 1_555
H1 O3 1_555 1_555
H2 O3 1_555 1_555
O4 Ni2 1_555 1_555
H3 O4 1_555 1_555
H4 O4 1_555 1_555
O5 C1 1_555 1_555
O6 Ni1 1_555 1_555
O7 Ni2 1_555 1_555
O8 C18 1_555 1_555
N2 Ni2 1_555 1_555
C1 C2 1_555 1_555
C2 C6 1_555 1_555
C3 C7 1_555 1_555
C4 H5 1_555 1_555
C5 N2 1_555 1_555
H6 C5 1_555 1_555
C6 H7 1_555 1_555
C7 H8 1_555 1_555
C8 H9 1_555 1_555
C9 H10 1_555 1_555
C10 O6 1_555 1_555
C11 N1 1_555 1_555
H11 C11 1_555 1_555
C12 C8 1_555 1_555
H12 C12 1_555 1_555
C13 H13 1_555 1_555
C14 N1 1_555 1_555
H14 C14 1_555 1_555
C15 C4 1_555 1_555
C16 C6 1_555 1_555
H15 C16 1_555 1_555
C17 C7 1_555 1_555
H16 C17 1_555 1_555
C18 C12 1_555 1_555
C19 C2 1_555 1_555
H17 C19 1_555 1_555
C20 C8 1_555 1_555
C21 C9 1_555 1_555
H18 C21 1_555 1_555
C22 C3 1_555 1_555
H19 C22 1_555 1_555
C23 N2 1_555 1_555
H20 C23 1_555 1_555
C24 C3 1_555 1_555
H21 C24 1_555 1_555
C25 O8 1_555 1_555
C26 C15 1_555 1_555
H22 C26 1_555 1_555
O9 S1 1_555 1_555
O10 H23 1_555 1_555
O1A Ni1 1_555 1_555
O9A S1 1_555 1_555
N1F C11F 1_555 1_555
N2F C5F 1_555 1_555
C3F C7F 1_555 1_555
C4F H5F 1_555 1_555
C5F C4F 1_555 1_555
H6F C5F 1_555 1_555
C7F C17 1_555 1_555
H8F C7F 1_555 1_555
C11F H11F 1_555 1_555
C14F N1F 1_555 1_555
H14F C14F 1_555 1_555
C15F C4F 1_555 1_555
C17F C7 1_555 1_555
H16F C17F 1_555 1_555
C22F C3F 1_555 1_555
H19F C22F 1_555 1_555
C23F N2F 1_555 1_555
H20F C23F 1_555 1_555
C24F C3F 1_555 1_555
H21F C24F 1_555 1_555
C26F C15F 1_555 1_555
H22F C26F 1_555 1_555
Ni2A O1A 1_555 1_555
O2A C1A 1_555 1_555
O3A Ni2A 1_555 1_555
H1A O3A 1_555 1_555
H2A O3A 1_555 1_555
O4A Ni2A 1_555 1_555
H3A O4A 1_555 1_555
H4A O4A 1_555 1_555
O5A C1A 1_555 1_555
O6A Ni1 1_555 1_555
O7A Ni2A 1_555 1_555
O8A C18A 1_555 1_555
C1A C2A 1_555 1_555
C2A C6A 1_555 1_555
C6A H7A 1_555 1_555
C8A H9A 1_555 1_555
C9A H10A 1_555 1_555
C10A O6A 1_555 1_555
C12A C8A 1_555 1_555
H12A C12A 1_555 1_555
C13A H13A 1_555 1_555
C16A C6A 1_555 1_555
H15A C16A 1_555 1_555
C18A C12A 1_555 1_555
C19A C2A 1_555 1_555
H17A C19A 1_555 1_555
C20A C8A 1_555 1_555
C21A C9A 1_555 1_555
H18A C21A 1_555 1_555
C25A O8A 1_555 1_555
Ni1F N1F 1_555 1_555
Ni2B O2A 1_555 1_555
Ni2C O2 1_555 1_555
Ni2F N2F 1_555 1_555
N1A Ni1 1_555 1_555
O2B Ni2A 1_555 1_555
O2C Ni2 1_555 1_555
N2A Ni2A 1_555 1_555
H23A O10 1_555 1_555
S1 O1A 1_555 1_555
O7 C10 1_555 1_555
C4 C5 1_555 1_555
C9 C20 1_555 1_555
C10 C20 1_555 1_555
C11 C24 1_555 1_555
C13 C19 1_555 1_555
C13 C25 1_555 1_555
C14 C22 1_555 1_555
C15 C17 1_555 1_555
C16 C25 1_555 1_555
C18 C21 1_555 1_555
C23 C26 1_555 1_555
C7F C17F 1_555 1_555
C11F C24F 1_555 1_555
C14F C22F 1_555 1_555
C15F C17F 1_555 1_555
C23F C26F 1_555 1_555
O7A C10A 1_555 1_555
C9A C20A 1_555 1_555
C10A C20A 1_555 1_555
C13A C19A 1_555 1_555
C13A C25A 1_555 1_555
C16A C25A 1_555 1_555
C18A C21A 1_555 1_555

#END
