
#######################################################################
#
#                 Cambridge Crystallographic Data Centre
#                                CCDC 
#
#######################################################################
#
# If this CIF has been generated from an entry in the Cambridge 
# Structural Database, then it will include bibliographic, chemical, 
# crystal, experimental, refinement or atomic coordinate data resulting 
# from the CCDC's data processing and validation procedures.
#
#######################################################################

data_FOMNUS
_symmetry_cell_setting           monoclinic
_symmetry_space_group_name_H-M   'P 21/c'
_symmetry_Int_Tables_number      14
_space_group_name_Hall           '-P 2ybc'
loop_
_symmetry_equiv_pos_site_id
_symmetry_equiv_pos_as_xyz
1 x,y,z
2 -x,1/2+y,1/2-z
3 -x,-y,-z
4 x,1/2-y,1/2+z
_cell_length_a                   15.853(3)
_cell_length_b                   10.0376(18)
_cell_length_c                   16.700(3)
_cell_angle_alpha                90
_cell_angle_beta                 98.974(3)
_cell_angle_gamma                90
_cell_volume                     2624.88
loop_
_atom_site_label
_atom_site_type_symbol
_atom_site_fract_x
_atom_site_fract_y
_atom_site_fract_z
Sn1 Sn 0.04397(3) 0.16841(5) 0.27827(4)
O1 O -0.0408(3) -0.0205(4) 0.2409(4)
C1 C -0.1128(4) -0.0493(7) 0.2017(5)
O2 O -0.1359(3) -0.1676(4) 0.1861(4)
C2 C -0.1753(4) 0.0596(6) 0.1718(5)
H1 H -0.1554 0.1064 0.1260
H2 H -0.1769 0.1251 0.2158
C3 C -0.2653(4) 0.0065(7) 0.1440(4)
H3 H -0.3029 0.0801 0.1207
H4 H -0.2640 -0.0615 0.1012
C4 C -0.3010(4) -0.0550(6) 0.2150(4)
O3 O -0.2808(3) -0.0155(5) 0.2848(3)
N1 N -0.3580(3) -0.1548(5) 0.1948(3)
H5 H -0.3710 -0.1733 0.1428
C5 C -0.3990(4) -0.2322(6) 0.2479(4)
C6 C -0.3777(4) -0.2314(7) 0.3315(4)
H6 H -0.3346 -0.1733 0.3576
C7 C -0.4200(4) -0.3162(7) 0.3760(4)
C8 C -0.4830(4) -0.4013(7) 0.3433(4)
H7 H -0.5098 -0.4596 0.3765
C9 C -0.5067(4) -0.3996(7) 0.2599(4)
H8 H -0.5513 -0.4561 0.2351
C10 C -0.4658(4) -0.3162(7) 0.2126(4)
N2 N -0.3964(4) -0.3124(8) 0.4648(4)
O4 O -0.3526(4) -0.2214(7) 0.4963(3)
O5 O -0.4217(4) -0.4018(7) 0.5049(3)
O6 O -0.4841(3) -0.3070(5) 0.1302(3)
C11 C -0.5496(6) -0.3931(11) 0.0891(5)
H9 H -0.5334 -0.4863 0.1003
H10 H -0.5564 -0.3768 0.0306
H11 H -0.6037 -0.3748 0.1086
C12 C 0.1339(5) 0.0327(9) 0.3428(8)
H12 H 0.1403 0.0569 0.4009
H13 H 0.1076 -0.0570 0.3374
C13 C 0.2164(5) 0.0208(11) 0.3229(7)
H14 H 0.2433 0.1100 0.3288
H15 H 0.2104 -0.0032 0.2648
C14 C 0.2785(5) -0.0775(10) 0.3697(7)
H16 H 0.3054 -0.0348 0.4208
H17 H 0.2459 -0.1556 0.3843
C15 C 0.3431(8) -0.1223(13) 0.3278(11)
H18 H 0.3180 -0.1480 0.2726
H19 H 0.3717 -0.1995 0.3560
H20 H 0.3847 -0.0508 0.3256
C16 C -0.0477(5) 0.2431(8) 0.3461(5)
H21 H -0.0213 0.3175 0.3801
H22 H -0.0957 0.2807 0.3077
C17 C -0.0840(7) 0.1450(11) 0.4006(6)
H23 H -0.0360 0.0998 0.4352
H24 H -0.1167 0.0762 0.3664
C18 C -0.1419(12) 0.2071(17) 0.4550(8)
H25 H -0.1546 0.1394 0.4947
H26 H -0.1110 0.2812 0.4859
C19 C -0.2211(9) 0.2570(19) 0.4122(10)
H27 H -0.2099 0.3346 0.3798
H28 H -0.2584 0.2831 0.4511
H29 H -0.2491 0.1875 0.3763
C20 C 0.0427(6) 0.1972(8) 0.1547(6)
H30 H 0.0253 0.1127 0.1262
H31 H -0.0013 0.2647 0.1354
C21 C 0.1269(11) 0.2417(18) 0.1308(12)
H32 H 0.1379 0.3326 0.1530
H33 H 0.1716 0.1837 0.1608
C22 C 0.1420(11) 0.246(2) 0.0532(10)
H34 H 0.1976 0.2892 0.0504
H35 H 0.0965 0.2965 0.0188
C23 C 0.1430(12) 0.1099(18) 0.0266(10)
H36 H 0.2013 0.0747 0.0389
H37 H 0.1236 0.1057 -0.0320
H38 H 0.1050 0.0566 0.0547
Sn1A Sn -0.04397(3) -0.33159(5) 0.22173(4)
O2A O 0.1359(3) 0.3324(4) 0.3139(4)
loop_
_geom_bond_atom_site_label_1
_geom_bond_atom_site_label_2
_geom_bond_site_symmetry_1
_geom_bond_site_symmetry_2
Sn1 O1 1_555 1_555
O1 C1 1_555 1_555
C1 O2 1_555 1_555
O2 Sn1A 1_555 1_555
C2 C1 1_555 1_555
H1 C2 1_555 1_555
H2 C2 1_555 1_555
C3 C2 1_555 1_555
H3 C3 1_555 1_555
H4 C3 1_555 1_555
C4 C3 1_555 1_555
O3 C4 1_555 1_555
N1 C4 1_555 1_555
H5 N1 1_555 1_555
C5 N1 1_555 1_555
C6 C5 1_555 1_555
H6 C6 1_555 1_555
C7 C6 1_555 1_555
C8 C7 1_555 1_555
H7 C8 1_555 1_555
C9 C8 1_555 1_555
H8 C9 1_555 1_555
C10 C5 1_555 1_555
N2 C7 1_555 1_555
O4 N2 1_555 1_555
O5 N2 1_555 1_555
O6 C10 1_555 1_555
C11 O6 1_555 1_555
H9 C11 1_555 1_555
H10 C11 1_555 1_555
H11 C11 1_555 1_555
C12 Sn1 1_555 1_555
H12 C12 1_555 1_555
H13 C12 1_555 1_555
C13 C12 1_555 1_555
H14 C13 1_555 1_555
H15 C13 1_555 1_555
C14 C13 1_555 1_555
H16 C14 1_555 1_555
H17 C14 1_555 1_555
C15 C14 1_555 1_555
H18 C15 1_555 1_555
H19 C15 1_555 1_555
H20 C15 1_555 1_555
C16 Sn1 1_555 1_555
H21 C16 1_555 1_555
H22 C16 1_555 1_555
C17 C16 1_555 1_555
H23 C17 1_555 1_555
H24 C17 1_555 1_555
C18 C17 1_555 1_555
H25 C18 1_555 1_555
H26 C18 1_555 1_555
C19 C18 1_555 1_555
H27 C19 1_555 1_555
H28 C19 1_555 1_555
H29 C19 1_555 1_555
C20 Sn1 1_555 1_555
H30 C20 1_555 1_555
H31 C20 1_555 1_555
C21 C20 1_555 1_555
H32 C21 1_555 1_555
H33 C21 1_555 1_555
C22 C21 1_555 1_555
H34 C22 1_555 1_555
H35 C22 1_555 1_555
C23 C22 1_555 1_555
H36 C23 1_555 1_555
H37 C23 1_555 1_555
H38 C23 1_555 1_555
O2A Sn1 1_555 1_555
C9 C10 1_555 1_555

#END
