
#######################################################################
#
#                 Cambridge Crystallographic Data Centre
#                                CCDC 
#
#######################################################################
#
# If this CIF has been generated from an entry in the Cambridge 
# Structural Database, then it will include bibliographic, chemical, 
# crystal, experimental, refinement or atomic coordinate data resulting 
# from the CCDC's data processing and validation procedures.
#
#######################################################################

data_FOMNIG12
_symmetry_cell_setting           monoclinic
_symmetry_space_group_name_H-M   'C 2/c'
_symmetry_Int_Tables_number      15
_space_group_name_Hall           '-C 2yn'
loop_
_symmetry_equiv_pos_site_id
_symmetry_equiv_pos_as_xyz
1 x,y,z
2 -x,y,1/2-z
3 1/2+x,1/2+y,z
4 1/2-x,1/2+y,1/2-z
5 -x,-y,-z
6 x,-y,1/2+z
7 1/2-x,1/2-y,-z
8 1/2+x,1/2-y,1/2+z
_cell_length_a                   25.584(5)
_cell_length_b                   18.933(4)
_cell_length_c                   10.650(2)
_cell_angle_alpha                90
_cell_angle_beta                 90.10(3)
_cell_angle_gamma                90
_cell_volume                     5158.66
loop_
_atom_site_label
_atom_site_type_symbol
_atom_site_fract_x
_atom_site_fract_y
_atom_site_fract_z
Ni1 Ni 0.5000 0.23392(3) 0.2500
O1 O 0.46873(10) 0.13655(13) 0.1712(2)
N1 N 0.43756(12) 0.24344(16) 0.3786(3)
O2 O 0.53597(11) 0.30316(14) 0.3643(3)
Ni2 Ni 0.414599(19) 0.12862(2) 0.02456(5)
S1 S 0.5000 0.08562(7) 0.2500
C1 C 0.42646(17) 0.1982(2) 0.4706(4)
C2 C 0.40378(17) 0.2971(2) 0.3633(4)
C3 C 0.56157(15) 0.2916(2) 0.4630(4)
O3 O 0.47010(11) 0.10855(15) -0.1140(3)
O4 O 0.40767(12) 0.01793(14) 0.0341(3)
O5 O 0.35632(11) 0.13207(15) -0.1059(3)
N2 N 0.35485(12) 0.14434(17) 0.1526(3)
O6 O 0.42618(13) 0.23332(15) -0.0080(3)
O7 O 0.46662(11) 0.04286(15) 0.3290(3)
H1 H 0.4510 0.1637 0.4905
C4 C 0.38067(19) 0.2001(3) 0.5373(4)
C5 C 0.35702(17) 0.3013(2) 0.4255(4)
H2 H 0.4125 0.3331 0.3078
C6 C 0.57950(16) 0.3557(2) 0.5344(4)
H3 H 0.4529 0.0985 -0.1799
H4 H 0.4855 0.0708 -0.0917
H5 H 0.4070 0.0029 0.1093
H6 H 0.4315 -0.0031 -0.0070
C7 C 0.34973(17) 0.1045(2) 0.2542(4)
C8 C 0.32009(17) 0.1964(2) 0.1371(4)
H7 H 0.3750 0.1674 0.6011
C9 C 0.34269(17) 0.2503(2) 0.5105(4)
H8 H 0.3348 0.3392 0.4101
C10 C 0.56467(18) 0.4230(2) 0.4970(5)
C11 C 0.6128(2) 0.3488(2) 0.6368(5)
C12 C 0.31273(18) 0.1170(2) 0.3445(5)
H9 H 0.3722 0.0664 0.2647
H10 H 0.3208 0.2222 0.0628
C13 C 0.28325(17) 0.2134(2) 0.2267(4)
C14 C 0.28730(17) 0.2395(2) 0.5521(4)
H11 H 0.5421 0.4285 0.4291
C15 C 0.58318(19) 0.4819(2) 0.5599(5)
C16 C 0.6314(2) 0.4070(3) 0.7004(5)
H12 H 0.6227 0.3039 0.6631
C17 C 0.28016(16) 0.1749(2) 0.3358(4)
H13 H 0.3096 0.0863 0.4122
H14 H 0.2605 0.2510 0.2132
H15 H 0.2860 0.2157 0.6224
C18 C 0.25155(17) 0.1976(2) 0.4530(5)
C19 C 0.61638(19) 0.4734(2) 0.6606(5)
H16 H 0.5732 0.5269 0.5343
H17 H 0.6537 0.4017 0.7688
H18 H 0.2377 0.1541 0.4894
O8 O 0.63311(13) 0.53380(17) 0.7234(4)
C20 C 0.68600(19) 0.5441(2) 0.7403(5)
C21 C 0.70082(18) 0.5829(2) 0.8432(4)
C22 C 0.7230(2) 0.5206(2) 0.6550(5)
H19 H 0.6760 0.5989 0.9001
C23 C 0.75319(17) 0.5979(2) 0.8613(4)
C24 C 0.77538(19) 0.5361(2) 0.6744(4)
H20 H 0.7127 0.4946 0.5851
C25 C 0.79111(17) 0.5749(2) 0.7778(4)
H21 H 0.7632 0.6240 0.9313
H22 H 0.8002 0.5203 0.6173
C26 C 0.84745(17) 0.5913(2) 0.8035(4)
O9 O 0.88245(12) 0.56548(15) 0.7347(3)
O1A O 0.53127(10) 0.13655(13) 0.3288(2)
O2A O 0.46403(11) 0.30316(14) 0.1357(3)
N1A N 0.56244(12) 0.24344(16) 0.1214(3)
Ni2A Ni 0.585401(19) 0.12862(2) 0.47544(5)
C3A C 0.43843(15) 0.2916(2) 0.0370(4)
O7A O 0.53338(11) 0.04286(15) 0.1710(3)
O3A O 0.52990(11) 0.10855(15) 0.6140(3)
O4A O 0.59233(12) 0.01793(14) 0.4659(3)
O5A O 0.64368(11) 0.13207(15) 0.6059(3)
O6A O 0.57382(13) 0.23332(15) 0.5080(3)
N2A N 0.64515(12) 0.14434(17) 0.3474(3)
C6A C 0.42050(16) 0.3557(2) -0.0344(4)
H3A H 0.5471 0.0985 0.6799
H4A H 0.5145 0.0708 0.5917
H5A H 0.5930 0.0029 0.3907
H6A H 0.5685 -0.0031 0.5070
C10A C 0.43533(18) 0.4230(2) 0.0030(5)
C11A C 0.3872(2) 0.3488(2) -0.1368(5)
H11A H 0.4579 0.4285 0.0709
C15A C 0.41682(19) 0.4819(2) -0.0599(5)
C16A C 0.3686(2) 0.4070(3) -0.2004(5)
H12A H 0.3773 0.3039 -0.1631
C18F C 0.24845(17) 0.3024(2) 0.5470(5)
C19A C 0.38362(19) 0.4734(2) -0.1606(5)
H16A H 0.4268 0.5269 -0.0343
H17A H 0.3463 0.4017 -0.2688
C14F C 0.21270(17) 0.2605(2) 0.4479(4)
H18F H 0.2623 0.3459 0.5106
C17F C 0.21984(16) 0.3251(2) 0.6642(4)
O8A O 0.36689(13) 0.53380(17) -0.2234(4)
C9F C 0.15731(17) 0.2497(2) 0.4895(4)
H15F H 0.2140 0.2843 0.3776
C12F C 0.18727(18) 0.3830(2) 0.6555(5)
C13F C 0.21675(17) 0.2866(2) 0.7733(4)
C20A C 0.31400(19) 0.5441(2) -0.2403(5)
C4F C 0.11933(19) 0.2999(3) 0.4627(4)
C5F C 0.14298(17) 0.1987(2) 0.5745(4)
H13F H 0.1904 0.4137 0.5878
C7F C 0.15027(17) 0.3955(2) 0.7458(4)
C8F C 0.17991(17) 0.3036(2) 0.8629(4)
H14F H 0.2395 0.2490 0.7868
C21A C 0.29918(18) 0.5829(2) -0.3432(4)
C22A C 0.2770(2) 0.5206(2) -0.1550(5)
C1F C 0.07354(17) 0.3018(2) 0.5294(4)
H7F H 0.1250 0.3326 0.3989
H8F H 0.1652 0.1608 0.5899
C2F C 0.09622(17) 0.2029(2) 0.6367(4)
H9F H 0.1278 0.4336 0.7353
N2F N 0.14515(12) 0.35566(17) 0.8474(3)
H10F H 0.1792 0.2778 0.9372
H19A H 0.3240 0.5989 -0.4001
C23A C 0.24681(17) 0.5979(2) -0.3613(4)
C24A C 0.22462(19) 0.5361(2) -0.1744(4)
H20A H 0.2873 0.4946 -0.0851
H1F H 0.0490 0.3363 0.5095
N1F N 0.06244(12) 0.25656(16) 0.6214(3)
H2F H 0.0875 0.1669 0.6922
Ni2F Ni 0.085401(19) 0.37138(2) 0.97544(5)
C25A C 0.20889(17) 0.5749(2) -0.2778(4)
H21A H 0.2368 0.6240 -0.4313
H22A H 0.1998 0.5203 -0.1173
Ni1F Ni 0.0000 0.26608(3) 0.7500
C26A C 0.15255(17) 0.5913(2) -0.3035(4)
O5B O 0.85632(11) 0.63207(15) 0.8941(3)
O5C O 0.14368(11) 0.63207(15) -0.3941(3)
O9A O 0.11755(12) 0.56548(15) -0.2347(3)
Ni2B Ni 0.914599(19) 0.62862(2) 1.02456(5)
Ni2C Ni 0.085401(19) 0.62862(2) -0.52456(5)
O10 O 0.5000 0.2372(5) 0.7500
H23 H 0.4874 0.2107 0.8069
H23A H 0.5126 0.2107 0.6931
H24? H 0.4874 0.2107 0.8069
loop_
_geom_bond_atom_site_label_1
_geom_bond_atom_site_label_2
_geom_bond_site_symmetry_1
_geom_bond_site_symmetry_2
Ni1 O1 1_555 1_555
O1 Ni2 1_555 1_555
N1 Ni1 1_555 1_555
O2 Ni1 1_555 1_555
Ni2 O3 1_555 1_555
S1 O1 1_555 1_555
C1 N1 1_555 1_555
C2 N1 1_555 1_555
C3 O2 1_555 1_555
O3 H3 1_555 1_555
O4 Ni2 1_555 1_555
O5 Ni2 1_555 1_555
N2 Ni2 1_555 1_555
O6 Ni2 1_555 1_555
O7 S1 1_555 1_555
H1 C1 1_555 1_555
C4 C1 1_555 1_555
C5 C2 1_555 1_555
H2 C2 1_555 1_555
C6 C3 1_555 1_555
H4 O3 1_555 1_555
H5 O4 1_555 1_555
H6 O4 1_555 1_555
C7 N2 1_555 1_555
C8 N2 1_555 1_555
H7 C4 1_555 1_555
C9 C4 1_555 1_555
H8 C5 1_555 1_555
C10 C6 1_555 1_555
C11 C6 1_555 1_555
C12 C7 1_555 1_555
H9 C7 1_555 1_555
H10 C8 1_555 1_555
C13 C8 1_555 1_555
C14 C9 1_555 1_555
H11 C10 1_555 1_555
C15 C10 1_555 1_555
C16 C11 1_555 1_555
H12 C11 1_555 1_555
C17 C12 1_555 1_555
H13 C12 1_555 1_555
H14 C13 1_555 1_555
H15 C14 1_555 1_555
C18 C14 1_555 1_555
C19 C15 1_555 1_555
H16 C15 1_555 1_555
H17 C16 1_555 1_555
H18 C18 1_555 1_555
O8 C19 1_555 1_555
C20 O8 1_555 1_555
C21 C20 1_555 1_555
C22 C20 1_555 1_555
H19 C21 1_555 1_555
C23 C21 1_555 1_555
C24 C22 1_555 1_555
H20 C22 1_555 1_555
C25 C23 1_555 1_555
H21 C23 1_555 1_555
H22 C24 1_555 1_555
C26 C25 1_555 1_555
O9 C26 1_555 1_555
O10 H23 1_555 1_555
O1A Ni1 1_555 1_555
O2A Ni1 1_555 1_555
N1A Ni1 1_555 1_555
Ni2A O1A 1_555 1_555
C3A O6 1_555 1_555
O7A S1 1_555 1_555
O3A Ni2A 1_555 1_555
O4A Ni2A 1_555 1_555
O5A Ni2A 1_555 1_555
O6A C3 1_555 1_555
N2A Ni2A 1_555 1_555
C6A C3A 1_555 1_555
H3A O3A 1_555 1_555
H4A O3A 1_555 1_555
H5A O4A 1_555 1_555
H6A O4A 1_555 1_555
C10A C6A 1_555 1_555
C11A C6A 1_555 1_555
H11A C10A 1_555 1_555
C15A C10A 1_555 1_555
C16A C11A 1_555 1_555
H12A C11A 1_555 1_555
C18F C14 1_555 1_555
C19A C15A 1_555 1_555
H16A C15A 1_555 1_555
H17A C16A 1_555 1_555
C14F C18 1_555 1_555
H18F C18F 1_555 1_555
C17F C18F 1_555 1_555
O8A C19A 1_555 1_555
C9F C14F 1_555 1_555
H15F C14F 1_555 1_555
C12F C17F 1_555 1_555
C13F C17F 1_555 1_555
C20A O8A 1_555 1_555
C4F C9F 1_555 1_555
C5F C9F 1_555 1_555
H13F C12F 1_555 1_555
C7F C12F 1_555 1_555
C8F C13F 1_555 1_555
H14F C13F 1_555 1_555
C21A C20A 1_555 1_555
C22A C20A 1_555 1_555
C1F C4F 1_555 1_555
H7F C4F 1_555 1_555
H8F C5F 1_555 1_555
C2F C5F 1_555 1_555
H9F C7F 1_555 1_555
N2F C7F 1_555 1_555
H10F C8F 1_555 1_555
H19A C21A 1_555 1_555
C23A C21A 1_555 1_555
C24A C22A 1_555 1_555
H20A C22A 1_555 1_555
H1F C1F 1_555 1_555
N1F C1F 1_555 1_555
H2F C2F 1_555 1_555
Ni2F N2F 1_555 1_555
C25A C23A 1_555 1_555
H21A C23A 1_555 1_555
H22A C24A 1_555 1_555
Ni1F N1F 1_555 1_555
C26A C25A 1_555 1_555
O5B C26 1_555 1_555
O5C C26A 1_555 1_555
O9A C26A 1_555 1_555
Ni2B O5B 1_555 1_555
Ni2C O5C 1_555 1_555
H23A O10 1_555 1_555
S1 O1A 1_555 1_555
C5 C9 1_555 1_555
C13 C17 1_555 1_555
C16 C19 1_555 1_555
C17 C18 1_555 1_555
C24 C25 1_555 1_555
O2A C3A 1_555 1_555
Ni2A O6A 1_555 1_555
C16A C19A 1_555 1_555
C18F C14F 1_555 1_555
C8F N2F 1_555 1_555
C2F N1F 1_555 1_555
C24A C25A 1_555 1_555

#END
