
#######################################################################
#
#                 Cambridge Crystallographic Data Centre
#                                CCDC 
#
#######################################################################
#
# If this CIF has been generated from an entry in the Cambridge 
# Structural Database, then it will include bibliographic, chemical, 
# crystal, experimental, refinement or atomic coordinate data resulting 
# from the CCDC's data processing and validation procedures.
#
#######################################################################

data_FOMSOQ
_symmetry_cell_setting           orthorhombic
_symmetry_space_group_name_H-M   'P n m a'
_symmetry_Int_Tables_number      62
_space_group_name_Hall           '-P 2ac 2n'
loop_
_symmetry_equiv_pos_site_id
_symmetry_equiv_pos_as_xyz
1 x,y,z
2 1/2-x,-y,1/2+z
3 -x,1/2+y,-z
4 1/2+x,1/2-y,1/2-z
5 -x,-y,-z
6 1/2+x,y,1/2-z
7 x,1/2-y,z
8 1/2-x,1/2+y,1/2+z
_cell_length_a                   13.3944(5)
_cell_length_b                   13.6063(6)
_cell_length_c                   26.3540(10)
_cell_angle_alpha                90
_cell_angle_beta                 90
_cell_angle_gamma                90
_cell_volume                     4802.97
loop_
_atom_site_label
_atom_site_type_symbol
_atom_site_fract_x
_atom_site_fract_y
_atom_site_fract_z
Zn1 Zn 0.08381(3) -0.2500 -0.412450(10)
K1 K 0.47198(7) -0.2500 -0.44954(3)
Cl1 Cl 0.21954(6) -0.2500 -0.46795(3)
O1 O -0.5426(2) -0.2500 -0.34850(10)
O2 O -0.1147(2) -0.2500 -0.26980(10)
O3 O -0.50170(10) -0.43780(10) -0.41319(7)
O4 O -0.07340(10) -0.4341(2) -0.33954(8)
O5 O -0.42700(10) -0.36120(10) -0.51937(7)
O6 O 0.00780(10) -0.36880(10) -0.45218(7)
O7 O -0.0527(2) -0.2500 -0.37390(10)
O8 O 0.12990(10) -0.36450(10) -0.36560(10)
O9 O 0.7034(5) -0.2500 -0.4108(3)
N1 N -0.2647(2) -0.3316(3) -0.26120(10)
N2 N -0.4343(2) -0.3314(2) -0.29530(10)
N3 N -0.4076(2) -0.4799(2) -0.34330(10)
N4 N -0.2335(2) -0.4730(2) -0.31440(10)
N5 N -0.3550(2) -0.5251(2) -0.41930(10)
N6 N -0.1821(2) -0.5203(2) -0.39070(10)
N7 N -0.29790(10) -0.4670(2) -0.50060(10)
N8 N -0.12330(10) -0.4691(2) -0.47330(10)
N9 N -0.26740(10) -0.3382(2) -0.54940(10)
N10 N -0.09310(10) -0.3392(2) -0.52130(10)
C1 C -0.4778(3) -0.2500 -0.31630(10)
C2 C -0.4676(2) -0.4292(3) -0.30590(10)
C3 C -0.3690(2) -0.3059(3) -0.25350(10)
C4 C -0.2272(2) -0.4294(3) -0.26430(10)
C5 C -0.2060(3) -0.2500 -0.26480(10)
C6 C -0.3156(2) -0.5331(2) -0.33300(10)
C7 C -0.4287(2) -0.4766(2) -0.39390(10)
C8 C -0.2803(2) -0.5654(2) -0.38600(10)
C9 C -0.1551(2) -0.4722(2) -0.34760(10)
C10 C -0.3560(2) -0.5390(2) -0.47350(10)
C11 C -0.3396(2) -0.3862(2) -0.52250(10)
C12 C -0.1944(2) -0.4797(2) -0.51490(10)
C13 C -0.1143(2) -0.5381(2) -0.43160(10)
C14 C -0.0639(2) -0.3890(2) -0.47940(10)
C15 C -0.0454(2) -0.2500 -0.53860(10)
C16 C -0.1731(2) -0.3894(2) -0.54840(10)
C17 C -0.2863(3) -0.2500 -0.57770(10)
H1 H -0.064(3) -0.3010(10) -0.3560(10)
H2 H 0.088(2) -0.410(2) -0.3610(10)
H3 H 0.1870(10) -0.390(2) -0.3710(10)
H4 H 0.740(2) -0.3010(10) -0.412(3)
H10 H -0.5360 -0.4265 -0.3178
H11 H -0.4670 -0.4668 -0.2746
H12 H -0.3942 -0.3320 -0.2213
H13 H -0.2640 -0.4704 -0.2407
H14 H -0.1579 -0.4293 -0.2537
H15 H -0.3275 -0.5898 -0.3108
H16 H -0.2767 -0.6371 -0.3888
H17 H -0.3302 -0.6040 -0.4812
H18 H -0.4244 -0.5363 -0.4855
H19 H -0.1840 -0.5412 -0.5336
H20 H -0.1255 -0.6039 -0.4445
H21 H -0.0466 -0.5354 -0.4186
H22 H -0.0445 -0.2500 -0.5754
H23 H 0.0234 -0.2500 -0.5271
H24 H -0.1520 -0.4088 -0.5825
H25 H -0.2446 -0.2500 -0.6078
H26 H -0.3554 -0.2500 -0.5887
K1_2 K -0.52802(7) -0.2500 -0.44954(3)
O1_2 O 0.4574(2) -0.2500 -0.34850(10)
O3F O 0.49830(10) -0.06220(10) -0.41319(7)
O3_2 O 0.49830(10) -0.43780(10) -0.41319(7)
O3F_2 O -0.50170(10) -0.06220(10) -0.41319(7)
O4F O -0.07340(10) -0.0659(2) -0.33954(8)
O5F O 0.57300(10) -0.13880(10) -0.51937(7)
O5_2 O 0.57300(10) -0.36120(10) -0.51937(7)
O5F_2 O -0.42700(10) -0.13880(10) -0.51937(7)
O6F O 0.00780(10) -0.13120(10) -0.45218(7)
O8F O 0.12990(10) -0.13550(10) -0.36560(10)
N1F N -0.2647(2) -0.1684(3) -0.26120(10)
N2F N -0.4343(2) -0.1686(2) -0.29530(10)
N3F N -0.4076(2) -0.0201(2) -0.34330(10)
N4F N -0.2335(2) -0.0270(2) -0.31440(10)
N5F N -0.3550(2) 0.0251(2) -0.41930(10)
N6F N -0.1821(2) 0.0203(2) -0.39070(10)
N7F N -0.29790(10) -0.0330(2) -0.50060(10)
N8F N -0.12330(10) -0.0309(2) -0.47330(10)
N9F N -0.26740(10) -0.1618(2) -0.54940(10)
N10F N -0.09310(10) -0.1608(2) -0.52130(10)
C2F C -0.4676(2) -0.0708(3) -0.30590(10)
C3F C -0.3690(2) -0.1941(3) -0.25350(10)
C4F C -0.2272(2) -0.0706(3) -0.26430(10)
C6F C -0.3156(2) 0.0331(2) -0.33300(10)
C7F C -0.4287(2) -0.0234(2) -0.39390(10)
C8F C -0.2803(2) 0.0654(2) -0.38600(10)
C9F C -0.1551(2) -0.0278(2) -0.34760(10)
C10F C -0.3560(2) 0.0390(2) -0.47350(10)
C11F C -0.3396(2) -0.1138(2) -0.52250(10)
C12F C -0.1944(2) -0.0203(2) -0.51490(10)
C13F C -0.1143(2) 0.0381(2) -0.43160(10)
C14F C -0.0639(2) -0.1110(2) -0.47940(10)
C16F C -0.1731(2) -0.1106(2) -0.54840(10)
H1F H -0.064(3) -0.1990(10) -0.3560(10)
H2F H 0.088(2) -0.090(2) -0.3610(10)
H3F H 0.1870(10) -0.110(2) -0.3710(10)
H4F H 0.740(2) -0.1990(10) -0.412(3)
H10F H -0.5360 -0.0735 -0.3178
H11F H -0.4670 -0.0332 -0.2746
H12F H -0.3942 -0.1680 -0.2213
H13F H -0.2640 -0.0296 -0.2407
H14F H -0.1579 -0.0707 -0.2537
H15F H -0.3275 0.0898 -0.3108
H16F H -0.2767 0.1371 -0.3888
H17F H -0.3302 0.1040 -0.4812
H18F H -0.4244 0.0363 -0.4855
H19F H -0.1840 0.0412 -0.5336
H20F H -0.1255 0.1039 -0.4445
H21F H -0.0466 0.0354 -0.4186
H24F H -0.1520 -0.0912 -0.5825
Zn2 Zn 0.5266(3) -0.7500 -0.20600(10)
Cl2 Cl 0.6093(6) -0.6116(5) -0.1853(3)
Cl3 Cl 0.5369(4) -0.7500 -0.29360(10)
Cl4 Cl 0.3828(3) -0.7500 -0.1606(2)
Cl2F Cl 0.6093(6) -0.8884(5) -0.1853(3)
O10 O 0.2986(2) -0.4645(2) -0.37810(10)
H5 H 0.351(2) -0.438(3) -0.389(2)
H6 H 0.312(3) -0.513(2) -0.3590(10)
O11 O 0.3448(4) -0.6122(3) -0.3156(2)
H7 H 0.397(3) -0.637(5) -0.301(2)
H8 H 0.293(3) -0.642(5) -0.304(3)
O12 O 0.4213(3) -0.2500 -0.5823(2)
H9 H 0.459(2) -0.3009(4) -0.578(2)
H9F H 0.459(2) -0.1991(4) -0.578(2)
Zn3? Zn 0.5142(4) -0.7500 -0.2085(2)
Cl5? Cl 0.5974(6) -0.6135(5) -0.1774(3)
Cl6? Cl 0.5222(8) -0.7500 -0.2933(3)
Cl7? Cl 0.3525(3) -0.7500 -0.1893(2)
loop_
_geom_bond_atom_site_label_1
_geom_bond_atom_site_label_2
_geom_bond_site_symmetry_1
_geom_bond_site_symmetry_2
Zn1 Cl1 1_555 1_555
Zn2 Cl2 1_555 1_555
K1 Cl1 1_555 1_555
Cl3 Zn2 1_555 1_555
Cl4 Zn2 1_555 1_555
O1 C1 1_555 1_555
O2 C5 1_555 1_555
O3 C7 1_555 1_555
O4 C9 1_555 1_555
O5 C11 1_555 1_555
O6 Zn1 1_555 1_555
O7 Zn1 1_555 1_555
O8 Zn1 1_555 1_555
O9 K1 1_555 1_555
O10 H5 1_555 1_555
O11 H7 1_555 1_555
O12 H9 1_555 1_555
N1 C3 1_555 1_555
N2 C1 1_555 1_555
N3 C2 1_555 1_555
N4 C4 1_555 1_555
N5 C7 1_555 1_555
N6 C8 1_555 1_555
N7 C10 1_555 1_555
N8 C12 1_555 1_555
N9 C11 1_555 1_555
N10 C14 1_555 1_555
C1 N2F 1_555 1_555
C2 N2 1_555 1_555
C3 N2 1_555 1_555
C4 N1 1_555 1_555
C5 N1 1_555 1_555
C6 N3 1_555 1_555
C7 N3 1_555 1_555
C8 N5 1_555 1_555
C9 N4 1_555 1_555
C10 N5 1_555 1_555
C11 N7 1_555 1_555
C12 N7 1_555 1_555
C13 N6 1_555 1_555
C14 O6 1_555 1_555
C15 N10 1_555 1_555
C16 N9 1_555 1_555
C17 N9 1_555 1_555
H1 O7 1_555 1_555
H2 O8 1_555 1_555
H3 O8 1_555 1_555
H4 O9 1_555 1_555
H6 O10 1_555 1_555
H8 O11 1_555 1_555
H10 C2 1_555 1_555
H11 C2 1_555 1_555
H12 C3 1_555 1_555
H13 C4 1_555 1_555
H14 C4 1_555 1_555
H15 C6 1_555 1_555
H16 C8 1_555 1_555
H17 C10 1_555 1_555
H18 C10 1_555 1_555
H19 C12 1_555 1_555
H20 C13 1_555 1_555
H21 C13 1_555 1_555
H22 C15 1_555 1_555
H23 C15 1_555 1_555
H24 C16 1_555 1_555
H25 C17 1_555 1_555
H26 C17 1_555 1_555
K1_2 O1 1_555 1_555
Cl2F Zn2 1_555 1_555
O1_2 K1 1_555 1_555
O3F K1 1_555 1_555
O3_2 K1 1_555 1_555
O3F_2 K1_2 1_555 1_555
O4F C9F 1_555 1_555
O5F K1 1_555 1_555
O5_2 K1 1_555 1_555
O5F_2 K1_2 1_555 1_555
O6F Zn1 1_555 1_555
O8F Zn1 1_555 1_555
N1F C5 1_555 1_555
N2F C2F 1_555 1_555
N3F C2F 1_555 1_555
N4F C4F 1_555 1_555
N5F C7F 1_555 1_555
N6F C8F 1_555 1_555
N7F C10F 1_555 1_555
N8F C12F 1_555 1_555
N9F C17 1_555 1_555
N10F C15 1_555 1_555
C2F H10F 1_555 1_555
C3F C3 1_555 1_555
C4F N1F 1_555 1_555
C6F N3F 1_555 1_555
C7F O3F_2 1_555 1_555
C8F N5F 1_555 1_555
C9F N4F 1_555 1_555
C10F N5F 1_555 1_555
C11F O5F_2 1_555 1_555
C12F N7F 1_555 1_555
C13F N6F 1_555 1_555
C14F O6F 1_555 1_555
C16F N9F 1_555 1_555
H1F O7 1_555 1_555
H2F O8F 1_555 1_555
H3F O8F 1_555 1_555
H4F O9 1_555 1_555
H9F O12 1_555 1_555
H11F C2F 1_555 1_555
H12F C3F 1_555 1_555
H13F C4F 1_555 1_555
H14F C4F 1_555 1_555
H15F C6F 1_555 1_555
H16F C8F 1_555 1_555
H17F C10F 1_555 1_555
H18F C10F 1_555 1_555
H19F C12F 1_555 1_555
H20F C13F 1_555 1_555
H21F C13F 1_555 1_555
H24F C16F 1_555 1_555
O3 K1_2 1_555 1_555
O5 K1_2 1_555 1_555
N4 C6 1_555 1_555
N6 C9 1_555 1_555
N8 C13 1_555 1_555
N8 C14 1_555 1_555
N10 C16 1_555 1_555
C6 C8 1_555 1_555
C12 C16 1_555 1_555
N1F C3F 1_555 1_555
N2F C3F 1_555 1_555
N3F C7F 1_555 1_555
N4F C6F 1_555 1_555
N6F C9F 1_555 1_555
N7F C11F 1_555 1_555
N8F C13F 1_555 1_555
N8F C14F 1_555 1_555
N9F C11F 1_555 1_555
N10F C14F 1_555 1_555
N10F C16F 1_555 1_555
C6F C8F 1_555 1_555
C12F C16F 1_555 1_555

#END
