
#######################################################################
#
#                 Cambridge Crystallographic Data Centre
#                                CCDC 
#
#######################################################################
#
# If this CIF has been generated from an entry in the Cambridge 
# Structural Database, then it will include bibliographic, chemical, 
# crystal, experimental, refinement or atomic coordinate data resulting 
# from the CCDC's data processing and validation procedures.
#
#######################################################################

data_FOMTEH
_symmetry_cell_setting           triclinic
_symmetry_space_group_name_H-M   'P -1'
_symmetry_Int_Tables_number      2
_space_group_name_Hall           '-P 1'
loop_
_symmetry_equiv_pos_site_id
_symmetry_equiv_pos_as_xyz
1 x,y,z
2 -x,-y,-z
_cell_length_a                   6.2600(10)
_cell_length_b                   7.2480(10)
_cell_length_c                   9.451(2)
_cell_angle_alpha                105.29(3)
_cell_angle_beta                 100.19(3)
_cell_angle_gamma                106.27(3)
_cell_volume                     382.23
loop_
_atom_site_label
_atom_site_type_symbol
_atom_site_fract_x
_atom_site_fract_y
_atom_site_fract_z
Cu1 Cu 0.0000 0.0000 0.0000
N1 N 0.1993(2) 0.0958(2) 0.21374(16)
N2 N 0.5717(3) 0.1927(3) 0.38090(18)
C1 C 0.4237(3) 0.1221(3) 0.2447(2)
H1 H 0.4824 0.0870 0.1616
C2 C 0.1167(3) 0.1459(3) 0.3357(2)
H2 H -0.0389 0.1314 0.3199
C3 C 0.4868(3) 0.2404(3) 0.5010(2)
C4 C 0.2531(4) 0.2164(3) 0.4800(2)
H3 H 0.1930 0.2480 0.5629
N3 N 0.6338(3) 0.3102(3) 0.6395(2)
H4 H 0.7770 0.3232 0.6492
H5 H 0.5854 0.3423 0.7191
N4 N 0.1207(3) -0.2245(2) -0.05890(17)
N5 N 0.1551(3) -0.5504(2) -0.18251(17)
C5 C 0.1450(3) -0.3768(3) -0.10813(18)
C6 C 0.2536(3) -0.6541(2) -0.1175(2)
N6 N 0.3296(3) -0.7640(3) -0.0773(2)
Cu1_2 Cu 0.0000 -1.0000 0.0000
Cu1_3 Cu 0.0000 1.0000 0.0000
N1A N -0.1993(2) -0.0958(2) -0.21374(16)
N2A N -0.5717(3) -0.1927(3) -0.38090(18)
C1A C -0.4237(3) -0.1221(3) -0.2447(2)
H1A H -0.4824 -0.0870 -0.1616
C2A C -0.1167(3) -0.1459(3) -0.3357(2)
H2A H 0.0389 -0.1314 -0.3199
C3A C -0.4868(3) -0.2404(3) -0.5010(2)
C4A C -0.2531(4) -0.2164(3) -0.4800(2)
H3A H -0.1930 -0.2480 -0.5629
N3A N -0.6338(3) -0.3102(3) -0.6395(2)
H4A H -0.7770 -0.3232 -0.6492
H5A H -0.5854 -0.3423 -0.7191
N4A N -0.1207(3) 0.2245(2) 0.05890(17)
N5A N -0.1551(3) 0.5504(2) 0.18251(17)
C5A C -0.1450(3) 0.3768(3) 0.10813(18)
C6A C -0.2536(3) 0.6541(2) 0.1175(2)
N6_2 N 0.3296(3) 0.2360(3) -0.0773(2)
N6A N -0.3296(3) -0.2360(3) 0.0773(2)
N6A_2 N -0.3296(3) 0.7640(3) 0.0773(2)
loop_
_geom_bond_atom_site_label_1
_geom_bond_atom_site_label_2
_geom_bond_site_symmetry_1
_geom_bond_site_symmetry_2
Cu1 N1 1_555 1_555
N1 C1 1_555 1_555
N2 C1 1_555 1_555
C1 H1 1_555 1_555
C2 N1 1_555 1_555
H2 C2 1_555 1_555
C3 N2 1_555 1_555
C4 C2 1_555 1_555
H3 C4 1_555 1_555
N3 C3 1_555 1_555
H4 N3 1_555 1_555
H5 N3 1_555 1_555
N4 Cu1 1_555 1_555
N5 C5 1_555 1_555
C5 N4 1_555 1_555
C6 N5 1_555 1_555
N6 C6 1_555 1_555
Cu1_2 N6 1_555 1_555
Cu1_3 N6A_2 1_555 1_555
N1A Cu1 1_555 1_555
N2A C1A 1_555 1_555
C1A N1A 1_555 1_555
H1A C1A 1_555 1_555
C2A N1A 1_555 1_555
H2A C2A 1_555 1_555
C3A N2A 1_555 1_555
C4A C2A 1_555 1_555
H3A C4A 1_555 1_555
N3A C3A 1_555 1_555
H4A N3A 1_555 1_555
H5A N3A 1_555 1_555
N4A Cu1 1_555 1_555
N5A C5A 1_555 1_555
C5A N4A 1_555 1_555
C6A N5A 1_555 1_555
N6_2 Cu1 1_555 1_555
N6A Cu1 1_555 1_555
N6A_2 C6A 1_555 1_555
C3 C4 1_555 1_555
C3A C4A 1_555 1_555

#END
