
#######################################################################
#
#                 Cambridge Crystallographic Data Centre
#                                CCDC 
#
#######################################################################
#
# If this CIF has been generated from an entry in the Cambridge 
# Structural Database, then it will include bibliographic, chemical, 
# crystal, experimental, refinement or atomic coordinate data resulting 
# from the CCDC's data processing and validation procedures.
#
#######################################################################

data_FOMTAD
_symmetry_cell_setting           monoclinic
_symmetry_space_group_name_H-M   'P 21/c'
_symmetry_Int_Tables_number      14
_space_group_name_Hall           '-P 2ybc'
loop_
_symmetry_equiv_pos_site_id
_symmetry_equiv_pos_as_xyz
1 x,y,z
2 -x,1/2+y,1/2-z
3 -x,-y,-z
4 x,1/2-y,1/2+z
_cell_length_a                   10.941(3)
_cell_length_b                   9.135(2)
_cell_length_c                   20.013(4)
_cell_angle_alpha                90
_cell_angle_beta                 103.605(4)
_cell_angle_gamma                90
_cell_volume                     1944.09
loop_
_atom_site_label
_atom_site_type_symbol
_atom_site_fract_x
_atom_site_fract_y
_atom_site_fract_z
Mn1 Mn -0.45672(3) 0.25324(4) 0.173610(17)
O1 O -0.32039(15) 0.41325(17) 0.21165(8)
O2 O -0.20386(16) 0.32338(18) 0.30950(9)
O3 O -0.39339(16) 0.83219(17) 0.27767(8)
O4 O -0.36954(15) 0.61386(16) 0.32313(8)
O5 O -0.34030(19) 0.10364(19) 0.24268(9)
H1 H -0.2897 0.1486 0.2723
H2 H -0.3646 0.0255 0.2551
N1 N -0.57186(18) 0.3548(2) 0.07296(9)
N2 N -0.39011(18) 0.1488(2) 0.08592(9)
C1 C -0.0986(3) 0.7807(3) 0.33231(16)
H5 H -0.1010 0.8878 0.3344
C2 C -0.0987(3) 0.7027(3) 0.39818(15)
H6 H -0.1252 0.7410 0.4355
C3 C -0.0547(2) 0.5704(3) 0.39358(14)
H7 H -0.0456 0.4978 0.4269
C4 C -0.0215(2) 0.5565(3) 0.32502(13)
H8 H 0.0399 0.4802 0.3219
C5 C -0.1456(2) 0.5534(2) 0.26790(12)
H9 H -0.1199 0.5547 0.2242
C6 C -0.2032(2) 0.7077(2) 0.27458(12)
H10 H -0.2087 0.7613 0.2315
C7 C 0.0201(3) 0.7149(3) 0.31557(17)
H11 H 0.0969 0.7423 0.3484
H12 H 0.0270 0.7357 0.2691
C8 C -0.2301(2) 0.4200(2) 0.26468(11)
C9 C -0.3299(2) 0.7148(2) 0.29258(11)
C10 C -0.6638(2) 0.4516(3) 0.06601(13)
H13 H -0.6852 0.4857 0.1055
C11 C -0.7304(3) 0.5054(3) 0.00287(14)
H14 H -0.7956 0.5719 0.0006
C12 C -0.6986(3) 0.4594(3) -0.05549(13)
H15 H -0.7409 0.4957 -0.0981
C13 C -0.6017(2) 0.3567(3) -0.05095(12)
C14 C -0.5614(3) 0.3027(3) -0.10956(13)
H16 H -0.5993 0.3384 -0.1530
C15 C -0.4701(3) 0.2018(3) -0.10306(13)
H17 H -0.4461 0.1684 -0.1420
C16 C -0.4094(2) 0.1450(3) -0.03712(12)
C17 C -0.3145(2) 0.0385(3) -0.02794(14)
H18 H -0.2881 0.0019 -0.0656
C18 C -0.2616(2) -0.0108(3) 0.03668(14)
H19 H -0.1991 -0.0820 0.0437
C19 C -0.3024(2) 0.0470(3) 0.09217(13)
H20 H -0.2659 0.0119 0.1359
C20 C -0.4441(2) 0.1972(2) 0.02186(11)
C21 C -0.5419(2) 0.3058(2) 0.01486(11)
Mn1A Mn -0.54328(3) 0.75324(4) 0.326390(17)
O3A O -0.60661(16) 0.33219(17) 0.22233(8)
O4A O -0.63046(15) 0.11386(16) 0.17687(8)
O6 O -0.0068(5) 0.1852(5) 0.4001(3)
H3 H -0.0424 0.2213 0.3631
H4 H -0.0435 0.1962 0.4310
loop_
_geom_bond_atom_site_label_1
_geom_bond_atom_site_label_2
_geom_bond_site_symmetry_1
_geom_bond_site_symmetry_2
Mn1 O1 1_555 1_555
O1 C8 1_555 1_555
O2 C8 1_555 1_555
O3 C9 1_555 1_555
O4 C9 1_555 1_555
O5 Mn1 1_555 1_555
H1 O5 1_555 1_555
H2 O5 1_555 1_555
O6 H3 1_555 1_555
H4 O6 1_555 1_555
N1 Mn1 1_555 1_555
N2 Mn1 1_555 1_555
C1 H5 1_555 1_555
C2 C1 1_555 1_555
H6 C2 1_555 1_555
C3 C2 1_555 1_555
H7 C3 1_555 1_555
C4 C3 1_555 1_555
H8 C4 1_555 1_555
C5 C4 1_555 1_555
H9 C5 1_555 1_555
C6 C1 1_555 1_555
H10 C6 1_555 1_555
C7 C1 1_555 1_555
H11 C7 1_555 1_555
H12 C7 1_555 1_555
C8 C5 1_555 1_555
C9 C6 1_555 1_555
C10 N1 1_555 1_555
H13 C10 1_555 1_555
C11 C10 1_555 1_555
H14 C11 1_555 1_555
C12 C11 1_555 1_555
H15 C12 1_555 1_555
C13 C12 1_555 1_555
C14 C13 1_555 1_555
H16 C14 1_555 1_555
C15 C14 1_555 1_555
H17 C15 1_555 1_555
C16 C15 1_555 1_555
C17 C16 1_555 1_555
H18 C17 1_555 1_555
C18 C17 1_555 1_555
H19 C18 1_555 1_555
C19 N2 1_555 1_555
H20 C19 1_555 1_555
C20 N2 1_555 1_555
C21 N1 1_555 1_555
Mn1A O3 1_555 1_555
O3A Mn1 1_555 1_555
O4A Mn1 1_555 1_555
O4 Mn1A 1_555 1_555
C4 C7 1_555 1_555
C5 C6 1_555 1_555
C13 C21 1_555 1_555
C16 C20 1_555 1_555
C18 C19 1_555 1_555
C20 C21 1_555 1_555

#END
