
#######################################################################
#
#                 Cambridge Crystallographic Data Centre
#                                CCDC 
#
#######################################################################
#
# If this CIF has been generated from an entry in the Cambridge 
# Structural Database, then it will include bibliographic, chemical, 
# crystal, experimental, refinement or atomic coordinate data resulting 
# from the CCDC's data processing and validation procedures.
#
#######################################################################

data_FOMTUX
_symmetry_cell_setting           monoclinic
_symmetry_space_group_name_H-M   'P 21/c'
_symmetry_Int_Tables_number      14
_space_group_name_Hall           '-P 2ybc'
loop_
_symmetry_equiv_pos_site_id
_symmetry_equiv_pos_as_xyz
1 x,y,z
2 -x,1/2+y,1/2-z
3 -x,-y,-z
4 x,1/2-y,1/2+z
_cell_length_a                   7.2499(4)
_cell_length_b                   9.4445(6)
_cell_length_c                   20.8273(12)
_cell_angle_alpha                90
_cell_angle_beta                 93.1590(10)
_cell_angle_gamma                90
_cell_volume                     1423.91
loop_
_atom_site_label
_atom_site_type_symbol
_atom_site_fract_x
_atom_site_fract_y
_atom_site_fract_z
Cd1 Cd -0.30445(3) -0.58552(2) 0.283770(9)
O1 O -0.6267(3) -0.5225(2) 0.28408(10)
O2 O -0.8236(4) -0.3550(3) 0.28483(17)
O3 O -0.5643(4) -0.3197(2) 0.24134(10)
O4 O -0.3609(4) -0.5793(2) 0.16966(11)
O5 O -0.1522(4) -0.4349(3) 0.20342(11)
O6 O -0.2196(4) -0.4536(2) 0.10147(10)
O7 O 0.0023(3) -0.6490(3) 0.30956(12)
N1 N -0.2543(3) -0.3941(2) 0.35364(11)
N2 N -0.3339(3) -0.6651(2) 0.38942(10)
N3 N -0.6726(4) -0.3981(2) 0.26928(13)
N4 N -0.2444(3) -0.4883(2) 0.15634(11)
C1 C -0.2150(4) -0.2621(3) 0.33621(14)
H1 H -0.2216 -0.2395 0.2927
C2 C -0.1645(4) -0.1569(3) 0.38041(17)
H2 H -0.1379 -0.0660 0.3665
C3 C -0.1543(4) -0.1880(3) 0.44386(16)
H3 H -0.1186 -0.1187 0.4737
C4 C -0.1978(4) -0.3254(3) 0.46489(13)
C5 C -0.1917(4) -0.3645(4) 0.53062(14)
H4 H -0.1593 -0.2973 0.5619
C6 C -0.2321(4) -0.4972(3) 0.54854(14)
H5 H -0.2276 -0.5204 0.5920
C7 C -0.2819(4) -0.6032(3) 0.50161(13)
C8 C -0.3211(4) -0.7437(3) 0.51858(14)
H6 H -0.3188 -0.7706 0.5616
C9 C -0.3624(4) -0.8394(3) 0.47144(15)
H7 H -0.3860 -0.9332 0.4818
C10 C -0.3691(4) -0.7968(3) 0.40762(14)
H8 H -0.3998 -0.8636 0.3760
C11 C -0.2899(3) -0.5684(3) 0.43616(12)
C12 C -0.2476(4) -0.4257(2) 0.41695(12)
H9 H 0.080(3) -0.590(2) 0.3029(15)
H10 H 0.030(4) -0.7312(16) 0.3043(14)
Cd1A Cd -0.69555(3) -0.08552(2) 0.216230(9)
O3A O -0.4357(4) -0.8197(2) 0.25866(10)
loop_
_geom_bond_atom_site_label_1
_geom_bond_atom_site_label_2
_geom_bond_site_symmetry_1
_geom_bond_site_symmetry_2
Cd1 O1 1_555 1_555
O1 N3 1_555 1_555
O2 N3 1_555 1_555
O3 N3 1_555 1_555
O4 Cd1 1_555 1_555
O5 Cd1 1_555 1_555
O6 N4 1_555 1_555
O7 Cd1 1_555 1_555
N1 Cd1 1_555 1_555
N2 Cd1 1_555 1_555
N4 O4 1_555 1_555
C1 N1 1_555 1_555
H1 C1 1_555 1_555
C2 C1 1_555 1_555
H2 C2 1_555 1_555
C3 C2 1_555 1_555
H3 C3 1_555 1_555
C4 C3 1_555 1_555
C5 C4 1_555 1_555
H4 C5 1_555 1_555
C6 C5 1_555 1_555
H5 C6 1_555 1_555
C7 C6 1_555 1_555
C8 C7 1_555 1_555
H6 C8 1_555 1_555
C9 C8 1_555 1_555
H7 C9 1_555 1_555
C10 N2 1_555 1_555
H8 C10 1_555 1_555
C11 N2 1_555 1_555
C12 N1 1_555 1_555
H9 O7 1_555 1_555
H10 O7 1_555 1_555
Cd1A O3 1_555 1_555
O3A Cd1 1_555 1_555
O5 N4 1_555 1_555
C4 C12 1_555 1_555
C7 C11 1_555 1_555
C9 C10 1_555 1_555
C11 C12 1_555 1_555

#END
