
#######################################################################
#
#                 Cambridge Crystallographic Data Centre
#                                CCDC 
#
#######################################################################
#
# If this CIF has been generated from an entry in the Cambridge 
# Structural Database, then it will include bibliographic, chemical, 
# crystal, experimental, refinement or atomic coordinate data resulting 
# from the CCDC's data processing and validation procedures.
#
#######################################################################

data_FOMZOY
_symmetry_cell_setting           triclinic
_symmetry_space_group_name_H-M   'P -1'
_symmetry_Int_Tables_number      2
_space_group_name_Hall           '-P 1'
loop_
_symmetry_equiv_pos_site_id
_symmetry_equiv_pos_as_xyz
1 x,y,z
2 -x,-y,-z
_cell_length_a                   9.2106(6)
_cell_length_b                   9.8799(7)
_cell_length_c                   15.1866(10)
_cell_angle_alpha                84.120(2)
_cell_angle_beta                 88.101(2)
_cell_angle_gamma                83.115(2)
_cell_volume                     1364.49
loop_
_atom_site_label
_atom_site_type_symbol
_atom_site_fract_x
_atom_site_fract_y
_atom_site_fract_z
U1 U 0.98101(2) 0.31775(2) 0.09550(2)
Fe1 Fe 1.24040(9) 0.17535(7) 0.25732(5)
Mg1 Mg 1 0.500 0.500
O1 O 1.1661(5) 0.3262(4) 0.3363(2)
O2 O 1.0540(5) 0.2912(4) 0.5021(2)
H1 H 1.095(7) 0.285(7) 0.444(2)
H2 H 0.980(6) 0.232(6) 0.513(4)
O3 O 1.2216(4) 0.3184(4) 0.1571(2)
O4 O 1.2248(4) 0.0478(4) 0.3667(3)
O5 O 1.4394(4) 0.2322(4) 0.2619(3)
O6 O 1.0469(4) 0.1543(4) 0.2188(2)
O7 O 1.1004(5) 0.5332(4) 0.3765(3)
O8 O 0.8172(5) 0.1445(4) 0.1399(3)
O9 O 1.1454(5) -0.1195(4) 0.4516(3)
O10 O 1.3206(5) 0.0136(4) 0.1958(3)
O11 O 1.1184(5) 0.5127(4) 0.0321(3)
O12 O 1.0597(5) 0.2090(4) 0.0173(3)
O13 O 1.1969(5) 0.5060(5) 0.5595(3)
H3 H 1.201(8) 0.575(5) 0.598(3)
H4 H 1.244(3) 0.543(6) 0.5075(18)
O14 O 0.9012(4) 0.4288(4) 0.1727(2)
O15 O 1.2656(5) 0.6558(4) -0.0240(3)
O16 O 0.7604(6) -0.0474(5) 0.2177(4)
O17 O 1.5404(6) 0.4238(5) 0.2468(4)
O18 O 1.3262(7) -0.1957(5) 0.1656(5)
C1 C 1.1276(6) -0.0347(5) 0.3876(3)
C2 C 0.9977(7) 0.0236(5) 0.2357(4)
C3 C 0.9885(6) -0.0191(6) 0.3360(3)
H5 H 0.9178 0.0494 0.3627
H6 H 0.9471 -0.1076 0.3446
C4 C 1.2565(8) -0.0905(6) 0.1843(4)
C5 C 1.0906(8) -0.0818(6) 0.1837(4)
H7 H 1.0635 -0.1733 0.2059
H8 H 1.0606 -0.0641 0.1211
C6 C 0.8445(8) 0.0403(6) 0.1961(4)
C7 C 1.4439(7) 0.3564(6) 0.2329(4)
C8 C 1.2430(6) 0.5608(6) 0.0321(4)
C9 C 1.3616(6) 0.4985(6) 0.0948(4)
H9 H 1.4167 0.5722 0.1109
H10 H 1.4305 0.4336 0.0638
C10 C 1.3067(7) 0.4238(6) 0.1788(4)
C11 C 1.1554(6) 0.4561(5) 0.3221(3)
C12 C 1.2122(7) 0.5219(6) 0.2362(4)
H11 H 1.2708 0.5947 0.2495
H12 H 1.1277 0.5665 0.2011
U1A U 1.01899(2) 0.68225(2) -0.09550(2)
Fe1A Fe 0.75960(9) 0.82465(7) -0.25732(5)
O1A O 0.8339(5) 0.6738(4) -0.3363(2)
O3A O 0.7784(4) 0.6816(4) -0.1571(2)
O4A O 0.7752(4) 0.9522(4) -0.3667(3)
O5A O 0.5606(4) 0.7678(4) -0.2619(3)
O6A O 0.9531(4) 0.8457(4) -0.2188(2)
O7A O 0.8996(5) 0.4668(4) -0.3765(3)
O8A O 1.1828(5) 0.8555(4) -0.1399(3)
O9A O 0.8546(5) 1.1195(4) -0.4516(3)
O10A O 0.6794(5) 0.9864(4) -0.1958(3)
O11A O 0.8816(5) 0.4873(4) -0.0321(3)
O12A O 0.9403(5) 0.7910(4) -0.0173(3)
O14A O 1.0988(4) 0.5712(4) -0.1727(2)
O15A O 0.7344(5) 0.3442(4) 0.0240(3)
O16A O 1.2396(6) 1.0474(5) -0.2177(4)
O17A O 0.4596(6) 0.5762(5) -0.2468(4)
O18A O 0.6738(7) 1.1957(5) -0.1656(5)
C1A C 0.8724(6) 1.0347(5) -0.3876(3)
C2A C 1.0023(7) 0.9764(5) -0.2357(4)
C3A C 1.0115(6) 1.0191(6) -0.3360(3)
H5A H 1.0822 0.9506 -0.3627
H6A H 1.0529 1.1076 -0.3446
C4A C 0.7435(8) 1.0905(6) -0.1843(4)
C5A C 0.9094(8) 1.0818(6) -0.1837(4)
H7A H 0.9365 1.1733 -0.2059
H8A H 0.9394 1.0641 -0.1211
C6A C 1.1555(8) 0.9597(6) -0.1961(4)
C7A C 0.5561(7) 0.6436(6) -0.2329(4)
C8A C 0.7570(6) 0.4392(6) -0.0321(4)
C9A C 0.6384(6) 0.5015(6) -0.0948(4)
H9A H 0.5833 0.4278 -0.1109
H10A H 0.5695 0.5664 -0.0638
C10A C 0.6933(7) 0.5762(6) -0.1788(4)
C11A C 0.8446(6) 0.5439(5) -0.3221(3)
C12A C 0.7878(7) 0.4781(6) -0.2362(4)
H11A H 0.7292 0.4053 -0.2495
H12A H 0.8723 0.4335 -0.2011
O2A O 0.9460(5) 0.7088(4) 0.4979(2)
H1A H 0.905(7) 0.715(7) 0.556(2)
H2A H 1.020(6) 0.768(6) 0.487(4)
O13A O 0.8031(5) 0.4940(5) 0.4405(3)
H3A H 0.799(8) 0.425(5) 0.402(3)
H4A H 0.756(3) 0.457(6) 0.4925(18)
Mg1_2 Mg 1 0.500 -0.500
O7A_2 O 0.8996(5) 0.4668(4) 0.6235(3)
O19 O 1.2238(5) 0.7108(4) 0.6609(3)
H13 H 1.138(4) 0.715(7) 0.698(4)
H14 H 1.308(4) 0.665(7) 0.693(4)
O20 O 0.6879(18) -0.2628(16) 0.3261(11)
O21 O 1.4161(13) 0.6110(13) 0.4129(8)
O22 O 1.6585(12) 0.6560(11) 0.1770(7)
N1 N 1.4931(7) 0.9088(6) 0.4344(4)
H15 H 1.5368 0.8301 0.4032
H16 H 1.397 0.9425 0.4081
C13 C 1.4114(7) 0.9819(8) 0.5780(4)
H17 H 1.3127 1.0176 0.5562
H18 H 1.4022 0.9514 0.6419
C14 C 1.4717(8) 0.8629(7) 0.5293(4)
H19 H 1.5663 0.8215 0.5548
H20 H 1.4032 0.7924 0.5357
N1A N 1.5069(7) 1.0912(6) 0.5656(4)
H15A H 1.4632 1.1699 0.5968
H16A H 1.603 1.0575 0.5919
C13A C 1.5886(7) 1.0181(8) 0.4220(4)
H17A H 1.6873 0.9824 0.4438
H18A H 1.5978 1.0486 0.3581
C14A C 1.5283(8) 1.1371(7) 0.4707(4)
H19A H 1.4337 1.1785 0.4452
H20A H 1.5968 1.2076 0.4643
N2 N 0.5631(12) -0.0387(11) 0.0852(7)
H21 H 0.4796 -0.0695 0.1215
H22 H 0.6496 -0.0492 0.1234
C15 C 0.5931(17) -0.1232(15) 0.0114(10)
H23 H 0.6082 -0.221 0.0349
H24 H 0.6843 -0.1003 -0.0199
C16 C 0.5295(18) 0.1017(18) 0.0525(11)
H25 H 0.6177 0.135 0.0229
H26 H 0.5025 0.1564 0.1029
N2A N 0.4369(12) 0.0387(11) -0.0852(7)
H21A H 0.5204 0.0695 -0.1215
H22A H 0.3504 0.0492 -0.1234
C15A C 0.4069(17) 0.1232(15) -0.0114(10)
H23A H 0.3918 0.221 -0.0349
H24A H 0.3157 0.1003 0.0199
C16A C 0.4705(18) -0.1017(18) -0.0525(11)
H25A H 0.3823 -0.135 -0.0229
H26A H 0.4975 -0.1564 -0.1029
N3 N 0.5563(9) 0.0582(10) 0.0744(6)
H27 H 0.624 0.1149 0.0987
H28 H 0.4952 0.0212 0.1239
C17 C 0.5402(13) -0.1456(10) -0.0072(7)
H29 H 0.599 -0.2201 -0.036
H30 H 0.479 -0.1878 0.0403
C18 C 0.6420(10) -0.0572(9) 0.0326(6)
H31 H 0.7036 -0.1146 0.0776
H32 H 0.7074 -0.0201 -0.0146
N3A N 0.4437(9) -0.0582(10) -0.0744(6)
H27A H 0.376 -0.1149 -0.0987
H28A H 0.5048 -0.0212 -0.1239
C17A C 0.4598(13) 0.1456(10) 0.0072(7)
H29A H 0.401 0.2201 0.036
H30A H 0.521 0.1878 -0.0403
C18A C 0.3580(10) 0.0572(9) -0.0326(6)
H31A H 0.2964 0.1146 -0.0776
H32A H 0.2926 0.0201 0.0146
O23? O 0.6100(18) -0.3057(16) 0.3448(11)
O24? O 1.4382(13) 0.5129(13) 0.4397(8)
loop_
_geom_bond_atom_site_label_1
_geom_bond_atom_site_label_2
_geom_bond_site_symmetry_1
_geom_bond_site_symmetry_2
U1 O3 1_555 1_555
Fe1 O1 1_555 1_555
Mg1 O2 1_555 1_555
O1 C11 1_555 1_555
O2 H1 1_555 1_555
H2 O2 1_555 1_555
O3 Fe1 1_555 1_555
O4 Fe1 1_555 1_555
O5 Fe1 1_555 1_555
O6 U1 1_555 1_555
O7 Mg1 1_555 1_555
O8 U1 1_555 1_555
O9 C1 1_555 1_555
O10 Fe1 1_555 1_555
O11 U1 1_555 1_555
O12 U1 1_555 1_555
O13 Mg1 1_555 1_555
H3 O13 1_555 1_555
H4 O13 1_555 1_555
O14 U1 1_555 1_555
O15 C8 1_555 1_555
O16 C6 1_555 1_555
O17 C7 1_555 1_555
O18 C4 1_555 1_555
C1 O4 1_555 1_555
C2 O6 1_555 1_555
C3 C1 1_555 1_555
H5 C3 1_555 1_555
H6 C3 1_555 1_555
C4 O10 1_555 1_555
C5 C2 1_555 1_555
H7 C5 1_555 1_555
H8 C5 1_555 1_555
C6 O8 1_555 1_555
C7 O5 1_555 1_555
C8 O11 1_555 1_555
C9 C8 1_555 1_555
H9 C9 1_555 1_555
H10 C9 1_555 1_555
C10 O3 1_555 1_555
C11 O7 1_555 1_555
C12 C10 1_555 1_555
H11 C12 1_555 1_555
H12 C12 1_555 1_555
O19 H13 1_555 1_555
H14 O19 1_555 1_555
N1 H15 1_555 1_555
H16 N1 1_555 1_555
C13 H17 1_555 1_555
H18 C13 1_555 1_555
C14 N1 1_555 1_555
H19 C14 1_555 1_555
H20 C14 1_555 1_555
N2 H21 1_555 1_555
H22 N2 1_555 1_555
C15 N2 1_555 1_555
H23 C15 1_555 1_555
H24 C15 1_555 1_555
C16 N2 1_555 1_555
H25 C16 1_555 1_555
H26 C16 1_555 1_555
N3 H27 1_555 1_555
H28 N3 1_555 1_555
C17 H29 1_555 1_555
H30 C17 1_555 1_555
C18 N3 1_555 1_555
H31 C18 1_555 1_555
H32 C18 1_555 1_555
U1A O11 1_555 1_555
Fe1A O1A 1_555 1_555
O1A C11A 1_555 1_555
O3A U1A 1_555 1_555
O4A Fe1A 1_555 1_555
O5A Fe1A 1_555 1_555
O6A U1A 1_555 1_555
O7A C11A 1_555 1_555
O8A U1A 1_555 1_555
O9A C1A 1_555 1_555
O10A Fe1A 1_555 1_555
O11A U1 1_555 1_555
O12A U1A 1_555 1_555
O14A U1A 1_555 1_555
O15A U1 1_555 1_555
O16A C6A 1_555 1_555
O17A C7A 1_555 1_555
O18A C4A 1_555 1_555
C1A O4A 1_555 1_555
C2A O6A 1_555 1_555
C3A C1A 1_555 1_555
H5A C3A 1_555 1_555
H6A C3A 1_555 1_555
C4A O10A 1_555 1_555
C5A C2A 1_555 1_555
H7A C5A 1_555 1_555
H8A C5A 1_555 1_555
C6A O8A 1_555 1_555
C7A O5A 1_555 1_555
C8A O11A 1_555 1_555
C9A C8A 1_555 1_555
H9A C9A 1_555 1_555
H10A C9A 1_555 1_555
C10A O3A 1_555 1_555
C11A C12A 1_555 1_555
C12A C10A 1_555 1_555
H11A C12A 1_555 1_555
H12A C12A 1_555 1_555
O2A Mg1 1_555 1_555
H1A O2A 1_555 1_555
H2A O2A 1_555 1_555
O13A Mg1 1_555 1_555
H3A O13A 1_555 1_555
H4A O13A 1_555 1_555
Mg1_2 O7A 1_555 1_555
O7A_2 Mg1 1_555 1_555
N1A C13 1_555 1_555
H15A N1A 1_555 1_555
H16A N1A 1_555 1_555
C13A N1 1_555 1_555
H17A C13A 1_555 1_555
H18A C13A 1_555 1_555
C14A N1A 1_555 1_555
H19A C14A 1_555 1_555
H20A C14A 1_555 1_555
N2A H21A 1_555 1_555
H22A N2A 1_555 1_555
C15A C16 1_555 1_555
H23A C15A 1_555 1_555
H24A C15A 1_555 1_555
C16A C15 1_555 1_555
H25A C16A 1_555 1_555
H26A C16A 1_555 1_555
N3A C17 1_555 1_555
H27A N3A 1_555 1_555
H28A N3A 1_555 1_555
C17A N3 1_555 1_555
H29A C17A 1_555 1_555
H30A C17A 1_555 1_555
C18A N3A 1_555 1_555
H31A C18A 1_555 1_555
H32A C18A 1_555 1_555
Fe1 O6 1_555 1_555
O15 U1A 1_555 1_555
C2 C3 1_555 1_555
C2 C6 1_555 1_555
C4 C5 1_555 1_555
C7 C10 1_555 1_555
C9 C10 1_555 1_555
C11 C12 1_555 1_555
C13 C14 1_555 1_555
C17 C18 1_555 1_555
U1A O11A 1_555 1_555
Fe1A O3A 1_555 1_555
Fe1A O6A 1_555 1_555
O15A C8A 1_555 1_555
C2A C3A 1_555 1_555
C2A C6A 1_555 1_555
C4A C5A 1_555 1_555
C7A C10A 1_555 1_555
C9A C10A 1_555 1_555
C13A C14A 1_555 1_555
N2A C15A 1_555 1_555
N2A C16A 1_555 1_555
C17A C18A 1_555 1_555

#END
