
#######################################################################
#
#                 Cambridge Crystallographic Data Centre
#                                CCDC 
#
#######################################################################
#
# If this CIF has been generated from an entry in the Cambridge 
# Structural Database, then it will include bibliographic, chemical, 
# crystal, experimental, refinement or atomic coordinate data resulting 
# from the CCDC's data processing and validation procedures.
#
#######################################################################

data_FONCUH01
_symmetry_cell_setting           monoclinic
_symmetry_space_group_name_H-M   'P 21/c'
_symmetry_Int_Tables_number      14
_space_group_name_Hall           '-P 2ybc'
loop_
_symmetry_equiv_pos_site_id
_symmetry_equiv_pos_as_xyz
1 x,y,z
2 -x,1/2+y,1/2-z
3 -x,-y,-z
4 x,1/2-y,1/2+z
_cell_length_a                   13.951(1)
_cell_length_b                   11.201(1)
_cell_length_c                   12.828(1)
_cell_angle_alpha                90
_cell_angle_beta                 102.71(1)
_cell_angle_gamma                90
_cell_volume                     1955.45
loop_
_atom_site_label
_atom_site_type_symbol
_atom_site_fract_x
_atom_site_fract_y
_atom_site_fract_z
Sm1 Sm 0.231248(7) 0.204186(9) 0.350009(8)
N1 N 0.05092(15) 0.20713(16) 0.36575(15)
C1 C 0.00485(18) 0.3113(2) 0.36826(19)
C2 C -0.0943(2) 0.3179(3) 0.3681(3)
H1 H -0.124(2) 0.395(3) 0.370(2)
C3 C -0.1474(2) 0.2131(3) 0.3634(3)
H2 H -0.213(3) 0.214(3) 0.361(3)
C4 C -0.1001(2) 0.1049(3) 0.3625(2)
H3 H -0.130(2) 0.030(3) 0.360(3)
C5 C -0.00037(17) 0.1063(2) 0.36475(18)
C6 C 0.07004(17) 0.4192(2) 0.37071(18)
C7 C 0.06154(18) -0.0026(2) 0.36611(18)
O1 O 0.15843(11) 0.39938(14) 0.36661(13)
O2 O 0.03242(13) 0.51955(16) 0.37612(15)
O3 O 0.14818(12) 0.00717(15) 0.36168(13)
O4 O 0.01771(15) -0.10306(18) 0.37288(16)
H4 H 0.053(3) -0.158(4) 0.373(3)
N2 N 0.33292(13) 0.05395(16) 0.48030(14)
C8 C 0.37391(15) -0.03825(19) 0.43998(17)
C9 C 0.40819(17) -0.1387(2) 0.49987(18)
H5 H 0.434(3) -0.205(3) 0.468(3)
C10 C 0.40203(18) -0.1413(2) 0.60606(18)
H6 H 0.417(2) -0.207(2) 0.643(2)
C11 C 0.36284(16) -0.0450(2) 0.64945(17)
H7 H 0.357(2) -0.050(3) 0.721(2)
C12 C 0.32717(15) 0.05028(19) 0.58295(16)
C13 C 0.38003(16) -0.0229(2) 0.32438(17)
C14 C 0.27501(15) 0.1558(2) 0.61826(17)
O5 O 0.34490(12) 0.07326(14) 0.28003(12)
O6 O 0.41976(14) -0.10413(15) 0.28232(13)
O7 O 0.22719(12) 0.22067(14) 0.54416(13)
O8 O 0.28189(12) 0.16973(15) 0.71629(12)
O9 O 0.37440(13) 0.31313(16) 0.43545(16)
H8 H 0.386(2) 0.309(3) 0.489(3)
H9 H 0.419(2) 0.358(3) 0.411(2)
O10 O 0.13397(14) 0.15471(19) 0.17377(14)
H10 H 0.150(3) 0.181(3) 0.127(3)
H11 H 0.093(2) 0.111(3) 0.157(2)
Sm1C Sm 0.231248(7) 0.295814(9) 0.850009(8)
O8C O 0.28189(12) 0.33027(15) 0.21629(12)
O11 O 0.46896(15) -0.05734(19) 0.09535(15)
H12 H 0.452(2) -0.073(3) 0.148(3)
H13 H 0.481(3) 0.011(4) 0.097(3)
O12 O 0.45896(15) 0.30839(18) 0.64801(15)
H14 H 0.492(3) 0.256(4) 0.669(3)
H15 H 0.430(3) 0.326(3) 0.688(3)
O13 O 0.1288(2) -0.2768(2) 0.3874(3)
H16 H 0.183(4) -0.282(4) 0.400(4)
H17 H 0.100(3) -0.336(4) 0.384(3)
O14 O 0.30275(19) -0.4059(2) 0.4078(3)
H18 H 0.270(4) -0.461(5) 0.409(4)
H19 H 0.310(4) -0.406(5) 0.481(4)
loop_
_geom_bond_atom_site_label_1
_geom_bond_atom_site_label_2
_geom_bond_site_symmetry_1
_geom_bond_site_symmetry_2
Sm1 N1 1_555 1_555
N1 C1 1_555 1_555
C1 C2 1_555 1_555
C2 H1 1_555 1_555
C3 C2 1_555 1_555
H2 C3 1_555 1_555
C4 C3 1_555 1_555
H3 C4 1_555 1_555
C5 N1 1_555 1_555
C6 C1 1_555 1_555
C7 C5 1_555 1_555
O1 Sm1 1_555 1_555
O2 C6 1_555 1_555
O3 Sm1 1_555 1_555
O4 C7 1_555 1_555
H4 O4 1_555 1_555
N2 Sm1 1_555 1_555
C8 N2 1_555 1_555
C9 C8 1_555 1_555
H5 C9 1_555 1_555
C10 C9 1_555 1_555
H6 C10 1_555 1_555
C11 C10 1_555 1_555
H7 C11 1_555 1_555
C12 N2 1_555 1_555
C13 C8 1_555 1_555
C14 C12 1_555 1_555
O5 Sm1 1_555 1_555
O6 C13 1_555 1_555
O7 Sm1 1_555 1_555
O8 C14 1_555 1_555
O9 Sm1 1_555 1_555
H8 O9 1_555 1_555
H9 O9 1_555 1_555
O10 Sm1 1_555 1_555
H10 O10 1_555 1_555
H11 O10 1_555 1_555
O11 H12 1_555 1_555
H13 O11 1_555 1_555
O12 H14 1_555 1_555
H15 O12 1_555 1_555
O13 H16 1_555 1_555
H17 O13 1_555 1_555
O14 H18 1_555 1_555
H19 O14 1_555 1_555
Sm1C O8 1_555 1_555
O8C Sm1 1_555 1_555
C4 C5 1_555 1_555
C6 O1 1_555 1_555
C7 O3 1_555 1_555
C11 C12 1_555 1_555
C13 O5 1_555 1_555
C14 O7 1_555 1_555

#END
