
#######################################################################
#
#                 Cambridge Crystallographic Data Centre
#                                CCDC 
#
#######################################################################
#
# If this CIF has been generated from an entry in the Cambridge 
# Structural Database, then it will include bibliographic, chemical, 
# crystal, experimental, refinement or atomic coordinate data resulting 
# from the CCDC's data processing and validation procedures.
#
#######################################################################

data_FONPOP
_symmetry_cell_setting           monoclinic
_symmetry_space_group_name_H-M   'P 21/n'
_symmetry_Int_Tables_number      14
_space_group_name_Hall           '-P 2yn'
loop_
_symmetry_equiv_pos_site_id
_symmetry_equiv_pos_as_xyz
1 x,y,z
2 1/2-x,1/2+y,1/2-z
3 -x,-y,-z
4 1/2+x,1/2-y,1/2+z
_cell_length_a                   7.8024(13)
_cell_length_b                   15.776(3)
_cell_length_c                   22.417(4)
_cell_angle_alpha                90
_cell_angle_beta                 100.022(3)
_cell_angle_gamma                90
_cell_volume                     2717.22
loop_
_atom_site_label
_atom_site_type_symbol
_atom_site_fract_x
_atom_site_fract_y
_atom_site_fract_z
Zn1 Zn 0.28045(10) 0.83158(5) 0.20284(3)
O1 O 0.2840(9) 1.0120(4) 0.1392(3)
O2 O 0.4121(7) 0.9369(3) 0.2171(2)
N1 N 0.0795(7) 0.8543(3) 0.2459(2)
N2 N -0.0834(7) 0.8559(3) 0.3174(2)
C1 C 0.3970(10) 1.0009(5) 0.1842(4)
O3 O -0.0223(8) 1.0379(4) 0.4277(2)
C2 C 0.5314(9) 1.0691(4) 0.2027(3)
O4 O 0.2081(8) 0.9923(5) 0.4887(2)
H1 H 0.1441 0.9798 0.5173
C3 C 0.6408(10) 1.0911(5) 0.1628(3)
H2 H 0.6212 1.0683 0.1240
C4 C 0.7776(10) 1.1458(5) 0.1795(4)
H3 H 0.8485 1.1607 0.1518
C5 C 0.8097(9) 1.1787(4) 0.2379(3)
C6 C 0.7008(10) 1.1584(4) 0.2763(3)
H4 H 0.7205 1.1829 0.3146
C7 C 0.5601(9) 1.1027(4) 0.2621(3)
C8 C 0.4507(9) 1.0825(4) 0.3067(3)
C9 C 0.2694(10) 1.0801(5) 0.2916(3)
H5 H 0.2161 1.0913 0.2519
C10 C 0.1681(10) 1.0615(5) 0.3347(3)
H6 H 0.0475 1.0608 0.3239
C11 C 0.2447(10) 1.0437(4) 0.3936(3)
C12 C 0.4261(10) 1.0452(5) 0.4097(3)
H7 H 0.4794 1.0321 0.4490
C13 C 0.5249(10) 1.0663(5) 0.3665(3)
H8 H 0.6451 1.0699 0.3779
C14 C 0.1362(11) 1.0234(5) 0.4394(3)
C15 C -0.0580(10) 0.9086(5) 0.2302(3)
H9 H -0.0785 0.9402 0.1946
C16 C -0.1591(10) 0.9102(5) 0.2727(3)
H10 H -0.2601 0.9418 0.2720
C17 C 0.0592(9) 0.8217(5) 0.2990(3)
H11 H 0.1321 0.7814 0.3205
C18 C -0.1425(9) 0.8341(4) 0.3727(3)
C19 C -0.0380(11) 0.7916(5) 0.4171(3)
H12 H 0.0768 0.7809 0.4132
C20 C -0.0966(11) 0.7638(5) 0.4675(3)
H13 H -0.0241 0.7324 0.4967
C21 C -0.2668(9) 0.7829(4) 0.4750(3)
C22 C -0.3716(10) 0.8270(5) 0.4304(3)
H14 H -0.4850 0.8398 0.4348
C23 C -0.3120(10) 0.8529(4) 0.3788(3)
H15 H -0.3846 0.8825 0.3486
C24 C 0.9620(11) 1.2359(5) 0.2591(4)
O5 O 1.0727(7) 1.2496(3) 0.2265(3)
O6 O 0.9766(9) 1.2676(4) 0.3105(3)
N3 N -0.3281(8) 0.7523(4) 0.5269(2)
C25 C -0.2346(10) 0.7392(4) 0.5818(3)
H16 H -0.1165 0.7513 0.5922
C26 C -0.4959(11) 0.7250(6) 0.5298(4)
H17 H -0.5925 0.7268 0.4990
N4 N -0.3282(9) 0.7073(4) 0.6195(3)
C27 C -0.4898(12) 0.6952(7) 0.5871(4)
H18 H -0.5822 0.6703 0.6017
Zn1A Zn 1.21955(10) 1.33158(5) 0.29716(3)
Zn1C Zn -0.21955(10) 0.66842(5) 0.70284(3)
O5A O 0.4273(7) 0.7496(3) 0.2735(3)
O6A O 0.5234(9) 0.7676(4) 0.1895(3)
N4C N 0.1718(9) 0.7927(4) 0.1195(3)
O7 O -0.652(3) 0.9615(12) 0.0195(6)
O9 O 0.3221(9) 0.6864(4) 0.3833(3)
O8? O -0.383(2) 0.8810(11) 0.0863(9)
loop_
_geom_bond_atom_site_label_1
_geom_bond_atom_site_label_2
_geom_bond_site_symmetry_1
_geom_bond_site_symmetry_2
Zn1 O2 1_555 1_555
O1 C1 1_555 1_555
O2 C1 1_555 1_555
N1 Zn1 1_555 1_555
N2 C16 1_555 1_555
C1 C2 1_555 1_555
O3 C14 1_555 1_555
C2 C3 1_555 1_555
O4 H1 1_555 1_555
C3 H2 1_555 1_555
C4 C3 1_555 1_555
H3 C4 1_555 1_555
C5 C4 1_555 1_555
C6 C5 1_555 1_555
H4 C6 1_555 1_555
C7 C2 1_555 1_555
C8 C7 1_555 1_555
C9 C8 1_555 1_555
H5 C9 1_555 1_555
C10 C9 1_555 1_555
H6 C10 1_555 1_555
C11 C10 1_555 1_555
C12 C11 1_555 1_555
H7 C12 1_555 1_555
C13 C8 1_555 1_555
H8 C13 1_555 1_555
C14 O4 1_555 1_555
C15 N1 1_555 1_555
H9 C15 1_555 1_555
C16 C15 1_555 1_555
H10 C16 1_555 1_555
C17 N1 1_555 1_555
H11 C17 1_555 1_555
C18 N2 1_555 1_555
C19 C18 1_555 1_555
H12 C19 1_555 1_555
C20 C19 1_555 1_555
H13 C20 1_555 1_555
C21 C20 1_555 1_555
C22 C21 1_555 1_555
H14 C22 1_555 1_555
C23 C18 1_555 1_555
H15 C23 1_555 1_555
C24 C5 1_555 1_555
O5 C24 1_555 1_555
O6 C24 1_555 1_555
N3 C21 1_555 1_555
C25 N3 1_555 1_555
H16 C25 1_555 1_555
C26 N3 1_555 1_555
H17 C26 1_555 1_555
N4 C25 1_555 1_555
C27 C26 1_555 1_555
H18 C27 1_555 1_555
Zn1A O5 1_555 1_555
Zn1C N4 1_555 1_555
O5A Zn1 1_555 1_555
O6A Zn1 1_555 1_555
N4C Zn1 1_555 1_555
N2 C17 1_555 1_555
C6 C7 1_555 1_555
C11 C14 1_555 1_555
C12 C13 1_555 1_555
C22 C23 1_555 1_555
O6 Zn1A 1_555 1_555
N4 C27 1_555 1_555

#END
