
#######################################################################
#
#                 Cambridge Crystallographic Data Centre
#                                CCDC 
#
#######################################################################
#
# If this CIF has been generated from an entry in the Cambridge 
# Structural Database, then it will include bibliographic, chemical, 
# crystal, experimental, refinement or atomic coordinate data resulting 
# from the CCDC's data processing and validation procedures.
#
#######################################################################

data_FONQOP
_symmetry_cell_setting           monoclinic
_symmetry_space_group_name_H-M   'P 21/n'
_symmetry_Int_Tables_number      14
_space_group_name_Hall           '-P 2yn'
loop_
_symmetry_equiv_pos_site_id
_symmetry_equiv_pos_as_xyz
1 x,y,z
2 1/2-x,1/2+y,1/2-z
3 -x,-y,-z
4 1/2+x,1/2-y,1/2+z
_cell_length_a                   12.454(5)
_cell_length_b                   7.807(2)
_cell_length_c                   12.825(5)
_cell_angle_alpha                90
_cell_angle_beta                 105.269(5)
_cell_angle_gamma                90
_cell_volume                     1202.94
loop_
_atom_site_label
_atom_site_type_symbol
_atom_site_fract_x
_atom_site_fract_y
_atom_site_fract_z
Cd1 Cd 0.83929(3) 0.12460(5) 0.61397(3)
O1 O 0.8950(4) -0.1524(5) 0.6144(4)
O2 O 0.8115(4) -0.0577(5) 0.4510(3)
O3 O 0.9787(4) 0.2436(7) 0.7522(3)
O4 O 0.8330(4) 0.1365(6) 0.8003(3)
N1 N 0.8610(4) -0.6573(6) 0.4982(4)
N2 N 1.1498(4) 0.3222(6) 1.0731(4)
C1 C 0.8565(5) -0.1755(7) 0.5153(4)
C2 C 0.8559(5) -0.3514(7) 0.4683(4)
C3 C 0.8677(4) -0.4947(7) 0.5366(4)
H1 H 0.8805 -0.4775 0.6106
C4 C 0.8502(5) -0.6807(8) 0.3923(5)
H2 H 0.8491 -0.7922 0.3665
C5 C 0.8407(5) -0.5465(8) 0.3195(4)
H3 H 0.8330 -0.5679 0.2466
C6 C 0.8431(5) -0.3785(7) 0.3580(4)
H4 H 0.8362 -0.2861 0.3109
C7 C 0.9279(5) 0.2044(7) 0.8218(4)
C8 C 0.9845(5) 0.2401(7) 0.9391(4)
C9 C 1.0941(5) 0.3015(7) 0.9689(4)
H5 H 1.1291 0.3286 0.9153
C10 C 1.1010(5) 0.2814(8) 1.1506(4)
H6 H 1.1414 0.2911 1.2225
C11 C 0.9913(5) 0.2246(9) 1.1270(5)
H7 H 0.9571 0.2041 1.1821
C12 C 0.9340(5) 0.1993(8) 1.0202(5)
H8 H 0.8620 0.1553 1.0029
Cd1_2 Cd 0.83929(3) -0.87540(5) 0.61397(3)
Cd1C Cd 1.33929(3) 0.37540(5) 1.11397(3)
N1_2 N 0.8610(4) 0.3427(6) 0.4982(4)
N2C N 0.6498(4) 0.1778(6) 0.5731(4)
loop_
_geom_bond_atom_site_label_1
_geom_bond_atom_site_label_2
_geom_bond_site_symmetry_1
_geom_bond_site_symmetry_2
Cd1 O1 1_555 1_555
O1 C1 1_555 1_555
O2 Cd1 1_555 1_555
O3 Cd1 1_555 1_555
O4 Cd1 1_555 1_555
N1 C3 1_555 1_555
N2 C9 1_555 1_555
C1 O2 1_555 1_555
C2 C1 1_555 1_555
C3 C2 1_555 1_555
H1 C3 1_555 1_555
C4 N1 1_555 1_555
H2 C4 1_555 1_555
C5 C4 1_555 1_555
H3 C5 1_555 1_555
C6 C2 1_555 1_555
H4 C6 1_555 1_555
C7 O3 1_555 1_555
C8 C7 1_555 1_555
C9 C8 1_555 1_555
H5 C9 1_555 1_555
C10 N2 1_555 1_555
H6 C10 1_555 1_555
C11 C10 1_555 1_555
H7 C11 1_555 1_555
C12 C8 1_555 1_555
H8 C12 1_555 1_555
Cd1_2 N1 1_555 1_555
Cd1C N2 1_555 1_555
N1_2 Cd1 1_555 1_555
N2C Cd1 1_555 1_555
O4 C7 1_555 1_555
C5 C6 1_555 1_555
C11 C12 1_555 1_555

#END
