
#######################################################################
#
#                 Cambridge Crystallographic Data Centre
#                                CCDC 
#
#######################################################################
#
# If this CIF has been generated from an entry in the Cambridge 
# Structural Database, then it will include bibliographic, chemical, 
# crystal, experimental, refinement or atomic coordinate data resulting 
# from the CCDC's data processing and validation procedures.
#
#######################################################################

data_FONQAC
_symmetry_cell_setting           monoclinic
_symmetry_space_group_name_H-M   'C 2/c'
_symmetry_Int_Tables_number      15
_space_group_name_Hall           '-C 2yn'
loop_
_symmetry_equiv_pos_site_id
_symmetry_equiv_pos_as_xyz
1 x,y,z
2 -x,y,1/2-z
3 1/2+x,1/2+y,z
4 1/2-x,1/2+y,1/2-z
5 -x,-y,-z
6 x,-y,1/2+z
7 1/2-x,1/2-y,-z
8 1/2+x,1/2-y,1/2+z
_cell_length_a                   10.0131(12)
_cell_length_b                   24.639(3)
_cell_length_c                   13.7618(16)
_cell_angle_alpha                90
_cell_angle_beta                 109.151(2)
_cell_angle_gamma                90
_cell_volume                     3207.31
loop_
_atom_site_label
_atom_site_type_symbol
_atom_site_fract_x
_atom_site_fract_y
_atom_site_fract_z
Cd1 Cd 1.0000 0.68114(3) 0.7500
Cd2 Cd 0.98798(6) 0.57472(2) 0.95399(4)
O1 O 0.5323(5) 0.8325(2) 0.4218(3)
O2 O 0.1278(5) 0.5129(2) 0.4734(4)
O3 O 0.2183(5) 0.4346(2) 0.5417(4)
O4 O 0.8520(6) 0.5542(2) 0.8011(4)
O5 O 0.4308(6) 0.8516(2) 0.5360(4)
O6 O 0.8035(6) 0.6313(3) 0.7133(4)
C1 C 0.3740(7) 0.5108(3) 0.5734(5)
C2 C 0.5795(7) 0.7245(3) 0.4914(5)
H1 H 0.6287 0.7371 0.4491
C3 C 0.3890(7) 0.5656(3) 0.5643(5)
H2 H 0.3100 0.5857 0.5276
C4 C 0.5183(7) 0.5929(3) 0.6077(5)
C5 C 0.5182(7) 0.6513(3) 0.5850(5)
C6 C 0.5923(8) 0.6717(3) 0.5222(5)
H3 H 0.6512 0.6486 0.5013
C7 C 0.7760(7) 0.5846(3) 0.7309(5)
C8 C 0.6351(7) 0.5603(3) 0.6678(5)
C9 C 0.4938(8) 0.7592(3) 0.5227(5)
C10 C 0.4831(8) 0.8165(3) 0.4913(5)
C11 C 0.2324(7) 0.4840(3) 0.5261(5)
N1 N 1.1585(8) 0.7504(4) 0.7589(6)
C12 C 0.4904(7) 0.4791(3) 0.6271(5)
H4 H 0.4826 0.4416 0.6309
C13 C 0.6171(7) 0.5049(3) 0.6743(5)
H5 H 0.6941 0.4842 0.7124
C14 C 0.4329(8) 0.6867(3) 0.6157(6)
H6 H 0.3818 0.6740 0.6566
C15 C 0.4224(8) 0.7403(4) 0.5868(6)
H7 H 0.3673 0.7639 0.6102
C16 C 1.1953(15) 0.7925(6) 0.7482(9)
C17 C 1.268(2) 0.8487(7) 0.7350(13)
H8 H 1.3376 0.8586 0.7993
H9 H 1.1977 0.8765 0.7140
H10 H 1.3134 0.8445 0.6837
Cd2A Cd 0.01202(6) 0.57472(2) 0.54601(4)
O1A O 0.4677(5) 0.8325(2) 1.0782(3)
O2A O 0.8722(5) 0.5129(2) 1.0266(4)
O3A O 0.7817(5) 0.4346(2) 0.9583(4)
O4A O 0.1480(6) 0.5542(2) 0.6989(4)
O5A O 0.5692(6) 0.8516(2) 0.9640(4)
O6A O 0.1965(6) 0.6313(3) 0.7867(4)
C1A C 0.6260(7) 0.5108(3) 0.9266(5)
C2A C 0.4205(7) 0.7245(3) 1.0086(5)
H1A H 0.3713 0.7371 1.0509
C3A C 0.6110(7) 0.5656(3) 0.9357(5)
H2A H 0.6900 0.5857 0.9724
C4A C 0.4817(7) 0.5929(3) 0.8923(5)
C5A C 0.4818(7) 0.6513(3) 0.9150(5)
C6A C 0.4077(8) 0.6717(3) 0.9778(5)
H3A H 0.3488 0.6486 0.9987
C7A C 0.2240(7) 0.5846(3) 0.7691(5)
C8A C 0.3649(7) 0.5603(3) 0.8322(5)
C9A C 0.5062(8) 0.7592(3) 0.9773(5)
C10A C 0.5169(8) 0.8165(3) 1.0087(5)
C11A C 0.7676(7) 0.4840(3) 0.9739(5)
C12A C 0.5096(7) 0.4791(3) 0.8729(5)
H4A H 0.5174 0.4416 0.8691
C13A C 0.3829(7) 0.5049(3) 0.8257(5)
H5A H 0.3059 0.4842 0.7876
C14A C 0.5671(8) 0.6867(3) 0.8843(6)
H6A H 0.6182 0.6740 0.8434
C15A C 0.5776(8) 0.7403(4) 0.9132(6)
H7A H 0.6327 0.7639 0.8898
N1A N 0.8415(8) 0.7504(4) 0.7411(6)
C16A C 0.8047(15) 0.7925(6) 0.7518(9)
C17A C 0.732(2) 0.8487(7) 0.7650(13)
H8A H 0.6624 0.8586 0.7007
H9A H 0.8023 0.8765 0.7860
H10A H 0.6866 0.8445 0.8163
Cd1_2 Cd 0.0000 0.68114(3) 0.7500
Cd1F Cd 0.5000 0.81886(3) 0.2500
Cd1F_2 Cd 0.5000 0.81886(3) 1.2500
Cd2D Cd 1.01202(6) 0.42528(2) 1.04601(4)
Cd2E Cd -0.01202(6) 0.42528(2) 0.45399(4)
Cd2F Cd 0.51202(6) 0.92528(2) 1.04601(4)
Cd2G Cd 0.48798(6) 0.92528(2) 0.45399(4)
O1F O -0.0323(5) 0.6675(2) 0.5782(3)
O1F_2 O 0.9677(5) 0.6675(2) 0.5782(3)
O1G O 1.0323(5) 0.6675(2) 0.9218(3)
O2D O -0.1278(5) 0.4871(2) 0.5266(4)
O2E O 1.1278(5) 0.4871(2) 0.9734(4)
O3D O -0.2183(5) 0.5654(2) 0.4583(4)
O3E O 1.2183(5) 0.5654(2) 1.0417(4)
O5F O 0.0692(6) 0.6484(2) 0.4640(4)
O5G O 0.9308(6) 0.6484(2) 1.0360(4)
O6A_2 O 1.1965(6) 0.6313(3) 0.7867(4)
O7 O 0.0000 0.5596(7) 0.2500
C18? C 1.169(4) 0.8504(13) 0.786(2)
H11? H 1.0801 0.8642 0.7416
H12? H 1.2436 0.8744 0.7841
H13? H 1.1668 0.8481 0.8550
loop_
_geom_bond_atom_site_label_1
_geom_bond_atom_site_label_2
_geom_bond_site_symmetry_1
_geom_bond_site_symmetry_2
Cd1 O6 1_555 1_555
Cd2 O4 1_555 1_555
O1 C10 1_555 1_555
O2 C11 1_555 1_555
O3 C11 1_555 1_555
O4 C7 1_555 1_555
O5 C10 1_555 1_555
O6 C7 1_555 1_555
C1 C3 1_555 1_555
C2 H1 1_555 1_555
C3 H2 1_555 1_555
C4 C3 1_555 1_555
C5 C4 1_555 1_555
C6 C2 1_555 1_555
H3 C6 1_555 1_555
C7 C8 1_555 1_555
C8 C4 1_555 1_555
C9 C2 1_555 1_555
C10 C9 1_555 1_555
C11 C1 1_555 1_555
N1 Cd1 1_555 1_555
C12 C1 1_555 1_555
H4 C12 1_555 1_555
C13 C8 1_555 1_555
H5 C13 1_555 1_555
C14 C5 1_555 1_555
H6 C14 1_555 1_555
C15 C9 1_555 1_555
H7 C15 1_555 1_555
C16 N1 1_555 1_555
C17 C16 1_555 1_555
H8 C17 1_555 1_555
H9 C17 1_555 1_555
H10 C17 1_555 1_555
Cd2A O2 1_555 1_555
O1A C10A 1_555 1_555
O2A Cd2 1_555 1_555
O3A C11A 1_555 1_555
O4A Cd2A 1_555 1_555
O5A C10A 1_555 1_555
O6A C7A 1_555 1_555
C1A C3A 1_555 1_555
C2A H1A 1_555 1_555
C3A H2A 1_555 1_555
C4A C3A 1_555 1_555
C5A C4A 1_555 1_555
C6A C2A 1_555 1_555
H3A C6A 1_555 1_555
C7A O4A 1_555 1_555
C8A C4A 1_555 1_555
C9A C2A 1_555 1_555
C10A C9A 1_555 1_555
C11A O2A 1_555 1_555
C12A C1A 1_555 1_555
H4A C12A 1_555 1_555
C13A C8A 1_555 1_555
H5A C13A 1_555 1_555
C14A C5A 1_555 1_555
H6A C14A 1_555 1_555
C15A C9A 1_555 1_555
H7A C15A 1_555 1_555
N1A Cd1 1_555 1_555
C16A N1A 1_555 1_555
C17A C16A 1_555 1_555
H8A C17A 1_555 1_555
H9A C17A 1_555 1_555
H10A C17A 1_555 1_555
Cd1_2 O6A 1_555 1_555
Cd1F O1 1_555 1_555
Cd1F_2 O1A 1_555 1_555
Cd2D O2A 1_555 1_555
Cd2E O2 1_555 1_555
Cd2F O1A 1_555 1_555
Cd2G O1 1_555 1_555
O1F Cd2A 1_555 1_555
O1F_2 Cd1 1_555 1_555
O1G Cd1 1_555 1_555
O2D Cd2A 1_555 1_555
O2E Cd2 1_555 1_555
O3D Cd2A 1_555 1_555
O3E Cd2 1_555 1_555
O5F Cd2A 1_555 1_555
O5G Cd2 1_555 1_555
O6A_2 Cd1 1_555 1_555
Cd2 O1G 1_555 1_555
O3 Cd2E 1_555 1_555
O5 Cd2G 1_555 1_555
C5 C6 1_555 1_555
C12 C13 1_555 1_555
C14 C15 1_555 1_555
O3A Cd2D 1_555 1_555
O5A Cd2F 1_555 1_555
C1A C11A 1_555 1_555
C5A C6A 1_555 1_555
C7A C8A 1_555 1_555
C12A C13A 1_555 1_555
C14A C15A 1_555 1_555
Cd1_2 O1F 1_555 1_555
Cd2D O2E 1_555 1_555
Cd2E O2D 1_555 1_555

#END
