
#######################################################################
#
#                 Cambridge Crystallographic Data Centre
#                                CCDC 
#
#######################################################################
#
# If this CIF has been generated from an entry in the Cambridge 
# Structural Database, then it will include bibliographic, chemical, 
# crystal, experimental, refinement or atomic coordinate data resulting 
# from the CCDC's data processing and validation procedures.
#
#######################################################################

data_FONSIL
_symmetry_cell_setting           triclinic
_symmetry_space_group_name_H-M   'P -1'
_symmetry_Int_Tables_number      2
_space_group_name_Hall           '-P 1'
loop_
_symmetry_equiv_pos_site_id
_symmetry_equiv_pos_as_xyz
1 x,y,z
2 -x,-y,-z
_cell_length_a                   9.6584(19)
_cell_length_b                   11.834(2)
_cell_length_c                   13.888(3)
_cell_angle_alpha                66.392(2)
_cell_angle_beta                 75.231(3)
_cell_angle_gamma                84.091(2)
_cell_volume                     1406.46
loop_
_atom_site_label
_atom_site_type_symbol
_atom_site_fract_x
_atom_site_fract_y
_atom_site_fract_z
Ag1 Ag 0.0000 0.5000 -0.5000
Ag2 Ag 0.5000 1.0000 -1.0000
N1 N 0.6736(4) -0.8759(3) -0.0711(3)
N2 N -0.0337(4) 0.3037(3) -0.4521(3)
C1 C -0.1581(4) 0.2425(4) -0.3981(3)
H1 H -0.2402 0.2879 -0.3855
C2 C -0.1703(4) 0.1170(4) -0.3608(4)
H2 H -0.2584 0.0787 -0.3235
C3 C -0.0498(4) 0.0483(4) -0.3793(3)
H3 H -0.0545 -0.0372 -0.3534
C4 C 0.0783(4) 0.1097(3) -0.4375(3)
C5 C 0.0814(4) 0.2359(4) -0.4721(3)
H4 H 0.1679 0.2763 -0.5115
C6 C 0.2141(4) 0.0461(3) -0.4653(3)
C7 C 0.3491(4) -0.1357(4) -0.4105(3)
H5 H 0.4267 -0.0859 -0.4160
H6 H 0.3674 -0.1515 -0.4760
C8 C 0.3399(4) -0.2531(4) -0.3156(3)
C9 C 0.0506(6) -0.3358(5) -0.2569(5)
C10 C 0.1617(6) -0.2025(5) -0.1368(4)
C11 C 0.3137(7) -0.4296(5) -0.0349(4)
C12 C 0.4629(7) -0.2144(5) -0.1605(5)
C13 C 0.1999(7) -0.5563(5) -0.1450(5)
C14 C 0.2663(6) -0.4488(4) -0.3688(5)
C15 C 0.4220(4) -0.3513(4) -0.2759(3)
C16 C 0.5698(5) -0.3884(4) -0.3122(4)
H7 H 0.5833 -0.3890 -0.3836
H8 H 0.6362 -0.3294 -0.3166
C17 C 0.7350(4) -0.5439(3) -0.2550(3)
C18 C 0.7613(4) -0.6728(3) -0.1854(3)
C19 C 0.8999(4) -0.7137(4) -0.1849(3)
H9 H 0.9764 -0.6595 -0.2234
C20 C 0.9237(5) -0.8365(4) -0.1264(4)
H10 H 1.0163 -0.8662 -0.1246
C21 C 0.8091(5) -0.9137(4) -0.0714(4)
H11 H 0.8259 -0.9963 -0.0323
C22 C 0.6505(4) -0.7560(4) -0.1266(3)
H12 H 0.5567 -0.7281 -0.1255
Co1 Co 0.22844(6) -0.40416(5) -0.25521(5)
Co2 Co 0.31789(6) -0.29808(5) -0.16163(5)
O1 O 0.3106(3) 0.0954(3) -0.5397(2)
O2 O 0.2139(3) -0.0716(2) -0.3969(2)
O3 O 0.5986(3) -0.5101(2) -0.2371(2)
O4 O 0.8287(3) -0.4785(3) -0.3227(3)
O5 O 0.5584(5) -0.1668(5) -0.1612(4)
O6 O 0.3123(7) -0.5131(4) 0.0402(4)
O7 O 0.0660(5) -0.1434(4) -0.1252(4)
O8 O -0.0573(5) -0.2882(4) -0.2598(5)
O9 O 0.2971(6) -0.4729(4) -0.4423(3)
O10 O 0.1835(8) -0.6467(4) -0.0760(4)
Ag1_2 Ag 1.0000 -0.5000 -0.5000
Ag2_2 Ag 0.5000 -1.0000 0.0000
N1A N 0.3264(4) 0.8759(3) -0.9289(3)
N1_2 N 0.6736(4) 1.1241(3) -1.0711(3)
N2A N 0.0337(4) 0.6963(3) -0.5479(3)
N2A_2 N 1.0337(4) -0.3037(3) -0.5479(3)
C1A C 1.1581(4) -0.2425(4) -0.6019(3)
H1A H 1.2402 -0.2879 -0.6145
C2A C 1.1703(4) -0.1170(4) -0.6392(4)
H2A H 1.2584 -0.0787 -0.6765
C3A C 1.0498(4) -0.0483(4) -0.6207(3)
H3A H 1.0545 0.0372 -0.6466
C4A C 0.9217(4) -0.1097(3) -0.5625(3)
C5A C 0.9186(4) -0.2359(4) -0.5279(3)
H4A H 0.8321 -0.2763 -0.4885
C6A C 0.7859(4) -0.0461(3) -0.5347(3)
C7A C 0.6509(4) 0.1357(4) -0.5895(3)
H5A H 0.5733 0.0859 -0.5840
H6A H 0.6326 0.1515 -0.5240
C8A C 0.6601(4) 0.2531(4) -0.6844(3)
C9A C 0.9494(6) 0.3358(5) -0.7431(5)
C10A C 0.8383(6) 0.2025(5) -0.8632(4)
C11A C 0.6863(7) 0.4296(5) -0.9651(4)
C12A C 0.5371(7) 0.2144(5) -0.8395(5)
C13A C 0.8001(7) 0.5563(5) -0.8550(5)
C14A C 0.7337(6) 0.4488(4) -0.6312(5)
C15A C 0.5780(4) 0.3513(4) -0.7241(3)
C16A C 0.4302(5) 0.3884(4) -0.6878(4)
H7A H 0.4167 0.3890 -0.6164
H8A H 0.3638 0.3294 -0.6834
C17A C 0.2650(4) 0.5439(3) -0.7450(3)
C18A C 0.2387(4) 0.6728(3) -0.8146(3)
C19A C 0.1001(4) 0.7137(4) -0.8151(3)
H9A H 0.0236 0.6595 -0.7766
C20A C 0.0763(5) 0.8365(4) -0.8736(4)
H10A H -0.0163 0.8662 -0.8754
C21A C 0.1909(5) 0.9137(4) -0.9286(4)
H11A H 0.1741 0.9963 -0.9677
C22A C 0.3495(4) 0.7560(4) -0.8734(3)
H12A H 0.4433 0.7281 -0.8745
Co1A Co 0.77156(6) 0.40416(5) -0.74479(5)
Co2A Co 0.68211(6) 0.29808(5) -0.83837(5)
O1A O 0.6894(3) -0.0954(3) -0.4603(2)
O2A O 0.7861(3) 0.0716(2) -0.6031(2)
O3A O 0.4014(3) 0.5101(2) -0.7629(2)
O4_2 O -0.1713(3) 0.5215(3) -0.3227(3)
O4A O 0.1713(3) 0.4785(3) -0.6773(3)
O5A O 0.4416(5) 0.1668(5) -0.8388(4)
O6A O 0.6877(7) 0.5131(4) -1.0402(4)
O7A O 0.9340(5) 0.1434(4) -0.8748(4)
O8A O 1.0573(5) 0.2882(4) -0.7402(5)
O9A O 0.7029(6) 0.4729(4) -0.5577(3)
O10A O 0.8165(8) 0.6467(4) -0.9240(4)
F1 F 0.5835(6) -0.2313(6) -0.5937(3)
F2 F 0.5521(5) -0.2992(4) -0.7090(4)
F3 F 0.7686(4) -0.2660(4) -0.7039(4)
F4 F 0.4965(4) -0.1083(5) -0.7423(5)
F5 F 0.7112(7) -0.0762(4) -0.7265(6)
F6 F 0.6830(5) -0.1441(5) -0.8432(3)
P1 P 0.63184(12) -0.18584(12) -0.71911(11)
loop_
_geom_bond_atom_site_label_1
_geom_bond_atom_site_label_2
_geom_bond_site_symmetry_1
_geom_bond_site_symmetry_2
Ag1 N2 1_555 1_555
Ag2 N1A 1_555 1_555
N1 C21 1_555 1_555
N2 C1 1_555 1_555
C1 H1 1_555 1_555
C2 C1 1_555 1_555
H2 C2 1_555 1_555
C3 C2 1_555 1_555
H3 C3 1_555 1_555
C4 C3 1_555 1_555
C5 N2 1_555 1_555
H4 C5 1_555 1_555
C6 C4 1_555 1_555
C7 H5 1_555 1_555
H6 C7 1_555 1_555
C8 C7 1_555 1_555
C9 Co1 1_555 1_555
C10 Co2 1_555 1_555
C11 Co2 1_555 1_555
C12 Co2 1_555 1_555
C13 Co1 1_555 1_555
C14 Co1 1_555 1_555
C15 C8 1_555 1_555
C16 C15 1_555 1_555
H7 C16 1_555 1_555
H8 C16 1_555 1_555
C17 C18 1_555 1_555
C18 C19 1_555 1_555
C19 H9 1_555 1_555
C20 C19 1_555 1_555
H10 C20 1_555 1_555
C21 C20 1_555 1_555
H11 C21 1_555 1_555
C22 N1 1_555 1_555
H12 C22 1_555 1_555
Co1 C8 1_555 1_555
Co2 C8 1_555 1_555
O1 C6 1_555 1_555
O2 C6 1_555 1_555
O3 C16 1_555 1_555
O4 C17 1_555 1_555
O5 C12 1_555 1_555
O6 C11 1_555 1_555
O7 C10 1_555 1_555
O8 C9 1_555 1_555
O9 C14 1_555 1_555
O10 C13 1_555 1_555
F1 P1 1_555 1_555
F2 P1 1_555 1_555
F3 P1 1_555 1_555
F4 P1 1_555 1_555
F5 P1 1_555 1_555
F6 P1 1_555 1_555
Ag1_2 O4 1_555 1_555
Ag2_2 N1 1_555 1_555
N1A C21A 1_555 1_555
N1_2 Ag2 1_555 1_555
N2A Ag1 1_555 1_555
N2A_2 Ag1_2 1_555 1_555
C1A N2A_2 1_555 1_555
H1A C1A 1_555 1_555
C2A C1A 1_555 1_555
H2A C2A 1_555 1_555
C3A C2A 1_555 1_555
H3A C3A 1_555 1_555
C4A C3A 1_555 1_555
C5A N2A_2 1_555 1_555
H4A C5A 1_555 1_555
C6A C4A 1_555 1_555
C7A H5A 1_555 1_555
H6A C7A 1_555 1_555
C8A C7A 1_555 1_555
C9A Co1A 1_555 1_555
C10A Co2A 1_555 1_555
C11A Co2A 1_555 1_555
C12A Co2A 1_555 1_555
C13A Co1A 1_555 1_555
C14A Co1A 1_555 1_555
C15A C8A 1_555 1_555
C16A C15A 1_555 1_555
H7A C16A 1_555 1_555
H8A C16A 1_555 1_555
C17A C18A 1_555 1_555
C18A C19A 1_555 1_555
C19A H9A 1_555 1_555
C20A C19A 1_555 1_555
H10A C20A 1_555 1_555
C21A C20A 1_555 1_555
H11A C21A 1_555 1_555
C22A N1A 1_555 1_555
H12A C22A 1_555 1_555
Co1A C8A 1_555 1_555
Co2A C8A 1_555 1_555
O1A C6A 1_555 1_555
O2A C6A 1_555 1_555
O3A C16A 1_555 1_555
O4_2 Ag1 1_555 1_555
O4A Ag1 1_555 1_555
O5A C12A 1_555 1_555
O6A C11A 1_555 1_555
O7A C10A 1_555 1_555
O8A C9A 1_555 1_555
O9A C14A 1_555 1_555
O10A C13A 1_555 1_555
C4 C5 1_555 1_555
C7 O2 1_555 1_555
C15 Co1 1_555 1_555
C15 Co2 1_555 1_555
C17 O3 1_555 1_555
C18 C22 1_555 1_555
Co1 Co2 1_555 1_555
C4A C5A 1_555 1_555
C7A O2A 1_555 1_555
C15A Co1A 1_555 1_555
C15A Co2A 1_555 1_555
C17A O3A 1_555 1_555
C17A O4A 1_555 1_555
C18A C22A 1_555 1_555
Co1A Co2A 1_555 1_555

#END
