
#######################################################################
#
#                 Cambridge Crystallographic Data Centre
#                                CCDC 
#
#######################################################################
#
# If this CIF has been generated from an entry in the Cambridge 
# Structural Database, then it will include bibliographic, chemical, 
# crystal, experimental, refinement or atomic coordinate data resulting 
# from the CCDC's data processing and validation procedures.
#
#######################################################################

data_FONVOT
_symmetry_cell_setting           orthorhombic
_symmetry_space_group_name_H-M   'P b c a'
_symmetry_Int_Tables_number      61
_space_group_name_Hall           '-P 2ac 2ab'
loop_
_symmetry_equiv_pos_site_id
_symmetry_equiv_pos_as_xyz
1 x,y,z
2 1/2-x,1/2+y,z
3 x,1/2-y,1/2+z
4 1/2-x,-y,1/2+z
5 -x,-y,-z
6 1/2+x,1/2-y,-z
7 -x,1/2+y,1/2-z
8 1/2+x,y,1/2-z
_cell_length_a                   14.184(2)
_cell_length_b                   14.414(2)
_cell_length_c                   16.213(2)
_cell_angle_alpha                90
_cell_angle_beta                 90
_cell_angle_gamma                90
_cell_volume                     3314.72
loop_
_atom_site_label
_atom_site_type_symbol
_atom_site_fract_x
_atom_site_fract_y
_atom_site_fract_z
Cu1 Cu -0.39553(6) 0.20371(6) -0.19888(5)
N1 N -0.35800(45) 0.09852(44) -0.27157(45)
C1 C -0.39934(68) 0.01337(57) -0.23840(68)
C2 C -0.38000(66) 0.01612(61) -0.14829(66)
N2 N -0.41630(54) 0.10454(50) -0.11378(48)
C3 C -0.38341(65) 0.12405(68) -0.35638(55)
C4 C -0.35049(66) 0.22264(68) -0.36988(52)
N3 N -0.38666(49) 0.28018(46) -0.30213(44)
N4 N -0.43474(44) 0.31063(43) -0.12724(38)
C5 C -0.51715(53) 0.31149(54) -0.08751(61)
C6 C -0.54469(53) 0.38414(56) -0.03715(58)
C7 C -0.48672(48) 0.46037(48) -0.02709(41)
C8 C -0.40315(65) 0.45977(61) -0.07051(58)
C9 C -0.38041(63) 0.38394(69) -0.11811(62)
Cl1 Cl -0.64410(14) 0.22818(13) -0.31765(15)
O1 O -0.58501(53) 0.27155(54) -0.37635(52)
O2 O -0.58470(84) 0.17923(94) -0.25897(90)
O3 O -0.69492(94) 0.2956(10) -0.27299(95)
O4 O -0.72003(89) 0.1790(11) -0.3547(10)
H1 H -0.288 0.087 -0.274
H2 H -0.376 -0.044 -0.266
H3 H -0.469 0.007 -0.251
H4 H -0.310 0.007 -0.135
H5 H -0.405 -0.041 -0.118
H6 H -0.485 0.099 -0.097
H7 H -0.389 0.121 -0.058
H8 H -0.453 0.116 -0.367
H9 H -0.359 0.079 -0.399
H10 H -0.369 0.247 -0.426
H11 H -0.280 0.226 -0.376
H12 H -0.347 0.338 -0.294
H13 H -0.448 0.311 -0.317
H14 H -0.560 0.256 -0.093
H15 H -0.607 0.383 -0.008
H16 H -0.359 0.514 -0.068
H17 H -0.318 0.385 -0.147
C7D C -0.51328(48) 0.53963(48) 0.02709(41)
O4G O -0.22003(89) 0.1790(11) -0.1453(10)
C6D C -0.45531(53) 0.61586(56) 0.03715(58)
C8D C -0.59685(65) 0.54023(61) 0.07051(58)
Cu1G Cu -0.89553(6) 0.20371(6) -0.30112(5)
C5D C -0.48285(53) 0.68851(54) 0.08751(61)
H15D H -0.393 0.617 0.008
C9D C -0.61959(63) 0.61606(69) 0.11811(62)
H16D H -0.641 0.486 0.068
N4D N -0.56526(44) 0.68937(43) 0.12724(38)
H14D H -0.440 0.744 0.093
H17D H -0.682 0.615 0.147
Cu1D Cu -0.60447(6) 0.79629(6) 0.19888(5)
N1D N -0.64200(45) 0.90148(44) 0.27157(45)
N2D N -0.58370(54) 0.89546(50) 0.11378(48)
N3D N -0.61334(49) 0.71982(46) 0.30213(44)
O2D O -0.41530(84) 0.82077(94) 0.25897(90)
O4C O -0.77997(89) 0.8210(11) 0.1453(10)
C1D C -0.60066(68) 0.98663(57) 0.23840(68)
C3D C -0.61659(65) 0.87595(68) 0.35638(55)
H1D H -0.712 0.913 0.274
C2D C -0.62000(66) 0.98388(61) 0.14829(66)
H6D H -0.515 0.901 0.097
H7D H -0.611 0.879 0.058
C4D C -0.64951(66) 0.77736(68) 0.36988(52)
H12D H -0.653 0.662 0.294
H13D H -0.552 0.689 0.317
Cl1D Cl -0.35590(14) 0.77182(13) 0.31765(15)
H2D H -0.624 1.044 0.266
H3D H -0.531 0.993 0.251
H8D H -0.547 0.884 0.367
H9D H -0.641 0.921 0.399
H4D H -0.690 0.993 0.135
H5D H -0.595 1.041 0.118
H10D H -0.631 0.753 0.426
H11D H -0.720 0.774 0.376
O1D O -0.41499(53) 0.72845(54) 0.37635(52)
O3D O -0.30508(94) 0.7044(10) 0.27299(95)
O4D O -0.27997(89) 0.8210(11) 0.3547(10)
Cu1C Cu -0.10447(6) 0.79629(6) 0.30112(5)
Cl2 Cl -0.66182(13) -0.00859(14) -0.09232(13)
O5 O -0.57545(56) -0.05587(60) -0.07934(54)
O6 O -0.72968(73) -0.04723(85) -0.03875(76)
O7 O -0.69274(61) -0.02332(67) -0.17507(60)
O8 O -0.64883(74) 0.08842(83) -0.08198(74)
loop_
_geom_bond_atom_site_label_1
_geom_bond_atom_site_label_2
_geom_bond_site_symmetry_1
_geom_bond_site_symmetry_2
Cu1 N1 1_555 1_555
N1 C1 1_555 1_555
C1 C2 1_555 1_555
C2 N2 1_555 1_555
N2 Cu1 1_555 1_555
C3 N1 1_555 1_555
C4 C3 1_555 1_555
N3 Cu1 1_555 1_555
N4 Cu1 1_555 1_555
C5 N4 1_555 1_555
C6 C5 1_555 1_555
C7 C6 1_555 1_555
C8 C7 1_555 1_555
C9 N4 1_555 1_555
Cl1 O1 1_555 1_555
O2 Cu1 1_555 1_555
O3 Cl1 1_555 1_555
O4 Cl1 1_555 1_555
Cl2 O5 1_555 1_555
O6 Cl2 1_555 1_555
O7 Cl2 1_555 1_555
O8 Cl2 1_555 1_555
H1 N1 1_555 1_555
H2 C1 1_555 1_555
H3 C1 1_555 1_555
H4 C2 1_555 1_555
H5 C2 1_555 1_555
H6 N2 1_555 1_555
H7 N2 1_555 1_555
H8 C3 1_555 1_555
H9 C3 1_555 1_555
H10 C4 1_555 1_555
H11 C4 1_555 1_555
H12 N3 1_555 1_555
H13 N3 1_555 1_555
H14 C5 1_555 1_555
H15 C6 1_555 1_555
H16 C8 1_555 1_555
H17 C9 1_555 1_555
C7D C7 1_555 1_555
O4G Cu1 1_555 1_555
C6D C7D 1_555 1_555
C8D C7D 1_555 1_555
Cu1G O4 1_555 1_555
C5D C6D 1_555 1_555
H15D C6D 1_555 1_555
C9D C8D 1_555 1_555
H16D C8D 1_555 1_555
N4D C5D 1_555 1_555
H14D C5D 1_555 1_555
H17D C9D 1_555 1_555
Cu1D N4D 1_555 1_555
N1D Cu1D 1_555 1_555
N2D Cu1D 1_555 1_555
N3D Cu1D 1_555 1_555
O2D Cu1D 1_555 1_555
O4C Cu1D 1_555 1_555
C1D N1D 1_555 1_555
C3D N1D 1_555 1_555
H1D N1D 1_555 1_555
C2D N2D 1_555 1_555
H6D N2D 1_555 1_555
H7D N2D 1_555 1_555
C4D N3D 1_555 1_555
H12D N3D 1_555 1_555
H13D N3D 1_555 1_555
Cl1D O2D 1_555 1_555
H2D C1D 1_555 1_555
H3D C1D 1_555 1_555
H8D C3D 1_555 1_555
H9D C3D 1_555 1_555
H4D C2D 1_555 1_555
H5D C2D 1_555 1_555
H10D C4D 1_555 1_555
H11D C4D 1_555 1_555
O1D Cl1D 1_555 1_555
O3D Cl1D 1_555 1_555
O4D Cl1D 1_555 1_555
Cu1C O4D 1_555 1_555
C4 N3 1_555 1_555
C8 C9 1_555 1_555
Cl1 O2 1_555 1_555
C9D N4D 1_555 1_555
C1D C2D 1_555 1_555
C3D C4D 1_555 1_555

#END
