
#######################################################################
#
#                 Cambridge Crystallographic Data Centre
#                                CCDC 
#
#######################################################################
#
# If this CIF has been generated from an entry in the Cambridge 
# Structural Database, then it will include bibliographic, chemical, 
# crystal, experimental, refinement or atomic coordinate data resulting 
# from the CCDC's data processing and validation procedures.
#
#######################################################################

data_FONVIO
_symmetry_cell_setting           orthorhombic
_symmetry_space_group_name_H-M   'F d d 2'
_symmetry_Int_Tables_number      43
_space_group_name_Hall           'F 2 -2d'
loop_
_symmetry_equiv_pos_site_id
_symmetry_equiv_pos_as_xyz
1 x,y,z
2 -x,-y,z
3 1/4+x,1/4-y,1/4+z
4 1/4-x,1/4+y,1/4+z
5 x,1/2+y,1/2+z
6 -x,1/2-y,1/2+z
7 1/4+x,3/4-y,3/4+z
8 1/4-x,3/4+y,3/4+z
9 1/2+x,y,1/2+z
10 1/2-x,-y,1/2+z
11 3/4+x,1/4-y,3/4+z
12 3/4-x,1/4+y,3/4+z
13 1/2+x,1/2+y,z
14 1/2-x,1/2-y,z
15 3/4+x,3/4-y,1/4+z
16 3/4-x,3/4+y,1/4+z
_cell_length_a                   30.6638(6)
_cell_length_b                   33.8849(8)
_cell_length_c                   20.4672(4)
_cell_angle_alpha                90
_cell_angle_beta                 90
_cell_angle_gamma                90
_cell_volume                     21266.2
loop_
_atom_site_label
_atom_site_type_symbol
_atom_site_fract_x
_atom_site_fract_y
_atom_site_fract_z
Ca1 Ca -0.2500 0.2500 0.12895(6)
Ca2 Ca -0.2500 0.2500 0.62977(6)
K1 K -0.2500 0.2500 -0.07256(6)
K2 K -0.2500 0.2500 0.32687(6)
K3 K -0.38726(3) 0.25597(3) 0.68255(5)
O1 O -0.45275(11) 0.21655(10) 0.73410(19)
O2 O -0.42437(13) 0.31753(10) 0.7375(2)
O3 O -0.43177(11) 0.28301(10) 0.57821(15)
C1 C -0.44428(19) 0.18922(18) 0.7850(3)
H1 H -0.4146 0.1934 0.8028
H2 H -0.4463 0.1619 0.7682
C2 C -0.4765(2) 0.1956(2) 0.8353(4)
H3 H -0.4642 0.2120 0.8709
H4 H -0.4861 0.1701 0.8540
C3 C -0.51415(17) 0.21640(17) 0.8035(3)
H5 H -0.5213 0.2412 0.8268
H6 H -0.5404 0.1993 0.8025
C4 C -0.49780(15) 0.22485(15) 0.7347(3)
H7 H -0.5132 0.2080 0.7027
H8 H -0.5030 0.2528 0.7232
C5 C -0.4441(3) 0.3184(2) 0.7945(4)
H9 H -0.4348 0.3070 0.8346
C6 C -0.4820(3) 0.3400(3) 0.7822(5)
H10 H -0.4919 0.3539 0.8221
H11 H -0.5057 0.3225 0.7669
C7 C -0.4686(3) 0.3719(3) 0.7251(5)
H12 H -0.4877 0.3701 0.6863
H13 H -0.4678 0.3993 0.7415
C8 C -0.4257(3) 0.3564(2) 0.7129(4)
H14 H -0.4025 0.3699 0.6921
C9 C -0.47020(16) 0.26249(14) 0.5601(3)
H15 H -0.4964 0.2761 0.5770
H16 H -0.4698 0.2352 0.5773
C10 C -0.47001(18) 0.26244(15) 0.4863(3)
H17 H -0.4528 0.2401 0.4689
H18 H -0.5000 0.2610 0.4686
C11 C -0.44893(14) 0.30128(14) 0.4702(2)
H19 H -0.4336 0.3000 0.4276
H20 H -0.4708 0.3228 0.4688
C12 C -0.41738(14) 0.30727(14) 0.5250(2)
H21 H -0.3876 0.2995 0.5113
H22 H -0.4169 0.3354 0.5383
N1 N -0.21421(10) 0.20922(9) 0.04958(15)
C13 C -0.23906(12) 0.17920(10) 0.02047(19)
C14 C -0.22867(13) 0.16152(11) -0.03985(18)
H23 H -0.2018 0.1679 -0.0603
C15 C -0.25627(14) 0.13529(12) -0.0698(2)
H24 H -0.2483 0.1242 -0.1108
C16 C -0.29543(14) 0.12476(13) -0.0416(2)
H25 H -0.3142 0.1063 -0.0623
C17 C -0.30681(14) 0.14180(13) 0.0181(2)
H26 H -0.3340 0.1355 0.0377
C18 C -0.27886(13) 0.16777(12) 0.0488(2)
H27 H -0.2867 0.1782 0.0902
C19 C -0.16887(12) 0.20685(11) 0.04624(17)
C20 C -0.14566(13) 0.17104(12) 0.04858(19)
H28 H -0.1613 0.1468 0.0494
C21 C -0.10076(13) 0.17039(13) 0.0498(2)
H29 H -0.0860 0.1458 0.0517
C22 C -0.07687(14) 0.20491(14) 0.0481(2)
H30 H -0.0459 0.2043 0.0485
C23 C -0.09915(14) 0.24043(13) 0.0459(2)
H31 H -0.0832 0.2645 0.0449
C24 C -0.14384(14) 0.24140(12) 0.04526(19)
H32 H -0.1582 0.2662 0.0441
N2 N -0.26796(10) 0.20180(9) 0.21096(15)
C25 C -0.31296(12) 0.20063(11) 0.21281(17)
C26 C -0.33608(14) 0.23650(12) 0.21351(18)
H33 H -0.3203 0.2605 0.2180
C27 C -0.38063(15) 0.23799(15) 0.2080(2)
H34 H -0.3951 0.2628 0.2077
C28 C -0.40459(15) 0.20329(17) 0.2027(2)
H35 H -0.4355 0.2042 0.1990
C29 C -0.38323(15) 0.16764(15) 0.2029(2)
H36 H -0.3996 0.1439 0.2000
C30 C -0.33833(14) 0.16592(13) 0.2071(2)
H37 H -0.3242 0.1410 0.2063
C31 C -0.24336(13) 0.16935(10) 0.23197(19)
C32 C -0.25394(14) 0.14720(11) 0.2883(2)
H38 H -0.2803 0.1524 0.3111
C33 C -0.22586(17) 0.11779(12) 0.3107(2)
H39 H -0.2333 0.1035 0.3490
C34 C -0.18780(17) 0.10906(13) 0.2787(2)
H40 H -0.1689 0.0890 0.2945
C35 C -0.17764(14) 0.13017(13) 0.2229(2)
H41 H -0.1516 0.1242 0.1996
C36 C -0.20460(13) 0.15957(11) 0.2005(2)
H42 H -0.1965 0.1737 0.1624
N3 N -0.30201(9) 0.22791(9) 0.55078(15)
C37 C -0.31464(12) 0.24456(11) 0.49153(17)
C38 C -0.29906(12) 0.28272(11) 0.47609(19)
H43 H -0.2795 0.2955 0.5052
C39 C -0.31185(13) 0.30196(12) 0.41921(19)
H44 H -0.3020 0.3281 0.4109
C40 C -0.33891(13) 0.28322(13) 0.3744(2)
H45 H -0.3481 0.2965 0.3359
C41 C -0.35227(14) 0.24521(13) 0.3864(2)
H46 H -0.3698 0.2320 0.3551
C42 C -0.34058(13) 0.22584(12) 0.44346(18)
H47 H -0.3502 0.1995 0.4504
C43 C -0.32669(11) 0.19852(10) 0.57965(16)
C44 C -0.37240(12) 0.19409(11) 0.57533(18)
H48 H -0.3884 0.2101 0.5457
C45 C -0.39435(13) 0.16687(12) 0.61331(19)
H49 H -0.4251 0.1649 0.6095
C46 C -0.37283(14) 0.14263(13) 0.6564(2)
H50 H -0.3883 0.1240 0.6821
C47 C -0.32776(13) 0.14613(12) 0.6612(2)
H51 H -0.3122 0.1297 0.6907
C48 C -0.30563(11) 0.17299(10) 0.62404(19)
H52 H -0.2748 0.1745 0.6282
N4 N -0.20172(10) 0.22093(9) -0.29037(14)
C49 C -0.19680(12) 0.18014(12) -0.30378(18)
C50 C -0.21114(15) 0.15014(12) -0.2624(2)
H53 H -0.2237 0.1566 -0.2213
C51 C -0.20718(17) 0.11095(14) -0.2810(3)
H54 H -0.2169 0.0908 -0.2521
C52 C -0.18943(19) 0.10054(15) -0.3406(3)
H55 H -0.1864 0.0736 -0.3526
C53 C -0.17616(16) 0.13039(15) -0.3825(3)
H56 H -0.1644 0.1238 -0.4240
C54 C -0.17987(13) 0.16942(13) -0.3647(2)
H57 H -0.1708 0.1894 -0.3943
C55 C -0.18932(12) 0.23574(12) -0.23010(19)
C56 C -0.19729(13) 0.27616(12) -0.21767(19)
H58 H -0.2145 0.2908 -0.2477
C57 C -0.18078(14) 0.29517(13) -0.1629(2)
H59 H -0.1862 0.3225 -0.1569
C58 C -0.15657(13) 0.27468(14) -0.1171(2)
H60 H -0.1455 0.2876 -0.0793
C59 C -0.14904(13) 0.23528(14) -0.1275(2)
H61 H -0.1322 0.2210 -0.0965
C60 C -0.16515(13) 0.21534(13) -0.18200(19)
H62 H -0.1598 0.1879 -0.1868
Ca2_2 Ca -0.2500 0.2500 -0.37023(6)
K3M K -0.11274(3) 0.24403(3) 0.68255(5)
K3M_2 K -0.11274(3) 0.24403(3) -0.31745(5)
K3_2 K -0.38726(3) 0.25597(3) -0.31745(5)
O1M O -0.04725(11) 0.28345(10) 0.73410(19)
O2M O -0.07563(13) 0.18247(10) 0.7375(2)
O3M O -0.06823(11) 0.21699(10) 0.57821(15)
C1M C -0.05572(19) 0.31078(18) 0.7850(3)
H1M H -0.0854 0.3066 0.8028
H2M H -0.0537 0.3381 0.7682
C2M C -0.0235(2) 0.3044(2) 0.8353(4)
H3M H -0.0358 0.2880 0.8709
H4M H -0.0139 0.3299 0.8540
C3M C 0.01415(17) 0.28360(17) 0.8035(3)
H5M H 0.0213 0.2588 0.8268
H6M H 0.0404 0.3007 0.8025
C4M C -0.00220(15) 0.27515(15) 0.7347(3)
H7M H 0.0132 0.2920 0.7027
H8M H 0.0030 0.2472 0.7232
C5M C -0.0559(3) 0.1816(2) 0.7945(4)
H9M H -0.0652 0.1930 0.8346
C6M C -0.0180(3) 0.1600(3) 0.7822(5)
H10M H -0.0081 0.1461 0.8221
H11M H 0.0057 0.1775 0.7669
C7M C -0.0314(3) 0.1281(3) 0.7251(5)
H12M H -0.0123 0.1299 0.6863
H13M H -0.0322 0.1007 0.7415
C8M C -0.0743(3) 0.1436(2) 0.7129(4)
H14M H -0.0975 0.1301 0.6921
C9M C -0.02980(16) 0.23751(14) 0.5601(3)
H15M H -0.0036 0.2239 0.5770
H16M H -0.0302 0.2648 0.5773
C10M C -0.02999(18) 0.23756(15) 0.4863(3)
H17M H -0.0472 0.2599 0.4689
H18M H 0.0000 0.2390 0.4686
C11M C -0.05107(14) 0.19872(14) 0.4702(2)
H19M H -0.0664 0.2000 0.4276
H20M H -0.0292 0.1772 0.4688
C12M C -0.08262(14) 0.19273(14) 0.5250(2)
H21M H -0.1124 0.2005 0.5113
H22M H -0.0831 0.1646 0.5383
N1M N -0.28579(10) 0.29078(9) 0.04958(15)
C13M C -0.26094(12) 0.32080(10) 0.02047(19)
C14M C -0.27133(13) 0.33848(11) -0.03985(18)
H23M H -0.2982 0.3321 -0.0603
C15M C -0.24373(14) 0.36471(12) -0.0698(2)
H24M H -0.2517 0.3758 -0.1108
C16M C -0.20457(14) 0.37524(13) -0.0416(2)
H25M H -0.1858 0.3937 -0.0623
C17M C -0.19319(14) 0.35820(13) 0.0181(2)
H26M H -0.1660 0.3645 0.0377
C18M C -0.22114(13) 0.33223(12) 0.0488(2)
H27M H -0.2133 0.3218 0.0902
C19M C -0.33113(12) 0.29315(11) 0.04624(17)
C20M C -0.35434(13) 0.32896(12) 0.04858(19)
H28M H -0.3387 0.3532 0.0494
C21M C -0.39924(13) 0.32961(13) 0.0498(2)
H29M H -0.4140 0.3542 0.0517
C22M C -0.42313(14) 0.29509(14) 0.0481(2)
H30M H -0.4541 0.2957 0.0485
C23M C -0.40085(14) 0.25957(13) 0.0459(2)
H31M H -0.4168 0.2355 0.0449
C24M C -0.35616(14) 0.25860(12) 0.04526(19)
H32M H -0.3418 0.2338 0.0441
N2M N -0.23204(10) 0.29820(9) 0.21096(15)
C25M C -0.18704(12) 0.29937(11) 0.21281(17)
C26M C -0.16392(14) 0.26350(12) 0.21351(18)
H33M H -0.1797 0.2395 0.2180
C27M C -0.11937(15) 0.26201(15) 0.2080(2)
H34M H -0.1049 0.2372 0.2077
C28M C -0.09541(15) 0.29671(17) 0.2027(2)
H35M H -0.0645 0.2958 0.1990
C29M C -0.11677(15) 0.33236(15) 0.2029(2)
H36M H -0.1004 0.3561 0.2000
C30M C -0.16167(14) 0.33408(13) 0.2071(2)
H37M H -0.1758 0.3590 0.2063
C31M C -0.25664(13) 0.33065(10) 0.23197(19)
C32M C -0.24606(14) 0.35280(11) 0.2883(2)
H38M H -0.2197 0.3476 0.3111
C33M C -0.27414(17) 0.38221(12) 0.3107(2)
H39M H -0.2667 0.3965 0.3490
C34M C -0.31220(17) 0.39094(13) 0.2787(2)
H40M H -0.3311 0.4110 0.2945
C35M C -0.32236(14) 0.36983(13) 0.2229(2)
H41M H -0.3484 0.3758 0.1996
C36M C -0.29540(13) 0.34043(11) 0.2005(2)
H42M H -0.3035 0.3263 0.1624
N3M N -0.19799(9) 0.27209(9) 0.55078(15)
C37M C -0.18536(12) 0.25544(11) 0.49153(17)
C38M C -0.20094(12) 0.21728(11) 0.47609(19)
H43M H -0.2205 0.2045 0.5052
C39M C -0.18815(13) 0.19804(12) 0.41921(19)
H44M H -0.1980 0.1719 0.4109
C40M C -0.16109(13) 0.21678(13) 0.3744(2)
H45M H -0.1519 0.2035 0.3359
C41M C -0.14773(14) 0.25479(13) 0.3864(2)
H46M H -0.1302 0.2680 0.3551
C42M C -0.15942(13) 0.27416(12) 0.44346(18)
H47M H -0.1498 0.3005 0.4504
C43M C -0.17331(11) 0.30148(10) 0.57965(16)
C44M C -0.12760(12) 0.30591(11) 0.57533(18)
H48M H -0.1116 0.2899 0.5457
C45M C -0.10565(13) 0.33313(12) 0.61331(19)
H49M H -0.0749 0.3351 0.6095
C46M C -0.12717(14) 0.35737(13) 0.6564(2)
H50M H -0.1117 0.3760 0.6821
C47M C -0.17224(13) 0.35387(12) 0.6612(2)
H51M H -0.1878 0.3703 0.6907
C48M C -0.19437(11) 0.32701(10) 0.62404(19)
H52M H -0.2252 0.3255 0.6282
N4M N -0.29828(10) 0.27907(9) -0.29037(14)
N4_2 N -0.20172(10) 0.22093(9) 0.70963(14)
N4M_2 N -0.29828(10) 0.27907(9) 0.70963(14)
C49M C -0.30320(12) 0.31986(12) -0.30378(18)
C50M C -0.28886(15) 0.34986(12) -0.2624(2)
H53M H -0.2763 0.3434 -0.2213
C51M C -0.29282(17) 0.38905(14) -0.2810(3)
H54M H -0.2831 0.4092 -0.2521
C52M C -0.31057(19) 0.39946(15) -0.3406(3)
H55M H -0.3136 0.4264 -0.3526
C53M C -0.32384(16) 0.36961(15) -0.3825(3)
H56M H -0.3356 0.3762 -0.4240
C54M C -0.32013(13) 0.33058(13) -0.3647(2)
H57M H -0.3292 0.3106 -0.3943
C55M C -0.31068(12) 0.26426(12) -0.23010(19)
C55M_2 C -0.31068(12) 0.26426(12) 0.76990(19)
C55_2 C -0.18932(12) 0.23574(12) 0.76990(19)
C56M C -0.30271(13) 0.22384(12) -0.21767(19)
H58M H -0.2855 0.2092 -0.2477
C57M C -0.31922(14) 0.20483(13) -0.1629(2)
H59M H -0.3138 0.1775 -0.1569
C58M C -0.34343(13) 0.22532(14) -0.1171(2)
H60M H -0.3545 0.2124 -0.0793
C59M C -0.35096(13) 0.26472(14) -0.1275(2)
H61M H -0.3678 0.2790 -0.0965
C60M C -0.33485(13) 0.28466(13) -0.18200(19)
H62M H -0.3402 0.3121 -0.1868
loop_
_geom_bond_atom_site_label_1
_geom_bond_atom_site_label_2
_geom_bond_site_symmetry_1
_geom_bond_site_symmetry_2
Ca1 N1 1_555 1_555
Ca2 N3 1_555 1_555
K1 N1 1_555 1_555
K2 N2 1_555 1_555
K3 O1 1_555 1_555
O1 C1 1_555 1_555
O2 K3 1_555 1_555
O3 K3 1_555 1_555
C1 H1 1_555 1_555
H2 C1 1_555 1_555
C2 C1 1_555 1_555
H3 C2 1_555 1_555
H4 C2 1_555 1_555
C3 C2 1_555 1_555
H5 C3 1_555 1_555
H6 C3 1_555 1_555
C4 O1 1_555 1_555
H7 C4 1_555 1_555
H8 C4 1_555 1_555
C5 O2 1_555 1_555
H9 C5 1_555 1_555
C6 C5 1_555 1_555
H10 C6 1_555 1_555
H11 C6 1_555 1_555
C7 C6 1_555 1_555
H12 C7 1_555 1_555
H13 C7 1_555 1_555
C8 O2 1_555 1_555
H14 C8 1_555 1_555
C9 O3 1_555 1_555
H15 C9 1_555 1_555
H16 C9 1_555 1_555
C10 C9 1_555 1_555
H17 C10 1_555 1_555
H18 C10 1_555 1_555
C11 C10 1_555 1_555
H19 C11 1_555 1_555
H20 C11 1_555 1_555
C12 O3 1_555 1_555
H21 C12 1_555 1_555
H22 C12 1_555 1_555
N1 C13 1_555 1_555
C13 K1 1_555 1_555
C14 C13 1_555 1_555
H23 C14 1_555 1_555
C15 C14 1_555 1_555
H24 C15 1_555 1_555
C16 C15 1_555 1_555
H25 C16 1_555 1_555
C17 C16 1_555 1_555
H26 C17 1_555 1_555
C18 C13 1_555 1_555
H27 C18 1_555 1_555
C19 N1 1_555 1_555
C20 C19 1_555 1_555
H28 C20 1_555 1_555
C21 C20 1_555 1_555
H29 C21 1_555 1_555
C22 C21 1_555 1_555
H30 C22 1_555 1_555
C23 C22 1_555 1_555
H31 C23 1_555 1_555
C24 C19 1_555 1_555
H32 C24 1_555 1_555
N2 Ca1 1_555 1_555
C25 N2 1_555 1_555
C26 C25 1_555 1_555
H33 C26 1_555 1_555
C27 C26 1_555 1_555
H34 C27 1_555 1_555
C28 C27 1_555 1_555
H35 C28 1_555 1_555
C29 C28 1_555 1_555
H36 C29 1_555 1_555
C30 C25 1_555 1_555
H37 C30 1_555 1_555
C31 N2 1_555 1_555
C32 C31 1_555 1_555
H38 C32 1_555 1_555
C33 C32 1_555 1_555
H39 C33 1_555 1_555
C34 C33 1_555 1_555
H40 C34 1_555 1_555
C35 C34 1_555 1_555
H41 C35 1_555 1_555
C36 C31 1_555 1_555
H42 C36 1_555 1_555
N3 C37 1_555 1_555
C37 C38 1_555 1_555
C38 H43 1_555 1_555
C39 C38 1_555 1_555
H44 C39 1_555 1_555
C40 K2 1_555 1_555
H45 C40 1_555 1_555
C41 C40 1_555 1_555
H46 C41 1_555 1_555
C42 C37 1_555 1_555
H47 C42 1_555 1_555
C43 N3 1_555 1_555
C44 K3 1_555 1_555
H48 C44 1_555 1_555
C45 C44 1_555 1_555
H49 C45 1_555 1_555
C46 C45 1_555 1_555
H50 C46 1_555 1_555
C47 C46 1_555 1_555
H51 C47 1_555 1_555
C48 C43 1_555 1_555
H52 C48 1_555 1_555
N4 C49 1_555 1_555
C49 C50 1_555 1_555
C50 H53 1_555 1_555
C51 C50 1_555 1_555
H54 C51 1_555 1_555
C52 C51 1_555 1_555
H55 C52 1_555 1_555
C53 C52 1_555 1_555
H56 C53 1_555 1_555
C54 C49 1_555 1_555
H57 C54 1_555 1_555
C55 N4 1_555 1_555
C56 C55 1_555 1_555
H58 C56 1_555 1_555
C57 C56 1_555 1_555
H59 C57 1_555 1_555
C58 K1 1_555 1_555
H60 C58 1_555 1_555
C59 C58 1_555 1_555
H61 C59 1_555 1_555
C60 C55 1_555 1_555
H62 C60 1_555 1_555
Ca2_2 N4 1_555 1_555
K3M O1M 1_555 1_555
K3M_2 N4 1_555 1_555
K3_2 N4M 1_555 1_555
O1M C1M 1_555 1_555
O2M K3M 1_555 1_555
O3M K3M 1_555 1_555
C1M H1M 1_555 1_555
H2M C1M 1_555 1_555
C2M C1M 1_555 1_555
H3M C2M 1_555 1_555
H4M C2M 1_555 1_555
C3M C2M 1_555 1_555
H5M C3M 1_555 1_555
H6M C3M 1_555 1_555
C4M O1M 1_555 1_555
H7M C4M 1_555 1_555
H8M C4M 1_555 1_555
C5M O2M 1_555 1_555
H9M C5M 1_555 1_555
C6M C5M 1_555 1_555
H10M C6M 1_555 1_555
H11M C6M 1_555 1_555
C7M C6M 1_555 1_555
H12M C7M 1_555 1_555
H13M C7M 1_555 1_555
C8M O2M 1_555 1_555
H14M C8M 1_555 1_555
C9M O3M 1_555 1_555
H15M C9M 1_555 1_555
H16M C9M 1_555 1_555
C10M C9M 1_555 1_555
H17M C10M 1_555 1_555
H18M C10M 1_555 1_555
C11M C10M 1_555 1_555
H19M C11M 1_555 1_555
H20M C11M 1_555 1_555
C12M O3M 1_555 1_555
H21M C12M 1_555 1_555
H22M C12M 1_555 1_555
N1M Ca1 1_555 1_555
C13M K1 1_555 1_555
C14M C13M 1_555 1_555
H23M C14M 1_555 1_555
C15M C14M 1_555 1_555
H24M C15M 1_555 1_555
C16M C15M 1_555 1_555
H25M C16M 1_555 1_555
C17M C16M 1_555 1_555
H26M C17M 1_555 1_555
C18M C13M 1_555 1_555
H27M C18M 1_555 1_555
C19M N1M 1_555 1_555
C20M C19M 1_555 1_555
H28M C20M 1_555 1_555
C21M C20M 1_555 1_555
H29M C21M 1_555 1_555
C22M C21M 1_555 1_555
H30M C22M 1_555 1_555
C23M C22M 1_555 1_555
H31M C23M 1_555 1_555
C24M C19M 1_555 1_555
H32M C24M 1_555 1_555
N2M Ca1 1_555 1_555
C25M N2M 1_555 1_555
C26M C25M 1_555 1_555
H33M C26M 1_555 1_555
C27M C26M 1_555 1_555
H34M C27M 1_555 1_555
C28M C27M 1_555 1_555
H35M C28M 1_555 1_555
C29M C28M 1_555 1_555
H36M C29M 1_555 1_555
C30M C25M 1_555 1_555
H37M C30M 1_555 1_555
C31M N2M 1_555 1_555
C32M C31M 1_555 1_555
H38M C32M 1_555 1_555
C33M C32M 1_555 1_555
H39M C33M 1_555 1_555
C34M C33M 1_555 1_555
H40M C34M 1_555 1_555
C35M C34M 1_555 1_555
H41M C35M 1_555 1_555
C36M C31M 1_555 1_555
H42M C36M 1_555 1_555
N3M Ca2 1_555 1_555
C37M N3M 1_555 1_555
C38M C37M 1_555 1_555
H43M C38M 1_555 1_555
C39M C38M 1_555 1_555
H44M C39M 1_555 1_555
C40M K2 1_555 1_555
H45M C40M 1_555 1_555
C41M C40M 1_555 1_555
H46M C41M 1_555 1_555
C42M C37M 1_555 1_555
H47M C42M 1_555 1_555
C43M N3M 1_555 1_555
C44M K3M 1_555 1_555
H48M C44M 1_555 1_555
C45M C44M 1_555 1_555
H49M C45M 1_555 1_555
C46M C45M 1_555 1_555
H50M C46M 1_555 1_555
C47M C46M 1_555 1_555
H51M C47M 1_555 1_555
C48M C43M 1_555 1_555
H52M C48M 1_555 1_555
N4M Ca2_2 1_555 1_555
N4_2 Ca2 1_555 1_555
N4M_2 Ca2 1_555 1_555
C49M N4M 1_555 1_555
C50M C49M 1_555 1_555
H53M C50M 1_555 1_555
C51M C50M 1_555 1_555
H54M C51M 1_555 1_555
C52M C51M 1_555 1_555
H55M C52M 1_555 1_555
C53M C52M 1_555 1_555
H56M C53M 1_555 1_555
C54M C49M 1_555 1_555
H57M C54M 1_555 1_555
C55M K3_2 1_555 1_555
C55M_2 K3 1_555 1_555
C55_2 K3M 1_555 1_555
C56M C55M 1_555 1_555
H58M C56M 1_555 1_555
C57M C56M 1_555 1_555
H59M C57M 1_555 1_555
C58M K1 1_555 1_555
H60M C58M 1_555 1_555
C59M C58M 1_555 1_555
H61M C59M 1_555 1_555
C60M C55M 1_555 1_555
H62M C60M 1_555 1_555
K1 N1M 1_555 1_555
K2 N2M 1_555 1_555
K3 N4M_2 1_555 1_555
C3 C4 1_555 1_555
C7 C8 1_555 1_555
C11 C12 1_555 1_555
C17 C18 1_555 1_555
C23 C24 1_555 1_555
C29 C30 1_555 1_555
C35 C36 1_555 1_555
C39 C40 1_555 1_555
C41 C42 1_555 1_555
C43 C44 1_555 1_555
C47 C48 1_555 1_555
C53 C54 1_555 1_555
C55 K3M_2 1_555 1_555
C57 C58 1_555 1_555
C59 C60 1_555 1_555
K3M N4_2 1_555 1_555
C3M C4M 1_555 1_555
C7M C8M 1_555 1_555
C11M C12M 1_555 1_555
N1M C13M 1_555 1_555
C17M C18M 1_555 1_555
C23M C24M 1_555 1_555
C29M C30M 1_555 1_555
C35M C36M 1_555 1_555
C39M C40M 1_555 1_555
C41M C42M 1_555 1_555
C43M C44M 1_555 1_555
C47M C48M 1_555 1_555
N4M C55M 1_555 1_555
N4_2 C55_2 1_555 1_555
N4M_2 C55M_2 1_555 1_555
C53M C54M 1_555 1_555
C57M C58M 1_555 1_555
C59M C60M 1_555 1_555

#END
