
#######################################################################
#
#                 Cambridge Crystallographic Data Centre
#                                CCDC 
#
#######################################################################
#
# If this CIF has been generated from an entry in the Cambridge 
# Structural Database, then it will include bibliographic, chemical, 
# crystal, experimental, refinement or atomic coordinate data resulting 
# from the CCDC's data processing and validation procedures.
#
#######################################################################

data_FONYEO
_symmetry_cell_setting           monoclinic
_symmetry_space_group_name_H-M   'P 21/c'
_symmetry_Int_Tables_number      14
_space_group_name_Hall           '-P 2ybc'
loop_
_symmetry_equiv_pos_site_id
_symmetry_equiv_pos_as_xyz
1 x,y,z
2 -x,1/2+y,1/2-z
3 -x,-y,-z
4 x,1/2-y,1/2+z
_cell_length_a                   9.4202(5)
_cell_length_b                   16.8486(6)
_cell_length_c                   9.1845(5)
_cell_angle_alpha                90
_cell_angle_beta                 97.746(6)
_cell_angle_gamma                90
_cell_volume                     1444.44
loop_
_atom_site_label
_atom_site_type_symbol
_atom_site_fract_x
_atom_site_fract_y
_atom_site_fract_z
Mn1 Mn 0.5000 0.0000 0.0000
S1 S 0.24060(5) -0.13395(3) 0.01233(6)
O1 O 0.35589(15) -0.09845(11) -0.05772(19)
O2 O 0.2831(2) -0.15655(11) 0.16239(18)
O3 O 0.17105(16) -0.19665(10) -0.07879(18)
S2 S 0.26749(5) 0.03110(3) 0.25076(6)
O4 O 0.40072(15) 0.00920(11) 0.19730(18)
O5 O 0.25629(18) 0.11430(11) 0.2777(2)
O6 O 0.2422(2) -0.01724(12) 0.37439(18)
C1 C 0.1092(2) -0.05686(12) 0.0125(2)
C2 C 0.12239(19) 0.00926(12) 0.1063(2)
C3 C 0.0121(2) 0.06475(13) 0.0909(2)
H1 H 0.0197 0.1089 0.1523
O7 O 0.34271(19) 0.08203(13) -0.1093(2)
C4 C 0.2596(3) 0.07830(18) -0.2229(4)
H2 H 0.270(4) 0.032(2) -0.297(4)
N1 N 0.1603(2) 0.13131(14) -0.2661(3)
C5 C 0.0654(4) 0.1208(3) -0.4050(4)
H3 H 0.0727 0.1663 -0.4666
H4 H -0.0316 0.1153 -0.3854
H5 H 0.0931 0.0741 -0.4538
C6 C 0.1372(4) 0.2001(2) -0.1802(5)
H6 H 0.0364 0.2068 -0.1774
H7 H 0.1742 0.2462 -0.2238
H8 H 0.1854 0.1935 -0.0821
S1B S -0.24060(5) 0.13395(3) -0.01233(6)
O1B O -0.35589(15) 0.09845(11) 0.05772(19)
O2B O -0.2831(2) 0.15655(11) -0.16239(18)
O3B O -0.17105(16) 0.19665(10) 0.07879(18)
S2B S -0.26749(5) -0.03110(3) -0.25076(6)
O4B O -0.40072(15) -0.00920(11) -0.19730(18)
O5B O -0.25629(18) -0.11430(11) -0.2777(2)
O6B O -0.2422(2) 0.01724(12) -0.37439(18)
C1B C -0.1092(2) 0.05686(12) -0.0125(2)
C2B C -0.12239(19) -0.00926(12) -0.1063(2)
C3B C -0.0121(2) -0.06475(13) -0.0909(2)
H1B H -0.0197 -0.1089 -0.1523
O7B O 0.65729(19) -0.08203(13) 0.1093(2)
C4B C 0.7404(3) -0.07830(18) 0.2229(4)
H2B H 0.730(4) -0.032(2) 0.297(4)
N1B N 0.8397(2) -0.13131(14) 0.2661(3)
C5B C 0.9346(4) -0.1208(3) 0.4050(4)
H3B H 0.9273 -0.1663 0.4666
H4B H 1.0316 -0.1153 0.3854
H5B H 0.9069 -0.0741 0.4538
C6B C 0.8628(4) -0.2001(2) 0.1802(5)
H6B H 0.9636 -0.2068 0.1774
H7B H 0.8258 -0.2462 0.2238
H8B H 0.8146 -0.1935 0.0821
Mn1_2 Mn -0.5000 0.0000 0.0000
O1B_2 O 0.64411(15) 0.09845(11) 0.05772(19)
O4B_2 O 0.59928(15) -0.00920(11) -0.19730(18)
N2 N 0.3616(3) -0.16656(16) 0.4634(2)
H9 H 0.297(3) -0.206(2) 0.428(4)
H10 H 0.338(4) -0.116(3) 0.410(4)
C7 C 0.5067(3) -0.1935(3) 0.4448(4)
H11 H 0.5129 -0.2007 0.3422
H12 H 0.5264 -0.2429 0.4955
H13 H 0.5754 -0.1544 0.4846
C8 C 0.3457(4) -0.14814(19) 0.6172(3)
H14 H 0.2474 -0.1355 0.6240
H15 H 0.4052 -0.1036 0.6499
H16 H 0.3740 -0.1933 0.6779
loop_
_geom_bond_atom_site_label_1
_geom_bond_atom_site_label_2
_geom_bond_site_symmetry_1
_geom_bond_site_symmetry_2
Mn1 O1 1_555 1_555
S1 O1 1_555 1_555
O2 S1 1_555 1_555
O3 S1 1_555 1_555
S2 O4 1_555 1_555
O4 Mn1 1_555 1_555
O5 S2 1_555 1_555
O6 S2 1_555 1_555
C1 S1 1_555 1_555
C2 S2 1_555 1_555
C3 C2 1_555 1_555
H1 C3 1_555 1_555
O7 Mn1 1_555 1_555
C4 O7 1_555 1_555
H2 C4 1_555 1_555
N1 C4 1_555 1_555
C5 N1 1_555 1_555
H3 C5 1_555 1_555
H4 C5 1_555 1_555
H5 C5 1_555 1_555
C6 N1 1_555 1_555
H6 C6 1_555 1_555
H7 C6 1_555 1_555
H8 C6 1_555 1_555
N2 H9 1_555 1_555
H10 N2 1_555 1_555
C7 N2 1_555 1_555
H11 C7 1_555 1_555
H12 C7 1_555 1_555
H13 C7 1_555 1_555
C8 N2 1_555 1_555
H14 C8 1_555 1_555
H15 C8 1_555 1_555
H16 C8 1_555 1_555
S1B O1B 1_555 1_555
O1B Mn1_2 1_555 1_555
O2B S1B 1_555 1_555
O3B S1B 1_555 1_555
S2B O4B 1_555 1_555
O4B Mn1_2 1_555 1_555
O5B S2B 1_555 1_555
O6B S2B 1_555 1_555
C1B C3 1_555 1_555
C2B S2B 1_555 1_555
C3B C1 1_555 1_555
H1B C3B 1_555 1_555
O7B Mn1 1_555 1_555
C4B O7B 1_555 1_555
H2B C4B 1_555 1_555
N1B C4B 1_555 1_555
C5B N1B 1_555 1_555
H3B C5B 1_555 1_555
H4B C5B 1_555 1_555
H5B C5B 1_555 1_555
C6B N1B 1_555 1_555
H6B C6B 1_555 1_555
H7B C6B 1_555 1_555
H8B C6B 1_555 1_555
O1B_2 Mn1 1_555 1_555
O4B_2 Mn1 1_555 1_555
C1 C2 1_555 1_555
S1B C1B 1_555 1_555
C1B C2B 1_555 1_555
C2B C3B 1_555 1_555

#END
