
#######################################################################
#
#                 Cambridge Crystallographic Data Centre
#                                CCDC 
#
#######################################################################
#
# If this CIF has been generated from an entry in the Cambridge 
# Structural Database, then it will include bibliographic, chemical, 
# crystal, experimental, refinement or atomic coordinate data resulting 
# from the CCDC's data processing and validation procedures.
#
#######################################################################

data_FOPBIX
_symmetry_cell_setting           triclinic
_symmetry_space_group_name_H-M   'P -1'
_symmetry_Int_Tables_number      2
_space_group_name_Hall           '-P 1'
loop_
_symmetry_equiv_pos_site_id
_symmetry_equiv_pos_as_xyz
1 x,y,z
2 -x,-y,-z
_cell_length_a                   12.994
_cell_length_b                   16.06410(10)
_cell_length_c                   17.3404(4)
_cell_angle_alpha                114.882(6)
_cell_angle_beta                 98.214(10)
_cell_angle_gamma                102.015(8)
_cell_volume                     3101.45
loop_
_atom_site_label
_atom_site_type_symbol
_atom_site_fract_x
_atom_site_fract_y
_atom_site_fract_z
Cd1 Cd 0.5000 0.0000 0.0000
Cd2 Cd 0.71098(2) -0.077220(18) -0.081477(16)
Cd3 Cd 0.03689(2) -0.338411(18) 0.287524(16)
Cd4 Cd -0.27004(2) -0.321211(18) 0.381552(17)
Cd5 Cd 0.35834(2) -0.386686(18) 0.330619(16)
O1 O 0.5759(2) -0.3481(2) 0.2777(2)
O2 O 0.1182(2) -0.2547(2) 0.43322(18)
O3 O 0.5787(2) -0.11737(19) -0.00525(18)
N1 N 0.1026(2) -0.4551(2) 0.2057(2)
O4 O -0.3358(2) -0.93040(18) -0.01734(18)
O5 O 0.7517(2) -0.1008(2) 0.0435(2)
N2 N -0.1408(2) -0.2207(2) 0.3604(2)
O6 O 0.5765(2) -0.1065(2) 0.80444(18)
N3 N -0.0652(2) -0.2350(2) 0.3131(2)
O7 O -0.0877(2) -0.43113(19) 0.32684(18)
N4 N -0.3970(2) -0.3526(2) 0.4536(2)
O8 O -0.1622(3) -0.9143(2) 0.0232(2)
O9 O 0.8152(3) -0.0900(2) -0.1759(2)
O10 O 0.4352(2) -0.0727(2) 0.85797(18)
N5 N -0.5068(2) -0.3765(2) 0.4373(2)
N6 N 0.0900(2) -0.6013(2) 0.1012(2)
N7 N -0.4429(2) -0.3723(2) 0.5666(2)
O11 O -0.2687(3) -0.4658(2) 0.2937(2)
N8 N 0.1919(2) -0.4776(2) 0.2302(2)
N9 N -0.7187(2) -0.4323(2) 0.4368(2)
N10 N -0.1794(3) -0.3129(2) 0.5202(2)
N11 N 0.1184(3) -0.2081(2) 0.2548(2)
C1 C 0.1823(3) -0.5645(2) 0.1670(2)
N12 N -0.0914(3) -0.4519(3) 0.1246(2)
C2 C -0.6445(3) -0.4111(3) 0.5092(3)
C3 C -0.5310(3) -0.3875(3) 0.5055(2)
C4 C 0.0444(3) -0.5302(3) 0.1291(2)
O12 O 0.2611(2) -0.27664(19) 0.38044(17)
C5 C 0.2186(3) -0.2457(2) 0.4435(2)
C6 C -0.3624(3) -0.3510(3) 0.5311(2)
C7 C 0.2883(3) -0.1997(3) 0.5364(2)
C8 C -0.2455(3) -0.3274(3) 0.5688(2)
C9 C -0.0597(3) -0.5292(3) 0.0832(3)
N13 N 0.3631(3) -0.5509(2) 0.2316(2)
N14 N -0.0598(3) -0.0796(2) 0.3658(3)
C10 C 0.2492(3) -0.7092(3) 0.1316(3)
H1 H 0.1823 -0.7490 0.0919
C11 C -0.1954(3) -0.5899(3) 0.2205(2)
C12 C -0.1110(3) -0.6304(3) 0.2198(3)
H2 H -0.0441 -0.5939 0.2608
N15 N -0.2745(3) -0.1498(2) 0.4595(3)
N16 N -0.0986(3) -0.3026(3) 0.6834(3)
C13 C 0.4623(3) -0.1477(3) 0.6375(2)
H3 H 0.5374 -0.1361 0.6480
C14 C 0.2665(3) -0.6103(2) 0.1750(2)
C15 C 0.3992(3) -0.1811(3) 0.5528(2)
H4 H 0.4323 -0.1910 0.5069
C16 C -0.1811(3) -0.4876(3) 0.2853(2)
C17 C -0.1349(3) -0.1281(3) 0.3897(3)
C18 C -0.8226(3) -0.4478(3) 0.4411(3)
H5 H -0.8770 -0.4628 0.3921
C19 C -0.0188(3) -0.1495(3) 0.3185(3)
C20 C 0.0720(3) -0.1367(3) 0.2804(3)
C21 C -0.2940(3) -0.6447(3) 0.1587(3)
H6 H -0.3510 -0.6181 0.1579
N17 N 0.1971(4) -0.0438(3) 0.2381(3)
C22 C -0.2042(3) -0.3218(3) 0.6495(3)
H7 H -0.2527 -0.3319 0.6815
C23 C -0.2065(3) -0.0883(3) 0.4443(3)
C24 C 0.2407(3) -0.1794(4) 0.6060(3)
H8 H 0.1659 -0.1892 0.5959
C25 C 0.4411(3) -0.5903(3) 0.2420(3)
H9 H 0.5096 -0.5507 0.2787
N18 N -0.7782(4) -0.4238(4) 0.5874(3)
C26 C 0.3038(3) -0.1444(4) 0.6908(3)
H10 H 0.2716 -0.1297 0.7375
N19 N -0.2134(3) -0.6024(4) -0.0406(3)
C27 C -0.3413(4) -0.1166(3) 0.5084(4)
H11 H -0.3896 -0.1580 0.5206
C28 C -0.6746(4) -0.4088(4) 0.5838(3)
H12 H -0.6211 -0.3965 0.6322
C29 C -0.1202(4) -0.6033(3) 0.0017(3)
H13 H -0.0947 -0.6558 -0.0245
C30 C -0.0720(3) -0.2938(4) 0.5531(3)
H14 H -0.0233 -0.2841 0.5210
C31 C -0.0338(4) -0.2884(4) 0.6340(3)
H15 H 0.0409 -0.2740 0.6553
C32 C -0.8506(4) -0.4421(4) 0.5160(4)
H16 H -0.9235 -0.4514 0.5167
C33 C 0.2041(4) -0.1964(3) 0.2223(3)
H17 H 0.2386 -0.2440 0.2051
C34 C -0.1846(4) -0.4507(4) 0.0821(4)
H18 H -0.2101 -0.3983 0.1085
C35 C 0.1122(4) -0.0553(4) 0.2716(4)
H19 H 0.0788 -0.0069 0.2896
C36 C 0.2425(4) -0.1147(4) 0.2135(4)
H20 H 0.3018 -0.1091 0.1897
N20 N 0.3264(3) -0.7480(2) 0.1458(2)
C37 C -0.2239(3) -0.7787(3) 0.0976(3)
C38 C -0.1245(3) -0.7236(3) 0.1595(3)
H21 H -0.0672 -0.7499 0.1602
C39 C -0.3085(3) -0.7386(3) 0.0983(3)
H22 H -0.3757 -0.7752 0.0578
C40 C 0.4227(3) -0.6882(3) 0.1997(3)
H23 H 0.4789 -0.7132 0.2091
N21 N -0.2711(4) 0.0411(3) 0.5270(3)
C41 C -0.2052(4) 0.0074(3) 0.4793(4)
H24 H -0.1555 0.0494 0.4685
C42 C -0.3402(4) -0.0220(4) 0.5409(4)
H25 H -0.3890 -0.0014 0.5736
C43 C -0.2446(4) -0.5240(4) 0.0007(4)
H26 H -0.3086 -0.5191 -0.0264
C44 C 0.4140(3) -0.1316(3) 0.7057(2)
C45 C 0.4825(3) -0.1007(3) 0.7974(2)
C46 C -0.2407(3) -0.8801(3) 0.0314(3)
C47 C 0.6549(3) -0.1226(3) 0.0462(3)
C48 C 0.6242(3) -0.1628(3) 0.1063(3)
C49 C 0.6921(4) -0.2026(4) 0.1387(3)
H27 H 0.7606 -0.1990 0.1279
C50 C 0.6585(4) -0.2480(4) 0.1875(3)
H28 H 0.7043 -0.2756 0.2084
C51 C 0.5236(4) -0.1665(4) 0.1248(4)
H29 H 0.4773 -0.1397 0.1035
C52 C 0.4924(4) -0.2100(4) 0.1747(4)
H30 H 0.4256 -0.2108 0.1883
C53 C 0.5589(3) -0.2526(3) 0.2050(3)
O13 O 0.4274(3) -0.3027(3) 0.2697(3)
C54 C 0.5197(3) -0.3046(3) 0.2552(3)
Cd2A Cd -0.71098(2) -0.922780(18) 0.081477(16)
Cd3A Cd -0.03689(2) -0.661589(18) -0.287524(16)
Cd4A Cd 0.27004(2) -0.678789(18) -0.381552(17)
Cd5A Cd -0.35834(2) -0.613314(18) -0.330619(16)
O1A O -0.5759(2) -0.6519(2) -0.2777(2)
O2A O -0.1182(2) -0.7453(2) -0.43322(18)
O3A O -0.5787(2) -0.88263(19) 0.00525(18)
N1A N -0.1026(2) -0.5449(2) -0.2057(2)
O4A O 0.3358(2) -0.06960(18) 0.01734(18)
O5A O -0.7517(2) -0.8992(2) -0.0435(2)
N2A N 0.1408(2) -0.7793(2) -0.3604(2)
O6A O -0.5765(2) -0.8935(2) -0.80444(18)
N3A N 0.0652(2) -0.7650(2) -0.3131(2)
O7A O 0.0877(2) -0.56887(19) -0.32684(18)
N4A N 0.3970(2) -0.6474(2) -0.4536(2)
O8A O 0.1622(3) -0.0857(2) -0.0232(2)
O9A O -0.8152(3) -0.9100(2) 0.1759(2)
O10A O -0.4352(2) -0.9273(2) -0.85797(18)
N5A N 0.5068(2) -0.6235(2) -0.4373(2)
N6A N -0.0900(2) -0.3987(2) -0.1012(2)
N7A N 0.4429(2) -0.6277(2) -0.5666(2)
O11A O 0.2687(3) -0.5342(2) -0.2937(2)
N8A N -0.1919(2) -0.5224(2) -0.2302(2)
N9A N 0.7187(2) -0.5677(2) -0.4368(2)
N10A N 0.1794(3) -0.6871(2) -0.5202(2)
N11A N -0.1184(3) -0.7919(2) -0.2548(2)
C1A C -0.1823(3) -0.4355(2) -0.1670(2)
N12A N 0.0914(3) -0.5481(3) -0.1246(2)
C2A C 0.6445(3) -0.5889(3) -0.5092(3)
C3A C 0.5310(3) -0.6125(3) -0.5055(2)
C4A C -0.0444(3) -0.4698(3) -0.1291(2)
O12A O -0.2611(2) -0.72336(19) -0.38044(17)
C5A C -0.2186(3) -0.7543(2) -0.4435(2)
C6A C 0.3624(3) -0.6490(3) -0.5311(2)
C7A C -0.2883(3) -0.8003(3) -0.5364(2)
C8A C 0.2455(3) -0.6726(3) -0.5688(2)
C9A C 0.0597(3) -0.4708(3) -0.0832(3)
N13A N -0.3631(3) -0.4491(2) -0.2316(2)
N14A N 0.0598(3) -0.9204(2) -0.3658(3)
C10A C -0.2492(3) -0.2908(3) -0.1316(3)
H1A H -0.1823 -0.2510 -0.0919
C11A C 0.1954(3) -0.4101(3) -0.2205(2)
C12A C 0.1110(3) -0.3696(3) -0.2198(3)
H2A H 0.0441 -0.4061 -0.2608
N15A N 0.2745(3) -0.8502(2) -0.4595(3)
N16A N 0.0986(3) -0.6974(3) -0.6834(3)
C13A C -0.4623(3) -0.8523(3) -0.6375(2)
H3A H -0.5374 -0.8639 -0.6480
C14A C -0.2665(3) -0.3897(2) -0.1750(2)
C15A C -0.3992(3) -0.8189(3) -0.5528(2)
H4A H -0.4323 -0.8090 -0.5069
C16A C 0.1811(3) -0.5124(3) -0.2853(2)
C17A C 0.1349(3) -0.8719(3) -0.3897(3)
C18A C 0.8226(3) -0.5522(3) -0.4411(3)
H5A H 0.8770 -0.5372 -0.3921
C19A C 0.0188(3) -0.8505(3) -0.3185(3)
C20A C -0.0720(3) -0.8633(3) -0.2804(3)
C21A C 0.2940(3) -0.3553(3) -0.1587(3)
H6A H 0.3510 -0.3819 -0.1579
N17A N -0.1971(4) -0.9562(3) -0.2381(3)
C22A C 0.2042(3) -0.6782(3) -0.6495(3)
H7A H 0.2527 -0.6681 -0.6815
C23A C 0.2065(3) -0.9117(3) -0.4443(3)
C24A C -0.2407(3) -0.8206(4) -0.6060(3)
H8A H -0.1659 -0.8108 -0.5959
C25A C -0.4411(3) -0.4097(3) -0.2420(3)
H9A H -0.5096 -0.4493 -0.2787
N18A N 0.7782(4) -0.5762(4) -0.5874(3)
C26A C -0.3038(3) -0.8556(4) -0.6908(3)
H10A H -0.2716 -0.8703 -0.7375
N19A N 0.2134(3) -0.3976(4) 0.0406(3)
C27A C 0.3413(4) -0.8834(3) -0.5084(4)
H11A H 0.3896 -0.8420 -0.5206
C28A C 0.6746(4) -0.5912(4) -0.5838(3)
H12A H 0.6211 -0.6035 -0.6322
C29A C 0.1202(4) -0.3967(3) -0.0017(3)
H13A H 0.0947 -0.3442 0.0245
C30A C 0.0720(3) -0.7062(4) -0.5531(3)
H14A H 0.0233 -0.7159 -0.5210
C31A C 0.0338(4) -0.7116(4) -0.6340(3)
H15A H -0.0409 -0.7260 -0.6553
C32A C 0.8506(4) -0.5579(4) -0.5160(4)
H16A H 0.9235 -0.5486 -0.5167
C33A C -0.2041(4) -0.8036(3) -0.2223(3)
H17A H -0.2386 -0.7560 -0.2051
C34A C 0.1846(4) -0.5493(4) -0.0821(4)
H18A H 0.2101 -0.6017 -0.1085
C35A C -0.1122(4) -0.9447(4) -0.2716(4)
H19A H -0.0788 -0.9931 -0.2896
C36A C -0.2425(4) -0.8853(4) -0.2135(4)
H20A H -0.3018 -0.8909 -0.1897
N20A N -0.3264(3) -0.2520(2) -0.1458(2)
C37A C 0.2239(3) -0.2213(3) -0.0976(3)
C38A C 0.1245(3) -0.2764(3) -0.1595(3)
H21A H 0.0672 -0.2501 -0.1602
C39A C 0.3085(3) -0.2614(3) -0.0983(3)
H22A H 0.3757 -0.2248 -0.0578
C40A C -0.4227(3) -0.3118(3) -0.1997(3)
H23A H -0.4789 -0.2868 -0.2091
N21A N 0.2711(4) -1.0411(3) -0.5270(3)
C41A C 0.2052(4) -1.0074(3) -0.4793(4)
H24A H 0.1555 -1.0494 -0.4685
C42A C 0.3402(4) -0.9780(4) -0.5409(4)
H25A H 0.3890 -0.9986 -0.5736
C43A C 0.2446(4) -0.4760(4) -0.0007(4)
H26A H 0.3086 -0.4809 0.0264
C44A C -0.4140(3) -0.8684(3) -0.7057(2)
C45A C -0.4825(3) -0.8993(3) -0.7974(2)
C46A C 0.2407(3) -0.1199(3) -0.0314(3)
C47A C -0.6549(3) -0.8774(3) -0.0462(3)
C48A C -0.6242(3) -0.8372(3) -0.1063(3)
C49A C -0.6921(4) -0.7974(4) -0.1387(3)
H27A H -0.7606 -0.8010 -0.1279
C50A C -0.6585(4) -0.7520(4) -0.1875(3)
H28A H -0.7043 -0.7244 -0.2084
C51A C -0.5236(4) -0.8335(4) -0.1248(4)
H29A H -0.4773 -0.8603 -0.1035
C52A C -0.4924(4) -0.7900(4) -0.1747(4)
H30A H -0.4256 -0.7892 -0.1883
C53A C -0.5589(3) -0.7474(3) -0.2050(3)
O13A O -0.4274(3) -0.6973(3) -0.2697(3)
C54A C -0.5197(3) -0.6954(3) -0.2552(3)
Cd1_2 Cd -0.5000 -1.0000 -1.0000
Cd1_3 Cd -0.5000 -1.0000 0.0000
Cd1_4 Cd 0.5000 0.0000 1.0000
Cd2_2 Cd -0.28902(2) -1.077220(18) -0.081477(16)
Cd2_3 Cd -0.28902(2) -0.077220(18) -0.081477(16)
Cd2_4 Cd 0.71098(2) -0.077220(18) 0.918523(16)
Cd2A_2 Cd -0.71098(2) -0.922780(18) -0.918523(16)
Cd2A_3 Cd 0.28902(2) -0.922780(18) 0.081477(16)
Cd2A_4 Cd 0.28902(2) 0.077220(18) 0.081477(16)
Cd4_2 Cd 0.72996(2) -0.321211(18) 0.381552(17)
Cd4A_2 Cd -0.72996(2) -0.678789(18) -0.381552(17)
Cd5_2 Cd -0.64166(2) -0.386686(18) 0.330619(16)
Cd5A_2 Cd 0.64166(2) -0.613314(18) -0.330619(16)
O1_2 O -0.4241(2) -0.3481(2) 0.2777(2)
O1A_2 O 0.4241(2) -0.6519(2) -0.2777(2)
O3A_2 O 0.4213(2) 0.11737(19) 0.00525(18)
O4_2 O 0.6642(2) 0.06960(18) -0.01734(18)
O4A_2 O -0.6642(2) -1.06960(18) 0.01734(18)
O6_2 O 0.5765(2) -0.1065(2) -0.19556(18)
O6A_2 O -0.5765(2) -0.8935(2) 0.19556(18)
O8_2 O 0.8378(3) 0.0857(2) 0.0232(2)
O8A_2 O -0.8378(3) -1.0857(2) -0.0232(2)
O10_2 O 0.4352(2) -0.0727(2) -0.14203(18)
O10A_2 O 0.5648(2) 0.0727(2) 0.14203(18)
N5_2 N 0.4932(2) -0.3765(2) 0.4373(2)
N5A_2 N -0.4932(2) -0.6235(2) -0.4373(2)
N9_2 N 0.2813(2) -0.4323(2) 0.4368(2)
N9A_2 N -0.2813(2) -0.5677(2) -0.4368(2)
N20_2 N -0.6736(3) -0.7480(2) 0.1458(2)
N20A_2 N 0.6736(3) -0.2520(2) -0.1458(2)
O14 O 0.0032(6) -0.8029(5) -0.0420(5)
O15 O 1.0310(5) -0.0254(9) -0.1338(7)
loop_
_geom_bond_atom_site_label_1
_geom_bond_atom_site_label_2
_geom_bond_site_symmetry_1
_geom_bond_site_symmetry_2
Cd1 O3 1_555 1_555
Cd2 O3 1_555 1_555
Cd3 O2 1_555 1_555
Cd4 N2 1_555 1_555
Cd5 N8 1_555 1_555
O1 C54 1_555 1_555
O2 C5 1_555 1_555
O3 C47 1_555 1_555
N1 Cd3 1_555 1_555
O4 C46 1_555 1_555
O5 Cd2 1_555 1_555
N2 N3 1_555 1_555
O6 C45 1_555 1_555
N3 Cd3 1_555 1_555
O7 Cd3 1_555 1_555
N4 Cd4 1_555 1_555
O8 C46 1_555 1_555
O9 Cd2 1_555 1_555
O10 C45 1_555 1_555
N5 N4 1_555 1_555
N6 C1 1_555 1_555
N7 C3 1_555 1_555
O11 Cd4 1_555 1_555
N8 N1 1_555 1_555
N9 C2 1_555 1_555
N10 Cd4 1_555 1_555
N11 Cd3 1_555 1_555
C1 N8 1_555 1_555
N12 Cd3 1_555 1_555
C2 C3 1_555 1_555
C3 N5 1_555 1_555
C4 N1 1_555 1_555
O12 Cd5 1_555 1_555
C5 O12 1_555 1_555
C6 N4 1_555 1_555
C7 C5 1_555 1_555
C8 N10 1_555 1_555
C9 N12 1_555 1_555
N13 Cd5 1_555 1_555
N14 C17 1_555 1_555
C10 H1 1_555 1_555
C11 C12 1_555 1_555
C12 H2 1_555 1_555
N15 Cd4 1_555 1_555
N16 C22 1_555 1_555
C13 H3 1_555 1_555
C14 C1 1_555 1_555
C15 C7 1_555 1_555
H4 C15 1_555 1_555
C16 O7 1_555 1_555
C17 N2 1_555 1_555
C18 N9 1_555 1_555
H5 C18 1_555 1_555
C19 N3 1_555 1_555
C20 N11 1_555 1_555
C21 C11 1_555 1_555
H6 C21 1_555 1_555
N17 C35 1_555 1_555
C22 C8 1_555 1_555
H7 C22 1_555 1_555
C23 N15 1_555 1_555
C24 C7 1_555 1_555
H8 C24 1_555 1_555
C25 N13 1_555 1_555
H9 C25 1_555 1_555
N18 C28 1_555 1_555
C26 C24 1_555 1_555
H10 C26 1_555 1_555
N19 C29 1_555 1_555
C27 N15 1_555 1_555
H11 C27 1_555 1_555
C28 C2 1_555 1_555
H12 C28 1_555 1_555
C29 C9 1_555 1_555
H13 C29 1_555 1_555
C30 N10 1_555 1_555
H14 C30 1_555 1_555
C31 N16 1_555 1_555
H15 C31 1_555 1_555
C32 C18 1_555 1_555
H16 C32 1_555 1_555
C33 N11 1_555 1_555
H17 C33 1_555 1_555
C34 N12 1_555 1_555
H18 C34 1_555 1_555
C35 C20 1_555 1_555
H19 C35 1_555 1_555
C36 N17 1_555 1_555
H20 C36 1_555 1_555
N20 C10 1_555 1_555
C37 C38 1_555 1_555
C38 C12 1_555 1_555
H21 C38 1_555 1_555
C39 C21 1_555 1_555
H22 C39 1_555 1_555
C40 C25 1_555 1_555
H23 C40 1_555 1_555
N21 C41 1_555 1_555
C41 C23 1_555 1_555
H24 C41 1_555 1_555
C42 C27 1_555 1_555
H25 C42 1_555 1_555
C43 N19 1_555 1_555
H26 C43 1_555 1_555
C44 C13 1_555 1_555
C45 C44 1_555 1_555
C46 C37 1_555 1_555
C47 O5 1_555 1_555
C48 C47 1_555 1_555
C49 C48 1_555 1_555
H27 C49 1_555 1_555
C50 C49 1_555 1_555
H28 C50 1_555 1_555
C51 C48 1_555 1_555
H29 C51 1_555 1_555
C52 C51 1_555 1_555
H30 C52 1_555 1_555
C53 C50 1_555 1_555
O13 Cd5 1_555 1_555
C54 C53 1_555 1_555
Cd2A O3A 1_555 1_555
Cd3A O2A 1_555 1_555
Cd4A N2A 1_555 1_555
Cd5A N8A 1_555 1_555
O1A C54A 1_555 1_555
O2A C5A 1_555 1_555
O3A C47A 1_555 1_555
N1A Cd3A 1_555 1_555
O4A Cd1 1_555 1_555
O5A Cd2A 1_555 1_555
N2A N3A 1_555 1_555
O6A C45A 1_555 1_555
N3A Cd3A 1_555 1_555
O7A Cd3A 1_555 1_555
N4A Cd4A 1_555 1_555
O8A C46A 1_555 1_555
O9A Cd2A 1_555 1_555
O10A C45A 1_555 1_555
N5A N4A 1_555 1_555
N6A C1A 1_555 1_555
N7A C3A 1_555 1_555
O11A Cd4A 1_555 1_555
N8A N1A 1_555 1_555
N9A C2A 1_555 1_555
N10A Cd4A 1_555 1_555
N11A Cd3A 1_555 1_555
C1A N8A 1_555 1_555
N12A Cd3A 1_555 1_555
C2A C3A 1_555 1_555
C3A N5A 1_555 1_555
C4A N1A 1_555 1_555
O12A Cd5A 1_555 1_555
C5A O12A 1_555 1_555
C6A N4A 1_555 1_555
C7A C5A 1_555 1_555
C8A N10A 1_555 1_555
C9A N12A 1_555 1_555
N13A Cd5A 1_555 1_555
N14A C17A 1_555 1_555
C10A H1A 1_555 1_555
C11A C12A 1_555 1_555
C12A H2A 1_555 1_555
N15A Cd4A 1_555 1_555
N16A C22A 1_555 1_555
C13A H3A 1_555 1_555
C14A C1A 1_555 1_555
C15A C7A 1_555 1_555
H4A C15A 1_555 1_555
C16A O7A 1_555 1_555
C17A N2A 1_555 1_555
C18A N9A 1_555 1_555
H5A C18A 1_555 1_555
C19A N3A 1_555 1_555
C20A N11A 1_555 1_555
C21A C11A 1_555 1_555
H6A C21A 1_555 1_555
N17A C35A 1_555 1_555
C22A C8A 1_555 1_555
H7A C22A 1_555 1_555
C23A N15A 1_555 1_555
C24A C7A 1_555 1_555
H8A C24A 1_555 1_555
C25A N13A 1_555 1_555
H9A C25A 1_555 1_555
N18A C28A 1_555 1_555
C26A C24A 1_555 1_555
H10A C26A 1_555 1_555
N19A C29A 1_555 1_555
C27A N15A 1_555 1_555
H11A C27A 1_555 1_555
C28A C2A 1_555 1_555
H12A C28A 1_555 1_555
C29A C9A 1_555 1_555
H13A C29A 1_555 1_555
C30A N10A 1_555 1_555
H14A C30A 1_555 1_555
C31A N16A 1_555 1_555
H15A C31A 1_555 1_555
C32A C18A 1_555 1_555
H16A C32A 1_555 1_555
C33A N11A 1_555 1_555
H17A C33A 1_555 1_555
C34A N12A 1_555 1_555
H18A C34A 1_555 1_555
C35A C20A 1_555 1_555
H19A C35A 1_555 1_555
C36A N17A 1_555 1_555
H20A C36A 1_555 1_555
N20A C10A 1_555 1_555
C37A C38A 1_555 1_555
C38A C12A 1_555 1_555
H21A C38A 1_555 1_555
C39A C21A 1_555 1_555
H22A C39A 1_555 1_555
C40A C25A 1_555 1_555
H23A C40A 1_555 1_555
N21A C41A 1_555 1_555
C41A C23A 1_555 1_555
H24A C41A 1_555 1_555
C42A C27A 1_555 1_555
H25A C42A 1_555 1_555
C43A N19A 1_555 1_555
H26A C43A 1_555 1_555
C44A C13A 1_555 1_555
C45A C44A 1_555 1_555
C46A O4A 1_555 1_555
C47A O5A 1_555 1_555
C48A C47A 1_555 1_555
C49A C48A 1_555 1_555
H27A C49A 1_555 1_555
C50A C49A 1_555 1_555
H28A C50A 1_555 1_555
C51A C48A 1_555 1_555
H29A C51A 1_555 1_555
C52A C51A 1_555 1_555
H30A C52A 1_555 1_555
C53A C50A 1_555 1_555
O13A Cd5A 1_555 1_555
C54A C53A 1_555 1_555
Cd1_2 O10A 1_555 1_555
Cd1_3 O4 1_555 1_555
Cd1_4 O10 1_555 1_555
Cd2_2 O4 1_555 1_555
Cd2_3 N20A 1_555 1_555
Cd2_4 O6 1_555 1_555
Cd2A_2 O6A 1_555 1_555
Cd2A_3 N20 1_555 1_555
Cd2A_4 O4A 1_555 1_555
Cd4_2 O1 1_555 1_555
Cd4A_2 O1A 1_555 1_555
Cd5_2 N5 1_555 1_555
Cd5A_2 N5A 1_555 1_555
O1_2 Cd4 1_555 1_555
O1A_2 Cd4A 1_555 1_555
O3A_2 Cd1 1_555 1_555
O4_2 Cd1 1_555 1_555
O4A_2 Cd2A 1_555 1_555
O6_2 Cd2 1_555 1_555
O6A_2 Cd2A 1_555 1_555
O8_2 Cd2 1_555 1_555
O8A_2 Cd2A 1_555 1_555
O10_2 Cd1 1_555 1_555
O10A_2 Cd1 1_555 1_555
N5_2 Cd5 1_555 1_555
N5A_2 Cd5A 1_555 1_555
N9_2 Cd5 1_555 1_555
N9A_2 Cd5A 1_555 1_555
N20_2 Cd2A 1_555 1_555
N20A_2 Cd2 1_555 1_555
Cd2 O4_2 1_555 1_555
O8 Cd2_2 1_555 1_555
N6 C4 1_555 1_555
N7 C6 1_555 1_555
O11 C16 1_555 1_555
N9 Cd5_2 1_555 1_555
C4 C9 1_555 1_555
C6 C8 1_555 1_555
N13 C14 1_555 1_555
N14 C19 1_555 1_555
C10 C14 1_555 1_555
C11 C16 1_555 1_555
C13 C15 1_555 1_555
C17 C23 1_555 1_555
C19 C20 1_555 1_555
N18 C32 1_555 1_555
C26 C44 1_555 1_555
C30 C31 1_555 1_555
C33 C36 1_555 1_555
C34 C43 1_555 1_555
N20 C40 1_555 1_555
C37 C39 1_555 1_555
N21 C42 1_555 1_555
C52 C53 1_555 1_555
O13 C54 1_555 1_555
O3A Cd1_3 1_555 1_555
O8A Cd2A_4 1_555 1_555
N6A C4A 1_555 1_555
N7A C6A 1_555 1_555
O11A C16A 1_555 1_555
N9A Cd5A_2 1_555 1_555
C4A C9A 1_555 1_555
C6A C8A 1_555 1_555
N13A C14A 1_555 1_555
N14A C19A 1_555 1_555
C10A C14A 1_555 1_555
C11A C16A 1_555 1_555
C13A C15A 1_555 1_555
C17A C23A 1_555 1_555
C19A C20A 1_555 1_555
N18A C32A 1_555 1_555
C26A C44A 1_555 1_555
C30A C31A 1_555 1_555
C33A C36A 1_555 1_555
C34A C43A 1_555 1_555
N20A C40A 1_555 1_555
C37A C39A 1_555 1_555
C37A C46A 1_555 1_555
N21A C42A 1_555 1_555
C52A C53A 1_555 1_555
O13A C54A 1_555 1_555
Cd1_3 O4A_2 1_555 1_555
Cd2A_4 O3A_2 1_555 1_555

#END
