
#######################################################################
#
#                 Cambridge Crystallographic Data Centre
#                                CCDC 
#
#######################################################################
#
# If this CIF has been generated from an entry in the Cambridge 
# Structural Database, then it will include bibliographic, chemical, 
# crystal, experimental, refinement or atomic coordinate data resulting 
# from the CCDC's data processing and validation procedures.
#
#######################################################################

data_FOPBOD
_symmetry_cell_setting           triclinic
_symmetry_space_group_name_H-M   'P -1'
_symmetry_Int_Tables_number      2
_space_group_name_Hall           '-P 1'
loop_
_symmetry_equiv_pos_site_id
_symmetry_equiv_pos_as_xyz
1 x,y,z
2 -x,-y,-z
_cell_length_a                   9.852(3)
_cell_length_b                   10.626(3)
_cell_length_c                   14.145(5)
_cell_angle_alpha                82.691(8)
_cell_angle_beta                 88.688(11)
_cell_angle_gamma                72.313(8)
_cell_volume                     1399.15
loop_
_atom_site_label
_atom_site_type_symbol
_atom_site_fract_x
_atom_site_fract_y
_atom_site_fract_z
Zn1 Zn 0.36014(3) 0.78309(3) 0.10251(2)
Zn2 Zn 0.66458(3) 0.73653(4) 0.50363(2)
O1 O 0.3386(2) 0.6010(2) 0.16248(16)
O2 O 0.7061(2) 0.9390(2) 0.42650(16)
O3 O 0.3673(2) 0.9695(2) 0.04019(16)
O4 O 0.6297(3) 0.5601(2) 0.56364(19)
O5 O 0.2406(2) 0.77273(19) -0.01459(13)
O6 O -0.1690(2) 0.6971(2) -0.40681(14)
O7 O 0.3410(2) 0.5556(2) -0.02301(14)
O8 O -0.3022(2) 0.8723(2) -0.24002(15)
O9 O 0.0281(2) 0.6232(2) 0.03021(15)
O10 O 0.2714(2) 0.7929(2) -0.42767(15)
O11 O -0.2676(2) 0.6586(2) -0.18287(16)
O12 O 0.5438(2) 0.8624(2) 0.59284(16)
O13 O 0.5545(2) 0.7025(2) 0.03752(16)
O14 O 0.4478(2) 0.5517(2) -0.28670(14)
C1 C 0.7069(3) 0.7013(3) 0.29547(19)
O15 O 0.4546(2) 0.7081(2) -0.19656(16)
N1 N 0.9109(3) 0.6337(3) 0.20075(18)
C2 C -0.2244(3) 0.7609(3) -0.21172(19)
N2 N 0.5104(2) 0.7720(3) 0.39927(16)
N3 N 0.1689(2) 0.8772(2) 0.17522(17)
O16 O 0.1868(2) 0.6333(2) -0.46535(15)
C3 C -0.0646(3) 0.7299(2) -0.21425(18)
N4 N 0.3658(2) 0.8178(2) 0.39668(16)
N5 N 0.4422(2) 0.7905(2) 0.24801(16)
C4 C -0.0031(3) 0.7315(2) -0.30398(18)
C5 C 0.1822(3) 0.8724(3) 0.26971(19)
C6 C 0.1676(3) 0.6827(2) -0.14001(18)
C7 C -0.0490(3) 0.7078(3) -0.03681(19)
C8 C 0.7697(3) 0.6855(3) 0.2078(2)
H1 H 0.7130 0.7113 0.1528
C9 C 0.2581(3) 0.6672(3) -0.05189(18)
C10 C 0.0620(3) 0.9052(3) 0.3262(2)
H2 H 0.0734 0.8994 0.3918
N6 N -0.0686(3) 0.9447(3) 0.2884(2)
N7 N 0.7865(2) 0.6669(2) 0.37602(16)
C11 C 0.1441(3) 0.7037(3) -0.31110(18)
C12 C 0.3293(3) 0.8271(3) 0.30631(19)
C13 C 0.5529(3) 0.7558(3) 0.31058(19)
C14 C 0.9888(3) 0.5973(3) 0.2802(2)
H3 H 1.0869 0.5588 0.2768
C15 C 0.2049(3) 0.7045(3) -0.40957(19)
C16 C 0.2302(3) 0.6793(3) -0.22960(18)
O17 O -0.1671(2) 0.7818(2) -0.02480(16)
C17 C 0.0198(3) 0.7052(2) -0.13208(18)
C18 C 0.3907(3) 0.6453(3) -0.23869(19)
C19 C 0.0382(3) 0.9181(3) 0.1374(2)
H4 H 0.0261 0.9228 0.0719
C20 C 0.9272(3) 0.6155(3) 0.3682(2)
H5 H 0.9846 0.5915 0.4229
C21 C -0.0792(3) 0.9534(3) 0.1939(2)
H6 H -0.1692 0.9844 0.1652
O18 O -0.0901(3) 0.8734(2) -0.44414(17)
C22 C -0.0944(3) 0.7711(3) -0.39338(19)
H7 H -0.016(5) 0.634(4) 0.085(3)
H8 H 0.294(3) 0.799(3) -0.496(2)
H9 H -0.3557 0.6763 -0.1854
Zn2_2 Zn -0.33542(3) 0.73653(4) -0.49637(2)
O6_2 O 0.8310(2) 0.6971(2) 0.59319(14)
O19 O 0.4146(3) 0.9600(3) -0.14910(19)
loop_
_geom_bond_atom_site_label_1
_geom_bond_atom_site_label_2
_geom_bond_site_symmetry_1
_geom_bond_site_symmetry_2
Zn1 O1 1_555 1_555
Zn2 O2 1_555 1_555
O3 Zn1 1_555 1_555
O4 Zn2 1_555 1_555
O5 Zn1 1_555 1_555
O6 C22 1_555 1_555
O7 C9 1_555 1_555
O8 C2 1_555 1_555
O9 C7 1_555 1_555
O10 C15 1_555 1_555
O11 C2 1_555 1_555
O12 Zn2 1_555 1_555
O13 Zn1 1_555 1_555
O14 C18 1_555 1_555
C1 C8 1_555 1_555
O15 C18 1_555 1_555
N1 C8 1_555 1_555
C2 C3 1_555 1_555
N2 Zn2 1_555 1_555
N3 Zn1 1_555 1_555
O16 C15 1_555 1_555
C3 C4 1_555 1_555
N4 N2 1_555 1_555
N5 Zn1 1_555 1_555
C4 C11 1_555 1_555
C5 N3 1_555 1_555
C6 C9 1_555 1_555
C7 O17 1_555 1_555
C8 H1 1_555 1_555
C9 O5 1_555 1_555
C10 C5 1_555 1_555
H2 C10 1_555 1_555
N6 C10 1_555 1_555
N7 Zn2 1_555 1_555
C11 C15 1_555 1_555
C12 N4 1_555 1_555
C13 C1 1_555 1_555
C14 N1 1_555 1_555
H3 C14 1_555 1_555
C16 C6 1_555 1_555
C17 C3 1_555 1_555
C18 C16 1_555 1_555
C19 N3 1_555 1_555
H4 C19 1_555 1_555
C20 N7 1_555 1_555
H5 C20 1_555 1_555
C21 N6 1_555 1_555
H6 C21 1_555 1_555
O18 C22 1_555 1_555
C22 C4 1_555 1_555
H7 O9 1_555 1_555
H8 O10 1_555 1_555
H9 O11 1_555 1_555
Zn2_2 O6 1_555 1_555
O6_2 Zn2 1_555 1_555
C1 N7 1_555 1_555
N2 C13 1_555 1_555
N5 C12 1_555 1_555
N5 C13 1_555 1_555
C5 C12 1_555 1_555
C6 C17 1_555 1_555
C7 C17 1_555 1_555
C11 C16 1_555 1_555
C14 C20 1_555 1_555
C19 C21 1_555 1_555

#END
