
#######################################################################
#
#                 Cambridge Crystallographic Data Centre
#                                CCDC 
#
#######################################################################
#
# If this CIF has been generated from an entry in the Cambridge 
# Structural Database, then it will include bibliographic, chemical, 
# crystal, experimental, refinement or atomic coordinate data resulting 
# from the CCDC's data processing and validation procedures.
#
#######################################################################

data_FOPBET
_symmetry_cell_setting           monoclinic
_symmetry_space_group_name_H-M   'C 2/c'
_symmetry_Int_Tables_number      15
_space_group_name_Hall           '-C 2yn'
loop_
_symmetry_equiv_pos_site_id
_symmetry_equiv_pos_as_xyz
1 x,y,z
2 -x,y,1/2-z
3 1/2+x,1/2+y,z
4 1/2-x,1/2+y,1/2-z
5 -x,-y,-z
6 x,-y,1/2+z
7 1/2-x,1/2-y,-z
8 1/2+x,1/2-y,1/2+z
_cell_length_a                   25.901(6)
_cell_length_b                   12.953(3)
_cell_length_c                   36.822(8)
_cell_angle_alpha                90
_cell_angle_beta                 110.234(3)
_cell_angle_gamma                90
_cell_volume                     11591.3
loop_
_atom_site_label
_atom_site_type_symbol
_atom_site_fract_x
_atom_site_fract_y
_atom_site_fract_z
Cd1 Cd 0.047239(13) 0.08374(2) 0.129085(10)
Cd2 Cd 0.098303(13) 0.40546(2) 0.164013(9)
Cd3 Cd 0.239243(12) 0.61393(2) 0.027249(9)
Cd4 Cd 0.084947(12) -0.24517(2) 0.181375(9)
N1 N 0.16556(15) 0.4793(3) 0.13249(11)
N2 N 0.13691(16) 0.2543(3) 0.06929(11)
C1 C 0.2254(2) 0.5945(4) 0.11675(15)
H1 H 0.2448 0.6563 0.1223
C2 C 0.21774(19) 0.9062(4) 0.07818(14)
N3 N 0.05767(16) 0.0193(3) 0.06605(12)
C3 C 0.17070(18) 0.4184(3) 0.10454(12)
C4 C 0.18734(18) 0.8813(4) 0.10127(13)
H2 H 0.1719 0.8159 0.0997
C5 C 0.13943(18) 0.3215(3) 0.09700(13)
N4 N 0.11080(15) 0.2941(3) 0.11961(11)
N5 N 0.22921(17) 0.5362(3) 0.08813(13)
C6 C 0.10372(18) 0.1814(3) 0.07518(12)
C7 C 0.01958(19) 0.1981(3) 0.22493(14)
C8 C 0.0592(3) -0.0894(4) 0.01472(18)
H3 H 0.0476 -0.1511 0.0015
C9 C 0.1938(2) 0.5668(4) 0.13853(15)
H4 H 0.1923 0.6108 0.1581
N6 N 0.08719(15) 0.2027(3) 0.10492(11)
C10 C 0.0000 0.2527(5) 0.2500
C11 C 0.17982(17) 0.9534(3) 0.12677(13)
C12 C 0.2355(2) 1.0734(4) 0.10792(18)
H5 H 0.2522 1.1379 0.1106
C13 C 0.0439(2) -0.0674(4) 0.04610(16)
H6 H 0.0230 -0.1156 0.0536
C14 C 0.2044(2) 1.0483(4) 0.13034(15)
H7 H 0.2001 1.0959 0.1480
N7 N 0.0898(2) -0.0258(4) 0.00275(15)
C15 C 0.08777(19) 0.0855(3) 0.05385(14)
C16 C 0.0000 0.0366(6) 0.2500
C17 C 0.20240(19) 0.4459(4) 0.08263(14)
H8 H 0.2052 0.4009 0.0637
C18 C 0.0187(3) 0.0910(4) 0.22497(17)
H9 H 0.0310 0.0551 0.2076
C19 C 0.2420(2) 1.0035(5) 0.08135(16)
H10 H 0.2624 1.0212 0.0658
N8 N -0.05231(15) 0.1175(3) 0.09510(13)
O1 O 0.04694(17) 0.3531(3) 0.20193(12)
N9 N 0.01007(15) -0.1350(3) 0.16214(12)
N10 N -0.08195(16) -0.1166(3) 0.13907(15)
O2 O 0.2027(2) 0.7414(3) 0.04956(14)
N11 N -0.00216(15) -0.0474(3) 0.14029(12)
N12 N 0.00472(17) -0.3259(3) 0.19303(13)
C20 C 0.04125(19) 0.2568(4) 0.19781(14)
O3 O 0.05457(17) 0.2079(3) 0.17329(12)
C21 C -0.05633(18) -0.0398(4) 0.12773(15)
C22 C -0.08465(17) 0.0438(3) 0.10125(15)
C23 C 0.14436(18) 0.9239(4) 0.15049(14)
C24 C -0.03873(19) -0.1739(4) 0.15985(15)
C25 C 0.1044(2) 0.0619(4) 0.02281(15)
H11 H 0.1264 0.1088 0.0157
C26 C 0.22535(19) 0.8275(4) 0.05055(14)
C27 C 0.1630(2) 0.4840(4) -0.01584(15)
C28 C 0.0019(2) -0.4211(4) 0.20440(18)
H12 H 0.0341 -0.4584 0.2160
C29 C -0.0425(2) -0.2750(4) 0.17603(16)
O4 O 0.12506(13) 0.9946(3) 0.16550(10)
O5 O 0.14948(15) 0.5754(3) -0.01311(13)
N13 N 0.13600(15) 0.6250(3) 0.21813(11)
O6 O 0.21103(14) 0.4505(3) 0.00096(11)
N14 N 0.17081(17) 0.3185(3) 0.21962(13)
N15 N 0.14100(15) 0.5224(3) 0.21271(11)
O7 O -0.02383(15) 0.5223(3) -0.12223(12)
N16 N -0.16605(15) 0.1185(3) 0.05780(13)
N17 N 0.13876(17) 0.8195(3) 0.24658(12)
C30 C 0.16863(17) 0.6441(4) 0.25416(13)
O8 O 0.13593(17) 0.8298(3) 0.15265(13)
O9 O -0.06129(15) 0.3656(3) -0.13255(11)
C31 C 0.19123(19) 0.3776(4) 0.25092(14)
C32 C 0.1194(2) 0.4113(4) -0.03953(15)
C33 C 0.17120(19) 0.7483(4) 0.26979(14)
C34 C 0.17729(18) 0.4876(4) 0.24607(13)
C35 C 0.07108(19) 0.4508(4) -0.06600(14)
H13 H 0.0665 0.5218 -0.0695
C36 C -0.14107(18) 0.0446(4) 0.08311(16)
H14 H -0.1621 -0.0073 0.0886
C37 C -0.07797(19) 0.1919(4) 0.07041(16)
H15 H -0.0572 0.2457 0.0659
C38 C -0.13418(19) 0.1922(4) 0.05120(16)
H16 H -0.1501 0.2442 0.0335
N18 N -0.0960(2) -0.4167(4) 0.1832(2)
C39 C 0.1818(2) 0.2168(4) 0.22435(19)
H17 H 0.1673 0.1721 0.2035
C40 C 0.1261(3) 0.3048(5) -0.03423(17)
H18 H 0.1584 0.2780 -0.0167
C41 C -0.0225(2) 0.4248(4) -0.11645(14)
C42 C 0.1402(3) 0.9141(4) 0.26098(19)
H19 H 0.1188 0.9658 0.2454
O10 O 0.2554(2) 0.8435(4) 0.03177(14)
C43 C -0.0919(2) -0.3221(5) 0.1722(2)
H20 H -0.1241 -0.2845 0.1611
C44 C -0.0492(3) -0.4672(5) 0.1993(2)
H21 H -0.0501 -0.5349 0.2074
N19 N 0.19597(16) 0.5614(3) 0.27320(12)
C45 C 0.0296(2) 0.3839(4) -0.08717(14)
N20 N 0.2347(2) 0.2365(4) 0.29060(18)
N21 N 0.2069(2) 0.8690(4) 0.32191(15)
C46 C 0.2059(2) 0.7753(4) 0.30716(16)
H22 H 0.2294 0.7253 0.3223
C47 C 0.2231(3) 0.3368(4) 0.28620(18)
H23 H 0.2368 0.3806 0.3074
C48 C 0.0357(3) 0.2787(4) -0.08079(16)
H24 H 0.0072 0.2341 -0.0937
C49 C 0.2139(2) 0.1787(5) 0.2593(2)
H25 H 0.2215 0.1084 0.2613
C50 C 0.1728(3) 0.9375(5) 0.2986(2)
H26 H 0.1708 1.0035 0.3080
C51 C 0.0845(3) 0.2398(5) -0.05509(19)
H27 H 0.0892 0.1688 -0.0519
C7A C -0.01958(19) 0.1981(3) 0.27507(14)
C18A C -0.0187(3) 0.0910(4) 0.27503(17)
H9A H -0.0310 0.0551 0.2924
O1A O -0.04694(17) 0.3531(3) 0.29807(12)
C20A C -0.04125(19) 0.2568(4) 0.30219(14)
O3A O -0.05457(17) 0.2079(3) 0.32671(12)
Cd1A Cd -0.047239(13) 0.08374(2) 0.370915(10)
Cd2A Cd -0.098303(13) 0.40546(2) 0.335987(9)
Cd3A Cd -0.239243(12) 0.61393(2) 0.472751(9)
Cd4A Cd -0.084947(12) -0.24517(2) 0.318625(9)
N1A N -0.16556(15) 0.4793(3) 0.36751(11)
N2A N -0.13691(16) 0.2543(3) 0.43071(11)
C1A C -0.2254(2) 0.5945(4) 0.38325(15)
H1A H -0.2448 0.6563 0.3777
C2A C -0.21774(19) 0.9062(4) 0.42182(14)
N3A N -0.05767(16) 0.0193(3) 0.43395(12)
C3A C -0.17070(18) 0.4184(3) 0.39546(12)
C4A C -0.18734(18) 0.8813(4) 0.39873(13)
H2A H -0.1719 0.8159 0.4003
C5A C -0.13943(18) 0.3215(3) 0.40300(13)
N4A N -0.11080(15) 0.2941(3) 0.38039(11)
N5A N -0.22921(17) 0.5362(3) 0.41187(13)
C6A C -0.10372(18) 0.1814(3) 0.42482(12)
C8A C -0.0592(3) -0.0894(4) 0.48528(18)
H3A H -0.0476 -0.1511 0.4985
C9A C -0.1938(2) 0.5668(4) 0.36147(15)
H4A H -0.1923 0.6108 0.3419
N6A N -0.08719(15) 0.2027(3) 0.39508(11)
C11A C -0.17982(17) 0.9534(3) 0.37323(13)
C12A C -0.2355(2) 1.0734(4) 0.39208(18)
H5A H -0.2522 1.1379 0.3894
C13A C -0.0439(2) -0.0674(4) 0.45390(16)
H6A H -0.0230 -0.1156 0.4464
C14A C -0.2044(2) 1.0483(4) 0.36966(15)
H7A H -0.2001 1.0959 0.3520
N7A N -0.0898(2) -0.0258(4) 0.49725(15)
C15A C -0.08777(19) 0.0855(3) 0.44615(14)
C17A C -0.20240(19) 0.4459(4) 0.41737(14)
H8A H -0.2052 0.4009 0.4363
C19A C -0.2420(2) 1.0035(5) 0.41865(16)
H10A H -0.2624 1.0212 0.4342
N8A N 0.05231(15) 0.1175(3) 0.40490(13)
N9A N -0.01007(15) -0.1350(3) 0.33786(12)
N10A N 0.08195(16) -0.1166(3) 0.36093(15)
O2A O -0.2027(2) 0.7414(3) 0.45044(14)
N11A N 0.00216(15) -0.0474(3) 0.35971(12)
N12A N -0.00472(17) -0.3259(3) 0.30697(13)
C21A C 0.05633(18) -0.0398(4) 0.37227(15)
C22A C 0.08465(17) 0.0438(3) 0.39875(15)
C23A C -0.14436(18) 0.9239(4) 0.34951(14)
C24A C 0.03873(19) -0.1739(4) 0.34015(15)
C25A C -0.1044(2) 0.0619(4) 0.47719(15)
H11A H -0.1264 0.1088 0.4843
C26A C -0.22535(19) 0.8275(4) 0.44945(14)
C27A C -0.1630(2) 0.4840(4) 0.51584(15)
C28A C -0.0019(2) -0.4211(4) 0.29560(18)
H12A H -0.0341 -0.4584 0.2840
C29A C 0.0425(2) -0.2750(4) 0.32397(16)
O4A O -0.12506(13) 0.9946(3) 0.33450(10)
O5A O -0.14948(15) 0.5754(3) 0.51311(13)
N13A N -0.13600(15) 0.6250(3) 0.28187(11)
O6A O -0.21103(14) 0.4505(3) 0.49904(11)
N14A N -0.17081(17) 0.3185(3) 0.28038(13)
N15A N -0.14100(15) 0.5224(3) 0.28729(11)
O7A O 0.02383(15) 0.5223(3) 0.62223(12)
N16A N 0.16605(15) 0.1185(3) 0.44220(13)
N17A N -0.13876(17) 0.8195(3) 0.25342(12)
C30A C -0.16863(17) 0.6441(4) 0.24584(13)
O8A O -0.13593(17) 0.8298(3) 0.34735(13)
O9A O 0.06129(15) 0.3656(3) 0.63255(11)
C31A C -0.19123(19) 0.3776(4) 0.24908(14)
C32A C -0.1194(2) 0.4113(4) 0.53953(15)
C33A C -0.17120(19) 0.7483(4) 0.23021(14)
C34A C -0.17729(18) 0.4876(4) 0.25393(13)
C35A C -0.07108(19) 0.4508(4) 0.56600(14)
H13A H -0.0665 0.5218 0.5695
C36A C 0.14107(18) 0.0446(4) 0.41689(16)
H14A H 0.1621 -0.0073 0.4114
C37A C 0.07797(19) 0.1919(4) 0.42959(16)
H15A H 0.0572 0.2457 0.4341
C38A C 0.13418(19) 0.1922(4) 0.44880(16)
H16A H 0.1501 0.2442 0.4665
N18A N 0.0960(2) -0.4167(4) 0.3168(2)
C39A C -0.1818(2) 0.2168(4) 0.27565(19)
H17A H -0.1673 0.1721 0.2965
C40A C -0.1261(3) 0.3048(5) 0.53423(17)
H18A H -0.1584 0.2780 0.5167
C41A C 0.0225(2) 0.4248(4) 0.61645(14)
C42A C -0.1402(3) 0.9141(4) 0.23902(19)
H19A H -0.1188 0.9658 0.2546
O10A O -0.2554(2) 0.8435(4) 0.46823(14)
C43A C 0.0919(2) -0.3221(5) 0.3278(2)
H20A H 0.1241 -0.2845 0.3389
C44A C 0.0492(3) -0.4672(5) 0.3007(2)
H21A H 0.0501 -0.5349 0.2926
N19A N -0.19597(16) 0.5614(3) 0.22680(12)
C45A C -0.0296(2) 0.3839(4) 0.58717(14)
N20A N -0.2347(2) 0.2365(4) 0.20940(18)
N21A N -0.2069(2) 0.8690(4) 0.17809(15)
C46A C -0.2059(2) 0.7753(4) 0.19284(16)
H22A H -0.2294 0.7253 0.1777
C47A C -0.2231(3) 0.3368(4) 0.21380(18)
H23A H -0.2368 0.3806 0.1926
C48A C -0.0357(3) 0.2787(4) 0.58079(16)
H24A H -0.0072 0.2341 0.5937
C49A C -0.2139(2) 0.1787(5) 0.2407(2)
H25A H -0.2215 0.1084 0.2387
C50A C -0.1728(3) 0.9375(5) 0.2014(2)
H26A H -0.1708 1.0035 0.1920
C51A C -0.0845(3) 0.2398(5) 0.55509(19)
H27A H -0.0892 0.1688 0.5519
Cd1_2 Cd 0.047239(13) 1.08374(2) 0.129085(10)
Cd1A_2 Cd -0.047239(13) 1.08374(2) 0.370915(10)
Cd2D Cd -0.098303(13) 0.59454(2) -0.164013(9)
Cd2E Cd 0.098303(13) 0.59454(2) 0.664013(9)
Cd3B Cd -0.260757(12) 0.11393(2) 0.027249(9)
Cd3C Cd 0.260757(12) 0.11393(2) 0.472751(9)
Cd3F Cd 0.260757(12) 0.88607(2) -0.027249(9)
Cd3G Cd -0.260757(12) 0.88607(2) 0.527249(9)
Cd4_2 Cd 0.084947(12) 0.75483(2) 0.181375(9)
Cd4A_2 Cd -0.084947(12) 0.75483(2) 0.318625(9)
Cd4D Cd -0.084947(12) 0.24517(2) -0.181375(9)
Cd4E Cd 0.084947(12) 0.24517(2) 0.681375(9)
O4_2 O 0.12506(13) -0.0054(3) 0.16550(10)
O4A_2 O -0.12506(13) -0.0054(3) 0.33450(10)
N13_2 N 0.13600(15) -0.3750(3) 0.21813(11)
N13A_2 N -0.13600(15) -0.3750(3) 0.28187(11)
O7D O 0.02383(15) 0.4777(3) 0.12223(12)
O7E O -0.02383(15) 0.4777(3) 0.37777(12)
N16B N 0.33395(15) 0.6185(3) 0.05780(13)
N16C N -0.33395(15) 0.6185(3) 0.44220(13)
N17_2 N 0.13876(17) -0.1805(3) 0.24658(12)
N17A_2 N -0.13876(17) -0.1805(3) 0.25342(12)
O8_2 O 0.13593(17) -0.1702(3) 0.15265(13)
O8A_2 O -0.13593(17) -0.1702(3) 0.34735(13)
O9D O 0.06129(15) -0.3656(3) 0.13255(11)
O9E O -0.06129(15) -0.3656(3) 0.36745(11)
O10F O 0.2446(2) 0.6565(4) -0.03177(14)
O10G O -0.2446(2) 0.6565(4) 0.53177(14)
O11 O -0.0158(5) 0.3478(7) 0.0086(4)
O12 O -0.1350(4) 0.2177(13) 0.1544(4)
O13 O -0.1272(6) -0.6456(18) 0.1319(5)
O14 O -0.0719(5) 0.4146(12) -0.0389(4)
loop_
_geom_bond_atom_site_label_1
_geom_bond_atom_site_label_2
_geom_bond_site_symmetry_1
_geom_bond_site_symmetry_2
Cd1 N3 1_555 1_555
Cd2 N1 1_555 1_555
Cd3 N5 1_555 1_555
Cd4 N9 1_555 1_555
N1 C3 1_555 1_555
N2 C5 1_555 1_555
C1 H1 1_555 1_555
C2 C4 1_555 1_555
N3 C13 1_555 1_555
C3 C5 1_555 1_555
C4 H2 1_555 1_555
C5 N4 1_555 1_555
N4 Cd2 1_555 1_555
N5 C1 1_555 1_555
C6 N2 1_555 1_555
C7 C10 1_555 1_555
C8 H3 1_555 1_555
C9 N1 1_555 1_555
H4 C9 1_555 1_555
N6 Cd1 1_555 1_555
C10 C7A 1_555 1_555
C11 C4 1_555 1_555
C12 H5 1_555 1_555
C13 C8 1_555 1_555
H6 C13 1_555 1_555
C14 C11 1_555 1_555
H7 C14 1_555 1_555
N7 C8 1_555 1_555
C15 N3 1_555 1_555
C16 C18 1_555 1_555
C17 C3 1_555 1_555
H8 C17 1_555 1_555
C18 C7 1_555 1_555
H9 C18 1_555 1_555
C19 C2 1_555 1_555
H10 C19 1_555 1_555
N8 Cd1 1_555 1_555
O1 Cd2 1_555 1_555
N9 N11 1_555 1_555
N10 C21 1_555 1_555
O2 Cd3 1_555 1_555
N11 Cd1 1_555 1_555
N12 Cd4 1_555 1_555
C20 C7 1_555 1_555
O3 Cd1 1_555 1_555
C21 N11 1_555 1_555
C22 N8 1_555 1_555
C23 C11 1_555 1_555
C24 N9 1_555 1_555
C25 N7 1_555 1_555
H11 C25 1_555 1_555
C26 C2 1_555 1_555
C27 O5 1_555 1_555
C28 N12 1_555 1_555
H12 C28 1_555 1_555
C29 N12 1_555 1_555
O4 C23 1_555 1_555
O5 Cd3 1_555 1_555
N13 N15 1_555 1_555
O6 Cd3 1_555 1_555
N14 Cd2 1_555 1_555
N15 Cd2 1_555 1_555
O7 C41 1_555 1_555
N16 C36 1_555 1_555
N17 C33 1_555 1_555
C30 N13 1_555 1_555
O8 C23 1_555 1_555
O9 C41 1_555 1_555
C31 N14 1_555 1_555
C32 C27 1_555 1_555
C33 C30 1_555 1_555
C34 N15 1_555 1_555
C35 C32 1_555 1_555
H13 C35 1_555 1_555
C36 C22 1_555 1_555
H14 C36 1_555 1_555
C37 N8 1_555 1_555
H15 C37 1_555 1_555
C38 N16 1_555 1_555
H16 C38 1_555 1_555
N18 C43 1_555 1_555
C39 N14 1_555 1_555
H17 C39 1_555 1_555
C40 C32 1_555 1_555
H18 C40 1_555 1_555
C41 C45 1_555 1_555
C42 N17 1_555 1_555
H19 C42 1_555 1_555
O10 C26 1_555 1_555
C43 C29 1_555 1_555
H20 C43 1_555 1_555
C44 C28 1_555 1_555
H21 C44 1_555 1_555
N19 C30 1_555 1_555
C45 C35 1_555 1_555
N20 C47 1_555 1_555
N21 C46 1_555 1_555
C46 C33 1_555 1_555
H22 C46 1_555 1_555
C47 C31 1_555 1_555
H23 C47 1_555 1_555
C48 C45 1_555 1_555
H24 C48 1_555 1_555
C49 C39 1_555 1_555
H25 C49 1_555 1_555
C50 C42 1_555 1_555
H26 C50 1_555 1_555
C51 C40 1_555 1_555
H27 C51 1_555 1_555
C7A C18A 1_555 1_555
C18A C16 1_555 1_555
H9A C18A 1_555 1_555
O1A C20A 1_555 1_555
C20A C7A 1_555 1_555
O3A C20A 1_555 1_555
Cd1A O3A 1_555 1_555
Cd2A O1A 1_555 1_555
Cd3A N5A 1_555 1_555
Cd4A N9A 1_555 1_555
N1A Cd2A 1_555 1_555
N2A C5A 1_555 1_555
C1A H1A 1_555 1_555
C2A C4A 1_555 1_555
N3A Cd1A 1_555 1_555
C3A N1A 1_555 1_555
C4A H2A 1_555 1_555
C5A C3A 1_555 1_555
N4A Cd2A 1_555 1_555
N5A C1A 1_555 1_555
C6A N2A 1_555 1_555
C8A H3A 1_555 1_555
C9A N1A 1_555 1_555
H4A C9A 1_555 1_555
N6A Cd1A 1_555 1_555
C11A C4A 1_555 1_555
C12A H5A 1_555 1_555
C13A N3A 1_555 1_555
H6A C13A 1_555 1_555
C14A C11A 1_555 1_555
H7A C14A 1_555 1_555
N7A C8A 1_555 1_555
C15A N3A 1_555 1_555
C17A C3A 1_555 1_555
H8A C17A 1_555 1_555
C19A C2A 1_555 1_555
H10A C19A 1_555 1_555
N8A Cd1A 1_555 1_555
N9A N11A 1_555 1_555
N10A C21A 1_555 1_555
O2A Cd3A 1_555 1_555
N11A Cd1A 1_555 1_555
N12A Cd4A 1_555 1_555
C21A N11A 1_555 1_555
C22A N8A 1_555 1_555
C23A C11A 1_555 1_555
C24A N9A 1_555 1_555
C25A N7A 1_555 1_555
H11A C25A 1_555 1_555
C26A C2A 1_555 1_555
C27A O5A 1_555 1_555
C28A N12A 1_555 1_555
H12A C28A 1_555 1_555
C29A N12A 1_555 1_555
O4A C23A 1_555 1_555
O5A Cd3A 1_555 1_555
N13A N15A 1_555 1_555
O6A Cd3A 1_555 1_555
N14A Cd2A 1_555 1_555
N15A Cd2A 1_555 1_555
O7A C41A 1_555 1_555
N16A C36A 1_555 1_555
N17A C33A 1_555 1_555
C30A N13A 1_555 1_555
O8A C23A 1_555 1_555
O9A C41A 1_555 1_555
C31A N14A 1_555 1_555
C32A C27A 1_555 1_555
C33A C30A 1_555 1_555
C34A N15A 1_555 1_555
C35A C32A 1_555 1_555
H13A C35A 1_555 1_555
C36A C22A 1_555 1_555
H14A C36A 1_555 1_555
C37A N8A 1_555 1_555
H15A C37A 1_555 1_555
C38A N16A 1_555 1_555
H16A C38A 1_555 1_555
N18A C43A 1_555 1_555
C39A N14A 1_555 1_555
H17A C39A 1_555 1_555
C40A C32A 1_555 1_555
H18A C40A 1_555 1_555
C41A C45A 1_555 1_555
C42A N17A 1_555 1_555
H19A C42A 1_555 1_555
O10A C26A 1_555 1_555
C43A C29A 1_555 1_555
H20A C43A 1_555 1_555
C44A C28A 1_555 1_555
H21A C44A 1_555 1_555
N19A C30A 1_555 1_555
C45A C35A 1_555 1_555
N20A C47A 1_555 1_555
N21A C46A 1_555 1_555
C46A C33A 1_555 1_555
H22A C46A 1_555 1_555
C47A C31A 1_555 1_555
H23A C47A 1_555 1_555
C48A C45A 1_555 1_555
H24A C48A 1_555 1_555
C49A C39A 1_555 1_555
H25A C49A 1_555 1_555
C50A C42A 1_555 1_555
H26A C50A 1_555 1_555
C51A C40A 1_555 1_555
H27A C51A 1_555 1_555
Cd1_2 O4 1_555 1_555
Cd1A_2 O4A 1_555 1_555
Cd2D O7 1_555 1_555
Cd2E O7A 1_555 1_555
Cd3B N16 1_555 1_555
Cd3C N16A 1_555 1_555
Cd3F O10 1_555 1_555
Cd3G O10A 1_555 1_555
Cd4_2 N13 1_555 1_555
Cd4A_2 N13A 1_555 1_555
Cd4D O9 1_555 1_555
Cd4E O9A 1_555 1_555
O4_2 Cd1 1_555 1_555
O4A_2 Cd1A 1_555 1_555
N13_2 Cd4 1_555 1_555
N13A_2 Cd4A 1_555 1_555
O7D Cd2 1_555 1_555
O7E Cd2A 1_555 1_555
N16B Cd3 1_555 1_555
N16C Cd3A 1_555 1_555
N17_2 Cd4 1_555 1_555
N17A_2 Cd4A 1_555 1_555
O8_2 Cd4 1_555 1_555
O8A_2 Cd4A 1_555 1_555
O9D Cd4 1_555 1_555
O9E Cd4A 1_555 1_555
O10F Cd3 1_555 1_555
O10G Cd3A 1_555 1_555
C1 C9 1_555 1_555
N4 N6 1_555 1_555
N5 C17 1_555 1_555
C6 N6 1_555 1_555
C6 C15 1_555 1_555
C12 C14 1_555 1_555
C12 C19 1_555 1_555
C15 C25 1_555 1_555
O1 C20 1_555 1_555
N10 C24 1_555 1_555
O2 C26 1_555 1_555
C20 O3 1_555 1_555
C21 C22 1_555 1_555
C24 C29 1_555 1_555
C27 O6 1_555 1_555
N17 Cd4_2 1_555 1_555
O8 Cd4_2 1_555 1_555
C31 C34 1_555 1_555
C34 N19 1_555 1_555
C37 C38 1_555 1_555
N18 C44 1_555 1_555
N20 C49 1_555 1_555
N21 C50 1_555 1_555
C48 C51 1_555 1_555
C1A C9A 1_555 1_555
C5A N4A 1_555 1_555
N4A N6A 1_555 1_555
N5A C17A 1_555 1_555
C6A N6A 1_555 1_555
C6A C15A 1_555 1_555
C8A C13A 1_555 1_555
C12A C14A 1_555 1_555
C12A C19A 1_555 1_555
C15A C25A 1_555 1_555
N10A C24A 1_555 1_555
O2A C26A 1_555 1_555
C21A C22A 1_555 1_555
C24A C29A 1_555 1_555
C27A O6A 1_555 1_555
N17A Cd4A_2 1_555 1_555
O8A Cd4A_2 1_555 1_555
C31A C34A 1_555 1_555
C34A N19A 1_555 1_555
C37A C38A 1_555 1_555
N18A C44A 1_555 1_555
N20A C49A 1_555 1_555
N21A C50A 1_555 1_555
C48A C51A 1_555 1_555

#END
