
#######################################################################
#
#                 Cambridge Crystallographic Data Centre
#                                CCDC 
#
#######################################################################
#
# If this CIF has been generated from an entry in the Cambridge 
# Structural Database, then it will include bibliographic, chemical, 
# crystal, experimental, refinement or atomic coordinate data resulting 
# from the CCDC's data processing and validation procedures.
#
#######################################################################

data_FOPLUT
_symmetry_cell_setting           monoclinic
_symmetry_space_group_name_H-M   'P 21/c'
_symmetry_Int_Tables_number      14
_space_group_name_Hall           '-P 2ybc'
loop_
_symmetry_equiv_pos_site_id
_symmetry_equiv_pos_as_xyz
1 x,y,z
2 -x,1/2+y,1/2-z
3 -x,-y,-z
4 x,1/2-y,1/2+z
_cell_length_a                   13.5832(6)
_cell_length_b                   10.5758(3)
_cell_length_c                   17.6779(7)
_cell_angle_alpha                90
_cell_angle_beta                 111.691(5)
_cell_angle_gamma                90
_cell_volume                     2359.67
loop_
_atom_site_label
_atom_site_type_symbol
_atom_site_fract_x
_atom_site_fract_y
_atom_site_fract_z
Cu1 Cu 0.404332(14) 0.610741(17) 0.746706(11)
S1 S 0.56270(3) 0.55742(4) 0.72954(2)
C1 C 0.56366(11) 0.40106(15) 0.72414(9)
N1 N 0.56752(10) 0.29185(13) 0.72168(8)
N2 N 0.40214(10) 0.51562(12) 0.84961(7)
C2 C 0.35256(12) 0.56857(15) 0.89479(9)
H1 H 0.328 0.6532 0.8835
C3 C 0.33587(12) 0.50431(15) 0.95737(9)
Br1 Br 0.263769(15) 0.590303(17) 1.015739(11)
C4 C 0.37042(12) 0.38080(15) 0.97700(9)
C5 C 0.42127(12) 0.32756(15) 0.92916(9)
H2 H 0.4465 0.2431 0.9391
C6 C 0.43542(12) 0.39612(14) 0.86756(9)
H3 H 0.4705 0.3566 0.8363
C7 C 0.35505(13) 0.30923(16) 1.04504(9)
H4 H 0.3915 0.3533 1.0966
H5 H 0.3843 0.2239 1.048
H6 H 0.2792 0.3037 1.035
P1 P 0.25229(3) 0.57211(4) 0.64449(2)
C8 C 0.17777(12) 0.43952(14) 0.66341(9)
C9 C 0.22795(12) 0.32190(15) 0.68195(9)
H7 H 0.2992 0.3138 0.6857
C10 C 0.17526(12) 0.21716(15) 0.69496(9)
H8 H 0.2097 0.1373 0.7061
C11 C 0.07162(13) 0.22918(15) 0.69160(9)
H9 H 0.0356 0.1578 0.7014
C12 C 0.02121(13) 0.34515(16) 0.67403(9)
H10 H -0.0495 0.3532 0.6717
C13 C 0.07387(12) 0.45015(15) 0.65983(9)
H11 H 0.0387 0.5295 0.6476
C14 C 0.25720(12) 0.52980(14) 0.54548(9)
C15 C 0.18289(12) 0.45174(15) 0.48981(9)
H12 H 0.1258 0.4185 0.5025
C16 C 0.19119(12) 0.42187(16) 0.41586(10)
H13 H 0.1404 0.3679 0.3784
C17 C 0.27409(13) 0.47126(17) 0.39691(10)
H14 H 0.2794 0.4512 0.3462
C18 C 0.34840(13) 0.54886(17) 0.45082(10)
H15 H 0.4043 0.5831 0.4371
C19 C 0.34126(12) 0.57723(15) 0.52596(10)
H16 H 0.3937 0.6289 0.5639
C20 C 0.15666(11) 0.70219(14) 0.62149(9)
C21 C 0.16270(12) 0.78489(15) 0.68482(9)
H17 H 0.2172 0.7744 0.7368
C22 C 0.08988(13) 0.88184(15) 0.67228(10)
H18 H 0.0946 0.9372 0.7158
C23 C 0.01066(13) 0.89866(15) 0.59720(10)
H19 H -0.0394 0.9649 0.5891
C24 C 0.00417(12) 0.81823(15) 0.53304(10)
H20 H -0.05 0.8301 0.481
C25 C 0.07700(12) 0.72078(15) 0.54530(9)
H21 H 0.0725 0.6663 0.5014
Cu1A Cu 0.595668(14) 0.110741(17) 0.753294(11)
N1A N 0.43248(10) 0.79185(13) 0.77832(8)
loop_
_geom_bond_atom_site_label_1
_geom_bond_atom_site_label_2
_geom_bond_site_symmetry_1
_geom_bond_site_symmetry_2
Cu1 S1 1_555 1_555
S1 C1 1_555 1_555
C1 N1 1_555 1_555
N1 Cu1A 1_555 1_555
N2 Cu1 1_555 1_555
C2 N2 1_555 1_555
H1 C2 1_555 1_555
C3 C2 1_555 1_555
Br1 C3 1_555 1_555
C4 C3 1_555 1_555
C5 C4 1_555 1_555
H2 C5 1_555 1_555
C6 N2 1_555 1_555
H3 C6 1_555 1_555
C7 C4 1_555 1_555
H4 C7 1_555 1_555
H5 C7 1_555 1_555
H6 C7 1_555 1_555
P1 Cu1 1_555 1_555
C8 P1 1_555 1_555
C9 C8 1_555 1_555
H7 C9 1_555 1_555
C10 C9 1_555 1_555
H8 C10 1_555 1_555
C11 C10 1_555 1_555
H9 C11 1_555 1_555
C12 C11 1_555 1_555
H10 C12 1_555 1_555
C13 C8 1_555 1_555
H11 C13 1_555 1_555
C14 P1 1_555 1_555
C15 C14 1_555 1_555
H12 C15 1_555 1_555
C16 C15 1_555 1_555
H13 C16 1_555 1_555
C17 C16 1_555 1_555
H14 C17 1_555 1_555
C18 C17 1_555 1_555
H15 C18 1_555 1_555
C19 C14 1_555 1_555
H16 C19 1_555 1_555
C20 P1 1_555 1_555
C21 C20 1_555 1_555
H17 C21 1_555 1_555
C22 C21 1_555 1_555
H18 C22 1_555 1_555
C23 C22 1_555 1_555
H19 C23 1_555 1_555
C24 C23 1_555 1_555
H20 C24 1_555 1_555
C25 C20 1_555 1_555
H21 C25 1_555 1_555
N1A Cu1 1_555 1_555
C5 C6 1_555 1_555
C12 C13 1_555 1_555
C18 C19 1_555 1_555
C24 C25 1_555 1_555

#END
