
#######################################################################
#
#                 Cambridge Crystallographic Data Centre
#                                CCDC 
#
#######################################################################
#
# If this CIF has been generated from an entry in the Cambridge 
# Structural Database, then it will include bibliographic, chemical, 
# crystal, experimental, refinement or atomic coordinate data resulting 
# from the CCDC's data processing and validation procedures.
#
#######################################################################

data_FOPMAA
_symmetry_cell_setting           monoclinic
_symmetry_space_group_name_H-M   'P 21/c'
_symmetry_Int_Tables_number      14
_space_group_name_Hall           '-P 2ybc'
loop_
_symmetry_equiv_pos_site_id
_symmetry_equiv_pos_as_xyz
1 x,y,z
2 -x,1/2+y,1/2-z
3 -x,-y,-z
4 x,1/2-y,1/2+z
_cell_length_a                   13.1895(5)
_cell_length_b                   10.1614(4)
_cell_length_c                   16.8818(7)
_cell_angle_alpha                90
_cell_angle_beta                 99.755(4)
_cell_angle_gamma                90
_cell_volume                     2229.85
loop_
_atom_site_label
_atom_site_type_symbol
_atom_site_fract_x
_atom_site_fract_y
_atom_site_fract_z
Cu1 Cu 0.55043(3) 0.19238(4) 0.68387(2)
N1 N 0.4603(2) 0.2976(3) 0.59562(16)
C1 C 0.4097(3) 0.2362(4) 0.5303(2)
H1 H 0.4183 0.1439 0.5254
C2 C 0.3451(3) 0.3020(4) 0.4697(2)
H2 H 0.3095 0.2556 0.4246
C3 C 0.3339(3) 0.4342(4) 0.4761(2)
H3 H 0.2902 0.4817 0.4354
C4 C 0.3865(3) 0.4989(4) 0.5424(2)
H4 H 0.3805 0.5915 0.5475
C5 C 0.4479(2) 0.4274(3) 0.6010(2)
H5 H 0.4828 0.4722 0.647
P1 P 0.72014(6) 0.19368(8) 0.69750(5)
C6 C 0.7826(2) 0.3545(3) 0.70406(18)
C7 C 0.7304(2) 0.4604(3) 0.72975(18)
H6 H 0.6644 0.4466 0.7438
C8 C 0.7718(2) 0.5853(3) 0.73544(18)
H7 H 0.7354 0.6571 0.7533
C9 C 0.8671(3) 0.6029(3) 0.71449(19)
F1 F 0.90842(15) 0.72540(18) 0.71876(12)
C10 C 0.9227(2) 0.5013(3) 0.68919(19)
H8 H 0.9886 0.5166 0.6755
C11 C 0.8803(2) 0.3763(3) 0.68415(18)
H9 H 0.9177 0.3047 0.6671
C12 C 0.7696(2) 0.1094(3) 0.61667(18)
C13 C 0.7118(3) 0.1176(3) 0.53970(19)
H10 H 0.6494 0.1662 0.5317
C14 C 0.7431(3) 0.0566(3) 0.4745(2)
H11 H 0.704 0.0641 0.422
C15 C 0.8322(3) -0.0147(4) 0.4882(2)
F2 F 0.86304(17) -0.0768(2) 0.42476(12)
C16 C 0.8914(3) -0.0267(3) 0.5624(2)
H12 H 0.9525 -0.078 0.5696
C17 C 0.8613(3) 0.0366(3) 0.6269(2)
H13 H 0.9029 0.0308 0.6785
C18 C 0.7828(2) 0.1097(3) 0.78871(18)
C19 C 0.7734(2) -0.0269(3) 0.79441(19)
H14 H 0.7386 -0.075 0.7496
C20 C 0.8137(2) -0.0928(3) 0.8639(2)
H15 H 0.8093 -0.1859 0.8671
C21 C 0.8605(2) -0.0199(3) 0.92859(19)
F3 F 0.89901(14) -0.08518(19) 0.99759(11)
C22 C 0.8696(2) 0.1127(3) 0.92664(19)
H16 H 0.9018 0.1595 0.9728
C23 C 0.8310(2) 0.1793(3) 0.85584(18)
H17 H 0.8375 0.2723 0.8533
S1 S 0.49341(9) 0.23395(9) 0.80776(6)
C24 C 0.4957(2) 0.3919(4) 0.82107(18)
N2 N 0.4974(2) 0.5058(3) 0.83338(19)
Cu1A Cu 0.44957(3) 0.69238(4) 0.81613(2)
N2A N 0.5026(2) 0.0058(3) 0.66662(19)
loop_
_geom_bond_atom_site_label_1
_geom_bond_atom_site_label_2
_geom_bond_site_symmetry_1
_geom_bond_site_symmetry_2
Cu1 N1 1_555 1_555
N1 C1 1_555 1_555
C1 H1 1_555 1_555
C2 C1 1_555 1_555
H2 C2 1_555 1_555
C3 C2 1_555 1_555
H3 C3 1_555 1_555
C4 C3 1_555 1_555
H4 C4 1_555 1_555
C5 N1 1_555 1_555
H5 C5 1_555 1_555
P1 Cu1 1_555 1_555
C6 P1 1_555 1_555
C7 C6 1_555 1_555
H6 C7 1_555 1_555
C8 C7 1_555 1_555
H7 C8 1_555 1_555
C9 C8 1_555 1_555
F1 C9 1_555 1_555
C10 C9 1_555 1_555
H8 C10 1_555 1_555
C11 C6 1_555 1_555
H9 C11 1_555 1_555
C12 P1 1_555 1_555
C13 C12 1_555 1_555
H10 C13 1_555 1_555
C14 C13 1_555 1_555
H11 C14 1_555 1_555
C15 C14 1_555 1_555
F2 C15 1_555 1_555
C16 C15 1_555 1_555
H12 C16 1_555 1_555
C17 C12 1_555 1_555
H13 C17 1_555 1_555
C18 P1 1_555 1_555
C19 C18 1_555 1_555
H14 C19 1_555 1_555
C20 C19 1_555 1_555
H15 C20 1_555 1_555
C21 C20 1_555 1_555
F3 C21 1_555 1_555
C22 C21 1_555 1_555
H16 C22 1_555 1_555
C23 C18 1_555 1_555
H17 C23 1_555 1_555
S1 Cu1 1_555 1_555
C24 S1 1_555 1_555
N2 C24 1_555 1_555
Cu1A N2 1_555 1_555
N2A Cu1 1_555 1_555
C4 C5 1_555 1_555
C10 C11 1_555 1_555
C16 C17 1_555 1_555
C22 C23 1_555 1_555

#END
