
#######################################################################
#
#                 Cambridge Crystallographic Data Centre
#                                CCDC 
#
#######################################################################
#
# If this CIF has been generated from an entry in the Cambridge 
# Structural Database, then it will include bibliographic, chemical, 
# crystal, experimental, refinement or atomic coordinate data resulting 
# from the CCDC's data processing and validation procedures.
#
#######################################################################

data_FOPNII
_symmetry_cell_setting           triclinic
_symmetry_space_group_name_H-M   'P -1'
_symmetry_Int_Tables_number      2
_space_group_name_Hall           '-P 1'
loop_
_symmetry_equiv_pos_site_id
_symmetry_equiv_pos_as_xyz
1 x,y,z
2 -x,-y,-z
_cell_length_a                   9.8431(4)
_cell_length_b                   10.3592(4)
_cell_length_c                   14.0880(6)
_cell_angle_alpha                98.873(2)
_cell_angle_beta                 101.739(2)
_cell_angle_gamma                95.506(3)
_cell_volume                     1377.54
loop_
_atom_site_label
_atom_site_type_symbol
_atom_site_fract_x
_atom_site_fract_y
_atom_site_fract_z
Ag1 Ag 0.7284(11) 0.2624(9) 0.9171(6)
Ag2 Ag 0.2590(11) 0.4499(9) 0.9910(6)
Ag3 Ag 0.2149(11) 0.0904(9) -0.1041(6)
C1 C 0.3664(11) 0.1195(9) 0.2597(6)
C2 C 0.4087(11) 0.1412(9) 0.3679(6)
N1 N 0.6624(11) 0.2020(9) 0.7337(6)
C3 C 0.5785(11) 0.1672(9) 0.5274(6)
C4 C 0.5381(11) 0.1476(9) 0.4201(6)
C5 C 0.0859(11) 0.5308(9) 0.6385(6)
C6 C 0.4383(11) 0.4907(9) 1.4723(6)
C7 C 0.5275(11) 0.2000(9) 0.6881(6)
C8 C 0.4015(11) 0.4751(9) 1.3632(6)
C9 C 0.0256(11) 0.5487(9) 0.5387(6)
C10 C 0.7535(11) 0.1870(9) 0.6757(6)
N2 N 0.1943(11) 0.5057(9) 0.8355(6)
C11 C 0.1749(11) 0.6226(9) 0.8101(6)
C12 C 0.4944(11) 0.4642(9) 1.3024(6)
C13 C 0.4830(11) 0.1828(9) 0.5871(6)
C14 C 0.7174(11) 0.1693(9) 0.5744(6)
C15 C 0.4515(11) 0.4568(9) 1.2030(6)
N3 N 0.3180(11) 0.4556(9) 1.1578(6)
N4 N 0.2803(11) 0.0826(9) 0.0544(6)
C16 C 0.1223(11) 0.6389(9) 0.7151(6)
C17 C 0.2605(11) 0.4718(9) 1.3154(6)
C18 C 0.2270(11) 0.4623(9) 1.2150(6)
C19 C 0.1620(11) 0.0257(9) -0.2544(6)
C20 C 0.1083(11) 0.4090(9) 0.6652(6)
C21 C 0.1608(11) 0.4022(9) 0.7618(6)
N5 N 0.1304(11) -0.0029(9) -0.3372(6)
C22 C 0.5286(11) 0.2840(9) 0.9382(6)
N6 N 0.4162(11) 0.3024(9) 0.9405(6)
C23 C 0.9440(11) 0.2647(9) 0.9396(6)
N7 N 1.0618(11) 0.2670(9) 0.9475(6)
C24 C 0.4616(11) 0.1092(9) 0.1994(6)
C25 C 0.1885(11) 0.0926(9) 0.1123(6)
C26 C 0.2267(11) 0.1104(9) 0.2141(6)
C27 C 0.4112(11) 0.0898(9) 0.0988(6)
H1 H 0.338800 0.151600 0.406100
H2 H 0.612200 0.137900 0.385500
H3 H 0.364900 0.487600 1.507800
H4 H 0.458300 0.211900 0.726800
H5 H 0.019600 0.636200 0.525100
H6 H 0.851000 0.190000 0.704900
H7 H 0.199500 0.701100 0.859400
H8 H 0.591700 0.463300 1.330300
H9 H 0.386100 0.180900 0.556800
H10 H 0.787400 0.157900 0.536400
H11 H 0.518400 0.451800 1.162000
H12 H 0.109000 0.725000 0.700700
H13 H 0.189100 0.476800 1.352700
H14 H 0.129300 0.459400 1.186500
H15 H 0.086700 0.330800 0.615600
H16 H 0.173500 0.315500 0.775200
H17 H 0.559400 0.116100 0.229200
H18 H 0.090700 0.086400 0.082700
H19 H 0.157000 0.115600 0.252800
H20 H 0.481100 0.080400 0.060400
Ag1_2 Ag 1.7284(11) 0.2624(9) 0.9171(6)
Ag1_3 Ag -0.2716(11) 0.2624(9) 0.9171(6)
Ag2_2 Ag 1.2590(11) 0.4499(9) 0.9910(6)
Ag2A Ag -0.2590(11) 0.5501(9) 0.0090(6)
Ag2A_2 Ag 0.7410(11) 0.5501(9) 2.0090(6)
Ag3_2 Ag 1.2149(11) 0.0904(9) -0.1041(6)
C1_2 C 1.3664(11) 0.1195(9) 0.2597(6)
C2_2 C 1.4087(11) 0.1412(9) 0.3679(6)
N1_2 N 1.6624(11) 0.2020(9) 0.7337(6)
C3_2 C 1.5785(11) 0.1672(9) 0.5274(6)
C4_2 C 1.5381(11) 0.1476(9) 0.4201(6)
C5A C -0.0859(11) 0.4692(9) 0.3615(6)
C6A C 0.5617(11) 0.5093(9) 1.5277(6)
C7_2 C 1.5275(11) 0.2000(9) 0.6881(6)
C8A C 0.5985(11) 0.5249(9) 1.6368(6)
C9A C -0.0256(11) 0.4513(9) 0.4613(6)
C10_2 C 1.7535(11) 0.1870(9) 0.6757(6)
N2A N -0.1943(11) 0.4943(9) 0.1645(6)
N2_2 N 1.1943(11) 0.5057(9) 0.8355(6)
C11A C -0.1749(11) 0.3774(9) 0.1899(6)
C12A C 0.5056(11) 0.5358(9) 1.6976(6)
C13_2 C 1.4830(11) 0.1828(9) 0.5871(6)
C14_2 C 1.7174(11) 0.1693(9) 0.5744(6)
C15A C 0.5485(11) 0.5432(9) 1.7970(6)
N3A N 0.6820(11) 0.5444(9) 1.8422(6)
N3_2 N 1.3180(11) 0.4556(9) 1.1578(6)
N4_2 N 1.2803(11) 0.0826(9) 0.0544(6)
C16A C -0.1223(11) 0.3611(9) 0.2849(6)
C17A C 0.7395(11) 0.5282(9) 1.6846(6)
C18A C 0.7730(11) 0.5377(9) 1.7850(6)
C19_2 C 1.1620(11) 0.0257(9) -0.2544(6)
C20A C -0.1083(11) 0.5910(9) 0.3348(6)
C21A C -0.1608(11) 0.5978(9) 0.2382(6)
N5_2 N 1.1304(11) -0.0029(9) -0.3372(6)
C22_2 C 1.5286(11) 0.2840(9) 0.9382(6)
N6_2 N 1.4162(11) 0.3024(9) 0.9405(6)
C23_2 C -0.0560(11) 0.2647(9) 0.9396(6)
C23_3 C 1.9440(11) 0.2647(9) 0.9396(6)
N7_2 N 0.0618(11) 0.2670(9) 0.9475(6)
C24_2 C 1.4616(11) 0.1092(9) 0.1994(6)
C25_2 C 1.1885(11) 0.0926(9) 0.1123(6)
C26_2 C 1.2267(11) 0.1104(9) 0.2141(6)
C27_2 C 1.4112(11) 0.0898(9) 0.0988(6)
H1_2 H 1.338800 0.151600 0.406100
H2_2 H 1.612200 0.137900 0.385500
H3A H 0.635100 0.512400 1.492200
H4_2 H 1.458300 0.211900 0.726800
H5A H -0.019600 0.363800 0.474900
H6_2 H 1.851000 0.190000 0.704900
H7A H -0.199500 0.298900 0.140600
H8A H 0.408300 0.536700 1.669700
H9_2 H 1.386100 0.180900 0.556800
H10_2 H 1.787400 0.157900 0.536400
H11A H 0.481600 0.548200 1.838000
H12A H -0.109000 0.275000 0.299300
H13A H 0.810900 0.523200 1.647300
H14A H 0.870700 0.540600 1.813500
H15A H -0.086700 0.669200 0.384400
H16A H -0.173500 0.684500 0.224800
H17_2 H 1.559400 0.116100 0.229200
H18_2 H 1.090700 0.086400 0.082700
H19_2 H 1.157000 0.115600 0.252800
H20_2 H 1.481100 0.080400 0.060400
O1 O 0.1068(11) 0.1416(9) 0.4891(6)
H21 H 0.200200 0.152900 0.528900
H22 H 0.028900 0.150700 0.519800
loop_
_geom_bond_atom_site_label_1
_geom_bond_atom_site_label_2
_geom_bond_site_symmetry_1
_geom_bond_site_symmetry_2
Ag1 N1 1_555 1_555
Ag2 N2 1_555 1_555
Ag3 N4 1_555 1_555
C1 C2 1_555 1_555
C2 C4 1_555 1_555
N1 C7 1_555 1_555
C3 C4 1_555 1_555
C4 H2 1_555 1_555
C5 C9 1_555 1_555
C6 C8 1_555 1_555
C7 C13 1_555 1_555
C8 C12 1_555 1_555
C9 H5 1_555 1_555
C10 N1 1_555 1_555
N2 C11 1_555 1_555
C11 C16 1_555 1_555
C12 C15 1_555 1_555
C13 C3 1_555 1_555
C14 C3 1_555 1_555
C15 N3 1_555 1_555
N3 Ag2 1_555 1_555
N4 C25 1_555 1_555
C16 C5 1_555 1_555
C17 C8 1_555 1_555
C18 N3 1_555 1_555
C19 Ag3 1_555 1_555
C20 C5 1_555 1_555
C21 N2 1_555 1_555
N5 C19 1_555 1_555
C22 Ag1 1_555 1_555
N6 Ag2 1_555 1_555
C23 Ag1 1_555 1_555
N7 C23 1_555 1_555
O1 H21 1_555 1_555
C24 C1 1_555 1_555
C25 C26 1_555 1_555
C26 C1 1_555 1_555
C27 N4 1_555 1_555
H1 C2 1_555 1_555
H3 C6 1_555 1_555
H4 C7 1_555 1_555
H6 C10 1_555 1_555
H7 C11 1_555 1_555
H8 C12 1_555 1_555
H9 C13 1_555 1_555
H10 C14 1_555 1_555
H11 C15 1_555 1_555
H12 C16 1_555 1_555
H13 C17 1_555 1_555
H14 C18 1_555 1_555
H15 C20 1_555 1_555
H16 C21 1_555 1_555
H17 C24 1_555 1_555
H18 C25 1_555 1_555
H19 C26 1_555 1_555
H20 C27 1_555 1_555
H22 O1 1_555 1_555
Ag1_2 N1_2 1_555 1_555
Ag1_3 C23_2 1_555 1_555
Ag2_2 N7 1_555 1_555
Ag2A N2A 1_555 1_555
Ag2A_2 N3A 1_555 1_555
Ag3_2 N4_2 1_555 1_555
C1_2 C2_2 1_555 1_555
C2_2 C4_2 1_555 1_555
N1_2 C7_2 1_555 1_555
C3_2 C4_2 1_555 1_555
C4_2 H2_2 1_555 1_555
C5A C9A 1_555 1_555
C6A C6 1_555 1_555
C7_2 C13_2 1_555 1_555
C8A C6A 1_555 1_555
C9A C9 1_555 1_555
C10_2 N1_2 1_555 1_555
N2A C11A 1_555 1_555
N2_2 Ag2_2 1_555 1_555
C11A C16A 1_555 1_555
C12A C8A 1_555 1_555
C13_2 C3_2 1_555 1_555
C14_2 C3_2 1_555 1_555
C15A C12A 1_555 1_555
N3A C15A 1_555 1_555
N3_2 Ag2_2 1_555 1_555
N4_2 C25_2 1_555 1_555
C16A C5A 1_555 1_555
C17A C8A 1_555 1_555
C18A N3A 1_555 1_555
C19_2 Ag3_2 1_555 1_555
C20A C5A 1_555 1_555
C21A N2A 1_555 1_555
N5_2 C19_2 1_555 1_555
C22_2 Ag1_2 1_555 1_555
N6_2 Ag2_2 1_555 1_555
C23_2 N7_2 1_555 1_555
C23_3 Ag1_2 1_555 1_555
N7_2 Ag2 1_555 1_555
C24_2 C1_2 1_555 1_555
C25_2 C26_2 1_555 1_555
C26_2 C1_2 1_555 1_555
C27_2 N4_2 1_555 1_555
H1_2 C2_2 1_555 1_555
H3A C6A 1_555 1_555
H4_2 C7_2 1_555 1_555
H5A C9A 1_555 1_555
H6_2 C10_2 1_555 1_555
H7A C11A 1_555 1_555
H8A C12A 1_555 1_555
H9_2 C13_2 1_555 1_555
H10_2 C14_2 1_555 1_555
H11A C15A 1_555 1_555
H12A C16A 1_555 1_555
H13A C17A 1_555 1_555
H14A C18A 1_555 1_555
H15A C20A 1_555 1_555
H16A C21A 1_555 1_555
H17_2 C24_2 1_555 1_555
H18_2 C25_2 1_555 1_555
H19_2 C26_2 1_555 1_555
H20_2 C27_2 1_555 1_555
C10 C14 1_555 1_555
C17 C18 1_555 1_555
C20 C21 1_555 1_555
C22 N6 1_555 1_555
C24 C27 1_555 1_555
C10_2 C14_2 1_555 1_555
C17A C18A 1_555 1_555
C20A C21A 1_555 1_555
C22_2 N6_2 1_555 1_555
C24_2 C27_2 1_555 1_555

#END
