
#######################################################################
#
#                 Cambridge Crystallographic Data Centre
#                                CCDC 
#
#######################################################################
#
# If this CIF has been generated from an entry in the Cambridge 
# Structural Database, then it will include bibliographic, chemical, 
# crystal, experimental, refinement or atomic coordinate data resulting 
# from the CCDC's data processing and validation procedures.
#
#######################################################################

data_FOPNOO
_symmetry_cell_setting           monoclinic
_symmetry_space_group_name_H-M   'P 21/c'
_symmetry_Int_Tables_number      14
_space_group_name_Hall           '-P 2ybc'
loop_
_symmetry_equiv_pos_site_id
_symmetry_equiv_pos_as_xyz
1 x,y,z
2 -x,1/2+y,1/2-z
3 -x,-y,-z
4 x,1/2-y,1/2+z
_cell_length_a                   10.1872(5)
_cell_length_b                   9.1610(5)
_cell_length_c                   14.4862(6)
_cell_angle_alpha                90
_cell_angle_beta                 130(18)
_cell_angle_gamma                90
_cell_volume                     1035.63
loop_
_atom_site_label
_atom_site_type_symbol
_atom_site_fract_x
_atom_site_fract_y
_atom_site_fract_z
Ag1 Ag 0.0772(11) 0.0830(9) -0.1277(7)
Ag2 Ag 0.2209(11) 0.0094(9) -0.2501(7)
N1 N 0.2286(11) 0.0507(9) 0.0799(7)
C1 C 0.0140(11) 0.2475(9) -0.2504(7)
C2 C 0.3273(11) 0.1570(9) 0.1676(7)
C3 C 0.3367(11) -0.1060(9) 0.2522(7)
C4 C 0.2362(11) -0.0813(9) 0.1257(7)
N2 N 0.0209(11) -0.1597(9) -0.1845(7)
C5 C 0.0487(11) 0.0013(9) -0.4463(7)
C6 C 0.5533(11) -0.0208(9) 0.4832(7)
N3 N 0.4422(11) 0.0028(9) -0.0539(7)
C7 C 0.4398(11) 0.0035(9) 0.3415(7)
C8 C 0.4340(11) 0.1358(9) 0.2954(7)
H1 H 0.325090 0.252850 0.139820
H2 H 0.335870 -0.200610 0.280230
H3 H 0.168070 -0.160830 0.066620
H4 H 0.660630 0.038810 0.531840
H5 H 0.587980 -0.121790 0.502910
H6 H 0.505400 0.215480 0.353590
C1A C -0.0140(11) -0.2525(9) -0.2496(7)
N2A N -0.0209(11) 0.3403(9) -0.3155(7)
C5B C -0.0487(11) -0.0013(9) -0.5537(7)
C6B C 0.4467(11) 0.0208(9) 0.5168(7)
N3B N 0.5578(11) -0.0028(9) 0.0539(7)
loop_
_geom_bond_atom_site_label_1
_geom_bond_atom_site_label_2
_geom_bond_site_symmetry_1
_geom_bond_site_symmetry_2
Ag1 Ag2 1_555 1_555
Ag2 C5 1_555 1_555
N1 Ag1 1_555 1_555
C1 Ag1 1_555 1_555
C2 N1 1_555 1_555
C3 C4 1_555 1_555
C4 N1 1_555 1_555
N2 Ag1 1_555 1_555
C5 C5B 1_555 1_555
C6 C7 1_555 1_555
N3 Ag2 1_555 1_555
C7 C3 1_555 1_555
C8 C2 1_555 1_555
H1 C2 1_555 1_555
H2 C3 1_555 1_555
H3 C4 1_555 1_555
H4 C6 1_555 1_555
H5 C6 1_555 1_555
H6 C8 1_555 1_555
C1A N2 1_555 1_555
N2A C1 1_555 1_555
C6B C6 1_555 1_555
N3B N3 1_555 1_555
C7 C8 1_555 1_555

#END
