
#######################################################################
#
#                 Cambridge Crystallographic Data Centre
#                                CCDC 
#
#######################################################################
#
# If this CIF has been generated from an entry in the Cambridge 
# Structural Database, then it will include bibliographic, chemical, 
# crystal, experimental, refinement or atomic coordinate data resulting 
# from the CCDC's data processing and validation procedures.
#
#######################################################################

data_FOPPIK
_symmetry_cell_setting           triclinic
_symmetry_space_group_name_H-M   'P -1'
_symmetry_Int_Tables_number      2
_space_group_name_Hall           '-P 1'
loop_
_symmetry_equiv_pos_site_id
_symmetry_equiv_pos_as_xyz
1 x,y,z
2 -x,-y,-z
_cell_length_a                   8.063(3)
_cell_length_b                   14.558(5)
_cell_length_c                   16.248(6)
_cell_angle_alpha                74.962(7)
_cell_angle_beta                 87.505(8)
_cell_angle_gamma                88.690(9)
_cell_volume                     1840.02
loop_
_atom_site_label
_atom_site_type_symbol
_atom_site_fract_x
_atom_site_fract_y
_atom_site_fract_z
Ag1 Ag 0.0000 0.5000 0.0000
Ag2 Ag -0.95361(16) 0.74036(9) 0.50997(8)
Ag3 Ag -2.0000 1.0000 1.0000
S1 S -0.7688(4) 0.3586(3) 0.1499(2)
S2 S -0.7545(5) 0.3939(2) 0.3226(2)
S3 S -1.0098(5) 1.0944(3) 0.7002(2)
S4 S -1.2222(4) 0.9812(3) 0.8407(2)
N1 N -0.2396(13) 0.4510(8) 0.0533(7)
N2 N -0.8970(16) 0.6290(9) 0.4521(7)
N3 N -0.9795(18) 0.8600(8) 0.5651(7)
N4 N -1.7556(14) 0.9807(8) 0.9420(7)
C1 C -0.3159(18) 0.4821(9) 0.1147(7)
H1 H -0.2596 0.5239 0.1378
C2 C -0.4769(17) 0.4555(9) 0.1471(8)
H2 H -0.5232 0.4808 0.1900
C3 C -0.5676(16) 0.3938(8) 0.1173(8)
C4 C -0.4940(17) 0.3598(8) 0.0509(8)
H3 H -0.5491 0.3190 0.0260
C5 C -0.3329(19) 0.3909(10) 0.0244(8)
H4 H -0.2835 0.3672 -0.0188
C6 C -0.8350(15) 0.4349(8) 0.2192(7)
H5 H -0.7976 0.4993 0.1936
H6 H -0.9554 0.4365 0.2240
C7 C -0.8182(16) 0.4853(9) 0.3693(9)
C8 C -0.9301(16) 0.5595(9) 0.3325(9)
H7 H -0.9776 0.5635 0.2805
C9 C -0.9648(16) 0.6264(9) 0.3792(10)
H8 H -1.0426 0.6736 0.3574
C10 C -0.793(2) 0.5597(13) 0.4842(9)
H9 H -0.7421 0.5601 0.5344
C11 C -0.7543(19) 0.4839(10) 0.4457(9)
H10 H -0.6858 0.4339 0.4726
C12 C -0.8550(16) 0.9130(10) 0.5644(9)
H11 H -0.7576 0.9040 0.5346
C13 C -0.8631(16) 0.9855(9) 0.6087(8)
H12 H -0.7703 1.0214 0.6112
C14 C -1.0113(16) 1.0010(9) 0.6476(9)
C15 C -1.1413(18) 0.9491(11) 0.6432(8)
H13 H -1.2433 0.9616 0.6673
C16 C -1.126(2) 0.8730(10) 0.6010(9)
H14 H -1.2155 0.8345 0.5992
C17 C -1.2128(14) 1.0846(8) 0.7531(8)
H15 H -1.2361 1.1407 0.7735
H16 H -1.2963 1.0810 0.7129
C18 C -1.4355(16) 0.9809(9) 0.8751(8)
C19 C -1.4892(16) 0.9082(9) 0.9452(8)
H17 H -1.4184 0.8582 0.9697
C20 C -1.6458(17) 0.9124(9) 0.9761(8)
H18 H -1.6799 0.8651 1.0239
C21 C -1.7115(16) 1.0464(10) 0.8712(9)
H19 H -1.7897 1.0901 0.8433
C22 C -1.5483(19) 1.0496(10) 0.8386(9)
H20 H -1.5158 1.0986 0.7918
Ag2A Ag 0.95361(16) 0.25964(9) -0.50997(8)
Ag3_2 Ag 2.0000 0.0000 -1.0000
S1A S 0.7688(4) 0.6414(3) -0.1499(2)
S2A S 0.7545(5) 0.6061(2) -0.3226(2)
S3A S 1.0098(5) -0.0944(3) -0.7002(2)
S4A S 1.2222(4) 0.0188(3) -0.8407(2)
N1A N 0.2396(13) 0.5490(8) -0.0533(7)
N2A N 0.8970(16) 0.3710(9) -0.4521(7)
N3A N 0.9795(18) 0.1400(8) -0.5651(7)
N4A N 1.7556(14) 0.0193(8) -0.9420(7)
N4A_2 N -2.2444(14) 1.0193(8) 1.0580(7)
C1A C 0.3159(18) 0.5179(9) -0.1147(7)
H1A H 0.2596 0.4761 -0.1378
C2A C 0.4769(17) 0.5445(9) -0.1471(8)
H2A H 0.5232 0.5192 -0.1900
C3A C 0.5676(16) 0.6062(8) -0.1173(8)
C4A C 0.4940(17) 0.6402(8) -0.0509(8)
H3A H 0.5491 0.6810 -0.0260
C5A C 0.3329(19) 0.6091(10) -0.0244(8)
H4A H 0.2835 0.6328 0.0188
C6A C 0.8350(15) 0.5651(8) -0.2192(7)
H5A H 0.7976 0.5007 -0.1936
H6A H 0.9554 0.5635 -0.2240
C7A C 0.8182(16) 0.5147(9) -0.3693(9)
C8A C 0.9301(16) 0.4405(9) -0.3325(9)
H7A H 0.9776 0.4365 -0.2805
C9A C 0.9648(16) 0.3736(9) -0.3792(10)
H8A H 1.0426 0.3264 -0.3574
C10A C 0.793(2) 0.4403(13) -0.4842(9)
H9A H 0.7421 0.4399 -0.5344
C11A C 0.7543(19) 0.5161(10) -0.4457(9)
H10A H 0.6858 0.5661 -0.4726
C12A C 0.8550(16) 0.0870(10) -0.5644(9)
H11A H 0.7576 0.0960 -0.5346
C13A C 0.8631(16) 0.0145(9) -0.6087(8)
H12A H 0.7703 -0.0214 -0.6112
C14A C 1.0113(16) -0.0010(9) -0.6476(9)
C15A C 1.1413(18) 0.0509(11) -0.6432(8)
H13A H 1.2433 0.0384 -0.6673
C16A C 1.126(2) 0.1270(10) -0.6010(9)
H14A H 1.2155 0.1655 -0.5992
C17A C 1.2128(14) -0.0846(8) -0.7531(8)
H15A H 1.2361 -0.1407 -0.7735
H16A H 1.2963 -0.0810 -0.7129
C18A C 1.4355(16) 0.0191(9) -0.8751(8)
C19A C 1.4892(16) 0.0918(9) -0.9452(8)
H17A H 1.4184 0.1418 -0.9697
C20A C 1.6458(17) 0.0876(9) -0.9761(8)
H18A H 1.6799 0.1349 -1.0239
C21A C 1.7115(16) -0.0464(10) -0.8712(9)
H19A H 1.7897 -0.0901 -0.8433
C22A C 1.5483(19) -0.0496(10) -0.8386(9)
H20A H 1.5158 -0.0986 -0.7918
Cl1 Cl -0.9421(6) 1.2697(3) 0.9146(3)
O1 O -0.9979(12) 1.3650(7) 0.8931(6)
O2 O -0.7712(13) 1.2649(7) 0.9295(9)
O3 O -1.021(2) 1.2216(11) 0.9881(10)
O4 O -0.985(2) 1.2225(11) 0.8613(12)
Cl2 Cl -0.5408(6) 1.1967(4) 0.5510(3)
O5 O -0.6869(19) 1.2362(11) 0.5529(14)
O6 O -0.5335(16) 1.1402(13) 0.4948(11)
O7 O -0.522(4) 1.145(2) 0.6208(13)
O8 O -0.426(2) 1.2588(14) 0.5359(15)
O9 O -0.8247(15) 0.6514(9) 0.6912(8)
N5 N -0.6949(19) 0.7712(11) 0.7397(9)
C23 C -0.706(2) 0.7089(15) 0.6950(10)
H21 H -0.6134 0.7052 0.6599
C24 C -0.828(2) 0.7851(12) 0.7921(11)
H22 H -0.8669 0.8497 0.7735
H23 H -0.7927 0.7728 0.8497
H24 H -0.9153 0.7426 0.7894
C25 C -0.556(2) 0.8302(11) 0.7296(10)
H25 H -0.4905 0.8254 0.6800
H26 H -0.5920 0.8949 0.7228
H27 H -0.4898 0.8106 0.7790
Cl3 Cl -1.3934(7) 1.3109(3) 0.8080(3)
Cl4 Cl -1.6223(7) 1.4293(4) 0.6929(3)
C26 C -1.556(2) 1.3169(11) 0.7358(12)
H28 H -1.5163 1.2890 0.6903
H29 H -1.6483 1.2794 0.7657
loop_
_geom_bond_atom_site_label_1
_geom_bond_atom_site_label_2
_geom_bond_site_symmetry_1
_geom_bond_site_symmetry_2
Ag1 N1 1_555 1_555
Ag2 N2 1_555 1_555
Ag3 N4 1_555 1_555
S1 C3 1_555 1_555
S2 C6 1_555 1_555
S3 C14 1_555 1_555
S4 C17 1_555 1_555
N1 C1 1_555 1_555
N2 C9 1_555 1_555
N3 Ag2 1_555 1_555
N4 C20 1_555 1_555
C1 H1 1_555 1_555
C2 C1 1_555 1_555
H2 C2 1_555 1_555
C3 C2 1_555 1_555
C4 C3 1_555 1_555
H3 C4 1_555 1_555
C5 N1 1_555 1_555
H4 C5 1_555 1_555
C6 S1 1_555 1_555
H5 C6 1_555 1_555
H6 C6 1_555 1_555
C7 S2 1_555 1_555
C8 C7 1_555 1_555
H7 C8 1_555 1_555
C9 C8 1_555 1_555
H8 C9 1_555 1_555
C10 N2 1_555 1_555
H9 C10 1_555 1_555
C11 C7 1_555 1_555
H10 C11 1_555 1_555
C12 N3 1_555 1_555
H11 C12 1_555 1_555
C13 C12 1_555 1_555
H12 C13 1_555 1_555
C14 C13 1_555 1_555
C15 C14 1_555 1_555
H13 C15 1_555 1_555
C16 N3 1_555 1_555
H14 C16 1_555 1_555
C17 S3 1_555 1_555
H15 C17 1_555 1_555
H16 C17 1_555 1_555
C18 S4 1_555 1_555
C19 C18 1_555 1_555
H17 C19 1_555 1_555
C20 C19 1_555 1_555
H18 C20 1_555 1_555
C21 N4 1_555 1_555
H19 C21 1_555 1_555
C22 C18 1_555 1_555
H20 C22 1_555 1_555
Cl1 O1 1_555 1_555
O2 Cl1 1_555 1_555
O3 Cl1 1_555 1_555
O4 Cl1 1_555 1_555
Cl2 O5 1_555 1_555
O6 Cl2 1_555 1_555
O7 Cl2 1_555 1_555
O8 Cl2 1_555 1_555
O9 C23 1_555 1_555
N5 C23 1_555 1_555
C23 H21 1_555 1_555
C24 N5 1_555 1_555
H22 C24 1_555 1_555
H23 C24 1_555 1_555
H24 C24 1_555 1_555
C25 N5 1_555 1_555
H25 C25 1_555 1_555
H26 C25 1_555 1_555
H27 C25 1_555 1_555
Cl3 C26 1_555 1_555
Cl4 C26 1_555 1_555
C26 H28 1_555 1_555
H29 C26 1_555 1_555
Ag2A N2A 1_555 1_555
Ag3_2 N4A 1_555 1_555
S1A C3A 1_555 1_555
S2A C6A 1_555 1_555
S3A C14A 1_555 1_555
S4A C17A 1_555 1_555
N1A Ag1 1_555 1_555
N2A C9A 1_555 1_555
N3A Ag2A 1_555 1_555
N4A C20A 1_555 1_555
N4A_2 Ag3 1_555 1_555
C1A N1A 1_555 1_555
H1A C1A 1_555 1_555
C2A C1A 1_555 1_555
H2A C2A 1_555 1_555
C3A C2A 1_555 1_555
C4A C3A 1_555 1_555
H3A C4A 1_555 1_555
C5A N1A 1_555 1_555
H4A C5A 1_555 1_555
C6A S1A 1_555 1_555
H5A C6A 1_555 1_555
H6A C6A 1_555 1_555
C7A S2A 1_555 1_555
C8A C7A 1_555 1_555
H7A C8A 1_555 1_555
C9A C8A 1_555 1_555
H8A C9A 1_555 1_555
C10A N2A 1_555 1_555
H9A C10A 1_555 1_555
C11A C7A 1_555 1_555
H10A C11A 1_555 1_555
C12A N3A 1_555 1_555
H11A C12A 1_555 1_555
C13A C12A 1_555 1_555
H12A C13A 1_555 1_555
C14A C13A 1_555 1_555
C15A C14A 1_555 1_555
H13A C15A 1_555 1_555
C16A N3A 1_555 1_555
H14A C16A 1_555 1_555
C17A S3A 1_555 1_555
H15A C17A 1_555 1_555
H16A C17A 1_555 1_555
C18A S4A 1_555 1_555
C19A C18A 1_555 1_555
H17A C19A 1_555 1_555
C20A C19A 1_555 1_555
H18A C20A 1_555 1_555
C21A N4A 1_555 1_555
H19A C21A 1_555 1_555
C22A C18A 1_555 1_555
H20A C22A 1_555 1_555
C4 C5 1_555 1_555
C10 C11 1_555 1_555
C15 C16 1_555 1_555
C21 C22 1_555 1_555
C4A C5A 1_555 1_555
C10A C11A 1_555 1_555
C15A C16A 1_555 1_555
C21A C22A 1_555 1_555

#END
