
#######################################################################
#
#                 Cambridge Crystallographic Data Centre
#                                CCDC 
#
#######################################################################
#
# If this CIF has been generated from an entry in the Cambridge 
# Structural Database, then it will include bibliographic, chemical, 
# crystal, experimental, refinement or atomic coordinate data resulting 
# from the CCDC's data processing and validation procedures.
#
#######################################################################

data_FOPPIJ
_symmetry_cell_setting           monoclinic
_symmetry_space_group_name_H-M   'P 21/c'
_symmetry_Int_Tables_number      14
_space_group_name_Hall           '-P 2ybc'
loop_
_symmetry_equiv_pos_site_id
_symmetry_equiv_pos_as_xyz
1 x,y,z
2 -x,1/2+y,1/2-z
3 -x,-y,-z
4 x,1/2-y,1/2+z
_cell_length_a                   14.120(5)
_cell_length_b                   11.280(5)
_cell_length_c                   13.038(5)
_cell_angle_alpha                90
_cell_angle_beta                 101.67(3)
_cell_angle_gamma                90
_cell_volume                     2033.68
loop_
_atom_site_label
_atom_site_type_symbol
_atom_site_fract_x
_atom_site_fract_y
_atom_site_fract_z
La1 La 0.26836(2) 0.20768(2) 0.14835(2)
O1 O 0.34697(20) 0.40477(25) 0.12653(24)
O2 O 0.47256(23) 0.52285(28) 0.12453(28)
O3 O 0.35858(22) 0.01011(26) 0.13334(24)
O4 O 0.49013(27) -0.09567(30) 0.12616(31)
O5 O 0.15064(22) 0.07031(27) 0.21596(22)
O6 O 0.07781(25) -0.10581(28) 0.21399(23)
O7 O 0.26998(20) 0.21738(26) -0.04903(20)
O8 O 0.21717(22) 0.16291(26) -0.21536(20)
O9 O 0.12246(23) 0.32029(31) 0.06002(24)
O10 O 0.36384(25) 0.15356(35) 0.32716(24)
N1 N 0.45398(23) 0.21247(31) 0.13167(25)
N2 N 0.16591(22) 0.05024(28) 0.01877(23)
C1 C 0.50492(30) 0.11191(38) 0.13400(32)
C2 C 0.60374(40) 0.11143(53) 0.13922(43)
C3 C 0.64995(47) 0.21903(59) 0.13908(49)
C4 C 0.59741(40) 0.32428(51) 0.13429(42)
C5 C 0.49884(30) 0.31614(37) 0.13067(32)
C6 C 0.43476(30) 0.42358(38) 0.12675(32)
C7 C 0.44490(32) 0.00278(39) 0.13119(34)
C8 C 0.17225(26) 0.04649(34) -0.08290(28)
C9 C 0.13705(29) -0.04730(38) -0.14716(33)
C10 C 0.09703(31) -0.14264(40) -0.10474(34)
C11 C 0.09101(30) -0.13974(39) 0.00021(33)
C12 C 0.12453(27) -0.04048(35) 0.05860(29)
C13 C 0.11716(29) -0.02492(37) 0.17264(31)
C14 C 0.22368(27) 0.15067(34) -0.11869(29)
H1 H 0.6359(42) 0.0261(54) 0.1467(44)
H2 H 0.7286(42) 0.2306(52) 0.1460(43)
H3 H 0.6274(41) 0.4113(54) 0.1419(44)
H4 H 0.1425(40) -0.0409(53) -0.2157(4)
H5 H 0.0728(40) -0.2172(53) -0.1522(44)
H6 H 0.0612(40) -0.2093(54) 0.0295(43)
H7 H 0.4532(44) -0.1633(57) 0.1179(48)
H8 H 0.0837(44) 0.3597(58) 0.0803(48)
H9 H 0.1023(43) 0.3143(56) -0.0050(50)
H10 H 0.4077(45) 0.1043(57) 0.3411(48)
H11 H 0.3484(44) 0.1817(57) 0.3785(49)
O8C O 0.21717(22) 0.33709(26) 0.28464(20)
La1C La 0.26836(2) 0.29232(2) -0.35165(2)
O11 O 0.04056(22) 0.30863(29) -0.15023(22)
O12 O 0.03198(29) -0.05783(34) 0.40107(28)
H12 H 0.0248(44) 0.0191(60) 0.3911(48)
H13 H 0.0382(45) -0.0713(59) 0.3431(49)
O13 O 0.38152(36) 0.72912(38) 0.11509(43)
H14 H 0.4097(45) 0.6565(59) 0.1100(48)
H15 H 0.3188(47) 0.7187(58) 0.1008(48)
O14 O 0.79235(38) 0.09981(43) 0.42193(57)
loop_
_geom_bond_atom_site_label_1
_geom_bond_atom_site_label_2
_geom_bond_site_symmetry_1
_geom_bond_site_symmetry_2
La1 O1 1_555 1_555
O1 C6 1_555 1_555
O2 C6 1_555 1_555
O3 La1 1_555 1_555
O4 C7 1_555 1_555
O5 La1 1_555 1_555
O6 C13 1_555 1_555
O7 La1 1_555 1_555
O8 C14 1_555 1_555
O9 La1 1_555 1_555
O10 La1 1_555 1_555
O12 H12 1_555 1_555
O13 H14 1_555 1_555
N1 La1 1_555 1_555
N2 La1 1_555 1_555
C1 N1 1_555 1_555
C2 C1 1_555 1_555
C3 C2 1_555 1_555
C4 C3 1_555 1_555
C5 N1 1_555 1_555
C6 C5 1_555 1_555
C7 O3 1_555 1_555
C8 N2 1_555 1_555
C9 C8 1_555 1_555
C10 C9 1_555 1_555
C11 C10 1_555 1_555
C12 N2 1_555 1_555
C13 O5 1_555 1_555
C14 O7 1_555 1_555
H1 C2 1_555 1_555
H2 C3 1_555 1_555
H3 C4 1_555 1_555
H4 C9 1_555 1_555
H5 C10 1_555 1_555
H6 C11 1_555 1_555
H7 O4 1_555 1_555
H8 O9 1_555 1_555
H9 O9 1_555 1_555
H10 O10 1_555 1_555
H11 O10 1_555 1_555
H13 O12 1_555 1_555
H15 O13 1_555 1_555
O8C La1 1_555 1_555
La1C O8 1_555 1_555
C1 C7 1_555 1_555
C4 C5 1_555 1_555
C8 C14 1_555 1_555
C11 C12 1_555 1_555
C12 C13 1_555 1_555

#END
