
#######################################################################
#
#                 Cambridge Crystallographic Data Centre
#                                CCDC 
#
#######################################################################
#
# If this CIF has been generated from an entry in the Cambridge 
# Structural Database, then it will include bibliographic, chemical, 
# crystal, experimental, refinement or atomic coordinate data resulting 
# from the CCDC's data processing and validation procedures.
#
#######################################################################

data_FOPPUW
_symmetry_cell_setting           monoclinic
_symmetry_space_group_name_H-M   'C 2/c'
_symmetry_Int_Tables_number      15
_space_group_name_Hall           '-C 2yn'
loop_
_symmetry_equiv_pos_site_id
_symmetry_equiv_pos_as_xyz
1 x,y,z
2 -x,y,1/2-z
3 1/2+x,1/2+y,z
4 1/2-x,1/2+y,1/2-z
5 -x,-y,-z
6 x,-y,1/2+z
7 1/2-x,1/2-y,-z
8 1/2+x,1/2-y,1/2+z
_cell_length_a                   16.306(3)
_cell_length_b                   11.961(3)
_cell_length_c                   17.437(3)
_cell_angle_alpha                90
_cell_angle_beta                 107.338(5)
_cell_angle_gamma                90
_cell_volume                     3246.32
loop_
_atom_site_label
_atom_site_type_symbol
_atom_site_fract_x
_atom_site_fract_y
_atom_site_fract_z
Ag1 Ag 0.21457(4) 0.62815(5) 0.46383(4)
S1 S 0.22176(12) 0.85794(17) 0.11251(12)
S2 S 0.40424(13) 0.92215(17) 0.14600(12)
N1 N 0.2243(4) 0.6899(5) 0.3462(4)
C1 C 0.1608(5) 0.7999(8) 0.2314(6)
H1 H 0.1135 0.8415 0.2025
C2 C 0.2932(5) 0.6799(6) 0.3201(5)
H2 H 0.3404 0.6402 0.3514
C3 C 0.3209(4) 0.8300(6) 0.0911(4)
H3 H 0.3125 0.8392 0.0339
H4 H 0.3380 0.7532 0.1052
C4 C 0.2973(4) 0.7262(6) 0.2484(4)
H5 H 0.3454 0.7145 0.2311
N2 N 0.6193(4) 0.8816(5) 0.0318(3)
C5 C 0.4861(4) 0.9011(6) 0.1016(4)
C6 C 0.5498(5) 0.8180(6) 0.0096(4)
H6 H 0.5467 0.7648 -0.0301
C7 C 0.4818(5) 0.8249(6) 0.0410(4)
H7 H 0.4339 0.7792 0.0217
C8 C 0.5595(5) 0.9638(6) 0.1258(4)
H8 H 0.5661 1.0151 0.1673
C9 C 0.6234(5) 0.9527(6) 0.0906(4)
H9 H 0.6720 0.9973 0.1089
C10 C 0.2309(4) 0.7885(5) 0.2036(4)
C11 C 0.1613(5) 0.7493(8) 0.3021(6)
H10 H 0.1131 0.7582 0.3196
O1 O 0.3595(4) 0.6034(5) 0.5390(4)
O2 O 0.3090(3) 0.4436(5) 0.5690(3)
C12 C 0.3652(6) 0.5130(8) 0.5708(5)
C13 C 0.4489 0.4672 0.6236
F1 F 0.4637 0.3808 0.6582
F2 F 0.5020 0.4517 0.5697
F3 F 0.4955 0.5571 0.6636
Ag1G Ag 0.71457(4) 0.87185(5) -0.03617(4)
N2G N 0.1193(4) 0.6184(5) 0.5318(3)
loop_
_geom_bond_atom_site_label_1
_geom_bond_atom_site_label_2
_geom_bond_site_symmetry_1
_geom_bond_site_symmetry_2
Ag1 N1 1_555 1_555
S1 C3 1_555 1_555
S2 C3 1_555 1_555
N1 C2 1_555 1_555
C1 H1 1_555 1_555
C2 H2 1_555 1_555
C3 H3 1_555 1_555
H4 C3 1_555 1_555
C4 C2 1_555 1_555
H5 C4 1_555 1_555
N2 C6 1_555 1_555
C5 S2 1_555 1_555
C6 H6 1_555 1_555
C7 C5 1_555 1_555
H7 C7 1_555 1_555
C8 C5 1_555 1_555
H8 C8 1_555 1_555
C9 N2 1_555 1_555
H9 C9 1_555 1_555
C10 S1 1_555 1_555
C11 N1 1_555 1_555
H10 C11 1_555 1_555
O1 Ag1 1_555 1_555
O2 C12 1_555 1_555
C12 O1 1_555 1_555
C13 C12 1_555 1_555
F1 C13 1_555 1_555
F2 C13 1_555 1_555
F3 C13 1_555 1_555
Ag1G N2 1_555 1_555
N2G Ag1 1_555 1_555
C1 C10 1_555 1_555
C1 C11 1_555 1_555
C4 C10 1_555 1_555
C6 C7 1_555 1_555
C8 C9 1_555 1_555

#END
