
#######################################################################
#
#                 Cambridge Crystallographic Data Centre
#                                CCDC 
#
#######################################################################
#
# If this CIF has been generated from an entry in the Cambridge 
# Structural Database, then it will include bibliographic, chemical, 
# crystal, experimental, refinement or atomic coordinate data resulting 
# from the CCDC's data processing and validation procedures.
#
#######################################################################

data_FOPPEG
_symmetry_cell_setting           orthorhombic
_symmetry_space_group_name_H-M   'P c a 21'
_symmetry_Int_Tables_number      29
_space_group_name_Hall           'P 2c -2ac'
loop_
_symmetry_equiv_pos_site_id
_symmetry_equiv_pos_as_xyz
1 x,y,z
2 -x,-y,1/2+z
3 1/2+x,-y,z
4 1/2-x,y,1/2+z
_cell_length_a                   7.7568(8)
_cell_length_b                   14.8241(15)
_cell_length_c                   24.006(2)
_cell_angle_alpha                90
_cell_angle_beta                 90
_cell_angle_gamma                90
_cell_volume                     2760.39
loop_
_atom_site_label
_atom_site_type_symbol
_atom_site_fract_x
_atom_site_fract_y
_atom_site_fract_z
Ag1 Ag 0.17278(8) 0.91965(4) -0.00237(3)
S1 S -0.2233(3) 0.80110(14) -0.23861(9)
S2 S -0.4540(3) 0.96881(14) -0.24824(9)
N1 N 0.0547(10) 0.8897(4) -0.0818(3)
N2 N -0.2558(9) 1.0417(5) -0.4206(3)
C1 C -0.0998(12) 0.9224(6) -0.0939(3)
H1 H -0.1484 0.9636 -0.0693
C2 C -0.1927(12) 0.8998(5) -0.1405(4)
H2 H -0.3007 0.9251 -0.1468
C3 C -0.1239(10) 0.8389(5) -0.1779(3)
C4 C 0.0371(12) 0.8045(5) -0.1649(4)
H3 H 0.0890 0.7636 -0.1890
C5 C 0.1195(12) 0.8293(7) -0.1182(4)
H4 H 0.2263 0.8036 -0.1105
C6 C -0.4375(10) 0.8502(5) -0.2385(3)
H5 H -0.5041 0.8210 -0.2676
H6 H -0.4918 0.8354 -0.2033
C7 C -0.3784(9) 0.9903(6) -0.3153(3)
C8 C -0.3570(10) 1.0803(6) -0.3306(3)
H7 H -0.3831 1.1256 -0.3052
C9 C -0.2983(11) 1.1030(5) -0.3823(4)
H8 H -0.2875 1.1638 -0.3913
C10 C -0.2735(12) 0.9573(7) -0.4065(4)
H9 H -0.2424 0.9140 -0.4326
C11 C -0.3341(11) 0.9272(6) -0.3562(4)
H10 H -0.3456 0.8658 -0.3493
Ag1A Ag -0.17278(8) 1.08035(4) -0.50237(3)
N2A N 0.2558(9) 0.9583(5) 0.0794(3)
Ag2 Ag -0.76813(13) 0.41420(5) -0.25473(4)
S3 S -1.2040(3) 0.30415(15) -0.48503(9)
S4 S -1.4048(3) 0.48200(15) -0.48956(9)
N3 N -0.8849(10) 0.3900(5) -0.3355(3)
N4 N -1.2713(9) 0.5455(6) -0.6694(3)
C12 C -1.3011(11) 0.4628(7) -0.6540(4)
H11 H -1.2944 0.4188 -0.6815
C13 C -1.3417(11) 0.4338(6) -0.6007(4)
H12 H -1.3613 0.3733 -0.5927
C14 C -1.3516(9) 0.5000(6) -0.5597(3)
C15 C -1.3123(10) 0.5882(6) -0.5745(4)
H13 H -1.3107 0.6337 -0.5478
C16 C -1.2767(11) 0.6066(6) -0.6283(4)
H14 H -1.2540 0.6664 -0.6375
C17 C -1.4088(10) 0.3627(5) -0.4804(3)
H15 H -1.4856 0.3374 -0.5082
H16 H -1.4585 0.3500 -0.4442
C18 C -1.0907(11) 0.3392(5) -0.4259(3)
C19 C -0.9279(12) 0.3013(5) -0.4168(3)
H17 H -0.8843 0.2588 -0.4416
C20 C -0.8336(12) 0.3267(5) -0.3718(4)
H18 H -0.7279 0.2987 -0.3658
C21 C -1.0408(12) 0.4255(6) -0.3446(3)
H19 H -1.0822 0.4681 -0.3196
C22 C -1.1420(10) 0.4026(5) -0.3887(3)
H20 H -1.2480 0.4309 -0.3934
N5 N -0.3680(11) 0.3314(6) -0.2895(3)
O1 O -0.4247(8) 0.3980(5) -0.2658(3)
O2 O -0.4417(9) 0.3021(4) -0.3329(3)
O3 O -0.2439(10) 0.2904(5) -0.2708(3)
Ag2A Ag -1.23187(13) 0.58580(5) -0.75473(4)
N4A N -0.7287(9) 0.4545(6) -0.1694(3)
N6 N 0.4244(10) 0.1703(5) 0.4610(3)
O4 O 0.4825(8) 0.0975(5) 0.4726(3)
O5 O 0.4862(9) 0.2180(4) 0.4229(3)
O6 O 0.3028(9) 0.2030(4) 0.4887(4)
loop_
_geom_bond_atom_site_label_1
_geom_bond_atom_site_label_2
_geom_bond_site_symmetry_1
_geom_bond_site_symmetry_2
Ag1 N1 1_555 1_555
Ag2 N3 1_555 1_555
S1 C3 1_555 1_555
S2 C6 1_555 1_555
N1 C1 1_555 1_555
N2 C9 1_555 1_555
C1 H1 1_555 1_555
C2 C1 1_555 1_555
H2 C2 1_555 1_555
C3 C2 1_555 1_555
C4 C3 1_555 1_555
H3 C4 1_555 1_555
C5 N1 1_555 1_555
H4 C5 1_555 1_555
C6 S1 1_555 1_555
H5 C6 1_555 1_555
H6 C6 1_555 1_555
C7 S2 1_555 1_555
C8 C7 1_555 1_555
H7 C8 1_555 1_555
C9 C8 1_555 1_555
H8 C9 1_555 1_555
C10 N2 1_555 1_555
H9 C10 1_555 1_555
C11 C7 1_555 1_555
H10 C11 1_555 1_555
S3 C17 1_555 1_555
S4 C14 1_555 1_555
N3 C20 1_555 1_555
N4 C12 1_555 1_555
C12 H11 1_555 1_555
C13 C12 1_555 1_555
H12 C13 1_555 1_555
C14 C13 1_555 1_555
C15 C14 1_555 1_555
H13 C15 1_555 1_555
C16 N4 1_555 1_555
H14 C16 1_555 1_555
C17 S4 1_555 1_555
H15 C17 1_555 1_555
H16 C17 1_555 1_555
C18 S3 1_555 1_555
C19 C18 1_555 1_555
H17 C19 1_555 1_555
C20 C19 1_555 1_555
H18 C20 1_555 1_555
C21 N3 1_555 1_555
H19 C21 1_555 1_555
C22 C18 1_555 1_555
H20 C22 1_555 1_555
N5 O1 1_555 1_555
O1 Ag2 1_555 1_555
O2 N5 1_555 1_555
O3 N5 1_555 1_555
N6 O4 1_555 1_555
O5 N6 1_555 1_555
O6 N6 1_555 1_555
Ag1A N2 1_555 1_555
Ag2A N4 1_555 1_555
N2A Ag1 1_555 1_555
N4A Ag2 1_555 1_555
C4 C5 1_555 1_555
C10 C11 1_555 1_555
C15 C16 1_555 1_555
C21 C22 1_555 1_555

#END
