
#######################################################################
#
#                 Cambridge Crystallographic Data Centre
#                                CCDC 
#
#######################################################################
#
# If this CIF has been generated from an entry in the Cambridge 
# Structural Database, then it will include bibliographic, chemical, 
# crystal, experimental, refinement or atomic coordinate data resulting 
# from the CCDC's data processing and validation procedures.
#
#######################################################################

data_FOPQIL
_symmetry_cell_setting           monoclinic
_symmetry_space_group_name_H-M   'P 21/c'
_symmetry_Int_Tables_number      14
_space_group_name_Hall           '-P 2ybc'
loop_
_symmetry_equiv_pos_site_id
_symmetry_equiv_pos_as_xyz
1 x,y,z
2 -x,1/2+y,1/2-z
3 -x,-y,-z
4 x,1/2-y,1/2+z
_cell_length_a                   11.8952(3)
_cell_length_b                   8.4967(2)
_cell_length_c                   9.6999(2)
_cell_angle_alpha                90
_cell_angle_beta                 96.4390(10)
_cell_angle_gamma                90
_cell_volume                     974.184
loop_
_atom_site_label
_atom_site_type_symbol
_atom_site_fract_x
_atom_site_fract_y
_atom_site_fract_z
Mn1 Mn 0.19929(3) 0.10885(4) 0.02461(4)
O1 O 0.16997(13) 0.10205(17) -0.20372(17)
O2 O 0.32800(12) -0.04198(19) -0.04988(17)
O3 O 0.32243(14) -0.25822(18) -0.17937(18)
O4 O 0.09520(13) -0.10449(17) 0.00289(18)
O5 O -0.05524(12) -0.23125(18) -0.09558(18)
O6 O 0.29356(13) 0.18086(19) -0.49461(18)
O7 O 0.40886(13) 0.03494(19) -0.35177(19)
O8 O 0.2627(2) 0.0471(2) 0.2334(2)
H1 H 0.266(3) 0.099(3) 0.307(2)
H2 H 0.279(3) -0.0484(15) 0.248(3)
C1 C 0.18832(16) -0.0563(2) -0.2511(2)
C2 C 0.28862(17) -0.1255(2) -0.1524(2)
C3 C 0.08086(17) -0.1545(3) -0.2425(2)
H3 H 0.0209 -0.1116 -0.3078
H4 H 0.0953 -0.2610 -0.2720
C4 C 0.03896(16) -0.1621(2) -0.1012(2)
C5 C 0.21769(17) -0.0512(3) -0.4000(2)
H5 H 0.1515 -0.0191 -0.4611
H6 H 0.2390 -0.1558 -0.4276
C6 C 0.31436(17) 0.0627(3) -0.4157(2)
H7 H 0.1247(19) 0.151(3) -0.262(2)
Mn1B Mn -0.19929(3) -0.10885(4) -0.02461(4)
Mn1C Mn 0.19929(3) 0.39115(4) -0.47539(4)
O5B O 0.05524(12) 0.23125(18) 0.09558(18)
O6C O 0.29356(13) 0.31914(19) 0.00539(18)
N1 N 0.49777(16) -0.2223(2) 0.1140(2)
H8 H 0.4463(14) -0.166(2) 0.069(2)
H9 H 0.4684(16) -0.3082(15) 0.137(2)
H10 H 0.5246(17) -0.172(2) 0.1866(14)
H11 H 0.5499(13) -0.241(2) 0.0633(19)
loop_
_geom_bond_atom_site_label_1
_geom_bond_atom_site_label_2
_geom_bond_site_symmetry_1
_geom_bond_site_symmetry_2
Mn1 O1 1_555 1_555
O1 C1 1_555 1_555
O2 Mn1 1_555 1_555
O3 C2 1_555 1_555
O4 Mn1 1_555 1_555
O5 C4 1_555 1_555
O6 C6 1_555 1_555
O7 C6 1_555 1_555
O8 Mn1 1_555 1_555
H1 O8 1_555 1_555
H2 O8 1_555 1_555
C1 C2 1_555 1_555
C2 O2 1_555 1_555
C3 C1 1_555 1_555
H3 C3 1_555 1_555
H4 C3 1_555 1_555
C4 O4 1_555 1_555
C5 C1 1_555 1_555
H5 C5 1_555 1_555
H6 C5 1_555 1_555
C6 C5 1_555 1_555
N1 H8 1_555 1_555
H7 O1 1_555 1_555
H9 N1 1_555 1_555
H10 N1 1_555 1_555
H11 N1 1_555 1_555
Mn1B O5 1_555 1_555
Mn1C O6 1_555 1_555
O5B Mn1 1_555 1_555
O6C Mn1 1_555 1_555
C3 C4 1_555 1_555

#END
