
#######################################################################
#
#                 Cambridge Crystallographic Data Centre
#                                CCDC 
#
#######################################################################
#
# If this CIF has been generated from an entry in the Cambridge 
# Structural Database, then it will include bibliographic, chemical, 
# crystal, experimental, refinement or atomic coordinate data resulting 
# from the CCDC's data processing and validation procedures.
#
#######################################################################

data_FOPQOR
_symmetry_cell_setting           triclinic
_symmetry_space_group_name_H-M   'P -1'
_symmetry_Int_Tables_number      2
_space_group_name_Hall           '-P 1'
loop_
_symmetry_equiv_pos_site_id
_symmetry_equiv_pos_as_xyz
1 x,y,z
2 -x,-y,-z
_cell_length_a                   6.3830(13)
_cell_length_b                   11.323(2)
_cell_length_c                   15.939(3)
_cell_angle_alpha                92.08(3)
_cell_angle_beta                 90.86(3)
_cell_angle_gamma                93.66(3)
_cell_volume                     1148.71
loop_
_atom_site_label
_atom_site_type_symbol
_atom_site_fract_x
_atom_site_fract_y
_atom_site_fract_z
C1 C 0.1378(5) 0.4394(3) 0.7576(2)
C2 C 0.0935(6) 0.4468(4) 0.8426(2)
C3 C 0.2389(7) 0.5030(4) 0.89902(17)
H1 H 0.2092 0.5079 0.9559
C4 C 0.4287(6) 0.5518(4) 0.8703(2)
C5 C 0.4730(5) 0.5445(4) 0.7852(3)
H2 H 0.6000 0.5771 0.7660
C6 C 0.3276(6) 0.4883(4) 0.72888(18)
H3 H 0.3573 0.4833 0.6720
Eu1 Eu -0.21384(3) 0.19124(2) 0.588542(14)
F1 F 0.1990(8) 0.1470(5) 1.0169(2)
F2 F -0.1021(5) 0.0536(3) 0.7522(2)
F3 F -0.2656(8) 0.1756(5) 0.0571(2)
F4 F 0.1136(6) 0.2644(4) 0.3043(2)
F5 F 0.5703(9) 0.6007(5) 0.9221(3)
F6 F -0.0866(9) 0.4075(5) 0.8751(3)
O1 O -0.0580(5) 0.2006(3) 0.4490(2)
O2 O -0.3961(5) 0.1544(3) 0.4476(2)
O3 O 0.0289(6) 0.3713(3) 0.6182(2)
O4 O -0.1595(6) 0.3027(3) 0.7212(2)
O5 O 0.1188(5) 0.1234(3) 0.6179(2)
O6 O 0.4613(5) 0.1402(3) 0.6397(2)
O7 O -0.3748(6) 0.3656(3) 0.5487(3)
H4 H -0.5034 0.3727 0.5260
H5 H -0.3802 0.4343 0.5727
O8 O -0.2409(5) -0.0200(3) 0.5697(2)
H6 H -0.3550 -0.0679 0.5614
H7 H -0.1777 -0.0779 0.5980
C7 C -0.0095(8) 0.3688(4) 0.6953(3)
C8 C 0.0670(8) 0.0997(5) 0.7986(3)
C9 C 0.2492(7) 0.1389(4) 0.7587(3)
C10 C 0.4146(8) 0.1837(5) 0.8112(3)
H8 H 0.5399 0.2108 0.7873
C11 C 0.3980(10) 0.1890(6) 0.8976(4)
H9 H 0.5087 0.2210 0.9316
C12 C 0.2165(11) 0.1466(7) 0.9316(4)
C13 C 0.0466(10) 0.1020(6) 0.8838(4)
H10 H -0.0774 0.0744 0.9085
C14 C 0.2769(7) 0.1340(4) 0.6656(3)
C15 C -0.2301(8) 0.1790(4) 0.4086(3)
C16 C -0.0680(9) 0.2208(5) 0.2673(3)
C17 C -0.0730(10) 0.2212(6) 0.1813(4)
H11 H 0.0419 0.2496 0.1511
C18 C -0.2567(11) 0.1773(6) 0.1417(4)
C19 C -0.4308(10) 0.1379(6) 0.1846(4)
H12 H -0.5536 0.1104 0.1562
C20 C -0.4181(9) 0.1405(5) 0.2715(3)
H13 H -0.5351 0.1147 0.3015
C21 C -0.2349(8) 0.1807(4) 0.3154(3)
Eu1_2 Eu 0.78616(3) 0.19124(2) 0.588542(14)
O6_2 O -0.5387(5) 0.1402(3) 0.6397(2)
O9 O 0.2459(6) 0.4009(3) 0.4738(3)
H14 H 0.1529 0.3919 0.5098
H15 H 0.2143 0.3670 0.4284
loop_
_geom_bond_atom_site_label_1
_geom_bond_atom_site_label_2
_geom_bond_site_symmetry_1
_geom_bond_site_symmetry_2
C1 C2 1_555 1_555
C2 C3 1_555 1_555
C3 H1 1_555 1_555
C4 C3 1_555 1_555
C5 C4 1_555 1_555
H2 C5 1_555 1_555
C6 C1 1_555 1_555
H3 C6 1_555 1_555
Eu1 O1 1_555 1_555
F1 C12 1_555 1_555
F2 C8 1_555 1_555
F3 C18 1_555 1_555
F4 C16 1_555 1_555
F5 C4 1_555 1_555
F6 C2 1_555 1_555
O1 C15 1_555 1_555
O2 Eu1 1_555 1_555
O3 Eu1 1_555 1_555
O4 Eu1 1_555 1_555
O5 Eu1 1_555 1_555
O6 C14 1_555 1_555
O7 Eu1 1_555 1_555
H4 O7 1_555 1_555
H5 O7 1_555 1_555
O8 Eu1 1_555 1_555
H6 O8 1_555 1_555
H7 O8 1_555 1_555
C7 C1 1_555 1_555
C8 C9 1_555 1_555
C9 C10 1_555 1_555
C10 H8 1_555 1_555
C11 C10 1_555 1_555
H9 C11 1_555 1_555
C12 C11 1_555 1_555
C13 C8 1_555 1_555
H10 C13 1_555 1_555
C14 O5 1_555 1_555
C15 O2 1_555 1_555
C16 C17 1_555 1_555
C17 H11 1_555 1_555
C18 C17 1_555 1_555
C19 C18 1_555 1_555
H12 C19 1_555 1_555
C20 C19 1_555 1_555
H13 C20 1_555 1_555
C21 C15 1_555 1_555
O9 H14 1_555 1_555
H15 O9 1_555 1_555
Eu1_2 O6 1_555 1_555
O6_2 Eu1 1_555 1_555
C5 C6 1_555 1_555
O3 C7 1_555 1_555
O4 C7 1_555 1_555
C9 C14 1_555 1_555
C12 C13 1_555 1_555
C16 C21 1_555 1_555
C20 C21 1_555 1_555

#END
