
#######################################################################
#
#                 Cambridge Crystallographic Data Centre
#                                CCDC 
#
#######################################################################
#
# If this CIF has been generated from an entry in the Cambridge 
# Structural Database, then it will include bibliographic, chemical, 
# crystal, experimental, refinement or atomic coordinate data resulting 
# from the CCDC's data processing and validation procedures.
#
#######################################################################

data_FOPQUX
_symmetry_cell_setting           monoclinic
_symmetry_space_group_name_H-M   'P 21/n'
_symmetry_Int_Tables_number      14
_space_group_name_Hall           '-P 2yn'
loop_
_symmetry_equiv_pos_site_id
_symmetry_equiv_pos_as_xyz
1 x,y,z
2 1/2-x,1/2+y,1/2-z
3 -x,-y,-z
4 1/2+x,1/2-y,1/2+z
_cell_length_a                   12.530(3)
_cell_length_b                   6.9534(14)
_cell_length_c                   26.079(5)
_cell_angle_alpha                90
_cell_angle_beta                 101.65(3)
_cell_angle_gamma                90
_cell_volume                     2225.35
loop_
_atom_site_label
_atom_site_type_symbol
_atom_site_fract_x
_atom_site_fract_y
_atom_site_fract_z
Eu1 Eu 0.76885(4) 0.88010(7) 0.296671(16)
Br1 Br 1.13487(14) 0.5301(3) 0.36809(8)
Br2 Br 0.98904(12) 0.8397(3) 0.14924(7)
Br3 Br 0.53140(12) 0.8189(3) 0.44326(6)
C1 C 0.7609(5) 0.8761(11) 0.12315(18)
C2 C 0.6609(5) 0.8891(12) 0.0887(3)
H1 H 0.5973 0.9037 0.1015
C3 C 0.6559(6) 0.8802(13) 0.0350(2)
H2 H 0.5890 0.8889 0.0119
C4 C 0.7509(8) 0.8584(13) 0.01579(18)
H3 H 0.7476 0.8525 -0.0201
C5 C 0.8509(6) 0.8454(12) 0.0503(3)
H4 H 0.9145 0.8308 0.0374
C6 C 0.8559(5) 0.8543(11) 0.1039(2)
C7 C 0.7658(7) 0.8798(14) 0.1805(3)
C8 C 1.1668(5) 1.0294(9) 0.2857(3)
H5 H 1.1227 1.1246 0.2674
C9 C 1.2793(5) 1.0389(11) 0.2907(3)
H6 H 1.3104 1.1404 0.2757
C10 C 1.3451(4) 0.8966(12) 0.3181(3)
H7 H 1.4203 0.9029 0.3215
C11 C 1.2985(5) 0.7449(10) 0.3405(3)
H8 H 1.3426 0.6497 0.3588
C12 C 1.1861(5) 0.7354(9) 0.3355(3)
C13 C 1.1202(4) 0.8777(10) 0.3081(3)
C14 C 0.9974(8) 0.8804(15) 0.3021(4)
C15 C 0.8661(5) 0.8883(11) 0.4916(3)
H9 H 0.9278 0.8989 0.4771
C16 C 0.8758(5) 0.8952(12) 0.5456(2)
H10 H 0.9440 0.9105 0.5673
C17 C 0.7836(7) 0.8794(12) 0.56733(18)
H11 H 0.7901 0.8841 0.6035
C18 C 0.6817(6) 0.8567(12) 0.5350(3)
H12 H 0.6199 0.8461 0.5495
C19 C 0.6720(5) 0.8497(11) 0.4810(2)
C20 C 0.7642(5) 0.8655(11) 0.45930(18)
C21 C 0.7600(8) 0.8712(14) 0.4016(4)
O1 O 0.9454(5) 0.7231(11) 0.2979(3)
O2 O 0.9488(5) 1.0388(11) 0.3001(3)
O3 O 0.5800(6) 0.8794(10) 0.2509(3)
H13 H 0.562(8) 0.973(7) 0.232(3)
H14 H 0.559(8) 0.776(5) 0.237(3)
O4 O 0.6743(6) 0.8703(12) 0.3676(3)
O5 O 0.8515(6) 0.8795(13) 0.3865(3)
O6 O 0.7663(5) 0.7214(10) 0.2054(2)
O7 O 0.7658(5) 1.0358(10) 0.2048(2)
Eu1A Eu 0.73115(4) 0.38010(7) 0.203329(16)
Eu1A_2 Eu 0.73115(4) 1.38010(7) 0.203329(16)
O6A O 0.7337(5) 1.2214(10) 0.2946(2)
O7A O 0.7342(5) 0.5358(10) 0.2952(2)
loop_
_geom_bond_atom_site_label_1
_geom_bond_atom_site_label_2
_geom_bond_site_symmetry_1
_geom_bond_site_symmetry_2
Eu1 O1 1_555 1_555
Br1 C12 1_555 1_555
Br2 C6 1_555 1_555
Br3 C19 1_555 1_555
C1 C2 1_555 1_555
C2 H1 1_555 1_555
C3 C2 1_555 1_555
H2 C3 1_555 1_555
C4 C3 1_555 1_555
H3 C4 1_555 1_555
C5 C4 1_555 1_555
H4 C5 1_555 1_555
C6 C1 1_555 1_555
C7 C1 1_555 1_555
C8 H5 1_555 1_555
C9 C8 1_555 1_555
H6 C9 1_555 1_555
C10 C9 1_555 1_555
H7 C10 1_555 1_555
C11 C10 1_555 1_555
H8 C11 1_555 1_555
C12 C11 1_555 1_555
C13 C8 1_555 1_555
C14 C13 1_555 1_555
C15 H9 1_555 1_555
C16 C15 1_555 1_555
H10 C16 1_555 1_555
C17 C16 1_555 1_555
H11 C17 1_555 1_555
C18 C17 1_555 1_555
H12 C18 1_555 1_555
C19 C18 1_555 1_555
C20 C15 1_555 1_555
C21 C20 1_555 1_555
O1 C14 1_555 1_555
O2 Eu1 1_555 1_555
O3 Eu1 1_555 1_555
H13 O3 1_555 1_555
H14 O3 1_555 1_555
O4 Eu1 1_555 1_555
O5 Eu1 1_555 1_555
O6 Eu1 1_555 1_555
O7 Eu1 1_555 1_555
Eu1A O6 1_555 1_555
Eu1A_2 O7 1_555 1_555
O6A Eu1 1_555 1_555
O7A Eu1 1_555 1_555
C5 C6 1_555 1_555
C7 O6 1_555 1_555
C7 O7 1_555 1_555
C12 C13 1_555 1_555
C14 O2 1_555 1_555
C19 C20 1_555 1_555
C21 O4 1_555 1_555
C21 O5 1_555 1_555
Eu1A O7A 1_555 1_555
Eu1A_2 O6A 1_555 1_555

#END
