
#######################################################################
#
#                 Cambridge Crystallographic Data Centre
#                                CCDC 
#
#######################################################################
#
# If this CIF has been generated from an entry in the Cambridge 
# Structural Database, then it will include bibliographic, chemical, 
# crystal, experimental, refinement or atomic coordinate data resulting 
# from the CCDC's data processing and validation procedures.
#
#######################################################################

data_FOPREI
_symmetry_cell_setting           monoclinic
_symmetry_space_group_name_H-M   'P 21/n'
_symmetry_Int_Tables_number      14
_space_group_name_Hall           '-P 2yn'
loop_
_symmetry_equiv_pos_site_id
_symmetry_equiv_pos_as_xyz
1 x,y,z
2 1/2-x,1/2+y,1/2-z
3 -x,-y,-z
4 1/2+x,1/2-y,1/2+z
_cell_length_a                   14.231(3)
_cell_length_b                   16.257(4)
_cell_length_c                   16.794(4)
_cell_angle_alpha                90
_cell_angle_beta                 100.262(11)
_cell_angle_gamma                90
_cell_volume                     3823.2
loop_
_atom_site_label
_atom_site_type_symbol
_atom_site_fract_x
_atom_site_fract_y
_atom_site_fract_z
Zn1 Zn 0.32639(2) 0.354481(17) 0.025347(17)
Zn2 Zn 0.31694(2) 0.367366(18) 0.528207(17)
O1 O 0.33369(17) 0.26998(13) 0.10955(11)
O2 O 0.41015(17) 0.36542(14) 0.18897(16)
O3 O 0.23483(15) 0.37180(13) 0.41602(13)
O4 O 0.28965(16) 0.24648(12) 0.42768(12)
O5 O 0.31154(15) 0.28774(12) -0.38604(11)
O6 O 0.40977(15) 0.37694(13) -0.31467(14)
O7 O 0.26480(16) 0.27464(13) -0.06707(12)
O8 O 0.23893(17) 0.40081(14) -0.10554(15)
N1 N 0.25914(14) 0.45407(12) 0.06200(12)
N2 N 0.20201(15) 0.58090(15) 0.06715(13)
N3 N 0.54308(14) 0.62336(12) 0.00954(12)
N4 N 0.25719(14) 0.47412(13) 0.56152(12)
N5 N 0.20603(15) 0.60380(15) 0.56047(13)
N6 N 0.55040(14) 0.62162(12) 0.50418(12)
C1 C 0.16642(17) 0.44956(16) 0.07894(15)
C2 C 0.1111(2) 0.38102(19) 0.09040(18)
H1 H 0.1343 0.3278 0.0879
C3 C 0.0203(2) 0.3959(2) 0.1056(2)
H2 H -0.0186 0.3517 0.1132
C4 C -0.0144(2) 0.4761(2) 0.10989(19)
H3 H -0.0757 0.4836 0.1206
C5 C 0.03939(19) 0.54400(19) 0.09873(17)
H4 H 0.0163 0.5972 0.1018
C6 C 0.13079(17) 0.52853(16) 0.08250(15)
C7 C 0.27647(17) 0.53360(15) 0.05613(14)
C8 C 0.53856(17) 0.56966(14) 0.06983(14)
H5 H 0.5952 0.5516 0.1013
C9 C 0.45309(16) 0.54043(14) 0.08670(14)
H6 H 0.4526 0.5023 0.1279
C10 C 0.36787(17) 0.56856(14) 0.04150(14)
C11 C 0.37124(19) 0.62790(16) -0.01777(16)
H7 H 0.3155 0.6506 -0.0468
C12 C 0.46049(18) 0.65239(15) -0.03239(16)
H8 H 0.4630 0.6907 -0.0731
C13 C 0.37334(17) 0.29727(17) 0.17829(16)
C14 C 0.37921(19) 0.23796(19) 0.24984(16)
H9 H 0.4373 0.2058 0.2536
H10 H 0.3843 0.2700 0.2991
C15 C 0.29592(17) 0.17959(15) 0.24558(14)
C16 C 0.3058(2) 0.09881(18) 0.22190(16)
H11 H 0.3634 0.0820 0.2082
C17 C 0.2320(2) 0.04267(17) 0.21821(17)
H12 H 0.2404 -0.0114 0.2029
C18 C 0.1467(2) 0.06699(19) 0.23718(16)
H13 H 0.0966 0.0297 0.2340
C19 C 0.13503(19) 0.14703(17) 0.26109(16)
H14 H 0.0767 0.1633 0.2737
C20 C 0.20935(17) 0.20395(15) 0.26673(13)
C21 C 0.1969(2) 0.28910(16) 0.29902(16)
H15 H 0.1292 0.3006 0.2935
H16 H 0.2237 0.3287 0.2661
C22 C 0.24354(18) 0.30105(16) 0.38721(16)
C23 C 0.16443(17) 0.47456(17) 0.57886(14)
C24 C 0.10721(19) 0.4095(2) 0.59487(17)
H17 H 0.1283 0.3553 0.5953
C25 C 0.0175(2) 0.4289(2) 0.6101(2)
H18 H -0.0227 0.3869 0.6209
C26 C -0.0139(2) 0.5101(3) 0.60964(19)
H19 H -0.0747 0.5208 0.6202
C27 C 0.04184(19) 0.5748(2) 0.59410(17)
H20 H 0.0203 0.6288 0.5938
C28 C 0.13277(18) 0.55569(18) 0.57868(15)
C29 C 0.27828(17) 0.55241(15) 0.55219(14)
C30 C 0.54193(16) 0.57228(14) 0.56643(14)
H21 H 0.5971 0.5527 0.5991
C31 C 0.45430(16) 0.54943(15) 0.58397(14)
H22 H 0.4506 0.5137 0.6265
C32 C 0.37158(17) 0.58082(14) 0.53686(14)
C33 C 0.37995(19) 0.63600(15) 0.47554(17)
H23 H 0.3262 0.6608 0.4454
C34 C 0.47048(19) 0.65332(15) 0.46026(16)
H24 H 0.4761 0.6885 0.4177
C35 C 0.36253(17) 0.31345(17) -0.32014(16)
C36 C 0.3675(2) 0.2591(2) -0.24518(17)
H25 H 0.4287 0.2311 -0.2357
H26 H 0.3655 0.2943 -0.1989
C37 C 0.28990(19) 0.19552(17) -0.24917(15)
C38 C 0.3067(3) 0.1162(2) -0.27181(18)
H27 H 0.3659 0.1029 -0.2845
C39 C 0.2372(3) 0.0557(2) -0.27606(19)
H28 H 0.2502 0.0024 -0.2910
C40 C 0.1501(3) 0.0746(2) -0.25827(18)
H29 H 0.1032 0.0343 -0.2618
C41 C 0.1316(2) 0.15302(19) -0.23511(17)
H30 H 0.0720 0.1655 -0.2228
C42 C 0.20110(18) 0.21435(16) -0.22974(14)
C43 C 0.1793(2) 0.29883(19) -0.20239(18)
H31 H 0.1111 0.3021 -0.2030
H32 H 0.1941 0.3379 -0.2420
C44 C 0.2303(2) 0.32648(18) -0.11949(17)
H33 H 0.202(2) 0.6315(17) 0.0690(18)
H34 H 0.208(3) 0.669(3) 0.565(3)
Zn1B Zn 0.67361(2) 0.645519(17) -0.025347(17)
Zn2_2 Zn 0.31694(2) 0.367366(18) -0.471793(17)
Zn2B Zn 0.68306(2) 0.632634(18) 0.471793(17)
O5_2 O 0.31154(15) 0.28774(12) 0.61396(11)
N3B N 0.45692(14) 0.37664(12) -0.00954(12)
N6B N 0.44960(14) 0.37838(12) 0.49582(12)
loop_
_geom_bond_atom_site_label_1
_geom_bond_atom_site_label_2
_geom_bond_site_symmetry_1
_geom_bond_site_symmetry_2
Zn1 O1 1_555 1_555
Zn2 O3 1_555 1_555
O1 C13 1_555 1_555
O2 C13 1_555 1_555
O3 C22 1_555 1_555
O4 C22 1_555 1_555
O5 C35 1_555 1_555
O6 C35 1_555 1_555
O7 Zn1 1_555 1_555
O8 Zn1 1_555 1_555
N1 Zn1 1_555 1_555
N2 C6 1_555 1_555
N3 C8 1_555 1_555
N4 Zn2 1_555 1_555
N5 C28 1_555 1_555
N6 C30 1_555 1_555
C1 N1 1_555 1_555
C2 C1 1_555 1_555
H1 C2 1_555 1_555
C3 C2 1_555 1_555
H2 C3 1_555 1_555
C4 C3 1_555 1_555
H3 C4 1_555 1_555
C5 C4 1_555 1_555
H4 C5 1_555 1_555
C6 C1 1_555 1_555
C7 N1 1_555 1_555
C8 H5 1_555 1_555
C9 C8 1_555 1_555
H6 C9 1_555 1_555
C10 C7 1_555 1_555
C11 C10 1_555 1_555
H7 C11 1_555 1_555
C12 N3 1_555 1_555
H8 C12 1_555 1_555
C13 C14 1_555 1_555
C14 H9 1_555 1_555
H10 C14 1_555 1_555
C15 C14 1_555 1_555
C16 C15 1_555 1_555
H11 C16 1_555 1_555
C17 C16 1_555 1_555
H12 C17 1_555 1_555
C18 C17 1_555 1_555
H13 C18 1_555 1_555
C19 C18 1_555 1_555
H14 C19 1_555 1_555
C20 C15 1_555 1_555
C21 C20 1_555 1_555
H15 C21 1_555 1_555
H16 C21 1_555 1_555
C22 C21 1_555 1_555
C23 N4 1_555 1_555
C24 C23 1_555 1_555
H17 C24 1_555 1_555
C25 C24 1_555 1_555
H18 C25 1_555 1_555
C26 C25 1_555 1_555
H19 C26 1_555 1_555
C27 C26 1_555 1_555
H20 C27 1_555 1_555
C28 C23 1_555 1_555
C29 N4 1_555 1_555
C30 H21 1_555 1_555
C31 C30 1_555 1_555
H22 C31 1_555 1_555
C32 C29 1_555 1_555
C33 C32 1_555 1_555
H23 C33 1_555 1_555
C34 N6 1_555 1_555
H24 C34 1_555 1_555
C35 C36 1_555 1_555
C36 H25 1_555 1_555
H26 C36 1_555 1_555
C37 C36 1_555 1_555
C38 C37 1_555 1_555
H27 C38 1_555 1_555
C39 C38 1_555 1_555
H28 C39 1_555 1_555
C40 C39 1_555 1_555
H29 C40 1_555 1_555
C41 C40 1_555 1_555
H30 C41 1_555 1_555
C42 C37 1_555 1_555
C43 C42 1_555 1_555
H31 C43 1_555 1_555
H32 C43 1_555 1_555
C44 O7 1_555 1_555
H33 N2 1_555 1_555
H34 N5 1_555 1_555
Zn1B N3 1_555 1_555
Zn2_2 O5 1_555 1_555
Zn2B N6 1_555 1_555
O5_2 Zn2 1_555 1_555
N3B Zn1 1_555 1_555
N6B Zn2 1_555 1_555
O8 C44 1_555 1_555
N2 C7 1_555 1_555
N5 C29 1_555 1_555
C5 C6 1_555 1_555
C9 C10 1_555 1_555
C11 C12 1_555 1_555
C19 C20 1_555 1_555
C27 C28 1_555 1_555
C31 C32 1_555 1_555
C33 C34 1_555 1_555
C41 C42 1_555 1_555
C43 C44 1_555 1_555

#END
