
#######################################################################
#
#                 Cambridge Crystallographic Data Centre
#                                CCDC 
#
#######################################################################
#
# If this CIF has been generated from an entry in the Cambridge 
# Structural Database, then it will include bibliographic, chemical, 
# crystal, experimental, refinement or atomic coordinate data resulting 
# from the CCDC's data processing and validation procedures.
#
#######################################################################

data_FOPVUC
_symmetry_cell_setting           triclinic
_symmetry_space_group_name_H-M   'P -1'
_symmetry_Int_Tables_number      2
_space_group_name_Hall           '-P 1'
loop_
_symmetry_equiv_pos_site_id
_symmetry_equiv_pos_as_xyz
1 x,y,z
2 -x,-y,-z
_cell_length_a                   8.1704(16)
_cell_length_b                   12.919(3)
_cell_length_c                   12.957(3)
_cell_angle_alpha                94.33(3)
_cell_angle_beta                 92.60(3)
_cell_angle_gamma                100.98(3)
_cell_volume                     1336.29
loop_
_atom_site_label
_atom_site_type_symbol
_atom_site_fract_x
_atom_site_fract_y
_atom_site_fract_z
Gd1 Gd 0.236137(17) -0.018347(11) 0.456285(10)
O1 O 0.0418(3) 0.09941(17) 0.45635(17)
O2 O -0.0569(3) 0.1891(2) 0.58109(18)
O3 O 0.5833(3) 0.1131(2) 0.6188(2)
O4 O 0.3137(3) 0.1106(2) 0.59764(18)
O5 O 0.3091(3) -0.1116(2) 0.59408(18)
O6 O 0.5804(3) -0.1050(2) 0.62551(19)
N1 N 0.1174(4) -0.0307(2) 0.2619(2)
C1 C 0.0363(4) 0.1873(2) 0.5078(2)
C2 C 0.1349(4) 0.2880(3) 0.4777(3)
C3 C 0.1415(5) 0.3810(3) 0.5401(3)
H1 H 0.0833 0.3791 0.6019
C4 C 0.2167(5) 0.2911(3) 0.3866(3)
H2 H 0.2122 0.2279 0.3432
C5 C 0.3052(6) 0.3861(4) 0.3585(4)
H3 H 0.3609 0.3885 0.2957
C6 C 0.3119(7) 0.4772(4) 0.4226(5)
H4 H 0.3736 0.5421 0.4032
C7 C 0.2316(6) 0.4768(3) 0.5139(4)
C8 C 0.4558(4) 0.1495(3) 0.6382(2)
C9 C 0.4751(5) 0.2449(3) 0.7134(3)
C10 C 0.3360(6) 0.2787(3) 0.7494(3)
H5 H 0.2277 0.2399 0.7272
C11 C 0.3525(10) 0.3692(5) 0.8180(4)
C12 C 0.6343(6) 0.3018(3) 0.7461(3)
H6 H 0.7309 0.2787 0.7225
C13 C 0.6498(10) 0.3920(4) 0.8131(4)
H7 H 0.7576 0.4317 0.8349
C14 C 0.5110(12) 0.4244(4) 0.8481(4)
H8 H 0.5241 0.4865 0.8943
C15 C 0.4299(4) -0.1299(2) 0.6468(2)
C16 C 0.3929(5) -0.1834(3) 0.7449(2)
C17 C 0.2303(5) -0.2230(3) 0.7662(3)
H9 H 0.1420 -0.2176 0.7179
C18 C 0.1932(7) -0.2707(4) 0.8568(4)
C19 C 0.3199(8) -0.2767(4) 0.9268(4)
H10 H 0.2949 -0.3079 0.9897
C20 C 0.4826(8) -0.2383(5) 0.9076(4)
H11 H 0.5697 -0.2432 0.9570
C21 C 0.5213(6) -0.1918(4) 0.8152(3)
H12 H 0.6343 -0.1664 0.8010
C22 C -0.0245(5) -0.0016(4) 0.2350(3)
H13 H -0.0957 0.0120 0.2883
C23 C -0.0750(5) 0.0102(4) 0.1344(3)
H14 H -0.1784 0.0313 0.1203
C24 C 0.0231(4) -0.0082(3) 0.0545(2)
C25 C 0.1678(6) -0.0423(4) 0.0819(3)
H15 H 0.2394 -0.0587 0.0299
C26 C 0.2090(6) -0.0529(4) 0.1848(3)
H16 H 0.3088 -0.0774 0.2009
C27 C 0.2379(8) 0.5767(4) 0.5848(6)
H17 H 0.3059 0.6369 0.5552
H18 H 0.2874 0.5681 0.6532
H19 H 0.1244 0.5896 0.5919
C28 C 0.1958(13) 0.4052(7) 0.8549(6)
H20 H 0.0965 0.3551 0.8251
H21 H 0.1930 0.4757 0.8327
H22 H 0.1972 0.4078 0.9308
C29 C 0.0156(10) -0.3120(7) 0.8807(6)
H23 H -0.0596 -0.3022 0.8227
H24 H -0.0105 -0.2733 0.9439
H25 H 0.0012 -0.3875 0.8911
Gd1A Gd -0.236137(17) 0.018347(11) 0.543715(10)
Gd1A_2 Gd 0.763863(17) 0.018347(11) 0.543715(10)
Gd1A_3 Gd -0.236137(17) 0.018347(11) -0.456285(10)
O1A O -0.0418(3) -0.09941(17) 0.54365(17)
O2A O 0.0569(3) -0.1891(2) 0.41891(18)
O3A O 0.4167(3) -0.1131(2) 0.3812(2)
O3_2 O -0.4167(3) 0.1131(2) 0.6188(2)
O4A O 0.6863(3) -0.1106(2) 0.40236(18)
O4A_2 O -0.3137(3) -0.1106(2) 0.40236(18)
O5A O 0.6909(3) 0.1116(2) 0.40592(18)
O5A_2 O -0.3091(3) 0.1116(2) 0.40592(18)
O6A O 0.4196(3) 0.1050(2) 0.37449(19)
O6_2 O -0.4196(3) -0.1050(2) 0.62551(19)
N1A N -0.1174(4) 0.0307(2) -0.2619(2)
N1A_2 N -0.1174(4) 0.0307(2) 0.7381(2)
C1A C -0.0363(4) -0.1873(2) 0.4922(2)
C2A C -0.1349(4) -0.2880(3) 0.5223(3)
C3A C -0.1415(5) -0.3810(3) 0.4599(3)
H1A H -0.0833 -0.3791 0.3981
C4A C -0.2167(5) -0.2911(3) 0.6134(3)
H2A H -0.2122 -0.2279 0.6568
C5A C -0.3052(6) -0.3861(4) 0.6415(4)
H3A H -0.3609 -0.3885 0.7043
C6A C -0.3119(7) -0.4772(4) 0.5774(5)
H4A H -0.3736 -0.5421 0.5968
C7A C -0.2316(6) -0.4768(3) 0.4861(4)
C8A C 0.5442(4) -0.1495(3) 0.3618(2)
C9A C 0.5249(5) -0.2449(3) 0.2866(3)
C10A C 0.6640(6) -0.2787(3) 0.2506(3)
H5A H 0.7723 -0.2399 0.2728
C11A C 0.6475(10) -0.3692(5) 0.1820(4)
C12A C 0.3657(6) -0.3018(3) 0.2539(3)
H6A H 0.2691 -0.2787 0.2775
C13A C 0.3502(10) -0.3920(4) 0.1869(4)
H7A H 0.2424 -0.4317 0.1651
C14A C 0.4890(12) -0.4244(4) 0.1519(4)
H8A H 0.4759 -0.4865 0.1057
C15A C 0.5701(4) 0.1299(2) 0.3532(2)
C16A C 0.6071(5) 0.1834(3) 0.2551(2)
C17A C 0.7697(5) 0.2230(3) 0.2338(3)
H9A H 0.8580 0.2176 0.2821
C18A C 0.8068(7) 0.2707(4) 0.1432(4)
C19A C 0.6801(8) 0.2767(4) 0.0732(4)
H10A H 0.7051 0.3079 0.0103
C20A C 0.5174(8) 0.2383(5) 0.0924(4)
H11A H 0.4303 0.2432 0.0430
C21A C 0.4787(6) 0.1918(4) 0.1848(3)
H12A H 0.3657 0.1664 0.1990
C22A C 0.0245(5) 0.0016(4) -0.2350(3)
H13A H 0.0957 -0.0120 -0.2883
C23A C 0.0750(5) -0.0102(4) -0.1344(3)
H14A H 0.1784 -0.0313 -0.1203
C24A C -0.0231(4) 0.0082(3) -0.0545(2)
C25A C -0.1678(6) 0.0423(4) -0.0819(3)
H15A H -0.2394 0.0587 -0.0299
C26A C -0.2090(6) 0.0529(4) -0.1848(3)
H16A H -0.3088 0.0774 -0.2009
C27A C -0.2379(8) -0.5767(4) 0.4152(6)
H17A H -0.3059 -0.6369 0.4448
H18A H -0.2874 -0.5681 0.3468
H19A H -0.1244 -0.5896 0.4081
C28A C 0.8042(13) -0.4052(7) 0.1451(6)
H20A H 0.9035 -0.3551 0.1749
H21A H 0.8070 -0.4757 0.1673
H22A H 0.8028 -0.4078 0.0692
C29A C 0.9844(10) 0.3120(7) 0.1193(6)
H23A H 1.0596 0.3022 0.1773
H24A H 1.0105 0.2733 0.0561
H25A H 0.9988 0.3875 0.1089
loop_
_geom_bond_atom_site_label_1
_geom_bond_atom_site_label_2
_geom_bond_site_symmetry_1
_geom_bond_site_symmetry_2
Gd1 O1 1_555 1_555
O1 C1 1_555 1_555
O2 C1 1_555 1_555
O3 C8 1_555 1_555
O4 Gd1 1_555 1_555
O5 Gd1 1_555 1_555
O6 C15 1_555 1_555
N1 Gd1 1_555 1_555
C1 C2 1_555 1_555
C2 C3 1_555 1_555
C3 H1 1_555 1_555
C4 C2 1_555 1_555
H2 C4 1_555 1_555
C5 C4 1_555 1_555
H3 C5 1_555 1_555
C6 C5 1_555 1_555
H4 C6 1_555 1_555
C7 C3 1_555 1_555
C8 O4 1_555 1_555
C9 C8 1_555 1_555
C10 C9 1_555 1_555
H5 C10 1_555 1_555
C11 C10 1_555 1_555
C12 C9 1_555 1_555
H6 C12 1_555 1_555
C13 C12 1_555 1_555
H7 C13 1_555 1_555
C14 C11 1_555 1_555
H8 C14 1_555 1_555
C15 O5 1_555 1_555
C16 C15 1_555 1_555
C17 C16 1_555 1_555
H9 C17 1_555 1_555
C18 C17 1_555 1_555
C19 C18 1_555 1_555
H10 C19 1_555 1_555
C20 C19 1_555 1_555
H11 C20 1_555 1_555
C21 C16 1_555 1_555
H12 C21 1_555 1_555
C22 N1 1_555 1_555
H13 C22 1_555 1_555
C23 C22 1_555 1_555
H14 C23 1_555 1_555
C24 C23 1_555 1_555
C25 C24 1_555 1_555
H15 C25 1_555 1_555
C26 N1 1_555 1_555
H16 C26 1_555 1_555
C27 C7 1_555 1_555
H17 C27 1_555 1_555
H18 C27 1_555 1_555
H19 C27 1_555 1_555
C28 C11 1_555 1_555
H20 C28 1_555 1_555
H21 C28 1_555 1_555
H22 C28 1_555 1_555
C29 C18 1_555 1_555
H23 C29 1_555 1_555
H24 C29 1_555 1_555
H25 C29 1_555 1_555
Gd1A O1 1_555 1_555
Gd1A_2 O3 1_555 1_555
Gd1A_3 N1A 1_555 1_555
O1A Gd1 1_555 1_555
O2A Gd1 1_555 1_555
O3A Gd1 1_555 1_555
O3_2 Gd1A 1_555 1_555
O4A Gd1A_2 1_555 1_555
O4A_2 Gd1A 1_555 1_555
O5A Gd1A_2 1_555 1_555
O5A_2 Gd1A 1_555 1_555
O6A Gd1 1_555 1_555
O6_2 Gd1A 1_555 1_555
N1A C22A 1_555 1_555
N1A_2 Gd1A 1_555 1_555
C1A O1A 1_555 1_555
C2A C1A 1_555 1_555
C3A C2A 1_555 1_555
H1A C3A 1_555 1_555
C4A C2A 1_555 1_555
H2A C4A 1_555 1_555
C5A C4A 1_555 1_555
H3A C5A 1_555 1_555
C6A C5A 1_555 1_555
H4A C6A 1_555 1_555
C7A C3A 1_555 1_555
C8A O3A 1_555 1_555
C9A C8A 1_555 1_555
C10A C9A 1_555 1_555
H5A C10A 1_555 1_555
C11A C10A 1_555 1_555
C12A C9A 1_555 1_555
H6A C12A 1_555 1_555
C13A C12A 1_555 1_555
H7A C13A 1_555 1_555
C14A C11A 1_555 1_555
H8A C14A 1_555 1_555
C15A O5A 1_555 1_555
C16A C15A 1_555 1_555
C17A C16A 1_555 1_555
H9A C17A 1_555 1_555
C18A C17A 1_555 1_555
C19A C18A 1_555 1_555
H10A C19A 1_555 1_555
C20A C19A 1_555 1_555
H11A C20A 1_555 1_555
C21A C16A 1_555 1_555
H12A C21A 1_555 1_555
C22A H13A 1_555 1_555
C23A C22A 1_555 1_555
H14A C23A 1_555 1_555
C24A C24 1_555 1_555
C25A C24A 1_555 1_555
H15A C25A 1_555 1_555
C26A N1A 1_555 1_555
H16A C26A 1_555 1_555
C27A C7A 1_555 1_555
H17A C27A 1_555 1_555
H18A C27A 1_555 1_555
H19A C27A 1_555 1_555
C28A C11A 1_555 1_555
H20A C28A 1_555 1_555
H21A C28A 1_555 1_555
H22A C28A 1_555 1_555
C29A C18A 1_555 1_555
H23A C29A 1_555 1_555
H24A C29A 1_555 1_555
H25A C29A 1_555 1_555
O2 Gd1A 1_555 1_555
O6 Gd1A_2 1_555 1_555
C6 C7 1_555 1_555
C13 C14 1_555 1_555
C20 C21 1_555 1_555
C25 C26 1_555 1_555
Gd1A O1A 1_555 1_555
O2A C1A 1_555 1_555
O4A C8A 1_555 1_555
O6A C15A 1_555 1_555
C6A C7A 1_555 1_555
C13A C14A 1_555 1_555
C20A C21A 1_555 1_555
C23A C24A 1_555 1_555
C25A C26A 1_555 1_555

#END
