
#######################################################################
#
#                 Cambridge Crystallographic Data Centre
#                                CCDC 
#
#######################################################################
#
# If this CIF has been generated from an entry in the Cambridge 
# Structural Database, then it will include bibliographic, chemical, 
# crystal, experimental, refinement or atomic coordinate data resulting 
# from the CCDC's data processing and validation procedures.
#
#######################################################################

data_FOPVIQ
_symmetry_cell_setting           monoclinic
_symmetry_space_group_name_H-M   'P 21/n'
_symmetry_Int_Tables_number      14
_space_group_name_Hall           '-P 2yn'
loop_
_symmetry_equiv_pos_site_id
_symmetry_equiv_pos_as_xyz
1 x,y,z
2 1/2-x,1/2+y,1/2-z
3 -x,-y,-z
4 1/2+x,1/2-y,1/2+z
_cell_length_a                   13.574(3)
_cell_length_b                   8.0438(16)
_cell_length_c                   20.652(4)
_cell_angle_alpha                90
_cell_angle_beta                 96.14(3)
_cell_angle_gamma                90
_cell_volume                     2241.99
loop_
_atom_site_label
_atom_site_type_symbol
_atom_site_fract_x
_atom_site_fract_y
_atom_site_fract_z
Yb1 Yb 0.216903(14) 0.09598(2) 0.242591(11)
O1 O 0.0758(3) 0.2443(5) 0.2302(2)
O2 O 0.1519(3) 0.4732(6) 0.2049(2)
O3 O 0.3733(3) 0.4509(5) 0.1957(2)
O4 O 0.3290(3) 0.1872(5) 0.1817(2)
O5 O 0.1468(3) 0.0090(5) 0.14223(19)
O6 O 0.2385(3) -0.1911(5) 0.18716(17)
C1 C 0.0741(4) 0.3937(7) 0.2146(3)
C2 C -0.0222(3) 0.4820(6) 0.2065(3)
C3 C -0.0275(4) 0.6515(6) 0.1924(3)
H1 H 0.0321 0.7108 0.1885
C4 C -0.1166(4) 0.7360(7) 0.1840(3)
C5 C -0.1179(7) 0.9199(8) 0.1684(5)
H2 H -0.1021 0.9361 0.1236
H3 H -0.0686 0.9773 0.1985
H4 H -0.1838 0.9652 0.1728
C6 C -0.2009(4) 0.6457(8) 0.1895(4)
H5 H -0.2631 0.7008 0.1835
C7 C -0.1988(4) 0.4792(8) 0.2032(4)
H6 H -0.2591 0.4212 0.2063
C8 C -0.1095(4) 0.3943(7) 0.2126(3)
H7 H -0.1077 0.2792 0.2230
C9 C 0.1839(4) -0.1322(6) 0.1378(3)
C10 C 0.1628(4) -0.2299(7) 0.0769(3)
C11 C 0.1000(5) -0.1631(8) 0.0261(3)
H8 H 0.0742 -0.0540 0.0294
C12 C 0.0754(5) -0.2572(9) -0.0293(3)
H9 H 0.0338 -0.2109 -0.0647
C13 C 0.1103(6) -0.4173(8) -0.0340(3)
H10 H 0.0917 -0.4807 -0.0721
C14 C 0.1722(4) -0.4858(8) 0.0164(3)
C15 C 0.2094(6) -0.6606(9) 0.0119(4)
H11 H 0.2819 -0.6599 0.0151
H12 H 0.1828 -0.7091 -0.0298
H13 H 0.1877 -0.7268 0.0476
C16 C 0.1984(4) -0.3898(7) 0.0707(3)
H14 H 0.2424 -0.4348 0.1051
C17 C 0.3844(4) 0.3079(7) 0.1726(2)
C18 C 0.4675(4) 0.2798(8) 0.1330(3)
C19 C 0.5191(6) 0.4142(10) 0.1121(5)
H15 H 0.5013 0.5240 0.1233
C20 C 0.5994(8) 0.3878(13) 0.0736(6)
H16 H 0.6342 0.4779 0.0570
C21 C 0.6228(7) 0.2298(13) 0.0623(5)
H17 H 0.6778 0.2115 0.0383
C22 C 0.5759(6) 0.0949(10) 0.0816(4)
C23 C 0.6024(9) -0.0826(13) 0.0657(7)
H18 H 0.6731 -0.0889 0.0600
H19 H 0.5632 -0.1174 0.0254
H20 H 0.5881 -0.1560 0.1014
C24 C 0.4942(5) 0.1190(9) 0.1174(3)
H21 H 0.4579 0.0265 0.1308
Yb1A Yb 0.283097(14) 0.59598(2) 0.257409(11)
Yb1A_2 Yb 0.283097(14) -0.40402(2) 0.257409(11)
O2A O 0.3481(3) -0.0268(6) 0.2951(2)
O3A O 0.1267(3) -0.0491(5) 0.3043(2)
O6A O 0.2615(3) 0.3089(5) 0.31284(17)
loop_
_geom_bond_atom_site_label_1
_geom_bond_atom_site_label_2
_geom_bond_site_symmetry_1
_geom_bond_site_symmetry_2
Yb1 O1 1_555 1_555
O1 C1 1_555 1_555
O2 C1 1_555 1_555
O3 C17 1_555 1_555
O4 Yb1 1_555 1_555
O5 Yb1 1_555 1_555
O6 Yb1 1_555 1_555
C1 C2 1_555 1_555
C2 C3 1_555 1_555
C3 H1 1_555 1_555
C4 C3 1_555 1_555
C5 C4 1_555 1_555
H2 C5 1_555 1_555
H3 C5 1_555 1_555
H4 C5 1_555 1_555
C6 C4 1_555 1_555
H5 C6 1_555 1_555
C7 C6 1_555 1_555
H6 C7 1_555 1_555
C8 C2 1_555 1_555
H7 C8 1_555 1_555
C9 O5 1_555 1_555
C10 C9 1_555 1_555
C11 C10 1_555 1_555
H8 C11 1_555 1_555
C12 C11 1_555 1_555
H9 C12 1_555 1_555
C13 C12 1_555 1_555
H10 C13 1_555 1_555
C14 C13 1_555 1_555
C15 C14 1_555 1_555
H11 C15 1_555 1_555
H12 C15 1_555 1_555
H13 C15 1_555 1_555
C16 C10 1_555 1_555
H14 C16 1_555 1_555
C17 O4 1_555 1_555
C18 C17 1_555 1_555
C19 C18 1_555 1_555
H15 C19 1_555 1_555
C20 C19 1_555 1_555
H16 C20 1_555 1_555
C21 C20 1_555 1_555
H17 C21 1_555 1_555
C22 C21 1_555 1_555
C23 C22 1_555 1_555
H18 C23 1_555 1_555
H19 C23 1_555 1_555
H20 C23 1_555 1_555
C24 C18 1_555 1_555
H21 C24 1_555 1_555
Yb1A O2 1_555 1_555
Yb1A_2 O6 1_555 1_555
O2A Yb1 1_555 1_555
O3A Yb1 1_555 1_555
O6A Yb1 1_555 1_555
O3 Yb1A 1_555 1_555
O6 C9 1_555 1_555
C7 C8 1_555 1_555
C14 C16 1_555 1_555
C22 C24 1_555 1_555
Yb1A O6A 1_555 1_555

#END
