
#######################################################################
#
#                 Cambridge Crystallographic Data Centre
#                                CCDC 
#
#######################################################################
#
# If this CIF has been generated from an entry in the Cambridge 
# Structural Database, then it will include bibliographic, chemical, 
# crystal, experimental, refinement or atomic coordinate data resulting 
# from the CCDC's data processing and validation procedures.
#
#######################################################################

data_FOPWEO
_symmetry_cell_setting           monoclinic
_symmetry_space_group_name_H-M   'P 21/c'
_symmetry_Int_Tables_number      14
_space_group_name_Hall           '-P 2ybc'
loop_
_symmetry_equiv_pos_site_id
_symmetry_equiv_pos_as_xyz
1 x,y,z
2 -x,1/2+y,1/2-z
3 -x,-y,-z
4 x,1/2-y,1/2+z
_cell_length_a                   7.8443(4)
_cell_length_b                   22.1845(13)
_cell_length_c                   21.7657(13)
_cell_angle_alpha                90
_cell_angle_beta                 90.842(2)
_cell_angle_gamma                90
_cell_volume                     3787.3
loop_
_atom_site_label
_atom_site_type_symbol
_atom_site_fract_x
_atom_site_fract_y
_atom_site_fract_z
Pb1 Pb 0.50914(5) 0.70844(2) 0.32259(2)
Pb2 Pb -0.00377(5) 0.32371(2) 0.70492(2)
N1 N 0.7588(10) 0.9282(4) 0.4400(4)
H1 H 0.8564 0.9107 0.4375
N2 N 0.7519(10) 1.0328(4) 0.4102(4)
H2 H 0.6579 1.0510 0.4013
N3 N 1.0426(10) 1.0211(4) 0.3971(4)
N4 N 1.0257(10) 1.0960(4) 0.2937(4)
O1 O 0.7298(8) 1.1401(4) 0.2503(4)
N5 N 0.5313(10) 0.6745(4) 0.4353(4)
O2 O 0.2344(9) 0.6926(3) 0.3757(4)
O3 O 0.0864(11) 0.6737(5) 0.4567(5)
O4 O 0.9227(9) 0.8370(4) 0.3865(5)
N6 N 0.4830(10) 0.8085(4) 0.3869(4)
N7 N 0.4663(11) 0.9223(4) 0.4376(5)
C1 C 0.6177(12) 0.8961(5) 0.4247(5)
C2 C 0.7543(13) 0.9904(4) 0.4605(5)
H3 H 0.6536 0.9965 0.4851
H4 H 0.8534 0.9982 0.4865
C3 C 0.8913(12) 1.0453(4) 0.3766(5)
C4 C 0.8823(12) 1.0832(4) 0.3237(5)
C5 C 0.7186(12) 1.1096(5) 0.2978(6)
O5 O 0.5856(9) 1.0984(4) 0.3256(4)
N8 N -0.0279(10) 0.4278(4) 0.6510(5)
O6 O 0.2657(8) 0.3735(3) 0.6776(4)
O7 O 0.4156(10) 0.4524(4) 0.6482(6)
O8 O 0.7782(8) 0.7567(3) 0.3543(3)
C6 C 0.7879(13) 0.8086(5) 0.3780(5)
C7 C 0.6253(12) 0.8384(4) 0.3980(5)
C8 C 0.3318(14) 0.8337(5) 0.4018(6)
H5 H 0.2308 0.8123 0.3960
C9 C 0.3289(13) 0.8899(5) 0.4251(6)
H6 H 0.2232 0.9071 0.4329
C10 C 1.1760(14) 1.0356(5) 0.3653(5)
H7 H 1.2806 1.0198 0.3779
C11 C 1.1738(13) 1.0722(5) 0.3149(5)
H8 H 1.2751 1.0809 0.2950
C12 C 0.6797(14) 0.6648(6) 0.4641(6)
H9 H 0.7822 0.6732 0.4449
C13 C 0.6772(17) 0.6418(7) 0.5237(7)
H10 H 0.7806 0.6300 0.5414
N9 N 0.5379(14) 0.6356(7) 0.5569(6)
C14 C 0.3944(16) 0.6483(7) 0.5281(6)
N10 N 0.2469(15) 0.6429(6) 0.5587(6)
H11 H 0.1530 0.6525 0.5403
C15 C 0.241(2) 0.6221(8) 0.6193(9)
H12 H 0.1367 0.6365 0.6376
H13 H 0.3357 0.6399 0.6422
N11 N 0.2495(17) 0.5547(6) 0.6266(7)
H14 H 0.3476 0.5376 0.6305
C16 C 0.1072(17) 0.5200(6) 0.6273(7)
C17 C 0.1134(15) 0.4582(6) 0.6442(6)
C18 C 0.2766(14) 0.4265(5) 0.6550(6)
C19 C -0.1760(14) 0.4541(5) 0.6369(7)
H15 H -0.2770 0.4329 0.6421
C20 C -0.1820(18) 0.5124(7) 0.6146(8)
H16 H -0.2868 0.5286 0.6028
N12 N -0.0396(14) 0.5468(6) 0.6093(7)
C21 C 0.3843(14) 0.6681(6) 0.4672(6)
C22 C 0.2230(14) 0.6790(5) 0.4323(6)
Pb1A Pb 0.49086(5) 1.20844(2) 0.17741(2)
Pb1B Pb 0.49086(5) 0.29156(2) 0.67741(2)
Pb2B Pb 0.00377(5) 0.67629(2) 0.29508(2)
Pb2B_2 Pb 1.00377(5) 0.67629(2) 0.29508(2)
Pb2C Pb 0.99623(5) 1.17629(2) 0.20492(2)
N4C N 0.0257(10) 0.4040(4) 0.7937(4)
O1A O 0.2702(8) 0.6401(4) 0.2497(4)
O1C O -0.2702(8) 0.3599(4) 0.7503(4)
O2B O -0.2344(9) 0.3074(3) 0.6243(4)
O6B O 0.7343(8) 0.6265(3) 0.3224(4)
O8B O 0.2218(8) 0.2433(3) 0.6457(3)
loop_
_geom_bond_atom_site_label_1
_geom_bond_atom_site_label_2
_geom_bond_site_symmetry_1
_geom_bond_site_symmetry_2
Pb1 N5 1_555 1_555
Pb2 N8 1_555 1_555
N1 H1 1_555 1_555
N2 H2 1_555 1_555
N3 C3 1_555 1_555
N4 C4 1_555 1_555
O1 C5 1_555 1_555
N5 C12 1_555 1_555
O2 Pb1 1_555 1_555
O3 C22 1_555 1_555
O4 C6 1_555 1_555
N6 Pb1 1_555 1_555
N7 C1 1_555 1_555
C1 N1 1_555 1_555
C2 N1 1_555 1_555
H3 C2 1_555 1_555
H4 C2 1_555 1_555
C3 N2 1_555 1_555
C4 C3 1_555 1_555
C5 C4 1_555 1_555
O5 C5 1_555 1_555
N8 C17 1_555 1_555
O6 Pb2 1_555 1_555
O7 C18 1_555 1_555
O8 Pb1 1_555 1_555
C6 O8 1_555 1_555
C7 N6 1_555 1_555
C8 N6 1_555 1_555
H5 C8 1_555 1_555
C9 N7 1_555 1_555
H6 C9 1_555 1_555
C10 N3 1_555 1_555
H7 C10 1_555 1_555
C11 N4 1_555 1_555
H8 C11 1_555 1_555
C12 H9 1_555 1_555
C13 C12 1_555 1_555
H10 C13 1_555 1_555
N9 C13 1_555 1_555
C14 N9 1_555 1_555
N10 C14 1_555 1_555
H11 N10 1_555 1_555
C15 N10 1_555 1_555
H12 C15 1_555 1_555
H13 C15 1_555 1_555
N11 C15 1_555 1_555
H14 N11 1_555 1_555
C16 N11 1_555 1_555
C17 C16 1_555 1_555
C18 O6 1_555 1_555
C19 N8 1_555 1_555
H15 C19 1_555 1_555
C20 C19 1_555 1_555
H16 C20 1_555 1_555
N12 C16 1_555 1_555
C21 N5 1_555 1_555
C22 O2 1_555 1_555
Pb1A O1 1_555 1_555
Pb1B O6 1_555 1_555
Pb2B O2 1_555 1_555
Pb2B_2 O8 1_555 1_555
Pb2C N4 1_555 1_555
N4C Pb2 1_555 1_555
O1A Pb1 1_555 1_555
O1C Pb2 1_555 1_555
O2B Pb2 1_555 1_555
O6B Pb1 1_555 1_555
O8B Pb2 1_555 1_555
N2 C2 1_555 1_555
O1 Pb2C 1_555 1_555
C1 C7 1_555 1_555
C6 C7 1_555 1_555
C8 C9 1_555 1_555
C10 C11 1_555 1_555
C14 C21 1_555 1_555
C17 C18 1_555 1_555
C20 N12 1_555 1_555
C21 C22 1_555 1_555
Pb1B O8B 1_555 1_555
Pb2B O1A 1_555 1_555
Pb2B_2 O6B 1_555 1_555

#END
