
#######################################################################
#
#                 Cambridge Crystallographic Data Centre
#                                CCDC 
#
#######################################################################
#
# If this CIF has been generated from an entry in the Cambridge 
# Structural Database, then it will include bibliographic, chemical, 
# crystal, experimental, refinement or atomic coordinate data resulting 
# from the CCDC's data processing and validation procedures.
#
#######################################################################

data_FOPWIS
_symmetry_cell_setting           monoclinic
_symmetry_space_group_name_H-M   'P 21/c'
_symmetry_Int_Tables_number      14
_space_group_name_Hall           '-P 2ybc'
loop_
_symmetry_equiv_pos_site_id
_symmetry_equiv_pos_as_xyz
1 x,y,z
2 -x,1/2+y,1/2-z
3 -x,-y,-z
4 x,1/2-y,1/2+z
_cell_length_a                   14.468(3)
_cell_length_b                   13.261(2)
_cell_length_c                   19.861(4)
_cell_angle_alpha                90
_cell_angle_beta                 90.964(7)
_cell_angle_gamma                90
_cell_volume                     3810
loop_
_atom_site_label
_atom_site_type_symbol
_atom_site_fract_x
_atom_site_fract_y
_atom_site_fract_z
O9 O 0.1232(6) 0.5520(6) 0.8300(4)
H17 H 0.1490 0.5222 0.7935
H18 H 0.1556 0.6191 0.8523
Pb1 Pb 0.04271(2) 0.21506(2) 0.62691(2)
Pb2 Pb 0.04634(2) -0.03000(2) 0.75665(2)
O1 O 0.0673(4) 0.1699(4) 0.7457(2)
O2 O 0.0862(4) 0.3897(4) 0.6508(2)
O3 O 0.1069(4) -0.1723(4) 0.8243(3)
O4 O 0.1045(4) 0.0387(4) 0.6460(2)
O5 O 0.1886(5) 0.4873(4) 0.7036(3)
O6 O 0.0885(5) 0.3211(4) 0.7911(2)
O7 O 0.2245(5) -0.2694(4) 0.8541(3)
N1 N 0.2193(5) -0.0269(5) 0.7802(3)
N2 N 0.1214(5) -0.1618(4) 0.6589(3)
O8 O 0.1132(6) 0.0303(4) 0.5359(3)
N3 N 0.0795(5) 0.0811(5) 0.8676(3)
N4 N 0.2139(5) 0.2500(5) 0.6271(3)
C1 C 0.0808(5) 0.2296(5) 0.7961(3)
N5 N 0.0987(6) 0.3398(5) 0.9247(3)
H1 H 0.1035 0.3723 0.9621
H2 H 0.0987 0.3719 0.8871
C2 C 0.1904(6) -0.1896(6) 0.8310(4)
N6 N 0.0916(6) 0.1945(5) 0.9858(3)
C3 C 0.1250(5) -0.1227(5) 0.5973(3)
C4 C 0.2578(6) -0.1083(6) 0.8099(4)
C5 C 0.0913(6) 0.2410(6) 0.9251(3)
N7 N 0.1541(7) -0.2831(5) 0.5479(4)
C6 C 0.0832(6) 0.1819(5) 0.8647(3)
N8 N 0.1396(7) -0.1497(6) 0.4770(3)
H3 H 0.1463 -0.1910 0.4440
H4 H 0.1317 -0.0865 0.4693
C7 C 0.2403(6) 0.3398(6) 0.6513(4)
C8 C 0.2779(7) 0.1845(7) 0.6074(5)
H5 H 0.2598 0.1229 0.5891
C9 C 0.1666(6) 0.4106(5) 0.6707(3)
C10 C 0.1120(5) -0.0098(5) 0.5918(3)
C11 C 0.1415(6) -0.1842(6) 0.5408(4)
C12 C 0.1354(6) -0.2618(6) 0.6638(4)
H6 H 0.1348 -0.2917 0.7061
N9 N 0.3991(6) 0.2950(7) 0.6361(6)
C13 C 0.0822(8) 0.0366(6) 0.9280(4)
H7 H 0.0797 -0.0333 0.9312
C14 C 0.0887(8) 0.0951(6) 0.9859(4)
H8 H 0.0913 0.0621 1.0273
N10 N 0.4087(6) -0.0355(7) 0.8037(5)
C15 C 0.1498(9) -0.3184(7) 0.6114(5)
H9 H 0.1575 -0.3873 0.6182
C16 C 0.2756(7) 0.0486(7) 0.7631(5)
H10 H 0.2509 0.1062 0.7432
C17 C 0.3699(7) 0.2070(8) 0.6139(6)
H11 H 0.4132 0.1585 0.6022
N11 N 0.3959(7) -0.1937(8) 0.8496(6)
H12 H 0.4548 -0.1938 0.8561
H13 H 0.3636 -0.2450 0.8615
C18 C 0.3544(7) -0.1138(8) 0.8212(5)
C19 C 0.3375(7) 0.3616(8) 0.6561(6)
N12 N 0.3706(7) 0.4484(7) 0.6802(6)
H14 H 0.4293 0.4586 0.6820
H15 H 0.3333 0.4942 0.6938
C20 C 0.3676(8) 0.0424(8) 0.7742(7)
H16 H 0.4043 0.0959 0.7603
Pb1A Pb -0.04271(2) -0.28494(2) 0.87309(2)
Pb2A Pb -0.04634(2) 0.47000(2) 0.74335(2)
O2A O -0.0862(4) -0.1103(4) 0.8492(2)
O3A O -0.1069(4) 0.3277(4) 0.6757(3)
O6A O -0.0885(5) -0.1789(4) 0.7089(2)
loop_
_geom_bond_atom_site_label_1
_geom_bond_atom_site_label_2
_geom_bond_site_symmetry_1
_geom_bond_site_symmetry_2
Pb1 O1 1_555 1_555
Pb2 O1 1_555 1_555
O1 C1 1_555 1_555
O2 Pb1 1_555 1_555
O3 Pb2 1_555 1_555
O4 Pb1 1_555 1_555
O5 C9 1_555 1_555
O6 C1 1_555 1_555
O7 C2 1_555 1_555
N1 Pb2 1_555 1_555
N2 Pb2 1_555 1_555
O8 C10 1_555 1_555
N3 Pb2 1_555 1_555
N4 Pb1 1_555 1_555
C1 C6 1_555 1_555
N5 H1 1_555 1_555
H2 N5 1_555 1_555
C2 O3 1_555 1_555
N6 C5 1_555 1_555
C3 N2 1_555 1_555
C4 N1 1_555 1_555
C5 N5 1_555 1_555
N7 C11 1_555 1_555
C6 N3 1_555 1_555
N8 H3 1_555 1_555
H4 N8 1_555 1_555
C7 N4 1_555 1_555
C8 N4 1_555 1_555
H5 C8 1_555 1_555
C9 O2 1_555 1_555
C10 O4 1_555 1_555
C11 C3 1_555 1_555
C12 N2 1_555 1_555
H6 C12 1_555 1_555
N9 C17 1_555 1_555
C13 N3 1_555 1_555
H7 C13 1_555 1_555
C14 N6 1_555 1_555
H8 C14 1_555 1_555
N10 C18 1_555 1_555
C15 N7 1_555 1_555
H9 C15 1_555 1_555
C16 N1 1_555 1_555
H10 C16 1_555 1_555
C17 C8 1_555 1_555
H11 C17 1_555 1_555
N11 H12 1_555 1_555
H13 N11 1_555 1_555
C18 C4 1_555 1_555
C19 C7 1_555 1_555
N12 C19 1_555 1_555
H14 N12 1_555 1_555
H15 N12 1_555 1_555
C20 N10 1_555 1_555
H16 C20 1_555 1_555
O9 H17 1_555 1_555
H18 O9 1_555 1_555
Pb1A O3 1_555 1_555
Pb2A O2 1_555 1_555
O2A Pb2 1_555 1_555
O3A Pb1 1_555 1_555
O6A Pb2 1_555 1_555
Pb2 O4 1_555 1_555
O6 Pb2A 1_555 1_555
C2 C4 1_555 1_555
C3 C10 1_555 1_555
C5 C6 1_555 1_555
N8 C11 1_555 1_555
C7 C9 1_555 1_555
C12 C15 1_555 1_555
N9 C19 1_555 1_555
C13 C14 1_555 1_555
C16 C20 1_555 1_555
N11 C18 1_555 1_555
Pb1A O2A 1_555 1_555
Pb2A O3A 1_555 1_555

#END
