
#######################################################################
#
#                 Cambridge Crystallographic Data Centre
#                                CCDC 
#
#######################################################################
#
# If this CIF has been generated from an entry in the Cambridge 
# Structural Database, then it will include bibliographic, chemical, 
# crystal, experimental, refinement or atomic coordinate data resulting 
# from the CCDC's data processing and validation procedures.
#
#######################################################################

data_FOPWOY
_symmetry_cell_setting           monoclinic
_symmetry_space_group_name_H-M   'C 2/m'
_symmetry_Int_Tables_number      12
_space_group_name_Hall           '-C 2y'
loop_
_symmetry_equiv_pos_site_id
_symmetry_equiv_pos_as_xyz
1 x,y,z
2 -x,y,-z
3 1/2+x,1/2+y,z
4 1/2-x,1/2+y,-z
5 -x,-y,-z
6 x,-y,z
7 1/2-x,1/2-y,-z
8 1/2+x,1/2-y,z
_cell_length_a                   28.1919(17)
_cell_length_b                   19.7200(10)
_cell_length_c                   11.8904(8)
_cell_angle_alpha                90
_cell_angle_beta                 111.140(2)
_cell_angle_gamma                90
_cell_volume                     6165.53
loop_
_atom_site_label
_atom_site_type_symbol
_atom_site_fract_x
_atom_site_fract_y
_atom_site_fract_z
Pb1 Pb 0.13608(2) 0.23519(3) 0.09129(5)
Pb2 Pb 0.20830(3) 0.0000 0.09361(10)
Pb3 Pb 0.06991(3) 0.0000 0.11283(10)
Pb4 Pb 0.37188(4) 0.0000 -0.14929(9)
N1 N 0.1024(8) 0.0000 -0.1224(17)
O1 O 0.1450(3) 0.3532(5) 0.1674(9)
N2 N 0.0492(4) 0.2629(5) 0.1439(12)
O2 O 0.0861(4) 0.1374(5) 0.1420(10)
O3 O 0.2304(6) 0.0000 -0.0985(19)
O4 O 0.1982(3) 0.1407(5) 0.1364(10)
N3 N 0.2352(4) 0.2672(5) 0.1421(10)
N4 N 0.3366(4) 0.2903(6) 0.1765(14)
O5 O 0.0169(4) 0.0907(5) 0.1519(13)
N5 N 0.3509(4) 0.1771(6) 0.1686(13)
H1 H 0.3816 0.1870 0.1764
H2 H 0.3413 0.1354 0.1624
C1 C 0.0222(5) 0.2119(7) 0.1584(11)
O6 O 0.2734(4) 0.0968(5) 0.1607(13)
N6 N 0.1657(5) 0.2434(6) 0.3102(11)
C2 C 0.0440(5) 0.1423(7) 0.1507(12)
O7 O 0.1660(6) 0.4215(6) 0.3244(12)
O8 O 0.2260(7) 0.0000 0.397(3)
C3 C 0.2535(5) 0.3299(8) 0.1518(14)
H3 H 0.2325 0.3667 0.1489
N7 N -0.0542(4) 0.1692(7) 0.1835(12)
H4 H -0.0822 0.1775 0.1944
H5 H -0.0446 0.1281 0.1812
C4 C 0.2735(11) 0.0000 -0.087(3)
H6 H 0.2967 0.0000 -0.0082
N8 N 0.0906(9) 0.0000 0.3409(17)
C5 C 0.3039(5) 0.3402(8) 0.1662(15)
H7 H 0.3154 0.3846 0.1689
C6 C 0.2666(5) 0.2152(6) 0.1501(11)
O9 O 0.1582(7) 0.0000 0.224(2)
C7 C -0.0255(5) 0.2208(7) 0.1701(12)
N9 N -0.0425(5) 0.2841(7) 0.1746(16)
O10 O 0.0701(8) 0.0000 -0.215(2)
O11 O 0.1238(6) -0.0529(7) -0.0789(17)
C8 C 0.2451(5) 0.1458(7) 0.1496(13)
C9 C 0.3185(5) 0.2258(7) 0.1661(12)
C10 C 0.1715(5) 0.3044(7) 0.3622(13)
C11 C 0.0322(6) 0.3242(8) 0.148(2)
H8 H 0.0512 0.3613 0.1404
O12 O 0.2912(8) 0.0000 -0.165(2)
C12 C -0.0143(6) 0.3348(8) 0.1637(19)
H9 H -0.0254 0.3790 0.1665
C13 C 0.1599(5) 0.3635(7) 0.2791(15)
C14 C 0.1596(14) 0.0000 0.527(3)
N10 N 0.1973(9) 0.2576(10) 0.5622(15)
C15 C 0.1765(7) 0.1884(8) 0.3813(16)
H10 H 0.1734 0.1455 0.3470
C16 C 0.1440(10) 0.0000 0.400(3)
C17 C 0.0619(13) 0.0000 0.391(4)
H11 H 0.0273 0.0000 0.3460
C18 C 0.1920(8) 0.1950(11) 0.5020(17)
H12 H 0.1997 0.1557 0.5485
C19 C 0.0779(16) 0.0000 0.522(4)
H13 H 0.0532 0.0000 0.5571
C20 C 0.1882(9) 0.3105(11) 0.4887(19)
C21 C 0.1757(10) 0.0000 0.343(2)
N11 N 0.1951(10) 0.3697(10) 0.5468(16)
H14 H 0.2045 0.3705 0.6241
H15 H 0.1902 0.4071 0.5070
N12 N 0.1296(15) 0.0000 0.598(3)
N13 N 0.2142(14) 0.0000 0.606(4)
H16 H 0.2227 0.0000 0.6835
H17 H 0.2373 0.0000 0.5750
O13 O 0.3898(8) 0.0534(11) 0.080(2)
C22 C 0.394(2) 0.0000 0.139(6)
H18 H 0.4010 0.0000 0.2217
O11E O 0.1238(6) 0.0529(7) -0.0789(17)
O13E O 0.3898(8) -0.0534(11) 0.080(2)
Pb1E Pb 0.13608(2) -0.23519(3) 0.09129(5)
O1E O 0.1450(3) -0.3532(5) 0.1674(9)
N2E N 0.0492(4) -0.2629(5) 0.1439(12)
O2E O 0.0861(4) -0.1374(5) 0.1420(10)
O4E O 0.1982(3) -0.1407(5) 0.1364(10)
N3E N 0.2352(4) -0.2672(5) 0.1421(10)
N4E N 0.3366(4) -0.2903(6) 0.1765(14)
O5E O 0.0169(4) -0.0907(5) 0.1519(13)
N5E N 0.3509(4) -0.1771(6) 0.1686(13)
H1E H 0.3816 -0.1870 0.1764
H2E H 0.3413 -0.1354 0.1624
C1E C 0.0222(5) -0.2119(7) 0.1584(11)
O6E O 0.2734(4) -0.0968(5) 0.1607(13)
N6E N 0.1657(5) -0.2434(6) 0.3102(11)
C2E C 0.0440(5) -0.1423(7) 0.1507(12)
O7E O 0.1660(6) -0.4215(6) 0.3244(12)
C3E C 0.2535(5) -0.3299(8) 0.1518(14)
H3E H 0.2325 -0.3667 0.1489
N7E N -0.0542(4) -0.1692(7) 0.1835(12)
H4E H -0.0822 -0.1775 0.1944
H5E H -0.0446 -0.1281 0.1812
C5E C 0.3039(5) -0.3402(8) 0.1662(15)
H7E H 0.3154 -0.3846 0.1689
C6E C 0.2666(5) -0.2152(6) 0.1501(11)
C7E C -0.0255(5) -0.2208(7) 0.1701(12)
N9E N -0.0425(5) -0.2841(7) 0.1746(16)
C8E C 0.2451(5) -0.1458(7) 0.1496(13)
C9E C 0.3185(5) -0.2258(7) 0.1661(12)
C10E C 0.1715(5) -0.3044(7) 0.3622(13)
C11E C 0.0322(6) -0.3242(8) 0.148(2)
H8E H 0.0512 -0.3613 0.1404
C12E C -0.0143(6) -0.3348(8) 0.1637(19)
H9E H -0.0254 -0.3790 0.1665
C13E C 0.1599(5) -0.3635(7) 0.2791(15)
N10E N 0.1973(9) -0.2576(10) 0.5622(15)
C15E C 0.1765(7) -0.1884(8) 0.3813(16)
H10E H 0.1734 -0.1455 0.3470
C18E C 0.1920(8) -0.1950(11) 0.5020(17)
H12E H 0.1997 -0.1557 0.5485
C20E C 0.1882(9) -0.3105(11) 0.4887(19)
N11E N 0.1951(10) -0.3697(10) 0.5468(16)
H14E H 0.2045 -0.3705 0.6241
H15E H 0.1902 -0.4071 0.5070
Pb4C Pb 0.12812(4) -0.5000 0.14929(9)
Pb4C_2 Pb 0.12812(4) 0.5000 0.14929(9)
O1C O 0.3550(3) -0.1468(5) -0.1674(9)
O1F O 0.3550(3) 0.1468(5) -0.1674(9)
O7C O 0.3340(6) -0.0785(6) -0.3244(12)
O7F O 0.3340(6) 0.0785(6) -0.3244(12)
loop_
_geom_bond_atom_site_label_1
_geom_bond_atom_site_label_2
_geom_bond_site_symmetry_1
_geom_bond_site_symmetry_2
Pb1 O1 1_555 1_555
Pb2 O3 1_555 1_555
Pb3 O2 1_555 1_555
Pb4 O12 1_555 1_555
N1 O10 1_555 1_555
O1 C13 1_555 1_555
N2 Pb1 1_555 1_555
O2 Pb1 1_555 1_555
O3 C4 1_555 1_555
O4 Pb1 1_555 1_555
N3 Pb1 1_555 1_555
N4 C5 1_555 1_555
O5 Pb3 1_555 1_555
N5 H1 1_555 1_555
H2 N5 1_555 1_555
C1 N2 1_555 1_555
O6 Pb2 1_555 1_555
N6 Pb1 1_555 1_555
C2 O2 1_555 1_555
O7 C13 1_555 1_555
O8 C21 1_555 1_555
C3 N3 1_555 1_555
H3 C3 1_555 1_555
N7 H4 1_555 1_555
H5 N7 1_555 1_555
C4 H6 1_555 1_555
N8 Pb3 1_555 1_555
C5 C3 1_555 1_555
H7 C5 1_555 1_555
C6 N3 1_555 1_555
O9 Pb2 1_555 1_555
C7 C1 1_555 1_555
N9 C7 1_555 1_555
O11 Pb2 1_555 1_555
C8 O4 1_555 1_555
C9 N4 1_555 1_555
C10 N6 1_555 1_555
C11 N2 1_555 1_555
H8 C11 1_555 1_555
O12 C4 1_555 1_555
C12 N9 1_555 1_555
H9 C12 1_555 1_555
C13 C10 1_555 1_555
C14 C16 1_555 1_555
N10 C18 1_555 1_555
C15 N6 1_555 1_555
H10 C15 1_555 1_555
C16 N8 1_555 1_555
C17 N8 1_555 1_555
H11 C17 1_555 1_555
C18 C15 1_555 1_555
H12 C18 1_555 1_555
C19 C17 1_555 1_555
H13 C19 1_555 1_555
C20 C10 1_555 1_555
C21 O9 1_555 1_555
N11 C20 1_555 1_555
H14 N11 1_555 1_555
H15 N11 1_555 1_555
N12 C14 1_555 1_555
N13 C14 1_555 1_555
H16 N13 1_555 1_555
H17 N13 1_555 1_555
O13 Pb4 1_555 1_555
C22 O13 1_555 1_555
H18 C22 1_555 1_555
O11E Pb2 1_555 1_555
O13E Pb4 1_555 1_555
Pb1E O1E 1_555 1_555
O1E C13E 1_555 1_555
N2E Pb1E 1_555 1_555
O2E Pb3 1_555 1_555
O4E Pb2 1_555 1_555
N3E Pb1E 1_555 1_555
N4E C5E 1_555 1_555
O5E Pb3 1_555 1_555
N5E H1E 1_555 1_555
H2E N5E 1_555 1_555
C1E N2E 1_555 1_555
O6E Pb2 1_555 1_555
N6E Pb1E 1_555 1_555
C2E O2E 1_555 1_555
O7E C13E 1_555 1_555
C3E N3E 1_555 1_555
H3E C3E 1_555 1_555
N7E H4E 1_555 1_555
H5E N7E 1_555 1_555
C5E C3E 1_555 1_555
H7E C5E 1_555 1_555
C6E N3E 1_555 1_555
C7E C1E 1_555 1_555
N9E C7E 1_555 1_555
C8E O4E 1_555 1_555
C9E N4E 1_555 1_555
C10E N6E 1_555 1_555
C11E N2E 1_555 1_555
H8E C11E 1_555 1_555
C12E N9E 1_555 1_555
H9E C12E 1_555 1_555
C13E C10E 1_555 1_555
N10E C18E 1_555 1_555
C15E N6E 1_555 1_555
H10E C15E 1_555 1_555
C18E C15E 1_555 1_555
H12E C18E 1_555 1_555
C20E C10E 1_555 1_555
N11E C20E 1_555 1_555
H14E N11E 1_555 1_555
H15E N11E 1_555 1_555
Pb4C O1E 1_555 1_555
Pb4C_2 O1 1_555 1_555
O1C Pb4 1_555 1_555
O1F Pb4 1_555 1_555
O7C Pb4 1_555 1_555
O7F Pb4 1_555 1_555
Pb2 O4 1_555 1_555
Pb3 O9 1_555 1_555
N1 O11 1_555 1_555
N1 O11E 1_555 1_555
O5 C2 1_555 1_555
N5 C9 1_555 1_555
C1 C2 1_555 1_555
O6 C8 1_555 1_555
O7 Pb4C_2 1_555 1_555
N7 C7 1_555 1_555
C6 C8 1_555 1_555
C6 C9 1_555 1_555
C11 C12 1_555 1_555
N10 C20 1_555 1_555
C16 C21 1_555 1_555
C19 N12 1_555 1_555
C22 O13E 1_555 1_555
Pb1E O2E 1_555 1_555
Pb1E O4E 1_555 1_555
O5E C2E 1_555 1_555
N5E C9E 1_555 1_555
C1E C2E 1_555 1_555
O6E C8E 1_555 1_555
O7E Pb4C 1_555 1_555
N7E C7E 1_555 1_555
C6E C8E 1_555 1_555
C6E C9E 1_555 1_555
C11E C12E 1_555 1_555
N10E C20E 1_555 1_555

#END
