
#######################################################################
#
#                 Cambridge Crystallographic Data Centre
#                                CCDC 
#
#######################################################################
#
# If this CIF has been generated from an entry in the Cambridge 
# Structural Database, then it will include bibliographic, chemical, 
# crystal, experimental, refinement or atomic coordinate data resulting 
# from the CCDC's data processing and validation procedures.
#
#######################################################################

data_FOPZOB
_symmetry_cell_setting           tetragonal
_symmetry_space_group_name_H-M   'P 41'
_symmetry_Int_Tables_number      76
_space_group_name_Hall           'P 4w'
loop_
_symmetry_equiv_pos_site_id
_symmetry_equiv_pos_as_xyz
1 x,y,z
2 -y,x,1/4+z
3 -x,-y,1/2+z
4 y,-x,3/4+z
_cell_length_a                   26.222(4)
_cell_length_b                   26.222(4)
_cell_length_c                   14.287(3)
_cell_angle_alpha                90
_cell_angle_beta                 90
_cell_angle_gamma                90
_cell_volume                     9823.65
loop_
_atom_site_label
_atom_site_type_symbol
_atom_site_fract_x
_atom_site_fract_y
_atom_site_fract_z
Mn1 Mn 0.20091(4) 0.63302(5) 0.77395(8)
O1 O 0.3227(3) 0.6070(2) 1.0026(6)
C1 C 0.5400(3) 0.4256(3) 1.0174(6)
O2 O 0.2589(3) 0.4466(3) 0.9970(5)
N1 N 0.6913(3) 0.3679(3) 1.0040(6)
C2 C 0.3838(4) 0.5432(3) 1.0059(6)
C3 C 0.4469(3) 0.4135(3) 1.0129(5)
C4 C 0.5087(4) 0.3404(3) 1.0148(5)
H1 H 0.4806 0.3174 1.0138
O3 O 0.2527(2) 0.5739(2) 0.8474(4)
C5 C 0.4814(3) 0.5015(3) 1.0168(5)
C6 C 0.6335(3) 0.4410(3) 1.0186(6)
O4 O 0.1935(3) 0.6164(3) 0.9263(5)
C7 C 0.4988(4) 0.3902(3) 1.0144(5)
C8 C 0.3543(3) 0.4010(3) 1.0051(5)
H2 H 0.3252 0.3794 1.0020
N2 N 0.2914(3) 0.5277(3) 1.0009(5)
O5 O 0.7231(3) 0.4488(2) 1.0135(5)
C9 C 0.3473(4) 0.4540(4) 1.0053(5)
C10 C 0.4241(3) 0.5730(3) 1.0079(6)
H3 H 0.4194 0.6090 1.0081
C11 C 0.4414(4) 0.4692(3) 1.0124(5)
C12 C 0.6009(3) 0.3569(4) 1.0099(6)
C13 C 0.2387(5) 0.5495(4) 1.0031(7)
H4 H 0.2155 0.5194 0.9973
O6 O 0.6576(3) 0.2875(2) 1.0135(6)
C14 C 0.3901(3) 0.4874(3) 1.0075(6)
C15 C 0.4040(4) 0.3786(4) 1.0095(7)
H5 H 0.4087 0.3427 1.0101
C16 C 0.5573(4) 0.3203(3) 1.0166(6)
H6 H 0.5629 0.2846 1.0218
C17 C 0.5770(4) 0.5121(4) 1.0204(6)
H7 H 0.5732 0.5481 1.0213
C18 C 0.7772(3) 0.3623(3) 1.0731(5)
C19 C 0.2968(3) 0.4744(3) 1.0014(5)
C20 C 0.2423(4) 0.5372(5) 1.1785(8)
C21 C 0.5334(4) 0.4807(3) 1.0184(6)
C22 C 0.3304(4) 0.5607(3) 1.0031(6)
C23 C 0.7424(4) 0.3504(3) 0.9912(6)
H8 H 0.7401 0.3124 0.9887
C24 C 0.4730(4) 0.5539(3) 1.0096(6)
H9 H 0.5012 0.5765 1.0059
C25 C 0.5930(4) 0.4077(3) 1.0146(5)
C26 C 0.6231(5) 0.4919(4) 1.0211(7)
H10 H 0.6512 0.5146 1.0235
C27 C 0.2270(4) 0.5821(4) 0.9210(6)
C28 C 0.6877(5) 0.4247(4) 1.0127(6)
C29 C 0.6522(4) 0.3343(4) 1.0125(6)
C30 C 0.3015(5) 0.5024(6) 1.2966(8)
H11 H 0.3347 0.5017 1.3233
C31 C 0.2070(6) 0.5046(5) 1.2119(10)
H12 H 0.1749 0.5027 1.1811
C32 C 0.2278(5) 0.5717(4) 1.1005(7)
H13 H 0.2466 0.6042 1.1073
H14 H 0.1909 0.5795 1.1053
C33 C 0.2886(4) 0.5363(6) 1.2228(8)
H15 H 0.3137 0.5600 1.2029
C34 C 0.2153(8) 0.4740(6) 1.2889(12)
H16 H 0.1876 0.4554 1.3152
C35 C 0.2626(7) 0.4700(5) 1.3278(11)
H17 H 0.2690 0.4456 1.3754
O7 O 0.2505(2) 0.6988(3) 0.8090(5)
O8 O 0.7554(3) 0.3707(3) 1.1504(4)
O9 O 0.8236(3) 0.3596(2) 1.0617(5)
C36 C 0.7670(6) 0.3674(5) 0.8922(7)
H18 H 0.7574 0.4033 0.8799
H19 H 0.8046 0.3660 0.8978
C37 C 0.2850(3) 0.7004(3) 0.8682(8)
H20 H 0.2873 0.6734 0.9123
N3 N 0.3169(3) 0.7355(4) 0.8733(8)
C38 C 0.7513(5) 0.3357(5) 0.8092(9)
C39 C 0.3603(4) 0.7351(6) 0.9403(9)
H21 H 0.3529 0.7583 0.9924
H22 H 0.3914 0.7463 0.9083
H23 H 0.3652 0.7005 0.9644
C40 C 0.7855(4) 0.3094(4) 0.7571(6)
H24 H 0.8200 0.3119 0.7766
C41 C 0.7768(5) 0.2797(8) 0.6802(13)
H25 H 0.8021 0.2605 0.6483
C42 C 0.3164(6) 0.7801(6) 0.8159(19)
H26 H 0.3509 0.7944 0.8125
H27 H 0.2932 0.8054 0.8430
H28 H 0.3048 0.7711 0.7529
C43 C 0.7238(5) 0.2818(6) 0.6545(11)
H29 H 0.7136 0.2637 0.6001
C44 C 0.6996(6) 0.3321(13) 0.7842(13)
H30 H 0.6736 0.3462 0.8228
C45 C 0.6879(9) 0.3074(7) 0.7016(15)
H31 H 0.6541 0.3086 0.6780
O10 O 0.1498(4) 0.5738(4) 0.7479(7)
C46 C 0.1077(8) 0.5755(7) 0.693(2)
H32 H 0.1035 0.6055 0.6559
N4 N 0.0724(6) 0.5407(5) 0.6840(16)
C47 C 0.0732(12) 0.4937(6) 0.740(2)
H33 H 0.1084 0.4813 0.7449
H34 H 0.0522 0.4677 0.7091
H35 H 0.0597 0.5007 0.8024
C48 C 0.0573(14) 0.5485(10) 0.586(2)
H36 H 0.0367 0.5796 0.5805
H37 H 0.0372 0.5192 0.5642
H38 H 0.0878 0.5518 0.5466
Mn2 Mn -0.12569(5) 1.29898(4) 1.03488(8)
C49 C 0.0227(3) 1.1298(3) 0.7821(5)
C50 C -0.0304(3) 1.1399(3) 0.7779(6)
C51 C 0.0562(3) 1.1697(3) 0.7885(6)
C52 C 0.0812(3) 0.8299(3) 0.7824(6)
O11 O 0.14020(19) 0.6860(2) 0.7509(4)
N5 N 0.1338(3) 0.8220(3) 0.7872(5)
O12 O 0.0531(2) 0.7939(2) 0.7911(4)
C53 C 0.0415(3) 1.0773(4) 0.7801(6)
O13 O 0.2154(2) 0.8549(3) 0.7776(5)
C54 C 0.1095(4) 1.1593(4) 0.7976(6)
H39 H 0.1325 1.1867 0.8081
O14 O 0.1268(2) 0.7508(2) 0.6529(4)
C55 C 0.1648(3) 1.0083(3) 0.7818(6)
H40 H 0.1884 1.0358 0.7824
C56 C 0.0060(3) 1.0389(3) 0.7772(6)
C57 C 0.0628(3) 0.8841(3) 0.7790(6)
C58 C 0.1516(3) 0.9166(3) 0.7812(6)
C59 C -0.0644(4) 1.1004(5) 0.7753(8)
H41 H -0.0999 1.1076 0.7722
N6 N -0.0150(3) 1.2321(3) 0.7891(6)
C60 C -0.0482(2) 1.1926(3) 0.7838(7)
C61 C 0.0784(3) 0.9768(3) 0.7797(5)
C62 C 0.0953(3) 1.0709(3) 0.7827(5)
C63 C 0.0395(3) 1.2244(3) 0.8008(6)
O15 O 0.0668(2) 1.2605(3) 0.8115(6)
C64 C 0.1541(4) 0.7722(4) 0.8070(7)
H42 H 0.1920 0.7753 0.8026
C65 C 0.1144(3) 1.0173(4) 0.7828(6)
C66 C 0.1271(3) 1.1129(4) 0.7918(6)
H43 H 0.1630 1.1077 0.7938
C67 C 0.1828(3) 0.9556(3) 0.7799(6)
H44 H 0.2185 0.9494 0.7776
C68 C -0.0072(3) 0.9409(4) 0.7730(7)
H45 H -0.0431 0.9458 0.7711
O16 O -0.09593(19) 1.2030(3) 0.7686(6)
C69 C 0.0962(2) 0.9246(3) 0.7800(6)
C70 C 0.1380(3) 0.7359(3) 0.7301(6)
C71 C 0.1696(3) 0.8628(3) 0.7792(6)
C72 C -0.0331(3) 1.2813(4) 0.8020(6)
H46 H -0.0032 1.3027 0.8205
C73 C 0.0238(3) 0.9847(3) 0.7745(6)
C74 C 0.0096(3) 0.8937(3) 0.7740(6)
H47 H -0.0138 0.8661 0.7714
C75 C 0.1596(5) 0.7979(3) 0.9770(8)
C76 C -0.0470(3) 1.0463(4) 0.7772(7)
H48 H -0.0704 1.0186 0.7782
C77 C 0.1859(5) 0.8782(4) 1.0884(8)
H49 H 0.1952 0.9051 1.1295
C78 C 0.1426(4) 0.7568(4) 0.9053(7)
H50 H 0.1603 0.7243 0.9193
H51 H 0.1055 0.7509 0.9117
C79 C -0.0175(3) 1.3052(4) 0.6306(7)
C80 C 0.1357(6) 0.8728(3) 1.0649(8)
H52 H 0.1108 0.8967 1.0855
C81 C 0.2094(5) 0.8052(4) 0.9988(8)
H53 H 0.2346 0.7824 0.9756
C82 C -0.0564(4) 1.3063(5) 0.7114(7)
H54 H -0.0875 1.2875 0.6928
H55 H -0.0661 1.3420 0.7249
C83 C 0.2237(5) 0.8464(4) 1.0553(9)
H56 H 0.2585 0.8523 1.0704
C84 C 0.1221(5) 0.8308(4) 1.0093(9)
H57 H 0.0874 0.8250 0.9937
O17 O -0.1905(3) 1.2515(2) 0.9879(5)
O18 O -0.0697(3) 1.2530(2) 0.9501(5)
O19 O -0.1018(3) 1.3207(3) 0.8879(5)
O20 O -0.0546(3) 1.3330(4) 1.0851(7)
N7 N -0.2259(3) 1.1911(3) 0.8979(7)
C85 C -0.1887(4) 1.2220(4) 0.9206(8)
H58 H -0.1587 1.2218 0.8832
C86 C -0.2725(4) 1.1886(4) 0.9573(12)
H59 H -0.2731 1.2180 0.9998
H60 H -0.2722 1.1570 0.9939
H61 H -0.3028 1.1893 0.9173
C87 C -0.0722(4) 1.2849(4) 0.8832(6)
C88 C 0.0136(6) 1.2629(6) 0.4926(10)
H62 H 0.0118 1.2349 0.4504
N8 N 0.0242(5) 1.3037(5) 1.1420(12)
C89 C -0.0246(6) 1.2692(7) 0.5606(12)
H63 H -0.0548 1.2492 0.5587
C90 C -0.2231(7) 1.1553(7) 0.8199(12)
H64 H -0.2500 1.1632 0.7746
H65 H -0.2276 1.1205 0.8432
H66 H -0.1897 1.1583 0.7894
C91 C 0.0222(5) 1.3368(6) 0.6318(9)
H67 H 0.0257 1.3620 0.6792
C92 C 0.0534(4) 1.2963(5) 0.4864(10)
H68 H 0.0762 1.2959 0.4348
C93 C -0.0237(5) 1.3051(6) 1.1384(10)
H69 H -0.0405 1.2826 1.1804
C94 C 0.0533(7) 1.2770(10) 1.2129(13)
H70 H 0.0686 1.3018 1.2559
H71 H 0.0803 1.2570 1.1829
H72 H 0.0307 1.2542 1.2478
C95 C 0.0589(7) 1.3315(8) 0.5602(10)
H73 H 0.0884 1.3525 0.5618
C96 C 0.0531(6) 1.3371(10) 1.0732(16)
H74 H 0.0288 1.3545 1.0320
H75 H 0.0760 1.3158 1.0356
H76 H 0.0731 1.3624 1.1077
Mn1B Mn 0.79909(4) 0.36698(5) 1.27395(8)
O8B O 0.2446(3) 0.6293(3) 0.6504(4)
O9_2 O -0.1764(3) 1.3596(2) 1.0617(5)
Mn2_2 Mn 0.87431(5) 0.29898(4) 1.03488(8)
Mn2B Mn 0.12569(5) 0.70102(4) 0.53488(8)
O14B O -0.1268(2) 1.2492(2) 1.1529(4)
O21 O 0.0122(9) 0.6315(8) 0.8013(12)
C97 C 0.0430(6) 0.6267(5) 0.8643(10)
H77 H 0.0707 0.6501 0.8655
N9 N 0.0414(4) 0.5909(4) 0.9334(8)
C98 C 0.0003(6) 0.5538(6) 0.9367(13)
H78 H -0.0316 0.5700 0.9169
H79 H -0.0034 0.5410 1.0008
H80 H 0.0082 0.5253 0.8947
C99 C 0.0801(7) 0.5883(8) 1.0057(12)
H81 H 0.1138 0.5931 0.9776
H82 H 0.0787 0.5549 1.0363
H83 H 0.0740 0.6151 1.0521
loop_
_geom_bond_atom_site_label_1
_geom_bond_atom_site_label_2
_geom_bond_site_symmetry_1
_geom_bond_site_symmetry_2
Mn1 O3 1_555 1_555
O1 C22 1_555 1_555
C1 C7 1_555 1_555
O2 C19 1_555 1_555
N1 C23 1_555 1_555
C2 C10 1_555 1_555
C3 C7 1_555 1_555
C4 H1 1_555 1_555
O3 C27 1_555 1_555
C5 C11 1_555 1_555
C6 C25 1_555 1_555
O4 Mn1 1_555 1_555
C7 C4 1_555 1_555
C8 H2 1_555 1_555
N2 C13 1_555 1_555
O5 C28 1_555 1_555
C9 C8 1_555 1_555
C10 H3 1_555 1_555
C11 C3 1_555 1_555
C12 C16 1_555 1_555
C13 H4 1_555 1_555
O6 C29 1_555 1_555
C14 C2 1_555 1_555
C15 C3 1_555 1_555
H5 C15 1_555 1_555
C16 C4 1_555 1_555
H6 C16 1_555 1_555
C17 H7 1_555 1_555
C18 C23 1_555 1_555
C19 N2 1_555 1_555
C20 C31 1_555 1_555
C21 C1 1_555 1_555
C22 C2 1_555 1_555
C23 H8 1_555 1_555
C24 C5 1_555 1_555
H9 C24 1_555 1_555
C25 C1 1_555 1_555
C26 C6 1_555 1_555
H10 C26 1_555 1_555
C27 O4 1_555 1_555
C28 N1 1_555 1_555
C29 N1 1_555 1_555
C30 H11 1_555 1_555
C31 H12 1_555 1_555
C32 C13 1_555 1_555
H13 C32 1_555 1_555
H14 C32 1_555 1_555
C33 C20 1_555 1_555
H15 C33 1_555 1_555
C34 C31 1_555 1_555
H16 C34 1_555 1_555
C35 C30 1_555 1_555
H17 C35 1_555 1_555
O7 Mn1 1_555 1_555
O8 C18 1_555 1_555
O9 C18 1_555 1_555
C36 C23 1_555 1_555
H18 C36 1_555 1_555
H19 C36 1_555 1_555
C37 O7 1_555 1_555
H20 C37 1_555 1_555
N3 C37 1_555 1_555
C38 C36 1_555 1_555
C39 N3 1_555 1_555
H21 C39 1_555 1_555
H22 C39 1_555 1_555
H23 C39 1_555 1_555
C40 C38 1_555 1_555
H24 C40 1_555 1_555
C41 C40 1_555 1_555
H25 C41 1_555 1_555
C42 N3 1_555 1_555
H26 C42 1_555 1_555
H27 C42 1_555 1_555
H28 C42 1_555 1_555
C43 C41 1_555 1_555
H29 C43 1_555 1_555
C44 C38 1_555 1_555
H30 C44 1_555 1_555
C45 C43 1_555 1_555
H31 C45 1_555 1_555
O10 Mn1 1_555 1_555
C46 O10 1_555 1_555
H32 C46 1_555 1_555
N4 C46 1_555 1_555
C47 N4 1_555 1_555
H33 C47 1_555 1_555
H34 C47 1_555 1_555
H35 C47 1_555 1_555
C48 N4 1_555 1_555
H36 C48 1_555 1_555
H37 C48 1_555 1_555
H38 C48 1_555 1_555
Mn2 O17 1_555 1_555
C49 C50 1_555 1_555
C50 C59 1_555 1_555
C51 C49 1_555 1_555
C52 N5 1_555 1_555
O11 Mn1 1_555 1_555
N5 C64 1_555 1_555
O12 C52 1_555 1_555
C53 C49 1_555 1_555
O13 C71 1_555 1_555
C54 C51 1_555 1_555
H39 C54 1_555 1_555
O14 C70 1_555 1_555
C55 H40 1_555 1_555
C56 C53 1_555 1_555
C57 C52 1_555 1_555
C58 C67 1_555 1_555
C59 H41 1_555 1_555
N6 C60 1_555 1_555
C60 C50 1_555 1_555
C61 C65 1_555 1_555
C62 C53 1_555 1_555
C63 C51 1_555 1_555
O15 C63 1_555 1_555
C64 H42 1_555 1_555
C65 C55 1_555 1_555
C66 C54 1_555 1_555
H43 C66 1_555 1_555
C67 C55 1_555 1_555
H44 C67 1_555 1_555
C68 H45 1_555 1_555
O16 C60 1_555 1_555
C69 C57 1_555 1_555
C70 O11 1_555 1_555
C71 N5 1_555 1_555
C72 N6 1_555 1_555
H46 C72 1_555 1_555
C73 C56 1_555 1_555
C74 C57 1_555 1_555
H47 C74 1_555 1_555
C75 C78 1_555 1_555
C76 C56 1_555 1_555
H48 C76 1_555 1_555
C77 H49 1_555 1_555
C78 C64 1_555 1_555
H50 C78 1_555 1_555
H51 C78 1_555 1_555
C79 C82 1_555 1_555
C80 C77 1_555 1_555
H52 C80 1_555 1_555
C81 C75 1_555 1_555
H53 C81 1_555 1_555
C82 C72 1_555 1_555
H54 C82 1_555 1_555
H55 C82 1_555 1_555
C83 C77 1_555 1_555
H56 C83 1_555 1_555
C84 C75 1_555 1_555
H57 C84 1_555 1_555
O17 C85 1_555 1_555
O18 Mn2 1_555 1_555
O19 Mn2 1_555 1_555
O20 Mn2 1_555 1_555
N7 C85 1_555 1_555
C85 H58 1_555 1_555
C86 N7 1_555 1_555
H59 C86 1_555 1_555
H60 C86 1_555 1_555
H61 C86 1_555 1_555
C87 C72 1_555 1_555
C88 H62 1_555 1_555
N8 C93 1_555 1_555
C89 C79 1_555 1_555
H63 C89 1_555 1_555
C90 N7 1_555 1_555
H64 C90 1_555 1_555
H65 C90 1_555 1_555
H66 C90 1_555 1_555
C91 C79 1_555 1_555
H67 C91 1_555 1_555
C92 C88 1_555 1_555
H68 C92 1_555 1_555
C93 O20 1_555 1_555
H69 C93 1_555 1_555
C94 N8 1_555 1_555
H70 C94 1_555 1_555
H71 C94 1_555 1_555
H72 C94 1_555 1_555
C95 C91 1_555 1_555
H73 C95 1_555 1_555
C96 N8 1_555 1_555
H74 C96 1_555 1_555
H75 C96 1_555 1_555
H76 C96 1_555 1_555
O21 C97 1_555 1_555
C97 H77 1_555 1_555
N9 C97 1_555 1_555
C98 N9 1_555 1_555
H78 C98 1_555 1_555
H79 C98 1_555 1_555
H80 C98 1_555 1_555
C99 N9 1_555 1_555
H81 C99 1_555 1_555
H82 C99 1_555 1_555
H83 C99 1_555 1_555
Mn1B O8 1_555 1_555
O8B Mn1 1_555 1_555
O9_2 Mn2 1_555 1_555
Mn2_2 O9 1_555 1_555
Mn2B O14 1_555 1_555
O14B Mn2 1_555 1_555
C5 C21 1_555 1_555
C6 C28 1_555 1_555
C8 C15 1_555 1_555
N2 C22 1_555 1_555
C9 C14 1_555 1_555
C9 C19 1_555 1_555
C10 C24 1_555 1_555
C11 C14 1_555 1_555
C12 C25 1_555 1_555
C12 C29 1_555 1_555
C13 C27 1_555 1_555
C17 C21 1_555 1_555
C17 C26 1_555 1_555
C20 C32 1_555 1_555
C30 C33 1_555 1_555
C34 C35 1_555 1_555
C44 C45 1_555 1_555
C58 C69 1_555 1_555
C58 C71 1_555 1_555
C59 C76 1_555 1_555
N6 C63 1_555 1_555
C61 C69 1_555 1_555
C61 C73 1_555 1_555
C62 C65 1_555 1_555
C62 C66 1_555 1_555
C64 C70 1_555 1_555
C68 C73 1_555 1_555
C68 C74 1_555 1_555
C80 C84 1_555 1_555
C81 C83 1_555 1_555
O18 C87 1_555 1_555
O19 C87 1_555 1_555
C88 C89 1_555 1_555
C92 C95 1_555 1_555

#END
