
#######################################################################
#
#                 Cambridge Crystallographic Data Centre
#                                CCDC 
#
#######################################################################
#
# If this CIF has been generated from an entry in the Cambridge 
# Structural Database, then it will include bibliographic, chemical, 
# crystal, experimental, refinement or atomic coordinate data resulting 
# from the CCDC's data processing and validation procedures.
#
#######################################################################

data_FOPZAN
_symmetry_cell_setting           monoclinic
_symmetry_space_group_name_H-M   'P 21'
_symmetry_Int_Tables_number      4
_space_group_name_Hall           'P 2yb'
loop_
_symmetry_equiv_pos_site_id
_symmetry_equiv_pos_as_xyz
1 x,y,z
2 -x,1/2+y,-z
_cell_length_a                   13.1063(18)
_cell_length_b                   19.986(3)
_cell_length_c                   15.035(2)
_cell_angle_alpha                90
_cell_angle_beta                 97.076(4)
_cell_angle_gamma                90
_cell_volume                     3908.31
loop_
_atom_site_label
_atom_site_type_symbol
_atom_site_fract_x
_atom_site_fract_y
_atom_site_fract_z
O1 O 0.3112(4) 0.0434(3) 0.7111(4)
Cl2 Cl 0.51708(17) -0.04683(10) 0.82890(14)
Cl3 Cl 0.68818(16) 0.09721(12) 0.77324(14)
Cl4 Cl 0.43391(18) 0.18133(11) 0.67188(15)
Cd1 Cd 0.49269(4) 0.06846(4) 0.74786(4)
C1 C 1.4076(6) 0.0748(5) -0.0619(5)
H1 H 1.3847 0.0322 -0.0820
C2 C 1.4919(6) 0.1747(5) -0.0855(6)
H2 H 1.5264 0.2021 -0.1229
C3 C 1.4788(6) 0.1968(5) -0.0027(8)
H3 H 1.5042 0.2393 0.0154
C4 C 1.4291(6) 0.1588(5) 0.0568(6)
H4 H 1.4221 0.1742 0.1148
C5 C 1.3897(6) 0.0959(5) 0.0254(6)
C6 C 1.3292(8) 0.0499(5) 0.0804(7)
H5 H 1.3262 0.0052 0.0535
H6 H 1.3657 0.0462 0.1411
C7 C 1.1607(8) 0.0209(5) 0.1220(6)
H7 H 1.2013 -0.0014 0.1725
H8 H 1.1424 -0.0128 0.0754
C8 C 1.0599(9) 0.0488(6) 0.1540(6)
H9 H 1.0341 0.0851 0.1134
H10 H 1.0082 0.0131 0.1477
C9 C 1.0672(8) 0.0720(8) 0.2386(7)
H11 H 1.1226 0.1053 0.2455
H12 H 1.0893 0.0347 0.2787
C10 C 0.9698(8) 0.1048(5) 0.2734(7)
H13 H 0.9922 0.1430 0.3118
H14 H 0.9242 0.1219 0.2218
C11 C 0.9073(6) 0.0556(4) 0.3272(6)
H15 H 0.8791 0.0192 0.2879
H16 H 0.9530 0.0359 0.3769
C12 C 0.8234(6) 0.0913(4) 0.3624(5)
H17 H 0.7788 0.1112 0.3122
H18 H 0.8525 0.1280 0.4008
C13 C 0.6513(5) 0.0744(5) 0.4157(5)
H19 H 0.6540 0.1203 0.4388
H20 H 0.6158 0.0751 0.3544
C14 C 0.5939(6) 0.0316(5) 0.4724(6)
C15 C 0.5585(6) -0.0323(5) 0.4510(6)
H21 H 0.5724 -0.0504 0.3960
C16 C 0.5057(6) -0.0702(4) 0.5033(6)
H22 H 0.4815 -0.1131 0.4860
C17 C 0.4886(6) -0.0405(5) 0.5877(6)
H23 H 0.4552 -0.0660 0.6280
C18 C 0.5700(6) 0.0544(4) 0.5540(6)
H24 H 0.5928 0.0976 0.5712
N1 N 1.4562(5) 0.1136(4) -0.1165(5)
N2 N 1.2254(5) 0.0730(4) 0.0860(5)
H25 H 1.1960 0.0854 0.0304
H26 H 1.2278 0.1097 0.1220
N3 N 0.5178(5) 0.0212(4) 0.6110(5)
N4 N 0.7597(5) 0.0479(3) 0.4151(4)
H27 H 0.7908 0.0449 0.4725
H28 H 0.7566 0.0060 0.3912
Cd1_2 Cd 1.49269(4) 0.06846(4) -0.25214(4)
N1_2 N 0.4562(5) 0.1136(4) 0.8835(5)
C19 C 0.9124(6) -0.1149(4) 1.0520(6)
C20 C 0.7989(6) -0.1646(4) 1.1465(5)
C21 C 0.7354(6) -0.1167(4) 1.0798(5)
C22 C 0.7251(6) -0.0771(4) 1.2245(5)
C23 C 0.7955(7) -0.0458(4) 0.9469(5)
H29 H 0.7287 -0.0555 0.9124
H30 H 0.8486 -0.0514 0.9070
C24 C 0.6249(6) -0.0118(4) 1.1056(5)
H31 H 0.5780 -0.0292 1.0551
H32 H 0.5843 -0.0024 1.1547
C25 C 0.8706(5) 0.0675(5) 0.9577(5)
C26 C 0.7009(5) 0.0592(4) 0.9904(5)
H33 H 0.6450 0.0500 0.9415
C27 C 0.7358(6) 0.1336(4) 0.9936(5)
H34 H 0.6943 0.1596 0.9460
C28 C 0.6733(6) 0.1072(4) 1.1266(6)
C29 C 0.8950(5) 0.1905(4) 0.9549(5)
H35 H 0.8454 0.2201 0.9203
H36 H 0.9460 0.1774 0.9157
C30 C 0.7209(6) 0.2272(4) 1.1069(7)
H37 H 0.6916 0.2545 1.0559
H38 H 0.6780 0.2334 1.1553
C31 C 1.0481(6) 0.2270(4) 1.0559(5)
C32 C 0.8925(6) 0.2773(4) 1.0796(5)
H39 H 0.8587 0.3122 1.0396
C33 C 0.9818(6) 0.3083(4) 1.1478(5)
H40 H 0.9874 0.3575 1.1415
C34 C 0.8554(6) 0.2615(4) 1.2249(5)
C35 C 1.1742(6) 0.2878(4) 1.1649(5)
H41 H 1.1821 0.3365 1.1686
H42 H 1.2244 0.2709 1.1273
C36 C 0.9950(6) 0.3252(4) 1.3143(5)
H43 H 1.0140 0.3706 1.2981
H44 H 0.9409 0.3290 1.3535
C37 C 1.2614(6) 0.2059(4) 1.2704(5)
C38 C 1.1866(6) 0.2968(4) 1.3359(5)
C39 C 1.2493(7) 0.2518(5) 1.4139(6)
C40 C 1.0760(6) 0.2525(4) 1.4338(5)
C41 C 1.3627(6) 0.1454(4) 1.3898(6)
H45 H 1.4089 0.1621 1.4412
H46 H 1.4046 0.1348 1.3420
C42 C 1.1838(6) 0.1804(4) 1.5381(5)
H47 H 1.2493 0.1901 1.5745
H48 H 1.1291 0.1883 1.5758
C43 C 1.3146(6) 0.0257(4) 1.3654(6)
C44 C 1.2749(5) 0.0758(5) 1.5019(4)
H49 H 1.3298 0.0845 1.5519
C45 C 1.2415(6) -0.0002(4) 1.5005(6)
H50 H 1.2787 -0.0261 1.5505
C46 C 1.1011(5) 0.0704(5) 1.5237(5)
C47 C 1.2635(6) -0.0925(5) 1.3875(6)
H51 H 1.3090 -0.1002 1.3414
H52 H 1.2898 -0.1191 1.4402
C48 C 1.0713(6) -0.0534(4) 1.5315(5)
H53 H 1.1150 -0.0824 1.5728
H54 H 1.0143 -0.0376 1.5626
C49 C 1.1329(6) -0.1279(4) 1.2618(5)
C50 C 1.0890(6) -0.1434(4) 1.4110(5)
H55 H 1.1215 -0.1762 1.4550
C51 C 1.0056(7) -0.1753(4) 1.3426(6)
H56 H 1.0061 -0.2247 1.3481
C52 C 0.9256(5) -0.1012(4) 1.4302(5)
C53 C 0.9961(7) -0.1867(5) 1.1739(7)
H57 H 0.9802 -0.2333 1.1873
H58 H 1.0502 -0.1873 1.1343
C54 C 0.8100(6) -0.1646(5) 1.3187(5)
H59 H 0.8053 -0.2133 1.3112
H60 H 0.7584 -0.1513 1.3573
C55 C 0.7632(7) -0.2340(5) 1.1418(6)
H61 H 0.7724 -0.2526 1.0837
H62 H 0.6910 -0.2355 1.1500
H63 H 0.8027 -0.2600 1.1885
C56 C 0.6446(6) -0.1472(4) 1.0212(6)
H64 H 0.5938 -0.1623 1.0585
H65 H 0.6679 -0.1849 0.9884
H66 H 0.6141 -0.1139 0.9791
C57 C 1.2221(7) 0.3722(5) 1.3363(6)
H67 H 1.2914 0.3747 1.3200
H68 H 1.2210 0.3909 1.3957
H69 H 1.1758 0.3974 1.2934
C58 C 1.3354(6) 0.2877(5) 1.4727(6)
H70 H 1.3870 0.3027 1.4361
H71 H 1.3665 0.2573 1.5185
H72 H 1.3074 0.3261 1.5009
N5 N 0.9040(5) -0.1557(3) 1.1259(4)
N6 N 0.8139(5) -0.0928(3) 1.0207(5)
N7 N 0.7852(5) -0.1347(3) 1.2351(4)
N8 N 0.7018(5) -0.0633(3) 1.1349(4)
N9 N 0.7964(5) 0.0240(3) 0.9788(4)
N10 N 0.8423(5) 0.1320(3) 0.9776(4)
N11 N 0.6694(5) 0.0494(3) 1.0791(4)
N12 N 0.7172(5) 0.1568(3) 1.0801(5)
N13 N 0.9462(4) 0.2276(3) 1.0278(4)
N14 N 1.0716(5) 0.2727(3) 1.1213(4)
N15 N 0.8227(5) 0.2502(4) 1.1366(4)
N16 N 0.9534(5) 0.2892(3) 1.2322(5)
N17 N 1.1992(5) 0.2591(3) 1.2573(4)
N18 N 1.2907(5) 0.1976(4) 1.3589(5)
N19 N 1.0830(5) 0.2936(4) 1.3632(5)
N20 N 1.1705(5) 0.2283(4) 1.4633(4)
N21 N 1.3139(5) 0.0843(3) 1.4161(4)
N22 N 1.2682(5) -0.0217(3) 1.4123(5)
N23 N 1.1826(5) 0.1116(3) 1.5150(5)
N24 N 1.1321(5) 0.0048(3) 1.5071(4)
N25 N 1.1609(5) -0.1162(4) 1.3540(5)
N26 N 1.0348(5) -0.1542(3) 1.2551(4)
N27 N 1.0303(5) -0.0918(3) 1.4526(4)
N28 N 0.9121(4) -0.1481(3) 1.3645(4)
O2 O 0.9878(4) -0.1030(3) 1.0208(4)
O3 O 0.9484(4) 0.0516(3) 0.9276(4)
O4 O 1.1108(4) 0.1912(3) 1.0234(4)
O5 O 1.2896(4) 0.1691(3) 1.2109(4)
O6 O 1.3511(4) 0.0196(3) 1.2991(4)
O7 O 1.1831(4) -0.1170(3) 1.2056(4)
O8 O 0.6989(4) -0.0445(3) 1.2843(3)
O9 O 0.6395(4) 0.1165(3) 1.2011(4)
O10 O 0.8064(4) 0.2485(3) 1.2885(4)
O11 O 0.9950(4) 0.2444(3) 1.4699(4)
O12 O 1.0189(4) 0.0849(3) 1.5462(4)
O13 O 0.8599(4) -0.0725(3) 1.4662(4)
Cl1 Cl 0.18294(18) -0.06686(12) 0.80194(19)
loop_
_geom_bond_atom_site_label_1
_geom_bond_atom_site_label_2
_geom_bond_site_symmetry_1
_geom_bond_site_symmetry_2
O1 Cd1 1_555 1_555
Cl2 Cd1 1_555 1_555
Cl3 Cd1 1_555 1_555
Cl4 Cd1 1_555 1_555
Cd1 N3 1_555 1_555
C1 H1 1_555 1_555
C2 H2 1_555 1_555
C3 C2 1_555 1_555
H3 C3 1_555 1_555
C4 C3 1_555 1_555
H4 C4 1_555 1_555
C5 C1 1_555 1_555
C6 C5 1_555 1_555
H5 C6 1_555 1_555
H6 C6 1_555 1_555
C7 H7 1_555 1_555
H8 C7 1_555 1_555
C8 C7 1_555 1_555
H9 C8 1_555 1_555
H10 C8 1_555 1_555
C9 C8 1_555 1_555
H11 C9 1_555 1_555
H12 C9 1_555 1_555
C10 C9 1_555 1_555
H13 C10 1_555 1_555
H14 C10 1_555 1_555
C11 C10 1_555 1_555
H15 C11 1_555 1_555
H16 C11 1_555 1_555
C12 C11 1_555 1_555
H17 C12 1_555 1_555
H18 C12 1_555 1_555
C13 H19 1_555 1_555
H20 C13 1_555 1_555
C14 C13 1_555 1_555
C15 C14 1_555 1_555
H21 C15 1_555 1_555
C16 C15 1_555 1_555
H22 C16 1_555 1_555
C17 C16 1_555 1_555
H23 C17 1_555 1_555
C18 C14 1_555 1_555
H24 C18 1_555 1_555
N1 C1 1_555 1_555
N2 C6 1_555 1_555
H25 N2 1_555 1_555
H26 N2 1_555 1_555
N3 C17 1_555 1_555
N4 C12 1_555 1_555
H27 N4 1_555 1_555
H28 N4 1_555 1_555
C19 N5 1_555 1_555
C20 C21 1_555 1_555
C21 C56 1_555 1_555
C22 N7 1_555 1_555
C23 H29 1_555 1_555
H30 C23 1_555 1_555
C24 H31 1_555 1_555
H32 C24 1_555 1_555
C25 N9 1_555 1_555
C26 H33 1_555 1_555
C27 C26 1_555 1_555
H34 C27 1_555 1_555
C28 N11 1_555 1_555
C29 H35 1_555 1_555
H36 C29 1_555 1_555
C30 H37 1_555 1_555
H38 C30 1_555 1_555
C31 N13 1_555 1_555
C32 H39 1_555 1_555
C33 C32 1_555 1_555
H40 C33 1_555 1_555
C34 N15 1_555 1_555
C35 H41 1_555 1_555
H42 C35 1_555 1_555
C36 H43 1_555 1_555
H44 C36 1_555 1_555
C37 N17 1_555 1_555
C38 C39 1_555 1_555
C39 C58 1_555 1_555
C40 N19 1_555 1_555
C41 H45 1_555 1_555
H46 C41 1_555 1_555
C42 H47 1_555 1_555
H48 C42 1_555 1_555
C43 N21 1_555 1_555
C44 H49 1_555 1_555
C45 C44 1_555 1_555
H50 C45 1_555 1_555
C46 N23 1_555 1_555
C47 H51 1_555 1_555
H52 C47 1_555 1_555
C48 H53 1_555 1_555
H54 C48 1_555 1_555
C49 N25 1_555 1_555
C50 H55 1_555 1_555
C51 C50 1_555 1_555
H56 C51 1_555 1_555
C52 N27 1_555 1_555
C53 H57 1_555 1_555
H58 C53 1_555 1_555
C54 H59 1_555 1_555
H60 C54 1_555 1_555
C55 C20 1_555 1_555
H61 C55 1_555 1_555
H62 C55 1_555 1_555
H63 C55 1_555 1_555
C56 H64 1_555 1_555
H65 C56 1_555 1_555
H66 C56 1_555 1_555
C57 C38 1_555 1_555
H67 C57 1_555 1_555
H68 C57 1_555 1_555
H69 C57 1_555 1_555
C58 H70 1_555 1_555
H71 C58 1_555 1_555
H72 C58 1_555 1_555
N5 C20 1_555 1_555
N6 C19 1_555 1_555
N7 C20 1_555 1_555
N8 C21 1_555 1_555
N9 C23 1_555 1_555
N10 C25 1_555 1_555
N11 C24 1_555 1_555
N12 C27 1_555 1_555
N13 C29 1_555 1_555
N14 C31 1_555 1_555
N15 C30 1_555 1_555
N16 C33 1_555 1_555
N17 C35 1_555 1_555
N18 C37 1_555 1_555
N19 C36 1_555 1_555
N20 C39 1_555 1_555
N21 C41 1_555 1_555
N22 C43 1_555 1_555
N23 C42 1_555 1_555
N24 C45 1_555 1_555
N25 C47 1_555 1_555
N26 C49 1_555 1_555
N27 C48 1_555 1_555
N28 C51 1_555 1_555
O2 C19 1_555 1_555
O3 C25 1_555 1_555
O4 C31 1_555 1_555
O5 C37 1_555 1_555
O6 C43 1_555 1_555
O7 C49 1_555 1_555
O8 C22 1_555 1_555
O9 C28 1_555 1_555
O10 C34 1_555 1_555
O11 C40 1_555 1_555
O12 C46 1_555 1_555
O13 C52 1_555 1_555
Cd1_2 N1 1_555 1_555
N1_2 Cd1 1_555 1_555
C2 N1 1_555 1_555
C4 C5 1_555 1_555
C7 N2 1_555 1_555
C13 N4 1_555 1_555
C18 N3 1_555 1_555
C21 N6 1_555 1_555
C22 N8 1_555 1_555
C23 N6 1_555 1_555
C24 N8 1_555 1_555
C26 N9 1_555 1_555
C26 N11 1_555 1_555
C27 N10 1_555 1_555
C28 N12 1_555 1_555
C29 N10 1_555 1_555
C30 N12 1_555 1_555
C32 N13 1_555 1_555
C32 N15 1_555 1_555
C33 N14 1_555 1_555
C34 N16 1_555 1_555
C35 N14 1_555 1_555
C36 N16 1_555 1_555
C38 N17 1_555 1_555
C38 N19 1_555 1_555
C39 N18 1_555 1_555
C40 N20 1_555 1_555
C41 N18 1_555 1_555
C42 N20 1_555 1_555
C44 N21 1_555 1_555
C44 N23 1_555 1_555
C45 N22 1_555 1_555
C46 N24 1_555 1_555
C47 N22 1_555 1_555
C48 N24 1_555 1_555
C50 N25 1_555 1_555
C50 N27 1_555 1_555
C51 N26 1_555 1_555
C52 N28 1_555 1_555
C53 N5 1_555 1_555
C53 N26 1_555 1_555
C54 N7 1_555 1_555
C54 N28 1_555 1_555

#END
