
#######################################################################
#
#                 Cambridge Crystallographic Data Centre
#                                CCDC 
#
#######################################################################
#
# If this CIF has been generated from an entry in the Cambridge 
# Structural Database, then it will include bibliographic, chemical, 
# crystal, experimental, refinement or atomic coordinate data resulting 
# from the CCDC's data processing and validation procedures.
#
#######################################################################

data_FOQNIJ
_symmetry_cell_setting           monoclinic
_symmetry_space_group_name_H-M   'P 21/c'
_symmetry_Int_Tables_number      14
_space_group_name_Hall           '-P 2ybc'
loop_
_symmetry_equiv_pos_site_id
_symmetry_equiv_pos_as_xyz
1 x,y,z
2 -x,1/2+y,1/2-z
3 -x,-y,-z
4 x,1/2-y,1/2+z
_cell_length_a                   4.4691(9)
_cell_length_b                   15.385(3)
_cell_length_c                   14.136(3)
_cell_angle_alpha                90
_cell_angle_beta                 93.75(3)
_cell_angle_gamma                90
_cell_volume                     969.869
loop_
_atom_site_label
_atom_site_type_symbol
_atom_site_fract_x
_atom_site_fract_y
_atom_site_fract_z
Pb1 Pb 0.26731(9) 0.61604(3) 0.06477(3)
I1 I -0.18975(18) 0.64193(7) 0.21947(6)
I2 I -0.25651(16) 0.60159(5) -0.10572(5)
C1 C 0.278(3) 0.8145(7) -0.0410(8)
H1 H 0.2071 0.7788 -0.0906
C2 C 0.367(3) 0.8996(7) -0.0630(8)
H2 H 0.3687 0.9177 -0.1258
C3 C 0.372(3) 0.8358(8) 0.1136(8)
H3 H 0.3826 0.8139 0.1750
C4 C 0.446(3) 0.9225(8) 0.1009(8)
H4 H 0.4922 0.9583 0.1529
C5 C 0.451(3) 0.9548(7) 0.0092(7)
N1 N 0.288(2) 0.7830(6) 0.0439(6)
Pb1_2 Pb 1.26731(9) 0.61604(3) 0.06477(3)
Pb1_3 Pb -0.73269(9) 0.61604(3) 0.06477(3)
Pb1B Pb -0.26731(9) 0.38396(3) -0.06477(3)
Pb1B_2 Pb 0.73269(9) 1.38396(3) -0.06477(3)
Pb1B_3 Pb 0.73269(9) 0.38396(3) -0.06477(3)
I1_2 I 0.81025(18) 0.64193(7) 0.21947(6)
I1_3 I 1.81025(18) 0.64193(7) 0.21947(6)
I2_2 I 0.74349(16) 0.60159(5) -0.10572(5)
I2B I 0.25651(16) 0.39841(5) 0.10572(5)
I2_3 I 1.74349(16) 0.60159(5) -0.10572(5)
I2B_2 I 1.25651(16) 0.39841(5) 0.10572(5)
C1B C 0.722(3) 1.1855(7) 0.0410(8)
H1B H 0.7929 1.2212 0.0906
C2B C 0.633(3) 1.1004(7) 0.0630(8)
H2B H 0.6313 1.0823 0.1258
C3B C 0.628(3) 1.1642(8) -0.1136(8)
H3B H 0.6174 1.1861 -0.1750
C4B C 0.554(3) 1.0775(8) -0.1009(8)
H4B H 0.5078 1.0417 -0.1529
C5B C 0.549(3) 1.0452(7) -0.0092(7)
N1B N 0.712(2) 1.2170(6) -0.0439(6)
N1_2 N 1.288(2) 0.7830(6) 0.0439(6)
loop_
_geom_bond_atom_site_label_1
_geom_bond_atom_site_label_2
_geom_bond_site_symmetry_1
_geom_bond_site_symmetry_2
Pb1 I1 1_555 1_555
I1 Pb1_3 1_555 1_555
I2 Pb1 1_555 1_555
C1 H1 1_555 1_555
C2 C1 1_555 1_555
H2 C2 1_555 1_555
C3 H3 1_555 1_555
C4 C3 1_555 1_555
H4 C4 1_555 1_555
C5 C2 1_555 1_555
N1 Pb1 1_555 1_555
Pb1_2 I1_2 1_555 1_555
Pb1_3 I2 1_555 1_555
Pb1B I2 1_555 1_555
Pb1B_2 N1B 1_555 1_555
Pb1B_3 I2_2 1_555 1_555
I1_2 Pb1 1_555 1_555
I1_3 Pb1_2 1_555 1_555
I2_2 Pb1 1_555 1_555
I2B Pb1 1_555 1_555
I2_3 Pb1_2 1_555 1_555
I2B_2 Pb1_2 1_555 1_555
C1B H1B 1_555 1_555
C2B C1B 1_555 1_555
H2B C2B 1_555 1_555
C3B H3B 1_555 1_555
C4B C3B 1_555 1_555
H4B C4B 1_555 1_555
C5B C5 1_555 1_555
N1B C1B 1_555 1_555
N1_2 Pb1_2 1_555 1_555
C1 N1 1_555 1_555
C3 N1 1_555 1_555
C4 C5 1_555 1_555
Pb1_2 I2_2 1_555 1_555
Pb1B I2B 1_555 1_555
Pb1B_3 I2B 1_555 1_555
Pb1B_3 I2B_2 1_555 1_555
C2B C5B 1_555 1_555
C3B N1B 1_555 1_555
C4B C5B 1_555 1_555

#END
