
#######################################################################
#
#                 Cambridge Crystallographic Data Centre
#                                CCDC 
#
#######################################################################
#
# If this CIF has been generated from an entry in the Cambridge 
# Structural Database, then it will include bibliographic, chemical, 
# crystal, experimental, refinement or atomic coordinate data resulting 
# from the CCDC's data processing and validation procedures.
#
#######################################################################

data_FOQNAC
_symmetry_cell_setting           monoclinic
_symmetry_space_group_name_H-M   'P 21'
_symmetry_Int_Tables_number      4
_space_group_name_Hall           'P 2yb'
loop_
_symmetry_equiv_pos_site_id
_symmetry_equiv_pos_as_xyz
1 x,y,z
2 -x,1/2+y,-z
_cell_length_a                   8.5695(8)
_cell_length_b                   11.3027(10)
_cell_length_c                   21.867(2)
_cell_angle_alpha                90
_cell_angle_beta                 92.817(6)
_cell_angle_gamma                90
_cell_volume                     2115.45
loop_
_atom_site_label
_atom_site_type_symbol
_atom_site_fract_x
_atom_site_fract_y
_atom_site_fract_z
Cu1 Cu 0.80465(12) 0.92155(10) 0.16183(5)
O1 O 0.7308(8) 0.7792(6) 0.1997(3)
O2 O 0.9486(11) 0.8504(11) 0.0727(4)
N1 N 0.1472(9) 0.5919(8) 0.8567(3)
N2 N -0.0194(9) 0.4212(8) 0.8019(3)
N3 N 0.3820(9) 0.4472(8) 0.8919(4)
C1 C 0.6940(11) 0.7943(8) 0.2550(4)
Cl1 Cl 0.9122(4) 0.8223(3) 0.01195(15)
O3 O 0.7097(8) 0.8863(6) 0.2832(3)
C2 C 0.6222(11) 0.6825(8) 0.2817(4)
O4 O 1.0306(16) 0.832(3) -0.0224(7)
O5 O 0.876(4) 0.708(3) 0.0019(16)
O6 O 0.811(3) 0.918(3) -0.0133(10)
O7 O 0.5764(8) 0.7057(6) 0.3420(3)
H1 H 0.5321 0.6582 0.2562
H2 H 0.698 0.6187 0.2824
C3 C 0.5303(13) 0.6009(8) 0.3710(4)
H3 H 0.6081 0.5399 0.3655
H4 H 0.432 0.5736 0.3521
C4 C 0.5114(11) 0.6210(8) 0.4394(5)
Cu2 Cu 0.43441(13) 0.58194(9) 0.55255(5)
O8 O 0.5315(9) 0.7207(6) 0.4630(3)
O9 O 0.4727(7) 0.5285(6) 0.4682(3)
O10 O 0.3400(8) 0.4172(6) 0.5884(3)
N4 N 0.4379(9) 0.7115(7) 0.6194(4)
N5 N 0.2263(10) 0.6489(7) 0.5304(4)
N6 N 0.6497(9) 0.5523(6) 0.5870(4)
H5 H 0.3922 0.3586 0.5756
H6 H 0.2444 0.4096 0.5762
C5 C 0.3296(12) 0.8030(8) 0.5956(5)
C6 C 0.3837(12) 0.6579(8) 0.6777(4)
C7 C 0.6034(11) 0.7490(9) 0.6236(5)
C8 C 0.1952(12) 0.7514(8) 0.5578(4)
C9 C 0.1193(11) 0.6012(9) 0.4932(5)
C10 C 0.7076(12) 0.6390(9) 0.6217(5)
C11 C 0.7353(13) 0.4528(10) 0.5800(5)
H7 H 0.3858 0.8582 0.5708
H8 H 0.2894 0.8466 0.6297
H9 H 0.4463 0.5882 0.6873
H10 H 0.2762 0.6323 0.6709
C12 C 0.3932(13) 0.7409(9) 0.7334(4)
H11 H 0.6253 0.7919 0.6614
H12 H 0.6245 0.801 0.5897
C13 C 0.0550(13) 0.8080(9) 0.5495(5)
C14 C -0.0278(14) 0.6520(10) 0.4822(5)
H13 H 0.1423 0.531 0.4734
C15 C 0.8522(13) 0.6336(11) 0.6525(5)
C16 C 0.8809(12) 0.4414(10) 0.6082(5)
H14 H 0.6947 0.3914 0.5558
H15 H 0.3194 0.8053 0.7272
H16 H 0.4973 0.7744 0.7383
C17 C 0.3556(11) 0.6718(10) 0.7915(4)
H17 H 0.0374 0.8795 0.569
C18 C -0.0628(13) 0.7564(10) 0.5107(5)
H18 H -0.1015 0.6156 0.4559
H19 H 0.8906 0.6945 0.6775
C19 C 0.9353(13) 0.5314(11) 0.6434(5)
H20 H 0.9403 0.3736 0.6031
C20 C 0.1820(11) 0.6705(9) 0.8024(4)
H21 H 0.3922 0.591 0.7877
H22 H 0.4114 0.7072 0.8265
H23 H -0.1604 0.7916 0.5047
H24 H 1.0341 0.5242 0.6626
H25 H 0.1249 0.6417 0.766
H26 H 0.147 0.7505 0.8102
C21 C -0.0274(11) 0.5974(10) 0.8643(5)
C22 C 0.2402(12) 0.6247(10) 0.9137(5)
H27 H -0.0653 0.677 0.8563
H28 H -0.0505 0.5764 0.9059
C23 C -0.1068(11) 0.5115(9) 0.8197(5)
H29 H 0.267 0.708 0.9121
H30 H 0.177 0.6126 0.9487
C24 C 0.3846(12) 0.5543(10) 0.9215(4)
C25 C -0.2590(11) 0.5249(10) 0.7999(5)
C26 C 0.5115(13) 0.5837(13) 0.9586(5)
C27 C -0.0848(12) 0.3352(9) 0.7657(5)
C28 C 0.5017(13) 0.3708(12) 0.9009(5)
H31 H -0.316 0.591 0.8107
C29 C -0.3278(12) 0.4354(11) 0.7623(5)
H32 H 0.5165 0.6577 0.9773
C30 C 0.6326(13) 0.5040(14) 0.9686(6)
C31 C -0.2402(13) 0.3437(11) 0.7464(5)
H33 H -0.0253 0.2709 0.7541
C32 C 0.6288(14) 0.4010(15) 0.9389(6)
H34 H 0.4986 0.2976 0.8815
H35 H -0.4322 0.4404 0.7488
H36 H 0.716 0.5221 0.9959
H37 H -0.2848 0.2843 0.7218
H38 H 0.7126 0.349 0.9437
Cu1A Cu 0.19535(12) 0.42155(10) 0.83817(5)
N1A N 0.8528(9) 1.0919(8) 0.1433(3)
N2A N 1.0194(9) 0.9212(8) 0.1981(3)
N3A N 0.6180(9) 0.9472(8) 0.1081(4)
Cl2 Cl 0.0561(4) 0.5073(4) 0.31548(18)
O11 O 0.1285(15) 0.5568(13) 0.2671(6)
O12 O -0.041(3) 0.407(2) 0.2879(10)
O13 O -0.062(3) 0.561(2) 0.3375(11)
O14 O 0.1648(10) 0.4628(9) 0.3594(4)
O15 O 0.340(5) 0.526(3) 0.1358(17)
O16 O 0.219(3) 0.312(2) 0.2149(11)
N7 N 0.680(3) 0.464(2) 0.1380(12)
C33 C 0.809(3) 0.502(2) 0.1360(10)
C34 C 0.939(3) 0.548(2) 0.1331(11)
H39 H 0.9277 0.6325 0.1331
H40 H 0.985 0.5234 0.096
H41 H 1.0043 0.5239 0.1677
O17? O 0.768(3) 0.784(3) 0.0030(13)
loop_
_geom_bond_atom_site_label_1
_geom_bond_atom_site_label_2
_geom_bond_site_symmetry_1
_geom_bond_site_symmetry_2
Cu1 O1 1_555 1_555
O1 C1 1_555 1_555
O2 Cu1 1_555 1_555
N1 C20 1_555 1_555
N2 C23 1_555 1_555
N3 C24 1_555 1_555
C1 O3 1_555 1_555
Cl1 O2 1_555 1_555
C2 C1 1_555 1_555
O4 Cl1 1_555 1_555
O5 Cl1 1_555 1_555
O6 Cl1 1_555 1_555
O7 C2 1_555 1_555
H1 C2 1_555 1_555
H2 C2 1_555 1_555
C3 O7 1_555 1_555
H3 C3 1_555 1_555
H4 C3 1_555 1_555
C4 C3 1_555 1_555
Cu2 O8 1_555 1_555
O8 C4 1_555 1_555
O9 C4 1_555 1_555
O10 Cu2 1_555 1_555
N4 Cu2 1_555 1_555
N5 Cu2 1_555 1_555
N6 Cu2 1_555 1_555
H5 O10 1_555 1_555
H6 O10 1_555 1_555
C5 N4 1_555 1_555
C6 N4 1_555 1_555
C7 N4 1_555 1_555
C8 N5 1_555 1_555
C9 N5 1_555 1_555
C10 N6 1_555 1_555
C11 N6 1_555 1_555
H7 C5 1_555 1_555
H8 C5 1_555 1_555
H9 C6 1_555 1_555
H10 C6 1_555 1_555
C12 C6 1_555 1_555
H11 C7 1_555 1_555
H12 C7 1_555 1_555
C13 C8 1_555 1_555
C14 C9 1_555 1_555
H13 C9 1_555 1_555
C15 C10 1_555 1_555
C16 C11 1_555 1_555
H14 C11 1_555 1_555
H15 C12 1_555 1_555
H16 C12 1_555 1_555
C17 C12 1_555 1_555
H17 C13 1_555 1_555
C18 C13 1_555 1_555
H18 C14 1_555 1_555
H19 C15 1_555 1_555
C19 C15 1_555 1_555
H20 C16 1_555 1_555
C20 C17 1_555 1_555
H21 C17 1_555 1_555
H22 C17 1_555 1_555
H23 C18 1_555 1_555
H24 C19 1_555 1_555
H25 C20 1_555 1_555
H26 C20 1_555 1_555
C21 N1 1_555 1_555
C22 N1 1_555 1_555
H27 C21 1_555 1_555
H28 C21 1_555 1_555
C23 C21 1_555 1_555
H29 C22 1_555 1_555
H30 C22 1_555 1_555
C24 C22 1_555 1_555
C25 C23 1_555 1_555
C26 C24 1_555 1_555
C27 N2 1_555 1_555
C28 N3 1_555 1_555
H31 C25 1_555 1_555
C29 C25 1_555 1_555
H32 C26 1_555 1_555
C30 C26 1_555 1_555
C31 C27 1_555 1_555
H33 C27 1_555 1_555
C32 C28 1_555 1_555
H34 C28 1_555 1_555
H35 C29 1_555 1_555
H36 C30 1_555 1_555
H37 C31 1_555 1_555
H38 C32 1_555 1_555
Cl2 O11 1_555 1_555
O12 Cl2 1_555 1_555
O13 Cl2 1_555 1_555
O14 Cl2 1_555 1_555
N7 C33 1_555 1_555
C33 C34 1_555 1_555
C34 H39 1_555 1_555
H40 C34 1_555 1_555
H41 C34 1_555 1_555
Cu1A N1 1_555 1_555
N1A Cu1 1_555 1_555
N2A Cu1 1_555 1_555
N3A Cu1 1_555 1_555
N2 Cu1A 1_555 1_555
N3 Cu1A 1_555 1_555
Cu2 O9 1_555 1_555
C5 C8 1_555 1_555
C7 C10 1_555 1_555
C14 C18 1_555 1_555
C16 C19 1_555 1_555
C29 C31 1_555 1_555
C30 C32 1_555 1_555

#END
