
#######################################################################
#
#                 Cambridge Crystallographic Data Centre
#                                CCDC 
#
#######################################################################
#
# If this CIF has been generated from an entry in the Cambridge 
# Structural Database, then it will include bibliographic, chemical, 
# crystal, experimental, refinement or atomic coordinate data resulting 
# from the CCDC's data processing and validation procedures.
#
#######################################################################

data_FOQQIL
_symmetry_cell_setting           monoclinic
_symmetry_space_group_name_H-M   'P 21/a'
_symmetry_Int_Tables_number      14
_space_group_name_Hall           '-P 2yab'
loop_
_symmetry_equiv_pos_site_id
_symmetry_equiv_pos_as_xyz
1 x,y,z
2 1/2+x,1/2-y,z
3 -x,-y,-z
4 1/2-x,1/2+y,-z
_cell_length_a                   13.357(2)
_cell_length_b                   15.0460(10)
_cell_length_c                   15.369(2)
_cell_angle_alpha                90.00
_cell_angle_beta                 97.600(10)
_cell_angle_gamma                90.00
_cell_volume                     3061.57
loop_
_atom_site_label
_atom_site_type_symbol
_atom_site_fract_x
_atom_site_fract_y
_atom_site_fract_z
Cd1 Cd 0.19140(4) 0.49879(3) 0.20859(3)
S1 S 0.12710(15) 0.61330(14) 0.40829(13)
S2 S 0.16058(15) 0.38868(15) -0.00355(13)
O1 O 0.0696(4) 0.6694(4) 0.3414(4)
O2 O 0.1127(5) 0.4433(5) -0.0747(4)
O3 O 0.0689(5) 0.5699(5) 0.4698(4)
O4 O 0.0916(5) 0.3351(4) 0.0371(5)
O5 O 0.0618(6) 0.3939(5) 0.2019(4)
H1 H -0.008(10) 0.411(7) 0.213(7)
H2 H 0.085(8) 0.355(8) 0.162(7)
N1 N 0.1824(5) 0.5421(5) 0.3528(4)
N2 N 0.2215(5) 0.4445(5) 0.0727(4)
N3 N 0.2846(6) 0.4810(5) 0.4776(5)
N4 N 0.3268(4) 0.5516(4) 0.1313(4)
N5 N 0.2932(5) 0.4402(4) 0.3277(4)
N6 N 0.3263(6) 0.5158(4) -0.0202(5)
N7 N 0.4439(6) 0.8426(6) 0.6005(5)
H7 H 0.4852 0.8698 0.5712
H8 H 0.4479 0.8501 0.6563
N8 N 0.4121(5) 0.1221(4) -0.1588(5)
H9 H 0.4161 0.1231 -0.2142
H10 H 0.4394 0.0793 -0.1270
C1 C 0.2212(6) 0.6773(5) 0.4689(5)
C2 C 0.2436(5) 0.3170(5) -0.0490(5)
C3 C 0.2899(7) 0.7223(6) 0.4236(5)
H11 H 0.2851 0.7168 0.3629
C4 C 0.2913(7) 0.2487(6) 0.0043(5)
H12 H 0.2838 0.2464 0.0636
C5 C 0.2567(6) 0.4857(5) 0.3908(5)
C6 C 0.2943(6) 0.5057(5) 0.0576(5)
C7 C 0.3644(6) 0.7746(5) 0.4676(5)
H13 H 0.4111 0.8023 0.4368
C8 C 0.3496(6) 0.1847(6) -0.0313(5)
H14 H 0.3803 0.1391 0.0034
C9 C 0.3651(8) 0.4269(7) 0.5001(7)
C10 C 0.4010(5) 0.6118(5) 0.1267(5)
C11 C 0.3705(6) 0.7865(6) 0.5575(6)
C12 C 0.3608(5) 0.1907(5) -0.1201(5)
C13 C 0.4124(8) 0.3808(7) 0.4415(7)
H15 H 0.4695 0.3470 0.4602
C14 C 0.4374(6) 0.6268(6) 0.0473(6)
H16 H 0.4868 0.6695 0.0428
C15 C 0.3025(6) 0.7388(6) 0.6029(6)
H17 H 0.3079 0.7423 0.6637
C16 C 0.3162(6) 0.2605(5) -0.1714(5)
H18 H 0.3261 0.2649 -0.2301
C17 C 0.3743(7) 0.3850(6) 0.3533(6)
C18 C 0.3990(7) 0.5777(6) -0.0236(6)
C19 C 0.2298(7) 0.6883(6) 0.5583(5)
H19 H 0.1838 0.6598 0.5892
C20 C 0.2578(6) 0.3229(6) -0.1359(5)
H20 H 0.2279 0.3688 -0.1706
C21 C 0.3994(10) 0.4233(10) 0.5986(7)
H21 H 0.4005 0.4823 0.6224
H22 H 0.4659 0.3981 0.6092
H23 H 0.3534 0.3872 0.6262
C22 C 0.4355(6) 0.6619(6) 0.2101(6)
H24 H 0.3788 0.6913 0.2297
H25 H 0.4852 0.7052 0.1993
H26 H 0.4646 0.6211 0.2544
C23 C 0.4147(10) 0.3344(9) 0.2812(7)
H27 H 0.3609 0.3229 0.2346
H28 H 0.4428 0.2790 0.3039
H29 H 0.4662 0.3688 0.2589
C24 C 0.4312(9) 0.5931(10) -0.1150(7)
H30 H 0.4402 0.5369 -0.1425
H31 H 0.4936 0.6256 -0.1090
H32 H 0.3799 0.6266 -0.1506
N8C N 0.0879(5) 0.6221(4) 0.1588(5)
Cd1C Cd 0.30860(4) -0.00121(3) -0.20859(3)
H9C H 0.0839 0.6231 0.2142
H10C H 0.0606 0.5793 0.1270
O6 O 0.8551(10) 0.5225(8) 0.3638(7)
H3 H 0.922(12) 0.521(9) 0.327(11)
H4 H 0.837(16) 0.490(11) 0.348(14)
O7 O 0.8596(8) 0.4239(8) 0.2089(8)
H5 H 0.897(15) 0.437(14) 0.230(13)
H6 H 0.847(11) 0.460(11) 0.152(10)
loop_
_geom_bond_atom_site_label_1
_geom_bond_atom_site_label_2
_geom_bond_site_symmetry_1
_geom_bond_site_symmetry_2
Cd1 O5 1_555 1_555
S1 O1 1_555 1_555
S2 O2 1_555 1_555
O3 S1 1_555 1_555
O4 S2 1_555 1_555
O5 H1 1_555 1_555
H2 O5 1_555 1_555
O6 H3 1_555 1_555
H4 O6 1_555 1_555
O7 H5 1_555 1_555
H6 O7 1_555 1_555
N1 Cd1 1_555 1_555
N2 Cd1 1_555 1_555
N3 C5 1_555 1_555
N4 Cd1 1_555 1_555
N5 Cd1 1_555 1_555
N6 C6 1_555 1_555
N7 H7 1_555 1_555
H8 N7 1_555 1_555
N8 H9 1_555 1_555
H10 N8 1_555 1_555
C1 S1 1_555 1_555
C2 S2 1_555 1_555
C3 C1 1_555 1_555
H11 C3 1_555 1_555
C4 C2 1_555 1_555
H12 C4 1_555 1_555
C5 N1 1_555 1_555
C6 N2 1_555 1_555
C7 C3 1_555 1_555
H13 C7 1_555 1_555
C8 C4 1_555 1_555
H14 C8 1_555 1_555
C9 N3 1_555 1_555
C10 N4 1_555 1_555
C11 N7 1_555 1_555
C12 N8 1_555 1_555
C13 C9 1_555 1_555
H15 C13 1_555 1_555
C14 C10 1_555 1_555
H16 C14 1_555 1_555
C15 C11 1_555 1_555
H17 C15 1_555 1_555
C16 C12 1_555 1_555
H18 C16 1_555 1_555
C17 N5 1_555 1_555
C18 N6 1_555 1_555
C19 C1 1_555 1_555
H19 C19 1_555 1_555
C20 C2 1_555 1_555
H20 C20 1_555 1_555
C21 C9 1_555 1_555
H21 C21 1_555 1_555
H22 C21 1_555 1_555
H23 C21 1_555 1_555
C22 C10 1_555 1_555
H24 C22 1_555 1_555
H25 C22 1_555 1_555
H26 C22 1_555 1_555
C23 C17 1_555 1_555
H27 C23 1_555 1_555
H28 C23 1_555 1_555
H29 C23 1_555 1_555
C24 C18 1_555 1_555
H30 C24 1_555 1_555
H31 C24 1_555 1_555
H32 C24 1_555 1_555
N8C Cd1 1_555 1_555
Cd1C N8 1_555 1_555
H9C N8C 1_555 1_555
H10C N8C 1_555 1_555
S1 N1 1_555 1_555
S2 N2 1_555 1_555
N4 C6 1_555 1_555
N5 C5 1_555 1_555
C7 C11 1_555 1_555
C8 C12 1_555 1_555
C13 C17 1_555 1_555
C14 C18 1_555 1_555
C15 C19 1_555 1_555
C16 C20 1_555 1_555

#END
