
#######################################################################
#
#                 Cambridge Crystallographic Data Centre
#                                CCDC 
#
#######################################################################
#
# If this CIF has been generated from an entry in the Cambridge 
# Structural Database, then it will include bibliographic, chemical, 
# crystal, experimental, refinement or atomic coordinate data resulting 
# from the CCDC's data processing and validation procedures.
#
#######################################################################

data_FOQRUA
_symmetry_cell_setting           trigonal
_symmetry_space_group_name_H-M   'P 31 2 1'
_symmetry_Int_Tables_number      152
_space_group_name_Hall           'P 31 2"'
loop_
_symmetry_equiv_pos_site_id
_symmetry_equiv_pos_as_xyz
1 x,y,z
2 -y,x-y,1/3+z
3 -x+y,-x,2/3+z
4 y,x,-z
5 x-y,-y,2/3-z
6 -x,-x+y,1/3-z
_cell_length_a                   10.136(3)
_cell_length_b                   10.136(3)
_cell_length_c                   26.725(7)
_cell_angle_alpha                90
_cell_angle_beta                 90
_cell_angle_gamma                120
_cell_volume                     2377.83
loop_
_atom_site_label
_atom_site_type_symbol
_atom_site_fract_x
_atom_site_fract_y
_atom_site_fract_z
Cu1 Cu 0.66742(8) 0.29043(8) 0.83945(2)
N1 N 0.7829(6) 0.1997(6) 0.87051(16)
N2 N 1.1864(7) -0.1329(7) 0.9723(2)
C1 C 0.9319(7) 0.2599(7) 0.8628(2)
H1 H 0.9838 0.3508 0.8437
C2 C 1.0144(7) 0.1952(7) 0.8815(2)
H2 H 1.1210 0.2417 0.8758
C3 C 0.9377(7) 0.0609(7) 0.9088(2)
C4 C 0.7835(7) -0.0006(7) 0.9162(2)
H3 H 0.7279 -0.0930 0.9344
C5 C 0.7100(7) 0.0715(7) 0.8973(2)
H4 H 0.6041 0.0289 0.9035
C6 C 1.0425(9) -0.2234(8) 0.9582(3)
H5 H 0.9968 -0.3303 0.9628
C7 C 0.9566(8) -0.1633(8) 0.9366(2)
H6 H 0.8540 -0.2283 0.9265
C8 C 1.0252(7) -0.0091(7) 0.9306(3)
C9 C 1.1754(9) 0.0827(8) 0.9450(4)
H7 H 1.2243 0.1900 0.9407
C10 C 1.2543(9) 0.0162(9) 0.9658(4)
H8 H 1.3578 0.0786 0.9753
O1 O 0.5201(5) 0.3306(6) 0.80294(16)
H9 H 0.535(9) 0.379(8) 0.772(2)
H10 H 0.501(18) 0.396(14) 0.822(4)
O2 O 0.4112(12) 0.0000 0.8333
C11 C 0.275(3) 0.0000 0.8333
C12 C 0.5432(6) 0.4451(6) 0.95929(17)
C13 C 0.4619(6) 0.5194(6) 0.95162(17)
C14 C 0.4102(6) 0.5676(6) 0.99193(17)
C15 C 0.6115(6) 0.4080(6) 0.9137(2)
C16 C 0.4303(6) 0.5499(7) 0.89880(18)
C17 C 0.3140(7) 0.6407(7) 0.98307(19)
O3 O 0.5589(5) 0.2723(5) 0.90320(15)
O4 O 0.7117(5) 0.5168(5) 0.89028(15)
O5 O 0.4532(4) 0.6840(5) 0.89100(13)
O6 O 0.3863(4) 0.4469(5) 0.86715(14)
O7 O 0.1939(5) 0.5658(5) 0.95918(16)
O8 O 0.3633(6) 0.7713(6) 1.00166(16)
H11 H 0.273(9) 0.821(8) 0.986(2)
C12C C 0.4451(6) 0.5432(6) 1.04071(17)
C13C C 0.5194(6) 0.4619(6) 1.04838(17)
C14C C 0.5676(6) 0.4102(6) 1.00807(17)
C15C C 0.4080(6) 0.6115(6) 1.0863(2)
C16C C 0.5499(7) 0.4303(6) 1.10120(18)
C17C C 0.6407(7) 0.3140(7) 1.01693(19)
O3C O 0.2723(5) 0.5589(5) 1.09680(15)
O4C O 0.5168(5) 0.7117(5) 1.10972(15)
O5C O 0.6840(5) 0.4532(4) 1.10900(13)
O6C O 0.4469(5) 0.3863(4) 1.13285(14)
O7C O 0.5658(5) 0.1939(5) 1.04082(16)
O8C O 0.7713(6) 0.3633(6) 0.99834(16)
H11C H 0.821(8) 0.273(9) 1.014(2)
Cu1C Cu 0.29043(8) 0.66742(8) 1.16055(2)
N1C N 0.1997(6) 0.7829(6) 1.12949(16)
N2C N -0.1329(7) 1.1864(7) 1.0277(2)
C1C C 0.2599(7) 0.9319(7) 1.1372(2)
H1C H 0.3508 0.9838 1.1563
C2C C 0.1952(7) 1.0144(7) 1.1185(2)
H2C H 0.2417 1.1210 1.1242
C3C C 0.0609(7) 0.9377(7) 1.0912(2)
C4C C -0.0006(7) 0.7835(7) 1.0838(2)
H3C H -0.0930 0.7279 1.0656
C5C C 0.0715(7) 0.7100(7) 1.1027(2)
H4C H 0.0289 0.6041 1.0965
C6C C -0.2234(8) 1.0425(9) 1.0418(3)
H5C H -0.3303 0.9968 1.0372
C7C C -0.1633(8) 0.9566(8) 1.0634(2)
H6C H -0.2283 0.8540 1.0735
C8C C -0.0091(7) 1.0252(7) 1.0694(3)
C9C C 0.0827(8) 1.1754(9) 1.0550(4)
H7C H 0.1900 1.2243 1.0593
C10C C 0.0162(9) 1.2543(9) 1.0342(4)
H8C H 0.0786 1.3578 1.0247
O1C O 0.3306(6) 0.5201(5) 1.19706(16)
H9C H 0.379(8) 0.535(9) 1.228(2)
H10C H 0.396(14) 0.501(18) 1.178(4)
Cu1A Cu 0.70957(8) 0.37699(11) 1.17278(2)
Cu1D Cu 0.37699(11) -0.29043(8) 0.82722(2)
Cu1D_2 Cu 0.37699(11) 0.70957(8) 0.82722(2)
O2A O 0.0000 0.4112(12) 1.1666
O5A O 0.3160(5) 0.7692(6) 1.22433(13)
O5D O 0.7692(6) 0.3160(5) 0.77567(13)
loop_
_geom_bond_atom_site_label_1
_geom_bond_atom_site_label_2
_geom_bond_site_symmetry_1
_geom_bond_site_symmetry_2
Cu1 N1 1_555 1_555
N1 C1 1_555 1_555
N2 C6 1_555 1_555
C1 H1 1_555 1_555
C2 C1 1_555 1_555
H2 C2 1_555 1_555
C3 C2 1_555 1_555
C4 C3 1_555 1_555
H3 C4 1_555 1_555
C5 N1 1_555 1_555
H4 C5 1_555 1_555
C6 H5 1_555 1_555
C7 C6 1_555 1_555
H6 C7 1_555 1_555
C8 C3 1_555 1_555
C9 C8 1_555 1_555
H7 C9 1_555 1_555
C10 N2 1_555 1_555
H8 C10 1_555 1_555
O1 Cu1 1_555 1_555
H9 O1 1_555 1_555
H10 O1 1_555 1_555
O2 Cu1 1_555 1_555
C11 O2 1_555 1_555
C12 C13 1_555 1_555
C13 C14 1_555 1_555
C14 C17 1_555 1_555
C15 C12 1_555 1_555
C16 C13 1_555 1_555
C17 O7 1_555 1_555
O3 Cu1 1_555 1_555
O4 Cu1 1_555 1_555
O5 C16 1_555 1_555
O6 C16 1_555 1_555
O8 C17 1_555 1_555
H11 O8 1_555 1_555
C12C C14 1_555 1_555
C13C C12C 1_555 1_555
C14C C12 1_555 1_555
C15C C12C 1_555 1_555
C16C C13C 1_555 1_555
C17C C14C 1_555 1_555
O3C C15C 1_555 1_555
O4C C15C 1_555 1_555
O5C C16C 1_555 1_555
O6C C16C 1_555 1_555
O7C C17C 1_555 1_555
O8C C17C 1_555 1_555
H11C O8C 1_555 1_555
Cu1C O3C 1_555 1_555
N1C Cu1C 1_555 1_555
N2C C6C 1_555 1_555
C1C N1C 1_555 1_555
H1C C1C 1_555 1_555
C2C C1C 1_555 1_555
H2C C2C 1_555 1_555
C3C C2C 1_555 1_555
C4C C3C 1_555 1_555
H3C C4C 1_555 1_555
C5C N1C 1_555 1_555
H4C C5C 1_555 1_555
C6C H5C 1_555 1_555
C7C C6C 1_555 1_555
H6C C7C 1_555 1_555
C8C C3C 1_555 1_555
C9C C8C 1_555 1_555
H7C C9C 1_555 1_555
C10C N2C 1_555 1_555
H8C C10C 1_555 1_555
O1C Cu1C 1_555 1_555
H9C O1C 1_555 1_555
H10C O1C 1_555 1_555
Cu1A O5C 1_555 1_555
Cu1D O2 1_555 1_555
Cu1D_2 O5 1_555 1_555
O2A Cu1C 1_555 1_555
O5A Cu1C 1_555 1_555
O5D Cu1 1_555 1_555
C4 C5 1_555 1_555
C7 C8 1_555 1_555
C9 C10 1_555 1_555
C15 O3 1_555 1_555
C15 O4 1_555 1_555
C13C C14C 1_555 1_555
O4C Cu1C 1_555 1_555
C4C C5C 1_555 1_555
C7C C8C 1_555 1_555
C9C C10C 1_555 1_555

#END
