
#######################################################################
#
#                 Cambridge Crystallographic Data Centre
#                                CCDC 
#
#######################################################################
#
# If this CIF has been generated from an entry in the Cambridge 
# Structural Database, then it will include bibliographic, chemical, 
# crystal, experimental, refinement or atomic coordinate data resulting 
# from the CCDC's data processing and validation procedures.
#
#######################################################################

data_FOQRAF
_symmetry_cell_setting           monoclinic
_symmetry_space_group_name_H-M   'P 21/c'
_symmetry_Int_Tables_number      14
_space_group_name_Hall           '-P 2ybc'
loop_
_symmetry_equiv_pos_site_id
_symmetry_equiv_pos_as_xyz
1 x,y,z
2 -x,1/2+y,1/2-z
3 -x,-y,-z
4 x,1/2-y,1/2+z
_cell_length_a                   7.9495(16)
_cell_length_b                   36.011(7)
_cell_length_c                   7.3432(15)
_cell_angle_alpha                90
_cell_angle_beta                 106.07(3)
_cell_angle_gamma                90
_cell_volume                     2019.99
loop_
_atom_site_label
_atom_site_type_symbol
_atom_site_fract_x
_atom_site_fract_y
_atom_site_fract_z
C1 C 1.1263(4) 0.14790(8) 0.9821(4)
H1 H 1.1138 0.1677 1.0588
C2 C 1.2414(4) 0.11974(9) 1.0610(4)
H2 H 1.3060 0.1209 1.1876
C3 C 1.2595(4) 0.09018(9) 0.9512(4)
H3 H 1.3352 0.0708 1.0029
C4 C 1.1634(3) 0.08924(7) 0.7608(4)
C5 C 1.1772(3) 0.05872(7) 0.6351(4)
C6 C 1.2872(4) 0.00207(8) 0.5851(4)
C7 C 1.3953(4) -0.02894(8) 0.6543(5)
H4 H 1.4584 -0.0302 0.7813
C8 C 1.4061(4) -0.05685(9) 0.5336(6)
H5 H 1.4770 -0.0772 0.5793
C9 C 1.3129(5) -0.05554(9) 0.3423(6)
H6 H 1.3229 -0.0750 0.2629
C10 C 1.2071(4) -0.02600(9) 0.2698(5)
H7 H 1.1451 -0.0254 0.1423
C11 C 1.1937(4) 0.00367(8) 0.3924(4)
C12 C 1.0802(3) 0.06005(7) 0.4399(4)
C13 C 0.9667(3) 0.09171(7) 0.3682(4)
C14 C 0.8670(4) 0.09462(8) 0.1796(4)
H8 H 0.8718 0.0760 0.0935
C15 C 0.7623(4) 0.12492(8) 0.1219(4)
H9 H 0.6949 0.1272 -0.0031
C16 C 0.7587(4) 0.15225(8) 0.2540(4)
H10 H 0.6878 0.1729 0.2139
C17 C 0.9539(3) 0.12035(7) 0.4911(4)
C18 C 1.0531(3) 0.11912(7) 0.6910(4)
C19 C 0.4441(3) 0.19898(7) 0.4940(4)
C20 C 0.2943(4) 0.21960(9) 0.4228(4)
H11 H 0.1844 0.2087 0.4003
C21 C 0.3112(4) 0.25686(9) 0.3856(4)
H12 H 0.2120 0.2716 0.3439
C22 C 0.4759(4) 0.27220(8) 0.4103(4)
H13 H 0.4888 0.2972 0.3854
C23 C 0.6199(3) 0.24954(7) 0.4725(3)
C24 C 0.4555(4) 0.15877(8) 0.5614(4)
C25 C 0.8107(4) 0.25971(7) 0.4988(4)
N1 N 1.0320(3) 0.14800(6) 0.8008(3)
N2 N 0.8514(3) 0.15049(6) 0.4350(3)
N3 N 1.2782(3) 0.02996(6) 0.7069(3)
N4 N 1.0889(3) 0.03292(6) 0.3202(3)
N5 N 0.6021(3) 0.21412(6) 0.5186(3)
O1 O 0.6063(3) 0.14922(5) 0.6657(3)
O2 O 0.3238(3) 0.13929(6) 0.5115(3)
O3 O 0.9208(2) 0.23573(5) 0.5795(3)
O4 O 0.8454(3) 0.29066(5) 0.4394(3)
Fe1 Fe 0.82134(5) 0.184784(10) 0.66843(5)
O4C O 0.8454(3) 0.20934(5) 0.9394(3)
Fe1C Fe 0.82134(5) 0.315216(10) 0.16843(5)
loop_
_geom_bond_atom_site_label_1
_geom_bond_atom_site_label_2
_geom_bond_site_symmetry_1
_geom_bond_site_symmetry_2
C1 H1 1_555 1_555
C2 C1 1_555 1_555
H2 C2 1_555 1_555
C3 C2 1_555 1_555
H3 C3 1_555 1_555
C4 C3 1_555 1_555
C5 C4 1_555 1_555
C6 C7 1_555 1_555
C7 H4 1_555 1_555
C8 C7 1_555 1_555
H5 C8 1_555 1_555
C9 C8 1_555 1_555
H6 C9 1_555 1_555
C10 C9 1_555 1_555
H7 C10 1_555 1_555
C11 C6 1_555 1_555
C12 C5 1_555 1_555
C13 C12 1_555 1_555
C14 C13 1_555 1_555
H8 C14 1_555 1_555
C15 C14 1_555 1_555
H9 C15 1_555 1_555
C16 C15 1_555 1_555
H10 C16 1_555 1_555
C17 C13 1_555 1_555
C18 C4 1_555 1_555
C19 C20 1_555 1_555
C20 H11 1_555 1_555
C21 C20 1_555 1_555
H12 C21 1_555 1_555
C22 C21 1_555 1_555
H13 C22 1_555 1_555
C23 C22 1_555 1_555
C24 C19 1_555 1_555
C25 C23 1_555 1_555
N1 C1 1_555 1_555
N2 C16 1_555 1_555
N3 C5 1_555 1_555
N4 C11 1_555 1_555
N5 C19 1_555 1_555
O1 C24 1_555 1_555
O2 C24 1_555 1_555
O3 C25 1_555 1_555
O4 C25 1_555 1_555
Fe1 N1 1_555 1_555
O4C Fe1 1_555 1_555
Fe1C O4 1_555 1_555
C6 N3 1_555 1_555
C10 C11 1_555 1_555
C12 N4 1_555 1_555
C17 C18 1_555 1_555
C17 N2 1_555 1_555
C18 N1 1_555 1_555
C23 N5 1_555 1_555
N2 Fe1 1_555 1_555
N5 Fe1 1_555 1_555
O1 Fe1 1_555 1_555
O3 Fe1 1_555 1_555

#END
