
#######################################################################
#
#                 Cambridge Crystallographic Data Centre
#                                CCDC 
#
#######################################################################
#
# If this CIF has been generated from an entry in the Cambridge 
# Structural Database, then it will include bibliographic, chemical, 
# crystal, experimental, refinement or atomic coordinate data resulting 
# from the CCDC's data processing and validation procedures.
#
#######################################################################

data_FOQSIO
_symmetry_cell_setting           triclinic
_symmetry_space_group_name_H-M   'P -1'
_symmetry_Int_Tables_number      2
_space_group_name_Hall           '-P 1'
loop_
_symmetry_equiv_pos_site_id
_symmetry_equiv_pos_as_xyz
1 x,y,z
2 -x,-y,-z
_cell_length_a                   6.3012(4)
_cell_length_b                   6.7360(4)
_cell_length_c                   7.3182(5)
_cell_angle_alpha                83.084(4)
_cell_angle_beta                 71.846(3)
_cell_angle_gamma                86.448(2)
_cell_volume                     292.912
loop_
_atom_site_label
_atom_site_type_symbol
_atom_site_fract_x
_atom_site_fract_y
_atom_site_fract_z
Cu1 Cu 0.51700(5) 0.26915(4) 0.97047(4)
Br1 Br 0.25515(4) 0.45883(3) 1.24002(3)
N1 N 0.3444(3) 0.1224(3) 0.8421(3)
N2 N 0.3063(3) -0.0809(3) 0.8909(3)
N3 N 0.1078(3) 0.0380(3) 0.7030(3)
C1 C 0.2242(4) 0.1879(3) 0.7293(3)
H1 H 0.2196 0.3210 0.6742
C2 C 0.1640(4) -0.1264(3) 0.8054(3)
H2 H 0.1090 -0.2549 0.8140
C3 C -0.0511(3) 0.0499(3) 0.5916(3)
H3 H -0.0883 0.1904 0.5588
H4 H -0.1892 -0.0166 0.6696
Cu1A Cu 0.48300(5) 0.73085(4) 1.02953(4)
Cu1A_2 Cu 0.48300(5) -0.26915(4) 1.02953(4)
Cu1A_3 Cu -0.51700(5) -0.26915(4) 0.02953(4)
Cu1_2 Cu -0.48300(5) 0.26915(4) -0.02953(4)
Br1A Br 0.74485(4) 0.54117(3) 0.75998(3)
N1A N -0.3444(3) -0.1224(3) 0.1579(3)
N1A_2 N 0.6556(3) 0.8776(3) 1.1579(3)
N2A N -0.3063(3) 0.0809(3) 0.1091(3)
N2A_2 N 0.6937(3) 0.0809(3) 1.1091(3)
N2_2 N 0.3063(3) 0.9191(3) 0.8909(3)
N3A N -0.1078(3) -0.0380(3) 0.2970(3)
C1A C -0.2242(4) -0.1879(3) 0.2707(3)
H1A H -0.2196 -0.3210 0.3258
C2A C -0.1640(4) 0.1264(3) 0.1946(3)
H2A H -0.1090 0.2549 0.1860
C3A C 0.0511(3) -0.0499(3) 0.4084(3)
H3A H 0.0883 -0.1904 0.4412
H4A H 0.1892 0.0166 0.3304
loop_
_geom_bond_atom_site_label_1
_geom_bond_atom_site_label_2
_geom_bond_site_symmetry_1
_geom_bond_site_symmetry_2
Cu1 Br1 1_555 1_555
Br1 Cu1A 1_555 1_555
N1 Cu1 1_555 1_555
N2 N1 1_555 1_555
N3 C1 1_555 1_555
C1 N1 1_555 1_555
H1 C1 1_555 1_555
C2 N2 1_555 1_555
H2 C2 1_555 1_555
C3 N3 1_555 1_555
H3 C3 1_555 1_555
H4 C3 1_555 1_555
Cu1A Br1A 1_555 1_555
Cu1A_2 N2 1_555 1_555
Cu1A_3 N1A 1_555 1_555
Cu1_2 N2A 1_555 1_555
Br1A Cu1 1_555 1_555
N1A N2A 1_555 1_555
N1A_2 Cu1A 1_555 1_555
N2A C2A 1_555 1_555
N2A_2 Cu1 1_555 1_555
N2_2 Cu1A 1_555 1_555
N3A C1A 1_555 1_555
C1A N1A 1_555 1_555
H1A C1A 1_555 1_555
C2A N3A 1_555 1_555
H2A C2A 1_555 1_555
C3A C3 1_555 1_555
H3A C3A 1_555 1_555
H4A C3A 1_555 1_555
N3 C2 1_555 1_555
N3A C3A 1_555 1_555

#END
