
#######################################################################
#
#                 Cambridge Crystallographic Data Centre
#                                CCDC 
#
#######################################################################
#
# If this CIF has been generated from an entry in the Cambridge 
# Structural Database, then it will include bibliographic, chemical, 
# crystal, experimental, refinement or atomic coordinate data resulting 
# from the CCDC's data processing and validation procedures.
#
#######################################################################

data_FOQSAG
_symmetry_cell_setting           monoclinic
_symmetry_space_group_name_H-M   'C 2/c'
_symmetry_Int_Tables_number      15
_space_group_name_Hall           '-C 2yn'
loop_
_symmetry_equiv_pos_site_id
_symmetry_equiv_pos_as_xyz
1 x,y,z
2 -x,y,1/2-z
3 1/2+x,1/2+y,z
4 1/2-x,1/2+y,1/2-z
5 -x,-y,-z
6 x,-y,1/2+z
7 1/2-x,1/2-y,-z
8 1/2+x,1/2-y,1/2+z
_cell_length_a                   14.8982(19)
_cell_length_b                   9.5144(11)
_cell_length_c                   19.584(2)
_cell_angle_alpha                90
_cell_angle_beta                 106.316(2)
_cell_angle_gamma                90
_cell_volume                     2664.18
loop_
_atom_site_label
_atom_site_type_symbol
_atom_site_fract_x
_atom_site_fract_y
_atom_site_fract_z
Zn1 Zn 0.56171(3) 0.40611(5) 0.62280(2)
N1 N 0.42249(18) 0.4181(3) 0.60371(14)
N2 N 0.35804(19) 0.3697(3) 0.54267(14)
N3 N 0.28474(18) 0.4748(3) 0.61132(14)
C1 C 0.3768(2) 0.4805(4) 0.64314(18)
H1 H 0.4044 0.5232 0.6873
C2 C 0.2768(2) 0.4071(4) 0.54896(18)
H2 H 0.2197 0.3895 0.5146
C3 C 0.2137(2) 0.5429(4) 0.6384(2)
H3 H 0.2080 0.6414 0.6231
H4 H 0.2346 0.5417 0.6905
C4 C 0.1186(2) 0.4744(4) 0.6138(2)
H5 H 0.0733 0.5330 0.6286
H6 H 0.0993 0.4706 0.5617
N4 N 0.11610(18) 0.3322(3) 0.64162(14)
C5 C 0.1072(2) 0.2113(4) 0.60512(18)
H7 H 0.1072 0.2033 0.5573
N5 N 0.09842(18) 0.1066(3) 0.64558(14)
N6 N 0.1012(2) 0.1593(4) 0.71179(16)
C6 C 0.1115(3) 0.2946(4) 0.70723(19)
H8 H 0.1154 0.3581 0.7447
N7 N 0.5890(2) 0.3296(3) 0.54003(16)
C7 C 0.6063(2) 0.2657(4) 0.49467(19)
S1 S 0.62892(7) 0.17242(12) 0.43259(5)
N8 N 0.6115(2) 0.2959(4) 0.70807(17)
C8 C 0.6259(2) 0.2174(4) 0.7556(2)
S2 S 0.64691(8) 0.10848(12) 0.82142(5)
Zn1B Zn 0.06171(3) -0.09389(5) 0.62280(2)
N5B N 0.59842(18) 0.6066(3) 0.64558(14)
loop_
_geom_bond_atom_site_label_1
_geom_bond_atom_site_label_2
_geom_bond_site_symmetry_1
_geom_bond_site_symmetry_2
Zn1 N1 1_555 1_555
N1 N2 1_555 1_555
N2 C2 1_555 1_555
N3 C1 1_555 1_555
C1 N1 1_555 1_555
H1 C1 1_555 1_555
C2 N3 1_555 1_555
H2 C2 1_555 1_555
C3 N3 1_555 1_555
H3 C3 1_555 1_555
H4 C3 1_555 1_555
C4 C3 1_555 1_555
H5 C4 1_555 1_555
H6 C4 1_555 1_555
N4 C4 1_555 1_555
C5 N4 1_555 1_555
H7 C5 1_555 1_555
N5 C5 1_555 1_555
N6 N5 1_555 1_555
C6 N4 1_555 1_555
H8 C6 1_555 1_555
N7 Zn1 1_555 1_555
C7 N7 1_555 1_555
S1 C7 1_555 1_555
N8 Zn1 1_555 1_555
C8 N8 1_555 1_555
S2 C8 1_555 1_555
Zn1B N5 1_555 1_555
N5B Zn1 1_555 1_555
N6 C6 1_555 1_555

#END
