
#######################################################################
#
#                 Cambridge Crystallographic Data Centre
#                                CCDC 
#
#######################################################################
#
# If this CIF has been generated from an entry in the Cambridge 
# Structural Database, then it will include bibliographic, chemical, 
# crystal, experimental, refinement or atomic coordinate data resulting 
# from the CCDC's data processing and validation procedures.
#
#######################################################################

data_FOQSEK
_symmetry_cell_setting           triclinic
_symmetry_space_group_name_H-M   'P -1'
_symmetry_Int_Tables_number      2
_space_group_name_Hall           '-P 1'
loop_
_symmetry_equiv_pos_site_id
_symmetry_equiv_pos_as_xyz
1 x,y,z
2 -x,-y,-z
_cell_length_a                   6.4000(5)
_cell_length_b                   6.5778(6)
_cell_length_c                   7.0244(5)
_cell_angle_alpha                81.555(5)
_cell_angle_beta                 69.126(6)
_cell_angle_gamma                86.387(6)
_cell_volume                     273.29
loop_
_atom_site_label
_atom_site_type_symbol
_atom_site_fract_x
_atom_site_fract_y
_atom_site_fract_z
Cu1 Cu 0.51320(8) 0.27737(7) 0.96453(7)
Cl1 Cl 0.23205(18) 0.46081(16) 1.21854(17)
N1 N 0.3595(6) 0.1280(5) 0.8228(5)
N2 N 0.3263(6) -0.0824(5) 0.8778(5)
N3 N 0.1170(6) 0.0376(5) 0.6996(5)
C1 C 0.2346(7) 0.1948(7) 0.7150(7)
H1 H 0.2270 0.3318 0.6565
C2 C 0.1802(8) -0.1300(6) 0.8014(7)
H2 H 0.1265 -0.2632 0.8156
C3 C -0.0481(7) 0.0490(7) 0.5978(6)
H3 H -0.0875 0.1931 0.5652
H4 H -0.1843 -0.0226 0.6898
Cu1A Cu 0.48680(8) 0.72263(7) 1.03547(7)
Cu1A_2 Cu 0.48680(8) -0.27737(7) 1.03547(7)
Cu1A_3 Cu -0.51320(8) -0.27737(7) 0.03547(7)
Cu1_2 Cu -0.48680(8) 0.27737(7) -0.03547(7)
Cl1A Cl 0.76795(18) 0.53919(16) 0.78146(17)
N1A N -0.3595(6) -0.1280(5) 0.1772(5)
N1A_2 N 0.6405(6) 0.8720(5) 1.1772(5)
N2A N -0.3263(6) 0.0824(5) 0.1222(5)
N2A_2 N 0.6737(6) 0.0824(5) 1.1222(5)
N2_2 N 0.3263(6) 0.9176(5) 0.8778(5)
N3A N -0.1170(6) -0.0376(5) 0.3004(5)
C1A C -0.2346(7) -0.1948(7) 0.2850(7)
H1A H -0.2270 -0.3318 0.3435
C2A C -0.1802(8) 0.1300(6) 0.1986(7)
H2A H -0.1265 0.2632 0.1844
C3A C 0.0481(7) -0.0490(7) 0.4022(6)
H3A H 0.0875 -0.1931 0.4348
H4A H 0.1843 0.0226 0.3102
loop_
_geom_bond_atom_site_label_1
_geom_bond_atom_site_label_2
_geom_bond_site_symmetry_1
_geom_bond_site_symmetry_2
Cu1 Cl1 1_555 1_555
Cl1 Cu1A 1_555 1_555
N1 Cu1 1_555 1_555
N2 N1 1_555 1_555
N3 C1 1_555 1_555
C1 N1 1_555 1_555
H1 C1 1_555 1_555
C2 N2 1_555 1_555
H2 C2 1_555 1_555
C3 N3 1_555 1_555
H3 C3 1_555 1_555
H4 C3 1_555 1_555
Cu1A Cl1A 1_555 1_555
Cu1A_2 N2 1_555 1_555
Cu1A_3 N1A 1_555 1_555
Cu1_2 N2A 1_555 1_555
Cl1A Cu1 1_555 1_555
N1A N2A 1_555 1_555
N1A_2 Cu1A 1_555 1_555
N2A C2A 1_555 1_555
N2A_2 Cu1 1_555 1_555
N2_2 Cu1A 1_555 1_555
N3A C1A 1_555 1_555
C1A N1A 1_555 1_555
H1A C1A 1_555 1_555
C2A N3A 1_555 1_555
H2A C2A 1_555 1_555
C3A C3 1_555 1_555
H3A C3A 1_555 1_555
H4A C3A 1_555 1_555
N3 C2 1_555 1_555
N3A C3A 1_555 1_555

#END
