
#######################################################################
#
#                 Cambridge Crystallographic Data Centre
#                                CCDC 
#
#######################################################################
#
# If this CIF has been generated from an entry in the Cambridge 
# Structural Database, then it will include bibliographic, chemical, 
# crystal, experimental, refinement or atomic coordinate data resulting 
# from the CCDC's data processing and validation procedures.
#
#######################################################################

data_FOQTEL
_symmetry_cell_setting           orthorhombic
_symmetry_space_group_name_H-M   'P n m a'
_symmetry_Int_Tables_number      62
_space_group_name_Hall           '-P 2ac 2n'
loop_
_symmetry_equiv_pos_site_id
_symmetry_equiv_pos_as_xyz
1 x,y,z
2 1/2-x,-y,1/2+z
3 -x,1/2+y,-z
4 1/2+x,1/2-y,1/2-z
5 -x,-y,-z
6 1/2+x,y,1/2-z
7 x,1/2-y,z
8 1/2-x,1/2+y,1/2+z
_cell_length_a                   8.23350(10)
_cell_length_b                   17.8751(4)
_cell_length_c                   14.2061(3)
_cell_angle_alpha                90
_cell_angle_beta                 90
_cell_angle_gamma                90
_cell_volume                     2090.78
loop_
_atom_site_label
_atom_site_type_symbol
_atom_site_fract_x
_atom_site_fract_y
_atom_site_fract_z
Cd1 Cd 0.20828(3) 0.2500 0.25092(2)
C1 C 0.0918(5) 0.2500 0.0316(3)
H1 H 0.2022 0.2500 0.0146
N1 N 0.0384(4) 0.2500 0.1185(2)
N2 N -0.1284(4) 0.2500 0.1132(2)
C2 C -0.1670(4) 0.2500 0.0232(3)
H2 H -0.2736 0.2500 -0.0005
N3 N -0.0314(4) 0.2500 -0.0300(2)
C3 C -0.0094(4) 0.2500 -0.1322(3)
H3 H 0.0537 0.2057 -0.1501
C4 C -0.1665(4) 0.2500 -0.1868(3)
H4 H -0.2307 0.2055 -0.1714
N4 N -0.1234(4) 0.2500 -0.2869(2)
C5 C -0.0912(3) 0.30961(18) -0.3427(2)
H5 H -0.1022 0.3597 -0.3235
N5 N -0.0434(3) 0.28915(15) -0.42589(17)
C6 C 0.0897(3) 0.40023(14) 0.3638(2)
H6 H 0.1987 0.4139 0.3732
N6 N 0.0423(2) 0.34082(11) 0.31806(16)
N7 N -0.1269(2) 0.34122(11) 0.32020(15)
C7 C -0.1711(3) 0.40098(14) 0.3678(2)
H7 H -0.2791 0.4148 0.3804
N8 N -0.0393(2) 0.43927(11) 0.39575(15)
C8 C -0.0347(3) 0.50842(14) 0.45152(19)
H8 H -0.1447 0.5288 0.4578
H9 H 0.0329 0.5458 0.4197
Cd1A Cd 0.29172(3) 0.7500 0.75092(2)
Cd1B Cd -0.20828(3) 0.7500 0.74908(2)
Cd1C Cd -0.29172(3) 0.2500 0.24908(2)
N2C N 0.3716(4) 0.2500 0.3868(2)
H3F H 0.0537 0.2943 -0.1501
H4F H -0.2307 0.2945 -0.1714
C5F C -0.0912(3) 0.19039(18) -0.3427(2)
H5F H -0.1022 0.1403 -0.3235
N5F N -0.0434(3) 0.21085(15) -0.42589(17)
C6D C -0.0897(3) 0.59977(14) 0.6362(2)
H6D H -0.1987 0.5861 0.6268
N6D N -0.0423(2) 0.65918(11) 0.68194(16)
N6F N 0.0423(2) 0.15918(11) 0.31806(16)
N7D N 0.1269(2) 0.65878(11) 0.67980(15)
N7C N 0.3731(2) 0.15878(11) 0.17980(15)
N7E N 0.3731(2) 0.34122(11) 0.17980(15)
C7D C 0.1711(3) 0.59902(14) 0.6322(2)
H7D H 0.2791 0.5852 0.6196
N8D N 0.0393(2) 0.56073(11) 0.60425(15)
C8D C 0.0347(3) 0.49158(14) 0.54848(19)
H8D H 0.1447 0.4712 0.5422
H9D H -0.0329 0.4542 0.5803
Cl1 Cl 0.95034(8) 0.54159(4) 0.13853(6)
O1 O 0.9607(3) 0.46149(13) 0.1419(2)
O2 O 1.1058(3) 0.57230(13) 0.1168(2)
O3 O 0.8359(3) 0.56381(15) 0.06881(18)
O4 O 0.8959(4) 0.57023(17) 0.22750(18)
loop_
_geom_bond_atom_site_label_1
_geom_bond_atom_site_label_2
_geom_bond_site_symmetry_1
_geom_bond_site_symmetry_2
Cd1 N1 1_555 1_555
C1 H1 1_555 1_555
N1 C1 1_555 1_555
N2 N1 1_555 1_555
C2 N2 1_555 1_555
H2 C2 1_555 1_555
N3 C1 1_555 1_555
C3 N3 1_555 1_555
H3 C3 1_555 1_555
C4 C3 1_555 1_555
H4 C4 1_555 1_555
N4 C4 1_555 1_555
C5 N4 1_555 1_555
H5 C5 1_555 1_555
N5 C5 1_555 1_555
C6 H6 1_555 1_555
N6 Cd1 1_555 1_555
N7 N6 1_555 1_555
C7 N7 1_555 1_555
H7 C7 1_555 1_555
N8 C6 1_555 1_555
C8 N8 1_555 1_555
H8 C8 1_555 1_555
H9 C8 1_555 1_555
Cl1 O1 1_555 1_555
O2 Cl1 1_555 1_555
O3 Cl1 1_555 1_555
O4 Cl1 1_555 1_555
Cd1A N7D 1_555 1_555
Cd1B N6D 1_555 1_555
Cd1C N2 1_555 1_555
N2C Cd1 1_555 1_555
H3F C3 1_555 1_555
H4F C4 1_555 1_555
C5F N4 1_555 1_555
H5F C5F 1_555 1_555
N5F N5 1_555 1_555
C6D H6D 1_555 1_555
N6D C6D 1_555 1_555
N6F Cd1 1_555 1_555
N7D N6D 1_555 1_555
N7C Cd1 1_555 1_555
N7E Cd1 1_555 1_555
C7D N7D 1_555 1_555
H7D C7D 1_555 1_555
N8D C6D 1_555 1_555
C8D C8 1_555 1_555
H8D C8D 1_555 1_555
H9D C8D 1_555 1_555
C2 N3 1_555 1_555
C6 N6 1_555 1_555
N7 Cd1C 1_555 1_555
C7 N8 1_555 1_555
C5F N5F 1_555 1_555
C7D N8D 1_555 1_555
N8D C8D 1_555 1_555

#END
