
#######################################################################
#
#                 Cambridge Crystallographic Data Centre
#                                CCDC 
#
#######################################################################
#
# If this CIF has been generated from an entry in the Cambridge 
# Structural Database, then it will include bibliographic, chemical, 
# crystal, experimental, refinement or atomic coordinate data resulting 
# from the CCDC's data processing and validation procedures.
#
#######################################################################

data_FOQTIP
_symmetry_cell_setting           monoclinic
_symmetry_space_group_name_H-M   'P 21/n'
_symmetry_Int_Tables_number      14
_space_group_name_Hall           '-P 2yn'
loop_
_symmetry_equiv_pos_site_id
_symmetry_equiv_pos_as_xyz
1 x,y,z
2 1/2-x,1/2+y,1/2-z
3 -x,-y,-z
4 1/2+x,1/2-y,1/2+z
_cell_length_a                   6.1253(3)
_cell_length_b                   12.9739(9)
_cell_length_c                   7.6245(5)
_cell_angle_alpha                90
_cell_angle_beta                 103.989(2)
_cell_angle_gamma                90
_cell_volume                     587.942
loop_
_atom_site_label
_atom_site_type_symbol
_atom_site_fract_x
_atom_site_fract_y
_atom_site_fract_z
Cu1 Cu 0.03735(6) 0.65104(3) 0.50354(5)
N1 N 0.2135(4) 0.53987(18) 0.3960(3)
N2 N 0.1579(4) 0.43664(18) 0.3640(3)
N3 N 0.4038(4) 0.47891(17) 0.2103(3)
C1 C 0.3608(5) 0.5618(2) 0.3034(4)
H1 H 0.4281 0.6268 0.3018
C2 C 0.2746(5) 0.4030(2) 0.2526(4)
H2 H 0.2692 0.3352 0.2082
C3 C 0.5550(5) 0.4733(2) 0.0882(4)
H3 H 0.5858 0.4011 0.0651
H4 H 0.6982 0.5070 0.1439
C4 C 0.2207(5) 0.7449(2) 0.6679(4)
N4 N 0.3285(4) 0.7952(2) 0.7792(4)
Cu1B Cu 0.96265(6) 0.34896(3) -0.50354(5)
Cu1B_2 Cu -0.03735(6) 0.34896(3) 0.49646(5)
Cu1C Cu 0.53735(6) 0.84896(3) 1.00354(5)
Cu1_2 Cu 1.03735(6) 0.65104(3) -0.49646(5)
Cu1C_2 Cu -0.46265(6) 0.84896(3) 0.00354(5)
N1B N 0.7865(4) 0.46013(18) -0.3960(3)
N2B N 0.8421(4) 0.56336(18) -0.3640(3)
N2B_2 N -0.1579(4) 0.56336(18) 0.6360(3)
N2_2 N 1.1579(4) 0.43664(18) -0.6360(3)
N3B N 0.5962(4) 0.52109(17) -0.2103(3)
C1B C 0.6392(5) 0.4382(2) -0.3034(4)
H1B H 0.5719 0.3732 -0.3018
C2B C 0.7254(5) 0.5970(2) -0.2526(4)
H2B H 0.7308 0.6648 -0.2082
C3B C 0.4450(5) 0.5267(2) -0.0882(4)
H3B H 0.4142 0.5989 -0.0651
H4B H 0.3018 0.4930 -0.1439
C4C C -0.2793(5) 0.7551(2) 0.1679(4)
C4B C 0.7793(5) 0.2551(2) -0.6679(4)
N4C N -0.1715(4) 0.7048(2) 0.2792(4)
N4A N 1.1715(4) 0.2952(2) -0.2792(4)
loop_
_geom_bond_atom_site_label_1
_geom_bond_atom_site_label_2
_geom_bond_site_symmetry_1
_geom_bond_site_symmetry_2
Cu1 N1 1_555 1_555
N1 N2 1_555 1_555
N2 C2 1_555 1_555
N3 C1 1_555 1_555
C1 N1 1_555 1_555
H1 C1 1_555 1_555
C2 N3 1_555 1_555
H2 C2 1_555 1_555
C3 N3 1_555 1_555
H3 C3 1_555 1_555
H4 C3 1_555 1_555
C4 Cu1 1_555 1_555
N4 C4 1_555 1_555
Cu1B N1B 1_555 1_555
Cu1B_2 N2 1_555 1_555
Cu1C N4 1_555 1_555
Cu1_2 N2B 1_555 1_555
Cu1C_2 C4C 1_555 1_555
N1B N2B 1_555 1_555
N2B C2B 1_555 1_555
N2B_2 Cu1 1_555 1_555
N2_2 Cu1B 1_555 1_555
N3B C1B 1_555 1_555
C1B N1B 1_555 1_555
H1B C1B 1_555 1_555
C2B N3B 1_555 1_555
H2B C2B 1_555 1_555
C3B C3 1_555 1_555
H3B C3B 1_555 1_555
H4B C3B 1_555 1_555
C4C N4C 1_555 1_555
C4B Cu1B 1_555 1_555
N4C Cu1 1_555 1_555
N4A Cu1B 1_555 1_555
N3B C3B 1_555 1_555

#END
