
#######################################################################
#
#                 Cambridge Crystallographic Data Centre
#                                CCDC 
#
#######################################################################
#
# If this CIF has been generated from an entry in the Cambridge 
# Structural Database, then it will include bibliographic, chemical, 
# crystal, experimental, refinement or atomic coordinate data resulting 
# from the CCDC's data processing and validation procedures.
#
#######################################################################

data_FOQTAH
_symmetry_cell_setting           orthorhombic
_symmetry_space_group_name_H-M   'P n m a'
_symmetry_Int_Tables_number      62
_space_group_name_Hall           '-P 2ac 2n'
loop_
_symmetry_equiv_pos_site_id
_symmetry_equiv_pos_as_xyz
1 x,y,z
2 1/2-x,-y,1/2+z
3 -x,1/2+y,-z
4 1/2+x,1/2-y,1/2-z
5 -x,-y,-z
6 1/2+x,y,1/2-z
7 x,1/2-y,z
8 1/2-x,1/2+y,1/2+z
_cell_length_a                   8.0135(3)
_cell_length_b                   17.6580(7)
_cell_length_c                   13.8841(6)
_cell_angle_alpha                90
_cell_angle_beta                 90
_cell_angle_gamma                90
_cell_volume                     1964.63
loop_
_atom_site_label
_atom_site_type_symbol
_atom_site_fract_x
_atom_site_fract_y
_atom_site_fract_z
Zn1 Zn 0.21439(6) 0.2500 0.25202(3)
C1 C 0.1047(6) 0.2500 0.0405(3)
H1 H 0.2179 0.2500 0.0227
N1 N 0.0515(4) 0.2500 0.1281(3)
N2 N -0.1236(5) 0.2500 0.1237(3)
C2 C -0.1628(6) 0.2500 0.0327(3)
H2 H -0.2724 0.2500 0.0087
N3 N -0.0236(5) 0.2500 -0.0222(3)
C3 C -0.0003(6) 0.2500 -0.1274(3)
H3 H 0.0646 0.2052 -0.1456
C4 C -0.1616(7) 0.2500 -0.1834(3)
H4 H -0.2276 0.2049 -0.1678
N4 N -0.1168(5) 0.2500 -0.2856(3)
C5 C -0.0836(5) 0.3104(3) -0.3419(3)
H5 H -0.0924 0.3611 -0.3219
N5 N -0.0373(4) 0.2889(2) -0.4283(2)
C6 C 0.0998(4) 0.39513(18) 0.3640(2)
H6 H 0.2116 0.4087 0.3751
N6 N 0.0520(3) 0.33498(15) 0.31578(19)
N7 N -0.1219(3) 0.33564(15) 0.31542(18)
C7 C -0.1684(4) 0.39616(19) 0.3636(2)
H7 H -0.2798 0.4105 0.3743
N8 N -0.0338(3) 0.43494(16) 0.39549(19)
C8 C -0.0327(4) 0.50669(19) 0.4490(2)
H8 H -0.1461 0.5274 0.4519
H9 H 0.0386 0.5435 0.4158
Zn1A Zn 0.28561(6) 0.7500 0.75202(3)
Zn1B Zn -0.21439(6) 0.7500 0.74798(3)
Zn1C Zn -0.28561(6) 0.2500 0.24798(3)
N2C N 0.3764(5) 0.2500 0.3763(3)
H3F H 0.0646 0.2948 -0.1456
H4F H -0.2276 0.2951 -0.1678
C5F C -0.0836(5) 0.1896(3) -0.3419(3)
H5F H -0.0924 0.1389 -0.3219
N5F N -0.0373(4) 0.2111(2) -0.4283(2)
C6D C -0.0998(4) 0.60487(18) 0.6360(2)
H6D H -0.2116 0.5913 0.6249
N6D N -0.0520(3) 0.66502(15) 0.68422(19)
N6F N 0.0520(3) 0.16502(15) 0.31578(19)
N7D N 0.1219(3) 0.66436(15) 0.68458(18)
N7C N 0.3781(3) 0.16436(15) 0.18458(18)
N7E N 0.3781(3) 0.33564(15) 0.18458(18)
C7D C 0.1684(4) 0.60384(19) 0.6364(2)
H7D H 0.2798 0.5895 0.6257
N8D N 0.0338(3) 0.56506(16) 0.60451(19)
C8D C 0.0327(4) 0.49331(19) 0.5510(2)
H8D H 0.1461 0.4726 0.5481
H9D H -0.0386 0.4565 0.5842
Cl1 Cl 0.95163(11) 0.54198(6) 0.13706(7)
O1 O 0.9648(4) 0.4615(2) 0.1391(4)
O2 O 1.1103(4) 0.5749(2) 0.1191(3)
O3 O 0.8375(5) 0.5656(2) 0.0638(3)
O4 O 0.8874(6) 0.5685(3) 0.2271(3)
loop_
_geom_bond_atom_site_label_1
_geom_bond_atom_site_label_2
_geom_bond_site_symmetry_1
_geom_bond_site_symmetry_2
Zn1 N1 1_555 1_555
C1 H1 1_555 1_555
N1 C1 1_555 1_555
N2 N1 1_555 1_555
C2 N2 1_555 1_555
H2 C2 1_555 1_555
N3 C1 1_555 1_555
C3 N3 1_555 1_555
H3 C3 1_555 1_555
C4 C3 1_555 1_555
H4 C4 1_555 1_555
N4 C4 1_555 1_555
C5 N4 1_555 1_555
H5 C5 1_555 1_555
N5 C5 1_555 1_555
C6 H6 1_555 1_555
N6 Zn1 1_555 1_555
N7 N6 1_555 1_555
C7 N7 1_555 1_555
H7 C7 1_555 1_555
N8 C6 1_555 1_555
C8 N8 1_555 1_555
H8 C8 1_555 1_555
H9 C8 1_555 1_555
Cl1 O1 1_555 1_555
O2 Cl1 1_555 1_555
O3 Cl1 1_555 1_555
O4 Cl1 1_555 1_555
Zn1A N7D 1_555 1_555
Zn1B N6D 1_555 1_555
Zn1C N2 1_555 1_555
N2C Zn1 1_555 1_555
H3F C3 1_555 1_555
H4F C4 1_555 1_555
C5F N4 1_555 1_555
H5F C5F 1_555 1_555
N5F N5 1_555 1_555
C6D H6D 1_555 1_555
N6D C6D 1_555 1_555
N6F Zn1 1_555 1_555
N7D N6D 1_555 1_555
N7C Zn1 1_555 1_555
N7E Zn1 1_555 1_555
C7D N7D 1_555 1_555
H7D C7D 1_555 1_555
N8D C6D 1_555 1_555
C8D C8 1_555 1_555
H8D C8D 1_555 1_555
H9D C8D 1_555 1_555
C2 N3 1_555 1_555
C6 N6 1_555 1_555
N7 Zn1C 1_555 1_555
C7 N8 1_555 1_555
C5F N5F 1_555 1_555
C7D N8D 1_555 1_555
N8D C8D 1_555 1_555

#END
