
#######################################################################
#
#                 Cambridge Crystallographic Data Centre
#                                CCDC 
#
#######################################################################
#
# If this CIF has been generated from an entry in the Cambridge 
# Structural Database, then it will include bibliographic, chemical, 
# crystal, experimental, refinement or atomic coordinate data resulting 
# from the CCDC's data processing and validation procedures.
#
#######################################################################

data_FOQWAL
_symmetry_cell_setting           rhombohedral
_symmetry_space_group_name_H-M   'R -3'
_symmetry_Int_Tables_number      148
_space_group_name_Hall           '-R 3'
loop_
_symmetry_equiv_pos_site_id
_symmetry_equiv_pos_as_xyz
1 x,y,z
2 -y,x-y,z
3 -x+y,-x,z
4 2/3+x,1/3+y,1/3+z
5 2/3-y,1/3+x-y,1/3+z
6 2/3-x+y,1/3-x,1/3+z
7 1/3+x,2/3+y,2/3+z
8 1/3-y,2/3+x-y,2/3+z
9 1/3-x+y,2/3-x,2/3+z
10 -x,-y,-z
11 y,-x+y,-z
12 x-y,x,-z
13 1/3-x,2/3-y,2/3-z
14 1/3+y,2/3-x+y,2/3-z
15 1/3+x-y,2/3+x,2/3-z
16 2/3-x,1/3-y,1/3-z
17 2/3+y,1/3-x+y,1/3-z
18 2/3+x-y,1/3+x,1/3-z
_cell_length_a                   29.511(5)
_cell_length_b                   29.511(5)
_cell_length_c                   9.591(4)
_cell_angle_alpha                90
_cell_angle_beta                 90
_cell_angle_gamma                120
_cell_volume                     7233.73
loop_
_atom_site_label
_atom_site_type_symbol
_atom_site_fract_x
_atom_site_fract_y
_atom_site_fract_z
Fe1 Fe 0.49070(2) 0.12834(2) 0.61184(5)
Mn1 Mn 0.53415(2) 0.17872(2) 0.12650(5)
C1 C 0.38184(19) 0.1109(2) 0.6485(4)
H1 H 0.3967 0.1470 0.6527
C2 C 0.3278(2) 0.0792(3) 0.6582(5)
H2 H 0.3071 0.0945 0.6697
C3 C 0.3048(2) 0.0265(3) 0.6514(5)
H3 H 0.2686 0.0055 0.6547
C4 C 0.33618(19) 0.0050(2) 0.6395(4)
H4 H 0.3213 -0.0312 0.6371
C5 C 0.39045(16) 0.03695(18) 0.6309(4)
C6 C 0.42679(17) 0.01782(16) 0.6326(4)
C7 C 0.4131(2) -0.03428(18) 0.6390(4)
H5 H 0.3783 -0.0601 0.6276
C8 C 0.4506(3) -0.0483(2) 0.6623(5)
H6 H 0.4416 -0.0833 0.6666
C9 C 0.5015(2) -0.0092(2) 0.6788(5)
H7 H 0.5275 -0.0172 0.6995
C10 C 0.51360(18) 0.04190(16) 0.6645(4)
H8 H 0.5485 0.0680 0.6722
C11 C 0.49831(15) 0.13904(14) 0.8096(4)
C12 C 0.56355(16) 0.15750(15) 0.5888(3)
C13 C 0.49706(17) 0.19469(17) 0.5870(4)
C14 C 0.48652(14) 0.12209(14) 0.4115(4)
N1 N 0.41306(13) 0.08997(14) 0.6331(3)
N2 N 0.47782(13) 0.05621(12) 0.6398(3)
N3 N 0.50221(14) 0.14381(14) 0.9283(3)
N4 N 0.60799(14) 0.17452(14) 0.5679(3)
N5 N 0.50130(16) 0.23526(15) 0.5654(4)
N6 N 0.48856(13) 0.12484(13) 0.2910(3)
O1 O 0.58282(12) 0.23394(12) 0.3132(3)
H9 H 0.5745 0.2576 0.3247
H10 H 0.5763 0.2161 0.3883
Mn1_2 Mn 0.53415(2) 0.17872(2) 1.12650(5)
Mn1M Mn 0.51205(2) 0.31124(3) 0.54017(5)
Mn1N Mn 0.68876(3) 0.20082(2) 0.54017(5)
N3_2 N 0.50221(14) 0.14381(14) -0.0717(3)
N4M N 0.50785(14) 0.23320(20) 0.0988(3)
N5N N 0.59937(22) 0.16797(16) 0.1013(4)
loop_
_geom_bond_atom_site_label_1
_geom_bond_atom_site_label_2
_geom_bond_site_symmetry_1
_geom_bond_site_symmetry_2
Fe1 C11 1_555 1_555
Mn1 N6 1_555 1_555
C1 H1 1_555 1_555
C2 C1 1_555 1_555
H2 C2 1_555 1_555
C3 C2 1_555 1_555
H3 C3 1_555 1_555
C4 C3 1_555 1_555
H4 C4 1_555 1_555
C5 C4 1_555 1_555
C6 C5 1_555 1_555
C7 C6 1_555 1_555
H5 C7 1_555 1_555
C8 C7 1_555 1_555
H6 C8 1_555 1_555
C9 C8 1_555 1_555
H7 C9 1_555 1_555
C10 C9 1_555 1_555
H8 C10 1_555 1_555
C11 N3 1_555 1_555
C12 Fe1 1_555 1_555
C13 Fe1 1_555 1_555
C14 Fe1 1_555 1_555
N1 Fe1 1_555 1_555
N2 Fe1 1_555 1_555
N3 Mn1_2 1_555 1_555
N4 C12 1_555 1_555
N5 C13 1_555 1_555
N6 C14 1_555 1_555
O1 Mn1 1_555 1_555
H9 O1 1_555 1_555
H10 O1 1_555 1_555
Mn1M N5 1_555 1_555
Mn1N N4 1_555 1_555
N3_2 Mn1 1_555 1_555
N4M Mn1 1_555 1_555
N5N Mn1 1_555 1_555
C1 N1 1_555 1_555
C5 N1 1_555 1_555
C6 N2 1_555 1_555
C10 N2 1_555 1_555

#END
