
#######################################################################
#
#                 Cambridge Crystallographic Data Centre
#                                CCDC 
#
#######################################################################
#
# If this CIF has been generated from an entry in the Cambridge 
# Structural Database, then it will include bibliographic, chemical, 
# crystal, experimental, refinement or atomic coordinate data resulting 
# from the CCDC's data processing and validation procedures.
#
#######################################################################

data_FORBAR
_symmetry_cell_setting           triclinic
_symmetry_space_group_name_H-M   'P -1'
_symmetry_Int_Tables_number      2
_space_group_name_Hall           '-P 1'
loop_
_symmetry_equiv_pos_site_id
_symmetry_equiv_pos_as_xyz
1 x,y,z
2 -x,-y,-z
_cell_length_a                   9.4422(5)
_cell_length_b                   13.1094(8)
_cell_length_c                   20.6897(12)
_cell_angle_alpha                85.644(5)
_cell_angle_beta                 83.162(5)
_cell_angle_gamma                75.554(4)
_cell_volume                     2459.54
loop_
_atom_site_label
_atom_site_type_symbol
_atom_site_fract_x
_atom_site_fract_y
_atom_site_fract_z
Cu1 Cu 0.92872(2) 0.41740(2) 0.48638(2)
Cu2 Cu -0.00036(2) 0.96377(2) 0.92536(2)
Cl1 Cl 0.86118(3) 0.60300(2) 0.45352(2)
Cl2 Cl -0.17917(3) 0.97742(3) 1.02554(2)
P1 P 0.96876(3) 0.31028(2) 0.40491(2)
P2 P -0.10347(3) 1.06127(2) 0.84279(2)
N1 N 0.76027(12) 0.40694(9) 0.55822(5)
N2 N 0.40051(13) 0.29224(10) 0.73696(5)
N3 N 0.25207(14) 0.41682(10) 0.85458(6)
N4 N 0.05579(13) 0.80159(9) 0.91789(5)
C1 C -0.25714(13) 1.01727(10) 0.81628(5)
C2 C -0.19093(13) 1.19824(10) 0.86336(5)
C3 C -0.36060(14) 0.99059(11) 0.86585(6)
H1 H -0.3447 0.9907 0.9093
C4 C 1.07371(13) 0.34566(10) 0.32944(6)
C5 C -0.28024(14) 1.01332(11) 0.75056(6)
H2 H -0.2129 1.0304 0.7176
C6 C 0.51745(14) 0.37370(11) 0.64360(6)
C7 C 0.79782(13) 0.29206(10) 0.37809(6)
C8 C -0.30937(14) 1.26041(10) 0.83185(6)
H3 H -0.3418 1.2342 0.7973
C9 C 0.11240(15) 0.98046(12) 0.74400(6)
H4 H 0.1172 0.9172 0.7682
C10 C 1.03193(15) 0.08222(10) 0.41306(7)
H5 H 0.9418 0.0873 0.3976
C11 C 0.38711(15) 0.35806(11) 0.68765(6)
H6 H 0.2938 0.3969 0.6792
C12 C 0.13416(16) 0.46877(12) 0.88465(7)
H7 H 0.0614 0.4343 0.9007
C13 C 1.20947(15) 0.16641(11) 0.44851(7)
H8 H 1.2373 0.2268 0.4572
C14 C 0.65492(14) 0.30217(11) 0.64434(6)
H9 H 0.6681 0.2431 0.6729
C15 C 0.69557(14) 0.26222(10) 0.42714(6)
H10 H 0.7202 0.2475 0.4696
C16 C -0.14228(15) 1.23884(11) 0.91565(6)
H11 H -0.0637 1.1983 0.9365
C17 C 0.00662(14) 1.16847(11) 0.72804(6)
H12 H -0.0603 1.2299 0.7416
C18 C 1.13242(15) 0.27186(11) 0.28129(6)
H13 H 1.1160 0.2045 0.2867
C19 C 0.18896(15) 0.74682(11) 0.89275(7)
H14 H 0.2636 0.7820 0.8830
C20 C -0.33104(17) 1.40178(11) 0.90514(7)
H15 H -0.3783 1.4686 0.9192
C21 C 1.21605(17) 0.30023(12) 0.22498(7)
H16 H 1.2548 0.2515 0.1932
C22 C 0.75787(15) 0.31562(12) 0.31406(6)
H17 H 0.8236 0.3355 0.2813
C23 C -0.40419(16) 0.98383(13) 0.73462(7)
H18 H -0.4177 0.9800 0.6912
C24 C 0.10895(15) 0.58382(12) 0.89496(6)
C25 C 0.55781(15) 0.25464(12) 0.41222(7)
H19 H 0.4922 0.2338 0.4446
C26 C 0.77158(14) 0.32154(10) 0.60124(6)
H20 H 0.8625 0.2735 0.6018
C27 C 0.62872(16) 0.47593(11) 0.55822(7)
H21 H 0.6191 0.5353 0.5300
C28 C 1.09979(17) 0.44779(11) 0.32079(7)
H22 H 1.0614 0.4967 0.3525
C29 C 1.26000(17) -0.02536(11) 0.44799(7)
H23 H 1.3227 -0.0913 0.4551
C30 C 0.22014(15) 0.63940(12) 0.88061(7)
H24 H 0.3137 0.6048 0.8632
C31 C 0.10125(16) 1.17122(14) 0.67017(6)
H25 H 0.0978 1.2344 0.6460
C32 C -0.37872(15) 1.36213(11) 0.85262(7)
H26 H -0.4565 1.4033 0.8315
C33 C -0.50805(16) 0.95996(14) 0.78420(7)
H27 H -0.5910 0.9414 0.7735
C34 C 1.30192(17) 0.06685(12) 0.45990(8)
H28 H 1.3920 0.0614 0.4755
C35 C 1.12418(17) -0.01723(11) 0.42548(7)
H29 H 1.0948 -0.0779 0.4187
C36 C -0.48642(15) 0.96412(13) 0.85003(7)
H30 H -0.5557 0.9493 0.8829
C37 C -0.21259(17) 1.34065(11) 0.93618(7)
H31 H -0.1801 1.3673 0.9705
C38 C -0.02887(16) 0.64007(12) 0.92159(8)
H32 H -0.1053 0.6067 0.9321
C39 C -0.05036(15) 0.74737(12) 0.93227(7)
H33 H -0.1425 0.7836 0.9502
C40 C 1.24126(19) 0.40187(13) 0.21662(7)
H34 H 1.2965 0.4202 0.1793
C41 C 0.26387(16) 0.30343(12) 0.84783(7)
H35 H 0.1813 0.2833 0.8734
H36 H 0.3534 0.2622 0.8646
C42 C 0.19983(16) 1.07902(15) 0.64931(7)
H37 H 0.2625 1.0806 0.6112
C43 C 0.26538(15) 0.27920(12) 0.77638(7)
H38 H 0.2570 0.2073 0.7742
H39 H 0.1810 0.3259 0.7584
C44 C 0.20488(16) 0.98323(14) 0.68585(7)
H40 H 0.2698 0.9215 0.6714
C45 C 1.1836(2) 0.47576(13) 0.26431(8)
H41 H 1.2006 0.5429 0.2587
C46 C 0.51851(16) 0.27860(13) 0.34829(8)
H42 H 0.4268 0.2742 0.3383
C47 C 0.50544(16) 0.46159(12) 0.59929(7)
H43 H 0.4154 0.5103 0.5973
C48 C 0.01253(13) 1.07303(10) 0.76567(5)
C49 C 1.07448(13) 0.17503(9) 0.42386(5)
C50 C 0.61844(16) 0.30904(15) 0.29985(7)
H44 H 0.5924 0.3252 0.2576
Cu1A Cu 1.07128(2) 0.58260(2) 0.51362(2)
Cu2A Cu 0.00036(2) 1.03623(2) 1.07464(2)
Cl1A Cl 1.13882(3) 0.39700(2) 0.54648(2)
Cl2A Cl 0.17917(3) 1.02258(3) 0.97446(2)
N5 N 0.5832(3) 0.67358(16) 0.93196(12)
C51 C 0.50520(17) 0.82330(12) 1.01426(7)
H45 H 0.4754 0.7950 1.0564
H46 H 0.4244 0.8764 0.9992
H47 H 0.5863 0.8541 1.0173
C52 C 0.55000(18) 0.73903(13) 0.96851(9)
loop_
_geom_bond_atom_site_label_1
_geom_bond_atom_site_label_2
_geom_bond_site_symmetry_1
_geom_bond_site_symmetry_2
Cu1 Cl1 1_555 1_555
Cu2 Cl2 1_555 1_555
Cl1 Cu1A 1_555 1_555
Cl2 Cu2A 1_555 1_555
P1 Cu1 1_555 1_555
P2 Cu2 1_555 1_555
N1 Cu1 1_555 1_555
N2 C11 1_555 1_555
N3 C12 1_555 1_555
N4 Cu2 1_555 1_555
C1 P2 1_555 1_555
C2 P2 1_555 1_555
C3 C1 1_555 1_555
H1 C3 1_555 1_555
C4 P1 1_555 1_555
C5 C1 1_555 1_555
H2 C5 1_555 1_555
C6 C11 1_555 1_555
C7 P1 1_555 1_555
C8 C2 1_555 1_555
H3 C8 1_555 1_555
C9 H4 1_555 1_555
C10 H5 1_555 1_555
C11 H6 1_555 1_555
C12 H7 1_555 1_555
C13 H8 1_555 1_555
C14 C6 1_555 1_555
H9 C14 1_555 1_555
C15 C7 1_555 1_555
H10 C15 1_555 1_555
C16 C2 1_555 1_555
H11 C16 1_555 1_555
C17 H12 1_555 1_555
C18 C4 1_555 1_555
H13 C18 1_555 1_555
C19 N4 1_555 1_555
H14 C19 1_555 1_555
C20 H15 1_555 1_555
C21 C18 1_555 1_555
H16 C21 1_555 1_555
C22 C7 1_555 1_555
H17 C22 1_555 1_555
C23 C5 1_555 1_555
H18 C23 1_555 1_555
C24 C12 1_555 1_555
C25 C15 1_555 1_555
H19 C25 1_555 1_555
C26 N1 1_555 1_555
H20 C26 1_555 1_555
C27 N1 1_555 1_555
H21 C27 1_555 1_555
C28 C4 1_555 1_555
H22 C28 1_555 1_555
C29 H23 1_555 1_555
C30 C19 1_555 1_555
H24 C30 1_555 1_555
C31 C17 1_555 1_555
H25 C31 1_555 1_555
C32 C8 1_555 1_555
H26 C32 1_555 1_555
C33 C23 1_555 1_555
H27 C33 1_555 1_555
C34 C13 1_555 1_555
H28 C34 1_555 1_555
C35 C10 1_555 1_555
H29 C35 1_555 1_555
C36 C3 1_555 1_555
H30 C36 1_555 1_555
C37 C16 1_555 1_555
H31 C37 1_555 1_555
C38 C24 1_555 1_555
H32 C38 1_555 1_555
C39 N4 1_555 1_555
H33 C39 1_555 1_555
C40 C21 1_555 1_555
H34 C40 1_555 1_555
C41 N3 1_555 1_555
H35 C41 1_555 1_555
H36 C41 1_555 1_555
C42 C31 1_555 1_555
H37 C42 1_555 1_555
C43 N2 1_555 1_555
H38 C43 1_555 1_555
H39 C43 1_555 1_555
C44 C9 1_555 1_555
H40 C44 1_555 1_555
C45 C28 1_555 1_555
H41 C45 1_555 1_555
C46 C25 1_555 1_555
H42 C46 1_555 1_555
C47 C6 1_555 1_555
H43 C47 1_555 1_555
C48 P2 1_555 1_555
C49 P1 1_555 1_555
C50 C22 1_555 1_555
H44 C50 1_555 1_555
N5 C52 1_555 1_555
C51 H45 1_555 1_555
H46 C51 1_555 1_555
H47 C51 1_555 1_555
C52 C51 1_555 1_555
Cu1A Cl1A 1_555 1_555
Cu2A Cl2A 1_555 1_555
Cl1A Cu1 1_555 1_555
Cl2A Cu2 1_555 1_555
C9 C48 1_555 1_555
C10 C49 1_555 1_555
C13 C49 1_555 1_555
C14 C26 1_555 1_555
C17 C48 1_555 1_555
C20 C32 1_555 1_555
C20 C37 1_555 1_555
C24 C30 1_555 1_555
C27 C47 1_555 1_555
C29 C34 1_555 1_555
C29 C35 1_555 1_555
C33 C36 1_555 1_555
C38 C39 1_555 1_555
C40 C45 1_555 1_555
C41 C43 1_555 1_555
C42 C44 1_555 1_555
C46 C50 1_555 1_555

#END
