
#######################################################################
#
#                 Cambridge Crystallographic Data Centre
#                                CCDC 
#
#######################################################################
#
# If this CIF has been generated from an entry in the Cambridge 
# Structural Database, then it will include bibliographic, chemical, 
# crystal, experimental, refinement or atomic coordinate data resulting 
# from the CCDC's data processing and validation procedures.
#
#######################################################################

data_FORLIH
_symmetry_cell_setting           orthorhombic
_symmetry_space_group_name_H-M   'P b c a'
_symmetry_Int_Tables_number      61
_space_group_name_Hall           '-P 2ac 2ab'
loop_
_symmetry_equiv_pos_site_id
_symmetry_equiv_pos_as_xyz
1 x,y,z
2 1/2-x,1/2+y,z
3 x,1/2-y,1/2+z
4 1/2-x,-y,1/2+z
5 -x,-y,-z
6 1/2+x,1/2-y,-z
7 -x,1/2+y,1/2-z
8 1/2+x,y,1/2-z
_cell_length_a                   13.648(2)
_cell_length_b                   21.312(3)
_cell_length_c                   13.979(3)
_cell_angle_alpha                90
_cell_angle_beta                 90
_cell_angle_gamma                90
_cell_volume                     4066.02
loop_
_atom_site_label
_atom_site_type_symbol
_atom_site_fract_x
_atom_site_fract_y
_atom_site_fract_z
N13 N 0.4240(10) 0.2148(6) 0.6221(10)
O3 O 0.4266(7) 0.2403(5) 0.5393(7)
O4 O 0.3654(8) 0.1724(6) 0.6333(9)
O5 O 0.4794(8) 0.2344(5) 0.6871(8)
O6 O 0.0977(6) 0.1898(4) 0.4844(6)
O7 O 0.2151(11) 0.5507(5) 0.6446(8)
Mn1 Mn 0.2236(1) 0.3725(1) 0.4989(1)
O1 O 0.2167(6) 0.4739(3) 0.5031(6)
O2 O 0.2444(5) 0.2716(3) 0.4798(5)
N1 N 0.1554(7) 0.3722(5) 0.3539(7)
N2 N 0.1977(7) 0.3307(5) 0.2867(7)
C1 C 0.1471(9) 0.3355(6) 0.2061(10)
N3 N 0.0758(7) 0.3782(5) 0.2214(7)
C2 C 0.0822(9) 0.4000(5) 0.3135(8)
N4 N 0.3747(6) 0.3884(4) 0.4340(7)
N5 N 0.4367(7) 0.4333(4) 0.4731(6)
C3 C 0.5145(9) 0.4345(5) 0.4200(8)
N6 N 0.0047(7) 0.3928(4) 0.1533(7)
C4 C 0.4167(8) 0.3635(5) 0.3587(9)
N7 N 0.2919(7) 0.3604(4) 0.6453(6)
N8 N 0.2491(6) 0.3129(5) 0.7017(7)
C5 C 0.3013(8) 0.3105(5) 0.7809(8)
N9 N 0.3764(6) 0.3541(4) 0.7767(7)
C6 C 0.3677(9) 0.3844(6) 0.6900(9)
N10 N 0.0758(7) 0.3686(5) 0.5677(7)
N11 N 0.0070(8) 0.4099(5) 0.5274(7)
C7 C -0.0719(9) 0.4097(7) 0.5790(9)
N12 N 0.4426(7) 0.3677(5) 0.8483(7)
C8 C 0.0352(8) 0.3430(5) 0.6419(9)
H1 H 0.1628(9) 0.2993(6) 0.1579(10)
H2 H 0.0330(9) 0.4376(5) 0.3522(8)
H3 H 0.5821(9) 0.4646(5) 0.4229(8)
H4 H 0.3862(8) 0.3176(5) 0.3236(9)
H5 H 0.2830(8) 0.2751(5) 0.8366(8)
H6 H 0.4160(9) 0.4217(6) 0.6630(9)
H7 H -0.1483(9) 0.4118(7) 0.5586(9)
H8 H 0.0766(8) 0.3195(5) 0.6948(9)
N6G N 0.5047(7) 0.3928(4) 0.3467(7)
C3G C 0.0145(9) 0.4345(5) 0.0800(8)
C4G C -0.0833(8) 0.3635(5) 0.1413(9)
N12G N -0.0574(7) 0.3677(5) 0.6517(7)
C7G C 0.4281(9) 0.4097(7) 0.9210(9)
C8G C 0.5352(8) 0.3430(5) 0.8581(9)
N3G N 0.5758(7) 0.3782(5) 0.2786(7)
N5G N -0.0633(7) 0.4333(4) 0.0269(6)
H3G H 0.0821(9) 0.4646(5) 0.0771(8)
N4G N -0.1253(6) 0.3884(4) 0.0660(7)
H4G H -0.1138(8) 0.3176(5) 0.1764(9)
N9G N -0.1236(6) 0.3541(4) 0.7233(7)
N11G N 0.5070(8) 0.4099(5) 0.9726(7)
H7G H 0.3517(9) 0.4118(7) 0.9414(9)
N10G N 0.5758(7) 0.3686(5) 0.9323(7)
H8G H 0.5766(8) 0.3195(5) 0.8052(9)
C1G C 0.6471(9) 0.3355(6) 0.2939(10)
C2G C 0.5822(9) 0.4000(5) 0.1865(8)
Mn1G Mn -0.2764(1) 0.3725(1) 0.0011(1)
C5G C -0.1987(8) 0.3105(5) 0.7191(8)
C6G C -0.1323(9) 0.3844(6) 0.8100(9)
Mn1G_2 Mn 0.7236(1) 0.3725(1) 1.0011(1)
N2G N 0.6977(7) 0.3307(5) 0.2133(7)
H1G H 0.6628(9) 0.2993(6) 0.3421(10)
N1G N 0.6554(7) 0.3722(5) 0.1461(7)
H2G H 0.5330(9) 0.4376(5) 0.1478(8)
O1G O -0.2833(6) 0.4739(3) -0.0031(6)
O2G O -0.2556(5) 0.2716(3) 0.0202(5)
N1G_2 N -0.3446(7) 0.3722(5) 0.1461(7)
N7G N -0.2081(7) 0.3604(4) -0.1453(6)
N10G_2 N -0.4242(7) 0.3686(5) -0.0677(7)
N8G N -0.2509(6) 0.3129(5) 0.7983(7)
H5G H -0.2170(8) 0.2751(5) 0.6634(8)
N7G_2 N -0.2081(7) 0.3604(4) 0.8547(6)
H6G H -0.0840(9) 0.4217(6) 0.8370(9)
Mn1G_3 Mn 0.7236(1) 0.3725(1) 0.0011(1)
N8G_2 N -0.2509(6) 0.3129(5) -0.2017(7)
C6G_2 C -0.1323(9) 0.3844(6) -0.1900(9)
loop_
_geom_bond_atom_site_label_1
_geom_bond_atom_site_label_2
_geom_bond_site_symmetry_1
_geom_bond_site_symmetry_2
Mn1 O1 1_555 1_555
O2 Mn1 1_555 1_555
N1 Mn1 1_555 1_555
N2 N1 1_555 1_555
C1 N2 1_555 1_555
N3 C1 1_555 1_555
C2 N1 1_555 1_555
N4 Mn1 1_555 1_555
N5 N4 1_555 1_555
C3 N5 1_555 1_555
N6 N3 1_555 1_555
C4 N4 1_555 1_555
N7 Mn1 1_555 1_555
N8 N7 1_555 1_555
C5 N8 1_555 1_555
N9 C5 1_555 1_555
C6 N7 1_555 1_555
N10 Mn1 1_555 1_555
N11 N10 1_555 1_555
C7 N11 1_555 1_555
N12 N9 1_555 1_555
C8 N10 1_555 1_555
N13 O3 1_555 1_555
O4 N13 1_555 1_555
O5 N13 1_555 1_555
H1 C1 1_555 1_555
H2 C2 1_555 1_555
H3 C3 1_555 1_555
H4 C4 1_555 1_555
H5 C5 1_555 1_555
H6 C6 1_555 1_555
H7 C7 1_555 1_555
H8 C8 1_555 1_555
N6G C3 1_555 1_555
C3G N6 1_555 1_555
C4G N6 1_555 1_555
N12G C7 1_555 1_555
C7G N12 1_555 1_555
C8G N12 1_555 1_555
N3G N6G 1_555 1_555
N5G C3G 1_555 1_555
H3G C3G 1_555 1_555
N4G C4G 1_555 1_555
H4G C4G 1_555 1_555
N9G N12G 1_555 1_555
N11G C7G 1_555 1_555
H7G C7G 1_555 1_555
N10G C8G 1_555 1_555
H8G C8G 1_555 1_555
C1G N3G 1_555 1_555
C2G N3G 1_555 1_555
Mn1G N4G 1_555 1_555
C5G N9G 1_555 1_555
C6G N9G 1_555 1_555
Mn1G_2 N10G 1_555 1_555
N2G C1G 1_555 1_555
H1G C1G 1_555 1_555
N1G C2G 1_555 1_555
H2G C2G 1_555 1_555
O1G Mn1G 1_555 1_555
O2G Mn1G 1_555 1_555
N1G_2 Mn1G 1_555 1_555
N7G Mn1G 1_555 1_555
N10G_2 Mn1G 1_555 1_555
N8G C5G 1_555 1_555
H5G C5G 1_555 1_555
N7G_2 C6G 1_555 1_555
H6G C6G 1_555 1_555
Mn1G_3 N1G 1_555 1_555
N8G_2 N7G 1_555 1_555
C6G_2 N7G 1_555 1_555
N3 C2 1_555 1_555
C4 N6G 1_555 1_555
N9 C6 1_555 1_555
C8 N12G 1_555 1_555
N5G N4G 1_555 1_555
N11G N10G 1_555 1_555
N2G N1G 1_555 1_555
N8G N7G_2 1_555 1_555

#END
