
#######################################################################
#
#                 Cambridge Crystallographic Data Centre
#                                CCDC 
#
#######################################################################
#
# If this CIF has been generated from an entry in the Cambridge 
# Structural Database, then it will include bibliographic, chemical, 
# crystal, experimental, refinement or atomic coordinate data resulting 
# from the CCDC's data processing and validation procedures.
#
#######################################################################

data_FORPCU
_symmetry_cell_setting           orthorhombic
_symmetry_space_group_name_H-M   'P n m a'
_symmetry_Int_Tables_number      62
_space_group_name_Hall           '-P 2ac 2n'
loop_
_symmetry_equiv_pos_site_id
_symmetry_equiv_pos_as_xyz
1 x,y,z
2 1/2-x,1/2+y,1/2+z
3 x,1/2-y,z
4 1/2-x,-y,1/2+z
5 -x,-y,-z
6 1/2+x,1/2-y,1/2-z
7 -x,1/2+y,-z
8 1/2+x,y,1/2-z
_cell_length_a                   9.731(1)
_cell_length_b                   14.351(1)
_cell_length_c                   10.302(1)
_cell_angle_alpha                90
_cell_angle_beta                 90
_cell_angle_gamma                90
_cell_volume                     1438.67
loop_
_atom_site_label
_atom_site_type_symbol
_atom_site_fract_x
_atom_site_fract_y
_atom_site_fract_z
Cu1 Cu 0.11500 0.25000 0.14374
C1 C 0.06150 0.44100 0.23030
C2 C 0.07280 0.53630 0.23880
C3 C 0.15940 0.58250 0.15590
C4 C 0.23100 0.53090 0.06620
C5 C 0.21420 0.43540 0.06210
C6 C 0.13900 0.25000 -0.12910
C7 C -0.20000 0.25000 0.14710
N1 N 0.13160 0.39060 0.14380
O1 O -0.10630 0.25000 0.22570
O2 O 0.05350 0.25000 -0.03650
O3 O 0.26360 0.25000 -0.12090
O4 O 0.17300 0.25000 0.32670
H1 H -0.00800 0.40000 0.29600
H2 H -0.01300 0.55700 0.30800
H3 H 0.17900 0.65300 0.16300
H4 H 0.29600 0.56000 0.00000
H5 H 0.27900 0.38700 0.00400
H6 H 0.10000 0.25000 -0.22100
H7 H -0.17500 0.25000 0.05800
N1B N 0.13160 0.10940 0.14380
O4E O -0.32700 0.25000 0.17330
C7E C 0.30000 0.25000 0.35290
C1B C 0.06150 0.05900 0.23030
C5B C 0.21420 0.06460 0.06210
Cu1E Cu -0.38500 0.25000 0.35626
O1E O 0.39370 0.25000 0.27430
H7E H 0.32500 0.25000 0.44200
C2B C 0.07280 -0.03630 0.23880
H1B H -0.00800 0.10000 0.29600
C4B C 0.23100 -0.03090 0.06620
H5B H 0.27900 0.11300 0.00400
N1E N -0.36840 0.10940 0.35620
N1G N -0.36840 0.39060 0.35620
O1E_2 O -0.60630 0.25000 0.27430
O2E O -0.44650 0.25000 0.53650
Cu1E_2 Cu 0.61500 0.25000 0.35626
C3B C 0.15940 -0.08250 0.15590
H2B H -0.01300 -0.05700 0.30800
H4B H 0.29600 -0.06000 0.00000
C1E C -0.43850 0.05900 0.26970
C5E C -0.28580 0.06460 0.43790
C1G C -0.43850 0.44100 0.26970
C5G C -0.28580 0.43540 0.43790
C6E C -0.36100 0.25000 0.62910
H3B H 0.17900 -0.15300 0.16300
C2E C -0.42720 -0.03630 0.26120
H1E H -0.50800 0.10000 0.20400
C4E C -0.26900 -0.03090 0.43380
H5E H -0.22100 0.11300 0.49600
C2G C -0.42720 0.53630 0.26120
H1G H -0.50800 0.40000 0.20400
C4G C -0.26900 0.53090 0.43380
H5G H -0.22100 0.38700 0.49600
O3E O -0.23640 0.25000 0.62090
H6E H -0.40000 0.25000 0.72100
C3E C -0.34060 -0.08250 0.34410
H2E H -0.51300 -0.05700 0.19200
H4E H -0.20400 -0.06000 0.50000
C3G C -0.34060 0.58250 0.34410
H2G H -0.51300 0.55700 0.19200
H4G H -0.20400 0.56000 0.50000
H3E H -0.32100 -0.15300 0.33700
H3G H -0.32100 0.65300 0.33700
loop_
_geom_bond_atom_site_label_1
_geom_bond_atom_site_label_2
_geom_bond_site_symmetry_1
_geom_bond_site_symmetry_2
Cu1 N1 1_555 1_555
C1 C2 1_555 1_555
C2 C3 1_555 1_555
C3 C4 1_555 1_555
C4 C5 1_555 1_555
C5 N1 1_555 1_555
C6 O2 1_555 1_555
C7 O1 1_555 1_555
N1 C1 1_555 1_555
O1 Cu1 1_555 1_555
O2 Cu1 1_555 1_555
O3 C6 1_555 1_555
O4 Cu1 1_555 1_555
H1 C1 1_555 1_555
H2 C2 1_555 1_555
H3 C3 1_555 1_555
H4 C4 1_555 1_555
H5 C5 1_555 1_555
H6 C6 1_555 1_555
H7 C7 1_555 1_555
N1B Cu1 1_555 1_555
O4E C7 1_555 1_555
C7E O4 1_555 1_555
C1B N1B 1_555 1_555
C5B N1B 1_555 1_555
Cu1E O4E 1_555 1_555
O1E C7E 1_555 1_555
H7E C7E 1_555 1_555
C2B C1B 1_555 1_555
H1B C1B 1_555 1_555
C4B C5B 1_555 1_555
H5B C5B 1_555 1_555
N1E Cu1E 1_555 1_555
N1G Cu1E 1_555 1_555
O1E_2 Cu1E 1_555 1_555
O2E Cu1E 1_555 1_555
Cu1E_2 O1E 1_555 1_555
C3B C2B 1_555 1_555
H2B C2B 1_555 1_555
H4B C4B 1_555 1_555
C1E N1E 1_555 1_555
C5E N1E 1_555 1_555
C1G N1G 1_555 1_555
C5G N1G 1_555 1_555
C6E O2E 1_555 1_555
H3B C3B 1_555 1_555
C2E C1E 1_555 1_555
H1E C1E 1_555 1_555
C4E C5E 1_555 1_555
H5E C5E 1_555 1_555
C2G C1G 1_555 1_555
H1G C1G 1_555 1_555
C4G C5G 1_555 1_555
H5G C5G 1_555 1_555
O3E C6E 1_555 1_555
H6E C6E 1_555 1_555
C3E C2E 1_555 1_555
H2E C2E 1_555 1_555
H4E C4E 1_555 1_555
C3G C2G 1_555 1_555
H2G C2G 1_555 1_555
H4G C4G 1_555 1_555
H3E C3E 1_555 1_555
H3G C3G 1_555 1_555
C4B C3B 1_555 1_555
C4E C3E 1_555 1_555
C4G C3G 1_555 1_555

#END
