
#######################################################################
#
#                 Cambridge Crystallographic Data Centre
#                                CCDC 
#
#######################################################################
#
# If this CIF has been generated from an entry in the Cambridge 
# Structural Database, then it will include bibliographic, chemical, 
# crystal, experimental, refinement or atomic coordinate data resulting 
# from the CCDC's data processing and validation procedures.
#
#######################################################################

data_FORPEU
_symmetry_cell_setting           monoclinic
_symmetry_space_group_name_H-M   'P 1 1 21'
_symmetry_Int_Tables_number      4
_space_group_name_Hall           'P 2c'
loop_
_symmetry_equiv_pos_site_id
_symmetry_equiv_pos_as_xyz
1 x,y,z
2 -x,-y,1/2+z
_cell_length_a                   13.68(2)
_cell_length_b                   10.71(2)
_cell_length_c                   6.714(6)
_cell_angle_alpha                90
_cell_angle_beta                 90
_cell_angle_gamma                118.90(3)
_cell_volume                     861.183
loop_
_atom_site_label
_atom_site_type_symbol
_atom_site_fract_x
_atom_site_fract_y
_atom_site_fract_z
Eu1 Eu 0.79420 0.95720 0.50000
O1 O 0.88500 0.84000 0.64600
O2 O 0.95900 1.03000 0.28900
O3 O 0.73000 0.89700 0.16000
O4 O 0.73400 0.94700 0.82200
O5 O 0.79900 1.16300 0.41800
O6 O 0.90500 1.38500 0.28900
O7 O 0.95600 1.14700 0.68100
N1 N 0.58500 0.89300 0.49300
N2 N 0.64900 0.68200 0.49900
C1 C 0.55200 0.99800 0.49100
C2 C 0.43900 0.95800 0.50100
C3 C 0.35900 0.81500 0.51300
C4 C 0.39200 0.71100 0.51600
C5 C 0.31200 0.56800 0.52800
C6 C 0.34400 0.46300 0.53100
C7 C 0.45700 0.50100 0.52100
C8 C 0.48700 0.39400 0.49300
C9 C 0.60000 0.43300 0.50900
C10 C 0.68000 0.57500 0.47100
C11 C 0.53600 0.64400 0.48800
C12 C 0.50500 0.75040 0.50400
C13 C 0.97000 0.85800 0.73600
C14 C 0.77700 0.97300 -0.01300
C15 C 0.84500 1.29400 0.42300
C13A C 1.03000 1.14200 0.23600
C14_2 C 0.77700 0.97300 0.98700
O2A O 1.04100 0.97000 0.78900
O4_2 O 0.73400 0.94700 -0.17800
O1A O 1.11500 1.16000 0.14600
Eu1A Eu 1.20580 1.04280 1.00000
Eu1A_2 Eu 1.20580 1.04280 0.00000
O1A_2 O 1.11500 1.16000 1.14600
O3A O 1.27000 1.10300 0.66000
O4A O 1.26600 1.05300 1.32200
O5A O 1.20100 0.83700 0.91800
O7A O 1.04400 0.85300 1.18100
N1A N 1.41500 1.10700 0.99300
N2A N 1.35100 1.31800 0.99900
C14A C 1.22300 1.02700 0.48700
C14A_2 C 1.22300 1.02700 1.48700
C15A C 1.15500 0.70600 0.92300
C1A C 1.44800 1.00200 0.99100
C12A C 1.49500 1.24960 1.00400
C10A C 1.32000 1.42500 0.97100
C11A C 1.46400 1.35600 0.98800
O4A_2 O 1.26600 1.05300 0.32200
O6A O 1.09500 0.61500 0.78900
C2A C 1.56100 1.04200 1.00100
C4A C 1.60800 1.28900 1.01600
C9A C 1.40000 1.56700 1.00900
C7A C 1.54300 1.49900 1.02100
C3A C 1.64100 1.18500 1.01300
C5A C 1.68800 1.43200 1.02800
C8A C 1.51300 1.60600 0.99300
C6A C 1.65600 1.53700 1.03100
loop_
_geom_bond_atom_site_label_1
_geom_bond_atom_site_label_2
_geom_bond_site_symmetry_1
_geom_bond_site_symmetry_2
Eu1 O1 1_555 1_555
O1 C13 1_555 1_555
O2 Eu1 1_555 1_555
O3 Eu1 1_555 1_555
O4 Eu1 1_555 1_555
O5 Eu1 1_555 1_555
O6 C15 1_555 1_555
O7 Eu1 1_555 1_555
N1 Eu1 1_555 1_555
N2 Eu1 1_555 1_555
C1 N1 1_555 1_555
C2 C1 1_555 1_555
C3 C2 1_555 1_555
C4 C3 1_555 1_555
C5 C4 1_555 1_555
C6 C5 1_555 1_555
C7 C6 1_555 1_555
C8 C7 1_555 1_555
C9 C8 1_555 1_555
C10 N2 1_555 1_555
C11 N2 1_555 1_555
C12 N1 1_555 1_555
C13 O2A 1_555 1_555
C14 O3 1_555 1_555
C15 O5 1_555 1_555
C13A O2 1_555 1_555
C14_2 O4 1_555 1_555
O2A Eu1A 1_555 1_555
O4_2 C14 1_555 1_555
O1A C13A 1_555 1_555
Eu1A O1A_2 1_555 1_555
Eu1A_2 O1A 1_555 1_555
O3A Eu1A 1_555 1_555
O4A Eu1A 1_555 1_555
O5A Eu1A 1_555 1_555
O7A Eu1A 1_555 1_555
N1A Eu1A 1_555 1_555
N2A Eu1A 1_555 1_555
C14A O3A 1_555 1_555
C14A_2 O4A 1_555 1_555
C15A O5A 1_555 1_555
C1A N1A 1_555 1_555
C12A N1A 1_555 1_555
C10A N2A 1_555 1_555
C11A N2A 1_555 1_555
O4A_2 C14A 1_555 1_555
O6A C15A 1_555 1_555
C2A C1A 1_555 1_555
C4A C12A 1_555 1_555
C9A C10A 1_555 1_555
C7A C11A 1_555 1_555
C3A C2A 1_555 1_555
C5A C4A 1_555 1_555
C8A C9A 1_555 1_555
C6A C7A 1_555 1_555
C4 C12 1_555 1_555
C7 C11 1_555 1_555
C9 C10 1_555 1_555
C11 C12 1_555 1_555
C12A C11A 1_555 1_555
C4A C3A 1_555 1_555
C7A C8A 1_555 1_555
C5A C6A 1_555 1_555

#END
