
#######################################################################
#
#                 Cambridge Crystallographic Data Centre
#                                CCDC 
#
#######################################################################
#
# If this CIF has been generated from an entry in the Cambridge 
# Structural Database, then it will include bibliographic, chemical, 
# crystal, experimental, refinement or atomic coordinate data resulting 
# from the CCDC's data processing and validation procedures.
#
#######################################################################

data_FORQEK
_symmetry_cell_setting           orthorhombic
_symmetry_space_group_name_H-M   'I 2 2 2'
_symmetry_Int_Tables_number      23
_space_group_name_Hall           'I 2 2'
loop_
_symmetry_equiv_pos_site_id
_symmetry_equiv_pos_as_xyz
1 x,y,z
2 -x,-y,z
3 -x,y,-z
4 x,-y,-z
5 1/2+x,1/2+y,1/2+z
6 1/2-x,1/2-y,1/2+z
7 1/2-x,1/2+y,1/2-z
8 1/2+x,1/2-y,1/2-z
_cell_length_a                   10.9793(18)
_cell_length_b                   16.526(3)
_cell_length_c                   22.757(4)
_cell_angle_alpha                90
_cell_angle_beta                 90
_cell_angle_gamma                90
_cell_volume                     4129.12
loop_
_atom_site_label
_atom_site_type_symbol
_atom_site_fract_x
_atom_site_fract_y
_atom_site_fract_z
O1 O 0.1989(19) 0.5822(9) 0.8856(8)
H21 H 0.248(14) 0.586(8) 0.914(6)
H22 H 0.189(14) 0.631(3) 0.874(6)
Sn1 Sn 0.26038(3) 0.83806(2) 0.884025(15)
Ga1 Ga 0.25905(8) 1.0000 1.0000
Ga2 Ga 0.5000 1.16555(6) 1.0000
Ga3 Ga 0.5000 1.0000 0.88184(4)
S1 S 0.37481(12) 1.08253(8) 0.94033(5)
S2 S 0.13271(12) 0.92550(8) 0.94173(6)
S3 S 0.37441(16) 0.74844(10) 0.94594(8)
S4 S 0.39382(16) 0.91324(11) 0.82113(7)
Mn1 Mn -0.10068(8) 0.77118(6) 0.84430(4)
S5 S 0.13123(14) 0.76045(11) 0.82408(7)
N1 N -0.1237(5) 0.9065(3) 0.8419(3)
H1 H -0.1834 0.9211 0.8668
H2 H -0.0542 0.9304 0.8537
N2 N -0.1261(5) 0.6353(3) 0.8308(2)
H3 H -0.0890 0.6203 0.7973
H4 H -0.0907 0.6085 0.8607
N3 N -0.1132(5) 0.7995(4) 0.7457(2)
H5 H -0.0522 0.7745 0.7265
H6 H -0.1842 0.7807 0.7314
N4 N -0.3095(5) 0.7513(4) 0.8473(3)
H7 H -0.3437 0.7844 0.8740
H8 H -0.3427 0.7618 0.8120
C1 C -0.3302(7) 0.6673(5) 0.8634(4)
H9 H -0.4155 0.6541 0.8578
H10 H -0.3108 0.6597 0.9046
C2 C -0.1057(13) 0.8846(6) 0.7364(4)
H11 H -0.1490 0.8976 0.7004
H12 H -0.0209 0.8989 0.7305
C3 C -0.1538(13) 0.9339(6) 0.7829(4)
H13 H -0.2417 0.9358 0.7791
H14 H -0.1235 0.9887 0.7780
N5 N -0.0856(5) 0.7699(3) 0.9442(2)
H15 H -0.0520 0.8169 0.9560
H16 H -0.1610 0.7673 0.9595
C4 C -0.0127(8) 0.7025(4) 0.9678(3)
H17 H 0.0647 0.7019 0.9473
H18 H -0.0543 0.6524 0.9583
C5 C -0.2552(7) 0.6130(4) 0.8278(4)
H19 H -0.2653 0.5579 0.8417
H20 H -0.2823 0.6151 0.7873
N5B N 0.0856(5) 0.7699(3) 1.0558(2)
H15B H 0.0520 0.8169 1.0440
H16B H 0.1610 0.7673 1.0405
C4B C 0.0127(8) 0.7025(4) 1.0322(3)
H17B H -0.0647 0.7019 1.0527
H18B H 0.0543 0.6524 1.0417
Sn1A Sn 0.73962(3) 1.16194(2) 0.884025(15)
S1A S 0.62519(12) 0.91747(8) 0.94033(5)
S2A S 0.86729(12) 1.07450(8) 0.94173(6)
S3A S 0.62559(16) 1.25156(10) 0.94594(8)
S4A S 0.60618(16) 1.08676(11) 0.82113(7)
Mn1A Mn 1.10068(8) 1.22882(6) 0.84430(4)
S5A S 0.86877(14) 1.23955(11) 0.82408(7)
N1A N 1.1237(5) 1.0935(3) 0.8419(3)
H1A H 1.1834 1.0789 0.8668
H2A H 1.0542 1.0696 0.8537
N2A N 1.1261(5) 1.3647(3) 0.8308(2)
H3A H 1.0890 1.3797 0.7973
H4A H 1.0907 1.3915 0.8607
N3A N 1.1132(5) 1.2005(4) 0.7457(2)
H5A H 1.0522 1.2255 0.7265
H6A H 1.1842 1.2193 0.7314
N4A N 1.3095(5) 1.2487(4) 0.8473(3)
H7A H 1.3437 1.2156 0.8740
H8A H 1.3427 1.2382 0.8120
C1A C 1.3302(7) 1.3327(5) 0.8634(4)
H9A H 1.4155 1.3459 0.8578
H10A H 1.3108 1.3403 0.9046
C2A C 1.1057(13) 1.1154(6) 0.7364(4)
H11A H 1.1490 1.1024 0.7004
H12A H 1.0209 1.1011 0.7305
C3A C 1.1538(13) 1.0661(6) 0.7829(4)
H13A H 1.2417 1.0642 0.7791
H14A H 1.1235 1.0113 0.7780
C5A C 1.2552(7) 1.3870(4) 0.8278(4)
H19A H 1.2653 1.4421 0.8417
H20A H 1.2823 1.3849 0.7873
Ga1A Ga 0.74095(8) 1.0000 1.0000
Ga2A Ga 0.5000 0.83445(6) 1.0000
S1B S 0.62519(12) 1.08253(8) 1.05967(5)
S1C S 0.37481(12) 0.91747(8) 1.05967(5)
S2C S 0.13271(12) 1.07450(8) 1.05827(6)
S3C S 0.37441(16) 1.25156(10) 1.05406(8)
Mn1B Mn 0.10068(8) 0.77118(6) 1.15570(4)
N5A N 1.0856(5) 1.2301(3) 0.9442(2)
Mn2? Mn 0.5000 1.16555(6) 1.0000
Mn3? Mn 0.25905(8) 1.0000 1.0000
Mn4? Mn 0.5000 1.0000 0.88184(4)
loop_
_geom_bond_atom_site_label_1
_geom_bond_atom_site_label_2
_geom_bond_site_symmetry_1
_geom_bond_site_symmetry_2
Sn1 S2 1_555 1_555
Ga1 S1 1_555 1_555
Ga2 S1 1_555 1_555
Ga3 S1 1_555 1_555
S2 Ga1 1_555 1_555
S3 Sn1 1_555 1_555
S4 Sn1 1_555 1_555
Mn1 S5 1_555 1_555
S5 Sn1 1_555 1_555
N1 Mn1 1_555 1_555
H1 N1 1_555 1_555
H2 N1 1_555 1_555
N2 Mn1 1_555 1_555
H3 N2 1_555 1_555
H4 N2 1_555 1_555
N3 Mn1 1_555 1_555
H5 N3 1_555 1_555
H6 N3 1_555 1_555
N4 Mn1 1_555 1_555
H7 N4 1_555 1_555
H8 N4 1_555 1_555
C1 N4 1_555 1_555
H9 C1 1_555 1_555
H10 C1 1_555 1_555
C2 N3 1_555 1_555
H11 C2 1_555 1_555
H12 C2 1_555 1_555
C3 N1 1_555 1_555
H13 C3 1_555 1_555
H14 C3 1_555 1_555
N5 Mn1 1_555 1_555
H15 N5 1_555 1_555
H16 N5 1_555 1_555
C4 N5 1_555 1_555
H17 C4 1_555 1_555
H18 C4 1_555 1_555
C5 N2 1_555 1_555
H19 C5 1_555 1_555
H20 C5 1_555 1_555
O1 H21 1_555 1_555
H22 O1 1_555 1_555
N5B H15B 1_555 1_555
H16B N5B 1_555 1_555
C4B C4 1_555 1_555
H17B C4B 1_555 1_555
H18B C4B 1_555 1_555
Sn1A S2A 1_555 1_555
S1A Ga3 1_555 1_555
S2A Ga1A 1_555 1_555
S3A Ga2 1_555 1_555
S4A Ga3 1_555 1_555
Mn1A S5A 1_555 1_555
S5A Sn1A 1_555 1_555
N1A Mn1A 1_555 1_555
H1A N1A 1_555 1_555
H2A N1A 1_555 1_555
N2A Mn1A 1_555 1_555
H3A N2A 1_555 1_555
H4A N2A 1_555 1_555
N3A Mn1A 1_555 1_555
H5A N3A 1_555 1_555
H6A N3A 1_555 1_555
N4A Mn1A 1_555 1_555
H7A N4A 1_555 1_555
H8A N4A 1_555 1_555
C1A N4A 1_555 1_555
H9A C1A 1_555 1_555
H10A C1A 1_555 1_555
C2A N3A 1_555 1_555
H11A C2A 1_555 1_555
H12A C2A 1_555 1_555
C3A N1A 1_555 1_555
H13A C3A 1_555 1_555
H14A C3A 1_555 1_555
C5A N2A 1_555 1_555
H19A C5A 1_555 1_555
H20A C5A 1_555 1_555
Ga1A S1A 1_555 1_555
Ga2A S3 1_555 1_555
S1B Ga2 1_555 1_555
S1C Ga1 1_555 1_555
S2C Ga1 1_555 1_555
S3C Ga2 1_555 1_555
Mn1B N5B 1_555 1_555
N5A Mn1A 1_555 1_555
Ga3 S4 1_555 1_555
C1 C5 1_555 1_555
C2 C3 1_555 1_555
N5B C4B 1_555 1_555
Sn1A S3A 1_555 1_555
Sn1A S4A 1_555 1_555
S1A Ga2A 1_555 1_555
C1A C5A 1_555 1_555
C2A C3A 1_555 1_555
Ga1A S1B 1_555 1_555
Ga2A S1C 1_555 1_555

#END
