
#######################################################################
#
#                 Cambridge Crystallographic Data Centre
#                                CCDC 
#
#######################################################################
#
# If this CIF has been generated from an entry in the Cambridge 
# Structural Database, then it will include bibliographic, chemical, 
# crystal, experimental, refinement or atomic coordinate data resulting 
# from the CCDC's data processing and validation procedures.
#
#######################################################################

data_FORQAF
_symmetry_cell_setting           monoclinic
_symmetry_space_group_name_H-M   'C c'
_symmetry_Int_Tables_number      9
_space_group_name_Hall           'C -2yc'
loop_
_symmetry_equiv_pos_site_id
_symmetry_equiv_pos_as_xyz
1 x,y,z
2 x,-y,1/2+z
3 1/2+x,1/2+y,z
4 1/2+x,1/2-y,1/2+z
_cell_length_a                   30.846(3)
_cell_length_b                   15.7730(17)
_cell_length_c                   22.189(2)
_cell_angle_alpha                90
_cell_angle_beta                 133.134(2)
_cell_angle_gamma                90
_cell_volume                     7878.24
loop_
_atom_site_label
_atom_site_type_symbol
_atom_site_fract_x
_atom_site_fract_y
_atom_site_fract_z
Ge1 Ge 0.51712(16) 0.86440(10) 0.9701(2)
Mo1 Mo 0.57310(11) 0.86707(14) 1.17209(15)
Mo2 Mo 0.65129(11) 0.96112(18) 1.13320(15)
Mo3 Mo 0.58859(12) 0.97633(16) 0.92206(17)
Mo4 Mo 0.46373(11) 0.86132(14) 0.76906(14)
Mo5 Mo 0.38134(13) 0.75603(16) 0.81192(16)
Mo6 Mo 0.44083(12) 0.74724(17) 1.01013(15)
Mo7 Mo 0.43669(13) 0.97792(17) 1.00427(17)
Mo8 Mo 0.51711(14) 1.09014(11) 0.9779(2)
Mo9 Mo 0.39230(11) 0.99216(18) 0.81454(15)
Mo10 Mo 0.64363(13) 0.74786(16) 1.13072(16)
Mo11 Mo 0.59382(11) 0.75683(17) 0.92743(15)
Mo12 Mo 0.50171(12) 0.63975(12) 0.94965(15)
O1 O 0.5774(7) 0.8593(10) 1.0716(10)
O2 O 0.5336(7) 0.8646(9) 0.9116(10)
O3 O 0.4704(8) 0.7773(10) 0.9425(10)
O4 O 0.4756(7) 0.9560(10) 0.9472(10)
O5 O 0.6330(8) 0.9431(11) 1.2017(10)
O6 O 0.6397(7) 0.9586(10) 1.0408(10)
O7 O 0.5261(8) 0.9473(11) 0.8085(10)
O8 O 0.4195(8) 0.7857(11) 0.7726(11)
O9 O 0.3689(9) 0.7397(12) 0.8850(11)
O10 O 0.5131(8) 0.7808(11) 1.1064(11)
O11 O 0.5127(8) 0.9488(11) 1.1067(10)
O12 O 0.5841(7) 1.0440(11) 1.0733(10)
O13 O 0.5439(7) 1.0481(11) 0.9244(10)
O14 O 0.4283(8) 0.9510(10) 0.7808(11)
O15 O 0.3668(8) 0.8731(10) 0.8054(11)
O16 O 0.4161(9) 0.8660(11) 0.9893(11)
O17 O 0.6277(8) 0.7748(12) 1.1992(11)
O18 O 0.6885(8) 0.8535(11) 1.1689(10)
O19 O 0.6249(8) 0.8624(11) 0.9312(11)
O20 O 0.5218(8) 0.7779(11) 0.8046(11)
O21 O 0.4225(9) 0.6492(11) 0.8478(11)
O22 O 0.4660(8) 0.6410(11) 1.0015(11)
O23 O 0.4748(8) 1.0859(11) 1.0148(11)
O24 O 0.4396(8) 1.0937(11) 0.8648(11)
O25 O 0.3749(8) 1.0078(11) 0.8859(11)
O26 O 0.6368(8) 0.7547(11) 1.0373(10)
O27 O 0.5356(8) 0.6815(10) 0.9149(10)
O28 O 0.5760(8) 0.6751(11) 1.0643(10)
O29 O 0.5886(10) 0.8655(11) 1.2581(12)
O30 O 0.7073(9) 1.0273(12) 1.2002(12)
O31 O 0.6309(9) 1.0351(13) 0.9167(13)
O32 O 0.4278(10) 0.8626(11) 0.6676(13)
O33 O 0.3144(8) 0.7232(12) 0.7252(11)
O34 O 0.4072(10) 0.7109(13) 1.0384(14)
O35 O 0.4009(10) 1.0229(13) 1.0268(13)
O36 O 0.5335(8) 1.1934(10) 0.9916(11)
O37 O 0.3275(9) 1.0336(12) 0.7299(13)
O38 O 0.6982(8) 0.6764(11) 1.1948(11)
O39 O 0.6267(9) 0.6894(12) 0.9084(12)
O40 O 0.5137(13) 0.5342(10) 0.9607(17)
La1 La 0.62790(6) 0.36364(8) 0.89285(8)
La2 La 0.68660(6) 0.62839(8) 0.73405(8)
La3 La 0.84739(6) 0.12942(8) 1.20544(8)
La4 La 0.90824(6) 0.13748(8) 1.54918(8)
N1 N 0.6801(9) 0.5050(14) 0.9769(13)
N2 N 0.6504(9) 0.7686(14) 0.7561(13)
N3 N 0.8831(9) 0.2691(13) 1.1827(12)
N4 N 0.8578(9) -0.0030(14) 1.4632(12)
O41 O 0.6505(9) 0.4760(11) 0.8378(12)
O42 O 0.6893(8) 0.5962(12) 0.8446(11)
O43 O 0.6440(8) 0.3875(11) 1.0205(11)
O44 O 0.6761(9) 0.4562(12) 1.1278(11)
O45 O 0.7644(8) 0.7343(12) 0.8477(11)
O46 O 0.7915(9) 0.8489(12) 0.9237(12)
O47 O 0.5772(9) 0.6485(11) 0.6514(12)
O48 O 0.4977(8) 0.7185(11) 0.6105(11)
O49 O 0.7702(8) 0.2346(12) 1.0927(11)
O50 O 0.7401(8) 0.3496(11) 1.0130(12)
O51 O 0.9574(8) 0.1453(11) 1.2882(12)
O52 O 1.0355(8) 0.2194(12) 1.3317(11)
O53 O 0.8967(9) 0.1150(11) 1.4277(11)
O54 O 0.8583(8) 0.0459(11) 1.3092(10)
O55 O 0.8838(8) 0.0257(10) 1.6025(10)
O56 O 0.8408(9) -0.0988(11) 1.5900(11)
O57 O 0.5432(8) 0.4760(11) 0.8440(11)
H1 H 0.5098 0.4514 0.8158
H2 H 0.5401 0.5145 0.8145
O58 O 0.6772(10) 0.2904(14) 0.8502(14)
H3 H 0.7044 0.3209 0.8608
H4 H 0.6519 0.2782 0.7991
O59 O 0.6520(10) 0.2183(13) 0.9568(13)
H5 H 0.6892 0.2091 0.9924
H6 H 0.6346 0.1793 0.9207
O60 O 0.5445(10) 0.3734(13) 0.7243(13)
H7 H 0.5477 0.3333 0.7019
H8 H 0.5450 0.4210 0.7067
O61 O 0.6330(8) 0.4845(11) 0.6997(11)
H9 H 0.6368 0.4697 0.7399
H10 H 0.6495 0.4468 0.6936
O62 O 0.7688(10) 0.5228(14) 0.8310(14)
H11 H 0.7951 0.5233 0.8286
H12 H 0.7558 0.4727 0.8239
O63 O 0.6508(9) 0.7313(12) 0.6124(12)
H13 H 0.6194 0.7569 0.5936
H14 H 0.6426 0.7023 0.5734
O64 O 0.7713(8) 0.6592(12) 0.7379(12)
H15 H 0.7647 0.7034 0.7109
H16 H 0.7782 0.6173 0.7214
O65 O 0.7600(8) 0.1651(11) 1.1944(12)
H17 H 0.7376 0.2035 1.1588
H18 H 0.7395 0.1216 1.1838
O66 O 0.8835(8) 0.2371(11) 1.3212(10)
H19 H 0.9122 0.2660 1.3343
H20 H 0.8553 0.2709 1.3028
O67 O 0.7591(9) 0.0290(13) 1.1032(13)
H21 H 0.7704 -0.0219 1.1087
H22 H 0.7338 0.0310 1.1077
O68 O 0.8893(9) -0.0198(11) 1.2296(12)
H23 H 0.8828 -0.0529 1.2529
H24 H 0.8784 -0.0425 1.1863
O69 O 0.8571(9) 0.2063(13) 1.5917(12)
H25 H 0.8602 0.2599 1.5954
H26 H 0.8211 0.1911 1.5618
O70 O 0.8821(9) 0.2835(13) 1.4827(13)
H27 H 0.8447 0.2916 1.4468
H28 H 0.8988 0.3225 1.5189
O71 O 0.9852(11) 0.1291(13) 1.7094(13)
H29 H 0.9812 0.1784 1.7205
H30 H 0.9614 0.0967 1.7057
O72 O 0.9927(9) 0.0242(12) 1.5990(12)
H31 H 0.9783 -0.0154 1.5639
H32 H 1.0208 0.0481 1.6066
C1 C 0.6806(11) 0.5430(16) 0.8749(15)
C2 C 0.7024(12) 0.5551(17) 0.9599(15)
C3 C 0.7421(14) 0.6212(17) 1.0129(17)
H37 H 0.7547 0.6600 0.9960
C4 C 0.7614(14) 0.6266(16) 1.0897(18)
H38 H 0.7931 0.6612 1.1308
C5 C 0.7315(13) 0.5784(17) 1.1028(17)
H39 H 0.7366 0.5890 1.1485
C6 C 0.6938(12) 0.5140(16) 1.0486(15)
C7 C 0.6675(12) 0.4474(16) 1.0662(16)
C8 C 0.7539(12) 0.8005(16) 0.8660(16)
C9 C 0.6890(12) 0.8274(16) 0.8104(16)
C10 C 0.6719(13) 0.8996(17) 0.8237(17)
H40 H 0.7003 0.9383 0.8636
C11 C 0.6119(12) 0.9149(17) 0.7772(17)
H41 H 0.5993 0.9632 0.7855
C12 C 0.5723(13) 0.8562(15) 0.7190(17)
H42 H 0.5317 0.8644 0.6861
C13 C 0.5934(11) 0.7820(16) 0.7088(15)
C14 C 0.5522(12) 0.7121(16) 0.6490(17)
C15 C 0.7795(11) 0.3040(15) 1.0726(15)
C16 C 0.8434(11) 0.3250(16) 1.1220(15)
C17 C 0.8622(12) 0.4007(16) 1.1146(16)
H43 H 0.8354 0.4411 1.0752
C18 C 0.9225(11) 0.4131(15) 1.1681(15)
H44 H 0.9359 0.4639 1.1644
C19 C 0.9647(12) 0.3549(15) 1.2274(17)
H45 H 1.0053 0.3646 1.2622
C20 C 0.9420(11) 0.2814(15) 1.2309(15)
C21 C 0.9814(11) 0.2115(15) 1.2873(16)
C22 C 0.8679(11) 0.0523(16) 1.3743(16)
C23 C 0.8422(11) -0.0119(16) 1.3902(15)
C24 C 0.8035(12) -0.0746(16) 1.3354(16)
H46 H 0.7924 -0.0797 1.2846
C25 C 0.7814(13) -0.1307(15) 1.3582(17)
H47 H 0.7592 -0.1777 1.3257
C26 C 0.7931(13) -0.1150(17) 1.4305(16)
H48 H 0.7738 -0.1457 1.4420
C27 C 0.8324(11) -0.0553(15) 1.4823(14)
C28 C 0.8549(12) -0.0418(16) 1.5653(15)
La1C La 1.12790(6) 0.13636(8) 1.39285(8)
La2A La 0.68660(6) 0.37161(8) 1.23405(8)
La3A La 0.84739(6) -0.12942(8) 1.70544(8)
La4A La 0.90824(6) 0.86252(8) 1.04918(8)
La4B La 0.40824(6) 0.63748(8) 0.54918(8)
O44A O 0.6761(9) 0.5438(12) 0.6278(11)
O46A O 0.7915(9) 0.1511(12) 1.4237(12)
O48B O 0.9977(8) 0.2185(11) 1.6105(11)
O52C O 0.5355(8) 0.2806(12) 0.8317(11)
O56A O 0.8408(9) 0.0988(11) 1.0900(11)
O73 O 0.7776(12) 0.3555(14) 0.8847(16)
H33 H 0.8142 0.3581 0.9103
H34 H 0.7577 0.3469 0.8338
O74 O 0.7549(13) 0.1426(18) 0.563(2)
H35 H 0.7172 0.1438 0.5278
H36 H 0.7681 0.1667 0.6068
loop_
_geom_bond_atom_site_label_1
_geom_bond_atom_site_label_2
_geom_bond_site_symmetry_1
_geom_bond_site_symmetry_2
Ge1 O1 1_555 1_555
La1 N1 1_555 1_555
La2 N2 1_555 1_555
La3 N3 1_555 1_555
La4 N4 1_555 1_555
Mo1 O1 1_555 1_555
Mo2 O1 1_555 1_555
Mo3 O2 1_555 1_555
Mo4 O2 1_555 1_555
Mo5 O3 1_555 1_555
Mo6 O3 1_555 1_555
Mo7 O4 1_555 1_555
Mo8 O4 1_555 1_555
Mo9 O4 1_555 1_555
Mo10 O1 1_555 1_555
Mo11 O2 1_555 1_555
Mo12 O3 1_555 1_555
N1 C2 1_555 1_555
N2 C9 1_555 1_555
N3 C16 1_555 1_555
N4 C23 1_555 1_555
O2 Ge1 1_555 1_555
O3 Ge1 1_555 1_555
O4 Ge1 1_555 1_555
O5 Mo1 1_555 1_555
O6 Mo2 1_555 1_555
O7 Mo3 1_555 1_555
O8 Mo4 1_555 1_555
O9 Mo5 1_555 1_555
O10 Mo1 1_555 1_555
O11 Mo1 1_555 1_555
O12 Mo2 1_555 1_555
O13 Mo3 1_555 1_555
O14 Mo4 1_555 1_555
O15 Mo5 1_555 1_555
O16 Mo6 1_555 1_555
O17 Mo1 1_555 1_555
O18 Mo2 1_555 1_555
O19 Mo3 1_555 1_555
O20 Mo4 1_555 1_555
O21 Mo5 1_555 1_555
O22 Mo6 1_555 1_555
O23 Mo7 1_555 1_555
O24 Mo8 1_555 1_555
O25 Mo7 1_555 1_555
O26 Mo10 1_555 1_555
O27 Mo11 1_555 1_555
O28 Mo10 1_555 1_555
O29 Mo1 1_555 1_555
O30 Mo2 1_555 1_555
O31 Mo3 1_555 1_555
O32 Mo4 1_555 1_555
O33 Mo5 1_555 1_555
O34 Mo6 1_555 1_555
O35 Mo7 1_555 1_555
O36 Mo8 1_555 1_555
O37 Mo9 1_555 1_555
O38 Mo10 1_555 1_555
O39 Mo11 1_555 1_555
O40 Mo12 1_555 1_555
O41 La1 1_555 1_555
O42 La2 1_555 1_555
O43 La1 1_555 1_555
O44 C7 1_555 1_555
O45 La2 1_555 1_555
O46 C8 1_555 1_555
O47 La2 1_555 1_555
O48 C14 1_555 1_555
O49 La3 1_555 1_555
O50 La1 1_555 1_555
O51 La3 1_555 1_555
O52 C21 1_555 1_555
O53 La4 1_555 1_555
O54 La3 1_555 1_555
O55 La4 1_555 1_555
O56 C28 1_555 1_555
O57 La1 1_555 1_555
H1 O57 1_555 1_555
H2 O57 1_555 1_555
O58 La1 1_555 1_555
H3 O58 1_555 1_555
H4 O58 1_555 1_555
O59 La1 1_555 1_555
H5 O59 1_555 1_555
H6 O59 1_555 1_555
O60 La1 1_555 1_555
H7 O60 1_555 1_555
H8 O60 1_555 1_555
O61 La2 1_555 1_555
H9 O61 1_555 1_555
H10 O61 1_555 1_555
O62 La2 1_555 1_555
H11 O62 1_555 1_555
H12 O62 1_555 1_555
O63 La2 1_555 1_555
H13 O63 1_555 1_555
H14 O63 1_555 1_555
O64 La2 1_555 1_555
H15 O64 1_555 1_555
H16 O64 1_555 1_555
O65 La3 1_555 1_555
H17 O65 1_555 1_555
H18 O65 1_555 1_555
O66 La3 1_555 1_555
H19 O66 1_555 1_555
H20 O66 1_555 1_555
O67 La3 1_555 1_555
H21 O67 1_555 1_555
H22 O67 1_555 1_555
O68 La3 1_555 1_555
H23 O68 1_555 1_555
H24 O68 1_555 1_555
O69 La4 1_555 1_555
H25 O69 1_555 1_555
H26 O69 1_555 1_555
O70 La4 1_555 1_555
H27 O70 1_555 1_555
H28 O70 1_555 1_555
O71 La4 1_555 1_555
H29 O71 1_555 1_555
H30 O71 1_555 1_555
O72 La4 1_555 1_555
H31 O72 1_555 1_555
H32 O72 1_555 1_555
O73 H33 1_555 1_555
H34 O73 1_555 1_555
O74 H35 1_555 1_555
H36 O74 1_555 1_555
C1 O41 1_555 1_555
C2 C1 1_555 1_555
C3 C2 1_555 1_555
H37 C3 1_555 1_555
C4 C3 1_555 1_555
H38 C4 1_555 1_555
C5 C4 1_555 1_555
H39 C5 1_555 1_555
C6 N1 1_555 1_555
C7 O43 1_555 1_555
C8 O45 1_555 1_555
C9 C8 1_555 1_555
C10 C9 1_555 1_555
H40 C10 1_555 1_555
C11 C10 1_555 1_555
H41 C11 1_555 1_555
C12 C11 1_555 1_555
H42 C12 1_555 1_555
C13 N2 1_555 1_555
C14 O47 1_555 1_555
C15 O49 1_555 1_555
C16 C15 1_555 1_555
C17 C16 1_555 1_555
H43 C17 1_555 1_555
C18 C17 1_555 1_555
H44 C18 1_555 1_555
C19 C18 1_555 1_555
H45 C19 1_555 1_555
C20 N3 1_555 1_555
C21 O51 1_555 1_555
C22 O53 1_555 1_555
C23 C22 1_555 1_555
C24 C23 1_555 1_555
H46 C24 1_555 1_555
C25 C24 1_555 1_555
H47 C25 1_555 1_555
C26 C25 1_555 1_555
H48 C26 1_555 1_555
C27 N4 1_555 1_555
C28 O55 1_555 1_555
La1C O52 1_555 1_555
La2A O44 1_555 1_555
La3A O56 1_555 1_555
La4A O46 1_555 1_555
La4B O48 1_555 1_555
O44A La2 1_555 1_555
O46A La4 1_555 1_555
O48B La4 1_555 1_555
O52C La1 1_555 1_555
O56A La3 1_555 1_555
Mo2 O5 1_555 1_555
Mo3 O6 1_555 1_555
Mo4 O7 1_555 1_555
Mo5 O8 1_555 1_555
Mo6 O9 1_555 1_555
Mo6 O10 1_555 1_555
Mo7 O11 1_555 1_555
Mo7 O16 1_555 1_555
Mo8 O12 1_555 1_555
Mo8 O13 1_555 1_555
Mo8 O23 1_555 1_555
Mo9 O14 1_555 1_555
Mo9 O15 1_555 1_555
Mo9 O24 1_555 1_555
Mo9 O25 1_555 1_555
Mo10 O17 1_555 1_555
Mo10 O18 1_555 1_555
Mo11 O19 1_555 1_555
Mo11 O20 1_555 1_555
Mo11 O26 1_555 1_555
Mo12 O21 1_555 1_555
Mo12 O22 1_555 1_555
Mo12 O27 1_555 1_555
Mo12 O28 1_555 1_555
O42 C1 1_555 1_555
O50 C15 1_555 1_555
O54 C22 1_555 1_555
C5 C6 1_555 1_555
C6 C7 1_555 1_555
C12 C13 1_555 1_555
C13 C14 1_555 1_555
C19 C20 1_555 1_555
C20 C21 1_555 1_555
C26 C27 1_555 1_555
C27 C28 1_555 1_555

#END
