
#######################################################################
#
#                 Cambridge Crystallographic Data Centre
#                                CCDC 
#
#######################################################################
#
# If this CIF has been generated from an entry in the Cambridge 
# Structural Database, then it will include bibliographic, chemical, 
# crystal, experimental, refinement or atomic coordinate data resulting 
# from the CCDC's data processing and validation procedures.
#
#######################################################################

data_FORWUF01
_symmetry_cell_setting           triclinic
_symmetry_space_group_name_H-M   'P -1'
_symmetry_Int_Tables_number      2
_space_group_name_Hall           '-P 1'
loop_
_symmetry_equiv_pos_site_id
_symmetry_equiv_pos_as_xyz
1 x,y,z
2 -x,-y,-z
_cell_length_a                   5.0752(8)
_cell_length_b                   12.0881(18)
_cell_length_c                   12.449(3)
_cell_angle_alpha                60.424(2)
_cell_angle_beta                 85.474(4)
_cell_angle_gamma                89.310(3)
_cell_volume                     661.836
loop_
_atom_site_label
_atom_site_type_symbol
_atom_site_fract_x
_atom_site_fract_y
_atom_site_fract_z
Fe1 Fe 0.45850(17) 0.37924(8) 0.62127(8)
Fe2 Fe 0.95996(17) 0.53190(8) 0.60892(8)
O1 O 0.6730(9) 0.2425(4) 0.7625(4)
O2 O 1.0710(9) 0.3350(4) 0.7215(4)
O3 O 0.1582(9) 0.5491(5) 0.7424(4)
O4 O 0.5495(9) 0.4875(5) 0.7042(4)
O5 O 0.1017(10) 0.2797(5) 0.4587(5)
O6 O 0.4159(11) 0.2377(5) 0.5863(5)
O7 O 0.7494(8) 0.4798(4) 0.5037(4)
C1 C 0.9116(13) 0.2397(6) 0.7799(6)
C2 C 1.0224(13) 0.1173(6) 0.8787(6)
H1 H 1.2102 0.1154 0.8545
C3 C 0.8852(19) -0.0024(7) 0.8964(7)
H2 H 0.6974 -0.0006 0.9169
H3 H 0.9074 -0.0054 0.8197
C4 C 1.0002(19) 0.1197(7) 1.0011(7)
H4 H 1.0933 0.1949 0.9895
H5 H 0.8157 0.1246 1.0248
C5 C 0.3915(13) 0.5257(6) 0.7637(5)
C6 C 0.5071(13) 0.5337(6) 0.8678(5)
H6 H 0.6818 0.5763 0.8371
C7 C 0.3403(14) 0.6070(7) 0.9172(6)
H7 H 0.3304 0.6947 0.8520
H8 H 0.1621 0.5702 0.9417
C8 C 0.5439(16) 0.3962(6) 0.9721(6)
H9 H 0.3742 0.3507 0.9990
H10 H 0.6604 0.3531 0.9401
C9 C 0.2749(13) 0.2119(6) 0.5231(6)
C10 C 0.3263(14) 0.0878(6) 0.5224(6)
H11 H 0.1565 0.0416 0.5412
C11 C 0.5125(18) 0.0013(7) 0.6163(7)
H12 H 0.6788 0.0471 0.6022
H13 H 0.4366 -0.0222 0.6990
C12 C 0.435(2) 0.1189(8) 0.3918(7)
H14 H 0.3094 0.1695 0.3330
H15 H 0.5986 0.1690 0.3694
Fe1A Fe 1.54150(17) -0.37924(8) 1.37873(8)
Fe1_2 Fe 1.45850(17) 0.37924(8) 0.62127(8)
Fe1A_2 Fe 0.54150(17) 0.62076(8) 0.37873(8)
Fe1A_3 Fe 0.54150(17) -0.37924(8) 1.37873(8)
Fe1A_4 Fe 0.54150(17) 0.62076(8) 1.37873(8)
Fe1A_5 Fe 0.54150(17) -0.37924(8) 0.37873(8)
Fe2A Fe 1.04004(17) -0.53190(8) 1.39108(8)
Fe2_2 Fe -0.04004(17) 0.53190(8) 0.60892(8)
Fe2A_2 Fe 0.04004(17) 0.46810(8) 0.39108(8)
Fe2A_3 Fe 1.04004(17) 0.46810(8) 0.39108(8)
Fe2A_4 Fe 1.04004(17) 0.46810(8) 1.39108(8)
Fe2A_5 Fe 0.04004(17) 0.46810(8) 1.39108(8)
Fe2_3 Fe 0.95996(17) -0.46810(8) 0.60892(8)
O1A O 1.3270(9) -0.2425(4) 1.2375(4)
O2A O 0.9290(9) -0.3350(4) 1.2785(4)
O2_2 O 0.0710(9) 0.3350(4) 0.7215(4)
O2A_2 O 1.9290(9) -0.3350(4) 1.2785(4)
O3A O 0.8418(9) 0.4509(5) 1.2576(4)
O3_2 O 1.1582(9) 0.5491(5) 0.7424(4)
O3A_2 O 0.8418(9) -0.5491(5) 1.2576(4)
O4A O 0.4505(9) 0.5125(5) 1.2958(4)
O4A_2 O 1.4505(9) -0.4875(5) 1.2958(4)
O5A O 0.8983(10) -0.2797(5) 0.5413(5)
O5A_2 O 0.8983(10) 0.7203(5) 0.5413(5)
O5_2 O 1.1017(10) -0.7203(5) 1.4587(5)
O6A O 0.5841(11) -0.2377(5) 0.4137(5)
O6A_2 O 1.5841(11) -0.2377(5) 1.4137(5)
O7A O 0.2506(8) 0.5202(4) 0.4963(4)
O7A_2 O 1.2506(8) 0.5202(4) 0.4963(4)
O7A_3 O 1.2506(8) -0.4798(4) 1.4963(4)
O7_2 O 1.7494(8) -0.5202(4) 1.5037(4)
O7_3 O 0.7494(8) -0.5202(4) 1.5037(4)
C1A C 1.0884(13) -0.2397(6) 1.2201(6)
C2A C 0.9776(13) -0.1173(6) 1.1213(6)
H1A H 0.7898 -0.1154 1.1455
C3A C 1.1148(19) 0.0024(7) 1.1036(7)
H2A H 1.3026 0.0006 1.0831
H3A H 1.0926 0.0054 1.1803
C4A C 0.9998(19) -0.1197(7) 0.9989(7)
H4A H 0.9067 -0.1949 1.0105
H5A H 1.1843 -0.1246 0.9752
C5A C 0.6085(13) 0.4743(6) 1.2363(5)
C6A C 0.4929(13) 0.4663(6) 1.1322(5)
H6A H 0.3182 0.4237 1.1629
C7A C 0.6597(14) 0.3930(7) 1.0828(6)
H7A H 0.6696 0.3053 1.1480
H8A H 0.8379 0.4298 1.0583
C8A C 0.4561(16) 0.6038(6) 1.0279(6)
H9A H 0.6258 0.6493 1.0010
H10A H 0.3396 0.6469 1.0599
C9A C 0.7251(13) -0.2119(6) 0.4769(6)
C10A C 0.6737(14) -0.0878(6) 0.4776(6)
H11A H 0.8435 -0.0416 0.4588
C11A C 0.4875(18) -0.0013(7) 0.3837(7)
H12A H 0.3212 -0.0471 0.3978
H13A H 0.5634 0.0222 0.3010
C12A C 0.565(2) -0.1189(8) 0.6082(7)
H14A H 0.6906 -0.1695 0.6670
H15A H 0.4014 -0.1690 0.6306
loop_
_geom_bond_atom_site_label_1
_geom_bond_atom_site_label_2
_geom_bond_site_symmetry_1
_geom_bond_site_symmetry_2
Fe1 O1 1_555 1_555
Fe2 O2 1_555 1_555
O1 C1 1_555 1_555
O2 C1 1_555 1_555
O3 C5 1_555 1_555
O4 Fe1 1_555 1_555
O5 C9 1_555 1_555
O6 Fe1 1_555 1_555
O7 Fe1 1_555 1_555
C1 C2 1_555 1_555
C2 H1 1_555 1_555
C3 C2 1_555 1_555
H2 C3 1_555 1_555
H3 C3 1_555 1_555
C4 C2 1_555 1_555
H4 C4 1_555 1_555
H5 C4 1_555 1_555
C5 O4 1_555 1_555
C6 C5 1_555 1_555
H6 C6 1_555 1_555
C7 C6 1_555 1_555
H7 C7 1_555 1_555
H8 C7 1_555 1_555
C8 C6 1_555 1_555
H9 C8 1_555 1_555
H10 C8 1_555 1_555
C9 O6 1_555 1_555
C10 C9 1_555 1_555
H11 C10 1_555 1_555
C11 C10 1_555 1_555
H12 C11 1_555 1_555
H13 C11 1_555 1_555
C12 C10 1_555 1_555
H14 C12 1_555 1_555
H15 C12 1_555 1_555
Fe1A O1A 1_555 1_555
Fe1_2 O2 1_555 1_555
Fe1A_2 O7 1_555 1_555
Fe1A_3 O2A 1_555 1_555
Fe1A_4 O4A 1_555 1_555
Fe1A_5 O6A 1_555 1_555
Fe2A O2A 1_555 1_555
Fe2_2 O3 1_555 1_555
Fe2A_2 O5 1_555 1_555
Fe2A_3 O7 1_555 1_555
Fe2A_4 O3A 1_555 1_555
Fe2A_5 O4A 1_555 1_555
Fe2_3 O5A 1_555 1_555
O1A C1A 1_555 1_555
O2A C1A 1_555 1_555
O2_2 Fe1 1_555 1_555
O2A_2 Fe1A 1_555 1_555
O3A C5A 1_555 1_555
O3_2 Fe2 1_555 1_555
O3A_2 Fe2A 1_555 1_555
O4A C5A 1_555 1_555
O4A_2 Fe1A 1_555 1_555
O5A C9A 1_555 1_555
O5A_2 Fe2 1_555 1_555
O5_2 Fe2A 1_555 1_555
O6A C9A 1_555 1_555
O6A_2 Fe1A 1_555 1_555
O7A Fe1 1_555 1_555
O7A_2 Fe2 1_555 1_555
O7A_3 Fe1A 1_555 1_555
O7_2 Fe1A 1_555 1_555
O7_3 Fe1A_3 1_555 1_555
C1A C2A 1_555 1_555
C2A H1A 1_555 1_555
C3A C4 1_555 1_555
H2A C3A 1_555 1_555
H3A C3A 1_555 1_555
C4A C3 1_555 1_555
H4A C4A 1_555 1_555
H5A C4A 1_555 1_555
C5A C6A 1_555 1_555
C6A H6A 1_555 1_555
C7A C8 1_555 1_555
H7A C7A 1_555 1_555
H8A C7A 1_555 1_555
C8A C7 1_555 1_555
H9A C8A 1_555 1_555
H10A C8A 1_555 1_555
C9A C10A 1_555 1_555
C10A H11A 1_555 1_555
C11A C12 1_555 1_555
H12A C11A 1_555 1_555
H13A C11A 1_555 1_555
C12A C11 1_555 1_555
H14A C12A 1_555 1_555
H15A C12A 1_555 1_555
Fe2 O4 1_555 1_555
Fe2 O7 1_555 1_555
Fe1_2 O7A_2 1_555 1_555
Fe1A_2 O7A 1_555 1_555
Fe2A O4A_2 1_555 1_555
Fe2A O7A_3 1_555 1_555
Fe2A O7_3 1_555 1_555
Fe2_2 O2_2 1_555 1_555
Fe2_2 O7A 1_555 1_555
Fe2A_2 O7A 1_555 1_555
Fe2A_3 O7A_2 1_555 1_555
C2A C3A 1_555 1_555
C2A C4A 1_555 1_555
C6A C7A 1_555 1_555
C6A C8A 1_555 1_555
C10A C11A 1_555 1_555
C10A C12A 1_555 1_555

#END
