
#######################################################################
#
#                 Cambridge Crystallographic Data Centre
#                                CCDC 
#
#######################################################################
#
# If this CIF has been generated from an entry in the Cambridge 
# Structural Database, then it will include bibliographic, chemical, 
# crystal, experimental, refinement or atomic coordinate data resulting 
# from the CCDC's data processing and validation procedures.
#
#######################################################################

data_FORWUF02
_symmetry_cell_setting           triclinic
_symmetry_space_group_name_H-M   'P -1'
_symmetry_Int_Tables_number      2
_space_group_name_Hall           '-P 1'
loop_
_symmetry_equiv_pos_site_id
_symmetry_equiv_pos_as_xyz
1 x,y,z
2 -x,-y,-z
_cell_length_a                   5.097(2)
_cell_length_b                   12.134(8)
_cell_length_c                   12.474(15)
_cell_angle_alpha                60.64(8)
_cell_angle_beta                 85.47(7)
_cell_angle_gamma                88.85(4)
_cell_volume                     670.133
loop_
_atom_site_label
_atom_site_type_symbol
_atom_site_fract_x
_atom_site_fract_y
_atom_site_fract_z
Fe1 Fe 0.4618(5) 0.3776(2) 0.6217(2)
Fe2 Fe 0.9601(5) 0.5305(2) 0.6090(2)
O1 O 0.675(3) 0.2428(11) 0.7611(12)
O2 O 1.068(2) 0.3363(11) 0.7231(11)
O3 O 0.165(3) 0.5482(13) 0.7416(11)
O4 O 0.557(2) 0.4891(14) 0.7035(11)
O5 O 0.110(3) 0.2841(14) 0.4570(15)
O6 O 0.414(3) 0.2362(14) 0.5864(15)
O7 O 0.751(2) 0.4794(11) 0.5018(11)
C1 C 0.914(3) 0.2392(15) 0.7792(15)
C2 C 1.024(4) 0.1186(17) 0.8815(17)
H1 H 1.2118 0.1172 0.8591
C3 C 0.897(6) -0.001(2) 0.897(2)
H2 H 0.7081 0.0010 0.9128
H3 H 0.9286 -0.0037 0.8201
C4 C 0.998(6) 0.1190(19) 1.000(2)
H4 H 0.8137 0.1266 1.0213
H5 H 1.0925 0.1921 0.9908
C5 C 0.398(4) 0.5255(14) 0.7639(13)
C6 C 0.508(3) 0.5337(17) 0.8700(14)
H6 H 0.6803 0.5772 0.8407
C7 C 0.335(4) 0.605(2) 0.9182(17)
H7 H 0.1602 0.5663 0.9435
H8 H 0.3186 0.6917 0.8529
C8 C 0.551(5) 0.395(2) 0.9720(18)
H9 H 0.3840 0.3482 0.9987
H10 H 0.6701 0.3535 0.9390
C9 C 0.279(4) 0.214(2) 0.5214(18)
C10 C 0.328(4) 0.090(2) 0.5192(18)
H11 H 0.1585 0.0458 0.5355
C11 C 0.442(7) 0.119(2) 0.393(2)
H12 H 0.3216 0.1719 0.3323
H13 H 0.6067 0.1662 0.3738
C12 C 0.509(6) 0.002(2) 0.615(2)
H14 H 0.6756 0.0459 0.6021
H15 H 0.4309 -0.0196 0.6964
Fe1A Fe 1.5382(5) -0.3776(2) 1.3783(2)
Fe1_2 Fe 1.4618(5) 0.3776(2) 0.6217(2)
Fe1A_2 Fe 0.5382(5) 0.6224(2) 0.3783(2)
Fe1A_3 Fe 0.5382(5) -0.3776(2) 1.3783(2)
Fe1A_4 Fe 0.5382(5) 0.6224(2) 1.3783(2)
Fe1A_5 Fe 0.5382(5) -0.3776(2) 0.3783(2)
Fe2A Fe 1.0399(5) -0.5305(2) 1.3910(2)
Fe2_2 Fe -0.0399(5) 0.5305(2) 0.6090(2)
Fe2A_2 Fe 0.0399(5) 0.4695(2) 0.3910(2)
Fe2A_3 Fe 1.0399(5) 0.4695(2) 0.3910(2)
Fe2A_4 Fe 1.0399(5) 0.4695(2) 1.3910(2)
Fe2A_5 Fe 0.0399(5) 0.4695(2) 1.3910(2)
Fe2_3 Fe 0.9601(5) -0.4695(2) 0.6090(2)
O1A O 1.325(3) -0.2428(11) 1.2389(12)
O2A O 0.932(2) -0.3363(11) 1.2769(11)
O2_2 O 0.068(2) 0.3363(11) 0.7231(11)
O2A_2 O 1.932(2) -0.3363(11) 1.2769(11)
O3A O 0.835(3) 0.4518(13) 1.2584(11)
O3_2 O 1.165(3) 0.5482(13) 0.7416(11)
O3A_2 O 0.835(3) -0.5482(13) 1.2584(11)
O4A O 0.443(2) 0.5109(14) 1.2965(11)
O4A_2 O 1.443(2) -0.4891(14) 1.2965(11)
O5A O 0.890(3) -0.2841(14) 0.5430(15)
O5A_2 O 0.890(3) 0.7159(14) 0.5430(15)
O5_2 O 1.110(3) -0.7159(14) 1.4570(15)
O6A O 0.586(3) -0.2362(14) 0.4136(15)
O6A_2 O 1.586(3) -0.2362(14) 1.4136(15)
O7A O 0.249(2) 0.5206(11) 0.4982(11)
O7A_2 O 1.249(2) 0.5206(11) 0.4982(11)
O7A_3 O 1.249(2) -0.4794(11) 1.4982(11)
O7_2 O 1.751(2) -0.5206(11) 1.5018(11)
O7_3 O 0.751(2) -0.5206(11) 1.5018(11)
C1A C 1.086(3) -0.2392(15) 1.2208(15)
C2A C 0.976(4) -0.1186(17) 1.1185(17)
H1A H 0.7882 -0.1172 1.1409
C3A C 1.103(6) 0.001(2) 1.103(2)
H2A H 1.2919 -0.0010 1.0872
H3A H 1.0714 0.0037 1.1799
C4A C 1.002(6) -0.1190(19) 1.000(2)
H4A H 1.1863 -0.1266 0.9787
H5A H 0.9075 -0.1921 1.0092
C5A C 0.602(4) 0.4745(14) 1.2361(13)
C6A C 0.492(3) 0.4663(17) 1.1300(14)
H6A H 0.3197 0.4228 1.1593
C7A C 0.665(4) 0.395(2) 1.0818(17)
H7A H 0.8398 0.4337 1.0565
H8A H 0.6814 0.3083 1.1471
C8A C 0.449(5) 0.605(2) 1.0280(18)
H9A H 0.6160 0.6518 1.0013
H10A H 0.3299 0.6465 1.0610
C9A C 0.721(4) -0.214(2) 0.4786(18)
C10A C 0.672(4) -0.090(2) 0.4808(18)
H11A H 0.8415 -0.0458 0.4645
C11A C 0.558(7) -0.119(2) 0.607(2)
H12A H 0.6784 -0.1719 0.6677
H13A H 0.3933 -0.1662 0.6262
C12A C 0.491(6) -0.002(2) 0.385(2)
H14A H 0.3244 -0.0459 0.3979
H15A H 0.5691 0.0196 0.3036
loop_
_geom_bond_atom_site_label_1
_geom_bond_atom_site_label_2
_geom_bond_site_symmetry_1
_geom_bond_site_symmetry_2
Fe1 O1 1_555 1_555
Fe2 O2 1_555 1_555
O1 C1 1_555 1_555
O2 C1 1_555 1_555
O3 C5 1_555 1_555
O4 Fe1 1_555 1_555
O5 C9 1_555 1_555
O6 Fe1 1_555 1_555
O7 Fe1 1_555 1_555
C1 C2 1_555 1_555
C2 H1 1_555 1_555
C3 C2 1_555 1_555
H2 C3 1_555 1_555
H3 C3 1_555 1_555
C4 C2 1_555 1_555
H4 C4 1_555 1_555
H5 C4 1_555 1_555
C5 O4 1_555 1_555
C6 C5 1_555 1_555
H6 C6 1_555 1_555
C7 C6 1_555 1_555
H7 C7 1_555 1_555
H8 C7 1_555 1_555
C8 C6 1_555 1_555
H9 C8 1_555 1_555
H10 C8 1_555 1_555
C9 O6 1_555 1_555
C10 C9 1_555 1_555
H11 C10 1_555 1_555
C11 C10 1_555 1_555
H12 C11 1_555 1_555
H13 C11 1_555 1_555
C12 C10 1_555 1_555
H14 C12 1_555 1_555
H15 C12 1_555 1_555
Fe1A O1A 1_555 1_555
Fe1_2 O2 1_555 1_555
Fe1A_2 O7 1_555 1_555
Fe1A_3 O2A 1_555 1_555
Fe1A_4 O4A 1_555 1_555
Fe1A_5 O6A 1_555 1_555
Fe2A O2A 1_555 1_555
Fe2_2 O3 1_555 1_555
Fe2A_2 O5 1_555 1_555
Fe2A_3 O7 1_555 1_555
Fe2A_4 O3A 1_555 1_555
Fe2A_5 O4A 1_555 1_555
Fe2_3 O5A 1_555 1_555
O1A C1A 1_555 1_555
O2A C1A 1_555 1_555
O2_2 Fe1 1_555 1_555
O2A_2 Fe1A 1_555 1_555
O3A C5A 1_555 1_555
O3_2 Fe2 1_555 1_555
O3A_2 Fe2A 1_555 1_555
O4A C5A 1_555 1_555
O4A_2 Fe1A 1_555 1_555
O5A C9A 1_555 1_555
O5A_2 Fe2 1_555 1_555
O5_2 Fe2A 1_555 1_555
O6A C9A 1_555 1_555
O6A_2 Fe1A 1_555 1_555
O7A Fe1 1_555 1_555
O7A_2 Fe2 1_555 1_555
O7A_3 Fe1A 1_555 1_555
O7_2 Fe1A 1_555 1_555
O7_3 Fe1A_3 1_555 1_555
C1A C2A 1_555 1_555
C2A H1A 1_555 1_555
C3A C4 1_555 1_555
H2A C3A 1_555 1_555
H3A C3A 1_555 1_555
C4A C3 1_555 1_555
H4A C4A 1_555 1_555
H5A C4A 1_555 1_555
C5A C6A 1_555 1_555
C6A H6A 1_555 1_555
C7A C8 1_555 1_555
H7A C7A 1_555 1_555
H8A C7A 1_555 1_555
C8A C7 1_555 1_555
H9A C8A 1_555 1_555
H10A C8A 1_555 1_555
C9A C10A 1_555 1_555
C10A H11A 1_555 1_555
C11A C12 1_555 1_555
H12A C11A 1_555 1_555
H13A C11A 1_555 1_555
C12A C11 1_555 1_555
H14A C12A 1_555 1_555
H15A C12A 1_555 1_555
Fe2 O4 1_555 1_555
Fe2 O7 1_555 1_555
Fe1_2 O7A_2 1_555 1_555
Fe1A_2 O7A 1_555 1_555
Fe2A O4A_2 1_555 1_555
Fe2A O7A_3 1_555 1_555
Fe2A O7_3 1_555 1_555
Fe2_2 O2_2 1_555 1_555
Fe2_2 O7A 1_555 1_555
Fe2A_2 O7A 1_555 1_555
Fe2A_3 O7A_2 1_555 1_555
C2A C3A 1_555 1_555
C2A C4A 1_555 1_555
C6A C7A 1_555 1_555
C6A C8A 1_555 1_555
C10A C11A 1_555 1_555
C10A C12A 1_555 1_555

#END
