
#######################################################################
#
#                 Cambridge Crystallographic Data Centre
#                                CCDC 
#
#######################################################################
#
# If this CIF has been generated from an entry in the Cambridge 
# Structural Database, then it will include bibliographic, chemical, 
# crystal, experimental, refinement or atomic coordinate data resulting 
# from the CCDC's data processing and validation procedures.
#
#######################################################################

data_FORZES
_symmetry_cell_setting           monoclinic
_symmetry_space_group_name_H-M   'P 21/c'
_symmetry_Int_Tables_number      14
_space_group_name_Hall           '-P 2ybc'
loop_
_symmetry_equiv_pos_site_id
_symmetry_equiv_pos_as_xyz
1 x,y,z
2 -x,1/2+y,1/2-z
3 -x,-y,-z
4 x,1/2-y,1/2+z
_cell_length_a                   9.7370(6)
_cell_length_b                   20.7721(10)
_cell_length_c                   8.7033(4)
_cell_angle_alpha                90
_cell_angle_beta                 107.507(5)
_cell_angle_gamma                90
_cell_volume                     1678.77
loop_
_atom_site_label
_atom_site_type_symbol
_atom_site_fract_x
_atom_site_fract_y
_atom_site_fract_z
C1 C -0.2446(3) 0.32725(11) 1.0302(3)
C2 C -0.3629(3) 0.43253(12) 1.0160(3)
H1 H -0.3731 0.4668 0.9377
H2 H -0.3438 0.4519 1.1218
C3 C -0.5008(3) 0.39353(12) 0.9769(3)
H3 H -0.5771 0.4194 0.9957
H4 H -0.5298 0.3811 0.8643
C4 C -0.4772(3) 0.33383(13) 1.0819(3)
H5 H -0.4598 0.3459 1.1938
H6 H -0.5622 0.3067 1.0500
C5 C 0.0809(3) 0.09632(11) 0.9052(3)
C6 C 0.2668(3) 0.11705(13) 0.7769(3)
H7 H 0.3348 0.1484 0.8393
H8 H 0.2606 0.1224 0.6642
C7 C 0.3177(3) 0.04965(13) 0.8318(3)
H9 H 0.2585 0.0185 0.7581
H10 H 0.4165 0.0442 0.8311
C8 C 0.3083(3) 0.03807(13) 0.9994(3)
H11 H 0.3306 -0.0065 1.0297
H12 H 0.3771 0.0651 1.0759
N1 N -0.2430(2) 0.39048(10) 1.0128(2)
H13 H -0.175(2) 0.4044(13) 0.990(3)
N2 N -0.3533(2) 0.29890(10) 1.0629(3)
H14 H -0.354(3) 0.2604(8) 1.070(3)
N3 N 0.1247(2) 0.12746(10) 0.7988(2)
H15 H 0.066(3) 0.1559(14) 0.738(3)
N4 N 0.1621(2) 0.05322(10) 1.0011(2)
H16 H 0.131(3) 0.0348(13) 1.068(3)
S1 S -0.09807(7) 0.28359(3) 1.01157(7)
S2 S -0.09491(7) 0.11032(3) 0.91414(7)
Br1 Br 0.21568(3) 0.202981(12) 1.19103(3)
Br2 Br -0.35394(3) 0.137664(12) 1.08613(3)
Br3 Br 0.04593(3) 0.053633(12) 1.34637(3)
Sb1 Sb -0.049980(17) 0.166431(7) 1.181152(17)
S1C S -0.09807(7) 0.21641(3) 1.51157(7)
Sb1C Sb -0.049980(17) 0.333569(7) 0.681152(17)
loop_
_geom_bond_atom_site_label_1
_geom_bond_atom_site_label_2
_geom_bond_site_symmetry_1
_geom_bond_site_symmetry_2
C1 N1 1_555 1_555
C2 H1 1_555 1_555
H2 C2 1_555 1_555
C3 C2 1_555 1_555
H3 C3 1_555 1_555
H4 C3 1_555 1_555
C4 C3 1_555 1_555
H5 C4 1_555 1_555
H6 C4 1_555 1_555
C5 N3 1_555 1_555
C6 H7 1_555 1_555
H8 C6 1_555 1_555
C7 C6 1_555 1_555
H9 C7 1_555 1_555
H10 C7 1_555 1_555
C8 C7 1_555 1_555
H11 C8 1_555 1_555
H12 C8 1_555 1_555
N1 C2 1_555 1_555
H13 N1 1_555 1_555
N2 C1 1_555 1_555
H14 N2 1_555 1_555
N3 C6 1_555 1_555
H15 N3 1_555 1_555
N4 C5 1_555 1_555
H16 N4 1_555 1_555
S1 C1 1_555 1_555
S2 C5 1_555 1_555
Br1 Sb1 1_555 1_555
Br2 Sb1 1_555 1_555
Br3 Sb1 1_555 1_555
Sb1 S1 1_555 1_555
S1C Sb1 1_555 1_555
Sb1C S1 1_555 1_555
C4 N2 1_555 1_555
C8 N4 1_555 1_555
S2 Sb1 1_555 1_555

#END
