
#######################################################################
#
#                 Cambridge Crystallographic Data Centre
#                                CCDC 
#
#######################################################################
#
# If this CIF has been generated from an entry in the Cambridge 
# Structural Database, then it will include bibliographic, chemical, 
# crystal, experimental, refinement or atomic coordinate data resulting 
# from the CCDC's data processing and validation procedures.
#
#######################################################################

data_FOSJIH
_symmetry_cell_setting           monoclinic
_symmetry_space_group_name_H-M   'P 21/n'
_symmetry_Int_Tables_number      14
_space_group_name_Hall           '-P 2yn'
loop_
_symmetry_equiv_pos_site_id
_symmetry_equiv_pos_as_xyz
1 x,y,z
2 1/2-x,1/2+y,1/2-z
3 -x,-y,-z
4 1/2+x,1/2-y,1/2+z
_cell_length_a                   16.5319(4)
_cell_length_b                   9.3947(2)
_cell_length_c                   19.0116(4)
_cell_angle_alpha                90
_cell_angle_beta                 95.338(1)
_cell_angle_gamma                90
_cell_volume                     2939.93
loop_
_atom_site_label
_atom_site_type_symbol
_atom_site_fract_x
_atom_site_fract_y
_atom_site_fract_z
Cu1 Cu 0.35298(4) 0.07206(6) 0.30884(3)
Cu2 Cu 0.41315(3) 0.22631(6) 0.17992(3)
O1 O 0.2806(3) -0.0199(6) 0.3873(3)
O2 O 0.4245(2) 0.3965(4) 0.09925(19)
N1 N 0.4254(2) 0.0675(4) 0.1116(2)
N2 N 0.5301(2) 0.1809(4) 0.20590(19)
C1 C 0.3678(3) 0.0162(6) 0.0635(3)
C2 C 0.3806(4) -0.1011(7) 0.0229(3)
C3 C 0.4546(4) -0.1680(7) 0.0310(3)
C4 C 0.5139(4) -0.1153(6) 0.0787(3)
C5 C 0.4988(3) 0.0035(5) 0.1184(2)
C6 C 0.5587(3) 0.0727(5) 0.1696(3)
C7 C 0.6397(3) 0.0323(7) 0.1803(3)
C8 C 0.6897(3) 0.1030(8) 0.2300(4)
C9 C 0.6607(3) 0.2127(7) 0.2672(3)
C10 C 0.5803(3) 0.2509(6) 0.2542(3)
N3 N 0.4089(2) -0.0982(4) 0.2738(2)
N4 N 0.4542(2) 0.0816(4) 0.3740(2)
C11 C 0.3786(3) -0.1891(5) 0.2231(3)
C12 C 0.4224(4) -0.3023(6) 0.2024(3)
C13 C 0.4995(4) -0.3244(7) 0.2333(4)
C14 C 0.5313(4) -0.2330(6) 0.2848(4)
C15 C 0.4847(3) -0.1195(5) 0.3052(3)
C16 C 0.5109(3) -0.0166(5) 0.3616(3)
C17 C 0.5856(4) -0.0167(8) 0.4000(4)
C18 C 0.6025(4) 0.0850(9) 0.4508(4)
C19 C 0.5440(4) 0.1802(8) 0.4652(4)
C20 C 0.4695(4) 0.1757(6) 0.4265(3)
O3 O 0.26236(18) 0.0515(3) 0.23652(16)
O4 O 0.29418(17) 0.2242(3) 0.16182(16)
O5 O 0.08855(18) -0.1293(3) 0.24577(16)
O6 O 0.17187(18) -0.2252(3) 0.17211(16)
C21 C 0.2463(2) 0.1302(4) 0.1833(2)
C22 C 0.1676(2) 0.1122(5) 0.1418(2)
C23 C 0.1181(3) 0.0033(5) 0.1471(2)
C24 C 0.1292(2) -0.1260(5) 0.1933(2)
H1 H 0.272(3) 0.035(5) 0.413(3)
H2 H 0.251(4) -0.059(7) 0.374(3)
H3 H 0.317(4) 0.064(7) 0.062(3)
H4 H 0.337(4) -0.137(7) -0.007(3)
H5 H 0.453(4) -0.243(7) 0.001(3)
H6 H 0.570(4) -0.139(7) 0.083(3)
H7 H 0.656(4) -0.040(6) 0.157(3)
H8 H 0.752(6) 0.077(10) 0.244(5)
H9 H 0.695(4) 0.267(6) 0.302(3)
H10 H 0.562(2) 0.324(5) 0.275(2)
H11 H 0.333(3) -0.170(5) 0.201(2)
H12 H 0.400(3) -0.357(7) 0.173(3)
H13 H 0.534(3) -0.408(6) 0.220(3)
H14 H 0.577(4) -0.235(6) 0.302(3)
H15 H 0.617(5) -0.081(8) 0.388(4)
H16 H 0.668(4) 0.112(6) 0.478(3)
H17 H 0.554(4) 0.241(7) 0.494(4)
H18 H 0.427(3) 0.242(6) 0.438(3)
H19 H 0.155(2) 0.184(5) 0.107(2)
H20 H 0.064(3) -0.003(5) 0.120(3)
Cu1A Cu 0.14702(4) -0.42794(6) 0.19116(3)
Cu2A Cu 0.08685(3) -0.27369(6) 0.32008(3)
O5A O 0.41145(18) 0.3707(3) 0.25423(16)
O6A O 0.32813(18) 0.2748(3) 0.32789(16)
Cl1 Cl 0.85180(8) 0.03344(14) 0.07162(7)
O7 O 0.8115(5) 0.1525(9) 0.0858(7)
O8 O 0.8022(4) -0.0709(6) 0.0389(4)
O9 O 0.9124(9) 0.0616(15) 0.0360(7)
O10 O 0.8896(8) -0.0111(9) 0.1317(5)
Cl2 Cl 0.84756(9) 0.03169(19) 0.41445(9)
O11 O 0.8039(10) -0.0745(13) 0.3951(7)
O12 O 0.8213(6) 0.0919(18) 0.4710(4)
O13 O 0.9283(4) 0.0104(12) 0.4299(5)
O14 O 0.8348(6) 0.1268(11) 0.3579(5)
O15 O 0.2512(6) 0.1851(12) 0.4641(6)
loop_
_geom_bond_atom_site_label_1
_geom_bond_atom_site_label_2
_geom_bond_site_symmetry_1
_geom_bond_site_symmetry_2
Cu1 O1 1_555 1_555
Cu2 O2 1_555 1_555
O1 H1 1_555 1_555
N1 Cu2 1_555 1_555
N2 Cu2 1_555 1_555
C1 N1 1_555 1_555
C2 C1 1_555 1_555
C3 C2 1_555 1_555
C4 C3 1_555 1_555
C5 N1 1_555 1_555
C6 N2 1_555 1_555
C7 C6 1_555 1_555
C8 C7 1_555 1_555
C9 C8 1_555 1_555
C10 N2 1_555 1_555
N3 Cu1 1_555 1_555
N4 Cu1 1_555 1_555
C11 N3 1_555 1_555
C12 C11 1_555 1_555
C13 C12 1_555 1_555
C14 C13 1_555 1_555
C15 N3 1_555 1_555
C16 N4 1_555 1_555
C17 C16 1_555 1_555
C18 C17 1_555 1_555
C19 C18 1_555 1_555
C20 N4 1_555 1_555
O3 Cu1 1_555 1_555
O4 Cu2 1_555 1_555
O5 C24 1_555 1_555
O6 C24 1_555 1_555
C21 O3 1_555 1_555
C22 C21 1_555 1_555
C23 C22 1_555 1_555
C24 C23 1_555 1_555
Cl1 O7 1_555 1_555
O8 Cl1 1_555 1_555
O9 Cl1 1_555 1_555
O10 Cl1 1_555 1_555
Cl2 O11 1_555 1_555
O12 Cl2 1_555 1_555
O13 Cl2 1_555 1_555
O14 Cl2 1_555 1_555
H2 O1 1_555 1_555
H3 C1 1_555 1_555
H4 C2 1_555 1_555
H5 C3 1_555 1_555
H6 C4 1_555 1_555
H7 C7 1_555 1_555
H8 C8 1_555 1_555
H9 C9 1_555 1_555
H10 C10 1_555 1_555
H11 C11 1_555 1_555
H12 C12 1_555 1_555
H13 C13 1_555 1_555
H14 C14 1_555 1_555
H15 C17 1_555 1_555
H16 C18 1_555 1_555
H17 C19 1_555 1_555
H18 C20 1_555 1_555
H19 C22 1_555 1_555
H20 C23 1_555 1_555
Cu1A O6 1_555 1_555
Cu2A O5 1_555 1_555
O5A Cu2 1_555 1_555
O6A Cu1 1_555 1_555
C4 C5 1_555 1_555
C5 C6 1_555 1_555
C9 C10 1_555 1_555
C14 C15 1_555 1_555
C15 C16 1_555 1_555
C19 C20 1_555 1_555
O4 C21 1_555 1_555

#END
