
#######################################################################
#
#                 Cambridge Crystallographic Data Centre
#                                CCDC 
#
#######################################################################
#
# If this CIF has been generated from an entry in the Cambridge 
# Structural Database, then it will include bibliographic, chemical, 
# crystal, experimental, refinement or atomic coordinate data resulting 
# from the CCDC's data processing and validation procedures.
#
#######################################################################

data_FOSMEH
_symmetry_cell_setting           monoclinic
_symmetry_space_group_name_H-M   'P 21/n'
_symmetry_Int_Tables_number      14
_space_group_name_Hall           '-P 2yn'
loop_
_symmetry_equiv_pos_site_id
_symmetry_equiv_pos_as_xyz
1 x,y,z
2 1/2-x,1/2+y,1/2-z
3 -x,-y,-z
4 1/2+x,1/2-y,1/2+z
_cell_length_a                   9.331(2)
_cell_length_b                   8.663(1)
_cell_length_c                   11.793(2)
_cell_angle_alpha                90
_cell_angle_beta                 96.330(10)
_cell_angle_gamma                90
_cell_volume                     947.469
loop_
_atom_site_label
_atom_site_type_symbol
_atom_site_fract_x
_atom_site_fract_y
_atom_site_fract_z
Cd1 Cd 0.0000 0.0000 0.0000
N1 N 0.5516(4) -0.2709(5) 0.0359(3)
H1 H 0.5724 -0.2675 0.1088
C1 C 0.4366(5) -0.1918(5) -0.0104(4)
H2 H 0.3797 -0.1380 0.0362
C2 C 0.4024(4) -0.1900(5) -0.1271(3)
C3 C 0.4899(4) -0.2749(5) -0.1899(4)
H3 H 0.4700 -0.2742 -0.2690
C4 C 0.6050(4) -0.3610(5) -0.1425(3)
C5 C 0.6346(5) -0.3537(5) -0.0240(4)
H4 H 0.7129 -0.4072 0.0125
P1 P 0.24300(12) -0.09111(14) -0.18963(9)
O1 O 0.1937(3) 0.0141(4) -0.1018(2)
O2 O 0.1399(3) -0.2159(3) -0.2392(2)
O3 O 0.2940(3) -0.0040(3) -0.2942(2)
H5 H 0.299(5) 0.0865(18) -0.276(4)
P2 P 0.72132(11) -0.47920(14) -0.22328(9)
O4 O 0.6513(3) -0.4988(4) -0.3410(2)
O5 O 0.7592(3) -0.6231(4) -0.1572(2)
O6 O 0.8614(3) -0.3788(4) -0.2223(3)
H6 H 0.832(6) -0.308(4) -0.265(4)
O7 O 0.0120(4) -0.2698(4) 0.0042(3)
H7 H 0.086(3) -0.299(6) 0.043(4)
H8 H 0.014(5) -0.325(5) -0.052(3)
N1B N -0.5516(4) 0.2709(5) -0.0359(3)
H1B H -0.5724 0.2675 -0.1088
C1B C -0.4366(5) 0.1918(5) 0.0104(4)
H2B H -0.3797 0.1380 -0.0362
C2B C -0.4024(4) 0.1900(5) 0.1271(3)
C3B C -0.4899(4) 0.2749(5) 0.1899(4)
H3B H -0.4700 0.2742 0.2690
C4B C -0.6050(4) 0.3610(5) 0.1425(3)
C5B C -0.6346(5) 0.3537(5) 0.0240(4)
H4B H -0.7129 0.4072 -0.0125
P1B P -0.24300(12) 0.09111(14) 0.18963(9)
O1B O -0.1937(3) -0.0141(4) 0.1018(2)
O2B O -0.1399(3) 0.2159(3) 0.2392(2)
O3B O -0.2940(3) 0.0040(3) 0.2942(2)
H5B H -0.299(5) -0.0865(18) 0.276(4)
P2B P -0.72132(11) 0.47920(14) 0.22328(9)
O4B O -0.6513(3) 0.4988(4) 0.3410(2)
O5B O -0.7592(3) 0.6231(4) 0.1572(2)
O6B O -0.8614(3) 0.3788(4) 0.2223(3)
H6B H -0.832(6) 0.308(4) 0.265(4)
O7B O -0.0120(4) 0.2698(4) -0.0042(3)
H7B H -0.086(3) 0.299(6) -0.043(4)
H8B H -0.014(5) 0.325(5) 0.052(3)
Cd1A Cd -0.5000 0.5000 0.5000
Cd1A_2 Cd 0.5000 -0.5000 -0.5000
O4A O -0.1513(3) 0.0012(4) -0.1590(2)
O4C O 0.1513(3) -0.0012(4) 0.1590(2)
loop_
_geom_bond_atom_site_label_1
_geom_bond_atom_site_label_2
_geom_bond_site_symmetry_1
_geom_bond_site_symmetry_2
Cd1 O1 1_555 1_555
N1 H1 1_555 1_555
C1 N1 1_555 1_555
H2 C1 1_555 1_555
C2 C1 1_555 1_555
C3 C2 1_555 1_555
H3 C3 1_555 1_555
C4 C3 1_555 1_555
C5 N1 1_555 1_555
H4 C5 1_555 1_555
P1 C2 1_555 1_555
O1 P1 1_555 1_555
O2 P1 1_555 1_555
O3 P1 1_555 1_555
H5 O3 1_555 1_555
P2 C4 1_555 1_555
O4 P2 1_555 1_555
O5 P2 1_555 1_555
O6 P2 1_555 1_555
H6 O6 1_555 1_555
O7 Cd1 1_555 1_555
H7 O7 1_555 1_555
H8 O7 1_555 1_555
N1B H1B 1_555 1_555
C1B N1B 1_555 1_555
H2B C1B 1_555 1_555
C2B C1B 1_555 1_555
C3B C2B 1_555 1_555
H3B C3B 1_555 1_555
C4B C3B 1_555 1_555
C5B N1B 1_555 1_555
H4B C5B 1_555 1_555
P1B C2B 1_555 1_555
O1B Cd1 1_555 1_555
O2B P1B 1_555 1_555
O3B P1B 1_555 1_555
H5B O3B 1_555 1_555
P2B C4B 1_555 1_555
O4B P2B 1_555 1_555
O5B P2B 1_555 1_555
O6B P2B 1_555 1_555
H6B O6B 1_555 1_555
O7B Cd1 1_555 1_555
H7B O7B 1_555 1_555
H8B O7B 1_555 1_555
Cd1A O4B 1_555 1_555
Cd1A_2 O4 1_555 1_555
O4A Cd1 1_555 1_555
O4C Cd1 1_555 1_555
C4 C5 1_555 1_555
C4B C5B 1_555 1_555
P1B O1B 1_555 1_555

#END
