
#######################################################################
#
#                 Cambridge Crystallographic Data Centre
#                                CCDC 
#
#######################################################################
#
# If this CIF has been generated from an entry in the Cambridge 
# Structural Database, then it will include bibliographic, chemical, 
# crystal, experimental, refinement or atomic coordinate data resulting 
# from the CCDC's data processing and validation procedures.
#
#######################################################################

data_FOSQEK
_symmetry_cell_setting           triclinic
_symmetry_space_group_name_H-M   'P -1'
_symmetry_Int_Tables_number      2
_space_group_name_Hall           '-P 1'
loop_
_symmetry_equiv_pos_site_id
_symmetry_equiv_pos_as_xyz
1 x,y,z
2 -x,-y,-z
_cell_length_a                   6.0026(18)
_cell_length_b                   7.049(2)
_cell_length_c                   15.438(5)
_cell_angle_alpha                100.329(9)
_cell_angle_beta                 100.032(15)
_cell_angle_gamma                96.299(12)
_cell_volume                     626.073
loop_
_atom_site_label
_atom_site_type_symbol
_atom_site_fract_x
_atom_site_fract_y
_atom_site_fract_z
Mn1 Mn 1.0000 0.0000 1.0000
S1 S 1.18170(7) 0.28137(5) 0.86087(2)
O1 O 0.7286(2) 0.18764(19) 1.00006(9)
O2 O 1.0941(2) 0.09866(17) 0.88415(8)
O3 O 1.4289(2) 0.3142(2) 0.87479(9)
O4 O 1.0878(3) 0.44456(19) 0.90610(9)
N1 N 0.2545(3) 0.2591(2) 0.09183(10)
C1 C 1.2205(3) 0.3040(3) 0.68892(12)
C2 C 1.0752(3) 0.2556(2) 0.74496(10)
C3 C 0.8425(3) 0.1939(3) 0.71170(12)
C4 C 0.8988(3) 0.2369(2) 0.56569(11)
C5 C 0.7544(3) 0.1853(3) 0.62180(12)
C6 C 1.1328(3) 0.2902(3) 0.59871(12)
H1 H 1.365(4) 0.343(3) 0.7143(15)
H2 H 0.605(5) 0.134(4) 0.6005(18)
H3 H 0.356(4) 0.267(3) 0.0654(17)
H4 H 0.743(4) 0.154(3) 0.7474(16)
H5 H 0.174(4) 0.361(4) 0.0940(17)
H6 H 1.231(4) 0.309(4) 0.5540(17)
H7 H 0.768(4) 0.310(4) 1.0276(18)
H8 H 0.636(5) 0.186(4) 0.9499(19)
C7 C 0.3469(3) 0.2549(2) 0.18329(11)
N2 N 0.6130(3) 0.2533(2) 0.45342(10)
N3 N 0.8214(3) 0.2365(2) 0.47264(10)
C8 C 0.2275(3) 0.3119(2) 0.25067(12)
C9 C 0.6488(3) 0.1861(2) 0.29297(11)
C10 C 0.5315(3) 0.2487(2) 0.36062(11)
C11 C 0.5561(3) 0.1886(2) 0.20469(11)
C12 C 0.3186(3) 0.3082(3) 0.33884(12)
H9 H 0.079(4) 0.365(3) 0.2412(16)
H10 H 0.246(4) 0.353(3) 0.3850(15)
H11 H 0.807(4) 0.141(3) 0.3088(16)
H12 H 0.631(4) 0.151(3) 0.1613(15)
Mn1_2 Mn 0.0000 0.0000 0.0000
Mn1_3 Mn 2.0000 0.0000 2.0000
S1_2 S 2.18170(7) 0.28137(5) 1.86087(2)
O1A O 1.2714(2) -0.18764(19) 0.99994(9)
O2_2 O 2.0941(2) 0.09866(17) 1.88415(8)
O2A O 0.9059(2) -0.09866(17) 1.11585(8)
O3_2 O 2.4289(2) 0.3142(2) 1.87479(9)
O4_2 O 2.0878(3) 0.44456(19) 1.90610(9)
N1_2 N 1.2545(3) 0.2591(2) 1.09183(10)
N1A N 0.7455(3) -0.2591(2) 0.90817(10)
C1_2 C 2.2205(3) 0.3040(3) 1.68892(12)
C2_2 C 2.0752(3) 0.2556(2) 1.74496(10)
C3_2 C 1.8425(3) 0.1939(3) 1.71170(12)
C4_2 C 1.8988(3) 0.2369(2) 1.56569(11)
C5_2 C 1.7544(3) 0.1853(3) 1.62180(12)
C6_2 C 2.1328(3) 0.2902(3) 1.59871(12)
H1_2 H 2.365(4) 0.343(3) 1.7143(15)
H2_2 H 1.605(5) 0.134(4) 1.6005(18)
H3_2 H 1.356(4) 0.267(3) 1.0654(17)
H3A H 0.644(4) -0.267(3) 0.9346(17)
H4_2 H 1.743(4) 0.154(3) 1.7474(16)
H5_2 H 1.174(4) 0.361(4) 1.0940(17)
H5A H 0.826(4) -0.361(4) 0.9060(17)
H6_2 H 2.231(4) 0.309(4) 1.5540(17)
H7A H 1.232(4) -0.310(4) 0.9724(18)
H8A H 1.364(5) -0.186(4) 1.0501(19)
C7_2 C 1.3469(3) 0.2549(2) 1.18329(11)
N2_2 N 1.6130(3) 0.2533(2) 1.45342(10)
N3_2 N 1.8214(3) 0.2365(2) 1.47264(10)
C8_2 C 1.2275(3) 0.3119(2) 1.25067(12)
C9_2 C 1.6488(3) 0.1861(2) 1.29297(11)
C10_2 C 1.5315(3) 0.2487(2) 1.36062(11)
C11_2 C 1.5561(3) 0.1886(2) 1.20469(11)
C12_2 C 1.3186(3) 0.3082(3) 1.33884(12)
H9_2 H 1.079(4) 0.365(3) 1.2412(16)
H10_2 H 1.246(4) 0.353(3) 1.3850(15)
H11_2 H 1.807(4) 0.141(3) 1.3088(16)
H12_2 H 1.631(4) 0.151(3) 1.1613(15)
loop_
_geom_bond_atom_site_label_1
_geom_bond_atom_site_label_2
_geom_bond_site_symmetry_1
_geom_bond_site_symmetry_2
Mn1 O1 1_555 1_555
S1 O2 1_555 1_555
O1 H7 1_555 1_555
O2 Mn1 1_555 1_555
O3 S1 1_555 1_555
O4 S1 1_555 1_555
N1 H3 1_555 1_555
C1 C2 1_555 1_555
C2 S1 1_555 1_555
C3 C2 1_555 1_555
C4 C5 1_555 1_555
C5 C3 1_555 1_555
C6 C1 1_555 1_555
H1 C1 1_555 1_555
H2 C5 1_555 1_555
H4 C3 1_555 1_555
H5 N1 1_555 1_555
H6 C6 1_555 1_555
H8 O1 1_555 1_555
C7 N1 1_555 1_555
N2 N3 1_555 1_555
N3 C4 1_555 1_555
C8 C7 1_555 1_555
C9 C10 1_555 1_555
C10 N2 1_555 1_555
C11 C7 1_555 1_555
C12 C8 1_555 1_555
H9 C8 1_555 1_555
H10 C12 1_555 1_555
H11 C9 1_555 1_555
H12 C11 1_555 1_555
Mn1_2 N1 1_555 1_555
Mn1_3 O2_2 1_555 1_555
S1_2 O2_2 1_555 1_555
O1A Mn1 1_555 1_555
O2A Mn1 1_555 1_555
O3_2 S1_2 1_555 1_555
O4_2 S1_2 1_555 1_555
N1_2 Mn1 1_555 1_555
N1A Mn1 1_555 1_555
C1_2 C2_2 1_555 1_555
C2_2 S1_2 1_555 1_555
C3_2 C2_2 1_555 1_555
C4_2 C5_2 1_555 1_555
C5_2 C3_2 1_555 1_555
C6_2 C1_2 1_555 1_555
H1_2 C1_2 1_555 1_555
H2_2 C5_2 1_555 1_555
H3_2 N1_2 1_555 1_555
H3A N1A 1_555 1_555
H4_2 C3_2 1_555 1_555
H5_2 N1_2 1_555 1_555
H5A N1A 1_555 1_555
H6_2 C6_2 1_555 1_555
H7A O1A 1_555 1_555
H8A O1A 1_555 1_555
C7_2 N1_2 1_555 1_555
N2_2 N3_2 1_555 1_555
N3_2 C4_2 1_555 1_555
C8_2 C7_2 1_555 1_555
C9_2 C10_2 1_555 1_555
C10_2 N2_2 1_555 1_555
C11_2 C7_2 1_555 1_555
C12_2 C8_2 1_555 1_555
H9_2 C8_2 1_555 1_555
H10_2 C12_2 1_555 1_555
H11_2 C9_2 1_555 1_555
H12_2 C11_2 1_555 1_555
C4 C6 1_555 1_555
C9 C11 1_555 1_555
C10 C12 1_555 1_555
C4_2 C6_2 1_555 1_555
C9_2 C11_2 1_555 1_555
C10_2 C12_2 1_555 1_555

#END
