
#######################################################################
#
#                 Cambridge Crystallographic Data Centre
#                                CCDC 
#
#######################################################################
#
# If this CIF has been generated from an entry in the Cambridge 
# Structural Database, then it will include bibliographic, chemical, 
# crystal, experimental, refinement or atomic coordinate data resulting 
# from the CCDC's data processing and validation procedures.
#
#######################################################################

data_FOSQIO
_symmetry_cell_setting           triclinic
_symmetry_space_group_name_H-M   'P -1'
_symmetry_Int_Tables_number      2
_space_group_name_Hall           '-P 1'
loop_
_symmetry_equiv_pos_site_id
_symmetry_equiv_pos_as_xyz
1 x,y,z
2 -x,-y,-z
_cell_length_a                   5.9988(2)
_cell_length_b                   6.9651(2)
_cell_length_c                   15.3459(2)
_cell_angle_alpha                99.851(9)
_cell_angle_beta                 100.327(12)
_cell_angle_gamma                97.087(9)
_cell_volume                     613.6
loop_
_atom_site_label
_atom_site_type_symbol
_atom_site_fract_x
_atom_site_fract_y
_atom_site_fract_z
O1 O -0.5870(5) 0.0552(3) -0.40857(16)
O2 O -0.9281(4) 0.1897(4) -0.37819(16)
O3 O -0.5843(4) 0.4071(3) -0.38501(14)
O4 O -0.2400(4) 0.3225(3) -0.49990(16)
N1 N 0.2504(4) 0.2483(4) 0.41292(17)
N2 N -0.3227(5) 0.2625(4) 0.02787(18)
N3 N -0.1137(5) 0.2458(4) 0.04786(17)
C1 C -0.3399(5) 0.3028(5) -0.2129(2)
H1 H -0.2430 0.3359 -0.2508
H2 H -0.130(7) 0.323(6) -0.447(3)
H3 H 0.153(7) 0.242(5) 0.443(3)
C2 C 0.1561(5) 0.2509(4) 0.32049(19)
H4 H 0.345(8) 0.136(7) 0.424(3)
C3 C -0.1492(5) 0.3146(5) 0.2093(2)
H5 H -0.2905 0.3555 0.1943
H6 H -0.273(7) 0.198(7) -0.534(3)
C4 C -0.5747(5) 0.2441(4) -0.24647(18)
C5 C -0.3989(5) 0.2623(4) -0.06604(19)
C6 C 0.1832(5) 0.1947(5) 0.1643(2)
H7 H 0.2634 0.1578 0.1192
C7 C 0.2764(5) 0.1923(5) 0.2532(2)
H8 H 0.4182 0.1521 0.2681
C8 C -0.2529(5) 0.3110(5) -0.1222(2)
H9 H -0.0965 0.3493 -0.0989
C9 C -0.0305(5) 0.2523(4) 0.14208(19)
C10 C -0.6341(6) 0.2106(5) -0.0994(2)
H10 H -0.7320 0.1848 -0.0607
C11 C -0.0543(5) 0.3149(4) 0.2992(2)
H11 H -0.1310 0.3575 0.3447
C12 C -0.7218(5) 0.1976(5) -0.1904(2)
H12 H -0.8781 0.1580 -0.2137
S1 S -0.67974(12) 0.22042(10) -0.36330(4)
Co1 Co -0.5000 0.5000 -0.5000
O1_2 O -1.5870(5) 0.0552(3) -1.40857(16)
O2_2 O -1.9281(4) 0.1897(4) -1.37819(16)
O3A O -0.4157(4) 0.5929(3) -0.61499(14)
O3_2 O -1.5843(4) 0.4071(3) -1.38501(14)
O4A O -0.7600(4) 0.6775(3) -0.50010(16)
N1_2 N -0.7496(4) 0.2483(4) -0.58708(17)
N1A N -0.2504(4) 0.7517(4) -0.41292(17)
N2_2 N -1.3227(5) 0.2625(4) -0.97213(18)
N3_2 N -1.1137(5) 0.2458(4) -0.95214(17)
C1_2 C -1.3399(5) 0.3028(5) -1.2129(2)
H1_2 H -1.2430 0.3359 -1.2508
H2A H -0.870(7) 0.677(6) -0.553(3)
H3_2 H -0.847(7) 0.242(5) -0.557(3)
H3A H -0.153(7) 0.758(5) -0.443(3)
C2_2 C -0.8439(5) 0.2509(4) -0.67951(19)
H4_2 H -0.655(8) 0.136(7) -0.576(3)
H4A H -0.345(8) 0.864(7) -0.424(3)
C3_2 C -1.1492(5) 0.3146(5) -0.7907(2)
H5_2 H -1.2905 0.3555 -0.8057
H6A H -0.727(7) 0.802(7) -0.466(3)
C4_2 C -1.5747(5) 0.2441(4) -1.24647(18)
C5_2 C -1.3989(5) 0.2623(4) -1.06604(19)
C6_2 C -0.8168(5) 0.1947(5) -0.8357(2)
H7_2 H -0.7366 0.1578 -0.8808
C7_2 C -0.7236(5) 0.1923(5) -0.7468(2)
H8_2 H -0.5818 0.1521 -0.7319
C8_2 C -1.2529(5) 0.3110(5) -1.1222(2)
H9_2 H -1.0965 0.3493 -1.0989
C9_2 C -1.0305(5) 0.2523(4) -0.85792(19)
C10_2 C -1.6341(6) 0.2106(5) -1.0994(2)
H10_2 H -1.7320 0.1848 -1.0607
C11_2 C -1.0543(5) 0.3149(4) -0.7008(2)
H11_2 H -1.1310 0.3575 -0.6553
C12_2 C -1.7218(5) 0.1976(5) -1.1904(2)
H12_2 H -1.8781 0.1580 -1.2137
S1_2 S -1.67974(12) 0.22042(10) -1.36330(4)
Co1_2 Co 0.5000 0.5000 0.5000
Co1_3 Co -1.5000 0.5000 -1.5000
loop_
_geom_bond_atom_site_label_1
_geom_bond_atom_site_label_2
_geom_bond_site_symmetry_1
_geom_bond_site_symmetry_2
O1 S1 1_555 1_555
O2 S1 1_555 1_555
O3 S1 1_555 1_555
O4 H2 1_555 1_555
N1 H3 1_555 1_555
N2 N3 1_555 1_555
N3 C9 1_555 1_555
C1 H1 1_555 1_555
C2 N1 1_555 1_555
H4 N1 1_555 1_555
C3 H5 1_555 1_555
H6 O4 1_555 1_555
C4 C1 1_555 1_555
C5 N2 1_555 1_555
C6 H7 1_555 1_555
C7 C2 1_555 1_555
H8 C7 1_555 1_555
C8 C1 1_555 1_555
H9 C8 1_555 1_555
C9 C3 1_555 1_555
C10 C5 1_555 1_555
H10 C10 1_555 1_555
C11 C2 1_555 1_555
H11 C11 1_555 1_555
C12 C4 1_555 1_555
H12 C12 1_555 1_555
S1 C4 1_555 1_555
Co1 O3 1_555 1_555
O1_2 S1_2 1_555 1_555
O2_2 S1_2 1_555 1_555
O3A Co1 1_555 1_555
O3_2 S1_2 1_555 1_555
O4A Co1 1_555 1_555
N1_2 Co1 1_555 1_555
N1A Co1 1_555 1_555
N2_2 N3_2 1_555 1_555
N3_2 C9_2 1_555 1_555
C1_2 H1_2 1_555 1_555
H2A O4A 1_555 1_555
H3_2 N1_2 1_555 1_555
H3A N1A 1_555 1_555
C2_2 N1_2 1_555 1_555
H4_2 N1_2 1_555 1_555
H4A N1A 1_555 1_555
C3_2 H5_2 1_555 1_555
H6A O4A 1_555 1_555
C4_2 C1_2 1_555 1_555
C5_2 N2_2 1_555 1_555
C6_2 H7_2 1_555 1_555
C7_2 C2_2 1_555 1_555
H8_2 C7_2 1_555 1_555
C8_2 C1_2 1_555 1_555
H9_2 C8_2 1_555 1_555
C9_2 C3_2 1_555 1_555
C10_2 C5_2 1_555 1_555
H10_2 C10_2 1_555 1_555
C11_2 C2_2 1_555 1_555
H11_2 C11_2 1_555 1_555
C12_2 C4_2 1_555 1_555
H12_2 C12_2 1_555 1_555
S1_2 C4_2 1_555 1_555
Co1_2 N1 1_555 1_555
Co1_3 O3_2 1_555 1_555
O4 Co1 1_555 1_555
C3 C11 1_555 1_555
C5 C8 1_555 1_555
C6 C7 1_555 1_555
C6 C9 1_555 1_555
C10 C12 1_555 1_555
C3_2 C11_2 1_555 1_555
C5_2 C8_2 1_555 1_555
C6_2 C7_2 1_555 1_555
C6_2 C9_2 1_555 1_555
C10_2 C12_2 1_555 1_555

#END
