
#######################################################################
#
#                 Cambridge Crystallographic Data Centre
#                                CCDC 
#
#######################################################################
#
# If this CIF has been generated from an entry in the Cambridge 
# Structural Database, then it will include bibliographic, chemical, 
# crystal, experimental, refinement or atomic coordinate data resulting 
# from the CCDC's data processing and validation procedures.
#
#######################################################################

data_FOSQUA
_symmetry_cell_setting           triclinic
_symmetry_space_group_name_H-M   'P -1'
_symmetry_Int_Tables_number      2
_space_group_name_Hall           '-P 1'
loop_
_symmetry_equiv_pos_site_id
_symmetry_equiv_pos_as_xyz
1 x,y,z
2 -x,-y,-z
_cell_length_a                   5.9751(16)
_cell_length_b                   6.9775(19)
_cell_length_c                   15.374(5)
_cell_angle_alpha                99.920(9)
_cell_angle_beta                 100.404(16)
_cell_angle_gamma                96.932(13)
_cell_volume                     613.328
loop_
_atom_site_label
_atom_site_type_symbol
_atom_site_fract_x
_atom_site_fract_y
_atom_site_fract_z
Zn1 Zn 0.5000 0.5000 1.0000
S1 S 0.67968(6) 0.78478(5) 0.86272(2)
O1 O 0.5900(2) 0.59833(15) 0.88504(7)
O2 O 0.9287(2) 0.81987(19) 0.87759(8)
O3 O 0.2334(2) 0.67879(17) 0.99997(8)
N1 N -0.2536(2) 0.74310(19) 0.08531(8)
O4 O 0.5847(2) 0.94799(16) 0.90735(7)
C1 C 0.7210(3) 0.8062(2) 0.69006(10)
C2 C 0.5736(2) 0.7602(2) 0.74560(9)
C3 C 0.2500(3) 0.6904(2) 0.62153(10)
C4 C 0.3976(3) 0.7393(2) 0.56513(9)
C5 C 0.3390(3) 0.6996(2) 0.71194(10)
C6 C 0.6329(3) 0.7924(3) 0.59874(11)
H1 H 0.090(4) 0.646(3) 0.5981(14)
H2 H 0.866(4) 0.842(3) 0.7098(13)
H3 H 0.244(3) 0.665(3) 0.7498(13)
H4 H 0.727(4) 0.821(3) 0.5643(14)
H5 H 0.288(4) 0.799(4) 1.0257(16)
H6 H 0.154(4) 0.686(3) 0.9510(16)
H7 H -0.313(3) 0.848(3) 0.0841(14)
H8 H -0.145(4) 0.754(3) 0.0605(13)
N2 N 0.1113(2) 0.75338(19) 0.45099(8)
C7 C -0.1583(3) 0.7431(2) 0.17810(9)
C8 C 0.0285(3) 0.7456(2) 0.35728(9)
N3 N 0.3196(2) 0.7371(2) 0.47128(8)
C9 C -0.1854(3) 0.8035(2) 0.33413(10)
C10 C -0.2792(3) 0.8033(2) 0.24476(10)
C11 C 0.1463(3) 0.6808(2) 0.28995(10)
C12 C 0.0523(3) 0.6793(2) 0.20100(10)
H9 H -0.419(3) 0.853(3) 0.2305(12)
H10 H 0.286(3) 0.649(2) 0.3076(11)
H11 H 0.135(3) 0.635(3) 0.1538(13)
H12 H -0.266(4) 0.850(3) 0.3776(14)
Zn1_2 Zn -0.5000 0.5000 0.0000
Zn1_3 Zn 1.5000 0.5000 2.0000
S1_2 S 1.67968(6) 0.78478(5) 1.86272(2)
O1_2 O 1.5900(2) 0.59833(15) 1.88504(7)
O1A O 0.4100(2) 0.40167(15) 1.11496(7)
O2_2 O 1.9287(2) 0.81987(19) 1.87759(8)
O3A O 0.7666(2) 0.32121(17) 1.00003(8)
N1_2 N 0.7464(2) 0.74310(19) 1.08531(8)
N1A N 0.2536(2) 0.25690(19) 0.91469(8)
O4_2 O 1.5847(2) 0.94799(16) 1.90735(7)
C1_2 C 1.7210(3) 0.8062(2) 1.69006(10)
C2_2 C 1.5736(2) 0.7602(2) 1.74560(9)
C3_2 C 1.2500(3) 0.6904(2) 1.62153(10)
C4_2 C 1.3976(3) 0.7393(2) 1.56513(9)
C5_2 C 1.3390(3) 0.6996(2) 1.71194(10)
C6_2 C 1.6329(3) 0.7924(3) 1.59874(11)
H1_2 H 1.090(4) 0.646(3) 1.5981(14)
H2_2 H 1.866(4) 0.842(3) 1.7098(13)
H3_2 H 1.244(3) 0.665(3) 1.7498(13)
H4_2 H 1.727(4) 0.821(3) 1.5643(14)
H5A H 0.712(4) 0.201(4) 0.9743(16)
H6A H 0.846(4) 0.314(3) 1.0490(16)
H7_2 H 0.687(3) 0.848(3) 1.0841(14)
H7A H 0.313(3) 0.152(3) 0.9159(14)
H8_2 H 0.855(4) 0.754(3) 1.0605(13)
H8A H 0.145(4) 0.246(3) 0.9395(13)
N2_2 N 1.1113(2) 0.75338(19) 1.45099(8)
C7_2 C 0.8417(3) 0.7431(2) 1.17810(9)
C8_2 C 1.0285(3) 0.7456(2) 1.35728(9)
N3_2 N 1.3196(2) 0.7371(2) 1.47128(8)
C9_2 C 0.8146(3) 0.8035(2) 1.33413(10)
C10_2 C 0.7208(3) 0.8033(2) 1.24476(10)
C11_2 C 1.1463(3) 0.6808(2) 1.28995(10)
C12_2 C 1.0523(3) 0.6793(2) 1.20100(10)
H9_2 H 0.581(3) 0.853(3) 1.2305(12)
H10_2 H 1.286(3) 0.649(2) 1.3076(11)
H11_2 H 1.135(3) 0.635(3) 1.1538(13)
H12_2 H 0.734(4) 0.850(3) 1.3776(14)
loop_
_geom_bond_atom_site_label_1
_geom_bond_atom_site_label_2
_geom_bond_site_symmetry_1
_geom_bond_site_symmetry_2
Zn1 O1 1_555 1_555
S1 O1 1_555 1_555
O2 S1 1_555 1_555
O3 Zn1 1_555 1_555
N1 H7 1_555 1_555
O4 S1 1_555 1_555
C1 C2 1_555 1_555
C2 S1 1_555 1_555
C3 C4 1_555 1_555
C4 C6 1_555 1_555
C5 C2 1_555 1_555
C6 C1 1_555 1_555
H1 C3 1_555 1_555
H2 C1 1_555 1_555
H3 C5 1_555 1_555
H4 C6 1_555 1_555
H5 O3 1_555 1_555
H6 O3 1_555 1_555
H8 N1 1_555 1_555
N2 C8 1_555 1_555
C7 N1 1_555 1_555
C8 C9 1_555 1_555
N3 C4 1_555 1_555
C9 C10 1_555 1_555
C10 C7 1_555 1_555
C11 C8 1_555 1_555
C12 C7 1_555 1_555
H9 C10 1_555 1_555
H10 C11 1_555 1_555
H11 C12 1_555 1_555
H12 C9 1_555 1_555
Zn1_2 N1 1_555 1_555
Zn1_3 O1_2 1_555 1_555
S1_2 O1_2 1_555 1_555
O1A Zn1 1_555 1_555
O2_2 S1_2 1_555 1_555
O3A Zn1 1_555 1_555
N1_2 Zn1 1_555 1_555
N1A Zn1 1_555 1_555
O4_2 S1_2 1_555 1_555
C1_2 C2_2 1_555 1_555
C2_2 S1_2 1_555 1_555
C3_2 C4_2 1_555 1_555
C4_2 C6_2 1_555 1_555
C5_2 C2_2 1_555 1_555
C6_2 C1_2 1_555 1_555
H1_2 C3_2 1_555 1_555
H2_2 C1_2 1_555 1_555
H3_2 C5_2 1_555 1_555
H4_2 C6_2 1_555 1_555
H5A O3A 1_555 1_555
H6A O3A 1_555 1_555
H7_2 N1_2 1_555 1_555
H7A N1A 1_555 1_555
H8_2 N1_2 1_555 1_555
H8A N1A 1_555 1_555
N2_2 C8_2 1_555 1_555
C7_2 N1_2 1_555 1_555
C8_2 C9_2 1_555 1_555
N3_2 C4_2 1_555 1_555
C9_2 C10_2 1_555 1_555
C10_2 C7_2 1_555 1_555
C11_2 C8_2 1_555 1_555
C12_2 C7_2 1_555 1_555
H9_2 C10_2 1_555 1_555
H10_2 C11_2 1_555 1_555
H11_2 C12_2 1_555 1_555
H12_2 C9_2 1_555 1_555
C3 C5 1_555 1_555
N2 N3 1_555 1_555
C11 C12 1_555 1_555
C3_2 C5_2 1_555 1_555
N2_2 N3_2 1_555 1_555
C11_2 C12_2 1_555 1_555

#END
