
#######################################################################
#
#                 Cambridge Crystallographic Data Centre
#                                CCDC 
#
#######################################################################
#
# If this CIF has been generated from an entry in the Cambridge 
# Structural Database, then it will include bibliographic, chemical, 
# crystal, experimental, refinement or atomic coordinate data resulting 
# from the CCDC's data processing and validation procedures.
#
#######################################################################

data_FOSQOU
_symmetry_cell_setting           triclinic
_symmetry_space_group_name_H-M   'P -1'
_symmetry_Int_Tables_number      2
_space_group_name_Hall           '-P 1'
loop_
_symmetry_equiv_pos_site_id
_symmetry_equiv_pos_as_xyz
1 x,y,z
2 -x,-y,-z
_cell_length_a                   5.933(2)
_cell_length_b                   6.985(2)
_cell_length_c                   15.325(6)
_cell_angle_alpha                102.104(10)
_cell_angle_beta                 98.278(13)
_cell_angle_gamma                95.670(10)
_cell_volume                     609.025
loop_
_atom_site_label
_atom_site_type_symbol
_atom_site_fract_x
_atom_site_fract_y
_atom_site_fract_z
Cu1 Cu 0.5000 0.5000 1.0000
O1 O 0.2422(3) 0.6727(2) 1.00441(11)
N1 N 0.6479(4) 0.6515(3) 0.91780(11)
C1 C 0.6528(3) 0.5589(3) 0.82467(12)
C2 C 0.6680(4) 0.3846(3) 0.64630(12)
C3 C 0.4648(4) 0.5525(3) 0.75798(13)
N2 N 0.6609(3) 0.3008(3) 0.55240(11)
C4 C 0.8530(4) 0.3862(3) 0.71342(13)
C5 C 0.8457(4) 0.4738(3) 0.80269(13)
C6 C 0.4732(4) 0.4652(3) 0.66902(14)
H1 H 0.981(4) 0.321(3) 0.6962(15)
H2 H 0.327(4) 0.610(3) 0.7731(16)
H3 H 0.591(5) 0.751(4) 0.9163(17)
H4 H 0.355(4) 0.462(4) 0.6265(17)
H5 H 0.773(5) 0.679(4) 0.9380(17)
H6 H 0.254(5) 0.758(4) 0.975(2)
H7 H 0.211(5) 0.728(4) 1.0509(19)
H8 H 0.971(4) 0.480(3) 0.8500(17)
N3 N 0.8529(3) 0.2674(3) 0.53197(11)
C7 C 0.8418(4) 0.1785(3) 0.43832(12)
S1 S 0.83976(9) -0.06212(7) 0.14000(3)
O2 O 0.7311(3) -0.2652(2) 0.11872(9)
C8 C 0.6430(4) 0.0738(3) 0.38268(14)
H9 H 0.5060 0.0551 0.4069
C9 C 0.8463(4) 0.0272(3) 0.25757(12)
O3 O 1.0755(3) -0.0425(2) 0.12462(10)
O4 O 0.6988(3) 0.0604(2) 0.09505(10)
C10 C 1.0449(4) 0.2014(3) 0.40396(14)
C11 C 1.0459(4) 0.1288(3) 0.31254(13)
H10 H 1.1823 0.1487 0.2880
C12 C 0.6447(4) -0.0032(3) 0.29199(14)
H11 H 0.514(5) -0.077(4) 0.2567(17)
H12 H 1.175(5) 0.261(3) 0.4411(17)
Cu1_2 Cu 0.5000 -0.5000 0.0000
Cu1_3 Cu 0.5000 1.5000 2.0000
O1A O 0.7578(3) 0.3273(2) 0.99559(11)
N1_2 N 0.6479(4) 1.6515(3) 1.91780(11)
N1A N 0.3521(4) 0.3485(3) 1.08220(11)
C1_2 C 0.6528(3) 1.5589(3) 1.82467(12)
C2_2 C 0.6680(4) 1.3846(3) 1.64630(12)
C3_2 C 0.4648(4) 1.5525(3) 1.75798(13)
N2_2 N 0.6609(3) 1.3008(3) 1.55240(11)
C4_2 C 0.8530(4) 1.3862(3) 1.71342(13)
C5_2 C 0.8457(4) 1.4738(3) 1.80269(13)
C6_2 C 0.4732(4) 1.4652(3) 1.66902(14)
H1_2 H 0.981(4) 1.321(3) 1.6962(15)
H2_2 H 0.327(4) 1.610(3) 1.7731(16)
H3_2 H 0.591(5) 1.751(4) 1.9163(17)
H3A H 0.409(5) 0.249(4) 1.0837(17)
H4_2 H 0.355(4) 1.462(4) 1.6265(17)
H5_2 H 0.773(5) 1.679(4) 1.9380(17)
H5A H 0.227(5) 0.321(4) 1.0620(17)
H6A H 0.746(5) 0.242(4) 1.025(2)
H7A H 0.789(5) 0.272(4) 0.9491(19)
H8_2 H 0.971(4) 1.480(3) 1.8500(17)
N3_2 N 0.8529(3) 1.2674(3) 1.53197(11)
C7_2 C 0.8418(4) 1.1785(3) 1.43832(12)
S1_2 S 0.83976(9) 0.93788(7) 1.14000(3)
O2_2 O 0.7311(3) 0.7348(2) 1.11872(9)
O2A O 0.2689(3) 0.2652(2) 0.88128(9)
C8_2 C 0.6430(4) 1.0738(3) 1.38268(14)
H9_2 H 0.5060 1.0551 1.4069
C9_2 C 0.8463(4) 1.0272(3) 1.25757(12)
O3_2 O 1.0755(3) 0.9575(2) 1.12462(10)
O4_2 O 0.6988(3) 1.0604(2) 1.09505(10)
C10_2 C 1.0449(4) 1.2014(3) 1.40396(14)
C11_2 C 1.0459(4) 1.1288(3) 1.31254(13)
H10_2 H 1.1823 1.1487 1.2880
C12_2 C 0.6447(4) 0.9968(3) 1.29199(14)
H11_2 H 0.514(5) 0.923(4) 1.2567(17)
H12_2 H 1.175(5) 1.261(3) 1.4411(17)
loop_
_geom_bond_atom_site_label_1
_geom_bond_atom_site_label_2
_geom_bond_site_symmetry_1
_geom_bond_site_symmetry_2
Cu1 O1 1_555 1_555
O1 H6 1_555 1_555
N1 Cu1 1_555 1_555
C1 N1 1_555 1_555
C2 N2 1_555 1_555
C3 C1 1_555 1_555
N2 N3 1_555 1_555
C4 C2 1_555 1_555
C5 C1 1_555 1_555
C6 C2 1_555 1_555
H1 C4 1_555 1_555
H2 C3 1_555 1_555
H3 N1 1_555 1_555
H4 C6 1_555 1_555
H5 N1 1_555 1_555
H7 O1 1_555 1_555
H8 C5 1_555 1_555
N3 C7 1_555 1_555
C7 C8 1_555 1_555
S1 O2 1_555 1_555
O2 Cu1_2 1_555 1_555
C8 H9 1_555 1_555
C9 S1 1_555 1_555
O3 S1 1_555 1_555
O4 S1 1_555 1_555
C10 C7 1_555 1_555
C11 C9 1_555 1_555
H10 C11 1_555 1_555
C12 C8 1_555 1_555
H11 C12 1_555 1_555
H12 C10 1_555 1_555
Cu1_3 N1_2 1_555 1_555
O1A Cu1 1_555 1_555
N1_2 C1_2 1_555 1_555
N1A Cu1 1_555 1_555
C1_2 C3_2 1_555 1_555
C2_2 N2_2 1_555 1_555
C3_2 C6_2 1_555 1_555
N2_2 N3_2 1_555 1_555
C4_2 C2_2 1_555 1_555
C5_2 C1_2 1_555 1_555
C6_2 C2_2 1_555 1_555
H1_2 C4_2 1_555 1_555
H2_2 C3_2 1_555 1_555
H3_2 N1_2 1_555 1_555
H3A N1A 1_555 1_555
H4_2 C6_2 1_555 1_555
H5_2 N1_2 1_555 1_555
H5A N1A 1_555 1_555
H6A O1A 1_555 1_555
H7A O1A 1_555 1_555
H8_2 C5_2 1_555 1_555
N3_2 C7_2 1_555 1_555
C7_2 C8_2 1_555 1_555
S1_2 O2_2 1_555 1_555
O2_2 Cu1 1_555 1_555
O2A Cu1 1_555 1_555
C8_2 H9_2 1_555 1_555
C9_2 S1_2 1_555 1_555
O3_2 S1_2 1_555 1_555
O4_2 S1_2 1_555 1_555
C10_2 C7_2 1_555 1_555
C11_2 C9_2 1_555 1_555
H10_2 C11_2 1_555 1_555
C12_2 C8_2 1_555 1_555
H11_2 C12_2 1_555 1_555
H12_2 C10_2 1_555 1_555
C3 C6 1_555 1_555
C4 C5 1_555 1_555
C9 C12 1_555 1_555
C10 C11 1_555 1_555
C4_2 C5_2 1_555 1_555
C9_2 C12_2 1_555 1_555
C10_2 C11_2 1_555 1_555

#END
