
#######################################################################
#
#                 Cambridge Crystallographic Data Centre
#                                CCDC 
#
#######################################################################
#
# If this CIF has been generated from an entry in the Cambridge 
# Structural Database, then it will include bibliographic, chemical, 
# crystal, experimental, refinement or atomic coordinate data resulting 
# from the CCDC's data processing and validation procedures.
#
#######################################################################

data_FOSREL
_symmetry_cell_setting           triclinic
_symmetry_space_group_name_H-M   'P -1'
_symmetry_Int_Tables_number      2
_space_group_name_Hall           '-P 1'
loop_
_symmetry_equiv_pos_site_id
_symmetry_equiv_pos_as_xyz
1 x,y,z
2 -x,-y,-z
_cell_length_a                   6.0295(16)
_cell_length_b                   7.2837(19)
_cell_length_c                   15.683(5)
_cell_angle_alpha                101.514(8)
_cell_angle_beta                 100.351(15)
_cell_angle_gamma                94.611(12)
_cell_volume                     659.061
loop_
_atom_site_label
_atom_site_type_symbol
_atom_site_fract_x
_atom_site_fract_y
_atom_site_fract_z
Pb1 Pb 0.5000 1.0000 1.0000
S1 S 0.16442(15) 0.58627(12) 0.84922(6)
O1 O 0.2624(5) 0.7836(4) 0.8670(2)
O2 O 0.1891(6) 1.2222(5) 0.9954(2)
O3 O 0.3125(7) 0.4815(6) 0.8997(2)
O4 O -0.0673(5) 0.5664(5) 0.8607(2)
N1 N 0.3507(6) -0.1958(5) 0.1101(2)
N2 N 0.3443(5) 0.2035(4) 0.4553(2)
N3 N 0.1546(5) 0.2364(5) 0.4722(2)
C1 C 0.3490(6) -0.0914(5) 0.1967(2)
C2 C 0.1589(6) -0.0036(6) 0.2126(3)
H1 H 0.0334 -0.0116 0.1652
C3 C 0.1517(6) 0.0950(5) 0.2968(3)
H2 H 0.0205 0.1524 0.3076
C4 C 0.3379(6) 0.1098(5) 0.3659(2)
C5 C 0.5322(6) 0.0304(5) 0.3489(3)
H3 H 0.6618 0.0458 0.3954
C6 C 0.5377(6) -0.0704(5) 0.2652(3)
H4 H 0.6703 -0.1254 0.2542
C7 C 0.1648(6) 0.3316(5) 0.5618(2)
C8 C -0.0327(6) 0.3101(6) 0.5943(3)
H5 H -0.1667 0.2411 0.5563
C9 C -0.0348(6) 0.3892(5) 0.6822(3)
H6 H -0.1684 0.3718 0.7052
C10 C 0.1603(6) 0.4941(4) 0.7360(2)
C11 C 0.3567(6) 0.5240(5) 0.7030(3)
H7 H 0.4875 0.6001 0.7399
C12 C 0.3591(6) 0.4418(5) 0.6160(3)
H8 H 0.4926 0.4600 0.5929
Pb1_2 Pb 0.5000 0.0000 0.0000
Pb1_3 Pb 0.5000 2.0000 2.0000
S1_2 S 0.16442(15) 1.58627(12) 1.84922(6)
O1A O 0.7376(5) 1.2164(4) 1.1330(2)
O1_2 O 0.2624(5) 1.7836(4) 1.8670(2)
O2A O 0.8109(6) 0.7778(5) 1.0046(2)
O3_2 O 0.3125(7) 1.4815(6) 1.8997(2)
O4_2 O -0.0673(5) 1.5664(5) 1.8607(2)
N1_2 N 0.3507(6) 0.8042(5) 1.1101(2)
N1A N 0.6493(6) 1.1958(5) 0.8899(2)
N2_2 N 0.3443(5) 1.2035(4) 1.4553(2)
N3_2 N 0.1546(5) 1.2364(5) 1.4722(2)
C1_2 C 0.3490(6) 0.9086(5) 1.1967(2)
C2_2 C 0.1589(6) 0.9964(6) 1.2126(3)
H1_2 H 0.0334 0.9884 1.1652
C3_2 C 0.1517(6) 1.0950(5) 1.2968(3)
H2_2 H 0.0205 1.1524 1.3076
C4_2 C 0.3379(6) 1.1098(5) 1.3659(2)
C5_2 C 0.5322(6) 1.0304(5) 1.3489(3)
H3_2 H 0.6618 1.0458 1.3954
C6_2 C 0.5377(6) 0.9296(5) 1.2652(3)
H4_2 H 0.6703 0.8746 1.2542
C7_2 C 0.1648(6) 1.3316(5) 1.5618(2)
C8_2 C -0.0327(6) 1.3101(6) 1.5943(3)
H5_2 H -0.1667 1.2411 1.5563
C9_2 C -0.0348(6) 1.3892(5) 1.6822(3)
H6_2 H -0.1684 1.3718 1.7052
C10_2 C 0.1603(6) 1.4941(4) 1.7360(2)
C11_2 C 0.3567(6) 1.5240(5) 1.7030(3)
H7_2 H 0.4875 1.6001 1.7399
C12_2 C 0.3591(6) 1.4418(5) 1.6160(3)
H8_2 H 0.4926 1.4600 1.5929
loop_
_geom_bond_atom_site_label_1
_geom_bond_atom_site_label_2
_geom_bond_site_symmetry_1
_geom_bond_site_symmetry_2
Pb1 O1 1_555 1_555
S1 O1 1_555 1_555
O2 Pb1 1_555 1_555
O3 S1 1_555 1_555
O4 S1 1_555 1_555
N1 C1 1_555 1_555
N2 N3 1_555 1_555
N3 C7 1_555 1_555
C1 C2 1_555 1_555
C2 H1 1_555 1_555
C3 C2 1_555 1_555
H2 C3 1_555 1_555
C4 N2 1_555 1_555
C5 C4 1_555 1_555
H3 C5 1_555 1_555
C6 C1 1_555 1_555
H4 C6 1_555 1_555
C7 C8 1_555 1_555
C8 H5 1_555 1_555
C9 C8 1_555 1_555
H6 C9 1_555 1_555
C10 S1 1_555 1_555
C11 C10 1_555 1_555
H7 C11 1_555 1_555
C12 C7 1_555 1_555
H8 C12 1_555 1_555
Pb1_2 N1 1_555 1_555
Pb1_3 O1_2 1_555 1_555
S1_2 O1_2 1_555 1_555
O1A Pb1 1_555 1_555
O2A Pb1 1_555 1_555
O3_2 S1_2 1_555 1_555
O4_2 S1_2 1_555 1_555
N1_2 Pb1 1_555 1_555
N1A Pb1 1_555 1_555
N2_2 N3_2 1_555 1_555
N3_2 C7_2 1_555 1_555
C1_2 N1_2 1_555 1_555
C2_2 C1_2 1_555 1_555
H1_2 C2_2 1_555 1_555
C3_2 C2_2 1_555 1_555
H2_2 C3_2 1_555 1_555
C4_2 N2_2 1_555 1_555
C5_2 C4_2 1_555 1_555
H3_2 C5_2 1_555 1_555
C6_2 C1_2 1_555 1_555
H4_2 C6_2 1_555 1_555
C7_2 C8_2 1_555 1_555
C8_2 H5_2 1_555 1_555
C9_2 C8_2 1_555 1_555
H6_2 C9_2 1_555 1_555
C10_2 S1_2 1_555 1_555
C11_2 C10_2 1_555 1_555
H7_2 C11_2 1_555 1_555
C12_2 C7_2 1_555 1_555
H8_2 C12_2 1_555 1_555
C3 C4 1_555 1_555
C5 C6 1_555 1_555
C9 C10 1_555 1_555
C11 C12 1_555 1_555
C3_2 C4_2 1_555 1_555
C5_2 C6_2 1_555 1_555
C9_2 C10_2 1_555 1_555
C11_2 C12_2 1_555 1_555

#END
