
#######################################################################
#
#                 Cambridge Crystallographic Data Centre
#                                CCDC 
#
#######################################################################
#
# If this CIF has been generated from an entry in the Cambridge 
# Structural Database, then it will include bibliographic, chemical, 
# crystal, experimental, refinement or atomic coordinate data resulting 
# from the CCDC's data processing and validation procedures.
#
#######################################################################

data_FOSRIP
_symmetry_cell_setting           monoclinic
_symmetry_space_group_name_H-M   'P 21/c'
_symmetry_Int_Tables_number      14
_space_group_name_Hall           '-P 2ybc'
loop_
_symmetry_equiv_pos_site_id
_symmetry_equiv_pos_as_xyz
1 x,y,z
2 -x,1/2+y,1/2-z
3 -x,-y,-z
4 x,1/2-y,1/2+z
_cell_length_a                   14.813(5)
_cell_length_b                   9.088(3)
_cell_length_c                   9.457(3)
_cell_angle_alpha                90
_cell_angle_beta                 92.837(5)
_cell_angle_gamma                90
_cell_volume                     1271.55
loop_
_atom_site_label
_atom_site_type_symbol
_atom_site_fract_x
_atom_site_fract_y
_atom_site_fract_z
Ag1 Ag 0.478601(13) 0.20471(2) 0.10153(2)
S1 S 0.39050(4) -0.11598(6) 0.15019(6)
C1 C 0.27491(15) -0.1123(2) 0.1863(2)
C2 C 0.24530(18) -0.1805(3) 0.3083(3)
C3 C 0.21473(17) -0.0367(3) 0.0969(3)
O1 O 0.43428(13) -0.0064(2) 0.24389(19)
N1 N -0.02571(14) -0.1351(2) 0.3813(2)
C4 C -0.12044(16) -0.1196(3) 0.3968(3)
C5 C 0.09408(16) -0.1002(3) 0.2467(3)
C6 C -0.17854(17) -0.0512(3) 0.2981(3)
N2 N -0.00052(14) -0.0866(3) 0.2659(2)
C7 C -0.30353(16) -0.1010(2) 0.4424(2)
C8 C 0.12392(18) -0.0313(3) 0.1269(3)
C9 C -0.15417(19) -0.1764(3) 0.5201(3)
C10 C -0.24574(18) -0.1677(3) 0.5426(3)
C11 C -0.26980(17) -0.0423(3) 0.3195(3)
C12 C 0.15478(19) -0.1746(3) 0.3384(3)
N3 N -0.39838(14) -0.0927(2) 0.4627(2)
O2 O 0.42349(13) -0.2640(2) 0.1809(2)
O3 O 0.39646(12) -0.0754(2) 0.00202(18)
H1 H -0.271(2) -0.204(3) 0.632(3)
H2 H -0.122(2) -0.218(3) 0.578(3)
H3 H 0.235(2) 0.030(3) 0.022(4)
H4 H 0.132(3) -0.210(3) 0.417(4)
H5 H -0.158(2) -0.017(3) 0.222(3)
H6 H 0.285(2) -0.228(3) 0.368(3)
H7 H -0.422(2) -0.030(3) 0.404(4)
H8 H -0.403(3) -0.092(4) 0.559(4)
H9 H -0.309(3) -0.009(3) 0.241(4)
H10 H 0.074(3) 0.025(4) 0.066(4)
Ag1A Ag -0.478601(13) -0.29529(2) 0.39847(2)
Ag1A_2 Ag 0.521399(13) -0.29529(2) 0.39847(2)
Ag1B Ag 0.521399(13) -0.20471(2) -0.10153(2)
N3A N 0.39838(14) 0.4073(2) 0.0373(2)
O2A O 0.57651(13) 0.2360(2) 0.3191(2)
O3B O 0.60354(12) 0.0754(2) -0.00202(18)
H7A H 0.422(2) 0.470(3) 0.096(4)
H8A H 0.403(3) 0.408(4) -0.059(4)
loop_
_geom_bond_atom_site_label_1
_geom_bond_atom_site_label_2
_geom_bond_site_symmetry_1
_geom_bond_site_symmetry_2
Ag1 O1 1_555 1_555
S1 C1 1_555 1_555
C1 C2 1_555 1_555
C2 C12 1_555 1_555
C3 C1 1_555 1_555
O1 S1 1_555 1_555
N1 C4 1_555 1_555
C4 C6 1_555 1_555
C5 N2 1_555 1_555
C6 C11 1_555 1_555
N2 N1 1_555 1_555
C7 C10 1_555 1_555
C8 C3 1_555 1_555
C9 C4 1_555 1_555
C10 C9 1_555 1_555
C11 C7 1_555 1_555
C12 C5 1_555 1_555
N3 C7 1_555 1_555
O2 S1 1_555 1_555
O3 S1 1_555 1_555
H1 C10 1_555 1_555
H2 C9 1_555 1_555
H3 C3 1_555 1_555
H4 C12 1_555 1_555
H5 C6 1_555 1_555
H6 C2 1_555 1_555
H7 N3 1_555 1_555
H8 N3 1_555 1_555
H9 C11 1_555 1_555
H10 C8 1_555 1_555
Ag1A N3 1_555 1_555
Ag1A_2 O2 1_555 1_555
Ag1B O3 1_555 1_555
N3A Ag1 1_555 1_555
O2A Ag1 1_555 1_555
O3B Ag1 1_555 1_555
H7A N3A 1_555 1_555
H8A N3A 1_555 1_555
C5 C8 1_555 1_555

#END
