
#######################################################################
#
#                 Cambridge Crystallographic Data Centre
#                                CCDC 
#
#######################################################################
#
# If this CIF has been generated from an entry in the Cambridge 
# Structural Database, then it will include bibliographic, chemical, 
# crystal, experimental, refinement or atomic coordinate data resulting 
# from the CCDC's data processing and validation procedures.
#
#######################################################################

data_FOSRAH
_symmetry_cell_setting           triclinic
_symmetry_space_group_name_H-M   'P -1'
_symmetry_Int_Tables_number      2
_space_group_name_Hall           '-P 1'
loop_
_symmetry_equiv_pos_site_id
_symmetry_equiv_pos_as_xyz
1 x,y,z
2 -x,-y,-z
_cell_length_a                   5.9899(15)
_cell_length_b                   7.103(2)
_cell_length_c                   15.529(5)
_cell_angle_alpha                101.441(6)
_cell_angle_beta                 99.923(13)
_cell_angle_gamma                95.931(9)
_cell_volume                     631.381
loop_
_atom_site_label
_atom_site_type_symbol
_atom_site_fract_x
_atom_site_fract_y
_atom_site_fract_z
Cd1 Cd 0.5000 0.5000 0.0000
S1 S 0.32088(9) 0.21808(7) 0.14287(3)
O1 O 0.0736(3) 0.1801(3) 0.12900(12)
O2 O 0.7879(3) 0.3005(2) -0.00080(11)
O3 O 0.4193(3) 0.0592(3) 0.09617(12)
O4 O 0.4020(3) 0.4028(2) 0.12288(10)
N1 N 1.2441(3) 0.2382(3) 0.90726(12)
N2 N 0.8887(3) 0.2474(3) 0.54820(12)
N3 N 0.6816(3) 0.2637(3) 0.52889(13)
C1 C 1.1540(3) 0.2443(3) 0.81623(13)
C2 C 0.9458(4) 0.3122(3) 0.79548(14)
H1 H 0.8664 0.3565 0.8418
C3 C 0.8541(4) 0.3157(3) 0.70804(15)
H2 H 0.7115 0.3614 0.6943
C4 C 0.9703(4) 0.2524(3) 0.64005(14)
C5 C 1.1844(4) 0.1930(3) 0.66147(15)
H3 H 1.2682 0.1561 0.6157
C6 C 1.2748(4) 0.1876(3) 0.74889(15)
H4 H 1.4193 0.1452 0.7630
C7 C 0.6047(4) 0.2623(3) 0.43668(14)
C8 C 0.3692(4) 0.2072(4) 0.40356(15)
H5 H 0.2701 0.1794 0.4424
C9 C 0.2817(4) 0.1936(4) 0.31310(15)
H6 H 0.1236 0.1508 0.2891
C10 C 0.4272(4) 0.2430(3) 0.25850(13)
C11 C 0.6586(4) 0.3058(3) 0.29229(15)
H7 H 0.7558 0.3420 0.2542
C12 C 0.7467(4) 0.3154(3) 0.38120(15)
H8 H 0.9051 0.3584 0.4046
Cd1_2 Cd 1.5000 0.5000 1.0000
Cd1_3 Cd -0.5000 0.5000 -1.0000
S1_2 S -0.67912(9) 0.21808(7) -0.85713(3)
O1_2 O -0.9264(3) 0.1801(3) -0.87100(12)
O2A O 0.2121(3) 0.6995(2) 0.00080(11)
O3_2 O -0.5807(3) 0.0592(3) -0.90383(12)
O4A O 0.5980(3) 0.5972(2) -0.12288(10)
O4_2 O -0.5980(3) 0.4028(2) -0.87712(10)
N1A N 0.7559(3) 0.7618(3) 0.09274(12)
N1_2 N 0.2441(3) 0.2382(3) -0.09274(12)
N2_2 N -0.1113(3) 0.2474(3) -0.45180(12)
N3_2 N -0.3184(3) 0.2637(3) -0.47111(13)
C1_2 C 0.1540(3) 0.2443(3) -0.18377(13)
C2_2 C -0.0542(4) 0.3122(3) -0.20452(14)
H1_2 H -0.1336 0.3565 -0.1582
C3_2 C -0.1459(4) 0.3157(3) -0.29196(15)
H2_2 H -0.2885 0.3614 -0.3057
C4_2 C -0.0297(4) 0.2524(3) -0.35995(14)
C5_2 C 0.1844(4) 0.1930(3) -0.33853(15)
H3_2 H 0.2682 0.1561 -0.3843
C6_2 C 0.2748(4) 0.1876(3) -0.25111(15)
H4_2 H 0.4193 0.1452 -0.2370
C7_2 C -0.3953(4) 0.2623(3) -0.56332(14)
C8_2 C -0.6308(4) 0.2072(4) -0.59644(15)
H5_2 H -0.7299 0.1794 -0.5576
C9_2 C -0.7183(4) 0.1936(4) -0.68690(15)
H6_2 H -0.8764 0.1508 -0.7109
C10_2 C -0.5728(4) 0.2430(3) -0.74150(13)
C11_2 C -0.3414(4) 0.3058(3) -0.70771(15)
H7_2 H -0.2442 0.3420 -0.7458
C12_2 C -0.2533(4) 0.3154(3) -0.61880(15)
H8_2 H -0.0949 0.3584 -0.5954
loop_
_geom_bond_atom_site_label_1
_geom_bond_atom_site_label_2
_geom_bond_site_symmetry_1
_geom_bond_site_symmetry_2
Cd1 O2 1_555 1_555
S1 O1 1_555 1_555
O3 S1 1_555 1_555
O4 Cd1 1_555 1_555
N1 C1 1_555 1_555
N2 N3 1_555 1_555
N3 C7 1_555 1_555
C1 C2 1_555 1_555
C2 H1 1_555 1_555
C3 C2 1_555 1_555
H2 C3 1_555 1_555
C4 N2 1_555 1_555
C5 C4 1_555 1_555
H3 C5 1_555 1_555
C6 C1 1_555 1_555
H4 C6 1_555 1_555
C7 C8 1_555 1_555
C8 H5 1_555 1_555
C9 C8 1_555 1_555
H6 C9 1_555 1_555
C10 S1 1_555 1_555
C11 C10 1_555 1_555
H7 C11 1_555 1_555
C12 C7 1_555 1_555
H8 C12 1_555 1_555
Cd1_2 N1 1_555 1_555
Cd1_3 O4_2 1_555 1_555
S1_2 O1_2 1_555 1_555
O2A Cd1 1_555 1_555
O3_2 S1_2 1_555 1_555
O4A Cd1 1_555 1_555
O4_2 S1_2 1_555 1_555
N1A Cd1 1_555 1_555
N1_2 Cd1 1_555 1_555
N2_2 N3_2 1_555 1_555
N3_2 C7_2 1_555 1_555
C1_2 N1_2 1_555 1_555
C2_2 C1_2 1_555 1_555
H1_2 C2_2 1_555 1_555
C3_2 C2_2 1_555 1_555
H2_2 C3_2 1_555 1_555
C4_2 N2_2 1_555 1_555
C5_2 C4_2 1_555 1_555
H3_2 C5_2 1_555 1_555
C6_2 C1_2 1_555 1_555
H4_2 C6_2 1_555 1_555
C7_2 C8_2 1_555 1_555
C8_2 H5_2 1_555 1_555
C9_2 C8_2 1_555 1_555
H6_2 C9_2 1_555 1_555
C10_2 S1_2 1_555 1_555
C11_2 C10_2 1_555 1_555
H7_2 C11_2 1_555 1_555
C12_2 C7_2 1_555 1_555
H8_2 C12_2 1_555 1_555
S1 O4 1_555 1_555
C3 C4 1_555 1_555
C5 C6 1_555 1_555
C9 C10 1_555 1_555
C11 C12 1_555 1_555
C3_2 C4_2 1_555 1_555
C5_2 C6_2 1_555 1_555
C9_2 C10_2 1_555 1_555
C11_2 C12_2 1_555 1_555

#END
