
#######################################################################
#
#                 Cambridge Crystallographic Data Centre
#                                CCDC 
#
#######################################################################
#
# If this CIF has been generated from an entry in the Cambridge 
# Structural Database, then it will include bibliographic, chemical, 
# crystal, experimental, refinement or atomic coordinate data resulting 
# from the CCDC's data processing and validation procedures.
#
#######################################################################

data_FOSYAP
_symmetry_cell_setting           orthorhombic
_symmetry_space_group_name_H-M   'P b c n'
_symmetry_Int_Tables_number      60
_space_group_name_Hall           '-P 2n 2ab'
loop_
_symmetry_equiv_pos_site_id
_symmetry_equiv_pos_as_xyz
1 x,y,z
2 1/2-x,1/2-y,1/2+z
3 1/2+x,1/2-y,-z
4 -x,y,1/2-z
5 -x,-y,-z
6 1/2+x,1/2+y,1/2-z
7 1/2-x,1/2+y,z
8 x,-y,1/2+z
_cell_length_a                   14.47140(10)
_cell_length_b                   14.05810(10)
_cell_length_c                   21.3166(2)
_cell_angle_alpha                90
_cell_angle_beta                 90
_cell_angle_gamma                90
_cell_volume                     4336.66
loop_
_atom_site_label
_atom_site_type_symbol
_atom_site_fract_x
_atom_site_fract_y
_atom_site_fract_z
Cu1 Cu -0.35443(5) 0.62637(5) -0.11135(3)
O1 O -0.4085(2) 0.5016(3) -0.09298(18)
O2 O -0.3701(2) 0.3529(2) -0.06747(17)
O3 O -0.1983(2) 0.2569(2) -0.11260(16)
O4 O -0.1670(3) 0.2622(3) -0.01013(17)
N1 N -0.2387(3) 0.5621(3) -0.08609(19)
N2 N -0.3271(3) 0.6042(3) -0.2139(2)
N3 N 0.0218(3) 0.1879(3) -0.3833(2)
C1 C -0.2505(4) 0.4676(3) -0.0771(2)
C2 C -0.1767(4) 0.4075(4) -0.0664(2)
C3 C -0.0880(4) 0.4470(4) -0.0642(2)
H1 H -0.0369 0.4084 -0.0570
C4 C -0.0767(4) 0.5439(4) -0.0728(3)
H2 H -0.0181 0.5711 -0.0714
C5 C -0.1539(4) 0.5999(4) -0.0835(2)
H3 H -0.1467 0.6651 -0.0890
C6 C -0.3507(3) 0.4364(4) -0.0791(2)
C7 C -0.1840(3) 0.2999(3) -0.0609(2)
C8 C -0.2560(5) 0.6443(5) -0.2441(3)
H4 H -0.2190 0.6869 -0.2221
C9 C -0.2346(5) 0.6261(5) -0.3054(3)
H5 H -0.1829 0.6540 -0.3237
C10 C -0.3801(4) 0.5462(5) -0.2470(3)
H6 H -0.4298 0.5170 -0.2272
C11 C -0.3650(4) 0.5268(5) -0.3105(3)
H7 H -0.4053 0.4875 -0.3325
C12 C -0.2901(4) 0.5661(4) -0.3399(3)
C13 C -0.2664(6) 0.5404(5) -0.4068(3)
H8 H -0.2474 0.5972 -0.4292
H9 H -0.3208 0.5150 -0.4275
C14 C -0.1884(5) 0.4665(4) -0.4094(3)
H10 H -0.1367 0.4892 -0.3846
H11 H -0.1675 0.4603 -0.4525
C15 C -0.2179(4) 0.3678(4) -0.3850(3)
H12 H -0.2429 0.3738 -0.3429
H13 H -0.2657 0.3417 -0.4118
C16 C -0.1362(3) 0.3024(4) -0.3842(2)
C17 C -0.1154(4) 0.2432(3) -0.4341(2)
H14 H -0.1539 0.2412 -0.4690
C18 C -0.0363(4) 0.1864(3) -0.4316(2)
H15 H -0.0238 0.1459 -0.4651
C19 C -0.0751(4) 0.3021(4) -0.3333(2)
H16 H -0.0870 0.3398 -0.2984
C20 C 0.0026(4) 0.2456(4) -0.3351(2)
H17 H 0.0434 0.2476 -0.3015
Cu1E Cu 0.14557(5) 0.12637(5) -0.38865(3)
Cu1F Cu -0.14557(5) 0.12637(5) -0.11135(3)
O3F O -0.3017(2) 0.7569(2) -0.11260(16)
N3E N -0.4782(3) 0.6879(3) -0.1167(2)
O5 O -0.5415(3) 0.2602(4) -0.0938(2)
O6 O -0.2502(5) 0.3715(4) -0.2176(3)
O7 O -0.4182(6) 0.3045(6) -0.2763(3)
O8 O -0.0888(7) 0.4858(7) -0.2266(4)
loop_
_geom_bond_atom_site_label_1
_geom_bond_atom_site_label_2
_geom_bond_site_symmetry_1
_geom_bond_site_symmetry_2
Cu1 O1 1_555 1_555
O1 C6 1_555 1_555
O2 C6 1_555 1_555
O3 C7 1_555 1_555
O4 C7 1_555 1_555
N1 Cu1 1_555 1_555
N2 Cu1 1_555 1_555
N3 C18 1_555 1_555
C1 N1 1_555 1_555
C2 C1 1_555 1_555
C3 C2 1_555 1_555
H1 C3 1_555 1_555
C4 C3 1_555 1_555
H2 C4 1_555 1_555
C5 N1 1_555 1_555
H3 C5 1_555 1_555
C6 C1 1_555 1_555
C7 C2 1_555 1_555
C8 N2 1_555 1_555
H4 C8 1_555 1_555
C9 C8 1_555 1_555
H5 C9 1_555 1_555
C10 N2 1_555 1_555
H6 C10 1_555 1_555
C11 C10 1_555 1_555
H7 C11 1_555 1_555
C12 C9 1_555 1_555
C13 C12 1_555 1_555
H8 C13 1_555 1_555
H9 C13 1_555 1_555
C14 C13 1_555 1_555
H10 C14 1_555 1_555
H11 C14 1_555 1_555
C15 C14 1_555 1_555
H12 C15 1_555 1_555
H13 C15 1_555 1_555
C16 C15 1_555 1_555
C17 C16 1_555 1_555
H14 C17 1_555 1_555
C18 C17 1_555 1_555
H15 C18 1_555 1_555
C19 C16 1_555 1_555
H16 C19 1_555 1_555
C20 N3 1_555 1_555
H17 C20 1_555 1_555
Cu1E N3 1_555 1_555
Cu1F O3 1_555 1_555
O3F Cu1 1_555 1_555
N3E Cu1 1_555 1_555
C4 C5 1_555 1_555
C11 C12 1_555 1_555
C19 C20 1_555 1_555

#END
