
#######################################################################
#
#                 Cambridge Crystallographic Data Centre
#                                CCDC 
#
#######################################################################
#
# If this CIF has been generated from an entry in the Cambridge 
# Structural Database, then it will include bibliographic, chemical, 
# crystal, experimental, refinement or atomic coordinate data resulting 
# from the CCDC's data processing and validation procedures.
#
#######################################################################

data_FOSZEU
_symmetry_cell_setting           monoclinic
_symmetry_space_group_name_H-M   'P 21/n'
_symmetry_Int_Tables_number      14
_space_group_name_Hall           '-P 2yn'
loop_
_symmetry_equiv_pos_site_id
_symmetry_equiv_pos_as_xyz
1 x,y,z
2 1/2-x,1/2+y,1/2-z
3 -x,-y,-z
4 1/2+x,1/2-y,1/2+z
_cell_length_a                   9.151(2)
_cell_length_b                   8.6680(10)
_cell_length_c                   11.631(2)
_cell_angle_alpha                90
_cell_angle_beta                 95.980(10)
_cell_angle_gamma                90
_cell_volume                     917.561
loop_
_atom_site_label
_atom_site_type_symbol
_atom_site_fract_x
_atom_site_fract_y
_atom_site_fract_z
Co1 Co 0.0000 0.0000 0.0000
N1 N 0.55838(16) -0.27391(17) 0.03769(12)
H1 H 0.579(2) -0.278(2) 0.1074(17)
C1 C 0.44272(19) -0.1903(2) -0.00648(14)
H2 H 0.3897 -0.1318 0.0418
C2 C 0.40285(16) -0.19155(18) -0.12454(14)
C3 C 0.48545(17) -0.28050(17) -0.19384(14)
H3 H 0.4612 -0.2810 -0.2735
C4 C 0.60383(17) -0.36872(18) -0.14588(14)
C5 C 0.63835(19) -0.3606(2) -0.02692(14)
H4 H 0.7179 -0.4162 0.0080
P1 P 0.23809(4) -0.09417(5) -0.18547(4)
O1 O 0.18550(12) 0.00823(12) -0.09570(10)
O2 O 0.13642(12) -0.22024(12) -0.23514(9)
O3 O 0.28572(13) -0.00417(13) -0.29231(10)
H5 H 0.307(2) 0.0854(13) -0.2751(16)
P2 P 0.71432(4) -0.48951(5) -0.23095(4)
O4 O 0.63791(14) -0.50555(14) -0.34933(10)
O5 O 0.74953(13) -0.63428(13) -0.16327(10)
O6 O 0.86044(13) -0.39258(14) -0.23211(11)
H6 H 0.847(2) -0.3053(14) -0.2565(17)
O7 O 0.01061(15) -0.25023(16) 0.00494(11)
H7 H 0.0832(16) -0.293(2) 0.0407(17)
H8 H 0.009(2) -0.290(2) -0.0593(11)
N1B N -0.55838(16) 0.27391(17) -0.03769(12)
H1B H -0.579(2) 0.278(2) -0.1074(17)
C1B C -0.44272(19) 0.1903(2) 0.00648(14)
H2B H -0.3897 0.1318 -0.0418
C2B C -0.40285(16) 0.19155(18) 0.12454(14)
C3B C -0.48545(17) 0.28050(17) 0.19384(14)
H3B H -0.4612 0.2810 0.2735
C4B C -0.60383(17) 0.36872(18) 0.14588(14)
C5B C -0.63835(19) 0.3606(2) 0.02692(14)
H4B H -0.7179 0.4162 -0.0080
P1B P -0.23809(4) 0.09417(5) 0.18547(4)
O1B O -0.18550(12) -0.00823(12) 0.09570(10)
O2B O -0.13642(12) 0.22024(12) 0.23514(9)
O3B O -0.28572(13) 0.00417(13) 0.29231(10)
H5B H -0.307(2) -0.0854(13) 0.2751(16)
P2B P -0.71432(4) 0.48951(5) 0.23095(4)
O4B O -0.63791(14) 0.50555(14) 0.34933(10)
O5B O -0.74953(13) 0.63428(13) 0.16327(10)
O6B O -0.86044(13) 0.39258(14) 0.23211(11)
H6B H -0.847(2) 0.3053(14) 0.2565(17)
O7B O -0.01061(15) 0.25023(16) -0.00494(11)
H7B H -0.0832(16) 0.293(2) -0.0407(17)
H8B H -0.009(2) 0.290(2) 0.0593(11)
Co1A Co -0.5000 0.5000 0.5000
Co1A_2 Co 0.5000 -0.5000 -0.5000
O4A O -0.13791(14) -0.00555(14) -0.15067(10)
O4C O 0.13791(14) 0.00555(14) 0.15067(10)
loop_
_geom_bond_atom_site_label_1
_geom_bond_atom_site_label_2
_geom_bond_site_symmetry_1
_geom_bond_site_symmetry_2
Co1 O1 1_555 1_555
N1 H1 1_555 1_555
C1 N1 1_555 1_555
H2 C1 1_555 1_555
C2 C1 1_555 1_555
C3 C2 1_555 1_555
H3 C3 1_555 1_555
C4 C3 1_555 1_555
C5 N1 1_555 1_555
H4 C5 1_555 1_555
P1 C2 1_555 1_555
O1 P1 1_555 1_555
O2 P1 1_555 1_555
O3 P1 1_555 1_555
H5 O3 1_555 1_555
P2 C4 1_555 1_555
O4 P2 1_555 1_555
O5 P2 1_555 1_555
O6 P2 1_555 1_555
H6 O6 1_555 1_555
O7 Co1 1_555 1_555
H7 O7 1_555 1_555
H8 O7 1_555 1_555
N1B H1B 1_555 1_555
C1B N1B 1_555 1_555
H2B C1B 1_555 1_555
C2B C1B 1_555 1_555
C3B C2B 1_555 1_555
H3B C3B 1_555 1_555
C4B C3B 1_555 1_555
C5B N1B 1_555 1_555
H4B C5B 1_555 1_555
P1B C2B 1_555 1_555
O1B Co1 1_555 1_555
O2B P1B 1_555 1_555
O3B P1B 1_555 1_555
H5B O3B 1_555 1_555
P2B C4B 1_555 1_555
O4B P2B 1_555 1_555
O5B P2B 1_555 1_555
O6B P2B 1_555 1_555
H6B O6B 1_555 1_555
O7B Co1 1_555 1_555
H7B O7B 1_555 1_555
H8B O7B 1_555 1_555
Co1A O4B 1_555 1_555
Co1A_2 O4 1_555 1_555
O4A Co1 1_555 1_555
O4C Co1 1_555 1_555
C4 C5 1_555 1_555
C4B C5B 1_555 1_555
P1B O1B 1_555 1_555

#END
