
#######################################################################
#
#                 Cambridge Crystallographic Data Centre
#                                CCDC 
#
#######################################################################
#
# If this CIF has been generated from an entry in the Cambridge 
# Structural Database, then it will include bibliographic, chemical, 
# crystal, experimental, refinement or atomic coordinate data resulting 
# from the CCDC's data processing and validation procedures.
#
#######################################################################

data_FOSZIY
_symmetry_cell_setting           monoclinic
_symmetry_space_group_name_H-M   'P 21/n'
_symmetry_Int_Tables_number      14
_space_group_name_Hall           '-P 2yn'
loop_
_symmetry_equiv_pos_site_id
_symmetry_equiv_pos_as_xyz
1 x,y,z
2 1/2-x,1/2+y,1/2-z
3 -x,-y,-z
4 1/2+x,1/2-y,1/2+z
_cell_length_a                   9.1826(18)
_cell_length_b                   8.6841(17)
_cell_length_c                   11.656(2)
_cell_angle_alpha                90
_cell_angle_beta                 96.31(3)
_cell_angle_gamma                90
_cell_volume                     923.849
loop_
_atom_site_label
_atom_site_type_symbol
_atom_site_fract_x
_atom_site_fract_y
_atom_site_fract_z
Zn1 Zn 0.0000 0.0000 0.0000
N1 N 0.55916(19) -0.2751(2) 0.03818(14)
H1 H 0.5831 -0.2731 0.1116
C1 C 0.4431(2) -0.1915(2) -0.00667(16)
H2 H 0.3897 -0.1340 0.0415
C2 C 0.40375(19) -0.1915(2) -0.12477(15)
C3 C 0.4858(2) -0.2808(2) -0.19427(16)
H3 H 0.4612 -0.2815 -0.2738
C4 C 0.6040(2) -0.3685(2) -0.14576(16)
C5 C 0.6386(2) -0.3612(2) -0.02678(17)
H4 H 0.7179 -0.4169 0.0080
P1 P 0.23894(5) -0.09355(5) -0.18533(4)
O1 O 0.18741(15) 0.00937(15) -0.09518(12)
O2 O 0.13676(15) -0.21943(15) -0.23500(11)
O3 O 0.28633(17) -0.00385(15) -0.29212(12)
H5 H 0.320(3) 0.0820(16) -0.278(2)
P2 P 0.71429(5) -0.48881(5) -0.23059(4)
O4 O 0.63791(18) -0.50534(17) -0.34900(13)
O5 O 0.75054(16) -0.63411(16) -0.16330(12)
O6 O 0.86013(16) -0.39163(17) -0.23133(14)
H6 H 0.842(3) -0.3060(17) -0.256(2)
O7 O 0.01087(18) -0.2514(2) 0.00532(13)
H7 H 0.085(2) -0.288(3) 0.040(2)
H8 H 0.012(3) -0.280(3) -0.0609(12)
N1B N -0.55916(19) 0.2751(2) -0.03818(14)
H1B H -0.5831 0.2731 -0.1116
C1B C -0.4431(2) 0.1915(2) 0.00667(16)
H2B H -0.3897 0.1340 -0.0415
C2B C -0.40375(19) 0.1915(2) 0.12477(15)
C3B C -0.4858(2) 0.2808(2) 0.19427(16)
H3B H -0.4612 0.2815 0.2738
C4B C -0.6040(2) 0.3685(2) 0.14576(16)
C5B C -0.6386(2) 0.3612(2) 0.02678(17)
H4B H -0.7179 0.4169 -0.0080
P1B P -0.23894(5) 0.09355(5) 0.18533(4)
O1B O -0.18741(15) -0.00937(15) 0.09518(12)
O2B O -0.13676(15) 0.21943(15) 0.23500(11)
O3B O -0.28633(17) 0.00385(15) 0.29212(12)
H5B H -0.320(3) -0.0820(16) 0.278(2)
P2B P -0.71429(5) 0.48881(5) 0.23059(4)
O4B O -0.63791(18) 0.50534(17) 0.34900(13)
O5B O -0.75054(16) 0.63411(16) 0.16330(12)
O6B O -0.86013(16) 0.39163(17) 0.23133(14)
H6B H -0.842(3) 0.3060(17) 0.256(2)
O7B O -0.01087(18) 0.2514(2) -0.00532(13)
H7B H -0.085(2) 0.288(3) -0.040(2)
H8B H -0.012(3) 0.280(3) 0.0609(12)
Zn1A Zn -0.5000 0.5000 0.5000
Zn1A_2 Zn 0.5000 -0.5000 -0.5000
O4A O -0.13791(18) -0.00534(17) -0.15100(13)
O4C O 0.13791(18) 0.00534(17) 0.15100(13)
loop_
_geom_bond_atom_site_label_1
_geom_bond_atom_site_label_2
_geom_bond_site_symmetry_1
_geom_bond_site_symmetry_2
Zn1 O1 1_555 1_555
N1 H1 1_555 1_555
C1 N1 1_555 1_555
H2 C1 1_555 1_555
C2 C1 1_555 1_555
C3 C2 1_555 1_555
H3 C3 1_555 1_555
C4 C3 1_555 1_555
C5 N1 1_555 1_555
H4 C5 1_555 1_555
P1 C2 1_555 1_555
O1 P1 1_555 1_555
O2 P1 1_555 1_555
O3 P1 1_555 1_555
H5 O3 1_555 1_555
P2 C4 1_555 1_555
O4 P2 1_555 1_555
O5 P2 1_555 1_555
O6 P2 1_555 1_555
H6 O6 1_555 1_555
O7 Zn1 1_555 1_555
H7 O7 1_555 1_555
H8 O7 1_555 1_555
N1B H1B 1_555 1_555
C1B N1B 1_555 1_555
H2B C1B 1_555 1_555
C2B C1B 1_555 1_555
C3B C2B 1_555 1_555
H3B C3B 1_555 1_555
C4B C3B 1_555 1_555
C5B N1B 1_555 1_555
H4B C5B 1_555 1_555
P1B C2B 1_555 1_555
O1B Zn1 1_555 1_555
O2B P1B 1_555 1_555
O3B P1B 1_555 1_555
H5B O3B 1_555 1_555
P2B C4B 1_555 1_555
O4B P2B 1_555 1_555
O5B P2B 1_555 1_555
O6B P2B 1_555 1_555
H6B O6B 1_555 1_555
O7B Zn1 1_555 1_555
H7B O7B 1_555 1_555
H8B O7B 1_555 1_555
Zn1A O4B 1_555 1_555
Zn1A_2 O4 1_555 1_555
O4A Zn1 1_555 1_555
O4C Zn1 1_555 1_555
C4 C5 1_555 1_555
C4B C5B 1_555 1_555
P1B O1B 1_555 1_555

#END
