
#######################################################################
#
#                 Cambridge Crystallographic Data Centre
#                                CCDC 
#
#######################################################################
#
# If this CIF has been generated from an entry in the Cambridge 
# Structural Database, then it will include bibliographic, chemical, 
# crystal, experimental, refinement or atomic coordinate data resulting 
# from the CCDC's data processing and validation procedures.
#
#######################################################################

data_FOTHOL
_symmetry_cell_setting           orthorhombic
_symmetry_space_group_name_H-M   'P b c 21'
_symmetry_Int_Tables_number      29
_space_group_name_Hall           'P 2c -2b'
loop_
_symmetry_equiv_pos_site_id
_symmetry_equiv_pos_as_xyz
1 x,y,z
2 -x,-y,1/2+z
3 -x,1/2+y,z
4 x,1/2-y,1/2+z
_cell_length_a                   8.235(2)
_cell_length_b                   19.565(5)
_cell_length_c                   7.994(2)
_cell_angle_alpha                90
_cell_angle_beta                 90
_cell_angle_gamma                90
_cell_volume                     1287.98
loop_
_atom_site_label
_atom_site_type_symbol
_atom_site_fract_x
_atom_site_fract_y
_atom_site_fract_z
Cu1 Cu 0.21890(6) 0.15741(2) 0.25000
O1 O 0.4082(4) 0.1212(2) 0.1243(5)
O2 O 0.2194(4) 0.2260(2) 0.0713(5)
O3 O 0.3906(4) 0.2302(2) 0.3840(5)
O4 O 0.5859(4) 0.1566(2) -0.0662(6)
N1 N -0.0137(5) 0.1726(2) 0.3021(5)
N2 N -0.2565(5) 0.2147(3) 0.3414(7)
N3 N 0.2482(5) 0.0814(2) 0.4117(6)
N4 N 0.3109(6) -0.0198(2) 0.5048(8)
C1 C 0.4600(6) 0.1629(2) 0.0147(7)
C2 C 0.3495(6) 0.2255(2) -0.0135(7)
C3 C -0.1016(6) 0.2295(2) 0.3037(6)
C4 C -0.1209(6) 0.1200(3) 0.3410(9)
C5 C -0.2693(7) 0.1455(3) 0.3638(9)
C6 C -0.0445(7) 0.3005(3) 0.274(1)
C7 C 0.2555(7) 0.0154(3) 0.3754(8)
C8 C 0.3016(7) 0.0876(3) 0.5743(8)
C9 C 0.3404(9) 0.0246(4) 0.630(1)
C10 C 0.2091(9) -0.0155(3) 0.2129(9)
H1 H -0.32(1) 0.250(5) 0.35(1)
H2 H 0.33(1) -0.068(5) 0.50(1)
H3 H -0.09(1) 0.083(4) 0.34(1)
H4 H -0.38(1) 0.119(4) 0.39(1)
H5 H 0.32(1) 0.125(5) 0.64(1)
H6 H 0.384(9) 0.010(4) 0.73(1)
H7 H 0.06885 0.30420 0.29949
H8 H -0.05987 0.31278 0.15937
H9 H -0.10288 0.33163 0.34259
H10 H 0.09420 -0.02294 0.20906
H11 H 0.23774 0.01478 0.12379
H12 H 0.26310 -0.05774 0.19777
C2C C 0.3495(6) 0.2745(2) 0.4865(7)
O3C O 0.3906(4) 0.2698(2) -0.1160(5)
O2C O 0.2194(4) 0.2740(2) 0.5713(5)
C1C C 0.4600(6) 0.3371(2) 0.5147(7)
Cu1C Cu 0.21890(6) 0.34259(2) -0.25000
Cu1C_2 Cu 0.21890(6) 0.34259(2) 0.75000
O1C O 0.4082(4) 0.3788(2) 0.6243(5)
O4C O 0.5859(4) 0.3434(2) 0.4338(6)
O1C_2 O 0.4082(4) 0.3788(2) -0.3757(5)
O2C_2 O 0.2194(4) 0.2740(2) -0.4287(5)
N1C N -0.0137(5) 0.3274(2) -0.1979(5)
N3C N 0.2482(5) 0.4186(2) -0.0883(6)
C3C C -0.1016(6) 0.2705(2) -0.1963(6)
C4C C -0.1209(6) 0.3800(3) -0.1590(9)
C7C C 0.2555(7) 0.4846(3) -0.1246(8)
C8C C 0.3016(7) 0.4124(3) 0.0743(8)
N2C N -0.2565(5) 0.2853(3) -0.1586(7)
C6C C -0.0445(7) 0.1995(3) -0.226(1)
C5C C -0.2693(7) 0.3545(3) -0.1362(9)
H3C H -0.09(1) 0.417(4) -0.16(1)
N4C N 0.3109(6) 0.5198(2) 0.0048(8)
C10C C 0.2091(9) 0.5155(3) -0.2871(9)
C9C C 0.3404(9) 0.4754(4) 0.130(1)
H5C H 0.32(1) 0.375(5) 0.14(1)
H1C H -0.32(1) 0.250(5) -0.15(1)
H7C H 0.06885 0.19580 -0.20051
H8C H -0.05987 0.18722 -0.34063
H9C H -0.10288 0.16837 -0.15741
H4C H -0.38(1) 0.381(4) -0.11(1)
H2C H 0.33(1) 0.568(5) 0.00(1)
H10C H 0.09420 0.52294 -0.29094
H11C H 0.23774 0.48522 -0.37621
H12C H 0.26310 0.55774 -0.30223
H6C H 0.384(9) 0.490(4) 0.23(1)
loop_
_geom_bond_atom_site_label_1
_geom_bond_atom_site_label_2
_geom_bond_site_symmetry_1
_geom_bond_site_symmetry_2
Cu1 O1 1_555 1_555
O1 C1 1_555 1_555
O2 Cu1 1_555 1_555
O3 Cu1 1_555 1_555
O4 C1 1_555 1_555
N1 Cu1 1_555 1_555
N2 C3 1_555 1_555
N3 Cu1 1_555 1_555
N4 C7 1_555 1_555
C1 C2 1_555 1_555
C2 O2 1_555 1_555
C3 N1 1_555 1_555
C4 N1 1_555 1_555
C5 N2 1_555 1_555
C6 C3 1_555 1_555
C7 N3 1_555 1_555
C8 N3 1_555 1_555
C9 N4 1_555 1_555
C10 C7 1_555 1_555
H1 N2 1_555 1_555
H2 N4 1_555 1_555
H3 C4 1_555 1_555
H4 C5 1_555 1_555
H5 C8 1_555 1_555
H6 C9 1_555 1_555
H7 C6 1_555 1_555
H8 C6 1_555 1_555
H9 C6 1_555 1_555
H10 C10 1_555 1_555
H11 C10 1_555 1_555
H12 C10 1_555 1_555
C2C O3 1_555 1_555
O3C C2 1_555 1_555
O2C C2C 1_555 1_555
C1C C2C 1_555 1_555
Cu1C O3C 1_555 1_555
Cu1C_2 O2C 1_555 1_555
O1C C1C 1_555 1_555
O4C C1C 1_555 1_555
O1C_2 Cu1C 1_555 1_555
O2C_2 Cu1C 1_555 1_555
N1C Cu1C 1_555 1_555
N3C Cu1C 1_555 1_555
C3C N1C 1_555 1_555
C4C N1C 1_555 1_555
C7C N3C 1_555 1_555
C8C N3C 1_555 1_555
N2C C3C 1_555 1_555
C6C C3C 1_555 1_555
C5C C4C 1_555 1_555
H3C C4C 1_555 1_555
N4C C7C 1_555 1_555
C10C C7C 1_555 1_555
C9C C8C 1_555 1_555
H5C C8C 1_555 1_555
H1C N2C 1_555 1_555
H7C C6C 1_555 1_555
H8C C6C 1_555 1_555
H9C C6C 1_555 1_555
H4C C5C 1_555 1_555
H2C N4C 1_555 1_555
H10C C10C 1_555 1_555
H11C C10C 1_555 1_555
H12C C10C 1_555 1_555
H6C C9C 1_555 1_555
C4 C5 1_555 1_555
C8 C9 1_555 1_555
Cu1C_2 O1C 1_555 1_555
N2C C5C 1_555 1_555
N4C C9C 1_555 1_555

#END
