
#######################################################################
#
#                 Cambridge Crystallographic Data Centre
#                                CCDC 
#
#######################################################################
#
# If this CIF has been generated from an entry in the Cambridge 
# Structural Database, then it will include bibliographic, chemical, 
# crystal, experimental, refinement or atomic coordinate data resulting 
# from the CCDC's data processing and validation procedures.
#
#######################################################################

data_FOTNUY
_symmetry_cell_setting           monoclinic
_symmetry_space_group_name_H-M   'P 21/c'
_symmetry_Int_Tables_number      14
_space_group_name_Hall           '-P 2ybc'
loop_
_symmetry_equiv_pos_site_id
_symmetry_equiv_pos_as_xyz
1 x,y,z
2 -x,1/2+y,1/2-z
3 -x,-y,-z
4 x,1/2-y,1/2+z
_cell_length_a                   7.816(6)
_cell_length_b                   13.137(8)
_cell_length_c                   5.650(5)
_cell_angle_alpha                90
_cell_angle_beta                 94.385(14)
_cell_angle_gamma                90
_cell_volume                     578.437
loop_
_atom_site_label
_atom_site_type_symbol
_atom_site_fract_x
_atom_site_fract_y
_atom_site_fract_z
Cs1 Cs 0.77706(3) 0.392598(17) 0.13386(3)
C1 C 1.2729(4) 0.3689(3) 0.4703(6)
C2 C 1.1301(4) 0.3520(4) 0.6006(6)
C3 C 1.4401(4) 0.3447(3) 0.5632(5)
N1 N 1.2424(6) 0.4092(3) 0.2511(7)
N2 N 1.0116(5) 0.3390(5) 0.7020(7)
N3 N 1.5779(4) 0.3267(3) 0.6302(6)
O1 O 1.3684(5) 0.4199(3) 0.1297(6)
Cs1B Cs 1.22294(3) 0.607402(17) -0.13386(3)
Cs1C Cs 0.77706(3) 0.107402(17) 0.63386(3)
Cs1_2 Cs 0.77706(3) 0.392598(17) 1.13386(3)
Cs1_3 Cs 1.77706(3) 0.392598(17) 1.13386(3)
Cs1_4 Cs 1.77706(3) 0.392598(17) 0.13386(3)
Cs1C_2 Cs 1.77706(3) 0.107402(17) 0.63386(3)
N1B N 0.7576(6) 0.5908(3) -0.2511(7)
N2C N 1.0116(5) 0.1610(5) 0.2020(7)
N2_2 N 1.0116(5) 0.3390(5) -0.2980(7)
N3_2 N 0.5779(4) 0.3267(3) -0.3698(6)
N3_3 N 0.5779(4) 0.3267(3) 0.6302(6)
N3C N 0.5779(4) 0.1733(3) 0.1302(6)
O1_2 O 0.3684(5) 0.4199(3) 0.1297(6)
O1B O 0.6316(5) 0.5801(3) -0.1297(6)
loop_
_geom_bond_atom_site_label_1
_geom_bond_atom_site_label_2
_geom_bond_site_symmetry_1
_geom_bond_site_symmetry_2
Cs1 N1 1_555 1_555
C1 C2 1_555 1_555
C2 N2 1_555 1_555
C3 C1 1_555 1_555
N1 C1 1_555 1_555
N2 Cs1 1_555 1_555
N3 C3 1_555 1_555
O1 N1 1_555 1_555
Cs1B N1 1_555 1_555
Cs1C N2 1_555 1_555
Cs1_2 N2 1_555 1_555
Cs1_3 N3 1_555 1_555
Cs1_4 N3 1_555 1_555
Cs1C_2 N3 1_555 1_555
N1B Cs1 1_555 1_555
N2C Cs1 1_555 1_555
N2_2 Cs1 1_555 1_555
N3_2 Cs1 1_555 1_555
N3_3 Cs1 1_555 1_555
N3C Cs1 1_555 1_555
O1_2 Cs1 1_555 1_555
O1B Cs1 1_555 1_555
O1 Cs1B 1_555 1_555
O1 Cs1_4 1_555 1_555
Cs1B N1B 1_555 1_555
Cs1C N2C 1_555 1_555
Cs1C N3_3 1_555 1_555
Cs1C N3C 1_555 1_555
Cs1_2 N3_3 1_555 1_555
N1B O1B 1_555 1_555

#END
