
#######################################################################
#
#                 Cambridge Crystallographic Data Centre
#                                CCDC 
#
#######################################################################
#
# If this CIF has been generated from an entry in the Cambridge 
# Structural Database, then it will include bibliographic, chemical, 
# crystal, experimental, refinement or atomic coordinate data resulting 
# from the CCDC's data processing and validation procedures.
#
#######################################################################

data_FOTPAG
_symmetry_cell_setting           monoclinic
_symmetry_space_group_name_H-M   'C 2/c'
_symmetry_Int_Tables_number      15
_space_group_name_Hall           '-C 2yn'
loop_
_symmetry_equiv_pos_site_id
_symmetry_equiv_pos_as_xyz
1 x,y,z
2 -x,y,1/2-z
3 1/2+x,1/2+y,z
4 1/2-x,1/2+y,1/2-z
5 -x,-y,-z
6 x,-y,1/2+z
7 1/2-x,1/2-y,-z
8 1/2+x,1/2-y,1/2+z
_cell_length_a                   15.5346(12)
_cell_length_b                   8.2402(5)
_cell_length_c                   10.5347(9)
_cell_angle_alpha                90
_cell_angle_beta                 129.692(6)
_cell_angle_gamma                90
_cell_volume                     1037.68
loop_
_atom_site_label
_atom_site_type_symbol
_atom_site_fract_x
_atom_site_fract_y
_atom_site_fract_z
Tl1 Tl 0.33542(2) 0.06194(4) 0.17700(4)
O1 O 0.5680(6) 0.1648(10) 0.4549(9)
N1 N 0.6183(6) 0.2762(9) 0.5564(10)
N2 N 0.6601(7) 0.5709(11) 0.8157(10)
N3 N 0.3790(8) 0.2256(12) 0.5186(12)
C1 C 0.5672(6) 0.3342(10) 0.6145(9)
C2 C 0.6189(7) 0.4633(10) 0.7262(11)
C3 C 0.4632(8) 0.2706(10) 0.5624(10)
Tl1A Tl 0.66458(2) 0.06194(4) 0.32300(4)
Tl1F Tl 0.16458(2) 0.43806(4) -0.17700(4)
Tl1G Tl 0.83542(2) 0.43806(4) 0.67700(4)
Tl1B Tl 0.83542(2) 0.56194(4) 1.17700(4)
Tl1D Tl 0.66458(2) 0.93806(4) 0.82300(4)
Tl1E Tl 0.33542(2) -0.06194(4) 0.67700(4)
O1A O 0.4320(6) 0.1648(10) 0.0451(9)
N1G N 0.1183(6) 0.2238(9) 0.0564(10)
N2B N 0.1601(7) 0.0709(11) -0.1843(10)
N2D N 0.3399(7) 0.4291(11) 0.1843(10)
N3E N 0.3790(8) -0.2256(12) 0.0186(12)
loop_
_geom_bond_atom_site_label_1
_geom_bond_atom_site_label_2
_geom_bond_site_symmetry_1
_geom_bond_site_symmetry_2
Tl1 O1 1_555 1_555
O1 N1 1_555 1_555
N1 C1 1_555 1_555
N2 C2 1_555 1_555
N3 C3 1_555 1_555
C1 C2 1_555 1_555
C3 C1 1_555 1_555
Tl1A O1 1_555 1_555
Tl1F N2B 1_555 1_555
Tl1G N1 1_555 1_555
Tl1B N2 1_555 1_555
Tl1D N2 1_555 1_555
Tl1E N3 1_555 1_555
O1A Tl1 1_555 1_555
N1G Tl1 1_555 1_555
N2B Tl1 1_555 1_555
N2D Tl1 1_555 1_555
N3E Tl1 1_555 1_555
Tl1A O1A 1_555 1_555
Tl1F N2D 1_555 1_555

#END
