
#######################################################################
#
#                 Cambridge Crystallographic Data Centre
#                                CCDC 
#
#######################################################################
#
# If this CIF has been generated from an entry in the Cambridge 
# Structural Database, then it will include bibliographic, chemical, 
# crystal, experimental, refinement or atomic coordinate data resulting 
# from the CCDC's data processing and validation procedures.
#
#######################################################################

data_FOTPUB
_symmetry_cell_setting           monoclinic
_symmetry_space_group_name_H-M   'C 2/c'
_symmetry_Int_Tables_number      15
_space_group_name_Hall           '-C 2yn'
loop_
_symmetry_equiv_pos_site_id
_symmetry_equiv_pos_as_xyz
1 x,y,z
2 -x,y,1/2-z
3 1/2+x,1/2+y,z
4 1/2-x,1/2+y,1/2-z
5 -x,-y,-z
6 x,-y,1/2+z
7 1/2-x,1/2-y,-z
8 1/2+x,1/2-y,1/2+z
_cell_length_a                   22.6870(18)
_cell_length_b                   14.7113(8)
_cell_length_c                   13.6766(10)
_cell_angle_alpha                90
_cell_angle_beta                 113.038(8)
_cell_angle_gamma                90
_cell_volume                     4200.59
loop_
_atom_site_label
_atom_site_type_symbol
_atom_site_fract_x
_atom_site_fract_y
_atom_site_fract_z
Mo1 Mo 0.17863(3) 0.77656(6) 0.99604(5)
Mo2 Mo 0.27457(3) 0.78155(6) 0.62254(5)
Mo3 Mo 0.16125(3) 0.71995(6) 0.75291(6)
Cu1 Cu 0.39589(4) 0.79060(8) 0.53404(8)
O1 O 0.2252(3) 0.7547(4) 0.6998(4)
O2 O 0.1220(2) 0.7527(4) 0.8489(4)
O3 O 0.3460(2) 0.7370(4) 0.7095(4)
O4 O 0.1267(3) 0.7626(4) 1.0607(4)
O5 O 0.2405(2) 0.7590(4) 0.9036(4)
N1 N 0.4792(3) 0.8542(5) 0.6019(5)
O6 O 0.3034(2) 0.7588(4) 0.5031(4)
N2 N 0.4270(3) 0.6664(5) 0.5722(5)
N3 N 0.3661(3) 0.9232(5) 0.5047(5)
C1 C 0.3940(4) 0.5885(6) 0.5606(7)
H1 H 0.3497 0.5849 0.5363
C2 C 0.3085(4) 0.9563(6) 0.4532(7)
H2 H 0.2757 0.9169 0.4138
O7 O 0.1785(3) 0.6084(4) 0.7770(5)
C3 C 0.4773(4) 0.9464(6) 0.6072(7)
O8 O 0.0966(3) 0.7190(4) 0.6332(4)
C4 C 0.4133(4) 0.9842(6) 0.5574(6)
O9 O 0.2805(3) 0.8971(4) 0.6286(5)
O10 O 0.1848(3) 0.8911(4) 0.9946(5)
C5 C 0.4343(4) 0.5150(6) 0.5893(6)
H3 H 0.4232 0.4541 0.5885
C6 C 0.5380(4) 0.9816(6) 0.6509(7)
H4 H 0.5499 1.0424 0.6622
N4 N 0.3393(3) 1.1064(5) 0.5103(5)
C7 C 0.3991(4) 1.0743(6) 0.5606(6)
H5 H 0.4317 1.1144 0.5986
C8 C 0.2949(4) 1.0462(6) 0.4553(7)
H6 H 0.2533 1.0663 0.4170
N5 N 0.5423(3) 0.8299(5) 0.6457(5)
C9 C 0.5770(4) 0.9069(6) 0.6739(7)
H7 H 0.6215 0.9090 0.7049
N6 N 0.4902(3) 0.6432(5) 0.6085(5)
C10 C 0.4953(4) 0.5515(6) 0.6198(7)
C11 C 0.5592(4) 0.5145(6) 0.6564(7)
N7 N 0.6366(3) 0.3957(5) 0.7119(6)
N8 N 0.6047(3) 0.5779(5) 0.6695(5)
C12 C 0.5764(4) 0.4243(6) 0.6797(6)
H8 H 0.5445 0.3820 0.6725
C13 C 0.6646(4) 0.5466(6) 0.6980(6)
H9 H 0.6968 0.5881 0.7036
C14 C 0.6812(4) 0.4572(6) 0.7193(6)
H10 H 0.7236 0.4394 0.7390
Cu2 Cu 0.57306(4) 0.70683(8) 0.65271(9)
Mo1C Mo 0.32137(3) 1.27656(6) 0.50396(5)
Mo1F Mo 0.32137(3) 0.72344(6) 1.00396(5)
Mo2F Mo 0.22543(3) 0.71845(6) 0.37746(5)
Cu1F Cu 0.10411(4) 0.70940(8) 0.46596(8)
O3A O 0.6540(2) 0.7370(4) 0.7905(4)
O4G O 0.6267(3) 0.7374(4) 0.5607(4)
O5F O 0.2595(2) 0.7410(4) 1.0964(4)
O6F O 0.1966(2) 0.7412(4) 0.4969(4)
O8F O 0.4034(3) 0.7810(4) 0.3668(4)
N4C N 0.1607(3) 0.6064(5) 0.9897(5)
Cu2A Cu 0.42694(4) 0.70683(8) 0.84729(9)
Cu2G Cu 0.07306(4) 0.79317(8) 1.15271(9)
loop_
_geom_bond_atom_site_label_1
_geom_bond_atom_site_label_2
_geom_bond_site_symmetry_1
_geom_bond_site_symmetry_2
Mo1 O2 1_555 1_555
Mo2 O1 1_555 1_555
Mo3 O1 1_555 1_555
Cu1 N1 1_555 1_555
O2 Mo3 1_555 1_555
O3 Mo2 1_555 1_555
O4 Mo1 1_555 1_555
O5 Mo1 1_555 1_555
N1 C3 1_555 1_555
O6 Mo2 1_555 1_555
N2 Cu1 1_555 1_555
N3 Cu1 1_555 1_555
C1 N2 1_555 1_555
H1 C1 1_555 1_555
C2 N3 1_555 1_555
H2 C2 1_555 1_555
O7 Mo3 1_555 1_555
C3 C4 1_555 1_555
O8 Mo3 1_555 1_555
C4 N3 1_555 1_555
O9 Mo2 1_555 1_555
O10 Mo1 1_555 1_555
C5 C1 1_555 1_555
H3 C5 1_555 1_555
C6 C3 1_555 1_555
H4 C6 1_555 1_555
N4 C7 1_555 1_555
C7 C4 1_555 1_555
H5 C7 1_555 1_555
C8 C2 1_555 1_555
H6 C8 1_555 1_555
N5 N1 1_555 1_555
C9 C6 1_555 1_555
H7 C9 1_555 1_555
N6 N2 1_555 1_555
C10 C5 1_555 1_555
C11 C10 1_555 1_555
N7 C12 1_555 1_555
N8 C11 1_555 1_555
C12 C11 1_555 1_555
H8 C12 1_555 1_555
C13 N8 1_555 1_555
H9 C13 1_555 1_555
C14 N7 1_555 1_555
H10 C14 1_555 1_555
Cu2 N5 1_555 1_555
Mo1C N4 1_555 1_555
Mo1F O5 1_555 1_555
Mo2F O6 1_555 1_555
Cu1F O8 1_555 1_555
O3A Cu2 1_555 1_555
O4G Cu2 1_555 1_555
O5F Mo1 1_555 1_555
O6F Mo2 1_555 1_555
O8F Cu1 1_555 1_555
N4C Mo1 1_555 1_555
Cu2A O3 1_555 1_555
Cu2G O4 1_555 1_555
Mo3 O5 1_555 1_555
Cu1 O6 1_555 1_555
N4 C8 1_555 1_555
N5 C9 1_555 1_555
N6 C10 1_555 1_555
N6 Cu2 1_555 1_555
N8 Cu2 1_555 1_555
C13 C14 1_555 1_555
Mo1F O5F 1_555 1_555
Mo2F O6F 1_555 1_555
Cu1F O6F 1_555 1_555

#END
