
#######################################################################
#
#                 Cambridge Crystallographic Data Centre
#                                CCDC 
#
#######################################################################
#
# If this CIF has been generated from an entry in the Cambridge 
# Structural Database, then it will include bibliographic, chemical, 
# crystal, experimental, refinement or atomic coordinate data resulting 
# from the CCDC's data processing and validation procedures.
#
#######################################################################

data_FOTPEJ
_symmetry_cell_setting           tetragonal
_symmetry_space_group_name_H-M   'P 41'
_symmetry_Int_Tables_number      76
_space_group_name_Hall           'P 4w'
loop_
_symmetry_equiv_pos_site_id
_symmetry_equiv_pos_as_xyz
1 x,y,z
2 -y,x,1/4+z
3 -x,-y,1/2+z
4 y,-x,3/4+z
_cell_length_a                   15.793(2)
_cell_length_b                   15.793(2)
_cell_length_c                   21.121(5)
_cell_angle_alpha                90
_cell_angle_beta                 90
_cell_angle_gamma                90
_cell_volume                     5267.98
loop_
_atom_site_label
_atom_site_type_symbol
_atom_site_fract_x
_atom_site_fract_y
_atom_site_fract_z
Cd1 Cd 0.45817(4) 0.21390(5) 0.09561
Cd2 Cd 0.27733(4) 0.05571(4) 0.01956(5)
Cd3 Cd 0.19260(4) 0.23350(4) 0.14869(5)
Cd4 Cd 0.28126(5) 0.31185(5) -0.02609(5)
S1 S 0.6086(2) 0.2093(2) 0.1350(1)
S2 S 0.2498(2) -0.0989(2) -0.0057(1)
S3 S 0.4172(2) 0.0593(2) 0.0774(1)
S4 S 0.3471(2) 0.2165(2) 0.1838(1)
S5 S 0.4326(2) 0.3258(2) 0.0127(1)
S6 S 0.1563(2) 0.0963(2) 0.0947(1)
S7 S 0.2668(2) 0.1618(2) -0.0691(1)
S8 S 0.2046(2) 0.3588(2) 0.0750(1)
C1 C 0.6677(2) 0.2386(5) 0.0678(2)
C2 C 0.6754(4) 0.3228(5) 0.0484(3)
C3 C 0.7231(5) 0.3427(4) -0.0052(4)
C4 C 0.7631(4) 0.2786(5) -0.0395(3)
C5 C 0.7553(5) 0.1944(5) -0.0200(3)
C6 C 0.7077(4) 0.1744(4) 0.0336(3)
F1 F 0.8080(5) 0.2974(7) -0.0900(3)
C7 C 0.3308(3) -0.1526(2) 0.0363(3)
C8 C 0.3253(4) -0.1572(4) 0.1022(3)
C9 C 0.3880(5) -0.1992(5) 0.1367(3)
C10 C 0.4562(4) -0.2367(3) 0.1052(3)
C11 C 0.4616(4) -0.2320(4) 0.0393(4)
C12 C 0.3990(5) -0.1900(4) 0.0049(3)
F2 F 0.5152(5) -0.2762(4) 0.1377(5)
C13 C 0.4928(3) 0.0098(2) 0.0284(3)
C14 C 0.1705(7) -0.1187(5) 0.2382(4)
C15 C 0.1162(8) -0.1231(5) 0.1861(5)
C16 C 0.1131(6) -0.0563(5) 0.1429(4)
F3 F 0.1734(10) -0.1816(6) 0.2790(5)
C17 C 0.1573(3) 0.1491(3) -0.0852(3)
C18 C 0.1348(5) 0.0918(4) -0.1327(4)
C19 C 0.0496(6) 0.0790(4) -0.1474(4)
C20 C -0.0131(4) 0.1233(3) -0.1147(4)
C21 C 0.0094(5) 0.1805(4) -0.0672(4)
C22 C 0.0946(4) 0.1934(4) -0.0525(3)
F4 F -0.0934(6) 0.1112(4) -0.1286(5)
C23 C 0.1033(3) 0.3940(3) 0.0507(2)
C24 C 0.0288(3) 0.3527(4) 0.0685(3)
C25 C -0.0494(4) 0.3834(3) 0.0479(3)
C26 C -0.0532(3) 0.4554(3) 0.0096(2)
C27 C 0.0214(3) 0.4966(3) -0.0081(3)
C28 C 0.0996(3) 0.4659(3) 0.0124(3)
F5 F -0.1268(4) 0.4843(3) -0.0097(3)
H1 H 0.6468(7) 0.3688(5) 0.0730(5)
H2 H 0.7286(7) 0.4030(4) -0.0191(5)
H3 H 0.7840(7) 0.1484(5) -0.0446(5)
H4 H 0.7022(7) 0.1141(4) 0.0475(5)
H5 H 0.2765(5) -0.1304(7) 0.1248(4)
H6 H 0.3841(7) -0.2025(7) 0.1839(3)
H7 H 0.5105(5) -0.2588(7) 0.0168(5)
H8 H 0.4029(6) -0.1868(7) -0.0423(3)
H9 H 0.54706(5) -0.0214(7) 0.1047(2)
C29 C 0.5640(4) -0.0251(4) 0.0577(2)
C30 C 0.6260(3) -0.0652(5) 0.0214(3)
C31 C 0.6169(3) -0.0704(4) -0.0443(3)
C32 C 0.5457(4) -0.0355(5) -0.0736(2)
C33 C 0.4837(3) 0.0046(5) -0.0372(3)
F6 F 0.6753(4) -0.1082(5) -0.0785(4)
C34 C 0.3827(2) 0.2780(4) 0.2468(3)
C35 C 0.3676(5) 0.2487(4) 0.3081(4)
C36 C 0.3952(6) 0.2958(6) 0.3601(3)
C37 C 0.4379(4) 0.3722(5) 0.3508(4)
C38 C 0.4530(4) 0.4015(4) 0.2894(5)
C39 C 0.4254(4) 0.3544(5) 0.2374(3)
F7 F 0.4639(6) 0.4166(7) 0.3998(5)
C40 C 0.4929(2) 0.3039(5) -0.0539(2)
C41 C 0.5164(5) 0.3714(5) -0.0928(4)
C42 C 0.5650(6) 0.3565(5) -0.1469(3)
C43 C 0.5901(4) 0.2742(6) -0.1621(3)
C44 C 0.5665(6) 0.2068(5) -0.1231(4)
C45 C 0.5180(6) 0.2216(5) -0.0690(3)
F8 F 0.6359(5) 0.2602(9) -0.2130(3)
C46 C 0.1642(4) 0.0148(4) 0.1517(3)
C47 C 0.2185(6) 0.0192(5) 0.2037(5)
C48 C 0.2216(8) -0.0475(6) 0.2470(4)
H10 H 0.6770(4) -0.0901(7) 0.0423(4)
H11 H 0.5391(6) -0.0392(8) -0.1206(2)
H12 H 0.4327(5) 0.0295(7) -0.0582(3)
H13 H 0.3371(7) 0.1940(5) 0.3148(5)
H14 H 0.3844(9) 0.2748(8) 0.4040(3)
H15 H 0.4836(7) 0.4562(5) 0.2827(6)
H16 H 0.4362(7) 0.3753(7) 0.1935(4)
H17 H 0.4985(8) 0.4303(5) -0.0819(5)
H18 H 0.5818(9) 0.4049(6) -0.1748(5)
H19 H 0.5845(9) 0.1478(6) -0.1340(6)
H20 H 0.5011(9) 0.1733(6) -0.0412(5)
H21 H 0.2551(9) 0.0702(6) 0.2100(7)
H22 H 0.2605(10) -0.0444(9) 0.2843(6)
H23 H 0.0796(11) -0.1740(7) 0.1798(7)
H24 H 0.0742(9) -0.0595(8) 0.1056(6)
Cd3C Cd 0.23350(4) -0.19260(4) -0.10131(5)
Cd4A Cd 0.68815(5) 0.28126(5) 0.22391(5)
S2A S 0.0989(2) 0.2498(2) 0.2443(1)
S1C S 0.2093(2) 0.3914(2) -0.1150(1)
loop_
_geom_bond_atom_site_label_1
_geom_bond_atom_site_label_2
_geom_bond_site_symmetry_1
_geom_bond_site_symmetry_2
Cd1 S1 1_555 1_555
Cd2 S2 1_555 1_555
Cd3 S4 1_555 1_555
Cd4 S5 1_555 1_555
S1 C1 1_555 1_555
S2 C7 1_555 1_555
S3 Cd1 1_555 1_555
S4 Cd1 1_555 1_555
S5 Cd1 1_555 1_555
S6 Cd2 1_555 1_555
S7 Cd2 1_555 1_555
S8 Cd3 1_555 1_555
C1 C2 1_555 1_555
C2 C3 1_555 1_555
C3 C4 1_555 1_555
C4 C5 1_555 1_555
C5 C6 1_555 1_555
C6 C1 1_555 1_555
F1 C4 1_555 1_555
C7 C8 1_555 1_555
C8 C9 1_555 1_555
C9 C10 1_555 1_555
C10 C11 1_555 1_555
C11 C12 1_555 1_555
C12 C7 1_555 1_555
F2 C10 1_555 1_555
C13 S3 1_555 1_555
C14 C15 1_555 1_555
C15 C16 1_555 1_555
C16 C46 1_555 1_555
F3 C14 1_555 1_555
C17 S7 1_555 1_555
C18 C17 1_555 1_555
C19 C18 1_555 1_555
C20 C19 1_555 1_555
C21 C20 1_555 1_555
C22 C17 1_555 1_555
F4 C20 1_555 1_555
C23 S8 1_555 1_555
C24 C23 1_555 1_555
C25 C24 1_555 1_555
C26 C25 1_555 1_555
C27 C26 1_555 1_555
C28 C23 1_555 1_555
F5 C26 1_555 1_555
H1 C2 1_555 1_555
H2 C3 1_555 1_555
H3 C5 1_555 1_555
H4 C6 1_555 1_555
H5 C8 1_555 1_555
H6 C9 1_555 1_555
H7 C11 1_555 1_555
H8 C12 1_555 1_555
H9 C29 1_555 1_555
C29 C13 1_555 1_555
C30 C29 1_555 1_555
C31 C30 1_555 1_555
C32 C31 1_555 1_555
C33 C13 1_555 1_555
F6 C31 1_555 1_555
C34 S4 1_555 1_555
C35 C34 1_555 1_555
C36 C35 1_555 1_555
C37 C36 1_555 1_555
C38 C37 1_555 1_555
C39 C34 1_555 1_555
F7 C37 1_555 1_555
C40 S5 1_555 1_555
C41 C40 1_555 1_555
C42 C41 1_555 1_555
C43 C42 1_555 1_555
C44 C43 1_555 1_555
C45 C40 1_555 1_555
F8 C43 1_555 1_555
C46 S6 1_555 1_555
C47 C46 1_555 1_555
C48 C14 1_555 1_555
H10 C30 1_555 1_555
H11 C32 1_555 1_555
H12 C33 1_555 1_555
H13 C35 1_555 1_555
H14 C36 1_555 1_555
H15 C38 1_555 1_555
H16 C39 1_555 1_555
H17 C41 1_555 1_555
H18 C42 1_555 1_555
H19 C44 1_555 1_555
H20 C45 1_555 1_555
H21 C47 1_555 1_555
H22 C48 1_555 1_555
H23 C15 1_555 1_555
H24 C16 1_555 1_555
Cd3C S2 1_555 1_555
Cd4A S1 1_555 1_555
S2A Cd3 1_555 1_555
S1C Cd4 1_555 1_555
Cd2 S3 1_555 1_555
Cd3 S6 1_555 1_555
Cd4 S7 1_555 1_555
Cd4 S8 1_555 1_555
C21 C22 1_555 1_555
C27 C28 1_555 1_555
C32 C33 1_555 1_555
C38 C39 1_555 1_555
C44 C45 1_555 1_555
C47 C48 1_555 1_555

#END
