
#######################################################################
#
#                 Cambridge Crystallographic Data Centre
#                                CCDC 
#
#######################################################################
#
# If this CIF has been generated from an entry in the Cambridge 
# Structural Database, then it will include bibliographic, chemical, 
# crystal, experimental, refinement or atomic coordinate data resulting 
# from the CCDC's data processing and validation procedures.
#
#######################################################################

data_FOTPEL
_symmetry_cell_setting           tetragonal
_symmetry_space_group_name_H-M   'P 4/n c c'
_symmetry_Int_Tables_number      130
_space_group_name_Hall           '-P 4a 2ac'
loop_
_symmetry_equiv_pos_site_id
_symmetry_equiv_pos_as_xyz
1 x,y,z
2 1/2-y,x,z
3 1/2+x,-y,1/2-z
4 1/2-x,1/2-y,z
5 -y,-x,1/2-z
6 1/2+y,1/2+x,1/2-z
7 y,1/2-x,z
8 -x,1/2+y,1/2-z
9 -x,-y,-z
10 1/2+y,-x,-z
11 1/2-x,y,1/2+z
12 1/2+x,1/2+y,-z
13 y,x,1/2+z
14 1/2-y,1/2-x,1/2+z
15 -y,1/2+x,-z
16 x,1/2-y,1/2+z
_cell_length_a                   13.5883(9)
_cell_length_b                   13.5883(9)
_cell_length_c                   17.9216(14)
_cell_angle_alpha                90
_cell_angle_beta                 90
_cell_angle_gamma                90
_cell_volume                     3309.08
loop_
_atom_site_label
_atom_site_type_symbol
_atom_site_fract_x
_atom_site_fract_y
_atom_site_fract_z
Cu1 Cu 0.62430(6) 0.22215(6) 0.34865(4)
P1 P 0.7500 0.2500 0.5000
O1 O 0.6594(4) 0.2262(4) 0.4528(3)
N1 N 0.5902(4) 0.2508(4) 0.2428(3)
N2 N 0.5228(5) 0.3327(5) 0.3639(3)
N3 N 0.6130(5) 0.2152(4) 0.1743(3)
C1 C 0.4797(5) 0.3626(5) 0.3003(4)
N4 N 0.3856(5) 0.4847(5) 0.3622(3)
C2 C 0.5510(6) 0.2532(6) 0.1242(4)
H1 H 0.5525 0.2406 0.0732
C3 C 0.4944(6) 0.3782(6) 0.4265(4)
H2 H 0.5216 0.3592 0.4718
C4 C 0.5132(5) 0.3118(5) 0.2338(3)
C5 C 0.4124(6) 0.4386(6) 0.3006(4)
H3 H 0.3847 0.4582 0.2555
C6 C 0.4253(6) 0.4529(6) 0.4250(5)
H4 H 0.4061 0.4817 0.4697
C7 C 0.4840(6) 0.3143(6) 0.1597(4)
H5 H 0.4318 0.3489 0.1387
O1C O 0.8406(4) 0.2738(4) 0.4528(3)
O1I O 0.7262(4) 0.3406(4) 0.5472(3)
O1N O 0.7738(4) 0.1594(4) 0.5472(3)
Cu1A Cu 0.27785(6) 0.62430(6) 0.34865(4)
N1A N 0.2492(4) 0.5902(4) 0.2428(3)
N2A N 0.1673(5) 0.5228(5) 0.3639(3)
N3A N 0.2848(4) 0.6130(5) 0.1743(3)
C1A C 0.1374(5) 0.4797(5) 0.3003(4)
N4A N 0.0153(5) 0.3856(5) 0.3622(3)
C2A C 0.2468(6) 0.5510(6) 0.1242(4)
H1A H 0.2594 0.5525 0.0732
C3A C 0.1218(6) 0.4944(6) 0.4265(4)
H2A H 0.1408 0.5216 0.4718
C4A C 0.1882(5) 0.5132(5) 0.2338(3)
C5A C 0.0614(6) 0.4124(6) 0.3006(4)
H3A H 0.0418 0.3847 0.2555
C6A C 0.0471(6) 0.4253(6) 0.4250(5)
H4A H 0.0183 0.4061 0.4697
C7A C 0.1857(6) 0.4840(6) 0.1597(4)
H5A H 0.1511 0.4318 0.1387
Cu1C Cu 0.87570(6) 0.27785(6) 0.34865(4)
N1C N 0.9098(4) 0.2492(4) 0.2428(3)
N2C N 0.9772(5) 0.1673(5) 0.3639(3)
N3C N 0.8870(5) 0.2848(4) 0.1743(3)
C1C C 1.0203(5) 0.1374(5) 0.3003(4)
N4C N 1.1144(5) 0.0153(5) 0.3622(3)
C2C C 0.9490(6) 0.2468(6) 0.1242(4)
H1C H 0.9475 0.2594 0.0732
C3C C 1.0056(6) 0.1218(6) 0.4265(4)
H2C H 0.9784 0.1408 0.4718
C4C C 0.9868(5) 0.1882(5) 0.2338(3)
C5C C 1.0876(6) 0.0614(6) 0.3006(4)
H3C H 1.1153 0.0418 0.2555
C6C C 1.0747(6) 0.0471(6) 0.4250(5)
H4C H 1.0939 0.0183 0.4697
C7C C 1.0160(6) 0.1857(6) 0.1597(4)
H5C H 1.0682 0.1511 0.1387
Cu1F Cu 0.22215(6) -0.12430(6) 0.34865(4)
N1F N 0.2508(4) -0.0902(4) 0.2428(3)
N2F N 0.3327(5) -0.0228(5) 0.3639(3)
N3F N 0.2152(4) -0.1130(5) 0.1743(3)
C1F C 0.3626(5) 0.0203(5) 0.3003(4)
N4F N 0.4847(5) 0.1144(5) 0.3622(3)
C2F C 0.2532(6) -0.0510(6) 0.1242(4)
H1F H 0.2406 -0.0525 0.0732
C3F C 0.3782(6) 0.0056(6) 0.4265(4)
H2F H 0.3592 -0.0216 0.4718
C4F C 0.3118(5) -0.0132(5) 0.2338(3)
C5F C 0.4386(6) 0.0876(6) 0.3006(4)
H3F H 0.4582 0.1153 0.2555
C6F C 0.4529(6) 0.0747(6) 0.4250(5)
H4F H 0.4817 0.0939 0.4697
C7F C 0.3143(6) 0.0160(6) 0.1597(4)
H5F H 0.3489 0.0682 0.1387
Cu1B Cu 0.12430(6) -0.22215(6) 0.15135(4)
Cu1C_2 Cu -0.12430(6) 0.27785(6) 0.34865(4)
Cu1D Cu 0.77785(6) 0.37570(6) 0.15135(4)
Cu1E Cu 0.72215(6) 0.12430(6) 0.15135(4)
Cu1F_2 Cu 1.22215(6) -0.12430(6) 0.34865(4)
Cu1G Cu 0.37570(6) 0.72215(6) 0.15135(4)
Cu1I Cu 0.72215(6) 0.37570(6) 0.65135(4)
Cu1N Cu 0.77785(6) 0.12430(6) 0.65135(4)
O1A O 0.2738(4) 0.6594(4) 0.4528(3)
O1F O 0.2262(4) -0.1594(4) 0.4528(3)
N3B N 0.1130(5) -0.2152(4) 0.3257(3)
N3D N 0.7848(4) 0.3870(5) 0.3257(3)
N3E N 0.7152(4) 0.1130(5) 0.3257(3)
N3G N 0.3870(5) 0.7152(4) 0.3257(3)
N4A_2 N 1.0153(5) 0.3856(5) 0.3622(3)
N4C_2 N 0.1144(5) 0.0153(5) 0.3622(3)
Br1 Br 0.2500 0.2500 0.28830(16)
Cu2 Cu 0.2500 0.2500 0.4121(2)
Br2 Br 0.2500 0.2500 0.5363(2)
loop_
_geom_bond_atom_site_label_1
_geom_bond_atom_site_label_2
_geom_bond_site_symmetry_1
_geom_bond_site_symmetry_2
Cu1 O1 1_555 1_555
P1 O1 1_555 1_555
N1 Cu1 1_555 1_555
N2 Cu1 1_555 1_555
N3 N1 1_555 1_555
C1 N2 1_555 1_555
N4 C5 1_555 1_555
C2 N3 1_555 1_555
H1 C2 1_555 1_555
C3 N2 1_555 1_555
H2 C3 1_555 1_555
C4 N1 1_555 1_555
C5 C1 1_555 1_555
H3 C5 1_555 1_555
C6 N4 1_555 1_555
H4 C6 1_555 1_555
C7 C2 1_555 1_555
H5 C7 1_555 1_555
Br1 Cu2 1_555 1_555
Cu2 Br2 1_555 1_555
O1C P1 1_555 1_555
O1I P1 1_555 1_555
O1N P1 1_555 1_555
Cu1A N4 1_555 1_555
N1A Cu1A 1_555 1_555
N2A Cu1A 1_555 1_555
N3A N1A 1_555 1_555
C1A N2A 1_555 1_555
N4A C5A 1_555 1_555
C2A N3A 1_555 1_555
H1A C2A 1_555 1_555
C3A N2A 1_555 1_555
H2A C3A 1_555 1_555
C4A N1A 1_555 1_555
C5A C1A 1_555 1_555
H3A C5A 1_555 1_555
C6A N4A 1_555 1_555
H4A C6A 1_555 1_555
C7A C2A 1_555 1_555
H5A C7A 1_555 1_555
Cu1C O1C 1_555 1_555
N1C Cu1C 1_555 1_555
N2C Cu1C 1_555 1_555
N3C N1C 1_555 1_555
C1C N2C 1_555 1_555
N4C C5C 1_555 1_555
C2C N3C 1_555 1_555
H1C C2C 1_555 1_555
C3C N2C 1_555 1_555
H2C C3C 1_555 1_555
C4C N1C 1_555 1_555
C5C C1C 1_555 1_555
H3C C5C 1_555 1_555
C6C N4C 1_555 1_555
H4C C6C 1_555 1_555
C7C C2C 1_555 1_555
H5C C7C 1_555 1_555
Cu1F N1F 1_555 1_555
N1F N3F 1_555 1_555
N2F Cu1F 1_555 1_555
N3F C2F 1_555 1_555
C1F N2F 1_555 1_555
N4F Cu1 1_555 1_555
C2F H1F 1_555 1_555
C3F N2F 1_555 1_555
H2F C3F 1_555 1_555
C4F N1F 1_555 1_555
C5F C1F 1_555 1_555
H3F C5F 1_555 1_555
C6F N4F 1_555 1_555
H4F C6F 1_555 1_555
C7F C2F 1_555 1_555
H5F C7F 1_555 1_555
Cu1B N3F 1_555 1_555
Cu1C_2 N4A 1_555 1_555
Cu1D N3C 1_555 1_555
Cu1E N3 1_555 1_555
Cu1F_2 N4C 1_555 1_555
Cu1G N3A 1_555 1_555
Cu1I O1I 1_555 1_555
Cu1N O1N 1_555 1_555
O1A Cu1A 1_555 1_555
O1F Cu1F 1_555 1_555
N3B Cu1F 1_555 1_555
N3D Cu1C 1_555 1_555
N3E Cu1 1_555 1_555
N3G Cu1A 1_555 1_555
N4A_2 Cu1C 1_555 1_555
N4C_2 Cu1F 1_555 1_555
C1 C4 1_555 1_555
C3 C6 1_555 1_555
C4 C7 1_555 1_555
C1A C4A 1_555 1_555
C3A C6A 1_555 1_555
C4A C7A 1_555 1_555
C1C C4C 1_555 1_555
C3C C6C 1_555 1_555
C4C C7C 1_555 1_555
C1F C4F 1_555 1_555
N4F C5F 1_555 1_555
C3F C6F 1_555 1_555
C4F C7F 1_555 1_555

#END
