
#######################################################################
#
#                 Cambridge Crystallographic Data Centre
#                                CCDC 
#
#######################################################################
#
# If this CIF has been generated from an entry in the Cambridge 
# Structural Database, then it will include bibliographic, chemical, 
# crystal, experimental, refinement or atomic coordinate data resulting 
# from the CCDC's data processing and validation procedures.
#
#######################################################################

data_FOTPOV
_symmetry_cell_setting           triclinic
_symmetry_space_group_name_H-M   'P -1'
_symmetry_Int_Tables_number      2
_space_group_name_Hall           '-P 1'
loop_
_symmetry_equiv_pos_site_id
_symmetry_equiv_pos_as_xyz
1 x,y,z
2 -x,-y,-z
_cell_length_a                   5.1290(3)
_cell_length_b                   9.7697(8)
_cell_length_c                   12.5421(11)
_cell_angle_alpha                110.797(8)
_cell_angle_beta                 93.722(6)
_cell_angle_gamma                90.436(6)
_cell_volume                     585.965
loop_
_atom_site_label
_atom_site_type_symbol
_atom_site_fract_x
_atom_site_fract_y
_atom_site_fract_z
Mo1 Mo 0.86424(9) 0.10738(6) 0.44004(4)
Mo2 Mo 0.31164(9) -0.05874(6) 0.27678(4)
Cu1 Cu 0.75011(14) 0.07121(8) 0.11925(6)
O1 O 0.1677(7) -0.0417(5) 0.4324(3)
O2 O 0.4530(8) -0.0007(4) 0.1759(4)
O3 O 0.0085(7) 0.0658(4) 0.2926(3)
N1 N 0.9988(9) 0.1695(6) 0.0554(4)
O4 O 1.0010(8) 0.2744(5) 0.5105(4)
O5 O 0.6279(7) -0.1208(4) 0.3384(4)
C1 C 0.7732(13) 0.5307(7) 0.2313(6)
H1 H 0.8785 0.5951 0.2121
N2 N 0.6563(10) 0.2847(6) 0.2065(4)
O6 O 0.5425(7) 0.1474(5) 0.4078(3)
C2 C 0.4716(12) 0.3390(7) 0.2800(6)
H2 H 0.3612 0.2753 0.2976
N3 N 0.5935(10) 0.5845(6) 0.3067(5)
H3 H 0.5759 0.6774 0.3387
N4 N 1.1855(9) 0.1305(6) -0.0197(4)
O7 O 0.1899(8) -0.2282(5) 0.1994(4)
C3 C 0.9959(11) 0.3178(6) 0.0978(5)
C4 C 0.4434(14) 0.4894(8) 0.3302(6)
H4 H 0.3156 0.5241 0.3818
C5 C 1.2964(12) 0.2550(7) -0.0244(5)
H5 H 1.4303 0.2576 -0.0702
C6 C 1.1819(12) 0.3767(7) 0.0486(5)
H6 H 1.2198 0.4748 0.0618
C7 C 0.8058(11) 0.3826(7) 0.1817(5)
Mo1_2 Mo -0.13576(9) 0.10738(6) 0.44004(4)
Mo1A Mo 0.13576(9) -0.10738(6) 0.55996(4)
Cu1_2 Cu -0.24989(14) 0.07121(8) 0.11925(6)
Cu1A Cu 1.24989(14) -0.07121(8) -0.11925(6)
O1_2 O 1.1677(7) -0.0417(5) 0.4324(3)
O1A O 0.8323(7) 0.0417(5) 0.5676(3)
O3_2 O 1.0085(7) 0.0658(4) 0.2926(3)
N4A N 0.8145(9) -0.1305(6) 0.0197(4)
loop_
_geom_bond_atom_site_label_1
_geom_bond_atom_site_label_2
_geom_bond_site_symmetry_1
_geom_bond_site_symmetry_2
Mo1 O4 1_555 1_555
Mo2 O1 1_555 1_555
Cu1 O2 1_555 1_555
O1 Mo1_2 1_555 1_555
O2 Mo2 1_555 1_555
O3 Mo2 1_555 1_555
N1 Cu1 1_555 1_555
O5 Mo1 1_555 1_555
C1 H1 1_555 1_555
N2 Cu1 1_555 1_555
O6 Mo1 1_555 1_555
C2 N2 1_555 1_555
H2 C2 1_555 1_555
N3 C1 1_555 1_555
H3 N3 1_555 1_555
N4 N1 1_555 1_555
O7 Mo2 1_555 1_555
C3 N1 1_555 1_555
C4 C2 1_555 1_555
H4 C4 1_555 1_555
C5 N4 1_555 1_555
H5 C5 1_555 1_555
C6 C3 1_555 1_555
H6 C6 1_555 1_555
C7 C1 1_555 1_555
Mo1_2 O3 1_555 1_555
Mo1A O1 1_555 1_555
Cu1_2 O3 1_555 1_555
Cu1A N4 1_555 1_555
O1_2 Mo1 1_555 1_555
O1A Mo1 1_555 1_555
O3_2 Mo1 1_555 1_555
N4A Cu1 1_555 1_555
Mo2 O5 1_555 1_555
Mo2 O6 1_555 1_555
Cu1 O3_2 1_555 1_555
N2 C7 1_555 1_555
N3 C4 1_555 1_555
C3 C7 1_555 1_555
C5 C6 1_555 1_555

#END
