
#######################################################################
#
#                 Cambridge Crystallographic Data Centre
#                                CCDC 
#
#######################################################################
#
# If this CIF has been generated from an entry in the Cambridge 
# Structural Database, then it will include bibliographic, chemical, 
# crystal, experimental, refinement or atomic coordinate data resulting 
# from the CCDC's data processing and validation procedures.
#
#######################################################################

data_FOTPOT
_symmetry_cell_setting           monoclinic
_symmetry_space_group_name_H-M   'P 21/c'
_symmetry_Int_Tables_number      14
_space_group_name_Hall           '-P 2ybc'
loop_
_symmetry_equiv_pos_site_id
_symmetry_equiv_pos_as_xyz
1 x,y,z
2 -x,1/2+y,1/2-z
3 -x,-y,-z
4 x,1/2-y,1/2+z
_cell_length_a                   27.331(13)
_cell_length_b                   15.303(4)
_cell_length_c                   39.110(20)
_cell_angle_alpha                90
_cell_angle_beta                 126.43(2)
_cell_angle_gamma                90
_cell_volume                     13161.1
loop_
_atom_site_label
_atom_site_type_symbol
_atom_site_fract_x
_atom_site_fract_y
_atom_site_fract_z
Cd1 Cd 0.5918(1) 0.3213(1) 0.7880(1)
Cd2 Cd 0.7019(1) 0.1411(1) 0.7944(1)
Cd3 Cd 0.7056(1) 0.1701(1) 0.9121(1)
Cd4 Cd 0.5512(1) 0.0648(1) 0.7846(1)
S1 S 0.6649(3) 0.2961(4) 0.7687(2)
S2 S 0.6443(3) 0.3111(4) 0.8671(2)
S3 S 0.5039(3) 0.2163(4) 0.7601(2)
S4 S 0.7572(3) 0.1484(5) 0.8731(2)
S5 S 0.6291(3) 0.0132(4) 0.7710(2)
S6 S 0.6146(3) 0.0546(4) 0.8633(2)
S7 S 0.5428(3) 0.4642(4) 0.7525(3)
S8 S 0.7944(3) 0.1135(4) 0.7945(2)
Br1 Br 0.5235(2) 0.2534(3) 0.5670(1)
Br2 Br 0.8397(2) 0.6241(2) 0.9397(1)
Br3 Br 0.3425(2) 0.2471(3) 0.5566(1)
Br4 Br 0.9430(2) -0.1736(3) 0.9614(2)
Br5 Br 0.4471(2) -0.0529(3) 0.5700(1)
Br6 Br 0.4847(2) 0.0922(3) 0.9560(1)
Br7 Br 0.7180(2) 0.7843(3) 0.7919(2)
Br8 Br 1.0007(2) 0.3451(2) 0.9549(1)
C1 C 0.6237(7) 0.2858(5) 0.7127(4)
C2 C 0.6538(5) 0.2483(8) 0.6974(4)
C3 C 0.6238(4) 0.2386(7) 0.6537(4)
C4 C 0.5636(4) 0.2664(3) 0.6253(4)
C5 C 0.5336(5) 0.3039(7) 0.6406(4)
C6 C 0.5636(7) 0.3136(8) 0.6843(4)
C7 C 0.6984(5) 0.3970(7) 0.8869(3)
Cd5 Cd 0.9174(1) 0.3343(1) 0.7286(1)
Cd6 Cd 0.8358(1) 0.1472(1) 0.7516(1)
Cd7 Cd 0.9770(1) 0.0734(1) 0.7527(1)
Cd8 Cd 0.8159(1) 0.1303(1) 0.6338(1)
S9 S 0.7502(4) 0.1036(6) 0.5567(2)
S10 S 0.8717(3) 0.3065(4) 0.7676(2)
S11 S 1.0095(3) 0.2326(4) 0.7646(2)
S12 S 0.8437(3) 0.2919(4) 0.6507(2)
S13 S 0.9294(3) 0.0484(4) 0.7910(2)
S14 S 0.7662(3) 0.1182(4) 0.6734(2)
S15 S 0.9084(3) 0.0299(4) 0.6761(2)
S16 S 0.9276(3) 0.4969(4) 0.7296(2)
Br9 Br 0.5485(2) -0.1546(4) 0.5362(1)
Br10 Br 0.6193(2) 0.5165(2) 0.6540(1)
Br11 Br 1.1690(2) 0.3296(2) 0.9639(1)
Br12 Br 0.9543(3) 0.4333(5) 0.5565(2)
Br13 Br 0.8238(2) -0.3413(2) 0.7657(1)
Br14 Br 0.6638(2) -0.2701(2) 0.6555(1)
Br15 Br 1.0775(2) 0.0896(3) 0.6134(1)
Br16 Br 0.7057(2) 0.6475(3) 0.5481(1)
C8 C 0.6944(5) 0.0322(10) 0.5510(3)
C9 C 0.6575(7) 0.0603(8) 0.5627(4)
C10 C 0.6138(7) 0.0043(7) 0.5582(4)
C11 C 0.6068(5) -0.0799(7) 0.5421(1)
C12 C 0.6436(6) -0.1080(9) 0.5305(4)
C13 C 0.6874(6) -0.0519(11) 0.5349(4)
C14 C 0.8024(5) 0.3653(6) 0.7371(5)
C15 C 0.6963(5) 0.4648(9) 0.9099(4)
C16 C 0.7386(5) 0.5328(8) 0.9257(4)
C17 C 0.7829(4) 0.5328(6) 0.9185(2)
C18 C 0.7850(6) 0.4649(7) 0.8956(4)
C19 C 0.7427(6) 0.3970(7) 0.8798(4)
C20 C 0.4598(4) 0.2240(9) 0.7042(4)
C21 C 0.4611(5) 0.1574(8) 0.6804(4)
C22 C 0.4260(5) 0.1643(6) 0.6362(4)
C23 C 0.3895(3) 0.2378(4) 0.6158(4)
C24 C 0.3883(5) 0.3044(6) 0.6397(4)
C25 C 0.4234(5) 0.2975(8) 0.6839(4)
C26 C 0.8061(6) 0.0586(9) 0.8957(5)
C27 C 0.8620(7) 0.0708(8) 0.9351(5)
C28 C 0.9029(6) 0.0014(7) 0.9547(4)
C29 C 0.8879(4) -0.0803(7) 0.9350(3)
C30 C 0.8320(5) -0.0925(9) 0.8956(3)
C31 C 0.7911(5) -0.0231(11) 0.8760(4)
C32 C 0.5795(4) -0.0025(9) 0.7152(4)
C33 C 0.5769(5) 0.0563(8) 0.6869(4)
C34 C 0.5371(5) 0.0411(6) 0.6432(4)
C35 C 0.4999(4) -0.0328(4) 0.6279(4)
C36 C 0.5025(6) -0.0915(7) 0.6562(4)
C37 C 0.5423(6) -0.0764(9) 0.6999(4)
C38 C 0.5765(5) 0.0714(11) 0.8873(3)
C39 C 0.5399(7) 0.1432(10) 0.8799(4)
C40 C 0.5124(6) 0.1495(7) 0.9006(4)
C41 C 0.5214(3) 0.0839(5) 0.9286(2)
C42 C 0.5579(5) 0.0120(7) 0.9359(4)
C43 C 0.5855(5) 0.0058(9) 0.9153(4)
C44 C 0.7859(5) 0.4237(8) 0.7561(4)
C45 C 0.7310(5) 0.4690(7) 0.7312(3)
C46 C 0.6926(4) 0.4561(4) 0.6873(3)
C47 C 0.7091(5) 0.3976(6) 0.6683(4)
C48 C 0.7641(6) 0.3523(7) 0.6933(5)
C49 C 1.0510(6) 0.2574(5) 0.8198(4)
C50 C 1.0297(5) 0.2391(8) 0.8438(4)
C51 C 1.0650(4) 0.2607(7) 0.8869(4)
C52 C 1.1215(4) 0.3006(3) 0.9059(4)
C53 C 1.1428(5) 0.3188(7) 0.8819(4)
C54 C 1.1075(6) 0.2973(8) 0.8388(4)
C55 C 0.8739(7) 0.3306(4) 0.6248(5)
C56 C 0.8384(5) 0.3313(8) 0.5805(5)
C57 C 0.8626(4) 0.3623(8) 0.5599(3)
C58 C 0.9224(3) 0.3926(4) 0.5836(3)
C59 C 0.9580(5) 0.3918(8) 0.6279(3)
C60 C 0.9338(7) 0.3608(8) 0.6485(4)
C61 C 0.9006(3) -0.0602(7) 0.7832(3)
C62 C 0.9018(5) -0.1194(8) 0.7565(4)
C63 C 0.8788(5) -0.2037(8) 0.7513(3)
C64 C 0.8545(2) -0.2289(7) 0.7727(2)
C65 C 0.8533(5) -0.1697(7) 0.7994(3)
C66 C 0.8763(6) -0.0854(7) 0.8046(4)
C67 C 0.7388(4) 0.0108(7) 0.6681(3)
C68 C 0.7526(6) -0.0561(9) 0.6509(4)
C69 C 0.7302(5) -0.1403(8) 0.6471(4)
C70 C 0.6938(3) -0.1575(7) 0.6606(1)
C71 C 0.6800(6) -0.0905(7) 0.6778(4)
C72 C 0.7025(6) -0.0064(7) 0.6816(4)
C73 C 0.5921(5) 0.5500(7) 0.7660(6)
C74 C 0.6357(7) 0.5778(8) 0.8076(5)
C75 C 0.6736(6) 0.6482(8) 0.8153(3)
C76 C 0.6677(4) 0.6909(6) 0.7815(3)
C77 C 0.6240(5) 0.6630(9) 0.7399(3)
C78 C 0.5682(5) 0.5926(9) 0.7321(5)
C79 C 0.8512(6) 0.1789(9) 0.8388(4)
C80 C 0.9059(7) 0.1400(7) 0.8714(4)
C81 C 0.9506(6) 0.1897(6) 0.9061(4)
C82 C 0.9407(4) 0.2784(5) 0.9083(3)
C83 C 0.8860(5) 0.3173(8) 0.8758(3)
C84 C 0.8413(5) 0.2675(10) 0.8411(4)
O1 O 0.7934(8) 0.2444(12) 0.9627(5)
C85 C 0.8015(12) 0.3073(17) 0.9819(8)
N1 N 0.8554(11) 0.3548(16) 1.0046(7)
C86 C 0.8662(15) 0.4305(20) 1.0303(10)
C87 C 0.9036(14) 0.3302(21) 1.0015(10)
O2 O 0.6813(10) 0.1981(13) 0.9576(7)
C88 C 0.6846(15) 0.1580(21) 0.9836(10)
N2 N 0.6626(14) 0.1737(21) 1.0072(9)
C89 C 0.6728(17) 0.1071(25) 1.0366(11)
C90 C 0.6221(18) 0.2467(26) 0.9954(12)
H1 H 0.6969(6) 0.2284(12) 0.7177(4)
H2 H 0.6453(4) 0.2117(11) 0.6427(4)
H3 H 0.4905(6) 0.3238(11) 0.6203(5)
H4 H 0.5421(8) 0.3405(12) 0.6953(5)
H5 H 0.6646(7) 0.4648(12) 0.9150(6)
H6 H 0.7371(7) 0.5814(10) 0.9421(6)
H7 H 0.8167(8) 0.4649(9) 0.8904(6)
C91 C 0.9546(3) 0.0489(10) 0.6589(2)
C92 C 0.9786(5) -0.0233(8) 0.6518(4)
C93 C 1.0152(5) -0.0112(5) 0.6382(4)
C94 C 1.0278(3) 0.0731(4) 0.6318(4)
C95 C 1.0038(5) 0.1453(6) 0.6389(4)
C96 C 0.9672(5) 0.1332(9) 0.6525(4)
C97 C 0.8681(6) 0.5385(4) 0.6787(4)
C98 C 0.8749(5) 0.5542(8) 0.6466(5)
C99 C 0.8262(5) 0.5869(8) 0.6075(4)
C100 C 0.7707(5) 0.6039(4) 0.6004(4)
C101 C 0.7638(6) 0.5881(7) 0.6325(4)
C102 C 0.8125(7) 0.5554(7) 0.6717(4)
O3 O 0.7615(10) 0.0467(15) 0.9596(6)
C103 C 0.7600(16) -0.0174(22) 0.9436(10)
N3 N 0.7886(14) -0.0930(22) 0.9669(11)
C104 C 0.7923(20) -0.1715(24) 0.9482(14)
C105 C 0.8266(20) -0.0874(28) 1.0120(12)
H8 H 0.6625(9) 0.1206(9) 0.5742(7)
H9 H 0.5874(9) 0.0244(8) 0.5666(7)
H10 H 0.6387(8) -0.1682(10) 0.5189(7)
H11 H 0.7138(8) -0.0721(13) 0.5266(7)
H12 H 0.8134(6) 0.4330(11) 0.7875(4)
H13 H 0.7191(6) 0.5109(10) 0.7447(2)
H14 H 0.6816(7) 0.3883(9) 0.6369(4)
H15 H 0.7442(9) 0.3483(9) 0.8633(6)
H16 H 0.4872(7) 0.1048(9) 0.6949(4)
H17 H 0.4269(7) 0.1166(6) 0.6191(4)
H18 H 0.3622(7) 0.3570(7) 0.6252(4)
H19 H 0.4224(8) 0.3452(10) 0.7010(4)
H20 H 0.8727(9) 0.1293(8) 0.9492(7)
H21 H 0.9430(7) 0.0102(8) 0.9829(5)
H22 H 0.8212(6) -0.1509(10) 0.8814(4)
H23 H 0.7510(6) -0.0318(13) 0.8478(5)
H24 H 0.6036(7) 0.1092(10) 0.6979(5)
H25 H 0.5352(7) 0.0832(8) 0.6229(5)
H26 H 0.4759(8) -0.1445(8) 0.6453(4)
H27 H 0.5442(8) -0.1185(11) 0.7202(4)
H28 H 0.5335(9) 0.1902(13) 0.8599(5)
H29 H 0.4862(8) 0.2010(8) 0.8953(5)
H30 H 0.5644(8) -0.0350(8) 0.9560(6)
H31 H 0.6117(8) -0.0457(11) 0.9206(6)
H32 H 0.6399(9) 0.5473(11) 0.8318(6)
H33 H 0.7049(8) 0.6682(11) 0.8451(3)
H34 H 0.6198(7) 0.6935(12) 0.7157(3)
H35 H 0.5549(7) 0.5727(12) 0.7023(5)
S7A S 0.4572(3) -0.0358(4) 0.7475(3)
Cd4A Cd 0.4488(1) 0.5648(1) 0.7154(1)
S16A S 1.0724(3) -0.0031(4) 0.7704(2)
Cd7A Cd 1.0230(1) 0.5734(1) 0.7473(1)
loop_
_geom_bond_atom_site_label_1
_geom_bond_atom_site_label_2
_geom_bond_site_symmetry_1
_geom_bond_site_symmetry_2
Cd1 S1 1_555 1_555
Cd2 S1 1_555 1_555
Cd3 S2 1_555 1_555
Cd4 S3 1_555 1_555
S1 C1 1_555 1_555
S2 Cd1 1_555 1_555
S3 Cd1 1_555 1_555
S4 Cd2 1_555 1_555
S5 Cd2 1_555 1_555
S6 Cd3 1_555 1_555
S7 Cd1 1_555 1_555
S8 Cd2 1_555 1_555
Br1 C4 1_555 1_555
Br2 C17 1_555 1_555
Br3 C23 1_555 1_555
Br4 C29 1_555 1_555
Br5 C35 1_555 1_555
Br6 C41 1_555 1_555
Br7 C76 1_555 1_555
Br8 C82 1_555 1_555
C1 C2 1_555 1_555
C2 C3 1_555 1_555
C3 C4 1_555 1_555
C4 C5 1_555 1_555
C5 C6 1_555 1_555
C6 C1 1_555 1_555
C7 S2 1_555 1_555
Cd5 S10 1_555 1_555
Cd6 S8 1_555 1_555
Cd7 S11 1_555 1_555
Cd8 S9 1_555 1_555
S9 C8 1_555 1_555
S10 Cd6 1_555 1_555
S11 Cd5 1_555 1_555
S12 Cd5 1_555 1_555
S13 Cd6 1_555 1_555
S14 Cd6 1_555 1_555
S15 Cd7 1_555 1_555
S16 Cd5 1_555 1_555
Br9 C11 1_555 1_555
Br10 C46 1_555 1_555
Br11 C52 1_555 1_555
Br12 C58 1_555 1_555
Br13 C64 1_555 1_555
Br14 C70 1_555 1_555
Br15 C94 1_555 1_555
Br16 C100 1_555 1_555
C8 C9 1_555 1_555
C9 C10 1_555 1_555
C10 C11 1_555 1_555
C11 C12 1_555 1_555
C12 C13 1_555 1_555
C13 C8 1_555 1_555
C14 S10 1_555 1_555
C15 C7 1_555 1_555
C16 C15 1_555 1_555
C17 C16 1_555 1_555
C18 C17 1_555 1_555
C19 C7 1_555 1_555
C20 S3 1_555 1_555
C21 C20 1_555 1_555
C22 C21 1_555 1_555
C23 C22 1_555 1_555
C24 C23 1_555 1_555
C25 C20 1_555 1_555
C26 S4 1_555 1_555
C27 C26 1_555 1_555
C28 C27 1_555 1_555
C29 C28 1_555 1_555
C30 C29 1_555 1_555
C31 C26 1_555 1_555
C32 S5 1_555 1_555
C33 C32 1_555 1_555
C34 C33 1_555 1_555
C35 C34 1_555 1_555
C36 C35 1_555 1_555
C37 C32 1_555 1_555
C38 S6 1_555 1_555
C39 C38 1_555 1_555
C40 C39 1_555 1_555
C41 C40 1_555 1_555
C42 C41 1_555 1_555
C43 C38 1_555 1_555
C44 C14 1_555 1_555
C45 C44 1_555 1_555
C46 C45 1_555 1_555
C47 C46 1_555 1_555
C48 C14 1_555 1_555
C49 S11 1_555 1_555
C50 C49 1_555 1_555
C51 C50 1_555 1_555
C52 C51 1_555 1_555
C53 C52 1_555 1_555
C54 C49 1_555 1_555
C55 S12 1_555 1_555
C56 C55 1_555 1_555
C57 C56 1_555 1_555
C58 C57 1_555 1_555
C59 C58 1_555 1_555
C60 C55 1_555 1_555
C61 S13 1_555 1_555
C62 C61 1_555 1_555
C63 C62 1_555 1_555
C64 C63 1_555 1_555
C65 C64 1_555 1_555
C66 C61 1_555 1_555
C67 S14 1_555 1_555
C68 C67 1_555 1_555
C69 C68 1_555 1_555
C70 C69 1_555 1_555
C71 C70 1_555 1_555
C72 C67 1_555 1_555
C73 S7 1_555 1_555
C74 C73 1_555 1_555
C75 C74 1_555 1_555
C76 C75 1_555 1_555
C77 C76 1_555 1_555
C78 C73 1_555 1_555
C79 S8 1_555 1_555
C80 C79 1_555 1_555
C81 C80 1_555 1_555
C82 C81 1_555 1_555
C83 C82 1_555 1_555
C84 C79 1_555 1_555
O1 Cd3 1_555 1_555
C85 O1 1_555 1_555
N1 C85 1_555 1_555
C86 N1 1_555 1_555
C87 N1 1_555 1_555
O2 Cd3 1_555 1_555
C88 O2 1_555 1_555
N2 C88 1_555 1_555
C89 N2 1_555 1_555
C90 N2 1_555 1_555
H1 C2 1_555 1_555
H2 C3 1_555 1_555
H3 C5 1_555 1_555
H4 C6 1_555 1_555
H5 C15 1_555 1_555
H6 C16 1_555 1_555
H7 C18 1_555 1_555
C91 S15 1_555 1_555
C92 C91 1_555 1_555
C93 C92 1_555 1_555
C94 C93 1_555 1_555
C95 C94 1_555 1_555
C96 C91 1_555 1_555
C97 S16 1_555 1_555
C98 C97 1_555 1_555
C99 C98 1_555 1_555
C100 C99 1_555 1_555
C101 C100 1_555 1_555
C102 C97 1_555 1_555
O3 Cd3 1_555 1_555
C103 O3 1_555 1_555
N3 C103 1_555 1_555
C104 N3 1_555 1_555
C105 N3 1_555 1_555
H8 C9 1_555 1_555
H9 C10 1_555 1_555
H10 C12 1_555 1_555
H11 C13 1_555 1_555
H12 C44 1_555 1_555
H13 C45 1_555 1_555
H14 C47 1_555 1_555
H15 C19 1_555 1_555
H16 C21 1_555 1_555
H17 C22 1_555 1_555
H18 C24 1_555 1_555
H19 C25 1_555 1_555
H20 C27 1_555 1_555
H21 C28 1_555 1_555
H22 C30 1_555 1_555
H23 C31 1_555 1_555
H24 C33 1_555 1_555
H25 C34 1_555 1_555
H26 C36 1_555 1_555
H27 C37 1_555 1_555
H28 C39 1_555 1_555
H29 C40 1_555 1_555
H30 C42 1_555 1_555
H31 C43 1_555 1_555
H32 C74 1_555 1_555
H33 C75 1_555 1_555
H34 C77 1_555 1_555
H35 C78 1_555 1_555
S7A Cd4 1_555 1_555
Cd4A S7 1_555 1_555
S16A Cd7 1_555 1_555
Cd7A S16 1_555 1_555
Cd3 S4 1_555 1_555
Cd4 S5 1_555 1_555
Cd4 S6 1_555 1_555
Cd7 S13 1_555 1_555
Cd8 S12 1_555 1_555
Cd8 S14 1_555 1_555
Cd8 S15 1_555 1_555
C18 C19 1_555 1_555
C24 C25 1_555 1_555
C30 C31 1_555 1_555
C36 C37 1_555 1_555
C42 C43 1_555 1_555
C47 C48 1_555 1_555
C53 C54 1_555 1_555
C59 C60 1_555 1_555
C65 C66 1_555 1_555
C71 C72 1_555 1_555
C77 C78 1_555 1_555
C83 C84 1_555 1_555
C95 C96 1_555 1_555
C101 C102 1_555 1_555

#END
