
#######################################################################
#
#                 Cambridge Crystallographic Data Centre
#                                CCDC 
#
#######################################################################
#
# If this CIF has been generated from an entry in the Cambridge 
# Structural Database, then it will include bibliographic, chemical, 
# crystal, experimental, refinement or atomic coordinate data resulting 
# from the CCDC's data processing and validation procedures.
#
#######################################################################

data_FOTPIN10
_symmetry_cell_setting           monoclinic
_symmetry_space_group_name_H-M   'P 21/c'
_symmetry_Int_Tables_number      14
_space_group_name_Hall           '-P 2ybc'
loop_
_symmetry_equiv_pos_site_id
_symmetry_equiv_pos_as_xyz
1 x,y,z
2 -x,1/2+y,1/2-z
3 -x,-y,-z
4 x,1/2-y,1/2+z
_cell_length_a                   27.196(9)
_cell_length_b                   15.722(5)
_cell_length_c                   37.046(13)
_cell_angle_alpha                90
_cell_angle_beta                 132.03(1)
_cell_angle_gamma                90
_cell_volume                     11765.8
loop_
_atom_site_label
_atom_site_type_symbol
_atom_site_fract_x
_atom_site_fract_y
_atom_site_fract_z
Cd1 Cd 0.49551(4) 0.62298(5) 0.69652(3)
Cd2 Cd 0.58710(4) 0.43974(5) 0.67840(3)
Cd3 Cd 0.38325(4) 0.46408(5) 0.57467(3)
Cd4 Cd 0.46854(4) 0.37095(5) 0.70968(3)
S1 S 0.5900(1) 0.5956(2) 0.6985(1)
S2 S 0.3847(1) 0.6048(2) 0.6093(1)
S3 S 0.4617(1) 0.5213(2) 0.7306(1)
S4 S 0.4872(1) 0.4484(2) 0.5879(1)
S5 S 0.5605(1) 0.3276(2) 0.7128(1)
S6 S 0.3725(1) 0.3509(2) 0.6178(1)
S7 S 0.5407(2) 0.7610(2) 0.7448(1)
S8 S 0.6966(2) 0.3829(2) 0.7082(1)
C1 C 0.6668(2) 0.6075(2) 0.7595(2)
C2 C 0.6676(3) 0.6086(5) 0.7973(1)
C3 C 0.7283(4) 0.6180(6) 0.8456(1)
C4 C 0.7865(3) 0.6261(5) 0.8548(2)
C5 C 0.7856(2) 0.6250(7) 0.8171(3)
C6 C 0.7249(2) 0.6155(6) 0.7688(2)
C7 C 0.8538(4) 0.6365(7) 0.9084(3)
C8 C 0.3632(2) 0.6846(2) 0.5665(1)
C9 C 0.3813(4) 0.6747(4) 0.5397(2)
C10 C 0.3642(4) 0.7377(4) 0.5058(2)
C11 C 0.3295(3) 0.8090(4) 0.4996(2)
C12 C 0.3113(4) 0.8189(3) 0.5265(3)
C13 C 0.3284(3) 0.7558(3) 0.5603(2)
C14 C 0.3106(4) 0.8789(5) 0.4621(3)
C15 C 0.5260(2) 0.5410(2) 0.7942(1)
C16 C 0.5185(3) 0.6050(4) 0.8158(2)
C17 C 0.5693(4) 0.6206(5) 0.8661(2)
C18 C 0.6262(3) 0.5717(5) 0.8935(2)
C19 C 0.6336(3) 0.5077(6) 0.8718(2)
C20 C 0.5828(2) 0.4921(5) 0.8215(2)
C21 C 0.6825(4) 0.5890(7) 0.9492(2)
C22 C 0.4901(2) 0.3484(2) 0.5666(1)
C23 C 0.5441(2) 0.3283(3) 0.5718(2)
C24 C 0.5464(3) 0.2493(4) 0.5549(3)
C25 C 0.4947(3) 0.1924(3) 0.5332(2)
C26 C 0.4407(3) 0.2125(3) 0.5280(3)
C27 C 0.4383(3) 0.2916(3) 0.5449(3)
C28 C 0.4972(5) 0.1047(4) 0.5145(3)
C29 C 0.6325(2) 0.3218(2) 0.7760(1)
C30 C 0.6774(2) 0.3881(3) 0.7982(2)
C31 C 0.7343(3) 0.3834(5) 0.8482(2)
C32 C 0.7448(3) 0.3126(5) 0.8747(2)
C33 C 0.6998(3) 0.2463(5) 0.8525(2)
C34 C 0.6429(3) 0.2509(3) 0.8025(2)
C35 C 0.8079(3) 0.3075(7) 0.9301(2)
C36 C 0.3001(2) 0.3708(2) 0.6086(1)
C37 C 0.2546(3) 0.4307(5) 0.5748(3)
C38 C 0.1974(3) 0.4465(6) 0.5675(4)
C39 C 0.1872(3) 0.4019(6) 0.5942(3)
C40 C 0.2327(4) 0.3420(7) 0.6280(4)
C41 C 0.2900(3) 0.3262(5) 0.6353(3)
C42 C 0.1237(4) 0.4194(8) 0.5861(4)
C43 C 0.5389(2) 0.8264(2) 0.7044(2)
C44 C 0.4793(3) 0.8428(5) 0.6582(2)
C45 C 0.4779(4) 0.8944(5) 0.6263(2)
C46 C 0.5361(4) 0.9283(4) 0.6415(3)
C47 C 0.5957(4) 0.9119(6) 0.6878(3)
C48 C 0.5972(3) 0.8603(5) 0.7197(2)
C49 C 0.5346(6) 0.9856(5) 0.6062(4)
C50 C 0.7049(2) 0.2814(3) 0.7336(2)
C51 C 0.7614(3) 0.2628(4) 0.7809(2)
C52 C 0.7680(4) 0.1827(5) 0.8009(3)
C53 C 0.7178(5) 0.1233(4) 0.7732(3)
C54 C 0.6612(4) 0.1420(3) 0.7259(3)
C55 C 0.6547(3) 0.2221(3) 0.7058(2)
C56 C 0.7250(6) 0.0345(5) 0.7954(5)
Cd5 Cd 0.91147(4) 0.26769(5) 0.69367(3)
Cd6 Cd 0.77634(4) 0.38569(5) 0.69482(3)
Cd7 Cd 0.94948(4) 0.51370(5) 0.74087(3)
Cd8 Cd 0.21743(4) 0.53865(5) 0.40457(3)
S9 S 0.8465(1) 0.2555(2) 0.7209(1)
S10 S 1.0031(1) 0.3686(2) 0.7582(1)
S11 S 0.1728(1) 0.6882(2) 0.3949(1)
S12 S 0.8683(1) 0.4932(2) 0.7537(1)
S13 S 0.7026(1) 0.4242(2) 0.6058(1)
S14 S 0.1318(1) 0.4271(2) 0.3447(1)
S15 S 0.2777(2) 0.4657(2) 0.4861(1)
S16 S 0.9612(2) 0.1239(2) 0.7009(1)
C57 C 0.7974(2) 0.1622(2) 0.6906(1)
C58 C 0.8277(2) 0.0852(2) 0.6985(3)
C59 C 0.7889(3) 0.0115(3) 0.6745(3)
C60 C 0.7207(3) 0.0167(3) 0.6434(3)
C61 C 0.6903(2) 0.0938(4) 0.6356(3)
C62 C 0.7292(2) 0.1675(3) 0.6595(2)
C63 C 0.6776(4) -0.0651(4) 0.6168(3)
C64 C 1.0601(2) 0.3622(2) 0.7494(1)
C65 C 1.1081(3) 0.2997(4) 0.7728(3)
C66 C 1.1531(3) 0.2947(5) 0.7659(3)
C67 C 1.1489(3) 0.3524(5) 0.7357(3)
C68 C 1.1008(4) 0.4149(6) 0.7123(3)
C69 C 1.0557(3) 0.4199(4) 0.7192(3)
C70 C 1.1988(4) 0.3468(7) 0.7280(4)
C71 C 0.1390(2) 0.6720(2) 0.4223(1)
C72 C 0.0715(2) 0.6798(5) 0.3945(2)
C73 C 0.0448(3) 0.6670(5) 0.4162(3)
C74 C 0.0862(4) 0.6467(4) 0.4650(3)
C75 C 0.1537(4) 0.6390(5) 0.4927(2)
C76 C 0.1804(3) 0.6518(5) 0.4711(2)
C77 C 0.0565(5) 0.6325(6) 0.4890(4)
C78 C 0.9079(2) 0.4485(2) 0.8119(1)
C79 C 0.8758(3) 0.4491(5) 0.8291(2)
C80 C 0.9071(4) 0.4138(6) 0.8751(2)
C81 C 0.9697(4) 0.3789(5) 0.9027(2)
C82 C 1.0018(3) 0.3783(6) 0.8854(2)
C83 C 0.9705(3) 0.4136(5) 0.8394(2)
C84 C 1.0044(5) 0.3397(7) 0.9537(2)
C85 C 0.6626(2) 0.5183(2) 0.6020(1)
C86 C 0.5978(2) 0.5347(3) 0.5604(2)
C87 C 0.5662(3) 0.6091(4) 0.5574(2)
C88 C 0.6002(3) 0.6651(3) 0.5962(2)
C89 C 0.6650(3) 0.6486(4) 0.6378(2)
C90 C 0.6966(3) 0.5742(3) 0.6408(2)
C91 C 0.5651(4) 0.7476(4) 0.5929(3)
C92 C 0.0795(2) 0.4087(2) 0.3571(1)
C93 C 0.0302(3) 0.3479(4) 0.3309(2)
C94 C -0.0111(3) 0.3333(5) 0.3407(3)
C95 C -0.0020(3) 0.3800(5) 0.3764(3)
C96 C 0.0473(4) 0.4409(5) 0.4026(3)
C97 C 0.0886(3) 0.4554(4) 0.3928(2)
C98 C -0.0478(4) 0.3639(7) 0.3873(4)
C99 C 0.2525(2) 0.3589(3) 0.4642(1)
C100 C 0.2721(4) 0.3204(4) 0.4421(3)
C101 C 0.2521(4) 0.2362(4) 0.4248(3)
C102 C 0.2132(4) 0.1927(3) 0.4302(3)
C103 C 0.1936(4) 0.2312(4) 0.4524(3)
C104 C 0.2135(3) 0.3155(4) 0.4696(3)
C105 C 0.1911(5) 0.0993(4) 0.4110(3)
C106 C 0.9590(2) 0.1175(2) 0.6516(2)
C107 C 1.0153(3) 0.1358(5) 0.6596(2)
C108 C 1.0136(4) 0.1307(6) 0.6207(3)
C109 C 0.9556(5) 0.1075(5) 0.5749(3)
C110 C 0.8994(4) 0.0893(6) 0.5670(2)
C111 C 0.9011(3) 0.0944(5) 0.6059(2)
C112 C 0.9537(7) 0.1019(7) 0.5318(3)
S7A S 0.4593(2) 0.2610(2) 0.7552(1)
Cd4A Cd 0.53146(4) 0.87095(5) 0.79032(3)
S11B S 0.8272(1) 0.3118(2) 0.6051(1)
S14B S 0.8682(1) 0.5729(2) 0.6553(1)
S16A S 1.0388(2) 0.6239(2) 0.7991(1)
S13B S 0.2974(1) 0.5758(2) 0.3942(1)
Cd5B Cd 0.08853(4) 0.73231(5) 0.30633(3)
Cd8B Cd 0.78257(4) 0.46135(5) 0.59543(3)
Cd7B Cd 0.05052(4) 0.48630(5) 0.25913(3)
Cd7A Cd 1.05052(4) 0.01370(5) 0.75913(3)
loop_
_geom_bond_atom_site_label_1
_geom_bond_atom_site_label_2
_geom_bond_site_symmetry_1
_geom_bond_site_symmetry_2
Cd1 S1 1_555 1_555
Cd2 S1 1_555 1_555
Cd3 S2 1_555 1_555
Cd4 S3 1_555 1_555
S1 C1 1_555 1_555
S2 Cd1 1_555 1_555
S3 Cd1 1_555 1_555
S4 Cd2 1_555 1_555
S5 Cd2 1_555 1_555
S6 Cd3 1_555 1_555
S7 Cd1 1_555 1_555
S8 Cd2 1_555 1_555
C1 C2 1_555 1_555
C2 C3 1_555 1_555
C3 C4 1_555 1_555
C4 C5 1_555 1_555
C5 C6 1_555 1_555
C6 C1 1_555 1_555
C7 C4 1_555 1_555
C8 S2 1_555 1_555
C9 C8 1_555 1_555
C10 C9 1_555 1_555
C11 C10 1_555 1_555
C12 C11 1_555 1_555
C13 C8 1_555 1_555
C14 C11 1_555 1_555
C15 S3 1_555 1_555
C16 C15 1_555 1_555
C17 C16 1_555 1_555
C18 C17 1_555 1_555
C19 C18 1_555 1_555
C20 C15 1_555 1_555
C21 C18 1_555 1_555
C22 S4 1_555 1_555
C23 C22 1_555 1_555
C24 C23 1_555 1_555
C25 C24 1_555 1_555
C26 C25 1_555 1_555
C27 C22 1_555 1_555
C28 C25 1_555 1_555
C29 S5 1_555 1_555
C30 C29 1_555 1_555
C31 C30 1_555 1_555
C32 C31 1_555 1_555
C33 C32 1_555 1_555
C34 C29 1_555 1_555
C35 C32 1_555 1_555
C36 S6 1_555 1_555
C37 C36 1_555 1_555
C38 C37 1_555 1_555
C39 C38 1_555 1_555
C40 C39 1_555 1_555
C41 C36 1_555 1_555
C42 C39 1_555 1_555
C43 S7 1_555 1_555
C44 C43 1_555 1_555
C45 C44 1_555 1_555
C46 C45 1_555 1_555
C47 C46 1_555 1_555
C48 C43 1_555 1_555
C49 C46 1_555 1_555
C50 S8 1_555 1_555
C51 C50 1_555 1_555
C52 C51 1_555 1_555
C53 C52 1_555 1_555
C54 C53 1_555 1_555
C55 C50 1_555 1_555
C56 C53 1_555 1_555
Cd5 S9 1_555 1_555
Cd6 S8 1_555 1_555
Cd7 S10 1_555 1_555
Cd8 S11 1_555 1_555
S9 Cd6 1_555 1_555
S10 Cd5 1_555 1_555
S11 C71 1_555 1_555
S12 Cd6 1_555 1_555
S13 Cd6 1_555 1_555
S14 Cd8 1_555 1_555
S15 Cd3 1_555 1_555
S16 Cd5 1_555 1_555
C57 S9 1_555 1_555
C58 C57 1_555 1_555
C59 C58 1_555 1_555
C60 C59 1_555 1_555
C61 C60 1_555 1_555
C62 C57 1_555 1_555
C63 C60 1_555 1_555
C64 S10 1_555 1_555
C65 C64 1_555 1_555
C66 C65 1_555 1_555
C67 C66 1_555 1_555
C68 C67 1_555 1_555
C69 C64 1_555 1_555
C70 C67 1_555 1_555
C71 C72 1_555 1_555
C72 C73 1_555 1_555
C73 C74 1_555 1_555
C74 C75 1_555 1_555
C75 C76 1_555 1_555
C76 C71 1_555 1_555
C77 C74 1_555 1_555
C78 S12 1_555 1_555
C79 C78 1_555 1_555
C80 C79 1_555 1_555
C81 C80 1_555 1_555
C82 C81 1_555 1_555
C83 C78 1_555 1_555
C84 C81 1_555 1_555
C85 S13 1_555 1_555
C86 C85 1_555 1_555
C87 C86 1_555 1_555
C88 C87 1_555 1_555
C89 C88 1_555 1_555
C90 C85 1_555 1_555
C91 C88 1_555 1_555
C92 S14 1_555 1_555
C93 C92 1_555 1_555
C94 C93 1_555 1_555
C95 C94 1_555 1_555
C96 C95 1_555 1_555
C97 C92 1_555 1_555
C98 C95 1_555 1_555
C99 S15 1_555 1_555
C100 C99 1_555 1_555
C101 C100 1_555 1_555
C102 C101 1_555 1_555
C103 C102 1_555 1_555
C104 C99 1_555 1_555
C105 C102 1_555 1_555
C106 S16 1_555 1_555
C107 C106 1_555 1_555
C108 C107 1_555 1_555
C109 C108 1_555 1_555
C110 C109 1_555 1_555
C111 C106 1_555 1_555
C112 C109 1_555 1_555
S7A Cd4 1_555 1_555
Cd4A S7 1_555 1_555
S11B Cd5 1_555 1_555
S14B Cd7 1_555 1_555
S16A Cd7 1_555 1_555
S13B Cd8 1_555 1_555
Cd5B S11 1_555 1_555
Cd8B S13 1_555 1_555
Cd7B S14 1_555 1_555
Cd7A S16 1_555 1_555
Cd3 S4 1_555 1_555
Cd4 S5 1_555 1_555
Cd4 S6 1_555 1_555
C12 C13 1_555 1_555
C19 C20 1_555 1_555
C26 C27 1_555 1_555
C33 C34 1_555 1_555
C40 C41 1_555 1_555
C47 C48 1_555 1_555
C54 C55 1_555 1_555
Cd7 S12 1_555 1_555
Cd8 S15 1_555 1_555
C61 C62 1_555 1_555
C68 C69 1_555 1_555
C82 C83 1_555 1_555
C89 C90 1_555 1_555
C96 C97 1_555 1_555
C103 C104 1_555 1_555
C110 C111 1_555 1_555
S11B Cd8B 1_555 1_555
S14B Cd8B 1_555 1_555

#END
