
#######################################################################
#
#                 Cambridge Crystallographic Data Centre
#                                CCDC 
#
#######################################################################
#
# If this CIF has been generated from an entry in the Cambridge 
# Structural Database, then it will include bibliographic, chemical, 
# crystal, experimental, refinement or atomic coordinate data resulting 
# from the CCDC's data processing and validation procedures.
#
#######################################################################

data_FOTQAI
_symmetry_cell_setting           rhombohedral
_symmetry_space_group_name_H-M   'R -3'
_symmetry_Int_Tables_number      148
_space_group_name_Hall           '-R 3'
loop_
_symmetry_equiv_pos_site_id
_symmetry_equiv_pos_as_xyz
1 x,y,z
2 -y,x-y,z
3 -x+y,-x,z
4 2/3+x,1/3+y,1/3+z
5 2/3-y,1/3+x-y,1/3+z
6 2/3-x+y,1/3-x,1/3+z
7 1/3+x,2/3+y,2/3+z
8 1/3-y,2/3+x-y,2/3+z
9 1/3-x+y,2/3-x,2/3+z
10 -x,-y,-z
11 y,-x+y,-z
12 x-y,x,-z
13 1/3-x,2/3-y,2/3-z
14 1/3+y,2/3-x+y,2/3-z
15 1/3+x-y,2/3+x,2/3-z
16 2/3-x,1/3-y,1/3-z
17 2/3+y,1/3-x+y,1/3-z
18 2/3+x-y,1/3+x,1/3-z
_cell_length_a                   17.7586(5)
_cell_length_b                   17.7586(5)
_cell_length_c                   19.6912(6)
_cell_angle_alpha                90
_cell_angle_beta                 90
_cell_angle_gamma                120
_cell_volume                     5377.99
loop_
_atom_site_label
_atom_site_type_symbol
_atom_site_fract_x
_atom_site_fract_y
_atom_site_fract_z
Cu1 Cu 0.58981(4) 0.53584(4) 0.57127(3)
N1 N 0.5179(2) 0.5846(2) 0.53556(18)
N2 N 0.6426(2) 0.6476(2) 0.62646(18)
N3 N 0.4483(2) 0.5583(3) 0.49499(19)
C1 C 0.5340(3) 0.6591(3) 0.5654(2)
N4 N 0.6962(2) 0.8037(2) 0.69392(19)
C2 C 0.6329(3) 0.7743(3) 0.6483(2)
H1 H 0.6066 0.8070 0.6387
C3 C 0.7339(3) 0.7562(3) 0.7046(2)
H2 H 0.7792 0.7758 0.7358
C4 C 0.7081(3) 0.6786(3) 0.6710(2)
H3 H 0.7367 0.6478 0.6795
C5 C 0.6043(3) 0.6956(3) 0.6143(2)
C6 C 0.4228(4) 0.6182(4) 0.4990(3)
H4 H 0.3766 0.6160 0.4751
C7 C 0.4753(4) 0.6828(4) 0.5436(3)
H5 H 0.4719 0.7315 0.5562
Cu1I Cu 0.41019(4) 0.46416(4) 0.42873(3)
Cu1Q Cu 0.72064(6) 0.92314(4) 0.76206(3)
N3I N 0.5517(2) 0.4417(3) 0.50501(19)
N4P N 0.4704(2) 0.4408(3) 0.63941(19)
Mo1 Mo 0.81387(3) 0.56415(3) 0.82742(2)
Mo2 Mo 0.67444(3) 0.45143(3) 0.68676(2)
P1 P 0.6667 0.3333 0.8333
O1 O 0.6760(2) 0.5091(2) 0.61372(15)
O2 O 0.7032(7) 0.5723(6) 0.8525(6)
O3 O 0.8718(9) 0.6722(10) 0.8163(5)
O4 O 0.7561(5) 0.4145(5) 0.6455(4)
O5 O 0.6064(6) 0.4944(5) 0.7431(4)
O6 O 0.7799(8) 0.5635(7) 0.7385(6)
O7 O 0.6788(4) 0.4202(4) 0.8088(3)
O8 O 0.6667 0.3333 0.7541(5)
O7A O 0.5798(4) 0.2586(6) 0.8088(3)
O7B O 0.7414(6) 0.3212(4) 0.8088(3)
O7L O 0.6545(4) 0.2465(4) 0.8579(3)
O8L O 0.6666 0.3334 0.9126(5)
O7M O 0.7535(4) 0.4081(6) 0.8579(3)
O7N O 0.5919(6) 0.3455(4) 0.8579(3)
Mo1A Mo 0.43585(3) 0.24972(4) 0.82742(2)
Mo2A Mo 0.54857(3) 0.22301(4) 0.68676(2)
O1A O 0.4909(2) 0.1669(3) 0.61372(15)
O2A O 0.4277(6) 0.1309(9) 0.8525(6)
O3A O 0.3278(10) 0.1996(13) 0.8163(5)
O4A O 0.5855(5) 0.3416(7) 0.6455(4)
O5A O 0.5056(5) 0.1120(8) 0.7431(4)
O6A O 0.4365(7) 0.2164(11) 0.7385(6)
Mo1B Mo 0.75028(4) 0.18613(3) 0.82742(2)
Mo2B Mo 0.77699(4) 0.32556(3) 0.68676(2)
O1B O 0.8331(3) 0.3240(2) 0.61372(15)
O2B O 0.8691(9) 0.2968(7) 0.8525(6)
O3B O 0.8004(13) 0.1282(9) 0.8163(5)
O4B O 0.6584(7) 0.2439(5) 0.6455(4)
O5B O 0.8880(8) 0.3936(6) 0.7431(4)
O6B O 0.7836(11) 0.2201(8) 0.7385(6)
Mo1L Mo 0.51946(3) 0.10252(3) 0.83925(2)
Mo2L Mo 0.65889(3) 0.21524(3) 0.97991(2)
O1L O 0.6573(2) 0.1576(2) 1.05295(15)
O2L O 0.6301(7) 0.0944(6) 0.8142(6)
O3L O 0.4615(9) -0.0055(10) 0.8504(5)
O4L O 0.5772(5) 0.2522(5) 1.0212(4)
O5L O 0.7269(6) 0.1723(5) 0.9236(4)
O6L O 0.5534(8) 0.1032(7) 0.9282(6)
Mo1M Mo 0.89748(3) 0.41695(4) 0.83925(2)
Mo2M Mo 0.78476(3) 0.44366(4) 0.97991(2)
O1M O 0.8424(2) 0.4998(3) 1.05295(15)
O2M O 0.9056(6) 0.5358(9) 0.8142(6)
O3M O 1.0055(10) 0.4671(13) 0.8504(5)
O4M O 0.7478(5) 0.3251(7) 1.0212(4)
O5M O 0.8277(5) 0.5547(8) 0.9236(4)
O6M O 0.8968(7) 0.4503(11) 0.9282(6)
Mo1N Mo 0.58305(4) 0.48054(3) 0.83925(2)
Mo2N Mo 0.55634(4) 0.34111(3) 0.97991(2)
O1N O 0.5002(3) 0.3427(2) 1.05295(15)
O2N O 0.4642(9) 0.3699(7) 0.8142(6)
O3N O 0.5329(13) 0.5385(9) 0.8504(5)
O4N O 0.6749(7) 0.4228(5) 1.0212(4)
O5N O 0.4453(8) 0.2731(6) 0.9236(4)
O6N O 0.5497(11) 0.4466(8) 0.9282(6)
O9? O 0.8876(10) 0.6696(10) 0.8410(6)
O10? O 0.7572(5) 0.4167(5) 0.6809(4)
O11? O 0.6975(7) 0.5370(6) 0.8472(5)
O12? O 0.7705(6) 0.5250(6) 0.7383(5)
O13? O 0.6028(6) 0.4565(5) 0.7424(4)
loop_
_geom_bond_atom_site_label_1
_geom_bond_atom_site_label_2
_geom_bond_site_symmetry_1
_geom_bond_site_symmetry_2
Mo1 O2 1_555 1_555
Mo2 O1 1_555 1_555
P1 O7 1_555 1_555
O2 Mo1N 1_555 1_555
O3 Mo1 1_555 1_555
O4 Mo2 1_555 1_555
O5 Mo2 1_555 1_555
O6 Mo1 1_555 1_555
O7 Mo1 1_555 1_555
O8 Mo2 1_555 1_555
Cu1 N1 1_555 1_555
N1 N3 1_555 1_555
N2 Cu1 1_555 1_555
N3 C6 1_555 1_555
C1 N1 1_555 1_555
N4 C2 1_555 1_555
C2 H1 1_555 1_555
C3 N4 1_555 1_555
H2 C3 1_555 1_555
C4 N2 1_555 1_555
H3 C4 1_555 1_555
C5 N2 1_555 1_555
C6 H4 1_555 1_555
C7 C1 1_555 1_555
H5 C7 1_555 1_555
O7A P1 1_555 1_555
O7B P1 1_555 1_555
O7L P1 1_555 1_555
O8L P1 1_555 1_555
O7M Mo1 1_555 1_555
O7N P1 1_555 1_555
Mo1A O7A 1_555 1_555
Mo2A O8 1_555 1_555
O1A Mo2A 1_555 1_555
O2A Mo1A 1_555 1_555
O3A Mo1A 1_555 1_555
O4A Mo2 1_555 1_555
O5A Mo2A 1_555 1_555
O6A Mo1A 1_555 1_555
Mo1B O7B 1_555 1_555
Mo2B O4 1_555 1_555
O1B Mo2B 1_555 1_555
O2B Mo1B 1_555 1_555
O3B Mo1B 1_555 1_555
O4B Mo2A 1_555 1_555
O5B Mo2B 1_555 1_555
O6B Mo1B 1_555 1_555
Mo1L O7A 1_555 1_555
Mo2L O7L 1_555 1_555
O1L Mo2L 1_555 1_555
O2L Mo1B 1_555 1_555
O3L Mo1L 1_555 1_555
O4L Mo2L 1_555 1_555
O5L Mo1B 1_555 1_555
O6L Mo1L 1_555 1_555
Mo1M O7B 1_555 1_555
Mo2M O8L 1_555 1_555
O1M Mo2M 1_555 1_555
O2M Mo1 1_555 1_555
O3M Mo1M 1_555 1_555
O4M Mo2L 1_555 1_555
O5M Mo1 1_555 1_555
O6M Mo1M 1_555 1_555
Mo1N O5 1_555 1_555
Mo2N O8L 1_555 1_555
O1N Mo2N 1_555 1_555
O2N Mo1A 1_555 1_555
O3N Mo1N 1_555 1_555
O4N Mo2M 1_555 1_555
O5N Mo1A 1_555 1_555
O6N Mo1N 1_555 1_555
Cu1I N3 1_555 1_555
Cu1Q N4 1_555 1_555
N3I Cu1 1_555 1_555
N4P Cu1 1_555 1_555
Mo2 O6 1_555 1_555
Mo2 O7 1_555 1_555
P1 O8 1_555 1_555
P1 O7M 1_555 1_555
O7 O8 1_555 1_555
O7 O7M 1_555 1_555
O7 O7N 1_555 1_555
O7 Mo1N 1_555 1_555
O8 O7A 1_555 1_555
O8 O7B 1_555 1_555
O8 Mo2B 1_555 1_555
C1 C5 1_555 1_555
C2 C5 1_555 1_555
C3 C4 1_555 1_555
C6 C7 1_555 1_555
O7A O7L 1_555 1_555
O7A O7N 1_555 1_555
O7A Mo2A 1_555 1_555
O7B O7L 1_555 1_555
O7B O7M 1_555 1_555
O7B Mo2B 1_555 1_555
O7L O8L 1_555 1_555
O7L Mo1B 1_555 1_555
O7L Mo1L 1_555 1_555
O8L O7M 1_555 1_555
O8L O7N 1_555 1_555
O8L Mo2L 1_555 1_555
O7M Mo1M 1_555 1_555
O7M Mo2M 1_555 1_555
O7N Mo1A 1_555 1_555
O7N Mo1N 1_555 1_555
O7N Mo2N 1_555 1_555
Mo2A O4A 1_555 1_555
Mo2A O6A 1_555 1_555
O2A Mo1L 1_555 1_555
O5A Mo1L 1_555 1_555
Mo2B O4B 1_555 1_555
Mo2B O6B 1_555 1_555
O2B Mo1M 1_555 1_555
O5B Mo1M 1_555 1_555
Mo1L O2L 1_555 1_555
Mo2L O5L 1_555 1_555
Mo2L O6L 1_555 1_555
O4L Mo2N 1_555 1_555
Mo1M O2M 1_555 1_555
Mo2M O4M 1_555 1_555
Mo2M O5M 1_555 1_555
Mo2M O6M 1_555 1_555
Mo1N O2N 1_555 1_555
Mo2N O4N 1_555 1_555
Mo2N O5N 1_555 1_555
Mo2N O6N 1_555 1_555

#END
