
#######################################################################
#
#                 Cambridge Crystallographic Data Centre
#                                CCDC 
#
#######################################################################
#
# If this CIF has been generated from an entry in the Cambridge 
# Structural Database, then it will include bibliographic, chemical, 
# crystal, experimental, refinement or atomic coordinate data resulting 
# from the CCDC's data processing and validation procedures.
#
#######################################################################

data_FOTVOA
_symmetry_cell_setting           triclinic
_symmetry_space_group_name_H-M   'P -1'
_symmetry_Int_Tables_number      2
_space_group_name_Hall           '-P 1'
loop_
_symmetry_equiv_pos_site_id
_symmetry_equiv_pos_as_xyz
1 x,y,z
2 -x,-y,-z
_cell_length_a                   8.9122(18)
_cell_length_b                   11.045(2)
_cell_length_c                   11.450(2)
_cell_angle_alpha                83.381(3)
_cell_angle_beta                 74.579(3)
_cell_angle_gamma                74.162(3)
_cell_volume                     1044.15
loop_
_atom_site_label
_atom_site_type_symbol
_atom_site_fract_x
_atom_site_fract_y
_atom_site_fract_z
Co1 Co 0.0000 0.5000 1.0000
Co2 Co 0.0000 1.0000 0.5000
O1 O 0.2707(3) 0.3750(2) 0.7006(2)
O2 O 0.0428(3) 0.4921(2) 0.80832(19)
O3 O 0.2032(3) 0.6802(2) 0.6342(2)
O4 O 0.0655(3) 0.80508(19) 0.5125(2)
N1 N 0.1951(3) 0.5835(3) 0.9758(3)
N2 N 0.2830(4) 0.6137(3) 0.8675(3)
H1 H 0.2638 0.6055 0.7994
N3 N 0.1551(3) 0.3198(2) 1.0225(2)
N4 N 0.2611(3) 0.2545(2) 0.9311(2)
H2 H 0.2793 0.2821 0.8567
N5 N 0.0142(3) 1.0120(2) 0.6796(2)
N6 N 0.1158(3) 0.9252(3) 0.7327(2)
H3 H 0.1693 0.8533 0.7034
N7 N 0.2462(3) 1.0007(3) 0.4309(2)
N8 N 0.3668(4) 0.8991(3) 0.3939(3)
H4 H 0.3552 0.8238 0.3977
C1 C 0.0685(3) 0.4794(3) 0.5998(3)
C2 C 0.0533(4) 0.5950(3) 0.5347(3)
C3 C 0.0148(4) 0.3871(3) 0.5634(3)
H5 H 0.0248 0.3099 0.6066
C4 C 0.1338(4) 0.4485(3) 0.7118(3)
C5 C 0.1112(4) 0.7013(3) 0.5640(3)
C6 C 0.4034(5) 0.6577(4) 0.8777(4)
H6 H 0.4796 0.6837 0.8144
C7 C 0.3939(5) 0.6575(4) 0.9967(5)
H7 H 0.4613 0.6839 1.0323
C8 C 0.2627(5) 0.6097(4) 1.0560(3)
H8 H 0.2279 0.5980 1.1396
C9 C 0.3353(4) 0.1412(3) 0.9699(4)
H9 H 0.4130 0.0800 0.9221
C10 C 0.2776(5) 0.1314(3) 1.0909(3)
H10 H 0.3065 0.0633 1.1434
C11 C 0.1665(5) 0.2442(3) 1.1198(3)
H11 H 0.1068 0.2649 1.1980
C12 C 0.1239(5) 0.9637(4) 0.8359(3)
H12 H 0.1870 0.9188 0.8873
C13 C 0.0229(5) 1.0810(4) 0.8530(3)
H13 H 0.0028 1.1324 0.9172
C14 C -0.0433(4) 1.1069(3) 0.7536(3)
H14 H -0.1181 1.1811 0.7405
C15 C 0.5071(4) 0.9298(4) 0.3503(3)
H15 H 0.6066 0.8747 0.3207
C16 C 0.4772(5) 1.0549(4) 0.3573(3)
H16 H 0.5510 1.1038 0.3329
C17 C 0.3148(4) 1.0957(3) 0.4081(3)
H17 H 0.2605 1.1791 0.4242
Co1_2 Co 0.0000 0.5000 0.0000
Co2_2 Co 0.0000 0.0000 0.5000
O1A O -0.2707(3) 0.6250(2) 0.2994(2)
O2A O -0.0428(3) 0.5079(2) 0.19168(19)
O2A_2 O -0.0428(3) 0.5079(2) 1.19168(19)
O3A O -0.2032(3) 0.3198(2) 0.3658(2)
O4A O -0.0655(3) 0.19492(19) 0.4875(2)
O4A_2 O -0.0655(3) 1.19492(19) 0.4875(2)
N1A N -0.1951(3) 0.4165(3) 1.0242(3)
N2A N -0.2830(4) 0.3863(3) 1.1325(3)
H1A H -0.2638 0.3945 1.2006
N3A N -0.1551(3) 0.6802(2) 0.9775(2)
N4A N -0.2611(3) 0.7455(2) 1.0689(2)
H2A H -0.2793 0.7179 1.1433
N5A N -0.0142(3) 0.9880(2) 0.3204(2)
N6A N -0.1158(3) 1.0748(3) 0.2673(2)
H3A H -0.1693 1.1467 0.2966
N7A N -0.2462(3) 0.9993(3) 0.5691(2)
N8A N -0.3668(4) 1.1009(3) 0.6061(3)
H4A H -0.3552 1.1762 0.6023
C1A C -0.0685(3) 0.5206(3) 0.4002(3)
C2A C -0.0533(4) 0.4050(3) 0.4653(3)
C3A C -0.0148(4) 0.6129(3) 0.4366(3)
H5A H -0.0248 0.6901 0.3934
C4A C -0.1338(4) 0.5515(3) 0.2882(3)
C5A C -0.1112(4) 0.2987(3) 0.4360(3)
C6A C -0.4034(5) 0.3423(4) 1.1223(4)
H6A H -0.4796 0.3163 1.1856
C7A C -0.3939(5) 0.3425(4) 1.0033(5)
H7A H -0.4613 0.3161 0.9677
C8A C -0.2627(5) 0.3903(4) 0.9440(3)
H8A H -0.2279 0.4020 0.8604
C9A C -0.3353(4) 0.8588(3) 1.0301(4)
H9A H -0.4130 0.9200 1.0779
C10A C -0.2776(5) 0.8686(3) 0.9091(3)
H10A H -0.3065 0.9367 0.8566
C11A C -0.1665(5) 0.7558(3) 0.8802(3)
H11A H -0.1068 0.7351 0.8020
C12A C -0.1239(5) 1.0363(4) 0.1641(3)
H12A H -0.1870 1.0812 0.1127
C13A C -0.0229(5) 0.9190(4) 0.1470(3)
H13A H -0.0028 0.8676 0.0828
C14A C 0.0433(4) 0.8931(3) 0.2464(3)
H14A H 0.1181 0.8189 0.2595
C15A C -0.5071(4) 1.0702(4) 0.6497(3)
H15A H -0.6066 1.1253 0.6793
C16A C -0.4772(5) 0.9451(4) 0.6427(3)
H16A H -0.5510 0.8962 0.6671
C17A C -0.3148(4) 0.9043(3) 0.5919(3)
H17A H -0.2605 0.8209 0.5758
O5 O 0.3949(4) 0.6402(3) 0.3256(3)
H18 H 0.4956 0.6328 0.3109
H19 H 0.3799 0.5667 0.3418
O6 O 0.4419(3) 0.3811(3) 0.4310(3)
H20 H 0.5406 0.3708 0.4292
H21 H 0.3912 0.3777 0.5050
loop_
_geom_bond_atom_site_label_1
_geom_bond_atom_site_label_2
_geom_bond_site_symmetry_1
_geom_bond_site_symmetry_2
Co1 O2 1_555 1_555
Co2 O4 1_555 1_555
O1 C4 1_555 1_555
O2 C4 1_555 1_555
O3 C5 1_555 1_555
O4 C5 1_555 1_555
N1 Co1 1_555 1_555
N2 N1 1_555 1_555
H1 N2 1_555 1_555
N3 Co1 1_555 1_555
N4 N3 1_555 1_555
H2 N4 1_555 1_555
N5 Co2 1_555 1_555
N6 N5 1_555 1_555
H3 N6 1_555 1_555
N7 Co2 1_555 1_555
N8 N7 1_555 1_555
H4 N8 1_555 1_555
C1 C2 1_555 1_555
C2 C5 1_555 1_555
C3 C1 1_555 1_555
H5 C3 1_555 1_555
C4 C1 1_555 1_555
C6 N2 1_555 1_555
H6 C6 1_555 1_555
C7 C6 1_555 1_555
H7 C7 1_555 1_555
C8 N1 1_555 1_555
H8 C8 1_555 1_555
C9 N4 1_555 1_555
H9 C9 1_555 1_555
C10 C9 1_555 1_555
H10 C10 1_555 1_555
C11 N3 1_555 1_555
H11 C11 1_555 1_555
C12 N6 1_555 1_555
H12 C12 1_555 1_555
C13 C12 1_555 1_555
H13 C13 1_555 1_555
C14 N5 1_555 1_555
H14 C14 1_555 1_555
C15 N8 1_555 1_555
H15 C15 1_555 1_555
C16 C15 1_555 1_555
H16 C16 1_555 1_555
C17 N7 1_555 1_555
H17 C17 1_555 1_555
O5 H18 1_555 1_555
H19 O5 1_555 1_555
O6 H20 1_555 1_555
H21 O6 1_555 1_555
Co1_2 O2A 1_555 1_555
Co2_2 O4A 1_555 1_555
O1A C4A 1_555 1_555
O2A C4A 1_555 1_555
O2A_2 Co1 1_555 1_555
O3A C5A 1_555 1_555
O4A C5A 1_555 1_555
O4A_2 Co2 1_555 1_555
N1A Co1 1_555 1_555
N2A N1A 1_555 1_555
H1A N2A 1_555 1_555
N3A Co1 1_555 1_555
N4A N3A 1_555 1_555
H2A N4A 1_555 1_555
N5A Co2 1_555 1_555
N6A N5A 1_555 1_555
H3A N6A 1_555 1_555
N7A Co2 1_555 1_555
N8A N7A 1_555 1_555
H4A N8A 1_555 1_555
C1A C2A 1_555 1_555
C2A C3 1_555 1_555
C3A C2 1_555 1_555
H5A C3A 1_555 1_555
C4A C1A 1_555 1_555
C5A C2A 1_555 1_555
C6A N2A 1_555 1_555
H6A C6A 1_555 1_555
C7A C6A 1_555 1_555
H7A C7A 1_555 1_555
C8A N1A 1_555 1_555
H8A C8A 1_555 1_555
C9A N4A 1_555 1_555
H9A C9A 1_555 1_555
C10A C9A 1_555 1_555
H10A C10A 1_555 1_555
C11A N3A 1_555 1_555
H11A C11A 1_555 1_555
C12A N6A 1_555 1_555
H12A C12A 1_555 1_555
C13A C12A 1_555 1_555
H13A C13A 1_555 1_555
C14A N5A 1_555 1_555
H14A C14A 1_555 1_555
C15A N8A 1_555 1_555
H15A C15A 1_555 1_555
C16A C15A 1_555 1_555
H16A C16A 1_555 1_555
C17A N7A 1_555 1_555
H17A C17A 1_555 1_555
C7 C8 1_555 1_555
C10 C11 1_555 1_555
C13 C14 1_555 1_555
C16 C17 1_555 1_555
C1A C3A 1_555 1_555
C7A C8A 1_555 1_555
C10A C11A 1_555 1_555
C13A C14A 1_555 1_555
C16A C17A 1_555 1_555

#END
