
#######################################################################
#
#                 Cambridge Crystallographic Data Centre
#                                CCDC 
#
#######################################################################
#
# If this CIF has been generated from an entry in the Cambridge 
# Structural Database, then it will include bibliographic, chemical, 
# crystal, experimental, refinement or atomic coordinate data resulting 
# from the CCDC's data processing and validation procedures.
#
#######################################################################

data_FOTVUG
_symmetry_cell_setting           triclinic
_symmetry_space_group_name_H-M   'P -1'
_symmetry_Int_Tables_number      2
_space_group_name_Hall           '-P 1'
loop_
_symmetry_equiv_pos_site_id
_symmetry_equiv_pos_as_xyz
1 x,y,z
2 -x,-y,-z
_cell_length_a                   7.6399(12)
_cell_length_b                   10.7925(17)
_cell_length_c                   11.4616(19)
_cell_angle_alpha                73.224(3)
_cell_angle_beta                 74.613(2)
_cell_angle_gamma                71.287(3)
_cell_volume                     841.307
loop_
_atom_site_label
_atom_site_type_symbol
_atom_site_fract_x
_atom_site_fract_y
_atom_site_fract_z
Ni1 Ni 0.0000 0.5000 1.0000
O1 O 0.2245(3) 0.7347(2) 0.5380(2)
O2 O -0.0754(3) 0.7843(2) 0.6323(2)
O3 O 0.0276(3) 0.5108(2) 0.81139(18)
O4 O -0.2319(3) 0.4510(3) 0.8245(2)
N1 N 0.2330(4) 0.3358(3) 1.0064(2)
N2 N 0.2635(5) 0.2457(3) 1.1120(3)
H1 H 0.1867 0.2485 1.1819
C1 C 0.0384(4) 0.5966(3) 0.5414(3)
C2 C -0.0456(4) 0.5005(3) 0.6274(3)
C3 C 0.0830(4) 0.5941(3) 0.4164(3)
H3 H 0.1397 0.6578 0.3601
C4 C 0.0661(5) 0.7128(3) 0.5750(3)
C5 C -0.0885(4) 0.4871(3) 0.7661(3)
C6 C 0.4230(8) 0.1525(5) 1.0979(5)
H4 H 0.4707 0.0806 1.1589
C7 C 0.5028(7) 0.1819(5) 0.9784(6)
H5 H 0.6182 0.1350 0.9399
C8 C 0.3795(6) 0.2970(4) 0.9220(4)
H6 H 0.3982 0.3391 0.8383
O5 O 0.1654(3) 0.6350(2) 0.9435(2)
H10 H 0.2467 0.6303 0.8768
H11 H 0.2246 0.6172 1.0021
Ni1_2 Ni 0.0000 0.5000 0.0000
O1A O -0.2245(3) 0.2653(2) 0.4620(2)
O2A O 0.0754(3) 0.2157(2) 0.3677(2)
O3A O -0.0276(3) 0.4892(2) 0.18861(18)
O3A_2 O -0.0276(3) 0.4892(2) 1.18861(18)
O4A O 0.2319(3) 0.5490(3) 0.1755(2)
N1A N -0.2330(4) 0.6642(3) 0.9936(2)
N2A N -0.2635(5) 0.7543(3) 0.8880(3)
H1A H -0.1867 0.7515 0.8181
C1A C -0.0384(4) 0.4034(3) 0.4586(3)
C2A C 0.0456(4) 0.4995(3) 0.3726(3)
C3A C -0.0830(4) 0.4059(3) 0.5836(3)
H3A H -0.1397 0.3422 0.6399
C4A C -0.0661(5) 0.2872(3) 0.4250(3)
C5A C 0.0885(4) 0.5129(3) 0.2339(3)
C6A C -0.4230(8) 0.8475(5) 0.9021(5)
H4A H -0.4707 0.9194 0.8411
C7A C -0.5028(7) 0.8181(5) 1.0216(6)
H5A H -0.6182 0.8650 1.0601
C8A C -0.3795(6) 0.7030(4) 1.0780(4)
H6A H -0.3982 0.6609 1.1617
O5A O -0.1654(3) 0.3650(2) 1.0565(2)
H10A H -0.2467 0.3697 1.1232
H11A H -0.2246 0.3828 0.9979
Ni2 Ni 0.5000 0.0000 0.5000
N3 N 0.2921(4) 0.0288(3) 0.6548(3)
N4 N 0.2614(5) 0.1258(4) 0.7161(3)
H2 H 0.3233 0.1854 0.6938
C9 C 0.1238(8) 0.1179(6) 0.8154(5)
H7 H 0.0781 0.1746 0.8705
C10 C 0.0637(7) 0.0118(7) 0.8204(5)
H8 H -0.0298 -0.0200 0.8808
C11 C 0.1688(6) -0.0419(4) 0.7173(4)
H9 H 0.1545 -0.1147 0.6961
O6 O 0.4087(3) 0.2026(2) 0.4274(2)
H12 H 0.4717 0.2562 0.3795
H13 H 0.3067 0.2212 0.4016
O7 O 0.3164(3) -0.0361(2) 0.4165(2)
H14 H 0.2146 0.0261 0.4139
H15 H 0.2884 -0.1070 0.4627
N3A N 0.7079(4) -0.0288(3) 0.3452(3)
N4A N 0.7386(5) -0.1258(4) 0.2839(3)
H2A H 0.6767 -0.1854 0.3062
C9A C 0.8762(8) -0.1179(6) 0.1846(5)
H7A H 0.9219 -0.1746 0.1295
C10A C 0.9363(7) -0.0118(7) 0.1796(5)
H8A H 1.0298 0.0200 0.1192
C11A C 0.8312(6) 0.0419(4) 0.2827(4)
H9A H 0.8455 0.1147 0.3039
O6A O 0.5913(3) -0.2026(2) 0.5726(2)
H12A H 0.5283 -0.2562 0.6205
H13A H 0.6933 -0.2212 0.5984
O7A O 0.6836(3) 0.0361(2) 0.5835(2)
H14A H 0.7854 -0.0261 0.5861
H15A H 0.7116 0.1070 0.5373
O8 O 0.4509(3) 0.5957(3) 0.7361(2)
H16 H 0.4140 0.5547 0.6979
H17 H 0.5494 0.5426 0.7615
O9 O 0.5589(4) 0.6224(3) 0.3864(3)
H18 H 0.6417 0.5908 0.4320
H19 H 0.4519 0.6375 0.4341
loop_
_geom_bond_atom_site_label_1
_geom_bond_atom_site_label_2
_geom_bond_site_symmetry_1
_geom_bond_site_symmetry_2
Ni1 O3 1_555 1_555
Ni2 N3 1_555 1_555
O1 C4 1_555 1_555
O2 C4 1_555 1_555
O3 C5 1_555 1_555
O4 C5 1_555 1_555
N1 Ni1 1_555 1_555
N2 N1 1_555 1_555
H1 N2 1_555 1_555
N3 N4 1_555 1_555
N4 H2 1_555 1_555
C1 C2 1_555 1_555
C2 C5 1_555 1_555
C3 C1 1_555 1_555
H3 C3 1_555 1_555
C4 C1 1_555 1_555
C6 N2 1_555 1_555
H4 C6 1_555 1_555
C7 C6 1_555 1_555
H5 C7 1_555 1_555
C8 N1 1_555 1_555
H6 C8 1_555 1_555
C9 N4 1_555 1_555
H7 C9 1_555 1_555
C10 C9 1_555 1_555
H8 C10 1_555 1_555
C11 N3 1_555 1_555
H9 C11 1_555 1_555
O5 Ni1 1_555 1_555
H10 O5 1_555 1_555
H11 O5 1_555 1_555
O6 Ni2 1_555 1_555
H12 O6 1_555 1_555
H13 O6 1_555 1_555
O7 Ni2 1_555 1_555
H14 O7 1_555 1_555
H15 O7 1_555 1_555
O8 H16 1_555 1_555
H17 O8 1_555 1_555
O9 H18 1_555 1_555
H19 O9 1_555 1_555
Ni1_2 O3A 1_555 1_555
O1A C4A 1_555 1_555
O2A C4A 1_555 1_555
O3A C5A 1_555 1_555
O3A_2 Ni1 1_555 1_555
O4A C5A 1_555 1_555
N1A Ni1 1_555 1_555
N2A N1A 1_555 1_555
H1A N2A 1_555 1_555
N3A Ni2 1_555 1_555
N4A N3A 1_555 1_555
H2A N4A 1_555 1_555
C1A C2A 1_555 1_555
C2A C3 1_555 1_555
C3A C2 1_555 1_555
H3A C3A 1_555 1_555
C4A C1A 1_555 1_555
C5A C2A 1_555 1_555
C6A N2A 1_555 1_555
H4A C6A 1_555 1_555
C7A C6A 1_555 1_555
H5A C7A 1_555 1_555
C8A N1A 1_555 1_555
H6A C8A 1_555 1_555
C9A N4A 1_555 1_555
H7A C9A 1_555 1_555
C10A C9A 1_555 1_555
H8A C10A 1_555 1_555
C11A N3A 1_555 1_555
H9A C11A 1_555 1_555
O5A Ni1 1_555 1_555
H10A O5A 1_555 1_555
H11A O5A 1_555 1_555
O6A Ni2 1_555 1_555
H12A O6A 1_555 1_555
H13A O6A 1_555 1_555
O7A Ni2 1_555 1_555
H14A O7A 1_555 1_555
H15A O7A 1_555 1_555
C7 C8 1_555 1_555
C10 C11 1_555 1_555
C1A C3A 1_555 1_555
C7A C8A 1_555 1_555
C10A C11A 1_555 1_555

#END
