
#######################################################################
#
#                 Cambridge Crystallographic Data Centre
#                                CCDC 
#
#######################################################################
#
# If this CIF has been generated from an entry in the Cambridge 
# Structural Database, then it will include bibliographic, chemical, 
# crystal, experimental, refinement or atomic coordinate data resulting 
# from the CCDC's data processing and validation procedures.
#
#######################################################################

data_FOTVEQ
_symmetry_cell_setting           monoclinic
_symmetry_space_group_name_H-M   'P 21/c'
_symmetry_Int_Tables_number      14
_space_group_name_Hall           '-P 2ybc'
loop_
_symmetry_equiv_pos_site_id
_symmetry_equiv_pos_as_xyz
1 x,y,z
2 -x,1/2+y,1/2-z
3 -x,-y,-z
4 x,1/2-y,1/2+z
_cell_length_a                   8.5762(11)
_cell_length_b                   21.844(2)
_cell_length_c                   11.092(5)
_cell_angle_alpha                90
_cell_angle_beta                 110.512(17)
_cell_angle_gamma                90
_cell_volume                     1946.21
loop_
_atom_site_label
_atom_site_type_symbol
_atom_site_fract_x
_atom_site_fract_y
_atom_site_fract_z
Cu1 Cu 0.24379(4) 0.461038(14) 0.24673(3)
O1 O -0.0708(3) 0.45702(10) 0.1497(2)
H1 H -0.132(4) 0.4806(13) 0.174(3)
H2 H -0.111(4) 0.4241(11) 0.159(3)
S1 S 0.40293(8) 0.27120(3) 0.73399(6)
S2 S 0.19734(9) 0.26502(3) 0.78428(6)
N1 N 0.2736(3) 0.39907(9) 0.3873(2)
C1 C 0.1641(3) 0.39047(12) 0.4462(3)
H3 H 0.0630 0.4111 0.4149
C2 C 0.1928(3) 0.35245(12) 0.5517(3)
H4 H 0.1126 0.3475 0.5896
C3 C 0.3427(3) 0.32212(11) 0.5992(2)
C4 C 0.4581(3) 0.32988(12) 0.5384(2)
H5 H 0.5596 0.3094 0.5677
C5 C 0.4196(3) 0.36847(12) 0.4340(2)
H6 H 0.4973 0.3737 0.3938
N2 N 0.2573(3) 0.39560(10) 1.1180(2)
C6 C 0.1310(3) 0.35579(12) 1.0737(3)
H7 H 0.0514 0.3549 1.1129
C7 C 0.1129(3) 0.31611(12) 0.9730(3)
H8 H 0.0227 0.2895 0.9447
C8 C 0.2326(3) 0.31680(11) 0.9145(2)
C9 C 0.3667(4) 0.35592(13) 0.9626(3)
H9 H 0.4508 0.3564 0.9277
C10 C 0.3740(4) 0.39432(13) 1.0632(3)
H10 H 0.4645 0.4207 1.0946
N3 N 0.2688(3) 0.52854(10) 0.1321(2)
H11 H 0.3647 0.5237 0.1172
H12 H 0.1842 0.5271 0.0560
N4 N 0.2014(3) 0.52970(10) 0.3525(2)
H13 H 0.1188 0.5194 0.3811
H14 H 0.2937 0.5373 0.4210
C11 C 0.2690(4) 0.58823(13) 0.1946(3)
H15 H 0.2323 0.6202 0.1300
H16 H 0.3808 0.5981 0.2518
C12 C 0.1540(4) 0.58458(13) 0.2694(3)
H17 H 0.1644 0.6210 0.3216
H18 H 0.0396 0.5813 0.2113
O2 O 0.5762(3) 0.48905(11) 0.3603(2)
O3 O 0.6431(3) 0.51406(11) 0.1955(2)
O4 O 0.8345(3) 0.49563(11) 0.3795(2)
N5 N 0.6850(3) 0.49950(11) 0.3125(2)
Cu1_2 Cu 0.24379(4) 0.461038(14) 1.24673(3)
N2_2 N 0.2573(3) 0.39560(10) 0.1180(2)
O5 O -0.2220(3) 0.25313(11) 0.2215(2)
O6 O -0.2319(4) 0.29728(14) 0.0443(3)
O7 O -0.1948(4) 0.35034(13) 0.2144(3)
N6 N -0.2174(3) 0.29968(14) 0.1599(3)
O8 O -0.2045(4) 0.33030(16) 0.4708(3)
H19 H -0.200(6) 0.2944(12) 0.501(4)
H20 H -0.205(6) 0.328(2) 0.395(2)
loop_
_geom_bond_atom_site_label_1
_geom_bond_atom_site_label_2
_geom_bond_site_symmetry_1
_geom_bond_site_symmetry_2
Cu1 O1 1_555 1_555
O1 H1 1_555 1_555
H2 O1 1_555 1_555
S1 S2 1_555 1_555
S2 C8 1_555 1_555
N1 Cu1 1_555 1_555
C1 N1 1_555 1_555
H3 C1 1_555 1_555
C2 C1 1_555 1_555
H4 C2 1_555 1_555
C3 S1 1_555 1_555
C4 C3 1_555 1_555
H5 C4 1_555 1_555
C5 N1 1_555 1_555
H6 C5 1_555 1_555
N2 C6 1_555 1_555
C6 H7 1_555 1_555
C7 C6 1_555 1_555
H8 C7 1_555 1_555
C8 C7 1_555 1_555
C9 C8 1_555 1_555
H9 C9 1_555 1_555
C10 N2 1_555 1_555
H10 C10 1_555 1_555
N3 Cu1 1_555 1_555
H11 N3 1_555 1_555
H12 N3 1_555 1_555
N4 Cu1 1_555 1_555
H13 N4 1_555 1_555
H14 N4 1_555 1_555
C11 N3 1_555 1_555
H15 C11 1_555 1_555
H16 C11 1_555 1_555
C12 N4 1_555 1_555
H17 C12 1_555 1_555
H18 C12 1_555 1_555
O2 Cu1 1_555 1_555
O3 N5 1_555 1_555
O4 N5 1_555 1_555
N5 O2 1_555 1_555
O5 N6 1_555 1_555
O6 N6 1_555 1_555
O7 N6 1_555 1_555
O8 H19 1_555 1_555
H20 O8 1_555 1_555
Cu1_2 N2 1_555 1_555
N2_2 Cu1 1_555 1_555
C2 C3 1_555 1_555
C4 C5 1_555 1_555
C9 C10 1_555 1_555
C11 C12 1_555 1_555

#END
