
#######################################################################
#
#                 Cambridge Crystallographic Data Centre
#                                CCDC 
#
#######################################################################
#
# If this CIF has been generated from an entry in the Cambridge 
# Structural Database, then it will include bibliographic, chemical, 
# crystal, experimental, refinement or atomic coordinate data resulting 
# from the CCDC's data processing and validation procedures.
#
#######################################################################

data_FOTWIV
_symmetry_cell_setting           triclinic
_symmetry_space_group_name_H-M   'P -1'
_symmetry_Int_Tables_number      2
_space_group_name_Hall           '-P 1'
loop_
_symmetry_equiv_pos_site_id
_symmetry_equiv_pos_as_xyz
1 x,y,z
2 -x,-y,-z
_cell_length_a                   12.269(3)
_cell_length_b                   13.622(3)
_cell_length_c                   15.171(4)
_cell_angle_alpha                105.25(3)
_cell_angle_beta                 98.02(2)
_cell_angle_gamma                111.25(3)
_cell_volume                     2200.76
loop_
_atom_site_label
_atom_site_type_symbol
_atom_site_fract_x
_atom_site_fract_y
_atom_site_fract_z
Ni1 Ni 0.5000 1.0000 0.5000
Ni2 Ni 0.0000 0.0000 0.0000
Ni3 Ni 0.53879(4) 0.48684(4) 0.25151(3)
C1 C 0.2278(4) 0.9174(5) 0.4843(5)
H1 H 0.1519 0.9001 0.4412
H2 H 0.2321 0.9677 0.5446
C2 C 0.2216(4) 0.8128(4) 0.4981(3)
C3 C 0.3240(4) 0.8214(6) 0.5656(5)
H3 H 0.3289 0.8693 0.6273
H4 H 0.3068 0.7476 0.5695
C4 C 0.2059(6) 0.7275(5) 0.4029(4)
H5 H 0.2022 0.7598 0.3540
H6 H 0.1323 0.6618 0.3886
H7 H 0.2734 0.7075 0.4064
C5 C 0.1089(5) 0.7611(7) 0.5320(6)
H8 H 0.0416 0.7672 0.4971
H9 H 0.1243 0.8001 0.5982
H10 H 0.0905 0.6835 0.5218
N1 N 0.3248(3) 0.9781(3) 0.4490(3)
H11 H 0.3262 1.0467 0.4587
H12 H 0.3041 0.9436 0.3859
N2 N 0.4415(3) 0.8636(3) 0.5476(3)
H13 H 0.4458 0.8060 0.5048
H14 H 0.4966 0.8813 0.6016
C6 C 0.1212(4) -0.1630(3) 0.0135(4)
H15 H 0.1990 -0.1666 0.0269
H16 H 0.0775 -0.2127 -0.0508
C7 C 0.0523(4) -0.2050(3) 0.0790(3)
C8 C -0.0740(4) -0.2122(3) 0.0554(4)
H17 H -0.1123 -0.2581 -0.0106
H18 H -0.1193 -0.2505 0.0930
C9 C 0.1152(5) -0.1298(6) 0.1825(3)
H19 H 0.1150 -0.0574 0.1916
H20 H 0.1973 -0.1219 0.1976
H21 H 0.0728 -0.1630 0.2232
C10 C 0.0451(6) -0.3229(4) 0.0680(5)
H22 H 0.0288 -0.3643 0.0022
H23 H -0.0188 -0.3611 0.0931
H24 H 0.1207 -0.3169 0.1018
N3 N 0.1419(3) -0.0491(3) 0.0187(3)
H25 H 0.1826 -0.0338 -0.0244
H26 H 0.1925 -0.0036 0.0759
N4 N -0.0846(3) -0.1058(3) 0.0706(3)
H27 H -0.0560 -0.0668 0.1331
H28 H -0.1641 -0.1214 0.0552
C11 C 0.7925(4) 0.4348(4) 0.2547(3)
C12 C 0.7867(12) 0.5169(12) 0.2105(11)
H29 H 0.8674 0.5767 0.2291
H30 H 0.7670 0.4807 0.1425
C13 C 0.6774(7) 0.3400(7) 0.2414(7)
H31 H 0.6401 0.3023 0.1740
H32 H 0.6952 0.2872 0.2663
C14 C 0.8419(10) 0.4940(10) 0.3629(4)
H33 H 0.7926 0.5308 0.3858
H34 H 0.9238 0.5485 0.3773
H35 H 0.8398 0.4397 0.3928
C15 C 0.8884(14) 0.3903(19) 0.2362(16)
H36 H 0.8612 0.3369 0.1732
H37 H 0.9009 0.3547 0.2811
H38 H 0.9631 0.4514 0.2426
N5 N 0.7037(3) 0.5685(3) 0.2290(3)
H39 H 0.6889 0.5914 0.1800
H40 H 0.7447 0.6308 0.2802
N6 N 0.5900(3) 0.3683(3) 0.2855(2)
H41 H 0.6206 0.3932 0.3487
H42 H 0.5226 0.3048 0.2707
C16 C 0.3787(3) 0.4777(3) 0.3734(2)
N7 N 0.3803(3) 0.4206(2) 0.28696(19)
C17 C 0.2822(3) 0.3301(3) 0.2339(2)
H43 H 0.2834 0.2905 0.1741
C18 C 0.1805(3) 0.2927(3) 0.2629(2)
C19 C 0.1781(3) 0.3549(3) 0.3515(3)
H44 H 0.1084 0.3319 0.3724
C20 C 0.2785(3) 0.4498(3) 0.4077(3)
H45 H 0.2783 0.4931 0.4664
C21 C 0.4960(3) 0.5767(3) 0.4324(2)
C22 C 0.0768(3) 0.1840(3) 0.2003(3)
O1 O 0.5818(2) 0.5884(2) 0.39442(17)
O2 O 0.4987(2) 0.6362(2) 0.51062(17)
O3 O 0.0932(2) 0.1374(2) 0.1229(2)
O4 O -0.0113(3) 0.1505(3) 0.2299(2)
C23 C 0.4217(3) 0.5531(3) 0.1140(2)
N8 N 0.4787(3) 0.5941(2) 0.20644(19)
C24 C 0.4891(3) 0.6947(3) 0.2576(2)
H46 H 0.5295 0.7230 0.3215
C25 C 0.4436(4) 0.7596(3) 0.2217(3)
C26 C 0.3869(4) 0.7171(4) 0.1272(3)
H47 H 0.3565 0.7582 0.0994
C27 C 0.3748(4) 0.6124(4) 0.0728(3)
H48 H 0.3350 0.5828 0.0087
C28 C 0.4143(3) 0.4381(3) 0.0606(3)
C29 C 0.4576(4) 0.8713(3) 0.2877(3)
O5 O 0.4644(2) 0.3942(2) 0.10753(17)
O6 O 0.3604(2) 0.3933(2) -0.02580(17)
O7 O 0.4935(3) 0.8881(3) 0.3746(2)
O8 O 0.4301(4) 0.9348(3) 0.2541(2)
Ni2_2 Ni 1.0000 2.0000 1.0000
Ni3A Ni 0.46121(4) 1.51316(4) 0.74849(3)
C1A C 0.7722(4) 1.0826(5) 0.5157(5)
H1A H 0.8481 1.0999 0.5588
H2A H 0.7679 1.0323 0.4554
C2A C 0.7784(4) 1.1872(4) 0.5019(3)
C3A C 0.6760(4) 1.1786(6) 0.4344(5)
H3A H 0.6711 1.1307 0.3727
H4A H 0.6932 1.2524 0.4305
C4A C 0.7941(6) 1.2725(5) 0.5971(4)
H5A H 0.7978 1.2402 0.6460
H6A H 0.8677 1.3382 0.6114
H7A H 0.7266 1.2925 0.5936
C5A C 0.8911(5) 1.2389(7) 0.4680(6)
H8A H 0.9584 1.2328 0.5029
H9A H 0.8757 1.1999 0.4018
H10A H 0.9095 1.3165 0.4782
N1A N 0.6752(3) 1.0219(3) 0.5510(3)
H11A H 0.6738 0.9533 0.5413
H12A H 0.6959 1.0564 0.6141
N2A N 0.5585(3) 1.1364(3) 0.4524(3)
H13A H 0.5542 1.1940 0.4952
H14A H 0.5034 1.1187 0.3984
C6A C -0.1212(4) 0.1630(3) -0.0135(4)
H15A H -0.1990 0.1666 -0.0269
H16A H -0.0775 0.2127 0.0508
C7A C -0.0523(4) 0.2050(3) -0.0790(3)
C8A C 0.0740(4) 0.2122(3) -0.0554(4)
H17A H 0.1123 0.2581 0.0106
H18A H 0.1193 0.2505 -0.0930
C9A C -0.1152(5) 0.1298(6) -0.1825(3)
H19A H -0.1150 0.0574 -0.1916
H20A H -0.1973 0.1219 -0.1976
H21A H -0.0728 0.1630 -0.2232
C10A C -0.0451(6) 0.3229(4) -0.0680(5)
H22A H -0.0288 0.3643 -0.0022
H23A H 0.0188 0.3611 -0.0931
H24A H -0.1207 0.3169 -0.1018
N3A N -0.1419(3) 0.0491(3) -0.0187(3)
H25A H -0.1826 0.0338 0.0244
H26A H -0.1925 0.0036 -0.0759
N4A N 0.0846(3) 0.1058(3) -0.0706(3)
H27A H 0.0560 0.0668 -0.1331
H28A H 0.1641 0.1214 -0.0552
C11A C 0.2075(4) 1.5652(4) 0.7453(3)
C12A C 0.2133(12) 1.4831(12) 0.7895(11)
H29A H 0.1326 1.4233 0.7709
H30A H 0.2330 1.5193 0.8575
C13A C 0.3226(7) 1.6600(7) 0.7586(7)
H31A H 0.3599 1.6977 0.8260
H32A H 0.3048 1.7128 0.7337
C14A C 0.1581(10) 1.5060(10) 0.6371(4)
H33A H 0.2074 1.4692 0.6142
H34A H 0.0762 1.4515 0.6227
H35A H 0.1602 1.5603 0.6072
C15A C 0.1116(14) 1.6097(19) 0.7638(16)
H36A H 0.1388 1.6631 0.8268
H37A H 0.0991 1.6453 0.7189
H38A H 0.0369 1.5486 0.7574
N5A N 0.2963(3) 1.4315(3) 0.7710(3)
H39A H 0.3111 1.4086 0.8200
H40A H 0.2553 1.3692 0.7198
N6A N 0.4100(3) 1.6317(3) 0.7145(2)
H41A H 0.3794 1.6068 0.6513
H42A H 0.4774 1.6952 0.7293
C16A C 0.6213(3) 1.5223(3) 0.6266(2)
N7A N 0.6197(3) 1.5794(2) 0.71304(19)
C17A C 0.7178(3) 1.6699(3) 0.7661(2)
H43A H 0.7166 1.7095 0.8259
C18A C 0.8195(3) 1.7073(3) 0.7371(2)
C19A C 0.8219(3) 1.6451(3) 0.6485(3)
H44A H 0.8916 1.6681 0.6276
C20A C 0.7215(3) 1.5502(3) 0.5923(3)
H45A H 0.7217 1.5069 0.5336
C21A C 0.5040(3) 1.4233(3) 0.5676(2)
C22A C 0.9232(3) 1.8160(3) 0.7997(3)
O1A O 0.4182(2) 1.4116(2) 0.60558(17)
O2A O 0.5013(2) 1.3638(2) 0.48938(17)
O3A O 0.9068(2) 1.8626(2) 0.8771(2)
O3A_2 O -0.0932(2) -0.1374(2) -0.1229(2)
O4A O 1.0113(3) 1.8495(3) 0.7701(2)
C23A C 0.5783(3) 1.4469(3) 0.8860(2)
N8A N 0.5213(3) 1.4059(2) 0.79356(19)
C24A C 0.5109(3) 1.3053(3) 0.7424(2)
H46A H 0.4705 1.2770 0.6785
C25A C 0.5564(4) 1.2404(3) 0.7783(3)
C26A C 0.6131(4) 1.2829(4) 0.8728(3)
H47A H 0.6435 1.2418 0.9006
C27A C 0.6252(4) 1.3876(4) 0.9272(3)
H48A H 0.6650 1.4172 0.9913
C28A C 0.5857(3) 1.5619(3) 0.9394(3)
C29A C 0.5424(4) 1.1287(3) 0.7123(3)
O5A O 0.5356(2) 1.6058(2) 0.89247(17)
O6A O 0.6396(2) 1.6067(2) 1.02580(17)
O7A O 0.5065(3) 1.1119(3) 0.6254(2)
O8A O 0.5699(4) 1.0652(3) 0.7459(2)
O9 O 0.2874(4) 0.1899(4) 0.8222(3)
O10 O 0.6800(3) 0.8342(3) 0.6318(2)
O11 O 0.6088(4) 0.8852(3) 0.7944(3)
O12 O 0.6150(5) 0.8356(3) 0.9608(3)
O13 O 0.1007(5) 0.1392(4) 0.6761(4)
O14 O 0.9254(3) 0.9186(3) 0.6268(2)
O15 O 0.1872(12) 0.2494(8) 0.5574(9)
O16 O 0.7536(16) 0.0159(15) 0.2079(14)
O17 O 0.5439(15) -0.0230(15) 0.0975(12)
O18? O 0.440(3) -0.096(3) -0.002(2)
C30? C 0.8102(7) 0.5487(9) 0.2553(12)
C31? C 0.7189(5) 0.3965(10) 0.3154(7)
C32? C 0.7372(10) 0.3549(8) 0.1512(4)
C33? C 0.9201(11) 0.441(2) 0.2845(15)
H49? H 0.8558 0.6008 0.3185
H50? H 0.8604 0.5675 0.2130
H51? H 0.7261 0.6419 0.2593
H52? H 0.6896 0.5585 0.1668
H53? H 0.5556 0.3051 0.2348
H54? H 0.5571 0.3529 0.3324
H55? H 0.7516 0.4543 0.3774
H56? H 0.7275 0.3309 0.3227
H57? H 0.6531 0.3398 0.1325
H58? H 0.7450 0.2861 0.1458
H59? H 0.7792 0.3892 0.1109
H60? H 0.9439 0.4600 0.3520
H61? H 0.9761 0.4966 0.2658
H62? H 0.9200 0.3692 0.2545
O19? O 0.7454(9) 0.0318(9) 0.1592(8)
O20? O 0.540(3) 0.036(3) 0.156(2)
loop_
_geom_bond_atom_site_label_1
_geom_bond_atom_site_label_2
_geom_bond_site_symmetry_1
_geom_bond_site_symmetry_2
Ni1 N1 1_555 1_555
Ni2 N3 1_555 1_555
Ni3 N5 1_555 1_555
C1 H1 1_555 1_555
H2 C1 1_555 1_555
C2 C1 1_555 1_555
C3 C2 1_555 1_555
H3 C3 1_555 1_555
H4 C3 1_555 1_555
C4 C2 1_555 1_555
H5 C4 1_555 1_555
H6 C4 1_555 1_555
H7 C4 1_555 1_555
C5 C2 1_555 1_555
H8 C5 1_555 1_555
H9 C5 1_555 1_555
H10 C5 1_555 1_555
N1 C1 1_555 1_555
H11 N1 1_555 1_555
H12 N1 1_555 1_555
N2 Ni1 1_555 1_555
H13 N2 1_555 1_555
H14 N2 1_555 1_555
C6 H15 1_555 1_555
H16 C6 1_555 1_555
C7 C6 1_555 1_555
C8 C7 1_555 1_555
H17 C8 1_555 1_555
H18 C8 1_555 1_555
C9 C7 1_555 1_555
H19 C9 1_555 1_555
H20 C9 1_555 1_555
H21 C9 1_555 1_555
C10 C7 1_555 1_555
H22 C10 1_555 1_555
H23 C10 1_555 1_555
H24 C10 1_555 1_555
N3 C6 1_555 1_555
H25 N3 1_555 1_555
H26 N3 1_555 1_555
N4 Ni2 1_555 1_555
H27 N4 1_555 1_555
H28 N4 1_555 1_555
C11 C12 1_555 1_555
C12 H29 1_555 1_555
H30 C12 1_555 1_555
C13 C11 1_555 1_555
H31 C13 1_555 1_555
H32 C13 1_555 1_555
C14 C11 1_555 1_555
H33 C14 1_555 1_555
H34 C14 1_555 1_555
H35 C14 1_555 1_555
C15 C11 1_555 1_555
H36 C15 1_555 1_555
H37 C15 1_555 1_555
H38 C15 1_555 1_555
N5 C12 1_555 1_555
H39 N5 1_555 1_555
H40 N5 1_555 1_555
N6 Ni3 1_555 1_555
H41 N6 1_555 1_555
H42 N6 1_555 1_555
C16 N7 1_555 1_555
N7 Ni3 1_555 1_555
C17 N7 1_555 1_555
H43 C17 1_555 1_555
C18 C17 1_555 1_555
C19 C18 1_555 1_555
H44 C19 1_555 1_555
C20 C16 1_555 1_555
H45 C20 1_555 1_555
C21 C16 1_555 1_555
C22 C18 1_555 1_555
O1 Ni3 1_555 1_555
O2 C21 1_555 1_555
O3 Ni2 1_555 1_555
O4 C22 1_555 1_555
C23 N8 1_555 1_555
N8 Ni3 1_555 1_555
C24 N8 1_555 1_555
H46 C24 1_555 1_555
C25 C24 1_555 1_555
C26 C25 1_555 1_555
H47 C26 1_555 1_555
C27 C23 1_555 1_555
H48 C27 1_555 1_555
C28 C23 1_555 1_555
C29 C25 1_555 1_555
O5 Ni3 1_555 1_555
O6 C28 1_555 1_555
O7 Ni1 1_555 1_555
O8 C29 1_555 1_555
Ni2_2 O3A 1_555 1_555
Ni3A N5A 1_555 1_555
C1A H1A 1_555 1_555
H2A C1A 1_555 1_555
C2A C1A 1_555 1_555
C3A C2A 1_555 1_555
H3A C3A 1_555 1_555
H4A C3A 1_555 1_555
C4A C2A 1_555 1_555
H5A C4A 1_555 1_555
H6A C4A 1_555 1_555
H7A C4A 1_555 1_555
C5A C2A 1_555 1_555
H8A C5A 1_555 1_555
H9A C5A 1_555 1_555
H10A C5A 1_555 1_555
N1A Ni1 1_555 1_555
H11A N1A 1_555 1_555
H12A N1A 1_555 1_555
N2A Ni1 1_555 1_555
H13A N2A 1_555 1_555
H14A N2A 1_555 1_555
C6A H15A 1_555 1_555
H16A C6A 1_555 1_555
C7A C6A 1_555 1_555
C8A C7A 1_555 1_555
H17A C8A 1_555 1_555
H18A C8A 1_555 1_555
C9A C7A 1_555 1_555
H19A C9A 1_555 1_555
H20A C9A 1_555 1_555
H21A C9A 1_555 1_555
C10A C7A 1_555 1_555
H22A C10A 1_555 1_555
H23A C10A 1_555 1_555
H24A C10A 1_555 1_555
N3A Ni2 1_555 1_555
H25A N3A 1_555 1_555
H26A N3A 1_555 1_555
N4A Ni2 1_555 1_555
H27A N4A 1_555 1_555
H28A N4A 1_555 1_555
C11A C12A 1_555 1_555
C12A H29A 1_555 1_555
H30A C12A 1_555 1_555
C13A C11A 1_555 1_555
H31A C13A 1_555 1_555
H32A C13A 1_555 1_555
C14A C11A 1_555 1_555
H33A C14A 1_555 1_555
H34A C14A 1_555 1_555
H35A C14A 1_555 1_555
C15A C11A 1_555 1_555
H36A C15A 1_555 1_555
H37A C15A 1_555 1_555
H38A C15A 1_555 1_555
N5A C12A 1_555 1_555
H39A N5A 1_555 1_555
H40A N5A 1_555 1_555
N6A Ni3A 1_555 1_555
H41A N6A 1_555 1_555
H42A N6A 1_555 1_555
C16A N7A 1_555 1_555
N7A Ni3A 1_555 1_555
C17A N7A 1_555 1_555
H43A C17A 1_555 1_555
C18A C17A 1_555 1_555
C19A C18A 1_555 1_555
H44A C19A 1_555 1_555
C20A C16A 1_555 1_555
H45A C20A 1_555 1_555
C21A C16A 1_555 1_555
C22A C18A 1_555 1_555
O1A Ni3A 1_555 1_555
O2A C21A 1_555 1_555
O3A C22A 1_555 1_555
O3A_2 Ni2 1_555 1_555
O4A C22A 1_555 1_555
C23A N8A 1_555 1_555
N8A Ni3A 1_555 1_555
C24A N8A 1_555 1_555
H46A C24A 1_555 1_555
C25A C24A 1_555 1_555
C26A C25A 1_555 1_555
H47A C26A 1_555 1_555
C27A C23A 1_555 1_555
H48A C27A 1_555 1_555
C28A C23A 1_555 1_555
C29A C25A 1_555 1_555
O5A Ni3A 1_555 1_555
O6A C28A 1_555 1_555
O7A Ni1 1_555 1_555
O8A C29A 1_555 1_555
C3 N2 1_555 1_555
C8 N4 1_555 1_555
C13 N6 1_555 1_555
C19 C20 1_555 1_555
C21 O1 1_555 1_555
C22 O3 1_555 1_555
C26 C27 1_555 1_555
C28 O5 1_555 1_555
C29 O7 1_555 1_555
C1A N1A 1_555 1_555
C3A N2A 1_555 1_555
C6A N3A 1_555 1_555
C8A N4A 1_555 1_555
C13A N6A 1_555 1_555
C19A C20A 1_555 1_555
C21A O1A 1_555 1_555
C26A C27A 1_555 1_555
C28A O5A 1_555 1_555
C29A O7A 1_555 1_555

#END
