
#######################################################################
#
#                 Cambridge Crystallographic Data Centre
#                                CCDC 
#
#######################################################################
#
# If this CIF has been generated from an entry in the Cambridge 
# Structural Database, then it will include bibliographic, chemical, 
# crystal, experimental, refinement or atomic coordinate data resulting 
# from the CCDC's data processing and validation procedures.
#
#######################################################################

data_FOTWUI
_symmetry_cell_setting           triclinic
_symmetry_space_group_name_H-M   'P -1'
_symmetry_Int_Tables_number      2
_space_group_name_Hall           '-P 1'
loop_
_symmetry_equiv_pos_site_id
_symmetry_equiv_pos_as_xyz
1 x,y,z
2 -x,-y,-z
_cell_length_a                   11.928(5)
_cell_length_b                   12.117(5)
_cell_length_c                   18.608(5)
_cell_angle_alpha                94.672(5)
_cell_angle_beta                 107.070(5)
_cell_angle_gamma                110.939(5)
_cell_volume                     2348.29
loop_
_atom_site_label
_atom_site_type_symbol
_atom_site_fract_x
_atom_site_fract_y
_atom_site_fract_z
P1 P 0.87958(13) 0.70294(12) 1.24011(8)
Mo1 Mo 1.00578(5) 0.98751(5) 1.36797(3)
Mo2 Mo 0.75751(6) 0.42711(5) 1.10473(3)
Mo3 Mo 0.60908(5) 0.46197(5) 1.24840(3)
Mo4 Mo 1.18884(5) 0.70114(5) 1.31497(3)
Mo5 Mo 0.93089(5) 0.45571(5) 1.30942(3)
Mo6 Mo 0.71439(5) 0.73584(5) 1.36596(3)
Mo7 Mo 0.84788(6) 0.96186(5) 1.17829(3)
Mo8 Mo 1.14126(5) 0.95471(5) 1.23433(3)
Mo9 Mo 1.03076(5) 0.71903(5) 1.43721(3)
Mo10 Mo 0.73692(6) 0.67786(6) 1.04029(3)
Mo11 Mo 0.56820(5) 0.69780(6) 1.17364(3)
Mo12 Mo 1.02592(6) 0.65692(6) 1.10757(3)
O1 O 0.7500(4) 0.6655(3) 1.2521(2)
O2 O 0.8595(4) 0.6427(3) 1.1586(2)
O3 O 0.9674(4) 0.6622(3) 1.2995(2)
O4 O 0.9413(4) 0.8405(3) 1.2501(2)
O5 O 0.6557(5) 0.6809(5) 0.9513(3)
O6 O 1.1258(5) 0.6568(4) 1.0600(3)
O7 O 1.3394(4) 0.7098(4) 1.3347(3)
O8 O 0.8942(5) 0.6846(4) 1.0290(3)
O9 O 0.4313(4) 0.7136(4) 1.1304(3)
O10 O 0.5888(4) 0.7473(4) 1.2818(2)
O11 O 0.6994(5) 0.2836(4) 1.0584(3)
O12 O 0.9265(4) 0.3224(4) 1.3287(3)
O13 O 1.0512(5) 1.1023(4) 1.4401(3)
O14 O 1.0889(4) 0.8298(4) 1.1520(3)
O15 O 0.6144(4) 0.6546(4) 1.0911(2)
O16 O 0.6188(4) 0.5589(4) 1.3365(2)
O17 O 0.6665(5) 0.7650(4) 1.4387(3)
O18 O 0.8033(5) 1.0632(4) 1.1366(3)
O19 O 0.9125(4) 1.0408(4) 1.2831(3)
O20 O 1.1026(4) 0.5307(4) 1.3169(2)
O21 O 1.0938(5) 0.7466(5) 1.5335(2)
O22 O 1.1156(4) 0.6476(4) 1.2050(2)
O23 O 1.1423(4) 1.0374(4) 1.3310(3)
O24 O 0.6902(5) 0.5007(4) 1.0271(2)
O25 O 0.6449(4) 0.4258(4) 1.1557(2)
O26 O 0.7593(4) 0.4440(4) 1.3010(2)
O27 O 0.4946(4) 0.3304(4) 1.2454(3)
O28 O 1.1858(4) 0.7355(4) 1.4150(2)
O29 O 0.5063(4) 0.5376(4) 1.1878(2)
O30 O 0.6954(4) 0.8571(4) 1.1872(3)
O31 O 1.2793(5) 1.0551(4) 1.2332(3)
O32 O 0.8691(4) 0.4226(4) 1.2025(2)
O33 O 0.8365(4) 0.8849(4) 1.3677(2)
O34 O 1.2015(4) 0.8536(4) 1.2984(3)
O35 O 0.9844(4) 0.5485(4) 1.4148(2)
O36 O 1.0601(4) 0.8768(4) 1.4164(2)
O37 O 0.8598(4) 0.6957(4) 1.4169(2)
O38 O 0.9166(5) 0.4933(4) 1.0817(3)
O39 O 0.8106(4) 0.8383(4) 1.0905(2)
O40 O 1.0243(4) 1.0184(4) 1.1820(3)
Ag1 Ag 1.05243(6) 0.75291(7) 0.92574(4)
Ag2 Ag 1.0000 1.0000 1.0000
Ag3 Ag 0.76593(7) 0.48226(6) 0.91529(3)
C1 C 1.3180(7) 0.9179(7) 1.0536(4)
H1 H 1.3548 0.8625 1.0507
C2 C 1.3813(6) 1.0313(5) 1.0952(3)
C3 C 1.2949(9) 1.0776(7) 1.0851(4)
H2 H 1.3113 1.1557 1.1077
C4 C 1.5148(8) 1.0928(8) 1.1451(5)
H3 H 1.5348 1.1781 1.1602
H4 H 1.5694 1.0853 1.1170
C5 C 1.5424(7) 1.0405(7) 1.2166(5)
H5 H 1.4779 1.0334 1.2398
H6 H 1.5402 0.9606 1.2030
C6 C 1.6715(7) 1.1219(7) 1.2724(5)
H7 H 1.6687 1.1972 1.2920
H8 H 1.7328 1.1404 1.2459
C7 C 1.7139(6) 1.0676(7) 1.3366(4)
H9 H 1.7966 1.1230 1.3712
H10 H 1.7194 0.9943 1.3175
H11 H 1.6538 1.0498 1.3632
C8 C 0.7055(6) 0.5461(6) 0.7460(4)
H12 H 0.6249 0.4831 0.7259
C9 C 0.7547(5) 0.6296(5) 0.7074(3)
C10 C 0.8710(7) 0.7025(6) 0.7568(4)
H13 H 0.9279 0.7693 0.7463
C11 C 0.6925(9) 0.6469(8) 0.6311(4)
H14 H 0.6981 0.7291 0.6349
H15 H 0.6027 0.5926 0.6119
C12 C 0.7609(10) 0.6203(10) 0.5720(6)
H16 H 0.7580 0.6720 0.5349
H17 H 0.8499 0.6377 0.6001
C13 C 0.6966(10) 0.4981(10) 0.5337(6)
H18 H 0.6095 0.4821 0.5021
H19 H 0.6936 0.4463 0.5708
C14 C 0.7694(7) 0.4726(7) 0.4832(4)
H20 H 0.7280 0.3891 0.4574
H21 H 0.8558 0.4899 0.5149
H22 H 0.7699 0.5227 0.4458
N1 N 1.1835(7) 0.9997(6) 1.0392(4)
N2 N 1.1999(6) 0.8960(6) 1.0185(3)
N3 N 0.8933(5) 0.6665(5) 0.8220(3)
N4 N 0.7862(5) 0.5656(5) 0.8150(3)
P1A P 0.12042(13) 0.29706(12) 0.75989(8)
Mo1A Mo -0.00578(5) 0.01249(5) 0.63203(3)
Mo2A Mo 0.24249(6) 0.57289(5) 0.89527(3)
Mo3A Mo 0.39092(5) 0.53803(5) 0.75160(3)
Mo4A Mo -0.18884(5) 0.29886(5) 0.68503(3)
Mo5A Mo 0.06911(5) 0.54429(5) 0.69058(3)
Mo6A Mo 0.28561(5) 0.26416(5) 0.63404(3)
Mo7A Mo 0.15212(6) 0.03814(5) 0.82171(3)
Mo8A Mo -0.14126(5) 0.04529(5) 0.76567(3)
Mo9A Mo -0.03076(5) 0.28097(5) 0.56279(3)
Mo10A Mo 0.26308(6) 0.32214(6) 0.95971(3)
Mo11A Mo 0.43180(5) 0.30220(6) 0.82636(3)
Mo12A Mo -0.02592(6) 0.34308(6) 0.89243(3)
O1A O 0.2500(4) 0.3345(3) 0.7479(2)
O2A O 0.1405(4) 0.3573(3) 0.8414(2)
O3A O 0.0326(4) 0.3378(3) 0.7005(2)
O4A O 0.0587(4) 0.1595(3) 0.7499(2)
O5A O 0.3443(5) 0.3191(5) 1.0487(3)
O6A O -0.1258(5) 0.3432(4) 0.9400(3)
O7A O -0.3394(4) 0.2902(4) 0.6653(3)
O8A O 0.1058(5) 0.3154(4) 0.9710(3)
O9A O 0.5687(4) 0.2864(4) 0.8696(3)
O10A O 0.4112(4) 0.2527(4) 0.7182(2)
O11A O 0.3006(5) 0.7164(4) 0.9416(3)
O12A O 0.0735(4) 0.6776(4) 0.6713(3)
O13A O -0.0512(5) -0.1023(4) 0.5599(3)
O14A O -0.0889(4) 0.1702(4) 0.8480(3)
O15A O 0.3856(4) 0.3454(4) 0.9089(2)
O16A O 0.3812(4) 0.4411(4) 0.6635(2)
O17A O 0.3335(5) 0.2350(4) 0.5613(3)
O18A O 0.1967(5) -0.0632(4) 0.8634(3)
O19A O 0.0875(4) -0.0408(4) 0.7169(3)
O20A O -0.1026(4) 0.4693(4) 0.6831(2)
O21A O -0.0938(5) 0.2534(5) 0.4665(2)
O22A O -0.1156(4) 0.3524(4) 0.7950(2)
O23A O -0.1423(4) -0.0374(4) 0.6690(3)
O24A O 0.3098(5) 0.4993(4) 0.9729(2)
O25A O 0.3551(4) 0.5742(4) 0.8443(2)
O26A O 0.2407(4) 0.5560(4) 0.6990(2)
O27A O 0.5054(4) 0.6696(4) 0.7546(3)
O28A O -0.1858(4) 0.2645(4) 0.5850(2)
O29A O 0.4937(4) 0.4624(4) 0.8122(2)
O30A O 0.3046(4) 0.1429(4) 0.8128(3)
O31A O -0.2793(5) -0.0551(4) 0.7668(3)
O32A O 0.1309(4) 0.5774(4) 0.7975(2)
O33A O 0.1635(4) 0.1151(4) 0.6323(2)
O34A O -0.2015(4) 0.1464(4) 0.7016(3)
O35A O 0.0156(4) 0.4515(4) 0.5852(2)
O36A O -0.0601(4) 0.1232(4) 0.5836(2)
O37A O 0.1402(4) 0.3043(4) 0.5831(2)
O38A O 0.0834(5) 0.5067(4) 0.9183(3)
O39A O 0.1894(4) 0.1617(4) 0.9095(2)
O40A O -0.0243(4) -0.0184(4) 0.8180(3)
Ag1A Ag -0.05243(6) 0.24709(7) 1.07426(4)
Ag3A Ag 0.23407(7) 0.51774(6) 1.08471(3)
C1A C -0.3180(7) 0.0821(7) 0.9464(4)
H1A H -0.3548 0.1375 0.9493
C2A C -0.3813(6) -0.0313(5) 0.9048(3)
C3A C -0.2949(9) -0.0776(7) 0.9149(4)
H2A H -0.3113 -0.1557 0.8923
C4A C -0.5148(8) -0.0928(8) 0.8549(5)
H3A H -0.5348 -0.1781 0.8398
H4A H -0.5694 -0.0853 0.8830
C5A C -0.5424(7) -0.0405(7) 0.7834(5)
H5A H -0.4779 -0.0334 0.7602
H6A H -0.5402 0.0394 0.7970
C6A C -0.6715(7) -0.1219(7) 0.7276(5)
H7A H -0.6687 -0.1972 0.7080
H8A H -0.7328 -0.1404 0.7541
C7A C -0.7139(6) -0.0676(7) 0.6634(4)
H9A H -0.7966 -0.1230 0.6288
H10A H -0.7194 0.0057 0.6825
H11A H -0.6538 -0.0498 0.6368
C8A C 0.2945(6) 0.4539(6) 1.2540(4)
H12A H 0.3751 0.5169 1.2741
C9A C 0.2453(5) 0.3704(5) 1.2926(3)
C10A C 0.1290(7) 0.2975(6) 1.2432(4)
H13A H 0.0721 0.2307 1.2537
C11A C 0.3075(9) 0.3531(8) 1.3689(4)
H14A H 0.3019 0.2709 1.3651
H15A H 0.3973 0.4074 1.3881
C12A C 0.2391(10) 0.3797(10) 1.4280(6)
H16A H 0.2420 0.3280 1.4651
H17A H 0.1501 0.3623 1.3999
C13A C 0.3034(10) 0.5019(10) 1.4663(6)
H18A H 0.3905 0.5179 1.4979
H19A H 0.3064 0.5537 1.4292
C14A C 0.2306(7) 0.5274(7) 1.5168(4)
H20A H 0.2720 0.6109 1.5426
H21A H 0.1442 0.5101 1.4851
H22A H 0.2301 0.4773 1.5542
N1A N -0.1835(7) 0.0003(6) 0.9608(4)
N2A N -0.1999(6) 0.1040(6) 0.9815(3)
N3A N 0.1067(5) 0.3335(5) 1.1780(3)
N4A N 0.2138(5) 0.4344(5) 1.1850(3)
O6_2 O 0.1258(5) 0.6568(4) 1.0600(3)
O6A_2 O 0.8742(5) 0.3432(4) 0.9400(3)
Ag2_2 Ag 0.0000 0.0000 1.0000
Ag3_2 Ag -0.23407(7) 0.48226(6) 0.91529(3)
Ag3A_2 Ag 1.23407(7) 0.51774(6) 1.08471(3)
N1A_2 N 0.8165(7) 1.0003(6) 0.9608(4)
O41 O 1.3923(6) 1.0707(6) 1.4400(4)
O42 O 1.5315(6) 0.9467(6) 1.4017(4)
O43 O 1.5686(11) 1.2469(10) 1.3954(6)
loop_
_geom_bond_atom_site_label_1
_geom_bond_atom_site_label_2
_geom_bond_site_symmetry_1
_geom_bond_site_symmetry_2
P1 O1 1_555 1_555
Mo1 O4 1_555 1_555
Mo2 O2 1_555 1_555
Mo3 O1 1_555 1_555
Mo4 O3 1_555 1_555
Mo5 O3 1_555 1_555
Mo6 O1 1_555 1_555
Mo7 O4 1_555 1_555
Mo8 O4 1_555 1_555
Mo9 O3 1_555 1_555
Mo10 O2 1_555 1_555
Mo11 O1 1_555 1_555
Mo12 O2 1_555 1_555
O2 P1 1_555 1_555
O3 P1 1_555 1_555
O4 P1 1_555 1_555
O5 Mo10 1_555 1_555
O6 Mo12 1_555 1_555
O7 Mo4 1_555 1_555
O8 Mo10 1_555 1_555
O9 Mo11 1_555 1_555
O10 Mo6 1_555 1_555
O11 Mo2 1_555 1_555
O12 Mo5 1_555 1_555
O13 Mo1 1_555 1_555
O14 Mo8 1_555 1_555
O15 Mo10 1_555 1_555
O16 Mo3 1_555 1_555
O17 Mo6 1_555 1_555
O18 Mo7 1_555 1_555
O19 Mo1 1_555 1_555
O20 Mo4 1_555 1_555
O21 Mo9 1_555 1_555
O22 Mo4 1_555 1_555
O23 Mo1 1_555 1_555
O24 Mo2 1_555 1_555
O25 Mo2 1_555 1_555
O26 Mo3 1_555 1_555
O27 Mo3 1_555 1_555
O28 Mo4 1_555 1_555
O29 Mo3 1_555 1_555
O30 Mo7 1_555 1_555
O31 Mo8 1_555 1_555
O32 Mo2 1_555 1_555
O33 Mo1 1_555 1_555
O34 Mo4 1_555 1_555
O35 Mo5 1_555 1_555
O36 Mo1 1_555 1_555
O37 Mo6 1_555 1_555
O38 Mo2 1_555 1_555
O39 Mo7 1_555 1_555
O40 Mo7 1_555 1_555
Ag1 N2 1_555 1_555
Ag2 N1 1_555 1_555
Ag3 Mo10 1_555 1_555
C1 H1 1_555 1_555
C2 C1 1_555 1_555
C3 C2 1_555 1_555
H2 C3 1_555 1_555
C4 C2 1_555 1_555
H3 C4 1_555 1_555
H4 C4 1_555 1_555
C5 C4 1_555 1_555
H5 C5 1_555 1_555
H6 C5 1_555 1_555
C6 C5 1_555 1_555
H7 C6 1_555 1_555
H8 C6 1_555 1_555
C7 C6 1_555 1_555
H9 C7 1_555 1_555
H10 C7 1_555 1_555
H11 C7 1_555 1_555
C8 H12 1_555 1_555
C9 C8 1_555 1_555
C10 C9 1_555 1_555
H13 C10 1_555 1_555
C11 C9 1_555 1_555
H14 C11 1_555 1_555
H15 C11 1_555 1_555
C12 C11 1_555 1_555
H16 C12 1_555 1_555
H17 C12 1_555 1_555
C13 C12 1_555 1_555
H18 C13 1_555 1_555
H19 C13 1_555 1_555
C14 C13 1_555 1_555
H20 C14 1_555 1_555
H21 C14 1_555 1_555
H22 C14 1_555 1_555
N1 C3 1_555 1_555
N2 C1 1_555 1_555
N3 Ag1 1_555 1_555
N4 Ag3 1_555 1_555
P1A O1A 1_555 1_555
Mo1A O4A 1_555 1_555
Mo2A O2A 1_555 1_555
Mo3A O1A 1_555 1_555
Mo4A O3A 1_555 1_555
Mo5A O3A 1_555 1_555
Mo6A O1A 1_555 1_555
Mo7A O4A 1_555 1_555
Mo8A O4A 1_555 1_555
Mo9A O3A 1_555 1_555
Mo10A O2A 1_555 1_555
Mo11A O1A 1_555 1_555
Mo12A O2A 1_555 1_555
O2A P1A 1_555 1_555
O3A P1A 1_555 1_555
O4A P1A 1_555 1_555
O5A Mo10A 1_555 1_555
O6A Mo12A 1_555 1_555
O7A Mo4A 1_555 1_555
O8A Mo10A 1_555 1_555
O9A Ag3 1_555 1_555
O10A Mo6A 1_555 1_555
O11A Mo2A 1_555 1_555
O12A Mo5A 1_555 1_555
O13A Mo1A 1_555 1_555
O14A Mo8A 1_555 1_555
O15A Mo10A 1_555 1_555
O16A Mo3A 1_555 1_555
O17A Mo6A 1_555 1_555
O18A Mo7A 1_555 1_555
O19A Mo1A 1_555 1_555
O20A Mo4A 1_555 1_555
O21A Mo9A 1_555 1_555
O22A Mo4A 1_555 1_555
O23A Mo1A 1_555 1_555
O24A Mo2A 1_555 1_555
O25A Mo2A 1_555 1_555
O26A Mo3A 1_555 1_555
O27A Mo3A 1_555 1_555
O28A Mo4A 1_555 1_555
O29A Mo3A 1_555 1_555
O30A Mo7A 1_555 1_555
O31A Mo8A 1_555 1_555
O32A Mo2A 1_555 1_555
O33A Mo1A 1_555 1_555
O34A Mo4A 1_555 1_555
O35A Mo5A 1_555 1_555
O36A Mo1A 1_555 1_555
O37A Mo6A 1_555 1_555
O38A Mo2A 1_555 1_555
O39A Mo7A 1_555 1_555
O40A Mo7A 1_555 1_555
Ag1A N2A 1_555 1_555
Ag3A O9 1_555 1_555
C1A H1A 1_555 1_555
C2A C1A 1_555 1_555
C3A C2A 1_555 1_555
H2A C3A 1_555 1_555
C4A C2A 1_555 1_555
H3A C4A 1_555 1_555
H4A C4A 1_555 1_555
C5A C4A 1_555 1_555
H5A C5A 1_555 1_555
H6A C5A 1_555 1_555
C6A C5A 1_555 1_555
H7A C6A 1_555 1_555
H8A C6A 1_555 1_555
C7A C6A 1_555 1_555
H9A C7A 1_555 1_555
H10A C7A 1_555 1_555
H11A C7A 1_555 1_555
C8A H12A 1_555 1_555
C9A C8A 1_555 1_555
C10A C9A 1_555 1_555
H13A C10A 1_555 1_555
C11A C9A 1_555 1_555
H14A C11A 1_555 1_555
H15A C11A 1_555 1_555
C12A C11A 1_555 1_555
H16A C12A 1_555 1_555
H17A C12A 1_555 1_555
C13A C12A 1_555 1_555
H18A C13A 1_555 1_555
H19A C13A 1_555 1_555
C14A C13A 1_555 1_555
H20A C14A 1_555 1_555
H21A C14A 1_555 1_555
H22A C14A 1_555 1_555
N1A C3A 1_555 1_555
N2A C1A 1_555 1_555
N3A Ag1A 1_555 1_555
N4A Ag3A 1_555 1_555
O6_2 Ag3A 1_555 1_555
O6A_2 Ag3 1_555 1_555
Ag2_2 N1A 1_555 1_555
Ag3_2 O6A 1_555 1_555
Ag3A_2 O6 1_555 1_555
N1A_2 Ag2 1_555 1_555
Mo3 O25 1_555 1_555
Mo5 O20 1_555 1_555
Mo5 O26 1_555 1_555
Mo5 O32 1_555 1_555
Mo6 O16 1_555 1_555
Mo6 O33 1_555 1_555
Mo7 O19 1_555 1_555
Mo8 O23 1_555 1_555
Mo8 O34 1_555 1_555
Mo8 O40 1_555 1_555
Mo9 O28 1_555 1_555
Mo9 O35 1_555 1_555
Mo9 O36 1_555 1_555
Mo9 O37 1_555 1_555
Mo10 O24 1_555 1_555
Mo10 O39 1_555 1_555
Mo11 O10 1_555 1_555
Mo11 O15 1_555 1_555
Mo11 O29 1_555 1_555
Mo11 O30 1_555 1_555
Mo12 O8 1_555 1_555
Mo12 O14 1_555 1_555
Mo12 O22 1_555 1_555
Mo12 O38 1_555 1_555
O24 Ag3 1_555 1_555
C8 N4 1_555 1_555
C10 N3 1_555 1_555
N1 N2 1_555 1_555
N3 N4 1_555 1_555
Mo3A O25A 1_555 1_555
Mo5A O20A 1_555 1_555
Mo5A O26A 1_555 1_555
Mo5A O32A 1_555 1_555
Mo6A O16A 1_555 1_555
Mo6A O33A 1_555 1_555
Mo7A O19A 1_555 1_555
Mo8A O23A 1_555 1_555
Mo8A O34A 1_555 1_555
Mo8A O40A 1_555 1_555
Mo9A O28A 1_555 1_555
Mo9A O35A 1_555 1_555
Mo9A O36A 1_555 1_555
Mo9A O37A 1_555 1_555
Mo10A O24A 1_555 1_555
Mo10A O39A 1_555 1_555
Mo10A Ag3A 1_555 1_555
Mo11A O9A 1_555 1_555
Mo11A O10A 1_555 1_555
Mo11A O15A 1_555 1_555
Mo11A O29A 1_555 1_555
Mo11A O30A 1_555 1_555
Mo12A O8A 1_555 1_555
Mo12A O14A 1_555 1_555
Mo12A O22A 1_555 1_555
Mo12A O38A 1_555 1_555
O24A Ag3A 1_555 1_555
C8A N4A 1_555 1_555
C10A N3A 1_555 1_555
N1A N2A 1_555 1_555
N3A N4A 1_555 1_555

#END
