
#######################################################################
#
#                 Cambridge Crystallographic Data Centre
#                                CCDC 
#
#######################################################################
#
# If this CIF has been generated from an entry in the Cambridge 
# Structural Database, then it will include bibliographic, chemical, 
# crystal, experimental, refinement or atomic coordinate data resulting 
# from the CCDC's data processing and validation procedures.
#
#######################################################################

data_FOVBUP
_symmetry_cell_setting           monoclinic
_symmetry_space_group_name_H-M   'P 21/c'
_symmetry_Int_Tables_number      14
_space_group_name_Hall           '-P 2ybc'
loop_
_symmetry_equiv_pos_site_id
_symmetry_equiv_pos_as_xyz
1 x,y,z
2 -x,1/2+y,1/2-z
3 -x,-y,-z
4 x,1/2-y,1/2+z
_cell_length_a                   7.8167(9)
_cell_length_b                   17.061(2)
_cell_length_c                   14.6908(14)
_cell_angle_alpha                90
_cell_angle_beta                 118.911(5)
_cell_angle_gamma                90
_cell_volume                     1715.01
loop_
_atom_site_label
_atom_site_type_symbol
_atom_site_fract_x
_atom_site_fract_y
_atom_site_fract_z
Pb1 Pb 0.73130(5) 0.70544(2) 0.19158(3)
Pb2 Pb 0.45019(6) 0.62595(2) 0.38837(3)
C1 C 0.2460(15) 0.5769(6) 0.0581(9)
H1 H 0.3383 0.5370 0.0785
C2 C 0.0764(14) 0.5721(6) -0.0337(9)
H2 H 0.0529 0.5289 -0.0767
C3 C -0.0622(15) 0.6318(6) -0.0636(9)
H3 H -0.1759 0.6299 -0.1275
C4 C -0.0273(14) 0.6944(6) 0.0037(9)
C5 C 0.1495(14) 0.7010(5) 0.0934(8)
C6 C -0.1834(14) 0.7563(6) -0.0227(9)
C7 C 0.2135(14) 0.7682(6) 0.1629(8)
C8 C 0.2862(14) 0.8375(6) 0.1412(9)
C9 C 0.3250(16) 0.9011(6) 0.2062(10)
H4 H 0.3696 0.9473 0.1913
C10 C 0.2998(18) 0.8980(7) 0.2913(11)
H5 H 0.3191 0.9422 0.3323
C11 C 0.2441(16) 0.8266(7) 0.3157(9)
H6 H 0.2418 0.8209 0.3780
C12 C 0.3220(15) 0.8381(6) 0.0495(8)
Cl1 Cl 0.6602(4) 0.59668(17) 0.0552(3)
Cl2 Cl 0.2366(6) 0.4904(3) 0.2957(4)
N1 N 0.2777(11) 0.6397(5) 0.1184(7)
N2 N 0.1939(11) 0.7662(5) 0.2492(7)
O1 O 0.4473(10) 0.6469(4) 0.2070(6)
O2 O 0.1296(11) 0.7001(4) 0.2700(7)
O3 O -0.3008(13) 0.7674(6) -0.1176(7)
O4 O -0.1878(11) 0.7890(4) 0.0516(6)
O5 O 0.4003(11) 0.7805(4) 0.0344(6)
O6 O 0.2732(17) 0.8994(5) -0.0072(8)
O7 O 0.8683(13) 0.5862(6) 0.3060(8)
O8 O 0.8040(17) 0.5548(5) 0.4782(9)
H7 H 0.7806 0.5075 0.4868
H8 H 0.8239 0.5647 0.4274
H9 H 0.9842 0.5923 0.3592
H10 H 0.8794 0.5720 0.2559
Pb1_2 Pb -0.26870(5) 0.70544(2) 0.19158(3)
Pb2C Pb -0.54981(6) 0.87405(2) -0.11163(3)
Pb2C_2 Pb 0.45019(6) 0.87405(2) -0.11163(3)
O2_2 O 1.1296(11) 0.7001(4) 0.2700(7)
O3C O 0.6992(13) 0.7326(6) 0.3824(7)
O4_2 O 0.8122(11) 0.7890(4) 0.0516(6)
O5C O 0.4003(11) 0.7195(4) 0.5344(6)
O6C O 0.2732(17) 0.6006(5) 0.4928(8)
loop_
_geom_bond_atom_site_label_1
_geom_bond_atom_site_label_2
_geom_bond_site_symmetry_1
_geom_bond_site_symmetry_2
Pb1 Cl1 1_555 1_555
Pb2 Cl2 1_555 1_555
C1 H1 1_555 1_555
C2 C1 1_555 1_555
H2 C2 1_555 1_555
C3 C2 1_555 1_555
H3 C3 1_555 1_555
C4 C3 1_555 1_555
C5 C4 1_555 1_555
C6 C4 1_555 1_555
C7 C5 1_555 1_555
C8 C7 1_555 1_555
C9 C8 1_555 1_555
H4 C9 1_555 1_555
C10 C9 1_555 1_555
H5 C10 1_555 1_555
C11 C10 1_555 1_555
H6 C11 1_555 1_555
C12 C8 1_555 1_555
N1 C1 1_555 1_555
N2 C7 1_555 1_555
O1 Pb1 1_555 1_555
O2 Pb2 1_555 1_555
O3 C6 1_555 1_555
O4 C6 1_555 1_555
O5 Pb1 1_555 1_555
O6 C12 1_555 1_555
O7 Pb1 1_555 1_555
O8 Pb2 1_555 1_555
H7 O8 1_555 1_555
H8 O8 1_555 1_555
H9 O7 1_555 1_555
H10 O7 1_555 1_555
Pb1_2 O2 1_555 1_555
Pb2C O3 1_555 1_555
Pb2C_2 O5 1_555 1_555
O2_2 Pb1 1_555 1_555
O3C Pb2 1_555 1_555
O4_2 Pb1 1_555 1_555
O5C Pb2 1_555 1_555
O6C Pb2 1_555 1_555
Pb2 O1 1_555 1_555
C5 N1 1_555 1_555
C11 N2 1_555 1_555
C12 O5 1_555 1_555
N1 O1 1_555 1_555
N2 O2 1_555 1_555
O4 Pb1_2 1_555 1_555
O6 Pb2C_2 1_555 1_555

#END
