
#######################################################################
#
#                 Cambridge Crystallographic Data Centre
#                                CCDC 
#
#######################################################################
#
# If this CIF has been generated from an entry in the Cambridge 
# Structural Database, then it will include bibliographic, chemical, 
# crystal, experimental, refinement or atomic coordinate data resulting 
# from the CCDC's data processing and validation procedures.
#
#######################################################################

data_FOVHIJ
_symmetry_cell_setting           monoclinic
_symmetry_space_group_name_H-M   'P 21/n'
_symmetry_Int_Tables_number      14
_space_group_name_Hall           '-P 2yn'
loop_
_symmetry_equiv_pos_site_id
_symmetry_equiv_pos_as_xyz
1 x,y,z
2 1/2-x,1/2+y,1/2-z
3 -x,-y,-z
4 1/2+x,1/2-y,1/2+z
_cell_length_a                   12.3561(6)
_cell_length_b                   21.0470(11)
_cell_length_c                   12.8683(6)
_cell_angle_alpha                90
_cell_angle_beta                 107.606(3)
_cell_angle_gamma                90
_cell_volume                     3189.76
loop_
_atom_site_label
_atom_site_type_symbol
_atom_site_fract_x
_atom_site_fract_y
_atom_site_fract_z
C1 C 0.3301(5) -0.0388(3) 0.2750(5)
C2 C 0.2809(5) -0.0159(3) 0.1708(5)
H1 H 0.2027 -0.0183 0.1386
C3 C 0.3497(5) 0.0107(3) 0.1152(5)
C4 C 0.4649(5) 0.0151(3) 0.1619(5)
H2 H 0.5100 0.0334 0.1238
C5 C 0.5139(5) -0.0083(3) 0.2672(5)
C6 C 0.4473(5) -0.0352(3) 0.3231(5)
H3 H 0.4801 -0.0511 0.3930
C7 C 0.6415(5) -0.0058(3) 0.3163(5)
C8 C 0.3287(6) 0.1191(4) 0.4017(6)
H4 H 0.3533 0.0771 0.4076
C9 C 0.3790(8) 0.1630(5) 0.3474(7)
H5 H 0.4331 0.1498 0.3152
C10 C 0.3477(8) 0.2241(5) 0.3429(7)
H6 H 0.3811 0.2534 0.3080
C11 C 0.2655(7) 0.2445(4) 0.3896(6)
C12 C 0.2330(8) 0.3091(4) 0.3916(7)
H7 H 0.2654 0.3399 0.3585
C13 C 0.1554(8) 0.3259(4) 0.4411(7)
H8 H 0.1354 0.3685 0.4421
C14 C 0.1032(6) 0.2796(4) 0.4922(6)
C15 C 0.0199(8) 0.2953(4) 0.5409(7)
H9 H -0.0031 0.3373 0.5418
C16 C -0.0274(7) 0.2493(4) 0.5871(7)
H10 H -0.0815 0.2593 0.6214
C17 C 0.0068(6) 0.1871(4) 0.5816(6)
H11 H -0.0262 0.1558 0.6132
C18 C 0.1320(6) 0.2158(3) 0.4898(5)
C19 C 0.2168(5) 0.1969(3) 0.4393(5)
C20 C -0.0143(7) 0.1306(4) 0.0855(6)
H12 H -0.0087 0.0906 0.0568
C21 C 0.0465(7) 0.1802(4) 0.0598(7)
H13 H 0.0964 0.1722 0.0198
C22 C 0.0339(7) 0.2395(4) 0.0920(7)
H14 H 0.0731 0.2731 0.0730
C23 C -0.0399(6) 0.2504(3) 0.1556(6)
C24 C -0.0625(7) 0.3121(4) 0.1886(6)
H15 H -0.0274 0.3471 0.1686
C25 C -0.1337(7) 0.3210(4) 0.2483(6)
H16 H -0.1477 0.3619 0.2682
C26 C -0.1875(6) 0.2685(3) 0.2811(5)
C27 C -0.2598(7) 0.2755(4) 0.3475(6)
H17 H -0.2772 0.3156 0.3682
C28 C -0.3030(7) 0.2228(4) 0.3801(6)
H18 H -0.3525 0.2266 0.4217
C29 C -0.2736(6) 0.1626(4) 0.3514(6)
H19 H -0.3025 0.1271 0.3770
C30 C -0.1643(5) 0.2066(3) 0.2537(5)
C31 C -0.0930(5) 0.1972(3) 0.1835(5)
N1 N 0.2480(4) 0.1354(3) 0.4444(4)
N2 N 0.0833(4) 0.1690(3) 0.5346(4)
N3 N -0.0805(4) 0.1374(3) 0.1495(4)
N4 N -0.2054(4) 0.1535(3) 0.2886(4)
O1 O 0.2186(5) -0.0197(3) 0.4114(5)
O2 O 0.3146(4) -0.1199(3) 0.4211(5)
O3 O 0.1449(4) -0.0973(2) 0.2731(4)
O4 O 0.2458(4) -0.0219(2) -0.0836(3)
O5 O 0.1920(4) 0.0771(2) -0.0197(4)
O6 O 0.3743(4) 0.0699(2) -0.0537(4)
O7 O 0.6945(3) 0.0328(2) 0.2748(3)
O8 O 0.6855(3) -0.0427(2) 0.3940(3)
O9 O -0.0788(3) 0.04664(18) 0.4528(3)
H20 H -0.1152 0.0806 0.4823
O10 O 0.0473(3) 0.0738(2) 0.3345(3)
H21 H 0.0879 0.0939 0.2938
O11 O -0.1128(3) -0.05298(19) 0.3246(3)
H22 H -0.1018 -0.0889 0.2868
O12 O -0.0175(4) -0.0101(2) 0.1582(3)
H23 H 0.0608 -0.0047 0.1777
H24 H -0.0537 -0.0368 0.1005
S1 S 0.24590(12) -0.07253(8) 0.35207(13)
S2 S 0.28667(12) 0.03722(8) -0.02106(12)
Yb1 Yb 0.12677(2) 0.053857(15) 0.50724(2)
Yb2 Yb -0.12881(2) 0.045840(15) 0.25899(2)
O4B O -0.2458(4) 0.0219(2) 0.0836(3)
O7_2 O -0.3055(3) 0.0328(2) 0.2748(3)
O8B O 0.3145(3) 0.0427(2) 0.6060(3)
O9B O 0.0788(3) -0.04664(18) 0.5472(3)
O11B O 0.1128(3) 0.05298(19) 0.6754(3)
Yb1B Yb -0.12677(2) -0.053857(15) 0.49276(2)
Yb1B_2 Yb 0.87323(2) -0.053857(15) 0.49276(2)
Yb2_2 Yb 0.87119(2) 0.045840(15) 0.25899(2)
Yb2B Yb 0.12881(2) -0.045840(15) -0.25899(2)
loop_
_geom_bond_atom_site_label_1
_geom_bond_atom_site_label_2
_geom_bond_site_symmetry_1
_geom_bond_site_symmetry_2
C1 C2 1_555 1_555
C2 H1 1_555 1_555
C3 C2 1_555 1_555
C4 C3 1_555 1_555
H2 C4 1_555 1_555
C5 C4 1_555 1_555
C6 C1 1_555 1_555
H3 C6 1_555 1_555
C7 C5 1_555 1_555
C8 H4 1_555 1_555
C9 C8 1_555 1_555
H5 C9 1_555 1_555
C10 C9 1_555 1_555
H6 C10 1_555 1_555
C11 C10 1_555 1_555
C12 C11 1_555 1_555
H7 C12 1_555 1_555
C13 C12 1_555 1_555
H8 C13 1_555 1_555
C14 C13 1_555 1_555
C15 C14 1_555 1_555
H9 C15 1_555 1_555
C16 C15 1_555 1_555
H10 C16 1_555 1_555
C17 C16 1_555 1_555
H11 C17 1_555 1_555
C18 C14 1_555 1_555
C19 C11 1_555 1_555
C20 H12 1_555 1_555
C21 C20 1_555 1_555
H13 C21 1_555 1_555
C22 C21 1_555 1_555
H14 C22 1_555 1_555
C23 C22 1_555 1_555
C24 C23 1_555 1_555
H15 C24 1_555 1_555
C25 C24 1_555 1_555
H16 C25 1_555 1_555
C26 C25 1_555 1_555
C27 C26 1_555 1_555
H17 C27 1_555 1_555
C28 C27 1_555 1_555
H18 C28 1_555 1_555
C29 C28 1_555 1_555
H19 C29 1_555 1_555
C30 C26 1_555 1_555
C31 C23 1_555 1_555
N1 C8 1_555 1_555
N2 C17 1_555 1_555
N3 C20 1_555 1_555
N4 C29 1_555 1_555
O1 S1 1_555 1_555
O2 S1 1_555 1_555
O3 S1 1_555 1_555
O4 S2 1_555 1_555
O5 S2 1_555 1_555
O6 S2 1_555 1_555
O7 C7 1_555 1_555
O8 C7 1_555 1_555
O9 H20 1_555 1_555
O10 H21 1_555 1_555
O11 H22 1_555 1_555
O12 H23 1_555 1_555
H24 O12 1_555 1_555
S1 C1 1_555 1_555
S2 C3 1_555 1_555
Yb1 N1 1_555 1_555
Yb2 N3 1_555 1_555
O4B Yb2 1_555 1_555
O7_2 Yb2 1_555 1_555
O8B Yb1 1_555 1_555
O9B Yb1 1_555 1_555
O11B Yb1 1_555 1_555
Yb1B O9 1_555 1_555
Yb1B_2 O8 1_555 1_555
Yb2_2 O7 1_555 1_555
Yb2B O4 1_555 1_555
C5 C6 1_555 1_555
C18 C19 1_555 1_555
C18 N2 1_555 1_555
C19 N1 1_555 1_555
C30 C31 1_555 1_555
C30 N4 1_555 1_555
C31 N3 1_555 1_555
N2 Yb1 1_555 1_555
N4 Yb2 1_555 1_555
O1 Yb1 1_555 1_555
O9 Yb1 1_555 1_555
O9 Yb2 1_555 1_555
O10 Yb1 1_555 1_555
O10 Yb2 1_555 1_555
O11 Yb2 1_555 1_555
O11 Yb1B 1_555 1_555
O12 Yb2 1_555 1_555
O9B Yb1B 1_555 1_555

#END
