
#######################################################################
#
#                 Cambridge Crystallographic Data Centre
#                                CCDC 
#
#######################################################################
#
# If this CIF has been generated from an entry in the Cambridge 
# Structural Database, then it will include bibliographic, chemical, 
# crystal, experimental, refinement or atomic coordinate data resulting 
# from the CCDC's data processing and validation procedures.
#
#######################################################################

data_FOVJIK
_symmetry_cell_setting           triclinic
_symmetry_space_group_name_H-M   'P -1'
_symmetry_Int_Tables_number      2
_space_group_name_Hall           '-P 1'
loop_
_symmetry_equiv_pos_site_id
_symmetry_equiv_pos_as_xyz
1 x,y,z
2 -x,-y,-z
_cell_length_a                   10.1803(6)
_cell_length_b                   10.1829(6)
_cell_length_c                   21.3203(12)
_cell_angle_alpha                83.571(1)
_cell_angle_beta                 89.566(1)
_cell_angle_gamma                81.676(1)
_cell_volume                     2173.05
loop_
_atom_site_label
_atom_site_type_symbol
_atom_site_fract_x
_atom_site_fract_y
_atom_site_fract_z
Cu1 Cu 0.49651(5) -0.20279(6) -0.24478(2)
N1 N 0.3676(4) -0.0201(4) -0.22706(17)
N2 N 0.5013(3) -0.2115(4) -0.15196(16)
N3 N 0.6371(4) -0.3852(4) -0.21802(16)
N4 N 0.6732(4) -0.1154(4) -0.27778(17)
N5 N 0.4877(3) -0.2077(3) -0.33672(15)
N6 N 0.3130(4) -0.2891(4) -0.25617(17)
C1 C 0.2992(6) 0.0712(6) -0.2685(2)
H1 H 0.3185 0.0694 -0.3112
C2 C 0.2026(7) 0.1665(7) -0.2516(3)
H2 H 0.1576 0.2291 -0.2821
C3 C 0.1727(7) 0.1693(7) -0.1895(3)
H3 H 0.1073 0.2342 -0.1767
C4 C 0.2411(6) 0.0740(6) -0.1454(3)
H4 H 0.2208 0.0729 -0.1027
C5 C 0.3388(5) -0.0185(5) -0.1655(2)
C6 C 0.4210(4) -0.1224(4) -0.12287(19)
C7 C 0.4160(4) -0.1318(4) -0.05774(19)
H5 H 0.3594 -0.0688 -0.0383
C8 C 0.4947(4) -0.2347(4) -0.02095(19)
C9 C 0.5786(4) -0.3254(4) -0.05277(19)
H6 H 0.6334 -0.3953 -0.0300
C10 C 0.5807(4) -0.3116(4) -0.1180(2)
C11 C 0.6651(4) -0.4038(5) -0.15592(19)
C12 C 0.7644(5) -0.4993(6) -0.1306(2)
H7 H 0.7828 -0.5092 -0.0875
C13 C 0.8364(6) -0.5802(6) -0.1694(3)
H8 H 0.9038 -0.6464 -0.1530
C14 C 0.8086(6) -0.5629(6) -0.2327(2)
H9 H 0.8561 -0.6174 -0.2598
C15 C 0.7106(5) -0.4650(5) -0.2553(2)
H10 H 0.6932 -0.4523 -0.2985
C16 C 0.4897(5) -0.2476(5) 0.0481(2)
C17 C 0.4049(6) -0.1592(6) 0.0785(2)
H11 H 0.3529 -0.0886 0.0549
C18 C 0.3944(6) -0.1722(6) 0.1434(2)
H12 H 0.3313 -0.1139 0.1622
C19 C 0.4748(6) -0.2687(5) 0.1807(2)
H13 H 0.4723 -0.2731 0.2245
C20 C 0.5589(6) -0.3586(6) 0.1509(2)
H14 H 0.6134 -0.4270 0.1747
C21 C 0.5640(6) -0.3490(6) 0.08594(19)
H15 H 0.6198 -0.4136 0.0671
C22 C 0.7639(6) -0.0685(6) -0.2447(2)
H16 H 0.7551 -0.0719 -0.2011
C23 C 0.8678(6) -0.0166(6) -0.2722(3)
H17 H 0.9282 0.0165 -0.2478
C24 C 0.8837(6) -0.0129(6) -0.3360(3)
H18 H 0.9538 0.0242 -0.3556
C25 C 0.7956(5) -0.0642(6) -0.3707(2)
H19 H 0.8060 -0.0648 -0.4141
C26 C 0.6905(4) -0.1153(4) -0.3404(2)
C27 C 0.5899(4) -0.1753(4) -0.37285(19)
C28 C 0.5990(5) -0.2031(5) -0.4347(2)
H20 H 0.6706 -0.1814 -0.4590
C29 C 0.5018(4) -0.2633(4) -0.46086(19)
C30 C 0.3948(4) -0.2901(4) -0.42370(19)
H21 H 0.3263 -0.3271 -0.4404
C31 C 0.3894(4) -0.2618(4) -0.36168(19)
C32 C 0.2836(4) -0.2929(4) -0.31717(19)
C33 C 0.1616(5) -0.3224(5) -0.3356(2)
H22 H 0.1421 -0.3232 -0.3781
C34 C 0.0712(5) -0.3501(6) -0.2907(3)
H23 H -0.0103 -0.3716 -0.3022
C35 C 0.1010(6) -0.3462(6) -0.2282(3)
H24 H 0.0399 -0.3641 -0.1970
C36 C 0.2221(5) -0.3154(6) -0.2130(2)
H25 H 0.2420 -0.3126 -0.1708
C37 C 0.5151(4) -0.3014(5) -0.52603(19)
C38 C 0.6401(5) -0.3443(4) -0.5491(2)
H26 H 0.7146 -0.3491 -0.5235
C39 C 0.6547(5) -0.3798(5) -0.6095(2)
H27 H 0.7389 -0.4076 -0.6245
C40 C 0.5463(6) -0.3742(6) -0.6472(2)
H28 H 0.5567 -0.3995 -0.6877
C41 C 0.4217(6) -0.3314(6) -0.6256(2)
H29 H 0.3480 -0.3271 -0.6517
C42 C 0.4056(5) -0.2947(5) -0.5651(2)
H30 H 0.3211 -0.2654 -0.5507
Cu2 Cu -0.00482(7) -0.25116(6) 0.01693(3)
S1 S 0.18721(14) -0.35747(13) -0.04141(6)
S2 S -0.14546(18) -0.13054(15) -0.06847(9)
N7 N -0.0858(5) -0.4059(4) 0.0517(2)
N8 N -0.0544(5) 0.1122(5) -0.0612(2)
C43 C 0.1256(5) -0.4956(5) -0.0482(2)
C44 C -0.0890(7) 0.0120(6) -0.0657(3)
Cu2A Cu 0.00482(7) -0.74884(6) -0.01693(3)
Cu2A_2 Cu 0.00482(7) 0.25116(6) -0.01693(3)
Cu2_2 Cu -0.00482(7) -1.25116(6) 0.01693(3)
S1A S -0.18721(14) -0.64253(13) 0.04141(6)
S2A S 0.14546(18) -0.86946(15) 0.06847(9)
N7A N 0.0858(5) -0.5941(4) -0.0517(2)
N8A N 0.0544(5) -0.1122(5) 0.0612(2)
N8_2 N -0.0544(5) -0.8878(5) -0.0612(2)
N8A_2 N 0.0544(5) -1.1122(5) 0.0612(2)
C43A C -0.1256(5) -0.5044(5) 0.0482(2)
C44A C 0.0890(7) -1.0120(6) 0.0657(3)
Cu3 Cu 0.02122(6) -0.75681(6) -0.47915(3)
S3 S 0.19621(12) -0.92738(12) -0.43542(6)
S4 S -0.04694(14) -0.64027(13) -0.39134(6)
N9 N -0.0682(4) -0.3806(4) -0.45288(18)
N10 N -0.1066(4) -0.8600(4) -0.51346(19)
C45 C -0.0607(4) -0.4867(5) -0.4271(2)
C46 C 0.1439(4) -1.0529(5) -0.4650(2)
Cu3A Cu -0.02122(6) -0.24319(6) -0.52085(3)
Cu3A_2 Cu -0.02122(6) -1.24319(6) -0.52085(3)
Cu3_2 Cu 0.02122(6) -1.75681(6) -0.47915(3)
S3A S -0.19621(12) -1.07262(12) -0.56458(6)
S4A S 0.04694(14) -1.35973(13) -0.60866(6)
N9A N 0.0682(4) -0.6194(4) -0.54712(18)
N9_2 N -0.0682(4) -1.3806(4) -0.45288(18)
N9A_2 N 0.0682(4) -1.6194(4) -0.54712(18)
N10A N 0.1066(4) -1.1400(4) -0.48654(19)
C45A C 0.0607(4) -1.5133(5) -0.5729(2)
C46A C -0.1439(4) -0.9471(5) -0.5350(2)
loop_
_geom_bond_atom_site_label_1
_geom_bond_atom_site_label_2
_geom_bond_site_symmetry_1
_geom_bond_site_symmetry_2
Cu1 N1 1_555 1_555
Cu2 S1 1_555 1_555
Cu3 S3 1_555 1_555
S1 C43 1_555 1_555
S2 Cu2 1_555 1_555
S3 C46 1_555 1_555
S4 Cu3 1_555 1_555
N1 C1 1_555 1_555
N2 Cu1 1_555 1_555
N3 Cu1 1_555 1_555
N4 Cu1 1_555 1_555
N5 Cu1 1_555 1_555
N6 Cu1 1_555 1_555
N7 Cu2 1_555 1_555
N8 C44 1_555 1_555
N9 C45 1_555 1_555
N10 Cu3 1_555 1_555
C1 H1 1_555 1_555
C2 C1 1_555 1_555
H2 C2 1_555 1_555
C3 C2 1_555 1_555
H3 C3 1_555 1_555
C4 C3 1_555 1_555
H4 C4 1_555 1_555
C5 N1 1_555 1_555
C6 N2 1_555 1_555
C7 C6 1_555 1_555
H5 C7 1_555 1_555
C8 C7 1_555 1_555
C9 C8 1_555 1_555
H6 C9 1_555 1_555
C10 N2 1_555 1_555
C11 N3 1_555 1_555
C12 C11 1_555 1_555
H7 C12 1_555 1_555
C13 C12 1_555 1_555
H8 C13 1_555 1_555
C14 C13 1_555 1_555
H9 C14 1_555 1_555
C15 N3 1_555 1_555
H10 C15 1_555 1_555
C16 C8 1_555 1_555
C17 C16 1_555 1_555
H11 C17 1_555 1_555
C18 C17 1_555 1_555
H12 C18 1_555 1_555
C19 C18 1_555 1_555
H13 C19 1_555 1_555
C20 C19 1_555 1_555
H14 C20 1_555 1_555
C21 C16 1_555 1_555
H15 C21 1_555 1_555
C22 N4 1_555 1_555
H16 C22 1_555 1_555
C23 C22 1_555 1_555
H17 C23 1_555 1_555
C24 C23 1_555 1_555
H18 C24 1_555 1_555
C25 C24 1_555 1_555
H19 C25 1_555 1_555
C26 N4 1_555 1_555
C27 N5 1_555 1_555
C28 C27 1_555 1_555
H20 C28 1_555 1_555
C29 C28 1_555 1_555
C30 C29 1_555 1_555
H21 C30 1_555 1_555
C31 N5 1_555 1_555
C32 N6 1_555 1_555
C33 C32 1_555 1_555
H22 C33 1_555 1_555
C34 C33 1_555 1_555
H23 C34 1_555 1_555
C35 C34 1_555 1_555
H24 C35 1_555 1_555
C36 N6 1_555 1_555
H25 C36 1_555 1_555
C37 C29 1_555 1_555
C38 C37 1_555 1_555
H26 C38 1_555 1_555
C39 C38 1_555 1_555
H27 C39 1_555 1_555
C40 C39 1_555 1_555
H28 C40 1_555 1_555
C41 C40 1_555 1_555
H29 C41 1_555 1_555
C42 C37 1_555 1_555
H30 C42 1_555 1_555
C43 N7A 1_555 1_555
C44 S2 1_555 1_555
C45 S4 1_555 1_555
C46 N10A 1_555 1_555
Cu2A S1A 1_555 1_555
Cu2A_2 N8 1_555 1_555
Cu2_2 N8A_2 1_555 1_555
Cu3A N9 1_555 1_555
Cu3A_2 S3A 1_555 1_555
Cu3_2 N9A_2 1_555 1_555
S1A C43A 1_555 1_555
S2A Cu2A 1_555 1_555
S3A C46A 1_555 1_555
S4A Cu3A_2 1_555 1_555
N7A Cu2A 1_555 1_555
N8A Cu2 1_555 1_555
N8_2 Cu2A 1_555 1_555
N8A_2 C44A 1_555 1_555
N9A Cu3 1_555 1_555
N9_2 Cu3A_2 1_555 1_555
N9A_2 C45A 1_555 1_555
N10A Cu3A_2 1_555 1_555
C43A N7 1_555 1_555
C44A S2A 1_555 1_555
C45A S4A 1_555 1_555
C46A N10 1_555 1_555
C4 C5 1_555 1_555
C5 C6 1_555 1_555
C9 C10 1_555 1_555
C10 C11 1_555 1_555
C14 C15 1_555 1_555
C20 C21 1_555 1_555
C25 C26 1_555 1_555
C26 C27 1_555 1_555
C30 C31 1_555 1_555
C31 C32 1_555 1_555
C35 C36 1_555 1_555
C41 C42 1_555 1_555

#END
