
#######################################################################
#
#                 Cambridge Crystallographic Data Centre
#                                CCDC 
#
#######################################################################
#
# If this CIF has been generated from an entry in the Cambridge 
# Structural Database, then it will include bibliographic, chemical, 
# crystal, experimental, refinement or atomic coordinate data resulting 
# from the CCDC's data processing and validation procedures.
#
#######################################################################

data_FOVKOR
_symmetry_cell_setting           triclinic
_symmetry_space_group_name_H-M   'P -1'
_symmetry_Int_Tables_number      2
_space_group_name_Hall           '-P 1'
loop_
_symmetry_equiv_pos_site_id
_symmetry_equiv_pos_as_xyz
1 x,y,z
2 -x,-y,-z
_cell_length_a                   10.0031(6)
_cell_length_b                   10.2202(6)
_cell_length_c                   21.2612(12)
_cell_angle_alpha                82.607(1)
_cell_angle_beta                 87.732(1)
_cell_angle_gamma                80.132(1)
_cell_volume                     2123.31
loop_
_atom_site_label
_atom_site_type_symbol
_atom_site_fract_x
_atom_site_fract_y
_atom_site_fract_z
Cu1 Cu 0.47293(4) -0.19421(4) 0.251580(17)
N1 N 0.6206(3) -0.3844(3) 0.28018(11)
N2 N 0.4788(2) -0.2029(2) 0.34566(10)
N3 N 0.3369(3) -0.0084(3) 0.27154(12)
N4 N 0.4223(3) -0.1229(3) 0.64121(12)
N5 N 0.2940(3) -0.2811(3) 0.24240(11)
N6 N 0.4761(2) -0.2102(2) 0.16064(10)
N7 N 0.6464(3) -0.1057(3) 0.21930(11)
N8 N 0.6683(3) -0.3808(3) -0.11272(13)
C1 C 0.6908(4) -0.4709(3) 0.24430(15)
H1 H 0.6739 -0.4592 0.2011
C2 C 0.7870(4) -0.5764(4) 0.26798(17)
H2 H 0.8322 -0.6365 0.2417
C3 C 0.8147(4) -0.5908(4) 0.33145(18)
H3 H 0.8793 -0.6612 0.3489
C4 C 0.7461(3) -0.5003(4) 0.36902(15)
H4 H 0.7652 -0.5078 0.4119
C5 C 0.6487(3) -0.3984(3) 0.34224(13)
C6 C 0.5626(3) -0.3012(3) 0.37951(13)
C7 C 0.5660(3) -0.3113(3) 0.44499(13)
H5 H 0.6278 -0.3778 0.4673
C8 C 0.4769(3) -0.2219(3) 0.47749(13)
C9 C 0.3883(3) -0.1234(3) 0.44160(13)
H6 H 0.3249 -0.0640 0.4616
C10 C 0.3944(3) -0.1136(3) 0.37578(13)
C11 C 0.3129(3) -0.0035(3) 0.33412(14)
C12 C 0.2258(3) 0.1015(4) 0.35601(17)
H7 H 0.2097 0.1030 0.3993
C13 C 0.1628(4) 0.2041(5) 0.3131(2)
H8 H 0.1053 0.2764 0.3272
C14 C 0.1857(4) 0.1985(5) 0.24968(19)
H9 H 0.1433 0.2659 0.2199
C15 C 0.2728(4) 0.0909(5) 0.23085(17)
H10 H 0.2878 0.0870 0.1876
C16 C 0.4781(3) -0.2316(3) 0.54771(13)
C17 C 0.5365(3) -0.3469(3) 0.58521(14)
H11 H 0.5751 -0.4226 0.5668
C18 C 0.5366(4) -0.3476(4) 0.64972(16)
H12 H 0.5758 -0.4239 0.6755
C19 C 0.4787(4) -0.2356(4) 0.67586(15)
H13 H 0.4787 -0.2379 0.7197
C20 C 0.4238(3) -0.1232(3) 0.57879(14)
H14 H 0.3855 -0.0448 0.5542
C21 C 0.1992(4) -0.3048(4) 0.28617(16)
H15 H 0.2133 -0.2922 0.3278
C22 C 0.0817(4) -0.3469(5) 0.27245(18)
H16 H 0.0180 -0.3632 0.3043
C23 C 0.0595(4) -0.3646(5) 0.21107(19)
H17 H -0.0191 -0.3936 0.2007
C24 C 0.1557(3) -0.3387(4) 0.16508(16)
H18 H 0.1421 -0.3485 0.1230
C25 C 0.2718(3) -0.2983(3) 0.18210(13)
C26 C 0.3818(3) -0.2682(3) 0.13663(13)
C27 C 0.3933(3) -0.2987(3) 0.07485(13)
H19 H 0.3275 -0.3387 0.0587
C28 C 0.5031(3) -0.2694(3) 0.03723(13)
C29 C 0.5989(3) -0.2089(3) 0.06305(13)
H20 H 0.6735 -0.1880 0.0387
C30 C 0.5832(3) -0.1796(3) 0.12494(13)
C31 C 0.6784(3) -0.1167(3) 0.15784(13)
C32 C 0.7917(3) -0.0729(4) 0.12923(15)
H21 H 0.8125 -0.0818 0.0868
C33 C 0.8734(4) -0.0158(4) 0.16454(18)
H22 H 0.9493 0.0159 0.1460
C34 C 0.8420(4) -0.0062(4) 0.22712(18)
H23 H 0.8969 0.0308 0.2518
C35 C 0.7277(4) -0.0520(4) 0.25305(16)
H24 H 0.7065 -0.0453 0.2956
C36 C 0.5201(3) -0.3029(3) -0.02901(13)
C37 C 0.4111(4) -0.2894(4) -0.06815(16)
H25 H 0.3239 -0.2594 -0.0534
C38 C 0.4316(4) -0.3204(4) -0.12910(16)
H26 H 0.3589 -0.3106 -0.1563
C39 C 0.5585(4) -0.3651(4) -0.14877(15)
H27 H 0.5709 -0.3865 -0.1900
C40 C 0.6475(3) -0.3490(3) -0.05347(14)
H28 H 0.7221 -0.3584 -0.0275
Cu2 Cu 1.01294(4) -0.75579(4) 0.02065(2)
N9 N 1.0689(3) -0.6200(3) -0.04686(12)
N10 N 1.1099(3) -1.1402(3) 0.01414(14)
C41 C 1.0681(3) -0.5134(3) -0.07233(14)
C42 C 1.1444(3) -1.0539(3) 0.03533(14)
S1 S 1.06646(10) -0.35967(9) -0.10770(4)
S2 S 1.19304(8) -0.92921(8) 0.06543(4)
Cu2A Cu 0.98706(4) -0.24421(4) -0.02065(2)
Cu2A_2 Cu 0.98706(4) -1.24421(4) -0.02065(2)
Cu2_2 Cu 1.01294(4) 0.24421(4) 0.02065(2)
N9A N 0.9311(3) -0.3800(3) 0.04686(12)
N10_2 N 1.1099(3) -0.1402(3) 0.01414(14)
N10A N 0.8901(3) -0.8598(3) -0.01414(14)
N10A_2 N 0.8901(3) 0.1402(3) -0.01414(14)
C41A C 0.9319(3) -0.4866(3) 0.07233(14)
C42A C 0.8556(3) 0.0539(3) -0.03533(14)
S1A S 0.93354(10) -0.64033(9) 0.10770(4)
S2A S 0.80696(8) -0.07079(8) -0.06543(4)
Cu3 Cu -0.01615(5) -0.74603(4) 0.48921(2)
N11 N -0.0763(3) -0.8792(3) 0.44410(14)
N12 N -0.0855(3) -0.3942(3) 0.55087(16)
C43 C -0.0940(3) -0.9826(4) 0.43502(16)
C44 C -0.1332(3) -0.4881(3) 0.54818(15)
S3 S -0.12114(14) -1.13226(10) 0.42383(7)
S4 S -0.20423(8) -0.61985(8) 0.54243(4)
Cu3A Cu 0.01615(5) -1.25397(4) 0.51079(2)
Cu3A_2 Cu 0.01615(5) -0.25397(4) 0.51079(2)
Cu3_2 Cu -0.01615(5) -1.74603(4) 0.48921(2)
N11A N 0.0763(3) -1.1208(3) 0.55590(14)
N12_2 N -0.0855(3) -1.3942(3) 0.55087(16)
N12A N 0.0855(3) -0.6058(3) 0.44913(16)
N12A_2 N 0.0855(3) -1.6058(3) 0.44913(16)
C43A C 0.0940(3) -1.0174(4) 0.56498(16)
C44A C 0.1332(3) -1.5119(3) 0.45182(15)
S3A S 0.12114(14) -0.86774(10) 0.57617(7)
S4A S 0.20423(8) -1.38015(8) 0.45757(4)
loop_
_geom_bond_atom_site_label_1
_geom_bond_atom_site_label_2
_geom_bond_site_symmetry_1
_geom_bond_site_symmetry_2
Cu1 N1 1_555 1_555
Cu2 N9 1_555 1_555
Cu3 N11 1_555 1_555
N1 C1 1_555 1_555
N2 Cu1 1_555 1_555
N3 Cu1 1_555 1_555
N4 C19 1_555 1_555
N5 Cu1 1_555 1_555
N6 Cu1 1_555 1_555
N7 Cu1 1_555 1_555
N8 C39 1_555 1_555
N9 C41 1_555 1_555
N10 C42 1_555 1_555
N11 C43 1_555 1_555
N12 C44 1_555 1_555
C1 H1 1_555 1_555
C2 C1 1_555 1_555
H2 C2 1_555 1_555
C3 C2 1_555 1_555
H3 C3 1_555 1_555
C4 C3 1_555 1_555
H4 C4 1_555 1_555
C5 N1 1_555 1_555
C6 N2 1_555 1_555
C7 C6 1_555 1_555
H5 C7 1_555 1_555
C8 C7 1_555 1_555
C9 C8 1_555 1_555
H6 C9 1_555 1_555
C10 N2 1_555 1_555
C11 N3 1_555 1_555
C12 C11 1_555 1_555
H7 C12 1_555 1_555
C13 C12 1_555 1_555
H8 C13 1_555 1_555
C14 C13 1_555 1_555
H9 C14 1_555 1_555
C15 N3 1_555 1_555
H10 C15 1_555 1_555
C16 C8 1_555 1_555
C17 C16 1_555 1_555
H11 C17 1_555 1_555
C18 C17 1_555 1_555
H12 C18 1_555 1_555
C19 C18 1_555 1_555
H13 C19 1_555 1_555
C20 N4 1_555 1_555
H14 C20 1_555 1_555
C21 N5 1_555 1_555
H15 C21 1_555 1_555
C22 C21 1_555 1_555
H16 C22 1_555 1_555
C23 C22 1_555 1_555
H17 C23 1_555 1_555
C24 C23 1_555 1_555
H18 C24 1_555 1_555
C25 N5 1_555 1_555
C26 N6 1_555 1_555
C27 C26 1_555 1_555
H19 C27 1_555 1_555
C28 C27 1_555 1_555
C29 C28 1_555 1_555
H20 C29 1_555 1_555
C30 N6 1_555 1_555
C31 N7 1_555 1_555
C32 C31 1_555 1_555
H21 C32 1_555 1_555
C33 C32 1_555 1_555
H22 C33 1_555 1_555
C34 C33 1_555 1_555
H23 C34 1_555 1_555
C35 N7 1_555 1_555
H24 C35 1_555 1_555
C36 C28 1_555 1_555
C37 C36 1_555 1_555
H25 C37 1_555 1_555
C38 C37 1_555 1_555
H26 C38 1_555 1_555
C39 C38 1_555 1_555
H27 C39 1_555 1_555
C40 N8 1_555 1_555
H28 C40 1_555 1_555
C41 S1 1_555 1_555
C42 S2 1_555 1_555
C43 S3 1_555 1_555
C44 S4 1_555 1_555
S1 Cu2A 1_555 1_555
S2 Cu2 1_555 1_555
S3 Cu3A 1_555 1_555
S4 Cu3 1_555 1_555
Cu2A N9A 1_555 1_555
Cu2A_2 N10 1_555 1_555
Cu2_2 N10A_2 1_555 1_555
Cu3A N11A 1_555 1_555
Cu3A_2 N12 1_555 1_555
Cu3_2 N12A_2 1_555 1_555
N9A C41A 1_555 1_555
N10_2 Cu2A 1_555 1_555
N10A Cu2 1_555 1_555
N10A_2 C42A 1_555 1_555
N11A C43A 1_555 1_555
N12_2 Cu3A 1_555 1_555
N12A Cu3 1_555 1_555
N12A_2 C44A 1_555 1_555
C41A S1A 1_555 1_555
C42A S2A 1_555 1_555
C43A S3A 1_555 1_555
C44A S4A 1_555 1_555
S1A Cu2 1_555 1_555
S2A Cu2A 1_555 1_555
S3A Cu3 1_555 1_555
S4A Cu3A 1_555 1_555
C4 C5 1_555 1_555
C5 C6 1_555 1_555
C9 C10 1_555 1_555
C10 C11 1_555 1_555
C14 C15 1_555 1_555
C16 C20 1_555 1_555
C24 C25 1_555 1_555
C25 C26 1_555 1_555
C29 C30 1_555 1_555
C30 C31 1_555 1_555
C34 C35 1_555 1_555
C36 C40 1_555 1_555

#END
