
#######################################################################
#
#                 Cambridge Crystallographic Data Centre
#                                CCDC 
#
#######################################################################
#
# If this CIF has been generated from an entry in the Cambridge 
# Structural Database, then it will include bibliographic, chemical, 
# crystal, experimental, refinement or atomic coordinate data resulting 
# from the CCDC's data processing and validation procedures.
#
#######################################################################

data_FOVKEH
_symmetry_cell_setting           monoclinic
_symmetry_space_group_name_H-M   'P 21/n'
_symmetry_Int_Tables_number      14
_space_group_name_Hall           '-P 2yn'
loop_
_symmetry_equiv_pos_site_id
_symmetry_equiv_pos_as_xyz
1 x,y,z
2 1/2-x,1/2+y,1/2-z
3 -x,-y,-z
4 1/2+x,1/2-y,1/2+z
_cell_length_a                   23.1141(3)
_cell_length_b                   10.6933(1)
_cell_length_c                   26.4904(3)
_cell_angle_alpha                90
_cell_angle_beta                 105.318(1)
_cell_angle_gamma                90
_cell_volume                     6314.92
loop_
_atom_site_label
_atom_site_type_symbol
_atom_site_fract_x
_atom_site_fract_y
_atom_site_fract_z
Sn1 Sn 0.910774(10) 1.12298(2) 0.143808(9)
Sn2 Sn 0.844590(10) 0.61317(2) 0.124459(9)
O1 O 0.43868(12) 0.6917(3) 0.10995(13)
H1 H 0.4406 0.6170 0.1200
O2 O 0.85157(11) 0.9306(2) 0.12252(10)
O3 O 0.78885(11) 0.7715(2) 0.09407(10)
O4 O 1.33300(12) 1.4480(3) 0.15895(14)
H2 H 1.3521 1.5037 0.1789
O5 O 0.89756(10) 1.4208(2) 0.14556(9)
O6 O 0.97151(11) 1.2825(2) 0.16497(10)
S1 S 0.68509(4) 0.95913(9) 0.08727(4)
S2 S 1.07276(4) 1.46546(9) 0.21041(4)
C1 C 0.80231(15) 0.8877(3) 0.09626(14)
C2 C 0.75315(15) 0.9722(3) 0.06523(15)
H3 H 0.7440 0.9497 0.0277
H4 H 0.7673 1.0599 0.0690
C3 C 0.64945(16) 0.8224(3) 0.05085(14)
H5 H 0.6395 0.8404 0.0129
H6 H 0.6777 0.7510 0.0581
C4 C 0.59296(15) 0.7880(3) 0.06610(13)
C5 C 0.55189(15) 0.8788(3) 0.07229(13)
H7 H 0.5595 0.9640 0.0662
C6 C 0.50024(16) 0.8484(3) 0.08713(14)
C7 C 0.48971(16) 0.7211(4) 0.09447(15)
C8 C 0.52889(16) 0.6268(3) 0.08767(14)
C9 C 0.58075(16) 0.6635(3) 0.07387(14)
H8 H 0.6085 0.6013 0.0697
C10 C 0.45783(16) 0.9504(4) 0.09774(15)
C11 C 0.39367(16) 0.9309(4) 0.06322(16)
H9 H 0.3794 0.8478 0.0699
H10 H 0.3935 0.9375 0.0263
H11 H 0.3672 0.9949 0.0715
C12 C 0.45897(17) 0.9485(4) 0.15577(15)
H12 H 0.4999 0.9648 0.1770
H13 H 0.4458 0.8663 0.1648
H14 H 0.4319 1.0131 0.1626
C13 C 0.47751(18) 1.0811(4) 0.08518(17)
H15 H 0.4504 1.1438 0.0932
H16 H 0.4762 1.0858 0.0480
H17 H 0.5185 1.0971 0.1063
C14 C 0.51615(17) 0.4867(4) 0.09642(16)
C15 C 0.5637(2) 0.4028(4) 0.08419(19)
H18 H 0.6031 0.4239 0.1075
H19 H 0.5645 0.4152 0.0477
H20 H 0.5544 0.3152 0.0895
C16 C 0.4552(2) 0.4450(4) 0.06023(19)
H21 H 0.4539 0.4649 0.0238
H22 H 0.4227 0.4891 0.0701
H23 H 0.4504 0.3547 0.0638
C17 C 0.5170(2) 0.4630(4) 0.15427(17)
H24 H 0.5120 0.3734 0.1596
H25 H 0.4842 0.5094 0.1627
H26 H 0.5554 0.4911 0.1771
C18 C 0.98565(16) 1.0026(3) 0.17101(14)
C19 C 0.98579(17) 0.9159(3) 0.21037(15)
H27 H 0.9524 0.9118 0.2249
C20 C 1.03377(19) 0.8360(4) 0.22860(16)
H28 H 1.0333 0.7777 0.2555
C21 C 1.08251(19) 0.8412(4) 0.20758(17)
H29 H 1.1153 0.7856 0.2197
C22 C 1.08343(18) 0.9270(4) 0.16914(17)
H30 H 1.1171 0.9308 0.1550
C23 C 1.03558(16) 1.0082(4) 0.15078(15)
H31 H 1.0368 1.0676 0.1244
C24 C 0.88567(15) 1.1508(3) 0.06164(14)
C25 C 0.90572(18) 1.0625(4) 0.03130(16)
H32 H 0.9292 0.9936 0.0478
C26 C 0.89162(19) 1.0745(4) -0.02270(16)
H33 H 0.9056 1.0141 -0.0430
C27 C 0.85748(19) 1.1736(4) -0.04711(17)
H34 H 0.8482 1.1820 -0.0841
C28 C 0.83697(19) 1.2603(4) -0.01776(16)
H35 H 0.8129 1.3281 -0.0346
C29 C 0.85112(17) 1.2494(4) 0.03653(15)
H36 H 0.8369 1.3103 0.0565
C30 C 0.86841(15) 1.1538(3) 0.20472(14)
C31 C 0.90234(17) 1.2129(3) 0.24995(14)
H37 H 0.9415 1.2423 0.2513
C32 C 0.87923(18) 1.2292(4) 0.29295(15)
H38 H 0.9024 1.2707 0.3233
C33 C 0.82320(18) 1.1858(4) 0.29177(16)
H39 H 0.8076 1.1972 0.3212
C34 C 0.78947(16) 1.1258(4) 0.24807(15)
H40 H 0.7506 1.0957 0.2474
C35 C 0.81167(16) 1.1088(4) 0.20505(15)
H41 H 0.7881 1.0661 0.1752
C36 C 0.95145(15) 1.3923(3) 0.16535(14)
C37 C 0.99361(15) 1.4947(4) 0.19353(15)
H42 H 0.9825 1.5149 0.2262
H43 H 0.9858 1.5705 0.1713
C38 C 1.08468(16) 1.4698(4) 0.14585(15)
H44 H 1.0642 1.3979 0.1251
H45 H 1.0673 1.5476 0.1278
C39 C 1.15088(17) 1.4648(4) 0.14936(15)
C40 C 1.17645(17) 1.3574(4) 0.13547(15)
H46 H 1.1517 1.2867 0.1236
C41 C 1.23752(17) 1.3501(4) 0.13841(15)
C42 C 1.27254(17) 1.4565(4) 0.15695(17)
C43 C 1.24881(17) 1.5674(4) 0.17203(16)
C44 C 1.18727(17) 1.5676(4) 0.16737(16)
H47 H 1.1695 1.6410 0.1769
C45 C 1.26454(19) 1.2303(4) 0.12188(17)
C46 C 1.2171(2) 1.1292(5) 0.1035(2)
H48 H 1.1998 1.1066 0.1323
H49 H 1.2355 1.0553 0.0924
H50 H 1.1853 1.1609 0.0740
C47 C 1.3130(2) 1.1754(5) 0.16756(19)
H51 H 1.3454 1.2364 0.1793
H52 H 1.3291 1.0989 0.1561
H53 H 1.2955 1.1559 0.1965
C48 C 1.2906(2) 1.2593(5) 0.0759(2)
H54 H 1.2587 1.2900 0.0464
H55 H 1.3081 1.1831 0.0656
H56 H 1.3218 1.3233 0.0864
C49 C 1.28762(18) 1.6834(4) 0.19216(17)
C50 C 1.3375(2) 1.6528(5) 0.2423(2)
H57 H 1.3582 1.7301 0.2568
H58 H 1.3664 1.5949 0.2337
H59 H 1.3197 1.6141 0.2682
C51 C 1.3139(2) 1.7366(5) 0.1493(2)
H60 H 1.2812 1.7621 0.1193
H61 H 1.3383 1.6725 0.1383
H62 H 1.3390 1.8092 0.1630
C52 C 1.2512(2) 1.7903(4) 0.20762(19)
H63 H 1.2193 1.8159 0.1770
H64 H 1.2777 1.8616 0.2203
H65 H 1.2335 1.7617 0.2353
C53 C 0.85574(15) 0.6475(3) 0.20566(14)
C54 C 0.86807(15) 0.5479(4) 0.24119(15)
H66 H 0.8732 0.4662 0.2290
C55 C 0.87288(17) 0.5667(4) 0.29420(16)
H67 H 0.8817 0.4985 0.3180
C56 C 0.86483(18) 0.6842(4) 0.31174(16)
H68 H 0.8690 0.6975 0.3480
C57 C 0.85087(18) 0.7825(4) 0.27763(16)
H69 H 0.8443 0.8630 0.2903
C58 C 0.84617(17) 0.7656(4) 0.22424(15)
H70 H 0.8365 0.8343 0.2008
C59 C 0.77265(15) 0.4907(3) 0.08986(15)
C60 C 0.75968(17) 0.3891(3) 0.11778(17)
H71 H 0.7799 0.3803 0.1538
C61 C 0.71789(19) 0.3009(4) 0.0939(2)
H72 H 0.7094 0.2320 0.1134
C62 C 0.68839(19) 0.3129(5) 0.0415(2)
H73 H 0.6603 0.2509 0.0249
C63 C 0.69929(19) 0.4135(5) 0.01317(19)
H74 H 0.6784 0.4223 -0.0227
C64 C 0.74144(17) 0.5028(4) 0.03773(17)
H75 H 0.7488 0.5730 0.0184
C65 C 0.90345(16) 0.6477(3) 0.07627(14)
C66 C 0.94946(17) 0.7339(4) 0.08737(16)
H76 H 0.9560 0.7829 0.1183
C67 C 0.98644(19) 0.7502(4) 0.05405(18)
H77 H 1.0181 0.8097 0.0624
C68 C 0.9774(2) 0.6811(4) 0.00956(18)
H78 H 1.0028 0.6920 -0.0131
C69 C 0.9313(2) 0.5950(5) -0.00272(18)
H79 H 0.9244 0.5476 -0.0341
C70 C 0.8953(2) 0.5781(4) 0.03055(17)
H80 H 0.8641 0.5175 0.0221
Sn2_2 Sn 0.844590(10) 1.61317(2) 0.124459(9)
O5_2 O 0.89756(10) 0.4208(2) 0.14556(9)
loop_
_geom_bond_atom_site_label_1
_geom_bond_atom_site_label_2
_geom_bond_site_symmetry_1
_geom_bond_site_symmetry_2
Sn1 O2 1_555 1_555
Sn2 O3 1_555 1_555
O1 H1 1_555 1_555
O2 C1 1_555 1_555
O3 C1 1_555 1_555
O4 H2 1_555 1_555
O5 C36 1_555 1_555
O6 Sn1 1_555 1_555
S1 C2 1_555 1_555
S2 C37 1_555 1_555
C1 C2 1_555 1_555
C2 H3 1_555 1_555
H4 C2 1_555 1_555
C3 S1 1_555 1_555
H5 C3 1_555 1_555
H6 C3 1_555 1_555
C4 C3 1_555 1_555
C5 C4 1_555 1_555
H7 C5 1_555 1_555
C6 C5 1_555 1_555
C7 O1 1_555 1_555
C8 C7 1_555 1_555
C9 C4 1_555 1_555
H8 C9 1_555 1_555
C10 C6 1_555 1_555
C11 C10 1_555 1_555
H9 C11 1_555 1_555
H10 C11 1_555 1_555
H11 C11 1_555 1_555
C12 C10 1_555 1_555
H12 C12 1_555 1_555
H13 C12 1_555 1_555
H14 C12 1_555 1_555
C13 C10 1_555 1_555
H15 C13 1_555 1_555
H16 C13 1_555 1_555
H17 C13 1_555 1_555
C14 C8 1_555 1_555
C15 C14 1_555 1_555
H18 C15 1_555 1_555
H19 C15 1_555 1_555
H20 C15 1_555 1_555
C16 C14 1_555 1_555
H21 C16 1_555 1_555
H22 C16 1_555 1_555
H23 C16 1_555 1_555
C17 C14 1_555 1_555
H24 C17 1_555 1_555
H25 C17 1_555 1_555
H26 C17 1_555 1_555
C18 Sn1 1_555 1_555
C19 C18 1_555 1_555
H27 C19 1_555 1_555
C20 C19 1_555 1_555
H28 C20 1_555 1_555
C21 C20 1_555 1_555
H29 C21 1_555 1_555
C22 C21 1_555 1_555
H30 C22 1_555 1_555
C23 C18 1_555 1_555
H31 C23 1_555 1_555
C24 Sn1 1_555 1_555
C25 C24 1_555 1_555
H32 C25 1_555 1_555
C26 C25 1_555 1_555
H33 C26 1_555 1_555
C27 C26 1_555 1_555
H34 C27 1_555 1_555
C28 C27 1_555 1_555
H35 C28 1_555 1_555
C29 C24 1_555 1_555
H36 C29 1_555 1_555
C30 Sn1 1_555 1_555
C31 C30 1_555 1_555
H37 C31 1_555 1_555
C32 C31 1_555 1_555
H38 C32 1_555 1_555
C33 C32 1_555 1_555
H39 C33 1_555 1_555
C34 C33 1_555 1_555
H40 C34 1_555 1_555
C35 C30 1_555 1_555
H41 C35 1_555 1_555
C36 O6 1_555 1_555
C37 C36 1_555 1_555
H42 C37 1_555 1_555
H43 C37 1_555 1_555
C38 S2 1_555 1_555
H44 C38 1_555 1_555
H45 C38 1_555 1_555
C39 C38 1_555 1_555
C40 C39 1_555 1_555
H46 C40 1_555 1_555
C41 C40 1_555 1_555
C42 O4 1_555 1_555
C43 C42 1_555 1_555
C44 C39 1_555 1_555
H47 C44 1_555 1_555
C45 C41 1_555 1_555
C46 C45 1_555 1_555
H48 C46 1_555 1_555
H49 C46 1_555 1_555
H50 C46 1_555 1_555
C47 C45 1_555 1_555
H51 C47 1_555 1_555
H52 C47 1_555 1_555
H53 C47 1_555 1_555
C48 C45 1_555 1_555
H54 C48 1_555 1_555
H55 C48 1_555 1_555
H56 C48 1_555 1_555
C49 C43 1_555 1_555
C50 C49 1_555 1_555
H57 C50 1_555 1_555
H58 C50 1_555 1_555
H59 C50 1_555 1_555
C51 C49 1_555 1_555
H60 C51 1_555 1_555
H61 C51 1_555 1_555
H62 C51 1_555 1_555
C52 C49 1_555 1_555
H63 C52 1_555 1_555
H64 C52 1_555 1_555
H65 C52 1_555 1_555
C53 Sn2 1_555 1_555
C54 C53 1_555 1_555
H66 C54 1_555 1_555
C55 C54 1_555 1_555
H67 C55 1_555 1_555
C56 C55 1_555 1_555
H68 C56 1_555 1_555
C57 C56 1_555 1_555
H69 C57 1_555 1_555
C58 C53 1_555 1_555
H70 C58 1_555 1_555
C59 Sn2 1_555 1_555
C60 C59 1_555 1_555
H71 C60 1_555 1_555
C61 C60 1_555 1_555
H72 C61 1_555 1_555
C62 C61 1_555 1_555
H73 C62 1_555 1_555
C63 C62 1_555 1_555
H74 C63 1_555 1_555
C64 C59 1_555 1_555
H75 C64 1_555 1_555
C65 Sn2 1_555 1_555
C66 C65 1_555 1_555
H76 C66 1_555 1_555
C67 C66 1_555 1_555
H77 C67 1_555 1_555
C68 C67 1_555 1_555
H78 C68 1_555 1_555
C69 C68 1_555 1_555
H79 C69 1_555 1_555
C70 C65 1_555 1_555
H80 C70 1_555 1_555
Sn2_2 O5 1_555 1_555
O5_2 Sn2 1_555 1_555
C6 C7 1_555 1_555
C8 C9 1_555 1_555
C22 C23 1_555 1_555
C28 C29 1_555 1_555
C34 C35 1_555 1_555
C41 C42 1_555 1_555
C43 C44 1_555 1_555
C57 C58 1_555 1_555
C63 C64 1_555 1_555
C69 C70 1_555 1_555

#END
