
#######################################################################
#
#                 Cambridge Crystallographic Data Centre
#                                CCDC 
#
#######################################################################
#
# If this CIF has been generated from an entry in the Cambridge 
# Structural Database, then it will include bibliographic, chemical, 
# crystal, experimental, refinement or atomic coordinate data resulting 
# from the CCDC's data processing and validation procedures.
#
#######################################################################

data_FOVMOS01
_symmetry_cell_setting           monoclinic
_symmetry_space_group_name_H-M   'P 21/c'
_symmetry_Int_Tables_number      14
_space_group_name_Hall           '-P 2ybc'
loop_
_symmetry_equiv_pos_site_id
_symmetry_equiv_pos_as_xyz
1 x,y,z
2 -x,1/2+y,1/2-z
3 -x,-y,-z
4 x,1/2-y,1/2+z
_cell_length_a                   7.9627(2)
_cell_length_b                   12.2231(3)
_cell_length_c                   6.8727(2)
_cell_angle_alpha                90
_cell_angle_beta                 94.028(1)
_cell_angle_gamma                90
_cell_volume                     667.26
loop_
_atom_site_label
_atom_site_type_symbol
_atom_site_fract_x
_atom_site_fract_y
_atom_site_fract_z
Cu1 Cu 0.26636(2) 0.231033(15) 0.14367(3)
Cl1 Cl 0.47823(5) 0.19865(3) -0.13792(5)
Cl2 Cl 0.04130(5) 0.16463(3) -0.04234(6)
O1 O 0.22463(15) 0.38045(9) 0.05214(17)
O2 O 0.30810(16) 0.41519(9) -0.24652(17)
C1 C 0.2600(2) 0.56427(13) -0.0366(2)
C2 C 0.26510(17) 0.44331(12) -0.0802(2)
N1 N 0.2876(2) 0.55075(15) 0.3271(2)
C3 C 0.1865(2) 0.59300(14) 0.1528(3)
H1 H 0.365(3) 0.5936(19) -0.044(3)
H2 H 0.077(3) 0.566(2) 0.158(4)
H3 H 0.181(3) 0.6715(19) 0.176(3)
H4 H 0.202(3) 0.597(2) -0.136(4)
H5 H 0.297(3) 0.478(3) 0.326(4)
H6 H 0.383(4) 0.582(3) 0.328(4)
H7 H 0.226(4) 0.563(3) 0.445(6)
Cu1C Cu 0.26636(2) 0.268967(15) -0.35633(3)
Cl1C Cl 0.47823(5) 0.30135(3) 0.36208(5)
Cl2C Cl 0.04130(5) 0.33537(3) 0.45766(6)
O2C O 0.30810(16) 0.08481(9) 0.25348(17)
loop_
_geom_bond_atom_site_label_1
_geom_bond_atom_site_label_2
_geom_bond_site_symmetry_1
_geom_bond_site_symmetry_2
Cu1 Cl1 1_555 1_555
Cl1 Cu1C 1_555 1_555
Cl2 Cu1 1_555 1_555
O1 Cu1 1_555 1_555
O2 C2 1_555 1_555
C1 C2 1_555 1_555
C2 O1 1_555 1_555
N1 C3 1_555 1_555
C3 C1 1_555 1_555
H1 C1 1_555 1_555
H2 C3 1_555 1_555
H3 C3 1_555 1_555
H4 C1 1_555 1_555
H5 N1 1_555 1_555
H6 N1 1_555 1_555
H7 N1 1_555 1_555
Cu1C Cl2 1_555 1_555
Cl1C Cu1 1_555 1_555
Cl2C Cu1 1_555 1_555
O2C Cu1 1_555 1_555
O2 Cu1C 1_555 1_555

#END
