
#######################################################################
#
#                 Cambridge Crystallographic Data Centre
#                                CCDC 
#
#######################################################################
#
# If this CIF has been generated from an entry in the Cambridge 
# Structural Database, then it will include bibliographic, chemical, 
# crystal, experimental, refinement or atomic coordinate data resulting 
# from the CCDC's data processing and validation procedures.
#
#######################################################################

data_FOVMOS
_symmetry_cell_setting           monoclinic
_symmetry_space_group_name_H-M   'P 21/c'
_symmetry_Int_Tables_number      14
_space_group_name_Hall           '-P 2ybc'
loop_
_symmetry_equiv_pos_site_id
_symmetry_equiv_pos_as_xyz
1 x,y,z
2 -x,1/2+y,1/2-z
3 -x,-y,-z
4 x,1/2-y,1/2+z
_cell_length_a                   7.960(1)
_cell_length_b                   12.249(2)
_cell_length_c                   6.875(1)
_cell_angle_alpha                90
_cell_angle_beta                 94.10(1)
_cell_angle_gamma                90
_cell_volume                     668.611
loop_
_atom_site_label
_atom_site_type_symbol
_atom_site_fract_x
_atom_site_fract_y
_atom_site_fract_z
Cu1 Cu 0.2335(2) 0.2313(1) 0.3560(2)
Cl1 Cl 0.0226(3) 0.3013(2) 0.1371(4)
Cl2 Cl 0.4585(4) 0.1645(2) 0.5428(4)
O1 O 0.2755(10) 0.3788(6) 0.4490(11)
O2 O 0.1935(11) 0.0839(6) 0.2470(11)
C1 C 0.2344(13) 0.4437(8) 0.5790(14)
C2 C 0.2402(16) 0.5649(9) 0.5383(15)
C3 C 0.3144(14) 0.5924(9) 0.3453(16)
N1 N 0.2114(14) 0.5495(9) 0.1745(14)
H1 H 0.299 0.601 0.645
H2 H 0.419 0.586 0.306
H3 H 0.333 0.666 0.353
H4 H 0.111 0.586 0.143
H5 H 0.234 0.501 0.123
Cl1C Cl 0.0226(3) 0.1987(2) 0.6371(4)
Cu1C Cu 0.2335(2) 0.2687(1) -0.1440(2)
C1C C 0.2344(13) 0.0563(8) 0.0790(14)
O2C O 0.1935(11) 0.4161(6) 0.7470(11)
Cu1C_2 Cu 0.2335(2) 0.2687(1) 0.8560(2)
Cl1C_2 Cl 0.0226(3) 0.1987(2) -0.3629(4)
Cl2C Cl 0.4585(4) 0.3355(2) 0.0428(4)
O1C O 0.2755(10) 0.1212(6) -0.0510(11)
O2C_2 O 0.1935(11) 0.4161(6) -0.2530(11)
C2C C 0.2402(16) -0.0649(9) 0.0383(15)
C3C C 0.3144(14) -0.0924(9) -0.1547(16)
H1C H 0.299 -0.101 0.145
N1C N 0.2114(14) -0.0495(9) -0.3255(14)
H2C H 0.419 -0.086 -0.194
H3C H 0.333 -0.166 -0.147
H4C H 0.111 -0.086 -0.357
H5C H 0.234 -0.001 -0.377
loop_
_geom_bond_atom_site_label_1
_geom_bond_atom_site_label_2
_geom_bond_site_symmetry_1
_geom_bond_site_symmetry_2
Cu1 Cl1 1_555 1_555
Cl1 Cu1C 1_555 1_555
Cl2 Cu1 1_555 1_555
O1 Cu1 1_555 1_555
O2 Cu1 1_555 1_555
C1 O1 1_555 1_555
C2 C1 1_555 1_555
C3 C2 1_555 1_555
N1 C3 1_555 1_555
H1 C2 1_555 1_555
H2 C3 1_555 1_555
H3 C3 1_555 1_555
H4 N1 1_555 1_555
H5 N1 1_555 1_555
Cl1C Cu1 1_555 1_555
Cu1C Cl1C_2 1_555 1_555
C1C O2 1_555 1_555
O2C C1 1_555 1_555
Cu1C_2 Cl1C 1_555 1_555
Cl2C Cu1C 1_555 1_555
O1C Cu1C 1_555 1_555
O2C_2 Cu1C 1_555 1_555
C2C C1C 1_555 1_555
C3C C2C 1_555 1_555
H1C C2C 1_555 1_555
N1C C3C 1_555 1_555
H2C C3C 1_555 1_555
H3C C3C 1_555 1_555
H4C N1C 1_555 1_555
H5C N1C 1_555 1_555
C1C O1C 1_555 1_555
O2C Cu1C_2 1_555 1_555

#END
