
#######################################################################
#
#                 Cambridge Crystallographic Data Centre
#                                CCDC 
#
#######################################################################
#
# If this CIF has been generated from an entry in the Cambridge 
# Structural Database, then it will include bibliographic, chemical, 
# crystal, experimental, refinement or atomic coordinate data resulting 
# from the CCDC's data processing and validation procedures.
#
#######################################################################

data_FOVPIR
_symmetry_cell_setting           monoclinic
_symmetry_space_group_name_H-M   'P 2/c'
_symmetry_Int_Tables_number      13
_space_group_name_Hall           '-P 2yc'
loop_
_symmetry_equiv_pos_site_id
_symmetry_equiv_pos_as_xyz
1 x,y,z
2 -x,y,1/2-z
3 -x,-y,-z
4 x,-y,1/2+z
_cell_length_a                   8.3104(15)
_cell_length_b                   7.6619(14)
_cell_length_c                   10.7189(19)
_cell_angle_alpha                90
_cell_angle_beta                 94.267(3)
_cell_angle_gamma                90
_cell_volume                     680.618
loop_
_atom_site_label
_atom_site_type_symbol
_atom_site_fract_x
_atom_site_fract_y
_atom_site_fract_z
Cd1 Cd 0.5000 -0.06398(6) 0.2500
O1 O 0.3615(4) 0.1075(6) 0.0927(3)
O2 O 0.2367(4) 0.0366(4) 0.2585(3)
O3 O 0.5468(4) -0.2807(5) 0.1140(3)
O4 O -0.2390(4) 0.4598(4) 0.2035(3)
N1 N -0.1447(4) 0.3742(4) 0.1299(3)
C1 C 0.2393(5) 0.1104(5) 0.1558(4)
C2 C 0.0914(5) 0.2063(5) 0.1025(4)
C3 C -0.0127(4) 0.2882(5) 0.1804(3)
C4 C -0.1824(5) 0.3737(6) 0.0043(4)
H1 H -0.2753 0.4299 -0.0286
C5 C -0.0840(5) 0.2906(5) -0.0742(4)
H2 H -0.1111 0.2905 -0.1599
C6 C 0.0546(5) 0.2070(5) -0.0273(4)
H3 H 0.1222 0.1525 -0.0807
H4 H 0.5871 -0.2434 0.0493
H5 H 0.6043 -0.3725 0.1309
O1A O -0.3615(4) 0.1075(6) 0.4073(3)
O2A O -0.2367(4) 0.0366(4) 0.2415(3)
O4A O 0.2390(4) 0.4598(4) 0.2965(3)
N1A N 0.1447(4) 0.3742(4) 0.3701(3)
C1A C -0.2393(5) 0.1104(5) 0.3442(4)
C2A C -0.0914(5) 0.2063(5) 0.3975(4)
C3A C 0.0127(4) 0.2882(5) 0.3196(3)
C4A C 0.1824(5) 0.3737(6) 0.4957(4)
H1A H 0.2753 0.4299 0.5286
C5A C 0.0840(5) 0.2906(5) 0.5742(4)
H2A H 0.1111 0.2905 0.6599
C6A C -0.0546(5) 0.2070(5) 0.5273(4)
H3A H -0.1222 0.1525 0.5807
O3A O 0.4532(4) -0.2807(5) 0.3860(3)
H4A H 0.4129 -0.2434 0.4507
H5A H 0.3957 -0.3725 0.3691
Cd1_2 Cd -0.5000 -0.06398(6) 0.2500
O1A_2 O 0.6385(4) 0.1075(6) 0.4073(3)
O2A_2 O 0.7633(4) 0.0366(4) 0.2415(3)
loop_
_geom_bond_atom_site_label_1
_geom_bond_atom_site_label_2
_geom_bond_site_symmetry_1
_geom_bond_site_symmetry_2
Cd1 O1 1_555 1_555
O1 C1 1_555 1_555
O2 Cd1 1_555 1_555
O3 Cd1 1_555 1_555
O4 N1 1_555 1_555
N1 C3 1_555 1_555
C1 O2 1_555 1_555
C2 C1 1_555 1_555
C3 C2 1_555 1_555
C4 N1 1_555 1_555
H1 C4 1_555 1_555
C5 C4 1_555 1_555
H2 C5 1_555 1_555
C6 C2 1_555 1_555
H3 C6 1_555 1_555
H4 O3 1_555 1_555
H5 O3 1_555 1_555
O1A C1A 1_555 1_555
O2A C1A 1_555 1_555
O4A N1A 1_555 1_555
N1A C3A 1_555 1_555
C1A C2A 1_555 1_555
C2A C3A 1_555 1_555
C3A C3 1_555 1_555
C4A N1A 1_555 1_555
H1A C4A 1_555 1_555
C5A C4A 1_555 1_555
H2A C5A 1_555 1_555
C6A C2A 1_555 1_555
H3A C6A 1_555 1_555
O3A Cd1 1_555 1_555
H4A O3A 1_555 1_555
H5A O3A 1_555 1_555
Cd1_2 O1A 1_555 1_555
O1A_2 Cd1 1_555 1_555
O2A_2 Cd1 1_555 1_555
C5 C6 1_555 1_555
O2A Cd1_2 1_555 1_555
C5A C6A 1_555 1_555

#END
