
#######################################################################
#
#                 Cambridge Crystallographic Data Centre
#                                CCDC 
#
#######################################################################
#
# If this CIF has been generated from an entry in the Cambridge 
# Structural Database, then it will include bibliographic, chemical, 
# crystal, experimental, refinement or atomic coordinate data resulting 
# from the CCDC's data processing and validation procedures.
#
#######################################################################

data_FOVPOX
_symmetry_cell_setting           orthorhombic
_symmetry_space_group_name_H-M   'P b c n'
_symmetry_Int_Tables_number      60
_space_group_name_Hall           '-P 2n 2ab'
loop_
_symmetry_equiv_pos_site_id
_symmetry_equiv_pos_as_xyz
1 x,y,z
2 1/2-x,1/2-y,1/2+z
3 1/2+x,1/2-y,-z
4 -x,y,1/2-z
5 -x,-y,-z
6 1/2+x,1/2+y,1/2-z
7 1/2-x,1/2+y,z
8 x,-y,1/2+z
_cell_length_a                   24.542(4)
_cell_length_b                   12.641(2)
_cell_length_c                   15.446(3)
_cell_angle_alpha                90
_cell_angle_beta                 90
_cell_angle_gamma                90
_cell_volume                     4791.9
loop_
_atom_site_label
_atom_site_type_symbol
_atom_site_fract_x
_atom_site_fract_y
_atom_site_fract_z
O8 O 0.5463(3) 0.6928(6) 0.3826(6)
H15 H 0.5531 0.7302 0.4269
H16 H 0.5749 0.6574 0.3715
O9 O 0.5000 0.8353(8) 0.2500
H17 H 0.5029 0.7931 0.2935
H17C H 0.4971 0.7931 0.2065
C1 C 0.6256(3) 0.5354(6) 0.0263(5)
H1 H 0.6128 0.5172 -0.0283
C2 C 0.5908(3) 0.5757(7) 0.0865(5)
H2 H 0.5542 0.5854 0.0732
C3 C 0.6106(3) 0.6022(7) 0.1681(5)
H3 H 0.5871 0.6309 0.2091
C4 C 0.6641(3) 0.5868(5) 0.1889(4)
C5 C 0.6985(3) 0.5456(5) 0.1263(4)
C6 C 0.7577(3) 0.5242(5) 0.1392(4)
C7 C 0.8006(3) 0.5884(5) 0.1128(4)
C8 C 0.8529(3) 0.5574(6) 0.1301(5)
H4 H 0.8822 0.5990 0.1123
C9 C 0.8621(3) 0.4624(6) 0.1749(5)
H5 H 0.8974 0.4424 0.1893
C10 C 0.8196(3) 0.4000(6) 0.1971(4)
H6 H 0.8258 0.3356 0.2244
C11 C 0.6852(3) 0.6180(5) 0.2775(4)
C12 C 0.7880(3) 0.6872(5) 0.0604(4)
C13 C 0.8430(3) 0.5229(6) 0.4112(5)
H7 H 0.8172 0.4766 0.3884
C14 C 0.8962(3) 0.4903(7) 0.4122(5)
H8 H 0.9058 0.4252 0.3887
C15 C 0.9349(3) 0.5541(6) 0.4479(5)
C16 C 0.9179(3) 0.6521(6) 0.4786(6)
H9 H 0.9429 0.6999 0.5011
C17 C 0.8630(3) 0.6772(6) 0.4753(6)
H10 H 0.8518 0.7412 0.4991
C18 C 0.9936(3) 0.5235(8) 0.4546(5)
H11 H 1.0162 0.5852 0.4447
H12 H 1.0021 0.4716 0.4104
Cd1 Cd 0.735480(17) 0.67365(3) 0.43249(3)
N1 N 0.8254(2) 0.6151(4) 0.4401(3)
N2 N 0.7679(2) 0.4310(4) 0.1798(3)
N3 N 0.6780(2) 0.5222(4) 0.0457(3)
O1 O 0.7330(2) 0.5921(4) 0.2964(3)
O2 O 0.6558(2) 0.6687(5) 0.3265(3)
O3 O 0.82731(19) 0.7307(4) 0.0205(3)
O4 O 0.73989(19) 0.7185(4) 0.0551(3)
O5 O 0.7121(2) 0.4927(3) -0.0157(3)
O6 O 0.7266(2) 0.3709(4) 0.2037(3)
O7 O 0.7652(2) 0.8315(3) 0.3711(3)
H13 H 0.7946 0.8596 0.4051
H14 H 0.7776 0.8184 0.3132
C13D C 1.1570(3) 0.4771(6) 0.5888(5)
H7D H 1.1828 0.5234 0.6116
C14D C 1.1038(3) 0.5097(7) 0.5878(5)
H8D H 1.0942 0.5748 0.6113
C15D C 1.0651(3) 0.4459(6) 0.5521(5)
C16D C 1.0821(3) 0.3479(6) 0.5214(6)
H9D H 1.0571 0.3001 0.4989
C17D C 1.1370(3) 0.3228(6) 0.5247(6)
H10D H 1.1482 0.2588 0.5009
C18D C 1.0064(3) 0.4765(8) 0.5454(5)
H11D H 0.9838 0.4148 0.5553
H12D H 0.9979 0.5284 0.5896
N1D N 1.1746(2) 0.3849(4) 0.5599(3)
C1D C 1.3744(3) 0.4646(6) 0.9737(5)
H1D H 1.3872 0.4828 1.0283
C2D C 1.4092(3) 0.4243(7) 0.9135(5)
H2D H 1.4458 0.4146 0.9268
C3D C 1.3894(3) 0.3978(7) 0.8319(5)
H3D H 1.4129 0.3691 0.7909
C4D C 1.3359(3) 0.4132(5) 0.8111(4)
C5D C 1.3015(3) 0.4544(5) 0.8737(4)
C6D C 1.2423(3) 0.4758(5) 0.8608(4)
C7D C 1.1994(3) 0.4116(5) 0.8872(4)
C8D C 1.1471(3) 0.4426(6) 0.8699(5)
H4D H 1.1178 0.4010 0.8877
C9D C 1.1379(3) 0.5376(6) 0.8251(5)
H5D H 1.1026 0.5576 0.8107
C10D C 1.1804(3) 0.6000(6) 0.8029(4)
H6D H 1.1742 0.6644 0.7756
C11D C 1.3148(3) 0.3820(5) 0.7225(4)
C12D C 1.2120(3) 0.3128(5) 0.9396(4)
Cd1D Cd 1.264520(17) 0.32635(3) 0.56751(3)
N2D N 1.2321(2) 0.5690(4) 0.8202(3)
N3D N 1.3220(2) 0.4778(4) 0.9543(3)
O1D O 1.2670(2) 0.4079(4) 0.7036(3)
O2D O 1.3442(2) 0.3313(5) 0.6735(3)
O3D O 1.17269(19) 0.2693(4) 0.9795(3)
O4D O 1.26011(19) 0.2815(4) 0.9449(3)
O5D O 1.2879(2) 0.5073(3) 1.0157(3)
O6D O 1.2734(2) 0.6291(4) 0.7963(3)
O7D O 1.2348(2) 0.1685(3) 0.6289(3)
H13D H 1.2054 0.1404 0.5949
H14D H 1.2224 0.1816 0.6868
Cd1A Cd 0.764520(17) 0.82635(3) -0.06751(3)
Cd1C Cd 1.264520(17) 0.67365(3) 1.06751(3)
Cd1E Cd 1.235480(17) 0.17365(3) 1.06751(3)
Cd1G Cd 0.735480(17) 0.32635(3) -0.06751(3)
O3A O 0.67269(19) 0.7693(4) 0.5205(3)
O3E O 1.32731(19) 0.2307(4) 0.4795(3)
O4A O 0.76011(19) 0.7815(4) 0.5551(3)
O4E O 1.23989(19) 0.2185(4) 0.4449(3)
O5C O 1.2879(2) 0.4927(3) 0.5157(3)
O5G O 0.7121(2) 0.5073(3) 0.4843(3)
C19? C 0.0712(11) 0.8002(19) 0.3849(18)
H18? H 0.1009 0.8439 0.3965
C20? C 0.0234(9) 0.6938(17) 0.2639(17)
H19? H 0.0363 0.6240 0.2503
H20? H 0.0090 0.7263 0.2126
H21? H -0.0046 0.6893 0.3071
C21? C 0.1148(10) 0.7908(19) 0.2389(15)
H22? H 0.0998 0.8217 0.1874
H23? H 0.1359 0.7296 0.2237
H24? H 0.1377 0.8415 0.2675
N4? N 0.0697(8) 0.7591(16) 0.2980(13)
O10? O 0.0420(7) 0.7883(14) 0.4427(10)
loop_
_geom_bond_atom_site_label_1
_geom_bond_atom_site_label_2
_geom_bond_site_symmetry_1
_geom_bond_site_symmetry_2
C1 H1 1_555 1_555
C2 C1 1_555 1_555
H2 C2 1_555 1_555
C3 C2 1_555 1_555
H3 C3 1_555 1_555
C4 C3 1_555 1_555
C5 C4 1_555 1_555
C6 C5 1_555 1_555
C7 C6 1_555 1_555
C8 C7 1_555 1_555
H4 C8 1_555 1_555
C9 C8 1_555 1_555
H5 C9 1_555 1_555
C10 C9 1_555 1_555
H6 C10 1_555 1_555
C11 C4 1_555 1_555
C12 C7 1_555 1_555
C13 H7 1_555 1_555
C14 C13 1_555 1_555
H8 C14 1_555 1_555
C15 C14 1_555 1_555
C16 C15 1_555 1_555
H9 C16 1_555 1_555
C17 C16 1_555 1_555
H10 C17 1_555 1_555
C18 C15 1_555 1_555
H11 C18 1_555 1_555
H12 C18 1_555 1_555
Cd1 N1 1_555 1_555
N1 C13 1_555 1_555
N2 C6 1_555 1_555
N3 C1 1_555 1_555
O1 C11 1_555 1_555
O2 C11 1_555 1_555
O3 C12 1_555 1_555
O4 C12 1_555 1_555
O5 N3 1_555 1_555
O6 N2 1_555 1_555
O7 Cd1 1_555 1_555
H13 O7 1_555 1_555
H14 O7 1_555 1_555
O8 H15 1_555 1_555
H16 O8 1_555 1_555
O9 H17 1_555 1_555
C13D H7D 1_555 1_555
C14D C13D 1_555 1_555
H8D C14D 1_555 1_555
C15D C14D 1_555 1_555
C16D C15D 1_555 1_555
H9D C16D 1_555 1_555
C17D C16D 1_555 1_555
H10D C17D 1_555 1_555
C18D C18 1_555 1_555
H11D C18D 1_555 1_555
H12D C18D 1_555 1_555
N1D C13D 1_555 1_555
C1D H1D 1_555 1_555
C2D C1D 1_555 1_555
H2D C2D 1_555 1_555
C3D C2D 1_555 1_555
H3D C3D 1_555 1_555
C4D C3D 1_555 1_555
C5D C4D 1_555 1_555
C6D C5D 1_555 1_555
C7D C6D 1_555 1_555
C8D C7D 1_555 1_555
H4D C8D 1_555 1_555
C9D C8D 1_555 1_555
H5D C9D 1_555 1_555
C10D C9D 1_555 1_555
H6D C10D 1_555 1_555
C11D C4D 1_555 1_555
C12D C7D 1_555 1_555
Cd1D N1D 1_555 1_555
N2D C6D 1_555 1_555
N3D C1D 1_555 1_555
O1D C11D 1_555 1_555
O2D C11D 1_555 1_555
O3D C12D 1_555 1_555
O4D C12D 1_555 1_555
O5D N3D 1_555 1_555
O6D N2D 1_555 1_555
O7D Cd1D 1_555 1_555
H13D O7D 1_555 1_555
H14D O7D 1_555 1_555
Cd1A O3 1_555 1_555
Cd1C O5D 1_555 1_555
Cd1E O3D 1_555 1_555
Cd1G O5 1_555 1_555
O3A Cd1 1_555 1_555
O3E Cd1D 1_555 1_555
O4A Cd1 1_555 1_555
O4E Cd1D 1_555 1_555
O5C Cd1D 1_555 1_555
O5G Cd1 1_555 1_555
H17C O9 1_555 1_555
C5 N3 1_555 1_555
C10 N2 1_555 1_555
C17 N1 1_555 1_555
Cd1 O1 1_555 1_555
Cd1 O2 1_555 1_555
O4 Cd1A 1_555 1_555
C15D C18D 1_555 1_555
C17D N1D 1_555 1_555
C5D N3D 1_555 1_555
C10D N2D 1_555 1_555
Cd1D O1D 1_555 1_555
Cd1D O2D 1_555 1_555
O4D Cd1E 1_555 1_555

#END
