
#######################################################################
#
#                 Cambridge Crystallographic Data Centre
#                                CCDC 
#
#######################################################################
#
# If this CIF has been generated from an entry in the Cambridge 
# Structural Database, then it will include bibliographic, chemical, 
# crystal, experimental, refinement or atomic coordinate data resulting 
# from the CCDC's data processing and validation procedures.
#
#######################################################################

data_FOVPAJ
_symmetry_cell_setting           monoclinic
_symmetry_space_group_name_H-M   'C c'
_symmetry_Int_Tables_number      9
_space_group_name_Hall           'C -2yc'
loop_
_symmetry_equiv_pos_site_id
_symmetry_equiv_pos_as_xyz
1 x,y,z
2 x,-y,1/2+z
3 1/2+x,1/2+y,z
4 1/2+x,1/2-y,1/2+z
_cell_length_a                   30.2619(4)
_cell_length_b                   4.71970(10)
_cell_length_c                   24.7223(4)
_cell_angle_alpha                90
_cell_angle_beta                 115.820(2)
_cell_angle_gamma                90
_cell_volume                     3178.5
loop_
_atom_site_label
_atom_site_type_symbol
_atom_site_fract_x
_atom_site_fract_y
_atom_site_fract_z
Ag1 Ag 0.287483(8) 1.31204(6) 0.889072(10)
Ag2 Ag 0.346376(11) 0.59386(7) 0.769625(14)
O1 O 0.40216(9) 0.3200(5) 0.60347(12)
O2 O 0.59345(11) 0.2662(5) 0.69672(14)
O3 O 0.54485(8) 1.1710(5) 0.50475(12)
O4 O 0.34020(14) 1.0777(7) 0.8089(2)
O5 O 0.28891(12) 0.7789(7) 0.80554(16)
O6 O 0.36322(10) 1.5486(7) 0.94233(16)
O7 O 0.30959(12) 1.8038(6) 0.94846(16)
N1 N 0.27851(12) 0.5450(9) 0.67022(16)
N2 N 0.37095(10) 0.7520(6) 0.56968(15)
H1 H 0.3765 0.9201 0.5585
N3 N 0.71203(10) 0.8386(6) 0.89065(13)
N4 N 0.62576(10) 0.7026(5) 0.71457(13)
H2 H 0.6199 0.8855 0.7089
N5 N 0.41951(10) 1.5690(6) 0.27854(13)
N6 N 0.46519(9) 1.2825(6) 0.47158(13)
H3 H 0.4382 1.2596 0.4764
N7 N 0.30543(13) 1.0231(8) 0.81980(18)
N8 N 0.35274(14) 1.7744(8) 0.95999(17)
C1 C 0.23885(18) 0.4393(15) 0.6730(2)
H4 H 0.2435 0.3162 0.7054
C2 C 0.19242(18) 0.4955(17) 0.6328(3)
H5 H 0.1654 0.4126 0.6367
C3 C 0.18531(17) 0.6716(13) 0.5869(3)
H6 H 0.1530 0.7204 0.5586
C4 C 0.22612(17) 0.7818(12) 0.5815(2)
H7 H 0.2222 0.9030 0.5491
C5 C 0.27241(13) 0.7096(8) 0.62483(17)
C6 C 0.31821(14) 0.8096(9) 0.62098(19)
H8 H 0.3472 0.7511 0.6578
H9 H 0.3180 1.0192 0.6192
C7 C 0.32300(13) 0.6936(8) 0.56690(18)
H10 H 0.3175 0.4863 0.5646
H11 H 0.2974 0.7795 0.5300
C8 C 0.40676(13) 0.5624(7) 0.58835(16)
C9 C 0.45483(12) 0.6604(6) 0.59103(16)
C10 C 0.45590(12) 0.8560(6) 0.54920(16)
H12 H 0.4262 0.9295 0.5189
C11 C 0.70681(14) 1.0229(8) 0.92880(18)
H13 H 0.7342 1.1357 0.9535
C12 C 0.66376(15) 1.0554(8) 0.93369(19)
H14 H 0.6614 1.1876 0.9613
C13 C 0.62429(15) 0.8941(9) 0.8981(2)
H15 H 0.5941 0.9107 0.9009
C14 C 0.62896(13) 0.7066(8) 0.8581(2)
H16 H 0.6016 0.5963 0.8323
C15 C 0.67348(12) 0.6798(7) 0.85561(16)
C16 C 0.68060(12) 0.4765(7) 0.81417(16)
H17 H 0.6563 0.3216 0.8049
H18 H 0.7137 0.3917 0.8350
C17 C 0.67544(12) 0.6066(7) 0.75539(16)
H19 H 0.6980 0.7703 0.7648
H20 H 0.6861 0.4649 0.7340
C18 C 0.58968(12) 0.5208(7) 0.68611(16)
C19 C 0.54306(11) 0.6417(6) 0.63889(15)
C20 C 0.49816(12) 0.5470(6) 0.63427(15)
H21 H 0.4971 0.4043 0.6608
C21 C 0.41837(16) 1.7533(8) 0.23647(19)
H22 H 0.3875 1.7972 0.2041
C22 C 0.45958(16) 1.8805(8) 0.23807(18)
H23 H 0.4573 2.0097 0.2075
C23 C 0.50401(15) 1.8179(9) 0.28450(19)
H24 H 0.5332 1.9034 0.2868
C24 C 0.50577(13) 1.6298(8) 0.32772(17)
H25 H 0.5364 1.5841 0.3603
C25 C 0.46306(12) 1.5068(7) 0.32387(15)
C26 C 0.46360(13) 1.3084(7) 0.37123(16)
H26 H 0.4932 1.1868 0.3851
H27 H 0.4343 1.1843 0.3541
C27 C 0.46372(12) 1.4714(7) 0.42423(15)
H28 H 0.4926 1.5986 0.4406
H29 H 0.4339 1.5905 0.4103
C28 C 0.50519(11) 1.1437(6) 0.50773(15)
C29 C 0.50121(11) 0.9427(6) 0.55230(14)
C30 C 0.54430(11) 0.8384(6) 0.59750(14)
H30 H 0.5750 0.9016 0.6003
Ag1B Ag 0.787483(8) 0.81204(6) 0.889072(10)
Ag2_2 Ag 0.346376(11) 1.59386(7) 0.769625(14)
Ag2A Ag 0.346376(11) 1.40614(7) 0.269625(14)
O4_2 O 0.34020(14) 0.0777(7) 0.8089(2)
N3B N 0.21203(10) 1.3386(6) 0.89065(13)
N5A N 0.41951(10) 0.4310(6) 0.77854(13)
O8 O 0.09228(11) 0.1665(6) 0.48721(17)
H31 H 0.0752 0.0381 0.4923
H32 H 0.0951 0.1351 0.4554
loop_
_geom_bond_atom_site_label_1
_geom_bond_atom_site_label_2
_geom_bond_site_symmetry_1
_geom_bond_site_symmetry_2
Ag1 O6 1_555 1_555
Ag2 O4 1_555 1_555
O1 C8 1_555 1_555
O2 C18 1_555 1_555
O3 C28 1_555 1_555
O4 N7 1_555 1_555
O5 Ag2 1_555 1_555
O6 N8 1_555 1_555
O7 Ag1 1_555 1_555
N1 Ag2 1_555 1_555
N2 H1 1_555 1_555
N3 C11 1_555 1_555
N4 H2 1_555 1_555
N5 C21 1_555 1_555
N6 H3 1_555 1_555
N7 Ag1 1_555 1_555
N8 O7 1_555 1_555
C1 N1 1_555 1_555
H4 C1 1_555 1_555
C2 C1 1_555 1_555
H5 C2 1_555 1_555
C3 C2 1_555 1_555
H6 C3 1_555 1_555
C4 C3 1_555 1_555
H7 C4 1_555 1_555
C5 N1 1_555 1_555
C6 C5 1_555 1_555
H8 C6 1_555 1_555
H9 C6 1_555 1_555
C7 N2 1_555 1_555
H10 C7 1_555 1_555
H11 C7 1_555 1_555
C8 N2 1_555 1_555
C9 C8 1_555 1_555
C10 C9 1_555 1_555
H12 C10 1_555 1_555
C11 H13 1_555 1_555
C12 C11 1_555 1_555
H14 C12 1_555 1_555
C13 C12 1_555 1_555
H15 C13 1_555 1_555
C14 C13 1_555 1_555
H16 C14 1_555 1_555
C15 N3 1_555 1_555
C16 C15 1_555 1_555
H17 C16 1_555 1_555
H18 C16 1_555 1_555
C17 N4 1_555 1_555
H19 C17 1_555 1_555
H20 C17 1_555 1_555
C18 N4 1_555 1_555
C19 C18 1_555 1_555
C20 C9 1_555 1_555
H21 C20 1_555 1_555
C21 H22 1_555 1_555
C22 C21 1_555 1_555
H23 C22 1_555 1_555
C23 C22 1_555 1_555
H24 C23 1_555 1_555
C24 C23 1_555 1_555
H25 C24 1_555 1_555
C25 N5 1_555 1_555
C26 C25 1_555 1_555
H26 C26 1_555 1_555
H27 C26 1_555 1_555
C27 N6 1_555 1_555
H28 C27 1_555 1_555
H29 C27 1_555 1_555
C28 N6 1_555 1_555
C29 C10 1_555 1_555
C30 C19 1_555 1_555
H30 C30 1_555 1_555
O8 H31 1_555 1_555
H32 O8 1_555 1_555
Ag1B N3 1_555 1_555
Ag2_2 O4 1_555 1_555
Ag2A N5 1_555 1_555
O4_2 Ag2 1_555 1_555
N3B Ag1 1_555 1_555
N5A Ag2 1_555 1_555
O5 N7 1_555 1_555
C4 C5 1_555 1_555
C6 C7 1_555 1_555
C14 C15 1_555 1_555
C16 C17 1_555 1_555
C19 C20 1_555 1_555
C24 C25 1_555 1_555
C26 C27 1_555 1_555
C28 C29 1_555 1_555
C29 C30 1_555 1_555

#END
