
#######################################################################
#
#                 Cambridge Crystallographic Data Centre
#                                CCDC 
#
#######################################################################
#
# If this CIF has been generated from an entry in the Cambridge 
# Structural Database, then it will include bibliographic, chemical, 
# crystal, experimental, refinement or atomic coordinate data resulting 
# from the CCDC's data processing and validation procedures.
#
#######################################################################

data_FOVQAK
_symmetry_cell_setting           monoclinic
_symmetry_space_group_name_H-M   'C 2/c'
_symmetry_Int_Tables_number      15
_space_group_name_Hall           '-C 2yn'
loop_
_symmetry_equiv_pos_site_id
_symmetry_equiv_pos_as_xyz
1 x,y,z
2 -x,y,1/2-z
3 1/2+x,1/2+y,z
4 1/2-x,1/2+y,1/2-z
5 -x,-y,-z
6 x,-y,1/2+z
7 1/2-x,1/2-y,-z
8 1/2+x,1/2-y,1/2+z
_cell_length_a                   36.981(4)
_cell_length_b                   7.9533(10)
_cell_length_c                   14.8488(19)
_cell_angle_alpha                90
_cell_angle_beta                 99.859(2)
_cell_angle_gamma                90
_cell_volume                     4302.85
loop_
_atom_site_label
_atom_site_type_symbol
_atom_site_fract_x
_atom_site_fract_y
_atom_site_fract_z
O1 O 0.35231(10) 1.3377(5) 0.8930(2)
C1 C 0.33694(16) 1.2520(5) 0.8260(4)
O2 O 0.31611(9) 1.4864(4) 0.5925(3)
C2 C 0.28241(14) 1.4592(6) 0.5895(3)
Pb1 Pb 0.314058(5) 0.76466(2) 0.518468(12)
C3 C 0.39227(14) 1.1696(7) 0.6022(3)
H1 H 0.4043 1.1483 0.5533
C4 C 0.41142(19) 1.2243(8) 0.6828(5)
H2 H 0.4366 1.2416 0.6887
C5 C 0.39410(17) 1.2543(6) 0.7557(4)
H3 H 0.4076 1.2894 0.8112
C6 C 0.35660(16) 1.2324(6) 0.7465(4)
C7 C 0.33754(12) 1.1823(6) 0.6615(3)
C8 C 0.29721(12) 1.1598(6) 0.6447(3)
C9 C 0.27132(14) 1.2881(6) 0.6201(3)
C10 C 0.23513(16) 1.2506(6) 0.6203(4)
H4 H 0.2174 1.3332 0.6041
C11 C 0.22466(14) 1.0944(7) 0.6437(3)
H5 H 0.2003 1.0733 0.6477
C12 C 0.25028(13) 0.9685(7) 0.6613(3)
H6 H 0.2432 0.8601 0.6740
C13 C 0.40694(17) 0.7864(7) 0.5505(4)
H7 H 0.4004 0.8323 0.4924
C14 C 0.4431(2) 0.7748(9) 0.5849(6)
H8 H 0.4607 0.8118 0.5516
C15 C 0.4533(2) 0.7055(12) 0.6720(6)
C16 C 0.42560(18) 0.6574(10) 0.7183(4)
H9 H 0.4312 0.6162 0.7777
C17 C 0.39016(15) 0.6709(8) 0.6765(4)
H10 H 0.3719 0.6320 0.7073
C18 C 0.4936(4) 0.655(2) 0.7075(9)
H11 H 0.4969 0.5430 0.6850
H12 H 0.5089 0.7298 0.6784
N1 N 0.35560(10) 1.1461(5) 0.5927(2)
N2 N 0.28591(10) 1.0037(5) 0.6600(2)
N3 N 0.38001(14) 0.7378(5) 0.5927(3)
O3 O 0.31089(9) 0.8814(4) 0.6766(2)
O4 O 0.33713(9) 1.0845(4) 0.5153(2)
O5 O 0.25763(10) 1.5593(5) 0.5614(3)
O6 O 0.30741(10) 1.1801(6) 0.8246(2)
C13A C 0.59306(17) 0.7864(7) 0.9495(4)
H7A H 0.5996 0.8323 1.0076
C14A C 0.5569(2) 0.7748(9) 0.9151(6)
H8A H 0.5393 0.8118 0.9484
C15A C 0.5467(2) 0.7055(12) 0.8280(6)
C16A C 0.57440(18) 0.6574(10) 0.7817(4)
H9A H 0.5688 0.6162 0.7223
C17A C 0.60984(15) 0.6709(8) 0.8235(4)
H10A H 0.6281 0.6320 0.7927
C18A C 0.5064(4) 0.655(2) 0.7925(9)
H11A H 0.5031 0.5430 0.8150
H12A H 0.4911 0.7298 0.8216
N3A N 0.61999(14) 0.7378(5) 0.9073(3)
O1A O 0.64769(10) 1.3377(5) 0.6070(2)
C1A C 0.66306(16) 1.2520(5) 0.6740(4)
O2A O 0.68389(9) 1.4864(4) 0.9075(3)
C2A C 0.71759(14) 1.4592(6) 0.9105(3)
Pb1A Pb 0.685942(5) 0.76466(2) 0.981532(12)
C3A C 0.60773(14) 1.1696(7) 0.8978(3)
H1A H 0.5957 1.1483 0.9467
C4A C 0.58858(19) 1.2243(8) 0.8172(5)
H2A H 0.5634 1.2416 0.8113
C5A C 0.60590(17) 1.2543(6) 0.7443(4)
H3A H 0.5924 1.2894 0.6888
C6A C 0.64340(16) 1.2324(6) 0.7535(4)
C7A C 0.66246(12) 1.1823(6) 0.8385(3)
C8A C 0.70279(12) 1.1598(6) 0.8553(3)
C9A C 0.72868(14) 1.2881(6) 0.8799(3)
C10A C 0.76487(16) 1.2506(6) 0.8797(4)
H4A H 0.7826 1.3332 0.8959
C11A C 0.77534(14) 1.0944(7) 0.8563(3)
H5A H 0.7997 1.0733 0.8523
C12A C 0.74972(13) 0.9685(7) 0.8387(3)
H6A H 0.7568 0.8601 0.8260
N1A N 0.64440(10) 1.1461(5) 0.9073(2)
N2A N 0.71409(10) 1.0037(5) 0.8400(2)
O3A O 0.68911(9) 0.8814(4) 0.8234(2)
O4A O 0.66287(9) 1.0845(4) 0.9847(2)
O5A O 0.74237(10) 1.5593(5) 0.9386(3)
O6A O 0.69259(10) 1.1801(6) 0.6754(2)
O1D O 0.64769(10) 0.6623(5) 1.1070(2)
O1E O 0.35231(10) 0.6623(5) 0.3930(2)
O2_2 O 0.31611(9) 0.4864(4) 0.5925(3)
O2A_2 O 0.68389(9) 0.4864(4) 0.9075(3)
Pb1_2 Pb 0.314058(5) 1.76466(2) 0.518468(12)
Pb1A_2 Pb 0.685942(5) 1.76466(2) 0.981532(12)
Pb1D Pb 0.685942(5) 1.23534(2) 0.481532(12)
Pb1E Pb 0.314058(5) 1.23534(2) 1.018468(12)
O5_2 O 0.25763(10) 0.5593(5) 0.5614(3)
O5A_2 O 0.74237(10) 0.5593(5) 0.9386(3)
O6D O 0.69259(10) 0.8199(6) 1.1754(2)
O6E O 0.30741(10) 0.8199(6) 0.3246(2)
O7 O 0.36387(11) 0.1357(6) 0.3527(3)
H13 H 0.3474 0.1316 0.3046
H14 H 0.3554 0.1140 0.4017
O8 O 0.40366(11) 0.4163(5) 0.4297(3)
H15 H 0.3924 0.3385 0.3951
H16 H 0.3904 0.4987 0.4389
O9 O 0.49197(18) 0.1969(8) 0.8379(4)
H17 H 0.4928 0.0982 0.8635
H18 H 0.4688 0.2076 0.8294
O10 O 0.55662(14) 0.9565(7) 0.5966(4)
H19 H 0.5761 0.9167 0.6295
H20 H 0.5400 0.9001 0.5615
O11 O 0.52485(13) 0.6404(7) 0.4960(3)
H21 H 0.5401 0.5731 0.5264
H22 H 0.5292 0.6581 0.4425
loop_
_geom_bond_atom_site_label_1
_geom_bond_atom_site_label_2
_geom_bond_site_symmetry_1
_geom_bond_site_symmetry_2
O1 C1 1_555 1_555
C1 C6 1_555 1_555
O2 C2 1_555 1_555
C2 C9 1_555 1_555
Pb1 N3 1_555 1_555
C3 H1 1_555 1_555
C4 C3 1_555 1_555
H2 C4 1_555 1_555
C5 C4 1_555 1_555
H3 C5 1_555 1_555
C6 C5 1_555 1_555
C7 C6 1_555 1_555
C8 C7 1_555 1_555
C9 C8 1_555 1_555
C10 C9 1_555 1_555
H4 C10 1_555 1_555
C11 C10 1_555 1_555
H5 C11 1_555 1_555
C12 C11 1_555 1_555
H6 C12 1_555 1_555
C13 H7 1_555 1_555
C14 C13 1_555 1_555
H8 C14 1_555 1_555
C15 C14 1_555 1_555
C16 C15 1_555 1_555
H9 C16 1_555 1_555
C17 C16 1_555 1_555
H10 C17 1_555 1_555
C18 C15 1_555 1_555
H11 C18 1_555 1_555
H12 C18 1_555 1_555
N1 C3 1_555 1_555
N2 C8 1_555 1_555
N3 C13 1_555 1_555
O3 Pb1 1_555 1_555
O4 Pb1 1_555 1_555
O5 C2 1_555 1_555
O6 C1 1_555 1_555
O7 H13 1_555 1_555
H14 O7 1_555 1_555
O8 H15 1_555 1_555
H16 O8 1_555 1_555
O9 H17 1_555 1_555
H18 O9 1_555 1_555
O10 H19 1_555 1_555
H20 O10 1_555 1_555
O11 H21 1_555 1_555
H22 O11 1_555 1_555
C13A H7A 1_555 1_555
C14A C13A 1_555 1_555
H8A C14A 1_555 1_555
C15A C14A 1_555 1_555
C16A C15A 1_555 1_555
H9A C16A 1_555 1_555
C17A C16A 1_555 1_555
H10A C17A 1_555 1_555
C18A C18 1_555 1_555
H11A C18A 1_555 1_555
H12A C18A 1_555 1_555
N3A C13A 1_555 1_555
O1A C1A 1_555 1_555
C1A C6A 1_555 1_555
O2A C2A 1_555 1_555
C2A C9A 1_555 1_555
Pb1A N3A 1_555 1_555
C3A H1A 1_555 1_555
C4A C3A 1_555 1_555
H2A C4A 1_555 1_555
C5A C4A 1_555 1_555
H3A C5A 1_555 1_555
C6A C5A 1_555 1_555
C7A C6A 1_555 1_555
C8A C7A 1_555 1_555
C9A C8A 1_555 1_555
C10A C9A 1_555 1_555
H4A C10A 1_555 1_555
C11A C10A 1_555 1_555
H5A C11A 1_555 1_555
C12A C11A 1_555 1_555
H6A C12A 1_555 1_555
N1A C3A 1_555 1_555
N2A C8A 1_555 1_555
O3A Pb1A 1_555 1_555
O4A Pb1A 1_555 1_555
O5A C2A 1_555 1_555
O6A C1A 1_555 1_555
O1D Pb1A 1_555 1_555
O1E Pb1 1_555 1_555
O2_2 Pb1 1_555 1_555
O2A_2 Pb1A 1_555 1_555
Pb1_2 O2 1_555 1_555
Pb1A_2 O2A 1_555 1_555
Pb1D O1A 1_555 1_555
Pb1E O1 1_555 1_555
O5_2 Pb1 1_555 1_555
O5A_2 Pb1A 1_555 1_555
O6D Pb1A 1_555 1_555
O6E Pb1 1_555 1_555
C7 N1 1_555 1_555
C12 N2 1_555 1_555
C17 N3 1_555 1_555
N1 O4 1_555 1_555
N2 O3 1_555 1_555
O5 Pb1_2 1_555 1_555
O6 Pb1E 1_555 1_555
C15A C18A 1_555 1_555
C17A N3A 1_555 1_555
C7A N1A 1_555 1_555
C12A N2A 1_555 1_555
N1A O4A 1_555 1_555
N2A O3A 1_555 1_555
O5A Pb1A_2 1_555 1_555
O6A Pb1D 1_555 1_555

#END
