
#######################################################################
#
#                 Cambridge Crystallographic Data Centre
#                                CCDC 
#
#######################################################################
#
# If this CIF has been generated from an entry in the Cambridge 
# Structural Database, then it will include bibliographic, chemical, 
# crystal, experimental, refinement or atomic coordinate data resulting 
# from the CCDC's data processing and validation procedures.
#
#######################################################################

data_FOVQEO
_symmetry_cell_setting           monoclinic
_symmetry_space_group_name_H-M   'C 2/c'
_symmetry_Int_Tables_number      15
_space_group_name_Hall           '-C 2yn'
loop_
_symmetry_equiv_pos_site_id
_symmetry_equiv_pos_as_xyz
1 x,y,z
2 -x,y,1/2-z
3 1/2+x,1/2+y,z
4 1/2-x,1/2+y,1/2-z
5 -x,-y,-z
6 x,-y,1/2+z
7 1/2-x,1/2-y,-z
8 1/2+x,1/2-y,1/2+z
_cell_length_a                   37.119(4)
_cell_length_b                   7.9290(10)
_cell_length_c                   14.9221(17)
_cell_angle_alpha                90
_cell_angle_beta                 99.690(2)
_cell_angle_gamma                90
_cell_volume                     4329.16
loop_
_atom_site_label
_atom_site_type_symbol
_atom_site_fract_x
_atom_site_fract_y
_atom_site_fract_z
Pb1 Pb 0.185924(5) 0.73327(2) 0.482618(12)
O1 O 0.16253(9) 0.4132(4) 0.4856(2)
O2 O 0.18900(9) 0.6193(4) 0.3241(2)
O3 O 0.14804(10) 0.1591(5) 0.1082(2)
O4 O 0.19252(10) 0.3220(5) 0.1762(2)
O5 O 0.18358(9) 0.0112(4) 0.4084(2)
O6 O 0.24212(10) -0.0625(4) 0.4387(3)
N1 N 0.14417(10) 0.3520(5) 0.4080(3)
N2 N 0.21404(10) 0.4972(5) 0.3403(2)
N3 N 0.11994(12) 0.7597(5) 0.4091(3)
C1 C 0.10811(14) 0.3270(7) 0.3990(4)
H1 H 0.0963 0.3466 0.4482
C2 C 0.08841(15) 0.2728(6) 0.3179(4)
H2 H 0.0633 0.2567 0.3122
C3 C 0.10585(14) 0.2424(6) 0.2454(4)
H3 H 0.0926 0.2063 0.1902
C4 C 0.14334(13) 0.2658(5) 0.2547(3)
C5 C 0.16224(13) 0.3164(5) 0.3391(3)
C6 C 0.20278(13) 0.3387(5) 0.3560(3)
C7 C 0.22865(13) 0.2109(6) 0.3803(3)
C8 C 0.26447(14) 0.2462(6) 0.3784(3)
H4 H 0.2820 0.1622 0.3922
C9 C 0.27485(14) 0.4061(6) 0.3561(3)
H5 H 0.2992 0.4283 0.3526
C10 C 0.24946(13) 0.5314(6) 0.3392(3)
H6 H 0.2566 0.6403 0.3270
C11 C 0.09308(15) 0.7119(6) 0.4546(4)
H7 H 0.0997 0.6676 0.5128
C12 C 0.05671(15) 0.7253(7) 0.4193(4)
H8 H 0.0392 0.6933 0.4539
C13 C 0.04592(15) 0.7873(7) 0.3309(4)
C14 C 0.07340(15) 0.8356(7) 0.2843(3)
H9 H 0.0677 0.8778 0.2255
C15 C 0.10952(15) 0.8207(7) 0.3258(4)
H10 H 0.1276 0.8553 0.2934
C16 C 0.00685(15) 0.7934(7) 0.2934(4)
H11 H -0.0095 0.7976 0.3343
C17 C 0.16346(14) 0.2478(6) 0.1744(3)
C18 C 0.21722(14) 0.0397(6) 0.4111(3)
N3A N -0.11994(12) 0.7597(5) 0.0909(3)
C11A C -0.09308(15) 0.7119(6) 0.0454(4)
H7A H -0.0997 0.6676 -0.0128
C12A C -0.05671(15) 0.7253(7) 0.0807(4)
H8A H -0.0392 0.6933 0.0461
C13A C -0.04592(15) 0.7873(7) 0.1691(4)
C14A C -0.07340(15) 0.8356(7) 0.2157(3)
H9A H -0.0677 0.8778 0.2745
C15A C -0.10952(15) 0.8207(7) 0.1742(4)
H10A H -0.1276 0.8553 0.2066
C16A C -0.00685(15) 0.7934(7) 0.2066(4)
H11A H 0.0095 0.7976 0.1657
Pb1A Pb -0.185924(5) 0.73327(2) 0.017382(12)
O1A O -0.16253(9) 0.4132(4) 0.0144(2)
O2A O -0.18900(9) 0.6193(4) 0.1759(2)
O3A O -0.14804(10) 0.1591(5) 0.3918(2)
O4A O -0.19252(10) 0.3220(5) 0.3238(2)
O5A O -0.18358(9) 0.0112(4) 0.0916(2)
O6A O -0.24212(10) -0.0625(4) 0.0613(3)
N1A N -0.14417(10) 0.3520(5) 0.0920(3)
N2A N -0.21404(10) 0.4972(5) 0.1597(2)
C1A C -0.10811(14) 0.3270(7) 0.1010(4)
H1A H -0.0963 0.3466 0.0518
C2A C -0.08841(15) 0.2728(6) 0.1821(4)
H2A H -0.0633 0.2567 0.1878
C3A C -0.10585(14) 0.2424(6) 0.2546(4)
H3A H -0.0926 0.2063 0.3098
C4A C -0.14334(13) 0.2658(5) 0.2453(3)
C5A C -0.16224(13) 0.3164(5) 0.1609(3)
C6A C -0.20278(13) 0.3387(5) 0.1440(3)
C7A C -0.22865(13) 0.2109(6) 0.1197(3)
C8A C -0.26447(14) 0.2462(6) 0.1216(3)
H4A H -0.2820 0.1622 0.1078
C9A C -0.27485(14) 0.4061(6) 0.1439(3)
H5A H -0.2992 0.4283 0.1474
C10A C -0.24946(13) 0.5314(6) 0.1608(3)
H6A H -0.2566 0.6403 0.1730
C17A C -0.16346(14) 0.2478(6) 0.3256(3)
C18A C -0.21722(14) 0.0397(6) 0.0889(3)
Pb1_2 Pb 0.185924(5) -0.26673(2) 0.482618(12)
Pb1A_2 Pb -0.185924(5) -0.26673(2) 0.017382(12)
Pb1D Pb -0.185924(5) 0.26673(2) 0.517382(12)
Pb1E Pb 0.185924(5) 0.26673(2) -0.017382(12)
O3D O -0.14804(10) 0.8409(5) -0.1082(2)
O3E O 0.14804(10) 0.8409(5) 0.6082(2)
O4D O -0.19252(10) 0.6780(5) -0.1762(2)
O4E O 0.19252(10) 0.6780(5) 0.6762(2)
O5_2 O 0.18358(9) 1.0112(4) 0.4084(2)
O5A_2 O -0.18358(9) 1.0112(4) 0.0916(2)
O6_2 O 0.24212(10) 0.9375(4) 0.4387(3)
O6A_2 O -0.24212(10) 0.9375(4) 0.0613(3)
O7 O 0.0079(2) 0.6920(11) 0.6619(4)
H12 H 0.024(2) 0.628(11) 0.650(7)
H13 H 0.002(5) 0.770(19) 0.627(11)
O8 O 0.02503(13) 0.1396(7) 0.4949(3)
H15 H 0.0098 0.0658 0.4776
H16 H 0.0472 0.1091 0.4969
O9 O 0.13616(11) 0.3656(6) 0.6485(3)
H19 H 0.1404(15) 0.377(9) 0.5964(14)
H20 H 0.1545(9) 0.360(10) 0.688(3)
O10 O 0.09556(12) 0.0838(6) 0.5740(4)
H21 H 0.1068(15) -0.004(5) 0.568(5)
H22 H 0.1083(14) 0.158(6) 0.603(5)
O11 O 0.05647(16) 0.4564(6) 0.5984(4)
H23 H 0.0430(16) 0.383(7) 0.571(6)
H24 H 0.0776(8) 0.425(9) 0.617(6)
H14? H 0.005(5) 0.70(2) 0.715(3)
H17? H 0.0246 0.1808 0.4435
H18? H 0.0458 0.1057 0.5213
loop_
_geom_bond_atom_site_label_1
_geom_bond_atom_site_label_2
_geom_bond_site_symmetry_1
_geom_bond_site_symmetry_2
Pb1 O1 1_555 1_555
O1 N1 1_555 1_555
O2 Pb1 1_555 1_555
O3 C17 1_555 1_555
O4 C17 1_555 1_555
O5 C18 1_555 1_555
O6 C18 1_555 1_555
N1 C1 1_555 1_555
N2 O2 1_555 1_555
N3 Pb1 1_555 1_555
C1 H1 1_555 1_555
C2 C1 1_555 1_555
H2 C2 1_555 1_555
C3 C2 1_555 1_555
H3 C3 1_555 1_555
C4 C3 1_555 1_555
C5 N1 1_555 1_555
C6 N2 1_555 1_555
C7 C6 1_555 1_555
C8 C7 1_555 1_555
H4 C8 1_555 1_555
C9 C8 1_555 1_555
H5 C9 1_555 1_555
C10 N2 1_555 1_555
H6 C10 1_555 1_555
C11 N3 1_555 1_555
H7 C11 1_555 1_555
C12 C11 1_555 1_555
H8 C12 1_555 1_555
C13 C12 1_555 1_555
C14 C13 1_555 1_555
H9 C14 1_555 1_555
C15 N3 1_555 1_555
H10 C15 1_555 1_555
C16 C13 1_555 1_555
H11 C16 1_555 1_555
C17 C4 1_555 1_555
C18 C7 1_555 1_555
O7 H12 1_555 1_555
H13 O7 1_555 1_555
O8 H15 1_555 1_555
H16 O8 1_555 1_555
O9 H19 1_555 1_555
H20 O9 1_555 1_555
O10 H21 1_555 1_555
H22 O10 1_555 1_555
O11 H23 1_555 1_555
H24 O11 1_555 1_555
N3A C11A 1_555 1_555
C11A H7A 1_555 1_555
C12A C11A 1_555 1_555
H8A C12A 1_555 1_555
C13A C12A 1_555 1_555
C14A C13A 1_555 1_555
H9A C14A 1_555 1_555
C15A N3A 1_555 1_555
H10A C15A 1_555 1_555
C16A C16 1_555 1_555
H11A C16A 1_555 1_555
Pb1A N3A 1_555 1_555
O1A Pb1A 1_555 1_555
O2A Pb1A 1_555 1_555
O3A C17A 1_555 1_555
O4A C17A 1_555 1_555
O5A C18A 1_555 1_555
O6A C18A 1_555 1_555
N1A O1A 1_555 1_555
N2A O2A 1_555 1_555
C1A N1A 1_555 1_555
H1A C1A 1_555 1_555
C2A C1A 1_555 1_555
H2A C2A 1_555 1_555
C3A C2A 1_555 1_555
H3A C3A 1_555 1_555
C4A C3A 1_555 1_555
C5A N1A 1_555 1_555
C6A N2A 1_555 1_555
C7A C6A 1_555 1_555
C8A C7A 1_555 1_555
H4A C8A 1_555 1_555
C9A C8A 1_555 1_555
H5A C9A 1_555 1_555
C10A N2A 1_555 1_555
H6A C10A 1_555 1_555
C17A C4A 1_555 1_555
C18A C7A 1_555 1_555
Pb1_2 O5 1_555 1_555
Pb1A_2 O5A 1_555 1_555
Pb1D O3A 1_555 1_555
Pb1E O3 1_555 1_555
O3D Pb1A 1_555 1_555
O3E Pb1 1_555 1_555
O4D Pb1A 1_555 1_555
O4E Pb1 1_555 1_555
O5_2 Pb1 1_555 1_555
O5A_2 Pb1A 1_555 1_555
O6_2 Pb1 1_555 1_555
O6A_2 Pb1A 1_555 1_555
O4 Pb1E 1_555 1_555
O6 Pb1_2 1_555 1_555
C4 C5 1_555 1_555
C5 C6 1_555 1_555
C9 C10 1_555 1_555
C14 C15 1_555 1_555
C13A C16A 1_555 1_555
C14A C15A 1_555 1_555
O4A Pb1D 1_555 1_555
O6A Pb1A_2 1_555 1_555
C4A C5A 1_555 1_555
C5A C6A 1_555 1_555
C9A C10A 1_555 1_555

#END
