
#######################################################################
#
#                 Cambridge Crystallographic Data Centre
#                                CCDC 
#
#######################################################################
#
# If this CIF has been generated from an entry in the Cambridge 
# Structural Database, then it will include bibliographic, chemical, 
# crystal, experimental, refinement or atomic coordinate data resulting 
# from the CCDC's data processing and validation procedures.
#
#######################################################################

data_FOVTER
_symmetry_cell_setting           monoclinic
_symmetry_space_group_name_H-M   'P 21/n'
_symmetry_Int_Tables_number      14
_space_group_name_Hall           '-P 2yn'
loop_
_symmetry_equiv_pos_site_id
_symmetry_equiv_pos_as_xyz
1 x,y,z
2 1/2-x,1/2+y,1/2-z
3 -x,-y,-z
4 1/2+x,1/2-y,1/2+z
_cell_length_a                   17.7418(2)
_cell_length_b                   14.7801(2)
_cell_length_c                   29.7778(4)
_cell_angle_alpha                90
_cell_angle_beta                 93.4060(10)
_cell_angle_gamma                90
_cell_volume                     7794.71
loop_
_atom_site_label
_atom_site_type_symbol
_atom_site_fract_x
_atom_site_fract_y
_atom_site_fract_z
Ag1 Ag 0.925518(16) 0.26570(2) 0.534940(9)
Ag2 Ag 0.903955(16) 0.34800(2) 0.674321(9)
Ag3 Ag 1.043439(16) 0.18726(2) 0.594983(10)
Ag4 Ag 0.809516(16) 0.26070(2) 0.601744(9)
Ag5 Ag 0.829018(16) 0.32657(2) 0.458136(9)
Ag6 Ag 1.380709(18) 0.28176(3) 0.577212(12)
Ag7 Ag 0.711003(17) 0.15678(2) 0.537857(11)
N1 N 0.81720(19) 0.2971(2) 0.71665(11)
N2 N 0.9171(2) 0.2789(2) 0.41676(11)
N3 N 0.95532(19) 0.1455(2) 0.63776(11)
N4 N 1.0628(2) 0.4794(2) 0.59244(11)
N5 N 0.87872(19) 0.1523(2) 0.63268(11)
N6 N 1.0387(2) 0.1482(2) 0.49830(11)
N7 N 0.97302(19) 0.3756(2) 0.57636(11)
N8 N 0.75436(19) 0.3700(2) 0.50909(11)
N9 N 1.01351(19) 0.3627(2) 0.48703(11)
N10 N 0.8033(2) 0.1181(2) 0.50010(12)
N11 N 0.96849(19) 0.4001(2) 0.62064(11)
N12 N 0.9060(2) 0.0489(3) 0.68600(12)
H1 H 0.9016 0.0072 0.7067
N13 N 1.1032(2) 0.1048(3) 0.67030(12)
N14 N 0.7807(2) 0.2345(3) 0.78010(13)
N15 N 0.61063(19) 0.1914(3) 0.57005(12)
N16 N 0.7179(2) 0.2716(3) 0.75763(12)
N17 N 0.87782(19) 0.1418(2) 0.50643(11)
N18 N 1.0185(2) 0.2539(3) 0.37793(12)
N19 N 0.9588(2) 0.2097(3) 0.35669(12)
N20 N 0.65397(19) 0.4446(3) 0.53268(11)
N21 N 1.1802(2) 0.3425(3) 0.69774(14)
N22 N 1.2615(2) 0.2712(3) 0.55050(13)
C1 C 0.9164(3) 0.2261(3) 0.76748(14)
N23 N 1.1441(2) 0.2290(3) 0.56375(12)
N24 N 0.75141(19) 0.3542(2) 0.55406(11)
N25 N 0.8674(2) 0.0376(3) 0.45184(12)
N26 N 0.4961(2) 0.2369(3) 0.58731(13)
N27 N 1.0069(2) 0.4650(3) 0.70800(12)
N28 N 0.7399(2) 0.1031(3) 0.32131(14)
C2 C 0.8235(2) 0.1937(3) 0.36856(14)
N29 N 1.2967(2) 0.3039(3) 0.64181(14)
N30 N 0.7246(2) 0.4295(3) 0.42063(12)
N31 N 0.9704(2) 0.2650(3) 0.74431(12)
N32 N 0.7129(2) 0.3562(2) 0.64368(12)
N33 N 1.1244(2) 0.0084(3) 0.75100(12)
C3 C 1.1621(2) 0.2067(3) 0.52179(14)
N34 N 0.7230(2) 0.1276(3) 0.63882(12)
C4 C 0.8002(3) 0.0565(3) 0.46695(15)
C5 C 1.0416(3) 0.2482(3) 0.75845(15)
H2 H 1.0815 0.2750 0.7432
C6 C 0.7427(2) 0.3072(3) 0.71970(14)
C7 C 0.6961(2) 0.4234(3) 0.49837(13)
C8 C 1.0566(2) 0.4127(3) 0.51577(13)
C9 C 1.0387(2) 0.3491(3) 0.44586(14)
C10 C 0.5966(2) 0.4342(3) 0.62260(14)
H3 H 0.5653 0.4628 0.5998
C11 C 1.2236(2) 0.2993(3) 0.62701(15)
C12 C 0.8999(2) 0.2263(3) 0.38059(13)
N35 N 0.4689(2) 0.3261(3) 0.50627(13)
N36 N 1.0060(2) 0.1506(3) 0.81722(13)
C13 C 1.0228(2) 0.4629(3) 0.62818(14)
C14 C 1.0461(2) 0.0658(3) 0.68954(14)
C15 C 0.9691(2) 0.0838(3) 0.66998(13)
N37 N 0.5291(2) 0.1974(3) 0.62504(13)
C16 C 1.0226(3) 0.0463(3) 0.43554(15)
H4 H 0.9896 0.0111 0.4163
C17 C 1.1070(2) 0.3835(3) 0.43279(14)
H5 H 1.1233 0.3717 0.4035
N38 N 1.2316(2) 0.2307(3) 0.51249(13)
C18 C 0.8375(2) 0.2511(3) 0.75463(13)
C19 C 0.9911(2) 0.2947(3) 0.41391(13)
C20 C 1.1507(2) 0.4349(3) 0.46282(15)
H6 H 1.1974 0.4594 0.4545
N39 N 0.7672(2) 0.2259(3) 0.39163(13)
N40 N 0.5889(2) 0.5196(3) 0.39718(13)
C21 C 0.6767(2) 0.4532(3) 0.45141(13)
C22 C 1.0436(2) 0.4977(3) 0.67343(14)
C23 C 0.7711(3) 0.0846(3) 0.66904(14)
N41 N 1.1334(2) 0.5773(3) 0.72196(14)
C24 C 0.9953(2) 0.0965(3) 0.47027(14)
C25 C 0.6228(2) 0.3882(3) 0.69890(14)
H7 H 0.6096 0.3856 0.7293
C26 C 1.0298(2) 0.4244(3) 0.56129(14)
C27 C 0.9136(2) 0.0921(3) 0.47697(14)
C28 C 1.1127(2) 0.1520(3) 0.49074(14)
C29 C 0.6658(2) 0.3969(3) 0.61307(13)
C30 C 0.5461(2) 0.2333(3) 0.55561(15)
C31 C 1.0563(3) 0.0159(3) 0.72919(14)
H8 H 1.0141 -0.0135 0.7410
C32 C 0.8516(2) 0.0942(3) 0.66227(13)
C33 C 0.5967(2) 0.1707(3) 0.61339(15)
C34 C 0.6907(2) 0.4001(3) 0.56675(14)
C35 C 0.5265(2) 0.2684(3) 0.51001(15)
N42 N 0.5446(3) 0.2707(4) 0.43091(15)
C36 C 0.5745(2) 0.4282(3) 0.66663(15)
H9 H 0.5270 0.4513 0.6743
C37 C 0.7033(2) 0.4491(3) 0.37760(14)
H10 H 0.7353 0.4330 0.3544
C38 C 0.6352(3) 0.4925(3) 0.36643(14)
H11 H 0.6213 0.5032 0.3356
C39 C 0.6975(3) 0.1970(4) 0.37913(16)
H12 H 0.6561 0.2187 0.3949
C40 C 0.9342(3) 0.1682(3) 0.80332(14)
H13 H 0.8945 0.1404 0.8184
C41 C 1.1451(3) 0.1031(3) 0.45695(15)
H14 H 1.1978 0.1071 0.4530
C42 C 1.1669(3) 0.3198(3) 0.65545(17)
H15 H 1.1159 0.3172 0.6437
C43 C 1.0349(3) 0.4873(3) 0.74946(14)
H16 H 1.0102 0.4660 0.7749
C44 C 1.0587(3) 0.1924(3) 0.79493(15)
H17 H 1.1103 0.1835 0.8045
C45 C 1.1814(3) 0.0511(3) 0.73250(15)
H18 H 1.2300 0.0497 0.7476
C46 C 1.1052(3) 0.5566(3) 0.68061(16)
H19 H 1.1275 0.5825 0.6554
N43 N 0.6643(3) 0.0417(4) 0.46019(19)
C47 C 0.7465(3) 0.0352(4) 0.70488(17)
H20 H 0.7816 0.0056 0.7253
C48 C 1.1253(2) 0.4507(3) 0.50573(14)
H21 H 1.1539 0.4861 0.5272
C49 C 1.1718(3) 0.0973(3) 0.69198(15)
H22 H 1.2144 0.1240 0.6793
C50 C 0.6839(3) 0.1369(3) 0.34430(15)
H23 H 0.6334 0.1190 0.3364
C51 C 0.6494(3) 0.1227(3) 0.64541(15)
C52 C 0.6104(3) 0.4996(3) 0.43997(14)
H24 H 0.5791 0.5179 0.4632
C53 C 0.6908(2) 0.3517(3) 0.68645(14)
C54 C 1.2092(2) 0.2690(3) 0.58060(15)
N44 N 0.6764(3) -0.0771(3) 0.38769(19)
C55 C 1.2529(3) 0.3461(4) 0.71265(18)
H25 H 1.2653 0.3620 0.7431
C56 C 1.0988(3) 0.5405(4) 0.75606(16)
H26 H 1.1186 0.5512 0.7859
C57 C 1.0998(3) 0.0489(4) 0.42950(15)
H27 H 1.1208 0.0137 0.4067
C58 C 0.8090(3) 0.1318(4) 0.33371(16)
H28 H 0.8503 0.1092 0.3182
C59 C 0.6207(3) 0.0745(4) 0.6811(2)
H29 H 0.5679 0.0730 0.6849
C60 C 0.5646(3) 0.2403(4) 0.47228(18)
H30 H 0.6055 0.1989 0.4763
C61 C 0.4875(3) 0.3300(4) 0.42783(18)
H31 H 0.4723 0.3546 0.3992
C62 C 0.4501(3) 0.3564(4) 0.46474(16)
H32 H 0.4093 0.3977 0.4606
C63 C 1.3105(3) 0.3272(4) 0.68448(18)
H33 H 1.3614 0.3310 0.6962
C64 C 0.7362(3) -0.0443(3) 0.41061(19)
H34 H 0.7848 -0.0624 0.4024
C65 C 0.7310(3) 0.0155(3) 0.44622(17)
C66 C 0.6694(3) 0.0299(5) 0.7103(2)
H35 H 0.6509 -0.0046 0.7342
C67 C 0.6103(4) -0.0503(4) 0.4011(3)
H36 H 0.5656 -0.0716 0.3855
C68 C 0.6038(4) 0.0080(5) 0.4376(3)
H37 H 0.5550 0.0241 0.4464
Ag6_2 Ag 0.380709(18) 0.28176(3) 0.577212(12)
N26_2 N 1.4961(2) 0.2369(3) 0.58731(13)
loop_
_geom_bond_atom_site_label_1
_geom_bond_atom_site_label_2
_geom_bond_site_symmetry_1
_geom_bond_site_symmetry_2
Ag1 N7 1_555 1_555
Ag2 N1 1_555 1_555
Ag3 N3 1_555 1_555
Ag4 N5 1_555 1_555
Ag5 N2 1_555 1_555
Ag6 N22 1_555 1_555
Ag7 N10 1_555 1_555
N1 C6 1_555 1_555
N2 C12 1_555 1_555
N3 N5 1_555 1_555
N4 C13 1_555 1_555
N5 C32 1_555 1_555
N6 C24 1_555 1_555
N7 N11 1_555 1_555
N8 Ag5 1_555 1_555
N9 Ag1 1_555 1_555
N10 N17 1_555 1_555
N11 Ag2 1_555 1_555
N12 H1 1_555 1_555
N13 Ag3 1_555 1_555
N14 N16 1_555 1_555
N15 Ag7 1_555 1_555
N16 C6 1_555 1_555
N17 Ag1 1_555 1_555
N18 N19 1_555 1_555
N19 C12 1_555 1_555
N20 C7 1_555 1_555
N21 C42 1_555 1_555
N22 N38 1_555 1_555
C1 N31 1_555 1_555
N23 Ag3 1_555 1_555
N24 Ag4 1_555 1_555
N25 C4 1_555 1_555
N26 N37 1_555 1_555
N27 Ag2 1_555 1_555
N28 C50 1_555 1_555
C2 C12 1_555 1_555
N29 Ag6 1_555 1_555
N30 Ag5 1_555 1_555
N31 Ag2 1_555 1_555
N32 Ag4 1_555 1_555
N33 C31 1_555 1_555
C3 N23 1_555 1_555
N34 C23 1_555 1_555
C4 N10 1_555 1_555
C5 N31 1_555 1_555
H2 C5 1_555 1_555
C6 C53 1_555 1_555
C7 N8 1_555 1_555
C8 N9 1_555 1_555
C9 N9 1_555 1_555
C10 H3 1_555 1_555
C11 N29 1_555 1_555
N35 C35 1_555 1_555
N36 C40 1_555 1_555
C13 N11 1_555 1_555
C14 N13 1_555 1_555
C15 N3 1_555 1_555
N37 C33 1_555 1_555
C16 H4 1_555 1_555
C17 C9 1_555 1_555
H5 C17 1_555 1_555
N38 C3 1_555 1_555
C18 N1 1_555 1_555
C19 N2 1_555 1_555
C20 C17 1_555 1_555
H6 C20 1_555 1_555
N39 Ag5 1_555 1_555
N40 C38 1_555 1_555
C21 N30 1_555 1_555
C22 N27 1_555 1_555
C23 C32 1_555 1_555
N41 C46 1_555 1_555
C24 C16 1_555 1_555
C25 H7 1_555 1_555
C26 N4 1_555 1_555
C27 N17 1_555 1_555
C28 N6 1_555 1_555
C29 N32 1_555 1_555
C30 N15 1_555 1_555
C31 C14 1_555 1_555
H8 C31 1_555 1_555
C32 N12 1_555 1_555
C33 N15 1_555 1_555
C34 N20 1_555 1_555
C35 C30 1_555 1_555
N42 C60 1_555 1_555
C36 C10 1_555 1_555
H9 C36 1_555 1_555
C37 N30 1_555 1_555
H10 C37 1_555 1_555
C38 C37 1_555 1_555
H11 C38 1_555 1_555
C39 N39 1_555 1_555
H12 C39 1_555 1_555
C40 C1 1_555 1_555
H13 C40 1_555 1_555
C41 C28 1_555 1_555
H14 C41 1_555 1_555
C42 C11 1_555 1_555
H15 C42 1_555 1_555
C43 N27 1_555 1_555
H16 C43 1_555 1_555
C44 C5 1_555 1_555
H17 C44 1_555 1_555
C45 N33 1_555 1_555
H18 C45 1_555 1_555
C46 C22 1_555 1_555
H19 C46 1_555 1_555
N43 C65 1_555 1_555
C47 C23 1_555 1_555
H20 C47 1_555 1_555
C48 C8 1_555 1_555
H21 C48 1_555 1_555
C49 N13 1_555 1_555
H22 C49 1_555 1_555
C50 C39 1_555 1_555
H23 C50 1_555 1_555
C51 N34 1_555 1_555
C52 N40 1_555 1_555
H24 C52 1_555 1_555
C53 N32 1_555 1_555
C54 N22 1_555 1_555
N44 C64 1_555 1_555
C55 N21 1_555 1_555
H25 C55 1_555 1_555
C56 N41 1_555 1_555
H26 C56 1_555 1_555
C57 C16 1_555 1_555
H27 C57 1_555 1_555
C58 N28 1_555 1_555
H28 C58 1_555 1_555
C59 C51 1_555 1_555
H29 C59 1_555 1_555
C60 C35 1_555 1_555
H30 C60 1_555 1_555
C61 N42 1_555 1_555
H31 C61 1_555 1_555
C62 N35 1_555 1_555
H32 C62 1_555 1_555
C63 N29 1_555 1_555
H33 C63 1_555 1_555
C64 H34 1_555 1_555
C65 C4 1_555 1_555
C66 C47 1_555 1_555
H35 C66 1_555 1_555
C67 N44 1_555 1_555
H36 C67 1_555 1_555
C68 N43 1_555 1_555
H37 C68 1_555 1_555
Ag6_2 N26 1_555 1_555
N26_2 Ag6 1_555 1_555
N7 C26 1_555 1_555
N8 N24 1_555 1_555
N12 C15 1_555 1_555
N14 C18 1_555 1_555
N18 C19 1_555 1_555
C1 C18 1_555 1_555
N23 C54 1_555 1_555
N24 C34 1_555 1_555
N25 C27 1_555 1_555
N26 C30 1_555 1_555
C2 N39 1_555 1_555
C2 C58 1_555 1_555
C3 C28 1_555 1_555
C7 C21 1_555 1_555
C8 C26 1_555 1_555
C9 C19 1_555 1_555
C10 C29 1_555 1_555
C11 C54 1_555 1_555
N36 C44 1_555 1_555
C13 C22 1_555 1_555
C14 C15 1_555 1_555
C20 C48 1_555 1_555
C21 C52 1_555 1_555
C24 C27 1_555 1_555
C25 C36 1_555 1_555
C25 C53 1_555 1_555
C29 C34 1_555 1_555
C33 C51 1_555 1_555
C41 C57 1_555 1_555
C43 C56 1_555 1_555
C45 C49 1_555 1_555
C55 C63 1_555 1_555
C59 C66 1_555 1_555
C61 C62 1_555 1_555
C64 C65 1_555 1_555
C67 C68 1_555 1_555

#END
