
#######################################################################
#
#                 Cambridge Crystallographic Data Centre
#                                CCDC 
#
#######################################################################
#
# If this CIF has been generated from an entry in the Cambridge 
# Structural Database, then it will include bibliographic, chemical, 
# crystal, experimental, refinement or atomic coordinate data resulting 
# from the CCDC's data processing and validation procedures.
#
#######################################################################

data_FOVZOG
_symmetry_cell_setting           monoclinic
_symmetry_space_group_name_H-M   'P 21/c'
_symmetry_Int_Tables_number      14
_space_group_name_Hall           '-P 2ybc'
loop_
_symmetry_equiv_pos_site_id
_symmetry_equiv_pos_as_xyz
1 x,y,z
2 -x,1/2+y,1/2-z
3 -x,-y,-z
4 x,1/2-y,1/2+z
_cell_length_a                   11.9439(15)
_cell_length_b                   9.8058(13)
_cell_length_c                   21.585(3)
_cell_angle_alpha                90
_cell_angle_beta                 104.212(2)
_cell_angle_gamma                90
_cell_volume                     2450.65
loop_
_atom_site_label
_atom_site_type_symbol
_atom_site_fract_x
_atom_site_fract_y
_atom_site_fract_z
C1 C 0.6479(3) 0.3188(4) 0.83315(16)
C2 C 0.7447(3) 0.3069(4) 0.88465(17)
H1 H 0.7856 0.2256 0.8936
C3 C 0.7760(4) 0.4204(4) 0.92092(18)
H2 H 0.8402 0.4166 0.9554
C4 C 0.7145(3) 0.5429(4) 0.90794(17)
H3 H 0.7387 0.6179 0.9342
C5 C 0.6201(3) 0.5554(4) 0.85786(17)
H4 H 0.5793 0.6368 0.8493
C6 C 0.5877(3) 0.4396(4) 0.81994(17)
C7 C 0.1821(3) 0.4217(3) 0.60887(17)
C8 C 0.0800(4) 0.4131(4) 0.6293(2)
H5 H 0.0773 0.4388 0.6704
C9 C -0.0156(4) 0.3656(4) 0.5864(2)
H6 H -0.0846 0.3580 0.5988
C10 C -0.0127(4) 0.3280(4) 0.5245(2)
H7 H -0.0800 0.2968 0.4966
C11 C 0.0852(4) 0.3356(4) 0.50407(19)
H8 H 0.0866 0.3100 0.4628
C12 C 0.1840(3) 0.3832(4) 0.54704(17)
C13 C 0.1248(3) 0.4877(4) 0.83554(17)
C14 C 0.1554(3) 0.5604(4) 0.78660(17)
C15 C 0.0800(4) 0.6553(4) 0.75005(18)
H9 H 0.1003 0.7054 0.7179
C16 C -0.0249(4) 0.6710(4) 0.7637(2)
H10 H -0.0774 0.7330 0.7402
C17 C -0.0556(4) 0.5959(5) 0.8124(2)
H11 H -0.1284 0.6087 0.8198
C18 C 0.0170(3) 0.5059(4) 0.84886(19)
H12 H -0.0037 0.4579 0.8815
N1 N 0.5952(3) 0.2264(3) 0.78762(14)
N2 N 0.5060(3) 0.2896(3) 0.74886(15)
N3 N 0.5003(3) 0.4185(3) 0.76708(14)
N4 N 0.2938(3) 0.4007(3) 0.54137(14)
N5 N 0.3569(3) 0.4464(3) 0.59662(15)
N6 N 0.2912(2) 0.4601(3) 0.63867(13)
N7 N 0.2144(3) 0.4034(3) 0.86208(15)
N8 N 0.2947(3) 0.4209(3) 0.82976(14)
N9 N 0.2615(3) 0.5154(3) 0.78374(14)
Zn1 Zn 0.36481(4) 0.53198(4) 0.72486(2)
N1A N 0.4048(3) 0.7264(3) 0.71238(14)
Zn1A Zn 0.63519(4) 0.03198(4) 0.77514(2)
C19 C 0.2867(4) -0.0562(4) 0.8168(2)
H13 H 0.2170 -0.1089 0.8047
H14 H 0.3514 -0.1161 0.8313
H15 H 0.2968 -0.0051 0.7806
C20 C 0.2788(3) 0.0409(4) 0.86994(18)
H16 H 0.2128 0.1006 0.8552
H17 H 0.2664 -0.0109 0.9060
C21 C 0.3860(3) 0.1259(4) 0.89145(18)
H18 H 0.4518 0.0673 0.9085
H19 H 0.4006 0.1756 0.8554
C22 C 0.4728(3) 0.3076(4) 0.97182(18)
H20 H 0.4487 0.3792 0.9967
H21 H 0.5027 0.3506 0.9388
C23 C 0.5670(4) 0.2259(4) 1.0144(2)
H22 H 0.6029 0.1676 0.9885
H23 H 0.5343 0.1681 1.0419
C24 C 0.6569(4) 0.3179(4) 1.0548(2)
H24 H 0.7161 0.2636 1.0818
H25 H 0.6215 0.3751 1.0807
H26 H 0.6905 0.3738 1.0275
N10 N 0.3708(3) 0.2231(3) 0.94134(14)
H27 H 0.3495 0.1755 0.9722
H28 H 0.3122 0.2795 0.9238
loop_
_geom_bond_atom_site_label_1
_geom_bond_atom_site_label_2
_geom_bond_site_symmetry_1
_geom_bond_site_symmetry_2
C1 C2 1_555 1_555
C2 H1 1_555 1_555
C3 C2 1_555 1_555
H2 C3 1_555 1_555
C4 C3 1_555 1_555
H3 C4 1_555 1_555
C5 C4 1_555 1_555
H4 C5 1_555 1_555
C6 C1 1_555 1_555
C7 C8 1_555 1_555
C8 H5 1_555 1_555
C9 C8 1_555 1_555
H6 C9 1_555 1_555
C10 C9 1_555 1_555
H7 C10 1_555 1_555
C11 C10 1_555 1_555
H8 C11 1_555 1_555
C12 C7 1_555 1_555
C13 C14 1_555 1_555
C14 C15 1_555 1_555
C15 H9 1_555 1_555
C16 C15 1_555 1_555
H10 C16 1_555 1_555
C17 C16 1_555 1_555
H11 C17 1_555 1_555
C18 C13 1_555 1_555
H12 C18 1_555 1_555
C19 H13 1_555 1_555
H14 C19 1_555 1_555
H15 C19 1_555 1_555
C20 C19 1_555 1_555
H16 C20 1_555 1_555
H17 C20 1_555 1_555
C21 C20 1_555 1_555
H18 C21 1_555 1_555
H19 C21 1_555 1_555
C22 H20 1_555 1_555
H21 C22 1_555 1_555
C23 C22 1_555 1_555
H22 C23 1_555 1_555
H23 C23 1_555 1_555
C24 C23 1_555 1_555
H24 C24 1_555 1_555
H25 C24 1_555 1_555
H26 C24 1_555 1_555
N1 C1 1_555 1_555
N2 N1 1_555 1_555
N3 C6 1_555 1_555
N4 C12 1_555 1_555
N5 N4 1_555 1_555
N6 C7 1_555 1_555
N7 C13 1_555 1_555
N8 N7 1_555 1_555
N9 C14 1_555 1_555
N10 C21 1_555 1_555
H27 N10 1_555 1_555
H28 N10 1_555 1_555
Zn1 N3 1_555 1_555
N1A Zn1 1_555 1_555
Zn1A N1 1_555 1_555
C5 C6 1_555 1_555
C11 C12 1_555 1_555
C17 C18 1_555 1_555
C22 N10 1_555 1_555
N2 N3 1_555 1_555
N5 N6 1_555 1_555
N6 Zn1 1_555 1_555
N8 N9 1_555 1_555
N9 Zn1 1_555 1_555

#END
