
#######################################################################
#
#                 Cambridge Crystallographic Data Centre
#                                CCDC 
#
#######################################################################
#
# If this CIF has been generated from an entry in the Cambridge 
# Structural Database, then it will include bibliographic, chemical, 
# crystal, experimental, refinement or atomic coordinate data resulting 
# from the CCDC's data processing and validation procedures.
#
#######################################################################

data_FOWBIE
_symmetry_cell_setting           monoclinic
_symmetry_space_group_name_H-M   'P 21/c'
_symmetry_Int_Tables_number      14
_space_group_name_Hall           '-P 2ybc'
loop_
_symmetry_equiv_pos_site_id
_symmetry_equiv_pos_as_xyz
1 x,y,z
2 -x,1/2+y,1/2-z
3 -x,-y,-z
4 x,1/2-y,1/2+z
_cell_length_a                   9.5790(17)
_cell_length_b                   27.056(5)
_cell_length_c                   13.167(2)
_cell_angle_alpha                90
_cell_angle_beta                 100.392(4)
_cell_angle_gamma                90
_cell_volume                     3356.51
loop_
_atom_site_label
_atom_site_type_symbol
_atom_site_fract_x
_atom_site_fract_y
_atom_site_fract_z
Co1 Co 0.36565(7) 0.37163(3) 0.83593(6)
N1 N 0.3400(5) 0.34986(18) 0.6885(3)
O1 O 0.5367(4) 0.34390(16) 0.9190(3)
C1 C 0.7822(5) 0.32678(19) 0.9435(4)
O2 O 0.6609(4) 0.38153(15) 0.8149(3)
N2 N 0.3813(5) 0.32150(17) 0.5364(3)
C2 C 0.9140(5) 0.33299(19) 0.9155(4)
H1 H 0.9222 0.3534 0.8601
N3 N 0.5650(4) 0.47470(17) 0.1292(3)
C3 C 1.0333(5) 0.30941(19) 0.9682(4)
O3 O 1.1903(4) 0.35380(15) 0.8836(3)
N4 N 0.6361(5) 0.55378(17) 0.1470(3)
C4 C 1.0215(6) 0.27912(19) 1.0503(4)
H2 H 1.1006 0.2627 1.0862
O4 O 1.2729(5) 0.28834(18) 0.9762(5)
O5 O 0.7592(6) 0.2301(2) 1.1819(4)
C5 C 0.8905(6) 0.2735(2) 1.0786(4)
N5 N 0.8780(6) 0.24357(19) 1.1702(4)
O6 O 0.9880(6) 0.2341(2) 1.2303(4)
C6 C 1.1781(6) 0.3171(2) 0.9400(5)
C7 C 0.7708(6) 0.2967(2) 1.0270(4)
H3 H 0.6838 0.2923 1.0477
C8 C 0.6543(6) 0.3531(2) 0.8861(5)
C9 C 0.4364(6) 0.3324(2) 0.6363(4)
H4 H 0.5316 0.3281 0.6653
C10 C 0.2119(6) 0.3505(2) 0.6160(4)
C11 C 0.2378(6) 0.3335(2) 0.5220(4)
C12 C 0.1288(6) 0.3299(2) 0.4365(5)
H5 H 0.1463 0.3178 0.3738
C13 C -0.0063(6) 0.3446(2) 0.4473(5)
C14 C -0.1277(7) 0.3404(3) 0.3563(5)
H6 H -0.2136 0.3521 0.3762
H7 H -0.1393 0.3065 0.3350
H8 H -0.1072 0.3601 0.3001
C15 C -0.0311(6) 0.3627(2) 0.5442(5)
C16 C -0.1790(7) 0.3792(3) 0.5572(6)
H9 H -0.1767 0.3895 0.6272
H10 H -0.2441 0.3521 0.5413
H11 H -0.2092 0.4063 0.5114
C17 C 0.0771(6) 0.3656(2) 0.6281(4)
H12 H 0.0607 0.3774 0.6913
C18 C 0.4594(6) 0.3019(2) 0.4609(4)
H13 H 0.4169 0.2709 0.4347
H14 H 0.5562 0.2952 0.4944
C19 C 0.4614(6) 0.3366(2) 0.3716(4)
C20 C 0.4534(7) 0.3183(2) 0.2732(5)
H15 H 0.4432 0.2845 0.2623
C21 C 0.4602(6) 0.3489(2) 0.1905(5)
H16 H 0.4555 0.3355 0.1249
C22 C 0.4738(5) 0.3990(2) 0.2047(4)
C23 C 0.4813(6) 0.4176(2) 0.3020(4)
H17 H 0.4912 0.4515 0.3128
C24 C 0.4744(6) 0.3867(2) 0.3847(4)
H18 H 0.4786 0.4002 0.4502
C25 C 0.4699(6) 0.4314(2) 0.1112(4)
H19 H 0.4960 0.4117 0.0559
H20 H 0.3735 0.4429 0.0883
C26 C 0.5286(6) 0.5228(2) 0.1377(4)
H21 H 0.4357 0.5330 0.1371
C27 C 0.7541(6) 0.5233(2) 0.1446(4)
C28 C 0.7114(5) 0.4739(2) 0.1348(4)
C29 C 0.8060(6) 0.4356(2) 0.1324(4)
H22 H 0.7754 0.4029 0.1269
C30 C 0.9490(6) 0.4475(2) 0.1386(5)
C31 C 1.0566(6) 0.4067(2) 0.1405(5)
H23 H 1.0091 0.3753 0.1356
H24 H 1.1241 0.4082 0.2038
H25 H 1.1050 0.4105 0.0832
C32 C 0.9927(6) 0.4979(2) 0.1449(4)
C33 C 1.1470(6) 0.5104(2) 0.1476(6)
H26 H 1.1595 0.5456 0.1521
H27 H 1.1756 0.4984 0.0859
H28 H 1.2039 0.4950 0.2067
C34 C 0.8961(6) 0.5355(2) 0.1475(4)
H29 H 0.9251 0.5684 0.1512
Co1_2 Co 1.36565(7) 0.37163(3) 0.83593(6)
Co1B Co 0.63435(7) 0.62837(3) 0.16407(6)
O3_2 O 0.1903(4) 0.35380(15) 0.8836(3)
N4B N 0.3639(5) 0.44622(17) 0.8530(3)
O7 O 0.5675(11) 0.4525(4) 0.6384(8)
O8 O 0.005(3) 0.4855(5) 0.4177(13)
O8B O -0.005(3) 0.5145(5) 0.5823(13)
O9? O -0.106(3) 0.5067(8) 0.4785(16)
loop_
_geom_bond_atom_site_label_1
_geom_bond_atom_site_label_2
_geom_bond_site_symmetry_1
_geom_bond_site_symmetry_2
Co1 N1 1_555 1_555
N1 C9 1_555 1_555
O1 Co1 1_555 1_555
C1 C2 1_555 1_555
O2 C8 1_555 1_555
N2 C9 1_555 1_555
C2 H1 1_555 1_555
N3 C25 1_555 1_555
C3 C2 1_555 1_555
O3 C6 1_555 1_555
N4 C26 1_555 1_555
C4 C3 1_555 1_555
H2 C4 1_555 1_555
O4 C6 1_555 1_555
O5 N5 1_555 1_555
C5 C4 1_555 1_555
N5 C5 1_555 1_555
O6 N5 1_555 1_555
C6 C3 1_555 1_555
C7 C1 1_555 1_555
H3 C7 1_555 1_555
C8 O1 1_555 1_555
C9 H4 1_555 1_555
C10 N1 1_555 1_555
C11 N2 1_555 1_555
C12 C11 1_555 1_555
H5 C12 1_555 1_555
C13 C12 1_555 1_555
C14 C13 1_555 1_555
H6 C14 1_555 1_555
H7 C14 1_555 1_555
H8 C14 1_555 1_555
C15 C13 1_555 1_555
C16 C15 1_555 1_555
H9 C16 1_555 1_555
H10 C16 1_555 1_555
H11 C16 1_555 1_555
C17 C10 1_555 1_555
H12 C17 1_555 1_555
C18 N2 1_555 1_555
H13 C18 1_555 1_555
H14 C18 1_555 1_555
C19 C18 1_555 1_555
C20 C19 1_555 1_555
H15 C20 1_555 1_555
C21 C20 1_555 1_555
H16 C21 1_555 1_555
C22 C21 1_555 1_555
C23 C22 1_555 1_555
H17 C23 1_555 1_555
C24 C19 1_555 1_555
H18 C24 1_555 1_555
C25 C22 1_555 1_555
H19 C25 1_555 1_555
H20 C25 1_555 1_555
C26 N3 1_555 1_555
H21 C26 1_555 1_555
C27 N4 1_555 1_555
C28 N3 1_555 1_555
C29 C28 1_555 1_555
H22 C29 1_555 1_555
C30 C29 1_555 1_555
C31 C30 1_555 1_555
H23 C31 1_555 1_555
H24 C31 1_555 1_555
H25 C31 1_555 1_555
C32 C30 1_555 1_555
C33 C32 1_555 1_555
H26 C33 1_555 1_555
H27 C33 1_555 1_555
H28 C33 1_555 1_555
C34 C27 1_555 1_555
H29 C34 1_555 1_555
Co1_2 O3 1_555 1_555
Co1B N4 1_555 1_555
O3_2 Co1 1_555 1_555
N4B Co1 1_555 1_555
C1 C8 1_555 1_555
C5 C7 1_555 1_555
C10 C11 1_555 1_555
C15 C17 1_555 1_555
C23 C24 1_555 1_555
C27 C28 1_555 1_555
C32 C34 1_555 1_555

#END
