
#######################################################################
#
#                 Cambridge Crystallographic Data Centre
#                                CCDC 
#
#######################################################################
#
# If this CIF has been generated from an entry in the Cambridge 
# Structural Database, then it will include bibliographic, chemical, 
# crystal, experimental, refinement or atomic coordinate data resulting 
# from the CCDC's data processing and validation procedures.
#
#######################################################################

data_FOWBOK
_symmetry_cell_setting           monoclinic
_symmetry_space_group_name_H-M   'P 21/c'
_symmetry_Int_Tables_number      14
_space_group_name_Hall           '-P 2ybc'
loop_
_symmetry_equiv_pos_site_id
_symmetry_equiv_pos_as_xyz
1 x,y,z
2 -x,1/2+y,1/2-z
3 -x,-y,-z
4 x,1/2-y,1/2+z
_cell_length_a                   11.1621(8)
_cell_length_b                   16.4284(11)
_cell_length_c                   10.5834(7)
_cell_angle_alpha                90
_cell_angle_beta                 95.6140(10)
_cell_angle_gamma                90
_cell_volume                     1931.43
loop_
_atom_site_label
_atom_site_type_symbol
_atom_site_fract_x
_atom_site_fract_y
_atom_site_fract_z
Co1 Co 0.0000 0.0000 0.5000
N1 N 0.19020(15) 0.01243(10) 0.54801(16)
O1 O -0.03327(14) 0.12532(8) 0.52231(15)
C1 C -0.01166(18) 0.18004(11) 0.6015(2)
O2 O 0.04042(15) 0.17194(8) 0.71342(15)
C2 C -0.05075(18) 0.26568(11) 0.56551(19)
N2 N 0.37203(15) -0.00947(10) 0.65244(16)
C3 C -0.11570(18) 0.27904(12) 0.44881(19)
H1 H -0.1329 0.2363 0.3924
N3 N -0.22373(17) 0.37086(12) 0.29452(17)
O3 O -0.08944(14) 0.54597(8) 0.67395(14)
C4 C -0.15434(18) 0.35704(12) 0.41808(19)
O4 O 0.01739(13) 0.46382(8) 0.81131(14)
O5 O -0.25241(17) 0.31108(11) 0.22923(17)
C5 C -0.13065(18) 0.42231(11) 0.49862(19)
H2 H -0.1574 0.4743 0.4750
O6 O -0.24951(18) 0.44072(10) 0.26313(17)
C6 C -0.06600(18) 0.40884(11) 0.61579(19)
C7 C -0.04228(18) 0.47758(11) 0.70871(19)
C8 C -0.02649(18) 0.33045(11) 0.6487(2)
H3 H 0.0166 0.3214 0.7271
C9 C 0.25728(19) -0.03574(13) 0.6247(2)
H4 H 0.2285 -0.0838 0.6571
C10 C 0.26777(18) 0.07560(12) 0.52027(19)
C11 C 0.2489(2) 0.14187(13) 0.4390(2)
H5 H 0.1738 0.1506 0.3948
C12 C 0.3432(2) 0.19476(14) 0.4247(2)
C13 C 0.3239(3) 0.26431(18) 0.3310(3)
H6 H 0.2422 0.2636 0.2931
H7 H 0.3775 0.2583 0.2660
H8 H 0.3398 0.3150 0.3744
C14 C 0.4570(2) 0.18232(14) 0.4938(2)
C15 C 0.5596(2) 0.24088(17) 0.4769(3)
H9 H 0.6300 0.2241 0.5300
H10 H 0.5370 0.2948 0.5005
H11 H 0.5766 0.2407 0.3898
C16 C 0.47680(19) 0.11601(14) 0.5743(2)
H12 H 0.5516 0.1073 0.6191
C17 C 0.38133(18) 0.06298(12) 0.58568(19)
C18 C 0.4671(2) -0.05000(14) 0.7340(2)
H13 H 0.5428 -0.0421 0.6977
H14 H 0.4506 -0.1080 0.7332
C19 C 0.48243(18) -0.02149(12) 0.8707(2)
C20 C 0.3957(2) 0.02149(14) 0.9269(2)
H15 H 0.3249 0.0363 0.8788
C21 C 0.4127(2) 0.04296(14) 1.0542(2)
H16 H 0.3532 0.0722 1.0901
N1B N 0.80980(15) -0.01243(10) 1.45199(16)
N2B N 0.62797(15) 0.00947(10) 1.34756(16)
C9B C 0.74272(19) 0.03574(13) 1.3753(2)
H4B H 0.7715 0.0838 1.3429
C10B C 0.73223(18) -0.07560(12) 1.47973(19)
C11B C 0.7511(2) -0.14187(13) 1.5610(2)
H5B H 0.8262 -0.1506 1.6052
C12B C 0.6568(2) -0.19476(14) 1.5753(2)
C13B C 0.6761(3) -0.26431(18) 1.6690(3)
H6B H 0.7578 -0.2636 1.7069
H7B H 0.6225 -0.2583 1.7340
H8B H 0.6602 -0.3150 1.6256
C14B C 0.5430(2) -0.18232(14) 1.5062(2)
C15B C 0.4404(2) -0.24088(17) 1.5231(3)
H9B H 0.3700 -0.2241 1.4700
H10B H 0.4630 -0.2948 1.4995
H11B H 0.4234 -0.2407 1.6102
C16B C 0.52320(19) -0.11601(14) 1.4257(2)
H12B H 0.4484 -0.1073 1.3809
C17B C 0.61867(18) -0.06298(12) 1.41432(19)
C18B C 0.5329(2) 0.05000(14) 1.2660(2)
H13B H 0.4572 0.0421 1.3023
H14B H 0.5494 0.1080 1.2668
C19B C 0.51757(18) 0.02149(12) 1.1293(2)
C20B C 0.6043(2) -0.02149(14) 1.0731(2)
H15B H 0.6751 -0.0363 1.1212
C21B C 0.5873(2) -0.04296(14) 0.9458(2)
H16B H 0.6468 -0.0722 0.9099
O1B O 0.03327(14) -0.12532(8) 0.47769(15)
C1B C 0.01166(18) -0.18004(11) 0.3985(2)
O2B O -0.04042(15) -0.17194(8) 0.28658(15)
C2B C 0.05075(18) -0.26568(11) 0.43449(19)
C3B C 0.11570(18) -0.27904(12) 0.55119(19)
H1B H 0.1329 -0.2363 0.6076
N3B N 0.22373(17) -0.37086(12) 0.70548(17)
O3B O 0.08944(14) -0.54597(8) 0.32605(14)
C4B C 0.15434(18) -0.35704(12) 0.58192(19)
O4B O -0.01739(13) -0.46382(8) 0.18869(14)
O5B O 0.25241(17) -0.31108(11) 0.77077(17)
C5B C 0.13065(18) -0.42231(11) 0.50138(19)
H2B H 0.1574 -0.4743 0.5250
O6B O 0.24951(18) -0.44072(10) 0.73687(17)
C6B C 0.06600(18) -0.40884(11) 0.38421(19)
C7B C 0.04228(18) -0.47758(11) 0.29129(19)
C8B C 0.02649(18) -0.33045(11) 0.3513(2)
H3B H -0.0166 -0.3214 0.2729
Co1_2 Co 1.0000 0.0000 1.5000
Co1A Co 0.0000 -0.5000 0.0000
Co1A_2 Co 0.0000 0.5000 1.0000
N1B_2 N -0.19020(15) -0.01243(10) 0.45199(16)
O4A O -0.01739(13) -0.03618(8) 0.68869(14)
O4C O 0.01739(13) 0.03618(8) 0.31131(14)
loop_
_geom_bond_atom_site_label_1
_geom_bond_atom_site_label_2
_geom_bond_site_symmetry_1
_geom_bond_site_symmetry_2
Co1 N1 1_555 1_555
N1 C9 1_555 1_555
O1 Co1 1_555 1_555
C1 O1 1_555 1_555
O2 C1 1_555 1_555
C2 C1 1_555 1_555
N2 C9 1_555 1_555
C3 C2 1_555 1_555
H1 C3 1_555 1_555
N3 C4 1_555 1_555
O3 C7 1_555 1_555
C4 C3 1_555 1_555
O4 C7 1_555 1_555
O5 N3 1_555 1_555
C5 C4 1_555 1_555
H2 C5 1_555 1_555
O6 N3 1_555 1_555
C6 C5 1_555 1_555
C7 C6 1_555 1_555
C8 C2 1_555 1_555
H3 C8 1_555 1_555
C9 H4 1_555 1_555
C10 N1 1_555 1_555
C11 C10 1_555 1_555
H5 C11 1_555 1_555
C12 C11 1_555 1_555
C13 C12 1_555 1_555
H6 C13 1_555 1_555
H7 C13 1_555 1_555
H8 C13 1_555 1_555
C14 C12 1_555 1_555
C15 C14 1_555 1_555
H9 C15 1_555 1_555
H10 C15 1_555 1_555
H11 C15 1_555 1_555
C16 C14 1_555 1_555
H12 C16 1_555 1_555
C17 N2 1_555 1_555
C18 N2 1_555 1_555
H13 C18 1_555 1_555
H14 C18 1_555 1_555
C19 C18 1_555 1_555
C20 C19 1_555 1_555
H15 C20 1_555 1_555
C21 C20 1_555 1_555
H16 C21 1_555 1_555
N1B C9B 1_555 1_555
N2B C9B 1_555 1_555
C9B H4B 1_555 1_555
C10B N1B 1_555 1_555
C11B C10B 1_555 1_555
H5B C11B 1_555 1_555
C12B C11B 1_555 1_555
C13B C12B 1_555 1_555
H6B C13B 1_555 1_555
H7B C13B 1_555 1_555
H8B C13B 1_555 1_555
C14B C12B 1_555 1_555
C15B C14B 1_555 1_555
H9B C15B 1_555 1_555
H10B C15B 1_555 1_555
H11B C15B 1_555 1_555
C16B C14B 1_555 1_555
H12B C16B 1_555 1_555
C17B N2B 1_555 1_555
C18B N2B 1_555 1_555
H13B C18B 1_555 1_555
H14B C18B 1_555 1_555
C19B C21 1_555 1_555
C20B C19B 1_555 1_555
H15B C20B 1_555 1_555
C21B C19 1_555 1_555
H16B C21B 1_555 1_555
O1B Co1 1_555 1_555
C1B O1B 1_555 1_555
O2B C1B 1_555 1_555
C2B C1B 1_555 1_555
C3B C2B 1_555 1_555
H1B C3B 1_555 1_555
N3B C4B 1_555 1_555
O3B C7B 1_555 1_555
C4B C3B 1_555 1_555
O4B C7B 1_555 1_555
O5B N3B 1_555 1_555
C5B C4B 1_555 1_555
H2B C5B 1_555 1_555
O6B N3B 1_555 1_555
C6B C5B 1_555 1_555
C7B C6B 1_555 1_555
C8B C2B 1_555 1_555
H3B C8B 1_555 1_555
Co1_2 N1B 1_555 1_555
Co1A O4B 1_555 1_555
Co1A_2 O4 1_555 1_555
N1B_2 Co1 1_555 1_555
O4A Co1 1_555 1_555
O4C Co1 1_555 1_555
C6 C8 1_555 1_555
C10 C17 1_555 1_555
C16 C17 1_555 1_555
C10B C17B 1_555 1_555
C16B C17B 1_555 1_555
C18B C19B 1_555 1_555
C20B C21B 1_555 1_555
C6B C8B 1_555 1_555

#END
