
#######################################################################
#
#                 Cambridge Crystallographic Data Centre
#                                CCDC 
#
#######################################################################
#
# If this CIF has been generated from an entry in the Cambridge 
# Structural Database, then it will include bibliographic, chemical, 
# crystal, experimental, refinement or atomic coordinate data resulting 
# from the CCDC's data processing and validation procedures.
#
#######################################################################

data_FOWCEA
_symmetry_cell_setting           orthorhombic
_symmetry_space_group_name_H-M   'C m c a'
_symmetry_Int_Tables_number      64
_space_group_name_Hall           '-C 2ac 2'
loop_
_symmetry_equiv_pos_site_id
_symmetry_equiv_pos_as_xyz
1 x,y,z
2 -x,1/2-y,1/2+z
3 -x,1/2+y,1/2-z
4 x,-y,-z
5 1/2+x,1/2+y,z
6 1/2-x,-y,1/2+z
7 1/2-x,y,1/2-z
8 1/2+x,1/2-y,-z
9 -x,-y,-z
10 x,1/2+y,1/2-z
11 x,1/2-y,1/2+z
12 -x,y,z
13 1/2-x,1/2-y,-z
14 1/2+x,y,1/2-z
15 1/2+x,-y,1/2+z
16 1/2-x,1/2+y,z
_cell_length_a                   35.140(5)
_cell_length_b                   12.3371(16)
_cell_length_c                   15.046(2)
_cell_angle_alpha                90
_cell_angle_beta                 90
_cell_angle_gamma                90
_cell_volume                     6522.83
loop_
_atom_site_label
_atom_site_type_symbol
_atom_site_fract_x
_atom_site_fract_y
_atom_site_fract_z
O7 O 0.32305(14) 0.5000 0.5000
H13 H 0.3086 0.5297 0.5356
H13C H 0.3086 0.4703 0.4644
Cl1 Cl 0.5030(4) 0.6862(4) 0.5923(4)
O8 O 0.5071(4) 0.8007(6) 0.5862(9)
O9 O 0.4640(3) 0.6544(14) 0.5835(10)
O10 O 0.5133(4) 0.6545(12) 0.6849(7)
O11 O 0.5275(4) 0.6292(12) 0.5351(9)
Cl1K Cl 0.4970(4) 0.6862(4) 0.5923(4)
O8K O 0.4929(4) 0.8007(6) 0.5862(9)
O9K O 0.5360(3) 0.6544(14) 0.5835(10)
O10K O 0.4867(4) 0.6545(12) 0.6849(7)
O11K O 0.4725(4) 0.6292(12) 0.5351(9)
La1 La 0.2500 1.08273(5) 0.2500
Ag1 Ag 0.389767(18) 0.60965(6) 0.56481(4)
C1 C 0.3039(2) 0.9196(6) 0.3991(4)
C2 C 0.34312(19) 0.8866(6) 0.4214(5)
C3 C 0.3495(2) 0.7964(6) 0.4729(4)
H1 H 0.3287 0.7591 0.4956
C4 C 0.4138(2) 0.8140(8) 0.4627(5)
H2 H 0.4380 0.7896 0.4770
C5 C 0.4097(2) 0.9060(8) 0.4114(7)
H3 H 0.4311 0.9430 0.3913
C6 C 0.3744(2) 0.9422(7) 0.3905(5)
H4 H 0.3714 1.0039 0.3557
C7 C 0.4322(2) 1.0651(7) 0.1693(6)
H5 H 0.4534 1.0271 0.1489
C8 C 0.3685(2) 1.0865(6) 0.1768(5)
H6 H 0.3444 1.0624 0.1605
C9 C 0.37074(19) 1.1752(6) 0.2314(4)
C10 C 0.4064(2) 1.2075(7) 0.2546(6)
H7 H 0.4098 1.2669 0.2919
C11 C 0.4374(2) 1.1520(8) 0.2226(7)
H8 H 0.4619 1.1743 0.2375
C12 C 0.3359(2) 1.2323(6) 0.2620(5)
N1 N 0.38410(17) 0.7606(5) 0.4913(4)
N2 N 0.39810(17) 1.0330(5) 0.1458(4)
O1 O 0.30034(13) 0.9960(4) 0.3448(3)
O2 O 0.27688(13) 0.8707(4) 0.4351(3)
O3 O 0.30462(12) 1.1980(4) 0.2338(3)
O4 O 0.33989(13) 1.3110(5) 0.3112(3)
O5 O 0.28251(13) 0.9406(4) 0.1593(3)
H9 H 0.2679 0.9115 0.1204
H10 H 0.2983 0.8959 0.1795
O6 O 0.24825(13) 1.1647(4) 0.4015(3)
H11 H 0.2385 1.2269 0.4029
H12 H 0.2620 1.1535 0.4461
Ag1F Ag 0.110233(18) 0.60965(6) -0.06481(4)
Ag1J Ag 0.389767(18) 0.89035(6) 0.06481(4)
Ag1L Ag 0.110233(18) 0.89035(6) 0.43519(4)
C1F C 0.1961(2) 0.9196(6) 0.1009(4)
C2F C 0.15688(19) 0.8866(6) 0.0786(5)
C3F C 0.1505(2) 0.7964(6) 0.0271(4)
H1F H 0.1713 0.7591 0.0044
C4F C 0.0862(2) 0.8140(8) 0.0373(5)
H2F H 0.0620 0.7896 0.0230
C5F C 0.0903(2) 0.9060(8) 0.0886(7)
H3F H 0.0689 0.9430 0.1087
C6F C 0.1256(2) 0.9422(7) 0.1095(5)
H4F H 0.1286 1.0039 0.1443
C7F C 0.0678(2) 1.0651(7) 0.3307(6)
H5F H 0.0466 1.0271 0.3511
C8F C 0.1315(2) 1.0865(6) 0.3232(5)
H6F H 0.1556 1.0624 0.3395
C9F C 0.12926(19) 1.1752(6) 0.2686(4)
C10F C 0.0936(2) 1.2075(7) 0.2454(6)
H7F H 0.0902 1.2669 0.2081
C11F C 0.0626(2) 1.1520(8) 0.2774(7)
H8F H 0.0381 1.1743 0.2625
C12F C 0.1641(2) 1.2323(6) 0.2380(5)
N1F N 0.11590(17) 0.7606(5) 0.0087(4)
N2F N 0.10190(17) 1.0330(5) 0.3542(4)
N2J N 0.39810(17) 0.4670(5) 0.6458(4)
N2L N 0.10190(17) 0.4670(5) -0.1458(4)
O1F O 0.19966(13) 0.9960(4) 0.1552(3)
O2F O 0.22312(13) 0.8707(4) 0.0649(3)
O3F O 0.19538(12) 1.1980(4) 0.2662(3)
O4F O 0.16011(13) 1.3110(5) 0.1888(3)
O5F O 0.21749(13) 0.9406(4) 0.3407(3)
H9F H 0.2321 0.9115 0.3796
H10F H 0.2017 0.8959 0.3205
O6F O 0.25175(13) 1.1647(4) 0.0985(3)
H11F H 0.2615 1.2269 0.0971
H12F H 0.2380 1.1535 0.0539
loop_
_geom_bond_atom_site_label_1
_geom_bond_atom_site_label_2
_geom_bond_site_symmetry_1
_geom_bond_site_symmetry_2
La1 O1 1_555 1_555
Ag1 N1 1_555 1_555
C1 C2 1_555 1_555
C2 C3 1_555 1_555
C3 H1 1_555 1_555
C4 H2 1_555 1_555
C5 C4 1_555 1_555
H3 C5 1_555 1_555
C6 C2 1_555 1_555
H4 C6 1_555 1_555
C7 H5 1_555 1_555
C8 H6 1_555 1_555
C9 C8 1_555 1_555
C10 C9 1_555 1_555
H7 C10 1_555 1_555
C11 C7 1_555 1_555
H8 C11 1_555 1_555
C12 C9 1_555 1_555
N1 C3 1_555 1_555
N2 C7 1_555 1_555
O1 C1 1_555 1_555
O2 C1 1_555 1_555
O3 La1 1_555 1_555
O4 C12 1_555 1_555
O5 La1 1_555 1_555
H9 O5 1_555 1_555
H10 O5 1_555 1_555
O6 La1 1_555 1_555
H11 O6 1_555 1_555
H12 O6 1_555 1_555
O7 H13 1_555 1_555
Cl1 O8 1_555 1_555
O8 Cl1K 1_555 1_555
O9 Cl1 1_555 1_555
O10 Cl1 1_555 1_555
O11 Cl1 1_555 1_555
Ag1F N1F 1_555 1_555
Ag1J N2 1_555 1_555
Ag1L N2F 1_555 1_555
C1F C2F 1_555 1_555
C2F C3F 1_555 1_555
C3F H1F 1_555 1_555
C4F H2F 1_555 1_555
C5F C4F 1_555 1_555
H3F C5F 1_555 1_555
C6F C2F 1_555 1_555
H4F C6F 1_555 1_555
C7F H5F 1_555 1_555
C8F H6F 1_555 1_555
C9F C8F 1_555 1_555
C10F C9F 1_555 1_555
H7F C10F 1_555 1_555
C11F C7F 1_555 1_555
H8F C11F 1_555 1_555
C12F C9F 1_555 1_555
N1F C3F 1_555 1_555
N2F C7F 1_555 1_555
N2J Ag1 1_555 1_555
N2L Ag1F 1_555 1_555
O1F La1 1_555 1_555
O2F C1F 1_555 1_555
O3F La1 1_555 1_555
O4F C12F 1_555 1_555
O5F La1 1_555 1_555
H9F O5F 1_555 1_555
H10F O5F 1_555 1_555
O6F La1 1_555 1_555
H11F O6F 1_555 1_555
H12F O6F 1_555 1_555
H13C O7 1_555 1_555
Cl1K Cl1 1_555 1_555
O8K Cl1 1_555 1_555
O9K Cl1 1_555 1_555
O10K Cl1 1_555 1_555
O11K Cl1 1_555 1_555
C4 N1 1_555 1_555
C5 C6 1_555 1_555
C8 N2 1_555 1_555
C10 C11 1_555 1_555
C12 O3 1_555 1_555
O8 O8K 1_555 1_555
O8 O9K 1_555 1_555
O9 Cl1K 1_555 1_555
O9 O8K 1_555 1_555
O9 O10K 1_555 1_555
O9 O11K 1_555 1_555
O10 Cl1K 1_555 1_555
O10 O9K 1_555 1_555
O10 O10K 1_555 1_555
O11 Cl1K 1_555 1_555
O11 O9K 1_555 1_555
O11 O11K 1_555 1_555
C1F O1F 1_555 1_555
C4F N1F 1_555 1_555
C5F C6F 1_555 1_555
C8F N2F 1_555 1_555
C10F C11F 1_555 1_555
C12F O3F 1_555 1_555
Cl1K O8K 1_555 1_555
Cl1K O9K 1_555 1_555
Cl1K O10K 1_555 1_555
Cl1K O11K 1_555 1_555

#END
