
#######################################################################
#
#                 Cambridge Crystallographic Data Centre
#                                CCDC 
#
#######################################################################
#
# If this CIF has been generated from an entry in the Cambridge 
# Structural Database, then it will include bibliographic, chemical, 
# crystal, experimental, refinement or atomic coordinate data resulting 
# from the CCDC's data processing and validation procedures.
#
#######################################################################

data_FOWDEA10
_symmetry_cell_setting           triclinic
_symmetry_space_group_name_H-M   'P -1'
_symmetry_Int_Tables_number      2
_space_group_name_Hall           '-P 1'
loop_
_symmetry_equiv_pos_site_id
_symmetry_equiv_pos_as_xyz
1 x,y,z
2 -x,-y,-z
_cell_length_a                   7.832(3)
_cell_length_b                   9.419(1)
_cell_length_c                   10.771(1)
_cell_angle_alpha                85.93(1)
_cell_angle_beta                 72.90(2)
_cell_angle_gamma                69.64(3)
_cell_volume                     711.565
loop_
_atom_site_label
_atom_site_type_symbol
_atom_site_fract_x
_atom_site_fract_y
_atom_site_fract_z
S1 S 0.2886(1) 0.8607(1) 0.2617(1)
N1 N 0.2209(3) 0.8257(2) -0.0498(2)
Li1 Li 0.4013(8) 0.9215(5) 0.0067(5)
C1 C 0.2511(4) 1.0605(3) 0.2599(3)
C2 C 0.1368(5) 1.1455(4) 0.3732(3)
C3 C 0.0889(5) 1.3011(4) 0.3737(3)
C4 C 0.1531(5) 1.3689(4) 0.2602(4)
C5 C 0.2647(5) 1.2794(3) 0.1485(3)
C6 C 0.3236(4) 1.1206(3) 0.1409(3)
C7 C 0.4853(5) 0.7663(3) 0.3329(3)
C8 C 0.6620(2) 0.7985(1) 0.2576(1)
C9 C 0.4299(2) 0.8151(1) 0.4738(1)
C10 C 0.5149(2) 0.5991(1) 0.3234(1)
C11 C 0.0216(2) 0.9174(1) 0.0151(1)
C12 C 0.2570(2) 0.8157(1) -0.1919(1)
C13 C 0.2554(2) 0.6701(1) -0.0028(1)
H1 H 0.0857(5) 1.0904(4) 0.4605(3)
H2 H 0.0028(5) 1.3692(4) 0.4613(3)
H3 H 0.1171(5) 1.4905(4) 0.2583(4)
H4 H 0.3088(5) 1.3363(3) 0.0607(3)
H5 H 0.6998(2) 0.7611(1) 0.1575(1)
H6 H 0.6339(2) 0.9189(1) 0.2622(1)
H7 H 0.7780(2) 0.7395(1) 0.2977(1)
H8 H 0.4116(2) 0.9337(1) 0.4801(1)
H9 H 0.2974(2) 0.7982(1) 0.5239(1)
H10 H 0.5384(2) 0.7492(1) 0.5182(1)
H11 H 0.5571(2) 0.5637(1) 0.2225(1)
H12 H 0.6235(2) 0.5331(1) 0.3677(1)
H13 H 0.3825(2) 0.5820(1) 0.3734(1)
H14 H -0.0021(2) 0.8956(1) 0.1182(1)
H15 H -0.0650(2) 0.8616(1) -0.0058(1)
H16 H 0.2326(2) 0.9280(1) -0.2298(1)
H17 H 0.4024(2) 0.7452(1) -0.2362(1)
H18 H 0.1621(2) 0.7674(1) -0.2136(1)
H19 H 0.4007(2) 0.6007(1) -0.0493(1)
H20 H 0.2313(2) 0.6722(1) 0.1012(1)
H21 H 0.1599(2) 0.6234(1) -0.0257(1)
Li1A Li 0.5987(8) 1.0785(5) -0.0067(5)
C6A C 0.6764(4) 0.8794(3) -0.1409(3)
C11A C -0.0216(2) 1.0826(1) -0.0151(1)
S1A S 0.7114(1) 1.1393(1) -0.2617(1)
N1A N 0.7791(3) 1.1743(2) 0.0498(2)
C1A C 0.7489(4) 0.9395(3) -0.2599(3)
C5A C 0.7353(5) 0.7206(3) -0.1485(3)
N1A_2 N -0.2209(3) 1.1743(2) 0.0498(2)
H14A H 0.0021(2) 1.1044(1) -0.1182(1)
H15A H 0.0650(2) 1.1384(1) 0.0058(1)
C7A C 0.5147(5) 1.2337(3) -0.3329(3)
C2A C 0.8632(5) 0.8545(4) -0.3732(3)
C4A C 0.8469(5) 0.6311(4) -0.2602(4)
H4A H 0.6912(5) 0.6637(3) -0.0607(3)
C8A C 0.3380(2) 1.2015(1) -0.2576(1)
C9A C 0.5701(2) 1.1849(1) -0.4738(1)
C10A C 0.4851(2) 1.4009(1) -0.3234(1)
C3A C 0.9111(5) 0.6989(4) -0.3737(3)
H1A H 0.9143(5) 0.9096(4) -0.4605(3)
H3A H 0.8829(5) 0.5095(4) -0.2583(4)
H5A H 0.3002(2) 1.2389(1) -0.1575(1)
H6A H 0.3661(2) 1.0811(1) -0.2622(1)
H7A H 0.2220(2) 1.2605(1) -0.2977(1)
H8A H 0.5884(2) 1.0663(1) -0.4801(1)
H9A H 0.7026(2) 1.2018(1) -0.5239(1)
H10A H 0.4616(2) 1.2508(1) -0.5182(1)
H11A H 0.4429(2) 1.4363(1) -0.2225(1)
H12A H 0.3765(2) 1.4669(1) -0.3677(1)
H13A H 0.6175(2) 1.4180(1) -0.3734(1)
H2A H 0.9972(5) 0.6308(4) -0.4613(3)
Li1A_2 Li -0.4013(8) 1.0785(5) -0.0067(5)
C12A C -0.2570(2) 1.1843(1) 0.1919(1)
C13A C -0.2554(2) 1.3299(1) 0.0028(1)
H16A H -0.2326(2) 1.0720(1) 0.2298(1)
H17A H -0.4024(2) 1.2548(1) 0.2362(1)
H18A H -0.1621(2) 1.2326(1) 0.2136(1)
H19A H -0.4007(2) 1.3993(1) 0.0493(1)
H20A H -0.2313(2) 1.3278(1) -0.1012(1)
H21A H -0.1599(2) 1.3766(1) 0.0257(1)
loop_
_geom_bond_atom_site_label_1
_geom_bond_atom_site_label_2
_geom_bond_site_symmetry_1
_geom_bond_site_symmetry_2
S1 Li1 1_555 1_555
N1 Li1 1_555 1_555
Li1 C6 1_555 1_555
C1 S1 1_555 1_555
C2 C1 1_555 1_555
C3 C2 1_555 1_555
C4 C3 1_555 1_555
C5 C4 1_555 1_555
C6 C1 1_555 1_555
C7 S1 1_555 1_555
C8 C7 1_555 1_555
C9 C7 1_555 1_555
C10 C7 1_555 1_555
C11 N1 1_555 1_555
C12 N1 1_555 1_555
C13 N1 1_555 1_555
H1 C2 1_555 1_555
H2 C3 1_555 1_555
H3 C4 1_555 1_555
H4 C5 1_555 1_555
H5 C8 1_555 1_555
H6 C8 1_555 1_555
H7 C8 1_555 1_555
H8 C9 1_555 1_555
H9 C9 1_555 1_555
H10 C9 1_555 1_555
H11 C10 1_555 1_555
H12 C10 1_555 1_555
H13 C10 1_555 1_555
H14 C11 1_555 1_555
H15 C11 1_555 1_555
H16 C12 1_555 1_555
H17 C12 1_555 1_555
H18 C12 1_555 1_555
H19 C13 1_555 1_555
H20 C13 1_555 1_555
H21 C13 1_555 1_555
Li1A C6 1_555 1_555
C6A Li1 1_555 1_555
C11A C11 1_555 1_555
S1A Li1A 1_555 1_555
N1A Li1A 1_555 1_555
C1A C6A 1_555 1_555
C5A C6A 1_555 1_555
N1A_2 C11A 1_555 1_555
H14A C11A 1_555 1_555
H15A C11A 1_555 1_555
C7A S1A 1_555 1_555
C2A C1A 1_555 1_555
C4A C5A 1_555 1_555
H4A C5A 1_555 1_555
C8A C7A 1_555 1_555
C9A C7A 1_555 1_555
C10A C7A 1_555 1_555
C3A C2A 1_555 1_555
H1A C2A 1_555 1_555
H3A C4A 1_555 1_555
H5A C8A 1_555 1_555
H6A C8A 1_555 1_555
H7A C8A 1_555 1_555
H8A C9A 1_555 1_555
H9A C9A 1_555 1_555
H10A C9A 1_555 1_555
H11A C10A 1_555 1_555
H12A C10A 1_555 1_555
H13A C10A 1_555 1_555
H2A C3A 1_555 1_555
Li1A_2 N1A_2 1_555 1_555
C12A N1A_2 1_555 1_555
C13A N1A_2 1_555 1_555
H16A C12A 1_555 1_555
H17A C12A 1_555 1_555
H18A C12A 1_555 1_555
H19A C13A 1_555 1_555
H20A C13A 1_555 1_555
H21A C13A 1_555 1_555
C5 C6 1_555 1_555
Li1A C6A 1_555 1_555
S1A C1A 1_555 1_555
C4A C3A 1_555 1_555

#END
