
#######################################################################
#
#                 Cambridge Crystallographic Data Centre
#                                CCDC 
#
#######################################################################
#
# If this CIF has been generated from an entry in the Cambridge 
# Structural Database, then it will include bibliographic, chemical, 
# crystal, experimental, refinement or atomic coordinate data resulting 
# from the CCDC's data processing and validation procedures.
#
#######################################################################

data_FOWFUT
_symmetry_cell_setting           monoclinic
_symmetry_space_group_name_H-M   'P 21/c'
_symmetry_Int_Tables_number      14
_space_group_name_Hall           '-P 2ybc'
loop_
_symmetry_equiv_pos_site_id
_symmetry_equiv_pos_as_xyz
1 x,y,z
2 -x,1/2+y,1/2-z
3 -x,-y,-z
4 x,1/2-y,1/2+z
_cell_length_a                   7.378(5)
_cell_length_b                   20.860(5)
_cell_length_c                   11.546(5)
_cell_angle_alpha                90
_cell_angle_beta                 93.362(5)
_cell_angle_gamma                90
_cell_volume                     1773.93
loop_
_atom_site_label
_atom_site_type_symbol
_atom_site_fract_x
_atom_site_fract_y
_atom_site_fract_z
Cd1 Cd 0.79275(4) 0.109528(16) 0.34633(3)
C1 C 0.5456(5) 0.14696(17) 0.1841(4)
C2 C 0.4090(5) 0.17967(17) 0.1042(3)
C3 C 0.2232(5) 0.17395(19) 0.1229(3)
H1 H 0.1850 0.1461 0.1795
C4 C 0.0980(5) 0.20935(18) 0.0576(3)
H2 H -0.0251 0.2041 0.0685
C5 C 0.1527(5) 0.25280(17) -0.0243(4)
C6 C 0.3364(5) 0.25629(17) -0.0456(4)
H3 H 0.3742 0.2834 -0.1034
C7 C 0.4622(5) 0.22008(18) 0.0176(3)
H4 H 0.5842 0.2228 0.0020
C8 C 0.0192(5) 0.29813(19) -0.0795(3)
C9 C 0.7918(6) -0.0301(2) 0.2117(4)
H5 H 0.8198 -0.0058 0.1477
C10 C 0.7574(6) -0.0939(2) 0.1950(4)
H6 H 0.7656 -0.1127 0.1225
C11 C 0.7105(6) -0.1293(2) 0.2886(5)
H7 H 0.6836 -0.1726 0.2800
C12 C 0.7032(5) -0.1004(2) 0.3951(4)
H8 H 0.6712 -0.1238 0.4593
C13 C 0.7440(5) -0.03626(19) 0.4051(4)
C14 C 0.7435(5) -0.00048(19) 0.5139(4)
C15 C 0.7579(5) 0.0770(2) 0.6369(4)
C16 C 0.7781(5) 0.1363(2) 0.6920(4)
H9 H 0.7981 0.1737 0.6507
C17 C 0.7668(6) 0.1367(2) 0.8101(4)
H10 H 0.7789 0.1756 0.8493
C18 C 0.7379(6) 0.0815(2) 0.8736(4)
H11 H 0.7312 0.0842 0.9537
C19 C 0.7192(6) 0.0225(2) 0.8197(4)
H12 H 0.6998 -0.0148 0.8613
C20 C 0.7307(5) 0.02185(19) 0.7012(4)
N1 N 0.7647(4) 0.06143(15) 0.5215(3)
N2 N 0.7879(4) -0.00038(16) 0.3145(3)
N3 N 0.7210(5) -0.02713(18) 0.6197(3)
O1 O 0.7077(4) 0.14386(12) 0.1581(3)
O2 O 0.4940(3) 0.12531(12) 0.2787(2)
O3 O 0.0764(3) 0.34878(12) -0.1266(2)
O4 O -0.1483(3) 0.28802(12) -0.0740(2)
H13 H 0.701(6) -0.0642(12) 0.642(4)
Cd1C Cd -0.20725(4) 0.390472(16) -0.15367(3)
O3C O 1.0764(3) 0.15122(12) 0.3734(2)
O4C O 0.8517(3) 0.21198(12) 0.4260(2)
loop_
_geom_bond_atom_site_label_1
_geom_bond_atom_site_label_2
_geom_bond_site_symmetry_1
_geom_bond_site_symmetry_2
Cd1 N1 1_555 1_555
C1 C2 1_555 1_555
C2 C3 1_555 1_555
C3 H1 1_555 1_555
C4 C3 1_555 1_555
H2 C4 1_555 1_555
C5 C4 1_555 1_555
C6 C5 1_555 1_555
H3 C6 1_555 1_555
C7 C2 1_555 1_555
H4 C7 1_555 1_555
C8 C5 1_555 1_555
C9 H5 1_555 1_555
C10 C9 1_555 1_555
H6 C10 1_555 1_555
C11 C10 1_555 1_555
H7 C11 1_555 1_555
C12 C11 1_555 1_555
H8 C12 1_555 1_555
C13 C12 1_555 1_555
C14 C13 1_555 1_555
C15 C16 1_555 1_555
C16 H9 1_555 1_555
C17 C16 1_555 1_555
H10 C17 1_555 1_555
C18 C17 1_555 1_555
H11 C18 1_555 1_555
C19 C18 1_555 1_555
H12 C19 1_555 1_555
C20 C15 1_555 1_555
N1 C14 1_555 1_555
N2 Cd1 1_555 1_555
N3 C14 1_555 1_555
O1 Cd1 1_555 1_555
O2 Cd1 1_555 1_555
O3 C8 1_555 1_555
O4 C8 1_555 1_555
H13 N3 1_555 1_555
Cd1C O3 1_555 1_555
O3C Cd1 1_555 1_555
O4C Cd1 1_555 1_555
C1 O1 1_555 1_555
C1 O2 1_555 1_555
C6 C7 1_555 1_555
C9 N2 1_555 1_555
C13 N2 1_555 1_555
C15 N1 1_555 1_555
C19 C20 1_555 1_555
C20 N3 1_555 1_555
O4 Cd1C 1_555 1_555

#END
