
#######################################################################
#
#                 Cambridge Crystallographic Data Centre
#                                CCDC 
#
#######################################################################
#
# If this CIF has been generated from an entry in the Cambridge 
# Structural Database, then it will include bibliographic, chemical, 
# crystal, experimental, refinement or atomic coordinate data resulting 
# from the CCDC's data processing and validation procedures.
#
#######################################################################

data_FOWGII
_symmetry_cell_setting           monoclinic
_symmetry_space_group_name_H-M   'P 21/c'
_symmetry_Int_Tables_number      14
_space_group_name_Hall           '-P 2ybc'
loop_
_symmetry_equiv_pos_site_id
_symmetry_equiv_pos_as_xyz
1 x,y,z
2 -x,1/2+y,1/2-z
3 -x,-y,-z
4 x,1/2-y,1/2+z
_cell_length_a                   6.8860(5)
_cell_length_b                   19.7801(13)
_cell_length_c                   6.5642(4)
_cell_angle_alpha                90
_cell_angle_beta                 91.892(5)
_cell_angle_gamma                90
_cell_volume                     893.594
loop_
_atom_site_label
_atom_site_type_symbol
_atom_site_fract_x
_atom_site_fract_y
_atom_site_fract_z
Sr1 Sr 1.41849(4) 0.689568(14) -0.36705(4)
N1 N 1.2631(4) 0.57709(13) -0.2058(4)
O1 O 1.3664(3) 0.68543(10) 0.0213(3)
O2 O 1.3348(3) 0.62646(11) 0.3099(3)
O3 O 1.2609(3) 0.37523(11) 0.2554(3)
O4 O 1.1524(3) 0.33289(11) -0.0422(3)
O5 O 1.6546(3) 0.72846(10) -0.6459(3)
H1 H 1.7139 0.7007 -0.7206
H2 H 1.7156 0.7648 -0.6172
O6 O 1.0607(3) 0.71224(12) -0.3855(4)
H3 H 0.9789 0.6826 -0.3505
H4 H 1.0167 0.7507 -0.3525
C1 C 1.3325(4) 0.63210(15) 0.1201(5)
C2 C 1.2865(4) 0.56895(15) -0.0027(4)
C3 C 1.2705(4) 0.50621(15) 0.0904(5)
H5 H 1.2910 0.5020 0.2306
C4 C 1.2238(4) 0.45000(15) -0.0267(5)
C5 C 1.2108(4) 0.38080(15) 0.0705(5)
C6 C 1.1917(5) 0.45863(15) -0.2358(5)
H6 H 1.1553 0.4224 -0.3187
C7 C 1.2152(5) 0.52224(16) -0.3165(5)
H7 H 1.1968 0.5275 -0.4566
Sr1C Sr 1.41849(4) 0.810432(14) 0.13295(4)
Sr1_2 Sr 1.41849(4) 0.689568(14) 0.63295(4)
Sr1B Sr 1.58151(4) 0.310432(14) 0.36705(4)
Sr1C_2 Sr 1.41849(4) 0.810432(14) -0.86705(4)
O1C O 1.3664(3) 0.81457(10) -0.4787(3)
O2_2 O 1.3348(3) 0.62646(11) -0.6901(3)
O3B O 1.7391(3) 0.62477(11) -0.2554(3)
O5C O 1.6546(3) 0.77154(10) -0.1459(3)
H1C H 1.7139 0.7993 -0.2206
H2C H 1.7156 0.7352 -0.1172
loop_
_geom_bond_atom_site_label_1
_geom_bond_atom_site_label_2
_geom_bond_site_symmetry_1
_geom_bond_site_symmetry_2
Sr1 N1 1_555 1_555
N1 C2 1_555 1_555
O1 Sr1 1_555 1_555
O2 C1 1_555 1_555
O3 C5 1_555 1_555
O4 C5 1_555 1_555
O5 Sr1 1_555 1_555
H1 O5 1_555 1_555
H2 O5 1_555 1_555
O6 Sr1 1_555 1_555
H3 O6 1_555 1_555
H4 O6 1_555 1_555
C1 O1 1_555 1_555
C2 C1 1_555 1_555
C3 C2 1_555 1_555
H5 C3 1_555 1_555
C4 C3 1_555 1_555
C5 C4 1_555 1_555
C6 C4 1_555 1_555
H6 C6 1_555 1_555
C7 N1 1_555 1_555
H7 C7 1_555 1_555
Sr1C O1 1_555 1_555
Sr1_2 O2 1_555 1_555
Sr1B O3 1_555 1_555
Sr1C_2 O5 1_555 1_555
O1C Sr1 1_555 1_555
O2_2 Sr1 1_555 1_555
O3B Sr1 1_555 1_555
O5C Sr1 1_555 1_555
H1C O5C 1_555 1_555
H2C O5C 1_555 1_555
C6 C7 1_555 1_555
Sr1C O5C 1_555 1_555
Sr1C_2 O1C 1_555 1_555

#END
