
#######################################################################
#
#                 Cambridge Crystallographic Data Centre
#                                CCDC 
#
#######################################################################
#
# If this CIF has been generated from an entry in the Cambridge 
# Structural Database, then it will include bibliographic, chemical, 
# crystal, experimental, refinement or atomic coordinate data resulting 
# from the CCDC's data processing and validation procedures.
#
#######################################################################

data_FOWKUY
_symmetry_cell_setting           monoclinic
_symmetry_space_group_name_H-M   'P 21/n'
_symmetry_Int_Tables_number      14
_space_group_name_Hall           '-P 2yn'
loop_
_symmetry_equiv_pos_site_id
_symmetry_equiv_pos_as_xyz
1 x,y,z
2 1/2-x,1/2+y,1/2-z
3 -x,-y,-z
4 1/2+x,1/2-y,1/2+z
_cell_length_a                   10.3481(2)
_cell_length_b                   13.9791(2)
_cell_length_c                   12.7789(2)
_cell_angle_alpha                90
_cell_angle_beta                 92.4730(10)
_cell_angle_gamma                90
_cell_volume                     1846.84
loop_
_atom_site_label
_atom_site_type_symbol
_atom_site_fract_x
_atom_site_fract_y
_atom_site_fract_z
Cd1 Cd 0.0000 0.5000 0.5000
Cl1 Cl -0.00576(4) 0.56521(3) 0.69090(3)
N1 N 0.16425(14) 0.61714(10) 0.46966(11)
N2 N 0.14429(14) 0.90557(10) 0.29043(11)
N3 N -0.05153(14) 1.05084(11) 0.26799(11)
N4 N -0.35028(14) 1.12026(10) 0.05522(11)
C1 C 0.14831(17) 0.67064(12) 0.38328(14)
H5 H 0.0828 0.6526 0.3328
C2 C 0.22184(17) 0.75090(12) 0.36317(14)
C3 C 0.31970(18) 0.77468(13) 0.43639(15)
H6 H 0.3738 0.8283 0.4251
C4 C 0.33772(19) 0.71988(13) 0.52574(16)
H7 H 0.4041 0.7354 0.5766
C5 C 0.25809(18) 0.64246(13) 0.53994(15)
H8 H 0.2701 0.6055 0.6020
C6 C 0.19428(18) 0.80989(13) 0.26599(14)
H9 H 0.2748 0.8168 0.2276
H10 H 0.1301 0.7760 0.2197
C7 C 0.02170(18) 0.90049(13) 0.34449(15)
H11 H 0.0356 0.8657 0.4115
H12 H -0.0430 0.8647 0.3006
C8 C -0.0291(2) 0.99965(13) 0.36577(16)
H13 H -0.1109 0.9950 0.4028
H14 H 0.0344 1.0350 0.4112
C9 C 0.06858(18) 1.05772(13) 0.21285(15)
H15 H 0.1326 1.0953 0.2555
H16 H 0.0521 1.0916 0.1456
C10 C 0.12320(18) 0.95935(14) 0.19196(14)
H17 H 0.0624 0.9237 0.1444
H18 H 0.2062 0.9659 0.1569
C11 C -0.11128(18) 1.14457(13) 0.28181(15)
H19 H -0.0434 1.1930 0.2976
H20 H -0.1691 1.1423 0.3415
C12 C -0.27629(17) 1.10601(12) 0.14168(14)
H21 H -0.2843 1.0468 0.1772
C13 C -0.18808(16) 1.17228(12) 0.18317(14)
C14 C -0.17827(18) 1.25856(13) 0.13158(15)
H22 H -0.1203 1.3064 0.1578
C15 C -0.25411(18) 1.27477(13) 0.04085(15)
H23 H -0.2482 1.3335 0.0040
C16 C -0.33791(17) 1.20436(12) 0.00536(14)
H24 H -0.3892 1.2156 -0.0569
Cd1A Cd -0.5000 1.0000 0.0000
Cd1A_2 Cd -0.5000 0.0000 0.0000
Cl1B Cl 0.00576(4) 0.43479(3) 0.30910(3)
N1A N -0.66425(14) 0.11714(10) 0.03034(11)
N1B N -0.16425(14) 0.38286(10) 0.53034(11)
N2A N -0.64429(14) 0.40557(10) 0.20957(11)
N3A N -0.44847(14) 0.55084(11) 0.23201(11)
N4A N -0.14972(14) 0.62026(10) 0.44478(11)
N4C N 0.14972(14) 0.37974(10) 0.55522(11)
C1A C -0.64831(17) 0.17064(12) 0.11672(14)
H5A H -0.5828 0.1526 0.1672
C2A C -0.72184(17) 0.25090(12) 0.13683(14)
C3A C -0.81970(18) 0.27468(13) 0.06361(15)
H6A H -0.8738 0.3283 0.0749
C4A C -0.83772(19) 0.21988(13) -0.02574(16)
H7A H -0.9041 0.2354 -0.0766
C5A C -0.75809(18) 0.14246(13) -0.03994(15)
H8A H -0.7701 0.1055 -0.1020
C6A C -0.69428(18) 0.30989(13) 0.23401(14)
H9A H -0.7748 0.3168 0.2724
H10A H -0.6301 0.2760 0.2803
C7A C -0.52170(18) 0.40049(13) 0.15551(15)
H11A H -0.5356 0.3657 0.0885
H12A H -0.4570 0.3647 0.1994
C8A C -0.4709(2) 0.49965(13) 0.13423(16)
H13A H -0.3891 0.4950 0.0972
H14A H -0.5344 0.5350 0.0888
C9A C -0.56858(18) 0.55772(13) 0.28715(15)
H15A H -0.6326 0.5953 0.2445
H16A H -0.5521 0.5916 0.3544
C10A C -0.62320(18) 0.45935(14) 0.30804(14)
H17A H -0.5624 0.4237 0.3556
H18A H -0.7062 0.4659 0.3431
C11A C -0.38872(18) 0.64457(13) 0.21819(15)
H19A H -0.4566 0.6930 0.2024
H20A H -0.3309 0.6423 0.1585
C12A C -0.22371(17) 0.60601(12) 0.35832(14)
H21A H -0.2157 0.5468 0.3228
C13A C -0.31192(16) 0.67228(12) 0.31683(14)
C14A C -0.32173(18) 0.75856(13) 0.36842(15)
H22A H -0.3797 0.8064 0.3422
C15A C -0.24589(18) 0.77477(13) 0.45915(15)
H23A H -0.2518 0.8335 0.4960
C16A C -0.16209(17) 0.70436(12) 0.49464(14)
H24A H -0.1108 0.7156 0.5569
O1 O 0.31111(17) 1.01315(12) 0.44201(15)
H1 H 0.267(2) 0.9840(17) 0.3915(18)
H2 H 0.375(2) 1.0362(19) 0.4063(19)
O2 O 0.4410(2) 0.92673(13) 0.61847(14)
H3 H 0.385(3) 0.958(2) 0.5722(19)
H4 H 0.443(3) 0.9689(18) 0.6730(17)
loop_
_geom_bond_atom_site_label_1
_geom_bond_atom_site_label_2
_geom_bond_site_symmetry_1
_geom_bond_site_symmetry_2
Cd1 Cl1 1_555 1_555
O1 H1 1_555 1_555
H2 O1 1_555 1_555
O2 H3 1_555 1_555
H4 O2 1_555 1_555
N1 Cd1 1_555 1_555
N2 C6 1_555 1_555
N3 C8 1_555 1_555
N4 C12 1_555 1_555
C1 N1 1_555 1_555
H5 C1 1_555 1_555
C2 C1 1_555 1_555
C3 C2 1_555 1_555
H6 C3 1_555 1_555
C4 C3 1_555 1_555
H7 C4 1_555 1_555
C5 N1 1_555 1_555
H8 C5 1_555 1_555
C6 C2 1_555 1_555
H9 C6 1_555 1_555
H10 C6 1_555 1_555
C7 N2 1_555 1_555
H11 C7 1_555 1_555
H12 C7 1_555 1_555
C8 C7 1_555 1_555
H13 C8 1_555 1_555
H14 C8 1_555 1_555
C9 N3 1_555 1_555
H15 C9 1_555 1_555
H16 C9 1_555 1_555
C10 N2 1_555 1_555
H17 C10 1_555 1_555
H18 C10 1_555 1_555
C11 N3 1_555 1_555
H19 C11 1_555 1_555
H20 C11 1_555 1_555
C12 H21 1_555 1_555
C13 C11 1_555 1_555
C14 C13 1_555 1_555
H22 C14 1_555 1_555
C15 C14 1_555 1_555
H23 C15 1_555 1_555
C16 N4 1_555 1_555
H24 C16 1_555 1_555
Cd1A N4 1_555 1_555
Cd1A_2 N1A 1_555 1_555
Cl1B Cd1 1_555 1_555
N1A C1A 1_555 1_555
N1B Cd1 1_555 1_555
N2A C6A 1_555 1_555
N3A C8A 1_555 1_555
N4A Cd1 1_555 1_555
N4C Cd1 1_555 1_555
C1A H5A 1_555 1_555
C2A C1A 1_555 1_555
C3A C2A 1_555 1_555
H6A C3A 1_555 1_555
C4A C3A 1_555 1_555
H7A C4A 1_555 1_555
C5A N1A 1_555 1_555
H8A C5A 1_555 1_555
C6A C2A 1_555 1_555
H9A C6A 1_555 1_555
H10A C6A 1_555 1_555
C7A N2A 1_555 1_555
H11A C7A 1_555 1_555
H12A C7A 1_555 1_555
C8A C7A 1_555 1_555
H13A C8A 1_555 1_555
H14A C8A 1_555 1_555
C9A N3A 1_555 1_555
H15A C9A 1_555 1_555
H16A C9A 1_555 1_555
C10A N2A 1_555 1_555
H17A C10A 1_555 1_555
H18A C10A 1_555 1_555
C11A N3A 1_555 1_555
H19A C11A 1_555 1_555
H20A C11A 1_555 1_555
C12A N4A 1_555 1_555
H21A C12A 1_555 1_555
C13A C11A 1_555 1_555
C14A C13A 1_555 1_555
H22A C14A 1_555 1_555
C15A C14A 1_555 1_555
H23A C15A 1_555 1_555
C16A N4A 1_555 1_555
H24A C16A 1_555 1_555
C4 C5 1_555 1_555
C9 C10 1_555 1_555
C12 C13 1_555 1_555
C15 C16 1_555 1_555
C4A C5A 1_555 1_555
C9A C10A 1_555 1_555
C12A C13A 1_555 1_555
C15A C16A 1_555 1_555

#END
