
#######################################################################
#
#                 Cambridge Crystallographic Data Centre
#                                CCDC 
#
#######################################################################
#
# If this CIF has been generated from an entry in the Cambridge 
# Structural Database, then it will include bibliographic, chemical, 
# crystal, experimental, refinement or atomic coordinate data resulting 
# from the CCDC's data processing and validation procedures.
#
#######################################################################

data_FOWMIP
_symmetry_cell_setting           monoclinic
_symmetry_space_group_name_H-M   'P 21/c'
_symmetry_Int_Tables_number      14
_space_group_name_Hall           '-P 2ybc'
loop_
_symmetry_equiv_pos_site_id
_symmetry_equiv_pos_as_xyz
1 x,y,z
2 -x,1/2+y,1/2-z
3 -x,-y,-z
4 x,1/2-y,1/2+z
_cell_length_a                   6.576(3)
_cell_length_b                   22.668(11)
_cell_length_c                   10.996(5)
_cell_angle_alpha                90
_cell_angle_beta                 95.183(10)
_cell_angle_gamma                90
_cell_volume                     1632.41
loop_
_atom_site_label
_atom_site_type_symbol
_atom_site_fract_x
_atom_site_fract_y
_atom_site_fract_z
Br1 Br 0.59710(7) 0.916638(16) 0.03432(4)
S1 S 1.19754(13) 0.96797(4) -0.25313(8)
Cu1 Cu 0.49012(7) 0.98890(2) -0.12610(5)
S2 S 0.74456(13) 0.99835(4) -0.25906(9)
O1 O 1.1525(5) 0.71878(12) -0.4027(3)
O2 O 0.6345(5) 0.79602(12) -0.5925(3)
C1 C 1.1820(5) 0.89233(15) -0.2912(3)
C2 C 1.1650(5) 0.87686(16) -0.4131(3)
H1 H 1.1586 0.906 -0.4728
C3 C 1.1576(6) 0.81864(17) -0.4460(4)
H2 H 1.1481 0.8084 -0.5282
C4 C 1.1638(6) 0.77535(16) -0.3591(4)
C5 C 1.1511(9) 0.6724(2) -0.3169(5)
H3 H 1.136 0.6354 -0.3592
H4 H 1.0393 0.6778 -0.2677
H5 H 1.2772 0.6725 -0.2656
C6 C 1.1809(6) 0.79039(17) -0.2374(4)
H6 H 1.1852 0.7612 -0.1779
C7 C 1.1917(6) 0.84868(17) -0.2044(3)
H7 H 1.2058 0.8588 -0.1221
C8 C 0.7065(5) 0.93602(15) -0.3555(3)
C9 C 0.6869(5) 0.88001(15) -0.3096(3)
H8 H 0.6884 0.8745 -0.2257
C10 C 0.6652(5) 0.83254(16) -0.3857(3)
H9 H 0.6566 0.7948 -0.3536
C11 C 0.6561(6) 0.84062(17) -0.5103(4)
C12 C 0.6424(7) 0.73723(18) -0.5488(4)
H10 H 0.6226 0.7105 -0.6165
H11 H 0.5367 0.7313 -0.4952
H12 H 0.773 0.73 -0.5051
C13 C 0.6672(6) 0.89671(17) -0.5566(4)
H13 H 0.656 0.9025 -0.6407
C14 C 0.6946(6) 0.94385(17) -0.4800(3)
H14 H 0.7053 0.9816 -0.5121
C15 C 0.9779(5) 0.97925(15) -0.1681(3)
H15 H 0.9545 0.9435 -0.123
H16 H 1.0096 1.0104 -0.1089
Br1B Br 0.40290(7) 1.083362(16) -0.03432(4)
S1_2 S 0.19754(13) 0.96797(4) -0.25313(8)
Cu1_2 Cu 1.49012(7) 0.98890(2) -0.12610(5)
Cu1B Cu 0.50988(7) 1.01110(2) 0.12610(5)
loop_
_geom_bond_atom_site_label_1
_geom_bond_atom_site_label_2
_geom_bond_site_symmetry_1
_geom_bond_site_symmetry_2
Br1 Cu1 1_555 1_555
S1 C1 1_555 1_555
Cu1 S2 1_555 1_555
S2 C8 1_555 1_555
O1 C4 1_555 1_555
O2 C11 1_555 1_555
C1 C2 1_555 1_555
C2 H1 1_555 1_555
C3 C2 1_555 1_555
H2 C3 1_555 1_555
C4 C3 1_555 1_555
C5 O1 1_555 1_555
H3 C5 1_555 1_555
H4 C5 1_555 1_555
H5 C5 1_555 1_555
C6 C4 1_555 1_555
H6 C6 1_555 1_555
C7 C1 1_555 1_555
H7 C7 1_555 1_555
C8 C9 1_555 1_555
C9 H8 1_555 1_555
C10 C9 1_555 1_555
H9 C10 1_555 1_555
C11 C10 1_555 1_555
C12 O2 1_555 1_555
H10 C12 1_555 1_555
H11 C12 1_555 1_555
H12 C12 1_555 1_555
C13 C11 1_555 1_555
H13 C13 1_555 1_555
C14 C8 1_555 1_555
H14 C14 1_555 1_555
C15 S1 1_555 1_555
H15 C15 1_555 1_555
H16 C15 1_555 1_555
Br1B Cu1 1_555 1_555
S1_2 Cu1 1_555 1_555
Cu1_2 S1 1_555 1_555
Cu1B Br1 1_555 1_555
Cu1 Cu1B 1_555 1_555
S2 C15 1_555 1_555
C6 C7 1_555 1_555
C13 C14 1_555 1_555
Br1B Cu1B 1_555 1_555

#END
