
#######################################################################
#
#                 Cambridge Crystallographic Data Centre
#                                CCDC 
#
#######################################################################
#
# If this CIF has been generated from an entry in the Cambridge 
# Structural Database, then it will include bibliographic, chemical, 
# crystal, experimental, refinement or atomic coordinate data resulting 
# from the CCDC's data processing and validation procedures.
#
#######################################################################

data_FOWVUK
_symmetry_cell_setting           monoclinic
_symmetry_space_group_name_H-M   'C 2/c'
_symmetry_Int_Tables_number      15
_space_group_name_Hall           '-C 2yn'
loop_
_symmetry_equiv_pos_site_id
_symmetry_equiv_pos_as_xyz
1 x,y,z
2 -x,y,1/2-z
3 1/2+x,1/2+y,z
4 1/2-x,1/2+y,1/2-z
5 -x,-y,-z
6 x,-y,1/2+z
7 1/2-x,1/2-y,-z
8 1/2+x,1/2-y,1/2+z
_cell_length_a                   22.848(3)
_cell_length_b                   13.2562(17)
_cell_length_c                   23.117(5)
_cell_angle_alpha                90
_cell_angle_beta                 113.829(2)
_cell_angle_gamma                90
_cell_volume                     6404.77
loop_
_atom_site_label
_atom_site_type_symbol
_atom_site_fract_x
_atom_site_fract_y
_atom_site_fract_z
Eu1 Eu 0.733396(10) 0.207821(16) 0.232033(11)
O1 O 0.73468(15) 0.2499(2) 0.33218(15)
O2 O 0.7118(2) 0.2343(4) 0.4156(2)
O3 O 0.30361(14) -0.3523(2) 0.18557(14)
O4 O 0.39562(16) -0.4269(3) 0.19897(16)
O5 O 0.74695(13) 0.3893(2) 0.25119(13)
O6 O 0.72386(14) 0.5474(2) 0.21938(14)
O7 O 0.43425(19) 0.8893(3) -0.05896(19)
O8 O 0.34025(13) 0.8749(2) -0.14092(14)
N1 N 0.65491(17) 0.1010(3) 0.27080(18)
N2 N 0.35507(17) -0.2685(3) 0.29985(19)
N3 N 0.72311(17) 0.3246(3) 0.13610(17)
N4 N 0.38134(16) 0.7166(3) -0.18630(18)
C1 C 0.6197(2) 0.0208(4) 0.2431(3)
H1 H 0.6133 0.0060 0.2017
C2 C 0.5924(3) -0.0412(4) 0.2732(3)
H2 H 0.5693 -0.0976 0.2523
C3 C 0.5989(2) -0.0204(4) 0.3345(3)
C4 C 0.6341(2) 0.0635(4) 0.3624(3)
H3 H 0.6390 0.0819 0.4029
C5 C 0.6625(2) 0.1218(4) 0.3304(3)
C6 C 0.7060(2) 0.2090(4) 0.3616(3)
C7 C 0.5696(3) -0.0863(4) 0.3705(3)
H4 H 0.5824 -0.0604 0.4131
H5 H 0.5233 -0.0831 0.3496
C8 C 0.5905(2) -0.1922(4) 0.3735(3)
H6 H 0.6366 -0.1955 0.3965
H7 H 0.5802 -0.2164 0.3309
C9 C 0.5584(2) -0.2624(4) 0.4061(3)
H8 H 0.5760 -0.3299 0.4093
H9 H 0.5684 -0.2382 0.4486
C10 C 0.3817(2) -0.2213(4) 0.3554(3)
H10 H 0.3549 -0.1884 0.3708
C11 C 0.4468(2) -0.2186(4) 0.3914(2)
H11 H 0.4630 -0.1841 0.4296
C12 C 0.4870(2) -0.2669(4) 0.3703(2)
C13 C 0.4602(2) -0.3179(3) 0.3133(2)
H12 H 0.4863 -0.3527 0.2979
C14 C 0.3949(2) -0.3172(3) 0.2794(2)
C15 C 0.3634(2) -0.3700(3) 0.2163(2)
C16 C 0.71539(18) 0.4235(3) 0.1432(2)
C17 C 0.69766(19) 0.4905(4) 0.0931(2)
H13 H 0.6920 0.5584 0.0997
C18 C 0.6882(2) 0.4567(4) 0.0328(2)
C19 C 0.6987(2) 0.3549(4) 0.0274(2)
H14 H 0.6944 0.3287 -0.0114
C20 C 0.7152(2) 0.2930(4) 0.0785(2)
H15 H 0.7213 0.2248 0.0731
C21 C 0.72940(19) 0.4563(3) 0.2094(2)
C22 C 0.6676(2) 0.5267(4) -0.0230(2)
H16 H 0.6740 0.4934 -0.0573
H17 H 0.6947 0.5861 -0.0115
C23 C 0.5979(2) 0.5599(4) -0.0463(2)
H18 H 0.5920 0.5987 -0.0135
H19 H 0.5707 0.5008 -0.0550
C24 C 0.5782(2) 0.6240(4) -0.1063(2)
H20 H 0.6044 0.6844 -0.0965
H21 H 0.5872 0.5863 -0.1377
C25 C 0.4239(2) 0.7616(4) -0.1345(2)
C26 C 0.4872(2) 0.7332(4) -0.1078(2)
H22 H 0.5155 0.7662 -0.0719
C27 C 0.5092(2) 0.6548(4) -0.1346(2)
C28 C 0.4651(2) 0.6081(4) -0.1864(2)
H23 H 0.4770 0.5544 -0.2052
C29 C 0.4029(2) 0.6415(3) -0.2106(2)
H24 H 0.3738 0.6093 -0.2465
C30 C 0.3978(2) 0.8480(4) -0.1086(3)
Eu1B Eu 0.233396(10) -0.292179(16) 0.232033(11)
Eu1C Eu 0.766604(10) 0.707821(16) 0.267967(11)
Eu1D Eu 0.266604(10) 0.792179(16) -0.232033(11)
O3B O 0.80361(14) 0.1477(2) 0.18557(14)
O6C O 0.77614(14) 0.0474(2) 0.28062(14)
O8D O 0.65975(13) 0.1251(2) 0.14092(14)
N2B N 0.85507(17) 0.2315(3) 0.29985(19)
N4D N 0.61866(16) 0.2834(3) 0.18630(18)
O9 O 0.8214(5) 0.3574(8) 0.4867(5)
O11 O 0.4482(7) 0.9436(12) 0.5104(7)
N5 N 0.7538(2) 0.4645(3) 0.3713(2)
H25 H 0.7204 0.5040 0.3580
H26 H 0.7882 0.4991 0.3941
H27 H 0.7482 0.4170 0.3952
H28 H 0.7589 0.4369 0.3394
O10? O 0.8326(5) 0.2945(7) 0.4895(6)
O12? O 0.4098(7) 0.9519(12) 0.4872(7)
loop_
_geom_bond_atom_site_label_1
_geom_bond_atom_site_label_2
_geom_bond_site_symmetry_1
_geom_bond_site_symmetry_2
Eu1 O1 1_555 1_555
O1 C6 1_555 1_555
O2 C6 1_555 1_555
O3 C15 1_555 1_555
O4 C15 1_555 1_555
O5 Eu1 1_555 1_555
O6 C21 1_555 1_555
O7 C30 1_555 1_555
O8 C30 1_555 1_555
N1 Eu1 1_555 1_555
N2 C10 1_555 1_555
N3 Eu1 1_555 1_555
N4 C25 1_555 1_555
C1 N1 1_555 1_555
H1 C1 1_555 1_555
C2 C1 1_555 1_555
H2 C2 1_555 1_555
C3 C2 1_555 1_555
C4 C3 1_555 1_555
H3 C4 1_555 1_555
C5 N1 1_555 1_555
C6 C5 1_555 1_555
C7 C3 1_555 1_555
H4 C7 1_555 1_555
H5 C7 1_555 1_555
C8 C7 1_555 1_555
H6 C8 1_555 1_555
H7 C8 1_555 1_555
C9 C8 1_555 1_555
H8 C9 1_555 1_555
H9 C9 1_555 1_555
C10 H10 1_555 1_555
C11 C10 1_555 1_555
H11 C11 1_555 1_555
C12 C9 1_555 1_555
C13 C12 1_555 1_555
H12 C13 1_555 1_555
C14 N2 1_555 1_555
C15 C14 1_555 1_555
C16 N3 1_555 1_555
C17 C16 1_555 1_555
H13 C17 1_555 1_555
C18 C17 1_555 1_555
C19 C18 1_555 1_555
H14 C19 1_555 1_555
C20 N3 1_555 1_555
H15 C20 1_555 1_555
C21 O5 1_555 1_555
C22 C18 1_555 1_555
H16 C22 1_555 1_555
H17 C22 1_555 1_555
C23 C22 1_555 1_555
H18 C23 1_555 1_555
H19 C23 1_555 1_555
C24 C23 1_555 1_555
H20 C24 1_555 1_555
H21 C24 1_555 1_555
C25 C26 1_555 1_555
C26 H22 1_555 1_555
C27 C24 1_555 1_555
C28 C27 1_555 1_555
H23 C28 1_555 1_555
C29 N4 1_555 1_555
H24 C29 1_555 1_555
C30 C25 1_555 1_555
N5 H25 1_555 1_555
H26 N5 1_555 1_555
H27 N5 1_555 1_555
H28 N5 1_555 1_555
Eu1B O3 1_555 1_555
Eu1C O6 1_555 1_555
Eu1D O8 1_555 1_555
O3B Eu1 1_555 1_555
O6C Eu1 1_555 1_555
O8D Eu1 1_555 1_555
N2B Eu1 1_555 1_555
N4D Eu1 1_555 1_555
N2 Eu1B 1_555 1_555
N4 Eu1D 1_555 1_555
C4 C5 1_555 1_555
C11 C12 1_555 1_555
C13 C14 1_555 1_555
C16 C21 1_555 1_555
C19 C20 1_555 1_555
C26 C27 1_555 1_555
C28 C29 1_555 1_555

#END
