
#######################################################################
#
#                 Cambridge Crystallographic Data Centre
#                                CCDC 
#
#######################################################################
#
# If this CIF has been generated from an entry in the Cambridge 
# Structural Database, then it will include bibliographic, chemical, 
# crystal, experimental, refinement or atomic coordinate data resulting 
# from the CCDC's data processing and validation procedures.
#
#######################################################################

data_FOWWEV
_symmetry_cell_setting           monoclinic
_symmetry_space_group_name_H-M   'C 2/c'
_symmetry_Int_Tables_number      15
_space_group_name_Hall           '-C 2yn'
loop_
_symmetry_equiv_pos_site_id
_symmetry_equiv_pos_as_xyz
1 x,y,z
2 -x,y,1/2-z
3 1/2+x,1/2+y,z
4 1/2-x,1/2+y,1/2-z
5 -x,-y,-z
6 x,-y,1/2+z
7 1/2-x,1/2-y,-z
8 1/2+x,1/2-y,1/2+z
_cell_length_a                   22.850(6)
_cell_length_b                   13.361(3)
_cell_length_c                   23.203(6)
_cell_angle_alpha                90
_cell_angle_beta                 113.611(3)
_cell_angle_gamma                90
_cell_volume                     6490.83
loop_
_atom_site_label
_atom_site_type_symbol
_atom_site_fract_x
_atom_site_fract_y
_atom_site_fract_z
Nd1 Nd 0.733418(8) 0.207150(13) 0.232007(8)
O1 O 0.73410(13) 0.2495(2) 0.33276(13)
O2 O 0.7111(2) 0.2324(3) 0.41582(18)
O3 O 0.30602(12) -0.35265(19) 0.18605(11)
O4 O 0.39765(14) -0.4279(2) 0.19993(14)
O5 O 0.74629(12) 0.38946(17) 0.25022(12)
O6 O 0.72236(12) 0.54657(18) 0.21809(12)
O7 O 0.43536(16) 0.8853(3) -0.05688(16)
O8 O 0.34233(12) 0.87349(18) -0.13931(12)
N1 N 0.65484(14) 0.1018(2) 0.27197(14)
N2 N 0.35651(15) -0.2691(2) 0.29967(15)
N3 N 0.72341(14) 0.3256(2) 0.13571(14)
N4 N 0.38253(15) 0.7158(2) -0.18472(14)
C1 C 0.6200(2) 0.0221(3) 0.2442(2)
H1 H 0.6141 0.0074 0.2031
C2 C 0.5922(2) -0.0398(3) 0.2740(2)
H2 H 0.5686 -0.0951 0.2528
C3 C 0.5993(2) -0.0201(3) 0.3347(2)
C4 C 0.6352(2) 0.0627(3) 0.3630(2)
H3 H 0.6413 0.0795 0.4039
C5 C 0.66227(18) 0.1210(3) 0.33105(18)
C6 C 0.7057(2) 0.2073(3) 0.3625(2)
C7 C 0.5701(2) -0.0871(3) 0.3695(2)
H4 H 0.5820 -0.0616 0.4119
H5 H 0.5239 -0.0842 0.3484
C8 C 0.5910(2) -0.1930(3) 0.3730(3)
H6 H 0.6370 -0.1960 0.3956
H7 H 0.5807 -0.2174 0.3307
C9 C 0.55989(19) -0.2623(4) 0.4056(2)
H8 H 0.5776 -0.3290 0.4088
H9 H 0.5697 -0.2380 0.4478
C10 C 0.3825(2) -0.2218(3) 0.3549(2)
H10 H 0.3554 -0.1894 0.3699
C11 C 0.4476(2) -0.2185(3) 0.3911(2)
H11 H 0.4635 -0.1841 0.4291
C12 C 0.48864(19) -0.2670(3) 0.3699(2)
C13 C 0.46170(18) -0.3187(3) 0.31375(19)
H12 H 0.4878 -0.3544 0.2989
C14 C 0.39635(18) -0.3176(2) 0.27942(18)
C15 C 0.36525(18) -0.3715(3) 0.21680(18)
C16 C 0.71510(16) 0.4238(3) 0.14242(16)
C17 C 0.69695(16) 0.4902(3) 0.09278(17)
H13 H 0.6905 0.5573 0.0993
C18 C 0.68820(16) 0.4571(3) 0.03300(16)
C19 C 0.69979(18) 0.3572(3) 0.02721(18)
H14 H 0.6965 0.3321 -0.0113
C20 C 0.7163(2) 0.2941(3) 0.07855(19)
H15 H 0.7226 0.2266 0.0731
C21 C 0.72902(15) 0.4554(2) 0.20903(17)
C22 C 0.66827(18) 0.5259(3) -0.02308(18)
H16 H 0.6738 0.4915 -0.0574
H17 H 0.6959 0.5841 -0.0123
C23 C 0.59859(18) 0.5605(3) -0.04525(18)
H18 H 0.5707 0.5026 -0.0536
H19 H 0.5934 0.5998 -0.0125
C24 C 0.58020(19) 0.6234(4) -0.10481(19)
H20 H 0.6068 0.6828 -0.0953
H21 H 0.5887 0.5852 -0.1362
C25 C 0.42535(18) 0.7605(3) -0.13278(18)
C26 C 0.4881(2) 0.7321(3) -0.10602(19)
H22 H 0.5161 0.7646 -0.0701
C27 C 0.51057(18) 0.6549(3) -0.13214(18)
C28 C 0.46635(18) 0.6087(3) -0.18458(18)
H23 H 0.4787 0.5559 -0.2033
C29 C 0.40434(19) 0.6406(3) -0.20907(18)
H24 H 0.3756 0.6083 -0.2447
C30 C 0.39940(19) 0.8463(3) -0.10709(19)
Nd1B Nd 0.233418(8) -0.292850(13) 0.232007(8)
Nd1C Nd 0.766582(8) 0.707150(13) 0.267993(8)
Nd1D Nd 0.266582(8) 0.792850(13) -0.232007(8)
O3B O 0.80602(12) 0.14735(19) 0.18605(11)
O6C O 0.77764(12) 0.04657(18) 0.28191(12)
O8D O 0.65767(12) 0.12651(18) 0.13931(12)
N2B N 0.85651(15) 0.2309(2) 0.29967(15)
N4D N 0.61747(15) 0.2842(2) 0.18472(14)
O9 O 0.8186(5) 0.3584(7) 0.4820(4)
O11 O 0.4365(4) 0.9435(6) 0.5013(4)
N5 N 0.7521(2) 0.4644(3) 0.36932(17)
H25 H 0.7187 0.5039 0.3560
H26 H 0.7865 0.4990 0.3921
H27 H 0.7466 0.4170 0.3932
H28 H 0.7572 0.4369 0.3374
O10? O 0.8342(5) 0.2919(7) 0.4903(5)
O12? O 0.3506(4) 0.9965(6) 0.4748(4)
loop_
_geom_bond_atom_site_label_1
_geom_bond_atom_site_label_2
_geom_bond_site_symmetry_1
_geom_bond_site_symmetry_2
Nd1 O1 1_555 1_555
O1 C6 1_555 1_555
O2 C6 1_555 1_555
O3 C15 1_555 1_555
O4 C15 1_555 1_555
O5 Nd1 1_555 1_555
O6 C21 1_555 1_555
O7 C30 1_555 1_555
O8 C30 1_555 1_555
N1 Nd1 1_555 1_555
N2 C10 1_555 1_555
N3 Nd1 1_555 1_555
N4 C25 1_555 1_555
C1 N1 1_555 1_555
H1 C1 1_555 1_555
C2 C1 1_555 1_555
H2 C2 1_555 1_555
C3 C2 1_555 1_555
C4 C3 1_555 1_555
H3 C4 1_555 1_555
C5 N1 1_555 1_555
C6 C5 1_555 1_555
C7 C3 1_555 1_555
H4 C7 1_555 1_555
H5 C7 1_555 1_555
C8 C7 1_555 1_555
H6 C8 1_555 1_555
H7 C8 1_555 1_555
C9 C8 1_555 1_555
H8 C9 1_555 1_555
H9 C9 1_555 1_555
C10 H10 1_555 1_555
C11 C10 1_555 1_555
H11 C11 1_555 1_555
C12 C9 1_555 1_555
C13 C12 1_555 1_555
H12 C13 1_555 1_555
C14 N2 1_555 1_555
C15 C14 1_555 1_555
C16 N3 1_555 1_555
C17 C16 1_555 1_555
H13 C17 1_555 1_555
C18 C17 1_555 1_555
C19 C18 1_555 1_555
H14 C19 1_555 1_555
C20 N3 1_555 1_555
H15 C20 1_555 1_555
C21 O5 1_555 1_555
C22 C18 1_555 1_555
H16 C22 1_555 1_555
H17 C22 1_555 1_555
C23 C22 1_555 1_555
H18 C23 1_555 1_555
H19 C23 1_555 1_555
C24 C23 1_555 1_555
H20 C24 1_555 1_555
H21 C24 1_555 1_555
C25 C26 1_555 1_555
C26 H22 1_555 1_555
C27 C24 1_555 1_555
C28 C27 1_555 1_555
H23 C28 1_555 1_555
C29 N4 1_555 1_555
H24 C29 1_555 1_555
C30 C25 1_555 1_555
N5 H25 1_555 1_555
H26 N5 1_555 1_555
H27 N5 1_555 1_555
H28 N5 1_555 1_555
Nd1B O3 1_555 1_555
Nd1C O6 1_555 1_555
Nd1D O8 1_555 1_555
O3B Nd1 1_555 1_555
O6C Nd1 1_555 1_555
O8D Nd1 1_555 1_555
N2B Nd1 1_555 1_555
N4D Nd1 1_555 1_555
N2 Nd1B 1_555 1_555
N4 Nd1D 1_555 1_555
C4 C5 1_555 1_555
C11 C12 1_555 1_555
C13 C14 1_555 1_555
C16 C21 1_555 1_555
C19 C20 1_555 1_555
C26 C27 1_555 1_555
C28 C29 1_555 1_555

#END
