
#######################################################################
#
#                 Cambridge Crystallographic Data Centre
#                                CCDC 
#
#######################################################################
#
# If this CIF has been generated from an entry in the Cambridge 
# Structural Database, then it will include bibliographic, chemical, 
# crystal, experimental, refinement or atomic coordinate data resulting 
# from the CCDC's data processing and validation procedures.
#
#######################################################################

data_FOWWAR
_symmetry_cell_setting           monoclinic
_symmetry_space_group_name_H-M   'C 2/c'
_symmetry_Int_Tables_number      15
_space_group_name_Hall           '-C 2yn'
loop_
_symmetry_equiv_pos_site_id
_symmetry_equiv_pos_as_xyz
1 x,y,z
2 -x,y,1/2-z
3 1/2+x,1/2+y,z
4 1/2-x,1/2+y,1/2-z
5 -x,-y,-z
6 x,-y,1/2+z
7 1/2-x,1/2-y,-z
8 1/2+x,1/2-y,1/2+z
_cell_length_a                   22.7409(16)
_cell_length_b                   13.2827(9)
_cell_length_c                   25.3097(18)
_cell_angle_alpha                90
_cell_angle_beta                 122.3150(10)
_cell_angle_gamma                90
_cell_volume                     6461.01
loop_
_atom_site_label
_atom_site_type_symbol
_atom_site_fract_x
_atom_site_fract_y
_atom_site_fract_z
Sm1 Sm 0.748611(8) 0.459309(11) 0.232329(7)
O1 O 0.63133(11) 0.39959(17) 0.18658(10)
O2 O 0.55328(14) 0.3220(2) 0.20006(13)
O3 O 0.34723(12) 1.00186(18) 0.33150(11)
O4 O 0.45280(15) 0.9850(3) 0.41518(15)
O5 O 0.73144(11) 0.37619(16) 0.14176(10)
O6 O 0.73986(19) 0.3646(3) 0.05847(15)
O7 O 0.74616(11) 0.85888(16) -0.25024(10)
O8 O 0.75430(12) 0.70074(16) -0.21829(11)
N1 N 0.69364(15) 0.4827(2) 0.29953(14)
N2 N 0.36695(14) 0.8535(2) 0.27206(13)
N3 N 0.81738(14) 0.53426(19) 0.18570(12)
N4 N 0.83690(14) 0.92389(19) -0.13651(12)
C1 C 0.60274(17) 0.3801(2) 0.21715(16)
C2 C 0.63367(17) 0.4334(2) 0.27937(16)
C3 C 0.60216(19) 0.4313(3) 0.31340(17)
H1 H 0.5612 0.3952 0.2985
C4 C 0.6316(2) 0.4830(3) 0.36974(18)
C5 C 0.6936(2) 0.5322(3) 0.39038(19)
H2 H 0.7157 0.5667 0.4282
C6 C 0.7229(2) 0.5300(3) 0.35439(19)
H3 H 0.7650 0.5631 0.3692
C7 C 0.5958(2) 0.4870(3) 0.4056(2)
H4 H 0.6282 0.5112 0.4476
H5 H 0.5813 0.4197 0.4087
C8 C 0.5316(2) 0.5568(3) 0.3732(2)
H6 H 0.4993 0.5321 0.3313
H7 H 0.5084 0.5543 0.3960
C9 C 0.5497(2) 0.6647(3) 0.3694(2)
H8 H 0.5748 0.6671 0.3482
H9 H 0.5801 0.6907 0.4114
C10 C 0.48579(19) 0.7311(3) 0.33478(18)
C11 C 0.4323(2) 0.7110(3) 0.27402(19)
H10 H 0.4351 0.6555 0.2531
C12 C 0.3747(2) 0.7733(3) 0.24432(18)
H11 H 0.3398 0.7589 0.2033
C13 C 0.41803(17) 0.8724(2) 0.33084(16)
C14 C 0.47773(19) 0.8141(3) 0.36305(18)
H12 H 0.5124 0.8310 0.4038
C15 C 0.40598(18) 0.9598(3) 0.36192(17)
C16 C 0.75545(19) 0.4036(3) 0.10876(17)
C17 C 0.80729(18) 0.4896(3) 0.13356(15)
C18 C 0.8432(2) 0.5179(3) 0.10621(17)
H13 H 0.8351 0.4848 0.0705
C19 C 0.89152(18) 0.5954(3) 0.13157(16)
C20 C 0.90109(19) 0.6419(3) 0.18450(16)
H14 H 0.9326 0.6947 0.2030
C21 C 0.86368(18) 0.6096(3) 0.20970(16)
H15 H 0.8709 0.6418 0.2453
C22 C 0.93312(19) 0.6272(3) 0.10385(17)
H16 H 0.9509 0.5675 0.0949
H17 H 0.9728 0.6665 0.1347
C23 C 0.89214(19) 0.6889(3) 0.04433(16)
H18 H 0.8722 0.7472 0.0522
H19 H 0.8543 0.6486 0.0121
C24 C 0.93918(19) 0.7235(3) 0.02155(17)
H20 H 0.9792 0.7580 0.0555
H21 H 0.9560 0.6647 0.0109
C25 C 0.90381(17) 0.7923(3) -0.03414(15)
C26 C 0.92091(18) 0.8932(3) -0.02892(16)
H22 H 0.9561 0.9189 0.0093
C27 C 0.88621(19) 0.9560(3) -0.08002(16)
H23 H 0.8978 1.0239 -0.0748
C28 C 0.82168(16) 0.8253(2) -0.14310(14)
C29 C 0.85317(17) 0.7579(2) -0.09330(15)
H24 H 0.8404 0.6904 -0.0996
C30 C 0.77000(16) 0.7918(2) -0.20893(14)
Sm1B Sm 0.248611(8) 0.959309(11) 0.232329(7)
Sm1E Sm 0.748611(8) 0.540691(11) -0.267671(7)
Sm1F Sm 0.751389(8) 1.040691(11) -0.232329(7)
O3B O 0.84723(12) 0.50186(18) 0.33150(11)
O7F O 0.75384(11) 0.64112(16) 0.25024(10)
O8E O 0.75430(12) 0.29926(16) 0.28171(11)
N2B N 0.86695(14) 0.3535(2) 0.27206(13)
N4F N 0.66310(14) 0.57611(19) 0.13651(12)
O9 O 0.5891(5) 0.8823(7) 0.5182(4)
O11 O 0.6877(4) 0.8088(6) 0.4976(3)
N5 N 0.63364(14) 0.21597(17) 0.13409(12)
H25 H 0.5975 0.2012 0.0968
H26 H 0.6520 0.1641 0.1594
H27 H 0.6208 0.2608 0.1516
H28 H 0.6659 0.2439 0.1297
O10? O 0.5911(5) 0.9534(6) 0.5080(4)
O12? O 0.6198(4) 0.7466(6) 0.5248(3)
loop_
_geom_bond_atom_site_label_1
_geom_bond_atom_site_label_2
_geom_bond_site_symmetry_1
_geom_bond_site_symmetry_2
Sm1 O1 1_555 1_555
O1 C1 1_555 1_555
O2 C1 1_555 1_555
O3 C15 1_555 1_555
O4 C15 1_555 1_555
O5 Sm1 1_555 1_555
O6 C16 1_555 1_555
O7 C30 1_555 1_555
O8 C30 1_555 1_555
N1 Sm1 1_555 1_555
N2 C12 1_555 1_555
N3 Sm1 1_555 1_555
N4 C27 1_555 1_555
C1 C2 1_555 1_555
C2 N1 1_555 1_555
C3 C2 1_555 1_555
H1 C3 1_555 1_555
C4 C3 1_555 1_555
C5 C4 1_555 1_555
H2 C5 1_555 1_555
C6 N1 1_555 1_555
H3 C6 1_555 1_555
C7 C4 1_555 1_555
H4 C7 1_555 1_555
H5 C7 1_555 1_555
C8 C7 1_555 1_555
H6 C8 1_555 1_555
H7 C8 1_555 1_555
C9 C8 1_555 1_555
H8 C9 1_555 1_555
H9 C9 1_555 1_555
C10 C9 1_555 1_555
C11 C10 1_555 1_555
H10 C11 1_555 1_555
C12 C11 1_555 1_555
H11 C12 1_555 1_555
C13 N2 1_555 1_555
C14 C10 1_555 1_555
H12 C14 1_555 1_555
C15 C13 1_555 1_555
C16 O5 1_555 1_555
C17 N3 1_555 1_555
C18 C17 1_555 1_555
H13 C18 1_555 1_555
C19 C18 1_555 1_555
C20 C19 1_555 1_555
H14 C20 1_555 1_555
C21 N3 1_555 1_555
H15 C21 1_555 1_555
C22 C19 1_555 1_555
H16 C22 1_555 1_555
H17 C22 1_555 1_555
C23 C22 1_555 1_555
H18 C23 1_555 1_555
H19 C23 1_555 1_555
C24 C23 1_555 1_555
H20 C24 1_555 1_555
H21 C24 1_555 1_555
C25 C24 1_555 1_555
C26 C25 1_555 1_555
H22 C26 1_555 1_555
C27 C26 1_555 1_555
H23 C27 1_555 1_555
C28 N4 1_555 1_555
C29 C25 1_555 1_555
H24 C29 1_555 1_555
C30 C28 1_555 1_555
N5 H25 1_555 1_555
H26 N5 1_555 1_555
H27 N5 1_555 1_555
H28 N5 1_555 1_555
Sm1B O3 1_555 1_555
Sm1E O8 1_555 1_555
Sm1F O7 1_555 1_555
O3B Sm1 1_555 1_555
O7F Sm1 1_555 1_555
O8E Sm1 1_555 1_555
N2B Sm1 1_555 1_555
N4F Sm1 1_555 1_555
N2 Sm1B 1_555 1_555
N4 Sm1F 1_555 1_555
C5 C6 1_555 1_555
C13 C14 1_555 1_555
C16 C17 1_555 1_555
C20 C21 1_555 1_555
C28 C29 1_555 1_555

#END
