
#######################################################################
#
#                 Cambridge Crystallographic Data Centre
#                                CCDC 
#
#######################################################################
#
# If this CIF has been generated from an entry in the Cambridge 
# Structural Database, then it will include bibliographic, chemical, 
# crystal, experimental, refinement or atomic coordinate data resulting 
# from the CCDC's data processing and validation procedures.
#
#######################################################################

data_FOWXOG01
_symmetry_cell_setting           monoclinic
_symmetry_space_group_name_H-M   'C 2/c'
_symmetry_Int_Tables_number      15
_space_group_name_Hall           '-C 2yn'
loop_
_symmetry_equiv_pos_site_id
_symmetry_equiv_pos_as_xyz
1 x,y,z
2 -x,y,1/2-z
3 1/2+x,1/2+y,z
4 1/2-x,1/2+y,1/2-z
5 -x,-y,-z
6 x,-y,1/2+z
7 1/2-x,1/2-y,-z
8 1/2+x,1/2-y,1/2+z
_cell_length_a                   20.6980(13)
_cell_length_b                   13.5689(9)
_cell_length_c                   15.5919(9)
_cell_angle_alpha                90
_cell_angle_beta                 123.481(2)
_cell_angle_gamma                90
_cell_volume                     3652.36
loop_
_atom_site_label
_atom_site_type_symbol
_atom_site_fract_x
_atom_site_fract_y
_atom_site_fract_z
I1 I 0.59197(2) 0.62583(3) 0.41851(3)
Cu1 Cu 0.44525(5) 0.58543(6) 0.26912(6)
Cu2 Cu 0.56158(5) 0.43813(6) 0.35053(6)
I2 I 0.41594(2) 0.39245(3) 0.29495(3)
S1 S 0.64298(9) 0.34714(12) 0.70011(12)
S2 S 0.64833(9) 0.36060(11) 0.50592(12)
C1 C 0.5932(4) 0.3747(5) 0.5648(5)
C2 C 0.6467(4) 0.2306(5) 0.4888(5)
H1 H 0.5745 0.4436 0.5542
H2 H 0.5471 0.3317 0.5274
C3 C 0.7114(4) 0.1760(5) 0.5599(5)
C4 C 0.5833(4) 0.1845(5) 0.4052(5)
C5 C 0.6392(4) 0.2156(5) 0.7022(5)
H3 H 0.7557 0.2083 0.6152
C6 C 0.7112(4) 0.0735(5) 0.5499(6)
C7 C 0.5833(4) 0.0828(5) 0.3950(5)
H4 H 0.5401 0.2223 0.3551
C8 C 0.7057(4) 0.1656(5) 0.7752(5)
C9 C 0.5718(4) 0.1642(5) 0.6341(5)
H5 H 0.7547 0.0355 0.5989
C10 C 0.6468(4) 0.0283(5) 0.4679(5)
H6 H 0.5400 0.0507 0.3382
H7 H 0.7513 0.2013 0.8225
C11 C 0.7056(4) 0.0635(5) 0.7792(6)
C12 C 0.5721(4) 0.0625(5) 0.6365(6)
H8 H 0.5258 0.1988 0.5860
Br1 Br 0.64448(5) -0.11044(5) 0.45573(7)
H9 H 0.7509 0.0289 0.8294
C13 C 0.6388(4) 0.0129(5) 0.7094(5)
H10 H 0.5268 0.0266 0.5885
Br2 Br 0.63641(5) -0.12696(5) 0.71008(7)
I1A I 0.40803(2) 0.62583(3) 0.08149(3)
Cu1A Cu 0.55475(5) 0.58543(6) 0.23088(6)
Cu1D Cu 0.55475(5) 0.41457(6) 0.73088(6)
Cu2A Cu 0.43842(5) 0.43813(6) 0.14947(6)
I2A I 0.58406(2) 0.39245(3) 0.20505(3)
S1D S 0.35702(9) 0.65286(12) 0.29989(12)
loop_
_geom_bond_atom_site_label_1
_geom_bond_atom_site_label_2
_geom_bond_site_symmetry_1
_geom_bond_site_symmetry_2
I1 Cu1 1_555 1_555
Cu1 I2 1_555 1_555
Cu2 I1 1_555 1_555
I2 Cu2 1_555 1_555
S1 C1 1_555 1_555
S2 Cu2 1_555 1_555
C1 S2 1_555 1_555
C2 S2 1_555 1_555
H1 C1 1_555 1_555
H2 C1 1_555 1_555
C3 C2 1_555 1_555
C4 C2 1_555 1_555
C5 S1 1_555 1_555
H3 C3 1_555 1_555
C6 C3 1_555 1_555
C7 C4 1_555 1_555
H4 C4 1_555 1_555
C8 C5 1_555 1_555
C9 C5 1_555 1_555
H5 C6 1_555 1_555
C10 C6 1_555 1_555
H6 C7 1_555 1_555
H7 C8 1_555 1_555
C11 C8 1_555 1_555
C12 C9 1_555 1_555
H8 C9 1_555 1_555
Br1 C10 1_555 1_555
H9 C11 1_555 1_555
C13 C11 1_555 1_555
H10 C12 1_555 1_555
Br2 C13 1_555 1_555
I1A Cu1 1_555 1_555
Cu1A I1 1_555 1_555
Cu1D S1 1_555 1_555
Cu2A I2 1_555 1_555
I2A Cu2 1_555 1_555
S1D Cu1 1_555 1_555
C7 C10 1_555 1_555
C12 C13 1_555 1_555
I1A Cu1A 1_555 1_555
I1A Cu2A 1_555 1_555
Cu1A I2A 1_555 1_555
Cu2A I2A 1_555 1_555

#END
