
#######################################################################
#
#                 Cambridge Crystallographic Data Centre
#                                CCDC 
#
#######################################################################
#
# If this CIF has been generated from an entry in the Cambridge 
# Structural Database, then it will include bibliographic, chemical, 
# crystal, experimental, refinement or atomic coordinate data resulting 
# from the CCDC's data processing and validation procedures.
#
#######################################################################

data_FOWYOH
_symmetry_cell_setting           monoclinic
_symmetry_space_group_name_H-M   'C 2/c'
_symmetry_Int_Tables_number      15
_space_group_name_Hall           '-C 2yn'
loop_
_symmetry_equiv_pos_site_id
_symmetry_equiv_pos_as_xyz
1 x,y,z
2 -x,y,1/2-z
3 1/2+x,1/2+y,z
4 1/2-x,1/2+y,1/2-z
5 -x,-y,-z
6 x,-y,1/2+z
7 1/2-x,1/2-y,-z
8 1/2+x,1/2-y,1/2+z
_cell_length_a                   20.913(19)
_cell_length_b                   13.424(11)
_cell_length_c                   15.628(11)
_cell_angle_alpha                90
_cell_angle_beta                 123.171(11)
_cell_angle_gamma                90
_cell_volume                     3672.39
loop_
_atom_site_label
_atom_site_type_symbol
_atom_site_fract_x
_atom_site_fract_y
_atom_site_fract_z
C1 C 0.9083(5) 0.1277(6) 0.4370(6)
H1 H 0.9534 0.1719 0.4737
H2 H 0.9274 0.0583 0.4485
C2 C 0.8611(5) 0.2873(6) 0.2968(7)
C3 C 0.9251(6) 0.3415(7) 0.3613(8)
H3 H 0.9715 0.3085 0.4089
C4 C 0.9223(6) 0.4443(7) 0.3574(7)
H4 H 0.9664 0.4815 0.4052
C5 C 0.8564(6) 0.4942(7) 0.2851(8)
C6 C 0.8540(7) 0.6066(8) 0.2814(10)
H5 H 0.8271 0.6288 0.2101
H6 H 0.9063 0.6329 0.3191
H7 H 0.8272 0.6312 0.3126
C7 C 0.7921(6) 0.4385(7) 0.2180(8)
H8 H 0.7464 0.4715 0.1680
C8 C 0.7937(5) 0.3346(7) 0.2229(7)
H9 H 0.7495 0.2968 0.1767
C9 C 0.8531(5) 0.2730(6) 0.5118(6)
C10 C 0.9149(5) 0.3211(7) 0.5955(7)
H10 H 0.9581 0.2843 0.6459
C11 C 0.9118(6) 0.4240(7) 0.6037(7)
H11 H 0.9536 0.4569 0.6609
C12 C 0.8498(5) 0.4802(7) 0.5312(7)
C13 C 0.8504(7) 0.5916(8) 0.5399(9)
H12 H 0.7978 0.6161 0.5054
H13 H 0.8786 0.6106 0.6122
H14 H 0.8751 0.6208 0.5077
C14 C 0.7885(5) 0.4302(7) 0.4507(8)
H15 H 0.7446 0.4667 0.4013
C15 C 0.7899(5) 0.3282(7) 0.4408(7)
H16 H 0.7471 0.2955 0.3848
Cu1 Cu 0.94600(7) 0.08428(9) 0.26999(9)
Cu2 Cu 0.93888(7) -0.06359(9) 0.14968(8)
I1 I 0.91703(3) -0.11000(4) 0.29560(4)
I2 I 0.90872(3) 0.12776(4) 0.08267(4)
S1 S 0.85920(12) 0.15404(16) 0.30123(16)
S2 S 0.85303(12) 0.14204(16) 0.49514(16)
Cu1A Cu 1.05400(7) 0.08428(9) 0.23001(9)
Cu2A Cu 1.06112(7) -0.06359(9) 0.35032(8)
Cu2E Cu 0.93888(7) 0.06359(9) 0.64968(8)
I1A I 1.08297(3) -0.11000(4) 0.20440(4)
I2A I 1.09128(3) 0.12776(4) 0.41733(4)
S2E S 0.85303(12) -0.14204(16) -0.00486(16)
loop_
_geom_bond_atom_site_label_1
_geom_bond_atom_site_label_2
_geom_bond_site_symmetry_1
_geom_bond_site_symmetry_2
C1 H1 1_555 1_555
H2 C1 1_555 1_555
C2 C3 1_555 1_555
C3 H3 1_555 1_555
C4 C3 1_555 1_555
H4 C4 1_555 1_555
C5 C4 1_555 1_555
C6 C5 1_555 1_555
H5 C6 1_555 1_555
H6 C6 1_555 1_555
H7 C6 1_555 1_555
C7 C5 1_555 1_555
H8 C7 1_555 1_555
C8 C2 1_555 1_555
H9 C8 1_555 1_555
C9 C10 1_555 1_555
C10 H10 1_555 1_555
C11 C10 1_555 1_555
H11 C11 1_555 1_555
C12 C11 1_555 1_555
C13 C12 1_555 1_555
H12 C13 1_555 1_555
H13 C13 1_555 1_555
H14 C13 1_555 1_555
C14 C12 1_555 1_555
H15 C14 1_555 1_555
C15 C9 1_555 1_555
H16 C15 1_555 1_555
Cu1 I1 1_555 1_555
Cu2 I1 1_555 1_555
I1 Cu2A 1_555 1_555
I2 Cu1 1_555 1_555
S1 C1 1_555 1_555
S2 C1 1_555 1_555
Cu1A I2 1_555 1_555
Cu2A I1A 1_555 1_555
Cu2E S2 1_555 1_555
I1A Cu2 1_555 1_555
I2A Cu1 1_555 1_555
S2E Cu2 1_555 1_555
C2 S1 1_555 1_555
C7 C8 1_555 1_555
C9 S2 1_555 1_555
C14 C15 1_555 1_555
Cu1 S1 1_555 1_555
Cu2 I2 1_555 1_555
Cu1A I1A 1_555 1_555
Cu1A I2A 1_555 1_555
Cu2A I2A 1_555 1_555

#END
