
#######################################################################
#
#                 Cambridge Crystallographic Data Centre
#                                CCDC 
#
#######################################################################
#
# If this CIF has been generated from an entry in the Cambridge 
# Structural Database, then it will include bibliographic, chemical, 
# crystal, experimental, refinement or atomic coordinate data resulting 
# from the CCDC's data processing and validation procedures.
#
#######################################################################

data_FOWZEY
_symmetry_cell_setting           monoclinic
_symmetry_space_group_name_H-M   'C 2/c'
_symmetry_Int_Tables_number      15
_space_group_name_Hall           '-C 2yn'
loop_
_symmetry_equiv_pos_site_id
_symmetry_equiv_pos_as_xyz
1 x,y,z
2 -x,y,1/2-z
3 1/2+x,1/2+y,z
4 1/2-x,1/2+y,1/2-z
5 -x,-y,-z
6 x,-y,1/2+z
7 1/2-x,1/2-y,-z
8 1/2+x,1/2-y,1/2+z
_cell_length_a                   19.986(2)
_cell_length_b                   18.1136(12)
_cell_length_c                   15.6749(15)
_cell_angle_alpha                90
_cell_angle_beta                 106.651(11)
_cell_angle_gamma                90
_cell_volume                     5436.65
loop_
_atom_site_label
_atom_site_type_symbol
_atom_site_fract_x
_atom_site_fract_y
_atom_site_fract_z
I1 I 0.427929(17) -0.08599(2) 0.82360(3)
Cu1 Cu 0.44405(3) 0.06029(4) 0.79037(5)
Cu2 Cu 0.55432(3) -0.03959(4) 0.82653(5)
I2 I 0.572358(18) 0.10481(2) 0.87647(3)
S1 S 0.36659(7) 0.11068(9) 0.86142(10)
S2 S 0.36128(6) 0.08745(9) 1.05317(9)
C1 C 0.2875(3) 0.0588(3) 0.8193(4)
C2 C 0.4063(2) 0.0730(3) 0.9706(3)
C3 C 0.2719(3) -0.0032(3) 0.8597(4)
C4 C 0.2424(3) 0.0849(4) 0.7390(4)
H1 H 0.4119 0.0192 0.9643
H2 H 0.4537 0.0943 0.9933
H3 H 0.3038 -0.0190 0.9140
C5 C 0.2111(3) -0.0442(3) 0.8243(4)
C6 C 0.1841(3) 0.0435(4) 0.7040(4)
C7 C 0.2566(3) 0.1535(4) 0.6941(4)
C8 C 0.3625(3) 0.1843(3) 1.0698(4)
C9 C 0.1961(3) -0.1108(4) 0.8739(4)
C10 C 0.1680(3) -0.0185(4) 0.7450(5)
H4 H 0.1529 0.0581 0.6486
H5 H 0.2867 0.1416 0.6565
H6 H 0.2799 0.1897 0.7393
H7 H 0.2124 0.1741 0.6573
C11 C 0.3109(3) 0.2146(4) 1.1023(4)
C12 C 0.4155(3) 0.2277(4) 1.0572(4)
C13 C 0.2583(3) -0.1636(4) 0.8990(4)
C14 C 0.1808(3) -0.0838(4) 0.9595(5)
C15 C 0.1325(3) -0.1540(4) 0.8200(5)
H8 H 0.1259 -0.0443 0.7177
C16 C 0.3149(4) 0.2883(4) 1.1176(5)
C17 C 0.2537(3) 0.1685(4) 1.1196(4)
C18 C 0.4191(3) 0.3026(4) 1.0726(4)
H9 H 0.4511 0.2050 1.0370
H10 H 0.2706 -0.1783 0.8452
H11 H 0.2460 -0.2075 0.9278
H12 H 0.2983 -0.1388 0.9402
H13 H 0.2213 -0.0565 0.9960
H14 H 0.1717 -0.1264 0.9931
H15 H 0.1398 -0.0514 0.9439
H16 H 0.0901 -0.1252 0.8153
H17 H 0.1298 -0.2010 0.8498
H18 H 0.1368 -0.1636 0.7603
H19 H 0.2795 0.3109 1.1382
C19 C 0.3662(4) 0.3315(4) 1.1051(5)
H20 H 0.2196 0.2007 1.1350
H21 H 0.2737 0.1345 1.1690
H22 H 0.2306 0.1401 1.0660
C20 C 0.4775(4) 0.3486(4) 1.0544(6)
H23 H 0.3665 0.3827 1.1186
C21 C 0.4853(4) 0.4219(5) 1.0976(8)
C22 C 0.4600(5) 0.3601(7) 0.9564(7)
C23 C 0.5464(4) 0.3102(5) 1.0854(6)
H24 H 0.5218 0.4498 1.0813
H25 H 0.4984 0.4156 1.1624
H26 H 0.4410 0.4487 1.0778
H27 H 0.4174 0.3900 0.9364
H28 H 0.4523 0.3122 0.9262
H29 H 0.4986 0.3857 0.9422
H30 H 0.5822 0.3398 1.0698
H31 H 0.5431 0.2617 1.0566
H32 H 0.5590 0.3037 1.1501
I1A I 0.572071(17) -0.08599(2) 0.67640(3)
Cu1A Cu 0.55595(3) 0.06029(4) 0.70963(5)
Cu2A Cu 0.44568(3) -0.03959(4) 0.67347(5)
Cu2D Cu 0.44568(3) 0.03959(4) 1.17347(5)
I2A I 0.427642(18) 0.10481(2) 0.62353(3)
S2D S 0.63872(6) -0.08745(9) 0.94683(9)
loop_
_geom_bond_atom_site_label_1
_geom_bond_atom_site_label_2
_geom_bond_site_symmetry_1
_geom_bond_site_symmetry_2
I1 Cu1 1_555 1_555
Cu1 I2 1_555 1_555
Cu2 I1 1_555 1_555
I2 Cu2 1_555 1_555
S1 Cu1 1_555 1_555
S2 C2 1_555 1_555
C1 S1 1_555 1_555
C2 S1 1_555 1_555
C3 C1 1_555 1_555
C4 C1 1_555 1_555
H1 C2 1_555 1_555
H2 C2 1_555 1_555
H3 C3 1_555 1_555
C5 C3 1_555 1_555
C6 C4 1_555 1_555
C7 C4 1_555 1_555
C8 S2 1_555 1_555
C9 C5 1_555 1_555
C10 C5 1_555 1_555
H4 C6 1_555 1_555
H5 C7 1_555 1_555
H6 C7 1_555 1_555
H7 C7 1_555 1_555
C11 C8 1_555 1_555
C12 C8 1_555 1_555
C13 C9 1_555 1_555
C14 C9 1_555 1_555
C15 C9 1_555 1_555
H8 C10 1_555 1_555
C16 C11 1_555 1_555
C17 C11 1_555 1_555
C18 C12 1_555 1_555
H9 C12 1_555 1_555
H10 C13 1_555 1_555
H11 C13 1_555 1_555
H12 C13 1_555 1_555
H13 C14 1_555 1_555
H14 C14 1_555 1_555
H15 C14 1_555 1_555
H16 C15 1_555 1_555
H17 C15 1_555 1_555
H18 C15 1_555 1_555
H19 C16 1_555 1_555
C19 C16 1_555 1_555
H20 C17 1_555 1_555
H21 C17 1_555 1_555
H22 C17 1_555 1_555
C20 C18 1_555 1_555
H23 C19 1_555 1_555
C21 C20 1_555 1_555
C22 C20 1_555 1_555
C23 C20 1_555 1_555
H24 C21 1_555 1_555
H25 C21 1_555 1_555
H26 C21 1_555 1_555
H27 C22 1_555 1_555
H28 C22 1_555 1_555
H29 C22 1_555 1_555
H30 C23 1_555 1_555
H31 C23 1_555 1_555
H32 C23 1_555 1_555
I1A Cu2 1_555 1_555
Cu1A I2 1_555 1_555
Cu2A I1 1_555 1_555
Cu2D S2 1_555 1_555
I2A Cu1 1_555 1_555
S2D Cu2 1_555 1_555
C6 C10 1_555 1_555
C18 C19 1_555 1_555
I1A Cu1A 1_555 1_555
I1A Cu2A 1_555 1_555
Cu1A I2A 1_555 1_555
Cu2A I2A 1_555 1_555

#END
