
#######################################################################
#
#                 Cambridge Crystallographic Data Centre
#                                CCDC 
#
#######################################################################
#
# If this CIF has been generated from an entry in the Cambridge 
# Structural Database, then it will include bibliographic, chemical, 
# crystal, experimental, refinement or atomic coordinate data resulting 
# from the CCDC's data processing and validation procedures.
#
#######################################################################

data_FOWZIC
_symmetry_cell_setting           monoclinic
_symmetry_space_group_name_H-M   'P n'
_symmetry_Int_Tables_number      7
_space_group_name_Hall           'P -2yac'
loop_
_symmetry_equiv_pos_site_id
_symmetry_equiv_pos_as_xyz
1 x,y,z
2 1/2+x,-y,1/2+z
_cell_length_a                   12.8375(6)
_cell_length_b                   6.4922(3)
_cell_length_c                   16.7746(8)
_cell_angle_alpha                90
_cell_angle_beta                 93.0410(10)
_cell_angle_gamma                90
_cell_volume                     1396.09
loop_
_atom_site_label
_atom_site_type_symbol
_atom_site_fract_x
_atom_site_fract_y
_atom_site_fract_z
C1 C 0.3387(4) 0.7497(9) 0.6614(3)
C2 C 0.3871(5) 0.8816(9) 0.7164(3)
H1 H 0.4433 0.966 0.7016
C3 C 0.3530(5) 0.8897(10) 0.7930(3)
H2 H 0.3877 0.9777 0.8311
C4 C 0.2701(5) 0.7735(10) 0.8156(3)
H3 H 0.2466 0.7835 0.8682
C5 C 0.2212(5) 0.6418(9) 0.7607(4)
H4 H 0.1641 0.5601 0.7757
C6 C 0.2552(5) 0.6287(9) 0.6841(3)
H5 H 0.2217 0.5371 0.6467
C7 C 0.3033(4) 1.1724(8) 0.4415(3)
C8 C 0.2168(5) 1.0471(9) 0.4261(4)
H6 H 0.1927 0.961 0.467
C9 C 0.1660(5) 1.0471(10) 0.3516(4)
H7 H 0.1076 0.9595 0.341
C10 C 0.2002(5) 1.1754(9) 0.2919(3)
H8 H 0.165 1.1766 0.2407
C11 C 0.2848(5) 1.3000(9) 0.3076(3)
H9 H 0.3077 1.3885 0.2669
C12 C 0.3377(5) 1.2993(9) 0.3816(3)
H10 H 0.3971 1.3849 0.3915
C13 C 0.9141(5) 1.6629(8) 0.5133(3)
C14 C 0.8805(5) 1.6553(9) 0.4332(3)
H11 H 0.8097 1.6832 0.4173
C15 C 0.9519(5) 1.6064(9) 0.3767(3)
H12 H 0.9301 1.6024 0.3217
C16 C 1.0547(5) 1.5632(9) 0.4003(4)
H13 H 1.1033 1.5283 0.3617
C17 C 1.0857(5) 1.5713(10) 0.4798(4)
H14 H 1.156 1.5401 0.4959
C18 C 1.0171(5) 1.6236(9) 0.5367(3)
H15 H 1.0401 1.6327 0.5914
C19 C 0.9180(5) 2.1559(8) 0.6289(3)
C20 C 1.0229(5) 2.1241(9) 0.6156(4)
H16 H 1.0453 2.1037 0.5631
C21 C 1.0950(5) 2.1229(10) 0.6816(4)
H17 H 1.1671 2.1026 0.674
C22 C 1.0610(5) 2.1511(10) 0.7574(4)
H18 H 1.11 2.1503 0.8019
C23 C 0.9576(5) 2.1800(9) 0.7690(4)
H19 H 0.9353 2.1965 0.8217
C24 C 0.8845(5) 2.1857(9) 0.7051(3)
H20 H 0.8129 2.2097 0.7135
C25 C 0.4456(4) 0.9488(8) 0.5406(3)
H21 H 0.4768 0.9341 0.4882
H22 H 0.5033 0.9652 0.5817
C26 C 0.7519(5) 1.9255(8) 0.5612(3)
H23 H 0.7031 1.957 0.6033
H24 H 0.7094 1.8927 0.5118
Br1 Br 0.59408(4) 1.34134(9) 0.67254(3)
Br2 Br 0.60031(4) 1.52072(9) 0.44705(3)
Cu1 Cu 0.48583(5) 1.44320(11) 0.55452(4)
Cu2 Cu 0.71334(5) 1.42469(11) 0.56593(4)
S1 S 0.37408(11) 0.7178(2) 0.56134(8)
S2 S 0.36470(11) 1.1803(2) 0.53922(8)
S3 S 0.82867(11) 2.1553(2) 0.54334(8)
S4 S 0.82620(11) 1.7001(2) 0.59088(8)
Cu1_2 Cu 0.48583(5) 0.44320(11) 0.55452(4)
Cu2_2 Cu 0.71334(5) 2.42469(11) 0.56593(4)
S1_2 S 0.37408(11) 1.7178(2) 0.56134(8)
S3_2 S 0.82867(11) 1.1553(2) 0.54334(8)
loop_
_geom_bond_atom_site_label_1
_geom_bond_atom_site_label_2
_geom_bond_site_symmetry_1
_geom_bond_site_symmetry_2
C1 C2 1_555 1_555
C2 H1 1_555 1_555
C3 C2 1_555 1_555
H2 C3 1_555 1_555
C4 C3 1_555 1_555
H3 C4 1_555 1_555
C5 C4 1_555 1_555
H4 C5 1_555 1_555
C6 C1 1_555 1_555
H5 C6 1_555 1_555
C7 C8 1_555 1_555
C8 H6 1_555 1_555
C9 C8 1_555 1_555
H7 C9 1_555 1_555
C10 C9 1_555 1_555
H8 C10 1_555 1_555
C11 C10 1_555 1_555
H9 C11 1_555 1_555
C12 C7 1_555 1_555
H10 C12 1_555 1_555
C13 C14 1_555 1_555
C14 H11 1_555 1_555
C15 C14 1_555 1_555
H12 C15 1_555 1_555
C16 C15 1_555 1_555
H13 C16 1_555 1_555
C17 C16 1_555 1_555
H14 C17 1_555 1_555
C18 C13 1_555 1_555
H15 C18 1_555 1_555
C19 C20 1_555 1_555
C20 H16 1_555 1_555
C21 C20 1_555 1_555
H17 C21 1_555 1_555
C22 C21 1_555 1_555
H18 C22 1_555 1_555
C23 C22 1_555 1_555
H19 C23 1_555 1_555
C24 C19 1_555 1_555
H20 C24 1_555 1_555
C25 H21 1_555 1_555
H22 C25 1_555 1_555
C26 H23 1_555 1_555
H24 C26 1_555 1_555
Br1 Cu1 1_555 1_555
Br2 Cu1 1_555 1_555
Cu1 S2 1_555 1_555
Cu2 Br1 1_555 1_555
S1 C1 1_555 1_555
S2 C7 1_555 1_555
S3 C19 1_555 1_555
S4 C13 1_555 1_555
Cu1_2 S1 1_555 1_555
Cu2_2 S3 1_555 1_555
S1_2 Cu1 1_555 1_555
S3_2 Cu2 1_555 1_555
C5 C6 1_555 1_555
C11 C12 1_555 1_555
C17 C18 1_555 1_555
C23 C24 1_555 1_555
C25 S1 1_555 1_555
C25 S2 1_555 1_555
C26 S3 1_555 1_555
C26 S4 1_555 1_555
Br2 Cu2 1_555 1_555
Cu2 S4 1_555 1_555

#END
