
#######################################################################
#
#                 Cambridge Crystallographic Data Centre
#                                CCDC 
#
#######################################################################
#
# If this CIF has been generated from an entry in the Cambridge 
# Structural Database, then it will include bibliographic, chemical, 
# crystal, experimental, refinement or atomic coordinate data resulting 
# from the CCDC's data processing and validation procedures.
#
#######################################################################

data_FOXBEB
_symmetry_cell_setting           monoclinic
_symmetry_space_group_name_H-M   'C 2/c'
_symmetry_Int_Tables_number      15
_space_group_name_Hall           '-C 2yn'
loop_
_symmetry_equiv_pos_site_id
_symmetry_equiv_pos_as_xyz
1 x,y,z
2 -x,y,1/2-z
3 1/2+x,1/2+y,z
4 1/2-x,1/2+y,1/2-z
5 -x,-y,-z
6 x,-y,1/2+z
7 1/2-x,1/2-y,-z
8 1/2+x,1/2-y,1/2+z
_cell_length_a                   17.132(3)
_cell_length_b                   6.7725(14)
_cell_length_c                   14.519(3)
_cell_angle_alpha                90
_cell_angle_beta                 104.04(3)
_cell_angle_gamma                90
_cell_volume                     1634.26
loop_
_atom_site_label
_atom_site_type_symbol
_atom_site_fract_x
_atom_site_fract_y
_atom_site_fract_z
O1 O 0.38327(10) 0.0677(2) -0.19872(12)
O2 O 0.46293(10) 0.2631(2) 0.14705(12)
O3 O 0.37751(10) 0.3944(2) -0.20333(11)
C1 C 0.41052(14) 0.2342(3) -0.17324(16)
O4 O 0.36760(11) 0.2364(3) 0.01100(13)
C2 C 0.43827(15) 0.2511(3) 0.05738(17)
C3 C 0.50137(14) 0.2529(3) 0.00121(17)
C4 C 0.48967(14) 0.2441(3) -0.09927(17)
Ca1 Ca 0.61077(3) 0.26682(6) 0.22488(3)
S1 S 0.63162(4) 0.25794(9) -0.03154(5)
N1 N 0.57821(12) 0.2624(3) 0.04674(14)
N2 N 0.55786(13) 0.2455(3) -0.12669(16)
O5 O 0.73612(12) 0.2823(4) 0.16798(15)
O6 O 0.71823(14) 0.2238(4) 0.36231(15)
H1 H 0.695(3) 0.230(5) 0.416(4)
H2 H 0.781(3) 0.237(5) 0.205(4)
H3 H 0.746(3) 0.390(8) 0.162(3)
H4 H 0.760(3) 0.266(6) 0.381(4)
O1D O 0.61673(10) -0.0677(2) 0.19872(12)
O2A O 0.53707(10) 0.2631(2) 0.35295(12)
O3D O 0.62249(10) 0.6056(2) 0.20333(11)
Ca1A Ca 0.38923(3) 0.26682(6) 0.27512(3)
Ca1D Ca 0.38923(3) -0.26682(6) -0.22488(3)
Ca1D_2 Ca 0.38923(3) 0.73318(6) -0.22488(3)
loop_
_geom_bond_atom_site_label_1
_geom_bond_atom_site_label_2
_geom_bond_site_symmetry_1
_geom_bond_site_symmetry_2
O1 C1 1_555 1_555
O2 C2 1_555 1_555
O3 C1 1_555 1_555
C1 C4 1_555 1_555
O4 C2 1_555 1_555
C2 C3 1_555 1_555
C3 C4 1_555 1_555
C4 N2 1_555 1_555
Ca1 O2 1_555 1_555
S1 N1 1_555 1_555
N1 C3 1_555 1_555
N2 S1 1_555 1_555
O5 Ca1 1_555 1_555
O6 Ca1 1_555 1_555
H1 O6 1_555 1_555
H2 O5 1_555 1_555
H3 O5 1_555 1_555
H4 O6 1_555 1_555
O1D Ca1 1_555 1_555
O2A Ca1 1_555 1_555
O3D Ca1 1_555 1_555
Ca1A O2 1_555 1_555
Ca1D O1 1_555 1_555
Ca1D_2 O3 1_555 1_555
Ca1 N1 1_555 1_555
O2A Ca1A 1_555 1_555

#END
