
#######################################################################
#
#                 Cambridge Crystallographic Data Centre
#                                CCDC 
#
#######################################################################
#
# If this CIF has been generated from an entry in the Cambridge 
# Structural Database, then it will include bibliographic, chemical, 
# crystal, experimental, refinement or atomic coordinate data resulting 
# from the CCDC's data processing and validation procedures.
#
#######################################################################

data_FOXBIF
_symmetry_cell_setting           triclinic
_symmetry_space_group_name_H-M   'P -1'
_symmetry_Int_Tables_number      2
_space_group_name_Hall           '-P 1'
loop_
_symmetry_equiv_pos_site_id
_symmetry_equiv_pos_as_xyz
1 x,y,z
2 -x,-y,-z
_cell_length_a                   7.0896(14)
_cell_length_b                   9.0192(18)
_cell_length_c                   9.1894(18)
_cell_angle_alpha                117.60(3)
_cell_angle_beta                 109.81(3)
_cell_angle_gamma                93.10(3)
_cell_volume                     473.95
loop_
_atom_site_label
_atom_site_type_symbol
_atom_site_fract_x
_atom_site_fract_y
_atom_site_fract_z
Sr1 Sr 0.30169(4) 0.16361(4) 0.09744(4)
S1 S 0.04549(13) 0.27984(10) -0.28211(11)
O1 O 0.0906(3) 0.8566(3) 0.0071(3)
O2 O 0.3902(4) 0.8430(3) -0.0174(3)
O3 O 0.5289(4) 0.1053(4) 0.3558(4)
O4 O 0.4711(4) 0.5038(3) 0.2721(3)
O5 O 0.1215(5) -0.0350(4) -0.2624(4)
O6 O 0.2092(4) 0.3238(4) 0.3846(4)
O7 O 0.4550(4) 0.7618(3) 0.2998(3)
N1 N 0.0481(4) 0.4726(4) -0.2567(4)
N2 N 0.2076(4) 0.3404(3) -0.0796(3)
C1 C 0.2222(5) 0.7767(4) -0.0285(4)
C2 C 0.1808(5) 0.5879(4) -0.0876(4)
C3 C 0.2697(5) 0.5114(4) 0.0147(4)
C4 C 0.4129(5) 0.6016(4) 0.2128(4)
H1 H 0.207(8) -0.064(6) -0.287(7)
H2 H 0.320(9) 0.368(7) 0.496(8)
H3 H 0.509(8) 0.010(7) 0.327(7)
H4 H 0.532(8) 0.161(7) 0.457(8)
H5 H 0.165(9) 0.394(7) 0.384(8)
H6 H 0.017(10) -0.121(9) -0.310(8)
Sr1_2 Sr 0.30169(4) 1.16361(4) 0.09744(4)
Sr1A Sr -0.30169(4) 0.83639(4) -0.09744(4)
Sr1A_2 Sr 0.69831(4) 0.83639(4) -0.09744(4)
O1_2 O 0.0906(3) -0.1434(3) 0.0071(3)
O1A O -0.0906(3) 0.1434(3) -0.0071(3)
O2_2 O 0.3902(4) -0.1570(3) -0.0174(3)
O2A O 0.6098(4) 0.1570(3) 0.0174(3)
loop_
_geom_bond_atom_site_label_1
_geom_bond_atom_site_label_2
_geom_bond_site_symmetry_1
_geom_bond_site_symmetry_2
Sr1 O3 1_555 1_555
S1 N1 1_555 1_555
O1 C1 1_555 1_555
O2 C1 1_555 1_555
O3 H3 1_555 1_555
O4 Sr1 1_555 1_555
O5 Sr1 1_555 1_555
O6 Sr1 1_555 1_555
O7 C4 1_555 1_555
N1 C2 1_555 1_555
N2 Sr1 1_555 1_555
C1 C2 1_555 1_555
C2 C3 1_555 1_555
C3 N2 1_555 1_555
C4 O4 1_555 1_555
H1 O5 1_555 1_555
H2 O6 1_555 1_555
H4 O3 1_555 1_555
H5 O6 1_555 1_555
H6 O5 1_555 1_555
Sr1_2 O1 1_555 1_555
Sr1A O1 1_555 1_555
Sr1A_2 O2 1_555 1_555
O1_2 Sr1 1_555 1_555
O1A Sr1 1_555 1_555
O2_2 Sr1 1_555 1_555
O2A Sr1 1_555 1_555
S1 N2 1_555 1_555
O2 Sr1_2 1_555 1_555
C3 C4 1_555 1_555

#END
