
#######################################################################
#
#                 Cambridge Crystallographic Data Centre
#                                CCDC 
#
#######################################################################
#
# If this CIF has been generated from an entry in the Cambridge 
# Structural Database, then it will include bibliographic, chemical, 
# crystal, experimental, refinement or atomic coordinate data resulting 
# from the CCDC's data processing and validation procedures.
#
#######################################################################

data_FOXCUQ
_symmetry_cell_setting           monoclinic
_symmetry_space_group_name_H-M   'P 21/m'
_symmetry_Int_Tables_number      11
_space_group_name_Hall           '-P 2yb'
loop_
_symmetry_equiv_pos_site_id
_symmetry_equiv_pos_as_xyz
1 x,y,z
2 -x,1/2+y,-z
3 -x,-y,-z
4 x,1/2-y,z
_cell_length_a                   8.3989(21)
_cell_length_b                   6.9976(19)
_cell_length_c                   18.0347(57)
_cell_angle_alpha                90
_cell_angle_beta                 100.159(23)
_cell_angle_gamma                90
_cell_volume                     1043.32
loop_
_atom_site_label
_atom_site_type_symbol
_atom_site_fract_x
_atom_site_fract_y
_atom_site_fract_z
Ga1 Ga 0.49434(15) 0.25000 0.29349(8)
Ga2 Ga 0.38263(15) -0.25000 0.22357(8)
Cl1 Cl 0.50000(43) 0.25000 0.17474(20)
Cl2 Cl 0.64035(38) -0.25000 0.26564(23)
Cl3 Cl 0.30588(23) 0.00130(38) 0.29795(12)
C1 C 0.6716(16) 0.25000 0.38101(79)
C2 C 0.6351(14) 0.25000 0.45549(71)
C3 C 0.7526(17) 0.25000 0.51794(76)
C4 C 0.9278(15) 0.25000 0.50304(93)
C5 C 0.9483(16) 0.25000 0.4336(11)
C6 C 0.8290(14) 0.25000 0.37126(83)
C7 C 0.4541(15) 0.25000 0.47165(81)
C8 C 1.0574(20) 0.25000 0.5744(10)
C9 C 0.8725(15) 0.25000 0.29188(84)
C10 C 0.2528(13) -0.25000 0.12308(65)
C11 C 0.3367(14) -0.25000 0.05672(75)
C12 C 0.2445(15) -0.25000 -0.01389(73)
C13 C 0.0609(16) -0.25000 -0.02179(79)
C14 C 0.0025(17) -0.25000 0.0391(10)
C15 C 0.0852(17) -0.25000 0.11385(77)
C16 C 0.5154(16) -0.25000 0.06566(89)
C17 C -0.0434(20) -0.25000 -0.09872(93)
C18 C -0.0079(13) -0.25000 0.17817(86)
H1 H 0.4558 0.2500 0.5254
H2 H 0.3951 0.1391 0.4522
H3 H 0.7500 0.2500 0.5714
H4 H 1.0100 0.2500 0.6194
H5 H 1.1257 0.3608 0.5753
H6 H 1.0795 0.2500 0.4300
H7 H 0.9845 0.2500 0.2937
H8 H 0.8275 0.3608 0.2632
H9 H 0.5806 -0.2500 0.0145
H10 H 0.5551 -0.3608 0.0946
H11 H 0.2744 -0.2500 -0.0618
H12 H 0.0203 -0.2500 -0.1368
H13 H -0.1119 -0.1391 -0.1037
H14 H -0.0731 -0.2500 0.0754
H15 H 0.0630 -0.2500 0.2337
H16 H -0.0761 -0.3608 0.1730
Cl3C Cl 0.30588(23) 0.49870(38) 0.29795(12)
Cl3C_2 Cl 0.30588(23) -0.50130(38) 0.29795(12)
H2C H 0.3951 0.3609 0.4522
H5C H 1.1257 0.1392 0.5753
H8C H 0.8275 0.1392 0.2632
H10C H 0.5551 -0.1392 0.0946
H13C H -0.1119 -0.3609 -0.1037
H16C H -0.0761 -0.1392 0.1730
Ga2_2 Ga 0.38263(15) 0.75000 0.22357(8)
loop_
_geom_bond_atom_site_label_1
_geom_bond_atom_site_label_2
_geom_bond_site_symmetry_1
_geom_bond_site_symmetry_2
Ga1 Cl1 1_555 1_555
Ga2 Cl2 1_555 1_555
Cl3 Ga1 1_555 1_555
C1 Ga1 1_555 1_555
C2 C1 1_555 1_555
C3 C2 1_555 1_555
C4 C3 1_555 1_555
C5 C4 1_555 1_555
C6 C1 1_555 1_555
C7 C2 1_555 1_555
C8 C4 1_555 1_555
C9 C6 1_555 1_555
C10 Ga2 1_555 1_555
C11 C10 1_555 1_555
C12 C11 1_555 1_555
C13 C12 1_555 1_555
C14 C13 1_555 1_555
C15 C10 1_555 1_555
C16 C11 1_555 1_555
C17 C13 1_555 1_555
C18 C15 1_555 1_555
H1 C7 1_555 1_555
H2 C7 1_555 1_555
H3 C3 1_555 1_555
H4 C8 1_555 1_555
H5 C8 1_555 1_555
H6 C5 1_555 1_555
H7 C9 1_555 1_555
H8 C9 1_555 1_555
H9 C16 1_555 1_555
H10 C16 1_555 1_555
H11 C12 1_555 1_555
H12 C17 1_555 1_555
H13 C17 1_555 1_555
H14 C14 1_555 1_555
H15 C18 1_555 1_555
H16 C18 1_555 1_555
Cl3C Ga1 1_555 1_555
Cl3C_2 Ga2 1_555 1_555
H2C C7 1_555 1_555
H5C C8 1_555 1_555
H8C C9 1_555 1_555
H10C C16 1_555 1_555
H13C C17 1_555 1_555
H16C C18 1_555 1_555
Ga2_2 Cl3C 1_555 1_555
Ga2 Cl3 1_555 1_555
C5 C6 1_555 1_555
C14 C15 1_555 1_555

#END
