
#######################################################################
#
#                 Cambridge Crystallographic Data Centre
#                                CCDC 
#
#######################################################################
#
# If this CIF has been generated from an entry in the Cambridge 
# Structural Database, then it will include bibliographic, chemical, 
# crystal, experimental, refinement or atomic coordinate data resulting 
# from the CCDC's data processing and validation procedures.
#
#######################################################################

data_FOXDAY
_symmetry_cell_setting           monoclinic
_symmetry_space_group_name_H-M   'P 21/n'
_symmetry_Int_Tables_number      14
_space_group_name_Hall           '-P 2yn'
loop_
_symmetry_equiv_pos_site_id
_symmetry_equiv_pos_as_xyz
1 x,y,z
2 1/2-x,1/2+y,1/2-z
3 -x,-y,-z
4 1/2+x,1/2-y,1/2+z
_cell_length_a                   10.10400(10)
_cell_length_b                   7.4932(7)
_cell_length_c                   10.7036(10)
_cell_angle_alpha                90
_cell_angle_beta                 93.229(2)
_cell_angle_gamma                90
_cell_volume                     809.097
loop_
_atom_site_label
_atom_site_type_symbol
_atom_site_fract_x
_atom_site_fract_y
_atom_site_fract_z
Co1 Co 1.20553(6) 0.32149(8) 0.57922(6)
O1 O 1.0617(3) 0.2486(5) 0.4340(3)
O2 O 1.3254(3) 0.0592(5) 0.2705(3)
O3 O 1.3151(3) 0.1730(5) 0.4597(3)
O4 O 0.8745(3) 0.1224(5) 0.1895(3)
O5 O 0.8124(3) -0.0971(5) 0.3114(3)
O6 O 1.0838(3) 0.4832(5) 0.6897(3)
O7 O 1.2271(4) 0.5569(5) 0.4808(3)
C1 C 1.1144(5) 0.1541(6) 0.3303(5)
H1 H 1.0993 0.2258 0.2542
C2 C 1.2627(5) 0.1263(6) 0.3546(5)
C3 C 0.8990(5) 0.0047(6) 0.2689(4)
C4 C 1.0428(5) -0.0217(6) 0.3126(5)
H2 H 1.0472 -0.0867 0.3911
H3 H 1.0867 -0.0929 0.2515
H4 H 1.142(3) 0.536(6) 0.736(3)
H5 H 1.014(3) 0.469(7) 0.730(3)
H6 H 1.288(4) 0.629(5) 0.504(3)
H7 H 1.215(4) 0.557(6) 0.4022(11)
H10 H 1.016(4) 0.336(4) 0.408(5)
Co1C Co 0.70553(6) 0.17851(8) 0.07922(6)
Co1B Co 0.79447(6) -0.32149(8) 0.42078(6)
O4C O 1.3745(3) 0.3776(5) 0.6895(3)
O5B O 1.1876(3) 0.0971(5) 0.6886(3)
O8 O 1.5919(4) 0.1913(6) 0.4557(5)
H8 H 1.512(2) 0.197(6) 0.478(5)
H9 H 1.626(4) 0.093(4) 0.480(5)
loop_
_geom_bond_atom_site_label_1
_geom_bond_atom_site_label_2
_geom_bond_site_symmetry_1
_geom_bond_site_symmetry_2
Co1 O1 1_555 1_555
O1 C1 1_555 1_555
O2 C2 1_555 1_555
O3 Co1 1_555 1_555
O4 C3 1_555 1_555
O5 C3 1_555 1_555
O6 Co1 1_555 1_555
O7 Co1 1_555 1_555
O8 H8 1_555 1_555
C1 H1 1_555 1_555
C2 O3 1_555 1_555
C3 C4 1_555 1_555
C4 C1 1_555 1_555
H2 C4 1_555 1_555
H3 C4 1_555 1_555
H4 O6 1_555 1_555
H5 O6 1_555 1_555
H6 O7 1_555 1_555
H7 O7 1_555 1_555
H9 O8 1_555 1_555
H10 O1 1_555 1_555
Co1C O4 1_555 1_555
Co1B O5 1_555 1_555
O4C Co1 1_555 1_555
O5B Co1 1_555 1_555
C1 C2 1_555 1_555

#END
