
#######################################################################
#
#                 Cambridge Crystallographic Data Centre
#                                CCDC 
#
#######################################################################
#
# If this CIF has been generated from an entry in the Cambridge 
# Structural Database, then it will include bibliographic, chemical, 
# crystal, experimental, refinement or atomic coordinate data resulting 
# from the CCDC's data processing and validation procedures.
#
#######################################################################

data_FOXGEF
_symmetry_cell_setting           triclinic
_symmetry_space_group_name_H-M   'P -1'
_symmetry_Int_Tables_number      2
_space_group_name_Hall           '-P 1'
loop_
_symmetry_equiv_pos_site_id
_symmetry_equiv_pos_as_xyz
1 x,y,z
2 -x,-y,-z
_cell_length_a                   6.84290(10)
_cell_length_b                   8.01670(10)
_cell_length_c                   16.6700(2)
_cell_angle_alpha                101.6200(10)
_cell_angle_beta                 92.5550(10)
_cell_angle_gamma                93.4390(10)
_cell_volume                     892.616
loop_
_atom_site_label
_atom_site_type_symbol
_atom_site_fract_x
_atom_site_fract_y
_atom_site_fract_z
Zn1 Zn 0.19779(3) 0.58919(3) 0.188584(13)
Zn2 Zn 0.26320(3) 0.96925(3) 0.309777(13)
C1 C 0.0467(3) 0.5880(2) 0.43868(11)
C2 C -0.1459(3) 0.5219(2) 0.44205(11)
C3 C 0.1898(3) 0.5664(2) 0.49647(11)
H1 H 0.3173 0.6116 0.4941
C4 C 0.1070(3) 0.6707(2) 0.36925(11)
C5 C -0.3060(3) 0.5493(2) 0.38211(11)
O1 O 0.1889(2) 0.82096(17) 0.38882(8)
O2 O 0.0801(2) 0.58438(19) 0.29902(8)
O3 O -0.4229(3) 0.4248(2) 0.35058(12)
O4 O -0.3135(2) 0.69436(19) 0.36674(10)
C6 C 0.0639(3) 0.9763(2) 0.07689(11)
C7 C -0.1212(3) 0.9066(2) 0.04319(11)
C8 C 0.1827(3) 1.0691(2) 0.03354(12)
H2 H 0.3053 1.1156 0.0565
C9 C 0.1354(3) 0.9520(2) 0.15918(11)
C10 C -0.2624(3) 0.8139(2) 0.08949(12)
O5 O 0.2597(2) 1.06218(18) 0.20148(8)
O6 O 0.0691(2) 0.82610(18) 0.18669(9)
O7 O -0.3423(2) 0.90212(19) 0.14747(9)
O8 O -0.2988(2) 0.65586(18) 0.06365(9)
O9 O 0.4460(2) 0.77301(17) 0.25175(8)
H3 H 0.5201 0.7459 0.2887
H4 H 0.519 0.8101 0.2183
O10 O 0.3101(2) 0.5950(2) 0.07794(9)
H5 H 0.4347 0.6028 0.0811
H6 H 0.2724 0.5135 0.0382
O11 O 0.3691(3) 0.39693(19) 0.20722(11)
H7 H 0.429 0.4152 0.2543
H8 H 0.3207 0.2942 0.1968
O12 O 0.0456(3) 1.1285(2) 0.34625(11)
H9 H -0.0281 1.0929 0.3799
H10 H -0.0278 1.1538 0.3086
O13 O 0.4683(3) 1.1212(2) 0.38193(13)
H11 H 0.4971 1.2194 0.3721
H12 H 0.5726 1.0857 0.4002
O14 O -0.0407(2) 0.4428(2) 0.12882(10)
H13 H -0.1 0.3807 0.1571
H14 H -0.1224 0.5086 0.1144
Zn1A Zn -0.19779(3) 0.41081(3) 0.811416(13)
Zn1A_2 Zn -0.19779(3) 1.41081(3) -0.188584(13)
Zn2A Zn -0.26320(3) 0.03075(3) 0.690223(13)
Zn2A_2 Zn -0.26320(3) 1.03075(3) -0.309777(13)
C1A C -0.0467(3) 0.4120(2) 0.56132(11)
C2A C 0.1459(3) 0.4781(2) 0.55795(11)
C3A C -0.1898(3) 0.4336(2) 0.50353(11)
H1A H -0.3173 0.3884 0.5059
C4A C -0.1070(3) 0.3293(2) 0.63075(11)
C5A C 0.3060(3) 0.4507(2) 0.61789(11)
O1A O -0.1889(2) 0.17904(17) 0.61118(8)
O2A O -0.0801(2) 0.41562(19) 0.70098(8)
O3A O 0.4229(3) 0.5752(2) 0.64942(12)
O4A O 0.3135(2) 0.30564(19) 0.63326(10)
C6A C -0.0639(3) 1.0237(2) -0.07689(11)
C7A C 0.1212(3) 1.0934(2) -0.04319(11)
C8A C -0.1827(3) 0.9309(2) -0.03354(12)
H2A H -0.3053 0.8844 -0.0565
C9A C -0.1354(3) 1.0480(2) -0.15918(11)
C10A C 0.2624(3) 1.1861(2) -0.08949(12)
O5A O -0.2597(2) 0.93782(18) -0.20148(8)
O5A_2 O -0.2597(2) -0.06218(18) 0.79852(8)
O6A O -0.0691(2) 1.17390(18) -0.18669(9)
O6A_2 O -0.0691(2) 0.17390(18) 0.81331(9)
O7A O 0.3423(2) 1.09788(19) -0.14747(9)
O8A O 0.2988(2) 1.34414(18) -0.06365(9)
O9A O -0.4460(2) 0.22699(17) 0.74825(8)
H3A H -0.5201 0.2541 0.7113
H4A H -0.519 0.1899 0.7817
O10A O -0.3101(2) 0.4050(2) 0.92206(9)
H5A H -0.4347 0.3972 0.9189
H6A H -0.2724 0.4865 0.9618
O11A O -0.3691(3) 0.60307(19) 0.79278(11)
H7A H -0.429 0.5848 0.7457
H8A H -0.3207 0.7058 0.8032
O12A O -0.0456(3) -0.1285(2) 0.65375(11)
H9A H 0.0281 -0.0929 0.6201
H10A H 0.0278 -0.1538 0.6914
O13A O -0.4683(3) -0.1212(2) 0.61807(13)
H11A H -0.4971 -0.2194 0.6279
H12A H -0.5726 -0.0857 0.5998
O14A O 0.0407(2) 0.5572(2) 0.87118(10)
H13A H 0.1 0.6193 0.8429
H14A H 0.1224 0.4914 0.8856
O15 O 0.7863(3) 1.0157(2) 0.44733(9)
H15 H 0.793 1.0501 0.4991
H16 H 0.7683 0.9075 0.4373
O16 O -0.1929(3) 1.2210(2) 0.22149(12)
H17 H -0.268 1.2784 0.254
H18 H -0.2568 1.1285 0.1981
loop_
_geom_bond_atom_site_label_1
_geom_bond_atom_site_label_2
_geom_bond_site_symmetry_1
_geom_bond_site_symmetry_2
Zn1 O2 1_555 1_555
Zn2 O1 1_555 1_555
C1 C2 1_555 1_555
C2 C5 1_555 1_555
C3 C1 1_555 1_555
H1 C3 1_555 1_555
C4 C1 1_555 1_555
C5 O3 1_555 1_555
O1 C4 1_555 1_555
O2 C4 1_555 1_555
O4 C5 1_555 1_555
C6 C7 1_555 1_555
C7 C10 1_555 1_555
C8 C6 1_555 1_555
H2 C8 1_555 1_555
C9 C6 1_555 1_555
C10 O7 1_555 1_555
O5 Zn2 1_555 1_555
O6 Zn1 1_555 1_555
O8 C10 1_555 1_555
O9 Zn1 1_555 1_555
H3 O9 1_555 1_555
H4 O9 1_555 1_555
O10 Zn1 1_555 1_555
H5 O10 1_555 1_555
H6 O10 1_555 1_555
O11 Zn1 1_555 1_555
H7 O11 1_555 1_555
H8 O11 1_555 1_555
O12 Zn2 1_555 1_555
H9 O12 1_555 1_555
H10 O12 1_555 1_555
O13 Zn2 1_555 1_555
H11 O13 1_555 1_555
H12 O13 1_555 1_555
O14 Zn1 1_555 1_555
H13 O14 1_555 1_555
H14 O14 1_555 1_555
O15 H15 1_555 1_555
H16 O15 1_555 1_555
O16 H17 1_555 1_555
H18 O16 1_555 1_555
Zn1A O2A 1_555 1_555
Zn1A_2 O6A 1_555 1_555
Zn2A O1A 1_555 1_555
Zn2A_2 O5A 1_555 1_555
C1A C2A 1_555 1_555
C2A C3 1_555 1_555
C3A C2 1_555 1_555
H1A C3A 1_555 1_555
C4A C1A 1_555 1_555
C5A C2A 1_555 1_555
O1A C4A 1_555 1_555
O2A C4A 1_555 1_555
O3A C5A 1_555 1_555
O4A C5A 1_555 1_555
C6A C7A 1_555 1_555
C7A C8 1_555 1_555
C8A C7 1_555 1_555
H2A C8A 1_555 1_555
C9A C6A 1_555 1_555
C10A C7A 1_555 1_555
O5A C9A 1_555 1_555
O5A_2 Zn2A 1_555 1_555
O6A Zn2A_2 1_555 1_555
O6A_2 Zn1A 1_555 1_555
O7A C10A 1_555 1_555
O8A C10A 1_555 1_555
O9A Zn1A 1_555 1_555
H3A O9A 1_555 1_555
H4A O9A 1_555 1_555
O10A Zn1A 1_555 1_555
H5A O10A 1_555 1_555
H6A O10A 1_555 1_555
O11A Zn1A 1_555 1_555
H7A O11A 1_555 1_555
H8A O11A 1_555 1_555
O12A Zn2A 1_555 1_555
H9A O12A 1_555 1_555
H10A O12A 1_555 1_555
O13A Zn2A 1_555 1_555
H11A O13A 1_555 1_555
H12A O13A 1_555 1_555
O14A Zn1A 1_555 1_555
H13A O14A 1_555 1_555
H14A O14A 1_555 1_555
Zn2 O6 1_555 1_555
Zn2 O9 1_555 1_555
C9 O5 1_555 1_555
C9 O6 1_555 1_555
Zn2A O6A_2 1_555 1_555
Zn2A O9A 1_555 1_555
C1A C3A 1_555 1_555
C6A C8A 1_555 1_555
C9A O6A 1_555 1_555

#END
