
#######################################################################
#
#                 Cambridge Crystallographic Data Centre
#                                CCDC 
#
#######################################################################
#
# If this CIF has been generated from an entry in the Cambridge 
# Structural Database, then it will include bibliographic, chemical, 
# crystal, experimental, refinement or atomic coordinate data resulting 
# from the CCDC's data processing and validation procedures.
#
#######################################################################

data_FOXHEF10
_symmetry_cell_setting           triclinic
_symmetry_space_group_name_H-M   'P -1'
_symmetry_Int_Tables_number      2
_space_group_name_Hall           '-P 1'
loop_
_symmetry_equiv_pos_site_id
_symmetry_equiv_pos_as_xyz
1 x,y,z
2 -x,-y,-z
_cell_length_a                   10.160(3)
_cell_length_b                   10.999(2)
_cell_length_c                   9.698(2)
_cell_angle_alpha                92.68(2)
_cell_angle_beta                 105.67(2)
_cell_angle_gamma                117.57(2)
_cell_volume                     906.055
loop_
_atom_site_label
_atom_site_type_symbol
_atom_site_fract_x
_atom_site_fract_y
_atom_site_fract_z
Fe1 Fe 0.0000 0.0000 0.0000
Fe2 Fe 0.3313(1) 0.0022(1) -0.0220(1)
O1 O -0.0477(4) -0.1967(4) -0.0605(5)
O2 O 0.1617(4) -0.1936(4) -0.1006(5)
O3 O 0.0919(5) 0.0697(4) -0.1766(5)
O4 O 0.3521(5) 0.1717(4) -0.1040(5)
O5 O 0.2469(4) 0.0515(4) 0.1360(4)
O6 O 0.5236(4) 0.0309(4) 0.1412(4)
C1 C 0.0198(6) -0.2569(5) -0.0995(6)
C2 C 0.2224(6) 0.1649(5) -0.1732(6)
C3 C 0.4722(6) 0.1128(6) 0.3398(6)
C4 C -0.0709(6) -0.4112(5) -0.1499(6)
C5 C -0.0024(7) -0.4856(6) -0.1858(7)
C6 C -0.0852(8) -0.6282(6) -0.2255(8)
C7 C -0.2385(8) -0.7026(7) -0.2315(8)
C8 C -0.3084(8) -0.6299(7) -0.1961(9)
C9 C -0.2253(7) -0.4858(6) -0.1547(8)
C10 C 0.2338(6) 0.2778(6) -0.2562(6)
C11 C 0.3569(8) 0.4115(7) -0.2041(8)
C12 C 0.3660(9) 0.5178(8) -0.2780(9)
C13 C 0.2529(9) 0.4854(8) -0.4130(9)
C14 C 0.1322(8) 0.3528(8) -0.4672(8)
C15 C 0.1193(7) 0.2480(7) -0.3886(7)
C16 C 0.3278(6) 0.1057(5) 0.2699(6)
C17 C 0.5607(6) 0.0769(6) 0.2771(6)
C18 C 0.2619(7) 0.1633(7) 0.3592(7)
C19 C 0.7111(7) 0.0892(8) 0.3757(8)
H1 H 0.1040 -0.4368 -0.1827
H2 H -0.0351 -0.6767 -0.2494
H3 H -0.2953 -0.8018 -0.2594
H4 H -0.4151 -0.6794 -0.2001
H5 H -0.2750 -0.4375 -0.1291
H6 H 0.4377 0.4317 -0.1148
H7 H 0.4491 0.6113 -0.2380
H8 H 0.2598 0.5564 -0.4674
H9 H 0.0555 0.3313 -0.5599
H10 H 0.0320 0.1559 -0.4256
H11 H 0.5147 0.1462 0.4426
H12 H 0.1645 0.1519 0.2989
H13 H 0.2457 0.1145 0.4367
H14 H 0.3337 0.2600 0.3986
H15 H 0.7589 0.0615 0.3186
H16 H 0.7807 0.1836 0.4260
H17 H 0.6883 0.0304 0.4444
O1A O 0.0477(4) 0.1967(4) 0.0605(5)
C1A C -0.0198(6) 0.2569(5) 0.0995(6)
O2A O -0.1617(4) 0.1936(4) 0.1006(5)
Fe2A Fe -0.3313(1) -0.0022(1) 0.0220(1)
O4A O -0.3521(5) -0.1717(4) 0.1040(5)
C2A C -0.2224(6) -0.1649(5) 0.1732(6)
O3A O -0.0919(5) -0.0697(4) 0.1766(5)
Fe2A_2 Fe 0.6687(1) -0.0022(1) 0.0220(1)
O2A_2 O 0.8383(4) 0.1936(4) 0.1006(5)
O4A_2 O 0.6479(5) -0.1717(4) 0.1040(5)
O5A O 0.7531(4) -0.0515(4) -0.1360(4)
Fe1A Fe 1.0000 0.0000 0.0000
C16A C 0.6722(6) -0.1057(5) -0.2699(6)
C3A C 0.5278(6) -0.1128(6) -0.3398(6)
C17A C 0.4393(6) -0.0769(6) -0.2771(6)
O6A O 0.4764(4) -0.0309(4) -0.1412(4)
C19A C 0.2889(7) -0.0892(8) -0.3757(8)
H15A H 0.2411 -0.0615 -0.3186
H16A H 0.2193 -0.1836 -0.4260
H17A H 0.3117 -0.0304 -0.4444
H11A H 0.4853 -0.1462 -0.4426
C18A C 0.7381(7) -0.1633(7) -0.3592(7)
H12A H 0.8355 -0.1519 -0.2989
H13A H 0.7543 -0.1145 -0.4367
H14A H 0.6663 -0.2600 -0.3986
O5A_2 O -0.2469(4) -0.0515(4) -0.1360(4)
C10A C -0.2338(6) -0.2778(6) 0.2562(6)
C11A C -0.3569(8) -0.4115(7) 0.2041(8)
C12A C -0.3660(9) -0.5178(8) 0.2780(9)
C13A C -0.2529(9) -0.4854(8) 0.4130(9)
C14A C -0.1322(8) -0.3528(8) 0.4672(8)
C15A C -0.1193(7) -0.2480(7) 0.3886(7)
H10A H -0.0320 -0.1559 0.4256
H9A H -0.0555 -0.3313 0.5599
H8A H -0.2598 -0.5564 0.4674
H7A H -0.4491 -0.6113 0.2380
H6A H -0.4377 -0.4317 0.1148
C4A C 0.0709(6) 0.4112(5) 0.1499(6)
C5A C 0.0024(7) 0.4856(6) 0.1858(7)
C6A C 0.0852(8) 0.6282(6) 0.2255(8)
C7A C 0.2385(8) 0.7026(7) 0.2315(8)
C8A C 0.3084(8) 0.6299(7) 0.1961(9)
C9A C 0.2253(7) 0.4858(6) 0.1547(8)
H5A H 0.2750 0.4375 0.1291
H4A H 0.4151 0.6794 0.2001
H3A H 0.2953 0.8018 0.2594
H2A H 0.0351 0.6767 0.2494
H1A H -0.1040 0.4368 0.1827
loop_
_geom_bond_atom_site_label_1
_geom_bond_atom_site_label_2
_geom_bond_site_symmetry_1
_geom_bond_site_symmetry_2
Fe1 O1 1_555 1_555
Fe2 O2 1_555 1_555
O1 C1 1_555 1_555
O2 C1 1_555 1_555
O3 Fe1 1_555 1_555
O4 Fe2 1_555 1_555
O5 Fe1 1_555 1_555
O6 Fe2 1_555 1_555
C1 C4 1_555 1_555
C2 O3 1_555 1_555
C3 C16 1_555 1_555
C4 C5 1_555 1_555
C5 C6 1_555 1_555
C6 C7 1_555 1_555
C7 C8 1_555 1_555
C8 C9 1_555 1_555
C9 C4 1_555 1_555
C10 C2 1_555 1_555
C11 C10 1_555 1_555
C12 C11 1_555 1_555
C13 C12 1_555 1_555
C14 C13 1_555 1_555
C15 C10 1_555 1_555
C16 O5 1_555 1_555
C17 O6 1_555 1_555
C18 C16 1_555 1_555
C19 C17 1_555 1_555
H1 C5 1_555 1_555
H2 C6 1_555 1_555
H3 C7 1_555 1_555
H4 C8 1_555 1_555
H5 C9 1_555 1_555
H6 C11 1_555 1_555
H7 C12 1_555 1_555
H8 C13 1_555 1_555
H9 C14 1_555 1_555
H10 C15 1_555 1_555
H11 C3 1_555 1_555
H12 C18 1_555 1_555
H13 C18 1_555 1_555
H14 C18 1_555 1_555
H15 C19 1_555 1_555
H16 C19 1_555 1_555
H17 C19 1_555 1_555
O1A Fe1 1_555 1_555
C1A O1A 1_555 1_555
O2A C1A 1_555 1_555
Fe2A O2A 1_555 1_555
O4A Fe2A 1_555 1_555
C2A O4A 1_555 1_555
O3A Fe1 1_555 1_555
Fe2A_2 O6 1_555 1_555
O2A_2 Fe2A_2 1_555 1_555
O4A_2 Fe2A_2 1_555 1_555
O5A Fe2A_2 1_555 1_555
Fe1A O5A 1_555 1_555
C16A O5A 1_555 1_555
C3A C16A 1_555 1_555
C17A C3A 1_555 1_555
O6A Fe2 1_555 1_555
C19A C17A 1_555 1_555
H15A C19A 1_555 1_555
H16A C19A 1_555 1_555
H17A C19A 1_555 1_555
H11A C3A 1_555 1_555
C18A C16A 1_555 1_555
H12A C18A 1_555 1_555
H13A C18A 1_555 1_555
H14A C18A 1_555 1_555
O5A_2 Fe1 1_555 1_555
C10A C2A 1_555 1_555
C11A C10A 1_555 1_555
C12A C11A 1_555 1_555
C13A C12A 1_555 1_555
C14A C13A 1_555 1_555
C15A C10A 1_555 1_555
H10A C15A 1_555 1_555
H9A C14A 1_555 1_555
H8A C13A 1_555 1_555
H7A C12A 1_555 1_555
H6A C11A 1_555 1_555
C4A C1A 1_555 1_555
C5A C4A 1_555 1_555
C6A C5A 1_555 1_555
C7A C6A 1_555 1_555
C8A C7A 1_555 1_555
C9A C4A 1_555 1_555
H5A C9A 1_555 1_555
H4A C8A 1_555 1_555
H3A C7A 1_555 1_555
H2A C6A 1_555 1_555
H1A C5A 1_555 1_555
Fe2 O5 1_555 1_555
O4 C2 1_555 1_555
C3 C17 1_555 1_555
C14 C15 1_555 1_555
Fe2A O5A_2 1_555 1_555
C2A O3A 1_555 1_555
Fe2A_2 O6A 1_555 1_555
C17A O6A 1_555 1_555
C14A C15A 1_555 1_555
C8A C9A 1_555 1_555

#END
