
#######################################################################
#
#                 Cambridge Crystallographic Data Centre
#                                CCDC 
#
#######################################################################
#
# If this CIF has been generated from an entry in the Cambridge 
# Structural Database, then it will include bibliographic, chemical, 
# crystal, experimental, refinement or atomic coordinate data resulting 
# from the CCDC's data processing and validation procedures.
#
#######################################################################

data_FOXHIJ11
_symmetry_cell_setting           orthorhombic
_symmetry_space_group_name_H-M   'P c a b'
_symmetry_Int_Tables_number      61
_space_group_name_Hall           '-P 2bc 2ac'
loop_
_symmetry_equiv_pos_site_id
_symmetry_equiv_pos_as_xyz
1 x,y,z
2 -x,1/2-y,1/2+z
3 1/2+x,-y,1/2-z
4 1/2-x,1/2+y,-z
5 -x,-y,-z
6 x,1/2+y,1/2-z
7 1/2-x,y,1/2+z
8 1/2+x,1/2-y,z
_cell_length_a                   10.50310(10)
_cell_length_b                   18.9228(3)
_cell_length_c                   25.0747(5)
_cell_angle_alpha                90
_cell_angle_beta                 90
_cell_angle_gamma                90
_cell_volume                     4983.55
loop_
_atom_site_label
_atom_site_type_symbol
_atom_site_fract_x
_atom_site_fract_y
_atom_site_fract_z
O1 O 0.70313(16) 0.14228(10) 0.39868(8)
O2 O 0.52362(16) 0.24710(10) 0.43598(7)
Co1 Co 0.39976(3) 0.155969(19) 0.369359(15)
Co2 Co 0.66214(3) 0.241270(18) 0.373770(14)
O3 O 0.10812(15) 0.15806(10) 0.35925(9)
O4 O 0.27662(15) 0.09396(11) 0.33578(8)
O5 O 0.51567(17) 0.08634(10) 0.39633(8)
C1 C 0.4107(2) 0.25090(14) 0.45051(11)
O6 O 0.49707(16) 0.21535(10) 0.31951(7)
O7 O 0.32014(15) 0.22055(10) 0.42377(7)
O8 O 0.30671(16) 0.26581(11) 0.31221(8)
C2 C 0.4188(2) 0.25928(14) 0.29675(11)
C3 C 0.1574(2) 0.10366(14) 0.34024(11)
C4 C 0.4665(2) 0.29916(15) 0.25007(10)
C5 C 0.6308(2) 0.09167(14) 0.41096(11)
C6 C 0.6778(2) 0.03310(14) 0.44533(11)
C7 C 0.0731(2) 0.04474(14) 0.32225(11)
C8 C 0.3785(2) 0.28687(16) 0.50137(11)
C9 C 0.6012(2) -0.02555(15) 0.45372(12)
H1 H 0.5225 -0.0287 0.4369
C10 C -0.0525(2) 0.04192(16) 0.33892(12)
H2 H -0.0847 0.0765 0.3616
C11 C 0.4726(3) 0.32129(17) 0.53035(13)
H3 H 0.5555 0.3223 0.5173
C12 C 0.3999(3) 0.35647(18) 0.23033(13)
H4 H 0.3225 0.3693 0.2456
C13 C 0.0399(3) -0.05969(17) 0.27033(14)
H5 H 0.0701 -0.0933 0.2464
C14 C 0.5809(3) 0.2787(2) 0.22619(13)
H6 H 0.6256 0.2398 0.2390
C15 C -0.1296(3) -0.0125(2) 0.32164(14)
H7 H -0.2137 -0.0147 0.3332
C16 C 0.1193(3) -0.00685(16) 0.28805(13)
H8 H 0.2038 -0.0057 0.2771
C17 C 0.2277(3) 0.3187(3) 0.56936(15)
H9 H 0.1450 0.3179 0.5825
C18 C 0.6412(3) -0.07936(16) 0.48698(13)
H10 H 0.5906 -0.1193 0.4915
C19 C -0.0842(3) -0.06310(19) 0.28785(15)
H11 H -0.1369 -0.0997 0.2767
C20 C 0.7560(3) -0.07409(18) 0.51352(14)
H12 H 0.7821 -0.1099 0.5364
C21 C 0.7938(3) 0.03748(17) 0.47146(14)
H13 H 0.8466 0.0762 0.4658
C22 C 0.5617(4) 0.3743(3) 0.16528(15)
H14 H 0.5945 0.4002 0.1369
C23 C 0.4450(3) 0.3539(2) 0.57805(15)
H15 H 0.5086 0.3771 0.5970
C24 C 0.3217(4) 0.3518(3) 0.59773(15)
H16 H 0.3028 0.3730 0.6303
C25 C 0.2553(3) 0.28653(19) 0.52125(13)
H17 H 0.1908 0.2645 0.5021
C26 C 0.8312(3) -0.0157(2) 0.50587(16)
H18 H 0.9081 -0.0118 0.5240
C27 C 0.6267(4) 0.3169(3) 0.18349(15)
H19 H 0.7023 0.3035 0.1671
C28 C 0.4482(4) 0.3947(2) 0.18802(15)
H20 H 0.4044 0.4338 0.1750
Co2G Co 0.16214(3) 0.258730(18) 0.373770(14)
O3G O 0.60812(15) 0.34194(10) 0.35925(9)
O7G O 0.82014(15) 0.27945(10) 0.42377(7)
O8G O 0.80671(16) 0.23419(11) 0.31221(8)
loop_
_geom_bond_atom_site_label_1
_geom_bond_atom_site_label_2
_geom_bond_site_symmetry_1
_geom_bond_site_symmetry_2
O1 Co2 1_555 1_555
O2 Co2 1_555 1_555
Co1 O4 1_555 1_555
Co2 O6 1_555 1_555
O3 C3 1_555 1_555
O4 C3 1_555 1_555
O5 Co1 1_555 1_555
C1 O2 1_555 1_555
O6 Co1 1_555 1_555
O7 Co1 1_555 1_555
O8 C2 1_555 1_555
C2 O6 1_555 1_555
C3 C7 1_555 1_555
C4 C2 1_555 1_555
C5 O1 1_555 1_555
C6 C5 1_555 1_555
C7 C10 1_555 1_555
C8 C1 1_555 1_555
C9 C6 1_555 1_555
H1 C9 1_555 1_555
C10 H2 1_555 1_555
C11 C8 1_555 1_555
H3 C11 1_555 1_555
C12 C4 1_555 1_555
H4 C12 1_555 1_555
C13 H5 1_555 1_555
C14 C4 1_555 1_555
H6 C14 1_555 1_555
C15 C10 1_555 1_555
H7 C15 1_555 1_555
C16 C7 1_555 1_555
H8 C16 1_555 1_555
C17 H9 1_555 1_555
C18 C9 1_555 1_555
H10 C18 1_555 1_555
C19 C13 1_555 1_555
H11 C19 1_555 1_555
C20 C18 1_555 1_555
H12 C20 1_555 1_555
C21 C6 1_555 1_555
H13 C21 1_555 1_555
C22 H14 1_555 1_555
C23 C11 1_555 1_555
H15 C23 1_555 1_555
C24 C17 1_555 1_555
H16 C24 1_555 1_555
C25 C8 1_555 1_555
H17 C25 1_555 1_555
C26 C20 1_555 1_555
H18 C26 1_555 1_555
C27 C14 1_555 1_555
H19 C27 1_555 1_555
C28 C12 1_555 1_555
H20 C28 1_555 1_555
Co2G O3 1_555 1_555
O3G Co2 1_555 1_555
O7G Co2 1_555 1_555
O8G Co2 1_555 1_555
O5 C5 1_555 1_555
C1 O7 1_555 1_555
O7 Co2G 1_555 1_555
O8 Co2G 1_555 1_555
C13 C16 1_555 1_555
C15 C19 1_555 1_555
C17 C25 1_555 1_555
C21 C26 1_555 1_555
C22 C27 1_555 1_555
C22 C28 1_555 1_555
C23 C24 1_555 1_555

#END
