
#######################################################################
#
#                 Cambridge Crystallographic Data Centre
#                                CCDC 
#
#######################################################################
#
# If this CIF has been generated from an entry in the Cambridge 
# Structural Database, then it will include bibliographic, chemical, 
# crystal, experimental, refinement or atomic coordinate data resulting 
# from the CCDC's data processing and validation procedures.
#
#######################################################################

data_FOXKEK
_symmetry_cell_setting           monoclinic
_symmetry_space_group_name_H-M   'P 21/c'
_symmetry_Int_Tables_number      14
_space_group_name_Hall           '-P 2ybc'
loop_
_symmetry_equiv_pos_site_id
_symmetry_equiv_pos_as_xyz
1 x,y,z
2 -x,1/2+y,1/2-z
3 -x,-y,-z
4 x,1/2-y,1/2+z
_cell_length_a                   11.5486(2)
_cell_length_b                   11.3339(2)
_cell_length_c                   23.0576(4)
_cell_angle_alpha                90
_cell_angle_beta                 90.649(2)
_cell_angle_gamma                90
_cell_volume                     3017.83
loop_
_atom_site_label
_atom_site_type_symbol
_atom_site_fract_x
_atom_site_fract_y
_atom_site_fract_z
Mg1 Mg 0.07406(10) 0.50304(10) 0.05511(5)
Mg2 Mg -0.04865(9) 0.23606(10) 0.03529(5)
Mg3 Mg 0.11293(9) -0.00613(10) 0.03754(5)
O1 O 0.0591(3) 0.4351(3) 0.13638(11)
O2 O -0.0385(3) 0.2668(2) 0.12479(11)
O3 O 0.0179(2) 0.1462(2) 0.41390(11)
O4 O -0.0593(2) 0.3157(2) 0.44175(10)
O5 O 0.1908(2) 0.3714(2) 0.03642(13)
O6 O 0.1330(2) 0.1867(2) 0.02518(11)
O7 O 0.7698(2) 0.2331(2) 0.03294(13)
O8 O 0.7281(2) 0.0659(2) -0.01327(12)
O9 O -0.06689(19) 0.4144(2) 0.02428(10)
H1 H -0.1342 0.4399 0.0465
O10 O -0.05038(19) 0.0555(2) 0.04411(9)
H2 H -0.0965 0.0446 0.0715
O11 O 0.2323(3) 0.5988(3) 0.07284(14)
H3 H 0.290(3) 0.558(3) 0.068(2)
H4 H 0.232(4) 0.661(3) 0.055(2)
N1 N 0.4190(5) 0.0964(6) 0.4062(2)
N2 N 0.1799(3) 0.0197(3) 0.12576(14)
C1 C 0.0086(3) 0.3462(3) 0.15542(15)
C2 C 0.0032(3) 0.3317(3) 0.22094(15)
C3 C -0.0873(3) 0.2679(4) 0.24278(16)
H5 H -0.1433 0.2383 0.2174
C4 C -0.0977(3) 0.2459(3) 0.30239(16)
H6 H -0.1618 0.2050 0.3159
C5 C -0.0145(3) 0.2840(3) 0.34079(14)
C6 C 0.0812(3) 0.3498(3) 0.32038(14)
C7 C 0.0892(3) 0.3787(3) 0.26011(14)
C8 C 0.1836(3) 0.4504(4) 0.24288(16)
H7 H 0.1905 0.4713 0.2041
C9 C 0.2648(3) 0.4894(4) 0.28224(18)
H8 H 0.3243 0.5384 0.2700
C10 C 0.2594(3) 0.4559(4) 0.34129(17)
H9 H 0.3162 0.4806 0.3675
C11 C 0.1700(3) 0.3870(3) 0.35940(15)
H10 H 0.1671 0.3639 0.3981
C12 C -0.0194(3) 0.2473(3) 0.40347(14)
C13 C 0.2109(3) 0.2640(3) 0.03183(15)
C14 C 0.3366(3) 0.2265(3) 0.03308(17)
C15 C 0.3796(3) 0.1720(4) -0.01423(18)
H11 H 0.3301 0.1515 -0.0447
C16 C 0.4978(3) 0.1459(4) -0.01796(18)
H12 H 0.5254 0.1078 -0.0507
C17 C 0.5734(3) 0.1755(3) 0.02570(16)
C18 C 0.5303(3) 0.2259(3) 0.07758(17)
C19 C 0.4101(3) 0.2517(3) 0.08154(16)
C20 C 0.3672(3) 0.2976(4) 0.13430(19)
H13 H 0.2889 0.3159 0.1371
C21 C 0.4385(4) 0.3154(5) 0.1811(2)
H14 H 0.4084 0.3448 0.2154
C22 C 0.5567(4) 0.2894(5) 0.1775(2)
H15 H 0.6045 0.3011 0.2097
C23 C 0.6024(3) 0.2472(4) 0.12728(18)
H16 H 0.6814 0.2321 0.1254
C24 C 0.7005(3) 0.1557(3) 0.01499(15)
C25 C 0.4831(5) 0.1143(7) 0.3591(3)
H17 H 0.5610 0.1331 0.3639
C26 C 0.4378(5) 0.1059(6) 0.3033(2)
H18 H 0.4839 0.1216 0.2714
C27 C 0.3229(4) 0.0739(5) 0.29573(19)
C28 C 0.2563(5) 0.0614(5) 0.3455(2)
H19 H 0.1777 0.0444 0.3423
C29 C 0.3065(5) 0.0739(6) 0.3984(2)
H20 H 0.2603 0.0665 0.4310
C30 C 0.2738(4) 0.0530(4) 0.23704(18)
C31 C 0.3392(4) 0.0085(6) 0.1932(2)
H21 H 0.4160 -0.0120 0.2002
C32 C 0.2917(4) -0.0062(5) 0.1385(2)
H22 H 0.3385 -0.0351 0.1091
C33 C 0.1172(4) 0.0604(4) 0.16857(19)
H23 H 0.0401 0.0788 0.1608
C34 C 0.1589(4) 0.0776(4) 0.22483(19)
H24 H 0.1103 0.1052 0.2537
Mg1A Mg -0.07406(10) 0.00304(10) 0.44489(5)
Mg1B Mg -0.07406(10) 0.49696(10) -0.05511(5)
Mg2_2 Mg 0.95135(9) 0.23606(10) 0.03529(5)
Mg2C Mg -0.04865(9) 0.26394(10) 0.53529(5)
Mg3A Mg -0.11293(9) 0.49387(10) 0.46246(5)
Mg3B Mg -0.11293(9) 0.00613(10) -0.03754(5)
Mg3B_2 Mg 0.88707(9) 0.00613(10) -0.03754(5)
O3A O -0.0179(2) 0.6462(2) 0.08610(11)
O4A O 0.0593(2) -0.1843(2) 0.05825(10)
O4C O -0.0593(2) 0.1843(2) -0.05825(10)
O7_2 O -0.2302(2) 0.2331(2) 0.03294(13)
O8B O 0.2719(2) -0.0659(2) 0.01327(12)
O9B O 0.06689(19) 0.5856(2) -0.02428(10)
O10B O 0.05038(19) -0.0555(2) -0.04411(9)
O12 O 0.4194(7) 0.5308(9) 0.0151(4)
H25 H 0.4752 0.5755 0.0215
H26 H 0.4353 0.4769 -0.0080
loop_
_geom_bond_atom_site_label_1
_geom_bond_atom_site_label_2
_geom_bond_site_symmetry_1
_geom_bond_site_symmetry_2
Mg1 O1 1_555 1_555
Mg2 O2 1_555 1_555
Mg3 O6 1_555 1_555
O1 C1 1_555 1_555
O2 C1 1_555 1_555
O3 C12 1_555 1_555
O4 C12 1_555 1_555
O5 Mg1 1_555 1_555
O6 Mg2 1_555 1_555
O7 C24 1_555 1_555
O8 C24 1_555 1_555
O9 Mg1 1_555 1_555
H1 O9 1_555 1_555
O10 Mg2 1_555 1_555
H2 O10 1_555 1_555
O11 Mg1 1_555 1_555
H3 O11 1_555 1_555
H4 O11 1_555 1_555
N1 C25 1_555 1_555
N2 Mg3 1_555 1_555
C1 C2 1_555 1_555
C2 C3 1_555 1_555
C3 H5 1_555 1_555
C4 C3 1_555 1_555
H6 C4 1_555 1_555
C5 C4 1_555 1_555
C6 C5 1_555 1_555
C7 C2 1_555 1_555
C8 C7 1_555 1_555
H7 C8 1_555 1_555
C9 C8 1_555 1_555
H8 C9 1_555 1_555
C10 C9 1_555 1_555
H9 C10 1_555 1_555
C11 C6 1_555 1_555
H10 C11 1_555 1_555
C12 C5 1_555 1_555
C13 O5 1_555 1_555
C14 C13 1_555 1_555
C15 C14 1_555 1_555
H11 C15 1_555 1_555
C16 C15 1_555 1_555
H12 C16 1_555 1_555
C17 C16 1_555 1_555
C18 C17 1_555 1_555
C19 C14 1_555 1_555
C20 C19 1_555 1_555
H13 C20 1_555 1_555
C21 C20 1_555 1_555
H14 C21 1_555 1_555
C22 C21 1_555 1_555
H15 C22 1_555 1_555
C23 C18 1_555 1_555
H16 C23 1_555 1_555
C24 C17 1_555 1_555
C25 H17 1_555 1_555
C26 C25 1_555 1_555
H18 C26 1_555 1_555
C27 C26 1_555 1_555
C28 C27 1_555 1_555
H19 C28 1_555 1_555
C29 N1 1_555 1_555
H20 C29 1_555 1_555
C30 C27 1_555 1_555
C31 C30 1_555 1_555
H21 C31 1_555 1_555
C32 N2 1_555 1_555
H22 C32 1_555 1_555
C33 N2 1_555 1_555
H23 C33 1_555 1_555
C34 C30 1_555 1_555
H24 C34 1_555 1_555
O12 H25 1_555 1_555
H26 O12 1_555 1_555
Mg1A O3 1_555 1_555
Mg1B O9 1_555 1_555
Mg2_2 O7 1_555 1_555
Mg2C O4 1_555 1_555
Mg3A O4 1_555 1_555
Mg3B O10 1_555 1_555
Mg3B_2 O8 1_555 1_555
O3A Mg1 1_555 1_555
O4A Mg3 1_555 1_555
O4C Mg2 1_555 1_555
O7_2 Mg2 1_555 1_555
O8B Mg3 1_555 1_555
O9B Mg1 1_555 1_555
O10B Mg3 1_555 1_555
Mg2 O9 1_555 1_555
Mg3 O10 1_555 1_555
O6 C13 1_555 1_555
C6 C7 1_555 1_555
C10 C11 1_555 1_555
C18 C19 1_555 1_555
C22 C23 1_555 1_555
C28 C29 1_555 1_555
C31 C32 1_555 1_555
C33 C34 1_555 1_555
Mg1B O9B 1_555 1_555
Mg3B O4C 1_555 1_555
Mg3B O10B 1_555 1_555

#END
