
#######################################################################
#
#                 Cambridge Crystallographic Data Centre
#                                CCDC 
#
#######################################################################
#
# If this CIF has been generated from an entry in the Cambridge 
# Structural Database, then it will include bibliographic, chemical, 
# crystal, experimental, refinement or atomic coordinate data resulting 
# from the CCDC's data processing and validation procedures.
#
#######################################################################

data_FOXQOZ
_symmetry_cell_setting           triclinic
_symmetry_space_group_name_H-M   'P -1'
_symmetry_Int_Tables_number      2
_space_group_name_Hall           '-P 1'
loop_
_symmetry_equiv_pos_site_id
_symmetry_equiv_pos_as_xyz
1 x,y,z
2 -x,-y,-z
_cell_length_a                   8.905(4)
_cell_length_b                   12.016(5)
_cell_length_c                   12.717(4)
_cell_angle_alpha                89.860(17)
_cell_angle_beta                 79.803(16)
_cell_angle_gamma                69.411(16)
_cell_volume                     1251.07
loop_
_atom_site_label
_atom_site_type_symbol
_atom_site_fract_x
_atom_site_fract_y
_atom_site_fract_z
Cd1 Cd 0.22495(3) 0.26196(2) 0.300871(16)
S1 S -0.17222(9) 0.30288(6) 0.27611(6)
O1 O 0.0379(4) 0.4363(3) 0.4015(3)
H1 H 0.031(6) 0.495(3) 0.437(3)
H2 H -0.047(4) 0.423(5) 0.391(4)
O2 O 0.4210(3) 0.3094(3) 0.3724(2)
H3 H 0.394(5) 0.3803(19) 0.392(3)
H4 H 0.515(3) 0.281(4) 0.341(3)
O5 O 0.0042(3) 0.2354(2) 0.24179(18)
O6 O -0.2040(3) 0.3664(3) 0.38066(19)
O7 O -0.2314(3) 0.3879(2) 0.1982(2)
O8 O -0.2590(3) 0.2188(2) 0.2870(3)
N1 N 0.2889(3) 0.5252(2) 0.07010(19)
N2 N 0.2475(3) 0.3820(2) 0.1646(2)
N3 N -0.0816(3) 0.9291(2) 0.42522(18)
N4 N -0.1923(3) 0.8484(2) 0.5573(2)
N5 N -0.3638(3) 0.9890(2) 0.08330(18)
N6 N -0.5830(3) 1.0982(2) 0.1971(2)
C1 C 0.1883(3) 0.7432(2) 0.0885(2)
C2 C 0.1804(3) 0.7916(2) 0.1896(2)
H8 H 0.2649 0.7553 0.2286
C3 C 0.0495(3) 0.8927(2) 0.2335(2)
C4 C -0.0736(3) 0.9452(2) 0.1758(2)
H9 H -0.1619 1.0157 0.2049
C5 C -0.0689(3) 0.8957(2) 0.0761(2)
C6 C 0.0635(3) 0.7958(2) 0.0318(2)
H10 H 0.0692 0.7631 -0.0374
C7 C 0.3284(4) 0.6314(3) 0.0429(2)
H11 H 0.3539 0.6333 -0.0359
H12 H 0.4264 0.6277 0.0714
C8 C 0.3094(4) 0.4670(3) 0.1592(2)
H13 H 0.3621 0.4848 0.2122
C9 C 0.1836(4) 0.3867(3) 0.0730(3)
H14 H 0.1305 0.3357 0.0540
C10 C 0.2080(4) 0.4750(3) 0.0142(2)
H15 H 0.1756 0.4976 -0.0523
C11 C 0.0414(4) 0.9479(3) 0.3416(2)
H16 H 0.1497 0.9136 0.3623
H17 H 0.0162 1.0346 0.3362
C12 C -0.0568(4) 0.8390(3) 0.4906(2)
H18 H 0.0453 0.7765 0.4888
C13 C -0.3092(4) 0.9502(3) 0.5335(3)
H19 H -0.4201 0.9806 0.5691
C14 C -0.2425(4) 1.0007(3) 0.4517(2)
H20 H -0.2964 1.0713 0.4193
C15 C -0.2037(3) 0.9530(3) 0.0143(2)
H21 H -0.1882 1.0237 -0.0190
H22 H -0.1976 0.8960 -0.0437
C16 C -0.4502(4) 1.0973(3) 0.1315(2)
H23 H -0.4194 1.1651 0.1199
C17 C -0.5788(4) 0.9834(3) 0.1910(3)
H24 H -0.6589 0.9559 0.2300
C18 C -0.4449(4) 0.9149(3) 0.1219(3)
H25 H -0.4132 0.8322 0.1036
Cd1A Cd -0.22495(3) 0.73804(2) 0.699129(16)
Cd1_2 Cd -0.77505(3) 1.26196(2) 0.300871(16)
N4A N 0.1923(3) 0.1516(2) 0.4427(2)
N6_2 N 0.4170(3) 0.0982(2) 0.1971(2)
O3 O 0.6703(4) 0.4425(4) 0.5887(2)
H5 H 0.703(5) 0.436(5) 0.5215(17)
H6 H 0.573(3) 0.447(5) 0.599(4)
O4 O 0.4306(4) 0.3830(3) 0.7303(3)
H7 H 0.492(6) 0.418(4) 0.738(5)
C19 C 0.3458(9) 0.3221(6) 0.6693(5)
H26 H 0.4133 0.2365 0.6549
H27 H 0.3336 0.3579 0.5996
C20 C 0.1692(9) 0.3364(6) 0.7371(5)
H28 H 0.1165 0.2960 0.6971
H29 H 0.1017 0.4212 0.7497
H30 H 0.1815 0.3008 0.8059
loop_
_geom_bond_atom_site_label_1
_geom_bond_atom_site_label_2
_geom_bond_site_symmetry_1
_geom_bond_site_symmetry_2
Cd1 O1 1_555 1_555
S1 O5 1_555 1_555
O1 H1 1_555 1_555
H2 O1 1_555 1_555
O2 Cd1 1_555 1_555
H3 O2 1_555 1_555
H4 O2 1_555 1_555
O3 H5 1_555 1_555
H6 O3 1_555 1_555
O4 H7 1_555 1_555
O5 Cd1 1_555 1_555
O6 S1 1_555 1_555
O7 S1 1_555 1_555
O8 S1 1_555 1_555
N1 C7 1_555 1_555
N2 Cd1 1_555 1_555
N3 C11 1_555 1_555
N4 C12 1_555 1_555
N5 C15 1_555 1_555
N6 C16 1_555 1_555
C1 C2 1_555 1_555
C2 H8 1_555 1_555
C3 C2 1_555 1_555
C4 C3 1_555 1_555
H9 C4 1_555 1_555
C5 C4 1_555 1_555
C6 C1 1_555 1_555
H10 C6 1_555 1_555
C7 C1 1_555 1_555
H11 C7 1_555 1_555
H12 C7 1_555 1_555
C8 N1 1_555 1_555
H13 C8 1_555 1_555
C9 N2 1_555 1_555
H14 C9 1_555 1_555
C10 N1 1_555 1_555
H15 C10 1_555 1_555
C11 C3 1_555 1_555
H16 C11 1_555 1_555
H17 C11 1_555 1_555
C12 N3 1_555 1_555
H18 C12 1_555 1_555
C13 N4 1_555 1_555
H19 C13 1_555 1_555
C14 N3 1_555 1_555
H20 C14 1_555 1_555
C15 C5 1_555 1_555
H21 C15 1_555 1_555
H22 C15 1_555 1_555
C16 N5 1_555 1_555
H23 C16 1_555 1_555
C17 N6 1_555 1_555
H24 C17 1_555 1_555
C18 N5 1_555 1_555
H25 C18 1_555 1_555
C19 O4 1_555 1_555
H26 C19 1_555 1_555
H27 C19 1_555 1_555
C20 C19 1_555 1_555
H28 C20 1_555 1_555
H29 C20 1_555 1_555
H30 C20 1_555 1_555
Cd1A N4 1_555 1_555
Cd1_2 N6 1_555 1_555
N4A Cd1 1_555 1_555
N6_2 Cd1 1_555 1_555
N2 C8 1_555 1_555
C5 C6 1_555 1_555
C9 C10 1_555 1_555
C13 C14 1_555 1_555
C17 C18 1_555 1_555

#END
