
#######################################################################
#
#                 Cambridge Crystallographic Data Centre
#                                CCDC 
#
#######################################################################
#
# If this CIF has been generated from an entry in the Cambridge 
# Structural Database, then it will include bibliographic, chemical, 
# crystal, experimental, refinement or atomic coordinate data resulting 
# from the CCDC's data processing and validation procedures.
#
#######################################################################

data_FOXQUF
_symmetry_cell_setting           triclinic
_symmetry_space_group_name_H-M   'P -1'
_symmetry_Int_Tables_number      2
_space_group_name_Hall           '-P 1'
loop_
_symmetry_equiv_pos_site_id
_symmetry_equiv_pos_as_xyz
1 x,y,z
2 -x,-y,-z
_cell_length_a                   8.714(4)
_cell_length_b                   11.956(5)
_cell_length_c                   12.667(5)
_cell_angle_alpha                89.173(19)
_cell_angle_beta                 79.119(17)
_cell_angle_gamma                70.462(15)
_cell_volume                     1219.66
loop_
_atom_site_label
_atom_site_type_symbol
_atom_site_fract_x
_atom_site_fract_y
_atom_site_fract_z
Co1 Co 0.76136(2) 0.236865(18) 0.702460(16)
S1 S 1.15384(4) 0.19831(3) 0.72133(3)
O1 O 0.91473(17) 0.08731(12) 0.59697(11)
H1 H 1.007(3) 0.076(2) 0.6017(18)
H2 H 0.893(3) 0.029(2) 0.6003(18)
O2 O 0.56731(16) 0.20324(13) 0.64502(11)
H3 H 0.469(3) 0.228(2) 0.6635(18)
H4 H 0.591(3) 0.137(2) 0.6148(18)
O5 O 0.97183(13) 0.25904(10) 0.75250(9)
O6 O 1.23379(16) 0.28850(11) 0.69980(13)
O7 O 1.19048(15) 0.12132(12) 0.62310(10)
O8 O 1.21645(17) 0.12450(12) 0.80692(10)
N1 N 0.91340(16) 0.42140(12) 0.43513(10)
N2 N 0.79481(16) 0.34377(12) 0.57162(10)
N3 N 1.29221(16) 0.02431(11) 0.07340(10)
N4 N 1.25598(17) -0.12297(12) 0.16923(11)
N5 N 0.62831(16) 0.49614(12) 0.08988(10)
N6 N 0.40725(16) 0.61348(12) 0.19989(11)
C1 C 1.04811(19) 0.38676(14) 0.24186(12)
C2 C 1.18047(19) 0.28755(14) 0.19561(12)
H8 H 1.2663 0.2505 0.2340
C3 C 1.18829(18) 0.24206(13) 0.09355(12)
C4 C 1.06106(19) 0.29555(13) 0.03771(12)
H9 H 1.0658 0.2645 -0.0319
C5 C 0.92739(18) 0.39424(13) 0.08383(12)
C6 C 0.92250(19) 0.44026(14) 0.18510(12)
H10 H 0.8326 0.5089 0.2159
C7 C 1.0418(2) 0.43914(15) 0.35080(12)
H11 H 1.1511 0.4027 0.3715
H12 H 1.0213 0.5254 0.3456
C8 C 0.9342(2) 0.33242(14) 0.50317(12)
H13 H 1.0360 0.2695 0.5021
C9 C 0.6791(2) 0.44498(16) 0.54469(13)
H14 H 0.5660 0.4759 0.5799
C10 C 0.7503(2) 0.49394(16) 0.46063(13)
H15 H 0.6983 0.5639 0.4265
C11 C 1.33062(19) 0.13298(14) 0.04497(13)
H16 H 1.3534 0.1369 -0.0343
H17 H 1.4315 0.1306 0.0713
C12 C 1.3178(2) -0.03551(14) 0.16270(13)
H18 H 1.3730 -0.0173 0.2144
C13 C 1.1873(2) -0.11770(15) 0.07935(14)
H19 H 1.1331 -0.1698 0.0618
C14 C 1.2084(2) -0.02719(15) 0.01945(14)
H20 H 1.1725 -0.0042 -0.0464
C15 C 0.79282(19) 0.45395(15) 0.02093(12)
H21 H 0.8163 0.5220 -0.0153
H22 H 0.7943 0.3968 -0.0354
C16 C 0.54931(19) 0.60596(14) 0.13647(13)
H23 H 0.5908 0.6701 0.1251
C17 C 0.3959(2) 0.50171(15) 0.19296(13)
H24 H 0.3060 0.4793 0.2297
C18 C 0.5317(2) 0.42853(15) 0.12620(14)
H25 H 0.5551 0.3469 0.1082
Co1A Co 1.23864(2) -0.236865(18) 0.297540(16)
Co1A_2 Co 0.23864(2) 0.763135(18) 0.297540(16)
N4A N 0.74402(17) 0.12297(12) 0.83077(11)
N6A N 0.59275(16) 0.38652(12) 0.80011(11)
O3 O 0.3239(2) 0.04037(15) 0.41628(12)
H5 H 0.301(3) 0.068(2) 0.477(2)
H6 H 0.396(3) 0.064(2) 0.385(2)
O4 O 0.56658(18) 0.10453(13) 0.27353(12)
H7 H 0.637(3) 0.039(2) 0.253(2)
C19 C 0.6414(4) 0.1692(2) 0.3294(2)
H26 H 0.6543 0.1350 0.4002
H27 H 0.5665 0.2528 0.3427
C20 C 0.8069(4) 0.1671(3) 0.2691(3)
H28 H 0.8515 0.2132 0.3105
H29 H 0.7950 0.2018 0.1992
H30 H 0.8830 0.0847 0.2577
loop_
_geom_bond_atom_site_label_1
_geom_bond_atom_site_label_2
_geom_bond_site_symmetry_1
_geom_bond_site_symmetry_2
Co1 O1 1_555 1_555
S1 O5 1_555 1_555
O1 H1 1_555 1_555
H2 O1 1_555 1_555
O2 Co1 1_555 1_555
H3 O2 1_555 1_555
H4 O2 1_555 1_555
O3 H5 1_555 1_555
H6 O3 1_555 1_555
O4 H7 1_555 1_555
O5 Co1 1_555 1_555
O6 S1 1_555 1_555
O7 S1 1_555 1_555
O8 S1 1_555 1_555
N1 C7 1_555 1_555
N2 Co1 1_555 1_555
N3 C11 1_555 1_555
N4 C12 1_555 1_555
N5 C15 1_555 1_555
N6 C16 1_555 1_555
C1 C2 1_555 1_555
C2 H8 1_555 1_555
C3 C2 1_555 1_555
C4 C3 1_555 1_555
H9 C4 1_555 1_555
C5 C4 1_555 1_555
C6 C1 1_555 1_555
H10 C6 1_555 1_555
C7 C1 1_555 1_555
H11 C7 1_555 1_555
H12 C7 1_555 1_555
C8 N1 1_555 1_555
H13 C8 1_555 1_555
C9 N2 1_555 1_555
H14 C9 1_555 1_555
C10 N1 1_555 1_555
H15 C10 1_555 1_555
C11 C3 1_555 1_555
H16 C11 1_555 1_555
H17 C11 1_555 1_555
C12 N3 1_555 1_555
H18 C12 1_555 1_555
C13 N4 1_555 1_555
H19 C13 1_555 1_555
C14 N3 1_555 1_555
H20 C14 1_555 1_555
C15 C5 1_555 1_555
H21 C15 1_555 1_555
H22 C15 1_555 1_555
C16 N5 1_555 1_555
H23 C16 1_555 1_555
C17 N6 1_555 1_555
H24 C17 1_555 1_555
C18 N5 1_555 1_555
H25 C18 1_555 1_555
C19 O4 1_555 1_555
H26 C19 1_555 1_555
H27 C19 1_555 1_555
C20 C19 1_555 1_555
H28 C20 1_555 1_555
H29 C20 1_555 1_555
H30 C20 1_555 1_555
Co1A N4 1_555 1_555
Co1A_2 N6 1_555 1_555
N4A Co1 1_555 1_555
N6A Co1 1_555 1_555
N2 C8 1_555 1_555
C5 C6 1_555 1_555
C9 C10 1_555 1_555
C13 C14 1_555 1_555
C17 C18 1_555 1_555

#END
