
#######################################################################
#
#                 Cambridge Crystallographic Data Centre
#                                CCDC 
#
#######################################################################
#
# If this CIF has been generated from an entry in the Cambridge 
# Structural Database, then it will include bibliographic, chemical, 
# crystal, experimental, refinement or atomic coordinate data resulting 
# from the CCDC's data processing and validation procedures.
#
#######################################################################

data_FOXQAL
_symmetry_cell_setting           triclinic
_symmetry_space_group_name_H-M   'P -1'
_symmetry_Int_Tables_number      2
_space_group_name_Hall           '-P 1'
loop_
_symmetry_equiv_pos_site_id
_symmetry_equiv_pos_as_xyz
1 x,y,z
2 -x,-y,-z
_cell_length_a                   8.700(2)
_cell_length_b                   9.759(3)
_cell_length_c                   13.242(3)
_cell_angle_alpha                81.828(4)
_cell_angle_beta                 78.650(4)
_cell_angle_gamma                89.736(4)
_cell_volume                     1090.79
loop_
_atom_site_label
_atom_site_type_symbol
_atom_site_fract_x
_atom_site_fract_y
_atom_site_fract_z
Cu1 Cu 0.0000 0.0000 1.0000
Cu2 Cu 1.0000 0.0000 0.5000
S1 S 0.92290(9) 0.09389(8) 0.27187(6)
O1 O 1.0035(3) 0.0322(2) 0.18223(17)
O3 O 0.7750(3) 0.0154(3) 0.3166(2)
O5 O 1.0236(3) 0.0810(2) 0.35077(18)
O6 O 0.8939(3) 0.2390(2) 0.24157(18)
N1 N 0.2109(3) 0.3688(3) 0.8384(2)
N2 N 0.0897(3) 0.1891(2) 0.9408(2)
N3 N 0.4554(3) 0.8562(3) 0.9309(2)
N4 N 0.2196(3) 0.9244(2) 0.9928(2)
N5 N 0.8857(3) 0.3517(3) 0.6343(2)
N6 N 0.9350(3) 0.1823(3) 0.5416(2)
C1 C 0.4485(4) 0.5136(3) 0.7621(2)
C2 C 0.4495(4) 0.6375(3) 0.8009(3)
H1 H 0.3565 0.6844 0.8166
C3 C 0.5884(4) 0.6925(3) 0.8166(3)
C4 C 0.7260(3) 0.6242(3) 0.7887(2)
H2 H 0.8201 0.6619 0.7967
C5 C 0.5863(4) 0.4444(3) 0.7369(2)
H3 H 0.5851 0.3601 0.7119
C6 C 0.7266(4) 0.5007(3) 0.7490(2)
C7 C 0.2966(4) 0.4563(3) 0.7445(2)
H4 H 0.2313 0.5323 0.7248
H5 H 0.3189 0.4019 0.6876
C8 C 0.1711(3) 0.2344(3) 0.8472(2)
H6 H 0.1974 0.1803 0.7942
C9 C 0.0780(4) 0.2997(3) 0.9943(3)
H7 H 0.0271 0.2983 1.0632
C10 C 0.1512(4) 0.4102(3) 0.9325(3)
H8 H 0.1599 0.4983 0.9501
C11 C 0.5954(4) 0.8308(4) 0.8538(3)
H9 H 0.6874 0.8353 0.8845
H10 H 0.6065 0.9035 0.7945
C12 C 0.3258(4) 0.9187(3) 0.9080(3)
H11 H 0.3130 0.9532 0.8411
C13 C 0.2859(4) 0.8640(4) 1.0730(3)
H12 H 0.2387 0.8542 1.1431
C14 C 0.4301(4) 0.8211(4) 1.0349(3)
H13 H 0.4991 0.7758 1.0731
C15 C 0.8809(4) 0.4310(3) 0.7202(3)
H14 H 0.9644 0.5009 0.7011
H15 H 0.9000 0.3695 0.7805
C16 C 0.9361(4) 0.2211(3) 0.6328(3)
H16 H 0.9673 0.1662 0.6882
C17 C 0.8786(5) 0.2912(3) 0.4832(3)
H17 H 0.8633 0.2924 0.4155
C18 C 0.8488(4) 0.3963(4) 0.5397(3)
H18 H 0.8105 0.4824 0.5184
Cu1_2 Cu 0.0000 1.0000 1.0000
Cu1_3 Cu 0.0000 -1.0000 1.0000
Cu2_2 Cu -1.0000 0.0000 1.5000
S1A S 1.07710(9) -0.09389(8) 0.72813(6)
O1A O 0.9965(3) -0.0322(2) 0.81777(17)
O3A O 1.2250(3) -0.0154(3) 0.6834(2)
O5A O 0.9764(3) -0.0810(2) 0.64923(18)
O6A O 1.1061(3) -0.2390(2) 0.75843(18)
N1A N -0.2109(3) -0.3688(3) 1.1616(2)
N2A N -0.0897(3) -0.1891(2) 1.0592(2)
N3A N -0.4554(3) -0.8562(3) 1.0691(2)
N4A N -0.2196(3) -0.9244(2) 1.0072(2)
N4_2 N 0.2196(3) -0.0756(2) 0.9928(2)
N4A_2 N -0.2196(3) 0.0756(2) 1.0072(2)
N5A N -0.8857(3) -0.3517(3) 1.3657(2)
N6A N -0.9350(3) -0.1823(3) 1.4584(2)
N6A_2 N 1.0650(3) -0.1823(3) 0.4584(2)
C1A C -0.4485(4) -0.5136(3) 1.2379(2)
C2A C -0.4495(4) -0.6375(3) 1.1991(3)
H1A H -0.3565 -0.6844 1.1834
C3A C -0.5884(4) -0.6925(3) 1.1834(3)
C4A C -0.7260(3) -0.6242(3) 1.2113(2)
H2A H -0.8201 -0.6619 1.2033
C5A C -0.5863(4) -0.4444(3) 1.2631(2)
H3A H -0.5851 -0.3601 1.2881
C6A C -0.7266(4) -0.5007(3) 1.2510(2)
C7A C -0.2966(4) -0.4563(3) 1.2555(2)
H4A H -0.2313 -0.5323 1.2752
H5A H -0.3189 -0.4019 1.3124
C8A C -0.1711(3) -0.2344(3) 1.1528(2)
H6A H -0.1974 -0.1803 1.2058
C9A C -0.0780(4) -0.2997(3) 1.0057(3)
H7A H -0.0271 -0.2983 0.9368
C10A C -0.1512(4) -0.4102(3) 1.0675(3)
H8A H -0.1599 -0.4983 1.0499
C11A C -0.5954(4) -0.8308(4) 1.1462(3)
H9A H -0.6874 -0.8353 1.1155
H10A H -0.6065 -0.9035 1.2055
C12A C -0.3258(4) -0.9187(3) 1.0920(3)
H11A H -0.3130 -0.9532 1.1589
C13A C -0.2859(4) -0.8640(4) 0.9270(3)
H12A H -0.2387 -0.8542 0.8569
C14A C -0.4301(4) -0.8211(4) 0.9651(3)
H13A H -0.4991 -0.7758 0.9269
C15A C -0.8809(4) -0.4310(3) 1.2798(3)
H14A H -0.9644 -0.5009 1.2989
H15A H -0.9000 -0.3695 1.2195
C16A C -0.9361(4) -0.2211(3) 1.3672(3)
H16A H -0.9673 -0.1662 1.3118
C17A C -0.8786(5) -0.2912(3) 1.5168(3)
H17A H -0.8633 -0.2924 1.5845
C18A C -0.8488(4) -0.3963(4) 1.4603(3)
H18A H -0.8105 -0.4824 1.4816
O2 O 1.2883(4) 0.0568(4) 0.4784(3)
C19 C 1.3552(18) 0.1993(12) 0.4549(9)
C20 C 1.4099(17) 0.3270(12) 0.5033(10)
O4 O 0.4722(5) -0.1136(5) 0.3373(4)
loop_
_geom_bond_atom_site_label_1
_geom_bond_atom_site_label_2
_geom_bond_site_symmetry_1
_geom_bond_site_symmetry_2
Cu1 N2 1_555 1_555
Cu2 O5 1_555 1_555
S1 O1 1_555 1_555
O2 C19 1_555 1_555
O3 S1 1_555 1_555
O5 S1 1_555 1_555
O6 S1 1_555 1_555
N1 C7 1_555 1_555
N2 C8 1_555 1_555
N3 C11 1_555 1_555
N4 C12 1_555 1_555
N5 C15 1_555 1_555
N6 Cu2 1_555 1_555
C1 C2 1_555 1_555
C2 H1 1_555 1_555
C3 C2 1_555 1_555
C4 C3 1_555 1_555
H2 C4 1_555 1_555
C5 C1 1_555 1_555
H3 C5 1_555 1_555
C6 C4 1_555 1_555
C7 C1 1_555 1_555
H4 C7 1_555 1_555
H5 C7 1_555 1_555
C8 N1 1_555 1_555
H6 C8 1_555 1_555
C9 N2 1_555 1_555
H7 C9 1_555 1_555
C10 N1 1_555 1_555
H8 C10 1_555 1_555
C11 C3 1_555 1_555
H9 C11 1_555 1_555
H10 C11 1_555 1_555
C12 N3 1_555 1_555
H11 C12 1_555 1_555
C13 N4 1_555 1_555
H12 C13 1_555 1_555
C14 N3 1_555 1_555
H13 C14 1_555 1_555
C15 C6 1_555 1_555
H14 C15 1_555 1_555
H15 C15 1_555 1_555
C16 N5 1_555 1_555
H16 C16 1_555 1_555
C17 N6 1_555 1_555
H17 C17 1_555 1_555
C18 N5 1_555 1_555
H18 C18 1_555 1_555
C19 C20 1_555 1_555
Cu1_2 N4 1_555 1_555
Cu1_3 N4A 1_555 1_555
Cu2_2 N6A 1_555 1_555
S1A O1A 1_555 1_555
O3A S1A 1_555 1_555
O5A Cu2 1_555 1_555
O6A S1A 1_555 1_555
N1A C7A 1_555 1_555
N2A Cu1 1_555 1_555
N3A C11A 1_555 1_555
N4A C12A 1_555 1_555
N4_2 Cu1 1_555 1_555
N4A_2 Cu1 1_555 1_555
N5A C15A 1_555 1_555
N6A C16A 1_555 1_555
N6A_2 Cu2 1_555 1_555
C1A C2A 1_555 1_555
C2A H1A 1_555 1_555
C3A C2A 1_555 1_555
C4A C3A 1_555 1_555
H2A C4A 1_555 1_555
C5A C1A 1_555 1_555
H3A C5A 1_555 1_555
C6A C4A 1_555 1_555
C7A C1A 1_555 1_555
H4A C7A 1_555 1_555
H5A C7A 1_555 1_555
C8A N1A 1_555 1_555
H6A C8A 1_555 1_555
C9A N2A 1_555 1_555
H7A C9A 1_555 1_555
C10A N1A 1_555 1_555
H8A C10A 1_555 1_555
C11A C3A 1_555 1_555
H9A C11A 1_555 1_555
H10A C11A 1_555 1_555
C12A N3A 1_555 1_555
H11A C12A 1_555 1_555
C13A N4A 1_555 1_555
H12A C13A 1_555 1_555
C14A N3A 1_555 1_555
H13A C14A 1_555 1_555
C15A C6A 1_555 1_555
H14A C15A 1_555 1_555
H15A C15A 1_555 1_555
C16A N5A 1_555 1_555
H16A C16A 1_555 1_555
C17A N6A 1_555 1_555
H17A C17A 1_555 1_555
C18A N5A 1_555 1_555
H18A C18A 1_555 1_555
N6 C16 1_555 1_555
C5 C6 1_555 1_555
C9 C10 1_555 1_555
C13 C14 1_555 1_555
C17 C18 1_555 1_555
S1A O5A 1_555 1_555
N2A C8A 1_555 1_555
C5A C6A 1_555 1_555
C9A C10A 1_555 1_555
C13A C14A 1_555 1_555
C17A C18A 1_555 1_555

#END
