
#######################################################################
#
#                 Cambridge Crystallographic Data Centre
#                                CCDC 
#
#######################################################################
#
# If this CIF has been generated from an entry in the Cambridge 
# Structural Database, then it will include bibliographic, chemical, 
# crystal, experimental, refinement or atomic coordinate data resulting 
# from the CCDC's data processing and validation procedures.
#
#######################################################################

data_FOXQIU
_symmetry_cell_setting           orthorhombic
_symmetry_space_group_name_H-M   'C c c a'
_symmetry_Int_Tables_number      68
_space_group_name_Hall           '-C 2b 2bc'
loop_
_symmetry_equiv_pos_site_id
_symmetry_equiv_pos_as_xyz
1 x,y,z
2 1/2-x,-y,z
3 1/2+x,-y,1/2-z
4 -x,y,1/2-z
5 1/2+x,1/2+y,z
6 -x,1/2-y,z
7 x,1/2-y,1/2-z
8 1/2-x,1/2+y,1/2-z
9 -x,-y,-z
10 1/2+x,y,-z
11 1/2-x,y,1/2+z
12 x,-y,1/2+z
13 1/2-x,1/2-y,-z
14 x,1/2+y,-z
15 -x,1/2+y,1/2+z
16 1/2+x,1/2-y,1/2+z
_cell_length_a                   13.8110(8)
_cell_length_b                   16.0290(9)
_cell_length_c                   20.2310(11)
_cell_angle_alpha                90
_cell_angle_beta                 90
_cell_angle_gamma                90
_cell_volume                     4478.67
loop_
_atom_site_label
_atom_site_type_symbol
_atom_site_fract_x
_atom_site_fract_y
_atom_site_fract_z
Co1 Co 1.0000 0.2500 1.054336(18)
S1 S 1.0000 0.36904(5) 1.2500
N1 N 0.89741(12) 0.21614(11) 0.98923(8)
N2 N 0.80912(13) 0.14244(10) 0.91830(8)
N3 N 0.7500 0.0000 0.78202(12)
C1 C 0.85148(15) 0.27151(13) 0.94577(10)
C2 C 0.99853(15) 0.52206(13) 1.21500(10)
H1 H 0.9985 0.5703 1.1895
C3 C 0.74522(18) 0.35136(14) 0.85089(12)
H2 H 0.7084 0.3802 0.8199
C4 C 0.79456(15) 0.22605(13) 0.90143(10)
C5 C 0.77617(14) 0.07001(12) 0.88459(10)
O1 O 0.96917(15) 0.33816(11) 1.11354(9)
C6 C 0.7500 0.0000 0.92002(14)
H3 H 0.7500 0.0000 0.9660
C7 C 0.77549(16) 0.06737(14) 0.81597(10)
H4 H 0.7937 0.1149 0.7928
C8 C 0.99582(14) 0.44379(13) 1.18930(10)
C9 C 0.73761(16) 0.26539(14) 0.85421(11)
H5 H 0.6966 0.2356 0.8264
C10 C 0.80643(17) 0.39592(14) 0.89266(13)
H6 H 0.8117 0.4534 0.8872
O2 O 1.00054(15) 0.46519(12) 1.07382(8)
C11 C 0.85920(17) 0.35787(14) 0.94160(12)
H7 H 0.8980 0.3882 0.9704
C12 C 0.98877(16) 0.41645(15) 1.11870(11)
C13 C 0.87106(15) 0.14117(13) 0.97063(10)
H8 H 0.8923 0.0925 0.9910
C2C C 1.00147(15) 0.52206(13) 1.28500(10)
H1C H 1.0015 0.5703 1.3105
O1C O 1.03083(15) 0.33816(11) 1.38646(9)
C8C C 1.00418(14) 0.44379(13) 1.31070(10)
O2C O 0.99946(15) 0.46519(12) 1.42618(8)
C12C C 1.01123(16) 0.41645(15) 1.38130(11)
N1A N 0.60259(12) -0.21614(11) 0.98923(8)
N2A N 0.69088(13) -0.14244(10) 0.91830(8)
C1A C 0.64852(15) -0.27151(13) 0.94577(10)
C3A C 0.75478(18) -0.35136(14) 0.85089(12)
H2A H 0.7916 -0.3802 0.8199
C4A C 0.70544(15) -0.22605(13) 0.90143(10)
C5A C 0.72383(14) -0.07001(12) 0.88459(10)
C7A C 0.72451(16) -0.06737(14) 0.81597(10)
H4A H 0.7063 -0.1149 0.7928
C9A C 0.76239(16) -0.26539(14) 0.85421(11)
H5A H 0.8034 -0.2356 0.8264
C10A C 0.69357(17) -0.39592(14) 0.89266(13)
H6A H 0.6883 -0.4534 0.8872
C11A C 0.64080(17) -0.35787(14) 0.94160(12)
H7A H 0.6020 -0.3882 0.9704
C13A C 0.62894(15) -0.14117(13) 0.97063(10)
H8A H 0.6077 -0.0925 0.9910
Co1A Co 0.5000 -0.2500 1.054336(18)
Co1C Co 1.0000 0.2500 1.445664(18)
N1E N 1.10259(12) 0.28386(11) 0.98923(8)
O1E O 1.03083(15) 0.16184(11) 1.11354(9)
loop_
_geom_bond_atom_site_label_1
_geom_bond_atom_site_label_2
_geom_bond_site_symmetry_1
_geom_bond_site_symmetry_2
Co1 N1 1_555 1_555
S1 C8 1_555 1_555
N1 C1 1_555 1_555
N2 C4 1_555 1_555
N3 C7 1_555 1_555
C1 C4 1_555 1_555
C2 H1 1_555 1_555
C3 H2 1_555 1_555
C4 C9 1_555 1_555
C5 N2 1_555 1_555
O1 Co1 1_555 1_555
C6 C5 1_555 1_555
H3 C6 1_555 1_555
C7 C5 1_555 1_555
H4 C7 1_555 1_555
C8 C2 1_555 1_555
C9 C3 1_555 1_555
H5 C9 1_555 1_555
C10 C3 1_555 1_555
H6 C10 1_555 1_555
O2 C12 1_555 1_555
C11 C1 1_555 1_555
H7 C11 1_555 1_555
C12 O1 1_555 1_555
C13 N1 1_555 1_555
H8 C13 1_555 1_555
C2C C2 1_555 1_555
H1C C2C 1_555 1_555
O1C C12C 1_555 1_555
C8C S1 1_555 1_555
O2C C12C 1_555 1_555
C12C C8C 1_555 1_555
N1A C1A 1_555 1_555
N2A C4A 1_555 1_555
C1A C4A 1_555 1_555
C3A H2A 1_555 1_555
C4A C9A 1_555 1_555
C5A C6 1_555 1_555
C7A N3 1_555 1_555
H4A C7A 1_555 1_555
C9A C3A 1_555 1_555
H5A C9A 1_555 1_555
C10A C3A 1_555 1_555
H6A C10A 1_555 1_555
C11A C1A 1_555 1_555
H7A C11A 1_555 1_555
C13A N1A 1_555 1_555
H8A C13A 1_555 1_555
Co1A N1A 1_555 1_555
Co1C O1C 1_555 1_555
N1E Co1 1_555 1_555
O1E Co1 1_555 1_555
N2 C13 1_555 1_555
C8 C12 1_555 1_555
C10 C11 1_555 1_555
C2C C8C 1_555 1_555
N2A C5A 1_555 1_555
N2A C13A 1_555 1_555
C5A C7A 1_555 1_555
C10A C11A 1_555 1_555

#END
