
#######################################################################
#
#                 Cambridge Crystallographic Data Centre
#                                CCDC 
#
#######################################################################
#
# If this CIF has been generated from an entry in the Cambridge 
# Structural Database, then it will include bibliographic, chemical, 
# crystal, experimental, refinement or atomic coordinate data resulting 
# from the CCDC's data processing and validation procedures.
#
#######################################################################

data_FOXRAM
_symmetry_cell_setting           triclinic
_symmetry_space_group_name_H-M   'P -1'
_symmetry_Int_Tables_number      2
_space_group_name_Hall           '-P 1'
loop_
_symmetry_equiv_pos_site_id
_symmetry_equiv_pos_as_xyz
1 x,y,z
2 -x,-y,-z
_cell_length_a                   8.6910(18)
_cell_length_b                   11.908(3)
_cell_length_c                   12.660(3)
_cell_angle_alpha                88.965(14)
_cell_angle_beta                 78.925(13)
_cell_angle_gamma                70.326(13)
_cell_volume                     1209.21
loop_
_atom_site_label
_atom_site_type_symbol
_atom_site_fract_x
_atom_site_fract_y
_atom_site_fract_z
Ni1 Ni 0.23814(2) 0.264794(18) 0.298429(16)
S1 S -0.15351(4) 0.30173(3) 0.27824(3)
O1 O 0.08521(17) 0.41094(12) 0.40210(11)
H1 H -0.015(3) 0.426(2) 0.3931(18)
H2 H 0.104(3) 0.469(2) 0.4026(19)
O2 O 0.43106(16) 0.29552(13) 0.35695(11)
H3 H 0.411(3) 0.361(2) 0.386(2)
H4 H 0.532(4) 0.266(2) 0.339(2)
O3 O 0.02955(13) 0.24087(11) 0.24835(10)
O4 O -0.19262(15) 0.38214(13) 0.37459(11)
O5 O -0.21539(17) 0.37330(14) 0.19085(11)
O6 O -0.23394(16) 0.21191(12) 0.30237(14)
N1 N 0.29179(16) 0.52351(12) 0.07561(11)
N2 N 0.25431(17) 0.37689(12) 0.17297(11)
N3 N -0.08747(16) 0.92002(12) 0.43731(11)
N4 N -0.20621(17) 0.84135(13) 0.57362(11)
N5 N -0.37523(16) 0.99955(12) 0.09279(11)
N6 N -0.59775(16) 1.11844(12) 0.20199(11)
C1 C 0.18752(19) 0.74197(14) 0.09516(13)
C2 C 0.18056(19) 0.78693(15) 0.19732(13)
H5 H 0.2672 0.7495 0.2353
C3 C 0.04708(19) 0.88661(14) 0.24402(13)
C4 C -0.07905(19) 0.94089(14) 0.18772(13)
H6 H -0.1692 1.0098 0.2188
C5 C -0.07448(19) 0.89534(14) 0.08644(13)
C6 C 0.05988(19) 0.79595(14) 0.04010(13)
H7 H 0.0643 0.7649 -0.0295
C7 C 0.3305(2) 0.63200(14) 0.04662(14)
H8 H 0.3535 0.6358 -0.0328
H9 H 0.4319 0.6295 0.0728
C8 C 0.3166(2) 0.46426(15) 0.16527(13)
H10 H 0.3721 0.4828 0.2167
C9 C 0.1861(2) 0.38128(16) 0.08286(15)
H11 H 0.1318 0.3288 0.0658
C10 C 0.2080(2) 0.47161(16) 0.02217(14)
H12 H 0.1725 0.4943 -0.0439
C11 C 0.0414(2) 0.93851(16) 0.35299(13)
H13 H 0.1513 0.9015 0.3734
H14 H 0.0206 1.0253 0.3481
C12 C -0.0660(2) 0.83041(15) 0.50521(13)
H15 H 0.0366 0.7675 0.5041
C13 C -0.3227(2) 0.94289(16) 0.54722(14)
H16 H -0.4364 0.9735 0.5826
C14 C -0.2516(2) 0.99274(16) 0.46342(14)
H17 H -0.3042 1.0634 0.4296
C15 C -0.20930(19) 0.95576(15) 0.02386(13)
H18 H -0.1849 1.0236 -0.0130
H19 H -0.2083 0.8984 -0.0321
C16 C -0.45291(19) 1.11000(15) 0.14008(14)
H20 H -0.4092 1.1735 0.1302
C17 C -0.6116(2) 1.00747(16) 0.19382(14)
H21 H -0.7034 0.9859 0.2296
C18 C -0.4753(2) 0.93339(16) 0.12729(15)
H22 H -0.4535 0.8519 0.1084
Ni1A Ni -0.23814(2) 0.735206(18) 0.701571(16)
Ni1_2 Ni -0.76186(2) 1.264794(18) 0.298429(16)
N4A N 0.20621(17) 0.15865(13) 0.42638(11)
N6_2 N 0.40225(16) 0.11844(12) 0.20199(11)
H23 H 0.296(3) 0.568(2) 0.479(2)
O7 O 0.3205(2) 0.54035(15) 0.41723(13)
H24 H 0.385(3) 0.565(2) 0.386(2)
O8 O 0.56443(18) 0.60434(14) 0.27347(14)
H25 H 0.629(3) 0.542(2) 0.253(2)
C19 C 0.6370(4) 0.6704(2) 0.3288(2)
H26 H 0.6494 0.6368 0.4000
H27 H 0.5607 0.7542 0.3413
C20 C 0.8032(4) 0.6689(3) 0.2685(3)
H28 H 0.8470 0.7155 0.3100
H29 H 0.7914 0.7038 0.1985
H30 H 0.8802 0.5863 0.2573
loop_
_geom_bond_atom_site_label_1
_geom_bond_atom_site_label_2
_geom_bond_site_symmetry_1
_geom_bond_site_symmetry_2
Ni1 O1 1_555 1_555
S1 O3 1_555 1_555
O1 H1 1_555 1_555
H2 O1 1_555 1_555
O2 Ni1 1_555 1_555
H3 O2 1_555 1_555
H4 O2 1_555 1_555
O3 Ni1 1_555 1_555
O4 S1 1_555 1_555
O5 S1 1_555 1_555
O6 S1 1_555 1_555
N1 C7 1_555 1_555
N2 Ni1 1_555 1_555
N3 C11 1_555 1_555
N4 C12 1_555 1_555
N5 C15 1_555 1_555
N6 C16 1_555 1_555
C1 C2 1_555 1_555
C2 H5 1_555 1_555
C3 C2 1_555 1_555
C4 C3 1_555 1_555
H6 C4 1_555 1_555
C5 C4 1_555 1_555
C6 C1 1_555 1_555
H7 C6 1_555 1_555
C7 C1 1_555 1_555
H8 C7 1_555 1_555
H9 C7 1_555 1_555
C8 N1 1_555 1_555
H10 C8 1_555 1_555
C9 N2 1_555 1_555
H11 C9 1_555 1_555
C10 N1 1_555 1_555
H12 C10 1_555 1_555
C11 C3 1_555 1_555
H13 C11 1_555 1_555
H14 C11 1_555 1_555
C12 N3 1_555 1_555
H15 C12 1_555 1_555
C13 N4 1_555 1_555
H16 C13 1_555 1_555
C14 N3 1_555 1_555
H17 C14 1_555 1_555
C15 C5 1_555 1_555
H18 C15 1_555 1_555
H19 C15 1_555 1_555
C16 N5 1_555 1_555
H20 C16 1_555 1_555
C17 N6 1_555 1_555
H21 C17 1_555 1_555
C18 N5 1_555 1_555
H22 C18 1_555 1_555
H23 O7 1_555 1_555
O7 H24 1_555 1_555
O8 H25 1_555 1_555
C19 O8 1_555 1_555
H26 C19 1_555 1_555
H27 C19 1_555 1_555
C20 C19 1_555 1_555
H28 C20 1_555 1_555
H29 C20 1_555 1_555
H30 C20 1_555 1_555
Ni1A N4 1_555 1_555
Ni1_2 N6 1_555 1_555
N4A Ni1 1_555 1_555
N6_2 Ni1 1_555 1_555
N2 C8 1_555 1_555
C5 C6 1_555 1_555
C9 C10 1_555 1_555
C13 C14 1_555 1_555
C17 C18 1_555 1_555

#END
