
#######################################################################
#
#                 Cambridge Crystallographic Data Centre
#                                CCDC 
#
#######################################################################
#
# If this CIF has been generated from an entry in the Cambridge 
# Structural Database, then it will include bibliographic, chemical, 
# crystal, experimental, refinement or atomic coordinate data resulting 
# from the CCDC's data processing and validation procedures.
#
#######################################################################

data_FOXSAN
_symmetry_cell_setting           triclinic
_symmetry_space_group_name_H-M   'P -1'
_symmetry_Int_Tables_number      2
_space_group_name_Hall           '-P 1'
loop_
_symmetry_equiv_pos_site_id
_symmetry_equiv_pos_as_xyz
1 x,y,z
2 -x,-y,-z
_cell_length_a                   7.9683(13)
_cell_length_b                   9.5306(15)
_cell_length_c                   10.5586(17)
_cell_angle_alpha                94.440(3)
_cell_angle_beta                 90.183(3)
_cell_angle_gamma                99.376(3)
_cell_volume                     788.66
loop_
_atom_site_label
_atom_site_type_symbol
_atom_site_fract_x
_atom_site_fract_y
_atom_site_fract_z
Zn1 Zn -0.87498(8) -0.65143(6) 0.32030(6)
S1 S 0.04531(17) 0.32852(14) 0.53132(14)
O1 O -1.1872(6) -0.8023(5) 0.2115(4)
O2 O -1.0405(5) -0.5853(4) 0.2121(4)
O3 O -0.7572(5) -0.7252(4) 0.0725(4)
O4 O -0.7843(5) -0.8226(4) 0.2564(4)
N1 N -0.1107(5) 0.1174(4) 0.6532(4)
H1 H -0.1766 0.0372 0.6589
H2 H -0.0638 0.1643 0.7206
N2 N -0.1549(5) 0.0949(4) 0.4389(4)
H3 H -0.1321 0.1246 0.3650
N3 N -0.2677(5) -0.0291(4) 0.4521(4)
N4 N -0.6833(5) -0.4775(4) 0.3389(4)
C1 C -0.0821(6) 0.1677(5) 0.5430(5)
C2 C -0.3242(7) -0.0957(6) 0.3469(6)
H4 H -0.2878 -0.0603 0.2703
C3 C -0.4469(6) -0.2280(5) 0.3479(5)
C4 C -0.5185(6) -0.2781(5) 0.4564(5)
H5 H -0.4879 -0.2293 0.5350
C5 C -0.6357(6) -0.4009(5) 0.4484(5)
H6 H -0.6848 -0.4325 0.5230
C6 C -0.6126(7) -0.4288(6) 0.2322(6)
H7 H -0.6440 -0.4799 0.1548
C7 C -0.4947(7) -0.3050(6) 0.2335(5)
H8 H -0.4479 -0.2738 0.1580
C8 C -1.1650(8) -0.6793(7) 0.1762(6)
C9 C -1.2901(8) -0.6413(7) 0.0828(7)
H9 H -1.3771 -0.7224 0.0626
H10 H -1.2322 -0.6142 0.0067
H11 H -1.3409 -0.5633 0.1194
C10 C -0.7555(8) -0.8248(7) 0.1379(7)
C11 C -0.7124(11) -0.9647(7) 0.0769(7)
H12 H -0.6914 -0.9558 -0.0118
H13 H -0.8060 -1.0402 0.0866
H14 H -0.6127 -0.9862 0.1175
Zn1_2 Zn 0.12502(8) 0.34857(6) 0.32030(6)
S1_2 S -0.95469(17) -0.67148(14) 0.53132(14)
O5 O 0.0283(6) 0.2967(4) -0.1365(4)
H15 H 0.0969 0.3006 -0.0741
H16 H 0.0831 0.3684 -0.1699
loop_
_geom_bond_atom_site_label_1
_geom_bond_atom_site_label_2
_geom_bond_site_symmetry_1
_geom_bond_site_symmetry_2
Zn1 O2 1_555 1_555
S1 C1 1_555 1_555
O1 C8 1_555 1_555
O2 C8 1_555 1_555
O3 C10 1_555 1_555
O4 Zn1 1_555 1_555
N1 H1 1_555 1_555
H2 N1 1_555 1_555
N2 H3 1_555 1_555
N3 N2 1_555 1_555
N4 Zn1 1_555 1_555
C1 N1 1_555 1_555
C2 N3 1_555 1_555
H4 C2 1_555 1_555
C3 C2 1_555 1_555
C4 C3 1_555 1_555
H5 C4 1_555 1_555
C5 N4 1_555 1_555
H6 C5 1_555 1_555
C6 N4 1_555 1_555
H7 C6 1_555 1_555
C7 C3 1_555 1_555
H8 C7 1_555 1_555
C8 C9 1_555 1_555
C9 H9 1_555 1_555
H10 C9 1_555 1_555
H11 C9 1_555 1_555
C10 O4 1_555 1_555
C11 C10 1_555 1_555
H12 C11 1_555 1_555
H13 C11 1_555 1_555
H14 C11 1_555 1_555
O5 H15 1_555 1_555
H16 O5 1_555 1_555
Zn1_2 S1 1_555 1_555
S1_2 Zn1 1_555 1_555
N2 C1 1_555 1_555
C4 C5 1_555 1_555
C6 C7 1_555 1_555

#END
