
#######################################################################
#
#                 Cambridge Crystallographic Data Centre
#                                CCDC 
#
#######################################################################
#
# If this CIF has been generated from an entry in the Cambridge 
# Structural Database, then it will include bibliographic, chemical, 
# crystal, experimental, refinement or atomic coordinate data resulting 
# from the CCDC's data processing and validation procedures.
#
#######################################################################

data_FOXTIW
_symmetry_cell_setting           monoclinic
_symmetry_space_group_name_H-M   'P 21'
_symmetry_Int_Tables_number      4
_space_group_name_Hall           'P 2yb'
loop_
_symmetry_equiv_pos_site_id
_symmetry_equiv_pos_as_xyz
1 x,y,z
2 -x,1/2+y,-z
_cell_length_a                   8.192(3)
_cell_length_b                   19.465(5)
_cell_length_c                   8.214(3)
_cell_angle_alpha                90
_cell_angle_beta                 115.798(16)
_cell_angle_gamma                90
_cell_volume                     1179.24
loop_
_atom_site_label
_atom_site_type_symbol
_atom_site_fract_x
_atom_site_fract_y
_atom_site_fract_z
Co1 Co 0.35615(8) 0.07527(3) 0.64393(8)
S1 S 0.38968(17) 0.50218(6) 0.36418(17)
S2 S 0.36375(18) 0.14836(6) 0.38901(16)
S3 S 0.26590(17) 0.24214(6) 0.41525(19)
S4 S 0.46408(18) 0.30149(6) 0.59851(17)
S5 S 0.59822(17) 0.34914(6) 0.46388(18)
S6 S 0.4149(2) 0.40844(6) 0.26593(17)
N1 N 0.2950(5) 0.00288(19) 0.8333(5)
N2 N 0.1200(4) 0.00747(18) 0.4716(5)
N3 N 0.5289(5) 0.14335(18) 0.8801(5)
N4 N 0.1672(5) 0.14767(19) 0.7062(5)
C1 C 0.3872(7) 0.0023(3) 1.0130(6)
H1 H 0.4841 0.0326 1.0654
C2 C 0.3494(8) -0.0394(3) 1.1248(7)
H2 H 0.4141 -0.0368 1.2499
C3 C 0.2109(9) -0.0854(3) 1.0433(8)
H3 H 0.1830 -0.1165 1.1136
C4 C 0.1134(8) -0.0860(3) 0.8597(8)
H4 H 0.0162 -0.1160 0.8053
C5 C 0.1597(6) -0.0420(2) 0.7557(6)
C6 C 0.0617(6) -0.0398(2) 0.5555(6)
C7 C -0.0788(7) -0.0828(3) 0.4570(7)
H5 H -0.1167 -0.1156 0.5155
C8 C -0.1632(7) -0.0777(3) 0.2742(8)
H6 H -0.2601 -0.1065 0.2077
C9 C -0.1061(7) -0.0305(3) 0.1878(7)
H7 H -0.1620 -0.0263 0.0626
C10 C 0.0387(7) 0.0109(2) 0.2942(6)
H8 H 0.0806 0.0429 0.2371
C11 C 0.7069(7) 0.1399(2) 0.9638(7)
H9 H 0.7643 0.1072 0.9244
C12 C 0.8136(8) 0.1814(3) 1.1049(7)
H10 H 0.9393 0.1778 1.1586
C13 C 0.7258(8) 0.2287(3) 1.1638(7)
H11 H 0.7927 0.2572 1.2611
C14 C 0.5420(8) 0.2340(3) 1.0805(7)
H12 H 0.4829 0.2665 1.1187
C15 C 0.4442(7) 0.1905(2) 0.9381(6)
C16 C 0.2441(6) 0.1925(2) 0.8414(6)
C17 C 0.1391(8) 0.2367(3) 0.8874(8)
H13 H 0.1929 0.2669 0.9841
C18 C -0.0429(8) 0.2356(3) 0.7896(8)
H14 H -0.1145 0.2658 0.8182
C19 C -0.1219(7) 0.1912(3) 0.6515(7)
H15 H -0.2471 0.1906 0.5837
C20 C -0.0138(7) 0.1475(3) 0.6138(7)
H16 H -0.0676 0.1162 0.5200
Co1A Co 0.64385(8) 0.57527(3) 0.35607(8)
S1A S 0.61032(17) 0.00218(6) 0.63582(17)
loop_
_geom_bond_atom_site_label_1
_geom_bond_atom_site_label_2
_geom_bond_site_symmetry_1
_geom_bond_site_symmetry_2
Co1 S2 1_555 1_555
S1 S6 1_555 1_555
S2 S3 1_555 1_555
S3 S4 1_555 1_555
S4 S5 1_555 1_555
S5 S6 1_555 1_555
N1 Co1 1_555 1_555
N2 Co1 1_555 1_555
N3 Co1 1_555 1_555
N4 Co1 1_555 1_555
C1 N1 1_555 1_555
H1 C1 1_555 1_555
C2 C1 1_555 1_555
H2 C2 1_555 1_555
C3 C2 1_555 1_555
H3 C3 1_555 1_555
C4 C3 1_555 1_555
H4 C4 1_555 1_555
C5 N1 1_555 1_555
C6 N2 1_555 1_555
C7 C6 1_555 1_555
H5 C7 1_555 1_555
C8 C7 1_555 1_555
H6 C8 1_555 1_555
C9 C8 1_555 1_555
H7 C9 1_555 1_555
C10 N2 1_555 1_555
H8 C10 1_555 1_555
C11 N3 1_555 1_555
H9 C11 1_555 1_555
C12 C11 1_555 1_555
H10 C12 1_555 1_555
C13 C12 1_555 1_555
H11 C13 1_555 1_555
C14 C13 1_555 1_555
H12 C14 1_555 1_555
C15 N3 1_555 1_555
C16 N4 1_555 1_555
C17 C16 1_555 1_555
H13 C17 1_555 1_555
C18 C17 1_555 1_555
H14 C18 1_555 1_555
C19 C18 1_555 1_555
H15 C19 1_555 1_555
C20 N4 1_555 1_555
H16 C20 1_555 1_555
Co1A S1 1_555 1_555
S1A Co1 1_555 1_555
C4 C5 1_555 1_555
C5 C6 1_555 1_555
C9 C10 1_555 1_555
C14 C15 1_555 1_555
C15 C16 1_555 1_555
C19 C20 1_555 1_555

#END
