
#######################################################################
#
#                 Cambridge Crystallographic Data Centre
#                                CCDC 
#
#######################################################################
#
# If this CIF has been generated from an entry in the Cambridge 
# Structural Database, then it will include bibliographic, chemical, 
# crystal, experimental, refinement or atomic coordinate data resulting 
# from the CCDC's data processing and validation procedures.
#
#######################################################################

data_FOXXUN
_symmetry_cell_setting           tetragonal
_symmetry_space_group_name_H-M   'P 41 21 2'
_symmetry_Int_Tables_number      92
_space_group_name_Hall           'P 4abw 2nw'
loop_
_symmetry_equiv_pos_site_id
_symmetry_equiv_pos_as_xyz
1 x,y,z
2 1/2-y,1/2+x,1/4+z
3 1/2+x,1/2-y,3/4-z
4 -x,-y,1/2+z
5 y,x,-z
6 1/2+y,1/2-x,3/4+z
7 1/2-x,1/2+y,1/4-z
8 -y,-x,1/2-z
_cell_length_a                   7.8882(2)
_cell_length_b                   7.8882(2)
_cell_length_c                   38.0767(7)
_cell_angle_alpha                90
_cell_angle_beta                 90
_cell_angle_gamma                90
_cell_volume                     2369.27
loop_
_atom_site_label
_atom_site_type_symbol
_atom_site_fract_x
_atom_site_fract_y
_atom_site_fract_z
Cu1 Cu 1.0715(3) 1.0715(3) 0.00000
C1 C 0.6242(7) 0.6242(7) 0.00000
N1 N 0.8864(10) 0.8864(10) 0.00000
C2 C 0.9198(9) 0.7216(10) -0.00148(5)
H1 H 1.0340 0.6921 -0.00189
C3 C 0.8036(5) 0.5893(9) -0.00163(5)
H2 H 0.8389 0.4767 -0.00193
N2 N 0.2468(8) 0.2468(8) 0.00000
C4 C 0.4906(7) 0.4906(7) 0.00000
C5 C 0.5103(8) 0.3473(6) -0.02071(5)
H3 H 0.6044 0.3385 -0.03531
C6 C 0.3837(6) 0.2255(8) -0.02018(5)
H4 H 0.3895 0.1294 -0.03424
C7 C 1.2193(11) 0.8224(11) 0.09820(5)
C8 C 1.1298(17) 0.9433(16) 0.07261(5)
O1 O 1.1842(11) 0.9518(14) 0.04150(5)
C9 C 1.0127(15) 1.0592(17) 0.08606(5)
H5 H 0.9862 1.0561 0.10981
C10 C 0.9071(14) 1.1682(17) 0.06810(5)
C11 C 0.7588(10) 1.2569(12) 0.08676(5)
O2 O 0.9196(14) 1.2003(13) 0.03557(5)
F1 F 1.1824(17) 0.6628(11) 0.09240(5)
F2 F 1.3835(9) 0.8443(17) 0.09828(5)
F3 F 1.1750(15) 0.8468(15) 0.13117(5)
F4 F 0.7627(15) 1.2483(17) 0.12135(5)
F5 F 0.6122(11) 1.1926(16) 0.07769(5)
F6 F 0.7593(16) 1.4185(11) 0.08021(5)
C2D C 0.7216(10) 0.9198(9) 0.00148(5)
H1D H 0.6921 1.0340 0.00189
C3D C 0.5893(9) 0.8036(5) 0.00163(5)
H2D H 0.4767 0.8389 0.00193
C5D C 0.3473(6) 0.5103(8) 0.02071(5)
H3D H 0.3385 0.6044 0.03531
C6D C 0.2255(8) 0.3837(6) 0.02018(5)
H4D H 0.1294 0.3895 0.03424
C7D C 0.8224(11) 1.2193(11) -0.09820(5)
C8D C 0.9433(16) 1.1298(17) -0.07261(5)
O1D O 0.9518(14) 1.1842(11) -0.04150(5)
C9D C 1.0592(17) 1.0127(15) -0.08606(5)
H5D H 1.0561 0.9862 -0.10981
C10D C 1.1682(17) 0.9071(14) -0.06810(5)
C11D C 1.2569(12) 0.7588(10) -0.08676(5)
O2D O 1.2003(13) 0.9196(14) -0.03557(5)
F1D F 0.6628(11) 1.1824(17) -0.09240(5)
F2D F 0.8443(17) 1.3835(9) -0.09828(5)
F3D F 0.8468(15) 1.1750(15) -0.13117(5)
F4D F 1.2483(17) 0.7627(15) -0.12135(5)
F5D F 1.1926(16) 0.6122(11) -0.07769(5)
F6D F 1.4185(11) 0.7593(16) -0.08021(5)
Cu1_2 Cu 0.0715(3) 0.0715(3) 0.00000
N2_2 N 1.2468(8) 1.2468(8) 0.00000
loop_
_geom_bond_atom_site_label_1
_geom_bond_atom_site_label_2
_geom_bond_site_symmetry_1
_geom_bond_site_symmetry_2
Cu1 N1 1_555 1_555
C1 C3 1_555 1_555
N1 C2 1_555 1_555
C2 H1 1_555 1_555
C3 C2 1_555 1_555
H2 C3 1_555 1_555
N2 C6 1_555 1_555
C4 C1 1_555 1_555
C5 C4 1_555 1_555
H3 C5 1_555 1_555
C6 C5 1_555 1_555
H4 C6 1_555 1_555
C7 C8 1_555 1_555
C8 O1 1_555 1_555
O1 Cu1 1_555 1_555
C9 C8 1_555 1_555
H5 C9 1_555 1_555
C10 C9 1_555 1_555
C11 C10 1_555 1_555
O2 Cu1 1_555 1_555
F1 C7 1_555 1_555
F2 C7 1_555 1_555
F3 C7 1_555 1_555
F4 C11 1_555 1_555
F5 C11 1_555 1_555
F6 C11 1_555 1_555
C2D N1 1_555 1_555
H1D C2D 1_555 1_555
C3D C1 1_555 1_555
H2D C3D 1_555 1_555
C5D C4 1_555 1_555
H3D C5D 1_555 1_555
C6D N2 1_555 1_555
H4D C6D 1_555 1_555
C7D C8D 1_555 1_555
C8D O1D 1_555 1_555
O1D Cu1 1_555 1_555
C9D C8D 1_555 1_555
H5D C9D 1_555 1_555
C10D C9D 1_555 1_555
C11D C10D 1_555 1_555
O2D Cu1 1_555 1_555
F1D C7D 1_555 1_555
F2D C7D 1_555 1_555
F3D C7D 1_555 1_555
F4D C11D 1_555 1_555
F5D C11D 1_555 1_555
F6D C11D 1_555 1_555
Cu1_2 N2 1_555 1_555
N2_2 Cu1 1_555 1_555
C10 O2 1_555 1_555
C2D C3D 1_555 1_555
C5D C6D 1_555 1_555
C10D O2D 1_555 1_555

#END
