
#######################################################################
#
#                 Cambridge Crystallographic Data Centre
#                                CCDC 
#
#######################################################################
#
# If this CIF has been generated from an entry in the Cambridge 
# Structural Database, then it will include bibliographic, chemical, 
# crystal, experimental, refinement or atomic coordinate data resulting 
# from the CCDC's data processing and validation procedures.
#
#######################################################################

data_FOXYOH
_symmetry_cell_setting           triclinic
_symmetry_space_group_name_H-M   'P -1'
_symmetry_Int_Tables_number      2
_space_group_name_Hall           '-P 1'
loop_
_symmetry_equiv_pos_site_id
_symmetry_equiv_pos_as_xyz
1 x,y,z
2 -x,-y,-z
_cell_length_a                   10.596(2)
_cell_length_b                   11.194(2)
_cell_length_c                   13.656(3)
_cell_angle_alpha                110.23(3)
_cell_angle_beta                 101.12(3)
_cell_angle_gamma                107.93(3)
_cell_volume                     1362.33
loop_
_atom_site_label
_atom_site_type_symbol
_atom_site_fract_x
_atom_site_fract_y
_atom_site_fract_z
Nd1 Nd -0.000876(17) 0.082514(16) -0.117384(13)
O1 O -0.0732(3) -0.2983(2) -0.05221(19)
O2 O -0.0347(2) -0.1403(2) -0.1163(2)
O3 O -0.0020(3) -0.5914(3) -0.1754(2)
O4 O -0.1169(3) -0.7982(3) -0.1818(2)
O5 O -0.2230(2) -0.0031(3) -0.0914(2)
O6 O -0.2271(2) -0.1071(2) 0.02280(19)
O7 O 0.1864(3) 0.3022(3) -0.1178(2)
H1 H 0.1372 0.3476 -0.1335
H2 H 0.2279 0.3417 -0.0518
N1 N -0.1744(3) -0.0801(3) -0.3241(2)
N2 N 0.1065(3) 0.0005(3) -0.2787(2)
N3 N -0.2470(3) -0.6163(3) -0.3799(2)
N4 N -0.3837(3) -0.5328(3) -0.1897(2)
N5 N -0.6688(3) -0.1376(3) -0.0851(3)
C1 C -0.3125(5) -0.1185(5) -0.3466(4)
H3 H -0.3459 -0.0880 -0.2886
C2 C -0.4095(6) -0.2027(6) -0.4536(4)
H4 H -0.5054 -0.2272 -0.4662
C3 C -0.3624(6) -0.2482(5) -0.5389(4)
H5 H -0.4265 -0.3066 -0.6101
C4 C -0.2200(5) -0.2086(4) -0.5209(3)
C5 C -0.1276(4) -0.1224(4) -0.4101(3)
C6 C 0.0207(4) -0.0791(3) -0.3867(3)
C7 C 0.0741(5) -0.1231(4) -0.4736(3)
C8 C 0.2191(6) -0.0808(5) -0.4463(4)
H6 H 0.2582 -0.1072 -0.5013
C9 C 0.3035(5) -0.0006(5) -0.3386(4)
H7 H 0.4006 0.0285 -0.3194
C10 C 0.2426(4) 0.0376(4) -0.2574(3)
H8 H 0.3017 0.0924 -0.1842
C11 C -0.1604(7) -0.2476(5) -0.6060(3)
H9 H -0.2204 -0.3024 -0.6789
C12 C -0.0220(7) -0.2082(5) -0.5847(4)
H10 H 0.0125 -0.2363 -0.6425
C13 C -0.0746(3) -0.2655(3) -0.1303(3)
C14 C -0.1213(3) -0.3775(3) -0.2460(3)
C15 C -0.0734(4) -0.3446(4) -0.3242(3)
H11 H -0.0144 -0.2534 -0.3055
C16 C -0.1128(4) -0.4467(4) -0.4301(3)
H12 H -0.0818 -0.4260 -0.4839
C17 C -0.1992(5) -0.5800(4) -0.4534(3)
H13 H -0.2261 -0.6492 -0.5247
C18 C -0.2092(3) -0.5166(3) -0.2779(3)
C19 C -0.2737(3) -0.5644(3) -0.2028(3)
C20 C -0.2294(4) -0.6452(3) -0.1578(3)
C21 C -0.3036(4) -0.6942(4) -0.0972(3)
H14 H -0.2785 -0.7498 -0.0670
C22 C -0.4151(4) -0.6606(4) -0.0814(3)
H15 H -0.4649 -0.6913 -0.0395
C23 C -0.4507(4) -0.5811(4) -0.1289(3)
H16 H -0.5263 -0.5592 -0.1182
C24 C -0.1048(4) -0.6777(4) -0.1727(3)
C25 C -0.2838(3) -0.0715(3) -0.0461(3)
C26 C -0.4429(3) -0.1346(3) -0.0867(3)
C27 C -0.5068(4) -0.2687(4) -0.1710(3)
H17 H -0.4525 -0.3128 -0.2005
C28 C -0.6507(4) -0.3363(4) -0.2107(3)
H18 H -0.6955 -0.4261 -0.2677
C29 C -0.7271(4) -0.2680(4) -0.1643(4)
H19 H -0.8245 -0.3151 -0.1893
C30 C -0.5284(3) -0.0717(3) -0.0456(3)
Nd1A Nd -0.999124(17) -0.082514(16) 0.117384(13)
Nd1_2 Nd -1.000876(17) 0.082514(16) -0.117384(13)
Nd1_3 Nd -0.000876(17) -0.917486(16) -0.117384(13)
Nd1A_2 Nd -0.999124(17) 0.917486(16) 0.117384(13)
Nd1A_3 Nd 0.000876(17) -0.082514(16) 0.117384(13)
O1A O -0.9268(3) 0.2983(2) 0.05221(19)
O1_2 O -1.0732(3) -0.2983(2) -0.05221(19)
O1A_2 O 0.0732(3) 0.2983(2) 0.05221(19)
O2A O -0.9653(2) 0.1403(2) 0.1163(2)
O3A O -0.9980(3) 0.5914(3) 0.1754(2)
O4A O -0.8831(3) 0.7982(3) 0.1818(2)
O4_2 O -0.1169(3) 0.2018(3) -0.1818(2)
O4A_2 O -0.8831(3) -0.2018(3) 0.1818(2)
O5A O -0.7770(2) 0.0031(3) 0.0914(2)
O6A O -0.7729(2) 0.1071(2) -0.02280(19)
O6_2 O -1.2271(2) -0.1071(2) 0.02280(19)
O6A_2 O 0.2271(2) 0.1071(2) -0.02280(19)
O7A O -1.1864(3) -0.3022(3) 0.1178(2)
H1A H -1.1372 -0.3476 0.1335
H2A H -1.2279 -0.3417 0.0518
N1A N -0.8256(3) 0.0801(3) 0.3241(2)
N2A N -1.1065(3) -0.0005(3) 0.2787(2)
N3A N -0.7530(3) 0.6163(3) 0.3799(2)
N4A N -0.6163(3) 0.5328(3) 0.1897(2)
N5A N -0.3312(3) 0.1376(3) 0.0851(3)
C1A C -0.6875(5) 0.1185(5) 0.3466(4)
H3A H -0.6541 0.0880 0.2886
C2A C -0.5905(6) 0.2027(6) 0.4536(4)
H4A H -0.4946 0.2272 0.4662
C3A C -0.6376(6) 0.2482(5) 0.5389(4)
H5A H -0.5735 0.3066 0.6101
C4A C -0.7800(5) 0.2086(4) 0.5209(3)
C5A C -0.8724(4) 0.1224(4) 0.4101(3)
C6A C -1.0207(4) 0.0791(3) 0.3867(3)
C7A C -1.0741(5) 0.1231(4) 0.4736(3)
C8A C -1.2191(6) 0.0808(5) 0.4463(4)
H6A H -1.2582 0.1072 0.5013
C9A C -1.3035(5) 0.0006(5) 0.3386(4)
H7A H -1.4006 -0.0285 0.3194
C10A C -1.2426(4) -0.0376(4) 0.2574(3)
H8A H -1.3017 -0.0924 0.1842
C11A C -0.8396(7) 0.2476(5) 0.6060(3)
H9A H -0.7796 0.3024 0.6789
C12A C -0.9780(7) 0.2082(5) 0.5847(4)
H10A H -1.0125 0.2363 0.6425
C13A C -0.9254(3) 0.2655(3) 0.1303(3)
C14A C -0.8787(3) 0.3775(3) 0.2460(3)
C15A C -0.9266(4) 0.3446(4) 0.3242(3)
H11A H -0.9856 0.2534 0.3055
C16A C -0.8872(4) 0.4467(4) 0.4301(3)
H12A H -0.9182 0.4260 0.4839
C17A C -0.8008(5) 0.5800(4) 0.4534(3)
H13A H -0.7739 0.6492 0.5247
C18A C -0.7908(3) 0.5166(3) 0.2779(3)
C19A C -0.7263(3) 0.5644(3) 0.2028(3)
C20A C -0.7706(4) 0.6452(3) 0.1578(3)
C21A C -0.6964(4) 0.6942(4) 0.0972(3)
H14A H -0.7215 0.7498 0.0670
C22A C -0.5849(4) 0.6606(4) 0.0814(3)
H15A H -0.5351 0.6913 0.0395
C23A C -0.5493(4) 0.5811(4) 0.1289(3)
H16A H -0.4737 0.5592 0.1182
C24A C -0.8952(4) 0.6777(4) 0.1727(3)
C25A C -0.7162(3) 0.0715(3) 0.0461(3)
C26A C -0.5571(3) 0.1346(3) 0.0867(3)
C27A C -0.4932(4) 0.2687(4) 0.1710(3)
H17A H -0.5475 0.3128 0.2005
C28A C -0.3493(4) 0.3363(4) 0.2107(3)
H18A H -0.3045 0.4261 0.2677
C29A C -0.2729(4) 0.2680(4) 0.1643(4)
H19A H -0.1755 0.3151 0.1893
C30A C -0.4716(3) 0.0717(3) 0.0456(3)
loop_
_geom_bond_atom_site_label_1
_geom_bond_atom_site_label_2
_geom_bond_site_symmetry_1
_geom_bond_site_symmetry_2
Nd1 O2 1_555 1_555
O1 C13 1_555 1_555
O2 C13 1_555 1_555
O3 C24 1_555 1_555
O4 C24 1_555 1_555
O5 Nd1 1_555 1_555
O6 C25 1_555 1_555
O7 Nd1 1_555 1_555
H1 O7 1_555 1_555
H2 O7 1_555 1_555
N1 Nd1 1_555 1_555
N2 Nd1 1_555 1_555
N3 C17 1_555 1_555
N4 C19 1_555 1_555
N5 C29 1_555 1_555
C1 N1 1_555 1_555
H3 C1 1_555 1_555
C2 C1 1_555 1_555
H4 C2 1_555 1_555
C3 C2 1_555 1_555
H5 C3 1_555 1_555
C4 C3 1_555 1_555
C5 N1 1_555 1_555
C6 N2 1_555 1_555
C7 C6 1_555 1_555
C8 C7 1_555 1_555
H6 C8 1_555 1_555
C9 C8 1_555 1_555
H7 C9 1_555 1_555
C10 N2 1_555 1_555
H8 C10 1_555 1_555
C11 C4 1_555 1_555
H9 C11 1_555 1_555
C12 C7 1_555 1_555
H10 C12 1_555 1_555
C13 C14 1_555 1_555
C14 C15 1_555 1_555
C15 H11 1_555 1_555
C16 C15 1_555 1_555
H12 C16 1_555 1_555
C17 C16 1_555 1_555
H13 C17 1_555 1_555
C18 N3 1_555 1_555
C19 C18 1_555 1_555
C20 C19 1_555 1_555
C21 C20 1_555 1_555
H14 C21 1_555 1_555
C22 C21 1_555 1_555
H15 C22 1_555 1_555
C23 N4 1_555 1_555
H16 C23 1_555 1_555
C24 C20 1_555 1_555
C25 O5 1_555 1_555
C26 C25 1_555 1_555
C27 C26 1_555 1_555
H17 C27 1_555 1_555
C28 C27 1_555 1_555
H18 C28 1_555 1_555
C29 C28 1_555 1_555
H19 C29 1_555 1_555
C30 N5 1_555 1_555
Nd1A O1_2 1_555 1_555
Nd1_2 O1A 1_555 1_555
Nd1_3 O4 1_555 1_555
Nd1A_2 O4A 1_555 1_555
Nd1A_3 O1 1_555 1_555
O1A C13A 1_555 1_555
O1A_2 Nd1 1_555 1_555
O2A Nd1A 1_555 1_555
O3A C24A 1_555 1_555
O4A C24A 1_555 1_555
O4_2 Nd1 1_555 1_555
O4A_2 Nd1A 1_555 1_555
O5A Nd1A 1_555 1_555
O6A Nd1_2 1_555 1_555
O6_2 Nd1A 1_555 1_555
O6A_2 Nd1 1_555 1_555
O7A Nd1A 1_555 1_555
H1A O7A 1_555 1_555
H2A O7A 1_555 1_555
N1A Nd1A 1_555 1_555
N2A Nd1A 1_555 1_555
N3A C17A 1_555 1_555
N4A C19A 1_555 1_555
N5A C29A 1_555 1_555
C1A N1A 1_555 1_555
H3A C1A 1_555 1_555
C2A C1A 1_555 1_555
H4A C2A 1_555 1_555
C3A C2A 1_555 1_555
H5A C3A 1_555 1_555
C4A C3A 1_555 1_555
C5A N1A 1_555 1_555
C6A N2A 1_555 1_555
C7A C6A 1_555 1_555
C8A C7A 1_555 1_555
H6A C8A 1_555 1_555
C9A C8A 1_555 1_555
H7A C9A 1_555 1_555
C10A N2A 1_555 1_555
H8A C10A 1_555 1_555
C11A C4A 1_555 1_555
H9A C11A 1_555 1_555
C12A C7A 1_555 1_555
H10A C12A 1_555 1_555
C13A O2A 1_555 1_555
C14A C13A 1_555 1_555
C15A C14A 1_555 1_555
H11A C15A 1_555 1_555
C16A C15A 1_555 1_555
H12A C16A 1_555 1_555
C17A C16A 1_555 1_555
H13A C17A 1_555 1_555
C18A N3A 1_555 1_555
C19A C18A 1_555 1_555
C20A C19A 1_555 1_555
C21A C20A 1_555 1_555
H14A C21A 1_555 1_555
C22A C21A 1_555 1_555
H15A C22A 1_555 1_555
C23A N4A 1_555 1_555
H16A C23A 1_555 1_555
C24A C20A 1_555 1_555
C25A O5A 1_555 1_555
C26A C25A 1_555 1_555
C27A C26A 1_555 1_555
H17A C27A 1_555 1_555
C28A C27A 1_555 1_555
H18A C28A 1_555 1_555
C29A C28A 1_555 1_555
H19A C29A 1_555 1_555
C30A C30 1_555 1_555
O6 Nd1A_3 1_555 1_555
C4 C5 1_555 1_555
C5 C6 1_555 1_555
C9 C10 1_555 1_555
C11 C12 1_555 1_555
C14 C18 1_555 1_555
C22 C23 1_555 1_555
C26 C30 1_555 1_555
O6A C25A 1_555 1_555
N5A C30A 1_555 1_555
C4A C5A 1_555 1_555
C5A C6A 1_555 1_555
C9A C10A 1_555 1_555
C11A C12A 1_555 1_555
C14A C18A 1_555 1_555
C22A C23A 1_555 1_555
C26A C30A 1_555 1_555

#END
