
#######################################################################
#
#                 Cambridge Crystallographic Data Centre
#                                CCDC 
#
#######################################################################
#
# If this CIF has been generated from an entry in the Cambridge 
# Structural Database, then it will include bibliographic, chemical, 
# crystal, experimental, refinement or atomic coordinate data resulting 
# from the CCDC's data processing and validation procedures.
#
#######################################################################

data_FOXYUN
_symmetry_cell_setting           triclinic
_symmetry_space_group_name_H-M   'P -1'
_symmetry_Int_Tables_number      2
_space_group_name_Hall           '-P 1'
loop_
_symmetry_equiv_pos_site_id
_symmetry_equiv_pos_as_xyz
1 x,y,z
2 -x,-y,-z
_cell_length_a                   10.545(2)
_cell_length_b                   11.197(2)
_cell_length_c                   13.575(3)
_cell_angle_alpha                110.21(3)
_cell_angle_beta                 101.26(3)
_cell_angle_gamma                107.76(3)
_cell_volume                     1348.98
loop_
_atom_site_label
_atom_site_type_symbol
_atom_site_fract_x
_atom_site_fract_y
_atom_site_fract_z
Eu1 Eu 0.000618(16) -0.083104(16) 0.119488(13)
O1 O -0.0687(3) -0.2866(3) -0.0526(2)
O2 O -0.0387(3) -0.1384(3) -0.1273(2)
O3 O 0.0057(3) -0.5875(3) -0.1701(3)
O4 O -0.1123(3) -0.7954(3) -0.1806(2)
O5 O -0.2224(2) -0.1041(3) 0.0231(2)
O6 O -0.2173(3) 0.0051(3) -0.0879(2)
O7 O -0.1888(3) -0.2999(3) 0.1128(2)
N1 N -0.2431(3) -0.6175(3) -0.3785(2)
N2 N -0.3796(3) -0.5293(3) -0.1868(3)
N3 N -0.6683(3) -0.1388(3) -0.0877(3)
N4 N 0.1758(4) 0.0742(4) 0.3232(3)
N5 N -0.1057(3) -0.0033(3) 0.2784(3)
C1 C -0.1982(5) -0.5835(4) -0.4546(3)
H1 H -0.2244 -0.6541 -0.5255
C2 C -0.1162(5) -0.4514(5) -0.4344(3)
H2 H -0.0885 -0.4323 -0.4902
C3 C -0.0756(4) -0.3471(4) -0.3292(3)
H3 H -0.0175 -0.2563 -0.3123
C4 C -0.1212(4) -0.3774(4) -0.2489(3)
C5 C -0.2056(4) -0.5144(4) -0.2767(3)
C6 C -0.2688(4) -0.5610(3) -0.1996(3)
C7 C -0.2241(4) -0.6412(4) -0.1541(3)
C8 C -0.2987(5) -0.6914(4) -0.0931(4)
H4 H -0.2730 -0.7470 -0.0629
C9 C -0.4113(5) -0.6580(4) -0.0776(4)
H5 H -0.4612 -0.6885 -0.0355
C10 C -0.4474(4) -0.5793(4) -0.1256(3)
H6 H -0.5242 -0.5584 -0.1156
C11 C -0.0734(4) -0.2596(4) -0.1343(3)
C12 C -0.0987(4) -0.6743(4) -0.1690(3)
C13 C -0.7245(4) -0.2663(5) -0.1678(4)
H7 H -0.8224 -0.3133 -0.1950
C14 C -0.6463(4) -0.3343(4) -0.2140(4)
H8 H -0.6901 -0.4240 -0.2714
C15 C -0.5009(4) -0.2647(4) -0.1721(3)
H9 H -0.4449 -0.3077 -0.2008
C16 C -0.4389(4) -0.1316(4) -0.0876(3)
C17 C -0.5279(3) -0.0713(4) -0.0466(3)
C18 C -0.2784(3) -0.0665(4) -0.0440(3)
C19 C 0.3135(5) 0.1113(5) 0.3457(4)
H10 H 0.3458 0.0785 0.2870
C20 C 0.4140(6) 0.1974(6) 0.4528(4)
H11 H 0.5101 0.2209 0.4648
C21 C 0.3663(6) 0.2455(6) 0.5386(4)
H12 H 0.4308 0.3053 0.6099
C22 C 0.2235(6) 0.2064(4) 0.5206(3)
C23 C 0.1299(5) 0.1189(4) 0.4092(3)
C24 C -0.0187(4) 0.0772(4) 0.3863(3)
C25 C -0.0731(6) 0.1224(4) 0.4733(4)
C26 C -0.2200(6) 0.0801(5) 0.4458(4)
H13 H -0.2589 0.1071 0.5013
C27 C -0.3047(6) -0.0002(5) 0.3386(4)
H14 H -0.4023 -0.0287 0.3193
C28 C -0.2436(5) -0.0399(5) 0.2566(4)
H15 H -0.3030 -0.0948 0.1829
C29 C 0.1649(7) 0.2493(5) 0.6065(4)
H16 H 0.2257 0.3063 0.6795
C30 C 0.0246(7) 0.2096(5) 0.5850(4)
H17 H -0.0096 0.2389 0.6431
Eu1A Eu -1.000618(16) 0.083104(16) -0.119488(13)
Eu1_2 Eu -0.999382(16) -0.083104(16) 0.119488(13)
Eu1_3 Eu -0.999382(16) 0.916896(16) 0.119488(13)
Eu1A_2 Eu -0.000618(16) -0.916896(16) -0.119488(13)
Eu1A_3 Eu -0.000618(16) 0.083104(16) -0.119488(13)
O1A O -0.9313(3) 0.2866(3) 0.0526(2)
O2A O -0.9613(3) 0.1384(3) 0.1273(2)
O2_2 O -1.0387(3) -0.1384(3) -0.1273(2)
O2A_2 O 0.0387(3) 0.1384(3) 0.1273(2)
O3A O -1.0057(3) 0.5875(3) 0.1701(3)
O4A O -0.8877(3) 0.7954(3) 0.1806(2)
O4_2 O -1.1123(3) 0.2046(3) -0.1806(2)
O4A_2 O 0.1123(3) -0.2046(3) 0.1806(2)
O5A O -0.7776(2) 0.1041(3) -0.0231(2)
O6A O -0.7827(3) -0.0051(3) 0.0879(2)
O6_2 O -1.2173(3) 0.0051(3) -0.0879(2)
O6A_2 O 0.2173(3) -0.0051(3) 0.0879(2)
O7A O -0.8112(3) 0.2999(3) -0.1128(2)
N1A N -0.7569(3) 0.6175(3) 0.3785(2)
N2A N -0.6204(3) 0.5293(3) 0.1868(3)
N3A N -0.3317(3) 0.1388(3) 0.0877(3)
N4A N -1.1758(4) -0.0742(4) -0.3232(3)
N5A N -0.8943(3) 0.0033(3) -0.2784(3)
C1A C -0.8018(5) 0.5835(4) 0.4546(3)
H1A H -0.7756 0.6541 0.5255
C2A C -0.8838(5) 0.4514(5) 0.4344(3)
H2A H -0.9115 0.4323 0.4902
C3A C -0.9244(4) 0.3471(4) 0.3292(3)
H3A H -0.9825 0.2563 0.3123
C4A C -0.8788(4) 0.3774(4) 0.2489(3)
C5A C -0.7944(4) 0.5144(4) 0.2767(3)
C6A C -0.7312(4) 0.5610(3) 0.1996(3)
C7A C -0.7759(4) 0.6412(4) 0.1541(3)
C8A C -0.7013(5) 0.6914(4) 0.0931(4)
H4A H -0.7270 0.7470 0.0629
C9A C -0.5887(5) 0.6580(4) 0.0776(4)
H5A H -0.5388 0.6885 0.0355
C10A C -0.5526(4) 0.5793(4) 0.1256(3)
H6A H -0.4758 0.5584 0.1156
C11A C -0.9266(4) 0.2596(4) 0.1343(3)
C12A C -0.9013(4) 0.6743(4) 0.1690(3)
C13A C -0.2755(4) 0.2663(5) 0.1678(4)
H7A H -0.1776 0.3133 0.1950
C14A C -0.3537(4) 0.3343(4) 0.2140(4)
H8A H -0.3099 0.4240 0.2714
C15A C -0.4991(4) 0.2647(4) 0.1721(3)
H9A H -0.5551 0.3077 0.2008
C16A C -0.5611(4) 0.1316(4) 0.0876(3)
C17A C -0.4721(3) 0.0713(4) 0.0466(3)
C18A C -0.7216(3) 0.0665(4) 0.0440(3)
C19A C -1.3135(5) -0.1113(5) -0.3457(4)
H10A H -1.3458 -0.0785 -0.2870
C20A C -1.4140(6) -0.1974(6) -0.4528(4)
H11A H -1.5101 -0.2209 -0.4648
C21A C -1.3663(6) -0.2455(6) -0.5386(4)
H12A H -1.4308 -0.3053 -0.6099
C22A C -1.2235(6) -0.2064(4) -0.5206(3)
C23A C -1.1299(5) -0.1189(4) -0.4092(3)
C24A C -0.9813(4) -0.0772(4) -0.3863(3)
C25A C -0.9269(6) -0.1224(4) -0.4733(4)
C26A C -0.7800(6) -0.0801(5) -0.4458(4)
H13A H -0.7411 -0.1071 -0.5013
C27A C -0.6953(6) 0.0002(5) -0.3386(4)
H14A H -0.5977 0.0287 -0.3193
C28A C -0.7564(5) 0.0399(5) -0.2566(4)
H15A H -0.6970 0.0948 -0.1829
C29A C -1.1649(7) -0.2493(5) -0.6065(4)
H16A H -1.2257 -0.3063 -0.6795
C30A C -1.0246(7) -0.2096(5) -0.5850(4)
H17A H -0.9904 -0.2389 -0.6431
loop_
_geom_bond_atom_site_label_1
_geom_bond_atom_site_label_2
_geom_bond_site_symmetry_1
_geom_bond_site_symmetry_2
Eu1 O1 1_555 1_555
O1 C11 1_555 1_555
O2 C11 1_555 1_555
O3 C12 1_555 1_555
O4 C12 1_555 1_555
O5 Eu1 1_555 1_555
O6 C18 1_555 1_555
O7 Eu1 1_555 1_555
N1 C1 1_555 1_555
N2 C6 1_555 1_555
N3 C13 1_555 1_555
N4 Eu1 1_555 1_555
N5 Eu1 1_555 1_555
C1 H1 1_555 1_555
C2 C1 1_555 1_555
H2 C2 1_555 1_555
C3 C2 1_555 1_555
H3 C3 1_555 1_555
C4 C3 1_555 1_555
C5 N1 1_555 1_555
C6 C5 1_555 1_555
C7 C6 1_555 1_555
C8 C7 1_555 1_555
H4 C8 1_555 1_555
C9 C8 1_555 1_555
H5 C9 1_555 1_555
C10 N2 1_555 1_555
H6 C10 1_555 1_555
C11 C4 1_555 1_555
C12 C7 1_555 1_555
C13 H7 1_555 1_555
C14 C13 1_555 1_555
H8 C14 1_555 1_555
C15 C14 1_555 1_555
H9 C15 1_555 1_555
C16 C15 1_555 1_555
C17 N3 1_555 1_555
C18 O5 1_555 1_555
C19 N4 1_555 1_555
H10 C19 1_555 1_555
C20 C19 1_555 1_555
H11 C20 1_555 1_555
C21 C20 1_555 1_555
H12 C21 1_555 1_555
C22 C21 1_555 1_555
C23 N4 1_555 1_555
C24 N5 1_555 1_555
C25 C24 1_555 1_555
C26 C25 1_555 1_555
H13 C26 1_555 1_555
C27 C26 1_555 1_555
H14 C27 1_555 1_555
C28 N5 1_555 1_555
H15 C28 1_555 1_555
C29 C22 1_555 1_555
H16 C29 1_555 1_555
C30 C25 1_555 1_555
H17 C30 1_555 1_555
Eu1A O1A 1_555 1_555
Eu1_2 O2A 1_555 1_555
Eu1_3 O4A 1_555 1_555
Eu1A_2 O4 1_555 1_555
Eu1A_3 O2 1_555 1_555
O1A C11A 1_555 1_555
O2A C11A 1_555 1_555
O2_2 Eu1A 1_555 1_555
O2A_2 Eu1 1_555 1_555
O3A C12A 1_555 1_555
O4A C12A 1_555 1_555
O4_2 Eu1A 1_555 1_555
O4A_2 Eu1 1_555 1_555
O5A Eu1A 1_555 1_555
O6A Eu1_2 1_555 1_555
O6_2 Eu1A 1_555 1_555
O6A_2 Eu1 1_555 1_555
O7A Eu1A 1_555 1_555
N1A C1A 1_555 1_555
N2A C6A 1_555 1_555
N3A C13A 1_555 1_555
N4A Eu1A 1_555 1_555
N5A Eu1A 1_555 1_555
C1A H1A 1_555 1_555
C2A C1A 1_555 1_555
H2A C2A 1_555 1_555
C3A C2A 1_555 1_555
H3A C3A 1_555 1_555
C4A C3A 1_555 1_555
C5A N1A 1_555 1_555
C6A C5A 1_555 1_555
C7A C6A 1_555 1_555
C8A C7A 1_555 1_555
H4A C8A 1_555 1_555
C9A C8A 1_555 1_555
H5A C9A 1_555 1_555
C10A N2A 1_555 1_555
H6A C10A 1_555 1_555
C11A C4A 1_555 1_555
C12A C7A 1_555 1_555
C13A H7A 1_555 1_555
C14A C13A 1_555 1_555
H8A C14A 1_555 1_555
C15A C14A 1_555 1_555
H9A C15A 1_555 1_555
C16A C15A 1_555 1_555
C17A C17 1_555 1_555
C18A O5A 1_555 1_555
C19A N4A 1_555 1_555
H10A C19A 1_555 1_555
C20A C19A 1_555 1_555
H11A C20A 1_555 1_555
C21A C20A 1_555 1_555
H12A C21A 1_555 1_555
C22A C21A 1_555 1_555
C23A N4A 1_555 1_555
C24A N5A 1_555 1_555
C25A C24A 1_555 1_555
C26A C25A 1_555 1_555
H13A C26A 1_555 1_555
C27A C26A 1_555 1_555
H14A C27A 1_555 1_555
C28A N5A 1_555 1_555
H15A C28A 1_555 1_555
C29A C22A 1_555 1_555
H16A C29A 1_555 1_555
C30A C25A 1_555 1_555
H17A C30A 1_555 1_555
O6 Eu1A_3 1_555 1_555
C4 C5 1_555 1_555
C9 C10 1_555 1_555
C16 C17 1_555 1_555
C16 C18 1_555 1_555
C22 C23 1_555 1_555
C23 C24 1_555 1_555
C27 C28 1_555 1_555
C29 C30 1_555 1_555
O6A C18A 1_555 1_555
N3A C17A 1_555 1_555
C4A C5A 1_555 1_555
C9A C10A 1_555 1_555
C16A C17A 1_555 1_555
C16A C18A 1_555 1_555
C22A C23A 1_555 1_555
C23A C24A 1_555 1_555
C27A C28A 1_555 1_555
C29A C30A 1_555 1_555

#END
