
#######################################################################
#
#                 Cambridge Crystallographic Data Centre
#                                CCDC 
#
#######################################################################
#
# If this CIF has been generated from an entry in the Cambridge 
# Structural Database, then it will include bibliographic, chemical, 
# crystal, experimental, refinement or atomic coordinate data resulting 
# from the CCDC's data processing and validation procedures.
#
#######################################################################

data_FOXZID
_symmetry_cell_setting           triclinic
_symmetry_space_group_name_H-M   'P -1'
_symmetry_Int_Tables_number      2
_space_group_name_Hall           '-P 1'
loop_
_symmetry_equiv_pos_site_id
_symmetry_equiv_pos_as_xyz
1 x,y,z
2 -x,-y,-z
_cell_length_a                   13.5505(8)
_cell_length_b                   14.8203(10)
_cell_length_c                   20.0745(14)
_cell_angle_alpha                95.918(6)
_cell_angle_beta                 96.395(5)
_cell_angle_gamma                101.199(5)
_cell_volume                     3897.73
loop_
_atom_site_label
_atom_site_type_symbol
_atom_site_fract_x
_atom_site_fract_y
_atom_site_fract_z
Si5 Si 0.35086(12) 0.42243(11) 0.58803(8)
Si6 Si 0.31471(12) 0.33779(11) 0.43820(8)
N10 N 0.3722(3) 0.4079(3) 0.5078(2)
C47 C 0.3716(5) 0.5497(4) 0.6224(3)
H81 H 0.4390 0.5804 0.6173
H82 H 0.3632 0.5554 0.6694
H83 H 0.3230 0.5776 0.5979
C48 C 0.2203(5) 0.3706(4) 0.6063(3)
H84 H 0.1709 0.3953 0.5798
H85 H 0.2161 0.3855 0.6534
H86 H 0.2073 0.3044 0.5949
C49 C 0.4383(5) 0.3754(5) 0.6489(3)
H87 H 0.4381 0.3121 0.6327
H88 H 0.4154 0.3784 0.6925
H89 H 0.5060 0.4118 0.6526
C50 C 0.2967(5) 0.4036(4) 0.3635(3)
H90 H 0.2535 0.4463 0.3729
H91 H 0.2661 0.3607 0.3241
H92 H 0.3614 0.4373 0.3556
C51 C 0.3884(5) 0.2486(4) 0.4088(3)
H93 H 0.4562 0.2791 0.4044
H94 H 0.3556 0.2159 0.3658
H95 H 0.3909 0.2055 0.4412
C52 C 0.1848(5) 0.2662(5) 0.4424(3)
H96 H 0.1905 0.2212 0.4729
H97 H 0.1558 0.2351 0.3982
H98 H 0.1419 0.3060 0.4582
Ca3 Ca 0.58387(9) 0.40554(8) 0.52322(6)
Si5A Si -0.35086(12) 1.57757(11) 1.41197(8)
Si6A Si -0.31471(12) 1.66221(11) 1.56180(8)
N10A N -0.3722(3) 1.5921(3) 1.4922(2)
C47A C -0.3716(5) 1.4503(4) 1.3776(3)
H81A H -0.4390 1.4196 1.3827
H82A H -0.3632 1.4446 1.3306
H83A H -0.3230 1.4224 1.4021
C48A C -0.2203(5) 1.6294(4) 1.3937(3)
H84A H -0.1709 1.6047 1.4202
H85A H -0.2161 1.6145 1.3466
H86A H -0.2073 1.6956 1.4051
C49A C -0.4383(5) 1.6246(5) 1.3511(3)
H87A H -0.4381 1.6879 1.3673
H88A H -0.4154 1.6216 1.3075
H89A H -0.5060 1.5882 1.3474
C50A C -0.2967(5) 1.5964(4) 1.6365(3)
H90A H -0.2535 1.5537 1.6271
H91A H -0.2661 1.6393 1.6759
H92A H -0.3614 1.5627 1.6444
C51A C -0.3884(5) 1.7514(4) 1.5912(3)
H93A H -0.4562 1.7209 1.5956
H94A H -0.3556 1.7841 1.6342
H95A H -0.3909 1.7945 1.5588
C52A C -0.1848(5) 1.7338(5) 1.5576(3)
H96A H -0.1905 1.7788 1.5271
H97A H -0.1558 1.7649 1.6018
H98A H -0.1419 1.6940 1.5418
Ca3A Ca -0.58387(9) 1.59446(8) 1.47678(6)
C53 C 0.4425(6) 0.5663(7) 0.8181(4)
H99 H 0.3876 0.5956 0.8163
C54 C 0.4300(9) 0.4758(8) 0.8312(5)
H100 H 0.3658 0.4454 0.8381
C55 C 0.5074(13) 0.4278(9) 0.8347(5)
H101 H 0.4972 0.3668 0.8441
C56 C 0.6028(11) 0.4764(13) 0.8232(7)
H102 H 0.6575 0.4469 0.8234
C57 C 0.6147(8) 0.5680(10) 0.8116(6)
H103 H 0.6787 0.6003 0.8061
C58 C 0.5346(7) 0.6126(7) 0.8079(4)
C59 C 0.5496(9) 0.7089(7) 0.7929(5)
H104 H 0.4896 0.7324 0.7990
H105 H 0.5628 0.7109 0.7470
H106 H 0.6063 0.7462 0.8229
Ca1 Ca 0.0000 1.0000 1.0000
Ca2 Ca 0.11510(8) 0.88702(7) 0.90435(5)
Si1 Si 0.26037(11) 1.08041(10) 1.02980(7)
Si2 Si 0.14186(11) 1.06968(10) 1.15434(7)
Si3 Si 0.35242(13) 0.83628(11) 0.48320(8)
Si4 Si 0.17996(12) 0.67109(11) 0.44410(8)
K1 K 0.09725(9) 1.10014(7) 0.86118(6)
K2 K 0.25199(10) 0.74810(8) 0.62749(6)
O1 O 0.1661(2) 1.0276(2) 0.97494(16)
O2 O 0.0284(2) 1.0546(2) 1.11551(16)
O3 O 0.0302(3) 0.8501(2) 1.01305(17)
O4 O 0.1907(3) 0.9707(2) 0.82098(16)
O5 O 0.2262(3) 1.1035(3) 1.10420(18)
N1 N 0.3524(3) 1.0414(3) 0.7253(2)
N2 N 0.2105(3) 1.0362(3) 0.6604(2)
N3 N 0.2177(3) 0.9028(3) 0.7170(2)
N4 N 0.2264(3) 0.6434(3) 0.9569(2)
N5 N 0.0692(3) 0.5962(3) 0.9083(2)
N6 N 0.1211(3) 0.7565(3) 0.9627(2)
N7 N 0.1502(3) 0.8154(3) 0.7998(2)
N8 N 0.2820(3) 0.7342(3) 0.4947(2)
N9 N 0.0447(3) 0.7107(3) 1.0552(2)
C1 C -0.0245(4) 0.7146(3) 1.1009(3)
C2 C -0.1290(4) 0.7005(4) 1.0809(3)
H1 H -0.1532 0.6955 1.0351
C3 C -0.1976(5) 0.6938(4) 1.1273(3)
H2 H -0.2668 0.6839 1.1123
C4 C -0.1642(5) 0.7019(4) 1.1960(3)
H3 H -0.2102 0.6979 1.2272
C5 C -0.0606(5) 0.7161(4) 1.2172(3)
H4 H -0.0371 0.7215 1.2630
C6 C 0.0085(5) 0.7222(4) 1.1706(3)
H5 H 0.0775 0.7314 1.1859
C7 C 0.1653(4) 0.9586(4) 1.1827(3)
H6 H 0.1541 0.9118 1.1443
H7 H 0.2341 0.9677 1.2040
H8 H 0.1197 0.9392 1.2142
C8 C 0.1685(4) 1.1592(4) 1.2300(3)
H9 H 0.1197 1.1431 1.2603
H10 H 0.2355 1.1621 1.2526
H11 H 0.1640 1.2185 1.2161
C9 C 0.3600(4) 1.0107(4) 1.0405(3)
H12 H 0.3319 0.9532 1.0559
H13 H 0.4154 1.0447 1.0731
H14 H 0.3841 0.9983 0.9980
C10 C 0.3232(4) 1.1948(4) 1.0076(3)
H15 H 0.3418 1.1867 0.9629
H16 H 0.3830 1.2201 1.0394
H17 H 0.2772 1.2365 1.0091
C11 C 0.0607(4) 0.7721(3) 1.0126(3)
C12 C 0.1861(4) 0.8969(3) 0.7788(2)
C13 C 0.1356(4) 0.6700(3) 0.9459(2)
C14 C 0.1197(4) 0.5243(4) 0.8977(3)
H18 H 0.0914 0.4658 0.8743
C15 C 0.2159(4) 0.5532(4) 0.9267(3)
H19 H 0.2666 0.5190 0.9265
C16 C -0.0424(4) 0.5834(4) 0.8844(3)
C17 C -0.0743(4) 0.6750(4) 0.8756(3)
H20 H -0.0697 0.7103 0.9191
H21 H -0.1430 0.6629 0.8535
H22 H -0.0302 0.7094 0.8486
C18 C -0.0659(4) 0.5243(4) 0.8148(3)
H23 H -0.0240 0.5536 0.7843
H24 H -0.1361 0.5187 0.7975
H25 H -0.0524 0.4638 0.8191
C19 C -0.1005(4) 0.5322(4) 0.9352(3)
H26 H -0.0861 0.4713 0.9350
H27 H -0.1721 0.5273 0.9229
H28 H -0.0798 0.5660 0.9796
C20 C 0.3231(4) 0.7019(4) 0.9952(3)
C21 C 0.3609(4) 0.7803(4) 0.9546(3)
H29 H 0.3742 0.7545 0.9114
H30 H 0.4222 0.8189 0.9787
H31 H 0.3101 0.8167 0.9480
C22 C 0.3030(5) 0.7385(4) 1.0656(3)
H32 H 0.2557 0.7788 1.0612
H33 H 0.3655 0.7723 1.0914
H34 H 0.2751 0.6874 1.0882
C23 C 0.4023(5) 0.6418(4) 1.0028(3)
H35 H 0.3770 0.5901 1.0258
H36 H 0.4638 0.6780 1.0285
H37 H 0.4160 0.6193 0.9589
C24 C 0.2576(4) 0.9884(3) 0.7042(2)
C25 C 0.2758(5) 1.1197(4) 0.6562(3)
H38 H 0.2617 1.1652 0.6303
C26 C 0.3619(5) 1.1228(4) 0.6959(3)
H39 H 0.4186 1.1711 0.7027
C27 C 0.1026(4) 1.0081(4) 0.6272(3)
C28 C 0.0822(5) 1.0780(4) 0.5788(3)
H40 H 0.0926 1.1386 0.6038
H41 H 0.0134 1.0601 0.5568
H42 H 0.1278 1.0789 0.5454
C29 C 0.0851(4) 0.9122(4) 0.5871(3)
H43 H 0.1330 0.9122 0.5553
H44 H 0.0174 0.8964 0.5633
H45 H 0.0939 0.8675 0.6174
C30 C 0.0325(4) 1.0102(4) 0.6818(3)
H46 H 0.0462 0.9679 0.7131
H47 H -0.0370 0.9922 0.6612
H48 H 0.0443 1.0718 0.7055
C31 C 0.4356(4) 1.0253(4) 0.7761(3)
C32 C 0.4291(5) 0.9223(5) 0.7810(3)
H49 H 0.3692 0.8980 0.8001
H50 H 0.4880 0.9143 0.8092
H51 H 0.4261 0.8898 0.7366
C33 C 0.4260(5) 1.0772(5) 0.8445(3)
H52 H 0.4313 1.1420 0.8405
H53 H 0.4792 1.0697 0.8779
H54 H 0.3613 1.0525 0.8579
C34 C 0.5378(5) 1.0642(6) 0.7532(4)
H55 H 0.5392 1.0365 0.7080
H56 H 0.5917 1.0502 0.7830
H57 H 0.5466 1.1302 0.7542
C35 C 0.1318(4) 0.7332(3) 0.7549(2)
C36 C 0.1854(4) 0.6639(4) 0.7673(3)
H58 H 0.2360 0.6743 0.8042
C37 C 0.1650(4) 0.5791(4) 0.7255(3)
H59 H 0.2017 0.5339 0.7345
C38 C 0.0895(5) 0.5631(4) 0.6704(3)
H60 H 0.0760 0.5073 0.6419
C39 C 0.0345(4) 0.6306(4) 0.6580(3)
H61 H -0.0163 0.6197 0.6213
C40 C 0.0545(4) 0.7141(4) 0.6998(3)
H62 H 0.0160 0.7582 0.6912
C41 C 0.4126(5) 0.9048(4) 0.5672(3)
H63 H 0.3613 0.9258 0.5903
H64 H 0.4623 0.9573 0.5600
H65 H 0.4449 0.8661 0.5942
C42 C 0.4594(5) 0.8230(4) 0.4325(3)
H66 H 0.5023 0.7878 0.4549
H67 H 0.4984 0.8831 0.4285
H68 H 0.4317 0.7912 0.3883
C43 C 0.2848(6) 0.9174(5) 0.4378(4)
H69 H 0.2570 0.8885 0.3928
H70 H 0.3321 0.9740 0.4355
H71 H 0.2310 0.9309 0.4619
C44 C 0.1379(5) 0.5571(4) 0.4773(3)
H72 H 0.1902 0.5219 0.4756
H73 H 0.0768 0.5228 0.4501
H74 H 0.1253 0.5688 0.5232
C45 C 0.0655(5) 0.7261(5) 0.4377(4)
H75 H 0.0437 0.7342 0.4814
H76 H 0.0116 0.6867 0.4066
H77 H 0.0830 0.7853 0.4219
C46 C 0.2005(6) 0.6430(5) 0.3533(3)
H78 H 0.2156 0.6994 0.3333
H79 H 0.1401 0.6037 0.3285
H80 H 0.2561 0.6118 0.3519
Ca2A Ca -0.11510(8) 1.11298(7) 1.09565(5)
Si1A Si -0.26037(11) 0.91959(10) 0.97020(7)
Si2A Si -0.14186(11) 0.93032(10) 0.84566(7)
Si3A Si -0.35242(13) 1.16372(11) 1.51680(8)
Si4A Si -0.17996(12) 1.32891(11) 1.55590(8)
K1A K -0.09725(9) 0.89986(7) 1.13882(6)
K2A K -0.25199(10) 1.25190(8) 1.37251(6)
O1A O -0.1661(2) 0.9724(2) 1.02506(16)
O2A O -0.0284(2) 0.9454(2) 0.88449(16)
O3A O -0.0302(3) 1.1499(2) 0.98695(17)
O4A O -0.1907(3) 1.0293(2) 1.17902(16)
O5A O -0.2262(3) 0.8965(3) 0.89580(18)
N1A N -0.3524(3) 0.9586(3) 1.2747(2)
N2A N -0.2105(3) 0.9638(3) 1.3396(2)
N3A N -0.2177(3) 1.0972(3) 1.2830(2)
N4A N -0.2264(3) 1.3566(3) 1.0431(2)
N5A N -0.0692(3) 1.4038(3) 1.0917(2)
N6A N -0.1211(3) 1.2435(3) 1.0373(2)
N7A N -0.1502(3) 1.1846(3) 1.2002(2)
N8A N -0.2820(3) 1.2658(3) 1.5053(2)
N9A N -0.0447(3) 1.2893(3) 0.9448(2)
C1A C 0.0245(4) 1.2854(3) 0.8991(3)
C2A C 0.1290(4) 1.2995(4) 0.9191(3)
H1A H 0.1532 1.3045 0.9649
C3A C 0.1976(5) 1.3062(4) 0.8727(3)
H2A H 0.2668 1.3161 0.8877
C4A C 0.1642(5) 1.2981(4) 0.8040(3)
H3A H 0.2102 1.3021 0.7728
C5A C 0.0606(5) 1.2839(4) 0.7828(3)
H4A H 0.0371 1.2785 0.7370
C6A C -0.0085(5) 1.2778(4) 0.8294(3)
H5A H -0.0775 1.2686 0.8141
C7A C -0.1653(4) 1.0414(4) 0.8173(3)
H6A H -0.1541 1.0882 0.8557
H7A H -0.2341 1.0323 0.7960
H8A H -0.1197 1.0608 0.7858
C8A C -0.1685(4) 0.8408(4) 0.7700(3)
H9A H -0.1197 0.8569 0.7397
H10A H -0.2355 0.8379 0.7474
H11A H -0.1640 0.7815 0.7839
C9A C -0.3600(4) 0.9893(4) 0.9595(3)
H12A H -0.3319 1.0468 0.9441
H13A H -0.4154 0.9553 0.9269
H14A H -0.3841 1.0017 1.0020
C10A C -0.3232(4) 0.8052(4) 0.9924(3)
H15A H -0.3418 0.8133 1.0371
H16A H -0.3830 0.7799 0.9606
H17A H -0.2772 0.7635 0.9909
C11A C -0.0607(4) 1.2279(3) 0.9874(3)
C12A C -0.1861(4) 1.1031(3) 1.2212(2)
C13A C -0.1356(4) 1.3300(3) 1.0541(2)
C14A C -0.1197(4) 1.4757(4) 1.1023(3)
H18A H -0.0914 1.5342 1.1257
C15A C -0.2159(4) 1.4468(4) 1.0733(3)
H19A H -0.2666 1.4810 1.0735
C16A C 0.0424(4) 1.4166(4) 1.1156(3)
C17A C 0.0743(4) 1.3250(4) 1.1244(3)
H20A H 0.0697 1.2897 1.0809
H21A H 0.1430 1.3371 1.1465
H22A H 0.0302 1.2906 1.1514
C18A C 0.0659(4) 1.4757(4) 1.1852(3)
H23A H 0.0240 1.4464 1.2157
H24A H 0.1361 1.4813 1.2025
H25A H 0.0524 1.5362 1.1809
C19A C 0.1005(4) 1.4678(4) 1.0648(3)
H26A H 0.0861 1.5287 1.0650
H27A H 0.1721 1.4727 1.0771
H28A H 0.0798 1.4340 1.0204
C20A C -0.3231(4) 1.2981(4) 1.0048(3)
C21A C -0.3609(4) 1.2197(4) 1.0454(3)
H29A H -0.3742 1.2455 1.0886
H30A H -0.4222 1.1811 1.0213
H31A H -0.3101 1.1833 1.0520
C22A C -0.3030(5) 1.2615(4) 0.9344(3)
H32A H -0.2557 1.2212 0.9388
H33A H -0.3655 1.2277 0.9086
H34A H -0.2751 1.3126 0.9118
C23A C -0.4023(5) 1.3582(4) 0.9972(3)
H35A H -0.3770 1.4099 0.9742
H36A H -0.4638 1.3220 0.9715
H37A H -0.4160 1.3807 1.0411
C24A C -0.2576(4) 1.0116(3) 1.2958(2)
C25A C -0.2758(5) 0.8803(4) 1.3438(3)
H38A H -0.2617 0.8348 1.3697
C26A C -0.3619(5) 0.8772(4) 1.3041(3)
H39A H -0.4186 0.8289 1.2973
C27A C -0.1026(4) 0.9919(4) 1.3728(3)
C28A C -0.0822(5) 0.9220(4) 1.4212(3)
H40A H -0.0926 0.8614 1.3962
H41A H -0.0134 0.9399 1.4432
H42A H -0.1278 0.9211 1.4546
C29A C -0.0851(4) 1.0878(4) 1.4129(3)
H43A H -0.1330 1.0878 1.4447
H44A H -0.0174 1.1036 1.4367
H45A H -0.0939 1.1325 1.3826
C30A C -0.0325(4) 0.9898(4) 1.3182(3)
H46A H -0.0462 1.0321 1.2869
H47A H 0.0370 1.0078 1.3388
H48A H -0.0443 0.9282 1.2945
C31A C -0.4356(4) 0.9747(4) 1.2239(3)
C32A C -0.4291(5) 1.0777(5) 1.2190(3)
H49A H -0.3692 1.1020 1.1999
H50A H -0.4880 1.0857 1.1908
H51A H -0.4261 1.1102 1.2634
C33A C -0.4260(5) 0.9228(5) 1.1555(3)
H52A H -0.4313 0.8580 1.1595
H53A H -0.4792 0.9303 1.1221
H54A H -0.3613 0.9475 1.1421
C34A C -0.5378(5) 0.9358(6) 1.2468(4)
H55A H -0.5392 0.9635 1.2920
H56A H -0.5917 0.9498 1.2170
H57A H -0.5466 0.8698 1.2458
C35A C -0.1318(4) 1.2668(3) 1.2451(2)
C36A C -0.1854(4) 1.3361(4) 1.2327(3)
H58A H -0.2360 1.3257 1.1958
C37A C -0.1650(4) 1.4209(4) 1.2745(3)
H59A H -0.2017 1.4661 1.2655
C38A C -0.0895(5) 1.4369(4) 1.3296(3)
H60A H -0.0760 1.4927 1.3581
C39A C -0.0345(4) 1.3694(4) 1.3420(3)
H61A H 0.0163 1.3803 1.3787
C40A C -0.0545(4) 1.2859(4) 1.3002(3)
H62A H -0.0160 1.2418 1.3088
C41A C -0.4126(5) 1.0952(4) 1.4328(3)
H63A H -0.3613 1.0742 1.4097
H64A H -0.4623 1.0427 1.4400
H65A H -0.4449 1.1339 1.4058
C42A C -0.4594(5) 1.1770(4) 1.5675(3)
H66A H -0.5023 1.2122 1.5451
H67A H -0.4984 1.1169 1.5715
H68A H -0.4317 1.2088 1.6117
C43A C -0.2848(6) 1.0826(5) 1.5622(4)
H69A H -0.2570 1.1115 1.6072
H70A H -0.3321 1.0260 1.5645
H71A H -0.2310 1.0691 1.5381
C44A C -0.1379(5) 1.4429(4) 1.5227(3)
H72A H -0.1902 1.4781 1.5244
H73A H -0.0768 1.4772 1.5499
H74A H -0.1253 1.4312 1.4768
C45A C -0.0655(5) 1.2739(5) 1.5623(4)
H75A H -0.0437 1.2658 1.5186
H76A H -0.0116 1.3133 1.5934
H77A H -0.0830 1.2147 1.5781
C46A C -0.2005(6) 1.3570(5) 1.6467(3)
H78A H -0.2156 1.3006 1.6667
H79A H -0.1401 1.3963 1.6715
H80A H -0.2561 1.3882 1.6481
loop_
_geom_bond_atom_site_label_1
_geom_bond_atom_site_label_2
_geom_bond_site_symmetry_1
_geom_bond_site_symmetry_2
Ca1 O1 1_555 1_555
Ca2 O1 1_555 1_555
Si1 O1 1_555 1_555
Si2 O2 1_555 1_555
Si3 N8 1_555 1_555
Si4 N8 1_555 1_555
K1 O1 1_555 1_555
K2 N3 1_555 1_555
O2 Ca1 1_555 1_555
O3 Ca1 1_555 1_555
O4 Ca2 1_555 1_555
O5 Si1 1_555 1_555
N1 C24 1_555 1_555
N2 C24 1_555 1_555
N3 C12 1_555 1_555
N4 C13 1_555 1_555
N5 C13 1_555 1_555
N6 Ca2 1_555 1_555
N7 Ca2 1_555 1_555
N8 K2 1_555 1_555
N9 C1 1_555 1_555
C1 C2 1_555 1_555
C2 H1 1_555 1_555
C3 C2 1_555 1_555
H2 C3 1_555 1_555
C4 C3 1_555 1_555
H3 C4 1_555 1_555
C5 C4 1_555 1_555
H4 C5 1_555 1_555
C6 C1 1_555 1_555
H5 C6 1_555 1_555
C7 Si2 1_555 1_555
H6 C7 1_555 1_555
H7 C7 1_555 1_555
H8 C7 1_555 1_555
C8 Si2 1_555 1_555
H9 C8 1_555 1_555
H10 C8 1_555 1_555
H11 C8 1_555 1_555
C9 Si1 1_555 1_555
H12 C9 1_555 1_555
H13 C9 1_555 1_555
H14 C9 1_555 1_555
C10 Si1 1_555 1_555
H15 C10 1_555 1_555
H16 C10 1_555 1_555
H17 C10 1_555 1_555
C11 O3 1_555 1_555
C12 O4 1_555 1_555
C13 N6 1_555 1_555
C14 N5 1_555 1_555
H18 C14 1_555 1_555
C15 N4 1_555 1_555
H19 C15 1_555 1_555
C16 N5 1_555 1_555
C17 C16 1_555 1_555
H20 C17 1_555 1_555
H21 C17 1_555 1_555
H22 C17 1_555 1_555
C18 C16 1_555 1_555
H23 C18 1_555 1_555
H24 C18 1_555 1_555
H25 C18 1_555 1_555
C19 C16 1_555 1_555
H26 C19 1_555 1_555
H27 C19 1_555 1_555
H28 C19 1_555 1_555
C20 N4 1_555 1_555
C21 C20 1_555 1_555
H29 C21 1_555 1_555
H30 C21 1_555 1_555
H31 C21 1_555 1_555
C22 C20 1_555 1_555
H32 C22 1_555 1_555
H33 C22 1_555 1_555
H34 C22 1_555 1_555
C23 C20 1_555 1_555
H35 C23 1_555 1_555
H36 C23 1_555 1_555
H37 C23 1_555 1_555
C24 N3 1_555 1_555
C25 N2 1_555 1_555
H38 C25 1_555 1_555
C26 N1 1_555 1_555
H39 C26 1_555 1_555
C27 N2 1_555 1_555
C28 C27 1_555 1_555
H40 C28 1_555 1_555
H41 C28 1_555 1_555
H42 C28 1_555 1_555
C29 C27 1_555 1_555
H43 C29 1_555 1_555
H44 C29 1_555 1_555
H45 C29 1_555 1_555
C30 C27 1_555 1_555
H46 C30 1_555 1_555
H47 C30 1_555 1_555
H48 C30 1_555 1_555
C31 N1 1_555 1_555
C32 C31 1_555 1_555
H49 C32 1_555 1_555
H50 C32 1_555 1_555
H51 C32 1_555 1_555
C33 C31 1_555 1_555
H52 C33 1_555 1_555
H53 C33 1_555 1_555
H54 C33 1_555 1_555
C34 C31 1_555 1_555
H55 C34 1_555 1_555
H56 C34 1_555 1_555
H57 C34 1_555 1_555
C35 K2 1_555 1_555
C36 K2 1_555 1_555
H58 C36 1_555 1_555
C37 K2 1_555 1_555
H59 C37 1_555 1_555
C38 K2 1_555 1_555
H60 C38 1_555 1_555
C39 K2 1_555 1_555
H61 C39 1_555 1_555
C40 K2 1_555 1_555
H62 C40 1_555 1_555
C41 Si3 1_555 1_555
H63 C41 1_555 1_555
H64 C41 1_555 1_555
H65 C41 1_555 1_555
C42 Si3 1_555 1_555
H66 C42 1_555 1_555
H67 C42 1_555 1_555
H68 C42 1_555 1_555
C43 Si3 1_555 1_555
H69 C43 1_555 1_555
H70 C43 1_555 1_555
H71 C43 1_555 1_555
C44 Si4 1_555 1_555
H72 C44 1_555 1_555
H73 C44 1_555 1_555
H74 C44 1_555 1_555
C45 Si4 1_555 1_555
H75 C45 1_555 1_555
H76 C45 1_555 1_555
H77 C45 1_555 1_555
C46 Si4 1_555 1_555
H78 C46 1_555 1_555
H79 C46 1_555 1_555
H80 C46 1_555 1_555
Si5 N10 1_555 1_555
Si6 N10 1_555 1_555
N10 Ca3 1_555 1_555
C47 Si5 1_555 1_555
H81 C47 1_555 1_555
H82 C47 1_555 1_555
H83 C47 1_555 1_555
C48 Si5 1_555 1_555
H84 C48 1_555 1_555
H85 C48 1_555 1_555
H86 C48 1_555 1_555
C49 Si5 1_555 1_555
H87 C49 1_555 1_555
H88 C49 1_555 1_555
H89 C49 1_555 1_555
C50 Si6 1_555 1_555
H90 C50 1_555 1_555
H91 C50 1_555 1_555
H92 C50 1_555 1_555
C51 Si6 1_555 1_555
H93 C51 1_555 1_555
H94 C51 1_555 1_555
H95 C51 1_555 1_555
C52 Si6 1_555 1_555
H96 C52 1_555 1_555
H97 C52 1_555 1_555
H98 C52 1_555 1_555
C53 H99 1_555 1_555
C54 C53 1_555 1_555
H100 C54 1_555 1_555
C55 C54 1_555 1_555
H101 C55 1_555 1_555
C56 C55 1_555 1_555
H102 C56 1_555 1_555
C57 C56 1_555 1_555
H103 C57 1_555 1_555
C58 C53 1_555 1_555
C59 C58 1_555 1_555
H104 C59 1_555 1_555
H105 C59 1_555 1_555
H106 C59 1_555 1_555
Ca2A O2 1_555 1_555
Si1A O1A 1_555 1_555
Si2A O2A 1_555 1_555
Si3A N8A 1_555 1_555
Si4A N8A 1_555 1_555
K1A O2 1_555 1_555
K2A N3A 1_555 1_555
O1A Ca1 1_555 1_555
O2A Ca1 1_555 1_555
O3A Ca1 1_555 1_555
O4A Ca2A 1_555 1_555
O5A Si1A 1_555 1_555
N1A C24A 1_555 1_555
N2A C24A 1_555 1_555
N3A C12A 1_555 1_555
N4A C13A 1_555 1_555
N5A C13A 1_555 1_555
N6A Ca2A 1_555 1_555
N7A Ca2A 1_555 1_555
N8A K2A 1_555 1_555
N9A C1A 1_555 1_555
C1A K1 1_555 1_555
C2A K1 1_555 1_555
H1A C2A 1_555 1_555
C3A K1 1_555 1_555
H2A C3A 1_555 1_555
C4A K1 1_555 1_555
H3A C4A 1_555 1_555
C5A K1 1_555 1_555
H4A C5A 1_555 1_555
C6A K1 1_555 1_555
H5A C6A 1_555 1_555
C7A Si2A 1_555 1_555
H6A C7A 1_555 1_555
H7A C7A 1_555 1_555
H8A C7A 1_555 1_555
C8A Si2A 1_555 1_555
H9A C8A 1_555 1_555
H10A C8A 1_555 1_555
H11A C8A 1_555 1_555
C9A Si1A 1_555 1_555
H12A C9A 1_555 1_555
H13A C9A 1_555 1_555
H14A C9A 1_555 1_555
C10A Si1A 1_555 1_555
H15A C10A 1_555 1_555
H16A C10A 1_555 1_555
H17A C10A 1_555 1_555
C11A O3A 1_555 1_555
C12A O4A 1_555 1_555
C13A N6A 1_555 1_555
C14A N5A 1_555 1_555
H18A C14A 1_555 1_555
C15A N4A 1_555 1_555
H19A C15A 1_555 1_555
C16A N5A 1_555 1_555
C17A C16A 1_555 1_555
H20A C17A 1_555 1_555
H21A C17A 1_555 1_555
H22A C17A 1_555 1_555
C18A C16A 1_555 1_555
H23A C18A 1_555 1_555
H24A C18A 1_555 1_555
H25A C18A 1_555 1_555
C19A C16A 1_555 1_555
H26A C19A 1_555 1_555
H27A C19A 1_555 1_555
H28A C19A 1_555 1_555
C20A N4A 1_555 1_555
C21A C20A 1_555 1_555
H29A C21A 1_555 1_555
H30A C21A 1_555 1_555
H31A C21A 1_555 1_555
C22A C20A 1_555 1_555
H32A C22A 1_555 1_555
H33A C22A 1_555 1_555
H34A C22A 1_555 1_555
C23A C20A 1_555 1_555
H35A C23A 1_555 1_555
H36A C23A 1_555 1_555
H37A C23A 1_555 1_555
C24A N3A 1_555 1_555
C25A N2A 1_555 1_555
H38A C25A 1_555 1_555
C26A N1A 1_555 1_555
H39A C26A 1_555 1_555
C27A N2A 1_555 1_555
C28A C27A 1_555 1_555
H40A C28A 1_555 1_555
H41A C28A 1_555 1_555
H42A C28A 1_555 1_555
C29A C27A 1_555 1_555
H43A C29A 1_555 1_555
H44A C29A 1_555 1_555
H45A C29A 1_555 1_555
C30A C27A 1_555 1_555
H46A C30A 1_555 1_555
H47A C30A 1_555 1_555
H48A C30A 1_555 1_555
C31A N1A 1_555 1_555
C32A C31A 1_555 1_555
H49A C32A 1_555 1_555
H50A C32A 1_555 1_555
H51A C32A 1_555 1_555
C33A C31A 1_555 1_555
H52A C33A 1_555 1_555
H53A C33A 1_555 1_555
H54A C33A 1_555 1_555
C34A C31A 1_555 1_555
H55A C34A 1_555 1_555
H56A C34A 1_555 1_555
H57A C34A 1_555 1_555
C35A K2A 1_555 1_555
C36A K2A 1_555 1_555
H58A C36A 1_555 1_555
C37A K2A 1_555 1_555
H59A C37A 1_555 1_555
C38A K2A 1_555 1_555
H60A C38A 1_555 1_555
C39A K2A 1_555 1_555
H61A C39A 1_555 1_555
C40A K2A 1_555 1_555
H62A C40A 1_555 1_555
C41A Si3A 1_555 1_555
H63A C41A 1_555 1_555
H64A C41A 1_555 1_555
H65A C41A 1_555 1_555
C42A Si3A 1_555 1_555
H66A C42A 1_555 1_555
H67A C42A 1_555 1_555
H68A C42A 1_555 1_555
C43A Si3A 1_555 1_555
H69A C43A 1_555 1_555
H70A C43A 1_555 1_555
H71A C43A 1_555 1_555
C44A Si4A 1_555 1_555
H72A C44A 1_555 1_555
H73A C44A 1_555 1_555
H74A C44A 1_555 1_555
C45A Si4A 1_555 1_555
H75A C45A 1_555 1_555
H76A C45A 1_555 1_555
H77A C45A 1_555 1_555
C46A Si4A 1_555 1_555
H78A C46A 1_555 1_555
H79A C46A 1_555 1_555
H80A C46A 1_555 1_555
Si5A N10A 1_555 1_555
Si6A N10A 1_555 1_555
N10A Ca3A 1_555 1_555
C47A Si5A 1_555 1_555
H81A C47A 1_555 1_555
H82A C47A 1_555 1_555
H83A C47A 1_555 1_555
C48A Si5A 1_555 1_555
H84A C48A 1_555 1_555
H85A C48A 1_555 1_555
H86A C48A 1_555 1_555
C49A Si5A 1_555 1_555
H87A C49A 1_555 1_555
H88A C49A 1_555 1_555
H89A C49A 1_555 1_555
C50A Si6A 1_555 1_555
H90A C50A 1_555 1_555
H91A C50A 1_555 1_555
H92A C50A 1_555 1_555
C51A Si6A 1_555 1_555
H93A C51A 1_555 1_555
H94A C51A 1_555 1_555
H95A C51A 1_555 1_555
C52A Si6A 1_555 1_555
H96A C52A 1_555 1_555
H97A C52A 1_555 1_555
H98A C52A 1_555 1_555
Ca2 O3 1_555 1_555
Ca2 O2A 1_555 1_555
Si2 O5 1_555 1_555
K1 O4 1_555 1_555
K1 O2A 1_555 1_555
K1 O3A 1_555 1_555
O3 K1A 1_555 1_555
N6 C11 1_555 1_555
N7 C12 1_555 1_555
N7 C35 1_555 1_555
N9 C11 1_555 1_555
C1 K1A 1_555 1_555
C2 K1A 1_555 1_555
C3 K1A 1_555 1_555
C4 K1A 1_555 1_555
C5 C6 1_555 1_555
C5 K1A 1_555 1_555
C6 K1A 1_555 1_555
C14 C15 1_555 1_555
C25 C26 1_555 1_555
C35 C36 1_555 1_555
C35 C40 1_555 1_555
C36 C37 1_555 1_555
C37 C38 1_555 1_555
C38 C39 1_555 1_555
C39 C40 1_555 1_555
C57 C58 1_555 1_555
Ca2A O1A 1_555 1_555
Ca2A O3A 1_555 1_555
Si2A O5A 1_555 1_555
K1A O1A 1_555 1_555
K1A O4A 1_555 1_555
N6A C11A 1_555 1_555
N7A C12A 1_555 1_555
N7A C35A 1_555 1_555
N9A C11A 1_555 1_555
C1A C2A 1_555 1_555
C1A C6A 1_555 1_555
C2A C3A 1_555 1_555
C3A C4A 1_555 1_555
C4A C5A 1_555 1_555
C5A C6A 1_555 1_555
C14A C15A 1_555 1_555
C25A C26A 1_555 1_555
C35A C36A 1_555 1_555
C35A C40A 1_555 1_555
C36A C37A 1_555 1_555
C37A C38A 1_555 1_555
C38A C39A 1_555 1_555
C39A C40A 1_555 1_555

#END
