
#######################################################################
#
#                 Cambridge Crystallographic Data Centre
#                                CCDC 
#
#######################################################################
#
# If this CIF has been generated from an entry in the Cambridge 
# Structural Database, then it will include bibliographic, chemical, 
# crystal, experimental, refinement or atomic coordinate data resulting 
# from the CCDC's data processing and validation procedures.
#
#######################################################################

data_FOYDII
_symmetry_cell_setting           monoclinic
_symmetry_space_group_name_H-M   'P 21/c'
_symmetry_Int_Tables_number      14
_space_group_name_Hall           '-P 2ybc'
loop_
_symmetry_equiv_pos_site_id
_symmetry_equiv_pos_as_xyz
1 x,y,z
2 -x,1/2+y,1/2-z
3 -x,-y,-z
4 x,1/2-y,1/2+z
_cell_length_a                   14.2195(14)
_cell_length_b                   11.2318(8)
_cell_length_c                   14.6122(14)
_cell_angle_alpha                90
_cell_angle_beta                 100.353(10)
_cell_angle_gamma                90
_cell_volume                     2295.73
loop_
_atom_site_label
_atom_site_type_symbol
_atom_site_fract_x
_atom_site_fract_y
_atom_site_fract_z
Zn1 Zn 0.41450(2) 0.24166(3) 0.21443(2)
C1 C 0.2500(2) 0.7717(3) 0.1483(2)
H1 H 0.2722 0.8476 0.1662
O1 O 0.32490(15) 0.37832(18) 0.21540(15)
N1 N 0.31571(17) -0.4672(2) -0.13286(18)
N2 N 0.35063(18) 0.0032(2) -0.00459(18)
O2 O 0.39803(15) 0.43787(19) 0.10128(16)
N3 N 0.37641(17) 0.1544(2) 0.09181(17)
C2 C 0.3402(2) 0.4522(3) 0.1540(2)
C3 C 0.2776(2) 0.5615(3) 0.1418(2)
C4 C 0.3108(2) 0.6760(3) 0.1685(2)
C5 C 0.4089(2) -0.3119(3) -0.0419(2)
H2 H 0.4589 -0.3654 -0.0249
C6 C 0.3868(2) 0.0392(3) 0.0833(2)
H3 H 0.4150 -0.0110 0.1311
C7 C 0.3427(2) -0.1171(3) -0.0368(2)
C8 C 0.3240(2) -0.3487(3) -0.0971(2)
C9 C 0.4181(2) -0.1943(3) -0.0126(2)
H4 H 0.4750 -0.1678 0.0234
C10 C 0.3850(2) -0.5291(3) -0.1638(2)
H5 H 0.4477 -0.5030 -0.1596
C11 C 0.3170(3) 0.1031(3) -0.0549(2)
H6 H 0.2893 0.1067 -0.1175
C12 C 0.2485(2) -0.2716(3) -0.1209(2)
H7 H 0.1919 -0.2974 -0.1578
C13 C 0.2575(2) -0.1552(3) -0.0895(2)
H8 H 0.2063 -0.1028 -0.1037
C14 C 0.2337(2) -0.5358(3) -0.1520(3)
H9 H 0.1738 -0.5168 -0.1389
C15 C 0.2577(2) -0.6353(3) -0.1932(2)
H10 H 0.2163 -0.6977 -0.2136
C16 C 0.3324(2) 0.1940(3) 0.0053(2)
H11 H 0.3159 0.2728 -0.0092
C17 C 0.0813(3) 0.2554(4) 0.0892(5)
H12 H 0.0972 0.2286 0.0337
C18 C 0.1238(2) 0.6461(3) 0.0765(3)
H13 H 0.0612 0.6354 0.0458
C19 C 0.1572(3) 0.7581(3) 0.1025(3)
H14 H 0.1176 0.8240 0.0893
C20 C 0.1074(2) 0.3686(3) 0.1209(3)
C21 C 0.0138(4) 0.2251(6) 0.2198(6)
H15 H -0.0196 0.1765 0.2543
C22 C 0.0870(3) 0.4049(4) 0.2040(4)
H16 H 0.1054 0.4804 0.2267
N4 N 0.0321(3) 0.1822(4) 0.1393(5)
C23 C 0.0399(3) 0.3317(4) 0.2537(4)
H17 H 0.0261 0.3558 0.3107
O3 O 0.15154(17) 0.4368(2) 0.06366(18)
C24 C 0.1839(2) 0.5501(3) 0.0962(2)
O4 O 0.45292(15) 0.60210(19) 0.26024(16)
N5 N 0.35232(17) -0.6312(2) -0.20063(17)
C25 C 0.4111(2) 0.6896(3) 0.2206(2)
O5 O 0.45171(16) 0.79129(19) 0.22169(16)
Zn1A Zn 0.58550(2) 0.74166(3) 0.28557(2)
Zn1C Zn 0.41450(2) -0.74166(3) -0.28557(2)
O4A O 0.54708(15) 0.10210(19) 0.23976(16)
N5C N 0.35232(17) 0.1312(2) 0.29937(17)
O5A O 0.54829(16) 0.29129(19) 0.27831(16)
O6 O 0.0441(11) 0.0320(11) -0.0670(12)
H18 H 0.0930 0.0181 -0.0257
H19 H 0.0320 -0.0285 -0.1021
loop_
_geom_bond_atom_site_label_1
_geom_bond_atom_site_label_2
_geom_bond_site_symmetry_1
_geom_bond_site_symmetry_2
Zn1 O1 1_555 1_555
C1 H1 1_555 1_555
O1 C2 1_555 1_555
N1 C8 1_555 1_555
N2 C6 1_555 1_555
O2 C2 1_555 1_555
N3 Zn1 1_555 1_555
C2 C3 1_555 1_555
C3 C4 1_555 1_555
C4 C1 1_555 1_555
C5 H2 1_555 1_555
C6 N3 1_555 1_555
H3 C6 1_555 1_555
C7 N2 1_555 1_555
C8 C5 1_555 1_555
C9 C5 1_555 1_555
H4 C9 1_555 1_555
C10 N1 1_555 1_555
H5 C10 1_555 1_555
C11 N2 1_555 1_555
H6 C11 1_555 1_555
C12 C8 1_555 1_555
H7 C12 1_555 1_555
C13 C7 1_555 1_555
H8 C13 1_555 1_555
C14 N1 1_555 1_555
H9 C14 1_555 1_555
C15 C14 1_555 1_555
H10 C15 1_555 1_555
C16 N3 1_555 1_555
H11 C16 1_555 1_555
C17 H12 1_555 1_555
C18 H13 1_555 1_555
C19 C1 1_555 1_555
H14 C19 1_555 1_555
C20 C17 1_555 1_555
C21 H15 1_555 1_555
C22 C20 1_555 1_555
H16 C22 1_555 1_555
N4 C17 1_555 1_555
C23 C21 1_555 1_555
H17 C23 1_555 1_555
O3 C20 1_555 1_555
C24 C3 1_555 1_555
O4 C25 1_555 1_555
N5 C10 1_555 1_555
C25 C4 1_555 1_555
O5 C25 1_555 1_555
O6 H18 1_555 1_555
H19 O6 1_555 1_555
Zn1A O4 1_555 1_555
Zn1C N5 1_555 1_555
O4A Zn1 1_555 1_555
N5C Zn1 1_555 1_555
O5A Zn1 1_555 1_555
C7 C9 1_555 1_555
C11 C16 1_555 1_555
C12 C13 1_555 1_555
C15 N5 1_555 1_555
C18 C19 1_555 1_555
C18 C24 1_555 1_555
C21 N4 1_555 1_555
C22 C23 1_555 1_555
O3 C24 1_555 1_555
O5 Zn1A 1_555 1_555

#END
