
#######################################################################
#
#                 Cambridge Crystallographic Data Centre
#                                CCDC 
#
#######################################################################
#
# If this CIF has been generated from an entry in the Cambridge 
# Structural Database, then it will include bibliographic, chemical, 
# crystal, experimental, refinement or atomic coordinate data resulting 
# from the CCDC's data processing and validation procedures.
#
#######################################################################

data_FOYDUU
_symmetry_cell_setting           monoclinic
_symmetry_space_group_name_H-M   'P 21/c'
_symmetry_Int_Tables_number      14
_space_group_name_Hall           '-P 2ybc'
loop_
_symmetry_equiv_pos_site_id
_symmetry_equiv_pos_as_xyz
1 x,y,z
2 -x,1/2+y,1/2-z
3 -x,-y,-z
4 x,1/2-y,1/2+z
_cell_length_a                   7.8766(2)
_cell_length_b                   19.4550(5)
_cell_length_c                   13.3737(4)
_cell_angle_alpha                90
_cell_angle_beta                 90.361(2)
_cell_angle_gamma                90
_cell_volume                     2049.34
loop_
_atom_site_label
_atom_site_type_symbol
_atom_site_fract_x
_atom_site_fract_y
_atom_site_fract_z
Co1 Co 0.41759(7) 0.20795(3) 0.08449(4)
C1 C 0.2211(5) 0.1942(2) 0.2503(3)
C2 C 0.0984(4) 0.1578(2) 0.3176(3)
C3 C -0.0019(5) 0.1056(2) 0.2797(4)
H1 H 0.0036 0.0946 0.2121
C4 C -0.1107(7) 0.0695(3) 0.3414(4)
H2 H -0.1812 0.0358 0.3147
C5 C -0.1147(6) 0.0835(3) 0.4419(4)
H3 H -0.1841 0.0581 0.4841
C6 C -0.0151(5) 0.1352(2) 0.4790(3)
C7 C 0.0887(4) 0.1743(2) 0.4187(3)
C8 C 0.1881(5) 0.2315(2) 0.4684(3)
C9 C -0.1215(5) 0.1796(2) 0.6357(3)
C10 C -0.0997(5) 0.1812(2) 0.7386(3)
H4 H -0.0100 0.1579 0.7689
C11 C -0.2127(5) 0.2178(3) 0.7948(3)
H5 H -0.1996 0.2203 0.8638
C12 C -0.3445(5) 0.2505(2) 0.7488(3)
H6 H -0.4207 0.2748 0.7881
C13 C -0.2580(5) 0.2134(2) 0.5936(3)
H7 H -0.2736 0.2115 0.5247
C14 C 0.6321(8) 0.0881(3) 0.0068(4)
H8 H 0.6930 0.0826 0.0660
C15 C 0.6528(8) 0.0504(3) -0.0757(4)
H9 H 0.7304 0.0149 -0.0842
C16 C 0.4559(5) 0.1252(2) -0.1009(3)
H10 H 0.3705 0.1506 -0.1318
C17 C 0.5221(5) 0.0517(2) -0.2467(3)
C18 C 0.4358(6) 0.0906(2) -0.3149(3)
H11 H 0.3829 0.1311 -0.2951
C19 C 0.4270(5) 0.0698(2) -0.4132(3)
H12 H 0.3673 0.0968 -0.4588
C20 C 0.5034(5) 0.01050(19) -0.4468(3)
C21 C 0.5861(7) -0.0282(3) -0.3752(3)
H13 H 0.6370 -0.0692 -0.3943
C22 C 0.5961(7) -0.0085(3) -0.2770(4)
H14 H 0.6531 -0.0359 -0.2308
N1 N -0.3700(4) 0.24928(18) 0.6491(2)
N2 N 0.5082(5) 0.13587(18) -0.0088(3)
N3 N 0.5386(4) 0.07380(17) -0.1452(3)
O1 O 0.2851(4) 0.15687(15) 0.1811(2)
O2 O 0.2560(3) 0.25515(16) 0.2626(2)
O3 O 0.3378(4) 0.21842(15) 0.4937(2)
O4 O 0.1148(5) 0.28710(17) 0.4843(3)
O5 O -0.0016(4) 0.14418(18) 0.5832(2)
C14B C 0.3679(8) -0.0881(3) -1.0068(4)
H8B H 0.3070 -0.0826 -1.0660
C15B C 0.3472(8) -0.0504(3) -0.9243(4)
H9B H 0.2696 -0.0149 -0.9158
C16B C 0.5441(5) -0.1252(2) -0.8991(3)
H10B H 0.6295 -0.1506 -0.8682
C17B C 0.4779(5) -0.0517(2) -0.7533(3)
C18B C 0.5642(6) -0.0906(2) -0.6851(3)
H11B H 0.6171 -0.1311 -0.7049
C19B C 0.5730(5) -0.0698(2) -0.5868(3)
H12B H 0.6327 -0.0968 -0.5412
C20B C 0.4966(5) -0.01050(19) -0.5532(3)
C21B C 0.4139(7) 0.0282(3) -0.6248(3)
H13B H 0.3630 0.0692 -0.6057
C22B C 0.4039(7) 0.0085(3) -0.7230(4)
H14B H 0.3469 0.0359 -0.7692
N2B N 0.4918(5) -0.13587(18) -0.9912(3)
N3B N 0.4614(4) -0.07380(17) -0.8548(3)
Co1B Co 0.58241(7) -0.20795(3) -1.08449(4)
C1B C 0.7789(5) -0.1942(2) -1.2503(3)
C2B C 0.9016(4) -0.1578(2) -1.3176(3)
C3B C 1.0019(5) -0.1056(2) -1.2797(4)
H1B H 0.9964 -0.0946 -1.2121
C4B C 1.1107(7) -0.0695(3) -1.3414(4)
H2B H 1.1812 -0.0358 -1.3147
C5B C 1.1147(6) -0.0835(3) -1.4419(4)
H3B H 1.1841 -0.0581 -1.4841
C6B C 1.0151(5) -0.1352(2) -1.4790(3)
C7B C 0.9113(4) -0.1743(2) -1.4187(3)
C8B C 0.8119(5) -0.2315(2) -1.4684(3)
C9B C 1.1215(5) -0.1796(2) -1.6357(3)
C10B C 1.0997(5) -0.1812(2) -1.7386(3)
H4B H 1.0100 -0.1579 -1.7689
C11B C 1.2127(5) -0.2178(3) -1.7948(3)
H5B H 1.1996 -0.2203 -1.8638
C12B C 1.3445(5) -0.2505(2) -1.7488(3)
H6B H 1.4207 -0.2748 -1.7881
C13B C 1.2580(5) -0.2134(2) -1.5936(3)
H7B H 1.2736 -0.2115 -1.5247
N1B N 1.3700(4) -0.24928(18) -1.6491(2)
O1B O 0.7149(4) -0.15687(15) -1.1811(2)
O2B O 0.7440(3) -0.25515(16) -1.2626(2)
O3B O 0.6622(4) -0.21842(15) -1.4937(2)
O4B O 0.8852(5) -0.28710(17) -1.4843(3)
O5B O 1.0016(4) -0.14418(18) -1.5832(2)
Co1A Co 0.58241(7) -0.29205(3) -1.58449(4)
Co1A_2 Co 1.58241(7) -0.29205(3) -1.58449(4)
Co1C Co -0.58241(7) 0.29205(3) 0.58449(4)
Co1C_2 Co 0.41759(7) 0.29205(3) 0.58449(4)
N1A N 0.3700(4) -0.25072(18) -1.1491(2)
N1C N 0.6300(4) 0.25072(18) 0.1491(2)
O3A O 0.6622(4) -0.28158(15) -0.9937(2)
O3C O 0.3378(4) 0.28158(15) -0.0063(2)
O6 O 0.0744(9) 0.4337(3) 0.4926(10)
H15 H 0.0661 0.3902 0.4972
H16 H 0.0148 0.4525 0.5377
loop_
_geom_bond_atom_site_label_1
_geom_bond_atom_site_label_2
_geom_bond_site_symmetry_1
_geom_bond_site_symmetry_2
Co1 N2 1_555 1_555
C1 C2 1_555 1_555
C2 C3 1_555 1_555
C3 H1 1_555 1_555
C4 C3 1_555 1_555
H2 C4 1_555 1_555
C5 C4 1_555 1_555
H3 C5 1_555 1_555
C6 C5 1_555 1_555
C7 C2 1_555 1_555
C8 C7 1_555 1_555
C9 C10 1_555 1_555
C10 H4 1_555 1_555
C11 C10 1_555 1_555
H5 C11 1_555 1_555
C12 C11 1_555 1_555
H6 C12 1_555 1_555
C13 C9 1_555 1_555
H7 C13 1_555 1_555
C14 H8 1_555 1_555
C15 C14 1_555 1_555
H9 C15 1_555 1_555
C16 H10 1_555 1_555
C17 C18 1_555 1_555
C18 H11 1_555 1_555
C19 C18 1_555 1_555
H12 C19 1_555 1_555
C20 C19 1_555 1_555
C21 C20 1_555 1_555
H13 C21 1_555 1_555
C22 C17 1_555 1_555
H14 C22 1_555 1_555
N1 C12 1_555 1_555
N2 C14 1_555 1_555
N3 C15 1_555 1_555
O1 Co1 1_555 1_555
O2 C1 1_555 1_555
O3 C8 1_555 1_555
O4 C8 1_555 1_555
O5 C6 1_555 1_555
O6 H15 1_555 1_555
H16 O6 1_555 1_555
C14B H8B 1_555 1_555
C15B C14B 1_555 1_555
H9B C15B 1_555 1_555
C16B H10B 1_555 1_555
C17B C18B 1_555 1_555
C18B H11B 1_555 1_555
C19B C18B 1_555 1_555
H12B C19B 1_555 1_555
C20B C20 1_555 1_555
C21B C20B 1_555 1_555
H13B C21B 1_555 1_555
C22B C17B 1_555 1_555
H14B C22B 1_555 1_555
N2B C14B 1_555 1_555
N3B C15B 1_555 1_555
Co1B N2B 1_555 1_555
C1B C2B 1_555 1_555
C2B C3B 1_555 1_555
C3B H1B 1_555 1_555
C4B C3B 1_555 1_555
H2B C4B 1_555 1_555
C5B C4B 1_555 1_555
H3B C5B 1_555 1_555
C6B C5B 1_555 1_555
C7B C2B 1_555 1_555
C8B C7B 1_555 1_555
C9B C10B 1_555 1_555
C10B H4B 1_555 1_555
C11B C10B 1_555 1_555
H5B C11B 1_555 1_555
C12B C11B 1_555 1_555
H6B C12B 1_555 1_555
C13B C9B 1_555 1_555
H7B C13B 1_555 1_555
N1B C12B 1_555 1_555
O1B Co1B 1_555 1_555
O2B C1B 1_555 1_555
O3B C8B 1_555 1_555
O4B C8B 1_555 1_555
O5B C6B 1_555 1_555
Co1A O3B 1_555 1_555
Co1A_2 N1B 1_555 1_555
Co1C N1 1_555 1_555
Co1C_2 O3 1_555 1_555
N1A Co1B 1_555 1_555
N1C Co1 1_555 1_555
O3A Co1B 1_555 1_555
O3C Co1 1_555 1_555
C1 O1 1_555 1_555
C6 C7 1_555 1_555
C9 O5 1_555 1_555
C13 N1 1_555 1_555
C16 N2 1_555 1_555
C16 N3 1_555 1_555
C17 N3 1_555 1_555
C21 C22 1_555 1_555
C16B N2B 1_555 1_555
C16B N3B 1_555 1_555
C17B N3B 1_555 1_555
C19B C20B 1_555 1_555
C21B C22B 1_555 1_555
C1B O1B 1_555 1_555
C6B C7B 1_555 1_555
C9B O5B 1_555 1_555
C13B N1B 1_555 1_555

#END
