
#######################################################################
#
#                 Cambridge Crystallographic Data Centre
#                                CCDC 
#
#######################################################################
#
# If this CIF has been generated from an entry in the Cambridge 
# Structural Database, then it will include bibliographic, chemical, 
# crystal, experimental, refinement or atomic coordinate data resulting 
# from the CCDC's data processing and validation procedures.
#
#######################################################################

data_FOYDOO
_symmetry_cell_setting           monoclinic
_symmetry_space_group_name_H-M   'P 21/c'
_symmetry_Int_Tables_number      14
_space_group_name_Hall           '-P 2ybc'
loop_
_symmetry_equiv_pos_site_id
_symmetry_equiv_pos_as_xyz
1 x,y,z
2 -x,1/2+y,1/2-z
3 -x,-y,-z
4 x,1/2-y,1/2+z
_cell_length_a                   13.9673(5)
_cell_length_b                   11.3875(2)
_cell_length_c                   14.9718(4)
_cell_angle_alpha                90
_cell_angle_beta                 98.332(3)
_cell_angle_gamma                90
_cell_volume                     2356.17
loop_
_atom_site_label
_atom_site_type_symbol
_atom_site_fract_x
_atom_site_fract_y
_atom_site_fract_z
O1 O 0.44014(19) 0.6187(2) 0.25432(17)
O2 O 0.4261(2) 0.8038(2) 0.21161(17)
C1 C 0.3931(3) 0.7006(3) 0.2120(2)
N1 N 0.3505(2) -0.6312(3) -0.1951(2)
C2 C 0.2541(3) -0.6315(4) -0.1871(3)
H1 H 0.2115 -0.6925 -0.2053
C3 C 0.2300(3) -0.5313(4) -0.1493(3)
H2 H 0.1689 -0.5102 -0.1371
C4 C 0.3835(3) -0.5293(3) -0.1611(2)
H3 H 0.4474 -0.5047 -0.1578
N2 N 0.3129(2) -0.4660(3) -0.1319(2)
C5 C 0.3220(3) -0.3479(3) -0.0987(2)
C6 C 0.4041(3) -0.3149(3) -0.0415(2)
H4 H 0.4525 -0.3694 -0.0227
C7 C 0.2503(3) -0.2687(3) -0.1261(3)
H5 H 0.1957 -0.2918 -0.1653
Cd1 Cd 0.42442(2) 0.24966(2) 0.212249(16)
C8 C 0.2325(3) 0.7666(3) 0.1335(3)
H6 H 0.2509 0.8436 0.1475
C9 C 0.3307(3) 0.4535(3) 0.1644(2)
C10 C 0.1776(3) 0.5400(3) 0.0914(3)
C11 C 0.2954(3) 0.6752(3) 0.1607(2)
C12 C 0.2682(3) 0.5591(3) 0.1397(2)
C13 C 0.3416(3) -0.1196(3) -0.0396(2)
O3 O 0.1517(2) 0.4249(3) 0.0655(2)
N3 N 0.3493(2) -0.0009(3) -0.00767(19)
C14 C 0.3822(3) 0.0333(3) 0.0771(2)
H7 H 0.4073 -0.0171 0.1235
C15 C 0.3185(3) 0.0985(3) -0.0552(3)
H8 H 0.2923 0.1026 -0.1159
N4 N 0.3742(2) 0.1478(3) 0.08573(19)
C16 C 0.3332(3) 0.1879(3) 0.0026(3)
H9 H 0.3179 0.2659 -0.0114
C17 C 0.4136(3) -0.1985(3) -0.0123(2)
H10 H 0.4688 -0.1747 0.0256
C18 C 0.1146(3) 0.6289(4) 0.0637(3)
H11 H 0.0543 0.6128 0.0310
C19 C 0.1424(3) 0.7432(4) 0.0853(3)
H12 H 0.1001 0.8048 0.0674
C20 C 0.2591(3) -0.1537(3) -0.0953(3)
H13 H 0.2096 -0.1000 -0.1123
C21 C 0.0806(5) 0.2447(5) 0.0950(5)
H14 H 0.0997 0.2153 0.0424
C22 C 0.1037(3) 0.3592(4) 0.1230(4)
C23 C 0.0796(4) 0.3992(5) 0.2028(4)
H15 H 0.0970 0.4747 0.2225
C24 C 0.0296(5) 0.1769(5) 0.1459(5)
H16 H 0.0107 0.1016 0.1268
N5 N 0.0295(4) 0.3277(6) 0.2543(4)
C25 C 0.0075(5) 0.2161(6) 0.2198(6)
H17 H -0.0261 0.1661 0.2533
O4 O 0.3958(2) 0.4275(2) 0.11859(17)
O5 O 0.3107(2) 0.3911(2) 0.22861(17)
O1A O 0.55986(19) 0.1187(2) 0.24568(17)
O2A O 0.5739(2) 0.3038(2) 0.28839(17)
N1C N 0.3505(2) 0.1312(3) 0.3049(2)
Cd1A Cd 0.57558(2) 0.74966(2) 0.287751(16)
Cd1C Cd 0.42442(2) -0.74966(2) -0.287751(16)
O6 O 0.0464(10) 0.0361(14) -0.0701(13)
H18 H 0.1037 0.0322 -0.0418
H19 H 0.0451 0.0833 -0.1142
loop_
_geom_bond_atom_site_label_1
_geom_bond_atom_site_label_2
_geom_bond_site_symmetry_1
_geom_bond_site_symmetry_2
O1 C1 1_555 1_555
O2 C1 1_555 1_555
C1 C11 1_555 1_555
N1 C2 1_555 1_555
C2 H1 1_555 1_555
C3 C2 1_555 1_555
H2 C3 1_555 1_555
C4 N1 1_555 1_555
H3 C4 1_555 1_555
N2 C3 1_555 1_555
C5 N2 1_555 1_555
C6 C5 1_555 1_555
H4 C6 1_555 1_555
C7 C5 1_555 1_555
H5 C7 1_555 1_555
Cd1 N4 1_555 1_555
C8 H6 1_555 1_555
C9 C12 1_555 1_555
C10 C12 1_555 1_555
C11 C8 1_555 1_555
C12 C11 1_555 1_555
C13 N3 1_555 1_555
O3 C10 1_555 1_555
N3 C14 1_555 1_555
C14 H7 1_555 1_555
C15 N3 1_555 1_555
H8 C15 1_555 1_555
N4 C14 1_555 1_555
C16 C15 1_555 1_555
H9 C16 1_555 1_555
C17 C6 1_555 1_555
H10 C17 1_555 1_555
C18 C10 1_555 1_555
H11 C18 1_555 1_555
C19 C8 1_555 1_555
H12 C19 1_555 1_555
C20 C7 1_555 1_555
H13 C20 1_555 1_555
C21 H14 1_555 1_555
C22 O3 1_555 1_555
C23 C22 1_555 1_555
H15 C23 1_555 1_555
C24 C21 1_555 1_555
H16 C24 1_555 1_555
N5 C23 1_555 1_555
C25 C24 1_555 1_555
H17 C25 1_555 1_555
O4 Cd1 1_555 1_555
O5 Cd1 1_555 1_555
O6 H18 1_555 1_555
H19 O6 1_555 1_555
O1A Cd1 1_555 1_555
O2A Cd1 1_555 1_555
N1C Cd1 1_555 1_555
Cd1A O1 1_555 1_555
Cd1C N1 1_555 1_555
O2 Cd1A 1_555 1_555
C4 N2 1_555 1_555
C9 O4 1_555 1_555
C9 O5 1_555 1_555
C13 C17 1_555 1_555
C13 C20 1_555 1_555
N4 C16 1_555 1_555
C18 C19 1_555 1_555
C21 C22 1_555 1_555
N5 C25 1_555 1_555

#END
