
#######################################################################
#
#                 Cambridge Crystallographic Data Centre
#                                CCDC 
#
#######################################################################
#
# If this CIF has been generated from an entry in the Cambridge 
# Structural Database, then it will include bibliographic, chemical, 
# crystal, experimental, refinement or atomic coordinate data resulting 
# from the CCDC's data processing and validation procedures.
#
#######################################################################

data_FOYFAC
_symmetry_cell_setting           monoclinic
_symmetry_space_group_name_H-M   'P 21/c'
_symmetry_Int_Tables_number      14
_space_group_name_Hall           '-P 2ybc'
loop_
_symmetry_equiv_pos_site_id
_symmetry_equiv_pos_as_xyz
1 x,y,z
2 -x,1/2+y,1/2-z
3 -x,-y,-z
4 x,1/2-y,1/2+z
_cell_length_a                   7.6214(11)
_cell_length_b                   17.281(2)
_cell_length_c                   12.3199(16)
_cell_angle_alpha                90
_cell_angle_beta                 96.176(7)
_cell_angle_gamma                90
_cell_volume                     1613.18
loop_
_atom_site_label
_atom_site_type_symbol
_atom_site_fract_x
_atom_site_fract_y
_atom_site_fract_z
Cd1 Cd 0.41752(8) 0.30724(3) 0.61475(4)
C1 C 0.2589(10) 0.1243(5) 0.9356(6)
C2 C 0.1541(9) 0.0876(4) 0.8392(6)
C3 C 0.0754(11) 0.0160(5) 0.8509(8)
H1 H 0.0924 -0.0091 0.9180
C4 C -0.0269(13) -0.0185(6) 0.7661(8)
H2 H -0.0787 -0.0664 0.7762
C5 C -0.0526(11) 0.0170(6) 0.6671(8)
H3 H -0.1223 -0.0061 0.6094
C6 C 0.0259(10) 0.0878(5) 0.6533(6)
C7 C 0.1327(9) 0.1246(4) 0.7363(6)
C8 C 0.2268(10) 0.1976(4) 0.7079(6)
C9 C -0.0947(11) 0.1809(6) 0.5172(7)
C10 C -0.0696(11) 0.2155(7) 0.4206(7)
H4 H 0.0144 0.1969 0.3778
C11 C -0.1697(15) 0.2776(8) 0.3889(8)
H5 H -0.1543 0.3020 0.3232
C12 C -0.2974(12) 0.3063(6) 0.4536(8)
H6 H -0.3616 0.3506 0.4328
C13 C -0.2256(10) 0.2081(5) 0.5779(6)
H7 H -0.2440 0.1834 0.6427
C14 C 0.5155(11) 0.4574(4) 0.7603(6)
H8 H 0.5360 0.4784 0.6934
C15 C 0.5311(11) 0.5046(5) 0.8486(6)
H9 H 0.5652 0.5559 0.8420
C16 C 0.4953(8) 0.4753(4) 0.9499(5)
C17 C 0.4473(9) 0.3982(4) 0.9523(5)
H10 H 0.4218 0.3759 1.0175
C18 C 0.4370(10) 0.3543(4) 0.8588(5)
H11 H 0.4039 0.3026 0.8623
N1 N -0.3246(9) 0.2687(4) 0.5453(5)
N2 N 0.4731(8) 0.3832(3) 0.7631(5)
O1 O 0.3167(11) 0.0824(4) 1.0137(5)
O2 O 0.2806(7) 0.1957(3) 0.9362(4)
O3 O 0.3899(7) 0.1888(3) 0.6948(4)
O4 O 0.1478(7) 0.2592(3) 0.6919(4)
O5 O 0.0152(7) 0.1194(4) 0.5473(4)
C14B C 0.4845(11) 0.5426(4) 1.2397(6)
H8B H 0.4640 0.5216 1.3066
C15B C 0.4689(11) 0.4954(5) 1.1514(6)
H9B H 0.4348 0.4441 1.1580
C16B C 0.5047(8) 0.5247(4) 1.0501(5)
C17B C 0.5527(9) 0.6018(4) 1.0477(5)
H10B H 0.5782 0.6241 0.9825
C18B C 0.5630(10) 0.6457(4) 1.1412(5)
H11B H 0.5961 0.6974 1.1377
N2B N 0.5269(8) 0.6168(3) 1.2369(5)
Cd1B Cd 0.58248(8) 0.69276(3) 1.38525(4)
C1B C 0.7411(10) 0.8757(5) 1.0644(6)
C2B C 0.8459(9) 0.9124(4) 1.1608(6)
C3B C 0.9246(11) 0.9840(5) 1.1491(8)
H1B H 0.9076 1.0091 1.0820
C4B C 1.0269(13) 1.0185(6) 1.2339(8)
H2B H 1.0787 1.0664 1.2238
C5B C 1.0526(11) 0.9830(6) 1.3329(8)
H3B H 1.1223 1.0061 1.3906
C6B C 0.9741(10) 0.9122(5) 1.3467(6)
C7B C 0.8673(9) 0.8754(4) 1.2637(6)
C8B C 0.7732(10) 0.8024(4) 1.2921(6)
C9B C 1.0947(11) 0.8191(6) 1.4828(7)
C10B C 1.0696(11) 0.7845(7) 1.5794(7)
H4B H 0.9856 0.8031 1.6222
C11B C 1.1697(15) 0.7224(8) 1.6111(8)
H5B H 1.1543 0.6980 1.6768
C12B C 1.2974(12) 0.6937(6) 1.5464(8)
H6B H 1.3616 0.6494 1.5672
C13B C 1.2256(10) 0.7919(5) 1.4221(6)
H7B H 1.2440 0.8166 1.3573
N1B N 1.3246(9) 0.7313(4) 1.4547(5)
O1B O 0.6833(11) 0.9176(4) 0.9863(5)
O2B O 0.7194(7) 0.8043(3) 1.0638(4)
O3B O 0.6101(7) 0.8112(3) 1.3052(4)
O4B O 0.8522(7) 0.7408(3) 1.3081(4)
O5B O 0.9848(7) 0.8806(4) 1.4527(4)
Cd1_2 Cd -0.58248(8) 0.30724(3) 0.61475(4)
Cd1A Cd 0.58248(8) 0.80724(3) 0.88525(4)
Cd1B_2 Cd 1.58248(8) 0.69276(3) 1.38525(4)
Cd1C Cd 0.41752(8) 0.19276(3) 1.11475(4)
N1_2 N 0.6754(9) 0.2687(4) 0.5453(5)
N1B_2 N 0.3246(9) 0.7313(4) 1.4547(5)
O1A O 0.6833(11) 0.5824(4) 1.4863(5)
O1C O 0.3167(11) 0.4176(4) 0.5137(5)
O2A O 0.7194(7) 0.6957(3) 1.5638(4)
O2C O 0.2806(7) 0.3043(3) 0.4362(4)
loop_
_geom_bond_atom_site_label_1
_geom_bond_atom_site_label_2
_geom_bond_site_symmetry_1
_geom_bond_site_symmetry_2
Cd1 N2 1_555 1_555
C1 C2 1_555 1_555
C2 C3 1_555 1_555
C3 H1 1_555 1_555
C4 C3 1_555 1_555
H2 C4 1_555 1_555
C5 C4 1_555 1_555
H3 C5 1_555 1_555
C6 C5 1_555 1_555
C7 C2 1_555 1_555
C8 C7 1_555 1_555
C9 C10 1_555 1_555
C10 H4 1_555 1_555
C11 C10 1_555 1_555
H5 C11 1_555 1_555
C12 C11 1_555 1_555
H6 C12 1_555 1_555
C13 C9 1_555 1_555
H7 C13 1_555 1_555
C14 H8 1_555 1_555
C15 C14 1_555 1_555
H9 C15 1_555 1_555
C16 C15 1_555 1_555
C17 C16 1_555 1_555
H10 C17 1_555 1_555
C18 C17 1_555 1_555
H11 C18 1_555 1_555
N1 C12 1_555 1_555
N2 C14 1_555 1_555
O1 C1 1_555 1_555
O2 C1 1_555 1_555
O3 Cd1 1_555 1_555
O4 Cd1 1_555 1_555
O5 C6 1_555 1_555
C14B H8B 1_555 1_555
C15B C14B 1_555 1_555
H9B C15B 1_555 1_555
C16B C16 1_555 1_555
C17B C16B 1_555 1_555
H10B C17B 1_555 1_555
C18B C17B 1_555 1_555
H11B C18B 1_555 1_555
N2B C14B 1_555 1_555
Cd1B N2B 1_555 1_555
C1B C2B 1_555 1_555
C2B C3B 1_555 1_555
C3B H1B 1_555 1_555
C4B C3B 1_555 1_555
H2B C4B 1_555 1_555
C5B C4B 1_555 1_555
H3B C5B 1_555 1_555
C6B C5B 1_555 1_555
C7B C2B 1_555 1_555
C8B C7B 1_555 1_555
C9B C10B 1_555 1_555
C10B H4B 1_555 1_555
C11B C10B 1_555 1_555
H5B C11B 1_555 1_555
C12B C11B 1_555 1_555
H6B C12B 1_555 1_555
C13B C9B 1_555 1_555
H7B C13B 1_555 1_555
N1B C12B 1_555 1_555
O1B C1B 1_555 1_555
O2B C1B 1_555 1_555
O3B Cd1B 1_555 1_555
O4B Cd1B 1_555 1_555
O5B C6B 1_555 1_555
Cd1_2 N1 1_555 1_555
Cd1A O1B 1_555 1_555
Cd1B_2 N1B 1_555 1_555
Cd1C O1 1_555 1_555
N1_2 Cd1 1_555 1_555
N1B_2 Cd1B 1_555 1_555
O1A Cd1B 1_555 1_555
O1C Cd1 1_555 1_555
O2A Cd1B 1_555 1_555
O2C Cd1 1_555 1_555
C6 C7 1_555 1_555
C8 O3 1_555 1_555
C8 O4 1_555 1_555
C9 O5 1_555 1_555
C13 N1 1_555 1_555
C18 N2 1_555 1_555
O2 Cd1C 1_555 1_555
C15B C16B 1_555 1_555
C18B N2B 1_555 1_555
C6B C7B 1_555 1_555
C8B O3B 1_555 1_555
C8B O4B 1_555 1_555
C9B O5B 1_555 1_555
C13B N1B 1_555 1_555
O2B Cd1A 1_555 1_555

#END
