
#######################################################################
#
#                 Cambridge Crystallographic Data Centre
#                                CCDC 
#
#######################################################################
#
# If this CIF has been generated from an entry in the Cambridge 
# Structural Database, then it will include bibliographic, chemical, 
# crystal, experimental, refinement or atomic coordinate data resulting 
# from the CCDC's data processing and validation procedures.
#
#######################################################################

data_FOYJEI
_symmetry_cell_setting           monoclinic
_symmetry_space_group_name_H-M   'P 21/n'
_symmetry_Int_Tables_number      14
_space_group_name_Hall           '-P 2yn'
loop_
_symmetry_equiv_pos_site_id
_symmetry_equiv_pos_as_xyz
1 x,y,z
2 1/2+x,1/2-y,1/2+z
3 -x,-y,-z
4 1/2-x,1/2+y,1/2-z
_cell_length_a                   13.6922(10)
_cell_length_b                   12.5729(5)
_cell_length_c                   18.8804(15)
_cell_angle_alpha                90
_cell_angle_beta                 94.395(7)
_cell_angle_gamma                90
_cell_volume                     3240.72
loop_
_atom_site_label
_atom_site_type_symbol
_atom_site_fract_x
_atom_site_fract_y
_atom_site_fract_z
Cu1 Cu -0.15923(3) 0.17713(3) 0.14299(2)
P1 P 0.00098(5) 0.18095(6) 0.18615(4)
C1 C 0.0304(2) 0.3127(2) 0.22233(16)
C2 C 0.0434(3) 0.3332(3) 0.2942(2)
H1 H 0.0435 0.2768 0.3269
C3 C 0.0562(4) 0.4365(4) 0.3182(2)
H2 H 0.0637 0.4500 0.3672
C4 C 0.0582(4) 0.5201(3) 0.2710(3)
H3 H 0.0689 0.5898 0.2878
C5 C 0.0446(3) 0.5009(3) 0.2001(2)
H4 H 0.0445 0.5577 0.1678
C6 C 0.0309(3) 0.3987(3) 0.17554(18)
H5 H 0.0216 0.3864 0.1264
C7 C 0.0986(2) 0.1537(2) 0.12766(15)
C8 C 0.0800(2) 0.0780(2) 0.07509(16)
H6 H 0.0176 0.0465 0.0689
C9 C 0.1522(2) 0.0479(3) 0.03150(18)
H7 H 0.1384 -0.0032 -0.0042
C10 C 0.2438(2) 0.0926(3) 0.04035(18)
H8 H 0.2929 0.0717 0.0111
C11 C 0.2634(2) 0.1687(3) 0.09263(18)
H9 H 0.3261 0.1996 0.0987
C12 C 0.1913(2) 0.1997(3) 0.13607(17)
H10 H 0.2049 0.2517 0.1712
C13 C 0.0338(2) 0.0875(2) 0.25913(14)
C14 C -0.0406(3) 0.0329(3) 0.28904(16)
H11 H -0.1064 0.0480 0.2746
C15 C -0.0180(3) -0.0445(3) 0.34063(18)
H12 H -0.0686 -0.0816 0.3608
C16 C 0.0784(3) -0.0669(3) 0.36222(18)
H13 H 0.0935 -0.1188 0.3971
C17 C 0.1521(3) -0.0127(3) 0.33243(18)
H14 H 0.2178 -0.0281 0.3470
C18 C 0.1306(2) 0.0642(3) 0.28118(17)
H15 H 0.1817 0.1009 0.2612
P2 P -0.21222(5) 0.26774(6) 0.04374(4)
C19 C -0.1952(2) 0.4114(2) 0.04857(15)
C20 C -0.2145(3) 0.4622(3) 0.11093(18)
H16 H -0.2283 0.4214 0.1507
C21 C -0.2138(3) 0.5727(3) 0.1159(2)
H17 H -0.2280 0.6060 0.1584
C22 C -0.1923(3) 0.6325(3) 0.0588(2)
H18 H -0.1930 0.7071 0.0616
C23 C -0.1697(3) 0.5833(3) -0.0031(2)
H19 H -0.1535 0.6245 -0.0420
C24 C -0.1707(3) 0.4733(3) -0.00824(18)
H20 H -0.1546 0.4404 -0.0505
C25 C -0.3449(2) 0.2585(2) 0.02244(14)
C26 C -0.3990(2) 0.3380(3) -0.01397(17)
H21 H -0.3683 0.4021 -0.0251
C27 C -0.4971(2) 0.3236(3) -0.03381(17)
H22 H -0.5328 0.3781 -0.0581
C28 C -0.5434(2) 0.2300(3) -0.01842(19)
H23 H -0.6096 0.2193 -0.0337
C29 C -0.4914(3) 0.1522(3) 0.0197(2)
H24 H -0.5232 0.0894 0.0321
C30 C -0.3929(2) 0.1658(2) 0.04001(19)
H25 H -0.3583 0.1120 0.0658
C31 C -0.1633(2) 0.2332(2) -0.04077(15)
C32 C -0.2224(3) 0.2062(3) -0.10136(17)
H26 H -0.2909 0.2072 -0.1000
C33 C -0.1816(3) 0.1780(3) -0.16370(19)
H27 H -0.2225 0.1592 -0.2040
C34 C -0.0816(3) 0.1773(3) -0.16672(19)
H28 H -0.0539 0.1589 -0.2091
C35 C -0.0223(3) 0.2040(3) -0.1069(2)
H29 H 0.0461 0.2034 -0.1086
C36 C -0.0626(2) 0.2315(3) -0.04476(17)
H30 H -0.0212 0.2494 -0.0045
N1 N -0.2506(3) -0.1596(2) 0.16146(17)
C37 C -0.2298(2) -0.0601(2) 0.15691(16)
N2 N -0.2104(2) 0.0267(2) 0.14445(14)
C38 C -0.2651(3) -0.2048(2) 0.22269(17)
N3 N -0.2796(2) -0.2540(2) 0.27184(14)
N3C N -0.2204(2) 0.2460(2) 0.22816(14)
Cu1C Cu -0.34077(3) -0.32287(3) 0.35701(2)
loop_
_geom_bond_atom_site_label_1
_geom_bond_atom_site_label_2
_geom_bond_site_symmetry_1
_geom_bond_site_symmetry_2
Cu1 P1 1_555 1_555
P1 C1 1_555 1_555
C1 C2 1_555 1_555
C2 H1 1_555 1_555
C3 C2 1_555 1_555
H2 C3 1_555 1_555
C4 C3 1_555 1_555
H3 C4 1_555 1_555
C5 C4 1_555 1_555
H4 C5 1_555 1_555
C6 C1 1_555 1_555
H5 C6 1_555 1_555
C7 P1 1_555 1_555
C8 C7 1_555 1_555
H6 C8 1_555 1_555
C9 C8 1_555 1_555
H7 C9 1_555 1_555
C10 C9 1_555 1_555
H8 C10 1_555 1_555
C11 C10 1_555 1_555
H9 C11 1_555 1_555
C12 C7 1_555 1_555
H10 C12 1_555 1_555
C13 P1 1_555 1_555
C14 C13 1_555 1_555
H11 C14 1_555 1_555
C15 C14 1_555 1_555
H12 C15 1_555 1_555
C16 C15 1_555 1_555
H13 C16 1_555 1_555
C17 C16 1_555 1_555
H14 C17 1_555 1_555
C18 C13 1_555 1_555
H15 C18 1_555 1_555
P2 Cu1 1_555 1_555
C19 P2 1_555 1_555
C20 C19 1_555 1_555
H16 C20 1_555 1_555
C21 C20 1_555 1_555
H17 C21 1_555 1_555
C22 C21 1_555 1_555
H18 C22 1_555 1_555
C23 C22 1_555 1_555
H19 C23 1_555 1_555
C24 C19 1_555 1_555
H20 C24 1_555 1_555
C25 P2 1_555 1_555
C26 C25 1_555 1_555
H21 C26 1_555 1_555
C27 C26 1_555 1_555
H22 C27 1_555 1_555
C28 C27 1_555 1_555
H23 C28 1_555 1_555
C29 C28 1_555 1_555
H24 C29 1_555 1_555
C30 C25 1_555 1_555
H25 C30 1_555 1_555
C31 P2 1_555 1_555
C32 C31 1_555 1_555
H26 C32 1_555 1_555
C33 C32 1_555 1_555
H27 C33 1_555 1_555
C34 C33 1_555 1_555
H28 C34 1_555 1_555
C35 C34 1_555 1_555
H29 C35 1_555 1_555
C36 C31 1_555 1_555
H30 C36 1_555 1_555
N1 C37 1_555 1_555
C37 N2 1_555 1_555
N2 Cu1 1_555 1_555
C38 N1 1_555 1_555
N3 C38 1_555 1_555
N3C Cu1 1_555 1_555
Cu1C N3 1_555 1_555
C5 C6 1_555 1_555
C11 C12 1_555 1_555
C17 C18 1_555 1_555
C23 C24 1_555 1_555
C29 C30 1_555 1_555
C35 C36 1_555 1_555

#END
