
#######################################################################
#
#                 Cambridge Crystallographic Data Centre
#                                CCDC 
#
#######################################################################
#
# If this CIF has been generated from an entry in the Cambridge 
# Structural Database, then it will include bibliographic, chemical, 
# crystal, experimental, refinement or atomic coordinate data resulting 
# from the CCDC's data processing and validation procedures.
#
#######################################################################

data_FOYKIO
_symmetry_cell_setting           orthorhombic
_symmetry_space_group_name_H-M   'P c c n'
_symmetry_Int_Tables_number      56
_space_group_name_Hall           '-P 2ab 2ac'
loop_
_symmetry_equiv_pos_site_id
_symmetry_equiv_pos_as_xyz
1 x,y,z
2 1/2-x,1/2-y,z
3 -x,1/2+y,1/2-z
4 1/2+x,-y,1/2-z
5 -x,-y,-z
6 1/2+x,1/2+y,-z
7 x,1/2-y,1/2+z
8 1/2-x,y,1/2+z
_cell_length_a                   14.319(3)
_cell_length_b                   19.465(4)
_cell_length_c                   5.7610(10)
_cell_angle_alpha                90
_cell_angle_beta                 90
_cell_angle_gamma                90
_cell_volume                     1605.7
loop_
_atom_site_label
_atom_site_type_symbol
_atom_site_fract_x
_atom_site_fract_y
_atom_site_fract_z
Cu1 Cu 0.70000(3) 0.55775(2) 0.15718(8)
C1 C 0.6389(2) 0.4410(2) -0.1166(6)
C2 C 0.6519(3) 0.3953(2) -0.3026(7)
H1 H 0.6978 0.4045 -0.4125
C3 C 0.5987(3) 0.3376(2) -0.3250(7)
H2 H 0.6097 0.3083 -0.4495
C4 C 0.5285(3) 0.3212(2) -0.1680(8)
H3 H 0.4921 0.2821 -0.1884
C5 C 0.5144(3) 0.3635(2) 0.0152(8)
H4 H 0.4676 0.3529 0.1212
C6 C 0.5691(3) 0.42364(19) 0.0505(7)
C7 C 0.5518(3) 0.4656(2) 0.2492(7)
H5 H 0.5017 0.4525 0.3417
N1 N 0.7724(2) 0.61379(16) -0.0670(5)
N2 N 0.8148(2) 0.66559(18) -0.0080(5)
N3 N 0.8522(3) 0.7139(2) 0.0489(7)
N4 N 0.59449(18) 0.51618(14) 0.3127(5)
H6 H 0.5759 0.5354 0.4390
O1 O 0.68938(17) 0.49666(13) -0.1028(4)
Cu1G Cu 0.80000(3) 0.55775(2) -0.34282(8)
N1G N 0.7276(2) 0.61379(16) 0.4330(5)
O1G O 0.81062(17) 0.49666(13) 0.3972(4)
loop_
_geom_bond_atom_site_label_1
_geom_bond_atom_site_label_2
_geom_bond_site_symmetry_1
_geom_bond_site_symmetry_2
Cu1 N1 1_555 1_555
C1 C2 1_555 1_555
C2 H1 1_555 1_555
C3 C2 1_555 1_555
H2 C3 1_555 1_555
C4 C3 1_555 1_555
H3 C4 1_555 1_555
C5 C4 1_555 1_555
H4 C5 1_555 1_555
C6 C1 1_555 1_555
C7 C6 1_555 1_555
H5 C7 1_555 1_555
N1 N2 1_555 1_555
N2 N3 1_555 1_555
N4 Cu1 1_555 1_555
H6 N4 1_555 1_555
O1 Cu1 1_555 1_555
Cu1G N1 1_555 1_555
N1G Cu1 1_555 1_555
O1G Cu1 1_555 1_555
C1 O1 1_555 1_555
C5 C6 1_555 1_555
C7 N4 1_555 1_555
O1 Cu1G 1_555 1_555

#END
