
#######################################################################
#
#                 Cambridge Crystallographic Data Centre
#                                CCDC 
#
#######################################################################
#
# If this CIF has been generated from an entry in the Cambridge 
# Structural Database, then it will include bibliographic, chemical, 
# crystal, experimental, refinement or atomic coordinate data resulting 
# from the CCDC's data processing and validation procedures.
#
#######################################################################

data_FOYTIY02
_symmetry_cell_setting           triclinic
_symmetry_space_group_name_H-M   'P -1'
_symmetry_Int_Tables_number      2
_space_group_name_Hall           '-P 1'
loop_
_symmetry_equiv_pos_site_id
_symmetry_equiv_pos_as_xyz
1 x,y,z
2 -x,-y,-z
_cell_length_a                   5.1530(10)
_cell_length_b                   8.5420(17)
_cell_length_c                   24.237(5)
_cell_angle_alpha                91.77(3)
_cell_angle_beta                 95.21(3)
_cell_angle_gamma                103.89(3)
_cell_volume                     1029.83
loop_
_atom_site_label
_atom_site_type_symbol
_atom_site_fract_x
_atom_site_fract_y
_atom_site_fract_z
Cu1 Cu 0.79039(11) 0.48409(7) 0.02675(3)
O1 O 0.7171(7) 0.2622(5) -0.00095(17)
O2 O 0.3727(7) 0.4616(4) 0.04639(19)
O3 O 0.9236(8) 0.7106(5) 0.04922(16)
O4 O 1.0084(8) 0.4337(5) 0.09120(15)
C1 C 0.8595(14) 0.2070(8) -0.0347(3)
C2 C 0.2539(13) 0.4341(6) 0.0901(3)
C3 C 0.7447(11) 0.0372(7) -0.0576(3)
C4 C 0.4069(11) 0.4014(7) 0.1407(2)
H1 H 0.7005 -0.0334 -0.0275
H2 H 0.8767 0.0009 -0.0774
C5 C 0.4912(12) 0.0291(7) -0.0971(3)
H3 H 0.5641 0.4906 0.1488
H4 H 0.4700 0.3054 0.1332
C6 C 0.2601(12) 0.3772(8) 0.1915(3)
H5 H 0.3941 -0.0830 -0.1041
H6 H 0.3758 0.0849 -0.0791
C7 C 0.5483(13) 0.1020(8) -0.1514(3)
H7 H 0.1000 0.2898 0.1837
H8 H 0.2033 0.4745 0.2005
C8 C 0.4291(13) 0.3382(8) 0.2415(3)
H9 H 0.6562 0.0424 -0.1701
H10 H 0.6543 0.2122 -0.1441
C9 C 0.3003(14) 0.1036(9) -0.1901(3)
H11 H 0.4776 0.2379 0.2330
H12 H 0.5941 0.4226 0.2478
C10 C 0.2932(15) 0.3223(9) 0.2940(3)
H13 H 0.1849 -0.0049 -0.1939
H14 H 0.2027 0.1726 -0.1729
C11 C 0.3508(16) 0.1593(10) -0.2465(4)
H15 H 0.1274 0.2387 0.2874
H16 H 0.2460 0.4230 0.3025
C12 C 0.4579(18) 0.2822(10) 0.3439(3)
H17 H 0.4332 0.0840 -0.2649
H18 H 0.4803 0.2632 -0.2425
C13 C 0.1098(17) 0.1765(11) -0.2838(4)
H19 H 0.4964 0.1784 0.3362
H20 H 0.6281 0.3624 0.3492
C14 C 0.326(2) 0.2757(13) 0.3969(4)
H21 H -0.0248 0.0747 -0.2861
H22 H 0.0341 0.2572 -0.2667
C15 C 0.163(2) 0.2221(13) -0.3406(5)
H23 H 0.2883 0.3797 0.4048
H24 H 0.1550 0.1958 0.3916
C16 C 0.491(3) 0.2347(18) 0.4460(5)
H25 H 0.2296 0.1386 -0.3584
H26 H 0.3033 0.3212 -0.3383
C17 C -0.076(3) 0.2468(15) -0.3767(5)
H27 H 0.5387 0.1341 0.4375
H28 H 0.6564 0.3186 0.4533
C18 C 0.344(3) 0.219(2) 0.4966(6)
H29 H -0.0249 0.2742 -0.4130
H30 H -0.1400 0.3327 -0.3605
H31 H -0.2169 0.1491 -0.3798
H32 H 0.4578 0.1951 0.5273
H33 H 0.1847 0.1325 0.4901
H34 H 0.2961 0.3179 0.5050
O2A O 0.6273(7) 0.5384(4) -0.04639(19)
Cu1A Cu 0.20961(11) 0.51591(7) -0.02675(3)
O3A O 1.0764(8) 0.2894(5) -0.04922(16)
O4_2 O 0.0084(8) 0.4337(5) 0.09120(15)
Cu1A_2 Cu 1.20961(11) 0.51591(7) -0.02675(3)
Cu1_2 Cu -0.20961(11) 0.48409(7) 0.02675(3)
loop_
_geom_bond_atom_site_label_1
_geom_bond_atom_site_label_2
_geom_bond_site_symmetry_1
_geom_bond_site_symmetry_2
Cu1 O1 1_555 1_555
O1 C1 1_555 1_555
O2 Cu1 1_555 1_555
O3 Cu1 1_555 1_555
O4 Cu1 1_555 1_555
C1 C3 1_555 1_555
C2 O2 1_555 1_555
C3 H1 1_555 1_555
C4 C2 1_555 1_555
H2 C3 1_555 1_555
C5 C3 1_555 1_555
H3 C4 1_555 1_555
H4 C4 1_555 1_555
C6 C4 1_555 1_555
H5 C5 1_555 1_555
H6 C5 1_555 1_555
C7 C5 1_555 1_555
H7 C6 1_555 1_555
H8 C6 1_555 1_555
C8 C6 1_555 1_555
H9 C7 1_555 1_555
H10 C7 1_555 1_555
C9 C7 1_555 1_555
H11 C8 1_555 1_555
H12 C8 1_555 1_555
C10 C8 1_555 1_555
H13 C9 1_555 1_555
H14 C9 1_555 1_555
C11 C9 1_555 1_555
H15 C10 1_555 1_555
H16 C10 1_555 1_555
C12 C10 1_555 1_555
H17 C11 1_555 1_555
H18 C11 1_555 1_555
C13 C11 1_555 1_555
H19 C12 1_555 1_555
H20 C12 1_555 1_555
C14 C12 1_555 1_555
H21 C13 1_555 1_555
H22 C13 1_555 1_555
C15 C13 1_555 1_555
H23 C14 1_555 1_555
H24 C14 1_555 1_555
C16 C14 1_555 1_555
H25 C15 1_555 1_555
H26 C15 1_555 1_555
C17 C15 1_555 1_555
H27 C16 1_555 1_555
H28 C16 1_555 1_555
C18 C16 1_555 1_555
H29 C17 1_555 1_555
H30 C17 1_555 1_555
H31 C17 1_555 1_555
H32 C18 1_555 1_555
H33 C18 1_555 1_555
H34 C18 1_555 1_555
O2A Cu1 1_555 1_555
Cu1A O2 1_555 1_555
O3A C1 1_555 1_555
O4_2 C2 1_555 1_555
Cu1A_2 O3A 1_555 1_555
Cu1_2 O4_2 1_555 1_555
O2A Cu1A 1_555 1_555

#END
