
#######################################################################
#
#                 Cambridge Crystallographic Data Centre
#                                CCDC 
#
#######################################################################
#
# If this CIF has been generated from an entry in the Cambridge 
# Structural Database, then it will include bibliographic, chemical, 
# crystal, experimental, refinement or atomic coordinate data resulting 
# from the CCDC's data processing and validation procedures.
#
#######################################################################

data_FOYTIY01
_symmetry_cell_setting           monoclinic
_symmetry_space_group_name_H-M   'C 2/c'
_symmetry_Int_Tables_number      15
_space_group_name_Hall           '-C 2yn'
loop_
_symmetry_equiv_pos_site_id
_symmetry_equiv_pos_as_xyz
1 x,y,z
2 -x,y,1/2-z
3 1/2+x,1/2+y,z
4 1/2-x,1/2+y,1/2-z
5 -x,-y,-z
6 x,-y,1/2+z
7 1/2-x,1/2-y,-z
8 1/2+x,1/2-y,1/2+z
_cell_length_a                   51.386(5)
_cell_length_b                   5.0912(9)
_cell_length_c                   16.5576(15)
_cell_angle_alpha                90
_cell_angle_beta                 102.744(10)
_cell_angle_gamma                90
_cell_volume                     4225.03
loop_
_atom_site_label
_atom_site_type_symbol
_atom_site_fract_x
_atom_site_fract_y
_atom_site_fract_z
Cu1 Cu 0.23650 0.47500 0.98000
O1 O 0.22049 0.46797 1.07670
O2 O 0.24148 0.11036 1.13357
C1 C 0.22608 0.29646 1.13101
C2 C 0.21114 0.31820 1.20068
H1 H 0.22271 0.40149 1.24802
H2 H 0.20718 0.14272 1.21732
C3 C 0.18509 0.47473 1.17727
H3 H 0.18893 0.64419 1.15557
H4 H 0.17846 0.50639 1.22685
C4 C 0.16336 0.34089 1.11372
H5 H 0.17038 0.30064 1.06529
H6 H 0.15896 0.17549 1.13667
C5 C 0.13901 0.49192 1.08756
H7 H 0.14324 0.65311 1.06201
H8 H 0.13262 0.54040 1.13636
C6 C 0.11635 0.35392 1.02698
H9 H 0.12285 0.30779 0.97805
H10 H 0.11247 0.19157 1.05234
C7 C 0.09072 0.50149 0.99918
H11 H 0.09427 0.65909 0.97053
H12 H 0.08455 0.55611 1.04792
C8 C 0.06890 0.35055 0.94374
H13 H 0.06612 0.18666 0.97048
H14 H 0.07432 0.30861 0.89276
C9 C 0.04289 0.49628 0.92266
H15 H 0.03683 0.53290 0.97309
H16 H 0.04552 0.66333 0.89729
H17 H 0.02829 0.37696 0.88049
O3 O 0.20710 0.25222 0.92377
O4 O 0.22764 -0.11041 0.97604
C10 C 0.20692 0.01251 0.93743
C11 C 0.18256 -0.14514 0.90602
H18 H 0.17647 -0.21496 0.95312
H19 H 0.18737 -0.29345 0.87548
C12 C 0.15986 -0.00539 0.85172
H20 H 0.15591 0.15137 0.88017
H21 H 0.16521 0.04985 0.80182
C13 C 0.13501 -0.16556 0.82782
H22 H 0.12949 -0.21686 0.87791
H23 H 0.13923 -0.32491 0.80119
C14 C 0.11191 -0.03263 0.77092
H24 H 0.10817 0.12908 0.79707
H25 H 0.11748 0.01488 0.72048
C15 C 0.08689 -0.18520 0.74794
H26 H 0.08187 -0.23848 0.79862
H27 H 0.09065 -0.34383 0.72021
C16 C 0.06347 -0.05474 0.69413
H28 H 0.06852 0.00276 0.64387
H29 H 0.05934 0.10196 0.72242
C17 C 0.03900 -0.21246 0.67045
H30 H 0.04321 -0.36960 0.64293
H31 H 0.03382 -0.26798 0.72088
C18 C 0.01519 -0.08521 0.61556
H32 H 0.02047 -0.02820 0.56568
H33 H 0.01096 0.07122 0.64353
H34 H -0.00169 -0.21990 0.60168
Cu1_2 Cu 0.23650 -0.52500 0.98000
Cu1F Cu 0.26350 0.02500 1.02000
O2F O 0.25852 0.38964 0.86643
O4_2 O 0.22764 0.88959 0.97604
O4F O 0.27236 0.61041 1.02396
loop_
_geom_bond_atom_site_label_1
_geom_bond_atom_site_label_2
_geom_bond_site_symmetry_1
_geom_bond_site_symmetry_2
Cu1 O1 1_555 1_555
O1 C1 1_555 1_555
O2 C1 1_555 1_555
C1 C2 1_555 1_555
C2 H1 1_555 1_555
H2 C2 1_555 1_555
C3 C2 1_555 1_555
H3 C3 1_555 1_555
H4 C3 1_555 1_555
C4 C3 1_555 1_555
H5 C4 1_555 1_555
H6 C4 1_555 1_555
C5 C4 1_555 1_555
H7 C5 1_555 1_555
H8 C5 1_555 1_555
C6 C5 1_555 1_555
H9 C6 1_555 1_555
H10 C6 1_555 1_555
C7 C6 1_555 1_555
H11 C7 1_555 1_555
H12 C7 1_555 1_555
C8 C7 1_555 1_555
H13 C8 1_555 1_555
H14 C8 1_555 1_555
C9 C8 1_555 1_555
H15 C9 1_555 1_555
H16 C9 1_555 1_555
H17 C9 1_555 1_555
O3 Cu1 1_555 1_555
O4 C10 1_555 1_555
C10 O3 1_555 1_555
C11 C10 1_555 1_555
H18 C11 1_555 1_555
H19 C11 1_555 1_555
C12 C11 1_555 1_555
H20 C12 1_555 1_555
H21 C12 1_555 1_555
C13 C12 1_555 1_555
H22 C13 1_555 1_555
H23 C13 1_555 1_555
C14 C13 1_555 1_555
H24 C14 1_555 1_555
H25 C14 1_555 1_555
C15 C14 1_555 1_555
H26 C15 1_555 1_555
H27 C15 1_555 1_555
C16 C15 1_555 1_555
H28 C16 1_555 1_555
H29 C16 1_555 1_555
C17 C16 1_555 1_555
H30 C17 1_555 1_555
H31 C17 1_555 1_555
C18 C17 1_555 1_555
H32 C18 1_555 1_555
H33 C18 1_555 1_555
H34 C18 1_555 1_555
Cu1_2 O4 1_555 1_555
Cu1F O2 1_555 1_555
O2F Cu1 1_555 1_555
O4_2 Cu1 1_555 1_555
O4F Cu1 1_555 1_555
O4 Cu1F 1_555 1_555

#END
