
#######################################################################
#
#                 Cambridge Crystallographic Data Centre
#                                CCDC 
#
#######################################################################
#
# If this CIF has been generated from an entry in the Cambridge 
# Structural Database, then it will include bibliographic, chemical, 
# crystal, experimental, refinement or atomic coordinate data resulting 
# from the CCDC's data processing and validation procedures.
#
#######################################################################

data_FOYTIY
_symmetry_cell_setting           triclinic
_symmetry_space_group_name_H-M   'P -1'
_symmetry_Int_Tables_number      2
_space_group_name_Hall           '-P 1'
loop_
_symmetry_equiv_pos_site_id
_symmetry_equiv_pos_as_xyz
1 x,y,z
2 -x,-y,-z
_cell_length_a                   5.15577(19)
_cell_length_b                   8.5361(2)
_cell_length_c                   24.2019(4)
_cell_angle_alpha                91.917(3)
_cell_angle_beta                 95.156(4)
_cell_angle_gamma                104.027(4)
_cell_volume                     1027.51
loop_
_atom_site_label
_atom_site_type_symbol
_atom_site_fract_x
_atom_site_fract_y
_atom_site_fract_z
Cu1 Cu 0.79039 0.48409 0.02675
O1 O 0.71710 0.26220 -0.00095
O2 O 1.07640 0.28940 -0.04922
C1 C 0.85950 0.20700 -0.03470
C2 C 0.74470 0.03720 -0.05760
H1 H 0.70050 -0.03340 -0.02750
H2 H 0.87670 0.00090 -0.07740
C3 C 0.49120 0.02910 -0.09710
H3 H 0.39410 -0.08300 -0.10410
H4 H 0.37580 0.08490 -0.07910
C4 C 0.54830 0.10200 -0.15140
H5 H 0.65620 0.04240 -0.17010
H6 H 0.65430 0.21220 -0.14410
C5 C 0.30030 0.10360 -0.19010
H7 H 0.18490 -0.00490 -0.19390
H8 H 0.20270 0.17260 -0.17290
C6 C 0.35080 0.15930 -0.24650
H9 H 0.43320 0.08400 -0.26490
H10 H 0.48030 0.26320 -0.24250
C7 C 0.10980 0.17650 -0.28380
H11 H -0.02480 0.07470 -0.28610
H12 H 0.03410 0.25720 -0.26670
C8 C 0.16300 0.22210 -0.34060
H13 H 0.22960 0.13860 -0.35840
H14 H 0.30330 0.32120 -0.33830
C9 C -0.07600 0.24680 -0.37670
H15 H -0.02490 0.27420 -0.41300
H16 H -0.14000 0.33270 -0.36050
H17 H -0.21690 0.14910 -0.37980
O3 O 0.37270 0.46160 0.04639
O4 O 0.00840 0.43370 0.09120
C10 C 0.25390 0.43410 0.09010
C11 C 0.40690 0.40140 0.14070
H18 H 0.56410 0.49060 0.14880
H19 H 0.47000 0.30540 0.13320
C12 C 0.26010 0.37720 0.19150
H20 H 0.10000 0.28980 0.18370
H21 H 0.20330 0.47450 0.20050
C13 C 0.42910 0.33820 0.24150
H22 H 0.47760 0.23790 0.23300
H23 H 0.59410 0.42260 0.24780
C14 C 0.29320 0.32230 0.29400
H24 H 0.12740 0.23870 0.28740
H25 H 0.24600 0.42300 0.30250
C15 C 0.45790 0.28220 0.34390
H26 H 0.49640 0.17840 0.33620
H27 H 0.62810 0.36240 0.34920
C16 C 0.32600 0.27570 0.39690
H28 H 0.28830 0.37970 0.40480
H29 H 0.15500 0.19580 0.39160
C17 C 0.49100 0.23470 0.44600
H30 H 0.53870 0.13410 0.43750
H31 H 0.65640 0.31860 0.45330
C18 C 0.34400 0.21900 0.49660
H32 H 0.45780 0.19510 0.52730
H33 H 0.18470 0.13250 0.49010
H34 H 0.29610 0.31790 0.50500
Cu1_2 Cu -0.20961 0.48409 0.02675
Cu1A Cu 0.20961 0.51591 -0.02675
Cu1A_2 Cu 1.20961 0.51591 -0.02675
O2A O 0.92360 0.71060 0.04922
O3A O 0.62730 0.53840 -0.04639
O4_2 O 1.00840 0.43370 0.09120
loop_
_geom_bond_atom_site_label_1
_geom_bond_atom_site_label_2
_geom_bond_site_symmetry_1
_geom_bond_site_symmetry_2
Cu1 O1 1_555 1_555
O1 C1 1_555 1_555
O2 C1 1_555 1_555
C1 C2 1_555 1_555
C2 H1 1_555 1_555
H2 C2 1_555 1_555
C3 C2 1_555 1_555
H3 C3 1_555 1_555
H4 C3 1_555 1_555
C4 C3 1_555 1_555
H5 C4 1_555 1_555
H6 C4 1_555 1_555
C5 C4 1_555 1_555
H7 C5 1_555 1_555
H8 C5 1_555 1_555
C6 C5 1_555 1_555
H9 C6 1_555 1_555
H10 C6 1_555 1_555
C7 C6 1_555 1_555
H11 C7 1_555 1_555
H12 C7 1_555 1_555
C8 C7 1_555 1_555
H13 C8 1_555 1_555
H14 C8 1_555 1_555
C9 C8 1_555 1_555
H15 C9 1_555 1_555
H16 C9 1_555 1_555
H17 C9 1_555 1_555
O3 Cu1 1_555 1_555
O4 C10 1_555 1_555
C10 O3 1_555 1_555
C11 C10 1_555 1_555
H18 C11 1_555 1_555
H19 C11 1_555 1_555
C12 C11 1_555 1_555
H20 C12 1_555 1_555
H21 C12 1_555 1_555
C13 C12 1_555 1_555
H22 C13 1_555 1_555
H23 C13 1_555 1_555
C14 C13 1_555 1_555
H24 C14 1_555 1_555
H25 C14 1_555 1_555
C15 C14 1_555 1_555
H26 C15 1_555 1_555
H27 C15 1_555 1_555
C16 C15 1_555 1_555
H28 C16 1_555 1_555
H29 C16 1_555 1_555
C17 C16 1_555 1_555
H30 C17 1_555 1_555
H31 C17 1_555 1_555
C18 C17 1_555 1_555
H32 C18 1_555 1_555
H33 C18 1_555 1_555
H34 C18 1_555 1_555
Cu1_2 O4 1_555 1_555
Cu1A O3 1_555 1_555
Cu1A_2 O2 1_555 1_555
O2A Cu1 1_555 1_555
O3A Cu1 1_555 1_555
O4_2 Cu1 1_555 1_555
Cu1A O3A 1_555 1_555

#END
