
#######################################################################
#
#                 Cambridge Crystallographic Data Centre
#                                CCDC 
#
#######################################################################
#
# If this CIF has been generated from an entry in the Cambridge 
# Structural Database, then it will include bibliographic, chemical, 
# crystal, experimental, refinement or atomic coordinate data resulting 
# from the CCDC's data processing and validation procedures.
#
#######################################################################

data_FOYVOG
_symmetry_cell_setting           monoclinic
_symmetry_space_group_name_H-M   'C 2/c'
_symmetry_Int_Tables_number      15
_space_group_name_Hall           '-C 2yn'
loop_
_symmetry_equiv_pos_site_id
_symmetry_equiv_pos_as_xyz
1 x,y,z
2 -x,y,1/2-z
3 1/2+x,1/2+y,z
4 1/2-x,1/2+y,1/2-z
5 -x,-y,-z
6 x,-y,1/2+z
7 1/2-x,1/2-y,-z
8 1/2+x,1/2-y,1/2+z
_cell_length_a                   75.350(6)
_cell_length_b                   5.0492(4)
_cell_length_c                   16.1043(9)
_cell_angle_alpha                90
_cell_angle_beta                 94.164(8)
_cell_angle_gamma                90
_cell_volume                     6110.82
loop_
_atom_site_label
_atom_site_type_symbol
_atom_site_fract_x
_atom_site_fract_y
_atom_site_fract_z
Cu1 Cu 0.24200 0.46820 0.97191
O1 O 0.23267 0.47794 1.08203
O2 O 0.24629 0.11420 1.13036
C1 C 0.23660 0.30819 1.13598
C2 C 0.22771 0.34371 1.21728
H1 H 0.23609 0.42723 1.25772
H2 H 0.22488 0.17042 1.23867
C3 C 0.21069 0.51054 1.20863
H3 H 0.21335 0.67733 1.18217
H4 H 0.20702 0.55035 1.26374
C4 C 0.19529 0.37900 1.15859
H5 H 0.19920 0.33048 1.10451
H6 H 0.19228 0.21668 1.18668
C5 C 0.17934 0.53926 1.14607
H7 H 0.18219 0.69715 1.11545
H8 H 0.17586 0.59583 1.20004
C6 C 0.16337 0.40424 1.09973
H9 H 0.16692 0.34998 1.04552
H10 H 0.16073 0.24501 1.12993
C7 C 0.14654 0.56142 1.08638
H11 H 0.14890 0.71568 1.05305
H12 H 0.14323 0.62406 1.14009
C8 C 0.13115 0.41351 1.04491
H13 H 0.12926 0.25237 1.07583
H14 H 0.13397 0.36374 0.98925
C9 C 0.11416 0.56968 1.03875
H15 H 0.11089 0.61431 1.09430
H16 H 0.11597 0.73420 1.00931
C10 C 0.09913 0.41779 0.99384
H17 H 0.09755 0.25244 1.02182
H18 H 0.10195 0.38418 0.93764
C11 C 0.08197 0.57990 0.99343
H19 H 0.08377 0.76767 0.96174
H20 H 0.07879 0.61762 1.05732
C12 C 0.06674 0.42529 0.94779
H21 H 0.07017 0.38060 0.88470
H22 H 0.06427 0.24454 0.98210
C13 C 0.04970 0.59114 0.94475
H23 H 0.04661 0.64143 1.00792
H24 H 0.05145 0.76887 0.90781
C14 C 0.03433 0.43284 0.90171
H25 H 0.03661 0.40754 0.83648
H26 H 0.03324 0.24263 0.93300
H27 H 0.02187 0.53846 0.90836
O3 O 0.22145 0.25121 0.93525
O4 O 0.23471 -0.11784 0.97917
C15 C 0.22091 0.01126 0.95172
C16 C 0.20414 -0.13987 0.93673
H28 H 0.20055 -0.20275 0.98988
H29 H 0.20656 -0.29444 0.90354
C17 C 0.18889 0.00547 0.89424
H30 H 0.18703 0.16795 0.92464
H31 H 0.19192 0.05372 0.83883
C18 C 0.17188 -0.14723 0.88733
H32 H 0.16875 -0.19141 0.94302
H33 H 0.17393 -0.31226 0.85866
C19 C 0.15632 -0.00884 0.84249
H34 H 0.15458 0.15831 0.87033
H35 H 0.15947 0.03147 0.78644
C20 C 0.13923 -0.15371 0.83657
H36 H 0.13643 -0.20006 0.89255
H37 H 0.14097 -0.31792 0.80705
C21 C 0.12350 -0.01736 0.79513
H38 H 0.12633 0.03325 0.73953
H39 H 0.12151 0.14513 0.82548
C22 C 0.10674 -0.16773 0.78819
H40 H 0.10878 -0.33062 0.75858
H41 H 0.10383 -0.21628 0.84405
C23 C 0.09072 -0.03454 0.74594
H42 H 0.09371 0.01551 0.69056
H43 H 0.08868 0.12768 0.77601
C24 C 0.07342 -0.18327 0.73736
H44 H 0.06860 -0.19680 0.79077
H45 H 0.07544 -0.35798 0.71628
C25 C 0.06022 -0.03690 0.67695
H46 H 0.06567 -0.02244 0.61624
H47 H 0.05792 0.16142 0.70070
C26 C 0.04261 -0.18923 0.66844
H48 H 0.04502 -0.39004 0.64710
H49 H 0.03667 -0.19063 0.72818
C27 C 0.02961 -0.04797 0.60576
H50 H 0.02765 0.15499 0.62626
H51 H 0.03481 -0.05262 0.54435
C28 C 0.01180 -0.19503 0.59945
H52 H 0.01392 -0.39983 0.58121
H53 H 0.00585 -0.18475 0.65910
H54 H 0.00268 -0.09836 0.55329
Cu1_2 Cu 0.24200 -0.53180 0.97191
Cu1F Cu 0.25800 0.03180 1.02809
O2F O 0.25371 0.38580 0.86964
O4_2 O 0.23471 0.88216 0.97917
O4F O 0.26529 0.61784 1.02083
loop_
_geom_bond_atom_site_label_1
_geom_bond_atom_site_label_2
_geom_bond_site_symmetry_1
_geom_bond_site_symmetry_2
Cu1 O1 1_555 1_555
O1 C1 1_555 1_555
O2 C1 1_555 1_555
C1 C2 1_555 1_555
C2 H1 1_555 1_555
H2 C2 1_555 1_555
C3 C2 1_555 1_555
H3 C3 1_555 1_555
H4 C3 1_555 1_555
C4 C3 1_555 1_555
H5 C4 1_555 1_555
H6 C4 1_555 1_555
C5 C4 1_555 1_555
H7 C5 1_555 1_555
H8 C5 1_555 1_555
C6 C5 1_555 1_555
H9 C6 1_555 1_555
H10 C6 1_555 1_555
C7 C6 1_555 1_555
H11 C7 1_555 1_555
H12 C7 1_555 1_555
C8 C7 1_555 1_555
H13 C8 1_555 1_555
H14 C8 1_555 1_555
C9 C8 1_555 1_555
H15 C9 1_555 1_555
H16 C9 1_555 1_555
C10 C9 1_555 1_555
H17 C10 1_555 1_555
H18 C10 1_555 1_555
C11 C10 1_555 1_555
H19 C11 1_555 1_555
H20 C11 1_555 1_555
C12 C11 1_555 1_555
H21 C12 1_555 1_555
H22 C12 1_555 1_555
C13 C12 1_555 1_555
H23 C13 1_555 1_555
H24 C13 1_555 1_555
C14 C13 1_555 1_555
H25 C14 1_555 1_555
H26 C14 1_555 1_555
H27 C14 1_555 1_555
O3 Cu1 1_555 1_555
O4 C15 1_555 1_555
C15 O3 1_555 1_555
C16 C15 1_555 1_555
H28 C16 1_555 1_555
H29 C16 1_555 1_555
C17 C16 1_555 1_555
H30 C17 1_555 1_555
H31 C17 1_555 1_555
C18 C17 1_555 1_555
H32 C18 1_555 1_555
H33 C18 1_555 1_555
C19 C18 1_555 1_555
H34 C19 1_555 1_555
H35 C19 1_555 1_555
C20 C19 1_555 1_555
H36 C20 1_555 1_555
H37 C20 1_555 1_555
C21 C20 1_555 1_555
H38 C21 1_555 1_555
H39 C21 1_555 1_555
C22 C21 1_555 1_555
H40 C22 1_555 1_555
H41 C22 1_555 1_555
C23 C22 1_555 1_555
H42 C23 1_555 1_555
H43 C23 1_555 1_555
C24 C23 1_555 1_555
H44 C24 1_555 1_555
H45 C24 1_555 1_555
C25 C24 1_555 1_555
H46 C25 1_555 1_555
H47 C25 1_555 1_555
C26 C25 1_555 1_555
H48 C26 1_555 1_555
H49 C26 1_555 1_555
C27 C26 1_555 1_555
H50 C27 1_555 1_555
H51 C27 1_555 1_555
C28 C27 1_555 1_555
H52 C28 1_555 1_555
H53 C28 1_555 1_555
H54 C28 1_555 1_555
Cu1_2 O4 1_555 1_555
Cu1F O2 1_555 1_555
O2F Cu1 1_555 1_555
O4_2 Cu1 1_555 1_555
O4F Cu1 1_555 1_555
O4 Cu1F 1_555 1_555

#END
