
#######################################################################
#
#                 Cambridge Crystallographic Data Centre
#                                CCDC 
#
#######################################################################
#
# If this CIF has been generated from an entry in the Cambridge 
# Structural Database, then it will include bibliographic, chemical, 
# crystal, experimental, refinement or atomic coordinate data resulting 
# from the CCDC's data processing and validation procedures.
#
#######################################################################

data_FOYVUM
_symmetry_cell_setting           monoclinic
_symmetry_space_group_name_H-M   'C 2/c'
_symmetry_Int_Tables_number      15
_space_group_name_Hall           '-C 2yn'
loop_
_symmetry_equiv_pos_site_id
_symmetry_equiv_pos_as_xyz
1 x,y,z
2 -x,y,1/2-z
3 1/2+x,1/2+y,z
4 1/2-x,1/2+y,1/2-z
5 -x,-y,-z
6 x,-y,1/2+z
7 1/2-x,1/2-y,-z
8 1/2+x,1/2-y,1/2+z
_cell_length_a                   79.387(4)
_cell_length_b                   5.0498(6)
_cell_length_c                   16.0841(10)
_cell_angle_alpha                90
_cell_angle_beta                 90.340(11)
_cell_angle_gamma                90
_cell_volume                     6447.82
loop_
_atom_site_label
_atom_site_type_symbol
_atom_site_fract_x
_atom_site_fract_y
_atom_site_fract_z
Cu1 Cu 0.24300 0.46820 0.97191
O1 O 0.23385 0.49895 1.08408
O2 O 0.24638 0.14148 1.13528
C1 C 0.23730 0.33808 1.13995
C2 C 0.22867 0.38946 1.22277
H1 H 0.23655 0.47820 1.25973
H2 H 0.22582 0.22074 1.24779
C3 C 0.21267 0.55792 1.21542
H3 H 0.21538 0.71930 1.18547
H4 H 0.20907 0.60799 1.27071
C4 C 0.19815 0.42098 1.17138
H5 H 0.20198 0.36235 1.11720
H6 H 0.19511 0.26441 1.20296
C5 C 0.18317 0.58200 1.16001
H7 H 0.18607 0.73373 1.12601
H8 H 0.17976 0.64856 1.21384
C6 C 0.16808 0.44233 1.11987
H9 H 0.17156 0.37802 1.06575
H10 H 0.16540 0.28914 1.15341
C7 C 0.15228 0.60031 1.10793
H11 H 0.15471 0.74805 1.07141
H12 H 0.14903 0.67285 1.16136
C8 C 0.13772 0.44850 1.07274
H13 H 0.13573 0.29339 1.10687
H14 H 0.14052 0.38857 1.01728
C9 C 0.12174 0.60675 1.06806
H15 H 0.11852 0.66163 1.12362
H16 H 0.12365 0.76552 1.03538
C10 C 0.10753 0.45032 1.02941
H17 H 0.10584 0.29042 1.06058
H18 H 0.11034 0.40641 0.97312
C11 C 0.09137 0.61553 1.03041
H19 H 0.09330 0.79712 0.99508
H20 H 0.08820 0.66494 1.09440
C12 C 0.07698 0.45628 0.99112
H21 H 0.08038 0.40000 0.92799
H22 H 0.07441 0.28229 1.02910
C13 C 0.06095 0.62474 0.98939
H23 H 0.05787 0.68657 1.05243
H24 H 0.06283 0.79541 0.94902
C14 C 0.04640 0.46230 0.95281
H25 H 0.04974 0.39482 0.89068
H26 H 0.04370 0.29546 0.99360
C15 C 0.03052 0.63371 0.94835
H27 H 0.02751 0.70664 1.01030
H28 H 0.03253 0.79698 0.90522
H29 H 0.02006 0.51613 0.92427
O3 O 0.22349 0.24931 0.94396
O4 O 0.23569 -0.11415 0.99093
C16 C 0.22278 0.01272 0.96465
C17 C 0.20683 -0.13741 0.95631
H30 H 0.20324 -0.19022 1.01139
H31 H 0.20911 -0.29799 0.92519
C18 C 0.19260 0.00336 0.91507
H32 H 0.19086 0.17124 0.94314
H33 H 0.19566 0.04128 0.85812
C19 C 0.17640 -0.14688 0.91490
H34 H 0.17325 -0.18068 0.97208
H35 H 0.17832 -0.31704 0.88856
C20 C 0.16188 -0.01340 0.87150
H36 H 0.16026 0.15866 0.89690
H37 H 0.16505 0.01646 0.81403
C21 C 0.14560 -0.15564 0.87221
H38 H 0.14276 -0.19161 0.92964
H39 H 0.14723 -0.32507 0.84509
C22 C 0.13090 -0.02357 0.83229
H40 H 0.13378 0.01672 0.77515
H41 H 0.12904 0.14433 0.86033
C23 C 0.11495 -0.17154 0.83199
H42 H 0.11686 -0.33973 0.80467
H43 H 0.11200 -0.20971 0.88936
C24 C 0.09998 -0.04271 0.79137
H44 H 0.10301 -0.00297 0.73444
H45 H 0.09806 0.12489 0.81916
C25 C 0.08351 -0.18922 0.78954
H46 H 0.07878 -0.19248 0.84433
H47 H 0.08537 -0.36771 0.77096
C26 C 0.07127 -0.05096 0.72987
H48 H 0.07662 -0.04817 0.66761
H49 H 0.06915 0.15163 0.75079
C27 C 0.05451 -0.20098 0.72823
H50 H 0.05672 -0.40567 0.70975
H51 H 0.04871 -0.19081 0.78942
C28 C 0.04247 -0.06826 0.66634
H52 H 0.04068 0.13833 0.68384
H53 H 0.04757 -0.08462 0.60376
C29 C 0.02551 -0.21261 0.66687
H54 H 0.02744 -0.42067 0.65161
H55 H 0.01971 -0.19078 0.72776
C30 C 0.01366 -0.08576 0.60286
H56 H 0.01215 0.12391 0.61710
H57 H 0.01875 -0.11375 0.54067
H58 H 0.00145 -0.18421 0.60471
Cu1_2 Cu 0.24300 -0.53180 0.97191
Cu1F Cu 0.25700 0.03180 1.02809
O2F O 0.25362 0.35852 0.86472
O4_2 O 0.23569 0.88585 0.99093
O4F O 0.26431 0.61415 1.00907
loop_
_geom_bond_atom_site_label_1
_geom_bond_atom_site_label_2
_geom_bond_site_symmetry_1
_geom_bond_site_symmetry_2
Cu1 O1 1_555 1_555
O1 C1 1_555 1_555
O2 C1 1_555 1_555
C1 C2 1_555 1_555
C2 H1 1_555 1_555
H2 C2 1_555 1_555
C3 C2 1_555 1_555
H3 C3 1_555 1_555
H4 C3 1_555 1_555
C4 C3 1_555 1_555
H5 C4 1_555 1_555
H6 C4 1_555 1_555
C5 C4 1_555 1_555
H7 C5 1_555 1_555
H8 C5 1_555 1_555
C6 C5 1_555 1_555
H9 C6 1_555 1_555
H10 C6 1_555 1_555
C7 C6 1_555 1_555
H11 C7 1_555 1_555
H12 C7 1_555 1_555
C8 C7 1_555 1_555
H13 C8 1_555 1_555
H14 C8 1_555 1_555
C9 C8 1_555 1_555
H15 C9 1_555 1_555
H16 C9 1_555 1_555
C10 C9 1_555 1_555
H17 C10 1_555 1_555
H18 C10 1_555 1_555
C11 C10 1_555 1_555
H19 C11 1_555 1_555
H20 C11 1_555 1_555
C12 C11 1_555 1_555
H21 C12 1_555 1_555
H22 C12 1_555 1_555
C13 C12 1_555 1_555
H23 C13 1_555 1_555
H24 C13 1_555 1_555
C14 C13 1_555 1_555
H25 C14 1_555 1_555
H26 C14 1_555 1_555
C15 C14 1_555 1_555
H27 C15 1_555 1_555
H28 C15 1_555 1_555
H29 C15 1_555 1_555
O3 Cu1 1_555 1_555
O4 C16 1_555 1_555
C16 O3 1_555 1_555
C17 C16 1_555 1_555
H30 C17 1_555 1_555
H31 C17 1_555 1_555
C18 C17 1_555 1_555
H32 C18 1_555 1_555
H33 C18 1_555 1_555
C19 C18 1_555 1_555
H34 C19 1_555 1_555
H35 C19 1_555 1_555
C20 C19 1_555 1_555
H36 C20 1_555 1_555
H37 C20 1_555 1_555
C21 C20 1_555 1_555
H38 C21 1_555 1_555
H39 C21 1_555 1_555
C22 C21 1_555 1_555
H40 C22 1_555 1_555
H41 C22 1_555 1_555
C23 C22 1_555 1_555
H42 C23 1_555 1_555
H43 C23 1_555 1_555
C24 C23 1_555 1_555
H44 C24 1_555 1_555
H45 C24 1_555 1_555
C25 C24 1_555 1_555
H46 C25 1_555 1_555
H47 C25 1_555 1_555
C26 C25 1_555 1_555
H48 C26 1_555 1_555
H49 C26 1_555 1_555
C27 C26 1_555 1_555
H50 C27 1_555 1_555
H51 C27 1_555 1_555
C28 C27 1_555 1_555
H52 C28 1_555 1_555
H53 C28 1_555 1_555
C29 C28 1_555 1_555
H54 C29 1_555 1_555
H55 C29 1_555 1_555
C30 C29 1_555 1_555
H56 C30 1_555 1_555
H57 C30 1_555 1_555
H58 C30 1_555 1_555
Cu1_2 O4 1_555 1_555
Cu1F O2 1_555 1_555
O2F Cu1 1_555 1_555
O4_2 Cu1 1_555 1_555
O4F Cu1 1_555 1_555
O4 Cu1F 1_555 1_555

#END
