
#######################################################################
#
#                 Cambridge Crystallographic Data Centre
#                                CCDC 
#
#######################################################################
#
# If this CIF has been generated from an entry in the Cambridge 
# Structural Database, then it will include bibliographic, chemical, 
# crystal, experimental, refinement or atomic coordinate data resulting 
# from the CCDC's data processing and validation procedures.
#
#######################################################################

data_FOYVAS
_symmetry_cell_setting           monoclinic
_symmetry_space_group_name_H-M   'C 2/c'
_symmetry_Int_Tables_number      15
_space_group_name_Hall           '-C 2yn'
loop_
_symmetry_equiv_pos_site_id
_symmetry_equiv_pos_as_xyz
1 x,y,z
2 -x,y,1/2-z
3 1/2+x,1/2+y,z
4 1/2-x,1/2+y,1/2-z
5 -x,-y,-z
6 x,-y,1/2+z
7 1/2-x,1/2-y,-z
8 1/2+x,1/2-y,1/2+z
_cell_length_a                   60.548(3)
_cell_length_b                   5.06398(18)
_cell_length_c                   16.2467(5)
_cell_angle_alpha                90
_cell_angle_beta                 96.850(4)
_cell_angle_gamma                90
_cell_volume                     4945.9
loop_
_atom_site_label
_atom_site_type_symbol
_atom_site_fract_x
_atom_site_fract_y
_atom_site_fract_z
Cu1 Cu 0.23767 0.46820 0.97191
O1 O 0.22548 0.44993 1.07791
O2 O 0.24238 0.07792 1.12106
C1 C 0.23019 0.26838 1.12827
C2 C 0.21868 0.28284 1.20659
H1 H 0.22896 0.35687 1.25102
H2 H 0.21509 0.10500 1.22271
C3 C 0.19739 0.44900 1.19686
H3 H 0.20080 0.62159 1.17554
H4 H 0.19254 0.47470 1.25104
C4 C 0.17841 0.32882 1.13969
H5 H 0.18356 0.29424 1.08639
H6 H 0.17455 0.16023 1.16262
C5 C 0.15848 0.48951 1.12630
H7 H 0.16215 0.65429 1.10073
H8 H 0.15386 0.53217 1.17982
C6 C 0.13875 0.36490 1.07252
H9 H 0.14345 0.32460 1.01884
H10 H 0.13535 0.19891 1.09771
C7 C 0.11773 0.52264 1.05797
H11 H 0.12080 0.68442 1.02949
H12 H 0.11332 0.57141 1.11143
C8 C 0.09871 0.38408 1.00887
H13 H 0.09624 0.21610 1.03496
H14 H 0.10252 0.34852 0.95365
C9 C 0.07745 0.53904 1.00134
H15 H 0.07310 0.56947 1.05620
H16 H 0.07982 0.71001 0.97678
C10 C 0.05891 0.39741 0.94886
H17 H 0.05683 0.22600 0.97204
H18 H 0.06271 0.37805 0.89349
C11 C 0.03740 0.55685 0.94709
H19 H 0.03976 0.75149 0.92085
H20 H 0.03312 0.57837 1.01003
H21 H 0.02403 0.45425 0.90914
O3 O 0.21219 0.25923 0.92433
O4 O 0.22866 -0.11701 0.96290
C12 C 0.21150 0.01657 0.93470
C13 C 0.19063 -0.13181 0.91121
H22 H 0.18592 -0.20772 0.96105
H23 H 0.19385 -0.27711 0.87554
C14 C 0.17173 0.02146 0.86813
H24 H 0.16922 0.17537 0.90141
H25 H 0.17576 0.08332 0.81555
C15 C 0.15052 -0.13049 0.85250
H26 H 0.14636 -0.18838 0.90542
H27 H 0.15327 -0.28733 0.82092
C16 C 0.13124 0.01642 0.80684
H28 H 0.12890 0.17560 0.83775
H29 H 0.13543 0.07055 0.75348
C17 C 0.10993 -0.12800 0.79234
H30 H 0.10618 -0.18808 0.84561
H31 H 0.11228 -0.28385 0.75986
C18 C 0.09041 0.01602 0.74994
H32 H 0.09420 0.08026 0.69716
H33 H 0.08775 0.16993 0.78313
C19 C 0.06953 -0.13358 0.73441
H34 H 0.07226 -0.28806 0.70195
H35 H 0.06564 -0.19583 0.78746
C20 C 0.04966 0.00747 0.69103
H36 H 0.05365 0.07111 0.63852
H37 H 0.04692 0.16118 0.72394
C21 C 0.02953 -0.13032 0.67492
H38 H 0.02326 -0.15737 0.72580
H39 H 0.03220 -0.29865 0.65058
C22 C 0.01327 0.02857 0.61480
H40 H 0.02036 0.05840 0.55693
H41 H 0.01023 0.21969 0.64225
H42 H -0.00235 -0.07911 0.60243
Cu1_2 Cu 0.23767 -0.53180 0.97191
Cu1F Cu 0.26233 0.03180 1.02809
O2F O 0.25762 0.42208 0.87894
O4_2 O 0.22866 0.88299 0.96290
O4F O 0.27134 0.61701 1.03710
loop_
_geom_bond_atom_site_label_1
_geom_bond_atom_site_label_2
_geom_bond_site_symmetry_1
_geom_bond_site_symmetry_2
Cu1 O1 1_555 1_555
O1 C1 1_555 1_555
O2 C1 1_555 1_555
C1 C2 1_555 1_555
C2 H1 1_555 1_555
H2 C2 1_555 1_555
C3 C2 1_555 1_555
H3 C3 1_555 1_555
H4 C3 1_555 1_555
C4 C3 1_555 1_555
H5 C4 1_555 1_555
H6 C4 1_555 1_555
C5 C4 1_555 1_555
H7 C5 1_555 1_555
H8 C5 1_555 1_555
C6 C5 1_555 1_555
H9 C6 1_555 1_555
H10 C6 1_555 1_555
C7 C6 1_555 1_555
H11 C7 1_555 1_555
H12 C7 1_555 1_555
C8 C7 1_555 1_555
H13 C8 1_555 1_555
H14 C8 1_555 1_555
C9 C8 1_555 1_555
H15 C9 1_555 1_555
H16 C9 1_555 1_555
C10 C9 1_555 1_555
H17 C10 1_555 1_555
H18 C10 1_555 1_555
C11 C10 1_555 1_555
H19 C11 1_555 1_555
H20 C11 1_555 1_555
H21 C11 1_555 1_555
O3 Cu1 1_555 1_555
O4 C12 1_555 1_555
C12 O3 1_555 1_555
C13 C12 1_555 1_555
H22 C13 1_555 1_555
H23 C13 1_555 1_555
C14 C13 1_555 1_555
H24 C14 1_555 1_555
H25 C14 1_555 1_555
C15 C14 1_555 1_555
H26 C15 1_555 1_555
H27 C15 1_555 1_555
C16 C15 1_555 1_555
H28 C16 1_555 1_555
H29 C16 1_555 1_555
C17 C16 1_555 1_555
H30 C17 1_555 1_555
H31 C17 1_555 1_555
C18 C17 1_555 1_555
H32 C18 1_555 1_555
H33 C18 1_555 1_555
C19 C18 1_555 1_555
H34 C19 1_555 1_555
H35 C19 1_555 1_555
C20 C19 1_555 1_555
H36 C20 1_555 1_555
H37 C20 1_555 1_555
C21 C20 1_555 1_555
H38 C21 1_555 1_555
H39 C21 1_555 1_555
C22 C21 1_555 1_555
H40 C22 1_555 1_555
H41 C22 1_555 1_555
H42 C22 1_555 1_555
Cu1_2 O4 1_555 1_555
Cu1F O2 1_555 1_555
O2F Cu1 1_555 1_555
O4_2 Cu1 1_555 1_555
O4F Cu1 1_555 1_555
O4 Cu1F 1_555 1_555

#END
