
#######################################################################
#
#                 Cambridge Crystallographic Data Centre
#                                CCDC 
#
#######################################################################
#
# If this CIF has been generated from an entry in the Cambridge 
# Structural Database, then it will include bibliographic, chemical, 
# crystal, experimental, refinement or atomic coordinate data resulting 
# from the CCDC's data processing and validation procedures.
#
#######################################################################

data_FOYVEW
_symmetry_cell_setting           monoclinic
_symmetry_space_group_name_H-M   'C 2/c'
_symmetry_Int_Tables_number      15
_space_group_name_Hall           '-C 2yn'
loop_
_symmetry_equiv_pos_site_id
_symmetry_equiv_pos_as_xyz
1 x,y,z
2 -x,y,1/2-z
3 1/2+x,1/2+y,z
4 1/2-x,1/2+y,1/2-z
5 -x,-y,-z
6 x,-y,1/2+z
7 1/2-x,1/2-y,-z
8 1/2+x,1/2-y,1/2+z
_cell_length_a                   65.8430(14)
_cell_length_b                   5.06060(19)
_cell_length_c                   16.2296(4)
_cell_angle_alpha                90
_cell_angle_beta                 97.383(4)
_cell_angle_gamma                90
_cell_volume                     5362.95
loop_
_atom_site_label
_atom_site_type_symbol
_atom_site_fract_x
_atom_site_fract_y
_atom_site_fract_z
Cu1 Cu 0.24100 0.46820 0.97191
O1 O 0.23029 0.45653 1.07875
O2 O 0.24610 0.08697 1.12370
C1 C 0.23488 0.27800 1.13020
C2 C 0.22466 0.29735 1.20906
H1 H 0.23430 0.37416 1.25280
H2 H 0.22148 0.12044 1.22643
C3 C 0.20502 0.46304 1.19903
H3 H 0.20802 0.63438 1.17648
H4 H 0.20081 0.49212 1.25338
C4 C 0.18734 0.33930 1.14311
H5 H 0.19183 0.30138 1.08969
H6 H 0.18393 0.17206 1.16727
C5 C 0.16892 0.49928 1.12941
H7 H 0.17215 0.66255 1.10262
H8 H 0.16492 0.54529 1.18298
C6 C 0.15057 0.37132 1.07694
H9 H 0.15466 0.32766 1.02319
H10 H 0.14760 0.20682 1.10333
C7 C 0.13116 0.52829 1.06213
H11 H 0.13381 0.68838 1.03247
H12 H 0.12734 0.58041 1.11559
C8 C 0.11348 0.38666 1.01440
H13 H 0.11136 0.22022 1.04168
H14 H 0.11673 0.34765 0.95912
C9 C 0.09387 0.54127 1.00666
H15 H 0.09012 0.57513 1.06164
H16 H 0.09590 0.71080 0.98090
C10 C 0.07662 0.39637 0.95556
H17 H 0.07485 0.22631 0.97992
H18 H 0.07986 0.37355 0.90002
C11 C 0.05681 0.55582 0.95357
H19 H 0.05883 0.74892 0.92598
H20 H 0.05317 0.58127 1.01671
C12 C 0.03933 0.40831 0.90163
H21 H 0.04327 0.37580 0.83923
H22 H 0.03655 0.22163 0.93176
H23 H 0.02533 0.52484 0.89843
O3 O 0.21740 0.25624 0.92638
O4 O 0.23279 -0.11784 0.96677
C13 C 0.21687 0.01411 0.93829
C14 C 0.19761 -0.13576 0.91638
H24 H 0.19352 -0.20860 0.96699
H25 H 0.20043 -0.28335 0.88138
C15 C 0.18001 0.01496 0.87291
H26 H 0.17783 0.17101 0.90543
H27 H 0.18346 0.07358 0.81965
C16 C 0.16048 -0.13798 0.85891
H28 H 0.15691 -0.19261 0.91249
H29 H 0.16288 -0.29686 0.82811
C17 C 0.14252 0.00621 0.81290
H30 H 0.14047 0.16738 0.84301
H31 H 0.14611 0.05705 0.75891
C18 C 0.12289 -0.13913 0.80001
H32 H 0.11970 -0.19593 0.85392
H33 H 0.12493 -0.29708 0.76830
C19 C 0.10473 0.00237 0.75729
H34 H 0.10796 0.06336 0.70384
H35 H 0.10241 0.15842 0.78973
C20 C 0.08549 -0.14821 0.74338
H36 H 0.08788 -0.30479 0.71167
H37 H 0.08217 -0.20719 0.79709
C21 C 0.06701 -0.00974 0.69972
H38 H 0.07042 0.05067 0.64653
H39 H 0.06461 0.14609 0.73187
C22 C 0.04740 -0.15647 0.68428
H40 H 0.04188 -0.18036 0.73569
H41 H 0.04977 -0.32640 0.66081
C23 C 0.03215 -0.00119 0.62360
H42 H 0.03840 0.02504 0.56513
H43 H 0.02944 0.19173 0.65006
C24 C 0.01193 -0.15354 0.60787
H44 H 0.01476 -0.34938 0.58379
H45 H 0.00511 -0.16665 0.66549
H46 H 0.00123 -0.04626 0.56303
Cu1_2 Cu 0.24100 -0.53180 0.97191
Cu1F Cu 0.25900 0.03180 1.02809
O2F O 0.25390 0.41303 0.87630
O4_2 O 0.23279 0.88216 0.96677
O4F O 0.26721 0.61784 1.03323
loop_
_geom_bond_atom_site_label_1
_geom_bond_atom_site_label_2
_geom_bond_site_symmetry_1
_geom_bond_site_symmetry_2
Cu1 O1 1_555 1_555
O1 C1 1_555 1_555
O2 C1 1_555 1_555
C1 C2 1_555 1_555
C2 H1 1_555 1_555
H2 C2 1_555 1_555
C3 C2 1_555 1_555
H3 C3 1_555 1_555
H4 C3 1_555 1_555
C4 C3 1_555 1_555
H5 C4 1_555 1_555
H6 C4 1_555 1_555
C5 C4 1_555 1_555
H7 C5 1_555 1_555
H8 C5 1_555 1_555
C6 C5 1_555 1_555
H9 C6 1_555 1_555
H10 C6 1_555 1_555
C7 C6 1_555 1_555
H11 C7 1_555 1_555
H12 C7 1_555 1_555
C8 C7 1_555 1_555
H13 C8 1_555 1_555
H14 C8 1_555 1_555
C9 C8 1_555 1_555
H15 C9 1_555 1_555
H16 C9 1_555 1_555
C10 C9 1_555 1_555
H17 C10 1_555 1_555
H18 C10 1_555 1_555
C11 C10 1_555 1_555
H19 C11 1_555 1_555
H20 C11 1_555 1_555
C12 C11 1_555 1_555
H21 C12 1_555 1_555
H22 C12 1_555 1_555
H23 C12 1_555 1_555
O3 Cu1 1_555 1_555
O4 C13 1_555 1_555
C13 O3 1_555 1_555
C14 C13 1_555 1_555
H24 C14 1_555 1_555
H25 C14 1_555 1_555
C15 C14 1_555 1_555
H26 C15 1_555 1_555
H27 C15 1_555 1_555
C16 C15 1_555 1_555
H28 C16 1_555 1_555
H29 C16 1_555 1_555
C17 C16 1_555 1_555
H30 C17 1_555 1_555
H31 C17 1_555 1_555
C18 C17 1_555 1_555
H32 C18 1_555 1_555
H33 C18 1_555 1_555
C19 C18 1_555 1_555
H34 C19 1_555 1_555
H35 C19 1_555 1_555
C20 C19 1_555 1_555
H36 C20 1_555 1_555
H37 C20 1_555 1_555
C21 C20 1_555 1_555
H38 C21 1_555 1_555
H39 C21 1_555 1_555
C22 C21 1_555 1_555
H40 C22 1_555 1_555
H41 C22 1_555 1_555
C23 C22 1_555 1_555
H42 C23 1_555 1_555
H43 C23 1_555 1_555
C24 C23 1_555 1_555
H44 C24 1_555 1_555
H45 C24 1_555 1_555
H46 C24 1_555 1_555
Cu1_2 O4 1_555 1_555
Cu1F O2 1_555 1_555
O2F Cu1 1_555 1_555
O4_2 Cu1 1_555 1_555
O4F Cu1 1_555 1_555
O4 Cu1F 1_555 1_555

#END
