
#######################################################################
#
#                 Cambridge Crystallographic Data Centre
#                                CCDC 
#
#######################################################################
#
# If this CIF has been generated from an entry in the Cambridge 
# Structural Database, then it will include bibliographic, chemical, 
# crystal, experimental, refinement or atomic coordinate data resulting 
# from the CCDC's data processing and validation procedures.
#
#######################################################################

data_FOYVIA
_symmetry_cell_setting           monoclinic
_symmetry_space_group_name_H-M   'C 2/c'
_symmetry_Int_Tables_number      15
_space_group_name_Hall           '-C 2yn'
loop_
_symmetry_equiv_pos_site_id
_symmetry_equiv_pos_as_xyz
1 x,y,z
2 -x,y,1/2-z
3 1/2+x,1/2+y,z
4 1/2-x,1/2+y,1/2-z
5 -x,-y,-z
6 x,-y,1/2+z
7 1/2-x,1/2-y,-z
8 1/2+x,1/2-y,1/2+z
_cell_length_a                   69.882(5)
_cell_length_b                   5.0541(4)
_cell_length_c                   16.1692(8)
_cell_angle_alpha                90
_cell_angle_beta                 92.920(7)
_cell_angle_gamma                90
_cell_volume                     5703.4
loop_
_atom_site_label
_atom_site_type_symbol
_atom_site_fract_x
_atom_site_fract_y
_atom_site_fract_z
Cu1 Cu 0.24200 0.46820 0.97191
O1 O 0.23183 0.47673 1.08232
O2 O 0.24672 0.11542 1.12945
C1 C 0.23613 0.30781 1.13577
C2 C 0.22645 0.34211 1.21744
H1 H 0.23539 0.42683 1.25700
H2 H 0.22351 0.16862 1.23902
C3 C 0.20801 0.50628 1.21016
H3 H 0.21078 0.67325 1.18354
H4 H 0.20398 0.54560 1.26532
C4 C 0.19157 0.37255 1.16162
H5 H 0.19587 0.32457 1.10747
H6 H 0.18842 0.21000 1.18990
C5 C 0.17429 0.53030 1.15041
H7 H 0.17728 0.68840 1.11963
H8 H 0.17045 0.58639 1.20442
C6 C 0.15723 0.39302 1.10560
H9 H 0.16114 0.33925 1.05135
H10 H 0.15447 0.23361 1.13594
C7 C 0.13901 0.54757 1.09363
H11 H 0.14147 0.70197 1.06020
H12 H 0.13534 0.60974 1.14737
C8 C 0.12258 0.39749 1.05363
H13 H 0.12062 0.23629 1.08463
H14 H 0.12571 0.34810 0.99800
C9 C 0.10417 0.55102 1.04883
H15 H 0.10057 0.59521 1.10440
H16 H 0.10604 0.71559 1.01932
C10 C 0.08814 0.39703 1.00539
H17 H 0.08652 0.23165 1.03343
H18 H 0.09126 0.36377 0.94921
C11 C 0.06954 0.55647 1.00632
H19 H 0.07138 0.74427 0.97456
H20 H 0.06602 0.59378 1.07019
C12 C 0.05329 0.39972 0.96216
H21 H 0.05708 0.35548 0.89907
H22 H 0.05072 0.21884 0.99658
C13 C 0.03482 0.56291 0.96047
H23 H 0.03140 0.61280 1.02361
H24 H 0.03661 0.74066 0.92349
H25 H 0.02315 0.44868 0.93088
O3 O 0.22005 0.24838 0.93714
O4 O 0.23456 -0.11875 0.97991
C14 C 0.21963 0.00861 0.95367
C15 C 0.20169 -0.14484 0.94015
H26 H 0.19782 -0.20810 0.99339
H27 H 0.20444 -0.29895 0.90695
C16 C 0.18521 -0.00193 0.89904
H28 H 0.18306 0.16016 0.92940
H29 H 0.18849 0.04663 0.84359
C17 C 0.16700 -0.15697 0.89358
H30 H 0.16361 -0.20148 0.94931
H31 H 0.16935 -0.32157 0.86492
C18 C 0.15019 -0.02105 0.85016
H32 H 0.14817 0.14571 0.87797
H33 H 0.15360 0.01960 0.79408
C19 C 0.13189 -0.16828 0.84569
H34 H 0.12885 -0.21490 0.90168
H35 H 0.13390 -0.33211 0.81622
C20 C 0.11488 -0.03442 0.80568
H36 H 0.11795 0.01647 0.75006
H37 H 0.11260 0.12765 0.83601
C21 C 0.09695 -0.18710 0.80017
H38 H 0.09930 -0.34957 0.77057
H39 H 0.09379 -0.23594 0.85605
C22 C 0.07965 -0.05644 0.75936
H40 H 0.08289 -0.00608 0.70396
H41 H 0.07730 0.10537 0.78942
C23 C 0.06137 -0.20554 0.75237
H42 H 0.05614 -0.21969 0.80594
H43 H 0.06369 -0.37981 0.73127
C24 C 0.04711 -0.06134 0.69324
H44 H 0.05303 -0.04618 0.63234
H45 H 0.04447 0.13648 0.71702
C25 C 0.02826 -0.21609 0.68624
H46 H 0.03102 -0.41639 0.66487
H47 H 0.02180 -0.21828 0.74622
C26 C 0.01422 -0.07697 0.62485
H48 H 0.01194 0.12554 0.64535
H49 H 0.01989 -0.08094 0.56327
H50 H 0.00064 -0.18343 0.62144
Cu1_2 Cu 0.24200 -0.53180 0.97191
Cu1F Cu 0.25800 0.03180 1.02809
O2F O 0.25328 0.38458 0.87055
O4_2 O 0.23456 0.88125 0.97991
O4F O 0.26544 0.61875 1.02009
loop_
_geom_bond_atom_site_label_1
_geom_bond_atom_site_label_2
_geom_bond_site_symmetry_1
_geom_bond_site_symmetry_2
Cu1 O1 1_555 1_555
O1 C1 1_555 1_555
O2 C1 1_555 1_555
C1 C2 1_555 1_555
C2 H1 1_555 1_555
H2 C2 1_555 1_555
C3 C2 1_555 1_555
H3 C3 1_555 1_555
H4 C3 1_555 1_555
C4 C3 1_555 1_555
H5 C4 1_555 1_555
H6 C4 1_555 1_555
C5 C4 1_555 1_555
H7 C5 1_555 1_555
H8 C5 1_555 1_555
C6 C5 1_555 1_555
H9 C6 1_555 1_555
H10 C6 1_555 1_555
C7 C6 1_555 1_555
H11 C7 1_555 1_555
H12 C7 1_555 1_555
C8 C7 1_555 1_555
H13 C8 1_555 1_555
H14 C8 1_555 1_555
C9 C8 1_555 1_555
H15 C9 1_555 1_555
H16 C9 1_555 1_555
C10 C9 1_555 1_555
H17 C10 1_555 1_555
H18 C10 1_555 1_555
C11 C10 1_555 1_555
H19 C11 1_555 1_555
H20 C11 1_555 1_555
C12 C11 1_555 1_555
H21 C12 1_555 1_555
H22 C12 1_555 1_555
C13 C12 1_555 1_555
H23 C13 1_555 1_555
H24 C13 1_555 1_555
H25 C13 1_555 1_555
O3 Cu1 1_555 1_555
O4 C14 1_555 1_555
C14 O3 1_555 1_555
C15 C14 1_555 1_555
H26 C15 1_555 1_555
H27 C15 1_555 1_555
C16 C15 1_555 1_555
H28 C16 1_555 1_555
H29 C16 1_555 1_555
C17 C16 1_555 1_555
H30 C17 1_555 1_555
H31 C17 1_555 1_555
C18 C17 1_555 1_555
H32 C18 1_555 1_555
H33 C18 1_555 1_555
C19 C18 1_555 1_555
H34 C19 1_555 1_555
H35 C19 1_555 1_555
C20 C19 1_555 1_555
H36 C20 1_555 1_555
H37 C20 1_555 1_555
C21 C20 1_555 1_555
H38 C21 1_555 1_555
H39 C21 1_555 1_555
C22 C21 1_555 1_555
H40 C22 1_555 1_555
H41 C22 1_555 1_555
C23 C22 1_555 1_555
H42 C23 1_555 1_555
H43 C23 1_555 1_555
C24 C23 1_555 1_555
H44 C24 1_555 1_555
H45 C24 1_555 1_555
C25 C24 1_555 1_555
H46 C25 1_555 1_555
H47 C25 1_555 1_555
C26 C25 1_555 1_555
H48 C26 1_555 1_555
H49 C26 1_555 1_555
H50 C26 1_555 1_555
Cu1_2 O4 1_555 1_555
Cu1F O2 1_555 1_555
O2F Cu1 1_555 1_555
O4_2 Cu1 1_555 1_555
O4F Cu1 1_555 1_555
O4 Cu1F 1_555 1_555

#END
