
#######################################################################
#
#                 Cambridge Crystallographic Data Centre
#                                CCDC 
#
#######################################################################
#
# If this CIF has been generated from an entry in the Cambridge 
# Structural Database, then it will include bibliographic, chemical, 
# crystal, experimental, refinement or atomic coordinate data resulting 
# from the CCDC's data processing and validation procedures.
#
#######################################################################

data_FOYWAT
_symmetry_cell_setting           monoclinic
_symmetry_space_group_name_H-M   'C 2/c'
_symmetry_Int_Tables_number      15
_space_group_name_Hall           '-C 2yn'
loop_
_symmetry_equiv_pos_site_id
_symmetry_equiv_pos_as_xyz
1 x,y,z
2 -x,y,1/2-z
3 1/2+x,1/2+y,z
4 1/2-x,1/2+y,1/2-z
5 -x,-y,-z
6 x,-y,1/2+z
7 1/2-x,1/2-y,-z
8 1/2+x,1/2-y,1/2+z
_cell_length_a                   84.824(7)
_cell_length_b                   5.0419(5)
_cell_length_c                   16.0537(9)
_cell_angle_alpha                90
_cell_angle_beta                 90.966(9)
_cell_angle_gamma                90
_cell_volume                     6864.78
loop_
_atom_site_label
_atom_site_type_symbol
_atom_site_fract_x
_atom_site_fract_y
_atom_site_fract_z
Cu1 Cu 0.24300 0.46820 0.97191
O1 O 0.23507 0.49223 1.08531
O2 O 0.24703 0.13076 1.13326
C1 C 0.23859 0.32756 1.13998
C2 C 0.23099 0.37407 1.22405
H1 H 0.23858 0.46043 1.26090
H2 H 0.22844 0.20362 1.24834
C3 C 0.21601 0.54362 1.21919
H3 H 0.21839 0.70703 1.18994
H4 H 0.21295 0.59040 1.27522
C4 C 0.20215 0.40959 1.17558
H5 H 0.20542 0.35417 1.12059
H6 H 0.19947 0.25092 1.20654
C5 C 0.18810 0.57192 1.16656
H7 H 0.19064 0.72591 1.13317
H8 H 0.18522 0.63530 1.22121
C6 C 0.17374 0.43494 1.12688
H9 H 0.17669 0.37382 1.07195
H10 H 0.17140 0.27951 1.15979
C7 C 0.15892 0.59427 1.11735
H11 H 0.16101 0.74443 1.08145
H12 H 0.15618 0.66367 1.17162
C8 C 0.14508 0.44481 1.08251
H13 H 0.14339 0.28741 1.11592
H14 H 0.14738 0.38819 1.02632
C9 C 0.13012 0.60397 1.08026
H15 H 0.12743 0.65554 1.13655
H16 H 0.13175 0.76495 1.04833
C10 C 0.11660 0.45008 1.04189
H17 H 0.11517 0.28806 1.07230
H18 H 0.11891 0.40956 0.98498
C11 C 0.10151 0.61586 1.04540
H19 H 0.10314 0.79986 1.01095
H20 H 0.09891 0.66143 1.11009
C12 C 0.08780 0.45920 1.00639
H21 H 0.09062 0.40670 0.94248
H22 H 0.08560 0.28266 1.04360
C13 C 0.07282 0.62841 1.00717
H23 H 0.07030 0.68646 1.07099
H24 H 0.07438 0.80178 0.96760
C14 C 0.05899 0.46838 0.97087
H25 H 0.06176 0.40460 0.90791
H26 H 0.05667 0.29883 1.01096
C15 C 0.04403 0.64183 0.96891
H27 H 0.04158 0.71107 1.03169
H28 H 0.04570 0.80796 0.92652
C16 C 0.02999 0.47786 0.93514
H29 H 0.03428 0.32377 0.89365
H30 H 0.02362 0.39224 0.98706
H31 H 0.02183 0.60747 0.90129
O3 O 0.22456 0.25123 0.94436
O4 O 0.23619 -0.11596 0.98806
C17 C 0.22398 0.01304 0.96370
C18 C 0.20899 -0.13638 0.95590
H32 H 0.20593 -0.19261 1.01109
H33 H 0.21094 -0.29529 0.92353
C19 C 0.19547 0.00751 0.91677
H34 H 0.19402 0.17392 0.94607
H35 H 0.19802 0.04896 0.85967
C20 C 0.18030 -0.14252 0.91717
H36 H 0.17766 -0.17986 0.97453
H37 H 0.18192 -0.31132 0.88956
C21 C 0.16649 -0.00579 0.87585
H38 H 0.16514 0.16497 0.90250
H39 H 0.16914 0.02762 0.81816
C22 C 0.15125 -0.14786 0.87718
H40 H 0.14891 -0.18739 0.93475
H41 H 0.15259 -0.31587 0.84882
C23 C 0.13729 -0.01275 0.83936
H42 H 0.13967 0.03108 0.78210
H43 H 0.13573 0.15368 0.86866
C24 C 0.12235 -0.16052 0.83962
H44 H 0.12396 -0.32728 0.81105
H45 H 0.11990 -0.20224 0.89713
C25 C 0.10814 -0.02860 0.80110
H46 H 0.11065 0.01467 0.74403
H47 H 0.10652 0.13755 0.83015
C26 C 0.09270 -0.17478 0.79989
H48 H 0.08858 -0.18135 0.85519
H49 H 0.09431 -0.35242 0.78001
C27 C 0.08094 -0.03231 0.74208
H50 H 0.08559 -0.02576 0.67925
H51 H 0.07910 0.16932 0.76448
C28 C 0.06523 -0.18202 0.74107
H52 H 0.06717 -0.38589 0.72110
H53 H 0.06015 -0.17550 0.80297
C29 C 0.05363 -0.04495 0.68099
H54 H 0.05209 0.16088 0.69996
H55 H 0.05805 -0.05756 0.61774
C30 C 0.03775 -0.18911 0.68220
H56 H 0.03945 -0.39656 0.66546
H57 H 0.03267 -0.17090 0.74387
C31 C 0.02633 -0.05781 0.61995
H58 H 0.02503 0.15130 0.63565
H59 H 0.03074 -0.08208 0.55701
C32 C 0.01028 -0.19600 0.62328
H60 H 0.01173 -0.40642 0.60984
H61 H 0.00521 -0.16616 0.68454
H62 H 0.00226 -0.10690 0.57748
Cu1_2 Cu 0.24300 -0.53180 0.97191
Cu1F Cu 0.25700 0.03180 1.02809
O2F O 0.25297 0.36924 0.86674
O4_2 O 0.23619 0.88404 0.98806
O4F O 0.26381 0.61596 1.01194
loop_
_geom_bond_atom_site_label_1
_geom_bond_atom_site_label_2
_geom_bond_site_symmetry_1
_geom_bond_site_symmetry_2
Cu1 O1 1_555 1_555
O1 C1 1_555 1_555
O2 C1 1_555 1_555
C1 C2 1_555 1_555
C2 H1 1_555 1_555
H2 C2 1_555 1_555
C3 C2 1_555 1_555
H3 C3 1_555 1_555
H4 C3 1_555 1_555
C4 C3 1_555 1_555
H5 C4 1_555 1_555
H6 C4 1_555 1_555
C5 C4 1_555 1_555
H7 C5 1_555 1_555
H8 C5 1_555 1_555
C6 C5 1_555 1_555
H9 C6 1_555 1_555
H10 C6 1_555 1_555
C7 C6 1_555 1_555
H11 C7 1_555 1_555
H12 C7 1_555 1_555
C8 C7 1_555 1_555
H13 C8 1_555 1_555
H14 C8 1_555 1_555
C9 C8 1_555 1_555
H15 C9 1_555 1_555
H16 C9 1_555 1_555
C10 C9 1_555 1_555
H17 C10 1_555 1_555
H18 C10 1_555 1_555
C11 C10 1_555 1_555
H19 C11 1_555 1_555
H20 C11 1_555 1_555
C12 C11 1_555 1_555
H21 C12 1_555 1_555
H22 C12 1_555 1_555
C13 C12 1_555 1_555
H23 C13 1_555 1_555
H24 C13 1_555 1_555
C14 C13 1_555 1_555
H25 C14 1_555 1_555
H26 C14 1_555 1_555
C15 C14 1_555 1_555
H27 C15 1_555 1_555
H28 C15 1_555 1_555
C16 C15 1_555 1_555
H29 C16 1_555 1_555
H30 C16 1_555 1_555
H31 C16 1_555 1_555
O3 Cu1 1_555 1_555
O4 C17 1_555 1_555
C17 O3 1_555 1_555
C18 C17 1_555 1_555
H32 C18 1_555 1_555
H33 C18 1_555 1_555
C19 C18 1_555 1_555
H34 C19 1_555 1_555
H35 C19 1_555 1_555
C20 C19 1_555 1_555
H36 C20 1_555 1_555
H37 C20 1_555 1_555
C21 C20 1_555 1_555
H38 C21 1_555 1_555
H39 C21 1_555 1_555
C22 C21 1_555 1_555
H40 C22 1_555 1_555
H41 C22 1_555 1_555
C23 C22 1_555 1_555
H42 C23 1_555 1_555
H43 C23 1_555 1_555
C24 C23 1_555 1_555
H44 C24 1_555 1_555
H45 C24 1_555 1_555
C25 C24 1_555 1_555
H46 C25 1_555 1_555
H47 C25 1_555 1_555
C26 C25 1_555 1_555
H48 C26 1_555 1_555
H49 C26 1_555 1_555
C27 C26 1_555 1_555
H50 C27 1_555 1_555
H51 C27 1_555 1_555
C28 C27 1_555 1_555
H52 C28 1_555 1_555
H53 C28 1_555 1_555
C29 C28 1_555 1_555
H54 C29 1_555 1_555
H55 C29 1_555 1_555
C30 C29 1_555 1_555
H56 C30 1_555 1_555
H57 C30 1_555 1_555
C31 C30 1_555 1_555
H58 C31 1_555 1_555
H59 C31 1_555 1_555
C32 C31 1_555 1_555
H60 C32 1_555 1_555
H61 C32 1_555 1_555
H62 C32 1_555 1_555
Cu1_2 O4 1_555 1_555
Cu1F O2 1_555 1_555
O2F Cu1 1_555 1_555
O4_2 Cu1 1_555 1_555
O4F Cu1 1_555 1_555
O4 Cu1F 1_555 1_555

#END
