
#######################################################################
#
#                 Cambridge Crystallographic Data Centre
#                                CCDC 
#
#######################################################################
#
# If this CIF has been generated from an entry in the Cambridge 
# Structural Database, then it will include bibliographic, chemical, 
# crystal, experimental, refinement or atomic coordinate data resulting 
# from the CCDC's data processing and validation procedures.
#
#######################################################################

data_FOZCAA
_symmetry_cell_setting           trigonal
_symmetry_space_group_name_H-M   'P 31 2 1'
_symmetry_Int_Tables_number      152
_space_group_name_Hall           'P 31 2"'
loop_
_symmetry_equiv_pos_site_id
_symmetry_equiv_pos_as_xyz
1 x,y,z
2 -y,x-y,1/3+z
3 -x+y,-x,2/3+z
4 y,x,-z
5 x-y,-y,2/3-z
6 -x,-x+y,1/3-z
_cell_length_a                   16.3482(10)
_cell_length_b                   16.3482(10)
_cell_length_c                   19.5011(10)
_cell_angle_alpha                90
_cell_angle_beta                 90
_cell_angle_gamma                120
_cell_volume                     4513.67
loop_
_atom_site_label
_atom_site_type_symbol
_atom_site_fract_x
_atom_site_fract_y
_atom_site_fract_z
C1 C 0.2998(3) 0.7057(3) 0.1377(2)
H1 H 0.2419 0.6638 0.1598
Fe1 Fe 0.46699(5) 0.46699(5) 0.0000
Fe2 Fe 0.50048(4) 0.78314(4) 0.11677(3)
Cl1 Cl 0.94523(9) 1.11878(10) 0.26345(7)
Cl2 Cl 0.12710(11) 0.88100(11) 0.06778(8)
N1 N 0.3686(2) 0.6894(2) 0.14618(15)
N2 N 0.5575(2) 0.7482(2) 0.19539(15)
N3 N 0.5051(2) 0.6621(2) 0.05384(17)
N4 N 0.2648(3) 0.4049(3) 0.0455(2)
N5 N 0.5073(2) 0.4017(3) 0.13924(16)
O1 O 0.4492(2) 0.8209(2) 0.04437(12)
O2 O 0.6204(2) 0.8793(2) 0.09031(13)
C2 C 0.3021(3) 0.7803(3) 0.09836(19)
C3 C 0.2256(3) 0.7952(3) 0.1017(2)
H2 H 0.1756 0.7597 0.1330
C4 C 0.2220(4) 0.8608(3) 0.0602(2)
C5 C 0.2919(4) 0.9118(4) 0.0138(2)
H3 H 0.2884 0.9572 -0.0147
C6 C 0.3668(3) 0.8969(3) 0.0087(2)
H4 H 0.4144 0.9312 -0.0245
C7 C 0.3755(3) 0.8328(3) 0.05101(19)
C8 C 0.3474(3) 0.5997(3) 0.1795(2)
H5 H 0.3584 0.5605 0.1462
H6 H 0.2798 0.5648 0.1924
C9 C 0.4069(3) 0.6137(3) 0.2433(2)
C10 C 0.3955(4) 0.6775(3) 0.2941(2)
H7 H 0.3283 0.6514 0.3046
H8 H 0.4208 0.7406 0.2742
H9 H 0.4298 0.6817 0.3363
C11 C 0.3717(4) 0.5164(3) 0.2739(3)
H10 H 0.4129 0.5209 0.3119
H11 H 0.3722 0.4739 0.2387
H12 H 0.3071 0.4916 0.2910
C12 C 0.5102(3) 0.6527(3) 0.2247(2)
H13 H 0.5448 0.6530 0.2664
H14 H 0.5144 0.6093 0.1913
C13 C 0.6378(3) 0.8100(3) 0.22167(19)
H15 H 0.6566 0.7913 0.2620
C14 C 0.7002(3) 0.9016(3) 0.1972(2)
C15 C 0.7818(3) 0.9613(3) 0.2373(2)
H16 H 0.7906 0.9399 0.2805
C16 C 0.8462(3) 1.0471(3) 0.2145(2)
C17 C 0.8338(3) 1.0809(3) 0.1524(2)
H17 H 0.8788 1.1428 0.1377
C18 C 0.7565(3) 1.0250(3) 0.1120(2)
H18 H 0.7488 1.0485 0.0693
C19 C 0.6892(3) 0.9339(3) 0.13317(19)
C20 C 0.4963(3) 0.5928(3) 0.03392(18)
C21 C 0.4951(3) 0.4308(3) 0.08901(18)
C22 C 0.3394(3) 0.4265(3) 0.0300(2)
C1C C 0.7057(3) 0.2998(3) -0.1377(2)
H1C H 0.6638 0.2419 -0.1598
Fe2C Fe 0.78314(4) 0.50048(4) -0.11677(3)
Cl1C Cl 1.11878(10) 0.94523(9) -0.26345(7)
Cl2C Cl 0.88100(11) 0.12710(11) -0.06778(8)
N1C N 0.6894(2) 0.3686(2) -0.14618(15)
N2C N 0.7482(2) 0.5575(2) -0.19539(15)
N3C N 0.6621(2) 0.5051(2) -0.05384(17)
N4C N 0.4049(3) 0.2648(3) -0.0455(2)
N5C N 0.4017(3) 0.5073(2) -0.13924(16)
O1C O 0.8209(2) 0.4492(2) -0.04437(12)
O2C O 0.8793(2) 0.6204(2) -0.09031(13)
C2C C 0.7803(3) 0.3021(3) -0.09836(19)
C3C C 0.7952(3) 0.2256(3) -0.1017(2)
H2C H 0.7597 0.1756 -0.1330
C4C C 0.8608(3) 0.2220(4) -0.0602(2)
C5C C 0.9118(4) 0.2919(4) -0.0138(2)
H3C H 0.9572 0.2884 0.0147
C6C C 0.8969(3) 0.3668(3) -0.0087(2)
H4C H 0.9312 0.4144 0.0245
C7C C 0.8328(3) 0.3755(3) -0.05101(19)
C8C C 0.5997(3) 0.3474(3) -0.1795(2)
H5C H 0.5605 0.3584 -0.1462
H6C H 0.5648 0.2798 -0.1924
C9C C 0.6137(3) 0.4069(3) -0.2433(2)
C10C C 0.6775(3) 0.3955(4) -0.2941(2)
H7C H 0.6514 0.3283 -0.3046
H8C H 0.7406 0.4208 -0.2742
H9C H 0.6817 0.4298 -0.3363
C11C C 0.5164(3) 0.3717(4) -0.2739(3)
H10C H 0.5209 0.4129 -0.3119
H11C H 0.4739 0.3722 -0.2387
H12C H 0.4916 0.3071 -0.2910
C12C C 0.6527(3) 0.5102(3) -0.2247(2)
H13C H 0.6530 0.5448 -0.2664
H14C H 0.6093 0.5144 -0.1913
C13C C 0.8100(3) 0.6378(3) -0.22167(19)
H15C H 0.7913 0.6566 -0.2620
C14C C 0.9016(3) 0.7002(3) -0.1972(2)
C15C C 0.9613(3) 0.7818(3) -0.2373(2)
H16C H 0.9399 0.7906 -0.2805
C16C C 1.0471(3) 0.8462(3) -0.2145(2)
C17C C 1.0809(3) 0.8338(3) -0.1524(2)
H17C H 1.1428 0.8788 -0.1377
C18C C 1.0250(3) 0.7565(3) -0.1120(2)
H18C H 1.0485 0.7488 -0.0693
C19C C 0.9339(3) 0.6892(3) -0.13317(19)
C20C C 0.5928(3) 0.4963(3) -0.03392(18)
C21C C 0.4308(3) 0.4951(3) -0.08901(18)
C22C C 0.4265(3) 0.3394(3) -0.0300(2)
Fe2B Fe 0.28266(6) 0.49952(4) -0.21656(3)
Fe2E Fe 0.49952(4) 0.28266(6) 0.21656(3)
N5B N 0.8944(4) 0.4927(2) -0.19409(16)
N5E N 0.4927(2) 0.8944(4) 0.19409(16)
N6 N 0.8119(3) 0.8119(3) 0.0000
C23 C 0.6820(6) 0.7348(5) -0.0893(4)
H19 H 0.7192 0.7673 -0.1301
H20 H 0.6159 0.7170 -0.0968
H21 H 0.6862 0.6779 -0.0808
C24 C 0.7190(4) 0.7976(4) -0.0300(3)
H22 H 0.6706 0.7724 0.0066
H23 H 0.7284 0.8602 -0.0434
C25 C 0.8426(4) 0.8864(4) 0.0544(3)
H24 H 0.8505 0.9447 0.0327
H25 H 0.7907 0.8654 0.0882
C26 C 0.9285(5) 0.9105(5) 0.0914(4)
H26 H 0.9256 0.8527 0.1083
H27 H 0.9351 0.9514 0.1303
H28 H 0.9828 0.9438 0.0607
C23C C 0.7348(5) 0.6820(6) 0.0893(4)
H19C H 0.7673 0.7192 0.1301
H20C H 0.7170 0.6159 0.0968
H21C H 0.6779 0.6862 0.0808
C24C C 0.7976(4) 0.7190(4) 0.0300(3)
H22C H 0.7724 0.6706 -0.0066
H23C H 0.8602 0.7284 0.0434
C25C C 0.8864(4) 0.8426(4) -0.0544(3)
H24C H 0.9447 0.8505 -0.0327
H25C H 0.8654 0.7907 -0.0882
C26C C 0.9105(5) 0.9285(5) -0.0914(4)
H26C H 0.8527 0.9256 -0.1083
H27C H 0.9514 0.9351 -0.1303
H28C H 0.9438 0.9828 -0.0607
loop_
_geom_bond_atom_site_label_1
_geom_bond_atom_site_label_2
_geom_bond_site_symmetry_1
_geom_bond_site_symmetry_2
C1 H1 1_555 1_555
Fe1 C20 1_555 1_555
Fe2 N1 1_555 1_555
Cl1 C16 1_555 1_555
Cl2 C4 1_555 1_555
N1 C1 1_555 1_555
N2 Fe2 1_555 1_555
N3 Fe2 1_555 1_555
N4 C22 1_555 1_555
N5 C21 1_555 1_555
O1 Fe2 1_555 1_555
O2 Fe2 1_555 1_555
C2 C1 1_555 1_555
C3 C2 1_555 1_555
H2 C3 1_555 1_555
C4 C3 1_555 1_555
C5 C4 1_555 1_555
H3 C5 1_555 1_555
C6 C5 1_555 1_555
H4 C6 1_555 1_555
C7 O1 1_555 1_555
C8 N1 1_555 1_555
H5 C8 1_555 1_555
H6 C8 1_555 1_555
C9 C8 1_555 1_555
C10 C9 1_555 1_555
H7 C10 1_555 1_555
H8 C10 1_555 1_555
H9 C10 1_555 1_555
C11 C9 1_555 1_555
H10 C11 1_555 1_555
H11 C11 1_555 1_555
H12 C11 1_555 1_555
C12 N2 1_555 1_555
H13 C12 1_555 1_555
H14 C12 1_555 1_555
C13 N2 1_555 1_555
H15 C13 1_555 1_555
C14 C13 1_555 1_555
C15 C14 1_555 1_555
H16 C15 1_555 1_555
C16 C15 1_555 1_555
C17 C16 1_555 1_555
H17 C17 1_555 1_555
C18 C17 1_555 1_555
H18 C18 1_555 1_555
C19 O2 1_555 1_555
C20 N3 1_555 1_555
C21 Fe1 1_555 1_555
C22 Fe1 1_555 1_555
N6 C24 1_555 1_555
C23 H19 1_555 1_555
H20 C23 1_555 1_555
H21 C23 1_555 1_555
C24 C23 1_555 1_555
H22 C24 1_555 1_555
H23 C24 1_555 1_555
C25 N6 1_555 1_555
H24 C25 1_555 1_555
H25 C25 1_555 1_555
C26 C25 1_555 1_555
H26 C26 1_555 1_555
H27 C26 1_555 1_555
H28 C26 1_555 1_555
C1C H1C 1_555 1_555
Fe2C N1C 1_555 1_555
Cl1C C16C 1_555 1_555
Cl2C C4C 1_555 1_555
N1C C1C 1_555 1_555
N2C Fe2C 1_555 1_555
N3C Fe2C 1_555 1_555
N4C C22C 1_555 1_555
N5C C21C 1_555 1_555
O1C Fe2C 1_555 1_555
O2C Fe2C 1_555 1_555
C2C C1C 1_555 1_555
C3C C2C 1_555 1_555
H2C C3C 1_555 1_555
C4C C3C 1_555 1_555
C5C C4C 1_555 1_555
H3C C5C 1_555 1_555
C6C C5C 1_555 1_555
H4C C6C 1_555 1_555
C7C O1C 1_555 1_555
C8C N1C 1_555 1_555
H5C C8C 1_555 1_555
H6C C8C 1_555 1_555
C9C C8C 1_555 1_555
C10C C9C 1_555 1_555
H7C C10C 1_555 1_555
H8C C10C 1_555 1_555
H9C C10C 1_555 1_555
C11C C9C 1_555 1_555
H10C C11C 1_555 1_555
H11C C11C 1_555 1_555
H12C C11C 1_555 1_555
C12C N2C 1_555 1_555
H13C C12C 1_555 1_555
H14C C12C 1_555 1_555
C13C N2C 1_555 1_555
H15C C13C 1_555 1_555
C14C C13C 1_555 1_555
C15C C14C 1_555 1_555
H16C C15C 1_555 1_555
C16C C15C 1_555 1_555
C17C C16C 1_555 1_555
H17C C17C 1_555 1_555
C18C C17C 1_555 1_555
H18C C18C 1_555 1_555
C19C O2C 1_555 1_555
C20C Fe1 1_555 1_555
C21C Fe1 1_555 1_555
C22C Fe1 1_555 1_555
Fe2B N5C 1_555 1_555
Fe2E N5 1_555 1_555
N5B Fe2C 1_555 1_555
N5E Fe2 1_555 1_555
C23C H19C 1_555 1_555
H20C C23C 1_555 1_555
H21C C23C 1_555 1_555
C24C N6 1_555 1_555
H22C C24C 1_555 1_555
H23C C24C 1_555 1_555
C25C N6 1_555 1_555
H24C C25C 1_555 1_555
H25C C25C 1_555 1_555
C26C C25C 1_555 1_555
H26C C26C 1_555 1_555
H27C C26C 1_555 1_555
H28C C26C 1_555 1_555
C2 C7 1_555 1_555
C6 C7 1_555 1_555
C9 C12 1_555 1_555
C14 C19 1_555 1_555
C18 C19 1_555 1_555
N3C C20C 1_555 1_555
C2C C7C 1_555 1_555
C6C C7C 1_555 1_555
C9C C12C 1_555 1_555
C14C C19C 1_555 1_555
C18C C19C 1_555 1_555
C23C C24C 1_555 1_555

#END
