
#######################################################################
#
#                 Cambridge Crystallographic Data Centre
#                                CCDC 
#
#######################################################################
#
# If this CIF has been generated from an entry in the Cambridge 
# Structural Database, then it will include bibliographic, chemical, 
# crystal, experimental, refinement or atomic coordinate data resulting 
# from the CCDC's data processing and validation procedures.
#
#######################################################################

data_FOZGOS
_symmetry_cell_setting           monoclinic
_symmetry_space_group_name_H-M   'P 21/n'
_symmetry_Int_Tables_number      14
_space_group_name_Hall           '-P 2yn'
loop_
_symmetry_equiv_pos_site_id
_symmetry_equiv_pos_as_xyz
1 x,y,z
2 1/2-x,1/2+y,1/2-z
3 -x,-y,-z
4 1/2+x,1/2-y,1/2+z
_cell_length_a                   15.6066(10)
_cell_length_b                   10.2064(5)
_cell_length_c                   16.1781(12)
_cell_angle_alpha                90
_cell_angle_beta                 102.902(7)
_cell_angle_gamma                90
_cell_volume                     2511.9
loop_
_atom_site_label
_atom_site_type_symbol
_atom_site_fract_x
_atom_site_fract_y
_atom_site_fract_z
C1 C 0.38644(18) 0.4054(2) 0.10959(17)
C2 C 0.40467(19) 0.2778(3) 0.08628(18)
C3 C 0.25480(18) 0.2401(2) 0.03489(18)
C4 C 0.23606(17) 0.3547(2) 0.07514(17)
C5 C 0.44801(19) 0.5180(3) 0.13566(19)
C6 C 0.5357(2) 0.5173(3) 0.1341(2)
H1 H 0.5614 0.4430 0.1167
C7 C 0.5853(2) 0.6289(3) 0.1590(3)
H2 H 0.6449 0.6297 0.1590
C8 C 0.5465(2) 0.7376(3) 0.1833(2)
H3 H 0.5792 0.8128 0.2009
C9 C 0.4581(2) 0.7335(3) 0.1814(2)
H4 H 0.4312 0.8079 0.1973
C10 C 0.49304(19) 0.2154(3) 0.1063(2)
C11 C 0.5257(2) 0.1541(3) 0.0453(2)
H5 H 0.4945 0.1537 -0.0109
C12 C 0.6063(2) 0.0924(4) 0.0688(3)
H6 H 0.6302 0.0493 0.0286
C13 C 0.6498(2) 0.0955(3) 0.1508(3)
H7 H 0.7041 0.0546 0.1680
C14 C 0.6128(2) 0.1598(4) 0.2080(3)
H8 H 0.6434 0.1619 0.2643
C15 C 0.18964(18) 0.1534(2) -0.01976(17)
C16 C 0.19581(19) 0.0197(3) -0.01091(19)
H9 H 0.2413 -0.0180 0.0291
C17 C 0.1338(2) -0.0577(3) -0.0621(3)
H10 H 0.1364 -0.1485 -0.0573
C18 C 0.0680(2) 0.0013(3) -0.1202(2)
H11 H 0.0244 -0.0484 -0.1549
C19 C 0.0679(2) 0.1343(3) -0.1262(2)
H12 H 0.0240 0.1734 -0.1672
C20 C 0.14990(18) 0.4008(2) 0.08938(18)
C21 C 0.07551(19) 0.3251(3) 0.0820(2)
H13 H 0.0759 0.2378 0.0655
C22 C 0.0004(2) 0.3796(3) 0.0992(2)
H14 H -0.0505 0.3298 0.0937
C23 C 0.0016(2) 0.5072(3) 0.1245(2)
H15 H -0.0487 0.5462 0.1353
C24 C 0.0779(2) 0.5768(3) 0.1337(2)
H16 H 0.0789 0.6632 0.1521
C25 C 0.24661(19) 0.6378(3) -0.0531(2)
C26 C 0.22751(19) 0.9011(3) 0.19214(18)
N1 N 0.30206(15) 0.43515(19) 0.10687(14)
N2 N 0.33893(15) 0.2017(2) 0.04535(15)
N3 N 0.40925(16) 0.6269(2) 0.15759(15)
N4 N 0.15123(15) 0.5256(2) 0.11710(15)
N5 N 0.53466(17) 0.2202(3) 0.18741(18)
N6 N 0.12660(17) 0.2124(2) -0.07694(17)
N7 N 0.25715(18) 0.6697(3) 0.01664(19)
N8 N 0.24606(18) 0.7954(2) 0.17974(16)
S1 S 0.22862(7) 0.59752(11) -0.15236(7)
S2 S 0.20021(7) 1.05406(7) 0.20360(5)
Ni1 Ni 0.27357(2) 0.61518(3) 0.14170(2)
S2A S 0.29979(7) 0.55406(7) 0.29640(5)
Ni1A Ni 0.22643(2) 1.11518(3) 0.35830(2)
loop_
_geom_bond_atom_site_label_1
_geom_bond_atom_site_label_2
_geom_bond_site_symmetry_1
_geom_bond_site_symmetry_2
C1 C2 1_555 1_555
C2 C10 1_555 1_555
C3 C4 1_555 1_555
C4 C20 1_555 1_555
C5 C1 1_555 1_555
C6 C5 1_555 1_555
H1 C6 1_555 1_555
C7 C6 1_555 1_555
H2 C7 1_555 1_555
C8 C7 1_555 1_555
H3 C8 1_555 1_555
C9 C8 1_555 1_555
H4 C9 1_555 1_555
C10 C11 1_555 1_555
C11 H5 1_555 1_555
C12 C11 1_555 1_555
H6 C12 1_555 1_555
C13 C12 1_555 1_555
H7 C13 1_555 1_555
C14 C13 1_555 1_555
H8 C14 1_555 1_555
C15 C3 1_555 1_555
C16 C15 1_555 1_555
H9 C16 1_555 1_555
C17 C16 1_555 1_555
H10 C17 1_555 1_555
C18 C17 1_555 1_555
H11 C18 1_555 1_555
C19 C18 1_555 1_555
H12 C19 1_555 1_555
C20 C21 1_555 1_555
C21 H13 1_555 1_555
C22 C21 1_555 1_555
H14 C22 1_555 1_555
C23 C22 1_555 1_555
H15 C23 1_555 1_555
C24 C23 1_555 1_555
H16 C24 1_555 1_555
C25 N7 1_555 1_555
C26 N8 1_555 1_555
N1 C1 1_555 1_555
N2 C2 1_555 1_555
N3 C5 1_555 1_555
N4 C20 1_555 1_555
N5 C10 1_555 1_555
N6 C15 1_555 1_555
N7 Ni1 1_555 1_555
N8 Ni1 1_555 1_555
S1 C25 1_555 1_555
S2 C26 1_555 1_555
Ni1 N1 1_555 1_555
S2A Ni1 1_555 1_555
Ni1A S2 1_555 1_555
C3 N2 1_555 1_555
C4 N1 1_555 1_555
C9 N3 1_555 1_555
C14 N5 1_555 1_555
C19 N6 1_555 1_555
C24 N4 1_555 1_555
N3 Ni1 1_555 1_555
N4 Ni1 1_555 1_555

#END
