
#######################################################################
#
#                 Cambridge Crystallographic Data Centre
#                                CCDC 
#
#######################################################################
#
# If this CIF has been generated from an entry in the Cambridge 
# Structural Database, then it will include bibliographic, chemical, 
# crystal, experimental, refinement or atomic coordinate data resulting 
# from the CCDC's data processing and validation procedures.
#
#######################################################################

data_FOZGIM
_symmetry_cell_setting           monoclinic
_symmetry_space_group_name_H-M   'P 21/n'
_symmetry_Int_Tables_number      14
_space_group_name_Hall           '-P 2yn'
loop_
_symmetry_equiv_pos_site_id
_symmetry_equiv_pos_as_xyz
1 x,y,z
2 1/2-x,1/2+y,1/2-z
3 -x,-y,-z
4 1/2+x,1/2-y,1/2+z
_cell_length_a                   15.5906(5)
_cell_length_b                   10.2509(3)
_cell_length_c                   16.2604(6)
_cell_angle_alpha                90
_cell_angle_beta                 102.576(3)
_cell_angle_gamma                90
_cell_volume                     2536.35
loop_
_atom_site_label
_atom_site_type_symbol
_atom_site_fract_x
_atom_site_fract_y
_atom_site_fract_z
Co1 Co 0.77016(3) 0.62459(4) 0.13685(3)
S1 S 0.70565(8) 1.06453(8) 0.20188(6)
S2 S 0.72822(7) 0.60037(12) -0.15722(7)
N1 N 0.90891(16) 0.6238(2) 0.15717(16)
N2 N 0.80064(14) 0.4371(2) 0.10218(14)
N3 N 0.83717(15) 0.2043(2) 0.04026(15)
N4 N 0.65004(15) 0.5230(2) 0.11719(16)
C1 C 0.75360(17) 0.2427(3) 0.02995(17)
N5 N 0.7441(2) 0.8053(2) 0.17535(18)
C2 C 0.68768(18) 0.1574(3) -0.02399(18)
C3 C 0.73444(17) 0.3567(2) 0.07041(17)
C4 C 0.90228(18) 0.2792(3) 0.08150(18)
C5 C 0.64882(18) 0.4013(3) 0.08666(18)
C6 C 0.74465(19) 0.6423(3) -0.0588(2)
C7 C 0.99047(18) 0.2155(3) 0.1021(2)
N6 N 0.75530(18) 0.6721(3) 0.01050(19)
C8 C 0.88427(18) 0.4062(3) 0.10518(18)
N7 N 0.62569(17) 0.2158(2) -0.08156(17)
C9 C 0.5008(2) 0.5031(3) 0.1260(3)
H1 H 0.4506 0.5410 0.1377
C10 C 0.57431(19) 0.3245(3) 0.0782(2)
H2 H 0.5744 0.2388 0.0595
C11 C 0.94666(19) 0.5163(3) 0.13285(19)
C12 C 0.69337(19) 0.0238(3) -0.0150(2)
H3 H 0.7386 -0.0139 0.0247
C13 C 0.4998(2) 0.3773(3) 0.0980(2)
H4 H 0.4490 0.3273 0.0923
N8 N 1.03112(17) 0.2189(3) 0.18291(18)
C14 C 1.0350(2) 0.5152(3) 0.1314(2)
H5 H 1.0603 0.4416 0.1130
C15 C 0.5663(2) 0.1389(3) -0.1302(2)
H6 H 0.5229 0.1781 -0.1711
C16 C 0.5778(2) 0.5721(3) 0.1363(2)
H7 H 0.5796 0.6566 0.1575
C17 C 0.6314(2) -0.0527(3) -0.0656(3)
H8 H 0.6339 -0.1431 -0.0607
C18 C 0.9587(2) 0.7284(3) 0.1831(2)
H9 H 0.9324 0.8017 0.2006
C19 C 0.5657(2) 0.0061(4) -0.1233(2)
H10 H 0.5216 -0.0433 -0.1571
C20 C 1.0471(2) 0.7319(4) 0.1848(3)
H11 H 1.0803 0.8055 0.2042
C21 C 1.0853(2) 0.6247(4) 0.1575(3)
H12 H 1.1448 0.6256 0.1566
C22 C 1.0242(2) 0.1553(4) 0.0411(2)
H13 H 0.9939 0.1560 -0.0149
C23 C 1.1046(2) 0.0935(4) 0.0650(3)
H14 H 1.1296 0.0518 0.0251
C24 C 1.1467(2) 0.0942(4) 0.1471(3)
H15 H 1.2005 0.0522 0.1647
C25 C 1.1084(2) 0.1581(4) 0.2037(3)
H16 H 1.1379 0.1591 0.2599
C26 C 0.7286(2) 0.9110(3) 0.18861(19)
Co1A Co 0.72984(3) 1.12459(4) 0.36315(3)
S1A S 0.79435(8) 0.56453(8) 0.29812(6)
loop_
_geom_bond_atom_site_label_1
_geom_bond_atom_site_label_2
_geom_bond_site_symmetry_1
_geom_bond_site_symmetry_2
Co1 N1 1_555 1_555
S1 C26 1_555 1_555
S2 C6 1_555 1_555
N1 C11 1_555 1_555
N2 Co1 1_555 1_555
N3 C1 1_555 1_555
N4 Co1 1_555 1_555
C1 C2 1_555 1_555
N5 Co1 1_555 1_555
C2 N7 1_555 1_555
C3 N2 1_555 1_555
C4 N3 1_555 1_555
C5 N4 1_555 1_555
C6 N6 1_555 1_555
C7 C4 1_555 1_555
N6 Co1 1_555 1_555
C8 N2 1_555 1_555
N7 C15 1_555 1_555
C9 H1 1_555 1_555
C10 C5 1_555 1_555
H2 C10 1_555 1_555
C11 C8 1_555 1_555
C12 C2 1_555 1_555
H3 C12 1_555 1_555
C13 C9 1_555 1_555
H4 C13 1_555 1_555
N8 C7 1_555 1_555
C14 C11 1_555 1_555
H5 C14 1_555 1_555
C15 H6 1_555 1_555
C16 N4 1_555 1_555
H7 C16 1_555 1_555
C17 C12 1_555 1_555
H8 C17 1_555 1_555
C18 N1 1_555 1_555
H9 C18 1_555 1_555
C19 C15 1_555 1_555
H10 C19 1_555 1_555
C20 C18 1_555 1_555
H11 C20 1_555 1_555
C21 C14 1_555 1_555
H12 C21 1_555 1_555
C22 C7 1_555 1_555
H13 C22 1_555 1_555
C23 C22 1_555 1_555
H14 C23 1_555 1_555
C24 C23 1_555 1_555
H15 C24 1_555 1_555
C25 N8 1_555 1_555
H16 C25 1_555 1_555
C26 N5 1_555 1_555
Co1A S1 1_555 1_555
S1A Co1 1_555 1_555
C1 C3 1_555 1_555
C3 C5 1_555 1_555
C4 C8 1_555 1_555
C9 C16 1_555 1_555
C10 C13 1_555 1_555
C17 C19 1_555 1_555
C20 C21 1_555 1_555
C24 C25 1_555 1_555

#END
