
#######################################################################
#
#                 Cambridge Crystallographic Data Centre
#                                CCDC 
#
#######################################################################
#
# If this CIF has been generated from an entry in the Cambridge 
# Structural Database, then it will include bibliographic, chemical, 
# crystal, experimental, refinement or atomic coordinate data resulting 
# from the CCDC's data processing and validation procedures.
#
#######################################################################

data_FOZHAE
_symmetry_cell_setting           monoclinic
_symmetry_space_group_name_H-M   'P 21/n'
_symmetry_Int_Tables_number      14
_space_group_name_Hall           '-P 2yn'
loop_
_symmetry_equiv_pos_site_id
_symmetry_equiv_pos_as_xyz
1 x,y,z
2 1/2-x,1/2+y,1/2-z
3 -x,-y,-z
4 1/2+x,1/2-y,1/2+z
_cell_length_a                   14.429(2)
_cell_length_b                   14.182(2)
_cell_length_c                   15.115(2)
_cell_angle_alpha                90
_cell_angle_beta                 97.350(3)
_cell_angle_gamma                90
_cell_volume                     3067.6
loop_
_atom_site_label
_atom_site_type_symbol
_atom_site_fract_x
_atom_site_fract_y
_atom_site_fract_z
Hg1 Hg 0.62264(3) 0.75503(3) 0.11123(3)
Cl1 Cl 0.7319(2) 0.6222(2) 0.1270(2)
Cl2 Cl 0.6314(3) 0.8745(2) 0.2279(2)
S1 S 0.4671(2) 0.6736(2) 0.1330(2)
S2 S 0.1475(2) 0.6663(2) 0.4645(2)
O1 O 0.2521(7) 0.6894(7) 0.0298(6)
O2 O 0.0375(7) 0.6909(7) 0.2594(7)
N1 N 0.0811(8) 0.6227(7) 0.0912(8)
C1 C 0.1806(11) 0.6357(12) -0.0237(10)
H2 H 0.2088 0.5948 -0.0661
H3 H 0.1352 0.6785 -0.0580
C2 C 0.2886(10) 0.7670(9) -0.0062(10)
C3 C 0.2610(11) 0.8031(11) -0.0913(10)
H4 H 0.2127 0.7731 -0.1298
C4 C 0.3039(12) 0.8824(11) -0.1195(11)
H5 H 0.2849 0.9066 -0.1776
C5 C 0.3737(11) 0.9272(9) -0.0650(11)
H6 H 0.4023 0.9819 -0.0856
C6 C 0.4030(10) 0.8929(9) 0.0204(9)
H7 H 0.4512 0.9239 0.0583
C7 C 0.3600(8) 0.8112(8) 0.0497(9)
C8 C 0.3889(9) 0.7745(9) 0.1418(9)
H8 H 0.3334 0.7544 0.1692
H9 H 0.4217 0.8243 0.1795
C9 C 0.4902(9) 0.6381(9) 0.2502(9)
H10 H 0.5400 0.5897 0.2571
H11 H 0.5125 0.6933 0.2871
C10 C 0.4038(9) 0.5990(9) 0.2827(9)
C11 C 0.3526(11) 0.5275(10) 0.2357(11)
H12 H 0.3708 0.5053 0.1812
C12 C 0.2750(12) 0.4884(10) 0.2682(11)
H13 H 0.2402 0.4400 0.2356
C13 C 0.2490(11) 0.5197(10) 0.3470(10)
H14 H 0.1971 0.4916 0.3697
C14 C 0.2986(9) 0.5937(9) 0.3953(9)
C15 C 0.3748(8) 0.6318(9) 0.3616(8)
H15 H 0.4083 0.6818 0.3929
C16 C 0.2671(9) 0.6281(9) 0.4811(8)
H16 H 0.3074 0.6812 0.5049
H17 H 0.2742 0.5767 0.5257
C17 C 0.1572(9) 0.7684(9) 0.3923(9)
H18 H 0.1990 0.8163 0.4241
H19 H 0.1842 0.7490 0.3381
C18 C 0.0612(9) 0.8096(9) 0.3668(8)
C19 C 0.0316(10) 0.8860(9) 0.4092(9)
H20 H 0.0723 0.9140 0.4563
C20 C -0.0560(11) 0.9243(10) 0.3858(11)
H21 H -0.0751 0.9788 0.4153
C21 C -0.1147(11) 0.8821(10) 0.3191(11)
H22 H -0.1754 0.9076 0.3029
C22 C -0.0879(10) 0.8027(11) 0.2744(11)
H23 H -0.1295 0.7748 0.2279
C23 C 0.0001(11) 0.7649(10) 0.2986(10)
C24 C -0.0246(11) 0.6300(11) 0.2013(11)
H24 H -0.0701 0.6683 0.1618
H25 H -0.0595 0.5875 0.2371
C25 C 0.0352(9) 0.5747(10) 0.1476(9)
C26 C 0.0385(10) 0.4764(10) 0.1501(10)
H26 H 0.0067 0.4424 0.1911
C27 C 0.0885(12) 0.4294(10) 0.0923(12)
H27 H 0.0885 0.3625 0.0906
C28 C 0.1383(11) 0.4797(11) 0.0372(10)
H28 H 0.1753 0.4484 -0.0014
C29 C 0.1335(9) 0.5777(10) 0.0391(9)
Hg1C Hg 0.12264(3) 0.74497(3) 0.61123(3)
S2C S 0.6475(2) 0.8337(2) -0.0355(2)
O3 O -0.0033(11) 0.7895(10) 0.0368(12)
H1 H 0.026(13) 0.760(12) -0.02(2)
C30 C 0.047(2) 0.8720(15) 0.066(2)
H29 H 0.0047 0.9175 0.0861
H30 H 0.0760 0.8981 0.0182
H31 H 0.0940 0.8564 0.1150
loop_
_geom_bond_atom_site_label_1
_geom_bond_atom_site_label_2
_geom_bond_site_symmetry_1
_geom_bond_site_symmetry_2
Hg1 Cl1 1_555 1_555
Cl2 Hg1 1_555 1_555
S1 Hg1 1_555 1_555
S2 C16 1_555 1_555
O1 C1 1_555 1_555
O2 C23 1_555 1_555
O3 H1 1_555 1_555
N1 C25 1_555 1_555
C1 H2 1_555 1_555
H3 C1 1_555 1_555
C2 O1 1_555 1_555
C3 C2 1_555 1_555
H4 C3 1_555 1_555
C4 C3 1_555 1_555
H5 C4 1_555 1_555
C5 C4 1_555 1_555
H6 C5 1_555 1_555
C6 C5 1_555 1_555
H7 C6 1_555 1_555
C7 C2 1_555 1_555
C8 S1 1_555 1_555
H8 C8 1_555 1_555
H9 C8 1_555 1_555
C9 S1 1_555 1_555
H10 C9 1_555 1_555
H11 C9 1_555 1_555
C10 C9 1_555 1_555
C11 C10 1_555 1_555
H12 C11 1_555 1_555
C12 C11 1_555 1_555
H13 C12 1_555 1_555
C13 C12 1_555 1_555
H14 C13 1_555 1_555
C14 C13 1_555 1_555
C15 C10 1_555 1_555
H15 C15 1_555 1_555
C16 C14 1_555 1_555
H16 C16 1_555 1_555
H17 C16 1_555 1_555
C17 S2 1_555 1_555
H18 C17 1_555 1_555
H19 C17 1_555 1_555
C18 C17 1_555 1_555
C19 C18 1_555 1_555
H20 C19 1_555 1_555
C20 C19 1_555 1_555
H21 C20 1_555 1_555
C21 C20 1_555 1_555
H22 C21 1_555 1_555
C22 C21 1_555 1_555
H23 C22 1_555 1_555
C23 C18 1_555 1_555
C24 O2 1_555 1_555
H24 C24 1_555 1_555
H25 C24 1_555 1_555
C25 C24 1_555 1_555
C26 C25 1_555 1_555
H26 C26 1_555 1_555
C27 C26 1_555 1_555
H27 C27 1_555 1_555
C28 C27 1_555 1_555
H28 C28 1_555 1_555
C29 N1 1_555 1_555
C30 O3 1_555 1_555
H29 C30 1_555 1_555
H30 C30 1_555 1_555
H31 C30 1_555 1_555
Hg1C S2 1_555 1_555
S2C Hg1 1_555 1_555
C1 C29 1_555 1_555
C6 C7 1_555 1_555
C7 C8 1_555 1_555
C14 C15 1_555 1_555
C22 C23 1_555 1_555
C28 C29 1_555 1_555

#END
