
#######################################################################
#
#                 Cambridge Crystallographic Data Centre
#                                CCDC 
#
#######################################################################
#
# If this CIF has been generated from an entry in the Cambridge 
# Structural Database, then it will include bibliographic, chemical, 
# crystal, experimental, refinement or atomic coordinate data resulting 
# from the CCDC's data processing and validation procedures.
#
#######################################################################

data_FOZQUI
_symmetry_cell_setting           monoclinic
_symmetry_space_group_name_H-M   'C 2/c'
_symmetry_Int_Tables_number      15
_space_group_name_Hall           '-C 2yn'
loop_
_symmetry_equiv_pos_site_id
_symmetry_equiv_pos_as_xyz
1 x,y,z
2 -x,y,1/2-z
3 1/2+x,1/2+y,z
4 1/2-x,1/2+y,1/2-z
5 -x,-y,-z
6 x,-y,1/2+z
7 1/2-x,1/2-y,-z
8 1/2+x,1/2-y,1/2+z
_cell_length_a                   21.9803(8)
_cell_length_b                   17.2195(7)
_cell_length_c                   9.2491(3)
_cell_angle_alpha                90
_cell_angle_beta                 105.929(2)
_cell_angle_gamma                90
_cell_volume                     3366.27
loop_
_atom_site_label
_atom_site_type_symbol
_atom_site_fract_x
_atom_site_fract_y
_atom_site_fract_z
N1 N 0.30331(13) -0.14042(16) 0.4069(3)
C1 C 0.33060(17) -0.1840(2) 0.5266(4)
H1 H 0.3622 -0.2187 0.5204
C2 C 0.31357(18) -0.1792(2) 0.6582(4)
H2 H 0.3336 -0.2101 0.7398
O1 O 0.16621(11) 0.22850(13) 0.3111(3)
C3 C 0.11379(16) 0.1953(2) 0.2446(4)
Co1 Co 0.32001(2) 0.16180(2) 0.70403(5)
O2 O 0.17516(11) 0.16754(14) 0.6109(3)
O3 O 0.19131(11) -0.03313(13) 0.5588(2)
N2 N 0.39047(12) 0.10057(16) 0.6503(3)
O4 O 0.25555(10) 0.11431(14) 0.5435(3)
C4 C 0.23800(15) -0.08408(18) 0.5449(4)
C5 C 0.19670(15) 0.12552(18) 0.5301(4)
C6 C 0.15265(14) 0.07793(18) 0.4089(3)
O5 O 0.06937(13) 0.22808(15) 0.1554(3)
C7 C 0.15149(15) -0.00175(18) 0.4276(4)
C8 C 0.10972(16) -0.0493(2) 0.3260(4)
H3 H 0.1095 -0.1027 0.3413
C9 C 0.11089(14) 0.11087(19) 0.2801(4)
C10 C 0.06896(15) 0.0635(2) 0.1793(4)
H4 H 0.0407 0.0852 0.0952
C11 C 0.25755(15) -0.09073(18) 0.4157(4)
H5 H 0.2385 -0.0600 0.3329
C12 C 0.47688(15) 0.0213(2) 0.5314(4)
C13 C 0.06859(16) -0.0159(2) 0.2023(4)
H6 H 0.0402 -0.0470 0.1333
C14 C 0.26676(17) -0.1285(2) 0.6689(4)
H7 H 0.2548 -0.1242 0.7575
C15 C 0.4754(2) 0.1001(2) 0.5358(6)
H8 H 0.5033 0.1291 0.4977
C16 C 0.43465(19) -0.0178(2) 0.5931(6)
H9 H 0.4350 -0.0718 0.5972
C17 C 0.39235(18) 0.0236(2) 0.6482(6)
H10 H 0.3636 -0.0038 0.6858
C18 C 0.4327(2) 0.1372(2) 0.5969(6)
H11 H 0.4336 0.1911 0.6008
N2D N 0.60953(12) -0.10057(16) 0.3497(3)
C12D C 0.52312(15) -0.0213(2) 0.4686(4)
C15D C 0.5246(2) -0.1001(2) 0.4642(6)
H8D H 0.4967 -0.1291 0.5023
C16D C 0.56535(19) 0.0178(2) 0.4069(6)
H9D H 0.5650 0.0718 0.4028
C17D C 0.60765(18) -0.0236(2) 0.3518(6)
H10D H 0.6364 0.0038 0.3142
C18D C 0.5673(2) -0.1372(2) 0.4031(6)
H11D H 0.5664 -0.1911 0.3992
N1D N 0.69669(13) 0.14042(16) 0.5931(3)
C1D C 0.66940(17) 0.1840(2) 0.4734(4)
H1D H 0.6378 0.2187 0.4796
C2D C 0.68643(18) 0.1792(2) 0.3418(4)
H2D H 0.6664 0.2101 0.2602
O1D O 0.83379(11) -0.22850(13) 0.6889(3)
C3D C 0.88621(16) -0.1953(2) 0.7554(4)
Co1D Co 0.67999(2) -0.16180(2) 0.29597(5)
O2D O 0.82484(11) -0.16754(14) 0.3891(3)
O3D O 0.80869(11) 0.03313(13) 0.4412(2)
O4D O 0.74445(10) -0.11431(14) 0.4565(3)
C4D C 0.76200(15) 0.08408(18) 0.4551(4)
C5D C 0.80330(15) -0.12552(18) 0.4699(4)
C6D C 0.84735(14) -0.07793(18) 0.5911(3)
O5D O 0.93063(13) -0.22808(15) 0.8446(3)
C7D C 0.84851(15) 0.00175(18) 0.5724(4)
C8D C 0.89028(16) 0.0493(2) 0.6740(4)
H3D H 0.8905 0.1027 0.6587
C9D C 0.88911(14) -0.11087(19) 0.7199(4)
C10D C 0.93104(15) -0.0635(2) 0.8207(4)
H4D H 0.9593 -0.0852 0.9048
C11D C 0.74245(15) 0.09073(18) 0.5843(4)
H5D H 0.7615 0.0600 0.6671
C13D C 0.93141(16) 0.0159(2) 0.7977(4)
H6D H 0.9598 0.0470 0.8667
C14D C 0.73324(17) 0.1285(2) 0.3311(4)
H7D H 0.7452 0.1242 0.2425
N1A N 0.69669(13) -0.14042(16) 0.0931(3)
N1E N 0.30331(13) 0.14042(16) 0.9069(3)
O1B O 0.66621(11) -0.27150(13) 0.3111(3)
O1F O 0.33379(11) 0.27150(13) 0.6889(3)
Co1A Co 0.67999(2) 0.16180(2) 0.79597(5)
Co1B Co 0.82001(2) -0.33820(2) 0.70403(5)
Co1E Co 0.32001(2) -0.16180(2) 0.20403(5)
Co1F Co 0.17999(2) 0.33820(2) 0.29597(5)
O6 O 0.04633(15) 0.20027(17) 0.5729(4)
H12 H 0.0157 0.1808 0.5059
H13 H 0.0671 0.1642 0.6275
O7 O 0.0000 0.3017(3) 0.7500
H14 H -0.0156 0.2759 0.8096
H14A H 0.0156 0.2759 0.6904
loop_
_geom_bond_atom_site_label_1
_geom_bond_atom_site_label_2
_geom_bond_site_symmetry_1
_geom_bond_site_symmetry_2
N1 C1 1_555 1_555
C1 H1 1_555 1_555
C2 C1 1_555 1_555
H2 C2 1_555 1_555
O1 C3 1_555 1_555
C3 O5 1_555 1_555
Co1 N2 1_555 1_555
O2 C5 1_555 1_555
O3 C4 1_555 1_555
N2 C17 1_555 1_555
O4 Co1 1_555 1_555
C4 C11 1_555 1_555
C5 O4 1_555 1_555
C6 C5 1_555 1_555
C7 O3 1_555 1_555
C8 C7 1_555 1_555
H3 C8 1_555 1_555
C9 C3 1_555 1_555
C10 C9 1_555 1_555
H4 C10 1_555 1_555
C11 N1 1_555 1_555
H5 C11 1_555 1_555
C12 C15 1_555 1_555
C13 C8 1_555 1_555
H6 C13 1_555 1_555
C14 C2 1_555 1_555
H7 C14 1_555 1_555
C15 H8 1_555 1_555
C16 C12 1_555 1_555
H9 C16 1_555 1_555
C17 C16 1_555 1_555
H10 C17 1_555 1_555
C18 N2 1_555 1_555
H11 C18 1_555 1_555
O6 H12 1_555 1_555
H13 O6 1_555 1_555
O7 H14 1_555 1_555
N2D C17D 1_555 1_555
C12D C12 1_555 1_555
C15D C12D 1_555 1_555
H8D C15D 1_555 1_555
C16D C12D 1_555 1_555
H9D C16D 1_555 1_555
C17D C16D 1_555 1_555
H10D C17D 1_555 1_555
C18D N2D 1_555 1_555
H11D C18D 1_555 1_555
N1D C1D 1_555 1_555
C1D H1D 1_555 1_555
C2D C1D 1_555 1_555
H2D C2D 1_555 1_555
O1D C3D 1_555 1_555
C3D O5D 1_555 1_555
Co1D N2D 1_555 1_555
O2D C5D 1_555 1_555
O3D C4D 1_555 1_555
O4D Co1D 1_555 1_555
C4D C11D 1_555 1_555
C5D O4D 1_555 1_555
C6D C5D 1_555 1_555
C7D O3D 1_555 1_555
C8D C7D 1_555 1_555
H3D C8D 1_555 1_555
C9D C3D 1_555 1_555
C10D C9D 1_555 1_555
H4D C10D 1_555 1_555
C11D N1D 1_555 1_555
H5D C11D 1_555 1_555
C13D C8D 1_555 1_555
H6D C13D 1_555 1_555
C14D C2D 1_555 1_555
H7D C14D 1_555 1_555
N1A Co1D 1_555 1_555
N1E Co1 1_555 1_555
O1B Co1D 1_555 1_555
O1F Co1 1_555 1_555
Co1A N1D 1_555 1_555
Co1B O1D 1_555 1_555
Co1E N1 1_555 1_555
Co1F O1 1_555 1_555
H14A O7 1_555 1_555
C4 C14 1_555 1_555
C6 C7 1_555 1_555
C6 C9 1_555 1_555
C10 C13 1_555 1_555
C15 C18 1_555 1_555
C15D C18D 1_555 1_555
C4D C14D 1_555 1_555
C6D C7D 1_555 1_555
C6D C9D 1_555 1_555
C10D C13D 1_555 1_555

#END
