
#######################################################################
#
#                 Cambridge Crystallographic Data Centre
#                                CCDC 
#
#######################################################################
#
# If this CIF has been generated from an entry in the Cambridge 
# Structural Database, then it will include bibliographic, chemical, 
# crystal, experimental, refinement or atomic coordinate data resulting 
# from the CCDC's data processing and validation procedures.
#
#######################################################################

data_FOZSUK
_symmetry_cell_setting           monoclinic
_symmetry_space_group_name_H-M   'P 2/c'
_symmetry_Int_Tables_number      13
_space_group_name_Hall           '-P 2yc'
loop_
_symmetry_equiv_pos_site_id
_symmetry_equiv_pos_as_xyz
1 x,y,z
2 -x,y,1/2-z
3 -x,-y,-z
4 x,-y,1/2+z
_cell_length_a                   16.6868(19)
_cell_length_b                   13.6318(16)
_cell_length_c                   15.1712(18)
_cell_angle_alpha                90
_cell_angle_beta                 107.420(2)
_cell_angle_gamma                90
_cell_volume                     3292.73
loop_
_atom_site_label
_atom_site_type_symbol
_atom_site_fract_x
_atom_site_fract_y
_atom_site_fract_z
C1 C 0.39501(17) 1.0956(2) 0.2330(2)
H1 H 0.4178 1.0957 0.2969
C2 C 0.33756(17) 1.0240(2) 0.1927(2)
H2 H 0.3221 0.9771 0.2290
C3 C 0.30276(15) 1.02239(19) 0.0970(2)
C4 C 0.32871(16) 1.0938(2) 0.0458(2)
H3 H 0.3075 1.0951 -0.0183
C5 C 0.38657(16) 1.1626(2) 0.0922(2)
H4 H 0.4036 1.2100 0.0575
C6 C 0.44065(18) 0.4360(2) 0.1215(3)
H5 H 0.4954 0.4354 0.1183
C7 C 0.38452(19) 0.5013(3) 0.0669(3)
H6 H 0.4016 0.5440 0.0282
C8 C 0.30154(15) 0.5032(2) 0.06989(19)
C9 C 0.28058(16) 0.4383(2) 0.1295(2)
H7 H 0.2263 0.4367 0.1342
C10 C 0.34117(16) 0.3763(2) 0.1817(2)
H8 H 0.3262 0.3334 0.2218
C11 C 0.16263(16) 0.58336(19) 0.00927(18)
C12 C 0.17475(16) 0.7650(2) -0.01529(19)
H9 H 0.2324 0.7616 0.0133
C13 C 0.13685(15) 0.8539(2) -0.04529(18)
C14 C 0.05074(15) 0.85920(19) -0.09141(18)
H10 H 0.0268 0.9192 -0.1140
C15 C 0.00057(15) 0.77602(19) -0.10382(17)
C16 C 0.03927(15) 0.68665(19) -0.06957(17)
H11 H 0.0065 0.6305 -0.0745
C17 C -0.09524(15) 0.78061(19) -0.14783(19)
C18 C -0.12340(16) 0.7007(2) -0.22167(19)
H12 H -0.1111 0.6373 -0.1932
H13 H -0.0940 0.7084 -0.2668
H14 H -0.1827 0.7063 -0.2513
C19 C -0.13634(17) 0.7640(2) -0.0709(2)
H15 H -0.1963 0.7682 -0.0963
H16 H -0.1171 0.8132 -0.0240
H17 H -0.1213 0.7002 -0.0442
C20 C -0.12374(17) 0.8807(2) -0.1929(2)
H18 H -0.0957 0.8939 -0.2383
H19 H -0.1100 0.9310 -0.1464
H20 H -0.1834 0.8798 -0.2220
C21 C 0.18775(16) 0.9468(2) -0.0269(2)
C22 C 0.12571(15) 0.68027(19) -0.02836(17)
Cu1 Cu 0.5000 0.27074(4) 0.2500
N1 N 0.41967(13) 1.16564(17) 0.18396(18)
N2 N 0.42029(13) 0.37352(17) 0.17865(17)
N3 N 0.24728(13) 0.57336(17) 0.01655(17)
N4 N 0.24513(14) 0.94772(17) 0.05991(16)
N5 N 0.3809(2) 0.2813(4) 0.4127(3)
O1 O 0.12187(11) 0.52062(14) 0.03358(15)
O2 O 0.17590(13) 1.01518(15) -0.08158(15)
O3 O 0.3391(3) 0.3494(4) 0.3942(3)
O4 O 0.43609(14) 0.25707(17) 0.37965(18)
O5 O 0.3638(5) 0.2325(8) 0.4685(8)
C1A C 0.60499(17) 1.0956(2) 0.2670(2)
H1A H 0.5822 1.0957 0.2031
C2A C 0.66244(17) 1.0240(2) 0.3073(2)
H2A H 0.6779 0.9771 0.2710
C3A C 0.69724(15) 1.02239(19) 0.4030(2)
C4A C 0.67129(16) 1.0938(2) 0.4542(2)
H3A H 0.6925 1.0951 0.5183
C5A C 0.61343(16) 1.1626(2) 0.4078(2)
H4A H 0.5964 1.2100 0.4425
C6A C 0.55935(18) 0.4360(2) 0.3785(3)
H5A H 0.5046 0.4354 0.3817
C7A C 0.61548(19) 0.5013(3) 0.4331(3)
H6A H 0.5984 0.5440 0.4718
C8A C 0.69846(15) 0.5032(2) 0.43011(19)
C9A C 0.71942(16) 0.4383(2) 0.3705(2)
H7A H 0.7737 0.4367 0.3658
C10A C 0.65883(16) 0.3763(2) 0.3183(2)
H8A H 0.6738 0.3334 0.2782
C11A C 0.83737(16) 0.58336(19) 0.49073(18)
C12A C 0.82525(16) 0.7650(2) 0.51529(19)
H9A H 0.7676 0.7616 0.4867
C13A C 0.86315(15) 0.8539(2) 0.54529(18)
C14A C 0.94926(15) 0.85920(19) 0.59141(18)
H10A H 0.9732 0.9192 0.6140
C15A C 0.99943(15) 0.77602(19) 0.60382(17)
C16A C 0.96073(15) 0.68665(19) 0.56957(17)
H11A H 0.9935 0.6305 0.5745
C17A C 1.09524(15) 0.78061(19) 0.64783(19)
C18A C 1.12340(16) 0.7007(2) 0.72167(19)
H12A H 1.1111 0.6373 0.6932
H13A H 1.0940 0.7084 0.7668
H14A H 1.1827 0.7063 0.7513
C19A C 1.13634(17) 0.7640(2) 0.5709(2)
H15A H 1.1963 0.7682 0.5963
H16A H 1.1171 0.8132 0.5240
H17A H 1.1213 0.7002 0.5442
C20A C 1.12374(17) 0.8807(2) 0.6929(2)
H18A H 1.0957 0.8939 0.7383
H19A H 1.1100 0.9310 0.6464
H20A H 1.1834 0.8798 0.7220
C21A C 0.81225(16) 0.9468(2) 0.5269(2)
C22A C 0.87429(15) 0.68027(19) 0.52836(17)
N1A N 0.58033(13) 1.16564(17) 0.31604(18)
N2A N 0.57971(13) 0.37352(17) 0.32135(17)
N3A N 0.75272(13) 0.57336(17) 0.48345(17)
N4A N 0.75487(14) 0.94772(17) 0.44009(16)
N5A N 0.6191(2) 0.2813(4) 0.0873(3)
O1A O 0.87813(11) 0.52062(14) 0.46642(15)
O2A O 0.82410(13) 1.01518(15) 0.58158(15)
O3A O 0.6609(3) 0.3494(4) 0.1058(3)
O4A O 0.56391(14) 0.25707(17) 0.12035(18)
O5A O 0.6362(5) 0.2325(8) 0.0315(8)
Cu1_2 Cu 0.5000 1.27074(4) 0.2500
N1_2 N 0.41967(13) 0.16564(17) 0.18396(18)
N1A_2 N 0.58033(13) 0.16564(17) 0.31604(18)
C23 C 0.2545(4) 0.6181(3) 0.2732(3)
H21 H 0.2591 0.6291 0.2124
H22 H 0.2099 0.5722 0.2698
H23 H 0.3064 0.5920 0.3123
C24 C 0.2105(3) 0.7049(3) 0.3931(3)
H24 H 0.1963 0.7699 0.4079
H25 H 0.2555 0.6797 0.4434
H26 H 0.1622 0.6631 0.3830
C25 C 0.2370(2) 0.7926(3) 0.2674(2)
H27 H 0.2199 0.8482 0.2925
N6 N 0.23657(19) 0.7081(2) 0.31030(19)
O6 O 0.25802(17) 0.80349(19) 0.19731(17)
C26 C 0.9874(3) 0.5854(3) 0.2877(4)
H28 H 0.9794 0.5263 0.3146
C27 C 0.9732(2) 0.6728(4) 0.3258(3)
H29 H 0.9543 0.6719 0.3776
C28 C 0.98614(18) 0.7610(2) 0.2893(2)
C29 C 0.9713(3) 0.8566(4) 0.3316(4)
H30 H 0.9479 0.8439 0.3811
H31 H 0.9330 0.8961 0.2855
H32 H 1.0237 0.8909 0.3553
C26A C 1.0126(3) 0.5854(3) 0.2123(4)
H28A H 1.0206 0.5263 0.1854
C27A C 1.0268(2) 0.6728(4) 0.1742(3)
H29A H 1.0457 0.6719 0.1224
C28A C 1.01386(18) 0.7610(2) 0.2107(2)
C29A C 1.0287(3) 0.8566(4) 0.1684(4)
H30A H 1.0521 0.8439 0.1189
H31A H 1.0670 0.8961 0.2145
H32A H 0.9763 0.8909 0.1447
loop_
_geom_bond_atom_site_label_1
_geom_bond_atom_site_label_2
_geom_bond_site_symmetry_1
_geom_bond_site_symmetry_2
C1 H1 1_555 1_555
C2 C1 1_555 1_555
H2 C2 1_555 1_555
C3 C2 1_555 1_555
C4 C3 1_555 1_555
H3 C4 1_555 1_555
C5 C4 1_555 1_555
H4 C5 1_555 1_555
C6 H5 1_555 1_555
C7 C6 1_555 1_555
H6 C7 1_555 1_555
C8 C7 1_555 1_555
C9 C8 1_555 1_555
H7 C9 1_555 1_555
C10 C9 1_555 1_555
H8 C10 1_555 1_555
C11 C22 1_555 1_555
C12 H9 1_555 1_555
C13 C12 1_555 1_555
C14 C13 1_555 1_555
H10 C14 1_555 1_555
C15 C14 1_555 1_555
C16 C15 1_555 1_555
H11 C16 1_555 1_555
C17 C15 1_555 1_555
C18 C17 1_555 1_555
H12 C18 1_555 1_555
H13 C18 1_555 1_555
H14 C18 1_555 1_555
C19 C17 1_555 1_555
H15 C19 1_555 1_555
H16 C19 1_555 1_555
H17 C19 1_555 1_555
C20 C17 1_555 1_555
H18 C20 1_555 1_555
H19 C20 1_555 1_555
H20 C20 1_555 1_555
C21 C13 1_555 1_555
C22 C12 1_555 1_555
Cu1 N2 1_555 1_555
N1 C1 1_555 1_555
N2 C6 1_555 1_555
N3 C8 1_555 1_555
N4 C3 1_555 1_555
N5 O3 1_555 1_555
O1 C11 1_555 1_555
O2 C21 1_555 1_555
O4 Cu1 1_555 1_555
O5 N5 1_555 1_555
C23 H21 1_555 1_555
H22 C23 1_555 1_555
H23 C23 1_555 1_555
C24 H24 1_555 1_555
H25 C24 1_555 1_555
H26 C24 1_555 1_555
C25 H27 1_555 1_555
N6 C23 1_555 1_555
O6 C25 1_555 1_555
C26 H28 1_555 1_555
C27 C26 1_555 1_555
H29 C27 1_555 1_555
C28 C27 1_555 1_555
C29 C28 1_555 1_555
H30 C29 1_555 1_555
H31 C29 1_555 1_555
H32 C29 1_555 1_555
C1A H1A 1_555 1_555
C2A C1A 1_555 1_555
H2A C2A 1_555 1_555
C3A C2A 1_555 1_555
C4A C3A 1_555 1_555
H3A C4A 1_555 1_555
C5A C4A 1_555 1_555
H4A C5A 1_555 1_555
C6A H5A 1_555 1_555
C7A C6A 1_555 1_555
H6A C7A 1_555 1_555
C8A C7A 1_555 1_555
C9A C8A 1_555 1_555
H7A C9A 1_555 1_555
C10A C9A 1_555 1_555
H8A C10A 1_555 1_555
C11A C22A 1_555 1_555
C12A H9A 1_555 1_555
C13A C12A 1_555 1_555
C14A C13A 1_555 1_555
H10A C14A 1_555 1_555
C15A C14A 1_555 1_555
C16A C15A 1_555 1_555
H11A C16A 1_555 1_555
C17A C15A 1_555 1_555
C18A C17A 1_555 1_555
H12A C18A 1_555 1_555
H13A C18A 1_555 1_555
H14A C18A 1_555 1_555
C19A C17A 1_555 1_555
H15A C19A 1_555 1_555
H16A C19A 1_555 1_555
H17A C19A 1_555 1_555
C20A C17A 1_555 1_555
H18A C20A 1_555 1_555
H19A C20A 1_555 1_555
H20A C20A 1_555 1_555
C21A C13A 1_555 1_555
C22A C12A 1_555 1_555
N1A C1A 1_555 1_555
N2A Cu1 1_555 1_555
N3A C8A 1_555 1_555
N4A C3A 1_555 1_555
N5A O3A 1_555 1_555
O1A C11A 1_555 1_555
O2A C21A 1_555 1_555
O4A Cu1 1_555 1_555
O5A N5A 1_555 1_555
Cu1_2 N1 1_555 1_555
N1_2 Cu1 1_555 1_555
N1A_2 Cu1 1_555 1_555
C26A C26 1_555 1_555
H28A C26A 1_555 1_555
C27A C26A 1_555 1_555
H29A C27A 1_555 1_555
C28A C28 1_555 1_555
C29A C28A 1_555 1_555
H30A C29A 1_555 1_555
H31A C29A 1_555 1_555
H32A C29A 1_555 1_555
C5 N1 1_555 1_555
C10 N2 1_555 1_555
C11 N3 1_555 1_555
C16 C22 1_555 1_555
C21 N4 1_555 1_555
N5 O4 1_555 1_555
C24 N6 1_555 1_555
C25 N6 1_555 1_555
C5A N1A 1_555 1_555
C6A N2A 1_555 1_555
C10A N2A 1_555 1_555
C11A N3A 1_555 1_555
C16A C22A 1_555 1_555
C21A N4A 1_555 1_555
N1A Cu1_2 1_555 1_555
N5A O4A 1_555 1_555
C27A C28A 1_555 1_555

#END
