
#######################################################################
#
#                 Cambridge Crystallographic Data Centre
#                                CCDC 
#
#######################################################################
#
# If this CIF has been generated from an entry in the Cambridge 
# Structural Database, then it will include bibliographic, chemical, 
# crystal, experimental, refinement or atomic coordinate data resulting 
# from the CCDC's data processing and validation procedures.
#
#######################################################################

data_FOZSIY
_symmetry_cell_setting           monoclinic
_symmetry_space_group_name_H-M   'P 21/n'
_symmetry_Int_Tables_number      14
_space_group_name_Hall           '-P 2yn'
loop_
_symmetry_equiv_pos_site_id
_symmetry_equiv_pos_as_xyz
1 x,y,z
2 1/2-x,1/2+y,1/2-z
3 -x,-y,-z
4 1/2+x,1/2-y,1/2+z
_cell_length_a                   12.3742(14)
_cell_length_b                   29.549(3)
_cell_length_c                   14.0120(16)
_cell_angle_alpha                90
_cell_angle_beta                 97.083(2)
_cell_angle_gamma                90
_cell_volume                     5084.32
loop_
_atom_site_label
_atom_site_type_symbol
_atom_site_fract_x
_atom_site_fract_y
_atom_site_fract_z
S1 S -0.40373(11) 0.19074(5) 0.98293(11)
Cu1 Cu -0.01972(4) 0.20015(2) 0.94794(3)
O1 O -0.0711(2) 0.40197(9) 0.69029(18)
C1 C 0.1060(3) 0.14032(12) 1.7054(3)
H1 H 0.1441 0.1514 1.6571
C2 C 0.1428(3) -0.00002(12) 1.5422(2)
O2 O -0.1599(2) 0.40437(9) 0.17863(18)
O3 O 0.2288(3) 0.01688(9) 1.2243(2)
N1 N 0.0213(3) 0.15485(10) 1.8464(2)
N2 N -0.0499(3) 0.24568(10) 0.8418(2)
N3 N 0.0187(3) 0.15505(10) 1.0537(2)
C3 C 0.1350(3) 0.02270(12) 1.4540(3)
H2 H 0.1082 0.0521 1.4484
C4 C -0.0929(3) 0.30652(12) 0.6903(3)
C5 C 0.0799(3) 0.16841(13) 1.7764(2)
H3 H 0.1037 0.1983 1.7766
C6 C -0.1168(3) 0.38444(13) 0.4339(3)
H4 H -0.1025 0.3536 0.4322
C7 C -0.0098(3) 0.11157(12) 1.8449(3)
H5 H -0.0511 0.1018 1.8921
C8 C 0.0156(3) 0.08027(12) 1.7778(2)
H6 H -0.0066 0.0503 1.7809
N4 N 0.0814(3) 0.05584(10) 1.2660(2)
H7 H 0.0341 0.0552 1.3061
N5 N -0.0544(3) 0.35000(10) 0.2588(2)
H8 H -0.0163 0.3444 0.3130
N6 N -0.1183(3) 0.33589(11) 0.6131(2)
H9 H -0.1468 0.3243 0.5596
C9 C 0.1641(3) 0.02478(12) 1.2816(2)
C10 C 0.2152(3) -0.06669(12) 1.4707(3)
C11 C -0.1018(3) 0.38142(13) 0.6155(3)
N7 N 0.1022(3) 0.06768(10) 1.6298(2)
C12 C -0.1304(3) 0.40931(12) 0.3498(3)
C13 C 0.1813(3) -0.04427(12) 1.5489(3)
H10 H 0.1844 -0.0593 1.6075
C14 C 0.1113(3) 0.02188(12) 1.6310(3)
O4 O 0.0948(2) -0.00151(8) 1.70145(17)
C15 C -0.2807(4) 0.18445(15) 0.9531(3)
C16 C 0.1075(3) 0.12883(12) 1.0577(3)
H11 H 0.1546 0.1336 1.0119
N8 N -0.1943(3) 0.17957(13) 0.9349(3)
C17 C -0.0276(3) 0.11608(13) 1.1928(3)
H12 H -0.0746 0.1130 1.2394
C18 C 0.0403(3) 0.25351(13) 0.1294(3)
H13 H 0.0956 0.2321 0.1390
C19 C -0.1171(3) 0.38841(13) 0.2545(3)
C20 C -0.1491(3) 0.26561(13) 0.6906(3)
H14 H -0.2017 0.2580 0.6399
C21 C 0.0357(3) 0.28563(13) 0.1985(3)
H15 H 0.0857 0.2855 0.2538
C22 C -0.1253(3) 0.23683(13) 0.7669(3)
H16 H -0.1635 0.2097 0.7667
C23 C 0.0047(3) 0.28410(13) 0.8396(3)
H17 H 0.0583 0.2902 0.8906
C24 C 0.0641(3) 0.08806(12) 1.1943(3)
C25 C -0.0125(3) 0.31588(13) 0.7667(3)
H18 H 0.0280 0.3425 0.7685
C26 C 0.2091(3) -0.04325(12) 1.3835(3)
H19 H 0.2329 -0.0571 1.3302
C27 C 0.0751(3) 0.09470(12) 1.7054(2)
C28 C -0.0473(3) 0.14819(13) 1.1213(3)
H20 H -0.1095 0.1660 1.1200
C29 C -0.1188(3) 0.31695(13) 0.1004(3)
H21 H -0.1736 0.3385 0.0879
C30 C -0.0457(3) 0.31888(12) 0.1846(3)
C31 C 0.1336(3) 0.09565(13) 1.1243(2)
H22 H 0.1963 0.0784 1.1232
C32 C -0.1079(3) 0.28243(13) 0.0366(3)
H23 H -0.1579 0.2809 -0.0186
C33 C 0.1679(3) 0.00072(12) 1.3755(3)
C34 C -0.1245(3) 0.40579(13) 0.5208(3)
N9 N -0.0296(3) 0.25074(10) 0.0487(2)
C35 C -0.1711(3) 0.47692(12) 0.4389(3)
C36 C -0.1498(3) 0.45155(13) 0.5235(2)
H24 H -0.1526 0.4656 0.5825
C37 C -0.1593(3) 0.45504(13) 0.3527(3)
H25 H -0.1710 0.4713 0.2955
C38 C -0.2098(3) 0.52586(12) 0.4443(3)
C39 C -0.1908(4) 0.55317(12) 0.3548(3)
H26 H -0.2328 0.5404 0.2992
H27 H -0.1149 0.5523 0.3467
H28 H -0.2127 0.5840 0.3625
C40 C 0.2594(4) -0.11487(14) 1.4797(3)
C41 C -0.1489(4) 0.55033(14) 0.5333(3)
H29 H -0.1676 0.5819 0.5310
H30 H -0.0718 0.5471 0.5329
H31 H -0.1696 0.5372 0.5910
C42 C 0.2534(7) -0.1355(3) 1.5758(6)
H32 H 0.1788 -0.1370 1.5878
H33 H 0.2941 -0.1173 1.6245
H34 H 0.2836 -0.1654 1.5773
C43 C 0.3823(6) -0.1124(2) 1.4771(8)
H35 H 0.4163 -0.0986 1.5352
H36 H 0.3972 -0.0947 1.4228
H37 H 0.4107 -0.1424 1.4718
C44 C -0.3320(3) 0.52488(14) 0.4545(3)
H38 H -0.3581 0.5553 0.4594
H39 H -0.3433 0.5083 0.5114
H40 H -0.3708 0.5104 0.3992
C45 C 0.2112(8) -0.1444(3) 1.4024(6)
H41 H 0.2408 -0.1743 1.4120
H42 H 0.2274 -0.1329 1.3417
H43 H 0.1337 -0.1455 1.4027
Cu1_2 Cu -0.01972(4) 0.20015(2) -0.05206(3)
Cu1_3 Cu -0.01972(4) 0.20015(2) 1.94794(3)
N1_2 N 0.0213(3) 0.15485(10) 0.8464(2)
N9_2 N -0.0296(3) 0.25074(10) 1.0487(2)
N10 N 0.7831(4) 0.78233(14) 0.0292(3)
C46 C 0.7421(4) 0.76699(14) 0.0908(3)
S2 S 0.69724(16) 0.74527(6) 0.18824(12)
loop_
_geom_bond_atom_site_label_1
_geom_bond_atom_site_label_2
_geom_bond_site_symmetry_1
_geom_bond_site_symmetry_2
S1 C15 1_555 1_555
Cu1 N2 1_555 1_555
O1 C11 1_555 1_555
C1 H1 1_555 1_555
C2 C3 1_555 1_555
O2 C19 1_555 1_555
O3 C9 1_555 1_555
N1 C5 1_555 1_555
N2 C22 1_555 1_555
N3 Cu1 1_555 1_555
C3 H2 1_555 1_555
C4 N6 1_555 1_555
C5 C1 1_555 1_555
H3 C5 1_555 1_555
C6 H4 1_555 1_555
C7 N1 1_555 1_555
H5 C7 1_555 1_555
C8 C7 1_555 1_555
H6 C8 1_555 1_555
N4 H7 1_555 1_555
N5 H8 1_555 1_555
N6 H9 1_555 1_555
C9 N4 1_555 1_555
C10 C13 1_555 1_555
C11 N6 1_555 1_555
N7 C14 1_555 1_555
C12 C6 1_555 1_555
C13 C2 1_555 1_555
H10 C13 1_555 1_555
C14 C2 1_555 1_555
O4 C14 1_555 1_555
C15 N8 1_555 1_555
C16 N3 1_555 1_555
H11 C16 1_555 1_555
N8 Cu1 1_555 1_555
C17 H12 1_555 1_555
C18 H13 1_555 1_555
C19 N5 1_555 1_555
C20 C4 1_555 1_555
H14 C20 1_555 1_555
C21 C18 1_555 1_555
H15 C21 1_555 1_555
C22 C20 1_555 1_555
H16 C22 1_555 1_555
C23 N2 1_555 1_555
H17 C23 1_555 1_555
C24 N4 1_555 1_555
C25 C4 1_555 1_555
H18 C25 1_555 1_555
C26 C10 1_555 1_555
H19 C26 1_555 1_555
C27 C1 1_555 1_555
C28 N3 1_555 1_555
H20 C28 1_555 1_555
C29 H21 1_555 1_555
C30 N5 1_555 1_555
C31 C16 1_555 1_555
H22 C31 1_555 1_555
C32 C29 1_555 1_555
H23 C32 1_555 1_555
C33 C3 1_555 1_555
C34 C6 1_555 1_555
N9 C18 1_555 1_555
C35 C36 1_555 1_555
C36 C34 1_555 1_555
H24 C36 1_555 1_555
C37 C12 1_555 1_555
H25 C37 1_555 1_555
C38 C35 1_555 1_555
C39 C38 1_555 1_555
H26 C39 1_555 1_555
H27 C39 1_555 1_555
H28 C39 1_555 1_555
C40 C10 1_555 1_555
C41 C38 1_555 1_555
H29 C41 1_555 1_555
H30 C41 1_555 1_555
H31 C41 1_555 1_555
C42 C40 1_555 1_555
H32 C42 1_555 1_555
H33 C42 1_555 1_555
H34 C42 1_555 1_555
C43 C40 1_555 1_555
H35 C43 1_555 1_555
H36 C43 1_555 1_555
H37 C43 1_555 1_555
C44 C38 1_555 1_555
H38 C44 1_555 1_555
H39 C44 1_555 1_555
H40 C44 1_555 1_555
C45 C40 1_555 1_555
H41 C45 1_555 1_555
H42 C45 1_555 1_555
H43 C45 1_555 1_555
N10 C46 1_555 1_555
C46 S2 1_555 1_555
Cu1_2 N9 1_555 1_555
Cu1_3 N1 1_555 1_555
N1_2 Cu1 1_555 1_555
N9_2 Cu1 1_555 1_555
C8 C27 1_555 1_555
C9 C33 1_555 1_555
C11 C34 1_555 1_555
N7 C27 1_555 1_555
C12 C19 1_555 1_555
C17 C24 1_555 1_555
C17 C28 1_555 1_555
C21 C30 1_555 1_555
C23 C25 1_555 1_555
C24 C31 1_555 1_555
C26 C33 1_555 1_555
C29 C30 1_555 1_555
C32 N9 1_555 1_555
C35 C37 1_555 1_555

#END
