
#######################################################################
#
#                 Cambridge Crystallographic Data Centre
#                                CCDC 
#
#######################################################################
#
# If this CIF has been generated from an entry in the Cambridge 
# Structural Database, then it will include bibliographic, chemical, 
# crystal, experimental, refinement or atomic coordinate data resulting 
# from the CCDC's data processing and validation procedures.
#
#######################################################################

data_FOZTOD
_symmetry_cell_setting           orthorhombic
_symmetry_space_group_name_H-M   'P n a 21'
_symmetry_Int_Tables_number      33
_space_group_name_Hall           'P 2c -2n'
loop_
_symmetry_equiv_pos_site_id
_symmetry_equiv_pos_as_xyz
1 x,y,z
2 -x,-y,1/2+z
3 1/2-x,1/2+y,1/2+z
4 1/2+x,1/2-y,z
_cell_length_a                   7.934(3)
_cell_length_b                   10.652(3)
_cell_length_c                   26.423(7)
_cell_angle_alpha                90
_cell_angle_beta                 90
_cell_angle_gamma                90
_cell_volume                     2233.09
loop_
_atom_site_label
_atom_site_type_symbol
_atom_site_fract_x
_atom_site_fract_y
_atom_site_fract_z
Co1 Co -0.06565(8) -0.2494(1) -0.250
O1 O -0.1565(5) -0.3824(4) -0.1996(2)
O2 O 0.0880(5) -0.4572(4) -0.1715(2)
C1 C -0.0673(8) -0.4567(5) -0.1731(2)
C2 C -0.1656(7) -0.5523(5) -0.1424(2)
C3 C -0.1916(9) -0.6722(6) -0.1610(2)
C4 C -0.2774(9) -0.7597(7) -0.1336(3)
C5 C -0.338(1) -0.7299(7) -0.0870(3)
C6 C -0.315(1) -0.6121(8) -0.0665(3)
C7 C -0.2255(9) -0.5239(6) -0.0946(3)
O3 O -0.1246(7) -0.6911(4) -0.2082(2)
C8 C -0.140(1) -0.8158(8) -0.2286(3)
O4 O -0.1938(8) -0.4033(5) -0.0784(2)
C9 C -0.251(2) -0.372(1) -0.0311(4)
O5 O 0.0213(5) -0.1238(4) -0.3037(2)
O6 O -0.2228(5) -0.0517(4) -0.3328(2)
C10 C -0.0688(8) -0.0681(5) -0.3367(2)
C11 C 0.0180(8) -0.0298(6) -0.3843(2)
C12 C 0.0588(9) 0.0947(6) -0.3925(3)
C13 C 0.145(1) 0.1301(7) -0.4362(3)
C14 C 0.188(1) 0.0403(8) -0.4712(3)
C15 C 0.150(1) -0.0844(8) -0.4641(3)
C16 C 0.0638(9) -0.1182(7) -0.4194(3)
O7 O 0.0125(7) 0.1767(4) -0.3553(2)
C17 C 0.060(1) 0.3038(7) -0.3591(4)
O8 O 0.0167(6) -0.2382(4) -0.4083(2)
C18 C 0.081(1) -0.3370(8) -0.4387(3)
O9 O 0.1835(5) -0.3323(3) -0.2507(2)
O10 O -0.1381(5) -0.3652(4) -0.3101(2)
O11 O 0.0091(6) -0.1322(4) -0.1936(2)
H1 H 0.173(8) -0.387(5) -0.224(2)
H2 H 0.201(8) -0.381(6) -0.275(2)
H3 H -0.251(8) -0.368(6) -0.313(2)
H4 H -0.104(7) -0.345(6) -0.333(2)
H5 H 0.088(8) -0.132(5) -0.192(2)
H6 H -0.048(8) -0.133(5) -0.167(2)
H7 H -0.2947 -0.8414 -0.1470
H8 H -0.3979 -0.7914 -0.0682
H9 H -0.3581 -0.5918 -0.0340
H10 H 0.1745 0.2154 -0.4416
H11 H 0.2444 0.0650 -0.5012
H12 H 0.1814 -0.1457 -0.4884
H13 H -0.0897 -0.8185 -0.2612
H14 H -0.0843 -0.8735 -0.2069
H15 H -0.2556 -0.8375 -0.2311
H16 H -0.2223 -0.2868 -0.0240
H17 H -0.3701 -0.3810 -0.0299
H18 H -0.2005 -0.4249 -0.0066
H19 H 0.0185 0.3485 -0.3305
H20 H 0.1792 0.3098 -0.3601
H21 H 0.0137 0.3388 -0.3891
H22 H 0.0378 -0.4149 -0.4268
H23 H 0.0466 -0.3246 -0.4728
H24 H 0.2002 -0.3376 -0.4368
O9C O -0.3165(5) -0.1677(3) -0.2507(2)
Co1C Co 0.43435(8) -0.2506(1) -0.250
Co1C_2 Co -0.56565(8) -0.2506(1) -0.250
H1C H -0.327(8) -0.113(5) -0.224(2)
H2C H -0.299(8) -0.119(6) -0.275(2)
O1C O 0.3435(5) -0.1176(4) -0.1996(2)
O5C O 0.5213(5) -0.3762(4) -0.3037(2)
O9C_2 O 0.6835(5) -0.1677(3) -0.2507(2)
O10C O 0.3619(5) -0.1348(4) -0.3101(2)
O11C O 0.5091(6) -0.3678(4) -0.1936(2)
C1C C 0.4327(8) -0.0433(5) -0.1731(2)
C10C C 0.4312(8) -0.4319(5) -0.3367(2)
H3C H 0.249(8) -0.132(6) -0.313(2)
H4C H 0.396(7) -0.155(6) -0.333(2)
H5C H 0.588(8) -0.368(5) -0.192(2)
H6C H 0.452(8) -0.367(5) -0.167(2)
O2C O 0.5880(5) -0.0428(4) -0.1715(2)
C2C C 0.3344(7) 0.0523(5) -0.1424(2)
O6C O 0.2772(5) -0.4483(4) -0.3328(2)
C11C C 0.5180(8) -0.4702(6) -0.3843(2)
C3C C 0.3084(9) 0.1722(6) -0.1610(2)
C7C C 0.2745(9) 0.0239(6) -0.0946(3)
C12C C 0.5588(9) -0.5947(6) -0.3925(3)
C16C C 0.5638(9) -0.3818(7) -0.4194(3)
C4C C 0.2226(9) 0.2597(7) -0.1336(3)
O3C O 0.3754(7) 0.1911(4) -0.2082(2)
C6C C 0.185(1) 0.1121(8) -0.0665(3)
O4C O 0.3062(8) -0.0967(5) -0.0784(2)
C13C C 0.645(1) -0.6301(7) -0.4362(3)
O7C O 0.5125(7) -0.6767(4) -0.3553(2)
C15C C 0.650(1) -0.4156(8) -0.4641(3)
O8C O 0.5167(6) -0.2618(4) -0.4083(2)
C5C C 0.162(1) 0.2299(7) -0.0870(3)
H7C H 0.2053 0.3414 -0.1470
C8C C 0.360(1) 0.3158(8) -0.2286(3)
H9C H 0.1419 0.0918 -0.0340
C9C C 0.249(2) -0.128(1) -0.0311(4)
C14C C 0.688(1) -0.5403(8) -0.4712(3)
H10C H 0.6745 -0.7154 -0.4416
C17C C 0.560(1) -0.8038(7) -0.3591(4)
H12C H 0.6814 -0.3543 -0.4884
C18C C 0.581(1) -0.1630(8) -0.4387(3)
H8C H 0.1021 0.2914 -0.0682
H13C H 0.4103 0.3185 -0.2612
H14C H 0.4157 0.3735 -0.2069
H15C H 0.2444 0.3375 -0.2311
H16C H 0.2777 -0.2132 -0.0240
H17C H 0.1299 -0.1190 -0.0299
H18C H 0.2995 -0.0751 -0.0066
H11C H 0.7444 -0.5650 -0.5012
H19C H 0.5185 -0.8485 -0.3305
H20C H 0.6792 -0.8098 -0.3601
H21C H 0.5137 -0.8388 -0.3891
H22C H 0.5378 -0.0851 -0.4268
H23C H 0.5466 -0.1754 -0.4728
H24C H 0.7002 -0.1624 -0.4368
O12 O 0.3298(9) -0.3680(8) -0.1049(2)
loop_
_geom_bond_atom_site_label_1
_geom_bond_atom_site_label_2
_geom_bond_site_symmetry_1
_geom_bond_site_symmetry_2
Co1 O1 1_555 1_555
O1 C1 1_555 1_555
O2 C1 1_555 1_555
C1 C2 1_555 1_555
C2 C3 1_555 1_555
C3 C4 1_555 1_555
C4 C5 1_555 1_555
C5 C6 1_555 1_555
C6 C7 1_555 1_555
C7 C2 1_555 1_555
O3 C3 1_555 1_555
C8 O3 1_555 1_555
O4 C7 1_555 1_555
C9 O4 1_555 1_555
O5 Co1 1_555 1_555
O6 C10 1_555 1_555
C10 O5 1_555 1_555
C11 C10 1_555 1_555
C12 C11 1_555 1_555
C13 C12 1_555 1_555
C14 C13 1_555 1_555
C15 C14 1_555 1_555
C16 C11 1_555 1_555
O7 C12 1_555 1_555
C17 O7 1_555 1_555
O8 C16 1_555 1_555
C18 O8 1_555 1_555
O9 Co1 1_555 1_555
O10 Co1 1_555 1_555
O11 Co1 1_555 1_555
H1 O9 1_555 1_555
H2 O9 1_555 1_555
H3 O10 1_555 1_555
H4 O10 1_555 1_555
H5 O11 1_555 1_555
H6 O11 1_555 1_555
H7 C4 1_555 1_555
H8 C5 1_555 1_555
H9 C6 1_555 1_555
H10 C13 1_555 1_555
H11 C14 1_555 1_555
H12 C15 1_555 1_555
H13 C8 1_555 1_555
H14 C8 1_555 1_555
H15 C8 1_555 1_555
H16 C9 1_555 1_555
H17 C9 1_555 1_555
H18 C9 1_555 1_555
H19 C17 1_555 1_555
H20 C17 1_555 1_555
H21 C17 1_555 1_555
H22 C18 1_555 1_555
H23 C18 1_555 1_555
H24 C18 1_555 1_555
O9C Co1 1_555 1_555
Co1C O9 1_555 1_555
Co1C_2 O9C 1_555 1_555
H1C O9C 1_555 1_555
H2C O9C 1_555 1_555
O1C Co1C 1_555 1_555
O5C Co1C 1_555 1_555
O9C_2 Co1C 1_555 1_555
O10C Co1C 1_555 1_555
O11C Co1C 1_555 1_555
C1C O1C 1_555 1_555
C10C O5C 1_555 1_555
H3C O10C 1_555 1_555
H4C O10C 1_555 1_555
H5C O11C 1_555 1_555
H6C O11C 1_555 1_555
O2C C1C 1_555 1_555
C2C C1C 1_555 1_555
O6C C10C 1_555 1_555
C11C C10C 1_555 1_555
C3C C2C 1_555 1_555
C7C C2C 1_555 1_555
C12C C11C 1_555 1_555
C16C C11C 1_555 1_555
C4C C3C 1_555 1_555
O3C C3C 1_555 1_555
C6C C7C 1_555 1_555
O4C C7C 1_555 1_555
C13C C12C 1_555 1_555
O7C C12C 1_555 1_555
C15C C16C 1_555 1_555
O8C C16C 1_555 1_555
C5C C4C 1_555 1_555
H7C C4C 1_555 1_555
C8C O3C 1_555 1_555
H9C C6C 1_555 1_555
C9C O4C 1_555 1_555
C14C C13C 1_555 1_555
H10C C13C 1_555 1_555
C17C O7C 1_555 1_555
H12C C15C 1_555 1_555
C18C O8C 1_555 1_555
H8C C5C 1_555 1_555
H13C C8C 1_555 1_555
H14C C8C 1_555 1_555
H15C C8C 1_555 1_555
H16C C9C 1_555 1_555
H17C C9C 1_555 1_555
H18C C9C 1_555 1_555
H11C C14C 1_555 1_555
H19C C17C 1_555 1_555
H20C C17C 1_555 1_555
H21C C17C 1_555 1_555
H22C C18C 1_555 1_555
H23C C18C 1_555 1_555
H24C C18C 1_555 1_555
C15 C16 1_555 1_555
C6C C5C 1_555 1_555
C15C C14C 1_555 1_555

#END
