
#######################################################################
#
#                 Cambridge Crystallographic Data Centre
#                                CCDC 
#
#######################################################################
#
# If this CIF has been generated from an entry in the Cambridge 
# Structural Database, then it will include bibliographic, chemical, 
# crystal, experimental, refinement or atomic coordinate data resulting 
# from the CCDC's data processing and validation procedures.
#
#######################################################################

data_FUBCIP
_symmetry_cell_setting           monoclinic
_symmetry_space_group_name_H-M   'P 21/c'
_symmetry_Int_Tables_number      14
_space_group_name_Hall           '-P 2ybc'
loop_
_symmetry_equiv_pos_site_id
_symmetry_equiv_pos_as_xyz
1 x,y,z
2 -x,1/2+y,1/2-z
3 -x,-y,-z
4 x,1/2-y,1/2+z
_cell_length_a                   19.759(2)
_cell_length_b                   5.2496(10)
_cell_length_c                   9.7594(16)
_cell_angle_alpha                90
_cell_angle_beta                 97.2760(10)
_cell_angle_gamma                90
_cell_volume                     1004.16
loop_
_atom_site_label
_atom_site_type_symbol
_atom_site_fract_x
_atom_site_fract_y
_atom_site_fract_z
Cd1 Cd 0.5000 0.5000 0.5000
N1 N 0.41069(17) 0.7078(6) 0.5868(3)
H1 H 0.4262 0.8508 0.6311
H2 H 0.3786 0.7518 0.5170
N2 N 0.1680(2) 0.8055(8) 0.6105(4)
H3 H 0.1460 0.9291 0.6420
O1 O 0.47579(14) 0.2527(5) 0.6774(3)
O2 O 0.42048(16) 0.2526(7) 0.8612(3)
C1 C 0.4308(2) 0.3355(8) 0.7452(4)
C2 C 0.3809(2) 0.5376(8) 0.6831(4)
H4 H 0.3656 0.6391 0.7576
C3 C 0.3197(2) 0.3931(10) 0.6070(5)
H5 H 0.3316 0.3374 0.5184
H6 H 0.3120 0.2417 0.6598
C4 C 0.2349(2) 0.7432(10) 0.6542(5)
H7 H 0.2628 0.8293 0.7230
C5 C 0.2552(2) 0.5367(8) 0.5827(5)
C6 C 0.1958(2) 0.4699(8) 0.4900(5)
C7 C 0.1424(2) 0.6411(10) 0.5097(5)
C8 C 0.0779(3) 0.6201(12) 0.4374(6)
H8 H 0.0434 0.7338 0.4519
C9 C 0.0665(3) 0.4269(12) 0.3438(7)
H9 H 0.0234 0.4097 0.2936
C10 C 0.1172(3) 0.2562(11) 0.3216(5)
H10 H 0.1076 0.1259 0.2575
C11 C 0.1819(2) 0.2764(9) 0.3934(5)
H11 H 0.2158 0.1614 0.3773
Cd1C Cd 0.5000 0.0000 1.0000
Cd1C_2 Cd 0.5000 1.0000 0.0000
N1B N 0.58931(17) 0.2922(6) 0.4132(3)
H1B H 0.5738 0.1492 0.3689
H2B H 0.6214 0.2482 0.4830
N2B N 0.8320(2) 0.1945(8) 0.3895(4)
H3B H 0.8540 0.0709 0.3580
O1B O 0.52421(14) 0.7473(5) 0.3226(3)
O2B O 0.57952(16) 0.7474(7) 0.1388(3)
O2C O 0.42048(16) 0.2474(7) 0.3612(3)
O2A O 0.57952(16) 0.7526(7) 0.6388(3)
C1B C 0.5692(2) 0.6645(8) 0.2548(4)
C2B C 0.6191(2) 0.4624(8) 0.3169(4)
H4B H 0.6344 0.3609 0.2424
C3B C 0.6803(2) 0.6069(10) 0.3930(5)
H5B H 0.6684 0.6626 0.4816
H6B H 0.6880 0.7583 0.3402
C4B C 0.7651(2) 0.2568(10) 0.3458(5)
H7B H 0.7372 0.1707 0.2770
C5B C 0.7448(2) 0.4633(8) 0.4173(5)
C6B C 0.8042(2) 0.5301(8) 0.5100(5)
C7B C 0.8576(2) 0.3589(10) 0.4903(5)
C8B C 0.9221(3) 0.3799(12) 0.5626(6)
H8B H 0.9566 0.2662 0.5481
C9B C 0.9335(3) 0.5731(12) 0.6562(7)
H9B H 0.9766 0.5903 0.7064
C10B C 0.8828(3) 0.7438(11) 0.6784(5)
H10B H 0.8924 0.8741 0.7425
C11B C 0.8181(2) 0.7236(9) 0.6066(5)
H11B H 0.7842 0.8386 0.6227
loop_
_geom_bond_atom_site_label_1
_geom_bond_atom_site_label_2
_geom_bond_site_symmetry_1
_geom_bond_site_symmetry_2
Cd1 N1 1_555 1_555
N1 H1 1_555 1_555
H2 N1 1_555 1_555
N2 H3 1_555 1_555
O1 Cd1 1_555 1_555
O2 C1 1_555 1_555
C1 O1 1_555 1_555
C2 N1 1_555 1_555
H4 C2 1_555 1_555
C3 C2 1_555 1_555
H5 C3 1_555 1_555
H6 C3 1_555 1_555
C4 N2 1_555 1_555
H7 C4 1_555 1_555
C5 C3 1_555 1_555
C6 C5 1_555 1_555
C7 N2 1_555 1_555
C8 C7 1_555 1_555
H8 C8 1_555 1_555
C9 C8 1_555 1_555
H9 C9 1_555 1_555
C10 C9 1_555 1_555
H10 C10 1_555 1_555
C11 C6 1_555 1_555
H11 C11 1_555 1_555
Cd1C O2 1_555 1_555
Cd1C_2 O2B 1_555 1_555
N1B Cd1 1_555 1_555
H1B N1B 1_555 1_555
H2B N1B 1_555 1_555
N2B H3B 1_555 1_555
O1B Cd1 1_555 1_555
O2B C1B 1_555 1_555
O2C Cd1 1_555 1_555
O2A Cd1 1_555 1_555
C1B O1B 1_555 1_555
C2B N1B 1_555 1_555
H4B C2B 1_555 1_555
C3B C2B 1_555 1_555
H5B C3B 1_555 1_555
H6B C3B 1_555 1_555
C4B N2B 1_555 1_555
H7B C4B 1_555 1_555
C5B C3B 1_555 1_555
C6B C5B 1_555 1_555
C7B N2B 1_555 1_555
C8B C7B 1_555 1_555
H8B C8B 1_555 1_555
C9B C8B 1_555 1_555
H9B C9B 1_555 1_555
C10B C9B 1_555 1_555
H10B C10B 1_555 1_555
C11B C6B 1_555 1_555
H11B C11B 1_555 1_555
C1 C2 1_555 1_555
C4 C5 1_555 1_555
C6 C7 1_555 1_555
C10 C11 1_555 1_555
C1B C2B 1_555 1_555
C4B C5B 1_555 1_555
C6B C7B 1_555 1_555
C10B C11B 1_555 1_555

#END
