
#######################################################################
#
#                 Cambridge Crystallographic Data Centre
#                                CCDC 
#
#######################################################################
#
# If this CIF has been generated from an entry in the Cambridge 
# Structural Database, then it will include bibliographic, chemical, 
# crystal, experimental, refinement or atomic coordinate data resulting 
# from the CCDC's data processing and validation procedures.
#
#######################################################################

data_FUBCEM
_symmetry_cell_setting           monoclinic
_symmetry_space_group_name_H-M   'P 21/c'
_symmetry_Int_Tables_number      14
_space_group_name_Hall           '-P 2ybc'
loop_
_symmetry_equiv_pos_site_id
_symmetry_equiv_pos_as_xyz
1 x,y,z
2 -x,1/2+y,1/2-z
3 -x,-y,-z
4 x,1/2-y,1/2+z
_cell_length_a                   10.5340(2)
_cell_length_b                   15.0561(2)
_cell_length_c                   15.8443(3)
_cell_angle_alpha                90
_cell_angle_beta                 96.9290(10)
_cell_angle_gamma                90
_cell_volume                     2494.57
loop_
_atom_site_label
_atom_site_type_symbol
_atom_site_fract_x
_atom_site_fract_y
_atom_site_fract_z
Zn1 Zn 0.01655(3) 0.128937(17) 0.481683(16)
O1 O 0.06988(16) 0.26088(10) 0.51334(10)
O2 O 0.17398(16) 0.07832(11) 0.54458(10)
O3 O 0.11291(17) -0.05441(12) 0.58798(10)
O4 O -0.11246(16) 0.27961(11) 0.42907(10)
O5 O -0.54654(18) 0.06992(14) 1.17185(12)
O6 O -0.50387(17) 0.21358(13) 0.73802(11)
N1 N -0.8943(2) 0.13698(13) 1.36673(13)
N2 N -0.7282(2) 0.15088(15) 1.13855(13)
N3 N -0.10262(19) 0.13349(13) 0.58291(12)
N4 N -0.3041(2) 0.16812(15) 0.79339(13)
N5 N 0.3208(2) -0.01791(15) 0.60211(17)
C1 C -0.9454(3) 0.18256(19) 1.29899(16)
H1 H -1.0218 0.2125 1.3027
C2 C -0.8924(3) 0.18820(18) 1.22383(16)
H2 H -0.9311 0.2227 1.1793
C3 C -0.7807(2) 0.14195(16) 1.21520(15)
C4 C -0.7298(2) 0.09065(18) 1.28326(16)
H3 H -0.6572 0.0564 1.2798
C5 C -0.7886(2) 0.09096(17) 1.35657(16)
H4 H -0.7521 0.0568 1.4021
C6 C -0.6117(3) 0.11874(18) 1.12267(16)
C7 C -0.5677(2) 0.14407(17) 1.03894(16)
C8 C -0.6286(3) 0.2023(2) 0.98069(17)
H5 H -0.7012 0.2324 0.9932
C9 C -0.0552(2) 0.11076(16) 0.66261(15)
H6 H 0.0263 0.0862 0.6713
C10 C -0.1205(2) 0.12171(16) 0.73175(15)
H7 H -0.0834 0.1047 0.7856
C11 C -0.2430(2) 0.15850(16) 0.72082(15)
C12 C -0.2944(2) 0.18108(17) 0.63906(15)
H8 H -0.3762 0.205 0.6285
C13 C -0.2212(2) 0.16720(17) 0.57347(16)
H9 H -0.2568 0.1824 0.5188
C14 C -0.4305(2) 0.18802(16) 0.79829(16)
C15 C -0.4719(2) 0.17447(17) 0.88485(15)
C16 C -0.4082(3) 0.11868(18) 0.94463(17)
H10 H -0.3327 0.0914 0.9336
C17 C -0.4558(3) 0.10303(19) 1.02086(17)
H11 H -0.4125 0.0647 1.0604
C18 C -0.5824(3) 0.2164(2) 0.90339(17)
H12 H -0.626 0.2544 0.8636
C19 C -0.0182(2) 0.30909(15) 0.47605(14)
C20 C -0.0072(2) 0.40755(16) 0.48921(15)
C21 C 0.0702(2) 0.45804(16) 0.44072(16)
C22 C 0.1403(5) 0.4195(3) 0.3770(3)
H13 H 0.1393 0.3581 0.3706
C23 C 0.2088(5) 0.4695(3) 0.3250(3)
H14 H 0.2549 0.4415 0.2861
C24 C -0.0761(2) 0.44855(16) 0.54875(16)
C25 C -0.1464(5) 0.3990(3) 0.6058(3)
H15 H -0.1503 0.3376 0.5999
C26 C -0.2090(5) 0.4379(4) 0.6692(4)
H16 H -0.2495 0.4032 0.7065
C27 C 0.1969(2) 0.00206(16) 0.57662(14)
C28 C 0.3585(4) -0.1031(2) 0.6409(3)
H17 H 0.2854 -0.1415 0.638
H18 H 0.3924 -0.0941 0.6993
H19 H 0.4227 -0.1298 0.611
C29 C 0.4219(3) 0.0470(2) 0.6009(3)
H20 H 0.3887 0.0991 0.571
H21 H 0.4895 0.0224 0.5727
H22 H 0.4545 0.0627 0.6581
H23 H -0.769(3) 0.1839(18) 1.1026(17)
H24 H -0.254(2) 0.1601(16) 0.8397(16)
O1B O -0.06988(16) 0.73912(10) 0.48666(10)
O4B O 0.11246(16) 0.72039(11) 0.57093(10)
C19B C 0.0182(2) 0.69091(15) 0.52395(14)
C20B C 0.0072(2) 0.59245(16) 0.51079(15)
C21B C -0.0702(2) 0.54196(16) 0.55928(16)
C22B C -0.1403(5) 0.5805(3) 0.6230(3)
H13B H -0.1393 0.6419 0.6294
C23B C -0.2088(5) 0.5305(3) 0.6750(3)
H14B H -0.2549 0.5585 0.7139
C24B C 0.0761(2) 0.55145(16) 0.45125(16)
C25B C 0.1464(5) 0.6010(3) 0.3942(3)
H15B H 0.1503 0.6624 0.4001
C26B C 0.2090(5) 0.5621(4) 0.3308(4)
H16B H 0.2495 0.5968 0.2935
Zn1B Zn -0.01655(3) -0.128937(17) 0.518317(16)
O2B O -0.17398(16) -0.07832(11) 0.45542(10)
O3B O -0.11291(17) 0.05441(12) 0.41202(10)
O5B O 0.54654(18) -0.06992(14) -0.17185(12)
O6B O 0.50387(17) -0.21358(13) 0.26198(11)
N1B N 0.8943(2) -0.13698(13) -0.36673(13)
N2B N 0.7282(2) -0.15088(15) -0.13855(13)
N3B N 0.10262(19) -0.13349(13) 0.41709(12)
N4B N 0.3041(2) -0.16812(15) 0.20661(13)
N5B N -0.3208(2) 0.01791(15) 0.39789(17)
C1B C 0.9454(3) -0.18256(19) -0.29899(16)
H1B H 1.0218 -0.2125 -0.3027
C2B C 0.8924(3) -0.18820(18) -0.22383(16)
H2B H 0.9311 -0.2227 -0.1793
C3B C 0.7807(2) -0.14195(16) -0.21520(15)
C4B C 0.7298(2) -0.09065(18) -0.28326(16)
H3B H 0.6572 -0.0564 -0.2798
C5B C 0.7886(2) -0.09096(17) -0.35657(16)
H4B H 0.7521 -0.0568 -0.4021
C6B C 0.6117(3) -0.11874(18) -0.12267(16)
C7B C 0.5677(2) -0.14407(17) -0.03894(16)
C8B C 0.6286(3) -0.2023(2) 0.01931(17)
H5B H 0.7012 -0.2324 0.0068
C9B C 0.0552(2) -0.11076(16) 0.33739(15)
H6B H -0.0263 -0.0862 0.3287
C10B C 0.1205(2) -0.12171(16) 0.26825(15)
H7B H 0.0834 -0.1047 0.2144
C11B C 0.2430(2) -0.15850(16) 0.27918(15)
C12B C 0.2944(2) -0.18108(17) 0.36094(15)
H8B H 0.3762 -0.205 0.3715
C13B C 0.2212(2) -0.16720(17) 0.42653(16)
H9B H 0.2568 -0.1824 0.4812
C14B C 0.4305(2) -0.18802(16) 0.20171(16)
C15B C 0.4719(2) -0.17447(17) 0.11515(15)
C16B C 0.4082(3) -0.11868(18) 0.05537(17)
H10B H 0.3327 -0.0914 0.0664
C17B C 0.4558(3) -0.10303(19) -0.02086(17)
H11B H 0.4125 -0.0647 -0.0604
C18B C 0.5824(3) -0.2164(2) 0.09661(17)
H12B H 0.626 -0.2544 0.1364
C27B C -0.1969(2) -0.00206(16) 0.42338(14)
C28B C -0.3585(4) 0.1031(2) 0.3591(3)
H17B H -0.2854 0.1415 0.362
H18B H -0.3924 0.0941 0.3007
H19B H -0.4227 0.1298 0.389
C29B C -0.4219(3) -0.0470(2) 0.3991(3)
H20B H -0.3887 -0.0991 0.429
H21B H -0.4895 -0.0224 0.4273
H22B H -0.4545 -0.0627 0.3419
H23B H 0.769(3) -0.1839(18) -0.1026(17)
H24B H 0.254(2) -0.1601(16) 0.1603(16)
Zn1_2 Zn -0.98345(3) 0.128937(17) 1.481683(16)
Zn1B_2 Zn -0.01655(3) 0.871063(17) 0.518317(16)
Zn1B_3 Zn 0.98345(3) -0.128937(17) -0.481683(16)
O1B_2 O -0.06988(16) -0.26088(10) 0.48666(10)
N1_2 N 0.1057(2) 0.13698(13) 0.36673(13)
N1B_2 N -0.1057(2) -0.13698(13) 0.63327(13)
loop_
_geom_bond_atom_site_label_1
_geom_bond_atom_site_label_2
_geom_bond_site_symmetry_1
_geom_bond_site_symmetry_2
Zn1 O1 1_555 1_555
O1 C19 1_555 1_555
O2 Zn1 1_555 1_555
O3 C27 1_555 1_555
O4 C19 1_555 1_555
O5 C6 1_555 1_555
O6 C14 1_555 1_555
N1 C1 1_555 1_555
N2 C3 1_555 1_555
N3 Zn1 1_555 1_555
N4 C11 1_555 1_555
N5 C27 1_555 1_555
C1 H1 1_555 1_555
C2 C1 1_555 1_555
H2 C2 1_555 1_555
C3 C2 1_555 1_555
C4 C3 1_555 1_555
H3 C4 1_555 1_555
C5 N1 1_555 1_555
H4 C5 1_555 1_555
C6 N2 1_555 1_555
C7 C6 1_555 1_555
C8 C7 1_555 1_555
H5 C8 1_555 1_555
C9 N3 1_555 1_555
H6 C9 1_555 1_555
C10 C9 1_555 1_555
H7 C10 1_555 1_555
C11 C10 1_555 1_555
C12 C11 1_555 1_555
H8 C12 1_555 1_555
C13 N3 1_555 1_555
H9 C13 1_555 1_555
C14 N4 1_555 1_555
C15 C14 1_555 1_555
C16 C15 1_555 1_555
H10 C16 1_555 1_555
C17 C7 1_555 1_555
H11 C17 1_555 1_555
C18 C8 1_555 1_555
H12 C18 1_555 1_555
C19 C20 1_555 1_555
C20 C21 1_555 1_555
C21 C22 1_555 1_555
C22 H13 1_555 1_555
C23 C22 1_555 1_555
H14 C23 1_555 1_555
C24 C20 1_555 1_555
C25 C24 1_555 1_555
H15 C25 1_555 1_555
C26 C25 1_555 1_555
H16 C26 1_555 1_555
C27 O2 1_555 1_555
C28 N5 1_555 1_555
H17 C28 1_555 1_555
H18 C28 1_555 1_555
H19 C28 1_555 1_555
C29 N5 1_555 1_555
H20 C29 1_555 1_555
H21 C29 1_555 1_555
H22 C29 1_555 1_555
H23 N2 1_555 1_555
H24 N4 1_555 1_555
O1B C19B 1_555 1_555
O4B C19B 1_555 1_555
C19B C20B 1_555 1_555
C20B C21B 1_555 1_555
C21B C24 1_555 1_555
C22B C21B 1_555 1_555
H13B C22B 1_555 1_555
C23B C26 1_555 1_555
H14B C23B 1_555 1_555
C24B C21 1_555 1_555
C25B C24B 1_555 1_555
H15B C25B 1_555 1_555
C26B C23 1_555 1_555
H16B C26B 1_555 1_555
Zn1B O3 1_555 1_555
O2B Zn1B 1_555 1_555
O3B Zn1 1_555 1_555
O5B C6B 1_555 1_555
O6B C14B 1_555 1_555
N1B C1B 1_555 1_555
N2B C3B 1_555 1_555
N3B Zn1B 1_555 1_555
N4B C11B 1_555 1_555
N5B C27B 1_555 1_555
C1B H1B 1_555 1_555
C2B C1B 1_555 1_555
H2B C2B 1_555 1_555
C3B C2B 1_555 1_555
C4B C3B 1_555 1_555
H3B C4B 1_555 1_555
C5B N1B 1_555 1_555
H4B C5B 1_555 1_555
C6B N2B 1_555 1_555
C7B C6B 1_555 1_555
C8B C7B 1_555 1_555
H5B C8B 1_555 1_555
C9B N3B 1_555 1_555
H6B C9B 1_555 1_555
C10B C9B 1_555 1_555
H7B C10B 1_555 1_555
C11B C10B 1_555 1_555
C12B C11B 1_555 1_555
H8B C12B 1_555 1_555
C13B N3B 1_555 1_555
H9B C13B 1_555 1_555
C14B N4B 1_555 1_555
C15B C14B 1_555 1_555
C16B C15B 1_555 1_555
H10B C16B 1_555 1_555
C17B C7B 1_555 1_555
H11B C17B 1_555 1_555
C18B C8B 1_555 1_555
H12B C18B 1_555 1_555
C27B O2B 1_555 1_555
C28B N5B 1_555 1_555
H17B C28B 1_555 1_555
H18B C28B 1_555 1_555
H19B C28B 1_555 1_555
C29B N5B 1_555 1_555
H20B C29B 1_555 1_555
H21B C29B 1_555 1_555
H22B C29B 1_555 1_555
H23B N2B 1_555 1_555
H24B N4B 1_555 1_555
Zn1_2 N1 1_555 1_555
Zn1B_2 O1B 1_555 1_555
Zn1B_3 N1B 1_555 1_555
O1B_2 Zn1B 1_555 1_555
N1_2 Zn1 1_555 1_555
N1B_2 Zn1B 1_555 1_555
C4 C5 1_555 1_555
C12 C13 1_555 1_555
C15 C18 1_555 1_555
C16 C17 1_555 1_555
C20B C24B 1_555 1_555
C22B C23B 1_555 1_555
C25B C26B 1_555 1_555
O3B C27B 1_555 1_555
C4B C5B 1_555 1_555
C12B C13B 1_555 1_555
C15B C18B 1_555 1_555
C16B C17B 1_555 1_555

#END
