
#######################################################################
#
#                 Cambridge Crystallographic Data Centre
#                                CCDC 
#
#######################################################################
#
# If this CIF has been generated from an entry in the Cambridge 
# Structural Database, then it will include bibliographic, chemical, 
# crystal, experimental, refinement or atomic coordinate data resulting 
# from the CCDC's data processing and validation procedures.
#
#######################################################################

data_FUBDIR
_symmetry_cell_setting           triclinic
_symmetry_space_group_name_H-M   'P -1'
_symmetry_Int_Tables_number      2
_space_group_name_Hall           '-P 1'
loop_
_symmetry_equiv_pos_site_id
_symmetry_equiv_pos_as_xyz
1 x,y,z
2 -x,-y,-z
_cell_length_a                   11.705(5)
_cell_length_b                   13.456(5)
_cell_length_c                   18.636(5)
_cell_angle_alpha                95.216(5)
_cell_angle_beta                 90.707(5)
_cell_angle_gamma                109.834(5)
_cell_volume                     2746.74
loop_
_atom_site_label
_atom_site_type_symbol
_atom_site_fract_x
_atom_site_fract_y
_atom_site_fract_z
Zn1 Zn 0.71695(4) 0.70368(4) 0.55182(3)
Zn2 Zn 1.45644(4) 0.71899(4) 0.20380(3)
C1 C 2.0622(4) 1.0560(3) 0.7450(3)
C2 C 1.9754(4) 1.0302(4) 0.6901(3)
H1 H 1.9976 1.0378 0.6426
C3 C 1.8532(4) 0.9924(4) 0.7064(3)
H2 H 1.7939 0.9742 0.6692
C4 C 1.8183(4) 0.9814(3) 0.7765(3)
C5 C 1.9089(4) 1.0097(4) 0.8311(3)
H3 H 1.8879 1.0041 0.8789
C6 C 2.0309(4) 1.0463(4) 0.8146(3)
H4 H 2.0910 1.0642 0.8513
C7 C 1.6916(4) 0.9308(4) 0.7936(3)
C8 C 1.4932(4) 0.8769(3) 0.7905(3)
C9 C 1.3658(4) 0.8581(3) 0.7689(3)
C10 C 1.3255(4) 0.8359(4) 0.6966(3)
H5 H 1.3805 0.8395 0.6605
C11 C 1.2032(4) 0.8084(4) 0.6790(3)
H6 H 1.1764 0.7940 0.6307
C12 C 1.1213(4) 0.8020(3) 0.7309(2)
C13 C 1.1593(4) 0.8235(4) 0.8023(3)
H7 H 1.1030 0.8191 0.8378
C14 C 1.2806(4) 0.8516(4) 0.8212(3)
H8 H 1.3062 0.8665 0.8697
C15 C 0.9443(4) 0.7648(4) 0.6440(3)
H9 H 0.9897 0.7807 0.6034
C16 C 0.8984(4) 0.7439(4) 0.7555(3)
H10 H 0.9025 0.7410 0.8051
C17 C 0.7976(4) 0.7217(4) 0.7130(3)
H11 H 0.7189 0.7011 0.7291
C18 C 2.2781(4) 1.1574(4) 0.7745(3)
H12 H 2.2675 1.1782 0.8222
C19 C 2.2396(4) 1.0825(4) 0.6647(3)
H13 H 2.2001 1.0425 0.6226
C20 C 2.3593(4) 1.1382(4) 0.6743(3)
H14 H 2.4161 1.1441 0.6390
C21 C 0.8625(5) 0.6329(5) 0.4652(3)
C22 C 1.0461(5) 0.7340(4) 0.4011(3)
H15 H 1.0342 0.7962 0.4194
C23 C 1.1403(5) 0.7403(4) 0.3570(3)
H16 H 1.1913 0.8060 0.3453
C24 C 1.1591(4) 0.6495(4) 0.3303(3)
C25 C 1.0817(4) 0.5539(4) 0.3484(3)
H17 H 1.0924 0.4914 0.3295
C26 C 0.9903(4) 0.5488(4) 0.3933(3)
H18 H 0.9417 0.4834 0.4067
C27 C 0.9686(4) 0.6385(4) 0.4191(3)
C28 C -0.4321(4) 0.5850(4) 1.1184(2)
H19 H -0.3790 0.6454 1.1007
C29 C -0.5722(4) 0.4822(4) 1.1764(3)
H20 H -0.6359 0.4581 1.2069
C30 C -0.5212(4) 0.4204(4) 1.1377(3)
H21 H -0.5425 0.3472 1.1367
C31 C -0.3509(4) 0.4597(4) 1.0513(2)
C32 C -0.3293(5) 0.3674(4) 1.0520(3)
H22 H -0.3716 0.3174 1.0823
C33 C -0.2436(4) 0.3474(4) 1.0073(3)
H23 H -0.2296 0.2834 1.0079
C34 C -0.1797(4) 0.4194(4) 0.9628(3)
C35 C -0.2102(5) 0.5095(5) 0.9606(3)
H24 H -0.1714 0.5588 0.9290
C36 C -0.2955(5) 0.5281(5) 1.0034(3)
H25 H -0.3159 0.5886 0.9997
C37 C -0.0855(4) 0.3971(4) 0.9192(2)
C38 C 0.0542(4) 0.4020(4) 0.8421(3)
C39 C 0.1413(4) 0.4298(4) 0.7863(2)
C40 C 0.1653(4) 0.3499(4) 0.7454(2)
H26 H 0.1193 0.2800 0.7514
C41 C 0.2545(4) 0.3682(3) 0.6956(2)
H27 H 0.2670 0.3122 0.6678
C42 C 0.3242(4) 0.4713(3) 0.6883(2)
C43 C 0.3012(4) 0.5536(4) 0.7267(3)
H28 H 0.3476 0.6234 0.7204
C44 C 0.2100(4) 0.5334(4) 0.7745(3)
H29 H 0.1938 0.5898 0.7995
C45 C 0.4840(4) 0.5807(4) 0.6128(2)
H30 H 0.4587 0.6393 0.6155
C46 C 0.4899(4) 0.4244(4) 0.6260(3)
H31 H 0.4718 0.3555 0.6385
C47 C 0.5847(4) 0.4784(4) 0.5880(3)
H32 H 0.6439 0.4522 0.5702
C48 C 0.6647(5) 0.8859(5) 0.5303(3)
C49 C 0.5785(5) 0.9463(4) 0.5148(2)
C50 C 0.4556(5) 0.8947(4) 0.5083(3)
H33 H 0.4241 0.8224 0.5130
C51 C 0.6234(5) 1.0506(4) 0.5054(3)
H34 H 0.7070 1.0861 0.5081
C52 C 1.5177(6) 0.8383(4) 0.0879(3)
C53 C 1.5079(5) 0.9224(4) 0.0420(3)
C54 C 1.6068(5) 0.9790(4) 0.0061(3)
H35 H 1.6795 0.9659 0.0107
C55 C 1.4002(5) 0.9446(4) 0.0370(3)
H36 H 1.3335 0.9083 0.0624
C56 C 1.2592(5) 0.6527(5) 0.2795(3)
N1 N 2.3850(3) 1.1850(3) 0.7441(2)
N2 N 2.1868(3) 1.0957(3) 0.7284(2)
N3 N 1.6545(3) 0.8621(3) 0.8406(2)
N4 N 1.5273(3) 0.8264(3) 0.8387(2)
N5 N 1.5921(3) 0.9433(3) 0.7607(2)
N6 N 1.5905(4) 1.0193(3) 0.7138(3)
H37 H 1.6258 1.0846 0.7370
H38 H 1.6330 1.0115 0.6750
N7 N 0.9936(3) 0.7714(3) 0.7110(2)
N8 N 0.8268(3) 0.7338(3) 0.6428(2)
N9 N -0.5156(3) 0.5867(3) 1.1640(2)
N10 N -0.4317(3) 0.4863(3) 1.10000(19)
N11 N -0.0525(4) 0.3137(4) 0.9245(2)
N12 N 0.0353(4) 0.3161(4) 0.8754(2)
N13 N -0.0186(3) 0.4549(3) 0.8689(2)
N14 N -0.0207(4) 0.5491(3) 0.8412(2)
H39 H -0.0917 0.5351 0.8169
H40 H -0.0136 0.5987 0.8776
N15 N 0.4258(3) 0.4909(3) 0.6423(2)
N16 N 0.5809(3) 0.5763(3) 0.5796(2)
O1 O 0.8381(3) 0.7178(3) 0.47854(18)
O2 O 0.8039(3) 0.5495(3) 0.4896(2)
O3 O 1.2484(3) 0.5733(3) 0.2362(2)
O4 O 0.6190(3) 0.7935(3) 0.5408(2)
O5 O 0.7774(4) 0.9351(3) 0.5302(2)
O6 O 1.4337(3) 0.8092(3) 0.1331(2)
O7 O 1.6013(4) 0.8038(3) 0.08022(19)
O8 O 1.3489(3) 0.7359(3) 0.2811(2)
C48A C 0.3353(5) 1.1141(5) 0.4697(3)
C49A C 0.4215(5) 1.0537(4) 0.4852(2)
C50A C 0.5444(5) 1.1053(4) 0.4917(3)
H33A H 0.5759 1.1776 0.4870
C51A C 0.3766(5) 0.9494(4) 0.4946(3)
H34A H 0.2930 0.9139 0.4919
O4A O 0.3810(3) 1.2065(3) 0.4592(2)
O5A O 0.2226(4) 1.0649(3) 0.4698(2)
C52A C 1.4823(6) 1.1617(4) -0.0879(3)
C53A C 1.4921(5) 1.0776(4) -0.0420(3)
C54A C 1.3932(5) 1.0210(4) -0.0061(3)
H35A H 1.3205 1.0341 -0.0107
C55A C 1.5998(5) 1.0554(4) -0.0370(3)
H36A H 1.6665 1.0917 -0.0624
O6A O 1.5663(3) 1.1908(3) -0.1331(2)
O7A O 1.3987(4) 1.1962(3) -0.08022(19)
Zn1A Zn 0.28305(4) 1.29632(4) 0.44818(3)
Zn2A Zn -0.45644(4) 1.28101(4) 0.79620(3)
C1A C -1.0622(4) 0.9440(3) 0.2550(3)
C2A C -0.9754(4) 0.9698(4) 0.3099(3)
H1A H -0.9976 0.9622 0.3574
C3A C -0.8532(4) 1.0076(4) 0.2936(3)
H2A H -0.7939 1.0258 0.3308
C4A C -0.8183(4) 1.0186(3) 0.2235(3)
C5A C -0.9089(4) 0.9903(4) 0.1689(3)
H3A H -0.8879 0.9959 0.1211
C6A C -1.0309(4) 0.9537(4) 0.1854(3)
H4A H -1.0910 0.9358 0.1487
C7A C -0.6916(4) 1.0692(4) 0.2064(3)
C8A C -0.4932(4) 1.1231(3) 0.2095(3)
C9A C -0.3658(4) 1.1419(3) 0.2311(3)
C10A C -0.3255(4) 1.1641(4) 0.3034(3)
H5A H -0.3805 1.1605 0.3395
C11A C -0.2032(4) 1.1916(4) 0.3210(3)
H6A H -0.1764 1.2060 0.3693
C12A C -0.1213(4) 1.1980(3) 0.2691(2)
C13A C -0.1593(4) 1.1765(4) 0.1977(3)
H7A H -0.1030 1.1809 0.1622
C14A C -0.2806(4) 1.1484(4) 0.1788(3)
H8A H -0.3062 1.1335 0.1303
C15A C 0.0557(4) 1.2352(4) 0.3560(3)
H9A H 0.0103 1.2193 0.3966
C16A C 0.1016(4) 1.2561(4) 0.2445(3)
H10A H 0.0975 1.2590 0.1949
C17A C 0.2024(4) 1.2783(4) 0.2870(3)
H11A H 0.2811 1.2989 0.2709
C18A C -1.2781(4) 0.8426(4) 0.2255(3)
H12A H -1.2675 0.8218 0.1778
C19A C -1.2396(4) 0.9175(4) 0.3353(3)
H13A H -1.2001 0.9575 0.3774
C20A C -1.3593(4) 0.8618(4) 0.3257(3)
H14A H -1.4161 0.8559 0.3610
C21A C 0.1375(5) 1.3671(5) 0.5348(3)
C22A C -0.0461(5) 1.2660(4) 0.5989(3)
H15A H -0.0342 1.2038 0.5806
C23A C -0.1403(5) 1.2597(4) 0.6430(3)
H16A H -0.1913 1.1940 0.6547
C24A C -0.1591(4) 1.3505(4) 0.6697(3)
C25A C -0.0817(4) 1.4461(4) 0.6516(3)
H17A H -0.0924 1.5086 0.6705
C26A C 0.0097(4) 1.4512(4) 0.6067(3)
H18A H 0.0583 1.5166 0.5933
C27A C 0.0314(4) 1.3615(4) 0.5809(3)
C28A C 1.4321(4) 1.4150(4) -0.1184(2)
H19A H 1.3790 1.3546 -0.1007
C29A C 1.5722(4) 1.5178(4) -0.1764(3)
H20A H 1.6359 1.5419 -0.2069
C30A C 1.5212(4) 1.5796(4) -0.1377(3)
H21A H 1.5425 1.6528 -0.1367
C31A C 1.3509(4) 1.5403(4) -0.0513(2)
C32A C 1.3293(5) 1.6326(4) -0.0520(3)
H22A H 1.3716 1.6826 -0.0823
C33A C 1.2436(4) 1.6526(4) -0.0073(3)
H23A H 1.2296 1.7166 -0.0079
C34A C 1.1797(4) 1.5806(4) 0.0372(3)
C35A C 1.2102(5) 1.4905(5) 0.0394(3)
H24A H 1.1714 1.4412 0.0710
C36A C 1.2955(5) 1.4719(5) -0.0034(3)
H25A H 1.3159 1.4114 0.0003
C37A C 1.0855(4) 1.6029(4) 0.0808(2)
C38A C 0.9458(4) 1.5980(4) 0.1579(3)
C39A C 0.8587(4) 1.5702(4) 0.2137(2)
C40A C 0.8347(4) 1.6501(4) 0.2546(2)
H26A H 0.8807 1.7200 0.2486
C41A C 0.7455(4) 1.6318(3) 0.3044(2)
H27A H 0.7330 1.6878 0.3322
C42A C 0.6758(4) 1.5287(3) 0.3117(2)
C43A C 0.6988(4) 1.4464(4) 0.2733(3)
H28A H 0.6524 1.3766 0.2796
C44A C 0.7900(4) 1.4666(4) 0.2255(3)
H29A H 0.8062 1.4102 0.2005
C45A C 0.5160(4) 1.4193(4) 0.3872(2)
H30A H 0.5413 1.3607 0.3845
C46A C 0.5101(4) 1.5756(4) 0.3740(3)
H31A H 0.5282 1.6445 0.3615
C47A C 0.4153(4) 1.5216(4) 0.4120(3)
H32A H 0.3561 1.5478 0.4298
C56A C -0.2592(5) 1.3473(5) 0.7205(3)
N1A N -1.3850(3) 0.8150(3) 0.2559(2)
N2A N -1.1868(3) 0.9043(3) 0.2716(2)
N3A N -0.6545(3) 1.1379(3) 0.1594(2)
N4A N -0.5273(3) 1.1736(3) 0.1613(2)
N5A N -0.5921(3) 1.0567(3) 0.2393(2)
N6A N -0.5905(4) 0.9807(3) 0.2862(3)
H37A H -0.6258 0.9154 0.2630
H38A H -0.6330 0.9885 0.3250
N7A N 0.0064(3) 1.2286(3) 0.2890(2)
N8A N 0.1732(3) 1.2662(3) 0.3572(2)
N9A N 1.5156(3) 1.4133(3) -0.1640(2)
N10A N 1.4317(3) 1.5137(3) -0.10000(19)
N11A N 1.0525(4) 1.6863(4) 0.0755(2)
N12A N 0.9647(4) 1.6839(4) 0.1246(2)
N13A N 1.0186(3) 1.5451(3) 0.1311(2)
N14A N 1.0207(4) 1.4509(3) 0.1588(2)
H39A H 1.0917 1.4649 0.1831
H40A H 1.0136 1.4013 0.1224
N15A N 0.5742(3) 1.5091(3) 0.3577(2)
N16A N 0.4191(3) 1.4237(3) 0.4204(2)
O1A O 0.1619(3) 1.2822(3) 0.52146(18)
O2A O 0.1961(3) 1.4505(3) 0.5104(2)
O3A O -0.2484(3) 1.4267(3) 0.7638(2)
O8A O -0.3489(3) 1.2641(3) 0.7189(2)
Zn2_2 Zn -1.54356(4) 0.71899(4) 0.20380(3)
Zn2_3 Zn -0.54356(4) 0.71899(4) 1.20380(3)
Zn2A_2 Zn 1.54356(4) 1.28101(4) -0.20380(3)
Zn2A_3 Zn 2.54356(4) 1.28101(4) 0.79620(3)
N1_2 N -0.6150(3) 1.1850(3) 0.7441(2)
N1A_2 N 1.6150(3) 0.8150(3) 0.2559(2)
N9_2 N 1.4844(3) 0.5867(3) 0.1640(2)
N9A_2 N -0.4844(3) 1.4133(3) 0.8360(2)
O6A_2 O -0.4337(3) 1.1908(3) 0.8669(2)
loop_
_geom_bond_atom_site_label_1
_geom_bond_atom_site_label_2
_geom_bond_site_symmetry_1
_geom_bond_site_symmetry_2
Zn1 N8 1_555 1_555
Zn2 O6 1_555 1_555
C1 C2 1_555 1_555
C2 H1 1_555 1_555
C3 C2 1_555 1_555
H2 C3 1_555 1_555
C4 C3 1_555 1_555
C5 C4 1_555 1_555
H3 C5 1_555 1_555
C6 C1 1_555 1_555
H4 C6 1_555 1_555
C7 C4 1_555 1_555
C8 C9 1_555 1_555
C9 C10 1_555 1_555
C10 H5 1_555 1_555
C11 C10 1_555 1_555
H6 C11 1_555 1_555
C12 C11 1_555 1_555
C13 C12 1_555 1_555
H7 C13 1_555 1_555
C14 C9 1_555 1_555
H8 C14 1_555 1_555
C15 H9 1_555 1_555
C16 H10 1_555 1_555
C17 C16 1_555 1_555
H11 C17 1_555 1_555
C18 H12 1_555 1_555
C19 H13 1_555 1_555
C20 C19 1_555 1_555
H14 C20 1_555 1_555
C21 C27 1_555 1_555
C22 H15 1_555 1_555
C23 C22 1_555 1_555
H16 C23 1_555 1_555
C24 C23 1_555 1_555
C25 C24 1_555 1_555
H17 C25 1_555 1_555
C26 C25 1_555 1_555
H18 C26 1_555 1_555
C27 C22 1_555 1_555
C28 H19 1_555 1_555
C29 H20 1_555 1_555
C30 C29 1_555 1_555
H21 C30 1_555 1_555
C31 C32 1_555 1_555
C32 H22 1_555 1_555
C33 C32 1_555 1_555
H23 C33 1_555 1_555
C34 C33 1_555 1_555
C35 C34 1_555 1_555
H24 C35 1_555 1_555
C36 C31 1_555 1_555
H25 C36 1_555 1_555
C37 C34 1_555 1_555
C38 C39 1_555 1_555
C39 C40 1_555 1_555
C40 H26 1_555 1_555
C41 C40 1_555 1_555
H27 C41 1_555 1_555
C42 C41 1_555 1_555
C43 C42 1_555 1_555
H28 C43 1_555 1_555
C44 C39 1_555 1_555
H29 C44 1_555 1_555
C45 H30 1_555 1_555
C46 H31 1_555 1_555
C47 C46 1_555 1_555
H32 C47 1_555 1_555
C48 C49 1_555 1_555
C49 C50 1_555 1_555
C50 H33 1_555 1_555
C51 C49 1_555 1_555
H34 C51 1_555 1_555
C52 C53 1_555 1_555
C53 C54 1_555 1_555
C54 H35 1_555 1_555
C55 C53 1_555 1_555
H36 C55 1_555 1_555
C56 C24 1_555 1_555
N1 C18 1_555 1_555
N2 C1 1_555 1_555
N3 C7 1_555 1_555
N4 C8 1_555 1_555
N5 C7 1_555 1_555
N6 N5 1_555 1_555
H37 N6 1_555 1_555
H38 N6 1_555 1_555
N7 C12 1_555 1_555
N8 C15 1_555 1_555
N9 C28 1_555 1_555
N10 C28 1_555 1_555
N11 C37 1_555 1_555
N12 C38 1_555 1_555
N13 C37 1_555 1_555
N14 N13 1_555 1_555
H39 N14 1_555 1_555
H40 N14 1_555 1_555
N15 C42 1_555 1_555
N16 Zn1 1_555 1_555
O1 Zn1 1_555 1_555
O2 C21 1_555 1_555
O3 C56 1_555 1_555
O4 Zn1 1_555 1_555
O5 C48 1_555 1_555
O6 C52 1_555 1_555
O7 C52 1_555 1_555
O8 Zn2 1_555 1_555
C48A C49A 1_555 1_555
C49A C50A 1_555 1_555
C50A C51 1_555 1_555
H33A C50A 1_555 1_555
C51A C50 1_555 1_555
H34A C51A 1_555 1_555
O4A C48A 1_555 1_555
O5A C48A 1_555 1_555
C52A C53A 1_555 1_555
C53A C54A 1_555 1_555
C54A C55 1_555 1_555
H35A C54A 1_555 1_555
C55A C54 1_555 1_555
H36A C55A 1_555 1_555
O6A C52A 1_555 1_555
O7A C52A 1_555 1_555
Zn1A O4A 1_555 1_555
Zn2A O8A 1_555 1_555
C1A C2A 1_555 1_555
C2A H1A 1_555 1_555
C3A C2A 1_555 1_555
H2A C3A 1_555 1_555
C4A C3A 1_555 1_555
C5A C4A 1_555 1_555
H3A C5A 1_555 1_555
C6A C1A 1_555 1_555
H4A C6A 1_555 1_555
C7A C4A 1_555 1_555
C8A C9A 1_555 1_555
C9A C10A 1_555 1_555
C10A H5A 1_555 1_555
C11A C10A 1_555 1_555
H6A C11A 1_555 1_555
C12A C11A 1_555 1_555
C13A C12A 1_555 1_555
H7A C13A 1_555 1_555
C14A C9A 1_555 1_555
H8A C14A 1_555 1_555
C15A H9A 1_555 1_555
C16A H10A 1_555 1_555
C17A C16A 1_555 1_555
H11A C17A 1_555 1_555
C18A H12A 1_555 1_555
C19A H13A 1_555 1_555
C20A C19A 1_555 1_555
H14A C20A 1_555 1_555
C21A C27A 1_555 1_555
C22A H15A 1_555 1_555
C23A C22A 1_555 1_555
H16A C23A 1_555 1_555
C24A C23A 1_555 1_555
C25A C24A 1_555 1_555
H17A C25A 1_555 1_555
C26A C25A 1_555 1_555
H18A C26A 1_555 1_555
C27A C22A 1_555 1_555
C28A H19A 1_555 1_555
C29A H20A 1_555 1_555
C30A C29A 1_555 1_555
H21A C30A 1_555 1_555
C31A C32A 1_555 1_555
C32A H22A 1_555 1_555
C33A C32A 1_555 1_555
H23A C33A 1_555 1_555
C34A C33A 1_555 1_555
C35A C34A 1_555 1_555
H24A C35A 1_555 1_555
C36A C31A 1_555 1_555
H25A C36A 1_555 1_555
C37A C34A 1_555 1_555
C38A C39A 1_555 1_555
C39A C40A 1_555 1_555
C40A H26A 1_555 1_555
C41A C40A 1_555 1_555
H27A C41A 1_555 1_555
C42A C41A 1_555 1_555
C43A C42A 1_555 1_555
H28A C43A 1_555 1_555
C44A C39A 1_555 1_555
H29A C44A 1_555 1_555
C45A H30A 1_555 1_555
C46A H31A 1_555 1_555
C47A C46A 1_555 1_555
H32A C47A 1_555 1_555
C56A C24A 1_555 1_555
N1A C18A 1_555 1_555
N2A C1A 1_555 1_555
N3A C7A 1_555 1_555
N4A C8A 1_555 1_555
N5A C7A 1_555 1_555
N6A N5A 1_555 1_555
H37A N6A 1_555 1_555
H38A N6A 1_555 1_555
N7A C12A 1_555 1_555
N8A Zn1A 1_555 1_555
N9A C28A 1_555 1_555
N10A C28A 1_555 1_555
N11A C37A 1_555 1_555
N12A C38A 1_555 1_555
N13A C37A 1_555 1_555
N14A N13A 1_555 1_555
H39A N14A 1_555 1_555
H40A N14A 1_555 1_555
N15A C42A 1_555 1_555
N16A Zn1A 1_555 1_555
O1A Zn1A 1_555 1_555
O2A C21A 1_555 1_555
O3A C56A 1_555 1_555
O8A C56A 1_555 1_555
Zn2_2 N1A 1_555 1_555
Zn2_3 N9 1_555 1_555
Zn2A_2 O6A 1_555 1_555
Zn2A_3 N1 1_555 1_555
N1_2 Zn2A 1_555 1_555
N1A_2 Zn2 1_555 1_555
N9_2 Zn2 1_555 1_555
N9A_2 Zn2A 1_555 1_555
O6A_2 Zn2A 1_555 1_555
C5 C6 1_555 1_555
C8 N5 1_555 1_555
C13 C14 1_555 1_555
C15 N7 1_555 1_555
C16 N7 1_555 1_555
C17 N8 1_555 1_555
C18 N2 1_555 1_555
C19 N2 1_555 1_555
C20 N1 1_555 1_555
C21 O1 1_555 1_555
C26 C27 1_555 1_555
C29 N9 1_555 1_555
C30 N10 1_555 1_555
C31 N10 1_555 1_555
C35 C36 1_555 1_555
C38 N13 1_555 1_555
C43 C44 1_555 1_555
C45 N15 1_555 1_555
C45 N16 1_555 1_555
C46 N15 1_555 1_555
C47 N16 1_555 1_555
C48 O4 1_555 1_555
C56 O8 1_555 1_555
N3 N4 1_555 1_555
N11 N12 1_555 1_555
C49A C51A 1_555 1_555
C53A C55A 1_555 1_555
C5A C6A 1_555 1_555
C8A N5A 1_555 1_555
C13A C14A 1_555 1_555
C15A N7A 1_555 1_555
C15A N8A 1_555 1_555
C16A N7A 1_555 1_555
C17A N8A 1_555 1_555
C18A N2A 1_555 1_555
C19A N2A 1_555 1_555
C20A N1A 1_555 1_555
C21A O1A 1_555 1_555
C26A C27A 1_555 1_555
C29A N9A 1_555 1_555
C30A N10A 1_555 1_555
C31A N10A 1_555 1_555
C35A C36A 1_555 1_555
C38A N13A 1_555 1_555
C43A C44A 1_555 1_555
C45A N15A 1_555 1_555
C45A N16A 1_555 1_555
C46A N15A 1_555 1_555
C47A N16A 1_555 1_555
N3A N4A 1_555 1_555
N9A Zn2A_2 1_555 1_555
N11A N12A 1_555 1_555

#END
