
#######################################################################
#
#                 Cambridge Crystallographic Data Centre
#                                CCDC 
#
#######################################################################
#
# If this CIF has been generated from an entry in the Cambridge 
# Structural Database, then it will include bibliographic, chemical, 
# crystal, experimental, refinement or atomic coordinate data resulting 
# from the CCDC's data processing and validation procedures.
#
#######################################################################

data_FUBDAI
_symmetry_cell_setting           orthorhombic
_symmetry_space_group_name_H-M   'P b c a'
_symmetry_Int_Tables_number      61
_space_group_name_Hall           '-P 2ac 2ab'
loop_
_symmetry_equiv_pos_site_id
_symmetry_equiv_pos_as_xyz
1 x,y,z
2 1/2-x,-y,1/2+z
3 -x,1/2+y,1/2-z
4 1/2+x,1/2-y,-z
5 -x,-y,-z
6 1/2+x,y,1/2-z
7 x,1/2-y,1/2+z
8 1/2-x,1/2+y,z
_cell_length_a                   27.908(5)
_cell_length_b                   13.845(2)
_cell_length_c                   44.236(7)
_cell_angle_alpha                90
_cell_angle_beta                 90
_cell_angle_gamma                90
_cell_volume                     17092.2
loop_
_atom_site_label
_atom_site_type_symbol
_atom_site_fract_x
_atom_site_fract_y
_atom_site_fract_z
Zn1 Zn 0.45374(2) -0.14077(5) 0.087748(14)
Zn2 Zn 0.23999(2) 0.18258(4) 0.319675(13)
Zn3 Zn 0.47623(2) 0.61954(4) -0.086170(15)
I1 I 0.445721(15) -0.32342(3) 0.084087(11)
I2 I 0.517831(13) -0.05274(3) 0.117662(10)
I3 I 0.328785(15) 0.18743(3) 0.332489(10)
I4 I 0.194868(16) 0.34091(3) 0.311814(9)
I5 I 0.428070(17) 0.70606(4) -0.126250(13)
I6 I 0.493720(14) 0.69537(3) -0.034470(10)
C1 C 0.3169(2) -0.1461(4) -0.12572(12)
H1 H 0.3162 -0.2146 -0.1249
C2 C 0.3405(2) -0.0962(4) -0.10270(13)
H2 H 0.3550 -0.1300 -0.0864
C3 C 0.2976(3) -0.0055(4) -0.14968(13)
H3 H 0.2824 0.0268 -0.1661
C4 C 0.3205(3) 0.0491(4) -0.12810(14)
H4 H 0.3215 0.1175 -0.1297
C5 C 0.34214(19) 0.0029(4) -0.10412(12)
C6 C 0.36805(19) 0.0582(4) -0.08049(11)
C7 C 0.42657(19) 0.4345(4) -0.10032(12)
H5 H 0.4239 0.4635 -0.1197
C8 C 0.4108(2) 0.3414(4) -0.09667(12)
H6 H 0.3972 0.3072 -0.1132
C9 C 0.44947(19) 0.4445(4) -0.05045(12)
H7 H 0.4630 0.4804 -0.0343
C10 C 0.4345(2) 0.3516(4) -0.04502(12)
H8 H 0.4376 0.3242 -0.0254
C11 C 0.41488(18) 0.2982(4) -0.06860(12)
C12 C 0.40161(18) 0.1959(4) -0.06391(12)
C13 C 0.45716(19) 0.0127(4) 0.04117(12)
H9 H 0.4718 0.0481 0.0571
C14 C 0.44512(19) 0.0604(4) 0.01502(12)
H10 H 0.4514 0.1276 0.0130
C15 C 0.4308(2) -0.1322(4) 0.02194(13)
H11 H 0.4268 -0.2000 0.0241
C16 C 0.4173(2) -0.0900(4) -0.00523(12)
H12 H 0.4042 -0.1277 -0.0212
C17 C 0.42367(18) 0.0093(4) -0.00841(11)
C18 C 0.40763(18) 0.0599(4) -0.03613(12)
C19 C 0.34732(18) -0.1078(4) 0.08989(11)
H13 H 0.3485 -0.1283 0.0694
C20 C 0.30287(18) -0.0920(4) 0.10286(11)
H14 H 0.2742 -0.1012 0.0916
C21 C 0.38673(18) -0.0635(4) 0.13345(12)
H15 H 0.4158 -0.0512 0.1439
C22 C 0.34411(19) -0.0482(4) 0.14800(12)
H16 H 0.3439 -0.0279 0.1685
C23 C 0.30151(17) -0.0624(3) 0.13289(11)
C24 C 0.25544(17) -0.0484(3) 0.14886(11)
C25 C 0.2683(2) 0.0651(4) 0.26668(12)
H17 H 0.2986 0.0651 0.2765
C26 C 0.26508(19) 0.0265(4) 0.23802(12)
H18 H 0.2928 0.0023 0.2281
C27 C 0.1873(2) 0.0980(5) 0.26769(13)
H19 H 0.1602 0.1231 0.2781
C28 C 0.1809(2) 0.0579(4) 0.23931(13)
H20 H 0.1499 0.0541 0.2306
C29 C 0.22074(18) 0.0233(3) 0.22379(11)
C30 C 0.21733(18) -0.0109(3) 0.19230(11)
C31 C 0.0428(2) -0.0683(5) 0.13585(13)
H21 H 0.0137 -0.0649 0.1469
C32 C 0.0854(2) -0.0540(5) 0.15111(13)
H22 H 0.0854 -0.0408 0.1722
C33 C 0.08189(18) -0.0897(4) 0.09091(12)
H23 H 0.0808 -0.1015 0.0698
C34 C 0.12620(18) -0.0765(4) 0.10467(12)
H24 H 0.1548 -0.0794 0.0931
C35 C 0.12822(18) -0.0591(3) 0.13507(12)
C36 C 0.17486(18) -0.0476(3) 0.15045(11)
N1 N 0.29565(16) -0.1020(3) -0.14861(10)
N2 N 0.44568(15) 0.4866(3) -0.07765(10)
N3 N 0.44898(15) -0.0829(3) 0.04512(10)
N4 N 0.37569(16) 0.1526(3) -0.08504(10)
N5 N 0.41855(16) 0.1532(3) -0.03882(10)
N6 N 0.38294(16) 0.0085(3) -0.05629(10)
N7 N 0.38872(15) -0.0957(3) 0.10468(9)
N8 N 0.23058(17) 0.1027(3) 0.28109(10)
N9 N 0.04079(16) -0.0866(3) 0.10634(10)
N10 N 0.25876(15) -0.0240(3) 0.17811(9)
N11 N 0.17397(15) -0.0218(3) 0.17990(9)
N12 N 0.21427(15) -0.0615(3) 0.13399(9)
Zn2A Zn 0.26001(2) -0.18258(4) -0.180325(13)
Zn3C Zn -0.02377(2) -0.11954(4) 0.086170(15)
N1A N 0.20435(16) 0.1020(3) 0.35139(10)
N9C N 0.54079(16) 0.5866(3) -0.10634(10)
C55 C 0.1488(8) 0.7022(19) 0.1493(4)
C56 C 0.0973(8) 0.6783(19) 0.1445(5)
C57 C 0.0814(9) 0.679(3) 0.1158(6)
H36 H 0.0479 0.6735 0.1124
C58 C 0.1125(8) 0.6860(14) 0.0899(5)
H37 H 0.0999 0.6893 0.0700
C59 C 0.1608(8) 0.6883(17) 0.0951(5)
H38 H 0.1821 0.6841 0.0784
C60 C 0.1803(8) 0.6967(18) 0.1246(5)
C61 C 0.2293(8) 0.694(4) 0.1292(6)
C62 C 0.2624(9) 0.677(3) 0.1047(6)
H39 H 0.2505 0.6693 0.0848
C63 C 0.3127(9) 0.671(3) 0.1099(6)
H40 H 0.3341 0.6552 0.0939
C64 C 0.3299(9) 0.689(2) 0.1393(7)
H41 H 0.3634 0.6857 0.1430
C65 C 0.3004(8) 0.710(2) 0.1622(6)
H42 H 0.3133 0.7255 0.1815
C66 C 0.2516(8) 0.710(6) 0.1581(6)
C67 C 0.2177(9) 0.731(4) 0.1841(7)
C68 C 0.2362(9) 0.762(2) 0.2115(6)
H43 H 0.2697 0.7719 0.2137
C69 C 0.2060(11) 0.778(3) 0.2354(6)
H44 H 0.2192 0.7882 0.2550
C70 C 0.1553(9) 0.7809(17) 0.2314(5)
H45 H 0.1345 0.8019 0.2471
C71 C 0.1376(8) 0.7511(13) 0.2035(4)
H46 H 0.1038 0.7481 0.2007
C72 C 0.1671(8) 0.726(2) 0.1795(5)
N14 N 0.0638(6) 0.6687(13) 0.1651(4)
C103 C 0.2092(11) 0.448(3) -0.0050(11)
H82 H 0.1749 0.4557 -0.0010
H83 H 0.2142 0.4362 -0.0267
H84 H 0.2262 0.5070 0.0009
C104 C 0.2276(9) 0.367(3) 0.0122(9)
C105 C 0.2970(9) 0.285(3) 0.0258(7)
H86 H 0.2915 0.3016 0.0472
C106 C 0.3464(7) 0.281(3) 0.0203(6)
H87 H 0.3614 0.2355 0.0343
H88 H 0.3602 0.3455 0.0232
H89 H 0.3521 0.2600 -0.0006
O7 O 0.2024(9) 0.307(2) 0.0280(6)
O8 O 0.2746(6) 0.3497(18) 0.0079(5)
C107 C 0.2522(11) 0.662(3) 0.0262(8)
H90 H 0.2208 0.6303 0.0257
H91 H 0.2530 0.7139 0.0111
H92 H 0.2576 0.6893 0.0464
C108 C 0.2894(11) 0.592(3) 0.0194(12)
C109 C 0.3710(11) 0.577(3) 0.0111(8)
H93 H 0.4011 0.6097 0.0170
H94 H 0.3671 0.5841 -0.0110
C110 C 0.3744(12) 0.480(4) 0.0181(7)
H95 H 0.4046 0.4542 0.0101
H96 H 0.3474 0.4452 0.0091
H97 H 0.3737 0.4719 0.0401
O9 O 0.2844(13) 0.500(3) 0.0152(10)
O10 O 0.3342(10) 0.620(3) 0.0250(8)
C115 C 0.1235(15) 0.344(2) 0.2300(9)
H106 H 0.1304 0.3277 0.2089
H107 H 0.1041 0.2920 0.2390
H108 H 0.1536 0.3499 0.2413
C116 C 0.0971(11) 0.435(3) 0.2314(6)
C117 C 0.087(2) 0.557(3) 0.2668(11)
H109 H 0.0786 0.5972 0.2490
H110 H 0.1203 0.5740 0.2728
C118 C 0.056(3) 0.580(6) 0.2906(18)
H111 H 0.0544 0.6503 0.2930
H112 H 0.0682 0.5511 0.3093
H113 H 0.0241 0.5546 0.2862
O13 O 0.0836(8) 0.481(2) 0.2080(5)
O14 O 0.0853(12) 0.464(3) 0.2592(5)
C119 C 0.9912(18) 0.332(4) 0.2697(12)
H114 H 0.9869 0.3231 0.2915
H115 H 1.0242 0.3522 0.2656
H116 H 0.9843 0.2718 0.2591
C120 C 0.9586(17) 0.407(4) 0.2592(9)
C121 C 0.980(2) 0.448(4) 0.2098(11)
H117 H 0.9708 0.4224 0.1897
H118 H 1.0118 0.4209 0.2146
C122 C 0.985(2) 0.546(4) 0.2070(13)
H119 H 0.9625 0.5702 0.1917
H120 H 1.0179 0.5608 0.2007
H121 H 0.9784 0.5770 0.2264
O15 O 0.950(2) 0.484(4) 0.2740(9)
O16 O 0.9490(14) 0.411(3) 0.2297(9)
C37? C 0.1703(10) 0.712(3) 0.1872(6)
C38? C 0.1397(10) 0.712(2) 0.2152(6)
C39? C 0.1591(13) 0.746(2) 0.2409(6)
H25? H 0.1413 0.7394 0.2591
C40? C 0.2052(13) 0.791(4) 0.2424(8)
H26? H 0.2147 0.8275 0.2596
C41? C 0.2349(11) 0.780(3) 0.2180(7)
H27? H 0.2678 0.7966 0.2199
C42? C 0.2177(10) 0.744(4) 0.1897(7)
C43? C 0.2493(9) 0.724(3) 0.1664(6)
C44? C 0.3006(9) 0.731(3) 0.1709(7)
H28? H 0.3128 0.7530 0.1898
C45? C 0.3327(11) 0.706(3) 0.1472(8)
H29? H 0.3664 0.7099 0.1502
C46? C 0.3140(12) 0.676(4) 0.1194(8)
H30? H 0.3355 0.6591 0.1036
C47? C 0.2668(10) 0.669(3) 0.1144(6)
H31? H 0.2554 0.6496 0.0951
C48? C 0.2349(9) 0.690(4) 0.1370(7)
C49? C 0.1808(10) 0.686(4) 0.1321(6)
C50? C 0.1632(10) 0.666(3) 0.1036(6)
H32? H 0.1846 0.6570 0.0871
C51? C 0.1147(10) 0.659(2) 0.0991(6)
H33? H 0.1030 0.6464 0.0794
C52? C 0.0814(11) 0.672(4) 0.1231(6)
H34? H 0.0481 0.6606 0.1205
C53? C 0.1004(9) 0.701(2) 0.1507(6)
H35? H 0.0794 0.7272 0.1655
C54? C 0.1491(10) 0.694(5) 0.1575(6)
N13? N 0.0961(7) 0.6764(14) 0.2169(5)
C73? C 0.2253(11) 0.727(6) 0.1871(9)
C74? C 0.2481(12) 0.756(3) 0.2165(8)
C75? C 0.2187(15) 0.784(6) 0.2392(11)
H47? H 0.2326 0.8173 0.2558
C76? C 0.1682(15) 0.767(4) 0.2400(8)
H48? H 0.1496 0.7791 0.2575
C77? C 0.1483(13) 0.732(4) 0.2138(8)
H49? H 0.1155 0.7137 0.2138
C78? C 0.1753(12) 0.723(5) 0.1865(8)
C79? C 0.1517(11) 0.698(6) 0.1601(8)
C80? C 0.1001(11) 0.688(4) 0.1595(8)
H50? H 0.0828 0.6776 0.1777
C81? C 0.0752(12) 0.693(3) 0.1313(9)
H51? H 0.0423 0.7101 0.1303
C82? C 0.1015(13) 0.671(4) 0.1052(8)
H52? H 0.0850 0.6513 0.0875
C83? C 0.1494(12) 0.676(4) 0.1048(8)
H53? H 0.1659 0.6753 0.0860
C84? C 0.1748(11) 0.683(6) 0.1314(8)
C85? C 0.2293(12) 0.687(9) 0.1318(10)
C86? C 0.2549(13) 0.659(4) 0.1066(9)
H54? H 0.2381 0.6436 0.0885
C87? C 0.3039(13) 0.652(4) 0.1071(11)
H55? H 0.3207 0.6319 0.0895
C88? C 0.3298(13) 0.674(5) 0.1342(12)
H56? H 0.3638 0.6747 0.1347
C89? C 0.3026(12) 0.693(5) 0.1598(11)
H57? H 0.3187 0.6961 0.1787
C90? C 0.2533(12) 0.709(11) 0.1597(11)
N15? N 0.2905(10) 0.794(2) 0.2204(8)
C91? C 0.2841(8) 0.2957(14) 0.9282(7)
H58? H 0.3095 0.3074 0.9431
H59? H 0.2589 0.3444 0.9306
H60? H 0.2976 0.2998 0.9078
C92? C 0.2639(8) 0.1998(16) 0.9330(8)
C93? C 0.2126(8) 0.0823(14) 0.9143(7)
H61? H 0.2392 0.0396 0.9207
H62? H 0.2032 0.0627 0.8936
C94? C 0.1732(7) 0.0656(19) 0.9338(8)
H63? H 0.1633 -0.0021 0.9323
H64? H 0.1465 0.1076 0.9280
H65? H 0.1826 0.0798 0.9547
O1? O 0.2816(7) 0.1325(17) 0.9492(4)
O2? O 0.2293(5) 0.1743(11) 0.9132(4)
C95? C 0.2742(12) 0.311(2) 0.9305(13)
H66? H 0.3085 0.3166 0.9350
H67? H 0.2564 0.3587 0.9426
H68? H 0.2689 0.3243 0.9089
C96? C 0.2574(13) 0.214(3) 0.9378(12)
C97? C 0.1878(11) 0.1139(18) 0.9314(7)
H69? H 0.1987 0.0791 0.9497
H70? H 0.1531 0.1273 0.9339
C98? C 0.1936(11) 0.0534(17) 0.9066(6)
H71? H 0.1748 -0.0056 0.9096
H72? H 0.2275 0.0366 0.9045
H73? H 0.1826 0.0866 0.8883
O3? O 0.2782(11) 0.164(3) 0.9583(7)
O4? O 0.2114(7) 0.1995(14) 0.9298(6)
C99? C 0.179(2) 0.208(3) 0.0211(11)
H74? H 0.1716 0.1531 0.0082
H75? H 0.1510 0.2271 0.0327
H76? H 0.2053 0.1907 0.0350
C100? C 0.1946(17) 0.289(3) 0.0024(8)
C101? C 0.2154(19) 0.453(3) 0.0046(11)
H77? H 0.2013 0.4577 -0.0158
H78? H 0.2507 0.4493 0.0023
C102? C 0.2036(12) 0.535(2) 0.0211(7)
H79? H 0.2133 0.5924 0.0099
H80? H 0.2203 0.5332 0.0407
H81? H 0.1689 0.5363 0.0246
O5? O 0.1845(13) 0.295(4) -0.0259(8)
O6? O 0.1997(13) 0.371(2) 0.0179(8)
H85? H 0.2831 0.2198 0.0222
C111? C 0.3311(19) 0.247(3) 0.0131(12)
H98? H 0.3625 0.2350 0.0038
H99? H 0.3059 0.2371 -0.0020
H100? H 0.3264 0.2015 0.0299
C112? C 0.3291(15) 0.345(3) 0.0244(10)
C113? C 0.2815(13) 0.460(3) 0.0476(8)
H101? H 0.3114 0.4965 0.0437
H102? H 0.2752 0.4631 0.0696
C114? C 0.2441(19) 0.507(4) 0.0327(18)
H103? H 0.2414 0.5733 0.0403
H104? H 0.2141 0.4724 0.0365
H105? H 0.2506 0.5081 0.0110
O11? O 0.3486(11) 0.418(4) 0.0109(8)
O12? O 0.2887(13) 0.368(3) 0.0399(9)
C123? C -0.0796(8) -0.0058(15) 0.2017(6)
H122? H -0.0927 -0.0117 0.2221
H123? H -0.0569 -0.0586 0.1980
H124? H -0.1057 -0.0092 0.1869
C124? C -0.0558(9) 0.083(2) 0.1988(5)
C125? C -0.0139(7) 0.1959(14) 0.1691(4)
H125? H -0.0334 0.2464 0.1792
H126? H -0.0146 0.2095 0.1472
C126? C 0.0346(8) 0.2049(15) 0.1794(6)
H127? H 0.0462 0.2704 0.1754
H128? H 0.0548 0.1581 0.1688
H129? H 0.0359 0.1922 0.2012
O17? O -0.0544(6) 0.1470(16) 0.2215(3)
O18? O -0.0356(5) 0.1080(9) 0.1740(3)
C127? C 0.978(2) 0.737(3) 0.2142(12)
H130? H 0.9728 0.7864 0.2298
H131? H 0.9685 0.7626 0.1945
H132? H 1.0124 0.7204 0.2137
C128? C 0.950(2) 0.652(4) 0.2212(11)
C129? C 0.9198(16) 0.521(3) 0.1948(12)
H133? H 0.9170 0.5243 0.1725
H134? H 0.8903 0.5498 0.2034
C130? C 0.9223(19) 0.426(4) 0.2034(11)
H135? H 0.9017 0.3868 0.1902
H136? H 0.9115 0.4191 0.2243
H137? H 0.9555 0.4031 0.2017
O19? O 0.9244(9) 0.642(5) 0.2449(9)
O20? O 0.9573(16) 0.576(4) 0.2033(12)
C131? C 0.1060(14) 0.496(3) 0.2163(12)
H138? H 0.1010 0.5396 0.2335
H139? H 0.0985 0.5303 0.1975
H140? H 0.1395 0.4751 0.2160
C132? C 0.0750(14) 0.413(3) 0.2193(12)
C133? C 0.073(2) 0.247(4) 0.2113(14)
H141? H 0.0960 0.1998 0.2027
H142? H 0.0499 0.2637 0.1951
C134? C 0.048(3) 0.202(4) 0.2348(19)
H143? H 0.0156 0.2289 0.2360
H144? H 0.0648 0.2138 0.2539
H145? H 0.0463 0.1325 0.2310
O21? O 0.0337(15) 0.415(4) 0.2325(14)
O22? O 0.0968(15) 0.327(3) 0.2196(13)
loop_
_geom_bond_atom_site_label_1
_geom_bond_atom_site_label_2
_geom_bond_site_symmetry_1
_geom_bond_site_symmetry_2
Zn1 I1 1_555 1_555
Zn2 I3 1_555 1_555
Zn3 I5 1_555 1_555
I2 Zn1 1_555 1_555
I4 Zn2 1_555 1_555
I6 Zn3 1_555 1_555
C1 H1 1_555 1_555
C2 C1 1_555 1_555
H2 C2 1_555 1_555
C3 H3 1_555 1_555
C4 C3 1_555 1_555
H4 C4 1_555 1_555
C5 C2 1_555 1_555
C6 C5 1_555 1_555
C7 H5 1_555 1_555
C8 C7 1_555 1_555
H6 C8 1_555 1_555
C9 H7 1_555 1_555
C10 C9 1_555 1_555
H8 C10 1_555 1_555
C11 C8 1_555 1_555
C12 C11 1_555 1_555
C13 H9 1_555 1_555
C14 C13 1_555 1_555
H10 C14 1_555 1_555
C15 H11 1_555 1_555
C16 C15 1_555 1_555
H12 C16 1_555 1_555
C17 C14 1_555 1_555
C18 C17 1_555 1_555
C19 H13 1_555 1_555
C20 C19 1_555 1_555
H14 C20 1_555 1_555
C21 H15 1_555 1_555
C22 C21 1_555 1_555
H16 C22 1_555 1_555
C23 C20 1_555 1_555
C24 C23 1_555 1_555
C25 H17 1_555 1_555
C26 C25 1_555 1_555
H18 C26 1_555 1_555
C27 H19 1_555 1_555
C28 C27 1_555 1_555
H20 C28 1_555 1_555
C29 C26 1_555 1_555
C30 C29 1_555 1_555
C31 H21 1_555 1_555
C32 C31 1_555 1_555
H22 C32 1_555 1_555
C33 H23 1_555 1_555
C34 C33 1_555 1_555
H24 C34 1_555 1_555
C35 C32 1_555 1_555
C36 C35 1_555 1_555
N1 C1 1_555 1_555
N2 Zn3 1_555 1_555
N3 Zn1 1_555 1_555
N4 C6 1_555 1_555
N5 C12 1_555 1_555
N6 C6 1_555 1_555
N7 Zn1 1_555 1_555
N8 Zn2 1_555 1_555
N9 C31 1_555 1_555
N10 C24 1_555 1_555
N11 C30 1_555 1_555
N12 C24 1_555 1_555
C55 C56 1_555 1_555
C56 C57 1_555 1_555
C57 H36 1_555 1_555
C58 C57 1_555 1_555
H37 C58 1_555 1_555
C59 C58 1_555 1_555
H38 C59 1_555 1_555
C60 C55 1_555 1_555
C61 C60 1_555 1_555
C62 C61 1_555 1_555
H39 C62 1_555 1_555
C63 C62 1_555 1_555
H40 C63 1_555 1_555
C64 C63 1_555 1_555
H41 C64 1_555 1_555
C65 C64 1_555 1_555
H42 C65 1_555 1_555
C66 C61 1_555 1_555
C67 C66 1_555 1_555
C68 C67 1_555 1_555
H43 C68 1_555 1_555
C69 C68 1_555 1_555
H44 C69 1_555 1_555
C70 C69 1_555 1_555
H45 C70 1_555 1_555
C71 C70 1_555 1_555
H46 C71 1_555 1_555
C72 C55 1_555 1_555
N14 C56 1_555 1_555
C103 H82 1_555 1_555
H83 C103 1_555 1_555
H84 C103 1_555 1_555
C104 C103 1_555 1_555
C105 H86 1_555 1_555
C106 C105 1_555 1_555
H87 C106 1_555 1_555
H88 C106 1_555 1_555
H89 C106 1_555 1_555
O7 C104 1_555 1_555
O8 C104 1_555 1_555
C107 H90 1_555 1_555
H91 C107 1_555 1_555
H92 C107 1_555 1_555
C108 C107 1_555 1_555
C109 H93 1_555 1_555
H94 C109 1_555 1_555
C110 C109 1_555 1_555
H95 C110 1_555 1_555
H96 C110 1_555 1_555
H97 C110 1_555 1_555
O9 C108 1_555 1_555
O10 C108 1_555 1_555
C115 H106 1_555 1_555
H107 C115 1_555 1_555
H108 C115 1_555 1_555
C116 C115 1_555 1_555
C117 H109 1_555 1_555
H110 C117 1_555 1_555
C118 C117 1_555 1_555
H111 C118 1_555 1_555
H112 C118 1_555 1_555
H113 C118 1_555 1_555
O13 C116 1_555 1_555
O14 C116 1_555 1_555
C119 H114 1_555 1_555
H115 C119 1_555 1_555
H116 C119 1_555 1_555
C120 C119 1_555 1_555
C121 H117 1_555 1_555
H118 C121 1_555 1_555
C122 C121 1_555 1_555
H119 C122 1_555 1_555
H120 C122 1_555 1_555
H121 C122 1_555 1_555
O15 C120 1_555 1_555
O16 C120 1_555 1_555
Zn2A N1 1_555 1_555
Zn3C N9 1_555 1_555
N1A Zn2 1_555 1_555
N9C Zn3 1_555 1_555
C3 N1 1_555 1_555
C4 C5 1_555 1_555
C7 N2 1_555 1_555
C9 N2 1_555 1_555
C10 C11 1_555 1_555
C12 N4 1_555 1_555
C13 N3 1_555 1_555
C15 N3 1_555 1_555
C16 C17 1_555 1_555
C18 N5 1_555 1_555
C18 N6 1_555 1_555
C19 N7 1_555 1_555
C21 N7 1_555 1_555
C22 C23 1_555 1_555
C25 N8 1_555 1_555
C27 N8 1_555 1_555
C28 C29 1_555 1_555
C30 N10 1_555 1_555
C33 N9 1_555 1_555
C34 C35 1_555 1_555
C36 N11 1_555 1_555
C36 N12 1_555 1_555
C59 C60 1_555 1_555
C65 C66 1_555 1_555
C67 C72 1_555 1_555
C71 C72 1_555 1_555
C105 O8 1_555 1_555
C109 O10 1_555 1_555
C117 O14 1_555 1_555
C121 O16 1_555 1_555

#END
