
#######################################################################
#
#                 Cambridge Crystallographic Data Centre
#                                CCDC 
#
#######################################################################
#
# If this CIF has been generated from an entry in the Cambridge 
# Structural Database, then it will include bibliographic, chemical, 
# crystal, experimental, refinement or atomic coordinate data resulting 
# from the CCDC's data processing and validation procedures.
#
#######################################################################

data_FUBDUD
_symmetry_cell_setting           monoclinic
_symmetry_space_group_name_H-M   'P 21/c'
_symmetry_Int_Tables_number      14
_space_group_name_Hall           '-P 2ybc'
loop_
_symmetry_equiv_pos_site_id
_symmetry_equiv_pos_as_xyz
1 x,y,z
2 -x,1/2+y,1/2-z
3 -x,-y,-z
4 x,1/2-y,1/2+z
_cell_length_a                   21.036(5)
_cell_length_b                   7.657(5)
_cell_length_c                   20.088(5)
_cell_angle_alpha                90
_cell_angle_beta                 106.909(5)
_cell_angle_gamma                90
_cell_volume                     3095.74
loop_
_atom_site_label
_atom_site_type_symbol
_atom_site_fract_x
_atom_site_fract_y
_atom_site_fract_z
Zn1 Zn 0.695754(18) 0.19455(4) -0.140553(18)
C1 C 0.79610(16) -0.0827(4) -0.07925(16)
H1 H 0.7655 -0.1471 -0.0641
C2 C 0.84007(17) 0.1127(4) -0.12805(17)
H2 H 0.8451 0.2103 -0.1536
C3 C 0.88902(17) 0.0010(4) -0.09694(18)
H3 H 0.9333 0.0073 -0.0964
C4 C 0.94013(16) -0.2025(4) 0.04299(17)
H4 H 0.9475 -0.0840 0.0520
C5 C 0.89596(15) -0.2576(4) -0.01856(16)
C6 C 0.88466(16) -0.4320(4) -0.03371(16)
H5 H 0.8550 -0.4676 -0.0755
C7 C 0.91858(16) -0.5531(4) 0.01487(16)
H6 H 0.9118 -0.6716 0.0052
C8 C 0.96260(15) -0.5014(4) 0.07785(15)
C9 C 0.97316(16) -0.3245(4) 0.09092(17)
H7 H 1.0029 -0.2878 0.1325
C10 C 0.99180(15) -0.6364(4) 0.12972(15)
C11 C 1.05304(17) -0.7766(4) 0.22112(15)
C12 C 1.10714(16) -0.8263(4) 0.28283(16)
C13 C 1.1425(2) -0.7073(4) 0.33140(17)
H8 H 1.1333 -0.5888 0.3245
C14 C 1.19122(19) -0.7614(4) 0.38994(17)
H9 H 1.2151 -0.6798 0.4218
C15 C 1.20428(16) -0.9374(4) 0.40095(15)
C16 C 1.17057(16) -1.0585(4) 0.35321(16)
H10 H 1.1802 -1.1768 0.3602
C17 C 1.12209(16) -1.0023(4) 0.29457(16)
H11 H 1.0990 -1.0842 0.2623
C18 C 0.61449(17) -0.0266(4) -0.10195(19)
C19 C 0.55555(16) -0.1380(4) -0.10616(16)
C20 C 0.53380(18) -0.1652(4) -0.04828(18)
H12 H 0.5566 -0.1134 -0.0062
C21 C 0.4794(2) -0.2668(5) -0.05166(19)
H13 H 0.4648 -0.2828 -0.0126
C22 C 0.44625(17) -0.3453(4) -0.11437(19)
C23 C 0.46681(16) -0.3250(4) -0.17247(17)
H14 H 0.4449 -0.3816 -0.2137
C24 C 0.52064(16) -0.2190(4) -0.16855(16)
H15 H 0.5341 -0.2007 -0.2082
C25 C 0.3676(2) -0.5752(5) -0.15940(19)
C26 C 0.40605(19) -0.7214(5) -0.15497(19)
H16 H 0.4493 -0.7230 -0.1256
C27 C 0.37999(18) -0.8671(4) -0.19464(17)
H17 H 0.4060 -0.9664 -0.1923
C28 C 0.31533(16) -0.8647(4) -0.23769(15)
C29 C 0.27792(17) -0.7140(4) -0.24208(17)
H18 H 0.2346 -0.7109 -0.2713
C30 C 0.30434(19) -0.5687(4) -0.20351(19)
H19 H 0.2794 -0.4669 -0.2074
C31 C 0.28504(17) -1.0213(4) -0.28015(15)
C32 C 1.24702(17) -1.1309(4) 0.50254(16)
H20 H 1.2135 -1.2141 0.4892
C33 C 1.33344(19) -0.9916(5) 0.55988(19)
H21 H 1.3715 -0.9606 0.5949
C34 C 1.30836(18) -0.9027(5) 0.50080(18)
H22 H 1.3254 -0.8009 0.4874
N1 N 0.78174(13) 0.0619(3) -0.11673(13)
N2 N 0.86032(13) -0.1242(3) -0.06608(13)
N3 N 0.96455(14) -0.7914(3) 0.13091(13)
N4 N 1.00363(15) -0.8795(3) 0.18897(14)
N5 N 1.04747(13) -0.6214(3) 0.18559(12)
N6 N 1.08954(16) -0.4738(4) 0.19986(16)
N7 N 1.25234(13) -0.9916(3) 0.46377(13)
N8 N 1.29474(13) -1.1354(3) 0.56139(13)
O1 O 0.61988(12) 0.0389(3) -0.15806(12)
O2 O 0.65658(12) -0.0045(3) -0.04427(12)
O3 O 0.22501(12) -1.0216(3) -0.31213(13)
O4 O 0.32462(12) -1.1468(3) -0.28047(11)
O5 O 0.38902(14) -0.4345(4) -0.11478(15)
H23 H 1.135(2) -0.508(6) 0.202(2)
H24 H 1.090(2) -0.431(6) 0.241(2)
Zn1A Zn 0.304246(18) -1.30545(4) -0.359447(18)
Zn1A_2 Zn 1.304246(18) -1.30545(4) 0.640553(18)
N8A N 0.70526(13) 0.3646(3) -0.06139(13)
O4A O 0.67538(12) 0.3532(3) -0.21953(11)
O6 O 0.71443(17) 0.1062(4) 0.09637(16)
H25 H 0.6982 0.0704 0.0547
loop_
_geom_bond_atom_site_label_1
_geom_bond_atom_site_label_2
_geom_bond_site_symmetry_1
_geom_bond_site_symmetry_2
Zn1 N1 1_555 1_555
C1 H1 1_555 1_555
C2 H2 1_555 1_555
C3 C2 1_555 1_555
H3 C3 1_555 1_555
C4 H4 1_555 1_555
C5 C4 1_555 1_555
C6 C5 1_555 1_555
H5 C6 1_555 1_555
C7 C6 1_555 1_555
H6 C7 1_555 1_555
C8 C7 1_555 1_555
C9 C4 1_555 1_555
H7 C9 1_555 1_555
C10 C8 1_555 1_555
C11 C12 1_555 1_555
C12 C13 1_555 1_555
C13 H8 1_555 1_555
C14 C13 1_555 1_555
H9 C14 1_555 1_555
C15 C14 1_555 1_555
C16 C15 1_555 1_555
H10 C16 1_555 1_555
C17 C12 1_555 1_555
H11 C17 1_555 1_555
C18 C19 1_555 1_555
C19 C20 1_555 1_555
C20 H12 1_555 1_555
C21 C20 1_555 1_555
H13 C21 1_555 1_555
C22 C21 1_555 1_555
C23 C22 1_555 1_555
H14 C23 1_555 1_555
C24 C19 1_555 1_555
H15 C24 1_555 1_555
C25 C26 1_555 1_555
C26 H16 1_555 1_555
C27 C26 1_555 1_555
H17 C27 1_555 1_555
C28 C27 1_555 1_555
C29 C28 1_555 1_555
H18 C29 1_555 1_555
C30 C25 1_555 1_555
H19 C30 1_555 1_555
C31 C28 1_555 1_555
C32 H20 1_555 1_555
C33 H21 1_555 1_555
C34 C33 1_555 1_555
H22 C34 1_555 1_555
N1 C1 1_555 1_555
N2 C1 1_555 1_555
N3 C10 1_555 1_555
N4 C11 1_555 1_555
N5 C10 1_555 1_555
N6 N5 1_555 1_555
N7 C15 1_555 1_555
N8 C32 1_555 1_555
O1 Zn1 1_555 1_555
O2 C18 1_555 1_555
O3 C31 1_555 1_555
O4 C31 1_555 1_555
O5 C22 1_555 1_555
H23 N6 1_555 1_555
H24 N6 1_555 1_555
O6 H25 1_555 1_555
Zn1A O4 1_555 1_555
Zn1A_2 N8 1_555 1_555
N8A Zn1 1_555 1_555
O4A Zn1 1_555 1_555
C2 N1 1_555 1_555
C3 N2 1_555 1_555
C5 N2 1_555 1_555
C8 C9 1_555 1_555
C11 N5 1_555 1_555
C16 C17 1_555 1_555
C18 O1 1_555 1_555
C23 C24 1_555 1_555
C25 O5 1_555 1_555
C29 C30 1_555 1_555
C32 N7 1_555 1_555
C33 N8 1_555 1_555
C34 N7 1_555 1_555
N3 N4 1_555 1_555

#END
