
#######################################################################
#
#                 Cambridge Crystallographic Data Centre
#                                CCDC 
#
#######################################################################
#
# If this CIF has been generated from an entry in the Cambridge 
# Structural Database, then it will include bibliographic, chemical, 
# crystal, experimental, refinement or atomic coordinate data resulting 
# from the CCDC's data processing and validation procedures.
#
#######################################################################

data_FUBFIT
_symmetry_cell_setting           monoclinic
_symmetry_space_group_name_H-M   'P 21/c'
_symmetry_Int_Tables_number      14
_space_group_name_Hall           '-P 2ybc'
loop_
_symmetry_equiv_pos_site_id
_symmetry_equiv_pos_as_xyz
1 x,y,z
2 -x,1/2+y,1/2-z
3 -x,-y,-z
4 x,1/2-y,1/2+z
_cell_length_a                   9.778(5)
_cell_length_b                   18.632(5)
_cell_length_c                   15.600(5)
_cell_angle_alpha                90
_cell_angle_beta                 92.111(5)
_cell_angle_gamma                90
_cell_volume                     2840.14
loop_
_atom_site_label
_atom_site_type_symbol
_atom_site_fract_x
_atom_site_fract_y
_atom_site_fract_z
Cd1 Cd 0.46462(3) 0.026611(13) 0.388431(15)
C1 C 0.3644(4) 0.11508(18) 0.2261(2)
C2 C 0.3613(3) 0.18110(17) 0.1698(2)
C3 C 0.3877(3) 0.17735(18) 0.0801(2)
C4 C 0.4252(4) 0.11317(18) 0.0383(2)
H1 H 0.4308 0.0708 0.0697
C5 C 0.4532(4) 0.1119(2) -0.0463(2)
H2 H 0.4770 0.0689 -0.0721
C6 C 0.4462(4) 0.1751(2) -0.0946(2)
H3 H 0.4650 0.1740 -0.1526
C7 C 0.4120(4) 0.23835(18) -0.0571(2)
H4 H 0.4077 0.2800 -0.0900
C8 C 0.3829(3) 0.24192(16) 0.0309(2)
C9 C 0.3505(3) 0.30819(17) 0.0711(2)
C10 C 0.3270(4) 0.30954(18) 0.1571(2)
H5 H 0.3072 0.3528 0.1837
C11 C 0.3328(4) 0.24586(18) 0.2051(2)
H6 H 0.3165 0.2480 0.2634
C12 C 0.3364(4) 0.37627(17) 0.0176(2)
C13 C 0.6983(4) 0.14197(18) 0.3845(2)
H7 H 0.6305 0.1731 0.3639
C14 C 0.8041(4) 0.04772(18) 0.4279(2)
H8 H 0.8218 0.0003 0.4435
C15 C 0.8972(4) 0.10099(19) 0.4312(2)
H9 H 0.9890 0.0974 0.4485
C16 C 0.8012(4) 0.2908(2) 0.3936(3)
H10 H 0.7080 0.2852 0.4013
C17 C 0.8851(4) 0.23172(18) 0.3947(2)
C18 C 0.8544(4) 0.3585(2) 0.3811(3)
H11 H 0.7962 0.3980 0.3790
C19 C 0.9927(4) 0.36803(18) 0.3718(2)
C20 C 1.0752(4) 0.30831(19) 0.3762(3)
H12 H 1.1692 0.3138 0.3714
C21 C 1.0595(4) 0.43622(18) 0.3519(2)
C22 C 1.1164(4) 0.54863(18) 0.3403(2)
C23 C 1.1250(4) 0.62727(18) 0.3479(2)
C24 C 1.0157(4) 0.6716(2) 0.3598(3)
H13 H 0.9289 0.6518 0.3640
C25 C 1.0318(4) 0.7452(2) 0.3658(3)
H14 H 0.9567 0.7742 0.3759
C26 C 1.1574(4) 0.77513(18) 0.3569(2)
C27 C 1.2677(4) 0.7315(2) 0.3427(3)
H15 H 1.3537 0.7516 0.3357
C28 C 1.0810(4) 0.90431(18) 0.3432(2)
H16 H 0.9886 0.8981 0.3289
C29 C 1.1490(4) 0.96711(19) 0.3507(2)
H17 H 1.1106 1.0123 0.3417
C30 C 1.2963(4) 0.88429(17) 0.3787(2)
H18 H 1.3778 0.8606 0.3927
C31 C 1.0225(4) 0.2408(2) 0.3873(3)
H19 H 1.0805 0.2013 0.3899
C32 C 1.2510(4) 0.6583(2) 0.3389(3)
H20 H 1.3265 0.6292 0.3301
N1 N 0.9053(3) 0.52036(17) 0.4215(2)
H21 H 0.842(4) 0.538(2) 0.387(2)
H22 H 0.928(4) 0.5520(16) 0.4582(19)
N2 N 1.0181(3) 0.50417(14) 0.37110(18)
N3 N 1.1732(3) 0.43855(15) 0.3108(2)
N4 N 1.2108(3) 0.51003(15) 0.3041(2)
N5 N 1.1762(3) 0.85100(14) 0.36086(19)
N6 N 1.2839(3) 0.95403(14) 0.37374(17)
N7 N 0.8292(3) 0.16180(15) 0.40379(18)
N8 N 0.6793(3) 0.07321(15) 0.39850(18)
O1 O 0.3185(3) 0.05712(13) 0.19759(16)
O2 O 0.4166(3) 0.12314(12) 0.30054(14)
O3 O 0.5285(3) -0.03343(13) 0.25964(15)
H23 H 0.5978 -0.0268 0.2293
H24 H 0.4574 -0.0286 0.2272
O4 O 0.2322(3) 0.38463(13) -0.02733(19)
O5 O 0.4374(2) 0.41986(12) 0.02146(14)
Cd1_2 Cd 1.46462(3) 1.026611(13) 0.388431(15)
Cd1A Cd 0.53538(3) 0.526611(13) 0.111569(15)
Cd1C Cd 0.46462(3) 0.473389(13) -0.111569(15)
N6_2 N 0.2839(3) -0.04597(14) 0.37374(17)
O5A O 0.5626(2) -0.08014(12) 0.47854(14)
O5C O 0.4374(2) 0.08014(12) 0.52146(14)
loop_
_geom_bond_atom_site_label_1
_geom_bond_atom_site_label_2
_geom_bond_site_symmetry_1
_geom_bond_site_symmetry_2
Cd1 N8 1_555 1_555
C1 C2 1_555 1_555
C2 C3 1_555 1_555
C3 C4 1_555 1_555
C4 H1 1_555 1_555
C5 C4 1_555 1_555
H2 C5 1_555 1_555
C6 C5 1_555 1_555
H3 C6 1_555 1_555
C7 C6 1_555 1_555
H4 C7 1_555 1_555
C8 C3 1_555 1_555
C9 C8 1_555 1_555
C10 C9 1_555 1_555
H5 C10 1_555 1_555
C11 C2 1_555 1_555
H6 C11 1_555 1_555
C12 C9 1_555 1_555
C13 H7 1_555 1_555
C14 H8 1_555 1_555
C15 C14 1_555 1_555
H9 C15 1_555 1_555
C16 H10 1_555 1_555
C17 C16 1_555 1_555
C18 C16 1_555 1_555
H11 C18 1_555 1_555
C19 C18 1_555 1_555
C20 C19 1_555 1_555
H12 C20 1_555 1_555
C21 C19 1_555 1_555
C22 C23 1_555 1_555
C23 C24 1_555 1_555
C24 H13 1_555 1_555
C25 C24 1_555 1_555
H14 C25 1_555 1_555
C26 C25 1_555 1_555
C27 C26 1_555 1_555
H15 C27 1_555 1_555
C28 H16 1_555 1_555
C29 C28 1_555 1_555
H17 C29 1_555 1_555
C30 H18 1_555 1_555
C31 C17 1_555 1_555
H19 C31 1_555 1_555
C32 C23 1_555 1_555
H20 C32 1_555 1_555
N1 H21 1_555 1_555
H22 N1 1_555 1_555
N2 C21 1_555 1_555
N3 C21 1_555 1_555
N4 C22 1_555 1_555
N5 C26 1_555 1_555
N6 C29 1_555 1_555
N7 C13 1_555 1_555
N8 C13 1_555 1_555
O1 C1 1_555 1_555
O2 Cd1 1_555 1_555
O3 Cd1 1_555 1_555
H23 O3 1_555 1_555
H24 O3 1_555 1_555
O4 C12 1_555 1_555
O5 C12 1_555 1_555
Cd1_2 N6 1_555 1_555
Cd1A O5 1_555 1_555
Cd1C O5 1_555 1_555
N6_2 Cd1 1_555 1_555
O5A Cd1 1_555 1_555
O5C Cd1 1_555 1_555
C1 O2 1_555 1_555
C7 C8 1_555 1_555
C10 C11 1_555 1_555
C14 N8 1_555 1_555
C15 N7 1_555 1_555
C17 N7 1_555 1_555
C20 C31 1_555 1_555
C22 N2 1_555 1_555
C27 C32 1_555 1_555
C28 N5 1_555 1_555
C30 N5 1_555 1_555
C30 N6 1_555 1_555
N1 N2 1_555 1_555
N3 N4 1_555 1_555

#END
