
#######################################################################
#
#                 Cambridge Crystallographic Data Centre
#                                CCDC 
#
#######################################################################
#
# If this CIF has been generated from an entry in the Cambridge 
# Structural Database, then it will include bibliographic, chemical, 
# crystal, experimental, refinement or atomic coordinate data resulting 
# from the CCDC's data processing and validation procedures.
#
#######################################################################

data_FUBFAL
_symmetry_cell_setting           monoclinic
_symmetry_space_group_name_H-M   'P 21/c'
_symmetry_Int_Tables_number      14
_space_group_name_Hall           '-P 2ybc'
loop_
_symmetry_equiv_pos_site_id
_symmetry_equiv_pos_as_xyz
1 x,y,z
2 -x,1/2+y,1/2-z
3 -x,-y,-z
4 x,1/2-y,1/2+z
_cell_length_a                   21.082(5)
_cell_length_b                   7.603(5)
_cell_length_c                   20.045(5)
_cell_angle_alpha                90
_cell_angle_beta                 106.323(5)
_cell_angle_gamma                90
_cell_volume                     3083.44
loop_
_atom_site_label
_atom_site_type_symbol
_atom_site_fract_x
_atom_site_fract_y
_atom_site_fract_z
Co1 Co 0.19504(2) 0.19461(6) -0.13830(2)
C1 C 0.29624(18) -0.0877(5) -0.07855(18)
H1 H 0.2663 -0.1548 -0.0631
C2 C 0.33832(18) 0.1128(5) -0.12720(19)
H2 H 0.3428 0.2125 -0.1524
C3 C 0.38754(19) 0.0022(5) -0.0970(2)
H3 H 0.4315 0.0114 -0.0970
C4 C 0.39645(17) -0.2597(4) -0.01873(18)
C5 C 0.44115(18) -0.2043(5) 0.04142(19)
H4 H 0.4491 -0.0848 0.0497
C6 C 0.47422(17) -0.3261(4) 0.08955(19)
H5 H 0.5044 -0.2885 0.1304
C7 C 0.46280(16) -0.5040(4) 0.07747(18)
C8 C 0.41805(17) -0.5570(5) 0.01535(19)
H6 H 0.4108 -0.6763 0.0062
C9 C 0.38437(17) -0.4355(4) -0.03280(18)
H7 H 0.3542 -0.4717 -0.0739
C10 C 0.49143(17) -0.6396(4) 0.12954(18)
C11 C 0.55217(18) -0.7798(4) 0.22025(18)
C12 C 0.60563(17) -0.8282(4) 0.28202(18)
C13 C 0.62211(18) -1.0053(5) 0.29346(19)
H8 H 0.6002 -1.0883 0.2611
C14 C 0.67032(18) -1.0602(5) 0.35185(19)
H9 H 0.6807 -1.1788 0.3590
C15 C 0.70270(17) -0.9362(4) 0.39931(18)
C16 C 0.6877(2) -0.7609(5) 0.38879(19)
H10 H 0.7103 -0.6780 0.4209
C17 C 0.6394(2) -0.7081(5) 0.33092(19)
H11 H 0.6291 -0.5892 0.3245
C18 C 0.74678(18) -1.1310(4) 0.50081(19)
H12 H 0.7143 -1.2171 0.4878
C19 C 0.8317(2) -0.9839(5) 0.5577(2)
H13 H 0.8693 -0.9502 0.5922
C20 C 0.80527(19) -0.8954(5) 0.4982(2)
H14 H 0.8208 -0.7910 0.4844
C21 C 0.21659(19) 0.4839(5) -0.21862(18)
C22 C 0.18472(17) 0.6372(4) -0.26282(18)
C23 C 0.21991(19) 0.7919(5) -0.26078(19)
H15 H 0.2628 0.8001 -0.2318
C24 C 0.1919(2) 0.9341(5) -0.3013(2)
H16 H 0.2154 1.0386 -0.2991
C25 C 0.1296(2) 0.9192(6) -0.3444(2)
C26 C 0.0930(2) 0.7697(6) -0.3466(2)
H17 H 0.0501 0.7628 -0.3759
C27 C 0.12063(19) 0.6289(5) -0.3047(2)
H18 H 0.0957 0.5278 -0.3049
C28 C 0.05103(19) 1.1498(5) -0.3888(2)
C29 C 0.03299(18) 1.1719(5) -0.3285(2)
H19 H 0.0558 1.1152 -0.2877
C30 C -0.01976(18) 1.2803(4) -0.33030(19)
H20 H -0.0321 1.2982 -0.2898
C31 C -0.05477(17) 1.3631(4) -0.39062(19)
C32 C -0.03594(19) 1.3351(5) -0.4507(2)
H21 H -0.0597 1.3876 -0.4921
C33 C 0.0176(2) 1.2301(5) -0.4496(2)
H22 H 0.0309 1.2140 -0.4897
C34 C -0.11263(19) 1.4758(4) -0.3928(2)
N1 N 0.28061(14) 0.0578(3) -0.11555(15)
N2 N 0.36029(14) -0.1271(3) -0.06603(14)
N3 N 0.46415(15) -0.7959(4) 0.13110(15)
N4 N 0.50303(15) -0.8839(4) 0.18902(16)
N5 N 0.54680(14) -0.6250(3) 0.18470(15)
N6 N 0.58889(15) -0.4775(4) 0.19783(16)
H23 H 0.6370 -0.5090 0.2041
H24 H 0.5906 -0.4329 0.2368
N7 N 0.75104(14) -0.9894(4) 0.46192(15)
N8 N 0.79457(14) -1.1320(4) 0.55956(15)
O1 O 0.17876(13) 0.3542(3) -0.21724(13)
O2 O 0.27609(13) 0.4899(3) -0.18655(14)
O3 O 0.10646(16) 1.0558(4) -0.39143(17)
O4 O -0.15706(13) 1.4995(3) -0.44792(14)
O5 O -0.11608(13) 1.5455(3) -0.33641(14)
Co1A Co -0.19504(2) 1.69461(6) -0.36170(2)
Co1A_2 Co 0.80496(2) -1.30539(6) 0.63830(2)
N8A N 0.20543(14) 0.3680(4) -0.05956(15)
O5A O 0.11608(13) 0.0455(3) -0.16359(14)
O6 O -0.2114(2) 1.5964(6) -0.5918(2)
H25 H -0.180(2) 1.569(8) -0.557(2)
loop_
_geom_bond_atom_site_label_1
_geom_bond_atom_site_label_2
_geom_bond_site_symmetry_1
_geom_bond_site_symmetry_2
Co1 N1 1_555 1_555
C1 H1 1_555 1_555
C2 H2 1_555 1_555
C3 C2 1_555 1_555
H3 C3 1_555 1_555
C4 C5 1_555 1_555
C5 H4 1_555 1_555
C6 C5 1_555 1_555
H5 C6 1_555 1_555
C7 C6 1_555 1_555
C8 C7 1_555 1_555
H6 C8 1_555 1_555
C9 C4 1_555 1_555
H7 C9 1_555 1_555
C10 C7 1_555 1_555
C11 C12 1_555 1_555
C12 C13 1_555 1_555
C13 H8 1_555 1_555
C14 C13 1_555 1_555
H9 C14 1_555 1_555
C15 C14 1_555 1_555
C16 C15 1_555 1_555
H10 C16 1_555 1_555
C17 C12 1_555 1_555
H11 C17 1_555 1_555
C18 H12 1_555 1_555
C19 H13 1_555 1_555
C20 C19 1_555 1_555
H14 C20 1_555 1_555
C21 C22 1_555 1_555
C22 C23 1_555 1_555
C23 H15 1_555 1_555
C24 C23 1_555 1_555
H16 C24 1_555 1_555
C25 C24 1_555 1_555
C26 C25 1_555 1_555
H17 C26 1_555 1_555
C27 C22 1_555 1_555
H18 C27 1_555 1_555
C28 C29 1_555 1_555
C29 H19 1_555 1_555
C30 C29 1_555 1_555
H20 C30 1_555 1_555
C31 C30 1_555 1_555
C32 C31 1_555 1_555
H21 C32 1_555 1_555
C33 C28 1_555 1_555
H22 C33 1_555 1_555
C34 C31 1_555 1_555
N1 C1 1_555 1_555
N2 C1 1_555 1_555
N3 C10 1_555 1_555
N4 C11 1_555 1_555
N5 C10 1_555 1_555
N6 N5 1_555 1_555
H23 N6 1_555 1_555
H24 N6 1_555 1_555
N7 C15 1_555 1_555
N8 C18 1_555 1_555
O1 Co1 1_555 1_555
O2 C21 1_555 1_555
O3 C25 1_555 1_555
O4 C34 1_555 1_555
O5 C34 1_555 1_555
O6 H25 1_555 1_555
Co1A O5 1_555 1_555
Co1A_2 N8 1_555 1_555
N8A Co1 1_555 1_555
O5A Co1 1_555 1_555
C2 N1 1_555 1_555
C3 N2 1_555 1_555
C4 N2 1_555 1_555
C8 C9 1_555 1_555
C11 N5 1_555 1_555
C16 C17 1_555 1_555
C18 N7 1_555 1_555
C19 N8 1_555 1_555
C20 N7 1_555 1_555
C21 O1 1_555 1_555
C26 C27 1_555 1_555
C28 O3 1_555 1_555
C32 C33 1_555 1_555
N3 N4 1_555 1_555

#END
