
#######################################################################
#
#                 Cambridge Crystallographic Data Centre
#                                CCDC 
#
#######################################################################
#
# If this CIF has been generated from an entry in the Cambridge 
# Structural Database, then it will include bibliographic, chemical, 
# crystal, experimental, refinement or atomic coordinate data resulting 
# from the CCDC's data processing and validation procedures.
#
#######################################################################

data_FUBLUL
_symmetry_cell_setting           tetragonal
_symmetry_space_group_name_H-M   'I 41/a'
_symmetry_Int_Tables_number      88
_space_group_name_Hall           '-I 4ad'
loop_
_symmetry_equiv_pos_site_id
_symmetry_equiv_pos_as_xyz
1 x,y,z
2 3/4-y,1/4+x,1/4+z
3 -x,1/2-y,z
4 1/4+y,1/4-x,1/4+z
5 1/2+x,1/2+y,1/2+z
6 1/4-y,3/4+x,3/4+z
7 1/2-x,-y,1/2+z
8 3/4+y,3/4-x,3/4+z
9 -x,-y,-z
10 1/4+y,3/4-x,3/4-z
11 x,1/2+y,-z
12 3/4-y,3/4+x,3/4-z
13 1/2-x,1/2-y,1/2-z
14 3/4+y,1/4-x,1/4-z
15 1/2+x,y,1/2-z
16 1/4-y,1/4+x,1/4-z
_cell_length_a                   28.2519(3)
_cell_length_b                   28.2519(3)
_cell_length_c                   12.3144(3)
_cell_angle_alpha                90
_cell_angle_beta                 90
_cell_angle_gamma                90
_cell_volume                     9828.98
loop_
_atom_site_label
_atom_site_type_symbol
_atom_site_fract_x
_atom_site_fract_y
_atom_site_fract_z
Cd1 Cd 0.138397(14) 0.548395(14) 0.08088(3)
Cd2 Cd 0.202231(14) 0.383763(13) -0.16146(3)
Cd3 Cd 0.243688(14) 0.455067(14) 0.10475(3)
C1 C -0.0758(2) 0.4677(2) -0.2932(5)
H1 H -0.1034 0.4822 -0.3173
C2 C -0.0367(2) 0.4665(2) -0.3607(5)
H2 H -0.0384 0.4793 -0.4302
C3 C 0.0048(2) 0.4464(2) -0.3247(5)
H3 H 0.0314 0.4453 -0.3691
C4 C 0.0059(2) 0.4279(2) -0.2201(4)
C5 C -0.0345(2) 0.4285(2) -0.1574(4)
H4 H -0.0338 0.4150 -0.0886
C6 C 0.0564(2) 0.3857(2) -0.0934(4)
C7 C 0.0306(2) 0.3443(2) -0.0792(5)
H5 H 0.0069 0.3359 -0.1280
C8 C 0.0409(2) 0.3159(2) 0.0095(6)
H6 H 0.0234 0.2885 0.0214
C9 C 0.0769(2) 0.3279(2) 0.0805(5)
H7 H 0.0841 0.3083 0.1388
C10 C 0.1026(2) 0.3698(2) 0.0642(5)
C11 C 0.09173(19) 0.39939(19) -0.0235(4)
C12 C 0.1424(2) 0.3816(2) 0.1402(5)
C13 C 0.11625(18) 0.44623(19) -0.0418(4)
C14 C 0.2162(2) 0.8140(2) -0.0423(5)
H8 H 0.2309 0.8411 -0.0687
C15 C 0.2150(2) 0.7749(2) -0.1064(5)
H9 H 0.2276 0.7759 -0.1761
C16 C 0.1951(2) 0.7335(2) -0.0674(5)
H10 H 0.1938 0.7063 -0.1097
C17 C 0.1768(2) 0.7342(2) 0.0382(5)
C18 C 0.1771(2) 0.7758(2) 0.0977(5)
H11 H 0.1634 0.7765 0.1663
C19 C 0.1326(2) 0.6877(2) 0.1681(5)
C20 C 0.0912(2) 0.7135(2) 0.1756(5)
H12 H 0.0829 0.7349 0.1214
C21 C 0.0623(2) 0.7069(2) 0.2645(6)
H13 H 0.0348 0.7248 0.2716
C22 C 0.0740(2) 0.6739(2) 0.3440(5)
H14 H 0.0540 0.6693 0.4030
C23 C 0.11560(19) 0.6476(2) 0.3353(5)
C24 C 0.14606(19) 0.65452(19) 0.2457(4)
C25 C 0.1260(2) 0.6113(2) 0.4208(5)
C26 C 0.1924(2) 0.6290(2) 0.2330(4)
N1 N -0.07479(17) 0.44820(17) -0.1936(4)
N2 N 0.19719(17) 0.81517(17) 0.0574(4)
O1 O 0.04970(14) 0.41358(17) -0.1852(3)
O2 O 0.14549(15) 0.35777(16) 0.2269(3)
O3 O 0.17043(16) 0.41337(18) 0.1129(4)
O4 O 0.14823(14) 0.44822(14) -0.1138(3)
O5 O 0.10142(15) 0.48053(14) 0.0128(3)
O6 O 0.16214(16) 0.69087(15) 0.0773(3)
O7 O 0.09886(16) 0.61098(16) 0.5037(3)
O8 O 0.15795(15) 0.58157(15) 0.4086(3)
O9 O 0.19413(16) 0.59266(17) 0.1756(4)
O10 O 0.22733(14) 0.64840(14) 0.2778(3)
O11 O 0.20762(14) 0.51898(14) 0.0382(3)
H15 H 0.2179 0.5390 0.0677
O12 O 0.24412(14) 0.43850(14) -0.0783(3)
H16 H 0.2703 0.4275 -0.0948
Cd1A Cd 0.201605(14) 0.388397(14) 0.33088(3)
Cd1H Cd -0.138397(14) 0.451605(14) -0.08088(3)
Cd2F Cd 0.297769(14) 0.616237(13) 0.33854(3)
Cd2G Cd 0.133763(13) 0.547769(14) 0.58854(3)
Cd2J Cd 0.202231(14) 0.883763(13) 0.16146(3)
Cd3G Cd 0.205067(14) 0.506312(14) -0.14525(3)
N1H N 0.07479(17) 0.55180(17) 0.1936(4)
N2J N 0.19719(17) 0.31517(17) -0.0574(4)
O2G O 0.10777(16) 0.60451(15) -0.0231(3)
O4A O 0.30178(14) 0.39823(14) 0.1362(3)
O7A O 0.13902(16) 0.34886(16) -0.2463(3)
O8A O 0.16843(15) 0.40795(15) -0.3414(3)
O10F O 0.27267(14) 0.35160(14) -0.2222(3)
O11A O 0.23102(14) 0.45762(14) 0.2882(3)
O12A O 0.31150(14) 0.49412(14) 0.1717(3)
loop_
_geom_bond_atom_site_label_1
_geom_bond_atom_site_label_2
_geom_bond_site_symmetry_1
_geom_bond_site_symmetry_2
Cd1 O5 1_555 1_555
Cd2 O4 1_555 1_555
Cd3 O3 1_555 1_555
C1 H1 1_555 1_555
C2 C1 1_555 1_555
H2 C2 1_555 1_555
C3 C2 1_555 1_555
H3 C3 1_555 1_555
C4 C3 1_555 1_555
C5 C4 1_555 1_555
H4 C5 1_555 1_555
C6 C7 1_555 1_555
C7 H5 1_555 1_555
C8 C7 1_555 1_555
H6 C8 1_555 1_555
C9 C8 1_555 1_555
H7 C9 1_555 1_555
C10 C9 1_555 1_555
C11 C6 1_555 1_555
C12 C10 1_555 1_555
C13 C11 1_555 1_555
C14 H8 1_555 1_555
C15 C14 1_555 1_555
H9 C15 1_555 1_555
C16 C15 1_555 1_555
H10 C16 1_555 1_555
C17 C16 1_555 1_555
C18 C17 1_555 1_555
H11 C18 1_555 1_555
C19 C20 1_555 1_555
C20 H12 1_555 1_555
C21 C20 1_555 1_555
H13 C21 1_555 1_555
C22 C21 1_555 1_555
H14 C22 1_555 1_555
C23 C22 1_555 1_555
C24 C19 1_555 1_555
C25 C23 1_555 1_555
C26 C24 1_555 1_555
N1 C1 1_555 1_555
N2 C14 1_555 1_555
O1 C4 1_555 1_555
O2 C12 1_555 1_555
O3 C12 1_555 1_555
O4 C13 1_555 1_555
O5 C13 1_555 1_555
O6 C17 1_555 1_555
O7 C25 1_555 1_555
O8 C25 1_555 1_555
O9 Cd1 1_555 1_555
O10 C26 1_555 1_555
O11 Cd1 1_555 1_555
H15 O11 1_555 1_555
O12 Cd2 1_555 1_555
H16 O12 1_555 1_555
Cd1A O2 1_555 1_555
Cd1H N1 1_555 1_555
Cd2F O10 1_555 1_555
Cd2G O7 1_555 1_555
Cd2J N2 1_555 1_555
Cd3G O4 1_555 1_555
N1H Cd1 1_555 1_555
N2J Cd2 1_555 1_555
O2G Cd1 1_555 1_555
O4A Cd3 1_555 1_555
O7A Cd2 1_555 1_555
O8A Cd2 1_555 1_555
O10F Cd2 1_555 1_555
O11A Cd3 1_555 1_555
O12A Cd3 1_555 1_555
Cd3 O11 1_555 1_555
Cd3 O12 1_555 1_555
C5 N1 1_555 1_555
C6 O1 1_555 1_555
C10 C11 1_555 1_555
C18 N2 1_555 1_555
C19 O6 1_555 1_555
C23 C24 1_555 1_555
C26 O9 1_555 1_555
O8 Cd2G 1_555 1_555
O11 Cd3G 1_555 1_555
O12 Cd3G 1_555 1_555
Cd1A O11A 1_555 1_555

#END
