
#######################################################################
#
#                 Cambridge Crystallographic Data Centre
#                                CCDC 
#
#######################################################################
#
# If this CIF has been generated from an entry in the Cambridge 
# Structural Database, then it will include bibliographic, chemical, 
# crystal, experimental, refinement or atomic coordinate data resulting 
# from the CCDC's data processing and validation procedures.
#
#######################################################################

data_FUBLOF
_symmetry_cell_setting           monoclinic
_symmetry_space_group_name_H-M   'C 2/c'
_symmetry_Int_Tables_number      15
_space_group_name_Hall           '-C 2yn'
loop_
_symmetry_equiv_pos_site_id
_symmetry_equiv_pos_as_xyz
1 x,y,z
2 -x,y,1/2-z
3 1/2+x,1/2+y,z
4 1/2-x,1/2+y,1/2-z
5 -x,-y,-z
6 x,-y,1/2+z
7 1/2-x,1/2-y,-z
8 1/2+x,1/2-y,1/2+z
_cell_length_a                   21.5392(7)
_cell_length_b                   14.2336(4)
_cell_length_c                   7.7362(2)
_cell_angle_alpha                90
_cell_angle_beta                 93.9570(10)
_cell_angle_gamma                90
_cell_volume                     2366.11
loop_
_atom_site_label
_atom_site_type_symbol
_atom_site_fract_x
_atom_site_fract_y
_atom_site_fract_z
Cd1 Cd 0.408212(8) 0.431948(12) 0.71286(2)
C1 C 0.27784(14) 0.4136(2) 0.4729(4)
H1 H 0.3010 0.4473 0.3970
C2 C 0.21832(14) 0.3860(2) 0.4179(4)
H2 H 0.2017 0.4018 0.3076
C3 C 0.18371(13) 0.3347(2) 0.5288(5)
H3 H 0.1436 0.3146 0.4947
C4 C 0.21032(12) 0.31450(18) 0.6903(4)
C5 C 0.26978(12) 0.34460(19) 0.7388(4)
H4 H 0.2870 0.3304 0.8493
C6 C 0.12595(13) 0.2913(2) 0.8665(5)
C7 C 0.11547(19) 0.3856(2) 0.8879(7)
H5 H 0.1443 0.4295 0.8542
C8 C 0.0620(2) 0.4147(3) 0.9595(8)
H6 H 0.0550 0.4784 0.9765
C9 C 0.01900(18) 0.3495(2) 1.0059(6)
H7 H -0.0178 0.3697 1.0500
C10 C 0.02989(13) 0.25441(19) 0.9877(4)
C11 C 0.08398(12) 0.22402(17) 0.9158(4)
C12 C -0.01535(12) 0.18555(18) 1.0563(4)
C13 C 0.09849(11) 0.12156(17) 0.8906(3)
N1 N 0.30356(10) 0.39377(16) 0.6309(3)
O1 O 0.18092(9) 0.25801(13) 0.8058(3)
O2 O -0.06584(8) 0.21524(14) 1.1056(3)
O3 O 0.00038(8) 0.10047(12) 1.0717(2)
O4 O 0.08343(10) 0.08654(14) 0.7467(3)
O5 O 0.12623(9) 0.07625(12) 1.0125(3)
Cd1C Cd 0.091788(8) -0.068052(12) 0.78714(2)
Cd1F Cd 0.091788(8) 0.068052(12) 1.28714(2)
Cd1G Cd -0.091788(8) 0.068052(12) 1.21286(2)
O2G O 0.43416(8) 0.28476(14) 0.6056(3)
O3F O 0.49962(8) 0.39953(12) 0.9283(2)
O3G O 0.50038(8) 0.39953(12) 0.5717(2)
O4C O 0.41657(10) 0.58654(14) 0.7533(3)
O5C O 0.37377(9) 0.57625(12) 0.4875(3)
O5F O 0.37377(9) 0.42375(12) 0.9875(3)
loop_
_geom_bond_atom_site_label_1
_geom_bond_atom_site_label_2
_geom_bond_site_symmetry_1
_geom_bond_site_symmetry_2
Cd1 N1 1_555 1_555
C1 H1 1_555 1_555
C2 C1 1_555 1_555
H2 C2 1_555 1_555
C3 C2 1_555 1_555
H3 C3 1_555 1_555
C4 C3 1_555 1_555
C5 C4 1_555 1_555
H4 C5 1_555 1_555
C6 C7 1_555 1_555
C7 H5 1_555 1_555
C8 C7 1_555 1_555
H6 C8 1_555 1_555
C9 C8 1_555 1_555
H7 C9 1_555 1_555
C10 C9 1_555 1_555
C11 C6 1_555 1_555
C12 C10 1_555 1_555
C13 C11 1_555 1_555
N1 C1 1_555 1_555
O1 C4 1_555 1_555
O2 C12 1_555 1_555
O3 C12 1_555 1_555
O4 C13 1_555 1_555
O5 C13 1_555 1_555
Cd1C O4 1_555 1_555
Cd1F O3 1_555 1_555
Cd1G O2 1_555 1_555
O2G Cd1 1_555 1_555
O3F Cd1 1_555 1_555
O3G Cd1 1_555 1_555
O4C Cd1 1_555 1_555
O5C Cd1 1_555 1_555
O5F Cd1 1_555 1_555
C5 N1 1_555 1_555
C6 O1 1_555 1_555
C10 C11 1_555 1_555
O3 Cd1G 1_555 1_555
O5 Cd1C 1_555 1_555
O5 Cd1F 1_555 1_555

#END
