
#######################################################################
#
#                 Cambridge Crystallographic Data Centre
#                                CCDC 
#
#######################################################################
#
# If this CIF has been generated from an entry in the Cambridge 
# Structural Database, then it will include bibliographic, chemical, 
# crystal, experimental, refinement or atomic coordinate data resulting 
# from the CCDC's data processing and validation procedures.
#
#######################################################################

data_FUBNIB
_symmetry_cell_setting           monoclinic
_symmetry_space_group_name_H-M   'P 21/c'
_symmetry_Int_Tables_number      14
_space_group_name_Hall           '-P 2ybc'
loop_
_symmetry_equiv_pos_site_id
_symmetry_equiv_pos_as_xyz
1 x,y,z
2 -x,1/2+y,1/2-z
3 -x,-y,-z
4 x,1/2-y,1/2+z
_cell_length_a                   8.2421(5)
_cell_length_b                   15.4132(9)
_cell_length_c                   11.7817(7)
_cell_angle_alpha                90
_cell_angle_beta                 91.0030(10)
_cell_angle_gamma                90
_cell_volume                     1496.48
loop_
_atom_site_label
_atom_site_type_symbol
_atom_site_fract_x
_atom_site_fract_y
_atom_site_fract_z
O1 O -0.1420(3) -0.05230(16) 0.91181(18)
O2 O 0.5884(4) 0.51099(15) 0.68317(19)
O3 O 0.5104(3) 0.41340(13) 0.55479(15)
O4 O 0.2971(3) 0.26700(13) 0.58781(15)
O5 O 0.2937(2) 0.16892(12) 0.72447(14)
O6 O 0.0659(3) 0.2378(2) 0.8949(2)
H1 H 0.070(6) 0.284(3) 0.896(4)
H2 H 0.001(6) 0.230(3) 0.853(4)
O7 O 0.0539(3) 0.03955(19) 0.86704(19)
La1 La 0.290862(18) 0.130389(9) 0.930090(11)
C1 C 0.6612(5) 0.3767(2) 1.1092(3)
H3 H 0.605(4) 0.425(2) 1.095(3)
C2 C 0.5135(4) 0.37503(14) 0.7490(2)
C3 C 0.6610(3) 0.31167(18) 1.0273(2)
C4 C 0.5751(3) 0.32125(18) 0.9172(2)
C5 C 0.3378(3) 0.24075(16) 0.68416(19)
C6 C 0.5350(3) 0.43773(17) 0.6551(2)
C7 C 0.4439(3) 0.29479(16) 0.76022(19)
C8 C -0.0261(4) -0.0036(2) 0.9363(2)
C9 C 0.7509(4) 0.2378(2) 1.0486(3)
H4 H 0.753(4) 0.195(2) 0.999(3)
C10 C 0.7506(5) 0.3642(2) 1.2079(3)
H5 H 0.753(5) 0.405(3) 1.264(4)
C11 C 0.8385(4) 0.2315(3) 1.1501(3)
H6 H 0.895(4) 0.185(2) 1.173(3)
N1 N 0.5926(3) 0.39089(16) 0.85049(19)
H7 H 0.656(5) 0.440(3) 0.867(3)
N2 N 0.4834(3) 0.26129(14) 0.86666(17)
N3 N 0.8400(4) 0.2937(2) 1.2283(2)
O1B O 0.1420(3) 0.05230(16) 1.08819(18)
O7B O -0.0539(3) -0.03955(19) 1.13296(19)
C8B C 0.0261(4) 0.0036(2) 1.0637(2)
O2B O -0.5884(4) -0.51099(15) 1.31683(19)
O3B O -0.5104(3) -0.41340(13) 1.44521(15)
O4B O -0.2971(3) -0.26700(13) 1.41219(15)
O5B O -0.2937(2) -0.16892(12) 1.27553(14)
O6B O -0.0659(3) -0.2378(2) 1.1051(2)
H1B H -0.070(6) -0.284(3) 1.104(4)
H2B H -0.001(6) -0.230(3) 1.147(4)
La1B La -0.290862(18) -0.130389(9) 1.069910(11)
C1B C -0.6612(5) -0.3767(2) 0.8908(3)
H3B H -0.605(4) -0.425(2) 0.905(3)
C2B C -0.5135(4) -0.37503(14) 1.2510(2)
C3B C -0.6610(3) -0.31167(18) 0.9727(2)
C4B C -0.5751(3) -0.32125(18) 1.0828(2)
C5B C -0.3378(3) -0.24075(16) 1.31584(19)
C6B C -0.5350(3) -0.43773(17) 1.3449(2)
C7B C -0.4439(3) -0.29479(16) 1.23978(19)
C9B C -0.7509(4) -0.2378(2) 0.9514(3)
H4B H -0.753(4) -0.195(2) 1.001(3)
C10B C -0.7506(5) -0.3642(2) 0.7921(3)
H5B H -0.753(5) -0.405(3) 0.736(4)
C11B C -0.8385(4) -0.2315(3) 0.8499(3)
H6B H -0.895(4) -0.185(2) 0.827(3)
N1B N -0.5926(3) -0.39089(16) 1.14951(19)
H7B H -0.656(5) -0.440(3) 1.133(3)
N2B N -0.4834(3) -0.26129(14) 1.13334(17)
N3B N -0.8400(4) -0.2937(2) 0.7717(2)
O2A O 0.4116(4) 0.01099(15) 0.81683(19)
O2C O -0.4116(4) -0.01099(15) 1.18317(19)
O3A O -0.5104(3) -0.08660(13) 0.94521(15)
O3C O 0.5104(3) 0.08660(13) 1.05479(15)
O4A O -0.2971(3) -0.23300(13) 0.91219(15)
O4C O 0.2971(3) 0.23300(13) 1.08781(15)
La1A La -0.290862(18) -0.369611(9) 1.569910(11)
La1A_2 La 0.709138(18) 0.630389(9) 0.569910(11)
La1C La -0.709138(18) -0.630389(9) 1.430090(11)
La1C_2 La 0.290862(18) 0.369611(9) 0.430090(11)
O8 O 0.2038(3) 0.03152(19) 0.5818(2)
H8 H 0.172(5) 0.053(3) 0.509(4)
H9 H 0.236(5) 0.074(3) 0.612(4)
O9 O 0.9256(5) 0.5733(2) 0.1453(3)
H10 H 1.006(7) 0.531(4) 0.130(4)
H11 H 0.891(7) 0.559(4) 0.215(6)
loop_
_geom_bond_atom_site_label_1
_geom_bond_atom_site_label_2
_geom_bond_site_symmetry_1
_geom_bond_site_symmetry_2
O1 C8 1_555 1_555
O2 C6 1_555 1_555
O3 C6 1_555 1_555
O4 C5 1_555 1_555
O5 La1 1_555 1_555
O6 H1 1_555 1_555
H2 O6 1_555 1_555
O7 La1 1_555 1_555
La1 O6 1_555 1_555
C1 H3 1_555 1_555
C2 C6 1_555 1_555
C3 C1 1_555 1_555
C4 C3 1_555 1_555
C5 O5 1_555 1_555
C7 C2 1_555 1_555
C8 O7 1_555 1_555
C9 C3 1_555 1_555
H4 C9 1_555 1_555
C10 C1 1_555 1_555
H5 C10 1_555 1_555
C11 C9 1_555 1_555
H6 C11 1_555 1_555
N1 C2 1_555 1_555
H7 N1 1_555 1_555
N2 La1 1_555 1_555
N3 C10 1_555 1_555
O8 H8 1_555 1_555
H9 O8 1_555 1_555
O9 H10 1_555 1_555
H11 O9 1_555 1_555
O1B La1 1_555 1_555
O7B C8B 1_555 1_555
C8B C8 1_555 1_555
O2B C6B 1_555 1_555
O3B C6B 1_555 1_555
O4B C5B 1_555 1_555
O5B La1B 1_555 1_555
O6B H1B 1_555 1_555
H2B O6B 1_555 1_555
La1B O1 1_555 1_555
C1B H3B 1_555 1_555
C2B C6B 1_555 1_555
C3B C1B 1_555 1_555
C4B C3B 1_555 1_555
C5B O5B 1_555 1_555
C7B C2B 1_555 1_555
C9B C3B 1_555 1_555
H4B C9B 1_555 1_555
C10B C1B 1_555 1_555
H5B C10B 1_555 1_555
C11B C9B 1_555 1_555
H6B C11B 1_555 1_555
N1B C2B 1_555 1_555
H7B N1B 1_555 1_555
N2B La1B 1_555 1_555
N3B C10B 1_555 1_555
O2A La1 1_555 1_555
O2C La1B 1_555 1_555
O3A La1B 1_555 1_555
O3C La1 1_555 1_555
O4A La1B 1_555 1_555
O4C La1 1_555 1_555
La1A O3B 1_555 1_555
La1A_2 O2 1_555 1_555
La1C O2B 1_555 1_555
La1C_2 O3 1_555 1_555
O4 La1C_2 1_555 1_555
C4 N1 1_555 1_555
C4 N2 1_555 1_555
C5 C7 1_555 1_555
C7 N2 1_555 1_555
C11 N3 1_555 1_555
O1B C8B 1_555 1_555
O7B La1B 1_555 1_555
O4B La1A 1_555 1_555
O6B La1B 1_555 1_555
C4B N1B 1_555 1_555
C4B N2B 1_555 1_555
C5B C7B 1_555 1_555
C7B N2B 1_555 1_555
C11B N3B 1_555 1_555

#END
