
#######################################################################
#
#                 Cambridge Crystallographic Data Centre
#                                CCDC 
#
#######################################################################
#
# If this CIF has been generated from an entry in the Cambridge 
# Structural Database, then it will include bibliographic, chemical, 
# crystal, experimental, refinement or atomic coordinate data resulting 
# from the CCDC's data processing and validation procedures.
#
#######################################################################

data_FUBRAX
_symmetry_cell_setting           triclinic
_symmetry_space_group_name_H-M   'P -1'
_symmetry_Int_Tables_number      2
_space_group_name_Hall           '-P 1'
loop_
_symmetry_equiv_pos_site_id
_symmetry_equiv_pos_as_xyz
1 x,y,z
2 -x,-y,-z
_cell_length_a                   10.0677(3)
_cell_length_b                   15.6039(5)
_cell_length_c                   20.1092(5)
_cell_angle_alpha                78.1845(10)
_cell_angle_beta                 83.2542(11)
_cell_angle_gamma                73.8005(13)
_cell_volume                     2963.23
loop_
_atom_site_label
_atom_site_type_symbol
_atom_site_fract_x
_atom_site_fract_y
_atom_site_fract_z
Zn1 Zn -0.10093(4) 0.17502(3) 1.32824(2)
Zn2 Zn 0.11820(4) 0.35189(3) 1.33788(2)
O1 O 0.0955(3) 0.0770(3) 0.98641(17)
O2 O -0.2911(3) 0.2176(2) 0.68040(16)
O3 O -0.0876(3) 0.4151(2) 0.99495(16)
O4 O 0.2576(3) 0.2448(2) 0.69104(15)
O5 O -0.1715(3) 0.3107(2) 1.31485(17)
O6 O -0.0857(3) 0.4190(2) 1.33653(15)
O7 O -0.6842(3) 0.3663(2) 1.32756(15)
O8 O -0.8189(3) 0.5046(2) 1.32676(16)
O9 O 0.1022(3) 0.1117(2) 1.32153(15)
O10 O 0.1906(3) 0.21441(19) 1.35071(15)
O11 O 0.7048(3) 0.1581(2) 1.33323(15)
O12 O 0.8386(3) 0.0211(2) 1.32455(16)
N1 N -0.0903(4) 0.1821(2) 1.21819(18)
N2 N -0.1080(4) 0.1784(3) 1.01108(18)
H1 H -0.1827 0.2158 0.9927
N3 N -0.0837(4) 0.1278(2) 0.64843(17)
H2 H -0.0068 0.0900 0.6642
N4 N -0.1012(3) 0.1577(2) 0.43670(17)
N5 N 0.1218(4) 0.3602(3) 1.22891(17)
N6 N 0.1250(4) 0.3281(3) 1.02588(18)
H3 H 0.2013 0.2912 1.0115
N7 N 0.0561(4) 0.3461(2) 0.65630(17)
H4 H -0.0221 0.3817 0.6702
N8 N 0.1000(3) 0.3466(2) 0.44568(17)
C1 C -0.1878(5) 0.2407(3) 1.1796(2)
H5 H -0.2560 0.2845 1.2005
C2 C -0.1955(5) 0.2413(3) 1.1118(2)
H6 H -0.2677 0.2842 1.0870
C3 C -0.0955(4) 0.1780(3) 1.0797(2)
C4 C 0.0068(5) 0.1168(3) 1.1187(2)
H7 H 0.0768 0.0724 1.0993
C5 C 0.0041(5) 0.1221(3) 1.1870(2)
H8 H 0.0746 0.0800 1.2134
C6 C -0.0163(5) 0.1267(3) 0.9693(2)
C7 C -0.0625(5) 0.1359(3) 0.8995(2)
C8 C 0.0392(5) 0.1110(3) 0.8489(2)
H9 H 0.1334 0.0885 0.8598
C9 C 0.0052(5) 0.1184(3) 0.7828(2)
H10 H 0.0761 0.1005 0.7490
C10 C -0.1321(4) 0.1520(3) 0.7655(2)
C11 C -0.2342(5) 0.1750(4) 0.8164(2)
H11 H -0.3284 0.1967 0.8055
C12 C -0.2011(5) 0.1670(4) 0.8830(2)
H12 H -0.2724 0.1826 0.9172
C13 C -0.1775(4) 0.1690(3) 0.6945(2)
C14 C 0.0091(5) 0.1068(3) 0.4708(2)
H13 H 0.0875 0.0757 0.4459
C15 C 0.0145(5) 0.0972(3) 0.5402(2)
H14 H 0.0959 0.0610 0.5617
C16 C -0.0979(4) 0.1399(3) 0.5785(2)
C17 C -0.2153(5) 0.1914(4) 0.5436(2)
H15 H -0.2963 0.2218 0.5673
C18 C -0.2104(4) 0.1970(4) 0.4742(2)
H16 H -0.2911 0.2314 0.4513
C19 C 0.0183(5) 0.4089(3) 1.1895(2)
H17 H -0.0561 0.4503 1.2092
C20 C 0.0116(5) 0.4032(3) 1.1223(2)
H18 H -0.0646 0.4397 1.0970
C21 C 0.1189(5) 0.3430(3) 1.0931(2)
C22 C 0.2307(5) 0.2931(3) 1.1321(2)
H19 H 0.3075 0.2525 1.1131
C23 C 0.2274(4) 0.3038(3) 1.1992(2)
H20 H 0.3035 0.2695 1.2254
C24 C 0.0234(5) 0.3656(3) 0.9806(2)
C25 C 0.0595(5) 0.3439(3) 0.9103(2)
C26 C 0.1906(5) 0.2973(4) 0.8870(2)
H21 H 0.2635 0.2746 0.9172
C27 C 0.2145(5) 0.2842(4) 0.8204(2)
H22 H 0.3044 0.2529 0.8050
C28 C 0.1096(4) 0.3158(3) 0.7754(2)
C29 C -0.0225(5) 0.3605(3) 0.7988(2)
H23 H -0.0957 0.3816 0.7688
C30 C -0.0470(5) 0.3741(4) 0.8652(2)
H24 H -0.1375 0.4043 0.8807
C31 C 0.1483(4) 0.2983(3) 0.7044(2)
C32 C -0.0242(10) 0.3625(9) 0.4810(5)
H25 H -0.1048 0.3745 0.4567
C33 C -0.0420(10) 0.3626(8) 0.5504(4)
H26 H -0.1320 0.3758 0.5726
C34 C 0.0769(4) 0.3425(3) 0.5868(2)
C35 C 0.2034(9) 0.3302(7) 0.5509(4)
H27 H 0.2856 0.3200 0.5735
C36 C 0.2099(9) 0.3327(7) 0.4812(4)
H28 H 0.2985 0.3239 0.4574
C37 C 0.3448(4) 0.0788(3) 1.3244(2)
C38 C 0.4622(4) 0.1072(3) 1.32776(19)
H29 H 0.4536 0.1675 1.3336
C39 C 0.5935(4) 0.0467(3) 1.3225(2)
C40 C 0.6054(4) -0.0417(3) 1.3148(2)
H30 H 0.6946 -0.0828 1.3120
C41 C 0.4882(5) -0.0704(3) 1.3111(3)
H31 H 0.4968 -0.1309 1.3057
C42 C 0.3578(4) -0.0098(3) 1.3155(3)
H32 H 0.2772 -0.0287 1.3124
C43 C 0.2016(4) 0.1411(3) 1.33206(19)
C44 C 0.7223(4) 0.0760(3) 1.3270(2)
C45 C -0.3253(4) 0.4538(3) 1.3215(2)
C46 C -0.4425(4) 0.4219(3) 1.32213(19)
H33 H -0.4333 0.3591 1.3240
C47 C -0.5733(4) 0.4837(3) 1.3200(2)
C48 C -0.5857(5) 0.5758(3) 1.3163(3)
H34 H -0.6748 0.6175 1.3145
C49 C -0.4695(5) 0.6071(3) 1.3153(3)
H35 H -0.4782 0.6700 1.3121
C50 C -0.3399(4) 0.5452(3) 1.3190(3)
H36 H -0.2600 0.5660 1.3198
C51 C -0.1836(4) 0.3889(3) 1.32514(19)
C52 C -0.7012(4) 0.4501(3) 1.3249(2)
Zn1_2 Zn -0.10093(4) 0.17502(3) 0.32824(2)
Zn1_3 Zn 0.89907(4) 0.17502(3) 1.32824(2)
Zn2_2 Zn -0.88180(4) 0.35189(3) 1.33788(2)
Zn2_3 Zn 0.11820(4) 0.35189(3) 0.33788(2)
O7_2 O 0.3158(3) 0.3663(2) 1.32756(15)
O11_2 O -0.2952(3) 0.1581(2) 1.33323(15)
N4_2 N -0.1012(3) 0.1577(2) 1.43670(17)
N8_2 N 0.1000(3) 0.3466(2) 1.44568(17)
O13 O 0.6302(5) 0.3244(3) 0.9744(2)
N9 N 0.5239(9) 0.4513(6) 0.9070(4)
C53 C 0.6151(13) 0.3997(9) 0.9520(6)
H37 H 0.6739 0.4291 0.9671
C54 C 0.5653(17) 0.5431(10) 0.8820(8)
H38 H 0.6451 0.5423 0.9059
H39 H 0.4870 0.5937 0.8915
H40 H 0.5896 0.5506 0.8329
C55 C 0.4128(19) 0.4511(12) 0.8748(9)
H41 H 0.3884 0.3935 0.8909
H42 H 0.4358 0.4585 0.8256
H43 H 0.3341 0.5013 0.8846
O14 O 0.4956(10) 0.6270(6) 0.5015(5)
N10 N 0.5010(12) 0.4765(6) 0.5073(5)
C56 C 0.4397(14) 0.5680(9) 0.5031(6)
H44 H 0.3418 0.5865 0.5011
C57 C 0.4157(18) 0.4140(11) 0.5096(8)
H45 H 0.3180 0.4480 0.5077
H46 H 0.4285 0.3694 0.5520
H47 H 0.4434 0.3826 0.4707
C58 C 0.6497(14) 0.4421(9) 0.5098(7)
H48 H 0.6911 0.4926 0.5075
H49 H 0.6872 0.4112 0.4712
H50 H 0.6717 0.3992 0.5525
O14A O 0.5044(10) 0.3730(6) 0.4985(5)
N10A N 0.4990(12) 0.5235(6) 0.4927(5)
C56A C 0.5603(14) 0.4320(9) 0.4969(6)
H44A H 0.6582 0.4135 0.4989
C57A C 0.5843(18) 0.5860(11) 0.4904(8)
H45A H 0.6820 0.5520 0.4923
H46A H 0.5715 0.6306 0.4480
H47A H 0.5566 0.6174 0.5293
C58A C 0.3503(14) 0.5579(9) 0.4902(7)
H48A H 0.3089 0.5074 0.4925
H49A H 0.3128 0.5888 0.5288
H50A H 0.3283 0.6008 0.4475
C59 C 0.3908(10) 0.0987(6) 0.0428(5)
C60 C 0.6144(10) 0.0859(7) 0.0970(5)
O15 O 0.3773(7) 0.1782(5) 0.0128(3)
N11 N 0.4945(11) 0.0569(7) 0.0777(5)
C61 C 0.5081(13) -0.0394(9) 0.1186(7)
O16 O 0.4128(10) 0.2313(7) 0.0031(5)
C62? C 0.0078(10) 0.4101(7) 0.4738(4)
H51? H -0.0516 0.4576 0.4449
C63? C -0.0066(10) 0.4109(7) 0.5422(5)
H52? H -0.0741 0.4586 0.5594
C64? C 0.1762(9) 0.2739(6) 0.5576(4)
H53? H 0.2359 0.2254 0.5855
C65? C 0.1849(9) 0.2787(7) 0.4875(4)
H54? H 0.2524 0.2332 0.4680
N12? N 0.5245(11) 0.0214(7) 0.1021(5)
C66? C 0.5791(18) -0.0557(12) 0.0796(9)
O17? O 0.4965(14) -0.1005(9) 0.0678(7)
C67? C 0.6054(8) 0.0259(5) 0.5033(4)
O18? O 0.6723(10) -0.0679(7) 0.4967(5)
N13? N 0.4700(13) 0.0345(8) 0.5023(6)
C68? C 0.3841(18) 0.1196(12) 0.5061(9)
loop_
_geom_bond_atom_site_label_1
_geom_bond_atom_site_label_2
_geom_bond_site_symmetry_1
_geom_bond_site_symmetry_2
Zn1 O5 1_555 1_555
Zn2 O6 1_555 1_555
O1 C6 1_555 1_555
O2 C13 1_555 1_555
O3 C24 1_555 1_555
O4 C31 1_555 1_555
O5 C51 1_555 1_555
O6 C51 1_555 1_555
O7 C52 1_555 1_555
O8 C52 1_555 1_555
O9 Zn1 1_555 1_555
O10 Zn2 1_555 1_555
O11 C44 1_555 1_555
O12 C44 1_555 1_555
N1 Zn1 1_555 1_555
N2 H1 1_555 1_555
N3 H2 1_555 1_555
N4 C14 1_555 1_555
N5 Zn2 1_555 1_555
N6 H3 1_555 1_555
N7 H4 1_555 1_555
N8 C32 1_555 1_555
C1 N1 1_555 1_555
H5 C1 1_555 1_555
C2 C1 1_555 1_555
H6 C2 1_555 1_555
C3 N2 1_555 1_555
C4 C3 1_555 1_555
H7 C4 1_555 1_555
C5 N1 1_555 1_555
H8 C5 1_555 1_555
C6 N2 1_555 1_555
C7 C6 1_555 1_555
C8 C7 1_555 1_555
H9 C8 1_555 1_555
C9 C8 1_555 1_555
H10 C9 1_555 1_555
C10 C9 1_555 1_555
C11 C10 1_555 1_555
H11 C11 1_555 1_555
C12 C7 1_555 1_555
H12 C12 1_555 1_555
C13 N3 1_555 1_555
C14 H13 1_555 1_555
C15 C14 1_555 1_555
H14 C15 1_555 1_555
C16 N3 1_555 1_555
C17 C16 1_555 1_555
H15 C17 1_555 1_555
C18 N4 1_555 1_555
H16 C18 1_555 1_555
C19 N5 1_555 1_555
H17 C19 1_555 1_555
C20 C19 1_555 1_555
H18 C20 1_555 1_555
C21 N6 1_555 1_555
C22 C21 1_555 1_555
H19 C22 1_555 1_555
C23 N5 1_555 1_555
H20 C23 1_555 1_555
C24 N6 1_555 1_555
C25 C24 1_555 1_555
C26 C25 1_555 1_555
H21 C26 1_555 1_555
C27 C26 1_555 1_555
H22 C27 1_555 1_555
C28 C27 1_555 1_555
C29 C28 1_555 1_555
H23 C29 1_555 1_555
C30 C25 1_555 1_555
H24 C30 1_555 1_555
C31 N7 1_555 1_555
C32 H25 1_555 1_555
C33 C32 1_555 1_555
H26 C33 1_555 1_555
C34 N7 1_555 1_555
C35 C34 1_555 1_555
H27 C35 1_555 1_555
C36 N8 1_555 1_555
H28 C36 1_555 1_555
C37 C38 1_555 1_555
C38 H29 1_555 1_555
C39 C38 1_555 1_555
C40 C39 1_555 1_555
H30 C40 1_555 1_555
C41 C40 1_555 1_555
H31 C41 1_555 1_555
C42 C37 1_555 1_555
H32 C42 1_555 1_555
C43 O9 1_555 1_555
C44 C39 1_555 1_555
C45 C46 1_555 1_555
C46 H33 1_555 1_555
C47 C46 1_555 1_555
C48 C47 1_555 1_555
H34 C48 1_555 1_555
C49 C48 1_555 1_555
H35 C49 1_555 1_555
C50 C45 1_555 1_555
H36 C50 1_555 1_555
C51 C45 1_555 1_555
C52 C47 1_555 1_555
O13 C53 1_555 1_555
N9 C53 1_555 1_555
C53 H37 1_555 1_555
C54 N9 1_555 1_555
H38 C54 1_555 1_555
H39 C54 1_555 1_555
H40 C54 1_555 1_555
C55 N9 1_555 1_555
H41 C55 1_555 1_555
H42 C55 1_555 1_555
H43 C55 1_555 1_555
O14 C56 1_555 1_555
N10 C56 1_555 1_555
C56 H44 1_555 1_555
C57 N10 1_555 1_555
H45 C57 1_555 1_555
H46 C57 1_555 1_555
H47 C57 1_555 1_555
C58 N10 1_555 1_555
H48 C58 1_555 1_555
H49 C58 1_555 1_555
H50 C58 1_555 1_555
C59 O15 1_555 1_555
C60 N11 1_555 1_555
N11 C59 1_555 1_555
C61 N11 1_555 1_555
Zn1_2 N4 1_555 1_555
Zn1_3 O11 1_555 1_555
Zn2_2 O7 1_555 1_555
Zn2_3 N8 1_555 1_555
O7_2 Zn2 1_555 1_555
O11_2 Zn1 1_555 1_555
N4_2 Zn1 1_555 1_555
N8_2 Zn2 1_555 1_555
O14A C56A 1_555 1_555
N10A C56A 1_555 1_555
C56A H44A 1_555 1_555
C57A N10A 1_555 1_555
H45A C57A 1_555 1_555
H46A C57A 1_555 1_555
H47A C57A 1_555 1_555
C58A N10A 1_555 1_555
H48A C58A 1_555 1_555
H49A C58A 1_555 1_555
H50A C58A 1_555 1_555
O10 C43 1_555 1_555
C2 C3 1_555 1_555
C4 C5 1_555 1_555
C10 C13 1_555 1_555
C11 C12 1_555 1_555
C15 C16 1_555 1_555
C17 C18 1_555 1_555
C20 C21 1_555 1_555
C22 C23 1_555 1_555
C28 C31 1_555 1_555
C29 C30 1_555 1_555
C33 C34 1_555 1_555
C35 C36 1_555 1_555
C37 C43 1_555 1_555
C41 C42 1_555 1_555
C49 C50 1_555 1_555

#END
