
#######################################################################
#
#                 Cambridge Crystallographic Data Centre
#                                CCDC 
#
#######################################################################
#
# If this CIF has been generated from an entry in the Cambridge 
# Structural Database, then it will include bibliographic, chemical, 
# crystal, experimental, refinement or atomic coordinate data resulting 
# from the CCDC's data processing and validation procedures.
#
#######################################################################

data_FUCLIY
_symmetry_cell_setting           orthorhombic
_symmetry_space_group_name_H-M   'P 21 21 21'
_symmetry_Int_Tables_number      19
_space_group_name_Hall           'P 2ac 2ab'
loop_
_symmetry_equiv_pos_site_id
_symmetry_equiv_pos_as_xyz
1 x,y,z
2 1/2+x,1/2-y,-z
3 -x,1/2+y,1/2-z
4 1/2-x,-y,1/2+z
_cell_length_a                   8.196(2)
_cell_length_b                   12.309(4)
_cell_length_c                   20.357(7)
_cell_angle_alpha                90
_cell_angle_beta                 90
_cell_angle_gamma                90
_cell_volume                     2053.71
loop_
_atom_site_label
_atom_site_type_symbol
_atom_site_fract_x
_atom_site_fract_y
_atom_site_fract_z
Ag1 Ag 0.2485(1) 0.1068(1) 0.3218(1)
Ag2 Ag 0.5492(1) 0.0781(1) 0.2529(1)
Ag3 Ag -0.3352(2) -0.0298(1) 0.4203(1)
N1 N 0.4458(1) 0.2317(5) 0.2303(4)
C1 C 0.4531(12) 0.3273(6) 0.2638(5)
N2 N 0.4154(9) 0.4100(5) 0.2272(4)
N3 N 0.3749(11) 0.3691(6) 0.1659(4)
C2 C 0.3956(11) 0.2625(7) 0.1705(4)
C3 C 0.4990(15) 0.3353(8) 0.3350(5)
O1 O 0.4004(12) 0.2659(7) 0.3687(4)
C4 C 0.4526(22) 0.2583(11) 0.4375(6)
C5 C 0.3527(27) 0.1888(11) 0.4716(6)
O2 O 0.3545(12) 0.0811(7) 0.4431(4)
C6 C 0.2458(25) 0.0101(14) 0.4742(25)
C7 C 0.2321(23) -0.0918(13) 0.4375(7)
O3 O 0.1615(13) -0.0655(7) 0.3768(4)
C8 C 0.1562(21) -0.1561(10) 0.3340(7)
C9 C 0.0624(19) -0.1212(12) 0.2753(7)
O4 O 0.1537(10) -0.0403(6) 0.2413(4)
C10 C 0.0703(16) -0.0098(10) 0.1822(6)
C11 C 0.1334(14) 0.0974(10) 0.1563(6)
O5 O 0.2992(9) 0.0860(6) 0.1366(3)
C12 C 0.3621(14) 0.1851(8) 0.1156(5)
N4 N -0.1113(12) 0.1474(7) 0.3517(6)
O6 O -0.2279(24) 0.1375(11) 0.3849(11)
O7 O 0.0142(14) 0.1911(11) 0.3649(8)
O8 O -0.1289(19) 0.1228(11) 0.2938(7)
N5 N -0.2554(15) -0.0655(11) 0.5566(5)
O9 O -0.1681(25) -0.1018(22) 0.5103(7)
O10 O -0.3598(24) -0.0256(21) 0.5349(7)
O11 O -0.2278(12) -0.0725(12) 0.6141(5)
N2B N 0.5846(9) -0.0900(5) 0.2728(4)
Ag2B Ag 0.4508(1) 0.5781(1) 0.2471(1)
Ag3B Ag 0.3352(2) 0.4702(1) 0.0797(1)
N3B N -0.3749(11) -0.1309(6) 0.3341(4)
loop_
_geom_bond_atom_site_label_1
_geom_bond_atom_site_label_2
_geom_bond_site_symmetry_1
_geom_bond_site_symmetry_2
Ag1 O1 1_555 1_555
Ag2 N1 1_555 1_555
Ag3 O6 1_555 1_555
N1 C1 1_555 1_555
C1 N2 1_555 1_555
N2 N3 1_555 1_555
N3 C2 1_555 1_555
C2 N1 1_555 1_555
C3 C1 1_555 1_555
O1 C3 1_555 1_555
C4 O1 1_555 1_555
C5 C4 1_555 1_555
O2 C5 1_555 1_555
C6 O2 1_555 1_555
C7 C6 1_555 1_555
O3 Ag1 1_555 1_555
C8 O3 1_555 1_555
C9 C8 1_555 1_555
O4 Ag1 1_555 1_555
C10 O4 1_555 1_555
C11 C10 1_555 1_555
O5 C11 1_555 1_555
C12 C2 1_555 1_555
N4 O6 1_555 1_555
O7 Ag1 1_555 1_555
O8 N4 1_555 1_555
N5 O9 1_555 1_555
O9 Ag3 1_555 1_555
O10 Ag3 1_555 1_555
O11 N5 1_555 1_555
N2B Ag2 1_555 1_555
Ag2B N2 1_555 1_555
Ag3B N3 1_555 1_555
N3B Ag3 1_555 1_555
C7 O3 1_555 1_555
C9 O4 1_555 1_555
O5 C12 1_555 1_555
N4 O7 1_555 1_555
N5 O10 1_555 1_555

#END
