
#######################################################################
#
#                 Cambridge Crystallographic Data Centre
#                                CCDC 
#
#######################################################################
#
# If this CIF has been generated from an entry in the Cambridge 
# Structural Database, then it will include bibliographic, chemical, 
# crystal, experimental, refinement or atomic coordinate data resulting 
# from the CCDC's data processing and validation procedures.
#
#######################################################################

data_FUCTAY
_symmetry_cell_setting           monoclinic
_symmetry_space_group_name_H-M   'P 21'
_symmetry_Int_Tables_number      4
_space_group_name_Hall           'P 2yb'
loop_
_symmetry_equiv_pos_site_id
_symmetry_equiv_pos_as_xyz
1 x,y,z
2 -x,1/2+y,-z
_cell_length_a                   8.952(2)
_cell_length_b                   14.573(4)
_cell_length_c                   9.912(3)
_cell_angle_alpha                90
_cell_angle_beta                 94.61(2)
_cell_angle_gamma                90
_cell_volume                     1288.91
loop_
_atom_site_label
_atom_site_type_symbol
_atom_site_fract_x
_atom_site_fract_y
_atom_site_fract_z
Cu1 Cu 0.5136(1) -0.2415(1) 0.1458(1)
Cu2 Cu 0.0904(1) 0.1444(1) 0.2630(1)
Cl1 Cl 0.8350(2) -0.1712(2) -0.0465(2)
O1 O 0.9881(9) -0.1683(7) -0.0094(8)
O2 O 0.7474(8) -0.1675(6) 0.0661(6)
O3 O 0.7912(8) -0.2476(6) -0.1255(8)
O4 O 0.7954(12) -0.0949(7) -0.1273(13)
N1 N 0.6293(7) -0.2810(4) 0.3147(6)
N2 N 0.8058(7) -0.3206(4) 0.5579(6)
N3 N 0.4058(7) -0.1167(5) 0.1824(6)
N4 N 0.2127(7) 0.0346(4) 0.1993(6)
N5 N 0.3742(7) -0.2948(5) -0.0004(7)
N6 N 0.1133(7) -0.3375(4) -0.1684(6)
C1 C 0.6092(8) -0.2379(6) 0.4295(7)
C2 C 0.6981(9) -0.2580(6) 0.5526(8)
C3 C 0.8277(8) -0.3676(5) 0.4401(7)
C4 C 0.9451(9) -0.4318(5) 0.4393(8)
C5 C 0.9702(10) -0.4753(6) 0.3201(8)
C6 C 0.8778(11) -0.4587(7) 0.1993(9)
C7 C 0.7634(10) -0.3949(6) 0.1977(8)
C8 C 0.7390(8) -0.3477(6) 0.3195(7)
C9 C 0.4427(9) -0.0325(6) 0.1474(8)
C10 C 0.3494(9) 0.0423(6) 0.1585(8)
C11 C 0.1685(9) -0.0514(5) 0.2380(7)
C12 C 0.0250(9) -0.0651(6) 0.2845(8)
C13 C -0.0160(9) -0.1502(6) 0.3278(8)
C14 C 0.0835(10) -0.2237(6) 0.3269(9)
C15 C 0.2268(10) -0.2125(5) 0.2813(8)
C16 C 0.2689(8) -0.1269(5) 0.2322(7)
C17 C 0.2866(9) -0.3642(6) 0.0259(8)
C18 C 0.1549(9) -0.3856(6) -0.0597(8)
C19 C 0.2078(8) -0.2689(5) -0.2033(7)
C20 C 0.1739(9) -0.2178(5) -0.3236(7)
C21 C 0.2696(10) -0.1492(6) -0.3559(8)
C22 C 0.3996(10) -0.1271(6) -0.2720(9)
C23 C 0.4324(9) -0.1733(6) -0.1551(8)
C24 C 0.3385(8) -0.2470(6) -0.1187(7)
H1 H 0.5298 -0.1897 0.4299
H2 H 0.6783 -0.2237 0.6370
H3 H 1.0096 -0.4453 0.5240
H4 H 1.0551 -0.5197 0.3186
H5 H 0.8955 -0.4933 0.1148
H6 H 0.6993 -0.3820 0.1126
H7 H 0.5425 -0.0226 0.1114
H8 H 0.3864 0.1044 0.1349
H9 H -0.0469 -0.0127 0.2862
H10 H -0.1177 -0.1597 0.3603
H11 H 0.0523 -0.2851 0.3596
H12 H 0.2984 -0.2654 0.2836
H13 H 0.3127 -0.4025 0.1079
H14 H 0.0922 -0.4392 -0.0361
H15 H 0.0814 -0.2314 -0.3838
H16 H 0.2472 -0.1141 -0.4419
H17 H 0.4675 -0.0768 -0.2988
H18 H 0.5223 -0.1560 -0.0941
Cu2A Cu 0.9096(1) -0.3556(1) -0.2630(1)
O3A O 0.2088(8) 0.2524(6) 0.1255(8)
N2A N 0.1942(7) 0.1794(4) 0.4421(6)
N6A N -0.1133(7) 0.1625(4) 0.1684(6)
Cu2A_2 Cu 0.9096(1) -0.3556(1) 0.7370(1)
Cu2A_3 Cu -0.0904(1) -0.3556(1) -0.2630(1)
Cl2 Cl 0.3871(3) -0.4601(2) 0.5162(3)
O5 O 0.5332(8) -0.4944(6) 0.5303(7)
O6 O 0.3497(11) -0.4228(7) 0.3899(10)
O7 O 0.3781(18) -0.3933(11) 0.6135(15)
O8 O 0.2907(11) -0.5254(8) 0.5378(15)
loop_
_geom_bond_atom_site_label_1
_geom_bond_atom_site_label_2
_geom_bond_site_symmetry_1
_geom_bond_site_symmetry_2
Cu1 O2 1_555 1_555
Cu2 N4 1_555 1_555
Cl1 O1 1_555 1_555
Cl2 O5 1_555 1_555
O2 Cl1 1_555 1_555
O3 Cl1 1_555 1_555
O4 Cl1 1_555 1_555
O6 Cl2 1_555 1_555
O7 Cl2 1_555 1_555
O8 Cl2 1_555 1_555
N1 Cu1 1_555 1_555
N2 C2 1_555 1_555
N3 Cu1 1_555 1_555
N4 C10 1_555 1_555
N5 Cu1 1_555 1_555
N6 C18 1_555 1_555
C1 N1 1_555 1_555
C2 C1 1_555 1_555
C3 N2 1_555 1_555
C4 C3 1_555 1_555
C5 C4 1_555 1_555
C6 C5 1_555 1_555
C7 C6 1_555 1_555
C8 N1 1_555 1_555
C9 N3 1_555 1_555
C10 C9 1_555 1_555
C11 N4 1_555 1_555
C12 C11 1_555 1_555
C13 C12 1_555 1_555
C14 C13 1_555 1_555
C15 C14 1_555 1_555
C16 N3 1_555 1_555
C17 N5 1_555 1_555
C18 C17 1_555 1_555
C19 N6 1_555 1_555
C20 C19 1_555 1_555
C21 C20 1_555 1_555
C22 C21 1_555 1_555
C23 C22 1_555 1_555
C24 N5 1_555 1_555
H1 C1 1_555 1_555
H2 C2 1_555 1_555
H3 C4 1_555 1_555
H4 C5 1_555 1_555
H5 C6 1_555 1_555
H6 C7 1_555 1_555
H7 C9 1_555 1_555
H8 C10 1_555 1_555
H9 C12 1_555 1_555
H10 C13 1_555 1_555
H11 C14 1_555 1_555
H12 C15 1_555 1_555
H13 C17 1_555 1_555
H14 C18 1_555 1_555
H15 C20 1_555 1_555
H16 C21 1_555 1_555
H17 C22 1_555 1_555
H18 C23 1_555 1_555
Cu2A O3 1_555 1_555
O3A Cu2 1_555 1_555
N2A Cu2 1_555 1_555
N6A Cu2 1_555 1_555
Cu2A_2 N2 1_555 1_555
Cu2A_3 N6 1_555 1_555
C3 C8 1_555 1_555
C7 C8 1_555 1_555
C11 C16 1_555 1_555
C15 C16 1_555 1_555
C19 C24 1_555 1_555
C23 C24 1_555 1_555

#END
