
#######################################################################
#
#                 Cambridge Crystallographic Data Centre
#                                CCDC 
#
#######################################################################
#
# If this CIF has been generated from an entry in the Cambridge 
# Structural Database, then it will include bibliographic, chemical, 
# crystal, experimental, refinement or atomic coordinate data resulting 
# from the CCDC's data processing and validation procedures.
#
#######################################################################

data_FUDDAL
_symmetry_cell_setting           monoclinic
_symmetry_space_group_name_H-M   'P 21'
_symmetry_Int_Tables_number      4
_space_group_name_Hall           'P 2yb'
loop_
_symmetry_equiv_pos_site_id
_symmetry_equiv_pos_as_xyz
1 x,y,z
2 -x,1/2+y,-z
_cell_length_a                   7.8820(16)
_cell_length_b                   17.273(3)
_cell_length_c                   12.692(3)
_cell_angle_alpha                90
_cell_angle_beta                 90.00(3)
_cell_angle_gamma                90
_cell_volume                     1727.96
loop_
_atom_site_label
_atom_site_type_symbol
_atom_site_fract_x
_atom_site_fract_y
_atom_site_fract_z
C1 C 0.072(3) 1.0431(15) 0.4585(15)
H1 H 0.0049 1.0584 0.5180
H2 H 0.0015 1.0181 0.4073
H3 H 0.1237 1.0881 0.4276
C2 C 0.202(2) 0.9909(10) 0.4922(11)
C3 C 0.408(2) 0.9022(10) 0.4862(13)
C4 C 0.541(3) 0.8491(12) 0.4424(16)
H4 H 0.6515 0.8717 0.4533
H5 H 0.5227 0.8418 0.3684
H6 H 0.5358 0.8001 0.4777
C5 C 0.489(3) 0.7956(13) 1.1212(17)
H7 H 0.5714 0.8314 1.1479
H8 H 0.5086 0.7453 1.1512
H9 H 0.3771 0.8129 1.1399
C6 C 0.5019(19) 0.7914(9) 1.0166(12)
C7 C 0.593(2) 0.7492(9) 0.8685(14)
C8 C 0.677(3) 0.6958(11) 0.7869(16)
H10 H 0.7983 0.6993 0.7936
H11 H 0.6443 0.7115 0.7173
H12 H 0.6419 0.6434 0.7988
C9 C 0.018(3) 1.0371(11) 1.1410(11)
H13 H 0.0709 1.0823 1.1705
H14 H 0.0842 0.9922 1.1584
H15 H -0.0941 1.0316 1.1694
C10 C 0.0084(18) 1.0450(8) 1.0278(11)
C11 C -0.087(2) 1.0882(8) 0.8781(12)
C12 C -0.185(2) 1.1291(9) 0.8041(15)
H16 H -0.1381 1.1217 0.7350
H17 H -0.1841 1.1832 0.8213
H18 H -0.2995 1.1102 0.8054
Cu1 Cu 0.2627(2) 0.92169(10) 0.95126(11)
Cu2 Cu 0.4329(2) 0.86525(10) 0.71814(14)
Cu3 Cu 0.1384(3) 1.00174(9) 0.72614(14)
N1 N 0.0898(17) 1.0047(8) 0.9510(9)
N2 N 0.0299(17) 1.0337(7) 0.8598(9)
N3 N -0.0954(15) 1.0956(7) 0.9852(8)
N4 N -0.2046(16) 1.1497(7) 1.0350(10)
H19 H -0.2084 1.1523 1.1026
H20 H -0.2668 1.1800 0.9975
N5 N 0.3640(16) 0.9133(8) 0.5864(9)
N6 N 0.2290(18) 0.9690(7) 0.5908(10)
N7 N 0.309(2) 0.9545(9) 0.4253(10)
N8 N 0.313(3) 0.9629(10) 0.3173(12)
H21 H 0.2432 0.9936 0.2866
H22 H 0.3863 0.9375 0.2807
N9 N 0.492(2) 0.8104(8) 0.8497(10)
N10 N 0.4348(17) 0.8380(7) 0.9462(10)
N11 N 0.5935(14) 0.7367(7) 0.9661(11)
N12 N 0.6844(18) 0.6758(7) 1.0154(11)
H23 H 0.7440 0.6444 0.9780
H24 H 0.6798 0.6702 1.0827
N13 N 0.4955(18) 1.0113(8) 1.0611(10)
N14 N -0.015(2) 0.8168(10) 1.0407(16)
N15 N 0.281(2) 1.1388(8) 0.7075(12)
N16 N 0.211(2) 0.7200(8) 0.7024(12)
N17 N 0.754(2) 0.9187(10) 0.6940(9)
O1 O 0.531(2) 1.0218(8) 0.9707(9)
O2 O 0.3669(15) 0.9626(6) 1.0833(8)
O3 O 0.572(2) 1.0372(9) 1.1322(11)
O4 O 0.1370(16) 1.1095(6) 0.6685(9)
O5 O 0.318(3) 1.2034(9) 0.6774(12)
O6 O 0.3677(16) 1.0967(7) 0.7638(15)
O7 O 0.1163(14) 0.8584(8) 1.0704(11)
O8 O -0.050(3) 0.8130(12) 0.9563(12)
O9 O -0.086(2) 0.7801(11) 1.1267(12)
O10 O 0.6768(13) 0.8596(6) 0.6643(9)
O11 O 0.6732(19) 0.9625(8) 0.7564(11)
O12 O 0.8974(16) 0.9333(10) 0.6617(11)
O13 O 0.188(2) 0.6519(8) 0.6975(17)
O14 O 0.1167(18) 0.7595(8) 0.7727(11)
O15 O 0.3237(18) 0.7527(7) 0.6568(10)
O16 O 0.2311(13) 0.9082(5) 0.7984(6)
Cu3_2 Cu 1.1384(3) 1.00174(9) 0.72614(14)
O12_2 O -0.1026(16) 0.9333(10) 0.6617(11)
O17 O 0.414(4) 0.5657(17) 0.571(3)
H25 H 0.4939 0.5907 0.5762
H26 H 0.4989 0.5624 0.5356
loop_
_geom_bond_atom_site_label_1
_geom_bond_atom_site_label_2
_geom_bond_site_symmetry_1
_geom_bond_site_symmetry_2
C1 H1 1_555 1_555
H2 C1 1_555 1_555
H3 C1 1_555 1_555
C2 C1 1_555 1_555
C3 C4 1_555 1_555
C4 H4 1_555 1_555
H5 C4 1_555 1_555
H6 C4 1_555 1_555
C5 H7 1_555 1_555
H8 C5 1_555 1_555
H9 C5 1_555 1_555
C6 C5 1_555 1_555
C7 C8 1_555 1_555
C8 H10 1_555 1_555
H11 C8 1_555 1_555
H12 C8 1_555 1_555
C9 H13 1_555 1_555
H14 C9 1_555 1_555
H15 C9 1_555 1_555
C10 C9 1_555 1_555
C11 C12 1_555 1_555
C12 H16 1_555 1_555
H17 C12 1_555 1_555
H18 C12 1_555 1_555
Cu1 N1 1_555 1_555
Cu2 N5 1_555 1_555
Cu3 N2 1_555 1_555
N1 C10 1_555 1_555
N2 C11 1_555 1_555
N3 C10 1_555 1_555
N4 N3 1_555 1_555
H19 N4 1_555 1_555
H20 N4 1_555 1_555
N5 C3 1_555 1_555
N6 C2 1_555 1_555
N7 C2 1_555 1_555
N8 N7 1_555 1_555
H21 N8 1_555 1_555
H22 N8 1_555 1_555
N9 C7 1_555 1_555
N10 C6 1_555 1_555
N11 C6 1_555 1_555
N12 N11 1_555 1_555
H23 N12 1_555 1_555
H24 N12 1_555 1_555
N13 O1 1_555 1_555
N14 O7 1_555 1_555
N15 O4 1_555 1_555
N16 O13 1_555 1_555
N17 O10 1_555 1_555
O1 Cu1 1_555 1_555
O2 Cu1 1_555 1_555
O3 N13 1_555 1_555
O4 Cu3 1_555 1_555
O5 N15 1_555 1_555
O6 Cu3 1_555 1_555
O7 Cu1 1_555 1_555
O8 N14 1_555 1_555
O9 N14 1_555 1_555
O10 Cu2 1_555 1_555
O11 Cu2 1_555 1_555
O12 N17 1_555 1_555
O14 N16 1_555 1_555
O15 Cu2 1_555 1_555
O16 Cu1 1_555 1_555
O17 H25 1_555 1_555
H26 O17 1_555 1_555
Cu3_2 O12 1_555 1_555
O12_2 Cu3 1_555 1_555
C3 N7 1_555 1_555
C7 N11 1_555 1_555
C11 N3 1_555 1_555
Cu1 N10 1_555 1_555
Cu2 N9 1_555 1_555
Cu2 O16 1_555 1_555
Cu3 N6 1_555 1_555
Cu3 O16 1_555 1_555
N1 N2 1_555 1_555
N5 N6 1_555 1_555
N9 N10 1_555 1_555
N13 O2 1_555 1_555
N15 O6 1_555 1_555
N16 O15 1_555 1_555
N17 O11 1_555 1_555

#END
