
#######################################################################
#
#                 Cambridge Crystallographic Data Centre
#                                CCDC 
#
#######################################################################
#
# If this CIF has been generated from an entry in the Cambridge 
# Structural Database, then it will include bibliographic, chemical, 
# crystal, experimental, refinement or atomic coordinate data resulting 
# from the CCDC's data processing and validation procedures.
#
#######################################################################

data_FUDFAM
_symmetry_cell_setting           triclinic
_symmetry_space_group_name_H-M   'P -1'
_symmetry_Int_Tables_number      2
_space_group_name_Hall           '-P 1'
loop_
_symmetry_equiv_pos_site_id
_symmetry_equiv_pos_as_xyz
1 x,y,z
2 -x,-y,-z
_cell_length_a                   6.7138(13)
_cell_length_b                   9.6794(19)
_cell_length_c                   12.772(3)
_cell_angle_alpha                72.08(3)
_cell_angle_beta                 88.15(3)
_cell_angle_gamma                89.51(3)
_cell_volume                     789.318
loop_
_atom_site_label
_atom_site_type_symbol
_atom_site_fract_x
_atom_site_fract_y
_atom_site_fract_z
Sb1 Sb -0.20543(4) 0.48663(3) -0.09832(3)
Sb2 Sb 0.31066(4) 0.46197(3) -0.24293(2)
Sb3 Sb 0.23057(4) 0.46896(3) -0.55612(2)
S1 S 0.13692(18) 0.64354(12) -0.09176(10)
S2 S -0.01181(17) 0.33933(13) -0.19740(10)
S3 S 0.49596(17) 0.29953(12) -0.08934(10)
S4 S 0.39373(17) 0.32486(12) -0.38123(10)
S5 S 0.10081(17) 0.66060(12) -0.48881(11)
Fe1 Fe 0.5000 0.0000 0.0000
N1 N 0.2349(6) 0.0094(5) 0.1012(4)
H1 H 0.1705 0.0938 0.0720
H2 H 0.1517 -0.0638 0.1033
N2 N 0.6401(6) 0.0276(5) 0.1432(4)
H3 H 0.6866 -0.0582 0.1856
H4 H 0.7433 0.0897 0.1218
C1 C 0.2988(8) -0.0029(5) 0.2210(4)
H5 H 0.3291 -0.1047 0.2598
C2 C 0.4895(8) 0.0855(5) 0.2066(4)
H6 H 0.4585 0.1849 0.1620
C3 C 0.5601(9) 0.0928(6) 0.3190(4)
H7 H 0.5993 -0.0035 0.3636
H8 H 0.6761 0.1555 0.3070
C4 C 0.3995(10) 0.1497(6) 0.3805(5)
H9 H 0.4493 0.1512 0.4506
H10 H 0.3667 0.2485 0.3383
C5 C 0.2158(11) 0.0580(7) 0.4002(5)
H11 H 0.1135 0.0998 0.4365
H12 H 0.2452 -0.0387 0.4480
C6 C 0.1357(8) 0.0481(7) 0.2857(5)
H13 H 0.0243 -0.0191 0.3001
H14 H 0.0886 0.1428 0.2422
Sb1A Sb 0.20543(4) 0.51337(3) -0.90168(3)
Sb1_2 Sb -0.20543(4) 0.48663(3) -1.09832(3)
Sb1_3 Sb 0.79457(4) 0.48663(3) -0.09832(3)
Sb1A_2 Sb -0.79457(4) 0.51337(3) -0.90168(3)
Sb1A_3 Sb 0.20543(4) 0.51337(3) 0.09832(3)
Sb2A Sb -0.31066(4) 0.53803(3) -0.75707(2)
Sb3A Sb -0.23057(4) 0.53104(3) -0.44388(2)
S1A S -0.13692(18) 0.35646(12) -0.90824(10)
S1_2 S 0.13692(18) 0.64354(12) -1.09176(10)
S1A_2 S -0.13692(18) 0.35646(12) 0.09176(10)
S2A S 0.01181(17) 0.66067(13) -0.80260(10)
S3A S -0.49596(17) 0.70047(12) -0.91066(10)
S3_2 S -0.50404(17) 0.29953(12) -0.08934(10)
S3A_2 S 0.50404(17) -0.29953(12) 0.08934(10)
S3A_3 S 0.50404(17) 0.70047(12) -0.91066(10)
S4A S -0.39373(17) 0.67514(12) -0.61877(10)
S5A S -0.10081(17) 0.33940(12) -0.51119(11)
Fe1_2 Fe -0.5000 1.0000 -1.0000
N1A N 0.7651(6) -0.0094(5) -0.1012(4)
H1A H 0.8295 -0.0938 -0.0720
H2A H 0.8483 0.0638 -0.1033
N2A N 0.3599(6) -0.0276(5) -0.1432(4)
H3A H 0.3134 0.0582 -0.1856
H4A H 0.2567 -0.0897 -0.1218
C1A C 0.7012(8) 0.0029(5) -0.2210(4)
H5A H 0.6709 0.1047 -0.2598
C2A C 0.5105(8) -0.0855(5) -0.2066(4)
H6A H 0.5415 -0.1849 -0.1620
C3A C 0.4399(9) -0.0928(6) -0.3190(4)
H7A H 0.4007 0.0035 -0.3636
H8A H 0.3239 -0.1555 -0.3070
C4A C 0.6005(10) -0.1497(6) -0.3805(5)
H9A H 0.5507 -0.1512 -0.4506
H10A H 0.6333 -0.2485 -0.3383
C5A C 0.7842(11) -0.0580(7) -0.4002(5)
H11A H 0.8865 -0.0998 -0.4365
H12A H 0.7548 0.0387 -0.4480
C6A C 0.8643(8) -0.0481(7) -0.2857(5)
H13A H 0.9757 0.0191 -0.3001
H14A H 0.9114 -0.1428 -0.2422
loop_
_geom_bond_atom_site_label_1
_geom_bond_atom_site_label_2
_geom_bond_site_symmetry_1
_geom_bond_site_symmetry_2
Sb1 S1 1_555 1_555
Sb2 S2 1_555 1_555
Sb3 S4 1_555 1_555
S1 Sb1A_3 1_555 1_555
S2 Sb1 1_555 1_555
S3 Sb2 1_555 1_555
S4 Sb2 1_555 1_555
S5 Sb3 1_555 1_555
Fe1 S3 1_555 1_555
N1 Fe1 1_555 1_555
H1 N1 1_555 1_555
H2 N1 1_555 1_555
N2 Fe1 1_555 1_555
H3 N2 1_555 1_555
H4 N2 1_555 1_555
C1 N1 1_555 1_555
H5 C1 1_555 1_555
C2 N2 1_555 1_555
H6 C2 1_555 1_555
C3 C2 1_555 1_555
H7 C3 1_555 1_555
H8 C3 1_555 1_555
C4 C3 1_555 1_555
H9 C4 1_555 1_555
H10 C4 1_555 1_555
C5 C4 1_555 1_555
H11 C5 1_555 1_555
H12 C5 1_555 1_555
C6 C1 1_555 1_555
H13 C6 1_555 1_555
H14 C6 1_555 1_555
Sb1A S1A 1_555 1_555
Sb1_2 S1A 1_555 1_555
Sb1_3 S3 1_555 1_555
Sb1A_2 S3A 1_555 1_555
Sb1A_3 S1A_2 1_555 1_555
Sb2A S2A 1_555 1_555
Sb3A S5 1_555 1_555
S1_2 Sb1A 1_555 1_555
S1A_2 Sb1 1_555 1_555
S2A Sb1A 1_555 1_555
S3A Sb2A 1_555 1_555
S3_2 Sb1 1_555 1_555
S3A_2 Fe1 1_555 1_555
S3A_3 Sb1A 1_555 1_555
S4A Sb2A 1_555 1_555
S5A Sb3 1_555 1_555
Fe1_2 S3A 1_555 1_555
N1A Fe1 1_555 1_555
H1A N1A 1_555 1_555
H2A N1A 1_555 1_555
N2A Fe1 1_555 1_555
H3A N2A 1_555 1_555
H4A N2A 1_555 1_555
C1A N1A 1_555 1_555
H5A C1A 1_555 1_555
C2A N2A 1_555 1_555
H6A C2A 1_555 1_555
C3A C2A 1_555 1_555
H7A C3A 1_555 1_555
H8A C3A 1_555 1_555
C4A C3A 1_555 1_555
H9A C4A 1_555 1_555
H10A C4A 1_555 1_555
C5A C4A 1_555 1_555
H11A C5A 1_555 1_555
H12A C5A 1_555 1_555
C6A C1A 1_555 1_555
H13A C6A 1_555 1_555
H14A C6A 1_555 1_555
C1 C2 1_555 1_555
C5 C6 1_555 1_555
Sb1_2 S1_2 1_555 1_555
Sb3A S4A 1_555 1_555
Sb3A S5A 1_555 1_555
C1A C2A 1_555 1_555
C5A C6A 1_555 1_555

#END
