
#######################################################################
#
#                 Cambridge Crystallographic Data Centre
#                                CCDC 
#
#######################################################################
#
# If this CIF has been generated from an entry in the Cambridge 
# Structural Database, then it will include bibliographic, chemical, 
# crystal, experimental, refinement or atomic coordinate data resulting 
# from the CCDC's data processing and validation procedures.
#
#######################################################################

data_FUDLUM
_symmetry_cell_setting           monoclinic
_symmetry_space_group_name_H-M   'P 21'
_symmetry_Int_Tables_number      4
_space_group_name_Hall           'P 2yb'
loop_
_symmetry_equiv_pos_site_id
_symmetry_equiv_pos_as_xyz
1 x,y,z
2 -x,1/2+y,-z
_cell_length_a                   5.9048(4)
_cell_length_b                   11.0358(8)
_cell_length_c                   12.4823(9)
_cell_angle_alpha                90
_cell_angle_beta                 91.1370(10)
_cell_angle_gamma                90
_cell_volume                     813.239
loop_
_atom_site_label
_atom_site_type_symbol
_atom_site_fract_x
_atom_site_fract_y
_atom_site_fract_z
Cu1 Cu 0.96717(5) 0.68265(4) 0.32860(2)
O1 O 0.9831(6) 0.5308(3) 0.1959(2)
H1 H 1.049(10) 0.470(6) 0.229(5)
C1 C 1.1003(7) 0.5737(4) 0.1098(3)
C2 C 1.2867(8) 0.5170(4) 0.0690(3)
H2 H 1.3416 0.4455 0.1010
C3 C 1.3940(8) 0.5644(4) -0.0188(3)
H3 H 1.5182 0.5231 -0.0474
C4 C 1.3212(7) 0.6725(6) -0.0656(3)
C5 C 1.1351(7) 0.7275(4) -0.0218(3)
H4 H 1.0830 0.8002 -0.0528
C6 C 1.0205(5) 0.6822(5) 0.0649(2)
C7 C 0.8190(6) 0.7434(4) 0.1117(3)
H5 H 0.6982 0.6834 0.1200
H6 H 0.7635 0.8053 0.0614
N1 N 0.8675(5) 0.8020(3) 0.2185(2)
H7 H 0.7356 0.8371 0.2412
C8 C 1.0411(6) 0.8974(3) 0.2130(3)
H8 H 1.0549 0.9228 0.1374
C9 C 1.2693(6) 0.8497(3) 0.2524(3)
O2 O 1.2675(4) 0.7479(2) 0.30383(18)
O3 O 1.4401(4) 0.9077(3) 0.2353(2)
C10 C 0.9774(6) 1.0090(4) 0.2799(2)
H9 H 1.0993 1.0690 0.2757
H10 H 0.8399 1.0456 0.2488
C11 C 0.9369(7) 0.9794(3) 0.3976(3)
H11 H 0.7943 0.9346 0.4027
H12 H 1.0590 0.9265 0.4239
C12 C 0.9260(5) 1.0902(4) 0.4692(3)
O4 O 0.9212(4) 1.0634(2) 0.56945(17)
O5 O 0.9236(4) 1.1944(3) 0.43349(18)
C13 C 1.4422(9) 0.7231(5) -0.1605(4)
H13 H 1.4357 0.6651 -0.2188
H14 H 1.5992 0.7390 -0.1407
H15 H 1.3699 0.7981 -0.1832
O6 O 0.6598(4) 0.6392(3) 0.3718(3)
H16 H 0.521(3) 0.661(4) 0.348(3)
H17 H 0.642(8) 0.5588(9) 0.380(4)
Cu1A Cu 1.03283(5) 1.18265(4) 0.67140(2)
O4A O 1.0788(4) 0.5634(2) 0.43055(17)
O7 O 1.1678(5) 0.3606(3) 0.3213(2)
H18 H 1.104(9) 0.294(3) 0.349(4)
H19 H 1.141(9) 0.416(3) 0.373(3)
O8 O 0.6021(6) 0.3978(3) 0.4181(3)
H20 H 0.471(4) 0.364(4) 0.396(4)
H21 H 0.687(7) 0.331(3) 0.429(4)
loop_
_geom_bond_atom_site_label_1
_geom_bond_atom_site_label_2
_geom_bond_site_symmetry_1
_geom_bond_site_symmetry_2
Cu1 O1 1_555 1_555
O1 H1 1_555 1_555
C1 O1 1_555 1_555
C2 C1 1_555 1_555
H2 C2 1_555 1_555
C3 C2 1_555 1_555
H3 C3 1_555 1_555
C4 C3 1_555 1_555
C5 C4 1_555 1_555
H4 C5 1_555 1_555
C6 C1 1_555 1_555
C7 C6 1_555 1_555
H5 C7 1_555 1_555
H6 C7 1_555 1_555
N1 Cu1 1_555 1_555
H7 N1 1_555 1_555
C8 N1 1_555 1_555
H8 C8 1_555 1_555
C9 C8 1_555 1_555
O2 Cu1 1_555 1_555
O3 C9 1_555 1_555
C10 C8 1_555 1_555
H9 C10 1_555 1_555
H10 C10 1_555 1_555
C11 C10 1_555 1_555
H11 C11 1_555 1_555
H12 C11 1_555 1_555
C12 C11 1_555 1_555
O4 C12 1_555 1_555
O5 C12 1_555 1_555
C13 C4 1_555 1_555
H13 C13 1_555 1_555
H14 C13 1_555 1_555
H15 C13 1_555 1_555
O6 Cu1 1_555 1_555
H16 O6 1_555 1_555
H17 O6 1_555 1_555
O7 H18 1_555 1_555
H19 O7 1_555 1_555
O8 H20 1_555 1_555
H21 O8 1_555 1_555
Cu1A O4 1_555 1_555
O4A Cu1 1_555 1_555
C5 C6 1_555 1_555
C7 N1 1_555 1_555
C9 O2 1_555 1_555

#END
