
#######################################################################
#
#                 Cambridge Crystallographic Data Centre
#                                CCDC 
#
#######################################################################
#
# If this CIF has been generated from an entry in the Cambridge 
# Structural Database, then it will include bibliographic, chemical, 
# crystal, experimental, refinement or atomic coordinate data resulting 
# from the CCDC's data processing and validation procedures.
#
#######################################################################

data_FUDMOI
_symmetry_cell_setting           monoclinic
_symmetry_space_group_name_H-M   'P 21/c'
_symmetry_Int_Tables_number      14
_space_group_name_Hall           '-P 2ybc'
loop_
_symmetry_equiv_pos_site_id
_symmetry_equiv_pos_as_xyz
1 x,y,z
2 -x,1/2+y,1/2-z
3 -x,-y,-z
4 x,1/2-y,1/2+z
_cell_length_a                   11.4151(12)
_cell_length_b                   9.5633(7)
_cell_length_c                   24.452(2)
_cell_angle_alpha                90
_cell_angle_beta                 92.428(10)
_cell_angle_gamma                90
_cell_volume                     2666.93
loop_
_atom_site_label
_atom_site_type_symbol
_atom_site_fract_x
_atom_site_fract_y
_atom_site_fract_z
Zn1 Zn 0.69883(3) 0.40615(4) 0.852430(16)
O1 O 0.7712(2) 0.5929(2) 0.85676(11)
O2 O 0.8818(3) 0.5293(3) 0.92839(12)
O3 O 0.6582(2) 1.1032(2) 0.85202(11)
O4 O 0.8045(2) 1.2518(2) 0.86702(10)
N1 N 0.5692(3) 0.4155(3) 0.90682(12)
N2 N 0.3883(3) 0.4390(3) 0.93538(12)
H1 H 0.3158 0.4693 0.9372
N3 N 0.6351(2) 0.4213(3) 0.77285(11)
N4 N 0.5129(2) 0.4592(3) 0.70191(11)
H2 H 0.4475 0.4593 0.6815
C1 C 0.5564(3) 0.3269(4) 0.95156(14)
C2 C 0.6350(4) 0.2376(4) 0.97844(15)
H3 H 0.7141 0.2306 0.9681
C3 C 0.5935(5) 0.1590(5) 1.02100(16)
H4 H 0.6454 0.0962 1.0399
C4 C 0.4803(5) 0.1686(5) 1.03677(17)
H5 H 0.4558 0.1113 1.0659
C5 C 0.4007(4) 0.2590(5) 1.01172(16)
H6 H 0.3224 0.2664 1.0230
C6 C 0.4417(4) 0.3386(4) 0.96892(15)
C7 C 0.4668(3) 0.4815(4) 0.89971(14)
C8 C 0.4401(3) 0.5912(4) 0.85700(16)
H7 H 0.5075 0.5992 0.8330
H8 H 0.4302 0.6826 0.8753
C9 C 0.3303(3) 0.5590(5) 0.82205(17)
C10 C 0.2335(4) 0.6488(6) 0.8251(2)
H9 H 0.2368 0.7289 0.8481
C11 C 0.1315(5) 0.6170(9) 0.7931(3)
H10 H 0.0645 0.6755 0.7949
C12 C 0.1280(5) 0.5029(11) 0.7596(3)
H11 H 0.0593 0.4844 0.7375
C13 C 0.2215(4) 0.4151(6) 0.75746(19)
H12 H 0.2160 0.3341 0.7351
C14 C 0.3244(3) 0.4424(5) 0.78740(16)
C15 C 0.4276(3) 0.3456(4) 0.78194(15)
H13 H 0.4560 0.3157 0.8189
H14 H 0.4012 0.2610 0.7616
C16 C 0.5261(3) 0.4097(3) 0.75346(14)
C17 C 0.6202(3) 0.5098(3) 0.68666(13)
C18 C 0.6544(3) 0.5768(4) 0.63960(15)
H15 H 0.6010 0.5924 0.6094
C19 C 0.7690(4) 0.6195(5) 0.63880(17)
H16 H 0.7956 0.6668 0.6075
C20 C 0.8472(4) 0.5950(6) 0.68296(19)
H17 H 0.9261 0.6254 0.6809
C21 C 0.8132(3) 0.5275(5) 0.72982(17)
H18 H 0.8673 0.5110 0.7597
C22 C 0.6969(3) 0.4849(4) 0.73135(14)
C23 C 0.8428(4) 0.6186(4) 0.89591(15)
C24 C 0.8790(3) 0.7688(4) 0.90305(14)
C25 C 0.9836(4) 0.8019(4) 0.93061(16)
H19 H 1.0325 0.7297 0.9454
C26 C 1.0171(3) 0.9402(4) 0.93661(17)
H20 H 1.0892 0.9625 0.9554
C27 C 0.9459(3) 1.0467(4) 0.91543(15)
H21 H 0.9699 1.1414 0.9193
C28 C 0.8082(3) 0.8752(3) 0.88265(14)
H22 H 0.7359 0.8524 0.8641
C29 C 0.8398(3) 1.0148(3) 0.88861(13)
C30 C 0.7609(3) 1.1289(3) 0.86687(13)
Zn1_2 Zn 0.69883(3) 1.40615(4) 0.852430(16)
O4_2 O 0.8045(2) 0.2518(2) 0.86702(10)
O5 O 0.1520(4) 0.4726(6) 0.95808(17)
H23 H 0.150(3) 0.480(4) 0.9923(5)
H24 H 0.090(2) 0.469(4) 0.9389(14)
loop_
_geom_bond_atom_site_label_1
_geom_bond_atom_site_label_2
_geom_bond_site_symmetry_1
_geom_bond_site_symmetry_2
Zn1 O1 1_555 1_555
O1 C23 1_555 1_555
O2 C23 1_555 1_555
O3 C30 1_555 1_555
O4 C30 1_555 1_555
N1 Zn1 1_555 1_555
N2 H1 1_555 1_555
N3 Zn1 1_555 1_555
N4 H2 1_555 1_555
C1 N1 1_555 1_555
C2 C1 1_555 1_555
H3 C2 1_555 1_555
C3 C2 1_555 1_555
H4 C3 1_555 1_555
C4 C3 1_555 1_555
H5 C4 1_555 1_555
C5 C4 1_555 1_555
H6 C5 1_555 1_555
C6 N2 1_555 1_555
C7 N1 1_555 1_555
C8 C7 1_555 1_555
H7 C8 1_555 1_555
H8 C8 1_555 1_555
C9 C8 1_555 1_555
C10 C9 1_555 1_555
H9 C10 1_555 1_555
C11 C10 1_555 1_555
H10 C11 1_555 1_555
C12 C11 1_555 1_555
H11 C12 1_555 1_555
C13 C12 1_555 1_555
H12 C13 1_555 1_555
C14 C9 1_555 1_555
C15 C14 1_555 1_555
H13 C15 1_555 1_555
H14 C15 1_555 1_555
C16 N3 1_555 1_555
C17 N4 1_555 1_555
C18 C17 1_555 1_555
H15 C18 1_555 1_555
C19 C18 1_555 1_555
H16 C19 1_555 1_555
C20 C19 1_555 1_555
H17 C20 1_555 1_555
C21 C20 1_555 1_555
H18 C21 1_555 1_555
C22 N3 1_555 1_555
C23 C24 1_555 1_555
C24 C25 1_555 1_555
C25 H19 1_555 1_555
C26 C25 1_555 1_555
H20 C26 1_555 1_555
C27 C26 1_555 1_555
H21 C27 1_555 1_555
C28 C24 1_555 1_555
H22 C28 1_555 1_555
C29 C27 1_555 1_555
C30 C29 1_555 1_555
O5 H23 1_555 1_555
H24 O5 1_555 1_555
Zn1_2 O4 1_555 1_555
O4_2 Zn1 1_555 1_555
N2 C7 1_555 1_555
N4 C16 1_555 1_555
C1 C6 1_555 1_555
C5 C6 1_555 1_555
C13 C14 1_555 1_555
C15 C16 1_555 1_555
C17 C22 1_555 1_555
C21 C22 1_555 1_555
C28 C29 1_555 1_555

#END
