
#######################################################################
#
#                 Cambridge Crystallographic Data Centre
#                                CCDC 
#
#######################################################################
#
# If this CIF has been generated from an entry in the Cambridge 
# Structural Database, then it will include bibliographic, chemical, 
# crystal, experimental, refinement or atomic coordinate data resulting 
# from the CCDC's data processing and validation procedures.
#
#######################################################################

data_FUDMAT
_symmetry_cell_setting           orthorhombic
_symmetry_space_group_name_H-M   'P 21 21 21'
_symmetry_Int_Tables_number      19
_space_group_name_Hall           'P 2ac 2ab'
loop_
_symmetry_equiv_pos_site_id
_symmetry_equiv_pos_as_xyz
1 x,y,z
2 1/2-x,-y,1/2+z
3 -x,1/2+y,1/2-z
4 1/2+x,1/2-y,-z
_cell_length_a                   5.8913(6)
_cell_length_b                   8.8699(9)
_cell_length_c                   22.926(2)
_cell_angle_alpha                90
_cell_angle_beta                 90
_cell_angle_gamma                90
_cell_volume                     1198
loop_
_atom_site_label
_atom_site_type_symbol
_atom_site_fract_x
_atom_site_fract_y
_atom_site_fract_z
Ni1 Ni 0.40796(12) 0.66026(8) 0.69889(3)
O1 O 0.4581(7) 0.4373(4) 0.67216(17)
H1 H 0.3958 0.3556 0.6928
C1 C 0.5870(12) 0.4161(6) 0.6227(2)
C2 C 0.7703(11) 0.3200(7) 0.6230(3)
H2 H 0.8128 0.2697 0.6574
C3 C 0.8889(12) 0.2989(7) 0.5728(3)
H3 H 1.0111 0.2308 0.5725
C4 C 0.8333(12) 0.3760(8) 0.5220(3)
H4 H 0.9188 0.3614 0.4878
C5 C 0.6499(12) 0.4748(7) 0.5222(3)
H5 H 0.6117 0.5276 0.4880
C6 C 0.5223(11) 0.4959(7) 0.5729(3)
C7 C 0.3141(11) 0.5953(7) 0.5730(3)
H6 H 0.2955 0.6386 0.5340
H7 H 0.1808 0.5323 0.5809
N1 N 0.3190(8) 0.7195(5) 0.6160(2)
H8 H 0.1759 0.7609 0.6174
C8 C 0.4811(9) 0.8422(7) 0.6012(2)
H9 H 0.4848 0.8563 0.5583
C9 C 0.7205(11) 0.7995(6) 0.6230(3)
O2 O 0.7253(7) 0.7189(5) 0.66956(17)
O3 O 0.8835(7) 0.8529(5) 0.59805(19)
C10 C 0.4045(11) 0.9885(6) 0.6303(2)
H10 H 0.4957 1.0714 0.6145
H11 H 0.2462 1.0074 0.6194
C11 C 0.4216(11) 0.9925(6) 0.6963(3)
O4 O 0.3645(8) 0.8782(4) 0.72640(17)
O5 O 0.4830(7) 1.1141(4) 0.71887(16)
O6 O 0.0836(8) 0.6057(5) 0.72615(19)
H12 H -0.047(3) 0.648(5) 0.714(2)
H13 H 0.036(4) 0.523(3) 0.745(2)
Ni1B Ni 0.59204(12) 1.16026(8) 0.80111(3)
O5B O 0.5170(7) 0.6141(4) 0.78113(16)
loop_
_geom_bond_atom_site_label_1
_geom_bond_atom_site_label_2
_geom_bond_site_symmetry_1
_geom_bond_site_symmetry_2
Ni1 O1 1_555 1_555
O1 H1 1_555 1_555
C1 O1 1_555 1_555
C2 C1 1_555 1_555
H2 C2 1_555 1_555
C3 C2 1_555 1_555
H3 C3 1_555 1_555
C4 C3 1_555 1_555
H4 C4 1_555 1_555
C5 C4 1_555 1_555
H5 C5 1_555 1_555
C6 C1 1_555 1_555
C7 C6 1_555 1_555
H6 C7 1_555 1_555
H7 C7 1_555 1_555
N1 Ni1 1_555 1_555
H8 N1 1_555 1_555
C8 N1 1_555 1_555
H9 C8 1_555 1_555
C9 C8 1_555 1_555
O2 Ni1 1_555 1_555
O3 C9 1_555 1_555
C10 C8 1_555 1_555
H10 C10 1_555 1_555
H11 C10 1_555 1_555
C11 C10 1_555 1_555
O4 Ni1 1_555 1_555
O5 C11 1_555 1_555
O6 Ni1 1_555 1_555
H12 O6 1_555 1_555
H13 O6 1_555 1_555
Ni1B O5 1_555 1_555
O5B Ni1 1_555 1_555
C5 C6 1_555 1_555
C7 N1 1_555 1_555
C9 O2 1_555 1_555
C11 O4 1_555 1_555

#END
