
#######################################################################
#
#                 Cambridge Crystallographic Data Centre
#                                CCDC 
#
#######################################################################
#
# If this CIF has been generated from an entry in the Cambridge 
# Structural Database, then it will include bibliographic, chemical, 
# crystal, experimental, refinement or atomic coordinate data resulting 
# from the CCDC's data processing and validation procedures.
#
#######################################################################

data_FUDPIE
_symmetry_cell_setting           monoclinic
_symmetry_space_group_name_H-M   'C 2/c'
_symmetry_Int_Tables_number      15
_space_group_name_Hall           '-C 2yn'
loop_
_symmetry_equiv_pos_site_id
_symmetry_equiv_pos_as_xyz
1 x,y,z
2 -x,y,1/2-z
3 1/2+x,1/2+y,z
4 1/2-x,1/2+y,1/2-z
5 -x,-y,-z
6 x,-y,1/2+z
7 1/2-x,1/2-y,-z
8 1/2+x,1/2-y,1/2+z
_cell_length_a                   15.624(9)
_cell_length_b                   9.131(5)
_cell_length_c                   18.261(14)
_cell_angle_alpha                90
_cell_angle_beta                 107.847(5)
_cell_angle_gamma                90
_cell_volume                     2479.8
loop_
_atom_site_label
_atom_site_type_symbol
_atom_site_fract_x
_atom_site_fract_y
_atom_site_fract_z
Cu1 Cu 0.0000 -0.04291(3) 0.2500
C1 C 0.12426(14) 0.0481(2) 0.39437(11)
C2 C 0.18955(13) 0.1525(2) 0.44980(10)
C3 C 0.16100(13) 0.2453(2) 0.49832(11)
C4 C 0.22084(14) 0.3416(2) 0.54747(11)
C5 C 0.17534(15) -0.1294(3) 0.23141(14)
H1 H 0.1741 -0.2018 0.2669
C6 C 0.24910(16) -0.1202(3) 0.20535(17)
H2 H 0.2965 -0.1858 0.2229
C7 C 0.25204(18) -0.0135(4) 0.15327(17)
H3 H 0.3009 -0.0067 0.1344
C8 C 0.18153(19) 0.0833(4) 0.12941(17)
H4 H 0.1821 0.1574 0.0946
C9 C 0.10972(16) 0.0686(3) 0.15810(15)
H5 H 0.0626 0.1352 0.1425
C10 C 0.00789(15) -0.3447(2) 0.31506(13)
H6 H 0.0135 -0.2932 0.3602
C11 C 0.00786(17) -0.4962(3) 0.31687(18)
H7 H 0.0131 -0.5457 0.3625
C12 C 0.0000 -0.5728(4) 0.2500
H8 H 0.0000 -0.6746 0.2500
Cl1 Cl 0.05094(4) 0.23462(9) 0.49974(4)
Cl2 Cl 0.18397(4) 0.45362(8) 0.60846(4)
N1 N 0.10512(11) -0.03755(18) 0.20748(10)
N2 N 0.0000 -0.2697(2) 0.2500
O1 O 0.07644(9) 0.10650(17) 0.33301(8)
O2 O 0.12386(16) -0.0806(2) 0.41240(12)
Cu1F Cu 0.5000 0.54291(3) 0.7500
C1F C 0.37574(14) 0.4519(2) 0.60563(11)
C2F C 0.31045(13) 0.3475(2) 0.55020(10)
C3F C 0.33900(13) 0.2547(2) 0.50168(11)
C4F C 0.27916(14) 0.1584(2) 0.45253(11)
C5A C -0.17534(15) -0.1294(3) 0.26859(14)
H1A H -0.1741 -0.2018 0.2331
C6A C -0.24910(16) -0.1202(3) 0.29465(17)
H2A H -0.2965 -0.1858 0.2771
C7A C -0.25204(18) -0.0135(4) 0.34673(17)
H3A H -0.3009 -0.0067 0.3656
C8A C -0.18153(19) 0.0833(4) 0.37059(17)
H4A H -0.1821 0.1574 0.4054
C9A C -0.10972(16) 0.0686(3) 0.34190(15)
H5A H -0.0626 0.1352 0.3575
C10A C -0.00789(15) -0.3447(2) 0.18494(13)
H6A H -0.0135 -0.2932 0.1398
C11A C -0.00786(17) -0.4962(3) 0.18313(18)
H7A H -0.0131 -0.5457 0.1375
Cl1F Cl 0.44906(4) 0.26538(9) 0.50026(4)
Cl2F Cl 0.31603(4) 0.04638(8) 0.39154(4)
N1A N -0.10512(11) -0.03755(18) 0.29252(10)
O1F O 0.42356(9) 0.39350(17) 0.66699(8)
O1A O -0.07644(9) 0.10650(17) 0.16699(8)
O2F O 0.37614(16) 0.5806(2) 0.58760(12)
O3 O 0.3072(4) 0.1686(6) 0.0239(3)
H9 H 0.3223 0.2524 0.0440
H10 H 0.2569 0.1627 -0.0112
loop_
_geom_bond_atom_site_label_1
_geom_bond_atom_site_label_2
_geom_bond_site_symmetry_1
_geom_bond_site_symmetry_2
Cu1 N1 1_555 1_555
C1 C2 1_555 1_555
C2 C3 1_555 1_555
C3 C4 1_555 1_555
C4 Cl2 1_555 1_555
C5 H1 1_555 1_555
C6 C5 1_555 1_555
H2 C6 1_555 1_555
C7 C6 1_555 1_555
H3 C7 1_555 1_555
C8 C7 1_555 1_555
H4 C8 1_555 1_555
C9 C8 1_555 1_555
H5 C9 1_555 1_555
C10 H6 1_555 1_555
C11 C10 1_555 1_555
H7 C11 1_555 1_555
C12 C11 1_555 1_555
H8 C12 1_555 1_555
Cl1 C3 1_555 1_555
N1 C5 1_555 1_555
N2 Cu1 1_555 1_555
O1 Cu1 1_555 1_555
O2 C1 1_555 1_555
O3 H9 1_555 1_555
H10 O3 1_555 1_555
Cu1F O1F 1_555 1_555
C1F C2F 1_555 1_555
C2F C4 1_555 1_555
C3F C2F 1_555 1_555
C4F C2 1_555 1_555
C5A H1A 1_555 1_555
C6A C5A 1_555 1_555
H2A C6A 1_555 1_555
C7A C6A 1_555 1_555
H3A C7A 1_555 1_555
C8A C7A 1_555 1_555
H4A C8A 1_555 1_555
C9A C8A 1_555 1_555
H5A C9A 1_555 1_555
C10A N2 1_555 1_555
H6A C10A 1_555 1_555
C11A C12 1_555 1_555
H7A C11A 1_555 1_555
Cl1F C3F 1_555 1_555
Cl2F C4F 1_555 1_555
N1A Cu1 1_555 1_555
O1F C1F 1_555 1_555
O1A Cu1 1_555 1_555
O2F C1F 1_555 1_555
C1 O1 1_555 1_555
C9 N1 1_555 1_555
C10 N2 1_555 1_555
C3F C4F 1_555 1_555
C5A N1A 1_555 1_555
C9A N1A 1_555 1_555
C10A C11A 1_555 1_555

#END
