
#######################################################################
#
#                 Cambridge Crystallographic Data Centre
#                                CCDC 
#
#######################################################################
#
# If this CIF has been generated from an entry in the Cambridge 
# Structural Database, then it will include bibliographic, chemical, 
# crystal, experimental, refinement or atomic coordinate data resulting 
# from the CCDC's data processing and validation procedures.
#
#######################################################################

data_FUDPOL
_symmetry_cell_setting           monoclinic
_symmetry_space_group_name_H-M   'C 2/c'
_symmetry_Int_Tables_number      15
_space_group_name_Hall           '-C 2yn'
loop_
_symmetry_equiv_pos_site_id
_symmetry_equiv_pos_as_xyz
1 x,y,z
2 -x,y,1/2-z
3 1/2+x,1/2+y,z
4 1/2-x,1/2+y,1/2-z
5 -x,-y,-z
6 x,-y,1/2+z
7 1/2-x,1/2-y,-z
8 1/2+x,1/2-y,1/2+z
_cell_length_a                   34.701(13)
_cell_length_b                   8.354(3)
_cell_length_c                   22.244(9)
_cell_angle_alpha                90
_cell_angle_beta                 125.783(13)
_cell_angle_gamma                90
_cell_volume                     5231.15
loop_
_atom_site_label
_atom_site_type_symbol
_atom_site_fract_x
_atom_site_fract_y
_atom_site_fract_z
Cu1 Cu 0.743286(18) 0.67671(6) 0.44207(3)
Cu2 Cu 1.032270(19) 1.04479(7) 0.56832(3)
O1 O 1.02444(12) 0.8358(4) 0.60011(18)
O2 O 0.81363(11) 0.6745(4) 0.50599(16)
O3 O 0.75817(12) 1.0131(4) 0.50741(18)
O4 O 0.74554(11) 0.8940(4) 0.40770(16)
O5 O 0.96898(12) 0.7627(4) 0.48310(19)
N1 N 1.26343(13) 1.4331(4) 0.65252(19)
O6 O 1.13917(11) 1.5292(4) 0.62630(17)
O7 O 0.97478(11) 1.1216(5) 0.55819(18)
O8 O 0.82491(11) 0.7975(4) 0.60438(17)
N2 N 1.07707(13) 1.1594(5) 0.6769(2)
C1 C 1.09140(15) 1.3096(5) 0.6799(3)
H1 H 1.0848 1.3554 0.6356
C2 C 0.96387(17) 0.6150(7) 0.6200(3)
H2 H 0.9651 0.5150 0.6449
H3 H 0.9829 0.6967 0.6588
C3 C 1.11536(15) 1.4029(6) 0.7436(2)
C4 C 1.12534(18) 1.3322(7) 0.8077(3)
H4 H 1.1423 1.3901 0.8530
C5 C 1.30499(16) 1.4737(6) 0.7158(2)
H5 H 1.3335 1.4546 0.7200
C6 C 1.22354(16) 1.4593(5) 0.6475(2)
H6 H 1.1940 1.4305 0.6029
C7 C 0.99399(17) 0.7390(6) 0.5519(3)
C8 C 1.1105(2) 1.1778(7) 0.8054(3)
H7 H 1.1170 1.1287 0.8490
C9 C 0.89601(16) 1.1948(6) 0.5082(3)
H8 H 0.9073 1.1886 0.5606
H9 H 0.8950 1.3094 0.4962
C10 C 0.98644(17) 0.5842(6) 0.5789(3)
H10 H 1.0173 0.5295 0.6125
H11 H 0.9655 0.5129 0.5360
C11 C 1.26673(17) 1.5686(6) 0.7693(3)
H12 H 1.2680 1.6154 0.8093
C12 C 1.22330(16) 1.5263(5) 0.7043(2)
C13 C 0.75380(15) 1.0153(5) 0.4475(2)
C14 C 1.17551(16) 1.5436(5) 0.6897(3)
C15 C 0.84564(16) 1.1307(6) 0.4603(3)
H13 H 0.8456 1.0164 0.4721
H14 H 0.8332 1.1386 0.4075
C16 C 0.83952(16) 0.7315(5) 0.5704(2)
C17 C 0.91256(16) 0.6717(6) 0.5694(3)
H15 H 0.9107 0.7661 0.5410
H16 H 0.8928 0.5859 0.5337
C18 C 0.76123(15) 1.1748(5) 0.4231(2)
H17 H 0.7415 1.2576 0.4249
H18 H 0.7510 1.1664 0.3713
C19 C 1.13004(16) 1.5712(6) 0.7409(3)
H19 H 1.1049 1.6216 0.6932
H20 H 1.1338 1.6351 0.7814
C20 C 1.08611(17) 1.0950(6) 0.7389(3)
H21 H 1.0755 0.9893 0.7374
C21 C 1.30807(17) 1.5415(6) 0.7747(3)
H22 H 1.3381 1.5695 0.8185
C22 C 0.81365(15) 1.2245(5) 0.4735(2)
H23 H 0.8161 1.3397 0.4657
H24 H 0.8253 1.2105 0.5258
O9 O 0.91923(11) 1.0475(4) 0.44189(18)
C23 C 0.89309(16) 0.7158(6) 0.6131(3)
H25 H 0.9075 0.8189 0.6384
H26 H 0.9040 0.6339 0.6521
N3 N 1.17475(13) 1.5711(5) 0.7483(2)
H27 H 1.2016 1.5895 0.7919
C24 C 0.93267(16) 1.1125(6) 0.5018(3)
Cu1D Cu 1.256714(18) 1.32329(6) 0.55793(3)
Cu1F Cu 0.756714(18) 0.82329(6) 0.55793(3)
Cu2D Cu 0.967730(19) 0.95521(7) 0.43168(3)
O3F O 0.74183(12) 0.4869(4) 0.49259(18)
O5D O 1.03102(12) 1.2373(4) 0.51690(19)
N1D N 0.73657(13) 0.5669(4) 0.34748(19)
O8F O 0.67509(11) 0.7025(4) 0.39562(17)
O9D O 1.08077(11) 0.9525(4) 0.55811(18)
O10 O 0.9732(5) 1.0121(18) 0.6813(8)
H28 H 0.9981 1.0695 0.6954
H29 H 0.9552 1.0645 0.6898
loop_
_geom_bond_atom_site_label_1
_geom_bond_atom_site_label_2
_geom_bond_site_symmetry_1
_geom_bond_site_symmetry_2
Cu1 O2 1_555 1_555
Cu2 O1 1_555 1_555
O1 C7 1_555 1_555
O2 C16 1_555 1_555
O3 C13 1_555 1_555
O4 Cu1 1_555 1_555
O5 C7 1_555 1_555
N1 C5 1_555 1_555
O6 C14 1_555 1_555
O7 Cu2 1_555 1_555
O8 C16 1_555 1_555
N2 Cu2 1_555 1_555
C1 N2 1_555 1_555
H1 C1 1_555 1_555
C2 H2 1_555 1_555
H3 C2 1_555 1_555
C3 C1 1_555 1_555
C4 C3 1_555 1_555
H4 C4 1_555 1_555
C5 H5 1_555 1_555
C6 N1 1_555 1_555
H6 C6 1_555 1_555
C7 C10 1_555 1_555
C8 C4 1_555 1_555
H7 C8 1_555 1_555
C9 H8 1_555 1_555
H9 C9 1_555 1_555
C10 C2 1_555 1_555
H10 C10 1_555 1_555
H11 C10 1_555 1_555
C11 H12 1_555 1_555
C12 C6 1_555 1_555
C13 O4 1_555 1_555
C14 C12 1_555 1_555
C15 C9 1_555 1_555
H13 C15 1_555 1_555
H14 C15 1_555 1_555
C16 C23 1_555 1_555
C17 C2 1_555 1_555
H15 C17 1_555 1_555
H16 C17 1_555 1_555
C18 C13 1_555 1_555
H17 C18 1_555 1_555
H18 C18 1_555 1_555
C19 C3 1_555 1_555
H19 C19 1_555 1_555
H20 C19 1_555 1_555
C20 N2 1_555 1_555
H21 C20 1_555 1_555
C21 C5 1_555 1_555
H22 C21 1_555 1_555
C22 C15 1_555 1_555
H23 C22 1_555 1_555
H24 C22 1_555 1_555
O9 C24 1_555 1_555
C23 C17 1_555 1_555
H25 C23 1_555 1_555
H26 C23 1_555 1_555
N3 C14 1_555 1_555
H27 N3 1_555 1_555
C24 O7 1_555 1_555
O10 H28 1_555 1_555
H29 O10 1_555 1_555
Cu1D N1 1_555 1_555
Cu1F Cu1 1_555 1_555
Cu2D Cu2 1_555 1_555
O3F Cu1 1_555 1_555
O5D Cu2 1_555 1_555
N1D Cu1 1_555 1_555
O8F Cu1 1_555 1_555
O9D Cu2 1_555 1_555
O3 Cu1F 1_555 1_555
O5 Cu2D 1_555 1_555
O8 Cu1F 1_555 1_555
C8 C20 1_555 1_555
C9 C24 1_555 1_555
C11 C12 1_555 1_555
C11 C21 1_555 1_555
C18 C22 1_555 1_555
C19 N3 1_555 1_555
O9 Cu2D 1_555 1_555

#END
