
#######################################################################
#
#                 Cambridge Crystallographic Data Centre
#                                CCDC 
#
#######################################################################
#
# If this CIF has been generated from an entry in the Cambridge 
# Structural Database, then it will include bibliographic, chemical, 
# crystal, experimental, refinement or atomic coordinate data resulting 
# from the CCDC's data processing and validation procedures.
#
#######################################################################

data_FUDYIO
_symmetry_cell_setting           monoclinic
_symmetry_space_group_name_H-M   'P 21/m'
_symmetry_Int_Tables_number      11
_space_group_name_Hall           '-P 2yb'
loop_
_symmetry_equiv_pos_site_id
_symmetry_equiv_pos_as_xyz
1 x,y,z
2 -x,1/2+y,-z
3 -x,-y,-z
4 x,1/2-y,z
_cell_length_a                   7.1482(17)
_cell_length_b                   17.056(4)
_cell_length_c                   10.403(2)
_cell_angle_alpha                90
_cell_angle_beta                 106.655(7)
_cell_angle_gamma                90
_cell_volume                     1215.12
loop_
_atom_site_label
_atom_site_type_symbol
_atom_site_fract_x
_atom_site_fract_y
_atom_site_fract_z
O6 O 0.1005(7) 0.6870(4) 0.4224(6)
H20 H 0.0186 0.7147 0.4512
H21 H 0.0365 0.6589 0.3541
Cu1 Cu 0.14574(6) 0.51239(2) 0.10793(4)
O1 O 0.0268(3) 0.40973(14) -0.1561(3)
O2 O 0.2716(3) 0.42849(14) 0.0314(2)
O3 O 0.0298(4) 0.43058(14) 0.1965(2)
O4 O -0.2152(3) 0.40908(14) 0.0107(3)
O5 O 0.8167(5) 0.7500 0.5314(4)
N1 N 0.4030(4) 0.53945(17) 0.2699(3)
N2 N 0.4948(5) 0.7500 0.5135(4)
H1 H 0.4535 0.7500 0.4253
C1 C -0.1208(5) 0.3943(2) 0.1295(4)
C2 C -0.1878(5) 0.32521(19) 0.1948(3)
H2 H -0.1295 0.3275 0.2933
H3 H -0.3317 0.3262 0.1754
C3 C -0.1240(7) 0.2500 0.1394(5)
H4 H 0.0201 0.2500 0.1603
H5 H -0.1785 0.2500 0.0405
C4 C 0.1940(5) 0.3941(2) -0.0776(4)
C5 C 0.3019(5) 0.3249(2) -0.1151(4)
H6 H 0.2776 0.3227 -0.2136
H7 H 0.4441 0.3305 -0.0729
C6 C 0.2274(7) 0.2500 -0.0654(5)
H8 H 0.2686 0.2500 0.0339
H9 H 0.0829 0.2500 -0.0959
C7 C 0.5405(19) 0.4847(7) 0.3153(11)
H10 H 0.5202 0.4344 0.2744
C8 C 0.7082(13) 0.4968(5) 0.4168(8)
H11 H 0.8058 0.4579 0.4478
C9 C 0.722(3) 0.5796(14) 0.475(3)
H12 H 0.8292 0.5917 0.5504
C10 C 0.6105(12) 0.6276(5) 0.4324(8)
C11 C 0.4428(11) 0.6104(5) 0.3300(8)
H13 H 0.3497 0.6511 0.3001
C12 C 0.6507(10) 0.7081(4) 0.4958(7)
O1C O 0.0268(3) 0.09027(14) -0.1561(3)
O2C O 0.2716(3) 0.07151(14) 0.0314(2)
C4C C 0.1940(5) 0.1059(2) -0.0776(4)
C5C C 0.3019(5) 0.1751(2) -0.1151(4)
H6C H 0.2776 0.1773 -0.2136
H7C H 0.4441 0.1695 -0.0729
O3C O 0.0298(4) 0.06942(14) 0.1965(2)
O4C O -0.2152(3) 0.09092(14) 0.0107(3)
C1C C -0.1208(5) 0.1057(2) 0.1295(4)
C2C C -0.1878(5) 0.17479(19) 0.1948(3)
H2C H -0.1295 0.1725 0.2933
H3C H -0.3317 0.1738 0.1754
N1C N 0.4030(4) 0.96055(17) 0.2699(3)
C7C C 0.5405(19) 1.0153(7) 0.3153(11)
H10C H 0.5202 1.0656 0.2744
C8C C 0.7082(13) 1.0032(5) 0.4168(8)
H11C H 0.8058 1.0421 0.4478
C9C C 0.722(3) 0.9204(14) 0.475(3)
H12C H 0.8292 0.9083 0.5504
C10C C 0.6105(12) 0.8724(5) 0.4324(8)
C11C C 0.4428(11) 0.8896(5) 0.3300(8)
H13C H 0.3497 0.8489 0.3001
C12C C 0.6507(10) 0.7919(4) 0.4958(7)
Cu1B Cu -0.14574(6) 0.48761(2) -0.10793(4)
Cu1A Cu -0.14574(6) 0.01239(2) -0.10793(4)
Cu1C Cu 0.14574(6) -0.01239(2) 0.10793(4)
Cu1C_2 Cu 0.14574(6) 0.98761(2) 0.10793(4)
O1B O -0.0268(3) 0.59027(14) 0.1561(3)
O2B O -0.2716(3) 0.57151(14) -0.0314(2)
O3B O -0.0298(4) 0.56942(14) -0.1965(2)
O4B O 0.2152(3) 0.59092(14) -0.0107(3)
N1B N -0.4030(4) 0.46055(17) -0.2699(3)
C13? C 0.5445(11) 0.6129(5) 0.4641(8)
C14? C 0.3864(12) 0.5904(5) 0.3608(8)
H14? H 0.2619 0.6121 0.3549
C15? C 0.5194(10) 0.6738(4) 0.5661(7)
H15? H 0.4044 0.6596 0.5962
H16? H 0.6357 0.6725 0.6455
C16? C 0.5753(19) 0.5075(7) 0.2771(12)
H17? H 0.5830 0.4703 0.2108
C17? C 0.7426(13) 0.5258(5) 0.3763(8)
H18? H 0.8630 0.5056 0.3691
C18? C 0.745(3) 0.5682(14) 0.477(3)
H19? H 0.8565 0.5729 0.5530
loop_
_geom_bond_atom_site_label_1
_geom_bond_atom_site_label_2
_geom_bond_site_symmetry_1
_geom_bond_site_symmetry_2
Cu1 O2 1_555 1_555
O1 C4 1_555 1_555
O2 C4 1_555 1_555
O3 Cu1 1_555 1_555
O4 C1 1_555 1_555
O5 C12 1_555 1_555
N1 Cu1 1_555 1_555
N2 H1 1_555 1_555
C1 O3 1_555 1_555
C2 C1 1_555 1_555
H2 C2 1_555 1_555
H3 C2 1_555 1_555
C3 C2 1_555 1_555
H4 C3 1_555 1_555
H5 C3 1_555 1_555
C4 C5 1_555 1_555
C5 H6 1_555 1_555
H7 C5 1_555 1_555
C6 C5 1_555 1_555
H8 C6 1_555 1_555
H9 C6 1_555 1_555
C7 N1 1_555 1_555
H10 C7 1_555 1_555
C8 C7 1_555 1_555
H11 C8 1_555 1_555
C9 C8 1_555 1_555
H12 C9 1_555 1_555
C10 C9 1_555 1_555
C11 N1 1_555 1_555
H13 C11 1_555 1_555
C12 N2 1_555 1_555
O6 H20 1_555 1_555
H21 O6 1_555 1_555
O1C C4C 1_555 1_555
O2C C4C 1_555 1_555
C4C C5C 1_555 1_555
C5C C6 1_555 1_555
H6C C5C 1_555 1_555
H7C C5C 1_555 1_555
O3C C1C 1_555 1_555
O4C C1C 1_555 1_555
C1C C2C 1_555 1_555
C2C C3 1_555 1_555
H2C C2C 1_555 1_555
H3C C2C 1_555 1_555
N1C C7C 1_555 1_555
C7C H10C 1_555 1_555
C8C C7C 1_555 1_555
H11C C8C 1_555 1_555
C9C C8C 1_555 1_555
H12C C9C 1_555 1_555
C10C C9C 1_555 1_555
C11C N1C 1_555 1_555
H13C C11C 1_555 1_555
C12C O5 1_555 1_555
Cu1B Cu1 1_555 1_555
Cu1A O1C 1_555 1_555
Cu1C O2C 1_555 1_555
Cu1C_2 N1C 1_555 1_555
O1B Cu1 1_555 1_555
O2B Cu1B 1_555 1_555
O3B Cu1B 1_555 1_555
O4B Cu1 1_555 1_555
N1B Cu1B 1_555 1_555
O1 Cu1B 1_555 1_555
O4 Cu1B 1_555 1_555
N2 C12C 1_555 1_555
C10 C11 1_555 1_555
C10 C12 1_555 1_555
C12 C12C 1_555 1_555
O3C Cu1C 1_555 1_555
O4C Cu1A 1_555 1_555
C10C C11C 1_555 1_555
C10C C12C 1_555 1_555
Cu1A Cu1C 1_555 1_555

#END
