
#######################################################################
#
#                 Cambridge Crystallographic Data Centre
#                                CCDC 
#
#######################################################################
#
# If this CIF has been generated from an entry in the Cambridge 
# Structural Database, then it will include bibliographic, chemical, 
# crystal, experimental, refinement or atomic coordinate data resulting 
# from the CCDC's data processing and validation procedures.
#
#######################################################################

data_FUDYEJ
_symmetry_cell_setting           monoclinic
_symmetry_space_group_name_H-M   'P 21/c'
_symmetry_Int_Tables_number      14
_space_group_name_Hall           '-P 2ybc'
loop_
_symmetry_equiv_pos_site_id
_symmetry_equiv_pos_as_xyz
1 x,y,z
2 -x,1/2+y,1/2-z
3 -x,-y,-z
4 x,1/2-y,1/2+z
_cell_length_a                   10.6095(9)
_cell_length_b                   10.6336(9)
_cell_length_c                   17.0492(14)
_cell_angle_alpha                90
_cell_angle_beta                 102.119(7)
_cell_angle_gamma                90
_cell_volume                     1880.58
loop_
_atom_site_label
_atom_site_type_symbol
_atom_site_fract_x
_atom_site_fract_y
_atom_site_fract_z
O1 O 0.13658(12) 0.51324(12) 0.19788(7)
O2 O 0.08718(12) 0.61836(11) 0.44895(7)
O3 O 0.06836(12) 0.88292(11) 0.44086(7)
O4 O 0.09904(11) 0.84325(11) 0.26421(7)
N1 N 0.23323(13) 0.56719(13) 0.32466(8)
H1 H 0.2877 0.6165 0.3541
N2 N 0.27546(14) 0.94245(14) 0.33752(9)
H2 H 0.3581 0.9480 0.3460
C1 C 0.30482(15) 0.80257(15) 0.23219(9)
C2 C 0.38913(17) 0.87911(18) 0.20013(11)
H3 H 0.3942 0.9646 0.2118
C3 C 0.46547(19) 0.8280(2) 0.15081(12)
H4 H 0.5209 0.8794 0.1296
C4 C 0.45900(18) 0.7012(2) 0.13344(12)
H5 H 0.5107 0.6674 0.1010
C5 C 0.37573(16) 0.62387(18) 0.16415(10)
H6 H 0.3717 0.5386 0.1519
C6 C 0.29760(14) 0.67339(15) 0.21357(9)
C7 C 0.21366(14) 0.57952(14) 0.24520(9)
C8 C 0.16632(17) 0.47348(16) 0.36418(10)
H7 H 0.2074 0.3922 0.3631
H8 H 0.0776 0.4661 0.3353
C9 C 0.16919(17) 0.51067(16) 0.45015(10)
H9 H 0.1386 0.4418 0.4785
H10 H 0.2566 0.5310 0.4773
C10 C 0.1183(2) 0.69113(19) 0.52113(10)
H11 H 0.2098 0.7100 0.5339
H12 H 0.0970 0.6445 0.5655
C11 C 0.0415(2) 0.81048(19) 0.50752(11)
H13 H -0.0496 0.7901 0.4971
H14 H 0.0611 0.8613 0.5558
C12 C 0.18410(19) 0.95678(19) 0.46141(12)
H15 H 0.2565 0.9030 0.4839
H16 H 0.1750 1.0191 0.5014
C13 C 0.20828(18) 1.02121(16) 0.38707(12)
H17 H 0.1262 1.0476 0.3546
H18 H 0.2592 1.0963 0.4030
C14 C 0.21711(15) 0.86270(15) 0.28011(9)
Li1 Li 0.0342(3) 0.3641(3) 0.17444(18)
O9 O 0.1280(2) 0.20774(18) 0.17326(12)
H19 H 0.201(4) 0.216(3) 0.165(2)
H20 H 0.097(6) 0.167(5) 0.136(3)
O3A O -0.06836(12) 0.38292(11) 0.05914(7)
O4A O -0.09904(11) 0.34325(11) 0.23579(7)
Li1A Li -0.0342(3) 0.8641(3) 0.32556(18)
Cl1 Cl 0.57439(4) 0.74485(4) 0.42987(3)
O5 O 0.6784(19) 0.7314(18) 0.4941(16)
O6 O 0.6126(11) 0.6902(18) 0.3624(9)
O7 O 0.4512(11) 0.6819(8) 0.4374(3)
O8 O 0.5429(4) 0.8819(9) 0.4293(4)
O10? O 0.661(2) 0.714(2) 0.5066(12)
O11? O 0.618(2) 0.749(3) 0.3569(11)
O12? O 0.489(5) 0.664(3) 0.4330(11)
O13? O 0.5450(18) 0.8476(18) 0.4177(14)
loop_
_geom_bond_atom_site_label_1
_geom_bond_atom_site_label_2
_geom_bond_site_symmetry_1
_geom_bond_site_symmetry_2
O1 C7 1_555 1_555
O2 C9 1_555 1_555
O3 C11 1_555 1_555
O4 C14 1_555 1_555
N1 H1 1_555 1_555
N2 H2 1_555 1_555
C1 C2 1_555 1_555
C2 H3 1_555 1_555
C3 C2 1_555 1_555
H4 C3 1_555 1_555
C4 C3 1_555 1_555
H5 C4 1_555 1_555
C5 C4 1_555 1_555
H6 C5 1_555 1_555
C6 C1 1_555 1_555
C7 N1 1_555 1_555
C8 N1 1_555 1_555
H7 C8 1_555 1_555
H8 C8 1_555 1_555
C9 C8 1_555 1_555
H9 C9 1_555 1_555
H10 C9 1_555 1_555
C10 O2 1_555 1_555
H11 C10 1_555 1_555
H12 C10 1_555 1_555
C11 C10 1_555 1_555
H13 C11 1_555 1_555
H14 C11 1_555 1_555
C12 O3 1_555 1_555
H15 C12 1_555 1_555
H16 C12 1_555 1_555
C13 N2 1_555 1_555
H17 C13 1_555 1_555
H18 C13 1_555 1_555
C14 N2 1_555 1_555
Li1 O1 1_555 1_555
Cl1 O5 1_555 1_555
O6 Cl1 1_555 1_555
O7 Cl1 1_555 1_555
O8 Cl1 1_555 1_555
O9 Li1 1_555 1_555
H19 O9 1_555 1_555
H20 O9 1_555 1_555
O3A Li1 1_555 1_555
O4A Li1 1_555 1_555
Li1A O3 1_555 1_555
O4 Li1A 1_555 1_555
C1 C14 1_555 1_555
C5 C6 1_555 1_555
C6 C7 1_555 1_555
C12 C13 1_555 1_555

#END
