
#######################################################################
#
#                 Cambridge Crystallographic Data Centre
#                                CCDC 
#
#######################################################################
#
# If this CIF has been generated from an entry in the Cambridge 
# Structural Database, then it will include bibliographic, chemical, 
# crystal, experimental, refinement or atomic coordinate data resulting 
# from the CCDC's data processing and validation procedures.
#
#######################################################################

data_FUDYOU
_symmetry_cell_setting           orthorhombic
_symmetry_space_group_name_H-M   'F d d 2'
_symmetry_Int_Tables_number      43
_space_group_name_Hall           'F 2 -2d'
loop_
_symmetry_equiv_pos_site_id
_symmetry_equiv_pos_as_xyz
1 x,y,z
2 -x,-y,z
3 1/4+x,1/4-y,1/4+z
4 1/4-x,1/4+y,1/4+z
5 x,1/2+y,1/2+z
6 -x,1/2-y,1/2+z
7 1/4+x,3/4-y,3/4+z
8 1/4-x,3/4+y,3/4+z
9 1/2+x,y,1/2+z
10 1/2-x,-y,1/2+z
11 3/4+x,1/4-y,3/4+z
12 3/4-x,1/4+y,3/4+z
13 1/2+x,1/2+y,z
14 1/2-x,1/2-y,z
15 3/4+x,3/4-y,1/4+z
16 3/4-x,3/4+y,1/4+z
_cell_length_a                   32.610(7)
_cell_length_b                   43.566(10)
_cell_length_c                   4.8769(11)
_cell_angle_alpha                90
_cell_angle_beta                 90
_cell_angle_gamma                90
_cell_volume                     6928.55
loop_
_atom_site_label
_atom_site_type_symbol
_atom_site_fract_x
_atom_site_fract_y
_atom_site_fract_z
Cu1 Cu 0.17800(3) 0.151523(17) 0.70001(16)
O1 O 0.38185(14) 0.11959(10) 0.1196(9)
O2 O 0.22211(15) 0.17236(11) 0.5096(10)
N1 N 0.19724(18) 0.11016(14) 0.5884(12)
O3 O 0.29891(14) 0.00158(11) 0.5102(11)
C1 C 0.1783(2) 0.09454(16) 0.3873(14)
H1 H 0.1574 0.1046 0.2854
C2 C 0.2187(2) 0.05035(14) 0.4658(17)
H2 H 0.2261 0.0298 0.4214
N2 N 0.31065(17) 0.04990(12) 0.6569(13)
H3 H 0.3277 0.0655 0.6557
C3 C 0.2271(2) 0.09544(14) 0.7263(16)
H4 H 0.2407 0.1062 0.8692
C4 C 0.2745(2) 0.05156(16) 0.8247(16)
H5 H 0.2804 0.0640 0.9898
H6 H 0.2669 0.0306 0.8858
C5 C 0.3192(2) 0.02537(15) 0.5028(15)
C6 C 0.1876(2) 0.06480(17) 0.3228(16)
H7 H 0.1730 0.0543 0.1827
C7 C 0.2390(2) 0.06559(14) 0.6719(16)
C8 C 0.3540(2) 0.02746(16) 0.3016(15)
C9 C 0.3747(2) 0.05469(14) 0.2395(18)
H8 H 0.3679 0.0727 0.3399
C10 C 0.2300(2) 0.16797(15) 0.2550(17)
O4 O 0.20949(17) 0.15139(11) 0.1053(10)
C11 C 0.3652(2) 0.00169(15) 0.1625(17)
H9 H 0.3520 -0.0173 0.2019
C12 C 0.2973(2) 0.16402(18) -0.0085(19)
H10 H 0.2830 0.1547 -0.1670
H11 H 0.3200 0.1767 -0.0810
C13 C 0.2674(3) 0.18477(19) 0.143(2)
H12 H 0.2549 0.1964 -0.0134
N3 N 0.40312(18) 0.05657(12) 0.0476(12)
C14 C 0.4135(2) 0.03066(17) -0.0902(16)
H13 H 0.4339 0.0316 -0.2292
C15 C 0.3948(2) 0.00275(15) -0.0311(18)
H14 H 0.4028 -0.0154 -0.1256
O5 O 0.33968(17) 0.10835(11) -0.2215(11)
C16 C 0.3144(3) 0.13958(19) 0.1610(19)
H15 H 0.2922 0.1255 0.2195
H16 H 0.3269 0.1486 0.3276
C17 C 0.3476(2) 0.12106(16) -0.0006(16)
C18 C 0.2829(5) 0.2086(3) 0.301(3)
H17 H 0.3006 0.2002 0.4456
H18 H 0.2602 0.2200 0.3849
H19 H 0.2990 0.2225 0.1850
Cu1_2 Cu 0.17800(3) 0.151523(17) -0.29999(16)
Cu1B Cu 0.42800(3) 0.098477(17) -0.04999(16)
O1J O 0.13185(14) 0.13041(10) 0.8696(9)
O4_2 O 0.20949(17) 0.15139(11) 1.1053(10)
N3J N 0.15312(18) 0.19343(12) 0.7976(12)
loop_
_geom_bond_atom_site_label_1
_geom_bond_atom_site_label_2
_geom_bond_site_symmetry_1
_geom_bond_site_symmetry_2
Cu1 O2 1_555 1_555
O1 C17 1_555 1_555
O2 C10 1_555 1_555
N1 Cu1 1_555 1_555
O3 C5 1_555 1_555
C1 N1 1_555 1_555
H1 C1 1_555 1_555
C2 H2 1_555 1_555
N2 H3 1_555 1_555
C3 N1 1_555 1_555
H4 C3 1_555 1_555
C4 N2 1_555 1_555
H5 C4 1_555 1_555
H6 C4 1_555 1_555
C5 N2 1_555 1_555
C6 C1 1_555 1_555
H7 C6 1_555 1_555
C7 C2 1_555 1_555
C8 C5 1_555 1_555
C9 C8 1_555 1_555
H8 C9 1_555 1_555
C10 O4 1_555 1_555
O4 Cu1_2 1_555 1_555
C11 C8 1_555 1_555
H9 C11 1_555 1_555
C12 H10 1_555 1_555
H11 C12 1_555 1_555
C13 C10 1_555 1_555
H12 C13 1_555 1_555
N3 C9 1_555 1_555
C14 N3 1_555 1_555
H13 C14 1_555 1_555
C15 C11 1_555 1_555
H14 C15 1_555 1_555
O5 C17 1_555 1_555
C16 C12 1_555 1_555
H15 C16 1_555 1_555
H16 C16 1_555 1_555
C17 C16 1_555 1_555
C18 C13 1_555 1_555
H17 C18 1_555 1_555
H18 C18 1_555 1_555
H19 C18 1_555 1_555
Cu1B O1 1_555 1_555
O1J Cu1 1_555 1_555
O4_2 Cu1 1_555 1_555
N3J Cu1 1_555 1_555
C2 C6 1_555 1_555
C3 C7 1_555 1_555
C4 C7 1_555 1_555
C12 C13 1_555 1_555
N3 Cu1B 1_555 1_555
C14 C15 1_555 1_555

#END
