
#######################################################################
#
#                 Cambridge Crystallographic Data Centre
#                                CCDC 
#
#######################################################################
#
# If this CIF has been generated from an entry in the Cambridge 
# Structural Database, then it will include bibliographic, chemical, 
# crystal, experimental, refinement or atomic coordinate data resulting 
# from the CCDC's data processing and validation procedures.
#
#######################################################################

data_FUDZEL
_symmetry_cell_setting           orthorhombic
_symmetry_space_group_name_H-M   'P b c a'
_symmetry_Int_Tables_number      61
_space_group_name_Hall           '-P 2ac 2ab'
loop_
_symmetry_equiv_pos_site_id
_symmetry_equiv_pos_as_xyz
1 x,y,z
2 1/2-x,-y,1/2+z
3 1/2+x,1/2-y,-z
4 -x,1/2+y,1/2-z
5 -x,-y,-z
6 1/2+x,y,1/2-z
7 1/2-x,1/2+y,z
8 x,1/2-y,1/2+z
_cell_length_a                   11.7783(7)
_cell_length_b                   19.380(2)
_cell_length_c                   32.183(2)
_cell_angle_alpha                90
_cell_angle_beta                 90
_cell_angle_gamma                90
_cell_volume                     7346.2
loop_
_atom_site_label
_atom_site_type_symbol
_atom_site_fract_x
_atom_site_fract_y
_atom_site_fract_z
Zn1 Zn 0.02797(2) 0.398140(16) 0.131820(10)
O1 O 0.13744(16) 0.47128(10) 0.14351(7)
O2 O -0.00774(18) 0.54097(11) 0.15415(9)
O3 O 0.36315(17) 0.82153(10) 0.13379(7)
O4 O 0.50005(19) 0.75118(11) 0.11344(9)
N1 N -0.04063(18) 0.42199(12) 0.07631(8)
N2 N -0.1668(2) 0.44252(12) 0.02695(8)
H1 H -0.2312 0.4541 0.0150
N3 N -0.09556(19) 0.37757(11) 0.17345(7)
N4 N -0.2514(2) 0.33808(14) 0.20309(8)
H2 H -0.3185 0.3186 0.2058
C1 C 0.0094(3) 0.40798(15) 0.03798(10)
C2 C 0.1191(3) 0.38777(17) 0.02810(11)
H3 H 0.1747 0.3803 0.0490
C3 C 0.1441(3) 0.37892(19) -0.01398(12)
H4 H 0.2185 0.3651 -0.0218
C4 C 0.0630(4) 0.38979(19) -0.04478(12)
H5 H 0.0827 0.3822 -0.0730
C5 C -0.0448(3) 0.4112(2) -0.03515(12)
H6 H -0.0999 0.4193 -0.0561
C6 C -0.0699(3) 0.42062(16) 0.00674(10)
C7 C -0.1459(2) 0.44319(14) 0.06832(9)
C8 C -0.2308(2) 0.46777(14) 0.09932(9)
H7 H -0.2491 0.5166 0.0933
H8 H -0.1963 0.4658 0.1273
C9 C -0.3406(2) 0.42613(15) 0.09962(9)
C10 C -0.4404(3) 0.45773(19) 0.08639(10)
H9 H -0.4391 0.5049 0.0784
C11 C -0.5413(3) 0.4215(2) 0.08461(11)
H10 H -0.6087 0.4438 0.0755
C12 C -0.5438(3) 0.3537(2) 0.09594(12)
H11 H -0.6128 0.3284 0.0942
C13 C -0.4465(3) 0.32163(18) 0.10990(11)
H12 H -0.4499 0.2747 0.1183
C14 C -0.3434(2) 0.35666(15) 0.11190(9)
C15 C -0.2376(2) 0.31951(15) 0.12663(9)
H13 H -0.2548 0.2697 0.1294
H14 H -0.1776 0.3246 0.1053
C16 C -0.1933(2) 0.34561(14) 0.16724(9)
C17 C -0.1879(3) 0.36603(18) 0.23469(10)
C18 C -0.2072(3) 0.3707(2) 0.27722(11)
H15 H -0.2746 0.3532 0.2895
C19 C -0.1239(4) 0.4019(2) 0.30055(12)
H16 H -0.1343 0.4069 0.3297
C20 C -0.0242(4) 0.4264(2) 0.28222(13)
H17 H 0.0325 0.4467 0.2993
C21 C -0.0056(3) 0.4219(2) 0.23979(12)
H18 H 0.0621 0.4391 0.2275
C22 C -0.0896(3) 0.39135(15) 0.21598(9)
C23 C 0.0946(2) 0.53131(14) 0.14801(10)
C24 C 0.1755(2) 0.59052(14) 0.14429(9)
C25 C 0.2846(3) 0.57983(16) 0.12973(10)
H19 H 0.3097 0.5343 0.1237
C26 C 0.3576(3) 0.63516(15) 0.12384(11)
H20 H 0.4319 0.6272 0.1134
C27 C 0.1421(2) 0.65707(15) 0.15401(11)
H21 H 0.0678 0.6649 0.1645
C28 C 0.2148(2) 0.71222(15) 0.14874(11)
H22 H 0.1905 0.7574 0.1559
C29 C 0.3234(2) 0.70193(14) 0.13305(9)
C30 C 0.4031(2) 0.76163(15) 0.12607(9)
Zn1F Zn 0.47203(2) 0.898140(16) 0.131820(10)
O3F O 0.13685(17) 0.32153(10) 0.13379(7)
O5 O 0.1304(2) 0.05310(13) 0.01723(8)
N5 N 0.0679(3) 0.16373(17) 0.01243(10)
C31 C 0.0537(4) 0.0966(2) 0.01450(12)
H23 H -0.0221 0.0800 0.0139
C32 C -0.0279(3) 0.2110(2) 0.00735(15)
H24 H -0.0987 0.1846 0.0062
H25 H -0.0186 0.2372 -0.0185
H26 H -0.0304 0.2430 0.0309
C33 C 0.1807(3) 0.1938(2) 0.01392(17)
H27 H 0.2339 0.1604 0.0259
H28 H 0.1792 0.2355 0.0311
H29 H 0.2051 0.2057 -0.0143
O6 O 0.1029(2) 0.23181(14) 0.28098(11)
N6 N 0.0034(3) 0.16621(19) 0.23679(11)
C34 C 0.0218(4) 0.2222(2) 0.25730(16)
H30 H -0.0309 0.2589 0.2540
C35 C -0.0952(5) 0.1586(4) 0.2102(2)
H31 H -0.1401 0.2011 0.2108
H32 H -0.1417 0.1200 0.2201
H33 H -0.0704 0.1494 0.1817
C36 C 0.0810(6) 0.1095(3) 0.23936(18)
H34 H 0.1518 0.1249 0.2524
H35 H 0.0971 0.0921 0.2114
H36 H 0.0472 0.0726 0.2561
O7 O -0.1725(2) 0.64099(18) 0.15334(10)
H37 H -0.124(4) 0.610(2) 0.150(3)
H38 H -0.148(6) 0.664(3) 0.1738(14)
O8 O -0.3468(2) 0.64101(16) 0.09241(9)
H39 H -0.389(4) 0.674(2) 0.099(2)
H40 H -0.297(4) 0.646(4) 0.1108(16)
loop_
_geom_bond_atom_site_label_1
_geom_bond_atom_site_label_2
_geom_bond_site_symmetry_1
_geom_bond_site_symmetry_2
Zn1 O1 1_555 1_555
O1 C23 1_555 1_555
O2 C23 1_555 1_555
O3 C30 1_555 1_555
O4 C30 1_555 1_555
N1 Zn1 1_555 1_555
N2 H1 1_555 1_555
N3 Zn1 1_555 1_555
N4 H2 1_555 1_555
C1 N1 1_555 1_555
C2 C1 1_555 1_555
H3 C2 1_555 1_555
C3 C2 1_555 1_555
H4 C3 1_555 1_555
C4 C3 1_555 1_555
H5 C4 1_555 1_555
C5 C4 1_555 1_555
H6 C5 1_555 1_555
C6 N2 1_555 1_555
C7 N1 1_555 1_555
C8 C7 1_555 1_555
H7 C8 1_555 1_555
H8 C8 1_555 1_555
C9 C8 1_555 1_555
C10 C9 1_555 1_555
H9 C10 1_555 1_555
C11 C10 1_555 1_555
H10 C11 1_555 1_555
C12 C11 1_555 1_555
H11 C12 1_555 1_555
C13 C12 1_555 1_555
H12 C13 1_555 1_555
C14 C9 1_555 1_555
C15 C14 1_555 1_555
H13 C15 1_555 1_555
H14 C15 1_555 1_555
C16 N3 1_555 1_555
C17 N4 1_555 1_555
C18 C17 1_555 1_555
H15 C18 1_555 1_555
C19 C18 1_555 1_555
H16 C19 1_555 1_555
C20 C19 1_555 1_555
H17 C20 1_555 1_555
C21 C20 1_555 1_555
H18 C21 1_555 1_555
C22 N3 1_555 1_555
C23 C24 1_555 1_555
C24 C25 1_555 1_555
C25 H19 1_555 1_555
C26 C25 1_555 1_555
H20 C26 1_555 1_555
C27 C24 1_555 1_555
H21 C27 1_555 1_555
C28 C27 1_555 1_555
H22 C28 1_555 1_555
C29 C26 1_555 1_555
C30 C29 1_555 1_555
O5 C31 1_555 1_555
N5 C31 1_555 1_555
C31 H23 1_555 1_555
C32 N5 1_555 1_555
H24 C32 1_555 1_555
H25 C32 1_555 1_555
H26 C32 1_555 1_555
C33 N5 1_555 1_555
H27 C33 1_555 1_555
H28 C33 1_555 1_555
H29 C33 1_555 1_555
O6 C34 1_555 1_555
N6 C34 1_555 1_555
C34 H30 1_555 1_555
C35 N6 1_555 1_555
H31 C35 1_555 1_555
H32 C35 1_555 1_555
H33 C35 1_555 1_555
C36 N6 1_555 1_555
H34 C36 1_555 1_555
H35 C36 1_555 1_555
H36 C36 1_555 1_555
O7 H37 1_555 1_555
H38 O7 1_555 1_555
O8 H39 1_555 1_555
H40 O8 1_555 1_555
Zn1F O3 1_555 1_555
O3F Zn1 1_555 1_555
N2 C7 1_555 1_555
N4 C16 1_555 1_555
C1 C6 1_555 1_555
C5 C6 1_555 1_555
C13 C14 1_555 1_555
C15 C16 1_555 1_555
C17 C22 1_555 1_555
C21 C22 1_555 1_555
C28 C29 1_555 1_555

#END
