
#######################################################################
#
#                 Cambridge Crystallographic Data Centre
#                                CCDC 
#
#######################################################################
#
# If this CIF has been generated from an entry in the Cambridge 
# Structural Database, then it will include bibliographic, chemical, 
# crystal, experimental, refinement or atomic coordinate data resulting 
# from the CCDC's data processing and validation procedures.
#
#######################################################################

data_FUDZIP
_symmetry_cell_setting           monoclinic
_symmetry_space_group_name_H-M   'C 2/c'
_symmetry_Int_Tables_number      15
_space_group_name_Hall           '-C 2yn'
loop_
_symmetry_equiv_pos_site_id
_symmetry_equiv_pos_as_xyz
1 x,y,z
2 -x,y,1/2-z
3 1/2+x,1/2+y,z
4 1/2-x,1/2+y,1/2-z
5 -x,-y,-z
6 x,-y,1/2+z
7 1/2-x,1/2-y,-z
8 1/2+x,1/2-y,1/2+z
_cell_length_a                   34.738(2)
_cell_length_b                   10.8736(7)
_cell_length_c                   18.1977(14)
_cell_angle_alpha                90
_cell_angle_beta                 112.211(6)
_cell_angle_gamma                90
_cell_volume                     6363.72
loop_
_atom_site_label
_atom_site_type_symbol
_atom_site_fract_x
_atom_site_fract_y
_atom_site_fract_z
Yb1 Yb 0.37322(3) -0.08537(7) 0.52161(5)
O1 O 0.3947(3) 0.1124(9) 0.1528(6)
O2 O 0.4395(4) 0.2721(13) 0.1910(7)
O3 O 0.3399(3) 0.0735(10) 0.4361(6)
O4 O 0.3048(4) 0.0069(10) 0.3028(7)
O5 O 0.2803(4) 0.1823(11) 0.3545(8)
O6 O 0.3473(4) 0.5979(12) 0.3588(10)
O7 O 0.4083(7) 0.6227(14) 0.3273(12)
O8 O 0.4150(4) 0.5552(12) 0.4563(8)
O9 O 0.3457(4) -0.1757(10) 0.4006(6)
H1 H 0.3260 -0.1959 0.4192
H2 H 0.3550 -0.1268 0.3705
O10 O 0.4203(4) -0.2383(10) 0.5392(7)
H3 H 0.4197 -0.2749 0.5831
H4 H 0.4447 -0.2273 0.5798
N1 N 0.4242(4) -0.0141(12) 0.4624(8)
N2 N 0.4112(4) 0.1021(13) 0.5804(7)
N3 N 0.3332(4) -0.2668(12) 0.5472(7)
N4 N 0.3126(5) -0.0253(13) 0.5530(9)
S1 S 0.31539(12) 0.1106(3) 0.3568(2)
S2 S 0.38933(18) 0.5567(4) 0.3723(3)
C1 C 0.4111(5) 0.2083(15) 0.1970(10)
C2 C 0.3923(5) 0.2408(14) 0.2570(8)
C3 C 0.4004(6) 0.3632(15) 0.2869(9)
H5 H 0.4172 0.4152 0.2715
C4 C 0.3671(5) 0.1651(15) 0.2780(9)
H6 H 0.3620 0.0854 0.2580
C5 C 0.3490(5) 0.2079(14) 0.3300(9)
C6 C 0.3560(6) 0.3235(15) 0.3585(10)
H7 H 0.3430 0.3509 0.3916
C7 C 0.3826(6) 0.4039(17) 0.3394(11)
C8 C 0.4307(5) -0.0731(17) 0.4036(9)
H8 H 0.4172 -0.1477 0.3869
C9 C 0.4568(6) -0.0306(19) 0.3652(12)
H9 H 0.4621 -0.0769 0.3270
C10 C 0.4741(6) 0.086(2) 0.3887(11)
H10 H 0.4903 0.1203 0.3633
C11 C 0.4679(6) 0.1539(17) 0.4487(12)
C12 C 0.4418(5) 0.0994(16) 0.4838(9)
C13 C 0.4353(6) 0.1577(15) 0.5466(11)
C14 C 0.4547(6) 0.2753(16) 0.5727(13)
C15 C 0.4813(7) 0.3250(19) 0.5371(15)
H11 H 0.4961 0.3967 0.5571
C16 C 0.4850(6) 0.2697(17) 0.4762(13)
H12 H 0.4997 0.3094 0.4498
C17 C 0.4499(7) 0.3275(16) 0.6395(13)
H13 H 0.4639 0.3996 0.6614
C18 C 0.4249(8) 0.2731(19) 0.6722(12)
H14 H 0.4203 0.3093 0.7145
C19 C 0.4065(7) 0.1627(17) 0.6406(11)
H15 H 0.3893 0.1269 0.6632
C20 C 0.3027(6) 0.0907(18) 0.5574(10)
H16 H 0.3158 0.1516 0.5396
C21 C 0.2729(7) 0.125(2) 0.5881(12)
H17 H 0.2653 0.2070 0.5862
C22 C 0.2543(6) 0.040(2) 0.6212(11)
H18 H 0.2350 0.0636 0.6425
C23 C 0.2662(5) -0.083(2) 0.6209(8)
C24 C 0.2952(5) -0.1134(16) 0.5823(10)
C25 C 0.3063(5) -0.2417(17) 0.5817(10)
C26 C 0.2877(6) -0.3354(18) 0.6128(12)
C27 C 0.2604(6) -0.293(2) 0.6486(11)
H19 H 0.2498 -0.3519 0.6727
C28 C 0.2481(5) -0.178(2) 0.6519(11)
H20 H 0.2283 -0.1605 0.6735
C29 C 0.2991(7) -0.4551(18) 0.6071(14)
H21 H 0.2878 -0.5193 0.6263
C30 C 0.3283(7) -0.4795(17) 0.5715(12)
H22 H 0.3372 -0.5593 0.5683
C31 C 0.3426(6) -0.3856(14) 0.5429(10)
H23 H 0.3607 -0.4036 0.5177
Yb1E Yb 0.37322(3) 0.08537(7) 0.02161(5)
O1E O 0.3947(3) -0.1124(9) 0.6528(6)
O11 O 0.5000 0.553(2) 0.7500
H24 H 0.4993 0.5800 0.7006
H24A H 0.5007 0.5800 0.7994
loop_
_geom_bond_atom_site_label_1
_geom_bond_atom_site_label_2
_geom_bond_site_symmetry_1
_geom_bond_site_symmetry_2
Yb1 O3 1_555 1_555
O1 C1 1_555 1_555
O2 C1 1_555 1_555
O3 S1 1_555 1_555
O4 S1 1_555 1_555
O5 S1 1_555 1_555
O6 S2 1_555 1_555
O7 S2 1_555 1_555
O8 S2 1_555 1_555
O9 Yb1 1_555 1_555
H1 O9 1_555 1_555
H2 O9 1_555 1_555
O10 Yb1 1_555 1_555
H3 O10 1_555 1_555
H4 O10 1_555 1_555
N1 Yb1 1_555 1_555
N2 Yb1 1_555 1_555
N3 Yb1 1_555 1_555
N4 Yb1 1_555 1_555
S1 C5 1_555 1_555
S2 C7 1_555 1_555
C1 C2 1_555 1_555
C2 C3 1_555 1_555
C3 H5 1_555 1_555
C4 C2 1_555 1_555
H6 C4 1_555 1_555
C5 C4 1_555 1_555
C6 C5 1_555 1_555
H7 C6 1_555 1_555
C7 C3 1_555 1_555
C8 N1 1_555 1_555
H8 C8 1_555 1_555
C9 C8 1_555 1_555
H9 C9 1_555 1_555
C10 C9 1_555 1_555
H10 C10 1_555 1_555
C11 C10 1_555 1_555
C12 N1 1_555 1_555
C13 N2 1_555 1_555
C14 C13 1_555 1_555
C15 C14 1_555 1_555
H11 C15 1_555 1_555
C16 C11 1_555 1_555
H12 C16 1_555 1_555
C17 C14 1_555 1_555
H13 C17 1_555 1_555
C18 C17 1_555 1_555
H14 C18 1_555 1_555
C19 N2 1_555 1_555
H15 C19 1_555 1_555
C20 N4 1_555 1_555
H16 C20 1_555 1_555
C21 C20 1_555 1_555
H17 C21 1_555 1_555
C22 C21 1_555 1_555
H18 C22 1_555 1_555
C23 C22 1_555 1_555
C24 N4 1_555 1_555
C25 N3 1_555 1_555
C26 C25 1_555 1_555
C27 C26 1_555 1_555
H19 C27 1_555 1_555
C28 C23 1_555 1_555
H20 C28 1_555 1_555
C29 C26 1_555 1_555
H21 C29 1_555 1_555
C30 C29 1_555 1_555
H22 C30 1_555 1_555
C31 N3 1_555 1_555
H23 C31 1_555 1_555
O11 H24 1_555 1_555
Yb1E O1 1_555 1_555
O1E Yb1 1_555 1_555
H24A O11 1_555 1_555
C6 C7 1_555 1_555
C11 C12 1_555 1_555
C12 C13 1_555 1_555
C15 C16 1_555 1_555
C18 C19 1_555 1_555
C23 C24 1_555 1_555
C24 C25 1_555 1_555
C27 C28 1_555 1_555
C30 C31 1_555 1_555

#END
