
#######################################################################
#
#                 Cambridge Crystallographic Data Centre
#                                CCDC 
#
#######################################################################
#
# If this CIF has been generated from an entry in the Cambridge 
# Structural Database, then it will include bibliographic, chemical, 
# crystal, experimental, refinement or atomic coordinate data resulting 
# from the CCDC's data processing and validation procedures.
#
#######################################################################

data_FUFFES
_symmetry_cell_setting           monoclinic
_symmetry_space_group_name_H-M   'P 21/n'
_symmetry_Int_Tables_number      14
_space_group_name_Hall           '-P 2yn'
loop_
_symmetry_equiv_pos_site_id
_symmetry_equiv_pos_as_xyz
1 x,y,z
2 1/2-x,1/2+y,1/2-z
3 -x,-y,-z
4 1/2+x,1/2-y,1/2+z
_cell_length_a                   10.497(2)
_cell_length_b                   16.728(3)
_cell_length_c                   12.857(3)
_cell_angle_alpha                90
_cell_angle_beta                 94.14(3)
_cell_angle_gamma                90
_cell_volume                     2251.72
loop_
_atom_site_label
_atom_site_type_symbol
_atom_site_fract_x
_atom_site_fract_y
_atom_site_fract_z
Cu1 Cu 0.1717(2) 0.2424(1) 0.7144(1)
V1 V 0.3813(2) 0.4085(1) 0.5801(2)
V2 V -0.0323(2) 0.0724(1) 0.8325(2)
O1 O 0.3057(11) 0.3393(5) 0.6337(6)
O2 O 0.0636(9) 0.1412(5) 0.7902(8)
O3 O -0.1578(9) 0.0679(6) 0.7466(10)
O4 O 0.4240(20) 0.3969(7) 0.4574(9)
O5 O 0.4647(16) 0.4770(6) 0.6645(9)
O6 O 0.2561(13) 0.4715(8) 0.5468(14)
O7 O 0.5080(30) 0.3430(20) 0.6050(30)
N1 N 0.3384(9) 0.1867(5) 0.7669(7)
N2 N 0.5643(14) 0.1098(10) 0.8188(12)
N3 N 0.1692(10) 0.1793(5) 0.5783(8)
N4 N 0.1640(20) 0.0934(8) 0.3966(14)
N5 N 0.1719(9) 0.3112(5) 0.8471(7)
N6 N 0.1582(15) 0.4073(9) 1.0202(12)
N7 N 0.0054(10) 0.2991(6) 0.6605(8)
N8 N -0.2103(13) 0.3836(8) 0.5957(10)
C1 C 0.4447(13) 0.2283(8) 0.7953(10)
C2 C 0.5601(14) 0.1903(9) 0.8209(11)
C3 C 0.4565(15) 0.0638(8) 0.7922(12)
C4 C 0.3480(13) 0.1050(7) 0.7671(11)
C5 C 0.2740(15) 0.1787(7) 0.5222(10)
C6 C 0.2795(18) 0.1355(8) 0.4309(12)
C7 C 0.0615(18) 0.0943(9) 0.4513(13)
C8 C 0.0670(15) 0.1374(8) 0.5430(12)
C9 C 0.2008(15) 0.3896(8) 0.8443(11)
C10 C 0.1932(19) 0.4389(9) 0.9288(12)
C11 C 0.1318(16) 0.3283(10) 1.0250(10)
C12 C 0.1369(15) 0.2806(8) 0.9379(10)
C13 C 0.0113(15) 0.3553(8) 0.5903(11)
C14 C -0.0952(15) 0.4013(8) 0.5552(12)
C15 C -0.2155(13) 0.3227(9) 0.6677(12)
C16 C -0.1044(14) 0.2808(8) 0.6971(12)
V2C V 0.4677(2) 0.4276(1) 0.3325(2)
V2A V 0.5323(2) 0.5724(1) 0.6675(2)
O4C O -0.0760(20) 0.1031(7) 0.9574(9)
O5A O 0.0353(16) -0.0230(6) 0.8355(9)
loop_
_geom_bond_atom_site_label_1
_geom_bond_atom_site_label_2
_geom_bond_site_symmetry_1
_geom_bond_site_symmetry_2
Cu1 O1 1_555 1_555
V1 O1 1_555 1_555
V2 O2 1_555 1_555
O2 Cu1 1_555 1_555
O3 V2 1_555 1_555
O4 V1 1_555 1_555
O5 V1 1_555 1_555
O6 V1 1_555 1_555
O7 V1 1_555 1_555
N1 Cu1 1_555 1_555
N2 C2 1_555 1_555
N3 Cu1 1_555 1_555
N4 C6 1_555 1_555
N5 Cu1 1_555 1_555
N6 C10 1_555 1_555
N7 Cu1 1_555 1_555
N8 C14 1_555 1_555
C1 N1 1_555 1_555
C2 C1 1_555 1_555
C3 N2 1_555 1_555
C4 N1 1_555 1_555
C5 N3 1_555 1_555
C6 C5 1_555 1_555
C7 N4 1_555 1_555
C8 N3 1_555 1_555
C9 N5 1_555 1_555
C10 C9 1_555 1_555
C11 N6 1_555 1_555
C12 N5 1_555 1_555
C13 N7 1_555 1_555
C14 C13 1_555 1_555
C15 N8 1_555 1_555
C16 N7 1_555 1_555
V2C O4 1_555 1_555
V2A O5 1_555 1_555
O4C V2 1_555 1_555
O5A V2 1_555 1_555
C3 C4 1_555 1_555
C7 C8 1_555 1_555
C11 C12 1_555 1_555
C15 C16 1_555 1_555

#END
