
#######################################################################
#
#                 Cambridge Crystallographic Data Centre
#                                CCDC 
#
#######################################################################
#
# If this CIF has been generated from an entry in the Cambridge 
# Structural Database, then it will include bibliographic, chemical, 
# crystal, experimental, refinement or atomic coordinate data resulting 
# from the CCDC's data processing and validation procedures.
#
#######################################################################

data_FUFGUJ
_symmetry_cell_setting           monoclinic
_symmetry_space_group_name_H-M   'P 21/n'
_symmetry_Int_Tables_number      14
_space_group_name_Hall           '-P 2yn'
loop_
_symmetry_equiv_pos_site_id
_symmetry_equiv_pos_as_xyz
1 x,y,z
2 1/2-x,1/2+y,1/2-z
3 -x,-y,-z
4 1/2+x,1/2-y,1/2+z
_cell_length_a                   8.7996(19)
_cell_length_b                   14.920(3)
_cell_length_c                   9.3771(19)
_cell_angle_alpha                90
_cell_angle_beta                 108.615(4)
_cell_angle_gamma                90
_cell_volume                     1166.71
loop_
_atom_site_label
_atom_site_type_symbol
_atom_site_fract_x
_atom_site_fract_y
_atom_site_fract_z
Mn1 Mn 0.5000 0.0000 0.5000
N1 N 0.5182(4) -0.0912(2) 0.3284(4)
N2 N 0.4538(4) -0.1320(3) 0.0873(4)
N3 N 0.3087(5) 0.0462(3) 0.2787(5)
N4 N 0.6093(4) -0.1639(2) 0.3245(4)
C1 C 0.6422(5) -0.2625(3) 0.1303(5)
C2 C 0.5659(5) -0.1860(3) 0.1793(5)
C3 C 0.4271(5) -0.0747(3) 0.1867(5)
N5 N 0.8123(5) -0.4034(3) 0.0505(5)
C4 C 0.3141(5) 0.0010(3) 0.1555(6)
C5 C 0.8225(6) -0.3862(3) 0.1930(6)
H1 H 0.8891 -0.4226 0.2675
C6 C 0.7418(5) -0.3188(3) 0.2370(5)
H2 H 0.7539 -0.3109 0.3384
C7 C 0.6260(6) -0.2809(4) -0.0189(6)
H3 H 0.5574 -0.2466 -0.0955
C8 C 0.2221(6) 0.0257(4) 0.0129(6)
H4 H 0.2288 -0.0057 -0.0705
C9 C 0.2082(7) 0.1154(3) 0.2595(7)
H5 H 0.2032 0.1463 0.3440
C10 C 0.7115(7) -0.3498(4) -0.0531(6)
H6 H 0.6993 -0.3602 -0.1539
C11 C 0.1191(7) 0.0983(4) -0.0051(7)
H7 H 0.0564 0.1163 -0.1008
C12 C 0.1109(7) 0.1431(4) 0.1194(8)
H8 H 0.0414 0.1913 0.1101
Mn1A Mn 1.0000 -0.5000 0.0000
Mn1A_2 Mn 0.0000 0.5000 1.0000
N1B N 0.4818(4) 0.0912(2) 0.6716(4)
N2B N 0.5462(4) 0.1320(3) 0.9127(4)
N3B N 0.6913(5) -0.0462(3) 0.7213(5)
N4B N 0.3907(4) 0.1639(2) 0.6755(4)
C1B C 0.3578(5) 0.2625(3) 0.8697(5)
C2B C 0.4341(5) 0.1860(3) 0.8207(5)
C3B C 0.5729(5) 0.0747(3) 0.8133(5)
N5B N 0.1877(5) 0.4034(3) 0.9495(5)
N5A N 0.6877(5) 0.0966(3) 0.4495(5)
N5C N 0.3123(5) -0.0966(3) 0.5505(5)
C4B C 0.6859(5) -0.0010(3) 0.8445(6)
C5B C 0.1775(6) 0.3862(3) 0.8070(6)
H1B H 0.1109 0.4226 0.7325
C6B C 0.2582(5) 0.3188(3) 0.7630(5)
H2B H 0.2461 0.3109 0.6616
C7B C 0.3740(6) 0.2809(4) 1.0189(6)
H3B H 0.4426 0.2466 1.0955
C8B C 0.7779(6) -0.0257(4) 0.9871(6)
H4B H 0.7712 0.0057 1.0705
C9B C 0.7918(7) -0.1154(3) 0.7405(7)
H5B H 0.7968 -0.1463 0.6560
C10B C 0.2885(7) 0.3498(4) 1.0531(6)
H6B H 0.3007 0.3602 1.1539
C11B C 0.8809(7) -0.0983(4) 1.0051(7)
H7B H 0.9436 -0.1163 1.1008
C12B C 0.8891(7) -0.1431(4) 0.8806(8)
H8B H 0.9586 -0.1913 0.8899
loop_
_geom_bond_atom_site_label_1
_geom_bond_atom_site_label_2
_geom_bond_site_symmetry_1
_geom_bond_site_symmetry_2
Mn1 N1 1_555 1_555
N1 N4 1_555 1_555
N2 C2 1_555 1_555
N3 Mn1 1_555 1_555
N4 C2 1_555 1_555
C1 C2 1_555 1_555
C3 N1 1_555 1_555
N5 C5 1_555 1_555
C4 N3 1_555 1_555
C5 H1 1_555 1_555
C6 C1 1_555 1_555
H2 C6 1_555 1_555
C7 C1 1_555 1_555
H3 C7 1_555 1_555
C8 C4 1_555 1_555
H4 C8 1_555 1_555
C9 N3 1_555 1_555
H5 C9 1_555 1_555
C10 N5 1_555 1_555
H6 C10 1_555 1_555
C11 C8 1_555 1_555
H7 C11 1_555 1_555
C12 C9 1_555 1_555
H8 C12 1_555 1_555
Mn1A N5 1_555 1_555
Mn1A_2 N5B 1_555 1_555
N1B Mn1 1_555 1_555
N2B C2B 1_555 1_555
N3B Mn1 1_555 1_555
N4B N1B 1_555 1_555
C1B C2B 1_555 1_555
C2B N4B 1_555 1_555
C3B N1B 1_555 1_555
N5B C5B 1_555 1_555
N5A Mn1 1_555 1_555
N5C Mn1 1_555 1_555
C4B N3B 1_555 1_555
C5B H1B 1_555 1_555
C6B C1B 1_555 1_555
H2B C6B 1_555 1_555
C7B C1B 1_555 1_555
H3B C7B 1_555 1_555
C8B C4B 1_555 1_555
H4B C8B 1_555 1_555
C9B N3B 1_555 1_555
H5B C9B 1_555 1_555
C10B N5B 1_555 1_555
H6B C10B 1_555 1_555
C11B C8B 1_555 1_555
H7B C11B 1_555 1_555
C12B C9B 1_555 1_555
H8B C12B 1_555 1_555
N2 C3 1_555 1_555
C3 C4 1_555 1_555
C5 C6 1_555 1_555
C7 C10 1_555 1_555
C11 C12 1_555 1_555
N2B C3B 1_555 1_555
C3B C4B 1_555 1_555
C5B C6B 1_555 1_555
C7B C10B 1_555 1_555
C11B C12B 1_555 1_555

#END
