
#######################################################################
#
#                 Cambridge Crystallographic Data Centre
#                                CCDC 
#
#######################################################################
#
# If this CIF has been generated from an entry in the Cambridge 
# Structural Database, then it will include bibliographic, chemical, 
# crystal, experimental, refinement or atomic coordinate data resulting 
# from the CCDC's data processing and validation procedures.
#
#######################################################################

data_FUFHEU
_symmetry_cell_setting           monoclinic
_symmetry_space_group_name_H-M   'P 21/c'
_symmetry_Int_Tables_number      14
_space_group_name_Hall           '-P 2ybc'
loop_
_symmetry_equiv_pos_site_id
_symmetry_equiv_pos_as_xyz
1 x,y,z
2 -x,1/2+y,1/2-z
3 -x,-y,-z
4 x,1/2-y,1/2+z
_cell_length_a                   26.242(3)
_cell_length_b                   14.3317(17)
_cell_length_c                   15.2038(17)
_cell_angle_alpha                90
_cell_angle_beta                 106.611(2)
_cell_angle_gamma                90
_cell_volume                     5479.41
loop_
_atom_site_label
_atom_site_type_symbol
_atom_site_fract_x
_atom_site_fract_y
_atom_site_fract_z
Mn1 Mn -0.11254(3) 0.26059(4) 0.35121(5)
Mn2 Mn -0.38621(3) 0.76911(4) -0.01798(4)
N1 N -0.07759(15) 0.1546(2) 0.4666(2)
N2 N -0.17307(14) 0.1505(2) 0.3348(2)
N3 N -0.21753(14) 0.1258(2) 0.2675(3)
N4 N -0.18507(15) -0.0025(2) 0.3517(3)
N5 N -0.34017(15) -0.1368(2) 0.0994(3)
N6 N -0.14270(15) 0.3498(2) 0.4527(3)
N7 N -0.05972(14) 0.3829(2) 0.3880(2)
N8 N -0.02242(15) 0.4197(2) 0.3507(3)
N9 N -0.06297(15) 0.5391(2) 0.4007(3)
N10 N 0.06726(15) 0.6855(2) 0.2356(3)
N11 N -0.32349(14) 0.8159(2) -0.0889(3)
N12 N -0.31964(14) 0.6686(2) 0.0253(2)
N13 N -0.30638(15) 0.5907(2) 0.0789(3)
N14 N -0.23435(15) 0.6346(2) 0.0356(3)
N15 N -0.16532(15) 0.3473(2) 0.2345(3)
N16 N -0.45199(15) 0.7536(2) 0.0528(2)
N17 N -0.44244(14) 0.8806(2) -0.0755(2)
N18 N -0.45030(15) 0.9447(2) -0.1447(3)
N19 N -0.52616(15) 0.9335(2) -0.1029(3)
N20 N -0.57180(15) 1.1702(2) -0.3675(2)
C1 C -0.03205(19) 0.1608(3) 0.5344(3)
H1 H -0.0129 0.2179 0.5421
C2 C -0.0116(2) 0.0876(3) 0.5938(3)
H2 H 0.0206 0.0944 0.6415
C3 C -0.0395(2) 0.0045(3) 0.5816(3)
H3 H -0.0264 -0.0470 0.6210
C4 C -0.0862(2) -0.0033(3) 0.5123(3)
H4 H -0.1053 -0.0605 0.5026
C5 C -0.10531(19) 0.0735(3) 0.4562(3)
C6 C -0.15473(18) 0.0728(3) 0.3833(3)
C7 C -0.22283(18) 0.0348(3) 0.2810(3)
C8 C -0.26538(18) -0.0213(3) 0.2209(3)
C9 C -0.26970(19) -0.1163(3) 0.2381(3)
H5 H -0.2472 -0.1437 0.2923
C10 C -0.30637(19) -0.1698(3) 0.1771(3)
H6 H -0.3081 -0.2343 0.1904
C11 C -0.33785(18) -0.0438(3) 0.0845(3)
H7 H -0.3622 -0.0177 0.0315
C12 C -0.30167(18) 0.0147(3) 0.1428(3)
H8 H -0.3016 0.0795 0.1297
C13 C -0.17908(19) 0.3252(3) 0.4957(3)
H9 H -0.1913 0.2625 0.4912
C14 C -0.1993(2) 0.3882(3) 0.5464(3)
H10 H -0.2235 0.3685 0.5787
C15 C -0.18332(19) 0.4801(3) 0.5488(3)
H11 H -0.1982 0.5255 0.5799
C16 C -0.14572(18) 0.5058(3) 0.5060(3)
H12 H -0.1339 0.5686 0.5081
C17 C -0.12551(17) 0.4389(3) 0.4600(3)
C18 C -0.08294(18) 0.4562(3) 0.4170(3)
C19 C -0.02592(18) 0.5118(3) 0.3597(3)
C20 C 0.00656(18) 0.5745(3) 0.3211(3)
C21 C 0.05247(18) 0.5400(3) 0.3032(3)
H13 H 0.0636 0.4777 0.3192
C22 C 0.08137(18) 0.5965(3) 0.2626(3)
H14 H 0.1130 0.5720 0.2528
C23 C 0.02376(19) 0.7184(3) 0.2550(3)
H15 H 0.0134 0.7809 0.2384
C24 C -0.00693(18) 0.6669(3) 0.2978(3)
H16 H -0.0368 0.6943 0.3111
C25 C -0.32775(19) 0.8870(3) -0.1482(3)
H17 H -0.3606 0.9193 -0.1685
C26 C -0.2860(2) 0.9150(3) -0.1807(3)
H18 H -0.2904 0.9650 -0.2232
C27 C -0.2380(2) 0.8695(3) -0.1508(3)
H19 H -0.2088 0.8886 -0.1715
C28 C -0.23268(18) 0.7952(3) -0.0897(3)
H20 H -0.2000 0.7625 -0.0683
C29 C -0.27646(18) 0.7703(3) -0.0610(3)
C30 C -0.27577(17) 0.6920(3) 0.0015(3)
C31 C -0.25562(18) 0.5726(3) 0.0834(3)
C32 C -0.22583(18) 0.4942(3) 0.1325(3)
C33 C -0.17144(19) 0.4882(3) 0.1462(3)
H21 H -0.1536 0.5344 0.1213
C34 C -0.1431(2) 0.4147(3) 0.1963(3)
H22 H -0.1059 0.4118 0.2041
C35 C -0.21850(18) 0.3514(3) 0.2193(3)
H23 H -0.2354 0.3036 0.2441
C36 C -0.24935(19) 0.4214(3) 0.1696(3)
H24 H -0.2867 0.4208 0.1602
C37 C -0.45414(19) 0.6956(3) 0.1197(3)
H25 H -0.4252 0.6541 0.1430
C38 C -0.49613(19) 0.6923(3) 0.1571(3)
H26 H -0.4959 0.6502 0.2054
C39 C -0.53915(19) 0.7525(3) 0.1222(3)
H27 H -0.5689 0.7516 0.1459
C40 C -0.53742(18) 0.8125(3) 0.0533(3)
H28 H -0.5661 0.8542 0.0287
C41 C -0.49395(17) 0.8126(3) 0.0195(3)
C42 C -0.48852(17) 0.8761(3) -0.0530(3)
C43 C -0.50015(17) 0.9738(3) -0.1574(3)
C44 C -0.52464(18) 1.0414(3) -0.2293(3)
C45 C -0.57641(19) 1.0711(3) -0.2438(3)
H29 H -0.5969 1.0485 -0.2060
C46 C -0.59820(19) 1.1334(3) -0.3129(3)
H30 H -0.6342 1.1513 -0.3223
C47 C -0.52110(18) 1.1418(3) -0.3529(3)
H31 H -0.5011 1.1672 -0.3904
C48 C -0.49675(19) 1.0781(3) -0.2867(3)
H32 H -0.4611 1.0593 -0.2802
Mn1A Mn 0.11254(3) 0.76059(4) 0.14879(5)
Mn2_2 Mn -0.38621(3) -0.23089(4) -0.01798(4)
Mn2A Mn -0.61379(3) 1.26911(4) -0.48202(4)
N5_2 N -0.34017(15) 0.8632(2) 0.0994(3)
N10A N -0.06726(15) 0.1855(2) 0.2644(3)
N20A N -0.42820(15) 0.6702(2) -0.1325(2)
C49 C 0.6705(4) 0.1693(6) 0.3611(8)
C50 C 0.6856(5) 0.2498(6) 0.4134(8)
H33 H 0.7051 0.2432 0.4761
C51 C 0.6735(5) 0.3394(8) 0.3783(9)
H34 H 0.6823 0.3937 0.4153
C52 C 0.6467(5) 0.3430(7) 0.2822(8)
H35 H 0.6393 0.4026 0.2542
C53 C 0.6309(5) 0.2654(7) 0.2278(9)
H36 H 0.6131 0.2719 0.1642
C54 C 0.6414(5) 0.1775(8) 0.2675(8)
H37 H 0.6292 0.1232 0.2319
C55 C 0.6880(4) 0.0782(6) 0.4111(7)
H38 H 0.7080 0.0911 0.4749
H39 H 0.7107 0.0441 0.3809
H40 H 0.6567 0.0404 0.4098
O1 O -0.61266(14) 0.9916(2) -0.6206(3)
H41 H -0.6344 1.0315 -0.6109
C56 C -0.5796(2) 0.9610(4) -0.5355(4)
H42 H -0.5536 1.0097 -0.5088
H43 H -0.5610 0.9041 -0.5444
H44 H -0.6013 0.9480 -0.4941
O2 O 0.09402(16) 0.2808(2) 0.5602(3)
H45 H 0.0894 0.3395 0.5606
C57 C 0.0770(3) 0.2618(4) 0.4652(5)
H46 H 0.0485 0.2151 0.4526
H47 H 0.1069 0.2379 0.4454
H48 H 0.0636 0.3193 0.4316
C58 C 0.1487(3) 0.2829(5) 0.2821(6)
H49 H 0.1805 0.3209 0.2883
H50 H 0.1537 0.2213 0.2577
H51 H 0.1425 0.2756 0.3423
O3 O 0.1045(4) 0.3271(7) 0.2217(7)
H52 H 0.1269 0.3198 0.1914
C59? C 0.6516(6) 0.2483(7) 0.2767(7)
C60? C 0.6622(7) 0.1645(10) 0.3247(10)
C61? C 0.6785(5) 0.1672(8) 0.4198(9)
C62? C 0.6832(5) 0.2535(7) 0.4640(9)
C63? C 0.6719(5) 0.3375(8) 0.4214(9)
C64? C 0.6574(6) 0.3328(8) 0.3253(9)
C65? C 0.6327(5) 0.2423(7) 0.1718(7)
H53? H 0.1093 0.3476 0.2821
H54? H 0.6584 0.1067 0.2929
H55? H 0.6864 0.1112 0.4544
H56? H 0.6952 0.2535 0.5291
H57? H 0.6737 0.3945 0.4540
H58? H 0.6512 0.3895 0.2914
H59? H 0.6311 0.1767 0.1530
H60? H 0.6576 0.2761 0.1461
H61? H 0.5972 0.2701 0.1493
O4? O 0.1269(4) 0.3717(8) 0.2489(7)
loop_
_geom_bond_atom_site_label_1
_geom_bond_atom_site_label_2
_geom_bond_site_symmetry_1
_geom_bond_site_symmetry_2
Mn1 N1 1_555 1_555
Mn2 N11 1_555 1_555
N1 C1 1_555 1_555
N2 Mn1 1_555 1_555
N3 N2 1_555 1_555
N4 C6 1_555 1_555
N5 C10 1_555 1_555
N6 Mn1 1_555 1_555
N7 Mn1 1_555 1_555
N8 N7 1_555 1_555
N9 C18 1_555 1_555
N10 C22 1_555 1_555
N11 C25 1_555 1_555
N12 Mn2 1_555 1_555
N13 N12 1_555 1_555
N14 C30 1_555 1_555
N15 Mn1 1_555 1_555
N16 Mn2 1_555 1_555
N17 Mn2 1_555 1_555
N18 N17 1_555 1_555
N19 C42 1_555 1_555
N20 C46 1_555 1_555
C1 H1 1_555 1_555
C2 C1 1_555 1_555
H2 C2 1_555 1_555
C3 C2 1_555 1_555
H3 C3 1_555 1_555
C4 C3 1_555 1_555
H4 C4 1_555 1_555
C5 N1 1_555 1_555
C6 N2 1_555 1_555
C7 N3 1_555 1_555
C8 C7 1_555 1_555
C9 C8 1_555 1_555
H5 C9 1_555 1_555
C10 C9 1_555 1_555
H6 C10 1_555 1_555
C11 N5 1_555 1_555
H7 C11 1_555 1_555
C12 C8 1_555 1_555
H8 C12 1_555 1_555
C13 N6 1_555 1_555
H9 C13 1_555 1_555
C14 C13 1_555 1_555
H10 C14 1_555 1_555
C15 C14 1_555 1_555
H11 C15 1_555 1_555
C16 C15 1_555 1_555
H12 C16 1_555 1_555
C17 N6 1_555 1_555
C18 N7 1_555 1_555
C19 N8 1_555 1_555
C20 C19 1_555 1_555
C21 C20 1_555 1_555
H13 C21 1_555 1_555
C22 C21 1_555 1_555
H14 C22 1_555 1_555
C23 N10 1_555 1_555
H15 C23 1_555 1_555
C24 C20 1_555 1_555
H16 C24 1_555 1_555
C25 H17 1_555 1_555
C26 C25 1_555 1_555
H18 C26 1_555 1_555
C27 C26 1_555 1_555
H19 C27 1_555 1_555
C28 C27 1_555 1_555
H20 C28 1_555 1_555
C29 N11 1_555 1_555
C30 N12 1_555 1_555
C31 N13 1_555 1_555
C32 C31 1_555 1_555
C33 C32 1_555 1_555
H21 C33 1_555 1_555
C34 N15 1_555 1_555
H22 C34 1_555 1_555
C35 N15 1_555 1_555
H23 C35 1_555 1_555
C36 C32 1_555 1_555
H24 C36 1_555 1_555
C37 N16 1_555 1_555
H25 C37 1_555 1_555
C38 C37 1_555 1_555
H26 C38 1_555 1_555
C39 C38 1_555 1_555
H27 C39 1_555 1_555
C40 C39 1_555 1_555
H28 C40 1_555 1_555
C41 N16 1_555 1_555
C42 N17 1_555 1_555
C43 N18 1_555 1_555
C44 C43 1_555 1_555
C45 C44 1_555 1_555
H29 C45 1_555 1_555
C46 C45 1_555 1_555
H30 C46 1_555 1_555
C47 N20 1_555 1_555
H31 C47 1_555 1_555
C48 C44 1_555 1_555
H32 C48 1_555 1_555
C49 C50 1_555 1_555
C50 H33 1_555 1_555
C51 C50 1_555 1_555
H34 C51 1_555 1_555
C52 C51 1_555 1_555
H35 C52 1_555 1_555
C53 C52 1_555 1_555
H36 C53 1_555 1_555
C54 C49 1_555 1_555
H37 C54 1_555 1_555
C55 C49 1_555 1_555
H38 C55 1_555 1_555
H39 C55 1_555 1_555
H40 C55 1_555 1_555
O1 H41 1_555 1_555
C56 O1 1_555 1_555
H42 C56 1_555 1_555
H43 C56 1_555 1_555
H44 C56 1_555 1_555
O2 H45 1_555 1_555
C57 O2 1_555 1_555
H46 C57 1_555 1_555
H47 C57 1_555 1_555
H48 C57 1_555 1_555
C58 H49 1_555 1_555
H50 C58 1_555 1_555
H51 C58 1_555 1_555
O3 C58 1_555 1_555
H52 O3 1_555 1_555
Mn1A N10 1_555 1_555
Mn2_2 N5 1_555 1_555
Mn2A N20 1_555 1_555
N5_2 Mn2 1_555 1_555
N10A Mn1 1_555 1_555
N20A Mn2 1_555 1_555
N4 C7 1_555 1_555
N9 C19 1_555 1_555
N14 C31 1_555 1_555
N19 C43 1_555 1_555
C4 C5 1_555 1_555
C5 C6 1_555 1_555
C11 C12 1_555 1_555
C16 C17 1_555 1_555
C17 C18 1_555 1_555
C23 C24 1_555 1_555
C28 C29 1_555 1_555
C29 C30 1_555 1_555
C33 C34 1_555 1_555
C35 C36 1_555 1_555
C40 C41 1_555 1_555
C41 C42 1_555 1_555
C47 C48 1_555 1_555
C53 C54 1_555 1_555

#END
