
#######################################################################
#
#                 Cambridge Crystallographic Data Centre
#                                CCDC 
#
#######################################################################
#
# If this CIF has been generated from an entry in the Cambridge 
# Structural Database, then it will include bibliographic, chemical, 
# crystal, experimental, refinement or atomic coordinate data resulting 
# from the CCDC's data processing and validation procedures.
#
#######################################################################

data_FUFHAQ
_symmetry_cell_setting           tetragonal
_symmetry_space_group_name_H-M   'P 42/n'
_symmetry_Int_Tables_number      86
_space_group_name_Hall           '-P 4bc'
loop_
_symmetry_equiv_pos_site_id
_symmetry_equiv_pos_as_xyz
1 x,y,z
2 -y,1/2+x,1/2+z
3 1/2-x,1/2-y,z
4 1/2+y,-x,1/2+z
5 -x,-y,-z
6 y,1/2-x,1/2-z
7 1/2+x,1/2+y,-z
8 1/2-y,x,1/2-z
_cell_length_a                   13.7675(8)
_cell_length_b                   13.7675(8)
_cell_length_c                   14.5426(17)
_cell_angle_alpha                90
_cell_angle_beta                 90
_cell_angle_gamma                90
_cell_volume                     2756.46
loop_
_atom_site_label
_atom_site_type_symbol
_atom_site_fract_x
_atom_site_fract_y
_atom_site_fract_z
O1 O 0.3965(5) 1.2021(5) 0.5309(5)
H9 H 0.3541 1.2246 0.5677
H10 H 0.3700 1.1501 0.5120
O2 O 0.2500 1.2500 0.6531(7)
H11 H 0.2625 1.3025 0.6815
H11B H 0.2375 1.1975 0.6815
N6 N 0.2500 1.2500 0.2500
O3 O 0.340(2) 1.3259(19) 0.3558(18)
C13 C 0.3152(15) 1.3231(15) 0.286(2)
C14 C 0.218(3) 1.250(4) 0.1562(18)
C15 C 0.211(2) 1.1738(15) 0.3090(19)
O3B O 0.160(2) 1.1741(19) 0.3558(18)
O3E O 0.3259(19) 1.160(2) 0.1442(18)
O3G O 0.1741(19) 1.340(2) 0.1442(18)
C13B C 0.1848(15) 1.1769(15) 0.286(2)
C13E C 0.3231(15) 1.1848(15) 0.214(2)
C13G C 0.1769(15) 1.3152(15) 0.214(2)
C14E C 0.250(4) 1.282(3) 0.3438(18)
C14G C 0.250(4) 1.218(3) 0.3438(18)
C14B C 0.282(3) 1.250(4) 0.1562(18)
C15B C 0.289(2) 1.3262(15) 0.3090(19)
C15E C 0.1738(15) 1.289(2) 0.1910(19)
C15G C 0.3262(15) 1.211(2) 0.1910(19)
Mn1 Mn 0.2500 1.7500 0.36753(7)
C1 C 0.4015(4) 1.6523(4) 0.5161(4)
H1 H 0.4376 1.7084 0.5062
C2 C 0.4383(5) 1.5833(5) 0.5742(5)
H2 H 0.4972 1.5929 0.6043
C3 C 0.3863(5) 1.5000(5) 0.5869(5)
H3 H 0.4098 1.4514 0.6253
C4 C 0.2986(4) 1.4881(4) 0.5424(4)
H4 H 0.2623 1.4318 0.5506
C5 C 0.2660(3) 1.5608(4) 0.4859(4)
C6 C 0.1740(3) 1.5550(3) 0.4346(3)
C7 C 0.0472(4) 1.5111(3) 0.3693(3)
C8 C -0.0322(3) 1.4522(3) 0.3314(4)
C9 C -0.1106(4) 1.4943(4) 0.2875(4)
H5 H -0.1180 1.5614 0.2876
C10 C -0.1777(4) 1.4366(4) 0.2436(4)
H6 H -0.2299 1.4668 0.2147
C11 C -0.0990(5) 1.3002(4) 0.2864(5)
H7 H -0.0949 1.2328 0.2880
C12 C -0.0291(5) 1.3522(4) 0.3324(5)
H8 H 0.0201 1.3201 0.3639
N1 N 0.3165(3) 1.6433(3) 0.4728(3)
N2 N 0.1174(3) 1.4767(3) 0.4253(3)
N3 N 0.0584(3) 1.6037(3) 0.3449(3)
N4 N 0.1423(3) 1.6318(3) 0.3880(3)
N5 N -0.1721(3) 1.3395(3) 0.2400(3)
Mn1E Mn 0.7500 1.2500 0.13247(7)
Mn1E_2 Mn -0.2500 1.2500 0.13247(7)
Mn1E_3 Mn 0.7500 2.2500 0.13247(7)
Mn1E_4 Mn -0.2500 2.2500 0.13247(7)
C1E C 0.6523(4) 1.0985(4) -0.0161(4)
C1B C 0.0985(4) 1.8477(4) 0.5161(4)
C1G C -0.1523(4) 2.4015(4) -0.0161(4)
H1E H 0.7084 1.0624 -0.0062
H1B H 0.0624 1.7916 0.5062
H1G H -0.2084 2.4376 -0.0062
C2E C 0.5833(5) 1.0617(5) -0.0742(5)
C2B C 0.0617(5) 1.9167(5) 0.5742(5)
C2G C -0.0833(5) 2.4383(5) -0.0742(5)
H2E H 0.5929 1.0028 -0.1043
H2B H 0.0028 1.9071 0.6043
H2G H -0.0929 2.4972 -0.1043
C3E C 0.5000(5) 1.1137(5) -0.0869(5)
C3B C 0.1137(5) 2.0000(5) 0.5869(5)
C3G C 0.0000(5) 2.3863(5) -0.0869(5)
H3E H 0.4514 1.0902 -0.1253
H3B H 0.0902 2.0486 0.6253
H3G H 0.0486 2.4098 -0.1253
C4E C 0.4881(4) 1.2014(4) -0.0424(4)
C4B C 0.2014(4) 2.0119(4) 0.5424(4)
C4G C 0.0119(4) 2.2986(4) -0.0424(4)
H4E H 0.4318 1.2377 -0.0506
H4B H 0.2377 2.0682 0.5506
H4G H 0.0682 2.2623 -0.0506
C5E C 0.5608(4) 1.2340(3) 0.0141(4)
C5B C 0.2340(3) 1.9392(4) 0.4859(4)
C5G C -0.0608(4) 2.2660(3) 0.0141(4)
C6E C 0.5550(3) 1.3260(3) 0.0654(3)
C6B C 0.3260(3) 1.9450(3) 0.4346(3)
C6G C -0.0550(3) 2.1740(3) 0.0654(3)
C7E C 0.5111(3) 1.4528(4) 0.1307(3)
C7B C 0.4528(4) 1.9889(3) 0.3693(3)
C7G C -0.0111(3) 2.0472(4) 0.1307(3)
C8E C 0.4522(3) 1.5322(3) 0.1686(4)
C8B C 0.5322(3) 2.0478(3) 0.3314(4)
C8G C 0.0478(3) 1.9678(3) 0.1686(4)
C9E C 0.4943(4) 1.6106(4) 0.2125(4)
C9B C 0.6106(4) 2.0057(4) 0.2875(4)
C9G C 0.0057(4) 1.8894(4) 0.2125(4)
H5E H 0.5614 1.6180 0.2124
H5B H 0.6180 1.9386 0.2876
H5G H -0.0614 1.8820 0.2124
C10E C 0.4366(4) 1.6777(4) 0.2564(4)
C10B C 0.6777(4) 2.0634(4) 0.2436(4)
C10G C 0.0634(4) 1.8223(4) 0.2564(4)
H6E H 0.4668 1.7299 0.2853
H6B H 0.7299 2.0332 0.2147
H6G H 0.0332 1.7701 0.2853
C11E C 0.3002(4) 1.5990(5) 0.2136(5)
C11B C 0.5990(5) 2.1998(4) 0.2864(5)
C11G C 0.1998(4) 1.9010(5) 0.2136(5)
H7E H 0.2328 1.5949 0.2120
H7B H 0.5949 2.2672 0.2880
H7G H 0.2672 1.9051 0.2120
C12E C 0.3522(4) 1.5291(5) 0.1676(5)
C12B C 0.5291(5) 2.1478(4) 0.3324(5)
C12G C 0.1478(4) 1.9709(5) 0.1676(5)
H8E H 0.3201 1.4799 0.1361
H8B H 0.4799 2.1799 0.3639
H8G H 0.1799 2.0201 0.1361
N1E N 0.6433(3) 1.1835(3) 0.0272(3)
N1B N 0.1835(3) 1.8567(3) 0.4728(3)
N1G N -0.1433(3) 2.3165(3) 0.0272(3)
N1G_2 N 0.8567(3) 1.3165(3) 0.0272(3)
N2E N 0.4767(3) 1.3826(3) 0.0747(3)
N2B N 0.3826(3) 2.0233(3) 0.4253(3)
N2G N 0.0233(3) 2.1174(3) 0.0747(3)
N3E N 0.6037(3) 1.4416(3) 0.1551(3)
N3B N 0.4416(3) 1.8963(3) 0.3449(3)
N3G N -0.1037(3) 2.0584(3) 0.1551(3)
N4E N 0.6318(3) 1.3577(3) 0.1120(3)
N4B N 0.3577(3) 1.8682(3) 0.3880(3)
N4G N -0.1318(3) 2.1423(3) 0.1120(3)
N4G_2 N 0.8682(3) 1.1423(3) 0.1120(3)
N5E N 0.3395(3) 1.6721(3) 0.2600(3)
N5B N 0.6721(3) 2.1605(3) 0.2400(3)
N5G N 0.1605(3) 1.8279(3) 0.2600(3)
N5B_2 N 0.6721(3) 1.1605(3) 0.2400(3)
N5_2 N 0.8279(3) 1.3395(3) 0.2400(3)
H12? H 0.3728 1.3624 0.2857
H13? H 0.2637 1.2959 0.1308
H14? H 0.2453 1.1861 0.1535
H15? H 0.1590 1.2523 0.1214
H16? H 0.1815 1.1298 0.2659
H17? H 0.2446 1.1376 0.3554
H18? H 0.1611 1.2126 0.3373
loop_
_geom_bond_atom_site_label_1
_geom_bond_atom_site_label_2
_geom_bond_site_symmetry_1
_geom_bond_site_symmetry_2
Mn1 N1 1_555 1_555
C1 H1 1_555 1_555
C2 C1 1_555 1_555
H2 C2 1_555 1_555
C3 C2 1_555 1_555
H3 C3 1_555 1_555
C4 C3 1_555 1_555
H4 C4 1_555 1_555
C5 C4 1_555 1_555
C6 C5 1_555 1_555
C7 C8 1_555 1_555
C8 C9 1_555 1_555
C9 H5 1_555 1_555
C10 C9 1_555 1_555
H6 C10 1_555 1_555
C11 H7 1_555 1_555
C12 C8 1_555 1_555
H8 C12 1_555 1_555
N1 C1 1_555 1_555
N2 C6 1_555 1_555
N3 C7 1_555 1_555
N4 Mn1 1_555 1_555
N5 C10 1_555 1_555
O1 H9 1_555 1_555
H10 O1 1_555 1_555
O2 H11 1_555 1_555
N6 C13 1_555 1_555
O3 C13 1_555 1_555
C13 C14E 1_555 1_555
C14 N6 1_555 1_555
C15 N6 1_555 1_555
Mn1E N1E 1_555 1_555
Mn1E_2 N5 1_555 1_555
Mn1E_3 N5B 1_555 1_555
Mn1E_4 N1G 1_555 1_555
C1E H1E 1_555 1_555
C1B H1B 1_555 1_555
C1G H1G 1_555 1_555
C2E C1E 1_555 1_555
C2B C1B 1_555 1_555
C2G C1G 1_555 1_555
H2E C2E 1_555 1_555
H2B C2B 1_555 1_555
H2G C2G 1_555 1_555
C3E C2E 1_555 1_555
C3B C2B 1_555 1_555
C3G C2G 1_555 1_555
H3E C3E 1_555 1_555
H3B C3B 1_555 1_555
H3G C3G 1_555 1_555
C4E C3E 1_555 1_555
C4B C3B 1_555 1_555
C4G C3G 1_555 1_555
H4E C4E 1_555 1_555
H4B C4B 1_555 1_555
H4G C4G 1_555 1_555
C5E C4E 1_555 1_555
C5B C4B 1_555 1_555
C5G C4G 1_555 1_555
C6E C5E 1_555 1_555
C6B C5B 1_555 1_555
C6G C5G 1_555 1_555
C7E C8E 1_555 1_555
C7B C8B 1_555 1_555
C7G C8G 1_555 1_555
C8E C9E 1_555 1_555
C8B C9B 1_555 1_555
C8G C9G 1_555 1_555
C9E H5E 1_555 1_555
C9B H5B 1_555 1_555
C9G H5G 1_555 1_555
C10E C9E 1_555 1_555
C10B C9B 1_555 1_555
C10G C9G 1_555 1_555
H6E C10E 1_555 1_555
H6B C10B 1_555 1_555
H6G C10G 1_555 1_555
C11E H7E 1_555 1_555
C11B H7B 1_555 1_555
C11G H7G 1_555 1_555
C12E C8E 1_555 1_555
C12B C8B 1_555 1_555
C12G C8G 1_555 1_555
H8E C12E 1_555 1_555
H8B C12B 1_555 1_555
H8G C12G 1_555 1_555
N1E C1E 1_555 1_555
N1B Mn1 1_555 1_555
N1G C1G 1_555 1_555
N1G_2 Mn1E 1_555 1_555
N2E C6E 1_555 1_555
N2B C6B 1_555 1_555
N2G C6G 1_555 1_555
N3E C7E 1_555 1_555
N3B C7B 1_555 1_555
N3G C7G 1_555 1_555
N4E Mn1E 1_555 1_555
N4B Mn1 1_555 1_555
N4G Mn1E_4 1_555 1_555
N4G_2 Mn1E 1_555 1_555
N5E Mn1 1_555 1_555
N5B C10B 1_555 1_555
N5G Mn1 1_555 1_555
N5B_2 Mn1E 1_555 1_555
N5_2 Mn1E 1_555 1_555
H11B O2 1_555 1_555
O3B C15 1_555 1_555
O3E C13E 1_555 1_555
O3G C14 1_555 1_555
C13B N6 1_555 1_555
C13E N6 1_555 1_555
C13G N6 1_555 1_555
C14E N6 1_555 1_555
C14G N6 1_555 1_555
C14B N6 1_555 1_555
C15B N6 1_555 1_555
C15E N6 1_555 1_555
C15G N6 1_555 1_555
C5 N1 1_555 1_555
C6 N4 1_555 1_555
C7 N2 1_555 1_555
C11 C12 1_555 1_555
C11 N5 1_555 1_555
N3 N4 1_555 1_555
O3 C14E 1_555 1_555
O3 C15B 1_555 1_555
C13 C15B 1_555 1_555
C14 C13G 1_555 1_555
C14 C14B 1_555 1_555
C14 C15E 1_555 1_555
C14 C15G 1_555 1_555
C15 C13B 1_555 1_555
C15 C14E 1_555 1_555
C15 C14G 1_555 1_555
C1B N1B 1_555 1_555
C5E N1E 1_555 1_555
C5B N1B 1_555 1_555
C5G N1G 1_555 1_555
C6E N4E 1_555 1_555
C6B N4B 1_555 1_555
C6G N4G 1_555 1_555
C7E N2E 1_555 1_555
C7B N2B 1_555 1_555
C7G N2G 1_555 1_555
C10E N5E 1_555 1_555
C10G N5G 1_555 1_555
C11E C12E 1_555 1_555
C11E N5E 1_555 1_555
C11B C12B 1_555 1_555
C11B N5B 1_555 1_555
C11G C12G 1_555 1_555
C11G N5G 1_555 1_555
N3E N4E 1_555 1_555
N3B N4B 1_555 1_555
N3G N4G 1_555 1_555
O3B C13B 1_555 1_555
O3B C14G 1_555 1_555
O3E C14B 1_555 1_555
O3E C15G 1_555 1_555
O3G C13G 1_555 1_555
O3G C15E 1_555 1_555
C13B C14G 1_555 1_555
C13E C14B 1_555 1_555
C13E C15G 1_555 1_555
C13G C15E 1_555 1_555
C14E C14G 1_555 1_555
C14E C15B 1_555 1_555
C14G C15B 1_555 1_555
C14B C15E 1_555 1_555
C14B C15G 1_555 1_555

#END
