
#######################################################################
#
#                 Cambridge Crystallographic Data Centre
#                                CCDC 
#
#######################################################################
#
# If this CIF has been generated from an entry in the Cambridge 
# Structural Database, then it will include bibliographic, chemical, 
# crystal, experimental, refinement or atomic coordinate data resulting 
# from the CCDC's data processing and validation procedures.
#
#######################################################################

data_FUFKAT02
_symmetry_cell_setting           monoclinic
_symmetry_space_group_name_H-M   'C 2'
_symmetry_Int_Tables_number      5
_space_group_name_Hall           'C 2y'
loop_
_symmetry_equiv_pos_site_id
_symmetry_equiv_pos_as_xyz
1 x,y,z
2 -x,y,-z
3 1/2+x,1/2+y,z
4 1/2-x,1/2+y,-z
_cell_length_a                   37.0720(10)
_cell_length_b                   8.3550(10)
_cell_length_c                   17.9870(10)
_cell_angle_alpha                90
_cell_angle_beta                 113.2810(10)
_cell_angle_gamma                90
_cell_volume                     5117.61
loop_
_atom_site_label
_atom_site_type_symbol
_atom_site_fract_x
_atom_site_fract_y
_atom_site_fract_z
I1 I 0.0000 -0.30169(4) 0.0000
Ni1 Ni 0.0000 -0.65103(9) 0.0000
Ni2 Ni 0.0000 -0.95407(9) 0.0000
S1 S 0.01636(2) -0.63811(13) 0.13340(5)
S2 S -0.01663(2) -0.96823(12) 0.10603(4)
S3 S 0.06352(2) -0.63840(12) 0.02099(5)
S4 S 0.06276(2) -0.96731(12) 0.08391(5)
C1 C -0.00011(9) -0.8032(5) 0.16273(18)
C2 C 0.00033(10) -0.8067(5) 0.2471(2)
H1 H -0.0113 -0.9087 0.2549
H2 H -0.0162 -0.7183 0.2527
C3 C 0.04204(11) -0.7901(6) 0.3138(2)
H3 H 0.0531 -0.6853 0.3081
H4 H 0.0404 -0.7924 0.3674
C4 C 0.06965(12) -0.9230(7) 0.3103(2)
H5 H 0.0576 -1.0274 0.3106
H6 H 0.0946 -0.9149 0.3574
H7 H 0.0743 -0.9121 0.2606
C5 C 0.08568(9) -0.8031(5) 0.07292(17)
C6 C 0.13006(9) -0.8025(5) 0.1121(2)
H8 H 0.1391 -0.8957 0.1488
H9 H 0.1390 -0.7044 0.1451
C7 C 0.14890(10) -0.8092(6) 0.0494(2)
H10 H 0.1400 -0.7155 0.0131
H11 H 0.1778 -0.8017 0.0782
C8 C 0.13879(11) -0.9624(6) -0.0018(2)
H12 H 0.1467 -1.0560 0.0338
H13 H 0.1528 -0.9627 -0.0380
H14 H 0.1104 -0.9663 -0.0341
I1_2 I 0.0000 -1.30169(4) 0.0000
Ni2_2 Ni 0.0000 0.04593(9) 0.0000
S1A S -0.01636(2) -0.63811(13) -0.13340(5)
S2A S 0.01663(2) -0.96823(12) -0.10603(4)
S3A S -0.06352(2) -0.63840(12) -0.02099(5)
S4A S -0.06276(2) -0.96731(12) -0.08391(5)
C1A C 0.00011(9) -0.8032(5) -0.16273(18)
C2A C -0.00033(10) -0.8067(5) -0.2471(2)
H1A H 0.0113 -0.9087 -0.2549
H2A H 0.0162 -0.7183 -0.2527
C3A C -0.04204(11) -0.7901(6) -0.3138(2)
H3A H -0.0531 -0.6853 -0.3081
H4A H -0.0404 -0.7924 -0.3674
C4A C -0.06965(12) -0.9230(7) -0.3103(2)
H5A H -0.0576 -1.0274 -0.3106
H6A H -0.0946 -0.9149 -0.3574
H7A H -0.0743 -0.9121 -0.2606
C5A C -0.08568(9) -0.8031(5) -0.07292(17)
C6A C -0.13006(9) -0.8025(5) -0.1121(2)
H8A H -0.1391 -0.8957 -0.1488
H9A H -0.1390 -0.7044 -0.1451
C7A C -0.14890(10) -0.8092(6) -0.0494(2)
H10A H -0.1400 -0.7155 -0.0131
H11A H -0.1778 -0.8017 -0.0782
C8A C -0.13879(11) -0.9624(6) 0.0018(2)
H12A H -0.1467 -1.0560 -0.0338
H13A H -0.1528 -0.9627 0.0380
H14A H -0.1104 -0.9663 0.0341
I2 I 0.0000 -0.83255(4) 0.5000
Ni3 Ni 0.0000 -0.48343(9) 0.5000
Ni4 Ni 0.0000 -0.18025(10) 0.5000
S5 S 0.05847(2) -0.49760(13) 0.49235(5)
S6 S 0.06559(2) -0.16785(13) 0.56031(5)
S7 S -0.02830(2) -0.49666(13) 0.36510(5)
S8 S 0.00396(3) -0.16592(13) 0.38015(5)
C9 C 0.08393(9) -0.3316(5) 0.53303(19)
C10 C 0.12657(9) -0.3285(5) 0.5438(2)
H15 H 0.1353 -0.4383 0.5385
H16 H 0.1431 -0.2885 0.5986
C11 C 0.13158(10) -0.2185(5) 0.4792(2)
H17 H 0.1118 -0.2472 0.4250
H18 H 0.1270 -0.1059 0.4903
C12 C 0.17261(11) -0.2345(6) 0.4794(2)
H19 H 0.1923 -0.2110 0.5336
H20 H 0.1755 -0.1589 0.4405
H21 H 0.1764 -0.3439 0.4641
C13 C -0.01558(12) -0.3315(6) 0.3272(2)
C14 C -0.0298(3) -0.3355(10) 0.2352(4)
H22 H -0.0288 -0.4475 0.2183
H23 H -0.0113 -0.2725 0.2196
C15 C -0.0714(2) -0.2708(11) 0.1882(4)
H24 H -0.0898 -0.3195 0.2096
H25 H -0.0717 -0.1534 0.1955
C16 C -0.08480(18) -0.3101(10) 0.0985(3)
H26 H -0.0684 -0.2520 0.0761
H27 H -0.1123 -0.2779 0.0698
H28 H -0.0823 -0.4254 0.0918
I2_2 I 0.0000 0.16745(4) 0.5000
Ni4_2 Ni 0.0000 -1.18025(10) 0.5000
S5A S -0.05847(2) -0.49760(13) 0.50765(5)
S6A S -0.06559(2) -0.16785(13) 0.43969(5)
S7A S 0.02830(2) -0.49666(13) 0.63490(5)
S8A S -0.00396(3) -0.16592(13) 0.61985(5)
C9A C -0.08393(9) -0.3316(5) 0.46697(19)
C10A C -0.12657(9) -0.3285(5) 0.4562(2)
H15A H -0.1353 -0.4383 0.4615
H16A H -0.1431 -0.2885 0.4014
C11A C -0.13158(10) -0.2185(5) 0.5208(2)
H17A H -0.1118 -0.2472 0.5750
H18A H -0.1270 -0.1059 0.5097
C12A C -0.17261(11) -0.2345(6) 0.5206(2)
H19A H -0.1923 -0.2110 0.4664
H20A H -0.1755 -0.1589 0.5595
H21A H -0.1764 -0.3439 0.5359
C13A C 0.01558(12) -0.3315(6) 0.6728(2)
C14A C 0.0298(3) -0.3355(10) 0.7648(4)
H22A H 0.0288 -0.4475 0.7817
H23A H 0.0113 -0.2725 0.7804
C15A C 0.0714(2) -0.2708(11) 0.8118(4)
H24A H 0.0898 -0.3195 0.7904
H25A H 0.0717 -0.1534 0.8045
C16A C 0.08480(18) -0.3101(10) 0.9015(3)
H26A H 0.0684 -0.2520 0.9239
H27A H 0.1123 -0.2779 0.9302
H28A H 0.0823 -0.4254 0.9082
I3 I 0.258760(6) -0.79028(3) 0.252910(12)
Ni5 Ni 0.259600(12) -0.44212(7) 0.25418(2)
Ni6 Ni 0.257410(12) -0.13931(7) 0.25203(2)
S9 S 0.27107(2) -0.45620(12) 0.14168(5)
S10 S 0.23524(2) -0.13163(13) 0.11732(5)
S11 S 0.32408(2) -0.44998(12) 0.32816(5)
S12 S 0.31931(2) -0.11881(13) 0.26278(5)
S13 S 0.24847(2) -0.45346(13) 0.36720(5)
S14 S 0.27881(2) -0.11882(13) 0.38595(5)
S15 S 0.19554(2) -0.46366(13) 0.17991(5)
S16 S 0.19531(2) -0.13397(13) 0.24157(5)
C17 C 0.25025(9) -0.2970(5) 0.08410(19)
C18 C 0.24419(10) -0.3032(5) -0.0042(2)
H29 H 0.2580 -0.3981 -0.0130
H30 H 0.2562 -0.2069 -0.0171
C19 C 0.20059(10) -0.3113(6) -0.0625(2)
H31 H 0.1868 -0.2170 -0.0531
H32 H 0.1988 -0.3051 -0.1188
C20 C 0.17971(12) -0.4623(6) -0.0535(2)
H33 H 0.1927 -0.5564 -0.0642
H34 H 0.1523 -0.4595 -0.0922
H35 H 0.1807 -0.4683 0.0017
C21 C 0.34410(9) -0.2825(5) 0.30983(18)
C22 C 0.38810(10) -0.2783(5) 0.33900(18)
H36 H 0.3998 -0.3308 0.3926
H37 H 0.3970 -0.1655 0.3457
C23 C 0.40317(10) -0.3630(6) 0.2802(2)
H38 H 0.4321 -0.3726 0.3066
H39 H 0.3921 -0.4726 0.2693
C24 C 0.39232(12) -0.2755(7) 0.2001(2)
H40 H 0.3639 -0.2820 0.1692
H41 H 0.4059 -0.3250 0.1691
H42 H 0.4002 -0.1629 0.2105
C25 C 0.26702(9) -0.2877(5) 0.42167(19)
C26 C 0.27471(10) -0.2927(5) 0.51053(19)
H43 H 0.2654 -0.3960 0.5232
H44 H 0.2598 -0.2059 0.5230
C27 C 0.31881(10) -0.2732(6) 0.5637(2)
H45 H 0.3341 -0.3489 0.5452
H46 H 0.3272 -0.1632 0.5576
C28 C 0.32728(11) -0.3046(6) 0.6521(2)
H47 H 0.3135 -0.2252 0.6714
H48 H 0.3556 -0.2966 0.6841
H49 H 0.3182 -0.4121 0.6580
C29 C 0.17264(9) -0.3009(5) 0.1932(2)
C30 C 0.12809(9) -0.3052(5) 0.1570(2)
H50 H 0.1192 -0.4063 0.1266
H51 H 0.1181 -0.2157 0.1182
C31 C 0.11005(11) -0.2925(6) 0.2214(2)
H52 H 0.1205 -0.1959 0.2549
H53 H 0.0812 -0.2806 0.1937
C32 C 0.11936(13) -0.4391(6) 0.2758(3)
H54 H 0.1099 -0.5353 0.2426
H55 H 0.1064 -0.4296 0.3136
H56 H 0.1478 -0.4468 0.3062
I3_2 I 0.258760(6) 0.20972(3) 0.252910(12)
Ni6_2 Ni 0.257410(12) -1.13931(7) 0.25203(2)
C33? C -0.0131(4) -0.3289(14) 0.2434(5)
C34? C -0.0554(3) -0.3531(14) 0.1784(5)
C35? C -0.0838(4) -0.2268(18) 0.1851(6)
H57? H 0.0043 -0.4156 0.2398
H58? H -0.0023 -0.2252 0.2349
H59? H -0.0549 -0.3473 0.1238
H60? H -0.0649 -0.4609 0.1848
H61? H -0.0927 -0.2579 0.2277
H62? H -0.1065 -0.2186 0.1334
H63? H -0.0705 -0.1231 0.1986
loop_
_geom_bond_atom_site_label_1
_geom_bond_atom_site_label_2
_geom_bond_site_symmetry_1
_geom_bond_site_symmetry_2
I1 Ni1 1_555 1_555
I2 Ni3 1_555 1_555
I3 Ni5 1_555 1_555
Ni1 Ni2 1_555 1_555
Ni2 S2 1_555 1_555
Ni3 Ni4 1_555 1_555
Ni4 S6 1_555 1_555
Ni5 Ni6 1_555 1_555
Ni6 S10 1_555 1_555
S1 Ni1 1_555 1_555
S2 C1 1_555 1_555
S3 Ni1 1_555 1_555
S4 Ni2 1_555 1_555
S5 Ni3 1_555 1_555
S6 C9 1_555 1_555
S7 Ni3 1_555 1_555
S8 Ni4 1_555 1_555
S9 Ni5 1_555 1_555
S10 C17 1_555 1_555
S11 Ni5 1_555 1_555
S12 Ni6 1_555 1_555
S13 Ni5 1_555 1_555
S14 Ni6 1_555 1_555
S15 Ni5 1_555 1_555
S16 Ni6 1_555 1_555
C1 S1 1_555 1_555
C2 C1 1_555 1_555
H1 C2 1_555 1_555
H2 C2 1_555 1_555
C3 C2 1_555 1_555
H3 C3 1_555 1_555
H4 C3 1_555 1_555
C4 C3 1_555 1_555
H5 C4 1_555 1_555
H6 C4 1_555 1_555
H7 C4 1_555 1_555
C5 S3 1_555 1_555
C6 C5 1_555 1_555
H8 C6 1_555 1_555
H9 C6 1_555 1_555
C7 C6 1_555 1_555
H10 C7 1_555 1_555
H11 C7 1_555 1_555
C8 C7 1_555 1_555
H12 C8 1_555 1_555
H13 C8 1_555 1_555
H14 C8 1_555 1_555
C9 S5 1_555 1_555
C10 C9 1_555 1_555
H15 C10 1_555 1_555
H16 C10 1_555 1_555
C11 C10 1_555 1_555
H17 C11 1_555 1_555
H18 C11 1_555 1_555
C12 C11 1_555 1_555
H19 C12 1_555 1_555
H20 C12 1_555 1_555
H21 C12 1_555 1_555
C13 S7 1_555 1_555
C14 C13 1_555 1_555
H22 C14 1_555 1_555
H23 C14 1_555 1_555
C15 C14 1_555 1_555
H24 C15 1_555 1_555
H25 C15 1_555 1_555
C16 C15 1_555 1_555
H26 C16 1_555 1_555
H27 C16 1_555 1_555
H28 C16 1_555 1_555
C17 S9 1_555 1_555
C18 C17 1_555 1_555
H29 C18 1_555 1_555
H30 C18 1_555 1_555
C19 C18 1_555 1_555
H31 C19 1_555 1_555
H32 C19 1_555 1_555
C20 C19 1_555 1_555
H33 C20 1_555 1_555
H34 C20 1_555 1_555
H35 C20 1_555 1_555
C21 S11 1_555 1_555
C22 C21 1_555 1_555
H36 C22 1_555 1_555
H37 C22 1_555 1_555
C23 C22 1_555 1_555
H38 C23 1_555 1_555
H39 C23 1_555 1_555
C24 C23 1_555 1_555
H40 C24 1_555 1_555
H41 C24 1_555 1_555
H42 C24 1_555 1_555
C25 S13 1_555 1_555
C26 C25 1_555 1_555
H43 C26 1_555 1_555
H44 C26 1_555 1_555
C27 C26 1_555 1_555
H45 C27 1_555 1_555
H46 C27 1_555 1_555
C28 C27 1_555 1_555
H47 C28 1_555 1_555
H48 C28 1_555 1_555
H49 C28 1_555 1_555
C29 S15 1_555 1_555
C30 C29 1_555 1_555
H50 C30 1_555 1_555
H51 C30 1_555 1_555
C31 C30 1_555 1_555
H52 C31 1_555 1_555
H53 C31 1_555 1_555
C32 C31 1_555 1_555
H54 C32 1_555 1_555
H55 C32 1_555 1_555
H56 C32 1_555 1_555
I1_2 Ni2 1_555 1_555
I2_2 Ni4 1_555 1_555
I3_2 Ni6 1_555 1_555
Ni2_2 I1 1_555 1_555
Ni4_2 I2 1_555 1_555
Ni6_2 I3 1_555 1_555
S1A Ni1 1_555 1_555
S2A Ni2 1_555 1_555
S3A Ni1 1_555 1_555
S4A Ni2 1_555 1_555
S5A Ni3 1_555 1_555
S6A Ni4 1_555 1_555
S7A Ni3 1_555 1_555
S8A Ni4 1_555 1_555
C1A S1A 1_555 1_555
C2A C1A 1_555 1_555
H1A C2A 1_555 1_555
H2A C2A 1_555 1_555
C3A C2A 1_555 1_555
H3A C3A 1_555 1_555
H4A C3A 1_555 1_555
C4A C3A 1_555 1_555
H5A C4A 1_555 1_555
H6A C4A 1_555 1_555
H7A C4A 1_555 1_555
C5A S3A 1_555 1_555
C6A C5A 1_555 1_555
H8A C6A 1_555 1_555
H9A C6A 1_555 1_555
C7A C6A 1_555 1_555
H10A C7A 1_555 1_555
H11A C7A 1_555 1_555
C8A C7A 1_555 1_555
H12A C8A 1_555 1_555
H13A C8A 1_555 1_555
H14A C8A 1_555 1_555
C9A S5A 1_555 1_555
C10A C9A 1_555 1_555
H15A C10A 1_555 1_555
H16A C10A 1_555 1_555
C11A C10A 1_555 1_555
H17A C11A 1_555 1_555
H18A C11A 1_555 1_555
C12A C11A 1_555 1_555
H19A C12A 1_555 1_555
H20A C12A 1_555 1_555
H21A C12A 1_555 1_555
C13A S7A 1_555 1_555
C14A C13A 1_555 1_555
H22A C14A 1_555 1_555
H23A C14A 1_555 1_555
C15A C14A 1_555 1_555
H24A C15A 1_555 1_555
H25A C15A 1_555 1_555
C16A C15A 1_555 1_555
H26A C16A 1_555 1_555
H27A C16A 1_555 1_555
H28A C16A 1_555 1_555
S4 C5 1_555 1_555
S8 C13 1_555 1_555
S12 C21 1_555 1_555
S14 C25 1_555 1_555
S16 C29 1_555 1_555
S2A C1A 1_555 1_555
S4A C5A 1_555 1_555
S6A C9A 1_555 1_555
S8A C13A 1_555 1_555

#END
