
#######################################################################
#
#                 Cambridge Crystallographic Data Centre
#                                CCDC 
#
#######################################################################
#
# If this CIF has been generated from an entry in the Cambridge 
# Structural Database, then it will include bibliographic, chemical, 
# crystal, experimental, refinement or atomic coordinate data resulting 
# from the CCDC's data processing and validation procedures.
#
#######################################################################

data_FUFKAT01
_symmetry_cell_setting           monoclinic
_symmetry_space_group_name_H-M   'C 2'
_symmetry_Int_Tables_number      5
_space_group_name_Hall           'C 2y'
loop_
_symmetry_equiv_pos_site_id
_symmetry_equiv_pos_as_xyz
1 x,y,z
2 -x,y,-z
3 1/2+x,1/2+y,z
4 1/2-x,1/2+y,-z
_cell_length_a                   37.2403(8)
_cell_length_b                   8.3633(2)
_cell_length_c                   18.0518(5)
_cell_angle_alpha                90
_cell_angle_beta                 112.8310(7)
_cell_angle_gamma                90
_cell_volume                     5181.78
loop_
_atom_site_label
_atom_site_type_symbol
_atom_site_fract_x
_atom_site_fract_y
_atom_site_fract_z
I1 I 0.0000 -0.30449(4) 0.0000
Ni1 Ni 0.0000 -0.65405(9) 0.0000
Ni2 Ni 0.0000 -0.95780(9) 0.0000
S1 S 0.01478(3) -0.63956(13) 0.13198(6)
S2 S -0.01691(3) -0.97144(13) 0.10548(5)
S3 S 0.06344(3) -0.63877(13) 0.02271(6)
S4 S 0.06230(3) -0.96894(13) 0.08352(5)
C1 C -0.00128(10) -0.8058(5) 0.1616(2)
C2 C -0.00108(12) -0.8091(5) 0.2453(2)
H1 H -0.0112 -0.9114 0.2538
H2 H -0.0185 -0.7266 0.2495
C3 C 0.03939(15) -0.7835(8) 0.3117(3)
H3 H 0.0492 -0.6795 0.3047
H4 H 0.0372 -0.7841 0.3635
C4 C 0.06848(15) -0.9121(9) 0.3111(3)
H5 H 0.0582 -1.0158 0.3145
H6 H 0.0926 -0.8967 0.3563
H7 H 0.0729 -0.9045 0.2623
C5 C 0.08509(10) -0.8037(5) 0.0733(2)
C6 C 0.12933(11) -0.8055(5) 0.1119(3)
H8 H 0.1378 -0.8965 0.1478
H9 H 0.1383 -0.7094 0.1438
C7 C 0.14814(12) -0.8149(7) 0.0500(3)
H10 H 0.1393 -0.7249 0.0135
H11 H 0.1762 -0.8062 0.0778
C8 C 0.13867(14) -0.9680(8) 0.0018(3)
H12 H 0.1486 -1.0574 0.0372
H13 H 0.1504 -0.9658 -0.0370
H14 H 0.1109 -0.9781 -0.0254
I1_2 I 0.0000 -1.30449(4) 0.0000
Ni2_2 Ni 0.0000 0.04220(9) 0.0000
S1A S -0.01478(3) -0.63956(13) -0.13198(6)
S2A S 0.01691(3) -0.97144(13) -0.10548(5)
S3A S -0.06344(3) -0.63877(13) -0.02271(6)
S4A S -0.06230(3) -0.96894(13) -0.08352(5)
C1A C 0.00128(10) -0.8058(5) -0.1616(2)
C2A C 0.00108(12) -0.8091(5) -0.2453(2)
H1A H 0.0112 -0.9114 -0.2538
H2A H 0.0185 -0.7266 -0.2495
C3A C -0.03939(15) -0.7835(8) -0.3117(3)
H3A H -0.0492 -0.6795 -0.3047
H4A H -0.0372 -0.7841 -0.3635
C4A C -0.06848(15) -0.9121(9) -0.3111(3)
H5A H -0.0582 -1.0158 -0.3145
H6A H -0.0926 -0.8967 -0.3563
H7A H -0.0729 -0.9045 -0.2623
C5A C -0.08509(10) -0.8037(5) -0.0733(2)
C6A C -0.12933(11) -0.8055(5) -0.1119(3)
H8A H -0.1378 -0.8965 -0.1478
H9A H -0.1383 -0.7094 -0.1438
C7A C -0.14814(12) -0.8149(7) -0.0500(3)
H10A H -0.1393 -0.7249 -0.0135
H11A H -0.1762 -0.8062 -0.0778
C8A C -0.13867(14) -0.9680(8) -0.0018(3)
H12A H -0.1486 -1.0574 -0.0372
H13A H -0.1504 -0.9658 0.0370
H14A H -0.1109 -0.9781 0.0254
I2 I 0.0000 -0.83442(4) 0.5000
Ni3 Ni 0.0000 -0.48543(10) 0.5000
Ni4 Ni 0.0000 -0.18218(10) 0.5000
S5 S 0.05809(3) -0.49819(14) 0.49115(6)
S6 S 0.06510(3) -0.16812(14) 0.55792(6)
S7 S -0.02843(3) -0.49798(14) 0.36626(6)
S8 S 0.00332(3) -0.16721(14) 0.37980(6)
C9 C 0.08353(11) -0.3333(5) 0.5318(2)
C10 C 0.12574(10) -0.3277(5) 0.5422(3)
H15 H 0.1345 -0.4350 0.5376
H16 H 0.1414 -0.2882 0.5956
C11 C 0.13188(13) -0.2202(7) 0.4797(3)
H17 H 0.1270 -0.1100 0.4897
H18 H 0.1133 -0.2492 0.4266
C12 C 0.17331(13) -0.2343(6) 0.4818(3)
H19 H 0.1918 -0.2134 0.5353
H20 H 0.1768 -0.1580 0.4454
H21 H 0.1773 -0.3403 0.4660
C13 C -0.01655(12) -0.3333(6) 0.3273(2)
C14 C -0.0304(4) -0.336(3) 0.2366(13)
H22 H -0.0122 -0.2752 0.2212
H23 H -0.0299 -0.4456 0.2194
C15 C -0.0709(3) -0.2690(17) 0.1924(6)
H24 H -0.0707 -0.1540 0.1993
H25 H -0.0889 -0.3155 0.2134
C16 C -0.0836(3) -0.3111(13) 0.1019(5)
H26 H -0.0673 -0.2554 0.0803
H27 H -0.1102 -0.2797 0.0733
H28 H -0.0811 -0.4243 0.0961
I2_2 I 0.0000 0.16558(4) 0.5000
Ni4_2 Ni 0.0000 -1.18218(10) 0.5000
S5A S -0.05809(3) -0.49819(14) 0.50885(6)
S6A S -0.06510(3) -0.16812(14) 0.44208(6)
S7A S 0.02843(3) -0.49798(14) 0.63374(6)
S8A S -0.00332(3) -0.16721(14) 0.62020(6)
C9A C -0.08353(11) -0.3333(5) 0.4682(2)
C10A C -0.12574(10) -0.3277(5) 0.4578(3)
H15A H -0.1345 -0.4350 0.4624
H16A H -0.1414 -0.2882 0.4044
C11A C -0.13188(13) -0.2202(7) 0.5203(3)
H17A H -0.1270 -0.1100 0.5103
H18A H -0.1133 -0.2492 0.5734
C12A C -0.17331(13) -0.2343(6) 0.5182(3)
H19A H -0.1918 -0.2134 0.4647
H20A H -0.1768 -0.1580 0.5546
H21A H -0.1773 -0.3403 0.5340
C13A C 0.01655(12) -0.3333(6) 0.6727(2)
C14A C 0.0304(4) -0.336(3) 0.7634(13)
H22A H 0.0122 -0.2752 0.7788
H23A H 0.0299 -0.4456 0.7806
C15A C 0.0709(3) -0.2690(17) 0.8076(6)
H24A H 0.0707 -0.1540 0.8007
H25A H 0.0889 -0.3155 0.7866
C16A C 0.0836(3) -0.3111(13) 0.8981(5)
H26A H 0.0673 -0.2554 0.9197
H27A H 0.1102 -0.2797 0.9267
H28A H 0.0811 -0.4243 0.9039
I3 I 0.259280(8) -0.78844(3) 0.254850(16)
Ni5 Ni 0.260210(14) -0.44043(7) 0.25681(3)
Ni6 Ni 0.258280(13) -0.13698(7) 0.25419(3)
S9 S 0.27067(3) -0.45459(13) 0.14340(6)
S10 S 0.23583(3) -0.12869(14) 0.12018(6)
S11 S 0.32444(3) -0.44748(13) 0.32789(6)
S12 S 0.31952(3) -0.11633(14) 0.26284(6)
S13 S 0.25045(3) -0.44934(14) 0.37124(6)
S14 S 0.28016(3) -0.11520(14) 0.38751(6)
S15 S 0.19625(3) -0.46035(14) 0.18640(6)
S16 S 0.19690(3) -0.12868(14) 0.24654(7)
C17 C 0.25035(11) -0.2942(6) 0.0867(2)
C18 C 0.24384(13) -0.3029(6) -0.0010(3)
H29 H 0.2574 -0.3958 -0.0093
H30 H 0.2552 -0.2089 -0.0147
C19 C 0.20073(14) -0.3136(7) -0.0583(3)
H31 H 0.1871 -0.2210 -0.0499
H32 H 0.1991 -0.3098 -0.1133
C20 C 0.18067(15) -0.4610(8) -0.0478(3)
H33 H 0.1949 -0.5535 -0.0524
H34 H 0.1548 -0.4646 -0.0884
H35 H 0.1794 -0.4597 0.0044
C21 C 0.34407(11) -0.2799(5) 0.3097(2)
C22 C 0.38808(12) -0.2749(6) 0.3365(2)
H36 H 0.3999 -0.3220 0.3897
H37 H 0.3964 -0.1642 0.3406
C23 C 0.40284(12) -0.3631(6) 0.2798(3)
H38 H 0.4310 -0.3689 0.3045
H39 H 0.3929 -0.4716 0.2726
C24 C 0.39111(14) -0.2853(8) 0.1988(3)
H40 H 0.3633 -0.2911 0.1711
H41 H 0.4034 -0.3398 0.1681
H42 H 0.3991 -0.1753 0.2055
C25 C 0.26897(12) -0.2832(5) 0.4247(2)
C26 C 0.27704(13) -0.2861(6) 0.5134(3)
H43 H 0.2685 -0.3876 0.5269
H44 H 0.2623 -0.2019 0.5255
C27 C 0.32037(14) -0.2632(7) 0.5644(3)
H45 H 0.3354 -0.3405 0.5483
H46 H 0.3283 -0.1571 0.5551
C28 C 0.32910(18) -0.2835(10) 0.6537(3)
H47 H 0.3134 -0.2104 0.6693
H48 H 0.3562 -0.2618 0.6844
H49 H 0.3232 -0.3911 0.6638
C29 C 0.17451(12) -0.2982(5) 0.2024(3)
C30 C 0.13006(14) -0.3026(7) 0.1737(5)
H50 H 0.1196 -0.4011 0.1452
H51 H 0.1183 -0.2127 0.1388
C31 C 0.1221(3) -0.2912(18) 0.2619(8)
H52 H 0.1387 -0.3672 0.3007
H53 H 0.1285 -0.1848 0.2847
C32 C 0.0801(3) -0.3275(16) 0.2446(6)
H54 H 0.0640 -0.2414 0.2141
H55 H 0.0766 -0.3394 0.2943
H56 H 0.0727 -0.4249 0.2142
I3_2 I 0.259280(8) 0.21156(3) 0.254850(16)
Ni6_2 Ni 0.258280(13) -1.13698(7) 0.25419(3)
C33? C -0.0175(6) -0.331(3) 0.2423(15)
C34? C -0.0584(5) -0.353(2) 0.1799(8)
C35? C -0.0855(6) -0.230(2) 0.1871(12)
C36? C 0.1100(3) -0.2966(15) 0.2216(8)
C37? C 0.1195(3) -0.4432(16) 0.2769(7)
H57? H -0.0071 -0.2297 0.2331
H58? H -0.0009 -0.4155 0.2366
H59? H -0.0578 -0.3471 0.1267
H60? H -0.0678 -0.4580 0.1862
H61? H -0.0972 -0.2673 0.2229
H62? H -0.1055 -0.2095 0.1351
H63? H -0.0714 -0.1328 0.2080
H64? H 0.1204 -0.2147 0.1361
H65? H 0.1218 -0.3998 0.1424
H66? H 0.0823 -0.2938 0.1890
H67? H 0.1168 -0.1999 0.2538
H68? H 0.1107 -0.5381 0.2451
H69? H 0.1066 -0.4338 0.3135
H70? H 0.1471 -0.4495 0.3066
loop_
_geom_bond_atom_site_label_1
_geom_bond_atom_site_label_2
_geom_bond_site_symmetry_1
_geom_bond_site_symmetry_2
I1 Ni1 1_555 1_555
I2 Ni3 1_555 1_555
I3 Ni5 1_555 1_555
Ni1 Ni2 1_555 1_555
Ni2 S2 1_555 1_555
Ni3 Ni4 1_555 1_555
Ni4 S6 1_555 1_555
Ni5 Ni6 1_555 1_555
Ni6 S10 1_555 1_555
S1 Ni1 1_555 1_555
S2 C1 1_555 1_555
S3 Ni1 1_555 1_555
S4 Ni2 1_555 1_555
S5 Ni3 1_555 1_555
S6 C9 1_555 1_555
S7 Ni3 1_555 1_555
S8 Ni4 1_555 1_555
S9 Ni5 1_555 1_555
S10 C17 1_555 1_555
S11 Ni5 1_555 1_555
S12 Ni6 1_555 1_555
S13 Ni5 1_555 1_555
S14 Ni6 1_555 1_555
S15 Ni5 1_555 1_555
S16 Ni6 1_555 1_555
C1 S1 1_555 1_555
C2 C1 1_555 1_555
H1 C2 1_555 1_555
H2 C2 1_555 1_555
C3 C2 1_555 1_555
H3 C3 1_555 1_555
H4 C3 1_555 1_555
C4 C3 1_555 1_555
H5 C4 1_555 1_555
H6 C4 1_555 1_555
H7 C4 1_555 1_555
C5 S3 1_555 1_555
C6 C5 1_555 1_555
H8 C6 1_555 1_555
H9 C6 1_555 1_555
C7 C6 1_555 1_555
H10 C7 1_555 1_555
H11 C7 1_555 1_555
C8 C7 1_555 1_555
H12 C8 1_555 1_555
H13 C8 1_555 1_555
H14 C8 1_555 1_555
C9 S5 1_555 1_555
C10 C9 1_555 1_555
H15 C10 1_555 1_555
H16 C10 1_555 1_555
C11 C10 1_555 1_555
H17 C11 1_555 1_555
H18 C11 1_555 1_555
C12 C11 1_555 1_555
H19 C12 1_555 1_555
H20 C12 1_555 1_555
H21 C12 1_555 1_555
C13 S7 1_555 1_555
C14 C13 1_555 1_555
H22 C14 1_555 1_555
H23 C14 1_555 1_555
C15 C14 1_555 1_555
H24 C15 1_555 1_555
H25 C15 1_555 1_555
C16 C15 1_555 1_555
H26 C16 1_555 1_555
H27 C16 1_555 1_555
H28 C16 1_555 1_555
C17 S9 1_555 1_555
C18 C17 1_555 1_555
H29 C18 1_555 1_555
H30 C18 1_555 1_555
C19 C18 1_555 1_555
H31 C19 1_555 1_555
H32 C19 1_555 1_555
C20 C19 1_555 1_555
H33 C20 1_555 1_555
H34 C20 1_555 1_555
H35 C20 1_555 1_555
C21 S11 1_555 1_555
C22 C21 1_555 1_555
H36 C22 1_555 1_555
H37 C22 1_555 1_555
C23 C22 1_555 1_555
H38 C23 1_555 1_555
H39 C23 1_555 1_555
C24 C23 1_555 1_555
H40 C24 1_555 1_555
H41 C24 1_555 1_555
H42 C24 1_555 1_555
C25 S13 1_555 1_555
C26 C25 1_555 1_555
H43 C26 1_555 1_555
H44 C26 1_555 1_555
C27 C26 1_555 1_555
H45 C27 1_555 1_555
H46 C27 1_555 1_555
C28 C27 1_555 1_555
H47 C28 1_555 1_555
H48 C28 1_555 1_555
H49 C28 1_555 1_555
C29 S15 1_555 1_555
C30 C29 1_555 1_555
H50 C30 1_555 1_555
H51 C30 1_555 1_555
C31 C30 1_555 1_555
H52 C31 1_555 1_555
H53 C31 1_555 1_555
C32 C31 1_555 1_555
H54 C32 1_555 1_555
H55 C32 1_555 1_555
H56 C32 1_555 1_555
I1_2 Ni2 1_555 1_555
I2_2 Ni4 1_555 1_555
I3_2 Ni6 1_555 1_555
Ni2_2 I1 1_555 1_555
Ni4_2 I2 1_555 1_555
Ni6_2 I3 1_555 1_555
S1A Ni1 1_555 1_555
S2A Ni2 1_555 1_555
S3A Ni1 1_555 1_555
S4A Ni2 1_555 1_555
S5A Ni3 1_555 1_555
S6A Ni4 1_555 1_555
S7A Ni3 1_555 1_555
S8A Ni4 1_555 1_555
C1A S1A 1_555 1_555
C2A C1A 1_555 1_555
H1A C2A 1_555 1_555
H2A C2A 1_555 1_555
C3A C2A 1_555 1_555
H3A C3A 1_555 1_555
H4A C3A 1_555 1_555
C4A C3A 1_555 1_555
H5A C4A 1_555 1_555
H6A C4A 1_555 1_555
H7A C4A 1_555 1_555
C5A S3A 1_555 1_555
C6A C5A 1_555 1_555
H8A C6A 1_555 1_555
H9A C6A 1_555 1_555
C7A C6A 1_555 1_555
H10A C7A 1_555 1_555
H11A C7A 1_555 1_555
C8A C7A 1_555 1_555
H12A C8A 1_555 1_555
H13A C8A 1_555 1_555
H14A C8A 1_555 1_555
C9A S5A 1_555 1_555
C10A C9A 1_555 1_555
H15A C10A 1_555 1_555
H16A C10A 1_555 1_555
C11A C10A 1_555 1_555
H17A C11A 1_555 1_555
H18A C11A 1_555 1_555
C12A C11A 1_555 1_555
H19A C12A 1_555 1_555
H20A C12A 1_555 1_555
H21A C12A 1_555 1_555
C13A S7A 1_555 1_555
C14A C13A 1_555 1_555
H22A C14A 1_555 1_555
H23A C14A 1_555 1_555
C15A C14A 1_555 1_555
H24A C15A 1_555 1_555
H25A C15A 1_555 1_555
C16A C15A 1_555 1_555
H26A C16A 1_555 1_555
H27A C16A 1_555 1_555
H28A C16A 1_555 1_555
S4 C5 1_555 1_555
S8 C13 1_555 1_555
S12 C21 1_555 1_555
S14 C25 1_555 1_555
S16 C29 1_555 1_555
S2A C1A 1_555 1_555
S4A C5A 1_555 1_555
S6A C9A 1_555 1_555
S8A C13A 1_555 1_555

#END
