
#######################################################################
#
#                 Cambridge Crystallographic Data Centre
#                                CCDC 
#
#######################################################################
#
# If this CIF has been generated from an entry in the Cambridge 
# Structural Database, then it will include bibliographic, chemical, 
# crystal, experimental, refinement or atomic coordinate data resulting 
# from the CCDC's data processing and validation procedures.
#
#######################################################################

data_FUFLOI
_symmetry_cell_setting           monoclinic
_symmetry_space_group_name_H-M   'C 2'
_symmetry_Int_Tables_number      5
_space_group_name_Hall           'C 2y'
loop_
_symmetry_equiv_pos_site_id
_symmetry_equiv_pos_as_xyz
1 x,y,z
2 -x,y,-z
3 1/2+x,1/2+y,z
4 1/2-x,1/2+y,-z
_cell_length_a                   18.9979(11)
_cell_length_b                   17.8507(11)
_cell_length_c                   15.5853(8)
_cell_angle_alpha                90
_cell_angle_beta                 119.062(4)
_cell_angle_gamma                90
_cell_volume                     4619.92
loop_
_atom_site_label
_atom_site_type_symbol
_atom_site_fract_x
_atom_site_fract_y
_atom_site_fract_z
Ru1 Ru 0.00000 0.00752(3) 0.50000
Ru2 Ru 0.00000 0.30473(3) 0.00000
Cu1 Cu -0.00204(8) 0.15610(8) 0.24498(9)
Cu2 Cu 0.25004(7) -0.09417(8) 0.74702(8)
N1 N -0.0595(5) -0.1232(5) 0.5915(6)
N2 N 0.1597(5) 0.0162(4) 0.7099(5)
N3 N 0.0872(5) 0.1315(5) 0.4320(6)
N4 N -0.0241(4) 0.0452(4) 0.2131(5)
N5 N 0.0959(4) 0.1382(4) 0.2283(5)
N6 N -0.0974(6) 0.1721(4) 0.2602(6)
N7 N 0.0184(5) 0.2662(5) 0.2761(5)
N8 N -0.0880(5) 0.1807(5) 0.0573(6)
N9 N 0.3439(5) -0.2015(5) 0.7899(5)
N10 N 0.0546(6) 0.4342(6) -0.0937(6)
N11 N 0.2708(4) -0.0870(5) 0.8871(5)
N12 N 0.1607(5) -0.1641(4) 0.7280(5)
N13 N 0.2306(4) -0.1033(4) 0.6098(4)
N14 N 0.3424(5) -0.0239(4) 0.7657(5)
C1 C -0.0438(5) -0.0749(5) 0.5553(6)
C2 C 0.1008(5) 0.0108(5) 0.6306(6)
C3 C 0.0552(5) 0.0861(5) 0.4573(6)
C4 C 0.0249(5) 0.0197(4) 0.1707(6)
C5 C 0.0350(6) -0.0668(5) 0.1715(7)
C6 C 0.0900(6) -0.0887(6) 0.1307(7)
C7 C 0.1724(6) -0.0490(5) 0.1866(7)
C8 C 0.1648(6) 0.0326(6) 0.1880(8)
C9 C 0.1089(4) 0.0555(5) 0.2294(6)
C10 C -0.0865(5) 0.2425(4) 0.3164(6)
C11 C -0.1605(6) 0.2691(6) 0.3186(7)
C12 C -0.1451(6) 0.3399(6) 0.3740(7)
C13 C -0.1100(7) 0.4017(6) 0.3343(8)
C14 C -0.0350(6) 0.3710(6) 0.3318(7)
C15 C -0.0530(5) 0.3008(4) 0.2760(5)
C16 C -0.0539(5) 0.2236(5) 0.0412(6)
C17 C 0.3989(6) -0.1987(5) 0.8655(6)
C18 C 0.0371(6) 0.3866(5) -0.0575(6)
C19 C 0.2647(5) -0.0331(4) 0.5888(6)
C20 C 0.2668(6) -0.0386(6) 0.4951(6)
C21 C 0.3017(6) 0.0331(5) 0.4754(7)
C22 C 0.3903(6) 0.0411(6) 0.5646(8)
C23 C 0.3891(6) 0.0460(6) 0.6609(7)
C24 C 0.3482(4) -0.0241(5) 0.6760(5)
C25 C 0.2100(5) -0.1287(4) 0.8985(5)
C26 C 0.2400(7) -0.1545(6) 1.0061(7)
C27 C 0.1721(7) -0.2008(6) 1.0091(6)
C28 C 0.1383(7) -0.2612(6) 0.9399(7)
C29 C 0.1135(6) -0.2357(6) 0.8305(7)
C30 C 0.1817(5) -0.1939(5) 0.8278(5)
H1 H -0.00010 0.03770 0.10130
H2 H -0.01210 0.01850 0.26910
H3 H -0.07760 0.03810 0.16870
H4 H 0.05770 -0.08560 0.23960
H5 H -0.01840 -0.09040 0.13160
H6 H 0.14030 0.16050 0.27900
H7 H 0.08820 0.15860 0.17020
H8 H 0.06420 -0.07510 0.06040
H9 H 0.09810 -0.14360 0.13610
H10 H -0.14280 0.17540 0.19970
H11 H -0.10370 0.13250 0.29360
H12 H 0.20100 -0.06780 0.25490
H13 H 0.20530 -0.06180 0.15510
H14 H 0.06310 0.27250 0.33670
H15 H 0.02800 0.28940 0.23000
H16 H 0.14290 0.05230 0.12040
H17 H 0.21870 0.05500 0.22880
H18 H 0.13350 0.03770 0.29890
H19 H -0.04440 0.23260 0.38580
H20 H -0.20450 0.27680 0.25060
H21 H -0.17810 0.23030 0.34950
H22 H 0.26960 -0.03760 0.90320
H23 H 0.32100 -0.10590 0.92910
H24 H -0.10670 0.33050 0.44410
H25 H -0.19610 0.35820 0.36940
H26 H 0.11240 -0.13900 0.70130
H27 H 0.15640 -0.20260 0.68640
H28 H -0.15120 0.41680 0.26730
H29 H -0.09510 0.44640 0.37720
H30 H 0.17630 -0.10690 0.56660
H31 H 0.25560 -0.14530 0.60340
H32 H -0.01570 0.40880 0.30150
H33 H 0.00850 0.36220 0.39980
H34 H 0.39010 -0.04020 0.81740
H35 H 0.33240 0.02390 0.77910
H36 H -0.09430 0.31140 0.20640
H37 H 0.23100 0.01080 0.58570
H38 H 0.21150 -0.04680 0.44050
H39 H 0.30010 -0.08210 0.49780
H40 H 0.26880 0.07720 0.47190
H41 H 0.30280 0.02890 0.41270
H42 H 0.42280 -0.00270 0.56600
H43 H 0.41570 0.08670 0.55580
H44 H 0.35950 0.09150 0.66120
H45 H 0.44500 0.05000 0.71570
H46 H 0.38060 -0.06890 0.67800
H47 H 0.16290 -0.09470 0.87970
H48 H 0.28910 -0.18550 1.02910
H49 H 0.25320 -0.11030 1.04970
H50 H 0.19370 -0.22190 1.07600
H51 H 0.12800 -0.16610 0.99850
H52 H 0.09010 -0.28070 0.94140
H53 H 0.17800 -0.30240 0.95960
H54 H 0.09930 -0.28030 0.78760
H55 H 0.06540 -0.20290 0.80500
H56 H 0.22780 -0.22940 0.84850
Ru2B Ru 0.50000 -0.19527(3) 1.00000
Ru2_2 Ru 0.00000 0.30473(3) 1.00000
Ru2B_2 Ru -0.50000 -0.19527(3) 0.00000
Cu1A Cu 0.00204(8) 0.15610(8) 0.75502(9)
Cu2A Cu -0.25004(7) -0.09417(8) 0.25298(8)
N1A N 0.0595(5) -0.1232(5) 0.4085(6)
N2A N -0.1597(5) 0.0162(4) 0.2901(5)
N3A N -0.0872(5) 0.1315(5) 0.5680(6)
N4A N 0.0241(4) 0.0452(4) 0.7869(5)
N5A N -0.0959(4) 0.1382(4) 0.7717(5)
N6A N 0.0974(6) 0.1721(4) 0.7398(6)
N7A N -0.0184(5) 0.2662(5) 0.7239(5)
N8A N 0.0880(5) 0.1807(5) 0.9427(6)
N9A N -0.3439(5) -0.2015(5) 0.2101(5)
N10A N -0.0546(6) 0.4342(6) 0.0937(6)
N11A N -0.2708(4) -0.0870(5) 0.1129(5)
N12A N -0.1607(5) -0.1641(4) 0.2720(5)
N13A N -0.2306(4) -0.1033(4) 0.3902(4)
N14A N -0.3424(5) -0.0239(4) 0.2343(5)
C1A C 0.0438(5) -0.0749(5) 0.4447(6)
C2A C -0.1008(5) 0.0108(5) 0.3694(6)
C3A C -0.0552(5) 0.0861(5) 0.5427(6)
C4A C -0.0249(5) 0.0197(4) 0.8293(6)
C5A C -0.0350(6) -0.0668(5) 0.8285(7)
C6A C -0.0900(6) -0.0887(6) 0.8693(7)
C7A C -0.1724(6) -0.0490(5) 0.8134(7)
C8A C -0.1648(6) 0.0326(6) 0.8120(8)
C9A C -0.1089(4) 0.0555(5) 0.7706(6)
C10A C 0.0865(5) 0.2425(4) 0.6836(6)
C11A C 0.1605(6) 0.2691(6) 0.6814(7)
C12A C 0.1451(6) 0.3399(6) 0.6260(7)
C13A C 0.1100(7) 0.4017(6) 0.6657(8)
C14A C 0.0350(6) 0.3710(6) 0.6682(7)
C15A C 0.0530(5) 0.3008(4) 0.7240(5)
C16A C 0.0539(5) 0.2236(5) 0.9588(6)
C16A_2 C 0.0539(5) 0.2236(5) -0.0412(6)
C17A C -0.3989(6) -0.1987(5) 0.1345(6)
C17C C 0.1011(6) 0.3013(5) 0.1345(6)
C17B C -0.1011(6) 0.3013(5) -0.1345(6)
C18A C -0.0371(6) 0.3866(5) 0.0575(6)
C19A C -0.2647(5) -0.0331(4) 0.4112(6)
C20A C -0.2668(6) -0.0386(6) 0.5049(6)
C21A C -0.3017(6) 0.0331(5) 0.5246(7)
C22A C -0.3903(6) 0.0411(6) 0.4354(8)
C23A C -0.3891(6) 0.0460(6) 0.3391(7)
C24A C -0.3482(4) -0.0241(5) 0.3240(5)
C25A C -0.2100(5) -0.1287(4) 0.1015(5)
C26A C -0.2400(7) -0.1545(6) -0.0061(7)
C27A C -0.1721(7) -0.2008(6) -0.0091(6)
C28A C -0.1383(7) -0.2612(6) 0.0601(7)
C29A C -0.1135(6) -0.2357(6) 0.1695(7)
C30A C -0.1817(5) -0.1939(5) 0.1722(5)
H1A H 0.00010 0.03770 0.89870
H2A H 0.01210 0.01850 0.73090
H3A H 0.07760 0.03810 0.83130
H4A H -0.05770 -0.08560 0.76040
H5A H 0.01840 -0.09040 0.86840
H6A H -0.14030 0.16050 0.72100
H7A H -0.08820 0.15860 0.82980
H8A H -0.06420 -0.07510 0.93960
H9A H -0.09810 -0.14360 0.86390
H10A H 0.14280 0.17540 0.80030
H11A H 0.10370 0.13250 0.70640
H12A H -0.20100 -0.06780 0.74510
H13A H -0.20530 -0.06180 0.84490
H14A H -0.06310 0.27250 0.66330
H15A H -0.02800 0.28940 0.77000
H16A H -0.14290 0.05230 0.87960
H17A H -0.21870 0.05500 0.77120
H18A H -0.13350 0.03770 0.70110
H19A H 0.04440 0.23260 0.61420
H20A H 0.20450 0.27680 0.74940
H21A H 0.17810 0.23030 0.65050
H22A H -0.26960 -0.03760 0.09680
H23A H -0.32100 -0.10590 0.07090
H24A H 0.10670 0.33050 0.55590
H25A H 0.19610 0.35820 0.63060
H26A H -0.11240 -0.13900 0.29870
H27A H -0.15640 -0.20260 0.31360
H28A H 0.15120 0.41680 0.73270
H29A H 0.09510 0.44640 0.62280
H30A H -0.17630 -0.10690 0.43340
H31A H -0.25560 -0.14530 0.39660
H32A H 0.01570 0.40880 0.69850
H33A H -0.00850 0.36220 0.60020
H34A H -0.39010 -0.04020 0.18260
H35A H -0.33240 0.02390 0.22090
H36A H 0.09430 0.31140 0.79360
H37A H -0.23100 0.01080 0.41430
H38A H -0.21150 -0.04680 0.55950
H39A H -0.30010 -0.08210 0.50220
H40A H -0.26880 0.07720 0.52810
H41A H -0.30280 0.02890 0.58730
H42A H -0.42280 -0.00270 0.43400
H43A H -0.41570 0.08670 0.44420
H44A H -0.35950 0.09150 0.33880
H45A H -0.44500 0.05000 0.28430
H46A H -0.38060 -0.06890 0.32200
H47A H -0.16290 -0.09470 0.12030
H48A H -0.28910 -0.18550 -0.02910
H49A H -0.25320 -0.11030 -0.04970
H50A H -0.19370 -0.22190 -0.07600
H51A H -0.12800 -0.16610 0.00150
H52A H -0.09010 -0.28070 0.05860
H53A H -0.17800 -0.30240 0.04040
H54A H -0.09930 -0.28030 0.21240
H55A H -0.06540 -0.20290 0.19500
H56A H -0.22780 -0.22940 0.15150
O1 O 0.5214(5) 0.2228(4) 0.4293(7)
O2 O 0.3385(5) 0.2756(5) 0.6373(6)
O3 O 0.2065(4) 0.2362(4) 0.4580(5)
O4 O 0.2978(4) 0.5665(4) 0.0378(5)
O5 O 0.6078(8) 0.1958(6) 0.1831(8)
O6 O 0.2068(12) 0.6064(7) 0.1296(12)
O7 O 0.3363(6) 0.0298(6) 0.1359(6)
O8 O 0.3915(5) 0.1052(5) 0.3215(6)
O9 O 0.2858(9) 0.2047(6) 0.3562(10)
loop_
_geom_bond_atom_site_label_1
_geom_bond_atom_site_label_2
_geom_bond_site_symmetry_1
_geom_bond_site_symmetry_2
Ru1 C1 1_555 1_555
Ru2 C16 1_555 1_555
Cu1 N3 1_555 1_555
Cu2 N2 1_555 1_555
N1 C1 1_555 1_555
N2 C2 1_555 1_555
N3 C3 1_555 1_555
N4 Cu1 1_555 1_555
N5 Cu1 1_555 1_555
N6 Cu1 1_555 1_555
N7 Cu1 1_555 1_555
N8 Cu1 1_555 1_555
N9 Cu2 1_555 1_555
N10 C18 1_555 1_555
N11 Cu2 1_555 1_555
N12 Cu2 1_555 1_555
N13 Cu2 1_555 1_555
N14 Cu2 1_555 1_555
C2 Ru1 1_555 1_555
C3 Ru1 1_555 1_555
C4 N4 1_555 1_555
C5 C4 1_555 1_555
C6 C5 1_555 1_555
C7 C6 1_555 1_555
C8 C7 1_555 1_555
C9 N5 1_555 1_555
C10 N6 1_555 1_555
C11 C10 1_555 1_555
C12 C11 1_555 1_555
C13 C12 1_555 1_555
C14 C13 1_555 1_555
C15 N7 1_555 1_555
C16 N8 1_555 1_555
C17 N9 1_555 1_555
C18 Ru2 1_555 1_555
C19 N13 1_555 1_555
C20 C19 1_555 1_555
C21 C20 1_555 1_555
C22 C21 1_555 1_555
C23 C22 1_555 1_555
C24 N14 1_555 1_555
C25 N11 1_555 1_555
C26 C25 1_555 1_555
C27 C26 1_555 1_555
C28 C27 1_555 1_555
C29 C28 1_555 1_555
C30 N12 1_555 1_555
H1 C4 1_555 1_555
H2 N4 1_555 1_555
H3 N4 1_555 1_555
H4 C5 1_555 1_555
H5 C5 1_555 1_555
H6 N5 1_555 1_555
H7 N5 1_555 1_555
H8 C6 1_555 1_555
H9 C6 1_555 1_555
H10 N6 1_555 1_555
H11 N6 1_555 1_555
H12 C7 1_555 1_555
H13 C7 1_555 1_555
H14 N7 1_555 1_555
H15 N7 1_555 1_555
H16 C8 1_555 1_555
H17 C8 1_555 1_555
H18 C9 1_555 1_555
H19 C10 1_555 1_555
H20 C11 1_555 1_555
H21 C11 1_555 1_555
H22 N11 1_555 1_555
H23 N11 1_555 1_555
H24 C12 1_555 1_555
H25 C12 1_555 1_555
H26 N12 1_555 1_555
H27 N12 1_555 1_555
H28 C13 1_555 1_555
H29 C13 1_555 1_555
H30 N13 1_555 1_555
H31 N13 1_555 1_555
H32 C14 1_555 1_555
H33 C14 1_555 1_555
H34 N14 1_555 1_555
H35 N14 1_555 1_555
H36 C15 1_555 1_555
H37 C19 1_555 1_555
H38 C20 1_555 1_555
H39 C20 1_555 1_555
H40 C21 1_555 1_555
H41 C21 1_555 1_555
H42 C22 1_555 1_555
H43 C22 1_555 1_555
H44 C23 1_555 1_555
H45 C23 1_555 1_555
H46 C24 1_555 1_555
H47 C25 1_555 1_555
H48 C26 1_555 1_555
H49 C26 1_555 1_555
H50 C27 1_555 1_555
H51 C27 1_555 1_555
H52 C28 1_555 1_555
H53 C28 1_555 1_555
H54 C29 1_555 1_555
H55 C29 1_555 1_555
H56 C30 1_555 1_555
Ru2B C17 1_555 1_555
Ru2_2 C16A 1_555 1_555
Ru2B_2 C17A 1_555 1_555
Cu1A N3A 1_555 1_555
Cu2A N2A 1_555 1_555
N1A C1A 1_555 1_555
N2A C2A 1_555 1_555
N3A C3A 1_555 1_555
N4A Cu1A 1_555 1_555
N5A Cu1A 1_555 1_555
N6A Cu1A 1_555 1_555
N7A Cu1A 1_555 1_555
N8A Cu1A 1_555 1_555
N9A Cu2A 1_555 1_555
N10A C18A 1_555 1_555
N11A Cu2A 1_555 1_555
N12A Cu2A 1_555 1_555
N13A Cu2A 1_555 1_555
N14A Cu2A 1_555 1_555
C1A Ru1 1_555 1_555
C2A Ru1 1_555 1_555
C3A Ru1 1_555 1_555
C4A N4A 1_555 1_555
C5A C4A 1_555 1_555
C6A C5A 1_555 1_555
C7A C6A 1_555 1_555
C8A C7A 1_555 1_555
C9A N5A 1_555 1_555
C10A N6A 1_555 1_555
C11A C10A 1_555 1_555
C12A C11A 1_555 1_555
C13A C12A 1_555 1_555
C14A C13A 1_555 1_555
C15A N7A 1_555 1_555
C16A N8A 1_555 1_555
C16A_2 Ru2 1_555 1_555
C17A N9A 1_555 1_555
C17C Ru2 1_555 1_555
C17B Ru2 1_555 1_555
C18A Ru2 1_555 1_555
C19A N13A 1_555 1_555
C20A C19A 1_555 1_555
C21A C20A 1_555 1_555
C22A C21A 1_555 1_555
C23A C22A 1_555 1_555
C24A N14A 1_555 1_555
C25A N11A 1_555 1_555
C26A C25A 1_555 1_555
C27A C26A 1_555 1_555
C28A C27A 1_555 1_555
C29A C28A 1_555 1_555
C30A N12A 1_555 1_555
H1A C4A 1_555 1_555
H2A N4A 1_555 1_555
H3A N4A 1_555 1_555
H4A C5A 1_555 1_555
H5A C5A 1_555 1_555
H6A N5A 1_555 1_555
H7A N5A 1_555 1_555
H8A C6A 1_555 1_555
H9A C6A 1_555 1_555
H10A N6A 1_555 1_555
H11A N6A 1_555 1_555
H12A C7A 1_555 1_555
H13A C7A 1_555 1_555
H14A N7A 1_555 1_555
H15A N7A 1_555 1_555
H16A C8A 1_555 1_555
H17A C8A 1_555 1_555
H18A C9A 1_555 1_555
H19A C10A 1_555 1_555
H20A C11A 1_555 1_555
H21A C11A 1_555 1_555
H22A N11A 1_555 1_555
H23A N11A 1_555 1_555
H24A C12A 1_555 1_555
H25A C12A 1_555 1_555
H26A N12A 1_555 1_555
H27A N12A 1_555 1_555
H28A C13A 1_555 1_555
H29A C13A 1_555 1_555
H30A N13A 1_555 1_555
H31A N13A 1_555 1_555
H32A C14A 1_555 1_555
H33A C14A 1_555 1_555
H34A N14A 1_555 1_555
H35A N14A 1_555 1_555
H36A C15A 1_555 1_555
H37A C19A 1_555 1_555
H38A C20A 1_555 1_555
H39A C20A 1_555 1_555
H40A C21A 1_555 1_555
H41A C21A 1_555 1_555
H42A C22A 1_555 1_555
H43A C22A 1_555 1_555
H44A C23A 1_555 1_555
H45A C23A 1_555 1_555
H46A C24A 1_555 1_555
H47A C25A 1_555 1_555
H48A C26A 1_555 1_555
H49A C26A 1_555 1_555
H50A C27A 1_555 1_555
H51A C27A 1_555 1_555
H52A C28A 1_555 1_555
H53A C28A 1_555 1_555
H54A C29A 1_555 1_555
H55A C29A 1_555 1_555
H56A C30A 1_555 1_555
C4 C9 1_555 1_555
C8 C9 1_555 1_555
C10 C15 1_555 1_555
C14 C15 1_555 1_555
C19 C24 1_555 1_555
C23 C24 1_555 1_555
C25 C30 1_555 1_555
C29 C30 1_555 1_555
C4A C9A 1_555 1_555
C8A C9A 1_555 1_555
C10A C15A 1_555 1_555
C14A C15A 1_555 1_555
C19A C24A 1_555 1_555
C23A C24A 1_555 1_555
C25A C30A 1_555 1_555
C29A C30A 1_555 1_555

#END
