
#######################################################################
#
#                 Cambridge Crystallographic Data Centre
#                                CCDC 
#
#######################################################################
#
# If this CIF has been generated from an entry in the Cambridge 
# Structural Database, then it will include bibliographic, chemical, 
# crystal, experimental, refinement or atomic coordinate data resulting 
# from the CCDC's data processing and validation procedures.
#
#######################################################################

data_FUFLEY
_symmetry_cell_setting           triclinic
_symmetry_space_group_name_H-M   'P -1'
_symmetry_Int_Tables_number      2
_space_group_name_Hall           '-P 1'
loop_
_symmetry_equiv_pos_site_id
_symmetry_equiv_pos_as_xyz
1 x,y,z
2 -x,-y,-z
_cell_length_a                   7.7143(7)
_cell_length_b                   7.8308(7)
_cell_length_c                   16.1529(14)
_cell_angle_alpha                95.474(7)
_cell_angle_beta                 95.669(7)
_cell_angle_gamma                91.569(7)
_cell_volume                     965.915
loop_
_atom_site_label
_atom_site_type_symbol
_atom_site_fract_x
_atom_site_fract_y
_atom_site_fract_z
Cd1 Cd 0.42124(1) 0.64437(1) 0.32976(1)
Cd2 Cd 0.00000 1.00000 0.00000
Cr1 Cr 1.00000 1.00000 0.50000
Cr2 Cr 0.50000 1.50000 0.00000
N1 N 0.1244(2) 0.5603(2) 0.29421(9)
N2 N 0.0039(3) 0.9843(2) 0.14446(11)
N3 N 0.4952(2) 0.37860(19) 0.37165(9)
N4 N 0.7145(2) 0.7355(2) 0.39255(10)
N5 N 0.4213(2) -0.06107(19) 0.31320(10)
N6 N 0.3073(2) 0.7401(2) 0.46209(9)
N7 N 0.5174(2) 0.58912(18) 0.19943(9)
N8 N 1.0910(2) 1.1791(2) 0.33668(10)
N9 N 0.2036(2) 1.2214(2) 0.02687(10)
N10 N -0.2223(2) 1.2018(2) 0.02017(10)
C1 C 0.0511(2) 0.5257(2) 0.20538(11)
C2 C 0.0706(2) 0.6824(2) 0.15766(10)
C3 C -0.0443(3) 0.8278(2) 0.18261(11)
C4 C 0.6195(2) 0.2880(2) 0.31972(11)
C5 C 0.5264(3) 0.1900(2) 0.24022(11)
C6 C 0.8194(2) 0.8282(2) 0.42986(10)
C7 C 0.5132(3) -0.0039(2) 0.24401(11)
C8 C 0.1980(2) 0.8315(2) 0.47865(10)
C9 C 0.51958(19) 0.56123(18) 0.12824(9)
C10 C 1.0531(2) 1.1156(2) 0.39425(11)
C11 C 0.3067(2) 1.32296(19) 0.01582(10)
C12 C -0.3208(2) 1.3092(2) 0.01471(10)
H1 H 0.072(3) 0.642(4) 0.3211(17)
H2 H 0.110(3) 0.467(4) 0.3168(17)
H3 H -0.07390 0.49160 0.20290
H4 H 0.11180 0.42900 0.17830
H5 H 0.100(5) 1.010(4) 0.166(2)
H6 H -0.045(4) 1.066(4) 0.162(2)
H7 H 0.19370 0.72490 0.16670
H8 H 0.04310 0.64720 0.09720
H9 H 0.546(3) 0.394(3) 0.4218(18)
H10 H 0.411(4) 0.314(4) 0.3723(17)
H11 H -0.16770 0.79400 0.16420
H12 H -0.03200 0.85180 0.24420
H13 H 0.68450 0.20630 0.35310
H14 H 0.70490 0.37270 0.30390
H15 H 0.325(4) -0.024(4) 0.3149(17)
H16 H 0.485(4) -0.021(3) 0.3628(17)
H17 H 0.40740 0.23320 0.23050
H18 H 0.58980 0.21410 0.19200
H19 H 0.45250 -0.05700 0.19050
H20 H 0.63260 -0.04760 0.24890
Cd1A Cd -0.42124(1) 1.35563(1) -0.32976(1)
Cd1_2 Cd 0.42124(1) -0.35563(1) 0.32976(1)
Cd1_3 Cd 0.42124(1) 1.64437(1) 0.32976(1)
Cr1_2 Cr 0.00000 1.00000 0.50000
Cr1_3 Cr -1.00000 1.00000 -0.50000
Cr1_4 Cr 0.00000 1.00000 -0.50000
Cr2_2 Cr 0.50000 0.50000 0.00000
Cr2_3 Cr -0.50000 1.50000 0.00000
Cr2_4 Cr -0.50000 0.50000 0.00000
N1A N -0.1244(2) 1.4397(2) -0.29421(9)
N2A N -0.0039(3) 1.0157(2) -0.14446(11)
N3_2 N 0.4952(2) 1.37860(19) 0.37165(9)
N3A N -0.4952(2) 1.62140(19) -0.37165(9)
N4A N -0.7145(2) 1.2645(2) -0.39255(10)
N5_2 N 0.4213(2) 0.93893(19) 0.31320(10)
N5A N -0.4213(2) 1.06107(19) -0.31320(10)
N6A N -0.3073(2) 1.2599(2) -0.46209(9)
N7_2 N 0.5174(2) 1.58912(18) 0.19943(9)
N7A N -0.5174(2) 1.41088(18) -0.19943(9)
N8A N 0.9090(2) 0.8209(2) 0.66332(10)
N9A N -0.2036(2) 0.7786(2) -0.02687(10)
N10A N 0.2223(2) 0.7982(2) -0.02017(10)
C1A C -0.0511(2) 1.4743(2) -0.20538(11)
C2A C -0.0706(2) 1.3176(2) -0.15766(10)
C3A C 0.0443(3) 1.1722(2) -0.18261(11)
C4_2 C 0.6195(2) 1.2880(2) 0.31972(11)
C5_2 C 0.5264(3) 1.1900(2) 0.24022(11)
C6A C -0.8194(2) 1.1718(2) -0.42986(10)
C6A_2 C 1.1806(2) 1.1718(2) 0.57014(10)
C7_2 C 0.5132(3) 0.9961(2) 0.24401(11)
C8A C -0.1980(2) 1.1685(2) -0.47865(10)
C8_2 C 1.1980(2) 0.8315(2) 0.47865(10)
C8A_2 C 0.8020(2) 1.1685(2) 0.52135(10)
C9_2 C 0.51958(19) 1.56123(18) 0.12824(9)
C9A C 0.48042(19) 1.43877(18) -0.12824(9)
C10A C 0.9469(2) 0.8844(2) 0.60575(11)
C11A C -0.3067(2) 0.67704(19) -0.01582(10)
C11A_2 C 0.6933(2) 1.67704(19) -0.01582(10)
C12A C 0.3208(2) 0.6908(2) -0.01471(10)
C12_2 C 0.6792(2) 1.3092(2) 0.01471(10)
C12A_2 C 0.3208(2) 1.6908(2) -0.01471(10)
H1A H -0.072(3) 1.358(4) -0.3211(17)
H2A H -0.110(3) 1.533(4) -0.3168(17)
H3A H 0.07390 1.50840 -0.20290
H4A H -0.11180 1.57100 -0.17830
H5A H -0.100(5) 0.990(4) -0.166(2)
H6A H 0.045(4) 0.934(4) -0.162(2)
H7A H -0.19370 1.27510 -0.16670
H8A H -0.04310 1.35280 -0.09720
H9_2 H 0.546(3) 1.394(3) 0.4218(18)
H9A H -0.546(3) 1.606(3) -0.4218(18)
H10_2 H 0.411(4) 1.314(4) 0.3723(17)
H10A H -0.411(4) 1.686(4) -0.3723(17)
H11A H 0.16770 1.20600 -0.16420
H12A H 0.03200 1.14820 -0.24420
H13_2 H 0.68450 1.20630 0.35310
H14_2 H 0.70490 1.37270 0.30390
H15_2 H 0.325(4) 0.976(4) 0.3149(17)
H15A H -0.325(4) 1.024(4) -0.3149(17)
H16_2 H 0.485(4) 0.979(3) 0.3628(17)
H16A H -0.485(4) 1.021(3) -0.3628(17)
H17_2 H 0.40740 1.23320 0.23050
H18_2 H 0.58980 1.21410 0.19200
H19_2 H 0.45250 0.94300 0.19050
H20_2 H 0.63260 0.95240 0.24890
loop_
_geom_bond_atom_site_label_1
_geom_bond_atom_site_label_2
_geom_bond_site_symmetry_1
_geom_bond_site_symmetry_2
Cd1 N1 1_555 1_555
Cd2 N2 1_555 1_555
Cr1 C6 1_555 1_555
Cr2 C11 1_555 1_555
N1 C1 1_555 1_555
N2 C3 1_555 1_555
N3 Cd1 1_555 1_555
N4 Cd1 1_555 1_555
N5 C7 1_555 1_555
N6 Cd1 1_555 1_555
N7 Cd1 1_555 1_555
N8 C10 1_555 1_555
N9 Cd2 1_555 1_555
N10 Cd2 1_555 1_555
C1 C2 1_555 1_555
C2 C3 1_555 1_555
C3 H11 1_555 1_555
C4 N3 1_555 1_555
C5 C4 1_555 1_555
C6 N4 1_555 1_555
C7 C5 1_555 1_555
C8 N6 1_555 1_555
C9 N7 1_555 1_555
C10 Cr1 1_555 1_555
C11 N9 1_555 1_555
C12 N10 1_555 1_555
H1 N1 1_555 1_555
H2 N1 1_555 1_555
H3 C1 1_555 1_555
H4 C1 1_555 1_555
H5 N2 1_555 1_555
H6 N2 1_555 1_555
H7 C2 1_555 1_555
H8 C2 1_555 1_555
H9 N3 1_555 1_555
H10 N3 1_555 1_555
H12 C3 1_555 1_555
H13 C4 1_555 1_555
H14 C4 1_555 1_555
H15 N5 1_555 1_555
H16 N5 1_555 1_555
H17 C5 1_555 1_555
H18 C5 1_555 1_555
H19 C7 1_555 1_555
H20 C7 1_555 1_555
Cd1A N1A 1_555 1_555
Cd1_2 N5 1_555 1_555
Cd1_3 N3_2 1_555 1_555
Cr1_2 C8 1_555 1_555
Cr1_3 C6A 1_555 1_555
Cr1_4 C8A 1_555 1_555
Cr2_2 C9 1_555 1_555
Cr2_3 C12 1_555 1_555
Cr2_4 C11A 1_555 1_555
N1A C1A 1_555 1_555
N2A Cd2 1_555 1_555
N3_2 C4_2 1_555 1_555
N3A Cd1A 1_555 1_555
N4A Cd1A 1_555 1_555
N5_2 Cd1 1_555 1_555
N5A Cd1A 1_555 1_555
N6A Cd1A 1_555 1_555
N7_2 Cd1_3 1_555 1_555
N7A Cd1A 1_555 1_555
N8A C10A 1_555 1_555
N9A Cd2 1_555 1_555
N10A Cd2 1_555 1_555
C1A C2A 1_555 1_555
C2A C3A 1_555 1_555
C3A N2A 1_555 1_555
C4_2 C5_2 1_555 1_555
C5_2 C7_2 1_555 1_555
C6A N4A 1_555 1_555
C6A_2 Cr1 1_555 1_555
C7_2 N5_2 1_555 1_555
C8A N6A 1_555 1_555
C8_2 Cr1 1_555 1_555
C8A_2 Cr1 1_555 1_555
C9_2 Cr2 1_555 1_555
C9A Cr2 1_555 1_555
C10A Cr1 1_555 1_555
C11A N9A 1_555 1_555
C11A_2 Cr2 1_555 1_555
C12A Cr2_2 1_555 1_555
C12_2 Cr2 1_555 1_555
C12A_2 Cr2 1_555 1_555
H1A N1A 1_555 1_555
H2A N1A 1_555 1_555
H3A C1A 1_555 1_555
H4A C1A 1_555 1_555
H5A N2A 1_555 1_555
H6A N2A 1_555 1_555
H7A C2A 1_555 1_555
H8A C2A 1_555 1_555
H9_2 N3_2 1_555 1_555
H9A N3A 1_555 1_555
H10_2 N3_2 1_555 1_555
H10A N3A 1_555 1_555
H11A C3A 1_555 1_555
H12A C3A 1_555 1_555
H13_2 C4_2 1_555 1_555
H14_2 C4_2 1_555 1_555
H15_2 N5_2 1_555 1_555
H15A N5A 1_555 1_555
H16_2 N5_2 1_555 1_555
H16A N5A 1_555 1_555
H17_2 C5_2 1_555 1_555
H18_2 C5_2 1_555 1_555
H19_2 C7_2 1_555 1_555
H20_2 C7_2 1_555 1_555
N7_2 C9_2 1_555 1_555
N10A C12A 1_555 1_555

#END
