
#######################################################################
#
#                 Cambridge Crystallographic Data Centre
#                                CCDC 
#
#######################################################################
#
# If this CIF has been generated from an entry in the Cambridge 
# Structural Database, then it will include bibliographic, chemical, 
# crystal, experimental, refinement or atomic coordinate data resulting 
# from the CCDC's data processing and validation procedures.
#
#######################################################################

data_FUFLUO
_symmetry_cell_setting           triclinic
_symmetry_space_group_name_H-M   'P 1'
_symmetry_Int_Tables_number      1
_space_group_name_Hall           'P 1'
loop_
_symmetry_equiv_pos_site_id
_symmetry_equiv_pos_as_xyz
1 x,y,z
_cell_length_a                   13.7183(8)
_cell_length_b                   21.3378(12)
_cell_length_c                   24.4177(13)
_cell_angle_alpha                68.715(4)
_cell_angle_beta                 78.284(4)
_cell_angle_gamma                73.004(5)
_cell_volume                     6331.27
loop_
_atom_site_label
_atom_site_type_symbol
_atom_site_fract_x
_atom_site_fract_y
_atom_site_fract_z
Ru1 Ru 0.27857(6) 0.16228(4) 0.76734(4)
Ru2 Ru 0.35866(6) -0.70270(4) 1.35752(4)
Ru3 Ru -0.13080(6) -0.49116(4) 1.09441(4)
Ru4 Ru -0.06855(6) 0.64226(4) 0.68522(4)
Ru5 Ru -0.25610(5) -0.03548(4) 1.01649(3)
Ru6 Ru -0.53571(6) -0.16112(4) 1.43340(3)
Cu1 Cu 0.04676(9) 0.03759(7) 0.91259(6)
Cu2 Cu 0.11059(13) 0.40363(10) 0.72328(8)
Cu3 Cu 0.22612(10) -0.73022(7) 1.56842(6)
Cu4 Cu -0.39140(13) -0.59052(8) 1.22870(7)
Cu5 Cu -0.01067(9) -0.46759(6) 0.88122(6)
Cu6 Cu 0.15054(9) 0.76468(7) 0.54115(6)
Cu7 Cu -0.18097(9) -0.26048(7) 1.02492(6)
Cu8 Cu -0.42399(9) 0.10957(7) 0.85263(6)
Cu9 Cu 0.12291(9) -0.59526(8) 1.22204(7)
Cu10 Cu -0.60122(9) 0.06468(7) 1.42891(7)
Cu11 Cu -0.38817(12) -0.10136(9) 1.22599(8)
Cu12 Cu -0.37381(9) -0.30620(7) 1.59715(6)
N1 N 0.0574(7) 0.1295(5) 0.7999(5)
N2 N 0.1783(7) 0.3082(5) 0.6735(4)
N3 N -0.0206(7) 0.4275(5) 0.6870(4)
H1 H -0.0608 0.4694 0.6895
H2 H -0.0063 0.4306 0.6477
N4 N 0.0440(6) 0.3389(5) 0.7930(4)
H3 H 0.0749 0.2936 0.7952
H4 H 0.0506 0.3448 0.8275
N5 N 0.1774(6) 0.4694(5) 0.6559(4)
H5 H 0.1962 0.4534 0.6240
H6 H 0.1324 0.5121 0.6446
N6 N 0.2460(6) 0.3744(5) 0.7582(4)
H7 H 0.2381 0.3902 0.7896
H8 H 0.2678 0.3268 0.7714
N7 N 0.2633(8) -0.7702(5) 1.4889(4)
N8 N 0.4550(6) -0.6349(4) 1.2263(4)
N9 N -0.2235(7) -0.5507(5) 1.2297(4)
N10 N -0.0482(8) -0.4279(5) 0.9590(4)
N11 N 0.0425(7) 0.4966(5) 0.7729(4)
N12 N 0.1499(8) 0.6812(6) 0.6449(5)
N13 N 0.0685(6) 0.7300(4) 0.5023(4)
H9 H 0.0402 0.6957 0.5301
H10 H 0.0166 0.7657 0.4844
N14 N 0.2727(6) 0.7010(4) 0.5110(4)
H11 H 0.3123 0.7267 0.4814
H12 H 0.3123 0.6732 0.5412
N15 N 0.0297(7) 0.8373(5) 0.5573(4)
H13 H 0.0119 0.8712 0.5223
H14 H -0.0253 0.8179 0.5751
N16 N 0.2304(6) 0.8125(4) 0.5688(4)
H15 H 0.2534 0.7842 0.6046
H16 H 0.2865 0.8211 0.5419
N17 N -0.0052(8) 0.5781(5) 0.5812(5)
N18 N -0.1733(6) 0.7808(5) 0.5891(5)
N19 N -0.1454(9) 0.7308(6) 0.7746(5)
N20 N -0.2602(7) 0.5726(5) 0.7262(5)
N21 N -0.1592(7) -0.4296(5) 0.8607(4)
H17 H -0.1946 -0.3992 0.8808
H18 H -0.1600 -0.4061 0.8208
N22 N -0.0555(6) -0.5561(5) 0.9267(4)
H19 H -0.0292 -0.5875 0.9066
H20 H -0.0311 -0.5750 0.9631
N23 N 0.1407(6) -0.5144(4) 0.8893(4)
H21 H 0.1537 -0.5253 0.9277
H22 H 0.1576 -0.5547 0.8801
N24 N 0.0408(7) -0.3808(5) 0.8340(4)
H23 H 0.0429 -0.3723 0.7941
H24 H -0.0018 -0.3430 0.8434
N25 N -0.2054(8) -0.3497(5) 1.1245(5)
N26 N -0.1852(7) -0.1329(5) 0.9355(4)
N27 N -0.0153(7) -0.0497(5) 1.0163(4)
N28 N -0.2764(7) -0.1464(5) 1.1452(4)
N29 N -0.2714(7) 0.0887(5) 0.8954(5)
N30 N -0.5330(7) 0.1200(4) 0.9200(4)
H25 H -0.5972 0.1316 0.9082
H26 H -0.5261 0.0792 0.9513
N31 N -0.4365(6) 0.2116(4) 0.8370(4)
H27 H -0.3738 0.2181 0.8385
H28 H -0.4559 0.2367 0.7998
N32 N -0.4178(6) 0.0091(4) 0.8664(4)
H29 H -0.3704 -0.0194 0.8923
H30 H -0.4807 -0.0002 0.8826
N33 N -0.3409(7) 0.1054(5) 0.7752(4)
H31 H -0.3808 0.1303 0.7447
H32 H -0.2862 0.1248 0.7689
N34 N -0.3232(9) 0.0771(6) 1.0829(5)
N35 N -0.4945(7) -0.0248(5) 1.0206(4)
N36 N -0.3271(6) -0.2139(5) 1.0470(4)
H33 H -0.3505 -0.2389 1.0843
H34 H -0.3308 -0.1701 1.0467
N37 N -0.2443(6) -0.2962(5) 0.9789(4)
H35 H -0.2257 -0.2772 0.9391
H36 H -0.2204 -0.3436 0.9891
N38 N -0.0404(6) -0.3005(5) 0.9921(4)
H37 H -0.0264 -0.3481 1.0075
H38 H -0.0380 -0.2884 0.9517
N39 N -0.1040(7) -0.2304(5) 1.0689(4)
H39 H -0.1059 -0.1840 1.0512
H40 H -0.1336 -0.2374 1.1073
N40 N 0.0980(6) -0.5033(5) 1.1128(4)
N41 N -0.0589(7) -0.6386(5) 1.0746(4)
N42 N -0.3470(7) -0.4593(5) 1.0461(4)
N43 N -0.4631(6) -0.5393(4) 1.2866(3)
H41 H -0.5232 -0.5524 1.3045
H42 H -0.4218 -0.5489 1.3154
N44 N -0.4648(7) -0.5067(5) 1.1695(4)
H43 H -0.4177 -0.4864 1.1413
H44 H -0.5039 -0.5196 1.1509
N45 N -0.3261(7) -0.6768(5) 1.2904(4)
H45 H -0.2694 -0.6708 1.3007
H46 H -0.3718 -0.6872 1.3237
N46 N -0.3057(6) -0.6396(4) 1.1706(3)
H47 H -0.3482 -0.6480 1.1507
H48 H -0.2661 -0.6118 1.1432
N47 N 0.1341(8) -0.6796(5) 1.3252(4)
N48 N -0.0083(5) -0.5401(4) 1.2546(4)
H49 H -0.0514 -0.5163 1.2255
H50 H -0.0413 -0.5696 1.2851
N49 N 0.1896(5) -0.5288(4) 1.2343(3)
H51 H 0.2190 -0.5487 1.2692
H52 H 0.2398 -0.5173 1.2037
N50 N 0.0551(6) -0.6573(4) 1.2031(3)
H53 H 0.0259 -0.6844 1.2375
H54 H 0.0042 -0.6304 1.1792
N51 N 0.2532(6) -0.6500(4) 1.1918(4)
H55 H 0.2719 -0.6266 1.1529
H56 H 0.3051 -0.6572 1.2137
N52 N -0.5702(9) 0.1628(6) 1.3182(5)
N53 N -0.6029(8) -0.0543(5) 1.5074(5)
N54 N -0.5020(8) -0.0493(5) 1.3060(4)
N55 N -0.4867(7) -0.1604(5) 1.2414(4)
H57 H -0.4643 -0.1894 1.2189
H58 H -0.4915 -0.1870 1.2806
N56 N -0.4884(7) -0.0281(5) 1.1692(4)
H59 H -0.5172 0.0093 1.1824
H60 H -0.4542 -0.0129 1.1322
N57 N -0.2887(6) -0.1700(5) 1.2823(4)
H61 H -0.3155 -0.1724 1.3205
H62 H -0.2769 -0.2133 1.2790
N58 N -0.2945(7) -0.0380(5) 1.2126(4)
H63 H -0.2603 -0.0302 1.1751
H64 H -0.3326 0.0040 1.2162
N59 N -0.5293(7) -0.2866(5) 1.5553(4)
N60 N -0.4384(7) -0.3147(4) 1.6804(4)
H65 H -0.5043 -0.3195 1.6850
H66 H -0.4013 -0.3527 1.7068
N61 N -0.3957(6) -0.2051(4) 1.5863(4)
H67 H -0.3341 -0.1954 1.5853
H68 H -0.4223 -0.1784 1.5511
N62 N -0.3427(8) -0.4085(5) 1.6106(4)
H69 H -0.2881 -0.4317 1.6325
H70 H -0.3986 -0.4259 1.6303
N63 N -0.2724(7) -0.3060(5) 1.5242(5)
H71 H -0.3030 -0.2753 1.4913
H72 H -0.2172 -0.2913 1.5267
N64 N -0.4631(8) -0.2755(5) 1.3678(5)
N65 N -0.3038(8) -0.1581(6) 1.4299(5)
N66 N -0.7706(7) -0.1426(5) 1.4205(5)
N67 N -0.6709(6) 0.0440(5) 1.3742(4)
H73 H -0.6586 0.0722 1.3360
H74 H -0.6439 -0.0013 1.3752
N68 N -0.7468(7) 0.1039(6) 1.4595(5)
H75 H -0.7666 0.0729 1.4947
H76 H -0.7509 0.1446 1.4658
N69 N -0.4514(7) 0.0255(5) 1.4036(4)
H77 H -0.4364 -0.0221 1.4178
H78 H -0.4396 0.0393 1.3630
N70 N -0.5419(7) 0.0975(5) 1.4793(4)
H79 H -0.5411 0.1434 1.4611
H80 H -0.5809 0.0929 1.5154
N71 N 0.5701(8) -0.7426(6) 1.4127(5)
N72 N 0.2883(8) -0.5519(5) 1.3730(5)
N73 N 0.3724(7) -0.7674(5) 1.5897(4)
H81 H 0.3735 -0.7712 1.6284
H82 H 0.3987 -0.8106 1.5858
N74 N 0.2685(7) -0.6398(5) 1.5267(4)
H83 H 0.2733 -0.6296 1.4864
H84 H 0.2202 -0.6044 1.5369
N75 N 0.1716(7) -0.8136(5) 1.6183(4)
H85 H 0.1951 -0.8478 1.6010
H86 H 0.1942 -0.8306 1.6551
N76 N 0.0793(7) -0.6865(5) 1.5514(4)
H87 H 0.0495 -0.6561 1.5723
H88 H 0.0771 -0.6620 1.5118
N77 N 0.3683(9) 0.0749(6) 0.6781(5)
N78 N 0.3611(6) 0.0218(5) 0.8699(4)
N79 N 0.2290(8) 0.2243(5) 0.8730(5)
N80 N 0.4759(8) 0.2272(6) 0.7295(5)
N81 N -0.0222(6) -0.0042(5) 0.8730(4)
H89 H -0.0597 -0.0331 0.9009
H90 H -0.0655 0.0301 0.8474
N82 N 0.1700(7) -0.0373(5) 0.9046(4)
H91 H 0.2209 -0.0183 0.8789
H92 H 0.1944 -0.0616 0.9407
N83 N 0.1209(6) 0.0844(4) 0.9446(4)
H93 H 0.1528 0.0526 0.9767
H94 H 0.1703 0.1014 0.9160
N84 N -0.0770(6) 0.1076(4) 0.9295(4)
H95 H -0.0883 0.1463 0.8966
H96 H -0.1339 0.0895 0.9404
C1 C 0.1393(9) 0.1397(6) 0.7867(5)
C2 C 0.2164(8) 0.2536(6) 0.7068(5)
C3 C -0.0757(6) 0.3708(4) 0.7206(3)
H97 H -0.0382 0.3287 0.7093
C4 C -0.0665(6) 0.3549(4) 0.7850(4)
H98 H -0.1033 0.3969 0.7966
C5 C -0.1161(8) 0.2957(6) 0.8234(5)
H99 H -0.0776 0.2528 0.8144
H100 H -0.1123 0.2876 0.8655
C6 C -0.2264(9) 0.3108(7) 0.8133(6)
H101 H -0.2671 0.3498 0.8273
H102 H -0.2541 0.2697 0.8364
C7 C -0.2367(8) 0.3291(5) 0.7481(5)
H103 H -0.2039 0.2877 0.7356
H104 H -0.3102 0.3424 0.7423
C8 C -0.1875(9) 0.3878(6) 0.7098(6)
H105 H -0.2253 0.4308 0.7189
H106 H -0.1913 0.3960 0.6676
C9 C 0.2685(6) 0.4751(4) 0.6750(4)
H107 H 0.2439 0.5039 0.7018
C10 C 0.3210(6) 0.4044(4) 0.7114(3)
H108 H 0.3453 0.3748 0.6852
C11 C 0.4147(9) 0.4059(6) 0.7350(6)
H109 H 0.4498 0.3581 0.7570
H110 H 0.3929 0.4331 0.7625
C12 C 0.4903(7) 0.4393(5) 0.6824(5)
H111 H 0.5495 0.4420 0.6980
H112 H 0.5163 0.4099 0.6566
C13 C 0.4368(10) 0.5103(7) 0.6471(6)
H113 H 0.4845 0.5295 0.6129
H114 H 0.4178 0.5407 0.6720
C14 C 0.3405(9) 0.5107(7) 0.6248(6)
H115 H 0.3603 0.4866 0.5949
H116 H 0.3042 0.5591 0.6054
C15 C 0.2989(8) -0.7472(6) 1.4413(5)
C16 C 0.4182(8) -0.6583(6) 1.2753(5)
C17 C -0.1893(7) -0.5319(5) 1.1816(5)
C18 C -0.0782(7) -0.4509(5) 1.0084(5)
C19 C 0.0038(7) 0.5500(6) 0.7429(5)
C20 C 0.0687(8) 0.6709(5) 0.6600(5)
C21 C 0.1411(6) 0.7027(4) 0.4581(3)
H117 H 0.1616 0.7428 0.4255
C22 C 0.2348(6) 0.6572(4) 0.4879(3)
H118 H 0.2128 0.6194 0.5225
C23 C 0.3161(7) 0.6231(5) 0.4484(5)
H119 H 0.3729 0.5907 0.4713
H120 H 0.3444 0.6588 0.4153
C24 C 0.2682(8) 0.5837(5) 0.4239(5)
H121 H 0.3199 0.5636 0.3963
H122 H 0.2458 0.5453 0.4568
C25 C 0.1765(8) 0.6321(5) 0.3917(4)
H123 H 0.2001 0.6688 0.3574
H124 H 0.1466 0.6056 0.3764
C26 C 0.0952(8) 0.6651(5) 0.4308(4)
H125 H 0.0655 0.6292 0.4626
H126 H 0.0396 0.6985 0.4074
C27 C 0.0546(6) 0.8681(4) 0.5961(4)
H127 H 0.0544 0.8342 0.6371
C28 C 0.1632(5) 0.8777(4) 0.5746(3)
H128 H 0.1619 0.9134 0.5343
C29 C 0.1977(7) 0.9052(5) 0.6151(4)
H129 H 0.2024 0.8699 0.6548
H130 H 0.2667 0.9138 0.5994
C30 C 0.1241(6) 0.9712(4) 0.6201(4)
H131 H 0.1275 1.0085 0.5816
H132 H 0.1448 0.9851 0.6497
C31 C 0.0140(8) 0.9632(6) 0.6383(6)
H133 H 0.0086 0.9312 0.6794
H134 H -0.0323 1.0087 0.6375
C32 C -0.0209(8) 0.9356(6) 0.5984(5)
H135 H -0.0242 0.9699 0.5582
H136 H -0.0903 0.9275 0.6139
C33 C -0.0301(8) 0.5996(6) 0.6205(5)
C34 C -0.1354(7) 0.7295(6) 0.6250(5)
C35 C -0.1188(8) 0.6973(6) 0.7443(5)
C36 C -0.1941(9) 0.6006(6) 0.7112(5)
C37 C -0.2090(6) -0.4887(4) 0.8777(4)
H137 H -0.1858 -0.5113 0.8463
C38 C -0.1697(6) -0.5413(4) 0.9345(4)
H138 H -0.1948 -0.5193 0.9662
C39 C -0.2124(8) -0.6050(6) 0.9530(6)
H139 H -0.1865 -0.6290 0.9231
H140 H -0.1883 -0.6374 0.9912
C40 C -0.3281(7) -0.5859(5) 0.9592(5)
H141 H -0.3542 -0.5676 0.9928
H142 H -0.3535 -0.6278 0.9680
C41 C -0.3689(8) -0.5317(6) 0.9032(5)
H143 H -0.3520 -0.5524 0.8712
H144 H -0.4445 -0.5168 0.9101
C42 C -0.3238(8) -0.4690(7) 0.8840(6)
H145 H -0.3476 -0.4368 0.8457
H146 H -0.3488 -0.4444 0.9135
C43 C 0.2032(6) -0.4661(4) 0.8484(3)
H147 H 0.2071 -0.4674 0.8075
C44 C 0.1450(7) -0.3939(4) 0.8502(4)
H148 H 0.1393 -0.3937 0.8916
C45 C 0.2010(9) -0.3398(7) 0.8098(6)
H149 H 0.1643 -0.2940 0.8138
H150 H 0.2026 -0.3368 0.7682
C46 C 0.3096(9) -0.3581(7) 0.8252(6)
H151 H 0.3462 -0.3233 0.7973
H152 H 0.3078 -0.3569 0.8655
C47 C 0.3671(7) -0.4293(5) 0.8223(5)
H153 H 0.4372 -0.4404 0.8335
H154 H 0.3732 -0.4298 0.7813
C48 C 0.3113(8) -0.4835(6) 0.8638(5)
H155 H 0.3485 -0.5296 0.8606
H156 H 0.3095 -0.4854 0.9051
C49 C -0.1777(8) -0.4012(6) 1.1114(5)
C50 C -0.2120(7) -0.0995(5) 0.9656(5)
C51 C -0.1025(8) -0.0445(6) 1.0175(5)
C52 C -0.2641(7) -0.1086(6) 1.0978(5)
C53 C -0.2635(7) 0.0422(6) 0.9403(5)
C54 C -0.5180(7) 0.1753(5) 0.9372(4)
H157 H -0.4505 0.1591 0.9536
C55 C -0.5130(6) 0.2365(4) 0.8812(4)
H158 H -0.5811 0.2532 0.8656
C56 C -0.4937(9) 0.2962(6) 0.8956(6)
H159 H -0.4261 0.2813 0.9108
H160 H -0.4922 0.3364 0.8590
C57 C -0.5747(8) 0.3176(5) 0.9404(4)
H161 H -0.6414 0.3369 0.9238
H162 H -0.5584 0.3542 0.9503
C58 C -0.5826(10) 0.2549(7) 0.9971(6)
H163 H -0.5183 0.2388 1.0160
H164 H -0.6396 0.2694 1.0255
C59 C -0.6008(8) 0.1963(6) 0.9833(5)
H165 H -0.6686 0.2107 0.9685
H166 H -0.6013 0.1560 1.0199
C60 C -0.3884(6) -0.0039(4) 0.8093(3)
H167 H -0.4489 0.0177 0.7861
C61 C -0.3031(7) 0.0325(5) 0.7763(5)
H168 H -0.2433 0.0108 0.8000
C62 C -0.2692(13) 0.0239(8) 0.7162(7)
H169 H -0.2120 0.0465 0.6963
H170 H -0.3266 0.0458 0.6914
C63 C -0.2341(12) -0.0539(8) 0.7244(8)
H171 H -0.2117 -0.0605 0.6853
H172 H -0.1750 -0.0751 0.7480
C64 C -0.3202(8) -0.0895(5) 0.7554(5)
H173 H -0.2961 -0.1395 0.7604
H174 H -0.3782 -0.0698 0.7310
C65 C -0.3560(7) -0.0798(5) 0.8156(5)
H175 H -0.4145 -0.1014 0.8346
H176 H -0.2997 -0.1031 0.8412
C66 C -0.2988(9) 0.0359(6) 1.0594(5)
C67 C -0.4066(9) -0.0289(6) 1.0186(5)
C68 C -0.3913(6) -0.2102(4) 1.0024(4)
H177 H -0.3753 -0.1737 0.9646
C69 C -0.3573(6) -0.2786(4) 0.9910(4)
H178 H -0.3766 -0.3146 1.0282
C70 C -0.4134(8) -0.2775(6) 0.9423(6)
H179 H -0.3949 -0.2428 0.9045
H180 H -0.3922 -0.3235 0.9367
C71 C -0.5292(7) -0.2591(5) 0.9591(6)
H181 H -0.5481 -0.2967 0.9944
H182 H -0.5647 -0.2558 0.9263
C72 C -0.5657(6) -0.1905(5) 0.9724(5)
H183 H -0.6396 -0.1830 0.9871
H184 H -0.5566 -0.1518 0.9357
C73 C -0.5045(8) -0.1912(6) 1.0193(6)
H185 H -0.5240 -0.1448 1.0240
H186 H -0.5224 -0.2249 1.0578
C74 C 0.0379(5) -0.2756(4) 1.0061(4)
H187 H 0.0357 -0.2274 0.9787
C75 C 0.0029(7) -0.2715(5) 1.0679(5)
H188 H 0.0038 -0.3196 1.0955
C76 C 0.0780(7) -0.2429(5) 1.0864(4)
H189 H 0.0744 -0.1941 1.0612
H190 H 0.0579 -0.2439 1.1280
C77 C 0.1880(8) -0.2861(6) 1.0801(6)
H191 H 0.2351 -0.2643 1.0887
H192 H 0.1934 -0.3329 1.1097
C78 C 0.2211(6) -0.2928(5) 1.0198(4)
H193 H 0.2888 -0.3260 1.0199
H194 H 0.2287 -0.2473 0.9911
C79 C 0.1442(7) -0.3178(6) 0.9998(5)
H195 H 0.1644 -0.3154 0.9579
H196 H 0.1466 -0.3668 1.0237
C80 C 0.0139(9) -0.5001(5) 1.1095(4)
C81 C -0.0859(8) -0.5869(6) 1.0811(5)
C82 C -0.2697(8) -0.4724(5) 1.0652(5)
C83 C -0.4850(6) -0.4643(4) 1.2522(3)
H197 H -0.4179 -0.4510 1.2384
C84 C -0.5314(8) -0.4561(5) 1.1974(4)
H198 H -0.5998 -0.4677 1.2106
C85 C -0.5475(9) -0.3795(5) 1.1553(5)
H199 H -0.4801 -0.3685 1.1390
H200 H -0.5835 -0.3737 1.1218
C86 C -0.6101(9) -0.3302(6) 1.1884(5)
H201 H -0.6133 -0.2819 1.1621
H202 H -0.6811 -0.3364 1.1990
C87 C -0.5659(7) -0.3413(4) 1.2441(4)
H203 H -0.6128 -0.3108 1.2657
H204 H -0.4993 -0.3284 1.2333
C88 C -0.5504(7) -0.4171(5) 1.2848(4)
H205 H -0.5173 -0.4231 1.3195
H206 H -0.6178 -0.4288 1.2993
C89 C -0.2962(7) -0.7329(5) 1.2638(4)
H207 H -0.3604 -0.7416 1.2577
C90 C -0.2382(6) -0.7066(4) 1.2036(3)
H208 H -0.1753 -0.6964 1.2096
C91 C -0.2035(7) -0.7603(4) 1.1719(4)
H209 H -0.2642 -0.7670 1.1607
H210 H -0.1590 -0.7431 1.1352
C92 C -0.1454(7) -0.8290(4) 1.2103(4)
H211 H -0.0792 -0.8239 1.2163
H212 H -0.1303 -0.8637 1.1899
C93 C -0.2054(8) -0.8547(6) 1.2700(5)
H213 H -0.1632 -0.8980 1.2950
H214 H -0.2681 -0.8650 1.2647
C94 C -0.2346(8) -0.7993(5) 1.3003(5)
H215 H -0.2745 -0.8161 1.3391
H216 H -0.1715 -0.7914 1.3076
C95 C 0.2162(8) -0.6868(5) 1.3349(5)
C96 C 0.0167(7) -0.4904(4) 1.2763(4)
H217 H 0.0373 -0.5156 1.3171
C97 C 0.1077(6) -0.4665(4) 1.2360(3)
H218 H 0.0863 -0.4417 1.1952
C98 C 0.1390(8) -0.4161(5) 1.2551(4)
H219 H 0.1959 -0.3992 1.2269
H220 H 0.1637 -0.4399 1.2946
C99 C 0.0490(7) -0.3549(4) 1.2575(4)
H221 H 0.0294 -0.3281 1.2171
H222 H 0.0699 -0.3240 1.2725
C100 C -0.0436(8) -0.3789(5) 1.2977(5)
H223 H -0.0265 -0.4011 1.3390
H224 H -0.1021 -0.3383 1.2964
C101 C -0.0737(7) -0.4297(5) 1.2784(5)
H225 H -0.0980 -0.4061 1.2388
H226 H -0.1306 -0.4469 1.3064
C102 C 0.1328(6) -0.7017(4) 1.1729(4)
H227 H 0.1413 -0.6741 1.1300
C103 C 0.2343(6) -0.7174(4) 1.1971(4)
H228 H 0.2264 -0.7448 1.2401
C104 C 0.3222(7) -0.7608(5) 1.1661(5)
H229 H 0.3347 -0.7336 1.1240
H230 H 0.3859 -0.7726 1.1847
C105 C 0.2944(8) -0.8276(5) 1.1711(5)
H231 H 0.3491 -0.8535 1.1486
H232 H 0.2903 -0.8573 1.2131
C106 C 0.1937(7) -0.8122(5) 1.1478(5)
H233 H 0.1763 -0.8564 1.1541
H234 H 0.2007 -0.7876 1.1047
C107 C 0.1057(7) -0.7678(5) 1.1777(4)
H235 H 0.0425 -0.7559 1.1587
H236 H 0.0921 -0.7946 1.2199
C108 C -0.5964(9) 0.2079(6) 1.3355(5)
C109 C -0.5804(8) -0.0916(6) 1.4790(5)
C110 C -0.5196(8) -0.0888(6) 1.3529(5)
C111 C -0.5865(6) -0.1149(4) 1.2260(4)
H237 H -0.6136 -0.0909 1.2563
C112 C -0.5695(7) -0.0594(5) 1.1663(4)
H238 H -0.5428 -0.0835 1.1361
C113 C -0.6675(9) -0.0090(7) 1.1483(6)
H239 H -0.6545 0.0234 1.1082
H240 H -0.6928 0.0184 1.1757
C114 C -0.7494(11) -0.0429(8) 1.1481(7)
H241 H -0.7288 -0.0646 1.1167
H242 H -0.8141 -0.0071 1.1391
C115 C -0.7680(8) -0.0980(6) 1.2077(5)
H243 H -0.8184 -0.1215 1.2049
H244 H -0.7971 -0.0755 1.2384
C116 C -0.6677(9) -0.1521(7) 1.2258(6)
H245 H -0.6423 -0.1784 1.1976
H246 H -0.6803 -0.1851 1.2657
C117 C -0.1895(6) -0.1474(4) 1.2679(4)
H247 H -0.1549 -0.1553 1.2299
C118 C -0.2199(6) -0.0712(4) 1.2571(4)
H248 H -0.2556 -0.0638 1.2950
C119 C -0.1262(9) -0.0421(6) 1.2412(6)
H249 H -0.1479 0.0079 1.2369
H250 H -0.0912 -0.0465 1.2027
C120 C -0.0516(7) -0.0784(5) 1.2873(5)
H251 H 0.0098 -0.0591 1.2743
H252 H -0.0841 -0.0706 1.3251
C121 C -0.0203(9) -0.1547(7) 1.2963(7)
H253 H 0.0262 -0.1781 1.3278
H254 H 0.0177 -0.1625 1.2594
C122 C -0.1145(8) -0.1868(6) 1.3138(6)
H255 H -0.0921 -0.2362 1.3162
H256 H -0.1482 -0.1843 1.3531
C123 C -0.5345(7) -0.2409(6) 1.5118(5)
C124 C -0.4388(6) -0.2504(4) 1.6910(4)
H257 H -0.3673 -0.2538 1.6972
C125 C -0.4665(6) -0.1892(4) 1.6355(3)
H258 H -0.5371 -0.1868 1.6285
C126 C -0.4692(7) -0.1212(5) 1.6433(5)
H259 H -0.4925 -0.0823 1.6077
H260 H -0.3991 -0.1207 1.6474
C127 C -0.5408(7) -0.1113(5) 1.6976(4)
H261 H -0.6122 -0.1061 1.6912
H262 H -0.5373 -0.0681 1.7028
C128 C -0.5134(8) -0.1720(5) 1.7536(4)
H263 H -0.4458 -0.1734 1.7630
H264 H -0.5650 -0.1651 1.7870
C129 C -0.5097(8) -0.2405(6) 1.7463(5)
H265 H -0.5798 -0.2420 1.7431
H266 H -0.4849 -0.2790 1.7817
C130 C -0.3173(7) -0.4162(4) 1.5506(3)
H267 H -0.3799 -0.3936 1.5293
C131 C -0.2352(7) -0.3773(5) 1.5176(5)
H268 H -0.1712 -0.4015 1.5375
C132 C -0.2123(9) -0.3759(6) 1.4547(5)
H269 H -0.1572 -0.3514 1.4346
H270 H -0.2742 -0.3505 1.4339
C133 C -0.1779(10) -0.4511(7) 1.4521(7)
H271 H -0.1676 -0.4499 1.4104
H272 H -0.1121 -0.4751 1.4692
C134 C -0.2598(8) -0.4904(6) 1.4867(5)
H273 H -0.2366 -0.5387 1.4863
H274 H -0.3238 -0.4685 1.4674
C135 C -0.2818(10) -0.4905(6) 1.5517(6)
H275 H -0.3355 -0.5158 1.5733
H276 H -0.2189 -0.5137 1.5719
C136 C -0.4894(8) -0.2353(6) 1.3916(5)
C137 C -0.3866(9) -0.1619(6) 1.4345(5)
C138 C -0.6861(9) -0.1497(5) 1.4250(5)
C139 C -0.7822(8) 0.0552(5) 1.3916(5)
H277 H -0.7959 0.0136 1.4251
C140 C -0.8148(6) 0.1167(4) 1.4138(4)
H278 H -0.8004 0.1576 1.3797
C141 C -0.9290(9) 0.1325(7) 1.4342(6)
H279 H -0.9487 0.1749 1.4456
H280 H -0.9448 0.0937 1.4693
C142 C -0.9903(8) 0.1427(6) 1.3841(5)
H281 H -1.0640 0.1486 1.3989
H282 H -0.9819 0.1855 1.3514
C143 C -0.9558(10) 0.0824(8) 1.3609(7)
H283 H -0.9741 0.0410 1.3919
H284 H -0.9924 0.0930 1.3264
C144 C -0.8430(8) 0.0664(6) 1.3431(5)
H285 H -0.8262 0.1052 1.3083
H286 H -0.8231 0.0243 1.3312
C145 C -0.3852(6) 0.0513(4) 1.4274(4)
H287 H -0.3844 0.0997 1.4011
C146 C -0.4364(6) 0.0547(4) 1.4876(4)
H288 H -0.4408 0.0067 1.5133
C147 C -0.3757(9) 0.0802(7) 1.5168(6)
H289 H -0.4078 0.0770 1.5575
H290 H -0.3765 0.1295 1.4945
C148 C -0.2636(8) 0.0367(5) 1.5185(5)
H291 H -0.2242 0.0555 1.5359
H292 H -0.2625 -0.0117 1.5438
C149 C -0.2148(8) 0.0378(6) 1.4580(5)
H293 H -0.1435 0.0093 1.4601
H294 H -0.2126 0.0859 1.4332
C150 C -0.2746(8) 0.0096(6) 1.4299(6)
H295 H -0.2420 0.0117 1.3894
H296 H -0.2728 -0.0395 1.4533
C151 C 0.4950(9) -0.7262(6) 1.3912(5)
C152 C 0.3156(8) -0.6093(6) 1.3684(5)
C153 C 0.4354(6) -0.7192(5) 1.5498(4)
H297 H 0.4460 -0.7248 1.5099
C154 C 0.3702(6) -0.6464(4) 1.5446(4)
H298 H 0.3574 -0.6419 1.5850
C155 C 0.4209(10) -0.5893(7) 1.5043(6)
H299 H 0.3784 -0.5441 1.5073
H300 H 0.4262 -0.5879 1.4628
C156 C 0.5295(7) -0.6018(5) 1.5216(5)
H301 H 0.5647 -0.5672 1.4918
H302 H 0.5230 -0.5949 1.5603
C157 C 0.5938(8) -0.6739(7) 1.5254(5)
H303 H 0.6607 -0.6800 1.5384
H304 H 0.6071 -0.6785 1.4854
C158 C 0.5430(9) -0.7317(7) 1.5681(6)
H305 H 0.5366 -0.7313 1.6091
H306 H 0.5855 -0.7774 1.5664
C159 C 0.0580(6) -0.7933(4) 1.6240(4)
H307 H 0.0350 -0.7715 1.6559
C160 C 0.0224(6) -0.7404(4) 1.5684(4)
H308 H 0.0430 -0.7632 1.5372
C161 C -0.0925(9) -0.7149(7) 1.5719(6)
H309 H -0.1126 -0.6810 1.5333
H310 H -0.1171 -0.6913 1.6022
C162 C -0.1425(8) -0.7770(6) 1.5884(5)
H311 H -0.2181 -0.7604 1.5927
H312 H -0.1228 -0.7979 1.5564
C163 C -0.1079(9) -0.8313(7) 1.6459(6)
H313 H -0.1370 -0.8716 1.6545
H314 H -0.1346 -0.8117 1.6786
C164 C 0.0100(9) -0.8556(6) 1.6431(6)
H315 H 0.0299 -0.8872 1.6825
H316 H 0.0363 -0.8815 1.6146
C165 C 0.3333(10) 0.1073(6) 0.7091(5)
C166 C 0.3359(8) 0.0705(7) 0.8325(5)
C167 C 0.2421(7) 0.2047(6) 0.8327(5)
C168 C 0.4101(8) 0.1971(6) 0.7452(5)
C169 C 0.0606(5) -0.0437(4) 0.8406(4)
H317 H 0.0909 -0.0098 0.8059
C170 C 0.1414(6) -0.0850(4) 0.8815(4)
H318 H 0.1099 -0.1184 0.9160
C171 C 0.2330(9) -0.1271(6) 0.8540(6)
H319 H 0.2810 -0.1558 0.8840
H320 H 0.2692 -0.0956 0.8214
C172 C 0.1997(9) -0.1749(6) 0.8296(6)
H321 H 0.2598 -0.1983 0.8080
H322 H 0.1727 -0.2110 0.8629
C173 C 0.1175(7) -0.1324(5) 0.7883(4)
H323 H 0.0933 -0.1639 0.7757
H324 H 0.1477 -0.1007 0.7526
C174 C 0.0262(8) -0.0901(5) 0.8175(4)
H325 H -0.0233 -0.0613 0.7883
H326 H -0.0090 -0.1218 0.8506
C175 C 0.0473(6) 0.1419(4) 0.9623(3)
H327 H 0.0427 0.1849 0.9272
C176 C -0.0568(6) 0.1258(4) 0.9784(4)
H328 H -0.0521 0.0832 1.0141
C177 C -0.1411(7) 0.1831(4) 0.9952(4)
H329 H -0.1512 0.2257 0.9604
H330 H -0.2065 0.1685 1.0082
C178 C -0.1101(8) 0.1976(5) 1.0448(4)
H331 H -0.1101 0.1569 1.0811
H332 H -0.1614 0.2376 1.0530
C179 C -0.0048(8) 0.2131(6) 1.0302(5)
H333 H 0.0134 0.2187 1.0650
H334 H -0.0075 0.2574 0.9973
C180 C 0.0792(8) 0.1561(5) 1.0124(5)
H335 H 0.1445 0.1708 0.9992
H336 H 0.0899 0.1132 1.0469
Ru2_2 Ru -0.64134(6) 0.29730(4) 1.35752(4)
Cu4_2 Cu 0.60860(13) -0.59052(8) 1.22870(7)
N8_2 N -0.5450(6) -0.6349(4) 1.2263(4)
C108_2 C 0.4036(9) -0.7921(6) 1.3355(5)
O1 O 0.1386(6) 0.3328(5) 0.0115(4)
O2 O 0.2132(6) 0.4392(4) 0.0165(3)
O3 O 0.4655(7) 0.5489(5) 0.0132(5)
O4 O 0.2958(5) 0.5225(4) 0.1130(3)
O5 O 0.5345(5) 0.3205(4) 0.1234(3)
O6 O 0.5924(6) 0.1794(4) 0.1390(4)
O7 O 0.1973(6) 0.8864(4) 0.0338(4)
O8 O 0.7674(8) 0.2444(6) 0.4379(6)
O9 O 0.0162(7) 0.9196(5) 0.4314(4)
O10 O 0.6646(5) 0.6218(4) 0.3214(3)
O11 O 0.7058(5) 0.4802(4) 0.3397(3)
O12 O 0.0885(7) 0.4786(5) 0.4298(4)
O13 O 0.0177(6) 0.3713(5) 0.4242(4)
O14 O 0.3239(6) 0.0479(4) 0.5844(4)
O15 O 0.8192(7) 0.3706(5) 0.4183(5)
O16 O 0.0709(7) 0.4625(4) 0.5479(4)
O17 O 0.8470(6) 0.1434(5) 0.7900(4)
O18 O 0.1385(6) 0.3433(4) 0.8980(4)
O19 O 0.8782(5) 0.8345(4) 0.4653(4)
O20 O 0.8898(7) 0.7661(4) 0.8673(4)
O21 O 0.3119(5) 0.9867(4) 0.9941(3)
O22 O 0.3487(6) 0.6806(5) 0.6651(4)
O23 O 0.5496(7) 0.0788(5) 0.2532(4)
O24 O 0.6980(9) 0.7184(5) 0.2071(5)
O25 O 0.4106(8) 0.4202(6) 0.0429(6)
O26 O -0.073(3) 0.3168(19) 0.3283(16)
O27? O 0.5897(13) 0.5066(9) 0.7453(8)
O28? O -0.092(3) 0.3103(19) 0.3151(13)
loop_
_geom_bond_atom_site_label_1
_geom_bond_atom_site_label_2
_geom_bond_site_symmetry_1
_geom_bond_site_symmetry_2
Ru1 C1 1_555 1_555
Ru2 C15 1_555 1_555
Ru3 C17 1_555 1_555
Ru4 C19 1_555 1_555
Ru5 C50 1_555 1_555
Ru6 C109 1_555 1_555
Cu1 N1 1_555 1_555
Cu2 N2 1_555 1_555
Cu3 N7 1_555 1_555
Cu4 N9 1_555 1_555
Cu5 N10 1_555 1_555
Cu6 N12 1_555 1_555
Cu7 N25 1_555 1_555
Cu8 N29 1_555 1_555
Cu9 N40 1_555 1_555
Cu10 N52 1_555 1_555
Cu11 N28 1_555 1_555
Cu12 N59 1_555 1_555
N1 C1 1_555 1_555
N2 C2 1_555 1_555
N3 Cu2 1_555 1_555
H1 N3 1_555 1_555
H2 N3 1_555 1_555
N4 Cu2 1_555 1_555
H3 N4 1_555 1_555
H4 N4 1_555 1_555
N5 Cu2 1_555 1_555
H5 N5 1_555 1_555
H6 N5 1_555 1_555
N6 Cu2 1_555 1_555
H7 N6 1_555 1_555
H8 N6 1_555 1_555
N7 C15 1_555 1_555
N8 C16 1_555 1_555
N9 C17 1_555 1_555
N10 C18 1_555 1_555
N11 Cu2 1_555 1_555
N12 C20 1_555 1_555
N13 Cu6 1_555 1_555
H9 N13 1_555 1_555
H10 N13 1_555 1_555
N14 Cu6 1_555 1_555
H11 N14 1_555 1_555
H12 N14 1_555 1_555
N15 Cu6 1_555 1_555
H13 N15 1_555 1_555
H14 N15 1_555 1_555
N16 Cu6 1_555 1_555
H15 N16 1_555 1_555
H16 N16 1_555 1_555
N17 C33 1_555 1_555
N18 C34 1_555 1_555
N19 C35 1_555 1_555
N20 C36 1_555 1_555
N21 Cu5 1_555 1_555
H17 N21 1_555 1_555
H18 N21 1_555 1_555
N22 Cu5 1_555 1_555
H19 N22 1_555 1_555
H20 N22 1_555 1_555
N23 Cu5 1_555 1_555
H21 N23 1_555 1_555
H22 N23 1_555 1_555
N24 Cu5 1_555 1_555
H23 N24 1_555 1_555
H24 N24 1_555 1_555
N25 C49 1_555 1_555
N26 Cu7 1_555 1_555
N27 Cu1 1_555 1_555
N28 C52 1_555 1_555
N29 C53 1_555 1_555
N30 Cu8 1_555 1_555
H25 N30 1_555 1_555
H26 N30 1_555 1_555
N31 Cu8 1_555 1_555
H27 N31 1_555 1_555
H28 N31 1_555 1_555
N32 Cu8 1_555 1_555
H29 N32 1_555 1_555
H30 N32 1_555 1_555
N33 Cu8 1_555 1_555
H31 N33 1_555 1_555
H32 N33 1_555 1_555
N34 C66 1_555 1_555
N35 C67 1_555 1_555
N36 Cu7 1_555 1_555
H33 N36 1_555 1_555
H34 N36 1_555 1_555
N37 Cu7 1_555 1_555
H35 N37 1_555 1_555
H36 N37 1_555 1_555
N38 Cu7 1_555 1_555
H37 N38 1_555 1_555
H38 N38 1_555 1_555
N39 Cu7 1_555 1_555
H39 N39 1_555 1_555
H40 N39 1_555 1_555
N40 C80 1_555 1_555
N41 C81 1_555 1_555
N42 C82 1_555 1_555
N43 Cu4 1_555 1_555
H41 N43 1_555 1_555
H42 N43 1_555 1_555
N44 Cu4 1_555 1_555
H43 N44 1_555 1_555
H44 N44 1_555 1_555
N45 Cu4 1_555 1_555
H45 N45 1_555 1_555
H46 N45 1_555 1_555
N46 Cu4 1_555 1_555
H47 N46 1_555 1_555
H48 N46 1_555 1_555
N47 Cu9 1_555 1_555
N48 Cu9 1_555 1_555
H49 N48 1_555 1_555
H50 N48 1_555 1_555
N49 Cu9 1_555 1_555
H51 N49 1_555 1_555
H52 N49 1_555 1_555
N50 Cu9 1_555 1_555
H53 N50 1_555 1_555
H54 N50 1_555 1_555
N51 Cu9 1_555 1_555
H55 N51 1_555 1_555
H56 N51 1_555 1_555
N52 C108 1_555 1_555
N53 Cu10 1_555 1_555
N54 Cu11 1_555 1_555
N55 Cu11 1_555 1_555
H57 N55 1_555 1_555
H58 N55 1_555 1_555
N56 Cu11 1_555 1_555
H59 N56 1_555 1_555
H60 N56 1_555 1_555
N57 Cu11 1_555 1_555
H61 N57 1_555 1_555
H62 N57 1_555 1_555
N58 Cu11 1_555 1_555
H63 N58 1_555 1_555
H64 N58 1_555 1_555
N59 C123 1_555 1_555
N60 Cu12 1_555 1_555
H65 N60 1_555 1_555
H66 N60 1_555 1_555
N61 Cu12 1_555 1_555
H67 N61 1_555 1_555
H68 N61 1_555 1_555
N62 Cu12 1_555 1_555
H69 N62 1_555 1_555
H70 N62 1_555 1_555
N63 Cu12 1_555 1_555
H71 N63 1_555 1_555
H72 N63 1_555 1_555
N64 C136 1_555 1_555
N65 C137 1_555 1_555
N66 C138 1_555 1_555
N67 Cu10 1_555 1_555
H73 N67 1_555 1_555
H74 N67 1_555 1_555
N68 Cu10 1_555 1_555
H75 N68 1_555 1_555
H76 N68 1_555 1_555
N69 Cu10 1_555 1_555
H77 N69 1_555 1_555
H78 N69 1_555 1_555
N70 Cu10 1_555 1_555
H79 N70 1_555 1_555
H80 N70 1_555 1_555
N71 C151 1_555 1_555
N72 C152 1_555 1_555
N73 Cu3 1_555 1_555
H81 N73 1_555 1_555
H82 N73 1_555 1_555
N74 Cu3 1_555 1_555
H83 N74 1_555 1_555
H84 N74 1_555 1_555
N75 Cu3 1_555 1_555
H85 N75 1_555 1_555
H86 N75 1_555 1_555
N76 Cu3 1_555 1_555
H87 N76 1_555 1_555
H88 N76 1_555 1_555
N77 C165 1_555 1_555
N78 C166 1_555 1_555
N79 C167 1_555 1_555
N80 C168 1_555 1_555
N81 Cu1 1_555 1_555
H89 N81 1_555 1_555
H90 N81 1_555 1_555
N82 Cu1 1_555 1_555
H91 N82 1_555 1_555
H92 N82 1_555 1_555
N83 Cu1 1_555 1_555
H93 N83 1_555 1_555
H94 N83 1_555 1_555
N84 Cu1 1_555 1_555
H95 N84 1_555 1_555
H96 N84 1_555 1_555
C2 Ru1 1_555 1_555
C3 N3 1_555 1_555
H97 C3 1_555 1_555
C4 N4 1_555 1_555
H98 C4 1_555 1_555
C5 C4 1_555 1_555
H99 C5 1_555 1_555
H100 C5 1_555 1_555
C6 C5 1_555 1_555
H101 C6 1_555 1_555
H102 C6 1_555 1_555
C7 C6 1_555 1_555
H103 C7 1_555 1_555
H104 C7 1_555 1_555
C8 C3 1_555 1_555
H105 C8 1_555 1_555
H106 C8 1_555 1_555
C9 N5 1_555 1_555
H107 C9 1_555 1_555
C10 N6 1_555 1_555
H108 C10 1_555 1_555
C11 C10 1_555 1_555
H109 C11 1_555 1_555
H110 C11 1_555 1_555
C12 C11 1_555 1_555
H111 C12 1_555 1_555
H112 C12 1_555 1_555
C13 C12 1_555 1_555
H113 C13 1_555 1_555
H114 C13 1_555 1_555
C14 C9 1_555 1_555
H115 C14 1_555 1_555
H116 C14 1_555 1_555
C16 Ru2 1_555 1_555
C18 Ru3 1_555 1_555
C19 N11 1_555 1_555
C20 Ru4 1_555 1_555
C21 N13 1_555 1_555
H117 C21 1_555 1_555
C22 N14 1_555 1_555
H118 C22 1_555 1_555
C23 C22 1_555 1_555
H119 C23 1_555 1_555
H120 C23 1_555 1_555
C24 C23 1_555 1_555
H121 C24 1_555 1_555
H122 C24 1_555 1_555
C25 C24 1_555 1_555
H123 C25 1_555 1_555
H124 C25 1_555 1_555
C26 C21 1_555 1_555
H125 C26 1_555 1_555
H126 C26 1_555 1_555
C27 N15 1_555 1_555
H127 C27 1_555 1_555
C28 N16 1_555 1_555
H128 C28 1_555 1_555
C29 C28 1_555 1_555
H129 C29 1_555 1_555
H130 C29 1_555 1_555
C30 C29 1_555 1_555
H131 C30 1_555 1_555
H132 C30 1_555 1_555
C31 C30 1_555 1_555
H133 C31 1_555 1_555
H134 C31 1_555 1_555
C32 C27 1_555 1_555
H135 C32 1_555 1_555
H136 C32 1_555 1_555
C33 Ru4 1_555 1_555
C34 Ru4 1_555 1_555
C35 Ru4 1_555 1_555
C36 Ru4 1_555 1_555
C37 N21 1_555 1_555
H137 C37 1_555 1_555
C38 N22 1_555 1_555
H138 C38 1_555 1_555
C39 C38 1_555 1_555
H139 C39 1_555 1_555
H140 C39 1_555 1_555
C40 C39 1_555 1_555
H141 C40 1_555 1_555
H142 C40 1_555 1_555
C41 C40 1_555 1_555
H143 C41 1_555 1_555
H144 C41 1_555 1_555
C42 C37 1_555 1_555
H145 C42 1_555 1_555
H146 C42 1_555 1_555
C43 N23 1_555 1_555
H147 C43 1_555 1_555
C44 N24 1_555 1_555
H148 C44 1_555 1_555
C45 C44 1_555 1_555
H149 C45 1_555 1_555
H150 C45 1_555 1_555
C46 C45 1_555 1_555
H151 C46 1_555 1_555
H152 C46 1_555 1_555
C47 C46 1_555 1_555
H153 C47 1_555 1_555
H154 C47 1_555 1_555
C48 C43 1_555 1_555
H155 C48 1_555 1_555
H156 C48 1_555 1_555
C49 Ru3 1_555 1_555
C50 N26 1_555 1_555
C51 Ru5 1_555 1_555
C52 Ru5 1_555 1_555
C53 Ru5 1_555 1_555
C54 N30 1_555 1_555
H157 C54 1_555 1_555
C55 N31 1_555 1_555
H158 C55 1_555 1_555
C56 C55 1_555 1_555
H159 C56 1_555 1_555
H160 C56 1_555 1_555
C57 C56 1_555 1_555
H161 C57 1_555 1_555
H162 C57 1_555 1_555
C58 C57 1_555 1_555
H163 C58 1_555 1_555
H164 C58 1_555 1_555
C59 C54 1_555 1_555
H165 C59 1_555 1_555
H166 C59 1_555 1_555
C60 N32 1_555 1_555
H167 C60 1_555 1_555
C61 N33 1_555 1_555
H168 C61 1_555 1_555
C62 C61 1_555 1_555
H169 C62 1_555 1_555
H170 C62 1_555 1_555
C63 C62 1_555 1_555
H171 C63 1_555 1_555
H172 C63 1_555 1_555
C64 C63 1_555 1_555
H173 C64 1_555 1_555
H174 C64 1_555 1_555
C65 C60 1_555 1_555
H175 C65 1_555 1_555
H176 C65 1_555 1_555
C66 Ru5 1_555 1_555
C67 Ru5 1_555 1_555
C68 N36 1_555 1_555
H177 C68 1_555 1_555
C69 N37 1_555 1_555
H178 C69 1_555 1_555
C70 C69 1_555 1_555
H179 C70 1_555 1_555
H180 C70 1_555 1_555
C71 C70 1_555 1_555
H181 C71 1_555 1_555
H182 C71 1_555 1_555
C72 C71 1_555 1_555
H183 C72 1_555 1_555
H184 C72 1_555 1_555
C73 C68 1_555 1_555
H185 C73 1_555 1_555
H186 C73 1_555 1_555
C74 N38 1_555 1_555
H187 C74 1_555 1_555
C75 N39 1_555 1_555
H188 C75 1_555 1_555
C76 C75 1_555 1_555
H189 C76 1_555 1_555
H190 C76 1_555 1_555
C77 C76 1_555 1_555
H191 C77 1_555 1_555
H192 C77 1_555 1_555
C78 C77 1_555 1_555
H193 C78 1_555 1_555
H194 C78 1_555 1_555
C79 C74 1_555 1_555
H195 C79 1_555 1_555
H196 C79 1_555 1_555
C80 Ru3 1_555 1_555
C81 Ru3 1_555 1_555
C82 Ru3 1_555 1_555
C83 N43 1_555 1_555
H197 C83 1_555 1_555
C84 N44 1_555 1_555
H198 C84 1_555 1_555
C85 C84 1_555 1_555
H199 C85 1_555 1_555
H200 C85 1_555 1_555
C86 C85 1_555 1_555
H201 C86 1_555 1_555
H202 C86 1_555 1_555
C87 C86 1_555 1_555
H203 C87 1_555 1_555
H204 C87 1_555 1_555
C88 C83 1_555 1_555
H205 C88 1_555 1_555
H206 C88 1_555 1_555
C89 N45 1_555 1_555
H207 C89 1_555 1_555
C90 N46 1_555 1_555
H208 C90 1_555 1_555
C91 C90 1_555 1_555
H209 C91 1_555 1_555
H210 C91 1_555 1_555
C92 C91 1_555 1_555
H211 C92 1_555 1_555
H212 C92 1_555 1_555
C93 C92 1_555 1_555
H213 C93 1_555 1_555
H214 C93 1_555 1_555
C94 C89 1_555 1_555
H215 C94 1_555 1_555
H216 C94 1_555 1_555
C95 Ru2 1_555 1_555
C96 N48 1_555 1_555
H217 C96 1_555 1_555
C97 N49 1_555 1_555
H218 C97 1_555 1_555
C98 C97 1_555 1_555
H219 C98 1_555 1_555
H220 C98 1_555 1_555
C99 C98 1_555 1_555
H221 C99 1_555 1_555
H222 C99 1_555 1_555
C100 C99 1_555 1_555
H223 C100 1_555 1_555
H224 C100 1_555 1_555
C101 C96 1_555 1_555
H225 C101 1_555 1_555
H226 C101 1_555 1_555
C102 N50 1_555 1_555
H227 C102 1_555 1_555
C103 N51 1_555 1_555
H228 C103 1_555 1_555
C104 C103 1_555 1_555
H229 C104 1_555 1_555
H230 C104 1_555 1_555
C105 C104 1_555 1_555
H231 C105 1_555 1_555
H232 C105 1_555 1_555
C106 C105 1_555 1_555
H233 C106 1_555 1_555
H234 C106 1_555 1_555
C107 C102 1_555 1_555
H235 C107 1_555 1_555
H236 C107 1_555 1_555
C108 Ru2_2 1_555 1_555
C109 N53 1_555 1_555
C110 Ru6 1_555 1_555
C111 N55 1_555 1_555
H237 C111 1_555 1_555
C112 N56 1_555 1_555
H238 C112 1_555 1_555
C113 C112 1_555 1_555
H239 C113 1_555 1_555
H240 C113 1_555 1_555
C114 C113 1_555 1_555
H241 C114 1_555 1_555
H242 C114 1_555 1_555
C115 C114 1_555 1_555
H243 C115 1_555 1_555
H244 C115 1_555 1_555
C116 C111 1_555 1_555
H245 C116 1_555 1_555
H246 C116 1_555 1_555
C117 N57 1_555 1_555
H247 C117 1_555 1_555
C118 N58 1_555 1_555
H248 C118 1_555 1_555
C119 C118 1_555 1_555
H249 C119 1_555 1_555
H250 C119 1_555 1_555
C120 C119 1_555 1_555
H251 C120 1_555 1_555
H252 C120 1_555 1_555
C121 C120 1_555 1_555
H253 C121 1_555 1_555
H254 C121 1_555 1_555
C122 C117 1_555 1_555
H255 C122 1_555 1_555
H256 C122 1_555 1_555
C123 Ru6 1_555 1_555
C124 N60 1_555 1_555
H257 C124 1_555 1_555
C125 N61 1_555 1_555
H258 C125 1_555 1_555
C126 C125 1_555 1_555
H259 C126 1_555 1_555
H260 C126 1_555 1_555
C127 C126 1_555 1_555
H261 C127 1_555 1_555
H262 C127 1_555 1_555
C128 C127 1_555 1_555
H263 C128 1_555 1_555
H264 C128 1_555 1_555
C129 C124 1_555 1_555
H265 C129 1_555 1_555
H266 C129 1_555 1_555
C130 N62 1_555 1_555
H267 C130 1_555 1_555
C131 N63 1_555 1_555
H268 C131 1_555 1_555
C132 C131 1_555 1_555
H269 C132 1_555 1_555
H270 C132 1_555 1_555
C133 C132 1_555 1_555
H271 C133 1_555 1_555
H272 C133 1_555 1_555
C134 C133 1_555 1_555
H273 C134 1_555 1_555
H274 C134 1_555 1_555
C135 C130 1_555 1_555
H275 C135 1_555 1_555
H276 C135 1_555 1_555
C136 Ru6 1_555 1_555
C137 Ru6 1_555 1_555
C138 Ru6 1_555 1_555
C139 N67 1_555 1_555
H277 C139 1_555 1_555
C140 N68 1_555 1_555
H278 C140 1_555 1_555
C141 C140 1_555 1_555
H279 C141 1_555 1_555
H280 C141 1_555 1_555
C142 C141 1_555 1_555
H281 C142 1_555 1_555
H282 C142 1_555 1_555
C143 C142 1_555 1_555
H283 C143 1_555 1_555
H284 C143 1_555 1_555
C144 C139 1_555 1_555
H285 C144 1_555 1_555
H286 C144 1_555 1_555
C145 N69 1_555 1_555
H287 C145 1_555 1_555
C146 N70 1_555 1_555
H288 C146 1_555 1_555
C147 C146 1_555 1_555
H289 C147 1_555 1_555
H290 C147 1_555 1_555
C148 C147 1_555 1_555
H291 C148 1_555 1_555
H292 C148 1_555 1_555
C149 C148 1_555 1_555
H293 C149 1_555 1_555
H294 C149 1_555 1_555
C150 C145 1_555 1_555
H295 C150 1_555 1_555
H296 C150 1_555 1_555
C151 Ru2 1_555 1_555
C152 Ru2 1_555 1_555
C153 N73 1_555 1_555
H297 C153 1_555 1_555
C154 N74 1_555 1_555
H298 C154 1_555 1_555
C155 C154 1_555 1_555
H299 C155 1_555 1_555
H300 C155 1_555 1_555
C156 C155 1_555 1_555
H301 C156 1_555 1_555
H302 C156 1_555 1_555
C157 C156 1_555 1_555
H303 C157 1_555 1_555
H304 C157 1_555 1_555
C158 C153 1_555 1_555
H305 C158 1_555 1_555
H306 C158 1_555 1_555
C159 N75 1_555 1_555
H307 C159 1_555 1_555
C160 N76 1_555 1_555
H308 C160 1_555 1_555
C161 C160 1_555 1_555
H309 C161 1_555 1_555
H310 C161 1_555 1_555
C162 C161 1_555 1_555
H311 C162 1_555 1_555
H312 C162 1_555 1_555
C163 C162 1_555 1_555
H313 C163 1_555 1_555
H314 C163 1_555 1_555
C164 C159 1_555 1_555
H315 C164 1_555 1_555
H316 C164 1_555 1_555
C165 Ru1 1_555 1_555
C166 Ru1 1_555 1_555
C167 Ru1 1_555 1_555
C168 Ru1 1_555 1_555
C169 N81 1_555 1_555
H317 C169 1_555 1_555
C170 N82 1_555 1_555
H318 C170 1_555 1_555
C171 C170 1_555 1_555
H319 C171 1_555 1_555
H320 C171 1_555 1_555
C172 C171 1_555 1_555
H321 C172 1_555 1_555
H322 C172 1_555 1_555
C173 C172 1_555 1_555
H323 C173 1_555 1_555
H324 C173 1_555 1_555
C174 C169 1_555 1_555
H325 C174 1_555 1_555
H326 C174 1_555 1_555
C175 N83 1_555 1_555
H327 C175 1_555 1_555
C176 N84 1_555 1_555
H328 C176 1_555 1_555
C177 C176 1_555 1_555
H329 C177 1_555 1_555
H330 C177 1_555 1_555
C178 C177 1_555 1_555
H331 C178 1_555 1_555
H332 C178 1_555 1_555
C179 C178 1_555 1_555
H333 C179 1_555 1_555
H334 C179 1_555 1_555
C180 C175 1_555 1_555
H335 C180 1_555 1_555
H336 C180 1_555 1_555
Cu4_2 N8 1_555 1_555
N8_2 Cu4 1_555 1_555
C108_2 Ru2 1_555 1_555
N27 C51 1_555 1_555
N47 C95 1_555 1_555
N54 C110 1_555 1_555
C3 C4 1_555 1_555
C7 C8 1_555 1_555
C9 C10 1_555 1_555
C13 C14 1_555 1_555
C21 C22 1_555 1_555
C25 C26 1_555 1_555
C27 C28 1_555 1_555
C31 C32 1_555 1_555
C37 C38 1_555 1_555
C41 C42 1_555 1_555
C43 C44 1_555 1_555
C47 C48 1_555 1_555
C54 C55 1_555 1_555
C58 C59 1_555 1_555
C60 C61 1_555 1_555
C64 C65 1_555 1_555
C68 C69 1_555 1_555
C72 C73 1_555 1_555
C74 C75 1_555 1_555
C78 C79 1_555 1_555
C83 C84 1_555 1_555
C87 C88 1_555 1_555
C89 C90 1_555 1_555
C93 C94 1_555 1_555
C96 C97 1_555 1_555
C100 C101 1_555 1_555
C102 C103 1_555 1_555
C106 C107 1_555 1_555
C111 C112 1_555 1_555
C115 C116 1_555 1_555
C117 C118 1_555 1_555
C121 C122 1_555 1_555
C124 C125 1_555 1_555
C128 C129 1_555 1_555
C130 C131 1_555 1_555
C134 C135 1_555 1_555
C139 C140 1_555 1_555
C143 C144 1_555 1_555
C145 C146 1_555 1_555
C149 C150 1_555 1_555
C153 C154 1_555 1_555
C157 C158 1_555 1_555
C159 C160 1_555 1_555
C163 C164 1_555 1_555
C169 C170 1_555 1_555
C173 C174 1_555 1_555
C175 C176 1_555 1_555
C179 C180 1_555 1_555

#END
