
#######################################################################
#
#                 Cambridge Crystallographic Data Centre
#                                CCDC 
#
#######################################################################
#
# If this CIF has been generated from an entry in the Cambridge 
# Structural Database, then it will include bibliographic, chemical, 
# crystal, experimental, refinement or atomic coordinate data resulting 
# from the CCDC's data processing and validation procedures.
#
#######################################################################

data_FUFLAU
_symmetry_cell_setting           monoclinic
_symmetry_space_group_name_H-M   'C 2/c'
_symmetry_Int_Tables_number      15
_space_group_name_Hall           '-C 2yn'
loop_
_symmetry_equiv_pos_site_id
_symmetry_equiv_pos_as_xyz
1 x,y,z
2 -x,y,1/2-z
3 1/2+x,1/2+y,z
4 1/2-x,1/2+y,1/2-z
5 -x,-y,-z
6 x,-y,1/2+z
7 1/2-x,1/2-y,-z
8 1/2+x,1/2-y,1/2+z
_cell_length_a                   27.4141(15)
_cell_length_b                   11.6135(6)
_cell_length_c                   13.7184(9)
_cell_angle_alpha                90
_cell_angle_beta                 110.453(5)
_cell_angle_gamma                90
_cell_volume                     4092.24
loop_
_atom_site_label
_atom_site_type_symbol
_atom_site_fract_x
_atom_site_fract_y
_atom_site_fract_z
N1 N 0.20879(5) 0.19928(10) 0.58341(9)
N2 N 0.20383(4) -0.07340(10) 0.29778(9)
N3 N 0.10429(4) 0.22203(11) 0.70409(9)
N4 N 0.05042(5) 0.22954(11) 0.36546(9)
N5 N 0.28576(4) 0.29075(11) 0.80905(9)
N6 N 0.18880(5) 0.34982(11) 0.88439(9)
N7 N 0.17951(4) 0.44303(10) 0.64839(9)
N8 N -0.04741(5) 0.51554(10) 0.13807(9)
N9 N -0.06255(5) 0.35277(12) 0.32906(10)
N10 N -0.06901(5) 0.87281(11) 0.07677(11)
C1 C 0.19586(6) 0.08158(12) 0.54061(11)
C2 C 0.20633(6) 0.06472(12) 0.43945(10)
C3 C 0.19556(5) -0.05735(12) 0.39798(10)
C4 C 0.06015(5) 0.29725(14) 0.64538(11)
C5 C 0.05720(6) 0.31322(13) 0.53389(11)
C6 C 0.04453(6) 0.20558(13) 0.46736(11)
C7 C 0.32015(5) 0.24441(11) 0.86996(10)
C8 C 0.16677(5) 0.34604(11) 0.94228(9)
C9 C 0.15994(5) 0.52266(11) 0.60095(9)
C10 C -0.07651(5) 0.56893(11) 0.07300(9)
C11 C -0.08628(5) 0.34631(11) 0.38329(9)
C12 C -0.09158(5) 0.79274(11) 0.03567(10)
H1 H 0.19170 0.24940 0.53060
H2 H 0.24380 0.20940 0.59680
H3 H 0.15860 0.06610 0.52790
H4 H 0.21670 0.02520 0.59270
H5 H 0.23700 -0.04970 0.30600
H6 H 0.18110 -0.02600 0.24910
H7 H 0.18420 0.11860 0.38640
H8 H 0.24320 0.08390 0.45140
H9 H 0.09750 0.15110 0.67230
H10 H 0.10210 0.21260 0.76900
H11 H 0.21860 -0.11090 0.45000
H12 H 0.15910 -0.07750 0.38860
H13 H 0.04440 0.16130 0.32910
H14 H 0.08480 0.24770 0.37920
H15 H 0.06430 0.37330 0.67990
H16 H 0.02720 0.26280 0.64600
H17 H 0.09100 0.34370 0.53450
H18 H 0.03040 0.37210 0.50080
H19 H 0.06830 0.14250 0.50330
H20 H 0.00840 0.18100 0.45610
Cd1 Cd 0.19278(1) 0.26291(1) 0.73147(1)
Cd2 Cd 0.00000 0.37348(1) 0.25000
Co1 Co -0.12690(1) 0.65725(1) -0.03035(1)
N1E N 0.20879(5) -0.19928(10) 1.08341(9)
N1A N -0.20879(5) 0.19928(10) -0.08341(9)
N2E N 0.20383(4) 0.07340(10) 0.79778(9)
N2D N -0.20383(4) 0.07340(10) -0.29778(9)
N3A N -0.10429(4) 0.22203(11) -0.20409(9)
N4A N -0.05042(5) 0.22954(11) 0.13454(9)
N5B N -0.21424(4) 0.79075(11) -0.19095(9)
N5A N -0.28576(4) 0.29075(11) -0.30905(9)
N6D N -0.18880(5) 0.65018(11) 0.11561(9)
N6A N -0.18880(5) 0.34982(11) -0.38439(9)
N7A N -0.17951(4) 0.44303(10) -0.14839(9)
N8A N 0.04741(5) 0.51554(10) 0.36193(9)
N9A N 0.06255(5) 0.35277(12) 0.17094(10)
N10E N -0.06901(5) 0.12719(11) 0.57677(11)
C1E C 0.19586(6) -0.08158(12) 1.04061(11)
C2E C 0.20633(6) -0.06472(12) 0.93945(10)
C3E C 0.19556(5) 0.05735(12) 0.89798(10)
C4A C -0.06015(5) 0.29725(14) -0.14538(11)
C5A C -0.05720(6) 0.31322(13) -0.03389(11)
C6A C -0.04453(6) 0.20558(13) 0.03264(11)
C7B C -0.17985(5) 0.74441(11) -0.13004(10)
C7G C -0.17985(5) 0.25559(11) 0.36996(10)
C8D C -0.16677(5) 0.65396(11) 0.05772(9)
C8A C -0.16677(5) 0.34604(11) 0.55772(9)
C9A C -0.15994(5) 0.52266(11) -0.10095(9)
C9D C -0.15994(5) 0.47734(11) 0.39905(9)
C10A C 0.07651(5) 0.56893(11) 0.42700(9)
C10E C -0.07651(5) 0.43107(11) 0.57300(9)
C11A C 0.08628(5) 0.34631(11) 0.11671(9)
C11E C -0.08628(5) 0.65369(11) -0.11671(9)
C12E C -0.09158(5) 0.20726(11) 0.53567(10)
H1E H 0.19170 -0.24940 1.03060
H1A H -0.19170 0.24940 -0.03060
H2E H 0.24380 -0.20940 1.09680
H2A H -0.24380 0.20940 -0.09680
H3E H 0.15860 -0.06610 1.02790
H4E H 0.21670 -0.02520 1.09270
H5E H 0.23700 0.04970 0.80600
H5D H -0.23700 0.04970 -0.30600
H6E H 0.18110 0.02600 0.74910
H6D H -0.18110 0.02600 -0.24910
H7E H 0.18420 -0.11860 0.88640
H8E H 0.24320 -0.08390 0.95140
H9A H -0.09750 0.15110 -0.17230
H10A H -0.10210 0.21260 -0.26900
H11E H 0.21860 0.11090 0.95000
H12E H 0.15910 0.07750 0.88860
H13A H -0.04440 0.16130 0.17090
H14A H -0.08480 0.24770 0.12080
H15A H -0.06430 0.37330 -0.17990
H16A H -0.02720 0.26280 -0.14600
H17A H -0.09100 0.34370 -0.03450
H18A H -0.03040 0.37210 -0.00080
H19A H -0.06830 0.14250 -0.00330
H20A H -0.00840 0.18100 0.04390
Cd1A Cd -0.19278(1) 0.26291(1) -0.23147(1)
Cd1E Cd 0.19278(1) -0.26291(1) 0.23147(1)
Cd1E_2 Cd 0.19278(1) -0.26291(1) 1.23147(1)
Cd1B Cd -0.30722(1) 0.76291(1) -0.26853(1)
Cd1D Cd -0.19278(1) 0.73709(1) 0.26853(1)
Co1A Co 0.12690(1) 0.65725(1) 0.53035(1)
Co1B Co 0.37310(1) 0.15725(1) 0.96965(1)
Co1D Co 0.12690(1) 0.34275(1) 1.03035(1)
Co1E Co -0.12690(1) 0.34275(1) 0.46965(1)
Co1D_2 Co 0.12690(1) 0.34275(1) 0.03035(1)
O1 O 0.16789(6) 0.35967(12) 0.37574(10)
H21 H 0.1476(9) 0.345(2) 0.3113(14)
H22 H 0.1667(10) 0.4318(14) 0.3857(19)
O2 O 0.08972(7) 0.03650(13) 0.17021(15)
H23 H 0.0586(13) 0.043(3) 0.183(2)
H24 H 0.0814(12) 0.079(3) 0.109(2)
O3 O 0.00000 0.00073(15) 0.75000
H25 H 0.0175(10) 0.043(2) 0.7939(19)
H25A H -0.0175(10) 0.043(2) 0.7061(19)
loop_
_geom_bond_atom_site_label_1
_geom_bond_atom_site_label_2
_geom_bond_site_symmetry_1
_geom_bond_site_symmetry_2
N1 C1 1_555 1_555
N2 C3 1_555 1_555
N3 C4 1_555 1_555
N4 C6 1_555 1_555
N5 C7 1_555 1_555
N6 C8 1_555 1_555
N7 C9 1_555 1_555
N8 C10 1_555 1_555
N9 C11 1_555 1_555
N10 C12 1_555 1_555
C1 C2 1_555 1_555
C2 C3 1_555 1_555
C3 H11 1_555 1_555
C4 C5 1_555 1_555
C5 C6 1_555 1_555
C6 H19 1_555 1_555
C7 Co1B 1_555 1_555
C8 Co1D 1_555 1_555
C9 Co1A 1_555 1_555
C10 Co1 1_555 1_555
C11 Co1E 1_555 1_555
C12 Co1 1_555 1_555
O1 H21 1_555 1_555
O2 H23 1_555 1_555
O3 H25 1_555 1_555
H1 N1 1_555 1_555
H2 N1 1_555 1_555
H3 C1 1_555 1_555
H4 C1 1_555 1_555
H5 N2 1_555 1_555
H6 N2 1_555 1_555
H7 C2 1_555 1_555
H8 C2 1_555 1_555
H9 N3 1_555 1_555
H10 N3 1_555 1_555
H12 C3 1_555 1_555
H13 N4 1_555 1_555
H14 N4 1_555 1_555
H15 C4 1_555 1_555
H16 C4 1_555 1_555
H17 C5 1_555 1_555
H18 C5 1_555 1_555
H20 C6 1_555 1_555
H22 O1 1_555 1_555
H24 O2 1_555 1_555
Cd1 N1 1_555 1_555
Cd2 N4 1_555 1_555
Co1 C7B 1_555 1_555
N1E C1E 1_555 1_555
N1A H1A 1_555 1_555
N2E Cd1 1_555 1_555
N2D H5D 1_555 1_555
N3A C4A 1_555 1_555
N4A Cd2 1_555 1_555
N5B C7B 1_555 1_555
N5A Cd1A 1_555 1_555
N6D C8D 1_555 1_555
N6A Cd1A 1_555 1_555
N7A C9A 1_555 1_555
N8A Cd2 1_555 1_555
N9A Cd2 1_555 1_555
N10E C12E 1_555 1_555
C1E C2E 1_555 1_555
C2E C3E 1_555 1_555
C3E N2E 1_555 1_555
C4A C5A 1_555 1_555
C5A C6A 1_555 1_555
C6A N4A 1_555 1_555
C7G Co1E 1_555 1_555
C8D Co1 1_555 1_555
C8A Co1E 1_555 1_555
C9A Co1 1_555 1_555
C9D Co1E 1_555 1_555
C10A N8A 1_555 1_555
C10E Co1E 1_555 1_555
C11A N9A 1_555 1_555
C11E Co1 1_555 1_555
C12E Co1E 1_555 1_555
H1E N1E 1_555 1_555
H2E N1E 1_555 1_555
H2A N1A 1_555 1_555
H3E C1E 1_555 1_555
H4E C1E 1_555 1_555
H5E N2E 1_555 1_555
H6E N2E 1_555 1_555
H6D N2D 1_555 1_555
H7E C2E 1_555 1_555
H8E C2E 1_555 1_555
H9A N3A 1_555 1_555
H10A N3A 1_555 1_555
H11E C3E 1_555 1_555
H12E C3E 1_555 1_555
H13A N4A 1_555 1_555
H14A N4A 1_555 1_555
H15A C4A 1_555 1_555
H16A C4A 1_555 1_555
H17A C5A 1_555 1_555
H18A C5A 1_555 1_555
H19A C6A 1_555 1_555
H20A C6A 1_555 1_555
H25A O3 1_555 1_555
Cd1A N1A 1_555 1_555
Cd1E N2 1_555 1_555
Cd1E_2 N1E 1_555 1_555
Cd1B N5B 1_555 1_555
Cd1D N6D 1_555 1_555
Co1A C10A 1_555 1_555
Co1D_2 C11A 1_555 1_555
N3 Cd1 1_555 1_555
N5 Cd1 1_555 1_555
N6 Cd1 1_555 1_555
N7 Cd1 1_555 1_555
N8 Cd2 1_555 1_555
N9 Cd2 1_555 1_555
N2D Cd1A 1_555 1_555
N3A Cd1A 1_555 1_555
N7A Cd1A 1_555 1_555

#END
