
#######################################################################
#
#                 Cambridge Crystallographic Data Centre
#                                CCDC 
#
#######################################################################
#
# If this CIF has been generated from an entry in the Cambridge 
# Structural Database, then it will include bibliographic, chemical, 
# crystal, experimental, refinement or atomic coordinate data resulting 
# from the CCDC's data processing and validation procedures.
#
#######################################################################

data_FUFMAV
_symmetry_cell_setting           orthorhombic
_symmetry_space_group_name_H-M   'P b c a'
_symmetry_Int_Tables_number      61
_space_group_name_Hall           '-P 2ac 2ab'
loop_
_symmetry_equiv_pos_site_id
_symmetry_equiv_pos_as_xyz
1 x,y,z
2 1/2-x,-y,1/2+z
3 -x,1/2+y,1/2-z
4 1/2+x,1/2-y,-z
5 -x,-y,-z
6 1/2+x,y,1/2-z
7 x,1/2-y,1/2+z
8 1/2-x,1/2+y,z
_cell_length_a                   19.244(3)
_cell_length_b                   18.468(3)
_cell_length_c                   19.444(3)
_cell_angle_alpha                90
_cell_angle_beta                 90
_cell_angle_gamma                90
_cell_volume                     6910.36
loop_
_atom_site_label
_atom_site_type_symbol
_atom_site_fract_x
_atom_site_fract_y
_atom_site_fract_z
Co1 Co -0.13421(5) 0.52888(6) 0.71814(5)
Co2 Co 0.26433(6) 0.12226(6) 0.53035(5)
S1 S 0.18857(13) -0.11420(13) 0.67779(11)
S2 S -0.36497(12) 0.44205(14) 0.58053(13)
O1 O 0.3152(3) 0.0347(3) 0.4904(3)
O2 O 0.3138(4) -0.0847(4) 0.4857(3)
O3 O 0.2474(3) -0.1214(3) 0.7229(3)
O4 O 0.1441(3) -0.0521(3) 0.6959(3)
O5 O 0.1482(3) -0.1802(4) 0.6720(3)
O6 O -0.2185(3) 0.5794(3) 0.7604(3)
O7 O -0.3328(3) 0.5862(4) 0.7613(3)
O8 O -0.3719(4) 0.5016(4) 0.5321(3)
O9 O -0.4285(4) 0.4041(5) 0.5930(5)
O10 O -0.3065(3) 0.3949(3) 0.5623(3)
O11 O 0.3336(3) 0.1400(4) 0.6137(3)
H1 H 0.3304 0.1195 0.6520
H2 H 0.3733 0.1348 0.5977
O12 O -0.1234(3) 0.6039(3) 0.6345(3)
H3 H -0.1558 0.5970 0.6054
H4 H -0.1171 0.6494 0.6395
N1 N 0.1920(3) 0.2005(3) 0.5644(3)
N2 N -0.0533(3) 0.4614(3) 0.6795(3)
N3 N 0.2174(3) 0.0387(3) 0.5876(3)
H11 H 0.2138 0.0522 0.6320
H12 H 0.1743 0.0303 0.5714
N4 N -0.0602(3) 0.5877(4) 0.7796(3)
N5 N 0.1795(4) 0.8010(4) 0.9703(3)
N6 N -0.2155(3) 0.4791(3) 0.6627(3)
H13 H -0.2037 0.4757 0.6181
H14 H -0.2225 0.4340 0.6789
C1 C -0.0470(4) 0.4444(5) 0.6132(4)
H15 H -0.0765 0.4667 0.5818
C2 C 0.0007(5) 0.3954(5) 0.5889(4)
H16 H 0.0038 0.3863 0.5419
C3 C 0.0445(4) 0.3593(4) 0.6342(3)
C4 C 0.0371(4) 0.3770(5) 0.7027(4)
H17 H 0.0651 0.3547 0.7355
C5 C -0.0114(4) 0.4272(5) 0.7228(4)
H18 H -0.0150 0.4378 0.7694
C6 C 0.0953(4) 0.3039(4) 0.6104(4)
C7 C 0.1367(5) 0.2658(5) 0.6547(4)
H19 H 0.1331 0.2741 0.7018
C8 C 0.1836(4) 0.2157(4) 0.6310(4)
H20 H 0.2108 0.1911 0.6628
C9 C 0.1510(5) 0.2370(5) 0.5217(4)
H21 H 0.1553 0.2274 0.4750
C10 C 0.1039(4) 0.2867(4) 0.5411(4)
H22 H 0.0768 0.3097 0.5081
C11 C 0.2995(5) -0.0272(6) 0.5130(4)
C12 C 0.2595(5) -0.0288(4) 0.5827(4)
H23 H 0.2944 -0.0267 0.6194
C13 C 0.2194(5) -0.0978(5) 0.5924(4)
H24 H 0.2488 -0.1380 0.5788
H25 H 0.1798 -0.0971 0.5615
C14 C -0.0458(4) 0.5723(5) 0.8451(4)
H26 H -0.0695 0.5343 0.8659
C15 C 0.0027(5) 0.6100(5) 0.8839(4)
H27 H 0.0105 0.5972 0.9296
C16 C 0.0394(4) 0.6661(4) 0.8549(4)
C17 C 0.0251(4) 0.6812(5) 0.7869(4)
H28 H 0.0490 0.7180 0.7645
C18 C -0.0238(5) 0.6423(5) 0.7526(4)
H29 H -0.0327 0.6547 0.7071
C19 C 0.0901(4) 0.7095(4) 0.8945(4)
C20 C 0.0923(6) 0.7093(5) 0.9641(4)
H30 H 0.0626 0.6794 0.9889
C21 C 0.1392(6) 0.7541(6) 0.9984(5)
H31 H 0.1416 0.7495 1.0460
C22 C 0.1790(5) 0.7993(6) 0.9019(5)
H32 H 0.2094 0.8300 0.8789
C23 C 0.1371(5) 0.7559(6) 0.8628(5)
H33 H 0.1401 0.7574 0.8151
C24 C -0.2782(5) 0.5659(5) 0.7369(4)
C25 C -0.2803(4) 0.5217(5) 0.6694(4)
H34 H -0.2795 0.5571 0.6320
C26 C -0.3465(5) 0.4820(6) 0.6625(5)
H35 H -0.3840 0.5151 0.6735
H36 H -0.3472 0.4438 0.6967
Co1B Co 0.13421(5) 0.02888(6) 0.78186(5)
Co2A Co 0.23567(6) 0.87774(6) 1.03035(5)
Co2C Co -0.23567(6) 0.37774(6) 0.46965(5)
O4B O -0.1441(3) 0.4479(3) 0.8041(3)
O10C O 0.1935(3) 0.1051(3) 0.4377(3)
N5A N 0.3205(4) 0.1990(4) 0.4703(3)
O13 O 0.8435(8) 0.7527(6) 0.6702(6)
H5 H 0.8340 0.7878 0.6435
H6 H 0.8892 0.7428 0.6706
O14 O 0.4892(4) 0.2894(4) 0.6319(4)
H7 H 0.4463 0.2916 0.6408
H8 H 0.4966 0.3090 0.5931
O15 O 0.4811(4) 0.1457(5) 0.5823(4)
H9 H 0.4893 0.1947 0.5671
H10 H 0.5212 0.1338 0.5968
loop_
_geom_bond_atom_site_label_1
_geom_bond_atom_site_label_2
_geom_bond_site_symmetry_1
_geom_bond_site_symmetry_2
Co1 O6 1_555 1_555
Co2 O1 1_555 1_555
S1 O3 1_555 1_555
S2 O8 1_555 1_555
O1 C11 1_555 1_555
O2 C11 1_555 1_555
O4 S1 1_555 1_555
O5 S1 1_555 1_555
O6 C24 1_555 1_555
O7 C24 1_555 1_555
O9 S2 1_555 1_555
O10 S2 1_555 1_555
O11 Co2 1_555 1_555
H1 O11 1_555 1_555
H2 O11 1_555 1_555
O12 Co1 1_555 1_555
H3 O12 1_555 1_555
H4 O12 1_555 1_555
O13 H5 1_555 1_555
H6 O13 1_555 1_555
O14 H7 1_555 1_555
H8 O14 1_555 1_555
O15 H9 1_555 1_555
H10 O15 1_555 1_555
N1 Co2 1_555 1_555
N2 Co1 1_555 1_555
N3 Co2 1_555 1_555
H11 N3 1_555 1_555
H12 N3 1_555 1_555
N4 Co1 1_555 1_555
N5 C21 1_555 1_555
N6 Co1 1_555 1_555
H13 N6 1_555 1_555
H14 N6 1_555 1_555
C1 N2 1_555 1_555
H15 C1 1_555 1_555
C2 C1 1_555 1_555
H16 C2 1_555 1_555
C3 C2 1_555 1_555
C4 C3 1_555 1_555
H17 C4 1_555 1_555
C5 N2 1_555 1_555
H18 C5 1_555 1_555
C6 C3 1_555 1_555
C7 C6 1_555 1_555
H19 C7 1_555 1_555
C8 N1 1_555 1_555
H20 C8 1_555 1_555
C9 N1 1_555 1_555
H21 C9 1_555 1_555
C10 C6 1_555 1_555
H22 C10 1_555 1_555
C11 C12 1_555 1_555
C12 N3 1_555 1_555
H23 C12 1_555 1_555
C13 S1 1_555 1_555
H24 C13 1_555 1_555
H25 C13 1_555 1_555
C14 N4 1_555 1_555
H26 C14 1_555 1_555
C15 C14 1_555 1_555
H27 C15 1_555 1_555
C16 C15 1_555 1_555
C17 C16 1_555 1_555
H28 C17 1_555 1_555
C18 N4 1_555 1_555
H29 C18 1_555 1_555
C19 C16 1_555 1_555
C20 C19 1_555 1_555
H30 C20 1_555 1_555
C21 C20 1_555 1_555
H31 C21 1_555 1_555
C22 N5 1_555 1_555
H32 C22 1_555 1_555
C23 C19 1_555 1_555
H33 C23 1_555 1_555
C24 C25 1_555 1_555
C25 N6 1_555 1_555
H34 C25 1_555 1_555
C26 S2 1_555 1_555
H35 C26 1_555 1_555
H36 C26 1_555 1_555
Co1B O4 1_555 1_555
Co2A N5 1_555 1_555
Co2C O10 1_555 1_555
O4B Co1 1_555 1_555
O10C Co2 1_555 1_555
N5A Co2 1_555 1_555
C4 C5 1_555 1_555
C7 C8 1_555 1_555
C9 C10 1_555 1_555
C12 C13 1_555 1_555
C17 C18 1_555 1_555
C22 C23 1_555 1_555
C25 C26 1_555 1_555

#END
