
#######################################################################
#
#                 Cambridge Crystallographic Data Centre
#                                CCDC 
#
#######################################################################
#
# If this CIF has been generated from an entry in the Cambridge 
# Structural Database, then it will include bibliographic, chemical, 
# crystal, experimental, refinement or atomic coordinate data resulting 
# from the CCDC's data processing and validation procedures.
#
#######################################################################

data_FUFNAW
_symmetry_cell_setting           monoclinic
_symmetry_space_group_name_H-M   'P 21'
_symmetry_Int_Tables_number      4
_space_group_name_Hall           'P 2yb'
loop_
_symmetry_equiv_pos_site_id
_symmetry_equiv_pos_as_xyz
1 x,y,z
2 -x,1/2+y,-z
_cell_length_a                   10.9407(16)
_cell_length_b                   11.8196(17)
_cell_length_c                   11.0579(16)
_cell_angle_alpha                90
_cell_angle_beta                 105.9480(10)
_cell_angle_gamma                90
_cell_volume                     1374.91
loop_
_atom_site_label
_atom_site_type_symbol
_atom_site_fract_x
_atom_site_fract_y
_atom_site_fract_z
Pr1 Pr 0.97153(3) -0.10026(3) 0.29762(3)
Pr2 Pr 1.19755(3) -0.60241(3) 0.30779(3)
Pr3 Pr 1.42486(3) -0.24237(3) 0.37990(3)
P1 P 1.53541(16) -0.54299(15) 0.35257(15)
O1 O 1.6114(4) -0.6083(6) 0.4655(4)
O2 O 1.4103(4) -0.6005(5) 0.2867(4)
O3 O 1.5193(5) -0.4194(4) 0.3776(5)
O4 O 1.5505(5) -0.3959(5) -0.1193(4)
O5 O 1.0100(5) -0.4799(4) 0.3030(5)
O6 O 0.9371(5) -0.3072(4) 0.3266(5)
O7 O 1.2490(4) -0.3991(4) 0.3749(4)
O8 O 1.1739(4) -0.2251(4) 0.3449(4)
O9 O 0.8809(5) 0.0169(4) 0.0988(4)
O10 O 0.8206(5) 0.0105(4) -0.1127(4)
O11 O 0.9900(6) -0.1877(5) 0.1019(4)
O12 O 0.9326(6) -0.1872(5) -0.1089(4)
O13 O 0.6423(4) -0.1509(4) 0.4716(4)
O14 O 0.8240(4) -0.0892(5) 0.4436(4)
O15 O 0.5661(4) -0.2201(4) 0.2317(4)
O16 O 0.7427(4) -0.1464(4) 0.1979(4)
O17 O 1.2416(5) 0.1909(4) 0.3066(5)
O18 O 1.1527(5) 0.0199(4) 0.2814(5)
O19 O 1.0314(5) 0.2750(4) 0.3542(5)
O20 O 0.9554(5) 0.1005(4) 0.3558(5)
O21 O 1.1105(4) -0.0897(6) 0.5174(4)
H1 H 1.0777 -0.0440 0.5603
H2 H 1.1172 -0.1562 0.5505
O22 O 1.4838(5) -0.3315(5) 0.5987(5)
H3 H 1.5631 -0.3208 0.6356
H4 H 1.4385 -0.3022 0.6430
O23 O 1.3743(6) -0.0583(5) 0.2682(6)
H5 H 1.4440 -0.0238 0.2700
H6 H 1.3314 -0.0696 0.1915
O24 O 1.3141(5) -0.2974(5) 0.1575(5)
H7 H 1.3646 -0.2864 0.1113
H8 H 1.2937 -0.3680 0.1553
N1 N 1.5944(5) -0.4568(5) 0.1402(5)
H13 H 1.5711 -0.3915 0.1714
C1 C 1.6365(7) -0.5386(7) 0.2460(7)
H14 H 1.7222 -0.5191 0.2940
H15 H 1.6393 -0.6136 0.2114
C2 C 1.7014(7) -0.4300(7) 0.0833(7)
H16 H 1.7325 -0.4995 0.0557
H17 H 1.7709 -0.3955 0.1465
C3 C 1.6576(8) -0.3499(8) -0.0280(7)
H18 H 1.6349 -0.2774 0.0009
H19 H 1.7265 -0.3376 -0.0661
C4 C 1.4832(7) -0.4985(7) 0.0387(7)
H20 H 1.5045 -0.5699 0.0063
H21 H 1.4117 -0.5112 0.0730
C5 C 1.4468(7) -0.4132(8) -0.0666(7)
H22 H 1.3735 -0.4404 -0.1312
H23 H 1.4241 -0.3422 -0.0347
C6 C 1.0222(6) -0.3755(6) 0.3247(6)
C7 C 1.1591(6) -0.3288(6) 0.3506(6)
C8 C 0.8736(6) -0.0277(6) -0.0043(6)
C9 C 0.9376(7) -0.1451(7) -0.0038(6)
C10 C 0.7157(6) -0.1331(5) 0.4036(6)
C11 C 0.6698(6) -0.1700(5) 0.2641(6)
C12 C 1.1536(7) 0.1232(6) 0.3072(6)
C13 C 1.0359(7) 0.1723(6) 0.3439(6)
Pr2A Pr 0.80245(3) -0.10241(3) -0.30779(3)
Pr2A_2 Pr 0.80245(3) -0.10241(3) 0.69221(3)
Pr2_2 Pr 1.19755(3) 0.39759(3) 0.30779(3)
Pr3A Pr 1.57514(3) -0.74237(3) 0.62010(3)
Pr3_2 Pr 0.42486(3) -0.24237(3) 0.37990(3)
O1A O 1.3886(4) -0.1083(6) 0.5345(4)
O10A O 1.1794(5) -0.4895(4) 0.1127(4)
O12A O 1.0674(6) -0.6872(5) 0.1089(4)
O13A O 1.3577(4) -0.6509(4) 0.5284(4)
O13_2 O 1.6423(4) -0.1509(4) 0.4716(4)
O14A O 1.1760(4) -0.5892(5) 0.5564(4)
O15_2 O 1.5661(4) -0.2201(4) 0.2317(4)
O17_2 O 1.2416(5) -0.8091(4) 0.3066(5)
O19_2 O 1.0314(5) -0.7250(4) 0.3542(5)
O25 O 1.2059(6) -0.2166(7) -0.0839(6)
H9 H 1.1631 -0.1881 -0.1544
H10 H 1.2826 -0.1913 -0.0651
O26 O 1.2621(11) -0.2881(9) 0.6844(12)
H11 H 1.3114 -0.2906 0.7598
H12 H 1.2498 -0.3557 0.6543
loop_
_geom_bond_atom_site_label_1
_geom_bond_atom_site_label_2
_geom_bond_site_symmetry_1
_geom_bond_site_symmetry_2
Pr1 O6 1_555 1_555
Pr2 O2 1_555 1_555
Pr3 O3 1_555 1_555
P1 O1 1_555 1_555
O1 Pr3A 1_555 1_555
O2 P1 1_555 1_555
O3 P1 1_555 1_555
O4 C3 1_555 1_555
O5 Pr2 1_555 1_555
O6 C6 1_555 1_555
O7 Pr2 1_555 1_555
O8 Pr1 1_555 1_555
O9 Pr1 1_555 1_555
O10 C8 1_555 1_555
O11 Pr1 1_555 1_555
O12 C9 1_555 1_555
O13 C10 1_555 1_555
O14 Pr1 1_555 1_555
O15 C11 1_555 1_555
O16 Pr1 1_555 1_555
O17 C12 1_555 1_555
O18 Pr1 1_555 1_555
O19 C13 1_555 1_555
O20 Pr1 1_555 1_555
O21 Pr1 1_555 1_555
H1 O21 1_555 1_555
H2 O21 1_555 1_555
O22 Pr3 1_555 1_555
H3 O22 1_555 1_555
H4 O22 1_555 1_555
O23 Pr3 1_555 1_555
H5 O23 1_555 1_555
H6 O23 1_555 1_555
O24 Pr3 1_555 1_555
H7 O24 1_555 1_555
H8 O24 1_555 1_555
O25 H9 1_555 1_555
H10 O25 1_555 1_555
O26 H11 1_555 1_555
H12 O26 1_555 1_555
N1 H13 1_555 1_555
C1 P1 1_555 1_555
H14 C1 1_555 1_555
H15 C1 1_555 1_555
C2 N1 1_555 1_555
H16 C2 1_555 1_555
H17 C2 1_555 1_555
C3 C2 1_555 1_555
H18 C3 1_555 1_555
H19 C3 1_555 1_555
C4 N1 1_555 1_555
H20 C4 1_555 1_555
H21 C4 1_555 1_555
C5 O4 1_555 1_555
H22 C5 1_555 1_555
H23 C5 1_555 1_555
C6 O5 1_555 1_555
C7 O7 1_555 1_555
C8 O9 1_555 1_555
C9 O11 1_555 1_555
C10 O14 1_555 1_555
C11 O16 1_555 1_555
C12 O18 1_555 1_555
C13 O20 1_555 1_555
Pr2A O10 1_555 1_555
Pr2A_2 O13 1_555 1_555
Pr2_2 O17 1_555 1_555
Pr3A O13A 1_555 1_555
Pr3_2 O13 1_555 1_555
O1A Pr3 1_555 1_555
O10A Pr2 1_555 1_555
O12A Pr2 1_555 1_555
O13A Pr2 1_555 1_555
O13_2 Pr3 1_555 1_555
O14A Pr2 1_555 1_555
O15_2 Pr3 1_555 1_555
O17_2 Pr2 1_555 1_555
O19_2 Pr2 1_555 1_555
Pr3 O7 1_555 1_555
Pr3 O8 1_555 1_555
O8 C7 1_555 1_555
O12 Pr2A 1_555 1_555
O14 Pr2A_2 1_555 1_555
O15 Pr3_2 1_555 1_555
O19 Pr2_2 1_555 1_555
N1 C1 1_555 1_555
C4 C5 1_555 1_555
C6 C7 1_555 1_555
C8 C9 1_555 1_555
C10 C11 1_555 1_555
C12 C13 1_555 1_555

#END
