
#######################################################################
#
#                 Cambridge Crystallographic Data Centre
#                                CCDC 
#
#######################################################################
#
# If this CIF has been generated from an entry in the Cambridge 
# Structural Database, then it will include bibliographic, chemical, 
# crystal, experimental, refinement or atomic coordinate data resulting 
# from the CCDC's data processing and validation procedures.
#
#######################################################################

data_FUFNUR
_symmetry_cell_setting           monoclinic
_symmetry_space_group_name_H-M   'P 21/c'
_symmetry_Int_Tables_number      14
_space_group_name_Hall           '-P 2ybc'
loop_
_symmetry_equiv_pos_site_id
_symmetry_equiv_pos_as_xyz
1 x,y,z
2 -x,1/2+y,1/2-z
3 -x,-y,-z
4 x,1/2-y,1/2+z
_cell_length_a                   8.8834(16)
_cell_length_b                   30.945(6)
_cell_length_c                   7.4462(14)
_cell_angle_alpha                90
_cell_angle_beta                 113.279(4)
_cell_angle_gamma                90
_cell_volume                     1880.3
loop_
_atom_site_label
_atom_site_type_symbol
_atom_site_fract_x
_atom_site_fract_y
_atom_site_fract_z
Mn1 Mn 0.09540(8) 0.16136(2) 0.11427(9)
C1 C -0.0556(5) 0.17702(12) 0.4509(6)
C2 C -0.0753(5) 0.13155(13) 0.5142(6)
C3 C -0.2237(5) 0.10989(13) 0.4298(6)
C4 C -0.2386(5) 0.06743(14) 0.4797(6)
C5 C -0.1035(6) 0.04570(14) 0.6154(6)
C6 C 0.0406(5) 0.06818(14) 0.7057(6)
C7 C 0.0564(5) 0.11096(13) 0.6591(6)
C8 C 0.2138(5) 0.13541(13) 0.7684(6)
C9 C -0.2447(6) 0.12653(16) -0.1134(7)
H1 H -0.2684 0.1551 -0.1538
C10 C 0.2888(6) 0.23897(18) 0.3451(9)
H2 H 0.1850 0.2480 0.3316
C11 C -0.3461(7) 0.05533(18) -0.0848(9)
H3 H -0.2311 0.0489 -0.0238
H4 H -0.3972 0.0363 -0.1940
H5 H -0.3952 0.0513 0.0080
C12 C 0.5724(8) 0.2572(3) 0.4660(15)
H6 H 0.5954 0.2268 0.4806
H7 H 0.6446 0.2722 0.5807
H8 H 0.5889 0.2678 0.3538
Cl1 Cl -0.39377(13) 0.13651(4) 0.26822(18)
Cl2 Cl -0.42485(16) 0.04100(4) 0.3792(2)
Cl3 Cl -0.11781(18) -0.00784(4) 0.6699(2)
Cl4 Cl 0.20844(17) 0.04350(4) 0.8817(2)
N1 N -0.3683(5) 0.09962(14) -0.1522(6)
H9 H -0.4643 0.1094 -0.2144
N2 N 0.4106(5) 0.26443(14) 0.4409(7)
H10 H 0.3920 0.2897 0.4716
O1 O -0.0270(4) 0.18122(10) 0.3018(5)
O2 O -0.0723(5) 0.20796(10) 0.5488(5)
O3 O 0.3126(4) 0.13866(12) 0.6885(4)
O4 O 0.2345(4) 0.15040(10) 0.9320(4)
O5 O 0.2335(4) 0.11111(11) 0.3185(5)
H11 H 0.2491 0.1134 0.4343
H12 H 0.2668 0.0900 0.2785
O6 O -0.0500(4) 0.21095(10) -0.0826(4)
H13 H -0.0766 0.2082 -0.2019
H14 H -0.0813 0.2324 -0.0408
O7 O -0.1002(4) 0.11643(10) -0.0276(5)
O8 O 0.2977(4) 0.20476(10) 0.2720(5)
Mn1_2 Mn 0.09540(8) 0.16136(2) 1.11427(9)
O4_2 O 0.2345(4) 0.15040(10) -0.0680(4)
loop_
_geom_bond_atom_site_label_1
_geom_bond_atom_site_label_2
_geom_bond_site_symmetry_1
_geom_bond_site_symmetry_2
Mn1 O1 1_555 1_555
C1 C2 1_555 1_555
C2 C3 1_555 1_555
C3 C4 1_555 1_555
C4 C5 1_555 1_555
C5 C6 1_555 1_555
C6 C7 1_555 1_555
C7 C2 1_555 1_555
C8 C7 1_555 1_555
C9 H1 1_555 1_555
C10 H2 1_555 1_555
C11 H3 1_555 1_555
H4 C11 1_555 1_555
H5 C11 1_555 1_555
C12 H6 1_555 1_555
H7 C12 1_555 1_555
H8 C12 1_555 1_555
Cl1 C3 1_555 1_555
Cl2 C4 1_555 1_555
Cl3 C5 1_555 1_555
Cl4 C6 1_555 1_555
N1 C9 1_555 1_555
H9 N1 1_555 1_555
N2 C10 1_555 1_555
H10 N2 1_555 1_555
O1 C1 1_555 1_555
O2 C1 1_555 1_555
O3 C8 1_555 1_555
O4 C8 1_555 1_555
O5 Mn1 1_555 1_555
H11 O5 1_555 1_555
H12 O5 1_555 1_555
O6 Mn1 1_555 1_555
H13 O6 1_555 1_555
H14 O6 1_555 1_555
O7 Mn1 1_555 1_555
O8 Mn1 1_555 1_555
Mn1_2 O4 1_555 1_555
O4_2 Mn1 1_555 1_555
C9 O7 1_555 1_555
C10 O8 1_555 1_555
C11 N1 1_555 1_555
C12 N2 1_555 1_555

#END
