
#######################################################################
#
#                 Cambridge Crystallographic Data Centre
#                                CCDC 
#
#######################################################################
#
# If this CIF has been generated from an entry in the Cambridge 
# Structural Database, then it will include bibliographic, chemical, 
# crystal, experimental, refinement or atomic coordinate data resulting 
# from the CCDC's data processing and validation procedures.
#
#######################################################################

data_FUFNOK
_symmetry_cell_setting           monoclinic
_symmetry_space_group_name_H-M   'P 21/c'
_symmetry_Int_Tables_number      14
_space_group_name_Hall           '-P 2ybc'
loop_
_symmetry_equiv_pos_site_id
_symmetry_equiv_pos_as_xyz
1 x,y,z
2 -x,1/2+y,1/2-z
3 -x,-y,-z
4 x,1/2-y,1/2+z
_cell_length_a                   9.2690(8)
_cell_length_b                   19.3971(17)
_cell_length_c                   12.4863(11)
_cell_angle_alpha                90
_cell_angle_beta                 100.7670(10)
_cell_angle_gamma                90
_cell_volume                     2205.41
loop_
_atom_site_label
_atom_site_type_symbol
_atom_site_fract_x
_atom_site_fract_y
_atom_site_fract_z
Eu1 Eu 0.29296(3) 0.553894(12) 0.655954(19)
Eu2 Eu -0.15604(3) 0.743490(12) 0.82919(2)
P1 P 0.33567(14) 0.39289(6) 0.82438(10)
O1 O 0.3310(4) 0.46484(17) 0.7830(3)
O2 O 0.2205(4) 0.34242(17) 0.7727(3)
O3 O 0.3438(4) 0.39921(18) 0.9509(3)
H1 H 0.2777 0.3764 0.9688
O4 O 0.9342(4) 0.4347(2) 0.9108(3)
O5 O 0.1055(4) 0.56385(18) 0.7659(3)
O6 O -0.0656(4) 0.62988(17) 0.8182(3)
O7 O 0.0107(4) 0.73487(17) 0.7031(3)
O8 O 0.2069(4) 0.67542(18) 0.6721(3)
O9 O 0.6782(4) 0.70059(19) 0.6656(3)
O10 O 0.4760(4) 0.63820(18) 0.6040(3)
O11 O 0.4583(4) 0.60665(18) 0.8108(3)
O12 O 0.6270(4) 0.68736(19) 0.8689(3)
O13 O 0.3271(4) 0.53912(18) 0.4679(3)
O14 O 0.4824(4) 0.50916(18) 0.3589(3)
O15 O 0.1467(4) 0.45341(17) 0.5734(3)
O16 O -0.0616(4) 0.41670(17) 0.4697(3)
O17 O -0.0851(4) 0.69156(18) 1.0110(3)
H2 H -0.0385 0.6542 1.0058
H3 H -0.0300 0.7196 1.0525
O18 O -0.2475(4) 0.82215(17) 0.9539(3)
H4 H -0.2914 0.8558 0.9177
H5 H -0.3075 0.8008 0.9861
O19 O 0.0697(4) 0.80064(19) 0.9092(3)
H6 H 0.0918 0.8303 0.8645
H7 H 0.0580 0.8210 0.9675
N1 N 0.6343(5) 0.4054(2) 0.8194(3)
H10 H 0.6042 0.4439 0.7798
C1 C 0.5083(6) 0.3557(3) 0.8040(5)
H11 H 0.5333 0.3177 0.8545
H12 H 0.4950 0.3370 0.7307
C2 C 0.6818(6) 0.4268(3) 0.9364(4)
H13 H 0.6039 0.4531 0.9593
H14 H 0.6996 0.3861 0.9820
C3 C 0.8199(6) 0.4700(3) 0.9510(5)
H15 H 0.7989 0.5132 0.9123
H16 H 0.8523 0.4803 1.0277
C4 C 0.7606(6) 0.3747(3) 0.7753(5)
H17 H 0.7862 0.3303 0.8091
H18 H 0.7318 0.3677 0.6973
C5 C 0.8919(6) 0.4222(3) 0.7981(5)
H19 H 0.9731 0.4015 0.7708
H20 H 0.8679 0.4655 0.7603
C6 C 0.0404(6) 0.6194(3) 0.7699(4)
C7 C 0.0929(6) 0.6821(2) 0.7094(4)
C8 C 0.5695(5) 0.6635(2) 0.6779(4)
C9 C 0.5490(6) 0.6503(2) 0.7967(4)
C10 C 0.4445(6) 0.5140(2) 0.4499(4)
C11 C 0.0255(6) 0.4629(2) 0.5127(4)
Eu1B Eu 0.70704(3) 0.446106(12) 0.344046(19)
Eu1B_2 Eu -0.29296(3) 0.446106(12) 0.344046(19)
Eu1A Eu -0.29296(3) 1.053894(12) 0.844046(19)
Eu1_2 Eu -0.70704(3) 0.553894(12) 0.655954(19)
Eu2A Eu 0.15604(3) 0.243490(12) 0.67081(2)
Eu2_2 Eu 0.84396(3) 0.743490(12) 0.82919(2)
Eu2B Eu 1.15604(3) 0.256510(12) 0.17081(2)
P1A P -0.33567(14) 0.89289(6) 0.67562(10)
O1A O -0.3310(4) 0.96484(17) 0.7170(3)
O1B O 0.6690(4) 0.53516(17) 0.2170(3)
O2A O -0.2205(4) 0.84242(17) 0.7273(3)
O3A O -0.3438(4) 0.89921(18) 0.5491(3)
H1A H -0.2777 0.8764 0.5312
O4A O -0.9342(4) 0.9347(2) 0.5892(3)
O5B O 0.8945(4) 0.43615(18) 0.2341(3)
O6B O 1.0656(4) 0.37012(17) 0.1818(3)
O6A O 0.0656(4) 0.12988(17) 0.6818(3)
O7B O 0.9893(4) 0.26513(17) 0.2969(3)
O7A O -0.0107(4) 0.23487(17) 0.7969(3)
O8B O 0.7931(4) 0.32458(18) 0.3279(3)
O9_2 O -0.3218(4) 0.70059(19) 0.6656(3)
O9A O 0.3218(4) 0.20059(19) 0.8344(3)
O10_2 O -0.5240(4) 0.63820(18) 0.6040(3)
O10B O 0.5240(4) 0.36180(18) 0.3960(3)
O11_2 O -0.5417(4) 0.60665(18) 0.8108(3)
O11B O 0.5417(4) 0.39335(18) 0.1892(3)
O12_2 O -0.3730(4) 0.68736(19) 0.8689(3)
O12A O 0.3730(4) 0.18736(19) 0.6311(3)
O13B O 0.6729(4) 0.46088(18) 0.5321(3)
O14B O 0.5176(4) 0.49084(18) 0.6411(3)
O15B O -0.1467(4) 0.54659(17) 0.4266(3)
O15B_2 O 0.8533(4) 0.54659(17) 0.4266(3)
O16B O 0.0616(4) 0.58330(17) 0.5303(3)
O16_2 O 0.9384(4) 0.41670(17) 0.4697(3)
O17A O 0.0851(4) 0.19156(18) 0.4890(3)
H2A H 0.0385 0.1542 0.4942
H3A H 0.0300 0.2196 0.4475
O18A O 0.2475(4) 0.32215(17) 0.5461(3)
H4A H 0.2914 0.3558 0.5823
H5A H 0.3075 0.3008 0.5139
O19A O -0.0697(4) 0.30064(19) 0.5908(3)
H6A H -0.0918 0.3303 0.6355
H7A H -0.0580 0.3210 0.5325
N1A N -0.6343(5) 0.9054(2) 0.6806(3)
H10A H -0.6042 0.9439 0.7202
C1A C -0.5083(6) 0.8557(3) 0.6960(5)
H11A H -0.5333 0.8177 0.6455
H12A H -0.4950 0.8370 0.7693
C2A C -0.6818(6) 0.9268(3) 0.5636(4)
H13A H -0.6039 0.9531 0.5407
H14A H -0.6996 0.8861 0.5180
C3A C -0.8199(6) 0.9700(3) 0.5490(5)
H15A H -0.7989 1.0132 0.5877
H16A H -0.8523 0.9803 0.4723
C4A C -0.7606(6) 0.8747(3) 0.7247(5)
H17A H -0.7862 0.8303 0.6909
H18A H -0.7318 0.8677 0.8027
C5A C -0.8919(6) 0.9222(3) 0.7019(5)
H19A H -0.9731 0.9015 0.7292
H20A H -0.8679 0.9655 0.7397
C6B C 0.9596(6) 0.3806(3) 0.2301(4)
C7B C 0.9071(6) 0.3179(2) 0.2906(4)
C8_2 C -0.4305(5) 0.6635(2) 0.6779(4)
C9_2 C -0.4510(6) 0.6503(2) 0.7967(4)
C10B C 0.5555(6) 0.4860(2) 0.5501(4)
C11B C -0.0255(6) 0.5371(2) 0.4873(4)
O20 O 0.3622(6) 0.7572(3) 0.9498(4)
H8 H 0.3083 0.7493 0.9967
H9 H 0.4519 0.7590 0.9816
loop_
_geom_bond_atom_site_label_1
_geom_bond_atom_site_label_2
_geom_bond_site_symmetry_1
_geom_bond_site_symmetry_2
Eu1 O1 1_555 1_555
Eu2 O6 1_555 1_555
P1 O1 1_555 1_555
O2 P1 1_555 1_555
O3 P1 1_555 1_555
H1 O3 1_555 1_555
O4 C3 1_555 1_555
O5 Eu1 1_555 1_555
O6 C6 1_555 1_555
O7 Eu2 1_555 1_555
O8 Eu1 1_555 1_555
O9 C8 1_555 1_555
O10 Eu1 1_555 1_555
O11 Eu1 1_555 1_555
O12 C9 1_555 1_555
O13 Eu1 1_555 1_555
O14 C10 1_555 1_555
O15 Eu1 1_555 1_555
O16 C11 1_555 1_555
O17 Eu2 1_555 1_555
H2 O17 1_555 1_555
H3 O17 1_555 1_555
O18 Eu2 1_555 1_555
H4 O18 1_555 1_555
H5 O18 1_555 1_555
O19 Eu2 1_555 1_555
H6 O19 1_555 1_555
H7 O19 1_555 1_555
O20 H8 1_555 1_555
H9 O20 1_555 1_555
N1 H10 1_555 1_555
C1 P1 1_555 1_555
H11 C1 1_555 1_555
H12 C1 1_555 1_555
C2 N1 1_555 1_555
H13 C2 1_555 1_555
H14 C2 1_555 1_555
C3 C2 1_555 1_555
H15 C3 1_555 1_555
H16 C3 1_555 1_555
C4 N1 1_555 1_555
H17 C4 1_555 1_555
H18 C4 1_555 1_555
C5 O4 1_555 1_555
H19 C5 1_555 1_555
H20 C5 1_555 1_555
C6 O5 1_555 1_555
C7 O7 1_555 1_555
C8 O10 1_555 1_555
C9 O11 1_555 1_555
C10 O13 1_555 1_555
C11 O15 1_555 1_555
Eu1B O14 1_555 1_555
Eu1B_2 O16 1_555 1_555
Eu1A O1A 1_555 1_555
Eu1_2 O10_2 1_555 1_555
Eu2A O2 1_555 1_555
Eu2_2 O9 1_555 1_555
Eu2B O6B 1_555 1_555
P1A O1A 1_555 1_555
O1B Eu1B 1_555 1_555
O2A Eu2 1_555 1_555
O3A P1A 1_555 1_555
H1A O3A 1_555 1_555
O4A C3A 1_555 1_555
O5B Eu1B 1_555 1_555
O6B C6B 1_555 1_555
O6A Eu2A 1_555 1_555
O7B Eu2B 1_555 1_555
O7A Eu2A 1_555 1_555
O8B Eu1B 1_555 1_555
O9_2 Eu2 1_555 1_555
O9A Eu2A 1_555 1_555
O10_2 C8_2 1_555 1_555
O10B Eu1B 1_555 1_555
O11_2 Eu1_2 1_555 1_555
O11B Eu1B 1_555 1_555
O12_2 Eu2 1_555 1_555
O12A Eu2A 1_555 1_555
O13B Eu1B 1_555 1_555
O14B Eu1 1_555 1_555
O15B Eu1B_2 1_555 1_555
O15B_2 Eu1B 1_555 1_555
O16B Eu1 1_555 1_555
O16_2 Eu1B 1_555 1_555
O17A Eu2A 1_555 1_555
H2A O17A 1_555 1_555
H3A O17A 1_555 1_555
O18A Eu2A 1_555 1_555
H4A O18A 1_555 1_555
H5A O18A 1_555 1_555
O19A Eu2A 1_555 1_555
H6A O19A 1_555 1_555
H7A O19A 1_555 1_555
N1A H10A 1_555 1_555
C1A P1A 1_555 1_555
H11A C1A 1_555 1_555
H12A C1A 1_555 1_555
C2A N1A 1_555 1_555
H13A C2A 1_555 1_555
H14A C2A 1_555 1_555
C3A C2A 1_555 1_555
H15A C3A 1_555 1_555
H16A C3A 1_555 1_555
C4A N1A 1_555 1_555
H17A C4A 1_555 1_555
H18A C4A 1_555 1_555
C5A O4A 1_555 1_555
H19A C5A 1_555 1_555
H20A C5A 1_555 1_555
C6B O5B 1_555 1_555
C7B O7B 1_555 1_555
C8_2 O9_2 1_555 1_555
C9_2 O11_2 1_555 1_555
C10B C10 1_555 1_555
C11B C11 1_555 1_555
O8 C7 1_555 1_555
O12 Eu2_2 1_555 1_555
N1 C1 1_555 1_555
C4 C5 1_555 1_555
C6 C7 1_555 1_555
C8 C9 1_555 1_555
P1A O2A 1_555 1_555
O8B C7B 1_555 1_555
O12_2 C9_2 1_555 1_555
O13B C10B 1_555 1_555
O14B C10B 1_555 1_555
O15B C11B 1_555 1_555
O16B C11B 1_555 1_555
N1A C1A 1_555 1_555
C4A C5A 1_555 1_555
C6B C7B 1_555 1_555
C8_2 C9_2 1_555 1_555

#END
