
#######################################################################
#
#                 Cambridge Crystallographic Data Centre
#                                CCDC 
#
#######################################################################
#
# If this CIF has been generated from an entry in the Cambridge 
# Structural Database, then it will include bibliographic, chemical, 
# crystal, experimental, refinement or atomic coordinate data resulting 
# from the CCDC's data processing and validation procedures.
#
#######################################################################

data_FUFNIE
_symmetry_cell_setting           monoclinic
_symmetry_space_group_name_H-M   'P 21'
_symmetry_Int_Tables_number      4
_space_group_name_Hall           'P 2yb'
loop_
_symmetry_equiv_pos_site_id
_symmetry_equiv_pos_as_xyz
1 x,y,z
2 -x,1/2+y,-z
_cell_length_a                   10.804(3)
_cell_length_b                   11.648(3)
_cell_length_c                   10.950(3)
_cell_angle_alpha                90
_cell_angle_beta                 106.025(3)
_cell_angle_gamma                90
_cell_volume                     1324.46
loop_
_atom_site_label
_atom_site_type_symbol
_atom_site_fract_x
_atom_site_fract_y
_atom_site_fract_z
Sm1 Sm 0.97167(5) -0.09952(5) 0.29771(4)
Sm2 Sm 1.19564(5) -0.60242(5) 0.30633(4)
Sm3 Sm 1.42734(5) -0.24311(6) 0.38104(4)
P1 P 1.5347(3) -0.5455(3) 0.3505(2)
O1 O 1.6111(7) -0.6121(9) 0.4637(7)
O2 O 1.4063(7) -0.6002(8) 0.2848(6)
O3 O 1.5240(8) -0.4185(8) 0.3751(9)
O4 O 1.5511(8) -0.3932(8) -0.1238(8)
O5 O 1.0090(7) -0.4821(7) 0.3003(8)
O6 O 0.9352(8) -0.3055(7) 0.3276(8)
O7 O 1.2526(7) -0.4021(7) 0.3745(7)
O8 O 1.1767(7) -0.2254(8) 0.3452(7)
O9 O 0.8816(8) 0.0190(7) 0.0992(7)
O10 O 0.8222(8) 0.0121(8) -0.1140(7)
O11 O 0.9882(8) -0.1905(7) 0.1048(7)
O12 O 0.9296(9) -0.1900(8) -0.1087(7)
O13 O 0.6434(7) -0.1538(7) 0.4747(7)
O14 O 0.8282(6) -0.0910(8) 0.4465(6)
O15 O 0.5653(7) -0.2186(7) 0.2303(7)
O16 O 0.7454(8) -0.1447(8) 0.1999(7)
O17 O 1.2412(7) 0.1914(8) 0.3078(8)
O18 O 1.1526(8) 0.0165(7) 0.2823(8)
O19 O 1.0264(8) 0.2774(8) 0.3501(8)
O20 O 0.9517(8) 0.0999(7) 0.3534(8)
O21 O 1.1096(7) -0.0895(10) 0.5141(6)
H1 H 1.0768 -0.0438 0.5571
H2 H 1.1163 -0.1560 0.5473
O22 O 1.4838(9) -0.3368(9) 0.5935(8)
H3 H 1.5631 -0.3261 0.6305
H4 H 1.4385 -0.3075 0.6379
O23 O 1.3776(9) -0.0604(8) 0.2744(10)
H5 H 1.4473 -0.0258 0.2762
H6 H 1.3348 -0.0717 0.1977
O24 O 1.3172(8) -0.2978(8) 0.1597(7)
H7 H 1.3677 -0.2867 0.1135
H8 H 1.2968 -0.3684 0.1575
N1 N 1.5941(9) -0.4588(10) 0.1353(8)
H13 H 1.5718 -0.3929 0.1687
C1 C 1.6333(12) -0.5459(12) 0.2404(11)
H14 H 1.7221 -0.5316 0.2876
H15 H 1.6296 -0.6217 0.2028
C2 C 1.7053(12) -0.4321(12) 0.0804(11)
H16 H 1.7361 -0.5023 0.0512
H17 H 1.7757 -0.3982 0.1453
C3 C 1.6593(12) -0.3483(13) -0.0309(12)
H18 H 1.6364 -0.2756 0.0003
H19 H 1.7287 -0.3343 -0.0694
C4 C 1.4805(12) -0.4987(12) 0.0326(10)
H20 H 1.5005 -0.5705 -0.0026
H21 H 1.4078 -0.5113 0.0667
C5 C 1.4480(11) -0.4091(13) -0.0685(11)
H22 H 1.3712 -0.4319 -0.1338
H23 H 1.4298 -0.3372 -0.0322
C6 C 1.0225(10) -0.3770(10) 0.3250(10)
C7 C 1.1613(11) -0.3298(10) 0.3504(9)
C8 C 0.8765(9) -0.0282(10) -0.0046(9)
C9 C 0.9380(11) -0.1456(11) -0.0019(10)
C10 C 0.7169(10) -0.1336(9) 0.4054(9)
C11 C 0.6707(11) -0.1696(10) 0.2651(10)
C12 C 1.1521(12) 0.1247(11) 0.3075(10)
C13 C 1.0318(11) 0.1712(11) 0.3412(10)
Sm2A Sm 0.80436(5) -0.10242(5) -0.30633(4)
Sm2A_2 Sm 0.80436(5) -0.10242(5) 0.69367(4)
Sm2_2 Sm 1.19564(5) 0.39758(5) 0.30633(4)
Sm3A Sm 1.57266(5) -0.74311(6) 0.61896(4)
Sm3_2 Sm 0.42734(5) -0.24311(6) 0.38104(4)
O1A O 1.3889(7) -0.1121(9) 0.5363(7)
O10A O 1.1778(8) -0.4879(8) 0.1140(7)
O12A O 1.0704(9) -0.6900(8) 0.1087(7)
O13A O 1.3566(7) -0.6538(7) 0.5253(7)
O13_2 O 1.6434(7) -0.1538(7) 0.4747(7)
O14A O 1.1718(6) -0.5910(8) 0.5535(6)
O15_2 O 1.5653(7) -0.2186(7) 0.2303(7)
O17_2 O 1.2412(7) -0.8086(8) 0.3078(8)
O19_2 O 1.0264(8) -0.7226(8) 0.3501(8)
O25 O 1.2038(9) -0.2266(14) -0.0863(10)
H9 H 1.1610 -0.1981 -0.1567
H10 H 1.2805 -0.2013 -0.0675
O26 O 1.265(4) -0.297(5) 0.687(4)
H11 H 1.3140 -0.3000 0.7627
H12 H 1.2525 -0.3651 0.6573
loop_
_geom_bond_atom_site_label_1
_geom_bond_atom_site_label_2
_geom_bond_site_symmetry_1
_geom_bond_site_symmetry_2
Sm1 O6 1_555 1_555
Sm2 O2 1_555 1_555
Sm3 O3 1_555 1_555
P1 O1 1_555 1_555
O1 Sm3A 1_555 1_555
O2 P1 1_555 1_555
O3 P1 1_555 1_555
O4 C3 1_555 1_555
O5 Sm2 1_555 1_555
O6 C6 1_555 1_555
O7 Sm2 1_555 1_555
O8 Sm1 1_555 1_555
O9 Sm1 1_555 1_555
O10 C8 1_555 1_555
O11 Sm1 1_555 1_555
O12 C9 1_555 1_555
O13 C10 1_555 1_555
O14 Sm1 1_555 1_555
O15 C11 1_555 1_555
O16 Sm1 1_555 1_555
O17 C12 1_555 1_555
O18 Sm1 1_555 1_555
O19 C13 1_555 1_555
O20 Sm1 1_555 1_555
O21 Sm1 1_555 1_555
H1 O21 1_555 1_555
H2 O21 1_555 1_555
O22 Sm3 1_555 1_555
H3 O22 1_555 1_555
H4 O22 1_555 1_555
O23 Sm3 1_555 1_555
H5 O23 1_555 1_555
H6 O23 1_555 1_555
O24 Sm3 1_555 1_555
H7 O24 1_555 1_555
H8 O24 1_555 1_555
O25 H9 1_555 1_555
H10 O25 1_555 1_555
O26 H11 1_555 1_555
H12 O26 1_555 1_555
N1 H13 1_555 1_555
C1 P1 1_555 1_555
H14 C1 1_555 1_555
H15 C1 1_555 1_555
C2 N1 1_555 1_555
H16 C2 1_555 1_555
H17 C2 1_555 1_555
C3 C2 1_555 1_555
H18 C3 1_555 1_555
H19 C3 1_555 1_555
C4 N1 1_555 1_555
H20 C4 1_555 1_555
H21 C4 1_555 1_555
C5 O4 1_555 1_555
H22 C5 1_555 1_555
H23 C5 1_555 1_555
C6 O5 1_555 1_555
C7 O7 1_555 1_555
C8 O9 1_555 1_555
C9 O11 1_555 1_555
C10 O14 1_555 1_555
C11 O16 1_555 1_555
C12 O18 1_555 1_555
C13 O20 1_555 1_555
Sm2A O10 1_555 1_555
Sm2A_2 O13 1_555 1_555
Sm2_2 O17 1_555 1_555
Sm3A O13A 1_555 1_555
Sm3_2 O13 1_555 1_555
O1A Sm3 1_555 1_555
O10A Sm2 1_555 1_555
O12A Sm2 1_555 1_555
O13A Sm2 1_555 1_555
O13_2 Sm3 1_555 1_555
O14A Sm2 1_555 1_555
O15_2 Sm3 1_555 1_555
O17_2 Sm2 1_555 1_555
O19_2 Sm2 1_555 1_555
Sm3 O7 1_555 1_555
Sm3 O8 1_555 1_555
O8 C7 1_555 1_555
O12 Sm2A 1_555 1_555
O14 Sm2A_2 1_555 1_555
O15 Sm3_2 1_555 1_555
O19 Sm2_2 1_555 1_555
N1 C1 1_555 1_555
C4 C5 1_555 1_555
C6 C7 1_555 1_555
C8 C9 1_555 1_555
C10 C11 1_555 1_555
C12 C13 1_555 1_555

#END
