
#######################################################################
#
#                 Cambridge Crystallographic Data Centre
#                                CCDC 
#
#######################################################################
#
# If this CIF has been generated from an entry in the Cambridge 
# Structural Database, then it will include bibliographic, chemical, 
# crystal, experimental, refinement or atomic coordinate data resulting 
# from the CCDC's data processing and validation procedures.
#
#######################################################################

data_FUFNEA
_symmetry_cell_setting           monoclinic
_symmetry_space_group_name_H-M   'P 21'
_symmetry_Int_Tables_number      4
_space_group_name_Hall           'P 2yb'
loop_
_symmetry_equiv_pos_site_id
_symmetry_equiv_pos_as_xyz
1 x,y,z
2 -x,1/2+y,-z
_cell_length_a                   10.8724(9)
_cell_length_b                   11.7625(9)
_cell_length_c                   11.0140(9)
_cell_angle_alpha                90
_cell_angle_beta                 105.9280(10)
_cell_angle_gamma                90
_cell_volume                     1354.47
loop_
_atom_site_label
_atom_site_type_symbol
_atom_site_fract_x
_atom_site_fract_y
_atom_site_fract_z
Nd1 Nd 0.97125(5) -0.09982(4) 0.29775(4)
Nd2 Nd 1.19688(5) -0.60245(4) 0.30730(4)
Nd3 Nd 1.42546(5) -0.24287(6) 0.38040(4)
P1 P 1.5355(3) -0.5450(2) 0.3510(2)
O1 O 1.6115(8) -0.6112(9) 0.4634(7)
O2 O 1.4108(7) -0.6022(9) 0.2861(7)
O3 O 1.5216(9) -0.4199(7) 0.3759(9)
O4 O 1.5512(9) -0.3950(8) -0.1213(7)
O5 O 1.0092(8) -0.4819(7) 0.3009(8)
O6 O 0.9358(8) -0.3080(7) 0.3270(8)
O7 O 1.2504(7) -0.3997(7) 0.3738(7)
O8 O 1.1738(7) -0.2257(7) 0.3438(7)
O9 O 0.8799(9) 0.0178(7) 0.0977(7)
O10 O 0.8199(9) 0.0106(7) -0.1142(8)
O11 O 0.9890(10) -0.1903(8) 0.1030(8)
O12 O 0.9305(10) -0.1910(8) -0.1084(8)
O13 O 0.6431(8) -0.1522(8) 0.4732(7)
O14 O 0.8259(7) -0.0919(8) 0.4447(6)
O15 O 0.5652(7) -0.2198(7) 0.2313(7)
O16 O 0.7443(7) -0.1457(7) 0.1987(7)
O17 O 1.2421(7) 0.1904(7) 0.3083(9)
O18 O 1.1531(8) 0.0187(7) 0.2826(9)
O19 O 1.0297(9) 0.2746(7) 0.3518(8)
O20 O 0.9538(8) 0.0997(7) 0.3546(8)
O21 O 1.1114(7) -0.0895(10) 0.5166(7)
H1 H 1.0786 -0.0439 0.5595
H2 H 1.1181 -0.1560 0.5497
O22 O 1.4834(10) -0.3341(9) 0.5964(8)
H3 H 1.5627 -0.3235 0.6333
H4 H 1.4381 -0.3049 0.6407
O23 O 1.3765(10) -0.0583(8) 0.2704(10)
H5 H 1.4462 -0.0237 0.2722
H6 H 1.3337 -0.0696 0.1937
O24 O 1.3139(9) -0.2989(8) 0.1579(8)
H7 H 1.3644 -0.2879 0.1117
H8 H 1.2935 -0.3695 0.1557
N1 N 1.5955(9) -0.4583(9) 0.1384(8)
H13 H 1.5724 -0.3933 0.1711
C1 C 1.6357(11) -0.5426(12) 0.2426(10)
H14 H 1.7229 -0.5260 0.2903
H15 H 1.6351 -0.6177 0.2061
C2 C 1.7035(12) -0.4300(13) 0.0813(12)
H16 H 1.7361 -0.4994 0.0540
H17 H 1.7727 -0.3942 0.1446
C3 C 1.6579(14) -0.3511(13) -0.0297(12)
H18 H 1.6353 -0.2785 -0.0001
H19 H 1.7270 -0.3383 -0.0681
C4 C 1.4822(12) -0.4992(12) 0.0361(11)
H20 H 1.5024 -0.5707 0.0022
H21 H 1.4100 -0.5115 0.0704
C5 C 1.4486(13) -0.4115(14) -0.0666(12)
H22 H 1.3731 -0.4358 -0.1313
H23 H 1.4288 -0.3401 -0.0320
C6 C 1.0225(10) -0.3769(10) 0.3254(10)
C7 C 1.1602(11) -0.3304(10) 0.3499(10)
C8 C 0.8763(9) -0.0281(10) -0.0045(10)
C9 C 0.9384(11) -0.1486(10) -0.0026(10)
C10 C 0.7169(11) -0.1354(9) 0.4057(10)
C11 C 0.6692(10) -0.1708(8) 0.2649(10)
C12 C 1.1510(12) 0.1230(10) 0.3078(11)
C13 C 1.0351(11) 0.1706(10) 0.3429(10)
Nd2A Nd 0.80312(5) -0.10245(4) -0.30730(4)
Nd2A_2 Nd 0.80312(5) -0.10245(4) 0.69270(4)
Nd2_2 Nd 1.19688(5) 0.39755(4) 0.30730(4)
Nd3A Nd 1.57454(5) -0.74287(6) 0.61960(4)
Nd3_2 Nd 0.42546(5) -0.24287(6) 0.38040(4)
O1A O 1.3885(8) -0.1112(9) 0.5366(7)
O10A O 1.1801(9) -0.4894(7) 0.1142(8)
O12A O 1.0695(10) -0.6910(8) 0.1084(8)
O13A O 1.3569(8) -0.6522(8) 0.5268(7)
O13_2 O 1.6431(8) -0.1522(8) 0.4732(7)
O14A O 1.1741(7) -0.5919(8) 0.5553(6)
O15_2 O 1.5652(7) -0.2198(7) 0.2313(7)
O17_2 O 1.2421(7) -0.8096(7) 0.3083(9)
O19_2 O 1.0297(9) -0.7254(7) 0.3518(8)
O25 O 1.2048(10) -0.2195(12) -0.0848(10)
H9 H 1.1621 -0.1910 -0.1553
H10 H 1.2816 -0.1942 -0.0660
O26 O 1.269(2) -0.2893(19) 0.690(3)
H11 H 1.3186 -0.2918 0.7657
H12 H 1.2570 -0.3569 0.6602
loop_
_geom_bond_atom_site_label_1
_geom_bond_atom_site_label_2
_geom_bond_site_symmetry_1
_geom_bond_site_symmetry_2
Nd1 O6 1_555 1_555
Nd2 O2 1_555 1_555
Nd3 O3 1_555 1_555
P1 O1 1_555 1_555
O1 Nd3A 1_555 1_555
O2 P1 1_555 1_555
O3 P1 1_555 1_555
O4 C3 1_555 1_555
O5 Nd2 1_555 1_555
O6 C6 1_555 1_555
O7 Nd2 1_555 1_555
O8 Nd1 1_555 1_555
O9 Nd1 1_555 1_555
O10 C8 1_555 1_555
O11 Nd1 1_555 1_555
O12 C9 1_555 1_555
O13 C10 1_555 1_555
O14 Nd1 1_555 1_555
O15 C11 1_555 1_555
O16 Nd1 1_555 1_555
O17 C12 1_555 1_555
O18 Nd1 1_555 1_555
O19 C13 1_555 1_555
O20 Nd1 1_555 1_555
O21 Nd1 1_555 1_555
H1 O21 1_555 1_555
H2 O21 1_555 1_555
O22 Nd3 1_555 1_555
H3 O22 1_555 1_555
H4 O22 1_555 1_555
O23 Nd3 1_555 1_555
H5 O23 1_555 1_555
H6 O23 1_555 1_555
O24 Nd3 1_555 1_555
H7 O24 1_555 1_555
H8 O24 1_555 1_555
O25 H9 1_555 1_555
H10 O25 1_555 1_555
O26 H11 1_555 1_555
H12 O26 1_555 1_555
N1 H13 1_555 1_555
C1 P1 1_555 1_555
H14 C1 1_555 1_555
H15 C1 1_555 1_555
C2 N1 1_555 1_555
H16 C2 1_555 1_555
H17 C2 1_555 1_555
C3 C2 1_555 1_555
H18 C3 1_555 1_555
H19 C3 1_555 1_555
C4 N1 1_555 1_555
H20 C4 1_555 1_555
H21 C4 1_555 1_555
C5 O4 1_555 1_555
H22 C5 1_555 1_555
H23 C5 1_555 1_555
C6 O5 1_555 1_555
C7 O7 1_555 1_555
C8 O9 1_555 1_555
C9 O11 1_555 1_555
C10 O14 1_555 1_555
C11 O16 1_555 1_555
C12 O18 1_555 1_555
C13 O20 1_555 1_555
Nd2A O10 1_555 1_555
Nd2A_2 O13 1_555 1_555
Nd2_2 O17 1_555 1_555
Nd3A O13A 1_555 1_555
Nd3_2 O13 1_555 1_555
O1A Nd3 1_555 1_555
O10A Nd2 1_555 1_555
O12A Nd2 1_555 1_555
O13A Nd2 1_555 1_555
O13_2 Nd3 1_555 1_555
O14A Nd2 1_555 1_555
O15_2 Nd3 1_555 1_555
O17_2 Nd2 1_555 1_555
O19_2 Nd2 1_555 1_555
Nd3 O7 1_555 1_555
Nd3 O8 1_555 1_555
O8 C7 1_555 1_555
O12 Nd2A 1_555 1_555
O14 Nd2A_2 1_555 1_555
O15 Nd3_2 1_555 1_555
O19 Nd2_2 1_555 1_555
N1 C1 1_555 1_555
C4 C5 1_555 1_555
C6 C7 1_555 1_555
C8 C9 1_555 1_555
C10 C11 1_555 1_555
C12 C13 1_555 1_555

#END
