
#######################################################################
#
#                 Cambridge Crystallographic Data Centre
#                                CCDC 
#
#######################################################################
#
# If this CIF has been generated from an entry in the Cambridge 
# Structural Database, then it will include bibliographic, chemical, 
# crystal, experimental, refinement or atomic coordinate data resulting 
# from the CCDC's data processing and validation procedures.
#
#######################################################################

data_FUFPEC
_symmetry_cell_setting           monoclinic
_symmetry_space_group_name_H-M   'P 21/c'
_symmetry_Int_Tables_number      14
_space_group_name_Hall           '-P 2ybc'
loop_
_symmetry_equiv_pos_site_id
_symmetry_equiv_pos_as_xyz
1 x,y,z
2 -x,1/2+y,1/2-z
3 -x,-y,-z
4 x,1/2-y,1/2+z
_cell_length_a                   9.1926(8)
_cell_length_b                   19.1855(17)
_cell_length_c                   12.4285(11)
_cell_angle_alpha                90
_cell_angle_beta                 100.6910(10)
_cell_angle_gamma                90
_cell_volume                     2153.9
loop_
_atom_site_label
_atom_site_type_symbol
_atom_site_fract_x
_atom_site_fract_y
_atom_site_fract_z
Dy1 Dy 0.29276(3) 0.553757(17) 0.65427(3)
Dy2 Dy -0.15605(4) 0.741878(17) 0.82755(3)
P1 P 0.33398(19) 0.39233(9) 0.82272(14)
O1 O 0.3304(5) 0.4647(2) 0.7800(4)
O2 O 0.2181(5) 0.3410(2) 0.7715(4)
O3 O 0.3404(5) 0.3991(2) 0.9494(4)
H1 H 0.2736 0.3760 0.9671
O4 O 0.9364(5) 0.4343(3) 0.9123(4)
O5 O 0.1062(6) 0.5626(2) 0.7629(4)
O6 O -0.0645(5) 0.6293(2) 0.8176(4)
O7 O 0.0106(5) 0.7351(2) 0.7013(4)
O8 O 0.2082(5) 0.6756(2) 0.6697(4)
O9 O 0.6792(5) 0.6999(3) 0.6645(4)
O10 O 0.4752(5) 0.6381(2) 0.6015(4)
O11 O 0.4556(5) 0.6051(2) 0.8083(4)
O12 O 0.6292(5) 0.6860(2) 0.8668(4)
O13 O 0.3253(5) 0.5388(3) 0.4671(3)
O14 O 0.4831(5) 0.5079(3) 0.3583(4)
O15 O 0.1479(5) 0.4533(2) 0.5742(4)
O16 O -0.0622(5) 0.4159(2) 0.4706(4)
O17 O -0.0878(6) 0.6911(2) 1.0089(4)
H2 H -0.0411 0.6538 1.0037
H3 H -0.0327 0.7192 1.0504
O18 O -0.2465(5) 0.8200(2) 0.9510(4)
H4 H -0.2904 0.8536 0.9148
H5 H -0.3065 0.7986 0.9832
O19 O 0.0669(5) 0.7989(3) 0.9081(4)
H6 H 0.0891 0.8285 0.8634
H7 H 0.0552 0.8193 0.9664
N1 N 0.6355(6) 0.4052(3) 0.8191(4)
H10 H 0.6051 0.4442 0.7797
C1 C 0.5095(7) 0.3550(4) 0.8032(6)
H11 H 0.5345 0.3166 0.8541
H12 H 0.4970 0.3360 0.7297
C2 C 0.6823(8) 0.4263(4) 0.9374(6)
H13 H 0.7005 0.3849 0.9828
H14 H 0.6035 0.4526 0.9605
C3 C 0.8212(8) 0.4702(4) 0.9518(6)
H15 H 0.8001 0.5137 0.9123
H16 H 0.8534 0.4811 1.0288
C4 C 0.7614(8) 0.3745(4) 0.7746(6)
H17 H 0.7326 0.3681 0.6961
H18 H 0.7867 0.3293 0.8078
C5 C 0.8959(8) 0.4228(4) 0.7990(6)
H19 H 0.9782 0.4020 0.7718
H20 H 0.8726 0.4670 0.7618
C6 C 0.0400(8) 0.6188(4) 0.7679(5)
C7 C 0.0927(7) 0.6816(3) 0.7076(5)
C8 C 0.5693(8) 0.6635(4) 0.6757(6)
C9 C 0.5486(8) 0.6496(4) 0.7937(5)
C10 C 0.4447(7) 0.5133(4) 0.4499(5)
C11 C 0.0255(8) 0.4613(3) 0.5125(5)
Dy1B Dy 0.70724(3) 0.446243(17) 0.34573(3)
Dy1B_2 Dy -0.29276(3) 0.446243(17) 0.34573(3)
Dy1A Dy -0.29276(3) 1.053757(17) 0.84573(3)
Dy1_2 Dy -0.70724(3) 0.553757(17) 0.65427(3)
Dy2A Dy 0.15605(4) 0.241878(17) 0.67245(3)
Dy2_2 Dy 0.84395(4) 0.741878(17) 0.82755(3)
Dy2B Dy 1.15605(4) 0.258122(17) 0.17245(3)
P1A P -0.33398(19) 0.89233(9) 0.67728(14)
O1A O -0.3304(5) 0.9647(2) 0.7200(4)
O1B O 0.6696(5) 0.5353(2) 0.2200(4)
O2A O -0.2181(5) 0.8410(2) 0.7285(4)
O3A O -0.3404(5) 0.8991(2) 0.5506(4)
H1A H -0.2736 0.8760 0.5329
O4A O -0.9364(5) 0.9343(3) 0.5877(4)
O5B O 0.8938(6) 0.4374(2) 0.2371(4)
O6B O 1.0645(5) 0.3707(2) 0.1824(4)
O6A O 0.0645(5) 0.1293(2) 0.6824(4)
O7B O 0.9894(5) 0.2649(2) 0.2987(4)
O7A O -0.0106(5) 0.2351(2) 0.7987(4)
O8B O 0.7918(5) 0.3244(2) 0.3303(4)
O9_2 O -0.3208(5) 0.6999(3) 0.6645(4)
O9A O 0.3208(5) 0.1999(3) 0.8355(4)
O10_2 O -0.5248(5) 0.6381(2) 0.6015(4)
O10B O 0.5248(5) 0.3619(2) 0.3985(4)
O11_2 O -0.5444(5) 0.6051(2) 0.8083(4)
O11B O 0.5444(5) 0.3949(2) 0.1917(4)
O12_2 O -0.3708(5) 0.6860(2) 0.8668(4)
O12A O 0.3708(5) 0.1860(2) 0.6332(4)
O13B O 0.6747(5) 0.4612(3) 0.5329(3)
O14B O 0.5169(5) 0.4921(3) 0.6417(4)
O15B O -0.1479(5) 0.5467(2) 0.4258(4)
O15B_2 O 0.8521(5) 0.5467(2) 0.4258(4)
O16B O 0.0622(5) 0.5841(2) 0.5294(4)
O16_2 O 0.9378(5) 0.4159(2) 0.4706(4)
O17A O 0.0878(6) 0.1911(2) 0.4911(4)
H2A H 0.0411 0.1538 0.4963
H3A H 0.0327 0.2192 0.4496
O18A O 0.2465(5) 0.3200(2) 0.5490(4)
H4A H 0.2904 0.3536 0.5852
H5A H 0.3065 0.2986 0.5168
O19A O -0.0669(5) 0.2989(3) 0.5919(4)
H6A H -0.0891 0.3285 0.6366
H7A H -0.0552 0.3193 0.5336
N1A N -0.6355(6) 0.9052(3) 0.6809(4)
H10A H -0.6051 0.9442 0.7203
C1A C -0.5095(7) 0.8550(4) 0.6968(6)
H11A H -0.5345 0.8166 0.6459
H12A H -0.4970 0.8360 0.7703
C2A C -0.6823(8) 0.9263(4) 0.5626(6)
H13A H -0.7005 0.8849 0.5172
H14A H -0.6035 0.9526 0.5395
C3A C -0.8212(8) 0.9702(4) 0.5482(6)
H15A H -0.8001 1.0137 0.5877
H16A H -0.8534 0.9811 0.4712
C4A C -0.7614(8) 0.8745(4) 0.7254(6)
H17A H -0.7326 0.8681 0.8039
H18A H -0.7867 0.8293 0.6922
C5A C -0.8959(8) 0.9228(4) 0.7010(6)
H19A H -0.9782 0.9020 0.7282
H20A H -0.8726 0.9670 0.7382
C6B C 0.9600(8) 0.3812(4) 0.2321(5)
C7B C 0.9073(7) 0.3184(3) 0.2924(5)
C8_2 C -0.4307(8) 0.6635(4) 0.6757(6)
C9_2 C -0.4514(8) 0.6496(4) 0.7937(5)
C10B C 0.5553(7) 0.4867(4) 0.5501(5)
C11B C -0.0255(8) 0.5387(3) 0.4875(5)
O20 O 0.3610(7) 0.7560(3) 0.9476(5)
H8 H 0.3071 0.7481 0.9945
H9 H 0.4507 0.7578 0.9794
loop_
_geom_bond_atom_site_label_1
_geom_bond_atom_site_label_2
_geom_bond_site_symmetry_1
_geom_bond_site_symmetry_2
Dy1 O1 1_555 1_555
Dy2 O6 1_555 1_555
P1 O1 1_555 1_555
O2 P1 1_555 1_555
O3 P1 1_555 1_555
H1 O3 1_555 1_555
O4 C3 1_555 1_555
O5 Dy1 1_555 1_555
O6 C6 1_555 1_555
O7 Dy2 1_555 1_555
O8 Dy1 1_555 1_555
O9 C8 1_555 1_555
O10 Dy1 1_555 1_555
O11 Dy1 1_555 1_555
O12 C9 1_555 1_555
O13 Dy1 1_555 1_555
O14 C10 1_555 1_555
O15 Dy1 1_555 1_555
O16 C11 1_555 1_555
O17 Dy2 1_555 1_555
H2 O17 1_555 1_555
H3 O17 1_555 1_555
O18 Dy2 1_555 1_555
H4 O18 1_555 1_555
H5 O18 1_555 1_555
O19 Dy2 1_555 1_555
H6 O19 1_555 1_555
H7 O19 1_555 1_555
O20 H8 1_555 1_555
H9 O20 1_555 1_555
N1 H10 1_555 1_555
C1 P1 1_555 1_555
H11 C1 1_555 1_555
H12 C1 1_555 1_555
C2 N1 1_555 1_555
H13 C2 1_555 1_555
H14 C2 1_555 1_555
C3 C2 1_555 1_555
H15 C3 1_555 1_555
H16 C3 1_555 1_555
C4 N1 1_555 1_555
H17 C4 1_555 1_555
H18 C4 1_555 1_555
C5 O4 1_555 1_555
H19 C5 1_555 1_555
H20 C5 1_555 1_555
C6 O5 1_555 1_555
C7 O7 1_555 1_555
C8 O10 1_555 1_555
C9 O11 1_555 1_555
C10 O13 1_555 1_555
C11 O15 1_555 1_555
Dy1B O14 1_555 1_555
Dy1B_2 O16 1_555 1_555
Dy1A O1A 1_555 1_555
Dy1_2 O10_2 1_555 1_555
Dy2A O2 1_555 1_555
Dy2_2 O9 1_555 1_555
Dy2B O6B 1_555 1_555
P1A O1A 1_555 1_555
O1B Dy1B 1_555 1_555
O2A Dy2 1_555 1_555
O3A P1A 1_555 1_555
H1A O3A 1_555 1_555
O4A C3A 1_555 1_555
O5B Dy1B 1_555 1_555
O6B C6B 1_555 1_555
O6A Dy2A 1_555 1_555
O7B Dy2B 1_555 1_555
O7A Dy2A 1_555 1_555
O8B Dy1B 1_555 1_555
O9_2 Dy2 1_555 1_555
O9A Dy2A 1_555 1_555
O10_2 C8_2 1_555 1_555
O10B Dy1B 1_555 1_555
O11_2 Dy1_2 1_555 1_555
O11B Dy1B 1_555 1_555
O12_2 Dy2 1_555 1_555
O12A Dy2A 1_555 1_555
O13B Dy1B 1_555 1_555
O14B Dy1 1_555 1_555
O15B Dy1B_2 1_555 1_555
O15B_2 Dy1B 1_555 1_555
O16B Dy1 1_555 1_555
O16_2 Dy1B 1_555 1_555
O17A Dy2A 1_555 1_555
H2A O17A 1_555 1_555
H3A O17A 1_555 1_555
O18A Dy2A 1_555 1_555
H4A O18A 1_555 1_555
H5A O18A 1_555 1_555
O19A Dy2A 1_555 1_555
H6A O19A 1_555 1_555
H7A O19A 1_555 1_555
N1A H10A 1_555 1_555
C1A P1A 1_555 1_555
H11A C1A 1_555 1_555
H12A C1A 1_555 1_555
C2A N1A 1_555 1_555
H13A C2A 1_555 1_555
H14A C2A 1_555 1_555
C3A C2A 1_555 1_555
H15A C3A 1_555 1_555
H16A C3A 1_555 1_555
C4A N1A 1_555 1_555
H17A C4A 1_555 1_555
H18A C4A 1_555 1_555
C5A O4A 1_555 1_555
H19A C5A 1_555 1_555
H20A C5A 1_555 1_555
C6B O5B 1_555 1_555
C7B O7B 1_555 1_555
C8_2 O9_2 1_555 1_555
C9_2 O11_2 1_555 1_555
C10B C10 1_555 1_555
C11B C11 1_555 1_555
O8 C7 1_555 1_555
O12 Dy2_2 1_555 1_555
N1 C1 1_555 1_555
C4 C5 1_555 1_555
C6 C7 1_555 1_555
C8 C9 1_555 1_555
P1A O2A 1_555 1_555
O8B C7B 1_555 1_555
O12_2 C9_2 1_555 1_555
O13B C10B 1_555 1_555
O14B C10B 1_555 1_555
O15B C11B 1_555 1_555
O16B C11B 1_555 1_555
N1A C1A 1_555 1_555
C4A C5A 1_555 1_555
C6B C7B 1_555 1_555
C8_2 C9_2 1_555 1_555

#END
