
#######################################################################
#
#                 Cambridge Crystallographic Data Centre
#                                CCDC 
#
#######################################################################
#
# If this CIF has been generated from an entry in the Cambridge 
# Structural Database, then it will include bibliographic, chemical, 
# crystal, experimental, refinement or atomic coordinate data resulting 
# from the CCDC's data processing and validation procedures.
#
#######################################################################

data_FUFPAY
_symmetry_cell_setting           monoclinic
_symmetry_space_group_name_H-M   'P 21/c'
_symmetry_Int_Tables_number      14
_space_group_name_Hall           '-P 2ybc'
loop_
_symmetry_equiv_pos_site_id
_symmetry_equiv_pos_as_xyz
1 x,y,z
2 -x,1/2+y,1/2-z
3 -x,-y,-z
4 x,1/2-y,1/2+z
_cell_length_a                   9.2234(11)
_cell_length_b                   19.272(2)
_cell_length_c                   12.4547(14)
_cell_angle_alpha                90
_cell_angle_beta                 100.764(2)
_cell_angle_gamma                90
_cell_volume                     2174.91
loop_
_atom_site_label
_atom_site_type_symbol
_atom_site_fract_x
_atom_site_fract_y
_atom_site_fract_z
Tb1 Tb 0.29281(2) 0.553917(11) 0.654968(17)
Tb2 Tb -0.15619(2) 0.742538(11) 0.828212(17)
P1 P 0.33441(13) 0.39248(6) 0.82330(9)
O1 O 0.3305(4) 0.46461(15) 0.7813(2)
O2 O 0.2191(4) 0.34153(16) 0.7719(3)
O3 O 0.3416(4) 0.39903(17) 0.9496(3)
H1 H 0.2751 0.3760 0.9673
O4 O 0.9357(4) 0.43458(18) 0.9124(3)
O5 O 0.1062(4) 0.56322(16) 0.7638(3)
O6 O -0.0658(4) 0.62970(16) 0.8178(3)
O7 O 0.0102(4) 0.73492(16) 0.7023(3)
O8 O 0.2065(4) 0.67514(16) 0.6714(3)
O9 O 0.6790(4) 0.70042(18) 0.6647(3)
O10 O 0.4769(4) 0.63849(17) 0.6019(2)
O11 O 0.4568(4) 0.60596(17) 0.8097(3)
O12 O 0.6291(4) 0.68660(17) 0.8677(3)
O13 O 0.3268(4) 0.53919(17) 0.4670(3)
O14 O 0.4833(4) 0.50797(17) 0.3588(2)
O15 O 0.1480(4) 0.45354(15) 0.5734(3)
O16 O -0.0622(4) 0.41610(16) 0.4705(3)
O17 O -0.0868(4) 0.69108(17) 1.0094(3)
H2 H -0.0401 0.6537 1.0043
H3 H -0.0317 0.7191 1.0509
O18 O -0.2465(4) 0.82093(17) 0.9518(3)
H4 H -0.2904 0.8546 0.9156
H5 H -0.3065 0.7996 0.9840
O19 O 0.0668(4) 0.79976(17) 0.9084(3)
H6 H 0.0890 0.8294 0.8637
H7 H 0.0551 0.8201 0.9667
N1 N 0.6343(4) 0.4052(2) 0.8190(3)
H10 H 0.6040 0.4440 0.7795
C1 C 0.5088(5) 0.3555(2) 0.8028(4)
H11 H 0.5339 0.3170 0.8530
H12 H 0.4958 0.3371 0.7292
C2 C 0.6817(6) 0.4266(3) 0.9361(4)
H13 H 0.6995 0.3856 0.9818
H14 H 0.6032 0.4530 0.9590
C3 C 0.8205(6) 0.4703(3) 0.9515(4)
H15 H 0.7998 0.5137 0.9123
H16 H 0.8521 0.4809 1.0285
C4 C 0.7618(6) 0.3753(3) 0.7754(4)
H17 H 0.7871 0.3304 0.8087
H18 H 0.7332 0.3686 0.6971
C5 C 0.8943(6) 0.4219(3) 0.7983(4)
H19 H 0.9759 0.4003 0.7717
H20 H 0.8720 0.4655 0.7600
C6 C 0.0403(5) 0.6189(2) 0.7693(4)
C7 C 0.0925(5) 0.6817(2) 0.7084(4)
C8 C 0.5701(5) 0.6637(2) 0.6770(4)
C9 C 0.5496(5) 0.6498(2) 0.7946(4)
C10 C 0.4431(5) 0.5139(2) 0.4502(4)
C11 C 0.0254(5) 0.4624(2) 0.5134(4)
Tb1B Tb 0.70719(2) 0.446083(11) 0.345032(17)
Tb1B_2 Tb -0.29281(2) 0.446083(11) 0.345032(17)
Tb1A Tb -0.29281(2) 1.053917(11) 0.845032(17)
Tb1_2 Tb -0.70719(2) 0.553917(11) 0.654968(17)
Tb2A Tb 0.15619(2) 0.242538(11) 0.671788(17)
Tb2_2 Tb 0.84381(2) 0.742538(11) 0.828212(17)
Tb2B Tb 1.15619(2) 0.257462(11) 0.171788(17)
P1A P -0.33441(13) 0.89248(6) 0.67670(9)
O1A O -0.3305(4) 0.96461(15) 0.7187(2)
O1B O 0.6695(4) 0.53539(15) 0.2187(2)
O2A O -0.2191(4) 0.84153(16) 0.7281(3)
O3A O -0.3416(4) 0.89903(17) 0.5504(3)
H1A H -0.2751 0.8760 0.5327
O4A O -0.9357(4) 0.93458(18) 0.5876(3)
O5B O 0.8938(4) 0.43678(16) 0.2362(3)
O6B O 1.0658(4) 0.37030(16) 0.1822(3)
O6A O 0.0658(4) 0.12970(16) 0.6822(3)
O7B O 0.9898(4) 0.26508(16) 0.2977(3)
O7A O -0.0102(4) 0.23492(16) 0.7977(3)
O8B O 0.7935(4) 0.32486(16) 0.3286(3)
O9_2 O -0.3210(4) 0.70042(18) 0.6647(3)
O9A O 0.3210(4) 0.20042(18) 0.8353(3)
O10_2 O -0.5231(4) 0.63849(17) 0.6019(2)
O10B O 0.5231(4) 0.36151(17) 0.3981(2)
O11_2 O -0.5432(4) 0.60596(17) 0.8097(3)
O11B O 0.5432(4) 0.39404(17) 0.1903(3)
O12_2 O -0.3709(4) 0.68660(17) 0.8677(3)
O12A O 0.3709(4) 0.18660(17) 0.6323(3)
O13B O 0.6732(4) 0.46081(17) 0.5330(3)
O14B O 0.5167(4) 0.49203(17) 0.6412(2)
O15B O -0.1480(4) 0.54646(15) 0.4266(3)
O15B_2 O 0.8520(4) 0.54646(15) 0.4266(3)
O16B O 0.0622(4) 0.58390(16) 0.5295(3)
O16_2 O 0.9378(4) 0.41610(16) 0.4705(3)
O17A O 0.0868(4) 0.19108(17) 0.4906(3)
H2A H 0.0401 0.1537 0.4957
H3A H 0.0317 0.2191 0.4491
O18A O 0.2465(4) 0.32093(17) 0.5482(3)
H4A H 0.2904 0.3546 0.5844
H5A H 0.3065 0.2996 0.5160
O19A O -0.0668(4) 0.29976(17) 0.5916(3)
H6A H -0.0890 0.3294 0.6363
H7A H -0.0551 0.3201 0.5333
N1A N -0.6343(4) 0.9052(2) 0.6810(3)
H10A H -0.6040 0.9440 0.7205
C1A C -0.5088(5) 0.8555(2) 0.6972(4)
H11A H -0.5339 0.8170 0.6470
H12A H -0.4958 0.8371 0.7708
C2A C -0.6817(6) 0.9266(3) 0.5639(4)
H13A H -0.6995 0.8856 0.5182
H14A H -0.6032 0.9530 0.5410
C3A C -0.8205(6) 0.9703(3) 0.5485(4)
H15A H -0.7998 1.0137 0.5877
H16A H -0.8521 0.9809 0.4715
C4A C -0.7618(6) 0.8753(3) 0.7246(4)
H17A H -0.7871 0.8304 0.6913
H18A H -0.7332 0.8686 0.8029
C5A C -0.8943(6) 0.9219(3) 0.7017(4)
H19A H -0.9759 0.9003 0.7283
H20A H -0.8720 0.9655 0.7400
C6B C 0.9597(5) 0.3811(2) 0.2307(4)
C7B C 0.9075(5) 0.3183(2) 0.2916(4)
C8_2 C -0.4299(5) 0.6637(2) 0.6770(4)
C9_2 C -0.4504(5) 0.6498(2) 0.7946(4)
C10B C 0.5569(5) 0.4861(2) 0.5498(4)
C11B C -0.0254(5) 0.5376(2) 0.4866(4)
O20 O 0.3611(5) 0.7560(2) 0.9493(4)
H8 H 0.3071 0.7481 0.9962
H9 H 0.4507 0.7578 0.9810
loop_
_geom_bond_atom_site_label_1
_geom_bond_atom_site_label_2
_geom_bond_site_symmetry_1
_geom_bond_site_symmetry_2
Tb1 O1 1_555 1_555
Tb2 O6 1_555 1_555
P1 O1 1_555 1_555
O2 P1 1_555 1_555
O3 P1 1_555 1_555
H1 O3 1_555 1_555
O4 C3 1_555 1_555
O5 Tb1 1_555 1_555
O6 C6 1_555 1_555
O7 Tb2 1_555 1_555
O8 Tb1 1_555 1_555
O9 C8 1_555 1_555
O10 Tb1 1_555 1_555
O11 Tb1 1_555 1_555
O12 C9 1_555 1_555
O13 Tb1 1_555 1_555
O14 C10 1_555 1_555
O15 Tb1 1_555 1_555
O16 C11 1_555 1_555
O17 Tb2 1_555 1_555
H2 O17 1_555 1_555
H3 O17 1_555 1_555
O18 Tb2 1_555 1_555
H4 O18 1_555 1_555
H5 O18 1_555 1_555
O19 Tb2 1_555 1_555
H6 O19 1_555 1_555
H7 O19 1_555 1_555
O20 H8 1_555 1_555
H9 O20 1_555 1_555
N1 H10 1_555 1_555
C1 P1 1_555 1_555
H11 C1 1_555 1_555
H12 C1 1_555 1_555
C2 N1 1_555 1_555
H13 C2 1_555 1_555
H14 C2 1_555 1_555
C3 C2 1_555 1_555
H15 C3 1_555 1_555
H16 C3 1_555 1_555
C4 N1 1_555 1_555
H17 C4 1_555 1_555
H18 C4 1_555 1_555
C5 O4 1_555 1_555
H19 C5 1_555 1_555
H20 C5 1_555 1_555
C6 O5 1_555 1_555
C7 O7 1_555 1_555
C8 O10 1_555 1_555
C9 O11 1_555 1_555
C10 O13 1_555 1_555
C11 O15 1_555 1_555
Tb1B O14 1_555 1_555
Tb1B_2 O16 1_555 1_555
Tb1A O1A 1_555 1_555
Tb1_2 O10_2 1_555 1_555
Tb2A O2 1_555 1_555
Tb2_2 O9 1_555 1_555
Tb2B O6B 1_555 1_555
P1A O1A 1_555 1_555
O1B Tb1B 1_555 1_555
O2A Tb2 1_555 1_555
O3A P1A 1_555 1_555
H1A O3A 1_555 1_555
O4A C3A 1_555 1_555
O5B Tb1B 1_555 1_555
O6B C6B 1_555 1_555
O6A Tb2A 1_555 1_555
O7B Tb2B 1_555 1_555
O7A Tb2A 1_555 1_555
O8B Tb1B 1_555 1_555
O9_2 Tb2 1_555 1_555
O9A Tb2A 1_555 1_555
O10_2 C8_2 1_555 1_555
O10B Tb1B 1_555 1_555
O11_2 Tb1_2 1_555 1_555
O11B Tb1B 1_555 1_555
O12_2 Tb2 1_555 1_555
O12A Tb2A 1_555 1_555
O13B Tb1B 1_555 1_555
O14B Tb1 1_555 1_555
O15B Tb1B_2 1_555 1_555
O15B_2 Tb1B 1_555 1_555
O16B Tb1 1_555 1_555
O16_2 Tb1B 1_555 1_555
O17A Tb2A 1_555 1_555
H2A O17A 1_555 1_555
H3A O17A 1_555 1_555
O18A Tb2A 1_555 1_555
H4A O18A 1_555 1_555
H5A O18A 1_555 1_555
O19A Tb2A 1_555 1_555
H6A O19A 1_555 1_555
H7A O19A 1_555 1_555
N1A H10A 1_555 1_555
C1A P1A 1_555 1_555
H11A C1A 1_555 1_555
H12A C1A 1_555 1_555
C2A N1A 1_555 1_555
H13A C2A 1_555 1_555
H14A C2A 1_555 1_555
C3A C2A 1_555 1_555
H15A C3A 1_555 1_555
H16A C3A 1_555 1_555
C4A N1A 1_555 1_555
H17A C4A 1_555 1_555
H18A C4A 1_555 1_555
C5A O4A 1_555 1_555
H19A C5A 1_555 1_555
H20A C5A 1_555 1_555
C6B O5B 1_555 1_555
C7B O7B 1_555 1_555
C8_2 O9_2 1_555 1_555
C9_2 O11_2 1_555 1_555
C10B C10 1_555 1_555
C11B C11 1_555 1_555
O8 C7 1_555 1_555
O12 Tb2_2 1_555 1_555
N1 C1 1_555 1_555
C4 C5 1_555 1_555
C6 C7 1_555 1_555
C8 C9 1_555 1_555
P1A O2A 1_555 1_555
O8B C7B 1_555 1_555
O12_2 C9_2 1_555 1_555
O13B C10B 1_555 1_555
O14B C10B 1_555 1_555
O15B C11B 1_555 1_555
O16B C11B 1_555 1_555
N1A C1A 1_555 1_555
C4A C5A 1_555 1_555
C6B C7B 1_555 1_555
C8_2 C9_2 1_555 1_555

#END
