
#######################################################################
#
#                 Cambridge Crystallographic Data Centre
#                                CCDC 
#
#######################################################################
#
# If this CIF has been generated from an entry in the Cambridge 
# Structural Database, then it will include bibliographic, chemical, 
# crystal, experimental, refinement or atomic coordinate data resulting 
# from the CCDC's data processing and validation procedures.
#
#######################################################################

data_FUFPOL
_symmetry_cell_setting           tetragonal
_symmetry_space_group_name_H-M   'I -4 2 m'
_symmetry_Int_Tables_number      121
_space_group_name_Hall           'I -4 2'
loop_
_symmetry_equiv_pos_site_id
_symmetry_equiv_pos_as_xyz
1 x,y,z
2 1/2+x,1/2+y,1/2+z
3 -y,x,-z
4 1/2-y,1/2+x,1/2-z
5 -x,-y,z
6 1/2-x,1/2-y,1/2+z
7 y,-x,-z
8 1/2+y,1/2-x,1/2-z
9 -x,y,-z
10 1/2-x,1/2+y,1/2-z
11 y,x,z
12 1/2+y,1/2+x,1/2+z
13 x,-y,-z
14 1/2+x,1/2-y,1/2-z
15 -y,-x,z
16 1/2-y,1/2-x,1/2+z
_cell_length_a                   6.997(1)
_cell_length_b                   6.997(1)
_cell_length_c                   14.506(5)
_cell_angle_alpha                90
_cell_angle_beta                 90
_cell_angle_gamma                90
_cell_volume                     710.185
loop_
_atom_site_label
_atom_site_type_symbol
_atom_site_fract_x
_atom_site_fract_y
_atom_site_fract_z
Ca1 Ca 0.0000 0.0000 0.0000
N1 N 0.3371(4) 0.0000 0.0000
N2 N 0.5000 0.0000 0.0000
N3 N 0.0001 0.0000 0.1736(3)
C1 C 0.1123(9) 0.1123(9) 0.2207(6)
C2 C 0.1128(18) 0.1128(8) 0.3179(6)
C3 C 0.0000 0.0000 0.3633(6)
H1 H 0.2028(67) 0.2028(67) 0.1829(83)
H2 H 0.2192(51) 0.2192(51) 0.330(11)
H3 H 0.0000 0.0000 0.4355(15)
N1B N 0.0000 0.3371(4) 0.0000
N1D N -0.3371(4) 0.0000 0.0000
N1F N 0.0000 -0.3371(4) 0.0000
N3B N 0.0000 0.0001 -0.1736(3)
N1D_2 N 0.6629(4) 0.0000 0.0000
C1D C -0.1123(9) -0.1123(9) 0.2207(6)
C2D C -0.1128(18) -0.1128(8) 0.3179(6)
N2_2 N -0.5000 0.0000 0.0000
C1B C -0.1123(9) 0.1123(9) -0.2207(6)
C1F C 0.1123(9) -0.1123(9) -0.2207(6)
H1D H -0.2028(67) -0.2028(67) 0.1829(83)
H2D H -0.2192(51) -0.2192(51) 0.330(11)
C2B C -0.1128(8) 0.1128(18) -0.3179(6)
H1B H -0.2028(67) 0.2028(67) -0.1829(83)
C2F C 0.1128(8) -0.1128(18) -0.3179(6)
H1F H 0.2028(67) -0.2028(67) -0.1829(83)
C3B C 0.0000 0.0000 -0.3633(6)
H2B H -0.2192(51) 0.2192(51) -0.330(11)
H2F H 0.2192(51) -0.2192(51) -0.330(11)
H3B H 0.0000 0.0000 -0.4355(15)
Ca1_2 Ca 1.0000 0.0000 0.0000
N1_2 N -0.6629(4) 0.0000 0.0000
Ca1_3 Ca -1.0000 0.0000 0.0000
loop_
_geom_bond_atom_site_label_1
_geom_bond_atom_site_label_2
_geom_bond_site_symmetry_1
_geom_bond_site_symmetry_2
Ca1 N1 1_555 1_555
N1 N2 1_555 1_555
N2 N1D_2 1_555 1_555
N3 Ca1 1_555 1_555
C1 N3 1_555 1_555
C2 C1 1_555 1_555
C3 C2 1_555 1_555
H1 C1 1_555 1_555
H2 C2 1_555 1_555
H3 C3 1_555 1_555
N1B Ca1 1_555 1_555
N1D Ca1 1_555 1_555
N1F Ca1 1_555 1_555
N3B Ca1 1_555 1_555
N1D_2 Ca1_2 1_555 1_555
C1D N3 1_555 1_555
C2D C3 1_555 1_555
N2_2 N1D 1_555 1_555
C1B N3B 1_555 1_555
C1F N3B 1_555 1_555
H1D C1D 1_555 1_555
H2D C2D 1_555 1_555
C2B C1B 1_555 1_555
H1B C1B 1_555 1_555
C2F C1F 1_555 1_555
H1F C1F 1_555 1_555
C3B C2B 1_555 1_555
H2B C2B 1_555 1_555
H2F C2F 1_555 1_555
H3B C3B 1_555 1_555
N1_2 N2_2 1_555 1_555
Ca1_3 N1_2 1_555 1_555
C1D C2D 1_555 1_555
C2F C3B 1_555 1_555

#END
