
#######################################################################
#
#                 Cambridge Crystallographic Data Centre
#                                CCDC 
#
#######################################################################
#
# If this CIF has been generated from an entry in the Cambridge 
# Structural Database, then it will include bibliographic, chemical, 
# crystal, experimental, refinement or atomic coordinate data resulting 
# from the CCDC's data processing and validation procedures.
#
#######################################################################

data_FUFPON
_symmetry_cell_setting           orthorhombic
_symmetry_space_group_name_H-M   'P n a 21'
_symmetry_Int_Tables_number      33
_space_group_name_Hall           'P 2c -2n'
loop_
_symmetry_equiv_pos_site_id
_symmetry_equiv_pos_as_xyz
1 x,y,z
2 -x,-y,1/2+z
3 1/2-x,1/2+y,1/2+z
4 1/2+x,1/2-y,z
_cell_length_a                   25.6835(3)
_cell_length_b                   9.91100(10)
_cell_length_c                   14.9309(2)
_cell_angle_alpha                90
_cell_angle_beta                 90
_cell_angle_gamma                90
_cell_volume                     3800.65
loop_
_atom_site_label
_atom_site_type_symbol
_atom_site_fract_x
_atom_site_fract_y
_atom_site_fract_z
Au1 Au 0.488271(15) 0.92820(3) 0.48983(3)
Cu1 Cu 0.41548(3) 1.25557(7) 0.25979(5)
P1 P 0.45206(6) 1.45122(16) 0.31139(11)
P2 P 0.32766(5) 1.24794(15) 0.24126(9)
C1 C 0.4484(2) 1.5930(6) 0.2348(4)
C2 C 0.4336(4) 1.5667(7) 0.1473(5)
H1 H 0.4259 1.4788 0.1299
C3 C 0.4301(4) 1.6726(8) 0.0848(5)
H2 H 0.4195 1.6553 0.0263
C4 C 0.4428(4) 1.8048(8) 0.1114(6)
H3 H 0.4398 1.8757 0.0708
C5 C 0.4591(3) 1.8285(7) 0.1949(6)
H4 H 0.4692 1.9153 0.2109
C6 C 0.4614(3) 1.7275(7) 0.2577(5)
H5 H 0.4715 1.7476 0.3160
C7 C 0.4278(3) 1.5147(8) 0.4177(5)
C8 C 0.3896(4) 1.6136(13) 0.4206(7)
H6 H 0.3764 1.6503 0.3679
C9 C 0.3707(4) 1.6587(18) 0.5064(10)
H7 H 0.3460 1.7274 0.5084
C10 C 0.3870(5) 1.6063(18) 0.5812(8)
H8 H 0.3737 1.6348 0.6359
C11 C 0.4249(5) 1.5066(18) 0.5773(6)
H9 H 0.4373 1.4708 0.6308
C12 C 0.4453(3) 1.4574(10) 0.4972(7)
H10 H 0.4699 1.3884 0.4969
C13 C 0.5218(3) 1.4349(8) 0.3343(5)
C14 C 0.5507(3) 1.5387(10) 0.3761(8)
H11 H 0.5344 1.6173 0.3952
C15 C 0.6044(4) 1.5211(14) 0.3883(8)
H12 H 0.6239 1.5911 0.4128
C16 C 0.6289(3) 1.4044(13) 0.3653(7)
H13 H 0.6644 1.3936 0.3752
C17 C 0.5993(4) 1.3003(13) 0.3261(6)
H14 H 0.6150 1.2185 0.3118
C18 C 0.5471(3) 1.3196(9) 0.3088(5)
H15 H 0.5286 1.2525 0.2791
C19 C 0.2915(3) 1.3194(6) 0.3352(4)
C20 C 0.3118(3) 1.3016(8) 0.4200(5)
H16 H 0.3437 1.2585 0.4263
C21 C 0.2864(4) 1.3455(9) 0.4951(6)
H17 H 0.3013 1.3338 0.5513
C22 C 0.2389(4) 1.4065(8) 0.4867(8)
H18 H 0.2211 1.4339 0.5378
C23 C 0.2179(4) 1.4275(9) 0.4062(8)
H19 H 0.1863 1.4728 0.4016
C24 C 0.2431(3) 1.3816(8) 0.3276(5)
H20 H 0.2276 1.3927 0.2718
C25 C 0.3007(2) 1.3298(6) 0.1420(4)
C26 C 0.3034(4) 1.4736(7) 0.1399(5)
H21 H 0.3176 1.5214 0.1876
C27 C 0.2843(4) 1.5406(9) 0.0651(7)
H22 H 0.2854 1.6343 0.0628
C28 C 0.2635(3) 1.4688(9) -0.0065(7)
H23 H 0.2493 1.5142 -0.0552
C29 C 0.2641(4) 1.3297(11) -0.0044(7)
H24 H 0.2524 1.2807 -0.0536
C30 C 0.2820(4) 1.2636(9) 0.0705(6)
H25 H 0.2811 1.1698 0.0717
C31 C 0.2998(3) 1.0780(6) 0.2350(4)
C32 C 0.3334(3) 0.9691(7) 0.2329(6)
H26 H 0.3692 0.9826 0.2339
C33 C 0.3126(4) 0.8360(8) 0.2293(7)
H27 H 0.3349 0.7628 0.2230
C34 C 0.2613(4) 0.8157(7) 0.2349(5)
H28 H 0.2480 0.7285 0.2367
C35 C 0.2287(4) 0.9236(7) 0.2380(6)
H29 H 0.1930 0.9086 0.2402
C36 C 0.2470(3) 1.0556(7) 0.2380(6)
H30 H 0.2238 1.1277 0.2400
C37 C 0.4542(3) 1.0398(7) 0.4005(5)
C38 C 0.5253(3) 0.8355(8) 0.5852(5)
N1 N 0.4375(3) 1.1113(7) 0.3488(5)
N2 N 0.5485(3) 0.7995(7) 0.6442(5)
Cu1A Cu 0.58452(3) 0.74443(7) 0.75979(5)
N2A N 0.4515(3) 1.2005(7) 0.1442(5)
O1 O 0.1500(3) 1.5283(12) 0.1259(7)
H31 H 0.1320(4) 1.4620(16) 0.1457(8)
H32 H 0.1387(3) 1.6256(19) 0.1351(7)
O2 O 0.0991(4) 1.6325(14) 0.2819(9)
H33 H 0.0830(5) 1.5561(18) 0.2911(9)
H34 H 0.1011(4) 1.7154(19) 0.2419(11)
loop_
_geom_bond_atom_site_label_1
_geom_bond_atom_site_label_2
_geom_bond_site_symmetry_1
_geom_bond_site_symmetry_2
Au1 C37 1_555 1_555
Cu1 P1 1_555 1_555
P1 C1 1_555 1_555
P2 Cu1 1_555 1_555
C1 C2 1_555 1_555
C2 H1 1_555 1_555
C3 C2 1_555 1_555
H2 C3 1_555 1_555
C4 C3 1_555 1_555
H3 C4 1_555 1_555
C5 C4 1_555 1_555
H4 C5 1_555 1_555
C6 C1 1_555 1_555
H5 C6 1_555 1_555
C7 P1 1_555 1_555
C8 C7 1_555 1_555
H6 C8 1_555 1_555
C9 C8 1_555 1_555
H7 C9 1_555 1_555
C10 C9 1_555 1_555
H8 C10 1_555 1_555
C11 C10 1_555 1_555
H9 C11 1_555 1_555
C12 C7 1_555 1_555
H10 C12 1_555 1_555
C13 P1 1_555 1_555
C14 C13 1_555 1_555
H11 C14 1_555 1_555
C15 C14 1_555 1_555
H12 C15 1_555 1_555
C16 C15 1_555 1_555
H13 C16 1_555 1_555
C17 C16 1_555 1_555
H14 C17 1_555 1_555
C18 C13 1_555 1_555
H15 C18 1_555 1_555
C19 P2 1_555 1_555
C20 C19 1_555 1_555
H16 C20 1_555 1_555
C21 C20 1_555 1_555
H17 C21 1_555 1_555
C22 C21 1_555 1_555
H18 C22 1_555 1_555
C23 C22 1_555 1_555
H19 C23 1_555 1_555
C24 C19 1_555 1_555
H20 C24 1_555 1_555
C25 P2 1_555 1_555
C26 C25 1_555 1_555
H21 C26 1_555 1_555
C27 C26 1_555 1_555
H22 C27 1_555 1_555
C28 C27 1_555 1_555
H23 C28 1_555 1_555
C29 C28 1_555 1_555
H24 C29 1_555 1_555
C30 C25 1_555 1_555
H25 C30 1_555 1_555
C31 P2 1_555 1_555
C32 C31 1_555 1_555
H26 C32 1_555 1_555
C33 C32 1_555 1_555
H27 C33 1_555 1_555
C34 C33 1_555 1_555
H28 C34 1_555 1_555
C35 C34 1_555 1_555
H29 C35 1_555 1_555
C36 C31 1_555 1_555
H30 C36 1_555 1_555
C37 N1 1_555 1_555
C38 Au1 1_555 1_555
N1 Cu1 1_555 1_555
N2 C38 1_555 1_555
O1 H31 1_555 1_555
H32 O1 1_555 1_555
O2 H33 1_555 1_555
H34 O2 1_555 1_555
Cu1A N2 1_555 1_555
N2A Cu1 1_555 1_555
C5 C6 1_555 1_555
C11 C12 1_555 1_555
C17 C18 1_555 1_555
C23 C24 1_555 1_555
C29 C30 1_555 1_555
C35 C36 1_555 1_555

#END
