
#######################################################################
#
#                 Cambridge Crystallographic Data Centre
#                                CCDC 
#
#######################################################################
#
# If this CIF has been generated from an entry in the Cambridge 
# Structural Database, then it will include bibliographic, chemical, 
# crystal, experimental, refinement or atomic coordinate data resulting 
# from the CCDC's data processing and validation procedures.
#
#######################################################################

data_FUFPAZ
_symmetry_cell_setting           orthorhombic
_symmetry_space_group_name_H-M   'P 21 21 21'
_symmetry_Int_Tables_number      19
_space_group_name_Hall           'P 2ac 2ab'
loop_
_symmetry_equiv_pos_site_id
_symmetry_equiv_pos_as_xyz
1 x,y,z
2 1/2-x,-y,1/2+z
3 1/2+x,1/2-y,-z
4 -x,1/2+y,1/2-z
_cell_length_a                   6.3258(14)
_cell_length_b                   7.7099(17)
_cell_length_c                   33.112(7)
_cell_angle_alpha                90
_cell_angle_beta                 90
_cell_angle_gamma                90
_cell_volume                     1614.91
loop_
_atom_site_label
_atom_site_type_symbol
_atom_site_fract_x
_atom_site_fract_y
_atom_site_fract_z
Mn1 Mn 0.35963(15) 0.38103(12) 0.20807(3)
Cl1 Cl -0.0039(3) 0.6676(2) 0.11645(6)
Cl2 Cl 0.2346(4) 0.7860(3) 0.03891(5)
Cl3 Cl 0.6688(4) 0.9727(3) 0.04665(5)
Cl4 Cl 0.8221(3) 1.0970(2) 0.13167(5)
O1 O 0.1776(8) 0.6142(6) 0.20372(15)
O2 O 0.1105(8) 0.8881(6) 0.21787(15)
O3 O 0.6143(7) 0.8710(5) 0.22628(13)
O4 O 0.5449(7) 1.1468(5) 0.21151(14)
O5 O 0.3357(9) 0.3466(6) 0.14125(13)
O6 O 0.6568(8) 0.5279(6) 0.19929(14)
H1 H 0.6829 0.6272 0.2093
H2 H 0.7766 0.4790 0.1969
O7 O 0.0671(7) 0.2463(6) 0.21486(14)
H3 H 0.0020 0.2684 0.2367
H4 H 0.0730 0.1362 0.2137
N1 N 0.4353(10) 0.3804(8) 0.07623(17)
C1 C 0.3004(10) 0.8303(8) 0.15819(19)
C2 C 0.2255(10) 0.7833(9) 0.12103(19)
C3 C 0.3386(13) 0.8353(8) 0.08565(19)
C4 C 0.5238(11) 0.9278(9) 0.08930(19)
C5 C 0.5964(10) 0.9792(8) 0.12705(18)
C6 C 0.4810(10) 0.9322(8) 0.16189(18)
C7 C 0.1883(9) 0.7709(8) 0.19684(18)
C8 C 0.5513(9) 0.9918(8) 0.20322(18)
C9 C 0.4579(11) 0.3968(9) 0.1160(2)
H5 H 0.5794 0.4523 0.1251
C10 C 0.2428(13) 0.3012(11) 0.0595(2)
H6 H 0.2683 0.1807 0.0540
H7 H 0.2051 0.3592 0.0348
H8 H 0.1295 0.3121 0.0786
C11 C 0.5985(16) 0.4407(12) 0.0483(3)
H9 H 0.7203 0.4777 0.0633
H10 H 0.5449 0.5362 0.0327
H11 H 0.6375 0.3478 0.0305
Mn1_2 Mn 0.35963(15) 1.38103(12) 0.20807(3)
Mn1C Mn 0.64037(15) 0.88103(12) 0.29193(3)
O3C O 0.3857(7) 0.3710(5) 0.27372(13)
O4_2 O 0.5449(7) 0.1468(5) 0.21151(14)
loop_
_geom_bond_atom_site_label_1
_geom_bond_atom_site_label_2
_geom_bond_site_symmetry_1
_geom_bond_site_symmetry_2
Mn1 O1 1_555 1_555
Cl1 C2 1_555 1_555
Cl2 C3 1_555 1_555
Cl3 C4 1_555 1_555
Cl4 C5 1_555 1_555
O1 C7 1_555 1_555
O2 C7 1_555 1_555
O3 C8 1_555 1_555
O4 C8 1_555 1_555
O5 Mn1 1_555 1_555
O6 Mn1 1_555 1_555
H1 O6 1_555 1_555
H2 O6 1_555 1_555
O7 Mn1 1_555 1_555
H3 O7 1_555 1_555
H4 O7 1_555 1_555
N1 C9 1_555 1_555
C1 C2 1_555 1_555
C2 C3 1_555 1_555
C3 C4 1_555 1_555
C4 C5 1_555 1_555
C5 C6 1_555 1_555
C6 C1 1_555 1_555
C7 C1 1_555 1_555
C8 C6 1_555 1_555
C9 O5 1_555 1_555
H5 C9 1_555 1_555
C10 N1 1_555 1_555
H6 C10 1_555 1_555
H7 C10 1_555 1_555
H8 C10 1_555 1_555
C11 N1 1_555 1_555
H9 C11 1_555 1_555
H10 C11 1_555 1_555
H11 C11 1_555 1_555
Mn1_2 O4 1_555 1_555
Mn1C O3 1_555 1_555
O3C Mn1 1_555 1_555
O4_2 Mn1 1_555 1_555

#END
