
#######################################################################
#
#                 Cambridge Crystallographic Data Centre
#                                CCDC 
#
#######################################################################
#
# If this CIF has been generated from an entry in the Cambridge 
# Structural Database, then it will include bibliographic, chemical, 
# crystal, experimental, refinement or atomic coordinate data resulting 
# from the CCDC's data processing and validation procedures.
#
#######################################################################

data_FUFQIH
_symmetry_cell_setting           orthorhombic
_symmetry_space_group_name_H-M   'P b c n'
_symmetry_Int_Tables_number      60
_space_group_name_Hall           '-P 2n 2ab'
loop_
_symmetry_equiv_pos_site_id
_symmetry_equiv_pos_as_xyz
1 x,y,z
2 1/2-x,1/2-y,1/2+z
3 -x,y,1/2-z
4 1/2+x,1/2-y,-z
5 -x,-y,-z
6 1/2+x,1/2+y,1/2-z
7 x,-y,1/2+z
8 1/2-x,1/2+y,z
_cell_length_a                   11.229(2)
_cell_length_b                   13.050(3)
_cell_length_c                   31.854(6)
_cell_angle_alpha                90
_cell_angle_beta                 90
_cell_angle_gamma                90
_cell_volume                     4667.84
loop_
_atom_site_label
_atom_site_type_symbol
_atom_site_fract_x
_atom_site_fract_y
_atom_site_fract_z
Cu1 Cu 0.50002(4) 0.35197(3) 0.138120(12)
Cl2 Cl 1.36731(7) 0.34460(6) -0.06808(3)
N1 N 0.5818(2) 0.39214(19) 0.08589(8)
N2 N 0.5209(2) 0.40773(19) 0.04809(8)
N3 N 0.7131(2) 0.39550(19) 0.03501(8)
N4 N 0.8137(2) 0.3889(2) 0.00961(8)
N5 N 0.6066(2) 0.2585(2) 0.17435(8)
N6 N 0.9269(2) -0.0480(2) 0.32100(8)
N7 N 0.3634(2) 0.2562(2) 0.12239(8)
C1 C 0.9139(3) 0.3831(2) 0.02861(11)
H1 H 0.9162 0.3847 0.0584
C2 C 1.0245(2) 0.3741(2) 0.00486(9)
C3 C 1.1328(3) 0.3654(2) 0.02602(10)
H2 H 1.1338 0.3657 0.0558
C4 C 1.2394(3) 0.3565(3) 0.00393(10)
H3 H 1.3131 0.3505 0.0184
C5 C 1.2354(3) 0.3567(3) -0.03941(10)
C6 C 1.1290(3) 0.3669(2) -0.06119(10)
H4 H 1.1283 0.3682 -0.0910
C7 C 1.0248(3) 0.3750(2) -0.03894(10)
H5 H 0.9515 0.3814 -0.0536
C8 C 0.6021(3) 0.4088(3) 0.01889(11)
H6 H 0.5857 0.4178 -0.0101
C9 C 0.6955(3) 0.3858(2) 0.07698(10)
H7 H 0.7569 0.3759 0.0971
C10 C 0.7151(3) 0.2875(3) 0.18815(10)
H8 H 0.7475 0.3498 0.1778
C11 C 0.7820(3) 0.2314(2) 0.21658(10)
H9 H 0.8580 0.2555 0.2252
C12 C 0.7377(3) 0.1402(3) 0.23233(10)
C13 C 0.6262(3) 0.1095(3) 0.21796(10)
H10 H 0.5916 0.0477 0.2279
C14 C 0.5664(3) 0.1689(3) 0.18931(10)
H11 H 0.4916 0.1449 0.1794
C15 C 0.9506(3) 0.0529(2) 0.31711(10)
H12 H 1.0110 0.0819 0.3343
C16 C 0.8914(3) 0.1160(3) 0.28938(10)
H13 H 0.9108 0.1868 0.2882
C17 C 0.8039(3) 0.0774(2) 0.26324(9)
C18 C 0.7798(3) -0.0274(2) 0.26719(10)
H14 H 0.7205 -0.0585 0.2501
C19 C 0.8418(3) -0.0852(3) 0.29577(10)
H15 H 0.8233 -0.1560 0.2978
C20 C 0.2948(3) 0.1984(3) 0.11121(10)
C21 C 0.2098(2) 0.1229(2) 0.09543(10)
H16 H 0.2291 0.1060 0.0662
H17 H 0.1291 0.1513 0.0968
H18 H 0.2141 0.0608 0.1126
Cu1E Cu 1.00002(4) -0.14803(3) 0.361880(12)
N6E N 0.4269(2) 0.4520(2) 0.17900(8)
Cl1 Cl 0.02156(7) 0.39631(6) 0.15178(3)
O1 O -0.08996(19) 0.44036(18) 0.13792(8)
O2 O 0.02059(19) 0.38489(16) 0.19686(6)
O3 O 0.1168(2) 0.4632(2) 0.13954(8)
O4 O 0.0367(2) 0.29745(18) 0.13251(8)
loop_
_geom_bond_atom_site_label_1
_geom_bond_atom_site_label_2
_geom_bond_site_symmetry_1
_geom_bond_site_symmetry_2
Cu1 N1 1_555 1_555
Cl1 O1 1_555 1_555
Cl2 C5 1_555 1_555
O2 Cl1 1_555 1_555
O3 Cl1 1_555 1_555
O4 Cl1 1_555 1_555
N1 N2 1_555 1_555
N2 C8 1_555 1_555
N3 N4 1_555 1_555
N4 C1 1_555 1_555
N5 Cu1 1_555 1_555
N6 C15 1_555 1_555
N7 Cu1 1_555 1_555
C1 H1 1_555 1_555
C2 C1 1_555 1_555
C3 C2 1_555 1_555
H2 C3 1_555 1_555
C4 C3 1_555 1_555
H3 C4 1_555 1_555
C5 C4 1_555 1_555
C6 C5 1_555 1_555
H4 C6 1_555 1_555
C7 C2 1_555 1_555
H5 C7 1_555 1_555
C8 N3 1_555 1_555
H6 C8 1_555 1_555
C9 N1 1_555 1_555
H7 C9 1_555 1_555
C10 N5 1_555 1_555
H8 C10 1_555 1_555
C11 C10 1_555 1_555
H9 C11 1_555 1_555
C12 C11 1_555 1_555
C13 C12 1_555 1_555
H10 C13 1_555 1_555
C14 N5 1_555 1_555
H11 C14 1_555 1_555
C15 H12 1_555 1_555
C16 C15 1_555 1_555
H13 C16 1_555 1_555
C17 C12 1_555 1_555
C18 C17 1_555 1_555
H14 C18 1_555 1_555
C19 N6 1_555 1_555
H15 C19 1_555 1_555
C20 N7 1_555 1_555
C21 C20 1_555 1_555
H16 C21 1_555 1_555
H17 C21 1_555 1_555
H18 C21 1_555 1_555
Cu1E N6 1_555 1_555
N6E Cu1 1_555 1_555
N3 C9 1_555 1_555
C6 C7 1_555 1_555
C13 C14 1_555 1_555
C16 C17 1_555 1_555
C18 C19 1_555 1_555

#END
