
#######################################################################
#
#                 Cambridge Crystallographic Data Centre
#                                CCDC 
#
#######################################################################
#
# If this CIF has been generated from an entry in the Cambridge 
# Structural Database, then it will include bibliographic, chemical, 
# crystal, experimental, refinement or atomic coordinate data resulting 
# from the CCDC's data processing and validation procedures.
#
#######################################################################

data_FUFREE
_symmetry_cell_setting           orthorhombic
_symmetry_space_group_name_H-M   'P n a 21'
_symmetry_Int_Tables_number      33
_space_group_name_Hall           'P 2c -2n'
loop_
_symmetry_equiv_pos_site_id
_symmetry_equiv_pos_as_xyz
1 x,y,z
2 -x,-y,1/2+z
3 1/2-x,1/2+y,1/2+z
4 1/2+x,1/2-y,z
_cell_length_a                   7.7850(16)
_cell_length_b                   10.238(2)
_cell_length_c                   15.851(3)
_cell_angle_alpha                90
_cell_angle_beta                 90
_cell_angle_gamma                90
_cell_volume                     1263.37
loop_
_atom_site_label
_atom_site_type_symbol
_atom_site_fract_x
_atom_site_fract_y
_atom_site_fract_z
Fe1 Fe 0.36188(3) 0.47017(3) 0.09834(2)
O1 O 0.3348(2) -0.13332(17) 0.17102(13)
O2 O 0.0678(2) -0.07457(15) 0.14327(12)
O3 O 0.0295(2) 0.17129(16) 0.04588(10)
O4 O 0.1552(2) 0.36482(16) 0.05235(11)
O5 O 0.2005(3) 0.61535(18) 0.15409(14)
N1 N 0.6090(2) 0.4282(2) 0.47672(13)
N2 N 0.3706(2) 0.11032(19) 0.25545(12)
H1 H 0.4140 0.0507 0.2893
N3 N 0.3178(2) 0.30396(18) 0.19950(12)
C1 C 0.5470(3) 0.4961(3) 0.41087(15)
H2 H 0.5492 0.5888 0.4136
C2 C 0.6111(3) 0.2981(3) 0.46944(17)
H3 H 0.6576 0.2484 0.5146
C3 C 0.5496(3) 0.2326(2) 0.40004(16)
H4 H 0.5557 0.1401 0.3973
C4 C 0.4807(3) 0.4387(2) 0.34009(15)
H5 H 0.4366 0.4909 0.2955
C5 C 0.4785(3) 0.3033(2) 0.33400(15)
C6 C 0.3946(3) 0.2409(2) 0.26185(14)
C7 C 0.2676(3) 0.0870(2) 0.18747(14)
C8 C 0.2350(3) 0.2088(2) 0.15302(13)
C9 C 0.2192(3) -0.0502(2) 0.16453(14)
C10 C 0.1332(2) 0.2489(2) 0.07836(12)
H6 H 0.226(4) 0.676(3) 0.1579(18)
H7 H 0.099(4) 0.619(3) 0.1534(18)
Fe1A Fe 0.63812(3) 0.52983(3) 0.59834(2)
Fe1C Fe -0.13812(3) 0.02983(3) 0.09834(2)
O2C O 0.5678(2) 0.57457(15) 0.14327(12)
O3C O 0.5295(2) 0.32871(16) 0.04588(10)
N1A N 0.3910(2) 0.5718(2) -0.02328(13)
O6 O -0.0385(4) 0.5824(2) 0.38537(18)
H10 H 0.054(7) 0.604(5) 0.355(3)
H11 H -0.057(6) 0.585(4) 0.442(3)
O7 O 0.2472(4) 0.7100(3) 0.3372(2)
H8 H 0.153(2) 0.751(3) 0.324(2)
H9 H 0.319(3) 0.774(2) 0.3493(18)
loop_
_geom_bond_atom_site_label_1
_geom_bond_atom_site_label_2
_geom_bond_site_symmetry_1
_geom_bond_site_symmetry_2
Fe1 O4 1_555 1_555
O1 C9 1_555 1_555
O2 C9 1_555 1_555
O3 C10 1_555 1_555
O4 C10 1_555 1_555
O5 Fe1 1_555 1_555
O6 H10 1_555 1_555
O7 H8 1_555 1_555
N1 C1 1_555 1_555
N2 H1 1_555 1_555
N3 Fe1 1_555 1_555
C1 H2 1_555 1_555
C2 N1 1_555 1_555
H3 C2 1_555 1_555
C3 C2 1_555 1_555
H4 C3 1_555 1_555
C4 C1 1_555 1_555
H5 C4 1_555 1_555
C5 C3 1_555 1_555
C6 N2 1_555 1_555
C7 N2 1_555 1_555
C8 N3 1_555 1_555
C9 C7 1_555 1_555
C10 C8 1_555 1_555
H6 O5 1_555 1_555
H7 O5 1_555 1_555
H9 O7 1_555 1_555
H11 O6 1_555 1_555
Fe1A N1 1_555 1_555
Fe1C O2 1_555 1_555
O2C Fe1 1_555 1_555
O3C Fe1 1_555 1_555
N1A Fe1 1_555 1_555
O3 Fe1C 1_555 1_555
N3 C6 1_555 1_555
C4 C5 1_555 1_555
C5 C6 1_555 1_555
C7 C8 1_555 1_555

#END
