
#######################################################################
#
#                 Cambridge Crystallographic Data Centre
#                                CCDC 
#
#######################################################################
#
# If this CIF has been generated from an entry in the Cambridge 
# Structural Database, then it will include bibliographic, chemical, 
# crystal, experimental, refinement or atomic coordinate data resulting 
# from the CCDC's data processing and validation procedures.
#
#######################################################################

data_FUFTIL
_symmetry_cell_setting           triclinic
_symmetry_space_group_name_H-M   'P -1'
_symmetry_Int_Tables_number      2
_space_group_name_Hall           '-P 1'
loop_
_symmetry_equiv_pos_site_id
_symmetry_equiv_pos_as_xyz
1 x,y,z
2 -x,-y,-z
_cell_length_a                   11.4063(9)
_cell_length_b                   12.4905(7)
_cell_length_c                   12.9267(9)
_cell_angle_alpha                101.825(5)
_cell_angle_beta                 108.484(6)
_cell_angle_gamma                99.617(5)
_cell_volume                     1655.33
loop_
_atom_site_label
_atom_site_type_symbol
_atom_site_fract_x
_atom_site_fract_y
_atom_site_fract_z
Cd1 Cd 1.0000 0.0000 1.0000
O1 O 0.9727(5) -0.0763(3) 0.8067(3)
O2 O 1.0944(6) 0.1659(4) 0.9921(4)
Cd2 Cd 1.28570(4) 0.14834(3) 1.26340(3)
C1 C 0.9403(7) -0.0307(5) 0.7267(5)
C2 C 1.1720(7) 0.2526(6) 1.0592(5)
N1 N 1.4793(5) 0.1817(4) 1.4231(4)
N2 N 1.3199(5) 0.3131(4) 1.4062(4)
O3 O 0.8270(4) -0.0368(3) 0.6709(3)
O4 O 1.2512(5) 0.2609(4) 1.1538(4)
C3 C 1.0409(6) 0.0318(4) 0.6944(4)
C4 C 1.1598(8) 0.3583(6) 1.0267(5)
C5 C 1.5546(7) 0.1079(7) 1.4279(7)
C6 C 1.4917(7) 0.2552(6) 1.5186(5)
C7 C 1.4130(7) 0.3346(6) 1.5072(5)
C8 C 1.2497(7) 0.3878(6) 1.3910(7)
C9 C 1.0047(6) 0.0991(4) 0.6223(4)
C10 C 1.1637(7) 0.0212(6) 0.7302(6)
C11 C 1.2086(11) 0.4624(7) 1.1087(7)
C12 C 1.0986(7) 0.3580(6) 0.9155(5)
H1 H 1.5465 0.0575 1.3608
C13 C 1.6412(8) 0.1048(8) 1.5269(8)
C14 C 1.5760(9) 0.2516(8) 1.6211(6)
C15 C 1.4348(9) 0.4321(7) 1.5913(7)
C16 C 1.2714(10) 0.4857(7) 1.4723(11)
H2 H 1.1829 0.3726 1.3219
C17 C 1.0958(6) 0.1578(4) 0.5923(5)
H3 H 0.9205 0.1041 0.5949
H4 H 1.1889 -0.0221 0.7799
C18 C 1.2496(8) 0.0756(7) 0.6915(7)
H5 H 1.2516 0.4657 1.1840
C19 C 1.1934(12) 0.5611(8) 1.0786(7)
H6 H 1.0650 0.2898 0.8590
C20 C 1.0869(9) 0.4555(7) 0.8877(6)
H7 H 1.6929 0.0546 1.5274
C21 C 1.6502(9) 0.1746(10) 1.6224(9)
H8 H 1.5826 0.3005 1.6886
H9 H 1.4999 0.4466 1.6613
C22 C 1.3615(11) 0.5070(8) 1.5725(10)
H10 H 1.2226 0.5372 1.4568
O5 O 1.0722(4) 0.2317(3) 0.5269(3)
C23 C 1.2160(7) 0.1460(6) 0.6247(6)
H11 H 1.3314 0.0643 0.7109
C24 C 1.1356(11) 0.5574(7) 0.9696(7)
H12 H 1.2233 0.6300 1.1341
O6 O 1.0237(5) 0.4544(4) 0.7745(3)
H13 H 1.7070 0.1720 1.6912
H14 H 1.3750 0.5719 1.6295
C25 C 0.9602(6) 0.2719(5) 0.5188(5)
H15 H 1.2758 0.1852 0.6021
H16 H 1.1284 0.6240 0.9493
C26 C 1.1093(7) 0.4566(5) 0.7185(4)
C27 C 0.9840(5) 0.3899(4) 0.5077(4)
H17 H 0.8884 0.2232 0.4533
H18 H 0.9399 0.2710 0.5861
C28 C 1.0481(5) 0.4785(4) 0.6046(4)
H19 H 1.1864 0.5157 0.7639
H20 H 1.1324 0.3850 0.7071
C29 C 0.9384(5) 0.4099(4) 0.4026(4)
C30 C 0.8804(6) 0.3152(5) 0.2971(4)
O7 O 0.7451(4) 0.2917(4) 0.2648(3)
H21 H 0.9051 0.3357 0.2372
H22 H 0.9097 0.2489 0.3102
C31 C 0.6750(6) 0.2284(5) 0.1561(5)
C32 C 0.5473(7) 0.2258(6) 0.1189(6)
C33 C 0.7253(6) 0.1691(5) 0.0878(5)
C34 C 0.4696(8) 0.1635(8) 0.0109(7)
H23 H 0.5138 0.2659 0.1666
C35 C 0.6463(7) 0.1054(6) -0.0218(5)
H24 H 0.8118 0.1710 0.1140
H25 H 0.3833 0.1625 -0.0158
C36 C 0.5197(8) 0.1031(9) -0.0573(7)
C37 C 0.7034(8) 0.0365(6) -0.0938(5)
H26 H 0.4662 0.0593 -0.1298
O8 O 0.6256(5) -0.0282(5) -0.1846(4)
O9 O 0.8150(5) 0.0443(5) -0.0606(4)
O2A O 0.9056(6) 0.8341(4) 0.0079(4)
C1A C 1.0597(7) 1.0307(5) 0.2733(5)
C2A C 0.8280(7) 0.7474(6) -0.0592(5)
O4A O 0.7488(5) 0.7391(4) -0.1538(4)
C3A C 0.9591(6) 0.9682(4) 0.3056(4)
C4A C 0.8402(8) 0.6417(6) -0.0267(5)
C9A C 0.9953(6) 0.9009(4) 0.3777(4)
C10A C 0.8363(7) 0.9788(6) 0.2698(6)
C11A C 0.7914(11) 0.5376(7) -0.1087(7)
C12A C 0.9014(7) 0.6420(6) 0.0845(5)
C17A C 0.9042(6) 0.8422(4) 0.4077(5)
H3A H 1.0795 0.8959 0.4051
H4A H 0.8111 1.0221 0.2201
C18A C 0.7504(8) 0.9244(7) 0.3085(7)
H5A H 0.7484 0.5343 -0.1840
C19A C 0.8066(12) 0.4389(8) -0.0786(7)
H6A H 0.9350 0.7102 0.1410
C20A C 0.9131(9) 0.5445(7) 0.1123(6)
O5A O 0.9278(4) 0.7683(3) 0.4731(3)
C23A C 0.7840(7) 0.8540(6) 0.3753(6)
H11A H 0.6686 0.9357 0.2891
C24A C 0.8644(11) 0.4426(7) 0.0304(7)
H12A H 0.7767 0.3700 -0.1341
O6A O 0.9763(5) 0.5456(4) 0.2255(3)
C25A C 1.0398(6) 0.7281(5) 0.4812(5)
H15A H 0.7242 0.8148 0.3979
H16A H 0.8716 0.3760 0.0507
C26A C 0.8907(7) 0.5434(5) 0.2815(4)
C27A C 1.0160(5) 0.6101(4) 0.4923(4)
H17A H 1.1116 0.7768 0.5467
H18A H 1.0601 0.7290 0.4139
C28A C 0.9519(5) 0.5215(4) 0.3954(4)
H19A H 0.8136 0.4843 0.2361
H20A H 0.8676 0.6150 0.2929
C29A C 1.0616(5) 0.5901(4) 0.5974(4)
C30A C 1.1196(6) 0.6848(5) 0.7029(4)
O7A O 1.2549(4) 0.7083(4) 0.7352(3)
H21A H 1.0949 0.6643 0.7628
H22A H 1.0903 0.7511 0.6898
C31A C 1.3250(6) 0.7716(5) 0.8439(5)
C32A C 1.4527(7) 0.7742(6) 0.8811(6)
C33A C 1.2747(6) 0.8309(5) 0.9122(5)
C34A C 1.5304(8) 0.8365(8) 0.9891(7)
H23A H 1.4862 0.7341 0.8334
C35A C 1.3537(7) 0.8946(6) 1.0218(5)
H24A H 1.1882 0.8290 0.8860
H25A H 1.6167 0.8375 1.0158
C36A C 1.4803(8) 0.8969(9) 1.0573(7)
C37A C 1.2966(8) 0.9635(6) 1.0938(5)
H26A H 1.5338 0.9407 1.1298
O8A O 1.3744(5) 1.0282(5) 1.1846(4)
O9A O 1.1850(5) 0.9557(5) 1.0606(4)
O1A O 1.0273(5) 1.0763(3) 0.1933(3)
O3A O 1.1730(4) 1.0368(3) 0.3291(3)
Cd2A Cd 0.71430(4) -0.14834(3) -0.26340(3)
N1A N 0.5207(5) -0.1817(4) -0.4231(4)
N2A N 0.6801(5) -0.3131(4) -0.4062(4)
C5A C 0.4454(7) -0.1079(7) -0.4279(7)
C6A C 0.5083(7) -0.2552(6) -0.5186(5)
C7A C 0.5870(7) -0.3346(6) -0.5072(5)
C8A C 0.7503(7) -0.3878(6) -0.3910(7)
H1A H 0.4535 -0.0575 -0.3608
C13A C 0.3588(8) -0.1048(8) -0.5269(8)
C14A C 0.4240(9) -0.2516(8) -0.6211(6)
C15A C 0.5652(9) -0.4321(7) -0.5913(7)
C16A C 0.7286(10) -0.4857(7) -0.4723(11)
H2A H 0.8171 -0.3726 -0.3219
H7A H 0.3071 -0.0546 -0.5274
C21A C 0.3498(9) -0.1746(10) -0.6224(9)
H8A H 0.4174 -0.3005 -0.6886
H9A H 0.5001 -0.4466 -0.6613
C22A C 0.6385(11) -0.5070(8) -0.5725(10)
H10A H 0.7774 -0.5372 -0.4568
H13A H 0.2930 -0.1720 -0.6912
H14A H 0.6250 -0.5719 -0.6295
Cd1_2 Cd 1.0000 0.0000 0.0000
Cd1_3 Cd 1.0000 1.0000 0.0000
Cd1_4 Cd 1.0000 1.0000 1.0000
O1_2 O 0.9727(5) -0.0763(3) -0.1933(3)
O1A_2 O 1.0273(5) 0.0763(3) 1.1933(3)
O2A_2 O 0.9056(6) -0.1659(4) 1.0079(4)
Cd2_2 Cd 1.28570(4) 1.14834(3) 0.26340(3)
Cd2_3 Cd 1.28570(4) 1.14834(3) 1.26340(3)
Cd2A_2 Cd 0.71430(4) -0.14834(3) 0.73660(3)
Cd2A_3 Cd 0.71430(4) 0.85166(3) -0.26340(3)
O3_2 O 0.8270(4) -0.0368(3) -0.3291(3)
O3A_2 O 1.1730(4) 0.0368(3) 1.3291(3)
O4A_2 O 0.7488(5) -0.2609(4) -0.1538(4)
O8A_2 O 1.3744(5) 0.0282(5) 1.1846(4)
O9_2 O 0.8150(5) 0.0443(5) 0.9394(4)
O9A_2 O 1.1850(5) -0.0443(5) 1.0606(4)
loop_
_geom_bond_atom_site_label_1
_geom_bond_atom_site_label_2
_geom_bond_site_symmetry_1
_geom_bond_site_symmetry_2
Cd1 O1 1_555 1_555
O1 C1 1_555 1_555
O2 Cd1 1_555 1_555
Cd2 N1 1_555 1_555
C1 O3 1_555 1_555
C2 O2 1_555 1_555
N1 C5 1_555 1_555
N2 Cd2 1_555 1_555
O3 Cd2A_2 1_555 1_555
O4 Cd2 1_555 1_555
C3 C1 1_555 1_555
C4 C2 1_555 1_555
C5 H1 1_555 1_555
C6 N1 1_555 1_555
C7 N2 1_555 1_555
C8 N2 1_555 1_555
C9 C3 1_555 1_555
C10 C3 1_555 1_555
C11 C4 1_555 1_555
C12 C4 1_555 1_555
C13 C5 1_555 1_555
C14 C6 1_555 1_555
C15 C7 1_555 1_555
C16 C8 1_555 1_555
H2 C8 1_555 1_555
C17 C9 1_555 1_555
H3 C9 1_555 1_555
H4 C10 1_555 1_555
C18 C10 1_555 1_555
H5 C11 1_555 1_555
C19 C11 1_555 1_555
H6 C12 1_555 1_555
C20 C12 1_555 1_555
H7 C13 1_555 1_555
C21 C13 1_555 1_555
H8 C14 1_555 1_555
H9 C15 1_555 1_555
C22 C15 1_555 1_555
H10 C16 1_555 1_555
O5 C17 1_555 1_555
C23 C17 1_555 1_555
H11 C18 1_555 1_555
C24 C19 1_555 1_555
H12 C19 1_555 1_555
O6 C20 1_555 1_555
H13 C21 1_555 1_555
H14 C22 1_555 1_555
C25 O5 1_555 1_555
H15 C23 1_555 1_555
H16 C24 1_555 1_555
C26 O6 1_555 1_555
C27 C25 1_555 1_555
H17 C25 1_555 1_555
H18 C25 1_555 1_555
C28 C26 1_555 1_555
H19 C26 1_555 1_555
H20 C26 1_555 1_555
C29 C27 1_555 1_555
C30 C29 1_555 1_555
O7 C30 1_555 1_555
H21 C30 1_555 1_555
H22 C30 1_555 1_555
C31 O7 1_555 1_555
C32 C31 1_555 1_555
C33 C31 1_555 1_555
C34 C32 1_555 1_555
H23 C32 1_555 1_555
C35 C33 1_555 1_555
H24 C33 1_555 1_555
H25 C34 1_555 1_555
C36 C34 1_555 1_555
C37 C35 1_555 1_555
H26 C36 1_555 1_555
O8 C37 1_555 1_555
O9 C37 1_555 1_555
O2A C2A 1_555 1_555
C1A C3A 1_555 1_555
C2A O4A 1_555 1_555
O4A Cd2A_3 1_555 1_555
C3A C9A 1_555 1_555
C4A C2A 1_555 1_555
C9A C17A 1_555 1_555
C10A C3A 1_555 1_555
C11A C4A 1_555 1_555
C12A C4A 1_555 1_555
C17A O5A 1_555 1_555
H3A C9A 1_555 1_555
H4A C10A 1_555 1_555
C18A C10A 1_555 1_555
H5A C11A 1_555 1_555
C19A C11A 1_555 1_555
H6A C12A 1_555 1_555
C20A C12A 1_555 1_555
O5A C25A 1_555 1_555
C23A C17A 1_555 1_555
H11A C18A 1_555 1_555
C24A C19A 1_555 1_555
H12A C19A 1_555 1_555
O6A C20A 1_555 1_555
C25A C27A 1_555 1_555
H15A C23A 1_555 1_555
H16A C24A 1_555 1_555
C26A O6A 1_555 1_555
C27A C28A 1_555 1_555
H17A C25A 1_555 1_555
H18A C25A 1_555 1_555
C28A C29 1_555 1_555
H19A C26A 1_555 1_555
H20A C26A 1_555 1_555
C29A C28 1_555 1_555
C30A C29A 1_555 1_555
O7A C30A 1_555 1_555
H21A C30A 1_555 1_555
H22A C30A 1_555 1_555
C31A O7A 1_555 1_555
C32A C31A 1_555 1_555
C33A C31A 1_555 1_555
C34A C32A 1_555 1_555
H23A C32A 1_555 1_555
C35A C33A 1_555 1_555
H24A C33A 1_555 1_555
H25A C34A 1_555 1_555
C36A C34A 1_555 1_555
C37A C35A 1_555 1_555
H26A C36A 1_555 1_555
O8A C37A 1_555 1_555
O9A C37A 1_555 1_555
O1A C1A 1_555 1_555
O3A C1A 1_555 1_555
Cd2A O8 1_555 1_555
N1A Cd2A 1_555 1_555
N2A Cd2A 1_555 1_555
C5A N1A 1_555 1_555
C6A N1A 1_555 1_555
C7A N2A 1_555 1_555
C8A N2A 1_555 1_555
H1A C5A 1_555 1_555
C13A C5A 1_555 1_555
C14A C6A 1_555 1_555
C15A C7A 1_555 1_555
C16A C8A 1_555 1_555
H2A C8A 1_555 1_555
H7A C13A 1_555 1_555
C21A C13A 1_555 1_555
H8A C14A 1_555 1_555
H9A C15A 1_555 1_555
C22A C15A 1_555 1_555
H10A C16A 1_555 1_555
H13A C21A 1_555 1_555
H14A C22A 1_555 1_555
Cd1_2 O9 1_555 1_555
Cd1_3 O2A 1_555 1_555
Cd1_4 O9A 1_555 1_555
O1_2 Cd2A 1_555 1_555
O1A_2 Cd1 1_555 1_555
O2A_2 Cd1 1_555 1_555
Cd2_2 O1A 1_555 1_555
Cd2_3 O8A 1_555 1_555
Cd2A_2 O1 1_555 1_555
O3_2 Cd2A 1_555 1_555
O3A_2 Cd2 1_555 1_555
O4A_2 Cd2A 1_555 1_555
O8A_2 Cd2 1_555 1_555
O9_2 Cd1 1_555 1_555
O9A_2 Cd1 1_555 1_555
Cd2 O1A_2 1_555 1_555
C2 O4 1_555 1_555
C6 C7 1_555 1_555
C14 C21 1_555 1_555
C16 C22 1_555 1_555
C18 C23 1_555 1_555
C20 C24 1_555 1_555
C27 C28 1_555 1_555
C35 C36 1_555 1_555
C18A C23A 1_555 1_555
C20A C24A 1_555 1_555
C26A C28A 1_555 1_555
C27A C29A 1_555 1_555
C35A C36A 1_555 1_555
O1A Cd1_3 1_555 1_555
O3A Cd2_2 1_555 1_555
C6A C7A 1_555 1_555
C14A C21A 1_555 1_555
C16A C22A 1_555 1_555
Cd1_2 O1_2 1_555 1_555

#END
