
#######################################################################
#
#                 Cambridge Crystallographic Data Centre
#                                CCDC 
#
#######################################################################
#
# If this CIF has been generated from an entry in the Cambridge 
# Structural Database, then it will include bibliographic, chemical, 
# crystal, experimental, refinement or atomic coordinate data resulting 
# from the CCDC's data processing and validation procedures.
#
#######################################################################

data_FUFVIN
_symmetry_cell_setting           triclinic
_symmetry_space_group_name_H-M   'P -1'
_symmetry_Int_Tables_number      2
_space_group_name_Hall           '-P 1'
loop_
_symmetry_equiv_pos_site_id
_symmetry_equiv_pos_as_xyz
1 x,y,z
2 -x,-y,-z
_cell_length_a                   8.9200(5)
_cell_length_b                   15.5240(8)
_cell_length_c                   15.8610(8)
_cell_angle_alpha                90.076(4)
_cell_angle_beta                 95.216(4)
_cell_angle_gamma                90.973(4)
_cell_volume                     2186.92
loop_
_atom_site_label
_atom_site_type_symbol
_atom_site_fract_x
_atom_site_fract_y
_atom_site_fract_z
Cu1 Cu 0.37471(4) 0.10336(3) 0.16974(3)
C1 C 0.0801(4) 0.1130(3) 0.2445(3)
H1 H 0.0977 0.1722 0.2477
C2 C -0.0472(5) 0.0791(3) 0.2746(3)
H2 H -0.1148 0.1153 0.2977
C3 C -0.0747(4) -0.0060(3) 0.2708(3)
H3 H -0.1611 -0.0293 0.2911
C4 C 0.0272(4) -0.0586(3) 0.2363(3)
H4 H 0.0106 -0.1178 0.2328
C5 C 0.1539(4) -0.0215(3) 0.2072(2)
C6 C 0.2727(4) -0.0697(3) 0.1696(2)
C7 C 0.2808(4) -0.1572(3) 0.1604(2)
H5 H 0.2037 -0.1928 0.1767
C8 C 0.4045(4) -0.1930(3) 0.1265(2)
C9 C 0.5146(4) -0.1372(3) 0.1022(2)
H6 H 0.5977 -0.1586 0.0782
C10 C 0.5015(4) -0.0501(2) 0.1134(2)
C11 C 0.6102(4) 0.0181(2) 0.0939(2)
C12 C 0.7443(4) 0.0044(3) 0.0598(2)
H7 H 0.7722 -0.0509 0.0460
C13 C 0.8359(4) 0.0739(3) 0.0466(3)
H8 H 0.9267 0.0660 0.0234
C14 C 0.7940(4) 0.1544(3) 0.0676(3)
H9 H 0.8564 0.2018 0.0596
C15 C 0.6582(4) 0.1648(3) 0.1006(3)
H10 H 0.6287 0.2198 0.1143
C16 C 0.4196(4) -0.2874(3) 0.1211(3)
C17 C 0.3196(6) -0.3434(3) 0.1523(3)
H11 H 0.2334 -0.3219 0.1730
C18 C 0.3418(6) -0.4304(3) 0.1542(4)
H12 H 0.2697 -0.4662 0.1757
C19 C 0.4641(6) -0.4659(3) 0.1261(4)
C20 C 0.5599(6) -0.4110(4) 0.0897(5)
H13 H 0.6423 -0.4334 0.0658
C21 C 0.5388(6) -0.3231(3) 0.0872(4)
H14 H 0.6071 -0.2878 0.0619
C22 C 0.4944(7) -0.5607(3) 0.1344(5)
H15 H 0.5867 -0.5733 0.1106
H16 H 0.4131 -0.5929 0.1049
H17 H 0.5027 -0.5763 0.1932
C23 C 0.2185(4) 0.2393(2) 0.0921(2)
C24 C 0.1216(4) 0.3153(2) 0.1056(2)
C25 C 0.0298(5) 0.3497(3) 0.0403(3)
H18 H 0.0328 0.3286 -0.0144
C26 C -0.0649(5) 0.4142(3) 0.0552(3)
H19 H -0.1268 0.4366 0.0105
C27 C -0.0710(5) 0.4468(3) 0.1347(3)
H20 H -0.1358 0.4914 0.1440
C28 C 0.0198(4) 0.4129(3) 0.2011(2)
C29 C 0.1182(4) 0.3482(2) 0.1867(2)
H21 H 0.1818 0.3266 0.2312
C30 C 0.0925(4) 0.4169(3) 0.3498(2)
H22 H 0.1981 0.4299 0.3449
H23 H 0.0795 0.3549 0.3540
C31 C 0.0413(4) 0.4605(2) 0.4270(2)
C32 C 0.1078(4) 0.5383(2) 0.4537(2)
C33 C 0.2191(4) 0.5821(3) 0.4025(3)
H24 H 0.1882 0.5751 0.3426
H25 H 0.2246 0.6432 0.4155
C34 C 0.4779(5) 0.5816(3) 0.3841(3)
C35 C 0.5871(5) 0.5266(4) 0.3670(3)
H26 H 0.5776 0.4681 0.3787
C36 C 0.7127(6) 0.5583(5) 0.3321(4)
H27 H 0.7882 0.5207 0.3203
C37 C 0.7282(6) 0.6435(4) 0.3147(4)
H28 H 0.8137 0.6641 0.2913
C38 C 0.6176(5) 0.6982(3) 0.3318(3)
C39 C 0.4904(4) 0.6669(3) 0.3664(3)
H29 H 0.4139 0.7041 0.3775
C40 C 0.6340(6) 0.7911(4) 0.3133(3)
C41 C -0.0675(4) 0.4229(2) 0.4722(2)
C42 C -0.1516(4) 0.3421(2) 0.4411(3)
H30 H -0.2584 0.3481 0.4462
H31 H -0.1374 0.3321 0.3819
C43 C -0.1703(4) 0.1954(2) 0.4797(3)
C44 C -0.1266(6) 0.1333(3) 0.5375(3)
H32 H -0.0518 0.1453 0.5809
C45 C -0.1944(7) 0.0530(3) 0.5308(4)
H33 H -0.1673 0.0114 0.5712
C46 C -0.3007(6) 0.0335(3) 0.4660(3)
H34 H -0.3437 -0.0215 0.4613
C47 C -0.3438(4) 0.0958(2) 0.4077(2)
C48 C -0.2783(4) 0.1772(2) 0.4151(2)
H35 H -0.3079 0.2196 0.3760
C49 C -0.4531(4) 0.0749(3) 0.3329(2)
N1 N 0.1789(3) 0.0638(2) 0.21108(19)
N2 N 0.3818(3) -0.0183(2) 0.14638(18)
N3 N 0.5684(3) 0.0980(2) 0.11334(18)
O1 O 0.3148(3) 0.22176(17) 0.15306(16)
O2 O 0.1992(3) 0.1983(2) 0.02587(17)
O3 O 0.0036(3) 0.44837(19) 0.27855(17)
O4 O 0.3592(3) 0.5453(2) 0.4220(2)
O5 O 0.7346(4) 0.8195(3) 0.2747(3)
O6 O -0.0953(3) 0.27242(17) 0.49055(18)
O7 O -0.5052(3) 0.13559(18) 0.28894(16)
O8 O -0.4821(4) -0.0012(2) 0.3163(2)
O9 O 0.5303(4) 0.8373(2) 0.3438(3)
H36 H 0.548(7) 0.897(5) 0.334(4)
C23A C -0.2185(4) 0.7607(2) 0.9079(2)
C24A C -0.1216(4) 0.6847(2) 0.8944(2)
C25A C -0.0298(5) 0.6503(3) 0.9597(3)
H18A H -0.0328 0.6714 1.0144
C26A C 0.0649(5) 0.5858(3) 0.9448(3)
H19A H 0.1268 0.5634 0.9895
C27A C 0.0710(5) 0.5532(3) 0.8653(3)
H20A H 0.1358 0.5086 0.8560
C28A C -0.0198(4) 0.5871(3) 0.7989(2)
C29A C -0.1182(4) 0.6518(2) 0.8133(2)
H21A H -0.1818 0.6734 0.7688
C30A C -0.0925(4) 0.5831(3) 0.6502(2)
H22A H -0.1981 0.5701 0.6551
H23A H -0.0795 0.6451 0.6460
C31A C -0.0413(4) 0.5395(2) 0.5730(2)
C32A C -0.1078(4) 0.4617(2) 0.5463(2)
C33A C -0.2191(4) 0.4179(3) 0.5975(3)
H24A H -0.1882 0.4249 0.6574
H25A H -0.2246 0.3568 0.5845
C34A C -0.4779(5) 0.4184(3) 0.6159(3)
C35A C -0.5871(5) 0.4734(4) 0.6330(3)
H26A H -0.5776 0.5319 0.6213
C36A C -0.7127(6) 0.4417(5) 0.6679(4)
H27A H -0.7882 0.4793 0.6797
C37A C -0.7282(6) 0.3565(4) 0.6853(4)
H28A H -0.8137 0.3359 0.7087
C38A C -0.6176(5) 0.3018(3) 0.6682(3)
C39A C -0.4904(4) 0.3331(3) 0.6336(3)
H29A H -0.4139 0.2959 0.6225
C40A C -0.6340(6) 0.2089(4) 0.6867(3)
C41A C 0.0675(4) 0.5771(2) 0.5278(2)
C42A C 0.1516(4) 0.6579(2) 0.5589(3)
H30A H 0.2584 0.6519 0.5538
H31A H 0.1374 0.6679 0.6181
C43A C 0.1703(4) 0.8046(2) 0.5203(3)
C44A C 0.1266(6) 0.8667(3) 0.4625(3)
H32A H 0.0518 0.8547 0.4191
C45A C 0.1944(7) 0.9470(3) 0.4692(4)
H33A H 0.1673 0.9886 0.4288
C46A C 0.3007(6) 0.9665(3) 0.5340(3)
H34A H 0.3437 1.0215 0.5387
C47A C 0.3438(4) 0.9042(2) 0.5923(2)
C48A C 0.2783(4) 0.8228(2) 0.5849(2)
H35A H 0.3079 0.7804 0.6240
C49A C 0.4531(4) 0.9251(3) 0.6671(2)
O1A O -0.3148(3) 0.77824(17) 0.84694(16)
O2A O -0.1992(3) 0.8017(2) 0.97413(17)
O3A O -0.0036(3) 0.55163(19) 0.72145(17)
O4A O -0.3592(3) 0.4547(2) 0.5780(2)
O5A O -0.7346(4) 0.1805(3) 0.7253(3)
O6A O 0.0953(3) 0.72758(17) 0.50945(18)
O7A O 0.5052(3) 0.86441(18) 0.71106(16)
O8A O 0.4821(4) 1.0012(2) 0.6837(2)
O9A O -0.5303(4) 0.1627(2) 0.6562(3)
H36A H -0.548(7) 0.103(5) 0.666(4)
Cu1A Cu -0.37471(4) 0.89664(3) 0.83026(3)
C1A C -0.0801(4) 0.8870(3) 0.7555(3)
H1A H -0.0977 0.8278 0.7523
C2A C 0.0472(5) 0.9209(3) 0.7254(3)
H2A H 0.1148 0.8847 0.7023
C3A C 0.0747(4) 1.0060(3) 0.7292(3)
H3A H 0.1611 1.0293 0.7089
C4A C -0.0272(4) 1.0586(3) 0.7637(3)
H4A H -0.0106 1.1178 0.7672
C5A C -0.1539(4) 1.0215(3) 0.7928(2)
C6A C -0.2727(4) 1.0697(3) 0.8304(2)
C7A C -0.2808(4) 1.1572(3) 0.8396(2)
H5A H -0.2037 1.1928 0.8233
C8A C -0.4045(4) 1.1930(3) 0.8735(2)
C9A C -0.5146(4) 1.1372(3) 0.8978(2)
H6A H -0.5977 1.1586 0.9218
C10A C -0.5015(4) 1.0501(2) 0.8866(2)
C11A C -0.6102(4) 0.9819(2) 0.9061(2)
C12A C -0.7443(4) 0.9956(3) 0.9402(2)
H7A H -0.7722 1.0509 0.9540
C13A C -0.8359(4) 0.9261(3) 0.9534(3)
H8A H -0.9267 0.9340 0.9766
C14A C -0.7940(4) 0.8456(3) 0.9324(3)
H9A H -0.8564 0.7982 0.9404
C15A C -0.6582(4) 0.8352(3) 0.8994(3)
H10A H -0.6287 0.7802 0.8857
C16A C -0.4196(4) 1.2874(3) 0.8789(3)
C17A C -0.3196(6) 1.3434(3) 0.8477(3)
H11A H -0.2334 1.3219 0.8270
C18A C -0.3418(6) 1.4304(3) 0.8458(4)
H12A H -0.2697 1.4662 0.8243
C19A C -0.4641(6) 1.4659(3) 0.8739(4)
C20A C -0.5599(6) 1.4110(4) 0.9103(5)
H13A H -0.6423 1.4334 0.9342
C21A C -0.5388(6) 1.3231(3) 0.9128(4)
H14A H -0.6071 1.2878 0.9381
C22A C -0.4944(7) 1.5607(3) 0.8656(5)
H15A H -0.5867 1.5733 0.8894
H16A H -0.4131 1.5929 0.8951
H17A H -0.5027 1.5763 0.8068
N1A N -0.1789(3) 0.9362(2) 0.78892(19)
N2A N -0.3818(3) 1.0183(2) 0.85362(18)
N3A N -0.5684(3) 0.9020(2) 0.88666(18)
Cu1_2 Cu -0.62529(4) 0.10336(3) 0.16974(3)
Cu1A_2 Cu 0.62529(4) 0.89664(3) 0.83026(3)
O7_2 O 0.4948(3) 0.13559(18) 0.28894(16)
O7A_2 O -0.4948(3) 0.86441(18) 0.71106(16)
C50 C -0.7416(8) 0.1992(5) 0.4483(5)
H37 H -0.7471 0.1914 0.5079
H38 H -0.7037 0.1479 0.4245
H39 H -0.8402 0.2105 0.4216
C51 C -0.6391(8) 0.2731(5) 0.4341(4)
H40 H -0.6761 0.3240 0.4603
H41 H -0.5401 0.2613 0.4618
O10 O -0.6253(5) 0.2903(3) 0.3482(2)
H42 H -0.5646 0.2573 0.3303
O11 O 0.0775(4) 0.2389(4) -0.1448(3)
H43 H 0.130(7) 0.238(6) -0.0925(17)
H44 H 0.147(6) 0.226(6) -0.181(3)
loop_
_geom_bond_atom_site_label_1
_geom_bond_atom_site_label_2
_geom_bond_site_symmetry_1
_geom_bond_site_symmetry_2
Cu1 N1 1_555 1_555
C1 H1 1_555 1_555
C2 C1 1_555 1_555
H2 C2 1_555 1_555
C3 C2 1_555 1_555
H3 C3 1_555 1_555
C4 C3 1_555 1_555
H4 C4 1_555 1_555
C5 C4 1_555 1_555
C6 C5 1_555 1_555
C7 C6 1_555 1_555
H5 C7 1_555 1_555
C8 C7 1_555 1_555
C9 C8 1_555 1_555
H6 C9 1_555 1_555
C10 C9 1_555 1_555
C11 C10 1_555 1_555
C12 C11 1_555 1_555
H7 C12 1_555 1_555
C13 C12 1_555 1_555
H8 C13 1_555 1_555
C14 C13 1_555 1_555
H9 C14 1_555 1_555
C15 C14 1_555 1_555
H10 C15 1_555 1_555
C16 C8 1_555 1_555
C17 C16 1_555 1_555
H11 C17 1_555 1_555
C18 C17 1_555 1_555
H12 C18 1_555 1_555
C19 C18 1_555 1_555
C20 C19 1_555 1_555
H13 C20 1_555 1_555
C21 C16 1_555 1_555
H14 C21 1_555 1_555
C22 C19 1_555 1_555
H15 C22 1_555 1_555
H16 C22 1_555 1_555
H17 C22 1_555 1_555
C23 C24 1_555 1_555
C24 C25 1_555 1_555
C25 H18 1_555 1_555
C26 C25 1_555 1_555
H19 C26 1_555 1_555
C27 C26 1_555 1_555
H20 C27 1_555 1_555
C28 C27 1_555 1_555
C29 C24 1_555 1_555
H21 C29 1_555 1_555
C30 H22 1_555 1_555
H23 C30 1_555 1_555
C31 C30 1_555 1_555
C32 C31 1_555 1_555
C33 C32 1_555 1_555
H24 C33 1_555 1_555
H25 C33 1_555 1_555
C34 C35 1_555 1_555
C35 H26 1_555 1_555
C36 C35 1_555 1_555
H27 C36 1_555 1_555
C37 C36 1_555 1_555
H28 C37 1_555 1_555
C38 C37 1_555 1_555
C39 C34 1_555 1_555
H29 C39 1_555 1_555
C40 C38 1_555 1_555
C41 C31 1_555 1_555
C42 C41 1_555 1_555
H30 C42 1_555 1_555
H31 C42 1_555 1_555
C43 C44 1_555 1_555
C44 H32 1_555 1_555
C45 C44 1_555 1_555
H33 C45 1_555 1_555
C46 C45 1_555 1_555
H34 C46 1_555 1_555
C47 C46 1_555 1_555
C48 C43 1_555 1_555
H35 C48 1_555 1_555
C49 C47 1_555 1_555
N1 C1 1_555 1_555
N2 Cu1 1_555 1_555
N3 Cu1 1_555 1_555
O1 Cu1 1_555 1_555
O2 C23 1_555 1_555
O3 C28 1_555 1_555
O4 C33 1_555 1_555
O5 C40 1_555 1_555
O6 C42 1_555 1_555
O7 C49 1_555 1_555
O8 C49 1_555 1_555
O9 C40 1_555 1_555
H36 O9 1_555 1_555
C50 H37 1_555 1_555
H38 C50 1_555 1_555
H39 C50 1_555 1_555
C51 C50 1_555 1_555
H40 C51 1_555 1_555
H41 C51 1_555 1_555
O10 C51 1_555 1_555
H42 O10 1_555 1_555
O11 H43 1_555 1_555
H44 O11 1_555 1_555
C23A C24A 1_555 1_555
C24A C25A 1_555 1_555
C25A H18A 1_555 1_555
C26A C25A 1_555 1_555
H19A C26A 1_555 1_555
C27A C26A 1_555 1_555
H20A C27A 1_555 1_555
C28A C27A 1_555 1_555
C29A C24A 1_555 1_555
H21A C29A 1_555 1_555
C30A H22A 1_555 1_555
H23A C30A 1_555 1_555
C31A C30A 1_555 1_555
C32A C41 1_555 1_555
C33A C32A 1_555 1_555
H24A C33A 1_555 1_555
H25A C33A 1_555 1_555
C34A C35A 1_555 1_555
C35A H26A 1_555 1_555
C36A C35A 1_555 1_555
H27A C36A 1_555 1_555
C37A C36A 1_555 1_555
H28A C37A 1_555 1_555
C38A C37A 1_555 1_555
C39A C34A 1_555 1_555
H29A C39A 1_555 1_555
C40A C38A 1_555 1_555
C41A C32 1_555 1_555
C42A C41A 1_555 1_555
H30A C42A 1_555 1_555
H31A C42A 1_555 1_555
C43A C44A 1_555 1_555
C44A H32A 1_555 1_555
C45A C44A 1_555 1_555
H33A C45A 1_555 1_555
C46A C45A 1_555 1_555
H34A C46A 1_555 1_555
C47A C46A 1_555 1_555
C48A C43A 1_555 1_555
H35A C48A 1_555 1_555
C49A C47A 1_555 1_555
O1A C23A 1_555 1_555
O2A C23A 1_555 1_555
O3A C28A 1_555 1_555
O4A C33A 1_555 1_555
O5A C40A 1_555 1_555
O6A C42A 1_555 1_555
O7A C49A 1_555 1_555
O8A C49A 1_555 1_555
O9A C40A 1_555 1_555
H36A O9A 1_555 1_555
Cu1A O1A 1_555 1_555
C1A H1A 1_555 1_555
C2A C1A 1_555 1_555
H2A C2A 1_555 1_555
C3A C2A 1_555 1_555
H3A C3A 1_555 1_555
C4A C3A 1_555 1_555
H4A C4A 1_555 1_555
C5A C4A 1_555 1_555
C6A C5A 1_555 1_555
C7A C6A 1_555 1_555
H5A C7A 1_555 1_555
C8A C7A 1_555 1_555
C9A C8A 1_555 1_555
H6A C9A 1_555 1_555
C10A C9A 1_555 1_555
C11A C10A 1_555 1_555
C12A C11A 1_555 1_555
H7A C12A 1_555 1_555
C13A C12A 1_555 1_555
H8A C13A 1_555 1_555
C14A C13A 1_555 1_555
H9A C14A 1_555 1_555
C15A C14A 1_555 1_555
H10A C15A 1_555 1_555
C16A C8A 1_555 1_555
C17A C16A 1_555 1_555
H11A C17A 1_555 1_555
C18A C17A 1_555 1_555
H12A C18A 1_555 1_555
C19A C18A 1_555 1_555
C20A C19A 1_555 1_555
H13A C20A 1_555 1_555
C21A C16A 1_555 1_555
H14A C21A 1_555 1_555
C22A C19A 1_555 1_555
H15A C22A 1_555 1_555
H16A C22A 1_555 1_555
H17A C22A 1_555 1_555
N1A Cu1A 1_555 1_555
N2A Cu1A 1_555 1_555
N3A Cu1A 1_555 1_555
Cu1_2 O7 1_555 1_555
Cu1A_2 O7A 1_555 1_555
O7_2 Cu1 1_555 1_555
O7A_2 Cu1A 1_555 1_555
C5 N1 1_555 1_555
C6 N2 1_555 1_555
C10 N2 1_555 1_555
C11 N3 1_555 1_555
C15 N3 1_555 1_555
C20 C21 1_555 1_555
C23 O1 1_555 1_555
C28 C29 1_555 1_555
C30 O3 1_555 1_555
C34 O4 1_555 1_555
C38 C39 1_555 1_555
C43 O6 1_555 1_555
C47 C48 1_555 1_555
C28A C29A 1_555 1_555
C30A O3A 1_555 1_555
C31A C32A 1_555 1_555
C31A C41A 1_555 1_555
C34A O4A 1_555 1_555
C38A C39A 1_555 1_555
C43A O6A 1_555 1_555
C47A C48A 1_555 1_555
C1A N1A 1_555 1_555
C5A N1A 1_555 1_555
C6A N2A 1_555 1_555
C10A N2A 1_555 1_555
C11A N3A 1_555 1_555
C15A N3A 1_555 1_555
C20A C21A 1_555 1_555

#END
