
#######################################################################
#
#                 Cambridge Crystallographic Data Centre
#                                CCDC 
#
#######################################################################
#
# If this CIF has been generated from an entry in the Cambridge 
# Structural Database, then it will include bibliographic, chemical, 
# crystal, experimental, refinement or atomic coordinate data resulting 
# from the CCDC's data processing and validation procedures.
#
#######################################################################

data_FUFVUZ
_symmetry_cell_setting           monoclinic
_symmetry_space_group_name_H-M   'C 2/c'
_symmetry_Int_Tables_number      15
_space_group_name_Hall           '-C 2yn'
loop_
_symmetry_equiv_pos_site_id
_symmetry_equiv_pos_as_xyz
1 x,y,z
2 -x,y,1/2-z
3 1/2+x,1/2+y,z
4 1/2-x,1/2+y,1/2-z
5 -x,-y,-z
6 x,-y,1/2+z
7 1/2-x,1/2-y,-z
8 1/2+x,1/2-y,1/2+z
_cell_length_a                   23.964(2)
_cell_length_b                   8.7801(7)
_cell_length_c                   23.820(2)
_cell_angle_alpha                90
_cell_angle_beta                 103.0870(10)
_cell_angle_gamma                90
_cell_volume                     4881.71
loop_
_atom_site_label
_atom_site_type_symbol
_atom_site_fract_x
_atom_site_fract_y
_atom_site_fract_z
O9 O 0.5443(10) 0.092(3) 0.3320(10)
H17 H 0.5531 0.1857 0.3348
H18 H 0.5120 0.0859 0.3083
O10 O 0.3744(6) -0.0486(18) 0.2243(6)
H19 H 0.3883 -0.1242 0.2451
H20 H 0.3595 0.0142 0.2437
Eu1 Eu 0.22929(2) 0.49895(5) 0.47853(2)
Ag1 Ag 0.5000 0.4638(2) 0.2500
C1 C 0.3189(4) 0.5105(10) 0.4126(4)
C2 C 0.3596(4) 0.4960(10) 0.3730(4)
C3 C 0.3940(4) 0.3700(13) 0.3735(5)
H1 H 0.3926 0.2904 0.3989
C4 C 0.4303(5) 0.3622(14) 0.3365(5)
H2 H 0.4526 0.2751 0.3370
C5 C 0.4007(5) 0.5950(13) 0.2982(5)
H3 H 0.4023 0.6715 0.2716
C6 C 0.3640(4) 0.6108(12) 0.3336(4)
H4 H 0.3417 0.6981 0.3316
C7 C 0.2120(4) 0.2268(10) 0.3953(4)
C8 C 0.2074(4) 0.1032(11) 0.3516(4)
C9 C 0.2482(5) 0.0893(13) 0.3195(4)
H5 H 0.2750 0.1664 0.3204
C10 C 0.2496(6) -0.0382(17) 0.2860(5)
H6 H 0.2775 -0.0466 0.2647
C11 C 0.2106(6) -0.1520(14) 0.2838(5)
H7 H 0.2128 -0.2391 0.2622
C12 C 0.1675(5) -0.1379(12) 0.3138(4)
H8 H 0.1399 -0.2137 0.3110
C13 C 0.1655(4) -0.0100(10) 0.3481(4)
C14 C 0.1184(4) 0.0079(9) 0.3797(4)
C15 C 0.0808(5) 0.1299(11) 0.3680(4)
H9 H 0.0858 0.2020 0.3410
C16 C 0.0368(5) 0.1474(13) 0.3949(5)
H10 H 0.0123 0.2306 0.3866
C17 C 0.0294(5) 0.0405(15) 0.4342(6)
H11 H -0.0007 0.0517 0.4526
C18 C 0.0655(4) -0.0844(13) 0.4474(5)
H12 H 0.0595 -0.1563 0.4741
C19 C 0.1112(4) -0.1008(11) 0.4198(4)
C20 C 0.1530(4) -0.2257(10) 0.4374(4)
N1 N 0.4352(4) 0.4720(12) 0.3003(4)
O1 O 0.2835(3) 0.6163(7) 0.4056(3)
O2 O 0.1901(3) 0.5927(7) 0.5608(3)
H13 H 0.1823 0.6846 0.5508
H14 H 0.2205 0.5982 0.5873
O3 O 0.3221(3) 0.4134(8) 0.4522(3)
O4 O 0.1427(3) 0.3505(7) 0.4890(3)
H15 H 0.1221 0.3297 0.4559
H16 H 0.1228 0.4030 0.5072
O5 O 0.2018(3) 0.3624(7) 0.3802(3)
O6 O 0.2277(3) 0.1920(7) 0.4472(2)
O7 O 0.2028(3) -0.1919(7) 0.4634(3)
O8 O 0.1389(3) -0.3615(8) 0.4266(3)
Eu1A Eu 0.77071(2) 0.49895(5) 0.02147(2)
C1A C 0.6811(4) 0.5105(10) 0.0874(4)
C2A C 0.6404(4) 0.4960(10) 0.1270(4)
C3A C 0.6060(4) 0.3700(13) 0.1265(5)
H1A H 0.6074 0.2904 0.1011
C4A C 0.5697(5) 0.3622(14) 0.1635(5)
H2A H 0.5474 0.2751 0.1630
C5A C 0.5993(5) 0.5950(13) 0.2018(5)
H3A H 0.5977 0.6715 0.2284
C6A C 0.6360(4) 0.6108(12) 0.1664(4)
H4A H 0.6583 0.6981 0.1684
C7A C 0.7880(4) 0.2268(10) 0.1047(4)
C8A C 0.7926(4) 0.1032(11) 0.1484(4)
C9A C 0.7518(5) 0.0893(13) 0.1805(4)
H5A H 0.7250 0.1664 0.1796
C10A C 0.7504(6) -0.0382(17) 0.2140(5)
H6A H 0.7225 -0.0466 0.2353
C11A C 0.7894(6) -0.1520(14) 0.2162(5)
H7A H 0.7872 -0.2391 0.2378
C12A C 0.8325(5) -0.1379(12) 0.1862(4)
H8A H 0.8601 -0.2137 0.1890
C13A C 0.8345(4) -0.0100(10) 0.1519(4)
C14A C 0.8816(4) 0.0079(9) 0.1203(4)
C15A C 0.9192(5) 0.1299(11) 0.1320(4)
H9A H 0.9142 0.2020 0.1590
C16A C 0.9632(5) 0.1474(13) 0.1051(5)
H10A H 0.9877 0.2306 0.1134
C17A C 0.9706(5) 0.0405(15) 0.0658(6)
H11A H 1.0007 0.0517 0.0474
C18A C 0.9345(4) -0.0844(13) 0.0526(5)
H12A H 0.9405 -0.1563 0.0259
C19A C 0.8888(4) -0.1008(11) 0.0802(4)
C20A C 0.8470(4) -0.2257(10) 0.0626(4)
N1A N 0.5648(4) 0.4720(12) 0.1997(4)
O1A O 0.7165(3) 0.6163(7) 0.0944(3)
O2A O 0.8099(3) 0.5927(7) -0.0608(3)
H13A H 0.8177 0.6846 -0.0508
H14A H 0.7795 0.5982 -0.0873
O3A O 0.6779(3) 0.4134(8) 0.0478(3)
O4A O 0.8573(3) 0.3505(7) 0.0110(3)
H15A H 0.8779 0.3297 0.0441
H16A H 0.8772 0.4030 -0.0072
O5A O 0.7982(3) 0.3624(7) 0.1198(3)
O6A O 0.7723(3) 0.1920(7) 0.0528(2)
O7A O 0.7972(3) -0.1919(7) 0.0366(3)
O8A O 0.8611(3) -0.3615(8) 0.0734(3)
Eu1_2 Eu 0.22929(2) -0.50105(5) 0.47853(2)
Eu1A_2 Eu 0.77071(2) -0.50105(5) 0.02147(2)
Eu1F Eu 0.27071(2) 0.00105(5) 0.52147(2)
Eu1G Eu 0.72929(2) 0.00105(5) -0.02147(2)
O6F O 0.2723(3) 0.3080(7) 0.5528(2)
O6G O 0.7277(3) 0.3080(7) -0.0528(2)
O7_2 O 0.2028(3) 0.8081(7) 0.4634(3)
O7A_2 O 0.7972(3) 0.8081(7) 0.0366(3)
O7F O 0.2972(3) 0.6919(7) 0.5366(3)
O7G O 0.7028(3) 0.6919(7) -0.0366(3)
O8_2 O 0.1389(3) 0.6385(8) 0.4266(3)
O8A_2 O 0.8611(3) 0.6385(8) 0.0734(3)
N2? N -0.0088(8) -0.5273(19) 0.4850(8)
O11? O 0.0241(11) -0.505(3) 0.4497(12)
O12? O 0.0156(13) -0.516(4) 0.5312(9)
O13? O -0.0564(9) -0.556(4) 0.4593(13)
loop_
_geom_bond_atom_site_label_1
_geom_bond_atom_site_label_2
_geom_bond_site_symmetry_1
_geom_bond_site_symmetry_2
Eu1 O1 1_555 1_555
Ag1 N1 1_555 1_555
C1 C2 1_555 1_555
C2 C3 1_555 1_555
C3 H1 1_555 1_555
C4 C3 1_555 1_555
H2 C4 1_555 1_555
C5 H3 1_555 1_555
C6 C2 1_555 1_555
H4 C6 1_555 1_555
C7 C8 1_555 1_555
C8 C9 1_555 1_555
C9 H5 1_555 1_555
C10 C9 1_555 1_555
H6 C10 1_555 1_555
C11 C10 1_555 1_555
H7 C11 1_555 1_555
C12 C11 1_555 1_555
H8 C12 1_555 1_555
C13 C8 1_555 1_555
C14 C13 1_555 1_555
C15 C14 1_555 1_555
H9 C15 1_555 1_555
C16 C15 1_555 1_555
H10 C16 1_555 1_555
C17 C16 1_555 1_555
H11 C17 1_555 1_555
C18 C17 1_555 1_555
H12 C18 1_555 1_555
C19 C14 1_555 1_555
C20 C19 1_555 1_555
N1 C4 1_555 1_555
O1 C1 1_555 1_555
O2 Eu1 1_555 1_555
H13 O2 1_555 1_555
H14 O2 1_555 1_555
O3 Eu1 1_555 1_555
O4 Eu1 1_555 1_555
H15 O4 1_555 1_555
H16 O4 1_555 1_555
O5 Eu1 1_555 1_555
O6 Eu1 1_555 1_555
O7 C20 1_555 1_555
O8 C20 1_555 1_555
O9 H17 1_555 1_555
H18 O9 1_555 1_555
O10 H19 1_555 1_555
H20 O10 1_555 1_555
Eu1A O1A 1_555 1_555
C1A C2A 1_555 1_555
C2A C3A 1_555 1_555
C3A H1A 1_555 1_555
C4A C3A 1_555 1_555
H2A C4A 1_555 1_555
C5A H3A 1_555 1_555
C6A C2A 1_555 1_555
H4A C6A 1_555 1_555
C7A C8A 1_555 1_555
C8A C9A 1_555 1_555
C9A H5A 1_555 1_555
C10A C9A 1_555 1_555
H6A C10A 1_555 1_555
C11A C10A 1_555 1_555
H7A C11A 1_555 1_555
C12A C11A 1_555 1_555
H8A C12A 1_555 1_555
C13A C8A 1_555 1_555
C14A C13A 1_555 1_555
C15A C14A 1_555 1_555
H9A C15A 1_555 1_555
C16A C15A 1_555 1_555
H10A C16A 1_555 1_555
C17A C16A 1_555 1_555
H11A C17A 1_555 1_555
C18A C17A 1_555 1_555
H12A C18A 1_555 1_555
C19A C14A 1_555 1_555
C20A C19A 1_555 1_555
N1A Ag1 1_555 1_555
O1A C1A 1_555 1_555
O2A Eu1A 1_555 1_555
H13A O2A 1_555 1_555
H14A O2A 1_555 1_555
O3A Eu1A 1_555 1_555
O4A Eu1A 1_555 1_555
H15A O4A 1_555 1_555
H16A O4A 1_555 1_555
O5A Eu1A 1_555 1_555
O6A Eu1A 1_555 1_555
O7A C20A 1_555 1_555
O8A C20A 1_555 1_555
Eu1_2 O7 1_555 1_555
Eu1A_2 O7A 1_555 1_555
Eu1F O6 1_555 1_555
Eu1G O6A 1_555 1_555
O6F Eu1 1_555 1_555
O6G Eu1A 1_555 1_555
O7_2 Eu1 1_555 1_555
O7A_2 Eu1A 1_555 1_555
O7F Eu1 1_555 1_555
O7G Eu1A 1_555 1_555
O8_2 Eu1 1_555 1_555
O8A_2 Eu1A 1_555 1_555
C1 O3 1_555 1_555
C5 C6 1_555 1_555
C5 N1 1_555 1_555
C7 O5 1_555 1_555
C7 O6 1_555 1_555
C12 C13 1_555 1_555
C18 C19 1_555 1_555
O7 Eu1F 1_555 1_555
O8 Eu1_2 1_555 1_555
C1A O3A 1_555 1_555
C4A N1A 1_555 1_555
C5A C6A 1_555 1_555
C5A N1A 1_555 1_555
C7A O5A 1_555 1_555
C7A O6A 1_555 1_555
C12A C13A 1_555 1_555
C18A C19A 1_555 1_555
O7A Eu1G 1_555 1_555
O8A Eu1A_2 1_555 1_555
Eu1F O6F 1_555 1_555
Eu1G O6G 1_555 1_555

#END
