
#######################################################################
#
#                 Cambridge Crystallographic Data Centre
#                                CCDC 
#
#######################################################################
#
# If this CIF has been generated from an entry in the Cambridge 
# Structural Database, then it will include bibliographic, chemical, 
# crystal, experimental, refinement or atomic coordinate data resulting 
# from the CCDC's data processing and validation procedures.
#
#######################################################################

data_FUFWEJ
_symmetry_cell_setting           orthorhombic
_symmetry_space_group_name_H-M   'P n a 21'
_symmetry_Int_Tables_number      33
_space_group_name_Hall           'P 2c -2n'
loop_
_symmetry_equiv_pos_site_id
_symmetry_equiv_pos_as_xyz
1 x,y,z
2 -x,-y,1/2+z
3 1/2-x,1/2+y,1/2+z
4 1/2+x,1/2-y,z
_cell_length_a                   13.459(3)
_cell_length_b                   16.442(4)
_cell_length_c                   18.273(4)
_cell_angle_alpha                90
_cell_angle_beta                 90
_cell_angle_gamma                90
_cell_volume                     4043.68
loop_
_atom_site_label
_atom_site_type_symbol
_atom_site_fract_x
_atom_site_fract_y
_atom_site_fract_z
Mn1 Mn 0.61734(4) 0.58534(4) 0.57898(3)
Mn2 Mn 0.61040(5) 0.09293(4) 0.40130(3)
O1 O 0.6408(3) 0.1562(3) 0.8428(2)
O2 O 0.6393(3) 0.2834(3) 0.8679(2)
O3 O 0.6495(3) 0.06537(17) 0.5846(2)
O4 O 0.6120(2) 0.1587(2) 0.5006(2)
O5 O 0.6165(2) 0.4461(2) 0.55955(19)
O6 O 0.5966(3) 0.4875(2) 0.6730(2)
O7 O 0.6279(2) 0.6523(2) 0.4788(2)
O8 O 0.5942(3) 0.5652(2) 0.3896(2)
O9 O 0.6305(3) 0.6695(2) 0.1389(2)
O10 O 0.6357(3) 0.7978(3) 0.1189(2)
O11 O 0.6003(2) 0.9468(2) 0.4341(2)
O12 O 0.6107(2) 0.9918(2) 0.3204(2)
N1 N 0.6369(3) 0.2262(3) 0.8252(3)
N2 N 0.6244(3) 0.6861(2) 0.6576(2)
N3 N 0.6434(4) 0.8083(3) 0.7044(3)
H1 H 0.6496 0.8602 0.7073
N4 N 0.4526(3) 0.58861(19) 0.5637(2)
N5 N 0.3079(4) 0.6240(4) 0.5154(3)
H2 H 0.2622 0.6507 0.4929
N6 N 0.7824(3) 0.5718(2) 0.5777(2)
N7 N 0.9364(4) 0.5638(3) 0.5399(3)
H3 H 0.9884 0.5706 0.5133
N8 N 0.7770(3) 0.0865(2) 0.4085(3)
N9 N 0.9296(3) 0.0435(3) 0.4145(3)
H4 H 0.9808 0.0130 0.4077
N10 N 0.4452(3) 0.09010(19) 0.4093(2)
N11 N 0.2957(4) 0.0918(3) 0.4553(3)
H5 H 0.2471 0.1025 0.4843
N12 N 0.6134(3) 0.1944(3) 0.3245(3)
N13 N 0.6125(3) 0.3149(3) 0.2764(4)
H6 H 0.6117 0.3671 0.2735
N14 N 0.6294(3) 0.7405(3) 0.1598(2)
C1 C 0.6157(3) 0.3459(3) 0.6526(3)
C2 C 0.6174(3) 0.2825(3) 0.6016(3)
H7 H 0.6130 0.2948 0.5521
C3 C 0.6255(3) 0.2024(2) 0.6227(3)
C4 C 0.6318(3) 0.1836(3) 0.6971(3)
H8 H 0.6376 0.1300 0.7126
C5 C 0.6293(3) 0.2463(3) 0.7468(3)
C6 C 0.6205(3) 0.3272(3) 0.7256(3)
H9 H 0.6179 0.3682 0.7606
C7 C 0.6091(3) 0.4323(3) 0.6265(3)
C8 C 0.6290(3) 0.1362(3) 0.5660(3)
C9 C 0.6136(3) 0.7048(3) 0.3610(3)
C10 C 0.6206(3) 0.6894(3) 0.2857(3)
H10 H 0.6240 0.6367 0.2676
C11 C 0.6223(3) 0.7561(3) 0.2394(3)
C12 C 0.6175(3) 0.8357(3) 0.2635(3)
H11 H 0.6192 0.8789 0.2307
C13 C 0.6100(3) 0.8487(3) 0.3376(3)
C14 C 0.6087(3) 0.7836(3) 0.3854(3)
H12 H 0.6043 0.7934 0.4354
C15 C 0.6116(3) 0.6346(3) 0.4142(3)
C16 C 0.6058(3) 0.9346(3) 0.3666(3)
C17 C 0.6359(4) 0.7642(3) 0.6429(4)
H13 H 0.6385 0.7858 0.5959
C18 C 0.6392(3) 0.7553(3) 0.7608(4)
H14 H 0.6434 0.7678 0.8104
C19 C 0.6278(4) 0.6814(3) 0.7315(3)
H15 H 0.6229 0.6334 0.7581
C20 C 0.4038(4) 0.6495(3) 0.5265(3)
H16 H 0.4308 0.6989 0.5117
C21 C 0.2978(3) 0.5505(2) 0.5455(2)
H17 H 0.2405 0.5190 0.5466
C22 C 0.3847(3) 0.5315(3) 0.5733(3)
H18 H 0.3972 0.4827 0.5973
C23 C 0.8376(4) 0.5275(3) 0.6258(3)
H19 H 0.8127 0.5036 0.6682
C24 C 0.9321(4) 0.5230(3) 0.6040(4)
H20 H 0.9842 0.4971 0.6280
C25 C 0.8464(4) 0.5914(3) 0.5256(3)
H21 H 0.8300 0.6211 0.4839
C26 C 0.8329(4) 0.1398(3) 0.4465(3)
H22 H 0.8093 0.1878 0.4670
C27 C 0.9289(4) 0.1135(3) 0.4507(3)
H23 H 0.9820 0.1389 0.4739
C28 C 0.8382(4) 0.0282(3) 0.3905(3)
H24 H 0.8202 -0.0179 0.3643
C29 C 0.3891(4) 0.1198(3) 0.4618(3)
H25 H 0.4109 0.1551 0.4982
C30 C 0.2913(4) 0.0450(3) 0.3967(3)
H26 H 0.2362 0.0175 0.3786
C31 C 0.3815(4) 0.0457(3) 0.3692(3)
H27 H 0.3994 0.0184 0.3267
C32 C 0.6144(4) 0.2718(3) 0.3371(4)
H28 H 0.6163 0.2945 0.3837
C33 C 0.6120(4) 0.2625(4) 0.2196(4)
H29 H 0.6111 0.2752 0.1700
C34 C 0.6132(4) 0.1880(4) 0.2498(3)
H30 H 0.6138 0.1393 0.2239
Mn2_2 Mn 0.61040(5) 1.09293(4) 0.40130(3)
O11_2 O 0.6003(2) -0.0532(2) 0.4341(2)
O12_2 O 0.6107(2) -0.0082(2) 0.3204(2)
O13 O 0.5833(3) 0.48519(19) 0.25606(18)
H31 H 0.5549 0.5051 0.2935
H32 H 0.5519 0.5014 0.2185
O14 O 0.7059(3) 0.9771(2) 0.7065(2)
H33 H 0.7633 0.9951 0.7172
H34 H 0.6882 0.9993 0.6665
loop_
_geom_bond_atom_site_label_1
_geom_bond_atom_site_label_2
_geom_bond_site_symmetry_1
_geom_bond_site_symmetry_2
Mn1 O5 1_555 1_555
Mn2 O4 1_555 1_555
O1 N1 1_555 1_555
O2 N1 1_555 1_555
O3 C8 1_555 1_555
O4 C8 1_555 1_555
O5 C7 1_555 1_555
O6 Mn1 1_555 1_555
O7 Mn1 1_555 1_555
O8 C15 1_555 1_555
O9 N14 1_555 1_555
O10 N14 1_555 1_555
O11 C16 1_555 1_555
O12 C16 1_555 1_555
N1 C5 1_555 1_555
N2 Mn1 1_555 1_555
N3 H1 1_555 1_555
N4 Mn1 1_555 1_555
N5 H2 1_555 1_555
N6 Mn1 1_555 1_555
N7 H3 1_555 1_555
N8 Mn2 1_555 1_555
N9 H4 1_555 1_555
N10 Mn2 1_555 1_555
N11 H5 1_555 1_555
N12 Mn2 1_555 1_555
N13 H6 1_555 1_555
N14 C11 1_555 1_555
C1 C2 1_555 1_555
C2 H7 1_555 1_555
C3 C2 1_555 1_555
C4 C3 1_555 1_555
H8 C4 1_555 1_555
C5 C4 1_555 1_555
C6 C1 1_555 1_555
H9 C6 1_555 1_555
C7 O6 1_555 1_555
C8 C3 1_555 1_555
C9 C10 1_555 1_555
C10 H10 1_555 1_555
C11 C10 1_555 1_555
C12 C11 1_555 1_555
H11 C12 1_555 1_555
C13 C12 1_555 1_555
C14 C9 1_555 1_555
H12 C14 1_555 1_555
C15 O7 1_555 1_555
C16 C13 1_555 1_555
C17 N2 1_555 1_555
H13 C17 1_555 1_555
C18 N3 1_555 1_555
H14 C18 1_555 1_555
C19 N2 1_555 1_555
H15 C19 1_555 1_555
C20 N4 1_555 1_555
H16 C20 1_555 1_555
C21 N5 1_555 1_555
H17 C21 1_555 1_555
C22 N4 1_555 1_555
H18 C22 1_555 1_555
C23 N6 1_555 1_555
H19 C23 1_555 1_555
C24 N7 1_555 1_555
H20 C24 1_555 1_555
C25 N6 1_555 1_555
H21 C25 1_555 1_555
C26 N8 1_555 1_555
H22 C26 1_555 1_555
C27 N9 1_555 1_555
H23 C27 1_555 1_555
C28 N8 1_555 1_555
H24 C28 1_555 1_555
C29 N10 1_555 1_555
H25 C29 1_555 1_555
C30 N11 1_555 1_555
H26 C30 1_555 1_555
C31 N10 1_555 1_555
H27 C31 1_555 1_555
C32 N12 1_555 1_555
H28 C32 1_555 1_555
C33 N13 1_555 1_555
H29 C33 1_555 1_555
C34 N12 1_555 1_555
H30 C34 1_555 1_555
O13 H31 1_555 1_555
H32 O13 1_555 1_555
O14 H33 1_555 1_555
H34 O14 1_555 1_555
Mn2_2 O11 1_555 1_555
O11_2 Mn2 1_555 1_555
O12_2 Mn2 1_555 1_555
O12 Mn2_2 1_555 1_555
N3 C17 1_555 1_555
N5 C20 1_555 1_555
N7 C25 1_555 1_555
N9 C28 1_555 1_555
N11 C29 1_555 1_555
N13 C32 1_555 1_555
C1 C7 1_555 1_555
C5 C6 1_555 1_555
C9 C15 1_555 1_555
C13 C14 1_555 1_555
C18 C19 1_555 1_555
C21 C22 1_555 1_555
C23 C24 1_555 1_555
C26 C27 1_555 1_555
C30 C31 1_555 1_555
C33 C34 1_555 1_555

#END
