
#######################################################################
#
#                 Cambridge Crystallographic Data Centre
#                                CCDC 
#
#######################################################################
#
# If this CIF has been generated from an entry in the Cambridge 
# Structural Database, then it will include bibliographic, chemical, 
# crystal, experimental, refinement or atomic coordinate data resulting 
# from the CCDC's data processing and validation procedures.
#
#######################################################################

data_FUFWAE
_symmetry_cell_setting           monoclinic
_symmetry_space_group_name_H-M   'P 21/a'
_symmetry_Int_Tables_number      14
_space_group_name_Hall           '-P 2yab'
loop_
_symmetry_equiv_pos_site_id
_symmetry_equiv_pos_as_xyz
1 x,y,z
2 1/2-x,1/2+y,-z
3 -x,-y,-z
4 1/2+x,1/2-y,z
_cell_length_a                   7.444(5)
_cell_length_b                   6.629(5)
_cell_length_c                   17.175(9)
_cell_angle_alpha                90
_cell_angle_beta                 95.24(5)
_cell_angle_gamma                90
_cell_volume                     843.98
loop_
_atom_site_label
_atom_site_type_symbol
_atom_site_fract_x
_atom_site_fract_y
_atom_site_fract_z
Mn1 Mn 0.5000 0.5000 0.0000
O1 O 0.5242(2) 0.2081(2) 0.0609(1)
O2 O 0.7562(2) 0.5885(2) 0.0621(1)
O3 O 0.6171(3) 0.6026(3) 0.4202(1)
O4 O 0.3391(2) 0.5953(2) 0.0916(1)
C1 C 0.7062(4) 0.5109(3) 0.2202(2)
C2 C 0.6687(4) 0.4828(3) 0.2967(2)
C3 C 0.6579(3) 0.6477(4) 0.3462(1)
C4 C 0.6849(3) 0.8411(3) 0.3187(2)
C5 C 0.7264(3) 0.8670(3) 0.2426(1)
C6 C 0.7370(2) 0.7042(3) 0.1922(1)
C7 C 0.5947(4) 0.7672(5) 0.4715(2)
C8 C 0.7797(2) 0.7349(3) 0.1107(1)
H1 H 0.436 0.137 0.068
H2 H 0.609 0.137 0.054
H3 H 0.712 0.398 0.183
H4 H 0.644 0.343 0.324
H5 H 0.679 0.952 0.356
H6 H 0.753 1.002 0.223
H7 H 0.705 0.836 0.483
H8 H 0.494 0.844 0.452
H9 H 0.547 0.708 0.517
O1B O 0.4758(2) 0.7919(2) -0.0609(1)
O2B O 0.2438(2) 0.4115(2) -0.0621(1)
O4B O 0.6609(2) 0.4047(2) -0.0916(1)
C8C C 0.2797(2) 0.7651(3) 0.1107(1)
O4C O 0.8391(2) 0.9047(2) 0.0916(1)
H1B H 0.564 0.863 -0.068
H2B H 0.391 0.863 -0.054
C8B C 0.2203(2) 0.2651(3) -0.1107(1)
C8A C 0.7203(2) 0.2349(3) -0.1107(1)
O2C O 0.2562(2) 0.9115(2) 0.0621(1)
C6C C 0.2370(2) 0.7958(3) 0.1922(1)
Mn1A Mn 1.0000 1.0000 0.0000
O4A O 0.1609(2) 0.0953(2) -0.0916(1)
C6B C 0.2630(2) 0.2958(3) -0.1922(1)
O2A O 0.7438(2) 0.0885(2) -0.0621(1)
C6A C 0.7630(2) 0.2042(3) -0.1922(1)
Mn1A_2 Mn 0.0000 1.0000 0.0000
C1C C 0.2062(4) 0.9891(3) 0.2202(2)
C5C C 0.2264(3) 0.6330(3) 0.2426(1)
O1A O 0.9758(2) 0.7081(2) -0.0609(1)
O1C O 1.0242(2) 1.2919(2) 0.0609(1)
O2A_2 O 0.7438(2) 1.0885(2) -0.0621(1)
O2C_2 O 1.2562(2) 0.9115(2) 0.0621(1)
O4A_2 O 1.1609(2) 1.0953(2) -0.0916(1)
Mn1A_3 Mn 0.0000 0.0000 0.0000
C1B C 0.2938(4) 0.4891(3) -0.2202(2)
C5B C 0.2736(3) 0.1330(3) -0.2426(1)
Mn1A_4 Mn 1.0000 0.0000 0.0000
C1A C 0.7938(4) 0.0109(3) -0.2202(2)
C5A C 0.7736(3) 0.3670(3) -0.2426(1)
C2C C 0.1687(4) 1.0172(3) 0.2967(2)
H3C H 0.212 1.102 0.183
C4C C 0.1849(3) 0.6589(3) 0.3187(2)
H6C H 0.253 0.498 0.223
H1A H 1.064 0.637 -0.068
H2A H 0.891 0.637 -0.054
H1C H 0.936 1.363 0.068
H2C H 1.109 1.363 0.054
C2B C 0.3313(4) 0.5172(3) -0.2967(2)
H3B H 0.288 0.602 -0.183
C4B C 0.3151(3) 0.1589(3) -0.3187(2)
H6B H 0.247 -0.002 -0.223
C2A C 0.8313(4) -0.0172(3) -0.2967(2)
H3A H 0.788 -0.102 -0.183
C4A C 0.8151(3) 0.3411(3) -0.3187(2)
H6A H 0.747 0.502 -0.223
C3C C 0.1579(3) 0.8523(4) 0.3462(1)
H4C H 0.144 1.157 0.324
H5C H 0.179 0.548 0.356
C3B C 0.3421(3) 0.3523(4) -0.3462(1)
H4B H 0.356 0.657 -0.324
H5B H 0.321 0.048 -0.356
C3A C 0.8421(3) 0.1477(4) -0.3462(1)
H4A H 0.856 -0.157 -0.324
H5A H 0.821 0.452 -0.356
O3C O 0.1171(3) 0.8974(3) 0.4202(1)
O3B O 0.3829(3) 0.3974(3) -0.4202(1)
O3A O 0.8829(3) 0.1026(3) -0.4202(1)
C7C C 0.0947(4) 0.7328(5) 0.4715(2)
C7B C 0.4053(4) 0.2328(5) -0.4715(2)
C7A C 0.9053(4) 0.2672(5) -0.4715(2)
H7C H 0.205 0.664 0.483
H8C H -0.006 0.656 0.452
H9C H 0.047 0.792 0.517
H7B H 0.295 0.164 -0.483
H8B H 0.506 0.156 -0.452
H9B H 0.453 0.292 -0.517
H7A H 0.795 0.336 -0.483
H8A H 1.006 0.344 -0.452
H9A H 0.953 0.208 -0.517
loop_
_geom_bond_atom_site_label_1
_geom_bond_atom_site_label_2
_geom_bond_site_symmetry_1
_geom_bond_site_symmetry_2
Mn1 O1 1_555 1_555
O1 H1 1_555 1_555
O2 Mn1 1_555 1_555
O3 C3 1_555 1_555
O4 Mn1 1_555 1_555
C1 C2 1_555 1_555
C2 C3 1_555 1_555
C3 C4 1_555 1_555
C4 C5 1_555 1_555
C5 C6 1_555 1_555
C6 C1 1_555 1_555
C7 O3 1_555 1_555
C8 O2 1_555 1_555
H2 O1 1_555 1_555
H3 C1 1_555 1_555
H4 C2 1_555 1_555
H5 C4 1_555 1_555
H6 C5 1_555 1_555
H7 C7 1_555 1_555
H8 C7 1_555 1_555
H9 C7 1_555 1_555
O1B Mn1 1_555 1_555
O2B Mn1 1_555 1_555
O4B Mn1 1_555 1_555
C8C O4 1_555 1_555
O4C C8 1_555 1_555
H1B O1B 1_555 1_555
H2B O1B 1_555 1_555
C8B O2B 1_555 1_555
C8A O4B 1_555 1_555
O2C C8C 1_555 1_555
C6C C8C 1_555 1_555
Mn1A O4C 1_555 1_555
O4A C8B 1_555 1_555
C6B C8B 1_555 1_555
O2A C8A 1_555 1_555
C6A C8A 1_555 1_555
Mn1A_2 O2C 1_555 1_555
C1C C6C 1_555 1_555
C5C C6C 1_555 1_555
O1A Mn1A 1_555 1_555
O1C Mn1A 1_555 1_555
O2A_2 Mn1A 1_555 1_555
O2C_2 Mn1A 1_555 1_555
O4A_2 Mn1A 1_555 1_555
Mn1A_3 O4A 1_555 1_555
C1B C6B 1_555 1_555
C5B C6B 1_555 1_555
Mn1A_4 O2A 1_555 1_555
C1A C6A 1_555 1_555
C5A C6A 1_555 1_555
C2C C1C 1_555 1_555
H3C C1C 1_555 1_555
C4C C5C 1_555 1_555
H6C C5C 1_555 1_555
H1A O1A 1_555 1_555
H2A O1A 1_555 1_555
H1C O1C 1_555 1_555
H2C O1C 1_555 1_555
C2B C1B 1_555 1_555
H3B C1B 1_555 1_555
C4B C5B 1_555 1_555
H6B C5B 1_555 1_555
C2A C1A 1_555 1_555
H3A C1A 1_555 1_555
C4A C5A 1_555 1_555
H6A C5A 1_555 1_555
C3C C2C 1_555 1_555
H4C C2C 1_555 1_555
H5C C4C 1_555 1_555
C3B C2B 1_555 1_555
H4B C2B 1_555 1_555
H5B C4B 1_555 1_555
C3A C2A 1_555 1_555
H4A C2A 1_555 1_555
H5A C4A 1_555 1_555
O3C C3C 1_555 1_555
O3B C3B 1_555 1_555
O3A C3A 1_555 1_555
C7C O3C 1_555 1_555
C7B O3B 1_555 1_555
C7A O3A 1_555 1_555
H7C C7C 1_555 1_555
H8C C7C 1_555 1_555
H9C C7C 1_555 1_555
H7B C7B 1_555 1_555
H8B C7B 1_555 1_555
H9B C7B 1_555 1_555
H7A C7A 1_555 1_555
H8A C7A 1_555 1_555
H9A C7A 1_555 1_555
C6 C8 1_555 1_555
C4C C3C 1_555 1_555
C4B C3B 1_555 1_555
C4A C3A 1_555 1_555

#END
