
#######################################################################
#
#                 Cambridge Crystallographic Data Centre
#                                CCDC 
#
#######################################################################
#
# If this CIF has been generated from an entry in the Cambridge 
# Structural Database, then it will include bibliographic, chemical, 
# crystal, experimental, refinement or atomic coordinate data resulting 
# from the CCDC's data processing and validation procedures.
#
#######################################################################

data_FUFWOU
_symmetry_cell_setting           triclinic
_symmetry_space_group_name_H-M   'P -1'
_symmetry_Int_Tables_number      2
_space_group_name_Hall           '-P 1'
loop_
_symmetry_equiv_pos_site_id
_symmetry_equiv_pos_as_xyz
1 x,y,z
2 -x,-y,-z
_cell_length_a                   8.8785(9)
_cell_length_b                   10.0812(10)
_cell_length_c                   13.9267(14)
_cell_angle_alpha                97.7380(10)
_cell_angle_beta                 107.7370(10)
_cell_angle_gamma                90.5010(10)
_cell_volume                     1174.82
loop_
_atom_site_label
_atom_site_type_symbol
_atom_site_fract_x
_atom_site_fract_y
_atom_site_fract_z
Yb1 Yb 0.27289(4) 0.47802(4) 0.46164(3)
O1 O 0.3474(7) 0.6004(6) 0.3503(5)
O2 O 0.0394(7) 0.5335(7) 0.3410(5)
O3 O 0.2874(7) 0.3037(7) 0.3251(5)
O4 O 0.5116(7) 0.3684(6) 0.4404(4)
O5 O 0.3884(7) 0.3900(7) 0.6072(5)
O6 O 0.1390(7) 0.5873(6) 0.5633(5)
O7 O 0.0881(7) 0.3100(6) 0.4600(5)
C1 C 0.4768(10) 0.6365(9) 0.3400(7)
H1 H -0.0408 0.4831 0.3357
H2 H 0.0379 0.6111 0.3733
C2 C 0.5646(10) 0.6865(8) 0.6477(7)
C3 C 0.0538(10) 0.6890(8) 0.5456(6)
C4 C 0.4755(11) 0.7208(9) 0.2587(7)
C5 C 0.4778(10) 0.7274(10) 0.7230(7)
C6 C 0.1375(10) 0.8101(9) 0.5304(7)
C7 C 0.3426(12) 0.7869(11) 0.2108(8)
C8 C 0.6090(12) 0.7394(11) 0.2330(8)
C9 C 0.5300(14) 0.6733(12) 0.8150(8)
C10 C 0.3400(10) 0.7981(9) 0.6994(7)
C11 C 0.2821(11) 0.8572(9) 0.6021(8)
C12 C 0.0775(12) 0.8703(10) 0.4438(9)
H3 H 0.2489 0.7773 0.2266
C13 C 0.3517(14) 0.8657(12) 0.1407(9)
C14 C 0.6083(15) 0.8207(12) 0.1613(9)
H4 H 0.7004 0.6973 0.2637
H5 H 0.6233 0.6281 0.8313
C15 C 0.4378(16) 0.6891(14) 0.8815(9)
C16 C 0.2559(13) 0.8119(12) 0.7688(8)
C17 C 0.3626(13) 0.9648(10) 0.5852(9)
C18 C 0.1600(14) 0.9772(11) 0.4278(10)
H6 H -0.0188 0.8385 0.3963
H7 H 0.2619 0.9091 0.1091
N1 N 0.4815(12) 0.8841(9) 0.1150(7)
H8 H 0.7006 0.8321 0.1443
H9 H 0.4696 0.6538 0.9425
C19 C 0.3031(16) 0.7556(14) 0.8567(9)
H10 H 0.1652 0.8606 0.7554
H11 H 0.4586 0.9970 0.6328
C20 C 0.3049(14) 1.0253(10) 0.5002(11)
H12 H 0.1201 1.0172 0.3694
Ag1 Ag 0.5000 1.0000 0.0000
H13 H 0.2412 0.7633 0.9002
H14 H 0.3611 1.0979 0.4904
O4A O 0.4884(7) 0.6316(6) 0.5596(4)
Yb1A Yb 0.72711(4) 0.52198(4) 0.53836(3)
C3A C -0.0538(10) 0.3110(8) 0.4544(6)
O5A O 0.6116(7) 0.6100(7) 0.3928(5)
O3A O 0.7126(7) 0.6963(7) 0.6749(5)
O7A O -0.0881(7) 0.6900(6) 0.5400(5)
C6A C -0.1375(10) 0.1899(9) 0.4696(7)
O6A O -0.1390(7) 0.4127(6) 0.4367(5)
Yb1A_2 Yb -0.27289(4) 0.52198(4) 0.53836(3)
C11A C -0.2821(11) 0.1428(9) 0.3979(8)
C12A C -0.0775(12) 0.1297(10) 0.5562(9)
O4A_2 O -0.5116(7) 0.6316(6) 0.5596(4)
O5A_2 O -0.3884(7) 0.6100(7) 0.3928(5)
O4_2 O -0.4884(7) 0.3684(6) 0.4404(4)
O1A O -0.3474(7) 0.3996(6) 0.6497(5)
O2A O -0.0394(7) 0.4665(7) 0.6590(5)
O3A_2 O -0.2874(7) 0.6963(7) 0.6749(5)
C10A C -0.3400(10) 0.2019(9) 0.3006(7)
C17A C -0.3626(13) 0.0352(10) 0.4148(9)
C18A C -0.1600(14) 0.0228(11) 0.5722(10)
H6A H 0.0188 0.1615 0.6037
Yb1_2 Yb -0.72711(4) 0.47802(4) 0.46164(3)
C2A C -0.5646(10) 0.3135(8) 0.3523(7)
C1A C -0.4768(10) 0.3635(9) 0.6600(7)
H1A H 0.0408 0.5169 0.6643
H2A H -0.0379 0.3889 0.6267
C5A C -0.4778(10) 0.2726(10) 0.2770(7)
C16A C -0.2559(13) 0.1881(12) 0.2312(8)
H11A H -0.4586 0.0030 0.3672
C20A C -0.3049(14) -0.0253(10) 0.4998(11)
H12A H -0.1201 -0.0172 0.6306
O5_2 O -0.6116(7) 0.3900(7) 0.6072(5)
O3_2 O -0.7126(7) 0.3037(7) 0.3251(5)
C4A C -0.4755(11) 0.2792(9) 0.7413(7)
C9A C -0.5300(14) 0.3267(12) 0.1850(8)
C19A C -0.3031(16) 0.2444(14) 0.1433(9)
H10A H -0.1652 0.1394 0.2446
H14A H -0.3611 -0.0979 0.5096
N1A N 0.5185(12) 1.1159(9) -0.1150(7)
C7A C -0.3426(12) 0.2131(11) 0.7892(8)
C8A C -0.6090(12) 0.2606(11) 0.7670(8)
H5A H -0.6233 0.3719 0.1687
C15A C -0.4378(16) 0.3109(14) 0.1185(9)
H13A H -0.2412 0.2367 0.0998
H3A H -0.2489 0.2227 0.7734
C13A C -0.3517(14) 0.1343(12) 0.8593(9)
C14A C -0.6083(15) 0.1793(12) 0.8387(9)
H4A H -0.7004 0.3027 0.7363
H9A H -0.4696 0.3462 0.0575
H7A H -0.2619 0.0909 0.8909
N1A_2 N -0.4815(12) 0.1159(9) 0.8850(7)
H8A H -0.7006 0.1679 0.8557
Ag1_2 Ag -0.5000 0.0000 1.0000
O8 O 0.9190(15) 0.8225(13) 0.8690(10)
H15 H 0.8362 0.8092 0.8176
H16 H 0.9992 0.8535 0.8565
O9 O 0.126(2) 0.0677(19) 0.9403(14)
H17 H 0.0981 0.1240 0.8987
H18 H 0.2218 0.0504 0.9475
N2 N 0.9400(18) 0.5663(19) 0.0607(13)
O10 O 0.875(3) 0.471(2) 0.0298(16)
O11 O 0.946(2) 0.6263(19) 0.1480(12)
O12 O 1.007(3) 0.617(2) 0.0095(15)
loop_
_geom_bond_atom_site_label_1
_geom_bond_atom_site_label_2
_geom_bond_site_symmetry_1
_geom_bond_site_symmetry_2
Yb1 O1 1_555 1_555
O1 C1 1_555 1_555
O2 Yb1 1_555 1_555
O3 Yb1 1_555 1_555
O4 Yb1 1_555 1_555
O5 Yb1 1_555 1_555
O6 Yb1 1_555 1_555
O7 Yb1 1_555 1_555
C1 C4 1_555 1_555
H1 O2 1_555 1_555
H2 O2 1_555 1_555
C2 C5 1_555 1_555
C3 O6 1_555 1_555
C4 C7 1_555 1_555
C5 C9 1_555 1_555
C6 C3 1_555 1_555
C7 H3 1_555 1_555
C8 C4 1_555 1_555
C9 H5 1_555 1_555
C10 C5 1_555 1_555
C11 C6 1_555 1_555
C12 C6 1_555 1_555
C13 C7 1_555 1_555
C14 C8 1_555 1_555
H4 C8 1_555 1_555
C15 C9 1_555 1_555
C16 C10 1_555 1_555
C17 C11 1_555 1_555
C18 C12 1_555 1_555
H6 C12 1_555 1_555
H7 C13 1_555 1_555
N1 C13 1_555 1_555
H8 C14 1_555 1_555
H9 C15 1_555 1_555
C19 C15 1_555 1_555
H10 C16 1_555 1_555
H11 C17 1_555 1_555
C20 C17 1_555 1_555
H12 C18 1_555 1_555
Ag1 N1 1_555 1_555
H13 C19 1_555 1_555
H14 C20 1_555 1_555
O8 H15 1_555 1_555
H16 O8 1_555 1_555
O9 H17 1_555 1_555
H18 O9 1_555 1_555
N2 O10 1_555 1_555
O11 N2 1_555 1_555
O12 N2 1_555 1_555
O4A Yb1 1_555 1_555
Yb1A O4 1_555 1_555
C3A O7 1_555 1_555
O5A C1 1_555 1_555
O3A C2 1_555 1_555
O7A C3 1_555 1_555
C6A C3A 1_555 1_555
O6A C3A 1_555 1_555
Yb1A_2 O7A 1_555 1_555
C11A C6A 1_555 1_555
C12A C6A 1_555 1_555
O4A_2 Yb1A_2 1_555 1_555
O5A_2 Yb1A_2 1_555 1_555
O4_2 Yb1A_2 1_555 1_555
O1A Yb1A_2 1_555 1_555
O2A Yb1A_2 1_555 1_555
O3A_2 Yb1A_2 1_555 1_555
C10A C11A 1_555 1_555
C17A C11A 1_555 1_555
C18A C12A 1_555 1_555
H6A C12A 1_555 1_555
Yb1_2 O4A_2 1_555 1_555
C2A O4_2 1_555 1_555
C1A O1A 1_555 1_555
H1A O2A 1_555 1_555
H2A O2A 1_555 1_555
C5A C10A 1_555 1_555
C16A C10A 1_555 1_555
H11A C17A 1_555 1_555
C20A C17A 1_555 1_555
H12A C18A 1_555 1_555
O5_2 Yb1_2 1_555 1_555
O3_2 Yb1_2 1_555 1_555
C4A C1A 1_555 1_555
C9A C5A 1_555 1_555
C19A C16A 1_555 1_555
H10A C16A 1_555 1_555
H14A C20A 1_555 1_555
N1A Ag1 1_555 1_555
C7A C4A 1_555 1_555
C8A C4A 1_555 1_555
H5A C9A 1_555 1_555
C15A C9A 1_555 1_555
H13A C19A 1_555 1_555
H3A C7A 1_555 1_555
C13A C7A 1_555 1_555
C14A C8A 1_555 1_555
H4A C8A 1_555 1_555
H9A C15A 1_555 1_555
H7A C13A 1_555 1_555
N1A_2 C13A 1_555 1_555
H8A C14A 1_555 1_555
Ag1_2 N1A_2 1_555 1_555
C2 O4A 1_555 1_555
C10 C11 1_555 1_555
C14 N1 1_555 1_555
C16 C19 1_555 1_555
C18 C20 1_555 1_555
O4A Yb1A 1_555 1_555
Yb1A O5A 1_555 1_555
Yb1A O3A 1_555 1_555
O6A Yb1A_2 1_555 1_555
O4_2 Yb1_2 1_555 1_555
C18A C20A 1_555 1_555
C2A C5A 1_555 1_555
C2A O3_2 1_555 1_555
C1A O5_2 1_555 1_555
C19A C15A 1_555 1_555
C14A N1A_2 1_555 1_555

#END
