
#######################################################################
#
#                 Cambridge Crystallographic Data Centre
#                                CCDC 
#
#######################################################################
#
# If this CIF has been generated from an entry in the Cambridge 
# Structural Database, then it will include bibliographic, chemical, 
# crystal, experimental, refinement or atomic coordinate data resulting 
# from the CCDC's data processing and validation procedures.
#
#######################################################################

data_FUFWIO
_symmetry_cell_setting           triclinic
_symmetry_space_group_name_H-M   'P -1'
_symmetry_Int_Tables_number      2
_space_group_name_Hall           '-P 1'
loop_
_symmetry_equiv_pos_site_id
_symmetry_equiv_pos_as_xyz
1 x,y,z
2 -x,-y,-z
_cell_length_a                   8.8816(9)
_cell_length_b                   10.0846(10)
_cell_length_c                   13.9316(14)
_cell_angle_alpha                97.7390(10)
_cell_angle_beta                 107.7370(10)
_cell_angle_gamma                90.5020(10)
_cell_volume                     1176.04
loop_
_atom_site_label
_atom_site_type_symbol
_atom_site_fract_x
_atom_site_fract_y
_atom_site_fract_z
Ho1 Ho 0.27289(4) 0.47801(3) 0.46164(3)
Ag1 Ag 0.5000 0.0000 1.0000
C1 C 0.5234(9) 0.3637(8) 0.6598(6)
C2 C 0.5250(10) 0.2791(8) 0.7414(6)
C3 C 0.3907(12) 0.2604(11) 0.7668(8)
H1 H 0.2993 0.3023 0.7360
C4 C 0.3917(14) 0.1787(12) 0.8388(8)
H2 H 0.2994 0.1670 0.8557
C5 C 0.6486(14) 0.1342(11) 0.8594(8)
H3 H 0.7383 0.0908 0.8910
C6 C 0.6574(12) 0.2133(11) 0.7891(8)
H4 H 0.7511 0.2231 0.7734
C7 C 0.5644(9) 0.6866(8) 0.6479(6)
C8 C 0.4778(10) 0.7275(9) 0.7230(6)
C9 C 0.5300(13) 0.6735(11) 0.8149(7)
H5 H 0.6234 0.6286 0.8311
C10 C 0.4385(15) 0.6888(14) 0.8816(8)
H6 H 0.4703 0.6533 0.9425
C11 C 0.3024(14) 0.7561(13) 0.8563(9)
H7 H 0.2405 0.7642 0.8998
C12 C 0.2556(12) 0.8116(11) 0.7688(8)
H8 H 0.1645 0.8598 0.7551
C13 C 0.3401(10) 0.7981(9) 0.6993(7)
C14 C 0.2819(10) 0.8569(8) 0.6021(7)
C15 C 0.3623(12) 0.9648(9) 0.5851(9)
H9 H 0.4582 0.9972 0.6328
C16 C 0.3047(13) 1.0249(10) 0.5004(10)
H10 H 0.3609 1.0976 0.4907
C17 C 0.1606(13) 0.9769(10) 0.4278(10)
H11 H 0.1213 1.0167 0.3692
C18 C 0.0770(11) 0.8701(9) 0.4436(8)
H12 H -0.0194 0.8384 0.3963
C19 C 0.1376(10) 0.8102(8) 0.5304(7)
C20 C 0.0541(9) 0.6888(8) 0.5455(6)
N1 N 0.5184(11) 0.1157(9) 0.8851(6)
O1 O 0.3882(7) 0.3899(6) 0.6073(4)
O2 O 0.6526(6) 0.3993(6) 0.6497(4)
O3 O 0.4884(6) 0.6316(5) 0.5595(4)
O4 O 0.7127(7) 0.6962(6) 0.6750(5)
O5 O 0.1387(6) 0.5875(5) 0.5631(4)
O6 O -0.0882(6) 0.6899(5) 0.5401(5)
O7 O 0.0394(7) 0.5348(7) 0.3423(5)
H13 H -0.0407 0.4839 0.3362
H14 H 0.0506 0.5392 0.2843
Ho1A Ho -0.27289(4) 0.52199(3) 0.53836(3)
C1A C -0.5234(9) 0.6363(8) 0.3402(6)
C2A C -0.5250(10) 0.7209(8) 0.2586(6)
C3A C -0.3907(12) 0.7396(11) 0.2332(8)
H1A H -0.2993 0.6977 0.2640
C4A C -0.3917(14) 0.8213(12) 0.1612(8)
H2A H -0.2994 0.8330 0.1443
C5A C -0.6486(14) 0.8658(11) 0.1406(8)
H3A H -0.7383 0.9092 0.1090
C6A C -0.6574(12) 0.7867(11) 0.2109(8)
H4A H -0.7511 0.7769 0.2266
C7A C -0.5644(9) 0.3134(8) 0.3521(6)
C8A C -0.4778(10) 0.2725(9) 0.2770(6)
C9A C -0.5300(13) 0.3265(11) 0.1851(7)
H5A H -0.6234 0.3714 0.1689
C10A C -0.4385(15) 0.3112(14) 0.1184(8)
H6A H -0.4703 0.3467 0.0575
C11A C -0.3024(14) 0.2439(13) 0.1437(9)
H7A H -0.2405 0.2358 0.1002
C12A C -0.2556(12) 0.1884(11) 0.2312(8)
H8A H -0.1645 0.1402 0.2449
C13A C -0.3401(10) 0.2019(9) 0.3007(7)
C14A C -0.2819(10) 0.1431(8) 0.3979(7)
C15A C -0.3623(12) 0.0352(9) 0.4149(9)
H9A H -0.4582 0.0028 0.3672
C16A C -0.3047(13) -0.0249(10) 0.4996(10)
H10A H -0.3609 -0.0976 0.5093
C17A C -0.1606(13) 0.0231(10) 0.5722(10)
H11A H -0.1213 -0.0167 0.6308
C18A C -0.0770(11) 0.1299(9) 0.5564(8)
H12A H 0.0194 0.1616 0.6037
C19A C -0.1376(10) 0.1898(8) 0.4696(7)
C20A C -0.0541(9) 0.3112(8) 0.4545(6)
N1A N -0.5184(11) 0.8843(9) 0.1149(6)
O1A O -0.3882(7) 0.6101(6) 0.3927(4)
O2A O -0.6526(6) 0.6007(6) 0.3503(4)
O3A O -0.4884(6) 0.3684(5) 0.4405(4)
O4A O -0.7127(7) 0.3038(6) 0.3250(5)
O5A O -0.1387(6) 0.4125(5) 0.4369(4)
O6A O 0.0882(6) 0.3101(5) 0.4599(5)
O7A O -0.0394(7) 0.4652(7) 0.6577(5)
H13A H 0.0407 0.5161 0.6638
H14A H -0.0506 0.4608 0.7157
Ho1_2 Ho -0.72711(4) 0.47801(3) 0.46164(3)
Ho1A_2 Ho 0.72711(4) 0.52199(3) 0.53836(3)
Ag1_2 Ag -0.5000 1.0000 0.0000
N1A_2 N 0.4816(11) -0.1157(9) 1.1149(6)
O2_2 O -0.3474(6) 0.3993(6) 0.6497(4)
O2A_2 O 0.3474(6) 0.6007(6) 0.3503(4)
O3_2 O -0.5116(6) 0.6316(5) 0.5595(4)
O3A_2 O 0.5116(6) 0.3684(5) 0.4405(4)
O4_2 O -0.2873(7) 0.6962(6) 0.6750(5)
O4A_2 O 0.2873(7) 0.3038(6) 0.3250(5)
O8 O 0.9206(13) 0.8236(14) 0.8687(9)
H15 H 0.9246 0.7905 0.8101
H16 H 0.8258 0.8441 0.8623
O9 O 0.874(2) 0.9321(18) 0.0602(13)
H17 H 0.9008 0.8768 0.1027
H18 H 0.7782 0.9497 0.0517
N2 N 0.9438(16) 0.5698(19) 0.0629(13)
O10 O 0.895(3) 0.4742(19) 0.0328(15)
O11 O 0.947(2) 0.6296(18) 0.1502(10)
O12 O 1.003(3) 0.628(2) 0.0098(15)
loop_
_geom_bond_atom_site_label_1
_geom_bond_atom_site_label_2
_geom_bond_site_symmetry_1
_geom_bond_site_symmetry_2
Ho1 O1 1_555 1_555
Ag1 N1 1_555 1_555
C1 C2 1_555 1_555
C2 C3 1_555 1_555
C3 H1 1_555 1_555
C4 C3 1_555 1_555
H2 C4 1_555 1_555
C5 H3 1_555 1_555
C6 C2 1_555 1_555
H4 C6 1_555 1_555
C7 C8 1_555 1_555
C8 C9 1_555 1_555
C9 H5 1_555 1_555
C10 C9 1_555 1_555
H6 C10 1_555 1_555
C11 C10 1_555 1_555
H7 C11 1_555 1_555
C12 C11 1_555 1_555
H8 C12 1_555 1_555
C13 C8 1_555 1_555
C14 C13 1_555 1_555
C15 C14 1_555 1_555
H9 C15 1_555 1_555
C16 C15 1_555 1_555
H10 C16 1_555 1_555
C17 C16 1_555 1_555
H11 C17 1_555 1_555
C18 C17 1_555 1_555
H12 C18 1_555 1_555
C19 C14 1_555 1_555
C20 C19 1_555 1_555
N1 C4 1_555 1_555
O1 C1 1_555 1_555
O2 C1 1_555 1_555
O3 Ho1 1_555 1_555
O4 C7 1_555 1_555
O5 Ho1 1_555 1_555
O6 C20 1_555 1_555
O7 Ho1 1_555 1_555
H13 O7 1_555 1_555
H14 O7 1_555 1_555
O8 H15 1_555 1_555
H16 O8 1_555 1_555
O9 H17 1_555 1_555
H18 O9 1_555 1_555
N2 O10 1_555 1_555
O11 N2 1_555 1_555
O12 N2 1_555 1_555
Ho1A O6 1_555 1_555
C1A C2A 1_555 1_555
C2A C3A 1_555 1_555
C3A H1A 1_555 1_555
C4A C3A 1_555 1_555
H2A C4A 1_555 1_555
C5A H3A 1_555 1_555
C6A C2A 1_555 1_555
H4A C6A 1_555 1_555
C7A C8A 1_555 1_555
C8A C9A 1_555 1_555
C9A H5A 1_555 1_555
C10A C9A 1_555 1_555
H6A C10A 1_555 1_555
C11A C10A 1_555 1_555
H7A C11A 1_555 1_555
C12A C11A 1_555 1_555
H8A C12A 1_555 1_555
C13A C8A 1_555 1_555
C14A C13A 1_555 1_555
C15A C14A 1_555 1_555
H9A C15A 1_555 1_555
C16A C15A 1_555 1_555
H10A C16A 1_555 1_555
C17A C16A 1_555 1_555
H11A C17A 1_555 1_555
C18A C17A 1_555 1_555
H12A C18A 1_555 1_555
C19A C14A 1_555 1_555
C20A C19A 1_555 1_555
N1A C4A 1_555 1_555
O1A Ho1A 1_555 1_555
O2A C1A 1_555 1_555
O3A Ho1A 1_555 1_555
O4A C7A 1_555 1_555
O5A Ho1A 1_555 1_555
O6A Ho1 1_555 1_555
O7A Ho1A 1_555 1_555
H13A O7A 1_555 1_555
H14A O7A 1_555 1_555
Ho1_2 O2A 1_555 1_555
Ho1A_2 O2 1_555 1_555
Ag1_2 N1A 1_555 1_555
N1A_2 Ag1 1_555 1_555
O2_2 Ho1A 1_555 1_555
O2A_2 Ho1 1_555 1_555
O3_2 Ho1A 1_555 1_555
O3A_2 Ho1 1_555 1_555
O4_2 Ho1A 1_555 1_555
O4A_2 Ho1 1_555 1_555
C5 C6 1_555 1_555
C5 N1 1_555 1_555
C7 O3 1_555 1_555
C12 C13 1_555 1_555
C18 C19 1_555 1_555
C20 O5 1_555 1_555
O3 Ho1A_2 1_555 1_555
O4 Ho1A_2 1_555 1_555
C1A O1A 1_555 1_555
C5A C6A 1_555 1_555
C5A N1A 1_555 1_555
C7A O3A 1_555 1_555
C12A C13A 1_555 1_555
C18A C19A 1_555 1_555
C20A O5A 1_555 1_555
C20A O6A 1_555 1_555
O3A Ho1_2 1_555 1_555
O4A Ho1_2 1_555 1_555
Ho1_2 O3_2 1_555 1_555
Ho1A_2 O3A_2 1_555 1_555

#END
