
#######################################################################
#
#                 Cambridge Crystallographic Data Centre
#                                CCDC 
#
#######################################################################
#
# If this CIF has been generated from an entry in the Cambridge 
# Structural Database, then it will include bibliographic, chemical, 
# crystal, experimental, refinement or atomic coordinate data resulting 
# from the CCDC's data processing and validation procedures.
#
#######################################################################

data_FUFWEK
_symmetry_cell_setting           monoclinic
_symmetry_space_group_name_H-M   'C 2/c'
_symmetry_Int_Tables_number      15
_space_group_name_Hall           '-C 2yn'
loop_
_symmetry_equiv_pos_site_id
_symmetry_equiv_pos_as_xyz
1 x,y,z
2 -x,y,1/2-z
3 1/2+x,1/2+y,z
4 1/2-x,1/2+y,1/2-z
5 -x,-y,-z
6 x,-y,1/2+z
7 1/2-x,1/2-y,-z
8 1/2+x,1/2-y,1/2+z
_cell_length_a                   23.4208(18)
_cell_length_b                   8.7474(7)
_cell_length_c                   24.1695(19)
_cell_angle_alpha                90
_cell_angle_beta                 102.5250(10)
_cell_angle_gamma                90
_cell_volume                     4833.79
loop_
_atom_site_label
_atom_site_type_symbol
_atom_site_fract_x
_atom_site_fract_y
_atom_site_fract_z
O9 O 0.3717(6) 0.0456(17) 0.2155(5)
H17 H 0.3614 0.1349 0.2035
H18 H 0.3420 -0.0112 0.2139
O10 O 0.0574(10) 0.540(2) 0.1851(9)
H19 H 0.0764 0.5021 0.1622
H20 H 0.0514 0.6334 0.1757
Dy1 Dy 0.270713(15) 0.00034(4) 0.020857(14)
Ag1 Ag 0.0000 0.0440(2) 0.2500
C1 C 0.1805(3) -0.0104(8) 0.0853(3)
C2 C 0.1407(4) 0.0075(9) 0.1259(4)
C3 C 0.1061(4) 0.1355(11) 0.1256(4)
H1 H 0.1065 0.2138 0.0996
C4 C 0.0708(4) 0.1453(13) 0.1645(4)
H2 H 0.0491 0.2339 0.1652
C5 C 0.1002(4) -0.0883(12) 0.2015(4)
H3 H 0.0984 -0.1644 0.2280
C6 C 0.1368(4) -0.1072(11) 0.1655(3)
H4 H 0.1591 -0.1957 0.1670
C7 C 0.2862(3) 0.2763(9) 0.1014(3)
C8 C 0.2905(4) 0.3972(9) 0.1456(3)
C9 C 0.2481(4) 0.4081(12) 0.1769(3)
H5 H 0.2204 0.3310 0.1750
C10 C 0.2468(6) 0.5348(14) 0.2115(4)
H6 H 0.2181 0.5419 0.2326
C11 C 0.2860(5) 0.6456(12) 0.2145(4)
H7 H 0.2835 0.7314 0.2366
C12 C 0.3310(4) 0.6354(10) 0.1852(3)
H8 H 0.3589 0.7126 0.1884
C13 C 0.3338(4) 0.5090(8) 0.1514(3)
C14 C 0.3821(4) 0.4939(8) 0.1204(4)
C15 C 0.4217(4) 0.3706(11) 0.1321(4)
H9 H 0.4174 0.2982 0.1591
C16 C 0.4666(4) 0.3566(11) 0.1040(4)
H10 H 0.4918 0.2734 0.1111
C17 C 0.4736(4) 0.4629(14) 0.0666(5)
H11 H 0.5042 0.4517 0.0480
C18 C 0.4381(4) 0.5872(12) 0.0544(4)
H12 H 0.4455 0.6610 0.0291
C19 C 0.3905(3) 0.6029(9) 0.0802(3)
C20 C 0.3464(3) 0.7247(9) 0.0615(3)
N1 N 0.0665(4) 0.0368(11) 0.2003(3)
O1 O 0.1772(2) 0.0850(7) 0.0459(2)
O2 O 0.3588(2) 0.1462(7) 0.0140(2)
H13 H 0.3582 0.2231 0.0353
H14 H 0.3510 0.1810 -0.0197
O3 O 0.2173(2) -0.1163(6) 0.0924(2)
O4 O 0.3110(3) -0.0939(6) -0.0576(2)
H15 H 0.3481 -0.0881 -0.0479
H16 H 0.3001 -0.0343 -0.0857
O5 O 0.2715(2) 0.3163(6) 0.05064(19)
O6 O 0.2959(3) 0.1394(6) 0.1148(2)
O7 O 0.3594(2) 0.8631(6) 0.0729(2)
O8 O 0.2963(2) 0.6879(6) 0.0353(2)
Dy1A Dy -0.270713(15) 0.00034(4) 0.479143(14)
C1A C -0.1805(3) -0.0104(8) 0.4147(3)
C2A C -0.1407(4) 0.0075(9) 0.3741(4)
C3A C -0.1061(4) 0.1355(11) 0.3744(4)
H1A H -0.1065 0.2138 0.4004
C4A C -0.0708(4) 0.1453(13) 0.3355(4)
H2A H -0.0491 0.2339 0.3348
C5A C -0.1002(4) -0.0883(12) 0.2985(4)
H3A H -0.0984 -0.1644 0.2720
C6A C -0.1368(4) -0.1072(11) 0.3345(3)
H4A H -0.1591 -0.1957 0.3330
C7A C -0.2862(3) 0.2763(9) 0.3986(3)
C8A C -0.2905(4) 0.3972(9) 0.3544(3)
C9A C -0.2481(4) 0.4081(12) 0.3231(3)
H5A H -0.2204 0.3310 0.3250
C10A C -0.2468(6) 0.5348(14) 0.2885(4)
H6A H -0.2181 0.5419 0.2674
C11A C -0.2860(5) 0.6456(12) 0.2855(4)
H7A H -0.2835 0.7314 0.2634
C12A C -0.3310(4) 0.6354(10) 0.3148(3)
H8A H -0.3589 0.7126 0.3116
C13A C -0.3338(4) 0.5090(8) 0.3486(3)
C14A C -0.3821(4) 0.4939(8) 0.3796(4)
C15A C -0.4217(4) 0.3706(11) 0.3679(4)
H9A H -0.4174 0.2982 0.3409
C16A C -0.4666(4) 0.3566(11) 0.3960(4)
H10A H -0.4918 0.2734 0.3889
C17A C -0.4736(4) 0.4629(14) 0.4334(5)
H11A H -0.5042 0.4517 0.4520
C18A C -0.4381(4) 0.5872(12) 0.4456(4)
H12A H -0.4455 0.6610 0.4709
C19A C -0.3905(3) 0.6029(9) 0.4198(3)
C20A C -0.3464(3) 0.7247(9) 0.4385(3)
N1A N -0.0665(4) 0.0368(11) 0.2997(3)
O1A O -0.1772(2) 0.0850(7) 0.4541(2)
O2A O -0.3588(2) 0.1462(7) 0.4860(2)
H13A H -0.3582 0.2231 0.4647
H14A H -0.3510 0.1810 0.5197
O3A O -0.2173(2) -0.1163(6) 0.4076(2)
O4A O -0.3110(3) -0.0939(6) 0.5576(2)
H15A H -0.3481 -0.0881 0.5479
H16A H -0.3001 -0.0343 0.5857
O5A O -0.2715(2) 0.3163(6) 0.44936(19)
O6A O -0.2959(3) 0.1394(6) 0.3852(2)
O7A O -0.3594(2) 0.8631(6) 0.4271(2)
O8A O -0.2963(2) 0.6879(6) 0.4647(2)
Dy1_2 Dy 0.270713(15) 1.00034(4) 0.020857(14)
Dy1A_2 Dy -0.270713(15) 1.00034(4) 0.479143(14)
Dy1F Dy 0.229287(15) 0.49966(4) -0.020857(14)
Dy1G Dy -0.229287(15) 0.49966(4) 0.520857(14)
O5F O 0.2285(2) 0.1837(6) -0.05064(19)
O5G O -0.2285(2) 0.1837(6) 0.55064(19)
O7_2 O 0.3594(2) -0.1369(6) 0.0729(2)
O7A_2 O -0.3594(2) -0.1369(6) 0.4271(2)
O8_2 O 0.2963(2) -0.3121(6) 0.0353(2)
O8A_2 O -0.2963(2) -0.3121(6) 0.4647(2)
O8F O 0.2037(2) -0.1879(6) -0.0353(2)
O8G O -0.2037(2) -0.1879(6) 0.5353(2)
N2? N 0.0327(7) 0.511(2) 0.0413(8)
O11? O 0.0762(5) 0.538(2) 0.0770(7)
O12? O 0.0351(9) 0.478(2) -0.0063(7)
O13? O -0.0162(7) 0.511(2) 0.0512(10)
loop_
_geom_bond_atom_site_label_1
_geom_bond_atom_site_label_2
_geom_bond_site_symmetry_1
_geom_bond_site_symmetry_2
Dy1 O1 1_555 1_555
Ag1 N1 1_555 1_555
C1 C2 1_555 1_555
C2 C3 1_555 1_555
C3 H1 1_555 1_555
C4 C3 1_555 1_555
H2 C4 1_555 1_555
C5 H3 1_555 1_555
C6 C2 1_555 1_555
H4 C6 1_555 1_555
C7 C8 1_555 1_555
C8 C9 1_555 1_555
C9 H5 1_555 1_555
C10 C9 1_555 1_555
H6 C10 1_555 1_555
C11 C10 1_555 1_555
H7 C11 1_555 1_555
C12 C11 1_555 1_555
H8 C12 1_555 1_555
C13 C8 1_555 1_555
C14 C13 1_555 1_555
C15 C14 1_555 1_555
H9 C15 1_555 1_555
C16 C15 1_555 1_555
H10 C16 1_555 1_555
C17 C16 1_555 1_555
H11 C17 1_555 1_555
C18 C17 1_555 1_555
H12 C18 1_555 1_555
C19 C14 1_555 1_555
C20 C19 1_555 1_555
N1 C4 1_555 1_555
O1 C1 1_555 1_555
O2 Dy1 1_555 1_555
H13 O2 1_555 1_555
H14 O2 1_555 1_555
O3 Dy1 1_555 1_555
O4 Dy1 1_555 1_555
H15 O4 1_555 1_555
H16 O4 1_555 1_555
O5 Dy1 1_555 1_555
O6 Dy1 1_555 1_555
O7 C20 1_555 1_555
O8 C20 1_555 1_555
O9 H17 1_555 1_555
H18 O9 1_555 1_555
O10 H19 1_555 1_555
H20 O10 1_555 1_555
Dy1A O1A 1_555 1_555
C1A C2A 1_555 1_555
C2A C3A 1_555 1_555
C3A H1A 1_555 1_555
C4A C3A 1_555 1_555
H2A C4A 1_555 1_555
C5A H3A 1_555 1_555
C6A C2A 1_555 1_555
H4A C6A 1_555 1_555
C7A C8A 1_555 1_555
C8A C9A 1_555 1_555
C9A H5A 1_555 1_555
C10A C9A 1_555 1_555
H6A C10A 1_555 1_555
C11A C10A 1_555 1_555
H7A C11A 1_555 1_555
C12A C11A 1_555 1_555
H8A C12A 1_555 1_555
C13A C8A 1_555 1_555
C14A C13A 1_555 1_555
C15A C14A 1_555 1_555
H9A C15A 1_555 1_555
C16A C15A 1_555 1_555
H10A C16A 1_555 1_555
C17A C16A 1_555 1_555
H11A C17A 1_555 1_555
C18A C17A 1_555 1_555
H12A C18A 1_555 1_555
C19A C14A 1_555 1_555
C20A C19A 1_555 1_555
N1A Ag1 1_555 1_555
O1A C1A 1_555 1_555
O2A Dy1A 1_555 1_555
H13A O2A 1_555 1_555
H14A O2A 1_555 1_555
O3A Dy1A 1_555 1_555
O4A Dy1A 1_555 1_555
H15A O4A 1_555 1_555
H16A O4A 1_555 1_555
O5A Dy1A 1_555 1_555
O6A Dy1A 1_555 1_555
O7A C20A 1_555 1_555
O8A C20A 1_555 1_555
Dy1_2 O7 1_555 1_555
Dy1A_2 O7A 1_555 1_555
Dy1F O5 1_555 1_555
Dy1G O5A 1_555 1_555
O5F Dy1 1_555 1_555
O5G Dy1A 1_555 1_555
O7_2 Dy1 1_555 1_555
O7A_2 Dy1A 1_555 1_555
O8_2 Dy1 1_555 1_555
O8A_2 Dy1A 1_555 1_555
O8F Dy1 1_555 1_555
O8G Dy1A 1_555 1_555
C1 O3 1_555 1_555
C5 C6 1_555 1_555
C5 N1 1_555 1_555
C7 O5 1_555 1_555
C7 O6 1_555 1_555
C12 C13 1_555 1_555
C18 C19 1_555 1_555
O8 Dy1_2 1_555 1_555
O8 Dy1F 1_555 1_555
C1A O3A 1_555 1_555
C4A N1A 1_555 1_555
C5A C6A 1_555 1_555
C5A N1A 1_555 1_555
C7A O5A 1_555 1_555
C7A O6A 1_555 1_555
C12A C13A 1_555 1_555
C18A C19A 1_555 1_555
O8A Dy1A_2 1_555 1_555
O8A Dy1G 1_555 1_555
Dy1F O5F 1_555 1_555
Dy1G O5G 1_555 1_555

#END
