
#######################################################################
#
#                 Cambridge Crystallographic Data Centre
#                                CCDC 
#
#######################################################################
#
# If this CIF has been generated from an entry in the Cambridge 
# Structural Database, then it will include bibliographic, chemical, 
# crystal, experimental, refinement or atomic coordinate data resulting 
# from the CCDC's data processing and validation procedures.
#
#######################################################################

data_FUFWAG
_symmetry_cell_setting           monoclinic
_symmetry_space_group_name_H-M   'C 2/c'
_symmetry_Int_Tables_number      15
_space_group_name_Hall           '-C 2yn'
loop_
_symmetry_equiv_pos_site_id
_symmetry_equiv_pos_as_xyz
1 x,y,z
2 -x,y,1/2-z
3 1/2+x,1/2+y,z
4 1/2-x,1/2+y,1/2-z
5 -x,-y,-z
6 x,-y,1/2+z
7 1/2-x,1/2-y,-z
8 1/2+x,1/2-y,1/2+z
_cell_length_a                   23.738(5)
_cell_length_b                   8.740(2)
_cell_length_c                   23.966(5)
_cell_angle_alpha                90
_cell_angle_beta                 102.618(3)
_cell_angle_gamma                90
_cell_volume                     4852.14
loop_
_atom_site_label
_atom_site_type_symbol
_atom_site_fract_x
_atom_site_fract_y
_atom_site_fract_z
O9 O 0.1275(6) 1.0540(18) 0.2771(6)
H17 H 0.1429 0.9917 0.2577
H18 H 0.0971 1.0137 0.2841
O10 O -0.0438(11) 0.913(3) 0.1673(10)
H19 H -0.0179 0.9733 0.1606
H20 H -0.0293 0.8313 0.1834
Tb1 Tb 0.271133(16) 0.50131(4) 0.021021(16)
Ag1 Ag 0.0000 0.53225(19) 0.2500
C1 C 0.1811(4) 0.4878(8) 0.0866(4)
C2 C 0.1413(4) 0.5034(8) 0.1275(4)
C3 C 0.1061(4) 0.6295(11) 0.1269(4)
H1 H 0.1068 0.7088 0.1012
C4 C 0.0702(4) 0.6371(12) 0.1646(4)
H2 H 0.0478 0.7243 0.1648
C5 C 0.1003(4) 0.4020(12) 0.2019(4)
H3 H 0.0984 0.3240 0.2278
C6 C 0.1376(4) 0.3871(11) 0.1663(4)
H4 H 0.1604 0.3000 0.1679
C7 C 0.2882(3) 0.7732(9) 0.1038(3)
C8 C 0.2928(4) 0.8956(9) 0.1470(3)
C9 C 0.2502(4) 0.9087(11) 0.1794(4)
H5 H 0.2227 0.8323 0.1782
C10 C 0.2499(6) 1.0386(15) 0.2133(4)
H6 H 0.2219 1.0474 0.2348
C11 C 0.2887(5) 1.1505(12) 0.2157(4)
H7 H 0.2862 1.2376 0.2373
C12 C 0.3329(5) 1.1376(10) 0.1859(4)
H8 H 0.3610 1.2133 0.1893
C13 C 0.3350(4) 1.0107(8) 0.1509(3)
C14 C 0.3823(4) 0.9925(8) 0.1196(4)
C15 C 0.4203(4) 0.8690(10) 0.1321(4)
H9 H 0.4153 0.7975 0.1594
C16 C 0.4651(4) 0.8519(11) 0.1047(4)
H10 H 0.4904 0.7696 0.1131
C17 C 0.4717(4) 0.9591(14) 0.0645(5)
H11 H 0.5014 0.9464 0.0452
C18 C 0.4360(4) 1.0849(12) 0.0518(4)
H12 H 0.4425 1.1576 0.0256
C19 C 0.3898(3) 1.1010(10) 0.0793(3)
C20 C 0.3470(3) 1.2246(9) 0.0614(3)
N1 N 0.0662(3) 0.5246(10) 0.2010(4)
O1 O 0.1778(2) 0.5861(7) 0.0477(2)
O2 O 0.2177(2) 0.3833(6) 0.0939(2)
O3 O 0.2718(2) 0.8093(6) 0.0521(2)
O4 O 0.2980(3) 0.6364(7) 0.1177(2)
O5 O 0.3612(2) 1.3616(7) 0.0720(3)
O6 O 0.2970(2) 1.1892(6) 0.0357(2)
O7 O 0.3096(2) 0.4085(7) -0.0608(2)
H13 H 0.2992 0.3199 -0.0683
H14 H 0.3463 0.4129 -0.0524
O8 O 0.3593(2) 0.6501(7) 0.0119(2)
H15 H 0.3496 0.7297 -0.0056
H16 H 0.3797 0.5965 -0.0058
Tb1A Tb -0.271133(16) 0.50131(4) 0.478979(16)
C1A C -0.1811(4) 0.4878(8) 0.4134(4)
C2A C -0.1413(4) 0.5034(8) 0.3725(4)
C3A C -0.1061(4) 0.6295(11) 0.3731(4)
H1A H -0.1068 0.7088 0.3988
C4A C -0.0702(4) 0.6371(12) 0.3354(4)
H2A H -0.0478 0.7243 0.3352
C5A C -0.1003(4) 0.4020(12) 0.2981(4)
H3A H -0.0984 0.3240 0.2722
C6A C -0.1376(4) 0.3871(11) 0.3337(4)
H4A H -0.1604 0.3000 0.3321
C7A C -0.2882(3) 0.7732(9) 0.3962(3)
C8A C -0.2928(4) 0.8956(9) 0.3530(3)
C9A C -0.2502(4) 0.9087(11) 0.3206(4)
H5A H -0.2227 0.8323 0.3218
C10A C -0.2499(6) 1.0386(15) 0.2867(4)
H6A H -0.2219 1.0474 0.2652
C11A C -0.2887(5) 1.1505(12) 0.2843(4)
H7A H -0.2862 1.2376 0.2627
C12A C -0.3329(5) 1.1376(10) 0.3141(4)
H8A H -0.3610 1.2133 0.3107
C13A C -0.3350(4) 1.0107(8) 0.3491(3)
C14A C -0.3823(4) 0.9925(8) 0.3804(4)
C15A C -0.4203(4) 0.8690(10) 0.3679(4)
H9A H -0.4153 0.7975 0.3406
C16A C -0.4651(4) 0.8519(11) 0.3953(4)
H10A H -0.4904 0.7696 0.3869
C17A C -0.4717(4) 0.9591(14) 0.4355(5)
H11A H -0.5014 0.9464 0.4548
C18A C -0.4360(4) 1.0849(12) 0.4482(4)
H12A H -0.4425 1.1576 0.4744
C19A C -0.3898(3) 1.1010(10) 0.4207(3)
C20A C -0.3470(3) 1.2246(9) 0.4386(3)
N1A N -0.0662(3) 0.5246(10) 0.2990(4)
O1A O -0.1778(2) 0.5861(7) 0.4523(2)
O2A O -0.2177(2) 0.3833(6) 0.4061(2)
O3A O -0.2718(2) 0.8093(6) 0.4479(2)
O4A O -0.2980(3) 0.6364(7) 0.3823(2)
O5A O -0.3612(2) 1.3616(7) 0.4280(3)
O6A O -0.2970(2) 1.1892(6) 0.4643(2)
O7A O -0.3096(2) 0.4085(7) 0.5608(2)
H13A H -0.2992 0.3199 0.5683
H14A H -0.3463 0.4129 0.5524
O8A O -0.3593(2) 0.6501(7) 0.4881(2)
H15A H -0.3496 0.7297 0.5056
H16A H -0.3797 0.5965 0.5058
Tb1_2 Tb 0.271133(16) 1.50131(4) 0.021021(16)
Tb1A_2 Tb -0.271133(16) 1.50131(4) 0.478979(16)
Tb1F Tb 0.228867(16) 0.99869(4) -0.021021(16)
Tb1G Tb -0.228867(16) 0.99869(4) 0.521021(16)
O3F O 0.2282(2) 0.6907(6) -0.0521(2)
O3G O -0.2282(2) 0.6907(6) 0.5521(2)
O5_2 O 0.3612(2) 0.3616(7) 0.0720(3)
O5A_2 O -0.3612(2) 0.3616(7) 0.4280(3)
O6_2 O 0.2970(2) 0.1892(6) 0.0357(2)
O6A_2 O -0.2970(2) 0.1892(6) 0.4643(2)
O6F O 0.2030(2) 0.3108(6) -0.0357(2)
O6G O -0.2030(2) 0.3108(6) 0.5357(2)
N2? N 0.5266(12) 0.508(3) 0.0395(12)
O11? O 0.5708(11) 0.560(4) 0.0664(11)
O12? O 0.4854(14) 0.490(4) 0.0635(15)
O13? O 0.5212(14) 0.464(4) -0.0072(11)
loop_
_geom_bond_atom_site_label_1
_geom_bond_atom_site_label_2
_geom_bond_site_symmetry_1
_geom_bond_site_symmetry_2
Tb1 O1 1_555 1_555
Ag1 N1 1_555 1_555
C1 C2 1_555 1_555
C2 C3 1_555 1_555
C3 H1 1_555 1_555
C4 C3 1_555 1_555
H2 C4 1_555 1_555
C5 H3 1_555 1_555
C6 C2 1_555 1_555
H4 C6 1_555 1_555
C7 C8 1_555 1_555
C8 C9 1_555 1_555
C9 H5 1_555 1_555
C10 C9 1_555 1_555
H6 C10 1_555 1_555
C11 C10 1_555 1_555
H7 C11 1_555 1_555
C12 C11 1_555 1_555
H8 C12 1_555 1_555
C13 C8 1_555 1_555
C14 C13 1_555 1_555
C15 C14 1_555 1_555
H9 C15 1_555 1_555
C16 C15 1_555 1_555
H10 C16 1_555 1_555
C17 C16 1_555 1_555
H11 C17 1_555 1_555
C18 C17 1_555 1_555
H12 C18 1_555 1_555
C19 C14 1_555 1_555
C20 C19 1_555 1_555
N1 C4 1_555 1_555
O1 C1 1_555 1_555
O2 Tb1 1_555 1_555
O3 Tb1 1_555 1_555
O4 Tb1 1_555 1_555
O5 C20 1_555 1_555
O6 C20 1_555 1_555
O7 Tb1 1_555 1_555
H13 O7 1_555 1_555
H14 O7 1_555 1_555
O8 Tb1 1_555 1_555
H15 O8 1_555 1_555
H16 O8 1_555 1_555
O9 H17 1_555 1_555
H18 O9 1_555 1_555
O10 H19 1_555 1_555
H20 O10 1_555 1_555
Tb1A O1A 1_555 1_555
C1A C2A 1_555 1_555
C2A C3A 1_555 1_555
C3A H1A 1_555 1_555
C4A C3A 1_555 1_555
H2A C4A 1_555 1_555
C5A H3A 1_555 1_555
C6A C2A 1_555 1_555
H4A C6A 1_555 1_555
C7A C8A 1_555 1_555
C8A C9A 1_555 1_555
C9A H5A 1_555 1_555
C10A C9A 1_555 1_555
H6A C10A 1_555 1_555
C11A C10A 1_555 1_555
H7A C11A 1_555 1_555
C12A C11A 1_555 1_555
H8A C12A 1_555 1_555
C13A C8A 1_555 1_555
C14A C13A 1_555 1_555
C15A C14A 1_555 1_555
H9A C15A 1_555 1_555
C16A C15A 1_555 1_555
H10A C16A 1_555 1_555
C17A C16A 1_555 1_555
H11A C17A 1_555 1_555
C18A C17A 1_555 1_555
H12A C18A 1_555 1_555
C19A C14A 1_555 1_555
C20A C19A 1_555 1_555
N1A Ag1 1_555 1_555
O1A C1A 1_555 1_555
O2A Tb1A 1_555 1_555
O3A Tb1A 1_555 1_555
O4A Tb1A 1_555 1_555
O5A C20A 1_555 1_555
O6A C20A 1_555 1_555
O7A Tb1A 1_555 1_555
H13A O7A 1_555 1_555
H14A O7A 1_555 1_555
O8A Tb1A 1_555 1_555
H15A O8A 1_555 1_555
H16A O8A 1_555 1_555
Tb1_2 O5 1_555 1_555
Tb1A_2 O5A 1_555 1_555
Tb1F O3 1_555 1_555
Tb1G O3A 1_555 1_555
O3F Tb1 1_555 1_555
O3G Tb1A 1_555 1_555
O5_2 Tb1 1_555 1_555
O5A_2 Tb1A 1_555 1_555
O6_2 Tb1 1_555 1_555
O6A_2 Tb1A 1_555 1_555
O6F Tb1 1_555 1_555
O6G Tb1A 1_555 1_555
C1 O2 1_555 1_555
C5 C6 1_555 1_555
C5 N1 1_555 1_555
C7 O3 1_555 1_555
C7 O4 1_555 1_555
C12 C13 1_555 1_555
C18 C19 1_555 1_555
O6 Tb1_2 1_555 1_555
O6 Tb1F 1_555 1_555
C1A O2A 1_555 1_555
C4A N1A 1_555 1_555
C5A C6A 1_555 1_555
C5A N1A 1_555 1_555
C7A O3A 1_555 1_555
C7A O4A 1_555 1_555
C12A C13A 1_555 1_555
C18A C19A 1_555 1_555
O6A Tb1A_2 1_555 1_555
O6A Tb1G 1_555 1_555
Tb1F O3F 1_555 1_555
Tb1G O3G 1_555 1_555

#END
