
#######################################################################
#
#                 Cambridge Crystallographic Data Centre
#                                CCDC 
#
#######################################################################
#
# If this CIF has been generated from an entry in the Cambridge 
# Structural Database, then it will include bibliographic, chemical, 
# crystal, experimental, refinement or atomic coordinate data resulting 
# from the CCDC's data processing and validation procedures.
#
#######################################################################

data_FUFWOT
_symmetry_cell_setting           monoclinic
_symmetry_space_group_name_H-M   'P 21'
_symmetry_Int_Tables_number      4
_space_group_name_Hall           'P 2yb'
loop_
_symmetry_equiv_pos_site_id
_symmetry_equiv_pos_as_xyz
1 x,y,z
2 -x,1/2+y,-z
_cell_length_a                   10.823(2)
_cell_length_b                   10.750(2)
_cell_length_c                   13.582(3)
_cell_angle_alpha                90
_cell_angle_beta                 94.64(3)
_cell_angle_gamma                90
_cell_volume                     1575.05
loop_
_atom_site_label
_atom_site_type_symbol
_atom_site_fract_x
_atom_site_fract_y
_atom_site_fract_z
Ni1 Ni 0.75634(6) 0.81431(7) 0.11824(5)
Ni2 Ni 0.30592(6) 0.54756(7) 0.47871(5)
O1 O 0.7206(3) 0.7722(4) -0.0347(3)
O2 O 0.5960(4) 0.6553(4) -0.1366(3)
O3 O 0.5623(4) 0.3666(4) -0.0780(3)
O4 O 0.3730(3) 0.4554(4) -0.0967(3)
O5 O 0.5094(4) 0.3991(4) 0.3444(3)
O6 O 0.3786(3) 0.5633(4) 0.3396(3)
O7 O 0.6350(3) 0.6831(4) 0.3806(3)
O8 O 0.7302(3) 0.8014(4) 0.2727(3)
O9 O 0.3831(5) 0.3783(5) 0.4990(4)
H1 H 0.4060 0.3462 0.4462
H2 H 0.3382 0.3278 0.5284
O10 O 0.2501(3) 0.5383(4) 0.6242(3)
H3 H 0.2913 0.5896 0.6615
H4 H 0.2614 0.4655 0.6477
O11 O 0.4672(3) 0.6355(4) 0.5274(3)
H5 H 0.5164 0.6399 0.4818
H6 H 0.5032 0.5977 0.5766
N1 N 0.6356(4) 0.6765(5) 0.1206(3)
N2 N 0.8949(4) 0.9420(5) 0.1296(4)
N3 N 0.9132(4) 0.6985(5) 0.1207(4)
N4 N 0.2108(4) 0.7107(5) 0.4526(4)
N5 N 0.1384(4) 0.4796(5) 0.4169(4)
C1 C 0.6414(5) 0.6853(6) -0.0535(4)
C2 C 0.5949(5) 0.6225(6) 0.0364(4)
C3 C 0.5147(5) 0.5215(6) 0.0360(4)
C4 C 0.4743(5) 0.4834(6) 0.1257(4)
H7 H 0.4185 0.4153 0.1272
C5 C 0.5138(4) 0.5426(6) 0.2125(4)
C6 C 0.5992(5) 0.6393(6) 0.2082(4)
C7 C 0.6591(5) 0.7130(6) 0.2942(4)
C8 C 0.4805(5) 0.4424(6) -0.0546(4)
C9 C 0.4648(5) 0.4992(6) 0.3078(4)
C10 C 0.8765(5) 1.0627(7) 0.1340(4)
H8 H 0.7939 1.0932 0.1277
C11 C 0.9737(6) 1.1476(7) 0.1476(5)
H9 H 0.9578 1.2345 0.1480
C12 C 1.0949(5) 1.1024(6) 0.1605(5)
H10 H 1.1626 1.1579 0.1731
C13 C 1.1149(6) 0.9748(7) 0.1547(4)
H11 H 1.1964 0.9415 0.1619
C14 C 1.0126(6) 0.8974(7) 0.1381(5)
C15 C 1.0237(6) 0.7599(6) 0.1286(4)
C16 C 1.1355(6) 0.6978(7) 0.1244(5)
H12 H 1.2116 0.7423 0.1304
C17 C 1.1347(6) 0.5701(8) 0.1112(5)
H13 H 1.2103 0.5257 0.1092
C18 C 1.0241(6) 0.5088(6) 0.1013(5)
H14 H 1.0226 0.4214 0.0910
C19 C 0.9145(5) 0.5731(7) 0.1063(4)
H15 H 0.8382 0.5289 0.0995
C20 C 0.2547(5) 0.8263(7) 0.4705(4)
H16 H 0.3364 0.8352 0.5008
C21 C 0.1880(6) 0.9314(7) 0.4473(5)
H17 H 0.2222 1.0113 0.4618
C22 C 0.0683(7) 0.9188(8) 0.4019(5)
H18 H 0.0195 0.9901 0.3847
C23 C 0.0227(5) 0.8025(8) 0.3827(4)
H19 H -0.0584 0.7923 0.3516
C24 C 0.0945(5) 0.6988(6) 0.4085(4)
C25 C 0.0541(5) 0.5698(6) 0.3897(4)
C26 C -0.0629(5) 0.5388(9) 0.3466(4)
H20 H -0.1220 0.6014 0.3277
C27 C -0.0908(7) 0.4138(9) 0.3321(5)
H21 H -0.1697 0.3904 0.3021
C28 C -0.0062(8) 0.3243(9) 0.3604(5)
H22 H -0.0265 0.2387 0.3524
C29 C 0.1091(7) 0.3598(8) 0.4008(5)
H23 H 0.1696 0.2976 0.4177
Ni1A Ni 0.24366(6) 0.31431(7) -0.11824(5)
O4A O 0.6270(3) 0.9554(4) 0.0967(3)
O12 O 0.6226(4) 0.5681(5) 0.6758(3)
H24 H 0.6233 0.4901 0.6859
H25 H 0.6146 0.6043 0.7306
O13 O 0.3780(4) 0.8213(5) 0.2671(3)
H26 H 0.3800 0.7447 0.2828
H27 H 0.3973 0.8282 0.2079
O14 O 0.6348(4) 0.2144(4) 0.2477(3)
H28 H 0.5739 0.1875 0.2102
H29 H 0.6087 0.2731 0.2825
O15 O 0.7464(4) 0.3333(5) 0.0834(3)
H30 H 0.6914 0.3429 0.0357
H31 H 0.7129 0.2989 0.1309
loop_
_geom_bond_atom_site_label_1
_geom_bond_atom_site_label_2
_geom_bond_site_symmetry_1
_geom_bond_site_symmetry_2
Ni1 O1 1_555 1_555
Ni2 O6 1_555 1_555
O1 C1 1_555 1_555
O2 C1 1_555 1_555
O3 C8 1_555 1_555
O4 C8 1_555 1_555
O5 C9 1_555 1_555
O6 C9 1_555 1_555
O7 C7 1_555 1_555
O8 Ni1 1_555 1_555
O9 Ni2 1_555 1_555
H1 O9 1_555 1_555
H2 O9 1_555 1_555
O10 Ni2 1_555 1_555
H3 O10 1_555 1_555
H4 O10 1_555 1_555
O11 Ni2 1_555 1_555
H5 O11 1_555 1_555
H6 O11 1_555 1_555
N1 Ni1 1_555 1_555
N2 Ni1 1_555 1_555
N3 Ni1 1_555 1_555
N4 Ni2 1_555 1_555
N5 Ni2 1_555 1_555
C1 C2 1_555 1_555
C2 N1 1_555 1_555
C3 C2 1_555 1_555
C4 C3 1_555 1_555
H7 C4 1_555 1_555
C5 C4 1_555 1_555
C6 N1 1_555 1_555
C7 O8 1_555 1_555
C8 C3 1_555 1_555
C9 C5 1_555 1_555
C10 N2 1_555 1_555
H8 C10 1_555 1_555
C11 C10 1_555 1_555
H9 C11 1_555 1_555
C12 C11 1_555 1_555
H10 C12 1_555 1_555
C13 C12 1_555 1_555
H11 C13 1_555 1_555
C14 N2 1_555 1_555
C15 N3 1_555 1_555
C16 C15 1_555 1_555
H12 C16 1_555 1_555
C17 C16 1_555 1_555
H13 C17 1_555 1_555
C18 C17 1_555 1_555
H14 C18 1_555 1_555
C19 N3 1_555 1_555
H15 C19 1_555 1_555
C20 N4 1_555 1_555
H16 C20 1_555 1_555
C21 C20 1_555 1_555
H17 C21 1_555 1_555
C22 C21 1_555 1_555
H18 C22 1_555 1_555
C23 C22 1_555 1_555
H19 C23 1_555 1_555
C24 N4 1_555 1_555
C25 N5 1_555 1_555
C26 C25 1_555 1_555
H20 C26 1_555 1_555
C27 C26 1_555 1_555
H21 C27 1_555 1_555
C28 C27 1_555 1_555
H22 C28 1_555 1_555
C29 N5 1_555 1_555
H23 C29 1_555 1_555
O12 H24 1_555 1_555
H25 O12 1_555 1_555
O13 H26 1_555 1_555
H27 O13 1_555 1_555
O14 H28 1_555 1_555
H29 O14 1_555 1_555
O15 H30 1_555 1_555
H31 O15 1_555 1_555
Ni1A O4 1_555 1_555
O4A Ni1 1_555 1_555
C5 C6 1_555 1_555
C6 C7 1_555 1_555
C13 C14 1_555 1_555
C14 C15 1_555 1_555
C18 C19 1_555 1_555
C23 C24 1_555 1_555
C24 C25 1_555 1_555
C28 C29 1_555 1_555

#END
