
#######################################################################
#
#                 Cambridge Crystallographic Data Centre
#                                CCDC 
#
#######################################################################
#
# If this CIF has been generated from an entry in the Cambridge 
# Structural Database, then it will include bibliographic, chemical, 
# crystal, experimental, refinement or atomic coordinate data resulting 
# from the CCDC's data processing and validation procedures.
#
#######################################################################

data_FUFXEK
_symmetry_cell_setting           monoclinic
_symmetry_space_group_name_H-M   'C 2/c'
_symmetry_Int_Tables_number      15
_space_group_name_Hall           '-C 2yn'
loop_
_symmetry_equiv_pos_site_id
_symmetry_equiv_pos_as_xyz
1 x,y,z
2 -x,y,1/2-z
3 1/2+x,1/2+y,z
4 1/2-x,1/2+y,1/2-z
5 -x,-y,-z
6 x,-y,1/2+z
7 1/2-x,1/2-y,-z
8 1/2+x,1/2-y,1/2+z
_cell_length_a                   28.1460(18)
_cell_length_b                   14.9274(11)
_cell_length_c                   19.5665(11)
_cell_angle_alpha                90
_cell_angle_beta                 105.331(1)
_cell_angle_gamma                90
_cell_volume                     7928.26
loop_
_atom_site_label
_atom_site_type_symbol
_atom_site_fract_x
_atom_site_fract_y
_atom_site_fract_z
Sm1 Sm 0.005826(5) 1.021410(10) 0.611730(7)
S1 S -0.17522(3) 0.87102(7) 0.55840(5)
S2 S -0.05175(4) 0.61809(7) 0.56692(9)
S3 S 0.21469(4) 0.83961(8) 0.66268(7)
O1 O -0.05001(8) 1.00709(17) 0.68346(12)
O2 O -0.05765(9) 0.95214(19) 0.78558(11)
O3 O -0.17421(11) 0.8916(3) 0.48757(14)
O4 O -0.17023(13) 0.7797(2) 0.5800(2)
O5 O -0.02475(10) 0.86774(16) 0.59198(13)
O6 O -0.01500(9) 0.89471(18) 0.48622(14)
O7 O -0.05701(18) 0.5689(3) 0.5030(3)
O8 O -0.07075(17) 0.5814(3) 0.6210(3)
O9 O 0.07792(9) 0.96234(19) 0.58318(12)
O10 O 0.07695(8) 0.96226(16) 0.46828(11)
O11 O 0.21501(13) 0.8157(3) 0.7333(2)
O12 O 0.22728(14) 0.7741(3) 0.6184(3)
N1 N -0.13397(12) 0.9320(3) 0.60949(15)
H1 H -0.1173 0.9581 0.5909
N2 N -0.07838(12) 0.7130(2) 0.5473(2)
H2 H -0.0965 0.7245 0.5629
N3 N 0.16005(11) 0.8738(3) 0.62479(17)
H3 H 0.1467 0.8841 0.6488
N4 N 0.07469(12) 1.1410(2) 0.67169(17)
N5 N -0.02280(13) 1.1824(2) 0.63972(16)
C1 C -0.07041(11) 0.9612(2) 0.72001(16)
C2 C -0.11616(18) 0.9082(5) 0.6836(2)
H4 H -0.1086 0.8447 0.6875
H5 H -0.1418 0.9196 0.7072
C3 C -0.23091(13) 0.9094(3) 0.57246(19)
C4 C -0.2390(2) 0.9989(4) 0.5806(3)
H6 H -0.2139 1.0404 0.5832
C5 C -0.2859(3) 1.0271(5) 0.5850(4)
H7 H -0.2924 1.0878 0.5887
C6 C -0.3210(3) 0.9666(6) 0.5837(4)
H8 H -0.3513 0.9858 0.5889
C7 C -0.31384(19) 0.8791(6) 0.5752(3)
H9 H -0.3394 0.8388 0.5729
C8 C -0.26818(16) 0.8482(4) 0.5697(2)
H10 H -0.2629 0.7874 0.5643
C9 C -0.03208(11) 0.8490(2) 0.52807(17)
C10 C -0.06576(14) 0.7722(2) 0.49689(19)
H11 H -0.0960 0.7968 0.4667
H12 H -0.0501 0.7373 0.4671
C11 C 0.0107(3) 0.6395(5) 0.5974(5)
C12 C 0.0409(3) 0.6301(5) 0.5536(4)
H13 H 0.0277 0.6104 0.5074
C13 C 0.0906(3) 0.6492(5) 0.5764(5)
H14 H 0.1111 0.6454 0.5462
C14 C 0.1075(3) 0.6736(5) 0.6445(5)
H15 H 0.1412 0.6838 0.6605
C15 C 0.0833(3) 0.6841(5) 0.6889(5)
H16 H 0.0985 0.7027 0.7349
C16 C 0.0284(3) 0.6658(5) 0.6656(5)
H17 H 0.0082 0.6723 0.6960
C17 C 0.09554(11) 0.9450(2) 0.53290(15)
C18 C 0.14478(13) 0.8976(3) 0.55057(18)
H18 H 0.1423 0.8438 0.5220
H19 H 0.1693 0.9363 0.5394
C19 C 0.2537(2) 0.9316(6) 0.6640(4)
C20 C 0.2795(2) 0.9403(6) 0.6139(4)
H20 H 0.2774 0.8960 0.5798
C21 C 0.3087(3) 1.0151(5) 0.6141(4)
H21 H 0.3268 1.0215 0.5810
C22 C 0.3101(2) 1.0784(6) 0.6642(4)
H22 H 0.3278 1.1307 0.6628
C23 C 0.2865(2) 1.0689(6) 0.7171(4)
H23 H 0.2898 1.1124 0.7521
C24 C 0.2576(3) 0.9932(5) 0.7175(4)
H24 H 0.2415 0.9846 0.7528
C25 C 0.12225(17) 1.1211(4) 0.6890(3)
H25 H 0.1315 1.0616 0.6868
C26 C 0.1592(2) 1.1862(6) 0.7105(4)
H26 H 0.1923 1.1697 0.7227
C27 C 0.1463(3) 1.2729(5) 0.7133(3)
H27 H 0.1706 1.3165 0.7271
C28 C 0.0968(2) 1.2976(4) 0.6956(3)
C29 C 0.0809(3) 1.3873(4) 0.6961(3)
H28 H 0.1042 1.4327 0.7092
C30 C 0.0334(4) 1.4078(4) 0.6784(3)
H29 H 0.0241 1.4676 0.6786
C31 C -0.0040(3) 1.3403(3) 0.6590(2)
C32 C -0.0550(3) 1.3581(3) 0.6422(3)
H30 H -0.0662 1.4169 0.6414
C33 C -0.0874(2) 1.2904(3) 0.6273(3)
H31 H -0.1210 1.3015 0.6177
C34 C -0.07010(18) 1.2029(3) 0.6263(2)
H32 H -0.0930 1.1566 0.6158
C35 C 0.01047(18) 1.2501(2) 0.65753(18)
C36 C 0.06187(18) 1.2279(3) 0.67563(19)
Sm1A Sm -0.005826(5) 1.021410(10) 0.888270(7)
Sm1D Sm -0.005826(5) 0.978590(10) 0.388270(7)
O2A O 0.05765(9) 0.95214(19) 0.71442(11)
O6D O 0.01500(9) 1.10529(18) 0.51378(14)
O10D O -0.07695(8) 1.03774(16) 0.53172(11)
O13 O 0.2053(8) 0.7786(17) 0.4560(14)
H33 H 0.2118 0.7694 0.4995
H34 H 0.1867 0.7400 0.4334
loop_
_geom_bond_atom_site_label_1
_geom_bond_atom_site_label_2
_geom_bond_site_symmetry_1
_geom_bond_site_symmetry_2
Sm1 O1 1_555 1_555
S1 O3 1_555 1_555
S2 O7 1_555 1_555
S3 O11 1_555 1_555
O1 C1 1_555 1_555
O2 C1 1_555 1_555
O4 S1 1_555 1_555
O5 Sm1 1_555 1_555
O6 C9 1_555 1_555
O8 S2 1_555 1_555
O9 Sm1 1_555 1_555
O10 C17 1_555 1_555
O12 S3 1_555 1_555
N1 S1 1_555 1_555
H1 N1 1_555 1_555
N2 S2 1_555 1_555
H2 N2 1_555 1_555
N3 S3 1_555 1_555
H3 N3 1_555 1_555
N4 Sm1 1_555 1_555
N5 Sm1 1_555 1_555
C1 C2 1_555 1_555
C2 N1 1_555 1_555
H4 C2 1_555 1_555
H5 C2 1_555 1_555
C3 S1 1_555 1_555
C4 C3 1_555 1_555
H6 C4 1_555 1_555
C5 C4 1_555 1_555
H7 C5 1_555 1_555
C6 C5 1_555 1_555
H8 C6 1_555 1_555
C7 C6 1_555 1_555
H9 C7 1_555 1_555
C8 C3 1_555 1_555
H10 C8 1_555 1_555
C9 O5 1_555 1_555
C10 N2 1_555 1_555
H11 C10 1_555 1_555
H12 C10 1_555 1_555
C11 S2 1_555 1_555
C12 C11 1_555 1_555
H13 C12 1_555 1_555
C13 C12 1_555 1_555
H14 C13 1_555 1_555
C14 C13 1_555 1_555
H15 C14 1_555 1_555
C15 C14 1_555 1_555
H16 C15 1_555 1_555
C16 C11 1_555 1_555
H17 C16 1_555 1_555
C17 O9 1_555 1_555
C18 N3 1_555 1_555
H18 C18 1_555 1_555
H19 C18 1_555 1_555
C19 S3 1_555 1_555
C20 C19 1_555 1_555
H20 C20 1_555 1_555
C21 C20 1_555 1_555
H21 C21 1_555 1_555
C22 C21 1_555 1_555
H22 C22 1_555 1_555
C23 C22 1_555 1_555
H23 C23 1_555 1_555
C24 C19 1_555 1_555
H24 C24 1_555 1_555
C25 N4 1_555 1_555
H25 C25 1_555 1_555
C26 C25 1_555 1_555
H26 C26 1_555 1_555
C27 C26 1_555 1_555
H27 C27 1_555 1_555
C28 C27 1_555 1_555
C29 C28 1_555 1_555
H28 C29 1_555 1_555
C30 C29 1_555 1_555
H29 C30 1_555 1_555
C31 C30 1_555 1_555
C32 C31 1_555 1_555
H30 C32 1_555 1_555
C33 C32 1_555 1_555
H31 C33 1_555 1_555
C34 N5 1_555 1_555
H32 C34 1_555 1_555
C35 N5 1_555 1_555
C36 N4 1_555 1_555
O13 H33 1_555 1_555
H34 O13 1_555 1_555
Sm1A O2 1_555 1_555
Sm1D O6 1_555 1_555
O2A Sm1 1_555 1_555
O6D Sm1 1_555 1_555
O10D Sm1 1_555 1_555
O10 Sm1D 1_555 1_555
C7 C8 1_555 1_555
C9 C10 1_555 1_555
C15 C16 1_555 1_555
C17 C18 1_555 1_555
C23 C24 1_555 1_555
C28 C36 1_555 1_555
C31 C35 1_555 1_555
C33 C34 1_555 1_555
C35 C36 1_555 1_555

#END
