
#######################################################################
#
#                 Cambridge Crystallographic Data Centre
#                                CCDC 
#
#######################################################################
#
# If this CIF has been generated from an entry in the Cambridge 
# Structural Database, then it will include bibliographic, chemical, 
# crystal, experimental, refinement or atomic coordinate data resulting 
# from the CCDC's data processing and validation procedures.
#
#######################################################################

data_FUFXUA
_symmetry_cell_setting           triclinic
_symmetry_space_group_name_H-M   'P -1'
_symmetry_Int_Tables_number      2
_space_group_name_Hall           '-P 1'
loop_
_symmetry_equiv_pos_site_id
_symmetry_equiv_pos_as_xyz
1 x,y,z
2 -x,-y,-z
_cell_length_a                   7.1128(12)
_cell_length_b                   7.6024(13)
_cell_length_c                   10.2316(17)
_cell_angle_alpha                75.345(2)
_cell_angle_beta                 71.203(2)
_cell_angle_gamma                87.880(2)
_cell_volume                     506.12
loop_
_atom_site_label
_atom_site_type_symbol
_atom_site_fract_x
_atom_site_fract_y
_atom_site_fract_z
Dy1 Dy 0.314103(18) 0.220002(16) 1.013710(13)
C1 C 0.3799(4) 0.0338(4) 0.7899(3)
C2 C 0.4398(5) 0.0113(4) 0.6417(3)
C3 C 0.3207(5) 0.0730(5) 0.5567(4)
H1 H 0.1997 0.1222 0.5947
C4 C 0.6204(5) -0.0623(5) 0.5833(4)
H2 H 0.7016 -0.1044 0.6389
C5 C 0.7141(4) 0.4839(4) 0.7778(3)
C6 C 0.8615(5) 0.4937(4) 0.6331(3)
C7 C 0.8306(5) 0.3873(5) 0.5492(4)
H3 H 0.7160 0.3120 0.5822
C8 C 1.0314(5) 0.6080(5) 0.5834(4)
H4 H 1.0525 0.6807 0.6385
C9 C -0.0808(4) 0.4301(4) 1.0568(3)
O1 O 0.4740(3) -0.0361(3) 0.8747(2)
O2 O 0.2402(3) 0.1371(3) 0.8273(2)
O3 O 0.6163(3) 0.3345(3) 0.8441(2)
O4 O 0.6987(4) 0.6211(3) 0.8257(2)
O5 O -0.0276(3) 0.2709(3) 1.0912(3)
O6 O -0.2488(3) 0.4888(3) 1.1047(2)
O7 O 0.1368(3) -0.0470(3) 1.1632(3)
H5 H 0.0210 -0.0729 1.1642
H6 H 0.1992 -0.1448 1.1674
Dy1A Dy -0.314103(18) 0.779998(16) 0.986290(13)
Dy1_2 Dy 0.314103(18) 0.220002(16) 0.013710(13)
Dy1_3 Dy 1.314103(18) 0.220002(16) 0.013710(13)
Dy1A_2 Dy 0.685897(18) -0.220002(16) -0.013710(13)
Dy1A_3 Dy 0.685897(18) -0.220002(16) 0.986290(13)
Dy1A_4 Dy 0.685897(18) 0.779998(16) 0.986290(13)
Dy1A_5 Dy 1.685897(18) 0.779998(16) -0.013710(13)
C1A C 0.6201(4) -0.0338(4) 0.2101(3)
C2A C 0.5602(5) -0.0113(4) 0.3583(3)
C3A C 0.6793(5) -0.0730(5) 0.4433(4)
H1A H 0.8003 -0.1222 0.4053
C4A C 0.3796(5) 0.0623(5) 0.4167(4)
H2A H 0.2984 0.1044 0.3611
C5A C 1.2859(4) 0.5161(4) 0.2222(3)
C6A C 1.1385(5) 0.5063(4) 0.3669(3)
C7A C 1.1694(5) 0.6127(5) 0.4508(4)
H3A H 1.2840 0.6880 0.4178
C8A C 0.9686(5) 0.3920(5) 0.4166(4)
H4A H 0.9475 0.3193 0.3615
C9A C 0.0808(4) 0.5699(4) 0.9432(3)
O1A O 0.5260(3) 0.0361(3) 0.1253(2)
O1_2 O -0.5260(3) 0.9639(3) 0.8747(2)
O1A_2 O 0.5260(3) 0.0361(3) 1.1253(2)
O1A_3 O -0.4740(3) 1.0361(3) 1.1253(2)
O2A O 0.7598(3) -0.1371(3) 0.1727(2)
O2A_2 O -0.2402(3) 0.8629(3) 1.1727(2)
O3A O 1.3837(3) 0.6655(3) 0.1559(2)
O3A_2 O -0.6163(3) 0.6655(3) 1.1559(2)
O4A O 1.3013(4) 0.3789(3) 0.1743(2)
O4_2 O -0.3013(4) 0.6211(3) 0.8257(2)
O4A_2 O 0.3013(4) 0.3789(3) 1.1743(2)
O5A O 0.0276(3) 0.7291(3) 0.9088(3)
O6A O 0.2488(3) 0.5112(3) 0.8953(2)
O7A O -0.1368(3) 1.0470(3) 0.8368(3)
H5A H -0.0210 1.0729 0.8358
H6A H -0.1992 1.1448 0.8326
loop_
_geom_bond_atom_site_label_1
_geom_bond_atom_site_label_2
_geom_bond_site_symmetry_1
_geom_bond_site_symmetry_2
Dy1 O1 1_555 1_555
C1 C2 1_555 1_555
C2 C3 1_555 1_555
C3 H1 1_555 1_555
C4 C2 1_555 1_555
H2 C4 1_555 1_555
C5 C6 1_555 1_555
C6 C7 1_555 1_555
C7 H3 1_555 1_555
C8 C6 1_555 1_555
H4 C8 1_555 1_555
C9 O5 1_555 1_555
O1 C1 1_555 1_555
O2 Dy1 1_555 1_555
O3 Dy1 1_555 1_555
O4 C5 1_555 1_555
O5 Dy1 1_555 1_555
O6 C9 1_555 1_555
O7 Dy1 1_555 1_555
H5 O7 1_555 1_555
H6 O7 1_555 1_555
Dy1A O6 1_555 1_555
Dy1_2 O1A 1_555 1_555
Dy1_3 O4A 1_555 1_555
Dy1A_2 O1A 1_555 1_555
Dy1A_3 O1 1_555 1_555
Dy1A_4 O4 1_555 1_555
Dy1A_5 O3A 1_555 1_555
C1A C2A 1_555 1_555
C2A C3A 1_555 1_555
C3A C4 1_555 1_555
H1A C3A 1_555 1_555
C4A C3 1_555 1_555
H2A C4A 1_555 1_555
C5A C6A 1_555 1_555
C6A C7A 1_555 1_555
C7A C8 1_555 1_555
H3A C7A 1_555 1_555
C8A C7 1_555 1_555
H4A C8A 1_555 1_555
C9A C9 1_555 1_555
O1A C1A 1_555 1_555
O1_2 Dy1A 1_555 1_555
O1A_2 Dy1 1_555 1_555
O1A_3 Dy1A 1_555 1_555
O2A Dy1A_2 1_555 1_555
O2A_2 Dy1A 1_555 1_555
O3A C5A 1_555 1_555
O3A_2 Dy1A 1_555 1_555
O4A C5A 1_555 1_555
O4_2 Dy1A 1_555 1_555
O4A_2 Dy1 1_555 1_555
O5A Dy1A 1_555 1_555
O6A Dy1 1_555 1_555
O7A Dy1A 1_555 1_555
H5A O7A 1_555 1_555
H6A O7A 1_555 1_555
C1 O2 1_555 1_555
C5 O3 1_555 1_555
Dy1A_3 O1A_2 1_555 1_555
C1A O2A 1_555 1_555
C2A C4A 1_555 1_555
C6A C8A 1_555 1_555
C9A O5A 1_555 1_555
C9A O6A 1_555 1_555

#END
