
#######################################################################
#
#                 Cambridge Crystallographic Data Centre
#                                CCDC 
#
#######################################################################
#
# If this CIF has been generated from an entry in the Cambridge 
# Structural Database, then it will include bibliographic, chemical, 
# crystal, experimental, refinement or atomic coordinate data resulting 
# from the CCDC's data processing and validation procedures.
#
#######################################################################

data_FUFXOU
_symmetry_cell_setting           monoclinic
_symmetry_space_group_name_H-M   'C 2/c'
_symmetry_Int_Tables_number      15
_space_group_name_Hall           '-C 2yn'
loop_
_symmetry_equiv_pos_site_id
_symmetry_equiv_pos_as_xyz
1 x,y,z
2 -x,y,1/2-z
3 1/2+x,1/2+y,z
4 1/2-x,1/2+y,1/2-z
5 -x,-y,-z
6 x,-y,1/2+z
7 1/2-x,1/2-y,-z
8 1/2+x,1/2-y,1/2+z
_cell_length_a                   22.853(2)
_cell_length_b                   4.7321(4)
_cell_length_c                   14.4504(12)
_cell_angle_alpha                90
_cell_angle_beta                 113.9120(10)
_cell_angle_gamma                90
_cell_volume                     1428.58
loop_
_atom_site_label
_atom_site_type_symbol
_atom_site_fract_x
_atom_site_fract_y
_atom_site_fract_z
Pb1 Pb 0.5000 0.43941(6) 0.7500
Pb2 Pb 0.302120(10) -0.36347(4) 0.896830(15)
C1 C 0.4178(3) 0.0060(11) 0.8440(5)
H1 H 0.4385 0.0696 0.9103
C2 C 0.3539(2) -0.2262(11) 0.7138(4)
C3 C 0.3911(3) -0.0478(10) 0.6837(4)
C4 C 0.3036(3) -0.4363(11) 0.6605(4)
C5 C 0.3905(3) 0.0447(11) 0.5849(4)
N1 N 0.4316(2) 0.1002(9) 0.7679(4)
N2 N 0.3716(2) -0.1869(10) 0.8159(3)
O1 O 0.3493(2) -0.0523(8) 0.5029(3)
O2 O 0.43061(18) 0.2318(8) 0.5864(3)
O3 O 0.2981(2) -0.5517(8) 0.5810(3)
O4 O 0.2681(2) -0.5011(8) 0.7067(3)
Pb2A Pb 0.697880(10) -0.36347(4) 0.603170(15)
Pb2E Pb 0.302120(10) 0.36347(4) 0.396830(15)
Pb2E_2 Pb 0.302120(10) -0.63653(4) 0.396830(15)
Pb2C Pb 0.197880(10) -0.86347(4) 0.603170(15)
Pb2D Pb 0.697880(10) 0.36347(4) 1.103170(15)
Pb2D_2 Pb 0.697880(10) -0.63653(4) 1.103170(15)
Pb2B Pb 0.802120(10) -0.86347(4) 0.896830(15)
C1A C 0.5822(3) 0.0060(11) 0.6560(5)
H1A H 0.5615 0.0696 0.5897
C2A C 0.6461(2) -0.2262(11) 0.7862(4)
C3A C 0.6089(3) -0.0478(10) 0.8163(4)
C4A C 0.6964(3) -0.4363(11) 0.8395(4)
C5A C 0.6095(3) 0.0447(11) 0.9151(4)
N1A N 0.5684(2) 0.1002(9) 0.7321(4)
N2A N 0.6284(2) -0.1869(10) 0.6841(3)
O1A O 0.6507(2) -0.0523(8) 0.9971(3)
O1E O 0.3493(2) 0.0523(8) 1.0029(3)
O1D O 0.6507(2) 0.0523(8) 0.4971(3)
O2A O 0.56939(18) 0.2318(8) 0.9136(3)
O3A O 0.7019(2) -0.5517(8) 0.9190(3)
O3E O 0.2981(2) -0.4483(8) 1.0810(3)
O3D O 0.7019(2) -0.4483(8) 0.4190(3)
O4A O 0.7319(2) -0.5011(8) 0.7933(3)
O4C O 0.2319(2) -0.0011(8) 0.7933(3)
O4B O 0.7681(2) -0.0011(8) 0.7067(3)
loop_
_geom_bond_atom_site_label_1
_geom_bond_atom_site_label_2
_geom_bond_site_symmetry_1
_geom_bond_site_symmetry_2
Pb1 N1 1_555 1_555
Pb2 N2 1_555 1_555
C1 H1 1_555 1_555
C2 C3 1_555 1_555
C3 C5 1_555 1_555
C4 C2 1_555 1_555
C5 O1 1_555 1_555
N1 C1 1_555 1_555
N2 C1 1_555 1_555
O1 Pb2E 1_555 1_555
O2 Pb1 1_555 1_555
O3 C4 1_555 1_555
O4 Pb2 1_555 1_555
Pb2A N2A 1_555 1_555
Pb2E_2 O3 1_555 1_555
Pb2C O4 1_555 1_555
Pb2D O1A 1_555 1_555
Pb2D_2 O3A 1_555 1_555
Pb2B O4A 1_555 1_555
C1A H1A 1_555 1_555
C2A C3A 1_555 1_555
C3A C5A 1_555 1_555
C4A C2A 1_555 1_555
C5A O1A 1_555 1_555
N1A Pb1 1_555 1_555
N2A C1A 1_555 1_555
O1E Pb2 1_555 1_555
O1D Pb2A 1_555 1_555
O2A Pb1 1_555 1_555
O3A C4A 1_555 1_555
O3E Pb2 1_555 1_555
O3D Pb2A 1_555 1_555
O4A Pb2A 1_555 1_555
O4C Pb2 1_555 1_555
O4B Pb2A 1_555 1_555
C2 N2 1_555 1_555
C3 N1 1_555 1_555
C4 O4 1_555 1_555
C5 O2 1_555 1_555
C1A N1A 1_555 1_555
C2A N2A 1_555 1_555
C3A N1A 1_555 1_555
C4A O4A 1_555 1_555
C5A O2A 1_555 1_555

#END
