
#######################################################################
#
#                 Cambridge Crystallographic Data Centre
#                                CCDC 
#
#######################################################################
#
# If this CIF has been generated from an entry in the Cambridge 
# Structural Database, then it will include bibliographic, chemical, 
# crystal, experimental, refinement or atomic coordinate data resulting 
# from the CCDC's data processing and validation procedures.
#
#######################################################################

data_FUFYEL02
_symmetry_cell_setting           monoclinic
_symmetry_space_group_name_H-M   'P 21/n'
_symmetry_Int_Tables_number      14
_space_group_name_Hall           '-P 2yn'
loop_
_symmetry_equiv_pos_site_id
_symmetry_equiv_pos_as_xyz
1 x,y,z
2 1/2-x,1/2+y,1/2-z
3 -x,-y,-z
4 1/2+x,1/2-y,1/2+z
_cell_length_a                   8.273(4)
_cell_length_b                   5.012(3)
_cell_length_c                   12.285(6)
_cell_angle_alpha                90
_cell_angle_beta                 90.908(10)
_cell_angle_gamma                90
_cell_volume                     509.325
loop_
_atom_site_label
_atom_site_type_symbol
_atom_site_fract_x
_atom_site_fract_y
_atom_site_fract_z
Co1 Co 0.5000 0.0000 0.5000
O1 O -0.1151(12) -0.168(2) 0.9290(8)
O2 O -0.0532(13) 0.234(2) 0.8613(8)
N1 N 0.0561(17) -0.014(2) 0.6705(13)
N2 N 0.2767(14) 0.071(2) 0.5783(9)
C1 C -0.0731(17) -0.016(3) 0.8527(15)
C2 C -0.0510(19) -0.149(3) 0.7436(12)
H1 H -0.0102 -0.3278 0.7560
H2 H -0.1561 -0.1651 0.7081
C3 C 0.2080(16) -0.089(3) 0.6481(12)
H3 H 0.2586 -0.2371 0.6786
C4 C 0.164(2) 0.264(3) 0.5549(15)
H4 H 0.1797 0.4081 0.5086
C5 C 0.0258(18) 0.210(3) 0.6104(12)
H5 H -0.0700 0.3071 0.6076
Co1A Co 0.0000 -0.5000 1.0000
Co1A_2 Co 0.0000 0.5000 1.0000
Co1A_3 Co 1.0000 -0.5000 0.0000
Co1A_4 Co 1.0000 0.5000 0.0000
O1B O 1.1151(12) 0.168(2) 0.0710(8)
O1A O 0.6151(12) 0.332(2) 0.5710(8)
O1C O 0.3849(12) -0.332(2) 0.4290(8)
O2B O 1.0532(13) -0.234(2) 0.1387(8)
O2A O 0.5532(13) -0.266(2) 0.6387(8)
O2C O 0.4468(13) 0.266(2) 0.3613(8)
N1B N 0.9439(17) 0.014(2) 0.3295(13)
N2B N 0.7233(14) -0.071(2) 0.4217(9)
C1B C 1.0731(17) 0.016(3) 0.1473(15)
C2B C 1.0510(19) 0.149(3) 0.2564(12)
H1B H 1.0102 0.3278 0.2440
H2B H 1.1561 0.1651 0.2919
C3B C 0.7920(16) 0.089(3) 0.3519(12)
H3B H 0.7414 0.2371 0.3214
C4B C 0.836(2) -0.264(3) 0.4451(15)
H4B H 0.8203 -0.4081 0.4914
C5B C 0.9742(18) -0.210(3) 0.3896(12)
H5B H 1.0700 -0.3071 0.3924
loop_
_geom_bond_atom_site_label_1
_geom_bond_atom_site_label_2
_geom_bond_site_symmetry_1
_geom_bond_site_symmetry_2
Co1 N2 1_555 1_555
O1 C1 1_555 1_555
O2 C1 1_555 1_555
N1 C2 1_555 1_555
N2 C3 1_555 1_555
C1 C2 1_555 1_555
C2 H1 1_555 1_555
H2 C2 1_555 1_555
C3 N1 1_555 1_555
H3 C3 1_555 1_555
C4 N2 1_555 1_555
H4 C4 1_555 1_555
C5 N1 1_555 1_555
H5 C5 1_555 1_555
Co1A O1 1_555 1_555
Co1A_2 O2 1_555 1_555
Co1A_3 O2B 1_555 1_555
Co1A_4 O1B 1_555 1_555
O1B C1B 1_555 1_555
O1A Co1 1_555 1_555
O1C Co1 1_555 1_555
O2B C1B 1_555 1_555
O2A Co1 1_555 1_555
O2C Co1 1_555 1_555
N1B C2B 1_555 1_555
N2B Co1 1_555 1_555
C1B C2B 1_555 1_555
C2B H1B 1_555 1_555
H2B C2B 1_555 1_555
C3B N1B 1_555 1_555
H3B C3B 1_555 1_555
C4B N2B 1_555 1_555
H4B C4B 1_555 1_555
C5B N1B 1_555 1_555
H5B C5B 1_555 1_555
C4 C5 1_555 1_555
N2B C3B 1_555 1_555
C4B C5B 1_555 1_555

#END
