
#######################################################################
#
#                 Cambridge Crystallographic Data Centre
#                                CCDC 
#
#######################################################################
#
# If this CIF has been generated from an entry in the Cambridge 
# Structural Database, then it will include bibliographic, chemical, 
# crystal, experimental, refinement or atomic coordinate data resulting 
# from the CCDC's data processing and validation procedures.
#
#######################################################################

data_FUFYEL03
_symmetry_cell_setting           monoclinic
_symmetry_space_group_name_H-M   'P 21/n'
_symmetry_Int_Tables_number      14
_space_group_name_Hall           '-P 2yn'
loop_
_symmetry_equiv_pos_site_id
_symmetry_equiv_pos_as_xyz
1 x,y,z
2 1/2-x,1/2+y,1/2-z
3 -x,-y,-z
4 1/2+x,1/2-y,1/2+z
_cell_length_a                   8.2681(17)
_cell_length_b                   5.0123(9)
_cell_length_c                   12.255(2)
_cell_angle_alpha                90
_cell_angle_beta                 91.496(5)
_cell_angle_gamma                90
_cell_volume                     507.701
loop_
_atom_site_label
_atom_site_type_symbol
_atom_site_fract_x
_atom_site_fract_y
_atom_site_fract_z
Co1 Co 0.5000 0.5000 0.5000
O1 O 1.11568(16) 0.6670(3) 0.07182(10)
O2 O 1.05481(17) 0.2654(3) 0.13917(10)
N1 N 0.9431(2) 0.5127(3) 0.33042(13)
N2 N 0.7211(2) 0.4270(4) 0.42039(12)
C1 C 1.0726(2) 0.5123(4) 0.14631(15)
C2 C 1.0540(2) 0.6466(4) 0.25791(15)
H1 H 1.1607 0.6565 0.2944
H2 H 1.0160 0.8299 0.2461
C3 C 0.9729(3) 0.2860(4) 0.38929(16)
H3 H 1.0691 0.1859 0.3916
C4 C 0.8354(3) 0.2343(4) 0.44397(15)
H4 H 0.8205 0.0885 0.4909
C5 C 0.7915(2) 0.5913(4) 0.35147(15)
H5 H 0.7418 0.7438 0.3211
Co1A Co 1.0000 1.0000 0.0000
Co1A_2 Co 1.0000 0.0000 0.0000
Co1A_3 Co 0.0000 1.0000 1.0000
Co1A_4 Co 0.0000 0.0000 1.0000
O1C O 0.61568(16) 0.8330(3) 0.57182(10)
O1A O 0.38432(16) 0.1670(3) 0.42818(10)
O1B O -0.11568(16) 0.3330(3) 0.92818(10)
O2C O 0.55481(17) 0.2346(3) 0.63917(10)
O2A O 0.44519(17) 0.7654(3) 0.36083(10)
O2B O -0.05481(17) 0.7346(3) 0.86083(10)
N1B N 0.0569(2) 0.4873(3) 0.66958(13)
N2B N 0.2789(2) 0.5730(4) 0.57961(12)
C1B C -0.0726(2) 0.4877(4) 0.85369(15)
C2B C -0.0540(2) 0.3534(4) 0.74209(15)
H1B H -0.1607 0.3435 0.7056
H2B H -0.0160 0.1701 0.7539
C3B C 0.0271(3) 0.7140(4) 0.61071(16)
H3B H -0.0691 0.8141 0.6084
C4B C 0.1646(3) 0.7657(4) 0.55603(15)
H4B H 0.1795 0.9115 0.5091
C5B C 0.2085(2) 0.4087(4) 0.64853(15)
H5B H 0.2582 0.2562 0.6789
loop_
_geom_bond_atom_site_label_1
_geom_bond_atom_site_label_2
_geom_bond_site_symmetry_1
_geom_bond_site_symmetry_2
Co1 N2 1_555 1_555
O1 C1 1_555 1_555
O2 C1 1_555 1_555
N1 C2 1_555 1_555
N2 C4 1_555 1_555
C1 C2 1_555 1_555
C2 H1 1_555 1_555
H2 C2 1_555 1_555
C3 N1 1_555 1_555
H3 C3 1_555 1_555
C4 C3 1_555 1_555
H4 C4 1_555 1_555
C5 N1 1_555 1_555
H5 C5 1_555 1_555
Co1A O1 1_555 1_555
Co1A_2 O2 1_555 1_555
Co1A_3 O2B 1_555 1_555
Co1A_4 O1B 1_555 1_555
O1C Co1 1_555 1_555
O1A Co1 1_555 1_555
O1B C1B 1_555 1_555
O2C Co1 1_555 1_555
O2A Co1 1_555 1_555
O2B C1B 1_555 1_555
N1B C2B 1_555 1_555
N2B Co1 1_555 1_555
C1B C2B 1_555 1_555
C2B H1B 1_555 1_555
H2B C2B 1_555 1_555
C3B N1B 1_555 1_555
H3B C3B 1_555 1_555
C4B N2B 1_555 1_555
H4B C4B 1_555 1_555
C5B N1B 1_555 1_555
H5B C5B 1_555 1_555
N2 C5 1_555 1_555
N2B C5B 1_555 1_555
C3B C4B 1_555 1_555

#END
