
#######################################################################
#
#                 Cambridge Crystallographic Data Centre
#                                CCDC 
#
#######################################################################
#
# If this CIF has been generated from an entry in the Cambridge 
# Structural Database, then it will include bibliographic, chemical, 
# crystal, experimental, refinement or atomic coordinate data resulting 
# from the CCDC's data processing and validation procedures.
#
#######################################################################

data_FUFYUB
_symmetry_cell_setting           orthorhombic
_symmetry_space_group_name_H-M   'P b c a'
_symmetry_Int_Tables_number      61
_space_group_name_Hall           '-P 2ac 2ab'
loop_
_symmetry_equiv_pos_site_id
_symmetry_equiv_pos_as_xyz
1 x,y,z
2 1/2-x,-y,1/2+z
3 -x,1/2+y,1/2-z
4 1/2+x,1/2-y,-z
5 -x,-y,-z
6 1/2+x,y,1/2-z
7 x,1/2-y,1/2+z
8 1/2-x,1/2+y,z
_cell_length_a                   9.035(4)
_cell_length_b                   15.188(6)
_cell_length_c                   18.556(7)
_cell_angle_alpha                90
_cell_angle_beta                 90
_cell_angle_gamma                90
_cell_volume                     2546.32
loop_
_atom_site_label
_atom_site_type_symbol
_atom_site_fract_x
_atom_site_fract_y
_atom_site_fract_z
Ag1 Ag 0.60110(7) 0.60171(5) 0.51698(3)
N1 N 0.5177(6) 0.6250(4) 0.6240(3)
N2 N 0.4261(7) 0.6635(4) 0.7632(3)
N3 N 0.8334(7) 0.4221(4) 0.9068(3)
N4 N 0.7495(6) 0.4621(4) 0.7658(3)
N5 N 0.5746(7) 0.5612(5) 0.8128(3)
H1 H 0.5330 0.5710 0.8510
C1 C 0.4145(8) 0.6856(5) 0.6372(4)
H2 H 0.3721 0.7158 0.5988
C2 C 0.3696(9) 0.7046(6) 0.7056(5)
H3 H 0.2974 0.7474 0.7125
C3 C 0.5257(7) 0.6012(4) 0.7511(4)
C4 C 0.5741(7) 0.5822(5) 0.6807(4)
H4 H 0.6462 0.5394 0.6735
C5 C 0.6845(7) 0.4989(5) 0.8220(3)
C6 C 0.7255(7) 0.4780(5) 0.8932(3)
H5 H 0.6753 0.5042 0.9314
C7 C 0.9000(7) 0.3833(5) 0.8487(4)
H6 H 0.9752 0.3424 0.8561
C8 C 0.8579(8) 0.4036(5) 0.7806(4)
H7 H 0.9056 0.3760 0.7424
Ag1A Ag 0.89890(7) 0.39829(5) 1.01698(3)
N3A N 0.6666(7) 0.5779(4) 0.4068(3)
Cl1 Cl 0.1976(2) 0.65255(13) 0.43336(10)
O1 O 0.1650(12) 0.7083(6) 0.4943(4)
O2 O 0.0655(9) 0.6109(6) 0.4123(6)
O3 O 0.2520(7) 0.7041(4) 0.3752(3)
O4 O 0.3014(9) 0.5867(5) 0.4522(5)
O5 O 0.3945(6) 0.6282(5) 0.9308(3)
H8 H 0.3715 0.6732 0.9023
H9 H 0.4249 0.6335 0.9762
loop_
_geom_bond_atom_site_label_1
_geom_bond_atom_site_label_2
_geom_bond_site_symmetry_1
_geom_bond_site_symmetry_2
Ag1 N1 1_555 1_555
N1 C1 1_555 1_555
N2 C2 1_555 1_555
N3 C6 1_555 1_555
N4 C5 1_555 1_555
N5 H1 1_555 1_555
C1 H2 1_555 1_555
C2 C1 1_555 1_555
H3 C2 1_555 1_555
C3 N2 1_555 1_555
C4 N1 1_555 1_555
H4 C4 1_555 1_555
C5 N5 1_555 1_555
C6 C5 1_555 1_555
H5 C6 1_555 1_555
C7 N3 1_555 1_555
H6 C7 1_555 1_555
C8 N4 1_555 1_555
H7 C8 1_555 1_555
Cl1 O1 1_555 1_555
O2 Cl1 1_555 1_555
O3 Cl1 1_555 1_555
O4 Cl1 1_555 1_555
O5 H8 1_555 1_555
H9 O5 1_555 1_555
Ag1A N3 1_555 1_555
N3A Ag1 1_555 1_555
N5 C3 1_555 1_555
C3 C4 1_555 1_555
C7 C8 1_555 1_555

#END
