
#######################################################################
#
#                 Cambridge Crystallographic Data Centre
#                                CCDC 
#
#######################################################################
#
# If this CIF has been generated from an entry in the Cambridge 
# Structural Database, then it will include bibliographic, chemical, 
# crystal, experimental, refinement or atomic coordinate data resulting 
# from the CCDC's data processing and validation procedures.
#
#######################################################################

data_FUGBIS
_symmetry_cell_setting           monoclinic
_symmetry_space_group_name_H-M   'P 21/c'
_symmetry_Int_Tables_number      14
_space_group_name_Hall           '-P 2ybc'
loop_
_symmetry_equiv_pos_site_id
_symmetry_equiv_pos_as_xyz
1 x,y,z
2 -x,1/2+y,1/2-z
3 -x,-y,-z
4 x,1/2-y,1/2+z
_cell_length_a                   4.545(1)
_cell_length_b                   16.050(6)
_cell_length_c                   11.477(5)
_cell_angle_alpha                90
_cell_angle_beta                 94.26(3)
_cell_angle_gamma                90
_cell_volume                     834.903
loop_
_atom_site_label
_atom_site_type_symbol
_atom_site_fract_x
_atom_site_fract_y
_atom_site_fract_z
Pb1 Pb 0.0000 0.00000 0.0000
I1 I 0.5344(3) -0.03056(8) 0.1935(1)
N1 N 0.004(4) -0.166(1) -0.045(2)
C1 C -0.113(5) -0.221(2) 0.019(2)
C2 C -0.101(5) -0.305(1) -0.002(2)
C3 C 0.032(6) -0.328(1) -0.091(3)
C4 C 0.161(6) -0.272(2) -0.164(2)
C5 C 0.142(5) -0.190(1) -0.133(2)
C6 C -0.254(7) -0.363(1) 0.072(3)
H1 H -0.210 -0.206 0.091
H2 H 0.048 -0.388 -0.107
H3 H 0.270 -0.292 -0.232
H4 H 0.243 -0.149 -0.179
H5 H -0.093 -0.387 0.126
H6 H -0.344 -0.322 0.128
H7 H -0.384 -0.402 0.083
I1_2 I -0.4656(3) -0.03056(8) 0.1935(1)
I1B I -0.5344(3) 0.03056(8) -0.1935(1)
I1B_2 I 0.4656(3) 0.03056(8) -0.1935(1)
N1B N -0.004(4) 0.166(1) 0.045(2)
Pb1_2 Pb 1.0000 0.00000 0.0000
Pb1_3 Pb -1.0000 0.00000 0.0000
C1B C 0.113(5) 0.221(2) -0.019(2)
C5B C -0.142(5) 0.190(1) 0.133(2)
C2B C 0.101(5) 0.305(1) 0.002(2)
H1B H 0.210 0.206 -0.091
C4B C -0.161(6) 0.272(2) 0.164(2)
H4B H -0.243 0.149 0.179
C3B C -0.032(6) 0.328(1) 0.091(3)
C6B C 0.254(7) 0.363(1) -0.072(3)
H3B H -0.270 0.292 0.232
H2B H -0.048 0.388 0.107
H5B H 0.093 0.387 -0.126
H6B H 0.344 0.322 -0.128
H7B H 0.384 0.402 -0.083
loop_
_geom_bond_atom_site_label_1
_geom_bond_atom_site_label_2
_geom_bond_site_symmetry_1
_geom_bond_site_symmetry_2
Pb1 I1 1_555 1_555
I1 Pb1_2 1_555 1_555
N1 Pb1 1_555 1_555
C1 N1 1_555 1_555
C2 C1 1_555 1_555
C3 C2 1_555 1_555
C4 C3 1_555 1_555
C5 N1 1_555 1_555
C6 C2 1_555 1_555
H1 C1 1_555 1_555
H2 C3 1_555 1_555
H3 C4 1_555 1_555
H4 C5 1_555 1_555
H5 C6 1_555 1_555
H6 C6 1_555 1_555
H7 C6 1_555 1_555
I1_2 Pb1 1_555 1_555
I1B Pb1 1_555 1_555
I1B_2 Pb1 1_555 1_555
N1B Pb1 1_555 1_555
Pb1_3 I1B 1_555 1_555
C1B N1B 1_555 1_555
C5B N1B 1_555 1_555
C2B C1B 1_555 1_555
H1B C1B 1_555 1_555
C4B C5B 1_555 1_555
H4B C5B 1_555 1_555
C3B C2B 1_555 1_555
C6B C2B 1_555 1_555
H3B C4B 1_555 1_555
H2B C3B 1_555 1_555
H5B C6B 1_555 1_555
H6B C6B 1_555 1_555
H7B C6B 1_555 1_555
C4 C5 1_555 1_555
C4B C3B 1_555 1_555

#END
