
#######################################################################
#
#                 Cambridge Crystallographic Data Centre
#                                CCDC 
#
#######################################################################
#
# If this CIF has been generated from an entry in the Cambridge 
# Structural Database, then it will include bibliographic, chemical, 
# crystal, experimental, refinement or atomic coordinate data resulting 
# from the CCDC's data processing and validation procedures.
#
#######################################################################

data_FUGBUE
_symmetry_cell_setting           triclinic
_symmetry_space_group_name_H-M   'P -1'
_symmetry_Int_Tables_number      2
_space_group_name_Hall           '-P 1'
loop_
_symmetry_equiv_pos_site_id
_symmetry_equiv_pos_as_xyz
1 x,y,z
2 -x,-y,-z
_cell_length_a                   10.513(4)
_cell_length_b                   9.580(6)
_cell_length_c                   4.369(2)
_cell_angle_alpha                91.08(4)
_cell_angle_beta                 92.22(3)
_cell_angle_gamma                118.52(4)
_cell_volume                     385.986
loop_
_atom_site_label
_atom_site_type_symbol
_atom_site_fract_x
_atom_site_fract_y
_atom_site_fract_z
Pb1 Pb 0.0000 0.0000 0.0000
Br1 Br 0.1858(4) 0.2198(4) -0.4758(8)
N1 N 0.145(4) -0.155(4) 0.003(5)
C1 C 0.265(6) -0.098(5) 0.164(10)
C2 C 0.361(4) -0.167(5) 0.181(9)
C3 C 0.325(4) -0.305(4) 0.034(7)
C4 C 0.199(5) -0.360(5) -0.109(9)
C5 C 0.112(5) -0.289(5) -0.105(10)
C6 C 0.416(5) -0.386(5) 0.061(9)
H1 H 0.298 0.0000 0.290
H2 H 0.455 -0.114 0.298
H3 H 0.161 -0.461 -0.226
H4 H 0.013 -0.352 -0.193
H5 H 0.407 -0.473 -0.055
H6 H 0.516 -0.307 0.039
H7 H 0.412 -0.422 0.270
Br1_2 Br 0.1858(4) 0.2198(4) 0.5242(8)
Br1A Br -0.1858(4) -0.2198(4) 0.4758(8)
Br1A_2 Br -0.1858(4) -0.2198(4) -0.5242(8)
N1A N -0.145(4) 0.155(4) -0.003(5)
Pb1_2 Pb 0.0000 0.0000 -1.0000
Pb1_3 Pb 0.0000 0.0000 1.0000
C1A C -0.265(6) 0.098(5) -0.164(10)
C5A C -0.112(5) 0.289(5) 0.105(10)
C2A C -0.361(4) 0.167(5) -0.181(9)
H1A H -0.298 0.0000 -0.290
C4A C -0.199(5) 0.360(5) 0.109(9)
H4A H -0.013 0.352 0.193
C3A C -0.325(4) 0.305(4) -0.034(7)
H2A H -0.455 0.114 -0.298
H3A H -0.161 0.461 0.226
C6A C -0.416(5) 0.386(5) -0.061(9)
H5A H -0.407 0.473 0.055
H6A H -0.516 0.307 -0.039
H7A H -0.412 0.422 -0.270
loop_
_geom_bond_atom_site_label_1
_geom_bond_atom_site_label_2
_geom_bond_site_symmetry_1
_geom_bond_site_symmetry_2
Pb1 Br1 1_555 1_555
Br1 Pb1_2 1_555 1_555
N1 Pb1 1_555 1_555
C1 N1 1_555 1_555
C2 C1 1_555 1_555
C3 C2 1_555 1_555
C4 C3 1_555 1_555
C5 N1 1_555 1_555
C6 C3 1_555 1_555
H1 C1 1_555 1_555
H2 C2 1_555 1_555
H3 C4 1_555 1_555
H4 C5 1_555 1_555
H5 C6 1_555 1_555
H6 C6 1_555 1_555
H7 C6 1_555 1_555
Br1_2 Pb1 1_555 1_555
Br1A Pb1 1_555 1_555
Br1A_2 Pb1 1_555 1_555
N1A Pb1 1_555 1_555
Pb1_3 Br1A 1_555 1_555
C1A N1A 1_555 1_555
C5A N1A 1_555 1_555
C2A C1A 1_555 1_555
H1A C1A 1_555 1_555
C4A C5A 1_555 1_555
H4A C5A 1_555 1_555
C3A C2A 1_555 1_555
H2A C2A 1_555 1_555
H3A C4A 1_555 1_555
C6A C3A 1_555 1_555
H5A C6A 1_555 1_555
H6A C6A 1_555 1_555
H7A C6A 1_555 1_555
C4 C5 1_555 1_555
C4A C3A 1_555 1_555

#END
