
#######################################################################
#
#                 Cambridge Crystallographic Data Centre
#                                CCDC 
#
#######################################################################
#
# If this CIF has been generated from an entry in the Cambridge 
# Structural Database, then it will include bibliographic, chemical, 
# crystal, experimental, refinement or atomic coordinate data resulting 
# from the CCDC's data processing and validation procedures.
#
#######################################################################

data_FUGBEO
_symmetry_cell_setting           monoclinic
_symmetry_space_group_name_H-M   'C 2/c'
_symmetry_Int_Tables_number      15
_space_group_name_Hall           '-C 2yn'
loop_
_symmetry_equiv_pos_site_id
_symmetry_equiv_pos_as_xyz
1 x,y,z
2 1/2+x,1/2+y,z
3 -x,y,1/2-z
4 1/2-x,1/2+y,1/2-z
5 -x,-y,-z
6 1/2-x,1/2-y,-z
7 x,-y,1/2+z
8 1/2+x,1/2-y,1/2+z
_cell_length_a                   14.77(2)
_cell_length_b                   13.54(2)
_cell_length_c                   8.04(1)
_cell_angle_alpha                90
_cell_angle_beta                 94.72(10)
_cell_angle_gamma                90
_cell_volume                     1602.43
loop_
_atom_site_label
_atom_site_type_symbol
_atom_site_fract_x
_atom_site_fract_y
_atom_site_fract_z
Pb1 Pb 0.0000 0.0713(1) 0.2500
Br1 Br 0.1219(1) 0.0728(2) -0.0305(2)
N1 N 0.089(1) 0.222(1) 0.379(2)
C1 C 0.093(1) 0.245(2) 0.540(3)
C2 C 0.138(1) 0.327(2) 0.612(3)
C3 C 0.183(2) 0.383(2) 0.508(3)
C4 C 0.180(2) 0.359(2) 0.345(3)
C5 C 0.137(1) 0.280(2) 0.284(2)
C6 C 0.134(2) 0.347(2) 0.794(3)
H1 H 0.061 0.202 0.616
H2 H 0.218 0.439 0.551
H3 H 0.210 0.401 0.268
H4 H 0.138 0.265 0.164
H5 H 0.107 0.304 0.858
H6 H 0.198 0.353 0.826
H7 H 0.107 0.411 0.796
Br1D Br -0.1219(1) -0.0728(2) 0.0305(2)
Br1B Br -0.1219(1) 0.0728(2) 0.5305(2)
Br1F Br 0.1219(1) -0.0728(2) 0.4695(2)
N1B N -0.089(1) 0.222(1) 0.121(2)
Pb1D Pb 0.0000 -0.0713(1) -0.2500
Pb1D_2 Pb 0.0000 -0.0713(1) 0.7500
C1B C -0.093(1) 0.245(2) -0.040(3)
C5B C -0.137(1) 0.280(2) 0.216(2)
Br1B_2 Br -0.1219(1) 0.0728(2) -0.4695(2)
Br1F_2 Br 0.1219(1) -0.0728(2) -0.5305(2)
N1D N -0.089(1) -0.222(1) -0.379(2)
N1F N 0.089(1) -0.222(1) -0.121(2)
C2B C -0.138(1) 0.327(2) -0.112(3)
H1B H -0.061 0.202 -0.116
C4B C -0.180(2) 0.359(2) 0.155(3)
H4B H -0.138 0.265 0.336
C1D C -0.093(1) -0.245(2) -0.540(3)
C5D C -0.137(1) -0.280(2) -0.284(2)
C1F C 0.093(1) -0.245(2) 0.040(3)
C5F C 0.137(1) -0.280(2) -0.216(2)
C3B C -0.183(2) 0.383(2) -0.008(3)
C6B C -0.134(2) 0.347(2) -0.294(3)
H3B H -0.210 0.401 0.232
C2D C -0.138(1) -0.327(2) -0.612(3)
H1D H -0.061 -0.202 -0.616
C4D C -0.180(2) -0.359(2) -0.345(3)
H4D H -0.138 -0.265 -0.164
C2F C 0.138(1) -0.327(2) 0.112(3)
H1F H 0.061 -0.202 0.116
C4F C 0.180(2) -0.359(2) -0.155(3)
H4F H 0.138 -0.265 -0.336
H2B H -0.218 0.439 -0.051
H5B H -0.107 0.304 -0.358
H6B H -0.198 0.353 -0.326
H7B H -0.107 0.411 -0.296
C3D C -0.183(2) -0.383(2) -0.508(3)
C6D C -0.134(2) -0.347(2) -0.794(3)
H3D H -0.210 -0.401 -0.268
C3F C 0.183(2) -0.383(2) 0.008(3)
C6F C 0.134(2) -0.347(2) 0.294(3)
H3F H 0.210 -0.401 -0.232
H2D H -0.218 -0.439 -0.551
H5D H -0.107 -0.304 -0.858
H6D H -0.198 -0.353 -0.826
H7D H -0.107 -0.411 -0.796
H2F H 0.218 -0.439 0.051
H5F H 0.107 -0.304 0.358
H6F H 0.198 -0.353 0.326
H7F H 0.107 -0.411 0.296
loop_
_geom_bond_atom_site_label_1
_geom_bond_atom_site_label_2
_geom_bond_site_symmetry_1
_geom_bond_site_symmetry_2
Pb1 Br1 1_555 1_555
Br1 Pb1D 1_555 1_555
N1 Pb1 1_555 1_555
C1 N1 1_555 1_555
C2 C1 1_555 1_555
C3 C2 1_555 1_555
C4 C3 1_555 1_555
C5 N1 1_555 1_555
C6 C2 1_555 1_555
H1 C1 1_555 1_555
H2 C3 1_555 1_555
H3 C4 1_555 1_555
H4 C5 1_555 1_555
H5 C6 1_555 1_555
H6 C6 1_555 1_555
H7 C6 1_555 1_555
Br1D Pb1 1_555 1_555
Br1B Pb1 1_555 1_555
Br1F Pb1 1_555 1_555
N1B Pb1 1_555 1_555
Pb1D Br1D 1_555 1_555
Pb1D_2 Br1B 1_555 1_555
C1B N1B 1_555 1_555
C5B N1B 1_555 1_555
Br1B_2 Pb1D 1_555 1_555
Br1F_2 Pb1D 1_555 1_555
N1D Pb1D 1_555 1_555
N1F Pb1D 1_555 1_555
C2B C1B 1_555 1_555
H1B C1B 1_555 1_555
C4B C5B 1_555 1_555
H4B C5B 1_555 1_555
C1D N1D 1_555 1_555
C5D N1D 1_555 1_555
C1F N1F 1_555 1_555
C5F N1F 1_555 1_555
C3B C2B 1_555 1_555
C6B C2B 1_555 1_555
H3B C4B 1_555 1_555
C2D C1D 1_555 1_555
H1D C1D 1_555 1_555
C4D C5D 1_555 1_555
H4D C5D 1_555 1_555
C2F C1F 1_555 1_555
H1F C1F 1_555 1_555
C4F C5F 1_555 1_555
H4F C5F 1_555 1_555
H2B C3B 1_555 1_555
H5B C6B 1_555 1_555
H6B C6B 1_555 1_555
H7B C6B 1_555 1_555
C3D C2D 1_555 1_555
C6D C2D 1_555 1_555
H3D C4D 1_555 1_555
C3F C2F 1_555 1_555
C6F C2F 1_555 1_555
H3F C4F 1_555 1_555
H2D C3D 1_555 1_555
H5D C6D 1_555 1_555
H6D C6D 1_555 1_555
H7D C6D 1_555 1_555
H2F C3F 1_555 1_555
H5F C6F 1_555 1_555
H6F C6F 1_555 1_555
H7F C6F 1_555 1_555
C4 C5 1_555 1_555
Br1F Pb1D_2 1_555 1_555
C4B C3B 1_555 1_555
C4D C3D 1_555 1_555
C4F C3F 1_555 1_555

#END
