
#######################################################################
#
#                 Cambridge Crystallographic Data Centre
#                                CCDC 
#
#######################################################################
#
# If this CIF has been generated from an entry in the Cambridge 
# Structural Database, then it will include bibliographic, chemical, 
# crystal, experimental, refinement or atomic coordinate data resulting 
# from the CCDC's data processing and validation procedures.
#
#######################################################################

data_FUGCAL01
_symmetry_cell_setting           monoclinic
_symmetry_space_group_name_H-M   'P 21/n'
_symmetry_Int_Tables_number      14
_space_group_name_Hall           '-P 2yn'
loop_
_symmetry_equiv_pos_site_id
_symmetry_equiv_pos_as_xyz
1 x,y,z
2 1/2-x,1/2+y,1/2-z
3 -x,-y,-z
4 1/2+x,1/2-y,1/2+z
_cell_length_a                   4.4721(6)
_cell_length_b                   9.7797(7)
_cell_length_c                   19.5149(16)
_cell_angle_alpha                90
_cell_angle_beta                 94.628(8)
_cell_angle_gamma                90
_cell_volume                     850.717
loop_
_atom_site_label
_atom_site_type_symbol
_atom_site_fract_x
_atom_site_fract_y
_atom_site_fract_z
Pb1 Pb 0.0000 0.0000 0.0000
I1 I -0.4676(2) 0.1354(1) 0.0970(1)
N1 N 0.024(3) -0.228(1) 0.078(1)
C1 C -0.078(5) -0.222(2) 0.140(1)
C2 C -0.073(5) -0.340(2) 0.185(1)
C3 C 0.058(4) -0.453(1) 0.161(1)
C4 C 0.145(5) -0.461(1) 0.099(1)
C5 C 0.148(5) -0.343(2) 0.061(1)
C6 C 0.085(6) -0.575(1) 0.213(1)
I1_2 I 0.5324(2) 0.1354(1) 0.0970(1)
I1B I 0.4676(2) -0.1354(1) -0.0970(1)
I1B_2 I -0.5324(2) -0.1354(1) -0.0970(1)
N1B N -0.024(3) 0.228(1) -0.078(1)
Pb1_2 Pb -1.0000 0.0000 0.0000
Pb1_3 Pb 1.0000 0.0000 0.0000
C1B C 0.078(5) 0.222(2) -0.140(1)
C5B C -0.148(5) 0.343(2) -0.061(1)
C2B C 0.073(5) 0.340(2) -0.185(1)
C4B C -0.145(5) 0.461(1) -0.099(1)
C3B C -0.058(4) 0.453(1) -0.161(1)
C6B C -0.085(6) 0.575(1) -0.213(1)
loop_
_geom_bond_atom_site_label_1
_geom_bond_atom_site_label_2
_geom_bond_site_symmetry_1
_geom_bond_site_symmetry_2
Pb1 I1 1_555 1_555
I1 Pb1_2 1_555 1_555
N1 Pb1 1_555 1_555
C1 N1 1_555 1_555
C2 C1 1_555 1_555
C3 C2 1_555 1_555
C4 C3 1_555 1_555
C5 N1 1_555 1_555
C6 C3 1_555 1_555
I1_2 Pb1 1_555 1_555
I1B Pb1 1_555 1_555
I1B_2 Pb1 1_555 1_555
N1B Pb1 1_555 1_555
Pb1_3 I1B 1_555 1_555
C1B N1B 1_555 1_555
C5B N1B 1_555 1_555
C2B C1B 1_555 1_555
C4B C5B 1_555 1_555
C3B C2B 1_555 1_555
C6B C3B 1_555 1_555
C4 C5 1_555 1_555
C4B C3B 1_555 1_555

#END
