
#######################################################################
#
#                 Cambridge Crystallographic Data Centre
#                                CCDC 
#
#######################################################################
#
# If this CIF has been generated from an entry in the Cambridge 
# Structural Database, then it will include bibliographic, chemical, 
# crystal, experimental, refinement or atomic coordinate data resulting 
# from the CCDC's data processing and validation procedures.
#
#######################################################################

data_FUGDAN
_symmetry_cell_setting           triclinic
_symmetry_space_group_name_H-M   'P -1'
_symmetry_Int_Tables_number      2
_space_group_name_Hall           '-P 1'
loop_
_symmetry_equiv_pos_site_id
_symmetry_equiv_pos_as_xyz
1 x,y,z
2 -x,-y,-z
_cell_length_a                   11.146(7)
_cell_length_b                   14.818(9)
_cell_length_c                   18.532(11)
_cell_angle_alpha                87.368(10)
_cell_angle_beta                 86.963(11)
_cell_angle_gamma                84.992(10)
_cell_volume                     3042.18
loop_
_atom_site_label
_atom_site_type_symbol
_atom_site_fract_x
_atom_site_fract_y
_atom_site_fract_z
Cu1 Cu 0.27700(8) 0.57866(6) 0.24838(5)
Cu2 Cu 1.04993(8) -0.18513(6) 0.24358(5)
N1 N 0.4004(6) 0.4605(4) 0.2560(3)
N2 N 0.9542(6) -0.0598(4) 0.2449(3)
N3 N 0.3895(6) 0.6814(4) 0.2418(3)
P1 P 0.18562(17) 0.56636(12) 0.14230(10)
P2 P 0.18580(17) 0.57121(12) 0.36125(10)
P3 P 0.06244(17) 0.76465(12) 0.13110(11)
P4 P 0.05932(17) 0.76720(13) 0.36037(11)
C1 C 0.3610(8) 0.3770(5) 0.2611(4)
H1 H 0.2779 0.3735 0.2639
C2 C 0.4310(9) 0.2974(5) 0.2625(5)
H2 H 0.3965 0.2423 0.2660
C3 C 0.5518(10) 0.2997(6) 0.2586(4)
C4 C 0.6005(7) 0.3836(6) 0.2543(4)
H3 H 0.6835 0.3872 0.2525
C5 C 0.5201(7) 0.4630(5) 0.2528(4)
H4 H 0.5518 0.5191 0.2494
C6 C 0.8353(8) -0.0557(5) 0.2425(4)
H5 H 0.7995 -0.1093 0.2374
C7 C 0.7622(7) 0.0234(6) 0.2471(4)
H6 H 0.6789 0.0226 0.2462
C8 C 0.8122(9) 0.1032(6) 0.2530(4)
C9 C 0.9341(8) 0.1002(5) 0.2536(4)
H7 H 0.9718 0.1533 0.2571
C10 C 1.0007(8) 0.0197(5) 0.2491(4)
H8 H 1.0841 0.0197 0.2490
C11 C 0.6256(9) 0.2097(6) 0.2578(5)
H9 H 0.5828 0.1584 0.2591
C12 C 0.7380(10) 0.1961(7) 0.2555(5)
H10 H 0.7812 0.2471 0.2553
C13 C 0.0543(6) 0.6422(4) 0.1200(4)
H11 H -0.0141 0.6232 0.1496
H12 H 0.0376 0.6337 0.0700
C14 C 0.1318(7) 0.4541(5) 0.1332(4)
C15 C 0.0127(7) 0.4378(5) 0.1429(4)
H13 H -0.0452 0.4856 0.1516
C16 C -0.0220(9) 0.3501(7) 0.1397(5)
H14 H -0.1027 0.3396 0.1480
C17 C 0.0615(11) 0.2789(6) 0.1244(5)
H15 H 0.0387 0.2203 0.1213
C18 C 0.1802(10) 0.2974(6) 0.1140(4)
H16 H 0.2385 0.2502 0.1041
C19 C 0.2142(8) 0.3822(5) 0.1176(4)
H17 H 0.2951 0.3923 0.1093
C20 C 0.2829(6) 0.5734(4) 0.0609(4)
C21 C 0.3966(7) 0.6086(5) 0.0635(4)
H18 H 0.4234 0.6236 0.1077
C22 C 0.4675(7) 0.6207(5) 0.0020(4)
H19 H 0.5389 0.6482 0.0046
C23 C 0.4357(8) 0.5934(5) -0.0630(4)
H20 H 0.4862 0.5993 -0.1043
C24 C 0.3240(8) 0.5561(6) -0.0659(4)
H21 H 0.2997 0.5374 -0.1096
C25 C 0.2520(7) 0.5473(5) -0.0053(4)
H22 H 0.1787 0.5226 -0.0086
C26 C 0.1855(6) 0.7985(4) 0.0709(4)
C27 C 0.1913(7) 0.7824(5) -0.0034(4)
H23 H 0.1323 0.7514 -0.0228
C28 C 0.2841(9) 0.8123(6) -0.0474(5)
H24 H 0.2865 0.8026 -0.0967
C29 C 0.3739(8) 0.8567(6) -0.0191(6)
H25 H 0.4374 0.8756 -0.0489
C30 C 0.3685(7) 0.8729(5) 0.0539(6)
H26 H 0.4283 0.9031 0.0733
C31 C 0.2757(7) 0.8447(5) 0.0974(4)
H27 H 0.2726 0.8568 0.1463
C32 C -0.0722(7) 0.8126(5) 0.0853(4)
C33 C -0.1728(8) 0.7703(5) 0.0819(4)
H28 H -0.1736 0.7107 0.1001
C34 C -0.2757(8) 0.8122(6) 0.0522(5)
H29 H -0.3460 0.7824 0.0540
C35 C -0.2744(8) 0.8942(7) 0.0215(5)
H30 H -0.3410 0.9196 -0.0028
C36 C -0.1746(9) 0.9421(6) 0.0252(5)
H31 H -0.1762 1.0021 0.0079
C37 C -0.0730(8) 0.9002(6) 0.0547(5)
H32 H -0.0036 0.9308 0.0542
C38 C 0.0500(6) 0.6457(4) 0.3867(4)
H33 H 0.0353 0.6400 0.4388
H34 H -0.0187 0.6245 0.3645
C39 C 0.1300(7) 0.4593(5) 0.3766(4)
C40 C 0.0297(8) 0.4385(6) 0.3444(4)
H35 H -0.0177 0.4843 0.3208
C41 C -0.0033(10) 0.3502(8) 0.3460(6)
H36 H -0.0726 0.3381 0.3236
C42 C 0.0629(12) 0.2815(7) 0.3793(5)
H37 H 0.0416 0.2222 0.3788
C43 C 0.1606(11) 0.3010(6) 0.4133(5)
H38 H 0.2065 0.2547 0.4372
C44 C 0.1940(9) 0.3887(6) 0.4133(5)
H39 H 0.2606 0.4005 0.4383
C45 C 0.2827(7) 0.5788(4) 0.4352(4)
C46 C 0.2484(8) 0.5600(5) 0.5079(4)
H40 H 0.1726 0.5398 0.5188
C47 C 0.3213(9) 0.5700(6) 0.5632(4)
H41 H 0.2954 0.5552 0.6105
C48 C 0.4328(9) 0.6016(5) 0.5495(5)
H42 H 0.4818 0.6106 0.5872
C49 C 0.4699(8) 0.6195(5) 0.4797(5)
H43 H 0.5456 0.6402 0.4695
C50 C 0.3962(8) 0.6074(5) 0.4233(4)
H44 H 0.4247 0.6190 0.3760
C51 C 0.1817(7) 0.8027(5) 0.4107(4)
C52 C 0.1880(8) 0.7839(5) 0.4865(4)
H45 H 0.1293 0.7523 0.5116
C53 C 0.2820(9) 0.8128(6) 0.5225(5)
H46 H 0.2881 0.7987 0.5717
C54 C 0.3647(9) 0.8613(6) 0.4871(7)
H47 H 0.4271 0.8808 0.5121
C55 C 0.3583(8) 0.8822(5) 0.4150(6)
H48 H 0.4167 0.9154 0.3911
C56 C 0.2644(7) 0.8540(5) 0.3768(5)
H49 H 0.2585 0.8705 0.3280
C57 C -0.0764(7) 0.8199(5) 0.4061(4)
C58 C -0.0741(8) 0.8976(6) 0.4431(5)
H50 H -0.0010 0.9216 0.4488
C59 C -0.1805(9) 0.9410(7) 0.4721(6)
H51 H -0.1778 0.9944 0.4963
C60 C -0.2890(9) 0.9062(7) 0.4654(6)
H52 H -0.3598 0.9354 0.4849
C61 C -0.2917(8) 0.8273(6) 0.4294(5)
H53 H -0.3650 0.8031 0.4247
C62 C -0.1892(8) 0.7843(6) 0.4007(4)
H54 H -0.1930 0.7306 0.3770
C63 C 0.4518(7) 0.7361(5) 0.2385(4)
C64 C 0.5343(8) 0.8084(6) 0.2355(5)
H55 H 0.5945 0.7979 0.1971
H56 H 0.5727 0.8086 0.2806
H57 H 0.4897 0.8659 0.2267
Cu2_2 Cu 0.04993(8) 0.81487(6) 0.24358(5)
P3_2 P 1.06244(17) -0.23535(12) 0.13110(11)
P4_2 P 1.05932(17) -0.23280(13) 0.36037(11)
B1 B 0.7566(10) 0.6129(7) 0.2537(6)
F1 F 0.8510(5) 0.6714(5) 0.2510(3)
F2 F 0.6789(5) 0.6318(4) 0.3101(3)
F3 F 0.6988(5) 0.6232(4) 0.1921(3)
F4 F 0.7995(6) 0.5214(5) 0.2598(4)
B2 B 0.3676(15) 0.0452(9) 0.2281(9)
F5 F 0.4366(8) 0.0476(6) 0.2825(5)
F6 F 0.2843(9) 0.1165(7) 0.2408(6)
F7 F 0.3061(6) -0.0289(4) 0.2262(3)
F8 F 0.4247(10) 0.0703(8) 0.1707(5)
loop_
_geom_bond_atom_site_label_1
_geom_bond_atom_site_label_2
_geom_bond_site_symmetry_1
_geom_bond_site_symmetry_2
Cu1 N1 1_555 1_555
Cu2 N2 1_555 1_555
N1 C1 1_555 1_555
N2 C6 1_555 1_555
N3 Cu1 1_555 1_555
P1 Cu1 1_555 1_555
P2 Cu1 1_555 1_555
P3 C13 1_555 1_555
P4 C38 1_555 1_555
C1 H1 1_555 1_555
C2 C1 1_555 1_555
H2 C2 1_555 1_555
C3 C2 1_555 1_555
C4 C3 1_555 1_555
H3 C4 1_555 1_555
C5 N1 1_555 1_555
H4 C5 1_555 1_555
C6 H5 1_555 1_555
C7 C6 1_555 1_555
H6 C7 1_555 1_555
C8 C7 1_555 1_555
C9 C8 1_555 1_555
H7 C9 1_555 1_555
C10 N2 1_555 1_555
H8 C10 1_555 1_555
C11 C3 1_555 1_555
H9 C11 1_555 1_555
C12 C8 1_555 1_555
H10 C12 1_555 1_555
C13 P1 1_555 1_555
H11 C13 1_555 1_555
H12 C13 1_555 1_555
C14 P1 1_555 1_555
C15 C14 1_555 1_555
H13 C15 1_555 1_555
C16 C15 1_555 1_555
H14 C16 1_555 1_555
C17 C16 1_555 1_555
H15 C17 1_555 1_555
C18 C17 1_555 1_555
H16 C18 1_555 1_555
C19 C14 1_555 1_555
H17 C19 1_555 1_555
C20 P1 1_555 1_555
C21 C20 1_555 1_555
H18 C21 1_555 1_555
C22 C21 1_555 1_555
H19 C22 1_555 1_555
C23 C22 1_555 1_555
H20 C23 1_555 1_555
C24 C23 1_555 1_555
H21 C24 1_555 1_555
C25 C20 1_555 1_555
H22 C25 1_555 1_555
C26 P3 1_555 1_555
C27 C26 1_555 1_555
H23 C27 1_555 1_555
C28 C27 1_555 1_555
H24 C28 1_555 1_555
C29 C28 1_555 1_555
H25 C29 1_555 1_555
C30 C29 1_555 1_555
H26 C30 1_555 1_555
C31 C26 1_555 1_555
H27 C31 1_555 1_555
C32 P3 1_555 1_555
C33 C32 1_555 1_555
H28 C33 1_555 1_555
C34 C33 1_555 1_555
H29 C34 1_555 1_555
C35 C34 1_555 1_555
H30 C35 1_555 1_555
C36 C35 1_555 1_555
H31 C36 1_555 1_555
C37 C32 1_555 1_555
H32 C37 1_555 1_555
C38 P2 1_555 1_555
H33 C38 1_555 1_555
H34 C38 1_555 1_555
C39 P2 1_555 1_555
C40 C39 1_555 1_555
H35 C40 1_555 1_555
C41 C40 1_555 1_555
H36 C41 1_555 1_555
C42 C41 1_555 1_555
H37 C42 1_555 1_555
C43 C42 1_555 1_555
H38 C43 1_555 1_555
C44 C39 1_555 1_555
H39 C44 1_555 1_555
C45 P2 1_555 1_555
C46 C45 1_555 1_555
H40 C46 1_555 1_555
C47 C46 1_555 1_555
H41 C47 1_555 1_555
C48 C47 1_555 1_555
H42 C48 1_555 1_555
C49 C48 1_555 1_555
H43 C49 1_555 1_555
C50 C45 1_555 1_555
H44 C50 1_555 1_555
C51 P4 1_555 1_555
C52 C51 1_555 1_555
H45 C52 1_555 1_555
C53 C52 1_555 1_555
H46 C53 1_555 1_555
C54 C53 1_555 1_555
H47 C54 1_555 1_555
C55 C54 1_555 1_555
H48 C55 1_555 1_555
C56 C51 1_555 1_555
H49 C56 1_555 1_555
C57 P4 1_555 1_555
C58 C57 1_555 1_555
H50 C58 1_555 1_555
C59 C58 1_555 1_555
H51 C59 1_555 1_555
C60 C59 1_555 1_555
H52 C60 1_555 1_555
C61 C60 1_555 1_555
H53 C61 1_555 1_555
C62 C57 1_555 1_555
H54 C62 1_555 1_555
C63 N3 1_555 1_555
C64 C63 1_555 1_555
H55 C64 1_555 1_555
H56 C64 1_555 1_555
H57 C64 1_555 1_555
B1 F1 1_555 1_555
F2 B1 1_555 1_555
F3 B1 1_555 1_555
F4 B1 1_555 1_555
B2 F5 1_555 1_555
F6 B2 1_555 1_555
F7 B2 1_555 1_555
F8 B2 1_555 1_555
Cu2_2 P3 1_555 1_555
P3_2 Cu2 1_555 1_555
P4_2 Cu2 1_555 1_555
P4 Cu2_2 1_555 1_555
C4 C5 1_555 1_555
C9 C10 1_555 1_555
C11 C12 1_555 1_555
C18 C19 1_555 1_555
C24 C25 1_555 1_555
C30 C31 1_555 1_555
C36 C37 1_555 1_555
C43 C44 1_555 1_555
C49 C50 1_555 1_555
C55 C56 1_555 1_555
C61 C62 1_555 1_555

#END
