
#######################################################################
#
#                 Cambridge Crystallographic Data Centre
#                                CCDC 
#
#######################################################################
#
# If this CIF has been generated from an entry in the Cambridge 
# Structural Database, then it will include bibliographic, chemical, 
# crystal, experimental, refinement or atomic coordinate data resulting 
# from the CCDC's data processing and validation procedures.
#
#######################################################################

data_FUGGIZ
_symmetry_cell_setting           triclinic
_symmetry_space_group_name_H-M   'P -1'
_symmetry_Int_Tables_number      2
_space_group_name_Hall           '-P 1'
loop_
_symmetry_equiv_pos_site_id
_symmetry_equiv_pos_as_xyz
1 x,y,z
2 -x,-y,-z
_cell_length_a                   7.8762(3)
_cell_length_b                   8.1637(3)
_cell_length_c                   12.1294(4)
_cell_angle_alpha                103.7280(10)
_cell_angle_beta                 105.2860(10)
_cell_angle_gamma                94.3360(10)
_cell_volume                     722.836
loop_
_atom_site_label
_atom_site_type_symbol
_atom_site_fract_x
_atom_site_fract_y
_atom_site_fract_z
Cu1 Cu 0.36755(4) 0.33532(3) 0.47234(2)
C1 C 0.2782(3) 0.0804(3) 0.2540(2)
C2 C 0.2713(3) -0.0983(3) 0.17962(19)
C3 C 0.3413(3) -0.2279(3) 0.22483(19)
H1 H 0.3973 -0.2062 0.3057
C4 C 0.3286(3) -0.3894(3) 0.15090(19)
H2 H 0.3745 -0.4750 0.1830
C5 C 0.2475(3) -0.4250(3) 0.02861(18)
C6 C 0.1780(3) -0.2930(3) -0.01566(19)
H3 H 0.1232 -0.3132 -0.0965
C7 C 0.1893(3) -0.1342(3) 0.0584(2)
H4 H 0.1411 -0.0490 0.0268
C8 C 0.2348(3) -0.5952(3) -0.05385(18)
C9 C 0.3322(3) -0.7222(3) -0.0238(2)
H5 H 0.4085 -0.7037 0.0524
C10 C 0.3153(3) -0.8752(3) -0.1070(2)
H6 H 0.3809 -0.9591 -0.0866
C11 C 0.2029(3) -0.9049(3) -0.2195(2)
H7 H 0.1928 -1.0077 -0.2757
C12 C 0.1223(3) -0.6326(3) -0.16863(18)
H8 H 0.0551 -0.5510 -0.1916
C13 C -0.0162(3) -0.8108(3) -0.36756(18)
H9 H -0.1093 -0.7406 -0.3626
H10 H -0.0720 -0.9290 -0.3960
C14 C 0.0720(3) -0.7700(3) -0.45750(19)
O1 O 0.3351(2) 0.1072(2) 0.36615(14)
O2 O 0.2263(3) 0.1883(2) 0.20144(16)
O3 O 0.2388(2) -0.7353(2) -0.42522(14)
O4 O -0.0308(3) -0.7773(2) -0.55466(15)
O5 O 0.1188(3) 0.4364(2) 0.33897(18)
H11 H 0.137(5) 0.366(4) 0.281(2)
H12 H 0.048(4) 0.381(4) 0.361(3)
N1 N 0.1075(2) -0.7830(2) -0.24730(15)
N2 N 0.4452(3) 0.5661(3) 0.58574(19)
N3 N 0.3916(3) 0.6291(3) 0.66778(17)
N4 N 0.3429(3) 0.6887(3) 0.7464(2)
Cu1_2 Cu 0.36755(4) -0.66468(3) -0.52766(2)
Cu1A Cu 0.63245(4) 0.66468(3) 0.52766(2)
O3_2 O 0.2388(2) 0.2647(2) 0.57478(14)
N2A N 0.5548(3) 0.4339(3) 0.41426(19)
loop_
_geom_bond_atom_site_label_1
_geom_bond_atom_site_label_2
_geom_bond_site_symmetry_1
_geom_bond_site_symmetry_2
Cu1 O1 1_555 1_555
C1 C2 1_555 1_555
C2 C3 1_555 1_555
C3 H1 1_555 1_555
C4 C3 1_555 1_555
H2 C4 1_555 1_555
C5 C4 1_555 1_555
C6 C5 1_555 1_555
H3 C6 1_555 1_555
C7 C2 1_555 1_555
H4 C7 1_555 1_555
C8 C5 1_555 1_555
C9 C8 1_555 1_555
H5 C9 1_555 1_555
C10 C9 1_555 1_555
H6 C10 1_555 1_555
C11 C10 1_555 1_555
H7 C11 1_555 1_555
C12 C8 1_555 1_555
H8 C12 1_555 1_555
C13 H9 1_555 1_555
H10 C13 1_555 1_555
C14 C13 1_555 1_555
O1 C1 1_555 1_555
O2 C1 1_555 1_555
O3 C14 1_555 1_555
O4 C14 1_555 1_555
O5 Cu1 1_555 1_555
H11 O5 1_555 1_555
H12 O5 1_555 1_555
N1 C11 1_555 1_555
N2 Cu1 1_555 1_555
N3 N2 1_555 1_555
N4 N3 1_555 1_555
Cu1_2 O3 1_555 1_555
Cu1A N2 1_555 1_555
O3_2 Cu1 1_555 1_555
N2A Cu1 1_555 1_555
C6 C7 1_555 1_555
C12 N1 1_555 1_555
C13 N1 1_555 1_555
Cu1A N2A 1_555 1_555

#END
