
#######################################################################
#
#                 Cambridge Crystallographic Data Centre
#                                CCDC 
#
#######################################################################
#
# If this CIF has been generated from an entry in the Cambridge 
# Structural Database, then it will include bibliographic, chemical, 
# crystal, experimental, refinement or atomic coordinate data resulting 
# from the CCDC's data processing and validation procedures.
#
#######################################################################

data_FUGKEY
_symmetry_cell_setting           monoclinic
_symmetry_space_group_name_H-M   'C 2/c'
_symmetry_Int_Tables_number      15
_space_group_name_Hall           '-C 2yn'
loop_
_symmetry_equiv_pos_site_id
_symmetry_equiv_pos_as_xyz
1 x,y,z
2 -x,y,1/2-z
3 1/2+x,1/2+y,z
4 1/2-x,1/2+y,1/2-z
5 -x,-y,-z
6 x,-y,1/2+z
7 1/2-x,1/2-y,-z
8 1/2+x,1/2-y,1/2+z
_cell_length_a                   28.398(6)
_cell_length_b                   7.5865(15)
_cell_length_c                   18.517(4)
_cell_angle_alpha                90
_cell_angle_beta                 130.69(3)
_cell_angle_gamma                90
_cell_volume                     3024.9
loop_
_atom_site_label
_atom_site_type_symbol
_atom_site_fract_x
_atom_site_fract_y
_atom_site_fract_z
Cu1 Cu 0.0000 0.48037(13) -0.2500
Se1 Se 0.15222(2) 0.73993(6) 0.14892(4)
N1 N 0.0655(2) 0.5177(6) -0.1109(3)
N2 N 0.1167(2) 0.4166(6) -0.0546(3)
H1 H 0.1257 0.3301 -0.0755
N3 N 0.0637(2) 0.5450(6) 0.2384(3)
N4 N 0.1183(2) 0.4511(6) 0.2931(3)
H2 H 0.1284 0.3739 0.3367
C1 C 0.0190(3) 0.7707(8) -0.0923(4)
H3 H 0.0036 0.8098 -0.1548
H4 H 0.0367 0.8713 -0.0486
H5 H -0.0155 0.7211 -0.0987
C2 C 0.0679(3) 0.6330(7) -0.0538(4)
C3 C 0.1216(3) 0.6022(7) 0.0402(4)
C4 C 0.1526(3) 0.4643(7) 0.0377(4)
C5 C 0.2128(3) 0.3741(9) 0.1141(5)
H6 H 0.2057 0.2792 0.1420
H7 H 0.2422 0.4595 0.1637
H8 H 0.2300 0.3245 0.0867
C6 C 0.0155(3) 0.7705(8) 0.1110(5)
H9 H -0.0160 0.7091 0.0508
H10 H 0.0328 0.8680 0.1000
H11 H -0.0035 0.8168 0.1362
C7 C 0.0657(3) 0.6460(7) 0.1804(4)
C8 C 0.1218(3) 0.6135(7) 0.1993(4)
C9 C 0.1539(3) 0.4907(7) 0.2723(4)
C10 C 0.2162(3) 0.4049(8) 0.3247(5)
H12 H 0.2105 0.2792 0.3088
H13 H 0.2407 0.4188 0.3935
H14 H 0.2380 0.4608 0.3061
Cu1D Cu 0.0000 0.51963(13) 0.2500
Cu1D_2 Cu 0.0000 0.51963(13) -0.7500
Se1E Se 0.15222(2) 0.26007(6) -0.35108(4)
N1E N 0.0655(2) 0.4823(6) -0.6109(3)
N1A N -0.0655(2) 0.5177(6) -0.3891(3)
N2E N 0.1167(2) 0.5834(6) -0.5546(3)
H1E H 0.1257 0.6699 -0.5755
N3E N 0.0637(2) 0.4550(6) -0.2616(3)
N3D N -0.0637(2) 0.4550(6) -0.2384(3)
N4E N 0.1183(2) 0.5489(6) -0.2069(3)
H2E H 0.1284 0.6261 -0.1633
C1E C 0.0190(3) 0.2293(8) -0.5923(4)
H3E H 0.0036 0.1902 -0.6548
H4E H 0.0367 0.1287 -0.5486
H5E H -0.0155 0.2789 -0.5987
C2E C 0.0679(3) 0.3670(7) -0.5538(4)
C3E C 0.1216(3) 0.3978(7) -0.4598(4)
C4E C 0.1526(3) 0.5357(7) -0.4623(4)
C5E C 0.2128(3) 0.6259(9) -0.3859(5)
H6E H 0.2057 0.7208 -0.3580
H7E H 0.2422 0.5405 -0.3363
H8E H 0.2300 0.6755 -0.4133
C6E C 0.0155(3) 0.2295(8) -0.3890(5)
H9E H -0.0160 0.2909 -0.4492
H10E H 0.0328 0.1320 -0.4000
H11E H -0.0035 0.1832 -0.3638
C7E C 0.0657(3) 0.3540(7) -0.3196(4)
C8E C 0.1218(3) 0.3865(7) -0.3007(4)
C9E C 0.1539(3) 0.5093(7) -0.2277(4)
C10E C 0.2162(3) 0.5951(8) -0.1753(5)
H12E H 0.2105 0.7208 -0.1912
H13E H 0.2407 0.5812 -0.1065
H14E H 0.2380 0.5392 -0.1939
Cl1 Cl 0.13436(8) 0.99852(19) 0.36166(12)
O1 O 0.1340(3) 1.0280(6) 0.2844(4)
O2 O 0.1537(3) 1.1562(6) 0.4173(3)
O3 O 0.1753(2) 0.8577(5) 0.4177(4)
O4 O 0.0732(2) 0.9468(7) 0.3248(4)
loop_
_geom_bond_atom_site_label_1
_geom_bond_atom_site_label_2
_geom_bond_site_symmetry_1
_geom_bond_site_symmetry_2
Cu1 N1 1_555 1_555
Se1 C3 1_555 1_555
N1 N2 1_555 1_555
N2 H1 1_555 1_555
N3 N4 1_555 1_555
N4 H2 1_555 1_555
C1 H3 1_555 1_555
H4 C1 1_555 1_555
H5 C1 1_555 1_555
C2 N1 1_555 1_555
C3 C2 1_555 1_555
C4 N2 1_555 1_555
C5 C4 1_555 1_555
H6 C5 1_555 1_555
H7 C5 1_555 1_555
H8 C5 1_555 1_555
C6 H9 1_555 1_555
H10 C6 1_555 1_555
H11 C6 1_555 1_555
C7 N3 1_555 1_555
C8 Se1 1_555 1_555
C9 N4 1_555 1_555
C10 C9 1_555 1_555
H12 C10 1_555 1_555
H13 C10 1_555 1_555
H14 C10 1_555 1_555
Cl1 O1 1_555 1_555
O2 Cl1 1_555 1_555
O3 Cl1 1_555 1_555
O4 Cl1 1_555 1_555
Cu1D N3 1_555 1_555
Cu1D_2 N1E 1_555 1_555
Se1E C3E 1_555 1_555
N1E N2E 1_555 1_555
N1A Cu1 1_555 1_555
N2E H1E 1_555 1_555
N3E Cu1 1_555 1_555
N3D Cu1 1_555 1_555
N4E N3E 1_555 1_555
H2E N4E 1_555 1_555
C1E H3E 1_555 1_555
H4E C1E 1_555 1_555
H5E C1E 1_555 1_555
C2E N1E 1_555 1_555
C3E C2E 1_555 1_555
C4E N2E 1_555 1_555
C5E C4E 1_555 1_555
H6E C5E 1_555 1_555
H7E C5E 1_555 1_555
H8E C5E 1_555 1_555
C6E H9E 1_555 1_555
H10E C6E 1_555 1_555
H11E C6E 1_555 1_555
C7E N3E 1_555 1_555
C8E Se1E 1_555 1_555
C9E N4E 1_555 1_555
C10E C9E 1_555 1_555
H12E C10E 1_555 1_555
H13E C10E 1_555 1_555
H14E C10E 1_555 1_555
C1 C2 1_555 1_555
C3 C4 1_555 1_555
C6 C7 1_555 1_555
C7 C8 1_555 1_555
C8 C9 1_555 1_555
C1E C2E 1_555 1_555
C3E C4E 1_555 1_555
C6E C7E 1_555 1_555
C7E C8E 1_555 1_555
C8E C9E 1_555 1_555

#END
