
#######################################################################
#
#                 Cambridge Crystallographic Data Centre
#                                CCDC 
#
#######################################################################
#
# If this CIF has been generated from an entry in the Cambridge 
# Structural Database, then it will include bibliographic, chemical, 
# crystal, experimental, refinement or atomic coordinate data resulting 
# from the CCDC's data processing and validation procedures.
#
#######################################################################

data_FUGWUB
_symmetry_cell_setting           triclinic
_symmetry_space_group_name_H-M   'P -1'
_symmetry_Int_Tables_number      2
_space_group_name_Hall           '-P 1'
loop_
_symmetry_equiv_pos_site_id
_symmetry_equiv_pos_as_xyz
1 x,y,z
2 -x,-y,-z
_cell_length_a                   7.7407(4)
_cell_length_b                   10.0073(6)
_cell_length_c                   12.4336(7)
_cell_angle_alpha                89.7320(10)
_cell_angle_beta                 89.8840(10)
_cell_angle_gamma                84.9460(10)
_cell_volume                     959.394
loop_
_atom_site_label
_atom_site_type_symbol
_atom_site_fract_x
_atom_site_fract_y
_atom_site_fract_z
C1 C 0.3298(2) 0.3519(2) 0.16645(16)
C2 C 0.2936(3) 0.4392(2) 0.06865(15)
C3 C 0.2222(3) 0.5713(2) 0.08027(16)
H1 H 0.1970 0.6064 0.1482
C4 C 0.1895(2) 0.64950(19) -0.01136(16)
C5 C 0.2346(2) 0.59655(19) -0.11244(15)
C6 C 0.2984(3) 0.4625(2) -0.12261(15)
C7 C 0.3285(3) 0.3829(2) -0.03191(16)
H2 H 0.3712 0.2935 -0.0382
C8 C 0.0813(3) 0.8465(2) 0.08534(17)
H3 H 0.0534 0.7833 0.1407
H4 H -0.0165 0.9134 0.0782
C9 C 0.2409(3) 0.9146(2) 0.11919(17)
C10 C 0.0495(3) 0.6779(2) -0.24976(18)
H5 H -0.0382 0.6995 -0.1953
H6 H 0.0331 0.5897 -0.2779
C11 C 0.0309(3) 0.7801(2) -0.33898(17)
C12 C 0.3844(3) 0.2820(2) -0.23792(17)
H7 H 0.3078 0.2278 -0.1983
H8 H 0.4994 0.2663 -0.2070
C13 C 0.3906(3) 0.2391(2) -0.35438(16)
O1 O 0.3629(2) 0.22887(15) 0.15069(12)
O2 O 0.31844(19) 0.40876(14) 0.25664(11)
O3 O 0.10870(19) 0.77739(14) -0.01416(11)
O4 O 0.2393(2) 0.95691(16) 0.21567(12)
O5 O 0.3603(2) 0.9265(2) 0.05559(14)
O6 O 0.21820(17) 0.67723(14) -0.20314(11)
O7 O 0.1395(2) 0.86306(19) -0.34570(15)
O8 O -0.1007(2) 0.77821(16) -0.40010(13)
O9 O 0.3253(2) 0.41926(14) -0.22676(11)
O10 O 0.3371(2) 0.31858(16) -0.42615(12)
O11 O 0.4505(2) 0.11977(15) -0.36640(12)
O12 O 0.47736(17) 0.14877(13) 0.37993(10)
H9 H 0.5772 0.1689 0.3748
O13 O 0.16988(15) 0.51351(11) 0.44750(9)
H10 H 0.1453 0.5766 0.4004
H11 H 0.0882 0.4743 0.4429
O14 O 0.57994(15) 0.41146(11) 0.40587(9)
H12 H 0.6145 0.4180 0.3438
H13 H 0.6325 0.4552 0.4488
O15 O 0.6680(2) 0.03675(16) 0.16412(12)
H14 H 0.7357 0.0865 0.1914
H15 H 0.6549 0.0524 0.0997
O16 O 0.2333(2) -0.02042(16) 0.47574(13)
H16 H 0.1852 0.0512 0.4547
H17 H 0.1892 -0.0463 0.5325
Zn1 Zn 0.5000 0.0000 0.5000
Zn2 Zn 0.32410(3) 0.32410(2) 0.405532(17)
Zn3 Zn 0.43729(3) 0.06336(2) 0.239257(18)
C1A C -0.3298(2) 0.6481(2) -0.16645(16)
C2A C -0.2936(3) 0.5608(2) -0.06865(15)
C3A C -0.2222(3) 0.4287(2) -0.08027(16)
H1A H -0.1970 0.3936 -0.1482
C4A C -0.1895(2) 0.35050(19) 0.01136(16)
C5A C -0.2346(2) 0.40345(19) 0.11244(15)
C6A C -0.2984(3) 0.5375(2) 0.12261(15)
C7A C -0.3285(3) 0.6171(2) 0.03191(16)
H2A H -0.3712 0.7065 0.0382
C8A C -0.0813(3) 0.1535(2) -0.08534(17)
H3A H -0.0534 0.2167 -0.1407
H4A H 0.0165 0.0866 -0.0782
C9A C -0.2409(3) 0.0854(2) -0.11919(17)
C10A C -0.0495(3) 0.3221(2) 0.24976(18)
H5A H 0.0382 0.3005 0.1953
H6A H -0.0331 0.4103 0.2779
C11A C -0.0309(3) 0.2199(2) 0.33898(17)
C12A C -0.3844(3) 0.7180(2) 0.23792(17)
H7A H -0.3078 0.7722 0.1983
H8A H -0.4994 0.7337 0.2070
C13A C -0.3906(3) 0.7609(2) 0.35438(16)
O1A O -0.3629(2) 0.77113(15) -0.15069(12)
O2A O -0.31844(19) 0.59124(14) -0.25664(11)
O3A O -0.10870(19) 0.22261(14) 0.01416(11)
O4A O -0.2393(2) 0.04309(16) -0.21567(12)
O5A O -0.3603(2) 0.0735(2) -0.05559(14)
O6A O -0.21820(17) 0.32277(14) 0.20314(11)
O7A O -0.1395(2) 0.13694(19) 0.34570(15)
O8A O 0.1007(2) 0.22179(16) 0.40010(13)
O9A O -0.3253(2) 0.58074(14) 0.22676(11)
O10A O -0.3371(2) 0.68142(16) 0.42615(12)
O11A O -0.4505(2) 0.88023(15) 0.36640(12)
O12A O -0.47736(17) 0.85123(13) -0.37993(10)
H9A H -0.5772 0.8311 -0.3748
O13A O -0.16988(15) 0.48649(11) -0.44750(9)
H10A H -0.1453 0.4234 -0.4004
H11A H -0.0882 0.5257 -0.4429
O14A O -0.57994(15) 0.58854(11) -0.40587(9)
H12A H -0.6145 0.5820 -0.3438
H13A H -0.6325 0.5448 -0.4488
O15A O -0.6680(2) 0.96325(16) -0.16412(12)
H14A H -0.7357 0.9135 -0.1914
H15A H -0.6549 0.9476 -0.0997
Zn2A Zn -0.32410(3) 0.67590(2) -0.405532(17)
Zn3A Zn -0.43729(3) 0.93664(2) -0.239257(18)
O16A O 0.7667(2) 0.02042(16) 0.52426(13)
H16A H 0.8148 -0.0512 0.5453
H17A H 0.8108 0.0463 0.4675
O4_2 O 0.2393(2) -0.04309(16) 0.21567(12)
O4A_2 O -0.2393(2) 1.04309(16) -0.21567(12)
O10_2 O 0.3371(2) 0.31858(16) 0.57385(12)
O10A_2 O -0.3371(2) 0.68142(16) -0.57385(12)
O11_2 O -0.5495(2) 1.11977(15) -0.36640(12)
O11_3 O 0.4505(2) 0.11977(15) 0.63360(12)
O11A_2 O 0.5495(2) -0.11977(15) 0.36640(12)
O12A_2 O 0.52264(17) -0.14877(13) 0.62007(10)
Zn1_2 Zn -0.5000 1.0000 -0.5000
Zn1_3 Zn -0.5000 1.0000 0.5000
Zn1_4 Zn 0.5000 0.0000 -0.5000
Zn2_2 Zn 0.32410(3) 0.32410(2) -0.594468(17)
Zn2A_2 Zn -0.32410(3) 0.67590(2) 0.594468(17)
Zn3_2 Zn -0.56271(3) 1.06336(2) 0.239257(18)
Zn3_3 Zn 0.43729(3) 1.06336(2) 0.239257(18)
Zn3A_2 Zn -0.43729(3) -0.06336(2) -0.239257(18)
Zn3A_3 Zn 0.56271(3) -0.06336(2) -0.239257(18)
O17 O 0.0666(3) 0.7530(2) 0.34752(18)
H18 H 0.1663 0.7724 0.3508
H19 H 0.0049 0.7770 0.3986
loop_
_geom_bond_atom_site_label_1
_geom_bond_atom_site_label_2
_geom_bond_site_symmetry_1
_geom_bond_site_symmetry_2
C1 C2 1_555 1_555
C2 C3 1_555 1_555
C3 H1 1_555 1_555
C4 C3 1_555 1_555
C5 C4 1_555 1_555
C6 C5 1_555 1_555
C7 C2 1_555 1_555
H2 C7 1_555 1_555
C8 H3 1_555 1_555
H4 C8 1_555 1_555
C9 C8 1_555 1_555
C10 H5 1_555 1_555
H6 C10 1_555 1_555
C11 C10 1_555 1_555
C12 H7 1_555 1_555
H8 C12 1_555 1_555
C13 C12 1_555 1_555
O1 C1 1_555 1_555
O2 C1 1_555 1_555
O3 C4 1_555 1_555
O4 C9 1_555 1_555
O5 C9 1_555 1_555
O6 C5 1_555 1_555
O7 C11 1_555 1_555
O8 C11 1_555 1_555
O9 C6 1_555 1_555
O10 C13 1_555 1_555
O11 C13 1_555 1_555
O12 H9 1_555 1_555
O13 H10 1_555 1_555
H11 O13 1_555 1_555
O14 H12 1_555 1_555
H13 O14 1_555 1_555
O15 H14 1_555 1_555
H15 O15 1_555 1_555
O16 H16 1_555 1_555
H17 O16 1_555 1_555
Zn1 O12 1_555 1_555
Zn2 O2 1_555 1_555
Zn3 O1 1_555 1_555
O17 H18 1_555 1_555
H19 O17 1_555 1_555
C1A C2A 1_555 1_555
C2A C3A 1_555 1_555
C3A H1A 1_555 1_555
C4A C3A 1_555 1_555
C5A C4A 1_555 1_555
C6A C5A 1_555 1_555
C7A C2A 1_555 1_555
H2A C7A 1_555 1_555
C8A H3A 1_555 1_555
H4A C8A 1_555 1_555
C9A C8A 1_555 1_555
C10A H5A 1_555 1_555
H6A C10A 1_555 1_555
C11A C10A 1_555 1_555
C12A H7A 1_555 1_555
H8A C12A 1_555 1_555
C13A C12A 1_555 1_555
O1A C1A 1_555 1_555
O2A C1A 1_555 1_555
O3A C4A 1_555 1_555
O4A C9A 1_555 1_555
O5A C9A 1_555 1_555
O6A C5A 1_555 1_555
O7A C11A 1_555 1_555
O8A Zn2 1_555 1_555
O9A C6A 1_555 1_555
O10A C13A 1_555 1_555
O11A C13A 1_555 1_555
O12A H9A 1_555 1_555
O13A H10A 1_555 1_555
H11A O13A 1_555 1_555
O14A H12A 1_555 1_555
H13A O14A 1_555 1_555
O15A H14A 1_555 1_555
H15A O15A 1_555 1_555
Zn2A O8 1_555 1_555
Zn3A O1A 1_555 1_555
O16A Zn1 1_555 1_555
H16A O16A 1_555 1_555
H17A O16A 1_555 1_555
O4_2 Zn3 1_555 1_555
O4A_2 Zn3A 1_555 1_555
O10_2 Zn2 1_555 1_555
O10A_2 Zn2A 1_555 1_555
O11_2 Zn3A 1_555 1_555
O11_3 Zn1 1_555 1_555
O11A_2 Zn1 1_555 1_555
O12A_2 Zn1 1_555 1_555
Zn1_2 O12A 1_555 1_555
Zn1_3 O11A 1_555 1_555
Zn1_4 O11 1_555 1_555
Zn2_2 O10 1_555 1_555
Zn2A_2 O10A 1_555 1_555
Zn3_2 O11A 1_555 1_555
Zn3_3 O4 1_555 1_555
Zn3A_2 O4A 1_555 1_555
Zn3A_3 O11 1_555 1_555
C6 C7 1_555 1_555
C8 O3 1_555 1_555
C10 O6 1_555 1_555
C12 O9 1_555 1_555
O12 Zn2 1_555 1_555
O12 Zn3 1_555 1_555
O13 Zn2 1_555 1_555
O14 Zn2 1_555 1_555
O15 Zn3 1_555 1_555
O16 Zn1 1_555 1_555
Zn3 O11A_2 1_555 1_555
C6A C7A 1_555 1_555
C8A O3A 1_555 1_555
C10A O6A 1_555 1_555
C11A O8A 1_555 1_555
C12A O9A 1_555 1_555
O2A Zn2A 1_555 1_555
O12A Zn2A 1_555 1_555
O12A Zn3A 1_555 1_555
O13A Zn2A 1_555 1_555
O14A Zn2A 1_555 1_555
O15A Zn3A 1_555 1_555
O11_2 Zn1_2 1_555 1_555

#END
