
#######################################################################
#
#                 Cambridge Crystallographic Data Centre
#                                CCDC 
#
#######################################################################
#
# If this CIF has been generated from an entry in the Cambridge 
# Structural Database, then it will include bibliographic, chemical, 
# crystal, experimental, refinement or atomic coordinate data resulting 
# from the CCDC's data processing and validation procedures.
#
#######################################################################

data_FUGXEM
_symmetry_cell_setting           triclinic
_symmetry_space_group_name_H-M   'P -1'
_symmetry_Int_Tables_number      2
_space_group_name_Hall           '-P 1'
loop_
_symmetry_equiv_pos_site_id
_symmetry_equiv_pos_as_xyz
1 x,y,z
2 -x,-y,-z
_cell_length_a                   7.9468(3)
_cell_length_b                   12.5413(5)
_cell_length_c                   12.5620(5)
_cell_angle_alpha                111.67
_cell_angle_beta                 106.20
_cell_angle_gamma                94.38
_cell_volume                     1094.48
loop_
_atom_site_label
_atom_site_type_symbol
_atom_site_fract_x
_atom_site_fract_y
_atom_site_fract_z
C1 C 0.7283(3) 0.5821(2) 0.8407(2)
C2 C 0.7489(3) 0.5129(2) 0.9179(2)
C3 C 0.7563(4) 0.3952(2) 0.8664(2)
H1 H 0.7492 0.3599 0.7854
C4 C 0.7744(4) 0.3310(2) 0.9365(2)
C5 C 0.7861(3) 0.3848(2) 1.0581(2)
C6 C 0.7760(4) 0.5024(2) 1.1080(2)
C7 C 0.7592(4) 0.5675(2) 1.0386(2)
H2 H 0.7548 0.6465 1.0722
C8 C 0.7305(5) 0.1485(2) 0.7683(2)
H3 H 0.8212 0.1693 0.7374
H4 H 0.6186 0.1644 0.7275
C9 C 0.7085(4) 0.0192(2) 0.7453(2)
C10 C 0.6428(4) 0.2685(3) 1.1287(3)
H5 H 0.5864 0.2019 1.0515
H6 H 0.5638 0.3241 1.1366
C11 C 0.6687(4) 0.2279(2) 1.2305(2)
C12 C 0.7230(4) 0.6506(2) 1.2741(2)
H7 H 0.6148 0.6501 1.2142
H8 H 0.8127 0.7173 1.2919
C13 C 0.6852(4) 0.6603(2) 1.3894(2)
Co1 Co 0.52977(5) 0.77129(3) 0.58161(3)
Co2 Co 0.75262(5) 0.83135(3) 0.84987(3)
Co3 Co 0.69604(4) 0.56406(3) 0.58493(3)
O1 O 0.7459(3) 0.69086(16) 0.89503(17)
O2 O 0.6924(3) 0.52526(16) 0.72917(16)
O3 O 0.7822(3) 0.21481(16) 0.89583(17)
O4 O 0.6183(3) -0.05086(16) 0.63878(17)
O5 O 0.7818(3) -0.00692(16) 0.83156(17)
O6 O 0.8092(2) 0.32221(15) 1.13026(16)
O7 O 0.8198(3) 0.2341(2) 1.2961(2)
O8 O 0.5250(2) 0.19084(16) 1.24290(16)
O9 O 0.7853(3) 0.54505(17) 1.22733(17)
O10 O 0.7324(3) 0.58898(16) 1.43295(16)
O11 O 0.6087(3) 0.74335(17) 1.43020(17)
O12 O 0.7689(2) 0.74420(14) 0.68214(15)
H9 H 0.8656 0.7694 0.6799
O13 O 0.5651(2) 0.39901(15) 0.45512(15)
H10 H 0.5962 0.3998 0.3988
O14 O 0.7343(3) 0.93174(19) 1.02064(19)
H11 H 0.7857 0.9996 1.0443
H12 H 0.7448 0.9117 1.0779
O15 O 1.0350(3) 0.86989(16) 0.92916(17)
H13 H 1.0630 0.8947 1.0046
H14 H 1.0743 0.8106 0.9027
O16 O 0.9536(3) 0.5256(3) 0.6056(2)
H15 H 0.9408 0.4626 0.5957
H16 H 1.0232 0.5512 0.6762
O17 O 0.2580(3) 0.7835(3) 0.5011(2)
H17 H 0.1982 0.7763 0.5426
H18 H 0.2441 0.8407 0.4838
Co1_2 Co 0.52977(5) -0.22871(3) 0.58161(3)
Co1_3 Co 0.52977(5) 0.77129(3) 1.58161(3)
Co1A Co 0.47023(5) 0.22871(3) 0.41839(3)
Co1A_2 Co 0.47023(5) 0.22871(3) 1.41839(3)
Co2_2 Co 0.75262(5) -0.16865(3) 0.84987(3)
Co2A Co 0.24738(5) 0.16865(3) 1.15013(3)
Co3_2 Co 0.69604(4) 0.56406(3) 1.58493(3)
Co3A Co 0.30396(4) 0.43594(3) 0.41507(3)
O4_2 O 0.6183(3) 0.94914(16) 0.63878(17)
O5_2 O 0.7818(3) 0.99308(16) 0.83156(17)
O8A O 0.4750(2) 0.80916(16) 0.75710(16)
O10_2 O 0.7324(3) 0.58898(16) 0.43295(16)
O11_2 O 0.6087(3) 0.74335(17) 0.43020(17)
O13A O 0.4349(2) 0.60099(15) 0.54488(15)
O18 O 0.8002(6) 0.9786(3) 0.4599(4)
H19 H 0.6894 0.9595 0.4344
H20 H 0.8435 0.9693 0.5234
O19 O 0.3054(19) 0.0680(8) 0.7800(7)
H21 H 0.2494 0.0216 0.7089
H22 H 0.3964 0.0605 0.8011
loop_
_geom_bond_atom_site_label_1
_geom_bond_atom_site_label_2
_geom_bond_site_symmetry_1
_geom_bond_site_symmetry_2
C1 C2 1_555 1_555
C2 C3 1_555 1_555
C3 H1 1_555 1_555
C4 C3 1_555 1_555
C5 C4 1_555 1_555
C6 C5 1_555 1_555
C7 C2 1_555 1_555
H2 C7 1_555 1_555
C8 H3 1_555 1_555
H4 C8 1_555 1_555
C9 C8 1_555 1_555
C10 H5 1_555 1_555
H6 C10 1_555 1_555
C11 C10 1_555 1_555
C12 H7 1_555 1_555
H8 C12 1_555 1_555
C13 C12 1_555 1_555
Co1 O12 1_555 1_555
Co2 O1 1_555 1_555
Co3 O2 1_555 1_555
O1 C1 1_555 1_555
O2 C1 1_555 1_555
O3 C4 1_555 1_555
O4 C9 1_555 1_555
O5 C9 1_555 1_555
O6 C5 1_555 1_555
O7 C11 1_555 1_555
O8 C11 1_555 1_555
O9 C6 1_555 1_555
O10 C13 1_555 1_555
O11 C13 1_555 1_555
O12 Co2 1_555 1_555
H9 O12 1_555 1_555
O13 Co3 1_555 1_555
H10 O13 1_555 1_555
O14 Co2 1_555 1_555
H11 O14 1_555 1_555
H12 O14 1_555 1_555
O15 Co2 1_555 1_555
H13 O15 1_555 1_555
H14 O15 1_555 1_555
O16 Co3 1_555 1_555
H15 O16 1_555 1_555
H16 O16 1_555 1_555
O17 Co1 1_555 1_555
H17 O17 1_555 1_555
H18 O17 1_555 1_555
O18 H19 1_555 1_555
H20 O18 1_555 1_555
O19 H21 1_555 1_555
H22 O19 1_555 1_555
Co1_2 O4 1_555 1_555
Co1_3 O11 1_555 1_555
Co1A O13 1_555 1_555
Co1A_2 O8 1_555 1_555
Co2_2 O5 1_555 1_555
Co2A O8 1_555 1_555
Co3_2 O10 1_555 1_555
Co3A O13 1_555 1_555
O4_2 Co1 1_555 1_555
O5_2 Co2 1_555 1_555
O8A Co1 1_555 1_555
O10_2 Co3 1_555 1_555
O11_2 Co1 1_555 1_555
O13A Co1 1_555 1_555
C6 C7 1_555 1_555
C8 O3 1_555 1_555
C10 O6 1_555 1_555
C12 O9 1_555 1_555
Co2 O8A 1_555 1_555
Co3 O12 1_555 1_555
Co3 O13A 1_555 1_555
Co3A O13A 1_555 1_555

#END
