
#######################################################################
#
#                 Cambridge Crystallographic Data Centre
#                                CCDC 
#
#######################################################################
#
# If this CIF has been generated from an entry in the Cambridge 
# Structural Database, then it will include bibliographic, chemical, 
# crystal, experimental, refinement or atomic coordinate data resulting 
# from the CCDC's data processing and validation procedures.
#
#######################################################################

data_FUGXAI
_symmetry_cell_setting           monoclinic
_symmetry_space_group_name_H-M   'P 21/c'
_symmetry_Int_Tables_number      14
_space_group_name_Hall           '-P 2ybc'
loop_
_symmetry_equiv_pos_site_id
_symmetry_equiv_pos_as_xyz
1 x,y,z
2 -x,1/2+y,1/2-z
3 -x,-y,-z
4 x,1/2-y,1/2+z
_cell_length_a                   8.0745(3)
_cell_length_b                   8.5747(4)
_cell_length_c                   22.7033(10)
_cell_angle_alpha                90
_cell_angle_beta                 92.1660(10)
_cell_angle_gamma                90
_cell_volume                     1570.77
loop_
_atom_site_label
_atom_site_type_symbol
_atom_site_fract_x
_atom_site_fract_y
_atom_site_fract_z
C1 C 0.4950(3) 0.2108(2) 0.12947(9)
C2 C 0.3844(3) 0.2763(2) 0.17461(9)
C3 C 0.4131(3) 0.2366(3) 0.23366(9)
H1 H 0.4950 0.1651 0.2449
C4 C 0.3164(3) 0.3066(2) 0.27510(9)
C5 C 0.1915(2) 0.4122(2) 0.25865(9)
C6 C 0.1611(3) 0.4472(2) 0.19920(9)
C7 C 0.2591(3) 0.3789(3) 0.15714(9)
H2 H 0.2407 0.4021 0.1174
C8 C 0.4685(3) 0.1902(3) 0.35619(10)
H3 H 0.5677 0.2192 0.3360
H4 H 0.4472 0.0803 0.3493
C9 C 0.4914(3) 0.2212(2) 0.42137(9)
C10 C -0.0622(3) 0.4672(3) 0.30766(10)
H5 H -0.0974 0.3725 0.2874
H6 H -0.1196 0.5546 0.2890
C11 C -0.1044(3) 0.4579(3) 0.37209(10)
C12 C -0.0082(3) 0.5788(3) 0.12661(10)
H7 H 0.0912 0.5896 0.1043
H8 H -0.0691 0.6761 0.1233
C13 C -0.1136(3) 0.4497(3) 0.09960(11)
O1 O 0.59205(19) 0.10471(18) 0.14599(7)
O2 O 0.4846(2) 0.2692(2) 0.07830(7)
O3 O 0.33145(19) 0.28091(18) 0.33489(6)
O4 O 0.5963(2) 0.1353(2) 0.44791(7)
O5 O 0.4119(2) 0.3285(2) 0.44484(7)
O6 O 0.11331(19) 0.48665(19) 0.30363(7)
O7 O 0.01815(18) 0.45116(19) 0.41047(7)
O8 O -0.2495(2) 0.4555(3) 0.38469(9)
O9 O 0.0389(2) 0.5534(2) 0.18707(7)
O10 O -0.1386(3) 0.3275(2) 0.12490(10)
O11 O 0.23091(18) 0.59407(18) 0.48340(7)
H9 H 0.2947 0.5602 0.5093
O12 O -0.1774(2) 0.4835(2) 0.04840(9)
O13 O -0.1247(2) 0.7250(2) 0.48005(8)
H10 H -0.1233 0.8053 0.5001
H11 H -0.2211 0.6950 0.4731
Zn1 Zn 0.0000 0.5000 0.5000
Zn2 Zn 0.26081(3) 0.48538(3) 0.401661(11)
Zn3 Zn 0.32360(3) 0.80550(3) 0.472060(11)
C1B C -0.4950(3) 0.7892(2) 0.87053(9)
C2B C -0.3844(3) 0.7237(2) 0.82539(9)
C3B C -0.4131(3) 0.7634(3) 0.76634(9)
H1B H -0.4950 0.8349 0.7551
C4B C -0.3164(3) 0.6934(2) 0.72490(9)
C5B C -0.1915(2) 0.5878(2) 0.74135(9)
C6B C -0.1611(3) 0.5528(2) 0.80080(9)
C7B C -0.2591(3) 0.6211(3) 0.84286(9)
H2B H -0.2407 0.5979 0.8826
C8B C -0.4685(3) 0.8098(3) 0.64381(10)
H3B H -0.5677 0.7808 0.6640
H4B H -0.4472 0.9197 0.6507
C9B C -0.4914(3) 0.7788(2) 0.57863(9)
C10B C 0.0622(3) 0.5328(3) 0.69234(10)
H5B H 0.0974 0.6275 0.7126
H6B H 0.1196 0.4454 0.7110
C11B C 0.1044(3) 0.5421(3) 0.62791(10)
C12B C 0.0082(3) 0.4212(3) 0.87339(10)
H7B H -0.0912 0.4104 0.8957
H8B H 0.0691 0.3239 0.8767
C13B C 0.1136(3) 0.5503(3) 0.90040(11)
O1B O -0.59205(19) 0.89529(18) 0.85401(7)
O2B O -0.4846(2) 0.7308(2) 0.92170(7)
O3B O -0.33145(19) 0.71909(18) 0.66511(6)
O4B O -0.5963(2) 0.8647(2) 0.55209(7)
O5B O -0.4119(2) 0.6715(2) 0.55516(7)
O6B O -0.11331(19) 0.51335(19) 0.69637(7)
O7B O -0.01815(18) 0.54884(19) 0.58953(7)
O8B O 0.2495(2) 0.5445(3) 0.61531(9)
O9B O -0.0389(2) 0.4466(2) 0.81293(7)
O10B O 0.1386(3) 0.6725(2) 0.87510(10)
O11B O -0.23091(18) 0.40593(18) 0.51660(7)
H9B H -0.2947 0.4398 0.4907
O12B O 0.1774(2) 0.5165(2) 0.95160(9)
O13B O 0.1247(2) 0.2750(2) 0.51995(8)
H10B H 0.1233 0.1947 0.4999
H11B H 0.2211 0.3050 0.5269
Zn2B Zn -0.26081(3) 0.51462(3) 0.598339(11)
Zn3B Zn -0.32360(3) 0.19450(3) 0.527940(11)
O1A O 0.40795(19) 0.60471(18) 0.35401(7)
O1C O -0.40795(19) 0.39529(18) 0.64599(7)
O2A O 0.5154(2) 0.7692(2) 0.42170(7)
O2C O -0.5154(2) 0.2308(2) 0.57830(7)
O4_2 O -0.4037(2) 0.1353(2) 0.44791(7)
O4B_2 O 0.4037(2) 0.8647(2) 0.55209(7)
O12A O 0.1774(2) 0.9835(2) 0.45160(9)
O12C O -0.1774(2) 0.0165(2) 0.54840(9)
Zn2A Zn 0.73919(3) -0.01462(3) 0.098339(11)
Zn2C Zn -0.73919(3) 1.01462(3) 0.901661(11)
Zn3_2 Zn -0.67640(3) 0.80550(3) 0.472060(11)
Zn3A Zn -0.32360(3) 0.30550(3) 0.027940(11)
Zn3A_2 Zn 0.67640(3) 0.30550(3) 0.027940(11)
Zn3B_2 Zn 0.67640(3) 0.19450(3) 0.527940(11)
Zn3C Zn -0.67640(3) 0.69450(3) 0.972060(11)
Zn3C_2 Zn 0.32360(3) 0.69450(3) 0.972060(11)
loop_
_geom_bond_atom_site_label_1
_geom_bond_atom_site_label_2
_geom_bond_site_symmetry_1
_geom_bond_site_symmetry_2
C1 C2 1_555 1_555
C2 C3 1_555 1_555
C3 H1 1_555 1_555
C4 C3 1_555 1_555
C5 C4 1_555 1_555
C6 C5 1_555 1_555
C7 C2 1_555 1_555
H2 C7 1_555 1_555
C8 H3 1_555 1_555
H4 C8 1_555 1_555
C9 C8 1_555 1_555
C10 H5 1_555 1_555
H6 C10 1_555 1_555
C11 C10 1_555 1_555
C12 H7 1_555 1_555
H8 C12 1_555 1_555
C13 C12 1_555 1_555
O1 C1 1_555 1_555
O2 C1 1_555 1_555
O3 C4 1_555 1_555
O4 C9 1_555 1_555
O5 C9 1_555 1_555
O6 C5 1_555 1_555
O7 C11 1_555 1_555
O8 C11 1_555 1_555
O9 C6 1_555 1_555
O10 C13 1_555 1_555
O11 H9 1_555 1_555
O12 C13 1_555 1_555
O13 H10 1_555 1_555
H11 O13 1_555 1_555
Zn1 O7 1_555 1_555
Zn2 O3 1_555 1_555
Zn3 O11 1_555 1_555
C1B C2B 1_555 1_555
C2B C3B 1_555 1_555
C3B H1B 1_555 1_555
C4B C3B 1_555 1_555
C5B C4B 1_555 1_555
C6B C5B 1_555 1_555
C7B C2B 1_555 1_555
H2B C7B 1_555 1_555
C8B H3B 1_555 1_555
H4B C8B 1_555 1_555
C9B C8B 1_555 1_555
C10B H5B 1_555 1_555
H6B C10B 1_555 1_555
C11B C10B 1_555 1_555
C12B H7B 1_555 1_555
H8B C12B 1_555 1_555
C13B C12B 1_555 1_555
O1B C1B 1_555 1_555
O2B C1B 1_555 1_555
O3B C4B 1_555 1_555
O4B C9B 1_555 1_555
O5B C9B 1_555 1_555
O6B C5B 1_555 1_555
O7B Zn1 1_555 1_555
O8B C11B 1_555 1_555
O9B C6B 1_555 1_555
O10B C13B 1_555 1_555
O11B Zn1 1_555 1_555
H9B O11B 1_555 1_555
O12B C13B 1_555 1_555
O13B Zn1 1_555 1_555
H10B O13B 1_555 1_555
H11B O13B 1_555 1_555
Zn2B O3B 1_555 1_555
Zn3B O11B 1_555 1_555
O1A Zn2 1_555 1_555
O1C Zn2B 1_555 1_555
O2A Zn3 1_555 1_555
O2C Zn3B 1_555 1_555
O4_2 Zn3B 1_555 1_555
O4B_2 Zn3 1_555 1_555
O12A Zn3 1_555 1_555
O12C Zn3B 1_555 1_555
Zn2A O1 1_555 1_555
Zn2C O1B 1_555 1_555
Zn3_2 O4B 1_555 1_555
Zn3A O12 1_555 1_555
Zn3A_2 O2 1_555 1_555
Zn3B_2 O4 1_555 1_555
Zn3C O2B 1_555 1_555
Zn3C_2 O12B 1_555 1_555
C6 C7 1_555 1_555
C8 O3 1_555 1_555
C10 O6 1_555 1_555
C12 O9 1_555 1_555
O5 Zn2 1_555 1_555
O6 Zn2 1_555 1_555
O7 Zn2 1_555 1_555
O11 Zn1 1_555 1_555
O11 Zn2 1_555 1_555
O13 Zn1 1_555 1_555
C6B C7B 1_555 1_555
C8B O3B 1_555 1_555
C10B O6B 1_555 1_555
C11B O7B 1_555 1_555
C12B O9B 1_555 1_555
O5B Zn2B 1_555 1_555
O6B Zn2B 1_555 1_555
O7B Zn2B 1_555 1_555
O11B Zn2B 1_555 1_555

#END
