
#######################################################################
#
#                 Cambridge Crystallographic Data Centre
#                                CCDC 
#
#######################################################################
#
# If this CIF has been generated from an entry in the Cambridge 
# Structural Database, then it will include bibliographic, chemical, 
# crystal, experimental, refinement or atomic coordinate data resulting 
# from the CCDC's data processing and validation procedures.
#
#######################################################################

data_FUHJID
_symmetry_cell_setting           monoclinic
_symmetry_space_group_name_H-M   'P 21/c'
_symmetry_Int_Tables_number      14
_space_group_name_Hall           '-P 2ybc'
loop_
_symmetry_equiv_pos_site_id
_symmetry_equiv_pos_as_xyz
1 x,y,z
2 -x,1/2+y,1/2-z
3 -x,-y,-z
4 x,1/2-y,1/2+z
_cell_length_a                   11.0261(11)
_cell_length_b                   31.406(3)
_cell_length_c                   8.4970(8)
_cell_angle_alpha                90
_cell_angle_beta                 99.010(3)
_cell_angle_gamma                90
_cell_volume                     2906.08
loop_
_atom_site_label
_atom_site_type_symbol
_atom_site_fract_x
_atom_site_fract_y
_atom_site_fract_z
Co1 Co 0.71592(6) 0.11223(2) 0.56016(8)
C1 C 1.2094(4) 0.19926(16) 1.1286(6)
H1 H 1.2367 0.2153 1.2251
H2 H 1.2764 0.1983 1.0669
C2 C 1.2833(5) 0.13505(19) 1.2816(7)
C3 C 1.1755(5) 0.15406(18) 1.1717(6)
H3 H 1.1063 0.1560 1.2309
C4 C 1.0534(4) 0.19666(16) 0.8787(6)
H4 H 1.1155 0.1974 0.8096
H5 H 0.9800 0.2103 0.8231
C5 C 1.1328(4) 0.12842(16) 1.0185(6)
H6 H 1.2003 0.1257 0.9584
H7 H 1.1088 0.1000 1.0465
C6 C 0.9762(5) 0.12704(18) 0.7588(6)
C7 C 1.0245(5) 0.15017(17) 0.9153(6)
H8 H 0.9570 0.1508 0.9779
C8 C 1.1207(5) 0.26720(18) 0.9917(6)
C9 C 1.0994(5) 0.22119(17) 1.0324(6)
H9 H 1.0332 0.2208 1.0971
O1 O 0.8778(3) 0.14107(11) 0.6811(4)
O2 O 1.3519(3) 0.10818(12) 1.2320(4)
O3 O 1.2358(3) 0.27927(12) 1.0195(5)
H10 H 1.2407 0.3044 0.9955
O4 O 1.0354(3) 0.09505(13) 0.7205(4)
O5 O 1.2977(3) 0.14813(12) 1.4250(4)
O6 O 1.0377(3) 0.29107(12) 0.9415(5)
O7 O 0.5413(3) 0.08506(11) 0.4599(4)
H11 H 0.5449 0.0581 0.4684
H12 H 0.5248 0.0918 0.3618
N1 N 0.8043(3) 0.07517(14) 0.4016(5)
N2 N 0.6223(3) 0.15081(13) -0.2895(5)
N3 N 0.7146(4) 0.01966(14) -0.3267(5)
H13 H 0.6838 0.0125 -0.4223
N4 N 0.7385(4) 0.06026(14) -0.2799(5)
C10 C 0.7860(5) 0.05685(17) -0.1260(6)
H14 H 0.8113 0.0799 -0.0604
C11 C 0.7932(4) 0.01471(16) -0.0753(6)
C12 C 0.8410(5) -0.00344(17) 0.0868(6)
H15 H 0.7868 -0.0263 0.1086
H16 H 0.9212 -0.0158 0.0839
C13 C 0.8520(5) 0.02782(17) 0.2219(6)
C14 C 0.7444(5) -0.00837(18) -0.2073(6)
H17 H 0.7339 -0.0377 -0.2130
N5 N 0.6945(3) 0.16176(13) 0.3887(5)
N6 N 0.7886(4) 0.18854(14) 0.3806(5)
H18 H 0.8564 0.1884 0.4464
C15 C 0.5780(5) 0.22696(16) 0.0327(6)
H19 H 0.6196 0.2530 0.0103
H20 H 0.4961 0.2345 0.0513
C16 C 0.6471(4) 0.20649(16) 0.1806(6)
C17 C 0.7634(5) 0.21567(17) 0.2557(6)
H21 H 0.8153 0.2366 0.2265
C18 C 0.5688(4) 0.19765(16) -0.1096(6)
C19 C 0.6100(4) 0.17276(17) 0.2678(6)
H22 H 0.5341 0.1594 0.2436
N7 N 0.5028(4) 0.16203(14) -0.3275(5)
H23 H 0.4546 0.1524 -0.4092
C20 C 0.4682(5) 0.18987(17) -0.2229(6)
H24 H 0.3905 0.2017 -0.2266
C21 C 0.6603(4) 0.17297(16) -0.1583(6)
H25 H 0.7405 0.1721 -0.1044
N8 N 0.9216(4) 0.06192(15) 0.4433(5)
H26 H 0.9700 0.0705 0.5265
C22 C 0.9527(5) 0.03359(19) 0.3381(6)
H27 H 1.0286 0.0203 0.3428
C23 C 0.7621(5) 0.05456(17) 0.2669(6)
H28 H 0.6833 0.0576 0.2104
Co1_2 Co 0.71592(6) 0.11223(2) -0.43984(8)
N2_2 N 0.6223(3) 0.15081(13) 0.7105(5)
N4_2 N 0.7385(4) 0.06026(14) 0.7201(5)
O8 O 0.2719(4) 0.09125(17) 0.6710(6)
H29 H 0.235(6) 0.080(2) 0.581(5)
H30 H 0.202(3) 0.093(2) 0.707(8)
O9 O 0.4081(4) 0.02470(14) 0.5995(5)
H31 H 0.452(5) 0.0133(17) 0.684(4)
H32 H 0.367(5) 0.0449(14) 0.638(6)
O10 O 0.4542(6) 0.08101(19) 0.9644(7)
H33 H 0.410(6) 0.0862(19) 1.039(6)
H34 H 0.469(7) 0.0535(6) 0.966(8)
O11? O 0.4804(7) -0.0024(3) 0.9059(10)
loop_
_geom_bond_atom_site_label_1
_geom_bond_atom_site_label_2
_geom_bond_site_symmetry_1
_geom_bond_site_symmetry_2
Co1 O1 1_555 1_555
C1 H1 1_555 1_555
H2 C1 1_555 1_555
C2 C3 1_555 1_555
C3 C1 1_555 1_555
H3 C3 1_555 1_555
C4 H4 1_555 1_555
H5 C4 1_555 1_555
C5 C3 1_555 1_555
H6 C5 1_555 1_555
H7 C5 1_555 1_555
C6 C7 1_555 1_555
C7 C4 1_555 1_555
H8 C7 1_555 1_555
C8 C9 1_555 1_555
C9 C1 1_555 1_555
H9 C9 1_555 1_555
O1 C6 1_555 1_555
O2 C2 1_555 1_555
O3 C8 1_555 1_555
H10 O3 1_555 1_555
O4 C6 1_555 1_555
O5 C2 1_555 1_555
O6 C8 1_555 1_555
O7 Co1 1_555 1_555
H11 O7 1_555 1_555
H12 O7 1_555 1_555
N1 Co1 1_555 1_555
N2 N7 1_555 1_555
N3 H13 1_555 1_555
N4 N3 1_555 1_555
C10 N4 1_555 1_555
H14 C10 1_555 1_555
C11 C10 1_555 1_555
C12 C11 1_555 1_555
H15 C12 1_555 1_555
H16 C12 1_555 1_555
C13 C12 1_555 1_555
C14 N3 1_555 1_555
H17 C14 1_555 1_555
N5 Co1 1_555 1_555
N6 N5 1_555 1_555
H18 N6 1_555 1_555
C15 H19 1_555 1_555
H20 C15 1_555 1_555
C16 C15 1_555 1_555
C17 N6 1_555 1_555
H21 C17 1_555 1_555
C18 C15 1_555 1_555
C19 N5 1_555 1_555
H22 C19 1_555 1_555
N7 H23 1_555 1_555
C20 C18 1_555 1_555
H24 C20 1_555 1_555
C21 N2 1_555 1_555
H25 C21 1_555 1_555
N8 N1 1_555 1_555
H26 N8 1_555 1_555
C22 C13 1_555 1_555
H27 C22 1_555 1_555
C23 N1 1_555 1_555
H28 C23 1_555 1_555
O8 H29 1_555 1_555
H30 O8 1_555 1_555
O9 H31 1_555 1_555
H32 O9 1_555 1_555
O10 H33 1_555 1_555
H34 O10 1_555 1_555
Co1_2 N2 1_555 1_555
N2_2 Co1 1_555 1_555
N4_2 Co1 1_555 1_555
C4 C9 1_555 1_555
C5 C7 1_555 1_555
N4 Co1_2 1_555 1_555
C11 C14 1_555 1_555
C13 C23 1_555 1_555
C16 C17 1_555 1_555
C16 C19 1_555 1_555
C18 C21 1_555 1_555
N7 C20 1_555 1_555
N8 C22 1_555 1_555

#END
