
#######################################################################
#
#                 Cambridge Crystallographic Data Centre
#                                CCDC 
#
#######################################################################
#
# If this CIF has been generated from an entry in the Cambridge 
# Structural Database, then it will include bibliographic, chemical, 
# crystal, experimental, refinement or atomic coordinate data resulting 
# from the CCDC's data processing and validation procedures.
#
#######################################################################

data_FUHJAV
_symmetry_cell_setting           orthorhombic
_symmetry_space_group_name_H-M   'P 21 21 21'
_symmetry_Int_Tables_number      19
_space_group_name_Hall           'P 2ac 2ab'
loop_
_symmetry_equiv_pos_site_id
_symmetry_equiv_pos_as_xyz
1 x,y,z
2 1/2+x,1/2-y,-z
3 -x,1/2+y,1/2-z
4 1/2-x,-y,1/2+z
_cell_length_a                   5.418(3)
_cell_length_b                   17.007(8)
_cell_length_c                   18.413(8)
_cell_angle_alpha                90
_cell_angle_beta                 90
_cell_angle_gamma                90
_cell_volume                     1696.65
loop_
_atom_site_label
_atom_site_type_symbol
_atom_site_fract_x
_atom_site_fract_y
_atom_site_fract_z
Co1 Co 0.8168(2) 0.99386(7) 0.62228(6)
C1 C 1.119(2) 0.8241(6) 0.4708(5)
H1 H 1.2403 0.7888 0.4559
C2 C 0.8979(18) 0.8378(5) 0.4359(5)
C3 C 0.790(2) 0.8946(5) 0.4806(5)
H2 H 0.6357 0.9162 0.4712
C4 C 0.799(2) 0.8014(5) 0.3695(5)
H3 H 0.6214 0.7956 0.3748
H4 H 0.8685 0.7492 0.3645
C5 C 0.8494(19) 0.8465(5) 0.3015(4)
C6 C 0.707(2) 0.9050(5) 0.2675(5)
H5 H 0.5581 0.9241 0.2855
C7 C 1.0501(19) 0.8374(5) 0.2573(5)
H6 H 1.1809 0.8029 0.2647
C8 C 1.0004(19) 0.8738(5) 0.7345(5)
C9 C 1.188(2) 0.8492(5) 0.7892(5)
H7 H 1.3322 0.8319 0.7612
C10 C 1.2786(17) 0.9193(5) 0.8363(5)
H8 H 1.4351 0.9057 0.8586
H9 H 1.3054 0.9646 0.8054
C11 C 1.0934(17) 0.9407(5) 0.8956(5)
H10 H 0.9450 0.9614 0.8732
H11 H 1.1631 0.9818 0.9259
C12 C 1.0246(18) 0.8706(5) 0.9434(4)
H12 H 1.1761 0.8525 0.9672
C13 C 0.9292(19) 0.8029(5) 0.8972(4)
H13 H 0.7757 0.8181 0.8740
H14 H 0.8965 0.7577 0.9279
C14 C 1.1208(18) 0.7805(5) 0.8386(5)
H15 H 1.2692 0.7614 0.8623
H16 H 1.0551 0.7380 0.8093
C15 C 0.845(2) 0.8944(5) 1.0031(5)
O1 O 0.8071(15) 0.8333(4) 0.7246(4)
O2 O 1.0442(12) 0.9357(3) 0.6970(3)
O3 O 0.9123(12) 0.9491(3) 1.0463(3)
O4 O 0.6467(16) 0.8602(4) 1.0064(4)
O5 O 0.5107(12) 0.9138(3) 0.6413(3)
O6 O 1.1193(11) 1.0673(3) 0.5959(3)
N1 N 0.9223(15) 0.9147(4) 0.5364(4)
N2 N 1.1313(16) 0.8712(4) 0.5307(4)
H17 H 1.2534 0.8730 0.5604
N3 N 0.8127(16) 0.9295(4) 0.2060(4)
N4 N 1.0246(15) 0.8872(4) 0.2012(4)
H18 H 1.1298 0.8918 0.1665
Co1C Co 0.6832(2) 1.00614(7) 0.12228(6)
Co1C_2 Co 0.6832(2) 1.00614(7) 1.12228(6)
O3C O 0.5877(12) 1.0509(3) 0.5463(3)
N3C N 0.6873(16) 1.0705(4) 0.7060(4)
loop_
_geom_bond_atom_site_label_1
_geom_bond_atom_site_label_2
_geom_bond_site_symmetry_1
_geom_bond_site_symmetry_2
Co1 O2 1_555 1_555
C1 H1 1_555 1_555
C2 C1 1_555 1_555
C3 C2 1_555 1_555
H2 C3 1_555 1_555
C4 C2 1_555 1_555
H3 C4 1_555 1_555
H4 C4 1_555 1_555
C5 C4 1_555 1_555
C6 C5 1_555 1_555
H5 C6 1_555 1_555
C7 C5 1_555 1_555
H6 C7 1_555 1_555
C8 C9 1_555 1_555
C9 H7 1_555 1_555
C10 C9 1_555 1_555
H8 C10 1_555 1_555
H9 C10 1_555 1_555
C11 C10 1_555 1_555
H10 C11 1_555 1_555
H11 C11 1_555 1_555
C12 C11 1_555 1_555
H12 C12 1_555 1_555
C13 C12 1_555 1_555
H13 C13 1_555 1_555
H14 C13 1_555 1_555
C14 C9 1_555 1_555
H15 C14 1_555 1_555
H16 C14 1_555 1_555
C15 C12 1_555 1_555
O1 C8 1_555 1_555
O2 C8 1_555 1_555
O3 C15 1_555 1_555
O4 C15 1_555 1_555
O5 Co1 1_555 1_555
O6 Co1 1_555 1_555
N1 Co1 1_555 1_555
N2 C1 1_555 1_555
H17 N2 1_555 1_555
N3 C6 1_555 1_555
N4 C7 1_555 1_555
H18 N4 1_555 1_555
Co1C N3 1_555 1_555
Co1C_2 O3 1_555 1_555
O3C Co1 1_555 1_555
N3C Co1 1_555 1_555
C3 N1 1_555 1_555
C13 C14 1_555 1_555
N1 N2 1_555 1_555
N3 N4 1_555 1_555

#END
