
#######################################################################
#
#                 Cambridge Crystallographic Data Centre
#                                CCDC 
#
#######################################################################
#
# If this CIF has been generated from an entry in the Cambridge 
# Structural Database, then it will include bibliographic, chemical, 
# crystal, experimental, refinement or atomic coordinate data resulting 
# from the CCDC's data processing and validation procedures.
#
#######################################################################

data_FUHLIF
_symmetry_cell_setting           monoclinic
_symmetry_space_group_name_H-M   'P 21/c'
_symmetry_Int_Tables_number      14
_space_group_name_Hall           '-P 2ybc'
loop_
_symmetry_equiv_pos_site_id
_symmetry_equiv_pos_as_xyz
1 x,y,z
2 -x,1/2+y,1/2-z
3 -x,-y,-z
4 x,1/2-y,1/2+z
_cell_length_a                   9.666(4)
_cell_length_b                   17.712(8)
_cell_length_c                   15.214(7)
_cell_angle_alpha                90
_cell_angle_beta                 96.820(10)
_cell_angle_gamma                90
_cell_volume                     2586.27
loop_
_atom_site_label
_atom_site_type_symbol
_atom_site_fract_x
_atom_site_fract_y
_atom_site_fract_z
Co1 Co 0.26388(5) -0.59050(3) 0.26262(3)
O1 O 0.1271(2) -0.66507(17) 0.29174(19)
O2 O -0.0170(3) -0.57030(19) 0.2594(2)
O3 O -0.5459(3) -0.63126(18) 0.2740(2)
O4 O -0.6089(3) -0.7393(2) 0.2084(2)
N1 N 0.3799(4) -0.4326(2) 0.4615(2)
N2 N 0.2896(4) -0.5174(2) 0.3660(2)
N3 N 0.1810(4) -0.0274(2) 0.5231(2)
N4 N 0.2396(3) 0.0427(2) 0.6413(2)
C1 C 0.3642(4) -0.2954(3) 0.4890(3)
C2 C 0.4289(4) -0.2267(3) 0.5103(3)
H1 H 0.5251 -0.2253 0.5287
C3 C 0.3530(4) -0.1604(3) 0.5045(3)
H2 H 0.3984 -0.1143 0.5189
C4 C 0.2108(4) -0.1610(2) 0.4776(2)
C5 C 0.1466(4) -0.2285(3) 0.4565(3)
H3 H 0.0501 -0.2297 0.4387
C6 C 0.2228(4) -0.2952(3) 0.4613(3)
H4 H 0.1774 -0.3410 0.4453
C7 C 0.4515(5) -0.3675(3) 0.5013(3)
H5 H 0.5383 -0.3602 0.4751
H6 H 0.4759 -0.3769 0.5647
C8 C 0.1239(5) -0.0900(3) 0.4672(3)
H7 H 0.1155 -0.0740 0.4051
H8 H 0.0300 -0.1015 0.4817
C9 C 0.3771(4) -0.4610(3) 0.3803(3)
C10 C 0.2293(5) -0.5264(3) 0.4461(3)
H9 H 0.1612 -0.5622 0.4564
C11 C 0.2852(5) -0.4761(3) 0.5035(3)
H10 H 0.2653 -0.4703 0.5621
C12 C 0.4658(5) -0.4329(3) 0.3145(3)
H11 H 0.4472 -0.4619 0.2603
H12 H 0.5632 -0.4384 0.3378
H13 H 0.4454 -0.3801 0.3022
C13 C 0.1753(4) -0.0201(2) 0.6115(3)
C14 C 0.2874(5) 0.0768(3) 0.5690(3)
H14 H 0.3360 0.1228 0.5700
C15 C 0.2528(5) 0.0334(3) 0.4969(3)
H15 H 0.2742 0.0432 0.4393
C16 C 0.1091(5) -0.0764(3) 0.6650(3)
H16 H 0.1169 -0.0597 0.7261
H17 H 0.1554 -0.1247 0.6617
H18 H 0.0115 -0.0815 0.6422
C17 C 0.0028(4) -0.6368(3) 0.2789(3)
C18 C -0.1136(4) -0.6924(3) 0.2866(3)
H19 H -0.1023 -0.7133 0.3466
H20 H -0.1041 -0.7342 0.2455
C19 C -0.2595(3) -0.6602(2) 0.2675(3)
H21 H -0.2665 -0.6309 0.2126
H22 H -0.2771 -0.6260 0.3156
C20 C -0.3692(3) -0.7221(2) 0.2587(3)
H23 H -0.3527 -0.7543 0.2087
H24 H -0.3559 -0.7533 0.3122
C21 C -0.5188(4) -0.6963(3) 0.2453(3)
Co1_2 Co -0.73612(5) -0.59050(3) 0.26262(3)
Co1C Co 0.26388(5) 0.09050(3) 0.76262(3)
O3_2 O 0.4541(3) -0.63126(18) 0.2740(2)
N4C N 0.2396(3) -0.5427(2) 0.1413(2)
O5 O 0.3127(5) -0.8658(3) 0.3196(3)
H25 H 0.238(5) -0.838(3) 0.335(4)
H26 H 0.341(5) -0.833(2) 0.280(2)
O6 O 0.1709(6) -0.7757(3) 0.4235(3)
H27 H 0.150(7) -0.739(3) 0.382(3)
H28 H 0.205(7) -0.746(3) 0.471(3)
O7 O 0.1992(7) -0.8034(3) 0.0822(3)
H29 H 0.153(8) -0.839(3) 0.111(4)
H30 H 0.222(8) -0.770(3) 0.127(4)
O8 O 0.1528(7) -0.9405(4) 0.1773(3)
H31 H 0.129(8) -0.983(2) 0.204(4)
H32 H 0.190(8) -0.912(3) 0.223(3)
loop_
_geom_bond_atom_site_label_1
_geom_bond_atom_site_label_2
_geom_bond_site_symmetry_1
_geom_bond_site_symmetry_2
Co1 O1 1_555 1_555
O1 C17 1_555 1_555
O2 C17 1_555 1_555
O3 C21 1_555 1_555
O4 C21 1_555 1_555
N1 C7 1_555 1_555
N2 Co1 1_555 1_555
N3 C8 1_555 1_555
N4 C13 1_555 1_555
C1 C2 1_555 1_555
C2 H1 1_555 1_555
C3 C2 1_555 1_555
H2 C3 1_555 1_555
C4 C3 1_555 1_555
C5 C4 1_555 1_555
H3 C5 1_555 1_555
C6 C1 1_555 1_555
H4 C6 1_555 1_555
C7 C1 1_555 1_555
H5 C7 1_555 1_555
H6 C7 1_555 1_555
C8 C4 1_555 1_555
H7 C8 1_555 1_555
H8 C8 1_555 1_555
C9 N1 1_555 1_555
C10 N2 1_555 1_555
H9 C10 1_555 1_555
C11 N1 1_555 1_555
H10 C11 1_555 1_555
C12 C9 1_555 1_555
H11 C12 1_555 1_555
H12 C12 1_555 1_555
H13 C12 1_555 1_555
C13 N3 1_555 1_555
C14 N4 1_555 1_555
H14 C14 1_555 1_555
C15 N3 1_555 1_555
H15 C15 1_555 1_555
C16 C13 1_555 1_555
H16 C16 1_555 1_555
H17 C16 1_555 1_555
H18 C16 1_555 1_555
C17 C18 1_555 1_555
C18 H19 1_555 1_555
H20 C18 1_555 1_555
C19 C18 1_555 1_555
H21 C19 1_555 1_555
H22 C19 1_555 1_555
C20 C19 1_555 1_555
H23 C20 1_555 1_555
H24 C20 1_555 1_555
C21 C20 1_555 1_555
O5 H25 1_555 1_555
H26 O5 1_555 1_555
O6 H27 1_555 1_555
H28 O6 1_555 1_555
O7 H29 1_555 1_555
H30 O7 1_555 1_555
O8 H31 1_555 1_555
H32 O8 1_555 1_555
Co1_2 O3 1_555 1_555
Co1C N4 1_555 1_555
O3_2 Co1 1_555 1_555
N4C Co1 1_555 1_555
N2 C9 1_555 1_555
C5 C6 1_555 1_555
C10 C11 1_555 1_555
C14 C15 1_555 1_555

#END
