
#######################################################################
#
#                 Cambridge Crystallographic Data Centre
#                                CCDC 
#
#######################################################################
#
# If this CIF has been generated from an entry in the Cambridge 
# Structural Database, then it will include bibliographic, chemical, 
# crystal, experimental, refinement or atomic coordinate data resulting 
# from the CCDC's data processing and validation procedures.
#
#######################################################################

data_FUHLAX
_symmetry_cell_setting           monoclinic
_symmetry_space_group_name_H-M   'P 21/c'
_symmetry_Int_Tables_number      14
_space_group_name_Hall           '-P 2ybc'
loop_
_symmetry_equiv_pos_site_id
_symmetry_equiv_pos_as_xyz
1 x,y,z
2 -x,1/2+y,1/2-z
3 -x,-y,-z
4 x,1/2-y,1/2+z
_cell_length_a                   10.675(2)
_cell_length_b                   13.996(3)
_cell_length_c                   14.975(3)
_cell_angle_alpha                90
_cell_angle_beta                 94.029(4)
_cell_angle_gamma                90
_cell_volume                     2231.84
loop_
_atom_site_label
_atom_site_type_symbol
_atom_site_fract_x
_atom_site_fract_y
_atom_site_fract_z
Co1 Co 0.0000 0.0000 0.0000
Mn1 Mn 0.01299(13) 0.05230(10) 0.33566(8)
C1 C -0.0407(9) -0.1303(7) 0.0011(6)
C2 C 0.1699(11) -0.0251(7) 0.0431(6)
N1 N -0.0700(9) -0.2093(6) -0.0018(6)
N2 N 0.2712(9) -0.0356(8) 0.0676(7)
N3 N -0.0713(8) 0.0175(6) 0.1921(5)
C3 C -0.0468(9) 0.0106(7) 0.1188(6)
O1 O 0.1165(7) 0.0976(5) 0.4658(4)
C4 C 0.1769(9) -0.1088(7) 0.3615(6)
C5 C 0.1980(10) -0.1987(7) 0.4004(6)
H1 H 0.1314 -0.2307 0.4238
C6 C 0.2797(9) -0.0617(8) 0.3247(6)
C7 C 0.3983(11) -0.1084(9) 0.3301(7)
H2 H 0.4671 -0.0791 0.3068
C8 C 0.3143(12) -0.2411(9) 0.4049(7)
H3 H 0.3266 -0.3003 0.4323
C9 C 0.4111(11) -0.1957(10) 0.3690(7)
C10 C 0.2686(10) 0.0309(8) 0.2810(6)
H4 H 0.3373 0.0533 0.2523
N4 N 0.1713(7) 0.0832(6) 0.2793(5)
C11 C 0.0893(10) 0.2425(8) 0.2825(6)
H5 H 0.1392 0.2670 0.3341
H6 H 0.0620 0.2961 0.2448
C12 C 0.1655(10) 0.1744(7) 0.2312(6)
H7 H 0.1266 0.1655 0.1712
H8 H 0.2494 0.1995 0.2265
N5 N -0.0215(7) 0.1895(6) 0.3117(4)
C13 C -0.1234(10) 0.2321(7) 0.3249(6)
H9 H -0.1261 0.2975 0.3136
C14 C -0.3535(9) 0.0570(8) 0.4144(7)
H10 H -0.3586 -0.0061 0.4336
C15 C -0.2399(9) 0.0933(7) 0.3861(6)
C16 C -0.2364(9) 0.1890(7) 0.3557(6)
C17 C -0.3456(10) 0.2445(8) 0.3571(7)
H11 H -0.3438 0.3077 0.3381
C18 C -0.4523(10) 0.2087(8) 0.3852(7)
C19 C -0.4554(10) 0.1150(9) 0.4135(7)
H12 H -0.5301 0.0907 0.4326
O2 O -0.1398(6) 0.0350(5) 0.3891(4)
Cl1 Cl -0.5861(3) 0.2800(3) 0.3847(2)
Cl2 Cl 0.5599(4) -0.2491(3) 0.3757(3)
O3 O 0.0631(6) -0.0742(4) 0.3582(4)
K1 K 0.5000 0.0000 0.0000
O4 O 0.6277(11) 0.0260(7) 0.1664(9)
H13 H 0.139(14) 0.068(6) 0.511(6)
H14 H 0.152(5) 0.1504(12) 0.475(6)
H15 H 0.6549 -0.0268 0.1848
H16 H 0.6921 0.0385 0.1950
Mn1B Mn -0.01299(13) -0.05230(10) -0.33566(8)
C1B C 0.0407(9) 0.1303(7) -0.0011(6)
C2B C -0.1699(11) 0.0251(7) -0.0431(6)
N1B N 0.0700(9) 0.2093(6) 0.0018(6)
N2B N -0.2712(9) 0.0356(8) -0.0676(7)
N3B N 0.0713(8) -0.0175(6) -0.1921(5)
C3B C 0.0468(9) -0.0106(7) -0.1188(6)
O1B O -0.1165(7) -0.0976(5) -0.4658(4)
C4B C -0.1769(9) 0.1088(7) -0.3615(6)
C5B C -0.1980(10) 0.1987(7) -0.4004(6)
H1B H -0.1314 0.2307 -0.4238
C6B C -0.2797(9) 0.0617(8) -0.3247(6)
C7B C -0.3983(11) 0.1084(9) -0.3301(7)
H2B H -0.4671 0.0791 -0.3068
C8B C -0.3143(12) 0.2411(9) -0.4049(7)
H3B H -0.3266 0.3003 -0.4323
C9B C -0.4111(11) 0.1957(10) -0.3690(7)
C10B C -0.2686(10) -0.0309(8) -0.2810(6)
H4B H -0.3373 -0.0533 -0.2523
N4B N -0.1713(7) -0.0832(6) -0.2793(5)
C11B C -0.0893(10) -0.2425(8) -0.2825(6)
H5B H -0.1392 -0.2670 -0.3341
H6B H -0.0620 -0.2961 -0.2448
C12B C -0.1655(10) -0.1744(7) -0.2312(6)
H7B H -0.1266 -0.1655 -0.1712
H8B H -0.2494 -0.1995 -0.2265
N5B N 0.0215(7) -0.1895(6) -0.3117(4)
C13B C 0.1234(10) -0.2321(7) -0.3249(6)
H9B H 0.1261 -0.2975 -0.3136
C14B C 0.3535(9) -0.0570(8) -0.4144(7)
H10B H 0.3586 0.0061 -0.4336
C15B C 0.2399(9) -0.0933(7) -0.3861(6)
C16B C 0.2364(9) -0.1890(7) -0.3557(6)
C17B C 0.3456(10) -0.2445(8) -0.3571(7)
H11B H 0.3438 -0.3077 -0.3381
C18B C 0.4523(10) -0.2087(8) -0.3852(7)
C19B C 0.4554(10) -0.1150(9) -0.4135(7)
H12B H 0.5301 -0.0907 -0.4326
O2B O 0.1398(6) -0.0350(5) -0.3891(4)
Cl1B Cl 0.5861(3) -0.2800(3) -0.3847(2)
Cl2B Cl -0.5599(4) 0.2491(3) -0.3757(3)
O3B O -0.0631(6) 0.0742(4) -0.3582(4)
H13B H -0.139(14) -0.068(6) -0.511(6)
H14B H -0.152(5) -0.1504(12) -0.475(6)
O4B O 0.3723(11) -0.0260(7) -0.1664(9)
H15B H 0.3451 0.0268 -0.1848
H16B H 0.3079 -0.0385 -0.1950
N2B_2 N 0.7288(9) 0.0356(8) -0.0676(7)
K1_2 K -0.5000 0.0000 0.0000
loop_
_geom_bond_atom_site_label_1
_geom_bond_atom_site_label_2
_geom_bond_site_symmetry_1
_geom_bond_site_symmetry_2
Co1 C1 1_555 1_555
Mn1 N3 1_555 1_555
C1 N1 1_555 1_555
C2 Co1 1_555 1_555
N2 C2 1_555 1_555
N3 C3 1_555 1_555
C3 Co1 1_555 1_555
O1 Mn1 1_555 1_555
C4 C5 1_555 1_555
C5 H1 1_555 1_555
C6 C4 1_555 1_555
C7 C6 1_555 1_555
H2 C7 1_555 1_555
C8 C5 1_555 1_555
H3 C8 1_555 1_555
C9 C7 1_555 1_555
C10 C6 1_555 1_555
H4 C10 1_555 1_555
N4 Mn1 1_555 1_555
C11 H5 1_555 1_555
H6 C11 1_555 1_555
C12 N4 1_555 1_555
H7 C12 1_555 1_555
H8 C12 1_555 1_555
N5 Mn1 1_555 1_555
C13 N5 1_555 1_555
H9 C13 1_555 1_555
C14 H10 1_555 1_555
C15 C14 1_555 1_555
C16 C13 1_555 1_555
C17 C16 1_555 1_555
H11 C17 1_555 1_555
C18 C17 1_555 1_555
C19 C14 1_555 1_555
H12 C19 1_555 1_555
O2 Mn1 1_555 1_555
Cl1 C18 1_555 1_555
Cl2 C9 1_555 1_555
O3 Mn1 1_555 1_555
K1 N2 1_555 1_555
O4 K1 1_555 1_555
H13 O1 1_555 1_555
H14 O1 1_555 1_555
H15 O4 1_555 1_555
H16 O4 1_555 1_555
Mn1B N3B 1_555 1_555
C1B Co1 1_555 1_555
C2B Co1 1_555 1_555
N1B C1B 1_555 1_555
N2B C2B 1_555 1_555
N3B C3B 1_555 1_555
C3B Co1 1_555 1_555
O1B Mn1B 1_555 1_555
C4B C5B 1_555 1_555
C5B H1B 1_555 1_555
C6B C4B 1_555 1_555
C7B C6B 1_555 1_555
H2B C7B 1_555 1_555
C8B C5B 1_555 1_555
H3B C8B 1_555 1_555
C9B C7B 1_555 1_555
C10B C6B 1_555 1_555
H4B C10B 1_555 1_555
N4B Mn1B 1_555 1_555
C11B H5B 1_555 1_555
H6B C11B 1_555 1_555
C12B N4B 1_555 1_555
H7B C12B 1_555 1_555
H8B C12B 1_555 1_555
N5B Mn1B 1_555 1_555
C13B N5B 1_555 1_555
H9B C13B 1_555 1_555
C14B H10B 1_555 1_555
C15B C14B 1_555 1_555
C16B C13B 1_555 1_555
C17B C16B 1_555 1_555
H11B C17B 1_555 1_555
C18B C17B 1_555 1_555
C19B C14B 1_555 1_555
H12B C19B 1_555 1_555
O2B Mn1B 1_555 1_555
Cl1B C18B 1_555 1_555
Cl2B C9B 1_555 1_555
O3B Mn1B 1_555 1_555
H13B O1B 1_555 1_555
H14B O1B 1_555 1_555
O4B K1 1_555 1_555
H15B O4B 1_555 1_555
H16B O4B 1_555 1_555
N2B_2 K1 1_555 1_555
K1_2 N2B 1_555 1_555
C4 O3 1_555 1_555
C8 C9 1_555 1_555
C10 N4 1_555 1_555
C11 C12 1_555 1_555
C11 N5 1_555 1_555
C15 C16 1_555 1_555
C15 O2 1_555 1_555
C18 C19 1_555 1_555
C4B O3B 1_555 1_555
C8B C9B 1_555 1_555
C10B N4B 1_555 1_555
C11B C12B 1_555 1_555
C11B N5B 1_555 1_555
C15B C16B 1_555 1_555
C15B O2B 1_555 1_555
C18B C19B 1_555 1_555

#END
