
#######################################################################
#
#                 Cambridge Crystallographic Data Centre
#                                CCDC 
#
#######################################################################
#
# If this CIF has been generated from an entry in the Cambridge 
# Structural Database, then it will include bibliographic, chemical, 
# crystal, experimental, refinement or atomic coordinate data resulting 
# from the CCDC's data processing and validation procedures.
#
#######################################################################

data_FUHLEB
_symmetry_cell_setting           monoclinic
_symmetry_space_group_name_H-M   'P 21/a'
_symmetry_Int_Tables_number      14
_space_group_name_Hall           '-P 2yab'
loop_
_symmetry_equiv_pos_site_id
_symmetry_equiv_pos_as_xyz
1 x,y,z
2 1/2-x,1/2+y,-z
3 -x,-y,-z
4 1/2+x,1/2-y,z
_cell_length_a                   9.901(2)
_cell_length_b                   13.538(3)
_cell_length_c                   9.962(2)
_cell_angle_alpha                90
_cell_angle_beta                 92.74(3)
_cell_angle_gamma                90
_cell_volume                     1333.78
loop_
_atom_site_label
_atom_site_type_symbol
_atom_site_fract_x
_atom_site_fract_y
_atom_site_fract_z
Zn1 Zn -0.04748(3) 0.047708(18) 0.87341(3)
O1 O 0.14652(17) 0.00598(13) 0.83427(19)
O2 O 0.22189(18) -0.05747(13) 1.0302(2)
O3 O 0.39428(18) -0.40829(12) 0.80665(18)
O4 O 0.4685(2) -0.34262(12) 1.00106(19)
N1 N -0.1324(2) 0.24183(15) 0.5552(2)
N2 N -0.07845(19) 0.13103(13) 0.70754(19)
C1 C -0.0850(2) 0.41741(18) 0.4965(2)
C2 C 0.0341(3) 0.4182(2) 0.5754(3)
H1 H 0.0582 0.3624 0.6273
C3 C 0.1179(2) 0.49984(19) 0.5786(3)
H2 H 0.1983 0.4989 0.6327
C4 C -0.1831(3) 0.3324(2) 0.4916(3)
H3 H -0.2651 0.3527 0.5355
H4 H -0.2086 0.3181 0.3974
C5 C -0.1433(2) 0.21495(16) 0.6851(2)
C6 C -0.0231(3) 0.10446(19) 0.5891(3)
H5 H 0.0299 0.0479 0.5766
C7 C -0.0562(3) 0.1714(2) 0.4939(3)
H6 H -0.0322 0.1705 0.4038
C8 C -0.2162(3) 0.2711(2) 0.7858(3)
H7 H -0.3118 0.2554 0.7771
H8 H -0.2036 0.3413 0.7713
H9 H -0.1811 0.2536 0.8752
C9 C 0.2360(2) -0.03345(15) 0.9105(3)
C10 C 0.3733(2) -0.05110(16) 0.8525(3)
H10 H 0.4340 0.0033 0.8797
H11 H 0.3628 -0.0505 0.7542
C11 C 0.4383(2) -0.14880(16) 0.8977(3)
H12 H 0.5317 -0.1509 0.8692
H13 H 0.4409 -0.1526 0.9960
C12 C 0.3616(3) -0.23659(16) 0.8397(3)
H14 H 0.3639 -0.2336 0.7416
H15 H 0.2669 -0.2306 0.8629
C13 C 0.4131(2) -0.33745(16) 0.8858(2)
N1B N 0.1324(2) 0.75817(15) 0.4448(2)
N2B N 0.07845(19) 0.86897(13) 0.29246(19)
C1B C 0.0850(2) 0.58259(18) 0.5035(2)
C2B C -0.0341(3) 0.5818(2) 0.4246(3)
H1B H -0.0582 0.6376 0.3727
C3B C -0.1179(2) 0.50016(19) 0.4214(3)
H2B H -0.1983 0.5011 0.3673
C4B C 0.1831(3) 0.6676(2) 0.5084(3)
H3B H 0.2651 0.6473 0.4645
H4B H 0.2086 0.6819 0.6026
C5B C 0.1433(2) 0.78505(16) 0.3149(2)
C6B C 0.0231(3) 0.89554(19) 0.4109(3)
H5B H -0.0299 0.9521 0.4234
C7B C 0.0562(3) 0.8286(2) 0.5061(3)
H6B H 0.0322 0.8295 0.5962
C8B C 0.2162(3) 0.7289(2) 0.2142(3)
H7B H 0.3118 0.7446 0.2229
H8B H 0.2036 0.6587 0.2287
H9B H 0.1811 0.7464 0.1248
Zn1B Zn 0.04748(3) -0.047708(18) 1.12659(3)
O1B O -0.14652(17) -0.00598(13) 1.16573(19)
O2B O -0.22189(18) 0.05747(13) 0.9698(2)
O3B O -0.39428(18) 0.40829(12) 1.19335(18)
O4B O -0.4685(2) 0.34262(12) 0.99894(19)
C9B C -0.2360(2) 0.03345(15) 1.0895(3)
C10B C -0.3733(2) 0.05110(16) 1.1475(3)
H10B H -0.4340 -0.0033 1.1203
H11B H -0.3628 0.0505 1.2458
C11B C -0.4383(2) 0.14880(16) 1.1023(3)
H12B H -0.5317 0.1509 1.1308
H13B H -0.4409 0.1526 1.0040
C12B C -0.3616(3) 0.23659(16) 1.1603(3)
H14B H -0.3639 0.2336 1.2584
H15B H -0.2669 0.2306 1.1371
C13B C -0.4131(2) 0.33745(16) 1.1142(2)
Zn1A Zn -0.45252(3) 0.547708(18) 1.12659(3)
Zn1A_2 Zn 0.54748(3) -0.452292(18) 1.12659(3)
Zn1B_2 Zn 0.04748(3) 0.952292(18) 0.12659(3)
Zn1C Zn -0.54748(3) 0.452292(18) 0.87341(3)
Zn1C_2 Zn 0.45252(3) -0.547708(18) 0.87341(3)
O3A O 0.10572(18) 0.09171(12) 1.19335(18)
O3C O -0.10572(18) -0.09171(12) 0.80665(18)
O4A O 0.0315(2) 0.15738(12) 0.99894(19)
O4C O -0.0315(2) -0.15738(12) 1.00106(19)
N2B_2 N 0.07845(19) -0.13103(13) 1.29246(19)
loop_
_geom_bond_atom_site_label_1
_geom_bond_atom_site_label_2
_geom_bond_site_symmetry_1
_geom_bond_site_symmetry_2
Zn1 O1 1_555 1_555
O1 C9 1_555 1_555
O2 C9 1_555 1_555
O3 C13 1_555 1_555
O4 C13 1_555 1_555
N1 C4 1_555 1_555
N2 Zn1 1_555 1_555
C1 C2 1_555 1_555
C2 H1 1_555 1_555
C3 C2 1_555 1_555
H2 C3 1_555 1_555
C4 C1 1_555 1_555
H3 C4 1_555 1_555
H4 C4 1_555 1_555
C5 N1 1_555 1_555
C6 N2 1_555 1_555
H5 C6 1_555 1_555
C7 N1 1_555 1_555
H6 C7 1_555 1_555
C8 C5 1_555 1_555
H7 C8 1_555 1_555
H8 C8 1_555 1_555
H9 C8 1_555 1_555
C9 C10 1_555 1_555
C10 H10 1_555 1_555
H11 C10 1_555 1_555
C11 C10 1_555 1_555
H12 C11 1_555 1_555
H13 C11 1_555 1_555
C12 C11 1_555 1_555
H14 C12 1_555 1_555
H15 C12 1_555 1_555
C13 C12 1_555 1_555
N1B C4B 1_555 1_555
N2B C5B 1_555 1_555
C1B C3 1_555 1_555
C2B C1B 1_555 1_555
H1B C2B 1_555 1_555
C3B C1 1_555 1_555
H2B C3B 1_555 1_555
C4B C1B 1_555 1_555
H3B C4B 1_555 1_555
H4B C4B 1_555 1_555
C5B N1B 1_555 1_555
C6B N2B 1_555 1_555
H5B C6B 1_555 1_555
C7B N1B 1_555 1_555
H6B C7B 1_555 1_555
C8B C5B 1_555 1_555
H7B C8B 1_555 1_555
H8B C8B 1_555 1_555
H9B C8B 1_555 1_555
Zn1B O2 1_555 1_555
O1B Zn1B 1_555 1_555
O2B Zn1 1_555 1_555
O3B C13B 1_555 1_555
O4B C13B 1_555 1_555
C9B O1B 1_555 1_555
C10B C9B 1_555 1_555
H10B C10B 1_555 1_555
H11B C10B 1_555 1_555
C11B C10B 1_555 1_555
H12B C11B 1_555 1_555
H13B C11B 1_555 1_555
C12B C11B 1_555 1_555
H14B C12B 1_555 1_555
H15B C12B 1_555 1_555
C13B C12B 1_555 1_555
Zn1A O3B 1_555 1_555
Zn1A_2 O4 1_555 1_555
Zn1B_2 N2B 1_555 1_555
Zn1C O4B 1_555 1_555
Zn1C_2 O3 1_555 1_555
O3A Zn1B 1_555 1_555
O3C Zn1 1_555 1_555
O4A Zn1 1_555 1_555
O4C Zn1B 1_555 1_555
N2B_2 Zn1B 1_555 1_555
N2 C5 1_555 1_555
C6 C7 1_555 1_555
C2B C3B 1_555 1_555
C6B C7B 1_555 1_555
O2B C9B 1_555 1_555

#END
