
#######################################################################
#
#                 Cambridge Crystallographic Data Centre
#                                CCDC 
#
#######################################################################
#
# If this CIF has been generated from an entry in the Cambridge 
# Structural Database, then it will include bibliographic, chemical, 
# crystal, experimental, refinement or atomic coordinate data resulting 
# from the CCDC's data processing and validation procedures.
#
#######################################################################

data_FUHMAY
_symmetry_cell_setting           triclinic
_symmetry_space_group_name_H-M   'P -1'
_symmetry_Int_Tables_number      2
_space_group_name_Hall           '-P 1'
loop_
_symmetry_equiv_pos_site_id
_symmetry_equiv_pos_as_xyz
1 x,y,z
2 -x,-y,-z
_cell_length_a                   5.974(4)
_cell_length_b                   11.274(7)
_cell_length_c                   12.723(8)
_cell_angle_alpha                80.186(7)
_cell_angle_beta                 83.591(7)
_cell_angle_gamma                80.310(7)
_cell_volume                     829.279
loop_
_atom_site_label
_atom_site_type_symbol
_atom_site_fract_x
_atom_site_fract_y
_atom_site_fract_z
Cu1 Cu 0.0000 0.0000 0.0000
Cu2 Cu 1.5000 -0.5000 0.5000
O1 O 1.3490(5) -0.3321(3) 0.4709(2)
O2 O 1.6948(5) -0.3220(3) 0.3933(2)
O3 O 0.7682(5) 0.0030(3) 0.1853(2)
O4 O 1.0651(4) 0.0859(2) 0.1112(2)
O5 O 0.8045(5) -0.5180(3) 0.0851(2)
N1 N 0.2395(5) -0.1400(3) 0.0514(2)
N2 N 0.8872(6) -0.4302(3) 0.2209(3)
H1 H 0.819(6) -0.374(3) 0.258(3)
N3 N 1.3769(6) -0.5405(3) 0.3719(3)
C1 C 0.2354(7) -0.2533(4) 0.0333(3)
H2 H 0.1110 -0.2674 -0.0009
C2 C 0.4003(7) -0.3492(4) 0.0613(3)
H3 H 0.3911 -0.4275 0.0456
C3 C 0.5826(6) -0.3314(4) 0.1132(3)
C4 C 0.5886(7) -0.2146(4) 0.1318(3)
H4 H 0.7101 -0.1983 0.1667
C5 C 0.4177(6) -0.1227(4) 0.0994(3)
H5 H 0.4258 -0.0428 0.1116
C6 C 1.1792(7) -0.4793(4) 0.3375(3)
H6 H 1.1018 -0.4148 0.3732
C7 C 1.0834(6) -0.5066(3) 0.2519(3)
C8 C 1.1961(7) -0.6014(4) 0.2005(3)
H7 H 1.1353 -0.6228 0.1417
C9 C 1.3975(7) -0.6633(4) 0.2367(3)
H8 H 1.4774 -0.7288 0.2028
C10 C 1.4842(7) -0.6316(4) 0.3209(3)
H9 H 1.6247 -0.6754 0.3442
C11 C 0.7663(7) -0.4360(4) 0.1385(3)
C12 C 1.5008(7) -0.2720(4) 0.4218(3)
C13 C 1.4431(7) -0.1353(4) 0.4014(3)
H10 H 1.5548 -0.1031 0.3448
H11 H 1.4614 -0.1037 0.4674
C14 C 1.2070(7) -0.0860(4) 0.3680(3)
H12 H 1.0932 -0.1080 0.4279
H13 H 1.1803 -0.1236 0.3066
C15 C 1.1765(7) 0.0509(4) 0.3369(3)
H14 H 1.3010 0.0723 0.2825
H15 H 1.1911 0.0877 0.4007
C16 C 0.9498(7) 0.1065(4) 0.2926(3)
H16 H 0.9399 0.1963 0.2783
H17 H 0.8243 0.0863 0.3470
C17 C 0.9203(7) 0.0608(3) 0.1900(3)
O5A O -0.8045(5) 0.5180(3) -0.0851(2)
N1A N -0.2395(5) 0.1400(3) -0.0514(2)
N2A N -0.8872(6) 0.4302(3) -0.2209(3)
H1A H -0.819(6) 0.374(3) -0.258(3)
N3A N -1.3769(6) 0.5405(3) -0.3719(3)
C1A C -0.2354(7) 0.2533(4) -0.0333(3)
H2A H -0.1110 0.2674 0.0009
C2A C -0.4003(7) 0.3492(4) -0.0613(3)
H3A H -0.3911 0.4275 -0.0456
C3A C -0.5826(6) 0.3314(4) -0.1132(3)
C4A C -0.5886(7) 0.2146(4) -0.1318(3)
H4A H -0.7101 0.1983 -0.1667
C5A C -0.4177(6) 0.1227(4) -0.0994(3)
H5A H -0.4258 0.0428 -0.1116
C6A C -1.1792(7) 0.4793(4) -0.3375(3)
H6A H -1.1018 0.4148 -0.3732
C7A C -1.0834(6) 0.5066(3) -0.2519(3)
C8A C -1.1961(7) 0.6014(4) -0.2005(3)
H7A H -1.1353 0.6228 -0.1417
C9A C -1.3975(7) 0.6633(4) -0.2367(3)
H8A H -1.4774 0.7288 -0.2028
C10A C -1.4842(7) 0.6316(4) -0.3209(3)
H9A H -1.6247 0.6754 -0.3442
C11A C -0.7663(7) 0.4360(4) -0.1385(3)
O1A O -0.3490(5) 0.3321(3) -0.4709(2)
O2A O -0.6948(5) 0.3220(3) -0.3933(2)
O3A O 0.2318(5) -0.0030(3) -0.1853(2)
O4A O -0.0651(4) -0.0859(2) -0.1112(2)
C12A C -0.5008(7) 0.2720(4) -0.4218(3)
C13A C -0.4431(7) 0.1353(4) -0.4014(3)
H10A H -0.5548 0.1031 -0.3448
H11A H -0.4614 0.1037 -0.4674
C14A C -0.2070(7) 0.0860(4) -0.3680(3)
H12A H -0.0932 0.1080 -0.4279
H13A H -0.1803 0.1236 -0.3066
C15A C -0.1765(7) -0.0509(4) -0.3369(3)
H14A H -0.3010 -0.0723 -0.2825
H15A H -0.1911 -0.0877 -0.4007
C16A C 0.0502(7) -0.1065(4) -0.2926(3)
H16A H 0.0601 -0.1963 -0.2783
H17A H 0.1757 -0.0863 -0.3470
C17A C 0.0797(7) -0.0608(3) -0.1900(3)
Cu1_2 Cu 1.0000 0.0000 0.0000
Cu2_2 Cu -1.5000 0.5000 -0.5000
Cu2_3 Cu -0.5000 0.5000 -0.5000
O1A_2 O 1.6510(5) -0.6679(3) 0.5291(2)
O2A_2 O 1.3052(5) -0.6780(3) 0.6067(2)
O3_2 O -0.2318(5) 0.0030(3) 0.1853(2)
O4_2 O 0.0651(4) 0.0859(2) 0.1112(2)
N3A_2 N 1.6231(6) -0.4595(3) 0.6281(3)
loop_
_geom_bond_atom_site_label_1
_geom_bond_atom_site_label_2
_geom_bond_site_symmetry_1
_geom_bond_site_symmetry_2
Cu1 N1 1_555 1_555
Cu2 O1 1_555 1_555
O1 C12 1_555 1_555
O2 Cu2 1_555 1_555
O3 C17 1_555 1_555
O4 C17 1_555 1_555
O5 C11 1_555 1_555
N1 C1 1_555 1_555
N2 H1 1_555 1_555
N3 Cu2 1_555 1_555
C1 H2 1_555 1_555
C2 C1 1_555 1_555
H3 C2 1_555 1_555
C3 C2 1_555 1_555
C4 C3 1_555 1_555
H4 C4 1_555 1_555
C5 N1 1_555 1_555
H5 C5 1_555 1_555
C6 N3 1_555 1_555
H6 C6 1_555 1_555
C7 N2 1_555 1_555
C8 C7 1_555 1_555
H7 C8 1_555 1_555
C9 C8 1_555 1_555
H8 C9 1_555 1_555
C10 N3 1_555 1_555
H9 C10 1_555 1_555
C11 N2 1_555 1_555
C12 O2 1_555 1_555
C13 C12 1_555 1_555
H10 C13 1_555 1_555
H11 C13 1_555 1_555
C14 C13 1_555 1_555
H12 C14 1_555 1_555
H13 C14 1_555 1_555
C15 C14 1_555 1_555
H14 C15 1_555 1_555
H15 C15 1_555 1_555
C16 C15 1_555 1_555
H16 C16 1_555 1_555
H17 C16 1_555 1_555
C17 C16 1_555 1_555
O5A C11A 1_555 1_555
N1A Cu1 1_555 1_555
N2A H1A 1_555 1_555
N3A C6A 1_555 1_555
C1A N1A 1_555 1_555
H2A C1A 1_555 1_555
C2A C1A 1_555 1_555
H3A C2A 1_555 1_555
C3A C2A 1_555 1_555
C4A C3A 1_555 1_555
H4A C4A 1_555 1_555
C5A N1A 1_555 1_555
H5A C5A 1_555 1_555
C6A H6A 1_555 1_555
C7A N2A 1_555 1_555
C8A C7A 1_555 1_555
H7A C8A 1_555 1_555
C9A C8A 1_555 1_555
H8A C9A 1_555 1_555
C10A N3A 1_555 1_555
H9A C10A 1_555 1_555
C11A N2A 1_555 1_555
O1A C12A 1_555 1_555
O2A C12A 1_555 1_555
O3A Cu1 1_555 1_555
O4A Cu1 1_555 1_555
C12A C13A 1_555 1_555
C13A H10A 1_555 1_555
H11A C13A 1_555 1_555
C14A C13A 1_555 1_555
H12A C14A 1_555 1_555
H13A C14A 1_555 1_555
C15A C14A 1_555 1_555
H14A C15A 1_555 1_555
H15A C15A 1_555 1_555
C16A C15A 1_555 1_555
H16A C16A 1_555 1_555
H17A C16A 1_555 1_555
C17A O3A 1_555 1_555
Cu1_2 O3 1_555 1_555
Cu2_2 N3A 1_555 1_555
Cu2_3 O1A 1_555 1_555
O1A_2 Cu2 1_555 1_555
O2A_2 Cu2 1_555 1_555
O3_2 Cu1 1_555 1_555
O4_2 Cu1 1_555 1_555
N3A_2 Cu2 1_555 1_555
O4 Cu1_2 1_555 1_555
C3 C11 1_555 1_555
C4 C5 1_555 1_555
C6 C7 1_555 1_555
C9 C10 1_555 1_555
C3A C11A 1_555 1_555
C4A C5A 1_555 1_555
C6A C7A 1_555 1_555
C9A C10A 1_555 1_555
O2A Cu2_3 1_555 1_555
O4A C17A 1_555 1_555
C16A C17A 1_555 1_555

#END
