
#######################################################################
#
#                 Cambridge Crystallographic Data Centre
#                                CCDC 
#
#######################################################################
#
# If this CIF has been generated from an entry in the Cambridge 
# Structural Database, then it will include bibliographic, chemical, 
# crystal, experimental, refinement or atomic coordinate data resulting 
# from the CCDC's data processing and validation procedures.
#
#######################################################################

data_FUHMEC
_symmetry_cell_setting           triclinic
_symmetry_space_group_name_H-M   'P -1'
_symmetry_Int_Tables_number      2
_space_group_name_Hall           '-P 1'
loop_
_symmetry_equiv_pos_site_id
_symmetry_equiv_pos_as_xyz
1 x,y,z
2 -x,-y,-z
_cell_length_a                   9.5528(1)
_cell_length_b                   11.1455(1)
_cell_length_c                   11.1800(1)
_cell_angle_alpha                81.368(1)
_cell_angle_beta                 65.260(1)
_cell_angle_gamma                80.207(1)
_cell_volume                     1061.19
loop_
_atom_site_label
_atom_site_type_symbol
_atom_site_fract_x
_atom_site_fract_y
_atom_site_fract_z
Cu1 Cu 0.41897(4) 0.60658(3) 0.53382(4)
Cu2 Cu -1.0000 1.0000 1.0000
O1 O -0.2062(3) 0.7488(2) 0.7658(3)
O2 O 0.5455(3) 0.36913(19) 0.6575(2)
O3 O 0.4093(3) 0.5499(2) 0.7132(2)
O4 O 0.2541(2) 0.50816(19) 0.5652(2)
O5 O 0.3879(2) 0.32789(19) 0.5042(2)
O6 O -1.0012(2) 1.17245(18) 1.0212(2)
O7 O -1.0516(4) 1.1941(2) 0.8447(3)
N1 N 0.2609(3) 0.7729(2) 0.5842(2)
N2 N -0.7608(3) 0.9829(2) 0.9091(3)
N3 N -0.2738(3) 0.9532(2) 0.7544(3)
H1 H -0.250(5) 1.017(4) 0.738(4)
C1 C 0.1083(3) 0.7685(3) 0.6431(3)
H2 H 0.0727 0.6921 0.6665
C2 C -0.0006(3) 0.8715(3) 0.6714(3)
C3 C 0.0559(4) 0.9845(3) 0.6359(4)
H3 H -0.0124 1.0562 0.6524
C4 C 0.2138(4) 0.9893(3) 0.5760(4)
H4 H 0.2532 1.0641 0.5524
C5 C 0.3125(3) 0.8822(3) 0.5515(3)
H5 H 0.4190 0.8860 0.5106
C6 C -0.1683(3) 0.8509(3) 0.7345(3)
C7 C 0.4726(3) 0.4480(3) 0.7390(3)
C8 C -0.4355(3) 0.9568(3) 0.8047(3)
C9 C -0.5251(4) 1.0623(3) 0.8616(5)
H6 H -0.4770 1.1266 0.8656
C10 C -0.6832(4) 1.0712(3) 0.9116(4)
H7 H -0.7401 1.1423 0.9494
C11 C -0.5143(4) 0.8646(3) 0.8014(3)
H8 H -0.4601 0.7922 0.7649
C12 C -0.6741(4) 0.8819(3) 0.8530(3)
H9 H -0.7253 0.8198 0.8488
C13 C 0.4625(5) 0.4170(3) 0.8790(3)
H10 H 0.3579 0.3996 0.9368
H11 H 0.5326 0.3436 0.8814
C14 C 0.5023(5) 0.5174(3) 0.9308(3)
H12 H 0.4295 0.5899 0.9322
H13 H 0.6053 0.5371 0.8713
C15 C 0.2647(3) 0.4007(3) 0.5384(3)
C16 C 0.1204(3) 0.3557(3) 0.5470(3)
H14 H 0.0876 0.2950 0.6219
H15 H 0.1457 0.3158 0.4679
C17 C -0.0148(3) 0.4555(3) 0.5616(3)
H16 H -0.0346 0.5005 0.6360
H17 H -0.1071 0.4177 0.5809
C18 C -1.0094(5) 1.4316(3) 1.0160(4)
H18 H -0.9255 1.3898 1.0394
H19 H -1.1062 1.4215 1.0922
C19 C -1.0092(6) 1.3740(4) 0.9056(5)
H20 H -0.9130 1.3869 0.8297
H21 H -1.0932 1.4173 0.8831
C20 C -1.0256(4) 1.2383(3) 0.9254(3)
O2A O 0.4545(3) 0.63087(19) 1.3425(2)
O3A O 0.5907(3) 0.4501(2) 1.2868(2)
C7A C 0.5274(3) 0.5520(3) 1.2610(3)
C13A C 0.5375(5) 0.5830(3) 1.1210(3)
H10A H 0.6421 0.6004 1.0632
H11A H 0.4674 0.6564 1.1186
C14A C 0.4977(5) 0.4826(3) 1.0692(3)
H12A H 0.5705 0.4101 1.0678
H13A H 0.3947 0.4629 1.1287
O4A O -0.2541(2) 0.49184(19) 0.4348(2)
O5A O -0.3879(2) 0.67211(19) 0.4958(2)
C15A C -0.2647(3) 0.5993(3) 0.4616(3)
C16A C -0.1204(3) 0.6443(3) 0.4530(3)
H14A H -0.0876 0.7050 0.3781
H15A H -0.1457 0.6842 0.5321
C17A C 0.0148(3) 0.5445(3) 0.4384(3)
H16A H 0.0346 0.4995 0.3640
H17A H 0.1071 0.5823 0.4191
O6A O -0.9988(2) 1.82755(18) 0.9788(2)
O7A O -0.9484(4) 1.8059(2) 1.1553(3)
C18A C -0.9906(5) 1.5684(3) 0.9840(4)
H18A H -1.0745 1.6102 0.9606
H19A H -0.8938 1.5785 0.9078
C19A C -0.9908(6) 1.6260(4) 1.0944(5)
H20A H -1.0870 1.6131 1.1703
H21A H -0.9068 1.5827 1.1169
C20A C -0.9744(4) 1.7617(3) 1.0746(3)
Cu1A Cu -2.41897(4) 1.39342(3) 1.46618(4)
O1A O -1.7938(3) 1.2512(2) 1.2342(3)
N1A N -2.2609(3) 1.2271(2) 1.4158(2)
N2A N -1.2392(3) 1.0171(2) 1.0909(3)
N3A N -1.7262(3) 1.0468(2) 1.2456(3)
H1A H -1.750(5) 0.983(4) 1.262(4)
C1A C -2.1083(3) 1.2315(3) 1.3569(3)
H2A H -2.0727 1.3079 1.3335
C2A C -1.9994(3) 1.1285(3) 1.3286(3)
C3A C -2.0559(4) 1.0155(3) 1.3641(4)
H3A H -1.9876 0.9438 1.3476
C4A C -2.2138(4) 1.0107(3) 1.4240(4)
H4A H -2.2532 0.9359 1.4476
C5A C -2.3125(3) 1.1178(3) 1.4485(3)
H5A H -2.4190 1.1140 1.4894
C6A C -1.8317(3) 1.1491(3) 1.2655(3)
C8A C -1.5645(3) 1.0432(3) 1.1953(3)
C9A C -1.4749(4) 0.9377(3) 1.1384(5)
H6A H -1.5230 0.8734 1.1344
C10A C -1.3168(4) 0.9288(3) 1.0884(4)
H7A H -1.2599 0.8577 1.0506
C11A C -1.4857(4) 1.1354(3) 1.1986(3)
H8A H -1.5399 1.2078 1.2351
C12A C -1.3259(4) 1.1181(3) 1.1470(3)
H9A H -1.2747 1.1802 1.1512
Cu1_2 Cu -2.58103(4) 1.60658(3) 1.53382(4)
Cu1_3 Cu -0.58103(4) 0.60658(3) 0.53382(4)
Cu1_4 Cu 0.41897(4) 0.60658(3) 1.53382(4)
Cu1A_2 Cu -0.41897(4) 0.39342(3) 0.46618(4)
Cu1A_3 Cu 0.58103(4) 0.39342(3) 0.46618(4)
Cu1A_4 Cu 0.58103(4) 0.39342(3) 1.46618(4)
Cu2_2 Cu -1.0000 2.0000 1.0000
O2_2 O -2.4545(3) 1.36913(19) 1.6575(2)
O2A_2 O 0.4545(3) 0.63087(19) 0.3425(2)
O3A_2 O -2.4093(3) 1.4501(2) 1.2868(2)
O4A_2 O -2.2541(2) 1.49184(19) 1.4348(2)
O5_2 O -2.6121(2) 1.32789(19) 1.5042(2)
O5A_2 O 0.6121(2) 0.67211(19) 0.4958(2)
O6A_2 O -0.9988(2) 0.82755(18) 0.9788(2)
O7A_2 O -0.9484(4) 0.8059(2) 1.1553(3)
O8 O -0.2207(3) 1.2008(2) 0.7017(4)
H22 H -0.202(6) 1.217(4) 0.763(5)
H23 H -0.273(6) 1.255(5) 0.687(5)
loop_
_geom_bond_atom_site_label_1
_geom_bond_atom_site_label_2
_geom_bond_site_symmetry_1
_geom_bond_site_symmetry_2
Cu1 O3 1_555 1_555
Cu2 O6 1_555 1_555
O1 C6 1_555 1_555
O2 C7 1_555 1_555
O3 C7 1_555 1_555
O4 Cu1 1_555 1_555
O5 C15 1_555 1_555
O6 C20 1_555 1_555
O7 Cu2 1_555 1_555
N1 Cu1 1_555 1_555
N2 Cu2 1_555 1_555
N3 H1 1_555 1_555
C1 N1 1_555 1_555
H2 C1 1_555 1_555
C2 C1 1_555 1_555
C3 C2 1_555 1_555
H3 C3 1_555 1_555
C4 C3 1_555 1_555
H4 C4 1_555 1_555
C5 N1 1_555 1_555
H5 C5 1_555 1_555
C6 N3 1_555 1_555
C7 C13 1_555 1_555
C8 N3 1_555 1_555
C9 C8 1_555 1_555
H6 C9 1_555 1_555
C10 N2 1_555 1_555
H7 C10 1_555 1_555
C11 C8 1_555 1_555
H8 C11 1_555 1_555
C12 N2 1_555 1_555
H9 C12 1_555 1_555
C13 H10 1_555 1_555
H11 C13 1_555 1_555
C14 C13 1_555 1_555
H12 C14 1_555 1_555
H13 C14 1_555 1_555
C15 O4 1_555 1_555
C16 C15 1_555 1_555
H14 C16 1_555 1_555
H15 C16 1_555 1_555
C17 C16 1_555 1_555
H16 C17 1_555 1_555
H17 C17 1_555 1_555
C18 H18 1_555 1_555
H19 C18 1_555 1_555
C19 C18 1_555 1_555
H20 C19 1_555 1_555
H21 C19 1_555 1_555
C20 O7 1_555 1_555
O8 H22 1_555 1_555
H23 O8 1_555 1_555
O2A C7A 1_555 1_555
O3A C7A 1_555 1_555
C7A C13A 1_555 1_555
C13A H10A 1_555 1_555
H11A C13A 1_555 1_555
C14A C14 1_555 1_555
H12A C14A 1_555 1_555
H13A C14A 1_555 1_555
O4A C15A 1_555 1_555
O5A C15A 1_555 1_555
C15A C16A 1_555 1_555
C16A H14A 1_555 1_555
H15A C16A 1_555 1_555
C17A C17 1_555 1_555
H16A C17A 1_555 1_555
H17A C17A 1_555 1_555
O6A C20A 1_555 1_555
O7A C20A 1_555 1_555
C18A C18 1_555 1_555
H18A C18A 1_555 1_555
H19A C18A 1_555 1_555
C19A C18A 1_555 1_555
H20A C19A 1_555 1_555
H21A C19A 1_555 1_555
C20A C19A 1_555 1_555
Cu1A N1A 1_555 1_555
O1A C6A 1_555 1_555
N1A C1A 1_555 1_555
N2A Cu2 1_555 1_555
N3A H1A 1_555 1_555
C1A H2A 1_555 1_555
C2A C1A 1_555 1_555
C3A C2A 1_555 1_555
H3A C3A 1_555 1_555
C4A C3A 1_555 1_555
H4A C4A 1_555 1_555
C5A N1A 1_555 1_555
H5A C5A 1_555 1_555
C6A N3A 1_555 1_555
C8A N3A 1_555 1_555
C9A C8A 1_555 1_555
H6A C9A 1_555 1_555
C10A N2A 1_555 1_555
H7A C10A 1_555 1_555
C11A C8A 1_555 1_555
H8A C11A 1_555 1_555
C12A N2A 1_555 1_555
H9A C12A 1_555 1_555
Cu1_2 Cu1A 1_555 1_555
Cu1_3 O5A 1_555 1_555
Cu1_4 O2A 1_555 1_555
Cu1A_2 O4A 1_555 1_555
Cu1A_3 Cu1 1_555 1_555
Cu1A_4 O3A 1_555 1_555
Cu2_2 O6A 1_555 1_555
O2_2 Cu1A 1_555 1_555
O2A_2 Cu1 1_555 1_555
O3A_2 Cu1A 1_555 1_555
O4A_2 Cu1A 1_555 1_555
O5_2 Cu1A 1_555 1_555
O5A_2 Cu1 1_555 1_555
O6A_2 Cu2 1_555 1_555
O7A_2 Cu2 1_555 1_555
O2 Cu1A_3 1_555 1_555
O5 Cu1A_3 1_555 1_555
C2 C6 1_555 1_555
C4 C5 1_555 1_555
C9 C10 1_555 1_555
C11 C12 1_555 1_555
C19 C20 1_555 1_555
C13A C14A 1_555 1_555
C16A C17A 1_555 1_555
O7A Cu2_2 1_555 1_555
C2A C6A 1_555 1_555
C4A C5A 1_555 1_555
C9A C10A 1_555 1_555
C11A C12A 1_555 1_555
Cu1_3 Cu1A_2 1_555 1_555
Cu1_4 Cu1A_4 1_555 1_555

#END
