
#######################################################################
#
#                 Cambridge Crystallographic Data Centre
#                                CCDC 
#
#######################################################################
#
# If this CIF has been generated from an entry in the Cambridge 
# Structural Database, then it will include bibliographic, chemical, 
# crystal, experimental, refinement or atomic coordinate data resulting 
# from the CCDC's data processing and validation procedures.
#
#######################################################################

data_FUHMIG
_symmetry_cell_setting           triclinic
_symmetry_space_group_name_H-M   'P -1'
_symmetry_Int_Tables_number      2
_space_group_name_Hall           '-P 1'
loop_
_symmetry_equiv_pos_site_id
_symmetry_equiv_pos_as_xyz
1 x,y,z
2 -x,-y,-z
_cell_length_a                   7.9037(19)
_cell_length_b                   9.434(2)
_cell_length_c                   10.312(3)
_cell_angle_alpha                72.839(2)
_cell_angle_beta                 69.016(2)
_cell_angle_gamma                74.843(2)
_cell_volume                     675.402
loop_
_atom_site_label
_atom_site_type_symbol
_atom_site_fract_x
_atom_site_fract_y
_atom_site_fract_z
Cu1 Cu 1.0000 0.5000 0.5000
O1 O 0.7698(3) 0.3392(3) -0.02472(19)
O2 O 0.76548(18) 0.72674(16) 0.58139(15)
O3 O 0.99448(17) 0.70843(14) 0.38398(13)
N1 N 0.5705(2) 0.3154(2) 0.19760(17)
H1 H 0.477(3) 0.285(2) 0.252(2)
N2 N 0.8481(2) 0.45602(17) 0.40348(16)
N3 N 0.4743(3) 0.1792(3) -0.1853(2)
C1 C 0.5683(3) 0.2255(3) -0.1257(2)
H2 H 0.6899 0.2416 -0.1802
C2 C 0.5000(3) 0.2517(2) 0.0114(2)
C3 C 0.3237(3) 0.2270(3) 0.0910(2)
H3 H 0.2718 0.2429 0.1851
C4 C 0.6250(3) 0.3066(3) 0.0584(2)
C5 C 0.6661(2) 0.3652(2) 0.2616(2)
C6 C 0.8092(3) 0.4463(2) 0.1867(2)
H4 H 0.8483 0.4713 0.0855
C7 C 0.8933(3) 0.4899(2) 0.2610(2)
H5 H 0.9887 0.5472 0.2084
C8 C 0.7090(2) 0.3788(2) 0.4755(2)
H6 H 0.6739 0.3544 0.5766
C9 C 0.6153(2) 0.3336(2) 0.41004(19)
H7 H 0.5162 0.2809 0.4655
C10 C 0.8651(2) 0.7860(2) 0.4639(2)
C11 C 0.8423(3) 0.9557(2) 0.4128(3)
H8 H 0.7230 1.0026 0.4712
H9 H 0.8415 0.9843 0.3126
C12 C 0.9988(3) 1.0145(2) 0.4236(2)
H10 H 1.1178 0.9653 0.3668
H11 H 0.9863 1.1242 0.3820
C13 C 0.3041(4) 0.1577(3) -0.1059(3)
H12 H 0.2334 0.1260 -0.1462
C14 C 0.2248(3) 0.1789(3) 0.0311(3)
H13 H 0.1035 0.1605 0.0837
O2A O 1.23452(18) 1.27326(16) 0.41861(15)
O3A O 1.00552(17) 1.29157(14) 0.61602(13)
C10A C 1.1349(2) 1.2140(2) 0.5361(2)
C11A C 1.1577(3) 1.0443(2) 0.5872(3)
H8A H 1.2770 0.9974 0.5288
H9A H 1.1585 1.0157 0.6874
C12A C 1.0012(3) 0.9855(2) 0.5764(2)
H10A H 0.8822 1.0347 0.6332
H11A H 1.0137 0.8758 0.6180
O1A O 1.2302(3) 0.6608(3) 1.02472(19)
N1A N 1.4295(2) 0.6846(2) 0.80240(17)
H1A H 1.523(3) 0.715(2) 0.748(2)
N2A N 1.1519(2) 0.54398(17) 0.59652(16)
N3A N 1.5257(3) 0.8208(3) 1.1853(2)
C1A C 1.4317(3) 0.7745(3) 1.1257(2)
H2A H 1.3101 0.7584 1.1802
C2A C 1.5000(3) 0.7483(2) 0.9886(2)
C3A C 1.6763(3) 0.7730(3) 0.9090(2)
H3A H 1.7282 0.7571 0.8149
C4A C 1.3750(3) 0.6934(3) 0.9416(2)
C5A C 1.3339(2) 0.6348(2) 0.7384(2)
C6A C 1.1908(3) 0.5537(2) 0.8133(2)
H4A H 1.1517 0.5287 0.9145
C7A C 1.1067(3) 0.5101(2) 0.7390(2)
H5A H 1.0113 0.4528 0.7916
C8A C 1.2910(2) 0.6212(2) 0.5245(2)
H6A H 1.3261 0.6456 0.4234
C9A C 1.3847(2) 0.6664(2) 0.58996(19)
H7A H 1.4838 0.7191 0.5345
C13A C 1.6959(4) 0.8423(3) 1.1059(3)
H12A H 1.7666 0.8740 1.1462
C14A C 1.7752(3) 0.8211(3) 0.9689(3)
H13A H 1.8965 0.8395 0.9163
Cu1_2 Cu 1.0000 1.5000 0.5000
O2A_2 O 1.23452(18) 0.27326(16) 0.41861(15)
O3A_2 O 1.00552(17) 0.29157(14) 0.61602(13)
loop_
_geom_bond_atom_site_label_1
_geom_bond_atom_site_label_2
_geom_bond_site_symmetry_1
_geom_bond_site_symmetry_2
Cu1 O2 1_555 1_555
O1 C4 1_555 1_555
O2 C10 1_555 1_555
O3 Cu1 1_555 1_555
N1 H1 1_555 1_555
N2 Cu1 1_555 1_555
N3 C1 1_555 1_555
C1 H2 1_555 1_555
C2 C1 1_555 1_555
C3 C2 1_555 1_555
H3 C3 1_555 1_555
C4 N1 1_555 1_555
C5 N1 1_555 1_555
C6 C5 1_555 1_555
H4 C6 1_555 1_555
C7 N2 1_555 1_555
H5 C7 1_555 1_555
C8 N2 1_555 1_555
H6 C8 1_555 1_555
C9 C5 1_555 1_555
H7 C9 1_555 1_555
C10 O3 1_555 1_555
C11 C10 1_555 1_555
H8 C11 1_555 1_555
H9 C11 1_555 1_555
C12 C11 1_555 1_555
H10 C12 1_555 1_555
H11 C12 1_555 1_555
C13 N3 1_555 1_555
H12 C13 1_555 1_555
C14 C3 1_555 1_555
H13 C14 1_555 1_555
O2A C10A 1_555 1_555
O3A C10A 1_555 1_555
C10A C11A 1_555 1_555
C11A H8A 1_555 1_555
H9A C11A 1_555 1_555
C12A C12 1_555 1_555
H10A C12A 1_555 1_555
H11A C12A 1_555 1_555
O1A C4A 1_555 1_555
N1A H1A 1_555 1_555
N2A Cu1 1_555 1_555
N3A C1A 1_555 1_555
C1A H2A 1_555 1_555
C2A C1A 1_555 1_555
C3A C2A 1_555 1_555
H3A C3A 1_555 1_555
C4A N1A 1_555 1_555
C5A N1A 1_555 1_555
C6A C5A 1_555 1_555
H4A C6A 1_555 1_555
C7A N2A 1_555 1_555
H5A C7A 1_555 1_555
C8A N2A 1_555 1_555
H6A C8A 1_555 1_555
C9A C5A 1_555 1_555
H7A C9A 1_555 1_555
C13A N3A 1_555 1_555
H12A C13A 1_555 1_555
C14A C3A 1_555 1_555
H13A C14A 1_555 1_555
Cu1_2 O2A 1_555 1_555
O2A_2 Cu1 1_555 1_555
O3A_2 Cu1 1_555 1_555
C2 C4 1_555 1_555
C6 C7 1_555 1_555
C8 C9 1_555 1_555
C13 C14 1_555 1_555
O3A Cu1_2 1_555 1_555
C11A C12A 1_555 1_555
C2A C4A 1_555 1_555
C6A C7A 1_555 1_555
C8A C9A 1_555 1_555
C13A C14A 1_555 1_555

#END
