
#######################################################################
#
#                 Cambridge Crystallographic Data Centre
#                                CCDC 
#
#######################################################################
#
# If this CIF has been generated from an entry in the Cambridge 
# Structural Database, then it will include bibliographic, chemical, 
# crystal, experimental, refinement or atomic coordinate data resulting 
# from the CCDC's data processing and validation procedures.
#
#######################################################################

data_FUHNON
_symmetry_cell_setting           triclinic
_symmetry_space_group_name_H-M   'P -1'
_symmetry_Int_Tables_number      2
_space_group_name_Hall           '-P 1'
loop_
_symmetry_equiv_pos_site_id
_symmetry_equiv_pos_as_xyz
1 x,y,z
2 -x,-y,-z
_cell_length_a                   8.6490(14)
_cell_length_b                   10.4071(15)
_cell_length_c                   15.867(5)
_cell_angle_alpha                97.360(3)
_cell_angle_beta                 98.327(4)
_cell_angle_gamma                103.116(4)
_cell_volume                     1356.95
loop_
_atom_site_label
_atom_site_type_symbol
_atom_site_fract_x
_atom_site_fract_y
_atom_site_fract_z
Ag1 Ag 0.28330(8) 0.28429(6) 0.18444(5)
Ag2 Ag 0.46874(8) 0.42193(6) 0.40113(4)
Ag3 Ag 0.20820(8) 0.18016(6) 0.33701(4)
Ag4 Ag 0.67661(8) 0.31322(7) 0.25738(4)
Ag5 Ag 0.92003(8) 0.12080(7) 0.18049(4)
Ag6 Ag 0.12097(8) -0.00745(7) 0.08668(4)
N1 N 0.8565(8) 0.2612(7) 0.0981(4)
O1 O 0.0511(7) 0.0249(6) 0.7357(4)
O2 O 0.1894(8) 0.2084(6) 0.4797(4)
N2 N 0.6846(8) 0.2225(7) 0.3773(5)
C1 C -0.0122(9) 0.4575(8) 0.6897(5)
N3 N 0.5906(8) 0.2614(8) 0.4319(5)
C2 C 0.7730(10) 0.0855(9) 0.4753(6)
H1 H 0.8376 0.0258 0.4888
N4 N 0.7367(8) 0.3127(7) 0.1187(4)
C3 C 0.5900(12) 0.2145(10) 0.5059(6)
H2 H 0.5265 0.2446 0.5446
O3 O 0.2725(8) 0.4320(6) 0.4916(4)
C4 C -0.0311(9) 0.3508(8) 0.7363(5)
H3 H -0.0846 0.3541 0.7845
C5 C 0.6746(10) 0.3839(8) 0.0662(5)
H4 H 0.5861 0.4167 0.0804
C6 C 0.0272(9) 0.2413(8) 0.7129(5)
C7 C 0.7712(11) 0.1381(10) 0.3994(6)
H5 H 0.8366 0.1119 0.3605
C8 C 0.0661(9) 0.4520(8) 0.6183(5)
H6 H 0.0821 0.5248 0.5873
C9 C 0.0147(9) 0.1300(8) 0.7654(5)
C10 C 0.6766(12) 0.1241(9) 0.5299(6)
H7 H 0.6694 0.0901 0.5824
C11 C 0.1004(9) 0.2324(7) 0.6400(5)
H8 H 0.1362 0.1550 0.6225
C12 C 0.1206(9) 0.3382(8) 0.5930(5)
C13 C 0.9168(11) 0.2855(10) 0.0274(6)
H9 H 1.0040 0.2495 0.0147
O4 O 0.3376(7) 0.0242(6) 0.2974(4)
O5 O -0.0335(7) 0.6800(5) 0.6871(4)
O6 O 0.4042(8) 0.1209(6) 0.1846(4)
O7 O 0.7107(7) -0.2685(6) -0.0216(4)
O8 O -0.1627(7) 0.5622(6) 0.7767(4)
O9 O 0.5408(8) -0.5205(6) 0.2190(4)
O10 O 0.7785(8) -0.0476(6) 0.0209(4)
O11 O -0.0302(7) 0.1523(6) 0.8370(4)
C14 C 0.4668(9) -0.1915(8) 0.2439(5)
H10 H 0.4143 -0.1961 0.2924
C15 C -0.0742(10) 0.5762(9) 0.7201(5)
C16 C 0.7096(9) -0.1673(7) 0.0257(5)
C17 C 0.5536(9) -0.0735(8) 0.1313(5)
H11 H 0.5614 0.0024 0.1031
C18 C 0.2001(9) 0.3256(9) 0.5146(5)
C19 C 0.4768(10) -0.0806(8) 0.2019(5)
C20 C 0.5206(10) -0.4156(9) 0.2610(5)
C21 C 0.6102(9) -0.2869(8) 0.1444(5)
H12 H 0.6568 -0.3572 0.1254
C22 C 0.6204(9) -0.1784(8) 0.1011(5)
C23 C 0.4002(9) 0.0299(9) 0.2319(5)
C24 C 0.5326(10) -0.2945(9) 0.2154(5)
C25 C 0.8555(12) 0.3619(11) -0.0281(6)
H13 H 0.8993 0.3778 -0.0784
C26 C 0.7306(11) 0.4140(9) -0.0089(6)
H14 H 0.6848 0.4675 -0.0445
O12 O 0.4870(7) -0.4016(6) 0.3352(4)
Ag1_2 Ag 0.28330(8) -0.71571(6) 0.18444(5)
Ag1A Ag -0.28330(8) 0.71571(6) 0.81556(5)
Ag1A_2 Ag 0.71670(8) -0.28429(6) -0.18444(5)
Ag2_2 Ag 0.46874(8) -0.57807(6) 0.40113(4)
Ag2A Ag 0.53126(8) 0.57807(6) 0.59887(4)
Ag3A Ag -0.20820(8) -0.18016(6) 0.66299(4)
Ag3A_2 Ag -0.20820(8) 0.81984(6) 0.66299(4)
Ag4_2 Ag 0.67661(8) -0.68678(7) 0.25738(4)
Ag5A Ag 0.07997(8) -0.12080(7) 0.81951(4)
Ag5A_2 Ag 0.07997(8) 0.87920(7) 0.81951(4)
Ag6A Ag -0.12097(8) 0.00745(7) 0.91332(4)
Ag6A_2 Ag 0.87903(8) 0.00745(7) -0.08668(4)
O1A O -0.0511(7) -0.0249(6) 0.2643(4)
O1A_2 O 0.9489(7) -0.0249(6) 0.2643(4)
O3A O 0.7275(8) 0.5680(6) 0.5084(4)
O5A O 0.0335(7) 0.3200(5) 0.3129(4)
O5A_2 O 1.0335(7) 0.3200(5) 0.3129(4)
O7A O 0.2893(7) 0.2685(6) 0.0216(4)
O8A O 0.1627(7) 0.4378(6) 0.2233(4)
O9_2 O 0.5408(8) 0.4795(6) 0.2190(4)
O10A O 0.2215(8) 0.0476(6) -0.0209(4)
O11A O 0.0302(7) -0.1523(6) 0.1630(4)
O12_2 O 0.4870(7) 0.5984(6) 0.3352(4)
loop_
_geom_bond_atom_site_label_1
_geom_bond_atom_site_label_2
_geom_bond_site_symmetry_1
_geom_bond_site_symmetry_2
Ag1 O6 1_555 1_555
Ag2 N3 1_555 1_555
Ag3 O2 1_555 1_555
Ag4 N2 1_555 1_555
Ag5 N1 1_555 1_555
Ag6 O6 1_555 1_555
N1 N4 1_555 1_555
O1 C9 1_555 1_555
O2 C18 1_555 1_555
N2 N3 1_555 1_555
C1 C4 1_555 1_555
N3 C3 1_555 1_555
C2 H1 1_555 1_555
N4 Ag4 1_555 1_555
C3 H2 1_555 1_555
O3 Ag2 1_555 1_555
C4 H3 1_555 1_555
C5 N4 1_555 1_555
H4 C5 1_555 1_555
C6 C4 1_555 1_555
C7 N2 1_555 1_555
H5 C7 1_555 1_555
C8 C1 1_555 1_555
H6 C8 1_555 1_555
C9 C6 1_555 1_555
C10 C2 1_555 1_555
H7 C10 1_555 1_555
C11 C6 1_555 1_555
H8 C11 1_555 1_555
C12 C8 1_555 1_555
C13 N1 1_555 1_555
H9 C13 1_555 1_555
O4 Ag3 1_555 1_555
O5 C15 1_555 1_555
O6 Ag4 1_555 1_555
O7 C16 1_555 1_555
O8 C15 1_555 1_555
O9 C20 1_555 1_555
O10 C16 1_555 1_555
O11 C9 1_555 1_555
C14 H10 1_555 1_555
C15 C1 1_555 1_555
C16 C22 1_555 1_555
C17 H11 1_555 1_555
C18 O3 1_555 1_555
C19 C14 1_555 1_555
C20 C24 1_555 1_555
C21 H12 1_555 1_555
C22 C17 1_555 1_555
C23 O4 1_555 1_555
C24 C14 1_555 1_555
C25 C13 1_555 1_555
H13 C25 1_555 1_555
C26 C5 1_555 1_555
H14 C26 1_555 1_555
O12 C20 1_555 1_555
Ag1_2 O9 1_555 1_555
Ag1A O8 1_555 1_555
Ag1A_2 O7 1_555 1_555
Ag2_2 O12 1_555 1_555
Ag2A O3 1_555 1_555
Ag3A O1 1_555 1_555
Ag3A_2 O5 1_555 1_555
Ag4_2 O9 1_555 1_555
Ag5A O1 1_555 1_555
Ag5A_2 O5 1_555 1_555
Ag6A O11 1_555 1_555
Ag6A_2 O10 1_555 1_555
O1A Ag3 1_555 1_555
O1A_2 Ag5 1_555 1_555
O3A Ag2 1_555 1_555
O5A Ag3 1_555 1_555
O5A_2 Ag5 1_555 1_555
O7A Ag1 1_555 1_555
O8A Ag1 1_555 1_555
O9_2 Ag1 1_555 1_555
O10A Ag6 1_555 1_555
O11A Ag6 1_555 1_555
O12_2 Ag2 1_555 1_555
Ag4 O9_2 1_555 1_555
C2 C7 1_555 1_555
C3 C10 1_555 1_555
C11 C12 1_555 1_555
C12 C18 1_555 1_555
O6 C23 1_555 1_555
C17 C19 1_555 1_555
C19 C23 1_555 1_555
C21 C22 1_555 1_555
C21 C24 1_555 1_555
C25 C26 1_555 1_555
Ag2A O3A 1_555 1_555

#END
