
#######################################################################
#
#                 Cambridge Crystallographic Data Centre
#                                CCDC 
#
#######################################################################
#
# If this CIF has been generated from an entry in the Cambridge 
# Structural Database, then it will include bibliographic, chemical, 
# crystal, experimental, refinement or atomic coordinate data resulting 
# from the CCDC's data processing and validation procedures.
#
#######################################################################

data_FUHNIH
_symmetry_cell_setting           monoclinic
_symmetry_space_group_name_H-M   'C 2/c'
_symmetry_Int_Tables_number      15
_space_group_name_Hall           '-C 2yn'
loop_
_symmetry_equiv_pos_site_id
_symmetry_equiv_pos_as_xyz
1 x,y,z
2 -x,y,1/2-z
3 1/2+x,1/2+y,z
4 1/2-x,1/2+y,1/2-z
5 -x,-y,-z
6 x,-y,1/2+z
7 1/2-x,1/2-y,-z
8 1/2+x,1/2-y,1/2+z
_cell_length_a                   15.1153(5)
_cell_length_b                   14.8786(4)
_cell_length_c                   21.8613(7)
_cell_angle_alpha                90
_cell_angle_beta                 90.895(3)
_cell_angle_gamma                90
_cell_volume                     4915.89
loop_
_atom_site_label
_atom_site_type_symbol
_atom_site_fract_x
_atom_site_fract_y
_atom_site_fract_z
Zn1 Zn 0.27393(3) 1.31487(3) -0.623871(18)
Na1 Na 0.25283(11) 1.37308(10) -0.48213(7)
C1 C 0.4811(2) 1.2655(2) -0.49491(16)
C2 C 0.4749(2) 1.2600(2) -0.43103(16)
C3 C 0.5495(3) 1.2753(3) -0.39499(18)
H1 H 0.5456 1.2709 -0.3527
C4 C 0.6288(3) 1.2970(3) -0.4206(2)
H2 H 0.6778 1.3084 -0.3956
C5 C 0.6362(3) 1.3020(3) -0.4831(2)
H3 H 0.6899 1.3166 -0.5007
C6 C 0.5626(2) 1.2849(2) -0.51943(17)
C7 C 0.4044(2) 1.2498(3) -0.53874(16)
C8 C 0.3898(3) 1.2356(3) -0.40002(18)
C9 C 0.6107(2) 1.2275(2) -0.61578(16)
C10 C 0.6362(2) 1.1455(2) -0.59152(16)
H4 H 0.6253 1.1321 -0.5508
C11 C 0.6785(2) 1.0829(2) -0.62866(16)
C12 C 0.6942(2) 1.1040(2) -0.68924(16)
H5 H 0.7226 1.0624 -0.7140
C13 C 0.6683(2) 1.1862(2) -0.71358(16)
C14 C 0.6269(2) 1.2486(2) -0.67621(17)
H6 H 0.6103 1.3044 -0.6918
C15 C 0.7080(3) 0.9937(2) -0.60273(18)
C16 C 0.6887(3) 1.2084(3) -0.77935(18)
C17 C 0.4089(8) 1.4935(5) -0.4162(5)
H7 H 0.4404 1.5100 -0.4507
C18 C 0.4015(5) 1.4613(6) -0.3094(4)
H8 H 0.3429 1.4408 -0.3197
H9 H 0.3980 1.5103 -0.2810
H10 H 0.4346 1.4129 -0.2911
C19 C 0.5357(5) 1.5220(5) -0.3531(4)
H11 H 0.5634 1.5416 -0.3900
H12 H 0.5688 1.4731 -0.3356
H13 H 0.5339 1.5708 -0.3245
O1 O 0.38610(18) 1.17284(18) -0.55515(13)
O2 O 0.36543(16) 1.32183(17) -0.55658(12)
O3 O 0.31769(16) 1.24174(16) -0.43019(12)
O4 O 0.3925(2) 1.2095(3) -0.34619(14)
O5 O 0.56704(17) 1.29337(17) -0.58286(12)
O6 O 0.74778(19) 0.94266(18) -0.63918(12)
O7 O 0.6925(3) 0.9763(2) -0.54897(14)
O8 O 0.7125(2) 1.1484(2) -0.81406(13)
O9 O 0.6800(2) 1.29021(19) -0.79497(13)
O10 O 0.3252(4) 1.4723(3) -0.4231(2)
N1 N 0.4473(3) 1.4926(3) -0.3670(3)
Zn1A Zn 0.72607(3) 1.31487(3) -0.876129(18)
Zn1B Zn 0.77393(3) 0.81487(3) -0.623871(18)
Zn1F Zn 0.22607(3) 1.18513(3) -0.376129(18)
Na1B Na 0.75283(11) 0.87308(10) -0.48213(7)
Na1F Na 0.24717(11) 1.12692(10) -0.51787(7)
O1F O 0.11390(18) 1.32716(18) -0.44485(13)
O3F O 0.18231(16) 1.25826(16) -0.56981(12)
O6B O 0.24778(19) 1.44266(18) -0.63918(12)
O7B O 0.1925(3) 1.4763(2) -0.54897(14)
O9A O 0.3200(2) 1.29021(19) -0.70503(13)
C20 C 0.6089(11) 2.0405(7) -0.4228(6)
H14 H 0.6649 2.0592 -0.4385
H15 H 0.5696 2.0911 -0.4215
H16 H 0.5839 1.9949 -0.4489
C21 C 0.5397(5) 1.9757(6) -0.3329(5)
H17 H 0.5486 1.9536 -0.2921
H18 H 0.5141 1.9293 -0.3580
H19 H 0.5005 2.0265 -0.3322
N2 N 0.6223(3) 2.0023(4) -0.3574(3)
H20 H 0.6589 1.9546 -0.3585
H21 H 0.6473 2.0444 -0.3331
O11 O 0.6786(5) 2.1191(6) -0.2770(4)
O12 O 0.5000 1.1517(13) -0.2500
loop_
_geom_bond_atom_site_label_1
_geom_bond_atom_site_label_2
_geom_bond_site_symmetry_1
_geom_bond_site_symmetry_2
Zn1 O2 1_555 1_555
Na1 O2 1_555 1_555
C1 C2 1_555 1_555
C2 C3 1_555 1_555
C3 H1 1_555 1_555
C4 C3 1_555 1_555
H2 C4 1_555 1_555
C5 C4 1_555 1_555
H3 C5 1_555 1_555
C6 C1 1_555 1_555
C7 C1 1_555 1_555
C8 C2 1_555 1_555
C9 C10 1_555 1_555
C10 H4 1_555 1_555
C11 C10 1_555 1_555
C12 C11 1_555 1_555
H5 C12 1_555 1_555
C13 C12 1_555 1_555
C14 C9 1_555 1_555
H6 C14 1_555 1_555
C15 C11 1_555 1_555
C16 C13 1_555 1_555
C17 H7 1_555 1_555
C18 H8 1_555 1_555
H9 C18 1_555 1_555
H10 C18 1_555 1_555
C19 H11 1_555 1_555
H12 C19 1_555 1_555
H13 C19 1_555 1_555
O1 C7 1_555 1_555
O2 C7 1_555 1_555
O3 Na1 1_555 1_555
O4 C8 1_555 1_555
O5 C6 1_555 1_555
O6 C15 1_555 1_555
O7 C15 1_555 1_555
O8 C16 1_555 1_555
O9 C16 1_555 1_555
O10 Na1 1_555 1_555
N1 C17 1_555 1_555
C20 H14 1_555 1_555
H15 C20 1_555 1_555
H16 C20 1_555 1_555
C21 H17 1_555 1_555
H18 C21 1_555 1_555
H19 C21 1_555 1_555
N2 C20 1_555 1_555
H20 N2 1_555 1_555
H21 N2 1_555 1_555
Zn1A O9 1_555 1_555
Zn1B O6 1_555 1_555
Zn1F O3 1_555 1_555
Na1B O7 1_555 1_555
Na1F O1 1_555 1_555
O1F Na1 1_555 1_555
O3F Zn1 1_555 1_555
O6B Zn1 1_555 1_555
O7B Na1 1_555 1_555
O9A Zn1 1_555 1_555
Na1 O3F 1_555 1_555
C5 C6 1_555 1_555
C8 O3 1_555 1_555
C9 O5 1_555 1_555
C13 C14 1_555 1_555
C17 O10 1_555 1_555
C18 N1 1_555 1_555
C19 N1 1_555 1_555
O3 Na1F 1_555 1_555
C21 N2 1_555 1_555
Na1F O3F 1_555 1_555

#END
