
#######################################################################
#
#                 Cambridge Crystallographic Data Centre
#                                CCDC 
#
#######################################################################
#
# If this CIF has been generated from an entry in the Cambridge 
# Structural Database, then it will include bibliographic, chemical, 
# crystal, experimental, refinement or atomic coordinate data resulting 
# from the CCDC's data processing and validation procedures.
#
#######################################################################

data_FUHNUT
_symmetry_cell_setting           triclinic
_symmetry_space_group_name_H-M   'P -1'
_symmetry_Int_Tables_number      2
_space_group_name_Hall           '-P 1'
loop_
_symmetry_equiv_pos_site_id
_symmetry_equiv_pos_as_xyz
1 x,y,z
2 -x,-y,-z
_cell_length_a                   7.7195(14)
_cell_length_b                   7.993(5)
_cell_length_c                   12.5132(15)
_cell_angle_alpha                75.100(3)
_cell_angle_beta                 83.407(4)
_cell_angle_gamma                63.014(5)
_cell_volume                     664.886
loop_
_atom_site_label
_atom_site_type_symbol
_atom_site_fract_x
_atom_site_fract_y
_atom_site_fract_z
Ag1 Ag 0.23294(7) 0.83378(7) 0.50341(4)
C1 C 0.1987(9) 0.9838(9) 0.7513(5)
O1 O -0.0973(8) 0.9743(9) 0.9017(5)
C2 C 0.3354(9) 1.1329(10) 0.5820(5)
C3 C 0.3607(9) 0.9983(9) 0.6948(5)
C4 C 0.0029(9) 1.1071(9) 0.6948(5)
O2 O 0.0995(10) 0.6867(9) 0.9854(5)
C5 C 0.5463(9) 0.8958(10) 0.7442(6)
H1 H 0.6543(9) 0.9118(10) 0.7072(6)
N1 N 0.0661(9) 0.8399(9) 0.9189(5)
C6 C 0.5696(11) 0.7714(11) 0.8474(6)
H2 H 0.6957(11) 0.6976(11) 0.8794(6)
C7 C 0.4131(10) 0.7525(10) 0.9047(6)
H3 H 0.4293(10) 0.6688(10) 0.9761(6)
C8 C 0.2305(10) 0.8602(10) 0.8546(5)
O3 O 0.4112(6) 1.2480(6) 0.5704(4)
O4 O 0.2429(7) 1.1301(7) 0.5088(4)
O5 O -0.0765(7) 1.0257(7) 0.6585(4)
O6 O -0.0600(7) 1.2843(7) 0.6879(4)
Ag2 Ag 0.69990(8) 0.52003(8) 0.57948(4)
N2 N 0.2676(8) 0.6068(8) 0.6550(5)
C9 C 0.1201(11) 0.5709(11) 0.7039(6)
H4 H -0.0054(11) 0.6442(11) 0.6711(6)
N3 N 0.4472(8) 0.4963(9) 0.6980(5)
C10 C 0.3253(12) 0.3215(11) 0.8435(6)
H5 H 0.3498(12) 0.2226(11) 0.9092(6)
C11 C 0.4742(12) 0.3602(11) 0.7875(6)
H6 H 0.6027(12) 0.2833(11) 0.8159(6)
C12 C 0.1441(12) 0.4308(11) 0.8005(6)
H7 H 0.0365(12) 0.4119(11) 0.8356(6)
Ag1A Ag -0.23294(7) 1.16622(7) 0.49659(4)
Ag1A_2 Ag 0.76706(7) 1.16622(7) 0.49659(4)
O3A O 0.5888(6) 0.7520(6) 0.4296(4)
O5A O 0.0765(7) 0.9743(7) 0.3415(4)
O6_2 O 0.9400(7) 0.2843(7) 0.6879(4)
Ag2_2 Ag -0.30010(8) 1.52003(8) 0.57948(4)
Ag2A Ag 0.30010(8) 1.47997(8) 0.42052(4)
loop_
_geom_bond_atom_site_label_1
_geom_bond_atom_site_label_2
_geom_bond_site_symmetry_1
_geom_bond_site_symmetry_2
Ag1 O4 1_555 1_555
C1 C3 1_555 1_555
O1 N1 1_555 1_555
C2 C3 1_555 1_555
C3 C5 1_555 1_555
C4 C1 1_555 1_555
O2 N1 1_555 1_555
C5 H1 1_555 1_555
N1 C8 1_555 1_555
C6 C5 1_555 1_555
H2 C6 1_555 1_555
C7 C6 1_555 1_555
H3 C7 1_555 1_555
C8 C1 1_555 1_555
O3 C2 1_555 1_555
O4 C2 1_555 1_555
O5 C4 1_555 1_555
O6 C4 1_555 1_555
Ag2 N3 1_555 1_555
N2 Ag1 1_555 1_555
C9 N2 1_555 1_555
H4 C9 1_555 1_555
N3 N2 1_555 1_555
C10 H5 1_555 1_555
C11 N3 1_555 1_555
H6 C11 1_555 1_555
C12 C9 1_555 1_555
H7 C12 1_555 1_555
Ag1A O5 1_555 1_555
Ag1A_2 O3 1_555 1_555
O3A Ag1 1_555 1_555
O5A Ag1 1_555 1_555
O6_2 Ag2 1_555 1_555
Ag2_2 O6 1_555 1_555
Ag2A O3 1_555 1_555
C7 C8 1_555 1_555
Ag2 O3A 1_555 1_555
C10 C11 1_555 1_555
C10 C12 1_555 1_555

#END
