
#######################################################################
#
#                 Cambridge Crystallographic Data Centre
#                                CCDC 
#
#######################################################################
#
# If this CIF has been generated from an entry in the Cambridge 
# Structural Database, then it will include bibliographic, chemical, 
# crystal, experimental, refinement or atomic coordinate data resulting 
# from the CCDC's data processing and validation procedures.
#
#######################################################################

data_FUHPEF
_symmetry_cell_setting           monoclinic
_symmetry_space_group_name_H-M   'P 21/n'
_symmetry_Int_Tables_number      14
_space_group_name_Hall           '-P 2yn'
loop_
_symmetry_equiv_pos_site_id
_symmetry_equiv_pos_as_xyz
1 x,y,z
2 1/2-x,1/2+y,1/2-z
3 -x,-y,-z
4 1/2+x,1/2-y,1/2+z
_cell_length_a                   7.2340(14)
_cell_length_b                   20.9317(15)
_cell_length_c                   9.839(5)
_cell_angle_alpha                90
_cell_angle_beta                 98.773(4)
_cell_angle_gamma                90
_cell_volume                     1472.39
loop_
_atom_site_label
_atom_site_type_symbol
_atom_site_fract_x
_atom_site_fract_y
_atom_site_fract_z
Ag1 Ag 0.06343(3) 0.521361(11) -0.16554(2)
O1 O 0.2494(3) 0.52356(10) 0.0320(2)
O2 O 0.8999(3) 0.54640(11) 0.6361(2)
O3 O 0.4075(3) 0.60337(10) -0.0468(2)
O4 O 0.6898(3) 0.61385(9) 0.70035(19)
C1 C 0.5069(4) 0.63712(13) 0.2549(3)
C2 C 0.5733(4) 0.75636(14) 0.3848(3)
H1 H 0.5964(4) 0.79677(14) 0.4280(3)
C3 C 0.5950(4) 0.64055(13) 0.3954(3)
C4 C 0.4541(4) 0.69526(13) 0.1843(3)
H2 H 0.3936(4) 0.69369(13) 0.0916(3)
C5 C 0.0011(4) 0.28210(15) -0.2971(3)
H3 H -0.0062(4) 0.23820(15) -0.3218(3)
C6 C -0.0540(4) 0.39153(15) -0.3414(3)
H4 H -0.1027(4) 0.42430(15) -0.4036(3)
C7 C 0.0891(4) 0.30182(14) -0.1681(3)
H5 H 0.1435(4) 0.27024(14) -0.1050(3)
C8 C -0.0740(4) 0.32836(15) -0.3864(3)
H6 H -0.1372(4) 0.31800(15) -0.4756(3)
C9 C 0.6224(4) 0.70176(13) 0.4572(3)
H7 H 0.6762(4) 0.70481(13) 0.5513(3)
C10 C 0.6630(4) 0.58325(13) 0.4646(3)
C11 C 0.6415(4) 0.52598(13) 0.3957(3)
H8 H 0.6950(4) 0.48840(13) 0.4394(3)
C12 C 0.4757(4) 0.57586(13) 0.1915(3)
N1 N 0.0283(4) 0.40850(11) -0.2178(2)
C13 C 0.3709(4) 0.56776(13) 0.0478(3)
N2 N 0.1007(4) 0.36239(12) -0.1290(2)
C14 C 0.4885(4) 0.75301(13) 0.2465(3)
H9 H 0.4550(4) 0.79116(13) 0.1965(3)
C15 C 0.7609(4) 0.58143(13) 0.6115(3)
C16 C 0.5419(4) 0.52209(13) 0.2620(3)
H10 H 0.5200(4) 0.48145(13) 0.2195(3)
Ag2 Ag 0.23565(4) 0.394535(12) 0.07542(2)
Ag1_2 Ag 1.06343(3) 0.521361(11) 0.83446(2)
O2_2 O -0.1001(3) 0.54640(11) -0.3639(2)
O3B O 0.5925(3) 0.39663(10) 0.0468(2)
O4B O 0.3102(3) 0.38615(9) 0.29965(19)
Ag2B Ag 0.76435(4) 0.605465(12) -0.07542(2)
Ag2B_2 Ag 0.76435(4) 0.605465(12) 0.92458(2)
O5 O 0.3093(3) 0.64249(12) 0.6735(2)
H11 H 0.292(4) 0.6310(19) 0.7536(17)
H12 H 0.4210(19) 0.634(2) 0.663(3)
loop_
_geom_bond_atom_site_label_1
_geom_bond_atom_site_label_2
_geom_bond_site_symmetry_1
_geom_bond_site_symmetry_2
Ag1 O1 1_555 1_555
O1 C13 1_555 1_555
O2 C15 1_555 1_555
O3 C13 1_555 1_555
O4 C15 1_555 1_555
C1 C3 1_555 1_555
C2 H1 1_555 1_555
C3 C9 1_555 1_555
C4 C1 1_555 1_555
H2 C4 1_555 1_555
C5 H3 1_555 1_555
C6 H4 1_555 1_555
C7 C5 1_555 1_555
H5 C7 1_555 1_555
C8 C5 1_555 1_555
H6 C8 1_555 1_555
C9 C2 1_555 1_555
H7 C9 1_555 1_555
C10 C3 1_555 1_555
C11 C10 1_555 1_555
H8 C11 1_555 1_555
C12 C1 1_555 1_555
N1 Ag1 1_555 1_555
C13 C12 1_555 1_555
N2 C7 1_555 1_555
C14 C2 1_555 1_555
H9 C14 1_555 1_555
C15 C10 1_555 1_555
C16 C11 1_555 1_555
H10 C16 1_555 1_555
Ag2 N2 1_555 1_555
O5 H11 1_555 1_555
H12 O5 1_555 1_555
Ag1_2 O2 1_555 1_555
O2_2 Ag1 1_555 1_555
O3B Ag2 1_555 1_555
O4B Ag2 1_555 1_555
Ag2B O3 1_555 1_555
Ag2B_2 O4 1_555 1_555
C4 C14 1_555 1_555
C6 C8 1_555 1_555
C6 N1 1_555 1_555
C12 C16 1_555 1_555
N1 N2 1_555 1_555

#END
