
#######################################################################
#
#                 Cambridge Crystallographic Data Centre
#                                CCDC 
#
#######################################################################
#
# If this CIF has been generated from an entry in the Cambridge 
# Structural Database, then it will include bibliographic, chemical, 
# crystal, experimental, refinement or atomic coordinate data resulting 
# from the CCDC's data processing and validation procedures.
#
#######################################################################

data_FUHPAB
_symmetry_cell_setting           triclinic
_symmetry_space_group_name_H-M   'P -1'
_symmetry_Int_Tables_number      2
_space_group_name_Hall           '-P 1'
loop_
_symmetry_equiv_pos_site_id
_symmetry_equiv_pos_as_xyz
1 x,y,z
2 -x,-y,-z
_cell_length_a                   6.7503(7)
_cell_length_b                   8.9855(9)
_cell_length_c                   9.7189(10)
_cell_angle_alpha                107.399(3)
_cell_angle_beta                 112.840(3)
_cell_angle_gamma                100.535(3)
_cell_volume                     487.556
loop_
_atom_site_label
_atom_site_type_symbol
_atom_site_fract_x
_atom_site_fract_y
_atom_site_fract_z
Ag1 Ag 0.01495(10) 0.93586(7) 0.81044(7)
Ag2 Ag -0.24032(10) 0.60950(7) 0.51432(7)
O1 O -0.4449(10) 0.6386(7) 0.6958(6)
O2 O -0.7538(10) 0.7742(6) 0.8487(7)
O3 O -1.0036(10) 0.5167(7) 0.6765(7)
O4 O -0.1621(11) 0.8250(7) 0.9422(8)
C1 C -0.3403(12) 0.6963(8) 0.8503(9)
C2 C -0.4141(14) 0.8279(10) 0.3078(10)
H1 H -0.4968(14) 0.7232(10) 0.2173(10)
N1 N -0.2873(11) 0.8290(8) 0.4516(7)
N2 N -0.1718(12) 0.9736(8) 0.5814(8)
C3 C -0.8204(14) 0.6203(10) 0.7961(10)
C4 C -0.2714(13) 0.5499(8) 1.0386(9)
H2 H -0.1149(13) 0.5841(8) 1.0644(9)
C5 C -0.6544(12) 0.5522(8) 0.8939(9)
C6 C -0.4259(12) 0.6036(8) 0.9321(9)
C7 C -0.1852(14) 1.1155(9) 0.5648(10)
H3 H -0.1018(14) 1.2170(9) 0.6594(10)
C8 C -0.4365(14) 0.9689(9) 0.2781(10)
H4 H -0.5275(14) 0.9618(9) 0.1718(10)
C9 C -0.3164(14) 1.1206(9) 0.4148(10)
H5 H -0.3234(14) 1.2224(9) 0.4063(10)
O1A O -0.5551(10) 0.3614(7) 1.3042(6)
O2A O -0.2462(10) 0.2258(6) 1.1513(7)
O3A O 0.0036(10) 0.4833(7) 1.3235(7)
O4A O -0.8379(11) 0.1750(7) 1.0578(8)
C1A C -0.6597(12) 0.3037(8) 1.1497(9)
C3A C -0.1796(14) 0.3797(10) 1.2039(10)
C4A C -0.7286(13) 0.4501(8) 0.9614(9)
H2A H -0.8851(13) 0.4159(8) 0.9356(9)
C5A C -0.3456(12) 0.4478(8) 1.1061(9)
C6A C -0.5741(12) 0.3964(8) 1.0679(9)
Ag1A Ag -1.01495(10) 0.06414(7) 0.18956(7)
Ag2A Ag -0.75968(10) 0.39050(7) 0.48568(7)
C2A C -0.5859(14) 0.1721(10) 0.6922(10)
H1A H -0.5032(14) 0.2768(10) 0.7827(10)
N1A N -0.7127(11) 0.1710(8) 0.5484(7)
N2A N -0.8282(12) 0.0264(8) 0.4186(8)
C7A C -0.8148(14) -0.1155(9) 0.4352(10)
H3A H -0.8982(14) -0.2170(9) 0.3406(10)
C8A C -0.5635(14) 0.0311(9) 0.7219(10)
H4A H -0.4725(14) 0.0382(9) 0.8282(10)
C9A C -0.6836(14) -0.1206(9) 0.5852(10)
H5A H -0.6766(14) -0.2224(9) 0.5937(10)
Ag1_2 Ag -0.98505(10) -0.06414(7) 0.81044(7)
Ag1_3 Ag -0.98505(10) 0.93586(7) 0.81044(7)
Ag1A_2 Ag -1.01495(10) 0.06414(7) 1.18956(7)
Ag1A_3 Ag -0.01495(10) 0.06414(7) 1.18956(7)
Ag1A_4 Ag -0.01495(10) 1.06414(7) 1.18956(7)
Ag2_2 Ag -1.24032(10) 0.60950(7) 0.51432(7)
Ag2_3 Ag -0.24032(10) 0.60950(7) 1.51432(7)
Ag2A_2 Ag -0.75968(10) 0.39050(7) 1.48568(7)
Ag2A_3 Ag 0.24032(10) 0.39050(7) 1.48568(7)
O1A_2 O -0.5551(10) 0.3614(7) 0.3042(6)
O2_2 O 0.2462(10) 0.7742(6) 0.8487(7)
O2A_2 O -1.2462(10) 0.2258(6) 0.1513(7)
O3_2 O -0.0036(10) 0.5167(7) 0.6765(7)
O3A_2 O -0.9964(10) 0.4833(7) 0.3235(7)
O4_2 O -1.1621(11) -0.1750(7) -0.0578(8)
O4A_2 O -0.8379(11) 0.1750(7) 0.0578(8)
O4A_3 O 0.1621(11) 1.1750(7) 1.0578(8)
loop_
_geom_bond_atom_site_label_1
_geom_bond_atom_site_label_2
_geom_bond_site_symmetry_1
_geom_bond_site_symmetry_2
Ag1 O4 1_555 1_555
Ag2 O1 1_555 1_555
O1 C1 1_555 1_555
O2 C3 1_555 1_555
O3 C3 1_555 1_555
O4 C1 1_555 1_555
C1 C6 1_555 1_555
C2 H1 1_555 1_555
N1 Ag2 1_555 1_555
N2 Ag1 1_555 1_555
C3 C5 1_555 1_555
C4 H2 1_555 1_555
C5 C6 1_555 1_555
C6 C4 1_555 1_555
C7 N2 1_555 1_555
H3 C7 1_555 1_555
C8 C2 1_555 1_555
H4 C8 1_555 1_555
C9 C7 1_555 1_555
H5 C9 1_555 1_555
O1A C1A 1_555 1_555
O2A C3A 1_555 1_555
O3A C3A 1_555 1_555
O4A C1A 1_555 1_555
C1A C6A 1_555 1_555
C3A C5A 1_555 1_555
C4A C5 1_555 1_555
H2A C4A 1_555 1_555
C5A C4 1_555 1_555
C6A C4A 1_555 1_555
Ag1A N2A 1_555 1_555
Ag2A O1 1_555 1_555
C2A H1A 1_555 1_555
N1A Ag2A 1_555 1_555
N2A N1A 1_555 1_555
C7A N2A 1_555 1_555
H3A C7A 1_555 1_555
C8A C2A 1_555 1_555
H4A C8A 1_555 1_555
C9A C7A 1_555 1_555
H5A C9A 1_555 1_555
Ag1_2 O4A 1_555 1_555
Ag1_3 O2 1_555 1_555
Ag1A_2 O4A 1_555 1_555
Ag1A_3 O2A 1_555 1_555
Ag1A_4 O4 1_555 1_555
Ag2_2 O3 1_555 1_555
Ag2_3 O1A 1_555 1_555
Ag2A_2 O1A 1_555 1_555
Ag2A_3 O3A 1_555 1_555
O1A_2 Ag2 1_555 1_555
O2_2 Ag1 1_555 1_555
O2A_2 Ag1A 1_555 1_555
O3_2 Ag2 1_555 1_555
O3A_2 Ag2A 1_555 1_555
O4_2 Ag1A 1_555 1_555
O4A_2 Ag1A 1_555 1_555
O4A_3 Ag1 1_555 1_555
C2 N1 1_555 1_555
N1 N2 1_555 1_555
C8 C9 1_555 1_555
C5A C6A 1_555 1_555
Ag2A O1A_2 1_555 1_555
C2A N1A 1_555 1_555
C8A C9A 1_555 1_555
Ag1A_4 O4A_3 1_555 1_555

#END
