
#######################################################################
#
#                 Cambridge Crystallographic Data Centre
#                                CCDC 
#
#######################################################################
#
# If this CIF has been generated from an entry in the Cambridge 
# Structural Database, then it will include bibliographic, chemical, 
# crystal, experimental, refinement or atomic coordinate data resulting 
# from the CCDC's data processing and validation procedures.
#
#######################################################################

data_FUHPUT
_symmetry_cell_setting           monoclinic
_symmetry_space_group_name_H-M   'P 21/c'
_symmetry_Int_Tables_number      14
_space_group_name_Hall           '-P 2ybc'
loop_
_symmetry_equiv_pos_site_id
_symmetry_equiv_pos_as_xyz
1 x,y,z
2 -x,1/2+y,1/2-z
3 -x,-y,-z
4 x,1/2-y,1/2+z
_cell_length_a                   5.643(2)
_cell_length_b                   15.625(8)
_cell_length_c                   17.641(8)
_cell_angle_alpha                90
_cell_angle_beta                 89.98(4)
_cell_angle_gamma                90
_cell_volume                     1555.44
loop_
_atom_site_label
_atom_site_type_symbol
_atom_site_fract_x
_atom_site_fract_y
_atom_site_fract_z
Cd1 Cd -0.5000 0.5000 -0.5000
S1 S -0.77580(10) 0.50856(6) -0.62958(4)
S2 S -0.30930(10) 0.36619(5) -0.56140(4)
N1 N -1.2007(5) 0.5787(2) -0.5769(2)
N2 N -0.1970(5) 0.2088(2) -0.51710(10)
N3 N -0.4312(5) 0.2840(2) -0.43470(10)
C1 C -1.0230(5) 0.5505(2) -0.5980(2)
C2 C -0.3124(5) 0.2820(2) -0.5002(2)
C3 C -0.0544(5) 0.1941(2) -0.5834(2)
C4 C -0.1150(6) 0.1275(2) -0.6309(2)
C5 C 0.0279(7) 0.1082(2) -0.6925(2)
C6 C 0.2267(7) 0.1555(2) -0.7068(2)
C7 C 0.2846(6) 0.2228(2) -0.6597(2)
C8 C 0.1446(6) 0.2427(2) -0.5974(2)
C9 C -0.4173(6) 0.2187(2) -0.3775(2)
C10 C -0.5941(7) 0.1590(2) -0.3697(2)
C11 C -0.5749(8) 0.0973(3) -0.3138(2)
C12 C -0.3791(8) 0.0949(3) -0.2668(2)
C13 C -0.2081(8) 0.1546(3) -0.2740(2)
C14 C -0.2246(7) 0.2169(2) -0.3295(2)
H1 H -0.2099 0.1673 -0.4853
H2 H -0.5220 0.3272 -0.4263
H3 H -0.2511 0.0956 -0.6216
H4 H -0.0118 0.0629 -0.7243
H5 H 0.3227 0.1423 -0.7480
H6 H 0.4190 0.2553 -0.6698
H7 H 0.1844 0.2881 -0.5657
H8 H -0.7252 0.1600 -0.4017
H9 H -0.6948 0.0570 -0.3077
H10 H -0.3653 0.0523 -0.2303
H11 H -0.0783 0.1539 -0.2415
H12 H -0.1054 0.2576 -0.3344
N1_2 N -0.2007(5) 0.5787(2) -0.5769(2)
Cd1_2 Cd -1.5000 0.5000 -0.5000
N1B N -0.7993(5) 0.4213(2) -0.4231(2)
S1B S -0.22420(10) 0.49144(6) -0.37042(4)
S2B S -0.69070(10) 0.63381(5) -0.43860(4)
C2B C -0.6876(5) 0.7180(2) -0.4998(2)
N2B N -0.8030(5) 0.7912(2) -0.48290(10)
C3B C -0.9456(5) 0.8059(2) -0.4166(2)
C4B C -0.8850(6) 0.8725(2) -0.3691(2)
C5B C -1.0279(7) 0.8918(2) -0.3075(2)
C6B C -1.2267(7) 0.8445(2) -0.2932(2)
C7B C -1.2846(6) 0.7772(2) -0.3403(2)
C8B C -1.1446(6) 0.7573(2) -0.4026(2)
H7B H -1.1844 0.7119 -0.4343
H6B H -1.4190 0.7447 -0.3302
H5B H -1.3227 0.8577 -0.2520
H4B H -0.9882 0.9371 -0.2757
H3B H -0.7489 0.9044 -0.3784
H1B H -0.7901 0.8327 -0.5147
N3B N -0.5688(5) 0.7160(2) -0.56530(10)
C9B C -0.5827(6) 0.7813(2) -0.6225(2)
C10B C -0.4059(7) 0.8410(2) -0.6303(2)
C11B C -0.4251(8) 0.9027(3) -0.6862(2)
C12B C -0.6209(8) 0.9051(3) -0.7332(2)
C13B C -0.7919(8) 0.8454(3) -0.7260(2)
C14B C -0.7754(7) 0.7831(2) -0.6705(2)
H12B H -0.8946 0.7424 -0.6656
H11B H -0.9217 0.8461 -0.7585
H10B H -0.6347 0.9477 -0.7697
H9B H -0.3052 0.9430 -0.6923
H8B H -0.2748 0.8400 -0.5983
H2B H -0.4780 0.6728 -0.5737
C1B C 0.0230(5) 0.4495(2) -0.4020(2)
N1B_2 N 0.2007(5) 0.4213(2) -0.4231(2)
Cd1_3 Cd 0.5000 0.5000 -0.5000
O1 O -0.2493(9) 0.0194(3) -0.4696(2)
H13 H -0.3026 -0.0235 -0.4448
H14 H -0.1357 0.0401 -0.4396
loop_
_geom_bond_atom_site_label_1
_geom_bond_atom_site_label_2
_geom_bond_site_symmetry_1
_geom_bond_site_symmetry_2
Cd1 S1 1_555 1_555
S1 C1 1_555 1_555
S2 Cd1 1_555 1_555
N1 C1 1_555 1_555
N2 C2 1_555 1_555
N3 C2 1_555 1_555
C2 S2 1_555 1_555
C3 N2 1_555 1_555
C4 C3 1_555 1_555
C5 C4 1_555 1_555
C6 C5 1_555 1_555
C7 C6 1_555 1_555
C8 C3 1_555 1_555
C9 N3 1_555 1_555
C10 C9 1_555 1_555
C11 C10 1_555 1_555
C12 C11 1_555 1_555
C13 C12 1_555 1_555
C14 C9 1_555 1_555
H1 N2 1_555 1_555
H2 N3 1_555 1_555
H3 C4 1_555 1_555
H4 C5 1_555 1_555
H5 C6 1_555 1_555
H6 C7 1_555 1_555
H7 C8 1_555 1_555
H8 C10 1_555 1_555
H9 C11 1_555 1_555
H10 C12 1_555 1_555
H11 C13 1_555 1_555
H12 C14 1_555 1_555
O1 H13 1_555 1_555
H14 O1 1_555 1_555
N1_2 Cd1 1_555 1_555
Cd1_2 N1 1_555 1_555
N1B Cd1 1_555 1_555
S1B Cd1 1_555 1_555
S2B Cd1 1_555 1_555
C2B S2B 1_555 1_555
N2B C2B 1_555 1_555
C3B N2B 1_555 1_555
C4B C3B 1_555 1_555
C5B C4B 1_555 1_555
C6B C5B 1_555 1_555
C7B C6B 1_555 1_555
C8B C3B 1_555 1_555
H7B C8B 1_555 1_555
H6B C7B 1_555 1_555
H5B C6B 1_555 1_555
H4B C5B 1_555 1_555
H3B C4B 1_555 1_555
H1B N2B 1_555 1_555
N3B C2B 1_555 1_555
C9B N3B 1_555 1_555
C10B C9B 1_555 1_555
C11B C10B 1_555 1_555
C12B C11B 1_555 1_555
C13B C12B 1_555 1_555
C14B C9B 1_555 1_555
H12B C14B 1_555 1_555
H11B C13B 1_555 1_555
H10B C12B 1_555 1_555
H9B C11B 1_555 1_555
H8B C10B 1_555 1_555
H2B N3B 1_555 1_555
C1B S1B 1_555 1_555
N1B_2 C1B 1_555 1_555
Cd1_3 N1B_2 1_555 1_555
C7 C8 1_555 1_555
C13 C14 1_555 1_555
C7B C8B 1_555 1_555
C13B C14B 1_555 1_555

#END
