
#######################################################################
#
#                 Cambridge Crystallographic Data Centre
#                                CCDC 
#
#######################################################################
#
# If this CIF has been generated from an entry in the Cambridge 
# Structural Database, then it will include bibliographic, chemical, 
# crystal, experimental, refinement or atomic coordinate data resulting 
# from the CCDC's data processing and validation procedures.
#
#######################################################################

data_FUHPIJ
_symmetry_cell_setting           monoclinic
_symmetry_space_group_name_H-M   'C 2/c'
_symmetry_Int_Tables_number      15
_space_group_name_Hall           '-C 2yn'
loop_
_symmetry_equiv_pos_site_id
_symmetry_equiv_pos_as_xyz
1 x,y,z
2 -x,y,1/2-z
3 1/2+x,1/2+y,z
4 1/2-x,1/2+y,1/2-z
5 -x,-y,-z
6 x,-y,1/2+z
7 1/2-x,1/2-y,-z
8 1/2+x,1/2-y,1/2+z
_cell_length_a                   18.614(4)
_cell_length_b                   14.669(3)
_cell_length_c                   14.137(3)
_cell_angle_alpha                90
_cell_angle_beta                 99.597(2)
_cell_angle_gamma                90
_cell_volume                     3806.07
loop_
_atom_site_label
_atom_site_type_symbol
_atom_site_fract_x
_atom_site_fract_y
_atom_site_fract_z
Cu1 Cu 0.23436(4) 0.24005(4) 0.87738(5)
O1 O 0.1510(3) 0.2770(3) 0.7855(4)
O2 O 0.1968(6) 0.2704(7) 0.6685(8)
O3 O -0.18722(19) 0.2930(2) 0.4822(3)
O4 O -0.1317(3) 0.3532(3) 0.3700(5)
O5 O 0.4750(2) 0.6098(3) 0.9230(3)
N1 N 0.2801(3) 0.3645(3) 0.8656(3)
N2 N 0.4572(3) 0.4688(3) 0.8602(4)
H1 H 0.4782 0.4216 0.8377
N3 N 0.6871(3) 0.6145(3) 0.8797(3)
C1 C 0.2361(3) 0.4381(4) 0.8611(4)
H2 H 0.1855 0.4294 0.8605
C2 C 0.2625(4) 0.5254(4) 0.8574(4)
H3 H 0.2300 0.5758 0.8538
C3 C 0.3352(4) 0.5399(4) 0.8590(4)
H4 H 0.3543 0.5999 0.8578
C4 C 0.3801(3) 0.4645(5) 0.8624(4)
C5 C 0.3508(3) 0.3775(4) 0.8659(4)
H5 H 0.3821 0.3261 0.8686
C6 C 0.7242(3) 0.5362(4) 0.8823(4)
H6 H 0.7750 0.5383 0.8808
C7 C 0.6914(3) 0.4529(4) 0.8869(4)
H7 H 0.7194 0.3985 0.8895
C8 C 0.6177(3) 0.4487(4) 0.8879(4)
H8 H 0.5942 0.3916 0.8908
C9 C 0.5782(3) 0.5292(4) 0.8845(4)
C10 C 0.6156(3) 0.6099(4) 0.8792(4)
H9 H 0.5887 0.6652 0.8748
C11 C 0.4976(4) 0.5396(5) 0.8899(4)
C12 C 0.1434(7) 0.2877(9) 0.7093(10)
C13 C 0.0701(7) 0.3505(12) 0.5534(10)
H10 H 0.1100 0.3194 0.5278
H11 H 0.0831 0.4158 0.5611
C14 C 0.0007(10) 0.342(2) 0.4801(14)
H12 H -0.0008 0.2817 0.4485
H13 H 0.0001 0.3895 0.4302
C15 C -0.0707(4) 0.3539(7) 0.5333(8)
H14 H -0.0695 0.3101 0.5869
H15 H -0.0741 0.4167 0.5580
C16 C -0.1328(3) 0.3334(4) 0.4528(6)
C17 C 0.0657(9) 0.3124(10) 0.6480(11)
H16 H 0.0354 0.2566 0.6396
H17 H 0.0411 0.3570 0.6844
Cu1A Cu -0.23436(4) 0.24005(4) 0.62262(5)
Cu1B Cu 0.73436(4) 0.74005(4) 0.87738(5)
Cu1G Cu -0.26564(4) 0.25995(4) 0.37738(5)
O3A O 0.18722(19) 0.2930(2) 1.0178(3)
O3G O 0.31278(19) 0.2070(2) 0.9822(3)
N3B N 0.1871(3) 0.1145(3) 0.8797(3)
O7 O 0.5000 0.3176(4) 0.7500
H24 H 0.4681(17) 0.282(2) 0.720(3)
H24A H 0.5319(17) 0.282(2) 0.780(3)
O8 O -0.1159(3) 0.2857(4) 0.1737(5)
H25 H -0.097(4) 0.339(3) 0.195(6)
H26 H -0.1612(13) 0.293(5) 0.157(6)
O9 O -0.0692(6) 0.4484(6) 0.2379(7)
O6? O 0.2399(5) 0.2515(6) 0.6687(7)
C18? C 0.1773(12) 0.2778(14) 0.6858(13)
C19? C 0.0617(9) 0.3547(17) 0.6365(16)
H18? H 0.0751 0.4186 0.6542
H19? H 0.0455 0.3243 0.6919
C20? C -0.0038(12) 0.351(2) 0.5397(15)
H20? H 0.0080 0.4015 0.4984
H21? H 0.0057 0.2943 0.5061
C21? C 0.1212(8) 0.3079(10) 0.6091(10)
H22? H 0.1439 0.3482 0.5663
H23? H 0.1021 0.2539 0.5710
O10? O 0.2708(7) 0.2380(8) 0.5338(7)
loop_
_geom_bond_atom_site_label_1
_geom_bond_atom_site_label_2
_geom_bond_site_symmetry_1
_geom_bond_site_symmetry_2
Cu1 O1 1_555 1_555
O1 C12 1_555 1_555
O2 C12 1_555 1_555
O3 C16 1_555 1_555
O4 C16 1_555 1_555
O5 C11 1_555 1_555
N1 Cu1 1_555 1_555
N2 H1 1_555 1_555
N3 C6 1_555 1_555
C1 N1 1_555 1_555
H2 C1 1_555 1_555
C2 C1 1_555 1_555
H3 C2 1_555 1_555
C3 C2 1_555 1_555
H4 C3 1_555 1_555
C4 N2 1_555 1_555
C5 N1 1_555 1_555
H5 C5 1_555 1_555
C6 H6 1_555 1_555
C7 C6 1_555 1_555
H7 C7 1_555 1_555
C8 C7 1_555 1_555
H8 C8 1_555 1_555
C9 C8 1_555 1_555
C10 N3 1_555 1_555
H9 C10 1_555 1_555
C11 N2 1_555 1_555
C12 C17 1_555 1_555
C13 H10 1_555 1_555
H11 C13 1_555 1_555
C14 C13 1_555 1_555
H12 C14 1_555 1_555
H13 C14 1_555 1_555
C15 C14 1_555 1_555
H14 C15 1_555 1_555
H15 C15 1_555 1_555
C16 C15 1_555 1_555
C17 C13 1_555 1_555
H16 C17 1_555 1_555
H17 C17 1_555 1_555
O7 H24 1_555 1_555
O8 H25 1_555 1_555
H26 O8 1_555 1_555
Cu1A O3 1_555 1_555
Cu1B N3 1_555 1_555
Cu1G O3 1_555 1_555
O3A Cu1 1_555 1_555
O3G Cu1 1_555 1_555
N3B Cu1 1_555 1_555
H24A O7 1_555 1_555
C3 C4 1_555 1_555
C4 C5 1_555 1_555
C9 C10 1_555 1_555
C9 C11 1_555 1_555

#END
