
#######################################################################
#
#                 Cambridge Crystallographic Data Centre
#                                CCDC 
#
#######################################################################
#
# If this CIF has been generated from an entry in the Cambridge 
# Structural Database, then it will include bibliographic, chemical, 
# crystal, experimental, refinement or atomic coordinate data resulting 
# from the CCDC's data processing and validation procedures.
#
#######################################################################

data_FUHVUB
_symmetry_cell_setting           monoclinic
_symmetry_space_group_name_H-M   'P 21/c'
_symmetry_Int_Tables_number      14
_space_group_name_Hall           '-P 2ybc'
loop_
_symmetry_equiv_pos_site_id
_symmetry_equiv_pos_as_xyz
1 x,y,z
2 -x,1/2+y,1/2-z
3 -x,-y,-z
4 x,1/2-y,1/2+z
_cell_length_a                   8.4429(17)
_cell_length_b                   14.749(3)
_cell_length_c                   11.640(2)
_cell_angle_alpha                90
_cell_angle_beta                 91.66(3)
_cell_angle_gamma                90
_cell_volume                     1448.85
loop_
_atom_site_label
_atom_site_type_symbol
_atom_site_fract_x
_atom_site_fract_y
_atom_site_fract_z
Sm1 Sm 0.27294(5) 0.37077(3) -0.06784(3)
O1 O 0.4837(10) 0.4128(6) 0.0502(6)
O2 O 0.6060(10) 0.5078(5) 0.1736(6)
O3 O 0.2803(8) 0.2633(4) 0.0851(5)
C1 C 0.3148(10) 0.2398(5) 0.1850(7)
C2 C 0.5266(12) 0.4381(7) 0.1494(8)
C3 C 0.4231(10) 0.2947(6) 0.2621(7)
C4 C 0.5022(11) 0.3752(6) 0.2487(7)
N1 N 0.5834(10) 0.3904(6) 0.3503(6)
O4 O 0.2648(8) 0.1677(4) 0.2308(5)
O5 O 0.0497(9) 0.2687(5) -0.0953(6)
N2 N 0.4575(9) 0.2599(5) 0.3694(6)
C5 C 0.6352(14) 0.3770(7) 0.6161(9)
H1 H 0.5744 0.4290 0.6051
C6 C 0.5564(11) 0.3197(6) 0.4202(7)
C7 C 0.7239(15) 0.3641(8) 0.7164(9)
H2 H 0.7168 0.4076 0.7738
C8 C 0.6394(11) 0.3098(6) 0.5314(8)
C9 C 0.8209(14) 0.2313(9) 0.6562(10)
H3 H 0.8861 0.1814 0.6698
N3 N 0.8170(12) 0.2946(8) 0.7357(8)
C10 C 0.7339(12) 0.2342(8) 0.5536(9)
H4 H 0.7386 0.1869 0.5009
O6 O 0.0501(12) 0.4622(7) -0.1451(10)
O7 O -0.1409(16) 0.5540(11) -0.0916(12)
C11 C -0.033(3) 0.5024(11) -0.0738(19)
O6B O -0.0501(12) 0.5378(7) 0.1451(10)
O7B O 0.1409(16) 0.4460(11) 0.0916(12)
C11B C 0.033(3) 0.4976(11) 0.0738(19)
Sm1B Sm -0.27294(5) 0.62923(3) 0.06784(3)
O1B O -0.4837(10) 0.5872(6) -0.0502(6)
O2B O -0.6060(10) 0.4922(5) -0.1736(6)
O3B O -0.2803(8) 0.7367(4) -0.0851(5)
C1B C -0.3148(10) 0.7602(5) -0.1850(7)
C2B C -0.5266(12) 0.5619(7) -0.1494(8)
C3B C -0.4231(10) 0.7053(6) -0.2621(7)
C4B C -0.5022(11) 0.6248(6) -0.2487(7)
N1B N -0.5834(10) 0.6096(6) -0.3503(6)
O4B O -0.2648(8) 0.8323(4) -0.2308(5)
O5B O -0.0497(9) 0.7313(5) 0.0953(6)
N2B N -0.4575(9) 0.7401(5) -0.3694(6)
C5B C -0.6352(14) 0.6230(7) -0.6161(9)
H1B H -0.5744 0.5710 -0.6051
C6B C -0.5564(11) 0.6803(6) -0.4202(7)
C7B C -0.7239(15) 0.6359(8) -0.7164(9)
H2B H -0.7168 0.5924 -0.7738
C8B C -0.6394(11) 0.6902(6) -0.5314(8)
C9B C -0.8209(14) 0.7687(9) -0.6562(10)
H3B H -0.8861 0.8186 -0.6698
N3B N -0.8170(12) 0.7054(8) -0.7357(8)
C10B C -0.7339(12) 0.7658(8) -0.5536(9)
H4B H -0.7386 0.8131 -0.5009
Sm1_2 Sm -0.72706(5) 0.37077(3) -0.06784(3)
Sm1A Sm -0.27294(5) 0.87077(3) -0.43216(3)
Sm1B_2 Sm 0.72706(5) 0.62923(3) 0.06784(3)
Sm1C Sm 0.27294(5) 0.12923(3) 0.43216(3)
O2_2 O -0.3940(10) 0.5078(5) 0.1736(6)
O2B_2 O 0.3940(10) 0.4922(5) -0.1736(6)
O4A O -0.2648(8) 0.6677(4) 0.2692(5)
O4C O 0.2648(8) 0.3323(4) -0.2692(5)
N2A N -0.4575(9) 0.7599(5) 0.1306(6)
N2C N 0.4575(9) 0.2401(5) -0.1306(6)
O8 O 0.2033(12) 0.0262(6) 0.0817(8)
loop_
_geom_bond_atom_site_label_1
_geom_bond_atom_site_label_2
_geom_bond_site_symmetry_1
_geom_bond_site_symmetry_2
Sm1 O1 1_555 1_555
O1 C2 1_555 1_555
O2 C2 1_555 1_555
O3 Sm1 1_555 1_555
C1 O3 1_555 1_555
C2 C4 1_555 1_555
C3 C1 1_555 1_555
C4 C3 1_555 1_555
N1 C4 1_555 1_555
O4 C1 1_555 1_555
O5 Sm1 1_555 1_555
N2 C3 1_555 1_555
C5 H1 1_555 1_555
C6 N1 1_555 1_555
C7 C5 1_555 1_555
H2 C7 1_555 1_555
C8 C5 1_555 1_555
C9 H3 1_555 1_555
N3 C7 1_555 1_555
C10 C8 1_555 1_555
H4 C10 1_555 1_555
O6 Sm1 1_555 1_555
O7 C11 1_555 1_555
C11 O6 1_555 1_555
O6B C11B 1_555 1_555
O7B Sm1 1_555 1_555
C11B C11 1_555 1_555
Sm1B O7 1_555 1_555
O1B Sm1B 1_555 1_555
O2B C2B 1_555 1_555
O3B Sm1B 1_555 1_555
C1B O3B 1_555 1_555
C2B O1B 1_555 1_555
C3B C1B 1_555 1_555
C4B C2B 1_555 1_555
N1B C4B 1_555 1_555
O4B C1B 1_555 1_555
O5B Sm1B 1_555 1_555
N2B C3B 1_555 1_555
C5B H1B 1_555 1_555
C6B N1B 1_555 1_555
C7B C5B 1_555 1_555
H2B C7B 1_555 1_555
C8B C5B 1_555 1_555
C9B H3B 1_555 1_555
N3B C7B 1_555 1_555
C10B C8B 1_555 1_555
H4B C10B 1_555 1_555
Sm1_2 O2B 1_555 1_555
Sm1A O4B 1_555 1_555
Sm1B_2 O2 1_555 1_555
Sm1C O4 1_555 1_555
O2_2 Sm1B 1_555 1_555
O2B_2 Sm1 1_555 1_555
O4A Sm1B 1_555 1_555
O4C Sm1 1_555 1_555
N2A Sm1B 1_555 1_555
N2C Sm1 1_555 1_555
N2 C6 1_555 1_555
N2 Sm1C 1_555 1_555
C6 C8 1_555 1_555
C9 N3 1_555 1_555
C9 C10 1_555 1_555
O6B Sm1B 1_555 1_555
O7B C11B 1_555 1_555
C3B C4B 1_555 1_555
N2B C6B 1_555 1_555
N2B Sm1A 1_555 1_555
C6B C8B 1_555 1_555
C9B N3B 1_555 1_555
C9B C10B 1_555 1_555

#END
