
#######################################################################
#
#                 Cambridge Crystallographic Data Centre
#                                CCDC 
#
#######################################################################
#
# If this CIF has been generated from an entry in the Cambridge 
# Structural Database, then it will include bibliographic, chemical, 
# crystal, experimental, refinement or atomic coordinate data resulting 
# from the CCDC's data processing and validation procedures.
#
#######################################################################

data_FUHWUC
_symmetry_cell_setting           monoclinic
_symmetry_space_group_name_H-M   'C 2/c'
_symmetry_Int_Tables_number      15
_space_group_name_Hall           '-C 2yn'
loop_
_symmetry_equiv_pos_site_id
_symmetry_equiv_pos_as_xyz
1 x,y,z
2 -x,y,1/2-z
3 1/2+x,1/2+y,z
4 1/2-x,1/2+y,1/2-z
5 -x,-y,-z
6 x,-y,1/2+z
7 1/2-x,1/2-y,-z
8 1/2+x,1/2-y,1/2+z
_cell_length_a                   28.059(8)
_cell_length_b                   7.387(2)
_cell_length_c                   21.843(7)
_cell_angle_alpha                90
_cell_angle_beta                 102.703(9)
_cell_angle_gamma                90
_cell_volume                     4416.62
loop_
_atom_site_label
_atom_site_type_symbol
_atom_site_fract_x
_atom_site_fract_y
_atom_site_fract_z
Zn1 Zn 0.16509(3) 0.94426(12) 0.20314(3)
Zn2 Zn 0.14741(3) 0.38157(12) 0.12953(4)
O1 O 0.1404(2) 0.9322(8) 0.1105(3)
O2 O 0.1020(2) 1.1938(8) 0.0905(3)
O3 O 0.1303(2) 0.5527(7) 0.0602(3)
O4 O 0.0713(2) 0.6044(9) 0.1095(2)
O5 O 0.18648(18) 0.6848(7) 0.2123(2)
O6 O 0.1521(2) 0.4176(7) 0.2189(2)
O7 O 0.27135(18) 0.5557(8) 0.3057(2)
O8 O 0.28594(19) 0.7939(8) 0.3714(2)
O9 O 0.0898(3) 0.8721(11) 0.2002(3)
H1 H 0.091(2) 0.986(5) 0.216(3)
H2 H 0.0842(10) 0.897(11) 0.1583(11)
N1 N 0.1661(2) 1.0532(8) 0.2880(2)
N2 N 0.1267(2) 1.0548(10) 0.3151(3)
N3 N 0.1903(2) 1.1492(8) 0.3838(2)
C1 C 0.2212(3) 1.2011(10) 0.4436(3)
C2 C 0.2031(3) 1.1980(14) 0.4963(3)
H3 H 0.1711 1.1602 0.4939
C3 C 0.2313(3) 1.2501(15) 0.5529(3)
H4 H 0.2183 1.2522 0.5886
C4 C 0.2041(3) 1.1117(10) 0.3309(3)
H5 H 0.2357 1.1244 0.3247
C5 C 0.1425(3) 1.1106(12) 0.3715(3)
H6 H 0.1229 1.1229 0.4006
C6 C 0.0773(2) 0.9489(10) 0.0207(3)
C7 C 0.0696(3) 0.7646(10) 0.0154(3)
C8 C 0.0385(3) 0.6971(12) -0.0395(4)
H7 H 0.0333 0.5731 -0.0442
C9 C 0.0161(3) 0.8127(16) -0.0860(4)
H8 H -0.0047 0.7664 -0.1217
C10 C 0.0240(3) 0.9981(15) -0.0806(4)
H9 H 0.0094 1.0757 -0.1128
C11 C 0.0538(3) 1.0649(12) -0.0269(4)
H10 H 0.0584 1.1892 -0.0222
C12 C 0.1087(3) 1.0323(10) 0.0792(3)
C13 C 0.0917(3) 0.6336(10) 0.0655(3)
C14 C 0.1689(3) 0.5920(9) 0.3103(3)
C15 C 0.2089(3) 0.6538(9) 0.3549(3)
C16 C 0.2037(3) 0.6893(11) 0.4158(4)
H11 H 0.2300 0.7324 0.4457
C17 C 0.1590(4) 0.6602(13) 0.4317(4)
H12 H 0.1558 0.6841 0.4724
C18 C 0.1205(4) 0.5981(13) 0.3891(5)
H13 H 0.0910 0.5776 0.4005
C19 C 0.1247(3) 0.5641(12) 0.3276(4)
H14 H 0.0978 0.5226 0.2981
C20 C 0.1702(3) 0.5634(10) 0.2434(3)
C21 C 0.2599(3) 0.6696(10) 0.3432(3)
N1F N 0.3339(2) 1.4468(8) 0.7120(2)
N2F N 0.3733(2) 1.4452(10) 0.6849(3)
N3F N 0.3097(2) 1.3508(8) 0.6162(2)
C1F C 0.2788(3) 1.2989(10) 0.5564(3)
C2F C 0.2969(3) 1.3020(14) 0.5037(3)
H3F H 0.3289 1.3398 0.5061
C3F C 0.2687(3) 1.2499(15) 0.4471(3)
H4F H 0.2817 1.2478 0.4114
C4F C 0.2959(3) 1.3883(10) 0.6691(3)
H5F H 0.2643 1.3756 0.6753
C5F C 0.3575(3) 1.3894(12) 0.6285(3)
H6F H 0.3771 1.3771 0.5994
Zn1F Zn 0.33491(3) 1.55574(12) 0.79686(3)
Zn2F Zn 0.35259(3) 2.11843(12) 0.87047(4)
O1F O 0.3596(2) 1.5678(8) 0.8895(3)
O2F O 0.3980(2) 1.3062(8) 0.9095(3)
O3F O 0.3697(2) 1.9473(7) 0.9398(3)
O4F O 0.4287(2) 1.8956(9) 0.8905(2)
O5F O 0.31352(18) 1.8152(7) 0.7877(2)
O6F O 0.3479(2) 2.0824(7) 0.7811(2)
O7F O 0.22865(18) 1.9443(8) 0.6943(2)
O8F O 0.21406(19) 1.7061(8) 0.6286(2)
O9F O 0.4102(3) 1.6279(11) 0.7998(3)
H1F H 0.409(2) 1.514(5) 0.784(3)
H2F H 0.4158(10) 1.603(11) 0.8417(11)
C6F C 0.4227(2) 1.5511(10) 0.9793(3)
C7F C 0.4304(3) 1.7354(10) 0.9846(3)
C8F C 0.4615(3) 1.8029(12) 1.0395(4)
H7F H 0.4667 1.9269 1.0442
C9F C 0.4839(3) 1.6873(16) 1.0860(4)
H8F H 0.5047 1.7336 1.1217
C10F C 0.4760(3) 1.5019(15) 1.0806(4)
H9F H 0.4906 1.4243 1.1128
C11F C 0.4462(3) 1.4351(12) 1.0269(4)
H10F H 0.4416 1.3108 1.0222
C12F C 0.3913(3) 1.4677(10) 0.9208(3)
C13F C 0.4083(3) 1.8664(10) 0.9345(3)
C14F C 0.3311(3) 1.9080(9) 0.6897(3)
C15F C 0.2911(3) 1.8462(9) 0.6451(3)
C16F C 0.2963(3) 1.8107(11) 0.5842(4)
H11F H 0.2700 1.7676 0.5543
C17F C 0.3410(4) 1.8398(13) 0.5683(4)
H12F H 0.3442 1.8159 0.5276
C18F C 0.3795(4) 1.9019(13) 0.6109(5)
H13F H 0.4090 1.9224 0.5995
C19F C 0.3753(3) 1.9359(12) 0.6724(4)
H14F H 0.4022 1.9774 0.7019
C20F C 0.3298(3) 1.9366(10) 0.7566(3)
C21F C 0.2401(3) 1.8304(10) 0.6568(3)
Zn1C Zn 0.33491(3) 0.44426(12) 0.29686(3)
Zn1E Zn 0.16509(3) 2.05574(12) 0.70314(3)
Zn2_2 Zn 0.14741(3) 1.38157(12) 0.12953(4)
Zn2C Zn 0.35259(3) 0.88157(12) 0.37047(4)
Zn2E Zn 0.14741(3) 1.61843(12) 0.62953(4)
Zn2F_2 Zn 0.35259(3) 1.11843(12) 0.87047(4)
O2_2 O 0.1020(2) 0.1938(8) 0.0905(3)
O2F_2 O 0.3980(2) 2.3062(8) 0.9095(3)
O7C O 0.22865(18) 1.0557(8) 0.1943(2)
O7E O 0.27135(18) 1.4443(8) 0.8057(2)
O8C O 0.21406(19) 0.2939(8) 0.1286(2)
O8E O 0.28594(19) 2.2061(8) 0.8714(2)
O10 O 0.0053(6) 0.573(2) 0.1871(9)
O11 O -0.0268(6) 1.255(3) 0.2464(8)
O12 O -0.0185(7) 0.886(3) 0.2360(8)
loop_
_geom_bond_atom_site_label_1
_geom_bond_atom_site_label_2
_geom_bond_site_symmetry_1
_geom_bond_site_symmetry_2
Zn1 O1 1_555 1_555
Zn2 O3 1_555 1_555
O1 C12 1_555 1_555
O2 C12 1_555 1_555
O3 C13 1_555 1_555
O4 C13 1_555 1_555
O5 Zn1 1_555 1_555
O6 Zn2 1_555 1_555
O7 C21 1_555 1_555
O8 C21 1_555 1_555
O9 Zn1 1_555 1_555
H1 O9 1_555 1_555
H2 O9 1_555 1_555
N1 Zn1 1_555 1_555
N2 N1 1_555 1_555
N3 C1 1_555 1_555
C1 C2 1_555 1_555
C2 H3 1_555 1_555
C3 C2 1_555 1_555
H4 C3 1_555 1_555
C4 N1 1_555 1_555
H5 C4 1_555 1_555
C5 N2 1_555 1_555
H6 C5 1_555 1_555
C6 C7 1_555 1_555
C7 C8 1_555 1_555
C8 H7 1_555 1_555
C9 C8 1_555 1_555
H8 C9 1_555 1_555
C10 C9 1_555 1_555
H9 C10 1_555 1_555
C11 C6 1_555 1_555
H10 C11 1_555 1_555
C12 C6 1_555 1_555
C13 C7 1_555 1_555
C14 C15 1_555 1_555
C15 C16 1_555 1_555
C16 H11 1_555 1_555
C17 C16 1_555 1_555
H12 C17 1_555 1_555
C18 C17 1_555 1_555
H13 C18 1_555 1_555
C19 C14 1_555 1_555
H14 C19 1_555 1_555
C20 O5 1_555 1_555
C21 C15 1_555 1_555
N1F N2F 1_555 1_555
N2F C5F 1_555 1_555
N3F C1F 1_555 1_555
C1F C3 1_555 1_555
C2F C1F 1_555 1_555
H3F C2F 1_555 1_555
C3F C1 1_555 1_555
H4F C3F 1_555 1_555
C4F N1F 1_555 1_555
H5F C4F 1_555 1_555
C5F N3F 1_555 1_555
H6F C5F 1_555 1_555
Zn1F N1F 1_555 1_555
Zn2F O3F 1_555 1_555
O1F Zn1F 1_555 1_555
O2F C12F 1_555 1_555
O3F C13F 1_555 1_555
O4F C13F 1_555 1_555
O5F Zn1F 1_555 1_555
O6F Zn2F 1_555 1_555
O7F C21F 1_555 1_555
O8F C21F 1_555 1_555
O9F Zn1F 1_555 1_555
H1F O9F 1_555 1_555
H2F O9F 1_555 1_555
C6F C7F 1_555 1_555
C7F C8F 1_555 1_555
C8F H7F 1_555 1_555
C9F C8F 1_555 1_555
H8F C9F 1_555 1_555
C10F C9F 1_555 1_555
H9F C10F 1_555 1_555
C11F C6F 1_555 1_555
H10F C11F 1_555 1_555
C12F O1F 1_555 1_555
C13F C7F 1_555 1_555
C14F C15F 1_555 1_555
C15F C16F 1_555 1_555
C16F H11F 1_555 1_555
C17F C16F 1_555 1_555
H12F C17F 1_555 1_555
C18F C17F 1_555 1_555
H13F C18F 1_555 1_555
C19F C14F 1_555 1_555
H14F C19F 1_555 1_555
C20F O5F 1_555 1_555
C21F C15F 1_555 1_555
Zn1C O7 1_555 1_555
Zn1E O7F 1_555 1_555
Zn2_2 O2 1_555 1_555
Zn2C O8 1_555 1_555
Zn2E O8F 1_555 1_555
Zn2F_2 O2F 1_555 1_555
O2_2 Zn2 1_555 1_555
O2F_2 Zn2F 1_555 1_555
O7C Zn1 1_555 1_555
O7E Zn1F 1_555 1_555
O8C Zn2 1_555 1_555
O8E Zn2F 1_555 1_555
O6 C20 1_555 1_555
N3 C4 1_555 1_555
N3 C5 1_555 1_555
C10 C11 1_555 1_555
C14 C20 1_555 1_555
C18 C19 1_555 1_555
N3F C4F 1_555 1_555
C2F C3F 1_555 1_555
O6F C20F 1_555 1_555
C6F C12F 1_555 1_555
C10F C11F 1_555 1_555
C14F C20F 1_555 1_555
C18F C19F 1_555 1_555

#END
