
#######################################################################
#
#                 Cambridge Crystallographic Data Centre
#                                CCDC 
#
#######################################################################
#
# If this CIF has been generated from an entry in the Cambridge 
# Structural Database, then it will include bibliographic, chemical, 
# crystal, experimental, refinement or atomic coordinate data resulting 
# from the CCDC's data processing and validation procedures.
#
#######################################################################

data_FUHYEO
_symmetry_cell_setting           monoclinic
_symmetry_space_group_name_H-M   'P 21/c'
_symmetry_Int_Tables_number      14
_space_group_name_Hall           '-P 2ybc'
loop_
_symmetry_equiv_pos_site_id
_symmetry_equiv_pos_as_xyz
1 x,y,z
2 -x,1/2+y,1/2-z
3 -x,-y,-z
4 x,1/2-y,1/2+z
_cell_length_a                   15.532(3)
_cell_length_b                   8.7616(18)
_cell_length_c                   24.641(8)
_cell_angle_alpha                90
_cell_angle_beta                 116.35(2)
_cell_angle_gamma                90
_cell_volume                     3004.87
loop_
_atom_site_label
_atom_site_type_symbol
_atom_site_fract_x
_atom_site_fract_y
_atom_site_fract_z
O1 O -0.18611(18) 0.3579(3) 0.29989(13)
O2 O -0.03407(18) 0.3354(3) 0.31903(14)
C1 C -0.1003(3) 0.4040(4) 0.32686(19)
C2 C -0.0715(3) 0.5325(4) 0.37171(19)
Eu1 Eu 0.130266(13) 0.63318(2) 0.249232(9)
Eu2 Eu 0.356851(13) 0.85037(2) 0.243555(9)
Mn1 Mn -0.25092(4) 0.69730(8) 0.50079(3)
S1 S 0.23256(7) 0.52459(10) 0.14800(5)
S2 S 0.25914(7) 0.95071(10) 0.34759(5)
O3 O 0.28519(19) 0.9222(3) 0.41198(14)
O4 O 0.2429(2) 1.1149(3) 0.33406(15)
O5 O 0.33754(18) 0.8982(3) 0.33370(13)
O6 O 0.16940(19) 0.8657(3) 0.30992(14)
O7 O 0.13919(19) 0.3595(3) 0.26596(15)
H1 H 0.1892 0.3105 0.2706
H2 H 0.0922 0.3128 0.2672
O8 O 0.15323(18) 0.5390(3) 0.16565(14)
O9 O -0.01956(18) 0.5119(3) 0.17371(14)
H3 H -0.0316 0.5110 0.1365
H4 H -0.0588 0.4714 0.1849
O10 O 0.18976(18) 0.5170(3) 0.08108(13)
O11 O 0.29634(19) 0.6585(3) 0.16894(14)
O12 O 0.2901(2) 0.3872(3) 0.17396(14)
O13 O 0.50696(19) 0.9774(3) 0.30750(15)
H5 H 0.5246 0.9848 0.3454
H6 H 0.5418 1.0144 0.2922
O14 O 0.3175(2) 1.1218(3) 0.24382(14)
H7 H 0.2656 1.1475 0.2449
H8 H 0.3557 1.1901 0.2428
O15 O 0.00533(18) 0.6509(3) 0.28327(13)
O16 O 0.14391(18) 0.5834(3) 0.35817(14)
O17 O -0.32386(19) 0.7073(3) 0.40512(14)
H9 H -0.3438 0.6258 0.3846
H10 H -0.3333 0.7930 0.3872
O18 O -0.2611(2) 0.9467(3) 0.49571(15)
H11 H -0.2909 0.9948 0.4582
H12 H -0.2356 1.0045 0.5310
O19 O -0.17323(19) 0.7321(3) 0.59811(14)
H13 H -0.1585 0.6559 0.6219
H14 H -0.1575 0.8216 0.6124
O20 O -0.24974(19) 0.4492(3) 0.51858(15)
H15 H -0.2971 0.4082 0.5215
H16 H -0.2019 0.3951 0.5226
O21 O 0.29401(18) 0.5973(3) 0.29343(13)
O22 O 0.44109(19) 0.6353(3) 0.30259(14)
O23 O 0.62654(18) 0.4516(3) 0.34400(13)
O24 O 0.51479(17) 0.2878(3) 0.28856(13)
N1 N -0.1084(2) 0.6936(4) 0.50007(16)
N2 N 0.0268(2) 0.8195(4) 0.51832(17)
H17 H 0.0975 0.8745 0.5464
N3 N 0.3945(2) 0.3000(4) 0.49964(16)
N4 N 0.5345(2) 0.1878(4) 0.52083(17)
H18 H 0.5995 0.1410 0.5441
C3 C 0.0557(3) 0.6148(4) 0.3386(2)
C4 C 0.0109(3) 0.6203(4) 0.38114(19)
C5 C 0.0508(3) 0.7211(4) 0.42959(19)
H19 H 0.1058 0.7768 0.4370
C6 C 0.0042(3) 0.7348(4) 0.46686(19)
C7 C -0.0797(3) 0.6541(4) 0.45574(19)
C8 C -0.1177(3) 0.5504(4) 0.40788(18)
H20 H -0.1728 0.4948 0.4005
C9 C -0.0423(3) 0.7902(5) 0.53555(19)
H21 H -0.0435 0.8342 0.5696
C10 C 0.4643(3) 0.2136(5) 0.5378(2)
H22 H 0.4652 0.1740 0.5730
C11 C 0.4217(3) 0.3367(4) 0.4545(2)
C12 C 0.3777(3) 0.4295(4) 0.40367(19)
H23 H 0.3195 0.4772 0.3949
C13 C 0.4224(3) 0.4491(4) 0.36659(19)
C14 C 0.3838(3) 0.5655(4) 0.31733(19)
C15 C 0.5100(3) 0.3716(4) 0.37869(19)
C16 C 0.5516(3) 0.3739(4) 0.33413(19)
C17 C 0.5537(3) 0.2783(4) 0.4288(2)
H24 H 0.6103 0.2265 0.4368
C18 C 0.5093(3) 0.2650(4) 0.46734(19)
O1A O 0.18611(18) 0.8579(3) 0.20011(13)
O2A O 0.03407(18) 0.8354(3) 0.18097(14)
Eu1A Eu -0.130266(13) 0.13318(2) 0.250768(9)
Eu2A Eu -0.356851(13) 0.35037(2) 0.256445(9)
Eu2A_2 Eu 0.643149(13) 0.35037(2) 0.256445(9)
Mn1B Mn 0.25092(4) 0.30270(8) 0.49921(3)
O23A O 0.37346(18) 0.9516(3) 0.15600(13)
O24A O 0.48521(17) 0.7878(3) 0.21144(13)
N3B N -0.3945(2) 0.7000(4) 0.50036(16)
loop_
_geom_bond_atom_site_label_1
_geom_bond_atom_site_label_2
_geom_bond_site_symmetry_1
_geom_bond_site_symmetry_2
O1 C1 1_555 1_555
O2 C1 1_555 1_555
C1 C2 1_555 1_555
C2 C4 1_555 1_555
Eu1 O6 1_555 1_555
Eu2 O5 1_555 1_555
Mn1 O17 1_555 1_555
S1 O8 1_555 1_555
S2 O3 1_555 1_555
O4 S2 1_555 1_555
O5 S2 1_555 1_555
O6 S2 1_555 1_555
O7 Eu1 1_555 1_555
H1 O7 1_555 1_555
H2 O7 1_555 1_555
O8 Eu1 1_555 1_555
O9 Eu1 1_555 1_555
H3 O9 1_555 1_555
H4 O9 1_555 1_555
O10 S1 1_555 1_555
O11 Eu2 1_555 1_555
O12 S1 1_555 1_555
O13 Eu2 1_555 1_555
H5 O13 1_555 1_555
H6 O13 1_555 1_555
O14 Eu2 1_555 1_555
H7 O14 1_555 1_555
H8 O14 1_555 1_555
O15 Eu1 1_555 1_555
O16 Eu1 1_555 1_555
O17 H9 1_555 1_555
H10 O17 1_555 1_555
O18 Mn1 1_555 1_555
H11 O18 1_555 1_555
H12 O18 1_555 1_555
O19 Mn1 1_555 1_555
H13 O19 1_555 1_555
H14 O19 1_555 1_555
O20 Mn1 1_555 1_555
H15 O20 1_555 1_555
H16 O20 1_555 1_555
O21 Eu1 1_555 1_555
O22 Eu2 1_555 1_555
O23 C16 1_555 1_555
O24 C16 1_555 1_555
N1 Mn1 1_555 1_555
N2 H17 1_555 1_555
N3 C10 1_555 1_555
N4 H18 1_555 1_555
C3 O15 1_555 1_555
C4 C3 1_555 1_555
C5 C4 1_555 1_555
H19 C5 1_555 1_555
C6 N2 1_555 1_555
C7 N1 1_555 1_555
C8 C2 1_555 1_555
H20 C8 1_555 1_555
C9 N1 1_555 1_555
H21 C9 1_555 1_555
C10 N4 1_555 1_555
H22 C10 1_555 1_555
C11 N3 1_555 1_555
C12 C11 1_555 1_555
H23 C12 1_555 1_555
C13 C12 1_555 1_555
C14 O21 1_555 1_555
C15 C13 1_555 1_555
C16 C15 1_555 1_555
C17 C15 1_555 1_555
H24 C17 1_555 1_555
C18 N4 1_555 1_555
O1A Eu1 1_555 1_555
O2A Eu1 1_555 1_555
Eu1A O1 1_555 1_555
Eu2A O1 1_555 1_555
Eu2A_2 O23 1_555 1_555
Mn1B N3 1_555 1_555
O23A Eu2 1_555 1_555
O24A Eu2 1_555 1_555
N3B Mn1 1_555 1_555
O2 Eu1A 1_555 1_555
Eu2 O21 1_555 1_555
Eu2 O1A 1_555 1_555
S1 O11 1_555 1_555
O16 C3 1_555 1_555
O22 C14 1_555 1_555
O24 Eu2A_2 1_555 1_555
N2 C9 1_555 1_555
C5 C6 1_555 1_555
C6 C7 1_555 1_555
C7 C8 1_555 1_555
C11 C18 1_555 1_555
C13 C14 1_555 1_555
C17 C18 1_555 1_555

#END
