
#######################################################################
#
#                 Cambridge Crystallographic Data Centre
#                                CCDC 
#
#######################################################################
#
# If this CIF has been generated from an entry in the Cambridge 
# Structural Database, then it will include bibliographic, chemical, 
# crystal, experimental, refinement or atomic coordinate data resulting 
# from the CCDC's data processing and validation procedures.
#
#######################################################################

data_FUHYUD01
_symmetry_cell_setting           orthorhombic
_symmetry_space_group_name_H-M   'P b c a'
_symmetry_Int_Tables_number      61
_space_group_name_Hall           '-P 2ac 2ab'
loop_
_symmetry_equiv_pos_site_id
_symmetry_equiv_pos_as_xyz
1 x,y,z
2 1/2-x,-y,1/2+z
3 -x,1/2+y,1/2-z
4 1/2+x,1/2-y,-z
5 -x,-y,-z
6 1/2+x,y,1/2-z
7 x,1/2-y,1/2+z
8 1/2-x,1/2+y,z
_cell_length_a                   14.2142(15)
_cell_length_b                   8.2722(9)
_cell_length_c                   14.6999(15)
_cell_angle_alpha                90
_cell_angle_beta                 90
_cell_angle_gamma                90
_cell_volume                     1728.45
loop_
_atom_site_label
_atom_site_type_symbol
_atom_site_fract_x
_atom_site_fract_y
_atom_site_fract_z
O1 O 0.5159(5) -0.0791(8) -0.1845(4)
O2 O 0.5668(4) 0.5735(7) 0.1273(3)
O3 O 0.5641(4) 0.1706(7) -0.2115(3)
C1 C 0.5605(5) 0.0455(10) -0.1626(5)
Zn1 Zn 0.53017(8) 0.31184(14) 0.14718(7)
C2 C 0.7037(5) 0.2013(9) 0.0444(5)
C3 C 0.6336(5) 0.2076(9) -0.0361(4)
H1 H 0.6589 0.2795 -0.0831
O4 O 0.6742(4) 0.2366(7) 0.1227(3)
O5 O 0.7846(4) 0.1535(9) 0.0280(4)
C4 C 0.6177(5) 0.0460(9) -0.0764(5)
H2 H 0.5861 -0.0212 -0.0318
H3 H 0.6783 -0.0030 -0.0890
O6 O 0.3886(4) 0.3923(9) 0.1256(4)
O7 O 0.5479(4) 0.2756(7) -0.0017(3)
H4 H 0.546(9) 0.620(19) 0.175(9)
H5 H 0.624(2) 0.569(19) 0.120(9)
H6 H 0.407(12) 0.439(14) 0.080(6)
H7 H 0.375(15) 0.297(6) 0.124(9)
H8 H 0.533(11) 0.202(13) 0.043(12)
O1D O 0.4841(5) 0.0791(8) 0.1845(4)
O2D O 0.4332(4) -0.5735(7) -0.1273(3)
O3D O 0.4359(4) -0.1706(7) 0.2115(3)
O3B O 0.4359(4) -0.3294(7) -0.2885(3)
O3F O 0.5641(4) 0.3294(7) 0.2885(3)
C1D C 0.4395(5) -0.0455(10) 0.1626(5)
Zn1D Zn 0.46983(8) -0.31184(14) -0.14718(7)
Zn1B Zn 0.46983(8) -0.18816(14) 0.35282(7)
Zn1F Zn 0.53017(8) 0.18816(14) -0.35282(7)
C2D C 0.2963(5) -0.2013(9) -0.0444(5)
C3D C 0.3664(5) -0.2076(9) 0.0361(4)
H1D H 0.3411 -0.2795 0.0831
O4D O 0.3258(4) -0.2366(7) -0.1227(3)
O5D O 0.2154(4) -0.1535(9) -0.0280(4)
C4D C 0.3823(5) -0.0460(9) 0.0764(5)
H2D H 0.4139 0.0212 0.0318
H3D H 0.3217 0.0030 0.0890
O6D O 0.6114(4) -0.3923(9) -0.1256(4)
O7D O 0.4521(4) -0.2756(7) 0.0017(3)
H4D H 0.454(9) -0.620(19) -0.175(9)
H5D H 0.376(2) -0.569(19) -0.120(9)
H6D H 0.593(12) -0.439(14) -0.080(6)
H7D H 0.625(15) -0.297(6) -0.124(9)
H8D H 0.467(11) -0.202(13) -0.043(12)
O8 O 0.2771(6) 0.0315(13) 0.7630(5)
loop_
_geom_bond_atom_site_label_1
_geom_bond_atom_site_label_2
_geom_bond_site_symmetry_1
_geom_bond_site_symmetry_2
O1 C1 1_555 1_555
O2 Zn1 1_555 1_555
O3 C1 1_555 1_555
C1 C4 1_555 1_555
Zn1 O4 1_555 1_555
C2 C3 1_555 1_555
C3 H1 1_555 1_555
O4 C2 1_555 1_555
O5 C2 1_555 1_555
C4 C3 1_555 1_555
H2 C4 1_555 1_555
H3 C4 1_555 1_555
O6 Zn1 1_555 1_555
O7 Zn1 1_555 1_555
H4 O2 1_555 1_555
H5 O2 1_555 1_555
H6 O6 1_555 1_555
H7 O6 1_555 1_555
H8 O7 1_555 1_555
O1D Zn1 1_555 1_555
O2D Zn1D 1_555 1_555
O3D C1D 1_555 1_555
O3B Zn1D 1_555 1_555
O3F Zn1 1_555 1_555
C1D O1D 1_555 1_555
Zn1D O1 1_555 1_555
Zn1B O3D 1_555 1_555
Zn1F O3 1_555 1_555
C2D C3D 1_555 1_555
C3D H1D 1_555 1_555
O4D Zn1D 1_555 1_555
O5D C2D 1_555 1_555
C4D C1D 1_555 1_555
H2D C4D 1_555 1_555
H3D C4D 1_555 1_555
O6D Zn1D 1_555 1_555
O7D Zn1D 1_555 1_555
H4D O2D 1_555 1_555
H5D O2D 1_555 1_555
H6D O6D 1_555 1_555
H7D O6D 1_555 1_555
H8D O7D 1_555 1_555
C3 O7 1_555 1_555
C2D O4D 1_555 1_555
C3D C4D 1_555 1_555
C3D O7D 1_555 1_555

#END
