
#######################################################################
#
#                 Cambridge Crystallographic Data Centre
#                                CCDC 
#
#######################################################################
#
# If this CIF has been generated from an entry in the Cambridge 
# Structural Database, then it will include bibliographic, chemical, 
# crystal, experimental, refinement or atomic coordinate data resulting 
# from the CCDC's data processing and validation procedures.
#
#######################################################################

data_FUHYUD
_symmetry_cell_setting           monoclinic
_symmetry_space_group_name_H-M   'P 21/n'
_symmetry_Int_Tables_number      14
_space_group_name_Hall           '-P 2yn'
loop_
_symmetry_equiv_pos_site_id
_symmetry_equiv_pos_as_xyz
1 x,y,z
2 1/2-x,1/2+y,1/2-z
3 -x,-y,-z
4 1/2+x,1/2-y,1/2+z
_cell_length_a                   10.0835(7)
_cell_length_b                   7.3974(5)
_cell_length_c                   10.5938(7)
_cell_angle_alpha                90
_cell_angle_beta                 93.3600(10)
_cell_angle_gamma                90
_cell_volume                     788.851
loop_
_atom_site_label
_atom_site_type_symbol
_atom_site_fract_x
_atom_site_fract_y
_atom_site_fract_z
Zn1 Zn 0.29167(3) 0.18100(3) 0.41864(2)
C1 C 0.3862(2) 0.3437(3) 0.6694(2)
H1 H 0.4012 0.2703 0.7459
C2 C 0.2388(2) 0.3748(3) 0.6457(2)
C3 C 0.4585(2) 0.5212(3) 0.6879(2)
H2 H 0.4546 0.5870 0.6086
H3 H 0.4143 0.5934 0.7493
C4 C 0.6012(2) 0.4943(3) 0.7328(2)
O1 O 0.43748(17) 0.2497(2) 0.56520(15)
O2 O 0.18625(19) 0.3313(2) 0.53929(18)
O3 O 0.17728(19) 0.4413(2) 0.73097(16)
O4 O 0.68876(18) 0.5933(2) 0.69323(16)
O5 O 0.62385(18) 0.3713(2) 0.81208(16)
O6 O 0.41842(18) 0.0204(2) 0.31283(15)
O7 O 0.2713(2) -0.0602(3) 0.51731(17)
H4 H 0.477(2) 0.065(4) 0.268(2)
H5 H 0.361(2) -0.037(4) 0.266(2)
H6 H 0.282(3) -0.062(4) 0.5969(10)
H7 H 0.203(2) -0.122(4) 0.494(2)
H10 H 0.488(3) 0.168(4) 0.596(3)
Zn1B Zn 0.70833(3) 0.81900(3) 0.58136(2)
Zn1C Zn 0.79167(3) 0.31900(3) 0.91864(2)
O4B O 0.31124(18) 0.4067(2) 0.30677(16)
O5C O 0.12385(18) 0.1287(2) 0.31208(16)
O8 O 0.0894(2) -0.3107(3) 0.4519(3)
H8 H 0.122(3) -0.407(3) 0.481(3)
H9 H 0.0076(13) -0.304(4) 0.465(4)
loop_
_geom_bond_atom_site_label_1
_geom_bond_atom_site_label_2
_geom_bond_site_symmetry_1
_geom_bond_site_symmetry_2
Zn1 O1 1_555 1_555
C1 H1 1_555 1_555
C2 C1 1_555 1_555
C3 C1 1_555 1_555
H2 C3 1_555 1_555
H3 C3 1_555 1_555
C4 C3 1_555 1_555
O1 C1 1_555 1_555
O2 Zn1 1_555 1_555
O3 C2 1_555 1_555
O4 C4 1_555 1_555
O5 C4 1_555 1_555
O6 Zn1 1_555 1_555
O7 Zn1 1_555 1_555
O8 H8 1_555 1_555
H4 O6 1_555 1_555
H5 O6 1_555 1_555
H6 O7 1_555 1_555
H7 O7 1_555 1_555
H9 O8 1_555 1_555
H10 O1 1_555 1_555
Zn1B O4 1_555 1_555
Zn1C O5 1_555 1_555
O4B Zn1 1_555 1_555
O5C Zn1 1_555 1_555
C2 O2 1_555 1_555

#END
