
#######################################################################
#
#                 Cambridge Crystallographic Data Centre
#                                CCDC 
#
#######################################################################
#
# If this CIF has been generated from an entry in the Cambridge 
# Structural Database, then it will include bibliographic, chemical, 
# crystal, experimental, refinement or atomic coordinate data resulting 
# from the CCDC's data processing and validation procedures.
#
#######################################################################

data_FUHZEP
_symmetry_cell_setting           monoclinic
_symmetry_space_group_name_H-M   'P 21/c'
_symmetry_Int_Tables_number      14
_space_group_name_Hall           '-P 2ybc'
loop_
_symmetry_equiv_pos_site_id
_symmetry_equiv_pos_as_xyz
1 x,y,z
2 -x,1/2+y,1/2-z
3 -x,-y,-z
4 x,1/2-y,1/2+z
_cell_length_a                   15.537(3)
_cell_length_b                   8.6483(17)
_cell_length_c                   24.671(8)
_cell_angle_alpha                90
_cell_angle_beta                 115.87(2)
_cell_angle_gamma                90
_cell_volume                     2982.8
loop_
_atom_site_label
_atom_site_type_symbol
_atom_site_fract_x
_atom_site_fract_y
_atom_site_fract_z
O1 O 0.3089(2) 1.1338(3) 0.79816(14)
O2 O 0.4593(2) 1.1634(3) 0.81572(14)
C1 C 0.3952(3) 1.0912(5) 0.82456(19)
H1 H 0.2019 1.0910 1.0203
H2 H 0.2971 1.1040 1.0214
O3 O 0.2496(2) 1.0495(4) 1.01752(17)
Tb1 Tb 0.630978(14) 0.86802(2) 0.749171(9)
Tb2 Tb 0.857954(15) 0.64536(2) 0.743477(9)
Mn1 Mn 0.24864(5) 0.79881(10) 1.00052(3)
S1 S 0.73368(8) 0.96998(13) 0.64862(5)
S2 S 0.75991(8) 0.55083(13) 0.84673(5)
O4 O 0.6428(2) 0.9270(4) 0.85819(14)
O5 O 0.5094(2) 0.8433(3) 0.78507(14)
O6 O 0.4783(2) 0.9769(4) 0.67501(14)
H3 H 0.4443 0.9268 0.6431
H4 H 0.4596 1.0646 0.6813
O7 O 0.6354(2) 1.1395(4) 0.76311(16)
H5 H 0.6247 1.1995 0.7336
O8 O 0.7410(2) 0.3855(3) 0.83214(15)
O9 O 0.7865(2) 0.5759(4) 0.91070(14)
O10 O 0.8382(2) 0.6017(3) 0.83240(13)
O11 O 0.6716(2) 0.6405(3) 0.81086(14)
O12 O 0.8230(3) 0.3750(3) 0.74420(15)
H6 H 0.8122 0.3383 0.7726
H7 H 0.8212 0.3162 0.7161
O13 O 1.0067(2) 0.5243(4) 0.80886(15)
H8 H 1.0446 0.5693 0.8411
H9 H 1.0214 0.4365 0.7998
O14 O 0.6550(2) 0.9531(4) 0.66626(14)
O15 O 0.6922(2) 0.9756(4) 0.58222(14)
O16 O 0.7881(3) 1.1127(4) 0.67368(15)
O17 O 0.7998(2) 0.8382(4) 0.67065(15)
O18 O 0.9362(2) 0.8626(3) 0.80131(14)
O19 O 0.7914(2) 0.9079(4) 0.79362(13)
O20 O 1.0148(2) 1.2075(4) 0.78830(13)
O21 O 1.1261(2) 1.0453(4) 0.84443(14)
O22 O 0.3251(2) 0.7650(4) 1.09808(14)
H10 H 0.2941 0.7568 1.1190
H11 H 0.3859 0.7601 1.1150
O23 O 0.2414(2) 0.5448(5) 0.99736(15)
H12 H 0.1926 0.4988 0.9967
H13 H 0.2874 0.4927 0.9968
O24 O 0.1761(2) 0.7861(4) 0.90591(14)
H14 H 0.1153 0.7829 0.8885
H15 H 0.2077 0.7842 0.8851
N1 N 0.5263(3) 0.6822(5) 1.01831(18)
N2 N 0.3912(3) 0.8027(4) 1.00012(17)
N3 N 0.8953(3) 1.2034(5) 1.00008(17)
N4 N 1.0344(3) 1.3124(5) 1.02075(19)
C2 C 0.4571(3) 0.7091(5) 1.0355(2)
H16 H 0.4563 0.6648 1.0696
C3 C 0.5043(3) 0.7662(5) 0.96705(19)
C4 C 0.4193(3) 0.8433(5) 0.9553(2)
C5 C 0.3790(3) 0.9449(5) 0.90653(19)
H17 H 0.3224 0.9972 0.8986
C6 C 0.4260(3) 0.9657(5) 0.86997(19)
C7 C 0.5106(3) 0.8791(5) 0.88105(19)
C8 C 0.5508(3) 0.7793(5) 0.9300(2)
H18 H 0.6062 0.7238 0.9376
C9 C 0.5570(3) 0.8872(5) 0.8392(2)
C10 C 0.8806(3) 0.9361(5) 0.81659(19)
C11 C 0.9213(3) 1.0506(5) 0.86628(19)
C12 C 0.8766(3) 1.0724(5) 0.90352(19)
H19 H 0.8179 1.0263 0.8948
C13 C 0.9221(3) 1.1655(5) 0.9547(2)
C14 C 1.0096(3) 1.2341(5) 0.96735(19)
C15 C 1.0544(3) 1.2198(5) 0.9292(2)
H20 H 1.1116 1.2703 0.9374
C16 C 1.0096(3) 1.1269(5) 0.8787(2)
C17 C 1.0519(3) 1.1224(5) 0.8342(2)
C18 C 0.9642(3) 1.2878(6) 1.0373(2)
H21 H 0.9648 1.3282 1.0724
H22 H 0.679(4) 1.191(6) 0.785(2)
H23 H 0.565(4) 0.635(5) 1.033(2)
H24 H 1.075(4) 1.356(5) 1.034(2)
O1A O 0.6911(2) 0.6338(3) 0.70184(14)
O2A O 0.5407(2) 0.6634(3) 0.68428(14)
Tb1A Tb 0.369022(14) 1.36802(2) 0.750829(9)
Tb2A Tb 0.142046(15) 1.14536(2) 0.756523(9)
Tb2A_2 Tb 1.142046(15) 1.14536(2) 0.756523(9)
Mn1B Mn 0.75136(5) 1.20119(10) 0.99948(3)
O20A O 0.9852(2) 0.7075(4) 0.71170(13)
O21A O 0.8739(2) 0.5453(4) 0.65557(14)
N3B N 0.1047(3) 0.7966(5) 0.99992(17)
loop_
_geom_bond_atom_site_label_1
_geom_bond_atom_site_label_2
_geom_bond_site_symmetry_1
_geom_bond_site_symmetry_2
O1 C1 1_555 1_555
O2 C1 1_555 1_555
C1 C6 1_555 1_555
H1 O3 1_555 1_555
H2 O3 1_555 1_555
O3 Mn1 1_555 1_555
Tb1 O4 1_555 1_555
Tb2 O10 1_555 1_555
Mn1 O22 1_555 1_555
S1 O14 1_555 1_555
S2 O8 1_555 1_555
O4 C9 1_555 1_555
O5 Tb1 1_555 1_555
O6 Tb1 1_555 1_555
H3 O6 1_555 1_555
H4 O6 1_555 1_555
O7 Tb1 1_555 1_555
H5 O7 1_555 1_555
O9 S2 1_555 1_555
O10 S2 1_555 1_555
O11 Tb1 1_555 1_555
O12 Tb2 1_555 1_555
H6 O12 1_555 1_555
H7 O12 1_555 1_555
O13 Tb2 1_555 1_555
H8 O13 1_555 1_555
H9 O13 1_555 1_555
O14 Tb1 1_555 1_555
O15 S1 1_555 1_555
O16 S1 1_555 1_555
O17 Tb2 1_555 1_555
O18 Tb2 1_555 1_555
O19 Tb1 1_555 1_555
O20 C17 1_555 1_555
O21 C17 1_555 1_555
O22 H10 1_555 1_555
H11 O22 1_555 1_555
O23 Mn1 1_555 1_555
H12 O23 1_555 1_555
H13 O23 1_555 1_555
O24 Mn1 1_555 1_555
H14 O24 1_555 1_555
H15 O24 1_555 1_555
N1 C2 1_555 1_555
N2 Mn1 1_555 1_555
N3 C13 1_555 1_555
N4 C14 1_555 1_555
C2 N2 1_555 1_555
H16 C2 1_555 1_555
C3 N1 1_555 1_555
C4 N2 1_555 1_555
C5 C4 1_555 1_555
H17 C5 1_555 1_555
C6 C5 1_555 1_555
C7 C6 1_555 1_555
C8 C3 1_555 1_555
H18 C8 1_555 1_555
C9 O5 1_555 1_555
C10 O18 1_555 1_555
C11 C10 1_555 1_555
C12 C11 1_555 1_555
H19 C12 1_555 1_555
C13 C12 1_555 1_555
C14 C13 1_555 1_555
C15 C14 1_555 1_555
H20 C15 1_555 1_555
C16 C11 1_555 1_555
C17 C16 1_555 1_555
C18 N3 1_555 1_555
H21 C18 1_555 1_555
H22 O7 1_555 1_555
H23 N1 1_555 1_555
H24 N4 1_555 1_555
O1A Tb1 1_555 1_555
O2A Tb1 1_555 1_555
Tb1A O1 1_555 1_555
Tb2A O1 1_555 1_555
Tb2A_2 O20 1_555 1_555
Mn1B N3 1_555 1_555
O20A Tb2 1_555 1_555
O21A Tb2 1_555 1_555
N3B Mn1 1_555 1_555
O2 Tb1A 1_555 1_555
Tb2 O1A 1_555 1_555
S1 O17 1_555 1_555
S2 O11 1_555 1_555
O19 C10 1_555 1_555
O21 Tb2A_2 1_555 1_555
N4 C18 1_555 1_555
C3 C4 1_555 1_555
C7 C8 1_555 1_555
C7 C9 1_555 1_555
C15 C16 1_555 1_555

#END
