
#######################################################################
#
#                 Cambridge Crystallographic Data Centre
#                                CCDC 
#
#######################################################################
#
# If this CIF has been generated from an entry in the Cambridge 
# Structural Database, then it will include bibliographic, chemical, 
# crystal, experimental, refinement or atomic coordinate data resulting 
# from the CCDC's data processing and validation procedures.
#
#######################################################################

data_FUHZEO
_symmetry_cell_setting           triclinic
_symmetry_space_group_name_H-M   'P -1'
_symmetry_Int_Tables_number      2
_space_group_name_Hall           '-P 1'
loop_
_symmetry_equiv_pos_site_id
_symmetry_equiv_pos_as_xyz
1 x,y,z
2 -x,-y,-z
_cell_length_a                   10.157(2)
_cell_length_b                   10.194(2)
_cell_length_c                   22.025(5)
_cell_angle_alpha                80.813(2)
_cell_angle_beta                 79.984(3)
_cell_angle_gamma                83.901(2)
_cell_volume                     2209.68
loop_
_atom_site_label
_atom_site_type_symbol
_atom_site_fract_x
_atom_site_fract_y
_atom_site_fract_z
Cu1 Cu 1.07289(10) 0.59117(10) 0.79098(4)
Cu2 Cu 0.91229(10) 0.43404(10) 0.70780(4)
Cl1 Cl 1.3409(2) 0.4461(3) 0.46942(11)
Cl2 Cl 1.3260(2) 0.4742(3) 0.61006(10)
Cl3 Cl 0.9163(2) 0.8521(2) 0.59270(11)
Cl4 Cl 0.9268(3) 0.8178(3) 0.45298(11)
Cl5 Cl 1.0444(3) 0.1632(2) 0.89964(10)
Cl6 Cl 1.0481(3) 0.1761(2) 1.03998(11)
Cl7 Cl 0.6635(3) 0.5807(3) 1.03773(11)
Cl8 Cl 0.6617(2) 0.5716(3) 0.89610(11)
O1 O 1.0509(6) 0.6024(6) 0.7030(2)
O2 O 1.1899(7) 0.7639(7) 0.6720(3)
O3 O 1.2226(7) 0.7103(7) 0.3628(3)
O4 O 1.0867(6) 0.5457(6) 0.3821(3)
O5 O 0.9277(6) 0.4274(5) 0.7967(2)
O6 O 0.7726(7) 0.2817(6) 0.8256(3)
O7 O 0.7706(7) 0.2916(7) 1.1364(3)
O8 O 0.9217(6) 0.4413(6) 1.1197(3)
O9 O 1.0513(7) 0.2866(7) 0.6966(3)
O10 O 1.2433(6) 0.4824(6) 0.7701(3)
O11 O 0.9363(6) 0.7400(7) 0.8077(3)
O12 O 0.7479(6) 0.5550(6) 0.7240(3)
N1 N 1.1627(8) 0.0920(8) 0.7288(4)
N2 N 1.4000(7) 0.3180(8) 0.7956(4)
N3 N 0.7963(8) 0.9188(8) 0.7835(4)
N4 N 0.5829(7) 0.7036(8) 0.6943(4)
C2 C 1.1228(8) 0.6611(8) 0.5945(4)
C3 C 1.2154(8) 0.5692(9) 0.5655(4)
C4 C 1.2193(9) 0.5555(9) 0.5045(4)
C5 C 1.1355(9) 0.6348(8) 0.4672(4)
C6 C 1.0378(9) 0.7215(8) 0.4965(4)
C7 C 1.0335(8) 0.7369(8) 0.5589(4)
C8 C 1.1244(8) 0.6793(8) 0.6611(4)
C9 C 1.1499(8) 0.6306(9) 0.3986(4)
C10 C 0.8533(8) 0.3685(8) 0.9042(4)
C11 C 0.7704(8) 0.4625(8) 0.9359(4)
C12 C 0.7716(9) 0.4670(9) 0.9983(4)
C13 C 0.8546(8) 0.3764(8) 1.0323(4)
C14 C 0.9412(8) 0.2872(8) 1.0002(4)
C15 C 0.9386(8) 0.2804(8) 0.9378(4)
C16 C 0.8472(9) 0.3568(8) 0.8370(4)
C17 C 0.8469(9) 0.3683(9) 1.1016(4)
C18 C 1.1770(11) -0.0234(10) 0.7756(5)
H5 H 1.1032 -0.0205 0.8092
H6 H 1.2596 -0.0233 0.7911
H7 H 1.1777 -0.1031 0.7574
C19 C 1.2672(11) 0.1005(11) 0.6746(6)
H8 H 1.2511 0.1819 0.6473
H9 H 1.2670 0.0259 0.6530
H10 H 1.3528 0.0995 0.6876
C20 C 1.0638(10) 0.1856(9) 0.7356(4)
H11 H 0.9999 0.1755 0.7714
C21 C 1.4386(12) 0.2076(12) 0.8423(6)
H12 H 1.3718 0.2041 0.8790
H13 H 1.5235 0.2215 0.8527
H14 H 1.4457 0.1252 0.8257
C22 C 1.4954(10) 0.3463(11) 0.7385(5)
H15 H 1.5824 0.3524 0.7487
H16 H 1.4667 0.4293 0.7153
H17 H 1.4999 0.2760 0.7138
C23 C 1.2823(10) 0.3894(9) 0.8081(5)
H18 H 1.2282 0.3686 0.8464
C24 C 0.5285(11) 0.7914(10) 0.6434(5)
H19 H 0.5799 0.7739 0.6042
H20 H 0.5334 0.8828 0.6480
H21 H 0.4367 0.7750 0.6446
C25 C 0.5086(12) 0.7070(13) 0.7567(5)
H22 H 0.5467 0.6383 0.7852
H23 H 0.4166 0.6925 0.7571
H24 H 0.5133 0.7923 0.7690
C26 C 0.6957(9) 0.6285(9) 0.6819(4)
H25 H 0.7374 0.6302 0.6408
C27 C 0.7504(13) 1.0183(13) 0.7341(6)
H26 H 0.6603 1.0044 0.7305
H27 H 0.8082 1.0096 0.6953
H28 H 0.7528 1.1061 0.7443
C28 C 0.7387(11) 0.9347(11) 0.8468(5)
H29 H 0.7743 0.8632 0.8749
H30 H 0.6431 0.9333 0.8520
H31 H 0.7606 1.0183 0.8557
C29 C 0.8899(10) 0.8223(10) 0.7684(5)
H32 H 0.9210 0.8172 0.7265
Cu1A Cu 0.92711(10) 0.40883(10) 1.20902(4)
Cu2A Cu 1.08771(10) 0.56596(10) 0.29220(4)
O4A O 0.9133(6) 0.4543(6) 0.6179(3)
O8A O 1.0783(6) 0.5587(6) 0.8803(3)
O13 O 0.5939(8) 0.1242(8) 0.6158(3)
H1 H 0.6438 0.1776 0.6216
C30 C 0.6526(12) 0.0902(13) 0.5092(6)
H33 H 0.7394 0.1235 0.5041
H34 H 0.6213 0.1044 0.4698
H35 H 0.6588 -0.0035 0.5246
C31 C 0.5585(12) 0.1605(13) 0.5537(6)
H36 H 0.5609 0.2559 0.5411
H37 H 0.4681 0.1374 0.5540
C1 C 0.6680(17) 0.0681(17) 0.0074(5)
H2 H 0.7517 0.0543 0.0231
H3 H 0.6830 0.1068 -0.0356
H4 H 0.6302 -0.0159 0.0113
O14 O 0.5933(9) 0.1246(9) 0.1121(4)
H38 H 0.6461 0.1734 0.1194
C32 C 0.5757(14) 0.1575(15) 0.0431(6)
H39 H 0.4841 0.1466 0.0389
H40 H 0.5941 0.2493 0.0275
loop_
_geom_bond_atom_site_label_1
_geom_bond_atom_site_label_2
_geom_bond_site_symmetry_1
_geom_bond_site_symmetry_2
Cu1 O1 1_555 1_555
Cu2 O1 1_555 1_555
Cl1 C4 1_555 1_555
Cl2 C3 1_555 1_555
Cl3 C7 1_555 1_555
Cl4 C6 1_555 1_555
Cl5 C15 1_555 1_555
Cl6 C14 1_555 1_555
Cl7 C12 1_555 1_555
Cl8 C11 1_555 1_555
O1 C8 1_555 1_555
O2 C8 1_555 1_555
O3 C9 1_555 1_555
O4 C9 1_555 1_555
O5 Cu1 1_555 1_555
O6 C16 1_555 1_555
O7 C17 1_555 1_555
O8 C17 1_555 1_555
O9 Cu2 1_555 1_555
O10 Cu1 1_555 1_555
O11 Cu1 1_555 1_555
O12 Cu2 1_555 1_555
O13 H1 1_555 1_555
C1 H2 1_555 1_555
H3 C1 1_555 1_555
H4 C1 1_555 1_555
N1 C18 1_555 1_555
N2 C21 1_555 1_555
N3 C27 1_555 1_555
N4 C24 1_555 1_555
C2 C3 1_555 1_555
C3 C4 1_555 1_555
C4 C5 1_555 1_555
C5 C6 1_555 1_555
C6 C7 1_555 1_555
C7 C2 1_555 1_555
C8 C2 1_555 1_555
C9 C5 1_555 1_555
C10 C11 1_555 1_555
C11 C12 1_555 1_555
C12 C13 1_555 1_555
C13 C14 1_555 1_555
C14 C15 1_555 1_555
C15 C10 1_555 1_555
C16 O5 1_555 1_555
C17 C13 1_555 1_555
C18 H5 1_555 1_555
H6 C18 1_555 1_555
H7 C18 1_555 1_555
C19 N1 1_555 1_555
H8 C19 1_555 1_555
H9 C19 1_555 1_555
H10 C19 1_555 1_555
C20 O9 1_555 1_555
H11 C20 1_555 1_555
C21 H12 1_555 1_555
H13 C21 1_555 1_555
H14 C21 1_555 1_555
C22 N2 1_555 1_555
H15 C22 1_555 1_555
H16 C22 1_555 1_555
H17 C22 1_555 1_555
C23 O10 1_555 1_555
H18 C23 1_555 1_555
C24 H19 1_555 1_555
H20 C24 1_555 1_555
H21 C24 1_555 1_555
C25 N4 1_555 1_555
H22 C25 1_555 1_555
H23 C25 1_555 1_555
H24 C25 1_555 1_555
C26 O12 1_555 1_555
H25 C26 1_555 1_555
C27 H26 1_555 1_555
H27 C27 1_555 1_555
H28 C27 1_555 1_555
C28 N3 1_555 1_555
H29 C28 1_555 1_555
H30 C28 1_555 1_555
H31 C28 1_555 1_555
C29 O11 1_555 1_555
H32 C29 1_555 1_555
C30 H33 1_555 1_555
H34 C30 1_555 1_555
H35 C30 1_555 1_555
C31 O13 1_555 1_555
H36 C31 1_555 1_555
H37 C31 1_555 1_555
O14 H38 1_555 1_555
C32 C1 1_555 1_555
H39 C32 1_555 1_555
H40 C32 1_555 1_555
Cu1A O8 1_555 1_555
Cu2A O4 1_555 1_555
O4A Cu2 1_555 1_555
O8A Cu1 1_555 1_555
Cu2 O5 1_555 1_555
N1 C20 1_555 1_555
N2 C23 1_555 1_555
N3 C29 1_555 1_555
N4 C26 1_555 1_555
C10 C16 1_555 1_555
C30 C31 1_555 1_555
O14 C32 1_555 1_555

#END
