
#######################################################################
#
#                 Cambridge Crystallographic Data Centre
#                                CCDC 
#
#######################################################################
#
# If this CIF has been generated from an entry in the Cambridge 
# Structural Database, then it will include bibliographic, chemical, 
# crystal, experimental, refinement or atomic coordinate data resulting 
# from the CCDC's data processing and validation procedures.
#
#######################################################################

data_FUJBET
_symmetry_cell_setting           monoclinic
_symmetry_space_group_name_H-M   'P 21/c'
_symmetry_Int_Tables_number      14
_space_group_name_Hall           '-P 2ybc'
loop_
_symmetry_equiv_pos_site_id
_symmetry_equiv_pos_as_xyz
1 x,y,z
2 -x,1/2+y,1/2-z
3 -x,-y,-z
4 x,1/2-y,1/2+z
_cell_length_a                   8.720(2)
_cell_length_b                   18.960(5)
_cell_length_c                   12.413(3)
_cell_angle_alpha                90
_cell_angle_beta                 102.200(3)
_cell_angle_gamma                90
_cell_volume                     2005.91
loop_
_atom_site_label
_atom_site_type_symbol
_atom_site_fract_x
_atom_site_fract_y
_atom_site_fract_z
Zn1 Zn 0.13335(7) 0.59863(3) 0.66402(5)
Cl1 Cl -0.05276(17) 0.57384(9) 0.76114(12)
N1 N 0.0511(5) 0.7054(2) 0.6033(3)
N2 N 0.1935(5) 0.6100(2) 0.5105(3)
N3 N 0.1773(5) 0.4920(2) 0.6115(3)
O1 O 0.3137(4) 0.6306(2) -0.2184(3)
O2 O 0.4834(5) 0.5697(2) -0.2923(3)
O3 O 0.5537(4) 0.68456(19) -0.0577(3)
C1 C -0.0377(6) 0.7491(3) 0.6490(4)
H1 H -0.0755 0.7336 0.7096
C2 C -0.0750(7) 0.8161(3) 0.6095(5)
H2 H -0.1416 0.8442 0.6406
C3 C -0.0124(6) 0.8415(3) 0.5228(5)
H3 H -0.0314 0.8875 0.4977
C4 C 0.0783(6) 0.7967(3) 0.4751(4)
H4 H 0.1206 0.8118 0.4163
C5 C 0.1056(6) 0.7290(3) 0.5159(4)
C6 C 0.1876(6) 0.6737(3) 0.4636(4)
C7 C 0.2486(6) 0.6850(3) 0.3711(4)
H5 H 0.2471 0.7301 0.3414
C8 C 0.3124(6) 0.6292(3) 0.3221(4)
C9 C 0.3121(5) 0.5626(3) 0.3711(4)
H6 H 0.3512 0.5236 0.3403
C10 C 0.2536(5) 0.5554(3) 0.4654(4)
C11 C 0.2460(6) 0.4871(3) 0.5253(4)
C12 C 0.3024(6) 0.4235(3) 0.4940(4)
H7 H 0.3494 0.4214 0.4335
C13 C 0.2880(6) 0.3636(3) 0.5535(4)
H8 H 0.3281 0.3208 0.5352
C14 C 0.2130(6) 0.3680(3) 0.6407(4)
H9 H 0.1987 0.3280 0.6808
C15 C 0.1599(7) 0.4325(3) 0.6672(5)
H10 H 0.1098 0.4354 0.7262
C16 C 0.3769(6) 0.6406(3) 0.2230(4)
C17 C 0.4352(6) 0.7065(3) 0.2014(4)
H11 H 0.4345 0.7429 0.2516
C18 C 0.4937(6) 0.7195(3) 0.1086(4)
H12 H 0.5326 0.7639 0.0969
C19 C 0.4941(6) 0.6656(3) 0.0325(4)
C20 C 0.4363(7) 0.5997(3) 0.0510(4)
H13 H 0.4359 0.5635 0.0004
C21 C 0.3794(7) 0.5880(3) 0.1447(4)
H14 H 0.3412 0.5435 0.1563
C22 C 0.5856(6) 0.6312(3) -0.1312(4)
H15 H 0.6247 0.5899 -0.0879
H16 H 0.6690 0.6479 -0.1654
C23 C 0.4487(6) 0.6085(3) -0.2220(4)
Zn1_2 Zn 0.13335(7) 0.59863(3) -0.33598(5)
O1_2 O 0.3137(4) 0.6306(2) 0.7816(3)
O4 O 0.831(3) 0.9916(12) 0.560(2)
loop_
_geom_bond_atom_site_label_1
_geom_bond_atom_site_label_2
_geom_bond_site_symmetry_1
_geom_bond_site_symmetry_2
Zn1 Cl1 1_555 1_555
N1 Zn1 1_555 1_555
N2 Zn1 1_555 1_555
N3 Zn1 1_555 1_555
O1 C23 1_555 1_555
O2 C23 1_555 1_555
O3 C19 1_555 1_555
C1 N1 1_555 1_555
H1 C1 1_555 1_555
C2 C1 1_555 1_555
H2 C2 1_555 1_555
C3 C2 1_555 1_555
H3 C3 1_555 1_555
C4 C3 1_555 1_555
H4 C4 1_555 1_555
C5 N1 1_555 1_555
C6 N2 1_555 1_555
C7 C6 1_555 1_555
H5 C7 1_555 1_555
C8 C7 1_555 1_555
C9 C8 1_555 1_555
H6 C9 1_555 1_555
C10 N2 1_555 1_555
C11 N3 1_555 1_555
C12 C11 1_555 1_555
H7 C12 1_555 1_555
C13 C12 1_555 1_555
H8 C13 1_555 1_555
C14 C13 1_555 1_555
H9 C14 1_555 1_555
C15 N3 1_555 1_555
H10 C15 1_555 1_555
C16 C8 1_555 1_555
C17 C16 1_555 1_555
H11 C17 1_555 1_555
C18 C17 1_555 1_555
H12 C18 1_555 1_555
C19 C18 1_555 1_555
C20 C19 1_555 1_555
H13 C20 1_555 1_555
C21 C16 1_555 1_555
H14 C21 1_555 1_555
C22 O3 1_555 1_555
H15 C22 1_555 1_555
H16 C22 1_555 1_555
C23 C22 1_555 1_555
Zn1_2 O1 1_555 1_555
O1_2 Zn1 1_555 1_555
C4 C5 1_555 1_555
C5 C6 1_555 1_555
C9 C10 1_555 1_555
C10 C11 1_555 1_555
C14 C15 1_555 1_555
C20 C21 1_555 1_555

#END
