
#######################################################################
#
#                 Cambridge Crystallographic Data Centre
#                                CCDC 
#
#######################################################################
#
# If this CIF has been generated from an entry in the Cambridge 
# Structural Database, then it will include bibliographic, chemical, 
# crystal, experimental, refinement or atomic coordinate data resulting 
# from the CCDC's data processing and validation procedures.
#
#######################################################################

data_FUJBOD
_symmetry_cell_setting           monoclinic
_symmetry_space_group_name_H-M   'P 21/c'
_symmetry_Int_Tables_number      14
_space_group_name_Hall           '-P 2ybc'
loop_
_symmetry_equiv_pos_site_id
_symmetry_equiv_pos_as_xyz
1 x,y,z
2 -x,1/2+y,1/2-z
3 -x,-y,-z
4 x,1/2-y,1/2+z
_cell_length_a                   7.7365(11)
_cell_length_b                   24.250(3)
_cell_length_c                   13.3473(18)
_cell_angle_alpha                90
_cell_angle_beta                 93.451(2)
_cell_angle_gamma                90
_cell_volume                     2499.55
loop_
_atom_site_label
_atom_site_type_symbol
_atom_site_fract_x
_atom_site_fract_y
_atom_site_fract_z
Zn1 Zn 0.99817(5) 0.402689(14) 1.24294(2)
N1 N 1.1099(3) 0.32125(10) 1.22023(17)
N2 N 0.9453(3) 0.38687(10) 1.09129(16)
N3 N 0.8712(4) 0.47774(10) 1.18323(17)
O1 O 0.7828(3) 0.38029(9) 0.30985(15)
O2 O 0.9181(3) 0.32736(10) 0.42658(16)
O3 O 0.6147(3) 0.29612(8) 0.50246(14)
O4 O 1.1655(3) 0.43459(10) 1.34665(16)
O5 O 1.2853(3) 0.45637(11) 1.20763(16)
C1 C 1.1949(4) 0.29015(14) 1.2898(2)
H1 H 1.2150 0.3045 1.3541
C2 C 1.2539(5) 0.23808(15) 1.2708(3)
H2 H 1.3130 0.2176 1.3209
C3 C 1.2233(5) 0.21699(15) 1.1757(3)
H3 H 1.2627 0.1819 1.1604
C4 C 1.1348(5) 0.24774(13) 1.1036(2)
H4 H 1.1114 0.2335 1.0395
C5 C 1.0806(4) 0.30021(12) 1.1271(2)
C6 C 0.9843(4) 0.33725(12) 1.0544(2)
C7 C 0.9359(4) 0.32284(13) 0.9566(2)
H5 H 0.9630 0.2881 0.9324
C8 C 0.8462(4) 0.36067(12) 0.8945(2)
C9 C 0.8108(4) 0.41224(12) 0.9337(2)
H6 H 0.7539 0.4388 0.8936
C10 C 0.8603(4) 0.42395(12) 1.0326(2)
C11 C 0.8212(4) 0.47651(12) 1.0853(2)
C12 C 0.7384(5) 0.52066(13) 1.0380(2)
H7 H 0.7062 0.5193 0.9698
C13 C 0.7044(6) 0.56655(15) 1.0936(3)
H8 H 0.6480 0.5966 1.0634
C14 C 0.7538(6) 0.56790(15) 1.1939(3)
H9 H 0.7307 0.5986 1.2326
C15 C 0.8381(5) 0.52297(13) 1.2359(2)
H10 H 0.8737 0.5241 1.3037
C16 C 0.7877(4) 0.34512(12) 0.7901(2)
C17 C 0.7472(5) 0.29051(13) 0.7657(2)
H11 H 0.7584 0.2636 0.8154
C18 C 0.6910(5) 0.27544(13) 0.6696(2)
H12 H 0.6650 0.2388 0.6550
C19 C 0.6734(4) 0.31506(12) 0.5949(2)
C20 C 0.7155(5) 0.36922(13) 0.6168(2)
H13 H 0.7063 0.3958 0.5666
C21 C 0.7713(5) 0.38391(13) 0.7137(2)
H14 H 0.7985 0.4206 0.7278
C22 C 0.6106(4) 0.33345(13) 0.4198(2)
H15 H 0.5545 0.3673 0.4391
H16 H 0.5409 0.3175 0.3644
C23 C 0.7878(4) 0.34735(12) 0.3844(2)
C24 C 1.2869(4) 0.45607(13) 1.3003(2)
C25 C 1.4382(4) 0.48177(13) 1.3606(2)
H17 H 1.4565 0.5185 1.3344
H18 H 1.5410 0.4603 1.3493
C26 C 1.4218(4) 0.48646(13) 1.4737(2)
H19 H 1.3193 0.5078 1.4863
H20 H 1.4072 0.4499 1.5015
O4B O 1.8345(3) 0.56541(10) 1.65335(16)
O5B O 1.7147(3) 0.54363(11) 1.79237(16)
C24B C 1.7131(4) 0.54393(13) 1.6997(2)
C25B C 1.5618(4) 0.51823(13) 1.6394(2)
H17B H 1.5435 0.4815 1.6656
H18B H 1.4590 0.5397 1.6507
C26B C 1.5782(4) 0.51354(13) 1.5263(2)
H19B H 1.6807 0.4922 1.5137
H20B H 1.5928 0.5501 1.4985
Zn1B Zn 2.00183(5) 0.597311(14) 1.75706(2)
N1B N 1.8901(3) 0.67875(10) 1.77977(17)
N2B N 2.0547(3) 0.61313(10) 1.90871(16)
N3B N 2.1288(4) 0.52226(10) 1.81677(17)
O1B O 2.2172(3) 0.61971(9) 2.69015(15)
O2B O 2.0819(3) 0.67264(10) 2.57342(16)
O3B O 2.3853(3) 0.70388(8) 2.49754(14)
C1B C 1.8051(4) 0.70985(14) 1.7102(2)
H1B H 1.7850 0.6955 1.6459
C2B C 1.7461(5) 0.76192(15) 1.7292(3)
H2B H 1.6870 0.7824 1.6791
C3B C 1.7767(5) 0.78301(15) 1.8243(3)
H3B H 1.7373 0.8181 1.8396
C4B C 1.8652(5) 0.75226(13) 1.8964(2)
H4B H 1.8886 0.7665 1.9605
C5B C 1.9194(4) 0.69979(12) 1.8729(2)
C6B C 2.0157(4) 0.66275(12) 1.9456(2)
C7B C 2.0641(4) 0.67716(13) 2.0434(2)
H5B H 2.0370 0.7119 2.0676
C8B C 2.1538(4) 0.63933(12) 2.1055(2)
C9B C 2.1892(4) 0.58776(12) 2.0663(2)
H6B H 2.2461 0.5612 2.1064
C10B C 2.1397(4) 0.57605(12) 1.9674(2)
C11B C 2.1788(4) 0.52349(12) 1.9147(2)
C12B C 2.2616(5) 0.47934(13) 1.9620(2)
H7B H 2.2938 0.4807 2.0302
C13B C 2.2956(6) 0.43345(15) 1.9064(3)
H8B H 2.3520 0.4034 1.9366
C14B C 2.2462(6) 0.43210(15) 1.8061(3)
H9B H 2.2693 0.4014 1.7674
C15B C 2.1619(5) 0.47703(13) 1.7641(2)
H10B H 2.1263 0.4759 1.6963
C16B C 2.2123(4) 0.65488(12) 2.2099(2)
C17B C 2.2528(5) 0.70949(13) 2.2343(2)
H11B H 2.2416 0.7364 2.1846
C18B C 2.3090(5) 0.72456(13) 2.3304(2)
H12B H 2.3350 0.7612 2.3450
C19B C 2.3266(4) 0.68494(12) 2.4051(2)
C20B C 2.2845(5) 0.63078(13) 2.3832(2)
H13B H 2.2937 0.6042 2.4334
C21B C 2.2287(5) 0.61609(13) 2.2863(2)
H14B H 2.2015 0.5794 2.2722
C22B C 2.3894(4) 0.66655(13) 2.5802(2)
H15B H 2.4455 0.6327 2.5609
H16B H 2.4591 0.6825 2.6356
C23B C 2.2122(4) 0.65265(12) 2.6156(2)
Zn1_2 Zn 0.99817(5) 0.402689(14) 0.24294(2)
Zn1B_2 Zn 2.00183(5) 0.597311(14) 2.75706(2)
O1_2 O 0.7828(3) 0.38029(9) 1.30985(15)
O1B_2 O 2.2172(3) 0.61971(9) 1.69015(15)
O6 O 0.4573(5) 0.18736(12) 0.4776(2)
H21 H 0.5015 0.2215 0.4863
H22 H 0.4662 0.1658 0.5354
O7 O 0.1149(6) 0.40530(18) 0.5526(3)
H23 H 0.1830 0.3939 0.5069
H24 H 0.0396 0.3789 0.5502
O8 O 0.5179(4) 0.37312(14) 0.1499(2)
H25 H 0.4482 0.3986 0.1606
H26 H 0.5843 0.3736 0.2028
loop_
_geom_bond_atom_site_label_1
_geom_bond_atom_site_label_2
_geom_bond_site_symmetry_1
_geom_bond_site_symmetry_2
Zn1 N1 1_555 1_555
N1 C1 1_555 1_555
N2 Zn1 1_555 1_555
N3 Zn1 1_555 1_555
O1 C23 1_555 1_555
O2 C23 1_555 1_555
O3 C19 1_555 1_555
O4 Zn1 1_555 1_555
O5 C24 1_555 1_555
C1 H1 1_555 1_555
C2 C1 1_555 1_555
H2 C2 1_555 1_555
C3 C2 1_555 1_555
H3 C3 1_555 1_555
C4 C3 1_555 1_555
H4 C4 1_555 1_555
C5 N1 1_555 1_555
C6 N2 1_555 1_555
C7 C6 1_555 1_555
H5 C7 1_555 1_555
C8 C7 1_555 1_555
C9 C8 1_555 1_555
H6 C9 1_555 1_555
C10 N2 1_555 1_555
C11 N3 1_555 1_555
C12 C11 1_555 1_555
H7 C12 1_555 1_555
C13 C12 1_555 1_555
H8 C13 1_555 1_555
C14 C13 1_555 1_555
H9 C14 1_555 1_555
C15 N3 1_555 1_555
H10 C15 1_555 1_555
C16 C8 1_555 1_555
C17 C16 1_555 1_555
H11 C17 1_555 1_555
C18 C17 1_555 1_555
H12 C18 1_555 1_555
C19 C18 1_555 1_555
C20 C19 1_555 1_555
H13 C20 1_555 1_555
C21 C16 1_555 1_555
H14 C21 1_555 1_555
C22 O3 1_555 1_555
H15 C22 1_555 1_555
H16 C22 1_555 1_555
C23 C22 1_555 1_555
C24 O4 1_555 1_555
C25 C24 1_555 1_555
H17 C25 1_555 1_555
H18 C25 1_555 1_555
C26 C25 1_555 1_555
H19 C26 1_555 1_555
H20 C26 1_555 1_555
O6 H21 1_555 1_555
H22 O6 1_555 1_555
O7 H23 1_555 1_555
H24 O7 1_555 1_555
O8 H25 1_555 1_555
H26 O8 1_555 1_555
O4B C24B 1_555 1_555
O5B C24B 1_555 1_555
C24B C25B 1_555 1_555
C25B H17B 1_555 1_555
H18B C25B 1_555 1_555
C26B C26 1_555 1_555
H19B C26B 1_555 1_555
H20B C26B 1_555 1_555
Zn1B O4B 1_555 1_555
N1B Zn1B 1_555 1_555
N2B Zn1B 1_555 1_555
N3B Zn1B 1_555 1_555
O1B C23B 1_555 1_555
O2B C23B 1_555 1_555
O3B C19B 1_555 1_555
C1B N1B 1_555 1_555
H1B C1B 1_555 1_555
C2B C1B 1_555 1_555
H2B C2B 1_555 1_555
C3B C2B 1_555 1_555
H3B C3B 1_555 1_555
C4B C3B 1_555 1_555
H4B C4B 1_555 1_555
C5B N1B 1_555 1_555
C6B N2B 1_555 1_555
C7B C6B 1_555 1_555
H5B C7B 1_555 1_555
C8B C7B 1_555 1_555
C9B C8B 1_555 1_555
H6B C9B 1_555 1_555
C10B N2B 1_555 1_555
C11B N3B 1_555 1_555
C12B C11B 1_555 1_555
H7B C12B 1_555 1_555
C13B C12B 1_555 1_555
H8B C13B 1_555 1_555
C14B C13B 1_555 1_555
H9B C14B 1_555 1_555
C15B N3B 1_555 1_555
H10B C15B 1_555 1_555
C16B C8B 1_555 1_555
C17B C16B 1_555 1_555
H11B C17B 1_555 1_555
C18B C17B 1_555 1_555
H12B C18B 1_555 1_555
C19B C18B 1_555 1_555
C20B C19B 1_555 1_555
H13B C20B 1_555 1_555
C21B C16B 1_555 1_555
H14B C21B 1_555 1_555
C22B O3B 1_555 1_555
H15B C22B 1_555 1_555
H16B C22B 1_555 1_555
C23B C22B 1_555 1_555
Zn1_2 O1 1_555 1_555
Zn1B_2 O1B 1_555 1_555
O1_2 Zn1 1_555 1_555
O1B_2 Zn1B 1_555 1_555
C4 C5 1_555 1_555
C5 C6 1_555 1_555
C9 C10 1_555 1_555
C10 C11 1_555 1_555
C14 C15 1_555 1_555
C20 C21 1_555 1_555
C25B C26B 1_555 1_555
C4B C5B 1_555 1_555
C5B C6B 1_555 1_555
C9B C10B 1_555 1_555
C10B C11B 1_555 1_555
C14B C15B 1_555 1_555
C20B C21B 1_555 1_555

#END
