
#######################################################################
#
#                 Cambridge Crystallographic Data Centre
#                                CCDC 
#
#######################################################################
#
# If this CIF has been generated from an entry in the Cambridge 
# Structural Database, then it will include bibliographic, chemical, 
# crystal, experimental, refinement or atomic coordinate data resulting 
# from the CCDC's data processing and validation procedures.
#
#######################################################################

data_FUJBUJ
_symmetry_cell_setting           monoclinic
_symmetry_space_group_name_H-M   'P 21/c'
_symmetry_Int_Tables_number      14
_space_group_name_Hall           '-P 2ybc'
loop_
_symmetry_equiv_pos_site_id
_symmetry_equiv_pos_as_xyz
1 x,y,z
2 -x,1/2+y,1/2-z
3 -x,-y,-z
4 x,1/2-y,1/2+z
_cell_length_a                   11.762(9)
_cell_length_b                   12.238(10)
_cell_length_c                   16.513(13)
_cell_angle_alpha                90
_cell_angle_beta                 105.203(9)
_cell_angle_gamma                90
_cell_volume                     2293.75
loop_
_atom_site_label
_atom_site_type_symbol
_atom_site_fract_x
_atom_site_fract_y
_atom_site_fract_z
Zn1 Zn 0.81320(18) 0.70445(14) 1.09165(12)
N1 N 0.6471(12) 0.7403(10) 0.9962(8)
N2 N 0.7781(11) 0.5644(10) 1.0168(7)
N3 N 0.9638(11) 0.5974(10) 1.1436(7)
O1 O 0.7552(11) -0.2135(8) 0.6968(8)
O2 O 0.6727(13) -0.0533(10) 0.6609(8)
O3 O 0.5766(9) -0.0508(8) 0.7913(7)
O4 O 0.8775(13) 0.8523(9) 1.0948(7)
O5 O 0.9295(11) 0.8053(9) 0.9801(8)
C1 C 1.0574(17) 0.6185(15) 1.2142(11)
H1 H 1.0618 0.6859 1.2409
C2 C 1.1399(17) 0.5439(16) 1.2435(12)
H2 H 1.2000 0.5613 1.2908
C3 C 1.1416(15) 0.4426(15) 1.2083(12)
H3 H 1.2012 0.3924 1.2298
C4 C 1.0466(13) 0.4189(13) 1.1367(10)
H4 H 1.0419 0.3519 1.1094
C5 C 0.9607(15) 0.4995(13) 1.1089(10)
C6 C 0.8572(18) 0.4784(12) 1.0351(12)
C7 C 0.8270(15) 0.3799(12) 0.9931(9)
H5 H 0.8793 0.3215 1.0056
C8 C 0.7178(16) 0.3661(12) 0.9313(10)
C9 C 0.6430(14) 0.4573(12) 0.9153(9)
H6 H 0.5720 0.4539 0.8740
C10 C 0.6751(14) 0.5534(11) 0.9615(11)
C11 C 0.5974(15) 0.6530(12) 0.9488(11)
C12 C 0.4809(16) 0.6572(13) 0.8921(11)
H7 H 0.4480 0.5970 0.8600
C13 C 0.4215(19) 0.7535(15) 0.8877(12)
H8 H 0.3457 0.7577 0.8524
C14 C 0.4672(18) 0.8426(15) 0.9320(12)
H9 H 0.4255 0.9079 0.9275
C15 C 0.5851(19) 0.8318(13) 0.9873(12)
H10 H 0.6189 0.8925 1.0182
C16 C 0.6861(18) 0.2607(12) 0.8909(11)
C17 C 0.5701(17) 0.2238(13) 0.8691(9)
H11 H 0.5126 0.2717 0.8770
C18 C 0.5346(18) 0.1252(12) 0.8377(11)
H12 H 0.4556 0.1056 0.8252
C19 C 0.6186(15) 0.0528(12) 0.8241(11)
C20 C 0.7363(14) 0.0850(12) 0.8418(11)
H13 H 0.7928 0.0383 0.8309
C21 C 0.7670(14) 0.1852(13) 0.8752(11)
H14 H 0.8462 0.2049 0.8883
C22 C 0.6529(18) -0.1348(12) 0.7850(11)
H15 H 0.6125 -0.2039 0.7853
H16 H 0.7194 -0.1333 0.8342
C23 C 0.6988(15) -0.1308(12) 0.7079(10)
C24 C 0.9222(14) 0.8738(12) 1.0353(11)
C25 C 0.9590(15) 0.9898(12) 1.0301(10)
H17 H 1.0000 1.0143 1.0860
H18 H 0.8889 1.0344 1.0112
O4B O 1.1225(13) 1.1477(9) 0.9052(7)
O5B O 1.0705(11) 1.1947(9) 1.0199(8)
C24B C 1.0778(14) 1.1262(12) 0.9647(11)
C25B C 1.0410(15) 1.0102(12) 0.9699(10)
H17B H 1.0000 0.9857 0.9140
H18B H 1.1111 0.9656 0.9888
Zn1B Zn 1.18680(18) 1.29555(14) 0.90835(12)
N1B N 1.3529(12) 1.2597(10) 1.0038(8)
N2B N 1.2219(11) 1.4356(10) 0.9832(7)
N3B N 1.0362(11) 1.4026(10) 0.8564(7)
O1B O 1.2448(11) 2.2135(8) 1.3032(8)
O2B O 1.3273(13) 2.0533(10) 1.3391(8)
O3B O 1.4234(9) 2.0508(8) 1.2087(7)
C1B C 0.9426(17) 1.3815(15) 0.7858(11)
H1B H 0.9382 1.3141 0.7591
C2B C 0.8601(17) 1.4561(16) 0.7565(12)
H2B H 0.8000 1.4387 0.7092
C3B C 0.8584(15) 1.5574(15) 0.7917(12)
H3B H 0.7988 1.6076 0.7702
C4B C 0.9534(13) 1.5811(13) 0.8633(10)
H4B H 0.9581 1.6481 0.8906
C5B C 1.0393(15) 1.5005(13) 0.8911(10)
C6B C 1.1428(18) 1.5216(12) 0.9649(12)
C7B C 1.1730(15) 1.6201(12) 1.0069(9)
H5B H 1.1207 1.6785 0.9944
C8B C 1.2822(16) 1.6339(12) 1.0687(10)
C9B C 1.3570(14) 1.5427(12) 1.0847(9)
H6B H 1.4280 1.5461 1.1260
C10B C 1.3249(14) 1.4466(11) 1.0385(11)
C11B C 1.4026(15) 1.3470(12) 1.0512(11)
C12B C 1.5191(16) 1.3428(13) 1.1079(11)
H7B H 1.5520 1.4030 1.1400
C13B C 1.5785(19) 1.2465(15) 1.1123(12)
H8B H 1.6543 1.2423 1.1476
C14B C 1.5328(18) 1.1574(15) 1.0680(12)
H9B H 1.5745 1.0921 1.0725
C15B C 1.4149(19) 1.1682(13) 1.0127(12)
H10B H 1.3811 1.1075 0.9818
C16B C 1.3139(18) 1.7393(12) 1.1091(11)
C17B C 1.4299(17) 1.7762(13) 1.1309(9)
H11B H 1.4874 1.7283 1.1230
C18B C 1.4654(18) 1.8748(12) 1.1623(11)
H12B H 1.5444 1.8944 1.1748
C19B C 1.3814(15) 1.9472(12) 1.1759(11)
C20B C 1.2637(14) 1.9150(12) 1.1582(11)
H13B H 1.2072 1.9617 1.1691
C21B C 1.2330(14) 1.8148(13) 1.1248(11)
H14B H 1.1538 1.7951 1.1117
C22B C 1.3471(18) 2.1348(12) 1.2150(11)
H15B H 1.3875 2.2039 1.2147
H16B H 1.2806 2.1333 1.1658
C23B C 1.3012(15) 2.1308(12) 1.2921(10)
Zn1A Zn 1.18680(18) 2.20445(14) 1.40835(12)
Zn1C Zn 0.81320(18) -0.20445(14) 0.59165(12)
O1A O 1.2448(11) 1.2865(8) 0.8032(8)
O1C O 0.7552(11) 0.7135(8) 1.1968(8)
loop_
_geom_bond_atom_site_label_1
_geom_bond_atom_site_label_2
_geom_bond_site_symmetry_1
_geom_bond_site_symmetry_2
Zn1 N1 1_555 1_555
N1 C11 1_555 1_555
N2 Zn1 1_555 1_555
N3 Zn1 1_555 1_555
O1 C23 1_555 1_555
O2 C23 1_555 1_555
O3 C19 1_555 1_555
O4 Zn1 1_555 1_555
O5 C24 1_555 1_555
C1 N3 1_555 1_555
H1 C1 1_555 1_555
C2 C1 1_555 1_555
H2 C2 1_555 1_555
C3 C2 1_555 1_555
H3 C3 1_555 1_555
C4 C3 1_555 1_555
H4 C4 1_555 1_555
C5 N3 1_555 1_555
C6 N2 1_555 1_555
C7 C6 1_555 1_555
H5 C7 1_555 1_555
C8 C7 1_555 1_555
C9 C8 1_555 1_555
H6 C9 1_555 1_555
C10 N2 1_555 1_555
C11 C10 1_555 1_555
C12 C11 1_555 1_555
H7 C12 1_555 1_555
C13 C12 1_555 1_555
H8 C13 1_555 1_555
C14 C13 1_555 1_555
H9 C14 1_555 1_555
C15 N1 1_555 1_555
H10 C15 1_555 1_555
C16 C8 1_555 1_555
C17 C16 1_555 1_555
H11 C17 1_555 1_555
C18 C17 1_555 1_555
H12 C18 1_555 1_555
C19 C18 1_555 1_555
C20 C19 1_555 1_555
H13 C20 1_555 1_555
C21 C16 1_555 1_555
H14 C21 1_555 1_555
C22 O3 1_555 1_555
H15 C22 1_555 1_555
H16 C22 1_555 1_555
C23 C22 1_555 1_555
C24 O4 1_555 1_555
C25 C24 1_555 1_555
H17 C25 1_555 1_555
H18 C25 1_555 1_555
O4B C24B 1_555 1_555
O5B C24B 1_555 1_555
C24B C25B 1_555 1_555
C25B C25 1_555 1_555
H17B C25B 1_555 1_555
H18B C25B 1_555 1_555
Zn1B O4B 1_555 1_555
N1B Zn1B 1_555 1_555
N2B Zn1B 1_555 1_555
N3B Zn1B 1_555 1_555
O1B C23B 1_555 1_555
O2B C23B 1_555 1_555
O3B C19B 1_555 1_555
C1B N3B 1_555 1_555
H1B C1B 1_555 1_555
C2B C1B 1_555 1_555
H2B C2B 1_555 1_555
C3B C2B 1_555 1_555
H3B C3B 1_555 1_555
C4B C3B 1_555 1_555
H4B C4B 1_555 1_555
C5B N3B 1_555 1_555
C6B N2B 1_555 1_555
C7B C6B 1_555 1_555
H5B C7B 1_555 1_555
C8B C7B 1_555 1_555
C9B C8B 1_555 1_555
H6B C9B 1_555 1_555
C10B N2B 1_555 1_555
C11B N1B 1_555 1_555
C12B C11B 1_555 1_555
H7B C12B 1_555 1_555
C13B C12B 1_555 1_555
H8B C13B 1_555 1_555
C14B C13B 1_555 1_555
H9B C14B 1_555 1_555
C15B N1B 1_555 1_555
H10B C15B 1_555 1_555
C16B C8B 1_555 1_555
C17B C16B 1_555 1_555
H11B C17B 1_555 1_555
C18B C17B 1_555 1_555
H12B C18B 1_555 1_555
C19B C18B 1_555 1_555
C20B C19B 1_555 1_555
H13B C20B 1_555 1_555
C21B C16B 1_555 1_555
H14B C21B 1_555 1_555
C22B O3B 1_555 1_555
H15B C22B 1_555 1_555
H16B C22B 1_555 1_555
C23B C22B 1_555 1_555
Zn1A O1B 1_555 1_555
Zn1C O1 1_555 1_555
O1A Zn1B 1_555 1_555
O1C Zn1 1_555 1_555
C4 C5 1_555 1_555
C5 C6 1_555 1_555
C9 C10 1_555 1_555
C14 C15 1_555 1_555
C20 C21 1_555 1_555
C4B C5B 1_555 1_555
C5B C6B 1_555 1_555
C9B C10B 1_555 1_555
C10B C11B 1_555 1_555
C14B C15B 1_555 1_555
C20B C21B 1_555 1_555

#END
