
#######################################################################
#
#                 Cambridge Crystallographic Data Centre
#                                CCDC 
#
#######################################################################
#
# If this CIF has been generated from an entry in the Cambridge 
# Structural Database, then it will include bibliographic, chemical, 
# crystal, experimental, refinement or atomic coordinate data resulting 
# from the CCDC's data processing and validation procedures.
#
#######################################################################

data_FUJBIX
_symmetry_cell_setting           monoclinic
_symmetry_space_group_name_H-M   'P 21/c'
_symmetry_Int_Tables_number      14
_space_group_name_Hall           '-P 2ybc'
loop_
_symmetry_equiv_pos_site_id
_symmetry_equiv_pos_as_xyz
1 x,y,z
2 -x,1/2+y,1/2-z
3 -x,-y,-z
4 x,1/2-y,1/2+z
_cell_length_a                   7.873(5)
_cell_length_b                   24.159(15)
_cell_length_c                   12.970(8)
_cell_angle_alpha                90
_cell_angle_beta                 95.514(10)
_cell_angle_gamma                90
_cell_volume                     2455.53
loop_
_atom_site_label
_atom_site_type_symbol
_atom_site_fract_x
_atom_site_fract_y
_atom_site_fract_z
Zn1 Zn 0.02087(8) 0.59460(3) 0.25695(5)
N1 N -0.0898(5) 0.67584(18) 0.2773(3)
N2 N 0.0709(5) 0.61069(18) 0.4147(3)
N3 N 0.1249(6) 0.51745(18) 0.3241(4)
O1 O 0.2382(4) 0.61840(15) 1.2050(3)
O2 O 0.1172(5) 0.67446(15) 1.0810(3)
O3 O 0.4273(5) 0.70553(15) 1.0236(3)
O4 O -0.1236(5) 0.56303(17) 0.1390(3)
O5 O -0.2917(5) 0.53886(18) 0.2562(3)
C1 C -0.1794(7) 0.7055(3) 0.2033(5)
H1 H -0.1991 0.6906 0.1371
C2 C -0.2427(8) 0.7571(3) 0.2221(5)
H2 H -0.3056 0.7765 0.1695
C3 C -0.2124(8) 0.7799(2) 0.3195(5)
H3 H -0.2537 0.8149 0.3337
C4 C -0.1187(8) 0.7494(2) 0.3960(5)
H4 H -0.0952 0.7641 0.4620
C5 C -0.0609(7) 0.6975(2) 0.3741(5)
C6 C 0.0393(7) 0.6619(2) 0.4492(5)
C7 C 0.0986(7) 0.6778(2) 0.5488(4)
H5 H 0.0773 0.7134 0.5717
C8 C 0.1906(7) 0.6404(2) 0.6152(4)
C9 C 0.2166(7) 0.5878(2) 0.5768(4)
H6 H 0.2744 0.5615 0.6192
C10 C 0.1577(7) 0.5741(2) 0.4764(4)
C11 C 0.1851(7) 0.5203(2) 0.4259(4)
C12 C 0.2626(8) 0.4756(2) 0.4767(5)
H7 H 0.3012 0.4780 0.5466
C13 C 0.2823(9) 0.4270(3) 0.4227(5)
H8 H 0.3380 0.3967 0.4547
C14 C 0.2185(9) 0.4246(3) 0.3221(5)
H9 H 0.2279 0.3921 0.2848
C15 C 0.1402(8) 0.4698(3) 0.2748(5)
H10 H 0.0962 0.4670 0.2059
C16 C 0.2560(7) 0.6562(2) 0.7223(4)
C17 C 0.2762(7) 0.7115(2) 0.7509(5)
H11 H 0.2512 0.7391 0.7016
C18 C 0.3331(8) 0.7264(2) 0.8519(5)
H12 H 0.3441 0.7636 0.8695
C19 C 0.3724(7) 0.6874(2) 0.9247(4)
C20 C 0.3553(9) 0.6327(3) 0.8985(5)
H13 H 0.3822 0.6056 0.9483
C21 C 0.2982(9) 0.6176(2) 0.7986(5)
H14 H 0.2880 0.5802 0.7823
C22 C 0.4213(7) 0.6677(2) 1.1072(4)
H15 H 0.4813 0.6838 1.1689
H16 H 0.4809 0.6341 1.0912
C23 C 0.2419(8) 0.6529(2) 1.1300(5)
C24 C -0.2579(8) 0.5411(2) 0.1658(5)
C25 C -0.3829(7) 0.5186(2) 0.0799(4)
C26 C -0.5526(7) 0.5122(2) 0.0963(4)
H17 H -0.5890 0.5204 0.1607
C27 C -0.6681(7) 0.4938(2) 0.0168(5)
H18 H -0.7821 0.4895 0.0284
O4B O -0.8764(5) 0.43697(17) -0.1390(3)
O5B O -0.7083(5) 0.46114(18) -0.2562(3)
C24B C -0.7421(8) 0.4589(2) -0.1658(5)
C25B C -0.6171(7) 0.4814(2) -0.0799(4)
C26B C -0.4474(7) 0.4878(2) -0.0963(4)
H17B H -0.4110 0.4796 -0.1607
C27B C -0.3319(7) 0.5062(2) -0.0168(5)
H18B H -0.2179 0.5105 -0.0284
Zn1B Zn -1.02087(8) 0.40540(3) -0.25695(5)
N1B N -0.9102(5) 0.32416(18) -0.2773(3)
N2B N -1.0709(5) 0.38931(18) -0.4147(3)
N3B N -1.1249(6) 0.48255(18) -0.3241(4)
O1B O -1.2382(4) 0.38160(15) -1.2050(3)
O2B O -1.1172(5) 0.32554(15) -1.0810(3)
O3B O -1.4273(5) 0.29447(15) -1.0236(3)
C1B C -0.8206(7) 0.2945(3) -0.2033(5)
H1B H -0.8009 0.3094 -0.1371
C2B C -0.7573(8) 0.2429(3) -0.2221(5)
H2B H -0.6944 0.2235 -0.1695
C3B C -0.7876(8) 0.2201(2) -0.3195(5)
H3B H -0.7463 0.1851 -0.3337
C4B C -0.8813(8) 0.2506(2) -0.3960(5)
H4B H -0.9048 0.2359 -0.4620
C5B C -0.9391(7) 0.3025(2) -0.3741(5)
C6B C -1.0393(7) 0.3381(2) -0.4492(5)
C7B C -1.0986(7) 0.3222(2) -0.5488(4)
H5B H -1.0773 0.2866 -0.5717
C8B C -1.1906(7) 0.3596(2) -0.6152(4)
C9B C -1.2166(7) 0.4122(2) -0.5768(4)
H6B H -1.2744 0.4385 -0.6192
C10B C -1.1577(7) 0.4259(2) -0.4764(4)
C11B C -1.1851(7) 0.4797(2) -0.4259(4)
C12B C -1.2626(8) 0.5244(2) -0.4767(5)
H7B H -1.3012 0.5220 -0.5466
C13B C -1.2823(9) 0.5730(3) -0.4227(5)
H8B H -1.3380 0.6033 -0.4547
C14B C -1.2185(9) 0.5754(3) -0.3221(5)
H9B H -1.2279 0.6079 -0.2848
C15B C -1.1402(8) 0.5302(3) -0.2748(5)
H10B H -1.0962 0.5330 -0.2059
C16B C -1.2560(7) 0.3438(2) -0.7223(4)
C17B C -1.2762(7) 0.2885(2) -0.7509(5)
H11B H -1.2512 0.2609 -0.7016
C18B C -1.3331(8) 0.2736(2) -0.8519(5)
H12B H -1.3441 0.2364 -0.8695
C19B C -1.3724(7) 0.3126(2) -0.9247(4)
C20B C -1.3553(9) 0.3673(3) -0.8985(5)
H13B H -1.3822 0.3944 -0.9483
C21B C -1.2982(9) 0.3824(2) -0.7986(5)
H14B H -1.2880 0.4198 -0.7823
C22B C -1.4213(7) 0.3323(2) -1.1072(4)
H15B H -1.4813 0.3162 -1.1689
H16B H -1.4809 0.3659 -1.0912
C23B C -1.2419(8) 0.3471(2) -1.1300(5)
Zn1_2 Zn 0.02087(8) 0.59460(3) 1.25695(5)
Zn1B_2 Zn -1.02087(8) 0.40540(3) -1.25695(5)
O1_2 O 0.2382(4) 0.61840(15) 0.2050(3)
O1B_2 O -1.2382(4) 0.38160(15) -0.2050(3)
O6 O 0.5191(6) 0.6211(2) 0.3580(4)
O7 O 0.9165(8) 0.6073(2) 0.9349(4)
loop_
_geom_bond_atom_site_label_1
_geom_bond_atom_site_label_2
_geom_bond_site_symmetry_1
_geom_bond_site_symmetry_2
Zn1 N1 1_555 1_555
N1 C1 1_555 1_555
N2 Zn1 1_555 1_555
N3 Zn1 1_555 1_555
O1 C23 1_555 1_555
O2 C23 1_555 1_555
O3 C19 1_555 1_555
O4 Zn1 1_555 1_555
O5 C24 1_555 1_555
C1 H1 1_555 1_555
C2 C1 1_555 1_555
H2 C2 1_555 1_555
C3 C2 1_555 1_555
H3 C3 1_555 1_555
C4 C3 1_555 1_555
H4 C4 1_555 1_555
C5 N1 1_555 1_555
C6 N2 1_555 1_555
C7 C6 1_555 1_555
H5 C7 1_555 1_555
C8 C7 1_555 1_555
C9 C8 1_555 1_555
H6 C9 1_555 1_555
C10 N2 1_555 1_555
C11 N3 1_555 1_555
C12 C11 1_555 1_555
H7 C12 1_555 1_555
C13 C12 1_555 1_555
H8 C13 1_555 1_555
C14 C13 1_555 1_555
H9 C14 1_555 1_555
C15 N3 1_555 1_555
H10 C15 1_555 1_555
C16 C8 1_555 1_555
C17 C16 1_555 1_555
H11 C17 1_555 1_555
C18 C17 1_555 1_555
H12 C18 1_555 1_555
C19 C18 1_555 1_555
C20 C19 1_555 1_555
H13 C20 1_555 1_555
C21 C16 1_555 1_555
H14 C21 1_555 1_555
C22 O3 1_555 1_555
H15 C22 1_555 1_555
H16 C22 1_555 1_555
C23 C22 1_555 1_555
C24 O4 1_555 1_555
C25 C24 1_555 1_555
C26 C25 1_555 1_555
H17 C26 1_555 1_555
C27 C26 1_555 1_555
H18 C27 1_555 1_555
O4B C24B 1_555 1_555
O5B C24B 1_555 1_555
C24B C25B 1_555 1_555
C25B C27 1_555 1_555
C26B C25B 1_555 1_555
H17B C26B 1_555 1_555
C27B C25 1_555 1_555
H18B C27B 1_555 1_555
Zn1B O4B 1_555 1_555
N1B Zn1B 1_555 1_555
N2B Zn1B 1_555 1_555
N3B Zn1B 1_555 1_555
O1B C23B 1_555 1_555
O2B C23B 1_555 1_555
O3B C19B 1_555 1_555
C1B N1B 1_555 1_555
H1B C1B 1_555 1_555
C2B C1B 1_555 1_555
H2B C2B 1_555 1_555
C3B C2B 1_555 1_555
H3B C3B 1_555 1_555
C4B C3B 1_555 1_555
H4B C4B 1_555 1_555
C5B N1B 1_555 1_555
C6B N2B 1_555 1_555
C7B C6B 1_555 1_555
H5B C7B 1_555 1_555
C8B C7B 1_555 1_555
C9B C8B 1_555 1_555
H6B C9B 1_555 1_555
C10B N2B 1_555 1_555
C11B N3B 1_555 1_555
C12B C11B 1_555 1_555
H7B C12B 1_555 1_555
C13B C12B 1_555 1_555
H8B C13B 1_555 1_555
C14B C13B 1_555 1_555
H9B C14B 1_555 1_555
C15B N3B 1_555 1_555
H10B C15B 1_555 1_555
C16B C8B 1_555 1_555
C17B C16B 1_555 1_555
H11B C17B 1_555 1_555
C18B C17B 1_555 1_555
H12B C18B 1_555 1_555
C19B C18B 1_555 1_555
C20B C19B 1_555 1_555
H13B C20B 1_555 1_555
C21B C16B 1_555 1_555
H14B C21B 1_555 1_555
C22B O3B 1_555 1_555
H15B C22B 1_555 1_555
H16B C22B 1_555 1_555
C23B C22B 1_555 1_555
Zn1_2 O1 1_555 1_555
Zn1B_2 O1B 1_555 1_555
O1_2 Zn1 1_555 1_555
O1B_2 Zn1B 1_555 1_555
C4 C5 1_555 1_555
C5 C6 1_555 1_555
C9 C10 1_555 1_555
C10 C11 1_555 1_555
C14 C15 1_555 1_555
C20 C21 1_555 1_555
C26B C27B 1_555 1_555
C4B C5B 1_555 1_555
C5B C6B 1_555 1_555
C9B C10B 1_555 1_555
C10B C11B 1_555 1_555
C14B C15B 1_555 1_555
C20B C21B 1_555 1_555

#END
