
#######################################################################
#
#                 Cambridge Crystallographic Data Centre
#                                CCDC 
#
#######################################################################
#
# If this CIF has been generated from an entry in the Cambridge 
# Structural Database, then it will include bibliographic, chemical, 
# crystal, experimental, refinement or atomic coordinate data resulting 
# from the CCDC's data processing and validation procedures.
#
#######################################################################

data_FUJBAO
_symmetry_cell_setting           triclinic
_symmetry_space_group_name_H-M   'P 1'
_symmetry_Int_Tables_number      1
_space_group_name_Hall           'P 1'
loop_
_symmetry_equiv_pos_site_id
_symmetry_equiv_pos_as_xyz
1 x,y,z
_cell_length_a                   7.5630(13)
_cell_length_b                   10.0792(15)
_cell_length_c                   13.163(2)
_cell_angle_alpha                69.370(6)
_cell_angle_beta                 81.226(7)
_cell_angle_gamma                69.133(5)
_cell_volume                     877.047
loop_
_atom_site_label
_atom_site_type_symbol
_atom_site_fract_x
_atom_site_fract_y
_atom_site_fract_z
Co1 Co 0.29387(4) -0.03344(3) -0.08081(3)
Co2 Co 0.06369(4) -0.43806(3) -0.16004(2)
C1 C 0.4345(4) 0.3131(3) 0.0532(2)
H1 H 0.4414 0.2096 0.0904
H2 H 0.3152 0.3764 0.0747
C2 C 0.4360(4) 0.3437(3) -0.0691(2)
H3 H 0.5670 0.3060 -0.0947
C3 C 0.3211(4) 0.2586(3) -0.09091(19)
C4 C -0.0931(5) 0.1074(3) -0.2904(2)
H4 H -0.1172 0.0427 -0.3225
H5 H 0.0304 0.1162 -0.3173
C5 C -0.0867(4) 0.0324(3) -0.1668(2)
H6 H -0.2160 0.0429 -0.1370
C6 C 0.0272(4) -0.1357(3) -0.14390(19)
C7 C 0.2776(6) -0.2661(3) 0.1478(3)
H7 H 0.3203 -0.3340 0.1093
C8 C 0.2526(6) -0.3209(4) 0.2589(3)
H8 H 0.2812 -0.4236 0.2938
C9 C 0.1851(5) -0.2232(3) 0.3188(2)
C10 C 0.1449(5) -0.0708(4) 0.2609(3)
H9 H 0.0963 -0.0001 0.2968
C11 C 0.1775(5) -0.0258(4) 0.1503(3)
H10 H 0.1523 0.0762 0.1135
C12 C 0.1827(7) -0.4664(4) 0.6123(3)
H11 H 0.2246 -0.5683 0.6514
C13 C 0.2130(8) -0.4243(4) 0.5006(3)
H12 H 0.2731 -0.4973 0.4676
C14 C 0.1551(5) -0.2764(3) 0.4387(2)
C15 C 0.0568(9) -0.1780(4) 0.4939(3)
H13 H 0.0059 -0.0762 0.4563
C16 C 0.0335(8) -0.2299(4) 0.6052(3)
H14 H -0.0332 -0.1600 0.6400
S1 S 0.62154(11) 0.34533(8) 0.09586(6)
S2 S -0.26655(11) 0.28820(7) -0.33501(5)
N1 N 0.3559(3) 0.5049(2) -0.13053(18)
H23 H 0.4203 0.5263 -0.1942
H24 H 0.3679 0.5599 -0.0926
N2 N 0.0033(3) 0.0993(2) -0.11466(18)
H25 H -0.0604 0.1070 -0.0523
H26 H -0.0031 0.1923 -0.1587
N3 N 0.2433(4) -0.1202(3) 0.0923(2)
N4 N 0.0996(4) -0.3731(3) 0.6663(2)
O1 O 0.5656(4) -0.1913(3) -0.0660(2)
H27 H 0.645(6) -0.196(4) -0.094(3)
H28 H 0.610(9) -0.283(7) -0.028(5)
O2 O 0.7970(4) 0.2459(4) 0.0666(3)
O3 O 0.3630(5) 0.0602(4) -0.2483(2)
H29 H 0.390(8) 0.118(6) -0.253(4)
H30 H 0.387(5) 0.003(4) -0.283(3)
O4 O 0.5901(4) 0.3206(3) 0.21098(18)
O5 O -0.2078(3) -0.4428(2) -0.1762(2)
H31 H -0.212(6) -0.499(5) -0.213(3)
H32 H -0.259(7) -0.470(5) -0.122(4)
O6 O 0.6028(4) 0.5014(3) 0.0336(2)
O7 O 0.0043(4) -0.5020(3) 0.01249(18)
H33 H -0.065(10) -0.431(7) 0.051(5)
H34 H -0.048(8) -0.579(6) 0.033(4)
O8 O 0.3905(3) 0.11814(19) -0.05545(15)
O10 O 0.1693(3) 0.33192(19) -0.13995(14)
O11 O -0.2213(4) 0.3830(2) -0.2898(2)
O12 O -0.4453(4) 0.2669(3) -0.2920(2)
O13 O -0.2514(4) 0.3363(3) -0.45160(18)
O14 O 0.1909(3) -0.1845(2) -0.11055(16)
O15 O -0.0553(3) -0.21306(19) -0.16433(15)
Co2_2 Co 0.06369(4) 0.56194(3) -0.16004(2)
Co2_3 Co 0.06369(4) -0.43806(3) 0.83996(2)
N1_2 N 0.3559(3) -0.4951(2) -0.13053(18)
H23_2 H 0.4203 -0.4737 -0.1942
H24_2 H 0.3679 -0.4401 -0.0926
N4_2 N 0.0996(4) -0.3731(3) -0.3337(2)
O10_2 O 0.1693(3) -0.66808(19) -0.13995(14)
C17 C -0.5552(14) 0.0348(6) 0.4861(4)
H15 H -0.6132 0.1371 0.4744
C18 C -0.4850(11) -0.0115(5) 0.3964(4)
H16 H -0.4980 0.0577 0.3268
C19 C -0.3953(6) -0.1627(4) 0.4124(3)
C20 C -0.3896(7) -0.2580(4) 0.5168(3)
H17 H -0.3349 -0.3611 0.5314
C21 C -0.4665(8) -0.1991(5) 0.6009(3)
H18 H -0.4612 -0.2658 0.6713
C22 C -0.1868(8) -0.4158(5) 0.2407(4)
H19 H -0.1517 -0.5177 0.2505
C23 C -0.2611(8) -0.3689(5) 0.3296(3)
H20 H -0.2757 -0.4382 0.3963
C24 C -0.3137(5) -0.2184(4) 0.3189(2)
C25 C -0.2858(6) -0.1240(4) 0.2179(3)
H21 H -0.3161 -0.0220 0.2061
C26 C -0.2120(7) -0.1822(5) 0.1337(3)
H22 H -0.1963 -0.1156 0.0658
N5 N -0.5454(8) -0.0566(5) 0.5872(3)
N6 N -0.1624(6) -0.3257(4) 0.1430(3)
O9 O 0.8729(7) -0.7998(4) 0.3786(3)
H35 H 0.772(7) -0.769(8) 0.333(5)
H36 H 0.912(14) -0.794(11) 0.443(5)
loop_
_geom_bond_atom_site_label_1
_geom_bond_atom_site_label_2
_geom_bond_site_symmetry_1
_geom_bond_site_symmetry_2
Co1 N2 1_555 1_555
Co2 O5 1_555 1_555
C1 H1 1_555 1_555
H2 C1 1_555 1_555
C2 C1 1_555 1_555
H3 C2 1_555 1_555
C3 C2 1_555 1_555
C4 H4 1_555 1_555
H5 C4 1_555 1_555
C5 C4 1_555 1_555
H6 C5 1_555 1_555
C6 C5 1_555 1_555
C7 H7 1_555 1_555
C8 C7 1_555 1_555
H8 C8 1_555 1_555
C9 C8 1_555 1_555
C10 C9 1_555 1_555
H9 C10 1_555 1_555
C11 C10 1_555 1_555
H10 C11 1_555 1_555
C12 H11 1_555 1_555
C13 C12 1_555 1_555
H12 C13 1_555 1_555
C14 C9 1_555 1_555
C15 C14 1_555 1_555
H13 C15 1_555 1_555
C16 C15 1_555 1_555
H14 C16 1_555 1_555
C17 H15 1_555 1_555
C18 C17 1_555 1_555
H16 C18 1_555 1_555
C19 C18 1_555 1_555
C20 C19 1_555 1_555
H17 C20 1_555 1_555
C21 C20 1_555 1_555
H18 C21 1_555 1_555
C22 H19 1_555 1_555
C23 C22 1_555 1_555
H20 C23 1_555 1_555
C24 C19 1_555 1_555
C25 C24 1_555 1_555
H21 C25 1_555 1_555
C26 C25 1_555 1_555
H22 C26 1_555 1_555
S1 C1 1_555 1_555
S2 C4 1_555 1_555
N1 C2 1_555 1_555
H23 N1 1_555 1_555
H24 N1 1_555 1_555
N2 C5 1_555 1_555
H25 N2 1_555 1_555
H26 N2 1_555 1_555
N3 Co1 1_555 1_555
N4 C12 1_555 1_555
N5 C17 1_555 1_555
N6 C22 1_555 1_555
O1 Co1 1_555 1_555
H27 O1 1_555 1_555
H28 O1 1_555 1_555
O2 S1 1_555 1_555
O3 Co1 1_555 1_555
H29 O3 1_555 1_555
H30 O3 1_555 1_555
O4 S1 1_555 1_555
O5 H31 1_555 1_555
H32 O5 1_555 1_555
O6 S1 1_555 1_555
O7 Co2 1_555 1_555
H33 O7 1_555 1_555
H34 O7 1_555 1_555
O8 Co1 1_555 1_555
O9 H35 1_555 1_555
H36 O9 1_555 1_555
O10 C3 1_555 1_555
O11 S2 1_555 1_555
O12 S2 1_555 1_555
O13 S2 1_555 1_555
O14 Co1 1_555 1_555
O15 Co2 1_555 1_555
Co2_2 N1 1_555 1_555
Co2_3 N4 1_555 1_555
N1_2 Co2 1_555 1_555
H23_2 N1_2 1_555 1_555
H24_2 N1_2 1_555 1_555
N4_2 Co2 1_555 1_555
O10_2 Co2 1_555 1_555
C3 O8 1_555 1_555
C6 O14 1_555 1_555
C6 O15 1_555 1_555
C7 N3 1_555 1_555
C11 N3 1_555 1_555
C13 C14 1_555 1_555
C16 N4 1_555 1_555
C21 N5 1_555 1_555
C23 C24 1_555 1_555
C26 N6 1_555 1_555
O10 Co2_2 1_555 1_555

#END
