
#######################################################################
#
#                 Cambridge Crystallographic Data Centre
#                                CCDC 
#
#######################################################################
#
# If this CIF has been generated from an entry in the Cambridge 
# Structural Database, then it will include bibliographic, chemical, 
# crystal, experimental, refinement or atomic coordinate data resulting 
# from the CCDC's data processing and validation procedures.
#
#######################################################################

data_FUJHAV
_symmetry_cell_setting           monoclinic
_symmetry_space_group_name_H-M   'P 2/c'
_symmetry_Int_Tables_number      13
_space_group_name_Hall           '-P 2yc'
loop_
_symmetry_equiv_pos_site_id
_symmetry_equiv_pos_as_xyz
1 x,y,z
2 -x,y,1/2-z
3 -x,-y,-z
4 x,-y,1/2+z
_cell_length_a                   10.276(2)
_cell_length_b                   7.0256(14)
_cell_length_c                   18.098(6)
_cell_angle_alpha                90
_cell_angle_beta                 115.21(2)
_cell_angle_gamma                90
_cell_volume                     1182.14
loop_
_atom_site_label
_atom_site_type_symbol
_atom_site_fract_x
_atom_site_fract_y
_atom_site_fract_z
Ba1 Ba -1.0000 0.33715(4) 0.7500
O1 O -0.44220(19) 0.1830(2) 0.64044(11)
O2 O -1.09904(19) 0.6844(2) 0.65124(11)
H1 H -1.1751 0.6348 0.6274
H2 H -1.0727 0.7117 0.6102
O3 O -1.16357(19) 0.0071(2) 0.72909(11)
H3 H -1.2579 0.0291 0.7012
H4 H -1.1628 -0.0797 0.6946
C1 C -0.8608(4) 0.3384(5) 0.5811(2)
N1 N -0.7647(3) 0.3781(5) 0.5519(2)
N2 N -0.6561(3) 0.4457(5) 0.61769(19)
N3 N -1.0810(3) 0.2155(5) 0.57501(18)
N4 N -1.0408(3) 0.2237(5) 0.45393(18)
C2 C -0.4094(4) 0.3518(5) 0.6348(3)
N5 N -0.6810(3) 0.4494(5) 0.68403(19)
N6 N -0.8114(3) 0.3801(5) 0.6616(2)
C3 C -1.1700(5) 0.1432(5) 0.4117(3)
H5 H -1.2008 0.1196 0.3563
C4 C -1.2589(4) 0.0943(6) 0.4492(2)
H6 H -1.350(5) 0.027(6) 0.419(3)
C5 C -1.0037(4) 0.2544(5) 0.5332(2)
C6 C -1.2104(4) 0.1346(5) 0.5311(3)
H7 H -1.2688 0.1050 0.5570
C7 C -0.5199(4) 0.5101(6) 0.6193(2)
H8 H -0.4789 0.6058 0.6616
H9 H -0.5387 0.5701 0.5675
O4 O -0.2899(3) 0.4093(5) 0.64041(17)
O1A O -1.55780(19) 0.1830(2) 0.85956(11)
O2A O -0.90096(19) 0.6844(2) 0.84876(11)
H1A H -0.8249 0.6348 0.8726
H2A H -0.9273 0.7117 0.8898
O3A O -0.83643(19) 0.0071(2) 0.77091(11)
H3A H -0.7421 0.0291 0.7988
H4A H -0.8372 -0.0797 0.8054
C1A C -1.1392(4) 0.3384(5) 0.9189(2)
N1A N -1.2353(3) 0.3781(5) 0.9481(2)
N2A N -1.3439(3) 0.4457(5) 0.88231(19)
N3A N -0.9190(3) 0.2155(5) 0.92499(18)
N4A N -0.9592(3) 0.2237(5) 1.04607(18)
C2A C -1.5906(4) 0.3518(5) 0.8652(3)
N5A N -1.3190(3) 0.4494(5) 0.81597(19)
N6A N -1.1886(3) 0.3801(5) 0.8384(2)
C3A C -0.8300(5) 0.1432(5) 1.0883(3)
H5A H -0.7992 0.1196 1.1437
C4A C -0.7411(4) 0.0943(6) 1.0508(2)
H6A H -0.650(5) 0.027(6) 1.081(3)
C5A C -0.9963(4) 0.2544(5) 0.9668(2)
C6A C -0.7896(4) 0.1346(5) 0.9689(3)
H7A H -0.7312 0.1050 0.9430
C7A C -1.4801(4) 0.5101(6) 0.8807(2)
H8A H -1.5211 0.6058 0.8384
H9A H -1.4613 0.5701 0.9325
O4A O -1.7101(3) 0.4093(5) 0.85959(17)
Ba1_2 Ba -2.0000 0.33715(4) 0.7500
Ba1_3 Ba 0.0000 0.33715(4) 0.7500
O4_2 O -1.2899(3) 0.4093(5) 0.64041(17)
O4A_2 O -0.7101(3) 0.4093(5) 0.85959(17)
O5 O -0.5000 -0.0553(11) 0.7500
H10 H -0.472(7) 0.005(8) 0.725(4)
H10A H -0.528(7) 0.005(8) 0.775(4)
loop_
_geom_bond_atom_site_label_1
_geom_bond_atom_site_label_2
_geom_bond_site_symmetry_1
_geom_bond_site_symmetry_2
Ba1 O2 1_555 1_555
O1 C2 1_555 1_555
O2 H1 1_555 1_555
H2 O2 1_555 1_555
O3 Ba1 1_555 1_555
H3 O3 1_555 1_555
H4 O3 1_555 1_555
C1 N1 1_555 1_555
N1 N2 1_555 1_555
N2 N5 1_555 1_555
N3 Ba1 1_555 1_555
N4 C3 1_555 1_555
C2 C7 1_555 1_555
N5 N6 1_555 1_555
N6 Ba1 1_555 1_555
C3 H5 1_555 1_555
C4 C3 1_555 1_555
H6 C4 1_555 1_555
C5 C1 1_555 1_555
C6 N3 1_555 1_555
H7 C6 1_555 1_555
C7 N2 1_555 1_555
H8 C7 1_555 1_555
H9 C7 1_555 1_555
O4 C2 1_555 1_555
O5 H10 1_555 1_555
O1A C2A 1_555 1_555
O2A Ba1 1_555 1_555
H1A O2A 1_555 1_555
H2A O2A 1_555 1_555
O3A Ba1 1_555 1_555
H3A O3A 1_555 1_555
H4A O3A 1_555 1_555
C1A N1A 1_555 1_555
N1A N2A 1_555 1_555
N2A N5A 1_555 1_555
N3A Ba1 1_555 1_555
N4A C3A 1_555 1_555
C2A C7A 1_555 1_555
N5A N6A 1_555 1_555
N6A Ba1 1_555 1_555
C3A H5A 1_555 1_555
C4A C3A 1_555 1_555
H6A C4A 1_555 1_555
C5A C1A 1_555 1_555
C6A N3A 1_555 1_555
H7A C6A 1_555 1_555
C7A N2A 1_555 1_555
H8A C7A 1_555 1_555
H9A C7A 1_555 1_555
O4A C2A 1_555 1_555
Ba1_2 O4A 1_555 1_555
Ba1_3 O4 1_555 1_555
O4_2 Ba1 1_555 1_555
O4A_2 Ba1 1_555 1_555
H10A O5 1_555 1_555
C1 N6 1_555 1_555
N3 C5 1_555 1_555
N4 C5 1_555 1_555
C4 C6 1_555 1_555
C1A N6A 1_555 1_555
N3A C5A 1_555 1_555
N4A C5A 1_555 1_555
C4A C6A 1_555 1_555

#END
