
#######################################################################
#
#                 Cambridge Crystallographic Data Centre
#                                CCDC 
#
#######################################################################
#
# If this CIF has been generated from an entry in the Cambridge 
# Structural Database, then it will include bibliographic, chemical, 
# crystal, experimental, refinement or atomic coordinate data resulting 
# from the CCDC's data processing and validation procedures.
#
#######################################################################

data_FUJKIF
_symmetry_cell_setting           triclinic
_symmetry_space_group_name_H-M   'P -1'
_symmetry_Int_Tables_number      2
_space_group_name_Hall           '-P 1'
loop_
_symmetry_equiv_pos_site_id
_symmetry_equiv_pos_as_xyz
1 x,y,z
2 -x,-y,-z
_cell_length_a                   8.779(1)
_cell_length_b                   13.727(2)
_cell_length_c                   14.166(2)
_cell_angle_alpha                62.945(5)
_cell_angle_beta                 78.556(6)
_cell_angle_gamma                73.474(6)
_cell_volume                     1452.75
loop_
_atom_site_label
_atom_site_type_symbol
_atom_site_fract_x
_atom_site_fract_y
_atom_site_fract_z
C1 C 0.6259(8) 0.6823(7) -0.8633(6)
H1 H 0.6605 0.6122 -0.8645
C2 C 0.7039(8) 0.7651(7) -0.9309(6)
H2 H 0.7885 0.7514 -0.9777
C3 C 0.6550(9) 0.8710(8) -0.9290(6)
H3 H 0.7075 0.9282 -0.9731
C4 C 0.5253(8) 0.8877(7) -0.8589(6)
H4 H 0.4879 0.9568 -0.8558
C5 C 0.4533(7) 0.7981(6) -0.7936(5)
C6 C 0.3124(8) 0.8120(6) -0.7164(6)
H5 H 0.2319 0.7778 -0.7195
H6 H 0.2661 0.8913 -0.7371
C7 C 0.3596(8) 0.8084(6) -0.5438(6)
H7 H 0.3313 0.8844 -0.5595
C8 C 0.4120(8) 0.7198(7) -0.4495(5)
C9 C 0.4447(8) 0.7149(6) -0.3497(6)
C10 C 0.4244(8) 0.7949(6) -0.3139(5)
H8 H 0.3818 0.8714 -0.3484
C11 C 0.4911(9) 0.7787(7) -0.1398(6)
H9 H 0.4912 0.858 -0.1779
H10 H 0.5912 0.7403 -0.107
C12 C 0.3549(9) 0.7631(7) -0.0532(6)
C13 C 0.2476(10) 0.8552(6) -0.0453(6)
H11 H 0.2535 0.927 -0.0965
C14 C 0.1302(9) 0.8405(7) 0.0395(6)
H12 H 0.0579 0.9016 0.0465
C15 C 0.1251(9) 0.7335(8) 0.1116(6)
H13 H 0.0505 0.7201 0.1702
C16 C 0.2326(8) 0.6452(6) 0.0965(6)
H14 H 0.2249 0.5726 0.1447
C17 C 0.0210(10) 0.5128(6) -0.6270(5)
C18 C -0.1351(9) 0.4940(8) -0.6190(7)
H15 H -0.2137 0.5486 -0.6003
H16 H -0.1553 0.5007 -0.6861
H17 H -0.1403 0.42 -0.5652
N1 N 0.5012(7) 0.6979(5) -0.7952(5)
N2 N 0.3586(7) 0.7603(6) -0.6071(5)
N3 N 0.4111(7) 0.6479(5) -0.5581(5)
N4 N 0.4426(7) 0.6247(5) -0.4625(5)
N5 N 0.5064(8) 0.6134(6) -0.2731(5)
N6 N 0.5309(8) 0.6281(6) -0.1928(5)
N7 N 0.4814(7) 0.7364(5) -0.2155(5)
N8 N 0.3472(7) 0.6579(5) 0.0165(4)
N9 N 0.1457(8) 0.5285(6) -0.6334(5)
Ag1 Ag 0.40784(7) 0.54271(5) -0.66704(4)
Ag2 Ag 0.50000 0.50000 0.00000
C1A C 0.3741(8) 0.3177(7) 0.8633(6)
H1A H 0.3395 0.3878 0.8645
C2A C 0.2961(8) 0.2349(7) 0.9309(6)
H2A H 0.2115 0.2486 0.9777
C3A C 0.3450(9) 0.1290(8) 0.9290(6)
H3A H 0.2925 0.0718 0.9731
C4A C 0.4747(8) 0.1123(7) 0.8589(6)
H4A H 0.5121 0.0432 0.8558
C5A C 0.5467(7) 0.2019(6) 0.7936(5)
C6A C 0.6876(8) 0.1880(6) 0.7164(6)
H5A H 0.7681 0.2222 0.7195
H6A H 0.7339 0.1087 0.7371
C7A C 0.6404(8) 0.1916(6) 0.5438(6)
H7A H 0.6687 0.1156 0.5595
C8A C 0.5880(8) 0.2802(7) 0.4495(5)
C9A C 0.5553(8) 0.2851(6) 0.3497(6)
C10A C 0.5756(8) 0.2051(6) 0.3139(5)
H8A H 0.6182 0.1286 0.3484
C11A C 0.5089(9) 0.2213(7) 0.1398(6)
H9A H 0.5088 0.142 0.1779
H10A H 0.4088 0.2597 0.107
C12A C 0.6451(9) 0.2369(7) 0.0532(6)
C13A C 0.7524(10) 0.1448(6) 0.0453(6)
H11A H 0.7465 0.073 0.0965
C14A C 0.8698(9) 0.1595(7) -0.0395(6)
H12A H 0.9421 0.0984 -0.0465
C15A C 0.8749(9) 0.2665(8) -0.1116(6)
H13A H 0.9495 0.2799 -0.1702
C16A C 0.7674(8) 0.3548(6) -0.0965(6)
H14A H 0.7751 0.4274 -0.1447
C17A C 0.9790(10) 0.4872(6) 0.6270(5)
C18A C 1.1351(9) 0.5060(8) 0.6190(7)
H15A H 1.2137 0.4514 0.6003
H16A H 1.1553 0.4993 0.6861
H17A H 1.1403 0.58 0.5652
N1A N 0.4988(7) 0.3021(5) 0.7952(5)
N2A N 0.6414(7) 0.2397(6) 0.6071(5)
N3A N 0.5889(7) 0.3521(5) 0.5581(5)
N4A N 0.5574(7) 0.3753(5) 0.4625(5)
N4A_2 N 0.5574(7) 0.3753(5) -0.5375(5)
N4_2 N 0.4426(7) 0.6247(5) 0.5375(5)
N5A N 0.4936(8) 0.3866(6) 0.2731(5)
N5A_2 N 0.4936(8) 0.3866(6) -0.7269(5)
N5_2 N 0.5064(8) 0.6134(6) 0.7269(5)
N6A N 0.4691(8) 0.3719(6) 0.1928(5)
N7A N 0.5186(7) 0.2636(5) 0.2155(5)
N8A N 0.6528(7) 0.3421(5) -0.0165(4)
N9A N 0.8543(8) 0.4715(6) 0.6334(5)
Ag1A Ag 0.59216(7) 0.45729(5) 0.66704(4)
Ag1A_2 Ag 0.59216(7) 0.45729(5) -0.33296(4)
Ag1_2 Ag 0.40784(7) 0.54271(5) 0.33296(4)
C19 C -0.1340(12) 0.8624(8) -0.2781(10)
C20 C -0.2273(11) 0.9143(9) -0.2438(11)
H18 H -0.3115 0.8756 -0.2063
H19 H -0.2695 0.9849 -0.3
H20 H -0.1814 0.9271 -0.1954
N10 N -0.0119(13) 0.7929(11) -0.3227(9)
F1 F 1.0041(6) 0.7637(5) -0.5653(4)
F2 F 0.9193(6) 0.8855(5) -0.7611(4)
F3 F 0.7128(7) 0.8355(6) -0.4906(4)
F4 F 0.8801(7) 0.9790(5) -0.6295(6)
F5 F 0.6304(6) 0.9585(4) -0.6871(4)
F6 F 0.7483(6) 0.7420(5) -0.6227(5)
Sb1 Sb 0.81623(5) 0.85869(4) -0.62536(4)
F7 F 0.0381(6) 0.6454(4) -0.0649(4)
F8 F 0.2166(6) 0.4368(5) 0.0198(4)
F9 F 0.0336(6) 0.4953(5) -0.1330(4)
Sb2 Sb 0.00000 0.50000 0.00000
F7A F -0.0381(6) 0.3546(4) 0.0649(4)
F8A F -0.2166(6) 0.5632(5) -0.0198(4)
F9A F -0.0336(6) 0.5047(5) 0.1330(4)
loop_
_geom_bond_atom_site_label_1
_geom_bond_atom_site_label_2
_geom_bond_site_symmetry_1
_geom_bond_site_symmetry_2
C1 H1 1_555 1_555
C2 C1 1_555 1_555
H2 C2 1_555 1_555
C3 C2 1_555 1_555
H3 C3 1_555 1_555
C4 C3 1_555 1_555
H4 C4 1_555 1_555
C5 C4 1_555 1_555
C6 C5 1_555 1_555
H5 C6 1_555 1_555
H6 C6 1_555 1_555
C7 H7 1_555 1_555
C8 C7 1_555 1_555
C9 C8 1_555 1_555
C10 C9 1_555 1_555
H8 C10 1_555 1_555
C11 H9 1_555 1_555
H10 C11 1_555 1_555
C12 C11 1_555 1_555
C13 C12 1_555 1_555
H11 C13 1_555 1_555
C14 C13 1_555 1_555
H12 C14 1_555 1_555
C15 C14 1_555 1_555
H13 C15 1_555 1_555
C16 C15 1_555 1_555
H14 C16 1_555 1_555
C17 C18 1_555 1_555
C18 H15 1_555 1_555
H16 C18 1_555 1_555
H17 C18 1_555 1_555
C19 C20 1_555 1_555
C20 H18 1_555 1_555
H19 C20 1_555 1_555
H20 C20 1_555 1_555
N1 C1 1_555 1_555
N2 C6 1_555 1_555
N3 N2 1_555 1_555
N4 C8 1_555 1_555
N5 C9 1_555 1_555
N6 N5 1_555 1_555
N7 C10 1_555 1_555
N8 C12 1_555 1_555
N9 C17 1_555 1_555
N10 C19 1_555 1_555
F1 Sb1 1_555 1_555
F2 Sb1 1_555 1_555
F3 Sb1 1_555 1_555
F4 Sb1 1_555 1_555
F5 Sb1 1_555 1_555
F6 Sb1 1_555 1_555
F7 Sb2 1_555 1_555
F8 Sb2 1_555 1_555
F9 Sb2 1_555 1_555
Ag1 N1 1_555 1_555
Ag2 N6 1_555 1_555
Sb2 F7A 1_555 1_555
C1A H1A 1_555 1_555
C2A C1A 1_555 1_555
H2A C2A 1_555 1_555
C3A C2A 1_555 1_555
H3A C3A 1_555 1_555
C4A C3A 1_555 1_555
H4A C4A 1_555 1_555
C5A C4A 1_555 1_555
C6A C5A 1_555 1_555
H5A C6A 1_555 1_555
H6A C6A 1_555 1_555
C7A H7A 1_555 1_555
C8A C7A 1_555 1_555
C9A C8A 1_555 1_555
C10A C9A 1_555 1_555
H8A C10A 1_555 1_555
C11A H9A 1_555 1_555
H10A C11A 1_555 1_555
C12A C11A 1_555 1_555
C13A C12A 1_555 1_555
H11A C13A 1_555 1_555
C14A C13A 1_555 1_555
H12A C14A 1_555 1_555
C15A C14A 1_555 1_555
H13A C15A 1_555 1_555
C16A C15A 1_555 1_555
H14A C16A 1_555 1_555
C17A C18A 1_555 1_555
C18A H15A 1_555 1_555
H16A C18A 1_555 1_555
H17A C18A 1_555 1_555
N1A C1A 1_555 1_555
N2A C6A 1_555 1_555
N3A N2A 1_555 1_555
N4A C8A 1_555 1_555
N4A_2 Ag1 1_555 1_555
N4_2 Ag1A 1_555 1_555
N5A C9A 1_555 1_555
N5A_2 Ag1 1_555 1_555
N5_2 Ag1A 1_555 1_555
N6A Ag2 1_555 1_555
N7A C10A 1_555 1_555
N8A Ag2 1_555 1_555
N9A C17A 1_555 1_555
F8A Sb2 1_555 1_555
F9A Sb2 1_555 1_555
Ag1A N1A 1_555 1_555
Ag1A_2 N4 1_555 1_555
Ag1_2 N4A 1_555 1_555
C5 N1 1_555 1_555
C7 N2 1_555 1_555
C11 N7 1_555 1_555
C16 N8 1_555 1_555
N3 N4 1_555 1_555
N3 Ag1 1_555 1_555
N5 Ag1A_2 1_555 1_555
N6 N7 1_555 1_555
N8 Ag2 1_555 1_555
N9 Ag1 1_555 1_555
C5A N1A 1_555 1_555
C7A N2A 1_555 1_555
C11A N7A 1_555 1_555
C12A N8A 1_555 1_555
C16A N8A 1_555 1_555
N3A N4A 1_555 1_555
N3A Ag1A 1_555 1_555
N5A N6A 1_555 1_555
N5A Ag1_2 1_555 1_555
N6A N7A 1_555 1_555
N9A Ag1A 1_555 1_555

#END
