
#######################################################################
#
#                 Cambridge Crystallographic Data Centre
#                                CCDC 
#
#######################################################################
#
# If this CIF has been generated from an entry in the Cambridge 
# Structural Database, then it will include bibliographic, chemical, 
# crystal, experimental, refinement or atomic coordinate data resulting 
# from the CCDC's data processing and validation procedures.
#
#######################################################################

data_FUJKAX
_symmetry_cell_setting           monoclinic
_symmetry_space_group_name_H-M   'P 21/c'
_symmetry_Int_Tables_number      14
_space_group_name_Hall           '-P 2ybc'
loop_
_symmetry_equiv_pos_site_id
_symmetry_equiv_pos_as_xyz
1 x,y,z
2 -x,1/2+y,1/2-z
3 -x,-y,-z
4 x,1/2-y,1/2+z
_cell_length_a                   16.719(3)
_cell_length_b                   23.253(6)
_cell_length_c                   12.871(6)
_cell_angle_alpha                90
_cell_angle_beta                 105.907(12)
_cell_angle_gamma                90
_cell_volume                     4812.21
loop_
_atom_site_label
_atom_site_type_symbol
_atom_site_fract_x
_atom_site_fract_y
_atom_site_fract_z
Sb1 Sb 0.562533(13) 0.786148(9) 0.051999(18)
F2 F 0.47284(14) 0.80487(11) -0.06547(18)
F3 F 0.51864(16) 0.71292(9) 0.0585(2)
F5 F 0.60625(15) 0.85959(9) 0.0462(2)
F7 F 0.61950(16) 0.75909(9) -0.0434(2)
F8 F 0.50309(16) 0.81224(12) 0.1456(2)
F9 F 0.65206(16) 0.76854(13) 0.1690(2)
Ag1 Ag -0.162120(14) -0.016017(10) 0.89228(2)
Ag2 Ag -0.322267(14) 0.007695(10) 0.60631(2)
N1 N -0.05883(15) -0.07981(10) 0.9391(2)
N2 N 0.00372(15) -0.07292(10) 1.0261(2)
N3 N -0.17724(15) -0.00931(11) 0.6232(2)
N4 N -0.48509(15) -0.09305(10) 0.36015(19)
N5 N -0.27909(15) -0.07651(11) 0.8151(2)
N6 N 0.04998(15) -0.12045(10) 1.0351(2)
N7 N 0.14859(16) 0.05874(12) 0.8384(2)
N8 N -0.40699(15) -0.09459(10) 0.7376(2)
N9 N -0.67932(15) -0.10296(11) 0.3649(2)
N10 N -0.04600(15) -0.01262(10) 0.6954(2)
N11 N -0.38912(15) -0.05752(11) 0.4871(2)
C1 C -0.6327(2) -0.18988(13) 0.3024(3)
H1 H -0.5959 -0.2082 0.2706
N12 N -0.46525(15) -0.04767(11) 0.4250(2)
C2 C 0.2922(2) -0.05603(15) 1.0361(3)
H2 H 0.31 -0.0186 1.0297
C3 C 0.1483(3) 0.15751(17) 0.7898(3)
H3 H 0.1764 0.1925 0.7975
N13 N 0.22592(15) -0.06387(11) 1.0730(2)
C4 C -0.14241(19) -0.03425(13) 0.5510(2)
N14 N -0.34898(15) -0.05314(11) 0.7554(2)
C5 C -0.2255(2) -0.17269(14) 0.8936(3)
H4 H -0.2503 -0.2044 0.9226
H5 H -0.1889 -0.1524 0.954
C6 C -0.56655(17) -0.09531(13) 0.2806(2)
H6 H -0.588 -0.0565 0.2658
H7 H -0.5602 -0.1113 0.2137
N15 N -0.51627(19) -0.01588(12) 0.8022(3)
C7 C -0.27686(19) -0.13216(13) 0.5168(3)
H8 H -0.2809 -0.1732 0.5279
H9 H -0.2568 -0.1142 0.5871
N16 N -0.11838(15) 0.00394(11) 0.7120(2)
C8 C -0.42336(18) -0.13199(13) 0.3795(2)
H10 H -0.4228 -0.1669 0.3446
C9 C -0.05188(18) -0.13113(13) 0.8916(2)
C10 C -0.29293(19) -0.13270(13) 0.8349(3)
C11 C 0.01804(19) -0.15705(13) 0.9538(3)
H11 H 0.0392 -0.1927 0.9422
C12 C 0.3358(2) -0.10113(16) 1.0066(3)
H12 H 0.3815 -0.094 0.9805
C13 C -0.11521(19) -0.15263(14) 0.7943(3)
H13 H -0.0873 -0.1704 0.7457
H14 H -0.1473 -0.1204 0.7568
C14 C -0.5481(2) -0.05774(13) 0.7329(3)
C15 C 0.1854(2) 0.11023(16) 0.8437(3)
H15 H 0.2397 0.1138 0.8871
C16 C -0.05797(19) -0.03607(13) 0.5975(3)
H16 H -0.0176 -0.0506 0.5673
C17 C 0.07053(19) 0.05487(14) 0.7745(3)
C18 C -0.62815(17) -0.13092(12) 0.3181(2)
C19 C -0.36151(18) -0.10912(12) 0.4617(2)
C20 C -0.37486(19) -0.14397(13) 0.7853(3)
H17 H -0.4026 -0.1787 0.7848
C21 C -0.7445(2) -0.19317(15) 0.3812(3)
H18 H -0.7854 -0.2133 0.4028
C22 C 0.12641(18) -0.12562(13) 1.1238(2)
H19 H 0.1282 -0.1631 1.1573
H20 H 0.1266 -0.0967 1.1781
C23 C -0.49190(18) -0.08386(14) 0.6718(3)
H21 H -0.516 -0.1199 0.6403
H22 H -0.4899 -0.0583 0.613
C24 C 0.0683(3) 0.15294(17) 0.7233(3)
H23 H 0.0418 0.1846 0.6847
C25 C 0.0283(2) 0.10007(15) 0.7154(3)
H24 H -0.0256 0.0954 0.6713
C26 C 0.03247(19) -0.00362(13) 0.7794(3)
H25 H 0.0719 -0.0329 0.7721
H26 H 0.0225 -0.0084 0.8496
C27 C -0.6918(2) -0.22117(14) 0.3340(3)
H27 H -0.6957 -0.2607 0.3235
C28 C -0.6307(2) -0.07393(18) 0.7070(3)
H28 H -0.6499 -0.1048 0.6608
C29 C -0.2146(2) -0.12152(16) 0.4521(3)
H29 H -0.1641 -0.1427 0.485
H30 H -0.2373 -0.1363 0.3795
C30 C -0.6533(3) 0.0007(2) 0.8189(4)
H31 H -0.6884 0.0227 0.8479
C31 C -0.1743(2) -0.19655(14) 0.8233(3)
H32 H -0.2117 -0.2111 0.757
H33 H -0.1418 -0.2287 0.8604
C32 C -0.6840(3) -0.0435(2) 0.7509(4)
H34 H -0.7401 -0.053 0.7342
C33 C -0.7361(2) -0.13427(14) 0.3963(3)
H35 H -0.7714 -0.1155 0.4299
C34 C -0.1929(2) -0.05813(16) 0.4455(3)
H36 H -0.1621 -0.0536 0.3922
H37 H -0.244 -0.0362 0.4212
C35 C -0.5690(3) 0.01252(17) 0.8446(4)
H38 H -0.5481 0.0417 0.8939
C36 C 0.20135(18) -0.11811(13) 1.0830(2)
C37 C 0.2419(2) -0.16527(14) 1.0558(3)
H39 H 0.2235 -0.2023 1.0636
C38 C 0.3103(2) -0.15647(15) 1.0169(3)
H40 H 0.3385 -0.1875 0.998
Ag1B Ag 0.162120(14) 0.016017(10) 1.10772(2)
Ag2B Ag -0.677733(14) -0.007695(10) 0.39369(2)
N9B N -0.32068(15) 0.10296(11) 0.6351(2)
N13B N -0.22592(15) 0.06387(11) 0.9270(2)
Sb2 Sb 0.893348(15) 0.172103(9) 0.37951(2)
F1 F 0.90296(17) 0.21393(11) 0.5063(2)
F4 F 0.89086(15) 0.10354(10) 0.4547(2)
F6 F 0.89515(17) 0.24055(10) 0.3055(2)
F10 F 0.77760(14) 0.17768(11) 0.3512(2)
F11 F 1.00854(16) 0.16731(12) 0.4133(3)
F12 F 0.8827(2) 0.12999(12) 0.2550(2)
loop_
_geom_bond_atom_site_label_1
_geom_bond_atom_site_label_2
_geom_bond_site_symmetry_1
_geom_bond_site_symmetry_2
Sb1 F2 1_555 1_555
Ag1 N1 1_555 1_555
Ag2 N3 1_555 1_555
Sb2 F1 1_555 1_555
F3 Sb1 1_555 1_555
F4 Sb2 1_555 1_555
N1 N2 1_555 1_555
F5 Sb1 1_555 1_555
N2 N6 1_555 1_555
N3 C4 1_555 1_555
F6 Sb2 1_555 1_555
N4 N12 1_555 1_555
N5 Ag1 1_555 1_555
F7 Sb1 1_555 1_555
N6 C11 1_555 1_555
F8 Sb1 1_555 1_555
N7 C15 1_555 1_555
F9 Sb1 1_555 1_555
F10 Sb2 1_555 1_555
F11 Sb2 1_555 1_555
N8 N14 1_555 1_555
N9 C18 1_555 1_555
N10 N16 1_555 1_555
N11 Ag2 1_555 1_555
C1 H1 1_555 1_555
N12 N11 1_555 1_555
C2 H2 1_555 1_555
C3 H3 1_555 1_555
N13 C2 1_555 1_555
C4 C16 1_555 1_555
N14 Ag2 1_555 1_555
C5 H4 1_555 1_555
H5 C5 1_555 1_555
C6 N4 1_555 1_555
H6 C6 1_555 1_555
H7 C6 1_555 1_555
N15 C14 1_555 1_555
C7 H8 1_555 1_555
H9 C7 1_555 1_555
N16 Ag1 1_555 1_555
C8 N4 1_555 1_555
H10 C8 1_555 1_555
C9 N1 1_555 1_555
C10 N5 1_555 1_555
C11 C9 1_555 1_555
H11 C11 1_555 1_555
C12 C2 1_555 1_555
H12 C12 1_555 1_555
C13 C9 1_555 1_555
H13 C13 1_555 1_555
H14 C13 1_555 1_555
C14 C23 1_555 1_555
C15 C3 1_555 1_555
H15 C15 1_555 1_555
C16 N10 1_555 1_555
H16 C16 1_555 1_555
C17 N7 1_555 1_555
C18 C1 1_555 1_555
C19 N11 1_555 1_555
F12 Sb2 1_555 1_555
C20 N8 1_555 1_555
H17 C20 1_555 1_555
C21 H18 1_555 1_555
C22 N6 1_555 1_555
H19 C22 1_555 1_555
H20 C22 1_555 1_555
C23 N8 1_555 1_555
H21 C23 1_555 1_555
H22 C23 1_555 1_555
C24 C3 1_555 1_555
H23 C24 1_555 1_555
C25 C17 1_555 1_555
H24 C25 1_555 1_555
C26 N10 1_555 1_555
H25 C26 1_555 1_555
H26 C26 1_555 1_555
C27 C1 1_555 1_555
H27 C27 1_555 1_555
C28 C14 1_555 1_555
H28 C28 1_555 1_555
C29 C7 1_555 1_555
H29 C29 1_555 1_555
H30 C29 1_555 1_555
C30 H31 1_555 1_555
C31 C5 1_555 1_555
H32 C31 1_555 1_555
H33 C31 1_555 1_555
C32 C28 1_555 1_555
H34 C32 1_555 1_555
C33 N9 1_555 1_555
H35 C33 1_555 1_555
C34 C4 1_555 1_555
H36 C34 1_555 1_555
H37 C34 1_555 1_555
C35 N15 1_555 1_555
H38 C35 1_555 1_555
C36 N13 1_555 1_555
C37 C36 1_555 1_555
H39 C37 1_555 1_555
C38 C12 1_555 1_555
H40 C38 1_555 1_555
Ag1B N13 1_555 1_555
Ag2B N9 1_555 1_555
N9B Ag2 1_555 1_555
N13B Ag1 1_555 1_555
N3 N16 1_555 1_555
N5 N14 1_555 1_555
C5 C10 1_555 1_555
C6 C18 1_555 1_555
C7 C19 1_555 1_555
C8 C19 1_555 1_555
C10 C20 1_555 1_555
C13 C31 1_555 1_555
C17 C26 1_555 1_555
C21 C27 1_555 1_555
C21 C33 1_555 1_555
C22 C36 1_555 1_555
C24 C25 1_555 1_555
C29 C34 1_555 1_555
C30 C32 1_555 1_555
C30 C35 1_555 1_555
C37 C38 1_555 1_555

#END
