
#######################################################################
#
#                 Cambridge Crystallographic Data Centre
#                                CCDC 
#
#######################################################################
#
# If this CIF has been generated from an entry in the Cambridge 
# Structural Database, then it will include bibliographic, chemical, 
# crystal, experimental, refinement or atomic coordinate data resulting 
# from the CCDC's data processing and validation procedures.
#
#######################################################################

data_FUJLOM
_symmetry_cell_setting           monoclinic
_symmetry_space_group_name_H-M   'P 21/c'
_symmetry_Int_Tables_number      14
_space_group_name_Hall           '-P 2ybc'
loop_
_symmetry_equiv_pos_site_id
_symmetry_equiv_pos_as_xyz
1 x,y,z
2 -x,1/2+y,1/2-z
3 -x,-y,-z
4 x,1/2-y,1/2+z
_cell_length_a                   10.7454(3)
_cell_length_b                   11.3948(4)
_cell_length_c                   18.2357(8)
_cell_angle_alpha                90
_cell_angle_beta                 99.076(2)
_cell_angle_gamma                90
_cell_volume                     2204.85
loop_
_atom_site_label
_atom_site_type_symbol
_atom_site_fract_x
_atom_site_fract_y
_atom_site_fract_z
Ag1 Ag -0.5000 -1.0000 0.0000
Ag2 Ag 0.0000 0.0000 0.0000
N1 N -0.3691(4) -0.9627(4) -0.0716(3)
C1 C -0.3337(4) -0.8523(4) -0.0814(3)
H1 H -0.3662 -0.7919 -0.0539
C2 C -0.2522(4) -0.8218(4) -0.1294(3)
C3 C -0.2038(5) -0.9106(5) -0.1674(3)
H2 H -0.1468 -0.8928 -0.2008
C4 C -0.2377(7) -1.0254(5) -0.1572(4)
H3 H -0.2042 -1.0876 -0.1829
C5 C -0.3210(7) -1.0475(5) -0.1091(4)
H4 H -0.3454 -1.1264 -0.1023
C6 C -0.2162(5) -0.6953(4) -0.1376(3)
H5 H -0.1438 -0.6914 -0.1650
H6 H -0.2877 -0.6533 -0.1673
N2 N -0.1830(3) -0.6369(3) -0.0667(2)
H7 H -0.2282 -0.5775 -0.0548
C7 C -0.0825(4) -0.6742(4) -0.0192(3)
O1 O -0.0204(3) -0.7593(3) -0.03519(19)
C8 C -0.0491(4) -0.6135(4) 0.0538(3)
C9 C -0.1189(4) -0.5210(4) 0.0753(3)
H8 H -0.1906 -0.4936 0.0425
C10 C -0.0854(4) -0.4681(4) 0.1438(3)
C11 C 0.0188(4) -0.5093(4) 0.1916(3)
H9 H 0.0419 -0.4745 0.2392
C12 C 0.0892(5) -0.6009(4) 0.1701(3)
H10 H 0.1608 -0.6284 0.2029
C13 C 0.0564(4) -0.6528(4) 0.1016(3)
H11 H 0.1057 -0.7152 0.0870
C14 C -0.1557(5) -0.3658(4) 0.1685(3)
O2 O -0.1169(4) -0.3141(3) 0.2266(2)
N3 N -0.2630(4) -0.3332(3) 0.1252(2)
H12 H -0.2896 -0.3717 0.0839
C15 C -0.3352(5) -0.2351(4) 0.1462(3)
H13 H -0.3416 -0.2422 0.1996
H14 H -0.4216 -0.2397 0.1179
C16 C -0.2808(4) -0.1161(4) 0.1329(3)
C17 C -0.1890(4) -0.1044(4) 0.0884(3)
H15 H -0.1599 -0.1733 0.0671
N4 N -0.1384(3) -0.0005(3) 0.0735(2)
C18 C -0.1809(5) 0.0956(4) 0.1032(3)
H16 H -0.1461 0.1694 0.0933
C19 C -0.2732(5) 0.0921(4) 0.1476(3)
H17 H -0.3021 0.1623 0.1674
C20 C -0.3230(4) -0.0146(4) 0.1629(3)
H18 H -0.3862 -0.0188 0.1939
Ag2_2 Ag -1.0000 -2.0000 0.0000
N1B N -0.6309(4) -1.0373(4) 0.0716(3)
C1B C -0.6663(4) -1.1477(4) 0.0814(3)
H1B H -0.6338 -1.2081 0.0539
C2B C -0.7478(4) -1.1782(4) 0.1294(3)
C3B C -0.7962(5) -1.0894(5) 0.1674(3)
H2B H -0.8532 -1.1072 0.2008
C4B C -0.7623(7) -0.9746(5) 0.1572(4)
H3B H -0.7958 -0.9124 0.1829
C5B C -0.6790(7) -0.9525(5) 0.1091(4)
H4B H -0.6546 -0.8736 0.1023
C6B C -0.7838(5) -1.3047(4) 0.1376(3)
H5B H -0.8562 -1.3086 0.1650
H6B H -0.7123 -1.3467 0.1673
N2B N -0.8170(3) -1.3631(3) 0.0667(2)
H7B H -0.7718 -1.4225 0.0548
C7B C -0.9175(4) -1.3258(4) 0.0192(3)
O1B O -0.9796(3) -1.2407(3) 0.03519(19)
C8B C -0.9509(4) -1.3865(4) -0.0538(3)
C9B C -0.8811(4) -1.4790(4) -0.0753(3)
H8B H -0.8094 -1.5064 -0.0425
C10B C -0.9146(4) -1.5319(4) -0.1438(3)
C11B C -1.0188(4) -1.4907(4) -0.1916(3)
H9B H -1.0419 -1.5255 -0.2392
C12B C -1.0892(5) -1.3991(4) -0.1701(3)
H10B H -1.1608 -1.3716 -0.2029
C13B C -1.0564(4) -1.3472(4) -0.1016(3)
H11B H -1.1057 -1.2848 -0.0870
C14B C -0.8443(5) -1.6342(4) -0.1685(3)
O2B O -0.8831(4) -1.6859(3) -0.2266(2)
N3B N -0.7370(4) -1.6668(3) -0.1252(2)
H12B H -0.7104 -1.6283 -0.0839
C15B C -0.6648(5) -1.7649(4) -0.1462(3)
H13B H -0.6584 -1.7578 -0.1996
H14B H -0.5784 -1.7603 -0.1179
C16B C -0.7192(4) -1.8839(4) -0.1329(3)
C17B C -0.8110(4) -1.8956(4) -0.0884(3)
H15B H -0.8401 -1.8267 -0.0671
N4B N -0.8616(3) -1.9995(3) -0.0735(2)
N4B_2 N 0.1384(3) 0.0005(3) -0.0735(2)
C18B C -0.8191(5) -2.0956(4) -0.1032(3)
H16B H -0.8539 -2.1694 -0.0933
C19B C -0.7268(5) -2.0921(4) -0.1476(3)
H17B H -0.6979 -2.1623 -0.1674
C20B C -0.6770(4) -1.9854(4) -0.1629(3)
H18B H -0.6138 -1.9812 -0.1939
O3 O -0.6440(4) -0.5715(4) 0.0265(2)
O4 O -0.5213(4) -0.7309(3) 0.0312(2)
C21 C -0.5609(5) -0.6403(4) 0.0553(3)
C22 C -0.4977(5) -0.6062(5) 0.1339(3)
F1 F -0.5318(4) -0.6795(4) 0.1839(2)
F2 F -0.5235(4) -0.4983(3) 0.1545(2)
F3 F -0.3728(3) -0.6120(3) 0.1431(2)
loop_
_geom_bond_atom_site_label_1
_geom_bond_atom_site_label_2
_geom_bond_site_symmetry_1
_geom_bond_site_symmetry_2
Ag1 N1 1_555 1_555
Ag2 N4 1_555 1_555
N1 C1 1_555 1_555
C1 H1 1_555 1_555
C2 C1 1_555 1_555
C3 C2 1_555 1_555
H2 C3 1_555 1_555
C4 C3 1_555 1_555
H3 C4 1_555 1_555
C5 N1 1_555 1_555
H4 C5 1_555 1_555
C6 C2 1_555 1_555
H5 C6 1_555 1_555
H6 C6 1_555 1_555
N2 C6 1_555 1_555
H7 N2 1_555 1_555
C7 N2 1_555 1_555
O1 C7 1_555 1_555
C8 C7 1_555 1_555
C9 C8 1_555 1_555
H8 C9 1_555 1_555
C10 C9 1_555 1_555
C11 C10 1_555 1_555
H9 C11 1_555 1_555
C12 C11 1_555 1_555
H10 C12 1_555 1_555
C13 C8 1_555 1_555
H11 C13 1_555 1_555
C14 C10 1_555 1_555
O2 C14 1_555 1_555
N3 C14 1_555 1_555
H12 N3 1_555 1_555
C15 N3 1_555 1_555
H13 C15 1_555 1_555
H14 C15 1_555 1_555
C16 C15 1_555 1_555
C17 C16 1_555 1_555
H15 C17 1_555 1_555
N4 C17 1_555 1_555
C18 N4 1_555 1_555
H16 C18 1_555 1_555
C19 C18 1_555 1_555
H17 C19 1_555 1_555
C20 C16 1_555 1_555
H18 C20 1_555 1_555
O3 C21 1_555 1_555
O4 C21 1_555 1_555
C21 C22 1_555 1_555
C22 F1 1_555 1_555
F2 C22 1_555 1_555
F3 C22 1_555 1_555
Ag2_2 N4B 1_555 1_555
N1B Ag1 1_555 1_555
C1B N1B 1_555 1_555
H1B C1B 1_555 1_555
C2B C1B 1_555 1_555
C3B C2B 1_555 1_555
H2B C3B 1_555 1_555
C4B C3B 1_555 1_555
H3B C4B 1_555 1_555
C5B N1B 1_555 1_555
H4B C5B 1_555 1_555
C6B C2B 1_555 1_555
H5B C6B 1_555 1_555
H6B C6B 1_555 1_555
N2B C6B 1_555 1_555
H7B N2B 1_555 1_555
C7B N2B 1_555 1_555
O1B C7B 1_555 1_555
C8B C7B 1_555 1_555
C9B C8B 1_555 1_555
H8B C9B 1_555 1_555
C10B C9B 1_555 1_555
C11B C10B 1_555 1_555
H9B C11B 1_555 1_555
C12B C11B 1_555 1_555
H10B C12B 1_555 1_555
C13B C8B 1_555 1_555
H11B C13B 1_555 1_555
C14B C10B 1_555 1_555
O2B C14B 1_555 1_555
N3B C14B 1_555 1_555
H12B N3B 1_555 1_555
C15B N3B 1_555 1_555
H13B C15B 1_555 1_555
H14B C15B 1_555 1_555
C16B C15B 1_555 1_555
C17B C16B 1_555 1_555
H15B C17B 1_555 1_555
N4B C17B 1_555 1_555
N4B_2 Ag2 1_555 1_555
C18B N4B 1_555 1_555
H16B C18B 1_555 1_555
C19B C18B 1_555 1_555
H17B C19B 1_555 1_555
C20B C16B 1_555 1_555
H18B C20B 1_555 1_555
C4 C5 1_555 1_555
C12 C13 1_555 1_555
C19 C20 1_555 1_555
C4B C5B 1_555 1_555
C12B C13B 1_555 1_555
C19B C20B 1_555 1_555

#END
