
#######################################################################
#
#                 Cambridge Crystallographic Data Centre
#                                CCDC 
#
#######################################################################
#
# If this CIF has been generated from an entry in the Cambridge 
# Structural Database, then it will include bibliographic, chemical, 
# crystal, experimental, refinement or atomic coordinate data resulting 
# from the CCDC's data processing and validation procedures.
#
#######################################################################

data_FUJLUS
_symmetry_cell_setting           orthorhombic
_symmetry_space_group_name_H-M   'P b c a'
_symmetry_Int_Tables_number      61
_space_group_name_Hall           '-P 2ac 2ab'
loop_
_symmetry_equiv_pos_site_id
_symmetry_equiv_pos_as_xyz
1 x,y,z
2 1/2-x,-y,1/2+z
3 -x,1/2+y,1/2-z
4 1/2+x,1/2-y,-z
5 -x,-y,-z
6 1/2+x,y,1/2-z
7 x,1/2-y,1/2+z
8 1/2-x,1/2+y,z
_cell_length_a                   13.2247(5)
_cell_length_b                   9.6779(3)
_cell_length_c                   30.7686(11)
_cell_angle_alpha                90
_cell_angle_beta                 90
_cell_angle_gamma                90
_cell_volume                     3937.99
loop_
_atom_site_label
_atom_site_type_symbol
_atom_site_fract_x
_atom_site_fract_y
_atom_site_fract_z
Ag1 Ag 0.87893(3) 0.01992(4) 0.515465(12)
N1 N 0.8536(3) 0.1816(4) 0.46838(12)
C1 C 0.8621(3) 0.1596(5) 0.42544(14)
H1 H 0.8722 0.0678 0.4154
C2 C 0.8567(3) 0.2647(4) 0.39520(14)
C3 C 0.8433(3) 0.3983(4) 0.41028(14)
H2 H 0.8401 0.4734 0.3904
C4 C 0.8345(4) 0.4213(5) 0.45439(16)
H3 H 0.8260 0.5124 0.4652
C5 C 0.8384(3) 0.3119(5) 0.48217(15)
H4 H 0.8300 0.3281 0.5124
C6 C 0.8644(3) 0.2321(4) 0.34751(14)
H5 H 0.8849 0.3165 0.3316
H6 H 0.9176 0.1616 0.3431
N2 N 0.7693(2) 0.1812(3) 0.32957(10)
H7 H 0.7632 0.0923 0.3242
C7 C 0.6910(3) 0.2648(4) 0.32101(13)
O1 O 0.6958(2) 0.3916(3) 0.32605(9)
C8 C 0.5967(3) 0.1985(4) 0.30458(13)
C9 C 0.5038(3) 0.2587(4) 0.31400(12)
H8 H 0.5012 0.3393 0.3316
C10 C 0.4150(3) 0.2021(4) 0.29800(12)
C11 C 0.4193(3) 0.0848(4) 0.27175(13)
H9 H 0.3588 0.0461 0.2604
C12 C 0.5118(3) 0.0249(4) 0.26224(13)
H10 H 0.5147 -0.0551 0.2444
C13 C 0.5995(3) 0.0811(4) 0.27867(13)
H11 H 0.6627 0.0391 0.2722
C14 C 0.3158(3) 0.2700(4) 0.30846(13)
O2 O 0.3094(2) 0.3972(3) 0.31269(9)
N3 N 0.2360(2) 0.1867(3) 0.31234(10)
H12 H 0.2440 0.0977 0.3076
C15 C 0.1359(3) 0.2379(4) 0.32414(14)
H13 H 0.0841 0.1700 0.3150
H14 H 0.1227 0.3256 0.3086
C16 C 0.1275(3) 0.2621(4) 0.37292(14)
C17 C 0.1330(3) 0.1500(4) 0.40067(14)
H15 H 0.1423 0.0609 0.3884
N4 N 0.1259(3) 0.1605(4) 0.44396(12)
C18 C 0.1118(3) 0.2875(5) 0.46099(16)
H16 H 0.1070 0.2972 0.4916
C19 C 0.1040(4) 0.4032(5) 0.43530(16)
H17 H 0.0929 0.4913 0.4480
C20 C 0.1126(3) 0.3900(5) 0.39076(15)
H18 H 0.1083 0.4692 0.3726
Ag1D Ag 0.12107(3) -0.01992(4) 0.484535(12)
N4D N 0.8741(3) -0.1605(4) 0.55604(12)
O3 O 1.0346(3) 0.1282(4) 0.55555(13)
O4 O 0.9032(3) 0.2251(5) 0.58356(13)
O5 O 1.0473(4) 0.3250(4) 0.58664(14)
N5 N 0.9958(4) 0.2275(4) 0.57538(13)
loop_
_geom_bond_atom_site_label_1
_geom_bond_atom_site_label_2
_geom_bond_site_symmetry_1
_geom_bond_site_symmetry_2
Ag1 N1 1_555 1_555
N1 C1 1_555 1_555
C1 H1 1_555 1_555
C2 C1 1_555 1_555
C3 C2 1_555 1_555
H2 C3 1_555 1_555
C4 C3 1_555 1_555
H3 C4 1_555 1_555
C5 N1 1_555 1_555
H4 C5 1_555 1_555
C6 C2 1_555 1_555
H5 C6 1_555 1_555
H6 C6 1_555 1_555
N2 C6 1_555 1_555
H7 N2 1_555 1_555
C7 N2 1_555 1_555
O1 C7 1_555 1_555
C8 C7 1_555 1_555
C9 C8 1_555 1_555
H8 C9 1_555 1_555
C10 C9 1_555 1_555
C11 C10 1_555 1_555
H9 C11 1_555 1_555
C12 C11 1_555 1_555
H10 C12 1_555 1_555
C13 C8 1_555 1_555
H11 C13 1_555 1_555
C14 C10 1_555 1_555
O2 C14 1_555 1_555
N3 C14 1_555 1_555
H12 N3 1_555 1_555
C15 N3 1_555 1_555
H13 C15 1_555 1_555
H14 C15 1_555 1_555
C16 C15 1_555 1_555
C17 C16 1_555 1_555
H15 C17 1_555 1_555
N4 C17 1_555 1_555
C18 N4 1_555 1_555
H16 C18 1_555 1_555
C19 C18 1_555 1_555
H17 C19 1_555 1_555
C20 C16 1_555 1_555
H18 C20 1_555 1_555
O3 N5 1_555 1_555
O4 N5 1_555 1_555
O5 N5 1_555 1_555
Ag1D N4 1_555 1_555
N4D Ag1 1_555 1_555
C4 C5 1_555 1_555
C12 C13 1_555 1_555
C19 C20 1_555 1_555

#END
