
#######################################################################
#
#                 Cambridge Crystallographic Data Centre
#                                CCDC 
#
#######################################################################
#
# If this CIF has been generated from an entry in the Cambridge 
# Structural Database, then it will include bibliographic, chemical, 
# crystal, experimental, refinement or atomic coordinate data resulting 
# from the CCDC's data processing and validation procedures.
#
#######################################################################

data_FUJLIG
_symmetry_cell_setting           monoclinic
_symmetry_space_group_name_H-M   'C 2'
_symmetry_Int_Tables_number      5
_space_group_name_Hall           'C 2y'
loop_
_symmetry_equiv_pos_site_id
_symmetry_equiv_pos_as_xyz
1 x,y,z
2 -x,y,-z
3 1/2+x,1/2+y,z
4 1/2-x,1/2+y,-z
_cell_length_a                   16.4077(6)
_cell_length_b                   9.8095(4)
_cell_length_c                   14.9862(5)
_cell_angle_alpha                90
_cell_angle_beta                 93.438(2)
_cell_angle_gamma                90
_cell_volume                     2407.71
loop_
_atom_site_label
_atom_site_type_symbol
_atom_site_fract_x
_atom_site_fract_y
_atom_site_fract_z
Ag1 Ag 0.262114(17) 1.16285(4) 0.953970(18)
N1 N 0.16634(18) 1.1667(6) 0.84561(18)
C1 C 0.1777(3) 1.2315(5) 0.7683(3)
H1 H 0.2272 1.2802 0.7625
C2 C 0.1209(3) 1.2299(5) 0.6976(3)
H2 H 0.1315 1.2759 0.6438
C3 C 0.0474(2) 1.1610(8) 0.7048(2)
C4 C 0.0344(3) 1.0968(5) 0.7855(3)
H3 H -0.0154 1.0503 0.7938
C5 C 0.0949(3) 1.1019(5) 0.8529(3)
H4 H 0.0857 1.0573 0.9076
N2 N -0.01385(16) 1.1656(6) 0.63333(17)
C6 C -0.0422(3) 1.3033(6) 0.6038(4)
H5 H -0.0838 1.2943 0.5545
H6 H 0.0042 1.3557 0.5836
H7 H -0.0655 1.3508 0.6539
C7 C -0.0585(3) 1.0544(6) 0.6047(3)
O1 O -0.12125(18) 1.0708(3) 0.5568(2)
C8 C -0.0264(2) 0.9171(4) 0.6283(2)
C9 C -0.0814(2) 0.8248(5) 0.6620(3)
H8 H -0.1367 0.8499 0.6681
C10 C -0.0537(2) 0.6954(4) 0.6866(2)
C11 C 0.02595(19) 0.6572(8) 0.6708(2)
H9 H 0.0438 0.5677 0.6863
C12 C 0.0805(2) 0.7474(4) 0.6327(3)
C13 C 0.0526(2) 0.8774(4) 0.6143(3)
H10 H 0.0890 0.9421 0.5912
C14 C 0.1660(2) 0.6965(4) 0.6149(3)
C15 C 0.2173(3) 0.8093(5) 0.5756(3)
H11 H 0.1907 0.8405 0.5189
H12 H 0.2717 0.7738 0.5650
H13 H 0.2223 0.8858 0.6176
C16 C 0.1603(3) 0.5780(5) 0.5484(3)
H14 H 0.1335 0.6091 0.4919
H15 H 0.1285 0.5038 0.5729
H16 H 0.2154 0.5453 0.5379
C17 C 0.2087(2) 0.6476(8) 0.7030(3)
H17 H 0.2638 0.6157 0.6919
H18 H 0.1774 0.5727 0.7274
H19 H 0.2123 0.7232 0.7458
C18 C -0.1118(3) 0.5992(5) 0.7269(3)
O2 O -0.18133(17) 0.5840(3) 0.6953(2)
N3 N -0.0825(2) 0.5206(4) 0.7988(2)
C19 C -0.1345(3) 0.4057(6) 0.8259(4)
H20 H -0.1809 0.3951 0.7821
H21 H -0.1547 0.4246 0.8849
H22 H -0.1023 0.3215 0.8286
C20 C -0.0116(3) 0.5530(5) 0.8524(3)
C21 C 0.0078(3) 0.6875(5) 0.8758(3)
H23 H -0.0275 0.7602 0.8570
C22 C 0.0794(3) 0.7131(5) 0.9270(3)
H24 H 0.0924 0.8050 0.9418
N4 N 0.1313(2) 0.6153(4) 0.9569(2)
C23 C 0.1108(3) 0.4876(5) 0.9344(3)
H25 H 0.1470 0.4168 0.9545
C24 C 0.0414(3) 0.4507(5) 0.8842(3)
H26 H 0.0299 0.3576 0.8715
Ag1C Ag 0.237886(17) 0.66285(4) 1.046030(18)
N4C N 0.3687(2) 1.1153(4) 1.0431(2)
N5 N 0.3384(3) 1.4780(4) 0.9128(3)
O3 O 0.29994(19) 1.4270(3) 0.9754(2)
O4 O 0.3531(3) 1.4082(5) 0.8459(3)
O5 O 0.3599(3) 1.5994(4) 0.9192(3)
loop_
_geom_bond_atom_site_label_1
_geom_bond_atom_site_label_2
_geom_bond_site_symmetry_1
_geom_bond_site_symmetry_2
Ag1 N1 1_555 1_555
N1 C1 1_555 1_555
C1 H1 1_555 1_555
C2 C1 1_555 1_555
H2 C2 1_555 1_555
C3 C2 1_555 1_555
C4 C3 1_555 1_555
H3 C4 1_555 1_555
C5 N1 1_555 1_555
H4 C5 1_555 1_555
N2 C3 1_555 1_555
C6 N2 1_555 1_555
H5 C6 1_555 1_555
H6 C6 1_555 1_555
H7 C6 1_555 1_555
C7 N2 1_555 1_555
O1 C7 1_555 1_555
C8 C7 1_555 1_555
C9 C8 1_555 1_555
H8 C9 1_555 1_555
C10 C9 1_555 1_555
C11 C10 1_555 1_555
H9 C11 1_555 1_555
C12 C11 1_555 1_555
C13 C8 1_555 1_555
H10 C13 1_555 1_555
C14 C12 1_555 1_555
C15 C14 1_555 1_555
H11 C15 1_555 1_555
H12 C15 1_555 1_555
H13 C15 1_555 1_555
C16 C14 1_555 1_555
H14 C16 1_555 1_555
H15 C16 1_555 1_555
H16 C16 1_555 1_555
C17 C14 1_555 1_555
H17 C17 1_555 1_555
H18 C17 1_555 1_555
H19 C17 1_555 1_555
C18 C10 1_555 1_555
O2 C18 1_555 1_555
N3 C18 1_555 1_555
C19 N3 1_555 1_555
H20 C19 1_555 1_555
H21 C19 1_555 1_555
H22 C19 1_555 1_555
C20 N3 1_555 1_555
C21 C20 1_555 1_555
H23 C21 1_555 1_555
C22 C21 1_555 1_555
H24 C22 1_555 1_555
N4 C22 1_555 1_555
C23 N4 1_555 1_555
H25 C23 1_555 1_555
C24 C20 1_555 1_555
H26 C24 1_555 1_555
N5 O3 1_555 1_555
O4 N5 1_555 1_555
O5 N5 1_555 1_555
Ag1C N4 1_555 1_555
N4C Ag1 1_555 1_555
C4 C5 1_555 1_555
C12 C13 1_555 1_555
C23 C24 1_555 1_555

#END
