
#######################################################################
#
#                 Cambridge Crystallographic Data Centre
#                                CCDC 
#
#######################################################################
#
# If this CIF has been generated from an entry in the Cambridge 
# Structural Database, then it will include bibliographic, chemical, 
# crystal, experimental, refinement or atomic coordinate data resulting 
# from the CCDC's data processing and validation procedures.
#
#######################################################################

data_FUJMON
_symmetry_cell_setting           triclinic
_symmetry_space_group_name_H-M   'P -1'
_symmetry_Int_Tables_number      2
_space_group_name_Hall           '-P 1'
loop_
_symmetry_equiv_pos_site_id
_symmetry_equiv_pos_as_xyz
1 x,y,z
2 -x,-y,-z
_cell_length_a                   10.340(5)
_cell_length_b                   11.737(6)
_cell_length_c                   12.916(6)
_cell_angle_alpha                95.039(8)
_cell_angle_beta                 113.367(7)
_cell_angle_gamma                98.987(8)
_cell_volume                     1401.74
loop_
_atom_site_label
_atom_site_type_symbol
_atom_site_fract_x
_atom_site_fract_y
_atom_site_fract_z
C1 C -0.3440(5) -0.0345(3) 0.6902(4)
H1 H -0.2443 -0.0426 0.7106
H2 H -0.3983 -0.0534 0.6069
H3 H -0.3884 -0.0882 0.7265
C2 C -0.5022(4) 0.0999(4) 0.6976(4)
H4 H -0.5456 0.0459 0.7343
H5 H -0.5555 0.0795 0.6144
H6 H -0.5062 0.1801 0.7225
C3 C -0.2629(5) 0.1228(5) 0.8597(3)
H7 H -0.3098 0.0724 0.8969
H8 H -0.2614 0.2047 0.8837
H9 H -0.1639 0.1120 0.8816
C4 C -0.3455(3) 0.0908(3) 0.7313(3)
C5 C -0.2676(3) 0.1717(2) 0.6771(2)
C6 C -0.3407(3) 0.2380(3) 0.5976(3)
H10 H -0.4403 0.2328 0.5786
C7 C -0.2768(3) 0.3117(2) 0.5441(2)
C8 C -0.3654(3) 0.3771(2) 0.4570(2)
C9 C -0.2944(3) 0.4563(2) 0.4131(2)
H11 H -0.1929 0.4666 0.4393
C10 C -0.3677(3) 0.5210(2) 0.3321(2)
C11 C -0.5171(3) 0.5077(3) 0.2962(3)
H12 H -0.5688 0.5525 0.2424
C12 C -0.5882(3) 0.4297(3) 0.3392(3)
H13 H -0.6894 0.4210 0.3144
C13 C -0.5154(3) 0.3639(3) 0.4178(3)
H14 H -0.5669 0.3094 0.4454
C14 C -0.2819(3) 0.6027(2) 0.2882(2)
C15 C -0.3516(3) 0.6441(3) 0.1863(3)
H15 H -0.4533 0.6197 0.1472
C16 C -0.2799(3) 0.7193(3) 0.1389(2)
C17 C -0.3614(3) 0.7559(3) 0.0233(3)
C18 C -0.3634(5) 0.8857(3) 0.0462(3)
H16 H -0.4121 0.8970 0.0966
H17 H -0.4151 0.9117 -0.0263
H18 H -0.2643 0.9313 0.0830
C19 C -0.2783(5) 0.7407(5) -0.0495(3)
H19 H -0.1842 0.7945 -0.0138
H20 H -0.3326 0.7576 -0.1260
H21 H -0.2646 0.6600 -0.0557
C20 C -0.5159(4) 0.6875(4) -0.0407(3)
H22 H -0.5167 0.6036 -0.0489
H23 H -0.5583 0.7097 -0.1166
H24 H -0.5720 0.7052 0.0022
C21 C 0.1281(3) 0.9586(3) 0.5201(3)
H25 H 0.1986 0.9135 0.5642
H26 H 0.1634 0.9938 0.4668
C22 C -0.1208(3) 0.9443(3) 0.3980(3)
H27 H -0.2158 0.8898 0.3611
H28 H -0.1008 0.9787 0.3373
N2 N -0.0105(3) 0.8786(2) 0.4538(2)
H41 H -0.044(4) 0.847(3) 0.501(2)
O2 O -0.1349(2) 0.16978(19) 0.71088(18)
O3 O -0.1444(2) 0.32869(18) 0.56267(18)
O4 O -0.1468(2) 0.62552(18) 0.34849(17)
O5 O -0.1469(2) 0.76494(19) 0.18594(18)
Cu1 Cu 0.00404(4) 0.26409(3) 0.67301(3)
C1A C 0.3440(5) 1.0345(3) 0.3098(4)
H1A H 0.2443 1.0426 0.2894
H2A H 0.3983 1.0534 0.3931
H3A H 0.3884 1.0882 0.2735
C2A C 0.5022(4) 0.9001(4) 0.3024(4)
H4A H 0.5456 0.9541 0.2657
H5A H 0.5555 0.9205 0.3856
H6A H 0.5062 0.8199 0.2775
C3A C 0.2629(5) 0.8772(5) 0.1403(3)
H7A H 0.3098 0.9276 0.1031
H8A H 0.2614 0.7953 0.1163
H9A H 0.1639 0.8880 0.1184
C4A C 0.3455(3) 0.9092(3) 0.2687(3)
C5A C 0.2676(3) 0.8283(2) 0.3229(2)
C6A C 0.3407(3) 0.7620(3) 0.4024(3)
H10A H 0.4403 0.7672 0.4214
C7A C 0.2768(3) 0.6883(2) 0.4559(2)
C8A C 0.3654(3) 0.6229(2) 0.5430(2)
C9A C 0.2944(3) 0.5437(2) 0.5869(2)
H11A H 0.1929 0.5334 0.5607
C10A C 0.3677(3) 0.4790(2) 0.6679(2)
C11A C 0.5171(3) 0.4923(3) 0.7038(3)
H12A H 0.5688 0.4475 0.7576
C12A C 0.5882(3) 0.5703(3) 0.6608(3)
H13A H 0.6894 0.5790 0.6856
C13A C 0.5154(3) 0.6361(3) 0.5822(3)
H14A H 0.5669 0.6906 0.5546
C14A C 0.2819(3) 0.3973(2) 0.7118(2)
C15A C 0.3516(3) 0.3559(3) 0.8137(3)
H15A H 0.4533 0.3803 0.8528
C16A C 0.2799(3) 0.2807(3) 0.8611(2)
C17A C 0.3614(3) 0.2441(3) 0.9767(3)
C18A C 0.3634(5) 0.1143(3) 0.9538(3)
H16A H 0.4121 0.1030 0.9034
H17A H 0.4151 0.0883 1.0263
H18A H 0.2643 0.0687 0.9170
C19A C 0.2783(5) 0.2593(5) 1.0495(3)
H19A H 0.1842 0.2055 1.0138
H20A H 0.3326 0.2424 1.1260
H21A H 0.2646 0.3400 1.0557
C20A C 0.5159(4) 0.3125(4) 1.0407(3)
H22A H 0.5167 0.3964 1.0489
H23A H 0.5583 0.2903 1.1166
H24A H 0.5720 0.2948 0.9978
C21A C -0.1281(3) 1.0414(3) 0.4799(3)
H25A H -0.1986 1.0865 0.4358
H26A H -0.1634 1.0062 0.5332
C22A C 0.1208(3) 1.0557(3) 0.6020(3)
H27A H 0.2158 1.1102 0.6389
H28A H 0.1008 1.0213 0.6627
N2A N 0.0105(3) 0.1214(2) 0.5462(2)
N2A_2 N 0.0105(3) 1.1214(2) 0.5462(2)
H41A H 0.044(4) 0.153(3) 0.499(2)
H41A_2 H 0.044(4) 1.153(3) 0.499(2)
O2A O 0.1349(2) 0.83022(19) 0.28912(18)
O3A O 0.1444(2) 0.67131(18) 0.43733(18)
O4A O 0.1468(2) 0.37448(18) 0.65151(17)
O5A O 0.1469(2) 0.23506(19) 0.81406(18)
Cu1A Cu -0.00404(4) 0.73591(3) 0.32699(3)
Cu1_2 Cu 0.00404(4) 1.26409(3) 0.67301(3)
C23 C -0.1350(4) 0.3015(4) 0.2715(4)
H29 H -0.1668 0.3671 0.2316
H30 H -0.1977 0.2769 0.3103
C24 C 0.0197(4) 0.3360(4) 0.3551(3)
H31 H 0.0715 0.4007 0.3328
H32 H 0.0277 0.3616 0.4329
O1 O 0.0776(3) 0.2336(3) 0.3516(3)
C25 C 0.0110(6) 0.1813(5) 0.2334(4)
H33 H 0.0107 0.0966 0.2252
H34 H 0.0633 0.2184 0.1913
C26 C -0.1383(5) 0.2006(5) 0.1889(4)
H35 H -0.2063 0.1298 0.1864
H36 H -0.1680 0.2203 0.1109
C27 C 0.0647(8) 0.5519(7) 0.1115(4)
H37 H 0.0590 0.6351 0.1239
H38 H 0.1101 0.5306 0.1884
C28 C -0.0877(8) 0.4838(9) 0.0595(6)
H39 H -0.0877 0.4106 0.0921
H40 H -0.1441 0.5293 0.0869
N1 N -0.1659(9) 0.4518(6) -0.0621(7)
C27A C -0.0647(8) 0.4481(7) -0.1115(4)
H37A H -0.0590 0.3649 -0.1239
H38A H -0.1101 0.4694 -0.1884
C28A C 0.0877(8) 0.5162(9) -0.0595(6)
H39A H 0.0877 0.5894 -0.0921
H40A H 0.1441 0.4707 -0.0869
N1A N 0.1659(9) 0.5482(6) 0.0621(7)
loop_
_geom_bond_atom_site_label_1
_geom_bond_atom_site_label_2
_geom_bond_site_symmetry_1
_geom_bond_site_symmetry_2
C1 H1 1_555 1_555
H2 C1 1_555 1_555
H3 C1 1_555 1_555
C2 H4 1_555 1_555
H5 C2 1_555 1_555
H6 C2 1_555 1_555
C3 H7 1_555 1_555
H8 C3 1_555 1_555
H9 C3 1_555 1_555
C4 C1 1_555 1_555
C5 C4 1_555 1_555
C6 C5 1_555 1_555
H10 C6 1_555 1_555
C7 C6 1_555 1_555
C8 C7 1_555 1_555
C9 C8 1_555 1_555
H11 C9 1_555 1_555
C10 C9 1_555 1_555
C11 C10 1_555 1_555
H12 C11 1_555 1_555
C12 C11 1_555 1_555
H13 C12 1_555 1_555
C13 C8 1_555 1_555
H14 C13 1_555 1_555
C14 C10 1_555 1_555
C15 C14 1_555 1_555
H15 C15 1_555 1_555
C16 C15 1_555 1_555
C17 C16 1_555 1_555
C18 C17 1_555 1_555
H16 C18 1_555 1_555
H17 C18 1_555 1_555
H18 C18 1_555 1_555
C19 C17 1_555 1_555
H19 C19 1_555 1_555
H20 C19 1_555 1_555
H21 C19 1_555 1_555
C20 C17 1_555 1_555
H22 C20 1_555 1_555
H23 C20 1_555 1_555
H24 C20 1_555 1_555
C21 H25 1_555 1_555
H26 C21 1_555 1_555
C22 H27 1_555 1_555
H28 C22 1_555 1_555
C23 H29 1_555 1_555
H30 C23 1_555 1_555
C24 C23 1_555 1_555
H31 C24 1_555 1_555
H32 C24 1_555 1_555
O1 C24 1_555 1_555
C25 O1 1_555 1_555
H33 C25 1_555 1_555
H34 C25 1_555 1_555
C26 C23 1_555 1_555
H35 C26 1_555 1_555
H36 C26 1_555 1_555
C27 H37 1_555 1_555
H38 C27 1_555 1_555
C28 C27 1_555 1_555
H39 C28 1_555 1_555
H40 C28 1_555 1_555
N1 C28 1_555 1_555
N2 C21 1_555 1_555
H41 N2 1_555 1_555
O2 C5 1_555 1_555
O3 C7 1_555 1_555
O4 C14 1_555 1_555
O5 C16 1_555 1_555
Cu1 O2 1_555 1_555
C1A H1A 1_555 1_555
H2A C1A 1_555 1_555
H3A C1A 1_555 1_555
C2A H4A 1_555 1_555
H5A C2A 1_555 1_555
H6A C2A 1_555 1_555
C3A H7A 1_555 1_555
H8A C3A 1_555 1_555
H9A C3A 1_555 1_555
C4A C1A 1_555 1_555
C5A C4A 1_555 1_555
C6A C5A 1_555 1_555
H10A C6A 1_555 1_555
C7A C6A 1_555 1_555
C8A C7A 1_555 1_555
C9A C8A 1_555 1_555
H11A C9A 1_555 1_555
C10A C9A 1_555 1_555
C11A C10A 1_555 1_555
H12A C11A 1_555 1_555
C12A C11A 1_555 1_555
H13A C12A 1_555 1_555
C13A C8A 1_555 1_555
H14A C13A 1_555 1_555
C14A C10A 1_555 1_555
C15A C14A 1_555 1_555
H15A C15A 1_555 1_555
C16A C15A 1_555 1_555
C17A C16A 1_555 1_555
C18A C17A 1_555 1_555
H16A C18A 1_555 1_555
H17A C18A 1_555 1_555
H18A C18A 1_555 1_555
C19A C17A 1_555 1_555
H19A C19A 1_555 1_555
H20A C19A 1_555 1_555
H21A C19A 1_555 1_555
C20A C17A 1_555 1_555
H22A C20A 1_555 1_555
H23A C20A 1_555 1_555
H24A C20A 1_555 1_555
C21A C22 1_555 1_555
H25A C21A 1_555 1_555
H26A C21A 1_555 1_555
C22A C21 1_555 1_555
H27A C22A 1_555 1_555
H28A C22A 1_555 1_555
C27A N1 1_555 1_555
H37A C27A 1_555 1_555
H38A C27A 1_555 1_555
C28A C27A 1_555 1_555
H39A C28A 1_555 1_555
H40A C28A 1_555 1_555
N1A C27 1_555 1_555
N2A Cu1 1_555 1_555
N2A_2 C21A 1_555 1_555
H41A N2A 1_555 1_555
H41A_2 N2A_2 1_555 1_555
O2A C5A 1_555 1_555
O3A C7A 1_555 1_555
O4A Cu1 1_555 1_555
O5A Cu1 1_555 1_555
Cu1A N2 1_555 1_555
Cu1_2 N2A_2 1_555 1_555
C2 C4 1_555 1_555
C3 C4 1_555 1_555
C12 C13 1_555 1_555
C22 N2 1_555 1_555
C25 C26 1_555 1_555
O3 Cu1 1_555 1_555
O4 Cu1A 1_555 1_555
O5 Cu1A 1_555 1_555
C2A C4A 1_555 1_555
C3A C4A 1_555 1_555
C12A C13A 1_555 1_555
C14A O4A 1_555 1_555
C16A O5A 1_555 1_555
C22A N2A_2 1_555 1_555
C28A N1A 1_555 1_555
O2A Cu1A 1_555 1_555
O3A Cu1A 1_555 1_555

#END
