
#######################################################################
#
#                 Cambridge Crystallographic Data Centre
#                                CCDC 
#
#######################################################################
#
# If this CIF has been generated from an entry in the Cambridge 
# Structural Database, then it will include bibliographic, chemical, 
# crystal, experimental, refinement or atomic coordinate data resulting 
# from the CCDC's data processing and validation procedures.
#
#######################################################################

data_FUJNAB
_symmetry_cell_setting           orthorhombic
_symmetry_space_group_name_H-M   'F d d 2'
_symmetry_Int_Tables_number      43
_space_group_name_Hall           'F 2 -2d'
loop_
_symmetry_equiv_pos_site_id
_symmetry_equiv_pos_as_xyz
1 x,y,z
2 -x,-y,z
3 1/4+x,1/4-y,1/4+z
4 1/4-x,1/4+y,1/4+z
5 x,1/2+y,1/2+z
6 -x,1/2-y,1/2+z
7 1/4+x,3/4-y,3/4+z
8 1/4-x,3/4+y,3/4+z
9 1/2+x,y,1/2+z
10 1/2-x,-y,1/2+z
11 3/4+x,1/4-y,3/4+z
12 3/4-x,1/4+y,3/4+z
13 1/2+x,1/2+y,z
14 1/2-x,1/2-y,z
15 3/4+x,3/4-y,1/4+z
16 3/4-x,3/4+y,1/4+z
_cell_length_a                   26.0861(5)
_cell_length_b                   30.9255(7)
_cell_length_c                   6.69420(10)
_cell_angle_alpha                90
_cell_angle_beta                 90
_cell_angle_gamma                90
_cell_volume                     5400.38
loop_
_atom_site_label
_atom_site_type_symbol
_atom_site_fract_x
_atom_site_fract_y
_atom_site_fract_z
C1 C 0.59225(16) 0.95634(13) 0.3731(5)
C2 C 0.60668(14) 0.92826(13) 0.5442(6)
C3 C 0.58689(16) 0.88803(15) 0.7978(6)
H1 H 0.5683 0.8723 0.8917
C4 C 0.65202(15) 0.91589(12) 0.6352(5)
C5 C 0.70693(14) 0.92508(13) 0.5898(5)
C6 C 0.39119(16) 0.93218(13) 0.4295(6)
C7 C 0.40271(14) 0.94781(13) 0.6383(5)
C8 C 0.45313(14) 0.95817(13) 0.8896(5)
H2 H 0.4820 0.9585 0.9713
C9 C 0.37445(14) 0.96832(12) 0.7840(5)
C10 C 0.32072(13) 0.98368(11) 0.8018(5)
Ca1 Ca 0.71084(3) 1.01053(3) 0.30481(9)
N1 N 0.56639(13) 0.91061(12) 0.6506(5)
N2 N 0.63777(12) 0.89088(11) 0.7931(4)
H3 H 0.6584 0.8788 0.8766
N3 N 0.45184(11) 0.94169(10) 0.7057(4)
N4 N 0.40766(11) 0.97403(10) 0.9402(4)
H4 H 0.4003 0.9859 1.0527
O1 O 0.54545(10) 0.95551(9) 0.3209(4)
O2 O 0.62461(10) 0.97959(9) 0.2880(4)
O3 O 0.71752(10) 0.93687(10) 0.4160(4)
O4 O 0.73842(9) 0.92165(8) 0.7303(5)
O5 O 0.43052(11) 0.91802(9) 0.3374(4)
O6 O 0.34756(10) 0.93287(9) 0.3623(4)
O7 O 0.30640(9) 0.99721(10) 0.9680(4)
O8 O 0.29205(9) 0.98355(9) 0.6514(3)
O9 O 0.51092(14) 0.85914(10) 0.3648(5)
H5 H 0.4890(17) 0.8413(13) 0.438(6)
H6 H 0.5107(18) 0.8504(14) 0.232(3)
Zn1 Zn 0.499616(17) 0.917652(13) 0.48907(6)
Ca1A Ca 0.28916(3) 0.98947(3) 0.30481(9)
Ca1A_2 Ca 0.28916(3) 0.98947(3) 1.30481(9)
Ca1H Ca 0.21084(3) 1.01053(3) 0.80481(9)
Ca1I Ca 0.78916(3) 0.98947(3) 0.80481(9)
O4I O 0.76158(9) 1.07835(8) 0.2303(5)
O6A O 0.65244(10) 1.06713(9) 0.3623(4)
O7A O 0.69360(9) 1.00279(10) -0.0320(4)
O7H O 0.80640(9) 0.99721(10) 0.4680(4)
O8A O 0.70795(9) 1.01645(9) 0.6514(3)
O8H O 0.79205(9) 0.98355(9) 0.1514(3)
loop_
_geom_bond_atom_site_label_1
_geom_bond_atom_site_label_2
_geom_bond_site_symmetry_1
_geom_bond_site_symmetry_2
C1 C2 1_555 1_555
C2 C4 1_555 1_555
C3 H1 1_555 1_555
C4 C5 1_555 1_555
C5 O3 1_555 1_555
C6 C7 1_555 1_555
C7 C9 1_555 1_555
C8 H2 1_555 1_555
C9 C10 1_555 1_555
C10 O7 1_555 1_555
Ca1 O2 1_555 1_555
N1 C2 1_555 1_555
N2 C3 1_555 1_555
H3 N2 1_555 1_555
N3 C7 1_555 1_555
N4 C8 1_555 1_555
H4 N4 1_555 1_555
O1 C1 1_555 1_555
O2 C1 1_555 1_555
O3 Ca1 1_555 1_555
O4 C5 1_555 1_555
O5 C6 1_555 1_555
O6 C6 1_555 1_555
O7 Ca1A_2 1_555 1_555
O8 C10 1_555 1_555
O9 H5 1_555 1_555
H6 O9 1_555 1_555
Zn1 N1 1_555 1_555
Ca1A O6 1_555 1_555
Ca1H O7 1_555 1_555
Ca1I O4 1_555 1_555
O4I Ca1 1_555 1_555
O6A Ca1 1_555 1_555
O7A Ca1 1_555 1_555
O7H Ca1 1_555 1_555
O8A Ca1 1_555 1_555
O8H Ca1 1_555 1_555
C3 N1 1_555 1_555
C4 N2 1_555 1_555
C8 N3 1_555 1_555
C9 N4 1_555 1_555
N3 Zn1 1_555 1_555
O1 Zn1 1_555 1_555
O5 Zn1 1_555 1_555
O8 Ca1A 1_555 1_555
O8 Ca1H 1_555 1_555
O9 Zn1 1_555 1_555
Ca1I O7H 1_555 1_555
Ca1I O8A 1_555 1_555

#END
