
#######################################################################
#
#                 Cambridge Crystallographic Data Centre
#                                CCDC 
#
#######################################################################
#
# If this CIF has been generated from an entry in the Cambridge 
# Structural Database, then it will include bibliographic, chemical, 
# crystal, experimental, refinement or atomic coordinate data resulting 
# from the CCDC's data processing and validation procedures.
#
#######################################################################

data_FUJQUY
_symmetry_cell_setting           triclinic
_symmetry_space_group_name_H-M   'P -1'
_symmetry_Int_Tables_number      2
_space_group_name_Hall           '-P 1'
loop_
_symmetry_equiv_pos_site_id
_symmetry_equiv_pos_as_xyz
1 x,y,z
2 -x,-y,-z
_cell_length_a                   11.2105(12)
_cell_length_b                   14.9020(13)
_cell_length_c                   18.6977(14)
_cell_angle_alpha                86.8150(10)
_cell_angle_beta                 87.116(2)
_cell_angle_gamma                85.6220(10)
_cell_volume                     3106.36
loop_
_atom_site_label
_atom_site_type_symbol
_atom_site_fract_x
_atom_site_fract_y
_atom_site_fract_z
Ag1 Ag 0.44269(5) 0.20480(3) 0.25969(3)
Ag2 Ag 0.24899(4) 0.40702(3) 0.25472(3)
N1 N 0.5507(5) 0.0548(4) 0.2584(3)
N2 N 1.1054(5) -0.4522(4) 0.2417(3)
N3 N 0.1017(6) 0.3001(4) 0.2642(3)
P1 P 0.44439(14) 0.24057(10) 0.38403(9)
P2 P 0.32521(14) 0.43291(10) 0.37132(8)
P3 P 0.44327(15) 0.23610(11) 0.13128(9)
P4 P 0.32248(14) 0.42685(10) 0.12945(8)
C1 C 0.6667(7) 0.0512(5) 0.2639(4)
H1 H 0.7007 0.1043 0.2726
C2 C 0.7420(7) -0.0257(5) 0.2578(4)
H2 H 0.8239 -0.0236 0.2625
C3 C 0.6954(6) -0.1056(4) 0.2447(4)
C4 C 0.5724(7) -0.1029(5) 0.2395(4)
H3 H 0.5359 -0.1552 0.2315
C5 C 0.5038(7) -0.0224(5) 0.2464(4)
H4 H 0.4214 -0.0220 0.2425
C6 C 0.9851(6) -0.4534(4) 0.2426(3)
H5 H 0.9519 -0.5088 0.2440
C7 C 0.9090(6) -0.3759(4) 0.2415(3)
H6 H 0.8267 -0.3799 0.2418
C8 C 0.9558(6) -0.2914(4) 0.2402(3)
C9 C 1.0790(7) -0.2929(5) 0.2382(4)
H7 H 1.1149 -0.2385 0.2358
C10 C 1.1503(6) -0.3716(4) 0.2398(4)
H8 H 1.2329 -0.3688 0.2395
C11 C 0.7679(6) -0.1927(4) 0.2389(4)
H9 H 0.7263 -0.2434 0.2334
C12 C 0.8833(7) -0.2053(5) 0.2409(4)
H10 H 0.9249 -0.1539 0.2429
C13 C 0.4555(5) 0.3596(4) 0.4004(3)
H11 H 0.5271 0.3800 0.3753
H12 H 0.4639 0.3655 0.4513
C14 C 0.3185(5) 0.2033(4) 0.4410(3)
C15 C 0.2324(6) 0.1583(4) 0.4103(4)
H13 H 0.2385 0.1476 0.3617
C16 C 0.1363(7) 0.1293(5) 0.4534(5)
H14 H 0.0773 0.1000 0.4329
C17 C 0.1273(7) 0.1429(5) 0.5237(5)
H15 H 0.0624 0.1230 0.5516
C18 C 0.2139(8) 0.1862(5) 0.5547(4)
H16 H 0.2074 0.1949 0.6037
C19 C 0.3105(6) 0.2173(4) 0.5144(4)
H17 H 0.3687 0.2468 0.5355
C20 C 0.5774(6) 0.1883(4) 0.4267(4)
C21 C 0.5737(7) 0.1075(5) 0.4649(5)
H18 H 0.5017 0.0802 0.4708
C22 C 0.6746(8) 0.0662(6) 0.4945(6)
H19 H 0.6703 0.0111 0.5201
C23 C 0.7809(8) 0.1050(6) 0.4869(5)
H20 H 0.8491 0.0767 0.5069
C24 C 0.7857(7) 0.1838(5) 0.4506(5)
H21 H 0.8578 0.2109 0.4451
C25 C 0.6844(6) 0.2259(5) 0.4209(4)
H22 H 0.6895 0.2816 0.3963
C26 C 0.3759(6) 0.5461(4) 0.3748(3)
C27 C 0.2948(7) 0.6171(5) 0.3903(4)
H23 H 0.2163 0.6054 0.4037
C28 C 0.3258(8) 0.7045(5) 0.3867(4)
H24 H 0.2683 0.7510 0.3970
C29 C 0.4411(9) 0.7235(5) 0.3680(4)
H25 H 0.4631 0.7825 0.3660
C30 C 0.5235(8) 0.6542(6) 0.3524(5)
H26 H 0.6021 0.6662 0.3395
C31 C 0.4908(7) 0.5658(5) 0.3554(4)
H27 H 0.5478 0.5194 0.3442
C32 C 0.2191(5) 0.4255(4) 0.4480(3)
C33 C 0.1108(6) 0.3895(4) 0.4413(3)
H28 H 0.0904 0.3722 0.3968
C34 C 0.0324(6) 0.3788(5) 0.5001(4)
H29 H -0.0399 0.3534 0.4955
C35 C 0.0624(7) 0.4062(5) 0.5653(4)
H30 H 0.0099 0.3990 0.6050
C36 C 0.1694(7) 0.4443(5) 0.5729(4)
H31 H 0.1883 0.4633 0.6172
C37 C 0.2474(6) 0.4537(4) 0.5147(3)
H32 H 0.3196 0.4790 0.5195
C38 C 0.4544(5) 0.3546(4) 0.1001(3)
H33 H 0.4626 0.3585 0.0481
H34 H 0.5257 0.3765 0.1184
C39 C 0.3210(6) 0.1964(4) 0.0839(4)
C40 C 0.2371(6) 0.1452(4) 0.1212(4)
H35 H 0.2438 0.1312 0.1700
C41 C 0.1442(7) 0.1153(5) 0.0857(5)
H36 H 0.0881 0.0812 0.1107
C42 C 0.1337(7) 0.1353(5) 0.0142(5)
H37 H 0.0701 0.1149 -0.0089
C43 C 0.2149(7) 0.1847(5) -0.0240(4)
H38 H 0.2072 0.1978 -0.0728
C44 C 0.3094(6) 0.2151(4) 0.0111(4)
H39 H 0.3656 0.2483 -0.0147
C45 C 0.5785(6) 0.1803(4) 0.0907(4)
C46 C 0.6875(6) 0.2106(5) 0.1017(4)
H40 H 0.6916 0.2620 0.1273
C47 C 0.7923(7) 0.1661(5) 0.0753(5)
H41 H 0.8659 0.1880 0.0826
C48 C 0.7871(8) 0.0902(6) 0.0387(5)
H42 H 0.8572 0.0592 0.0219
C49 C 0.6786(8) 0.0600(6) 0.0268(6)
H43 H 0.6750 0.0089 0.0008
C50 C 0.5747(7) 0.1036(5) 0.0527(5)
H44 H 0.5014 0.0815 0.0446
C51 C 0.3719(6) 0.5408(4) 0.1157(3)
C52 C 0.4720(7) 0.5615(5) 0.1492(4)
H45 H 0.5198 0.5161 0.1722
C53 C 0.5019(8) 0.6513(6) 0.1489(5)
H46 H 0.5693 0.6653 0.1718
C54 C 0.4329(8) 0.7177(5) 0.1152(4)
H47 H 0.4529 0.7771 0.1152
C55 C 0.3347(8) 0.6977(5) 0.0814(4)
H48 H 0.2877 0.7434 0.0583
C56 C 0.3044(7) 0.6095(5) 0.0814(4)
H49 H 0.2372 0.5964 0.0578
C57 C 0.2173(6) 0.4188(4) 0.0598(3)
C58 C 0.2451(6) 0.4390(4) -0.0120(3)
H50 H 0.3193 0.4601 -0.0255
C59 C 0.1652(7) 0.4284(5) -0.0640(4)
H51 H 0.1852 0.4424 -0.1120
C60 C 0.0560(7) 0.3971(5) -0.0442(4)
H52 H 0.0024 0.3893 -0.0793
C61 C 0.0238(7) 0.3768(5) 0.0268(4)
H53 H -0.0509 0.3561 0.0393
C62 C 0.1041(6) 0.3877(4) 0.0791(4)
H54 H 0.0831 0.3745 0.1270
C63 C 0.0353(7) 0.2496(5) 0.2644(4)
C64 C -0.0526(7) 0.1818(6) 0.2652(5)
H55 H -0.0178 0.1252 0.2842
H56 H -0.0761 0.1752 0.2172
H57 H -0.1217 0.2006 0.2946
Ag2_2 Ag 1.24899(4) -0.59298(3) 0.25472(3)
N2_2 N 0.1054(5) 0.5478(4) 0.2417(3)
B1 B 0.1413(14) 0.9617(9) 0.2776(10)
F1 F 0.2173(8) 0.8941(5) 0.2761(6)
F2 F 0.0684(7) 0.9622(5) 0.2238(4)
F3 F 0.1960(5) 1.0398(3) 0.2782(3)
F4 F 0.0652(9) 0.9517(7) 0.3341(5)
B2 B 0.7279(10) 0.3967(7) 0.2430(6)
F5 F 0.6279(5) 0.3532(5) 0.2468(3)
F6 F 0.7081(5) 0.4897(4) 0.2379(4)
F7 F 0.8067(6) 0.3725(4) 0.1915(3)
F8 F 0.7835(6) 0.3857(5) 0.3062(3)
loop_
_geom_bond_atom_site_label_1
_geom_bond_atom_site_label_2
_geom_bond_site_symmetry_1
_geom_bond_site_symmetry_2
Ag1 N1 1_555 1_555
Ag2 N3 1_555 1_555
N1 C1 1_555 1_555
N2 C6 1_555 1_555
N3 C63 1_555 1_555
P1 Ag1 1_555 1_555
P2 Ag2 1_555 1_555
P3 Ag1 1_555 1_555
P4 Ag2 1_555 1_555
C1 H1 1_555 1_555
C2 C1 1_555 1_555
H2 C2 1_555 1_555
C3 C2 1_555 1_555
C4 C3 1_555 1_555
H3 C4 1_555 1_555
C5 N1 1_555 1_555
H4 C5 1_555 1_555
C6 H5 1_555 1_555
C7 C6 1_555 1_555
H6 C7 1_555 1_555
C8 C7 1_555 1_555
C9 C8 1_555 1_555
H7 C9 1_555 1_555
C10 N2 1_555 1_555
H8 C10 1_555 1_555
C11 C3 1_555 1_555
H9 C11 1_555 1_555
C12 C8 1_555 1_555
H10 C12 1_555 1_555
C13 P1 1_555 1_555
H11 C13 1_555 1_555
H12 C13 1_555 1_555
C14 P1 1_555 1_555
C15 C14 1_555 1_555
H13 C15 1_555 1_555
C16 C15 1_555 1_555
H14 C16 1_555 1_555
C17 C16 1_555 1_555
H15 C17 1_555 1_555
C18 C17 1_555 1_555
H16 C18 1_555 1_555
C19 C14 1_555 1_555
H17 C19 1_555 1_555
C20 P1 1_555 1_555
C21 C20 1_555 1_555
H18 C21 1_555 1_555
C22 C21 1_555 1_555
H19 C22 1_555 1_555
C23 C22 1_555 1_555
H20 C23 1_555 1_555
C24 C23 1_555 1_555
H21 C24 1_555 1_555
C25 C20 1_555 1_555
H22 C25 1_555 1_555
C26 P2 1_555 1_555
C27 C26 1_555 1_555
H23 C27 1_555 1_555
C28 C27 1_555 1_555
H24 C28 1_555 1_555
C29 C28 1_555 1_555
H25 C29 1_555 1_555
C30 C29 1_555 1_555
H26 C30 1_555 1_555
C31 C26 1_555 1_555
H27 C31 1_555 1_555
C32 P2 1_555 1_555
C33 C32 1_555 1_555
H28 C33 1_555 1_555
C34 C33 1_555 1_555
H29 C34 1_555 1_555
C35 C34 1_555 1_555
H30 C35 1_555 1_555
C36 C35 1_555 1_555
H31 C36 1_555 1_555
C37 C32 1_555 1_555
H32 C37 1_555 1_555
C38 P3 1_555 1_555
H33 C38 1_555 1_555
H34 C38 1_555 1_555
C39 P3 1_555 1_555
C40 C39 1_555 1_555
H35 C40 1_555 1_555
C41 C40 1_555 1_555
H36 C41 1_555 1_555
C42 C41 1_555 1_555
H37 C42 1_555 1_555
C43 C42 1_555 1_555
H38 C43 1_555 1_555
C44 C39 1_555 1_555
H39 C44 1_555 1_555
C45 P3 1_555 1_555
C46 C45 1_555 1_555
H40 C46 1_555 1_555
C47 C46 1_555 1_555
H41 C47 1_555 1_555
C48 C47 1_555 1_555
H42 C48 1_555 1_555
C49 C48 1_555 1_555
H43 C49 1_555 1_555
C50 C45 1_555 1_555
H44 C50 1_555 1_555
C51 P4 1_555 1_555
C52 C51 1_555 1_555
H45 C52 1_555 1_555
C53 C52 1_555 1_555
H46 C53 1_555 1_555
C54 C53 1_555 1_555
H47 C54 1_555 1_555
C55 C54 1_555 1_555
H48 C55 1_555 1_555
C56 C51 1_555 1_555
H49 C56 1_555 1_555
C57 P4 1_555 1_555
C58 C57 1_555 1_555
H50 C58 1_555 1_555
C59 C58 1_555 1_555
H51 C59 1_555 1_555
C60 C59 1_555 1_555
H52 C60 1_555 1_555
C61 C60 1_555 1_555
H53 C61 1_555 1_555
C62 C57 1_555 1_555
H54 C62 1_555 1_555
C63 C64 1_555 1_555
C64 H55 1_555 1_555
H56 C64 1_555 1_555
H57 C64 1_555 1_555
B1 F1 1_555 1_555
F2 B1 1_555 1_555
F3 B1 1_555 1_555
F4 B1 1_555 1_555
B2 F5 1_555 1_555
F6 B2 1_555 1_555
F7 B2 1_555 1_555
F8 B2 1_555 1_555
Ag2_2 N2 1_555 1_555
N2_2 Ag2 1_555 1_555
P2 C13 1_555 1_555
P4 C38 1_555 1_555
C4 C5 1_555 1_555
C9 C10 1_555 1_555
C11 C12 1_555 1_555
C18 C19 1_555 1_555
C24 C25 1_555 1_555
C30 C31 1_555 1_555
C36 C37 1_555 1_555
C43 C44 1_555 1_555
C49 C50 1_555 1_555
C55 C56 1_555 1_555
C61 C62 1_555 1_555

#END
