
#######################################################################
#
#                 Cambridge Crystallographic Data Centre
#                                CCDC 
#
#######################################################################
#
# If this CIF has been generated from an entry in the Cambridge 
# Structural Database, then it will include bibliographic, chemical, 
# crystal, experimental, refinement or atomic coordinate data resulting 
# from the CCDC's data processing and validation procedures.
#
#######################################################################

data_FUJRIM
_symmetry_cell_setting           orthorhombic
_symmetry_space_group_name_H-M   'P 21 21 21'
_symmetry_Int_Tables_number      19
_space_group_name_Hall           'P 2ac 2ab'
loop_
_symmetry_equiv_pos_site_id
_symmetry_equiv_pos_as_xyz
1 x,y,z
2 1/2-x,-y,1/2+z
3 1/2+x,1/2-y,-z
4 -x,1/2+y,1/2-z
_cell_length_a                   8.938(5)
_cell_length_b                   11.859(5)
_cell_length_c                   13.215(5)
_cell_angle_alpha                90
_cell_angle_beta                 90
_cell_angle_gamma                90
_cell_volume                     1400.73
loop_
_atom_site_label
_atom_site_type_symbol
_atom_site_fract_x
_atom_site_fract_y
_atom_site_fract_z
Cd1 Cd 0.31991(3) 0.74641(3) 1.023570(19)
C1 C 0.2342(5) 0.5079(4) 0.9285(3)
H1 H 0.1520 0.5045 0.9716
C2 C 0.2708(5) 0.4281(4) 0.8597(3)
H2 H 0.2206 0.3609 0.8471
C3 C 0.4322(4) 0.5659(3) 0.8551(3)
H3 H 0.5149 0.6093 0.8374
C4 C 0.4855(5) 0.4094(4) 0.7351(3)
H4 H 0.5554 0.4641 0.7059
C5 C 0.3848(5) 0.3638(4) 0.6492(3)
C6 C 0.5757(6) 0.3154(5) 0.7830(4)
H5 H 0.6388 0.3459 0.8350
H6 H 0.6365 0.2798 0.7323
H7 H 0.5091 0.2607 0.8120
C7 C 0.2106(6) 1.0929(4) 0.9430(3)
H8 H 0.2256 1.1702 0.9498
C8 C 0.2807(5) 1.0117(4) 0.9937(3)
H9 H 0.3539 1.0233 1.0426
C9 C 0.1291(5) 0.9302(4) 0.8935(3)
H10 H 0.0760 0.8753 0.8583
C10 C 0.0155(5) 1.0948(4) 0.8037(3)
H11 H -0.0497 1.0361 0.7759
C11 C 0.1060(6) 1.1431(4) 0.7158(3)
C12 C -0.0837(6) 1.1821(5) 0.8516(4)
H12 H -0.1396 1.1483 0.9057
H13 H -0.1515 1.2114 0.8018
H14 H -0.0233 1.2423 0.8779
N1 N 0.3346(4) 0.5939(3) 0.9257(2)
N2 N 0.3970(4) 0.4669(3) 0.8123(2)
N3 N 0.2291(4) 0.9083(3) 0.9630(2)
N4 N 0.1123(4) 1.0410(3) 0.8789(2)
O1 O 0.4470(3) 0.3044(2) 0.5831(2)
O2 O 0.2502(4) 0.3885(3) 0.6495(2)
O3 O 0.2425(4) 1.1323(3) 0.7157(3)
O4 O 0.0306(3) 1.1886(3) 0.6463(2)
Cd1A Cd 0.18009(3) 0.25359(3) 0.523570(19)
Cd1C Cd 0.68009(3) 0.24641(3) 0.476430(19)
Cd1A_2 Cd 0.18009(3) 1.25359(3) 0.523570(19)
O1A O 0.0530(3) 0.6956(2) 1.0831(2)
O1C O 0.5530(3) 0.8044(2) 0.9169(2)
O2A O 0.2498(4) 0.6115(3) 1.1495(2)
O4A O 0.4694(3) 0.8114(3) 1.1463(2)
loop_
_geom_bond_atom_site_label_1
_geom_bond_atom_site_label_2
_geom_bond_site_symmetry_1
_geom_bond_site_symmetry_2
Cd1 N1 1_555 1_555
C1 H1 1_555 1_555
C2 C1 1_555 1_555
H2 C2 1_555 1_555
C3 H3 1_555 1_555
C4 H4 1_555 1_555
C5 C4 1_555 1_555
C6 C4 1_555 1_555
H5 C6 1_555 1_555
H6 C6 1_555 1_555
H7 C6 1_555 1_555
C7 H8 1_555 1_555
C8 C7 1_555 1_555
H9 C8 1_555 1_555
C9 H10 1_555 1_555
C10 H11 1_555 1_555
C11 C10 1_555 1_555
C12 C10 1_555 1_555
H12 C12 1_555 1_555
H13 C12 1_555 1_555
H14 C12 1_555 1_555
N1 C1 1_555 1_555
N2 C2 1_555 1_555
N3 Cd1 1_555 1_555
N4 C7 1_555 1_555
O1 C5 1_555 1_555
O2 C5 1_555 1_555
O3 C11 1_555 1_555
O4 C11 1_555 1_555
Cd1A O1 1_555 1_555
Cd1C O1 1_555 1_555
Cd1A_2 O4 1_555 1_555
O1A Cd1 1_555 1_555
O1C Cd1 1_555 1_555
O2A Cd1 1_555 1_555
O4A Cd1 1_555 1_555
C3 N1 1_555 1_555
C3 N2 1_555 1_555
C4 N2 1_555 1_555
C8 N3 1_555 1_555
C9 N3 1_555 1_555
C9 N4 1_555 1_555
C10 N4 1_555 1_555
O2 Cd1A 1_555 1_555

#END
