
#######################################################################
#
#                 Cambridge Crystallographic Data Centre
#                                CCDC 
#
#######################################################################
#
# If this CIF has been generated from an entry in the Cambridge 
# Structural Database, then it will include bibliographic, chemical, 
# crystal, experimental, refinement or atomic coordinate data resulting 
# from the CCDC's data processing and validation procedures.
#
#######################################################################

data_FUJVAJ
_symmetry_cell_setting           monoclinic
_symmetry_space_group_name_H-M   'P 21/n'
_symmetry_Int_Tables_number      14
_space_group_name_Hall           '-P 2yn'
loop_
_symmetry_equiv_pos_site_id
_symmetry_equiv_pos_as_xyz
1 x,y,z
2 1/2-x,1/2+y,1/2-z
3 -x,-y,-z
4 1/2+x,1/2-y,1/2+z
_cell_length_a                   7.5065(4)
_cell_length_b                   23.1877(13)
_cell_length_c                   16.3361(9)
_cell_angle_alpha                90
_cell_angle_beta                 102.2830(10)
_cell_angle_gamma                90
_cell_volume                     2778.35
loop_
_atom_site_label
_atom_site_type_symbol
_atom_site_fract_x
_atom_site_fract_y
_atom_site_fract_z
Zn1 Zn -0.22813(3) 0.244295(10) 0.924386(15)
Zn2 Zn -0.10122(3) 0.257650(10) 0.730096(15)
N1 N 0.3527(2) 0.74288(7) 0.34419(12)
N2 N 0.5660(3) 0.74799(7) 0.45798(12)
N3 N 0.4454(3) 0.79338(8) 0.34390(11)
N4 N 0.9360(2) -0.20160(8) 0.57534(11)
N5 N 0.0324(2) 0.32484(7) 0.69177(11)
N6 N 0.0234(2) 0.18511(7) 0.70050(11)
N7 N 1.0945(3) -0.22635(10) 0.56709(13)
N8 N 1.2198(3) -0.18638(9) 0.57732(13)
N9 N 1.1483(3) -0.13482(9) 0.59271(13)
C1 C 0.4305(3) 0.71589(9) 0.41558(12)
C2 C 0.3799(3) 0.65885(9) 0.44286(13)
C3 C 0.5483(3) -0.05644(10) 0.58035(14)
H1 H 0.4262 -0.0569 0.5531
C4 C 0.6628(3) -0.10018(9) 0.56551(14)
H2 H 0.6169 -0.1296 0.5282
N10 N 0.5731(2) 0.79614(8) 0.41116(11)
C5 C 0.2912(3) 0.55068(9) 0.49945(14)
N11 N -0.3259(3) 0.16748(10) 0.89240(14)
C6 C 0.3192(3) 0.55799(9) 0.41867(14)
H3 H 0.3089 0.5263 0.3830
C7 C 0.8456(3) -0.10069(9) 0.60574(14)
C8 C 0.1425(4) 0.37581(10) 0.58546(15)
H4 H 0.1735 0.3751 0.5333
C9 C 0.2190(3) 0.09053(9) 0.65765(14)
C10 C 0.0796(3) 0.32695(10) 0.61669(15)
H5 H 0.0688 0.2935 0.5845
C11 C 0.0528(3) 0.37327(9) 0.73709(13)
H6 H 0.0233 0.3727 0.7896
N12 N -0.2629(4) 0.13035(10) 0.85843(14)
C12 C 0.2878(3) 0.12489(10) 0.72673(15)
H7 H 0.4012 0.1166 0.7604
C13 C 0.2437(3) 0.49408(10) 0.52768(15)
H8 H 0.2322 0.4640 0.4893
C14 C 0.1891(3) 0.17122(10) 0.74557(14)
H9 H 0.2394 0.1939 0.7916
C15 C 0.6134(3) -0.01158(10) 0.63566(14)
C16 C 0.9738(3) -0.14558(9) 0.59106(13)
C17 C 0.7968(3) -0.01220(11) 0.67478(16)
H10 H 0.8436 0.0174 0.7115
C18 C 0.3104(4) 0.59906(10) 0.55137(15)
H11 H 0.2935 0.5953 0.6059
C19 C 0.3223(3) 0.04248(10) 0.63141(15)
H12 H 0.2577 0.0151 0.5952
C20 C 0.1600(3) 0.42649(9) 0.63173(14)
C21 C 0.4992(3) 0.03564(10) 0.65563(15)
H13 H 0.5605 0.0645 0.6900
C22 C 0.0459(3) 0.10405(10) 0.61245(15)
H14 H -0.0081 0.0815 0.5669
C23 C 0.3620(3) 0.61137(9) 0.39012(14)
H15 H 0.3788 0.6154 0.3356
C24 C 0.1150(3) 0.42353(10) 0.71013(14)
H16 H 0.1274 0.4560 0.7442
C25 C -0.0459(3) 0.15080(10) 0.63496(14)
H17 H -0.1614 0.1591 0.6034
C26 C 0.3537(4) 0.65201(10) 0.52380(14)
H18 H 0.3657 0.6836 0.5596
C27 C 0.2157(3) 0.48177(10) 0.60284(15)
H19 H 0.2336 0.5117 0.6416
C28 C 0.9102(3) -0.05576(11) 0.66025(16)
H20 H 1.0324 -0.0552 0.6874
O1 O -0.0792(2) 0.26783(7) 0.84728(9)
H21 H 0.016(4) 0.2814(11) 0.8707(16)
N13 N -0.2073(5) 0.09279(13) 0.8250(2)
Zn1A Zn 0.72813(3) -0.255705(10) 0.575614(15)
Zn1A_2 Zn 0.72813(3) 0.744295(10) 0.575614(15)
Zn2B Zn 0.10122(3) 0.742350(10) 0.269904(15)
N1B N -0.3527(2) 0.25712(7) 0.65581(12)
N2A N -0.0660(3) 0.24799(7) 1.04202(12)
N4A N -0.4360(2) 0.29840(8) 0.92466(11)
loop_
_geom_bond_atom_site_label_1
_geom_bond_atom_site_label_2
_geom_bond_site_symmetry_1
_geom_bond_site_symmetry_2
Zn1 N11 1_555 1_555
Zn2 N5 1_555 1_555
N1 N3 1_555 1_555
N2 C1 1_555 1_555
N3 N10 1_555 1_555
N4 N7 1_555 1_555
N5 C10 1_555 1_555
N6 Zn2 1_555 1_555
N7 N8 1_555 1_555
N8 N9 1_555 1_555
N9 C16 1_555 1_555
C1 N1 1_555 1_555
C2 C1 1_555 1_555
C3 H1 1_555 1_555
C4 C3 1_555 1_555
H2 C4 1_555 1_555
N10 N2 1_555 1_555
C5 C6 1_555 1_555
N11 N12 1_555 1_555
C6 H3 1_555 1_555
C7 C4 1_555 1_555
C8 H4 1_555 1_555
C9 C12 1_555 1_555
C10 C8 1_555 1_555
H5 C10 1_555 1_555
C11 N5 1_555 1_555
H6 C11 1_555 1_555
N12 N13 1_555 1_555
C12 H7 1_555 1_555
C13 C5 1_555 1_555
H8 C13 1_555 1_555
C14 N6 1_555 1_555
H9 C14 1_555 1_555
C15 C3 1_555 1_555
C16 N4 1_555 1_555
C17 C15 1_555 1_555
H10 C17 1_555 1_555
C18 C5 1_555 1_555
H11 C18 1_555 1_555
C19 C9 1_555 1_555
H12 C19 1_555 1_555
C20 C8 1_555 1_555
C21 C15 1_555 1_555
H13 C21 1_555 1_555
C22 C9 1_555 1_555
H14 C22 1_555 1_555
C23 C2 1_555 1_555
H15 C23 1_555 1_555
C24 C11 1_555 1_555
H16 C24 1_555 1_555
C25 N6 1_555 1_555
H17 C25 1_555 1_555
C26 C2 1_555 1_555
H18 C26 1_555 1_555
C27 C13 1_555 1_555
H19 C27 1_555 1_555
C28 C7 1_555 1_555
H20 C28 1_555 1_555
O1 Zn1 1_555 1_555
H21 O1 1_555 1_555
Zn1A N4 1_555 1_555
Zn1A_2 N2 1_555 1_555
Zn2B N1 1_555 1_555
N1B Zn2 1_555 1_555
N2A Zn1 1_555 1_555
N4A Zn1 1_555 1_555
Zn2 O1 1_555 1_555
C6 C23 1_555 1_555
C7 C16 1_555 1_555
C12 C14 1_555 1_555
C17 C28 1_555 1_555
C18 C26 1_555 1_555
C19 C21 1_555 1_555
C20 C24 1_555 1_555
C20 C27 1_555 1_555
C22 C25 1_555 1_555

#END
