
#######################################################################
#
#                 Cambridge Crystallographic Data Centre
#                                CCDC 
#
#######################################################################
#
# If this CIF has been generated from an entry in the Cambridge 
# Structural Database, then it will include bibliographic, chemical, 
# crystal, experimental, refinement or atomic coordinate data resulting 
# from the CCDC's data processing and validation procedures.
#
#######################################################################

data_FUJVIR
_symmetry_cell_setting           monoclinic
_symmetry_space_group_name_H-M   'P 21/c'
_symmetry_Int_Tables_number      14
_space_group_name_Hall           '-P 2ybc'
loop_
_symmetry_equiv_pos_site_id
_symmetry_equiv_pos_as_xyz
1 x,y,z
2 -x,1/2+y,1/2-z
3 -x,-y,-z
4 x,1/2-y,1/2+z
_cell_length_a                   14.3305(6)
_cell_length_b                   17.6788(9)
_cell_length_c                   11.4366(5)
_cell_angle_alpha                90
_cell_angle_beta                 104.903(5)
_cell_angle_gamma                90
_cell_volume                     2799.96
loop_
_atom_site_label
_atom_site_type_symbol
_atom_site_fract_x
_atom_site_fract_y
_atom_site_fract_z
Zn1 Zn 0.28848(5) 0.51490(4) 1.08496(7)
Zn2 Zn 0.38245(5) 0.33583(4) 1.04152(7)
Br1 Br 0.20531(6) 0.55989(5) 1.22635(7)
N1 N 0.4512(3) 0.3884(3) 0.9258(5)
N2 N 0.3072(4) 0.2497(3) 0.9532(5)
N3 N 0.5450(4) 0.4026(3) 0.9787(5)
N4 N 0.2022(3) 0.5387(3) 0.9191(5)
C1 C 0.0892(5) 0.2121(4) 0.7374(6)
N5 N 0.2636(4) 0.1768(3) 0.7990(5)
C2 C 0.4337(4) 0.4162(4) 0.8125(6)
N6 N 0.2110(4) 0.2588(3) 0.9139(5)
C3 C 0.1866(5) 0.2131(4) 0.8173(6)
C4 C -0.0943(5) 0.2241(4) 0.5731(7)
C5 C 0.3426(4) 0.4203(4) 0.7194(6)
C6 C -0.0236(5) 0.1784(5) 0.5502(7)
H1 H -0.0371 0.1500 0.4794
C7 C 0.2564(5) 0.3901(4) 0.7302(7)
H2 H 0.2563 0.3591 0.7958
C8 C 0.2258(5) 0.5807(4) 0.8343(6)
H3 H 0.2858 0.6045 0.8529
N7 N 0.3384(4) 0.2010(4) 0.8850(6)
C9 C -0.1875(5) 0.2303(5) 0.4822(7)
H4 H -0.1960 0.1979 0.4162
C10 C 0.1700(5) 0.4049(4) 0.6454(7)
H5 H 0.1138 0.3817 0.6536
C11 C 0.0782(5) 0.5556(4) 0.6890(6)
C12 C 0.1141(5) 0.5082(5) 0.8910(6)
H6 H 0.0944 0.4807 0.9497
C13 C 0.0515(5) 0.5160(5) 0.7784(7)
H7 H -0.0096 0.4942 0.7626
C14 C 0.1664(5) 0.5904(4) 0.7221(7)
H8 H 0.1859 0.6212 0.6668
C15 C 0.1654(5) 0.4525(5) 0.5509(6)
C16 C 0.0720(5) 0.4913(4) 0.4798(7)
H9 H 0.0837 0.5167 0.4087
C17 C 0.0235(5) 0.5523(4) 0.5574(6)
H10 H 0.0174 0.6027 0.5203
C18 C 0.0663(5) 0.1733(5) 0.6287(7)
H11 H 0.1130 0.1431 0.6084
C19 C 0.3387(5) 0.4584(6) 0.6156(8)
H12 H 0.3961 0.4735 0.5991
C20 C -0.0733(6) 0.2621(5) 0.6828(8)
H13 H -0.1203 0.2921 0.7027
C21 C 0.0169(5) 0.2559(5) 0.7632(8)
H14 H 0.0292 0.2817 0.8365
N8 N 0.5806(4) 0.4369(3) 0.8997(5)
N9 N 0.5149(4) 0.4462(3) 0.7948(5)
C22 C -0.3465(5) 0.2821(5) 0.3797(7)
C23 C -0.3695(6) 0.2344(5) 0.2815(8)
H15 H -0.3304 0.1929 0.2780
C24 C 0.2527(6) 0.4757(6) 0.5336(8)
H16 H 0.2535 0.5037 0.4650
C25 C -0.2579(6) 0.2739(5) 0.4817(7)
H17 H -0.2540 0.3032 0.5504
O1 O 0.3060(3) 0.4075(2) 1.1016(4)
C26 C -0.4865(5) 0.3521(4) 0.2822(7)
H18 H -0.5266 0.3931 0.2846
C27 C -0.4514(5) 0.2482(5) 0.1868(7)
H19 H -0.4666 0.2146 0.1220
C28 C -0.4067(5) 0.3409(5) 0.3797(7)
H20 H -0.3948 0.3740 0.4451
N10 N -0.5081(4) 0.3075(3) 0.1861(5)
N1B N -0.4512(3) 0.6116(3) 0.0742(5)
N3B N -0.5450(4) 0.5974(3) 0.0213(5)
N4B N -0.2022(3) 0.4613(3) 0.0809(5)
C2B C -0.4337(4) 0.5838(4) 0.1875(6)
C5B C -0.3426(4) 0.5797(4) 0.2806(6)
C7B C -0.2564(5) 0.6099(4) 0.2698(7)
H2B H -0.2563 0.6409 0.2042
C8B C -0.2258(5) 0.4193(4) 0.1657(6)
H3B H -0.2858 0.3955 0.1471
C10B C -0.1700(5) 0.5951(4) 0.3546(7)
H5B H -0.1138 0.6183 0.3464
C11B C -0.0782(5) 0.4444(4) 0.3110(6)
C12B C -0.1141(5) 0.4918(5) 0.1090(6)
H6B H -0.0944 0.5193 0.0503
C13B C -0.0515(5) 0.4840(5) 0.2216(7)
H7B H 0.0096 0.5058 0.2374
C14B C -0.1664(5) 0.4096(4) 0.2779(7)
H8B H -0.1859 0.3788 0.3332
C15B C -0.1654(5) 0.5475(5) 0.4491(6)
C16B C -0.0720(5) 0.5087(4) 0.5202(7)
H9B H -0.0837 0.4833 0.5913
C17B C -0.0235(5) 0.4477(4) 0.4426(6)
H10B H -0.0174 0.3973 0.4797
C19B C -0.3387(5) 0.5416(6) 0.3844(8)
H12B H -0.3961 0.5265 0.4009
N8B N -0.5806(4) 0.5631(3) 0.1003(5)
N9B N -0.5149(4) 0.5538(3) 0.2052(5)
C24B C -0.2527(6) 0.5243(6) 0.4664(8)
H16B H -0.2535 0.4963 0.5350
Zn1B Zn -0.28848(5) 0.48510(4) -0.08496(7)
Zn2B Zn -0.38245(5) 0.66417(4) -0.04152(7)
Br1B Br -0.20531(6) 0.44011(5) -0.22635(7)
N2B N -0.3072(4) 0.7503(3) 0.0468(5)
C1B C -0.0892(5) 0.7879(4) 0.2626(6)
N5B N -0.2636(4) 0.8232(3) 0.2010(5)
N6B N -0.2110(4) 0.7412(3) 0.0861(5)
C3B C -0.1866(5) 0.7869(4) 0.1827(6)
C4B C 0.0943(5) 0.7759(4) 0.4269(7)
C6B C 0.0236(5) 0.8216(5) 0.4498(7)
H1B H 0.0371 0.8500 0.5206
N7B N -0.3384(4) 0.7990(4) 0.1150(6)
C9B C 0.1875(5) 0.7697(5) 0.5178(7)
H4B H 0.1960 0.8021 0.5838
C18B C -0.0663(5) 0.8267(5) 0.3713(7)
H11B H -0.1130 0.8569 0.3916
C20B C 0.0733(6) 0.7379(5) 0.3172(8)
H13B H 0.1203 0.7079 0.2973
C21B C -0.0169(5) 0.7441(5) 0.2368(8)
H14B H -0.0292 0.7183 0.1635
C22B C 0.3465(5) 0.7179(5) 0.6203(7)
C23B C 0.3695(6) 0.7656(5) 0.7185(8)
H15B H 0.3304 0.8071 0.7220
C25B C 0.2579(6) 0.7261(5) 0.5183(7)
H17B H 0.2540 0.6968 0.4496
O1B O -0.3060(3) 0.5925(2) -0.1016(4)
C26B C 0.4865(5) 0.6479(4) 0.7178(7)
H18B H 0.5266 0.6069 0.7154
C27B C 0.4514(5) 0.7518(5) 0.8132(7)
H19B H 0.4666 0.7854 0.8780
C28B C 0.4067(5) 0.6591(5) 0.6203(7)
H20B H 0.3948 0.6260 0.5549
N10B N 0.5081(4) 0.6925(3) 0.8139(5)
Zn1_2 Zn -0.71152(5) 0.51490(4) 0.08496(7)
Zn1B_2 Zn 0.71152(5) 0.48510(4) 0.91504(7)
Zn2_2 Zn -0.61755(5) 0.33583(4) 0.04152(7)
Zn2B_2 Zn 0.61755(5) 0.66417(4) 0.95848(7)
N8_2 N -0.4194(4) 0.4369(3) -0.1003(5)
N8B_2 N 0.4194(4) 0.5631(3) 1.1003(5)
N10_2 N 0.4919(4) 0.3075(3) 1.1861(5)
N10B_2 N -0.4919(4) 0.6925(3) -0.1861(5)
loop_
_geom_bond_atom_site_label_1
_geom_bond_atom_site_label_2
_geom_bond_site_symmetry_1
_geom_bond_site_symmetry_2
Zn1 Br1 1_555 1_555
Zn2 N1 1_555 1_555
N1 N3 1_555 1_555
N2 Zn2 1_555 1_555
N3 N8 1_555 1_555
N4 Zn1 1_555 1_555
C1 C3 1_555 1_555
N5 C3 1_555 1_555
C2 N1 1_555 1_555
N6 N2 1_555 1_555
C3 N6 1_555 1_555
C4 C6 1_555 1_555
C5 C2 1_555 1_555
C6 H1 1_555 1_555
C7 C5 1_555 1_555
H2 C7 1_555 1_555
C8 N4 1_555 1_555
H3 C8 1_555 1_555
N7 N2 1_555 1_555
C9 C4 1_555 1_555
H4 C9 1_555 1_555
C10 C7 1_555 1_555
H5 C10 1_555 1_555
C11 C13 1_555 1_555
C12 N4 1_555 1_555
H6 C12 1_555 1_555
C13 C12 1_555 1_555
H7 C13 1_555 1_555
C14 C8 1_555 1_555
H8 C14 1_555 1_555
C15 C10 1_555 1_555
C16 C15 1_555 1_555
H9 C16 1_555 1_555
C17 C11 1_555 1_555
H10 C17 1_555 1_555
C18 C1 1_555 1_555
H11 C18 1_555 1_555
C19 C5 1_555 1_555
H12 C19 1_555 1_555
C20 C4 1_555 1_555
H13 C20 1_555 1_555
C21 C1 1_555 1_555
H14 C21 1_555 1_555
N8 N9 1_555 1_555
N9 C2 1_555 1_555
C22 C23 1_555 1_555
C23 H15 1_555 1_555
C24 C15 1_555 1_555
H16 C24 1_555 1_555
C25 C9 1_555 1_555
H17 C25 1_555 1_555
O1 Zn1 1_555 1_555
C26 H18 1_555 1_555
C27 C23 1_555 1_555
H19 C27 1_555 1_555
C28 C22 1_555 1_555
H20 C28 1_555 1_555
N10 C26 1_555 1_555
N1B N3B 1_555 1_555
N3B N8B 1_555 1_555
N4B C8B 1_555 1_555
C2B N1B 1_555 1_555
C5B C2B 1_555 1_555
C7B C5B 1_555 1_555
H2B C7B 1_555 1_555
C8B H3B 1_555 1_555
C10B C7B 1_555 1_555
H5B C10B 1_555 1_555
C11B C13B 1_555 1_555
C12B N4B 1_555 1_555
H6B C12B 1_555 1_555
C13B C12B 1_555 1_555
H7B C13B 1_555 1_555
C14B C8B 1_555 1_555
H8B C14B 1_555 1_555
C15B C10B 1_555 1_555
C16B C17 1_555 1_555
H9B C16B 1_555 1_555
C17B C16 1_555 1_555
H10B C17B 1_555 1_555
C19B C5B 1_555 1_555
H12B C19B 1_555 1_555
N8B N9B 1_555 1_555
N9B C2B 1_555 1_555
C24B C15B 1_555 1_555
H16B C24B 1_555 1_555
Zn1B N4B 1_555 1_555
Zn2B N1B 1_555 1_555
Br1B Zn1B 1_555 1_555
N2B Zn2B 1_555 1_555
C1B C3B 1_555 1_555
N5B C3B 1_555 1_555
N6B N2B 1_555 1_555
C3B N6B 1_555 1_555
C4B C6B 1_555 1_555
C6B H1B 1_555 1_555
N7B N2B 1_555 1_555
C9B C4B 1_555 1_555
H4B C9B 1_555 1_555
C18B C1B 1_555 1_555
H11B C18B 1_555 1_555
C20B C4B 1_555 1_555
H13B C20B 1_555 1_555
C21B C1B 1_555 1_555
H14B C21B 1_555 1_555
C22B C23B 1_555 1_555
C23B H15B 1_555 1_555
C25B C9B 1_555 1_555
H17B C25B 1_555 1_555
O1B Zn1B 1_555 1_555
C26B H18B 1_555 1_555
C27B C23B 1_555 1_555
H19B C27B 1_555 1_555
C28B C22B 1_555 1_555
H20B C28B 1_555 1_555
N10B C26B 1_555 1_555
Zn1_2 N8B 1_555 1_555
Zn1B_2 N8 1_555 1_555
Zn2_2 N10 1_555 1_555
Zn2B_2 N10B 1_555 1_555
N8_2 Zn1B 1_555 1_555
N8B_2 Zn1 1_555 1_555
N10_2 Zn2 1_555 1_555
N10B_2 Zn2B 1_555 1_555
Zn2 O1 1_555 1_555
N5 N7 1_555 1_555
C6 C18 1_555 1_555
C11 C14 1_555 1_555
C16 C17 1_555 1_555
C19 C24 1_555 1_555
C20 C21 1_555 1_555
C22 C25 1_555 1_555
C26 C28 1_555 1_555
C27 N10 1_555 1_555
C11B C14B 1_555 1_555
C11B C17B 1_555 1_555
C15B C16B 1_555 1_555
C16B C17B 1_555 1_555
C19B C24B 1_555 1_555
Zn2B O1B 1_555 1_555
N5B N7B 1_555 1_555
C6B C18B 1_555 1_555
C20B C21B 1_555 1_555
C22B C25B 1_555 1_555
C26B C28B 1_555 1_555
C27B N10B 1_555 1_555

#END
