
#######################################################################
#
#                 Cambridge Crystallographic Data Centre
#                                CCDC 
#
#######################################################################
#
# If this CIF has been generated from an entry in the Cambridge 
# Structural Database, then it will include bibliographic, chemical, 
# crystal, experimental, refinement or atomic coordinate data resulting 
# from the CCDC's data processing and validation procedures.
#
#######################################################################

data_FUJVUD
_symmetry_cell_setting           monoclinic
_symmetry_space_group_name_H-M   'P 21/c'
_symmetry_Int_Tables_number      14
_space_group_name_Hall           '-P 2ybc'
loop_
_symmetry_equiv_pos_site_id
_symmetry_equiv_pos_as_xyz
1 x,y,z
2 -x,1/2+y,1/2-z
3 -x,-y,-z
4 x,1/2-y,1/2+z
_cell_length_a                   7.4598(5)
_cell_length_b                   22.775(2)
_cell_length_c                   16.5096(16)
_cell_angle_alpha                90
_cell_angle_beta                 103.131(8)
_cell_angle_gamma                90
_cell_volume                     2731.59
loop_
_atom_site_label
_atom_site_type_symbol
_atom_site_fract_x
_atom_site_fract_y
_atom_site_fract_z
Zn1 Zn 0.34647(6) 0.26002(2) 0.22692(3)
Zn2 Zn 0.67161(6) 0.24686(2) 0.41930(3)
O1 O 0.4462(4) 0.26969(15) 0.3426(2)
N1 N 0.1715(4) 0.32890(16) 0.1918(2)
N2 N 0.5243(4) 0.25752(15) 0.1500(2)
N3 N 0.6289(4) 0.24971(15) 0.0373(2)
N4 N -1.0742(4) -0.12906(17) 0.0993(2)
N5 N -1.0485(4) -0.22252(18) 0.0743(2)
N6 N 0.6110(4) 0.20464(16) 0.1508(2)
N7 N -1.1624(4) -0.18108(19) 0.0838(3)
N8 N 0.5422(8) 0.0932(3) 0.3299(4)
N9 N 0.6350(6) 0.1311(2) 0.3597(3)
N10 N 0.6730(4) 0.19984(16) 0.0839(2)
N11 N 0.1887(4) 0.18696(16) 0.1977(2)
N12 N 0.7403(5) 0.16796(19) 0.3919(3)
N13 N -0.8787(4) -0.19792(16) 0.0823(2)
C1 C 0.2048(6) 0.3801(2) 0.2308(3)
H1 H 0.2784 0.3805 0.2844
C2 C 0.5371(5) 0.28413(19) 0.0793(3)
C3 C -0.0562(5) 0.0917(2) 0.1571(3)
C4 C -0.0480(5) 0.1260(2) 0.2279(3)
H2 H -0.1247 0.1174 0.2635
C5 C 0.3396(6) 0.3494(2) -0.0229(3)
H3 H 0.3155 0.3184 -0.0605
C6 C -0.1893(6) 0.0437(2) 0.1323(3)
H4 H -0.1613 0.0143 0.0980
C7 C 0.0709(5) 0.1718(2) 0.2451(3)
H5 H 0.0712 0.1941 0.2924
C8 C 0.1868(6) 0.1529(2) 0.1310(3)
H6 H 0.2685 0.1617 0.0977
C9 C 0.0705(5) 0.1057(2) 0.1094(3)
H7 H 0.0761 0.0832 0.0631
C10 C 0.4635(5) 0.34233(19) 0.0519(3)
C11 C 0.5123(5) 0.3905(2) 0.1029(3)
H8 H 0.6047 0.3871 0.1511
C12 C -0.4816(5) -0.05266(19) 0.0817(3)
H9 H -0.3890 -0.0538 0.0524
C13 C -0.0190(6) 0.3804(2) 0.0772(3)
H10 H -0.1024 0.3783 0.0237
C14 C -0.7551(5) -0.09578(19) 0.1117(3)
C15 C -0.6126(5) -0.0963(2) 0.0692(3)
H11 H -0.6063 -0.1266 0.0321
C16 C 0.0088(6) 0.4914(2) 0.0679(3)
H12 H 0.0150 0.5244 0.1064
C17 C 0.2830(5) 0.44901(19) 0.0116(3)
C18 C -0.3463(5) 0.0400(2) 0.1560(3)
H13 H -0.3725 0.0708 0.1884
C19 C -0.4844(5) -0.00685(19) 0.1372(3)
C20 C 0.0531(6) 0.3296(2) 0.1166(3)
H14 H 0.0276 0.2939 0.0949
C21 C 0.0305(5) 0.4341(2) 0.1145(3)
C22 C -0.8992(5) -0.1409(2) 0.0975(3)
C23 C 0.1532(5) 0.5005(2) 0.0088(3)
H15 H 0.2220 0.5372 0.0224
C24 C 0.2507(6) 0.4026(2) -0.0422(3)
H16 H 0.1670 0.4069 -0.0930
C25 C -0.6282(5) -0.0070(2) 0.1796(3)
H17 H -0.6344 0.0230 0.2172
C26 C 0.4246(5) 0.4436(2) 0.0828(3)
H18 H 0.4601 0.4760 0.1169
C27 C 0.1355(6) 0.4327(2) 0.1956(3)
H19 H 0.1591 0.4673 0.2262
C28 C -0.7597(5) -0.0503(2) 0.1665(3)
H20 H -0.8535 -0.0490 0.1952
H21 H 0.387(5) 0.2885(19) 0.361(3)
N1B N -0.1715(4) 0.67110(16) -0.1918(2)
N2B N -0.5243(4) 0.74248(15) -0.1500(2)
N3B N -0.6289(4) 0.75029(15) -0.0373(2)
N6B N -0.6110(4) 0.79536(16) -0.1508(2)
N10B N -0.6730(4) 0.80016(16) -0.0839(2)
C1B C -0.2048(6) 0.6199(2) -0.2308(3)
H1B H -0.2784 0.6195 -0.2844
C2B C -0.5371(5) 0.71587(19) -0.0793(3)
C5B C -0.3396(6) 0.6506(2) 0.0229(3)
H3B H -0.3155 0.6816 0.0605
C10B C -0.4635(5) 0.65767(19) -0.0519(3)
C11B C -0.5123(5) 0.6095(2) -0.1029(3)
H8B H -0.6047 0.6129 -0.1511
C13B C 0.0190(6) 0.6196(2) -0.0772(3)
H10B H 0.1024 0.6217 -0.0237
C16B C -0.0088(6) 0.5086(2) -0.0679(3)
H12B H -0.0150 0.4756 -0.1064
C17B C -0.2830(5) 0.55099(19) -0.0116(3)
C20B C -0.0531(6) 0.6704(2) -0.1166(3)
H14B H -0.0276 0.7061 -0.0949
C21B C -0.0305(5) 0.5659(2) -0.1145(3)
C23B C -0.1532(5) 0.4995(2) -0.0088(3)
H15B H -0.2220 0.4628 -0.0224
C24B C -0.2507(6) 0.5974(2) 0.0422(3)
H16B H -0.1670 0.5931 0.0930
C26B C -0.4246(5) 0.5564(2) -0.0828(3)
H18B H -0.4601 0.5240 -0.1169
C27B C -0.1355(6) 0.5673(2) -0.1956(3)
H19B H -0.1591 0.5327 -0.2262
Zn1B Zn -0.34647(6) 0.73998(2) -0.22692(3)
Zn2B Zn -0.67161(6) 0.75314(2) -0.41930(3)
O1B O -0.4462(4) 0.73031(15) -0.3426(2)
N4B N 1.0742(4) 1.12906(17) -0.0993(2)
N5B N 1.0485(4) 1.22252(18) -0.0743(2)
N7B N 1.1624(4) 1.18108(19) -0.0838(3)
N8B N -0.5422(8) 0.9068(3) -0.3299(4)
N9B N -0.6350(6) 0.8689(2) -0.3597(3)
N11B N -0.1887(4) 0.81304(16) -0.1977(2)
N12B N -0.7403(5) 0.83204(19) -0.3919(3)
N13B N 0.8787(4) 1.19792(16) -0.0823(2)
C3B C 0.0562(5) 0.9083(2) -0.1571(3)
C4B C 0.0480(5) 0.8740(2) -0.2279(3)
H2B H 0.1247 0.8826 -0.2635
C6B C 0.1893(6) 0.9563(2) -0.1323(3)
H4B H 0.1613 0.9857 -0.0980
C7B C -0.0709(5) 0.8282(2) -0.2451(3)
H5B H -0.0712 0.8059 -0.2924
C8B C -0.1868(6) 0.8471(2) -0.1310(3)
H6B H -0.2685 0.8383 -0.0977
C9B C -0.0705(5) 0.8943(2) -0.1094(3)
H7B H -0.0761 0.9168 -0.0631
C12B C 0.4816(5) 1.05266(19) -0.0817(3)
H9B H 0.3890 1.0538 -0.0524
C14B C 0.7551(5) 1.09578(19) -0.1117(3)
C15B C 0.6126(5) 1.0963(2) -0.0692(3)
H11B H 0.6063 1.1266 -0.0321
C18B C 0.3463(5) 0.9600(2) -0.1560(3)
H13B H 0.3725 0.9292 -0.1884
C19B C 0.4844(5) 1.00685(19) -0.1372(3)
C22B C 0.8992(5) 1.1409(2) -0.0975(3)
C25B C 0.6282(5) 1.0070(2) -0.1796(3)
H17B H 0.6344 0.9770 -0.2172
C28B C 0.7597(5) 1.0503(2) -0.1665(3)
H20B H 0.8535 1.0490 -0.1952
H21B H -0.387(5) 0.7115(19) -0.361(3)
Zn2A Zn -0.67161(6) -0.25314(2) 0.08070(3)
Zn2A_2 Zn -0.67161(6) 0.74686(2) 0.08070(3)
Zn2C Zn 0.67161(6) 0.25314(2) -0.08070(3)
Zn2C_2 Zn 0.67161(6) 1.25314(2) -0.08070(3)
N3A N -0.6289(4) 0.74971(15) -0.5373(2)
N3C N 0.6289(4) 0.25029(15) 0.5373(2)
N13A N 0.8787(4) 0.30208(16) 0.4177(2)
N13C N -0.8787(4) 0.69792(16) -0.4177(2)
loop_
_geom_bond_atom_site_label_1
_geom_bond_atom_site_label_2
_geom_bond_site_symmetry_1
_geom_bond_site_symmetry_2
Zn1 O1 1_555 1_555
Zn2 O1 1_555 1_555
O1 H21 1_555 1_555
N1 Zn1 1_555 1_555
N2 Zn1 1_555 1_555
N3 N10 1_555 1_555
N4 N7 1_555 1_555
N5 N7 1_555 1_555
N6 N2 1_555 1_555
N8 N9 1_555 1_555
N9 N12 1_555 1_555
N10 N6 1_555 1_555
N11 Zn1 1_555 1_555
N12 Zn2 1_555 1_555
N13 N5 1_555 1_555
C1 N1 1_555 1_555
H1 C1 1_555 1_555
C2 N2 1_555 1_555
C3 C4 1_555 1_555
C4 H2 1_555 1_555
C5 H3 1_555 1_555
C6 C3 1_555 1_555
H4 C6 1_555 1_555
C7 N11 1_555 1_555
H5 C7 1_555 1_555
C8 N11 1_555 1_555
H6 C8 1_555 1_555
C9 C3 1_555 1_555
H7 C9 1_555 1_555
C10 C2 1_555 1_555
C11 C10 1_555 1_555
H8 C11 1_555 1_555
C12 H9 1_555 1_555
C13 H10 1_555 1_555
C14 C15 1_555 1_555
C15 C12 1_555 1_555
H11 C15 1_555 1_555
C16 H12 1_555 1_555
C17 C23 1_555 1_555
C18 C6 1_555 1_555
H13 C18 1_555 1_555
C19 C12 1_555 1_555
C20 N1 1_555 1_555
H14 C20 1_555 1_555
C21 C13 1_555 1_555
C22 N4 1_555 1_555
C23 C16 1_555 1_555
H15 C23 1_555 1_555
C24 C5 1_555 1_555
H16 C24 1_555 1_555
C25 C19 1_555 1_555
H17 C25 1_555 1_555
C26 C11 1_555 1_555
H18 C26 1_555 1_555
C27 C1 1_555 1_555
H19 C27 1_555 1_555
C28 C14 1_555 1_555
H20 C28 1_555 1_555
N1B C1B 1_555 1_555
N2B N6B 1_555 1_555
N3B N10B 1_555 1_555
N6B N10B 1_555 1_555
C1B H1B 1_555 1_555
C2B N2B 1_555 1_555
C5B H3B 1_555 1_555
C10B C2B 1_555 1_555
C11B C10B 1_555 1_555
H8B C11B 1_555 1_555
C13B H10B 1_555 1_555
C16B C23 1_555 1_555
H12B C16B 1_555 1_555
C17B C23B 1_555 1_555
C20B N1B 1_555 1_555
H14B C20B 1_555 1_555
C21B C13B 1_555 1_555
C23B C16 1_555 1_555
H15B C23B 1_555 1_555
C24B C5B 1_555 1_555
H16B C24B 1_555 1_555
C26B C11B 1_555 1_555
H18B C26B 1_555 1_555
C27B C1B 1_555 1_555
H19B C27B 1_555 1_555
Zn1B N1B 1_555 1_555
Zn2B O1B 1_555 1_555
O1B Zn1B 1_555 1_555
N4B N7B 1_555 1_555
N5B N7B 1_555 1_555
N8B N9B 1_555 1_555
N9B N12B 1_555 1_555
N11B Zn1B 1_555 1_555
N12B Zn2B 1_555 1_555
N13B N5B 1_555 1_555
C3B C4B 1_555 1_555
C4B H2B 1_555 1_555
C6B C3B 1_555 1_555
H4B C6B 1_555 1_555
C7B N11B 1_555 1_555
H5B C7B 1_555 1_555
C8B N11B 1_555 1_555
H6B C8B 1_555 1_555
C9B C3B 1_555 1_555
H7B C9B 1_555 1_555
C12B H9B 1_555 1_555
C14B C15B 1_555 1_555
C15B C12B 1_555 1_555
H11B C15B 1_555 1_555
C18B C6B 1_555 1_555
H13B C18B 1_555 1_555
C19B C12B 1_555 1_555
C22B N4B 1_555 1_555
C25B C19B 1_555 1_555
H17B C25B 1_555 1_555
C28B C14B 1_555 1_555
H20B C28B 1_555 1_555
H21B O1B 1_555 1_555
Zn2A N13 1_555 1_555
Zn2A_2 N3B 1_555 1_555
Zn2C N3 1_555 1_555
Zn2C_2 N13B 1_555 1_555
N3A Zn2B 1_555 1_555
N3C Zn2 1_555 1_555
N13A Zn2 1_555 1_555
N13C Zn2B 1_555 1_555
N3 C2 1_555 1_555
N13 C22 1_555 1_555
C4 C7 1_555 1_555
C5 C10 1_555 1_555
C8 C9 1_555 1_555
C13 C20 1_555 1_555
C14 C22 1_555 1_555
C16 C21 1_555 1_555
C17 C24 1_555 1_555
C17 C26 1_555 1_555
C18 C19 1_555 1_555
C21 C27 1_555 1_555
C25 C28 1_555 1_555
N2B Zn1B 1_555 1_555
N3B C2B 1_555 1_555
C5B C10B 1_555 1_555
C13B C20B 1_555 1_555
C16B C21B 1_555 1_555
C16B C23B 1_555 1_555
C17B C24B 1_555 1_555
C17B C26B 1_555 1_555
C21B C27B 1_555 1_555
N13B C22B 1_555 1_555
C4B C7B 1_555 1_555
C8B C9B 1_555 1_555
C14B C22B 1_555 1_555
C18B C19B 1_555 1_555
C25B C28B 1_555 1_555

#END
