
#######################################################################
#
#                 Cambridge Crystallographic Data Centre
#                                CCDC 
#
#######################################################################
#
# If this CIF has been generated from an entry in the Cambridge 
# Structural Database, then it will include bibliographic, chemical, 
# crystal, experimental, refinement or atomic coordinate data resulting 
# from the CCDC's data processing and validation procedures.
#
#######################################################################

data_FUJXEN
_symmetry_cell_setting           monoclinic
_symmetry_space_group_name_H-M   'P 21/n'
_symmetry_Int_Tables_number      14
_space_group_name_Hall           '-P 2yn'
loop_
_symmetry_equiv_pos_site_id
_symmetry_equiv_pos_as_xyz
1 x,y,z
2 1/2-x,1/2+y,1/2-z
3 -x,-y,-z
4 1/2+x,1/2-y,1/2+z
_cell_length_a                   13.473(1)
_cell_length_b                   21.975(2)
_cell_length_c                   8.666(1)
_cell_angle_alpha                90
_cell_angle_beta                 92.93(1)
_cell_angle_gamma                90
_cell_volume                     2562.38
loop_
_atom_site_label
_atom_site_type_symbol
_atom_site_fract_x
_atom_site_fract_y
_atom_site_fract_z
Cu1 Cu 0.38368(7) 0.07014(4) 0.31940(10)
Cu2 Cu 0.71888(5) 0.23083(3) 0.56653(8)
S1 S 0.4030(1) 0.1748(1) 0.2924(2)
C1 C 0.5035(4) 0.1946(2) 0.3878(6)
N1 N 0.5753(4) 0.2107(2) 0.4525(6)
S2 S 0.2471(2) 0.0580(1) 0.1318(3)
C2 C 0.2245(4) 0.1301(3) 0.0940(7)
N2 N 0.2113(3) 0.1808(2) 0.0697(5)
S3 S 0.3234(1) 0.0410(1) 0.5700(2)
C3 C 0.4235(5) 0.0052(2) 0.6365(6)
N3 N 0.4928(4) -0.0210(2) 0.6809(6)
N4 N 0.7520(3) 0.1347(2) 0.5783(5)
C4 C 0.8514(4) 0.1182(2) 0.6475(6)
C5 C 0.8818(5) 0.0591(3) 0.6453(9)
C6 C 0.9746(6) 0.0437(3) 0.7073(10)
C7 C 1.0357(5) 0.0871(3) 0.7712(8)
C8 C 1.0049(4) 0.1456(3) 0.7746(7)
C9 C 0.9112(4) 0.1610(2) 0.7144(6)
C10 C 0.6703(4) 0.1107(2) 0.6657(6)
N5 N 0.6597(3) 0.1514(2) 0.7964(5)
N6 N 0.6727(3) 0.2125(2) 0.7745(5)
C11 C 0.6491(5) 0.2388(3) 0.9064(7)
C12 C 0.6204(5) 0.1953(3) 1.0084(7)
C13 C 0.6262(5) 0.1401(3) 0.9382(7)
C14 C 0.6529(5) 0.3055(3) 0.9327(8)
C15 C 0.5989(6) 0.0783(3) 0.9882(7)
C16 C 0.7434(4) 0.1187(2) 0.4122(6)
N7 N 0.8022(3) 0.1620(2) 0.3354(5)
N8 N 0.7972(3) 0.2215(2) 0.3785(5)
C17 C 0.8563(4) 0.2511(3) 0.2857(7)
C18 C 0.8959(5) 0.2112(3) 0.1842(7)
C19 C 0.8611(5) 0.1545(3) 0.2162(7)
C20 C 0.8711(5) 0.3184(3) 0.2994(8)
C21 C 0.8790(6) 0.0951(3) 0.1433(8)
H1 H 0.8386 0.0283 0.6005
H2 H 0.9964 0.0019 0.7055
H3 H 1.1009 0.0764 0.8139
H4 H 1.0482 0.1765 0.8192
H5 H 0.8885 0.2025 0.7209
H6 H 0.6099 0.1100 0.6016
H7 H 0.6856 0.0704 0.7015
H8 H 0.5995 0.2026 1.1118
H9 H 0.6327 0.3148 1.0353
H10 H 0.7188 0.3205 0.9210
H11 H 0.6078 0.3258 0.8588
H12 H 0.5770 0.0796 1.0924
H13 H 0.5460 0.0626 0.9210
H14 H 0.6555 0.0517 0.9852
H15 H 0.7678 0.0784 0.3967
H16 H 0.6754 0.1214 0.3744
H17 H 0.9408 0.2213 0.1045
H18 H 0.9172 0.3317 0.2236
H19 H 0.8099 0.3392 0.2829
H20 H 0.9001 0.3281 0.4010
H21 H 0.9236 0.1001 0.0598
H22 H 0.9090 0.0673 0.2177
H23 H 0.8176 0.0781 0.1016
N3B N 0.5072(4) 0.0210(2) 0.3191(6)
N2C N 0.7113(3) 0.3192(2) 0.5697(5)
Cu2C Cu 0.21888(5) 0.26917(3) 0.06653(8)
Cu1B Cu 0.61632(7) -0.07014(4) 0.68060(10)
loop_
_geom_bond_atom_site_label_1
_geom_bond_atom_site_label_2
_geom_bond_site_symmetry_1
_geom_bond_site_symmetry_2
Cu1 S1 1_555 1_555
Cu2 N1 1_555 1_555
S1 C1 1_555 1_555
C1 N1 1_555 1_555
S2 Cu1 1_555 1_555
C2 S2 1_555 1_555
N2 C2 1_555 1_555
S3 Cu1 1_555 1_555
C3 S3 1_555 1_555
N3 C3 1_555 1_555
N4 Cu2 1_555 1_555
C4 N4 1_555 1_555
C5 C4 1_555 1_555
C6 C5 1_555 1_555
C7 C6 1_555 1_555
C8 C7 1_555 1_555
C9 C4 1_555 1_555
C10 N4 1_555 1_555
N5 C10 1_555 1_555
N6 Cu2 1_555 1_555
C11 N6 1_555 1_555
C12 C11 1_555 1_555
C13 N5 1_555 1_555
C14 C11 1_555 1_555
C15 C13 1_555 1_555
C16 N4 1_555 1_555
N7 C16 1_555 1_555
N8 Cu2 1_555 1_555
C17 N8 1_555 1_555
C18 C17 1_555 1_555
C19 N7 1_555 1_555
C20 C17 1_555 1_555
C21 C19 1_555 1_555
H1 C5 1_555 1_555
H2 C6 1_555 1_555
H3 C7 1_555 1_555
H4 C8 1_555 1_555
H5 C9 1_555 1_555
H6 C10 1_555 1_555
H7 C10 1_555 1_555
H8 C12 1_555 1_555
H9 C14 1_555 1_555
H10 C14 1_555 1_555
H11 C14 1_555 1_555
H12 C15 1_555 1_555
H13 C15 1_555 1_555
H14 C15 1_555 1_555
H15 C16 1_555 1_555
H16 C16 1_555 1_555
H17 C18 1_555 1_555
H18 C20 1_555 1_555
H19 C20 1_555 1_555
H20 C20 1_555 1_555
H21 C21 1_555 1_555
H22 C21 1_555 1_555
H23 C21 1_555 1_555
N3B Cu1 1_555 1_555
N2C Cu2 1_555 1_555
Cu2C N2 1_555 1_555
Cu1B N3 1_555 1_555
C8 C9 1_555 1_555
N5 N6 1_555 1_555
C12 C13 1_555 1_555
N7 N8 1_555 1_555
C18 C19 1_555 1_555

#END
