
#######################################################################
#
#                 Cambridge Crystallographic Data Centre
#                                CCDC 
#
#######################################################################
#
# If this CIF has been generated from an entry in the Cambridge 
# Structural Database, then it will include bibliographic, chemical, 
# crystal, experimental, refinement or atomic coordinate data resulting 
# from the CCDC's data processing and validation procedures.
#
#######################################################################

data_FULKUT
_symmetry_cell_setting           monoclinic
_symmetry_space_group_name_H-M   'C 2/m'
_symmetry_Int_Tables_number      12
_space_group_name_Hall           '-C 2y'
loop_
_symmetry_equiv_pos_site_id
_symmetry_equiv_pos_as_xyz
1 x,y,z
2 -x,y,-z
3 1/2+x,1/2+y,z
4 1/2-x,1/2+y,-z
5 -x,-y,-z
6 x,-y,z
7 1/2-x,1/2-y,-z
8 1/2+x,1/2-y,z
_cell_length_a                   6.8663(3)
_cell_length_b                   7.6687(3)
_cell_length_c                   7.8558(3)
_cell_angle_alpha                90
_cell_angle_beta                 112.483(5)
_cell_angle_gamma                90
_cell_volume                     382.211
loop_
_atom_site_label
_atom_site_type_symbol
_atom_site_fract_x
_atom_site_fract_y
_atom_site_fract_z
O1 O 1.01020 -0.18063 0.30566
C1 C 1.02172 -0.10538 0.17979
H1 H 1.37864 0.11004 0.67902
Mg1 Mg 1.00000 0.00000 0.50000
O2 O 1.35277 0.00000 0.61573
C2 C 1.00000 -0.20141 0.00000
H2 H 1.00000 -0.31676 0.00000
O1E O 1.01020 0.18063 0.30566
O1D O 0.98980 0.18063 -0.30566
O1A O 0.98980 -0.18063 -0.30566
O1A_2 O 0.98980 -0.18063 0.69434
O1D_2 O 0.98980 0.18063 0.69434
C1E C 1.02172 0.10538 0.17979
C1D C 0.97828 0.10538 -0.17979
C1A C 0.97828 -0.10538 -0.17979
H1E H 1.37864 -0.11004 0.67902
H1A H 0.62136 0.11004 0.32098
H1D H 0.62136 -0.11004 0.32098
Mg1_2 Mg 1.00000 0.00000 -0.50000
O2A O 0.64723 0.00000 0.38427
C2D C 1.00000 0.20141 0.00000
H2D H 1.00000 0.31676 0.00000
O3 O 0.68709 0.89695 1.82816
H3? H 0.63731 0.88721 1.92664
H4? H 0.71661 1.00708 1.78470
loop_
_geom_bond_atom_site_label_1
_geom_bond_atom_site_label_2
_geom_bond_site_symmetry_1
_geom_bond_site_symmetry_2
O1 C1 1_555 1_555
C1 C2 1_555 1_555
H1 O2 1_555 1_555
Mg1 O1 1_555 1_555
O2 Mg1 1_555 1_555
C2 H2 1_555 1_555
O1E Mg1 1_555 1_555
O1D C1D 1_555 1_555
O1A C1A 1_555 1_555
O1A_2 Mg1 1_555 1_555
O1D_2 Mg1 1_555 1_555
C1E C1 1_555 1_555
C1D C1A 1_555 1_555
C1A C2 1_555 1_555
H1E O2 1_555 1_555
H1A O2A 1_555 1_555
H1D O2A 1_555 1_555
Mg1_2 O1D 1_555 1_555
O2A Mg1 1_555 1_555
C2D C1E 1_555 1_555
H2D C2D 1_555 1_555
O1E C1E 1_555 1_555
O1A Mg1_2 1_555 1_555
C1D C2D 1_555 1_555

#END
