
#######################################################################
#
#                 Cambridge Crystallographic Data Centre
#                                CCDC 
#
#######################################################################
#
# If this CIF has been generated from an entry in the Cambridge 
# Structural Database, then it will include bibliographic, chemical, 
# crystal, experimental, refinement or atomic coordinate data resulting 
# from the CCDC's data processing and validation procedures.
#
#######################################################################

data_FULNAD
_symmetry_cell_setting           monoclinic
_symmetry_space_group_name_H-M   'P 21/c'
_symmetry_Int_Tables_number      14
_space_group_name_Hall           '-P 2ybc'
loop_
_symmetry_equiv_pos_site_id
_symmetry_equiv_pos_as_xyz
1 x,y,z
2 -x,1/2+y,1/2-z
3 -x,-y,-z
4 x,1/2-y,1/2+z
_cell_length_a                   7.737(5)
_cell_length_b                   23.380(13)
_cell_length_c                   10.030(6)
_cell_angle_alpha                90
_cell_angle_beta                 96.359(9)
_cell_angle_gamma                90
_cell_volume                     1803.17
loop_
_atom_site_label
_atom_site_type_symbol
_atom_site_fract_x
_atom_site_fract_y
_atom_site_fract_z
Cd1 Cd 0.44554(4) 0.610421(13) 0.02427(3)
N1 N 0.3022(10) 0.6253(2) -0.4815(5)
N2 N 0.2441(5) 0.66982(17) 0.1059(4)
N3 N -0.3715(5) 0.82746(17) 0.4258(4)
O1 O 0.4266(6) 0.39706(16) -0.2435(4)
O2 O 0.2640(7) 0.45263(17) -0.1318(4)
O3 O 0.4920(4) 0.55242(14) -0.1597(3)
O4 O 0.2467(5) 0.60114(14) -0.1915(4)
O5 O 0.4297(7) 0.64428(19) -0.4156(5)
O6 O 0.1933(11) 0.6541(2) -0.5469(6)
O7 O 0.2774(5) 0.53093(14) 0.0756(3)
C1 C 0.2858(6) 0.4737(2) -0.3618(5)
C2 C 0.3034(6) 0.5339(2) -0.3584(4)
C3 C 0.2689(7) 0.5629(2) -0.4771(5)
C4 C 0.2130(9) 0.5367(3) -0.5980(5)
H1 H 0.1905 0.5581 -0.6762
C5 C 0.1919(8) 0.4791(3) -0.5995(5)
H2 H 0.1498 0.4607 -0.6787
C6 C 0.2331(7) 0.4473(2) -0.4827(5)
H3 H 0.2249 0.4077 -0.4861
C7 C 0.3272(8) 0.4392(2) -0.2362(6)
C8 C 0.3507(6) 0.5651(2) -0.2271(5)
C9 C 0.0856(6) 0.6490(2) 0.1153(5)
H4 H 0.0581 0.6131 0.0792
C10 C -0.0376(6) 0.67759(19) 0.1751(5)
H5 H -0.1458 0.6610 0.1806
C11 C -0.0016(6) 0.73213(19) 0.2284(5)
C12 C 0.1637(6) 0.7540(2) 0.2179(5)
H6 H 0.1942 0.7901 0.2514
C13 C 0.2820(7) 0.7215(2) 0.1574(5)
H7 H 0.3927 0.7362 0.1524
C14 C -0.1320(6) 0.76482(19) 0.2950(5)
C15 C -0.2648(7) 0.7385(2) 0.3520(6)
H8 H -0.2763 0.6990 0.3478
C16 C -0.3807(7) 0.7704(2) 0.4151(5)
H9 H -0.4698 0.7515 0.4521
C17 C -0.2439(6) 0.8530(2) 0.3695(5)
H10 H -0.2362 0.8927 0.3745
C18 C -0.1220(6) 0.82402(19) 0.3041(5)
H11 H -0.0349 0.8439 0.2668
H12 H 0.342(6) 0.5060(17) 0.119(5)
H13 H 0.226(6) 0.5027(14) 0.036(5)
Cd1B Cd 0.55446(4) 0.389579(13) -0.02427(3)
Cd1C Cd -0.55446(4) 0.889579(13) 0.52427(3)
N3C N 0.6285(5) 0.67254(17) -0.0742(4)
O1B O 0.5734(6) 0.60294(16) 0.2435(4)
O2B O 0.7360(7) 0.54737(17) 0.1318(4)
loop_
_geom_bond_atom_site_label_1
_geom_bond_atom_site_label_2
_geom_bond_site_symmetry_1
_geom_bond_site_symmetry_2
Cd1 N2 1_555 1_555
N1 O5 1_555 1_555
N2 C9 1_555 1_555
N3 C16 1_555 1_555
O1 C7 1_555 1_555
O2 C7 1_555 1_555
O3 Cd1 1_555 1_555
O4 Cd1 1_555 1_555
O6 N1 1_555 1_555
O7 Cd1 1_555 1_555
C1 C2 1_555 1_555
C2 C3 1_555 1_555
C3 N1 1_555 1_555
C4 C3 1_555 1_555
H1 C4 1_555 1_555
C5 C4 1_555 1_555
H2 C5 1_555 1_555
C6 C1 1_555 1_555
H3 C6 1_555 1_555
C7 C1 1_555 1_555
C8 O3 1_555 1_555
C9 H4 1_555 1_555
C10 C9 1_555 1_555
H5 C10 1_555 1_555
C11 C10 1_555 1_555
C12 C11 1_555 1_555
H6 C12 1_555 1_555
C13 N2 1_555 1_555
H7 C13 1_555 1_555
C14 C11 1_555 1_555
C15 C14 1_555 1_555
H8 C15 1_555 1_555
C16 C15 1_555 1_555
H9 C16 1_555 1_555
C17 N3 1_555 1_555
H10 C17 1_555 1_555
C18 C14 1_555 1_555
H11 C18 1_555 1_555
H12 O7 1_555 1_555
H13 O7 1_555 1_555
Cd1B O1 1_555 1_555
Cd1C N3 1_555 1_555
N3C Cd1 1_555 1_555
O1B Cd1 1_555 1_555
O2B Cd1 1_555 1_555
O2 Cd1B 1_555 1_555
O4 C8 1_555 1_555
C2 C8 1_555 1_555
C5 C6 1_555 1_555
C12 C13 1_555 1_555
C17 C18 1_555 1_555

#END
