
#######################################################################
#
#                 Cambridge Crystallographic Data Centre
#                                CCDC 
#
#######################################################################
#
# If this CIF has been generated from an entry in the Cambridge 
# Structural Database, then it will include bibliographic, chemical, 
# crystal, experimental, refinement or atomic coordinate data resulting 
# from the CCDC's data processing and validation procedures.
#
#######################################################################

data_FULNEH
_symmetry_cell_setting           triclinic
_symmetry_space_group_name_H-M   'P -1'
_symmetry_Int_Tables_number      2
_space_group_name_Hall           '-P 1'
loop_
_symmetry_equiv_pos_site_id
_symmetry_equiv_pos_as_xyz
1 x,y,z
2 -x,-y,-z
_cell_length_a                   8.647(6)
_cell_length_b                   12.092(9)
_cell_length_c                   14.967(11)
_cell_angle_alpha                88.912(8)
_cell_angle_beta                 81.199(8)
_cell_angle_gamma                89.395(8)
_cell_volume                     1546.19
loop_
_atom_site_label
_atom_site_type_symbol
_atom_site_fract_x
_atom_site_fract_y
_atom_site_fract_z
Co1 Co 0.06007(6) 0.80104(5) 0.75057(4)
C1 C 0.3007(6) 0.6342(4) 0.8314(3)
H1 H 0.2476 0.6392 0.8901
C2 C 0.4257(6) 0.5681(5) 0.8059(4)
H2 H 0.4735 0.5201 0.8428
C3 C 0.3675(5) 0.6616(4) 0.6891(3)
H3 H 0.3708 0.6884 0.6302
C4 C 0.5901(5) 0.5300(4) 0.6538(3)
H4 H 0.5767 0.5461 0.5916
H5 H 0.5803 0.4508 0.6639
C5 C 0.8756(6) 0.4986(4) 0.6615(5)
H6 H 0.8805 0.4232 0.6498
C6 C 0.9956(6) 0.5627(4) 0.6755(4)
H7 H 1.0984 0.5388 0.6748
C7 C 0.7931(5) 0.6662(4) 0.6844(3)
H8 H 0.7276 0.7280 0.6906
C8 C -0.1047(5) 1.0015(4) 0.6711(3)
H9 H -0.0112 1.0155 0.6330
C9 C -0.2797(6) 0.9273(4) 0.7696(3)
H10 H -0.3291 0.8787 0.8135
C10 C -0.3473(6) 1.0180(4) 0.7386(3)
H11 H -0.4493 1.0431 0.7560
C11 C -0.2457(6) 1.1692(3) 0.6261(3)
H12 H -0.1590 1.2166 0.6335
H13 H -0.3422 1.2070 0.6501
C12 C -0.3480(8) 1.0859(6) 0.4946(4)
H14 H -0.4339 1.0495 0.5265
C13 C -0.3034(6) 1.0871(5) 0.4045(3)
H15 H -0.3531 1.0496 0.3634
C14 C -0.1424(5) 1.1861(4) 0.4603(3)
H16 H -0.0585 1.2317 0.4660
C15 C 0.1235(6) 1.0432(4) 0.8212(3)
H17 H 0.0432 1.0731 0.7933
C16 C 0.3162(6) 1.0293(4) 0.8999(3)
H18 H 0.3927 1.0458 0.9349
C17 C 0.2863(6) 0.9295(4) 0.8683(3)
H19 H 0.3394 0.8645 0.8790
C18 C 0.2010(6) 1.2216(4) 0.8803(3)
H20 H 0.1205 1.2513 0.8478
H21 H 0.2999 1.2544 0.8541
C19 C 0.0797(5) 1.1955(4) 1.0435(3)
H22 H 0.0401 1.1251 1.0383
C20 C 0.1312(7) 1.3508(4) 1.0969(3)
H23 H 0.1342 1.4093 1.1360
C21 C 0.1982(7) 1.3502(4) 1.0092(4)
H24 H 0.2563 1.4068 0.9778
N1 N 0.2632(4) 0.6931(3) 0.7578(2)
N2 N 0.4682(4) 0.5862(3) 0.7142(3)
N3 N 0.7457(4) 0.5643(3) 0.6676(2)
N4 N 0.9428(4) 0.6683(3) 0.6910(2)
N5 N -0.1277(4) 0.9164(3) 0.7275(2)
N6 N -0.2335(4) 1.0659(3) 0.6755(2)
N7 N -0.2437(4) 1.1481(3) 0.5301(2)
N8 N -0.1752(4) 1.1514(3) 0.3826(2)
N9 N 0.1652(4) 0.9374(3) 0.8174(2)
N10 N 0.2107(4) 1.1022(3) 0.8699(2)
N11 N 0.1645(4) 1.2509(3) 0.9755(2)
N12 N 0.0583(4) 1.2522(3) 1.1193(2)
Co1_2 Co 1.06007(6) 0.80104(5) 0.75057(4)
Co1A Co -0.06007(6) 1.19896(5) 0.24943(4)
Co1A_2 Co -0.06007(6) 1.19896(5) 1.24943(4)
N4_2 N -0.0572(4) 0.6683(3) 0.6910(2)
N8A N 0.1752(4) 0.8486(3) 0.6174(2)
N12A N -0.0583(4) 0.7478(3) 0.8807(2)
P1 P 0.72437(18) 0.72185(12) 0.40439(10)
F1 F 0.7291(9) 0.8023(6) 0.4825(5)
F2 F 0.8115(7) 0.6337(4) 0.4553(3)
F3 F 0.8839(5) 0.7583(6) 0.3496(5)
F4 F 0.7122(7) 0.6419(4) 0.3252(3)
F5 F 0.6389(5) 0.8146(4) 0.3530(3)
F6 F 0.5554(6) 0.6846(5) 0.4524(4)
P2 P 0.29530(18) 0.71297(13) 0.11189(9)
F7 F 0.4144(6) 0.7268(7) 0.1809(4)
F8 F 0.2549(17) 0.6034(5) 0.1455(8)
F9 F 0.1718(6) 0.7646(6) 0.1832(4)
F10 F 0.1834(6) 0.7076(6) 0.0427(4)
F11 F 0.3557(17) 0.8188(9) 0.0760(8)
F12 F 0.4152(8) 0.6505(12) 0.0471(6)
loop_
_geom_bond_atom_site_label_1
_geom_bond_atom_site_label_2
_geom_bond_site_symmetry_1
_geom_bond_site_symmetry_2
Co1 N1 1_555 1_555
C1 H1 1_555 1_555
C2 C1 1_555 1_555
H2 C2 1_555 1_555
C3 H3 1_555 1_555
C4 H4 1_555 1_555
H5 C4 1_555 1_555
C5 H6 1_555 1_555
C6 C5 1_555 1_555
H7 C6 1_555 1_555
C7 H8 1_555 1_555
C8 H9 1_555 1_555
C9 H10 1_555 1_555
C10 C9 1_555 1_555
H11 C10 1_555 1_555
C11 H12 1_555 1_555
H13 C11 1_555 1_555
C12 H14 1_555 1_555
C13 C12 1_555 1_555
H15 C13 1_555 1_555
C14 H16 1_555 1_555
C15 H17 1_555 1_555
C16 H18 1_555 1_555
C17 C16 1_555 1_555
H19 C17 1_555 1_555
C18 H20 1_555 1_555
H21 C18 1_555 1_555
C19 H22 1_555 1_555
C20 H23 1_555 1_555
C21 C20 1_555 1_555
H24 C21 1_555 1_555
N1 C1 1_555 1_555
N2 C2 1_555 1_555
N3 C4 1_555 1_555
N4 C6 1_555 1_555
N5 Co1 1_555 1_555
N6 C8 1_555 1_555
N7 C11 1_555 1_555
N8 C13 1_555 1_555
N9 Co1 1_555 1_555
N10 C15 1_555 1_555
N11 C18 1_555 1_555
N12 C19 1_555 1_555
P1 F1 1_555 1_555
F2 P1 1_555 1_555
F3 P1 1_555 1_555
F4 P1 1_555 1_555
F5 P1 1_555 1_555
F6 P1 1_555 1_555
P2 F7 1_555 1_555
F8 P2 1_555 1_555
F9 P2 1_555 1_555
F10 P2 1_555 1_555
F11 P2 1_555 1_555
F12 P2 1_555 1_555
Co1_2 N4 1_555 1_555
Co1A N8 1_555 1_555
Co1A_2 N12 1_555 1_555
N4_2 Co1 1_555 1_555
N8A Co1 1_555 1_555
N12A Co1 1_555 1_555
C3 N1 1_555 1_555
C3 N2 1_555 1_555
C4 N2 1_555 1_555
C5 N3 1_555 1_555
C7 N3 1_555 1_555
C7 N4 1_555 1_555
C8 N5 1_555 1_555
C9 N5 1_555 1_555
C10 N6 1_555 1_555
C11 N6 1_555 1_555
C12 N7 1_555 1_555
C14 N7 1_555 1_555
C14 N8 1_555 1_555
C15 N9 1_555 1_555
C16 N10 1_555 1_555
C17 N9 1_555 1_555
C18 N10 1_555 1_555
C19 N11 1_555 1_555
C20 N12 1_555 1_555
C21 N11 1_555 1_555

#END
