
#######################################################################
#
#                 Cambridge Crystallographic Data Centre
#                                CCDC 
#
#######################################################################
#
# If this CIF has been generated from an entry in the Cambridge 
# Structural Database, then it will include bibliographic, chemical, 
# crystal, experimental, refinement or atomic coordinate data resulting 
# from the CCDC's data processing and validation procedures.
#
#######################################################################

data_FULQUZ
_symmetry_cell_setting           orthorhombic
_symmetry_space_group_name_H-M   'P n a 21'
_symmetry_Int_Tables_number      33
_space_group_name_Hall           'P 2c -2n'
loop_
_symmetry_equiv_pos_site_id
_symmetry_equiv_pos_as_xyz
1 x,y,z
2 -x,-y,1/2+z
3 1/2+x,1/2-y,z
4 1/2-x,1/2+y,1/2+z
_cell_length_a                   17.434(4)
_cell_length_b                   11.227(3)
_cell_length_c                   17.980(4)
_cell_angle_alpha                90
_cell_angle_beta                 90
_cell_angle_gamma                90
_cell_volume                     3519.25
loop_
_atom_site_label
_atom_site_type_symbol
_atom_site_fract_x
_atom_site_fract_y
_atom_site_fract_z
La1 La -0.18420(2) 0.85740(3) 0.51966(5)
La2 La 0.03281(2) 0.68149(3) 0.52010(3)
S1 S -0.05115(13) 1.0463(2) 0.27222(13)
O1 O 0.0225(4) 0.8656(6) 0.4455(3)
O2 O -0.0944(4) 0.9376(6) 0.4185(4)
O3 O 0.0640(4) 1.1423(6) 0.0947(3)
O4 O -0.0514(4) 1.1896(6) 0.1345(3)
C1 C 0.0042(5) 0.9663(8) 0.3319(4)
C2 C 0.0790(5) 0.9555(9) 0.3056(5)
H1 H 0.1180 0.9144 0.3309
C3 C 0.0897(5) 1.0135(8) 0.2365(5)
H2 H 0.1363 1.0137 0.2102
C4 C 0.0243(5) 1.0693(9) 0.2120(5)
C5 C -0.0253(6) 0.9186(9) 0.4053(5)
C6 C 0.0131(5) 1.1379(9) 0.1432(5)
S2 S -0.38792(12) 0.9835(2) 0.25480(13)
O5 O -0.2817(4) 0.9470(6) 0.4438(3)
O6 O -0.3926(4) 0.8694(6) 0.4030(4)
O7 O -0.3194(3) 1.1726(6) 0.0858(4)
O8 O -0.4348(4) 1.0934(6) 0.1115(3)
C7 C -0.3167(5) 0.9793(9) 0.3205(5)
C8 C -0.2533(5) 1.0419(9) 0.2981(5)
H3 H -0.2086 1.0499 0.3270
C9 C -0.2625(5) 1.0932(10) 0.2265(5)
H4 H -0.2243 1.1372 0.2018
C10 C -0.3343(5) 1.0707(8) 0.1978(5)
C11 C -0.3313(5) 0.9246(11) 0.3948(6)
C12 C -0.3652(5) 1.1145(8) 0.1261(5)
S3 S -0.28931(12) 1.0528(2) 0.78028(13)
O9 O -0.2533(3) 0.9177(6) 0.6357(4)
O10 O -0.3746(4) 0.9248(6) 0.5963(3)
O11 O -0.2879(3) 1.2116(6) 0.9141(3)
O12 O -0.4087(3) 1.1821(5) 0.9463(3)
C13 C -0.3505(5) 0.9872(8) 0.7184(5)
C14 C -0.4246(5) 0.9988(10) 0.7397(5)
H5 H -0.4660 0.9702 0.7114
C15 C -0.4336(5) 1.0574(10) 0.8077(5)
H6 H -0.4810 1.0701 0.8314
C16 C -0.3643(4) 1.0937(8) 0.8352(5)
C17 C -0.3240(6) 0.9393(10) 0.6455(6)
C18 C -0.3534(5) 1.1648(8) 0.9030(5)
O13 O -0.1657(5) 1.0799(7) 0.5413(4)
N1 N -0.1653(5) 1.2759(7) 0.5135(11)
C19 C -0.1674(6) 1.1651(10) 0.4958(7)
H7 H -0.1705 1.1461 0.4450
C20 C -0.1700(9) 1.3725(13) 0.4606(12)
H8 H -0.1772 1.3404 0.4110
H9 H -0.1230 1.4185 0.4621
H10 H -0.2130 1.4235 0.4731
C21 C -0.1601(9) 1.3169(13) 0.5913(10)
H11 H -0.1628 1.2488 0.6245
H12 H -0.2023 1.3707 0.6019
H13 H -0.1118 1.3582 0.5988
O14 O 0.0210(4) 0.4576(6) 0.4880(4)
N2 N 0.0812(6) 0.3040(8) 0.4319(6)
C22 C 0.0767(6) 0.3904(9) 0.4807(6)
H14 H 0.1189 0.4021 0.5125
C23 C 0.0222(12) 0.2844(14) 0.3785(10)
H15 H -0.0062 0.3577 0.3709
H16 H 0.0450 0.2594 0.3318
H17 H -0.0122 0.2229 0.3963
C24 C 0.1489(8) 0.2285(12) 0.4259(9)
H18 H 0.1836 0.2457 0.4667
H19 H 0.1336 0.1455 0.4280
H20 H 0.1746 0.2440 0.3791
O16 O 0.1695(3) 0.7892(5) 0.5147(7)
H28 H 0.179(6) 0.847(8) 0.539(6)
La1A La 0.18420(2) 1.14260(3) 0.01966(5)
La1C La -0.31580(2) 1.35740(3) 0.01966(5)
La1C_2 La -0.31580(2) 1.35740(3) 1.01966(5)
La2A La -0.03281(2) 1.31851(3) 0.02010(3)
La2B La -0.46719(2) 0.81851(3) 0.52010(3)
La2C La -0.53281(2) 1.18149(3) 0.02010(3)
La2C_2 La -0.53281(2) 1.18149(3) 1.02010(3)
O3A O -0.0640(4) 0.8577(6) 0.5947(3)
O4A O 0.0514(4) 0.8104(6) 0.6345(3)
O6B O 0.1074(4) 0.6306(6) 0.4030(4)
O7C O -0.1806(3) 0.6726(6) 0.5858(4)
O8C O -0.0652(4) 0.5934(6) 0.6115(3)
O10B O 0.1254(4) 0.5752(6) 0.5963(3)
O11C O -0.2121(3) 0.7116(6) 0.4141(3)
O12C O -0.0913(3) 0.6821(5) 0.4463(3)
O15 O -0.3278(5) 0.4808(9) 0.5715(6)
N3 N -0.4119(7) 0.3494(9) 0.6205(6)
C25 C -0.3920(9) 0.4393(13) 0.5765(8)
H21 H -0.4306 0.4736 0.5470
C26 C -0.3519(11) 0.2998(16) 0.6717(11)
H22 H -0.3042 0.3429 0.6648
H23 H -0.3439 0.2161 0.6606
H24 H -0.3688 0.3083 0.7228
C27 C -0.4869(11) 0.2974(17) 0.6259(14)
H25 H -0.5195 0.3295 0.5871
H26 H -0.5089 0.3159 0.6742
H27 H -0.4831 0.2117 0.6203
loop_
_geom_bond_atom_site_label_1
_geom_bond_atom_site_label_2
_geom_bond_site_symmetry_1
_geom_bond_site_symmetry_2
La1 O2 1_555 1_555
La2 O1 1_555 1_555
S1 C1 1_555 1_555
O1 C5 1_555 1_555
O2 C5 1_555 1_555
O3 C6 1_555 1_555
O4 C6 1_555 1_555
C1 C2 1_555 1_555
C2 H1 1_555 1_555
C3 C2 1_555 1_555
H2 C3 1_555 1_555
C4 S1 1_555 1_555
C5 C1 1_555 1_555
C6 C4 1_555 1_555
S2 C7 1_555 1_555
O5 La1 1_555 1_555
O6 C11 1_555 1_555
O7 C12 1_555 1_555
O8 C12 1_555 1_555
C7 C8 1_555 1_555
C8 H3 1_555 1_555
C9 C8 1_555 1_555
H4 C9 1_555 1_555
C10 S2 1_555 1_555
C11 O5 1_555 1_555
C12 C10 1_555 1_555
S3 C13 1_555 1_555
O9 La1 1_555 1_555
O10 C17 1_555 1_555
O11 C18 1_555 1_555
O12 C18 1_555 1_555
C13 C14 1_555 1_555
C14 H5 1_555 1_555
C15 C14 1_555 1_555
H6 C15 1_555 1_555
C16 S3 1_555 1_555
C17 O9 1_555 1_555
C18 C16 1_555 1_555
O13 La1 1_555 1_555
N1 C19 1_555 1_555
C19 O13 1_555 1_555
H7 C19 1_555 1_555
C20 N1 1_555 1_555
H8 C20 1_555 1_555
H9 C20 1_555 1_555
H10 C20 1_555 1_555
C21 N1 1_555 1_555
H11 C21 1_555 1_555
H12 C21 1_555 1_555
H13 C21 1_555 1_555
O14 La2 1_555 1_555
N2 C22 1_555 1_555
C22 O14 1_555 1_555
H14 C22 1_555 1_555
C23 N2 1_555 1_555
H15 C23 1_555 1_555
H16 C23 1_555 1_555
H17 C23 1_555 1_555
C24 N2 1_555 1_555
H18 C24 1_555 1_555
H19 C24 1_555 1_555
H20 C24 1_555 1_555
O15 C25 1_555 1_555
N3 C25 1_555 1_555
C25 H21 1_555 1_555
C26 N3 1_555 1_555
H22 C26 1_555 1_555
H23 C26 1_555 1_555
H24 C26 1_555 1_555
C27 N3 1_555 1_555
H25 C27 1_555 1_555
H26 C27 1_555 1_555
H27 C27 1_555 1_555
O16 La2 1_555 1_555
H28 O16 1_555 1_555
La1A O3 1_555 1_555
La1C O7 1_555 1_555
La1C_2 O11 1_555 1_555
La2A O4 1_555 1_555
La2B O6 1_555 1_555
La2C O8 1_555 1_555
La2C_2 O12 1_555 1_555
O3A La1 1_555 1_555
O4A La2 1_555 1_555
O6B La2 1_555 1_555
O7C La1 1_555 1_555
O8C La2 1_555 1_555
O10B La2 1_555 1_555
O11C La1 1_555 1_555
O12C La1 1_555 1_555
La2 O12C 1_555 1_555
C3 C4 1_555 1_555
C7 C11 1_555 1_555
C9 C10 1_555 1_555
O10 La2B 1_555 1_555
O12 La1C_2 1_555 1_555
C13 C17 1_555 1_555
C15 C16 1_555 1_555

#END
