
#######################################################################
#
#                 Cambridge Crystallographic Data Centre
#                                CCDC 
#
#######################################################################
#
# If this CIF has been generated from an entry in the Cambridge 
# Structural Database, then it will include bibliographic, chemical, 
# crystal, experimental, refinement or atomic coordinate data resulting 
# from the CCDC's data processing and validation procedures.
#
#######################################################################

data_FULQOT
_symmetry_cell_setting           monoclinic
_symmetry_space_group_name_H-M   'P 21/n'
_symmetry_Int_Tables_number      14
_space_group_name_Hall           '-P 2yn'
loop_
_symmetry_equiv_pos_site_id
_symmetry_equiv_pos_as_xyz
1 x,y,z
2 1/2-x,1/2+y,1/2-z
3 -x,-y,-z
4 1/2+x,1/2-y,1/2+z
_cell_length_a                   17.5387(17)
_cell_length_b                   10.8038(11)
_cell_length_c                   17.7283(18)
_cell_angle_alpha                90
_cell_angle_beta                 104.793(2)
_cell_angle_gamma                90
_cell_volume                     3247.9
loop_
_atom_site_label
_atom_site_type_symbol
_atom_site_fract_x
_atom_site_fract_y
_atom_site_fract_z
Gd1 Gd 0.41689(2) 0.38495(3) 0.01302(2)
Gd2 Gd 0.11167(2) 0.42638(3) -0.01272(2)
S1 S 0.40838(11) 0.28466(18) 0.24989(11)
O1 O 0.3438(3) 0.4263(5) 0.1013(3)
O2 O 0.2177(3) 0.3920(6) 0.0970(3)
O3 O 0.5121(3) 0.1772(5) 0.3914(3)
O4 O 0.4204(3) 0.0722(5) 0.4312(3)
C1 C 0.2894(4) 0.3805(7) 0.1277(4)
C2 C 0.3111(4) 0.3100(7) 0.2017(4)
C3 C 0.2621(5) 0.2567(9) 0.2384(5)
H1 H 0.2063 0.2620 0.2204
C4 C 0.3010(5) 0.1916(8) 0.3064(5)
H2 H 0.2746 0.1476 0.3387
C5 C 0.3805(4) 0.1995(7) 0.3202(4)
C6 C 0.4419(5) 0.1456(7) 0.3855(4)
S2 S 0.63197(12) 0.22241(19) 0.24012(12)
O5 O 0.6799(3) 0.0908(5) 0.3902(3)
O6 O 0.7974(3) 0.1820(5) 0.4334(3)
O7 O 0.5413(3) 0.3223(5) 0.0883(3)
O8 O 0.6365(3) 0.4444(5) 0.0659(3)
C7 C 0.7345(5) 0.1624(7) 0.3834(4)
C8 C 0.7212(4) 0.2331(7) 0.3082(4)
C9 C 0.7720(5) 0.3110(8) 0.2866(5)
H3 H 0.8239 0.3279 0.3173
C10 C 0.7387(5) 0.3644(8) 0.2127(5)
H4 H 0.7659 0.4213 0.1881
C11 C 0.6635(4) 0.3258(7) 0.1806(5)
C12 C 0.6095(5) 0.3645(7) 0.1062(5)
S3 S 0.53356(13) 0.8065(2) 0.24580(12)
O9 O 0.5521(3) 0.9171(5) 0.4003(3)
O10 O 0.4526(3) 0.8139(5) 0.4307(3)
O11 O 0.5498(3) 0.7437(5) 0.0871(3)
O12 O 0.4891(3) 0.5630(5) 0.0738(3)
C13 C 0.4979(5) 0.8384(7) 0.3881(4)
C14 C 0.4860(4) 0.7644(7) 0.3148(4)
C15 C 0.4424(5) 0.6609(8) 0.2940(5)
H5 H 0.4124 0.6237 0.3255
C16 C 0.4460(5) 0.6137(7) 0.2212(5)
H6 H 0.4185 0.5419 0.1979
C17 C 0.4930(5) 0.6824(7) 0.1883(5)
C18 C 0.5106(4) 0.6653(7) 0.1120(4)
O13 O 0.3945(3) 0.1848(5) 0.0581(3)
N1 N 0.3580(5) -0.0167(8) 0.0485(6)
C19 C 0.3786(7) 0.0878(10) 0.0232(7)
H7 H 0.3817 0.0882 -0.0295
C20 C 0.3447(9) -0.0198(12) 0.1280(7)
H8 H 0.3741 0.0477 0.1593
H9 H 0.3629 -0.0993 0.1528
H10 H 0.2883 -0.0099 0.1243
C21 C 0.3454(9) -0.1333(10) 0.0042(9)
H11 H 0.3615 -0.1227 -0.0445
H12 H 0.2895 -0.1557 -0.0079
H13 H 0.3769 -0.1991 0.0353
O14 O 0.1507(3) 0.2103(5) -0.0217(4)
N2 N 0.1279(5) 0.0068(8) -0.0241(5)
C22 C 0.1372(6) 0.1144(9) 0.0073(6)
H14 H 0.1330 0.1193 0.0596
C23 C 0.1337(10) -0.0075(12) -0.1069(7)
H15 H 0.1849 0.0236 -0.1112
H16 H 0.0914 0.0398 -0.1418
H17 H 0.1287 -0.0951 -0.1216
C24 C 0.1087(9) -0.1054(10) 0.0138(9)
H18 H 0.1148 -0.0891 0.0694
H19 H 0.1444 -0.1724 0.0078
H20 H 0.0542 -0.1298 -0.0105
O15 O 0.2167(4) 0.6050(6) -0.0041(4)
H21 H 0.250(6) 0.552(9) 0.025(6)
Gd1C Gd 0.91689(2) 0.11505(3) 0.51302(2)
Gd1B Gd 0.58311(2) 0.61505(3) -0.01302(2)
Gd2C Gd 0.61167(2) 0.07362(3) 0.48728(2)
Gd2A Gd 0.38833(2) -0.07362(3) 0.51272(2)
Gd2C_2 Gd 0.61167(2) 1.07362(3) 0.48728(2)
Gd2A_2 Gd 0.38833(2) 0.92638(3) 0.51272(2)
O3C O 0.0121(3) 0.3228(5) -0.1086(3)
O4A O 0.0796(3) 0.5722(5) 0.0688(3)
O5C O 0.1799(3) 0.4092(5) -0.1098(3)
O6C O 0.2974(3) 0.3180(5) -0.0666(3)
O8B O 0.3635(3) 0.5556(5) -0.0659(3)
O9C O 0.0521(3) 0.5829(5) -0.0997(3)
O10A O 0.0474(3) 0.3139(5) 0.0693(3)
O11B O 0.4502(3) 0.2563(5) -0.0871(3)
O12B O 0.5109(3) 0.4370(5) -0.0738(3)
loop_
_geom_bond_atom_site_label_1
_geom_bond_atom_site_label_2
_geom_bond_site_symmetry_1
_geom_bond_site_symmetry_2
Gd1 O1 1_555 1_555
Gd2 O2 1_555 1_555
S1 C2 1_555 1_555
O1 C1 1_555 1_555
O2 C1 1_555 1_555
O3 C6 1_555 1_555
O4 C6 1_555 1_555
C1 C2 1_555 1_555
C2 C3 1_555 1_555
C3 H1 1_555 1_555
C4 C3 1_555 1_555
H2 C4 1_555 1_555
C5 S1 1_555 1_555
C6 C5 1_555 1_555
S2 C8 1_555 1_555
O5 C7 1_555 1_555
O6 C7 1_555 1_555
O7 Gd1 1_555 1_555
O8 C12 1_555 1_555
C7 C8 1_555 1_555
C8 C9 1_555 1_555
C9 H3 1_555 1_555
C10 C9 1_555 1_555
H4 C10 1_555 1_555
C11 S2 1_555 1_555
C12 O7 1_555 1_555
S3 C14 1_555 1_555
O9 C13 1_555 1_555
O10 C13 1_555 1_555
O11 C18 1_555 1_555
O12 Gd1 1_555 1_555
C13 C14 1_555 1_555
C14 C15 1_555 1_555
C15 H5 1_555 1_555
C16 C15 1_555 1_555
H6 C16 1_555 1_555
C17 S3 1_555 1_555
C18 O12 1_555 1_555
O13 Gd1 1_555 1_555
N1 C19 1_555 1_555
C19 O13 1_555 1_555
H7 C19 1_555 1_555
C20 N1 1_555 1_555
H8 C20 1_555 1_555
H9 C20 1_555 1_555
H10 C20 1_555 1_555
C21 N1 1_555 1_555
H11 C21 1_555 1_555
H12 C21 1_555 1_555
H13 C21 1_555 1_555
O14 Gd2 1_555 1_555
N2 C22 1_555 1_555
C22 O14 1_555 1_555
H14 C22 1_555 1_555
C23 N2 1_555 1_555
H15 C23 1_555 1_555
H16 C23 1_555 1_555
H17 C23 1_555 1_555
C24 N2 1_555 1_555
H18 C24 1_555 1_555
H19 C24 1_555 1_555
H20 C24 1_555 1_555
O15 Gd2 1_555 1_555
H21 O15 1_555 1_555
Gd1C O6 1_555 1_555
Gd1B O8 1_555 1_555
Gd2C O3 1_555 1_555
Gd2A O4 1_555 1_555
Gd2C_2 O9 1_555 1_555
Gd2A_2 O10 1_555 1_555
O3C Gd2 1_555 1_555
O4A Gd2 1_555 1_555
O5C Gd2 1_555 1_555
O6C Gd1 1_555 1_555
O8B Gd1 1_555 1_555
O9C Gd2 1_555 1_555
O10A Gd2 1_555 1_555
O11B Gd1 1_555 1_555
O12B Gd1 1_555 1_555
C4 C5 1_555 1_555
O5 Gd2C 1_555 1_555
C10 C11 1_555 1_555
C11 C12 1_555 1_555
O11 Gd1B 1_555 1_555
O12 Gd1B 1_555 1_555
C16 C17 1_555 1_555
C17 C18 1_555 1_555
Gd1B O12B 1_555 1_555

#END
