
#######################################################################
#
#                 Cambridge Crystallographic Data Centre
#                                CCDC 
#
#######################################################################
#
# If this CIF has been generated from an entry in the Cambridge 
# Structural Database, then it will include bibliographic, chemical, 
# crystal, experimental, refinement or atomic coordinate data resulting 
# from the CCDC's data processing and validation procedures.
#
#######################################################################

data_FULSUC
_symmetry_cell_setting           triclinic
_symmetry_space_group_name_H-M   'P -1'
_symmetry_Int_Tables_number      2
_space_group_name_Hall           '-P 1'
loop_
_symmetry_equiv_pos_site_id
_symmetry_equiv_pos_as_xyz
1 x,y,z
2 -x,-y,-z
_cell_length_a                   8.8666(7)
_cell_length_b                   9.5859(8)
_cell_length_c                   10.8537(9)
_cell_angle_alpha                67.6810(10)
_cell_angle_beta                 66.1260(10)
_cell_angle_gamma                77.1300(10)
_cell_volume                     777.771
loop_
_atom_site_label
_atom_site_type_symbol
_atom_site_fract_x
_atom_site_fract_y
_atom_site_fract_z
Co1 Co 0.62519(7) 0.19886(5) 0.55287(5)
O1 O 0.5298(4) 0.3663(3) 0.6533(3)
C1 C 0.6339(6) -0.1756(5) 0.9312(5)
H1 H 0.6141 -0.2728 0.9951
C2 C 1.2225(6) -0.3740(5) 1.0154(5)
H2 H 1.3195 -0.4375 1.0087
O2 O 0.2968(3) -0.0490(3) 0.5632(3)
O3 O 0.4437(4) 0.6130(3) 0.6076(3)
O4 O 0.3949(4) 0.1169(3) 0.6058(3)
N1 N 1.0699(4) -0.5824(4) 1.3613(3)
N2 N 0.7039(4) -0.0681(4) 0.9415(4)
N3 N 0.8683(4) -0.7347(4) 1.4694(4)
C3 C 0.5991(6) -0.1124(4) 0.8098(5)
H3 H 0.5500 -0.1597 0.7766
C4 C 0.7107(5) 0.0542(4) 0.8251(4)
H4 H 0.7546 0.1431 0.8051
C5 C 1.1293(5) -0.7154(5) 1.4420(4)
H5 H 1.2327 -0.7372 1.4508
N4 N 0.6478(4) 0.0329(4) 0.7432(3)
C6 C 0.9293(5) -0.1867(5) 1.0342(4)
C7 C 1.1617(5) -0.4448(4) 1.2780(4)
H6 H 1.2796 -0.4739 1.2513
H7 H 1.1340 -0.3813 1.3369
C8 C 1.0023(5) -0.8092(5) 1.5071(4)
H8 H 1.0068 -0.9083 1.5675
C9 C 0.7699(5) -0.0865(5) 1.0496(4)
H9 H 0.6888 -0.1298 1.1430
H10 H 0.7893 0.0121 1.0432
C10 C 0.4116(5) 0.0189(4) 0.5481(4)
C11 C 0.9754(5) -0.2601(5) 1.1536(4)
H11 H 0.9080 -0.2455 1.2400
C12 C 0.4907(5) 0.4942(5) 0.5764(4)
C13 C 0.9148(5) -0.5998(5) 1.3807(5)
H12 H 0.8482 -0.5255 1.3369
C14 C 1.1215(5) -0.3554(4) 1.1452(4)
C15 C 1.0351(6) -0.2050(5) 0.9043(5)
H13 H 1.0082 -0.1541 0.8230
C16 C 1.1804(6) -0.2989(5) 0.8956(5)
H14 H 1.2497 -0.3114 0.8088
O1A O 0.4702(4) 0.6337(3) 0.3467(3)
O3A O 0.5563(4) 0.3870(3) 0.3924(3)
C12A C 0.5093(5) 0.5058(5) 0.4236(4)
O2A O 0.7032(3) 0.0490(3) 0.4368(3)
O4A O 0.6051(4) -0.1169(3) 0.3942(3)
C10A C 0.5884(5) -0.0189(4) 0.4519(4)
Co1A Co 0.37481(7) -0.19886(5) 0.44713(5)
C1A C 0.3661(6) 0.1756(5) 0.0688(5)
H1A H 0.3859 0.2728 0.0049
C2A C -0.2225(6) 0.3740(5) -0.0154(5)
H2A H -0.3195 0.4375 -0.0087
N1A N -0.0699(4) 0.5824(4) -0.3613(3)
N2A N 0.2961(4) 0.0681(4) 0.0585(4)
N3A N 0.1317(4) 0.7347(4) -0.4694(4)
C3A C 0.4009(6) 0.1124(4) 0.1902(5)
H3A H 0.4500 0.1597 0.2234
C4A C 0.2893(5) -0.0542(4) 0.1749(4)
H4A H 0.2454 -0.1431 0.1949
C5A C -0.1293(5) 0.7154(5) -0.4420(4)
H5A H -0.2327 0.7372 -0.4508
N4A N 0.3522(4) -0.0329(4) 0.2568(3)
C6A C 0.0707(5) 0.1867(5) -0.0342(4)
C7A C -0.1617(5) 0.4448(4) -0.2780(4)
H6A H -0.2796 0.4739 -0.2513
H7A H -0.1340 0.3813 -0.3369
C8A C -0.0023(5) 0.8092(5) -0.5071(4)
H8A H -0.0068 0.9083 -0.5675
C9A C 0.2301(5) 0.0865(5) -0.0496(4)
H9A H 0.3112 0.1298 -0.1430
H10A H 0.2107 -0.0121 -0.0432
C11A C 0.0246(5) 0.2601(5) -0.1536(4)
H11A H 0.0920 0.2455 -0.2400
C13A C 0.0852(5) 0.5998(5) -0.3807(5)
H12A H 0.1518 0.5255 -0.3369
C14A C -0.1215(5) 0.3554(4) -0.1452(4)
C15A C -0.0351(6) 0.2050(5) 0.0957(5)
H13A H -0.0082 0.1541 0.1770
C16A C -0.1804(6) 0.2989(5) 0.1044(5)
H14A H -0.2497 0.3114 0.1912
Co1_2 Co 0.62519(7) -0.80114(5) 1.55287(5)
Co1A_2 Co 0.37481(7) 0.80114(5) -0.55287(5)
Co1A_3 Co 0.37481(7) 0.80114(5) 0.44713(5)
O1A_2 O 0.4702(4) -0.3663(3) 0.3467(3)
O3_2 O 0.4437(4) -0.3870(3) 0.6076(3)
N3_2 N 0.8683(4) 0.2653(4) 0.4694(4)
N3A_2 N 0.1317(4) -0.2653(4) 0.5306(4)
loop_
_geom_bond_atom_site_label_1
_geom_bond_atom_site_label_2
_geom_bond_site_symmetry_1
_geom_bond_site_symmetry_2
Co1 O1 1_555 1_555
O1 C12 1_555 1_555
C1 H1 1_555 1_555
C2 H2 1_555 1_555
O2 C10 1_555 1_555
O3 C12 1_555 1_555
O4 Co1 1_555 1_555
N1 C5 1_555 1_555
N2 C1 1_555 1_555
N3 C8 1_555 1_555
C3 C1 1_555 1_555
H3 C3 1_555 1_555
C4 N2 1_555 1_555
H4 C4 1_555 1_555
C5 H5 1_555 1_555
N4 Co1 1_555 1_555
C6 C9 1_555 1_555
C7 N1 1_555 1_555
H6 C7 1_555 1_555
H7 C7 1_555 1_555
C8 C5 1_555 1_555
H8 C8 1_555 1_555
C9 N2 1_555 1_555
H9 C9 1_555 1_555
H10 C9 1_555 1_555
C10 O4 1_555 1_555
C11 C6 1_555 1_555
H11 C11 1_555 1_555
C12 C12A 1_555 1_555
C13 N1 1_555 1_555
H12 C13 1_555 1_555
C14 C2 1_555 1_555
C15 C6 1_555 1_555
H13 C15 1_555 1_555
C16 C2 1_555 1_555
H14 C16 1_555 1_555
O1A C12A 1_555 1_555
O3A Co1 1_555 1_555
C12A O3A 1_555 1_555
O2A Co1 1_555 1_555
O4A C10A 1_555 1_555
C10A C10 1_555 1_555
Co1A O2 1_555 1_555
C1A H1A 1_555 1_555
C2A H2A 1_555 1_555
N1A C5A 1_555 1_555
N2A C1A 1_555 1_555
N3A C8A 1_555 1_555
C3A C1A 1_555 1_555
H3A C3A 1_555 1_555
C4A N2A 1_555 1_555
H4A C4A 1_555 1_555
C5A H5A 1_555 1_555
N4A Co1A 1_555 1_555
C6A C9A 1_555 1_555
C7A N1A 1_555 1_555
H6A C7A 1_555 1_555
H7A C7A 1_555 1_555
C8A C5A 1_555 1_555
H8A C8A 1_555 1_555
C9A N2A 1_555 1_555
H9A C9A 1_555 1_555
H10A C9A 1_555 1_555
C11A C6A 1_555 1_555
H11A C11A 1_555 1_555
C13A N1A 1_555 1_555
H12A C13A 1_555 1_555
C14A C2A 1_555 1_555
C15A C6A 1_555 1_555
H13A C15A 1_555 1_555
C16A C2A 1_555 1_555
H14A C16A 1_555 1_555
Co1_2 N3 1_555 1_555
Co1A_2 N3A 1_555 1_555
Co1A_3 O3 1_555 1_555
O1A_2 Co1A 1_555 1_555
O3_2 Co1A 1_555 1_555
N3_2 Co1 1_555 1_555
N3A_2 Co1A 1_555 1_555
N3 C13 1_555 1_555
C3 N4 1_555 1_555
C4 N4 1_555 1_555
C7 C14 1_555 1_555
C11 C14 1_555 1_555
C15 C16 1_555 1_555
O1A Co1A_3 1_555 1_555
O2A C10A 1_555 1_555
O4A Co1A 1_555 1_555
N3A C13A 1_555 1_555
C3A N4A 1_555 1_555
C4A N4A 1_555 1_555
C7A C14A 1_555 1_555
C11A C14A 1_555 1_555
C15A C16A 1_555 1_555

#END
