
#######################################################################
#
#                 Cambridge Crystallographic Data Centre
#                                CCDC 
#
#######################################################################
#
# If this CIF has been generated from an entry in the Cambridge 
# Structural Database, then it will include bibliographic, chemical, 
# crystal, experimental, refinement or atomic coordinate data resulting 
# from the CCDC's data processing and validation procedures.
#
#######################################################################

data_FULXUH
_symmetry_cell_setting           monoclinic
_symmetry_space_group_name_H-M   'P 21/c'
_symmetry_Int_Tables_number      14
_space_group_name_Hall           '-P 2ybc'
loop_
_symmetry_equiv_pos_site_id
_symmetry_equiv_pos_as_xyz
1 x,y,z
2 -x,1/2+y,1/2-z
3 -x,-y,-z
4 x,1/2-y,1/2+z
_cell_length_a                   11.697(2)
_cell_length_b                   25.378(5)
_cell_length_c                   14.984(5)
_cell_angle_alpha                90
_cell_angle_beta                 125.37(2)
_cell_angle_gamma                90
_cell_volume                     3626.99
loop_
_atom_site_label
_atom_site_type_symbol
_atom_site_fract_x
_atom_site_fract_y
_atom_site_fract_z
Mn1 Mn -0.10199(5) -0.436163(19) 0.53600(4)
O1 O -0.2043(2) -0.46050(10) 0.37444(18)
O2 O -0.1045(2) -0.42191(10) -0.31836(19)
O3 O -0.4640(2) -0.45201(11) -0.12837(18)
O4 O -0.0259(2) -0.49757(10) 0.38105(19)
O5 O -0.2953(2) -0.45641(9) -0.46483(18)
N1 N 0.0766(3) -0.38528(11) 0.5627(2)
N2 N -0.1805(3) -0.35041(12) 0.4900(2)
N3 N 0.2420(3) -0.20624(13) 0.6087(3)
N4 N -0.0247(4) -0.16971(12) 0.5376(3)
C1 C 0.2017(3) -0.40290(13) 0.5918(3)
H1 H 0.2161 -0.4391 0.5946
C2 C 0.3116(4) -0.36906(16) 0.6183(4)
H2 H 0.3973 -0.3827 0.6386
C3 C 0.2922(4) -0.31629(16) 0.6140(4)
H3 H 0.3646 -0.2934 0.6318
C4 C 0.1622(4) -0.29646(14) 0.5826(3)
C5 C 0.0568(3) -0.33228(13) 0.5557(3)
C6 C -0.0824(3) -0.31344(13) 0.5173(3)
C7 C -0.1097(4) -0.25907(14) 0.5091(3)
C8 C -0.2463(4) -0.24380(16) 0.4700(4)
H4 H -0.2686 -0.2082 0.4641
C9 C -0.3464(4) -0.28082(17) 0.4406(4)
H5 H -0.4378 -0.2710 0.4131
C10 C -0.3089(4) -0.33391(16) 0.4526(3)
H6 H -0.3773 -0.3591 0.4334
C11 C 0.1350(4) -0.23986(14) 0.5771(3)
C12 C 0.0029(4) -0.22202(14) 0.5421(3)
C13 C 0.2149(5) -0.15534(16) 0.6049(4)
C14 C 0.0825(5) -0.13722(16) 0.5703(4)
H7 H 0.0684 -0.1011 0.5700
C15 C 0.3256(7) -0.1171(2) 0.6365(6)
H8 H 0.4098 -0.1353 0.6579
H9 H 0.3429 -0.0964 0.6968
H10 H 0.2969 -0.0944 0.5756
C16 C -0.1461(3) -0.47740(13) 0.3305(3)
C17 C -0.2282(3) -0.47167(12) 0.2090(3)
C18 C -0.3559(3) -0.44554(13) 0.1516(3)
H11 H -0.3915 -0.4326 0.1891
C19 C -0.4313(3) -0.43836(14) 0.0396(3)
H12 H -0.5162 -0.4203 0.0021
C20 C -0.3788(3) -0.45835(14) -0.0156(3)
C21 C -0.2526(4) -0.48540(14) 0.0390(3)
H13 H -0.2189 -0.4990 0.0007
C22 C -0.1769(3) -0.49190(13) 0.1518(3)
H14 H -0.0919 -0.5098 0.1893
C23 C -0.4015(3) -0.44957(14) -0.1840(3)
C24 C -0.4628(3) -0.47811(13) -0.2795(3)
H15 H -0.5393 -0.4998 -0.3026
C25 C -0.4083(3) -0.47388(13) -0.3407(3)
H16 H -0.4505 -0.4922 -0.4064
C26 C -0.2325(3) -0.41432(14) -0.2081(3)
H17 H -0.1546 -0.3932 -0.1837
C27 C -0.2919(3) -0.44271(12) -0.3051(3)
C28 C -0.2288(3) -0.44007(12) -0.3672(3)
C29 C -0.2874(4) -0.41700(14) -0.1479(3)
H18 H -0.2486 -0.3973 -0.0843
Mn1_2 Mn -0.10199(5) -0.436163(19) -0.46400(4)
Mn1B Mn 0.10199(5) -0.563837(19) 0.46400(4)
O2_2 O -0.1045(2) -0.42191(10) 0.68164(19)
O4B O 0.0259(2) -0.50243(10) 0.61895(19)
O5_2 O -0.2953(2) -0.45641(9) 0.53517(18)
C30 C 0.3602(4) -0.17503(15) 0.3728(4)
H19 H 0.4429 -0.1590 0.3918
C31 C 0.2448(5) -0.14275(16) 0.3386(4)
H20 H 0.2510 -0.1064 0.3354
C32 C 0.1229(4) -0.16594(16) 0.3102(3)
H21 H 0.0445 -0.1455 0.2874
C33 C 0.1168(4) -0.22063(15) 0.3156(3)
C34 C 0.2382(4) -0.25003(14) 0.3510(3)
C35 C 0.2352(4) -0.30781(15) 0.3573(3)
C36 C 0.1096(4) -0.33325(17) 0.3239(4)
C37 C 0.1117(6) -0.38842(19) 0.3312(5)
H22 H 0.0305 -0.4068 0.3094
C38 C 0.2318(6) -0.41452(19) 0.3700(5)
H23 H 0.2344 -0.4511 0.3751
C39 C 0.3518(6) -0.38649(16) 0.4025(5)
H24 H 0.4344 -0.4052 0.4305
C40 C -0.0118(4) -0.2478(2) 0.2822(3)
C41 C -0.0146(4) -0.3030(2) 0.2856(4)
C42 C -0.2455(5) -0.2472(3) 0.2148(4)
C43 C -0.2456(6) -0.3030(3) 0.2184(5)
H25 H -0.3281 -0.3207 0.1951
C44 C -0.3776(3) -0.22038(13) 0.1704(3)
H26 H -0.4488 -0.2458 0.1523
H27 H -0.4040 -0.2014 0.1057
H28 H -0.3674 -0.1962 0.2238
N5 N 0.3588(3) -0.22743(12) 0.3797(3)
N6 N 0.3554(4) -0.33423(12) 0.3957(3)
N7 N -0.1285(4) -0.21909(19) 0.2475(3)
N8 N -0.1342(4) -0.3292(2) 0.2532(4)
loop_
_geom_bond_atom_site_label_1
_geom_bond_atom_site_label_2
_geom_bond_site_symmetry_1
_geom_bond_site_symmetry_2
Mn1 O1 1_555 1_555
O1 C16 1_555 1_555
O2 C28 1_555 1_555
O3 C20 1_555 1_555
O4 C16 1_555 1_555
O5 C28 1_555 1_555
N1 Mn1 1_555 1_555
N2 Mn1 1_555 1_555
N3 C11 1_555 1_555
N4 C12 1_555 1_555
C1 N1 1_555 1_555
H1 C1 1_555 1_555
C2 C1 1_555 1_555
H2 C2 1_555 1_555
C3 C2 1_555 1_555
H3 C3 1_555 1_555
C4 C3 1_555 1_555
C5 N1 1_555 1_555
C6 N2 1_555 1_555
C7 C6 1_555 1_555
C8 C7 1_555 1_555
H4 C8 1_555 1_555
C9 C8 1_555 1_555
H5 C9 1_555 1_555
C10 N2 1_555 1_555
H6 C10 1_555 1_555
C11 C4 1_555 1_555
C12 C7 1_555 1_555
C13 N3 1_555 1_555
C14 N4 1_555 1_555
H7 C14 1_555 1_555
C15 C13 1_555 1_555
H8 C15 1_555 1_555
H9 C15 1_555 1_555
H10 C15 1_555 1_555
C16 C17 1_555 1_555
C17 C18 1_555 1_555
C18 H11 1_555 1_555
C19 C18 1_555 1_555
H12 C19 1_555 1_555
C20 C19 1_555 1_555
C21 C20 1_555 1_555
H13 C21 1_555 1_555
C22 C17 1_555 1_555
H14 C22 1_555 1_555
C23 O3 1_555 1_555
C24 C23 1_555 1_555
H15 C24 1_555 1_555
C25 C24 1_555 1_555
H16 C25 1_555 1_555
C26 H17 1_555 1_555
C27 C25 1_555 1_555
C28 C27 1_555 1_555
C29 C23 1_555 1_555
H18 C29 1_555 1_555
C30 H19 1_555 1_555
C31 C30 1_555 1_555
H20 C31 1_555 1_555
C32 C31 1_555 1_555
H21 C32 1_555 1_555
C33 C32 1_555 1_555
C34 C33 1_555 1_555
C35 C34 1_555 1_555
C36 C35 1_555 1_555
C37 C36 1_555 1_555
H22 C37 1_555 1_555
C38 C37 1_555 1_555
H23 C38 1_555 1_555
C39 C38 1_555 1_555
H24 C39 1_555 1_555
C40 C33 1_555 1_555
C41 C36 1_555 1_555
C42 C43 1_555 1_555
C43 H25 1_555 1_555
C44 C42 1_555 1_555
H26 C44 1_555 1_555
H27 C44 1_555 1_555
H28 C44 1_555 1_555
N5 C30 1_555 1_555
N6 C35 1_555 1_555
N7 C40 1_555 1_555
N8 C41 1_555 1_555
Mn1_2 O2 1_555 1_555
Mn1B O4 1_555 1_555
O2_2 Mn1 1_555 1_555
O4B Mn1 1_555 1_555
O5_2 Mn1 1_555 1_555
O5 Mn1_2 1_555 1_555
C4 C5 1_555 1_555
C5 C6 1_555 1_555
C9 C10 1_555 1_555
C11 C12 1_555 1_555
C13 C14 1_555 1_555
C21 C22 1_555 1_555
C26 C27 1_555 1_555
C26 C29 1_555 1_555
C34 N5 1_555 1_555
C39 N6 1_555 1_555
C40 C41 1_555 1_555
C42 N7 1_555 1_555
C43 N8 1_555 1_555

#END
