
#######################################################################
#
#                 Cambridge Crystallographic Data Centre
#                                CCDC 
#
#######################################################################
#
# If this CIF has been generated from an entry in the Cambridge 
# Structural Database, then it will include bibliographic, chemical, 
# crystal, experimental, refinement or atomic coordinate data resulting 
# from the CCDC's data processing and validation procedures.
#
#######################################################################

data_FULZUJ
_symmetry_cell_setting           monoclinic
_symmetry_space_group_name_H-M   'P 21/c'
_symmetry_Int_Tables_number      14
_space_group_name_Hall           '-P 2ybc'
loop_
_symmetry_equiv_pos_site_id
_symmetry_equiv_pos_as_xyz
1 x,y,z
2 -x,1/2+y,1/2-z
3 -x,-y,-z
4 x,1/2-y,1/2+z
_cell_length_a                   10.769(2)
_cell_length_b                   12.866(3)
_cell_length_c                   9.929(2)
_cell_angle_alpha                90
_cell_angle_beta                 109.88(3)
_cell_angle_gamma                90
_cell_volume                     1293.72
loop_
_atom_site_label
_atom_site_type_symbol
_atom_site_fract_x
_atom_site_fract_y
_atom_site_fract_z
Cu1 Cu 1.0000 0.0000 0.5000
Cl1 Cl 1.26239(11) 0.10123(8) 0.34827(11)
S1 S 0.51915(11) 0.32810(9) 0.34135(12)
O1 O 1.1521(3) 0.0770(3) 0.3968(4)
O2 O 1.2284(4) 0.1879(3) 0.2527(4)
O3 O 1.2862(4) 0.0111(3) 0.2735(4)
O4 O 1.3764(4) 0.1241(3) 0.4704(4)
N1 N 0.9109(4) 0.1403(3) 0.4875(4)
N2 N 0.7673(4) 0.2617(3) 0.4882(4)
N3 N 0.1226(4) 0.4636(3) 0.1952(4)
N4 N 0.2982(4) 0.4101(3) 0.3693(4)
C1 C 0.8042(5) 0.1616(3) 0.5210(5)
H1 H 0.7611 0.1147 0.5611
C2 C 0.9423(5) 0.2287(4) 0.4282(5)
H2 H 1.0127 0.2359 0.3948
C3 C 0.8534(5) 0.3039(4) 0.4267(6)
H3 H 0.8508 0.3710 0.3909
C4 C 0.6503(4) 0.3074(4) 0.4978(5)
C5 C 0.6242(5) 0.3338(4) 0.6155(5)
H4 H 0.6844 0.3267 0.7078
C6 C 0.4950(5) 0.3739(4) 0.5845(5)
H5 H 0.4603 0.3965 0.6533
C7 C 0.4283(5) 0.3750(4) 0.4410(5)
C8 C 0.2452(4) 0.4322(4) 0.2273(5)
H6 H 0.2896 0.4260 0.1620
C9 C 0.0945(5) 0.4614(4) 0.3213(5)
H7 H 0.0144 0.4803 0.3307
C10 C 0.2033(5) 0.4271(4) 0.4299(5)
H8 H 0.2112 0.4174 0.5253
Cl1B Cl 0.73761(11) -0.10123(8) 0.65173(11)
S1B S 1.48085(11) -0.32810(9) 0.65865(12)
O1B O 0.8479(3) -0.0770(3) 0.6032(4)
O2B O 0.7716(4) -0.1879(3) 0.7473(4)
O3B O 0.7138(4) -0.0111(3) 0.7265(4)
O4B O 0.6236(4) -0.1241(3) 0.5296(4)
N1B N 1.0891(4) -0.1403(3) 0.5125(4)
N2B N 1.2327(4) -0.2617(3) 0.5118(4)
N3B N 1.8774(4) -0.4636(3) 0.8048(4)
N4B N 1.7018(4) -0.4101(3) 0.6307(4)
C1B C 1.1958(5) -0.1616(3) 0.4790(5)
H1B H 1.2389 -0.1147 0.4389
C2B C 1.0577(5) -0.2287(4) 0.5718(5)
H2B H 0.9873 -0.2359 0.6052
C3B C 1.1466(5) -0.3039(4) 0.5733(6)
H3B H 1.1492 -0.3710 0.6091
C4B C 1.3497(4) -0.3074(4) 0.5022(5)
C5B C 1.3758(5) -0.3338(4) 0.3845(5)
H4B H 1.3156 -0.3267 0.2922
C6B C 1.5050(5) -0.3739(4) 0.4155(5)
H5B H 1.5397 -0.3965 0.3467
C7B C 1.5717(5) -0.3750(4) 0.5590(5)
C8B C 1.7548(4) -0.4322(4) 0.7727(5)
H6B H 1.7104 -0.4260 0.8380
C9B C 1.9055(5) -0.4614(4) 0.6787(5)
H7B H 1.9856 -0.4803 0.6693
C10B C 1.7967(5) -0.4271(4) 0.5701(5)
H8B H 1.7888 -0.4174 0.4747
Cu1A Cu 0.0000 0.5000 0.0000
Cu1A_2 Cu 2.0000 -0.5000 1.0000
N3A N 0.8774(4) -0.0364(3) 0.3048(4)
N3C N 1.1226(4) 0.0364(3) 0.6952(4)
loop_
_geom_bond_atom_site_label_1
_geom_bond_atom_site_label_2
_geom_bond_site_symmetry_1
_geom_bond_site_symmetry_2
Cu1 O1 1_555 1_555
Cl1 O1 1_555 1_555
S1 C4 1_555 1_555
O2 Cl1 1_555 1_555
O3 Cl1 1_555 1_555
O4 Cl1 1_555 1_555
N1 Cu1 1_555 1_555
N2 C1 1_555 1_555
N3 C8 1_555 1_555
N4 C7 1_555 1_555
C1 N1 1_555 1_555
H1 C1 1_555 1_555
C2 N1 1_555 1_555
H2 C2 1_555 1_555
C3 N2 1_555 1_555
H3 C3 1_555 1_555
C4 N2 1_555 1_555
C5 C4 1_555 1_555
H4 C5 1_555 1_555
C6 C5 1_555 1_555
H5 C6 1_555 1_555
C7 S1 1_555 1_555
C8 N4 1_555 1_555
H6 C8 1_555 1_555
C9 N3 1_555 1_555
H7 C9 1_555 1_555
C10 N4 1_555 1_555
H8 C10 1_555 1_555
Cl1B O1B 1_555 1_555
S1B C4B 1_555 1_555
O1B Cu1 1_555 1_555
O2B Cl1B 1_555 1_555
O3B Cl1B 1_555 1_555
O4B Cl1B 1_555 1_555
N1B Cu1 1_555 1_555
N2B C1B 1_555 1_555
N3B C8B 1_555 1_555
N4B C7B 1_555 1_555
C1B N1B 1_555 1_555
H1B C1B 1_555 1_555
C2B N1B 1_555 1_555
H2B C2B 1_555 1_555
C3B N2B 1_555 1_555
H3B C3B 1_555 1_555
C4B N2B 1_555 1_555
C5B C4B 1_555 1_555
H4B C5B 1_555 1_555
C6B C5B 1_555 1_555
H5B C6B 1_555 1_555
C7B S1B 1_555 1_555
C8B N4B 1_555 1_555
H6B C8B 1_555 1_555
C9B N3B 1_555 1_555
H7B C9B 1_555 1_555
C10B N4B 1_555 1_555
H8B C10B 1_555 1_555
Cu1A N3 1_555 1_555
Cu1A_2 N3B 1_555 1_555
N3A Cu1 1_555 1_555
N3C Cu1 1_555 1_555
C2 C3 1_555 1_555
C6 C7 1_555 1_555
C9 C10 1_555 1_555
C2B C3B 1_555 1_555
C6B C7B 1_555 1_555
C9B C10B 1_555 1_555

#END
