
#######################################################################
#
#                 Cambridge Crystallographic Data Centre
#                                CCDC 
#
#######################################################################
#
# If this CIF has been generated from an entry in the Cambridge 
# Structural Database, then it will include bibliographic, chemical, 
# crystal, experimental, refinement or atomic coordinate data resulting 
# from the CCDC's data processing and validation procedures.
#
#######################################################################

data_FUMAND
_symmetry_cell_setting           triclinic
_symmetry_space_group_name_H-M   'P -1'
_symmetry_Int_Tables_number      2
_space_group_name_Hall           '-P 1'
loop_
_symmetry_equiv_pos_site_id
_symmetry_equiv_pos_as_xyz
1 x,y,z
2 -x,-y,-z
_cell_length_a                   6.195(1)
_cell_length_b                   11.260(3)
_cell_length_c                   10.709(2)
_cell_angle_alpha                110.39(2)
_cell_angle_beta                 90.29(2)
_cell_angle_gamma                79.32(2)
_cell_volume                     686.641
loop_
_atom_site_label
_atom_site_type_symbol
_atom_site_fract_x
_atom_site_fract_y
_atom_site_fract_z
C1 C -0.65610 0.11180 0.27150
C2 C -0.49130 0.07050 0.35340
C3 C -0.29530 0.00210 0.30930
C4 C -0.20030 -0.04890 0.16550
C5 C 0.26670 -0.41250 -0.36210
C6 C 0.40710 -0.50720 -0.48320
Nd1 Nd -0.00426 -0.21945 -0.12648
O1 O -0.63430 0.07570 0.14620
O2 O -0.83610 0.18810 0.33140
O3 O -0.19540 -0.16260 0.09570
O4 O -0.10600 0.02290 0.12470
O5 O 0.33520 -0.31290 -0.28930
O6 O 0.08880 -0.43480 -0.33310
O7 O 0.31320 0.34200 0.14980
O8 O -0.13250 0.40530 0.05910
O9 O -0.30490 0.17880 -0.02180
Nd1A Nd -0.99574 0.21945 0.12648
Nd1A_2 Nd 0.00426 0.21945 0.12648
O1_2 O 0.36570 0.07570 0.14620
O2_2 O 0.16390 0.18810 0.33140
O3A O 0.19540 0.16260 -0.09570
O5A O -0.33520 0.31290 0.28930
O6A O -0.08880 0.43480 0.33310
O1A O -0.36570 -0.07570 -0.14620
O2A O -0.16390 -0.18810 -0.33140
O4A O 0.10600 -0.02290 -0.12470
O7A O -0.31320 -0.34200 -0.14980
O8A O 0.13250 -0.40530 -0.05910
O9A O 0.30490 -0.17880 0.02180
C4A C 0.20030 0.04890 -0.16550
C3A C 0.29530 -0.00210 -0.30930
C2A C 0.49130 -0.07050 -0.35340
C1A C 0.65610 -0.11180 -0.27150
O1A_2 O 0.63430 -0.07570 -0.14620
O2A_2 O 0.83610 -0.18810 -0.33140
Nd1_2 Nd 0.99574 -0.21945 -0.12648
C6A C 0.59290 -0.49280 -0.51680
C5A C 0.73330 -0.58750 -0.63790
O5A_2 O 0.66480 -0.68710 -0.71070
O6A_2 O 0.91120 -0.56520 -0.66690
Nd1A_3 Nd 1.00426 -0.78055 -0.87352
O10 O -1.04150 0.68630 0.40780
O11 O -0.72020 0.60320 0.19290
O12 O -1.31260 0.66420 0.20290
loop_
_geom_bond_atom_site_label_1
_geom_bond_atom_site_label_2
_geom_bond_site_symmetry_1
_geom_bond_site_symmetry_2
C1 C2 1_555 1_555
C2 C3 1_555 1_555
C3 C4 1_555 1_555
C4 O3 1_555 1_555
C5 C6 1_555 1_555
C6 C6A 1_555 1_555
Nd1 O3 1_555 1_555
O1 C1 1_555 1_555
O2 C1 1_555 1_555
O4 C4 1_555 1_555
O5 C5 1_555 1_555
O6 C5 1_555 1_555
O7 Nd1A_2 1_555 1_555
O8 Nd1A_2 1_555 1_555
O9 Nd1A_2 1_555 1_555
Nd1A O1 1_555 1_555
Nd1A_2 O4 1_555 1_555
O1_2 Nd1A_2 1_555 1_555
O2_2 Nd1A_2 1_555 1_555
O3A Nd1A_2 1_555 1_555
O5A Nd1A_2 1_555 1_555
O6A Nd1A_2 1_555 1_555
O1A Nd1 1_555 1_555
O2A Nd1 1_555 1_555
O4A Nd1 1_555 1_555
O7A Nd1 1_555 1_555
O8A Nd1 1_555 1_555
O9A Nd1 1_555 1_555
C4A O3A 1_555 1_555
C3A C4A 1_555 1_555
C2A C3A 1_555 1_555
C1A C2A 1_555 1_555
O1A_2 C1A 1_555 1_555
O2A_2 C1A 1_555 1_555
Nd1_2 O1A_2 1_555 1_555
C6A C5A 1_555 1_555
C5A O5A_2 1_555 1_555
O5A_2 Nd1A_3 1_555 1_555
O6A_2 C5A 1_555 1_555
Nd1A_3 O6A_2 1_555 1_555
Nd1 O5 1_555 1_555
Nd1 O6 1_555 1_555
O2 Nd1A 1_555 1_555
O4A C4A 1_555 1_555
O2A_2 Nd1_2 1_555 1_555

#END
