
#######################################################################
#
#                 Cambridge Crystallographic Data Centre
#                                CCDC 
#
#######################################################################
#
# If this CIF has been generated from an entry in the Cambridge 
# Structural Database, then it will include bibliographic, chemical, 
# crystal, experimental, refinement or atomic coordinate data resulting 
# from the CCDC's data processing and validation procedures.
#
#######################################################################

data_FUMCUL01
_symmetry_cell_setting           monoclinic
_symmetry_space_group_name_H-M   'C 2/c'
_symmetry_Int_Tables_number      15
_space_group_name_Hall           '-C 2yn'
loop_
_symmetry_equiv_pos_site_id
_symmetry_equiv_pos_as_xyz
1 x,y,z
2 -x,y,1/2-z
3 1/2+x,1/2+y,z
4 1/2-x,1/2+y,1/2-z
5 -x,-y,-z
6 x,-y,1/2+z
7 1/2-x,1/2-y,-z
8 1/2+x,1/2-y,1/2+z
_cell_length_a                   13.196(3)
_cell_length_b                   7.1390(14)
_cell_length_c                   21.793(4)
_cell_angle_alpha                90
_cell_angle_beta                 107.03(3)
_cell_angle_gamma                90
_cell_volume                     1963.01
loop_
_atom_site_label
_atom_site_type_symbol
_atom_site_fract_x
_atom_site_fract_y
_atom_site_fract_z
Mn1 Mn 0.85298(2) 0.12600(4) 0.315683(12)
O1 O 0.82537(11) 0.14919(19) 0.21178(6)
O2 O 0.72031(12) -0.0973(2) 0.18608(7)
C1 C 0.76383(14) 0.0404(3) 0.17072(8)
C2 C 0.74642(17) 0.0893(3) 0.10072(9)
H1 H 0.7134 0.2118 0.0923
H2 H 0.8146 0.0968 0.0924
C3 C 0.67776(16) -0.0513(3) 0.05516(9)
H3 H 0.6111 -0.0634 0.0652
H4 H 0.7127 -0.1724 0.0625
C4 C 0.65414(16) -0.0025(3) -0.01542(9)
H5 H 0.6195 0.1187 -0.0230
H6 H 0.7205 0.0082 -0.0258
C5 C 0.58464(15) -0.1449(3) -0.05975(9)
O3 O 0.55410(16) -0.2847(3) -0.03614(7)
O4 O 0.56070(12) -0.1154(2) -0.11946(6)
O5 O 0.99821(12) 0.2713(2) 0.32435(9)
H7 H 1.0528 0.2322 0.3177
H8 H 1.0162 0.3674 0.3471
O6 O 0.91309(14) -0.1546(2) 0.30423(8)
H9 H 0.9575 -0.2253 0.3275
H10 H 0.8817 -0.2207 0.2725
O7 O 0.69013(12) 0.0444(2) 0.30500(8)
H11 H 0.6576 0.0683 0.3323
H12 H 0.6766 -0.0687 0.2952
O8 O 0.90662(15) 0.0461(2) 0.41657(7)
H13 H 0.9496 -0.0406 0.4275
H14 H 0.9186 0.1084 0.4496
Mn1C Mn 0.64702(2) -0.37400(4) 0.184317(12)
O2C O 0.77969(12) 0.4027(2) 0.31392(7)
loop_
_geom_bond_atom_site_label_1
_geom_bond_atom_site_label_2
_geom_bond_site_symmetry_1
_geom_bond_site_symmetry_2
Mn1 O1 1_555 1_555
O1 C1 1_555 1_555
O2 C1 1_555 1_555
C1 C2 1_555 1_555
C2 H1 1_555 1_555
H2 C2 1_555 1_555
C3 C2 1_555 1_555
H3 C3 1_555 1_555
H4 C3 1_555 1_555
C4 C3 1_555 1_555
H5 C4 1_555 1_555
H6 C4 1_555 1_555
C5 C4 1_555 1_555
O3 C5 1_555 1_555
O4 C5 1_555 1_555
O5 Mn1 1_555 1_555
H7 O5 1_555 1_555
H8 O5 1_555 1_555
O6 Mn1 1_555 1_555
H9 O6 1_555 1_555
H10 O6 1_555 1_555
O7 Mn1 1_555 1_555
H11 O7 1_555 1_555
H12 O7 1_555 1_555
O8 Mn1 1_555 1_555
H13 O8 1_555 1_555
H14 O8 1_555 1_555
Mn1C O2 1_555 1_555
O2C Mn1 1_555 1_555

#END
