
#######################################################################
#
#                 Cambridge Crystallographic Data Centre
#                                CCDC 
#
#######################################################################
#
# If this CIF has been generated from an entry in the Cambridge 
# Structural Database, then it will include bibliographic, chemical, 
# crystal, experimental, refinement or atomic coordinate data resulting 
# from the CCDC's data processing and validation procedures.
#
#######################################################################

data_FUMDOI
_symmetry_cell_setting           triclinic
_symmetry_space_group_name_H-M   'P -1'
_symmetry_Int_Tables_number      2
_space_group_name_Hall           '-P 1'
loop_
_symmetry_equiv_pos_site_id
_symmetry_equiv_pos_as_xyz
1 x,y,z
2 -x,-y,-z
_cell_length_a                   9.1976(18)
_cell_length_b                   9.390(2)
_cell_length_c                   10.640(2)
_cell_angle_alpha                64.87(2)
_cell_angle_beta                 69.441(19)
_cell_angle_gamma                65.634(19)
_cell_volume                     740.394
loop_
_atom_site_label
_atom_site_type_symbol
_atom_site_fract_x
_atom_site_fract_y
_atom_site_fract_z
Cu1 Cu 1.0000 0.5000 0.5000
Cu2 Cu 0.94743(18) 0.94769(17) 0.40466(16)
O1 O 1.0530(9) 0.5244(9) 0.6453(8)
O2 O 1.1956(10) 0.5458(9) 0.8002(8)
C1 C 0.7934(13) 0.7213(12) 0.7147(12)
N1 N 0.7307(13) 1.2099(12) 0.5248(10)
C2 C 0.7113(15) 0.7103(13) 0.6312(12)
H1 H 0.6017 0.7737 0.6385
C3 C 1.2865(16) 0.5529(15) 0.8823(13)
H2 H 1.2362 0.5186 0.9826
H3 H 1.2883 0.6650 0.8539
N2 N 0.6884(15) 0.8919(13) 0.2348(13)
N3 N 1.0547(12) 0.7597(12) 0.3370(12)
C4 C 0.9498(16) 0.7501(15) 0.8809(13)
H4 H 1.0012 0.7642 0.9341
N4 N 1.0975(14) 0.7806(13) 0.2106(13)
N5 N 0.6106(13) 1.3108(14) 0.5351(12)
N6 N 1.1443(19) 0.7898(18) 0.0949(15)
N7 N 0.8597(12) 1.1054(11) 0.5153(10)
N8 N 0.7203(13) 0.9578(13) 0.2857(13)
C5 C 1.0357(15) 0.6429(13) 0.8087(12)
C6 C 0.9606(13) 0.6257(12) 0.7188(11)
N9 N 0.7454(14) 1.0324(12) 0.3374(13)
C7 C 1.4540(16) 0.4406(18) 0.8558(14)
H5 H 1.5056 0.4806 0.7577
H6 H 1.4502 0.3317 0.8777
H7 H 1.5153 0.4362 0.9148
C8 C 0.7867(16) 0.8407(15) 0.8787(13)
H8 H 0.7298 0.9095 0.9340
C9 C 0.7089(16) 0.8300(15) 0.7965(13)
H9 H 0.6006 0.8937 0.7938
O3 O 0.7623(9) 0.6294(9) 0.5496(8)
Na1 Na 1.3217(6) 0.3899(6) 0.6394(5)
Cu2A Cu 1.05257(18) 0.05231(17) 0.59534(16)
O1A O 0.9470(9) 0.4756(9) 0.3547(8)
O2A O 0.8044(10) 0.4542(9) 0.1998(8)
C1A C 1.2066(13) 0.2787(12) 0.2853(12)
N1A N 1.2693(13) -0.2099(12) 0.4752(10)
C2A C 1.2887(15) 0.2897(13) 0.3688(12)
H1A H 1.3983 0.2263 0.3615
C3A C 0.7135(16) 0.4471(15) 0.1177(13)
H2A H 0.7638 0.4814 0.0174
H3A H 0.7117 0.3350 0.1461
N2A N 1.3116(15) 0.1081(13) 0.7652(13)
N3A N 0.9453(12) 0.2403(12) 0.6630(12)
C4A C 1.0502(16) 0.2499(15) 0.1191(13)
H4A H 0.9988 0.2358 0.0659
N4A N 0.9025(14) 0.2194(13) 0.7894(13)
N5A N 1.3894(13) -0.3108(14) 0.4649(12)
N6A N 0.8557(19) 0.2102(18) 0.9051(15)
N7A N 1.1403(12) -0.1054(11) 0.4847(10)
N8A N 1.2797(13) 0.0422(13) 0.7143(13)
C5A C 0.9643(15) 0.3571(13) 0.1913(12)
C6A C 1.0394(13) 0.3743(12) 0.2812(11)
N9A N 1.2546(14) -0.0324(12) 0.6626(13)
C7A C 0.5460(16) 0.5594(18) 0.1442(14)
H5A H 0.4944 0.5194 0.2423
H6A H 0.5498 0.6683 0.1223
H7A H 0.4847 0.5638 0.0852
C8A C 1.2133(16) 0.1593(15) 0.1213(13)
H8A H 1.2702 0.0905 0.0660
C9A C 1.2911(16) 0.1700(15) 0.2035(13)
H9A H 1.3994 0.1063 0.2062
O3A O 1.2377(9) 0.3706(9) 0.4504(8)
Na1A Na 0.6783(6) 0.6101(6) 0.3606(5)
Cu2_2 Cu 0.94743(18) -0.05231(17) 0.40466(16)
Cu2A_2 Cu 1.05257(18) 1.05231(17) 0.59534(16)
N5_2 N 0.6106(13) 0.3108(14) 0.5351(12)
N5_3 N 1.6106(13) 0.3108(14) 0.5351(12)
N5A_2 N 0.3894(13) 0.6892(14) 0.4649(12)
N5A_3 N 1.3894(13) 0.6892(14) 0.4649(12)
N7_2 N 0.8597(12) 0.1054(11) 0.5153(10)
N7A_2 N 1.1403(12) 0.8946(11) 0.4847(10)
Na1_2 Na 0.3217(6) 1.3899(6) 0.6394(5)
Na1_3 Na 1.3217(6) -0.6101(6) 0.6394(5)
Na1A_2 Na 0.6783(6) 1.6101(6) 0.3606(5)
Na1A_3 Na 1.6783(6) -0.3899(6) 0.3606(5)
loop_
_geom_bond_atom_site_label_1
_geom_bond_atom_site_label_2
_geom_bond_site_symmetry_1
_geom_bond_site_symmetry_2
Cu1 O1 1_555 1_555
Cu2 N3 1_555 1_555
O1 C6 1_555 1_555
O2 C3 1_555 1_555
C1 C2 1_555 1_555
N1 N5 1_555 1_555
C2 H1 1_555 1_555
C3 H2 1_555 1_555
H3 C3 1_555 1_555
N2 N8 1_555 1_555
N3 Cu1 1_555 1_555
C4 H4 1_555 1_555
N4 N3 1_555 1_555
N5 Na1_2 1_555 1_555
N6 N4 1_555 1_555
N7 Cu2 1_555 1_555
N8 N9 1_555 1_555
C5 O2 1_555 1_555
C6 C1 1_555 1_555
N9 Cu2 1_555 1_555
C7 C3 1_555 1_555
H5 C7 1_555 1_555
H6 C7 1_555 1_555
H7 C7 1_555 1_555
C8 C4 1_555 1_555
H8 C8 1_555 1_555
C9 C1 1_555 1_555
H9 C9 1_555 1_555
O3 Cu1 1_555 1_555
Na1 O1 1_555 1_555
Cu2A N3A 1_555 1_555
O1A Cu1 1_555 1_555
O2A C3A 1_555 1_555
C1A C2A 1_555 1_555
N1A N5A 1_555 1_555
C2A H1A 1_555 1_555
C3A H2A 1_555 1_555
H3A C3A 1_555 1_555
N2A Na1 1_555 1_555
N3A Cu1 1_555 1_555
C4A H4A 1_555 1_555
N4A N3A 1_555 1_555
N5A Na1_3 1_555 1_555
N6A N4A 1_555 1_555
N7A Cu2A 1_555 1_555
N8A N2A 1_555 1_555
C5A O2A 1_555 1_555
C6A O1A 1_555 1_555
N9A Cu2A 1_555 1_555
C7A C3A 1_555 1_555
H5A C7A 1_555 1_555
H6A C7A 1_555 1_555
H7A C7A 1_555 1_555
C8A C4A 1_555 1_555
H8A C8A 1_555 1_555
C9A C1A 1_555 1_555
H9A C9A 1_555 1_555
O3A Cu1 1_555 1_555
Na1A N2 1_555 1_555
Cu2_2 N7A 1_555 1_555
Cu2A_2 N7 1_555 1_555
N5_2 Na1A 1_555 1_555
N5_3 Na1 1_555 1_555
N5A_2 Na1A 1_555 1_555
N5A_3 Na1 1_555 1_555
N7_2 Cu2A 1_555 1_555
N7A_2 Cu2 1_555 1_555
Na1A_2 N5 1_555 1_555
Na1A_3 N5A 1_555 1_555
O2 Na1 1_555 1_555
N1 N7 1_555 1_555
C2 O3 1_555 1_555
C4 C5 1_555 1_555
C5 C6 1_555 1_555
C8 C9 1_555 1_555
O3 Na1A 1_555 1_555
Na1 O3A 1_555 1_555
O1A Na1A 1_555 1_555
O2A Na1A 1_555 1_555
C1A C6A 1_555 1_555
N1A N7A 1_555 1_555
C2A O3A 1_555 1_555
C4A C5A 1_555 1_555
N8A N9A 1_555 1_555
C5A C6A 1_555 1_555
C8A C9A 1_555 1_555
Cu2_2 N7_2 1_555 1_555
Cu2A_2 N7A_2 1_555 1_555

#END
