
#######################################################################
#
#                 Cambridge Crystallographic Data Centre
#                                CCDC 
#
#######################################################################
#
# If this CIF has been generated from an entry in the Cambridge 
# Structural Database, then it will include bibliographic, chemical, 
# crystal, experimental, refinement or atomic coordinate data resulting 
# from the CCDC's data processing and validation procedures.
#
#######################################################################

data_FUMDEW
_symmetry_cell_setting           monoclinic
_symmetry_space_group_name_H-M   'C 2/c'
_symmetry_Int_Tables_number      15
_space_group_name_Hall           '-C 2yn'
loop_
_symmetry_equiv_pos_site_id
_symmetry_equiv_pos_as_xyz
1 x,y,z
2 1/2+x,1/2+y,z
3 -x,y,1/2-z
4 1/2-x,1/2+y,1/2-z
5 -x,-y,-z
6 1/2-x,1/2-y,-z
7 x,-y,1/2+z
8 1/2+x,1/2-y,1/2+z
_cell_length_a                   23.624(4)
_cell_length_b                   6.057(9)
_cell_length_c                   14.857(3)
_cell_angle_alpha                90
_cell_angle_beta                 126.23(7)
_cell_angle_gamma                90
_cell_volume                     1714.86
loop_
_atom_site_label
_atom_site_type_symbol
_atom_site_fract_x
_atom_site_fract_y
_atom_site_fract_z
Hg1 Hg 0.0293(1) 0.1254(1) 0.0828(1)
S1 S -0.1046(2) 0.4722(7) 0.0099(4)
N1 N 0.0947(5) 0.3069(21) 0.2391(9)
O1 O -0.0656(5) 0.3181(23) 0.1003(8)
O2 O -0.0829(5) 0.4580(25) -0.0615(10)
O3 O -0.1023(6) 0.6914(23) 0.0444(16)
C1 C 0.1695(6) 0.2399(25) 0.3064(10)
C2 C 0.2176(7) 0.3838(25) 0.3154(11)
C3 C 0.2878(7) 0.3208(26) 0.3799(12)
C4 C -0.1930(6) 0.3834(25) -0.0691(11)
C5 C -0.2416(7) 0.5286(26) -0.0762(12)
C6 C 0.1873(7) 0.0415(28) 0.3582(13)
Hg1D Hg -0.0293(1) -0.1254(1) -0.0828(1)
C4G C 0.3070(6) 0.1166(25) 0.4309(11)
C3G C -0.2122(7) 0.1792(26) -0.1201(12)
C6G C -0.3127(7) 0.4585(28) -0.1418(13)
C5G C 0.2584(7) -0.0286(26) 0.4238(12)
N1D N -0.0947(5) -0.3069(21) -0.2391(9)
O1D O 0.0656(5) -0.3181(23) -0.1003(8)
S1G S 0.3954(2) 0.0278(7) 0.5099(4)
C2G C -0.2824(7) 0.1162(25) -0.1846(11)
C1G C -0.3305(6) 0.2601(25) -0.1936(10)
C1D C -0.1695(6) -0.2399(25) -0.3064(10)
S1D S 0.1046(2) -0.4722(7) -0.0099(4)
O1G O 0.4344(5) 0.1819(23) 0.6003(8)
O2G O 0.4171(5) 0.0420(25) 0.4385(10)
O3G O 0.3977(6) -0.1914(23) 0.5444(16)
N1G N -0.4053(5) 0.1931(21) -0.2609(9)
C2D C -0.2176(7) -0.3838(25) -0.3154(11)
C6D C -0.1873(7) -0.0415(28) -0.3582(13)
O2D O 0.0829(5) -0.4580(25) 0.0615(10)
O3D O 0.1023(6) -0.6914(23) -0.0444(16)
C4D C 0.1930(6) -0.3834(25) 0.0691(11)
Hg1G Hg 0.5293(1) 0.3746(1) 0.5828(1)
Hg1G_2 Hg -0.4707(1) 0.3746(1) -0.4172(1)
C3D C -0.2878(7) -0.3208(26) -0.3799(12)
C5C C -0.2584(7) 0.0286(26) -0.4238(12)
C3C C 0.2122(7) -0.1792(26) 0.1201(12)
C5D C 0.2416(7) -0.5286(26) 0.0762(12)
Hg1C Hg 0.4707(1) 0.6254(1) 0.4172(1)
N1G_2 N 0.5947(5) 0.1931(21) 0.7391(9)
C4C C -0.3070(6) -0.1166(25) -0.4309(11)
C2C C 0.2824(7) -0.1162(25) 0.1846(11)
C6C C 0.3127(7) -0.4585(28) 0.1418(13)
N1C N 0.4053(5) 0.8069(21) 0.2609(9)
O1C O 0.5656(5) 0.8181(23) 0.3997(8)
S1C S -0.3954(2) -0.0278(7) -0.5099(4)
C1C C 0.3305(6) -0.2601(25) 0.1936(10)
O1C_2 O -0.4344(5) -0.1819(23) -0.6003(8)
O2C O -0.4171(5) -0.0420(25) -0.4385(10)
O3C O -0.3977(6) 0.1914(23) -0.5444(16)
N1C_2 N 0.4053(5) -0.1931(21) 0.2609(9)
Hg1C_2 Hg -0.5293(1) -0.3746(1) -0.5828(1)
Hg1C_3 Hg 0.4707(1) -0.3746(1) 0.4172(1)
loop_
_geom_bond_atom_site_label_1
_geom_bond_atom_site_label_2
_geom_bond_site_symmetry_1
_geom_bond_site_symmetry_2
Hg1 N1 1_555 1_555
S1 O1 1_555 1_555
N1 C1 1_555 1_555
O1 Hg1 1_555 1_555
O2 S1 1_555 1_555
O3 S1 1_555 1_555
C1 C2 1_555 1_555
C2 C3 1_555 1_555
C3 C4G 1_555 1_555
C4 S1 1_555 1_555
C5 C4 1_555 1_555
C6 C1 1_555 1_555
Hg1D Hg1 1_555 1_555
C4G C5G 1_555 1_555
C3G C4 1_555 1_555
C6G C5 1_555 1_555
C5G C6 1_555 1_555
N1D Hg1D 1_555 1_555
O1D Hg1D 1_555 1_555
S1G C4G 1_555 1_555
C2G C3G 1_555 1_555
C1G C6G 1_555 1_555
C1D N1D 1_555 1_555
S1D O1D 1_555 1_555
O1G S1G 1_555 1_555
O2G S1G 1_555 1_555
O3G S1G 1_555 1_555
N1G C1G 1_555 1_555
C2D C1D 1_555 1_555
C6D C1D 1_555 1_555
O2D S1D 1_555 1_555
O3D S1D 1_555 1_555
C4D S1D 1_555 1_555
Hg1G O1G 1_555 1_555
Hg1G_2 N1G 1_555 1_555
C3D C2D 1_555 1_555
C5C C6D 1_555 1_555
C3C C4D 1_555 1_555
C5D C4D 1_555 1_555
Hg1C Hg1G 1_555 1_555
N1G_2 Hg1G 1_555 1_555
C4C C3D 1_555 1_555
C2C C3C 1_555 1_555
C6C C5D 1_555 1_555
N1C Hg1C 1_555 1_555
O1C Hg1C 1_555 1_555
S1C C4C 1_555 1_555
C1C C2C 1_555 1_555
O1C_2 S1C 1_555 1_555
O2C S1C 1_555 1_555
O3C S1C 1_555 1_555
N1C_2 C1C 1_555 1_555
Hg1C_2 O1C_2 1_555 1_555
Hg1C_3 N1C_2 1_555 1_555
C2G C1G 1_555 1_555
C5C C4C 1_555 1_555
C6C C1C 1_555 1_555

#END
