
#######################################################################
#
#                 Cambridge Crystallographic Data Centre
#                                CCDC 
#
#######################################################################
#
# If this CIF has been generated from an entry in the Cambridge 
# Structural Database, then it will include bibliographic, chemical, 
# crystal, experimental, refinement or atomic coordinate data resulting 
# from the CCDC's data processing and validation procedures.
#
#######################################################################

data_FUMDIC
_symmetry_cell_setting           orthorhombic
_symmetry_space_group_name_H-M   'P b c a'
_symmetry_Int_Tables_number      61
_space_group_name_Hall           '-P 2ac 2ab'
loop_
_symmetry_equiv_pos_site_id
_symmetry_equiv_pos_as_xyz
1 x,y,z
2 1/2-x,-y,1/2+z
3 1/2+x,1/2-y,-z
4 -x,1/2+y,1/2-z
5 -x,-y,-z
6 1/2+x,y,1/2-z
7 1/2-x,1/2+y,z
8 x,1/2-y,1/2+z
_cell_length_a                   11.2342(3)
_cell_length_b                   18.4569(7)
_cell_length_c                   19.1299(6)
_cell_angle_alpha                90
_cell_angle_beta                 90
_cell_angle_gamma                90
_cell_volume                     3966.56
loop_
_atom_site_label
_atom_site_type_symbol
_atom_site_fract_x
_atom_site_fract_y
_atom_site_fract_z
C1 C 0.6665(3) 0.85353(18) 0.66995(14)
C2 C 0.7605(3) 0.90258(18) 0.65374(14)
C3 C 0.7394(3) 0.97468(18) 0.64343(17)
H1 H 0.8027 1.0056 0.6339
C4 C 0.6246(3) 1.0024(2) 0.64701(19)
H2 H 0.6114 1.0515 0.6393
C5 C 0.5319(3) 0.9582(2) 0.66171(17)
H3 H 0.4552 0.9772 0.6635
C6 C 0.5499(3) 0.88336(18) 0.67449(15)
C7 C 0.4490(3) 0.8411(2) 0.69391(16)
H4 H 0.3764 0.8653 0.6936
C8 C 0.9709(3) 0.91457(19) 0.63107(19)
H5 H 0.9809 0.9532 0.6649
H6 H 0.9584 0.9362 0.5854
C9 C 1.0790(3) 0.8674(2) 0.6299(2)
H7 H 1.0930 0.8483 0.6758
H8 H 1.1466 0.8955 0.6154
H9 H 1.0669 0.8282 0.5977
C10 C 0.6091(2) 0.64597(15) 0.85480(15)
C11 C 0.5594(2) 0.63931(16) 0.92257(16)
C12 C 0.6066(3) 0.59402(19) 0.97157(17)
H10 H 0.5706 0.5899 1.0152
C13 C 0.7086(3) 0.5537(2) 0.95671(19)
H11 H 0.7393 0.5219 0.9898
C14 C 0.7622(3) 0.56121(18) 0.89436(18)
H12 H 0.8322 0.5359 0.8856
C15 C 0.7152(2) 0.60642(16) 0.84197(15)
C16 C 0.7822(3) 0.61332(17) 0.77893(17)
H13 H 0.8517 0.5860 0.7766
C17 C 0.4142(3) 0.6881(2) 1.00289(19)
H14 H 0.4780 0.7015 1.0346
H15 H 0.3811 0.6422 1.0181
C18 C 0.3196(4) 0.7454(2) 1.0030(2)
H16 H 0.3521 0.7899 0.9854
H17 H 0.2915 0.7527 1.0499
H18 H 0.2547 0.7303 0.9738
N1 N 0.5331(3) 0.6358(2) 0.6426(2)
N2 N 0.5627(3) 0.62002(19) 0.58891(19)
N3 N 0.5899(5) 0.5958(3) 0.5372(2)
Na1 Na 0.37884(9) 0.74115(7) 0.83121(6)
O1 O 0.69149(17) 0.78608(11) 0.67969(12)
O2 O 0.44505(18) 0.77706(14) 0.71091(12)
O3 O 0.87033(17) 0.86991(11) 0.64983(11)
O4 O 0.55647(17) 0.68716(11) 0.80894(10)
O5 O 0.45904(18) 0.68185(12) 0.93287(10)
O6 O 0.76005(17) 0.65084(12) 0.72700(11)
Zn1 Zn 0.59385(3) 0.70427(2) 0.710518(18)
Na1E Na 0.87884(9) 0.74115(7) 0.66879(6)
O1E O 0.19149(17) 0.78608(11) 0.82031(12)
O3E O 0.37033(17) 0.86991(11) 0.85017(11)
O6E O 0.26005(17) 0.65084(12) 0.77300(11)
loop_
_geom_bond_atom_site_label_1
_geom_bond_atom_site_label_2
_geom_bond_site_symmetry_1
_geom_bond_site_symmetry_2
C1 C2 1_555 1_555
C2 C3 1_555 1_555
C3 H1 1_555 1_555
C4 C3 1_555 1_555
H2 C4 1_555 1_555
C5 C4 1_555 1_555
H3 C5 1_555 1_555
C6 C1 1_555 1_555
C7 C6 1_555 1_555
H4 C7 1_555 1_555
C8 H5 1_555 1_555
H6 C8 1_555 1_555
C9 C8 1_555 1_555
H7 C9 1_555 1_555
H8 C9 1_555 1_555
H9 C9 1_555 1_555
C10 C11 1_555 1_555
C11 C12 1_555 1_555
C12 H10 1_555 1_555
C13 C12 1_555 1_555
H11 C13 1_555 1_555
C14 C13 1_555 1_555
H12 C14 1_555 1_555
C15 C10 1_555 1_555
C16 C15 1_555 1_555
H13 C16 1_555 1_555
C17 H14 1_555 1_555
H15 C17 1_555 1_555
C18 C17 1_555 1_555
H16 C18 1_555 1_555
H17 C18 1_555 1_555
H18 C18 1_555 1_555
N1 N2 1_555 1_555
N2 N3 1_555 1_555
Na1 O2 1_555 1_555
O1 C1 1_555 1_555
O2 C7 1_555 1_555
O3 C2 1_555 1_555
O4 C10 1_555 1_555
O5 C11 1_555 1_555
O6 C16 1_555 1_555
Zn1 N1 1_555 1_555
Na1E O1 1_555 1_555
O1E Na1 1_555 1_555
O3E Na1 1_555 1_555
O6E Na1 1_555 1_555
C5 C6 1_555 1_555
C8 O3 1_555 1_555
C14 C15 1_555 1_555
C17 O5 1_555 1_555
Na1 O4 1_555 1_555
Na1 O5 1_555 1_555
O1 Zn1 1_555 1_555
O2 Zn1 1_555 1_555
O3 Na1E 1_555 1_555
O4 Zn1 1_555 1_555
O6 Zn1 1_555 1_555
O6 Na1E 1_555 1_555

#END
