
#######################################################################
#
#                 Cambridge Crystallographic Data Centre
#                                CCDC 
#
#######################################################################
#
# If this CIF has been generated from an entry in the Cambridge 
# Structural Database, then it will include bibliographic, chemical, 
# crystal, experimental, refinement or atomic coordinate data resulting 
# from the CCDC's data processing and validation procedures.
#
#######################################################################

data_FUMDOG
_symmetry_cell_setting           monoclinic
_symmetry_space_group_name_H-M   'P 21/n'
_symmetry_Int_Tables_number      14
_space_group_name_Hall           '-P 2yn'
loop_
_symmetry_equiv_pos_site_id
_symmetry_equiv_pos_as_xyz
1 x,y,z
2 1/2-x,1/2+y,1/2-z
3 -x,-y,-z
4 1/2+x,1/2-y,1/2+z
_cell_length_a                   11.944(3)
_cell_length_b                   7.588(2)
_cell_length_c                   10.345(4)
_cell_angle_alpha                90
_cell_angle_beta                 105.44(6)
_cell_angle_gamma                90
_cell_volume                     903.741
loop_
_atom_site_label
_atom_site_type_symbol
_atom_site_fract_x
_atom_site_fract_y
_atom_site_fract_z
Hg1 Hg -0.5283(1) -0.1115(1) 0.4066(1)
S1 S -0.3087(1) -0.2331(2) -0.0960(4)
N1 N -0.5715(1) -0.2811(7) 0.2275(5)
O1 O -0.1901(4) -0.1746(6) -0.0383(5)
O2 O -0.3079(5) -0.3677(7) -0.1956(5)
O3 O -0.3878(1) -0.0891(7) -0.1424(5)
O4 O -0.3424(6) -0.3120(7) 0.5306(5)
C1 C -0.4773(5) -0.3498(8) 0.1815(5)
C2 C -0.4435(5) -0.2652(8) 0.0790(6)
C3 C -0.3550(5) -0.3374(8) 0.0341(6)
C4 C -0.2977(5) -0.4881(9) 0.0909(6)
C5 C -0.3325(6) -0.5687(9) 0.1927(6)
C6 C -0.4219(5) -0.5011(9) 0.2390(6)
H1 H -0.6272(28) -0.3757(31) 0.2440(29)
H2 H -0.3286(25) -0.2831(29) 0.6254(17)
H3 H -0.6150(28) -0.2013(31) 0.1734(29)
H4 H -0.4056(20) -0.3954(27) 0.5161(24)
H5 H -0.4842(26) -0.1431(24) 0.0355(27)
H6 H -0.2251(20) -0.5414(30) 0.0575(27)
H7 H -0.2915(26) -0.6871(24) 0.2379(28)
H8 H -0.4510(25) -0.5692(29) 0.3160(22)
Hg1B Hg -0.4717(1) 0.1115(1) 0.5934(1)
O1C O -0.6901(4) -0.3254(6) 0.4617(5)
Hg1C Hg -0.0283(1) -0.3885(1) -0.0934(1)
loop_
_geom_bond_atom_site_label_1
_geom_bond_atom_site_label_2
_geom_bond_site_symmetry_1
_geom_bond_site_symmetry_2
Hg1 N1 1_555 1_555
S1 O1 1_555 1_555
N1 C1 1_555 1_555
O1 Hg1C 1_555 1_555
O2 S1 1_555 1_555
O3 S1 1_555 1_555
O4 Hg1 1_555 1_555
C1 C2 1_555 1_555
C2 C3 1_555 1_555
C3 S1 1_555 1_555
C4 C3 1_555 1_555
C5 C4 1_555 1_555
C6 C1 1_555 1_555
H1 N1 1_555 1_555
H2 O4 1_555 1_555
H3 N1 1_555 1_555
H4 O4 1_555 1_555
H5 C2 1_555 1_555
H6 C4 1_555 1_555
H7 C5 1_555 1_555
H8 C6 1_555 1_555
Hg1B Hg1 1_555 1_555
O1C Hg1 1_555 1_555
C5 C6 1_555 1_555

#END
