
#######################################################################
#
#                 Cambridge Crystallographic Data Centre
#                                CCDC 
#
#######################################################################
#
# If this CIF has been generated from an entry in the Cambridge 
# Structural Database, then it will include bibliographic, chemical, 
# crystal, experimental, refinement or atomic coordinate data resulting 
# from the CCDC's data processing and validation procedures.
#
#######################################################################

data_FUMGAV01
_symmetry_cell_setting           monoclinic
_symmetry_space_group_name_H-M   'P 21/n'
_symmetry_Int_Tables_number      14
_space_group_name_Hall           '-P 2yn'
loop_
_symmetry_equiv_pos_site_id
_symmetry_equiv_pos_as_xyz
1 x,y,z
2 1/2-x,1/2+y,1/2-z
3 -x,-y,-z
4 1/2+x,1/2-y,1/2+z
_cell_length_a                   5.925(1)
_cell_length_b                   23.613(9)
_cell_length_c                   11.790(5)
_cell_angle_alpha                90
_cell_angle_beta                 96.36(3)
_cell_angle_gamma                90
_cell_volume                     1639.35
loop_
_atom_site_label
_atom_site_type_symbol
_atom_site_fract_x
_atom_site_fract_y
_atom_site_fract_z
Zn1 Zn -1.1366(4) 0.3385(1) 0.0777(2)
Zn2 Zn -0.6068(5) 0.0473(1) 0.2112(2)
O1 O -0.4199(21) 0.1164(5) 0.2734(10)
O2 O -0.5280(20) 0.1206(5) 0.4456(9)
O3 O 0.1492(21) 0.2240(5) 0.5216(10)
O4 O -0.0182(22) 0.1451(5) 0.4559(10)
O5 O -0.2467(20) 0.3933(5) 0.1855(10)
O6 O -0.2554(24) 0.4180(5) 0.3674(10)
O7 O -0.8779(22) 0.2985(6) 0.1550(11)
O8 O -0.7332(22) 0.3813(6) 0.2254(11)
O9 O -0.9012(21) 0.0574(6) 0.2988(11)
O10 O -0.4514(24) -0.0049(6) 0.3440(6)
O11 O -0.7524(24) -0.0289(6) 0.1336(11)
O12 O -0.3098(23) 0.0288(6) 0.1195(10)
O13 O -0.7683(26) 0.0980(7) 0.0849(11)
C1 C -0.3972(30) 0.2065(8) 0.3541(15)
C2 C -0.4480(32) 0.1443(9) 0.3633(16)
C3 C -0.2069(33) 0.2328(8) 0.4007(15)
C4 C -0.0052(32) 0.1985(9) 0.4674(16)
C5 C -0.1685(23) 0.2906(8) 0.3792(15)
C6 C -0.3284(30) 0.3219(8) 0.3197(14)
C7 C -0.2747(30) 0.3821(8) 0.2869(17)
C8 C -0.5333(33) 0.2966(8) 0.2747(16)
C9 C -0.7290(36) 0.3299(9) 0.2135(14)
C10 C -0.5653(32) 0.2400(8) 0.2938(15)
Zn1C Zn 0.3634(4) 0.1615(1) 0.5777(2)
Zn1_2 Zn -0.1366(4) 0.3385(1) 0.0777(2)
Zn1C_2 Zn -0.6366(4) 0.1615(1) 0.5777(2)
O2C O -1.0280(20) 0.3794(5) -0.0544(9)
O3C O -1.3508(21) 0.2760(5) 0.0216(10)
O5_2 O -1.2467(20) 0.3933(5) 0.1855(10)
O14 O -0.8362(23) -0.0357(5) 0.4613(11)
O15 O -0.1357(33) 0.1650(7) 0.1162(17)
loop_
_geom_bond_atom_site_label_1
_geom_bond_atom_site_label_2
_geom_bond_site_symmetry_1
_geom_bond_site_symmetry_2
Zn1 O7 1_555 1_555
Zn2 O1 1_555 1_555
O1 C2 1_555 1_555
O2 C2 1_555 1_555
O3 C4 1_555 1_555
O4 C4 1_555 1_555
O5 C7 1_555 1_555
O6 C7 1_555 1_555
O7 C9 1_555 1_555
O8 C9 1_555 1_555
O9 Zn2 1_555 1_555
O10 Zn2 1_555 1_555
O11 Zn2 1_555 1_555
O12 Zn2 1_555 1_555
O13 Zn2 1_555 1_555
C1 C2 1_555 1_555
C3 C1 1_555 1_555
C4 C3 1_555 1_555
C5 C3 1_555 1_555
C6 C5 1_555 1_555
C7 C6 1_555 1_555
C8 C6 1_555 1_555
C9 C8 1_555 1_555
C10 C1 1_555 1_555
Zn1C O3 1_555 1_555
Zn1_2 O5 1_555 1_555
Zn1C_2 O2 1_555 1_555
O2C Zn1 1_555 1_555
O3C Zn1 1_555 1_555
O5_2 Zn1 1_555 1_555
C8 C10 1_555 1_555

#END
