
#######################################################################
#
#                 Cambridge Crystallographic Data Centre
#                                CCDC 
#
#######################################################################
#
# If this CIF has been generated from an entry in the Cambridge 
# Structural Database, then it will include bibliographic, chemical, 
# crystal, experimental, refinement or atomic coordinate data resulting 
# from the CCDC's data processing and validation procedures.
#
#######################################################################

data_FUMGOL
_symmetry_cell_setting           monoclinic
_symmetry_space_group_name_H-M   'P 21/c'
_symmetry_Int_Tables_number      14
_space_group_name_Hall           '-P 2ybc'
loop_
_symmetry_equiv_pos_site_id
_symmetry_equiv_pos_as_xyz
1 x,y,z
2 -x,1/2+y,1/2-z
3 -x,-y,-z
4 x,1/2-y,1/2+z
_cell_length_a                   13.129(4)
_cell_length_b                   26.444(7)
_cell_length_c                   14.274(4)
_cell_angle_alpha                90
_cell_angle_beta                 105.726(4)
_cell_angle_gamma                90
_cell_volume                     4770.2
loop_
_atom_site_label
_atom_site_type_symbol
_atom_site_fract_x
_atom_site_fract_y
_atom_site_fract_z
Zn1 Zn 0.37165(4) 0.312642(19) 0.39888(4)
O1 O 0.4497(3) 0.37607(14) 0.5061(3)
O2 O 0.4447(2) 0.29637(14) 0.5415(2)
N1 N 0.2751(2) 0.24790(13) 0.3714(3)
N2 N 0.2243(3) 0.34557(13) 0.3749(2)
O3 O 0.4789(2) 0.31543(12) 0.3245(2)
C1 C 0.4694(3) 0.3411(2) 0.5668(4)
C2 C 0.3035(3) 0.20019(18) 0.3735(3)
C3 C 0.1703(3) 0.25909(16) 0.3527(3)
C4 C 0.1431(3) 0.31186(15) 0.3521(3)
C5 C 0.2025(4) 0.39397(17) 0.3753(3)
C6 C 0.5168(3) 0.35280(19) 0.6721(3)
H1 H 0.3752 0.1927 0.3861
C7 C 0.2314(4) 0.16034(17) 0.3576(4)
C8 C 0.0922(3) 0.22103(15) 0.3344(3)
C9 C 0.0371(3) 0.32776(16) 0.3307(3)
H2 H 0.2583 0.4169 0.3909
C10 C 0.0991(4) 0.41269(18) 0.3532(4)
C11 C 0.5293(3) 0.31526(18) 0.7414(4)
C12 C 0.5475(4) 0.4011(2) 0.7034(4)
H3 H 0.2547 0.1270 0.3602
C13 C 0.1256(3) 0.17091(16) 0.3380(3)
C14 C -0.0145(3) 0.23887(17) 0.3140(3)
C15 C 0.0167(4) 0.37916(18) 0.3306(3)
C16 C -0.0417(3) 0.28876(17) 0.3116(3)
H4 H 0.0866 0.4473 0.3539
C17 C 0.5695(3) 0.32594(18) 0.8388(4)
H5 H 0.5103 0.2822 0.7220
C18 C 0.5881(4) 0.4121(2) 0.8014(4)
H6 H 0.5409 0.4268 0.6578
H7 H 0.0764 0.1448 0.3272
N3 N -0.1083(3) 0.21223(15) 0.2921(3)
H8 H -0.0527 0.3908 0.3151
N4 N -0.1511(3) 0.29421(16) 0.2888(3)
C19 C 0.5988(3) 0.3744(2) 0.8678(4)
H9 H 0.5767 0.3003 0.8848
H10 H 0.6079 0.4450 0.8214
H11 H -0.114(3) 0.1776(16) 0.285(3)
C20 C -0.1849(4) 0.2475(2) 0.2772(4)
O4 O 0.6459(2) 0.38578(13) 0.9651(2)
H12 H -0.2565 0.2393 0.2601
C21 C 0.5916(3) 0.37265(16) 1.0330(3)
C22 C 0.4833(3) 0.37874(16) 1.0119(3)
C23 C 0.6495(3) 0.35615(17) 1.1226(3)
C24 C 0.4327(3) 0.36429(16) 1.0808(3)
H13 H 0.4453 0.3923 0.9526
H14 H 0.7228 0.3539 1.1372
C25 C 0.5972(3) 0.34283(16) 1.1913(3)
H15 H 0.3596 0.3675 1.0668
C26 C 0.4881(3) 0.34534(15) 1.1693(3)
H16 H 0.6358 0.3321 1.2527
C27 C 0.4287(4) 0.32895(17) 1.2401(4)
O5 O 0.3298(3) 0.32882(14) 1.2139(3)
O3_2 O 0.4789(2) 0.31543(12) 1.3245(2)
Zn1_2 Zn 0.37165(4) 0.312642(19) 1.39888(4)
Zn2 Zn 0.89378(4) 0.08791(2) 0.04821(4)
O6 O 0.9069(2) 0.11255(12) 0.2440(2)
O7 O 0.8649(2) 0.04616(11) 0.1486(2)
O8 O 0.7383(3) -0.04020(12) 0.5125(2)
O9 O 0.8978(3) 0.04378(13) 0.9399(3)
O10 O 0.7291(3) 0.06177(15) 0.9132(3)
C28 C 0.8724(3) 0.06897(19) 0.2287(4)
C29 C 0.8397(3) 0.04026(16) 0.3051(3)
C30 C 0.7834(3) -0.00449(16) 0.2843(3)
H17 H 0.7664 -0.0170 0.2211
C31 C 0.7521(4) -0.03079(16) 0.3543(3)
H18 H 0.7150 -0.0610 0.3388
C32 C 0.7757(4) -0.01236(17) 0.4468(4)
C33 C 0.8301(3) 0.03278(17) 0.4703(3)
H19 H 0.8455 0.0454 0.5334
C34 C 0.8611(3) 0.05872(16) 0.3989(3)
H20 H 0.8970 0.0892 0.4142
C35 C 0.7545(4) -0.02108(17) 0.6060(4)
C36 C 0.8524(4) -0.02380(18) 0.6711(4)
H21 H 0.9086 -0.0388 0.6535
C37 C 0.8664(4) -0.00392(17) 0.7631(4)
H22 H 0.9329 -0.0051 0.8076
C38 C 0.7827(4) 0.01765(17) 0.7898(4)
C39 C 0.6847(4) 0.01817(19) 0.7239(4)
H23 H 0.6275 0.0318 0.7419
C40 C 0.6696(4) -0.00107(19) 0.6319(4)
H24 H 0.6029 -0.0005 0.5878
C41 C 0.8024(5) 0.0425(2) 0.8870(4)
N5 N 1.0352(3) 0.12944(15) 1.0767(3)
N6 N 0.8336(3) 0.15905(14) 1.0304(3)
C42 C 0.9086(3) 0.19617(18) 1.0484(3)
C43 C 0.7333(4) 0.1729(2) 1.0071(4)
C44 C 1.0176(3) 0.18003(18) 1.0738(3)
N7 N 0.9589(3) 0.33660(15) 1.0602(3)
C45 C 0.9672(3) 0.28340(19) 1.0615(3)
C46 C 1.1342(4) 0.11285(19) 1.0959(4)
N8 N 1.1335(3) 0.31094(16) 1.1033(3)
H25 H 1.2013 0.3136 1.1197
C47 C 1.0549(5) 0.3494(2) 1.0852(4)
C48 C 1.0705(4) 0.26750(18) 1.0872(3)
H26 H 0.6819 0.1477 0.9933
C49 C 0.7003(4) 0.2225(2) 1.0021(4)
C50 C 0.7742(4) 0.26003(19) 1.0173(4)
H27 H 0.7534 0.2938 1.0113
H28 H 0.6287 0.2302 0.9886
C51 C 0.8817(3) 0.24728(17) 1.0421(3)
C52 C 1.1008(3) 0.21588(19) 1.0921(3)
H29 H 1.1465 0.0782 1.0971
C53 C 1.2040(4) 0.1966(2) 1.1134(3)
C54 C 1.2207(4) 0.1461(2) 1.1143(4)
H30 H 1.2891 0.1334 1.1272
H31 H 1.0740 0.3834 1.0916
H32 H 1.2613 0.2187 1.1270
Zn2_2 Zn 0.89378(4) 0.08791(2) 1.04821(4)
O7_2 O 0.8649(2) 0.04616(11) 1.1486(2)
O11 O 0.4856(7) 0.4519(3) 0.3599(8)
H33 H 0.5504 0.4506 0.3756
H34 H 0.4501 0.4623 0.3951
O12 O 0.3695(9) 0.4873(4) 0.4758(9)
H35 H 0.3464 0.5163 0.4709
H36 H 0.3432 0.4725 0.5141
loop_
_geom_bond_atom_site_label_1
_geom_bond_atom_site_label_2
_geom_bond_site_symmetry_1
_geom_bond_site_symmetry_2
Zn1 O1 1_555 1_555
O1 C1 1_555 1_555
O2 Zn1 1_555 1_555
N1 Zn1 1_555 1_555
N2 Zn1 1_555 1_555
O3 Zn1 1_555 1_555
C1 O2 1_555 1_555
C2 N1 1_555 1_555
C3 N1 1_555 1_555
C4 N2 1_555 1_555
C5 N2 1_555 1_555
C6 C1 1_555 1_555
H1 C2 1_555 1_555
C7 C2 1_555 1_555
C8 C3 1_555 1_555
C9 C4 1_555 1_555
H2 C5 1_555 1_555
C10 C5 1_555 1_555
C11 C6 1_555 1_555
C12 C6 1_555 1_555
H3 C7 1_555 1_555
C13 C7 1_555 1_555
C14 C8 1_555 1_555
C15 C9 1_555 1_555
C16 C9 1_555 1_555
H4 C10 1_555 1_555
C17 C11 1_555 1_555
H5 C11 1_555 1_555
C18 C12 1_555 1_555
H6 C12 1_555 1_555
H7 C13 1_555 1_555
N3 C14 1_555 1_555
H8 C15 1_555 1_555
N4 C16 1_555 1_555
C19 C17 1_555 1_555
H9 C17 1_555 1_555
H10 C18 1_555 1_555
H11 N3 1_555 1_555
C20 N3 1_555 1_555
O4 C19 1_555 1_555
H12 C20 1_555 1_555
C21 O4 1_555 1_555
C22 C21 1_555 1_555
C23 C21 1_555 1_555
C24 C22 1_555 1_555
H13 C22 1_555 1_555
H14 C23 1_555 1_555
C25 C23 1_555 1_555
H15 C24 1_555 1_555
C26 C24 1_555 1_555
H16 C25 1_555 1_555
C27 C26 1_555 1_555
O5 C27 1_555 1_555
Zn2 O7 1_555 1_555
O6 C28 1_555 1_555
O7 C28 1_555 1_555
O8 C32 1_555 1_555
O9 C41 1_555 1_555
O10 C41 1_555 1_555
C28 C29 1_555 1_555
C29 C30 1_555 1_555
C30 H17 1_555 1_555
C31 C30 1_555 1_555
H18 C31 1_555 1_555
C32 C31 1_555 1_555
C33 C32 1_555 1_555
H19 C33 1_555 1_555
C34 C29 1_555 1_555
H20 C34 1_555 1_555
C35 O8 1_555 1_555
C36 C35 1_555 1_555
H21 C36 1_555 1_555
C37 C36 1_555 1_555
H22 C37 1_555 1_555
C38 C37 1_555 1_555
C39 C38 1_555 1_555
H23 C39 1_555 1_555
C40 C35 1_555 1_555
H24 C40 1_555 1_555
C41 C38 1_555 1_555
N5 C44 1_555 1_555
N6 C42 1_555 1_555
C42 C44 1_555 1_555
C43 N6 1_555 1_555
C44 C52 1_555 1_555
N7 C45 1_555 1_555
C45 C48 1_555 1_555
C46 N5 1_555 1_555
N8 H25 1_555 1_555
C47 N7 1_555 1_555
C48 N8 1_555 1_555
H26 C43 1_555 1_555
C49 C43 1_555 1_555
C50 C49 1_555 1_555
H27 C50 1_555 1_555
H28 C49 1_555 1_555
C51 C42 1_555 1_555
C52 C48 1_555 1_555
H29 C46 1_555 1_555
C53 C52 1_555 1_555
C54 C46 1_555 1_555
H30 C54 1_555 1_555
H31 C47 1_555 1_555
H32 C53 1_555 1_555
O11 H33 1_555 1_555
H34 O11 1_555 1_555
O12 H35 1_555 1_555
H36 O12 1_555 1_555
O3_2 C27 1_555 1_555
Zn1_2 O3_2 1_555 1_555
Zn2_2 O9 1_555 1_555
O7_2 Zn2_2 1_555 1_555
C3 C4 1_555 1_555
C8 C13 1_555 1_555
C10 C15 1_555 1_555
C14 C16 1_555 1_555
C18 C19 1_555 1_555
N4 C20 1_555 1_555
C25 C26 1_555 1_555
O10 Zn2_2 1_555 1_555
C33 C34 1_555 1_555
C39 C40 1_555 1_555
N5 Zn2_2 1_555 1_555
N6 Zn2_2 1_555 1_555
C45 C51 1_555 1_555
N8 C47 1_555 1_555
C50 C51 1_555 1_555
C53 C54 1_555 1_555

#END
