
#######################################################################
#
#                 Cambridge Crystallographic Data Centre
#                                CCDC 
#
#######################################################################
#
# If this CIF has been generated from an entry in the Cambridge 
# Structural Database, then it will include bibliographic, chemical, 
# crystal, experimental, refinement or atomic coordinate data resulting 
# from the CCDC's data processing and validation procedures.
#
#######################################################################

data_FUMHOM
_symmetry_cell_setting           triclinic
_symmetry_space_group_name_H-M   'P -1'
_symmetry_Int_Tables_number      2
_space_group_name_Hall           '-P 1'
loop_
_symmetry_equiv_pos_site_id
_symmetry_equiv_pos_as_xyz
1 x,y,z
2 -x,-y,-z
_cell_length_a                   8.701(2)
_cell_length_b                   9.797(3)
_cell_length_c                   10.303(3)
_cell_angle_alpha                104.840(8)
_cell_angle_beta                 110.287(8)
_cell_angle_gamma                103.024(8)
_cell_volume                     746.977
loop_
_atom_site_label
_atom_site_type_symbol
_atom_site_fract_x
_atom_site_fract_y
_atom_site_fract_z
Cd1 Cd 0.29448(3) 0.90283(2) 0.31664(2)
C1 C 0.1600(4) 1.1390(3) 0.9398(3)
C2 C 0.2210(4) 1.1367(4) 1.1887(3)
C3 C 0.2204(4) 0.9296(3) 1.0078(3)
C4 C 0.1458(4) 0.9214(4) 0.7517(3)
H1 H 0.0738 0.9602 0.6860
H2 H 0.0844 0.8145 0.7201
C5 C 0.3195(4) 0.9453(4) 0.7400(3)
H3 H 0.3978 1.0472 0.8041
H4 H 0.3722 0.8768 0.7754
C6 C 0.2999(4) 0.9201(3) 0.5836(3)
C7 C 0.1684(4) 1.3543(3) 1.1253(4)
H5 H 0.1458 1.3734 1.2128
H6 H 0.0699 1.3559 1.0449
C8 C 0.3330(4) 1.4772(4) 1.1570(4)
H7 H 0.4329 1.4689 1.2302
H8 H 0.3492 1.4633 1.0665
C9 C 0.3247(4) 1.6324(4) 1.2139(3)
O1 O 0.1257(3) 1.1993(3) 0.8492(3)
O2 O 0.2363(3) 1.1970(3) 1.3143(2)
O3 O 0.2438(3) 0.8097(3) 0.9723(3)
O4 O 0.4245(3) 0.8964(3) 0.5549(2)
O5 O 0.1709(3) 0.9294(3) 0.4886(2)
O6 O 0.4615(3) 1.7454(2) 1.2677(3)
O7 O 0.1816(3) 1.6466(2) 1.2061(3)
N1 N 0.1733(3) 0.9974(3) 0.9042(3)
N2 N 0.1855(3) 1.2053(3) 1.0843(3)
N3 N 0.2360(3) 0.9997(3) 1.1457(3)
Cd1_2 Cd 0.29448(3) 0.90283(2) 1.31664(2)
Cd1_3 Cd 0.29448(3) 1.90283(2) 1.31664(2)
Cd1A Cd 0.70552(3) 1.09717(2) 0.68336(2)
O4A O 0.5755(3) 1.1036(3) 0.4451(2)
O6_2 O 0.4615(3) 0.7454(2) 0.2677(3)
O7_2 O 0.1816(3) 0.6466(2) 0.2061(3)
N3_2 N 0.2360(3) 0.9997(3) 0.1457(3)
loop_
_geom_bond_atom_site_label_1
_geom_bond_atom_site_label_2
_geom_bond_site_symmetry_1
_geom_bond_site_symmetry_2
Cd1 O4 1_555 1_555
C1 O1 1_555 1_555
C2 O2 1_555 1_555
C3 O3 1_555 1_555
C4 H1 1_555 1_555
H2 C4 1_555 1_555
C5 C4 1_555 1_555
H3 C5 1_555 1_555
H4 C5 1_555 1_555
C6 C5 1_555 1_555
C7 H5 1_555 1_555
H6 C7 1_555 1_555
C8 C7 1_555 1_555
H7 C8 1_555 1_555
H8 C8 1_555 1_555
C9 C8 1_555 1_555
O4 C6 1_555 1_555
O5 Cd1 1_555 1_555
O6 C9 1_555 1_555
O7 C9 1_555 1_555
N1 C1 1_555 1_555
N2 C1 1_555 1_555
N3 C2 1_555 1_555
Cd1_2 N3 1_555 1_555
Cd1_3 O6 1_555 1_555
Cd1A O4 1_555 1_555
O4A Cd1 1_555 1_555
O6_2 Cd1 1_555 1_555
O7_2 Cd1 1_555 1_555
N3_2 Cd1 1_555 1_555
C2 N2 1_555 1_555
C3 N1 1_555 1_555
C3 N3 1_555 1_555
C4 N1 1_555 1_555
C6 O5 1_555 1_555
C7 N2 1_555 1_555
O7 Cd1_3 1_555 1_555
Cd1A O4A 1_555 1_555

#END
