
#######################################################################
#
#                 Cambridge Crystallographic Data Centre
#                                CCDC 
#
#######################################################################
#
# If this CIF has been generated from an entry in the Cambridge 
# Structural Database, then it will include bibliographic, chemical, 
# crystal, experimental, refinement or atomic coordinate data resulting 
# from the CCDC's data processing and validation procedures.
#
#######################################################################

data_FUMJAZ01
_symmetry_cell_setting           monoclinic
_symmetry_space_group_name_H-M   'C 2/c'
_symmetry_Int_Tables_number      15
_space_group_name_Hall           '-C 2yn'
loop_
_symmetry_equiv_pos_site_id
_symmetry_equiv_pos_as_xyz
1 x,y,z
2 -x,y,1/2-z
3 1/2+x,1/2+y,z
4 1/2-x,1/2+y,1/2-z
5 -x,-y,-z
6 x,-y,1/2+z
7 1/2-x,1/2-y,-z
8 1/2+x,1/2-y,1/2+z
_cell_length_a                   19.560(5)
_cell_length_b                   12.161(3)
_cell_length_c                   19.491(5)
_cell_angle_alpha                90
_cell_angle_beta                 104.485(5)
_cell_angle_gamma                90
_cell_volume                     4488.93
loop_
_atom_site_label
_atom_site_type_symbol
_atom_site_fract_x
_atom_site_fract_y
_atom_site_fract_z
Co1 Co 0.57890(3) 0.68772(4) -0.00326(3)
O1 O 0.55770(13) 0.5402(2) -0.06946(14)
O2 O 0.66410(14) 0.5773(2) -0.00786(14)
O3 O 0.63192(15) 0.7953(2) 0.06940(14)
O4 O 0.56475(17) 0.7940(3) 0.14525(17)
O5 O 0.55529(15) 0.6000(2) 0.08271(15)
H1 H 0.5543 0.6430 0.1149
C1 C 0.6224(2) 0.5181(3) -0.0520(2)
C2 C 0.6507(2) 0.4221(3) -0.0841(2)
C3 C 0.7219(2) 0.3983(3) -0.0637(2)
H2 H 0.7513 0.4397 -0.0281
C4 C 0.7506(2) 0.3135(3) -0.0955(2)
C5 C 0.7053(2) 0.2536(4) -0.1482(3)
H3 H 0.7231 0.1960 -0.1699
C6 C 0.6341(3) 0.2775(4) -0.1691(3)
H4 H 0.6047 0.2369 -0.2050
C7 C 0.6067(2) 0.3614(4) -0.1369(2)
H5 H 0.5586 0.3771 -0.1507
C8 C 0.8272(2) 0.2894(3) -0.0750(2)
C9 C 0.8539(3) 0.1968(4) -0.0945(3)
H6 H 0.8237 0.1456 -0.1220
C10 C 0.9247(3) 0.1758(4) -0.0746(3)
H7 H 0.9402 0.1103 -0.0903
C11 C 0.9473(3) 0.3303(5) -0.0180(3)
H8 H 0.9790 0.3804 0.0088
C12 C 0.8769(3) 0.3584(5) -0.0358(3)
H9 H 0.8630 0.4255 -0.0209
C13 C 0.6174(2) 0.8239(3) 0.1265(2)
C14 C 0.6687(2) 0.8993(3) 0.1740(2)
C15 C 0.7395(2) 0.8992(3) 0.1757(2)
H10 H 0.7558 0.8557 0.1439
C16 C 0.7861(2) 0.9624(4) 0.2236(2)
H11 H 0.8339 0.9598 0.2251
C17 C 0.7628(2) 1.0301(4) 0.2698(2)
H12 H 0.7948 1.0732 0.3020
C18 C 0.6916(2) 1.0337(3) 0.26820(19)
C19 C 0.6452(2) 0.9673(3) 0.2199(2)
H13 H 0.5973 0.9687 0.2186
C20 C 0.6651(2) 1.1016(3) 0.3185(2)
C21 C 0.6017(3) 1.1565(4) 0.3004(2)
H14 H 0.5747 1.1540 0.2538
C22 C 0.5778(3) 1.2145(4) 0.3495(2)
H15 H 0.5353 1.2520 0.3348
C23 C 0.6741(2) 1.1684(3) 0.4352(2)
H16 H 0.6998 1.1714 0.4823
C24 C 0.7026(2) 1.1109(3) 0.3888(2)
H17 H 0.7467 1.0783 0.4042
N1 N 0.97250(17) 0.2395(3) -0.03562(18)
N2 N 0.61284(18) 1.2199(3) 0.41804(17)
H18 H 0.5186(13) 0.558(2) 0.0742(17)
Co1B Co 1.07890(3) 0.18772(4) -0.00326(3)
Co1E Co 0.57890(3) 1.31228(4) 0.49674(3)
N1B N 0.47250(17) 0.7395(3) -0.03562(18)
N2E N 0.61284(18) 0.7801(3) -0.08196(17)
loop_
_geom_bond_atom_site_label_1
_geom_bond_atom_site_label_2
_geom_bond_site_symmetry_1
_geom_bond_site_symmetry_2
Co1 O1 1_555 1_555
O1 C1 1_555 1_555
O2 Co1 1_555 1_555
O3 Co1 1_555 1_555
O4 C13 1_555 1_555
O5 Co1 1_555 1_555
H1 O5 1_555 1_555
C1 O2 1_555 1_555
C2 C1 1_555 1_555
C3 C2 1_555 1_555
H2 C3 1_555 1_555
C4 C3 1_555 1_555
C5 C4 1_555 1_555
H3 C5 1_555 1_555
C6 C5 1_555 1_555
H4 C6 1_555 1_555
C7 C2 1_555 1_555
H5 C7 1_555 1_555
C8 C4 1_555 1_555
C9 C8 1_555 1_555
H6 C9 1_555 1_555
C10 C9 1_555 1_555
H7 C10 1_555 1_555
C11 H8 1_555 1_555
C12 C8 1_555 1_555
H9 C12 1_555 1_555
C13 O3 1_555 1_555
C14 C13 1_555 1_555
C15 C14 1_555 1_555
H10 C15 1_555 1_555
C16 C15 1_555 1_555
H11 C16 1_555 1_555
C17 C16 1_555 1_555
H12 C17 1_555 1_555
C18 C17 1_555 1_555
C19 C14 1_555 1_555
H13 C19 1_555 1_555
C20 C18 1_555 1_555
C21 C20 1_555 1_555
H14 C21 1_555 1_555
C22 C21 1_555 1_555
H15 C22 1_555 1_555
C23 H16 1_555 1_555
C24 C20 1_555 1_555
H17 C24 1_555 1_555
N1 C10 1_555 1_555
N2 C22 1_555 1_555
H18 O5 1_555 1_555
Co1B N1 1_555 1_555
Co1E N2 1_555 1_555
N1B Co1 1_555 1_555
N2E Co1 1_555 1_555
C6 C7 1_555 1_555
C11 C12 1_555 1_555
C11 N1 1_555 1_555
C18 C19 1_555 1_555
C23 C24 1_555 1_555
C23 N2 1_555 1_555

#END
