
#######################################################################
#
#                 Cambridge Crystallographic Data Centre
#                                CCDC 
#
#######################################################################
#
# If this CIF has been generated from an entry in the Cambridge 
# Structural Database, then it will include bibliographic, chemical, 
# crystal, experimental, refinement or atomic coordinate data resulting 
# from the CCDC's data processing and validation procedures.
#
#######################################################################

data_FUMJAZ
_symmetry_cell_setting           monoclinic
_symmetry_space_group_name_H-M   'C 2/c'
_symmetry_Int_Tables_number      15
_space_group_name_Hall           '-C 2yn'
loop_
_symmetry_equiv_pos_site_id
_symmetry_equiv_pos_as_xyz
1 x,y,z
2 -x,y,1/2-z
3 1/2+x,1/2+y,z
4 1/2-x,1/2+y,1/2-z
5 -x,-y,-z
6 x,-y,1/2+z
7 1/2-x,1/2-y,-z
8 1/2+x,1/2-y,1/2+z
_cell_length_a                   19.587(5)
_cell_length_b                   12.144(5)
_cell_length_c                   19.586(5)
_cell_angle_alpha                90
_cell_angle_beta                 104.860(5)
_cell_angle_gamma                90
_cell_volume                     4503
loop_
_atom_site_label
_atom_site_type_symbol
_atom_site_fract_x
_atom_site_fract_y
_atom_site_fract_z
Co1 Co -0.078404(16) 0.18840(2) 0.502680(16)
O1 O 0.33621(8) 0.57785(14) 0.50780(9)
O2 O 0.44307(8) 0.54107(14) 0.56922(9)
O3 O -0.13152(10) 0.70344(15) 0.93007(9)
O4 O -0.05569(11) 0.09971(18) 0.41682(11)
N1 N 0.02861(10) 0.24020(17) 0.53573(11)
O5 O -0.06425(11) 0.70559(19) 0.85395(11)
N2 N -0.11180(11) 0.28080(17) 0.58141(10)
C1 C -0.16405(13) 0.3982(2) 0.68046(12)
C2 C 0.35033(12) 0.4233(2) 0.58440(12)
C3 C 0.27878(12) 0.39907(19) 0.56369(12)
H1 H 0.2492 0.4403 0.5281
C4 C -0.19054(13) 0.4654(2) 0.73110(12)
C5 C -0.20173(14) 0.3893(2) 0.61073(13)
H2 H -0.2459 0.4222 0.5955
C6 C -0.14432(13) 0.5324(2) 0.77901(12)
H3 H -0.0966 0.5323 0.7800
C7 C 0.37775(12) 0.51881(19) 0.55158(12)
C8 C 0.25067(13) 0.3143(2) 0.59537(14)
C9 C -0.11671(14) 0.6754(2) 0.87301(13)
C10 C -0.16811(14) 0.5994(2) 0.82535(12)
C11 C 0.17372(13) 0.2903(2) 0.57441(14)
C12 C -0.17397(13) 0.3318(2) 0.56386(13)
H4 H -0.2002 0.3282 0.5170
C13 C 0.39450(14) 0.3630(2) 0.63767(16)
H5 H 0.4425 0.3792 0.6518
C14 C -0.26192(15) 0.4682(2) 0.72930(14)
H6 H -0.2938 0.4251 0.6968
C15 C -0.10035(17) 0.3430(3) 0.69938(15)
H7 H -0.0735 0.3443 0.7460
C16 C -0.07663(16) 0.2862(3) 0.64941(15)
H8 H -0.0337 0.2494 0.6637
C17 C 0.36709(16) 0.2785(3) 0.66982(19)
H9 H 0.3967 0.2377 0.7057
C18 C -0.28560(15) 0.5347(3) 0.77557(15)
H10 H -0.3334 0.5361 0.7740
C19 C -0.23908(15) 0.5991(2) 0.82412(14)
H11 H -0.2553 0.6421 0.8559
C20 C 0.29605(15) 0.2548(3) 0.64885(17)
H12 H 0.2781 0.1979 0.6708
C21 C 0.07610(16) 0.1754(3) 0.5745(2)
H13 H 0.0606 0.1097 0.5897
C22 C 0.12417(17) 0.3601(3) 0.5359(2)
H14 H 0.1382 0.4279 0.5221
C23 C 0.14713(16) 0.1970(3) 0.5946(2)
H15 H 0.1775 0.1464 0.6226
C24 C 0.05357(17) 0.3319(3) 0.5169(2)
H16 H 0.0219 0.3811 0.4891
H17 H -0.0178(19) 0.063(3) 0.4224(17)
H18 H -0.0521(19) 0.155(3) 0.392(2)
Co1B Co 0.421596(16) 0.68840(2) 0.502680(16)
Co1E Co -0.078404(16) 0.81160(2) 1.002680(16)
O1B O -0.16379(8) 0.07785(14) 0.50780(9)
O2B O -0.05693(8) 0.04107(14) 0.56922(9)
O3E O -0.13152(10) 0.29656(15) 0.43007(9)
loop_
_geom_bond_atom_site_label_1
_geom_bond_atom_site_label_2
_geom_bond_site_symmetry_1
_geom_bond_site_symmetry_2
Co1 O4 1_555 1_555
O1 C7 1_555 1_555
O2 C7 1_555 1_555
O3 C9 1_555 1_555
O4 H17 1_555 1_555
N1 Co1 1_555 1_555
O5 C9 1_555 1_555
N2 Co1 1_555 1_555
C1 C4 1_555 1_555
C2 C3 1_555 1_555
C3 H1 1_555 1_555
C4 C6 1_555 1_555
C5 C1 1_555 1_555
H2 C5 1_555 1_555
C6 H3 1_555 1_555
C7 C2 1_555 1_555
C8 C3 1_555 1_555
C9 C10 1_555 1_555
C10 C6 1_555 1_555
C11 C8 1_555 1_555
C12 N2 1_555 1_555
H4 C12 1_555 1_555
C13 C2 1_555 1_555
H5 C13 1_555 1_555
C14 C4 1_555 1_555
H6 C14 1_555 1_555
C15 C1 1_555 1_555
H7 C15 1_555 1_555
C16 N2 1_555 1_555
H8 C16 1_555 1_555
C17 C13 1_555 1_555
H9 C17 1_555 1_555
C18 C14 1_555 1_555
H10 C18 1_555 1_555
C19 C10 1_555 1_555
H11 C19 1_555 1_555
C20 C8 1_555 1_555
H12 C20 1_555 1_555
C21 N1 1_555 1_555
H13 C21 1_555 1_555
C22 C11 1_555 1_555
H14 C22 1_555 1_555
C23 C11 1_555 1_555
H15 C23 1_555 1_555
C24 N1 1_555 1_555
H16 C24 1_555 1_555
H18 O4 1_555 1_555
Co1B O1 1_555 1_555
Co1E O3 1_555 1_555
O1B Co1 1_555 1_555
O2B Co1 1_555 1_555
O3E Co1 1_555 1_555
O2 Co1B 1_555 1_555
C5 C12 1_555 1_555
C15 C16 1_555 1_555
C17 C20 1_555 1_555
C18 C19 1_555 1_555
C21 C23 1_555 1_555
C22 C24 1_555 1_555

#END
