
#######################################################################
#
#                 Cambridge Crystallographic Data Centre
#                                CCDC 
#
#######################################################################
#
# If this CIF has been generated from an entry in the Cambridge 
# Structural Database, then it will include bibliographic, chemical, 
# crystal, experimental, refinement or atomic coordinate data resulting 
# from the CCDC's data processing and validation procedures.
#
#######################################################################

data_FUMLEE
_symmetry_cell_setting           monoclinic
_symmetry_space_group_name_H-M   'P 21/c'
_symmetry_Int_Tables_number      14
_space_group_name_Hall           '-P 2ybc'
loop_
_symmetry_equiv_pos_site_id
_symmetry_equiv_pos_as_xyz
1 x,y,z
2 -x,1/2+y,1/2-z
3 -x,-y,-z
4 x,1/2-y,1/2+z
_cell_length_a                   14.856(2)
_cell_length_b                   7.4490(10)
_cell_length_c                   9.6140(10)
_cell_angle_alpha                90
_cell_angle_beta                 97.440(10)
_cell_angle_gamma                90
_cell_volume                     1054.95
loop_
_atom_site_label
_atom_site_type_symbol
_atom_site_fract_x
_atom_site_fract_y
_atom_site_fract_z
O1 O -0.37164(16) -0.2934(3) -0.6329(2)
O2 O -0.40629(16) -0.1607(4) -0.4440(2)
O3 O 0.32062(16) -0.2939(4) -0.3685(3)
O4 O 0.24629(16) -0.4339(4) -0.2212(3)
O5 O 0.42164(17) -0.2731(3) -0.0795(3)
H1 H 0.4704 -0.2959 -0.0340
H2 H 0.3809 -0.2716 -0.0260
O6 O 0.51767(17) -0.4801(4) -0.2637(3)
H3 H 0.5528 -0.4105 -0.2282
H4 H 0.5425 -0.5573 -0.2912
C1 C -0.3546(2) -0.2603(5) -0.5034(3)
C2 C -0.2701(2) -0.3379(5) -0.4198(4)
H5 H -0.2704 -0.4674 -0.4304
H6 H -0.2704 -0.3109 -0.3212
C3 C -0.1839(2) -0.2619(5) -0.4681(4)
H7 H -0.1814 -0.2974 -0.5646
H8 H -0.1863 -0.1318 -0.4652
C4 C -0.0979(2) -0.3259(6) -0.3778(4)
H9 H -0.1024 -0.2981 -0.2804
H10 H -0.0934 -0.4552 -0.3861
C5 C -0.0118(2) -0.2409(6) -0.4184(4)
H11 H -0.0108 -0.2577 -0.5182
H12 H -0.0137 -0.1127 -0.4009
C6 C 0.0749(2) -0.3164(6) -0.3403(4)
H13 H 0.0765 -0.4447 -0.3568
H14 H 0.0743 -0.2981 -0.2406
C7 C 0.1605(2) -0.2324(5) -0.3829(4)
H15 H 0.1570 -0.2356 -0.4843
H16 H 0.1631 -0.1074 -0.3543
C8 C 0.2465(2) -0.3240(5) -0.3205(4)
Co1 Co 0.38602(3) -0.48961(7) -0.22373(4)
Co1A Co -0.38602(3) 0.01039(7) -0.27627(4)
Co1B Co -0.38602(3) -0.51039(7) -0.77627(4)
O1B O 0.37164(16) -0.7066(3) -0.3671(2)
O2A O 0.40629(16) -0.6607(4) -0.0560(2)
loop_
_geom_bond_atom_site_label_1
_geom_bond_atom_site_label_2
_geom_bond_site_symmetry_1
_geom_bond_site_symmetry_2
O1 C1 1_555 1_555
O2 C1 1_555 1_555
O3 C8 1_555 1_555
O4 C8 1_555 1_555
O5 H1 1_555 1_555
H2 O5 1_555 1_555
O6 H3 1_555 1_555
H4 O6 1_555 1_555
C1 C2 1_555 1_555
C2 H5 1_555 1_555
H6 C2 1_555 1_555
C3 C2 1_555 1_555
H7 C3 1_555 1_555
H8 C3 1_555 1_555
C4 C3 1_555 1_555
H9 C4 1_555 1_555
H10 C4 1_555 1_555
C5 C4 1_555 1_555
H11 C5 1_555 1_555
H12 C5 1_555 1_555
C6 C5 1_555 1_555
H13 C6 1_555 1_555
H14 C6 1_555 1_555
C7 C6 1_555 1_555
H15 C7 1_555 1_555
H16 C7 1_555 1_555
C8 C7 1_555 1_555
Co1 O3 1_555 1_555
Co1A O2 1_555 1_555
Co1B O1 1_555 1_555
O1B Co1 1_555 1_555
O2A Co1 1_555 1_555
O4 Co1 1_555 1_555
O5 Co1 1_555 1_555
O6 Co1 1_555 1_555

#END
