
#######################################################################
#
#                 Cambridge Crystallographic Data Centre
#                                CCDC 
#
#######################################################################
#
# If this CIF has been generated from an entry in the Cambridge 
# Structural Database, then it will include bibliographic, chemical, 
# crystal, experimental, refinement or atomic coordinate data resulting 
# from the CCDC's data processing and validation procedures.
#
#######################################################################

data_FUMNAC
_symmetry_cell_setting           monoclinic
_symmetry_space_group_name_H-M   'P 21/c'
_symmetry_Int_Tables_number      14
_space_group_name_Hall           '-P 2ybc'
loop_
_symmetry_equiv_pos_site_id
_symmetry_equiv_pos_as_xyz
1 x,y,z
2 -x,1/2+y,1/2-z
3 -x,-y,-z
4 x,1/2-y,1/2+z
_cell_length_a                   7.397(4)
_cell_length_b                   14.792(5)
_cell_length_c                   7.775(4)
_cell_angle_alpha                90
_cell_angle_beta                 99.73(3)
_cell_angle_gamma                90
_cell_volume                     838.475
loop_
_atom_site_label
_atom_site_type_symbol
_atom_site_fract_x
_atom_site_fract_y
_atom_site_fract_z
Co1 Co -0.07140(5) 0.35550(2) 0.18764(5)
O1 O 0.1304(3) 0.33269(16) 0.4059(3)
O2 O 0.2400(3) 0.47042(14) 0.4699(3)
O3 O 0.7375(3) 0.37147(16) 0.9579(3)
O4 O 0.4804(3) 0.36741(15) 1.0695(3)
O5 O -0.2690(3) 0.37064(14) 0.3570(3)
O6 O 0.1164(3) 0.34012(14) 0.0187(3)
O7 O -0.1344(3) 0.21667(14) 0.1796(3)
O8 O -0.0220(3) 0.49493(16) 0.2010(3)
C1 C 0.2333(4) 0.3884(2) 0.5016(4)
C2 C 0.3538(5) 0.34926(19) 0.6608(4)
H1 H 0.2774 0.3159 0.7287
H2 H 0.4390 0.3068 0.6230
C3 C 0.4612(4) 0.4197(2) 0.7764(4)
H3 H 0.3771 0.4660 0.8027
H4 H 0.5474 0.4483 0.7123
C4 C 0.5660(4) 0.38319(19) 0.9464(4)
H5 H -0.3741 0.3776 0.3005
H6 H -0.2631 0.4243 0.4011
H7 H 0.2319 0.3519 0.0335
H8 H 0.1153 0.2837 -0.0224
H9 H -0.1661 0.1853 0.2620
H10 H -0.1798 0.1950 0.0711
H11 H -0.0105 0.5388 0.1347
H12 H 0.0782 0.5046 0.2803
O3_2 O -0.2625(3) 0.37147(16) -0.0421(3)
Co1_2 Co 0.92860(5) 0.35550(2) 1.18764(5)
loop_
_geom_bond_atom_site_label_1
_geom_bond_atom_site_label_2
_geom_bond_site_symmetry_1
_geom_bond_site_symmetry_2
Co1 O1 1_555 1_555
O1 C1 1_555 1_555
O2 C1 1_555 1_555
O3 C4 1_555 1_555
O4 C4 1_555 1_555
O5 Co1 1_555 1_555
O6 Co1 1_555 1_555
O7 Co1 1_555 1_555
O8 Co1 1_555 1_555
C1 C2 1_555 1_555
C2 H1 1_555 1_555
H2 C2 1_555 1_555
C3 C2 1_555 1_555
H3 C3 1_555 1_555
H4 C3 1_555 1_555
C4 C3 1_555 1_555
H5 O5 1_555 1_555
H6 O5 1_555 1_555
H7 O6 1_555 1_555
H8 O6 1_555 1_555
H9 O7 1_555 1_555
H10 O7 1_555 1_555
H11 O8 1_555 1_555
H12 O8 1_555 1_555
O3_2 Co1 1_555 1_555
Co1_2 O3 1_555 1_555

#END
