
#######################################################################
#
#                 Cambridge Crystallographic Data Centre
#                                CCDC 
#
#######################################################################
#
# If this CIF has been generated from an entry in the Cambridge 
# Structural Database, then it will include bibliographic, chemical, 
# crystal, experimental, refinement or atomic coordinate data resulting 
# from the CCDC's data processing and validation procedures.
#
#######################################################################

data_FUMNAC01
_symmetry_cell_setting           monoclinic
_symmetry_space_group_name_H-M   'P 21/c'
_symmetry_Int_Tables_number      14
_space_group_name_Hall           '-P 2ybc'
loop_
_symmetry_equiv_pos_site_id
_symmetry_equiv_pos_as_xyz
1 x,y,z
2 x,1/2-y,1/2+z
3 -x,-y,-z
4 -x,1/2+y,1/2-z
_cell_length_a                   7.4174(5)
_cell_length_b                   14.8283(9)
_cell_length_c                   7.7865(5)
_cell_angle_alpha                90
_cell_angle_beta                 99.799(2)
_cell_angle_gamma                90
_cell_volume                     843.923
loop_
_atom_site_label
_atom_site_type_symbol
_atom_site_fract_x
_atom_site_fract_y
_atom_site_fract_z
Co1 Co 0.92915(2) 0.144550(12) 0.18765(2)
O1 O 1.13036(14) 0.16737(7) 0.40607(14)
O2 O 1.2397(2) 0.02950(7) 0.46990(15)
O3 O 1.73788(14) 0.12841(8) 0.95788(14)
O4 O 1.48108(14) 0.13261(8) 1.06928(14)
O5 O 1.11625(15) 0.16008(8) 0.0184(2)
O6 O 0.7317(2) 0.12946(7) 0.35732(15)
O7 O 0.8661(2) 0.28311(7) 0.1797(2)
O8 O 0.9796(2) 0.00534(8) 0.2011(2)
C1 C 1.2338(2) 0.11167(10) 0.5020(2)
C2 C 1.3544(2) 0.15090(10) 0.6614(2)
C3 C 1.4619(2) 0.08015(10) 0.7768(2)
C4 C 1.5659(2) 0.11709(9) 0.9464(2)
H1 H 1.4431(32) 0.1933(15) 0.6158(29)
H2 H 1.2818(31) 0.1881(15) 0.7222(31)
H3 H 1.3788(31) 0.0389(16) 0.8073(30)
H4 H 1.5482(31) 0.0547(15) 0.7118(31)
H5 H 1.2125(35) 0.1480(16) 0.0482(35)
H6 H 1.1172(31) 0.2073(16) -0.0145(33)
H7 H 0.6353(35) 0.1337(14) 0.2727(35)
H8 H 0.7281(33) 0.0854(17) 0.3994(31)
H9 H 0.8213(32) 0.3011(16) 0.0922(32)
H10 H 0.8303(32) 0.3059(16) 0.2488(34)
H11 H 0.9776(34) -0.0283(16) 0.1316(32)
H12 H 1.0730(31) 0.0020(17) 0.2843(33)
O3_2 O 0.73788(14) 0.12841(8) -0.04212(14)
Co1_2 Co 1.92915(2) 0.144550(12) 1.18765(2)
loop_
_geom_bond_atom_site_label_1
_geom_bond_atom_site_label_2
_geom_bond_site_symmetry_1
_geom_bond_site_symmetry_2
Co1 O1 1_555 1_555
O1 C1 1_555 1_555
O2 C1 1_555 1_555
O3 C4 1_555 1_555
O4 C4 1_555 1_555
O5 Co1 1_555 1_555
O6 Co1 1_555 1_555
O7 Co1 1_555 1_555
O8 Co1 1_555 1_555
C1 C2 1_555 1_555
C2 C3 1_555 1_555
C3 C4 1_555 1_555
H1 C2 1_555 1_555
H2 C2 1_555 1_555
H3 C3 1_555 1_555
H4 C3 1_555 1_555
H5 O5 1_555 1_555
H6 O5 1_555 1_555
H7 O6 1_555 1_555
H8 O6 1_555 1_555
H9 O7 1_555 1_555
H10 O7 1_555 1_555
H11 O8 1_555 1_555
H12 O8 1_555 1_555
O3_2 Co1 1_555 1_555
Co1_2 O3 1_555 1_555

#END
