
#######################################################################
#
#                 Cambridge Crystallographic Data Centre
#                                CCDC 
#
#######################################################################
#
# If this CIF has been generated from an entry in the Cambridge 
# Structural Database, then it will include bibliographic, chemical, 
# crystal, experimental, refinement or atomic coordinate data resulting 
# from the CCDC's data processing and validation procedures.
#
#######################################################################

data_FUMQIP
_symmetry_cell_setting           orthorhombic
_symmetry_space_group_name_H-M   'F d d 2'
_symmetry_Int_Tables_number      43
_space_group_name_Hall           'F 2 -2d'
loop_
_symmetry_equiv_pos_site_id
_symmetry_equiv_pos_as_xyz
1 x,y,z
2 -x,-y,z
3 1/4+x,1/4-y,1/4+z
4 1/4-x,1/4+y,1/4+z
5 x,1/2+y,1/2+z
6 -x,1/2-y,1/2+z
7 1/4+x,3/4-y,3/4+z
8 1/4-x,3/4+y,3/4+z
9 1/2+x,y,1/2+z
10 1/2-x,-y,1/2+z
11 3/4+x,1/4-y,3/4+z
12 3/4-x,1/4+y,3/4+z
13 1/2+x,1/2+y,z
14 1/2-x,1/2-y,z
15 3/4+x,3/4-y,1/4+z
16 3/4-x,3/4+y,1/4+z
_cell_length_a                   12.808(13)
_cell_length_b                   24.306(8)
_cell_length_c                   7.7275(17)
_cell_angle_alpha                90
_cell_angle_beta                 90
_cell_angle_gamma                90
_cell_volume                     2405.66
loop_
_atom_site_label
_atom_site_type_symbol
_atom_site_fract_x
_atom_site_fract_y
_atom_site_fract_z
Cd1 Cd 0.0000 0.5000 0.45258(5)
Cd2 Cd -0.155123(16) 0.395702(8) 0.69555(2)
O1 O 0.32985(16) 0.48625(9) 0.0569(3)
O2 O 0.28472(16) 0.55512(8) -0.1190(3)
O3 O 0.00438(16) 0.42007(8) 0.5984(3)
N1 N 0.07308(17) 0.59631(9) -0.0318(3)
N2 N 0.0172(2) 0.63316(10) 0.0623(4)
N3 N -0.00151(17) 0.61085(9) 0.2140(4)
N4 N 0.04079(19) 0.55956(9) 0.2213(4)
C1 C 0.0870(2) 0.55250(12) 0.0690(4)
C2 C 0.1480(2) 0.50301(13) 0.0148(4)
H1 H 0.1178 0.4880 -0.0901
H2 H 0.1432 0.4751 0.1043
C3 C 0.2622(2) 0.51641(12) -0.0174(4)
Cd2A Cd 0.155123(16) 0.604298(8) 0.69555(2)
O1A O -0.32985(16) 0.51375(9) 0.0569(3)
O2A O -0.28472(16) 0.44488(8) -0.1190(3)
O3A O -0.00438(16) 0.57993(8) 0.5984(3)
N1A N -0.07308(17) 0.40369(9) -0.0318(3)
N2A N -0.0172(2) 0.36684(10) 0.0623(4)
N3A N 0.00151(17) 0.38915(9) 0.2140(4)
N4A N -0.04079(19) 0.44044(9) 0.2213(4)
C1A C -0.0870(2) 0.44750(12) 0.0690(4)
C2A C -0.1480(2) 0.49699(13) 0.0148(4)
H1A H -0.1178 0.5120 -0.0901
H2A H -0.1432 0.5249 0.1043
C3A C -0.2622(2) 0.48359(12) -0.0174(4)
Cd1H Cd -0.5000 0.5000 -0.04742(5)
Cd1H_2 Cd 0.5000 0.5000 -0.04742(5)
Cd2_2 Cd -0.155123(16) 0.395702(8) -0.30445(2)
Cd2A_2 Cd 0.155123(16) 0.604298(8) -0.30445(2)
Cd2C Cd 0.405123(16) 0.645702(8) -0.05445(2)
Cd2F Cd 0.094877(16) 0.354298(8) 0.44555(2)
Cd2H Cd 0.344877(16) 0.395702(8) 0.19555(2)
Cd2I Cd -0.344877(16) 0.604298(8) 0.19555(2)
Cd2K Cd -0.094877(16) 0.645702(8) 0.44555(2)
Cd2N Cd -0.405123(16) 0.354298(8) -0.05445(2)
O1H O -0.17015(16) 0.48625(9) 0.5569(3)
O1I O 0.17015(16) 0.51375(9) 0.5569(3)
O2_2 O 0.28472(16) 0.55512(8) 0.8810(3)
O2A_2 O -0.28472(16) 0.44488(8) 0.8810(3)
O2G O -0.03472(16) 0.30512(8) 0.6310(3)
O2J O 0.03472(16) 0.69488(8) 0.6310(3)
O3C O 0.24562(16) 0.67007(8) 0.8484(3)
O3N O -0.24562(16) 0.32993(8) 0.8484(3)
N1_2 N 0.07308(17) 0.59631(9) 0.9682(3)
N1A_2 N -0.07308(17) 0.40369(9) 0.9682(3)
N3B N 0.24849(17) 0.63915(9) 0.4640(4)
N3O N -0.24849(17) 0.36085(9) 0.4640(4)
loop_
_geom_bond_atom_site_label_1
_geom_bond_atom_site_label_2
_geom_bond_site_symmetry_1
_geom_bond_site_symmetry_2
Cd1 O3 1_555 1_555
Cd2 O3 1_555 1_555
O1 C3 1_555 1_555
O2 C3 1_555 1_555
O3 Cd2F 1_555 1_555
N1 N2 1_555 1_555
N2 N3 1_555 1_555
N3 N4 1_555 1_555
N4 Cd1 1_555 1_555
C1 N1 1_555 1_555
C2 C1 1_555 1_555
H1 C2 1_555 1_555
H2 C2 1_555 1_555
C3 C2 1_555 1_555
Cd2A O3A 1_555 1_555
O1A C3A 1_555 1_555
O2A C3A 1_555 1_555
O3A Cd1 1_555 1_555
N1A N2A 1_555 1_555
N2A N3A 1_555 1_555
N3A N4A 1_555 1_555
N4A Cd1 1_555 1_555
C1A N1A 1_555 1_555
C2A C1A 1_555 1_555
H1A C2A 1_555 1_555
H2A C2A 1_555 1_555
C3A C2A 1_555 1_555
Cd1H O1A 1_555 1_555
Cd1H_2 O1 1_555 1_555
Cd2_2 O2A 1_555 1_555
Cd2A_2 O2 1_555 1_555
Cd2C O2 1_555 1_555
Cd2F N3A 1_555 1_555
Cd2H O1 1_555 1_555
Cd2I O1A 1_555 1_555
Cd2K N3 1_555 1_555
Cd2N O2A 1_555 1_555
O1H Cd1 1_555 1_555
O1I Cd1 1_555 1_555
O2_2 Cd2A 1_555 1_555
O2A_2 Cd2 1_555 1_555
O2G Cd2 1_555 1_555
O2J Cd2A 1_555 1_555
O3C Cd2A 1_555 1_555
O3N Cd2 1_555 1_555
N1_2 Cd2A 1_555 1_555
N1A_2 Cd2 1_555 1_555
N3B Cd2A 1_555 1_555
N3O Cd2 1_555 1_555
Cd2 O1H 1_555 1_555
N1 Cd2A_2 1_555 1_555
N4 C1 1_555 1_555
Cd2A O1I 1_555 1_555
O3A Cd2K 1_555 1_555
N1A Cd2_2 1_555 1_555
N4A C1A 1_555 1_555
Cd2F O2G 1_555 1_555
Cd2K O2J 1_555 1_555

#END
