
#######################################################################
#
#                 Cambridge Crystallographic Data Centre
#                                CCDC 
#
#######################################################################
#
# If this CIF has been generated from an entry in the Cambridge 
# Structural Database, then it will include bibliographic, chemical, 
# crystal, experimental, refinement or atomic coordinate data resulting 
# from the CCDC's data processing and validation procedures.
#
#######################################################################

data_FUMQAF
_symmetry_cell_setting           monoclinic
_symmetry_space_group_name_H-M   'P 21/c'
_symmetry_Int_Tables_number      14
_space_group_name_Hall           '-P 2ybc'
loop_
_symmetry_equiv_pos_site_id
_symmetry_equiv_pos_as_xyz
1 x,y,z
2 -x,1/2+y,1/2-z
3 -x,-y,-z
4 x,1/2-y,1/2+z
_cell_length_a                   7.3950(10)
_cell_length_b                   14.713(3)
_cell_length_c                   7.702(2)
_cell_angle_alpha                90
_cell_angle_beta                 99.74(2)
_cell_angle_gamma                90
_cell_volume                     825.919
loop_
_atom_site_label
_atom_site_type_symbol
_atom_site_fract_x
_atom_site_fract_y
_atom_site_fract_z
Ni1 Ni -0.07201(4) 0.35580(2) 0.18803(4)
O1 O 0.1283(3) 0.33179(15) 0.4029(3)
O2 O 0.2392(3) 0.47058(14) 0.4673(3)
O3 O 0.7397(3) 0.37183(16) 0.9599(3)
O4 O 0.4812(3) 0.36723(15) 1.0721(3)
O5 O -0.2650(3) 0.36953(13) 0.3571(3)
O6 O 0.1137(3) 0.34207(14) 0.0192(3)
O7 O -0.1282(3) 0.21780(14) 0.1802(3)
O8 O -0.0257(3) 0.49345(15) 0.2013(3)
C1 C 0.2330(4) 0.38762(19) 0.4998(3)
C2 C 0.3540(5) 0.34782(19) 0.6615(4)
H1 H 0.2776 0.3151 0.7310
H2 H 0.4386 0.3047 0.6238
C3 C 0.4623(4) 0.41973(19) 0.7757(4)
H3 H 0.3786 0.4666 0.8017
H4 H 0.5486 0.4477 0.7101
C4 C 0.5669(4) 0.38282(18) 0.9478(3)
H5 H -0.2638 0.4245 0.3928
H6 H -0.3657 0.3640 0.2963
H7 H 0.1177 0.2831 -0.0022
H8 H 0.2201 0.3587 0.0541
H9 H -0.1661 0.1853 0.2620
H10 H -0.1798 0.1950 0.0711
H11 H -0.0264 0.5382 0.1419
H12 H 0.0933 0.5010 0.2781
O3_2 O -0.2603(3) 0.37183(16) -0.0401(3)
Ni1_2 Ni 0.92799(4) 0.35580(2) 1.18803(4)
loop_
_geom_bond_atom_site_label_1
_geom_bond_atom_site_label_2
_geom_bond_site_symmetry_1
_geom_bond_site_symmetry_2
Ni1 O1 1_555 1_555
O1 C1 1_555 1_555
O2 C1 1_555 1_555
O3 C4 1_555 1_555
O4 C4 1_555 1_555
O5 Ni1 1_555 1_555
O6 Ni1 1_555 1_555
O7 Ni1 1_555 1_555
O8 Ni1 1_555 1_555
C1 C2 1_555 1_555
C2 H1 1_555 1_555
H2 C2 1_555 1_555
C3 C2 1_555 1_555
H3 C3 1_555 1_555
H4 C3 1_555 1_555
C4 C3 1_555 1_555
H5 O5 1_555 1_555
H6 O5 1_555 1_555
H7 O6 1_555 1_555
H8 O6 1_555 1_555
H9 O7 1_555 1_555
H10 O7 1_555 1_555
H11 O8 1_555 1_555
H12 O8 1_555 1_555
O3_2 Ni1 1_555 1_555
Ni1_2 O3 1_555 1_555

#END
