
#######################################################################
#
#                 Cambridge Crystallographic Data Centre
#                                CCDC 
#
#######################################################################
#
# If this CIF has been generated from an entry in the Cambridge 
# Structural Database, then it will include bibliographic, chemical, 
# crystal, experimental, refinement or atomic coordinate data resulting 
# from the CCDC's data processing and validation procedures.
#
#######################################################################

data_FUMYES
_symmetry_cell_setting           orthorhombic
_symmetry_space_group_name_H-M   'I b a m'
_symmetry_Int_Tables_number      72
_space_group_name_Hall           '-I 2 2c'
loop_
_symmetry_equiv_pos_site_id
_symmetry_equiv_pos_as_xyz
1 x,y,z
2 -x,-y,z
3 1/2-x,1/2+y,-z
4 1/2+x,1/2-y,-z
5 1/2+x,1/2+y,1/2+z
6 1/2-x,1/2-y,1/2+z
7 -x,y,1/2-z
8 x,-y,1/2-z
9 -x,-y,-z
10 x,y,-z
11 1/2+x,1/2-y,z
12 1/2-x,1/2+y,z
13 1/2-x,1/2-y,1/2-z
14 1/2+x,1/2+y,1/2-z
15 x,-y,1/2+z
16 -x,y,1/2+z
_cell_length_a                   14.438(3)
_cell_length_b                   18.437(4)
_cell_length_c                   12.997(3)
_cell_angle_alpha                90
_cell_angle_beta                 90
_cell_angle_gamma                90
_cell_volume                     3459.72
loop_
_atom_site_label
_atom_site_type_symbol
_atom_site_fract_x
_atom_site_fract_y
_atom_site_fract_z
Fe1 Fe 0.20053(12) 0.36108(11) 0.0000
Co1 Co 0.0000 0.5000 0.2500
N1 N 0.2808(5) 0.3147(4) 0.1038(6)
N2 N 0.1224(7) 0.2733(6) 0.0000
N3 N 0.0771(5) 0.4396(4) 0.1601(6)
N4 N 0.3044(5) 0.2429(5) 0.0951(6)
N5 N 0.1616(7) 0.2059(6) 0.0000
C1 C 0.1238(6) 0.4097(5) 0.1027(7)
C2 C 0.0093(9) 0.1898(8) 0.0000
H1 H -0.0493 0.1688 0.0000
C3 C 0.3715(6) 0.2823(6) 0.2362(8)
H2 H 0.4063 0.2841 0.2963
C4 C 0.3582(6) 0.2233(6) 0.1746(7)
H3 H 0.3824 0.1773 0.1859
C5 C 0.0298(8) 0.2636(8) 0.0000
H4 H -0.0138 0.3007 0.0000
C6 C 0.3228(6) 0.3393(6) 0.1916(7)
H5 H 0.3194 0.3863 0.2172
C7 C 0.0944(8) 0.1537(7) 0.0000
H6 H 0.1036 0.1038 0.0000
B1 B 0.2696(9) 0.1997(8) 0.0000
H7 H 0.2910 0.1492 0.0000
C8 C 0.2804(10) 0.4441(10) 0.0000
N6 N 0.3290(11) 0.4945(9) 0.0000
Fe1A Fe -0.20053(12) 0.63892(11) 0.0000
Fe1F Fe -0.20053(12) 0.36108(11) 0.5000
Fe1G Fe 0.20053(12) 0.63892(11) 0.5000
N1I N 0.2808(5) 0.3147(4) -0.1038(6)
N1A N -0.2808(5) 0.6853(4) 0.1038(6)
N1H N -0.2808(5) 0.6853(4) -0.1038(6)
N2A N -0.1224(7) 0.7267(6) 0.0000
N3A N -0.0771(5) 0.5604(4) 0.1601(6)
N3F N -0.0771(5) 0.4396(4) 0.3399(6)
N3G N 0.0771(5) 0.5604(4) 0.3399(6)
N4I N 0.3044(5) 0.2429(5) -0.0951(6)
N4A N -0.3044(5) 0.7571(5) 0.0951(6)
N4H N -0.3044(5) 0.7571(5) -0.0951(6)
N5A N -0.1616(7) 0.7941(6) 0.0000
C1A C -0.1238(6) 0.5903(5) 0.1027(7)
C1F C -0.1238(6) 0.4097(5) 0.3973(7)
C1G C 0.1238(6) 0.5903(5) 0.3973(7)
C1I C 0.1238(6) 0.4097(5) -0.1027(7)
C1H C -0.1238(6) 0.5903(5) -0.1027(7)
C2A C -0.0093(9) 0.8102(8) 0.0000
H1A H 0.0493 0.8312 0.0000
C3I C 0.3715(6) 0.2823(6) -0.2362(8)
C3A C -0.3715(6) 0.7177(6) 0.2362(8)
C3H C -0.3715(6) 0.7177(6) -0.2362(8)
H2I H 0.4063 0.2841 -0.2963
H2A H -0.4063 0.7159 0.2963
H2H H -0.4063 0.7159 -0.2963
C4I C 0.3582(6) 0.2233(6) -0.1746(7)
C4A C -0.3582(6) 0.7767(6) 0.1746(7)
C4H C -0.3582(6) 0.7767(6) -0.1746(7)
H3I H 0.3824 0.1773 -0.1859
H3A H -0.3824 0.8227 0.1859
H3H H -0.3824 0.8227 -0.1859
C5A C -0.0298(8) 0.7364(8) 0.0000
H4A H 0.0138 0.6993 0.0000
C6I C 0.3228(6) 0.3393(6) -0.1916(7)
C6A C -0.3228(6) 0.6607(6) 0.1916(7)
C6H C -0.3228(6) 0.6607(6) -0.1916(7)
H5I H 0.3194 0.3863 -0.2172
H5A H -0.3194 0.6137 0.2172
H5H H -0.3194 0.6137 -0.2172
C7A C -0.0944(8) 0.8463(7) 0.0000
H6A H -0.1036 0.8962 0.0000
B1A B -0.2696(9) 0.8003(8) 0.0000
H7A H -0.2910 0.8508 0.0000
C8A C -0.2804(10) 0.5559(10) 0.0000
N6A N -0.3290(11) 0.5055(9) 0.0000
loop_
_geom_bond_atom_site_label_1
_geom_bond_atom_site_label_2
_geom_bond_site_symmetry_1
_geom_bond_site_symmetry_2
Fe1 N1 1_555 1_555
Co1 N3 1_555 1_555
N1 N4 1_555 1_555
N2 Fe1 1_555 1_555
N3 C1 1_555 1_555
N4 C4 1_555 1_555
N5 N2 1_555 1_555
C1 Fe1 1_555 1_555
C2 H1 1_555 1_555
C3 H2 1_555 1_555
C4 C3 1_555 1_555
H3 C4 1_555 1_555
C5 N2 1_555 1_555
H4 C5 1_555 1_555
C6 N1 1_555 1_555
H5 C6 1_555 1_555
C7 N5 1_555 1_555
H6 C7 1_555 1_555
B1 N4 1_555 1_555
H7 B1 1_555 1_555
C8 Fe1 1_555 1_555
N6 C8 1_555 1_555
Fe1A N1A 1_555 1_555
Fe1F C1F 1_555 1_555
Fe1G C1G 1_555 1_555
N1I Fe1 1_555 1_555
N1A N4A 1_555 1_555
N1H Fe1A 1_555 1_555
N2A Fe1A 1_555 1_555
N3A Co1 1_555 1_555
N3F Co1 1_555 1_555
N3G Co1 1_555 1_555
N4I B1 1_555 1_555
N4A C4A 1_555 1_555
N4H N1H 1_555 1_555
N5A N2A 1_555 1_555
C1A Fe1A 1_555 1_555
C1F N3F 1_555 1_555
C1G N3G 1_555 1_555
C1I Fe1 1_555 1_555
C1H Fe1A 1_555 1_555
C2A H1A 1_555 1_555
C3I H2I 1_555 1_555
C3A H2A 1_555 1_555
C3H H2H 1_555 1_555
C4I N4I 1_555 1_555
C4A C3A 1_555 1_555
C4H N4H 1_555 1_555
H3I C4I 1_555 1_555
H3A C4A 1_555 1_555
H3H C4H 1_555 1_555
C5A N2A 1_555 1_555
H4A C5A 1_555 1_555
C6I N1I 1_555 1_555
C6A N1A 1_555 1_555
C6H N1H 1_555 1_555
H5I C6I 1_555 1_555
H5A C6A 1_555 1_555
H5H C6H 1_555 1_555
C7A N5A 1_555 1_555
H6A C7A 1_555 1_555
B1A N4A 1_555 1_555
H7A B1A 1_555 1_555
C8A Fe1A 1_555 1_555
N6A C8A 1_555 1_555
N5 B1 1_555 1_555
C2 C5 1_555 1_555
C2 C7 1_555 1_555
C3 C6 1_555 1_555
N1I N4I 1_555 1_555
N3A C1A 1_555 1_555
N4H B1A 1_555 1_555
N5A B1A 1_555 1_555
C2A C5A 1_555 1_555
C2A C7A 1_555 1_555
C3I C4I 1_555 1_555
C3I C6I 1_555 1_555
C3A C6A 1_555 1_555
C3H C4H 1_555 1_555
C3H C6H 1_555 1_555

#END
