
#######################################################################
#
#                 Cambridge Crystallographic Data Centre
#                                CCDC 
#
#######################################################################
#
# If this CIF has been generated from an entry in the Cambridge 
# Structural Database, then it will include bibliographic, chemical, 
# crystal, experimental, refinement or atomic coordinate data resulting 
# from the CCDC's data processing and validation procedures.
#
#######################################################################

data_FUNDIB
_symmetry_cell_setting           monoclinic
_symmetry_space_group_name_H-M   'P 21/n'
_symmetry_Int_Tables_number      14
_space_group_name_Hall           '-P 2yn'
loop_
_symmetry_equiv_pos_site_id
_symmetry_equiv_pos_as_xyz
1 x,y,z
2 1/2-x,1/2+y,1/2-z
3 -x,-y,-z
4 1/2+x,1/2-y,1/2+z
_cell_length_a                   11.917(1)
_cell_length_b                   16.220(2)
_cell_length_c                   14.402(2)
_cell_angle_alpha                90
_cell_angle_beta                 100.24(1)
_cell_angle_gamma                90
_cell_volume                     2739.48
loop_
_atom_site_label
_atom_site_type_symbol
_atom_site_fract_x
_atom_site_fract_y
_atom_site_fract_z
Rh1 Rh 0.3371 -0.2200 -0.0956
Rh2 Rh 0.2537 -0.3554 -0.0997
O1 O 0.1859(4) -0.1741(3) -0.0743(4)
O2 O 0.3813(4) -0.2333(3) 0.0453(3)
O3 O 0.4847(4) -0.2740(3) -0.1145(4)
O4 O 0.2890(4) -0.2167(3) -0.2385(3)
O5 O 0.2054(4) -0.3416(3) -0.2417(3)
O6 O 0.4071(4) -0.4003(3) -0.1183(4)
O7 O 0.1073(4) -0.3013(3) -0.0774(4)
O8 O 0.3048(4) -0.3607(3) 0.0410(3)
C1 C 0.3547(7) -0.2990(5) 0.0807(6)
C2 C 0.2361(6) -0.2771(5) -0.2776(5)
C3 C 0.4847(7) -0.3505(5) -0.1232(6)
C4 C 0.1083(7) -0.2242(6) -0.0673(6)
C5 C 0.0032(8) -0.1866(7) -0.0363(8)
C6 C 0.2089(11) -0.2742(8) -0.3831(8)
C7 C 0.5975(10) -0.3863(8) -0.1411(12)
C8 C 0.3876(10) -0.3057(7) 0.1869(6)
F1 F 0.0172(5) -0.1847(4) 0.0554(4)
F2 F -0.0888(5) -0.2308(4) -0.0659(4)
F3 F -0.0191(5) -0.1140(4) -0.0691(5)
F4 F 0.4768(6) -0.2697(6) 0.2239(4)
F5 F 0.3781(9) -0.3735(4) 0.2217(4)
F6 F 0.3116(9) -0.2658(7) 0.2253(5)
F7 F 0.6798(6) -0.3402(5) -0.1324(8)
F8 F 0.5836(7) -0.4252(8) -0.2163(8)
F9 F 0.6331(8) -0.4413(7) -0.0807(9)
F10 F 0.1280(6) -0.3203(5) -0.4215(4)
F11 F 0.1610(11) -0.2048(6) -0.4113(5)
F12 F 0.2866(6) -0.2789(12) -0.4203(5)
O9 O 0.3312(5) 0.0200(3) -0.3926(4)
O10 O 0.4130(4) -0.0916(3) -0.0943(3)
N1 N 0.3881(6) -0.0079(4) -0.3143(4)
N2 N 0.4267(5) -0.0595(3) -0.1743(4)
C9 C 0.5109(7) -0.0289(5) -0.3031(5)
C10 C 0.5409(7) -0.0379(5) -0.1951(5)
C11 C 0.3424(7) -0.0332(4) -0.2411(6)
C12 C 0.5178(8) -0.1099(6) -0.3558(6)
C13 C 0.5748(8) 0.0375(6) -0.3458(6)
C14 C 0.6287(7) -0.1024(6) -0.1574(6)
C15 C 0.5716(8) 0.0436(6) -0.1433(6)
C16 C 0.2207(7) -0.0313(5) -0.2344(7)
O9A O 0.1688(5) -0.4800(3) -0.1074(4)
Rh2A Rh 0.2463 0.1446 -0.4003
loop_
_geom_bond_atom_site_label_1
_geom_bond_atom_site_label_2
_geom_bond_site_symmetry_1
_geom_bond_site_symmetry_2
Rh1 Rh2 1_555 1_555
Rh2 O5 1_555 1_555
O1 Rh1 1_555 1_555
O2 Rh1 1_555 1_555
O3 Rh1 1_555 1_555
O4 Rh1 1_555 1_555
O5 C2 1_555 1_555
O6 Rh2 1_555 1_555
O7 Rh2 1_555 1_555
O8 Rh2 1_555 1_555
C1 O2 1_555 1_555
C2 O4 1_555 1_555
C3 O3 1_555 1_555
C4 O1 1_555 1_555
C5 C4 1_555 1_555
C6 C2 1_555 1_555
C7 C3 1_555 1_555
C8 C1 1_555 1_555
F1 C5 1_555 1_555
F2 C5 1_555 1_555
F3 C5 1_555 1_555
F4 C8 1_555 1_555
F5 C8 1_555 1_555
F6 C8 1_555 1_555
F7 C7 1_555 1_555
F8 C7 1_555 1_555
F9 C7 1_555 1_555
F10 C6 1_555 1_555
F11 C6 1_555 1_555
F12 C6 1_555 1_555
O9 N1 1_555 1_555
O10 Rh1 1_555 1_555
N1 C9 1_555 1_555
N2 O10 1_555 1_555
C9 C10 1_555 1_555
C10 N2 1_555 1_555
C11 N1 1_555 1_555
C12 C9 1_555 1_555
C13 C9 1_555 1_555
C14 C10 1_555 1_555
C15 C10 1_555 1_555
C16 C11 1_555 1_555
O9A Rh2 1_555 1_555
Rh2A O9 1_555 1_555
O6 C3 1_555 1_555
O7 C4 1_555 1_555
O8 C1 1_555 1_555
N2 C11 1_555 1_555

#END
