
#######################################################################
#
#                 Cambridge Crystallographic Data Centre
#                                CCDC 
#
#######################################################################
#
# If this CIF has been generated from an entry in the Cambridge 
# Structural Database, then it will include bibliographic, chemical, 
# crystal, experimental, refinement or atomic coordinate data resulting 
# from the CCDC's data processing and validation procedures.
#
#######################################################################

data_FUNFUR
_symmetry_cell_setting           orthorhombic
_symmetry_space_group_name_H-M   'P b c a'
_symmetry_Int_Tables_number      61
_space_group_name_Hall           '-P 2ac 2ab'
loop_
_symmetry_equiv_pos_site_id
_symmetry_equiv_pos_as_xyz
1 x,y,z
2 1/2-x,-y,1/2+z
3 1/2+x,1/2-y,-z
4 -x,1/2+y,1/2-z
5 -x,-y,-z
6 1/2+x,y,1/2-z
7 1/2-x,1/2+y,z
8 x,1/2-y,1/2+z
_cell_length_a                   10.9941(10)
_cell_length_b                   20.2900(19)
_cell_length_c                   25.862(2)
_cell_angle_alpha                90
_cell_angle_beta                 90
_cell_angle_gamma                90
_cell_volume                     5769.04
loop_
_atom_site_label
_atom_site_type_symbol
_atom_site_fract_x
_atom_site_fract_y
_atom_site_fract_z
Co1 Co 1.15935(4) 0.69174(2) 1.01803(2)
C1 C 1.0286(4) 0.5786(2) 0.96444(17)
H1 H 1.0876 0.5507 0.9780
C2 C 0.9317(3) 0.66488(17) 0.94753(13)
H2 H 0.9054 0.7084 0.9462
C3 C 0.5343(3) 0.33794(18) 0.59798(14)
H3 H 0.5901 0.3133 0.5790
C4 C 0.3666(3) 0.37578(16) 0.62436(13)
H4 H 0.2843 0.3842 0.6291
C5 C 0.0000(5) 0.8120(3) 0.83448(19)
H5 H 0.0137 0.8073 0.8698
C6 C -0.0725(4) 0.8373(2) 0.76430(18)
H6 H -0.1237 0.8559 0.7396
C7 C 0.7700(3) 0.61327(16) 0.89300(12)
C8 C 0.7003(3) 0.66936(17) 0.88603(13)
H7 H 0.7236 0.7091 0.9009
C9 C 0.5949(3) 0.66555(16) 0.85650(12)
H8 H 0.5473 0.7030 0.8520
C10 C 0.5596(3) 0.60667(16) 0.83352(12)
C11 C 0.6331(3) 0.55170(17) 0.84041(14)
H9 H 0.6118 0.5120 0.8248
C12 C 0.7372(3) 0.55507(16) 0.86996(14)
H10 H 0.7854 0.5178 0.8743
C13 C 0.4516(3) 0.55192(17) 0.76386(13)
C14 C 0.3645(3) 0.50275(18) 0.76421(14)
H11 H 0.3049 0.5029 0.7897
C15 C 0.3642(3) 0.45362(18) 0.72751(14)
H12 H 0.3053 0.4207 0.7282
C16 C 0.4530(3) 0.45398(16) 0.68960(13)
C17 C 0.5394(3) 0.50282(18) 0.68778(13)
H13 H 0.5982 0.5027 0.6619
C18 C 0.5385(3) 0.55226(18) 0.72467(15)
H14 H 0.5960 0.5858 0.7233
C19 C 0.3580(3) 0.64847(17) 0.80374(13)
C20 C 0.3074(3) 0.6722(2) 0.84933(14)
H15 H 0.3382 0.6581 0.8809
C21 C 0.2119(3) 0.7165(2) 0.84826(15)
H16 H 0.1780 0.7314 0.8790
C22 C 0.1670(3) 0.73845(17) 0.80157(14)
C23 C 0.2171(3) 0.71592(18) 0.75631(13)
H17 H 0.1867 0.7308 0.7248
C24 C 0.3118(3) 0.67154(18) 0.75706(13)
H18 H 0.3452 0.6569 0.7261
C25 C 1.3655(3) 0.64142(17) 1.03282(14)
C26 C 1.6143(3) 0.69486(17) 1.01155(13)
C27 C 1.4792(3) 0.60174(16) 1.03976(13)
C28 C 1.4662(3) 0.53756(18) 1.05664(16)
H19 H 1.3887 0.5197 1.0600
C29 C 1.5662(4) 0.4996(2) 1.06856(18)
H20 H 1.5560 0.4567 1.0804
C30 C 1.6810(4) 0.5253(2) 1.06300(17)
H21 H 1.7486 0.5001 1.0718
C31 C 1.6961(3) 0.58854(19) 1.04438(16)
H22 H 1.7740 0.6052 1.0396
C32 C 1.5957(3) 0.62749(16) 1.03265(13)
N1 N 1.0289(2) 0.64385(14) 0.97276(11)
N2 N 0.9382(3) 0.55711(15) 0.93551(15)
N3 N 0.8776(2) 0.61470(13) 0.92451(11)
N4 N 0.4129(2) 0.33477(13) 0.58980(11)
N5 N 0.5669(2) 0.37870(16) 0.63491(13)
N6 N 0.4569(2) 0.40306(13) 0.65132(11)
N7 N -0.0874(4) 0.8484(2) 0.81481(16)
N8 N 0.0661(3) 0.78313(16) 0.79866(12)
N9 N 0.0184(3) 0.79892(17) 0.75150(14)
N10 N 0.4531(2) 0.60146(15) 0.80317(11)
O1 O 1.34744(19) 0.69168(11) 1.05972(9)
O2 O 1.2837(2) 0.61998(13) 1.00293(11)
O3 O 1.7119(2) 0.72561(13) 1.02279(10)
O4 O 1.5377(2) 0.72059(12) 0.98250(9)
Co1A Co 0.34065(4) 0.30826(2) 0.51803(2)
Co1B Co 1.65935(4) 0.80826(2) 0.98197(2)
N4A N 1.0871(2) 0.66523(13) 1.08980(11)
O3B O 1.2119(2) 0.77439(13) 0.97721(10)
O4B O 1.0377(2) 0.77941(12) 1.01750(9)
loop_
_geom_bond_atom_site_label_1
_geom_bond_atom_site_label_2
_geom_bond_site_symmetry_1
_geom_bond_site_symmetry_2
Co1 N1 1_555 1_555
C1 H1 1_555 1_555
C2 H2 1_555 1_555
C3 H3 1_555 1_555
C4 H4 1_555 1_555
C5 H5 1_555 1_555
C6 H6 1_555 1_555
C7 C8 1_555 1_555
C8 H7 1_555 1_555
C9 C8 1_555 1_555
H8 C9 1_555 1_555
C10 C9 1_555 1_555
C11 C10 1_555 1_555
H9 C11 1_555 1_555
C12 C7 1_555 1_555
H10 C12 1_555 1_555
C13 C14 1_555 1_555
C14 H11 1_555 1_555
C15 C14 1_555 1_555
H12 C15 1_555 1_555
C16 C15 1_555 1_555
C17 C16 1_555 1_555
H13 C17 1_555 1_555
C18 C13 1_555 1_555
H14 C18 1_555 1_555
C19 C20 1_555 1_555
C20 H15 1_555 1_555
C21 C20 1_555 1_555
H16 C21 1_555 1_555
C22 C21 1_555 1_555
C23 C22 1_555 1_555
H17 C23 1_555 1_555
C24 C19 1_555 1_555
H18 C24 1_555 1_555
C25 C27 1_555 1_555
C26 C32 1_555 1_555
C27 C28 1_555 1_555
C28 H19 1_555 1_555
C29 C28 1_555 1_555
H20 C29 1_555 1_555
C30 C29 1_555 1_555
H21 C30 1_555 1_555
C31 C30 1_555 1_555
H22 C31 1_555 1_555
C32 C27 1_555 1_555
N1 C1 1_555 1_555
N2 C1 1_555 1_555
N3 C2 1_555 1_555
N4 C3 1_555 1_555
N5 C3 1_555 1_555
N6 C4 1_555 1_555
N7 C5 1_555 1_555
N8 C5 1_555 1_555
N9 C6 1_555 1_555
N10 C10 1_555 1_555
O1 Co1 1_555 1_555
O2 Co1 1_555 1_555
O3 C26 1_555 1_555
O4 C26 1_555 1_555
Co1A N4 1_555 1_555
Co1B O3 1_555 1_555
N4A Co1 1_555 1_555
O3B Co1 1_555 1_555
O4B Co1 1_555 1_555
C2 N1 1_555 1_555
C4 N4 1_555 1_555
C6 N7 1_555 1_555
C7 N3 1_555 1_555
C11 C12 1_555 1_555
C13 N10 1_555 1_555
C16 N6 1_555 1_555
C17 C18 1_555 1_555
C19 N10 1_555 1_555
C22 N8 1_555 1_555
C23 C24 1_555 1_555
C25 O1 1_555 1_555
C25 O2 1_555 1_555
C31 C32 1_555 1_555
N2 N3 1_555 1_555
N5 N6 1_555 1_555
N8 N9 1_555 1_555
O4 Co1B 1_555 1_555

#END
