
#######################################################################
#
#                 Cambridge Crystallographic Data Centre
#                                CCDC 
#
#######################################################################
#
# If this CIF has been generated from an entry in the Cambridge 
# Structural Database, then it will include bibliographic, chemical, 
# crystal, experimental, refinement or atomic coordinate data resulting 
# from the CCDC's data processing and validation procedures.
#
#######################################################################

data_FUNGEC
_symmetry_cell_setting           triclinic
_symmetry_space_group_name_H-M   'P 1'
_symmetry_Int_Tables_number      1
_space_group_name_Hall           'P 1'
loop_
_symmetry_equiv_pos_site_id
_symmetry_equiv_pos_as_xyz
1 x,y,z
_cell_length_a                   11.8012(10)
_cell_length_b                   15.9766(13)
_cell_length_c                   16.0411(13)
_cell_angle_alpha                111.8810(10)
_cell_angle_beta                 107.7390(10)
_cell_angle_gamma                94.2350(10)
_cell_volume                     2612.34
loop_
_atom_site_label
_atom_site_type_symbol
_atom_site_fract_x
_atom_site_fract_y
_atom_site_fract_z
Co1 Co 0.85110(6) 1.34437(5) 0.97979(5)
N1 N 0.8212(5) 1.2202(4) 0.8545(4)
O1 O 0.6909(4) 1.3749(4) 0.9127(4)
O2 O 0.7613(5) 1.2782(4) 1.0399(4)
O3 O 1.0135(5) 1.3160(4) 1.0416(4)
N2 N 0.9274(5) 1.4226(4) 0.9200(4)
N3 N 0.8940(5) 1.4633(4) 1.1144(4)
C1 C 0.8389(6) 1.1395(4) 0.8509(5)
C2 C 0.7844(6) 1.2061(5) 0.7594(5)
C3 C 0.5849(6) 1.3527(5) 0.9063(5)
H1 H 0.6880 1.2541 1.0018
H2 H 0.7972 1.2364 1.0486
H3 H 1.0496 1.3581 1.0980
H4 H 1.0576 1.3138 1.0080
H5 H 0.8650 1.1255 0.9055
N4 N 0.8155(5) 1.0795(4) 0.7611(4)
H6 H 0.7641 1.2531 0.7382
N5 N 0.7799(6) 1.1211(4) 0.7002(4)
C4 C 0.4890(6) 1.3807(5) 0.8410(5)
O4 O 0.5510(4) 1.3072(4) 0.9477(4)
C5 C 0.8251(6) 0.9848(4) 0.7252(5)
C6 C 0.3739(5) 1.3817(5) 0.8496(5)
C7 C 0.5098(6) 1.4017(5) 0.7703(5)
C8 C 0.9004(6) 0.9535(4) 0.7863(5)
C9 C 0.7605(6) 0.9265(5) 0.6286(5)
H7 H 0.3574 1.3652 0.8965
C10 C 0.2831(6) 1.4069(5) 0.7888(5)
C11 C 0.4196(6) 1.4252(5) 0.7095(5)
H8 H 0.5867 1.4001 0.7631
H9 H 0.9441 0.9938 0.8519
C12 C 0.9109(6) 0.8623(5) 0.7502(5)
C13 C 0.7706(6) 0.8357(5) 0.5951(5)
H10 H 0.7104 0.9492 0.5867
H11 H 0.2059 1.4091 0.7952
C14 C 0.3084(6) 1.4284(5) 0.7192(5)
H12 H 0.4351 1.4392 0.6608
H13 H 0.9640 0.8405 0.7914
C15 C 0.8460(6) 0.8021(5) 0.6554(5)
H14 H 0.7256 0.7952 0.5298
O5 O 0.2197(4) 1.4575(4) 0.6652(4)
N6 N 0.8547(5) 0.7086(4) 0.6172(4)
C16 C 0.1833(6) 1.4151(5) 0.5667(5)
C17 C 0.8809(6) 0.6603(4) 0.6771(5)
C18 C 0.8705(6) 0.6696(4) 0.5275(5)
C19 C 0.1465(6) 1.4698(5) 0.5176(5)
C20 C 0.1789(6) 1.3220(6) 0.5182(5)
C21 C 0.8156(6) 0.6638(4) 0.7382(5)
C22 C 0.9691(6) 0.6076(5) 0.6749(5)
C23 C 0.9588(6) 0.7141(5) 0.5084(5)
C24 C 0.7951(6) 0.5867(5) 0.4569(5)
C25 C 0.1079(6) 1.4293(5) 0.4171(5)
H15 H 0.1476 1.5331 0.5515
H16 H 0.2011 1.2848 0.5525
C26 C 0.1410(6) 1.2838(5) 0.4172(5)
H17 H 0.7553 0.7000 0.7410
C27 C 0.8394(6) 0.6147(4) 0.7939(4)
C28 C 0.9908(6) 0.5561(5) 0.7298(5)
H18 H 1.0154 0.6065 0.6355
H19 H 1.0088 0.7720 0.5555
C29 C 0.9739(7) 0.6738(5) 0.4206(5)
C30 C 0.8095(6) 0.5470(5) 0.3679(5)
H20 H 0.7334 0.5567 0.4690
C31 C 0.1087(6) 1.3377(5) 0.3677(5)
H21 H 0.0807 1.4653 0.3823
H22 H 0.1376 1.2201 0.3829
H23 H 0.7966 0.6178 0.8361
C32 C 0.9253(6) 0.5609(5) 0.7885(5)
H24 H 1.0495 0.5186 0.7266
H25 H 1.0365 0.7033 0.4089
C33 C 0.9004(6) 0.5928(5) 0.3514(5)
H26 H 0.7585 0.4899 0.3196
C34 C 0.0787(6) 1.2992(5) 0.2608(5)
N7 N 0.9465(5) 0.5070(4) 0.8429(4)
N8 N 0.9132(5) 0.5514(4) 0.2599(4)
O6 O 0.0591(4) 1.2126(3) 0.2153(3)
O7 O 0.0803(5) 1.3553(4) 0.2240(4)
C35 C 0.8759(6) 0.4772(4) 0.8820(5)
N9 N 1.0476(5) 0.4693(4) 0.8557(5)
C36 C 0.8607(6) 0.4714(5) 0.1867(5)
N10 N 0.9860(8) 0.6014(5) 0.2355(6)
H27 H 0.8000 0.4931 0.8824
C37 C 1.0306(6) 0.4193(5) 0.9009(5)
H28 H 0.8052 0.4250 0.1865
C38 C 0.9710(8) 0.5444(6) 0.1478(6)
H29 H 1.0864 0.3837 0.9188
H30 H 1.0115 0.5592 0.1106
N2_2 N 0.9274(5) 0.4226(4) 0.9200(4)
N3_2 N 0.8940(5) 0.4633(4) 0.1144(4)
Co1_2 Co 0.85110(6) 0.34437(5) 0.97979(5)
Co1_3 Co 0.85110(6) 0.34437(5) -0.02021(5)
Co2 Co 0.37989(5) 0.13783(4) 0.17979(4)
C39 C 0.4099(5) 0.2830(4) 0.0981(5)
H31 H 0.3265 0.2672 0.0581
C40 C 0.5814(5) 0.2813(4) 0.1848(5)
H32 H 0.6448 0.2607 0.2199
C41 C -0.1970(9) 0.8008(8) 0.1887(6)
H33 H -0.2365 0.8313 0.2313
N11 N -0.2504(6) 0.7520(8) 0.0871(6)
C42 C -0.1558(8) 0.7274(7) 0.0513(7)
H34 H -0.1640 0.6897 -0.0130
C43 C 0.6371(7) 0.9424(5) -0.0708(6)
H35 H 0.6456 0.9880 -0.0095
C44 C 0.6427(6) 0.8732(5) -0.2070(6)
H36 H 0.6567 0.8625 -0.2650
C45 C 0.4561(6) 0.4427(4) 0.1111(5)
C46 C 0.5444(6) 0.5047(5) 0.1104(5)
H37 H 0.6249 0.4948 0.1203
C47 C 0.5140(6) 0.5801(5) 0.0951(5)
H38 H 0.5744 0.6236 0.0961
C48 C 0.3964(6) 0.5938(5) 0.0783(5)
C49 C 0.3076(6) 0.5299(5) 0.0745(5)
H39 H 0.2254 0.5367 0.0583
C50 C 0.3396(6) 0.4553(4) 0.0948(5)
H40 H 0.2804 0.4134 0.0971
C51 C 0.2625(6) 0.7032(5) 0.0803(5)
C52 C 0.1722(7) 0.7218(5) 0.0114(6)
H41 H 0.1814 0.7163 -0.0471
C53 C 0.0709(8) 0.7481(6) 0.0309(7)
H42 H 0.0113 0.7633 -0.0132
C54 C 0.0557(8) 0.7524(6) 0.1162(7)
C55 C 0.1419(7) 0.7372(6) 0.1811(6)
H43 H 0.1318 0.7424 0.2392
C56 C 0.2439(7) 0.7142(5) 0.1655(6)
H44 H 0.3050 0.7051 0.2140
C57 C 0.4248(6) 0.7165(5) 0.0215(5)
C58 C 0.4379(7) 0.6670(5) -0.0649(5)
H45 H 0.4082 0.6021 -0.0962
C59 C 0.4935(6) 0.7106(5) -0.1066(5)
H46 H 0.5054 0.6761 -0.1648
C60 C 0.5315(6) 0.8054(4) -0.0617(5)
C61 C 0.5171(6) 0.8562(5) 0.0238(5)
H47 H 0.5441 0.9214 0.0542
C62 C 0.4628(6) 0.8109(5) 0.0646(5)
H48 H 0.4514 0.8453 0.1230
C63 C 0.4690(7) 0.2846(5) 0.4015(5)
H49 H 0.5026 0.2415 0.4241
C64 C 0.3745(6) 0.3399(5) 0.3093(5)
H50 H 0.3259 0.3474 0.2543
C65 C 0.3615(6) 1.0082(4) 0.9719(5)
H51 H 0.4227 1.0497 0.9710
C66 C 0.2377(6) 0.9453(5) 1.0115(5)
H52 H 0.1930 0.9358 1.0486
C67 C 0.1875(6) 1.0446(5) 0.2405(5)
H53 H 0.1251 1.0700 0.2115
C68 C 0.3584(6) 1.0123(5) 0.2877(5)
H54 H 0.4413 1.0079 0.3008
C69 C 0.4039(6) 0.4987(4) 0.4332(5)
C70 C 0.3258(7) 0.5288(5) 0.3703(5)
H55 H 0.2853 0.4885 0.3043
C71 C 0.3081(7) 0.6195(5) 0.4061(5)
H56 H 0.2538 0.6404 0.3646
C72 C 0.3699(6) 0.6786(5) 0.5020(5)
C73 C 0.4482(7) 0.6483(5) 0.5646(5)
H57 H 0.4890 0.6884 0.6306
C74 C 0.4650(7) 0.5571(5) 0.5276(5)
H58 H 0.5195 0.5360 0.5687
C75 C 0.3324(6) 0.8073(4) 0.6283(5)
C76 C 0.3743(6) 0.9007(4) 0.6852(5)
H59 H 0.4136 0.9379 0.6634
C77 C 0.3605(6) 0.9410(4) 0.7726(5)
H60 H 0.3883 1.0057 0.8102
C78 C 0.3067(6) 0.8875(4) 0.8047(5)
C79 C 0.2632(6) 0.7933(4) 0.7500(5)
H61 H 0.2250 0.7566 0.7728
C80 C 0.2764(7) 0.7539(5) 0.6615(5)
H62 H 0.2466 0.6896 0.6232
C81 C 0.3027(6) 0.9231(4) 0.3735(5)
C82 C 0.2240(6) 0.9198(5) 0.4221(5)
H63 H 0.1604 0.9530 0.4192
C83 C 0.2401(6) 0.8675(5) 0.4744(5)
H64 H 0.1852 0.8634 0.5061
C84 C 0.3340(6) 0.8206(4) 0.4822(5)
C85 C 0.4122(6) 0.8256(5) 0.4341(5)
H65 H 0.4770 0.7936 0.4385
C86 C 0.3973(6) 0.8762(5) 0.3803(5)
H66 H 0.4515 0.8792 0.3477
C87 C 0.6312(5) 0.0946(4) 0.2281(5)
C88 C 1.1419(6) 0.1737(5) 0.8962(5)
C89 C 0.7335(6) 0.0820(5) 0.3025(5)
C90 C 0.8344(6) 0.0567(5) 0.2820(5)
H67 H 0.8389 0.0484 0.2213
C91 C 0.9288(6) 0.0433(5) 0.3481(5)
H68 H 0.9992 0.0285 0.3339
C92 C 0.9214(6) 0.0514(5) 0.4338(5)
C93 C 0.8196(6) 0.0751(5) 0.4575(5)
H69 H 0.8135 0.0801 0.5169
C94 C 0.7285(6) 0.0907(5) 0.3900(5)
H70 H 0.6594 0.1082 0.4048
C95 C 1.0438(6) 0.0666(5) 0.5914(5)
C96 C 1.0727(6) 0.0089(6) 0.6372(5)
H71 H 1.0699 -0.0544 0.6014
C97 C 1.1057(6) 0.0443(5) 0.7351(5)
H72 H 1.1237 0.0043 0.7666
C98 C 1.1134(6) 0.1351(5) 0.7890(5)
C99 C 1.0890(6) 0.1938(6) 0.7412(5)
H73 H 1.0975 0.2580 0.7772
C100 C 1.0530(6) 0.1581(6) 0.6427(6)
H74 H 1.0346 0.1974 0.6103
N12 N 0.4661(4) 0.2291(4) 0.1322(4)
N13 N 0.5963(5) 0.3628(4) 0.1824(4)
N14 N 0.4847(4) 0.3635(3) 0.1267(4)
N15 N -0.0545(8) 0.7683(7) 0.1265(7)
N16 N -0.0818(9) 0.7951(8) 0.2119(7)
N17 N 0.5870(5) 0.8508(4) -0.1051(4)
N18 N 0.5942(5) 0.8057(4) -0.1928(4)
N19 N 0.6720(6) 0.9585(5) -0.1355(5)
N20 N 0.3616(5) 0.6715(4) 0.0627(4)
N21 N 0.4081(5) 0.2620(4) 0.3085(4)
N22 N 0.4792(7) 0.3698(5) 0.4591(5)
N23 N 0.4188(5) 0.4058(4) 0.3985(4)
N24 N 0.3284(5) 1.0201(4) 1.0469(4)
N25 N 0.2153(5) 0.8861(4) 0.9214(4)
N26 N 0.2963(5) 0.9294(4) 0.8982(4)
N27 N 0.3017(5) 1.0580(4) 0.2389(4)
N28 N 0.1703(5) 0.9932(4) 0.2857(5)
N29 N 0.2818(4) 0.9741(4) 0.3151(4)
N30 N 0.3469(6) 0.7685(4) 0.5381(4)
O8 O 0.5414(4) 0.1164(3) 0.2529(3)
O9 O 0.6409(4) 0.0837(3) 0.1497(3)
O10 O 1.1560(4) 0.2580(3) 0.9426(4)
O11 O 1.1485(5) 0.1148(3) 0.9316(3)
O12 O 1.0150(5) 0.0275(5) 0.4915(4)
O13 O 0.2131(4) 0.1687(3) 0.1192(3)
H75 H 0.1485 0.1352 0.1287
H76 H 0.1948 0.1499 0.0502
Co2_2 Co 0.37989(5) 1.13783(4) 0.17979(4)
Co2_3 Co 0.37989(5) 1.13783(4) 1.17979(4)
N24_2 N 0.3284(5) 0.0201(4) 0.0469(4)
N27_2 N 0.3017(5) 0.0580(4) 0.2389(4)
C101 C 0.4129(19) 0.1365(10) 0.6559(16)
H77 H 0.4511 0.1958 0.7116
H78 H 0.4341 0.0862 0.6744
H79 H 0.3243 0.1300 0.6334
C102 C 0.4605(17) 0.1325(10) 0.5712(10)
N31 N 0.4932(11) 0.1346(10) 0.5031(10)
C103 C 0.8292(14) 0.3377(11) 0.4894(11)
H80 H 0.7893 0.3801 0.4654
H81 H 0.7993 0.2747 0.4389
H82 H 0.9175 0.3554 0.5074
C104 C 0.8043(9) 0.3416(7) 0.5659(7)
N32 N 0.7892(15) 0.3405(9) 0.6367(11)
O14 O 0.8209(5) 0.1397(4) 0.0876(4)
H83 H 0.7667 0.1231 0.1064
H84 H 0.8835 0.1187 0.1057
loop_
_geom_bond_atom_site_label_1
_geom_bond_atom_site_label_2
_geom_bond_site_symmetry_1
_geom_bond_site_symmetry_2
Co1 N1 1_555 1_555
N1 C1 1_555 1_555
O1 Co1 1_555 1_555
O2 Co1 1_555 1_555
O3 Co1 1_555 1_555
N2 Co1 1_555 1_555
N3 Co1 1_555 1_555
C1 H5 1_555 1_555
C2 N1 1_555 1_555
C3 O1 1_555 1_555
H1 O2 1_555 1_555
H2 O2 1_555 1_555
H3 O3 1_555 1_555
H4 O3 1_555 1_555
N4 C1 1_555 1_555
H6 C2 1_555 1_555
N5 C2 1_555 1_555
C4 C3 1_555 1_555
O4 C3 1_555 1_555
C5 N4 1_555 1_555
C6 C4 1_555 1_555
C7 C4 1_555 1_555
C8 C5 1_555 1_555
C9 C5 1_555 1_555
H7 C6 1_555 1_555
C10 C6 1_555 1_555
C11 C7 1_555 1_555
H8 C7 1_555 1_555
H9 C8 1_555 1_555
C12 C8 1_555 1_555
C13 C9 1_555 1_555
H10 C9 1_555 1_555
H11 C10 1_555 1_555
C14 C10 1_555 1_555
H12 C11 1_555 1_555
H13 C12 1_555 1_555
C15 C12 1_555 1_555
H14 C13 1_555 1_555
O5 C14 1_555 1_555
N6 C15 1_555 1_555
C16 O5 1_555 1_555
C17 N6 1_555 1_555
C18 N6 1_555 1_555
C19 C16 1_555 1_555
C20 C16 1_555 1_555
C21 C17 1_555 1_555
C22 C17 1_555 1_555
C23 C18 1_555 1_555
C24 C18 1_555 1_555
C25 C19 1_555 1_555
H15 C19 1_555 1_555
H16 C20 1_555 1_555
C26 C20 1_555 1_555
H17 C21 1_555 1_555
C27 C21 1_555 1_555
C28 C22 1_555 1_555
H18 C22 1_555 1_555
H19 C23 1_555 1_555
C29 C23 1_555 1_555
C30 C24 1_555 1_555
H20 C24 1_555 1_555
C31 C25 1_555 1_555
H21 C25 1_555 1_555
H22 C26 1_555 1_555
H23 C27 1_555 1_555
C32 C27 1_555 1_555
H24 C28 1_555 1_555
H25 C29 1_555 1_555
C33 C29 1_555 1_555
H26 C30 1_555 1_555
C34 C31 1_555 1_555
N7 C32 1_555 1_555
N8 C33 1_555 1_555
O6 C34 1_555 1_555
O7 C34 1_555 1_555
C35 N7 1_555 1_555
N9 N7 1_555 1_555
C36 N8 1_555 1_555
N10 N8 1_555 1_555
H27 C35 1_555 1_555
C37 N9 1_555 1_555
H28 C36 1_555 1_555
C38 N10 1_555 1_555
H29 C37 1_555 1_555
H30 C38 1_555 1_555
Co2 N12 1_555 1_555
C39 H31 1_555 1_555
C40 H32 1_555 1_555
C41 H33 1_555 1_555
N11 C41 1_555 1_555
C42 N11 1_555 1_555
H34 C42 1_555 1_555
C43 H35 1_555 1_555
C44 H36 1_555 1_555
C45 C46 1_555 1_555
C46 H37 1_555 1_555
C47 C46 1_555 1_555
H38 C47 1_555 1_555
C48 C47 1_555 1_555
C49 C48 1_555 1_555
H39 C49 1_555 1_555
C50 C45 1_555 1_555
H40 C50 1_555 1_555
C51 C52 1_555 1_555
C52 H41 1_555 1_555
C53 C52 1_555 1_555
H42 C53 1_555 1_555
C54 C53 1_555 1_555
C55 C54 1_555 1_555
H43 C55 1_555 1_555
C56 C51 1_555 1_555
H44 C56 1_555 1_555
C57 C58 1_555 1_555
C58 H45 1_555 1_555
C59 C58 1_555 1_555
H46 C59 1_555 1_555
C60 C59 1_555 1_555
C61 C60 1_555 1_555
H47 C61 1_555 1_555
C62 C57 1_555 1_555
H48 C62 1_555 1_555
C63 H49 1_555 1_555
C64 H50 1_555 1_555
C65 H51 1_555 1_555
C66 H52 1_555 1_555
C67 H53 1_555 1_555
C68 H54 1_555 1_555
C69 C70 1_555 1_555
C70 H55 1_555 1_555
C71 C70 1_555 1_555
H56 C71 1_555 1_555
C72 C71 1_555 1_555
C73 C72 1_555 1_555
H57 C73 1_555 1_555
C74 C69 1_555 1_555
H58 C74 1_555 1_555
C75 C76 1_555 1_555
C76 H59 1_555 1_555
C77 C76 1_555 1_555
H60 C77 1_555 1_555
C78 C77 1_555 1_555
C79 C78 1_555 1_555
H61 C79 1_555 1_555
C80 C75 1_555 1_555
H62 C80 1_555 1_555
C81 C82 1_555 1_555
C82 H63 1_555 1_555
C83 C82 1_555 1_555
H64 C83 1_555 1_555
C84 C83 1_555 1_555
C85 C84 1_555 1_555
H65 C85 1_555 1_555
C86 C81 1_555 1_555
H66 C86 1_555 1_555
C87 C89 1_555 1_555
C88 C98 1_555 1_555
C89 C90 1_555 1_555
C90 H67 1_555 1_555
C91 C90 1_555 1_555
H68 C91 1_555 1_555
C92 C91 1_555 1_555
C93 C92 1_555 1_555
H69 C93 1_555 1_555
C94 C89 1_555 1_555
H70 C94 1_555 1_555
C95 C96 1_555 1_555
C96 H71 1_555 1_555
C97 C96 1_555 1_555
H72 C97 1_555 1_555
C98 C97 1_555 1_555
C99 C98 1_555 1_555
H73 C99 1_555 1_555
C100 C95 1_555 1_555
H74 C100 1_555 1_555
N12 C39 1_555 1_555
N13 C40 1_555 1_555
N14 C39 1_555 1_555
N15 C42 1_555 1_555
N16 C41 1_555 1_555
N17 C43 1_555 1_555
N18 C44 1_555 1_555
N19 C43 1_555 1_555
N20 C48 1_555 1_555
N21 Co2 1_555 1_555
N22 C63 1_555 1_555
N23 C64 1_555 1_555
N24 C65 1_555 1_555
N25 C66 1_555 1_555
N26 C65 1_555 1_555
N27 C67 1_555 1_555
N28 C67 1_555 1_555
N29 C68 1_555 1_555
N30 C72 1_555 1_555
O8 Co2 1_555 1_555
O9 C87 1_555 1_555
O10 C88 1_555 1_555
O11 C88 1_555 1_555
O12 C92 1_555 1_555
O13 Co2 1_555 1_555
H75 O13 1_555 1_555
H76 O13 1_555 1_555
C101 H77 1_555 1_555
H78 C101 1_555 1_555
H79 C101 1_555 1_555
C102 C101 1_555 1_555
N31 C102 1_555 1_555
C103 H80 1_555 1_555
H81 C103 1_555 1_555
H82 C103 1_555 1_555
C104 C103 1_555 1_555
N32 C104 1_555 1_555
O14 H83 1_555 1_555
H84 O14 1_555 1_555
N2_2 C35 1_555 1_555
N3_2 C36 1_555 1_555
Co1_2 N2_2 1_555 1_555
Co1_3 N3_2 1_555 1_555
Co2_2 N27 1_555 1_555
Co2_3 N24 1_555 1_555
N24_2 Co2 1_555 1_555
N27_2 Co2 1_555 1_555
N4 N5 1_555 1_555
C11 C14 1_555 1_555
C13 C15 1_555 1_555
C26 C31 1_555 1_555
C28 C32 1_555 1_555
C30 C33 1_555 1_555
C37 N2_2 1_555 1_555
C38 N3_2 1_555 1_555
C40 N12 1_555 1_555
C44 N19 1_555 1_555
C45 N14 1_555 1_555
C49 C50 1_555 1_555
C51 N20 1_555 1_555
C54 N15 1_555 1_555
C55 C56 1_555 1_555
C57 N20 1_555 1_555
C60 N17 1_555 1_555
C61 C62 1_555 1_555
C63 N21 1_555 1_555
C64 N21 1_555 1_555
C66 N24 1_555 1_555
C68 N27 1_555 1_555
C69 N23 1_555 1_555
C73 C74 1_555 1_555
C75 N30 1_555 1_555
C78 N26 1_555 1_555
C79 C80 1_555 1_555
C81 N29 1_555 1_555
C84 N30 1_555 1_555
C85 C86 1_555 1_555
C87 O8 1_555 1_555
C93 C94 1_555 1_555
C95 O12 1_555 1_555
C99 C100 1_555 1_555
N13 N14 1_555 1_555
N15 N16 1_555 1_555
N17 N18 1_555 1_555
N22 N23 1_555 1_555
N25 N26 1_555 1_555
N28 N29 1_555 1_555

#END
