
#######################################################################
#
#                 Cambridge Crystallographic Data Centre
#                                CCDC 
#
#######################################################################
#
# If this CIF has been generated from an entry in the Cambridge 
# Structural Database, then it will include bibliographic, chemical, 
# crystal, experimental, refinement or atomic coordinate data resulting 
# from the CCDC's data processing and validation procedures.
#
#######################################################################

data_FUNKUW
_symmetry_cell_setting           monoclinic
_symmetry_space_group_name_H-M   'P 21/n'
_symmetry_Int_Tables_number      14
_space_group_name_Hall           '-P 2yn'
loop_
_symmetry_equiv_pos_site_id
_symmetry_equiv_pos_as_xyz
1 x,y,z
2 1/2-x,1/2+y,1/2-z
3 -x,-y,-z
4 1/2+x,1/2-y,1/2+z
_cell_length_a                   9.3342(7)
_cell_length_b                   16.2033(13)
_cell_length_c                   19.0664(13)
_cell_angle_alpha                90
_cell_angle_beta                 101.826(2)
_cell_angle_gamma                90
_cell_volume                     2822.49
loop_
_atom_site_label
_atom_site_type_symbol
_atom_site_fract_x
_atom_site_fract_y
_atom_site_fract_z
Zn1 Zn 0.07968(2) 0.496849(14) 0.441141(12)
O1 O 0.06483(16) 0.40784(9) 0.58586(8)
O2 O 0.18725(16) 0.40017(9) 0.49659(8)
O3 O 1.28696(15) 0.06995(9) 0.98608(8)
O4 O 1.40861(15) 0.07786(9) 0.89668(8)
N1 N 0.18286(18) 0.50590(10) 0.35854(9)
C1 C 0.1686(2) 0.38336(13) 0.55864(12)
C2 C 0.2855(2) 0.33431(13) 0.60598(12)
C3 C 0.2812(2) 0.32127(14) 0.67768(12)
H1 H 0.1977 0.3378 0.6955
C4 C 0.3985(2) 0.28417(15) 0.72316(13)
H2 H 0.3938 0.2750 0.7719
C5 C 0.5229(2) 0.26019(14) 0.69885(12)
C6 C 0.5228(2) 0.26931(14) 0.62600(12)
H3 H 0.6039 0.2499 0.6076
C7 C 0.4062(2) 0.30624(14) 0.58024(12)
H4 H 0.4084 0.3125 0.5309
C8 C 0.6504(3) 0.22898(14) 0.75068(13)
H5 H 0.6342 0.2066 0.7945
C9 C 0.7877(3) 0.23002(14) 0.74018(13)
H6 H 0.8026 0.2536 0.6966
C10 C 0.9176(2) 0.19824(14) 0.78961(12)
C11 C 0.9183(3) 0.17865(15) 0.86136(12)
H7 H 0.8337 0.1886 0.8805
C12 C 1.0416(2) 0.14495(15) 0.90419(12)
H8 H 1.0403 0.1312 0.9525
C13 C 1.1684(2) 0.13065(13) 0.87779(12)
C14 C 1.1693(2) 0.15172(15) 0.80729(12)
H9 H 1.2549 0.1430 0.7886
C15 C 1.0456(2) 0.18545(15) 0.76419(13)
H10 H 1.0481 0.2002 0.7162
C16 C 1.2985(2) 0.09032(12) 0.92386(11)
C17 C 0.3238(2) 0.52667(14) 0.36725(12)
H11 H 0.3772 0.5376 0.4143
C18 C 0.3950(2) 0.53288(14) 0.31128(12)
H12 H 0.4952 0.5485 0.3200
C19 C 0.3206(2) 0.51630(12) 0.24181(11)
C20 C 0.1727(2) 0.49529(15) 0.23304(11)
H13 H 0.1164 0.4842 0.1866
C21 C 0.1095(2) 0.49082(14) 0.29157(11)
H14 H 0.0089 0.4764 0.2845
C22 C 0.3963(2) 0.52099(13) 0.18223(11)
H15 H 0.4912 0.5450 0.1915
C23 C 0.3439(2) 0.49452(13) 0.11612(11)
H16 H 0.2483 0.4714 0.1063
C24 C 0.4232(2) 0.49841(13) 0.05681(10)
C25 C 0.4458(2) 0.42494(13) 0.02156(11)
C26 C 0.5244(2) 0.42603(13) -0.03570(11)
C27 C 0.5515(2) 0.34853(13) -0.06668(11)
H17 H 0.6062 0.3476 -0.1035
C28 C 0.5012(2) 0.27642(14) -0.04497(12)
H18 H 0.5198 0.2262 -0.0671
C29 C 0.4210(2) 0.27553(14) 0.01057(12)
H19 H 0.3849 0.2249 0.0252
C30 C 0.3960(2) 0.34719(13) 0.04272(11)
H20 H 0.3437 0.3457 0.0805
N1B N 0.81714(18) 0.49410(10) -0.35854(9)
C17B C 0.6762(2) 0.47333(14) -0.36725(12)
H11B H 0.6228 0.4624 -0.4143
C18B C 0.6050(2) 0.46712(14) -0.31128(12)
H12B H 0.5048 0.4515 -0.3200
C19B C 0.6794(2) 0.48370(12) -0.24181(11)
C20B C 0.8273(2) 0.50471(15) -0.23304(11)
H13B H 0.8836 0.5158 -0.1866
C21B C 0.8905(2) 0.50918(14) -0.29157(11)
H14B H 0.9911 0.5236 -0.2845
C22B C 0.6037(2) 0.47901(13) -0.18223(11)
H15B H 0.5088 0.4550 -0.1915
C23B C 0.6561(2) 0.50548(13) -0.11612(11)
H16B H 0.7517 0.5286 -0.1063
C24B C 0.5768(2) 0.50159(13) -0.05681(10)
C25B C 0.5542(2) 0.57506(13) -0.02156(11)
C26B C 0.4756(2) 0.57397(13) 0.03570(11)
C27B C 0.4485(2) 0.65147(13) 0.06668(11)
H17B H 0.3938 0.6524 0.1035
C28B C 0.4988(2) 0.72358(14) 0.04497(12)
H18B H 0.4802 0.7738 0.0671
C29B C 0.5790(2) 0.72447(14) -0.01057(12)
H19B H 0.6151 0.7751 -0.0252
C30B C 0.6040(2) 0.65281(13) -0.04272(11)
H20B H 0.6563 0.6543 -0.0805
Zn1B Zn -0.07968(2) 0.503151(14) 0.558859(12)
O1B O -0.06483(16) 0.59216(9) 0.41414(8)
O2B O -0.18725(16) 0.59983(9) 0.50341(8)
O3B O -1.28696(15) 0.93005(9) 0.01392(8)
O4B O -1.40861(15) 0.92214(9) 0.10332(8)
C1B C -0.1686(2) 0.61664(13) 0.44136(12)
C2B C -0.2855(2) 0.66569(13) 0.39402(12)
C3B C -0.2812(2) 0.67873(14) 0.32232(12)
H1B H -0.1977 0.6622 0.3045
C4B C -0.3985(2) 0.71583(15) 0.27684(13)
H2B H -0.3938 0.7250 0.2281
C5B C -0.5229(2) 0.73981(14) 0.30115(12)
C6B C -0.5228(2) 0.73069(14) 0.37400(12)
H3B H -0.6039 0.7501 0.3924
C7B C -0.4062(2) 0.69376(14) 0.41976(12)
H4B H -0.4084 0.6875 0.4691
C8B C -0.6504(3) 0.77102(14) 0.24932(13)
H5B H -0.6342 0.7934 0.2055
C9B C -0.7877(3) 0.76998(14) 0.25982(13)
H6B H -0.8026 0.7464 0.3034
C10B C -0.9176(2) 0.80176(14) 0.21039(12)
C11B C -0.9183(3) 0.82135(15) 0.13864(12)
H7B H -0.8337 0.8114 0.1195
C12B C -1.0416(2) 0.85505(15) 0.09581(12)
H8B H -1.0403 0.8688 0.0475
C13B C -1.1684(2) 0.86935(13) 0.12221(12)
C14B C -1.1693(2) 0.84828(15) 0.19271(12)
H9B H -1.2549 0.8570 0.2114
C15B C -1.0456(2) 0.81455(15) 0.23581(13)
H10B H -1.0481 0.7998 0.2838
C16B C -1.2985(2) 0.90968(12) 0.07614(11)
Zn1A Zn -1.57968(2) 0.996849(14) 0.058859(12)
Zn1A_2 Zn 1.42032(2) -0.003151(14) 1.058859(12)
Zn1B_2 Zn 0.92032(2) 0.503151(14) -0.441141(12)
Zn1C Zn -1.42032(2) 1.003151(14) -0.058859(12)
Zn1C_2 Zn 1.57968(2) 0.003151(14) 0.941141(12)
O3A O 0.21304(15) 0.56995(9) 0.51392(8)
O3C O -0.21304(15) 0.43005(9) 0.48608(8)
O4A O 0.09139(15) 0.57786(9) 0.60332(8)
O4C O -0.09139(15) 0.42214(9) 0.39668(8)
N1B_2 N -0.18286(18) 0.49410(10) 0.64146(9)
C31 C 0.0822(2) 0.53364(15) -0.04758(12)
C32 C 0.1670(2) 0.56480(16) -0.09635(12)
H21 H 0.1905 0.6219 -0.0957
C33 C 0.2143(3) 0.51423(16) -0.14338(13)
H22 H 0.2698 0.5362 -0.1756
C34 C 0.1815(3) 0.42855(17) -0.14500(13)
H23 H 0.2157 0.3937 -0.1781
C35 C 0.1018(2) 0.39599(16) -0.09964(12)
H24 H 0.0806 0.3386 -0.1015
C36 C 0.0497(2) 0.44692(15) -0.04926(12)
C37 C -0.0323(2) 0.41574(15) -0.00154(12)
H25 H -0.0546 0.3585 -0.0026
C31B C -0.0822(2) 0.46636(15) 0.04758(12)
C32B C -0.1670(2) 0.43520(16) 0.09635(12)
H21B H -0.1905 0.3781 0.0957
C33B C -0.2143(3) 0.48577(16) 0.14338(13)
H22B H -0.2698 0.4638 0.1756
C34B C -0.1815(3) 0.57145(17) 0.14500(13)
H23B H -0.2157 0.6063 0.1781
C35B C -0.1018(2) 0.60401(16) 0.09964(12)
H24B H -0.0806 0.6614 0.1015
C36B C -0.0497(2) 0.55308(15) 0.04926(12)
C37B C 0.0323(2) 0.58426(15) 0.00154(12)
H25B H 0.0546 0.6415 0.0026
loop_
_geom_bond_atom_site_label_1
_geom_bond_atom_site_label_2
_geom_bond_site_symmetry_1
_geom_bond_site_symmetry_2
Zn1 O2 1_555 1_555
O1 C1 1_555 1_555
O2 C1 1_555 1_555
O3 C16 1_555 1_555
O4 C16 1_555 1_555
N1 Zn1 1_555 1_555
C1 C2 1_555 1_555
C2 C3 1_555 1_555
C3 H1 1_555 1_555
C4 C3 1_555 1_555
H2 C4 1_555 1_555
C5 C4 1_555 1_555
C6 C5 1_555 1_555
H3 C6 1_555 1_555
C7 C2 1_555 1_555
H4 C7 1_555 1_555
C8 C5 1_555 1_555
H5 C8 1_555 1_555
C9 C8 1_555 1_555
H6 C9 1_555 1_555
C10 C9 1_555 1_555
C11 C10 1_555 1_555
H7 C11 1_555 1_555
C12 C11 1_555 1_555
H8 C12 1_555 1_555
C13 C12 1_555 1_555
C14 C13 1_555 1_555
H9 C14 1_555 1_555
C15 C10 1_555 1_555
H10 C15 1_555 1_555
C16 C13 1_555 1_555
C17 N1 1_555 1_555
H11 C17 1_555 1_555
C18 C17 1_555 1_555
H12 C18 1_555 1_555
C19 C18 1_555 1_555
C20 C19 1_555 1_555
H13 C20 1_555 1_555
C21 N1 1_555 1_555
H14 C21 1_555 1_555
C22 C19 1_555 1_555
H15 C22 1_555 1_555
C23 C22 1_555 1_555
H16 C23 1_555 1_555
C24 C23 1_555 1_555
C25 C24 1_555 1_555
C26 C25 1_555 1_555
C27 C26 1_555 1_555
H17 C27 1_555 1_555
C28 C27 1_555 1_555
H18 C28 1_555 1_555
C29 C28 1_555 1_555
H19 C29 1_555 1_555
C30 C25 1_555 1_555
H20 C30 1_555 1_555
C31 C32 1_555 1_555
C32 H21 1_555 1_555
C33 C32 1_555 1_555
H22 C33 1_555 1_555
C34 C33 1_555 1_555
H23 C34 1_555 1_555
C35 C34 1_555 1_555
H24 C35 1_555 1_555
C36 C31 1_555 1_555
C37 C36 1_555 1_555
H25 C37 1_555 1_555
N1B C17B 1_555 1_555
C17B H11B 1_555 1_555
C18B C17B 1_555 1_555
H12B C18B 1_555 1_555
C19B C18B 1_555 1_555
C20B C19B 1_555 1_555
H13B C20B 1_555 1_555
C21B N1B 1_555 1_555
H14B C21B 1_555 1_555
C22B C19B 1_555 1_555
H15B C22B 1_555 1_555
C23B C22B 1_555 1_555
H16B C23B 1_555 1_555
C24B C26 1_555 1_555
C25B C24B 1_555 1_555
C26B C24 1_555 1_555
C27B C26B 1_555 1_555
H17B C27B 1_555 1_555
C28B C27B 1_555 1_555
H18B C28B 1_555 1_555
C29B C28B 1_555 1_555
H19B C29B 1_555 1_555
C30B C25B 1_555 1_555
H20B C30B 1_555 1_555
Zn1B O1 1_555 1_555
O1B Zn1 1_555 1_555
O2B Zn1B 1_555 1_555
O3B C16B 1_555 1_555
O4B C16B 1_555 1_555
C1B O1B 1_555 1_555
C2B C1B 1_555 1_555
C3B C2B 1_555 1_555
H1B C3B 1_555 1_555
C4B C3B 1_555 1_555
H2B C4B 1_555 1_555
C5B C4B 1_555 1_555
C6B C5B 1_555 1_555
H3B C6B 1_555 1_555
C7B C2B 1_555 1_555
H4B C7B 1_555 1_555
C8B C5B 1_555 1_555
H5B C8B 1_555 1_555
C9B C8B 1_555 1_555
H6B C9B 1_555 1_555
C10B C9B 1_555 1_555
C11B C10B 1_555 1_555
H7B C11B 1_555 1_555
C12B C11B 1_555 1_555
H8B C12B 1_555 1_555
C13B C12B 1_555 1_555
C14B C13B 1_555 1_555
H9B C14B 1_555 1_555
C15B C10B 1_555 1_555
H10B C15B 1_555 1_555
C16B C13B 1_555 1_555
Zn1A O4B 1_555 1_555
Zn1A_2 O3 1_555 1_555
Zn1B_2 N1B 1_555 1_555
Zn1C O3B 1_555 1_555
Zn1C_2 O4 1_555 1_555
O3A Zn1 1_555 1_555
O3C Zn1B 1_555 1_555
O4A Zn1B 1_555 1_555
O4C Zn1 1_555 1_555
N1B_2 Zn1B 1_555 1_555
C31B C37 1_555 1_555
C32B C31B 1_555 1_555
H21B C32B 1_555 1_555
C33B C32B 1_555 1_555
H22B C33B 1_555 1_555
C34B C33B 1_555 1_555
H23B C34B 1_555 1_555
C35B C34B 1_555 1_555
H24B C35B 1_555 1_555
C36B C31B 1_555 1_555
C37B C31 1_555 1_555
H25B C37B 1_555 1_555
C6 C7 1_555 1_555
C14 C15 1_555 1_555
C20 C21 1_555 1_555
C29 C30 1_555 1_555
C35 C36 1_555 1_555
C20B C21B 1_555 1_555
C23B C24B 1_555 1_555
C25B C26B 1_555 1_555
C29B C30B 1_555 1_555
O2B C1B 1_555 1_555
C6B C7B 1_555 1_555
C14B C15B 1_555 1_555
C35B C36B 1_555 1_555
C36B C37B 1_555 1_555

#END
