
#######################################################################
#
#                 Cambridge Crystallographic Data Centre
#                                CCDC 
#
#######################################################################
#
# If this CIF has been generated from an entry in the Cambridge 
# Structural Database, then it will include bibliographic, chemical, 
# crystal, experimental, refinement or atomic coordinate data resulting 
# from the CCDC's data processing and validation procedures.
#
#######################################################################

data_FUNLEH
_symmetry_cell_setting           monoclinic
_symmetry_space_group_name_H-M   'P 21/n'
_symmetry_Int_Tables_number      14
_space_group_name_Hall           '-P 2yn'
loop_
_symmetry_equiv_pos_site_id
_symmetry_equiv_pos_as_xyz
1 x,y,z
2 1/2-x,1/2+y,1/2-z
3 -x,-y,-z
4 1/2+x,1/2-y,1/2+z
_cell_length_a                   9.190(3)
_cell_length_b                   17.557(5)
_cell_length_c                   19.107(6)
_cell_angle_alpha                90
_cell_angle_beta                 102.375(7)
_cell_angle_gamma                90
_cell_volume                     3011.26
loop_
_atom_site_label
_atom_site_type_symbol
_atom_site_fract_x
_atom_site_fract_y
_atom_site_fract_z
Zn1 Zn 0.08246(3) 0.496571(15) 0.441796(14)
O1 O 0.0658(2) 0.41784(12) 0.59349(11)
O2 O 0.1898(2) 0.41185(12) 0.50537(11)
O3 O 1.2875(2) 0.07016(12) 0.98914(10)
O4 O 1.4120(2) 0.07611(12) 0.90114(10)
N1 N 0.1886(3) 0.49631(11) 0.35968(12)
C1 C 0.1723(3) 0.39659(15) 0.56718(15)
C2 C 0.2935(3) 0.35189(14) 0.61477(14)
C3 C 0.2886(3) 0.33512(16) 0.68499(15)
H1 H 0.2026 0.3481 0.7025
C4 C 0.4069(3) 0.29980(16) 0.72989(15)
H2 H 0.4009 0.2883 0.7778
C5 C 0.5356(3) 0.28070(16) 0.70581(15)
C6 C 0.5380(3) 0.29588(17) 0.63441(15)
H3 H 0.6227 0.2820 0.6162
C7 C 0.4190(3) 0.33074(16) 0.59013(16)
H4 H 0.4228 0.3405 0.5417
C8 C 0.6616(3) 0.24526(17) 0.75573(16)
H5 H 0.6446 0.2299 0.8010
C9 C 0.7963(3) 0.23265(17) 0.74386(16)
H6 H 0.8126 0.2485 0.6986
C10 C 0.9222(3) 0.19725(16) 0.79216(16)
C11 C 0.9210(3) 0.17719(17) 0.86270(15)
H7 H 0.8347 0.1866 0.8812
C12 C 1.0436(3) 0.14403(17) 0.90555(15)
H8 H 1.0402 0.1305 0.9533
C13 C 1.1721(3) 0.12976(15) 0.88096(14)
C14 C 1.1758(3) 0.15011(16) 0.81132(15)
H9 H 1.2630 0.1411 0.7934
C15 C 1.0524(3) 0.18354(17) 0.76784(16)
H10 H 1.0566 0.1975 0.7203
C16 C 1.3012(3) 0.08926(15) 0.92757(14)
C17 C 0.3287(3) 0.51512(16) 0.36753(16)
H11 H 0.3837 0.5264 0.4144
C18 C 0.4009(3) 0.51948(18) 0.31154(16)
H12 H 0.5027 0.5341 0.3203
C19 C 0.3265(3) 0.50276(15) 0.24329(16)
C20 C 0.1794(4) 0.4804(2) 0.23537(17)
H13 H 0.1231 0.4666 0.1894
C21 C 0.1147(4) 0.4782(2) 0.29386(17)
H14 H 0.0133 0.4631 0.2871
C22 C 0.4012(4) 0.50813(16) 0.18330(17)
H15 H 0.5004 0.5269 0.1939
C23 C 0.3466(4) 0.48996(17) 0.11681(17)
H16 H 0.2472 0.4714 0.1055
C24 C 0.4265(3) 0.49575(16) 0.05724(14)
C25 C 0.4581(3) 0.42871(18) 0.02393(15)
C26 C 0.5345(3) 0.43275(18) -0.03431(14)
C27 C 0.5706(4) 0.3626(2) -0.06406(16)
H17 H 0.6225 0.3637 -0.1020
C28 C 0.5331(4) 0.2944(2) -0.03985(19)
H18 H 0.5584 0.2488 -0.0613
C29 C 0.4577(4) 0.2903(2) 0.01621(19)
H19 H 0.4321 0.2421 0.0327
C30 C 0.4212(4) 0.3546(2) 0.04684(17)
H20 H 0.3695 0.3509 0.0848
N1B N 0.8114(3) 0.50369(11) -0.35968(12)
C17B C 0.6713(3) 0.48488(16) -0.36753(16)
H11B H 0.6163 0.4736 -0.4144
C18B C 0.5991(3) 0.48052(18) -0.31154(16)
H12B H 0.4973 0.4659 -0.3203
C19B C 0.6735(3) 0.49724(15) -0.24329(16)
C20B C 0.8206(4) 0.5196(2) -0.23537(17)
H13B H 0.8769 0.5334 -0.1894
C21B C 0.8853(4) 0.5218(2) -0.29386(17)
H14B H 0.9867 0.5369 -0.2871
C22B C 0.5988(4) 0.49187(16) -0.18330(17)
H15B H 0.4996 0.4731 -0.1939
C23B C 0.6534(4) 0.51004(17) -0.11681(17)
H16B H 0.7528 0.5286 -0.1055
C24B C 0.5735(3) 0.50425(16) -0.05724(14)
C25B C 0.5419(3) 0.57129(18) -0.02393(15)
C26B C 0.4655(3) 0.56725(18) 0.03431(14)
C27B C 0.4294(4) 0.6374(2) 0.06406(16)
H17B H 0.3775 0.6363 0.1020
C28B C 0.4669(4) 0.7056(2) 0.03985(19)
H18B H 0.4416 0.7512 0.0613
C29B C 0.5423(4) 0.7097(2) -0.01621(19)
H19B H 0.5679 0.7579 -0.0327
C30B C 0.5788(4) 0.6454(2) -0.04684(17)
H20B H 0.6305 0.6491 -0.0848
Zn1B Zn -0.08246(3) 0.503429(15) 0.558204(14)
O1B O -0.0658(2) 0.58216(12) 0.40651(11)
O2B O -0.1898(2) 0.58815(12) 0.49463(11)
O3B O -1.2875(2) 0.92984(12) 0.01086(10)
O4B O -1.4120(2) 0.92389(12) 0.09886(10)
C1B C -0.1723(3) 0.60341(15) 0.43282(15)
C2B C -0.2935(3) 0.64811(14) 0.38523(14)
C3B C -0.2886(3) 0.66488(16) 0.31501(15)
H1B H -0.2026 0.6519 0.2975
C4B C -0.4069(3) 0.70020(16) 0.27011(15)
H2B H -0.4009 0.7117 0.2222
C5B C -0.5356(3) 0.71930(16) 0.29419(15)
C6B C -0.5380(3) 0.70412(17) 0.36559(15)
H3B H -0.6227 0.7180 0.3838
C7B C -0.4190(3) 0.66926(16) 0.40987(16)
H4B H -0.4228 0.6595 0.4583
C8B C -0.6616(3) 0.75474(17) 0.24427(16)
H5B H -0.6446 0.7701 0.1990
C9B C -0.7963(3) 0.76735(17) 0.25614(16)
H6B H -0.8126 0.7515 0.3014
C10B C -0.9222(3) 0.80275(16) 0.20784(16)
C11B C -0.9210(3) 0.82281(17) 0.13730(15)
H7B H -0.8347 0.8134 0.1188
C12B C -1.0436(3) 0.85597(17) 0.09445(15)
H8B H -1.0402 0.8695 0.0467
C13B C -1.1721(3) 0.87024(15) 0.11904(14)
C14B C -1.1758(3) 0.84989(16) 0.18868(15)
H9B H -1.2630 0.8589 0.2066
C15B C -1.0524(3) 0.81646(17) 0.23216(16)
H10B H -1.0566 0.8025 0.2797
C16B C -1.3012(3) 0.91074(15) 0.07243(14)
Zn1A Zn -1.58246(3) 0.996571(15) 0.058204(14)
Zn1A_2 Zn 1.41754(3) -0.003429(15) 1.058204(14)
Zn1B_2 Zn 0.91754(3) 0.503429(15) -0.441796(14)
Zn1C Zn -1.41754(3) 1.003429(15) -0.058204(14)
Zn1C_2 Zn 1.58246(3) 0.003429(15) 0.941796(14)
O3A O 0.2125(2) 0.57016(12) 0.51086(10)
O3C O -0.2125(2) 0.42984(12) 0.48914(10)
O4A O 0.0880(2) 0.57611(12) 0.59886(10)
O4C O -0.0880(2) 0.42389(12) 0.40114(10)
N1B_2 N -0.1886(3) 0.50369(11) 0.64032(12)
C31 C 0.0786(3) 0.49541(16) -0.05717(16)
C32 C 0.0266(3) 0.42743(18) -0.03012(18)
C33 C 0.0555(4) 0.3590(2) -0.0600(2)
H21 H 0.0213 0.3131 -0.0428
C34 C 0.1339(5) 0.3558(3) -0.1150(3)
H22 H 0.1535 0.3078 -0.1340
C35 C 0.1820(4) 0.4199(3) -0.1415(2)
H23 H 0.2336 0.4168 -0.1795
C36 C 0.1567(4) 0.4909(2) -0.11365(19)
C37 C 0.2064(4) 0.5588(3) -0.1403(2)
H24 H 0.2590 0.5565 -0.1779
C38 C 0.1801(4) 0.6270(3) -0.1128(2)
H25 H 0.2132 0.6723 -0.1317
C39 C 0.1051(4) 0.6313(2) -0.0574(2)
H26 H 0.0895 0.6799 -0.0385
C40 C 0.0525(3) 0.56787(18) -0.02871(17)
C31B C -0.0786(3) 0.50459(16) 0.05717(16)
C32B C -0.0266(3) 0.57257(18) 0.03012(18)
C33B C -0.0555(4) 0.6410(2) 0.0600(2)
H21B H -0.0213 0.6869 0.0428
C34B C -0.1339(5) 0.6442(3) 0.1150(3)
H22B H -0.1535 0.6922 0.1340
C35B C -0.1820(4) 0.5801(3) 0.1415(2)
H23B H -0.2336 0.5832 0.1795
C36B C -0.1567(4) 0.5091(2) 0.11365(19)
C37B C -0.2064(4) 0.4412(3) 0.1403(2)
H24B H -0.2590 0.4435 0.1779
C38B C -0.1801(4) 0.3730(3) 0.1128(2)
H25B H -0.2132 0.3277 0.1317
C39B C -0.1051(4) 0.3687(2) 0.0574(2)
H26B H -0.0895 0.3201 0.0385
C40B C -0.0525(3) 0.43213(18) 0.02871(17)
loop_
_geom_bond_atom_site_label_1
_geom_bond_atom_site_label_2
_geom_bond_site_symmetry_1
_geom_bond_site_symmetry_2
Zn1 O2 1_555 1_555
O1 C1 1_555 1_555
O2 C1 1_555 1_555
O3 C16 1_555 1_555
O4 C16 1_555 1_555
N1 Zn1 1_555 1_555
C1 C2 1_555 1_555
C2 C3 1_555 1_555
C3 H1 1_555 1_555
C4 C3 1_555 1_555
H2 C4 1_555 1_555
C5 C4 1_555 1_555
C6 C5 1_555 1_555
H3 C6 1_555 1_555
C7 C2 1_555 1_555
H4 C7 1_555 1_555
C8 C5 1_555 1_555
H5 C8 1_555 1_555
C9 C8 1_555 1_555
H6 C9 1_555 1_555
C10 C9 1_555 1_555
C11 C10 1_555 1_555
H7 C11 1_555 1_555
C12 C11 1_555 1_555
H8 C12 1_555 1_555
C13 C12 1_555 1_555
C14 C13 1_555 1_555
H9 C14 1_555 1_555
C15 C10 1_555 1_555
H10 C15 1_555 1_555
C16 C13 1_555 1_555
C17 N1 1_555 1_555
H11 C17 1_555 1_555
C18 C17 1_555 1_555
H12 C18 1_555 1_555
C19 C18 1_555 1_555
C20 C19 1_555 1_555
H13 C20 1_555 1_555
C21 N1 1_555 1_555
H14 C21 1_555 1_555
C22 C19 1_555 1_555
H15 C22 1_555 1_555
C23 C22 1_555 1_555
H16 C23 1_555 1_555
C24 C23 1_555 1_555
C25 C24 1_555 1_555
C26 C25 1_555 1_555
C27 C26 1_555 1_555
H17 C27 1_555 1_555
C28 C27 1_555 1_555
H18 C28 1_555 1_555
C29 C28 1_555 1_555
H19 C29 1_555 1_555
C30 C25 1_555 1_555
H20 C30 1_555 1_555
C31 C32 1_555 1_555
C32 C33 1_555 1_555
C33 H21 1_555 1_555
C34 C33 1_555 1_555
H22 C34 1_555 1_555
C35 C34 1_555 1_555
H23 C35 1_555 1_555
C36 C31 1_555 1_555
C37 C36 1_555 1_555
H24 C37 1_555 1_555
C38 C37 1_555 1_555
H25 C38 1_555 1_555
C39 C38 1_555 1_555
H26 C39 1_555 1_555
C40 C31 1_555 1_555
N1B C17B 1_555 1_555
C17B H11B 1_555 1_555
C18B C17B 1_555 1_555
H12B C18B 1_555 1_555
C19B C18B 1_555 1_555
C20B C19B 1_555 1_555
H13B C20B 1_555 1_555
C21B N1B 1_555 1_555
H14B C21B 1_555 1_555
C22B C19B 1_555 1_555
H15B C22B 1_555 1_555
C23B C22B 1_555 1_555
H16B C23B 1_555 1_555
C24B C26 1_555 1_555
C25B C24B 1_555 1_555
C26B C24 1_555 1_555
C27B C26B 1_555 1_555
H17B C27B 1_555 1_555
C28B C27B 1_555 1_555
H18B C28B 1_555 1_555
C29B C28B 1_555 1_555
H19B C29B 1_555 1_555
C30B C25B 1_555 1_555
H20B C30B 1_555 1_555
Zn1B O1 1_555 1_555
O1B Zn1 1_555 1_555
O2B Zn1B 1_555 1_555
O3B C16B 1_555 1_555
O4B C16B 1_555 1_555
C1B O1B 1_555 1_555
C2B C1B 1_555 1_555
C3B C2B 1_555 1_555
H1B C3B 1_555 1_555
C4B C3B 1_555 1_555
H2B C4B 1_555 1_555
C5B C4B 1_555 1_555
C6B C5B 1_555 1_555
H3B C6B 1_555 1_555
C7B C2B 1_555 1_555
H4B C7B 1_555 1_555
C8B C5B 1_555 1_555
H5B C8B 1_555 1_555
C9B C8B 1_555 1_555
H6B C9B 1_555 1_555
C10B C9B 1_555 1_555
C11B C10B 1_555 1_555
H7B C11B 1_555 1_555
C12B C11B 1_555 1_555
H8B C12B 1_555 1_555
C13B C12B 1_555 1_555
C14B C13B 1_555 1_555
H9B C14B 1_555 1_555
C15B C10B 1_555 1_555
H10B C15B 1_555 1_555
C16B C13B 1_555 1_555
Zn1A O4B 1_555 1_555
Zn1A_2 O3 1_555 1_555
Zn1B_2 N1B 1_555 1_555
Zn1C O3B 1_555 1_555
Zn1C_2 O4 1_555 1_555
O3A Zn1 1_555 1_555
O3C Zn1B 1_555 1_555
O4A Zn1B 1_555 1_555
O4C Zn1 1_555 1_555
N1B_2 Zn1B 1_555 1_555
C31B C32B 1_555 1_555
C32B C40 1_555 1_555
C33B C32B 1_555 1_555
H21B C33B 1_555 1_555
C34B C33B 1_555 1_555
H22B C34B 1_555 1_555
C35B C34B 1_555 1_555
H23B C35B 1_555 1_555
C36B C31B 1_555 1_555
C37B C36B 1_555 1_555
H24B C37B 1_555 1_555
C38B C37B 1_555 1_555
H25B C38B 1_555 1_555
C39B C38B 1_555 1_555
H26B C39B 1_555 1_555
C40B C32 1_555 1_555
C6 C7 1_555 1_555
C14 C15 1_555 1_555
C20 C21 1_555 1_555
C29 C30 1_555 1_555
C35 C36 1_555 1_555
C39 C40 1_555 1_555
C20B C21B 1_555 1_555
C23B C24B 1_555 1_555
C25B C26B 1_555 1_555
C29B C30B 1_555 1_555
O2B C1B 1_555 1_555
C6B C7B 1_555 1_555
C14B C15B 1_555 1_555
C31B C40B 1_555 1_555
C35B C36B 1_555 1_555
C39B C40B 1_555 1_555

#END
