
#######################################################################
#
#                 Cambridge Crystallographic Data Centre
#                                CCDC 
#
#######################################################################
#
# If this CIF has been generated from an entry in the Cambridge 
# Structural Database, then it will include bibliographic, chemical, 
# crystal, experimental, refinement or atomic coordinate data resulting 
# from the CCDC's data processing and validation procedures.
#
#######################################################################

data_FUPYIA
_symmetry_cell_setting           triclinic
_symmetry_space_group_name_H-M   'P -1'
_symmetry_Int_Tables_number      2
_space_group_name_Hall           '-P 1'
loop_
_symmetry_equiv_pos_site_id
_symmetry_equiv_pos_as_xyz
1 x,y,z
2 -x,-y,-z
_cell_length_a                   8.2121(11)
_cell_length_b                   11.6294(15)
_cell_length_c                   17.864(2)
_cell_angle_alpha                86.450(2)
_cell_angle_beta                 80.388(2)
_cell_angle_gamma                83.515(2)
_cell_volume                     1669.71
loop_
_atom_site_label
_atom_site_type_symbol
_atom_site_fract_x
_atom_site_fract_y
_atom_site_fract_z
Cu1 Cu 0.85087(11) 0.08281(8) 0.15189(5)
Cu2 Cu 0.57805(11) -0.01471(8) 0.28763(5)
Cu3 Cu 0.95360(12) -0.16535(8) 0.24262(5)
O1 O 0.7712(6) -0.0651(4) 0.2048(3)
O2 O 0.7042(7) 0.0933(6) 0.3473(3)
O3 O 1.1312(7) -0.2709(6) 0.2782(3)
O4 O 1.0456(12) -0.3808(6) 0.2062(4)
O5 O 0.9147(7) 0.1335(5) 0.2582(3)
N1 N 0.6188(8) 0.1453(6) 0.1597(4)
N2 N 0.5025(8) 0.1018(6) 0.2135(4)
N3 N 0.6379(8) -0.1608(6) 0.3435(4)
N4 N 0.7948(9) -0.2119(6) 0.3301(4)
N5 N 1.1096(8) -0.1042(6) 0.1585(4)
N6 N 1.0655(8) -0.0076(6) 0.1178(4)
N7 N 0.9207(7) 0.2302(5) 0.0931(3)
N8 N 0.3592(7) 0.0074(6) 0.3605(3)
C1 C 0.5378(10) 0.2273(8) 0.1194(5)
H1 H 0.5883 0.2717 0.0788
C2 C 0.3775(12) 0.2364(9) 0.1451(6)
H2 H 0.2958 0.2861 0.1260
C3 C 0.3544(11) 0.1582(9) 0.2053(5)
H3 H 0.2533 0.1463 0.2354
C4 C 0.5565(12) -0.2196(8) 0.4020(5)
H4 H 0.4455 -0.2022 0.4228
C5 C 0.6572(14) -0.3066(9) 0.4263(5)
H5 H 0.6314 -0.3601 0.4662
C6 C 0.8043(13) -0.3005(8) 0.3808(5)
H6 H 0.8993 -0.3510 0.3842
C7 C 1.2618(10) -0.1440(8) 0.1309(5)
H7 H 1.3210 -0.2095 0.1494
C8 C 1.3212(11) -0.0716(8) 0.0691(5)
H8 H 1.4245 -0.0798 0.0382
C9 C 1.1965(10) 0.0120(8) 0.0642(5)
H9 H 1.1999 0.0743 0.0289
C10 C 0.9330(12) 0.2469(7) 0.0179(5)
H10 H 0.9205 0.1845 -0.0100
C11 C 0.9627(11) 0.3489(7) -0.0207(5)
H11 H 0.9698 0.3552 -0.0733
C12 C 0.9820(9) 0.4429(6) 0.0193(4)
C13 C 0.9739(11) 0.4272(7) 0.0974(5)
H12 H 0.9909 0.4872 0.1263
C14 C 0.9395(10) 0.3189(7) 0.1319(4)
H13 H 0.9297 0.3095 0.1845
C15 C 0.3479(10) 0.0581(7) 0.4255(4)
H14 H 0.4365 0.0960 0.4341
C16 C 0.2089(10) 0.0570(8) 0.4816(4)
H15 H 0.2058 0.0932 0.5268
C17 C 0.0750(9) 0.0020(6) 0.4700(4)
C18 C 0.0878(10) -0.0481(8) 0.4029(4)
H16 H 0.0001 -0.0849 0.3921
C19 C 0.2324(10) -0.0447(8) 0.3498(4)
H17 H 0.2390 -0.0813 0.3044
C20 C 0.8247(10) 0.1500(7) 0.3206(5)
C21 C 0.8795(14) 0.2430(9) 0.3605(6)
H18 H 0.8859 0.3109 0.3261
H19 H 0.9913 0.2182 0.3700
C22 C 0.7753(18) 0.2800(13) 0.4351(7)
H20 H 0.7636 0.2142 0.4710
H21 H 0.6656 0.3137 0.4272
C23 C 0.870(2) 0.3710(12) 0.4650(9)
H22 H 0.9822 0.3660 0.4386
H23 H 0.8702 0.3562 0.5185
H24 H 0.8159 0.4472 0.4565
C24 C 1.142(3) -0.3668(17) 0.2495(12)
C25 C 1.240(2) -0.4653(16) 0.2781(15)
H25 H 1.2272 -0.5340 0.2524
H26 H 1.2022 -0.4784 0.3320
C26 C 1.423(2) -0.4417(14) 0.2643(14)
H27 H 1.4387 -0.3759 0.2921
H28 H 1.4619 -0.4269 0.2106
C27 C 1.514(2) -0.5544(12) 0.2941(9)
H29 H 1.6202 -0.5389 0.3046
H30 H 1.5296 -0.6117 0.2564
H31 H 1.4490 -0.5827 0.3398
C28 C 0.7099(16) -0.1396(11) 0.1526(7)
H32 H 0.7843 -0.1424 0.1050
H33 H 0.6011 -0.1079 0.1440
H34 H 0.7048 -0.2165 0.1751
N7A N 1.0793(7) 0.7698(5) -0.0931(3)
C10A C 1.0670(12) 0.7531(7) -0.0179(5)
H10A H 1.0795 0.8155 0.0100
C11A C 1.0373(11) 0.6511(7) 0.0207(5)
H11A H 1.0302 0.6448 0.0733
C12A C 1.0180(9) 0.5571(6) -0.0193(4)
C13A C 1.0261(11) 0.5728(7) -0.0974(5)
H12A H 1.0091 0.5128 -0.1263
C14A C 1.0605(10) 0.6811(7) -0.1319(4)
H13A H 1.0703 0.6905 -0.1845
N8A N -0.3592(7) -0.0074(6) 0.6395(3)
C15A C -0.3479(10) -0.0581(7) 0.5745(4)
H14A H -0.4365 -0.0960 0.5659
C16A C -0.2089(10) -0.0570(8) 0.5184(4)
H15A H -0.2058 -0.0932 0.4732
C17A C -0.0750(9) -0.0020(6) 0.5300(4)
C18A C -0.0878(10) 0.0481(8) 0.5971(4)
H16A H -0.0001 0.0849 0.6079
C19A C -0.2324(10) 0.0447(8) 0.6502(4)
H17A H -0.2390 0.0813 0.6956
Cu1A Cu -0.85087(11) -0.08281(8) 0.84811(5)
Cu2A Cu -0.57805(11) 0.01471(8) 0.71237(5)
Cu3A Cu -0.95360(12) 0.16535(8) 0.75738(5)
O1A O -0.7712(6) 0.0651(4) 0.7952(3)
O2A O -0.7042(7) -0.0933(6) 0.6527(3)
O3A O -1.1312(7) 0.2709(6) 0.7218(3)
O4A O -1.0456(12) 0.3808(6) 0.7938(4)
O5A O -0.9147(7) -0.1335(5) 0.7418(3)
N1A N -0.6188(8) -0.1453(6) 0.8403(4)
N2A N -0.5025(8) -0.1018(6) 0.7865(4)
N3A N -0.6379(8) 0.1608(6) 0.6565(4)
N4A N -0.7948(9) 0.2119(6) 0.6699(4)
N5A N -1.1096(8) 0.1042(6) 0.8415(4)
N6A N -1.0655(8) 0.0076(6) 0.8822(4)
C1A C -0.5378(10) -0.2273(8) 0.8806(5)
H1A H -0.5883 -0.2717 0.9212
C2A C -0.3775(12) -0.2364(9) 0.8549(6)
H2A H -0.2958 -0.2861 0.8740
C3A C -0.3544(11) -0.1582(9) 0.7947(5)
H3A H -0.2533 -0.1463 0.7646
C4A C -0.5565(12) 0.2196(8) 0.5980(5)
H4A H -0.4455 0.2022 0.5772
C5A C -0.6572(14) 0.3066(9) 0.5737(5)
H5A H -0.6314 0.3601 0.5338
C6A C -0.8043(13) 0.3005(8) 0.6192(5)
H6A H -0.8993 0.3510 0.6158
C7A C -1.2618(10) 0.1440(8) 0.8691(5)
H7A H -1.3210 0.2095 0.8506
C8A C -1.3212(11) 0.0716(8) 0.9309(5)
H8A H -1.4245 0.0798 0.9618
C9A C -1.1965(10) -0.0120(8) 0.9358(5)
H9A H -1.1999 -0.0743 0.9711
C20A C -0.8247(10) -0.1500(7) 0.6794(5)
C21A C -0.8795(14) -0.2430(9) 0.6395(6)
H18A H -0.8859 -0.3109 0.6739
H19A H -0.9913 -0.2182 0.6300
C22A C -0.7753(18) -0.2800(13) 0.5649(7)
H20A H -0.7636 -0.2142 0.5290
H21A H -0.6656 -0.3137 0.5728
C23A C -0.870(2) -0.3710(12) 0.5350(9)
H22A H -0.9822 -0.3660 0.5614
H23A H -0.8702 -0.3562 0.4815
H24A H -0.8159 -0.4472 0.5435
C24A C -1.142(3) 0.3668(17) 0.7505(12)
C25A C -1.240(2) 0.4653(16) 0.7219(15)
H25A H -1.2272 0.5340 0.7476
H26A H -1.2022 0.4784 0.6680
C26A C -1.423(2) 0.4417(14) 0.7357(14)
H27A H -1.4387 0.3759 0.7079
H28A H -1.4619 0.4269 0.7894
C27A C -1.514(2) 0.5544(12) 0.7059(9)
H29A H -1.6202 0.5389 0.6954
H30A H -1.5296 0.6117 0.7436
H31A H -1.4490 0.5827 0.6602
C28A C -0.7099(16) 0.1396(11) 0.8474(7)
H32A H -0.7843 0.1424 0.8950
H33A H -0.6011 0.1079 0.8560
H34A H -0.7048 0.2165 0.8249
Cu1A_2 Cu 1.14913(11) 0.91719(8) -0.15189(5)
N7A_2 N -0.9207(7) -0.2302(5) 0.9069(3)
loop_
_geom_bond_atom_site_label_1
_geom_bond_atom_site_label_2
_geom_bond_site_symmetry_1
_geom_bond_site_symmetry_2
Cu1 O1 1_555 1_555
Cu2 O1 1_555 1_555
Cu3 O1 1_555 1_555
O1 C28 1_555 1_555
O2 Cu2 1_555 1_555
O3 Cu3 1_555 1_555
O4 Cu3 1_555 1_555
O5 Cu1 1_555 1_555
N1 Cu1 1_555 1_555
N2 Cu2 1_555 1_555
N3 Cu2 1_555 1_555
N4 Cu3 1_555 1_555
N5 Cu3 1_555 1_555
N6 Cu1 1_555 1_555
N7 Cu1 1_555 1_555
N8 Cu2 1_555 1_555
C1 N1 1_555 1_555
H1 C1 1_555 1_555
C2 C1 1_555 1_555
H2 C2 1_555 1_555
C3 N2 1_555 1_555
H3 C3 1_555 1_555
C4 N3 1_555 1_555
H4 C4 1_555 1_555
C5 C4 1_555 1_555
H5 C5 1_555 1_555
C6 N4 1_555 1_555
H6 C6 1_555 1_555
C7 N5 1_555 1_555
H7 C7 1_555 1_555
C8 C7 1_555 1_555
H8 C8 1_555 1_555
C9 N6 1_555 1_555
H9 C9 1_555 1_555
C10 N7 1_555 1_555
H10 C10 1_555 1_555
C11 C10 1_555 1_555
H11 C11 1_555 1_555
C12 C11 1_555 1_555
C13 C12 1_555 1_555
H12 C13 1_555 1_555
C14 N7 1_555 1_555
H13 C14 1_555 1_555
C15 N8 1_555 1_555
H14 C15 1_555 1_555
C16 C15 1_555 1_555
H15 C16 1_555 1_555
C17 C16 1_555 1_555
C18 C17 1_555 1_555
H16 C18 1_555 1_555
C19 N8 1_555 1_555
H17 C19 1_555 1_555
C20 O2 1_555 1_555
C21 C20 1_555 1_555
H18 C21 1_555 1_555
H19 C21 1_555 1_555
C22 C21 1_555 1_555
H20 C22 1_555 1_555
H21 C22 1_555 1_555
C23 C22 1_555 1_555
H22 C23 1_555 1_555
H23 C23 1_555 1_555
H24 C23 1_555 1_555
C24 O3 1_555 1_555
C25 C24 1_555 1_555
H25 C25 1_555 1_555
H26 C25 1_555 1_555
C26 C25 1_555 1_555
H27 C26 1_555 1_555
H28 C26 1_555 1_555
C27 C26 1_555 1_555
H29 C27 1_555 1_555
H30 C27 1_555 1_555
H31 C27 1_555 1_555
C28 H32 1_555 1_555
H33 C28 1_555 1_555
H34 C28 1_555 1_555
N7A C10A 1_555 1_555
C10A H10A 1_555 1_555
C11A C10A 1_555 1_555
H11A C11A 1_555 1_555
C12A C12 1_555 1_555
C13A C12A 1_555 1_555
H12A C13A 1_555 1_555
C14A N7A 1_555 1_555
H13A C14A 1_555 1_555
N8A C15A 1_555 1_555
C15A H14A 1_555 1_555
C16A C15A 1_555 1_555
H15A C16A 1_555 1_555
C17A C17 1_555 1_555
C18A C17A 1_555 1_555
H16A C18A 1_555 1_555
C19A N8A 1_555 1_555
H17A C19A 1_555 1_555
Cu1A O1A 1_555 1_555
Cu2A N8A 1_555 1_555
Cu3A O1A 1_555 1_555
O1A Cu2A 1_555 1_555
O2A Cu2A 1_555 1_555
O3A Cu3A 1_555 1_555
O4A Cu3A 1_555 1_555
O5A Cu1A 1_555 1_555
N1A Cu1A 1_555 1_555
N2A Cu2A 1_555 1_555
N3A Cu2A 1_555 1_555
N4A Cu3A 1_555 1_555
N5A Cu3A 1_555 1_555
N6A Cu1A 1_555 1_555
C1A N1A 1_555 1_555
H1A C1A 1_555 1_555
C2A C1A 1_555 1_555
H2A C2A 1_555 1_555
C3A N2A 1_555 1_555
H3A C3A 1_555 1_555
C4A N3A 1_555 1_555
H4A C4A 1_555 1_555
C5A C4A 1_555 1_555
H5A C5A 1_555 1_555
C6A N4A 1_555 1_555
H6A C6A 1_555 1_555
C7A N5A 1_555 1_555
H7A C7A 1_555 1_555
C8A C7A 1_555 1_555
H8A C8A 1_555 1_555
C9A N6A 1_555 1_555
H9A C9A 1_555 1_555
C20A O2A 1_555 1_555
C21A C20A 1_555 1_555
H18A C21A 1_555 1_555
H19A C21A 1_555 1_555
C22A C21A 1_555 1_555
H20A C22A 1_555 1_555
H21A C22A 1_555 1_555
C23A C22A 1_555 1_555
H22A C23A 1_555 1_555
H23A C23A 1_555 1_555
H24A C23A 1_555 1_555
C24A O3A 1_555 1_555
C25A C24A 1_555 1_555
H25A C25A 1_555 1_555
H26A C25A 1_555 1_555
C26A C25A 1_555 1_555
H27A C26A 1_555 1_555
H28A C26A 1_555 1_555
C27A C26A 1_555 1_555
H29A C27A 1_555 1_555
H30A C27A 1_555 1_555
H31A C27A 1_555 1_555
C28A O1A 1_555 1_555
H32A C28A 1_555 1_555
H33A C28A 1_555 1_555
H34A C28A 1_555 1_555
Cu1A_2 N7A 1_555 1_555
N7A_2 Cu1A 1_555 1_555
O4 C24 1_555 1_555
O5 C20 1_555 1_555
N1 N2 1_555 1_555
N3 N4 1_555 1_555
N5 N6 1_555 1_555
C2 C3 1_555 1_555
C5 C6 1_555 1_555
C8 C9 1_555 1_555
C13 C14 1_555 1_555
C18 C19 1_555 1_555
C11A C12A 1_555 1_555
C13A C14A 1_555 1_555
C16A C17A 1_555 1_555
C18A C19A 1_555 1_555
O4A C24A 1_555 1_555
O5A C20A 1_555 1_555
N1A N2A 1_555 1_555
N3A N4A 1_555 1_555
N5A N6A 1_555 1_555
C2A C3A 1_555 1_555
C5A C6A 1_555 1_555
C8A C9A 1_555 1_555

#END
