
#######################################################################
#
#                 Cambridge Crystallographic Data Centre
#                                CCDC 
#
#######################################################################
#
# If this CIF has been generated from an entry in the Cambridge 
# Structural Database, then it will include bibliographic, chemical, 
# crystal, experimental, refinement or atomic coordinate data resulting 
# from the CCDC's data processing and validation procedures.
#
#######################################################################

data_FUPYAS
_symmetry_cell_setting           triclinic
_symmetry_space_group_name_H-M   'P -1'
_symmetry_Int_Tables_number      2
_space_group_name_Hall           '-P 1'
loop_
_symmetry_equiv_pos_site_id
_symmetry_equiv_pos_as_xyz
1 x,y,z
2 -x,-y,-z
_cell_length_a                   7.7836(4)
_cell_length_b                   12.4644(7)
_cell_length_c                   23.1300(11)
_cell_angle_alpha                87.484(2)
_cell_angle_beta                 85.407(2)
_cell_angle_gamma                84.557(2)
_cell_volume                     2225.24
loop_
_atom_site_label
_atom_site_type_symbol
_atom_site_fract_x
_atom_site_fract_y
_atom_site_fract_z
Bi1 Bi 0.739354(18) 0.531158(11) 0.012601(6)
O1 O 0.7950(4) 0.5914(2) -0.07774(13)
O2 O 0.5852(3) 0.4470(2) -0.04327(12)
O3 O 0.7249(4) 0.3779(2) 0.07499(13)
O4 O 0.9503(3) 0.4024(2) -0.01497(12)
O5 O 0.7292(4) 0.7593(2) 0.03828(13)
C1 C 0.7329(5) 0.5344(3) -0.11629(18)
N1 N 0.6292(4) 0.4590(3) -0.10324(15)
C2 C 0.8273(5) 0.2967(3) 0.05962(17)
N2 N 0.9359(4) 0.3042(3) 0.01400(15)
S1 S 0.61380(14) 0.85575(9) 0.01902(5)
C3 C 0.7860(5) 0.5550(4) -0.17771(18)
C4 C 0.8207(5) 0.1930(3) 0.09295(18)
H1 H 1.0001 0.2465 0.0017
C5 C 0.4000(6) 0.8269(4) 0.0441(2)
C6 C 0.5959(7) 0.8438(4) -0.0564(2)
C7 C 0.7425(6) 0.4911(4) -0.2218(2)
C8 C 0.8891(6) 0.6394(4) -0.1926(2)
C9 C 0.7272(6) 0.1954(4) 0.14750(18)
C10 C 0.8955(5) 0.0945(3) 0.07184(18)
H2 H 0.3789 0.7556 0.0314
H3 H 0.3162 0.8816 0.0282
H4 H 0.3875 0.8275 0.0866
H5 H 0.7088 0.8510 -0.0774
H6 H 0.5114 0.9007 -0.0700
H7 H 0.5577 0.7731 -0.0633
O6 O 0.6455(4) 0.4079(3) -0.21047(14)
C11 C 0.8027(6) 0.5129(4) -0.2790(2)
C12 C 0.9478(6) 0.6603(5) -0.2503(2)
H8 H 0.9197 0.6831 -0.1631
H9 H 0.6787 0.2626 0.1621
C13 C 0.7047(6) 0.1025(4) 0.1799(2)
O7 O 0.9859(4) 0.0902(2) 0.02037(13)
C14 C 0.8681(6) 0.0000(3) 0.10525(18)
H10 H 0.6368 0.3940 -0.1745
H11 H 0.7748 0.4692 -0.3090
C15 C 0.9027(6) 0.5976(5) -0.2924(2)
H12 H 1.0184 0.7176 -0.2601
H13 H 0.6429 0.1053 0.2171
C16 C 0.7728(6) 0.0042(4) 0.15813(19)
H14 H 1.0218 0.0259 0.0138
H15 H 0.9160 -0.0678 0.0912
H16 H 0.9407 0.6125 -0.3318
H17 H 0.7537 -0.0607 0.1798
Bi1A Bi 0.260646(18) 0.468842(11) -0.012601(6)
Bi1A_2 Bi 1.260646(18) 0.468842(11) -0.012601(6)
O2A O 0.4148(3) 0.5530(2) 0.04327(12)
O4A O 1.0497(3) 0.5976(2) 0.01497(12)
Bi2 Bi 0.758745(18) 0.956328(12) 0.494867(6)
S2 S 0.8927(2) 0.77754(16) 0.35162(8)
O8 O 0.7710(4) 0.9455(2) 0.59601(13)
O9 O 0.5466(3) 1.0705(2) 0.53764(12)
O10 O 0.5037(4) 1.1902(3) 0.69297(14)
H18 H 0.5029 1.1782 0.6575
O11 O 0.7087(4) 1.0777(2) 0.41987(13)
O12 O 0.9187(3) 1.0944(2) 0.50004(13)
O13 O 0.8401(4) 1.3889(2) 0.44077(14)
H19 H 0.8532 1.4551 0.4402
O14 O 0.7848(4) 0.8244(3) 0.40182(14)
N3 N 0.5538(4) 1.0795(3) 0.59669(15)
N4 N 0.8685(4) 1.1846(3) 0.46576(16)
H20 H 0.9042 1.2482 0.4709
C17 C 0.6652(5) 1.0128(3) 0.62379(18)
C18 C 0.6711(5) 1.0195(4) 0.68740(18)
C19 C 0.7639(6) 0.9337(4) 0.7162(2)
H21 H 0.8123 0.8732 0.6949
C20 C 0.7859(7) 0.9356(4) 0.7746(2)
H22 H 0.8480 0.8766 0.7934
C21 C 0.7167(6) 1.0242(4) 0.8056(2)
H23 H 0.7341 1.0265 0.8457
C22 C 0.6233(6) 1.1089(4) 0.77899(19)
H24 H 0.5767 1.1693 0.8007
C23 C 0.5967(5) 1.1063(4) 0.71996(19)
C24 C 0.7660(5) 1.1699(3) 0.42584(19)
C25 C 0.7112(5) 1.2616(4) 0.38715(19)
C26 C 0.6170(6) 1.2434(4) 0.3405(2)
H25 H 0.5895 1.1723 0.3346
C27 C 0.5620(6) 1.3264(4) 0.3023(2)
H26 H 0.4976 1.3124 0.2707
C28 C 0.6024(6) 1.4300(4) 0.3111(2)
H27 H 0.5662 1.4875 0.2852
C29 C 0.6947(6) 1.4502(4) 0.3571(2)
H28 H 0.7212 1.5216 0.3627
C30 C 0.7495(5) 1.3675(4) 0.3953(2)
C31 C 1.1023(9) 0.7545(7) 0.3781(4)
H29 H 1.1278 0.8181 0.3981
H30 H 1.1889 0.7407 0.3455
H31 H 1.1054 0.6918 0.4053
C32 C 0.9037(9) 0.9059(5) 0.3035(3)
H32 H 0.7956 0.9210 0.2844
H33 H 1.0009 0.8959 0.2740
H34 H 0.9204 0.9666 0.3274
Bi2A Bi 0.241255(18) 1.043672(12) 0.505133(6)
Bi2A_2 Bi 1.241255(18) 1.043672(12) 0.505133(6)
O9A O 0.4534(3) 0.9295(2) 0.46236(12)
O12A O 1.0813(3) 0.9056(2) 0.49996(13)
S3 S 0.77680(16) 0.64889(10) 0.49974(5)
C33 C 0.5660(7) 0.6545(4) 0.4750(2)
H35 H 0.5632 0.6957 0.4380
H36 H 0.4823 0.6896 0.5037
H37 H 0.5361 0.5811 0.4696
C34 C 0.7427(7) 0.5596(5) 0.5614(2)
H38 H 0.7109 0.4907 0.5486
H39 H 0.6493 0.5919 0.5879
H40 H 0.8493 0.5473 0.5816
O15 O 0.8748(8) 0.5900(5) 0.4563(3)
S4? S 0.9636(3) 0.8570(2) 0.36258(11)
C35? C 1.0401(17) 0.7284(10) 0.3358(5)
H41? H 0.9451 0.6962 0.3197
H42? H 1.0838 0.6817 0.3676
H43? H 1.1335 0.7365 0.3054
H44? H 0.9968 0.9440 0.2832
H45? H 0.8007 0.9566 0.3105
H46? H 0.8761 0.8479 0.2795
S5? S 0.2509(4) 1.3209(2) 0.81988(13)
O16? O 0.2892(13) 1.2557(7) 0.7798(4)
H47? H 0.2932 1.4857 0.8064
H48? H 0.2833 1.4094 0.8638
H49? H 0.1201 1.4909 0.8488
H50? H 0.0111 1.2054 0.8413
H51? H -0.0673 1.3241 0.8226
H52? H -0.0080 1.2996 0.8869
O17? O 0.7997(8) 0.7453(5) 0.5291(3)
O18? O 0.2762(12) 1.2953(8) 0.7580(4)
C36? C 0.2176(8) 1.4434(6) 0.8324(3)
C37? C 0.2176(8) 1.4434(6) 0.8324(3)
H53? H 0.1843 1.4521 0.8738
H54? H 0.1243 1.4762 0.8096
H55? H 0.3234 1.4787 0.8217
C38? C 0.0174(7) 1.2827(4) 0.8459(2)
H56? H -0.0370 1.2236 0.8302
H57? H -0.0724 1.3358 0.8621
H58? H 0.0910 1.2541 0.8765
C39? C 0.0174(7) 1.2827(4) 0.8459(2)
S6? S 0.1383(2) 1.34184(16) 0.79273(8)
loop_
_geom_bond_atom_site_label_1
_geom_bond_atom_site_label_2
_geom_bond_site_symmetry_1
_geom_bond_site_symmetry_2
Bi1 O1 1_555 1_555
O1 C1 1_555 1_555
O2 Bi1 1_555 1_555
O3 Bi1 1_555 1_555
O4 Bi1 1_555 1_555
O5 Bi1 1_555 1_555
C1 N1 1_555 1_555
N1 O2 1_555 1_555
C2 O3 1_555 1_555
N2 O4 1_555 1_555
S1 O5 1_555 1_555
C3 C1 1_555 1_555
C4 C2 1_555 1_555
H1 N2 1_555 1_555
C5 S1 1_555 1_555
C6 S1 1_555 1_555
C7 C3 1_555 1_555
C8 C3 1_555 1_555
C9 C4 1_555 1_555
C10 C4 1_555 1_555
H2 C5 1_555 1_555
H3 C5 1_555 1_555
H4 C5 1_555 1_555
H5 C6 1_555 1_555
H6 C6 1_555 1_555
H7 C6 1_555 1_555
O6 C7 1_555 1_555
C11 C7 1_555 1_555
C12 C8 1_555 1_555
H8 C8 1_555 1_555
H9 C9 1_555 1_555
C13 C9 1_555 1_555
O7 C10 1_555 1_555
C14 C10 1_555 1_555
H10 O6 1_555 1_555
H11 C11 1_555 1_555
C15 C11 1_555 1_555
H12 C12 1_555 1_555
H13 C13 1_555 1_555
C16 C13 1_555 1_555
H14 O7 1_555 1_555
H15 C14 1_555 1_555
H16 C15 1_555 1_555
H17 C16 1_555 1_555
Bi2 O8 1_555 1_555
S2 O14 1_555 1_555
O8 C17 1_555 1_555
O9 Bi2 1_555 1_555
O10 H18 1_555 1_555
O11 Bi2 1_555 1_555
O12 Bi2 1_555 1_555
O13 H19 1_555 1_555
O14 Bi2 1_555 1_555
N3 O9 1_555 1_555
N4 O12 1_555 1_555
H20 N4 1_555 1_555
C17 N3 1_555 1_555
C18 C17 1_555 1_555
C19 C18 1_555 1_555
H21 C19 1_555 1_555
C20 C19 1_555 1_555
H22 C20 1_555 1_555
C21 C20 1_555 1_555
H23 C21 1_555 1_555
C22 C21 1_555 1_555
H24 C22 1_555 1_555
C23 O10 1_555 1_555
C24 O11 1_555 1_555
C25 C24 1_555 1_555
C26 C25 1_555 1_555
H25 C26 1_555 1_555
C27 C26 1_555 1_555
H26 C27 1_555 1_555
C28 C27 1_555 1_555
H27 C28 1_555 1_555
C29 C28 1_555 1_555
H28 C29 1_555 1_555
C30 O13 1_555 1_555
C31 S2 1_555 1_555
H29 C31 1_555 1_555
H30 C31 1_555 1_555
H31 C31 1_555 1_555
C32 S2 1_555 1_555
H32 C32 1_555 1_555
H33 C32 1_555 1_555
H34 C32 1_555 1_555
S3 C33 1_555 1_555
C33 H35 1_555 1_555
H36 C33 1_555 1_555
H37 C33 1_555 1_555
C34 S3 1_555 1_555
H38 C34 1_555 1_555
H39 C34 1_555 1_555
H40 C34 1_555 1_555
O15 S3 1_555 1_555
Bi1A O2 1_555 1_555
Bi1A_2 O4 1_555 1_555
O2A Bi1 1_555 1_555
O4A Bi1 1_555 1_555
Bi2A O9 1_555 1_555
Bi2A_2 O12 1_555 1_555
O9A Bi2 1_555 1_555
O12A Bi2 1_555 1_555
C2 N2 1_555 1_555
C12 C15 1_555 1_555
C14 C16 1_555 1_555
N4 C24 1_555 1_555
C18 C23 1_555 1_555
C22 C23 1_555 1_555
C25 C30 1_555 1_555
C29 C30 1_555 1_555
Bi1A O2A 1_555 1_555
Bi1A_2 O4A 1_555 1_555
Bi2A O9A 1_555 1_555
Bi2A_2 O12A 1_555 1_555

#END
