
#######################################################################
#
#                 Cambridge Crystallographic Data Centre
#                                CCDC 
#
#######################################################################
#
# If this CIF has been generated from an entry in the Cambridge 
# Structural Database, then it will include bibliographic, chemical, 
# crystal, experimental, refinement or atomic coordinate data resulting 
# from the CCDC's data processing and validation procedures.
#
#######################################################################

data_FUQCIF
_symmetry_cell_setting           triclinic
_symmetry_space_group_name_H-M   'P -1'
_symmetry_Int_Tables_number      2
_space_group_name_Hall           '-P 1'
loop_
_symmetry_equiv_pos_site_id
_symmetry_equiv_pos_as_xyz
1 x,y,z
2 -x,-y,-z
_cell_length_a                   8.126(3)
_cell_length_b                   8.537(4)
_cell_length_c                   8.874(3)
_cell_angle_alpha                71.15(4)
_cell_angle_beta                 65.38(4)
_cell_angle_gamma                83.40(4)
_cell_volume                     529.487
loop_
_atom_site_label
_atom_site_type_symbol
_atom_site_fract_x
_atom_site_fract_y
_atom_site_fract_z
Eu1 Eu 0.57139(3) 0.91874(3) 0.71873(3)
O1 O 0.5856(5) 1.2250(5) 0.6630(5)
O2 O 0.4439(5) 1.1471(4) 0.5338(5)
O3 O 0.8083(5) 0.9777(5) 0.7917(5)
O4 O 0.6654(5) 0.9853(5) 1.0652(5)
O5 O 0.3044(5) 0.7440(5) 0.8066(5)
O6 O 0.2138(6) 0.6021(5) 1.0897(5)
O7 O 0.7674(5) 0.6959(5) 0.6769(5)
O8 O 0.5400(5) 0.7172(5) 0.9997(5)
O9 O 0.8336(5) 1.0552(5) 0.4415(5)
C1 C 0.5017(7) 1.2625(6) 0.5645(7)
C2 C 0.4709(8) 1.4390(6) 0.4837(7)
H1 H 0.4107 1.4654 0.4099
C3 C 0.8061(8) 0.9950(7) 0.9279(7)
C4 C 0.9840(7) 1.0238(6) 0.9280(6)
H2 H 1.0768 1.0773 0.8229
C5 C 0.2029(7) 0.6394(6) 0.9440(7)
C6 C 0.0593(7) 0.5554(7) 0.9315(7)
H3 H 0.0523 0.5810 0.8242
O1A O 0.4144(5) 1.7750(5) 0.3370(5)
O2A O 0.5561(5) 1.8529(4) 0.4662(5)
C1A C 0.4983(7) 1.7375(6) 0.4355(7)
C2A C 0.5291(8) 1.5610(6) 0.5163(7)
H1A H 0.5893 1.5346 0.5901
O3A O 1.1917(5) 1.0223(5) 1.2083(5)
O4A O 1.3346(5) 1.0147(5) 0.9348(5)
C3A C 1.1939(8) 1.0050(7) 1.0721(7)
C4A C 1.0160(7) 0.9762(6) 1.0720(6)
H2A H 0.9232 0.9227 1.1771
O5A O -0.3044(5) 0.2560(5) 1.1934(5)
O6A O -0.2138(6) 0.3979(5) 0.9103(5)
C5A C -0.2029(7) 0.3606(6) 1.0560(7)
C6A C -0.0593(7) 0.4446(7) 1.0685(7)
H3A H -0.0523 0.4190 1.1758
Eu1A Eu -0.57139(3) 0.08126(3) 1.28127(3)
O7A O -0.7674(5) 0.3041(5) 1.3231(5)
O8A O -0.5400(5) 0.2828(5) 1.0003(5)
O9A O -0.8336(5) -0.0552(5) 1.5585(5)
Eu1_2 Eu 0.57139(3) 1.91874(3) 0.71873(3)
Eu1_3 Eu 1.57139(3) 0.91874(3) 0.71873(3)
Eu1A_2 Eu 0.42861(3) 1.08126(3) 0.28127(3)
Eu1A_3 Eu 0.42861(3) 1.08126(3) 1.28127(3)
Eu1A_4 Eu 0.42861(3) 2.08126(3) 0.28127(3)
Eu1A_5 Eu 1.42861(3) 1.08126(3) 1.28127(3)
O1A_2 O -0.5856(5) -0.2250(5) 1.3370(5)
O2_2 O -0.5561(5) 0.1471(4) 1.5338(5)
O2A_2 O -0.4439(5) -0.1471(4) 1.4662(5)
O2A_3 O 0.5561(5) 0.8529(4) 0.4662(5)
O3A_2 O -0.8083(5) 0.0223(5) 1.2083(5)
O4_2 O -0.3346(5) -0.0147(5) 1.0652(5)
O4A_2 O 0.3346(5) 1.0147(5) 0.9348(5)
O10 O 0.9351(6) 1.3283(6) 0.5847(6)
loop_
_geom_bond_atom_site_label_1
_geom_bond_atom_site_label_2
_geom_bond_site_symmetry_1
_geom_bond_site_symmetry_2
Eu1 O1 1_555 1_555
O1 C1 1_555 1_555
O2 Eu1 1_555 1_555
O3 Eu1 1_555 1_555
O4 C3 1_555 1_555
O5 Eu1 1_555 1_555
O6 C5 1_555 1_555
O7 Eu1 1_555 1_555
O8 Eu1 1_555 1_555
O9 Eu1 1_555 1_555
C1 O2 1_555 1_555
C2 C1 1_555 1_555
H1 C2 1_555 1_555
C3 O3 1_555 1_555
C4 C3 1_555 1_555
H2 C4 1_555 1_555
C5 O5 1_555 1_555
C6 C5 1_555 1_555
H3 C6 1_555 1_555
O1A C1A 1_555 1_555
O2A C1A 1_555 1_555
C1A C2A 1_555 1_555
C2A C2 1_555 1_555
H1A C2A 1_555 1_555
O3A C3A 1_555 1_555
O4A C3A 1_555 1_555
C3A C4A 1_555 1_555
C4A C4 1_555 1_555
H2A C4A 1_555 1_555
O5A C5A 1_555 1_555
O6A C5A 1_555 1_555
C5A C6A 1_555 1_555
C6A C6 1_555 1_555
H3A C6A 1_555 1_555
Eu1A O5A 1_555 1_555
O7A Eu1A 1_555 1_555
O8A Eu1A 1_555 1_555
O9A Eu1A 1_555 1_555
Eu1_2 O2A 1_555 1_555
Eu1_3 O4A 1_555 1_555
Eu1A_2 O2 1_555 1_555
Eu1A_3 O4 1_555 1_555
Eu1A_4 O1A 1_555 1_555
Eu1A_5 O3A 1_555 1_555
O1A_2 Eu1A 1_555 1_555
O2_2 Eu1A 1_555 1_555
O2A_2 Eu1A 1_555 1_555
O2A_3 Eu1 1_555 1_555
O3A_2 Eu1A 1_555 1_555
O4_2 Eu1A 1_555 1_555
O4A_2 Eu1 1_555 1_555
O2A Eu1A_4 1_555 1_555
Eu1A_2 O2A_3 1_555 1_555

#END
