
#######################################################################
#
#                 Cambridge Crystallographic Data Centre
#                                CCDC 
#
#######################################################################
#
# If this CIF has been generated from an entry in the Cambridge 
# Structural Database, then it will include bibliographic, chemical, 
# crystal, experimental, refinement or atomic coordinate data resulting 
# from the CCDC's data processing and validation procedures.
#
#######################################################################

data_FUQHOP
_symmetry_cell_setting           triclinic
_symmetry_space_group_name_H-M   'P -1'
_symmetry_Int_Tables_number      2
_space_group_name_Hall           '-P 1'
loop_
_symmetry_equiv_pos_site_id
_symmetry_equiv_pos_as_xyz
1 x,y,z
2 -x,-y,-z
_cell_length_a                   9.199(3)
_cell_length_b                   11.414(3)
_cell_length_c                   11.540(4)
_cell_angle_alpha                83.39(2)
_cell_angle_beta                 82.91(3)
_cell_angle_gamma                70.42(3)
_cell_volume                     1129.35
loop_
_atom_site_label
_atom_site_type_symbol
_atom_site_fract_x
_atom_site_fract_y
_atom_site_fract_z
Ru1 Ru 0.26079(3) 0.03851(2) 0.25926(2)
N1 N 0.3132(3) 0.0919(3) 0.1187(3)
O1 O 0.3556(4) 0.1274(4) 0.0263(3)
O2 O 0.2005(3) -0.0265(2) 0.4173(2)
H1 H 0.269(4) -0.024(4) 0.4592(17)
O3 O 0.0792(3) -0.0062(2) 0.2155(2)
O4 O -0.1009(3) 0.3352(3) 0.3794(3)
O5 O 0.6823(3) -0.0268(2) 0.3809(2)
N2 N 0.1353(3) 0.2090(3) 0.3104(3)
N3 N 0.4319(3) 0.0695(3) 0.3288(2)
N4 N 0.4295(3) -0.1381(3) 0.2470(3)
C1 C -0.0497(4) 0.0866(3) 0.1901(3)
C2 C -0.1442(4) 0.0581(4) 0.1176(3)
H2 H -0.1122 -0.0205 0.0892
C3 C -0.2820(4) 0.1436(4) 0.0880(4)
H3 H -0.3407 0.1235 0.0383
C4 C -0.3339(5) 0.2592(4) 0.1316(4)
H4 H -0.4278 0.3170 0.1120
C5 C -0.2468(4) 0.2883(4) 0.2039(4)
H5 H -0.2838 0.3660 0.2341
C6 C -0.1018(4) 0.2044(3) 0.2345(3)
C7 C -0.0211(4) 0.2547(3) 0.3142(3)
C8 C 0.2284(4) 0.2615(3) 0.3644(3)
C9 C 0.1785(5) 0.3806(3) 0.4054(3)
H6 H 0.0739 0.4277 0.4075
C10 C 0.2819(5) 0.4298(4) 0.4429(4)
H7 H 0.2467 0.5098 0.4682
C11 C 0.4359(5) 0.3607(4) 0.4427(4)
H8 H 0.5049 0.3946 0.4671
C12 C 0.4897(4) 0.2411(3) 0.4065(3)
H9 H 0.5942 0.1946 0.4074
C13 C 0.3872(4) 0.1901(3) 0.3687(3)
C14 C 0.5652(4) -0.0248(3) 0.3386(3)
C15 C 0.5603(4) -0.1426(3) 0.2914(3)
C16 C 0.6823(4) -0.2522(4) 0.2983(3)
H10 H 0.7727 -0.2540 0.3279
C17 C 0.6713(4) -0.3595(4) 0.2614(4)
H11 H 0.7531 -0.4342 0.2664
C18 C 0.5359(4) -0.3534(4) 0.2169(4)
H12 H 0.5255 -0.4240 0.1907
C19 C 0.4167(4) -0.2414(3) 0.2117(4)
H13 H 0.3250 -0.2376 0.1830
O6 O -0.0838(4) 0.3239(3) 0.7570(3)
C20 C -0.0878(5) 0.3831(5) 0.8408(4)
C21 C -0.2326(6) 0.4878(5) 0.8751(5)
H14 H -0.2906 0.5204 0.8082
H15 H -0.2946 0.4569 0.9359
H16 H -0.2047 0.5528 0.9029
C22 C 0.0121(6) 0.3194(6) 0.9396(5)
H17 H 0.0996 0.2528 0.9106
H18 H 0.0475 0.3788 0.9702
H19 H -0.0476 0.2864 1.0006
K1 K 0.00167(9) 0.14570(8) 0.58812(8)
O2A O -0.2005(3) 0.0265(2) 0.5827(2)
H1A H -0.269(4) 0.024(4) 0.5408(17)
O3A O -0.0792(3) 0.0062(2) 0.7845(2)
O5A O 0.3177(3) 0.0268(2) 0.6191(2)
K1A K -0.00167(9) -0.14570(8) 0.41188(8)
K1A_2 K 0.99833(9) -0.14570(8) 0.41188(8)
loop_
_geom_bond_atom_site_label_1
_geom_bond_atom_site_label_2
_geom_bond_site_symmetry_1
_geom_bond_site_symmetry_2
Ru1 N1 1_555 1_555
N1 O1 1_555 1_555
O2 Ru1 1_555 1_555
H1 O2 1_555 1_555
O3 Ru1 1_555 1_555
O4 C7 1_555 1_555
O5 C14 1_555 1_555
N2 Ru1 1_555 1_555
N3 Ru1 1_555 1_555
N4 Ru1 1_555 1_555
C1 O3 1_555 1_555
C2 C1 1_555 1_555
H2 C2 1_555 1_555
C3 C2 1_555 1_555
H3 C3 1_555 1_555
C4 C3 1_555 1_555
H4 C4 1_555 1_555
C5 C4 1_555 1_555
H5 C5 1_555 1_555
C6 C1 1_555 1_555
C7 N2 1_555 1_555
C8 N2 1_555 1_555
C9 C8 1_555 1_555
H6 C9 1_555 1_555
C10 C9 1_555 1_555
H7 C10 1_555 1_555
C11 C10 1_555 1_555
H8 C11 1_555 1_555
C12 C11 1_555 1_555
H9 C12 1_555 1_555
C13 N3 1_555 1_555
C14 N3 1_555 1_555
C15 N4 1_555 1_555
C16 C15 1_555 1_555
H10 C16 1_555 1_555
C17 C16 1_555 1_555
H11 C17 1_555 1_555
C18 C17 1_555 1_555
H12 C18 1_555 1_555
C19 N4 1_555 1_555
H13 C19 1_555 1_555
O6 C20 1_555 1_555
C20 C21 1_555 1_555
C21 H14 1_555 1_555
H15 C21 1_555 1_555
H16 C21 1_555 1_555
C22 C20 1_555 1_555
H17 C22 1_555 1_555
H18 C22 1_555 1_555
H19 C22 1_555 1_555
K1 O2 1_555 1_555
O2A K1 1_555 1_555
H1A O2A 1_555 1_555
O3A K1 1_555 1_555
O5A K1 1_555 1_555
K1A O2 1_555 1_555
K1A_2 O5 1_555 1_555
O3 K1A 1_555 1_555
O4 K1 1_555 1_555
C5 C6 1_555 1_555
C6 C7 1_555 1_555
C8 C13 1_555 1_555
C12 C13 1_555 1_555
C14 C15 1_555 1_555
C18 C19 1_555 1_555
O6 K1 1_555 1_555
O2A K1A 1_555 1_555

#END
