
#######################################################################
#
#                 Cambridge Crystallographic Data Centre
#                                CCDC 
#
#######################################################################
#
# If this CIF has been generated from an entry in the Cambridge 
# Structural Database, then it will include bibliographic, chemical, 
# crystal, experimental, refinement or atomic coordinate data resulting 
# from the CCDC's data processing and validation procedures.
#
#######################################################################

data_FUQJUX
_symmetry_cell_setting           cubic
_symmetry_space_group_name_H-M   'F d -3 c'
_symmetry_Int_Tables_number      228
_space_group_name_Hall           '-F 4ud 2vw 3'
loop_
_symmetry_equiv_pos_site_id
_symmetry_equiv_pos_as_xyz
1 x,y,z
2 z,x,y
3 y,z,x
4 3/4+y,1/4+x,-z
5 1/4+y,-x,3/4+z
6 -y,3/4+x,1/4+z
7 3/4+x,1/4+z,-y
8 -x,3/4+z,1/4+y
9 1/4+x,-z,3/4+y
10 3/4+z,1/4+y,-x
11 1/4+z,-y,3/4+x
12 -z,3/4+y,1/4+x
13 x,1/2+y,1/2+z
14 1/4-x,1/4-y,z
15 z,1/2+x,1/2+y
16 1/4-z,1/4-x,y
17 y,1/2+z,1/2+x
18 1/4-y,1/4-z,x
19 1/4+y,1/2-x,1/4+z
20 -y,1/4+x,3/4+z
21 -x,1/4+z,3/4+y
22 1/4+x,1/2-z,1/4+y
23 1/4+z,1/2-y,1/4+x
24 -z,1/4+y,3/4+x
25 1/2+x,y,1/2+z
26 x,1/4-y,1/4-z
27 1/2+z,x,1/2+y
28 z,1/4-x,1/4-y
29 1/2+y,z,1/2+x
30 y,1/4-z,1/4-x
31 1/4+y,1/4+x,1/2-z
32 3/4+y,-x,1/4+z
33 1/4+x,1/4+z,1/2-y
34 3/4+x,-z,1/4+y
35 1/4+z,1/4+y,1/2-x
36 3/4+z,-y,1/4+x
37 1/2+x,1/2+y,z
38 1/4-x,y,1/4-z
39 1/2+z,1/2+x,y
40 1/4-z,x,1/4-y
41 1/2+y,1/2+z,x
42 1/4-y,z,1/4-x
43 1/4+y,3/4+x,-z
44 1/2-y,1/4+x,1/4+z
45 1/4+x,3/4+z,-y
46 1/2-x,1/4+z,1/4+y
47 1/4+z,3/4+y,-x
48 1/2-z,1/4+y,1/4+x
49 1/4-x,3/4-y,1/2+z
50 3/4-x,1/2+y,1/4-z
51 1/2+x,1/4-y,3/4-z
52 1/2+z,1/4-x,3/4-y
53 1/4-z,3/4-x,1/2+y
54 3/4-z,1/2+x,1/4-y
55 3/4-y,1/2+z,1/4-x
56 1/2+y,1/4-z,3/4-x
57 1/4-y,3/4-z,1/2+x
58 1/2-y,1/2-x,1/2-z
59 1/2-x,1/2-z,1/2-y
60 1/2-z,1/2-y,1/2-x
61 3/4-x,y,3/4-z
62 1/2+x,3/4-y,1/4-z
63 1/2+z,3/4-x,1/4-y
64 3/4-z,x,3/4-y
65 3/4-y,z,3/4-x
66 1/2+y,3/4-z,1/4-x
67 3/4+y,3/4+x,1/2-z
68 1/2-y,-x,-z
69 3/4+x,3/4+z,1/2-y
70 1/2-x,-z,-y
71 3/4+z,3/4+y,1/2-x
72 1/2-z,-y,-x
73 3/4-x,3/4-y,z
74 1/4-x,1/2+y,3/4-z
75 3/4-z,3/4-x,y
76 1/4-z,1/2+x,3/4-y
77 1/4-y,1/2+z,3/4-x
78 3/4-y,3/4-z,x
79 -y,1/2-x,-z
80 1/2-y,3/4+x,3/4+z
81 1/2-x,3/4+z,3/4+y
82 -x,1/2-z,-y
83 1/2-z,3/4+y,3/4+x
84 -z,1/2-y,-x
85 3/4-x,1/4-y,1/2+z
86 x,3/4-y,3/4-z
87 z,3/4-x,3/4-y
88 3/4-z,1/4-x,1/2+y
89 y,3/4-z,3/4-x
90 3/4-y,1/4-z,1/2+x
91 -y,-x,1/2-z
92 3/4+y,1/2-x,3/4+z
93 -x,-z,1/2-y
94 3/4+x,1/2-z,3/4+y
95 3/4+z,1/2-y,3/4+x
96 -z,-y,1/2-x
97 -x,-y,-z
98 -z,-x,-y
99 -y,-z,-x
100 1/4-y,3/4-x,z
101 3/4-y,x,1/4-z
102 y,1/4-x,3/4-z
103 1/4-x,3/4-z,y
104 x,1/4-z,3/4-y
105 3/4-x,z,1/4-y
106 1/4-z,3/4-y,x
107 3/4-z,y,1/4-x
108 z,1/4-y,3/4-x
109 -x,1/2-y,1/2-z
110 3/4+x,3/4+y,-z
111 -z,1/2-x,1/2-y
112 3/4+z,3/4+x,-y
113 -y,1/2-z,1/2-x
114 3/4+y,3/4+z,-x
115 3/4-y,1/2+x,3/4-z
116 y,3/4-x,1/4-z
117 x,3/4-z,1/4-y
118 3/4-x,1/2+z,3/4-y
119 3/4-z,1/2+y,3/4-x
120 z,3/4-y,1/4-x
121 1/2-x,-y,1/2-z
122 -x,3/4+y,3/4+z
123 1/2-z,-x,1/2-y
124 -z,3/4+x,3/4+y
125 1/2-y,-z,1/2-x
126 -y,3/4+z,3/4+x
127 3/4-y,3/4-x,1/2+z
128 1/4-y,x,3/4-z
129 3/4-x,3/4-z,1/2+y
130 1/4-x,z,3/4-y
131 3/4-z,3/4-y,1/2+x
132 1/4-z,y,3/4-x
133 1/2-x,1/2-y,-z
134 3/4+x,-y,3/4+z
135 1/2-z,1/2-x,-y
136 3/4+z,-x,3/4+y
137 1/2-y,1/2-z,-x
138 3/4+y,-z,3/4+x
139 3/4-y,1/4-x,z
140 1/2+y,3/4-x,3/4-z
141 3/4-x,1/4-z,y
142 1/2+x,3/4-z,3/4-y
143 3/4-z,1/4-y,x
144 1/2+z,3/4-y,3/4-x
145 3/4+x,1/4+y,1/2-z
146 1/4+x,1/2-y,3/4+z
147 1/2-x,3/4+y,1/4+z
148 1/2-z,3/4+x,1/4+y
149 3/4+z,1/4+x,1/2-y
150 1/4+z,1/2-x,3/4+y
151 1/4+y,1/2-z,3/4+x
152 1/2-y,3/4+z,1/4+x
153 3/4+y,1/4+z,1/2-x
154 1/2+y,1/2+x,1/2+z
155 1/2+x,1/2+z,1/2+y
156 1/2+z,1/2+y,1/2+x
157 1/4+x,-y,1/4+z
158 1/2-x,1/4+y,3/4+z
159 1/2-z,1/4+x,3/4+y
160 1/4+z,-x,1/4+y
161 1/4+y,-z,1/4+x
162 1/2-y,1/4+z,3/4+x
163 1/4-y,1/4-x,1/2+z
164 1/2+y,x,z
165 1/4-x,1/4-z,1/2+y
166 1/2+x,z,y
167 1/4-z,1/4-y,1/2+x
168 1/2+z,y,x
169 1/4+x,1/4+y,-z
170 3/4+x,1/2-y,1/4+z
171 1/4+z,1/4+x,-y
172 3/4+z,1/2-x,1/4+y
173 3/4+y,1/2-z,1/4+x
174 1/4+y,1/4+z,-x
175 y,1/2+x,z
176 1/2+y,1/4-x,1/4-z
177 1/2+x,1/4-z,1/4-y
178 x,1/2+z,y
179 1/2+z,1/4-y,1/4-x
180 z,1/2+y,x
181 1/4+x,3/4+y,1/2-z
182 -x,1/4+y,1/4+z
183 -z,1/4+x,1/4+y
184 1/4+z,3/4+x,1/2-y
185 -y,1/4+z,1/4+x
186 1/4+y,3/4+z,1/2-x
187 y,x,1/2+z
188 1/4-y,1/2+x,1/4-z
189 x,z,1/2+y
190 1/4-x,1/2+z,1/4-y
191 1/4-z,1/2+y,1/4-x
192 z,y,1/2+x
_cell_length_a                   36.2713(6)
_cell_length_b                   36.2713(6)
_cell_length_c                   36.2713(6)
_cell_angle_alpha                90
_cell_angle_beta                 90
_cell_angle_gamma                90
_cell_volume                     47718.8
loop_
_atom_site_label
_atom_site_type_symbol
_atom_site_fract_x
_atom_site_fract_y
_atom_site_fract_z
Cu1 Cu 0.0000 0.288388(10) 0.038388(10)
O1 O 0.0000 0.2500 0.0000
N1 N 0.04412(9) 0.30966(9) 0.01440(10)
N2 N 0.06310(10) 0.33916(9) 0.02427(10)
N3 N 0.17264(7) 0.42264(7) 0.0000
C1 C 0.09044(8) 0.34044(8) 0.0000
C2 C 0.11892(8) 0.36892(8) 0.0000
C3 C 0.14254(10) 0.37288(12) -0.02964(11)
H1 H 0.1404 0.3572 -0.0505
C4 C 0.16926(11) 0.40000(12) -0.02849(11)
H2 H 0.1857 0.4025 -0.0487
Cu1C Cu 0.038388(10) 0.2500 -0.038388(10)
Cu1Q Cu -0.038388(10) 0.211612(10) 0.0000
Cu1AD Cu 0.211612(10) 0.461612(10) 0.0000
Cu1RE Cu -0.211612(10) 0.2500 0.211612(10)
Cu1EG Cu -0.038388(10) 0.5000 0.211612(10)
Cu1PF Cu 0.038388(10) 0.461612(10) 0.2500
N1C N 0.05966(9) 0.29412(9) -0.01440(10)
N1T N -0.04412(9) 0.26440(10) 0.05966(9)
N1Q N -0.05966(9) 0.23560(10) 0.04412(9)
N1FD N -0.01440(10) 0.45588(9) 0.19034(9)
N1OD N 0.01440(10) 0.44034(9) 0.20588(9)
N1AA N 0.01440(10) 0.20588(9) -0.05966(9)
N1EC N -0.01440(10) 0.19034(9) -0.04412(9)
N2C N 0.08916(9) 0.31310(10) -0.02427(10)
N2T N -0.06310(10) 0.27427(10) 0.08916(9)
N2Q N -0.08916(9) 0.22573(10) 0.06310(10)
N2FD N -0.02427(10) 0.43690(10) 0.16084(9)
N2OD N 0.02427(10) 0.41084(9) 0.18690(10)
N3Q N -0.17264(7) 0.2500 0.17264(7)
N3FD N 0.0000 0.32736(7) 0.07736(7)
N3EF N 0.07736(7) 0.2500 -0.07736(7)
N3GF N -0.07736(7) 0.17264(7) 0.0000
C1Q C -0.09044(8) 0.2500 0.09044(8)
C1FD C 0.0000 0.40956(8) 0.15956(8)
C2Q C -0.11892(8) 0.2500 0.11892(8)
C2FD C 0.0000 0.38108(8) 0.13108(8)
C3C C 0.12288(12) 0.39254(10) 0.02964(11)
C3T C -0.14254(10) 0.22036(11) 0.12288(12)
C3Q C -0.12288(12) 0.27964(11) 0.14254(10)
C3FD C 0.02964(11) 0.35746(10) 0.12712(12)
C3OD C -0.02964(11) 0.37712(12) 0.10746(10)
H1C H 0.1072 0.3904 0.0505
H1T H -0.1404 0.1995 0.1072
H1Q H -0.1072 0.3005 0.1404
H1FD H 0.0505 0.3596 0.1428
H1OD H -0.0505 0.3928 0.1096
C4C C 0.15000(12) 0.41926(11) 0.02849(11)
C4T C -0.16926(11) 0.22151(11) 0.15000(12)
C4Q C -0.15000(12) 0.27849(11) 0.16926(11)
C4FD C 0.02849(11) 0.33074(11) 0.10000(12)
C4OD C -0.02849(11) 0.35000(12) 0.08074(11)
H2C H 0.1525 0.4357 0.0487
H2T H -0.1857 0.2013 0.1525
H2Q H -0.1525 0.2987 0.1857
H2FD H 0.0487 0.3143 0.0975
H2OD H -0.0487 0.3475 0.0643
O2 O 0.03967(15) 0.24736(13) 0.07461(16)
O3 O 0.1651(4) 0.3750 -0.1250
O4 O -0.0487(7) 0.1891(7) 0.1525(7)
loop_
_geom_bond_atom_site_label_1
_geom_bond_atom_site_label_2
_geom_bond_site_symmetry_1
_geom_bond_site_symmetry_2
Cu1 O1 1_555 1_555
O1 Cu1C 1_555 1_555
N1 Cu1 1_555 1_555
N2 N1 1_555 1_555
N3 C4 1_555 1_555
C1 N2 1_555 1_555
C2 C1 1_555 1_555
C3 C2 1_555 1_555
H1 C3 1_555 1_555
C4 C3 1_555 1_555
H2 C4 1_555 1_555
Cu1C N1C 1_555 1_555
Cu1Q O1 1_555 1_555
Cu1AD N3 1_555 1_555
Cu1RE N3Q 1_555 1_555
Cu1EG N1FD 1_555 1_555
Cu1PF N1OD 1_555 1_555
N1C N1 1_555 1_555
N1T Cu1 1_555 1_555
N1Q Cu1Q 1_555 1_555
N1FD N1OD 1_555 1_555
N1OD N2OD 1_555 1_555
N1AA Cu1C 1_555 1_555
N1EC Cu1Q 1_555 1_555
N2C C1 1_555 1_555
N2T N1T 1_555 1_555
N2Q N1Q 1_555 1_555
N2FD N1FD 1_555 1_555
N2OD C1FD 1_555 1_555
N3Q C4T 1_555 1_555
N3FD Cu1 1_555 1_555
N3EF Cu1C 1_555 1_555
N3GF Cu1Q 1_555 1_555
C1Q N2T 1_555 1_555
C1FD N2FD 1_555 1_555
C2Q C1Q 1_555 1_555
C2FD C1FD 1_555 1_555
C3C C2 1_555 1_555
C3T C2Q 1_555 1_555
C3Q C2Q 1_555 1_555
C3FD C2FD 1_555 1_555
C3OD C2FD 1_555 1_555
H1C C3C 1_555 1_555
H1T C3T 1_555 1_555
H1Q C3Q 1_555 1_555
H1FD C3FD 1_555 1_555
H1OD C3OD 1_555 1_555
C4C N3 1_555 1_555
C4T C3T 1_555 1_555
C4Q N3Q 1_555 1_555
C4FD N3FD 1_555 1_555
C4OD N3FD 1_555 1_555
H2C C4C 1_555 1_555
H2T C4T 1_555 1_555
H2Q C4Q 1_555 1_555
H2FD C4FD 1_555 1_555
H2OD C4OD 1_555 1_555
N1C N2C 1_555 1_555
N1T N1Q 1_555 1_555
N1AA N1EC 1_555 1_555
N2Q C1Q 1_555 1_555
C3C C4C 1_555 1_555
C3Q C4Q 1_555 1_555
C3FD C4FD 1_555 1_555
C3OD C4OD 1_555 1_555

#END
