
#######################################################################
#
#                 Cambridge Crystallographic Data Centre
#                                CCDC 
#
#######################################################################
#
# If this CIF has been generated from an entry in the Cambridge 
# Structural Database, then it will include bibliographic, chemical, 
# crystal, experimental, refinement or atomic coordinate data resulting 
# from the CCDC's data processing and validation procedures.
#
#######################################################################

data_FUQJOS
_symmetry_cell_setting           monoclinic
_symmetry_space_group_name_H-M   'P 21/c'
_symmetry_Int_Tables_number      14
_space_group_name_Hall           '-P 2ybc'
loop_
_symmetry_equiv_pos_site_id
_symmetry_equiv_pos_as_xyz
1 x,y,z
2 -x,1/2+y,1/2-z
3 -x,-y,-z
4 x,1/2-y,1/2+z
_cell_length_a                   13.949(11)
_cell_length_b                   14.523(11)
_cell_length_c                   13.569(10)
_cell_angle_alpha                90
_cell_angle_beta                 99.097(14)
_cell_angle_gamma                90
_cell_volume                     2714.25
loop_
_atom_site_label
_atom_site_type_symbol
_atom_site_fract_x
_atom_site_fract_y
_atom_site_fract_z
Co1 Co 0.25647(3) 0.01070(3) 0.77378(4)
S1 S 0.06462(6) 0.13534(6) 0.83688(7)
S2 S 0.46824(6) -0.12163(6) 0.81336(7)
N1 N -0.0244(2) 0.01641(19) 0.6742(2)
O1 O 0.54895(18) -0.07118(17) 0.86911(19)
N2 N 0.3381(2) 0.07069(19) 0.6688(2)
N3 N 0.4982(2) 0.01578(19) 0.6549(2)
O2 O 0.41379(19) -0.17886(17) 0.8725(2)
O3 O 0.13736(18) 0.19270(16) 0.89462(19)
O4 O 0.01093(18) 0.07625(16) 0.89456(19)
N4 N 0.1223(2) 0.07882(19) 0.7632(2)
N5 N 0.3886(2) -0.0567(2) 0.7510(2)
N6 N 0.1353(2) -0.03583(19) 0.6566(2)
C1 C 0.0967(3) -0.0992(2) 0.5887(3)
C2 C 0.4131(3) 0.0107(2) 0.6886(3)
C3 C -0.1191(3) 0.1961(2) 0.7635(3)
H1 H -0.1413 0.1454 0.7951
C4 C -0.0202(3) 0.2083(2) 0.7652(3)
C5 C 0.0718(2) 0.0186(2) 0.6945(3)
C6 C 0.5071(3) 0.0880(2) 0.5941(3)
C7 C 0.6583(3) -0.2478(2) 0.6650(3)
H2 H 0.7216 -0.2382 0.6535
C8 C -0.0623(3) -0.0476(2) 0.6079(3)
C9 C 0.5180(3) -0.1958(2) 0.7312(3)
C10 C 0.3489(3) 0.1424(2) 0.6091(3)
C11 C -0.0028(3) -0.1065(2) 0.5634(3)
H3 H -0.0299 -0.1502 0.5171
C12 C 0.4341(3) 0.1512(2) 0.5690(3)
H4 H 0.4417 0.1994 0.5257
C13 C -0.1849(3) 0.2587(2) 0.7150(3)
H5 H -0.2510 0.2502 0.7148
C14 C 0.6041(3) 0.0965(3) 0.5586(3)
H6 H 0.6449 0.0458 0.5837
H7 H 0.6346 0.1533 0.5825
H8 H 0.5945 0.0960 0.4870
C15 C 0.4682(3) -0.2753(2) 0.6961(3)
H9 H 0.4044 -0.2843 0.7062
C16 C 0.6116(3) -0.1807(2) 0.7126(3)
H10 H 0.6431 -0.1256 0.7321
C17 C 0.6111(3) -0.3286(2) 0.6346(3)
C18 C 0.5142(3) -0.3411(2) 0.6460(3)
H11 H 0.4807 -0.3933 0.6201
C19 C 0.2677(3) 0.2109(2) 0.5903(3)
H12 H 0.2158 0.1918 0.6246
H13 H 0.2443 0.2145 0.5200
H14 H 0.2909 0.2703 0.6144
C20 C -0.1710(3) -0.0525(3) 0.5886(3)
H15 H -0.1972 -0.0058 0.6267
H16 H -0.1916 -0.1120 0.6079
H17 H -0.1937 -0.0429 0.5188
C21 C 0.1660(3) -0.1586(3) 0.5433(3)
H18 H 0.2315 -0.1424 0.5710
H19 H 0.1563 -0.1493 0.4723
H20 H 0.1547 -0.2221 0.5574
N7 N -0.2214(2) 0.4017(2) 0.6252(2)
H21 H -0.2817 0.3954 0.6304
H22 H -0.2026 0.4488 0.5950
C22 C -0.0542(3) 0.3440(2) 0.6637(3)
H23 H -0.0327 0.3928 0.6285
C23 C -0.1528(3) 0.3340(2) 0.6666(3)
C24 C 0.0124(3) 0.2823(2) 0.7124(3)
H24 H 0.0783 0.2896 0.7103
N8 N 0.6647(2) -0.4024(2) 0.5975(2)
H25 H 0.7254 -0.3956 0.5945
H26 H 0.6359 -0.4532 0.5783
Co1A Co -0.25647(3) 0.51070(3) 0.72622(4)
Co1A_2 Co 0.74353(3) -0.48930(3) 0.72622(4)
N7A N 0.2214(2) -0.0983(2) 0.8748(2)
N8A N 0.3353(2) 0.0976(2) 0.9025(2)
O5 O -0.1712(2) 0.0386(2) 0.9400(2)
C25 C -0.1955(4) -0.0437(3) 0.8861(4)
H27 H -0.262(4) -0.047(3) 0.876(3)
H28 H -0.176(3) -0.037(3) 0.822(3)
H29 H -0.123(4) 0.049(4) 0.931(4)
H30 H -0.168(4) -0.096(4) 0.920(4)
loop_
_geom_bond_atom_site_label_1
_geom_bond_atom_site_label_2
_geom_bond_site_symmetry_1
_geom_bond_site_symmetry_2
Co1 N2 1_555 1_555
S1 O3 1_555 1_555
S2 O1 1_555 1_555
N1 C5 1_555 1_555
N2 C2 1_555 1_555
N3 C2 1_555 1_555
O2 S2 1_555 1_555
O4 S1 1_555 1_555
N4 Co1 1_555 1_555
N5 Co1 1_555 1_555
N6 Co1 1_555 1_555
C1 N6 1_555 1_555
C2 N5 1_555 1_555
C3 H1 1_555 1_555
C4 S1 1_555 1_555
C5 N4 1_555 1_555
C6 N3 1_555 1_555
C7 H2 1_555 1_555
C8 N1 1_555 1_555
C9 S2 1_555 1_555
C10 N2 1_555 1_555
C11 C1 1_555 1_555
H3 C11 1_555 1_555
C12 C6 1_555 1_555
H4 C12 1_555 1_555
C13 C3 1_555 1_555
H5 C13 1_555 1_555
C14 C6 1_555 1_555
H6 C14 1_555 1_555
H7 C14 1_555 1_555
H8 C14 1_555 1_555
C15 C9 1_555 1_555
H9 C15 1_555 1_555
C16 C7 1_555 1_555
H10 C16 1_555 1_555
C17 C7 1_555 1_555
C18 C15 1_555 1_555
H11 C18 1_555 1_555
C19 C10 1_555 1_555
H12 C19 1_555 1_555
H13 C19 1_555 1_555
H14 C19 1_555 1_555
C20 C8 1_555 1_555
H15 C20 1_555 1_555
H16 C20 1_555 1_555
H17 C20 1_555 1_555
C21 C1 1_555 1_555
H18 C21 1_555 1_555
H19 C21 1_555 1_555
H20 C21 1_555 1_555
N7 H21 1_555 1_555
H22 N7 1_555 1_555
C22 H23 1_555 1_555
C23 C13 1_555 1_555
C24 C4 1_555 1_555
H24 C24 1_555 1_555
N8 C17 1_555 1_555
H25 N8 1_555 1_555
H26 N8 1_555 1_555
O5 C25 1_555 1_555
C25 H27 1_555 1_555
H28 C25 1_555 1_555
H29 O5 1_555 1_555
H30 C25 1_555 1_555
Co1A N7 1_555 1_555
Co1A_2 N8 1_555 1_555
N7A Co1 1_555 1_555
N8A Co1 1_555 1_555
S1 N4 1_555 1_555
S2 N5 1_555 1_555
N6 C5 1_555 1_555
C3 C4 1_555 1_555
C8 C11 1_555 1_555
C9 C16 1_555 1_555
C10 C12 1_555 1_555
C17 C18 1_555 1_555
N7 C23 1_555 1_555
C22 C23 1_555 1_555
C22 C24 1_555 1_555

#END
