
#######################################################################
#
#                 Cambridge Crystallographic Data Centre
#                                CCDC 
#
#######################################################################
#
# If this CIF has been generated from an entry in the Cambridge 
# Structural Database, then it will include bibliographic, chemical, 
# crystal, experimental, refinement or atomic coordinate data resulting 
# from the CCDC's data processing and validation procedures.
#
#######################################################################

data_FUQKEI
_symmetry_cell_setting           orthorhombic
_symmetry_space_group_name_H-M   'A b a 2'
_symmetry_Int_Tables_number      41
_space_group_name_Hall           'A 2 -2ab'
loop_
_symmetry_equiv_pos_site_id
_symmetry_equiv_pos_as_xyz
1 x,y,z
2 -x,-y,z
3 1/2+x,1/2-y,z
4 1/2-x,1/2+y,z
5 x,1/2+y,1/2+z
6 -x,1/2-y,1/2+z
7 1/2+x,-y,1/2+z
8 1/2-x,y,1/2+z
_cell_length_a                   12.5617(7)
_cell_length_b                   15.4059(9)
_cell_length_c                   8.2576(5)
_cell_angle_alpha                90
_cell_angle_beta                 90
_cell_angle_gamma                90
_cell_volume                     1598.05
loop_
_atom_site_label
_atom_site_type_symbol
_atom_site_fract_x
_atom_site_fract_y
_atom_site_fract_z
Cu1 Cu 0.0000 0.5000 0.73374(9)
O1 O 0.0000 0.5000 1.0037(5)
H1 H 0.066(3) 0.483(2) 1.071(6)
N1 N 0.17582(11) 0.37070(9) 0.7555(2)
N2 N 0.14897(10) 0.45153(8) 0.7122(2)
N3 N 0.23049(19) 0.49249(10) 0.6468(4)
N4 N 0.31310(12) 0.43865(10) 0.6463(3)
N5 N 0.43730(9) 0.12183(7) 0.7300(2)
C1 C 0.27691(12) 0.36477(9) 0.7127(2)
C2 C 0.33780(11) 0.28342(9) 0.7251(3)
C3 C 0.41767(14) 0.26380(11) 0.6152(2)
H2 H 0.4393 0.3044 0.5386
C4 C 0.46473(14) 0.18240(11) 0.6218(2)
H3 H 0.5179 0.1693 0.5473
C5 C 0.36163(14) 0.14203(11) 0.8391(3)
H4 H 0.3432 0.1012 0.9172
C6 C 0.31041(14) 0.22143(12) 0.8391(3)
H5 H 0.2578 0.2331 0.9152
Cu1B Cu 0.5000 0.0000 0.73374(9)
Cu1B_2 Cu -0.5000 0.0000 0.73374(9)
H1A H -0.066(3) 0.517(2) 1.071(6)
N1B N -0.32418(11) 0.12930(9) 0.7555(2)
N2B N -0.35103(10) 0.04847(8) 0.7122(2)
N2A N -0.14897(10) 0.54847(8) 0.7122(2)
N3B N -0.26951(19) 0.00751(10) 0.6468(4)
N4B N -0.18690(12) 0.06135(10) 0.6463(3)
N5B N -0.06270(9) 0.37817(7) 0.7300(2)
N5C N 0.06270(9) 0.62183(7) 0.7300(2)
C1B C -0.22309(12) 0.13523(9) 0.7127(2)
C2B C -0.16220(11) 0.21658(9) 0.7251(3)
C3B C -0.08233(14) 0.23620(11) 0.6152(2)
H2B H -0.0607 0.1956 0.5386
C4B C -0.03527(14) 0.31760(11) 0.6218(2)
H3B H 0.0179 0.3307 0.5473
C5B C -0.13837(14) 0.35797(11) 0.8391(3)
H4B H -0.1568 0.3988 0.9172
C6B C -0.18959(14) 0.27857(12) 0.8391(3)
H5B H -0.2422 0.2669 0.9152
O2 O 0.0000 0.5000 0.4196(10)
loop_
_geom_bond_atom_site_label_1
_geom_bond_atom_site_label_2
_geom_bond_site_symmetry_1
_geom_bond_site_symmetry_2
Cu1 O1 1_555 1_555
O1 H1 1_555 1_555
N1 N2 1_555 1_555
N2 Cu1 1_555 1_555
N3 N2 1_555 1_555
N4 N3 1_555 1_555
N5 C4 1_555 1_555
C1 N1 1_555 1_555
C2 C1 1_555 1_555
C3 C2 1_555 1_555
H2 C3 1_555 1_555
C4 C3 1_555 1_555
H3 C4 1_555 1_555
C5 N5 1_555 1_555
H4 C5 1_555 1_555
C6 C2 1_555 1_555
H5 C6 1_555 1_555
Cu1B N5 1_555 1_555
Cu1B_2 N2B 1_555 1_555
H1A O1 1_555 1_555
N1B N2B 1_555 1_555
N2B N3B 1_555 1_555
N2A Cu1 1_555 1_555
N3B N4B 1_555 1_555
N4B C1B 1_555 1_555
N5B Cu1 1_555 1_555
N5C Cu1 1_555 1_555
C1B N1B 1_555 1_555
C2B C1B 1_555 1_555
C3B C2B 1_555 1_555
H2B C3B 1_555 1_555
C4B N5B 1_555 1_555
H3B C4B 1_555 1_555
C5B N5B 1_555 1_555
H4B C5B 1_555 1_555
C6B C2B 1_555 1_555
H5B C6B 1_555 1_555
N4 C1 1_555 1_555
C5 C6 1_555 1_555
C3B C4B 1_555 1_555
C5B C6B 1_555 1_555

#END
