
#######################################################################
#
#                 Cambridge Crystallographic Data Centre
#                                CCDC 
#
#######################################################################
#
# If this CIF has been generated from an entry in the Cambridge 
# Structural Database, then it will include bibliographic, chemical, 
# crystal, experimental, refinement or atomic coordinate data resulting 
# from the CCDC's data processing and validation procedures.
#
#######################################################################

data_FUQKOS
_symmetry_cell_setting           monoclinic
_symmetry_space_group_name_H-M   'C 2/c'
_symmetry_Int_Tables_number      15
_space_group_name_Hall           '-C 2yn'
loop_
_symmetry_equiv_pos_site_id
_symmetry_equiv_pos_as_xyz
1 x,y,z
2 1/2+x,1/2+y,z
3 -x,y,1/2-z
4 1/2-x,1/2+y,1/2-z
5 -x,-y,-z
6 1/2-x,1/2-y,-z
7 x,-y,1/2+z
8 1/2+x,1/2-y,1/2+z
_cell_length_a                   21.26(2)
_cell_length_b                   6.294(6)
_cell_length_c                   26.07(3)
_cell_angle_alpha                90
_cell_angle_beta                 111.06(5)
_cell_angle_gamma                90
_cell_volume                     3255.43
loop_
_atom_site_label
_atom_site_type_symbol
_atom_site_fract_x
_atom_site_fract_y
_atom_site_fract_z
Co1 Co 0.24752(2) 0.00021(7) 0.02926(2)
Cl1 Cl -0.00605(4) 0.2754(1) 0.03905(3)
Cl2 Cl 0.22357(4) 0.3796(1) 0.21699(3)
Cl3 Cl 0.18178(4) 0.1774(1) -0.05630(3)
Cl4 Cl 0.32263(4) -0.1757(1) -0.00916(3)
O1 O 0.0344(1) 0.3067(4) 0.1676(1)
O2 O 0.2975(1) -0.1712(4) 0.1047(1)
N1 N 0.1855(1) 0.1413(4) 0.0693(1)
N2 N 0.0734(1) 0.4349(4) 0.1546(1)
C1 C 0.2154(2) 0.2117(5) 0.1205(1)
C2 C 0.1803(2) 0.3105(5) 0.1495(1)
C3 C 0.1110(2) 0.3429(5) 0.1247(1)
C4 C 0.0800(2) 0.2626(5) 0.0717(1)
C5 C 0.1185(1) 0.1653(5) 0.0448(1)
C6 C 0.0684(2) 0.6704(5) 0.1621(1)
C7 C 0.1216(2) 0.7831(6) 0.1466(2)
C8 C 0.0788(2) 0.7085(7) 0.2223(2)
C9 C -0.0021(2) 0.7415(6) 0.1247(2)
C10 C 0.3689(2) -0.1621(6) 0.1369(1)
C11 C 0.3865(2) -0.3152(6) 0.1849(1)
H1 H 0.2614(2) 0.1879(5) 0.1370(1)
H2 H 0.1000(1) 0.1254(5) 0.0074(1)
H3 H 0.1638(2) 0.7379(6) 0.1666(2)
H4 H 0.1068(2) 0.7649(6) 0.1056(2)
H5 H 0.1138(2) 0.9409(6) 0.1506(2)
H6 H 0.1307(2) 0.6867(7) 0.2441(2)
H7 H 0.0687(2) 0.8557(7) 0.2261(2)
H8 H 0.0457(2) 0.6297(7) 0.2281(2)
H9 H -0.0006(2) 0.8818(6) 0.1307(2)
H10 H -0.0056(2) 0.7368(6) 0.0887(2)
H11 H -0.0346(2) 0.6618(6) 0.1337(2)
H12 H 0.3798(2) -0.0065(6) 0.1509(1)
H13 H 0.3988(2) -0.1945(6) 0.1119(1)
H14 H 0.2981(1) -0.3127(4) 0.1011(1)
H15 H 0.3638(2) -0.2792(6) 0.2067(1)
H16 H 0.4338(2) -0.3032(6) 0.2007(1)
H17 H 0.3778(2) -0.4612(6) 0.1767(1)
Co1E Co 0.25248(2) 0.49979(7) -0.02926(2)
Co1E_2 Co 0.25248(2) -0.50021(7) -0.02926(2)
Cl3E Cl 0.31822(4) 0.3226(1) 0.05630(3)
Cl4E Cl 0.17737(4) -0.3243(1) 0.00916(3)
loop_
_geom_bond_atom_site_label_1
_geom_bond_atom_site_label_2
_geom_bond_site_symmetry_1
_geom_bond_site_symmetry_2
Co1 Cl3 1_555 1_555
Cl1 C4 1_555 1_555
Cl2 C2 1_555 1_555
Cl3 Co1E 1_555 1_555
Cl4 Co1 1_555 1_555
O1 N2 1_555 1_555
O2 Co1 1_555 1_555
N1 Co1 1_555 1_555
N2 C3 1_555 1_555
C1 N1 1_555 1_555
C2 C1 1_555 1_555
C3 C2 1_555 1_555
C4 C3 1_555 1_555
C5 N1 1_555 1_555
C6 N2 1_555 1_555
C7 C6 1_555 1_555
C8 C6 1_555 1_555
C9 C6 1_555 1_555
C10 O2 1_555 1_555
C11 C10 1_555 1_555
H1 C1 1_555 1_555
H2 C5 1_555 1_555
H3 C7 1_555 1_555
H4 C7 1_555 1_555
H5 C7 1_555 1_555
H6 C8 1_555 1_555
H7 C8 1_555 1_555
H8 C8 1_555 1_555
H9 C9 1_555 1_555
H10 C9 1_555 1_555
H11 C9 1_555 1_555
H12 C10 1_555 1_555
H13 C10 1_555 1_555
H14 O2 1_555 1_555
H15 C11 1_555 1_555
H16 C11 1_555 1_555
H17 C11 1_555 1_555
Co1E Cl3E 1_555 1_555
Co1E_2 Cl4 1_555 1_555
Cl3E Co1 1_555 1_555
Cl4E Co1 1_555 1_555
C4 C5 1_555 1_555
Co1E_2 Cl4E 1_555 1_555

#END
