
#######################################################################
#
#                 Cambridge Crystallographic Data Centre
#                                CCDC 
#
#######################################################################
#
# If this CIF has been generated from an entry in the Cambridge 
# Structural Database, then it will include bibliographic, chemical, 
# crystal, experimental, refinement or atomic coordinate data resulting 
# from the CCDC's data processing and validation procedures.
#
#######################################################################

data_FUQLOU
_symmetry_cell_setting           triclinic
_symmetry_space_group_name_H-M   'P -1'
_symmetry_Int_Tables_number      2
_space_group_name_Hall           '-P 1'
loop_
_symmetry_equiv_pos_site_id
_symmetry_equiv_pos_as_xyz
1 x,y,z
2 -x,-y,-z
_cell_length_a                   12.0380(5)
_cell_length_b                   12.6424(3)
_cell_length_c                   14.5976(6)
_cell_angle_alpha                97.994(2)
_cell_angle_beta                 103.448(2)
_cell_angle_gamma                105.504(2)
_cell_volume                     2033.5
loop_
_atom_site_label
_atom_site_type_symbol
_atom_site_fract_x
_atom_site_fract_y
_atom_site_fract_z
C1 C 1.3446(3) 1.0639(2) 0.3384(2)
C2 C 1.3767(3) 1.1840(2) 0.3363(2)
C3 C 1.2852(3) 1.2347(2) 0.3301(2)
H1 H 1.2054 1.1898 0.3231
C4 C 1.3092(3) 1.3481(2) 0.3340(2)
C5 C 1.4258(3) 1.4148(3) 0.3419(2)
H2 H 1.4419 1.4928 0.3430
C6 C 1.5169(3) 1.3677(2) 0.3481(3)
H3 H 1.5954 1.4139 0.3528
C7 C 1.4967(3) 1.2510(2) 0.3479(2)
C8 C 1.5077(3) 0.8793(2) 0.3908(2)
C9 C 1.7247(3) 0.8551(3) 0.4453(3)
H4 H 1.7968 0.8577 0.4229
H5 H 1.7499 0.8735 0.5167
C10 C 1.6340(3) 0.7383(3) 0.4087(3)
H6 H 1.6589 0.6867 0.4485
H7 H 1.6304 0.7090 0.3412
C11 C 0.6014(3) 0.9066(2) 0.1536(2)
C12 C 0.5688(3) 0.7858(2) 0.1568(2)
C13 C 0.6608(3) 0.7371(2) 0.1665(2)
H8 H 0.7401 0.7820 0.1720
C14 C 0.6382(3) 0.6241(2) 0.1682(2)
C15 C 0.5217(3) 0.5577(3) 0.1579(2)
H9 H 0.5058 0.4800 0.1581
C16 C 0.4294(3) 0.6034(2) 0.1476(2)
H10 H 0.3506 0.5565 0.1411
C17 C 0.4487(3) 0.7194(2) 0.1463(2)
C18 C 0.4370(3) 1.0902(2) 0.1024(2)
C19 C 0.2202(3) 1.1066(3) 0.0332(3)
H11 H 0.2073 1.0922 -0.0375
H12 H 0.1413 1.0975 0.0459
C20 C 0.3033(3) 1.2250(3) 0.0790(3)
H13 H 0.2969 1.2478 0.1447
H14 H 0.2804 1.2781 0.0402
N1 N 1.4371(2) 1.0228(2) 0.35810(19)
H15 H 1.5105 1.0649 0.3635
N2 N 1.4156(2) 0.91263(19) 0.36983(19)
N3 N 0.5084(2) 0.9474(2) 0.13405(19)
H16 H 0.4348 0.9045 0.1269
N4 N 0.5306(2) 1.05837(19) 0.12535(19)
O1 O 1.23848(19) 1.00446(16) 0.32654(16)
O2 O 1.2398(2) 1.49887(18) 0.42159(18)
O3 O 1.0867(2) 1.32614(17) 0.32789(18)
O4 O 1.1854(2) 1.46345(19) 0.24739(18)
O5 O 1.5865(2) 1.20942(17) 0.35813(16)
O6 O 0.7076(2) 0.96566(16) 0.16553(16)
O7 O 0.8290(3) 0.6068(2) 0.1256(2)
O8 O 0.8279(2) 0.62209(19) 0.29155(19)
O9 O 0.7106(2) 0.45035(18) 0.17632(19)
O10 O 0.3585(2) 0.76043(17) 0.13540(16)
O11 O 0.9780(2) 1.18195(18) 0.43690(18)
O12 O 0.8967(2) 1.53613(18) 0.44881(17)
O13 O 0.9949(2) 0.43338(18) 0.08114(17)
O14 O 1.1799(2) 0.68372(17) 0.21801(17)
O15 O 1.0058(2) 0.82027(18) 0.37065(18)
O16 O 0.9562(2) 1.16952(18) 0.14737(17)
O17 O 0.7616(2) 1.29376(17) 0.05516(16)
O18 O 1.0129(3) 0.79195(19) 0.04058(19)
O19 O 0.7657(2) 1.28624(17) 0.27765(16)
O20 O 1.2201(2) 0.71154(17) 0.47814(16)
Na1 Na 1.19861(12) 0.82045(10) 0.35598(10)
Na2 Na 0.75094(12) 1.14969(9) 0.14055(9)
Na3 Na 0.92307(12) 1.35326(10) 0.42423(10)
Na4 Na 0.99904(12) 0.62257(10) 0.08184(10)
S1 S 1.19672(8) 1.41338(6) 0.33174(6)
S2 S 1.65644(8) 0.95668(7) 0.39983(7)
S3 S 1.48800(8) 0.74459(7) 0.41522(6)
S4 S 0.76040(8) 0.57136(6) 0.18986(7)
S5 S 0.28758(8) 1.00741(7) 0.08383(7)
S6 S 0.45571(8) 1.22767(6) 0.08432(6)
H17 H 1.0492 1.2217 0.4382
H18 H 0.9813 1.1799 0.4963
H19 H 0.8636 1.5643 0.4081
H20 H 0.8597 1.5585 0.4947
H21 H 1.0453 0.4345 0.1337
H22 H 0.9269 0.3882 0.0810
H23 H 1.1848 0.6200 0.2271
H24 H 1.2359 0.7016 0.1859
H25 H 0.9828 0.8802 0.3465
H26 H 0.9535 0.7615 0.3386
H27 H 1.0040 1.2266 0.1971
H28 H 1.0051 1.1303 0.1619
H29 H 0.7197 1.2790 0.0018
H30 H 0.7610 1.3542 0.0846
H31 H 1.0355 0.8548 0.0677
H32 H 1.0221 0.8047 -0.0154
H33 H 0.7051 1.2627 0.2986
H34 H 0.7631 1.3546 0.2557
H35 H 1.2869 0.7349 0.5288
H36 H 1.2355 0.6458 0.4544
O12A O 1.1033(2) 1.46387(18) 0.55119(17)
O13A O 1.0051(2) 0.56662(18) -0.08114(17)
O20A O 0.7799(2) 1.28846(17) 0.52186(16)
Na3A Na 1.07693(12) 0.64674(10) 0.57577(10)
Na3A_2 Na 1.07693(12) 1.64674(10) 0.57577(10)
Na4A Na 1.00096(12) 0.37743(10) -0.08184(10)
O21 O 0.9026(2) 0.97847(18) 0.30717(17)
H37 H 0.8307 0.9671 0.2776
H38 H 0.9185 1.0383 0.3568
O22 O 1.0420(2) 0.98693(18) 0.17890(17)
H39 H 1.0082 0.9999 0.2220
H40 H 1.1039 1.0134 0.2216
loop_
_geom_bond_atom_site_label_1
_geom_bond_atom_site_label_2
_geom_bond_site_symmetry_1
_geom_bond_site_symmetry_2
C1 C2 1_555 1_555
C2 C3 1_555 1_555
C3 H1 1_555 1_555
C4 C3 1_555 1_555
C5 C4 1_555 1_555
H2 C5 1_555 1_555
C6 C5 1_555 1_555
H3 C6 1_555 1_555
C7 C2 1_555 1_555
C8 N2 1_555 1_555
C9 H4 1_555 1_555
H5 C9 1_555 1_555
C10 C9 1_555 1_555
H6 C10 1_555 1_555
H7 C10 1_555 1_555
C11 C12 1_555 1_555
C12 C13 1_555 1_555
C13 H8 1_555 1_555
C14 C13 1_555 1_555
C15 C14 1_555 1_555
H9 C15 1_555 1_555
C16 C15 1_555 1_555
H10 C16 1_555 1_555
C17 C12 1_555 1_555
C18 N4 1_555 1_555
C19 H11 1_555 1_555
H12 C19 1_555 1_555
C20 C19 1_555 1_555
H13 C20 1_555 1_555
H14 C20 1_555 1_555
N1 C1 1_555 1_555
H15 N1 1_555 1_555
N2 N1 1_555 1_555
N3 C11 1_555 1_555
H16 N3 1_555 1_555
N4 N3 1_555 1_555
O1 C1 1_555 1_555
O2 S1 1_555 1_555
O3 Na3 1_555 1_555
O4 S1 1_555 1_555
O5 C7 1_555 1_555
O6 C11 1_555 1_555
O7 Na4 1_555 1_555
O8 S4 1_555 1_555
O9 S4 1_555 1_555
O10 C17 1_555 1_555
O11 Na3 1_555 1_555
O12 Na3 1_555 1_555
O13 Na4 1_555 1_555
O14 Na1 1_555 1_555
O15 Na1 1_555 1_555
O16 Na2 1_555 1_555
O17 Na2 1_555 1_555
O18 Na4 1_555 1_555
O19 Na2 1_555 1_555
O20 Na1 1_555 1_555
Na1 N2 1_555 1_555
Na2 N4 1_555 1_555
Na3 O19 1_555 1_555
Na4 O14 1_555 1_555
S1 C4 1_555 1_555
S2 C8 1_555 1_555
S3 C8 1_555 1_555
S4 C14 1_555 1_555
S5 C18 1_555 1_555
S6 C18 1_555 1_555
H17 O11 1_555 1_555
H18 O11 1_555 1_555
H19 O12 1_555 1_555
H20 O12 1_555 1_555
H21 O13 1_555 1_555
H22 O13 1_555 1_555
H23 O14 1_555 1_555
H24 O14 1_555 1_555
H25 O15 1_555 1_555
H26 O15 1_555 1_555
H27 O16 1_555 1_555
H28 O16 1_555 1_555
H29 O17 1_555 1_555
H30 O17 1_555 1_555
H31 O18 1_555 1_555
H32 O18 1_555 1_555
H33 O19 1_555 1_555
H34 O19 1_555 1_555
H35 O20 1_555 1_555
H36 O20 1_555 1_555
O21 H37 1_555 1_555
H38 O21 1_555 1_555
O22 H39 1_555 1_555
H40 O22 1_555 1_555
O12A Na3 1_555 1_555
O13A Na4 1_555 1_555
O20A Na3 1_555 1_555
Na3A O20 1_555 1_555
Na3A_2 O12 1_555 1_555
Na4A O13 1_555 1_555
C6 C7 1_555 1_555
C9 S2 1_555 1_555
C10 S3 1_555 1_555
C16 C17 1_555 1_555
C19 S5 1_555 1_555
C20 S6 1_555 1_555
O1 Na1 1_555 1_555
O3 S1 1_555 1_555
O6 Na2 1_555 1_555
O7 S4 1_555 1_555
O12A Na3A_2 1_555 1_555
O13A Na4A 1_555 1_555

#END
