
#######################################################################
#
#                 Cambridge Crystallographic Data Centre
#                                CCDC 
#
#######################################################################
#
# If this CIF has been generated from an entry in the Cambridge 
# Structural Database, then it will include bibliographic, chemical, 
# crystal, experimental, refinement or atomic coordinate data resulting 
# from the CCDC's data processing and validation procedures.
#
#######################################################################

data_FUQMAH
_symmetry_cell_setting           monoclinic
_symmetry_space_group_name_H-M   'P 21/c'
_symmetry_Int_Tables_number      14
_space_group_name_Hall           '-P 2ybc'
loop_
_symmetry_equiv_pos_site_id
_symmetry_equiv_pos_as_xyz
1 x,y,z
2 -x,1/2+y,1/2-z
3 -x,-y,-z
4 x,1/2-y,1/2+z
_cell_length_a                   10.3427(3)
_cell_length_b                   12.7643(3)
_cell_length_c                   13.3160(4)
_cell_angle_alpha                90
_cell_angle_beta                 100.4280(10)
_cell_angle_gamma                90
_cell_volume                     1728.91
loop_
_atom_site_label
_atom_site_type_symbol
_atom_site_fract_x
_atom_site_fract_y
_atom_site_fract_z
C1 C 0.20637(13) -0.06520(11) 0.65595(10)
H1 H 0.1096 -0.0589 0.6474
H2 H 0.2330 -0.0477 0.5902
C2 C 0.24920(12) -0.17554(10) 0.68818(9)
H3 H 0.2236 -0.2247 0.6305
H4 H 0.2070 -0.1985 0.7455
C3 C 0.42754(11) -0.05341(9) 0.79115(8)
C4 C 0.62610(11) 0.11053(9) 0.96395(8)
C5 C 0.60147(11) 0.21323(9) 1.00920(8)
C6 C 0.70975(11) 0.26982(9) 1.06025(8)
H5 H 0.7957 0.2417 1.0648
C7 C 0.69344(11) 0.36621(9) 1.10424(8)
C8 C 0.56714(12) 0.40854(10) 1.09788(9)
H6 H 0.5559 0.4747 1.1278
C9 C 0.45952(12) 0.35399(9) 1.04828(10)
H7 H 0.3744 0.3833 1.0447
C10 C 0.47211(11) 0.25519(9) 1.00231(8)
N1 N 0.52998(10) -0.02734(8) 0.85687(7)
N2 N 0.52192(10) 0.07068(8) 0.90046(8)
O1 O 0.73509(8) 0.06512(7) 0.98147(7)
O2 O 0.36619(8) 0.20535(7) 0.95649(7)
O3 O 0.94280(9) 0.36596(8) 1.17677(8)
O4 O 0.80250(10) 0.46481(8) 1.26831(7)
O5 O 0.84516(10) 0.52930(7) 1.10704(7)
O6 O 0.95196(16) -0.15149(12) 1.10486(10)
O7 O 0.87568(12) -0.33319(9) 0.94357(9)
O8 O 1.03582(11) -0.08436(10) 0.88330(10)
O9 O 0.78127(13) -0.20555(9) 0.71422(8)
S1 S 0.28558(3) 0.02295(3) 0.75568(2)
S2 S 0.42648(3) -0.17340(2) 0.72730(2)
S3 S 0.83043(3) 0.43633(2) 1.16832(2)
Ba1 Ba 0.788439(6) -0.132152(5) 0.911283(5)
H8 H 0.928(3) -0.182(2) 1.147(2)
H9 H 0.883(2) -0.3744(18) 0.991(2)
H10 H 1.109(3) -0.088(2) 0.921(2)
H11 H 0.725(3) -0.229(2) 0.673(2)
H12 H 0.447(2) 0.1002(16) 0.9040(15)
H13 H 1.028(4) -0.135(3) 1.115(3)
H14 H 0.932(2) -0.3489(17) 0.9144(17)
H15 H 1.036(3) -0.033(2) 0.855(2)
H16 H 0.802(2) -0.153(2) 0.6816(19)
O2B O 0.63381(8) -0.20535(7) 1.04351(7)
O4C O 0.80250(10) 0.03519(8) 0.76831(7)
Ba1B Ba 0.211561(6) 0.132152(5) 1.088717(5)
Ba1C Ba 0.788439(6) 0.632152(5) 1.411283(5)
loop_
_geom_bond_atom_site_label_1
_geom_bond_atom_site_label_2
_geom_bond_site_symmetry_1
_geom_bond_site_symmetry_2
C1 H1 1_555 1_555
H2 C1 1_555 1_555
C2 C1 1_555 1_555
H3 C2 1_555 1_555
H4 C2 1_555 1_555
C3 N1 1_555 1_555
C4 C5 1_555 1_555
C5 C6 1_555 1_555
C6 H5 1_555 1_555
C7 C6 1_555 1_555
C8 C7 1_555 1_555
H6 C8 1_555 1_555
C9 C8 1_555 1_555
H7 C9 1_555 1_555
C10 C5 1_555 1_555
N1 N2 1_555 1_555
N2 C4 1_555 1_555
O1 C4 1_555 1_555
O2 C10 1_555 1_555
O3 S3 1_555 1_555
O4 S3 1_555 1_555
O5 S3 1_555 1_555
O6 Ba1 1_555 1_555
O7 Ba1 1_555 1_555
O8 Ba1 1_555 1_555
O9 Ba1 1_555 1_555
S1 C1 1_555 1_555
S2 C2 1_555 1_555
S3 C7 1_555 1_555
Ba1 N1 1_555 1_555
H8 O6 1_555 1_555
H9 O7 1_555 1_555
H10 O8 1_555 1_555
H11 O9 1_555 1_555
H12 N2 1_555 1_555
H13 O6 1_555 1_555
H14 O7 1_555 1_555
H15 O8 1_555 1_555
H16 O9 1_555 1_555
O2B Ba1 1_555 1_555
O4C Ba1 1_555 1_555
Ba1B O2 1_555 1_555
Ba1C O4 1_555 1_555
C3 S1 1_555 1_555
C3 S2 1_555 1_555
C9 C10 1_555 1_555
O1 Ba1 1_555 1_555

#END
