
#######################################################################
#
#                 Cambridge Crystallographic Data Centre
#                                CCDC 
#
#######################################################################
#
# If this CIF has been generated from an entry in the Cambridge 
# Structural Database, then it will include bibliographic, chemical, 
# crystal, experimental, refinement or atomic coordinate data resulting 
# from the CCDC's data processing and validation procedures.
#
#######################################################################

data_FUQMUB
_symmetry_cell_setting           triclinic
_symmetry_space_group_name_H-M   'P -1'
_symmetry_Int_Tables_number      2
_space_group_name_Hall           '-P 1'
loop_
_symmetry_equiv_pos_site_id
_symmetry_equiv_pos_as_xyz
1 x,y,z
2 -x,-y,-z
_cell_length_a                   6.9246(2)
_cell_length_b                   11.0148(5)
_cell_length_c                   12.8093(6)
_cell_angle_alpha                75.661(2)
_cell_angle_beta                 76.031(3)
_cell_angle_gamma                71.806(3)
_cell_volume                     884.842
loop_
_atom_site_label
_atom_site_type_symbol
_atom_site_fract_x
_atom_site_fract_y
_atom_site_fract_z
C1 C 0.9395(5) 0.7865(4) 0.6995(3)
C2 C 0.8977(6) 0.9095(4) 0.6302(3)
H1 H 0.9165 0.9154 0.5533
C3 C 0.8298(6) 1.0210(4) 0.6738(3)
H2 H 0.8059 1.1030 0.6258
C4 C 0.7943(5) 1.0172(4) 0.7884(3)
C5 C 0.8389(5) 0.8919(3) 0.8565(3)
C6 C 0.9096(5) 0.7801(4) 0.8111(3)
H3 H 0.9379 0.6974 0.8579
C7 C 0.8074(5) 0.8723(4) 0.9780(3)
C8 C 0.6625(5) 1.0752(4) 1.1697(3)
C9 C 0.6399(6) 1.2073(4) 1.0979(4)
H4 H 0.7593 1.2050 1.0382
H5 H 0.6324 1.2710 1.1413
H6 H 0.5133 1.2321 1.0673
C10 C 0.6317(6) 1.0679(4) 1.2905(3)
H7 H 0.6399 0.9779 1.3283
H8 H 0.4956 1.1240 1.3153
H9 H 0.7393 1.0969 1.3070
N1 N 0.7396(5) 0.9801(3) 1.0212(3)
N2 N 0.7071(5) 0.9684(3) 1.1347(3)
O1 O 1.1904(5) 0.6589(3) 0.5558(3)
O2 O 0.8377(5) 0.6446(3) 0.6015(3)
O3 O 1.0688(4) 0.5359(3) 0.7310(2)
O4 O 0.7222(4) 1.1259(2) 0.8268(2)
O5 O 0.8421(4) 0.7604(3) 1.0360(2)
O6 O 0.9745(5) 0.7362(3) 1.2784(3)
O7 O 0.5543(5) 0.7333(4) 1.4554(3)
O8 O 0.3333(5) 0.5689(3) 1.3639(3)
O9 O 0.5600(6) 0.5611(3) 1.1129(3)
S1 S 1.01487(14) 0.64649(9) 0.64273(7)
Ba1 Ba 0.62780(3) 0.70188(2) 1.24140(2)
H10 H 0.723(7) 1.051(5) 0.970(4)
H11 H 1.060(11) 0.685(7) 1.317(6)
H12 H 1.038(11) 0.795(7) 1.248(6)
H13 H 0.643(11) 0.731(7) 1.483(6)
H14 H 0.452(8) 0.720(5) 1.499(4)
H15 H 0.277(9) 0.585(6) 1.434(6)
H16 H 0.314(9) 0.502(6) 1.367(5)
H17 H 0.443(12) 0.564(7) 1.118(6)
H18 H 0.643(11) 0.535(7) 1.064(6)
O3A O 0.9312(4) 0.4641(3) 1.2690(2)
O4A O 0.2778(4) 0.8741(2) 1.1732(2)
Ba1A Ba 0.37220(3) 1.29812(2) 0.75860(2)
Ba1A_2 Ba 1.37220(3) 0.29812(2) 0.75860(2)
O10 O 0.1844(5) 0.5431(3) 0.0716(3)
H19 H 0.129(9) 0.512(6) 0.142(6)
H20 H 0.104(9) 0.605(6) 0.052(5)
loop_
_geom_bond_atom_site_label_1
_geom_bond_atom_site_label_2
_geom_bond_site_symmetry_1
_geom_bond_site_symmetry_2
C1 C2 1_555 1_555
C2 H1 1_555 1_555
C3 C2 1_555 1_555
H2 C3 1_555 1_555
C4 C3 1_555 1_555
C5 C4 1_555 1_555
C6 C1 1_555 1_555
H3 C6 1_555 1_555
C7 C5 1_555 1_555
C8 C9 1_555 1_555
C9 H4 1_555 1_555
H5 C9 1_555 1_555
H6 C9 1_555 1_555
C10 C8 1_555 1_555
H7 C10 1_555 1_555
H8 C10 1_555 1_555
H9 C10 1_555 1_555
N1 C7 1_555 1_555
N2 C8 1_555 1_555
O1 S1 1_555 1_555
O2 S1 1_555 1_555
O3 S1 1_555 1_555
O4 C4 1_555 1_555
O5 C7 1_555 1_555
O6 Ba1 1_555 1_555
O7 Ba1 1_555 1_555
O8 Ba1 1_555 1_555
O9 Ba1 1_555 1_555
S1 C1 1_555 1_555
Ba1 N2 1_555 1_555
H10 N1 1_555 1_555
H11 O6 1_555 1_555
H12 O6 1_555 1_555
H13 O7 1_555 1_555
H14 O7 1_555 1_555
H15 O8 1_555 1_555
H16 O8 1_555 1_555
H17 O9 1_555 1_555
H18 O9 1_555 1_555
O10 H19 1_555 1_555
H20 O10 1_555 1_555
O3A Ba1 1_555 1_555
O4A Ba1 1_555 1_555
Ba1A O4 1_555 1_555
Ba1A_2 O3 1_555 1_555
C5 C6 1_555 1_555
N1 N2 1_555 1_555
O5 Ba1 1_555 1_555

#END
