
#######################################################################
#
#                 Cambridge Crystallographic Data Centre
#                                CCDC 
#
#######################################################################
#
# If this CIF has been generated from an entry in the Cambridge 
# Structural Database, then it will include bibliographic, chemical, 
# crystal, experimental, refinement or atomic coordinate data resulting 
# from the CCDC's data processing and validation procedures.
#
#######################################################################

data_FUQMIP
_symmetry_cell_setting           monoclinic
_symmetry_space_group_name_H-M   'P 21/c'
_symmetry_Int_Tables_number      14
_space_group_name_Hall           '-P 2ybc'
loop_
_symmetry_equiv_pos_site_id
_symmetry_equiv_pos_as_xyz
1 x,y,z
2 -x,1/2+y,1/2-z
3 -x,-y,-z
4 x,1/2-y,1/2+z
_cell_length_a                   7.5089(2)
_cell_length_b                   11.7745(2)
_cell_length_c                   17.0077(4)
_cell_angle_alpha                90
_cell_angle_beta                 102.7560(10)
_cell_angle_gamma                90
_cell_volume                     1466.6
loop_
_atom_site_label
_atom_site_type_symbol
_atom_site_fract_x
_atom_site_fract_y
_atom_site_fract_z
C1 C 0.3952(3) 0.92969(15) 0.78001(11)
C2 C 0.3757(3) 0.81236(16) 0.76665(12)
H1 H 0.3876 0.7619 0.8111
C3 C 0.3392(3) 0.77014(16) 0.68934(12)
H2 H 0.3245 0.6905 0.6815
C4 C 0.3228(3) 0.84158(16) 0.62096(12)
C5 C 0.3466(3) 0.96078(16) 0.63603(11)
C6 C 0.3820(3) 1.00226(16) 0.71493(12)
H3 H 0.3973 1.0816 0.7241
C7 C 0.3374(3) 1.04535(16) 0.57102(11)
C8 C 0.1803(3) 1.04393(19) 0.36194(13)
C9 C 0.1141(4) 0.9247(2) 0.34546(15)
H4 H 0.2178 0.8723 0.3589
H5 H 0.0551 0.9168 0.2883
H6 H 0.0260 0.9067 0.3784
C10 C 0.1593(4) 1.1242(2) 0.29211(14)
H7 H 0.2031 1.1996 0.3117
H8 H 0.0302 1.1289 0.2647
H9 H 0.2307 1.0964 0.2543
N1 N 0.2723(3) 1.00749(15) 0.49591(10)
N2 N 0.2551(3) 1.08326(15) 0.43189(10)
O1 O 0.3973(2) 0.89544(11) 0.92998(8)
O2 O 0.6508(2) 1.00019(12) 0.89851(9)
O3 O 0.35575(19) 1.08994(11) 0.88000(8)
O4 O 0.2921(2) 0.79839(11) 0.54817(8)
O5 O 0.3843(2) 1.14625(11) 0.58588(8)
O6 O -0.0205(3) 0.95354(16) 1.08835(11)
O7 O -0.1197(3) 0.80985(19) 0.9225(2)
Na1 Na 0.57307(12) 0.76348(6) 1.02113(5)
Na2 Na 0.15292(11) 0.87430(7) 1.00069(5)
S1 S 0.45290(6) 0.98218(4) 0.87905(3)
H10 H 0.256(4) 0.938(2) 0.4910(16)
H11 H 0.067(8) 0.966(5) 1.138(3)
H12 H -0.120(6) 0.930(4) 1.106(2)
H13 H -0.177(5) 0.861(3) 0.908(2)
H14 H -0.188(6) 0.740(4) 0.913(2)
N2A N 0.7449(3) 0.58326(15) 1.06811(10)
O2B O 0.3492(2) 0.99981(12) 1.10149(9)
O3B O 0.64425(19) 0.91006(11) 1.12000(8)
O4C O 0.2921(2) 0.70161(11) 1.04817(8)
O5A O 0.6157(2) 0.64625(11) 0.91412(8)
O6B O 0.0205(3) 1.04646(16) 0.91165(11)
Na1A Na 0.42693(12) 1.26348(6) 0.47887(5)
Na1B Na 0.42693(12) 1.23652(6) 0.97887(5)
Na1C Na 0.57307(12) 0.73652(6) 0.52113(5)
Na2B Na -0.15292(11) 1.12570(7) 0.99931(5)
Na2B_2 Na 0.84708(11) 1.12570(7) 0.99931(5)
Na2C Na 0.15292(11) 0.62570(7) 0.50069(5)
loop_
_geom_bond_atom_site_label_1
_geom_bond_atom_site_label_2
_geom_bond_site_symmetry_1
_geom_bond_site_symmetry_2
C1 C2 1_555 1_555
C2 H1 1_555 1_555
C3 C2 1_555 1_555
H2 C3 1_555 1_555
C4 C3 1_555 1_555
C5 C4 1_555 1_555
C6 C1 1_555 1_555
H3 C6 1_555 1_555
C7 C5 1_555 1_555
C8 C9 1_555 1_555
C9 H4 1_555 1_555
H5 C9 1_555 1_555
H6 C9 1_555 1_555
C10 C8 1_555 1_555
H7 C10 1_555 1_555
H8 C10 1_555 1_555
H9 C10 1_555 1_555
N1 C7 1_555 1_555
N2 C8 1_555 1_555
O1 Na1 1_555 1_555
O2 S1 1_555 1_555
O3 S1 1_555 1_555
O4 C4 1_555 1_555
O5 C7 1_555 1_555
O6 Na2 1_555 1_555
O7 Na2 1_555 1_555
Na1 N2A 1_555 1_555
Na2 O1 1_555 1_555
S1 C1 1_555 1_555
H10 N1 1_555 1_555
H11 O6 1_555 1_555
H12 O6 1_555 1_555
H13 O7 1_555 1_555
H14 O7 1_555 1_555
O2B Na2 1_555 1_555
O3B Na1 1_555 1_555
O4C Na1 1_555 1_555
O5A Na1 1_555 1_555
O6B Na2 1_555 1_555
Na1A N2 1_555 1_555
Na1B O3 1_555 1_555
Na1C O4 1_555 1_555
Na2B O6 1_555 1_555
Na2B_2 O2 1_555 1_555
Na2C O4 1_555 1_555
C5 C6 1_555 1_555
N1 N2 1_555 1_555
O1 S1 1_555 1_555
O5 Na1A 1_555 1_555
Na2 O4C 1_555 1_555
O6B Na2B 1_555 1_555

#END
