
#######################################################################
#
#                 Cambridge Crystallographic Data Centre
#                                CCDC 
#
#######################################################################
#
# If this CIF has been generated from an entry in the Cambridge 
# Structural Database, then it will include bibliographic, chemical, 
# crystal, experimental, refinement or atomic coordinate data resulting 
# from the CCDC's data processing and validation procedures.
#
#######################################################################

data_FUQPAK
_symmetry_cell_setting           monoclinic
_symmetry_space_group_name_H-M   'C 2/c'
_symmetry_Int_Tables_number      15
_space_group_name_Hall           '-C 2yn'
loop_
_symmetry_equiv_pos_site_id
_symmetry_equiv_pos_as_xyz
1 x,y,z
2 -x,y,1/2-z
3 1/2+x,1/2+y,z
4 1/2-x,1/2+y,1/2-z
5 -x,-y,-z
6 x,-y,1/2+z
7 1/2-x,1/2-y,-z
8 1/2+x,1/2-y,1/2+z
_cell_length_a                   20.591(5)
_cell_length_b                   14.688(5)
_cell_length_c                   19.330(5)
_cell_angle_alpha                90
_cell_angle_beta                 95.002(5)
_cell_angle_gamma                90
_cell_volume                     5823.91
loop_
_atom_site_label
_atom_site_type_symbol
_atom_site_fract_x
_atom_site_fract_y
_atom_site_fract_z
Cu1 Cu 0.4418(2) 0.6119(3) 0.6268(3)
C1 C 0.6099(14) 0.3352(19) 0.6555(14)
C2 C 0.6777(16) 0.335(2) 0.6510(19)
H1 H 0.7036 0.3867 0.6532
C3 C 0.7023(14) 0.243(2) 0.6424(16)
C4 C 0.5695(15) 0.264(2) 0.6568(18)
H2 H 0.5250 0.2695 0.6612
C5 C 0.6034(17) 0.178(2) 0.6507(16)
C6 C 0.5287(14) -0.040(2) 0.676(2)
H3 H 0.5292 -0.1002 0.6910
C7 C 0.5774(17) 0.020(2) 0.6895(19)
H4 H 0.6175 0.0072 0.7135
C8 C 0.497(2) 0.087(3) 0.630(3)
H5 H 0.4715 0.1308 0.6063
C9 C 0.5273(14) 0.454(2) 0.6299(16)
H6 H 0.4995 0.4185 0.6008
C10 C 0.5710(16) 0.564(2) 0.6905(19)
H7 H 0.5789 0.6220 0.7083
C11 C 0.6104(18) 0.494(2) 0.703(2)
H8 H 0.6474 0.4914 0.7343
C12 C 0.8593(19) 0.266(3) 0.570(2)
H9 H 0.8887 0.2890 0.5410
C13 C 0.8144(15) 0.179(2) 0.6446(17)
H10 H 0.8060 0.1322 0.6752
C14 C 0.7976(16) 0.293(2) 0.5788(17)
H11 H 0.7775 0.3422 0.5557
C15 C 0.6635(16) 0.169(3) 0.6492(17)
H12 H 0.6820 0.1108 0.6528
N1 N 0.5153(14) 0.5395(17) 0.647(2)
N2 N 0.5847(12) 0.4263(17) 0.6601(17)
N3 N 0.8676(17) 0.188(2) 0.620(2)
N4 N 0.7694(11) 0.2420(17) 0.6229(15)
N5 N 0.5599(14) 0.0987(19) 0.6633(17)
N6 N 0.4798(19) 0.001(3) 0.640(2)
H13 H 0.4436 -0.0243 0.6244
Cu1B Cu 0.9418(2) 0.1119(3) 0.6268(3)
N3B N 0.3676(17) 0.688(2) 0.620(2)
W1 W 0.32829(6) 0.46312(8) 0.49613(7)
W2 W 0.15987(6) 0.45100(8) 0.51468(7)
W3 W 0.21924(5) 0.39351(8) 0.35552(7)
W4 W 0.30265(6) 0.18659(9) 0.33806(8)
W5 W 0.36418(6) 0.31447(9) 0.63613(8)
W6 W 0.41698(5) 0.26211(10) 0.47178(8)
Si1 Si 0.2500 0.2500 0.5000
O1 O 0.3673(12) 0.5602(17) 0.4906(12)
O2 O 0.1166(13) 0.5470(18) 0.5222(14)
O3 O 0.2053(14) 0.4627(18) 0.2881(14)
O4 O 0.3300(12) 0.1582(15) 0.2602(11)
O5 O 0.4183(11) 0.3444(15) 0.7000(11)
O6 O 0.4952(12) 0.2673(19) 0.4583(13)
O7 O 0.3795(16) 0.2427(19) 0.3867(16)
O8 O 0.1783(15) 0.418(2) 0.6115(16)
O9 O 0.2460(14) 0.499(3) 0.5154(13)
O10 O 0.2878(12) 0.4585(19) 0.4020(14)
O11 O 0.2324(18) 0.256(2) 0.416(2)
O12 O 0.2766(13) 0.3111(17) 0.3261(16)
O13 O 0.393(2) 0.385(3) 0.470(3)
O14 O 0.425(2) 0.278(3) 0.567(2)
O15 O 0.1635(12) 0.4419(19) 0.4263(14)
O16 O 0.3071(16) 0.204(2) 0.4623(18)
O17 O 0.2432(16) 0.353(2) 0.4823(18)
O18 O 0.2839(15) 0.349(2) 0.670(2)
O19 O 0.3151(17) 0.307(2) 0.515(2)
O20 O 0.3519(18) 0.426(2) 0.5829(13)
O21 O 0.1482(14) 0.3076(18) 0.3425(18)
O22 O 0.0916(17) 0.367(2) 0.5140(14)
O11F O 0.2676(18) 0.244(2) 0.584(2)
O16F O 0.1929(16) 0.296(2) 0.5377(18)
O17F O 0.2568(16) 0.147(2) 0.5177(18)
O19F O 0.1849(17) 0.193(2) 0.485(2)
W1F W 0.17171(6) 0.03688(8) 0.50387(7)
W2F W 0.34013(6) 0.04900(8) 0.48532(7)
W3F W 0.28076(5) 0.10649(8) 0.64448(7)
W4F W 0.19735(6) 0.31341(9) 0.66194(8)
W5F W 0.13582(6) 0.18553(9) 0.36387(8)
W6F W 0.08302(5) 0.23789(10) 0.52822(8)
O1F O 0.1327(12) -0.0602(17) 0.5094(12)
O2F O 0.3834(13) -0.0470(18) 0.4778(14)
O3F O 0.2947(14) 0.0373(18) 0.7119(14)
O4F O 0.1700(12) 0.3418(15) 0.7398(11)
O5F O 0.0817(11) 0.1556(15) 0.3000(11)
O6F O 0.0048(12) 0.2327(19) 0.5417(13)
O7F O 0.1205(16) 0.2573(19) 0.6133(16)
O8F O 0.3217(15) 0.082(2) 0.3885(16)
O9F O 0.2540(14) 0.001(3) 0.4846(13)
O10F O 0.2122(12) 0.0415(19) 0.5980(14)
O12F O 0.2234(13) 0.1889(17) 0.6739(16)
O13F O 0.107(2) 0.115(3) 0.530(3)
O14F O 0.075(2) 0.222(3) 0.433(2)
O15F O 0.3365(12) 0.0581(19) 0.5737(14)
O18F O 0.2161(15) 0.151(2) 0.330(2)
O20F O 0.1481(18) 0.074(2) 0.4171(13)
O21F O 0.3518(14) 0.1924(18) 0.6575(18)
O22F O 0.4084(17) 0.133(2) 0.4860(14)
loop_
_geom_bond_atom_site_label_1
_geom_bond_atom_site_label_2
_geom_bond_site_symmetry_1
_geom_bond_site_symmetry_2
W1 O1 1_555 1_555
W2 O2 1_555 1_555
W3 O3 1_555 1_555
W4 O4 1_555 1_555
W5 O5 1_555 1_555
W6 O6 1_555 1_555
Si1 O11 1_555 1_555
O7 W4 1_555 1_555
O8 W2 1_555 1_555
O9 W1 1_555 1_555
O10 W1 1_555 1_555
O11 W3 1_555 1_555
O12 W3 1_555 1_555
O13 W1 1_555 1_555
O14 W5 1_555 1_555
O15 W2 1_555 1_555
O16 W4 1_555 1_555
O17 W1 1_555 1_555
O18 W5 1_555 1_555
O19 W1 1_555 1_555
O20 W1 1_555 1_555
O21 W3 1_555 1_555
O22 W2 1_555 1_555
Cu1 N1 1_555 1_555
C1 C2 1_555 1_555
C2 H1 1_555 1_555
C3 C2 1_555 1_555
C4 C1 1_555 1_555
H2 C4 1_555 1_555
C5 C4 1_555 1_555
C6 H3 1_555 1_555
C7 C6 1_555 1_555
H4 C7 1_555 1_555
C8 H5 1_555 1_555
C9 H6 1_555 1_555
C10 H7 1_555 1_555
C11 C10 1_555 1_555
H8 C11 1_555 1_555
C12 H9 1_555 1_555
C13 H10 1_555 1_555
C14 C12 1_555 1_555
H11 C14 1_555 1_555
C15 C3 1_555 1_555
H12 C15 1_555 1_555
N1 C9 1_555 1_555
N2 C1 1_555 1_555
N3 C12 1_555 1_555
N4 C3 1_555 1_555
N5 C5 1_555 1_555
N6 C6 1_555 1_555
H13 N6 1_555 1_555
O11F W5 1_555 1_555
O16F W2 1_555 1_555
O17F Si1 1_555 1_555
O19F Si1 1_555 1_555
W1F O17F 1_555 1_555
W2F O16 1_555 1_555
W3F O11F 1_555 1_555
W4F O8 1_555 1_555
W5F O11 1_555 1_555
W6F O22 1_555 1_555
O1F W1F 1_555 1_555
O2F W2F 1_555 1_555
O3F W3F 1_555 1_555
O4F W4F 1_555 1_555
O5F W5F 1_555 1_555
O6F W6F 1_555 1_555
O7F W4F 1_555 1_555
O8F W4 1_555 1_555
O9F W1F 1_555 1_555
O10F W1F 1_555 1_555
O12F W3F 1_555 1_555
O13F W1F 1_555 1_555
O14F W5F 1_555 1_555
O15F W2F 1_555 1_555
O18F W4 1_555 1_555
O20F W1F 1_555 1_555
O21F W5 1_555 1_555
O22F W6 1_555 1_555
Cu1B N3 1_555 1_555
N3B Cu1 1_555 1_555
W2 O9 1_555 1_555
W2 O17 1_555 1_555
W3 O10 1_555 1_555
W3 O15 1_555 1_555
W4 O11 1_555 1_555
W4 O12 1_555 1_555
W5 O19 1_555 1_555
W5 O20 1_555 1_555
W6 O7 1_555 1_555
W6 O13 1_555 1_555
W6 O14 1_555 1_555
W6 O16 1_555 1_555
W6 O19 1_555 1_555
Si1 O16 1_555 1_555
Si1 O17 1_555 1_555
Si1 O19 1_555 1_555
Si1 O11F 1_555 1_555
Si1 O16F 1_555 1_555
O16 O17F 1_555 1_555
O17 O19 1_555 1_555
O17 O16F 1_555 1_555
O18 W4F 1_555 1_555
O21 W5F 1_555 1_555
C5 C15 1_555 1_555
C7 N5 1_555 1_555
C8 N5 1_555 1_555
C8 N6 1_555 1_555
C9 N2 1_555 1_555
C10 N1 1_555 1_555
C11 N2 1_555 1_555
C13 N3 1_555 1_555
C13 N4 1_555 1_555
C14 N4 1_555 1_555
O11F W4F 1_555 1_555
O16F W4F 1_555 1_555
O16F W6F 1_555 1_555
O17F O19F 1_555 1_555
O17F W2F 1_555 1_555
O19F W1F 1_555 1_555
O19F W5F 1_555 1_555
O19F W6F 1_555 1_555
W2F O8F 1_555 1_555
W2F O9F 1_555 1_555
W2F O22F 1_555 1_555
W3F O10F 1_555 1_555
W3F O15F 1_555 1_555
W3F O21F 1_555 1_555
W4F O12F 1_555 1_555
W5F O18F 1_555 1_555
W5F O20F 1_555 1_555
W6F O7F 1_555 1_555
W6F O13F 1_555 1_555
W6F O14F 1_555 1_555

#END
