
#######################################################################
#
#                 Cambridge Crystallographic Data Centre
#                                CCDC 
#
#######################################################################
#
# If this CIF has been generated from an entry in the Cambridge 
# Structural Database, then it will include bibliographic, chemical, 
# crystal, experimental, refinement or atomic coordinate data resulting 
# from the CCDC's data processing and validation procedures.
#
#######################################################################

data_FUQREQ
_symmetry_cell_setting           triclinic
_symmetry_space_group_name_H-M   'P -1'
_symmetry_Int_Tables_number      2
_space_group_name_Hall           '-P 1'
loop_
_symmetry_equiv_pos_site_id
_symmetry_equiv_pos_as_xyz
1 x,y,z
2 -x,-y,-z
_cell_length_a                   8.175(4)
_cell_length_b                   8.585(4)
_cell_length_c                   8.929(4)
_cell_angle_alpha                71.32(4)
_cell_angle_beta                 65.36(4)
_cell_angle_gamma                83.18(4)
_cell_volume                     539.513
loop_
_atom_site_label
_atom_site_type_symbol
_atom_site_fract_x
_atom_site_fract_y
_atom_site_fract_z
Nd1 Nd 0.57121(3) 0.91721(3) 0.71967(3)
O1 O 0.5827(5) 1.2263(5) 0.6647(5)
O2 O 0.4441(5) 1.1506(5) 0.5330(5)
O3 O 0.8129(5) 0.9764(5) 0.7909(5)
O4 O 0.6676(5) 0.9852(5) 1.0628(5)
O5 O 0.3026(5) 0.7415(5) 0.8080(5)
O6 O 0.2125(6) 0.6024(5) 1.0879(5)
O7 O 0.7718(5) 0.6918(5) 0.6764(5)
O8 O 0.5397(5) 0.7126(5) 1.0022(5)
O9 O 0.8340(5) 1.0567(5) 0.4398(5)
C1 C 0.5003(7) 1.2630(7) 0.5660(7)
C2 C 0.4707(8) 1.4400(7) 0.4845(7)
H1 H 0.4107 1.4664 0.4113
C3 C 0.8096(7) 0.9940(6) 0.9276(7)
C4 C 0.9862(8) 1.0235(7) 0.9270(8)
H2 H 1.0792 1.0756 0.8231
C5 C 0.2013(7) 0.6391(6) 0.9453(7)
C6 C 0.0596(8) 0.5543(7) 0.9322(7)
H3 H 0.0544 0.5783 0.8251
O1A O 0.4173(5) 1.7737(5) 0.3353(5)
O2A O 0.5559(5) 1.8494(5) 0.4670(5)
C1A C 0.4997(7) 1.7370(7) 0.4340(7)
C2A C 0.5293(8) 1.5600(7) 0.5155(7)
H1A H 0.5893 1.5336 0.5887
O3A O 1.1871(5) 1.0236(5) 1.2091(5)
O4A O 1.3324(5) 1.0148(5) 0.9372(5)
C3A C 1.1904(7) 1.0060(6) 1.0724(7)
C4A C 1.0138(8) 0.9765(7) 1.0730(8)
H2A H 0.9208 0.9244 1.1769
O5A O -0.3026(5) 0.2585(5) 1.1920(5)
O6A O -0.2125(6) 0.3976(5) 0.9121(5)
C5A C -0.2013(7) 0.3609(6) 1.0547(7)
C6A C -0.0596(8) 0.4457(7) 1.0678(7)
H3A H -0.0544 0.4217 1.1749
Nd1A Nd -0.57121(3) 0.08279(3) 1.28033(3)
O7A O -0.7718(5) 0.3082(5) 1.3236(5)
O8A O -0.5397(5) 0.2874(5) 0.9978(5)
O9A O -0.8340(5) -0.0567(5) 1.5602(5)
Nd1_2 Nd 0.57121(3) 1.91721(3) 0.71967(3)
Nd1_3 Nd 1.57121(3) 0.91721(3) 0.71967(3)
Nd1A_2 Nd 0.42879(3) 1.08279(3) 0.28033(3)
Nd1A_3 Nd 0.42879(3) 1.08279(3) 1.28033(3)
Nd1A_4 Nd 0.42879(3) 2.08279(3) 0.28033(3)
Nd1A_5 Nd 1.42879(3) 1.08279(3) 1.28033(3)
O1A_2 O -0.5827(5) -0.2263(5) 1.3353(5)
O2_2 O -0.5559(5) 0.1506(5) 1.5330(5)
O2A_2 O -0.4441(5) -0.1506(5) 1.4670(5)
O2A_3 O 0.5559(5) 0.8494(5) 0.4670(5)
O3A_2 O -0.8129(5) 0.0236(5) 1.2091(5)
O4_2 O -0.3324(5) -0.0148(5) 1.0628(5)
O4A_2 O 0.3324(5) 1.0148(5) 0.9372(5)
O10 O 0.9347(6) 1.3275(6) 0.5870(6)
loop_
_geom_bond_atom_site_label_1
_geom_bond_atom_site_label_2
_geom_bond_site_symmetry_1
_geom_bond_site_symmetry_2
Nd1 O1 1_555 1_555
O1 C1 1_555 1_555
O2 Nd1 1_555 1_555
O3 Nd1 1_555 1_555
O4 C3 1_555 1_555
O5 Nd1 1_555 1_555
O6 C5 1_555 1_555
O7 Nd1 1_555 1_555
O8 Nd1 1_555 1_555
O9 Nd1 1_555 1_555
C1 O2 1_555 1_555
C2 C1 1_555 1_555
H1 C2 1_555 1_555
C3 O3 1_555 1_555
C4 C3 1_555 1_555
H2 C4 1_555 1_555
C5 O5 1_555 1_555
C6 C5 1_555 1_555
H3 C6 1_555 1_555
O1A C1A 1_555 1_555
O2A C1A 1_555 1_555
C1A C2A 1_555 1_555
C2A C2 1_555 1_555
H1A C2A 1_555 1_555
O3A C3A 1_555 1_555
O4A C3A 1_555 1_555
C3A C4A 1_555 1_555
C4A C4 1_555 1_555
H2A C4A 1_555 1_555
O5A C5A 1_555 1_555
O6A C5A 1_555 1_555
C5A C6A 1_555 1_555
C6A C6 1_555 1_555
H3A C6A 1_555 1_555
Nd1A O5A 1_555 1_555
O7A Nd1A 1_555 1_555
O8A Nd1A 1_555 1_555
O9A Nd1A 1_555 1_555
Nd1_2 O2A 1_555 1_555
Nd1_3 O4A 1_555 1_555
Nd1A_2 O2 1_555 1_555
Nd1A_3 O4 1_555 1_555
Nd1A_4 O1A 1_555 1_555
Nd1A_5 O3A 1_555 1_555
O1A_2 Nd1A 1_555 1_555
O2_2 Nd1A 1_555 1_555
O2A_2 Nd1A 1_555 1_555
O2A_3 Nd1 1_555 1_555
O3A_2 Nd1A 1_555 1_555
O4_2 Nd1A 1_555 1_555
O4A_2 Nd1 1_555 1_555
O2A Nd1A_4 1_555 1_555
Nd1A_2 O2A_3 1_555 1_555

#END
