
#######################################################################
#
#                 Cambridge Crystallographic Data Centre
#                                CCDC 
#
#######################################################################
#
# If this CIF has been generated from an entry in the Cambridge 
# Structural Database, then it will include bibliographic, chemical, 
# crystal, experimental, refinement or atomic coordinate data resulting 
# from the CCDC's data processing and validation procedures.
#
#######################################################################

data_FUQRIU
_symmetry_cell_setting           triclinic
_symmetry_space_group_name_H-M   'P -1'
_symmetry_Int_Tables_number      2
_space_group_name_Hall           '-P 1'
loop_
_symmetry_equiv_pos_site_id
_symmetry_equiv_pos_as_xyz
1 x,y,z
2 -x,-y,-z
_cell_length_a                   8.137(4)
_cell_length_b                   8.538(5)
_cell_length_c                   8.882(5)
_cell_angle_alpha                71.23(5)
_cell_angle_beta                 65.45(5)
_cell_angle_gamma                83.32(4)
_cell_volume                     531.324
loop_
_atom_site_label
_atom_site_type_symbol
_atom_site_fract_x
_atom_site_fract_y
_atom_site_fract_z
Sm1 Sm 0.57124(3) 0.91812(3) 0.71905(3)
O1 O 0.5842(5) 1.2258(5) 0.6634(5)
O2 O 0.4444(5) 1.1489(5) 0.5338(5)
O3 O 0.8101(5) 0.9779(5) 0.7914(5)
O4 O 0.6664(5) 0.9844(5) 1.0643(5)
O5 O 0.3039(5) 0.7432(5) 0.8067(5)
O6 O 0.2131(5) 0.6015(5) 1.0891(5)
O7 O 0.7678(5) 0.6939(5) 0.6779(5)
O8 O 0.5404(5) 0.7160(5) 1.0002(5)
O9 O 0.8341(5) 1.0556(5) 0.4408(5)
C1 C 0.5014(7) 1.2638(7) 0.5642(7)
C2 C 0.4718(7) 1.4390(6) 0.4840(7)
H1 H 0.4126 1.4651 0.4095
C3 C 0.8078(7) 0.9954(6) 0.9274(7)
C4 C 0.9853(7) 1.0233(7) 0.9282(7)
H2 H 1.0787 1.0754 0.8236
C5 C 0.2025(7) 0.6385(7) 0.9453(7)
C6 C 0.0587(7) 0.5560(7) 0.9323(7)
H3 H 0.0505 0.5837 0.8255
O1A O 0.4158(5) 1.7742(5) 0.3366(5)
O2A O 0.5556(5) 1.8511(5) 0.4662(5)
C1A C 0.4986(7) 1.7362(7) 0.4358(7)
C2A C 0.5282(7) 1.5610(6) 0.5160(7)
H1A H 0.5874 1.5349 0.5905
O3A O 1.1899(5) 1.0221(5) 1.2086(5)
O4A O 1.3336(5) 1.0156(5) 0.9357(5)
C3A C 1.1922(7) 1.0046(6) 1.0726(7)
C4A C 1.0147(7) 0.9767(7) 1.0718(7)
H2A H 0.9213 0.9246 1.1764
O5A O -0.3039(5) 0.2568(5) 1.1933(5)
O6A O -0.2131(5) 0.3985(5) 0.9109(5)
C5A C -0.2025(7) 0.3615(7) 1.0547(7)
C6A C -0.0587(7) 0.4440(7) 1.0677(7)
H3A H -0.0505 0.4163 1.1745
Sm1A Sm -0.57124(3) 0.08188(3) 1.28095(3)
O7A O -0.7678(5) 0.3061(5) 1.3221(5)
O8A O -0.5404(5) 0.2840(5) 0.9998(5)
O9A O -0.8341(5) -0.0556(5) 1.5592(5)
Sm1_2 Sm 0.57124(3) 1.91812(3) 0.71905(3)
Sm1_3 Sm 1.57124(3) 0.91812(3) 0.71905(3)
Sm1A_2 Sm 0.42876(3) 1.08188(3) 0.28095(3)
Sm1A_3 Sm 0.42876(3) 1.08188(3) 1.28095(3)
Sm1A_4 Sm 0.42876(3) 2.08188(3) 0.28095(3)
Sm1A_5 Sm 1.42876(3) 1.08188(3) 1.28095(3)
O1A_2 O -0.5842(5) -0.2258(5) 1.3366(5)
O2_2 O -0.5556(5) 0.1489(5) 1.5338(5)
O2A_2 O -0.4444(5) -0.1489(5) 1.4662(5)
O2A_3 O 0.5556(5) 0.8511(5) 0.4662(5)
O3A_2 O -0.8101(5) 0.0221(5) 1.2086(5)
O4_2 O -0.3336(5) -0.0156(5) 1.0643(5)
O4A_2 O 0.3336(5) 1.0156(5) 0.9357(5)
O10 O 0.9353(6) 1.3276(6) 0.5848(6)
loop_
_geom_bond_atom_site_label_1
_geom_bond_atom_site_label_2
_geom_bond_site_symmetry_1
_geom_bond_site_symmetry_2
Sm1 O1 1_555 1_555
O1 C1 1_555 1_555
O2 Sm1 1_555 1_555
O3 Sm1 1_555 1_555
O4 C3 1_555 1_555
O5 Sm1 1_555 1_555
O6 C5 1_555 1_555
O7 Sm1 1_555 1_555
O8 Sm1 1_555 1_555
O9 Sm1 1_555 1_555
C1 O2 1_555 1_555
C2 C1 1_555 1_555
H1 C2 1_555 1_555
C3 O3 1_555 1_555
C4 C3 1_555 1_555
H2 C4 1_555 1_555
C5 O5 1_555 1_555
C6 C5 1_555 1_555
H3 C6 1_555 1_555
O1A C1A 1_555 1_555
O2A C1A 1_555 1_555
C1A C2A 1_555 1_555
C2A C2 1_555 1_555
H1A C2A 1_555 1_555
O3A C3A 1_555 1_555
O4A C3A 1_555 1_555
C3A C4A 1_555 1_555
C4A C4 1_555 1_555
H2A C4A 1_555 1_555
O5A C5A 1_555 1_555
O6A C5A 1_555 1_555
C5A C6A 1_555 1_555
C6A C6 1_555 1_555
H3A C6A 1_555 1_555
Sm1A O5A 1_555 1_555
O7A Sm1A 1_555 1_555
O8A Sm1A 1_555 1_555
O9A Sm1A 1_555 1_555
Sm1_2 O2A 1_555 1_555
Sm1_3 O4A 1_555 1_555
Sm1A_2 O2 1_555 1_555
Sm1A_3 O4 1_555 1_555
Sm1A_4 O1A 1_555 1_555
Sm1A_5 O3A 1_555 1_555
O1A_2 Sm1A 1_555 1_555
O2_2 Sm1A 1_555 1_555
O2A_2 Sm1A 1_555 1_555
O2A_3 Sm1 1_555 1_555
O3A_2 Sm1A 1_555 1_555
O4_2 Sm1A 1_555 1_555
O4A_2 Sm1 1_555 1_555
O2A Sm1A_4 1_555 1_555
Sm1A_2 O2A_3 1_555 1_555

#END
