
#######################################################################
#
#                 Cambridge Crystallographic Data Centre
#                                CCDC 
#
#######################################################################
#
# If this CIF has been generated from an entry in the Cambridge 
# Structural Database, then it will include bibliographic, chemical, 
# crystal, experimental, refinement or atomic coordinate data resulting 
# from the CCDC's data processing and validation procedures.
#
#######################################################################

data_FUQWAR
_symmetry_cell_setting           monoclinic
_symmetry_space_group_name_H-M   'C 2/c'
_symmetry_Int_Tables_number      15
_space_group_name_Hall           '-C 2yn'
loop_
_symmetry_equiv_pos_site_id
_symmetry_equiv_pos_as_xyz
1 x,y,z
2 -x,y,1/2-z
3 1/2+x,1/2+y,z
4 1/2-x,1/2+y,1/2-z
5 -x,-y,-z
6 x,-y,1/2+z
7 1/2-x,1/2-y,-z
8 1/2+x,1/2-y,1/2+z
_cell_length_a                   34.8637(18)
_cell_length_b                   6.6666(3)
_cell_length_c                   15.0610(8)
_cell_angle_alpha                90
_cell_angle_beta                 93.363(4)
_cell_angle_gamma                90
_cell_volume                     3494.48
loop_
_atom_site_label
_atom_site_type_symbol
_atom_site_fract_x
_atom_site_fract_y
_atom_site_fract_z
C1 C 0.13897(8) 0.3936(4) 0.16197(19)
C2 C 0.10841(8) 0.5506(4) 0.17216(18)
C3 C 0.07113(9) 0.5168(5) 0.1374(2)
H1 H 0.0655 0.3996 0.1058
C4 C 0.04249(9) 0.6553(5) 0.1491(2)
H2 H 0.0177 0.6304 0.1257
C5 C 0.05033(9) 0.8284(5) 0.1949(2)
H3 H 0.0309 0.9212 0.2026
C6 C 0.08724(9) 0.8661(5) 0.2299(2)
H4 H 0.0925 0.9842 0.2612
C7 C 0.11637(8) 0.7293(4) 0.21861(18)
C8 C 0.15592(8) 0.7832(4) 0.25749(18)
C9 C 0.19706(9) -0.3824(5) -0.0037(2)
H5 H 0.2131 -0.3428 -0.0503
H6 H 0.1976 -0.5258 0.0023
H7 H 0.2064 -0.3220 0.0513
C10 C 0.15714(8) -0.3157(4) -0.02573(18)
C11 C 0.09803(9) -0.3177(5) -0.08651(19)
C12 C 0.06301(9) -0.3597(5) -0.1315(2)
H8 H 0.0593 -0.4755 -0.1653
C13 C 0.03419(10) -0.2213(6) -0.1235(2)
H9 H 0.0104 -0.2441 -0.1528
C14 C 0.03975(9) -0.0478(6) -0.0728(2)
H10 H 0.0196 0.0427 -0.0695
C15 C 0.07437(9) -0.0070(5) -0.0275(2)
H11 H 0.0779 0.1089 0.0063
C16 C 0.10362(8) -0.1456(4) -0.03431(18)
N1 N 0.14123(7) -0.1490(3) 0.00357(15)
N2 N 0.13252(7) -0.4193(4) -0.07985(17)
O1 O 0.12875(6) 0.2451(3) 0.11282(16)
O2 O 0.17085(6) 0.4149(4) 0.19849(18)
O3 O 0.16408(6) 0.7420(3) 0.33668(13)
O4 O 0.17809(6) 0.8821(3) 0.21016(13)
O5 O 0.21590(6) 0.1000(4) 0.06546(15)
Zn1 Zn 0.164026(9) 0.02713(5) 0.09969(2)
H12 H 0.2208(11) 0.081(6) 0.0120(14)
H13 H 0.2302(9) 0.185(5) 0.090(2)
H14 H 0.1383(11) -0.522(4) -0.107(2)
O4_2 O 0.17809(6) -0.1179(3) 0.21016(13)
Zn1_2 Zn 0.164026(9) 1.02713(5) 0.09969(2)
O6 O 0.23881(9) 0.2376(5) 0.2954(2)
H15 H 0.2595(7) 0.300(7) 0.288(3)
H16 H 0.2203(8) 0.297(6) 0.270(3)
O7 O 0.23151(6) 0.0998(4) -0.10490(14)
H17 H 0.2103(7) 0.148(5) -0.126(2)
H18 H 0.2358(9) -0.007(4) -0.133(2)
loop_
_geom_bond_atom_site_label_1
_geom_bond_atom_site_label_2
_geom_bond_site_symmetry_1
_geom_bond_site_symmetry_2
C1 C2 1_555 1_555
C2 C3 1_555 1_555
C3 H1 1_555 1_555
C4 C3 1_555 1_555
H2 C4 1_555 1_555
C5 C4 1_555 1_555
H3 C5 1_555 1_555
C6 C5 1_555 1_555
H4 C6 1_555 1_555
C7 C2 1_555 1_555
C8 C7 1_555 1_555
C9 H5 1_555 1_555
H6 C9 1_555 1_555
H7 C9 1_555 1_555
C10 C9 1_555 1_555
C11 C12 1_555 1_555
C12 H8 1_555 1_555
C13 C12 1_555 1_555
H9 C13 1_555 1_555
C14 C13 1_555 1_555
H10 C14 1_555 1_555
C15 C14 1_555 1_555
H11 C15 1_555 1_555
C16 C11 1_555 1_555
N1 C10 1_555 1_555
N2 C10 1_555 1_555
O1 C1 1_555 1_555
O2 C1 1_555 1_555
O3 C8 1_555 1_555
O4 C8 1_555 1_555
O5 Zn1 1_555 1_555
Zn1 N1 1_555 1_555
H12 O5 1_555 1_555
H13 O5 1_555 1_555
H14 N2 1_555 1_555
O6 H15 1_555 1_555
H16 O6 1_555 1_555
O7 H17 1_555 1_555
H18 O7 1_555 1_555
O4_2 Zn1 1_555 1_555
Zn1_2 O4 1_555 1_555
C6 C7 1_555 1_555
C11 N2 1_555 1_555
C15 C16 1_555 1_555
C16 N1 1_555 1_555
O1 Zn1 1_555 1_555

#END
