
#######################################################################
#
#                 Cambridge Crystallographic Data Centre
#                                CCDC 
#
#######################################################################
#
# If this CIF has been generated from an entry in the Cambridge 
# Structural Database, then it will include bibliographic, chemical, 
# crystal, experimental, refinement or atomic coordinate data resulting 
# from the CCDC's data processing and validation procedures.
#
#######################################################################

data_FURCOM
_symmetry_cell_setting           triclinic
_symmetry_space_group_name_H-M   'P -1'
_symmetry_Int_Tables_number      2
_space_group_name_Hall           '-P 1'
loop_
_symmetry_equiv_pos_site_id
_symmetry_equiv_pos_as_xyz
1 x,y,z
2 -x,-y,-z
_cell_length_a                   11.3697(4)
_cell_length_b                   12.1474(4)
_cell_length_c                   12.4727(3)
_cell_angle_alpha                77.944(3)
_cell_angle_beta                 81.737(3)
_cell_angle_gamma                74.335(3)
_cell_volume                     1615.08
loop_
_atom_site_label
_atom_site_type_symbol
_atom_site_fract_x
_atom_site_fract_y
_atom_site_fract_z
Ag1 Ag 0.01137(6) 0.86131(5) 1.44174(5)
Ag2 Ag 0.09194(6) 0.36162(5) 1.34047(6)
Ag3 Ag 0.17792(9) 0.87503(6) 1.17313(7)
Ag4 Ag 0.61430(6) 0.54022(6) 0.54431(5)
O1 O 0.3297(7) 0.8670(7) 1.0182(6)
H1 H 0.3953 0.8173 1.0367
H2 H 0.3029 0.8476 0.9666
N1 N 0.0649(7) 0.7081(5) 1.3599(6)
N2 N 0.0515(6) 0.6039(6) 1.4049(6)
N3 N 0.1070(6) 0.5334(5) 1.3325(6)
N4 N 0.1281(6) 0.7084(5) 1.2594(5)
N5 N 0.4348(6) 0.4585(6) 0.8621(5)
N6 N 0.4941(6) 0.3456(6) 0.8541(6)
N7 N 0.5372(6) 0.4674(6) 0.7012(6)
N8 N 0.7192(6) 0.5604(6) 0.3885(5)
N9 N 0.8390(6) 0.4951(6) 0.2451(6)
N10 N 0.7932(5) 0.6129(5) 0.2211(5)
N11 N 0.9218(6) 0.7957(5) -0.3027(5)
N12 N 0.9463(5) 0.8789(5) -0.3852(5)
N13 N 0.9270(5) 0.9764(5) -0.3496(5)
N14 N 0.8859(5) 0.9594(5) -0.2425(5)
C1 C 0.1515(6) 0.5985(6) 1.2448(6)
C2 C 0.2215(6) 0.5566(6) 1.1469(6)
C3 C 0.2946(7) 0.4457(6) 1.1503(6)
H3 H 0.2971 0.3933 1.2165
C4 C 0.3655(7) 0.4095(6) 1.0564(6)
H4 H 0.4148 0.3343 1.0600
C5 C 0.3605(6) 0.4879(6) 0.9583(6)
C6 C 0.2821(8) 0.5990(7) 0.9516(6)
H5 H 0.2757 0.6497 0.8844
C7 C 0.2139(7) 0.6333(6) 1.0454(6)
H6 H 0.1627 0.7078 1.0413
C8 C 0.5531(7) 0.3549(7) 0.7558(6)
H7 H 0.6010 0.2915 0.7259
C9 C 0.4620(7) 0.5281(7) 0.7715(6)
H8 H 0.4326 0.6085 0.7586
C10 C 0.7931(7) 0.4686(7) 0.3456(7)
H9 H 0.8094 0.3931 0.3851
C11 C 0.7221(7) 0.6507(7) 0.3075(6)
H10 H 0.6813 0.7276 0.3106
C12 C 0.8157(6) 0.6757(6) 0.1128(5)
C13 C 0.9141(7) 0.6257(7) 0.0442(6)
H11 H 0.9663 0.5546 0.0701
C14 C 0.9345(7) 0.6819(6) -0.0626(7)
H12 H 1.0000 0.6480 -0.1087
C15 C 0.8575(7) 0.7886(6) -0.1012(6)
C16 C 0.7618(7) 0.8398(6) -0.0318(6)
H13 H 0.7128 0.9129 -0.0570
C17 C 0.7373(7) 0.7835(7) 0.0761(6)
H14 H 0.6709 0.8168 0.1218
C18 C 0.8847(6) 0.8476(6) -0.2137(6)
Ag1_2 Ag 1.01137(6) 0.86131(5) -0.55826(5)
Ag1A Ag 0.98863(6) 1.13869(5) -0.44174(5)
Ag2A Ag 0.90806(6) 0.63838(5) -0.34047(6)
Ag3A Ag 0.82208(9) 1.12497(6) -0.17313(7)
N11A N 0.0782(6) 0.2043(5) 1.3027(5)
N12_2 N -0.0537(5) 0.8789(5) 1.6148(5)
N13A N 0.0730(5) 1.0236(5) 1.3496(5)
N14A N 0.1141(5) 1.0406(5) 1.2425(5)
Mo1 Mo 0.37719(5) 1.12838(4) 0.48650(4)
Mo2 Mo 0.35241(5) 0.84234(5) 0.50015(5)
Mo3 Mo 0.46759(5) 1.00814(5) 0.27352(5)
Mo4 Mo 0.74355(6) 1.03483(6) 0.28323(5)
O2 O 0.2504(5) 1.1268(5) 0.5843(5)
O3 O 0.3411(5) 1.2616(5) 0.4050(5)
O4 O 0.5536(4) 1.0610(4) 0.4087(4)
O5 O 0.4304(6) 1.1442(5) 0.2002(5)
O6 O 0.7003(8) 1.1683(6) 0.2036(6)
O7 O 0.8829(6) 0.9725(7) 0.2234(6)
O8 O 0.6385(5) 0.9594(5) 0.2335(4)
O9 O 0.4137(5) 0.9253(5) 0.2072(5)
O10 O 0.3392(4) 1.0297(4) 0.3991(4)
O11 O 0.2189(5) 0.9162(5) 0.5908(5)
O12 O 0.4008(6) 0.7095(5) 0.5802(5)
O13 O 0.2785(5) 0.8144(5) 0.4033(5)
O14 O 0.5157(4) 0.8460(4) 0.4176(4)
Mo1A Mo 0.62281(5) 0.87162(4) 0.51350(4)
Mo2A Mo 0.64759(5) 1.15766(5) 0.49985(5)
Mo3A Mo 0.53241(5) 0.99186(5) 0.72648(5)
Mo4A Mo 0.25645(6) 0.96517(6) 0.71677(5)
O2A O 0.7496(5) 0.8732(5) 0.4157(5)
O3A O 0.6589(5) 0.7384(5) 0.5950(5)
O4A O 0.4464(4) 0.9390(4) 0.5913(4)
O5A O 0.5696(6) 0.8558(5) 0.7998(5)
O6A O 0.2997(8) 0.8317(6) 0.7964(6)
O7A O 0.1171(6) 1.0275(7) 0.7766(6)
O8A O 0.3615(5) 1.0406(5) 0.7665(4)
O9A O 0.5863(5) 1.0747(5) 0.7928(5)
O10A O 0.6608(4) 0.9703(4) 0.6009(4)
O11A O 0.7811(5) 1.0838(5) 0.4092(5)
O12A O 0.5992(6) 1.2905(5) 0.4198(5)
O13A O 0.7215(5) 1.1856(5) 0.5967(5)
O14A O 0.4843(4) 1.1540(4) 0.5824(4)
loop_
_geom_bond_atom_site_label_1
_geom_bond_atom_site_label_2
_geom_bond_site_symmetry_1
_geom_bond_site_symmetry_2
Ag1 N1 1_555 1_555
Ag2 N3 1_555 1_555
Ag3 O1 1_555 1_555
Ag4 N7 1_555 1_555
O1 H1 1_555 1_555
H2 O1 1_555 1_555
N1 N2 1_555 1_555
N2 N3 1_555 1_555
N3 C1 1_555 1_555
N4 Ag3 1_555 1_555
N5 N6 1_555 1_555
N6 C8 1_555 1_555
N7 C8 1_555 1_555
N8 Ag4 1_555 1_555
N9 N10 1_555 1_555
N10 C11 1_555 1_555
N11 N12 1_555 1_555
N12 N13 1_555 1_555
N13 N14 1_555 1_555
N14 C18 1_555 1_555
C1 N4 1_555 1_555
C2 C1 1_555 1_555
C3 C2 1_555 1_555
H3 C3 1_555 1_555
C4 C3 1_555 1_555
H4 C4 1_555 1_555
C5 N5 1_555 1_555
C6 C5 1_555 1_555
H5 C6 1_555 1_555
C7 C2 1_555 1_555
H6 C7 1_555 1_555
C8 H7 1_555 1_555
C9 N5 1_555 1_555
H8 C9 1_555 1_555
C10 N8 1_555 1_555
H9 C10 1_555 1_555
C11 N8 1_555 1_555
H10 C11 1_555 1_555
C12 N10 1_555 1_555
C13 C12 1_555 1_555
H11 C13 1_555 1_555
C14 C13 1_555 1_555
H12 C14 1_555 1_555
C15 C14 1_555 1_555
C16 C15 1_555 1_555
H13 C16 1_555 1_555
C17 C12 1_555 1_555
H14 C17 1_555 1_555
C18 N11 1_555 1_555
Mo1 O2 1_555 1_555
Mo2 O10 1_555 1_555
Mo3 O4 1_555 1_555
Mo4 O4 1_555 1_555
O2 Mo4A 1_555 1_555
O3 Mo1 1_555 1_555
O4 Mo1 1_555 1_555
O5 Mo3 1_555 1_555
O6 Mo4 1_555 1_555
O7 Mo4 1_555 1_555
O8 Mo3 1_555 1_555
O9 Mo3 1_555 1_555
O10 Mo1 1_555 1_555
O11 Mo2 1_555 1_555
O12 Mo2 1_555 1_555
O13 Mo2 1_555 1_555
O14 Mo2 1_555 1_555
Ag1_2 N12 1_555 1_555
Ag1A N13 1_555 1_555
Ag2A N11 1_555 1_555
Ag3A N14 1_555 1_555
N11A Ag2 1_555 1_555
N12_2 Ag1 1_555 1_555
N13A Ag1 1_555 1_555
N14A Ag3 1_555 1_555
Mo1A O4 1_555 1_555
Mo2A O4 1_555 1_555
Mo3A O4A 1_555 1_555
Mo4A O11 1_555 1_555
O2A Mo4 1_555 1_555
O3A Mo1A 1_555 1_555
O4A Mo1 1_555 1_555
O5A Mo3A 1_555 1_555
O6A Mo4A 1_555 1_555
O7A Mo4A 1_555 1_555
O8A Mo3A 1_555 1_555
O9A Mo3A 1_555 1_555
O10A Mo1A 1_555 1_555
O11A Mo4 1_555 1_555
O12A Mo2A 1_555 1_555
O13A Mo2A 1_555 1_555
O14A Mo1 1_555 1_555
N1 N4 1_555 1_555
N7 C9 1_555 1_555
N9 C10 1_555 1_555
C4 C5 1_555 1_555
C6 C7 1_555 1_555
C15 C18 1_555 1_555
C16 C17 1_555 1_555
Mo2 O4A 1_555 1_555
Mo3 O10 1_555 1_555
Mo3 O14 1_555 1_555
Mo4 O8 1_555 1_555
O14 Mo1A 1_555 1_555
N13A N14A 1_555 1_555
Mo1A O2A 1_555 1_555
Mo1A O4A 1_555 1_555
Mo2A O10A 1_555 1_555
Mo2A O11A 1_555 1_555
Mo2A O14A 1_555 1_555
Mo3A O10A 1_555 1_555
Mo3A O14A 1_555 1_555
Mo4A O4A 1_555 1_555
Mo4A O8A 1_555 1_555

#END
