
#######################################################################
#
#                 Cambridge Crystallographic Data Centre
#                                CCDC 
#
#######################################################################
#
# If this CIF has been generated from an entry in the Cambridge 
# Structural Database, then it will include bibliographic, chemical, 
# crystal, experimental, refinement or atomic coordinate data resulting 
# from the CCDC's data processing and validation procedures.
#
#######################################################################

data_FURCEC
_symmetry_cell_setting           orthorhombic
_symmetry_space_group_name_H-M   'P c c a'
_symmetry_Int_Tables_number      54
_space_group_name_Hall           '-P 2a 2ac'
loop_
_symmetry_equiv_pos_site_id
_symmetry_equiv_pos_as_xyz
1 x,y,z
2 1/2-x,-y,z
3 1/2+x,-y,1/2-z
4 -x,y,1/2-z
5 -x,-y,-z
6 1/2+x,y,-z
7 1/2-x,y,1/2+z
8 x,-y,1/2+z
_cell_length_a                   35.2362(13)
_cell_length_b                   11.5212(3)
_cell_length_c                   7.3291(2)
_cell_angle_alpha                90
_cell_angle_beta                 90
_cell_angle_gamma                90
_cell_volume                     2975.35
loop_
_atom_site_label
_atom_site_type_symbol
_atom_site_fract_x
_atom_site_fract_y
_atom_site_fract_z
Cu1 Cu 0.0000 0.38588(5) 0.2500
F1 F 0.17375(18) 0.6326(5) -0.2678(5)
F2 F 0.20086(14) 0.5081(4) -0.1083(7)
F3 F 0.22794(12) 0.6715(5) -0.1525(7)
F4 F 0.16749(13) 0.9706(5) 0.4552(13)
F5 F 0.2069(3) 0.8564(4) 0.5459(10)
F6 F 0.21735(19) 0.9455(6) 0.3327(11)
N1 N 0.03004(9) 0.6017(3) 0.4175(5)
N2 N 0.07131(9) 0.5175(3) 0.2365(5)
N3 N 0.03732(9) 0.5089(3) 0.3169(5)
N4 N 0.05940(9) 0.6732(3) 0.4036(5)
N5 N -0.03428(9) 0.2580(3) 0.1449(5)
C1 C 0.12125(11) 0.6665(4) 0.2431(5)
C2 C 0.08411(11) 0.6194(3) 0.2941(6)
C3 C 0.17584(12) 0.6696(4) 0.0479(7)
C4 C -0.09349(13) 0.1593(4) 0.1229(7)
H1 H -0.1187 0.1529 0.1590
C5 C 0.13709(12) 0.7552(4) 0.3450(6)
H2 H 0.1242 0.7845 0.4457
C6 C 0.14068(13) 0.6228(4) 0.0952(6)
H3 H 0.1304 0.5624 0.0271
C7 C -0.07086(12) 0.2471(4) 0.1907(6)
H4 H -0.0814 0.3005 0.2711
C8 C 0.19195(13) 0.7581(4) 0.1492(8)
H5 H 0.2156 0.7881 0.1181
C9 C 0.17219(13) 0.8007(4) 0.2973(7)
C10 C -0.07833(15) 0.0820(4) 0.0025(8)
H6 H -0.0930 0.0221 -0.0446
C11 C -0.01986(13) 0.1819(4) 0.0257(7)
H7 H 0.0055 0.1893 -0.0077
C12 C -0.04064(17) 0.0942(4) -0.0488(8)
H8 H -0.0298 0.0435 -0.1325
C13 C 0.18918(16) 0.8922(5) 0.4140(10)
C14 C 0.19530(17) 0.6217(6) -0.1190(10)
F1C F -0.17375(18) 0.6326(5) 0.7678(5)
F2C F -0.20086(14) 0.5081(4) 0.6083(7)
F3C F -0.22794(12) 0.6715(5) 0.6525(7)
F4C F -0.16749(13) 0.9706(5) 0.0448(13)
F5C F -0.2069(3) 0.8564(4) -0.0459(10)
F6C F -0.21735(19) 0.9455(6) 0.1673(11)
N1C N -0.03004(9) 0.6017(3) 0.0825(5)
N2C N -0.07131(9) 0.5175(3) 0.2635(5)
N3C N -0.03732(9) 0.5089(3) 0.1831(5)
N4C N -0.05940(9) 0.6732(3) 0.0964(5)
N5C N 0.03428(9) 0.2580(3) 0.3551(5)
C1C C -0.12125(11) 0.6665(4) 0.2569(5)
C2C C -0.08411(11) 0.6194(3) 0.2059(6)
C3C C -0.17584(12) 0.6696(4) 0.4521(7)
C4C C 0.09349(13) 0.1593(4) 0.3771(7)
H1C H 0.1187 0.1529 0.3410
C5C C -0.13709(12) 0.7552(4) 0.1550(6)
H2C H -0.1242 0.7845 0.0543
C6C C -0.14068(13) 0.6228(4) 0.4048(6)
H3C H -0.1304 0.5624 0.4729
C7C C 0.07086(12) 0.2471(4) 0.3093(6)
H4C H 0.0814 0.3005 0.2289
C8C C -0.19195(13) 0.7581(4) 0.3508(8)
H5C H -0.2156 0.7881 0.3819
C9C C -0.17219(13) 0.8007(4) 0.2027(7)
C10C C 0.07833(15) 0.0820(4) 0.4975(8)
H6C H 0.0930 0.0221 0.5446
C11C C 0.01986(13) 0.1819(4) 0.4743(7)
H7C H -0.0055 0.1893 0.5077
C12C C 0.04064(17) 0.0942(4) 0.5488(8)
H8C H 0.0298 0.0435 0.6325
C13C C -0.18918(16) 0.8922(5) 0.0860(10)
C14C C -0.19530(17) 0.6217(6) 0.6190(10)
Cu1D Cu 0.0000 0.61412(5) -0.2500
Cu1D_2 Cu 0.0000 0.61412(5) 0.7500
N1D N -0.03004(9) 0.3983(3) 0.5825(5)
N1G N 0.03004(9) 0.3983(3) -0.0825(5)
loop_
_geom_bond_atom_site_label_1
_geom_bond_atom_site_label_2
_geom_bond_site_symmetry_1
_geom_bond_site_symmetry_2
Cu1 N3 1_555 1_555
F1 C14 1_555 1_555
F2 C14 1_555 1_555
F3 C14 1_555 1_555
F4 C13 1_555 1_555
F5 C13 1_555 1_555
F6 C13 1_555 1_555
N1 N3 1_555 1_555
N2 N3 1_555 1_555
N4 N1 1_555 1_555
N5 Cu1 1_555 1_555
C1 C2 1_555 1_555
C2 N2 1_555 1_555
C3 C6 1_555 1_555
C4 H1 1_555 1_555
C5 C1 1_555 1_555
H2 C5 1_555 1_555
C6 C1 1_555 1_555
H3 C6 1_555 1_555
C7 N5 1_555 1_555
H4 C7 1_555 1_555
C8 C3 1_555 1_555
H5 C8 1_555 1_555
C9 C5 1_555 1_555
C10 C4 1_555 1_555
H6 C10 1_555 1_555
C11 N5 1_555 1_555
H7 C11 1_555 1_555
C12 C10 1_555 1_555
H8 C12 1_555 1_555
C13 C9 1_555 1_555
C14 C3 1_555 1_555
F1C C14C 1_555 1_555
F2C C14C 1_555 1_555
F3C C14C 1_555 1_555
F4C C13C 1_555 1_555
F5C C13C 1_555 1_555
F6C C13C 1_555 1_555
N1C N3C 1_555 1_555
N2C N3C 1_555 1_555
N3C Cu1 1_555 1_555
N4C N1C 1_555 1_555
N5C Cu1 1_555 1_555
C1C C2C 1_555 1_555
C2C N2C 1_555 1_555
C3C C6C 1_555 1_555
C4C H1C 1_555 1_555
C5C C1C 1_555 1_555
H2C C5C 1_555 1_555
C6C C1C 1_555 1_555
H3C C6C 1_555 1_555
C7C N5C 1_555 1_555
H4C C7C 1_555 1_555
C8C C3C 1_555 1_555
H5C C8C 1_555 1_555
C9C C5C 1_555 1_555
C10C C4C 1_555 1_555
H6C C10C 1_555 1_555
C11C N5C 1_555 1_555
H7C C11C 1_555 1_555
C12C C10C 1_555 1_555
H8C C12C 1_555 1_555
C13C C9C 1_555 1_555
C14C C3C 1_555 1_555
Cu1D N1C 1_555 1_555
Cu1D_2 N1 1_555 1_555
N1D Cu1 1_555 1_555
N1G Cu1 1_555 1_555
N4 C2 1_555 1_555
C4 C7 1_555 1_555
C8 C9 1_555 1_555
C11 C12 1_555 1_555
N4C C2C 1_555 1_555
C4C C7C 1_555 1_555
C8C C9C 1_555 1_555
C11C C12C 1_555 1_555

#END
