
#######################################################################
#
#                 Cambridge Crystallographic Data Centre
#                                CCDC 
#
#######################################################################
#
# If this CIF has been generated from an entry in the Cambridge 
# Structural Database, then it will include bibliographic, chemical, 
# crystal, experimental, refinement or atomic coordinate data resulting 
# from the CCDC's data processing and validation procedures.
#
#######################################################################

data_FURCUS
_symmetry_cell_setting           monoclinic
_symmetry_space_group_name_H-M   'P 21/c'
_symmetry_Int_Tables_number      14
_space_group_name_Hall           '-P 2ybc'
loop_
_symmetry_equiv_pos_site_id
_symmetry_equiv_pos_as_xyz
1 x,y,z
2 -x,1/2+y,1/2-z
3 -x,-y,-z
4 x,1/2-y,1/2+z
_cell_length_a                   14.24794(9)
_cell_length_b                   24.60153(11)
_cell_length_c                   12.91190(9)
_cell_angle_alpha                90
_cell_angle_beta                 112.7214(7)
_cell_angle_gamma                90
_cell_volume                     4174.66
loop_
_atom_site_label
_atom_site_type_symbol
_atom_site_fract_x
_atom_site_fract_y
_atom_site_fract_z
Mo1 Mo 0.39625(2) 0.46303(2) 0.51390(2)
Mo2 Mo 0.65460(2) 0.46271(2) 0.70513(2)
Mo3 Mo 0.56163(2) 0.39536(2) 0.45381(2)
Mo4 Mo 0.51336(2) 0.47110(2) 0.22938(2)
O1 O 0.33885(12) 0.53231(6) 0.44533(15)
O2 O 0.37959(14) 0.47310(7) 0.63994(16)
O3 O 0.46491(14) 0.35171(8) 0.38323(16)
O4 O 0.51393(12) 0.41506(7) 0.57402(15)
O5 O 0.46704(12) 0.47432(7) 0.39560(15)
O6 O 0.59912(13) 0.41978(7) 0.33481(15)
O7 O 0.43100(14) 0.53435(7) 0.21224(16)
O8 O 0.66037(15) 0.35379(7) 0.52393(16)
O9 O 0.30382(14) 0.41911(7) 0.44026(17)
O10 O 0.74431(16) 0.50941(9) 0.77283(18)
O11 O 0.41582(16) 0.42835(8) 0.15470(17)
O12 O 0.71236(15) 0.40130(8) 0.74892(17)
O13 O 0.57618(18) 0.48353(9) 0.14348(18)
Mo1B Mo 0.60375(2) 0.53697(2) 0.48610(2)
Mo2B Mo 0.34540(2) 0.53729(2) 0.29487(2)
Mo3B Mo 0.43837(2) 0.60464(2) 0.54619(2)
Mo4B Mo 0.48664(2) 0.52890(2) 0.77062(2)
O1B O 0.66115(12) 0.46769(6) 0.55467(15)
O2B O 0.62041(14) 0.52690(7) 0.36006(16)
O3B O 0.53509(14) 0.64829(8) 0.61677(16)
O4B O 0.48607(12) 0.58494(7) 0.42598(15)
O5B O 0.53296(12) 0.52568(7) 0.60440(15)
O6B O 0.40088(13) 0.58022(7) 0.66519(15)
O7B O 0.56900(14) 0.46565(7) 0.78776(16)
O8B O 0.33963(15) 0.64621(7) 0.47607(16)
O9B O 0.69618(14) 0.58089(7) 0.55974(17)
O10B O 0.25569(16) 0.49059(9) 0.22717(18)
O11B O 0.58418(16) 0.57165(8) 0.84530(17)
O12B O 0.28764(15) 0.59870(8) 0.25108(17)
O13B O 0.42382(18) 0.51647(9) 0.85652(18)
Zn1 Zn 1.18334(2) 0.24157(2) 1.25663(3)
Zn2 Zn 0.93861(2) 0.28682(2) 0.78147(3)
N1 N 1.07686(16) 0.32969(9) 0.68588(19)
O14 O 0.91072(16) 0.36347(8) 0.8601(2)
N2 N 2.05537(15) 0.20011(9) 1.71290(18)
N3 N 1.06735(14) 0.26640(9) 0.91262(17)
N4 N 1.06643(15) 0.25816(10) 1.01108(18)
N5 N 1.16336(15) 0.26509(9) 0.91626(18)
N6 N 1.16269(15) 0.25146(9) 1.08364(18)
N7 N 1.31410(15) 0.19648(9) 1.30812(18)
N8 N 1.95791(15) 0.21554(9) 1.68466(18)
N9 N 1.81333(15) 0.24496(8) 1.28683(18)
N10 N 1.47421(15) 0.17065(9) 1.38574(18)
O15 O 1.26658(17) 0.31660(10) 1.3028(2)
N11 N 1.65196(14) 0.26576(8) 1.23319(17)
N12 N 0.93008(17) 0.37017(10) 0.6086(2)
N13 N 2.05859(16) 0.15364(9) 1.6642(2)
N14 N 0.98491(16) 0.33468(9) 0.68637(19)
C1 C 1.71990(17) 0.22722(10) 1.2345(2)
N15 N 1.96319(16) 0.13775(9) 1.6019(2)
C2 C 1.49676(18) 0.21134(10) 1.1478(2)
C3 C 1.33321(16) 0.25569(10) 1.07472(19)
C4 C 1.80567(19) 0.29720(11) 1.3214(2)
N16 N 1.08456(17) 0.36244(10) 0.6072(2)
N17 N 0.7704(2) 0.55268(12) 0.0127(2)
H1 H 0.7170 0.5603 -0.0458
C5 C 1.39134(18) 0.20848(10) 1.0943(2)
C6 C 1.40799(18) 0.21222(11) 1.3663(2)
N18 N 0.86754(19) 0.51930(10) 0.1723(2)
C7 C 1.48644(18) 0.30863(10) 1.1586(2)
C8 C 1.54359(17) 0.26167(10) 1.1795(2)
C9 C 1.63232(19) 0.22218(10) 1.4623(2)
C10 C 1.22076(17) 0.25575(9) 1.0239(2)
C11 C 1.79185(18) 0.17618(11) 1.5587(2)
C12 C 1.73745(19) 0.22357(10) 1.5190(2)
C13 C 1.70724(19) 0.31070(10) 1.2892(2)
C14 C 1.58195(18) 0.17282(10) 1.4456(2)
C15 C 0.9637(2) 0.42354(11) 0.4643(2)
C16 C 0.99351(19) 0.38640(10) 0.5614(2)
C17 C 1.38132(19) 0.30536(11) 1.1072(2)
C18 C 1.90323(18) 0.17670(10) 1.6162(2)
C19 C 0.9018(2) 0.48799(12) 0.2746(2)
C20 C 0.7717(2) 0.52279(13) 0.0986(3)
C21 C 0.8695(2) 0.44913(13) 0.4271(3)
C22 C 1.7403(2) 0.12688(11) 1.5409(3)
C23 C 1.6352(2) 0.12505(11) 1.4856(3)
C24 C 0.9961(2) 0.46286(13) 0.3107(3)
C25 C 0.8384(2) 0.48220(13) 0.3325(3)
C26 C 1.3206(2) 0.14175(12) 1.2871(3)
C27 C 1.0272(2) 0.43093(13) 0.4064(3)
C28 C 1.4183(2) 0.12541(12) 1.3342(3)
C29 C 0.9272(3) 0.54883(18) 0.1311(3)
C30 C 0.8672(3) 0.56959(19) 0.0315(3)
H2 H 1.363(2) 0.1749(13) 1.073(3)
H3 H 1.774(2) 0.2568(12) 1.527(3)
H4 H 1.534(2) 0.1800(13) 1.158(3)
H5 H 1.676(3) 0.3448(14) 1.295(3)
H6 H 1.701(2) 0.1920(13) 1.201(3)
H7 H 1.600(2) 0.2524(13) 1.436(3)
H8 H 1.262(3) 0.1203(14) 1.241(3)
H9 H 1.425(3) 0.2457(14) 1.392(3)
H10 H 0.776(3) 0.5018(14) 0.307(3)
H11 H 1.344(3) 0.3369(14) 1.092(3)
H12 H 0.826(3) 0.4453(14) 0.465(3)
H13 H 0.857(4) 0.3746(17) 0.827(4)
H14 H 1.777(3) 0.0953(15) 1.565(3)
H15 H 1.603(3) 0.0900(16) 1.476(3)
H16 H 1.521(3) 0.3417(13) 1.178(3)
H17 H 1.037(3) 0.4669(14) 0.269(3)
H18 H 0.924(3) 0.3650(14) 0.931(3)
H19 H 1.089(3) 0.4143(15) 0.433(3)
H20 H 0.715(3) 0.5075(14) 0.112(3)
H21 H 0.990(3) 0.5516(17) 0.172(4)
H22 H 1.328(4) 0.3246(19) 1.324(4)
H23 H 1.237(3) 0.3397(17) 1.294(4)
H24 H 0.882(4) 0.5913(19) -0.025(4)
H25 H 1.449(3) 0.0934(17) 1.321(3)
H26 H 1.862(3) 0.3203(15) 1.354(3)
Zn1C Zn 1.18334(2) 0.25843(2) 0.75663(3)
Zn1C_2 Zn 2.18334(2) 0.25843(2) 1.75663(3)
Zn2_2 Zn 1.93861(2) 0.28682(2) 1.78147(3)
Zn2C Zn 1.93861(2) 0.21318(2) 1.28147(3)
N1C N 1.07686(16) 0.17031(9) 1.18588(19)
N2C N 1.05537(15) 0.29989(9) 1.21290(18)
N5C N 1.16336(15) 0.23491(9) 1.41626(18)
N8_2 N 0.95791(15) 0.21554(9) 0.68466(18)
N9C N 0.81333(15) 0.25504(8) 0.78683(18)
loop_
_geom_bond_atom_site_label_1
_geom_bond_atom_site_label_2
_geom_bond_site_symmetry_1
_geom_bond_site_symmetry_2
Mo1 O1 1_555 1_555
Mo2 O4 1_555 1_555
Mo3 O3 1_555 1_555
Mo4 O5 1_555 1_555
O1 Mo2B 1_555 1_555
O2 Mo1 1_555 1_555
O4 Mo1 1_555 1_555
O5 Mo1 1_555 1_555
O6 Mo3 1_555 1_555
O7 Mo4 1_555 1_555
O8 Mo3 1_555 1_555
O9 Mo1 1_555 1_555
O10 Mo2 1_555 1_555
O11 Mo4 1_555 1_555
O12 Mo2 1_555 1_555
O13 Mo4 1_555 1_555
Zn1 N6 1_555 1_555
Zn2 O14 1_555 1_555
N1 N14 1_555 1_555
O14 H13 1_555 1_555
N2 N8 1_555 1_555
N3 Zn2 1_555 1_555
N4 N3 1_555 1_555
N5 N3 1_555 1_555
N6 N4 1_555 1_555
N7 Zn1 1_555 1_555
N8 C18 1_555 1_555
N9 C1 1_555 1_555
N10 C6 1_555 1_555
O15 Zn1 1_555 1_555
N11 C1 1_555 1_555
N12 N14 1_555 1_555
N13 N2 1_555 1_555
N14 Zn2 1_555 1_555
C1 H6 1_555 1_555
N15 N13 1_555 1_555
C2 C5 1_555 1_555
C3 C5 1_555 1_555
C4 N9 1_555 1_555
N16 N1 1_555 1_555
N17 H1 1_555 1_555
C5 H2 1_555 1_555
C6 N7 1_555 1_555
N18 C19 1_555 1_555
C7 C8 1_555 1_555
C8 N11 1_555 1_555
C9 C12 1_555 1_555
C10 N5 1_555 1_555
C11 C12 1_555 1_555
C12 H3 1_555 1_555
C13 N11 1_555 1_555
C14 N10 1_555 1_555
C15 C16 1_555 1_555
C16 N12 1_555 1_555
C17 C3 1_555 1_555
C18 N15 1_555 1_555
C19 C24 1_555 1_555
C20 N17 1_555 1_555
C21 C15 1_555 1_555
C22 C11 1_555 1_555
C23 C14 1_555 1_555
C24 C27 1_555 1_555
C25 C19 1_555 1_555
C26 N7 1_555 1_555
C27 C15 1_555 1_555
C28 N10 1_555 1_555
C29 N18 1_555 1_555
C30 N17 1_555 1_555
H4 C2 1_555 1_555
H5 C13 1_555 1_555
H7 C9 1_555 1_555
H8 C26 1_555 1_555
H9 C6 1_555 1_555
H10 C25 1_555 1_555
H11 C17 1_555 1_555
H12 C21 1_555 1_555
H14 C22 1_555 1_555
H15 C23 1_555 1_555
H16 C7 1_555 1_555
H17 C24 1_555 1_555
H18 O14 1_555 1_555
H19 C27 1_555 1_555
H20 C20 1_555 1_555
H21 C29 1_555 1_555
H22 O15 1_555 1_555
H23 O15 1_555 1_555
H24 C30 1_555 1_555
H25 C28 1_555 1_555
H26 C4 1_555 1_555
Mo1B O5 1_555 1_555
Mo2B O5 1_555 1_555
Mo3B O1 1_555 1_555
Mo4B O2 1_555 1_555
O1B Mo2 1_555 1_555
O2B Mo4 1_555 1_555
O3B Mo3B 1_555 1_555
O4B Mo1B 1_555 1_555
O5B Mo1 1_555 1_555
O6B Mo3B 1_555 1_555
O7B Mo2 1_555 1_555
O8B Mo3B 1_555 1_555
O9B Mo1B 1_555 1_555
O10B Mo2B 1_555 1_555
O11B Mo4B 1_555 1_555
O12B Mo2B 1_555 1_555
O13B Mo4B 1_555 1_555
Zn1C N1 1_555 1_555
Zn1C_2 N2 1_555 1_555
Zn2_2 N8 1_555 1_555
Zn2C N9 1_555 1_555
N1C Zn1 1_555 1_555
N2C Zn1 1_555 1_555
N5C Zn1 1_555 1_555
N8_2 Zn2 1_555 1_555
N9C Zn2 1_555 1_555
Mo2 O5B 1_555 1_555
Mo3 O4 1_555 1_555
Mo3 O5 1_555 1_555
Mo3 O1B 1_555 1_555
Mo4 O6 1_555 1_555
O7 Mo2B 1_555 1_555
N5 Zn1C 1_555 1_555
N6 C10 1_555 1_555
C2 C8 1_555 1_555
C3 C10 1_555 1_555
C4 C13 1_555 1_555
N16 C16 1_555 1_555
N18 C20 1_555 1_555
C7 C17 1_555 1_555
C9 C14 1_555 1_555
C11 C18 1_555 1_555
C21 C25 1_555 1_555
C22 C23 1_555 1_555
C26 C28 1_555 1_555
C29 C30 1_555 1_555
Mo1B O1B 1_555 1_555
Mo1B O2B 1_555 1_555
Mo1B O5B 1_555 1_555
Mo2B O4B 1_555 1_555
Mo3B O4B 1_555 1_555
Mo3B O5B 1_555 1_555
Mo4B O5B 1_555 1_555
Mo4B O6B 1_555 1_555
Mo4B O7B 1_555 1_555

#END
