
#######################################################################
#
#                 Cambridge Crystallographic Data Centre
#                                CCDC 
#
#######################################################################
#
# If this CIF has been generated from an entry in the Cambridge 
# Structural Database, then it will include bibliographic, chemical, 
# crystal, experimental, refinement or atomic coordinate data resulting 
# from the CCDC's data processing and validation procedures.
#
#######################################################################

data_FURDON
_symmetry_cell_setting           tetragonal
_symmetry_space_group_name_H-M   'P 4/n c c'
_symmetry_Int_Tables_number      130
_space_group_name_Hall           '-P 4a 2ac'
loop_
_symmetry_equiv_pos_site_id
_symmetry_equiv_pos_as_xyz
1 x,y,z
2 1/2-x,1/2-y,z
3 1/2-y,x,z
4 y,1/2-x,z
5 -x,1/2+y,1/2-z
6 1/2+x,-y,1/2-z
7 1/2+y,1/2+x,1/2-z
8 -y,-x,1/2-z
9 -x,-y,-z
10 1/2+x,1/2+y,-z
11 1/2+y,-x,-z
12 -y,1/2+x,-z
13 x,1/2-y,1/2+z
14 1/2-x,y,1/2+z
15 1/2-y,1/2-x,1/2+z
16 y,x,1/2+z
_cell_length_a                   23.5008(5)
_cell_length_b                   23.5008(5)
_cell_length_c                   15.7514(7)
_cell_angle_alpha                90
_cell_angle_beta                 90
_cell_angle_gamma                90
_cell_volume                     8699.3
loop_
_atom_site_label
_atom_site_type_symbol
_atom_site_fract_x
_atom_site_fract_y
_atom_site_fract_z
Dy1 Dy 0.7500 0.2500 1.0000
Dy2 Dy 0.616798(17) 0.383202(17) 0.7500
C1 C 0.7436(5) 0.4366(4) 0.7325(4)
C2 C 0.7190(4) 0.3715(4) 0.8964(6)
C3 C 0.7410(4) 0.4646(4) 0.8205(6)
C4 C 0.7477(4) 0.5227(4) 0.8248(6)
H1 H 0.7540 0.5432 0.7753
C5 C 0.7454(4) 0.5514(4) 0.9033(7)
C6 C 0.7498(5) 0.6110(5) 0.9096(9)
H2 H 0.7543 0.6325 0.8604
C7 C 0.7477(7) 0.6378(5) 0.9858(12)
H3 H 0.7503 0.6772 0.9886
C8 C 0.7415(7) 0.6058(6) 1.0606(11)
H4 H 0.7408 0.6244 1.1128
C9 C 0.7365(6) 0.5483(5) 1.0580(7)
H5 H 0.7316 0.5279 1.1080
C10 C 0.7389(4) 0.5195(4) 0.9801(6)
C11 C 0.7313(4) 0.4607(4) 0.9732(6)
H6 H 0.7264 0.4395 1.0224
C12 C 0.7309(4) 0.4335(4) 0.8970(6)
C13 C 0.6178(6) 0.5286(5) 0.7150(8)
H7 H 0.6260 0.5159 0.6604
C14 C 0.6193(6) 0.5855(6) 0.7294(10)
H8 H 0.6272 0.6108 0.6856
C15 C 0.6092(7) 0.6047(6) 0.8090(11)
H9 H 0.6111 0.6435 0.8202
C16 C 0.5958(6) 0.5665(6) 0.8754(10)
C17 C 0.5860(8) 0.5842(8) 0.9592(12)
H10 H 0.5851 0.6228 0.9725
C18 C 0.5780(8) 0.5449(8) 1.0198(11)
H11 H 0.5718 0.5575 1.0750
C19 C 0.5785(6) 0.4860(7) 1.0053(9)
C20 C 0.5726(6) 0.4451(7) 1.0659(9)
H12 H 0.5676 0.4557 1.1223
C21 C 0.5738(6) 0.3891(7) 1.0453(7)
H13 H 0.5686 0.3615 1.0868
C22 C 0.5832(5) 0.3733(6) 0.9591(7)
H14 H 0.5852 0.3350 0.9450
C23 C 0.5859(5) 0.4678(5) 0.9199(7)
C24 C 0.5947(4) 0.5089(5) 0.8542(8)
N1 N 0.6054(4) 0.4896(4) 0.7733(5)
N2 N 0.5890(4) 0.4117(4) 0.8993(5)
O1 O 0.6971(3) 0.4255(3) 0.6981(4)
O2 O 0.7911(4) 0.4253(4) 0.7022(5)
O3 O 0.6914(3) 0.3509(3) 0.8340(4)
O4 O 0.7353(3) 0.3426(2) 0.9576(3)
O5 O 0.6928(3) 0.2363(3) 0.8731(3)
H15 H 0.6814 0.2650 0.8450
H16 H 0.6840 0.2029 0.8570
Dy2A Dy 0.883202(17) 0.116798(17) 0.7500
C1A C 0.7564(5) 0.0634(4) 0.7325(4)
C2A C 0.7810(4) 0.1285(4) 0.8964(6)
C3A C 0.7590(4) 0.0354(4) 0.8205(6)
C4A C 0.7523(4) -0.0227(4) 0.8248(6)
H1A H 0.7460 -0.0432 0.7753
C5A C 0.7546(4) -0.0514(4) 0.9033(7)
C6A C 0.7502(5) -0.1110(5) 0.9096(9)
H2A H 0.7457 -0.1325 0.8604
C7A C 0.7523(7) -0.1378(5) 0.9858(12)
H3A H 0.7497 -0.1772 0.9886
C8A C 0.7585(7) -0.1058(6) 1.0606(11)
H4A H 0.7592 -0.1244 1.1128
C9A C 0.7635(6) -0.0483(5) 1.0580(7)
H5A H 0.7684 -0.0279 1.1080
C10A C 0.7611(4) -0.0195(4) 0.9801(6)
C11A C 0.7687(4) 0.0393(4) 0.9732(6)
H6A H 0.7736 0.0605 1.0224
C12A C 0.7691(4) 0.0665(4) 0.8970(6)
C13A C 0.8822(6) -0.0286(5) 0.7150(8)
H7A H 0.8740 -0.0159 0.6604
C14A C 0.8807(6) -0.0855(6) 0.7294(10)
H8A H 0.8728 -0.1108 0.6856
C15A C 0.8908(7) -0.1047(6) 0.8090(11)
H9A H 0.8889 -0.1435 0.8202
C16A C 0.9042(6) -0.0665(6) 0.8754(10)
C17A C 0.9140(8) -0.0842(8) 0.9592(12)
H10A H 0.9149 -0.1228 0.9725
C18A C 0.9220(8) -0.0449(8) 1.0198(11)
H11A H 0.9282 -0.0575 1.0750
C19A C 0.9215(6) 0.0140(7) 1.0053(9)
C20A C 0.9274(6) 0.0549(7) 1.0659(9)
H12A H 0.9324 0.0443 1.1223
C21A C 0.9262(6) 0.1109(7) 1.0453(7)
H13A H 0.9314 0.1385 1.0868
C22A C 0.9168(5) 0.1267(6) 0.9591(7)
H14A H 0.9148 0.1650 0.9450
C23A C 0.9141(5) 0.0322(5) 0.9199(7)
C24A C 0.9053(4) -0.0089(5) 0.8542(8)
N1A N 0.8946(4) 0.0104(4) 0.7733(5)
N2A N 0.9110(4) 0.0883(4) 0.8993(5)
O1A O 0.8029(3) 0.0745(3) 0.6981(4)
O2A O 0.7089(4) 0.0747(4) 0.7022(5)
O3A O 0.8086(3) 0.1491(3) 0.8340(4)
O4A O 0.7647(3) 0.1574(2) 0.9576(3)
O5A O 0.8072(3) 0.2637(3) 0.8731(3)
H15A H 0.8186 0.2350 0.8450
H16A H 0.8160 0.2971 0.8570
C1F C 0.9366(4) 0.2436(5) 0.7675(4)
C2F C 0.8715(4) 0.2190(4) 0.6036(6)
C3F C 0.9646(4) 0.2410(4) 0.6795(6)
C4F C 1.0227(4) 0.2477(4) 0.6752(6)
H1F H 1.0432 0.2540 0.7247
C5F C 1.0514(4) 0.2454(4) 0.5967(7)
C6F C 1.1110(5) 0.2498(5) 0.5904(9)
H2F H 1.1325 0.2543 0.6396
C7F C 1.1378(5) 0.2477(7) 0.5142(12)
H3F H 1.1772 0.2503 0.5114
C8F C 1.1058(6) 0.2415(7) 0.4394(11)
H4F H 1.1244 0.2408 0.3872
C9F C 1.0483(5) 0.2365(6) 0.4420(7)
H5F H 1.0279 0.2316 0.3920
C10F C 1.0195(4) 0.2389(4) 0.5199(6)
C11F C 0.9607(4) 0.2313(4) 0.5268(6)
H6F H 0.9395 0.2264 0.4776
C12F C 0.9335(4) 0.2309(4) 0.6030(6)
C13F C 1.0286(5) 0.1178(6) 0.7850(8)
H7F H 1.0159 0.1260 0.8396
C14F C 1.0855(6) 0.1193(6) 0.7706(10)
H8F H 1.1108 0.1272 0.8144
C15F C 1.1047(6) 0.1092(7) 0.6910(11)
H9F H 1.1435 0.1111 0.6798
C16F C 1.0665(6) 0.0958(6) 0.6246(10)
C17F C 1.0842(8) 0.0860(8) 0.5408(12)
H10F H 1.1228 0.0851 0.5275
C18F C 1.0449(8) 0.0780(8) 0.4802(11)
H11F H 1.0575 0.0718 0.4250
C19F C 0.9860(7) 0.0785(6) 0.4947(9)
C20F C 0.9451(7) 0.0726(6) 0.4341(9)
H12F H 0.9557 0.0676 0.3777
C21F C 0.8891(7) 0.0738(6) 0.4547(7)
H13F H 0.8615 0.0686 0.4132
C22F C 0.8733(6) 0.0832(5) 0.5409(7)
H14F H 0.8350 0.0852 0.5550
C23F C 0.9678(5) 0.0859(5) 0.5801(7)
C24F C 1.0089(5) 0.0947(4) 0.6458(8)
N1F N 0.9896(4) 0.1054(4) 0.7267(5)
N2F N 0.9117(4) 0.0890(4) 0.6007(5)
O1F O 0.9255(3) 0.1971(3) 0.8019(4)
O2F O 0.9253(4) 0.2911(4) 0.7978(5)
O3F O 0.8509(3) 0.1914(3) 0.6660(4)
O4F O 0.8426(2) 0.2353(3) 0.5424(3)
C1G C 0.5634(4) 0.2564(5) 0.7675(4)
C2G C 0.6285(4) 0.2810(4) 0.6036(6)
C3G C 0.5354(4) 0.2590(4) 0.6795(6)
C4G C 0.4773(4) 0.2523(4) 0.6752(6)
H1G H 0.4568 0.2460 0.7247
C5G C 0.4486(4) 0.2546(4) 0.5967(7)
C6G C 0.3890(5) 0.2502(5) 0.5904(9)
H2G H 0.3675 0.2457 0.6396
C7G C 0.3622(5) 0.2523(7) 0.5142(12)
H3G H 0.3228 0.2497 0.5114
C8G C 0.3942(6) 0.2585(7) 0.4394(11)
H4G H 0.3756 0.2592 0.3872
C9G C 0.4517(5) 0.2635(6) 0.4420(7)
H5G H 0.4721 0.2684 0.3920
C10G C 0.4805(4) 0.2611(4) 0.5199(6)
C11G C 0.5393(4) 0.2687(4) 0.5268(6)
H6G H 0.5605 0.2736 0.4776
C12G C 0.5665(4) 0.2691(4) 0.6030(6)
C13G C 0.4714(5) 0.3822(6) 0.7850(8)
H7G H 0.4841 0.3740 0.8396
C14G C 0.4145(6) 0.3807(6) 0.7706(10)
H8G H 0.3892 0.3728 0.8144
C15G C 0.3953(6) 0.3908(7) 0.6910(11)
H9G H 0.3565 0.3889 0.6798
C16G C 0.4335(6) 0.4042(6) 0.6246(10)
C17G C 0.4158(8) 0.4140(8) 0.5408(12)
H10G H 0.3772 0.4149 0.5275
C18G C 0.4551(8) 0.4220(8) 0.4802(11)
H11G H 0.4425 0.4282 0.4250
C19G C 0.5140(7) 0.4215(6) 0.4947(9)
C20G C 0.5549(7) 0.4274(6) 0.4341(9)
H12G H 0.5443 0.4324 0.3777
C21G C 0.6109(7) 0.4262(6) 0.4547(7)
H13G H 0.6385 0.4314 0.4132
C22G C 0.6267(6) 0.4168(5) 0.5409(7)
H14G H 0.6650 0.4148 0.5550
C23G C 0.5322(5) 0.4141(5) 0.5801(7)
C24G C 0.4911(5) 0.4053(4) 0.6458(8)
N1G N 0.5104(4) 0.3946(4) 0.7267(5)
N2G N 0.5883(4) 0.4110(4) 0.6007(5)
O1G O 0.5745(3) 0.3029(3) 0.8019(4)
O2G O 0.5747(4) 0.2089(4) 0.7978(5)
O3G O 0.6491(3) 0.3086(3) 0.6660(4)
O4G O 0.6574(2) 0.2647(3) 0.5424(3)
O5J O 0.7363(3) 0.3072(3) 1.1269(3)
H15J H 0.7650 0.3186 1.1550
H16J H 0.7029 0.3160 1.1430
O5K O 0.7637(3) 0.1928(3) 1.1269(3)
H15K H 0.7350 0.1814 1.1550
H16K H 0.7971 0.1840 1.1430
Dy1F Dy 0.7500 0.2500 0.5000
O4J O 0.8426(2) 0.2647(3) 1.0424(3)
O4K O 0.6574(2) 0.2353(3) 1.0424(3)
O6 O 0.5963(5) 0.0963(5) 0.7500
H17 H 0.5953 0.0628 0.7730
H17F H 0.5628 0.0953 0.7270
Cl1 Cl 0.7495(18) 0.7429(7) 0.7292(4)
O7 O 0.751(4) 0.7749(8) 0.6507(9)
O8B O 0.7195(8) 0.750(3) 0.8000(9)
O9B O 0.7914(14) 0.6987(12) 0.730(4)
O10C O 0.7063(14) 0.7014(12) 0.732(4)
O8 O 0.750(3) 0.7805(8) 0.8000(9)
O9 O 0.6987(12) 0.7086(14) 0.730(4)
O10A O 0.7014(12) 0.7937(14) 0.732(4)
Cl1C Cl 0.7429(7) 0.7505(18) 0.7292(4)
O7C O 0.7749(8) 0.749(4) 0.6507(9)
O10 O 0.7986(12) 0.7063(14) 0.732(4)
O8A O 0.750(3) 0.7195(8) 0.8000(9)
O9A O 0.8013(12) 0.7914(14) 0.730(4)
Cl1B Cl 0.7571(7) 0.7495(18) 0.7292(4)
O7B O 0.7251(8) 0.751(4) 0.6507(9)
Cl1A Cl 0.7505(18) 0.7571(7) 0.7292(4)
O7A O 0.749(4) 0.7251(8) 0.6507(9)
O10B O 0.7937(14) 0.7986(12) 0.732(4)
O8C O 0.7805(8) 0.750(3) 0.8000(9)
O9C O 0.7086(14) 0.8013(12) 0.730(4)
loop_
_geom_bond_atom_site_label_1
_geom_bond_atom_site_label_2
_geom_bond_site_symmetry_1
_geom_bond_site_symmetry_2
Dy1 O4 1_555 1_555
Dy2 N1 1_555 1_555
C1 C3 1_555 1_555
C2 C12 1_555 1_555
C3 C4 1_555 1_555
C4 H1 1_555 1_555
C5 C4 1_555 1_555
C6 C5 1_555 1_555
H2 C6 1_555 1_555
C7 C6 1_555 1_555
H3 C7 1_555 1_555
C8 C7 1_555 1_555
H4 C8 1_555 1_555
C9 C8 1_555 1_555
H5 C9 1_555 1_555
C10 C5 1_555 1_555
C11 C10 1_555 1_555
H6 C11 1_555 1_555
C12 C3 1_555 1_555
C13 H7 1_555 1_555
C14 C13 1_555 1_555
H8 C14 1_555 1_555
C15 C14 1_555 1_555
H9 C15 1_555 1_555
C16 C15 1_555 1_555
C17 C16 1_555 1_555
H10 C17 1_555 1_555
C18 C17 1_555 1_555
H11 C18 1_555 1_555
C19 C18 1_555 1_555
C20 C19 1_555 1_555
H12 C20 1_555 1_555
C21 C20 1_555 1_555
H13 C21 1_555 1_555
C22 C21 1_555 1_555
H14 C22 1_555 1_555
C23 C19 1_555 1_555
C24 C16 1_555 1_555
N1 C13 1_555 1_555
N2 Dy2 1_555 1_555
O1 Dy2 1_555 1_555
O2 C1 1_555 1_555
O3 Dy2 1_555 1_555
O4 C2 1_555 1_555
O5 Dy1 1_555 1_555
H15 O5 1_555 1_555
H16 O5 1_555 1_555
O6 H17 1_555 1_555
Cl1 O7 1_555 1_555
O8 Cl1C 1_555 1_555
O9 Cl1C 1_555 1_555
O10 Cl1B 1_555 1_555
Dy2A N1A 1_555 1_555
C1A C3A 1_555 1_555
C2A C12A 1_555 1_555
C3A C4A 1_555 1_555
C4A H1A 1_555 1_555
C5A C4A 1_555 1_555
C6A C5A 1_555 1_555
H2A C6A 1_555 1_555
C7A C6A 1_555 1_555
H3A C7A 1_555 1_555
C8A C7A 1_555 1_555
H4A C8A 1_555 1_555
C9A C8A 1_555 1_555
H5A C9A 1_555 1_555
C10A C5A 1_555 1_555
C11A C10A 1_555 1_555
H6A C11A 1_555 1_555
C12A C3A 1_555 1_555
C13A H7A 1_555 1_555
C14A C13A 1_555 1_555
H8A C14A 1_555 1_555
C15A C14A 1_555 1_555
H9A C15A 1_555 1_555
C16A C15A 1_555 1_555
C17A C16A 1_555 1_555
H10A C17A 1_555 1_555
C18A C17A 1_555 1_555
H11A C18A 1_555 1_555
C19A C18A 1_555 1_555
C20A C19A 1_555 1_555
H12A C20A 1_555 1_555
C21A C20A 1_555 1_555
H13A C21A 1_555 1_555
C22A C21A 1_555 1_555
H14A C22A 1_555 1_555
C23A C19A 1_555 1_555
C24A C16A 1_555 1_555
N1A C13A 1_555 1_555
N2A Dy2A 1_555 1_555
O1A Dy2A 1_555 1_555
O2A C1A 1_555 1_555
O3A Dy2A 1_555 1_555
O4A Dy1 1_555 1_555
O5A Dy1 1_555 1_555
H15A O5A 1_555 1_555
H16A O5A 1_555 1_555
C1F C3F 1_555 1_555
C2F C12F 1_555 1_555
C3F C4F 1_555 1_555
C4F H1F 1_555 1_555
C5F C4F 1_555 1_555
C6F C5F 1_555 1_555
H2F C6F 1_555 1_555
C7F C6F 1_555 1_555
H3F C7F 1_555 1_555
C8F C7F 1_555 1_555
H4F C8F 1_555 1_555
C9F C8F 1_555 1_555
H5F C9F 1_555 1_555
C10F C5F 1_555 1_555
C11F C10F 1_555 1_555
H6F C11F 1_555 1_555
C12F C3F 1_555 1_555
C13F H7F 1_555 1_555
C14F C13F 1_555 1_555
H8F C14F 1_555 1_555
C15F C14F 1_555 1_555
H9F C15F 1_555 1_555
C16F C15F 1_555 1_555
C17F C16F 1_555 1_555
H10F C17F 1_555 1_555
C18F C17F 1_555 1_555
H11F C18F 1_555 1_555
C19F C18F 1_555 1_555
C20F C19F 1_555 1_555
H12F C20F 1_555 1_555
C21F C20F 1_555 1_555
H13F C21F 1_555 1_555
C22F C21F 1_555 1_555
H14F C22F 1_555 1_555
C23F C19F 1_555 1_555
C24F C16F 1_555 1_555
N1F Dy2A 1_555 1_555
N2F Dy2A 1_555 1_555
O1F Dy2A 1_555 1_555
O2F C1F 1_555 1_555
O3F Dy2A 1_555 1_555
O4F C2F 1_555 1_555
C1G C3G 1_555 1_555
C2G C12G 1_555 1_555
C3G C4G 1_555 1_555
C4G H1G 1_555 1_555
C5G C4G 1_555 1_555
C6G C5G 1_555 1_555
H2G C6G 1_555 1_555
C7G C6G 1_555 1_555
H3G C7G 1_555 1_555
C8G C7G 1_555 1_555
H4G C8G 1_555 1_555
C9G C8G 1_555 1_555
H5G C9G 1_555 1_555
C10G C5G 1_555 1_555
C11G C10G 1_555 1_555
H6G C11G 1_555 1_555
C12G C3G 1_555 1_555
C13G H7G 1_555 1_555
C14G C13G 1_555 1_555
H8G C14G 1_555 1_555
C15G C14G 1_555 1_555
H9G C15G 1_555 1_555
C16G C15G 1_555 1_555
C17G C16G 1_555 1_555
H10G C17G 1_555 1_555
C18G C17G 1_555 1_555
H11G C18G 1_555 1_555
C19G C18G 1_555 1_555
C20G C19G 1_555 1_555
H12G C20G 1_555 1_555
C21G C20G 1_555 1_555
H13G C21G 1_555 1_555
C22G C21G 1_555 1_555
H14G C22G 1_555 1_555
C23G C19G 1_555 1_555
C24G C16G 1_555 1_555
N1G Dy2 1_555 1_555
N2G Dy2 1_555 1_555
O1G Dy2 1_555 1_555
O2G C1G 1_555 1_555
O3G Dy2 1_555 1_555
O4G C2G 1_555 1_555
O5J Dy1 1_555 1_555
H15J O5J 1_555 1_555
H16J O5J 1_555 1_555
O5K Dy1 1_555 1_555
H15K O5K 1_555 1_555
H16K O5K 1_555 1_555
Dy1F O4F 1_555 1_555
O4J Dy1 1_555 1_555
O4K Dy1 1_555 1_555
H17F O6 1_555 1_555
O8B Cl1 1_555 1_555
O9B Cl1 1_555 1_555
O10C Cl1 1_555 1_555
O10A Cl1C 1_555 1_555
Cl1C O7C 1_555 1_555
O8A Cl1B 1_555 1_555
O9A Cl1B 1_555 1_555
Cl1B O7B 1_555 1_555
Cl1A O7A 1_555 1_555
O10B Cl1A 1_555 1_555
O8C Cl1A 1_555 1_555
O9C Cl1A 1_555 1_555
C1 O1 1_555 1_555
C2 O3 1_555 1_555
C9 C10 1_555 1_555
C11 C12 1_555 1_555
C22 N2 1_555 1_555
C23 C24 1_555 1_555
C23 N2 1_555 1_555
C24 N1 1_555 1_555
C1A O1A 1_555 1_555
C2A O3A 1_555 1_555
C2A O4A 1_555 1_555
C9A C10A 1_555 1_555
C11A C12A 1_555 1_555
C22A N2A 1_555 1_555
C23A C24A 1_555 1_555
C23A N2A 1_555 1_555
C24A N1A 1_555 1_555
C1F O1F 1_555 1_555
C2F O3F 1_555 1_555
C9F C10F 1_555 1_555
C11F C12F 1_555 1_555
C13F N1F 1_555 1_555
C22F N2F 1_555 1_555
C23F C24F 1_555 1_555
C23F N2F 1_555 1_555
C24F N1F 1_555 1_555
C1G O1G 1_555 1_555
C2G O3G 1_555 1_555
C9G C10G 1_555 1_555
C11G C12G 1_555 1_555
C13G N1G 1_555 1_555
C22G N2G 1_555 1_555
C23G C24G 1_555 1_555
C23G N2G 1_555 1_555
C24G N1G 1_555 1_555
O4G Dy1F 1_555 1_555

#END
