
#######################################################################
#
#                 Cambridge Crystallographic Data Centre
#                                CCDC 
#
#######################################################################
#
# If this CIF has been generated from an entry in the Cambridge 
# Structural Database, then it will include bibliographic, chemical, 
# crystal, experimental, refinement or atomic coordinate data resulting 
# from the CCDC's data processing and validation procedures.
#
#######################################################################

data_FURDUT
_symmetry_cell_setting           tetragonal
_symmetry_space_group_name_H-M   'P 4/n c c'
_symmetry_Int_Tables_number      130
_space_group_name_Hall           '-P 4a 2ac'
loop_
_symmetry_equiv_pos_site_id
_symmetry_equiv_pos_as_xyz
1 x,y,z
2 1/2-x,1/2-y,z
3 1/2-y,x,z
4 y,1/2-x,z
5 -x,1/2+y,1/2-z
6 1/2+x,-y,1/2-z
7 1/2+y,1/2+x,1/2-z
8 -y,-x,1/2-z
9 -x,-y,-z
10 1/2+x,1/2+y,-z
11 1/2+y,-x,-z
12 -y,1/2+x,-z
13 x,1/2-y,1/2+z
14 1/2-x,y,1/2+z
15 1/2-y,1/2-x,1/2+z
16 y,x,1/2+z
_cell_length_a                   23.5008(5)
_cell_length_b                   23.5008(5)
_cell_length_c                   15.7514(7)
_cell_angle_alpha                90
_cell_angle_beta                 90
_cell_angle_gamma                90
_cell_volume                     8699.3
loop_
_atom_site_label
_atom_site_type_symbol
_atom_site_fract_x
_atom_site_fract_y
_atom_site_fract_z
Tb1 Tb 0.7500 0.2500 1.0000
Tb2 Tb 0.61613(3) 0.38387(3) 0.7500
C1 C 0.7421(8) 0.4373(7) 0.7328(9)
C2 C 0.7192(7) 0.3723(8) 0.8959(10)
C3 C 0.7404(7) 0.4652(7) 0.8217(9)
C4 C 0.7471(8) 0.5226(8) 0.8262(11)
H1 H 0.7532 0.5430 0.7764
C5 C 0.7449(9) 0.5521(7) 0.9044(10)
C6 C 0.7484(9) 0.6115(8) 0.9101(14)
H2 H 0.7518 0.6328 0.8606
C7 C 0.7471(13) 0.6395(10) 0.988(3)
H3 H 0.7498 0.6789 0.9917
C8 C 0.7414(12) 0.6059(12) 1.057(2)
H4 H 0.7406 0.6240 1.1096
C9 C 0.7370(9) 0.5486(8) 1.0575(11)
H5 H 0.7322 0.5283 1.1078
C10 C 0.7398(9) 0.5213(8) 0.9797(10)
C11 C 0.7316(8) 0.4600(8) 0.9741(10)
H6 H 0.7273 0.4385 1.0232
C12 C 0.7301(7) 0.4345(7) 0.8966(10)
C13 C 0.6180(10) 0.5300(11) 0.7138(14)
H7 H 0.6278 0.5177 0.6596
C14 C 0.6172(14) 0.5854(12) 0.7292(19)
H8 H 0.6218 0.6111 0.6848
C15 C 0.6097(13) 0.6047(10) 0.8090(19)
H9 H 0.6138 0.6434 0.8199
C16 C 0.5957(11) 0.5675(11) 0.877(2)
C17 C 0.5851(13) 0.5842(13) 0.964(2)
H10 H 0.5838 0.6224 0.9790
C18 C 0.5775(14) 0.5435(15) 1.021(2)
H11 H 0.5714 0.5552 1.0763
C19 C 0.5775(12) 0.4857(12) 1.0061(16)
C20 C 0.5734(12) 0.4471(16) 1.0665(16)
H12 H 0.5711 0.4581 1.1231
C21 C 0.5726(12) 0.3895(13) 1.0443(13)
H13 H 0.5658 0.3623 1.0858
C22 C 0.5819(10) 0.3721(12) 0.9585(12)
H14 H 0.5838 0.3338 0.9438
C23 C 0.5858(9) 0.4686(10) 0.9196(14)
C24 C 0.5946(9) 0.5104(10) 0.8564(15)
N1 N 0.6057(7) 0.4920(7) 0.7714(7)
N2 N 0.5879(8) 0.4129(8) 0.9001(9)
O1 O 0.6970(6) 0.4263(6) 0.6986(6)
O2 O 0.7906(7) 0.4258(7) 0.7036(9)
O3 O 0.6913(5) 0.3509(5) 0.8344(6)
O4 O 0.7353(5) 0.3432(5) 0.9566(6)
O5 O 0.6921(4) 0.2368(5) 0.8726(6)
H15 H 0.6808 0.2655 0.8444
H16 H 0.6834 0.2034 0.8565
Tb2A Tb 0.88387(3) 0.11613(3) 0.7500
C1A C 0.7579(8) 0.0627(7) 0.7328(9)
C2A C 0.7808(7) 0.1277(8) 0.8959(10)
C3A C 0.7596(7) 0.0348(7) 0.8217(9)
C4A C 0.7529(8) -0.0226(8) 0.8262(11)
H1A H 0.7468 -0.0430 0.7764
C5A C 0.7551(9) -0.0521(7) 0.9044(10)
C6A C 0.7516(9) -0.1115(8) 0.9101(14)
H2A H 0.7482 -0.1328 0.8606
C7A C 0.7529(13) -0.1395(10) 0.988(3)
H3A H 0.7502 -0.1789 0.9917
C8A C 0.7586(12) -0.1059(12) 1.057(2)
H4A H 0.7594 -0.1240 1.1096
C9A C 0.7630(9) -0.0486(8) 1.0575(11)
H5A H 0.7678 -0.0283 1.1078
C10A C 0.7602(9) -0.0213(8) 0.9797(10)
C11A C 0.7684(8) 0.0400(8) 0.9741(10)
H6A H 0.7727 0.0615 1.0232
C12A C 0.7699(7) 0.0655(7) 0.8966(10)
C13A C 0.8820(10) -0.0300(11) 0.7138(14)
H7A H 0.8722 -0.0177 0.6596
C14A C 0.8828(14) -0.0854(12) 0.7292(19)
H8A H 0.8782 -0.1111 0.6848
C15A C 0.8903(13) -0.1047(10) 0.8090(19)
H9A H 0.8862 -0.1434 0.8199
C16A C 0.9043(11) -0.0675(11) 0.877(2)
C17A C 0.9149(13) -0.0842(13) 0.964(2)
H10A H 0.9162 -0.1224 0.9790
C18A C 0.9225(14) -0.0435(15) 1.021(2)
H11A H 0.9286 -0.0552 1.0763
C19A C 0.9225(12) 0.0143(12) 1.0061(16)
C20A C 0.9266(12) 0.0529(16) 1.0665(16)
H12A H 0.9289 0.0419 1.1231
C21A C 0.9274(12) 0.1105(13) 1.0443(13)
H13A H 0.9342 0.1377 1.0858
C22A C 0.9181(10) 0.1279(12) 0.9585(12)
H14A H 0.9162 0.1662 0.9438
C23A C 0.9142(9) 0.0314(10) 0.9196(14)
C24A C 0.9054(9) -0.0104(10) 0.8564(15)
N1A N 0.8943(7) 0.0080(7) 0.7714(7)
N2A N 0.9121(8) 0.0871(8) 0.9001(9)
O1A O 0.8030(6) 0.0737(6) 0.6986(6)
O2A O 0.7094(7) 0.0742(7) 0.7036(9)
O3A O 0.8087(5) 0.1491(5) 0.8344(6)
O4A O 0.7647(5) 0.1568(5) 0.9566(6)
O5A O 0.8079(4) 0.2632(5) 0.8726(6)
H15A H 0.8192 0.2345 0.8444
H16A H 0.8166 0.2966 0.8565
C1F C 0.9373(7) 0.2421(8) 0.7672(9)
C2F C 0.8723(8) 0.2192(7) 0.6041(10)
C3F C 0.9652(7) 0.2404(7) 0.6783(9)
C4F C 1.0226(8) 0.2471(8) 0.6738(11)
H1F H 1.0430 0.2532 0.7236
C5F C 1.0521(7) 0.2449(9) 0.5956(10)
C6F C 1.1115(8) 0.2484(9) 0.5899(14)
H2F H 1.1328 0.2518 0.6394
C7F C 1.1395(10) 0.2471(13) 0.512(3)
H3F H 1.1789 0.2498 0.5083
C8F C 1.1059(12) 0.2414(12) 0.443(2)
H4F H 1.1240 0.2406 0.3904
C9F C 1.0486(8) 0.2370(9) 0.4425(11)
H5F H 1.0283 0.2322 0.3922
C10F C 1.0213(8) 0.2398(9) 0.5203(10)
C11F C 0.9600(8) 0.2316(8) 0.5259(10)
H6F H 0.9385 0.2273 0.4768
C12F C 0.9345(7) 0.2301(7) 0.6034(10)
C13F C 1.0300(11) 0.1180(10) 0.7862(14)
H7F H 1.0177 0.1278 0.8404
C14F C 1.0854(12) 0.1172(14) 0.7708(19)
H8F H 1.1111 0.1218 0.8152
C15F C 1.1047(10) 0.1097(13) 0.6910(19)
H9F H 1.1434 0.1138 0.6801
C16F C 1.0675(11) 0.0957(11) 0.623(2)
C17F C 1.0842(13) 0.0851(13) 0.536(2)
H10F H 1.1224 0.0838 0.5210
C18F C 1.0435(15) 0.0775(14) 0.479(2)
H11F H 1.0552 0.0714 0.4237
C19F C 0.9857(12) 0.0775(12) 0.4939(16)
C20F C 0.9471(16) 0.0734(12) 0.4335(16)
H12F H 0.9581 0.0711 0.3769
C21F C 0.8895(13) 0.0726(12) 0.4557(13)
H13F H 0.8623 0.0658 0.4142
C22F C 0.8721(12) 0.0819(10) 0.5415(12)
H14F H 0.8338 0.0838 0.5562
C23F C 0.9686(10) 0.0858(9) 0.5804(14)
C24F C 1.0104(10) 0.0946(9) 0.6436(15)
N1F N 0.9920(7) 0.1057(7) 0.7286(7)
N2F N 0.9129(8) 0.0879(8) 0.5999(9)
O1F O 0.9263(6) 0.1970(6) 0.8014(6)
O2F O 0.9258(7) 0.2906(7) 0.7964(9)
O3F O 0.8509(5) 0.1913(5) 0.6656(6)
O4F O 0.8432(5) 0.2353(5) 0.5434(6)
C1G C 0.5627(7) 0.2579(8) 0.7672(9)
C2G C 0.6277(8) 0.2808(7) 0.6041(10)
C3G C 0.5348(7) 0.2596(7) 0.6783(9)
C4G C 0.4774(8) 0.2529(8) 0.6738(11)
H1G H 0.4570 0.2468 0.7236
C5G C 0.4479(7) 0.2551(9) 0.5956(10)
C6G C 0.3885(8) 0.2516(9) 0.5899(14)
H2G H 0.3672 0.2482 0.6394
C7G C 0.3605(10) 0.2529(13) 0.512(3)
H3G H 0.3211 0.2502 0.5083
C8G C 0.3941(12) 0.2586(12) 0.443(2)
H4G H 0.3760 0.2594 0.3904
C9G C 0.4514(8) 0.2630(9) 0.4425(11)
H5G H 0.4717 0.2678 0.3922
C10G C 0.4787(8) 0.2602(9) 0.5203(10)
C11G C 0.5400(8) 0.2684(8) 0.5259(10)
H6G H 0.5615 0.2727 0.4768
C12G C 0.5655(7) 0.2699(7) 0.6034(10)
C13G C 0.4700(11) 0.3820(10) 0.7862(14)
H7G H 0.4823 0.3722 0.8404
C14G C 0.4146(12) 0.3828(14) 0.7708(19)
H8G H 0.3889 0.3782 0.8152
C15G C 0.3953(10) 0.3903(13) 0.6910(19)
H9G H 0.3566 0.3862 0.6801
C16G C 0.4325(11) 0.4043(11) 0.623(2)
C17G C 0.4158(13) 0.4149(13) 0.536(2)
H10G H 0.3776 0.4162 0.5210
C18G C 0.4565(15) 0.4225(14) 0.479(2)
H11G H 0.4448 0.4286 0.4237
C19G C 0.5143(12) 0.4225(12) 0.4939(16)
C20G C 0.5529(16) 0.4266(12) 0.4335(16)
H12G H 0.5419 0.4289 0.3769
C21G C 0.6105(13) 0.4274(12) 0.4557(13)
H13G H 0.6377 0.4342 0.4142
C22G C 0.6279(12) 0.4181(10) 0.5415(12)
H14G H 0.6662 0.4162 0.5562
C23G C 0.5314(10) 0.4142(9) 0.5804(14)
C24G C 0.4896(10) 0.4054(9) 0.6436(15)
N1G N 0.5080(7) 0.3943(7) 0.7286(7)
N2G N 0.5871(8) 0.4121(8) 0.5999(9)
O1G O 0.5737(6) 0.3030(6) 0.8014(6)
O2G O 0.5742(7) 0.2094(7) 0.7964(9)
O3G O 0.6491(5) 0.3087(5) 0.6656(6)
O4G O 0.6568(5) 0.2647(5) 0.5434(6)
O5J O 0.7368(5) 0.3079(4) 1.1274(6)
H15J H 0.7655 0.3192 1.1556
H16J H 0.7034 0.3166 1.1435
O5K O 0.7632(5) 0.1921(4) 1.1274(6)
H15K H 0.7345 0.1808 1.1556
H16K H 0.7966 0.1834 1.1435
Tb1F Tb 0.7500 0.2500 0.5000
O4J O 0.8432(5) 0.2647(5) 1.0434(6)
O4K O 0.6568(5) 0.2353(5) 1.0434(6)
O6 O 0.5964(10) 0.0964(10) 0.7500
H17 H 0.5953 0.0628 0.7730
H17F H 0.5628 0.0953 0.7270
Cl1 Cl 0.749(3) 0.7438(10) 0.7285(8)
O7 O 0.751(6) 0.7747(14) 0.6494(14)
O8A O 0.750(4) 0.7169(14) 0.7982(15)
O9A O 0.7034(19) 0.794(2) 0.734(6)
O10A O 0.803(2) 0.789(2) 0.731(6)
O8 O 0.750(4) 0.7831(14) 0.7982(15)
O9 O 0.7966(19) 0.706(2) 0.734(6)
O10 O 0.697(2) 0.711(2) 0.731(6)
Cl1A Cl 0.751(3) 0.7562(10) 0.7285(8)
O7A O 0.749(6) 0.7253(14) 0.6494(14)
Cl1B Cl 0.7562(10) 0.749(3) 0.7285(8)
O7B O 0.7253(14) 0.751(6) 0.6494(14)
O8C O 0.7831(14) 0.750(4) 0.7982(15)
O9C O 0.706(2) 0.7034(19) 0.734(6)
O10C O 0.711(2) 0.803(2) 0.731(6)
O8B O 0.7169(14) 0.750(4) 0.7982(15)
O9B O 0.794(2) 0.7966(19) 0.734(6)
O10B O 0.789(2) 0.697(2) 0.731(6)
Cl1C Cl 0.7438(10) 0.751(3) 0.7285(8)
O7C O 0.7747(14) 0.749(6) 0.6494(14)
loop_
_geom_bond_atom_site_label_1
_geom_bond_atom_site_label_2
_geom_bond_site_symmetry_1
_geom_bond_site_symmetry_2
Tb1 O4 1_555 1_555
Tb2 N1 1_555 1_555
C1 C3 1_555 1_555
C2 C12 1_555 1_555
C3 C4 1_555 1_555
C4 H1 1_555 1_555
C5 C4 1_555 1_555
C6 C5 1_555 1_555
H2 C6 1_555 1_555
C7 C6 1_555 1_555
H3 C7 1_555 1_555
C8 C7 1_555 1_555
H4 C8 1_555 1_555
C9 C8 1_555 1_555
H5 C9 1_555 1_555
C10 C5 1_555 1_555
C11 C10 1_555 1_555
H6 C11 1_555 1_555
C12 C3 1_555 1_555
C13 H7 1_555 1_555
C14 C13 1_555 1_555
H8 C14 1_555 1_555
C15 C14 1_555 1_555
H9 C15 1_555 1_555
C16 C15 1_555 1_555
C17 C16 1_555 1_555
H10 C17 1_555 1_555
C18 C17 1_555 1_555
H11 C18 1_555 1_555
C19 C18 1_555 1_555
C20 C19 1_555 1_555
H12 C20 1_555 1_555
C21 C20 1_555 1_555
H13 C21 1_555 1_555
C22 C21 1_555 1_555
H14 C22 1_555 1_555
C23 C19 1_555 1_555
C24 C16 1_555 1_555
N1 C13 1_555 1_555
N2 Tb2 1_555 1_555
O1 Tb2 1_555 1_555
O2 C1 1_555 1_555
O3 Tb2 1_555 1_555
O4 C2 1_555 1_555
O5 Tb1 1_555 1_555
H15 O5 1_555 1_555
H16 O5 1_555 1_555
O6 H17 1_555 1_555
Cl1 O7 1_555 1_555
O8 Cl1A 1_555 1_555
O9 Cl1A 1_555 1_555
O10 Cl1A 1_555 1_555
Tb2A N1A 1_555 1_555
C1A C3A 1_555 1_555
C2A C12A 1_555 1_555
C3A C4A 1_555 1_555
C4A H1A 1_555 1_555
C5A C4A 1_555 1_555
C6A C5A 1_555 1_555
H2A C6A 1_555 1_555
C7A C6A 1_555 1_555
H3A C7A 1_555 1_555
C8A C7A 1_555 1_555
H4A C8A 1_555 1_555
C9A C8A 1_555 1_555
H5A C9A 1_555 1_555
C10A C5A 1_555 1_555
C11A C10A 1_555 1_555
H6A C11A 1_555 1_555
C12A C3A 1_555 1_555
C13A H7A 1_555 1_555
C14A C13A 1_555 1_555
H8A C14A 1_555 1_555
C15A C14A 1_555 1_555
H9A C15A 1_555 1_555
C16A C15A 1_555 1_555
C17A C16A 1_555 1_555
H10A C17A 1_555 1_555
C18A C17A 1_555 1_555
H11A C18A 1_555 1_555
C19A C18A 1_555 1_555
C20A C19A 1_555 1_555
H12A C20A 1_555 1_555
C21A C20A 1_555 1_555
H13A C21A 1_555 1_555
C22A C21A 1_555 1_555
H14A C22A 1_555 1_555
C23A C19A 1_555 1_555
C24A C16A 1_555 1_555
N1A C13A 1_555 1_555
N2A Tb2A 1_555 1_555
O1A Tb2A 1_555 1_555
O2A C1A 1_555 1_555
O3A Tb2A 1_555 1_555
O4A Tb1 1_555 1_555
O5A Tb1 1_555 1_555
H15A O5A 1_555 1_555
H16A O5A 1_555 1_555
C1F C3F 1_555 1_555
C2F C12F 1_555 1_555
C3F C4F 1_555 1_555
C4F H1F 1_555 1_555
C5F C4F 1_555 1_555
C6F C5F 1_555 1_555
H2F C6F 1_555 1_555
C7F C6F 1_555 1_555
H3F C7F 1_555 1_555
C8F C7F 1_555 1_555
H4F C8F 1_555 1_555
C9F C8F 1_555 1_555
H5F C9F 1_555 1_555
C10F C5F 1_555 1_555
C11F C10F 1_555 1_555
H6F C11F 1_555 1_555
C12F C3F 1_555 1_555
C13F H7F 1_555 1_555
C14F C13F 1_555 1_555
H8F C14F 1_555 1_555
C15F C14F 1_555 1_555
H9F C15F 1_555 1_555
C16F C15F 1_555 1_555
C17F C16F 1_555 1_555
H10F C17F 1_555 1_555
C18F C17F 1_555 1_555
H11F C18F 1_555 1_555
C19F C18F 1_555 1_555
C20F C19F 1_555 1_555
H12F C20F 1_555 1_555
C21F C20F 1_555 1_555
H13F C21F 1_555 1_555
C22F C21F 1_555 1_555
H14F C22F 1_555 1_555
C23F C19F 1_555 1_555
C24F C16F 1_555 1_555
N1F Tb2A 1_555 1_555
N2F Tb2A 1_555 1_555
O1F Tb2A 1_555 1_555
O2F C1F 1_555 1_555
O3F Tb2A 1_555 1_555
O4F C2F 1_555 1_555
C1G C3G 1_555 1_555
C2G C12G 1_555 1_555
C3G C4G 1_555 1_555
C4G H1G 1_555 1_555
C5G C4G 1_555 1_555
C6G C5G 1_555 1_555
H2G C6G 1_555 1_555
C7G C6G 1_555 1_555
H3G C7G 1_555 1_555
C8G C7G 1_555 1_555
H4G C8G 1_555 1_555
C9G C8G 1_555 1_555
H5G C9G 1_555 1_555
C10G C5G 1_555 1_555
C11G C10G 1_555 1_555
H6G C11G 1_555 1_555
C12G C3G 1_555 1_555
C13G H7G 1_555 1_555
C14G C13G 1_555 1_555
H8G C14G 1_555 1_555
C15G C14G 1_555 1_555
H9G C15G 1_555 1_555
C16G C15G 1_555 1_555
C17G C16G 1_555 1_555
H10G C17G 1_555 1_555
C18G C17G 1_555 1_555
H11G C18G 1_555 1_555
C19G C18G 1_555 1_555
C20G C19G 1_555 1_555
H12G C20G 1_555 1_555
C21G C20G 1_555 1_555
H13G C21G 1_555 1_555
C22G C21G 1_555 1_555
H14G C22G 1_555 1_555
C23G C19G 1_555 1_555
C24G C16G 1_555 1_555
N1G Tb2 1_555 1_555
N2G Tb2 1_555 1_555
O1G Tb2 1_555 1_555
O2G C1G 1_555 1_555
O3G Tb2 1_555 1_555
O4G C2G 1_555 1_555
O5J Tb1 1_555 1_555
H15J O5J 1_555 1_555
H16J O5J 1_555 1_555
O5K Tb1 1_555 1_555
H15K O5K 1_555 1_555
H16K O5K 1_555 1_555
Tb1F O4F 1_555 1_555
O4J Tb1 1_555 1_555
O4K Tb1 1_555 1_555
H17F O6 1_555 1_555
O8A Cl1 1_555 1_555
O9A Cl1 1_555 1_555
O10A Cl1 1_555 1_555
Cl1A O7A 1_555 1_555
Cl1B O7B 1_555 1_555
O8C Cl1B 1_555 1_555
O9C Cl1B 1_555 1_555
O10C Cl1B 1_555 1_555
O8B Cl1C 1_555 1_555
O9B Cl1C 1_555 1_555
O10B Cl1C 1_555 1_555
Cl1C O7C 1_555 1_555
C1 O1 1_555 1_555
C2 O3 1_555 1_555
C9 C10 1_555 1_555
C11 C12 1_555 1_555
C22 N2 1_555 1_555
C23 C24 1_555 1_555
C23 N2 1_555 1_555
C24 N1 1_555 1_555
C1A O1A 1_555 1_555
C2A O3A 1_555 1_555
C2A O4A 1_555 1_555
C9A C10A 1_555 1_555
C11A C12A 1_555 1_555
C22A N2A 1_555 1_555
C23A C24A 1_555 1_555
C23A N2A 1_555 1_555
C24A N1A 1_555 1_555
C1F O1F 1_555 1_555
C2F O3F 1_555 1_555
C9F C10F 1_555 1_555
C11F C12F 1_555 1_555
C13F N1F 1_555 1_555
C22F N2F 1_555 1_555
C23F C24F 1_555 1_555
C23F N2F 1_555 1_555
C24F N1F 1_555 1_555
C1G O1G 1_555 1_555
C2G O3G 1_555 1_555
C9G C10G 1_555 1_555
C11G C12G 1_555 1_555
C13G N1G 1_555 1_555
C22G N2G 1_555 1_555
C23G C24G 1_555 1_555
C23G N2G 1_555 1_555
C24G N1G 1_555 1_555
O4G Tb1F 1_555 1_555

#END
