
#######################################################################
#
#                 Cambridge Crystallographic Data Centre
#                                CCDC 
#
#######################################################################
#
# If this CIF has been generated from an entry in the Cambridge 
# Structural Database, then it will include bibliographic, chemical, 
# crystal, experimental, refinement or atomic coordinate data resulting 
# from the CCDC's data processing and validation procedures.
#
#######################################################################

data_FURFIJ
_symmetry_cell_setting           monoclinic
_symmetry_space_group_name_H-M   'P 21/c'
_symmetry_Int_Tables_number      14
_space_group_name_Hall           '-P 2ybc'
loop_
_symmetry_equiv_pos_site_id
_symmetry_equiv_pos_as_xyz
1 x,y,z
2 -x,1/2+y,1/2-z
3 -x,-y,-z
4 x,1/2-y,1/2+z
_cell_length_a                   10.1000(2)
_cell_length_b                   30.1381(7)
_cell_length_c                   12.6679(5)
_cell_angle_alpha                90
_cell_angle_beta                 126.597(2)
_cell_angle_gamma                90
_cell_volume                     3095.82
loop_
_atom_site_label
_atom_site_type_symbol
_atom_site_fract_x
_atom_site_fract_y
_atom_site_fract_z
Cd1 Cd 0.12821(3) 0.306770(9) 0.07976(3)
Cd2 Cd -0.03033(3) 0.408478(9) -0.10983(3)
S1 S 0.47021(12) 0.40497(3) 0.40271(9)
S2 S 0.56018(12) 0.31498(3) 0.00382(10)
C1 C 0.1677(5) 0.41320(13) 0.1629(4)
C2 C 0.2753(4) 0.42590(12) 0.3035(4)
C3 C 0.2439(5) 0.45357(14) 0.3705(4)
H1 H 0.1442 0.4683 0.3326
C4 C 0.3787(5) 0.45747(14) 0.5033(4)
H2 H 0.3771 0.4750 0.5630
C5 C 0.5113(4) 0.43335(12) 0.5362(3)
C6 C 0.6753(5) 0.42806(13) 0.6636(4)
C7 C 0.2462(4) 0.33762(11) -0.0782(3)
C8 C 0.3814(4) 0.34459(11) -0.0917(4)
C9 C 0.3879(5) 0.37355(13) -0.1702(4)
H3 H 0.3022 0.3927 -0.2283
C10 C 0.5371(5) 0.37168(13) -0.1550(4)
H4 H 0.5604 0.3893 -0.2024
C11 C 0.6437(4) 0.34153(12) -0.0639(4)
C12 C 0.8117(4) 0.33012(12) -0.0185(4)
C13 C 0.0116(5) 0.21750(15) -0.1016(4)
H5 H 0.0198 0.2363 -0.1556
C14 C -0.0459(6) 0.17520(14) -0.1446(4)
H6 H -0.0747 0.1659 -0.2258
C15 C -0.0611(5) 0.14634(13) -0.0672(4)
C16 C -0.0145(5) 0.16219(13) 0.0514(4)
H7 H -0.0223 0.1441 0.1070
C17 C 0.0438(5) 0.20475(13) 0.0890(4)
H8 H 0.0763 0.2143 0.1711
C18 C -0.1311(6) 0.10036(13) -0.1149(5)
H9 H -0.0533 0.0828 -0.1184
H10 H -0.1428 0.0865 -0.0517
C19 C -0.2949(6) 0.09952(13) -0.2477(5)
H11 H -0.2805 0.1111 -0.3117
H12 H -0.3693 0.1194 -0.2460
C20 C -0.3756(6) 0.05431(14) -0.2935(5)
H13 H -0.3839 0.0417 -0.2272
H14 H -0.4867 0.0579 -0.3735
C21 C -0.2827(5) 0.02229(13) -0.3195(5)
C22 C -0.1825(6) -0.01007(13) -0.2289(4)
H15 H -0.1709 -0.0125 -0.1506
C23 C -0.1004(5) -0.03843(13) -0.2559(4)
H16 H -0.0343 -0.0603 -0.1945
C24 C -0.2039(5) -0.00471(13) -0.4503(4)
H17 H -0.2109 -0.0021 -0.5266
C25 C -0.2915(5) 0.02465(13) -0.4306(5)
H18 H -0.3570 0.0462 -0.4935
C26 C 0.4485(5) 0.29122(12) 0.3762(4)
C27 C 0.5550(5) 0.28494(15) 0.3311(4)
H19 H 0.4865 0.2812 0.2373
H20 H 0.6227 0.2591 0.3723
H21 H 0.6241 0.3105 0.3546
C28 C 0.6944(6) 0.29505(16) 0.6060(4)
H22 H 0.7513 0.2886 0.5684
H23 H 0.7171 0.2721 0.6674
H24 H 0.7314 0.3231 0.6508
C29 C 0.4137(6) 0.30624(17) 0.5434(5)
H25 H 0.3003 0.3064 0.4678
H26 H 0.4419 0.3347 0.5857
H27 H 0.4300 0.2837 0.6038
O1 O 0.2139(3) 0.38167(9) 0.1267(3)
O2 O 0.0392(4) 0.43480(10) 0.0854(3)
O3 O 0.7792(3) 0.40514(9) 0.6636(3)
O4 O 0.7017(3) 0.44527(9) 0.7638(3)
O5 O 0.2740(3) 0.30776(8) 0.0027(3)
O6 O 0.1204(3) 0.36053(9) -0.1466(3)
O7 O 0.9005(3) 0.30746(10) 0.0820(3)
O8 O 0.8609(3) 0.34336(8) -0.0851(3)
O9 O 0.2949(3) 0.29167(10) 0.2946(3)
N1 N 0.0565(4) 0.23317(10) 0.0149(3)
N2 N -0.1100(4) -0.03650(10) -0.3655(3)
N3 N 0.5182(4) 0.29701(10) 0.5025(3)
Cd1_2 Cd 1.12821(3) 0.306770(9) 0.07976(3)
Cd2_2 Cd 0.96967(3) 0.408478(9) -0.10983(3)
Cd2_3 Cd 0.96967(3) 0.408478(9) 0.89017(3)
Cd2A Cd 0.03033(3) -0.091522(9) -0.39017(3)
O3_2 O -0.2208(3) 0.40514(9) -0.3364(3)
O4_2 O -0.2983(3) 0.44527(9) -0.2362(3)
O7_2 O -0.0995(3) 0.30746(10) 0.0820(3)
O8_2 O -0.1391(3) 0.34336(8) -0.0851(3)
N2A N 0.1100(4) 0.46350(10) -0.1345(3)
loop_
_geom_bond_atom_site_label_1
_geom_bond_atom_site_label_2
_geom_bond_site_symmetry_1
_geom_bond_site_symmetry_2
Cd1 O1 1_555 1_555
Cd2 O1 1_555 1_555
S1 C2 1_555 1_555
S2 C8 1_555 1_555
C1 C2 1_555 1_555
C2 C3 1_555 1_555
C3 H1 1_555 1_555
C4 C3 1_555 1_555
H2 C4 1_555 1_555
C5 S1 1_555 1_555
C6 C5 1_555 1_555
C7 C8 1_555 1_555
C8 C9 1_555 1_555
C9 H3 1_555 1_555
C10 C9 1_555 1_555
H4 C10 1_555 1_555
C11 S2 1_555 1_555
C12 C11 1_555 1_555
C13 H5 1_555 1_555
C14 C13 1_555 1_555
H6 C14 1_555 1_555
C15 C14 1_555 1_555
C16 C15 1_555 1_555
H7 C16 1_555 1_555
C17 C16 1_555 1_555
H8 C17 1_555 1_555
C18 C15 1_555 1_555
H9 C18 1_555 1_555
H10 C18 1_555 1_555
C19 C18 1_555 1_555
H11 C19 1_555 1_555
H12 C19 1_555 1_555
C20 C19 1_555 1_555
H13 C20 1_555 1_555
H14 C20 1_555 1_555
C21 C20 1_555 1_555
C22 C21 1_555 1_555
H15 C22 1_555 1_555
C23 C22 1_555 1_555
H16 C23 1_555 1_555
C24 H17 1_555 1_555
C25 C21 1_555 1_555
H18 C25 1_555 1_555
C26 C27 1_555 1_555
C27 H19 1_555 1_555
H20 C27 1_555 1_555
H21 C27 1_555 1_555
C28 H22 1_555 1_555
H23 C28 1_555 1_555
H24 C28 1_555 1_555
C29 H25 1_555 1_555
H26 C29 1_555 1_555
H27 C29 1_555 1_555
O1 C1 1_555 1_555
O2 Cd2 1_555 1_555
O3 C6 1_555 1_555
O4 C6 1_555 1_555
O5 Cd1 1_555 1_555
O6 Cd2 1_555 1_555
O7 C12 1_555 1_555
O8 C12 1_555 1_555
O9 Cd1 1_555 1_555
N1 Cd1 1_555 1_555
N2 C23 1_555 1_555
N3 C26 1_555 1_555
Cd1_2 O7 1_555 1_555
Cd2_2 O8 1_555 1_555
Cd2_3 O3 1_555 1_555
Cd2A N2 1_555 1_555
O3_2 Cd2 1_555 1_555
O4_2 Cd2 1_555 1_555
O7_2 Cd1 1_555 1_555
O8_2 Cd1 1_555 1_555
N2A Cd2 1_555 1_555
Cd2 O8_2 1_555 1_555
C1 O2 1_555 1_555
C4 C5 1_555 1_555
C7 O5 1_555 1_555
C7 O6 1_555 1_555
C10 C11 1_555 1_555
C13 N1 1_555 1_555
C17 N1 1_555 1_555
C24 C25 1_555 1_555
C24 N2 1_555 1_555
C26 O9 1_555 1_555
C28 N3 1_555 1_555
C29 N3 1_555 1_555
O4 Cd2_3 1_555 1_555
O8 Cd1_2 1_555 1_555

#END
