
#######################################################################
#
#                 Cambridge Crystallographic Data Centre
#                                CCDC 
#
#######################################################################
#
# If this CIF has been generated from an entry in the Cambridge 
# Structural Database, then it will include bibliographic, chemical, 
# crystal, experimental, refinement or atomic coordinate data resulting 
# from the CCDC's data processing and validation procedures.
#
#######################################################################

data_FURFAB
_symmetry_cell_setting           tetragonal
_symmetry_space_group_name_H-M   'P 4/n c c'
_symmetry_Int_Tables_number      130
_space_group_name_Hall           '-P 4a 2ac'
loop_
_symmetry_equiv_pos_site_id
_symmetry_equiv_pos_as_xyz
1 x,y,z
2 1/2-x,1/2-y,z
3 1/2-y,x,z
4 y,1/2-x,z
5 -x,1/2+y,1/2-z
6 1/2+x,-y,1/2-z
7 1/2+y,1/2+x,1/2-z
8 -y,-x,1/2-z
9 -x,-y,-z
10 1/2+x,1/2+y,-z
11 1/2+y,-x,-z
12 -y,1/2+x,-z
13 x,1/2-y,1/2+z
14 1/2-x,y,1/2+z
15 1/2-y,1/2-x,1/2+z
16 y,x,1/2+z
_cell_length_a                   23.5076(7)
_cell_length_b                   23.5076(7)
_cell_length_c                   15.7312(6)
_cell_angle_alpha                90
_cell_angle_beta                 90
_cell_angle_gamma                90
_cell_volume                     8693.18
loop_
_atom_site_label
_atom_site_type_symbol
_atom_site_fract_x
_atom_site_fract_y
_atom_site_fract_z
Ho1 Ho 0.7500 0.2500 1.0000
Ho2 Ho 0.61701(4) 0.38299(4) 0.7500
C1 C 0.7438(12) 0.4359(9) 0.7315(9)
C2 C 0.7198(8) 0.3722(9) 0.8972(12)
C3 C 0.7416(8) 0.4628(8) 0.8199(13)
C4 C 0.7491(9) 0.5219(9) 0.8258(14)
H1 H 0.7562 0.5421 0.7761
C5 C 0.7465(10) 0.5517(10) 0.9017(14)
C6 C 0.7507(12) 0.6096(11) 0.9074(18)
H2 H 0.7539 0.6302 0.8572
C7 C 0.7504(14) 0.6383(12) 0.9809(17)
H3 H 0.7554 0.6776 0.9817
C8 C 0.7427(13) 0.6084(13) 1.0557(19)
H4 H 0.7409 0.6281 1.1069
C9 C 0.7376(12) 0.5500(11) 1.0559(16)
H5 H 0.7334 0.5305 1.1070
C10 C 0.7386(10) 0.5201(8) 0.9788(14)
C11 C 0.7324(10) 0.4613(9) 0.9739(13)
H6 H 0.7289 0.4403 1.0237
C12 C 0.7311(9) 0.4342(9) 0.8979(13)
C13 C 0.6179(12) 0.5273(11) 0.7143(17)
H7 H 0.6263 0.5151 0.6595
C14 C 0.6194(16) 0.5846(12) 0.729(2)
H8 H 0.6281 0.6089 0.6845
C15 C 0.6092(14) 0.6065(16) 0.804(2)
H9 H 0.6111 0.6455 0.8135
C16 C 0.5949(12) 0.5676(13) 0.872(2)
C17 C 0.5852(18) 0.5836(16) 0.958(2)
H10 H 0.5828 0.6219 0.9726
C18 C 0.5798(16) 0.5452(15) 1.017(3)
H11 H 0.5764 0.5582 1.0722
C19 C 0.5786(14) 0.4863(13) 1.0054(19)
C20 C 0.5722(14) 0.4450(16) 1.063(2)
H12 H 0.5649 0.4559 1.1186
C21 C 0.5756(14) 0.3891(13) 1.0466(18)
H13 H 0.5719 0.3622 1.0897
C22 C 0.5849(12) 0.3727(12) 0.9613(16)
H14 H 0.5878 0.3343 0.9479
C23 C 0.5871(10) 0.4656(11) 0.9205(16)
C24 C 0.5948(10) 0.5081(10) 0.8534(18)
N1 N 0.6055(9) 0.4884(9) 0.7703(11)
N2 N 0.5897(10) 0.4118(9) 0.8989(11)
O1 O 0.6979(7) 0.4246(7) 0.6984(8)
O2 O 0.7911(8) 0.4253(8) 0.7011(11)
O3 O 0.6914(6) 0.3503(5) 0.8337(7)
O4 O 0.7364(6) 0.3422(6) 0.9582(8)
O5 O 0.6933(5) 0.2367(5) 0.8735(7)
H15 H 0.6820 0.2654 0.8454
H16 H 0.6846 0.2033 0.8574
Ho2A Ho 0.88299(4) 0.11701(4) 0.7500
C1A C 0.7562(12) 0.0641(9) 0.7315(9)
C2A C 0.7802(8) 0.1278(9) 0.8972(12)
C3A C 0.7584(8) 0.0372(8) 0.8199(13)
C4A C 0.7509(9) -0.0219(9) 0.8258(14)
H1A H 0.7438 -0.0421 0.7761
C5A C 0.7535(10) -0.0517(10) 0.9017(14)
C6A C 0.7493(12) -0.1096(11) 0.9074(18)
H2A H 0.7461 -0.1302 0.8572
C7A C 0.7496(14) -0.1383(12) 0.9809(17)
H3A H 0.7446 -0.1776 0.9817
C8A C 0.7573(13) -0.1084(13) 1.0557(19)
H4A H 0.7591 -0.1281 1.1069
C9A C 0.7624(12) -0.0500(11) 1.0559(16)
H5A H 0.7666 -0.0305 1.1070
C10A C 0.7614(10) -0.0201(8) 0.9788(14)
C11A C 0.7676(10) 0.0387(9) 0.9739(13)
H6A H 0.7711 0.0597 1.0237
C12A C 0.7689(9) 0.0658(9) 0.8979(13)
C13A C 0.8821(12) -0.0273(11) 0.7143(17)
H7A H 0.8737 -0.0151 0.6595
C14A C 0.8806(16) -0.0846(12) 0.729(2)
H8A H 0.8719 -0.1089 0.6845
C15A C 0.8908(14) -0.1065(16) 0.804(2)
H9A H 0.8889 -0.1455 0.8135
C16A C 0.9051(12) -0.0676(13) 0.872(2)
C17A C 0.9148(18) -0.0836(16) 0.958(2)
H10A H 0.9172 -0.1219 0.9726
C18A C 0.9202(16) -0.0452(15) 1.017(3)
H11A H 0.9236 -0.0582 1.0722
C19A C 0.9214(14) 0.0137(13) 1.0054(19)
C20A C 0.9278(14) 0.0550(16) 1.063(2)
H12A H 0.9351 0.0441 1.1186
C21A C 0.9244(14) 0.1109(13) 1.0466(18)
H13A H 0.9281 0.1378 1.0897
C22A C 0.9151(12) 0.1273(12) 0.9613(16)
H14A H 0.9122 0.1657 0.9479
C23A C 0.9129(10) 0.0344(11) 0.9205(16)
C24A C 0.9052(10) -0.0081(10) 0.8534(18)
N1A N 0.8945(9) 0.0116(9) 0.7703(11)
N2A N 0.9103(10) 0.0882(9) 0.8989(11)
O1A O 0.8021(7) 0.0754(7) 0.6984(8)
O2A O 0.7089(8) 0.0747(8) 0.7011(11)
O3A O 0.8086(6) 0.1497(5) 0.8337(7)
O4A O 0.7636(6) 0.1578(6) 0.9582(8)
O5A O 0.8067(5) 0.2633(5) 0.8735(7)
H15A H 0.8180 0.2346 0.8454
H16A H 0.8154 0.2967 0.8574
C1F C 0.9359(9) 0.2438(12) 0.7685(9)
C2F C 0.8722(9) 0.2198(8) 0.6028(12)
C3F C 0.9628(8) 0.2416(8) 0.6801(13)
C4F C 1.0219(9) 0.2491(9) 0.6742(14)
H1F H 1.0421 0.2562 0.7239
C5F C 1.0517(10) 0.2465(10) 0.5983(14)
C6F C 1.1096(11) 0.2507(12) 0.5926(18)
H2F H 1.1302 0.2539 0.6428
C7F C 1.1383(12) 0.2504(14) 0.5191(17)
H3F H 1.1776 0.2554 0.5183
C8F C 1.1084(13) 0.2427(13) 0.4443(19)
H4F H 1.1281 0.2409 0.3931
C9F C 1.0500(11) 0.2376(12) 0.4441(16)
H5F H 1.0305 0.2334 0.3930
C10F C 1.0201(8) 0.2386(10) 0.5212(14)
C11F C 0.9613(9) 0.2324(10) 0.5261(13)
H6F H 0.9403 0.2289 0.4763
C12F C 0.9342(9) 0.2311(9) 0.6021(13)
C13F C 1.0273(11) 0.1179(12) 0.7857(17)
H7F H 1.0151 0.1263 0.8405
C14F C 1.0846(12) 0.1194(16) 0.771(2)
H8F H 1.1089 0.1281 0.8155
C15F C 1.1065(16) 0.1092(14) 0.696(2)
H9F H 1.1455 0.1111 0.6865
C16F C 1.0676(13) 0.0949(12) 0.628(2)
C17F C 1.0836(16) 0.0852(18) 0.542(2)
H10F H 1.1219 0.0828 0.5274
C18F C 1.0452(15) 0.0798(16) 0.483(3)
H11F H 1.0582 0.0764 0.4278
C19F C 0.9863(13) 0.0786(14) 0.4946(19)
C20F C 0.9450(16) 0.0722(14) 0.437(2)
H12F H 0.9559 0.0649 0.3814
C21F C 0.8891(13) 0.0756(14) 0.4534(18)
H13F H 0.8622 0.0719 0.4103
C22F C 0.8727(12) 0.0849(12) 0.5387(16)
H14F H 0.8343 0.0878 0.5521
C23F C 0.9656(11) 0.0871(10) 0.5795(16)
C24F C 1.0081(10) 0.0948(10) 0.6466(18)
N1F N 0.9884(9) 0.1055(9) 0.7297(11)
N2F N 0.9118(9) 0.0897(10) 0.6011(11)
O1F O 0.9246(7) 0.1979(7) 0.8016(8)
O2F O 0.9253(8) 0.2911(8) 0.7989(11)
O3F O 0.8503(5) 0.1914(6) 0.6663(7)
O4F O 0.8422(6) 0.2364(6) 0.5418(8)
C1G C 0.5641(9) 0.2562(12) 0.7685(9)
C2G C 0.6278(9) 0.2802(8) 0.6028(12)
C3G C 0.5372(8) 0.2584(8) 0.6801(13)
C4G C 0.4781(9) 0.2509(9) 0.6742(14)
H1G H 0.4579 0.2438 0.7239
C5G C 0.4483(10) 0.2535(10) 0.5983(14)
C6G C 0.3904(11) 0.2493(12) 0.5926(18)
H2G H 0.3698 0.2461 0.6428
C7G C 0.3617(12) 0.2496(14) 0.5191(17)
H3G H 0.3224 0.2446 0.5183
C8G C 0.3916(13) 0.2573(13) 0.4443(19)
H4G H 0.3719 0.2591 0.3931
C9G C 0.4500(11) 0.2624(12) 0.4441(16)
H5G H 0.4695 0.2666 0.3930
C10G C 0.4799(8) 0.2614(10) 0.5212(14)
C11G C 0.5387(9) 0.2676(10) 0.5261(13)
H6G H 0.5597 0.2711 0.4763
C12G C 0.5658(9) 0.2689(9) 0.6021(13)
C13G C 0.4727(11) 0.3821(12) 0.7857(17)
H7G H 0.4849 0.3737 0.8405
C14G C 0.4154(12) 0.3806(16) 0.771(2)
H8G H 0.3911 0.3719 0.8155
C15G C 0.3935(16) 0.3908(14) 0.696(2)
H9G H 0.3545 0.3889 0.6865
C16G C 0.4324(13) 0.4051(12) 0.628(2)
C17G C 0.4164(16) 0.4148(18) 0.542(2)
H10G H 0.3781 0.4172 0.5274
C18G C 0.4548(15) 0.4202(16) 0.483(3)
H11G H 0.4418 0.4236 0.4278
C19G C 0.5137(13) 0.4214(14) 0.4946(19)
C20G C 0.5550(16) 0.4278(14) 0.437(2)
H12G H 0.5441 0.4351 0.3814
C21G C 0.6109(13) 0.4244(14) 0.4534(18)
H13G H 0.6378 0.4281 0.4103
C22G C 0.6273(12) 0.4151(12) 0.5387(16)
H14G H 0.6657 0.4122 0.5521
C23G C 0.5344(11) 0.4129(10) 0.5795(16)
C24G C 0.4919(10) 0.4052(10) 0.6466(18)
N1G N 0.5116(9) 0.3945(9) 0.7297(11)
N2G N 0.5882(9) 0.4103(10) 0.6011(11)
O1G O 0.5754(7) 0.3021(7) 0.8016(8)
O2G O 0.5747(8) 0.2089(8) 0.7989(11)
O3G O 0.6497(5) 0.3086(6) 0.6663(7)
O4G O 0.6578(6) 0.2636(6) 0.5418(8)
O5J O 0.7367(5) 0.3067(5) 1.1265(7)
H15J H 0.7654 0.3180 1.1546
H16J H 0.7033 0.3154 1.1426
O5K O 0.7633(5) 0.1933(5) 1.1265(7)
H15K H 0.7346 0.1820 1.1546
H16K H 0.7967 0.1846 1.1426
Ho1F Ho 0.7500 0.2500 0.5000
O4J O 0.8422(6) 0.2636(6) 1.0418(8)
O4K O 0.6578(6) 0.2364(6) 1.0418(8)
Cl1 Cl 0.7500 0.7500 0.7255(9)
O6 O 0.7987(15) 0.713(2) 0.732(5)
O6A O 0.7013(15) 0.787(2) 0.732(5)
O6B O 0.787(2) 0.7987(15) 0.732(5)
O6C O 0.713(2) 0.7013(15) 0.732(5)
O7 O 0.5982(12) 0.0982(12) 0.7500
H17 H 0.5971 0.0628 0.7730
H17F H 0.5628 0.0971 0.7270
O8? O 0.6988(14) 0.716(2) 0.731(5)
O9? O 0.751(4) 0.7906(12) 0.7931(19)
O10? O 0.751(4) 0.7786(14) 0.6446(16)
loop_
_geom_bond_atom_site_label_1
_geom_bond_atom_site_label_2
_geom_bond_site_symmetry_1
_geom_bond_site_symmetry_2
Ho1 O4 1_555 1_555
Ho2 N1 1_555 1_555
C1 C3 1_555 1_555
C2 C12 1_555 1_555
C3 C4 1_555 1_555
C4 H1 1_555 1_555
C5 C4 1_555 1_555
C6 C5 1_555 1_555
H2 C6 1_555 1_555
C7 C6 1_555 1_555
H3 C7 1_555 1_555
C8 C7 1_555 1_555
H4 C8 1_555 1_555
C9 C8 1_555 1_555
H5 C9 1_555 1_555
C10 C5 1_555 1_555
C11 C10 1_555 1_555
H6 C11 1_555 1_555
C12 C3 1_555 1_555
C13 H7 1_555 1_555
C14 C13 1_555 1_555
H8 C14 1_555 1_555
C15 C14 1_555 1_555
H9 C15 1_555 1_555
C16 C15 1_555 1_555
C17 C16 1_555 1_555
H10 C17 1_555 1_555
C18 C17 1_555 1_555
H11 C18 1_555 1_555
C19 C18 1_555 1_555
C20 C19 1_555 1_555
H12 C20 1_555 1_555
C21 C20 1_555 1_555
H13 C21 1_555 1_555
C22 C21 1_555 1_555
H14 C22 1_555 1_555
C23 C19 1_555 1_555
C24 C16 1_555 1_555
N1 C13 1_555 1_555
N2 Ho2 1_555 1_555
O1 Ho2 1_555 1_555
O2 C1 1_555 1_555
O3 Ho2 1_555 1_555
O4 C2 1_555 1_555
O5 Ho1 1_555 1_555
H15 O5 1_555 1_555
H16 O5 1_555 1_555
Cl1 O6 1_555 1_555
O7 H17 1_555 1_555
Ho2A N1A 1_555 1_555
C1A C3A 1_555 1_555
C2A C12A 1_555 1_555
C3A C4A 1_555 1_555
C4A H1A 1_555 1_555
C5A C4A 1_555 1_555
C6A C5A 1_555 1_555
H2A C6A 1_555 1_555
C7A C6A 1_555 1_555
H3A C7A 1_555 1_555
C8A C7A 1_555 1_555
H4A C8A 1_555 1_555
C9A C8A 1_555 1_555
H5A C9A 1_555 1_555
C10A C5A 1_555 1_555
C11A C10A 1_555 1_555
H6A C11A 1_555 1_555
C12A C3A 1_555 1_555
C13A H7A 1_555 1_555
C14A C13A 1_555 1_555
H8A C14A 1_555 1_555
C15A C14A 1_555 1_555
H9A C15A 1_555 1_555
C16A C15A 1_555 1_555
C17A C16A 1_555 1_555
H10A C17A 1_555 1_555
C18A C17A 1_555 1_555
H11A C18A 1_555 1_555
C19A C18A 1_555 1_555
C20A C19A 1_555 1_555
H12A C20A 1_555 1_555
C21A C20A 1_555 1_555
H13A C21A 1_555 1_555
C22A C21A 1_555 1_555
H14A C22A 1_555 1_555
C23A C19A 1_555 1_555
C24A C16A 1_555 1_555
N1A C13A 1_555 1_555
N2A Ho2A 1_555 1_555
O1A Ho2A 1_555 1_555
O2A C1A 1_555 1_555
O3A Ho2A 1_555 1_555
O4A Ho1 1_555 1_555
O5A Ho1 1_555 1_555
H15A O5A 1_555 1_555
H16A O5A 1_555 1_555
C1F C3F 1_555 1_555
C2F C12F 1_555 1_555
C3F C4F 1_555 1_555
C4F H1F 1_555 1_555
C5F C4F 1_555 1_555
C6F C5F 1_555 1_555
H2F C6F 1_555 1_555
C7F C6F 1_555 1_555
H3F C7F 1_555 1_555
C8F C7F 1_555 1_555
H4F C8F 1_555 1_555
C9F C8F 1_555 1_555
H5F C9F 1_555 1_555
C10F C5F 1_555 1_555
C11F C10F 1_555 1_555
H6F C11F 1_555 1_555
C12F C3F 1_555 1_555
C13F H7F 1_555 1_555
C14F C13F 1_555 1_555
H8F C14F 1_555 1_555
C15F C14F 1_555 1_555
H9F C15F 1_555 1_555
C16F C15F 1_555 1_555
C17F C16F 1_555 1_555
H10F C17F 1_555 1_555
C18F C17F 1_555 1_555
H11F C18F 1_555 1_555
C19F C18F 1_555 1_555
C20F C19F 1_555 1_555
H12F C20F 1_555 1_555
C21F C20F 1_555 1_555
H13F C21F 1_555 1_555
C22F C21F 1_555 1_555
H14F C22F 1_555 1_555
C23F C19F 1_555 1_555
C24F C16F 1_555 1_555
N1F Ho2A 1_555 1_555
N2F Ho2A 1_555 1_555
O1F Ho2A 1_555 1_555
O2F C1F 1_555 1_555
O3F Ho2A 1_555 1_555
O4F C2F 1_555 1_555
C1G C3G 1_555 1_555
C2G C12G 1_555 1_555
C3G C4G 1_555 1_555
C4G H1G 1_555 1_555
C5G C4G 1_555 1_555
C6G C5G 1_555 1_555
H2G C6G 1_555 1_555
C7G C6G 1_555 1_555
H3G C7G 1_555 1_555
C8G C7G 1_555 1_555
H4G C8G 1_555 1_555
C9G C8G 1_555 1_555
H5G C9G 1_555 1_555
C10G C5G 1_555 1_555
C11G C10G 1_555 1_555
H6G C11G 1_555 1_555
C12G C3G 1_555 1_555
C13G H7G 1_555 1_555
C14G C13G 1_555 1_555
H8G C14G 1_555 1_555
C15G C14G 1_555 1_555
H9G C15G 1_555 1_555
C16G C15G 1_555 1_555
C17G C16G 1_555 1_555
H10G C17G 1_555 1_555
C18G C17G 1_555 1_555
H11G C18G 1_555 1_555
C19G C18G 1_555 1_555
C20G C19G 1_555 1_555
H12G C20G 1_555 1_555
C21G C20G 1_555 1_555
H13G C21G 1_555 1_555
C22G C21G 1_555 1_555
H14G C22G 1_555 1_555
C23G C19G 1_555 1_555
C24G C16G 1_555 1_555
N1G Ho2 1_555 1_555
N2G Ho2 1_555 1_555
O1G Ho2 1_555 1_555
O2G C1G 1_555 1_555
O3G Ho2 1_555 1_555
O4G C2G 1_555 1_555
O5J Ho1 1_555 1_555
H15J O5J 1_555 1_555
H16J O5J 1_555 1_555
O5K Ho1 1_555 1_555
H15K O5K 1_555 1_555
H16K O5K 1_555 1_555
Ho1F O4F 1_555 1_555
O4J Ho1 1_555 1_555
O4K Ho1 1_555 1_555
O6A Cl1 1_555 1_555
O6B Cl1 1_555 1_555
O6C Cl1 1_555 1_555
H17F O7 1_555 1_555
C1 O1 1_555 1_555
C2 O3 1_555 1_555
C9 C10 1_555 1_555
C11 C12 1_555 1_555
C22 N2 1_555 1_555
C23 C24 1_555 1_555
C23 N2 1_555 1_555
C24 N1 1_555 1_555
C1A O1A 1_555 1_555
C2A O3A 1_555 1_555
C2A O4A 1_555 1_555
C9A C10A 1_555 1_555
C11A C12A 1_555 1_555
C22A N2A 1_555 1_555
C23A C24A 1_555 1_555
C23A N2A 1_555 1_555
C24A N1A 1_555 1_555
C1F O1F 1_555 1_555
C2F O3F 1_555 1_555
C9F C10F 1_555 1_555
C11F C12F 1_555 1_555
C13F N1F 1_555 1_555
C22F N2F 1_555 1_555
C23F C24F 1_555 1_555
C23F N2F 1_555 1_555
C24F N1F 1_555 1_555
C1G O1G 1_555 1_555
C2G O3G 1_555 1_555
C9G C10G 1_555 1_555
C11G C12G 1_555 1_555
C13G N1G 1_555 1_555
C22G N2G 1_555 1_555
C23G C24G 1_555 1_555
C23G N2G 1_555 1_555
C24G N1G 1_555 1_555
O4G Ho1F 1_555 1_555

#END
