
#######################################################################
#
#                 Cambridge Crystallographic Data Centre
#                                CCDC 
#
#######################################################################
#
# If this CIF has been generated from an entry in the Cambridge 
# Structural Database, then it will include bibliographic, chemical, 
# crystal, experimental, refinement or atomic coordinate data resulting 
# from the CCDC's data processing and validation procedures.
#
#######################################################################

data_FURHIJ01
_symmetry_cell_setting           orthorhombic
_symmetry_space_group_name_H-M   'P c c n'
_symmetry_Int_Tables_number      56
_space_group_name_Hall           '-P 2ab 2ac'
loop_
_symmetry_equiv_pos_site_id
_symmetry_equiv_pos_as_xyz
1 x,y,z
2 1/2-x,1/2-y,z
3 1/2+x,-y,1/2-z
4 -x,1/2+y,1/2-z
5 -x,-y,-z
6 1/2+x,1/2+y,-z
7 1/2-x,y,1/2+z
8 x,1/2-y,1/2+z
_cell_length_a                   15.229(2)
_cell_length_b                   9.245(1)
_cell_length_c                   8.599(1)
_cell_angle_alpha                90
_cell_angle_beta                 90
_cell_angle_gamma                90
_cell_volume                     1210.67
loop_
_atom_site_label
_atom_site_type_symbol
_atom_site_fract_x
_atom_site_fract_y
_atom_site_fract_z
V1 V 0.25000 0.7500 0.4975(2)
Cl1 Cl 0.13114(12) 0.6006(2) 0.4498(2)
N1 N 0.25000 0.7500 0.6802(8)
N2 N 0.3328(3) 0.5656(6) 0.4677(6)
C1 C 0.3922(5) 0.5544(9) 0.3540(8)
C2 C 0.4429(5) 0.4321(11) 0.3303(9)
C3 C 0.4308(5) 0.3152(10) 0.4250(10)
C4 C 0.3687(6) 0.3233(9) 0.5436(9)
C5 C 0.3224(5) 0.4503(9) 0.5601(9)
H1 H 0.401 0.636 0.283
H2 H 0.486 0.425 0.248
H3 H 0.466 0.228 0.412
H4 H 0.358 0.241 0.613
H5 H 0.279 0.458 0.644
Cl1A Cl 0.36886(12) 0.8994(2) 0.4498(2)
N1F N 0.25000 0.7500 0.1802(8)
N2A N 0.1672(3) 0.9344(6) 0.4677(6)
V1F V 0.25000 0.7500 0.9975(2)
V1F_2 V 0.25000 0.7500 -0.0025(2)
C1A C 0.1078(5) 0.9456(9) 0.3540(8)
C5A C 0.1776(5) 1.0497(9) 0.5601(9)
Cl1F Cl 0.36886(12) 0.6006(2) 0.9498(2)
Cl1G Cl 0.13114(12) 0.8994(2) 0.9498(2)
N1F_2 N 0.25000 0.7500 1.1802(8)
N2F N 0.1672(3) 0.5656(6) 0.9677(6)
N2G N 0.3328(3) 0.9344(6) 0.9677(6)
C2A C 0.0571(5) 1.0679(11) 0.3303(9)
H1A H 0.099 0.864 0.283
C4A C 0.1313(6) 1.1767(9) 0.5436(9)
H5A H 0.221 1.042 0.644
C1F C 0.1078(5) 0.5544(9) 0.8540(8)
C5F C 0.1776(5) 0.4503(9) 1.0601(9)
C1G C 0.3922(5) 0.9456(9) 0.8540(8)
C5G C 0.3224(5) 1.0497(9) 1.0601(9)
C3A C 0.0692(5) 1.1848(10) 0.4250(10)
H2A H 0.014 1.075 0.248
H4A H 0.142 1.259 0.613
C2F C 0.0571(5) 0.4321(11) 0.8303(9)
H1F H 0.099 0.636 0.783
C4F C 0.1313(6) 0.3233(9) 1.0436(9)
H5F H 0.221 0.458 1.144
C2G C 0.4429(5) 1.0679(11) 0.8303(9)
H1G H 0.401 0.864 0.783
C4G C 0.3687(6) 1.1767(9) 1.0436(9)
H5G H 0.279 1.042 1.144
H3A H 0.034 1.272 0.412
C3F C 0.0692(5) 0.3152(10) 0.9250(10)
H2F H 0.014 0.425 0.748
H4F H 0.142 0.241 1.113
C3G C 0.4308(5) 1.1848(10) 0.9250(10)
H2G H 0.486 1.075 0.748
H4G H 0.358 1.259 1.113
H3F H 0.034 0.228 0.912
H3G H 0.466 1.272 0.912
loop_
_geom_bond_atom_site_label_1
_geom_bond_atom_site_label_2
_geom_bond_site_symmetry_1
_geom_bond_site_symmetry_2
V1 Cl1 1_555 1_555
N1 V1 1_555 1_555
N2 V1 1_555 1_555
C1 N2 1_555 1_555
C2 C1 1_555 1_555
C3 C2 1_555 1_555
C4 C3 1_555 1_555
C5 N2 1_555 1_555
H1 C1 1_555 1_555
H2 C2 1_555 1_555
H3 C3 1_555 1_555
H4 C4 1_555 1_555
H5 C5 1_555 1_555
Cl1A V1 1_555 1_555
N1F V1 1_555 1_555
N2A V1 1_555 1_555
V1F N1 1_555 1_555
V1F_2 N1F 1_555 1_555
C1A N2A 1_555 1_555
C5A N2A 1_555 1_555
Cl1F V1F 1_555 1_555
Cl1G V1F 1_555 1_555
N1F_2 V1F 1_555 1_555
N2F V1F 1_555 1_555
N2G V1F 1_555 1_555
C2A C1A 1_555 1_555
H1A C1A 1_555 1_555
C4A C5A 1_555 1_555
H5A C5A 1_555 1_555
C1F N2F 1_555 1_555
C5F N2F 1_555 1_555
C1G N2G 1_555 1_555
C5G N2G 1_555 1_555
C3A C2A 1_555 1_555
H2A C2A 1_555 1_555
H4A C4A 1_555 1_555
C2F C1F 1_555 1_555
H1F C1F 1_555 1_555
C4F C5F 1_555 1_555
H5F C5F 1_555 1_555
C2G C1G 1_555 1_555
H1G C1G 1_555 1_555
C4G C5G 1_555 1_555
H5G C5G 1_555 1_555
H3A C3A 1_555 1_555
C3F C2F 1_555 1_555
H2F C2F 1_555 1_555
H4F C4F 1_555 1_555
C3G C2G 1_555 1_555
H2G C2G 1_555 1_555
H4G C4G 1_555 1_555
H3F C3F 1_555 1_555
H3G C3G 1_555 1_555
C4 C5 1_555 1_555
C4A C3A 1_555 1_555
C4F C3F 1_555 1_555
C4G C3G 1_555 1_555

#END
