
#######################################################################
#
#                 Cambridge Crystallographic Data Centre
#                                CCDC 
#
#######################################################################
#
# If this CIF has been generated from an entry in the Cambridge 
# Structural Database, then it will include bibliographic, chemical, 
# crystal, experimental, refinement or atomic coordinate data resulting 
# from the CCDC's data processing and validation procedures.
#
#######################################################################

data_FURJAF
_symmetry_cell_setting           triclinic
_symmetry_space_group_name_H-M   'P -1'
_symmetry_Int_Tables_number      2
_space_group_name_Hall           '-P 1'
loop_
_symmetry_equiv_pos_site_id
_symmetry_equiv_pos_as_xyz
1 x,y,z
2 -x,-y,-z
_cell_length_a                   8.6589(17)
_cell_length_b                   9.0853(18)
_cell_length_c                   11.732(2)
_cell_angle_alpha                104.15(3)
_cell_angle_beta                 98.59(3)
_cell_angle_gamma                117.46(3)
_cell_volume                     756.37
loop_
_atom_site_label
_atom_site_type_symbol
_atom_site_fract_x
_atom_site_fract_y
_atom_site_fract_z
O1 O -0.0790(10) 0.0996(10) 0.1398(6)
O2 O 0.0043(10) 0.0331(9) 0.2992(6)
C1 C -0.0420(13) 0.1178(13) 0.2484(9)
O3 O 0.5398(10) 0.9451(11) 1.3049(7)
O4 O 0.2502(9) 0.7475(9) 1.1952(6)
C2 C 0.4175(13) 0.8093(13) 1.2196(10)
Co1 Co 0.0000 0.0000 1.0000
Co2 Co -0.12266(17) 0.11197(16) 0.75557(11)
N1 N -0.0353(10) 0.2324(10) 0.6270(7)
N2 N 0.1155(10) 0.3151(10) 0.9086(7)
N3 N 0.3409(11) 0.5384(10) 1.0528(8)
N4 N 0.1616(12) 0.2657(11) 1.0000(8)
N5 N -0.0235(11) 0.2785(11) 0.4583(7)
N6 N 0.2109(12) 0.0245(11) 1.1264(7)
N7 N 0.2959(12) 0.3974(12) 1.0873(8)
N8 N 0.3651(13) 0.0983(12) 1.1239(8)
C3 C 0.2285(14) 0.4857(14) 0.9428(10)
H1 H 0.2296 0.5572 0.8977
C4 C -0.1212(13) 0.1712(13) 0.5113(9)
H2 H -0.2346 0.0676 0.4711
N9 N 0.1210(13) 0.3843(12) 0.6470(8)
C5 C 0.4825(13) 0.7111(14) 1.1359(10)
H3 H 0.5388 0.7804 1.0880
H4 H 0.5722 0.7001 1.1858
N10 N 0.1234(14) 0.4094(13) 0.5451(9)
C6 C -0.0619(15) 0.2615(14) 0.3316(9)
H5 H 0.0198 0.3744 0.3255
H6 H -0.1858 0.2352 0.3019
C7 C -0.439(2) -0.2676(18) 0.5615(15)
H7 H -0.5468 -0.3234 0.4926
H8 H -0.4702 -0.3110 0.6266
H9 H -0.3516 -0.2949 0.5363
N11 N 0.5105(15) 0.1703(17) 1.1236(12)
O5 O -0.3626(9) -0.0827(10) 0.6041(6)
H10 H -0.4445 -0.0698 0.6289
O1A O 0.0790(10) -0.0996(10) 0.8602(6)
O2A O -0.0043(10) -0.0331(9) 0.7008(6)
C1A C 0.0420(13) -0.1178(13) 0.7516(9)
O3A O -0.5398(10) -0.9451(11) -0.3049(7)
O4A O -0.2502(9) -0.7475(9) -0.1952(6)
C2A C -0.4175(13) -0.8093(13) -0.2196(10)
Co2A Co 0.12266(17) -0.11197(16) 0.24443(11)
N1A N 0.0353(10) -0.2324(10) 0.3730(7)
N2A N -0.1155(10) -0.3151(10) 0.0914(7)
N3A N -0.3409(11) -0.5384(10) -0.0528(8)
N4A N -0.1616(12) -0.2657(11) 0.0000(8)
N5A N 0.0235(11) -0.2785(11) 0.5417(7)
N7A N -0.2959(12) -0.3974(12) -0.0873(8)
C3A C -0.2285(14) -0.4857(14) 0.0572(10)
H1A H -0.2296 -0.5572 0.1023
C4A C 0.1212(13) -0.1712(13) 0.4887(9)
H2A H 0.2346 -0.0676 0.5289
N9A N -0.1210(13) -0.3843(12) 0.3530(8)
C5A C -0.4825(13) -0.7111(14) -0.1359(10)
H3A H -0.5388 -0.7804 -0.0880
H4A H -0.5722 -0.7001 -0.1858
N10A N -0.1234(14) -0.4094(13) 0.4549(9)
C6A C 0.0619(15) -0.2615(14) 0.6684(9)
H5A H -0.0198 -0.3744 0.6745
H6A H 0.1858 -0.2352 0.6981
C7A C 0.439(2) 0.2676(18) 0.4385(15)
H7A H 0.5468 0.3234 0.5074
H8A H 0.4702 0.3110 0.3734
H9A H 0.3516 0.2949 0.4637
O5A O 0.3626(9) 0.0827(10) 0.3959(6)
H10A H 0.4445 0.0698 0.3711
N6A N -0.2109(12) -0.0245(11) 0.8736(7)
N8A N -0.3651(13) -0.0983(12) 0.8761(8)
N11A N -0.5105(15) -0.1703(17) 0.8764(12)
O1_2 O -0.0790(10) 0.0996(10) 1.1398(6)
O4_2 O 0.2502(9) -0.2525(9) 0.1952(6)
O4A_2 O -0.2502(9) 0.2525(9) 0.8048(6)
Co1_2 Co 0.0000 0.0000 0.0000
Co2_2 Co -0.12266(17) -0.88803(16) -0.24443(11)
Co2A_2 Co 0.12266(17) -0.11197(16) 1.24443(11)
Co2A_3 Co 0.12266(17) 0.88803(16) 1.24443(11)
N4A_2 N -0.1616(12) -0.2657(11) 1.0000(8)
N6_2 N 0.2109(12) 0.0245(11) 0.1264(7)
loop_
_geom_bond_atom_site_label_1
_geom_bond_atom_site_label_2
_geom_bond_site_symmetry_1
_geom_bond_site_symmetry_2
O1 C1 1_555 1_555
O2 C1 1_555 1_555
C1 C6 1_555 1_555
O3 C2 1_555 1_555
O4 C2 1_555 1_555
C2 C5 1_555 1_555
Co1 N4 1_555 1_555
Co2 N1 1_555 1_555
N1 C4 1_555 1_555
N2 Co2 1_555 1_555
N3 N7 1_555 1_555
N4 N2 1_555 1_555
N5 C4 1_555 1_555
N6 Co1 1_555 1_555
N7 N4 1_555 1_555
N8 N6 1_555 1_555
C3 N2 1_555 1_555
H1 C3 1_555 1_555
C4 H2 1_555 1_555
N9 N1 1_555 1_555
C5 N3 1_555 1_555
H3 C5 1_555 1_555
H4 C5 1_555 1_555
N10 N5 1_555 1_555
C6 N5 1_555 1_555
H5 C6 1_555 1_555
H6 C6 1_555 1_555
C7 H7 1_555 1_555
H8 C7 1_555 1_555
H9 C7 1_555 1_555
N11 N8 1_555 1_555
O5 Co2 1_555 1_555
H10 O5 1_555 1_555
O1A Co1 1_555 1_555
O2A Co2 1_555 1_555
C1A O1A 1_555 1_555
O3A C2A 1_555 1_555
O4A C2A 1_555 1_555
C2A C5A 1_555 1_555
Co2A O2 1_555 1_555
N1A Co2A 1_555 1_555
N2A Co2A 1_555 1_555
N3A N7A 1_555 1_555
N4A N2A 1_555 1_555
N5A C4A 1_555 1_555
N7A N4A 1_555 1_555
C3A N2A 1_555 1_555
H1A C3A 1_555 1_555
C4A N1A 1_555 1_555
H2A C4A 1_555 1_555
N9A N1A 1_555 1_555
C5A N3A 1_555 1_555
H3A C5A 1_555 1_555
H4A C5A 1_555 1_555
N10A N5A 1_555 1_555
C6A C1A 1_555 1_555
H5A C6A 1_555 1_555
H6A C6A 1_555 1_555
C7A H7A 1_555 1_555
H8A C7A 1_555 1_555
H9A C7A 1_555 1_555
O5A Co2A 1_555 1_555
H10A O5A 1_555 1_555
N6A Co1 1_555 1_555
N8A N6A 1_555 1_555
N11A N8A 1_555 1_555
O1_2 Co1 1_555 1_555
O4_2 Co2A 1_555 1_555
O4A_2 Co2 1_555 1_555
Co1_2 O1 1_555 1_555
Co2_2 O4A 1_555 1_555
Co2A_2 N6 1_555 1_555
Co2A_3 O4 1_555 1_555
N4A_2 Co1 1_555 1_555
N6_2 Co2A 1_555 1_555
Co2 N6A 1_555 1_555
N3 C3 1_555 1_555
N9 N10 1_555 1_555
C7 O5 1_555 1_555
O2A C1A 1_555 1_555
N3A C3A 1_555 1_555
N4A Co1_2 1_555 1_555
N5A C6A 1_555 1_555
N9A N10A 1_555 1_555
C7A O5A 1_555 1_555
Co1_2 N6_2 1_555 1_555

#END
