
#######################################################################
#
#                 Cambridge Crystallographic Data Centre
#                                CCDC 
#
#######################################################################
#
# If this CIF has been generated from an entry in the Cambridge 
# Structural Database, then it will include bibliographic, chemical, 
# crystal, experimental, refinement or atomic coordinate data resulting 
# from the CCDC's data processing and validation procedures.
#
#######################################################################

data_FURQAL
_symmetry_cell_setting           monoclinic
_symmetry_space_group_name_H-M   'P 21'
_symmetry_Int_Tables_number      4
_space_group_name_Hall           'P 2yb'
loop_
_symmetry_equiv_pos_site_id
_symmetry_equiv_pos_as_xyz
1 x,y,z
2 -x,1/2+y,-z
_cell_length_a                   13.137(3)
_cell_length_b                   7.2490(14)
_cell_length_c                   16.286(3)
_cell_angle_alpha                90
_cell_angle_beta                 105.85(3)
_cell_angle_gamma                90
_cell_volume                     1491.95
loop_
_atom_site_label
_atom_site_type_symbol
_atom_site_fract_x
_atom_site_fract_y
_atom_site_fract_z
Cu1 Cu 0.07874(9) 0.93710(12) 0.53507(7)
Cu2 Cu -0.41649(9) 1.03252(11) 0.03265(7)
O1 O -0.4385(5) 0.9420(11) 0.1373(4)
O2 O -0.0666(5) 0.9996(10) 0.4717(4)
O3 O -0.1465(6) 0.7529(10) 0.5075(5)
O4 O 0.0547(5) 1.0168(11) 0.6403(4)
O5 O 0.4418(6) 0.9787(10) 0.9701(4)
O6 O 0.3508(6) 1.2036(10) 1.0109(5)
N1 N -0.3914(7) 1.1473(10) -0.0727(5)
H1 H -0.4009 1.0623 -0.1144
H2 H -0.4381 1.2393 -0.0913
N2 N -0.2650(6) 1.0659(10) 0.0806(5)
N3 N 0.1029(6) 0.8509(11) 0.4245(5)
H3 H 0.0773 0.7360 0.4120
H4 H 0.0704 0.9266 0.3816
N4 N 0.2229(6) 0.8651(10) 0.5848(5)
C1 C -0.2828(6) 1.2203(11) -0.0528(5)
H5 H -0.2830 1.3428 -0.0274
C2 C -0.2408(9) 1.2419(14) -0.1318(6)
H6 H -0.2395 1.1229 -0.1588
H7 H -0.2867 1.3235 -0.1729
C3 C -0.1288(7) 1.3223(12) -0.1032(5)
H8 H -0.1005 1.3327 -0.1522
H9 H -0.1317 1.4452 -0.0804
C4 C -0.0565(7) 1.2033(12) -0.0363(5)
H10 H 0.0129 1.2604 -0.0184
H11 H -0.0486 1.0841 -0.0609
C5 C -0.2104(6) 1.0986(11) 0.0130(4)
H12 H -0.2060 0.9795 -0.0143
C6 C -0.2163(7) 1.0535(13) 0.1595(6)
H13 H -0.1451 1.0859 0.1754
C7 C -0.2613(8) 0.9939(13) 0.2260(6)
C8 C -0.3679(7) 0.9357(15) 0.2112(6)
C9 C -0.3974(8) 0.8585(14) 0.2819(6)
H14 H -0.4670 0.8217 0.2751
C10 C -0.3238(8) 0.8373(13) 0.3608(6)
H15 H -0.3435 0.7794 0.4051
C11 C -0.2219(8) 0.9013(14) 0.3738(6)
C12 C -0.1931(7) 0.9780(12) 0.3066(6)
H16 H -0.1243 1.0214 0.3158
C13 C -0.1422(8) 0.8783(13) 0.4560(7)
C14 C 0.2196(6) 0.8536(13) 0.4370(5)
H17 H 0.2410 0.9832 0.4374
C15 C 0.2567(9) 0.7571(16) 0.3677(7)
H18 H 0.2338 0.6295 0.3638
H19 H 0.2247 0.8158 0.3132
C16 C 0.3753(8) 0.7640(14) 0.3857(6)
H20 H 0.3974 0.8902 0.3808
H21 H 0.3970 0.6903 0.3437
C17 C 0.4287(8) 0.6920(13) 0.4741(6)
H22 H 0.4153 0.5607 0.4758
H23 H 0.5046 0.7091 0.4856
C18 C 0.3914(8) 0.7863(15) 0.5433(7)
H24 H 0.4133 0.9146 0.5474
H25 H 0.4234 0.7276 0.5977
C19 C 0.2723(6) 0.7755(11) 0.5237(5)
H26 H 0.2537 0.6444 0.5221
C20 C 0.2739(7) 0.8835(12) 0.6638(6)
H27 H 0.3439 0.8438 0.6801
C21 C 0.2321(7) 0.9603(13) 0.7290(6)
C22 C 0.1260(7) 1.0299(15) 0.7145(6)
C23 C 0.0997(8) 1.1043(14) 0.7858(6)
H28 H 0.0304 1.1421 0.7799
C24 C 0.1721(8) 1.1228(13) 0.8630(6)
H29 H 0.1510 1.1783 0.9072
C25 C 0.2775(8) 1.0618(12) 0.8792(6)
C26 C 0.3033(7) 0.9787(13) 0.8101(7)
H30 H 0.3715 0.9330 0.8184
C27 C 0.3632(9) 1.0838(14) 0.9600(6)
C28 C -0.0990(8) 1.1753(15) 0.0423(7)
H31 H -0.0537 1.0903 0.0820
H32 H -0.0994 1.2920 0.0713
Cu2_2 Cu 0.58351(9) 1.03252(11) 1.03265(7)
O5_2 O -0.5582(6) 0.9787(10) -0.0299(4)
O7 O 0.4386(9) 0.3000(14) 0.1783(7)
C30 C 0.3762(16) 0.221(3) 0.2219(12)
O8 O 0.9484(7) 0.6749(11) 0.6875(5)
C29 C 0.8792(13) 0.747(2) 0.7271(9)
loop_
_geom_bond_atom_site_label_1
_geom_bond_atom_site_label_2
_geom_bond_site_symmetry_1
_geom_bond_site_symmetry_2
Cu1 O2 1_555 1_555
Cu2 O1 1_555 1_555
O1 C8 1_555 1_555
O2 C13 1_555 1_555
O3 C13 1_555 1_555
O4 Cu1 1_555 1_555
O5 C27 1_555 1_555
O6 C27 1_555 1_555
O7 C30 1_555 1_555
O8 C29 1_555 1_555
N1 Cu2 1_555 1_555
H1 N1 1_555 1_555
H2 N1 1_555 1_555
N2 Cu2 1_555 1_555
N3 Cu1 1_555 1_555
H3 N3 1_555 1_555
H4 N3 1_555 1_555
N4 Cu1 1_555 1_555
C1 N1 1_555 1_555
H5 C1 1_555 1_555
C2 C1 1_555 1_555
H6 C2 1_555 1_555
H7 C2 1_555 1_555
C3 C2 1_555 1_555
H8 C3 1_555 1_555
H9 C3 1_555 1_555
C4 C3 1_555 1_555
H10 C4 1_555 1_555
H11 C4 1_555 1_555
C5 N2 1_555 1_555
H12 C5 1_555 1_555
C6 N2 1_555 1_555
H13 C6 1_555 1_555
C7 C6 1_555 1_555
C8 C7 1_555 1_555
C9 C8 1_555 1_555
H14 C9 1_555 1_555
C10 C9 1_555 1_555
H15 C10 1_555 1_555
C11 C10 1_555 1_555
C12 C7 1_555 1_555
H16 C12 1_555 1_555
C13 C11 1_555 1_555
C14 N3 1_555 1_555
H17 C14 1_555 1_555
C15 C14 1_555 1_555
H18 C15 1_555 1_555
H19 C15 1_555 1_555
C16 C15 1_555 1_555
H20 C16 1_555 1_555
H21 C16 1_555 1_555
C17 C16 1_555 1_555
H22 C17 1_555 1_555
H23 C17 1_555 1_555
C18 C17 1_555 1_555
H24 C18 1_555 1_555
H25 C18 1_555 1_555
C19 N4 1_555 1_555
H26 C19 1_555 1_555
C20 N4 1_555 1_555
H27 C20 1_555 1_555
C21 C20 1_555 1_555
C22 O4 1_555 1_555
C23 C22 1_555 1_555
H28 C23 1_555 1_555
C24 C23 1_555 1_555
H29 C24 1_555 1_555
C25 C24 1_555 1_555
C26 C21 1_555 1_555
H30 C26 1_555 1_555
C27 C25 1_555 1_555
C28 C4 1_555 1_555
H31 C28 1_555 1_555
H32 C28 1_555 1_555
Cu2_2 O5 1_555 1_555
O5_2 Cu2 1_555 1_555
C1 C5 1_555 1_555
C5 C28 1_555 1_555
C11 C12 1_555 1_555
C14 C19 1_555 1_555
C18 C19 1_555 1_555
C21 C22 1_555 1_555
C25 C26 1_555 1_555

#END
