
#######################################################################
#
#                 Cambridge Crystallographic Data Centre
#                                CCDC 
#
#######################################################################
#
# If this CIF has been generated from an entry in the Cambridge 
# Structural Database, then it will include bibliographic, chemical, 
# crystal, experimental, refinement or atomic coordinate data resulting 
# from the CCDC's data processing and validation procedures.
#
#######################################################################

data_FURQEP
_symmetry_cell_setting           monoclinic
_symmetry_space_group_name_H-M   'P 21'
_symmetry_Int_Tables_number      4
_space_group_name_Hall           'P 2yb'
loop_
_symmetry_equiv_pos_site_id
_symmetry_equiv_pos_as_xyz
1 x,y,z
2 -x,1/2+y,-z
_cell_length_a                   13.090(3)
_cell_length_b                   7.4236(15)
_cell_length_c                   16.431(3)
_cell_angle_alpha                90
_cell_angle_beta                 105.92(3)
_cell_angle_gamma                90
_cell_volume                     1535.44
loop_
_atom_site_label
_atom_site_type_symbol
_atom_site_fract_x
_atom_site_fract_y
_atom_site_fract_z
Cu1 Cu 0.07719(7) -0.06253(12) 0.53544(6)
Cu2 Cu -0.41794(8) 0.03207(14) 0.03358(6)
O1 O -0.4412(4) -0.0604(12) 0.1370(3)
O2 O -0.0681(4) -0.0082(9) 0.4730(4)
O3 O -0.1470(6) -0.2518(11) 0.5064(4)
O4 O 0.0569(4) 0.0216(11) 0.6404(4)
O5 O 0.4401(5) -0.0179(12) 0.9699(4)
O6 O 0.3527(6) 0.2048(11) 1.0087(4)
N1 N -0.3953(6) 0.1412(11) -0.0727(5)
N2 N -0.2671(5) 0.0654(11) 0.0807(4)
N3 N 0.1024(6) -0.1508(13) 0.4260(4)
N4 N 0.2219(5) -0.1332(10) 0.5858(4)
C1 C -0.2861(7) 0.2248(13) -0.0522(6)
H1 H -0.2878 0.3434 -0.0265
C2 C -0.2465(8) 0.2443(15) -0.1299(6)
H2 H -0.2923 0.3259 -0.1698
H3 H -0.2475 0.1282 -0.1571
C3 C -0.1311(8) 0.3196(16) -0.1025(6)
H4 H -0.1027 0.3236 -0.1512
H5 H -0.1319 0.4415 -0.0814
C4 C -0.0599(8) 0.2026(16) -0.0339(6)
H6 H -0.0515 0.0860 -0.0579
H7 H 0.0098 0.2580 -0.0154
C5 C -0.2121(6) 0.0968(12) 0.0135(5)
H8 H -0.2079 -0.0185 -0.0145
C6 C -0.2181(6) 0.0533(13) 0.1596(5)
H9 H -0.1469 0.0868 0.1757
C7 C -0.2633(6) -0.0078(13) 0.2260(5)
C8 C -0.3704(6) -0.0702(17) 0.2113(5)
C9 C -0.3968(6) -0.1466(15) 0.2815(5)
H10 H -0.4665 -0.1843 0.2741
C10 C -0.3264(7) -0.1689(14) 0.3601(5)
H11 H -0.3471 -0.2272 0.4031
C11 C -0.2233(7) -0.1020(13) 0.3739(6)
C12 C -0.1948(6) -0.0236(13) 0.3088(5)
H12 H -0.1263 0.0224 0.3192
C13 C -0.1412(6) -0.1241(13) 0.4580(5)
C14 C 0.2170(7) -0.1446(14) 0.4383(5)
H13 H 0.2373 -0.0175 0.4390
C15 C 0.2564(9) -0.239(2) 0.3682(7)
H14 H 0.2337 -0.3636 0.3635
H15 H 0.2250 -0.1803 0.3143
C16 C 0.3721(9) -0.2302(18) 0.3877(7)
H16 H 0.3938 -0.1055 0.3865
H17 H 0.3949 -0.2948 0.3444
C17 C 0.4261(8) -0.3093(18) 0.4725(6)
H18 H 0.5025 -0.2977 0.4834
H19 H 0.4091 -0.4364 0.4728
C18 C 0.3887(7) -0.2093(17) 0.5438(6)
H20 H 0.4211 -0.2646 0.5982
H21 H 0.4104 -0.0840 0.5465
C19 C 0.2707(6) -0.2213(12) 0.5241(5)
H22 H 0.2523 -0.3494 0.5226
C20 C 0.2724(7) -0.1195(13) 0.6648(5)
H23 H 0.3410 -0.1656 0.6818
C21 C 0.2310(6) -0.0382(13) 0.7290(5)
C22 C 0.1286(6) 0.0272(14) 0.7147(5)
C23 C 0.1014(7) 0.1085(15) 0.7841(5)
H24 H 0.0329 0.1524 0.7766
C24 C 0.1746(7) 0.1242(15) 0.8631(5)
H25 H 0.1546 0.1798 0.9071
C25 C 0.2783(7) 0.0568(13) 0.8772(5)
C26 C 0.3021(6) -0.0222(12) 0.8093(5)
H26 H 0.3702 -0.0683 0.8173
C27 C 0.3615(8) 0.0854(12) 0.9586(6)
C28 C -0.1020(6) 0.1749(15) 0.0422(6)
H27 H -0.0557 0.0938 0.0820
H28 H -0.1038 0.2891 0.0704
Cu2_2 Cu 0.58206(8) 0.03207(14) 1.03358(6)
O5_2 O -0.5599(5) -0.0179(12) -0.0301(4)
C29 C 0.1439(18) -0.800(3) 0.1925(14)
C30 C 0.1224(16) -0.750(3) 0.2765(12)
C31 C 0.2006(16) -0.651(3) 0.3537(14)
O7 O 0.0439(11) -0.855(2) 0.3057(9)
O8 O 0.5645(16) -0.184(3) 0.8175(13)
C32 C 0.617(3) -0.317(4) 0.7676(17)
C33 C 0.643(2) -0.352(5) 0.6798(16)
C34 C 0.663(3) -0.471(4) 0.8276(17)
loop_
_geom_bond_atom_site_label_1
_geom_bond_atom_site_label_2
_geom_bond_site_symmetry_1
_geom_bond_site_symmetry_2
Cu1 O2 1_555 1_555
Cu2 O1 1_555 1_555
O1 C8 1_555 1_555
O2 C13 1_555 1_555
O3 C13 1_555 1_555
O4 Cu1 1_555 1_555
O5 C27 1_555 1_555
O6 C27 1_555 1_555
N1 Cu2 1_555 1_555
N2 Cu2 1_555 1_555
N3 Cu1 1_555 1_555
N4 Cu1 1_555 1_555
C1 N1 1_555 1_555
H1 C1 1_555 1_555
C2 C1 1_555 1_555
H2 C2 1_555 1_555
H3 C2 1_555 1_555
C3 C2 1_555 1_555
H4 C3 1_555 1_555
H5 C3 1_555 1_555
C4 C3 1_555 1_555
H6 C4 1_555 1_555
H7 C4 1_555 1_555
C5 N2 1_555 1_555
H8 C5 1_555 1_555
C6 N2 1_555 1_555
H9 C6 1_555 1_555
C7 C6 1_555 1_555
C8 C7 1_555 1_555
C9 C8 1_555 1_555
H10 C9 1_555 1_555
C10 C9 1_555 1_555
H11 C10 1_555 1_555
C11 C10 1_555 1_555
C12 C7 1_555 1_555
H12 C12 1_555 1_555
C13 C11 1_555 1_555
C14 N3 1_555 1_555
H13 C14 1_555 1_555
C15 C14 1_555 1_555
H14 C15 1_555 1_555
H15 C15 1_555 1_555
C16 C15 1_555 1_555
H16 C16 1_555 1_555
H17 C16 1_555 1_555
C17 C16 1_555 1_555
H18 C17 1_555 1_555
H19 C17 1_555 1_555
C18 C17 1_555 1_555
H20 C18 1_555 1_555
H21 C18 1_555 1_555
C19 N4 1_555 1_555
H22 C19 1_555 1_555
C20 N4 1_555 1_555
H23 C20 1_555 1_555
C21 C20 1_555 1_555
C22 O4 1_555 1_555
C23 C22 1_555 1_555
H24 C23 1_555 1_555
C24 C23 1_555 1_555
H25 C24 1_555 1_555
C25 C24 1_555 1_555
C26 C21 1_555 1_555
H26 C26 1_555 1_555
C27 C25 1_555 1_555
C28 C4 1_555 1_555
H27 C28 1_555 1_555
H28 C28 1_555 1_555
C29 C30 1_555 1_555
C30 C31 1_555 1_555
O7 C30 1_555 1_555
O8 C32 1_555 1_555
C32 C33 1_555 1_555
C34 C32 1_555 1_555
Cu2_2 O5 1_555 1_555
O5_2 Cu2 1_555 1_555
C1 C5 1_555 1_555
C5 C28 1_555 1_555
C11 C12 1_555 1_555
C14 C19 1_555 1_555
C18 C19 1_555 1_555
C21 C22 1_555 1_555
C25 C26 1_555 1_555

#END
