
#######################################################################
#
#                 Cambridge Crystallographic Data Centre
#                                CCDC 
#
#######################################################################
#
# If this CIF has been generated from an entry in the Cambridge 
# Structural Database, then it will include bibliographic, chemical, 
# crystal, experimental, refinement or atomic coordinate data resulting 
# from the CCDC's data processing and validation procedures.
#
#######################################################################

data_FURQOZ01
_symmetry_cell_setting           rhombohedral
_symmetry_space_group_name_H-M   'R -3'
_symmetry_Int_Tables_number      148
_space_group_name_Hall           '-R 3'
loop_
_symmetry_equiv_pos_site_id
_symmetry_equiv_pos_as_xyz
1 x,y,z
2 -y,x-y,z
3 -x+y,-x,z
4 2/3+x,1/3+y,1/3+z
5 2/3-y,1/3+x-y,1/3+z
6 2/3-x+y,1/3-x,1/3+z
7 1/3+x,2/3+y,2/3+z
8 1/3-y,2/3+x-y,2/3+z
9 1/3-x+y,2/3-x,2/3+z
10 -x,-y,-z
11 y,-x+y,-z
12 x-y,x,-z
13 1/3-x,2/3-y,2/3-z
14 1/3+y,2/3-x+y,2/3-z
15 1/3+x-y,2/3+x,2/3-z
16 2/3-x,1/3-y,1/3-z
17 2/3+y,1/3-x+y,1/3-z
18 2/3+x-y,1/3+x,1/3-z
_cell_length_a                   34.5383(11)
_cell_length_b                   34.5383(11)
_cell_length_c                   8.5168(6)
_cell_angle_alpha                90
_cell_angle_beta                 90
_cell_angle_gamma                120
_cell_volume                     8798.51
loop_
_atom_site_label
_atom_site_type_symbol
_atom_site_fract_x
_atom_site_fract_y
_atom_site_fract_z
Ag1 Ag 0.146048(9) 0.317475(10) 0.50608(4)
O1 O 0.33354(7) 0.32746(8) 0.7573(3)
N1 N 0.20506(8) 0.33689(9) 0.6561(3)
N2 N 0.27611(9) 0.19644(9) 0.6037(3)
C1 C 0.21878(10) 0.37203(11) 0.7508(4)
H1 H 0.2025 0.3869 0.7530
C2 C 0.25573(11) 0.38734(11) 0.8452(4)
H2 H 0.2642 0.4120 0.9100
C3 C 0.28013(11) 0.36591(11) 0.8428(4)
H3 H 0.3056 0.3760 0.9047
C4 C 0.26626(9) 0.32892(9) 0.7467(3)
C5 C 0.22850(10) 0.31562(10) 0.6550(3)
H4 H 0.2191 0.2909 0.5900
C6 C 0.29334(10) 0.30612(10) 0.7384(3)
C7 C 0.27044(10) 0.25721(10) 0.7112(3)
C8 C 0.22921(12) 0.22799(12) 0.7735(4)
H5 H 0.2133 0.2385 0.8303
C9 C 0.21206(14) 0.18291(13) 0.7500(5)
H6 H 0.1844 0.1624 0.7920
C10 C 0.23595(13) 0.16854(12) 0.6642(5)
H7 H 0.2237 0.1380 0.6472
C11 C 0.29275(11) 0.23995(10) 0.6280(4)
H8 H 0.3208 0.2598 0.5870
Ag1J Ag 0.317475(10) 0.171427(13) 0.49392(4)
N2K N 0.07967(13) 0.27611(9) 0.3963(3)
C12 C 0.15207(11) 0.40761(13) 0.4681(5)
O2 O 0.15464(11) 0.38795(12) 0.3537(4)
O3 O 0.14393(14) 0.39493(12) 0.6038(4)
C13 C 0.16120(17) 0.45484(17) 0.4347(6)
F1 F 0.15048(12) 0.47290(10) 0.5495(4)
F2 F 0.20330(13) 0.48183(11) 0.4027(6)
F3 F 0.13558(17) 0.45444(17) 0.3133(4)
C14 C 0.1299(8) 0.0542(6) 0.4074(11)
H9 H 0.1299 0.0492 0.5147
C15 C 0.0902(5) 0.0441(6) 0.332(2)
H10 H 0.0637 0.0324 0.3892
C16 C 0.0901(5) 0.0516(6) 0.172(2)
H11 H 0.0635 0.0449 0.1217
C17 C 0.1296(7) 0.0692(5) 0.0868(11)
H12 H 0.1295 0.0742 -0.0205
C18 C 0.1693(4) 0.0792(3) 0.162(2)
H13 H 0.1958 0.0910 0.1050
C19 C 0.1694(5) 0.0717(5) 0.322(2)
H14 H 0.1960 0.0785 0.3726
loop_
_geom_bond_atom_site_label_1
_geom_bond_atom_site_label_2
_geom_bond_site_symmetry_1
_geom_bond_site_symmetry_2
Ag1 N1 1_555 1_555
O1 C6 1_555 1_555
N1 C1 1_555 1_555
N2 C10 1_555 1_555
C1 H1 1_555 1_555
C2 C1 1_555 1_555
H2 C2 1_555 1_555
C3 C2 1_555 1_555
H3 C3 1_555 1_555
C4 C3 1_555 1_555
C5 N1 1_555 1_555
H4 C5 1_555 1_555
C6 C4 1_555 1_555
C7 C6 1_555 1_555
C8 C7 1_555 1_555
H5 C8 1_555 1_555
C9 C8 1_555 1_555
H6 C9 1_555 1_555
C10 C9 1_555 1_555
H7 C10 1_555 1_555
C11 N2 1_555 1_555
H8 C11 1_555 1_555
C12 O2 1_555 1_555
O3 C12 1_555 1_555
C13 C12 1_555 1_555
F1 C13 1_555 1_555
F2 C13 1_555 1_555
F3 C13 1_555 1_555
C14 H9 1_555 1_555
C15 C14 1_555 1_555
H10 C15 1_555 1_555
C16 C15 1_555 1_555
H11 C16 1_555 1_555
C17 C16 1_555 1_555
H12 C17 1_555 1_555
C18 C17 1_555 1_555
H13 C18 1_555 1_555
C19 C14 1_555 1_555
H14 C19 1_555 1_555
Ag1J N2 1_555 1_555
N2K Ag1 1_555 1_555
C4 C5 1_555 1_555
C7 C11 1_555 1_555
C18 C19 1_555 1_555

#END
