
#######################################################################
#
#                 Cambridge Crystallographic Data Centre
#                                CCDC 
#
#######################################################################
#
# If this CIF has been generated from an entry in the Cambridge 
# Structural Database, then it will include bibliographic, chemical, 
# crystal, experimental, refinement or atomic coordinate data resulting 
# from the CCDC's data processing and validation procedures.
#
#######################################################################

data_FURQOZ
_symmetry_cell_setting           rhombohedral
_symmetry_space_group_name_H-M   'R -3'
_symmetry_Int_Tables_number      148
_space_group_name_Hall           '-R 3'
loop_
_symmetry_equiv_pos_site_id
_symmetry_equiv_pos_as_xyz
1 x,y,z
2 -y,x-y,z
3 -x+y,-x,z
4 2/3+x,1/3+y,1/3+z
5 2/3-y,1/3+x-y,1/3+z
6 2/3-x+y,1/3-x,1/3+z
7 1/3+x,2/3+y,2/3+z
8 1/3-y,2/3+x-y,2/3+z
9 1/3-x+y,2/3-x,2/3+z
10 -x,-y,-z
11 y,-x+y,-z
12 x-y,x,-z
13 1/3-x,2/3-y,2/3-z
14 1/3+y,2/3-x+y,2/3-z
15 1/3+x-y,2/3+x,2/3-z
16 2/3-x,1/3-y,1/3-z
17 2/3+y,1/3-x+y,1/3-z
18 2/3+x-y,1/3+x,1/3-z
_cell_length_a                   33.9770(12)
_cell_length_b                   33.9770(12)
_cell_length_c                   8.3794(6)
_cell_angle_alpha                90
_cell_angle_beta                 90
_cell_angle_gamma                120
_cell_volume                     8377.48
loop_
_atom_site_label
_atom_site_type_symbol
_atom_site_fract_x
_atom_site_fract_y
_atom_site_fract_z
Ag1 Ag 0.147637(7) 0.320843(7) 0.50573(3)
O1 O 0.33468(6) 0.32778(6) 0.7829(2)
N1 N 0.20629(7) 0.33996(7) 0.6630(3)
N2 N 0.27786(8) 0.19601(8) 0.6132(3)
C1 C 0.21991(9) 0.37573(9) 0.7607(3)
H1 H 0.2035 0.3916 0.7600
C2 C 0.25665(9) 0.39050(9) 0.8622(3)
H2 H 0.2652 0.4159 0.9302
C3 C 0.28079(9) 0.36773(9) 0.8631(3)
H3 H 0.3067 0.3776 0.9298
C4 C 0.26661(9) 0.33011(9) 0.7648(3)
C5 C 0.22918(9) 0.31728(9) 0.6659(3)
H4 H 0.2195 0.2916 0.5984
C6 C 0.29387(9) 0.30650(9) 0.7592(3)
C7 C 0.27068(9) 0.25683(9) 0.7262(3)
C8 C 0.22782(10) 0.22637(10) 0.7844(3)
H5 H 0.2107 0.2367 0.8428
C9 C 0.21053(10) 0.18050(10) 0.7553(4)
H6 H 0.1813 0.1587 0.7937
C10 C 0.23633(10) 0.16693(10) 0.6699(4)
H7 H 0.2241 0.1354 0.6501
C11 C 0.29458(9) 0.24020(9) 0.6425(3)
H8 H 0.3241 0.2612 0.6044
Ag1J Ag 0.320843(7) 0.173206(10) 0.49427(3)
N2K N 0.08185(11) 0.27786(8) 0.3868(3)
C12 C 0.15347(9) 0.41155(10) 0.4604(4)
O2 O 0.15259(7) 0.38982(7) 0.3408(3)
O3 O 0.14857(8) 0.40029(8) 0.6019(3)
C13 C 0.16368(11) 0.46028(11) 0.4234(4)
F1 F 0.15407(7) 0.47974(6) 0.5435(2)
F2 F 0.14027(8) 0.46166(8) 0.2973(2)
F3 F 0.20789(7) 0.48723(7) 0.3908(3)
C14 C 0.16472(18) 0.06787(16) 0.1693(6)
H9 H 0.1912 0.0740 0.1112
C15 C 0.1681(2) 0.0814(2) 0.3179(7)
H10 H 0.1965 0.0940 0.3709
C16 C 0.1309(3) 0.0776(2) 0.3984(8)
H11 H 0.1341 0.0904 0.5018
C17 C 0.0891(2) 0.0550(3) 0.3258(7)
H12 H 0.0627 0.0501 0.3818
C18 C 0.0856(2) 0.0401(3) 0.1789(8)
H13 H 0.0568 0.0258 0.1273
C19 C 0.1231(2) 0.0450(3) 0.0992(8)
H14 H 0.1200 0.0325 -0.0045
loop_
_geom_bond_atom_site_label_1
_geom_bond_atom_site_label_2
_geom_bond_site_symmetry_1
_geom_bond_site_symmetry_2
Ag1 N1 1_555 1_555
O1 C6 1_555 1_555
N1 C1 1_555 1_555
N2 C10 1_555 1_555
C1 H1 1_555 1_555
C2 C1 1_555 1_555
H2 C2 1_555 1_555
C3 C2 1_555 1_555
H3 C3 1_555 1_555
C4 C3 1_555 1_555
C5 N1 1_555 1_555
H4 C5 1_555 1_555
C6 C4 1_555 1_555
C7 C6 1_555 1_555
C8 C7 1_555 1_555
H5 C8 1_555 1_555
C9 C8 1_555 1_555
H6 C9 1_555 1_555
C10 C9 1_555 1_555
H7 C10 1_555 1_555
C11 N2 1_555 1_555
H8 C11 1_555 1_555
C12 O2 1_555 1_555
O3 C12 1_555 1_555
C13 C12 1_555 1_555
F1 C13 1_555 1_555
F2 C13 1_555 1_555
F3 C13 1_555 1_555
C14 H9 1_555 1_555
C15 C14 1_555 1_555
H10 C15 1_555 1_555
C16 C15 1_555 1_555
H11 C16 1_555 1_555
C17 C16 1_555 1_555
H12 C17 1_555 1_555
C18 C17 1_555 1_555
H13 C18 1_555 1_555
C19 C14 1_555 1_555
H14 C19 1_555 1_555
Ag1J N2 1_555 1_555
N2K Ag1 1_555 1_555
C4 C5 1_555 1_555
C7 C11 1_555 1_555
C18 C19 1_555 1_555

#END
