
#######################################################################
#
#                 Cambridge Crystallographic Data Centre
#                                CCDC 
#
#######################################################################
#
# If this CIF has been generated from an entry in the Cambridge 
# Structural Database, then it will include bibliographic, chemical, 
# crystal, experimental, refinement or atomic coordinate data resulting 
# from the CCDC's data processing and validation procedures.
#
#######################################################################

data_FURQIT
_symmetry_cell_setting           monoclinic
_symmetry_space_group_name_H-M   'P 21'
_symmetry_Int_Tables_number      4
_space_group_name_Hall           'P 2yb'
loop_
_symmetry_equiv_pos_site_id
_symmetry_equiv_pos_as_xyz
1 x,y,z
2 -x,1/2+y,-z
_cell_length_a                   13.110(3)
_cell_length_b                   7.5040(15)
_cell_length_c                   16.520(3)
_cell_angle_alpha                90
_cell_angle_beta                 105.88(3)
_cell_angle_gamma                90
_cell_volume                     1563.17
loop_
_atom_site_label
_atom_site_type_symbol
_atom_site_fract_x
_atom_site_fract_y
_atom_site_fract_z
Cu1 Cu 0.07695(7) -0.06440(12) 0.53550(5)
Cu2 Cu -0.41785(7) 0.03302(13) 0.03328(6)
O1 O -0.4409(4) -0.0577(12) 0.1369(3)
O2 O -0.0680(4) -0.0074(10) 0.4727(4)
O3 O -0.1509(5) -0.2509(11) 0.5027(4)
O4 O 0.0552(4) 0.0211(11) 0.6390(4)
O5 O 0.4386(5) -0.0180(10) 0.9698(4)
O6 O 0.3492(6) 0.2068(11) 1.0059(4)
N1 N -0.3908(5) 0.1432(11) -0.0700(5)
H1 H -0.3976 0.0597 -0.1102
H2 H -0.4391 0.2290 -0.0899
N2 N -0.2666(5) 0.0684(10) 0.0813(4)
N3 N 0.1036(5) -0.1528(13) 0.4272(4)
H3 H 0.0790 -0.2647 0.4163
H4 H 0.0698 -0.0827 0.3840
N4 N 0.2236(5) -0.1372(10) 0.5859(4)
C1 C -0.2846(6) 0.2196(12) -0.0504(5)
H5 H -0.2866 0.3370 -0.0249
C2 C -0.2393(8) 0.2427(14) -0.1288(6)
H6 H -0.2385 0.1285 -0.1561
H7 H -0.2841 0.3234 -0.1691
C3 C -0.1296(8) 0.3156(16) -0.1000(6)
H8 H -0.1325 0.4354 -0.0786
H9 H -0.1002 0.3232 -0.1477
C4 C -0.0577(7) 0.2044(17) -0.0327(6)
H10 H 0.0110 0.2621 -0.0145
H11 H -0.0476 0.0895 -0.0563
C5 C -0.2129(6) 0.0988(12) 0.0150(5)
H12 H -0.2089 -0.0162 -0.0121
C6 C -0.2171(6) 0.0516(13) 0.1596(5)
H13 H -0.1451 0.0785 0.1754
C7 C -0.2639(5) -0.0059(11) 0.2260(5)
C8 C -0.3704(6) -0.0672(15) 0.2099(5)
C9 C -0.3983(6) -0.1457(15) 0.2785(5)
H14 H -0.4666 -0.1902 0.2701
C10 C -0.3303(6) -0.1588(14) 0.3552(5)
H15 H -0.3536 -0.2082 0.3986
C11 C -0.2253(6) -0.1001(12) 0.3720(5)
C12 C -0.1935(6) -0.0240(12) 0.3082(5)
H16 H -0.1242 0.0171 0.3185
C13 C -0.1429(6) -0.1252(12) 0.4562(5)
C14 C 0.2172(6) -0.1483(13) 0.4372(5)
H17 H 0.2379 -0.0226 0.4389
C15 C 0.2554(9) -0.2334(19) 0.3706(7)
H18 H 0.2259 -0.1704 0.3181
H19 H 0.2293 -0.3550 0.3631
C16 C 0.3762(9) -0.2363(18) 0.3890(7)
H20 H 0.3959 -0.3074 0.3466
H21 H 0.4017 -0.1159 0.3857
C17 C 0.4279(7) -0.3114(17) 0.4739(6)
H22 H 0.5042 -0.3009 0.4849
H23 H 0.4108 -0.4371 0.4741
C18 C 0.3929(7) -0.2167(16) 0.5466(6)
H24 H 0.4239 -0.2762 0.5998
H25 H 0.4160 -0.0934 0.5516
C19 C 0.2709(6) -0.2269(12) 0.5239(5)
H26 H 0.2514 -0.3532 0.5224
C20 C 0.2754(6) -0.1190(12) 0.6654(5)
H27 H 0.3449 -0.1602 0.6824
C21 C 0.2323(6) -0.0399(15) 0.7279(5)
C22 C 0.1263(5) 0.0260(14) 0.7132(4)
C23 C 0.0988(6) 0.1017(13) 0.7831(5)
H28 H 0.0289 0.1370 0.7763
C24 C 0.1727(6) 0.1259(13) 0.8623(5)
H29 H 0.1529 0.1848 0.9052
C25 C 0.2765(7) 0.0604(12) 0.8760(5)
C26 C 0.3031(6) -0.0228(11) 0.8077(5)
H30 H 0.3712 -0.0686 0.8165
C27 C 0.3591(7) 0.0883(13) 0.9573(6)
C28 C -0.1000(6) 0.1750(15) 0.0436(6)
H31 H -0.1006 0.2872 0.0726
H32 H -0.0541 0.0928 0.0823
Cu2_2 Cu 0.58215(7) 0.03302(13) 1.03328(6)
O5_2 O -0.5614(5) -0.0180(10) -0.0302(4)
O7 O 0.5699(15) -0.185(3) 0.8165(11)
C29 C 0.6244(19) -0.344(3) 0.8124(14)
C30 C 0.6383(16) -0.388(4) 0.7282(13)
C35 C 0.7060(19) -0.387(4) 0.8893(13)
C36 C 0.6876(17) -0.238(4) 0.6998(15)
O8 O 0.935(4) -0.331(4) 0.673(3)
C31 C 0.863(2) -0.195(4) 0.7041(16)
C32 C 0.8199(16) -0.404(4) 0.7989(17)
C33 C 0.905(3) -0.010(3) 0.685(2)
C34 C 0.8788(18) -0.235(4) 0.7963(12)
O9? O 0.942(4) -0.319(4) 0.680(3)
loop_
_geom_bond_atom_site_label_1
_geom_bond_atom_site_label_2
_geom_bond_site_symmetry_1
_geom_bond_site_symmetry_2
Cu1 O2 1_555 1_555
Cu2 O1 1_555 1_555
O1 C8 1_555 1_555
O2 C13 1_555 1_555
O3 C13 1_555 1_555
O4 Cu1 1_555 1_555
O5 C27 1_555 1_555
O6 C27 1_555 1_555
N1 Cu2 1_555 1_555
H1 N1 1_555 1_555
H2 N1 1_555 1_555
N2 Cu2 1_555 1_555
N3 Cu1 1_555 1_555
H3 N3 1_555 1_555
H4 N3 1_555 1_555
N4 Cu1 1_555 1_555
C1 N1 1_555 1_555
H5 C1 1_555 1_555
C2 C1 1_555 1_555
H6 C2 1_555 1_555
H7 C2 1_555 1_555
C3 C2 1_555 1_555
H8 C3 1_555 1_555
H9 C3 1_555 1_555
C4 C3 1_555 1_555
H10 C4 1_555 1_555
H11 C4 1_555 1_555
C5 N2 1_555 1_555
H12 C5 1_555 1_555
C6 N2 1_555 1_555
H13 C6 1_555 1_555
C7 C6 1_555 1_555
C8 C7 1_555 1_555
C9 C8 1_555 1_555
H14 C9 1_555 1_555
C10 C9 1_555 1_555
H15 C10 1_555 1_555
C11 C10 1_555 1_555
C12 C7 1_555 1_555
H16 C12 1_555 1_555
C13 C11 1_555 1_555
C14 N3 1_555 1_555
H17 C14 1_555 1_555
C15 C14 1_555 1_555
H18 C15 1_555 1_555
H19 C15 1_555 1_555
C16 C15 1_555 1_555
H20 C16 1_555 1_555
H21 C16 1_555 1_555
C17 C16 1_555 1_555
H22 C17 1_555 1_555
H23 C17 1_555 1_555
C18 C17 1_555 1_555
H24 C18 1_555 1_555
H25 C18 1_555 1_555
C19 N4 1_555 1_555
H26 C19 1_555 1_555
C20 N4 1_555 1_555
H27 C20 1_555 1_555
C21 C20 1_555 1_555
C22 O4 1_555 1_555
C23 C22 1_555 1_555
H28 C23 1_555 1_555
C24 C23 1_555 1_555
H29 C24 1_555 1_555
C25 C24 1_555 1_555
C26 C21 1_555 1_555
H30 C26 1_555 1_555
C27 C25 1_555 1_555
C28 C4 1_555 1_555
H31 C28 1_555 1_555
H32 C28 1_555 1_555
O7 C29 1_555 1_555
C29 C30 1_555 1_555
C30 C36 1_555 1_555
O8 C31 1_555 1_555
C31 C33 1_555 1_555
C32 C34 1_555 1_555
C34 C31 1_555 1_555
C35 C29 1_555 1_555
Cu2_2 O5 1_555 1_555
O5_2 Cu2 1_555 1_555
C1 C5 1_555 1_555
C5 C28 1_555 1_555
C11 C12 1_555 1_555
C14 C19 1_555 1_555
C18 C19 1_555 1_555
C21 C22 1_555 1_555
C25 C26 1_555 1_555

#END
