
#######################################################################
#
#                 Cambridge Crystallographic Data Centre
#                                CCDC 
#
#######################################################################
#
# If this CIF has been generated from an entry in the Cambridge 
# Structural Database, then it will include bibliographic, chemical, 
# crystal, experimental, refinement or atomic coordinate data resulting 
# from the CCDC's data processing and validation procedures.
#
#######################################################################

data_FURQUF
_symmetry_cell_setting           rhombohedral
_symmetry_space_group_name_H-M   'R -3'
_symmetry_Int_Tables_number      148
_space_group_name_Hall           '-R 3'
loop_
_symmetry_equiv_pos_site_id
_symmetry_equiv_pos_as_xyz
1 x,y,z
2 -y,x-y,z
3 -x+y,-x,z
4 2/3+x,1/3+y,1/3+z
5 2/3-y,1/3+x-y,1/3+z
6 2/3-x+y,1/3-x,1/3+z
7 1/3+x,2/3+y,2/3+z
8 1/3-y,2/3+x-y,2/3+z
9 1/3-x+y,2/3-x,2/3+z
10 -x,-y,-z
11 y,-x+y,-z
12 x-y,x,-z
13 1/3-x,2/3-y,2/3-z
14 1/3+y,2/3-x+y,2/3-z
15 1/3+x-y,2/3+x,2/3-z
16 2/3-x,1/3-y,1/3-z
17 2/3+y,1/3-x+y,1/3-z
18 2/3+x-y,1/3+x,1/3-z
_cell_length_a                   34.091(3)
_cell_length_b                   34.091(3)
_cell_length_c                   8.5083(13)
_cell_angle_alpha                90
_cell_angle_beta                 90
_cell_angle_gamma                120
_cell_volume                     8563.53
loop_
_atom_site_label
_atom_site_type_symbol
_atom_site_fract_x
_atom_site_fract_y
_atom_site_fract_z
Ag1 Ag 0.148538(9) 0.319535(10) 0.50367(3)
O1 O 0.33621(8) 0.32813(8) 0.7724(3)
N1 N 0.20688(9) 0.33823(9) 0.6576(3)
N2 N 0.27827(10) 0.19565(10) 0.6112(3)
C1 C 0.21948(11) 0.37282(11) 0.7574(4)
H1 H 0.2024 0.3879 0.7591
C2 C 0.25585(12) 0.38772(12) 0.8579(4)
H2 H 0.2635 0.4123 0.9273
C3 C 0.28100(12) 0.36627(11) 0.8561(4)
H3 H 0.3067 0.3763 0.9221
C4 C 0.26791(11) 0.32969(11) 0.7555(4)
C5 C 0.23096(11) 0.31685(11) 0.6588(4)
H4 H 0.2222 0.2918 0.5902
C6 C 0.29562(12) 0.30675(12) 0.7506(4)
C7 C 0.27221(11) 0.25712(11) 0.7209(4)
C8 C 0.22980(12) 0.22739(12) 0.7799(4)
H5 H 0.2132 0.2382 0.8374
C9 C 0.21195(13) 0.18168(13) 0.7538(5)
H6 H 0.1829 0.1604 0.7934
C10 C 0.23678(13) 0.16724(13) 0.6696(4)
H7 H 0.2241 0.1357 0.6517
C11 C 0.29534(12) 0.23975(11) 0.6379(4)
H8 H 0.3247 0.2603 0.5986
Ag1J Ag 0.319535(10) 0.170997(13) 0.49633(3)
N2K N 0.08262(14) 0.27827(10) 0.3888(3)
C12 C 0.15300(12) 0.41031(13) 0.4668(5)
O2 O 0.15262(10) 0.39042(11) 0.3459(4)
O3 O 0.14808(11) 0.39744(10) 0.6039(4)
C13 C 0.16225(14) 0.45879(15) 0.4403(5)
F1 F 0.15157(9) 0.47581(8) 0.5630(3)
F2 F 0.20650(9) 0.48684(8) 0.4117(3)
F3 F 0.13957(10) 0.46179(11) 0.3171(3)
Cl1 Cl 0.21374(6) 0.08798(6) 0.3566(2)
C14 C 0.16293(16) 0.07590(19) 0.2763(7)
C15 C 0.1252(2) 0.0604(3) 0.3731(6)
H9 H 0.1277 0.0562 0.4822
C16 C 0.08378(18) 0.0511(3) 0.3101(9)
H10 H 0.0580 0.0405 0.3763
C17 C 0.0801(2) 0.0572(3) 0.1504(10)
H11 H 0.0518 0.0509 0.1074
C18 C 0.1178(3) 0.0727(3) 0.0537(7)
H12 H 0.1153 0.0769 -0.0555
C19 C 0.1592(2) 0.0820(3) 0.1166(6)
H13 H 0.1850 0.0926 0.0505
C20? C 0.1073(3) 0.0611(4) 0.2606(13)
C21? C 0.1304(3) 0.0788(4) 0.1203(10)
C22? C 0.1752(3) 0.0892(4) 0.1056(9)
C23? C 0.1969(3) 0.0821(3) 0.2312(12)
C24? C 0.1739(4) 0.0644(4) 0.3715(10)
C25? C 0.1290(4) 0.0539(4) 0.3862(10)
Cl2? Cl 0.05210(16) 0.04728(18) 0.2788(6)
H14? H 0.1155 0.0837 0.0345
H15? H 0.1909 0.1013 0.0097
H16? H 0.2276 0.0892 0.2211
H17? H 0.1887 0.0595 0.4573
H18? H 0.1133 0.0419 0.4821
loop_
_geom_bond_atom_site_label_1
_geom_bond_atom_site_label_2
_geom_bond_site_symmetry_1
_geom_bond_site_symmetry_2
Ag1 N1 1_555 1_555
O1 C6 1_555 1_555
N1 C1 1_555 1_555
N2 C10 1_555 1_555
C1 H1 1_555 1_555
C2 C1 1_555 1_555
H2 C2 1_555 1_555
C3 C2 1_555 1_555
H3 C3 1_555 1_555
C4 C3 1_555 1_555
C5 N1 1_555 1_555
H4 C5 1_555 1_555
C6 C4 1_555 1_555
C7 C6 1_555 1_555
C8 C7 1_555 1_555
H5 C8 1_555 1_555
C9 C8 1_555 1_555
H6 C9 1_555 1_555
C10 C9 1_555 1_555
H7 C10 1_555 1_555
C11 N2 1_555 1_555
H8 C11 1_555 1_555
C12 O2 1_555 1_555
O3 C12 1_555 1_555
C13 C12 1_555 1_555
F1 C13 1_555 1_555
F2 C13 1_555 1_555
F3 C13 1_555 1_555
Cl1 C14 1_555 1_555
C14 C15 1_555 1_555
C15 H9 1_555 1_555
C16 C15 1_555 1_555
H10 C16 1_555 1_555
C17 C16 1_555 1_555
H11 C17 1_555 1_555
C18 C17 1_555 1_555
H12 C18 1_555 1_555
C19 C14 1_555 1_555
H13 C19 1_555 1_555
Ag1J N2 1_555 1_555
N2K Ag1 1_555 1_555
C4 C5 1_555 1_555
C7 C11 1_555 1_555
C18 C19 1_555 1_555

#END
