
#######################################################################
#
#                 Cambridge Crystallographic Data Centre
#                                CCDC 
#
#######################################################################
#
# If this CIF has been generated from an entry in the Cambridge 
# Structural Database, then it will include bibliographic, chemical, 
# crystal, experimental, refinement or atomic coordinate data resulting 
# from the CCDC's data processing and validation procedures.
#
#######################################################################

data_FURRAM
_symmetry_cell_setting           rhombohedral
_symmetry_space_group_name_H-M   'R -3'
_symmetry_Int_Tables_number      148
_space_group_name_Hall           '-R 3'
loop_
_symmetry_equiv_pos_site_id
_symmetry_equiv_pos_as_xyz
1 x,y,z
2 -y,x-y,z
3 -x+y,-x,z
4 2/3+x,1/3+y,1/3+z
5 2/3-y,1/3+x-y,1/3+z
6 2/3-x+y,1/3-x,1/3+z
7 1/3+x,2/3+y,2/3+z
8 1/3-y,2/3+x-y,2/3+z
9 1/3-x+y,2/3-x,2/3+z
10 -x,-y,-z
11 y,-x+y,-z
12 x-y,x,-z
13 1/3-x,2/3-y,2/3-z
14 1/3+y,2/3-x+y,2/3-z
15 1/3+x-y,2/3+x,2/3-z
16 2/3-x,1/3-y,1/3-z
17 2/3+y,1/3-x+y,1/3-z
18 2/3+x-y,1/3+x,1/3-z
_cell_length_a                   33.786(5)
_cell_length_b                   33.786(5)
_cell_length_c                   8.417(3)
_cell_angle_alpha                90
_cell_angle_beta                 90
_cell_angle_gamma                120
_cell_volume                     8320.73
loop_
_atom_site_label
_atom_site_type_symbol
_atom_site_fract_x
_atom_site_fract_y
_atom_site_fract_z
Ag1 Ag 0.147452(12) 0.321855(12) 0.50460(4)
O1 O 0.33579(10) 0.33034(11) 0.7852(4)
N1 N 0.20642(13) 0.34187(13) 0.6621(4)
N2 N 0.27930(13) 0.19753(13) 0.6163(4)
C1 C 0.21927(16) 0.37744(16) 0.7610(5)
H1 H 0.2027 0.3933 0.7598
C2 C 0.25576(17) 0.39191(16) 0.8648(5)
H2 H 0.2636 0.4170 0.9341
C3 C 0.28063(16) 0.36950(16) 0.8664(5)
H3 H 0.3064 0.3794 0.9341
C4 C 0.26681(15) 0.33200(15) 0.7659(5)
C5 C 0.23000(15) 0.31953(15) 0.6665(5)
H4 H 0.2209 0.2940 0.5982
C6 C 0.29469(15) 0.30859(16) 0.7613(5)
C7 C 0.27161(15) 0.25873(16) 0.7280(5)
C8 C 0.22809(16) 0.22797(16) 0.7838(5)
H5 H 0.2106 0.2383 0.8406
C9 C 0.21080(18) 0.18161(17) 0.7540(6)
H6 H 0.1813 0.1596 0.7914
C10 C 0.23695(17) 0.16820(16) 0.6698(6)
H7 H 0.2245 0.1366 0.6483
C11 C 0.29613(16) 0.24195(16) 0.6464(5)
H8 H 0.3261 0.2630 0.6108
Ag1J Ag 0.321855(12) 0.174403(17) 0.49540(4)
N2K N 0.08177(18) 0.27930(13) 0.3837(4)
C12 C 0.15389(16) 0.41339(18) 0.4550(6)
O2 O 0.14631(14) 0.39834(14) 0.5914(5)
O3 O 0.15406(13) 0.39441(14) 0.3290(5)
C13 C 0.16621(19) 0.4634(2) 0.4334(6)
F1 F 0.14636(16) 0.46949(16) 0.3047(4)
F2 F 0.21165(12) 0.49028(12) 0.4131(5)
F3 F 0.15467(11) 0.48049(11) 0.5564(4)
O4 O 0.1030(6) 0.0121(5) 0.228(2)
C14 C 0.1088(7) 0.0340(5) 0.3748(19)
H9 H 0.0998 0.0115 0.4620
H10 H 0.0893 0.0482 0.3799
C15 C 0.1572(7) 0.0694(5) 0.3926(19)
H11 H 0.1616 0.0854 0.4951
H12 H 0.1765 0.0549 0.3929
O5 O 0.1701(6) 0.0998(5) 0.2715(18)
C16 C 0.1625(6) 0.0760(5) 0.1327(19)
H13 H 0.1786 0.0583 0.1353
H14 H 0.1745 0.0976 0.0421
C17 C 0.1138(7) 0.0453(7) 0.1127(19)
H15 H 0.0966 0.0615 0.1297
H16 H 0.1069 0.0316 0.0051
loop_
_geom_bond_atom_site_label_1
_geom_bond_atom_site_label_2
_geom_bond_site_symmetry_1
_geom_bond_site_symmetry_2
Ag1 N1 1_555 1_555
O1 C6 1_555 1_555
N1 C1 1_555 1_555
N2 C10 1_555 1_555
C1 H1 1_555 1_555
C2 C1 1_555 1_555
H2 C2 1_555 1_555
C3 C2 1_555 1_555
H3 C3 1_555 1_555
C4 C3 1_555 1_555
C5 N1 1_555 1_555
H4 C5 1_555 1_555
C6 C4 1_555 1_555
C7 C6 1_555 1_555
C8 C7 1_555 1_555
H5 C8 1_555 1_555
C9 C8 1_555 1_555
H6 C9 1_555 1_555
C10 C9 1_555 1_555
H7 C10 1_555 1_555
C11 N2 1_555 1_555
H8 C11 1_555 1_555
C12 O2 1_555 1_555
O3 C12 1_555 1_555
C13 C12 1_555 1_555
F1 C13 1_555 1_555
F2 C13 1_555 1_555
F3 C13 1_555 1_555
O4 C14 1_555 1_555
C14 H9 1_555 1_555
H10 C14 1_555 1_555
C15 C14 1_555 1_555
H11 C15 1_555 1_555
H12 C15 1_555 1_555
O5 C15 1_555 1_555
C16 O5 1_555 1_555
H13 C16 1_555 1_555
H14 C16 1_555 1_555
C17 O4 1_555 1_555
H15 C17 1_555 1_555
H16 C17 1_555 1_555
Ag1J N2 1_555 1_555
N2K Ag1 1_555 1_555
C4 C5 1_555 1_555
C7 C11 1_555 1_555
C16 C17 1_555 1_555

#END
