
#######################################################################
#
#                 Cambridge Crystallographic Data Centre
#                                CCDC 
#
#######################################################################
#
# If this CIF has been generated from an entry in the Cambridge 
# Structural Database, then it will include bibliographic, chemical, 
# crystal, experimental, refinement or atomic coordinate data resulting 
# from the CCDC's data processing and validation procedures.
#
#######################################################################

data_FURRIU
_symmetry_cell_setting           rhombohedral
_symmetry_space_group_name_H-M   'R -3'
_symmetry_Int_Tables_number      148
_space_group_name_Hall           '-R 3'
loop_
_symmetry_equiv_pos_site_id
_symmetry_equiv_pos_as_xyz
1 x,y,z
2 -y,x-y,z
3 -x+y,-x,z
4 2/3+x,1/3+y,1/3+z
5 2/3-y,1/3+x-y,1/3+z
6 2/3-x+y,1/3-x,1/3+z
7 1/3+x,2/3+y,2/3+z
8 1/3-y,2/3+x-y,2/3+z
9 1/3-x+y,2/3-x,2/3+z
10 -x,-y,-z
11 y,-x+y,-z
12 x-y,x,-z
13 1/3-x,2/3-y,2/3-z
14 1/3+y,2/3-x+y,2/3-z
15 1/3+x-y,2/3+x,2/3-z
16 2/3-x,1/3-y,1/3-z
17 2/3+y,1/3-x+y,1/3-z
18 2/3+x-y,1/3+x,1/3-z
_cell_length_a                   34.6711(11)
_cell_length_b                   34.6711(11)
_cell_length_c                   8.4273(5)
_cell_angle_alpha                90
_cell_angle_beta                 90
_cell_angle_gamma                120
_cell_volume                     8773.13
loop_
_atom_site_label
_atom_site_type_symbol
_atom_site_fract_x
_atom_site_fract_y
_atom_site_fract_z
Ag1 Ag 0.146475(9) 0.317403(9) 0.50825(3)
O1 O 0.33431(7) 0.32790(8) 0.7538(3)
N1 N 0.20503(9) 0.33641(9) 0.6590(3)
N2 N 0.27698(9) 0.19613(9) 0.6070(3)
C1 C 0.21861(11) 0.37150(11) 0.7573(4)
H1 H 0.2018 0.3863 0.7619
C2 C 0.25614(11) 0.38686(11) 0.8520(4)
H2 H 0.2647 0.4116 0.9202
C3 C 0.28093(11) 0.36583(11) 0.8462(4)
H3 H 0.3072 0.3763 0.9083
C4 C 0.26676(10) 0.32891(10) 0.7476(4)
C5 C 0.22857(11) 0.31526(11) 0.6558(4)
H4 H 0.2189 0.2901 0.5885
C6 C 0.29405(11) 0.30658(11) 0.7377(4)
C7 C 0.27114(11) 0.25732(11) 0.7124(4)
C8 C 0.23044(12) 0.22813(12) 0.7813(4)
H5 H 0.2144 0.2390 0.8397
C9 C 0.21370(12) 0.18281(12) 0.7629(5)
H6 H 0.1861 0.1620 0.8101
C10 C 0.23748(12) 0.16826(12) 0.6753(4)
H7 H 0.2255 0.1371 0.6623
C11 C 0.29334(11) 0.23987(11) 0.6269(4)
H8 H 0.3213 0.2599 0.5807
Ag1J Ag 0.317403(9) 0.170928(13) 0.49175(3)
N2K N 0.08085(13) 0.27698(9) 0.3930(3)
C12 C 0.15050(11) 0.40622(12) 0.4727(5)
O2 O 0.15344(9) 0.38592(9) 0.3564(3)
O3 O 0.14375(10) 0.39522(10) 0.6126(4)
C13 C 0.15785(13) 0.45271(14) 0.4299(5)
F1 F 0.14835(9) 0.47223(8) 0.5484(3)
F2 F 0.13255(10) 0.45103(10) 0.3067(3)
F3 F 0.20024(9) 0.48044(9) 0.3899(4)
C14 C 0.0920(2) 0.0511(4) 0.1990(14)
H9 H 0.0929 0.0802 0.1864
C15 C 0.1280(3) 0.0557(5) 0.0882(14)
H10 H 0.1225 0.0256 0.0603
H11 H 0.1264 0.0702 -0.0108
C16 C 0.1734(2) 0.0821(2) 0.1569(9)
H12 H 0.1932 0.0735 0.1016
H13 H 0.1846 0.1139 0.1332
C17 C 0.17781(19) 0.0777(3) 0.3297(7)
H14 H 0.1715 0.0466 0.3480
C18 C 0.1434(3) 0.0830(4) 0.4266(12)
H15 H 0.1464 0.0784 0.5408
H16 H 0.1479 0.1133 0.4124
C19 C 0.0991(4) 0.0495(5) 0.3688(13)
H17 H 0.0942 0.0196 0.3952
H18 H 0.0764 0.0533 0.4265
O4 O 0.0481(3) 0.0201(5) 0.158(2)
H19 H 0.0317 0.0311 0.1744
H20? H 0.2392 0.1018 0.3214
O5? O 0.2218(4) 0.1060(7) 0.379(2)
loop_
_geom_bond_atom_site_label_1
_geom_bond_atom_site_label_2
_geom_bond_site_symmetry_1
_geom_bond_site_symmetry_2
Ag1 N1 1_555 1_555
O1 C6 1_555 1_555
N1 C1 1_555 1_555
N2 C10 1_555 1_555
C1 H1 1_555 1_555
C2 C1 1_555 1_555
H2 C2 1_555 1_555
C3 C2 1_555 1_555
H3 C3 1_555 1_555
C4 C3 1_555 1_555
C5 N1 1_555 1_555
H4 C5 1_555 1_555
C6 C4 1_555 1_555
C7 C6 1_555 1_555
C8 C7 1_555 1_555
H5 C8 1_555 1_555
C9 C8 1_555 1_555
H6 C9 1_555 1_555
C10 C9 1_555 1_555
H7 C10 1_555 1_555
C11 N2 1_555 1_555
H8 C11 1_555 1_555
C12 O2 1_555 1_555
O3 C12 1_555 1_555
C13 C12 1_555 1_555
F1 C13 1_555 1_555
F2 C13 1_555 1_555
F3 C13 1_555 1_555
C14 H9 1_555 1_555
C15 C14 1_555 1_555
H10 C15 1_555 1_555
H11 C15 1_555 1_555
C16 C15 1_555 1_555
H12 C16 1_555 1_555
H13 C16 1_555 1_555
C17 C16 1_555 1_555
H14 C17 1_555 1_555
C18 C17 1_555 1_555
H15 C18 1_555 1_555
H16 C18 1_555 1_555
C19 C14 1_555 1_555
H17 C19 1_555 1_555
H18 C19 1_555 1_555
O4 C14 1_555 1_555
H19 O4 1_555 1_555
Ag1J N2 1_555 1_555
N2K Ag1 1_555 1_555
C4 C5 1_555 1_555
C7 C11 1_555 1_555
C18 C19 1_555 1_555

#END
