
#######################################################################
#
#                 Cambridge Crystallographic Data Centre
#                                CCDC 
#
#######################################################################
#
# If this CIF has been generated from an entry in the Cambridge 
# Structural Database, then it will include bibliographic, chemical, 
# crystal, experimental, refinement or atomic coordinate data resulting 
# from the CCDC's data processing and validation procedures.
#
#######################################################################

data_FURREQ
_symmetry_cell_setting           rhombohedral
_symmetry_space_group_name_H-M   'R -3'
_symmetry_Int_Tables_number      148
_space_group_name_Hall           '-R 3'
loop_
_symmetry_equiv_pos_site_id
_symmetry_equiv_pos_as_xyz
1 x,y,z
2 -y,x-y,z
3 -x+y,-x,z
4 2/3+x,1/3+y,1/3+z
5 2/3-y,1/3+x-y,1/3+z
6 2/3-x+y,1/3-x,1/3+z
7 1/3+x,2/3+y,2/3+z
8 1/3-y,2/3+x-y,2/3+z
9 1/3-x+y,2/3-x,2/3+z
10 -x,-y,-z
11 y,-x+y,-z
12 x-y,x,-z
13 1/3-x,2/3-y,2/3-z
14 1/3+y,2/3-x+y,2/3-z
15 1/3+x-y,2/3+x,2/3-z
16 2/3-x,1/3-y,1/3-z
17 2/3+y,1/3-x+y,1/3-z
18 2/3+x-y,1/3+x,1/3-z
_cell_length_a                   33.4968(12)
_cell_length_b                   33.4968(12)
_cell_length_c                   8.5164(6)
_cell_angle_alpha                90
_cell_angle_beta                 90
_cell_angle_gamma                120
_cell_volume                     8275.48
loop_
_atom_site_label
_atom_site_type_symbol
_atom_site_fract_x
_atom_site_fract_y
_atom_site_fract_z
Ag1 Ag 0.147255(15) 0.323067(15) 0.50308(5)
O1 O 0.33676(13) 0.33306(13) 0.7849(4)
N1 N 0.20678(15) 0.34446(15) 0.6588(5)
N2 N 0.28152(15) 0.19960(16) 0.6217(5)
C1 C 0.21791(19) 0.37884(18) 0.7625(6)
H1 H 0.2007 0.3943 0.7619
C2 C 0.2535(2) 0.39251(19) 0.8700(7)
H2 H 0.2602 0.4166 0.9425
C3 C 0.27891(19) 0.37043(18) 0.8697(6)
H3 H 0.3041 0.3797 0.9397
C4 C 0.26700(19) 0.33432(18) 0.7649(6)
C5 C 0.23083(18) 0.32234(19) 0.6631(6)
H4 H 0.2226 0.2974 0.5929
C6 C 0.29514(19) 0.31102(19) 0.7602(6)
C7 C 0.27219(19) 0.26080(19) 0.7283(6)
C8 C 0.2284(2) 0.2299(2) 0.7775(7)
H5 H 0.2100 0.2401 0.8295
C9 C 0.2114(2) 0.1833(2) 0.7499(7)
H6 H 0.1815 0.1612 0.7848
C10 C 0.2383(2) 0.16965(19) 0.6720(7)
H7 H 0.2260 0.1377 0.6523
C11 C 0.29763(19) 0.24404(19) 0.6509(6)
H8 H 0.3280 0.2655 0.6174
Ag1J Ag 0.323067(15) 0.175812(21) 0.49692(5)
N2K N 0.08192(22) 0.28152(15) 0.3783(5)
C12 C 0.15433(19) 0.4172(2) 0.4454(7)
O2 O 0.14268(16) 0.39689(16) 0.5713(5)
O3 O 0.15623(15) 0.40243(15) 0.3136(5)
C13 C 0.1710(2) 0.4691(2) 0.4495(8)
F1 F 0.15811(15) 0.48291(13) 0.5757(4)
F2 F 0.15552(17) 0.48278(15) 0.3258(5)
F3 F 0.21697(14) 0.49371(13) 0.4428(6)
O4 O 0.22077(17) 0.09052(17) 0.3660(6)
H9 H 0.2307 0.0880 0.4539
C14 C 0.1722(3) 0.0713(3) 0.3737(9)
H10 H 0.1647 0.0900 0.4450
H11 H 0.1577 0.0396 0.4158
C15 C 0.1541(3) 0.0707(3) 0.2141(10)
H12 H 0.1600 0.0502 0.1461
H13 H 0.1710 0.1022 0.1694
C16 C 0.1029(4) 0.0544(4) 0.2118(15)
H14 H 0.0966 0.0740 0.2829
H15 H 0.0938 0.0578 0.1043
C17 C 0.0757(6) 0.0070(6) 0.260(2)
H16 H 0.0430 -0.0020 0.2595
H17 H 0.0848 0.0035 0.3661
H18 H 0.0808 -0.0126 0.1871
loop_
_geom_bond_atom_site_label_1
_geom_bond_atom_site_label_2
_geom_bond_site_symmetry_1
_geom_bond_site_symmetry_2
Ag1 N1 1_555 1_555
O1 C6 1_555 1_555
N1 C1 1_555 1_555
N2 C10 1_555 1_555
C1 H1 1_555 1_555
C2 C1 1_555 1_555
H2 C2 1_555 1_555
C3 C2 1_555 1_555
H3 C3 1_555 1_555
C4 C3 1_555 1_555
C5 N1 1_555 1_555
H4 C5 1_555 1_555
C6 C4 1_555 1_555
C7 C6 1_555 1_555
C8 C7 1_555 1_555
H5 C8 1_555 1_555
C9 C8 1_555 1_555
H6 C9 1_555 1_555
C10 C9 1_555 1_555
H7 C10 1_555 1_555
C11 N2 1_555 1_555
H8 C11 1_555 1_555
C12 O2 1_555 1_555
O3 C12 1_555 1_555
C13 C12 1_555 1_555
F1 C13 1_555 1_555
F2 C13 1_555 1_555
F3 C13 1_555 1_555
O4 H9 1_555 1_555
C14 O4 1_555 1_555
H10 C14 1_555 1_555
H11 C14 1_555 1_555
C15 C14 1_555 1_555
H12 C15 1_555 1_555
H13 C15 1_555 1_555
C16 C15 1_555 1_555
H14 C16 1_555 1_555
H15 C16 1_555 1_555
C17 C16 1_555 1_555
H16 C17 1_555 1_555
H17 C17 1_555 1_555
H18 C17 1_555 1_555
Ag1J N2 1_555 1_555
N2K Ag1 1_555 1_555
C4 C5 1_555 1_555
C7 C11 1_555 1_555

#END
