
#######################################################################
#
#                 Cambridge Crystallographic Data Centre
#                                CCDC 
#
#######################################################################
#
# If this CIF has been generated from an entry in the Cambridge 
# Structural Database, then it will include bibliographic, chemical, 
# crystal, experimental, refinement or atomic coordinate data resulting 
# from the CCDC's data processing and validation procedures.
#
#######################################################################

data_FURROA
_symmetry_cell_setting           rhombohedral
_symmetry_space_group_name_H-M   'R -3'
_symmetry_Int_Tables_number      148
_space_group_name_Hall           '-R 3'
loop_
_symmetry_equiv_pos_site_id
_symmetry_equiv_pos_as_xyz
1 x,y,z
2 -y,x-y,z
3 -x+y,-x,z
4 2/3+x,1/3+y,1/3+z
5 2/3-y,1/3+x-y,1/3+z
6 2/3-x+y,1/3-x,1/3+z
7 1/3+x,2/3+y,2/3+z
8 1/3-y,2/3+x-y,2/3+z
9 1/3-x+y,2/3-x,2/3+z
10 -x,-y,-z
11 y,-x+y,-z
12 x-y,x,-z
13 1/3-x,2/3-y,2/3-z
14 1/3+y,2/3-x+y,2/3-z
15 1/3+x-y,2/3+x,2/3-z
16 2/3-x,1/3-y,1/3-z
17 2/3+y,1/3-x+y,1/3-z
18 2/3+x-y,1/3+x,1/3-z
_cell_length_a                   34.638(3)
_cell_length_b                   34.638(3)
_cell_length_c                   8.3954(12)
_cell_angle_alpha                90
_cell_angle_beta                 90
_cell_angle_gamma                120
_cell_volume                     8723.24
loop_
_atom_site_label
_atom_site_type_symbol
_atom_site_fract_x
_atom_site_fract_y
_atom_site_fract_z
C12 C -0.1511(3) -0.4058(3) 0.5337(10)
O2 O -0.1563(3) -0.3871(2) 0.6498(7)
O3 O -0.1399(2) -0.3924(2) 0.3978(7)
C13 C -0.1602(3) -0.4535(4) 0.5699(10)
F1 F -0.1517(2) -0.4730(2) 0.4517(7)
F2 F -0.1367(2) -0.4538(2) 0.6962(7)
F3 F -0.2036(2) -0.4807(2) 0.6084(8)
C14 C 0.1573(3) 0.0688(3) 0.2865(10)
Cl1 Cl 0.1592(4) 0.0804(5) 0.0788(9)
Cl2 Cl 0.2118(2) 0.0832(2) 0.3517(8)
Cl3 Cl 0.1417(3) 0.1043(3) 0.3864(11)
Cl4 Cl 0.1177(3) 0.0122(3) 0.3300(15)
Ag1 Ag -0.14316(4) -0.31755(2) 0.49030(8)
O1 O -0.3355(2) -0.3354(2) 0.2858(7)
N1 N -0.2035(2) -0.3386(2) 0.3450(7)
N2 N -0.2782(3) -0.2009(2) 0.3980(7)
C1 C -0.2173(3) -0.3739(3) 0.2490(8)
H1 H -0.1998 -0.3880 0.2417
C2 C -0.2559(3) -0.3906(3) 0.1597(10)
H2 H -0.2645 -0.4154 0.0915
C3 C -0.2817(3) -0.3710(3) 0.1704(9)
H3 H -0.3088 -0.3825 0.1129
C4 C -0.2672(3) -0.3338(3) 0.2674(8)
C5 C -0.2280(3) -0.3188(3) 0.3509(8)
H4 H -0.2179 -0.2931 0.4160
C6 C -0.2953(3) -0.3125(3) 0.2863(8)
C7 C -0.2733(3) -0.2633(3) 0.2989(8)
C8 C -0.2343(3) -0.2349(3) 0.2187(9)
H5 H -0.2186 -0.2461 0.1595
C9 C -0.2190(3) -0.1898(3) 0.2274(10)
H6 H -0.1933 -0.1696 0.1685
C10 C -0.2403(3) -0.1738(3) 0.3199(10)
H7 H -0.2280 -0.1425 0.3292
C11 C -0.2941(3) -0.2443(3) 0.3866(9)
H8 H -0.3210 -0.2637 0.4408
Ag1J Ag -0.31755(2) -0.17439(4) 0.50970(8)
N2K N -0.0773(4) -0.2782(3) 0.6020(7)
O4? O 0.0000 0.0000 0.547(2)
Cl5? Cl 0.0000 0.0000 -0.108(5)
Cl6? Cl -0.0112(9) 0.0409(7) -0.194(3)
C15? C 0.1214(5) 0.0519(4) 0.2236(14)
Cl7? Cl 0.0888(5) 0.0789(5) 0.2217(19)
Cl8? Cl 0.1554(5) 0.0683(5) 0.3987(14)
Cl9? Cl 0.0841(5) -0.0071(4) 0.227(2)
Cl10? Cl 0.1569(7) 0.0657(8) 0.0531(19)
loop_
_geom_bond_atom_site_label_1
_geom_bond_atom_site_label_2
_geom_bond_site_symmetry_1
_geom_bond_site_symmetry_2
Ag1 N1 1_555 1_555
O1 C6 1_555 1_555
N1 C1 1_555 1_555
N2 C10 1_555 1_555
C1 H1 1_555 1_555
C2 C1 1_555 1_555
H2 C2 1_555 1_555
C3 C2 1_555 1_555
H3 C3 1_555 1_555
C4 C3 1_555 1_555
C5 N1 1_555 1_555
H4 C5 1_555 1_555
C6 C4 1_555 1_555
C7 C6 1_555 1_555
C8 C7 1_555 1_555
H5 C8 1_555 1_555
C9 C8 1_555 1_555
H6 C9 1_555 1_555
C10 C9 1_555 1_555
H7 C10 1_555 1_555
C11 N2 1_555 1_555
H8 C11 1_555 1_555
C12 O2 1_555 1_555
O3 C12 1_555 1_555
C13 C12 1_555 1_555
F1 C13 1_555 1_555
F2 C13 1_555 1_555
F3 C13 1_555 1_555
C14 Cl1 1_555 1_555
Cl2 C14 1_555 1_555
Cl3 C14 1_555 1_555
Cl4 C14 1_555 1_555
Ag1J N2 1_555 1_555
N2K Ag1 1_555 1_555
C4 C5 1_555 1_555
C7 C11 1_555 1_555

#END
