
#######################################################################
#
#                 Cambridge Crystallographic Data Centre
#                                CCDC 
#
#######################################################################
#
# If this CIF has been generated from an entry in the Cambridge 
# Structural Database, then it will include bibliographic, chemical, 
# crystal, experimental, refinement or atomic coordinate data resulting 
# from the CCDC's data processing and validation procedures.
#
#######################################################################

data_FURRUF
_symmetry_cell_setting           triclinic
_symmetry_space_group_name_H-M   'P -1'
_symmetry_Int_Tables_number      2
_space_group_name_Hall           '-P 1'
loop_
_symmetry_equiv_pos_site_id
_symmetry_equiv_pos_as_xyz
1 x,y,z
2 -x,-y,-z
_cell_length_a                   8.538(2)
_cell_length_b                   9.248(8)
_cell_length_c                   10.687(3)
_cell_angle_alpha                67.73(5)
_cell_angle_beta                 63.28(2)
_cell_angle_gamma                74.08(5)
_cell_volume                     691.976
loop_
_atom_site_label
_atom_site_type_symbol
_atom_site_fract_x
_atom_site_fract_y
_atom_site_fract_z
Cu1 Cu -0.00542(3) 0.24436(3) 0.46240(2)
Mn1 Mn 0.25715(4) 0.14548(4) -0.07135(3)
O1 O 0.3318(2) 0.2096(2) 0.0673(1)
O2 O 0.0226(2) 0.1176(2) 0.1348(1)
O3 O 0.0939(2) 0.3201(2) 0.5566(1)
O4 O -0.1993(2) 0.1718(2) 0.6489(2)
O5 O 0.2227(2) 0.4931(2) 0.5624(2)
O6 O -0.4781(2) 0.1456(2) 0.7847(2)
O7 O 0.3105(2) -0.1187(2) 0.0136(2)
O8 O 0.1738(2) 0.4043(2) -0.1526(2)
O9 O 0.1322(2) 0.1255(2) -0.1935(2)
N1 N 0.2060(2) 0.2714(2) 0.2856(2)
N2 N -0.0836(2) 0.1662(2) 0.3581(2)
C1 C 0.0335(3) 0.1617(2) 0.2292(2)
C2 C 0.2071(3) 0.2192(2) 0.1884(2)
C3 C 0.3592(3) 0.3367(3) 0.2594(2)
C4 C 0.3002(3) 0.4703(3) 0.3266(2)
C5 C 0.2008(3) 0.4252(2) 0.4926(2)
C6 C -0.2543(3) 0.1109(3) 0.4164(2)
C7 C -0.3926(3) 0.1919(3) 0.5292(2)
C8 C -0.3541(3) 0.1670(2) 0.6620(2)
H1 H 0.418(3) 0.374(3) 0.162(2)
H2 H 0.440(3) 0.259(3) 0.296(2)
H3 H 0.228(3) 0.546(3) 0.284(2)
H4 H 0.401(3) 0.518(3) 0.297(2)
H5 H -0.246(3) -0.004(3) 0.464(2)
H6 H -0.296(3) 0.134(3) 0.341(2)
H7 H -0.407(3) 0.301(3) 0.484(2)
H8 H -0.503(3) 0.157(3) 0.558(2)
H9 H 0.277(4) -0.131(3) 0.093(3)
H10 H 0.401(4) -0.143(4) -0.015(3)
H11 H 0.181(4) 0.432(3) -0.227(3)
H12 H 0.206(4) 0.452(3) -0.134(3)
H13 H 0.105(3) 0.192(3) -0.259(3)
H14 H 0.098(3) 0.054(3) -0.178(3)
O5A O -0.2227(2) 0.5069(2) 0.4376(2)
O6_2 O 0.5219(2) 0.1456(2) -0.2153(2)
Cu1A Cu 0.00542(3) 0.75564(3) 0.53760(2)
Mn1_2 Mn -0.74285(4) 0.14548(4) 0.92865(3)
O10 O 0.2071(2) 0.5926(2) -0.0146(2)
H15 H 0.104(4) 0.597(3) 0.040(3)
H16 H 0.224(4) 0.678(4) -0.037(3)
loop_
_geom_bond_atom_site_label_1
_geom_bond_atom_site_label_2
_geom_bond_site_symmetry_1
_geom_bond_site_symmetry_2
Cu1 O3 1_555 1_555
Mn1 O1 1_555 1_555
O1 C2 1_555 1_555
O2 Mn1 1_555 1_555
O3 C5 1_555 1_555
O4 Cu1 1_555 1_555
O5 C5 1_555 1_555
O6 C8 1_555 1_555
O7 Mn1 1_555 1_555
O8 Mn1 1_555 1_555
O9 Mn1 1_555 1_555
O10 H15 1_555 1_555
N1 Cu1 1_555 1_555
N2 Cu1 1_555 1_555
C1 O2 1_555 1_555
C2 N1 1_555 1_555
C3 N1 1_555 1_555
C4 C3 1_555 1_555
C5 C4 1_555 1_555
C6 N2 1_555 1_555
C7 C6 1_555 1_555
C8 O4 1_555 1_555
H1 C3 1_555 1_555
H2 C3 1_555 1_555
H3 C4 1_555 1_555
H4 C4 1_555 1_555
H5 C6 1_555 1_555
H6 C6 1_555 1_555
H7 C7 1_555 1_555
H8 C7 1_555 1_555
H9 O7 1_555 1_555
H10 O7 1_555 1_555
H11 O8 1_555 1_555
H12 O8 1_555 1_555
H13 O9 1_555 1_555
H14 O9 1_555 1_555
H16 O10 1_555 1_555
O5A Cu1 1_555 1_555
O6_2 Mn1 1_555 1_555
Cu1A O5 1_555 1_555
Mn1_2 O6 1_555 1_555
N2 C1 1_555 1_555
C1 C2 1_555 1_555
C7 C8 1_555 1_555

#END
