
#######################################################################
#
#                 Cambridge Crystallographic Data Centre
#                                CCDC 
#
#######################################################################
#
# If this CIF has been generated from an entry in the Cambridge 
# Structural Database, then it will include bibliographic, chemical, 
# crystal, experimental, refinement or atomic coordinate data resulting 
# from the CCDC's data processing and validation procedures.
#
#######################################################################

data_FURSIU
_symmetry_cell_setting           monoclinic
_symmetry_space_group_name_H-M   'P 21/c'
_symmetry_Int_Tables_number      14
_space_group_name_Hall           '-P 2ybc'
loop_
_symmetry_equiv_pos_site_id
_symmetry_equiv_pos_as_xyz
1 x,y,z
2 -x,1/2+y,1/2-z
3 -x,-y,-z
4 x,1/2-y,1/2+z
_cell_length_a                   11.724(2)
_cell_length_b                   7.418(1)
_cell_length_c                   19.343(3)
_cell_angle_alpha                90
_cell_angle_beta                 100.16(2)
_cell_angle_gamma                90
_cell_volume                     1655.86
loop_
_atom_site_label
_atom_site_type_symbol
_atom_site_fract_x
_atom_site_fract_y
_atom_site_fract_z
Ni1 Ni 0.25890(4) 0.16953(8) 0.62077(2)
N1 N 0.3201(3) 0.1712(5) 0.7278(2)
C1 C 0.4372(3) 0.1623(6) 0.7456(2)
C2 C 0.4908(4) 0.1545(8) 0.8157(2)
C3 C 0.4237(5) 0.1582(9) 0.8671(2)
C4 C 0.3056(5) 0.1685(8) 0.8490(2)
C5 C 0.2575(4) 0.1758(7) 0.7790(2)
N2 N 0.4354(3) 0.1649(5) 0.6228(2)
C6 C 0.5018(3) 0.1630(6) 0.6871(2)
C7 C 0.6213(4) 0.1578(8) 0.6959(3)
C8 C 0.6737(4) 0.1622(9) 0.6379(3)
C9 C 0.6061(5) 0.1627(9) 0.5725(3)
C10 C 0.4875(4) 0.1686(7) 0.5667(2)
O1 O 0.2541(3) -0.1163(2) 0.6254(2)
O2 O 0.2614(3) -0.5468(3) 0.6234(2)
C11 C 0.2167(4) -0.4307(5) 0.5803(2)
C12 C 0.1484(4) -0.4298(6) 0.5092(2)
C13 C 0.1424(3) -0.2349(5) 0.5107(2)
C14 C 0.2114(4) -0.2327(5) 0.5809(2)
O3 O 0.1134(3) -0.5469(4) 0.4632(2)
O4 O 0.0982(3) -0.1163(4) 0.4679(2)
O5 O 0.2217(3) 0.1652(4) 0.5142(1)
O6 O 0.0887(2) 0.1721(5) 0.6336(2)
H1 H 0.194(4) 0.278(4) 0.492(2)
H2 H 0.168(4) 0.076(5) 0.490(2)
H3 H 0.029(3) 0.156(7) 0.592(2)
H4 H 0.064(4) 0.281(4) 0.654(3)
H9 H 0.575 0.146 0.828
H10 H 0.460 0.154 0.916
H11 H 0.257 0.171 0.885
H12 H 0.174 0.184 0.766
H13 H 0.668 0.150 0.743
H14 H 0.757 0.165 0.643
H15 H 0.641 0.159 0.531
H16 H 0.440 0.175 0.520
O2_2 O 0.2614(3) 0.4532(3) 0.6234(2)
Ni1_2 Ni 0.25890(4) -0.83047(8) 0.62077(2)
O7 O 0.0086(3) 0.5197(5) 0.3270(2)
H5 H 0.044(4) 0.488(8) 0.375(1)
H6 H -0.025(4) 0.405(4) 0.310(3)
O8 O 0.1033(4) 0.7187(6) 0.2277(2)
H7 H 0.058(4) 0.656(6) 0.259(2)
H8 H 0.141(4) 0.632(6) 0.201(2)
loop_
_geom_bond_atom_site_label_1
_geom_bond_atom_site_label_2
_geom_bond_site_symmetry_1
_geom_bond_site_symmetry_2
Ni1 N1 1_555 1_555
N1 C1 1_555 1_555
C1 C2 1_555 1_555
C2 C3 1_555 1_555
C3 C4 1_555 1_555
C4 C5 1_555 1_555
C5 N1 1_555 1_555
N2 Ni1 1_555 1_555
C6 C1 1_555 1_555
C7 C6 1_555 1_555
C8 C7 1_555 1_555
C9 C8 1_555 1_555
C10 N2 1_555 1_555
O1 Ni1 1_555 1_555
O2 C11 1_555 1_555
C11 C12 1_555 1_555
C12 C13 1_555 1_555
C13 C14 1_555 1_555
C14 O1 1_555 1_555
O3 C12 1_555 1_555
O4 C13 1_555 1_555
O5 Ni1 1_555 1_555
O6 Ni1 1_555 1_555
O7 H5 1_555 1_555
O8 H7 1_555 1_555
H1 O5 1_555 1_555
H2 O5 1_555 1_555
H3 O6 1_555 1_555
H4 O6 1_555 1_555
H6 O7 1_555 1_555
H8 O8 1_555 1_555
H9 C2 1_555 1_555
H10 C3 1_555 1_555
H11 C4 1_555 1_555
H12 C5 1_555 1_555
H13 C7 1_555 1_555
H14 C8 1_555 1_555
H15 C9 1_555 1_555
H16 C10 1_555 1_555
O2_2 Ni1 1_555 1_555
Ni1_2 O2 1_555 1_555
N2 C6 1_555 1_555
C9 C10 1_555 1_555
C11 C14 1_555 1_555

#END
