
#######################################################################
#
#                 Cambridge Crystallographic Data Centre
#                                CCDC 
#
#######################################################################
#
# If this CIF has been generated from an entry in the Cambridge 
# Structural Database, then it will include bibliographic, chemical, 
# crystal, experimental, refinement or atomic coordinate data resulting 
# from the CCDC's data processing and validation procedures.
#
#######################################################################

data_FURSER
_symmetry_cell_setting           monoclinic
_symmetry_space_group_name_H-M   'P 21/c'
_symmetry_Int_Tables_number      14
_space_group_name_Hall           '-P 2ybc'
loop_
_symmetry_equiv_pos_site_id
_symmetry_equiv_pos_as_xyz
1 x,y,z
2 -x,1/2+y,1/2-z
3 -x,-y,-z
4 x,1/2-y,1/2+z
_cell_length_a                   7.4946(3)
_cell_length_b                   10.9560(5)
_cell_length_c                   17.6586(9)
_cell_angle_alpha                90
_cell_angle_beta                 102.6850(10)
_cell_angle_gamma                90
_cell_volume                     1414.57
loop_
_atom_site_label
_atom_site_type_symbol
_atom_site_fract_x
_atom_site_fract_y
_atom_site_fract_z
Ag1 Ag 0.29993(4) 0.05093(3) 0.015509(17)
O1 O 0.7881(4) 0.3568(2) 0.23081(15)
N1 N 0.4899(4) 0.0550(2) 0.13449(17)
N2 N 1.2419(4) 0.3204(3) 0.41607(16)
C1 C 0.6027(4) 0.1474(3) 0.15928(18)
H1 H 0.5954 0.2166 0.1283
C2 C 0.7310(4) 0.1455(3) 0.22918(17)
C3 C 0.7402(5) 0.0422(3) 0.2750(2)
H2 H 0.8260 0.0367 0.3217
C4 C 0.6211(5) -0.0519(3) 0.2506(2)
H3 H 0.6235 -0.1215 0.2810
C5 C 0.4976(5) -0.0418(3) 0.1805(2)
H4 H 0.4160 -0.1056 0.1646
C6 C 0.8460(4) 0.2563(3) 0.25250(18)
C7 C 1.0835(4) 0.3278(3) 0.36377(18)
H5 H 1.0073 0.3941 0.3660
C8 C 1.0279(4) 0.2411(3) 0.30630(18)
C9 C 1.1433(5) 0.1440(3) 0.3015(2)
H6 H 1.1099 0.0845 0.2635
C10 C 1.3074(5) 0.1374(4) 0.3539(3)
H7 H 1.3882 0.0738 0.3514
C11 C 1.3511(5) 0.2256(3) 0.4099(2)
H8 H 1.4623 0.2194 0.4456
C12 C 0.1034(5) -0.1840(3) -0.0321(2)
O2 O 0.2432(4) -0.1610(3) 0.0161(2)
O3 O 0.0022(5) -0.1140(3) -0.0758(2)
C13 C 0.0505(7) -0.3179(4) -0.0378(2)
F1 F -0.1111(9) -0.3393(5) -0.0774(4)
F2 F 0.0452(7) -0.3674(3) 0.0274(2)
F3 F 0.1576(9) -0.3824(3) -0.0685(3)
Ag1C Ag 1.29993(4) 0.44907(3) 0.515509(17)
N2C N 0.2419(4) 0.1796(3) -0.08393(16)
loop_
_geom_bond_atom_site_label_1
_geom_bond_atom_site_label_2
_geom_bond_site_symmetry_1
_geom_bond_site_symmetry_2
Ag1 N1 1_555 1_555
O1 C6 1_555 1_555
N1 C1 1_555 1_555
N2 C7 1_555 1_555
C1 H1 1_555 1_555
C2 C1 1_555 1_555
C3 C2 1_555 1_555
H2 C3 1_555 1_555
C4 C3 1_555 1_555
H3 C4 1_555 1_555
C5 N1 1_555 1_555
H4 C5 1_555 1_555
C6 C2 1_555 1_555
C7 H5 1_555 1_555
C8 C6 1_555 1_555
C9 C8 1_555 1_555
H6 C9 1_555 1_555
C10 C9 1_555 1_555
H7 C10 1_555 1_555
C11 N2 1_555 1_555
H8 C11 1_555 1_555
C12 O2 1_555 1_555
O2 Ag1 1_555 1_555
O3 C12 1_555 1_555
C13 C12 1_555 1_555
F1 C13 1_555 1_555
F2 C13 1_555 1_555
F3 C13 1_555 1_555
Ag1C N2 1_555 1_555
N2C Ag1 1_555 1_555
C4 C5 1_555 1_555
C7 C8 1_555 1_555
C10 C11 1_555 1_555

#END
