
#######################################################################
#
#                 Cambridge Crystallographic Data Centre
#                                CCDC 
#
#######################################################################
#
# If this CIF has been generated from an entry in the Cambridge 
# Structural Database, then it will include bibliographic, chemical, 
# crystal, experimental, refinement or atomic coordinate data resulting 
# from the CCDC's data processing and validation procedures.
#
#######################################################################

data_FURSIV01
_symmetry_cell_setting           triclinic
_symmetry_space_group_name_H-M   'P -1'
_symmetry_Int_Tables_number      2
_space_group_name_Hall           '-P 1'
loop_
_symmetry_equiv_pos_site_id
_symmetry_equiv_pos_as_xyz
1 x,y,z
2 -x,-y,-z
_cell_length_a                   8.8216(17)
_cell_length_b                   9.5834(18)
_cell_length_c                   10.177(2)
_cell_angle_alpha                109.296(3)
_cell_angle_beta                 100.509(3)
_cell_angle_gamma                107.263(3)
_cell_volume                     736.964
loop_
_atom_site_label
_atom_site_type_symbol
_atom_site_fract_x
_atom_site_fract_y
_atom_site_fract_z
Ag1 Ag 0.34498(3) 0.49221(3) 0.31244(3)
N1 N 0.1343(4) 0.3609(4) 0.3840(3)
N2 N 0.3171(4) 0.3992(4) 1.0667(4)
O1 O -0.0760(4) 0.3989(3) 0.7765(3)
C1 C 0.1487(5) 0.3845(5) 0.5236(4)
H1 H 0.2558 0.4449 0.5950
C2 C 0.0128(5) 0.3241(4) 0.5684(4)
C3 C -0.1451(5) 0.2361(5) 0.4643(4)
H2 H -0.2404 0.1968 0.4926
C4 C -0.1599(5) 0.2072(5) 0.3193(4)
H3 H -0.2649 0.1449 0.2452
C5 C -0.0177(5) 0.2714(5) 0.2842(4)
H4 H -0.0284 0.2510 0.1843
C6 C 0.0294(5) 0.3614(5) 0.7268(4)
C7 C 0.2024(5) 0.4146(4) 0.9722(4)
H5 H 0.1397 0.4742 1.0103
C8 C 0.1704(5) 0.3475(4) 0.8206(4)
C9 C 0.2646(5) 0.2627(5) 0.7647(4)
H6 H 0.2471 0.2160 0.6623
C10 C 0.3848(5) 0.2482(5) 0.8628(4)
H7 H 0.4517 0.1921 0.8280
C11 C 0.4063(5) 0.3155(5) 1.0106(4)
H8 H 0.4873 0.3026 1.0759
C12 C 0.5644(5) 0.7810(5) 0.6011(4)
O2 O 0.5438(4) 0.7385(3) 0.4666(3)
O3 O 0.5028(3) 0.7060(3) 0.6695(3)
C13 C 0.6825(5) 0.9602(5) 0.6912(4)
F1 F 0.6042(3) 1.0543(3) 0.6625(3)
F2 F 0.8230(3) 0.9940(3) 0.6512(3)
C14 C 0.7398(5) 1.0179(5) 0.8576(5)
F3 F 0.6133(3) 1.0075(3) 0.9125(3)
F4 F 0.8224(3) 0.9359(3) 0.8993(3)
F5 F 0.8443(4) 1.1729(3) 0.9204(3)
Ag1_2 Ag 0.34498(3) 0.49221(3) 1.31244(3)
N2_2 N 0.3171(4) 0.3992(4) 0.0667(4)
loop_
_geom_bond_atom_site_label_1
_geom_bond_atom_site_label_2
_geom_bond_site_symmetry_1
_geom_bond_site_symmetry_2
Ag1 N1 1_555 1_555
N1 C1 1_555 1_555
N2 C7 1_555 1_555
O1 C6 1_555 1_555
C1 H1 1_555 1_555
C2 C1 1_555 1_555
C3 C2 1_555 1_555
H2 C3 1_555 1_555
C4 C3 1_555 1_555
H3 C4 1_555 1_555
C5 N1 1_555 1_555
H4 C5 1_555 1_555
C6 C2 1_555 1_555
C7 H5 1_555 1_555
C8 C6 1_555 1_555
C9 C8 1_555 1_555
H6 C9 1_555 1_555
C10 C9 1_555 1_555
H7 C10 1_555 1_555
C11 N2 1_555 1_555
H8 C11 1_555 1_555
C12 O2 1_555 1_555
O2 Ag1 1_555 1_555
O3 C12 1_555 1_555
C13 C12 1_555 1_555
F1 C13 1_555 1_555
F2 C13 1_555 1_555
C14 C13 1_555 1_555
F3 C14 1_555 1_555
F4 C14 1_555 1_555
F5 C14 1_555 1_555
Ag1_2 N2 1_555 1_555
N2_2 Ag1 1_555 1_555
C4 C5 1_555 1_555
C7 C8 1_555 1_555
C10 C11 1_555 1_555

#END
