
#######################################################################
#
#                 Cambridge Crystallographic Data Centre
#                                CCDC 
#
#######################################################################
#
# If this CIF has been generated from an entry in the Cambridge 
# Structural Database, then it will include bibliographic, chemical, 
# crystal, experimental, refinement or atomic coordinate data resulting 
# from the CCDC's data processing and validation procedures.
#
#######################################################################

data_FURSAN
_symmetry_cell_setting           rhombohedral
_symmetry_space_group_name_H-M   'R -3'
_symmetry_Int_Tables_number      148
_space_group_name_Hall           '-R 3'
loop_
_symmetry_equiv_pos_site_id
_symmetry_equiv_pos_as_xyz
1 x,y,z
2 -y,x-y,z
3 -x+y,-x,z
4 2/3+x,1/3+y,1/3+z
5 2/3-y,1/3+x-y,1/3+z
6 2/3-x+y,1/3-x,1/3+z
7 1/3+x,2/3+y,2/3+z
8 1/3-y,2/3+x-y,2/3+z
9 1/3-x+y,2/3-x,2/3+z
10 -x,-y,-z
11 y,-x+y,-z
12 x-y,x,-z
13 1/3-x,2/3-y,2/3-z
14 1/3+y,2/3-x+y,2/3-z
15 1/3+x-y,2/3+x,2/3-z
16 2/3-x,1/3-y,1/3-z
17 2/3+y,1/3-x+y,1/3-z
18 2/3+x-y,1/3+x,1/3-z
_cell_length_a                   34.769(3)
_cell_length_b                   34.769(3)
_cell_length_c                   8.3166(13)
_cell_angle_alpha                90
_cell_angle_beta                 90
_cell_angle_gamma                120
_cell_volume                     8706.85
loop_
_atom_site_label
_atom_site_type_symbol
_atom_site_fract_x
_atom_site_fract_y
_atom_site_fract_z
Ag1 Ag 0.140601(10) 0.322172(11) 0.50252(4)
O1 O 0.33467(9) 0.34367(9) 0.6861(3)
N1 N 0.20044(11) 0.34252(11) 0.6489(4)
N2 N 0.28283(12) 0.20856(11) 0.6050(4)
C1 C 0.22544(13) 0.32296(13) 0.6384(5)
H1 H 0.2155 0.2975 0.5719
C2 C 0.26522(13) 0.33870(13) 0.7216(5)
C3 C 0.27922(14) 0.37540(14) 0.8225(5)
H2 H 0.3065 0.3872 0.8793
C4 C 0.25273(15) 0.39427(14) 0.8383(5)
H3 H 0.2608 0.4184 0.9100
C5 C 0.21404(14) 0.37750(14) 0.7480(5)
H4 H 0.1965 0.3913 0.7566
C6 C 0.29474(13) 0.31926(13) 0.6981(4)
C7 C 0.29709(13) 0.25216(13) 0.6088(5)
H5 H 0.3236 0.2718 0.5530
C8 C 0.27460(13) 0.26992(13) 0.6913(4)
C9 C 0.23582(14) 0.24121(14) 0.7743(5)
H6 H 0.2198 0.2523 0.8322
C10 C 0.22130(15) 0.19630(15) 0.7699(5)
H7 H 0.1950 0.1759 0.8255
C11 C 0.24512(15) 0.18110(14) 0.6845(5)
H8 H 0.2345 0.1501 0.6817
Ag1J Ag 0.322172(11) 0.181571(15) 0.49748(4)
N2K N 0.07427(16) 0.28283(12) 0.3950(4)
C12 C 0.15576(14) 0.41334(15) 0.4539(6)
O2 O 0.16430(11) 0.39564(11) 0.3410(4)
O3 O 0.14080(13) 0.39827(13) 0.5877(4)
C13 C 0.1598(2) 0.45872(19) 0.4063(7)
F1 F 0.13028(13) 0.45400(14) 0.2854(4)
F2 F 0.15322(15) 0.47792(13) 0.5389(4)
C14 C 0.2042(3) 0.4923(2) 0.3365(9)
F3 F 0.23423(15) 0.49102(17) 0.4439(10)
F4 F 0.20857(16) 0.47903(15) 0.1889(6)
C15 C 0.2123(3) 0.5398(3) 0.3189(12)
F5 F 0.2179(3) 0.5585(2) 0.4605(13)
F6 F 0.1800(2) 0.54215(19) 0.2520(14)
F7 F 0.2490(3) 0.5644(2) 0.2424(14)
loop_
_geom_bond_atom_site_label_1
_geom_bond_atom_site_label_2
_geom_bond_site_symmetry_1
_geom_bond_site_symmetry_2
Ag1 N1 1_555 1_555
O1 C6 1_555 1_555
N1 C1 1_555 1_555
N2 C7 1_555 1_555
C1 H1 1_555 1_555
C2 C1 1_555 1_555
C3 C2 1_555 1_555
H2 C3 1_555 1_555
C4 C3 1_555 1_555
H3 C4 1_555 1_555
C5 N1 1_555 1_555
H4 C5 1_555 1_555
C6 C2 1_555 1_555
C7 H5 1_555 1_555
C8 C6 1_555 1_555
C9 C8 1_555 1_555
H6 C9 1_555 1_555
C10 C9 1_555 1_555
H7 C10 1_555 1_555
C11 N2 1_555 1_555
H8 C11 1_555 1_555
C12 O2 1_555 1_555
O3 C12 1_555 1_555
C13 C12 1_555 1_555
F1 C13 1_555 1_555
F2 C13 1_555 1_555
C14 C13 1_555 1_555
F3 C14 1_555 1_555
F4 C14 1_555 1_555
C15 C14 1_555 1_555
F5 C15 1_555 1_555
F6 C15 1_555 1_555
F7 C15 1_555 1_555
Ag1J N2 1_555 1_555
N2K Ag1 1_555 1_555
C4 C5 1_555 1_555
C7 C8 1_555 1_555
C10 C11 1_555 1_555

#END
