
#######################################################################
#
#                 Cambridge Crystallographic Data Centre
#                                CCDC 
#
#######################################################################
#
# If this CIF has been generated from an entry in the Cambridge 
# Structural Database, then it will include bibliographic, chemical, 
# crystal, experimental, refinement or atomic coordinate data resulting 
# from the CCDC's data processing and validation procedures.
#
#######################################################################

data_FURSIV
_symmetry_cell_setting           triclinic
_symmetry_space_group_name_H-M   'P -1'
_symmetry_Int_Tables_number      2
_space_group_name_Hall           '-P 1'
loop_
_symmetry_equiv_pos_site_id
_symmetry_equiv_pos_as_xyz
1 x,y,z
2 -x,-y,-z
_cell_length_a                   9.012(2)
_cell_length_b                   10.005(3)
_cell_length_c                   10.112(3)
_cell_angle_alpha                109.951(4)
_cell_angle_beta                 100.172(4)
_cell_angle_gamma                108.350(4)
_cell_volume                     771.131
loop_
_atom_site_label
_atom_site_type_symbol
_atom_site_fract_x
_atom_site_fract_y
_atom_site_fract_z
Ag1 Ag 0.34958(5) 0.49393(5) 0.31664(4)
N1 N 0.1352(5) 0.3680(5) 0.3841(4)
N2 N 0.3147(5) 0.4005(5) 1.0662(4)
O1 O -0.0700(5) 0.4005(5) 0.7780(4)
C1 C 0.1482(5) 0.3893(5) 0.5238(4)
H1 H 0.2517 0.4476 0.5954
C2 C 0.0145(5) 0.3287(5) 0.5674(5)
C3 C -0.1404(6) 0.2437(7) 0.4614(6)
H2 H -0.2332 0.2052 0.4877
C4 C -0.1536(6) 0.2176(7) 0.3159(5)
H3 H -0.2551 0.1579 0.2416
C5 C -0.0143(6) 0.2811(6) 0.2828(5)
H4 H -0.0245 0.2626 0.1844
C6 C 0.0314(6) 0.3633(5) 0.7276(5)
C7 C 0.2036(6) 0.4151(5) 0.9736(5)
H5 H 0.1460 0.4725 1.0135
C8 C 0.1681(5) 0.3498(5) 0.8201(4)
C9 C 0.2571(6) 0.2667(6) 0.7623(5)
H6 H 0.2384 0.2219 0.6606
C10 C 0.3733(7) 0.2518(6) 0.8575(5)
H7 H 0.4348 0.1974 0.8210
C11 C 0.3976(6) 0.3182(6) 1.0080(5)
H8 H 0.4746 0.3053 1.0715
C12 C 0.5637(6) 0.7765(6) 0.6032(5)
O2 O 0.5071(4) 0.7019(4) 0.6701(4)
O3 O 0.5445(5) 0.7369(4) 0.4702(4)
C13 C 0.6744(9) 0.9535(8) 0.6941(7)
F1 F 0.8217(6) 0.9896(5) 0.6544(5)
F2 F 0.5935(7) 1.0417(5) 0.6624(5)
C14 C 0.7334(11) 1.0193(9) 0.8529(9)
F3 F 0.8320(6) 1.1692(4) 0.9117(4)
F4 F 0.8206(6) 0.9360(6) 0.8897(6)
F5 F 0.6024(7) 1.0008(5) 0.9015(5)
Ag1_2 Ag 0.34958(5) 0.49393(5) 1.31664(4)
N2_2 N 0.3147(5) 0.4005(5) 0.0662(4)
loop_
_geom_bond_atom_site_label_1
_geom_bond_atom_site_label_2
_geom_bond_site_symmetry_1
_geom_bond_site_symmetry_2
Ag1 N1 1_555 1_555
N1 C1 1_555 1_555
N2 C7 1_555 1_555
O1 C6 1_555 1_555
C1 H1 1_555 1_555
C2 C1 1_555 1_555
C3 C2 1_555 1_555
H2 C3 1_555 1_555
C4 C3 1_555 1_555
H3 C4 1_555 1_555
C5 N1 1_555 1_555
H4 C5 1_555 1_555
C6 C2 1_555 1_555
C7 H5 1_555 1_555
C8 C6 1_555 1_555
C9 C8 1_555 1_555
H6 C9 1_555 1_555
C10 C9 1_555 1_555
H7 C10 1_555 1_555
C11 N2 1_555 1_555
H8 C11 1_555 1_555
C12 O2 1_555 1_555
O3 Ag1 1_555 1_555
C13 C12 1_555 1_555
F1 C13 1_555 1_555
F2 C13 1_555 1_555
C14 C13 1_555 1_555
F3 C14 1_555 1_555
F4 C14 1_555 1_555
F5 C14 1_555 1_555
Ag1_2 N2 1_555 1_555
N2_2 Ag1 1_555 1_555
C4 C5 1_555 1_555
C7 C8 1_555 1_555
C10 C11 1_555 1_555
C12 O3 1_555 1_555

#END
