
#######################################################################
#
#                 Cambridge Crystallographic Data Centre
#                                CCDC 
#
#######################################################################
#
# If this CIF has been generated from an entry in the Cambridge 
# Structural Database, then it will include bibliographic, chemical, 
# crystal, experimental, refinement or atomic coordinate data resulting 
# from the CCDC's data processing and validation procedures.
#
#######################################################################

data_FURVEU
_symmetry_cell_setting           triclinic
_symmetry_space_group_name_H-M   'P -1'
_symmetry_Int_Tables_number      2
_space_group_name_Hall           '-P 1'
loop_
_symmetry_equiv_pos_site_id
_symmetry_equiv_pos_as_xyz
1 x,y,z
2 -x,-y,-z
_cell_length_a                   11.6970(5)
_cell_length_b                   11.9128(7)
_cell_length_c                   19.5728(10)
_cell_angle_alpha                82.525(2)
_cell_angle_beta                 86.110(3)
_cell_angle_gamma                89.772(3)
_cell_volume                     2697.91
loop_
_atom_site_label
_atom_site_type_symbol
_atom_site_fract_x
_atom_site_fract_y
_atom_site_fract_z
Fe1 Fe 0.61500(5) 0.17900(5) 0.18990(3)
O1 O 0.6182(2) 0.0515(2) 0.13138(16)
O2 O 0.5968(2) 0.1113(2) 0.28961(16)
O3 O 0.5932(6) 0.2464(4) 0.4719(2)
O4 O 0.6482(5) 0.2181(4) -0.0978(2)
N1 N 0.6245(3) 0.2878(3) 0.09685(18)
N2 N 0.6135(3) 0.3355(3) 0.22710(18)
N3 N 0.4183(3) 0.1731(3) 0.19108(19)
N4 N -0.1906(3) 0.1748(3) 0.19016(19)
C1 C 0.3526(4) 0.1107(4) 0.2399(2)
H1 H 0.3894 0.0647 0.2751
C2 C 0.2338(3) 0.1086(4) 0.2425(2)
H2 H 0.1915 0.0630 0.2790
C3 C 0.1773(3) 0.1734(3) 0.1915(2)
C4 C 0.0506(3) 0.1746(3) 0.1919(2)
C5 C -0.0200(4) 0.1247(4) 0.2478(2)
H3 H 0.0127 0.0897 0.2883
C6 C -0.1368(3) 0.1260(4) 0.2442(2)
H4 H -0.1824 0.0898 0.2828
C7 C -0.1234(4) 0.2232(4) 0.1368(2)
H5 H -0.1590 0.2591 0.0975
C8 C -0.0059(4) 0.2244(4) 0.1352(2)
H6 H 0.0372 0.2594 0.0953
C9 C 0.2458(4) 0.2368(4) 0.1408(3)
H7 H 0.2115 0.2828 0.1045
C10 C 0.3622(4) 0.2345(4) 0.1422(3)
H8 H 0.4061 0.2794 0.1061
C11 C 0.6336(3) 0.0467(4) 0.0673(2)
C12 C 0.6528(4) 0.1452(4) 0.0183(2)
C13 C 0.6446(3) 0.2573(4) 0.0356(2)
H9 H 0.6550 0.3167 -0.0017
C14 C 0.6215(3) 0.4041(4) 0.1053(2)
C15 C 0.6176(3) 0.4931(4) 0.0514(2)
H10 H 0.6168 0.4768 0.0052
C16 C 0.6149(4) 0.6037(4) 0.0643(3)
H11 H 0.6100 0.6631 0.0272
C17 C 0.6192(4) 0.6288(4) 0.1305(3)
H12 H 0.6201 0.7055 0.1388
C18 C 0.6222(4) 0.5429(4) 0.1853(3)
H13 H 0.6255 0.5611 0.2310
C19 C 0.6202(3) 0.4301(4) 0.1740(2)
C20 C 0.6045(4) 0.3527(4) 0.2919(2)
H14 H 0.6091 0.4291 0.3007
C21 C 0.5886(4) 0.2688(4) 0.3506(2)
C22 C 0.5794(4) 0.1523(4) 0.3464(2)
C23 C 0.6215(4) -0.0697(4) 0.0475(2)
H15 H 0.6957 -0.1081 0.0492
H16 H 0.5957 -0.0643 0.0006
H17 H 0.5652 -0.1129 0.0799
C24 C 0.6792(5) 0.1400(5) -0.0559(3)
C25 C 0.7392(5) 0.0434(5) -0.0832(3)
H18 H 0.6829 -0.0067 -0.0989
H19 H 0.7814 0.0010 -0.0468
H20 H 0.7929 0.0720 -0.1222
C26 C 0.5417(4) 0.0655(4) 0.4068(3)
H21 H 0.5368 -0.0091 0.3911
H22 H 0.4664 0.0862 0.4263
H23 H 0.5974 0.0629 0.4421
C27 C 0.5842(6) 0.3108(6) 0.4176(3)
C28 C 0.5792(5) 0.4341(5) 0.4238(3)
H24 H 0.5746 0.4447 0.4728
H25 H 0.5114 0.4670 0.4023
H26 H 0.6483 0.4716 0.4006
Fe1_2 Fe -0.38500(5) 0.17900(5) 0.18990(3)
N4_2 N 0.8094(3) 0.1748(3) 0.19016(19)
Fe2 Fe 0.11458(5) 0.19780(5) 0.68778(3)
O5 O 0.1225(2) 0.0748(2) 0.62652(15)
O6 O 0.1003(2) 0.1249(2) 0.78617(15)
O7 O 0.1408(4) 0.0831(3) 0.4123(2)
O8 O 0.1270(3) 0.2465(3) 0.97301(17)
N5 N 0.1222(3) 0.3112(3) 0.59663(19)
N6 N 0.1141(3) 0.3506(3) 0.72921(19)
N7 N -0.0806(3) 0.1927(3) 0.68714(19)
N8 N -0.6885(3) 0.1945(3) 0.68688(18)
C29 C -0.1478(4) 0.2105(4) 0.7435(2)
H27 H -0.1116 0.2224 0.7840
C30 C -0.2654(3) 0.2126(4) 0.7457(2)
H28 H -0.3087 0.2232 0.7871
C31 C -0.3197(3) 0.1989(4) 0.6868(2)
C32 C -0.4476(3) 0.1989(4) 0.6872(2)
C33 C -0.5162(4) 0.1559(4) 0.7458(2)
H29 H -0.4825 0.1273 0.7873
C34 C -0.6330(3) 0.1553(4) 0.7426(2)
H30 H -0.6778 0.1248 0.7831
C35 C -0.5029(3) 0.2392(4) 0.6291(2)
H31 H -0.4601 0.2689 0.5878
C36 C -0.6211(4) 0.2360(4) 0.6316(2)
H32 H -0.6572 0.2653 0.5910
C37 C -0.2521(3) 0.1807(4) 0.6284(2)
H33 H -0.2860 0.1703 0.5868
C38 C -0.1339(4) 0.1778(4) 0.6317(2)
H34 H -0.0885 0.1642 0.5915
C39 C 0.1377(3) 0.0730(4) 0.5614(2)
C40 C 0.1446(4) 0.1748(4) 0.5141(2)
C41 C 0.1377(4) 0.2835(4) 0.5341(2)
H35 H 0.1451 0.3447 0.4978
C42 C 0.1189(3) 0.4266(4) 0.6082(2)
C43 C 0.1158(4) 0.5187(4) 0.5555(2)
H36 H 0.1143 0.5052 0.5088
C44 C 0.1149(4) 0.6283(4) 0.5710(3)
H37 H 0.1124 0.6899 0.5351
C45 C 0.1177(4) 0.6486(4) 0.6383(3)
H38 H 0.1189 0.7243 0.6486
C46 C 0.1188(4) 0.5596(4) 0.6913(3)
H39 H 0.1207 0.5749 0.7376
C47 C 0.1172(3) 0.4470(4) 0.6772(2)
C48 C 0.1113(3) 0.3625(4) 0.7943(2)
H40 H 0.1147 0.4383 0.8044
C49 C 0.1037(3) 0.2765(4) 0.8531(2)
C50 C 0.0918(3) 0.1604(4) 0.8444(2)
C51 C 0.1509(4) -0.0429(4) 0.5406(2)
H41 H 0.1773 -0.0949 0.5793
H42 H 0.2070 -0.0407 0.5010
H43 H 0.0769 -0.0693 0.5280
C52 C 0.1623(4) 0.1668(5) 0.4389(3)
C53 C 0.2058(6) 0.2701(5) 0.3910(3)
H44 H 0.2280 0.2485 0.3453
H45 H 0.2724 0.3017 0.4098
H46 H 0.1451 0.3271 0.3869
C54 C 0.0638(4) 0.0693(4) 0.9046(2)
H47 H 0.0162 0.0107 0.8897
H48 H 0.0222 0.1027 0.9421
H49 H 0.1350 0.0353 0.9210
C55 C 0.1059(4) 0.3120(4) 0.9215(3)
C56 C 0.0849(4) 0.4344(4) 0.9306(3)
H50 H 0.0865 0.4436 0.9795
H51 H 0.0099 0.4573 0.9143
H52 H 0.1448 0.4818 0.9037
Fe2_2 Fe -0.88542(5) 0.19780(5) 0.68778(3)
N8_2 N 0.3115(3) 0.1945(3) 0.68688(18)
O9 O 0.2217(5) 0.5377(5) 0.0948(3)
N9 N 0.2567(5) 0.5062(5) 0.2084(3)
C57 C 0.3379(12) 0.4914(14) 0.2546(7)
H53 H 0.4104 0.5243 0.2332
H54 H 0.3480 0.4103 0.2691
H55 H 0.3141 0.5289 0.2949
C58 C 0.1396(7) 0.4723(8) 0.2303(5)
H56 H 0.0907 0.4914 0.1918
H57 H 0.1124 0.5121 0.2690
H58 H 0.1365 0.3904 0.2449
C59 C 0.2884(7) 0.5334(6) 0.1407(4)
H59 H 0.3669 0.5503 0.1279
C60? C 0.2066(19) 0.5340(18) 0.3398(12)
C61? C 0.353(2) 0.500(3) 0.2714(15)
C62? C 0.160(2) 0.520(2) 0.2247(12)
H60? H 0.1282 0.5520 0.3488
H61? H 0.3774 0.4491 0.3112
H62? H 0.3901 0.5738 0.2697
H63? H 0.3744 0.4675 0.2289
H64? H 0.0856 0.5445 0.2427
H65? H 0.1525 0.4455 0.2091
H66? H 0.1892 0.5747 0.1857
N10? N 0.2389(14) 0.5123(13) 0.2776(9)
O10? O 0.2707(14) 0.5328(14) 0.3881(9)
loop_
_geom_bond_atom_site_label_1
_geom_bond_atom_site_label_2
_geom_bond_site_symmetry_1
_geom_bond_site_symmetry_2
Fe1 O1 1_555 1_555
O1 C11 1_555 1_555
O2 Fe1 1_555 1_555
O3 C27 1_555 1_555
O4 C24 1_555 1_555
N1 Fe1 1_555 1_555
N2 Fe1 1_555 1_555
N3 Fe1 1_555 1_555
N4 C6 1_555 1_555
C1 N3 1_555 1_555
H1 C1 1_555 1_555
C2 C1 1_555 1_555
H2 C2 1_555 1_555
C3 C2 1_555 1_555
C4 C3 1_555 1_555
C5 C4 1_555 1_555
H3 C5 1_555 1_555
C6 C5 1_555 1_555
H4 C6 1_555 1_555
C7 N4 1_555 1_555
H5 C7 1_555 1_555
C8 C4 1_555 1_555
H6 C8 1_555 1_555
C9 C3 1_555 1_555
H7 C9 1_555 1_555
C10 N3 1_555 1_555
H8 C10 1_555 1_555
C11 C12 1_555 1_555
C12 C13 1_555 1_555
C13 N1 1_555 1_555
H9 C13 1_555 1_555
C14 N1 1_555 1_555
C15 C14 1_555 1_555
H10 C15 1_555 1_555
C16 C15 1_555 1_555
H11 C16 1_555 1_555
C17 C16 1_555 1_555
H12 C17 1_555 1_555
C18 C17 1_555 1_555
H13 C18 1_555 1_555
C19 N2 1_555 1_555
C20 N2 1_555 1_555
H14 C20 1_555 1_555
C21 C20 1_555 1_555
C22 O2 1_555 1_555
C23 C11 1_555 1_555
H15 C23 1_555 1_555
H16 C23 1_555 1_555
H17 C23 1_555 1_555
C24 C12 1_555 1_555
C25 C24 1_555 1_555
H18 C25 1_555 1_555
H19 C25 1_555 1_555
H20 C25 1_555 1_555
C26 C22 1_555 1_555
H21 C26 1_555 1_555
H22 C26 1_555 1_555
H23 C26 1_555 1_555
C27 C21 1_555 1_555
C28 C27 1_555 1_555
H24 C28 1_555 1_555
H25 C28 1_555 1_555
H26 C28 1_555 1_555
Fe2 O5 1_555 1_555
O5 C39 1_555 1_555
O6 Fe2 1_555 1_555
O7 C52 1_555 1_555
O8 C55 1_555 1_555
N5 Fe2 1_555 1_555
N6 Fe2 1_555 1_555
N7 Fe2 1_555 1_555
N8 C34 1_555 1_555
C29 N7 1_555 1_555
H27 C29 1_555 1_555
C30 C29 1_555 1_555
H28 C30 1_555 1_555
C31 C30 1_555 1_555
C32 C31 1_555 1_555
C33 C32 1_555 1_555
H29 C33 1_555 1_555
C34 C33 1_555 1_555
H30 C34 1_555 1_555
C35 C32 1_555 1_555
H31 C35 1_555 1_555
C36 N8 1_555 1_555
H32 C36 1_555 1_555
C37 C31 1_555 1_555
H33 C37 1_555 1_555
C38 N7 1_555 1_555
H34 C38 1_555 1_555
C39 C40 1_555 1_555
C40 C41 1_555 1_555
C41 N5 1_555 1_555
H35 C41 1_555 1_555
C42 N5 1_555 1_555
C43 C42 1_555 1_555
H36 C43 1_555 1_555
C44 C43 1_555 1_555
H37 C44 1_555 1_555
C45 C44 1_555 1_555
H38 C45 1_555 1_555
C46 C45 1_555 1_555
H39 C46 1_555 1_555
C47 N6 1_555 1_555
C48 N6 1_555 1_555
H40 C48 1_555 1_555
C49 C48 1_555 1_555
C50 O6 1_555 1_555
C51 C39 1_555 1_555
H41 C51 1_555 1_555
H42 C51 1_555 1_555
H43 C51 1_555 1_555
C52 C40 1_555 1_555
C53 C52 1_555 1_555
H44 C53 1_555 1_555
H45 C53 1_555 1_555
H46 C53 1_555 1_555
C54 C50 1_555 1_555
H47 C54 1_555 1_555
H48 C54 1_555 1_555
H49 C54 1_555 1_555
C55 C49 1_555 1_555
C56 C55 1_555 1_555
H50 C56 1_555 1_555
H51 C56 1_555 1_555
H52 C56 1_555 1_555
O9 C59 1_555 1_555
N9 C57 1_555 1_555
C57 H53 1_555 1_555
H54 C57 1_555 1_555
H55 C57 1_555 1_555
C58 N9 1_555 1_555
H56 C58 1_555 1_555
H57 C58 1_555 1_555
H58 C58 1_555 1_555
C59 N9 1_555 1_555
H59 C59 1_555 1_555
Fe1_2 N4 1_555 1_555
N4_2 Fe1 1_555 1_555
Fe2_2 N8 1_555 1_555
N8_2 Fe2 1_555 1_555
C7 C8 1_555 1_555
C9 C10 1_555 1_555
C14 C19 1_555 1_555
C18 C19 1_555 1_555
C21 C22 1_555 1_555
C35 C36 1_555 1_555
C37 C38 1_555 1_555
C42 C47 1_555 1_555
C46 C47 1_555 1_555
C49 C50 1_555 1_555

#END
