
#######################################################################
#
#                 Cambridge Crystallographic Data Centre
#                                CCDC 
#
#######################################################################
#
# If this CIF has been generated from an entry in the Cambridge 
# Structural Database, then it will include bibliographic, chemical, 
# crystal, experimental, refinement or atomic coordinate data resulting 
# from the CCDC's data processing and validation procedures.
#
#######################################################################

data_FURWOF
_symmetry_cell_setting           triclinic
_symmetry_space_group_name_H-M   'P -1'
_symmetry_Int_Tables_number      2
_space_group_name_Hall           '-P 1'
loop_
_symmetry_equiv_pos_site_id
_symmetry_equiv_pos_as_xyz
1 x,y,z
2 -x,-y,-z
_cell_length_a                   11.0083(7)
_cell_length_b                   12.5277(9)
_cell_length_c                   16.1039(10)
_cell_angle_alpha                91.777(2)
_cell_angle_beta                 108.460(2)
_cell_angle_gamma                100.321(2)
_cell_volume                     2063.33
loop_
_atom_site_label
_atom_site_type_symbol
_atom_site_fract_x
_atom_site_fract_y
_atom_site_fract_z
Mn1 Mn 0.58052(8) 0.40466(7) 0.54699(5)
O1 O 0.4161(3) 0.4265(3) 0.4329(2)
C1 C 0.3148(5) 0.3439(5) 0.4039(3)
C2 C 0.1874(6) 0.3588(5) 0.3940(4)
H1 H 0.1734 0.4292 0.4042
C3 C 0.0837(6) 0.2728(5) 0.3698(4)
H2 H -0.0001 0.2849 0.3647
C4 C 0.0998(6) 0.1675(5) 0.3524(4)
C5 C 0.2257(5) 0.1550(5) 0.3577(3)
C6 C 0.3334(5) 0.2397(5) 0.3829(3)
C7 C 0.4688(5) 0.2224(5) 0.3922(3)
H3 H 0.4627 0.1501 0.3642
H4 H 0.5094 0.2768 0.3615
N1 N 0.5530(4) 0.2309(4) 0.4857(3)
C8 C 0.6866(6) 0.2181(5) 0.4901(4)
H5 H 0.6804 0.1591 0.4467
H6 H 0.7325 0.1984 0.5486
C9 C 0.7634(6) 0.3228(5) 0.4722(4)
O2 O 0.7255(4) 0.4098(3) 0.4795(3)
O3 O 0.8655(7) 0.3189(5) 0.4577(6)
C10 C 0.4924(6) 0.1569(5) 0.5369(4)
H7 H 0.5611 0.1355 0.5851
H8 H 0.4408 0.0909 0.4990
C11 C 0.4049(6) 0.2090(5) 0.5745(4)
O4 O 0.4373(4) 0.3106(3) 0.5956(2)
O5 O 0.3065(5) 0.1500(4) 0.5829(4)
C12 C -0.0015(6) 0.0724(5) 0.3344(5)
C13 C 0.0257(6) -0.0254(6) 0.3206(5)
H9 H -0.0405 -0.0879 0.3107
C14 C 0.1511(6) -0.0379(5) 0.3203(4)
C15 C -0.1356(6) 0.0827(7) 0.3343(7)
H10 H -0.1948 0.0126 0.3150
H11 H -0.1672 0.1358 0.2947
H12 H -0.1315 0.1061 0.3933
O6 O 0.2486(4) 0.0530(3) 0.3400(3)
O7 O 0.1828(4) -0.1235(4) 0.3043(3)
Mn2 Mn 0.84526(8) 0.44894(7) 0.94221(5)
O8 O 0.9851(4) 0.6040(3) 0.9813(2)
C16 C 0.9448(5) 0.6966(4) 0.9888(4)
C17 C 1.0035(6) 0.7713(5) 1.0637(4)
H13 H 1.0753 0.7571 1.1089
C18 C 0.9584(6) 0.8643(5) 1.0721(4)
H14 H 0.9995 0.9123 1.1234
C19 C 0.8532(6) 0.8897(5) 1.0068(4)
C20 C 0.7955(6) 0.8151(5) 0.9325(4)
C21 C 0.8381(5) 0.7202(5) 0.9207(4)
C22 C 0.7755(5) 0.6440(4) 0.8382(3)
H15 H 0.7163 0.6799 0.7943
H16 H 0.8437 0.6298 0.8148
N2 N 0.7016(4) 0.5392(4) 0.8510(3)
C23 C 0.6458(5) 0.4703(4) 0.7663(3)
H17 H 0.6080 0.5144 0.7194
H18 H 0.5758 0.4118 0.7696
C24 C 0.7498(5) 0.4215(4) 0.7450(4)
O9 O 0.7441(4) 0.5124(3) 1.0254(2)
O10 O 0.6058(4) 0.6193(4) 1.0316(3)
C25 C 0.6021(5) 0.5556(5) 0.8898(3)
H19 H 0.5275 0.4943 0.8689
H20 H 0.5712 0.6222 0.8706
C26 C 0.6554(5) 0.5647(5) 0.9901(4)
O11 O 0.8493(4) 0.4126(3) 0.8080(2)
O12 O 0.7329(4) 0.3925(3) 0.6669(2)
C27 C 0.8002(7) 0.9867(5) 1.0107(5)
C28 C 0.6961(8) 1.0009(6) 0.9447(5)
H21 H 0.6601 1.0627 0.9487
C29 C 0.6374(8) 0.9244(6) 0.8679(5)
C30 C 0.8601(8) 1.0689(6) 1.0901(5)
H22 H 0.8215 1.1330 1.0791
H23 H 0.9536 1.0894 1.1015
H24 H 0.8439 1.0372 1.1407
O13 O 0.6902(5) 0.8350(3) 0.8648(3)
O14 O 0.5445(6) 0.9331(5) 0.8041(4)
O15 O 0.7077(4) 0.2978(4) 0.9224(3)
H25 H 0.682(6) 0.246(4) 0.877(3)
H26 H 0.652(5) 0.293(6) 0.953(4)
Mn1A Mn 0.41948(8) 0.59534(7) 0.45301(5)
O1A O 0.5839(3) 0.5735(3) 0.5671(2)
Mn2A Mn 1.15474(8) 0.55106(7) 1.05779(5)
O8A O 1.0149(4) 0.3960(3) 1.0187(2)
Mn3 Mn 0.16670(10) 0.38729(8) 0.70252(6)
O16 O 0.3222(4) 0.4556(4) 0.6544(3)
H27 H 0.366(7) 0.400(6) 0.633(5)
H28 H 0.300(8) 0.489(6) 0.604(5)
O17 O 0.0004(5) 0.3177(4) 0.7338(4)
H29 H -0.072(8) 0.282(6) 0.669(4)
H30 H -0.040(8) 0.352(6) 0.759(4)
O18 O 0.0486(4) 0.4850(4) 0.6089(3)
H31 H 0.055(7) 0.5554(15) 0.598(4)
H32 H 0.007(7) 0.431(3) 0.566(3)
O19 O 0.1172(6) 0.2464(5) 0.6042(4)
H33 H 0.030(6) 0.197(6) 0.547(5)
H34 H 0.180(6) 0.209(6) 0.596(5)
O20 O 0.2081(4) 0.5190(3) 0.8063(2)
H35 H 0.2828 0.5247 0.8562
C31 C 0.1231(4) 0.5989(3) 0.8007(2)
H36 H 0.1585 0.6502 0.8529
H37 H 0.0360 0.5612 0.7963
H38 H 0.1190 0.6379 0.7490
O21 O 0.3018(4) 0.3118(3) 0.7999(2)
H39 H 0.3529 0.3583 0.8505
C32 C 0.3259(12) 0.2088(9) 0.8009(7)
H40 H 0.3931 0.2028 0.8556
H41 H 0.3553 0.1934 0.7519
H42 H 0.2465 0.1570 0.7959
O22 O 0.6251(5) 0.1624(4) 0.7707(3)
H43 H 0.692(5) 0.158(5) 0.750(5)
H44 H 0.582(6) 0.096(2) 0.776(5)
O23 O 0.5591(6) 0.2394(5) 1.0244(4)
H45 H 0.500(6) 0.282(5) 1.014(4)
H46 H 0.567(7) 0.208(6) 1.075(3)
O24 O 0.3446(14) 0.7371(12) 0.7749(9)
H47 H 0.371(14) 0.802(6) 0.808(8)
H48 H 0.287(12) 0.691(8) 0.793(9)
loop_
_geom_bond_atom_site_label_1
_geom_bond_atom_site_label_2
_geom_bond_site_symmetry_1
_geom_bond_site_symmetry_2
Mn1 O1 1_555 1_555
O1 C1 1_555 1_555
C1 C2 1_555 1_555
C2 H1 1_555 1_555
C3 C2 1_555 1_555
H2 C3 1_555 1_555
C4 C3 1_555 1_555
C5 C4 1_555 1_555
C6 C1 1_555 1_555
C7 C6 1_555 1_555
H3 C7 1_555 1_555
H4 C7 1_555 1_555
N1 Mn1 1_555 1_555
C8 N1 1_555 1_555
H5 C8 1_555 1_555
H6 C8 1_555 1_555
C9 C8 1_555 1_555
O2 Mn1 1_555 1_555
O3 C9 1_555 1_555
C10 N1 1_555 1_555
H7 C10 1_555 1_555
H8 C10 1_555 1_555
C11 C10 1_555 1_555
O4 Mn1 1_555 1_555
O5 C11 1_555 1_555
C12 C4 1_555 1_555
C13 C12 1_555 1_555
H9 C13 1_555 1_555
C14 C13 1_555 1_555
C15 C12 1_555 1_555
H10 C15 1_555 1_555
H11 C15 1_555 1_555
H12 C15 1_555 1_555
O6 C5 1_555 1_555
O7 C14 1_555 1_555
Mn2 O8 1_555 1_555
O8 C16 1_555 1_555
C16 C17 1_555 1_555
C17 H13 1_555 1_555
C18 C17 1_555 1_555
H14 C18 1_555 1_555
C19 C18 1_555 1_555
C20 C19 1_555 1_555
C21 C16 1_555 1_555
C22 C21 1_555 1_555
H15 C22 1_555 1_555
H16 C22 1_555 1_555
N2 Mn2 1_555 1_555
C23 N2 1_555 1_555
H17 C23 1_555 1_555
H18 C23 1_555 1_555
C24 C23 1_555 1_555
O9 Mn2 1_555 1_555
O10 C26 1_555 1_555
C25 N2 1_555 1_555
H19 C25 1_555 1_555
H20 C25 1_555 1_555
C26 O9 1_555 1_555
O11 Mn2 1_555 1_555
O12 Mn1 1_555 1_555
C27 C19 1_555 1_555
C28 C27 1_555 1_555
H21 C28 1_555 1_555
C29 C28 1_555 1_555
C30 C27 1_555 1_555
H22 C30 1_555 1_555
H23 C30 1_555 1_555
H24 C30 1_555 1_555
O13 C20 1_555 1_555
O14 C29 1_555 1_555
O15 Mn2 1_555 1_555
H25 O15 1_555 1_555
H26 O15 1_555 1_555
Mn3 O16 1_555 1_555
O16 H27 1_555 1_555
H28 O16 1_555 1_555
O17 Mn3 1_555 1_555
H29 O17 1_555 1_555
H30 O17 1_555 1_555
O18 Mn3 1_555 1_555
H31 O18 1_555 1_555
H32 O18 1_555 1_555
O19 Mn3 1_555 1_555
H33 O19 1_555 1_555
H34 O19 1_555 1_555
O20 Mn3 1_555 1_555
H35 O20 1_555 1_555
C31 O20 1_555 1_555
H36 C31 1_555 1_555
H37 C31 1_555 1_555
H38 C31 1_555 1_555
O21 Mn3 1_555 1_555
H39 O21 1_555 1_555
C32 O21 1_555 1_555
H40 C32 1_555 1_555
H41 C32 1_555 1_555
H42 C32 1_555 1_555
O22 H43 1_555 1_555
H44 O22 1_555 1_555
O23 H45 1_555 1_555
H46 O23 1_555 1_555
O24 H47 1_555 1_555
H48 O24 1_555 1_555
Mn1A O1 1_555 1_555
O1A Mn1 1_555 1_555
Mn2A O8 1_555 1_555
O8A Mn2 1_555 1_555
C5 C6 1_555 1_555
C7 N1 1_555 1_555
C9 O2 1_555 1_555
C11 O4 1_555 1_555
C14 O6 1_555 1_555
C20 C21 1_555 1_555
C22 N2 1_555 1_555
C24 O11 1_555 1_555
C24 O12 1_555 1_555
C25 C26 1_555 1_555
C29 O13 1_555 1_555
Mn1A O1A 1_555 1_555
Mn2A O8A 1_555 1_555

#END
