
#######################################################################
#
#                 Cambridge Crystallographic Data Centre
#                                CCDC 
#
#######################################################################
#
# If this CIF has been generated from an entry in the Cambridge 
# Structural Database, then it will include bibliographic, chemical, 
# crystal, experimental, refinement or atomic coordinate data resulting 
# from the CCDC's data processing and validation procedures.
#
#######################################################################

data_FUSGUV
_symmetry_cell_setting           triclinic
_symmetry_space_group_name_H-M   'P -1'
_symmetry_Int_Tables_number      2
_space_group_name_Hall           '-P 1'
loop_
_symmetry_equiv_pos_site_id
_symmetry_equiv_pos_as_xyz
1 x,y,z
2 -x,-y,-z
_cell_length_a                   11.707(2)
_cell_length_b                   12.744(5)
_cell_length_c                   9.521(2)
_cell_angle_alpha                102.60(3)
_cell_angle_beta                 101.31(2)
_cell_angle_gamma                100.29(2)
_cell_volume                     1322.46
loop_
_atom_site_label
_atom_site_type_symbol
_atom_site_fract_x
_atom_site_fract_y
_atom_site_fract_z
Zn1 Zn 0.0000 0.0000 0.0000
O1 O -0.3326(7) 0.1452(9) -0.6490(9)
O2 O 0.2259(13) 0.3502(12) 0.5472(17)
N1 N -0.1790(3) -0.0751(4) -0.0666(4)
N2 N -0.0371(3) 0.1413(4) -0.0479(5)
N3 N -0.2786(7) 0.1101(8) -0.4210(9)
N4 N -0.0171(4) 0.0721(4) 0.2517(5)
N5 N 0.1707(12) 0.2893(11) 0.7418(12)
C1 C -0.2285(4) -0.1816(5) -0.0698(6)
C2 C -0.2709(4) -0.0307(4) -0.1247(5)
C3 C -0.1489(4) 0.1584(5) -0.0991(6)
C4 C 0.0414(4) 0.2385(4) -0.0260(6)
C5 C -0.3571(5) -0.2063(5) -0.1331(7)
C6 C -0.3811(4) -0.1139(5) -0.1678(6)
C7 C -0.1367(5) 0.2699(5) -0.1053(7)
C8 C -0.0203(5) 0.3207(5) -0.0622(7)
C9 C -0.2570(4) 0.0772(4) -0.1399(5)
C10 C -0.1674(4) -0.2588(4) -0.0245(6)
C11 C -0.3682(4) 0.1089(4) -0.2127(6)
C12 C -0.3774(5) 0.1261(5) -0.3517(6)
C13 C -0.4824(5) 0.1509(6) -0.4216(7)
C14 C -0.5717(5) 0.1600(6) -0.3520(8)
C15 C -0.5624(5) 0.1428(6) -0.2147(8)
C16 C -0.4603(5) 0.1172(5) -0.1456(7)
C17 C -0.2630(9) 0.1268(10) -0.5546(12)
C18 C -0.1340(6) 0.1034(10) -0.5730(8)
C19 C -0.1209(6) 0.0638(9) 0.2864(7)
C20 C 0.0748(6) 0.1291(9) 0.3607(8)
C21 C 0.0681(7) 0.1680(10) 0.5047(8)
C22 C -0.0374(6) 0.1499(8) -0.4613(7)
C23 C 0.1632(13) 0.2868(14) 0.5971(19)
C24 C -0.2357 -0.3663 -0.0069
C25 C 0.2463 0.3823 0.8687
C26 C 0.3142 0.4807 0.8585
C27 C 0.3727 0.5647 0.9866
C28 C 0.3628 0.5497 1.1248
C29 C -0.2949 -0.4513 -0.1348
H1 H 0.3210 0.4910 0.7644
H2 H 0.4190 0.6318 0.9797
H3 H 0.4027 0.6070 1.2119
H4 H -0.2885 -0.4417 -0.2293
H5 H -0.4130 -0.2738 -0.1471
H6 H -0.4575 -0.1053 -0.2128
H7 H -0.2007 0.3032 -0.1352
H8 H 0.0143 0.3953 -0.0567
H9 H -0.4906 0.1617 -0.5185
H10 H -0.6417 0.1784 -0.3996
H11 H -0.6259 0.1484 -0.1667
H12 H -0.4538 0.1053 -0.0494
H13 H -0.1908 0.0280 0.2095
H14 H 0.1506 0.1444 0.3384
H15 H -0.0433 0.1684 -0.3611
N1A N 0.1790(3) 0.0751(4) 0.0666(4)
N2A N 0.0371(3) -0.1413(4) 0.0479(5)
N4A N 0.0171(4) -0.0721(4) -0.2517(5)
C10A C 0.1674(4) 0.2588(4) 0.0245(6)
C4A C -0.0414(4) -0.2385(4) 0.0260(6)
C19_2 C -0.1209(6) 0.0638(9) -0.7136(7)
C18_2 C -0.1340(6) 0.1034(10) 0.4270(8)
C22_2 C -0.0374(6) 0.1499(8) 0.5387(7)
C21_2 C 0.0681(7) 0.1680(10) -0.4953(8)
C25A C -0.2463 -0.3823 0.1313
C24A C 0.2357 0.3663 1.0069
C29A C 0.2949 0.4513 1.1348
C28A C -0.3628 -0.5497 -0.1248
C1A C 0.2285(4) 0.1816(5) 0.0698(6)
C2A C 0.2709(4) 0.0307(4) 0.1247(5)
C3A C 0.1489(4) -0.1584(5) 0.0991(6)
C19A C 0.1209(6) -0.0638(9) -0.2864(7)
C20A C -0.0748(6) -0.1291(9) -0.3607(8)
C24A_2 C 0.2357 0.3663 0.0069
C8A C 0.0203(5) -0.3207(5) 0.0622(7)
N5A N -0.1707(12) -0.2893(11) 0.2582(12)
C26A C -0.3142 -0.4807 0.1415
C10A_2 C 0.1674(4) 0.2588(4) 1.0245(6)
H4A H 0.2885 0.4417 1.2293
C27A C -0.3727 -0.5647 0.0134
H3A H -0.4027 -0.6070 -0.2119
C5A C 0.3571(5) 0.2063(5) 0.1331(7)
C6A C 0.3811(4) 0.1139(5) 0.1678(6)
C9A C 0.2570(4) -0.0772(4) 0.1399(5)
C7A C 0.1367(5) -0.2699(5) 0.1053(7)
C18A C 0.1340(6) -0.1034(10) -0.4270(8)
H13A H 0.1908 -0.0280 -0.2095
C21A C -0.0681(7) -0.1680(10) -0.5047(8)
H14A H -0.1506 -0.1444 -0.3384
H8A H -0.0143 -0.3953 0.0567
C23A C -0.1632(13) -0.2868(14) 0.4029(19)
H1A H -0.3210 -0.4910 0.2356
H2A H -0.4190 -0.6318 0.0203
H5A H 0.4130 0.2738 0.1471
H6A H 0.4575 0.1053 0.2128
C11A C 0.3682(4) -0.1089(4) 0.2127(6)
H7A H 0.2007 -0.3032 0.1352
C17A C 0.2630(9) -0.1268(10) -0.4454(12)
C22A C 0.0374(6) -0.1499(8) -0.5387(7)
C23A_2 C -0.1632(13) -0.2868(14) -0.5971(19)
O2A O -0.2259(13) -0.3502(12) 0.4528(17)
C21A_2 C -0.0681(7) -0.1680(10) 0.4953(8)
C12A C 0.3774(5) -0.1261(5) 0.3517(6)
C16A C 0.4603(5) -0.1172(5) 0.1456(7)
O1A O 0.3326(7) -0.1452(9) -0.3510(9)
N3A N 0.2786(7) -0.1101(8) -0.5790(9)
H15A H 0.0433 -0.1684 -0.6389
N3A_2 N 0.2786(7) -0.1101(8) 0.4210(9)
C13A C 0.4824(5) -0.1509(6) 0.4216(7)
C15A C 0.5624(5) -0.1428(6) 0.2147(8)
H12A H 0.4538 -0.1053 0.0494
C12A_2 C 0.3774(5) -0.1261(5) -0.6483(6)
C14A C 0.5717(5) -0.1600(6) 0.3520(8)
H9A H 0.4906 -0.1617 0.5185
H11A H 0.6259 -0.1484 0.1667
H10A H 0.6417 -0.1784 0.3996
C30 C 0.2466 -0.3175 0.6983
C31 C 0.2636 -0.3421 0.5543
C32 C 0.1672 -0.3940 0.4327
C33 C 0.0521 -0.4222 0.4532
C34 C 0.0341 -0.3982 0.5961
C35 C 0.1306 -0.3463 0.7175
loop_
_geom_bond_atom_site_label_1
_geom_bond_atom_site_label_2
_geom_bond_site_symmetry_1
_geom_bond_site_symmetry_2
Zn1 N1 1_555 1_555
O1 C17 1_555 1_555
O2 C23 1_555 1_555
N1 C1 1_555 1_555
N2 Zn1 1_555 1_555
N3 C12 1_555 1_555
N4 Zn1 1_555 1_555
N5 C23 1_555 1_555
C1 C5 1_555 1_555
C2 N1 1_555 1_555
C3 N2 1_555 1_555
C4 N2 1_555 1_555
C5 C6 1_555 1_555
C6 C2 1_555 1_555
C7 C3 1_555 1_555
C8 C4 1_555 1_555
C9 C2 1_555 1_555
C10 C1 1_555 1_555
C11 C9 1_555 1_555
C12 C11 1_555 1_555
C13 C12 1_555 1_555
C14 C13 1_555 1_555
C15 C14 1_555 1_555
C16 C11 1_555 1_555
C17 N3 1_555 1_555
C18 C17 1_555 1_555
C19 N4 1_555 1_555
C20 N4 1_555 1_555
C21 C20 1_555 1_555
C22 C18 1_555 1_555
C23 C21 1_555 1_555
C24 C10 1_555 1_555
C25 N5 1_555 1_555
C26 C25 1_555 1_555
C27 C26 1_555 1_555
C28 C27 1_555 1_555
C29 C24 1_555 1_555
H1 C26 1_555 1_555
H2 C27 1_555 1_555
H3 C28 1_555 1_555
H4 C29 1_555 1_555
H5 C5 1_555 1_555
H6 C6 1_555 1_555
H7 C7 1_555 1_555
H8 C8 1_555 1_555
H9 C13 1_555 1_555
H10 C14 1_555 1_555
H11 C15 1_555 1_555
H12 C16 1_555 1_555
H13 C19 1_555 1_555
H14 C20 1_555 1_555
H15 C22 1_555 1_555
C30 C31 1_555 1_555
C31 C32 1_555 1_555
C32 C33 1_555 1_555
C33 C34 1_555 1_555
C34 C35 1_555 1_555
C35 C30 1_555 1_555
N1A Zn1 1_555 1_555
N2A Zn1 1_555 1_555
N4A Zn1 1_555 1_555
C10A C4 1_555 1_555
C4A C10 1_555 1_555
C19_2 C18 1_555 1_555
C18_2 C19 1_555 1_555
C22_2 C21 1_555 1_555
C21_2 C22 1_555 1_555
C25A C24 1_555 1_555
C24A C25 1_555 1_555
C29A C28 1_555 1_555
C28A C29 1_555 1_555
C1A N1A 1_555 1_555
C2A N1A 1_555 1_555
C3A N2A 1_555 1_555
C19A N4A 1_555 1_555
C20A N4A 1_555 1_555
C24A_2 C10A 1_555 1_555
C8A C4A 1_555 1_555
N5A C25A 1_555 1_555
C26A C25A 1_555 1_555
C10A_2 C24A 1_555 1_555
H4A C29A 1_555 1_555
C27A C28A 1_555 1_555
H3A C28A 1_555 1_555
C5A C1A 1_555 1_555
C6A C2A 1_555 1_555
C9A C2A 1_555 1_555
C7A C3A 1_555 1_555
C18A C19A 1_555 1_555
H13A C19A 1_555 1_555
C21A C20A 1_555 1_555
H14A C20A 1_555 1_555
H8A C8A 1_555 1_555
C23A N5A 1_555 1_555
H1A C26A 1_555 1_555
H2A C27A 1_555 1_555
H5A C5A 1_555 1_555
H6A C6A 1_555 1_555
C11A C9A 1_555 1_555
H7A C7A 1_555 1_555
C17A C18A 1_555 1_555
C22A C18A 1_555 1_555
C23A_2 C21A 1_555 1_555
O2A C23A 1_555 1_555
C21A_2 C23A 1_555 1_555
C12A C11A 1_555 1_555
C16A C11A 1_555 1_555
O1A C17A 1_555 1_555
N3A C17A 1_555 1_555
H15A C22A 1_555 1_555
N3A_2 C12A 1_555 1_555
C13A C12A 1_555 1_555
C15A C16A 1_555 1_555
H12A C16A 1_555 1_555
C12A_2 N3A 1_555 1_555
C14A C13A 1_555 1_555
H9A C13A 1_555 1_555
H11A C15A 1_555 1_555
H10A C14A 1_555 1_555
C3 C9 1_555 1_555
C7 C8 1_555 1_555
C15 C16 1_555 1_555
N2A C4A 1_555 1_555
C10A C1A 1_555 1_555
C24A C29A 1_555 1_555
C3A C9A 1_555 1_555
C8A C7A 1_555 1_555
C26A C27A 1_555 1_555
C5A C6A 1_555 1_555
C21A C22A 1_555 1_555
C15A C14A 1_555 1_555

#END
