
#######################################################################
#
#                 Cambridge Crystallographic Data Centre
#                                CCDC 
#
#######################################################################
#
# If this CIF has been generated from an entry in the Cambridge 
# Structural Database, then it will include bibliographic, chemical, 
# crystal, experimental, refinement or atomic coordinate data resulting 
# from the CCDC's data processing and validation procedures.
#
#######################################################################

data_FUSHOQ
_symmetry_cell_setting           monoclinic
_symmetry_space_group_name_H-M   'P 21/n'
_symmetry_Int_Tables_number      14
_space_group_name_Hall           '-P 2yn'
loop_
_symmetry_equiv_pos_site_id
_symmetry_equiv_pos_as_xyz
1 x,y,z
2 1/2-x,1/2+y,1/2-z
3 -x,-y,-z
4 1/2+x,1/2-y,1/2+z
_cell_length_a                   27.390(19)
_cell_length_b                   5.7709(8)
_cell_length_c                   5.8733(9)
_cell_angle_alpha                90
_cell_angle_beta                 90.35(3)
_cell_angle_gamma                90
_cell_volume                     928.346
loop_
_atom_site_label
_atom_site_type_symbol
_atom_site_fract_x
_atom_site_fract_y
_atom_site_fract_z
Cd1 Cd 0.00000 0.00000 0.00000
S1 S 0.06830(4) 0.23222(21) 0.25955(17)
N1 N -0.0218(1) -0.2299(6) 0.3184(5)
N2 N 0.0595(1) -0.2673(6) -0.0801(6)
C1 C 0.0398(1) 0.2299(6) 0.5066(6)
C2 C 0.1071(2) -0.1842(8) -0.1667(9)
C3 C 0.1467(1) -0.3615(7) -0.1444(7)
C4 C 0.1535(2) -0.5240(8) -0.3124(9)
C5 C 0.1891(2) -0.6951(9) -0.2883(11)
C6 C 0.2179(2) -0.7046(10) -0.0961(12)
C7 C 0.2115(2) -0.5458(12) 0.0695(11)
C8 C 0.1753(2) -0.3717(10) 0.0479(9)
H1 H 0.118 -0.031 -0.071
H2 H 0.103 -0.140 -0.346
H3 H 0.131 -0.517 -0.464
H4 H 0.195 -0.822 -0.421
H5 H 0.245 -0.837 -0.075
H6 H 0.235 -0.558 0.217
H7 H 0.169 -0.245 0.180
S1B S -0.06830(4) -0.23222(21) -0.25955(17)
N1B N 0.0218(1) 0.2299(6) -0.3184(5)
N2B N -0.0595(1) 0.2673(6) 0.0801(6)
N1B_2 N 0.0218(1) 0.2299(6) 0.6816(5)
C1B C -0.0398(1) -0.2299(6) 0.4934(6)
C2B C -0.1071(2) 0.1842(8) 0.1667(9)
C3B C -0.1467(1) 0.3615(7) 0.1444(7)
H1B H -0.118 0.031 0.071
H2B H -0.103 0.140 0.346
C4B C -0.1535(2) 0.5240(8) 0.3124(9)
C8B C -0.1753(2) 0.3717(10) -0.0479(9)
C5B C -0.1891(2) 0.6951(9) 0.2883(11)
H3B H -0.131 0.517 0.464
C7B C -0.2115(2) 0.5458(12) -0.0695(11)
H7B H -0.169 0.245 -0.180
C6B C -0.2179(2) 0.7046(10) 0.0961(12)
H4B H -0.195 0.822 0.421
H6B H -0.235 0.558 -0.217
H5B H -0.245 0.837 0.075
Cd1_2 Cd 0.00000 0.00000 1.00000
S1B_2 S -0.06830(4) -0.23222(21) 0.74045(17)
loop_
_geom_bond_atom_site_label_1
_geom_bond_atom_site_label_2
_geom_bond_site_symmetry_1
_geom_bond_site_symmetry_2
Cd1 S1 1_555 1_555
S1 C1 1_555 1_555
N1 Cd1 1_555 1_555
N2 Cd1 1_555 1_555
C1 N1B_2 1_555 1_555
C2 N2 1_555 1_555
C3 C2 1_555 1_555
C4 C3 1_555 1_555
C5 C4 1_555 1_555
C6 C5 1_555 1_555
C7 C6 1_555 1_555
C8 C3 1_555 1_555
H1 C2 1_555 1_555
H2 C2 1_555 1_555
H3 C4 1_555 1_555
H4 C5 1_555 1_555
H5 C6 1_555 1_555
H6 C7 1_555 1_555
H7 C8 1_555 1_555
S1B Cd1 1_555 1_555
N1B Cd1 1_555 1_555
N2B Cd1 1_555 1_555
N1B_2 Cd1_2 1_555 1_555
C1B N1 1_555 1_555
C2B N2B 1_555 1_555
C3B C2B 1_555 1_555
H1B C2B 1_555 1_555
H2B C2B 1_555 1_555
C4B C3B 1_555 1_555
C8B C3B 1_555 1_555
C5B C4B 1_555 1_555
H3B C4B 1_555 1_555
C7B C8B 1_555 1_555
H7B C8B 1_555 1_555
C6B C5B 1_555 1_555
H4B C5B 1_555 1_555
H6B C7B 1_555 1_555
H5B C6B 1_555 1_555
Cd1_2 S1B_2 1_555 1_555
S1B_2 C1B 1_555 1_555
C7 C8 1_555 1_555
C7B C6B 1_555 1_555

#END
