
#######################################################################
#
#                 Cambridge Crystallographic Data Centre
#                                CCDC 
#
#######################################################################
#
# If this CIF has been generated from an entry in the Cambridge 
# Structural Database, then it will include bibliographic, chemical, 
# crystal, experimental, refinement or atomic coordinate data resulting 
# from the CCDC's data processing and validation procedures.
#
#######################################################################

data_FUSLUB
_symmetry_cell_setting           monoclinic
_symmetry_space_group_name_H-M   'P 21'
_symmetry_Int_Tables_number      4
_space_group_name_Hall           'P 2yb'
loop_
_symmetry_equiv_pos_site_id
_symmetry_equiv_pos_as_xyz
1 x,y,z
2 -x,1/2+y,-z
_cell_length_a                   13.023(3)
_cell_length_b                   7.3952(15)
_cell_length_c                   16.597(3)
_cell_angle_alpha                90
_cell_angle_beta                 106.31(3)
_cell_angle_gamma                90
_cell_volume                     1534.09
loop_
_atom_site_label
_atom_site_type_symbol
_atom_site_fract_x
_atom_site_fract_y
_atom_site_fract_z
Cu1 Cu 0.07721(8) -0.06371(12) 0.53461(6)
Cu2 Cu -0.41940(8) 0.03288(13) 0.03258(6)
O1 O -0.4438(4) -0.0550(12) 0.1355(3)
O2 O -0.0681(5) -0.0056(11) 0.4708(3)
O3 O -0.1511(6) -0.2478(12) 0.5001(4)
O4 O 0.0546(4) 0.0200(11) 0.6362(3)
O5 O 0.4372(5) -0.0214(12) 0.9673(4)
O6 O 0.3431(6) 0.2027(11) 1.0031(4)
N1 N -0.3940(6) 0.1404(11) -0.0706(4)
H1 H -0.4030 0.0549 -0.1105
H2 H -0.4422 0.2287 -0.0902
N2 N -0.2661(5) 0.0664(11) 0.0807(4)
N3 N 0.1061(6) -0.1499(13) 0.4280(4)
H3 H 0.0830 -0.2643 0.4167
H4 H 0.0720 -0.0791 0.3847
N4 N 0.2243(5) -0.1340(11) 0.5866(4)
C1 C -0.2844(6) 0.2159(13) -0.0524(5)
H5 H -0.2848 0.3370 -0.0285
C2 C -0.2432(8) 0.2319(18) -0.1297(6)
H6 H -0.2894 0.3106 -0.1711
H7 H -0.2417 0.1139 -0.1549
C3 C -0.1290(9) 0.3115(17) -0.1000(6)
H8 H -0.1001 0.3209 -0.1476
H9 H -0.1328 0.4326 -0.0784
C4 C -0.0531(8) 0.1969(19) -0.0315(6)
H10 H 0.0164 0.2550 -0.0137
H11 H -0.0439 0.0790 -0.0542
C5 C -0.2120(6) 0.0946(12) 0.0150(4)
H12 H -0.2070 -0.0231 -0.0109
C6 C -0.2164(6) 0.0483(13) 0.1599(5)
H13 H -0.1432 0.0706 0.1765
C7 C -0.2644(6) -0.0023(12) 0.2229(5)
C8 C -0.3708(6) -0.0648(16) 0.2079(5)
C9 C -0.4011(7) -0.1370(15) 0.2774(5)
H14 H -0.4717 -0.1731 0.2695
C10 C -0.3304(7) -0.1555(15) 0.3552(5)
H15 H -0.3524 -0.2066 0.3988
C11 C -0.2259(7) -0.0976(13) 0.3686(5)
C12 C -0.1925(7) -0.0232(14) 0.3077(5)
H16 H -0.1220 0.0164 0.3191
C13 C -0.1439(7) -0.1225(14) 0.4537(5)
C14 C 0.2217(7) -0.1404(13) 0.4409(5)
H17 H 0.2430 -0.0131 0.4418
C15 C 0.2630(9) -0.240(2) 0.3766(6)
H18 H 0.2414 -0.3661 0.3754
H19 H 0.2299 -0.1894 0.3215
C16 C 0.3826(9) -0.2315(17) 0.3938(6)
H20 H 0.4047 -0.3027 0.3525
H21 H 0.4047 -0.1074 0.3898
C17 C 0.4345(8) -0.304(2) 0.4800(6)
H22 H 0.5113 -0.2873 0.4929
H23 H 0.4204 -0.4323 0.4809
C18 C 0.3947(7) -0.2111(16) 0.5469(6)
H24 H 0.4166 -0.0853 0.5515
H25 H 0.4260 -0.2686 0.6008
C19 C 0.2735(6) -0.2224(12) 0.5251(5)
H26 H 0.2540 -0.3508 0.5221
C20 C 0.2738(6) -0.1192(11) 0.6622(5)
H27 H 0.3432 -0.1641 0.6790
C21 C 0.2322(6) -0.0368(15) 0.7275(5)
C22 C 0.1239(6) 0.0245(15) 0.7116(5)
C23 C 0.0955(6) 0.0994(15) 0.7776(5)
H28 H 0.0252 0.1373 0.7695
C24 C 0.1683(7) 0.1207(15) 0.8566(5)
H29 H 0.1468 0.1788 0.8989
C25 C 0.2733(6) 0.0557(14) 0.8732(5)
C26 C 0.3007(6) -0.0239(11) 0.8056(5)
H30 H 0.3694 -0.0703 0.8147
C27 C 0.3574(8) 0.0827(13) 0.9544(5)
C28 C -0.0982(7) 0.1736(16) 0.0451(6)
H31 H -0.0525 0.0930 0.0858
H32 H -0.1001 0.2897 0.0718
Cu2_2 Cu 0.58060(8) 0.03288(13) 1.03258(6)
O5_2 O -0.5628(5) -0.0214(12) -0.0327(4)
C29 C 0.8378(17) -0.204(3) 0.7765(12)
C30 C 0.8384(18) -0.187(3) 0.6859(13)
O7 O 0.9290(12) -0.304(3) 0.6733(9)
O8 O 0.584(2) -0.250(5) 0.8337(15)
C31 C 0.6620(15) -0.256(3) 0.7902(12)
C32 C 0.6582(16) -0.214(3) 0.7004(11)
O9? O 0.5623(19) -0.157(4) 0.7970(16)
loop_
_geom_bond_atom_site_label_1
_geom_bond_atom_site_label_2
_geom_bond_site_symmetry_1
_geom_bond_site_symmetry_2
Cu1 O2 1_555 1_555
Cu2 O1 1_555 1_555
O1 C8 1_555 1_555
O2 C13 1_555 1_555
O3 C13 1_555 1_555
O4 Cu1 1_555 1_555
O5 C27 1_555 1_555
O6 C27 1_555 1_555
N1 Cu2 1_555 1_555
H1 N1 1_555 1_555
H2 N1 1_555 1_555
N2 Cu2 1_555 1_555
N3 Cu1 1_555 1_555
H3 N3 1_555 1_555
H4 N3 1_555 1_555
N4 Cu1 1_555 1_555
C1 N1 1_555 1_555
H5 C1 1_555 1_555
C2 C1 1_555 1_555
H6 C2 1_555 1_555
H7 C2 1_555 1_555
C3 C2 1_555 1_555
H8 C3 1_555 1_555
H9 C3 1_555 1_555
C4 C3 1_555 1_555
H10 C4 1_555 1_555
H11 C4 1_555 1_555
C5 N2 1_555 1_555
H12 C5 1_555 1_555
C6 N2 1_555 1_555
H13 C6 1_555 1_555
C7 C6 1_555 1_555
C8 C7 1_555 1_555
C9 C8 1_555 1_555
H14 C9 1_555 1_555
C10 C9 1_555 1_555
H15 C10 1_555 1_555
C11 C10 1_555 1_555
C12 C7 1_555 1_555
H16 C12 1_555 1_555
C13 C11 1_555 1_555
C14 N3 1_555 1_555
H17 C14 1_555 1_555
C15 C14 1_555 1_555
H18 C15 1_555 1_555
H19 C15 1_555 1_555
C16 C15 1_555 1_555
H20 C16 1_555 1_555
H21 C16 1_555 1_555
C17 C16 1_555 1_555
H22 C17 1_555 1_555
H23 C17 1_555 1_555
C18 C17 1_555 1_555
H24 C18 1_555 1_555
H25 C18 1_555 1_555
C19 N4 1_555 1_555
H26 C19 1_555 1_555
C20 N4 1_555 1_555
H27 C20 1_555 1_555
C21 C20 1_555 1_555
C22 O4 1_555 1_555
C23 C22 1_555 1_555
H28 C23 1_555 1_555
C24 C23 1_555 1_555
H29 C24 1_555 1_555
C25 C24 1_555 1_555
C26 C21 1_555 1_555
H30 C26 1_555 1_555
C27 C25 1_555 1_555
C28 C4 1_555 1_555
H31 C28 1_555 1_555
H32 C28 1_555 1_555
C29 C30 1_555 1_555
C30 O7 1_555 1_555
O8 C31 1_555 1_555
C31 C32 1_555 1_555
Cu2_2 O5 1_555 1_555
O5_2 Cu2 1_555 1_555
C1 C5 1_555 1_555
C5 C28 1_555 1_555
C11 C12 1_555 1_555
C14 C19 1_555 1_555
C18 C19 1_555 1_555
C21 C22 1_555 1_555
C25 C26 1_555 1_555

#END
