
#######################################################################
#
#                 Cambridge Crystallographic Data Centre
#                                CCDC 
#
#######################################################################
#
# If this CIF has been generated from an entry in the Cambridge 
# Structural Database, then it will include bibliographic, chemical, 
# crystal, experimental, refinement or atomic coordinate data resulting 
# from the CCDC's data processing and validation procedures.
#
#######################################################################

data_FUSMEM
_symmetry_cell_setting           rhombohedral
_symmetry_space_group_name_H-M   'R -3'
_symmetry_Int_Tables_number      148
_space_group_name_Hall           '-R 3'
loop_
_symmetry_equiv_pos_site_id
_symmetry_equiv_pos_as_xyz
1 x,y,z
2 -y,x-y,z
3 -x+y,-x,z
4 2/3+x,1/3+y,1/3+z
5 2/3-y,1/3+x-y,1/3+z
6 2/3-x+y,1/3-x,1/3+z
7 1/3+x,2/3+y,2/3+z
8 1/3-y,2/3+x-y,2/3+z
9 1/3-x+y,2/3-x,2/3+z
10 -x,-y,-z
11 y,-x+y,-z
12 x-y,x,-z
13 1/3-x,2/3-y,2/3-z
14 1/3+y,2/3-x+y,2/3-z
15 1/3+x-y,2/3+x,2/3-z
16 2/3-x,1/3-y,1/3-z
17 2/3+y,1/3-x+y,1/3-z
18 2/3+x-y,1/3+x,1/3-z
_cell_length_a                   33.453(3)
_cell_length_b                   33.453(3)
_cell_length_c                   8.4275(12)
_cell_angle_alpha                90
_cell_angle_beta                 90
_cell_angle_gamma                120
_cell_volume                     8167.7
loop_
_atom_site_label
_atom_site_type_symbol
_atom_site_fract_x
_atom_site_fract_y
_atom_site_fract_z
Ag1 Ag 0.147058(8) 0.321810(9) 0.50263(3)
O1 O 0.33491(7) 0.33006(7) 0.7924(2)
N1 N 0.20605(9) 0.34242(9) 0.6615(3)
N2 N 0.27857(9) 0.19738(9) 0.6182(3)
C1 C 0.21847(11) 0.37789(11) 0.7602(4)
H1 H 0.2018 0.3940 0.7572
C2 C 0.25446(11) 0.39209(11) 0.8664(4)
H2 H 0.2621 0.4172 0.9360
C3 C 0.27909(11) 0.36936(10) 0.8700(4)
H3 H 0.3045 0.3790 0.9404
C4 C 0.26631(10) 0.33225(10) 0.7697(3)
C5 C 0.22944(10) 0.31975(10) 0.6675(3)
H4 H 0.2205 0.2941 0.5991
C6 C 0.29388(10) 0.30853(10) 0.7665(3)
C7 C 0.27083(10) 0.25845(10) 0.7321(3)
C8 C 0.22695(11) 0.22745(11) 0.7858(4)
H5 H 0.2092 0.2377 0.8430
C9 C 0.20962(12) 0.18099(12) 0.7536(4)
H6 H 0.1797 0.1587 0.7891
C10 C 0.23600(11) 0.16772(11) 0.6704(4)
H7 H 0.2236 0.1358 0.6485
C11 C 0.29543(10) 0.24189(10) 0.6509(3)
H8 H 0.3259 0.2633 0.6168
Ag1J Ag 0.321810(9) 0.174752(12) 0.49737(3)
N2K N 0.08119(13) 0.27857(9) 0.3818(3)
C12 C 0.15379(11) 0.41398(12) 0.4486(4)
O2 O 0.15432(9) 0.39517(10) 0.3241(3)
O3 O 0.14579(10) 0.39872(10) 0.5837(3)
C13 C 0.16693(14) 0.46460(14) 0.4281(5)
F1 F 0.15578(9) 0.48173(8) 0.5511(3)
F2 F 0.21216(9) 0.49099(8) 0.4070(4)
F3 F 0.14635(11) 0.47054(11) 0.3020(3)
O4 O 0.0941(5) 0.0164(6) 0.2530(16)
C14 C 0.1207(4) 0.0381(5) 0.3878(12)
H9 H 0.1243 0.0155 0.4530
H10 H 0.1054 0.0511 0.4530
C15 C 0.1666(4) 0.0755(3) 0.3347(10)
H11 H 0.1727 0.1057 0.3757
H12 H 0.1914 0.0698 0.3723
C16 C 0.1644(4) 0.0746(3) 0.1588(10)
H13 H 0.1748 0.1058 0.1162
H14 H 0.1842 0.0631 0.1141
C17 C 0.1156(4) 0.0429(6) 0.1195(14)
H15 H 0.1005 0.0608 0.0883
H16 H 0.1132 0.0228 0.0297
loop_
_geom_bond_atom_site_label_1
_geom_bond_atom_site_label_2
_geom_bond_site_symmetry_1
_geom_bond_site_symmetry_2
Ag1 N1 1_555 1_555
O1 C6 1_555 1_555
N1 C1 1_555 1_555
N2 C10 1_555 1_555
C1 H1 1_555 1_555
C2 C1 1_555 1_555
H2 C2 1_555 1_555
C3 C2 1_555 1_555
H3 C3 1_555 1_555
C4 C3 1_555 1_555
C5 N1 1_555 1_555
H4 C5 1_555 1_555
C6 C4 1_555 1_555
C7 C6 1_555 1_555
C8 C7 1_555 1_555
H5 C8 1_555 1_555
C9 C8 1_555 1_555
H6 C9 1_555 1_555
C10 C9 1_555 1_555
H7 C10 1_555 1_555
C11 N2 1_555 1_555
H8 C11 1_555 1_555
C12 O2 1_555 1_555
O3 C12 1_555 1_555
C13 C12 1_555 1_555
F1 C13 1_555 1_555
F2 C13 1_555 1_555
F3 C13 1_555 1_555
O4 C14 1_555 1_555
C14 H9 1_555 1_555
H10 C14 1_555 1_555
C15 C14 1_555 1_555
H11 C15 1_555 1_555
H12 C15 1_555 1_555
C16 C15 1_555 1_555
H13 C16 1_555 1_555
H14 C16 1_555 1_555
C17 O4 1_555 1_555
H15 C17 1_555 1_555
H16 C17 1_555 1_555
Ag1J N2 1_555 1_555
N2K Ag1 1_555 1_555
C4 C5 1_555 1_555
C7 C11 1_555 1_555
C16 C17 1_555 1_555

#END
