
#######################################################################
#
#                 Cambridge Crystallographic Data Centre
#                                CCDC 
#
#######################################################################
#
# If this CIF has been generated from an entry in the Cambridge 
# Structural Database, then it will include bibliographic, chemical, 
# crystal, experimental, refinement or atomic coordinate data resulting 
# from the CCDC's data processing and validation procedures.
#
#######################################################################

data_FUSNAJ
_symmetry_cell_setting           rhombohedral
_symmetry_space_group_name_H-M   'R -3'
_symmetry_Int_Tables_number      148
_space_group_name_Hall           '-R 3'
loop_
_symmetry_equiv_pos_site_id
_symmetry_equiv_pos_as_xyz
1 x,y,z
2 -y,x-y,z
3 -x+y,-x,z
4 2/3+x,1/3+y,1/3+z
5 2/3-y,1/3+x-y,1/3+z
6 2/3-x+y,1/3-x,1/3+z
7 1/3+x,2/3+y,2/3+z
8 1/3-y,2/3+x-y,2/3+z
9 1/3-x+y,2/3-x,2/3+z
10 -x,-y,-z
11 y,-x+y,-z
12 x-y,x,-z
13 1/3-x,2/3-y,2/3-z
14 1/3+y,2/3-x+y,2/3-z
15 1/3+x-y,2/3+x,2/3-z
16 2/3-x,1/3-y,1/3-z
17 2/3+y,1/3-x+y,1/3-z
18 2/3+x-y,1/3+x,1/3-z
_cell_length_a                   34.471(6)
_cell_length_b                   34.471(6)
_cell_length_c                   8.463(2)
_cell_angle_alpha                90
_cell_angle_beta                 90
_cell_angle_gamma                120
_cell_volume                     8708.89
loop_
_atom_site_label
_atom_site_type_symbol
_atom_site_fract_x
_atom_site_fract_y
_atom_site_fract_z
Ag1 Ag 0.145703(15) 0.318468(18) 0.50522(7)
O1 O 0.33385(12) 0.32890(14) 0.7573(5)
N1 N 0.20490(15) 0.33842(15) 0.6550(5)
N2 N 0.27686(17) 0.19766(16) 0.6070(6)
C1 C 0.21891(19) 0.37387(19) 0.7508(7)
H1 H 0.2026 0.3887 0.7533
C2 C 0.2557(2) 0.3894(2) 0.8446(8)
H2 H 0.2643 0.4142 0.9089
C3 C 0.2802(2) 0.36750(19) 0.8430(7)
H3 H 0.3057 0.3776 0.9054
C4 C 0.26623(17) 0.33015(17) 0.7465(6)
C5 C 0.22835(17) 0.31697(18) 0.6541(6)
H4 H 0.2188 0.2922 0.5887
C6 C 0.29322(18) 0.30746(18) 0.7381(6)
C7 C 0.27085(18) 0.25862(19) 0.7109(6)
C8 C 0.2290(2) 0.2291(2) 0.7719(8)
H5 H 0.2127 0.2394 0.8272
C9 C 0.2123(2) 0.1839(2) 0.7484(10)
H6 H 0.1845 0.1633 0.7897
C10 C 0.2364(2) 0.1698(2) 0.6651(9)
H7 H 0.2241 0.1392 0.6477
C11 C 0.29337(19) 0.24115(18) 0.6316(6)
H8 H 0.3218 0.2609 0.5929
Ag1J Ag 0.318468(18) 0.172765(23) 0.49478(7)
N2K N 0.07920(23) 0.27686(17) 0.3930(6)
C12 C 0.1532(2) 0.4098(3) 0.4628(10)
O2 O 0.15530(19) 0.3904(2) 0.3488(8)
O3 O 0.1440(3) 0.3963(2) 0.5957(9)
C13 C 0.1648(4) 0.4582(4) 0.4345(15)
F1 F 0.1542(2) 0.4765(2) 0.5470(8)
F2 F 0.2061(3) 0.4848(2) 0.3984(15)
F3 F 0.1386(4) 0.4585(4) 0.3153(10)
O4 O 0.1338(19) 0.063(2) 0.402(7)
C14 C 0.1737(19) 0.082(2) 0.327(8)
C15? C 0.142(3) 0.075(2) 0.211(10)
C16? C 0.2093(19) 0.0911(19) 0.324(7)
C17? C 0.143(3) 0.065(3) 0.048(10)
O5? O 0.122(2) 0.036(2) 0.290(9)
O6? O 0.1757(18) 0.0802(17) 0.219(7)
O7? O 0.121(2) 0.033(2) 0.156(10)
loop_
_geom_bond_atom_site_label_1
_geom_bond_atom_site_label_2
_geom_bond_site_symmetry_1
_geom_bond_site_symmetry_2
Ag1 N1 1_555 1_555
O1 C6 1_555 1_555
N1 C1 1_555 1_555
N2 C10 1_555 1_555
C1 H1 1_555 1_555
C2 C1 1_555 1_555
H2 C2 1_555 1_555
C3 C2 1_555 1_555
H3 C3 1_555 1_555
C4 C3 1_555 1_555
C5 N1 1_555 1_555
H4 C5 1_555 1_555
C6 C4 1_555 1_555
C7 C6 1_555 1_555
C8 C7 1_555 1_555
H5 C8 1_555 1_555
C9 C8 1_555 1_555
H6 C9 1_555 1_555
C10 C9 1_555 1_555
H7 C10 1_555 1_555
C11 N2 1_555 1_555
H8 C11 1_555 1_555
C12 O2 1_555 1_555
O3 C12 1_555 1_555
C13 C12 1_555 1_555
F1 C13 1_555 1_555
F2 C13 1_555 1_555
F3 C13 1_555 1_555
O4 C14 1_555 1_555
Ag1J N2 1_555 1_555
N2K Ag1 1_555 1_555
C4 C5 1_555 1_555
C7 C11 1_555 1_555

#END
