
#######################################################################
#
#                 Cambridge Crystallographic Data Centre
#                                CCDC 
#
#######################################################################
#
# If this CIF has been generated from an entry in the Cambridge 
# Structural Database, then it will include bibliographic, chemical, 
# crystal, experimental, refinement or atomic coordinate data resulting 
# from the CCDC's data processing and validation procedures.
#
#######################################################################

data_FUSNIR
_symmetry_cell_setting           rhombohedral
_symmetry_space_group_name_H-M   'R -3'
_symmetry_Int_Tables_number      148
_space_group_name_Hall           '-R 3'
loop_
_symmetry_equiv_pos_site_id
_symmetry_equiv_pos_as_xyz
1 x,y,z
2 -y,x-y,z
3 -x+y,-x,z
4 2/3+x,1/3+y,1/3+z
5 2/3-y,1/3+x-y,1/3+z
6 2/3-x+y,1/3-x,1/3+z
7 1/3+x,2/3+y,2/3+z
8 1/3-y,2/3+x-y,2/3+z
9 1/3-x+y,2/3-x,2/3+z
10 -x,-y,-z
11 y,-x+y,-z
12 x-y,x,-z
13 1/3-x,2/3-y,2/3-z
14 1/3+y,2/3-x+y,2/3-z
15 1/3+x-y,2/3+x,2/3-z
16 2/3-x,1/3-y,1/3-z
17 2/3+y,1/3-x+y,1/3-z
18 2/3+x-y,1/3+x,1/3-z
_cell_length_a                   34.5619(6)
_cell_length_b                   34.5619(6)
_cell_length_c                   8.3343(3)
_cell_angle_alpha                90
_cell_angle_beta                 90
_cell_angle_gamma                120
_cell_volume                     8621.74
loop_
_atom_site_label
_atom_site_type_symbol
_atom_site_fract_x
_atom_site_fract_y
_atom_site_fract_z
Ag1 Ag 0.807378(16) 0.150602(17) 0.83647(7)
O1 O 1.00200(14) 0.32394(15) 1.0196(5)
N1 N 0.86756(19) 0.19000(19) 0.9814(7)
N2 N 0.95121(19) 0.40832(19) 0.9396(7)
C1 C 0.8927(2) 0.2350(2) 0.9694(8)
H1 H 0.8830 0.2505 0.9012
C2 C 0.9322(2) 0.2589(2) 1.0541(7)
C3 C 0.9460(2) 0.2367(2) 1.1577(8)
H2 H 0.9733 0.2525 1.2151
C4 C 0.9189(2) 0.1909(2) 1.1751(8)
H3 H 0.9267 0.1748 1.2480
C5 C 0.8804(2) 0.1691(2) 1.0844(8)
H4 H 0.8621 0.1376 1.0960
C6 C 0.9620(2) 0.3085(2) 1.0307(7)
C7 C 0.9650(2) 0.3784(2) 0.9443(7)
H5 H 0.9921 0.3854 0.8912
C8 C 0.9418(2) 0.3376(2) 1.0230(7)
C9 C 0.9021(2) 0.3272(2) 1.1009(8)
H6 H 0.8854 0.2997 1.1563
C10 C 0.8876(3) 0.3573(3) 1.0964(10)
H7 H 0.8607 0.3510 1.1493
C11 C 0.9121(2) 0.3971(2) 1.0148(9)
H8 H 0.9011 0.4174 1.0110
Ag1N Ag 0.990109(23) 0.474045(16) 0.83020(7)
N2M N 0.74165(19) 0.12378(27) 0.7271(7)
C12 C 0.8238(2) 0.0737(2) 0.7821(10)
O2 O 0.8066(2) 0.0752(2) 0.9110(7)
O3 O 0.8334(2) 0.0987(2) 0.6668(7)
C13 C 0.8428(3) 0.0422(3) 0.7960(13)
F1 F 0.8180(2) 0.00600(19) 0.8788(10)
F2 F 0.8425(5) 0.0257(4) 0.6291(14)
C14 C 0.8917(4) 0.0593(4) 0.827(2)
F3 F 0.9115(6) 0.0777(6) 0.687(2)
F4 F 0.8964(7) 0.0242(6) 0.873(3)
F5 F 0.9057(7) 0.0902(7) 0.945(3)
O4 O 0.8711(4) 0.0949(4) 1.3558(17)
H9 H 0.8626 0.0926 1.4516
C15 C 0.8942(8) 0.0722(8) 1.335(3)
H10 H 0.9261 0.0939 1.3564
H11 H 0.8919 0.0642 1.2203
C16 C 0.883(2) 0.0302(13) 1.430(8)
H12 H 0.9025 0.0189 1.3968
H13 H 0.8516 0.0074 1.4094
H14 H 0.8868 0.0372 1.5448
O5? O 0.8712(9) 0.0640(8) 1.074(4)
H15? H 0.8617 0.0393 1.0282
C17? C 0.9086(9) 0.0738(10) 1.162(3)
H16? H 0.8996 0.0692 1.2761
H17? H 0.9297 0.1061 1.1482
C18? C 0.9351(18) 0.050(2) 1.134(8)
H18? H 0.9622 0.0640 1.1997
H19? H 0.9434 0.0525 1.0202
H20? H 0.9168 0.0185 1.1630
C19? C 0.8425(5) 0.0257(4) 0.6291(14)
F6? F 0.8917(4) 0.0593(4) 0.827(2)
F7? F 0.7968(6) 0.0079(6) 0.610(2)
F8? F 0.8652(8) 0.0604(6) 0.519(2)
F9? F 0.8600(8) -0.0009(7) 0.625(3)
loop_
_geom_bond_atom_site_label_1
_geom_bond_atom_site_label_2
_geom_bond_site_symmetry_1
_geom_bond_site_symmetry_2
Ag1 N1 1_555 1_555
O1 C6 1_555 1_555
N1 C1 1_555 1_555
N2 C7 1_555 1_555
C1 H1 1_555 1_555
C2 C1 1_555 1_555
C3 C2 1_555 1_555
H2 C3 1_555 1_555
C4 C3 1_555 1_555
H3 C4 1_555 1_555
C5 N1 1_555 1_555
H4 C5 1_555 1_555
C6 C2 1_555 1_555
C7 H5 1_555 1_555
C8 C6 1_555 1_555
C9 C8 1_555 1_555
H6 C9 1_555 1_555
C10 C9 1_555 1_555
H7 C10 1_555 1_555
C11 N2 1_555 1_555
H8 C11 1_555 1_555
C12 O2 1_555 1_555
O3 C12 1_555 1_555
C13 C12 1_555 1_555
F1 C13 1_555 1_555
F2 C13 1_555 1_555
C14 C13 1_555 1_555
F3 C14 1_555 1_555
F4 C14 1_555 1_555
F5 C14 1_555 1_555
O4 H9 1_555 1_555
C15 O4 1_555 1_555
H10 C15 1_555 1_555
H11 C15 1_555 1_555
C16 C15 1_555 1_555
H12 C16 1_555 1_555
H13 C16 1_555 1_555
H14 C16 1_555 1_555
Ag1N N2 1_555 1_555
N2M Ag1 1_555 1_555
C4 C5 1_555 1_555
C7 C8 1_555 1_555
C10 C11 1_555 1_555

#END
