
#######################################################################
#
#                 Cambridge Crystallographic Data Centre
#                                CCDC 
#
#######################################################################
#
# If this CIF has been generated from an entry in the Cambridge 
# Structural Database, then it will include bibliographic, chemical, 
# crystal, experimental, refinement or atomic coordinate data resulting 
# from the CCDC's data processing and validation procedures.
#
#######################################################################

data_FUSPIS10
_symmetry_cell_setting           orthorhombic
_symmetry_space_group_name_H-M   'P 21 21 21'
_symmetry_Int_Tables_number      19
_space_group_name_Hall           'P 2ac 2ab'
loop_
_symmetry_equiv_pos_site_id
_symmetry_equiv_pos_as_xyz
1 x,y,z
2 1/2-x,-y,1/2+z
3 1/2+x,1/2-y,-z
4 -x,1/2+y,1/2-z
_cell_length_a                   5.031(1)
_cell_length_b                   15.619(4)
_cell_length_c                   16.136(4)
_cell_angle_alpha                90
_cell_angle_beta                 90
_cell_angle_gamma                90
_cell_volume                     1267.95
loop_
_atom_site_label
_atom_site_type_symbol
_atom_site_fract_x
_atom_site_fract_y
_atom_site_fract_z
Ca1 Ca 0.9913(9) 0.3211(2) 0.3650(2)
O1 O 1.0721(11) 0.3151(3) 0.5126(2)
O2 O 1.3137(9) 0.3079(4) 0.2581(3)
O3 O 0.5849(10) 0.3723(3) 0.4282(3)
O4 O 1.1074(9) 0.1653(2) 0.3950(2)
O5 O 0.7430(8) 0.2147(2) 0.2929(2)
O6 O 1.1693(8) 0.4632(2) 0.3623(2)
O7 O 0.7923(8) 0.4135(2) 0.2610(2)
C1 C 1.0600(6) 0.1130(2) 0.3353(2)
C2 C 0.8453(6) 0.1432(2) 0.2759(2)
C3 C 0.7630(6) 0.0938(2) 0.2072(2)
C4 C 1.1137(7) 0.5148(2) 0.3053(2)
C5 C 0.8937(6) 0.4845(2) 0.2452(2)
C6 C 1.1834(6) 0.0349(2) 0.3242(2)
C7 C 0.5553(8) 0.1261(2) 0.1492(2)
C8 C 1.3847(9) -0.0015(2) 0.3836(2)
C9 C 0.6566(13) 0.1940(4) 0.0904(3)
C10 C 1.2578(13) -0.0599(4) 0.4461(4)
H1 H 0.9250(17) 0.3234(5) 0.5509(4)
H2 H 1.2286(20) 0.3211(7) 0.5422(6)
H3 H 1.4489(15) 0.2650(5) 0.2618(5)
H4 H 1.4105(21) 0.3558(6) 0.2452(6)
H5 H 0.4764(17) 0.4188(5) 0.4067(5)
H6 H 0.5776(18) 0.3730(6) 0.4861(5)
H7 H 0.4713(19) 0.0733(5) 0.1144(5)
H8 H 0.3888(16) 0.1538(6) 0.1836(5)
H9 H 1.5378(18) -0.0364(6) 0.3493(5)
H10 H 1.4857(24) 0.0494(5) 0.4174(6)
H11 H 0.5150(32) 0.2171(8) 0.0510(8)
H12 H 0.8125(37) 0.1682(12) 0.0500(9)
H13 H 0.7405(34) 0.2457(8) 0.1249(8)
H14 H 1.3901(45) -0.0857(12) 0.4903(9)
H15 H 1.1739(39) -0.1164(8) 0.4149(10)
H16 H 1.1002(44) -0.0326(11) 0.4757(8)
C4C C 0.8863(7) 0.0148(2) 0.1947(2)
C3C C 1.2370(6) 0.5938(2) 0.2928(2)
C6C C 0.8166(6) 0.5349(2) 0.1758(2)
C5C C 1.1063(6) -0.0155(2) 0.2548(2)
O6C O 0.8307(8) -0.0368(2) 0.1377(2)
C2C C 1.1547(6) 0.6432(2) 0.2241(2)
C7C C 1.4447(8) 0.6261(2) 0.3508(2)
C1C C 0.9400(6) 0.6130(2) 0.1647(2)
C8C C 0.6153(9) 0.4985(2) 0.1164(2)
O7C O 1.2077(8) -0.0865(2) 0.2390(2)
Ca1C Ca 1.0087(9) -0.1789(2) 0.1350(2)
O5C O 1.2570(8) 0.7147(2) 0.2071(2)
C9C C 1.3434(13) 0.6940(4) 0.4096(3)
H7C H 1.5287(19) 0.5733(5) 0.3856(5)
H8C H 1.6112(16) 0.6538(6) 0.3164(5)
O4C O 0.8926(9) 0.6653(2) 0.1050(2)
C10C C 0.7422(13) 0.4401(4) 0.0539(4)
H9C H 0.4622(18) 0.4636(6) 0.1507(5)
H10C H 0.5143(24) 0.5494(5) 0.0826(6)
O1C O 0.9279(11) -0.1849(3) -0.0126(2)
O2C O 0.6863(9) -0.1921(4) 0.2419(3)
O3C O 1.4151(10) -0.1277(3) 0.0718(3)
O4C_2 O 0.8926(9) -0.3347(2) 0.1050(2)
O5C_2 O 1.2570(8) -0.2853(2) 0.2071(2)
Ca1C_2 Ca 1.0087(9) 0.8211(2) 0.1350(2)
H11C H 1.4850(32) 0.7171(8) 0.4490(8)
H12C H 1.1875(37) 0.6682(12) 0.4500(9)
H13C H 1.2595(34) 0.7457(8) 0.3751(8)
H14C H 0.6099(45) 0.4143(12) 0.0097(9)
H15C H 0.8261(39) 0.3836(8) 0.0851(10)
H16C H 0.8998(44) 0.4674(11) 0.0243(8)
H1C H 1.0750(17) -0.1766(5) -0.0509(4)
H2C H 0.7714(20) -0.1789(7) -0.0422(6)
H3C H 0.5511(15) -0.2350(5) 0.2382(5)
H4C H 0.5895(21) -0.1442(6) 0.2548(6)
H5C H 1.5236(17) -0.0812(5) 0.0933(5)
H6C H 1.4224(18) -0.1270(6) 0.0139(5)
loop_
_geom_bond_atom_site_label_1
_geom_bond_atom_site_label_2
_geom_bond_site_symmetry_1
_geom_bond_site_symmetry_2
Ca1 O1 1_555 1_555
O1 H1 1_555 1_555
O2 Ca1 1_555 1_555
O3 Ca1 1_555 1_555
O4 Ca1 1_555 1_555
O5 Ca1 1_555 1_555
O6 Ca1 1_555 1_555
O7 Ca1 1_555 1_555
C1 O4 1_555 1_555
C2 O5 1_555 1_555
C3 C2 1_555 1_555
C4 O6 1_555 1_555
C5 O7 1_555 1_555
C6 C1 1_555 1_555
C7 C3 1_555 1_555
C8 C6 1_555 1_555
C9 C7 1_555 1_555
C10 C8 1_555 1_555
H2 O1 1_555 1_555
H3 O2 1_555 1_555
H4 O2 1_555 1_555
H5 O3 1_555 1_555
H6 O3 1_555 1_555
H7 C7 1_555 1_555
H8 C7 1_555 1_555
H9 C8 1_555 1_555
H10 C8 1_555 1_555
H11 C9 1_555 1_555
H12 C9 1_555 1_555
H13 C9 1_555 1_555
H14 C10 1_555 1_555
H15 C10 1_555 1_555
H16 C10 1_555 1_555
C4C C3 1_555 1_555
C3C C4 1_555 1_555
C6C C5 1_555 1_555
C5C C6 1_555 1_555
O6C C4C 1_555 1_555
C2C C3C 1_555 1_555
C7C C3C 1_555 1_555
C1C C6C 1_555 1_555
C8C C6C 1_555 1_555
O7C C5C 1_555 1_555
Ca1C O6C 1_555 1_555
O5C C2C 1_555 1_555
C9C C7C 1_555 1_555
H7C C7C 1_555 1_555
H8C C7C 1_555 1_555
O4C C1C 1_555 1_555
C10C C8C 1_555 1_555
H9C C8C 1_555 1_555
H10C C8C 1_555 1_555
O1C Ca1C 1_555 1_555
O2C Ca1C 1_555 1_555
O3C Ca1C 1_555 1_555
O4C_2 Ca1C 1_555 1_555
O5C_2 Ca1C 1_555 1_555
Ca1C_2 O5C 1_555 1_555
H11C C9C 1_555 1_555
H12C C9C 1_555 1_555
H13C C9C 1_555 1_555
H14C C10C 1_555 1_555
H15C C10C 1_555 1_555
H16C C10C 1_555 1_555
H1C O1C 1_555 1_555
H2C O1C 1_555 1_555
H3C O2C 1_555 1_555
H4C O2C 1_555 1_555
H5C O3C 1_555 1_555
H6C O3C 1_555 1_555
C1 C2 1_555 1_555
C4 C5 1_555 1_555
C4C C5C 1_555 1_555
C2C C1C 1_555 1_555
O7C Ca1C 1_555 1_555
O4C Ca1C_2 1_555 1_555

#END
