
#######################################################################
#
#                 Cambridge Crystallographic Data Centre
#                                CCDC 
#
#######################################################################
#
# If this CIF has been generated from an entry in the Cambridge 
# Structural Database, then it will include bibliographic, chemical, 
# crystal, experimental, refinement or atomic coordinate data resulting 
# from the CCDC's data processing and validation procedures.
#
#######################################################################

data_FUSQUG
_symmetry_cell_setting           monoclinic
_symmetry_space_group_name_H-M   'P 21/n'
_symmetry_Int_Tables_number      14
_space_group_name_Hall           '-P 2yn'
loop_
_symmetry_equiv_pos_site_id
_symmetry_equiv_pos_as_xyz
1 x,y,z
2 1/2-x,1/2+y,1/2-z
3 -x,-y,-z
4 1/2+x,1/2-y,1/2+z
_cell_length_a                   6.93460(10)
_cell_length_b                   8.27310(10)
_cell_length_c                   14.3934(2)
_cell_angle_alpha                90
_cell_angle_beta                 93.9980(10)
_cell_angle_gamma                90
_cell_volume                     823.749
loop_
_atom_site_label
_atom_site_type_symbol
_atom_site_fract_x
_atom_site_fract_y
_atom_site_fract_z
Ce1 Ce 0.25442(6) 0.21949(5) 0.41353(3)
S1 S 0.2426(3) -0.1384(2) 0.49776(13)
O1 O 0.2851(10) 0.0193(7) 0.5443(4)
O2 O 0.4106(8) -0.2452(8) 0.5129(5)
O3 O 0.2018(10) -0.1002(8) 0.3989(4)
O4 O 0.0767(9) -0.2174(8) 0.5372(5)
O5 O 0.4504(9) 0.1220(8) 0.2807(4)
O6 O 0.4425(8) -0.0391(7) 0.1563(4)
O7 O 0.0629(9) 0.1413(8) 0.2632(4)
O8 O 0.0589(8) -0.0459(7) 0.1514(4)
O9 O 0.2429(9) 0.4078(8) 0.5513(4)
H1 H 0.1393 0.3912 0.5781
H2 H 0.3398 0.3898 0.5893
C1 C 0.3651(12) 0.0434(10) 0.2159(5)
C2 C 0.1415(11) 0.0483(9) 0.2099(5)
Ce1B Ce 0.74558(6) -0.21949(5) 0.58647(3)
Ce1B_2 Ce -0.25442(6) -0.21949(5) 0.58647(3)
Ce1A Ce 0.24558(6) -0.28051(5) 0.08647(3)
O2B O 0.5894(8) 0.2452(8) 0.4871(5)
O4B O -0.0767(9) 0.2174(8) 0.4628(5)
O6A O 0.0575(8) 0.4609(7) 0.3437(4)
O8A O 0.4411(8) 0.4541(7) 0.3486(4)
N1 N 0.7301(11) 0.3471(10) 0.2153(6)
loop_
_geom_bond_atom_site_label_1
_geom_bond_atom_site_label_2
_geom_bond_site_symmetry_1
_geom_bond_site_symmetry_2
Ce1 O1 1_555 1_555
S1 O1 1_555 1_555
O2 S1 1_555 1_555
O3 Ce1 1_555 1_555
O4 S1 1_555 1_555
O5 Ce1 1_555 1_555
O6 C1 1_555 1_555
O7 Ce1 1_555 1_555
O8 C2 1_555 1_555
O9 Ce1 1_555 1_555
H1 O9 1_555 1_555
H2 O9 1_555 1_555
C1 O5 1_555 1_555
C2 O7 1_555 1_555
Ce1B O2 1_555 1_555
Ce1B_2 O4 1_555 1_555
Ce1A O6 1_555 1_555
O2B Ce1 1_555 1_555
O4B Ce1 1_555 1_555
O6A Ce1 1_555 1_555
O8A Ce1 1_555 1_555
S1 O3 1_555 1_555
O8 Ce1A 1_555 1_555
C1 C2 1_555 1_555

#END
