
#######################################################################
#
#                 Cambridge Crystallographic Data Centre
#                                CCDC 
#
#######################################################################
#
# If this CIF has been generated from an entry in the Cambridge 
# Structural Database, then it will include bibliographic, chemical, 
# crystal, experimental, refinement or atomic coordinate data resulting 
# from the CCDC's data processing and validation procedures.
#
#######################################################################

data_FUSQUH
_symmetry_cell_setting           monoclinic
_symmetry_space_group_name_H-M   'C 2/c'
_symmetry_Int_Tables_number      15
_space_group_name_Hall           '-C 2yn'
loop_
_symmetry_equiv_pos_site_id
_symmetry_equiv_pos_as_xyz
1 x,y,z
2 -x,y,1/2-z
3 1/2+x,1/2+y,z
4 1/2-x,1/2+y,1/2-z
5 -x,-y,-z
6 x,-y,1/2+z
7 1/2-x,1/2-y,-z
8 1/2+x,1/2-y,1/2+z
_cell_length_a                   38.226(7)
_cell_length_b                   13.456(2)
_cell_length_c                   33.945(7)
_cell_angle_alpha                90
_cell_angle_beta                 110.132(11)
_cell_angle_gamma                90
_cell_volume                     16393.5
loop_
_atom_site_label
_atom_site_type_symbol
_atom_site_fract_x
_atom_site_fract_y
_atom_site_fract_z
Co1 Co 0.00961(2) 0.31545(6) 0.04214(3)
Co2 Co 0.28975(2) 0.38202(6) 0.46733(3)
O1 O 0.26213(12) 0.3689(3) 0.40031(12)
O2 O 0.21829(11) 0.3357(3) -0.01576(14)
O3 O 0.11850(11) 0.2859(3) 0.04194(14)
H1 H 0.0982 0.2988 0.0440
O4 O 0.22392(13) 0.3805(4) 0.32096(13)
H2 H 0.2405 0.3934 0.3432
O5 O 0.02423(13) 0.3761(4) 0.09889(14)
O6 O 0.04867(10) 0.3215(3) 0.01738(14)
N1 N -0.04400(14) 0.4194(4) -0.03132(18)
H3 H -0.0291 0.4132 -0.0452
O7 O 0.01632(12) 0.3453(4) -0.05005(15)
O8 O 0.06344(13) 0.2583(4) 0.10729(14)
O9 O 0.23739(10) 0.2982(3) 0.44170(13)
C1 C 0.20679(17) 0.2742(5) 0.36923(18)
N2 N -0.03429(13) 0.3983(4) 0.00986(17)
O10 O 0.12198(12) 0.2473(4) 0.17259(13)
H4 H 0.1073 0.2328 0.1493
C2 C -0.06472(17) 0.4190(5) 0.0196(2)
C3 C 0.18163(16) 0.2321(5) 0.0282(2)
H5 H 0.1974 0.1889 0.0187
H6 H 0.1762 0.1979 0.0506
C4 C 0.22082(17) 0.3739(5) 0.0217(2)
C5 C 0.23677(17) 0.3173(5) 0.40486(19)
C6 C 0.16667(19) 0.3165(6) 0.2504(2)
H7 H 0.1707 0.2640 0.2329
H8 H 0.1857 0.3665 0.2533
N3 N -0.01030(14) 0.1768(4) 0.04049(18)
C7 C 0.14530(16) 0.2475(4) -0.0079(2)
C8 C 0.04568(18) 0.3240(5) -0.0214(2)
C9 C 0.07974(16) 0.2963(4) -0.0310(2)
C10 C 0.11463(17) 0.2767(4) 0.0012(2)
C11 C 0.0519(2) 0.3294(5) 0.1215(2)
C12 C -0.06708(17) -0.0473(5) -0.0005(2)
H9 H -0.0570 -0.0723 -0.0212
H10 H -0.0668 -0.1017 0.0184
C13 C -0.04172(17) 0.0337(5) 0.0243(2)
C14 C 0.20161(19) 0.3086(5) 0.3273(2)
C15 C 0.14134(19) 0.2272(5) -0.0501(2)
C16 C 0.20357(16) 0.3268(5) 0.0463(2)
C17 C 0.22706(18) 0.4570(6) 0.0990(2)
N4 N -0.00339(15) 0.1184(5) 0.0743(2)
H11 H 0.0115 0.1345 0.0989
C18 C 0.1501(2) 0.1946(6) 0.2993(2)
C19 C -0.03333(17) 0.1237(5) 0.0095(2)
C20 C 0.20718(16) 0.3679(6) 0.0862(2)
C21 C 0.24482(16) 0.5018(5) 0.0737(2)
H12 H 0.2585 0.5596 0.0828
C22 C 0.07356(18) 0.3670(5) 0.16410(19)
C23 C 0.1292(2) 0.3630(6) 0.2274(2)
C24 C 0.17271(19) 0.2733(6) 0.29326(19)
C25 C 0.1068(2) 0.2492(5) -0.0838(2)
C26 C -0.07860(19) 0.4504(4) -0.0480(2)
C27 C 0.19001(18) 0.3242(6) 0.1131(2)
H13 H 0.1763 0.2660 0.1050
C28 C 0.1701(2) 0.1826(5) -0.0627(3)
H14 H 0.1928 0.1660 -0.0423
C29 C 0.10813(19) 0.3264(6) 0.1883(2)
C30 C -0.10658(16) -0.0168(4) -0.0226(2)
C31 C 0.24231(16) 0.4619(5) 0.0359(2)
C32 C -0.0962(2) 0.4768(6) -0.0932(2)
H15 H -0.0786 0.4667 -0.1073
H16 H -0.1038 0.5452 -0.0956
H17 H -0.1176 0.4354 -0.1058
C33 C 0.1014(2) 0.2303(6) -0.1262(2)
H18 H 0.0789 0.2445 -0.1474
C34 C 0.07717(18) 0.2852(5) -0.0719(2)
H19 H 0.0549 0.3022 -0.0928
C35 C 0.1557(2) 0.1588(6) 0.3398(2)
C36 C 0.1332(3) 0.0842(7) 0.3474(3)
H20 H 0.1373 0.0616 0.3745
C37 C -0.09324(16) 0.4528(4) -0.0156(2)
C38 C -0.0476(2) 0.1607(6) -0.0357(2)
H21 H -0.0372 0.2250 -0.0371
H22 H -0.0743 0.1654 -0.0452
H23 H -0.0403 0.1151 -0.0532
C39 C 0.2311(2) 0.4984(8) 0.1383(3)
H24 H 0.2450 0.5561 0.1471
C40 C -0.0219(2) 0.0333(6) 0.0660(2)
C41 C 0.1311(3) 0.1896(7) -0.1351(3)
H25 H 0.1287 0.1786 -0.1630
C42 C 0.1212(3) 0.1520(6) 0.2660(2)
H26 H 0.1169 0.1735 0.2387
C43 C 0.1937(2) 0.3679(8) 0.1510(3)
H27 H 0.1819 0.3392 0.1680
C44 C 0.1832(2) 0.2017(5) 0.3739(2)
H28 H 0.1857 0.1806 0.4008
C45 C 0.1647(2) 0.1644(6) -0.1035(3)
H29 H 0.1835 0.1347 -0.1108
C46 C 0.0993(3) 0.0796(8) 0.2732(3)
H30 H 0.0802 0.0527 0.2507
C47 C -0.06520(18) 0.4070(6) 0.0631(2)
H31 H -0.0415 0.3824 0.0810
H32 H -0.0844 0.3607 0.0629
H33 H -0.0701 0.4700 0.0734
C48 C 0.0794(3) 0.4811(7) 0.2216(3)
C49 C 0.0595(2) 0.4426(6) 0.1805(2)
H34 H 0.0366 0.4701 0.1648
C50 C 0.2142(3) 0.4528(9) 0.1641(3)
H35 H 0.2169 0.4799 0.1902
C51 C 0.1151(3) 0.4434(6) 0.2437(2)
C52 C 0.0647(3) 0.5605(9) 0.2386(3)
H36 H 0.0411 0.5850 0.2239
C53 C -0.0190(3) -0.0396(7) 0.1008(3)
H37 H -0.0019 -0.0145 0.1268
H38 H -0.0101 -0.1023 0.0945
H39 H -0.0431 -0.0485 0.1032
C54 C 0.1046(3) 0.0446(9) 0.3135(4)
H40 H 0.0893 -0.0047 0.3177
C55 C 0.1345(3) 0.4876(7) 0.2831(3)
H41 H 0.1580 0.4645 0.2991
C56 C 0.1188(4) 0.5637(9) 0.2976(3)
H42 H 0.1319 0.5913 0.3237
C57 C 0.0847(4) 0.6004(10) 0.2755(4)
H43 H 0.0752 0.6537 0.2860
C58 C -0.13091(18) 0.0250(4) -0.0045(2)
C59 C -0.12669(19) -0.0273(5) -0.0639(2)
N5 N -0.16151(14) 0.0075(4) -0.07028(16)
H44 H -0.1791 0.0088 -0.0943
N6 N -0.16500(12) 0.0401(4) -0.03393(16)
C60 C -0.12474(18) 0.0547(5) 0.0386(2)
H45 H -0.1474 0.0811 0.0406
H46 H -0.1057 0.1046 0.0470
H47 H -0.1171 -0.0020 0.0567
C61 C -0.1170(2) -0.0700(6) -0.0996(2)
H48 H -0.1381 -0.0645 -0.1251
H49 H -0.1103 -0.1387 -0.0941
H50 H -0.0963 -0.0341 -0.1026
C62 C 0.26144(17) 0.5136(5) 0.0090(2)
O11 O 0.28146(12) 0.5891(3) 0.02358(13)
O12 O 0.25726(11) 0.4793(3) -0.02670(14)
C63 C -0.13249(15) 0.4810(5) -0.0184(2)
H51 H -0.1311 0.5345 0.0012
H52 H -0.1459 0.5057 -0.0464
C64 C -0.15354(16) 0.3974(5) -0.0093(2)
C65 C -0.16682(16) 0.3896(5) 0.0235(2)
C66 C -0.16563(17) 0.3108(5) -0.0333(2)
N7 N -0.18517(13) 0.3008(4) 0.01855(17)
H53 H -0.1958 0.2787 0.0354
N8 N -0.18469(13) 0.2522(4) -0.01572(16)
C67 C -0.16348(18) 0.4556(5) 0.0600(2)
H54 H -0.1499 0.5144 0.0583
H55 H -0.1505 0.4210 0.0856
H56 H -0.1879 0.4738 0.0595
C68 C -0.1588(2) 0.2818(5) -0.0727(2)
H57 H -0.1704 0.2190 -0.0824
H58 H -0.1324 0.2764 -0.0670
H59 H -0.1690 0.3314 -0.0938
Co2E Co 0.28975(2) 0.61798(6) -0.03267(3)
Co2G Co -0.21025(2) 0.11798(6) -0.03267(3)
N6G N 0.33500(12) 0.4599(4) 0.46607(16)
O11E O 0.28146(12) 0.4109(3) 0.52358(13)
O12E O 0.25726(11) 0.5207(3) 0.47330(14)
N8G N 0.31531(13) 0.2478(4) 0.48428(16)
O13 O 0.28336(16) 0.5469(5) 0.35078(17)
O14 O 0.2590(3) 0.1457(8) 0.1597(3)
loop_
_geom_bond_atom_site_label_1
_geom_bond_atom_site_label_2
_geom_bond_site_symmetry_1
_geom_bond_site_symmetry_2
Co1 O5 1_555 1_555
Co2 O1 1_555 1_555
O1 C5 1_555 1_555
O2 C4 1_555 1_555
O3 H1 1_555 1_555
O4 H2 1_555 1_555
O5 C11 1_555 1_555
O6 Co1 1_555 1_555
N1 H3 1_555 1_555
O7 C8 1_555 1_555
O8 C11 1_555 1_555
O9 Co2 1_555 1_555
C1 C5 1_555 1_555
N2 Co1 1_555 1_555
O10 H4 1_555 1_555
C2 N2 1_555 1_555
C3 H5 1_555 1_555
H6 C3 1_555 1_555
C4 C16 1_555 1_555
C5 O9 1_555 1_555
C6 H7 1_555 1_555
H8 C6 1_555 1_555
N3 Co1 1_555 1_555
C7 C3 1_555 1_555
C8 O6 1_555 1_555
C9 C8 1_555 1_555
C10 O3 1_555 1_555
C11 C22 1_555 1_555
C12 H9 1_555 1_555
H10 C12 1_555 1_555
C13 C12 1_555 1_555
C14 O4 1_555 1_555
C15 C7 1_555 1_555
C16 C3 1_555 1_555
C17 C20 1_555 1_555
N4 N3 1_555 1_555
H11 N4 1_555 1_555
C18 C24 1_555 1_555
C19 N3 1_555 1_555
C20 C16 1_555 1_555
C21 C17 1_555 1_555
H12 C21 1_555 1_555
C22 C29 1_555 1_555
C23 C6 1_555 1_555
C24 C6 1_555 1_555
C25 C15 1_555 1_555
C26 N1 1_555 1_555
C27 C20 1_555 1_555
H13 C27 1_555 1_555
C28 C15 1_555 1_555
H14 C28 1_555 1_555
C29 O10 1_555 1_555
C30 C12 1_555 1_555
C31 C4 1_555 1_555
C32 C26 1_555 1_555
H15 C32 1_555 1_555
H16 C32 1_555 1_555
H17 C32 1_555 1_555
C33 C25 1_555 1_555
H18 C33 1_555 1_555
C34 C9 1_555 1_555
H19 C34 1_555 1_555
C35 C18 1_555 1_555
C36 C35 1_555 1_555
H20 C36 1_555 1_555
C37 C2 1_555 1_555
C38 C19 1_555 1_555
H21 C38 1_555 1_555
H22 C38 1_555 1_555
H23 C38 1_555 1_555
C39 C17 1_555 1_555
H24 C39 1_555 1_555
C40 C13 1_555 1_555
C41 C33 1_555 1_555
H25 C41 1_555 1_555
C42 C18 1_555 1_555
H26 C42 1_555 1_555
C43 C27 1_555 1_555
H27 C43 1_555 1_555
C44 C1 1_555 1_555
H28 C44 1_555 1_555
C45 C28 1_555 1_555
H29 C45 1_555 1_555
C46 C42 1_555 1_555
H30 C46 1_555 1_555
C47 C2 1_555 1_555
H31 C47 1_555 1_555
H32 C47 1_555 1_555
H33 C47 1_555 1_555
C48 C49 1_555 1_555
C49 C22 1_555 1_555
H34 C49 1_555 1_555
C50 C39 1_555 1_555
H35 C50 1_555 1_555
C51 C23 1_555 1_555
C52 C48 1_555 1_555
H36 C52 1_555 1_555
C53 C40 1_555 1_555
H37 C53 1_555 1_555
H38 C53 1_555 1_555
H39 C53 1_555 1_555
C54 C36 1_555 1_555
H40 C54 1_555 1_555
C55 C51 1_555 1_555
H41 C55 1_555 1_555
C56 C55 1_555 1_555
H42 C56 1_555 1_555
C57 C52 1_555 1_555
H43 C57 1_555 1_555
C58 C30 1_555 1_555
C59 C30 1_555 1_555
N5 C59 1_555 1_555
H44 N5 1_555 1_555
N6 C58 1_555 1_555
C60 C58 1_555 1_555
H45 C60 1_555 1_555
H46 C60 1_555 1_555
H47 C60 1_555 1_555
C61 C59 1_555 1_555
H48 C61 1_555 1_555
H49 C61 1_555 1_555
H50 C61 1_555 1_555
C62 C31 1_555 1_555
O11 C62 1_555 1_555
O12 C62 1_555 1_555
C63 C37 1_555 1_555
H51 C63 1_555 1_555
H52 C63 1_555 1_555
C64 C63 1_555 1_555
C65 C64 1_555 1_555
C66 C64 1_555 1_555
N7 C65 1_555 1_555
H53 N7 1_555 1_555
N8 C66 1_555 1_555
C67 C65 1_555 1_555
H54 C67 1_555 1_555
H55 C67 1_555 1_555
H56 C67 1_555 1_555
C68 C66 1_555 1_555
H57 C68 1_555 1_555
H58 C68 1_555 1_555
H59 C68 1_555 1_555
Co2E O11 1_555 1_555
Co2G N6 1_555 1_555
N6G Co2 1_555 1_555
O11E Co2 1_555 1_555
O12E Co2 1_555 1_555
N8G Co2 1_555 1_555
N1 N2 1_555 1_555
C1 C14 1_555 1_555
C7 C10 1_555 1_555
C9 C10 1_555 1_555
C13 C19 1_555 1_555
C14 C24 1_555 1_555
N4 C40 1_555 1_555
C21 C31 1_555 1_555
C23 C29 1_555 1_555
C25 C34 1_555 1_555
C26 C37 1_555 1_555
C35 C44 1_555 1_555
C41 C45 1_555 1_555
C43 C50 1_555 1_555
C46 C54 1_555 1_555
C48 C51 1_555 1_555
C56 C57 1_555 1_555
N5 N6 1_555 1_555
O12 Co2E 1_555 1_555
N7 N8 1_555 1_555
N8 Co2G 1_555 1_555

#END
