
#######################################################################
#
#                 Cambridge Crystallographic Data Centre
#                                CCDC 
#
#######################################################################
#
# If this CIF has been generated from an entry in the Cambridge 
# Structural Database, then it will include bibliographic, chemical, 
# crystal, experimental, refinement or atomic coordinate data resulting 
# from the CCDC's data processing and validation procedures.
#
#######################################################################

data_FUSRAN
_symmetry_cell_setting           monoclinic
_symmetry_space_group_name_H-M   'P 21/c'
_symmetry_Int_Tables_number      14
_space_group_name_Hall           '-P 2ybc'
loop_
_symmetry_equiv_pos_site_id
_symmetry_equiv_pos_as_xyz
1 x,y,z
2 -x,1/2+y,1/2-z
3 -x,-y,-z
4 x,1/2-y,1/2+z
_cell_length_a                   8.1876(5)
_cell_length_b                   11.7787(7)
_cell_length_c                   9.2798(6)
_cell_angle_alpha                90
_cell_angle_beta                 107.8850(10)
_cell_angle_gamma                90
_cell_volume                     851.689
loop_
_atom_site_label
_atom_site_type_symbol
_atom_site_fract_x
_atom_site_fract_y
_atom_site_fract_z
Nd1 Nd 0.880407(19) 0.588382(13) 0.153911(17)
S1 S 0.77796(10) 0.63255(6) -0.21144(8)
O1 O 0.9196(3) 0.5537(2) -0.1275(3)
O2 O 0.7221(4) 0.6857(2) -0.0914(3)
O3 O 0.6399(5) 0.5698(3) -0.3161(4)
O4 O 0.8473(4) 0.7159(2) -0.2927(3)
O5 O 0.5701(3) 0.6086(2) 0.1312(3)
O6 O 0.3054(3) 0.5666(2) -0.0151(3)
O7 O 0.8349(4) 0.4516(3) 0.3458(3)
O8 O 0.9177(4) 0.3913(2) 0.5841(3)
O9 O 1.1390(3) 0.6942(2) 0.1391(3)
H1 H 1.1090 0.7594 0.1008
H2 H 1.1864 0.6576 0.0838
C1 C 0.4655(4) 0.5508(3) 0.0348(4)
C2 C 0.9279(4) 0.4561(3) 0.4795(3)
Nd1B Nd 1.119593(19) 0.411618(13) -0.153911(17)
Nd1C Nd 0.880407(19) 0.911618(13) -0.346089(17)
Nd1B_2 Nd 0.119593(19) 0.411618(13) -0.153911(17)
Nd1B_3 Nd 1.119593(19) 0.411618(13) 0.846089(17)
Nd1A Nd 1.119593(19) 0.088382(13) 0.346089(17)
S1B S 1.22204(10) 0.36745(6) 0.21144(8)
O1B O 1.0804(3) 0.4463(2) 0.1275(3)
O2B O 1.2779(4) 0.3143(2) 0.0914(3)
O3B O 1.3601(5) 0.4302(3) 0.3161(4)
O4B O 1.1527(4) 0.2841(2) 0.2927(3)
O4C O 0.8473(4) 0.7841(2) 0.2073(3)
O4A O 1.1527(4) 0.2159(2) -0.2073(3)
O5B O 0.4299(3) 0.3914(2) -0.1312(3)
O5B_2 O 1.4299(3) 0.3914(2) -0.1312(3)
O6B O 0.6946(3) 0.4334(2) 0.0151(3)
O6_2 O 1.3054(3) 0.5666(2) -0.0151(3)
O7B O 1.1651(4) 0.5484(3) 0.6542(3)
O7B_2 O 1.1651(4) 0.5484(3) -0.3458(3)
O8B O 1.0823(4) 0.6087(2) 0.4159(3)
O8_2 O 0.9177(4) 0.3913(2) -0.4159(3)
O9B O 0.8610(3) 0.3058(2) -0.1391(3)
H1B H 0.8910 0.2406 -0.1008
H2B H 0.8136 0.3424 -0.0838
C1B C 0.5345(4) 0.4492(3) -0.0348(4)
C2B C 1.0721(4) 0.5439(3) 0.5205(3)
N1 N 0.4482(4) 0.6605(3) -0.5936(4)
loop_
_geom_bond_atom_site_label_1
_geom_bond_atom_site_label_2
_geom_bond_site_symmetry_1
_geom_bond_site_symmetry_2
Nd1 O1 1_555 1_555
S1 O1 1_555 1_555
O1 Nd1B 1_555 1_555
O2 Nd1 1_555 1_555
O3 S1 1_555 1_555
O4 S1 1_555 1_555
O5 Nd1 1_555 1_555
O6 C1 1_555 1_555
O7 Nd1 1_555 1_555
O8 C2 1_555 1_555
O9 Nd1 1_555 1_555
H1 O9 1_555 1_555
H2 O9 1_555 1_555
C1 O5 1_555 1_555
C2 O7 1_555 1_555
Nd1B O1B 1_555 1_555
Nd1C O4 1_555 1_555
Nd1B_2 O6 1_555 1_555
Nd1B_3 O8 1_555 1_555
Nd1A O4B 1_555 1_555
S1B O1B 1_555 1_555
O1B Nd1 1_555 1_555
O2B Nd1B 1_555 1_555
O3B S1B 1_555 1_555
O4B S1B 1_555 1_555
O4C Nd1 1_555 1_555
O4A Nd1B 1_555 1_555
O5B Nd1B_2 1_555 1_555
O5B_2 Nd1B 1_555 1_555
O6B Nd1 1_555 1_555
O6_2 Nd1B 1_555 1_555
O7B Nd1B_3 1_555 1_555
O7B_2 Nd1B 1_555 1_555
O8B Nd1 1_555 1_555
O8_2 Nd1B 1_555 1_555
O9B Nd1B 1_555 1_555
H1B O9B 1_555 1_555
H2B O9B 1_555 1_555
C1B C1 1_555 1_555
C2B C2 1_555 1_555
S1 O2 1_555 1_555
S1B O2B 1_555 1_555
O5B C1B 1_555 1_555
O6B C1B 1_555 1_555
O7B C2B 1_555 1_555
O8B C2B 1_555 1_555

#END
