
#######################################################################
#
#                 Cambridge Crystallographic Data Centre
#                                CCDC 
#
#######################################################################
#
# If this CIF has been generated from an entry in the Cambridge 
# Structural Database, then it will include bibliographic, chemical, 
# crystal, experimental, refinement or atomic coordinate data resulting 
# from the CCDC's data processing and validation procedures.
#
#######################################################################

data_FUSRAO
_symmetry_cell_setting           monoclinic
_symmetry_space_group_name_H-M   'P 21/n'
_symmetry_Int_Tables_number      14
_space_group_name_Hall           '-P 2yn'
loop_
_symmetry_equiv_pos_site_id
_symmetry_equiv_pos_as_xyz
1 x,y,z
2 1/2-x,1/2+y,1/2-z
3 -x,-y,-z
4 1/2+x,1/2-y,1/2+z
_cell_length_a                   10.4589(14)
_cell_length_b                   13.3445(17)
_cell_length_c                   18.115(2)
_cell_angle_alpha                90
_cell_angle_beta                 90.25
_cell_angle_gamma                90
_cell_volume                     2528.26
loop_
_atom_site_label
_atom_site_type_symbol
_atom_site_fract_x
_atom_site_fract_y
_atom_site_fract_z
Co1 Co 0.563665(19) 0.354665(14) 0.062466(11)
O1 O 0.65411(12) 0.43415(9) -0.01468(6)
N1 N 0.93383(12) -0.03688(9) 0.35995(7)
C1 C 0.95423(14) -0.03415(11) 0.28673(8)
N2 N 0.89654(13) 0.05711(10) 0.37947(7)
H1 H 0.881(2) 0.0697(16) 0.4249(13)
O2 O 0.61676(12) 0.28443(9) -0.06055(7)
C2 C 0.92936(14) 0.06243(12) 0.25970(8)
N3 N 0.66696(13) 0.24278(9) 0.10632(7)
O3 O 0.67992(15) 0.24190(11) -0.19374(8)
H2 H 0.6501 0.2329 -0.1525
C3 C 0.89275(15) 0.11846(12) 0.32075(9)
N4 N 0.62106(14) 0.14842(10) 0.11131(9)
H3 H 0.542(2) 0.1347(16) 0.0975(13)
O4 O 0.38572(11) 0.33066(9) 0.03298(7)
C4 C 0.78804(15) 0.23845(11) 0.13043(8)
C5 C 0.81819(15) 0.13991(11) 0.15117(9)
O5 O 0.37514(12) 0.16802(11) 0.06030(8)
O6 O 0.17382(13) 0.06723(10) 0.03105(9)
H4 H 0.2467 0.0764 0.0466
C6 C 0.70852(16) 0.08496(12) 0.13783(10)
C7 C 0.94184(15) 0.10034(13) 0.18144(9)
H5 H 1.0055 0.1531 0.1802
H6 H 0.9715 0.0462 0.1502
C8 C 0.99837(18) -0.12503(13) 0.24628(10)
H7 H 0.9939 -0.1822 0.2783
H8 H 1.0850 -0.1155 0.2305
H9 H 0.9446 -0.1359 0.2040
C9 C 0.85547(19) 0.22576(13) 0.32755(10)
H10 H 0.8693 0.2478 0.3774
H11 H 0.7667 0.2332 0.3150
H12 H 0.9063 0.2655 0.2947
C10 C 0.86975(17) 0.32984(13) 0.13145(10)
H13 H 0.8302 0.3813 0.1022
H14 H 0.9522 0.3142 0.1115
H15 H 0.8795 0.3529 0.1813
C11 C 0.6811(2) -0.02368(14) 0.14830(14)
H16 H 0.6077 -0.0421 0.1194
H17 H 0.6645 -0.0366 0.1995
H18 H 0.7536 -0.0623 0.1328
C12 C 0.72046(15) 0.40281(12) -0.13862(9)
C13 C 0.72642(17) 0.33568(14) -0.19841(10)
C14 C 0.7808(2) 0.36599(18) -0.26493(11)
H19 H 0.7851 0.3213 -0.3043
C15 C 0.8282(2) 0.46192(19) -0.27271(12)
H20 H 0.8636 0.4817 -0.3174
C16 C 0.8232(2) 0.52956(16) -0.21388(12)
H21 H 0.853(3) 0.603(2) -0.2228(15)
C17 C 0.76902(17) 0.49944(13) -0.14736(10)
H22 H 0.7651 0.5444 -0.1082
C18 C 0.66114(15) 0.37187(12) -0.06803(9)
C19 C 0.19467(14) 0.24417(12) 0.00617(8)
C20 C 0.12649(16) 0.15391(12) 0.00451(10)
C21 C 0.00430(17) 0.15114(14) -0.02648(11)
H23 H -0.033(2) 0.089(2) -0.0316(14)
C22 C -0.04809(17) 0.23673(16) -0.05546(12)
H24 H -0.135(3) 0.231(2) -0.0804(17)
C23 C 0.01751(18) 0.32769(15) -0.05369(12)
H25 H -0.024(3) 0.389(2) -0.0750(15)
C24 C 0.13773(16) 0.33085(13) -0.02209(10)
H26 H 0.1814 0.3915 -0.0196
C25 C 0.32696(14) 0.24718(12) 0.03539(8)
Co1A Co 0.936335(19) -0.145335(14) 0.437534(11)
N1A N 0.56617(12) 0.46312(9) 0.14005(7)
O7 O 0.4104(6) -0.0606(3) 0.0489(3)
loop_
_geom_bond_atom_site_label_1
_geom_bond_atom_site_label_2
_geom_bond_site_symmetry_1
_geom_bond_site_symmetry_2
Co1 O1 1_555 1_555
O1 C18 1_555 1_555
N1 C1 1_555 1_555
C1 C2 1_555 1_555
N2 N1 1_555 1_555
H1 N2 1_555 1_555
O2 C18 1_555 1_555
C2 C3 1_555 1_555
N3 Co1 1_555 1_555
O3 H2 1_555 1_555
C3 N2 1_555 1_555
N4 N3 1_555 1_555
H3 N4 1_555 1_555
O4 Co1 1_555 1_555
C4 N3 1_555 1_555
C5 C4 1_555 1_555
O5 C25 1_555 1_555
O6 H4 1_555 1_555
C6 N4 1_555 1_555
C7 C2 1_555 1_555
H5 C7 1_555 1_555
H6 C7 1_555 1_555
C8 C1 1_555 1_555
H7 C8 1_555 1_555
H8 C8 1_555 1_555
H9 C8 1_555 1_555
C9 C3 1_555 1_555
H10 C9 1_555 1_555
H11 C9 1_555 1_555
H12 C9 1_555 1_555
C10 C4 1_555 1_555
H13 C10 1_555 1_555
H14 C10 1_555 1_555
H15 C10 1_555 1_555
C11 C6 1_555 1_555
H16 C11 1_555 1_555
H17 C11 1_555 1_555
H18 C11 1_555 1_555
C12 C13 1_555 1_555
C13 O3 1_555 1_555
C14 C13 1_555 1_555
H19 C14 1_555 1_555
C15 C14 1_555 1_555
H20 C15 1_555 1_555
C16 C15 1_555 1_555
H21 C16 1_555 1_555
C17 C12 1_555 1_555
H22 C17 1_555 1_555
C18 C12 1_555 1_555
C19 C20 1_555 1_555
C20 O6 1_555 1_555
C21 C20 1_555 1_555
H23 C21 1_555 1_555
C22 C21 1_555 1_555
H24 C22 1_555 1_555
C23 C22 1_555 1_555
H25 C23 1_555 1_555
C24 C19 1_555 1_555
H26 C24 1_555 1_555
C25 O4 1_555 1_555
Co1A N1 1_555 1_555
N1A Co1 1_555 1_555
C5 C6 1_555 1_555
C5 C7 1_555 1_555
C16 C17 1_555 1_555
C19 C25 1_555 1_555
C23 C24 1_555 1_555

#END
