
#######################################################################
#
#                 Cambridge Crystallographic Data Centre
#                                CCDC 
#
#######################################################################
#
# If this CIF has been generated from an entry in the Cambridge 
# Structural Database, then it will include bibliographic, chemical, 
# crystal, experimental, refinement or atomic coordinate data resulting 
# from the CCDC's data processing and validation procedures.
#
#######################################################################

data_FUSROB
_symmetry_cell_setting           monoclinic
_symmetry_space_group_name_H-M   'P 21/n'
_symmetry_Int_Tables_number      14
_space_group_name_Hall           '-P 2yn'
loop_
_symmetry_equiv_pos_site_id
_symmetry_equiv_pos_as_xyz
1 x,y,z
2 1/2-x,1/2+y,1/2-z
3 -x,-y,-z
4 1/2+x,1/2-y,1/2+z
_cell_length_a                   6.5786(3)
_cell_length_b                   8.6025(3)
_cell_length_c                   13.7919(6)
_cell_angle_alpha                90
_cell_angle_beta                 93.0150(10)
_cell_angle_gamma                90
_cell_volume                     779.436
loop_
_atom_site_label
_atom_site_type_symbol
_atom_site_fract_x
_atom_site_fract_y
_atom_site_fract_z
Tb1 Tb 0.24568(2) 0.240422(16) 0.910547(10)
S1 S 0.24003(10) -0.16655(8) 0.97480(5)
O1 O 0.2491(4) 0.0032(3) 0.99337(17)
O2 O 0.4386(4) -0.2376(3) 1.0019(2)
O3 O 0.1869(4) -0.1958(3) 0.87239(18)
O4 O 0.0858(4) -0.2358(3) 1.0358(2)
O5 O 0.4475(4) 0.4443(3) 0.84116(17)
O6 O 0.0446(3) 0.4437(3) 0.82790(17)
O7 O 0.0458(3) 0.6054(3) 0.70034(16)
O8 O 0.4539(3) 0.6214(3) 0.72188(17)
O9 O 0.2363(4) 0.4209(3) 1.04350(18)
H1 H 0.3016 0.3831 1.0928
H2 H 0.2911 0.5061 1.0276
C1 C 0.3646(5) 0.5328(4) 0.7779(2)
C2 C 0.1307(5) 0.5280(4) 0.7681(2)
Tb1B Tb 0.75432(2) -0.240422(16) 1.089453(10)
Tb1B_2 Tb -0.24568(2) -0.240422(16) 1.089453(10)
Tb1A Tb 0.25432(2) 0.740422(16) 0.589453(10)
O2B O 0.5614(4) 0.2376(3) 0.9981(2)
O4B O -0.0858(4) 0.2358(3) 0.9642(2)
O7A O 0.4542(3) 0.1054(3) 0.79966(16)
O8A O 0.0461(3) 0.1214(3) 0.77812(17)
N1 N 0.7328(5) 0.3410(4) 0.6908(2)
loop_
_geom_bond_atom_site_label_1
_geom_bond_atom_site_label_2
_geom_bond_site_symmetry_1
_geom_bond_site_symmetry_2
Tb1 O1 1_555 1_555
S1 O1 1_555 1_555
O2 S1 1_555 1_555
O3 S1 1_555 1_555
O4 S1 1_555 1_555
O5 Tb1 1_555 1_555
O6 Tb1 1_555 1_555
O7 C2 1_555 1_555
O8 C1 1_555 1_555
O9 Tb1 1_555 1_555
H1 O9 1_555 1_555
H2 O9 1_555 1_555
C1 O5 1_555 1_555
C2 O6 1_555 1_555
Tb1B O2 1_555 1_555
Tb1B_2 O4 1_555 1_555
Tb1A O7 1_555 1_555
O2B Tb1 1_555 1_555
O4B Tb1 1_555 1_555
O7A Tb1 1_555 1_555
O8A Tb1 1_555 1_555
O8 Tb1A 1_555 1_555
C1 C2 1_555 1_555

#END
