
#######################################################################
#
#                 Cambridge Crystallographic Data Centre
#                                CCDC 
#
#######################################################################
#
# If this CIF has been generated from an entry in the Cambridge 
# Structural Database, then it will include bibliographic, chemical, 
# crystal, experimental, refinement or atomic coordinate data resulting 
# from the CCDC's data processing and validation procedures.
#
#######################################################################

data_FUSRES
_symmetry_cell_setting           monoclinic
_symmetry_space_group_name_H-M   'C 2/c'
_symmetry_Int_Tables_number      15
_space_group_name_Hall           '-C 2yn'
loop_
_symmetry_equiv_pos_site_id
_symmetry_equiv_pos_as_xyz
1 x,y,z
2 -x,y,1/2-z
3 1/2+x,1/2+y,z
4 1/2-x,1/2+y,1/2-z
5 -x,-y,-z
6 x,-y,1/2+z
7 1/2-x,1/2-y,-z
8 1/2+x,1/2-y,1/2+z
_cell_length_a                   19.2342(13)
_cell_length_b                   13.4738(10)
_cell_length_c                   18.5923(13)
_cell_angle_alpha                90
_cell_angle_beta                 116.139(2)
_cell_angle_gamma                90
_cell_volume                     4325.56
loop_
_atom_site_label
_atom_site_type_symbol
_atom_site_fract_x
_atom_site_fract_y
_atom_site_fract_z
Co1 Co 0.05157(4) 0.28208(7) 0.05482(4)
N1 N 0.1203(2) 0.4723(5) 0.1207(3)
H1 H 0.1070 0.4920 0.0723
N2 N 0.1071(2) 0.3815(4) 0.1394(3)
C1 C 0.1374(3) 0.3798(6) 0.2210(3)
C2 C 0.1706(3) 0.4732(6) 0.2510(3)
N3 N 0.3849(3) 0.6563(5) 0.4111(3)
C3 C 0.2865(4) 0.5499(7) 0.3648(3)
C4 C 0.1733(5) 0.6387(7) 0.1781(4)
H2 H 0.2005 0.6674 0.2304
H3 H 0.1252 0.6731 0.1492
H4 H 0.2043 0.6443 0.1496
C5 C 0.1312(4) 0.2894(6) 0.2632(4)
H5 H 0.1045 0.2385 0.2248
H6 H 0.1028 0.3046 0.2934
H7 H 0.1821 0.2665 0.2989
N4 N 0.4108(3) 0.5696(5) 0.3963(3)
H8 H 0.4575 0.5599 0.4033
C6 C -0.1976(4) 0.3227(8) 0.0064(4)
H9 H -0.1622 0.3721 0.0109
C7 C -0.1728(4) 0.2228(8) 0.0233(4)
O1 O 0.0716(3) 0.4707(5) -0.0414(3)
C8 C 0.1573(3) 0.5307(6) 0.1860(4)
C9 C 0.3074(3) 0.6460(6) 0.3906(3)
C10 C 0.3543(4) 0.4990(6) 0.3692(3)
O2 O 0.0481(4) 0.3147(6) -0.0474(3)
C11 C 0.0512(4) 0.3929(7) -0.0746(4)
O3 O -0.0623(3) 0.1145(6) 0.0669(4)
C12 C 0.0233(4) 0.3894(7) -0.1675(4)
C13 C 0.2615(5) 0.7262(8) 0.3992(5)
H10 H 0.2090 0.7044 0.3811
H11 H 0.2629 0.7819 0.3676
H12 H 0.2823 0.7455 0.4544
C14 C 0.2088(4) 0.5023(7) 0.3393(4)
H13 H 0.1751 0.5479 0.3494
H14 H 0.2147 0.4434 0.3716
O4 O -0.0498(3) 0.2639(6) 0.0456(5)
C15 C 0.0126(4) 0.4751(7) -0.2076(3)
H15 H 0.0217 0.5350 -0.1800
C16 C -0.2787(4) 0.3484(8) -0.0179(4)
H16 H -0.2955 0.4138 -0.0292
C17 C -0.0835(5) 0.2049(10) 0.0490(4)
C18 C 0.0122(5) 0.3006(8) -0.2074(5)
H17 H 0.0204 0.2410 -0.1796
C19 C 0.3668(6) 0.4014(7) 0.3484(5)
H18 H 0.4202 0.3938 0.3596
H19 H 0.3347 0.3903 0.2924
H20 H 0.3539 0.3542 0.3793
C6F C -0.3024(4) 0.1773(8) -0.0064(4)
H9F H -0.3378 0.1279 -0.0109
C7F C -0.3272(4) 0.2772(8) -0.0233(4)
O3F O -0.4377(3) 0.3855(6) -0.0669(4)
O4F O -0.4502(3) 0.2361(6) -0.0456(5)
C16F C -0.2213(4) 0.1516(8) 0.0179(4)
H16F H -0.2045 0.0862 0.0292
C17F C -0.4165(5) 0.2951(10) -0.0490(4)
O1A O -0.0716(3) 0.4707(5) -0.4586(3)
O2A O -0.0481(4) 0.3147(6) -0.4526(3)
C11A C -0.0512(4) 0.3929(7) -0.4254(4)
C12A C -0.0233(4) 0.3894(7) -0.3325(4)
C15A C -0.0126(4) 0.4751(7) -0.2924(3)
H15A H -0.0217 0.5350 -0.3200
C18A C -0.0122(5) 0.3006(8) -0.2926(5)
H17A H -0.0204 0.2410 -0.3204
Co1A Co -0.05157(4) 0.28208(7) -0.55482(4)
N1A N -0.1203(2) 0.4723(5) -0.6207(3)
H1A H -0.1070 0.4920 -0.5723
N2A N -0.1071(2) 0.3815(4) -0.6394(3)
C1A C -0.1374(3) 0.3798(6) -0.7210(3)
C2A C -0.1706(3) 0.4732(6) -0.7510(3)
N3A N -0.3849(3) 0.6563(5) -0.9111(3)
C3A C -0.2865(4) 0.5499(7) -0.8648(3)
C4A C -0.1733(5) 0.6387(7) -0.6781(4)
H2A H -0.2005 0.6674 -0.7304
H3A H -0.1252 0.6731 -0.6492
H4A H -0.2043 0.6443 -0.6496
C5A C -0.1312(4) 0.2894(6) -0.7632(4)
H5A H -0.1045 0.2385 -0.7248
H6A H -0.1028 0.3046 -0.7934
H7A H -0.1821 0.2665 -0.7989
N4A N -0.4108(3) 0.5696(5) -0.8963(3)
H8A H -0.4575 0.5599 -0.9033
C8A C -0.1573(3) 0.5307(6) -0.6860(4)
C9A C -0.3074(3) 0.6460(6) -0.8906(3)
C10A C -0.3543(4) 0.4990(6) -0.8692(3)
C13A C -0.2615(5) 0.7262(8) -0.8992(5)
H10A H -0.2090 0.7044 -0.8811
H11A H -0.2629 0.7819 -0.8676
H12A H -0.2823 0.7455 -0.9544
C14A C -0.2088(4) 0.5023(7) -0.8393(4)
H13A H -0.1751 0.5479 -0.8494
H14A H -0.2147 0.4434 -0.8716
C19A C -0.3668(6) 0.4014(7) -0.8484(5)
H18A H -0.4202 0.3938 -0.8596
H19A H -0.3347 0.3903 -0.7924
H20A H -0.3539 0.3542 -0.8793
Co1B Co -0.44843(4) 0.78208(7) -0.94518(4)
Co1C Co 0.44843(4) 0.78208(7) 0.44518(4)
Co1F Co -0.55157(4) 0.21792(7) -0.05482(4)
N3B N -0.1151(3) 0.1563(5) -0.5889(3)
N3C N 0.1151(3) 0.1563(5) 0.0889(3)
O4A O 0.0498(3) 0.2639(6) -0.5456(5)
loop_
_geom_bond_atom_site_label_1
_geom_bond_atom_site_label_2
_geom_bond_site_symmetry_1
_geom_bond_site_symmetry_2
Co1 N2 1_555 1_555
N1 H1 1_555 1_555
N2 N1 1_555 1_555
C1 N2 1_555 1_555
C2 C1 1_555 1_555
N3 N4 1_555 1_555
C3 C9 1_555 1_555
C4 H2 1_555 1_555
H3 C4 1_555 1_555
H4 C4 1_555 1_555
C5 C1 1_555 1_555
H5 C5 1_555 1_555
H6 C5 1_555 1_555
H7 C5 1_555 1_555
N4 H8 1_555 1_555
C6 H9 1_555 1_555
C7 C6 1_555 1_555
O1 C11 1_555 1_555
C8 N1 1_555 1_555
C9 N3 1_555 1_555
C10 C3 1_555 1_555
O2 Co1 1_555 1_555
C11 O2 1_555 1_555
O3 C17 1_555 1_555
C12 C11 1_555 1_555
C13 C9 1_555 1_555
H10 C13 1_555 1_555
H11 C13 1_555 1_555
H12 C13 1_555 1_555
C14 C2 1_555 1_555
H13 C14 1_555 1_555
H14 C14 1_555 1_555
O4 Co1 1_555 1_555
C15 C12 1_555 1_555
H15 C15 1_555 1_555
C16 C6 1_555 1_555
H16 C16 1_555 1_555
C17 C7 1_555 1_555
C18 C12 1_555 1_555
H17 C18 1_555 1_555
C19 C10 1_555 1_555
H18 C19 1_555 1_555
H19 C19 1_555 1_555
H20 C19 1_555 1_555
C6F H9F 1_555 1_555
C7F C16 1_555 1_555
O3F C17F 1_555 1_555
O4F C17F 1_555 1_555
C16F C7 1_555 1_555
H16F C16F 1_555 1_555
C17F C7F 1_555 1_555
O1A C11A 1_555 1_555
O2A C11A 1_555 1_555
C11A C12A 1_555 1_555
C12A C15A 1_555 1_555
C15A C15 1_555 1_555
H15A C15A 1_555 1_555
C18A C18 1_555 1_555
H17A C18A 1_555 1_555
Co1A O2A 1_555 1_555
N1A H1A 1_555 1_555
N2A Co1A 1_555 1_555
C1A N2A 1_555 1_555
C2A C1A 1_555 1_555
N3A N4A 1_555 1_555
C3A C9A 1_555 1_555
C4A H2A 1_555 1_555
H3A C4A 1_555 1_555
H4A C4A 1_555 1_555
C5A C1A 1_555 1_555
H5A C5A 1_555 1_555
H6A C5A 1_555 1_555
H7A C5A 1_555 1_555
N4A H8A 1_555 1_555
C8A N1A 1_555 1_555
C9A N3A 1_555 1_555
C10A C3A 1_555 1_555
C13A C9A 1_555 1_555
H10A C13A 1_555 1_555
H11A C13A 1_555 1_555
H12A C13A 1_555 1_555
C14A C2A 1_555 1_555
H13A C14A 1_555 1_555
H14A C14A 1_555 1_555
C19A C10A 1_555 1_555
H18A C19A 1_555 1_555
H19A C19A 1_555 1_555
H20A C19A 1_555 1_555
Co1B N3A 1_555 1_555
Co1C N3 1_555 1_555
Co1F O4F 1_555 1_555
N3B Co1A 1_555 1_555
N3C Co1 1_555 1_555
O4A Co1A 1_555 1_555
C2 C8 1_555 1_555
C3 C14 1_555 1_555
C4 C8 1_555 1_555
N4 C10 1_555 1_555
O4 C17 1_555 1_555
C6F C7F 1_555 1_555
C6F C16F 1_555 1_555
C12A C18A 1_555 1_555
N1A N2A 1_555 1_555
C2A C8A 1_555 1_555
C3A C14A 1_555 1_555
C4A C8A 1_555 1_555
N4A C10A 1_555 1_555

#END
