
#######################################################################
#
#                 Cambridge Crystallographic Data Centre
#                                CCDC 
#
#######################################################################
#
# If this CIF has been generated from an entry in the Cambridge 
# Structural Database, then it will include bibliographic, chemical, 
# crystal, experimental, refinement or atomic coordinate data resulting 
# from the CCDC's data processing and validation procedures.
#
#######################################################################

data_FUSRUH
_symmetry_cell_setting           monoclinic
_symmetry_space_group_name_H-M   'P 21/n'
_symmetry_Int_Tables_number      14
_space_group_name_Hall           '-P 2yn'
loop_
_symmetry_equiv_pos_site_id
_symmetry_equiv_pos_as_xyz
1 x,y,z
2 1/2-x,1/2+y,1/2-z
3 -x,-y,-z
4 1/2+x,1/2-y,1/2+z
_cell_length_a                   6.5535(3)
_cell_length_b                   8.5529(4)
_cell_length_c                   13.7537(7)
_cell_angle_alpha                90
_cell_angle_beta                 92.9210(10)
_cell_angle_gamma                90
_cell_volume                     769.913
loop_
_atom_site_label
_atom_site_type_symbol
_atom_site_fract_x
_atom_site_fract_y
_atom_site_fract_z
Dy1 Dy 0.24569(2) 0.240414(15) 0.910162(9)
S1 S 0.24021(11) -0.16652(8) 0.97484(5)
O1 O 0.2488(4) 0.0040(3) 0.99279(17)
O2 O 0.4394(4) -0.2379(3) 1.0026(2)
O3 O 0.1889(4) -0.1969(3) 0.87235(18)
O4 O 0.0847(4) -0.2356(3) 1.0356(2)
O5 O 0.4473(3) 0.4431(3) 0.84081(16)
O6 O 0.0446(3) 0.4428(3) 0.82778(16)
O7 O 0.0453(3) 0.6055(3) 0.70010(16)
O8 O 0.4536(3) 0.6204(3) 0.72105(16)
O9 O 0.2379(4) 0.4210(3) 1.04255(17)
H1 H 0.1146 0.4372 1.0563
H2 H 0.2923 0.5067 1.0263
C1 C 0.3651(5) 0.5320(3) 0.7776(2)
C2 C 0.1306(5) 0.5276(3) 0.7675(2)
Dy1B Dy 0.75431(2) -0.240414(15) 1.089838(9)
Dy1B_2 Dy -0.24569(2) -0.240414(15) 1.089838(9)
Dy1A Dy 0.25431(2) 0.740414(15) 0.589838(9)
O2B O 0.5606(4) 0.2379(3) 0.9974(2)
O4B O -0.0847(4) 0.2356(3) 0.9644(2)
O7A O 0.4547(3) 0.1055(3) 0.79990(16)
O8A O 0.0464(3) 0.1204(3) 0.77895(16)
N1 N 0.7332(5) 0.3404(4) 0.6903(2)
loop_
_geom_bond_atom_site_label_1
_geom_bond_atom_site_label_2
_geom_bond_site_symmetry_1
_geom_bond_site_symmetry_2
Dy1 O1 1_555 1_555
S1 O1 1_555 1_555
O2 S1 1_555 1_555
O3 S1 1_555 1_555
O4 S1 1_555 1_555
O5 Dy1 1_555 1_555
O6 Dy1 1_555 1_555
O7 C2 1_555 1_555
O8 C1 1_555 1_555
O9 Dy1 1_555 1_555
H1 O9 1_555 1_555
H2 O9 1_555 1_555
C1 O5 1_555 1_555
C2 O6 1_555 1_555
Dy1B O2 1_555 1_555
Dy1B_2 O4 1_555 1_555
Dy1A O7 1_555 1_555
O2B Dy1 1_555 1_555
O4B Dy1 1_555 1_555
O7A Dy1 1_555 1_555
O8A Dy1 1_555 1_555
O8 Dy1A 1_555 1_555
C1 C2 1_555 1_555

#END
