
#######################################################################
#
#                 Cambridge Crystallographic Data Centre
#                                CCDC 
#
#######################################################################
#
# If this CIF has been generated from an entry in the Cambridge 
# Structural Database, then it will include bibliographic, chemical, 
# crystal, experimental, refinement or atomic coordinate data resulting 
# from the CCDC's data processing and validation procedures.
#
#######################################################################

data_FUSSER
_symmetry_cell_setting           orthorhombic
_symmetry_space_group_name_H-M   'P n m m'
_symmetry_Int_Tables_number      59
_space_group_name_Hall           '-P 2c 2bc'
loop_
_symmetry_equiv_pos_site_id
_symmetry_equiv_pos_as_xyz
1 x,y,z
2 -x,1/2+y,1/2+z
3 x,1/2-y,z
4 -x,-y,1/2+z
5 -x,-y,-z
6 x,1/2-y,1/2-z
7 -x,1/2+y,-z
8 x,y,1/2-z
_cell_length_a                   3.9921(7)
_cell_length_b                   10.6938(25)
_cell_length_c                   14.9947(62)
_cell_angle_alpha                90
_cell_angle_beta                 90
_cell_angle_gamma                90
_cell_volume                     640.135
loop_
_atom_site_label
_atom_site_type_symbol
_atom_site_fract_x
_atom_site_fract_y
_atom_site_fract_z
Cd1 Cd 0.0657(5) 0.2500 0.2500
Br1 Br 0.5670(5) 0.2500 0.1246(1)
O1 O 0.101(4) 0.4711(9) 0.2500
N1 N -0.140(3) 0.6359(8) 0.3240(6)
C1 C -0.059(5) 0.570(1) 0.2500
C2 C -0.325(4) 0.7500 0.3012(9)
C3 C -0.117(5) 0.583(1) 0.4131(7)
Br1_2 Br -0.4330(5) 0.2500 0.1246(1)
Br1E Br 0.5670(5) 0.2500 0.3754(1)
Br1E_2 Br -0.4330(5) 0.2500 0.3754(1)
O1B O 0.101(4) 0.0289(9) 0.2500
Cd1_2 Cd 1.0657(5) 0.2500 0.2500
N1G N -0.140(3) 0.6359(8) 0.1760(6)
N1B N -0.140(3) 0.8641(8) 0.3240(6)
C2E C -0.325(4) 0.7500 0.1988(9)
C3G C -0.117(5) 0.583(1) 0.0869(7)
C1B C -0.059(5) 0.930(1) 0.2500
C3B C -0.117(5) 0.917(1) 0.4131(7)
N1E N -0.140(3) 0.8641(8) 0.1760(6)
C3E C -0.117(5) 0.917(1) 0.0869(7)
O1B_2 O 0.101(4) 1.0289(9) 0.2500
Cd1_3 Cd 0.0657(5) 1.2500 0.2500
loop_
_geom_bond_atom_site_label_1
_geom_bond_atom_site_label_2
_geom_bond_site_symmetry_1
_geom_bond_site_symmetry_2
Cd1 Br1 1_555 1_555
Br1 Cd1_2 1_555 1_555
O1 Cd1 1_555 1_555
N1 C1 1_555 1_555
C1 O1 1_555 1_555
C2 N1 1_555 1_555
C3 N1 1_555 1_555
Br1_2 Cd1 1_555 1_555
Br1E Cd1 1_555 1_555
Br1E_2 Cd1 1_555 1_555
O1B Cd1 1_555 1_555
Cd1_2 Br1E 1_555 1_555
N1G C1 1_555 1_555
N1B C2 1_555 1_555
C2E C2 1_555 1_555
C3G N1G 1_555 1_555
C1B N1B 1_555 1_555
C3B N1B 1_555 1_555
N1E C2E 1_555 1_555
C3E N1E 1_555 1_555
O1B_2 C1B 1_555 1_555
Cd1_3 O1B_2 1_555 1_555
N1G C2E 1_555 1_555
C1B N1E 1_555 1_555

#END
