
#######################################################################
#
#                 Cambridge Crystallographic Data Centre
#                                CCDC 
#
#######################################################################
#
# If this CIF has been generated from an entry in the Cambridge 
# Structural Database, then it will include bibliographic, chemical, 
# crystal, experimental, refinement or atomic coordinate data resulting 
# from the CCDC's data processing and validation procedures.
#
#######################################################################

data_FUSSAO
_symmetry_cell_setting           monoclinic
_symmetry_space_group_name_H-M   'P 21/n'
_symmetry_Int_Tables_number      14
_space_group_name_Hall           '-P 2yn'
loop_
_symmetry_equiv_pos_site_id
_symmetry_equiv_pos_as_xyz
1 x,y,z
2 1/2-x,1/2+y,1/2-z
3 -x,-y,-z
4 1/2+x,1/2-y,1/2+z
_cell_length_a                   6.4752(9)
_cell_length_b                   8.4502(12)
_cell_length_c                   13.627(2)
_cell_angle_alpha                90
_cell_angle_beta                 93.028(3)
_cell_angle_gamma                90
_cell_volume                     744.584
loop_
_atom_site_label
_atom_site_type_symbol
_atom_site_fract_x
_atom_site_fract_y
_atom_site_fract_z
Er1 Er 0.24576(6) 0.24042(4) 0.90952(3)
S1 S 0.2418(3) -0.1668(2) 0.97529(17)
O1 O 0.2514(9) 0.0066(7) 0.9922(5)
O2 O 0.4411(9) -0.2369(7) 1.0042(5)
O3 O 0.1938(11) -0.1980(8) 0.8719(5)
O4 O 0.0849(9) -0.2349(7) 1.0357(5)
O5 O 0.4491(9) 0.4423(7) 0.8402(5)
O6 O 0.0455(9) 0.4417(7) 0.8274(5)
O7 O 0.0456(10) 0.6049(7) 0.7000(5)
O8 O 0.4528(10) 0.6179(7) 0.7194(5)
O9 O 0.2369(11) 0.4210(8) 1.0403(5)
H1 H 0.3037 0.3831 1.0903
H2 H 0.2921 0.5076 1.0237
C1 C 0.3615(14) 0.5300(10) 0.7754(8)
C2 C 0.1314(14) 0.5273(10) 0.7669(7)
Er1B Er 0.75424(6) -0.24042(4) 1.09048(3)
Er1B_2 Er -0.24576(6) -0.24042(4) 1.09048(3)
Er1A Er 0.25424(6) 0.74042(4) 0.59048(3)
O2B O 0.5589(9) 0.2369(7) 0.9958(5)
O4B O -0.0849(9) 0.2349(7) 0.9643(5)
O7A O 0.4544(10) 0.1049(7) 0.8000(5)
O8A O 0.0472(10) 0.1179(7) 0.7806(5)
N1 N 0.7328(12) 0.3392(9) 0.6894(6)
loop_
_geom_bond_atom_site_label_1
_geom_bond_atom_site_label_2
_geom_bond_site_symmetry_1
_geom_bond_site_symmetry_2
Er1 O1 1_555 1_555
S1 O1 1_555 1_555
O2 S1 1_555 1_555
O3 S1 1_555 1_555
O4 S1 1_555 1_555
O5 Er1 1_555 1_555
O6 Er1 1_555 1_555
O7 C2 1_555 1_555
O8 C1 1_555 1_555
O9 Er1 1_555 1_555
H1 O9 1_555 1_555
H2 O9 1_555 1_555
C1 O5 1_555 1_555
C2 O6 1_555 1_555
Er1B O2 1_555 1_555
Er1B_2 O4 1_555 1_555
Er1A O7 1_555 1_555
O2B Er1 1_555 1_555
O4B Er1 1_555 1_555
O7A Er1 1_555 1_555
O8A Er1 1_555 1_555
O8 Er1A 1_555 1_555
C1 C2 1_555 1_555

#END
