
#######################################################################
#
#                 Cambridge Crystallographic Data Centre
#                                CCDC 
#
#######################################################################
#
# If this CIF has been generated from an entry in the Cambridge 
# Structural Database, then it will include bibliographic, chemical, 
# crystal, experimental, refinement or atomic coordinate data resulting 
# from the CCDC's data processing and validation procedures.
#
#######################################################################

data_FUSSUI
_symmetry_cell_setting           monoclinic
_symmetry_space_group_name_H-M   'P 21/c'
_symmetry_Int_Tables_number      14
_space_group_name_Hall           '-P 2ybc'
loop_
_symmetry_equiv_pos_site_id
_symmetry_equiv_pos_as_xyz
1 x,y,z
2 -x,1/2+y,1/2-z
3 -x,-y,-z
4 x,1/2-y,1/2+z
_cell_length_a                   8.1421(7)
_cell_length_b                   11.9078(10)
_cell_length_c                   9.3459(8)
_cell_angle_alpha                90
_cell_angle_beta                 107.7910(10)
_cell_angle_gamma                90
_cell_volume                     862.794
loop_
_atom_site_label
_atom_site_type_symbol
_atom_site_fract_x
_atom_site_fract_y
_atom_site_fract_z
Dy1 Dy 0.36697(2) 0.091526(14) 0.17346(2)
S1 S 0.29306(12) 0.12267(8) -0.21176(10)
O1 O 0.2619(5) 0.1620(3) -0.0730(4)
O2 O 0.4452(4) 0.0478(3) -0.1680(4)
O3 O 0.1447(5) 0.0636(4) -0.3069(5)
O4 O 0.3327(5) 0.2205(3) -0.2913(4)
O5 O 0.2000(4) -0.0606(3) 0.0233(4)
O6 O -0.0595(4) -0.1120(3) -0.1264(4)
O7 O 0.5662(5) 0.1185(3) 0.4243(4)
O8 O 0.6905(4) 0.0296(3) 0.6419(4)
O9 O 0.6136(4) 0.1833(3) 0.1253(4)
H1 H 0.7047 0.1476 0.1704
H2 H 0.5988 0.1839 0.0318
C1 C 0.0406(5) -0.0490(3) -0.0301(5)
C2 C 0.5749(5) 0.0431(4) 0.5199(5)
Dy1B Dy 0.63303(2) -0.091526(14) -0.17346(2)
Dy1C Dy 0.36697(2) 0.408474(14) -0.32654(2)
Dy1B_2 Dy -0.36697(2) -0.091526(14) -0.17346(2)
Dy1B_3 Dy 0.63303(2) -0.091526(14) 0.82654(2)
Dy1A Dy 0.63303(2) -0.408474(14) 0.32654(2)
S1B S 0.70694(12) -0.12267(8) 0.21176(10)
O1B O 0.7381(5) -0.1620(3) 0.0730(4)
O2B O 0.5548(4) -0.0478(3) 0.1680(4)
O3B O 0.8553(5) -0.0636(4) 0.3069(5)
O4B O 0.6673(5) -0.2205(3) 0.2913(4)
O4C O 0.3327(5) 0.2795(3) 0.2087(4)
O4A O 0.6673(5) -0.2795(3) -0.2087(4)
O5B O -0.2000(4) 0.0606(3) -0.0233(4)
O5B_2 O 0.8000(4) 0.0606(3) -0.0233(4)
O6B O 0.0595(4) 0.1120(3) 0.1264(4)
O6_2 O 0.9405(4) -0.1120(3) -0.1264(4)
O7B O 0.4338(5) -0.1185(3) 0.5757(4)
O7B_2 O 0.4338(5) -0.1185(3) -0.4243(4)
O8B O 0.3095(4) -0.0296(3) 0.3581(4)
O8_2 O 0.6905(4) 0.0296(3) -0.3581(4)
O9B O 0.3864(4) -0.1833(3) -0.1253(4)
H1B H 0.2953 -0.1476 -0.1704
H2B H 0.4012 -0.1839 -0.0318
C1B C -0.0406(5) 0.0490(3) 0.0301(5)
C2B C 0.4251(5) -0.0431(4) 0.4801(5)
Cs1 Cs -0.05489(4) 0.32366(3) -0.09275(4)
loop_
_geom_bond_atom_site_label_1
_geom_bond_atom_site_label_2
_geom_bond_site_symmetry_1
_geom_bond_site_symmetry_2
Dy1 O1 1_555 1_555
S1 O1 1_555 1_555
O2 S1 1_555 1_555
O3 S1 1_555 1_555
O4 S1 1_555 1_555
O5 Dy1 1_555 1_555
O6 C1 1_555 1_555
O7 Dy1 1_555 1_555
O8 C2 1_555 1_555
O9 Dy1 1_555 1_555
H1 O9 1_555 1_555
H2 O9 1_555 1_555
C1 O5 1_555 1_555
C2 O7 1_555 1_555
Dy1B O2 1_555 1_555
Dy1C O4 1_555 1_555
Dy1B_2 O6 1_555 1_555
Dy1B_3 O8 1_555 1_555
Dy1A O4B 1_555 1_555
S1B O1B 1_555 1_555
O1B Dy1B 1_555 1_555
O2B Dy1 1_555 1_555
O3B S1B 1_555 1_555
O4B S1B 1_555 1_555
O4C Dy1 1_555 1_555
O4A Dy1B 1_555 1_555
O5B Dy1B_2 1_555 1_555
O5B_2 Dy1B 1_555 1_555
O6B Dy1 1_555 1_555
O6_2 Dy1B 1_555 1_555
O7B Dy1B_3 1_555 1_555
O7B_2 Dy1B 1_555 1_555
O8B Dy1 1_555 1_555
O8_2 Dy1B 1_555 1_555
O9B Dy1B 1_555 1_555
H1B O9B 1_555 1_555
H2B O9B 1_555 1_555
C1B C1 1_555 1_555
C2B C2 1_555 1_555
S1B O2B 1_555 1_555
O5B C1B 1_555 1_555
O6B C1B 1_555 1_555
O7B C2B 1_555 1_555
O8B C2B 1_555 1_555

#END
