
#######################################################################
#
#                 Cambridge Crystallographic Data Centre
#                                CCDC 
#
#######################################################################
#
# If this CIF has been generated from an entry in the Cambridge 
# Structural Database, then it will include bibliographic, chemical, 
# crystal, experimental, refinement or atomic coordinate data resulting 
# from the CCDC's data processing and validation procedures.
#
#######################################################################

data_FUSSOC01
_symmetry_cell_setting           monoclinic
_symmetry_space_group_name_H-M   'P 21/c'
_symmetry_Int_Tables_number      14
_space_group_name_Hall           '-P 2ybc'
loop_
_symmetry_equiv_pos_site_id
_symmetry_equiv_pos_as_xyz
1 x,y,z
2 -x,1/2+y,1/2-z
3 -x,-y,-z
4 x,1/2-y,1/2+z
_cell_length_a                   6.551(2)
_cell_length_b                   8.512(3)
_cell_length_c                   14.719(4)
_cell_angle_alpha                90
_cell_angle_beta                 112.515(12)
_cell_angle_gamma                90
_cell_volume                     758.203
loop_
_atom_site_label
_atom_site_type_symbol
_atom_site_fract_x
_atom_site_fract_y
_atom_site_fract_z
Dy1 Dy 1.16628(2) -0.239677(17) -0.087855(12)
S1 S 0.75864(13) -0.16400(9) 0.02313(6)
O1 O 1.3169(4) -0.4083(3) 0.0506(2)
H1 H 1.3777 -0.5006 0.0447
H2 H 1.3130 -0.3799 0.1088
O2 O 0.8949(4) -0.4436(3) -0.15657(19)
O3 O 1.2824(4) -0.4446(3) -0.17210(19)
O4 O 1.1539(4) -0.6079(3) -0.30086(19)
O5 O 0.7953(5) -0.1896(4) 0.1257(2)
O6 O 0.9393(5) -0.2363(3) 0.0012(2)
O7 O 0.5485(5) -0.2359(3) -0.0416(3)
O8 O 0.7684(4) -0.6241(3) -0.2753(2)
O9 O 0.7480(4) 0.0067(3) 0.0021(2)
C1 C 0.9144(5) -0.5352(4) -0.2203(3)
C2 C 1.1361(5) -0.5306(4) -0.2319(3)
Dy1_2 Dy 0.16628(2) -0.239677(17) -0.087855(12)
Dy1A Dy 0.83372(2) -0.739677(17) -0.412145(12)
Dy1B Dy 0.83372(2) 0.239677(17) 0.087855(12)
O4A O 0.8461(4) -0.1079(3) -0.19914(19)
O7_2 O 1.5485(5) -0.2359(3) -0.0416(3)
O8A O 1.2316(4) -0.1241(3) -0.2247(2)
O9B O 1.2520(4) -0.0067(3) -0.0021(2)
K1 K 0.46747(15) -0.34338(12) -0.30155(7)
loop_
_geom_bond_atom_site_label_1
_geom_bond_atom_site_label_2
_geom_bond_site_symmetry_1
_geom_bond_site_symmetry_2
Dy1 O1 1_555 1_555
S1 O5 1_555 1_555
O1 H1 1_555 1_555
H2 O1 1_555 1_555
O2 Dy1 1_555 1_555
O3 Dy1 1_555 1_555
O4 C2 1_555 1_555
O6 Dy1 1_555 1_555
O7 S1 1_555 1_555
O8 C1 1_555 1_555
O9 S1 1_555 1_555
C1 O2 1_555 1_555
C2 O3 1_555 1_555
Dy1_2 O7 1_555 1_555
Dy1A O4 1_555 1_555
Dy1B O9 1_555 1_555
O4A Dy1 1_555 1_555
O7_2 Dy1 1_555 1_555
O8A Dy1 1_555 1_555
O9B Dy1 1_555 1_555
S1 O6 1_555 1_555
O8 Dy1A 1_555 1_555
C1 C2 1_555 1_555

#END
