
#######################################################################
#
#                 Cambridge Crystallographic Data Centre
#                                CCDC 
#
#######################################################################
#
# If this CIF has been generated from an entry in the Cambridge 
# Structural Database, then it will include bibliographic, chemical, 
# crystal, experimental, refinement or atomic coordinate data resulting 
# from the CCDC's data processing and validation procedures.
#
#######################################################################

data_FUSWEW
_symmetry_cell_setting           monoclinic
_symmetry_space_group_name_H-M   'P 21/c'
_symmetry_Int_Tables_number      14
_space_group_name_Hall           '-P 2ybc'
loop_
_symmetry_equiv_pos_site_id
_symmetry_equiv_pos_as_xyz
1 x,y,z
2 -x,1/2+y,1/2-z
3 -x,-y,-z
4 x,1/2-y,1/2+z
_cell_length_a                   11.1039(6)
_cell_length_b                   11.3999(6)
_cell_length_c                   21.9492(11)
_cell_angle_alpha                90
_cell_angle_beta                 104.6200(10)
_cell_angle_gamma                90
_cell_volume                     2688.44
loop_
_atom_site_label
_atom_site_type_symbol
_atom_site_fract_x
_atom_site_fract_y
_atom_site_fract_z
Cu1 Cu 0.72180(3) 0.36812(3) 0.122580(14)
Cu2 Cu 0.5000 0.5000 0.0000
Cl1 Cl 0.91532(6) 0.29144(6) 0.14792(3)
Cl2 Cl 0.57507(6) 0.28030(5) 0.02940(3)
N1 N 0.76797(19) 0.49028(18) 0.06646(10)
N2 N 0.68258(19) 0.54151(18) 0.02039(10)
N3 N 0.73567(19) 0.62383(18) -0.00682(10)
N4 N 0.8785(2) 0.53804(19) 0.07069(10)
N5 N 1.1347(2) 0.8406(2) -0.00788(11)
N6 N 0.5905(2) 0.48659(18) 0.13686(10)
N7 N 0.49922(19) 0.52712(18) 0.09070(10)
N8 N 0.42143(19) 0.59269(19) 0.11354(10)
N9 N 0.5757(2) 0.52484(19) 0.19177(10)
N10 N 0.3320(2) 0.76742(19) 0.31373(10)
C1 C 0.8561(2) 0.6193(2) 0.02516(12)
C2 C 0.9532(2) 0.6971(2) 0.01335(12)
C3 C 0.9220(3) 0.8000(2) -0.02138(12)
H2 H 0.8373 0.8214 -0.0376
C4 C 1.0157(3) 0.8701(2) -0.03175(12)
H3 H 0.9957 0.9398 -0.0560
C5 C 1.1680(2) 0.7427(2) 0.02614(12)
H4 H 1.2536 0.7245 0.0425
C6 C 1.0782(2) 0.6691(2) 0.03716(12)
H5 H 1.1012 0.5993 0.0609
C7 C 0.4717(2) 0.5888(2) 0.17593(11)
C8 C 0.4213(2) 0.6509(2) 0.22287(12)
C9 C 0.2992(2) 0.6889(2) 0.20981(12)
H6 H 0.2446 0.6759 0.1695
C10 C 0.2577(3) 0.7463(2) 0.25632(12)
H7 H 0.1735 0.7715 0.2472
C11 C 0.4505(2) 0.7314(2) 0.32595(12)
H8 H 0.5038 0.7468 0.3663
C12 C 0.4980(3) 0.6729(2) 0.28243(13)
H9 H 0.5823 0.6479 0.2929
H27 H 1.195(3) 0.889(3) -0.0123(16)
Cu1B Cu 0.27820(3) 0.63188(3) -0.122580(14)
Cu1A Cu 0.27820(3) 0.86812(3) 0.377420(14)
Cu1C Cu 0.72180(3) 0.13188(3) -0.377420(14)
Cl1B Cl 0.08468(6) 0.70856(6) -0.14792(3)
Cl2B Cl 0.42493(6) 0.71970(5) -0.02940(3)
N1B N 0.23203(19) 0.50972(18) -0.06646(10)
N2B N 0.31742(19) 0.45849(18) -0.02039(10)
N3B N 0.26433(19) 0.37617(18) 0.00682(10)
N4B N 0.1215(2) 0.46196(19) -0.07069(10)
N5B N -0.1347(2) 0.1594(2) 0.00788(11)
N6B N 0.4095(2) 0.51341(18) -0.13686(10)
N7B N 0.50078(19) 0.47288(18) -0.09070(10)
N8B N 0.57857(19) 0.40731(19) -0.11354(10)
N9B N 0.4243(2) 0.47516(19) -0.19177(10)
N10B N 0.6680(2) 0.23258(19) -0.31373(10)
N10A N 0.6680(2) 0.26742(19) 0.18627(10)
N10C N 0.3320(2) 0.73258(19) -0.18627(10)
C1B C 0.1439(2) 0.3807(2) -0.02516(12)
C2B C 0.0468(2) 0.3029(2) -0.01335(12)
C3B C 0.0780(3) 0.2000(2) 0.02138(12)
H2B H 0.1627 0.1786 0.0376
C4B C -0.0157(3) 0.1299(2) 0.03175(12)
H3B H 0.0043 0.0602 0.0560
C5B C -0.1680(2) 0.2573(2) -0.02614(12)
H4B H -0.2536 0.2755 -0.0425
C6B C -0.0782(2) 0.3309(2) -0.03716(12)
H5B H -0.1012 0.4007 -0.0609
C7B C 0.5283(2) 0.4112(2) -0.17593(11)
C8B C 0.5787(2) 0.3491(2) -0.22287(12)
C9B C 0.7008(2) 0.3111(2) -0.20981(12)
H6B H 0.7554 0.3241 -0.1695
C10B C 0.7423(3) 0.2537(2) -0.25632(12)
H7B H 0.8265 0.2285 -0.2472
C11B C 0.5495(2) 0.2686(2) -0.32595(12)
H8B H 0.4962 0.2532 -0.3663
C12B C 0.5020(3) 0.3271(2) -0.28243(13)
H9B H 0.4177 0.3521 -0.2929
H27B H -0.195(3) 0.111(3) 0.0123(16)
O1 O 0.2676(2) 0.01661(18) 0.95743(10)
N11 N 0.3971(2) 0.0943(2) 0.90246(11)
C13 C 0.3622(3) 0.0118(2) 0.93747(14)
H10 H 0.4136 -0.0555 0.9479
C14 C 0.3258(3) 0.2010(3) 0.88547(15)
H11 H 0.2484 0.1956 0.8990
H12 H 0.3061 0.2116 0.8397
H13 H 0.3746 0.2681 0.9062
C15 C 0.5145(3) 0.0860(3) 0.88511(16)
H14 H 0.5566 0.0129 0.9017
H15 H 0.5674 0.1529 0.9028
H16 H 0.4990 0.0868 0.8391
O2 O 0.1438(3) -0.0582(2) 0.12846(11)
N12 N 0.0704(3) 0.0122(2) 0.20965(12)
C16 C 0.1572(3) -0.0035(3) 0.17773(16)
H17 H 0.2365 0.0309 0.1949
C17 C 0.0926(3) 0.0854(3) 0.26584(15)
H18 H 0.1817 0.1028 0.2804
H19 H 0.0651 0.0438 0.2990
H20 H 0.0460 0.1589 0.2559
C18 C -0.0537(3) -0.0358(4) 0.18689(19)
H21 H -0.0572 -0.0837 0.1494
H22 H -0.1139 0.0285 0.1761
H23 H -0.0738 -0.0845 0.2198
O3 O 0.1464(2) 0.4571(2) 0.14035(13)
H1 H 0.0731 0.4339 0.1368
C19 C 0.2302(3) 0.3677(3) 0.16738(16)
H24 H 0.2882 0.3536 0.1411
H25 H 0.1839 0.2956 0.1702
H26 H 0.2768 0.3916 0.2096
loop_
_geom_bond_atom_site_label_1
_geom_bond_atom_site_label_2
_geom_bond_site_symmetry_1
_geom_bond_site_symmetry_2
Cu1 Cl1 1_555 1_555
Cu2 Cl2 1_555 1_555
Cl2 Cu1 1_555 1_555
O1 C13 1_555 1_555
O2 C16 1_555 1_555
O3 H1 1_555 1_555
N1 Cu1 1_555 1_555
N2 Cu2 1_555 1_555
N3 N2 1_555 1_555
N4 N1 1_555 1_555
N5 C4 1_555 1_555
N6 Cu1 1_555 1_555
N7 Cu2 1_555 1_555
N8 N7 1_555 1_555
N9 N6 1_555 1_555
N10 C10 1_555 1_555
N11 C13 1_555 1_555
N12 C16 1_555 1_555
C1 N3 1_555 1_555
C2 C1 1_555 1_555
C3 C2 1_555 1_555
H2 C3 1_555 1_555
C4 C3 1_555 1_555
H3 C4 1_555 1_555
C5 N5 1_555 1_555
H4 C5 1_555 1_555
C6 C2 1_555 1_555
H5 C6 1_555 1_555
C7 N8 1_555 1_555
C8 C7 1_555 1_555
C9 C8 1_555 1_555
H6 C9 1_555 1_555
C10 C9 1_555 1_555
H7 C10 1_555 1_555
C11 N10 1_555 1_555
H8 C11 1_555 1_555
C12 C8 1_555 1_555
H9 C12 1_555 1_555
C13 H10 1_555 1_555
C14 N11 1_555 1_555
H11 C14 1_555 1_555
H12 C14 1_555 1_555
H13 C14 1_555 1_555
C15 N11 1_555 1_555
H14 C15 1_555 1_555
H15 C15 1_555 1_555
H16 C15 1_555 1_555
C16 H17 1_555 1_555
C17 N12 1_555 1_555
H18 C17 1_555 1_555
H19 C17 1_555 1_555
H20 C17 1_555 1_555
C18 N12 1_555 1_555
H21 C18 1_555 1_555
H22 C18 1_555 1_555
H23 C18 1_555 1_555
C19 O3 1_555 1_555
H24 C19 1_555 1_555
H25 C19 1_555 1_555
H26 C19 1_555 1_555
H27 N5 1_555 1_555
Cu1B Cl1B 1_555 1_555
Cu1A N10 1_555 1_555
Cu1C N10B 1_555 1_555
Cl2B Cu2 1_555 1_555
N1B Cu1B 1_555 1_555
N2B Cu2 1_555 1_555
N3B N2B 1_555 1_555
N4B N1B 1_555 1_555
N5B C4B 1_555 1_555
N6B Cu1B 1_555 1_555
N7B Cu2 1_555 1_555
N8B N7B 1_555 1_555
N9B N6B 1_555 1_555
N10B C10B 1_555 1_555
N10A Cu1 1_555 1_555
N10C Cu1B 1_555 1_555
C1B N3B 1_555 1_555
C2B C1B 1_555 1_555
C3B C2B 1_555 1_555
H2B C3B 1_555 1_555
C4B C3B 1_555 1_555
H3B C4B 1_555 1_555
C5B N5B 1_555 1_555
H4B C5B 1_555 1_555
C6B C2B 1_555 1_555
H5B C6B 1_555 1_555
C7B N8B 1_555 1_555
C8B C7B 1_555 1_555
C9B C8B 1_555 1_555
H6B C9B 1_555 1_555
C10B C9B 1_555 1_555
H7B C10B 1_555 1_555
C11B N10B 1_555 1_555
H8B C11B 1_555 1_555
C12B C8B 1_555 1_555
H9B C12B 1_555 1_555
H27B N5B 1_555 1_555
N1 N2 1_555 1_555
N4 C1 1_555 1_555
N6 N7 1_555 1_555
N9 C7 1_555 1_555
C5 C6 1_555 1_555
C11 C12 1_555 1_555
Cu1B Cl2B 1_555 1_555
N1B N2B 1_555 1_555
N4B C1B 1_555 1_555
N6B N7B 1_555 1_555
N9B C7B 1_555 1_555
C5B C6B 1_555 1_555
C11B C12B 1_555 1_555

#END
