
#######################################################################
#
#                 Cambridge Crystallographic Data Centre
#                                CCDC 
#
#######################################################################
#
# If this CIF has been generated from an entry in the Cambridge 
# Structural Database, then it will include bibliographic, chemical, 
# crystal, experimental, refinement or atomic coordinate data resulting 
# from the CCDC's data processing and validation procedures.
#
#######################################################################

data_FUSXIB
_symmetry_cell_setting           monoclinic
_symmetry_space_group_name_H-M   'P 21/c'
_symmetry_Int_Tables_number      14
_space_group_name_Hall           '-P 2ybc'
loop_
_symmetry_equiv_pos_site_id
_symmetry_equiv_pos_as_xyz
1 x,y,z
2 -x,1/2+y,1/2-z
3 -x,-y,-z
4 x,1/2-y,1/2+z
_cell_length_a                   9.434(4)
_cell_length_b                   20.618(9)
_cell_length_c                   10.040(4)
_cell_angle_alpha                90
_cell_angle_beta                 102.587(6)
_cell_angle_gamma                90
_cell_volume                     1905.95
loop_
_atom_site_label
_atom_site_type_symbol
_atom_site_fract_x
_atom_site_fract_y
_atom_site_fract_z
Cu1 Cu 1.02008(4) 0.56180(2) 0.74265(4)
Cu2 Cu 0.80839(4) 0.501743(19) 0.48956(4)
O1 O 0.8557(2) 0.58575(11) 0.5871(2)
O2 O 1.3666(3) 0.68278(15) 1.0805(3)
H1 H 1.3692 0.7226 1.0985
O3 O 0.3473(2) 0.52318(12) 0.3576(3)
N1 N 0.9783(3) 0.47914(13) 0.6382(3)
N2 N 0.9910(4) 0.42373(17) 0.6893(3)
N3 N 1.0001(5) 0.3740(2) 0.7322(5)
N4 N 1.1749(3) 0.52061(16) 0.8823(3)
N5 N 1.1637(3) 0.50622(14) 0.9942(3)
N6 N 1.1589(3) 0.49163(16) 1.1051(3)
N7 N 1.1904(3) 0.58468(15) 0.5981(3)
N8 N 1.2604(4) 0.63115(16) 0.5882(4)
N9 N 1.3316(6) 0.6771(2) 0.5877(6)
N10 N 1.0258(3) 0.64927(15) 0.8226(3)
N11 N 0.6538(3) 0.54109(15) 0.3498(3)
C1 C 0.8053(3) 0.64407(16) 0.5481(4)
C2 C 0.8555(4) 0.70000(17) 0.6286(4)
C3 C 0.8015(4) 0.76147(18) 0.5837(4)
H2 H 0.8360 0.7980 0.6390
C4 C 0.7003(4) 0.77167(18) 0.4628(4)
C5 C 0.6504(4) 0.71717(18) 0.3866(4)
H3 H 0.5804 0.7226 0.3037
C6 C 0.6987(4) 0.65411(18) 0.4263(4)
C7 C 0.9560(4) 0.69800(18) 0.7613(4)
H4 H 0.9720 0.7382 0.8086
C8 C 0.6485(4) 0.8392(2) 0.4170(5)
H5 H 0.6047 0.8595 0.4867
H6 H 0.5761 0.8366 0.3308
H7 H 0.7311 0.8654 0.4039
C9 C 0.6280(4) 0.60204(19) 0.3380(4)
H8 H 0.5538 0.6149 0.2626
C10 C 1.1201(4) 0.66308(19) 0.9581(4)
H9 H 1.1139 0.6267 1.0210
H10 H 1.0857 0.7029 0.9963
C11 C 1.2766(4) 0.6721(2) 0.9470(5)
H11 H 1.3102 0.6330 0.9057
H12 H 1.2839 0.7096 0.8875
C12 C 0.5520(4) 0.49795(18) 0.2564(4)
H13 H 0.6063 0.4616 0.2266
H14 H 0.5032 0.5225 0.1744
C13 C 0.4395(3) 0.47168(17) 0.3300(4)
H15 H 0.3800 0.4382 0.2728
H16 H 0.4890 0.4511 0.4168
H17 H 0.295(3) 0.5276(17) 0.283(2)
Cu1B Cu 0.97992(4) 0.43820(2) 1.25735(4)
Cu2B Cu 0.19161(4) 0.498257(19) 0.51044(4)
Cu2B_2 Cu 1.19161(4) 0.498257(19) 0.51044(4)
O3B O 0.6527(2) 0.47682(12) 0.6424(3)
N1B N 1.0217(3) 0.52086(13) 0.3618(3)
N6B N 0.8411(3) 0.50837(16) 0.8949(3)
N7B N 0.8096(3) 0.41532(15) 0.4019(3)
H17B H 0.705(3) 0.4724(17) 0.717(2)
loop_
_geom_bond_atom_site_label_1
_geom_bond_atom_site_label_2
_geom_bond_site_symmetry_1
_geom_bond_site_symmetry_2
Cu1 O1 1_555 1_555
Cu2 O1 1_555 1_555
O1 C1 1_555 1_555
O2 H1 1_555 1_555
O3 C13 1_555 1_555
N1 Cu1 1_555 1_555
N2 N1 1_555 1_555
N3 N2 1_555 1_555
N4 Cu1 1_555 1_555
N5 N4 1_555 1_555
N6 N5 1_555 1_555
N7 Cu1 1_555 1_555
N8 N7 1_555 1_555
N9 N8 1_555 1_555
N10 Cu1 1_555 1_555
N11 Cu2 1_555 1_555
C1 C2 1_555 1_555
C2 C3 1_555 1_555
C3 H2 1_555 1_555
C4 C3 1_555 1_555
C5 C4 1_555 1_555
H3 C5 1_555 1_555
C6 C1 1_555 1_555
C7 N10 1_555 1_555
H4 C7 1_555 1_555
C8 C4 1_555 1_555
H5 C8 1_555 1_555
H6 C8 1_555 1_555
H7 C8 1_555 1_555
C9 N11 1_555 1_555
H8 C9 1_555 1_555
C10 N10 1_555 1_555
H9 C10 1_555 1_555
H10 C10 1_555 1_555
C11 O2 1_555 1_555
H11 C11 1_555 1_555
H12 C11 1_555 1_555
C12 N11 1_555 1_555
H13 C12 1_555 1_555
H14 C12 1_555 1_555
C13 C12 1_555 1_555
H15 C13 1_555 1_555
H16 C13 1_555 1_555
H17 O3 1_555 1_555
Cu1B N6 1_555 1_555
Cu2B O3 1_555 1_555
Cu2B_2 N1 1_555 1_555
O3B Cu2 1_555 1_555
N1B Cu2 1_555 1_555
N6B Cu1 1_555 1_555
N7B Cu2 1_555 1_555
H17B O3B 1_555 1_555
Cu2 N1 1_555 1_555
N7 Cu2B_2 1_555 1_555
C2 C7 1_555 1_555
C5 C6 1_555 1_555
C6 C9 1_555 1_555
C10 C11 1_555 1_555
Cu2B_2 N1B 1_555 1_555

#END
