
#######################################################################
#
#                 Cambridge Crystallographic Data Centre
#                                CCDC 
#
#######################################################################
#
# If this CIF has been generated from an entry in the Cambridge 
# Structural Database, then it will include bibliographic, chemical, 
# crystal, experimental, refinement or atomic coordinate data resulting 
# from the CCDC's data processing and validation procedures.
#
#######################################################################

data_FUSXEX
_symmetry_cell_setting           monoclinic
_symmetry_space_group_name_H-M   'P 21/c'
_symmetry_Int_Tables_number      14
_space_group_name_Hall           '-P 2ybc'
loop_
_symmetry_equiv_pos_site_id
_symmetry_equiv_pos_as_xyz
1 x,y,z
2 -x,1/2+y,1/2-z
3 -x,-y,-z
4 x,1/2-y,1/2+z
_cell_length_a                   12.1834(10)
_cell_length_b                   22.8445(18)
_cell_length_c                   6.9771(6)
_cell_angle_alpha                90
_cell_angle_beta                 102.7070(10)
_cell_angle_gamma                90
_cell_volume                     1894.33
loop_
_atom_site_label
_atom_site_type_symbol
_atom_site_fract_x
_atom_site_fract_y
_atom_site_fract_z
Cu1 Cu 0.86885(2) 0.495250(13) 0.29903(4)
Cu2 Cu 1.07346(2) 0.562259(13) 0.20647(4)
O2 O 0.91435(14) 0.57500(7) 0.2320(3)
O3 O 1.40114(15) 0.68027(9) 0.2622(3)
H3 H 1.4106 0.7154 0.2980
O4 O 0.52328(17) 0.39382(9) 0.2370(4)
H4 H 0.4602 0.4088 0.2360
N1 N 1.09520(17) 0.64530(9) 0.1553(3)
N2 N 0.71571(17) 0.52233(9) 0.3046(3)
N3 N 1.02650(17) 0.48413(9) 0.2781(3)
N4 N 1.07206(19) 0.43644(10) 0.2648(4)
N5 N 1.1136(3) 0.39356(13) 0.2564(5)
N6 N 0.85668(18) 0.42247(10) 0.4442(3)
N7 N 0.87909(18) 0.37385(9) 0.3948(3)
N8 N 0.8980(3) 0.32685(11) 0.3577(4)
N9 N 1.18805(18) 0.53387(10) 0.0658(3)
N10 N 1.2629(2) 0.50089(10) 0.1387(4)
N11 N 1.3360(2) 0.47003(15) 0.2015(4)
C1 C 0.8574(2) 0.62494(11) 0.2205(3)
C2 C 0.9078(2) 0.67904(10) 0.1878(4)
C3 C 0.8463(2) 0.73140(11) 0.1831(4)
H5 H 0.8822 0.7672 0.1647
C4 C 0.7356(2) 0.73305(11) 0.2040(4)
C5 C 0.6867(2) 0.67978(11) 0.2293(4)
H6 H 0.6102 0.6794 0.2397
C6 C 0.7441(2) 0.62628(11) 0.2404(3)
C7 C 0.6710(2) 0.78926(12) 0.1978(4)
H7 H 0.6060 0.7884 0.0866
H8 H 0.7199 0.8222 0.1825
H9 H 0.6451 0.7938 0.3204
C8 C 1.0215(2) 0.68552(11) 0.1593(4)
H10 H 1.0447 0.7244 0.1411
C9 C 1.2046(2) 0.66616(11) 0.1208(4)
H11 H 1.1978 0.7079 0.0821
H12 H 1.2235 0.6437 0.0109
C10 C 1.2987(2) 0.65935(14) 0.3012(4)
H13 H 1.2803 0.6816 0.4118
H14 H 1.3068 0.6176 0.3394
C11 C 0.6821(2) 0.57537(11) 0.2788(4)
H15 H 0.6062 0.5822 0.2858
C12 C 0.6331(2) 0.47971(11) 0.3472(4)
H16 H 0.5667 0.5011 0.3712
H17 H 0.6671 0.4579 0.4684
C13 C 0.5955(2) 0.43682(11) 0.1813(4)
H18 H 0.5549 0.4579 0.0628
H19 H 0.6620 0.4175 0.1495
Cu2B Cu 0.92654(2) 0.437741(13) 0.79353(4)
N6B N 1.14332(18) 0.57753(10) 0.5558(3)
O1 O 0.4132(2) 0.78888(10) 0.3837(4)
H1 H 0.436(3) 0.8174(13) 0.326(5)
H2 H 0.411(3) 0.7975(17) 0.499(3)
loop_
_geom_bond_atom_site_label_1
_geom_bond_atom_site_label_2
_geom_bond_site_symmetry_1
_geom_bond_site_symmetry_2
O1 H1 1_555 1_555
H2 O1 1_555 1_555
Cu1 O2 1_555 1_555
Cu2 O2 1_555 1_555
O2 C1 1_555 1_555
O3 H3 1_555 1_555
O4 H4 1_555 1_555
N1 Cu2 1_555 1_555
N2 Cu1 1_555 1_555
N3 Cu1 1_555 1_555
N4 N3 1_555 1_555
N5 N4 1_555 1_555
N6 Cu1 1_555 1_555
N7 N6 1_555 1_555
N8 N7 1_555 1_555
N9 Cu2 1_555 1_555
N10 N9 1_555 1_555
N11 N10 1_555 1_555
C1 C2 1_555 1_555
C2 C3 1_555 1_555
C3 H5 1_555 1_555
C4 C3 1_555 1_555
C5 C4 1_555 1_555
H6 C5 1_555 1_555
C6 C1 1_555 1_555
C7 C4 1_555 1_555
H7 C7 1_555 1_555
H8 C7 1_555 1_555
H9 C7 1_555 1_555
C8 N1 1_555 1_555
H10 C8 1_555 1_555
C9 N1 1_555 1_555
H11 C9 1_555 1_555
H12 C9 1_555 1_555
C10 O3 1_555 1_555
H13 C10 1_555 1_555
H14 C10 1_555 1_555
C11 N2 1_555 1_555
H15 C11 1_555 1_555
C12 N2 1_555 1_555
H16 C12 1_555 1_555
H17 C12 1_555 1_555
C13 O4 1_555 1_555
H18 C13 1_555 1_555
H19 C13 1_555 1_555
Cu2B N6 1_555 1_555
N6B Cu2 1_555 1_555
Cu2 N3 1_555 1_555
C2 C8 1_555 1_555
C5 C6 1_555 1_555
C6 C11 1_555 1_555
C9 C10 1_555 1_555
C12 C13 1_555 1_555

#END
