
#######################################################################
#
#                 Cambridge Crystallographic Data Centre
#                                CCDC 
#
#######################################################################
#
# If this CIF has been generated from an entry in the Cambridge 
# Structural Database, then it will include bibliographic, chemical, 
# crystal, experimental, refinement or atomic coordinate data resulting 
# from the CCDC's data processing and validation procedures.
#
#######################################################################

data_FUSYUO
_symmetry_cell_setting           trigonal
_symmetry_space_group_name_H-M   'P 31 2 1'
_symmetry_Int_Tables_number      152
_space_group_name_Hall           'P 31 2"'
loop_
_symmetry_equiv_pos_site_id
_symmetry_equiv_pos_as_xyz
1 x,y,z
2 -y,x-y,1/3+z
3 -x+y,-x,2/3+z
4 y,x,-z
5 x-y,-y,2/3-z
6 -x,-x+y,1/3-z
_cell_length_a                   26.698(4)
_cell_length_b                   26.698(4)
_cell_length_c                   7.9535(16)
_cell_angle_alpha                90
_cell_angle_beta                 90
_cell_angle_gamma                120
_cell_volume                     4909.6
loop_
_atom_site_label
_atom_site_type_symbol
_atom_site_fract_x
_atom_site_fract_y
_atom_site_fract_z
O1 O 0.0291(2) 0.4165(3) 0.4355(6)
O2 O 0.0703(3) 0.3911(3) 0.2443(7)
O3 O 0.3208(3) 0.3911(4) 1.4224(7)
O4 O 0.3871(2) 0.4166(3) 1.2315(6)
O5 O 0.0673(4) 0.5060(5) 0.0722(13)
O6 O 0.0668(5) 0.5598(5) 0.2611(14)
Cd1 Cd 0.0000 0.41882(2) 0.1667
Cd2 Cd 0.4188 0.41882(2) 1.5000
C1 C 0.0655(3) 0.4027(3) 0.3931(8)
C2 C 0.10252(18) 0.3974(3) 0.5272(4)
C3 C 0.1447(2) 0.3840(3) 0.4808(4)
H1 H 0.1489 0.3771 0.3685
C4 C 0.18062(19) 0.3811(2) 0.6021(4)
H2 H 0.2088 0.3722 0.5711
C5 C 0.17434(12) 0.39149(14) 0.7699(3)
C6 C 0.13215(17) 0.4048(3) 0.8163(4)
H3 H 0.1279 0.4118 0.9286
C7 C 0.0962(2) 0.4077(3) 0.6949(5)
H4 H 0.0680 0.4167 0.7260
C8 C 0.21761(13) 0.39262(14) 0.8959(4)
C9 C 0.27292(16) 0.4053(3) 0.8495(4)
H5 H 0.2841 0.4121 0.7372
C10 C 0.31153(18) 0.4076(3) 0.9708(5)
H6 H 0.3485 0.4161 0.9397
C11 C 0.29483(19) 0.3973(3) 1.1385(4)
C12 C 0.23953(19) 0.3847(3) 1.1850(4)
H7 H 0.2284 0.3778 1.2972
C13 C 0.20092(15) 0.3823(2) 1.0637(4)
H8 H 0.1639 0.3739 1.0948
C14 C 0.3368(3) 0.4020(3) 1.2743(9)
C15 C 0.0905(3) 0.5454(4) 0.1668(14)
C16 C 0.1468(3) 0.5516(5) 0.2368(12)
C17 C 0.1707(4) 0.5308(6) 0.1201(11)
H9 H 0.1537 0.5186 0.0149
C18 C 0.2201(3) 0.5284(5) 0.1605(9)
H10 H 0.2361 0.5144 0.0824
C19 C 0.2456(2) 0.5467(3) 0.3177(7)
C20 C 0.2217(3) 0.5675(5) 0.4344(9)
H11 H 0.2387 0.5798 0.5396
C21 C 0.1723(4) 0.5700(5) 0.3940(12)
H12 H 0.1563 0.5839 0.4721
C22 C 0.3028(2) 0.5489(3) 0.3511(7)
C23 C 0.3477(3) 0.5696(5) 0.2351(9)
H13 H 0.3435 0.5825 0.1304
C24 C 0.3990(3) 0.5709(5) 0.2758(12)
H14 H 0.4291 0.5848 0.1982
C25 C 0.1463(3) 0.5946(5) 0.0990(12)
C26 C 0.1705(4) 0.6395(6) 0.2149(11)
H15 H 0.1534 0.6353 0.3197
C27 C 0.3091(3) 0.5296(5) 0.5076(9)
H16 H 0.2791 0.5158 0.5852
C25A C 0.4054(5) 0.5517(6) 0.4323(12)
C24B C 0.1719(6) 0.6010(3) -0.0575(12)
C27B C 0.2205(6) 0.6909(3) 0.1743(9)
C26A C 0.3605(6) 0.5310(7) 0.5482(11)
O1E O -0.0291(2) 0.3874(4) -0.1022(6)
O2E O -0.0703(3) 0.3208(4) 0.0890(7)
O3E O -0.3208(3) 0.0703(5) -1.0891(7)
O4E O -0.3871(2) 0.0295(4) -0.8982(6)
C1E C -0.0655(3) 0.3372(4) -0.0598(8)
C2E C -0.10252(18) 0.29488(35) -0.1939(4)
C3E C -0.1447(2) 0.2393(4) -0.1475(4)
H1E H -0.1489 0.2282 -0.0352
C4E C -0.18062(19) 0.20048(28) -0.2688(4)
H2E H -0.2088 0.1634 -0.2378
C5E C -0.17434(12) 0.21715(18) -0.4366(3)
C6E C -0.13215(17) 0.27265(34) -0.4830(4)
H3E H -0.1279 0.2839 -0.5953
C7E C -0.0962(2) 0.3115(4) -0.3616(5)
H4E H -0.0680 0.3487 -0.3927
C8E C -0.21761(13) 0.17501(19) -0.5626(4)
C9E C -0.27292(16) 0.13238(34) -0.5162(4)
H5E H -0.2841 0.1280 -0.4039
C10E C -0.31153(18) 0.09607(35) -0.6375(5)
H6E H -0.3485 0.0676 -0.6064
C11E C -0.29483(19) 0.10247(36) -0.8052(4)
C12E C -0.23953(19) 0.14517(36) -0.8517(4)
H7E H -0.2284 0.1494 -0.9639
C13E C -0.20092(15) 0.18138(25) -0.7304(4)
H8E H -0.1639 0.2100 -0.7615
C14E C -0.3368(3) 0.0652(4) -0.9410(9)
O5E O -0.0673(4) 0.4387(6) 0.2611(13)
O6E O -0.0668(5) 0.4930(7) 0.0722(14)
C15E C -0.0905(3) 0.4549(5) 0.1665(14)
C16E C -0.1468(3) 0.4048(6) 0.0965(12)
C17E C -0.1707(4) 0.3601(7) 0.2132(11)
H9E H -0.1537 0.3649 0.3184
C18E C -0.2201(3) 0.3083(6) 0.1728(9)
H10E H -0.2361 0.2783 0.2509
C19E C -0.2456(2) 0.3011(4) 0.0156(7)
C20E C -0.2217(3) 0.3458(6) -0.1011(9)
H11E H -0.2387 0.3411 -0.2063
C21E C -0.1723(4) 0.3977(6) -0.0607(12)
H12E H -0.1563 0.4276 -0.1388
C22E C -0.3028(2) 0.2461(4) -0.0178(7)
C23E C -0.3477(3) 0.2219(6) 0.0982(9)
H13E H -0.3435 0.2390 0.2029
C24E C -0.3990(3) 0.1719(6) 0.0575(12)
H14E H -0.4291 0.1557 0.1351
C25E C -0.1463(3) 0.4483(6) 0.2343(12)
C26E C -0.1705(4) 0.4690(7) 0.1184(11)
H15E H -0.1534 0.4819 0.0136
C27E C -0.3091(3) 0.2205(6) -0.1743(9)
H16E H -0.2791 0.2367 -0.2519
C25C C -0.4054(5) 0.1463(3) -0.0990(12)
C24D C -0.1719(6) 0.4291(5) 0.3909(12)
C27D C -0.2205(6) 0.4704(5) 0.1591(9)
C26C C -0.3605(6) 0.1705(4) -0.2149(11)
Cd2E Cd -0.4188 0.00002(2) -1.1667
Cd2B Cd 0.00002(2) 0.5812 0.1667
O1C O 0.4165(3) 0.0291(2) 2.5645(6)
O2C O 0.3911(3) 0.0703(3) 2.7557(7)
O3C O 0.3911(4) 0.3208(3) 1.5776(7)
O4C O 0.4166(3) 0.3871(2) 1.7685(6)
C1C C 0.4027(3) 0.0655(3) 2.6069(8)
C2C C 0.3974(3) 0.10252(18) 2.4728(4)
C3C C 0.3840(3) 0.1447(2) 2.5192(4)
H1C H 0.3771 0.1489 2.6315
C4C C 0.3811(2) 0.18062(19) 2.3979(4)
H2C H 0.3722 0.2088 2.4289
C5C C 0.39149(14) 0.17434(12) 2.2301(3)
C6C C 0.4048(3) 0.13215(17) 2.1837(4)
H3C H 0.4118 0.1279 2.0714
C7C C 0.4077(3) 0.0962(2) 2.3051(5)
H4C H 0.4167 0.0680 2.2740
C8C C 0.39262(14) 0.21761(13) 2.1041(4)
C9C C 0.4053(3) 0.27292(16) 2.1505(4)
H5C H 0.4121 0.2841 2.2628
C10C C 0.4076(3) 0.31153(18) 2.0292(5)
H6C H 0.4161 0.3485 2.0603
C11C C 0.3973(3) 0.29483(19) 1.8615(4)
C12C C 0.3847(3) 0.23953(19) 1.8150(4)
H7C H 0.3778 0.2284 1.7028
C13C C 0.3823(2) 0.20092(15) 1.9363(4)
H8C H 0.3739 0.1639 1.9052
C14C C 0.4020(3) 0.3368(3) 1.7257(9)
O1A O -0.4165(3) -0.3874(4) -2.2312(6)
O2A O -0.3911(3) -0.3208(4) -2.4224(7)
O3A O -0.3911(4) -0.0703(5) -1.2443(7)
O4A O -0.4166(3) -0.0295(4) -1.4352(6)
C1A C -0.4027(3) -0.3372(4) -2.2736(8)
C2A C -0.3974(3) -0.29488(35) -2.1395(4)
C3A C -0.3840(3) -0.2393(4) -2.1859(4)
H1A H -0.3771 -0.2282 -2.2982
C4A C -0.3811(2) -0.20048(28) -2.0646(4)
H2A H -0.3722 -0.1634 -2.0956
C5A C -0.39149(14) -0.21715(18) -1.8968(3)
C6A C -0.4048(3) -0.27265(34) -1.8504(4)
H3A H -0.4118 -0.2839 -1.7381
C7A C -0.4077(3) -0.3115(4) -1.9718(5)
H4A H -0.4167 -0.3487 -1.9407
C8A C -0.39262(14) -0.17501(19) -1.7708(4)
C9A C -0.4053(3) -0.13238(34) -1.8172(4)
H5A H -0.4121 -0.1280 -1.9295
C10A C -0.4076(3) -0.09607(35) -1.6959(5)
H6A H -0.4161 -0.0676 -1.7270
C11A C -0.3973(3) -0.10247(36) -1.5282(4)
C12A C -0.3847(3) -0.14517(36) -1.4817(4)
H7A H -0.3778 -0.1494 -1.3695
C13A C -0.3823(2) -0.18138(25) -1.6030(4)
H8A H -0.3739 -0.2100 -1.5719
C14A C -0.4020(3) -0.0652(4) -1.3924(9)
O1B O 0.3874(4) 0.9709(2) -0.8978(6)
O2B O 0.3208(4) 0.9297(3) -1.0890(7)
O3B O 0.0703(5) 0.6792(3) 0.0891(7)
O4B O 0.0295(4) 0.6129(2) -0.1018(6)
C1B C 0.3372(4) 0.9345(3) -0.9402(8)
C2B C 0.29488(35) 0.89748(18) -0.8061(4)
C3B C 0.2393(4) 0.8553(2) -0.8525(4)
H1B H 0.2282 0.8511 -0.9648
C4B C 0.20048(28) 0.81938(19) -0.7312(4)
H2B H 0.1634 0.7912 -0.7622
C5B C 0.21715(18) 0.82566(12) -0.5634(3)
C6B C 0.27265(34) 0.86785(17) -0.5170(4)
H3B H 0.2839 0.8721 -0.4047
C7B C 0.3115(4) 0.9038(2) -0.6384(5)
H4B H 0.3487 0.9320 -0.6073
C8B C 0.17501(19) 0.78239(13) -0.4374(4)
C9B C 0.13238(34) 0.72708(16) -0.4838(4)
H5B H 0.1280 0.7159 -0.5961
C10B C 0.09607(35) 0.68847(18) -0.3625(5)
H6B H 0.0676 0.6515 -0.3936
C11B C 0.10247(36) 0.70517(19) -0.1948(4)
C12B C 0.14517(36) 0.76047(19) -0.1483(4)
H7B H 0.1494 0.7716 -0.0361
C13B C 0.18138(25) 0.79908(15) -0.2696(4)
H8B H 0.2100 0.8361 -0.2385
C14B C 0.0652(4) 0.6632(3) -0.0590(9)
O1D O -0.3874(4) 0.5835(3) 1.2312(6)
O2D O -0.3208(4) 0.6089(3) 1.4224(7)
O3D O -0.0703(5) 0.6089(4) 0.2443(7)
O4D O -0.0295(4) 0.5834(3) 0.4352(6)
C1D C -0.3372(4) 0.5973(3) 1.2736(8)
C2D C -0.29488(35) 0.6026(3) 1.1395(4)
C3D C -0.2393(4) 0.6160(3) 1.1859(4)
H1D H -0.2282 0.6229 1.2982
C4D C -0.20048(28) 0.6189(2) 1.0646(4)
H2D H -0.1634 0.6278 1.0956
C5D C -0.21715(18) 0.60851(14) 0.8968(3)
C6D C -0.27265(34) 0.5952(3) 0.8504(4)
H3D H -0.2839 0.5882 0.7381
C7D C -0.3115(4) 0.5923(3) 0.9718(5)
H4D H -0.3487 0.5833 0.9407
C8D C -0.17501(19) 0.60738(14) 0.7708(4)
C9D C -0.13238(34) 0.5947(3) 0.8172(4)
H5D H -0.1280 0.5879 0.9295
C10D C -0.09607(35) 0.5924(3) 0.6959(5)
H6D H -0.0676 0.5839 0.7270
C11D C -0.10247(36) 0.6027(3) 0.5282(4)
C12D C -0.14517(36) 0.6153(3) 0.4817(4)
H7D H -0.1494 0.6222 0.3695
C13D C -0.18138(25) 0.6177(2) 0.6030(4)
H8D H -0.2100 0.6261 0.5719
C14D C -0.0652(4) 0.5980(3) 0.3924(9)
Cd1C Cd 0.41882(2) 0.0000 2.8333
Cd1A Cd -0.41882(2) -0.41882(2) -2.5000
Cd1B Cd 0.41882(2) 1.0000 -1.1666
Cd1D Cd -0.41882(2) 0.58118(2) 1.5000
O1B_2 O 0.3874(4) -0.0291(2) 3.1022(6)
O2B_2 O 0.3208(4) -0.0703(3) 2.9110(7)
O3B_2 O 0.0703(5) -0.3208(3) 4.0891(7)
O4B_2 O 0.0295(4) -0.3871(2) 3.8982(6)
C1B_2 C 0.3372(4) -0.0655(3) 3.0598(8)
C2B_2 C 0.29488(35) -0.10252(18) 3.1939(4)
C3B_2 C 0.2393(4) -0.1447(2) 3.1475(4)
H1B_2 H 0.2282 -0.1489 3.0352
C4B_2 C 0.20048(28) -0.18062(19) 3.2688(4)
H2B_2 H 0.1634 -0.2088 3.2378
C5B_2 C 0.21715(18) -0.17434(12) 3.4366(3)
C6B_2 C 0.27265(34) -0.13215(17) 3.4830(4)
H3B_2 H 0.2839 -0.1279 3.5953
C7B_2 C 0.3115(4) -0.0962(2) 3.3616(5)
H4B_2 H 0.3487 -0.0680 3.3927
C8B_2 C 0.17501(19) -0.21761(13) 3.5626(4)
C9B_2 C 0.13238(34) -0.27292(16) 3.5162(4)
H5B_2 H 0.1280 -0.2841 3.4039
C10B_2 C 0.09607(35) -0.31153(18) 3.6375(5)
H6B_2 H 0.0676 -0.3485 3.6064
C11B_2 C 0.10247(36) -0.29483(19) 3.8052(4)
C12B_2 C 0.14517(36) -0.23953(19) 3.8517(4)
H7B_2 H 0.1494 -0.2284 3.9639
C13B_2 C 0.18138(25) -0.20092(15) 3.7304(4)
H8B_2 H 0.2100 -0.1639 3.7615
C14B_2 C 0.0652(4) -0.3368(3) 3.9410(9)
O1D_2 O -0.3874(4) -0.4165(3) -2.7688(6)
O2D_2 O -0.3208(4) -0.3911(3) -2.5776(7)
O3D_2 O -0.0703(5) -0.3911(4) -3.7557(7)
O4D_2 O -0.0295(4) -0.4166(3) -3.5648(6)
C1D_2 C -0.3372(4) -0.4027(3) -2.7264(8)
C2D_2 C -0.29488(35) -0.3974(3) -2.8605(4)
C3D_2 C -0.2393(4) -0.3840(3) -2.8141(4)
H1D_2 H -0.2282 -0.3771 -2.7018
C4D_2 C -0.20048(28) -0.3811(2) -2.9354(4)
H2D_2 H -0.1634 -0.3722 -2.9044
C5D_2 C -0.21715(18) -0.39149(14) -3.1032(3)
C6D_2 C -0.27265(34) -0.4048(3) -3.1496(4)
H3D_2 H -0.2839 -0.4118 -3.2619
C7D_2 C -0.3115(4) -0.4077(3) -3.0282(5)
H4D_2 H -0.3487 -0.4167 -3.0593
C8D_2 C -0.17501(19) -0.39262(14) -3.2292(4)
C9D_2 C -0.13238(34) -0.4053(3) -3.1828(4)
H5D_2 H -0.1280 -0.4121 -3.0705
C10D_2 C -0.09607(35) -0.4076(3) -3.3041(5)
H6D_2 H -0.0676 -0.4161 -3.2730
C11D_2 C -0.10247(36) -0.3973(3) -3.4718(4)
C12D_2 C -0.14517(36) -0.3847(3) -3.5183(4)
H7D_2 H -0.1494 -0.3778 -3.6305
C13D_2 C -0.18138(25) -0.3823(2) -3.3970(4)
H8D_2 H -0.2100 -0.3739 -3.4281
C14D_2 C -0.0652(4) -0.4020(3) -3.6076(9)
O1C_2 O 0.4165(3) 1.0291(2) -1.4355(6)
O2C_2 O 0.3911(3) 1.0703(3) -1.2443(7)
O3C_2 O 0.3911(4) 1.3208(3) -2.4224(7)
O4C_2 O 0.4166(3) 1.3871(2) -2.2315(6)
C1C_2 C 0.4027(3) 1.0655(3) -1.3931(8)
C2C_2 C 0.3974(3) 1.10252(18) -1.5272(4)
C3C_2 C 0.3840(3) 1.1447(2) -1.4808(4)
H1C_2 H 0.3771 1.1489 -1.3685
C4C_2 C 0.3811(2) 1.18062(19) -1.6021(4)
H2C_2 H 0.3722 1.2088 -1.5711
C5C_2 C 0.39149(14) 1.17434(12) -1.7699(3)
C6C_2 C 0.4048(3) 1.13215(17) -1.8163(4)
H3C_2 H 0.4118 1.1279 -1.9286
C7C_2 C 0.4077(3) 1.0962(2) -1.6949(5)
H4C_2 H 0.4167 1.0680 -1.7260
C8C_2 C 0.39262(14) 1.21761(13) -1.8959(4)
C9C_2 C 0.4053(3) 1.27292(16) -1.8495(4)
H5C_2 H 0.4121 1.2841 -1.7372
C10C_2 C 0.4076(3) 1.31153(18) -1.9708(5)
H6C_2 H 0.4161 1.3485 -1.9397
C11C_2 C 0.3973(3) 1.29483(19) -2.1385(4)
C12C_2 C 0.3847(3) 1.23953(19) -2.1850(4)
H7C_2 H 0.3778 1.2284 -2.2972
C13C_2 C 0.3823(2) 1.20092(15) -2.0637(4)
H8C_2 H 0.3739 1.1639 -2.0948
C14C_2 C 0.4020(3) 1.3368(3) -2.2743(9)
O1A_2 O -0.4165(3) 0.6126(4) 1.7688(6)
O2A_2 O -0.3911(3) 0.6792(4) 1.5776(7)
O3A_2 O -0.3911(4) 0.9297(5) 2.7557(7)
O4A_2 O -0.4166(3) 0.9705(4) 2.5648(6)
C1A_2 C -0.4027(3) 0.6628(4) 1.7264(8)
C2A_2 C -0.3974(3) 0.70512(35) 1.8605(4)
C3A_2 C -0.3840(3) 0.7607(4) 1.8141(4)
H1A_2 H -0.3771 0.7718 1.7018
C4A_2 C -0.3811(2) 0.79952(28) 1.9354(4)
H2A_2 H -0.3722 0.8366 1.9044
C5A_2 C -0.39149(14) 0.78285(18) 2.1032(3)
C6A_2 C -0.4048(3) 0.72735(34) 2.1496(4)
H3A_2 H -0.4118 0.7161 2.2619
C7A_2 C -0.4077(3) 0.6885(4) 2.0282(5)
H4A_2 H -0.4167 0.6513 2.0593
C8A_2 C -0.39262(14) 0.82499(19) 2.2292(4)
C9A_2 C -0.4053(3) 0.86762(34) 2.1828(4)
H5A_2 H -0.4121 0.8720 2.0705
C10A_2 C -0.4076(3) 0.90393(35) 2.3041(5)
H6A_2 H -0.4161 0.9324 2.2730
C11A_2 C -0.3973(3) 0.89753(36) 2.4718(4)
C12A_2 C -0.3847(3) 0.85483(36) 2.5183(4)
H7A_2 H -0.3778 0.8506 2.6305
C13A_2 C -0.3823(2) 0.81862(25) 2.3970(4)
H8A_2 H -0.3739 0.7900 2.4281
C14A_2 C -0.4020(3) 0.9348(4) 2.6076(9)
Cd2B_2 Cd 0.00002(2) -0.4188 4.1667
Cd2D Cd -0.00002(2) -0.41882(2) -3.8333
Cd2C Cd 0.41882(2) 1.4188 -2.5000
Cd2A Cd -0.41882(2) 0.99998(2) 2.8333
O1_2 O 0.0291(2) 1.4165(3) -3.5645(6)
O2_2 O 0.0703(3) 1.3911(3) -3.7557(7)
O3_2 O 0.3208(3) 1.3911(4) -2.5776(7)
O4_2 O 0.3871(2) 1.4166(3) -2.7685(6)
C1_2 C 0.0655(3) 1.4027(3) -3.6069(8)
C2_2 C 0.10252(18) 1.3974(3) -3.4728(4)
C3_2 C 0.1447(2) 1.3840(3) -3.5192(4)
H1_2 H 0.1489 1.3771 -3.6315
C4_2 C 0.18062(19) 1.3811(2) -3.3979(4)
H2_2 H 0.2088 1.3722 -3.4289
C5_2 C 0.17434(12) 1.39149(14) -3.2301(3)
C6_2 C 0.13215(17) 1.4048(3) -3.1837(4)
H3_2 H 0.1279 1.4118 -3.0714
C7_2 C 0.0962(2) 1.4077(3) -3.3051(5)
H4_2 H 0.0680 1.4167 -3.2740
C8_2 C 0.21761(13) 1.39262(14) -3.1041(4)
C9_2 C 0.27292(16) 1.4053(3) -3.1505(4)
H5_2 H 0.2841 1.4121 -3.2628
C10_2 C 0.31153(18) 1.4076(3) -3.0292(5)
H6_2 H 0.3485 1.4161 -3.0603
C11_2 C 0.29483(19) 1.3973(3) -2.8615(4)
C12_2 C 0.23953(19) 1.3847(3) -2.8150(4)
H7_2 H 0.2284 1.3778 -2.7028
C13_2 C 0.20092(15) 1.3823(2) -2.9363(4)
H8_2 H 0.1639 1.3739 -2.9052
C14_2 C 0.3368(3) 1.4020(3) -2.7257(9)
O1E_2 O -0.0291(2) 1.3874(4) 3.8978(6)
O2E_2 O -0.0703(3) 1.3208(4) 4.0890(7)
O3E_2 O -0.3208(3) 1.0703(5) 2.9109(7)
O4E_2 O -0.3871(2) 1.0295(4) 3.1018(6)
C1E_2 C -0.0655(3) 1.3372(4) 3.9402(8)
C2E_2 C -0.10252(18) 1.29488(35) 3.8061(4)
C3E_2 C -0.1447(2) 1.2393(4) 3.8525(4)
H1E_2 H -0.1489 1.2282 3.9648
C4E_2 C -0.18062(19) 1.20048(28) 3.7312(4)
H2E_2 H -0.2088 1.1634 3.7622
C5E_2 C -0.17434(12) 1.21715(18) 3.5634(3)
C6E_2 C -0.13215(17) 1.27265(34) 3.5170(4)
H3E_2 H -0.1279 1.2839 3.4047
C7E_2 C -0.0962(2) 1.3115(4) 3.6384(5)
H4E_2 H -0.0680 1.3487 3.6073
C8E_2 C -0.21761(13) 1.17501(19) 3.4374(4)
C9E_2 C -0.27292(16) 1.13238(34) 3.4838(4)
H5E_2 H -0.2841 1.1280 3.5961
C10E_2 C -0.31153(18) 1.09607(35) 3.3625(5)
H6E_2 H -0.3485 1.0676 3.3936
C11E_2 C -0.29483(19) 1.10247(36) 3.1948(4)
C12E_2 C -0.23953(19) 1.14517(36) 3.1483(4)
H7E_2 H -0.2284 1.1494 3.0361
C13E_2 C -0.20092(15) 1.18138(25) 3.2696(4)
H8E_2 H -0.1639 1.2100 3.2385
C14E_2 C -0.3368(3) 1.0652(4) 3.0590(9)
Cd1_2 Cd 0.0000 1.41882(2) -3.8333
Cd1E Cd 0.0000 1.41882(2) 4.1666
O1E_3 O -0.0291(2) 1.3874(4) -4.1022(6)
O2E_3 O -0.0703(3) 1.3208(4) -3.9110(7)
O3E_3 O -0.3208(3) 1.0703(5) -5.0891(7)
O4E_3 O -0.3871(2) 1.0295(4) -4.8982(6)
C1E_3 C -0.0655(3) 1.3372(4) -4.0598(8)
C2E_3 C -0.10252(18) 1.29488(35) -4.1939(4)
C3E_3 C -0.1447(2) 1.2393(4) -4.1475(4)
H1E_3 H -0.1489 1.2282 -4.0352
C4E_3 C -0.18062(19) 1.20048(28) -4.2688(4)
H2E_3 H -0.2088 1.1634 -4.2378
C5E_3 C -0.17434(12) 1.21715(18) -4.4366(3)
C6E_3 C -0.13215(17) 1.27265(34) -4.4830(4)
H3E_3 H -0.1279 1.2839 -4.5953
C7E_3 C -0.0962(2) 1.3115(4) -4.3616(5)
H4E_3 H -0.0680 1.3487 -4.3927
C8E_3 C -0.21761(13) 1.17501(19) -4.5626(4)
C9E_3 C -0.27292(16) 1.13238(34) -4.5162(4)
H5E_3 H -0.2841 1.1280 -4.4039
C10E_3 C -0.31153(18) 1.09607(35) -4.6375(5)
H6E_3 H -0.3485 1.0676 -4.6064
C11E_3 C -0.29483(19) 1.10247(36) -4.8052(4)
C12E_3 C -0.23953(19) 1.14517(36) -4.8517(4)
H7E_3 H -0.2284 1.1494 -4.9639
C13E_3 C -0.20092(15) 1.18138(25) -4.7304(4)
H8E_3 H -0.1639 1.2100 -4.7615
C14E_3 C -0.3368(3) 1.0652(4) -4.9410(9)
O1_3 O 0.0291(2) 1.4165(3) 4.4355(6)
O2_3 O 0.0703(3) 1.3911(3) 4.2443(7)
O3_3 O 0.3208(3) 1.3911(4) 5.4224(7)
O4_3 O 0.3871(2) 1.4166(3) 5.2315(6)
C1_3 C 0.0655(3) 1.4027(3) 4.3931(8)
C2_3 C 0.10252(18) 1.3974(3) 4.5272(4)
C3_3 C 0.1447(2) 1.3840(3) 4.4808(4)
H1_3 H 0.1489 1.3771 4.3685
C4_3 C 0.18062(19) 1.3811(2) 4.6021(4)
H2_3 H 0.2088 1.3722 4.5711
C5_3 C 0.17434(12) 1.39149(14) 4.7699(3)
C6_3 C 0.13215(17) 1.4048(3) 4.8163(4)
H3_3 H 0.1279 1.4118 4.9286
C7_3 C 0.0962(2) 1.4077(3) 4.6949(5)
H4_3 H 0.0680 1.4167 4.7260
C8_3 C 0.21761(13) 1.39262(14) 4.8959(4)
C9_3 C 0.27292(16) 1.4053(3) 4.8495(4)
H5_3 H 0.2841 1.4121 4.7372
C10_3 C 0.31153(18) 1.4076(3) 4.9708(5)
H6_3 H 0.3485 1.4161 4.9397
C11_3 C 0.29483(19) 1.3973(3) 5.1385(4)
C12_3 C 0.23953(19) 1.3847(3) 5.1850(4)
H7_3 H 0.2284 1.3778 5.2972
C13_3 C 0.20092(15) 1.3823(2) 5.0637(4)
H8_3 H 0.1639 1.3739 5.0948
C14_3 C 0.3368(3) 1.4020(3) 5.2743(9)
Cd2E_2 Cd -0.4188 1.00002(2) -5.1667
Cd2_2 Cd 0.4188 1.41882(2) 5.5000
O6A O 0.4402(5) 0.5070(7) 1.5944(14)
O6D O 0.5070(7) 0.4402(5) 1.4056(14)
C15A C 0.4546(4) 0.5451(5) 0.5001(14)
C23B C 0.2219(6) 0.6523(3) -0.0982(9)
H14B H 0.1557 0.5709 -0.1351
C22B C 0.2461(4) 0.6972(2) 0.0178(7)
H16B H 0.2367 0.7209 0.2519
H15A H 0.3647 0.5181 0.6530
C15C C -0.4546(4) 0.0905(3) -0.1668(14)
C23D C -0.2219(6) 0.4304(5) 0.4316(9)
H14D H -0.1557 0.4152 0.4685
C22D C -0.2461(4) 0.4511(3) 0.3156(7)
H16D H -0.2367 0.4842 0.0815
H15C H -0.3647 0.1534 -0.3197
O6C O -0.4402(5) 0.0668(5) -1.2611(14)
O6B O -0.5070(7) -0.0668(5) -1.0722(14)
O5C O 0.5060(5) 0.0673(4) 2.9278(13)
O5B O 0.4387(6) -0.0673(4) 2.7389(13)
O5A O -0.5060(5) -0.4387(6) -2.5945(13)
O5D O -0.4387(6) -0.5060(5) -2.4055(13)
O5B_2 O 0.4387(6) 0.9327(4) -1.2611(13)
O5C_2 O 0.5060(5) 1.0673(4) -1.0722(13)
O5D_2 O -0.4387(6) 0.4940(5) 1.5945(13)
O5A_2 O -0.5060(5) 0.5613(6) 1.4055(13)
loop_
_geom_bond_atom_site_label_1
_geom_bond_atom_site_label_2
_geom_bond_site_symmetry_1
_geom_bond_site_symmetry_2
O1 Cd1 1_555 1_555
O2 Cd1 1_555 1_555
O3 Cd2 1_555 1_555
O4 Cd2 1_555 1_555
O5 Cd1 1_555 1_555
O6 C15 1_555 1_555
Cd1 O1E 1_555 1_555
Cd2 O3C 1_555 1_555
C1 O1 1_555 1_555
C2 C1 1_555 1_555
C3 C2 1_555 1_555
H1 C3 1_555 1_555
C4 C3 1_555 1_555
H2 C4 1_555 1_555
C5 C4 1_555 1_555
C6 C5 1_555 1_555
H3 C6 1_555 1_555
C7 C2 1_555 1_555
H4 C7 1_555 1_555
C8 C5 1_555 1_555
C9 C8 1_555 1_555
H5 C9 1_555 1_555
C10 C9 1_555 1_555
H6 C10 1_555 1_555
C11 C10 1_555 1_555
C12 C11 1_555 1_555
H7 C12 1_555 1_555
C13 C8 1_555 1_555
H8 C13 1_555 1_555
C14 O3 1_555 1_555
C15 O5 1_555 1_555
C16 C15 1_555 1_555
C17 C16 1_555 1_555
H9 C17 1_555 1_555
C18 C17 1_555 1_555
H10 C18 1_555 1_555
C19 C18 1_555 1_555
C20 C19 1_555 1_555
H11 C20 1_555 1_555
C21 C16 1_555 1_555
H12 C21 1_555 1_555
C22 C19 1_555 1_555
C23 C22 1_555 1_555
H13 C23 1_555 1_555
C24 C23 1_555 1_555
H14 C24 1_555 1_555
C25 C15 1_555 1_555
C26 C25 1_555 1_555
H15 C26 1_555 1_555
C27 C22 1_555 1_555
H16 C27 1_555 1_555
C25A C24 1_555 1_555
C24B C25 1_555 1_555
C27B C26 1_555 1_555
C26A C27 1_555 1_555
O1E C1E 1_555 1_555
O2E Cd1 1_555 1_555
O3E C14E 1_555 1_555
O4E C14E 1_555 1_555
C1E O2E 1_555 1_555
C2E C1E 1_555 1_555
C3E C2E 1_555 1_555
H1E C3E 1_555 1_555
C4E C3E 1_555 1_555
H2E C4E 1_555 1_555
C5E C4E 1_555 1_555
C6E C5E 1_555 1_555
H3E C6E 1_555 1_555
C7E C2E 1_555 1_555
H4E C7E 1_555 1_555
C8E C5E 1_555 1_555
C9E C8E 1_555 1_555
H5E C9E 1_555 1_555
C10E C9E 1_555 1_555
H6E C10E 1_555 1_555
C11E C10E 1_555 1_555
C12E C11E 1_555 1_555
H7E C12E 1_555 1_555
C13E C8E 1_555 1_555
H8E C13E 1_555 1_555
C14E C11E 1_555 1_555
O5E Cd1 1_555 1_555
O6E C15E 1_555 1_555
C15E O5E 1_555 1_555
C16E C15E 1_555 1_555
C17E C16E 1_555 1_555
H9E C17E 1_555 1_555
C18E C17E 1_555 1_555
H10E C18E 1_555 1_555
C19E C18E 1_555 1_555
C20E C19E 1_555 1_555
H11E C20E 1_555 1_555
C21E C16E 1_555 1_555
H12E C21E 1_555 1_555
C22E C19E 1_555 1_555
C23E C22E 1_555 1_555
H13E C23E 1_555 1_555
C24E C23E 1_555 1_555
H14E C24E 1_555 1_555
C25E C15E 1_555 1_555
C26E C25E 1_555 1_555
H15E C26E 1_555 1_555
C27E C22E 1_555 1_555
H16E C27E 1_555 1_555
C25C C24E 1_555 1_555
C24D C25E 1_555 1_555
C27D C26E 1_555 1_555
C26C C27E 1_555 1_555
Cd2E O3E 1_555 1_555
Cd2B O6 1_555 1_555
O1C C1C 1_555 1_555
O2C C1C 1_555 1_555
O3C C14C 1_555 1_555
O4C Cd2 1_555 1_555
C1C C2C 1_555 1_555
C2C C3C 1_555 1_555
C3C H1C 1_555 1_555
C4C C3C 1_555 1_555
H2C C4C 1_555 1_555
C5C C4C 1_555 1_555
C6C C5C 1_555 1_555
H3C C6C 1_555 1_555
C7C C2C 1_555 1_555
H4C C7C 1_555 1_555
C8C C5C 1_555 1_555
C9C C8C 1_555 1_555
H5C C9C 1_555 1_555
C10C C9C 1_555 1_555
H6C C10C 1_555 1_555
C11C C10C 1_555 1_555
C12C C11C 1_555 1_555
H7C C12C 1_555 1_555
C13C C8C 1_555 1_555
H8C C13C 1_555 1_555
C14C O4C 1_555 1_555
O1A C1A 1_555 1_555
O2A C1A 1_555 1_555
O3A Cd2E 1_555 1_555
O4A Cd2E 1_555 1_555
C1A C2A 1_555 1_555
C2A C3A 1_555 1_555
C3A H1A 1_555 1_555
C4A C3A 1_555 1_555
H2A C4A 1_555 1_555
C5A C4A 1_555 1_555
C6A C5A 1_555 1_555
H3A C6A 1_555 1_555
C7A C2A 1_555 1_555
H4A C7A 1_555 1_555
C8A C5A 1_555 1_555
C9A C8A 1_555 1_555
H5A C9A 1_555 1_555
C10A C9A 1_555 1_555
H6A C10A 1_555 1_555
C11A C10A 1_555 1_555
C12A C11A 1_555 1_555
H7A C12A 1_555 1_555
C13A C8A 1_555 1_555
H8A C13A 1_555 1_555
C14A O3A 1_555 1_555
O1B C1B 1_555 1_555
O2B C1B 1_555 1_555
O3B Cd2B 1_555 1_555
O4B Cd2B 1_555 1_555
C1B C2B 1_555 1_555
C2B C3B 1_555 1_555
C3B H1B 1_555 1_555
C4B C3B 1_555 1_555
H2B C4B 1_555 1_555
C5B C4B 1_555 1_555
C6B C5B 1_555 1_555
H3B C6B 1_555 1_555
C7B C2B 1_555 1_555
H4B C7B 1_555 1_555
C8B C5B 1_555 1_555
C9B C8B 1_555 1_555
H5B C9B 1_555 1_555
C10B C9B 1_555 1_555
H6B C10B 1_555 1_555
C11B C10B 1_555 1_555
C12B C11B 1_555 1_555
H7B C12B 1_555 1_555
C13B C8B 1_555 1_555
H8B C13B 1_555 1_555
C14B O3B 1_555 1_555
O1D C1D 1_555 1_555
O2D C1D 1_555 1_555
O3D Cd2B 1_555 1_555
O4D Cd2B 1_555 1_555
C1D C2D 1_555 1_555
C2D C3D 1_555 1_555
C3D H1D 1_555 1_555
C4D C3D 1_555 1_555
H2D C4D 1_555 1_555
C5D C4D 1_555 1_555
C6D C5D 1_555 1_555
H3D C6D 1_555 1_555
C7D C2D 1_555 1_555
H4D C7D 1_555 1_555
C8D C5D 1_555 1_555
C9D C8D 1_555 1_555
H5D C9D 1_555 1_555
C10D C9D 1_555 1_555
H6D C10D 1_555 1_555
C11D C10D 1_555 1_555
C12D C11D 1_555 1_555
H7D C12D 1_555 1_555
C13D C8D 1_555 1_555
H8D C13D 1_555 1_555
C14D O3D 1_555 1_555
Cd1C O1C 1_555 1_555
Cd1A O1A 1_555 1_555
Cd1B O1B 1_555 1_555
Cd1D O1D 1_555 1_555
O1B_2 Cd1C 1_555 1_555
O2B_2 Cd1C 1_555 1_555
O3B_2 C14B_2 1_555 1_555
O4B_2 C14B_2 1_555 1_555
C1B_2 O1B_2 1_555 1_555
C2B_2 C1B_2 1_555 1_555
C3B_2 C2B_2 1_555 1_555
H1B_2 C3B_2 1_555 1_555
C4B_2 C3B_2 1_555 1_555
H2B_2 C4B_2 1_555 1_555
C5B_2 C4B_2 1_555 1_555
C6B_2 C5B_2 1_555 1_555
H3B_2 C6B_2 1_555 1_555
C7B_2 C2B_2 1_555 1_555
H4B_2 C7B_2 1_555 1_555
C8B_2 C5B_2 1_555 1_555
C9B_2 C8B_2 1_555 1_555
H5B_2 C9B_2 1_555 1_555
C10B_2 C9B_2 1_555 1_555
H6B_2 C10B_2 1_555 1_555
C11B_2 C10B_2 1_555 1_555
C12B_2 C11B_2 1_555 1_555
H7B_2 C12B_2 1_555 1_555
C13B_2 C8B_2 1_555 1_555
H8B_2 C13B_2 1_555 1_555
C14B_2 C11B_2 1_555 1_555
O1D_2 Cd1A 1_555 1_555
O2D_2 Cd1A 1_555 1_555
O3D_2 C14D_2 1_555 1_555
O4D_2 C14D_2 1_555 1_555
C1D_2 O1D_2 1_555 1_555
C2D_2 C1D_2 1_555 1_555
C3D_2 C2D_2 1_555 1_555
H1D_2 C3D_2 1_555 1_555
C4D_2 C3D_2 1_555 1_555
H2D_2 C4D_2 1_555 1_555
C5D_2 C4D_2 1_555 1_555
C6D_2 C5D_2 1_555 1_555
H3D_2 C6D_2 1_555 1_555
C7D_2 C2D_2 1_555 1_555
H4D_2 C7D_2 1_555 1_555
C8D_2 C5D_2 1_555 1_555
C9D_2 C8D_2 1_555 1_555
H5D_2 C9D_2 1_555 1_555
C10D_2 C9D_2 1_555 1_555
H6D_2 C10D_2 1_555 1_555
C11D_2 C10D_2 1_555 1_555
C12D_2 C11D_2 1_555 1_555
H7D_2 C12D_2 1_555 1_555
C13D_2 C8D_2 1_555 1_555
H8D_2 C13D_2 1_555 1_555
C14D_2 C11D_2 1_555 1_555
O1C_2 Cd1B 1_555 1_555
O2C_2 Cd1B 1_555 1_555
O3C_2 C14C_2 1_555 1_555
O4C_2 C14C_2 1_555 1_555
C1C_2 O1C_2 1_555 1_555
C2C_2 C1C_2 1_555 1_555
C3C_2 C2C_2 1_555 1_555
H1C_2 C3C_2 1_555 1_555
C4C_2 C3C_2 1_555 1_555
H2C_2 C4C_2 1_555 1_555
C5C_2 C4C_2 1_555 1_555
C6C_2 C5C_2 1_555 1_555
H3C_2 C6C_2 1_555 1_555
C7C_2 C2C_2 1_555 1_555
H4C_2 C7C_2 1_555 1_555
C8C_2 C5C_2 1_555 1_555
C9C_2 C8C_2 1_555 1_555
H5C_2 C9C_2 1_555 1_555
C10C_2 C9C_2 1_555 1_555
H6C_2 C10C_2 1_555 1_555
C11C_2 C10C_2 1_555 1_555
C12C_2 C11C_2 1_555 1_555
H7C_2 C12C_2 1_555 1_555
C13C_2 C8C_2 1_555 1_555
H8C_2 C13C_2 1_555 1_555
C14C_2 C11C_2 1_555 1_555
O1A_2 Cd1D 1_555 1_555
O2A_2 Cd1D 1_555 1_555
O3A_2 C14A_2 1_555 1_555
O4A_2 C14A_2 1_555 1_555
C1A_2 O1A_2 1_555 1_555
C2A_2 C1A_2 1_555 1_555
C3A_2 C2A_2 1_555 1_555
H1A_2 C3A_2 1_555 1_555
C4A_2 C3A_2 1_555 1_555
H2A_2 C4A_2 1_555 1_555
C5A_2 C4A_2 1_555 1_555
C6A_2 C5A_2 1_555 1_555
H3A_2 C6A_2 1_555 1_555
C7A_2 C2A_2 1_555 1_555
H4A_2 C7A_2 1_555 1_555
C8A_2 C5A_2 1_555 1_555
C9A_2 C8A_2 1_555 1_555
H5A_2 C9A_2 1_555 1_555
C10A_2 C9A_2 1_555 1_555
H6A_2 C10A_2 1_555 1_555
C11A_2 C10A_2 1_555 1_555
C12A_2 C11A_2 1_555 1_555
H7A_2 C12A_2 1_555 1_555
C13A_2 C8A_2 1_555 1_555
H8A_2 C13A_2 1_555 1_555
C14A_2 C11A_2 1_555 1_555
Cd2B_2 O3B_2 1_555 1_555
Cd2D O3D_2 1_555 1_555
Cd2C O3C_2 1_555 1_555
Cd2A O3A_2 1_555 1_555
O1_2 C1_2 1_555 1_555
O2_2 C1_2 1_555 1_555
O3_2 Cd2C 1_555 1_555
O4_2 Cd2C 1_555 1_555
C1_2 C2_2 1_555 1_555
C2_2 C3_2 1_555 1_555
C3_2 H1_2 1_555 1_555
C4_2 C3_2 1_555 1_555
H2_2 C4_2 1_555 1_555
C5_2 C4_2 1_555 1_555
C6_2 C5_2 1_555 1_555
H3_2 C6_2 1_555 1_555
C7_2 C2_2 1_555 1_555
H4_2 C7_2 1_555 1_555
C8_2 C5_2 1_555 1_555
C9_2 C8_2 1_555 1_555
H5_2 C9_2 1_555 1_555
C10_2 C9_2 1_555 1_555
H6_2 C10_2 1_555 1_555
C11_2 C10_2 1_555 1_555
C12_2 C11_2 1_555 1_555
H7_2 C12_2 1_555 1_555
C13_2 C8_2 1_555 1_555
H8_2 C13_2 1_555 1_555
C14_2 O3_2 1_555 1_555
O1E_2 C1E_2 1_555 1_555
O2E_2 C1E_2 1_555 1_555
O3E_2 Cd2A 1_555 1_555
O4E_2 Cd2A 1_555 1_555
C1E_2 C2E_2 1_555 1_555
C2E_2 C3E_2 1_555 1_555
C3E_2 H1E_2 1_555 1_555
C4E_2 C3E_2 1_555 1_555
H2E_2 C4E_2 1_555 1_555
C5E_2 C4E_2 1_555 1_555
C6E_2 C5E_2 1_555 1_555
H3E_2 C6E_2 1_555 1_555
C7E_2 C2E_2 1_555 1_555
H4E_2 C7E_2 1_555 1_555
C8E_2 C5E_2 1_555 1_555
C9E_2 C8E_2 1_555 1_555
H5E_2 C9E_2 1_555 1_555
C10E_2 C9E_2 1_555 1_555
H6E_2 C10E_2 1_555 1_555
C11E_2 C10E_2 1_555 1_555
C12E_2 C11E_2 1_555 1_555
H7E_2 C12E_2 1_555 1_555
C13E_2 C8E_2 1_555 1_555
H8E_2 C13E_2 1_555 1_555
C14E_2 O3E_2 1_555 1_555
Cd1_2 O1_2 1_555 1_555
Cd1E O1E_2 1_555 1_555
O1E_3 Cd1_2 1_555 1_555
O2E_3 Cd1_2 1_555 1_555
O3E_3 C14E_3 1_555 1_555
O4E_3 C14E_3 1_555 1_555
C1E_3 O1E_3 1_555 1_555
C2E_3 C1E_3 1_555 1_555
C3E_3 C2E_3 1_555 1_555
H1E_3 C3E_3 1_555 1_555
C4E_3 C3E_3 1_555 1_555
H2E_3 C4E_3 1_555 1_555
C5E_3 C4E_3 1_555 1_555
C6E_3 C5E_3 1_555 1_555
H3E_3 C6E_3 1_555 1_555
C7E_3 C2E_3 1_555 1_555
H4E_3 C7E_3 1_555 1_555
C8E_3 C5E_3 1_555 1_555
C9E_3 C8E_3 1_555 1_555
H5E_3 C9E_3 1_555 1_555
C10E_3 C9E_3 1_555 1_555
H6E_3 C10E_3 1_555 1_555
C11E_3 C10E_3 1_555 1_555
C12E_3 C11E_3 1_555 1_555
H7E_3 C12E_3 1_555 1_555
C13E_3 C8E_3 1_555 1_555
H8E_3 C13E_3 1_555 1_555
C14E_3 C11E_3 1_555 1_555
O1_3 Cd1E 1_555 1_555
O2_3 Cd1E 1_555 1_555
O3_3 C14_3 1_555 1_555
O4_3 C14_3 1_555 1_555
C1_3 O1_3 1_555 1_555
C2_3 C1_3 1_555 1_555
C3_3 C2_3 1_555 1_555
H1_3 C3_3 1_555 1_555
C4_3 C3_3 1_555 1_555
H2_3 C4_3 1_555 1_555
C5_3 C4_3 1_555 1_555
C6_3 C5_3 1_555 1_555
H3_3 C6_3 1_555 1_555
C7_3 C2_3 1_555 1_555
H4_3 C7_3 1_555 1_555
C8_3 C5_3 1_555 1_555
C9_3 C8_3 1_555 1_555
H5_3 C9_3 1_555 1_555
C10_3 C9_3 1_555 1_555
H6_3 C10_3 1_555 1_555
C11_3 C10_3 1_555 1_555
C12_3 C11_3 1_555 1_555
H7_3 C12_3 1_555 1_555
C13_3 C8_3 1_555 1_555
H8_3 C13_3 1_555 1_555
C14_3 C11_3 1_555 1_555
Cd2E_2 O3E_3 1_555 1_555
Cd2_2 O3_3 1_555 1_555
O2 C1 1_555 1_555
O4 C14 1_555 1_555
C6 C7 1_555 1_555
C11 C14 1_555 1_555
C12 C13 1_555 1_555
C20 C21 1_555 1_555
C25A C26A 1_555 1_555
O4E Cd2E 1_555 1_555
C6E C7E 1_555 1_555
C12E C13E 1_555 1_555
O6E Cd2B 1_555 1_555
C20E C21E 1_555 1_555
C25C C26C 1_555 1_555
O2C Cd1C 1_555 1_555
C6C C7C 1_555 1_555
C11C C14C 1_555 1_555
C12C C13C 1_555 1_555
O2A Cd1A 1_555 1_555
O4A C14A 1_555 1_555
C6A C7A 1_555 1_555
C11A C14A 1_555 1_555
C12A C13A 1_555 1_555
O2B Cd1B 1_555 1_555
O4B C14B 1_555 1_555
C6B C7B 1_555 1_555
C11B C14B 1_555 1_555
C12B C13B 1_555 1_555
O2D Cd1D 1_555 1_555
O4D C14D 1_555 1_555
C6D C7D 1_555 1_555
C11D C14D 1_555 1_555
C12D C13D 1_555 1_555
O2B_2 C1B_2 1_555 1_555
O4B_2 Cd2B_2 1_555 1_555
C6B_2 C7B_2 1_555 1_555
C12B_2 C13B_2 1_555 1_555
O2D_2 C1D_2 1_555 1_555
O4D_2 Cd2D 1_555 1_555
C6D_2 C7D_2 1_555 1_555
C12D_2 C13D_2 1_555 1_555
O2C_2 C1C_2 1_555 1_555
O4C_2 Cd2C 1_555 1_555
C6C_2 C7C_2 1_555 1_555
C12C_2 C13C_2 1_555 1_555
O2A_2 C1A_2 1_555 1_555
O4A_2 Cd2A 1_555 1_555
C6A_2 C7A_2 1_555 1_555
C12A_2 C13A_2 1_555 1_555
O2_2 Cd1_2 1_555 1_555
O4_2 C14_2 1_555 1_555
C6_2 C7_2 1_555 1_555
C11_2 C14_2 1_555 1_555
C12_2 C13_2 1_555 1_555
O2E_2 Cd1E 1_555 1_555
O4E_2 C14E_2 1_555 1_555
C6E_2 C7E_2 1_555 1_555
C11E_2 C14E_2 1_555 1_555
C12E_2 C13E_2 1_555 1_555
O2E_3 C1E_3 1_555 1_555
O4E_3 Cd2E_2 1_555 1_555
C6E_3 C7E_3 1_555 1_555
C12E_3 C13E_3 1_555 1_555
O2_3 C1_3 1_555 1_555
O4_3 Cd2_2 1_555 1_555
C6_3 C7_3 1_555 1_555
C12_3 C13_3 1_555 1_555

#END
