
#######################################################################
#
#                 Cambridge Crystallographic Data Centre
#                                CCDC 
#
#######################################################################
#
# If this CIF has been generated from an entry in the Cambridge 
# Structural Database, then it will include bibliographic, chemical, 
# crystal, experimental, refinement or atomic coordinate data resulting 
# from the CCDC's data processing and validation procedures.
#
#######################################################################

data_FUTCAZ
_symmetry_cell_setting           orthorhombic
_symmetry_space_group_name_H-M   'P 21 21 21'
_symmetry_Int_Tables_number      19
_space_group_name_Hall           'P 2ac 2ab'
loop_
_symmetry_equiv_pos_site_id
_symmetry_equiv_pos_as_xyz
1 x,y,z
2 1/2-x,-y,1/2+z
3 -x,1/2+y,1/2-z
4 1/2+x,1/2-y,-z
_cell_length_a                   12.793(3)
_cell_length_b                   14.740(4)
_cell_length_c                   15.183(4)
_cell_angle_alpha                90
_cell_angle_beta                 90
_cell_angle_gamma                90
_cell_volume                     2863.04
loop_
_atom_site_label
_atom_site_type_symbol
_atom_site_fract_x
_atom_site_fract_y
_atom_site_fract_z
Mn1 Mn 0.74253(4) 0.28214(3) 1.22580(3)
Mn2 Mn 0.93992(5) 0.41325(4) 1.08673(4)
Cl1 Cl 0.61265(11) 0.20409(11) 1.30403(11)
O1 O 0.6637(2) 0.3322(2) 1.11881(19)
O2 O 0.7749(2) 0.44142(17) 1.0787(2)
O3 O 0.3962(2) 0.22843(18) 0.9068(2)
O4 O 0.3646(3) 0.3100(2) 0.7886(2)
O5 O 0.5705(2) 0.5831(2) 0.72708(19)
O6 O 0.7081(2) 0.61520(19) 0.8080(2)
C1 C 0.6972(3) 0.3921(3) 1.0660(3)
C2 C 0.6366(3) 0.4047(2) 0.9826(2)
C3 C 0.5574(3) 0.3445(2) 0.9582(2)
H1 H 0.5413 0.2956 0.9945
C4 C 0.5032(3) 0.3568(3) 0.8811(3)
C5 C 0.5267(3) 0.4297(3) 0.8266(2)
H2 H 0.4892 0.4385 0.7749
C6 C 0.6061(3) 0.4896(3) 0.8494(2)
C7 C 0.6609(3) 0.4771(3) 0.9259(3)
H3 H 0.7147 0.5168 0.9404
C8 C 0.4158(3) 0.2936(3) 0.8565(3)
C9 C 0.6296(3) 0.5686(3) 0.7892(3)
C10 C 0.8646(7) 0.2947(5) 0.8598(6)
H4 H 0.9090 0.2605 0.8210
H5 H 0.7964 0.3004 0.8339
H6 H 0.8591 0.2638 0.9153
C11 C 0.9123(5) 0.3912(6) 0.8745(4)
C12 C 0.8648(6) 0.4197(6) 0.7239(4)
H7 H 0.9135 0.4317 0.6772
H8 H 0.8026 0.4549 0.7149
H9 H 0.8473 0.3564 0.7241
C13 C 0.9607(8) 0.5375(6) 0.8285(7)
H10 H 0.9222 0.5836 0.7978
H11 H 1.0321 0.5382 0.8092
H12 H 0.9580 0.5491 0.8907
C14 C 0.8527(6) 0.6618(6) 1.0662(10)
H13 H 0.8200 0.6441 1.1205
H14 H 0.8171 0.6335 1.0178
H15 H 0.8491 0.7265 1.0600
C15 C 0.9673(5) 0.6318(4) 1.0668(4)
C16 C 1.0069(8) 0.7908(4) 1.0340(7)
H16 H 0.9601 0.7951 0.9848
H17 H 1.0691 0.8251 1.0220
H18 H 0.9734 0.8145 1.0857
C17 C 1.1464(6) 0.6659(7) 1.0547(8)
H19 H 1.1527 0.6144 1.0931
H20 H 1.1871 0.7153 1.0777
H21 H 1.1714 0.6501 0.9971
C18 C 1.2131(6) 0.3975(6) 0.9723(5)
H22 H 1.2665 0.3524 0.9647
H23 H 1.2376 0.4546 0.9500
H24 H 1.1515 0.3796 0.9407
C19 C 1.1863(6) 0.4073(5) 1.0738(5)
C20 C 1.3617(5) 0.4709(6) 1.0914(7)
H25 H 1.4086 0.4205 1.0848
H26 H 1.3886 0.5117 1.1351
H27 H 1.3552 0.5021 1.0363
C21 C 1.2240(8) 0.4516(7) 1.2164(5)
H28 H 1.1514 0.4683 1.2180
H29 H 1.2651 0.4990 1.2426
H30 H 1.2340 0.3963 1.2487
N1 N 0.9125(6) 0.4445(6) 0.8091(4)
N2 N 1.0352(5) 0.6936(3) 1.0490(4)
N3 N 1.2587(5) 0.4376(4) 1.1192(6)
O7 O 0.9498(3) 0.4092(4) 0.9471(2)
O8 O 0.9891(3) 0.5537(2) 1.0831(3)
O9 O 1.1014(3) 0.3776(3) 1.1024(3)
Mn1C Mn 0.24253(4) 0.21786(3) 0.77420(3)
Mn1A Mn 0.75747(4) 0.71786(3) 0.72580(3)
Mn2C Mn 0.43992(5) 0.08675(4) 0.91327(4)
Mn2A Mn 0.56008(5) 0.58675(4) 0.58673(4)
O3C O 0.8962(2) 0.27157(18) 1.0932(2)
O4C O 0.8646(3) 0.1900(2) 1.2114(2)
O5A O 0.9295(2) 0.4169(2) 1.22708(19)
O6A O 0.7919(2) 0.38480(19) 1.3080(2)
loop_
_geom_bond_atom_site_label_1
_geom_bond_atom_site_label_2
_geom_bond_site_symmetry_1
_geom_bond_site_symmetry_2
Mn1 Cl1 1_555 1_555
Mn2 O2 1_555 1_555
O1 Mn1 1_555 1_555
O2 C1 1_555 1_555
O3 C8 1_555 1_555
O4 C8 1_555 1_555
O5 C9 1_555 1_555
O6 C9 1_555 1_555
C1 O1 1_555 1_555
C2 C1 1_555 1_555
C3 C2 1_555 1_555
H1 C3 1_555 1_555
C4 C3 1_555 1_555
C5 C4 1_555 1_555
H2 C5 1_555 1_555
C6 C5 1_555 1_555
C7 C2 1_555 1_555
H3 C7 1_555 1_555
C8 C4 1_555 1_555
C9 C6 1_555 1_555
C10 H4 1_555 1_555
H5 C10 1_555 1_555
H6 C10 1_555 1_555
C11 C10 1_555 1_555
C12 H7 1_555 1_555
H8 C12 1_555 1_555
H9 C12 1_555 1_555
C13 H10 1_555 1_555
H11 C13 1_555 1_555
H12 C13 1_555 1_555
C14 H13 1_555 1_555
H14 C14 1_555 1_555
H15 C14 1_555 1_555
C15 C14 1_555 1_555
C16 H16 1_555 1_555
H17 C16 1_555 1_555
H18 C16 1_555 1_555
C17 H19 1_555 1_555
H20 C17 1_555 1_555
H21 C17 1_555 1_555
C18 H22 1_555 1_555
H23 C18 1_555 1_555
H24 C18 1_555 1_555
C19 C18 1_555 1_555
C20 H25 1_555 1_555
H26 C20 1_555 1_555
H27 C20 1_555 1_555
C21 H28 1_555 1_555
H29 C21 1_555 1_555
H30 C21 1_555 1_555
N1 C11 1_555 1_555
N2 C15 1_555 1_555
N3 C19 1_555 1_555
O7 Mn2 1_555 1_555
O8 Mn2 1_555 1_555
O9 Mn2 1_555 1_555
Mn1C O4 1_555 1_555
Mn1A O6 1_555 1_555
Mn2C O3 1_555 1_555
Mn2A O5 1_555 1_555
O3C Mn2 1_555 1_555
O4C Mn1 1_555 1_555
O5A Mn2 1_555 1_555
O6A Mn1 1_555 1_555
C6 C7 1_555 1_555
C11 O7 1_555 1_555
C12 N1 1_555 1_555
C13 N1 1_555 1_555
C15 O8 1_555 1_555
C16 N2 1_555 1_555
C17 N2 1_555 1_555
C19 O9 1_555 1_555
C20 N3 1_555 1_555
C21 N3 1_555 1_555

#END
