
#######################################################################
#
#                 Cambridge Crystallographic Data Centre
#                                CCDC 
#
#######################################################################
#
# If this CIF has been generated from an entry in the Cambridge 
# Structural Database, then it will include bibliographic, chemical, 
# crystal, experimental, refinement or atomic coordinate data resulting 
# from the CCDC's data processing and validation procedures.
#
#######################################################################

data_FUTMIR
_symmetry_cell_setting           triclinic
_symmetry_space_group_name_H-M   'P -1'
_symmetry_Int_Tables_number      2
_space_group_name_Hall           '-P 1'
loop_
_symmetry_equiv_pos_site_id
_symmetry_equiv_pos_as_xyz
1 x,y,z
2 -x,-y,-z
_cell_length_a                   9.502(3)
_cell_length_b                   12.470(2)
_cell_length_c                   13.462(4)
_cell_angle_alpha                91.62(3)
_cell_angle_beta                 109.31(2)
_cell_angle_gamma                95.46(2)
_cell_volume                     1495.51
loop_
_atom_site_label
_atom_site_type_symbol
_atom_site_fract_x
_atom_site_fract_y
_atom_site_fract_z
Ag1 Ag 0.65249(4) 0.48340(3) 0.61688(3)
Cl1 Cl 0.59810(17) 0.65139(11) 0.54399(10)
O1 O 0.5226(4) 0.2476(3) 0.9158(3)
O2 O 0.6390(6) 0.1198(4) 1.0604(3)
O3 O 0.8908(9) 0.0095(7) 1.0776(7)
N1 N 0.8833(4) 0.3406(3) 0.7500(3)
N2 N 0.6694(4) 0.2892(3) 0.7613(3)
C1 C 1.0326(6) 0.3370(4) 0.6346(4)
C2 C 1.1441(7) 0.3889(5) 0.6010(4)
H1 H 1.1706 0.3553 0.5482
C3 C 1.2150(7) 0.4880(5) 0.6440(5)
H2 H 1.2903 0.5199 0.6210
C4 C 1.1777(7) 0.5420(5) 0.7209(5)
H3 H 1.2269 0.6098 0.7487
C5 C 1.0663(6) 0.4951(5) 0.7566(4)
C6 C 0.9970(5) 0.3928(4) 0.7127(4)
C7 C 0.9553(7) 0.2275(5) 0.5849(4)
H4 H 0.8873 0.2024 0.6226
C8 C 1.0260(7) 0.5569(5) 0.8408(5)
H5 H 0.9319 0.5200 0.8439
C9 C 1.0660(11) 0.1457(6) 0.5955(8)
H6 H 1.0129 0.0746 0.5773
H7 H 1.1334 0.1494 0.6670
H8 H 1.1222 0.1610 0.5490
C10 C 0.8644(13) 0.2297(8) 0.4717(6)
H9 H 0.7742 0.2617 0.4656
H10 H 0.8390 0.1573 0.4402
H11 H 0.9212 0.2714 0.4363
C11 C 0.9975(9) 0.6714(5) 0.8132(6)
H12 H 1.0903 0.7128 0.8180
H13 H 0.9559 0.7033 0.8614
H14 H 0.9282 0.6709 0.7426
C12 C 1.1453(8) 0.5517(6) 0.9496(5)
H15 H 1.1593 0.4776 0.9636
H16 H 1.1129 0.5840 1.0027
H17 H 1.2383 0.5900 0.9506
C13 C 0.7379(5) 0.3603(4) 0.7137(4)
C14 C 0.9035(7) 0.2589(4) 0.8198(4)
H18 H 0.9933 0.2316 0.8547
C15 C 0.7706(6) 0.2274(4) 0.8269(4)
H19 H 0.7492 0.1739 0.8682
C16 C 0.5075(6) 0.2776(5) 0.7416(4)
H20 H 0.4688 0.2021 0.7251
H21 H 0.4590 0.3171 0.6808
C17 C 0.4685(6) 0.3183(4) 0.8339(4)
H22 H 0.5155 0.3914 0.8566
H23 H 0.3608 0.3182 0.8150
C18 C 0.4958(7) 0.2649(4) 1.0085(5)
C19 C 0.4187(8) 0.3442(5) 1.0279(5)
H24 H 0.3798 0.3922 0.9769
C20 C 0.3985(9) 0.3527(6) 1.1269(7)
H25 H 0.3467 0.4073 1.1414
C21 C 0.4523(10) 0.2841(8) 1.1992(7)
H26 H 0.4332 0.2889 1.2625
C22 C 0.5354(9) 0.2060(6) 1.1829(5)
H27 H 0.5751 0.1597 1.2355
C23 C 0.5603(8) 0.1964(5) 1.0861(5)
C24 C 0.6925(10) 0.0396(7) 1.1316(6)
H28 H 0.6105 0.0038 1.1504
H29 H 0.7678 0.0728 1.1955
C25 C 0.7567(11) -0.0384(7) 1.0833(8)
H30 H 0.7740 -0.1011 1.1250
H31 H 0.6885 -0.0618 1.0131
C26 C 0.9238(14) -0.0225(12) 0.9997(10)
H32 H 0.8493 -0.0031 0.9358
H33 H 0.9187 -0.1006 0.9975
Ag1A Ag 0.34751(4) 0.51660(3) 0.38312(3)
Ag1A_2 Ag 1.34751(4) -0.48340(3) 1.38312(3)
Cl1A Cl 0.40190(17) 0.34861(11) 0.45601(10)
O1A O 1.4774(4) -0.2476(3) 1.0842(3)
O2A O 1.3610(6) -0.1198(4) 0.9396(3)
O3A O 1.1092(9) -0.0095(7) 0.9224(7)
N1A N 1.1167(4) -0.3406(3) 1.2500(3)
N2A N 1.3306(4) -0.2892(3) 1.2387(3)
C1A C 0.9674(6) -0.3370(4) 1.3654(4)
C2A C 0.8559(7) -0.3889(5) 1.3990(4)
H1A H 0.8294 -0.3553 1.4518
C3A C 0.7850(7) -0.4880(5) 1.3560(5)
H2A H 0.7097 -0.5199 1.3790
C4A C 0.8223(7) -0.5420(5) 1.2791(5)
H3A H 0.7731 -0.6098 1.2513
C5A C 0.9337(6) -0.4951(5) 1.2434(4)
C6A C 1.0030(5) -0.3928(4) 1.2873(4)
C7A C 1.0447(7) -0.2275(5) 1.4151(4)
H4A H 1.1127 -0.2024 1.3774
C8A C 0.9740(7) -0.5569(5) 1.1592(5)
H5A H 1.0681 -0.5200 1.1561
C9A C 0.9340(11) -0.1457(6) 1.4045(8)
H6A H 0.9871 -0.0746 1.4227
H7A H 0.8666 -0.1494 1.3330
H8A H 0.8778 -0.1610 1.4510
C10A C 1.1356(13) -0.2297(8) 1.5283(6)
H9A H 1.2258 -0.2617 1.5344
H10A H 1.1610 -0.1573 1.5598
H11A H 1.0788 -0.2714 1.5637
C11A C 1.0025(9) -0.6714(5) 1.1868(6)
H12A H 0.9097 -0.7128 1.1820
H13A H 1.0441 -0.7033 1.1386
H14A H 1.0718 -0.6709 1.2574
C12A C 0.8547(8) -0.5517(6) 1.0504(5)
H15A H 0.8407 -0.4776 1.0364
H16A H 0.8871 -0.5840 0.9973
H17A H 0.7617 -0.5900 1.0494
C13A C 1.2621(5) -0.3603(4) 1.2863(4)
C13A_2 C 0.2621(5) 0.6397(4) 0.2863(4)
C14A C 1.0965(7) -0.2589(4) 1.1802(4)
H18A H 1.0067 -0.2316 1.1453
C15A C 1.2294(6) -0.2274(4) 1.1731(4)
H19A H 1.2508 -0.1739 1.1318
C16A C 1.4925(6) -0.2776(5) 1.2584(4)
H20A H 1.5312 -0.2021 1.2749
H21A H 1.5410 -0.3171 1.3192
C17A C 1.5315(6) -0.3183(4) 1.1661(4)
H22A H 1.4845 -0.3914 1.1434
H23A H 1.6392 -0.3182 1.1850
C18A C 1.5042(7) -0.2649(4) 0.9915(5)
C19A C 1.5813(8) -0.3442(5) 0.9721(5)
H24A H 1.6202 -0.3922 1.0231
C20A C 1.6015(9) -0.3527(6) 0.8731(7)
H25A H 1.6533 -0.4073 0.8586
C21A C 1.5477(10) -0.2841(8) 0.8008(7)
H26A H 1.5668 -0.2889 0.7375
C22A C 1.4646(9) -0.2060(6) 0.8171(5)
H27A H 1.4249 -0.1597 0.7645
C23A C 1.4397(8) -0.1964(5) 0.9139(5)
C24A C 1.3075(10) -0.0396(7) 0.8684(6)
H28A H 1.3895 -0.0038 0.8496
H29A H 1.2322 -0.0728 0.8045
C25A C 1.2433(11) 0.0384(7) 0.9167(8)
H30A H 1.2260 0.1011 0.8750
H31A H 1.3115 0.0618 0.9869
C26A C 1.0762(14) 0.0225(12) 1.0003(10)
H32A H 1.1507 0.0031 1.0642
H33A H 1.0813 0.1006 1.0025
N3 N 0.504(3) -0.0058(13) 0.3530(19)
C27 C 0.390(4) 0.0298(15) 0.3586(17)
C28 C 0.284(3) 0.0670(12) 0.3851(19)
H34 H 0.1924 0.0566 0.3263
H35 H 0.3104 0.1427 0.4052
H36 H 0.2717 0.0295 0.4434
loop_
_geom_bond_atom_site_label_1
_geom_bond_atom_site_label_2
_geom_bond_site_symmetry_1
_geom_bond_site_symmetry_2
Ag1 Cl1 1_555 1_555
Cl1 Ag1A 1_555 1_555
O1 C17 1_555 1_555
O2 C23 1_555 1_555
O3 C25 1_555 1_555
N1 C6 1_555 1_555
N2 C13 1_555 1_555
C1 C2 1_555 1_555
C2 H1 1_555 1_555
C3 C2 1_555 1_555
H2 C3 1_555 1_555
C4 C3 1_555 1_555
H3 C4 1_555 1_555
C5 C4 1_555 1_555
C6 C1 1_555 1_555
C7 C1 1_555 1_555
H4 C7 1_555 1_555
C8 C5 1_555 1_555
H5 C8 1_555 1_555
C9 C7 1_555 1_555
H6 C9 1_555 1_555
H7 C9 1_555 1_555
H8 C9 1_555 1_555
C10 C7 1_555 1_555
H9 C10 1_555 1_555
H10 C10 1_555 1_555
H11 C10 1_555 1_555
C11 C8 1_555 1_555
H12 C11 1_555 1_555
H13 C11 1_555 1_555
H14 C11 1_555 1_555
C12 C8 1_555 1_555
H15 C12 1_555 1_555
H16 C12 1_555 1_555
H17 C12 1_555 1_555
C13 Ag1 1_555 1_555
C14 N1 1_555 1_555
H18 C14 1_555 1_555
C15 N2 1_555 1_555
H19 C15 1_555 1_555
C16 N2 1_555 1_555
H20 C16 1_555 1_555
H21 C16 1_555 1_555
C17 C16 1_555 1_555
H22 C17 1_555 1_555
H23 C17 1_555 1_555
C18 O1 1_555 1_555
C19 C18 1_555 1_555
H24 C19 1_555 1_555
C20 C19 1_555 1_555
H25 C20 1_555 1_555
C21 C20 1_555 1_555
H26 C21 1_555 1_555
C22 C21 1_555 1_555
H27 C22 1_555 1_555
C23 C18 1_555 1_555
C24 O2 1_555 1_555
H28 C24 1_555 1_555
H29 C24 1_555 1_555
C25 C24 1_555 1_555
H30 C25 1_555 1_555
H31 C25 1_555 1_555
C26 O3 1_555 1_555
H32 C26 1_555 1_555
H33 C26 1_555 1_555
N3 C27 1_555 1_555
C27 C28 1_555 1_555
C28 H34 1_555 1_555
H35 C28 1_555 1_555
H36 C28 1_555 1_555
Ag1A Cl1A 1_555 1_555
Ag1A_2 C13A 1_555 1_555
Cl1A Ag1 1_555 1_555
O1A C17A 1_555 1_555
O2A C23A 1_555 1_555
O3A C25A 1_555 1_555
N1A C6A 1_555 1_555
N2A C13A 1_555 1_555
C1A C2A 1_555 1_555
C2A H1A 1_555 1_555
C3A C2A 1_555 1_555
H2A C3A 1_555 1_555
C4A C3A 1_555 1_555
H3A C4A 1_555 1_555
C5A C4A 1_555 1_555
C6A C1A 1_555 1_555
C7A C1A 1_555 1_555
H4A C7A 1_555 1_555
C8A C5A 1_555 1_555
H5A C8A 1_555 1_555
C9A C7A 1_555 1_555
H6A C9A 1_555 1_555
H7A C9A 1_555 1_555
H8A C9A 1_555 1_555
C10A C7A 1_555 1_555
H9A C10A 1_555 1_555
H10A C10A 1_555 1_555
H11A C10A 1_555 1_555
C11A C8A 1_555 1_555
H12A C11A 1_555 1_555
H13A C11A 1_555 1_555
H14A C11A 1_555 1_555
C12A C8A 1_555 1_555
H15A C12A 1_555 1_555
H16A C12A 1_555 1_555
H17A C12A 1_555 1_555
C13A N1A 1_555 1_555
C13A_2 Ag1A 1_555 1_555
C14A N1A 1_555 1_555
H18A C14A 1_555 1_555
C15A N2A 1_555 1_555
H19A C15A 1_555 1_555
C16A N2A 1_555 1_555
H20A C16A 1_555 1_555
H21A C16A 1_555 1_555
C17A C16A 1_555 1_555
H22A C17A 1_555 1_555
H23A C17A 1_555 1_555
C18A O1A 1_555 1_555
C19A C18A 1_555 1_555
H24A C19A 1_555 1_555
C20A C19A 1_555 1_555
H25A C20A 1_555 1_555
C21A C20A 1_555 1_555
H26A C21A 1_555 1_555
C22A C21A 1_555 1_555
H27A C22A 1_555 1_555
C23A C18A 1_555 1_555
C24A O2A 1_555 1_555
H28A C24A 1_555 1_555
H29A C24A 1_555 1_555
C25A C24A 1_555 1_555
H30A C25A 1_555 1_555
H31A C25A 1_555 1_555
C26A C26 1_555 1_555
H32A C26A 1_555 1_555
H33A C26A 1_555 1_555
N1 C13 1_555 1_555
C5 C6 1_555 1_555
C14 C15 1_555 1_555
C22 C23 1_555 1_555
O3A C26A 1_555 1_555
C5A C6A 1_555 1_555
C14A C15A 1_555 1_555
C22A C23A 1_555 1_555

#END
