
#######################################################################
#
#                 Cambridge Crystallographic Data Centre
#                                CCDC 
#
#######################################################################
#
# If this CIF has been generated from an entry in the Cambridge 
# Structural Database, then it will include bibliographic, chemical, 
# crystal, experimental, refinement or atomic coordinate data resulting 
# from the CCDC's data processing and validation procedures.
#
#######################################################################

data_FUTQOC
_symmetry_cell_setting           monoclinic
_symmetry_space_group_name_H-M   'C 2/c'
_symmetry_Int_Tables_number      15
_space_group_name_Hall           '-C 2yn'
loop_
_symmetry_equiv_pos_site_id
_symmetry_equiv_pos_as_xyz
1 x,y,z
2 -x,y,1/2-z
3 1/2+x,1/2+y,z
4 1/2-x,1/2+y,1/2-z
5 -x,-y,-z
6 x,-y,1/2+z
7 1/2-x,1/2-y,-z
8 1/2+x,1/2-y,1/2+z
_cell_length_a                   14.538(16)
_cell_length_b                   16.577(19)
_cell_length_c                   9.350(11)
_cell_angle_alpha                90
_cell_angle_beta                 125.388(15)
_cell_angle_gamma                90
_cell_volume                     1837.01
loop_
_atom_site_label
_atom_site_type_symbol
_atom_site_fract_x
_atom_site_fract_y
_atom_site_fract_z
Sr1 Sr 0.0000 0.16668(6) 0.7500
V1 V 0.0000 -0.09553(9) 0.7500
O1 O 0.0000 0.0017(4) 0.7500
O2 O 0.0000 -0.2340(5) 0.7500
O3 O 0.1536(4) -0.1205(3) 0.8130(6)
O4 O -0.0848(7) 0.3015(4) 0.7824(11)
O5 O 0.1526(6) 0.2124(4) 1.0601(7)
O6 O 0.3258(4) -0.1707(3) 0.9888(6)
O7 O 0.0586(4) -0.1167(3) 1.0025(5)
O8 O 0.1864(4) -0.1373(4) 1.2852(6)
C1 C 0.2466(6) -0.1317(4) 0.9677(8)
C2 C 0.2552(6) -0.0913(4) 1.1221(8)
C3 C 0.1605(6) -0.1183(4) 1.1384(8)
C4 C 0.2595(7) 0.0039(4) 1.1169(9)
H1 H 0.2607 0.0245 1.0208
H2 H 0.2018 0.0305 1.1212
C5 C 0.3743(9) 0.0026(6) 1.2912(13)
H3 H 0.4336 0.0252 1.2854
H4 H 0.3747 0.0272 1.3856
C6 C 0.3755(6) -0.0882(4) 1.2967(8)
H5 H 0.3792 -0.1100 1.3962
H6 H 0.4330 -0.1121 1.2881
H7 H -0.055(5) -0.260(4) 0.683(9)
H8 H 0.190(7) 0.185(4) 1.146(7)
H9 H 0.178(7) 0.257(2) 1.084(10)
H10 H -0.099(8) 0.314(5) 0.851(9)
H11 H -0.124(7) 0.327(5) 0.695(7)
H7A H 0.055(5) -0.260(4) 0.817(9)
O3A O -0.1536(4) -0.1205(3) 0.6870(6)
O4A O 0.0848(7) 0.3015(4) 0.7176(11)
O5A O -0.1526(6) 0.2124(4) 0.4399(7)
O6A O -0.3258(4) -0.1707(3) 0.5112(6)
O7A O -0.0586(4) -0.1167(3) 0.4975(5)
O8A O -0.1864(4) -0.1373(4) 0.2148(6)
C1A C -0.2466(6) -0.1317(4) 0.5323(8)
C2A C -0.2552(6) -0.0913(4) 0.3779(8)
C3A C -0.1605(6) -0.1183(4) 0.3616(8)
C4A C -0.2595(7) 0.0039(4) 0.3831(9)
H1A H -0.2607 0.0245 0.4792
H2A H -0.2018 0.0305 0.3788
C5A C -0.3743(9) 0.0026(6) 0.2088(13)
H3A H -0.4336 0.0252 0.2146
H4A H -0.3747 0.0272 0.1144
C6A C -0.3755(6) -0.0882(4) 0.2033(8)
H5A H -0.3792 -0.1100 0.1038
H6A H -0.4330 -0.1121 0.2119
H8A H -0.190(7) 0.185(4) 0.354(7)
H9A H -0.178(7) 0.257(2) 0.416(10)
H10A H 0.099(8) 0.314(5) 0.649(9)
H11A H 0.124(7) 0.327(5) 0.805(7)
Sr1D Sr 0.0000 -0.16668(6) 0.2500
Sr1D_2 Sr 0.0000 -0.16668(6) 1.2500
O7D O -0.0586(4) 0.1167(3) 0.9975(5)
O7E O 0.0586(4) 0.1167(3) 0.5025(5)
O8D O -0.1864(4) 0.1373(4) 0.7148(6)
O8E O 0.1864(4) 0.1373(4) 0.7852(6)
loop_
_geom_bond_atom_site_label_1
_geom_bond_atom_site_label_2
_geom_bond_site_symmetry_1
_geom_bond_site_symmetry_2
Sr1 O1 1_555 1_555
V1 O1 1_555 1_555
O2 V1 1_555 1_555
O3 V1 1_555 1_555
O4 Sr1 1_555 1_555
O5 Sr1 1_555 1_555
O6 C1 1_555 1_555
O7 V1 1_555 1_555
O8 C3 1_555 1_555
C1 O3 1_555 1_555
C2 C1 1_555 1_555
C3 O7 1_555 1_555
C4 C2 1_555 1_555
H1 C4 1_555 1_555
H2 C4 1_555 1_555
C5 C4 1_555 1_555
H3 C5 1_555 1_555
H4 C5 1_555 1_555
C6 C2 1_555 1_555
H5 C6 1_555 1_555
H6 C6 1_555 1_555
H7 O2 1_555 1_555
H8 O5 1_555 1_555
H9 O5 1_555 1_555
H10 O4 1_555 1_555
H11 O4 1_555 1_555
H7A O2 1_555 1_555
O3A V1 1_555 1_555
O4A Sr1 1_555 1_555
O5A Sr1 1_555 1_555
O6A C1A 1_555 1_555
O7A V1 1_555 1_555
O8A C3A 1_555 1_555
C1A O3A 1_555 1_555
C2A C1A 1_555 1_555
C3A O7A 1_555 1_555
C4A C2A 1_555 1_555
H1A C4A 1_555 1_555
H2A C4A 1_555 1_555
C5A C4A 1_555 1_555
H3A C5A 1_555 1_555
H4A C5A 1_555 1_555
C6A C2A 1_555 1_555
H5A C6A 1_555 1_555
H6A C6A 1_555 1_555
H8A O5A 1_555 1_555
H9A O5A 1_555 1_555
H10A O4A 1_555 1_555
H11A O4A 1_555 1_555
Sr1D O7A 1_555 1_555
Sr1D_2 O7 1_555 1_555
O7D Sr1 1_555 1_555
O7E Sr1 1_555 1_555
O8D Sr1 1_555 1_555
O8E Sr1 1_555 1_555
O8 Sr1D_2 1_555 1_555
C2 C3 1_555 1_555
C5 C6 1_555 1_555
O8A Sr1D 1_555 1_555
C2A C3A 1_555 1_555
C5A C6A 1_555 1_555

#END
