
#######################################################################
#
#                 Cambridge Crystallographic Data Centre
#                                CCDC 
#
#######################################################################
#
# If this CIF has been generated from an entry in the Cambridge 
# Structural Database, then it will include bibliographic, chemical, 
# crystal, experimental, refinement or atomic coordinate data resulting 
# from the CCDC's data processing and validation procedures.
#
#######################################################################

data_FUTQAN
_symmetry_cell_setting           triclinic
_symmetry_space_group_name_H-M   'P -1'
_symmetry_Int_Tables_number      2
_space_group_name_Hall           '-P 1'
loop_
_symmetry_equiv_pos_site_id
_symmetry_equiv_pos_as_xyz
1 x,y,z
2 -x,-y,-z
_cell_length_a                   10.198(4)
_cell_length_b                   10.700(4)
_cell_length_c                   12.899(5)
_cell_angle_alpha                112.994(5)
_cell_angle_beta                 91.108(5)
_cell_angle_gamma                118.104(4)
_cell_volume                     1106.5
loop_
_atom_site_label
_atom_site_type_symbol
_atom_site_fract_x
_atom_site_fract_y
_atom_site_fract_z
O1 O 0.8082(3) 0.1978(3) 0.2212(2)
O2 O 0.5852(3) -0.0308(3) 0.1266(2)
O3 O 1.0529(3) 0.2741(3) 0.4288(2)
O4 O 1.1003(3) 0.0939(3) 0.4340(2)
O5 O 1.1455(3) 0.4240(3) 0.2673(2)
O6 O 1.0285(3) 0.4293(3) 0.1240(2)
O7 O 1.1881(3) 0.5176(3) -0.0679(2)
O8 O 1.3218(3) 0.4137(4) -0.1603(2)
O9 O 0.7266(3) 0.1448(3) -0.01647(19)
O10 O 0.8721(3) 0.2599(3) -0.1168(2)
O11 O 0.4363(2) -0.2280(3) -0.1274(2)
O12 O 0.4533(3) -0.3131(3) -0.3107(2)
O13 O 0.8868(2) 0.5059(3) 0.31714(19)
O14 O 0.8446(3) 0.4076(3) 0.48747(19)
O15 O 0.3690(3) -0.5107(4) -0.5636(2)
O16 O 0.3216(3) -0.6435(3) -0.3894(2)
C1 C 0.7072(4) 0.0596(4) 0.2059(3)
C2 C 0.7372(4) -0.0018(5) 0.2847(4)
H1 H 0.6541 -0.1103 0.2597
H2 H 0.7387 0.0619 0.3632
C3 C 0.8917(5) 0.0027(5) 0.2853(4)
H3 H 0.8728 -0.0993 0.2759
H4 H 0.9243 0.0141 0.2177
C4 C 1.0230(4) 0.1310(4) 0.3911(3)
C5 C 1.1467(4) 0.4496(4) 0.1805(3)
C6 C 1.2918(4) 0.5059(5) 0.1383(3)
H5 H 1.3726 0.5187 0.1897
H6 H 1.3237 0.6092 0.1429
C7 C 1.2730(5) 0.3916(5) 0.0124(3)
H7 H 1.1810 0.2893 -0.0089
H8 H 1.3595 0.3763 0.0109
C8 C 1.2620(4) 0.4439(4) -0.0796(3)
C9 C 0.7868(4) 0.1408(4) -0.1024(3)
C10 C 0.7632(5) -0.0150(5) -0.1906(4)
H9 H 0.8630 0.0012 -0.2009
H10 H 0.7045 -0.0426 -0.2643
C11 C 0.5113(4) -0.2412(4) -0.2054(3)
C12 C 0.6836(4) -0.1562(4) -0.1655(3)
H11 H 0.7128 -0.1205 -0.0825
H12 H 0.7171 -0.2298 -0.2046
Co1 Co 0.98115(5) 0.39557(5) 0.37015(4)
Co2 Co 0.20018(5) -0.34523(5) -0.14907(4)
Co3 Co 0.24966(5) -0.51015(6) -0.43187(4)
Co4 Co 1.0000 0.5000 0.0000
Co5 Co 0.5000 0.0000 0.0000
H13 H 0.311(4) -0.528(6) -0.621(3)
H14 H 0.310(6) -0.630(6) -0.322(2)
H16 H 0.251(5) -0.738(3) -0.438(3)
H17 H 0.459(2) -0.450(5) -0.561(4)
O1A O 0.1918(3) -0.1978(3) -0.2212(2)
O1A_2 O 1.1918(3) 0.8022(3) -0.2212(2)
O1_2 O 1.8082(3) 1.1978(3) 0.2212(2)
O2A O 0.4148(3) 0.0308(3) -0.1266(2)
O3A O -0.0529(3) -0.2741(3) -0.4288(2)
O3_2 O 0.0529(3) -0.7259(3) -0.5712(2)
O3A_2 O 0.9471(3) 0.7259(3) -0.4288(2)
O3A_3 O 1.9471(3) 1.7259(3) 0.5712(2)
O4A O -0.1003(3) -0.0939(3) -0.4340(2)
O5A O 0.8545(3) 0.5760(3) -0.2673(2)
O6A O 0.9715(3) 0.5707(3) -0.1240(2)
O6A_2 O -0.0285(3) -0.4293(3) -0.1240(2)
O6_2 O 2.0285(3) 1.4293(3) 0.1240(2)
O7A O 0.8119(3) 0.4824(3) 0.0679(2)
O7_2 O 0.1881(3) -0.4824(3) -0.0679(2)
O7A_2 O 1.8119(3) 1.4824(3) 0.0679(2)
O8A O 0.6782(3) 0.5863(4) 0.1603(2)
O9A O 1.2734(3) 0.8552(3) 0.01647(19)
O9A_2 O 0.2734(3) -0.1448(3) 0.01647(19)
O9_2 O 1.7266(3) 1.1448(3) -0.01647(19)
O10A O 1.1279(3) 0.7401(3) 0.1168(2)
O11A O 1.5637(2) 1.2280(3) 0.1274(2)
O11A_2 O 0.5637(2) 0.2280(3) 0.1274(2)
O12A O 1.5467(3) 1.3131(3) 0.3107(2)
O13A O 0.1132(2) -0.5059(3) -0.31714(19)
O13A_2 O 1.1132(2) 0.4941(3) -0.31714(19)
O13_2 O 1.8868(2) 1.5059(3) 0.31714(19)
O14A O 1.1554(3) 0.5924(3) 0.51253(19)
O14A_2 O 0.1554(3) -0.4076(3) -0.48747(19)
O14A_3 O 1.1554(3) 0.5924(3) -0.48747(19)
O14_2 O 0.8446(3) 0.4076(3) -0.51253(19)
O14_3 O 1.8446(3) 1.4076(3) 0.48747(19)
O15A O 1.6310(3) 1.5107(4) 0.5636(2)
O16A O 1.6784(3) 1.6435(3) 0.3894(2)
C1A C 0.2928(4) -0.0596(4) -0.2059(3)
C2A C 0.2628(4) 0.0018(5) -0.2847(4)
H1A H 0.3459 0.1103 -0.2597
H2A H 0.2613 -0.0619 -0.3632
C3A C 0.1083(5) -0.0027(5) -0.2853(4)
H3A H 0.1272 0.0993 -0.2759
H4A H 0.0757 -0.0141 -0.2177
C4A C -0.0230(4) -0.1310(4) -0.3911(3)
C5A C 0.8533(4) 0.5504(4) -0.1805(3)
C6A C 0.7082(4) 0.4941(5) -0.1383(3)
H5A H 0.6274 0.4813 -0.1897
H6A H 0.6763 0.3908 -0.1429
C7A C 0.7270(5) 0.6084(5) -0.0124(3)
H7A H 0.8190 0.7107 0.0089
H8A H 0.6405 0.6237 -0.0109
C8A C 0.7380(4) 0.5561(4) 0.0796(3)
C9A C 1.2132(4) 0.8592(4) 0.1024(3)
C10A C 1.2368(5) 1.0150(5) 0.1906(4)
H9A H 1.1370 0.9988 0.2009
H10A H 1.2955 1.0426 0.2643
C11A C 1.4887(4) 1.2412(4) 0.2054(3)
C12A C 1.3164(4) 1.1562(4) 0.1655(3)
H11A H 1.2872 1.1205 0.0825
H12A H 1.2829 1.2298 0.2046
Co1A Co 1.01885(5) 0.60443(5) -0.37015(4)
Co1A_2 Co 1.01885(5) 0.60443(5) 0.62985(4)
Co1A_3 Co 0.01885(5) -0.39557(5) -0.37015(4)
Co2A Co 1.79982(5) 1.34523(5) 0.14907(4)
Co2A_2 Co 0.79982(5) 0.34523(5) 0.14907(4)
Co2_2 Co 1.20018(5) 0.65477(5) -0.14907(4)
Co3A Co 1.75034(5) 1.51015(6) 0.43187(4)
Co3_2 Co 1.24966(5) 0.48985(6) 0.56813(4)
Co3A_2 Co 0.75034(5) 0.51015(6) 0.43187(4)
Co3A_3 Co -0.24966(5) -0.48985(6) -0.56813(4)
Co5_2 Co 1.5000 1.0000 0.0000
H13A H 1.689(4) 1.528(6) 0.621(3)
H14A H 1.690(6) 1.630(6) 0.322(2)
H16A H 1.749(5) 1.738(3) 0.438(3)
H17A H 1.541(2) 1.450(5) 0.561(4)
O17 O 0.6416(5) 0.1661(6) 0.5561(5)
H19 H 0.562(4) 0.163(7) 0.525(5)
H20 H 0.610(5) 0.114(6) 0.595(5)
O18 O 0.9015(4) 0.1905(4) 0.6539(3)
H15 H 0.904(6) 0.107(4) 0.629(4)
H18 H 0.911(6) 0.231(5) 0.7253(18)
loop_
_geom_bond_atom_site_label_1
_geom_bond_atom_site_label_2
_geom_bond_site_symmetry_1
_geom_bond_site_symmetry_2
O1 C1 1_555 1_555
O2 C1 1_555 1_555
O3 C4 1_555 1_555
O4 C4 1_555 1_555
O5 C5 1_555 1_555
O6 C5 1_555 1_555
O7 C8 1_555 1_555
O8 C8 1_555 1_555
O9 C9 1_555 1_555
O10 C9 1_555 1_555
O11 C11 1_555 1_555
O12 C11 1_555 1_555
O13 Co1 1_555 1_555
O14 Co1 1_555 1_555
O15 Co3 1_555 1_555
O16 Co3 1_555 1_555
O17 H19 1_555 1_555
O18 H15 1_555 1_555
C1 C2 1_555 1_555
C2 H1 1_555 1_555
H2 C2 1_555 1_555
C3 C2 1_555 1_555
H3 C3 1_555 1_555
H4 C3 1_555 1_555
C4 C3 1_555 1_555
C5 C6 1_555 1_555
C6 H5 1_555 1_555
H6 C6 1_555 1_555
C7 C6 1_555 1_555
H7 C7 1_555 1_555
H8 C7 1_555 1_555
C8 C7 1_555 1_555
C9 C10 1_555 1_555
C10 H9 1_555 1_555
H10 C10 1_555 1_555
C11 C12 1_555 1_555
C12 C10 1_555 1_555
H11 C12 1_555 1_555
H12 C12 1_555 1_555
Co1 O1 1_555 1_555
Co2 O11 1_555 1_555
Co3 O12 1_555 1_555
Co4 O6 1_555 1_555
Co5 O2 1_555 1_555
H13 O15 1_555 1_555
H14 O16 1_555 1_555
H16 O16 1_555 1_555
H17 O15 1_555 1_555
H18 O18 1_555 1_555
H20 O17 1_555 1_555
O1A Co2 1_555 1_555
O1A_2 Co1A 1_555 1_555
O1_2 Co2A 1_555 1_555
O2A Co5 1_555 1_555
O3A C4A 1_555 1_555
O3_2 Co3 1_555 1_555
O3A_2 Co1A 1_555 1_555
O3A_3 Co3A 1_555 1_555
O4A C4A 1_555 1_555
O5A C5A 1_555 1_555
O6A Co4 1_555 1_555
O6A_2 Co2 1_555 1_555
O6_2 Co2A 1_555 1_555
O7A Co4 1_555 1_555
O7_2 Co2 1_555 1_555
O7A_2 Co2A 1_555 1_555
O8A C8A 1_555 1_555
O9A C9A 1_555 1_555
O9A_2 Co2 1_555 1_555
O9_2 Co2A 1_555 1_555
O10A Co4 1_555 1_555
O11A C11A 1_555 1_555
O11A_2 Co5 1_555 1_555
O12A C11A 1_555 1_555
O13A Co2 1_555 1_555
O13A_2 Co1A 1_555 1_555
O13_2 Co2A 1_555 1_555
O14A Co1 1_555 1_555
O14A_2 Co3 1_555 1_555
O14A_3 Co1A 1_555 1_555
O14_2 Co1A 1_555 1_555
O14_3 Co3A 1_555 1_555
O15A Co3A 1_555 1_555
O16A Co3A 1_555 1_555
C1A O1A 1_555 1_555
C2A C1A 1_555 1_555
H1A C2A 1_555 1_555
H2A C2A 1_555 1_555
C3A C2A 1_555 1_555
H3A C3A 1_555 1_555
H4A C3A 1_555 1_555
C4A C3A 1_555 1_555
C5A O6A 1_555 1_555
C6A C5A 1_555 1_555
H5A C6A 1_555 1_555
H6A C6A 1_555 1_555
C7A C6A 1_555 1_555
H7A C7A 1_555 1_555
H8A C7A 1_555 1_555
C8A O7A 1_555 1_555
C9A O10A 1_555 1_555
C10A C9A 1_555 1_555
H9A C10A 1_555 1_555
H10A C10A 1_555 1_555
C11A C12A 1_555 1_555
C12A C10A 1_555 1_555
H11A C12A 1_555 1_555
H12A C12A 1_555 1_555
Co1A O5A 1_555 1_555
Co1A_2 O14 1_555 1_555
Co1A_3 O1A 1_555 1_555
Co2A O11A 1_555 1_555
Co2A_2 O1 1_555 1_555
Co2_2 O7 1_555 1_555
Co3A O12A 1_555 1_555
Co3_2 O3 1_555 1_555
Co3A_2 O13 1_555 1_555
Co3A_3 O3A 1_555 1_555
Co5_2 O9A 1_555 1_555
H13A O15A 1_555 1_555
H14A O16A 1_555 1_555
H16A O16A 1_555 1_555
H17A O15A 1_555 1_555
O3 Co1 1_555 1_555
O5 Co1 1_555 1_555
O6 Co2A_2 1_555 1_555
O7 Co4 1_555 1_555
O9 Co5 1_555 1_555
O9 Co2A_2 1_555 1_555
O10 Co4 1_555 1_555
O11 Co5 1_555 1_555
O13 Co2A_2 1_555 1_555
O14 Co3A_2 1_555 1_555
Co3 O13A 1_555 1_555
Co5 O9A_2 1_555 1_555
O1A_2 Co2_2 1_555 1_555
O2A C1A 1_555 1_555
O3A Co1A_3 1_555 1_555
O6A Co2_2 1_555 1_555
O7A Co2A_2 1_555 1_555
O9A Co2_2 1_555 1_555
O9_2 Co5_2 1_555 1_555
O11A Co5_2 1_555 1_555
O11A_2 Co2A_2 1_555 1_555
O13A Co1A_3 1_555 1_555
O13A_2 Co2_2 1_555 1_555
O13_2 Co3A 1_555 1_555
O14A Co1A_2 1_555 1_555
O14A Co3_2 1_555 1_555
O14A_2 Co1A_3 1_555 1_555
C7A C8A 1_555 1_555

#END
