
#######################################################################
#
#                 Cambridge Crystallographic Data Centre
#                                CCDC 
#
#######################################################################
#
# If this CIF has been generated from an entry in the Cambridge 
# Structural Database, then it will include bibliographic, chemical, 
# crystal, experimental, refinement or atomic coordinate data resulting 
# from the CCDC's data processing and validation procedures.
#
#######################################################################

data_FUTQAO
_symmetry_cell_setting           monoclinic
_symmetry_space_group_name_H-M   'P 21/c'
_symmetry_Int_Tables_number      14
_space_group_name_Hall           '-P 2ybc'
loop_
_symmetry_equiv_pos_site_id
_symmetry_equiv_pos_as_xyz
1 x,y,z
2 -x,1/2+y,1/2-z
3 -x,-y,-z
4 x,1/2-y,1/2+z
_cell_length_a                   8.0293(3)
_cell_length_b                   15.2558(6)
_cell_length_c                   13.7127(5)
_cell_angle_alpha                90
_cell_angle_beta                 100.6290(10)
_cell_angle_gamma                90
_cell_volume                     1650.89
loop_
_atom_site_label
_atom_site_type_symbol
_atom_site_fract_x
_atom_site_fract_y
_atom_site_fract_z
V1 V 0.47109(4) 0.19667(2) 0.16461(3)
O1 O 0.5732(2) 0.29716(12) 0.28690(14)
O2 O 0.4018(2) 0.12529(12) 0.08102(14)
O3 O 0.3504(2) 0.15650(11) 0.27140(12)
O4 O 0.2078(2) 0.17250(11) 0.39292(12)
O5 O 0.30036(19) 0.29078(10) 0.12749(11)
O6 O 0.08346(19) 0.37592(10) 0.13143(12)
O7 O 0.6743(2) 0.13185(11) 0.23208(12)
O8 O 0.9186(2) 0.06507(11) 0.24308(12)
O9 O 0.6245(2) 0.26326(11) 0.09210(12)
O10 O 0.7756(2) 0.25731(11) -0.02663(12)
C1 C 0.2440(3) 0.19792(13) 0.31357(16)
C2 C 0.1575(3) 0.27944(14) 0.26774(15)
C3 C 0.1795(3) 0.31595(13) 0.17005(15)
C4 C -0.0112(3) 0.29930(16) 0.2998(2)
H1 H -0.1005 0.3283 0.2509
H2 H -0.0536 0.2563 0.3434
C5 C 0.1382(4) 0.35184(16) 0.34291(18)
H3 H 0.1892 0.3415 0.4134
H4 H 0.1423 0.4135 0.3209
C6 C 0.8071(3) 0.11302(13) 0.19653(15)
C7 C 0.8292(3) 0.14717(14) 0.09701(15)
C8 C 0.7380(3) 0.22680(14) 0.05027(15)
C9 C 1.0027(3) 0.13172(16) 0.06978(18)
H5 H 1.0450 0.1762 0.0278
H6 H 1.0912 0.1044 0.1205
C10 C 0.8606(3) 0.07600(15) 0.02279(17)
H7 H 0.8602 0.0141 0.0444
H8 H 0.8139 0.0859 -0.0483
Ca1 Ca 0.24469(5) 0.44073(3) 0.01380(3)
O11 O 0.09257(19) 0.56872(10) 0.06080(11)
O12 O 0.20179(19) 0.52034(10) -0.14632(12)
O13 O 0.4392(2) 0.46864(12) 0.17652(14)
H9 H 0.653(5) 0.288(3) 0.342(2)
H10 H 0.548(5) 0.3561(16) 0.283(3)
H11 H 0.107(4) 0.570(2) 0.1305(15)
H12 H 0.164(4) 0.4791(19) -0.194(2)
H13 H 0.141(5) 0.6225(18) 0.047(2)
H14 H 0.121(4) 0.564(2) -0.158(3)
H15 H 0.559(3) 0.469(3) 0.182(3)
H16 H 0.420(5) 0.507(3) 0.225(3)
O14 O 0.5313(2) 0.41001(10) -0.01807(12)
H17 H 0.566(5) 0.3613(18) 0.022(2)
H18 H 0.511(5) 0.383(2) -0.0815(17)
O4C O 0.2078(2) 0.32750(11) -0.10708(12)
Ca1B Ca -0.24469(5) 0.55927(3) -0.01380(3)
Ca1C Ca 0.24469(5) 0.05927(3) 0.51380(3)
O11B O -0.09257(19) 0.43128(10) -0.06080(11)
O15 O 0.4789(5) 0.0538(2) -0.1052(3)
H19 H 0.562(5) 0.006(2) -0.066(3)
H20 H 0.430(5) 0.065(3) -0.039(2)
loop_
_geom_bond_atom_site_label_1
_geom_bond_atom_site_label_2
_geom_bond_site_symmetry_1
_geom_bond_site_symmetry_2
V1 O1 1_555 1_555
O1 H9 1_555 1_555
O2 V1 1_555 1_555
O3 V1 1_555 1_555
O4 C1 1_555 1_555
O5 V1 1_555 1_555
O6 C3 1_555 1_555
O7 V1 1_555 1_555
O8 C6 1_555 1_555
O9 V1 1_555 1_555
O10 C8 1_555 1_555
C1 O3 1_555 1_555
C2 C1 1_555 1_555
C3 O5 1_555 1_555
C4 C2 1_555 1_555
H1 C4 1_555 1_555
H2 C4 1_555 1_555
C5 C2 1_555 1_555
H3 C5 1_555 1_555
H4 C5 1_555 1_555
C6 O7 1_555 1_555
C7 C6 1_555 1_555
C8 O9 1_555 1_555
C9 C7 1_555 1_555
H5 C9 1_555 1_555
H6 C9 1_555 1_555
C10 C7 1_555 1_555
H7 C10 1_555 1_555
H8 C10 1_555 1_555
Ca1 O5 1_555 1_555
O11 Ca1 1_555 1_555
O12 Ca1 1_555 1_555
O13 Ca1 1_555 1_555
H10 O1 1_555 1_555
H11 O11 1_555 1_555
H12 O12 1_555 1_555
H13 O11 1_555 1_555
H14 O12 1_555 1_555
H15 O13 1_555 1_555
H16 O13 1_555 1_555
O14 Ca1 1_555 1_555
H17 O14 1_555 1_555
H18 O14 1_555 1_555
O15 H19 1_555 1_555
H20 O15 1_555 1_555
O4C Ca1 1_555 1_555
Ca1B O11 1_555 1_555
Ca1C O4 1_555 1_555
O11B Ca1 1_555 1_555
O6 Ca1 1_555 1_555
C2 C3 1_555 1_555
C4 C5 1_555 1_555
C7 C8 1_555 1_555
C9 C10 1_555 1_555
Ca1B O11B 1_555 1_555

#END
