
#######################################################################
#
#                 Cambridge Crystallographic Data Centre
#                                CCDC 
#
#######################################################################
#
# If this CIF has been generated from an entry in the Cambridge 
# Structural Database, then it will include bibliographic, chemical, 
# crystal, experimental, refinement or atomic coordinate data resulting 
# from the CCDC's data processing and validation procedures.
#
#######################################################################

data_FUTQUI
_symmetry_cell_setting           orthorhombic
_symmetry_space_group_name_H-M   'P n n a'
_symmetry_Int_Tables_number      52
_space_group_name_Hall           '-P 2a 2bc'
loop_
_symmetry_equiv_pos_site_id
_symmetry_equiv_pos_as_xyz
1 x,y,z
2 x,1/2-y,1/2-z
3 1/2-x,1/2+y,1/2-z
4 1/2-x,-y,z
5 -x,-y,-z
6 -x,1/2+y,1/2+z
7 1/2+x,1/2-y,1/2+z
8 1/2+x,y,-z
_cell_length_a                   11.299(3)
_cell_length_b                   24.568(6)
_cell_length_c                   14.021(4)
_cell_angle_alpha                90
_cell_angle_beta                 90
_cell_angle_gamma                90
_cell_volume                     3892.14
loop_
_atom_site_label
_atom_site_type_symbol
_atom_site_fract_x
_atom_site_fract_y
_atom_site_fract_z
V1 V 0.28256(3) 0.377316(15) 0.21784(3)
Ca1 Ca 0.16200(6) 0.2500 0.2500
Ca2 Ca 0.2500 0.5000 0.44863(4)
O1 O 0.30092(18) 0.41070(7) 0.12255(14)
O2 O 0.12169(15) 0.34562(6) 0.20474(12)
O3 O -0.06815(18) 0.34829(8) 0.1735(2)
O4 O 0.20944(15) 0.43351(7) 0.30337(13)
O5 O 0.06425(17) 0.48036(8) 0.36294(13)
O6 O 0.33285(14) 0.30235(6) 0.18022(12)
O7 O 0.45673(16) 0.24073(7) 0.12545(14)
O8 O 0.43683(15) 0.38495(7) 0.28294(12)
O9 O 0.62625(18) 0.37127(9) 0.30413(16)
O10 O 0.1250(2) 0.57793(8) 0.47730(15)
O11 O 0.25187(17) 0.31620(7) 0.35974(13)
O12 O 0.0030(2) 0.24389(9) 0.13765(19)
O13 O 0.36573(19) 0.53929(9) 0.57219(15)
C1 C 0.0217(2) 0.37151(9) 0.19858(18)
C2 C 0.0200(2) 0.43229(9) 0.21847(17)
C3 C 0.1003(2) 0.44930(9) 0.30059(17)
C4 C -0.1053(3) 0.45738(13) 0.2156(2)
H1 H -0.1146 0.4889 0.2566
H2 H -0.1681 0.4312 0.2264
C5 C -0.0863(4) 0.47185(16) 0.1089(3)
H3 H -0.1212 0.4459 0.0650
H4 H -0.1088 0.5088 0.0926
C6 C 0.0462(3) 0.46428(11) 0.1232(2)
H5 H 0.0889 0.4981 0.1328
H6 H 0.0836 0.4423 0.0743
C7 C 0.4389(2) 0.28648(9) 0.15788(15)
C8 C 0.5411(2) 0.32625(9) 0.16963(16)
C9 C 0.5353(2) 0.36226(9) 0.25840(17)
C10 C 0.5550(3) 0.36102(12) 0.0753(2)
H7 H 0.4917 0.3555 0.0295
H8 H 0.5684 0.3995 0.0866
C11 C 0.6661(4) 0.3295(2) 0.0529(3)
H9 H 0.6573 0.3049 -0.0007
H10 H 0.7351 0.3524 0.0446
C12 C 0.6632(2) 0.30096(12) 0.1480(2)
H11 H 0.7250 0.3128 0.1914
H12 H 0.6618 0.2616 0.1430
H13 H 0.318(2) 0.3030(14) 0.374(2)
H14 H 0.210(2) 0.3210(14) 0.4087(19)
H15 H 0.349(3) 0.5633(13) 0.615(2)
H16 H -0.026(3) 0.2753(9) 0.145(3)
H17 H 0.099(3) 0.5888(15) 0.4242(19)
H18 H 0.426(2) 0.5225(13) 0.593(2)
H19 H -0.051(3) 0.2208(13) 0.132(3)
H20 H 0.102(4) 0.578(2) 0.5305(18)
V1A V 0.28256(3) 0.122684(15) 0.28216(3)
O1A O 0.30092(18) 0.08930(7) 0.37745(14)
O2A O 0.12169(15) 0.15438(6) 0.29526(12)
O3A O -0.06815(18) 0.15171(8) 0.3265(2)
O4A O 0.20944(15) 0.06649(7) 0.19663(13)
O5A O 0.06425(17) 0.01964(8) 0.13706(13)
O6A O 0.33285(14) 0.19765(6) 0.31978(12)
O7A O 0.45673(16) 0.25927(7) 0.37455(14)
O8A O 0.43683(15) 0.11505(7) 0.21706(12)
O9A O 0.62625(18) 0.12873(9) 0.19587(16)
O11A O 0.25187(17) 0.18380(7) 0.14026(13)
O12A O 0.0030(2) 0.25611(9) 0.36235(19)
C1A C 0.0217(2) 0.12849(9) 0.30142(18)
C2A C 0.0200(2) 0.06771(9) 0.28153(17)
C3A C 0.1003(2) 0.05070(9) 0.19941(17)
C4A C -0.1053(3) 0.04262(13) 0.2844(2)
H1A H -0.1146 0.0111 0.2434
H2A H -0.1681 0.0688 0.2736
C5A C -0.0863(4) 0.02815(16) 0.3911(3)
H3A H -0.1212 0.0541 0.4350
H4A H -0.1088 -0.0088 0.4074
C6A C 0.0462(3) 0.03572(11) 0.3768(2)
H5A H 0.0889 0.0019 0.3672
H6A H 0.0836 0.0577 0.4257
C7A C 0.4389(2) 0.21352(9) 0.34212(15)
C8A C 0.5411(2) 0.17375(9) 0.33037(16)
C9A C 0.5353(2) 0.13774(9) 0.24160(17)
C10A C 0.5550(3) 0.13898(12) 0.4247(2)
H7A H 0.4917 0.1445 0.4705
H8A H 0.5684 0.1005 0.4134
C11A C 0.6661(4) 0.1705(2) 0.4471(3)
H9A H 0.6573 0.1951 0.5007
H10A H 0.7351 0.1476 0.4554
C12A C 0.6632(2) 0.19904(12) 0.3520(2)
H11A H 0.7250 0.1872 0.3086
H12A H 0.6618 0.2384 0.3570
H13A H 0.318(2) 0.1970(14) 0.126(2)
H14A H 0.210(2) 0.1790(14) 0.0913(19)
H16A H -0.026(3) 0.2247(9) 0.355(3)
H19A H -0.051(3) 0.2792(13) 0.368(3)
O10C O 0.3750(2) 0.42207(8) 0.47730(15)
H17C H 0.401(3) 0.4112(15) 0.4242(19)
H20C H 0.398(4) 0.422(2) 0.5305(18)
O13C O 0.13427(19) 0.46071(9) 0.57219(15)
H15C H 0.151(3) 0.4367(13) 0.615(2)
H18C H 0.074(2) 0.4775(13) 0.593(2)
Ca2A Ca 0.2500 0.0000 0.05137(4)
O4C O 0.29056(15) 0.56649(7) 0.30337(13)
O5C O 0.43575(17) 0.51964(8) 0.36294(13)
O14 O 0.8394(3) 0.33814(14) 0.3874(3)
H21 H 0.786(3) 0.3445(18) 0.347(3)
H22 H 0.841(4) 0.3615(16) 0.431(2)
O15 O 0.5928(3) 0.33570(13) 0.5012(2)
H23 H 0.622(4) 0.3390(18) 0.445(2)
H24 H 0.538(3) 0.3115(15) 0.501(3)
loop_
_geom_bond_atom_site_label_1
_geom_bond_atom_site_label_2
_geom_bond_site_symmetry_1
_geom_bond_site_symmetry_2
V1 O1 1_555 1_555
Ca1 O2 1_555 1_555
Ca2 O4 1_555 1_555
O2 V1 1_555 1_555
O3 C1 1_555 1_555
O4 V1 1_555 1_555
O5 Ca2 1_555 1_555
O6 V1 1_555 1_555
O7 C7 1_555 1_555
O8 V1 1_555 1_555
O9 C9 1_555 1_555
O10 Ca2 1_555 1_555
O11 Ca1 1_555 1_555
O12 Ca1 1_555 1_555
O13 Ca2 1_555 1_555
C1 O2 1_555 1_555
C2 C1 1_555 1_555
C3 O4 1_555 1_555
C4 C2 1_555 1_555
H1 C4 1_555 1_555
H2 C4 1_555 1_555
C5 C4 1_555 1_555
H3 C5 1_555 1_555
H4 C5 1_555 1_555
C6 C2 1_555 1_555
H5 C6 1_555 1_555
H6 C6 1_555 1_555
C7 O6 1_555 1_555
C8 C7 1_555 1_555
C9 O8 1_555 1_555
C10 C8 1_555 1_555
H7 C10 1_555 1_555
H8 C10 1_555 1_555
C11 C10 1_555 1_555
H9 C11 1_555 1_555
H10 C11 1_555 1_555
C12 C8 1_555 1_555
H11 C12 1_555 1_555
H12 C12 1_555 1_555
H13 O11 1_555 1_555
H14 O11 1_555 1_555
H15 O13 1_555 1_555
H16 O12 1_555 1_555
H17 O10 1_555 1_555
H18 O13 1_555 1_555
H19 O12 1_555 1_555
H20 O10 1_555 1_555
O14 H21 1_555 1_555
H22 O14 1_555 1_555
O15 H23 1_555 1_555
H24 O15 1_555 1_555
V1A O1A 1_555 1_555
O2A Ca1 1_555 1_555
O3A C1A 1_555 1_555
O4A V1A 1_555 1_555
O5A C3A 1_555 1_555
O6A Ca1 1_555 1_555
O7A C7A 1_555 1_555
O8A V1A 1_555 1_555
O9A C9A 1_555 1_555
O11A Ca1 1_555 1_555
O12A Ca1 1_555 1_555
C1A O2A 1_555 1_555
C2A C1A 1_555 1_555
C3A O4A 1_555 1_555
C4A C2A 1_555 1_555
H1A C4A 1_555 1_555
H2A C4A 1_555 1_555
C5A C4A 1_555 1_555
H3A C5A 1_555 1_555
H4A C5A 1_555 1_555
C6A C2A 1_555 1_555
H5A C6A 1_555 1_555
H6A C6A 1_555 1_555
C7A O6A 1_555 1_555
C8A C7A 1_555 1_555
C9A O8A 1_555 1_555
C10A C8A 1_555 1_555
H7A C10A 1_555 1_555
H8A C10A 1_555 1_555
C11A C10A 1_555 1_555
H9A C11A 1_555 1_555
H10A C11A 1_555 1_555
C12A C8A 1_555 1_555
H11A C12A 1_555 1_555
H12A C12A 1_555 1_555
H13A O11A 1_555 1_555
H14A O11A 1_555 1_555
H16A O12A 1_555 1_555
H19A O12A 1_555 1_555
O10C Ca2 1_555 1_555
H17C O10C 1_555 1_555
H20C O10C 1_555 1_555
O13C Ca2 1_555 1_555
H15C O13C 1_555 1_555
H18C O13C 1_555 1_555
Ca2A O4A 1_555 1_555
O4C Ca2 1_555 1_555
O5C Ca2 1_555 1_555
Ca1 O6 1_555 1_555
O5 C3 1_555 1_555
C2 C3 1_555 1_555
C5 C6 1_555 1_555
C8 C9 1_555 1_555
C11 C12 1_555 1_555
V1A O2A 1_555 1_555
V1A O6A 1_555 1_555
O5A Ca2A 1_555 1_555
C2A C3A 1_555 1_555
C5A C6A 1_555 1_555
C8A C9A 1_555 1_555
C11A C12A 1_555 1_555

#END
