
#######################################################################
#
#                 Cambridge Crystallographic Data Centre
#                                CCDC 
#
#######################################################################
#
# If this CIF has been generated from an entry in the Cambridge 
# Structural Database, then it will include bibliographic, chemical, 
# crystal, experimental, refinement or atomic coordinate data resulting 
# from the CCDC's data processing and validation procedures.
#
#######################################################################

data_FUTTUK
_symmetry_cell_setting           cubic
_symmetry_space_group_name_H-M   'I m -3 m'
_symmetry_Int_Tables_number      229
_space_group_name_Hall           '-I 4 2 3'
loop_
_symmetry_equiv_pos_site_id
_symmetry_equiv_pos_as_xyz
1 x,y,z
2 -x,-y,z
3 -x,y,-z
4 x,-y,-z
5 z,x,y
6 z,-x,-y
7 -z,-x,y
8 -z,x,-y
9 y,z,x
10 -y,z,-x
11 y,-z,-x
12 -y,-z,x
13 y,x,-z
14 -y,-x,-z
15 y,-x,z
16 -y,x,z
17 x,z,-y
18 -x,z,y
19 -x,-z,-y
20 x,-z,y
21 z,y,-x
22 z,-y,x
23 -z,y,x
24 -z,-y,-x
25 1/2+x,1/2+y,1/2+z
26 1/2-x,1/2-y,1/2+z
27 1/2-x,1/2+y,1/2-z
28 1/2+x,1/2-y,1/2-z
29 1/2+z,1/2+x,1/2+y
30 1/2+z,1/2-x,1/2-y
31 1/2-z,1/2-x,1/2+y
32 1/2-z,1/2+x,1/2-y
33 1/2+y,1/2+z,1/2+x
34 1/2-y,1/2+z,1/2-x
35 1/2+y,1/2-z,1/2-x
36 1/2-y,1/2-z,1/2+x
37 1/2+y,1/2+x,1/2-z
38 1/2-y,1/2-x,1/2-z
39 1/2+y,1/2-x,1/2+z
40 1/2-y,1/2+x,1/2+z
41 1/2+x,1/2+z,1/2-y
42 1/2-x,1/2+z,1/2+y
43 1/2-x,1/2-z,1/2-y
44 1/2+x,1/2-z,1/2+y
45 1/2+z,1/2+y,1/2-x
46 1/2+z,1/2-y,1/2+x
47 1/2-z,1/2+y,1/2+x
48 1/2-z,1/2-y,1/2-x
49 -x,-y,-z
50 x,y,-z
51 x,-y,z
52 -x,y,z
53 -z,-x,-y
54 -z,x,y
55 z,x,-y
56 z,-x,y
57 -y,-z,-x
58 y,-z,x
59 -y,z,x
60 y,z,-x
61 -y,-x,z
62 y,x,z
63 -y,x,-z
64 y,-x,-z
65 -x,-z,y
66 x,-z,-y
67 x,z,y
68 -x,z,-y
69 -z,-y,x
70 -z,y,-x
71 z,-y,-x
72 z,y,x
73 1/2-x,1/2-y,1/2-z
74 1/2+x,1/2+y,1/2-z
75 1/2+x,1/2-y,1/2+z
76 1/2-x,1/2+y,1/2+z
77 1/2-z,1/2-x,1/2-y
78 1/2-z,1/2+x,1/2+y
79 1/2+z,1/2+x,1/2-y
80 1/2+z,1/2-x,1/2+y
81 1/2-y,1/2-z,1/2-x
82 1/2+y,1/2-z,1/2+x
83 1/2-y,1/2+z,1/2+x
84 1/2+y,1/2+z,1/2-x
85 1/2-y,1/2-x,1/2+z
86 1/2+y,1/2+x,1/2+z
87 1/2-y,1/2+x,1/2-z
88 1/2+y,1/2-x,1/2-z
89 1/2-x,1/2-z,1/2+y
90 1/2+x,1/2-z,1/2-y
91 1/2+x,1/2+z,1/2+y
92 1/2-x,1/2+z,1/2-y
93 1/2-z,1/2-y,1/2+x
94 1/2-z,1/2+y,1/2-x
95 1/2+z,1/2-y,1/2-x
96 1/2+z,1/2+y,1/2+x
_cell_length_a                   26.348(3)
_cell_length_b                   26.348(3)
_cell_length_c                   26.348(3)
_cell_angle_alpha                90
_cell_angle_beta                 90
_cell_angle_gamma                90
_cell_volume                     18291.2
loop_
_atom_site_label
_atom_site_type_symbol
_atom_site_fract_x
_atom_site_fract_y
_atom_site_fract_z
O2 O -0.1616(4) 0.0000 0.0000
Dy1 Dy -0.5000 0.1070(3) 0.0000
S2 S -0.5000 0.2500 0.0000
O3 O -0.4637 0.2160(6) 0.0000(6)
O4 O -0.4436(3) 0.1204(3) 0.0609(3)
O5 O -0.5000 0.0000 0.0000
N1 N -0.2346(4) 0.2346(4) 0.1706(5)
C2 C -0.3619(4) 0.1688(5) 0.1062(4)
H3 H -0.3782 0.1853 0.0791
C3 C -0.2984(5) 0.1680(5) 0.1680(5)
C4 C -0.2539(5) 0.1940(5) 0.1940(5)
C5 C -0.3186(4) 0.1882(5) 0.1257(4)
H4 H -0.3026 0.2157 0.1097
C6 C -0.4268(6) 0.1012(5) 0.1012(5)
C7 C -0.3819(5) 0.1257(5) 0.1257(5)
Dy1Q Dy -0.5000 0.0000 0.1070(3)
Dy1P Dy -0.5000 0.0000 -0.1070(3)
Dy1SA Dy -0.5000 0.3930(3) 0.0000
Dy1A Dy -0.5000 -0.1070(3) 0.0000
Dy1CA Dy -0.5000 0.0000 0.3930(3)
Dy1BA Dy -0.5000 0.0000 -0.3930(3)
Dy1RA Dy -0.5000 -0.3930(3) 0.0000
Dy1RA_2 Dy -0.5000 0.6070(3) 0.0000
Dy1FA Dy -0.3930(3) 0.5000 0.0000
Dy1GA Dy -0.6070(3) 0.5000 0.0000
Dy1A_2 Dy -0.5000 0.8930(3) 0.0000
Dy1BA_2 Dy -0.5000 0.0000 0.6070(3)
Dy1JA Dy -0.3930(3) 0.0000 0.5000
Dy1KA Dy -0.6070(3) 0.0000 0.5000
Dy1M Dy -0.1070(3) 0.5000 0.0000
S2Q S -0.5000 0.0000 0.2500
S2P S -0.5000 0.0000 -0.2500
S2A S -0.5000 -0.2500 0.0000
S2A_2 S -0.5000 0.7500 0.0000
S2M S -0.2500 0.5000 0.0000
O3B O -0.5363 0.2160(6) 0.0000(6)
O3SA O -0.5000(6) 0.2840(6) 0.0363
O3UA O -0.5000(6) 0.2840(6) -0.0363
O3S O -0.4637 0.0000(6) 0.2160(6)
O3Q O -0.5363 0.0000(6) 0.2160(6)
O3EA O -0.5000(6) 0.0363 0.2840(6)
O3CA O -0.5000(6) -0.0363 0.2840(6)
O3R O -0.5363 0.0000(6) -0.2160(6)
O3P O -0.4637 0.0000(6) -0.2160(6)
O3BA O -0.5000(6) 0.0363 -0.2840(6)
O3DA O -0.5000(6) -0.0363 -0.2840(6)
O3A O -0.5363 -0.2160(6) 0.0000(6)
O3C O -0.4637 -0.2160(6) 0.0000(6)
O3TA O -0.5000(6) -0.2840(6) 0.0363
O3RA O -0.5000(6) -0.2840(6) -0.0363
O3RA_2 O -0.5000(6) 0.7160(6) -0.0363
O3TA_2 O -0.5000(6) 0.7160(6) 0.0363
O3C_2 O -0.4637 0.7840(6) 0.0000(6)
O3A_2 O -0.5363 0.7840(6) 0.0000(6)
O3FA O -0.2840(6) 0.5000(6) 0.0363
O3HA O -0.2840(6) 0.5000(6) -0.0363
O3O O -0.2160(6) 0.5363 0.0000(6)
O3M O -0.2160(6) 0.4637 0.0000(6)
O3GA O -0.7160(6) 0.5000(6) -0.0363
O3IA O -0.7160(6) 0.5000(6) 0.0363
O4NB O -0.4436(3) 0.0609(3) 0.1204(3)
O4B O -0.5564(3) 0.1204(3) -0.0609(3)
O4OB O -0.5564(3) 0.0609(3) -0.1204(3)
O4WA O -0.4436(3) 0.1204(3) -0.0609(3)
O4P O -0.4436(3) 0.0609(3) -0.1204(3)
O4YA O -0.5564(3) 0.1204(3) 0.0609(3)
O4Q O -0.5564(3) 0.0609(3) 0.1204(3)
O4LB O -0.5564(3) -0.0609(3) 0.1204(3)
O4A O -0.5564(3) -0.1204(3) 0.0609(3)
O4S O -0.4436(3) -0.0609(3) 0.1204(3)
O4XA O -0.4436(3) -0.1204(3) 0.0609(3)
O4MB O -0.4436(3) -0.0609(3) -0.1204(3)
O4R O -0.5564(3) -0.0609(3) -0.1204(3)
O4SA O -0.4391(3) 0.3796(3) 0.0564(3)
O4UA O -0.5609(3) 0.3796(3) -0.0564(3)
O4NC O -0.5609(3) 0.3796(3) 0.0564(3)
O4PC O -0.4391(3) 0.3796(3) -0.0564(3)
O4C O -0.4436(3) -0.1204(3) -0.0609(3)
O4VA O -0.5564(3) -0.1204(3) -0.0609(3)
O4ZB O -0.4391(3) 0.0564(3) 0.3796(3)
O4XB O -0.5609(3) -0.0564(3) 0.3796(3)
O4EA O -0.5609(3) 0.0564(3) 0.3796(3)
O4CA O -0.4391(3) -0.0564(3) 0.3796(3)
O4YB O -0.5609(3) 0.0564(3) -0.3796(3)
O4AC O -0.4391(3) -0.0564(3) -0.3796(3)
O4BA O -0.4391(3) 0.0564(3) -0.3796(3)
O4DA O -0.5609(3) -0.0564(3) -0.3796(3)
O4TA O -0.5609(3) -0.3796(3) 0.0564(3)
O4RA O -0.4391(3) -0.3796(3) -0.0564(3)
O4QC O -0.4391(3) -0.3796(3) 0.0564(3)
O4OC O -0.5609(3) -0.3796(3) -0.0564(3)
O4RA_2 O -0.4391(3) 0.6204(3) -0.0564(3)
O4TA_2 O -0.5609(3) 0.6204(3) 0.0564(3)
O4OC_2 O -0.5609(3) 0.6204(3) -0.0564(3)
O4QC_2 O -0.4391(3) 0.6204(3) 0.0564(3)
O4FA O -0.3796(3) 0.5609(3) 0.0564(3)
O4HA O -0.3796(3) 0.4391(3) -0.0564(3)
O4CC O -0.3796(3) 0.4391(3) 0.0564(3)
O4EC O -0.3796(3) 0.5609(3) -0.0564(3)
O4GA O -0.6204(3) 0.5609(3) -0.0564(3)
O4IA O -0.6204(3) 0.4391(3) 0.0564(3)
O4BC O -0.6204(3) 0.4391(3) -0.0564(3)
O4DC O -0.6204(3) 0.5609(3) 0.0564(3)
O4C_2 O -0.4436(3) 0.8796(3) -0.0609(3)
O4A_2 O -0.5564(3) 0.8796(3) 0.0609(3)
O4XA_2 O -0.4436(3) 0.8796(3) 0.0609(3)
O4VA_2 O -0.5564(3) 0.8796(3) -0.0609(3)
O5FA O -0.5000 0.5000 0.0000
O5BA O -0.5000 0.0000 0.5000
O5BA_2 O -0.5000 0.0000 -0.5000
O5FA_2 O -0.5000 -0.5000 0.0000
O5_2 O -0.5000 1.0000 0.0000
N1I N -0.2346(4) 0.1706(5) 0.2346(4)
N1B N -0.7654(4) 0.2346(4) -0.1706(5)
N1H N -0.7654(4) 0.1706(5) -0.2346(4)
N1M N -0.2346(4) 0.2346(4) -0.1706(5)
N1P N -0.2346(4) 0.1706(5) -0.2346(4)
N1N N -0.7654(4) 0.2346(4) 0.1706(5)
N1Q N -0.7654(4) 0.1706(5) 0.2346(4)
N1J N -0.7654(4) -0.1706(5) 0.2346(4)
N1A N -0.7654(4) -0.2346(4) 0.1706(5)
N1S N -0.2346(4) -0.1706(5) 0.2346(4)
N1O N -0.2346(4) -0.2346(4) 0.1706(5)
N1F N -0.1706(5) 0.2346(4) 0.2346(4)
N1E N -0.8294(5) 0.2346(4) -0.2346(4)
N1V N -0.1706(5) 0.2346(4) -0.2346(4)
N1T N -0.8294(5) 0.2346(4) 0.2346(4)
N1D N -0.8294(5) -0.2346(4) 0.2346(4)
N1W N -0.1706(5) -0.2346(4) 0.2346(4)
C2NB C -0.3619(4) 0.1062(4) 0.1688(5)
C2B C -0.6381(4) 0.1688(5) -0.1062(4)
C2OB C -0.6381(4) 0.1062(4) -0.1688(5)
C2WA C -0.3619(4) 0.1688(5) -0.1062(4)
C2P C -0.3619(4) 0.1062(4) -0.1688(5)
C2YA C -0.6381(4) 0.1688(5) 0.1062(4)
C2Q C -0.6381(4) 0.1062(4) 0.1688(5)
C2LB C -0.6381(4) -0.1062(4) 0.1688(5)
C2A C -0.6381(4) -0.1688(5) 0.1062(4)
C2S C -0.3619(4) -0.1062(4) 0.1688(5)
C2XA C -0.3619(4) -0.1688(5) 0.1062(4)
H3B H -0.6218 0.1853 -0.0791
H3WA H -0.3782 0.1853 -0.0791
H3YA H -0.6218 0.1853 0.0791
H3NB H -0.3782 0.0791 0.1853
H3LB H -0.6218 -0.0791 0.1853
H3S H -0.3782 -0.0791 0.1853
H3Q H -0.6218 0.0791 0.1853
H3OB H -0.6218 0.0791 -0.1853
H3P H -0.3782 0.0791 -0.1853
H3A H -0.6218 -0.1853 0.0791
H3XA H -0.3782 -0.1853 0.0791
C3B C -0.7016(5) 0.1680(5) -0.1680(5)
C3P C -0.2984(5) 0.1680(5) -0.1680(5)
C3Q C -0.7016(5) 0.1680(5) 0.1680(5)
C3A C -0.7016(5) -0.1680(5) 0.1680(5)
C3S C -0.2984(5) -0.1680(5) 0.1680(5)
C3F C -0.1680(5) 0.2984(5) 0.1680(5)
C3E C -0.8320(5) 0.2984(5) -0.1680(5)
C3M C -0.1680(5) 0.2984(5) -0.1680(5)
C3N C -0.8320(5) 0.2984(5) 0.1680(5)
C3I C -0.1680(5) 0.1680(5) 0.2984(5)
C3J C -0.8320(5) -0.1680(5) 0.2984(5)
C3W C -0.1680(5) -0.1680(5) 0.2984(5)
C3T C -0.8320(5) 0.1680(5) 0.2984(5)
C4F C -0.1940(5) 0.2539(5) 0.1940(5)
C4B C -0.7461(5) 0.1940(5) -0.1940(5)
C4E C -0.8060(5) 0.2539(5) -0.1940(5)
C4P C -0.2539(5) 0.1940(5) -0.1940(5)
C4M C -0.1940(5) 0.2539(5) -0.1940(5)
C4Q C -0.7461(5) 0.1940(5) 0.1940(5)
C4N C -0.8060(5) 0.2539(5) 0.1940(5)
C4I C -0.1940(5) 0.1940(5) 0.2539(5)
C4A C -0.7461(5) -0.1940(5) 0.1940(5)
C4J C -0.8060(5) -0.1940(5) 0.2539(5)
C4S C -0.2539(5) -0.1940(5) 0.1940(5)
C4W C -0.1940(5) -0.1940(5) 0.2539(5)
C4T C -0.8060(5) 0.1940(5) 0.2539(5)
C4H C -0.8060(5) 0.1940(5) -0.2539(5)
C4V C -0.1940(5) 0.1940(5) -0.2539(5)
C4D C -0.8060(5) -0.2539(5) 0.1940(5)
C4O C -0.1940(5) -0.2539(5) 0.1940(5)
C5NB C -0.3186(4) 0.1257(4) 0.1882(5)
C5B C -0.6814(4) 0.1882(5) -0.1257(4)
C5OB C -0.6814(4) 0.1257(4) -0.1882(5)
C5WA C -0.3186(4) 0.1882(5) -0.1257(4)
C5P C -0.3186(4) 0.1257(4) -0.1882(5)
C5YA C -0.6814(4) 0.1882(5) 0.1257(4)
C5Q C -0.6814(4) 0.1257(4) 0.1882(5)
C5LB C -0.6814(4) -0.1257(4) 0.1882(5)
C5A C -0.6814(4) -0.1882(5) 0.1257(4)
C5S C -0.3186(4) -0.1257(4) 0.1882(5)
C5XA C -0.3186(4) -0.1882(5) 0.1257(4)
H4B H -0.6974 0.2157 -0.1097
H4WA H -0.3026 0.2157 -0.1097
H4YA H -0.6974 0.2157 0.1097
H4NB H -0.3026 0.1097 0.2157
H4LB H -0.6974 -0.1097 0.2157
H4S H -0.3026 -0.1097 0.2157
H4Q H -0.6974 0.1097 0.2157
H4OB H -0.6974 0.1097 -0.2157
H4P H -0.3026 0.1097 -0.2157
H4A H -0.6974 -0.2157 0.1097
H4XA H -0.3026 -0.2157 0.1097
C6B C -0.5732(6) 0.1012(5) -0.1012(5)
C6P C -0.4268(6) 0.1012(5) -0.1012(5)
C6Q C -0.5732(6) 0.1012(5) 0.1012(5)
C6A C -0.5732(6) -0.1012(5) 0.1012(5)
C6S C -0.4268(6) -0.1012(5) 0.1012(5)
C7B C -0.6181(5) 0.1257(5) -0.1257(5)
C7P C -0.3819(5) 0.1257(5) -0.1257(5)
C7Q C -0.6181(5) 0.1257(5) 0.1257(5)
C7A C -0.6181(5) -0.1257(5) 0.1257(5)
C7S C -0.3819(5) -0.1257(5) 0.1257(5)
O1 O -0.2555(7) 0.0000 0.2555(7)
S1 S -0.2889(3) 0.0000 0.2889(3)
C1 C -0.2781(8) 0.0000 0.3482(8)
H1 H -0.3100 0.0000 0.3665
H2 H -0.2588 0.0301 0.3572
C1W C -0.3482(8) 0.0000 0.2781(8)
H1W H -0.3665 0.0000 0.3100
H2XA H -0.2588 -0.0301 0.3572
H2W H -0.3572 -0.0301 0.2588
H2QB H -0.3572 0.0301 0.2588
Dy2? Dy -0.5000 0.13561(6) 0.0000
loop_
_geom_bond_atom_site_label_1
_geom_bond_atom_site_label_2
_geom_bond_site_symmetry_1
_geom_bond_site_symmetry_2
O1 S1 1_555 1_555
S1 C1 1_555 1_555
C1 H1 1_555 1_555
H2 C1 1_555 1_555
Dy1 O3 1_555 1_555
S2 O3 1_555 1_555
O4 Dy1 1_555 1_555
O5 Dy1 1_555 1_555
N1 C4 1_555 1_555
C2 H3 1_555 1_555
C3 C4 1_555 1_555
C4 N1I 1_555 1_555
C5 C2 1_555 1_555
H4 C5 1_555 1_555
C6 O4 1_555 1_555
C7 C2 1_555 1_555
C1W S1 1_555 1_555
H1W C1W 1_555 1_555
H2XA C1 1_555 1_555
H2W C1W 1_555 1_555
H2QB C1W 1_555 1_555
Dy1Q O5 1_555 1_555
Dy1P O5 1_555 1_555
Dy1SA O3SA 1_555 1_555
Dy1A O5 1_555 1_555
Dy1CA O3EA 1_555 1_555
Dy1BA O3BA 1_555 1_555
Dy1RA O3TA 1_555 1_555
Dy1RA_2 O3RA_2 1_555 1_555
Dy1FA O3FA 1_555 1_555
Dy1GA O3GA 1_555 1_555
Dy1A_2 O3C_2 1_555 1_555
Dy1BA_2 O5BA 1_555 1_555
Dy1JA O5BA 1_555 1_555
Dy1KA O5BA 1_555 1_555
Dy1M O3O 1_555 1_555
S2Q O3S 1_555 1_555
S2P O3R 1_555 1_555
S2A O3A 1_555 1_555
S2A_2 O3RA_2 1_555 1_555
S2M O3FA 1_555 1_555
O3B Dy1 1_555 1_555
O3SA S2 1_555 1_555
O3UA S2 1_555 1_555
O3S Dy1Q 1_555 1_555
O3Q Dy1Q 1_555 1_555
O3EA S2Q 1_555 1_555
O3CA Dy1CA 1_555 1_555
O3R Dy1P 1_555 1_555
O3P Dy1P 1_555 1_555
O3BA S2P 1_555 1_555
O3DA Dy1BA 1_555 1_555
O3A Dy1A 1_555 1_555
O3C Dy1A 1_555 1_555
O3TA S2A 1_555 1_555
O3RA Dy1RA 1_555 1_555
O3TA_2 Dy1RA_2 1_555 1_555
O3C_2 S2A_2 1_555 1_555
O3A_2 Dy1A_2 1_555 1_555
O3HA Dy1FA 1_555 1_555
O3O S2M 1_555 1_555
O3M Dy1M 1_555 1_555
O3IA Dy1GA 1_555 1_555
O4NB C6 1_555 1_555
O4B Dy1 1_555 1_555
O4OB Dy1P 1_555 1_555
O4WA Dy1 1_555 1_555
O4P Dy1P 1_555 1_555
O4YA Dy1 1_555 1_555
O4Q Dy1Q 1_555 1_555
O4LB Dy1Q 1_555 1_555
O4A Dy1A 1_555 1_555
O4S Dy1Q 1_555 1_555
O4XA Dy1A 1_555 1_555
O4MB Dy1P 1_555 1_555
O4R Dy1P 1_555 1_555
O4SA Dy1SA 1_555 1_555
O4UA Dy1SA 1_555 1_555
O4NC Dy1SA 1_555 1_555
O4PC Dy1SA 1_555 1_555
O4C Dy1A 1_555 1_555
O4VA Dy1A 1_555 1_555
O4ZB Dy1CA 1_555 1_555
O4XB Dy1CA 1_555 1_555
O4EA Dy1CA 1_555 1_555
O4CA Dy1CA 1_555 1_555
O4YB Dy1BA 1_555 1_555
O4AC Dy1BA 1_555 1_555
O4BA Dy1BA 1_555 1_555
O4DA Dy1BA 1_555 1_555
O4TA Dy1RA 1_555 1_555
O4RA Dy1RA 1_555 1_555
O4QC Dy1RA 1_555 1_555
O4OC Dy1RA 1_555 1_555
O4RA_2 Dy1RA_2 1_555 1_555
O4TA_2 Dy1RA_2 1_555 1_555
O4OC_2 Dy1RA_2 1_555 1_555
O4QC_2 Dy1RA_2 1_555 1_555
O4FA Dy1FA 1_555 1_555
O4HA Dy1FA 1_555 1_555
O4CC Dy1FA 1_555 1_555
O4EC Dy1FA 1_555 1_555
O4GA Dy1GA 1_555 1_555
O4IA Dy1GA 1_555 1_555
O4BC Dy1GA 1_555 1_555
O4DC Dy1GA 1_555 1_555
O4C_2 Dy1A_2 1_555 1_555
O4A_2 Dy1A_2 1_555 1_555
O4XA_2 Dy1A_2 1_555 1_555
O4VA_2 Dy1A_2 1_555 1_555
O5FA Dy1SA 1_555 1_555
O5BA Dy1CA 1_555 1_555
O5BA_2 Dy1BA 1_555 1_555
O5FA_2 Dy1RA 1_555 1_555
O5_2 Dy1A_2 1_555 1_555
N1I C4I 1_555 1_555
N1B C4B 1_555 1_555
N1H C4B 1_555 1_555
N1M C4P 1_555 1_555
N1P C4P 1_555 1_555
N1N C4Q 1_555 1_555
N1Q C4Q 1_555 1_555
N1J C4A 1_555 1_555
N1A C4A 1_555 1_555
N1S C4S 1_555 1_555
N1O C4S 1_555 1_555
N1F C4F 1_555 1_555
N1E C4E 1_555 1_555
N1V C4M 1_555 1_555
N1T C4N 1_555 1_555
N1D C4J 1_555 1_555
N1W C4W 1_555 1_555
C2NB C7 1_555 1_555
C2B H3B 1_555 1_555
C2OB H3OB 1_555 1_555
C2WA H3WA 1_555 1_555
C2P H3P 1_555 1_555
C2YA H3YA 1_555 1_555
C2Q H3Q 1_555 1_555
C2LB H3LB 1_555 1_555
C2A H3A 1_555 1_555
C2S H3S 1_555 1_555
C2XA H3XA 1_555 1_555
H3NB C2NB 1_555 1_555
C3B C4B 1_555 1_555
C3P C4P 1_555 1_555
C3Q C4Q 1_555 1_555
C3A C4A 1_555 1_555
C3S C4S 1_555 1_555
C3F C4F 1_555 1_555
C3E C4E 1_555 1_555
C3M C4M 1_555 1_555
C3N C4N 1_555 1_555
C3I C4I 1_555 1_555
C3J C4J 1_555 1_555
C3W C4W 1_555 1_555
C3T C4T 1_555 1_555
C4F N1 1_555 1_555
C4E N1B 1_555 1_555
C4M N1M 1_555 1_555
C4N N1N 1_555 1_555
C4I N1F 1_555 1_555
C4J N1J 1_555 1_555
C4W N1S 1_555 1_555
C4T N1Q 1_555 1_555
C4H N1H 1_555 1_555
C4V N1P 1_555 1_555
C4D N1A 1_555 1_555
C4O N1O 1_555 1_555
C5NB C3 1_555 1_555
C5B C2B 1_555 1_555
C5OB C2OB 1_555 1_555
C5WA C2WA 1_555 1_555
C5P C2P 1_555 1_555
C5YA C2YA 1_555 1_555
C5Q C2Q 1_555 1_555
C5LB C2LB 1_555 1_555
C5A C2A 1_555 1_555
C5S C2S 1_555 1_555
C5XA C2XA 1_555 1_555
H4B C5B 1_555 1_555
H4WA C5WA 1_555 1_555
H4YA C5YA 1_555 1_555
H4NB C5NB 1_555 1_555
H4LB C5LB 1_555 1_555
H4S C5S 1_555 1_555
H4Q C5Q 1_555 1_555
H4OB C5OB 1_555 1_555
H4P C5P 1_555 1_555
H4A C5A 1_555 1_555
H4XA C5XA 1_555 1_555
C6B O4B 1_555 1_555
C6P O4WA 1_555 1_555
C6Q O4YA 1_555 1_555
C6A O4LB 1_555 1_555
C6S O4S 1_555 1_555
C7B C2B 1_555 1_555
C7P C2WA 1_555 1_555
C7Q C2YA 1_555 1_555
C7A C2LB 1_555 1_555
C7S C2S 1_555 1_555
S2 O3B 1_555 1_555
C3 C5 1_555 1_555
C6 C7 1_555 1_555
Dy1Q O4NB 1_555 1_555
Dy1SA O3UA 1_555 1_555
Dy1RA_2 O5FA 1_555 1_555
Dy1FA O5FA 1_555 1_555
Dy1GA O5FA 1_555 1_555
S2Q O3Q 1_555 1_555
S2Q O3CA 1_555 1_555
S2P O3P 1_555 1_555
S2P O3DA 1_555 1_555
S2A O3C 1_555 1_555
S2A O3RA 1_555 1_555
S2A_2 O3TA_2 1_555 1_555
S2A_2 O3A_2 1_555 1_555
S2M O3HA 1_555 1_555
S2M O3M 1_555 1_555
O4OB C6B 1_555 1_555
O4P C6P 1_555 1_555
O4Q C6Q 1_555 1_555
O4A C6A 1_555 1_555
O4XA C6S 1_555 1_555
N1E C4H 1_555 1_555
N1V C4V 1_555 1_555
N1T C4T 1_555 1_555
N1D C4D 1_555 1_555
N1W C4O 1_555 1_555
C2NB C5NB 1_555 1_555
C2OB C7B 1_555 1_555
C2P C7P 1_555 1_555
C2Q C7Q 1_555 1_555
C2A C7A 1_555 1_555
C2XA C7S 1_555 1_555
C3B C5B 1_555 1_555
C3B C5OB 1_555 1_555
C3P C5WA 1_555 1_555
C3P C5P 1_555 1_555
C3Q C5YA 1_555 1_555
C3Q C5Q 1_555 1_555
C3A C5LB 1_555 1_555
C3A C5A 1_555 1_555
C3S C5S 1_555 1_555
C3S C5XA 1_555 1_555
C6B C7B 1_555 1_555
C6P C7P 1_555 1_555
C6Q C7Q 1_555 1_555
C6A C7A 1_555 1_555
C6S C7S 1_555 1_555

#END
