
#######################################################################
#
#                 Cambridge Crystallographic Data Centre
#                                CCDC 
#
#######################################################################
#
# If this CIF has been generated from an entry in the Cambridge 
# Structural Database, then it will include bibliographic, chemical, 
# crystal, experimental, refinement or atomic coordinate data resulting 
# from the CCDC's data processing and validation procedures.
#
#######################################################################

data_FUTVAS
_symmetry_cell_setting           cubic
_symmetry_space_group_name_H-M   'I m -3 m'
_symmetry_Int_Tables_number      229
_space_group_name_Hall           '-I 4 2 3'
loop_
_symmetry_equiv_pos_site_id
_symmetry_equiv_pos_as_xyz
1 x,y,z
2 -x,-y,z
3 -x,y,-z
4 x,-y,-z
5 z,x,y
6 z,-x,-y
7 -z,-x,y
8 -z,x,-y
9 y,z,x
10 -y,z,-x
11 y,-z,-x
12 -y,-z,x
13 y,x,-z
14 -y,-x,-z
15 y,-x,z
16 -y,x,z
17 x,z,-y
18 -x,z,y
19 -x,-z,-y
20 x,-z,y
21 z,y,-x
22 z,-y,x
23 -z,y,x
24 -z,-y,-x
25 1/2+x,1/2+y,1/2+z
26 1/2-x,1/2-y,1/2+z
27 1/2-x,1/2+y,1/2-z
28 1/2+x,1/2-y,1/2-z
29 1/2+z,1/2+x,1/2+y
30 1/2+z,1/2-x,1/2-y
31 1/2-z,1/2-x,1/2+y
32 1/2-z,1/2+x,1/2-y
33 1/2+y,1/2+z,1/2+x
34 1/2-y,1/2+z,1/2-x
35 1/2+y,1/2-z,1/2-x
36 1/2-y,1/2-z,1/2+x
37 1/2+y,1/2+x,1/2-z
38 1/2-y,1/2-x,1/2-z
39 1/2+y,1/2-x,1/2+z
40 1/2-y,1/2+x,1/2+z
41 1/2+x,1/2+z,1/2-y
42 1/2-x,1/2+z,1/2+y
43 1/2-x,1/2-z,1/2-y
44 1/2+x,1/2-z,1/2+y
45 1/2+z,1/2+y,1/2-x
46 1/2+z,1/2-y,1/2+x
47 1/2-z,1/2+y,1/2+x
48 1/2-z,1/2-y,1/2-x
49 -x,-y,-z
50 x,y,-z
51 x,-y,z
52 -x,y,z
53 -z,-x,-y
54 -z,x,y
55 z,x,-y
56 z,-x,y
57 -y,-z,-x
58 y,-z,x
59 -y,z,x
60 y,z,-x
61 -y,-x,z
62 y,x,z
63 -y,x,-z
64 y,-x,-z
65 -x,-z,y
66 x,-z,-y
67 x,z,y
68 -x,z,-y
69 -z,-y,x
70 -z,y,-x
71 z,-y,-x
72 z,y,x
73 1/2-x,1/2-y,1/2-z
74 1/2+x,1/2+y,1/2-z
75 1/2+x,1/2-y,1/2+z
76 1/2-x,1/2+y,1/2+z
77 1/2-z,1/2-x,1/2-y
78 1/2-z,1/2+x,1/2+y
79 1/2+z,1/2+x,1/2-y
80 1/2+z,1/2-x,1/2+y
81 1/2-y,1/2-z,1/2-x
82 1/2+y,1/2-z,1/2+x
83 1/2-y,1/2+z,1/2+x
84 1/2+y,1/2+z,1/2-x
85 1/2-y,1/2-x,1/2+z
86 1/2+y,1/2+x,1/2+z
87 1/2-y,1/2+x,1/2-z
88 1/2+y,1/2-x,1/2-z
89 1/2-x,1/2-z,1/2+y
90 1/2+x,1/2-z,1/2-y
91 1/2+x,1/2+z,1/2+y
92 1/2-x,1/2+z,1/2-y
93 1/2-z,1/2-y,1/2+x
94 1/2-z,1/2+y,1/2-x
95 1/2+z,1/2-y,1/2-x
96 1/2+z,1/2+y,1/2+x
_cell_length_a                   26.268(4)
_cell_length_b                   26.268(4)
_cell_length_c                   26.268(4)
_cell_angle_alpha                90
_cell_angle_beta                 90
_cell_angle_gamma                90
_cell_volume                     18125.1
loop_
_atom_site_label
_atom_site_type_symbol
_atom_site_fract_x
_atom_site_fract_y
_atom_site_fract_z
O4 O -0.2534(7) 0.0000 0.2534(7)
S2 S -0.2880(5) 0.0000 0.2880(5)
C7 C -0.2731(13) 0.0000 0.3554(13)
H3 H -0.3044 0.0000 0.3749
H4 H -0.2534 0.0302 0.3636
C7W C -0.3554(13) 0.0000 0.2731(13)
H3W H -0.3749 0.0000 0.3044
H4XA H -0.2534 -0.0302 0.3636
H4W H -0.3636 -0.0302 0.2534
H4QB H -0.3636 0.0302 0.2534
O5 O -0.1616(5) 0.0000 0.0000
Er2 Er -0.5000 0.13823(9) 0.0000
S1 S -0.5000 0.2500 0.0000
O1 O -0.4621 0.2106(12) 0.0000(11)
O2 O -0.4446(4) 0.1219(5) 0.0608(5)
O3 O -0.5000 0.0000 0.0000
N1 N -0.2345(7) 0.2345(7) 0.1691(9)
C1 C -0.3606(6) 0.1670(7) 0.1036(7)
H1 H -0.3744 0.1812 0.0738
C2 C -0.2969(8) 0.1673(8) 0.1673(8)
C3 C -0.2534(8) 0.1927(7) 0.1927(7)
C4 C -0.3191(7) 0.1889(7) 0.1258(7)
H2 H -0.3057 0.2192 0.1123
C5 C -0.4260(8) 0.1014(7) 0.1014(7)
C6 C -0.3824(8) 0.1246(7) 0.1246(7)
Er2SA Er -0.5000 0.36177(9) 0.0000
Er2Q Er -0.5000 0.0000 0.13823(9)
Er2T Er 0.0000 0.13823(9) 0.5000
Er2I Er -0.13823(9) 0.0000 0.5000
Er2M Er -0.13823(9) 0.5000 0.0000
Er2D Er 0.0000 0.5000 0.13823(9)
Er2P Er -0.5000 0.0000 -0.13823(9)
Er2T_2 Er -1.0000 0.13823(9) -0.5000
Er2H Er -0.86177(9) 0.0000 -0.5000
Er2L Er -0.86177(9) 0.5000 0.0000
Er2E Er -1.0000 0.5000 -0.13823(9)
Er2T_3 Er 0.0000 0.13823(9) -0.5000
Er2I_2 Er -0.13823(9) 0.0000 -0.5000
Er2E_2 Er 0.0000 0.5000 -0.13823(9)
Er2T_4 Er -1.0000 0.13823(9) 0.5000
Er2H_2 Er -0.86177(9) 0.0000 0.5000
Er2D_2 Er -1.0000 0.5000 0.13823(9)
Er2FA Er -0.36177(9) 0.5000 0.0000
Er2Y Er 0.0000 0.36177(9) 0.5000
Er2NA Er 0.0000 0.5000 0.36177(9)
Er2CA Er -0.5000 0.0000 0.36177(9)
Er2JA Er -0.36177(9) 0.0000 0.5000
Er2GA Er -0.63823(9) 0.5000 0.0000
Er2Y_2 Er -1.0000 0.36177(9) -0.5000
Er2OA Er -1.0000 0.5000 -0.36177(9)
Er2BA Er -0.5000 0.0000 -0.36177(9)
Er2KA Er -0.63823(9) 0.0000 -0.5000
Er2Y_3 Er -1.0000 0.36177(9) 0.5000
Er2NA_2 Er -1.0000 0.5000 0.36177(9)
Er2KA_2 Er -0.63823(9) 0.0000 0.5000
Er2Y_4 Er 0.0000 0.36177(9) -0.5000
Er2OA_2 Er 0.0000 0.5000 -0.36177(9)
Er2JA_2 Er -0.36177(9) 0.0000 -0.5000
S1Q S -0.5000 0.0000 0.2500
S1T S 0.0000 0.2500 0.5000
S1I S -0.2500 0.0000 0.5000
S1M S -0.2500 0.5000 0.0000
S1D S 0.0000 0.5000 0.2500
O1SA O -0.5000(11) 0.2894(12) 0.0379
O1UA O -0.5000(11) 0.2894(12) -0.0379
O1B O -0.5379 0.2106(12) 0.0000(11)
O1S O -0.4621 0.0000(11) 0.2106(12)
O1EA O -0.5000(11) 0.0379 0.2894(12)
O1CA O -0.5000(11) -0.0379 0.2894(12)
O1Q O -0.5379 0.0000(11) 0.2106(12)
O1T O 0.0000(11) 0.2106(12) 0.4621
O1Y O -0.0379 0.2894(12) 0.5000(11)
O1AA O 0.0379 0.2894(12) 0.5000(11)
O1V O 0.0000(11) 0.2106(12) 0.5379
O1I O -0.2106(12) 0.0000(11) 0.4621
O1JA O -0.2894(12) 0.0379 0.5000(11)
O1LA O -0.2894(12) -0.0379 0.5000(11)
O1K O -0.2106(12) 0.0000(11) 0.5379
O1M O -0.2106(12) 0.4621 0.0000(11)
O1FA O -0.2894(12) 0.5000(11) 0.0379
O1HA O -0.2894(12) 0.5000(11) -0.0379
O1O O -0.2106(12) 0.5379 0.0000(11)
O1F O 0.0000(11) 0.4621 0.2106(12)
O1PA O -0.0379 0.5000(11) 0.2894(12)
O1NA O 0.0379 0.5000(11) 0.2894(12)
O1D O 0.0000(11) 0.5379 0.2106(12)
O1R O -0.5379 0.0000(11) -0.2106(12)
O1P O -0.4621 0.0000(11) -0.2106(12)
O1V_2 O -1.0000(11) 0.2106(12) -0.4621
O1T_2 O -1.0000(11) 0.2106(12) -0.5379
O1H O -0.7894(12) 0.0000(11) -0.4621
O1J O -0.7894(12) 0.0000(11) -0.5379
O1N O -0.7894(12) 0.4621 0.0000(11)
O1L O -0.7894(12) 0.5379 0.0000(11)
O1E O -1.0000(11) 0.4621 -0.2106(12)
O1G O -1.0000(11) 0.5379 -0.2106(12)
O2NB O -0.4446(4) 0.0608(5) 0.1219(5)
O2QB O -0.0608(5) 0.1219(5) 0.4446(4)
O2I O -0.1219(5) 0.0608(5) 0.4446(4)
O2HB O -0.1219(5) 0.4446(4) 0.0608(5)
O2F O -0.0608(5) 0.4446(4) 0.1219(5)
O2B O -0.5554(4) 0.1219(5) -0.0608(5)
O2OB O -0.5554(4) 0.0608(5) -0.1219(5)
O2SB O -0.9392(5) 0.1219(5) -0.4446(4)
O2H O -0.8781(5) 0.0608(5) -0.4446(4)
O2KB O -0.8781(5) 0.4446(4) -0.0608(5)
O2E O -0.9392(5) 0.4446(4) -0.1219(5)
O2WA O -0.4446(4) 0.1219(5) -0.0608(5)
O2P O -0.4446(4) 0.0608(5) -0.1219(5)
O2V O -0.0608(5) 0.1219(5) -0.4446(4)
O2FB O -0.1219(5) 0.0608(5) -0.4446(4)
O2M O -0.1219(5) 0.4446(4) -0.0608(5)
O2ZA O -0.0608(5) 0.4446(4) -0.1219(5)
O2YA O -0.5554(4) 0.1219(5) 0.0608(5)
O2Q O -0.5554(4) 0.0608(5) 0.1219(5)
O2T O -0.9392(5) 0.1219(5) 0.4446(4)
O2GB O -0.8781(5) 0.0608(5) 0.4446(4)
O2N O -0.8781(5) 0.4446(4) 0.0608(5)
O2CB O -0.9392(5) 0.4446(4) 0.1219(5)
O2SA O -0.4392(5) 0.3781(5) 0.0554(4)
O2CC O -0.3781(5) 0.4392(5) 0.0554(4)
O2TB O -0.0554(4) 0.3781(5) 0.4392(5)
O2PA O -0.0554(4) 0.4392(5) 0.3781(5)
O2ZB O -0.4392(5) 0.0554(4) 0.3781(5)
O2JA O -0.3781(5) 0.0554(4) 0.4392(5)
O2UA O -0.5608(5) 0.3781(5) -0.0554(4)
O2BC O -0.6219(5) 0.4392(5) -0.0554(4)
O2VB O -0.9446(4) 0.3781(5) -0.4392(5)
O2QA O -0.9446(4) 0.4392(5) -0.3781(5)
O2YB O -0.5608(5) 0.0554(4) -0.3781(5)
O2MA O -0.6219(5) 0.0554(4) -0.4392(5)
O2NC O -0.5608(5) 0.3781(5) 0.0554(4)
O2IA O -0.6219(5) 0.4392(5) 0.0554(4)
O2AA O -0.9446(4) 0.3781(5) 0.4392(5)
O2KC O -0.9446(4) 0.4392(5) 0.3781(5)
O2EA O -0.5608(5) 0.0554(4) 0.3781(5)
O2HC O -0.6219(5) 0.0554(4) 0.4392(5)
O2PC O -0.4392(5) 0.3781(5) -0.0554(4)
O2HA O -0.3781(5) 0.4392(5) -0.0554(4)
O2Y O -0.0554(4) 0.3781(5) -0.4392(5)
O2JC O -0.0554(4) 0.4392(5) -0.3781(5)
O2BA O -0.4392(5) 0.0554(4) -0.3781(5)
O2GC O -0.3781(5) 0.0554(4) -0.4392(5)
O2LB O -0.5554(4) -0.0608(5) 0.1219(5)
O2S O -0.4446(4) -0.0608(5) 0.1219(5)
O2SB_2 O 0.0608(5) 0.1219(5) 0.5554(4)
O2T_2 O 0.0608(5) 0.1219(5) 0.4446(4)
O2V_2 O -0.0608(5) 0.1219(5) 0.5554(4)
O2K O -0.1219(5) -0.0608(5) 0.5554(4)
O2DB O -0.1219(5) -0.0608(5) 0.4446(4)
O2FB_2 O -0.1219(5) 0.0608(5) 0.5554(4)
O2JB O -0.1219(5) 0.5554(4) -0.0608(5)
O2O O -0.1219(5) 0.5554(4) 0.0608(5)
O2D O 0.0608(5) 0.5554(4) 0.1219(5)
O2CB_2 O 0.0608(5) 0.4446(4) 0.1219(5)
O2AB O -0.0608(5) 0.5554(4) 0.1219(5)
O2MB O -0.4446(4) -0.0608(5) -0.1219(5)
O2R O -0.5554(4) -0.0608(5) -0.1219(5)
O2QB_2 O -1.0608(5) 0.1219(5) -0.5554(4)
O2V_3 O -1.0608(5) 0.1219(5) -0.4446(4)
O2T_3 O -0.9392(5) 0.1219(5) -0.5554(4)
O2J O -0.8781(5) -0.0608(5) -0.5554(4)
O2EB O -0.8781(5) -0.0608(5) -0.4446(4)
O2GB_2 O -0.8781(5) 0.0608(5) -0.5554(4)
O2IB O -0.8781(5) 0.5554(4) 0.0608(5)
O2L O -0.8781(5) 0.5554(4) -0.0608(5)
O2G O -1.0608(5) 0.5554(4) -0.1219(5)
O2ZA_2 O -1.0608(5) 0.4446(4) -0.1219(5)
O2BB O -0.9392(5) 0.5554(4) -0.1219(5)
O3FA O -0.5000 0.5000 0.0000
O3H O 0.0000 0.0000 0.5000
O3D O 0.0000 0.5000 0.0000
O3H_2 O -1.0000 0.0000 -0.5000
O3D_2 O -1.0000 0.5000 0.0000
N1F N -0.1691(9) 0.2345(7) 0.2345(7)
N1I N -0.2345(7) 0.1691(9) 0.2345(7)
N1B N -0.7655(7) 0.2345(7) -0.1691(9)
N1E N -0.8309(9) 0.2345(7) -0.2345(7)
N1H N -0.7655(7) 0.1691(9) -0.2345(7)
N1M N -0.2345(7) 0.2345(7) -0.1691(9)
N1V N -0.1691(9) 0.2345(7) -0.2345(7)
N1P N -0.2345(7) 0.1691(9) -0.2345(7)
N1N N -0.7655(7) 0.2345(7) 0.1691(9)
N1T N -0.8309(9) 0.2345(7) 0.2345(7)
N1Q N -0.7655(7) 0.1691(9) 0.2345(7)
N1SA N -0.3309(9) 0.2655(7) 0.2655(7)
N1JA N -0.2655(7) 0.2655(7) 0.3309(9)
N1PA N -0.2655(7) 0.3309(9) 0.2655(7)
N1UA N -0.6691(9) 0.2655(7) -0.2655(7)
N1MA N -0.7345(7) 0.2655(7) -0.3309(9)
N1QA N -0.7345(7) 0.3309(9) -0.2655(7)
N1EA N -0.6691(9) 0.2655(7) 0.2655(7)
N1AA N -0.7345(7) 0.2655(7) 0.3309(9)
N1IA N -0.7345(7) 0.3309(9) 0.2655(7)
N1BA N -0.3309(9) 0.2655(7) -0.2655(7)
N1Y N -0.2655(7) 0.2655(7) -0.3309(9)
N1HA N -0.2655(7) 0.3309(9) -0.2655(7)
C1QB C -0.1036(7) 0.1670(7) 0.3606(6)
C1I C -0.1670(7) 0.1036(7) 0.3606(6)
C1HB C -0.1670(7) 0.3606(6) 0.1036(7)
C1F C -0.1036(7) 0.3606(6) 0.1670(7)
C1NB C -0.3606(6) 0.1036(7) 0.1670(7)
C1B C -0.6394(6) 0.1670(7) -0.1036(7)
C1SB C -0.8964(7) 0.1670(7) -0.3606(6)
C1H C -0.8330(7) 0.1036(7) -0.3606(6)
C1KB C -0.8330(7) 0.3606(6) -0.1036(7)
C1E C -0.8964(7) 0.3606(6) -0.1670(7)
C1OB C -0.6394(6) 0.1036(7) -0.1670(7)
C1WA C -0.3606(6) 0.1670(7) -0.1036(7)
C1V C -0.1036(7) 0.1670(7) -0.3606(6)
C1FB C -0.1670(7) 0.1036(7) -0.3606(6)
C1M C -0.1670(7) 0.3606(6) -0.1036(7)
C1ZA C -0.1036(7) 0.3606(6) -0.1670(7)
C1P C -0.3606(6) 0.1036(7) -0.1670(7)
C1YA C -0.6394(6) 0.1670(7) 0.1036(7)
C1T C -0.8964(7) 0.1670(7) 0.3606(6)
C1GB C -0.8330(7) 0.1036(7) 0.3606(6)
C1N C -0.8330(7) 0.3606(6) 0.1036(7)
C1CB C -0.8964(7) 0.3606(6) 0.1670(7)
C1Q C -0.6394(6) 0.1036(7) 0.1670(7)
C1SA C -0.3964(7) 0.3330(7) 0.1394(6)
C1TB C -0.1394(6) 0.3330(7) 0.3964(7)
C1PA C -0.1394(6) 0.3964(7) 0.3330(7)
C1ZB C -0.3964(7) 0.1394(6) 0.3330(7)
C1JA C -0.3330(7) 0.1394(6) 0.3964(7)
C1CC C -0.3330(7) 0.3964(7) 0.1394(6)
C1UA C -0.6036(7) 0.3330(7) -0.1394(6)
C1VB C -0.8606(6) 0.3330(7) -0.3964(7)
C1QA C -0.8606(6) 0.3964(7) -0.3330(7)
C1YB C -0.6036(7) 0.1394(6) -0.3330(7)
C1MA C -0.6670(7) 0.1394(6) -0.3964(7)
C1BC C -0.6670(7) 0.3964(7) -0.1394(6)
C1NC C -0.6036(7) 0.3330(7) 0.1394(6)
C1AA C -0.8606(6) 0.3330(7) 0.3964(7)
C1KC C -0.8606(6) 0.3964(7) 0.3330(7)
C1EA C -0.6036(7) 0.1394(6) 0.3330(7)
C1HC C -0.6670(7) 0.1394(6) 0.3964(7)
C1IA C -0.6670(7) 0.3964(7) 0.1394(6)
C1PC C -0.3964(7) 0.3330(7) -0.1394(6)
C1Y C -0.1394(6) 0.3330(7) -0.3964(7)
C1JC C -0.1394(6) 0.3964(7) -0.3330(7)
C1BA C -0.3964(7) 0.1394(6) -0.3330(7)
C1GC C -0.3330(7) 0.1394(6) -0.3964(7)
C1HA C -0.3330(7) 0.3964(7) -0.1394(6)
H1QB H -0.0738 0.1812 0.3744
H1I H -0.1812 0.0738 0.3744
H1HB H -0.1812 0.3744 0.0738
H1F H -0.0738 0.3744 0.1812
H1NB H -0.3744 0.0738 0.1812
H1B H -0.6256 0.1812 -0.0738
H1SB H -0.9262 0.1812 -0.3744
H1H H -0.8188 0.0738 -0.3744
H1KB H -0.8188 0.3744 -0.0738
H1E H -0.9262 0.3744 -0.1812
H1OB H -0.6256 0.0738 -0.1812
H1WA H -0.3744 0.1812 -0.0738
H1V H -0.0738 0.1812 -0.3744
H1FB H -0.1812 0.0738 -0.3744
H1M H -0.1812 0.3744 -0.0738
H1ZA H -0.0738 0.3744 -0.1812
H1P H -0.3744 0.0738 -0.1812
H1YA H -0.6256 0.1812 0.0738
H1T H -0.9262 0.1812 0.3744
H1GB H -0.8188 0.0738 0.3744
H1N H -0.8188 0.3744 0.0738
H1CB H -0.9262 0.3744 0.1812
H1Q H -0.6256 0.0738 0.1812
H1SA H -0.4262 0.3188 0.1256
H1TB H -0.1256 0.3188 0.4262
H1PA H -0.1256 0.4262 0.3188
H1ZB H -0.4262 0.1256 0.3188
H1JA H -0.3188 0.1256 0.4262
H1CC H -0.3188 0.4262 0.1256
H1UA H -0.5738 0.3188 -0.1256
H1VB H -0.8744 0.3188 -0.4262
H1QA H -0.8744 0.4262 -0.3188
H1YB H -0.5738 0.1256 -0.3188
H1MA H -0.6812 0.1256 -0.4262
H1BC H -0.6812 0.4262 -0.1256
H1NC H -0.5738 0.3188 0.1256
H1AA H -0.8744 0.3188 0.4262
H1KC H -0.8744 0.4262 0.3188
H1EA H -0.5738 0.1256 0.3188
H1HC H -0.6812 0.1256 0.4262
H1IA H -0.6812 0.4262 0.1256
H1PC H -0.4262 0.3188 -0.1256
H1Y H -0.1256 0.3188 -0.4262
H1JC H -0.1256 0.4262 -0.3188
H1BA H -0.4262 0.1256 -0.3188
H1GC H -0.3188 0.1256 -0.4262
H1HA H -0.3188 0.4262 -0.1256
C2I C -0.1673(8) 0.1673(8) 0.2969(8)
C2F C -0.1673(8) 0.2969(8) 0.1673(8)
C2B C -0.7031(8) 0.1673(8) -0.1673(8)
C2H C -0.8327(8) 0.1673(8) -0.2969(8)
C2E C -0.8327(8) 0.2969(8) -0.1673(8)
C2P C -0.2969(8) 0.1673(8) -0.1673(8)
C2V C -0.1673(8) 0.1673(8) -0.2969(8)
C2M C -0.1673(8) 0.2969(8) -0.1673(8)
C2Q C -0.7031(8) 0.1673(8) 0.1673(8)
C2T C -0.8327(8) 0.1673(8) 0.2969(8)
C2N C -0.8327(8) 0.2969(8) 0.1673(8)
C2SA C -0.3327(8) 0.3327(8) 0.2031(8)
C2PA C -0.2031(8) 0.3327(8) 0.3327(8)
C2JA C -0.3327(8) 0.2031(8) 0.3327(8)
C2UA C -0.6673(8) 0.3327(8) -0.2031(8)
C2QA C -0.7969(8) 0.3327(8) -0.3327(8)
C2MA C -0.6673(8) 0.2031(8) -0.3327(8)
C2IA C -0.6673(8) 0.3327(8) 0.2031(8)
C2AA C -0.7969(8) 0.3327(8) 0.3327(8)
C2EA C -0.6673(8) 0.2031(8) 0.3327(8)
C2HA C -0.3327(8) 0.3327(8) -0.2031(8)
C2Y C -0.2031(8) 0.3327(8) -0.3327(8)
C2BA C -0.3327(8) 0.2031(8) -0.3327(8)
C3F C -0.1927(7) 0.2534(8) 0.1927(7)
C3I C -0.1927(7) 0.1927(7) 0.2534(8)
C3B C -0.7466(8) 0.1927(7) -0.1927(7)
C3E C -0.8073(7) 0.2534(8) -0.1927(7)
C3H C -0.8073(7) 0.1927(7) -0.2534(8)
C3P C -0.2534(8) 0.1927(7) -0.1927(7)
C3M C -0.1927(7) 0.2534(8) -0.1927(7)
C3V C -0.1927(7) 0.1927(7) -0.2534(8)
C3Q C -0.7466(8) 0.1927(7) 0.1927(7)
C3N C -0.8073(7) 0.2534(8) 0.1927(7)
C3T C -0.8073(7) 0.1927(7) 0.2534(8)
C3SA C -0.3073(7) 0.3073(7) 0.2466(8)
C3JA C -0.3073(7) 0.2466(8) 0.3073(7)
C3PA C -0.2466(8) 0.3073(7) 0.3073(7)
C3UA C -0.6927(7) 0.3073(7) -0.2466(8)
C3MA C -0.6927(7) 0.2466(8) -0.3073(7)
C3QA C -0.7534(8) 0.3073(7) -0.3073(7)
C3IA C -0.6927(7) 0.3073(7) 0.2466(8)
C3EA C -0.6927(7) 0.2466(8) 0.3073(7)
C3AA C -0.7534(8) 0.3073(7) 0.3073(7)
C3HA C -0.3073(7) 0.3073(7) -0.2466(8)
C3BA C -0.3073(7) 0.2466(8) -0.3073(7)
C3Y C -0.2466(8) 0.3073(7) -0.3073(7)
C4QB C -0.1258(7) 0.1889(7) 0.3191(7)
C4I C -0.1889(7) 0.1258(7) 0.3191(7)
C4HB C -0.1889(7) 0.3191(7) 0.1258(7)
C4F C -0.1258(7) 0.3191(7) 0.1889(7)
C4NB C -0.3191(7) 0.1258(7) 0.1889(7)
C4B C -0.6809(7) 0.1889(7) -0.1258(7)
C4SB C -0.8742(7) 0.1889(7) -0.3191(7)
C4H C -0.8111(7) 0.1258(7) -0.3191(7)
C4KB C -0.8111(7) 0.3191(7) -0.1258(7)
C4E C -0.8742(7) 0.3191(7) -0.1889(7)
C4OB C -0.6809(7) 0.1258(7) -0.1889(7)
C4WA C -0.3191(7) 0.1889(7) -0.1258(7)
C4V C -0.1258(7) 0.1889(7) -0.3191(7)
C4FB C -0.1889(7) 0.1258(7) -0.3191(7)
C4M C -0.1889(7) 0.3191(7) -0.1258(7)
C4ZA C -0.1258(7) 0.3191(7) -0.1889(7)
C4P C -0.3191(7) 0.1258(7) -0.1889(7)
C4YA C -0.6809(7) 0.1889(7) 0.1258(7)
C4T C -0.8742(7) 0.1889(7) 0.3191(7)
C4GB C -0.8111(7) 0.1258(7) 0.3191(7)
C4N C -0.8111(7) 0.3191(7) 0.1258(7)
C4CB C -0.8742(7) 0.3191(7) 0.1889(7)
C4Q C -0.6809(7) 0.1258(7) 0.1889(7)
C4SA C -0.3742(7) 0.3111(7) 0.1809(7)
C4TB C -0.1809(7) 0.3111(7) 0.3742(7)
C4PA C -0.1809(7) 0.3742(7) 0.3111(7)
C4ZB C -0.3742(7) 0.1809(7) 0.3111(7)
C4JA C -0.3111(7) 0.1809(7) 0.3742(7)
C4CC C -0.3111(7) 0.3742(7) 0.1809(7)
C4UA C -0.6258(7) 0.3111(7) -0.1809(7)
C4VB C -0.8191(7) 0.3111(7) -0.3742(7)
C4QA C -0.8191(7) 0.3742(7) -0.3111(7)
C4YB C -0.6258(7) 0.1809(7) -0.3111(7)
C4MA C -0.6889(7) 0.1809(7) -0.3742(7)
C4BC C -0.6889(7) 0.3742(7) -0.1809(7)
C4NC C -0.6258(7) 0.3111(7) 0.1809(7)
C4AA C -0.8191(7) 0.3111(7) 0.3742(7)
C4KC C -0.8191(7) 0.3742(7) 0.3111(7)
C4EA C -0.6258(7) 0.1809(7) 0.3111(7)
C4HC C -0.6889(7) 0.1809(7) 0.3742(7)
C4IA C -0.6889(7) 0.3742(7) 0.1809(7)
C4PC C -0.3742(7) 0.3111(7) -0.1809(7)
C4Y C -0.1809(7) 0.3111(7) -0.3742(7)
C4JC C -0.1809(7) 0.3742(7) -0.3111(7)
C4BA C -0.3742(7) 0.1809(7) -0.3111(7)
C4GC C -0.3111(7) 0.1809(7) -0.3742(7)
C4HA C -0.3111(7) 0.3742(7) -0.1809(7)
H2I H -0.2192 0.1123 0.3057
H2QB H -0.1123 0.2192 0.3057
H2F H -0.1123 0.3057 0.2192
H2HB H -0.2192 0.3057 0.1123
H2NB H -0.3057 0.1123 0.2192
H2B H -0.6943 0.2192 -0.1123
H2H H -0.7808 0.1123 -0.3057
H2SB H -0.8877 0.2192 -0.3057
H2E H -0.8877 0.3057 -0.2192
H2KB H -0.7808 0.3057 -0.1123
H2OB H -0.6943 0.1123 -0.2192
H2WA H -0.3057 0.2192 -0.1123
H2FB H -0.2192 0.1123 -0.3057
H2V H -0.1123 0.2192 -0.3057
H2ZA H -0.1123 0.3057 -0.2192
H2M H -0.2192 0.3057 -0.1123
H2P H -0.3057 0.1123 -0.2192
H2YA H -0.6943 0.2192 0.1123
H2GB H -0.7808 0.1123 0.3057
H2T H -0.8877 0.2192 0.3057
H2CB H -0.8877 0.3057 0.2192
H2N H -0.7808 0.3057 0.1123
H2Q H -0.6943 0.1123 0.2192
H2SA H -0.3877 0.2808 0.1943
H2PA H -0.1943 0.3877 0.2808
H2TB H -0.1943 0.2808 0.3877
H2JA H -0.2808 0.1943 0.3877
H2ZB H -0.3877 0.1943 0.2808
H2CC H -0.2808 0.3877 0.1943
H2UA H -0.6123 0.2808 -0.1943
H2QA H -0.8057 0.3877 -0.2808
H2VB H -0.8057 0.2808 -0.3877
H2MA H -0.7192 0.1943 -0.3877
H2YB H -0.6123 0.1943 -0.2808
H2BC H -0.7192 0.3877 -0.1943
H2NC H -0.6123 0.2808 0.1943
H2KC H -0.8057 0.3877 0.2808
H2AA H -0.8057 0.2808 0.3877
H2HC H -0.7192 0.1943 0.3877
H2EA H -0.6123 0.1943 0.2808
H2IA H -0.7192 0.3877 0.1943
H2PC H -0.3877 0.2808 -0.1943
H2JC H -0.1943 0.3877 -0.2808
H2Y H -0.1943 0.2808 -0.3877
H2GC H -0.2808 0.1943 -0.3877
H2BA H -0.3877 0.1943 -0.2808
H2HA H -0.2808 0.3877 -0.1943
C5I C -0.1014(7) 0.1014(7) 0.4260(8)
C5F C -0.1014(7) 0.4260(8) 0.1014(7)
C5B C -0.5740(8) 0.1014(7) -0.1014(7)
C5H C -0.8986(7) 0.1014(7) -0.4260(8)
C5E C -0.8986(7) 0.4260(8) -0.1014(7)
C5P C -0.4260(8) 0.1014(7) -0.1014(7)
C5V C -0.1014(7) 0.1014(7) -0.4260(8)
C5M C -0.1014(7) 0.4260(8) -0.1014(7)
C5Q C -0.5740(8) 0.1014(7) 0.1014(7)
C5T C -0.8986(7) 0.1014(7) 0.4260(8)
C5N C -0.8986(7) 0.4260(8) 0.1014(7)
C5SA C -0.3986(7) 0.3986(7) 0.0740(8)
C5PA C -0.0740(8) 0.3986(7) 0.3986(7)
C5JA C -0.3986(7) 0.0740(8) 0.3986(7)
C5UA C -0.6014(7) 0.3986(7) -0.0740(8)
C5QA C -0.9260(8) 0.3986(7) -0.3986(7)
C5MA C -0.6014(7) 0.0740(8) -0.3986(7)
C5IA C -0.6014(7) 0.3986(7) 0.0740(8)
C5AA C -0.9260(8) 0.3986(7) 0.3986(7)
C5EA C -0.6014(7) 0.0740(8) 0.3986(7)
C5HA C -0.3986(7) 0.3986(7) -0.0740(8)
C5Y C -0.0740(8) 0.3986(7) -0.3986(7)
C5BA C -0.3986(7) 0.0740(8) -0.3986(7)
C6I C -0.1246(7) 0.1246(7) 0.3824(8)
C6F C -0.1246(7) 0.3824(8) 0.1246(7)
C6B C -0.6176(8) 0.1246(7) -0.1246(7)
C6H C -0.8754(7) 0.1246(7) -0.3824(8)
C6E C -0.8754(7) 0.3824(8) -0.1246(7)
C6P C -0.3824(8) 0.1246(7) -0.1246(7)
C6V C -0.1246(7) 0.1246(7) -0.3824(8)
C6M C -0.1246(7) 0.3824(8) -0.1246(7)
C6Q C -0.6176(8) 0.1246(7) 0.1246(7)
C6T C -0.8754(7) 0.1246(7) 0.3824(8)
C6N C -0.8754(7) 0.3824(8) 0.1246(7)
C6SA C -0.3754(7) 0.3754(7) 0.1176(8)
C6PA C -0.1176(8) 0.3754(7) 0.3754(7)
C6JA C -0.3754(7) 0.1176(8) 0.3754(7)
C6UA C -0.6246(7) 0.3754(7) -0.1176(8)
C6QA C -0.8824(8) 0.3754(7) -0.3754(7)
C6MA C -0.6246(7) 0.1176(8) -0.3754(7)
C6IA C -0.6246(7) 0.3754(7) 0.1176(8)
C6AA C -0.8824(8) 0.3754(7) 0.3754(7)
C6EA C -0.6246(7) 0.1176(8) 0.3754(7)
C6HA C -0.3754(7) 0.3754(7) -0.1176(8)
C6Y C -0.1176(8) 0.3754(7) -0.3754(7)
C6BA C -0.3754(7) 0.1176(8) -0.3754(7)
Er1? Er -0.5000 0.1057(3) 0.0000
loop_
_geom_bond_atom_site_label_1
_geom_bond_atom_site_label_2
_geom_bond_site_symmetry_1
_geom_bond_site_symmetry_2
Er2 O1 1_555 1_555
S1 O1 1_555 1_555
O2 Er2 1_555 1_555
O3 Er2 1_555 1_555
N1 C3 1_555 1_555
C1 H1 1_555 1_555
C2 C3 1_555 1_555
C3 N1I 1_555 1_555
C4 C1 1_555 1_555
H2 C4 1_555 1_555
C5 O2 1_555 1_555
C6 C1 1_555 1_555
O4 S2 1_555 1_555
S2 C7 1_555 1_555
C7 H3 1_555 1_555
H4 C7 1_555 1_555
Er2SA O1SA 1_555 1_555
Er2Q O3 1_555 1_555
Er2T O1T 1_555 1_555
Er2I O1I 1_555 1_555
Er2M O1M 1_555 1_555
Er2D O1F 1_555 1_555
Er2P O3 1_555 1_555
Er2T_2 O1V_2 1_555 1_555
Er2H O1H 1_555 1_555
Er2L O1N 1_555 1_555
Er2E O1E 1_555 1_555
Er2T_3 O2V 1_555 1_555
Er2I_2 O2FB 1_555 1_555
Er2E_2 O2ZA 1_555 1_555
Er2T_4 O2T 1_555 1_555
Er2H_2 O2GB 1_555 1_555
Er2D_2 O2CB 1_555 1_555
Er2FA O1FA 1_555 1_555
Er2Y O1Y 1_555 1_555
Er2NA O1PA 1_555 1_555
Er2CA O1EA 1_555 1_555
Er2JA O1JA 1_555 1_555
Er2GA O2BC 1_555 1_555
Er2Y_2 O2VB 1_555 1_555
Er2OA O2QA 1_555 1_555
Er2BA O2YB 1_555 1_555
Er2KA O2MA 1_555 1_555
Er2Y_3 O2AA 1_555 1_555
Er2NA_2 O2KC 1_555 1_555
Er2KA_2 O2HC 1_555 1_555
Er2Y_4 O2Y 1_555 1_555
Er2OA_2 O2JC 1_555 1_555
Er2JA_2 O2GC 1_555 1_555
S1Q O1S 1_555 1_555
S1T O1T 1_555 1_555
S1I O1I 1_555 1_555
S1M O1M 1_555 1_555
S1D O1F 1_555 1_555
O1SA S1 1_555 1_555
O1UA S1 1_555 1_555
O1B Er2 1_555 1_555
O1S Er2Q 1_555 1_555
O1EA S1Q 1_555 1_555
O1CA Er2CA 1_555 1_555
O1Q Er2Q 1_555 1_555
O1Y S1T 1_555 1_555
O1AA Er2Y 1_555 1_555
O1V Er2T 1_555 1_555
O1JA S1I 1_555 1_555
O1LA Er2JA 1_555 1_555
O1K Er2I 1_555 1_555
O1FA S1M 1_555 1_555
O1HA Er2FA 1_555 1_555
O1O Er2M 1_555 1_555
O1PA S1D 1_555 1_555
O1NA Er2NA 1_555 1_555
O1D Er2D 1_555 1_555
O1R Er2P 1_555 1_555
O1P Er2P 1_555 1_555
O1T_2 Er2T_2 1_555 1_555
O1J Er2H 1_555 1_555
O1L Er2L 1_555 1_555
O1G Er2E 1_555 1_555
O2NB C5 1_555 1_555
O2QB Er2T 1_555 1_555
O2I Er2I 1_555 1_555
O2HB Er2M 1_555 1_555
O2F Er2D 1_555 1_555
O2B Er2 1_555 1_555
O2OB Er2P 1_555 1_555
O2SB Er2T_2 1_555 1_555
O2H Er2H 1_555 1_555
O2KB Er2L 1_555 1_555
O2E Er2E 1_555 1_555
O2WA Er2 1_555 1_555
O2P Er2P 1_555 1_555
O2V C5V 1_555 1_555
O2FB C5V 1_555 1_555
O2M Er2M 1_555 1_555
O2ZA C5M 1_555 1_555
O2YA Er2 1_555 1_555
O2Q Er2Q 1_555 1_555
O2T C5T 1_555 1_555
O2GB C5T 1_555 1_555
O2N Er2L 1_555 1_555
O2CB C5N 1_555 1_555
O2SA Er2SA 1_555 1_555
O2CC Er2FA 1_555 1_555
O2TB Er2Y 1_555 1_555
O2PA Er2NA 1_555 1_555
O2ZB Er2CA 1_555 1_555
O2JA Er2JA 1_555 1_555
O2UA Er2SA 1_555 1_555
O2BC C5UA 1_555 1_555
O2VB C5QA 1_555 1_555
O2QA C5QA 1_555 1_555
O2YB C5MA 1_555 1_555
O2MA C5MA 1_555 1_555
O2NC Er2SA 1_555 1_555
O2IA Er2GA 1_555 1_555
O2AA C5AA 1_555 1_555
O2KC C5AA 1_555 1_555
O2EA Er2CA 1_555 1_555
O2HC C5EA 1_555 1_555
O2PC Er2SA 1_555 1_555
O2HA Er2FA 1_555 1_555
O2Y C5Y 1_555 1_555
O2JC C5Y 1_555 1_555
O2BA Er2BA 1_555 1_555
O2GC C5BA 1_555 1_555
O2LB Er2Q 1_555 1_555
O2S Er2Q 1_555 1_555
O2SB_2 Er2T 1_555 1_555
O2T_2 Er2T 1_555 1_555
O2V_2 Er2T 1_555 1_555
O2K Er2I 1_555 1_555
O2DB Er2I 1_555 1_555
O2FB_2 Er2I 1_555 1_555
O2JB Er2M 1_555 1_555
O2O Er2M 1_555 1_555
O2D Er2D 1_555 1_555
O2CB_2 Er2D 1_555 1_555
O2AB Er2D 1_555 1_555
O2MB Er2P 1_555 1_555
O2R Er2P 1_555 1_555
O2QB_2 Er2T_2 1_555 1_555
O2V_3 Er2T_2 1_555 1_555
O2T_3 Er2T_2 1_555 1_555
O2J Er2H 1_555 1_555
O2EB Er2H 1_555 1_555
O2GB_2 Er2H 1_555 1_555
O2IB Er2L 1_555 1_555
O2L Er2L 1_555 1_555
O2G Er2E 1_555 1_555
O2ZA_2 Er2E 1_555 1_555
O2BB Er2E 1_555 1_555
O3FA Er2SA 1_555 1_555
O3H Er2T 1_555 1_555
O3D Er2M 1_555 1_555
O3H_2 Er2T_2 1_555 1_555
O3D_2 Er2L 1_555 1_555
N1F C3F 1_555 1_555
N1I C3I 1_555 1_555
N1B C3B 1_555 1_555
N1E C3E 1_555 1_555
N1H C3B 1_555 1_555
N1M C3P 1_555 1_555
N1V C3M 1_555 1_555
N1P C3P 1_555 1_555
N1N C3Q 1_555 1_555
N1T C3N 1_555 1_555
N1Q C3Q 1_555 1_555
N1SA C3SA 1_555 1_555
N1JA C3JA 1_555 1_555
N1PA C3SA 1_555 1_555
N1UA C3UA 1_555 1_555
N1MA C3MA 1_555 1_555
N1QA C3UA 1_555 1_555
N1EA C3IA 1_555 1_555
N1AA C3EA 1_555 1_555
N1IA C3IA 1_555 1_555
N1BA C3HA 1_555 1_555
N1Y C3BA 1_555 1_555
N1HA C3HA 1_555 1_555
C1QB H1QB 1_555 1_555
C1I H1I 1_555 1_555
C1HB H1HB 1_555 1_555
C1F H1F 1_555 1_555
C1NB C6 1_555 1_555
C1B H1B 1_555 1_555
C1SB H1SB 1_555 1_555
C1H H1H 1_555 1_555
C1KB H1KB 1_555 1_555
C1E H1E 1_555 1_555
C1OB H1OB 1_555 1_555
C1WA H1WA 1_555 1_555
C1V H1V 1_555 1_555
C1FB H1FB 1_555 1_555
C1M H1M 1_555 1_555
C1ZA H1ZA 1_555 1_555
C1P H1P 1_555 1_555
C1YA H1YA 1_555 1_555
C1T H1T 1_555 1_555
C1GB H1GB 1_555 1_555
C1N H1N 1_555 1_555
C1CB H1CB 1_555 1_555
C1Q H1Q 1_555 1_555
C1SA H1SA 1_555 1_555
C1TB H1TB 1_555 1_555
C1PA H1PA 1_555 1_555
C1ZB H1ZB 1_555 1_555
C1JA H1JA 1_555 1_555
C1CC H1CC 1_555 1_555
C1UA H1UA 1_555 1_555
C1VB H1VB 1_555 1_555
C1QA H1QA 1_555 1_555
C1YB H1YB 1_555 1_555
C1MA H1MA 1_555 1_555
C1BC H1BC 1_555 1_555
C1NC H1NC 1_555 1_555
C1AA H1AA 1_555 1_555
C1KC H1KC 1_555 1_555
C1EA H1EA 1_555 1_555
C1HC H1HC 1_555 1_555
C1IA H1IA 1_555 1_555
C1PC H1PC 1_555 1_555
C1Y H1Y 1_555 1_555
C1JC H1JC 1_555 1_555
C1BA H1BA 1_555 1_555
C1GC H1GC 1_555 1_555
C1HA H1HA 1_555 1_555
H1NB C1NB 1_555 1_555
C2I C3I 1_555 1_555
C2F C3F 1_555 1_555
C2B C3B 1_555 1_555
C2H C3H 1_555 1_555
C2E C3E 1_555 1_555
C2P C3P 1_555 1_555
C2V C3V 1_555 1_555
C2M C3M 1_555 1_555
C2Q C3Q 1_555 1_555
C2T C3T 1_555 1_555
C2N C3N 1_555 1_555
C2SA C3SA 1_555 1_555
C2PA C3PA 1_555 1_555
C2JA C3JA 1_555 1_555
C2UA C3UA 1_555 1_555
C2QA C3QA 1_555 1_555
C2MA C3MA 1_555 1_555
C2IA C3IA 1_555 1_555
C2AA C3AA 1_555 1_555
C2EA C3EA 1_555 1_555
C2HA C3HA 1_555 1_555
C2Y C3Y 1_555 1_555
C2BA C3BA 1_555 1_555
C3F N1 1_555 1_555
C3I N1F 1_555 1_555
C3E N1B 1_555 1_555
C3H N1E 1_555 1_555
C3M N1M 1_555 1_555
C3V N1V 1_555 1_555
C3N N1N 1_555 1_555
C3T N1T 1_555 1_555
C3JA N1SA 1_555 1_555
C3PA N1JA 1_555 1_555
C3MA N1UA 1_555 1_555
C3QA N1MA 1_555 1_555
C3EA N1EA 1_555 1_555
C3AA N1AA 1_555 1_555
C3BA N1BA 1_555 1_555
C3Y N1Y 1_555 1_555
C4QB C1QB 1_555 1_555
C4I C1I 1_555 1_555
C4HB C1HB 1_555 1_555
C4F C1F 1_555 1_555
C4NB C2 1_555 1_555
C4B C1B 1_555 1_555
C4SB C1SB 1_555 1_555
C4H C1H 1_555 1_555
C4KB C1KB 1_555 1_555
C4E C1E 1_555 1_555
C4OB C1OB 1_555 1_555
C4WA C1WA 1_555 1_555
C4V C1V 1_555 1_555
C4FB C1FB 1_555 1_555
C4M C1M 1_555 1_555
C4ZA C1ZA 1_555 1_555
C4P C1P 1_555 1_555
C4YA C1YA 1_555 1_555
C4T C1T 1_555 1_555
C4GB C1GB 1_555 1_555
C4N C1N 1_555 1_555
C4CB C1CB 1_555 1_555
C4Q C1Q 1_555 1_555
C4SA C1SA 1_555 1_555
C4TB C1TB 1_555 1_555
C4PA C1PA 1_555 1_555
C4ZB C1ZB 1_555 1_555
C4JA C1JA 1_555 1_555
C4CC C1CC 1_555 1_555
C4UA C1UA 1_555 1_555
C4VB C1VB 1_555 1_555
C4QA C1QA 1_555 1_555
C4YB C1YB 1_555 1_555
C4MA C1MA 1_555 1_555
C4BC C1BC 1_555 1_555
C4NC C1NC 1_555 1_555
C4AA C1AA 1_555 1_555
C4KC C1KC 1_555 1_555
C4EA C1EA 1_555 1_555
C4HC C1HC 1_555 1_555
C4IA C1IA 1_555 1_555
C4PC C1PC 1_555 1_555
C4Y C1Y 1_555 1_555
C4JC C1JC 1_555 1_555
C4BA C1BA 1_555 1_555
C4GC C1GC 1_555 1_555
C4HA C1HA 1_555 1_555
H2I C4I 1_555 1_555
H2QB C4QB 1_555 1_555
H2F C4F 1_555 1_555
H2HB C4HB 1_555 1_555
H2NB C4NB 1_555 1_555
H2B C4B 1_555 1_555
H2H C4H 1_555 1_555
H2SB C4SB 1_555 1_555
H2E C4E 1_555 1_555
H2KB C4KB 1_555 1_555
H2OB C4OB 1_555 1_555
H2WA C4WA 1_555 1_555
H2FB C4FB 1_555 1_555
H2V C4V 1_555 1_555
H2ZA C4ZA 1_555 1_555
H2M C4M 1_555 1_555
H2P C4P 1_555 1_555
H2YA C4YA 1_555 1_555
H2GB C4GB 1_555 1_555
H2T C4T 1_555 1_555
H2CB C4CB 1_555 1_555
H2N C4N 1_555 1_555
H2Q C4Q 1_555 1_555
H2SA C4SA 1_555 1_555
H2PA C4PA 1_555 1_555
H2TB C4TB 1_555 1_555
H2JA C4JA 1_555 1_555
H2ZB C4ZB 1_555 1_555
H2CC C4CC 1_555 1_555
H2UA C4UA 1_555 1_555
H2QA C4QA 1_555 1_555
H2VB C4VB 1_555 1_555
H2MA C4MA 1_555 1_555
H2YB C4YB 1_555 1_555
H2BC C4BC 1_555 1_555
H2NC C4NC 1_555 1_555
H2KC C4KC 1_555 1_555
H2AA C4AA 1_555 1_555
H2HC C4HC 1_555 1_555
H2EA C4EA 1_555 1_555
H2IA C4IA 1_555 1_555
H2PC C4PC 1_555 1_555
H2JC C4JC 1_555 1_555
H2Y C4Y 1_555 1_555
H2GC C4GC 1_555 1_555
H2BA C4BA 1_555 1_555
H2HA C4HA 1_555 1_555
C5I O2QB 1_555 1_555
C5F O2HB 1_555 1_555
C5B O2B 1_555 1_555
C5H O2SB 1_555 1_555
C5E O2KB 1_555 1_555
C5P O2WA 1_555 1_555
C5V C6V 1_555 1_555
C5M O2M 1_555 1_555
C5Q O2YA 1_555 1_555
C5T C6T 1_555 1_555
C5N O2N 1_555 1_555
C5SA O2SA 1_555 1_555
C5PA O2TB 1_555 1_555
C5JA O2ZB 1_555 1_555
C5UA O2UA 1_555 1_555
C5QA C6QA 1_555 1_555
C5MA C6MA 1_555 1_555
C5IA O2NC 1_555 1_555
C5AA C6AA 1_555 1_555
C5EA O2EA 1_555 1_555
C5HA O2PC 1_555 1_555
C5Y C6Y 1_555 1_555
C5BA O2BA 1_555 1_555
C6I C1QB 1_555 1_555
C6F C1HB 1_555 1_555
C6B C1B 1_555 1_555
C6H C1SB 1_555 1_555
C6E C1KB 1_555 1_555
C6P C1WA 1_555 1_555
C6V C1V 1_555 1_555
C6M C1M 1_555 1_555
C6Q C1YA 1_555 1_555
C6T C1T 1_555 1_555
C6N C1N 1_555 1_555
C6SA C1SA 1_555 1_555
C6PA C1TB 1_555 1_555
C6JA C1ZB 1_555 1_555
C6UA C1UA 1_555 1_555
C6QA C1VB 1_555 1_555
C6MA C1YB 1_555 1_555
C6IA C1NC 1_555 1_555
C6AA C1AA 1_555 1_555
C6EA C1EA 1_555 1_555
C6HA C1PC 1_555 1_555
C6Y C1Y 1_555 1_555
C6BA C1BA 1_555 1_555
C7W S2 1_555 1_555
H3W C7W 1_555 1_555
H4XA C7 1_555 1_555
H4W C7W 1_555 1_555
H4QB C7W 1_555 1_555
S1 O1B 1_555 1_555
C2 C4 1_555 1_555
C5 C6 1_555 1_555
Er2SA O1UA 1_555 1_555
Er2Q O2NB 1_555 1_555
Er2I O3H 1_555 1_555
Er2D O3D 1_555 1_555
Er2H O3H_2 1_555 1_555
Er2E O3D_2 1_555 1_555
Er2E_2 O3D 1_555 1_555
Er2D_2 O3D_2 1_555 1_555
Er2FA O3FA 1_555 1_555
Er2GA O3FA 1_555 1_555
S1Q O1CA 1_555 1_555
S1Q O1Q 1_555 1_555
S1T O1AA 1_555 1_555
S1T O1V 1_555 1_555
S1I O1LA 1_555 1_555
S1I O1K 1_555 1_555
S1M O1HA 1_555 1_555
S1M O1O 1_555 1_555
S1D O1NA 1_555 1_555
S1D O1D 1_555 1_555
O2I C5I 1_555 1_555
O2F C5F 1_555 1_555
O2OB C5B 1_555 1_555
O2H C5H 1_555 1_555
O2E C5E 1_555 1_555
O2P C5P 1_555 1_555
O2Q C5Q 1_555 1_555
O2CC C5SA 1_555 1_555
O2PA C5PA 1_555 1_555
O2JA C5JA 1_555 1_555
O2IA C5IA 1_555 1_555
O2HA C5HA 1_555 1_555
N1H C3H 1_555 1_555
N1P C3V 1_555 1_555
N1Q C3T 1_555 1_555
N1PA C3PA 1_555 1_555
N1QA C3QA 1_555 1_555
N1IA C3AA 1_555 1_555
N1HA C3Y 1_555 1_555
C1I C6I 1_555 1_555
C1F C6F 1_555 1_555
C1NB C4NB 1_555 1_555
C1H C6H 1_555 1_555
C1E C6E 1_555 1_555
C1OB C6B 1_555 1_555
C1FB C6V 1_555 1_555
C1ZA C6M 1_555 1_555
C1P C6P 1_555 1_555
C1GB C6T 1_555 1_555
C1CB C6N 1_555 1_555
C1Q C6Q 1_555 1_555
C1PA C6PA 1_555 1_555
C1JA C6JA 1_555 1_555
C1CC C6SA 1_555 1_555
C1QA C6QA 1_555 1_555
C1MA C6MA 1_555 1_555
C1BC C6UA 1_555 1_555
C1KC C6AA 1_555 1_555
C1HC C6EA 1_555 1_555
C1IA C6IA 1_555 1_555
C1JC C6Y 1_555 1_555
C1GC C6BA 1_555 1_555
C1HA C6HA 1_555 1_555
C2I C4QB 1_555 1_555
C2I C4I 1_555 1_555
C2F C4HB 1_555 1_555
C2F C4F 1_555 1_555
C2B C4B 1_555 1_555
C2B C4OB 1_555 1_555
C2H C4SB 1_555 1_555
C2H C4H 1_555 1_555
C2E C4KB 1_555 1_555
C2E C4E 1_555 1_555
C2P C4WA 1_555 1_555
C2P C4P 1_555 1_555
C2V C4V 1_555 1_555
C2V C4FB 1_555 1_555
C2M C4M 1_555 1_555
C2M C4ZA 1_555 1_555
C2Q C4YA 1_555 1_555
C2Q C4Q 1_555 1_555
C2T C4T 1_555 1_555
C2T C4GB 1_555 1_555
C2N C4N 1_555 1_555
C2N C4CB 1_555 1_555
C2SA C4SA 1_555 1_555
C2SA C4CC 1_555 1_555
C2PA C4TB 1_555 1_555
C2PA C4PA 1_555 1_555
C2JA C4ZB 1_555 1_555
C2JA C4JA 1_555 1_555
C2UA C4UA 1_555 1_555
C2UA C4BC 1_555 1_555
C2QA C4VB 1_555 1_555
C2QA C4QA 1_555 1_555
C2MA C4YB 1_555 1_555
C2MA C4MA 1_555 1_555
C2IA C4NC 1_555 1_555
C2IA C4IA 1_555 1_555
C2AA C4AA 1_555 1_555
C2AA C4KC 1_555 1_555
C2EA C4EA 1_555 1_555
C2EA C4HC 1_555 1_555
C2HA C4PC 1_555 1_555
C2HA C4HA 1_555 1_555
C2Y C4Y 1_555 1_555
C2Y C4JC 1_555 1_555
C2BA C4BA 1_555 1_555
C2BA C4GC 1_555 1_555
C5I C6I 1_555 1_555
C5F C6F 1_555 1_555
C5B C6B 1_555 1_555
C5H C6H 1_555 1_555
C5E C6E 1_555 1_555
C5P C6P 1_555 1_555
C5M C6M 1_555 1_555
C5Q C6Q 1_555 1_555
C5N C6N 1_555 1_555
C5SA C6SA 1_555 1_555
C5PA C6PA 1_555 1_555
C5JA C6JA 1_555 1_555
C5UA C6UA 1_555 1_555
C5IA C6IA 1_555 1_555
C5EA C6EA 1_555 1_555
C5HA C6HA 1_555 1_555
C5BA C6BA 1_555 1_555

#END
