
#######################################################################
#
#                 Cambridge Crystallographic Data Centre
#                                CCDC 
#
#######################################################################
#
# If this CIF has been generated from an entry in the Cambridge 
# Structural Database, then it will include bibliographic, chemical, 
# crystal, experimental, refinement or atomic coordinate data resulting 
# from the CCDC's data processing and validation procedures.
#
#######################################################################

data_FUTYAW
_symmetry_cell_setting           monoclinic
_symmetry_space_group_name_H-M   'C 2/m'
_symmetry_Int_Tables_number      12
_space_group_name_Hall           '-C 2y'
loop_
_symmetry_equiv_pos_site_id
_symmetry_equiv_pos_as_xyz
1 x,y,z
2 -x,y,-z
3 1/2+x,1/2+y,z
4 1/2-x,1/2+y,-z
5 -x,-y,-z
6 x,-y,z
7 1/2-x,1/2-y,-z
8 1/2+x,1/2-y,z
_cell_length_a                   26.656(15)
_cell_length_b                   24.838(14)
_cell_length_c                   10.191(6)
_cell_angle_alpha                90
_cell_angle_beta                 110.667(7)
_cell_angle_gamma                90
_cell_volume                     6313.07
loop_
_atom_site_label
_atom_site_type_symbol
_atom_site_fract_x
_atom_site_fract_y
_atom_site_fract_z
O10A O 0.9668(2) 1.0000 0.2968(5)
N1A N 0.92827(5) 1.05689(10) 0.4169(9)
C16A C 0.9671(7) 1.0459(7) 0.3743(13)
C17A C 1.0127(6) 1.0852(7) 0.4337(13)
H6A H 1.0450 1.0672 0.4931
H7A H 1.0202 1.1043 0.3597
C18A C 0.9913(6) 1.1223(7) 0.5166(13)
H8A H 1.0160 1.1244 0.6128
H9A H 0.9864 1.1581 0.4763
C19A C 0.9395(7) 1.1000(7) 0.5121(13)
H10A H 0.9418 1.0875 0.6042
H11A H 0.9116 1.1271 0.4807
C20A C 0.88028(9) 1.02488(15) 0.3820(12)
H12A H 0.8494 1.0480 0.3499
H13A H 0.8803 1.0055 0.4636
N1D N 0.92827(5) 0.94311(10) 0.4169(9)
C16D C 0.9671(7) 0.9541(7) 0.3743(13)
C17D C 1.0127(6) 0.9148(7) 0.4337(13)
H6D H 1.0450 0.9328 0.4931
H7D H 1.0202 0.8957 0.3597
C18D C 0.9913(6) 0.8777(7) 0.5166(13)
H8D H 1.0160 0.8756 0.6128
H9D H 0.9864 0.8419 0.4763
C19D C 0.9395(7) 0.9000(7) 0.5121(13)
H10D H 0.9418 0.9125 0.6042
H11D H 0.9116 0.8729 0.4807
C20D C 0.88028(9) 0.97512(15) 0.3820(12)
H12D H 0.8494 0.9520 0.3499
H13D H 0.8803 0.9945 0.4636
Zn1A Zn 0.99594(3) 1.0000 0.14210(7)
Zn2A Zn 1.29899(4) 1.0000 -0.17128(9)
O1A O 1.3236(2) 1.0000 0.1123(6)
O2A O 1.2485(2) 1.0000 -0.0691(5)
O3A O 1.2489(2) 1.0000 0.6313(5)
O4A O 1.3238(3) 1.0000 0.5888(6)
O5A O 1.0767(2) 1.0000 0.2324(5)
O6A O 1.0784(2) 1.0000 0.0148(5)
C1A C 1.2432(3) 1.0000 0.1590(7)
C2A C 1.1886(3) 1.0000 0.1095(7)
H1A H 1.1699 1.0000 0.0133
C3A C 1.1602(3) 1.0000 0.2019(7)
C4A C 1.1887(3) 1.0000 0.3442(7)
H2A H 1.1703 1.0000 0.4064
C5A C 1.2429(3) 1.0000 0.3950(8)
C6A C 1.2705(3) 1.0000 0.3013(8)
H3A H 1.3078 1.0000 0.3356
C7A C 1.2734(4) 1.0000 0.0605(8)
C8A C 1.0997(3) 1.0000 0.1452(8)
C15A C 1.2743(3) 1.0000 0.5488(8)
N2A N 1.3456(3) 0.9360(4) -0.1318(7)
C23A C 1.3678(5) 0.9135(6) -0.0101(10)
H14A H 1.3587 0.9195 0.0688
C24A C 1.4049(6) 0.8811(6) -0.0177(14)
H15A H 1.4270 0.8598 0.0547
N3A N 1.4056(6) 0.8836(6) -0.1443(15)
H16A H 1.4267 0.8659 -0.1758
C25A C 1.3690(5) 0.9176(5) -0.2148(10)
H17A H 1.3609 0.9270 -0.3083
N2D N 1.3456(3) 1.0640(4) -0.1318(7)
C23D C 1.3678(5) 1.0865(6) -0.0101(10)
H14D H 1.3587 1.0805 0.0688
C24D C 1.4049(6) 1.1189(6) -0.0177(14)
H15D H 1.4270 1.1402 0.0547
N3D N 1.4056(6) 1.1164(6) -0.1443(15)
H16D H 1.4267 1.1341 -0.1758
C25D C 1.3690(5) 1.0824(5) -0.2148(10)
H17D H 1.3609 1.0730 -0.3083
Zn1 Zn 1.00406(3) 1.0000 -0.14210(7)
Zn2A_2 Zn 1.29899(4) 1.0000 0.82872(9)
O3A_2 O 1.2489(2) 1.0000 -0.3687(5)
O6 O 0.9216(2) 1.0000 -0.0148(5)
O7A O 0.99913(15) 0.92034(15) 0.1091(3)
O7D O 0.99913(15) 1.07966(15) 0.1091(3)
O11 O 0.7561(4) 0.8647(4) 0.4827(9)
N6 N 0.8196(4) 0.7950(4) 0.5214(8)
C27 C 0.8012(4) 0.8371(4) 0.5634(8)
C28 C 0.8400(4) 0.8531(4) 0.7071(9)
H22 H 0.8681 0.8766 0.7008
H23 H 0.8218 0.8701 0.7634
C29 C 0.8610(3) 0.7990(4) 0.7620(8)
H24 H 0.8983 0.8014 0.8233
H25 H 0.8404 0.7836 0.8143
C30 C 0.8559(3) 0.7656(4) 0.6374(8)
H26 H 0.8904 0.7611 0.6268
H27 H 0.8414 0.7304 0.6451
C31 C 0.8220(4) 0.7882(4) 0.3838(9)
H28 H 0.7864 0.7832 0.3171
H29 H 0.8434 0.7572 0.3832
H30 H 0.8377 0.8196 0.3591
Zn1_2 Zn 1.00406(3) 1.0000 0.85790(7)
Zn2 Zn 0.70101(4) 1.0000 1.17128(9)
Zn3 Zn 1.0000 0.69780(4) 0.5000
O1 O 0.6764(2) 1.0000 0.8877(6)
O2 O 0.7515(2) 1.0000 1.0691(5)
O3 O 0.7511(2) 1.0000 0.3687(5)
O4 O 0.6762(3) 1.0000 0.4112(6)
O5 O 0.9233(2) 1.0000 0.7676(5)
O6_2 O 0.9216(2) 1.0000 0.9852(5)
O7 O 1.00087(15) 0.92034(15) 0.8909(3)
O8 O 1.00139(19) 0.74775(17) 0.6516(4)
O9 O 1.0060(3) 0.67310(19) 0.7669(4)
C1 C 0.7568(3) 1.0000 0.8410(7)
C2 C 0.8114(3) 1.0000 0.8905(7)
H1 H 0.8301 1.0000 0.9867
C3 C 0.8398(3) 1.0000 0.7981(7)
C4 C 0.8113(3) 1.0000 0.6558(7)
H2 H 0.8297 1.0000 0.5936
C5 C 0.7571(3) 1.0000 0.6050(8)
C6 C 0.7295(3) 1.0000 0.6987(8)
H3 H 0.6922 1.0000 0.6644
C7 C 0.7266(4) 1.0000 0.9395(8)
C8 C 0.9003(3) 1.0000 0.8548(8)
C9 C 1.0000 0.8980(4) 1.0000
C10 C 1.0000 0.8375(3) 1.0000
C11 C 1.0014(2) 0.8089(2) 0.8843(5)
H4 H 1.0026 0.8276 0.8062
C12 C 1.0011(2) 0.7530(2) 0.8832(5)
C13 C 1.0000 0.7266(3) 1.0000
H5 H 1.0000 0.6892 1.0000
C14 C 1.0026(3) 0.7224(3) 0.7600(5)
C15 C 0.7257(3) 1.0000 0.4512(8)
O10 O 1.0332(2) 1.0000 0.7032(5)
N1 N 1.07173(5) 1.05689(10) 0.5831(9)
C16 C 1.0329(7) 1.0459(7) 0.6257(13)
C17 C 0.9873(6) 1.0852(7) 0.5663(13)
H6 H 0.9550 1.0672 0.5069
H7 H 0.9798 1.1043 0.6403
C18 C 1.0087(6) 1.1223(7) 0.4834(13)
H8 H 0.9840 1.1244 0.3872
H9 H 1.0136 1.1581 0.5237
C19 C 1.0605(7) 1.1000(7) 0.4879(13)
H10 H 1.0582 1.0875 0.3958
H11 H 1.0884 1.1271 0.5193
C20 C 1.11972(9) 1.02488(15) 0.6180(12)
H12 H 1.1506 1.0480 0.6501
H13 H 1.1197 1.0055 0.5364
C21 C 0.8732(4) 0.5983(4) 0.4611(10)
C22 C 0.9148(5) 0.6250(7) 0.5245(12)
N2 N 0.6544(3) 0.9360(4) 1.1318(7)
C23 C 0.6322(5) 0.9135(6) 1.0101(10)
H14 H 0.6413 0.9195 0.9312
C24 C 0.5951(6) 0.8811(6) 1.0177(14)
H15 H 0.5730 0.8598 0.9453
N3 N 0.5944(6) 0.8836(6) 1.1443(15)
H16 H 0.5733 0.8659 1.1758
C25 C 0.6310(5) 0.9176(5) 1.2148(10)
H17 H 0.6391 0.9270 1.3083
H18 H 0.8621 0.5673 0.4910
H19 H 0.9356 0.6209 0.6188
N4 N 0.9229(4) 0.6623(4) 0.4351(10)
C26 C 0.8890(4) 0.6614(4) 0.3333(10)
H20 H 0.8873 0.6819 0.2555
N5 N 0.8498(4) 0.6262(4) 0.3370(10)
H21 H 0.8181 0.6224 0.2761
O7A_2 O 0.99913(15) 0.92034(15) 1.1091(3)
O8A O 0.99861(19) 0.74775(17) 1.3484(4)
O9A O 0.9940(3) 0.67310(19) 1.2331(4)
C11A C 0.9986(2) 0.8089(2) 1.1157(5)
H4A H 0.9974 0.8276 1.1938
C12A C 0.9989(2) 0.7530(2) 1.1168(5)
C14A C 0.9974(3) 0.7224(3) 1.2400(5)
N1E N 1.07173(5) 0.94311(10) 0.5831(9)
C16E C 1.0329(7) 0.9541(7) 0.6257(13)
C17E C 0.9873(6) 0.9148(7) 0.5663(13)
H6E H 0.9550 0.9328 0.5069
H7E H 0.9798 0.8957 0.6403
C18E C 1.0087(6) 0.8777(7) 0.4834(13)
H8E H 0.9840 0.8756 0.3872
H9E H 1.0136 0.8419 0.5237
C19E C 1.0605(7) 0.9000(7) 0.4879(13)
H10E H 1.0582 0.9125 0.3958
H11E H 1.0884 0.8729 0.5193
C20E C 1.11972(9) 0.97512(15) 0.6180(12)
H12E H 1.1506 0.9520 0.6501
H13E H 1.1197 0.9945 0.5364
C21A C 1.1268(4) 0.5983(4) 0.5389(10)
C22A C 1.0852(5) 0.6250(7) 0.4755(12)
H18A H 1.1379 0.5673 0.5090
H19A H 1.0644 0.6209 0.3812
N4A N 1.0771(4) 0.6623(4) 0.5649(10)
C26A C 1.1110(4) 0.6614(4) 0.6667(10)
H20A H 1.1127 0.6819 0.7445
N5A N 1.1502(4) 0.6262(4) 0.6630(10)
H21A H 1.1819 0.6224 0.7239
Zn3D Zn 1.0000 1.30220(4) 0.5000
C21D C 1.1268(4) 1.4017(4) 0.5389(10)
C22D C 1.0852(5) 1.3750(7) 0.4755(12)
H18D H 1.1379 1.4327 0.5090
H19D H 1.0644 1.3791 0.3812
N4D N 1.0771(4) 1.3377(4) 0.5649(10)
C26D C 1.1110(4) 1.3386(4) 0.6667(10)
H20D H 1.1127 1.3181 0.7445
N5D N 1.1502(4) 1.3738(4) 0.6630(10)
H21D H 1.1819 1.3776 0.7239
O7E O 1.00087(15) 1.07966(15) 0.8909(3)
O8E O 1.00139(19) 1.25225(17) 0.6516(4)
O9E O 1.0060(3) 1.32690(19) 0.7669(4)
C9D C 1.0000 1.1020(4) 1.0000
C10D C 1.0000 1.1625(3) 1.0000
C11E C 1.0014(2) 1.1911(2) 0.8843(5)
H4E H 1.0026 1.1724 0.8062
C12E C 1.0011(2) 1.2470(2) 0.8832(5)
C13D C 1.0000 1.2734(3) 1.0000
H5D H 1.0000 1.3108 1.0000
C14E C 1.0026(3) 1.2776(3) 0.7600(5)
C21E C 0.8732(4) 1.4017(4) 0.4611(10)
C22E C 0.9148(5) 1.3750(7) 0.5245(12)
N2E N 0.6544(3) 1.0640(4) 1.1318(7)
C23E C 0.6322(5) 1.0865(6) 1.0101(10)
H14E H 0.6413 1.0805 0.9312
C24E C 0.5951(6) 1.1189(6) 1.0177(14)
H15E H 0.5730 1.1402 0.9453
N3E N 0.5944(6) 1.1164(6) 1.1443(15)
H16E H 0.5733 1.1341 1.1758
C25E C 0.6310(5) 1.0824(5) 1.2148(10)
H17E H 0.6391 1.0730 1.3083
H18E H 0.8621 1.4327 0.4910
H19E H 0.9356 1.3791 0.6188
N4E N 0.9229(4) 1.3377(4) 0.4351(10)
C26E C 0.8890(4) 1.3386(4) 0.3333(10)
H20E H 0.8873 1.3181 0.2555
N5E N 0.8498(4) 1.3738(4) 0.3370(10)
H21E H 0.8181 1.3776 0.2761
O7D_2 O 0.99913(15) 1.07966(15) 1.1091(3)
O8D O 0.99861(19) 1.25225(17) 1.3484(4)
O9D O 0.9940(3) 1.32690(19) 1.2331(4)
C11D C 0.9986(2) 1.1911(2) 1.1157(5)
H4D H 0.9974 1.1724 1.1938
C12D C 0.9989(2) 1.2470(2) 1.1168(5)
C14D C 0.9974(3) 1.2776(3) 1.2400(5)
Zn1A_2 Zn 0.99594(3) 1.0000 1.14210(7)
Zn2_2 Zn 0.70101(4) 1.0000 0.17128(9)
Zn3_2 Zn 1.0000 0.69780(4) 1.5000
Zn3D_2 Zn 1.0000 1.30220(4) 1.5000
O3_2 O 0.7511(2) 1.0000 1.3687(5)
O6A_2 O 1.0784(2) 1.0000 1.0148(5)
O8A_2 O 0.99861(19) 0.74775(17) 0.3484(4)
O8D_2 O 0.99861(19) 1.25225(17) 0.3484(4)
N7? N 0.6791(4) 0.9158(4) 1.1278(10)
C32? C 0.6705(4) 0.8846(4) 1.0088(9)
H31? H 0.6844 0.8911 0.9385
C33? C 0.6375(4) 0.8419(4) 1.0132(9)
H32? H 0.6255 0.8148 0.9464
N8? N 0.6257(4) 0.8466(5) 1.1350(10)
H33? H 0.6060 0.8251 1.1618
C34? C 0.6514(4) 0.8923(5) 1.2058(10)
H34? H 0.6503 0.9050 1.2906
H35? H 0.8443 0.5890 0.4878
H36? H 0.9250 0.6286 0.6213
N9? N 0.9458(6) 0.6491(7) 0.4590(12)
C35? C 0.9252(10) 0.6175(9) 0.333(2)
H37? H 0.9383 0.6183 0.2596
N10? N 0.8834(4) 0.5864(5) 0.3363(10)
H38? H 0.8662 0.5634 0.2735
H39? H 1.1209 0.9998 0.6907
loop_
_geom_bond_atom_site_label_1
_geom_bond_atom_site_label_2
_geom_bond_site_symmetry_1
_geom_bond_site_symmetry_2
Zn1_2 O5 1_555 1_555
Zn2 O2 1_555 1_555
Zn3 O8 1_555 1_555
O1 C7 1_555 1_555
O2 C7 1_555 1_555
O3 C15 1_555 1_555
O4 C15 1_555 1_555
O5 C8 1_555 1_555
O6_2 C8 1_555 1_555
O7 Zn1_2 1_555 1_555
O8 C14 1_555 1_555
O9 C14 1_555 1_555
C1 C2 1_555 1_555
C2 H1 1_555 1_555
C3 C2 1_555 1_555
C4 C3 1_555 1_555
H2 C4 1_555 1_555
C5 C4 1_555 1_555
C6 C1 1_555 1_555
H3 C6 1_555 1_555
C7 C1 1_555 1_555
C8 C3 1_555 1_555
C9 O7 1_555 1_555
C10 C9 1_555 1_555
C11 C10 1_555 1_555
H4 C11 1_555 1_555
C12 C11 1_555 1_555
C13 C12 1_555 1_555
H5 C13 1_555 1_555
C14 C12 1_555 1_555
C15 C5 1_555 1_555
O10 Zn1_2 1_555 1_555
N1 C16 1_555 1_555
C16 O10 1_555 1_555
C17 C16 1_555 1_555
H6 C17 1_555 1_555
H7 C17 1_555 1_555
C18 C17 1_555 1_555
H8 C18 1_555 1_555
H9 C18 1_555 1_555
C19 N1 1_555 1_555
H10 C19 1_555 1_555
H11 C19 1_555 1_555
C20 N1 1_555 1_555
H12 C20 1_555 1_555
H13 C20 1_555 1_555
C21 C22 1_555 1_555
C22 H19 1_555 1_555
N2 Zn2 1_555 1_555
C23 N2 1_555 1_555
H14 C23 1_555 1_555
C24 C23 1_555 1_555
H15 C24 1_555 1_555
N3 C24 1_555 1_555
H16 N3 1_555 1_555
C25 N2 1_555 1_555
H17 C25 1_555 1_555
H18 C21 1_555 1_555
N4 Zn3 1_555 1_555
C26 N4 1_555 1_555
H20 C26 1_555 1_555
N5 C21 1_555 1_555
H21 N5 1_555 1_555
O11 C27 1_555 1_555
N6 C27 1_555 1_555
C27 C28 1_555 1_555
C28 H22 1_555 1_555
H23 C28 1_555 1_555
C29 C28 1_555 1_555
H24 C29 1_555 1_555
H25 C29 1_555 1_555
C30 N6 1_555 1_555
H26 C30 1_555 1_555
H27 C30 1_555 1_555
C31 N6 1_555 1_555
H28 C31 1_555 1_555
H29 C31 1_555 1_555
H30 C31 1_555 1_555
O7A_2 C9 1_555 1_555
O8A C14A 1_555 1_555
O9A C14A 1_555 1_555
C11A C10 1_555 1_555
H4A C11A 1_555 1_555
C12A C13 1_555 1_555
C14A C12A 1_555 1_555
N1E C16E 1_555 1_555
C16E O10 1_555 1_555
C17E C16E 1_555 1_555
H6E C17E 1_555 1_555
H7E C17E 1_555 1_555
C18E C17E 1_555 1_555
H8E C18E 1_555 1_555
H9E C18E 1_555 1_555
C19E N1E 1_555 1_555
H10E C19E 1_555 1_555
H11E C19E 1_555 1_555
C20E N1E 1_555 1_555
H12E C20E 1_555 1_555
H13E C20E 1_555 1_555
C21A C22A 1_555 1_555
C22A H19A 1_555 1_555
H18A C21A 1_555 1_555
N4A Zn3 1_555 1_555
C26A N4A 1_555 1_555
H20A C26A 1_555 1_555
N5A C21A 1_555 1_555
H21A N5A 1_555 1_555
Zn3D N4D 1_555 1_555
C21D C22D 1_555 1_555
C22D H19D 1_555 1_555
H18D C21D 1_555 1_555
N4D C22D 1_555 1_555
C26D N4D 1_555 1_555
H20D C26D 1_555 1_555
N5D C21D 1_555 1_555
H21D N5D 1_555 1_555
O7E Zn1_2 1_555 1_555
O8E Zn3D 1_555 1_555
O9E C14E 1_555 1_555
C9D O7E 1_555 1_555
C10D C9D 1_555 1_555
C11E C10D 1_555 1_555
H4E C11E 1_555 1_555
C12E C11E 1_555 1_555
C13D C12E 1_555 1_555
H5D C13D 1_555 1_555
C14E O8E 1_555 1_555
C21E C22E 1_555 1_555
C22E H19E 1_555 1_555
N2E Zn2 1_555 1_555
C23E N2E 1_555 1_555
H14E C23E 1_555 1_555
C24E C23E 1_555 1_555
H15E C24E 1_555 1_555
N3E C24E 1_555 1_555
H16E N3E 1_555 1_555
C25E N2E 1_555 1_555
H17E C25E 1_555 1_555
H18E C21E 1_555 1_555
N4E Zn3D 1_555 1_555
C26E N4E 1_555 1_555
H20E C26E 1_555 1_555
N5E C21E 1_555 1_555
H21E N5E 1_555 1_555
O7D_2 C9D 1_555 1_555
O8D C14D 1_555 1_555
O9D C14D 1_555 1_555
C11D C10D 1_555 1_555
H4D C11D 1_555 1_555
C12D C13D 1_555 1_555
C14D C12D 1_555 1_555
Zn1A_2 O6_2 1_555 1_555
Zn2_2 O3 1_555 1_555
Zn3_2 O8A 1_555 1_555
Zn3D_2 O8D 1_555 1_555
O3_2 Zn2 1_555 1_555
O6A_2 Zn1_2 1_555 1_555
O8A_2 Zn3 1_555 1_555
O8D_2 Zn3D 1_555 1_555
O10A C16A 1_555 1_555
N1A C16A 1_555 1_555
C16A C17A 1_555 1_555
C17A H6A 1_555 1_555
H7A C17A 1_555 1_555
C18A C17A 1_555 1_555
H8A C18A 1_555 1_555
H9A C18A 1_555 1_555
C19A N1A 1_555 1_555
H10A C19A 1_555 1_555
H11A C19A 1_555 1_555
C20A N1A 1_555 1_555
H12A C20A 1_555 1_555
H13A C20A 1_555 1_555
N1D C16D 1_555 1_555
C16D O10A 1_555 1_555
C17D C16D 1_555 1_555
H6D C17D 1_555 1_555
H7D C17D 1_555 1_555
C18D C17D 1_555 1_555
H8D C18D 1_555 1_555
H9D C18D 1_555 1_555
C19D N1D 1_555 1_555
H10D C19D 1_555 1_555
H11D C19D 1_555 1_555
C20D N1D 1_555 1_555
H12D C20D 1_555 1_555
H13D C20D 1_555 1_555
Zn1A O10A 1_555 1_555
Zn2A O2A 1_555 1_555
O1A C7A 1_555 1_555
O2A C7A 1_555 1_555
O3A C15A 1_555 1_555
O4A C15A 1_555 1_555
O5A Zn1A 1_555 1_555
O6A C8A 1_555 1_555
C1A C2A 1_555 1_555
C2A H1A 1_555 1_555
C3A C2A 1_555 1_555
C4A C3A 1_555 1_555
H2A C4A 1_555 1_555
C5A C4A 1_555 1_555
C6A C1A 1_555 1_555
H3A C6A 1_555 1_555
C7A C1A 1_555 1_555
C8A O5A 1_555 1_555
C15A C5A 1_555 1_555
N2A Zn2A 1_555 1_555
C23A N2A 1_555 1_555
H14A C23A 1_555 1_555
C24A C23A 1_555 1_555
H15A C24A 1_555 1_555
N3A C24A 1_555 1_555
H16A N3A 1_555 1_555
C25A N2A 1_555 1_555
H17A C25A 1_555 1_555
N2D Zn2A 1_555 1_555
C23D N2D 1_555 1_555
H14D C23D 1_555 1_555
C24D C23D 1_555 1_555
H15D C24D 1_555 1_555
N3D C24D 1_555 1_555
H16D N3D 1_555 1_555
C25D N2D 1_555 1_555
H17D C25D 1_555 1_555
Zn1 O6A 1_555 1_555
Zn2A_2 O3A 1_555 1_555
O3A_2 Zn2A 1_555 1_555
O6 Zn1A 1_555 1_555
O7A Zn1A 1_555 1_555
O7D Zn1A 1_555 1_555
C5 C6 1_555 1_555
C18 C19 1_555 1_555
C22 N4 1_555 1_555
N3 C25 1_555 1_555
C26 N5 1_555 1_555
C29 C30 1_555 1_555
O7A_2 Zn1A_2 1_555 1_555
C11A C12A 1_555 1_555
C18E C19E 1_555 1_555
C22A N4A 1_555 1_555
C26A N5A 1_555 1_555
C26D N5D 1_555 1_555
C12E C14E 1_555 1_555
C22E N4E 1_555 1_555
N3E C25E 1_555 1_555
C26E N5E 1_555 1_555
O7D_2 Zn1A_2 1_555 1_555
C11D C12D 1_555 1_555
C18A C19A 1_555 1_555
C18D C19D 1_555 1_555
C3A C8A 1_555 1_555
C5A C6A 1_555 1_555
N3A C25A 1_555 1_555
N3D C25D 1_555 1_555

#END
