
#######################################################################
#
#                 Cambridge Crystallographic Data Centre
#                                CCDC 
#
#######################################################################
#
# If this CIF has been generated from an entry in the Cambridge 
# Structural Database, then it will include bibliographic, chemical, 
# crystal, experimental, refinement or atomic coordinate data resulting 
# from the CCDC's data processing and validation procedures.
#
#######################################################################

data_FUTYIE
_symmetry_cell_setting           triclinic
_symmetry_space_group_name_H-M   'P -1'
_symmetry_Int_Tables_number      2
_space_group_name_Hall           '-P 1'
loop_
_symmetry_equiv_pos_site_id
_symmetry_equiv_pos_as_xyz
1 x,y,z
2 -x,-y,-z
_cell_length_a                   8.333(3)
_cell_length_b                   9.780(4)
_cell_length_c                   10.670(4)
_cell_angle_alpha                67.335(5)
_cell_angle_beta                 68.389(5)
_cell_angle_gamma                68.702(5)
_cell_volume                     720.765
loop_
_atom_site_label
_atom_site_type_symbol
_atom_site_fract_x
_atom_site_fract_y
_atom_site_fract_z
Zn1 Zn 0.30902(3) 0.06347(2) 0.21798(2)
N1 N 0.2024(2) 0.0133(2) 0.10667(18)
O1 O 0.12055(17) 0.17499(14) 0.35501(13)
O2 O 0.06464(16) 0.33961(14) 0.15443(13)
O3 O -0.56821(17) 0.87917(14) 0.34748(13)
O4 O -0.42381(17) 0.80935(15) 0.15099(13)
O5 O -0.42964(17) 0.53910(15) 0.79752(13)
O6 O -0.22098(18) 0.31718(14) 0.80584(13)
C1 C 0.0347(2) 0.3020(2) 0.28547(19)
C2 C -0.1090(2) 0.4069(2) 0.36646(19)
C3 C -0.2109(2) 0.5411(2) 0.29329(19)
H1 H -0.1875 0.5642 0.1962
C4 C -0.1434(2) 0.3741(2) 0.51178(19)
H2 H -0.0760 0.2847 0.5613
C5 C -0.4531(2) 0.7850(2) 0.27960(19)
C6 C -0.3806(2) 0.6065(2) 0.50896(19)
H3 H -0.4721 0.6723 0.5566
C7 C -0.2775(2) 0.4736(2) 0.58341(19)
C8 C -0.3127(2) 0.4400(2) 0.74110(19)
C9 C -0.3469(2) 0.6409(2) 0.36318(19)
N2 N 0.4801(2) 0.19682(19) 0.10974(18)
H4 H 0.446(3) 0.276(3) 0.132(2)
H5 H 0.488(3) 0.222(3) 0.021(3)
H6 H 0.257(3) 0.049(3) 0.020(3)
H7 H 0.215(3) -0.084(3) 0.126(3)
H8 H 0.094(4) 0.057(3) 0.115(3)
H9 H 0.584(3) 0.159(3) 0.125(3)
Zn1_2 Zn -0.69098(3) 1.06347(2) 0.21798(2)
O3_2 O 0.43179(17) -0.12083(14) 0.34748(13)
N3 N 0.2235(2) 0.5883(2) 0.97801(19)
H10 H 0.221(3) 0.631(3) 1.036(3)
H11 H 0.172(3) 0.512(3) 1.027(3)
H12 H 0.333(3) 0.559(3) 0.923(3)
H13 H 0.154(4) 0.650(3) 0.926(3)
N4 N 0.7082(2) 0.9375(2) 0.4227(2)
O7 O 0.80295(19) 1.10463(18) 0.21247(16)
C10 C 0.8110(3) 1.0272(2) 0.3335(2)
H14 H 0.730(4) 0.887(3) 0.497(3)
H15 H 0.623(3) 0.928(3) 0.401(3)
H16 H 0.904(3) 1.026(3) 0.369(2)
loop_
_geom_bond_atom_site_label_1
_geom_bond_atom_site_label_2
_geom_bond_site_symmetry_1
_geom_bond_site_symmetry_2
Zn1 N1 1_555 1_555
N1 H6 1_555 1_555
O1 Zn1 1_555 1_555
O2 C1 1_555 1_555
O3 C5 1_555 1_555
O4 C5 1_555 1_555
O5 C8 1_555 1_555
O6 C8 1_555 1_555
C1 O1 1_555 1_555
C2 C1 1_555 1_555
C3 C2 1_555 1_555
H1 C3 1_555 1_555
C4 C2 1_555 1_555
H2 C4 1_555 1_555
C5 C9 1_555 1_555
C6 H3 1_555 1_555
C7 C4 1_555 1_555
C8 C7 1_555 1_555
C9 C3 1_555 1_555
N2 Zn1 1_555 1_555
H4 N2 1_555 1_555
H5 N2 1_555 1_555
H7 N1 1_555 1_555
H8 N1 1_555 1_555
H9 N2 1_555 1_555
N3 H10 1_555 1_555
H11 N3 1_555 1_555
H12 N3 1_555 1_555
H13 N3 1_555 1_555
N4 C10 1_555 1_555
O7 C10 1_555 1_555
C10 H16 1_555 1_555
H14 N4 1_555 1_555
H15 N4 1_555 1_555
Zn1_2 O3 1_555 1_555
O3_2 Zn1 1_555 1_555
C6 C7 1_555 1_555
C6 C9 1_555 1_555

#END
