
#######################################################################
#
#                 Cambridge Crystallographic Data Centre
#                                CCDC 
#
#######################################################################
#
# If this CIF has been generated from an entry in the Cambridge 
# Structural Database, then it will include bibliographic, chemical, 
# crystal, experimental, refinement or atomic coordinate data resulting 
# from the CCDC's data processing and validation procedures.
#
#######################################################################

data_FUTZOK
_symmetry_cell_setting           monoclinic
_symmetry_space_group_name_H-M   'C 2/c'
_symmetry_Int_Tables_number      15
_space_group_name_Hall           '-C 2yn'
loop_
_symmetry_equiv_pos_site_id
_symmetry_equiv_pos_as_xyz
1 x,y,z
2 -x,y,1/2-z
3 1/2+x,1/2+y,z
4 1/2-x,1/2+y,1/2-z
5 -x,-y,-z
6 x,-y,1/2+z
7 1/2-x,1/2-y,-z
8 1/2+x,1/2-y,1/2+z
_cell_length_a                   12.767(4)
_cell_length_b                   16.867(5)
_cell_length_c                   19.354(5)
_cell_angle_alpha                90
_cell_angle_beta                 130.276(14)
_cell_angle_gamma                90
_cell_volume                     3179.71
loop_
_atom_site_label
_atom_site_type_symbol
_atom_site_fract_x
_atom_site_fract_y
_atom_site_fract_z
Gd1 Gd 0.06646(2) 0.448690(12) -0.057460(14)
O1 O 0.4070(4) 0.0774(2) 0.2801(2)
O2 O 0.4335(4) 0.1771(2) 0.3615(2)
O3 O 0.0958(4) 0.3658(2) 0.0542(2)
O4 O 0.0117(4) 0.4211(2) 0.1151(2)
O5 O 0.2891(3) 0.5112(2) 0.0640(2)
O6 O 0.1361(3) 0.5331(2) 0.0790(2)
O7 O 0.1766(4) 0.4785(3) -0.1200(3)
O8 O 0.2370(4) 0.3421(2) -0.0042(3)
N1 N 0.5000 0.2767(3) 0.2500
N2 N 0.3903(4) 0.4000(2) 0.2312(3)
N3 N 0.2874(4) 0.2792(2) 0.2096(3)
N4 N 0.5000 0.5156(3) 0.2500
C1 C 0.3965(4) 0.3201(3) 0.2307(3)
C2 C 0.5000 0.4358(4) 0.2500
C3 C 0.2829(4) 0.1945(3) 0.1991(3)
H1 H 0.3024 0.1821 0.1594
H2 H 0.1904 0.1763 0.1695
C4 C 0.3817(5) 0.1489(3) 0.2862(3)
C5 C 0.1800(5) 0.3213(3) 0.2000(3)
H3 H 0.2219 0.3545 0.2529
H4 H 0.1225 0.2829 0.1990
C6 C 0.0886(5) 0.3732(3) 0.1154(3)
C7 C 0.3730(5) 0.5573(3) 0.2100(3)
H5 H 0.3882 0.6139 0.2125
H6 H 0.3440 0.5462 0.2446
C8 C 0.2600(4) 0.5321(3) 0.1116(3)
Gd1F Gd 0.43354(2) 0.051310(12) 0.057460(14)
Gd1G Gd 0.56646(2) 0.051310(12) 0.442540(14)
Gd1D Gd -0.06646(2) 0.551310(12) 0.057460(14)
Gd1A Gd 0.93354(2) 0.448690(12) 0.557460(14)
Gd1E Gd 1.06646(2) 0.551310(12) 0.442540(14)
O1A O 0.5930(4) 0.0774(2) 0.2199(2)
O1G O -0.0930(4) 0.4226(2) -0.2199(2)
O1F O 1.0930(4) 0.4226(2) 0.7199(2)
O2A O 0.5665(4) 0.1771(2) 0.1385(2)
O2G O -0.0665(4) 0.3229(2) -0.1385(2)
O2F O 1.0665(4) 0.3229(2) 0.6385(2)
O3A O 0.9042(4) 0.3658(2) 0.4458(2)
O4A O 0.9883(4) 0.4211(2) 0.3849(2)
O4D O -0.0117(4) 0.5789(2) -0.1151(2)
O4E O 1.0117(4) 0.5789(2) 0.6151(2)
O5A O 0.7109(3) 0.5112(2) 0.4360(2)
O6A O 0.8639(3) 0.5331(2) 0.4210(2)
O6D O -0.1361(3) 0.4669(2) -0.0790(2)
O6E O 1.1361(3) 0.4669(2) 0.5790(2)
O7A O 0.8234(4) 0.4785(3) 0.6200(3)
O8A O 0.7630(4) 0.3421(2) 0.5042(3)
N2A N 0.6097(4) 0.4000(2) 0.2688(3)
N3A N 0.7126(4) 0.2792(2) 0.2904(3)
C1A C 0.6035(4) 0.3201(3) 0.2693(3)
C3A C 0.7171(4) 0.1945(3) 0.3009(3)
H1A H 0.6976 0.1821 0.3406
H2A H 0.8096 0.1763 0.3305
C4A C 0.6183(5) 0.1489(3) 0.2138(3)
C5A C 0.8200(5) 0.3213(3) 0.3000(3)
H3A H 0.7781 0.3545 0.2471
H4A H 0.8775 0.2829 0.3010
C6A C 0.9114(5) 0.3732(3) 0.3846(3)
C7A C 0.6270(5) 0.5573(3) 0.2900(3)
H5A H 0.6118 0.6139 0.2875
H6A H 0.6560 0.5462 0.2554
C8A C 0.7400(4) 0.5321(3) 0.3884(3)
O9 O 0.4215(13) 0.4787(7) 0.4110(8)
O10 O 0.1738(8) 0.2518(5) 0.3749(5)
O11 O 0.0785(7) 0.1607(5) 0.4435(4)
O12 O 0.4941(5) 0.3209(3) 0.0507(4)
O13 O 0.0000 0.3709(5) 0.2500
loop_
_geom_bond_atom_site_label_1
_geom_bond_atom_site_label_2
_geom_bond_site_symmetry_1
_geom_bond_site_symmetry_2
Gd1 O3 1_555 1_555
O1 C4 1_555 1_555
O2 C4 1_555 1_555
O3 C6 1_555 1_555
O4 C6 1_555 1_555
O5 Gd1 1_555 1_555
O6 Gd1 1_555 1_555
O7 Gd1 1_555 1_555
O8 Gd1 1_555 1_555
N1 C1 1_555 1_555
N2 C1 1_555 1_555
N3 C1 1_555 1_555
N4 C2 1_555 1_555
C2 N2 1_555 1_555
C3 N3 1_555 1_555
H1 C3 1_555 1_555
H2 C3 1_555 1_555
C4 C3 1_555 1_555
C5 N3 1_555 1_555
H3 C5 1_555 1_555
H4 C5 1_555 1_555
C6 C5 1_555 1_555
C7 N4 1_555 1_555
H5 C7 1_555 1_555
H6 C7 1_555 1_555
C8 O5 1_555 1_555
Gd1F O1A 1_555 1_555
Gd1G O1 1_555 1_555
Gd1D O4 1_555 1_555
Gd1A O1F 1_555 1_555
Gd1E O4A 1_555 1_555
O1A C4A 1_555 1_555
O1G Gd1 1_555 1_555
O2A Gd1F 1_555 1_555
O2G Gd1 1_555 1_555
O2F Gd1A 1_555 1_555
O3A Gd1A 1_555 1_555
O4A C6A 1_555 1_555
O4D Gd1 1_555 1_555
O4E Gd1A 1_555 1_555
O5A Gd1A 1_555 1_555
O6A Gd1A 1_555 1_555
O6D Gd1 1_555 1_555
O6E Gd1A 1_555 1_555
O7A Gd1A 1_555 1_555
O8A Gd1A 1_555 1_555
N2A C2 1_555 1_555
N3A C1A 1_555 1_555
C1A N1 1_555 1_555
C3A N3A 1_555 1_555
H1A C3A 1_555 1_555
H2A C3A 1_555 1_555
C4A O2A 1_555 1_555
C5A N3A 1_555 1_555
H3A C5A 1_555 1_555
H4A C5A 1_555 1_555
C6A O3A 1_555 1_555
C7A N4 1_555 1_555
H5A C7A 1_555 1_555
H6A C7A 1_555 1_555
C8A O5A 1_555 1_555
O2 Gd1G 1_555 1_555
O6 C8 1_555 1_555
O6 Gd1D 1_555 1_555
C7 C8 1_555 1_555
Gd1D O6D 1_555 1_555
Gd1E O6A 1_555 1_555
Gd1E O6E 1_555 1_555
O6A C8A 1_555 1_555
N2A C1A 1_555 1_555
C3A C4A 1_555 1_555
C5A C6A 1_555 1_555
C7A C8A 1_555 1_555

#END
