
#######################################################################
#
#                 Cambridge Crystallographic Data Centre
#                                CCDC 
#
#######################################################################
#
# If this CIF has been generated from an entry in the Cambridge 
# Structural Database, then it will include bibliographic, chemical, 
# crystal, experimental, refinement or atomic coordinate data resulting 
# from the CCDC's data processing and validation procedures.
#
#######################################################################

data_FUVCII
_symmetry_cell_setting           monoclinic
_symmetry_space_group_name_H-M   'P 21/c'
_symmetry_Int_Tables_number      14
_space_group_name_Hall           '-P 2ybc'
loop_
_symmetry_equiv_pos_site_id
_symmetry_equiv_pos_as_xyz
1 x,y,z
2 -x,1/2+y,1/2-z
3 -x,-y,-z
4 x,1/2-y,1/2+z
_cell_length_a                   7.239(2)
_cell_length_b                   33.173(6)
_cell_length_c                   6.534(1)
_cell_angle_alpha                90
_cell_angle_beta                 92.27(2)
_cell_angle_gamma                90
_cell_volume                     1567.84
loop_
_atom_site_label
_atom_site_type_symbol
_atom_site_fract_x
_atom_site_fract_y
_atom_site_fract_z
Ca1 Ca 0.24971(5) 0.27322(1) 0.71711(5)
O1 O 0.5653(2) 0.29627(6) 0.7160(2)
O2 O -0.0036(2) 0.25150(4) 0.9736(2)
O3 O 0.0506(2) 0.33076(4) 0.7234(2)
O4 O 0.3370(2) 0.20761(4) 0.5514(2)
O5 O 0.3014(2) 0.20530(4) 0.8814(2)
F1 F 0.3564(3) 0.01937(4) 0.6927(3)
C1 C 0.3350(3) 0.14264(6) 0.7088(3)
C2 C 0.3011(3) 0.12035(6) 0.8825(3)
C3 C 0.3073(4) 0.07839(7) 0.8775(4)
C4 C 0.3485(4) 0.06019(6) 0.6983(4)
C5 C 0.3826(4) 0.08100(7) 0.5220(4)
C6 C 0.3747(3) 0.12278(6) 0.5274(3)
C7 C 0.3243(3) 0.18764(6) 0.7141(3)
H1 H 0.269 0.136 1.023
H2 H 0.279 0.061 1.012
H3 H 0.413 0.065 0.383
H4 H 0.400 0.140 0.391
H9 H 0.631 0.303 0.596
H10 H 0.635 0.304 0.838
H11 H -0.082 0.229 0.937
H12 H -0.081 0.274 1.007
H13 H -0.034 0.334 0.608
H14 H -0.017 0.333 0.846
O2C O -0.0036(2) 0.24850(4) 0.4736(2)
O4C O 0.3370(2) 0.29239(4) 1.0514(2)
O5C O 0.3014(2) 0.29470(4) 0.3814(2)
Ca1C Ca 0.24971(5) 0.22678(1) 1.21711(5)
Ca1C_2 Ca 0.24971(5) 0.22678(1) 0.21711(5)
H11C H -0.082 0.271 0.437
H12C H -0.081 0.226 0.507
C7C C 0.3243(3) 0.31236(6) 1.2141(3)
O1C O 0.5653(2) 0.20373(6) 1.2160(2)
O2C_2 O -0.0036(2) 0.24850(4) 1.4736(2)
O3C O 0.0506(2) 0.16924(4) 1.2234(2)
O4_2 O 0.3370(2) 0.20761(4) 1.5514(2)
O5C_2 O 0.3014(2) 0.29470(4) 1.3814(2)
C1C C 0.3350(3) 0.35736(6) 1.2088(3)
H9C H 0.631 0.197 1.096
H10C H 0.635 0.196 1.338
H13C H -0.034 0.166 1.108
H14C H -0.017 0.167 1.346
C2C C 0.3011(3) 0.37965(6) 1.3825(3)
C6C C 0.3747(3) 0.37722(6) 1.0274(3)
C3C C 0.3073(4) 0.42161(7) 1.3775(4)
H1C H 0.269 0.364 1.523
C5C C 0.3826(4) 0.41900(7) 1.0220(4)
H4C H 0.400 0.360 0.891
C4C C 0.3485(4) 0.43981(6) 1.1983(4)
H2C H 0.279 0.439 1.512
H3C H 0.413 0.435 0.883
F1C F 0.3564(3) 0.48063(4) 1.1927(3)
Ca1_2 Ca 0.24971(5) 0.27322(1) 1.71711(5)
H11C_2 H -0.082 0.271 1.437
H12C_2 H -0.081 0.226 1.507
O6 O 0.8282(2) 0.17725(4) 0.5543(2)
O7 O 0.8064(2) 0.18154(4) 0.8912(2)
F2 F 0.8450(3) -0.00717(4) 0.7899(3)
C8 C 0.8223(3) 0.11616(6) 0.7436(3)
C9 C 0.7838(3) 0.09730(7) 0.9274(4)
C10 C 0.7906(4) 0.05564(7) 0.9441(4)
C11 C 0.8364(4) 0.03382(7) 0.7755(4)
C12 C 0.8755(4) 0.05095(7) 0.5910(4)
C13 C 0.8672(3) 0.09285(6) 0.5770(3)
C14 C 0.8172(3) 0.16154(6) 0.7284(3)
H5 H 0.750 0.115 1.059
H6 H 0.760 0.041 1.086
H7 H 0.910 0.032 0.462
H8 H 0.897 0.107 0.434
loop_
_geom_bond_atom_site_label_1
_geom_bond_atom_site_label_2
_geom_bond_site_symmetry_1
_geom_bond_site_symmetry_2
Ca1 O1 1_555 1_555
O1 H9 1_555 1_555
O2 Ca1 1_555 1_555
O3 Ca1 1_555 1_555
O4 Ca1 1_555 1_555
O5 Ca1 1_555 1_555
O6 C14 1_555 1_555
O7 C14 1_555 1_555
F1 C4 1_555 1_555
F2 C11 1_555 1_555
C1 C2 1_555 1_555
C2 C3 1_555 1_555
C3 C4 1_555 1_555
C4 C5 1_555 1_555
C5 C6 1_555 1_555
C6 C1 1_555 1_555
C7 O4 1_555 1_555
C8 C9 1_555 1_555
C9 C10 1_555 1_555
C10 C11 1_555 1_555
C11 C12 1_555 1_555
C12 C13 1_555 1_555
C13 C8 1_555 1_555
C14 C8 1_555 1_555
H1 C2 1_555 1_555
H2 C3 1_555 1_555
H3 C5 1_555 1_555
H4 C6 1_555 1_555
H5 C9 1_555 1_555
H6 C10 1_555 1_555
H7 C12 1_555 1_555
H8 C13 1_555 1_555
H10 O1 1_555 1_555
H11 O2 1_555 1_555
H12 O2 1_555 1_555
H13 O3 1_555 1_555
H14 O3 1_555 1_555
O2C Ca1 1_555 1_555
O4C Ca1 1_555 1_555
O5C Ca1 1_555 1_555
Ca1C O2 1_555 1_555
Ca1C_2 O4 1_555 1_555
H11C O2C 1_555 1_555
H12C O2C 1_555 1_555
C7C O4C 1_555 1_555
O1C Ca1C 1_555 1_555
O2C_2 Ca1C 1_555 1_555
O3C Ca1C 1_555 1_555
O4_2 Ca1C 1_555 1_555
O5C_2 Ca1C 1_555 1_555
C1C C7C 1_555 1_555
H9C O1C 1_555 1_555
H10C O1C 1_555 1_555
H13C O3C 1_555 1_555
H14C O3C 1_555 1_555
C2C C1C 1_555 1_555
C6C C1C 1_555 1_555
C3C C2C 1_555 1_555
H1C C2C 1_555 1_555
C5C C6C 1_555 1_555
H4C C6C 1_555 1_555
C4C C3C 1_555 1_555
H2C C3C 1_555 1_555
H3C C5C 1_555 1_555
F1C C4C 1_555 1_555
Ca1_2 O2C_2 1_555 1_555
H11C_2 O2C_2 1_555 1_555
H12C_2 O2C_2 1_555 1_555
O5 Ca1C 1_555 1_555
O5 C7 1_555 1_555
C1 C7 1_555 1_555
O2C Ca1C_2 1_555 1_555
O4C Ca1C 1_555 1_555
O5C Ca1C_2 1_555 1_555
C7C O5C_2 1_555 1_555
O4_2 Ca1_2 1_555 1_555
O5C_2 Ca1_2 1_555 1_555
C5C C4C 1_555 1_555

#END
