
#######################################################################
#
#                 Cambridge Crystallographic Data Centre
#                                CCDC 
#
#######################################################################
#
# If this CIF has been generated from an entry in the Cambridge 
# Structural Database, then it will include bibliographic, chemical, 
# crystal, experimental, refinement or atomic coordinate data resulting 
# from the CCDC's data processing and validation procedures.
#
#######################################################################

data_FUVTOG
_symmetry_cell_setting           monoclinic
_symmetry_space_group_name_H-M   'P 21/c'
_symmetry_Int_Tables_number      14
_space_group_name_Hall           '-P 2ybc'
loop_
_symmetry_equiv_pos_site_id
_symmetry_equiv_pos_as_xyz
1 x,y,z
2 -x,1/2+y,1/2-z
3 -x,-y,-z
4 x,1/2-y,1/2+z
_cell_length_a                   12.526(9)
_cell_length_b                   8.469(6)
_cell_length_c                   16.440(12)
_cell_angle_alpha                90
_cell_angle_beta                 93.068(11)
_cell_angle_gamma                90
_cell_volume                     1741.5
loop_
_atom_site_label
_atom_site_type_symbol
_atom_site_fract_x
_atom_site_fract_y
_atom_site_fract_z
C1 C 0.4683(5) 1.2060(9) 0.8173(5)
C2 C 0.4593(9) 0.3048(13) 0.5585(7)
H1 H 0.4541 0.2187 0.5961
H2 H 0.5314 0.3436 0.5605
H3 H 0.4397 0.2690 0.5044
C3 C 0.2369(9) 0.2542(8) 0.5573(5)
H4 H 0.2790 0.1715 0.5400
C4 C 0.2830(7) 0.3992(8) 0.5820(4)
C5 C 0.1273(10) 0.2385(9) 0.5595(5)
H5 H 0.0954 0.1434 0.5438
C6 C 0.0642(7) 0.3611(8) 0.5846(4)
C7 C 0.1184(5) 0.5012(7) 0.6081(3)
C8 C 0.0571(4) 0.6334(7) 0.6337(3)
C9 C -0.0504(7) 0.3551(11) 0.5878(5)
H6 H -0.0859 0.2622 0.5731
C10 C -0.1073(7) 0.4789(11) 0.6112(5)
H7 H -0.1812 0.4700 0.6122
C11 C -0.0576(5) 0.6238(9) 0.6346(4)
C12 C -0.1107(5) 0.7571(10) 0.6598(4)
H8 H -0.1848 0.7552 0.6619
C13 C -0.0565(5) 0.8895(10) 0.6813(4)
H9 H -0.0927 0.9790 0.6976
C14 C 0.0547(4) 0.8904(7) 0.6787(3)
H10 H 0.0916 0.9821 0.6937
C15 C 0.3352(5) 1.0669(9) 0.7499(5)
C16 C 0.2987(5) 0.8891(7) 0.4747(3)
C17 C 0.3007(5) 0.8990(7) 0.3372(3)
Co1 Co 0.28179(5) 0.74918(8) 0.65535(4)
N1 N 0.2257(4) 0.5199(5) 0.6068(3)
N2 N 0.1102(3) 0.7659(5) 0.6557(3)
N3 N 0.5523(4) 1.2333(7) 0.8381(4)
N4 N 0.2818(4) 0.8411(6) 0.5371(3)
N5 N 0.2971(4) 0.9765(8) 0.7092(4)
N6 N 0.3231(4) 0.9611(6) 0.4085(3)
N7 N 0.3673(4) 1.1776(8) 0.8000(4)
N8 N 0.2834(4) 0.8562(6) 0.2718(3)
O1 O 0.3876(5) 0.4310(6) 0.5807(3)
Co1A Co 0.71821(5) 1.24918(8) 0.84465(4)
Co1C Co 0.28179(5) 0.75082(8) 0.15535(4)
N3A N 0.4477(4) 0.7333(7) 0.6619(4)
N8C N 0.2834(4) 0.6438(6) 0.7718(3)
loop_
_geom_bond_atom_site_label_1
_geom_bond_atom_site_label_2
_geom_bond_site_symmetry_1
_geom_bond_site_symmetry_2
C1 N3 1_555 1_555
C2 H1 1_555 1_555
H2 C2 1_555 1_555
H3 C2 1_555 1_555
C3 H4 1_555 1_555
C4 C3 1_555 1_555
C5 C3 1_555 1_555
H5 C5 1_555 1_555
C6 C5 1_555 1_555
C7 C6 1_555 1_555
C8 C7 1_555 1_555
C9 C6 1_555 1_555
H6 C9 1_555 1_555
C10 C9 1_555 1_555
H7 C10 1_555 1_555
C11 C8 1_555 1_555
C12 C11 1_555 1_555
H8 C12 1_555 1_555
C13 C12 1_555 1_555
H9 C13 1_555 1_555
C14 C13 1_555 1_555
H10 C14 1_555 1_555
C15 N5 1_555 1_555
C16 N4 1_555 1_555
C17 N6 1_555 1_555
Co1 N1 1_555 1_555
N1 C4 1_555 1_555
N2 C8 1_555 1_555
N3 Co1A 1_555 1_555
N4 Co1 1_555 1_555
N5 Co1 1_555 1_555
N6 C16 1_555 1_555
N7 C1 1_555 1_555
N8 C17 1_555 1_555
O1 C2 1_555 1_555
Co1C N8 1_555 1_555
N3A Co1 1_555 1_555
N8C Co1 1_555 1_555
C4 O1 1_555 1_555
C7 N1 1_555 1_555
C10 C11 1_555 1_555
C14 N2 1_555 1_555
C15 N7 1_555 1_555
Co1 N2 1_555 1_555

#END
