
#######################################################################
#
#                 Cambridge Crystallographic Data Centre
#                                CCDC 
#
#######################################################################
#
# If this CIF has been generated from an entry in the Cambridge 
# Structural Database, then it will include bibliographic, chemical, 
# crystal, experimental, refinement or atomic coordinate data resulting 
# from the CCDC's data processing and validation procedures.
#
#######################################################################

data_FUVYEB
_symmetry_cell_setting           triclinic
_symmetry_space_group_name_H-M   'P -1'
_symmetry_Int_Tables_number      2
_space_group_name_Hall           '-P 1'
loop_
_symmetry_equiv_pos_site_id
_symmetry_equiv_pos_as_xyz
1 x,y,z
2 -x,-y,-z
_cell_length_a                   8.5511(17)
_cell_length_b                   8.7201(17)
_cell_length_c                   11.173(2)
_cell_angle_alpha                98.15(3)
_cell_angle_beta                 90.95(3)
_cell_angle_gamma                95.45(3)
_cell_volume                     820.607
loop_
_atom_site_label
_atom_site_type_symbol
_atom_site_fract_x
_atom_site_fract_y
_atom_site_fract_z
Ag1 Ag 0.79643(6) 0.53984(6) 0.61464(5)
Ag2 Ag 0.48984(7) 0.67696(7) 0.90334(5)
C1 C 0.6304(7) 0.2189(7) 0.7231(6)
C2 C 0.6802(9) 0.1012(8) 0.6265(6)
C3 C 0.6165(8) -0.0536(8) 0.6220(5)
H1 H 0.5460 -0.0800 0.6800
C4 C 0.6577(8) -0.1691(8) 0.5311(6)
C5 C 0.7580(10) -0.1281(9) 0.4415(6)
H2 H 0.7832 -0.2032 0.3790
C6 C 0.8202(11) 0.0254(10) 0.4462(7)
H3 H 0.8870 0.0524 0.3861
C7 C 0.7845(10) 0.1415(9) 0.5400(7)
H4 H 0.8300 0.2433 0.5437
C8 C 1.1167(8) 0.6594(8) 0.7859(6)
C9 C 1.0318(8) 0.7214(8) 0.8942(6)
C10 C 0.8973(8) 0.7971(8) 0.8792(6)
H5 H 0.8662 0.8147 0.8026
C11 C 0.8107(7) 0.8455(7) 0.9780(6)
C12 C 0.8612(9) 0.8214(10) 1.0930(6)
H6 H 0.8041 0.8551 1.1601
C13 C 0.9954(10) 0.7478(11) 1.1080(7)
H7 H 1.0285 0.7332 1.1849
C14 C 1.0802(9) 0.6960(10) 1.0085(6)
H8 H 1.1690 0.6445 1.0180
N1 N 0.6498(7) 0.3742(6) 0.7249(5)
N2 N 0.5906(7) 0.4347(7) 0.8298(5)
N3 N 0.5371(7) 0.3195(7) 0.8876(5)
N4 N 0.5600(8) 0.1814(7) 0.8231(5)
N5 N 0.6003(7) -0.3262(6) 0.5307(5)
H9 H 0.5750 -0.3713 0.4545
H10 H 0.5131 -0.3316 0.5746
N6 N 1.0489(7) 0.6020(7) 0.6783(5)
N7 N 1.1643(7) 0.5545(7) 0.6065(5)
N8 N 1.2979(7) 0.5829(8) 0.6675(5)
N9 N 1.2719(7) 0.6486(8) 0.7821(5)
N10 N 0.6663(7) 0.9088(7) 0.9602(5)
H11 H 0.6725 0.9689 0.9010
H12 H 0.6368 0.9648 1.0286
Ag1_2 Ag 0.79643(6) -0.46016(6) 0.61464(5)
Ag1A Ag 1.20357(6) 0.46016(6) 0.38536(5)
Ag2A Ag 0.51016(7) 0.32304(7) 1.09666(5)
Ag2_2 Ag 1.48984(7) 0.67696(7) 0.90334(5)
N3A N 0.4629(7) 0.6805(7) 1.1124(5)
N5_2 N 0.6003(7) 0.6738(6) 0.5307(5)
H9_2 H 0.5750 0.6287 0.4545
H10_2 H 0.5131 0.6684 0.5746
N7A N 0.8357(7) 0.4455(7) 0.3935(5)
N9_2 N 0.2719(7) 0.6486(8) 0.7821(5)
loop_
_geom_bond_atom_site_label_1
_geom_bond_atom_site_label_2
_geom_bond_site_symmetry_1
_geom_bond_site_symmetry_2
Ag1 N1 1_555 1_555
Ag2 N2 1_555 1_555
C1 C2 1_555 1_555
C2 C3 1_555 1_555
C3 H1 1_555 1_555
C4 C3 1_555 1_555
C5 C4 1_555 1_555
H2 C5 1_555 1_555
C6 C5 1_555 1_555
H3 C6 1_555 1_555
C7 C2 1_555 1_555
H4 C7 1_555 1_555
C8 C9 1_555 1_555
C9 C10 1_555 1_555
C10 H5 1_555 1_555
C11 C10 1_555 1_555
C12 C11 1_555 1_555
H6 C12 1_555 1_555
C13 C12 1_555 1_555
H7 C13 1_555 1_555
C14 C9 1_555 1_555
H8 C14 1_555 1_555
N1 C1 1_555 1_555
N2 N1 1_555 1_555
N3 N2 1_555 1_555
N4 C1 1_555 1_555
N5 C4 1_555 1_555
H9 N5 1_555 1_555
H10 N5 1_555 1_555
N6 Ag1 1_555 1_555
N7 N6 1_555 1_555
N8 N7 1_555 1_555
N9 C8 1_555 1_555
N10 Ag2 1_555 1_555
H11 N10 1_555 1_555
H12 N10 1_555 1_555
Ag1_2 N5 1_555 1_555
Ag1A N7 1_555 1_555
Ag2A N3 1_555 1_555
Ag2_2 N9 1_555 1_555
N3A Ag2 1_555 1_555
N5_2 Ag1 1_555 1_555
H9_2 N5_2 1_555 1_555
H10_2 N5_2 1_555 1_555
N7A Ag1 1_555 1_555
N9_2 Ag2 1_555 1_555
C6 C7 1_555 1_555
C8 N6 1_555 1_555
C11 N10 1_555 1_555
C13 C14 1_555 1_555
N3 N4 1_555 1_555
N8 N9 1_555 1_555

#END
