
#######################################################################
#
#                 Cambridge Crystallographic Data Centre
#                                CCDC 
#
#######################################################################
#
# If this CIF has been generated from an entry in the Cambridge 
# Structural Database, then it will include bibliographic, chemical, 
# crystal, experimental, refinement or atomic coordinate data resulting 
# from the CCDC's data processing and validation procedures.
#
#######################################################################

data_FUVYUR
_symmetry_cell_setting           triclinic
_symmetry_space_group_name_H-M   'P -1'
_symmetry_Int_Tables_number      2
_space_group_name_Hall           '-P 1'
loop_
_symmetry_equiv_pos_site_id
_symmetry_equiv_pos_as_xyz
1 x,y,z
2 -x,-y,-z
_cell_length_a                   9.3791(19)
_cell_length_b                   11.448(2)
_cell_length_c                   11.629(2)
_cell_angle_alpha                102.60(3)
_cell_angle_beta                 104.76(3)
_cell_angle_gamma                104.85(3)
_cell_volume                     1112.14
loop_
_atom_site_label
_atom_site_type_symbol
_atom_site_fract_x
_atom_site_fract_y
_atom_site_fract_z
Cu1 Cu 0.53848(12) 0.79434(10) 0.85567(13)
Cu2 Cu 0.66674(12) 1.08747(10) 1.10525(12)
Br1 Br 0.60572(9) 1.02502(8) 0.87554(9)
Br2 Br 0.26127(11) 0.68262(9) 0.79505(14)
S1 S 0.6943(2) 0.75043(18) 0.7136(2)
N1 N 0.6828(8) 0.7239(6) 0.9641(7)
N2 N 1.1864(7) 0.9850(6) 0.7968(7)
O1 O 0.4180(6) 0.1098(5) 0.5314(6)
O2 O 0.6615(7) 0.1372(6) 0.5376(7)
C1 C 0.5507(9) 0.1799(7) 0.5520(8)
C2 C 0.5894(9) 0.3215(7) 0.5961(8)
C3 C 0.4755(9) 0.3730(7) 0.6134(8)
H1 H 0.3758 0.3195 0.6000
C4 C 0.5075(9) 0.5029(7) 0.6505(8)
H2 H 0.4295 0.5367 0.6600
C5 C 0.6562(9) 0.5816(7) 0.6730(8)
C6 C 0.7733(10) 0.5316(8) 0.6620(11)
H3 H 0.8748 0.5856 0.6824
C7 C 0.7404(10) 0.4025(9) 0.6212(12)
H4 H 0.8184 0.3693 0.6103
C8 C 0.8224(10) 0.7327(8) 0.9475(8)
C9 C 0.9256(12) 0.6804(9) 1.0099(10)
H5 H 1.0207 0.6881 0.9965
C10 C 0.8849(15) 0.6168(11) 1.0922(11)
H6 H 0.9523 0.5821 1.1355
C11 C 0.7414(16) 0.6069(11) 1.1074(11)
H7 H 0.7094 0.5619 1.1591
C12 C 0.6454(14) 0.6633(9) 1.0466(10)
H8 H 0.5522 0.6599 1.0622
C13 C 0.8552(8) 0.7975(7) 0.8542(8)
C14 C 1.0359(9) 0.9619(7) 0.7974(8)
C15 C 0.9370(10) 1.0142(8) 0.7297(10)
H9 H 0.8371 1.0023 0.7346
C16 C 0.9866(11) 1.0826(10) 0.6566(11)
H10 H 0.9217 1.1182 0.6119
C17 C 1.1358(11) 1.0981(9) 0.6501(11)
H11 H 1.1704 1.1409 0.5977
C18 C 1.2316(10) 1.0498(8) 0.7215(10)
H12 H 1.3320 1.0623 0.7177
C19 C 0.9926(9) 0.8870(7) 0.8782(8)
H13 H 1.0685 0.9032 0.9544
Cu2A Cu 0.33326(12) 0.91253(10) 0.89475(12)
Cu2A_2 Cu 1.33326(12) 0.91253(10) 0.89475(12)
Br1A Br 0.39428(9) 0.97498(8) 1.12446(9)
Br2A Br 0.73873(11) 1.31738(9) 1.20495(14)
N2A N 0.8136(7) 1.0150(6) 1.2032(7)
loop_
_geom_bond_atom_site_label_1
_geom_bond_atom_site_label_2
_geom_bond_site_symmetry_1
_geom_bond_site_symmetry_2
Cu1 Br1 1_555 1_555
Cu2 Br1 1_555 1_555
Br1 Cu2A 1_555 1_555
Br2 Cu1 1_555 1_555
S1 Cu1 1_555 1_555
N1 Cu1 1_555 1_555
N2 C14 1_555 1_555
O1 C1 1_555 1_555
O2 C1 1_555 1_555
C1 C2 1_555 1_555
C2 C3 1_555 1_555
C3 H1 1_555 1_555
C4 C3 1_555 1_555
H2 C4 1_555 1_555
C5 S1 1_555 1_555
C6 C5 1_555 1_555
H3 C6 1_555 1_555
C7 C2 1_555 1_555
H4 C7 1_555 1_555
C8 N1 1_555 1_555
C9 C8 1_555 1_555
H5 C9 1_555 1_555
C10 C9 1_555 1_555
H6 C10 1_555 1_555
C11 C10 1_555 1_555
H7 C11 1_555 1_555
C12 N1 1_555 1_555
H8 C12 1_555 1_555
C13 S1 1_555 1_555
C14 C15 1_555 1_555
C15 H9 1_555 1_555
C16 C15 1_555 1_555
H10 C16 1_555 1_555
C17 C16 1_555 1_555
H11 C17 1_555 1_555
C18 N2 1_555 1_555
H12 C18 1_555 1_555
C19 C13 1_555 1_555
H13 C19 1_555 1_555
Cu2A Br2 1_555 1_555
Cu2A_2 N2 1_555 1_555
Br1A Cu2 1_555 1_555
Br2A Cu2 1_555 1_555
N2A Cu2 1_555 1_555
C4 C5 1_555 1_555
C6 C7 1_555 1_555
C8 C13 1_555 1_555
C11 C12 1_555 1_555
C14 C19 1_555 1_555
C17 C18 1_555 1_555
Cu2A Br1A 1_555 1_555

#END
