
#######################################################################
#
#                 Cambridge Crystallographic Data Centre
#                                CCDC 
#
#######################################################################
#
# If this CIF has been generated from an entry in the Cambridge 
# Structural Database, then it will include bibliographic, chemical, 
# crystal, experimental, refinement or atomic coordinate data resulting 
# from the CCDC's data processing and validation procedures.
#
#######################################################################

data_FUVZIH
_symmetry_cell_setting           triclinic
_symmetry_space_group_name_H-M   'P -1'
_symmetry_Int_Tables_number      2
_space_group_name_Hall           '-P 1'
loop_
_symmetry_equiv_pos_site_id
_symmetry_equiv_pos_as_xyz
1 x,y,z
2 -x,-y,-z
_cell_length_a                   10.373(3)
_cell_length_b                   12.222(3)
_cell_length_c                   15.224(4)
_cell_angle_alpha                74.674(3)
_cell_angle_beta                 75.221(3)
_cell_angle_gamma                71.348(3)
_cell_volume                     1732.68
loop_
_atom_site_label
_atom_site_type_symbol
_atom_site_fract_x
_atom_site_fract_y
_atom_site_fract_z
Cd1 Cd 0.0000 1.0000 0.0000
Cd2 Cd 0.99866(4) 0.24436(3) 0.12217(3)
O1 O -0.0724(6) 0.9923(7) 0.1505(4)
O2 O -0.0679(6) 1.1108(6) 0.2387(4)
O3 O 1.0342(6) 0.3580(5) 0.2073(4)
O4 O 1.2103(5) 0.2155(5) 0.1727(3)
O5 O 1.1358(5) 0.1211(4) 0.0020(4)
O6 O 1.1024(4) 0.3085(4) -0.0277(3)
N1 N 0.7933(5) 0.3789(4) 0.0970(3)
N2 N 0.1896(5) 0.8441(4) 0.0261(3)
C1 C 0.6795(6) 0.5601(5) 0.0100(4)
H1 H 0.6856 0.6195 -0.0424
C2 C 0.7938(6) 0.4674(5) 0.0256(4)
H2 H 0.8763 0.4672 -0.0168
C3 C 0.6743(6) 0.3828(5) 0.1582(4)
H3 H 0.6714 0.3222 0.2100
C4 C 0.5565(6) 0.4731(5) 0.1470(4)
H4 H 0.4757 0.4722 0.1909
C5 C 0.5565(5) 0.5652(4) 0.0716(4)
C6 C 0.4306(5) 0.6635(4) 0.0567(4)
C7 C 0.3101(6) 0.6747(5) 0.1220(4)
H5 H 0.3072 0.6210 0.1781
C8 C 0.1934(6) 0.7653(5) 0.1047(4)
H6 H 0.1140 0.7711 0.1504
C9 C 0.3054(6) 0.8344(5) -0.0365(4)
H7 H 0.3051 0.8890 -0.0922
C10 C 0.4254(6) 0.7485(5) -0.0239(4)
H8 H 0.5043 0.7472 -0.0698
C11 C -0.0675(7) 1.0145(8) 0.2266(5)
C12 C -0.0687(6) 0.9145(6) 0.3055(4)
C13 C 0.0080(6) 0.8936(5) 0.3762(4)
C14 C 0.0982(6) 0.9581(6) 0.3762(4)
H9 H 0.1089 1.0213 0.3278
C15 C 0.1715(7) 0.9289(7) 0.4474(5)
H10 H 0.2318 0.9718 0.4462
C16 C 0.1545(9) 0.8343(9) 0.5212(5)
H11 H 0.2013 0.8168 0.5700
C17 C 0.0724(9) 0.7694(8) 0.5224(5)
H12 H 0.0640 0.7059 0.5711
C18 C -0.0014(7) 0.7962(6) 0.4506(5)
C19 C -0.0874(11) 0.7274(8) 0.4548(7)
H13 H -0.0951 0.6656 0.5051
C20 C -0.1588(12) 0.7480(9) 0.3885(8)
H14 H -0.2148 0.7003 0.3923
C21 C -0.1500(8) 0.8413(8) 0.3130(6)
H15 H -0.2000 0.8543 0.2668
C22 C 1.1493(8) 0.2997(7) 0.2146(4)
C23 C 1.2224(7) 0.3358(7) 0.2760(5)
C24 C 1.3349(8) 0.2596(7) 0.3118(5)
C25 C 1.4012(7) 0.1425(7) 0.2943(5)
H16 H 1.3721 0.1130 0.2546
C26 C 1.5076(10) 0.0772(10) 0.3380(7)
H17 H 1.5475 0.0008 0.3277
C27 C 1.5630(11) 0.1106(11) 0.3953(8)
H18 H 1.6380 0.0615 0.4221
C28 C 1.4998(10) 0.2207(10) 0.4101(7)
H19 H 1.5336 0.2459 0.4500
C29 C 1.3903(8) 0.2999(8) 0.3720(5)
C30 C 1.3328(9) 0.4112(9) 0.3936(6)
H20 H 1.3693 0.4345 0.4333
C31 C 1.2156(9) 0.4905(8) 0.3540(5)
H21 H 1.1758 0.5662 0.3659
C32 C 1.1657(7) 0.4475(6) 0.2970(5)
H22 H 1.0896 0.4966 0.2714
C33 C 1.1699(7) 0.2131(6) -0.0471(5)
C34 C 1.3019(7) 0.1978(5) -0.1166(5)
C35 C 1.3241(7) 0.2854(6) -0.1954(5)
C36 C 1.2220(7) 0.3930(5) -0.2206(4)
H23 H 1.1345 0.4091 -0.1835
C37 C 1.2532(9) 0.4709(7) -0.2983(5)
H24 H 1.1866 0.5416 -0.3124
C38 C 1.3787(11) 0.4507(10) -0.3576(6)
H25 H 1.3950 0.5049 -0.4120
C39 C 1.4779(11) 0.3509(11) -0.3355(7)
H26 H 1.5633 0.3379 -0.3754
C40 C 1.4578(8) 0.2671(8) -0.2559(5)
C41 C 1.5656(10) 0.1652(10) -0.2362(8)
H27 H 1.6516 0.1534 -0.2754
C42 C 1.5391(10) 0.0819(8) -0.1553(8)
H28 H 1.6096 0.0150 -0.1395
C43 C 1.4089(8) 0.0981(6) -0.0985(6)
H29 H 1.3934 0.0400 -0.0466
Cd2A Cd -0.99866(4) 1.75564(3) -0.12217(3)
O1A O 0.0724(6) 1.0077(7) -0.1505(4)
O2A O 0.0679(6) 0.8892(6) -0.2387(4)
O3A O -1.0342(6) 1.6420(5) -0.2073(4)
O4A O -1.2103(5) 1.7845(5) -0.1727(3)
O5A O -1.1358(5) 1.8789(4) -0.0020(4)
O6A O -1.1024(4) 1.6915(4) 0.0277(3)
N1A N -0.7933(5) 1.6211(4) -0.0970(3)
N2A N -0.1896(5) 1.1559(4) -0.0261(3)
C1A C -0.6795(6) 1.4399(5) -0.0100(4)
H1A H -0.6856 1.3805 0.0424
C2A C -0.7938(6) 1.5326(5) -0.0256(4)
H2A H -0.8763 1.5328 0.0168
C3A C -0.6743(6) 1.6172(5) -0.1582(4)
H3A H -0.6714 1.6778 -0.2100
C4A C -0.5565(6) 1.5269(5) -0.1470(4)
H4A H -0.4757 1.5278 -0.1909
C5A C -0.5565(5) 1.4348(4) -0.0716(4)
C6A C -0.4306(5) 1.3365(4) -0.0567(4)
C7A C -0.3101(6) 1.3253(5) -0.1220(4)
H5A H -0.3072 1.3790 -0.1781
C8A C -0.1934(6) 1.2347(5) -0.1047(4)
H6A H -0.1140 1.2289 -0.1504
C9A C -0.3054(6) 1.1656(5) 0.0365(4)
H7A H -0.3051 1.1110 0.0922
C10A C -0.4254(6) 1.2515(5) 0.0239(4)
H8A H -0.5043 1.2528 0.0698
C11A C 0.0675(7) 0.9855(8) -0.2266(5)
C12A C 0.0687(6) 1.0855(6) -0.3055(4)
C13A C -0.0080(6) 1.1064(5) -0.3762(4)
C14A C -0.0982(6) 1.0419(6) -0.3762(4)
H9A H -0.1089 0.9787 -0.3278
C15A C -0.1715(7) 1.0711(7) -0.4474(5)
H10A H -0.2318 1.0282 -0.4462
C16A C -0.1545(9) 1.1657(9) -0.5212(5)
H11A H -0.2013 1.1832 -0.5700
C17A C -0.0724(9) 1.2306(8) -0.5224(5)
H12A H -0.0640 1.2941 -0.5711
C18A C 0.0014(7) 1.2038(6) -0.4506(5)
C19A C 0.0874(11) 1.2726(8) -0.4548(7)
H13A H 0.0951 1.3344 -0.5051
C20A C 0.1588(12) 1.2520(9) -0.3885(8)
H14A H 0.2148 1.2997 -0.3923
C21A C 0.1500(8) 1.1587(8) -0.3130(6)
H15A H 0.2000 1.1457 -0.2668
C22A C -1.1493(8) 1.7003(7) -0.2146(4)
C23A C -1.2224(7) 1.6642(7) -0.2760(5)
C24A C -1.3349(8) 1.7404(7) -0.3118(5)
C25A C -1.4012(7) 1.8575(7) -0.2943(5)
H16A H -1.3721 1.8870 -0.2546
C26A C -1.5076(10) 1.9228(10) -0.3380(7)
H17A H -1.5475 1.9992 -0.3277
C27A C -1.5630(11) 1.8894(11) -0.3953(8)
H18A H -1.6380 1.9385 -0.4221
C28A C -1.4998(10) 1.7793(10) -0.4101(7)
H19A H -1.5336 1.7541 -0.4500
C29A C -1.3903(8) 1.7001(8) -0.3720(5)
C30A C -1.3328(9) 1.5888(9) -0.3936(6)
H20A H -1.3693 1.5655 -0.4333
C31A C -1.2156(9) 1.5095(8) -0.3540(5)
H21A H -1.1758 1.4338 -0.3659
C32A C -1.1657(7) 1.5525(6) -0.2970(5)
H22A H -1.0896 1.5034 -0.2714
C33A C -1.1699(7) 1.7869(6) 0.0471(5)
C34A C -1.3019(7) 1.8022(5) 0.1166(5)
C35A C -1.3241(7) 1.7146(6) 0.1954(5)
C36A C -1.2220(7) 1.6070(5) 0.2206(4)
H23A H -1.1345 1.5909 0.1835
C37A C -1.2532(9) 1.5291(7) 0.2983(5)
H24A H -1.1866 1.4584 0.3124
C38A C -1.3787(11) 1.5493(10) 0.3576(6)
H25A H -1.3950 1.4951 0.4120
C39A C -1.4779(11) 1.6491(11) 0.3355(7)
H26A H -1.5633 1.6621 0.3754
C40A C -1.4578(8) 1.7329(8) 0.2559(5)
C41A C -1.5656(10) 1.8348(10) 0.2362(8)
H27A H -1.6516 1.8466 0.2754
C42A C -1.5391(10) 1.9181(8) 0.1553(8)
H28A H -1.6096 1.9850 0.1395
C43A C -1.4089(8) 1.9019(6) 0.0985(6)
H29A H -1.3934 1.9600 0.0466
Cd1_2 Cd -1.0000 2.0000 0.0000
Cd1_3 Cd 1.0000 0.0000 0.0000
Cd2_2 Cd -0.00134(4) 1.24436(3) 0.12217(3)
Cd2A_2 Cd 0.00134(4) 0.75564(3) -0.12217(3)
O2_2 O 0.9321(6) 0.1108(6) 0.2387(4)
O2A_2 O -0.9321(6) 1.8892(6) -0.2387(4)
O5_2 O 0.1358(5) 1.1211(4) 0.0020(4)
O5A_2 O -0.1358(5) 0.8789(4) -0.0020(4)
loop_
_geom_bond_atom_site_label_1
_geom_bond_atom_site_label_2
_geom_bond_site_symmetry_1
_geom_bond_site_symmetry_2
Cd1 O1 1_555 1_555
Cd2 O3 1_555 1_555
O1 C11 1_555 1_555
O2 C11 1_555 1_555
O3 C22 1_555 1_555
O4 Cd2 1_555 1_555
O5 Cd2 1_555 1_555
O6 Cd2 1_555 1_555
N1 Cd2 1_555 1_555
N2 Cd1 1_555 1_555
C1 H1 1_555 1_555
C2 N1 1_555 1_555
H2 C2 1_555 1_555
C3 N1 1_555 1_555
H3 C3 1_555 1_555
C4 C3 1_555 1_555
H4 C4 1_555 1_555
C5 C1 1_555 1_555
C6 C5 1_555 1_555
C7 C6 1_555 1_555
H5 C7 1_555 1_555
C8 N2 1_555 1_555
H6 C8 1_555 1_555
C9 N2 1_555 1_555
H7 C9 1_555 1_555
C10 C6 1_555 1_555
H8 C10 1_555 1_555
C11 C12 1_555 1_555
C12 C13 1_555 1_555
C13 C14 1_555 1_555
C14 H9 1_555 1_555
C15 C14 1_555 1_555
H10 C15 1_555 1_555
C16 C15 1_555 1_555
H11 C16 1_555 1_555
C17 C16 1_555 1_555
H12 C17 1_555 1_555
C18 C13 1_555 1_555
C19 C18 1_555 1_555
H13 C19 1_555 1_555
C20 C19 1_555 1_555
H14 C20 1_555 1_555
C21 C12 1_555 1_555
H15 C21 1_555 1_555
C22 O4 1_555 1_555
C23 C22 1_555 1_555
C24 C23 1_555 1_555
C25 C24 1_555 1_555
H16 C25 1_555 1_555
C26 C25 1_555 1_555
H17 C26 1_555 1_555
C27 C26 1_555 1_555
H18 C27 1_555 1_555
C28 C27 1_555 1_555
H19 C28 1_555 1_555
C29 C24 1_555 1_555
C30 C29 1_555 1_555
H20 C30 1_555 1_555
C31 C30 1_555 1_555
H21 C31 1_555 1_555
C32 C23 1_555 1_555
H22 C32 1_555 1_555
C33 O5 1_555 1_555
C34 C33 1_555 1_555
C35 C34 1_555 1_555
C36 C35 1_555 1_555
H23 C36 1_555 1_555
C37 C36 1_555 1_555
H24 C37 1_555 1_555
C38 C37 1_555 1_555
H25 C38 1_555 1_555
C39 C38 1_555 1_555
H26 C39 1_555 1_555
C40 C35 1_555 1_555
C41 C40 1_555 1_555
H27 C41 1_555 1_555
C42 C41 1_555 1_555
H28 C42 1_555 1_555
C43 C34 1_555 1_555
H29 C43 1_555 1_555
Cd2A O3A 1_555 1_555
O1A Cd1 1_555 1_555
O2A C11A 1_555 1_555
O3A C22A 1_555 1_555
O4A Cd2A 1_555 1_555
O5A Cd2A 1_555 1_555
O6A Cd2A 1_555 1_555
N1A Cd2A 1_555 1_555
N2A Cd1 1_555 1_555
C1A H1A 1_555 1_555
C2A N1A 1_555 1_555
H2A C2A 1_555 1_555
C3A N1A 1_555 1_555
H3A C3A 1_555 1_555
C4A C3A 1_555 1_555
H4A C4A 1_555 1_555
C5A C1A 1_555 1_555
C6A C5A 1_555 1_555
C7A C6A 1_555 1_555
H5A C7A 1_555 1_555
C8A N2A 1_555 1_555
H6A C8A 1_555 1_555
C9A N2A 1_555 1_555
H7A C9A 1_555 1_555
C10A C6A 1_555 1_555
H8A C10A 1_555 1_555
C11A O1A 1_555 1_555
C12A C11A 1_555 1_555
C13A C12A 1_555 1_555
C14A C13A 1_555 1_555
H9A C14A 1_555 1_555
C15A C14A 1_555 1_555
H10A C15A 1_555 1_555
C16A C15A 1_555 1_555
H11A C16A 1_555 1_555
C17A C16A 1_555 1_555
H12A C17A 1_555 1_555
C18A C13A 1_555 1_555
C19A C18A 1_555 1_555
H13A C19A 1_555 1_555
C20A C19A 1_555 1_555
H14A C20A 1_555 1_555
C21A C12A 1_555 1_555
H15A C21A 1_555 1_555
C22A O4A 1_555 1_555
C23A C22A 1_555 1_555
C24A C23A 1_555 1_555
C25A C24A 1_555 1_555
H16A C25A 1_555 1_555
C26A C25A 1_555 1_555
H17A C26A 1_555 1_555
C27A C26A 1_555 1_555
H18A C27A 1_555 1_555
C28A C27A 1_555 1_555
H19A C28A 1_555 1_555
C29A C24A 1_555 1_555
C30A C29A 1_555 1_555
H20A C30A 1_555 1_555
C31A C30A 1_555 1_555
H21A C31A 1_555 1_555
C32A C23A 1_555 1_555
H22A C32A 1_555 1_555
C33A O5A 1_555 1_555
C34A C33A 1_555 1_555
C35A C34A 1_555 1_555
C36A C35A 1_555 1_555
H23A C36A 1_555 1_555
C37A C36A 1_555 1_555
H24A C37A 1_555 1_555
C38A C37A 1_555 1_555
H25A C38A 1_555 1_555
C39A C38A 1_555 1_555
H26A C39A 1_555 1_555
C40A C35A 1_555 1_555
C41A C40A 1_555 1_555
H27A C41A 1_555 1_555
C42A C41A 1_555 1_555
H28A C42A 1_555 1_555
C43A C34A 1_555 1_555
H29A C43A 1_555 1_555
Cd1_2 O5A 1_555 1_555
Cd1_3 O5 1_555 1_555
Cd2_2 O2 1_555 1_555
Cd2A_2 O2A 1_555 1_555
O2_2 Cd2 1_555 1_555
O2A_2 Cd2A 1_555 1_555
O5_2 Cd1 1_555 1_555
O5A_2 Cd1 1_555 1_555
O6 C33 1_555 1_555
C1 C2 1_555 1_555
C4 C5 1_555 1_555
C7 C8 1_555 1_555
C9 C10 1_555 1_555
C17 C18 1_555 1_555
C20 C21 1_555 1_555
C28 C29 1_555 1_555
C31 C32 1_555 1_555
C39 C40 1_555 1_555
C42 C43 1_555 1_555
O6A C33A 1_555 1_555
C1A C2A 1_555 1_555
C4A C5A 1_555 1_555
C7A C8A 1_555 1_555
C9A C10A 1_555 1_555
C17A C18A 1_555 1_555
C20A C21A 1_555 1_555
C28A C29A 1_555 1_555
C31A C32A 1_555 1_555
C39A C40A 1_555 1_555
C42A C43A 1_555 1_555
Cd2_2 O5_2 1_555 1_555
Cd2A_2 O5A_2 1_555 1_555

#END
