
#######################################################################
#
#                 Cambridge Crystallographic Data Centre
#                                CCDC 
#
#######################################################################
#
# If this CIF has been generated from an entry in the Cambridge 
# Structural Database, then it will include bibliographic, chemical, 
# crystal, experimental, refinement or atomic coordinate data resulting 
# from the CCDC's data processing and validation procedures.
#
#######################################################################

data_FUWGEL
_symmetry_cell_setting           rhombohedral
_symmetry_space_group_name_H-M   'R 3'
_symmetry_Int_Tables_number      146
_space_group_name_Hall           'R 3'
loop_
_symmetry_equiv_pos_site_id
_symmetry_equiv_pos_as_xyz
1 x,y,z
2 -y,x-y,z
3 -x+y,-x,z
4 2/3+x,1/3+y,1/3+z
5 2/3-y,1/3+x-y,1/3+z
6 2/3-x+y,1/3-x,1/3+z
7 1/3+x,2/3+y,2/3+z
8 1/3-y,2/3+x-y,2/3+z
9 1/3-x+y,2/3-x,2/3+z
_cell_length_a                   18.798(19)
_cell_length_b                   18.798
_cell_length_c                   21.57(2)
_cell_angle_alpha                90
_cell_angle_beta                 90
_cell_angle_gamma                120
_cell_volume                     6600.91
loop_
_atom_site_label
_atom_site_type_symbol
_atom_site_fract_x
_atom_site_fract_y
_atom_site_fract_z
Zn1 Zn -0.54361(6) -0.65050(6) -0.51798(4)
Zn2 Zn -0.65404(6) -0.54517(6) -0.52647(5)
Zn3 Zn -0.74114(6) -0.74145(6) -0.54167(5)
S1 S -0.62725(14) -0.63248(15) -0.64281(9)
O1 O -0.6502(3) -0.6483(3) -0.4982(2)
H1 H -0.6603 -0.6555 -0.4535
O2 O -0.1718(4) -0.3902(4) -0.5265(3)
O3 O -0.6168(5) -0.6245(5) -0.7099(3)
O4 O -0.6755(6) -0.4513(6) -0.5586(5)
H2 H -0.6283 -0.4018 -0.5646
H3 H -0.7068 -0.4405 -0.5317
O5 O -0.4673(4) -0.5280(4) -0.5088(4)
O6 O -0.5214(5) -0.6627(5) -0.4246(3)
O7 O -0.5342(4) -0.4582(4) -0.5131(4)
O8 O -0.6555(5) -1.2069(4) -0.2933(4)
O9 O -0.6850(6) -0.5228(6) -0.4387(4)
H4 H -0.7386 -0.5294 -0.4358
H5 H -0.6502 -0.4686 -0.4226
O10 O -0.5559(4) -0.6318(5) -0.6144(3)
O11 O -0.0985(4) -0.2531(5) -0.5235(5)
O12 O -0.6359(5) -0.5643(5) -0.6183(3)
O13 O -0.3781(5) -0.1628(5) -0.5427(4)
O14 O -0.7022(4) -0.7110(5) -0.6276(3)
N1 N -0.6379(5) -1.1345(5) -0.3153(3)
N2 N -0.5389(5) -0.7379(5) -0.4052(3)
C1 C -0.5012(6) -0.8393(6) -0.3962(4)
H6 H -0.4621 -0.8552 -0.4022
C2 C -0.3900(5) -0.3852(5) -0.5157(4)
C3 C -0.5378(6) -0.9999(6) -0.3456(4)
H7 H -0.4831 -0.9618 -0.3538
C4 C -0.2422(5) -0.3157(5) -0.5205(4)
C5 C -0.3171(5) -0.3878(5) -0.5174(4)
H8 H -0.3189 -0.4381 -0.5166
C6 C -0.5977(6) -0.9781(6) -0.3527(4)
C7 C -0.4845(6) -0.7633(6) -0.4146(5)
H9 H -0.4348 -0.7284 -0.4340
C8 C -0.3868(6) -0.3101(5) -0.5200(4)
H10 H -0.4351 -0.3077 -0.5201
O15 O -0.2443(5) -0.0928(5) -0.5262(5)
C9 C -0.5751(6) -0.8930(6) -0.3689(4)
C10 C -0.4706(5) -0.4636(5) -0.5123(4)
C11 C -0.6302(7) -0.8645(7) -0.3590(5)
H11 H -0.6804 -0.8986 -0.3401
C12 C -0.2401(5) -0.2405(5) -0.5233(4)
H12 H -0.1900 -0.1917 -0.5245
C13 C -0.1653(5) -0.3209(5) -0.5237(4)
C14 C -0.6785(7) -1.0389(6) -0.3426(4)
H13 H -0.7206 -1.0272 -0.3484
C15 C -0.5594(6) -1.0787(6) -0.3263(4)
H14 H -0.5188 -1.0927 -0.3209
C16 C -0.3121(5) -0.2390(5) -0.5242(4)
C17 C -0.6109(7) -0.7865(6) -0.3770(4)
H15 H -0.6474 -0.7677 -0.3695
C18 C -0.3121(6) -0.1597(6) -0.5311(5)
C19 C -0.6966(6) -1.1157(7) -0.3241(5)
H16 H -0.7511 -1.1556 -0.3175
O16 O -0.4418(4) -0.6581(4) -0.5474(3)
H17 H -0.4556 -0.6992 -0.5745
H18 H -0.4163 -0.6670 -0.5156
Zn1B Zn -0.10689(8) -0.45639(6) -0.51798(4)
Zn2A Zn -0.45483(6) -0.10887(8) -0.52647(5)
Zn3A Zn -0.25855(6) 0.00031(8) -0.54167(5)
Zn3B Zn -0.00031(8) -0.25886(6) -0.54167(5)
O2A O -0.6098(4) -0.7816(6) -0.5265(3)
O11A O -0.7469(5) -0.8454(6) -0.5235(5)
O13B O -0.7847(7) -0.6219(5) -0.5427(4)
O15B O -0.8485(7) -0.7557(5) -0.5262(5)
O17 O -0.5610(11) -0.3300(9) -0.4473(10)
O18 O -0.6667 -0.3333 -0.3721(16)
O19 O -0.5179(17) -0.3346(18) -0.6377(11)
loop_
_geom_bond_atom_site_label_1
_geom_bond_atom_site_label_2
_geom_bond_site_symmetry_1
_geom_bond_site_symmetry_2
Zn1 O1 1_555 1_555
Zn2 O1 1_555 1_555
Zn3 O1 1_555 1_555
S1 O3 1_555 1_555
O1 H1 1_555 1_555
O2 C13 1_555 1_555
O4 Zn2 1_555 1_555
H2 O4 1_555 1_555
H3 O4 1_555 1_555
O5 Zn1 1_555 1_555
O6 Zn1 1_555 1_555
O7 Zn2 1_555 1_555
O8 N1 1_555 1_555
O9 Zn2 1_555 1_555
H4 O9 1_555 1_555
H5 O9 1_555 1_555
O10 Zn1 1_555 1_555
O11 C13 1_555 1_555
O12 Zn2 1_555 1_555
O13 C18 1_555 1_555
O14 Zn3 1_555 1_555
N1 C15 1_555 1_555
N2 O6 1_555 1_555
C1 H6 1_555 1_555
C2 C5 1_555 1_555
C3 H7 1_555 1_555
C4 C5 1_555 1_555
C5 H8 1_555 1_555
C6 C3 1_555 1_555
C7 N2 1_555 1_555
H9 C7 1_555 1_555
C8 C2 1_555 1_555
H10 C8 1_555 1_555
O15 C18 1_555 1_555
C9 C1 1_555 1_555
C10 O5 1_555 1_555
C11 C9 1_555 1_555
H11 C11 1_555 1_555
C12 C4 1_555 1_555
H12 C12 1_555 1_555
C13 C4 1_555 1_555
C14 C6 1_555 1_555
H13 C14 1_555 1_555
C15 C3 1_555 1_555
H14 C15 1_555 1_555
C16 C8 1_555 1_555
C17 N2 1_555 1_555
H15 C17 1_555 1_555
C18 C16 1_555 1_555
C19 N1 1_555 1_555
H16 C19 1_555 1_555
O16 Zn1 1_555 1_555
H17 O16 1_555 1_555
H18 O16 1_555 1_555
Zn1B O2 1_555 1_555
Zn2A O13 1_555 1_555
Zn3A O15 1_555 1_555
Zn3B O11 1_555 1_555
O2A Zn1 1_555 1_555
O11A Zn3 1_555 1_555
O13B Zn2 1_555 1_555
O15B Zn3 1_555 1_555
S1 O10 1_555 1_555
S1 O12 1_555 1_555
S1 O14 1_555 1_555
O7 C10 1_555 1_555
C1 C7 1_555 1_555
C2 C10 1_555 1_555
C6 C9 1_555 1_555
C11 C17 1_555 1_555
C12 C16 1_555 1_555
C14 C19 1_555 1_555

#END
