
#######################################################################
#
#                 Cambridge Crystallographic Data Centre
#                                CCDC 
#
#######################################################################
#
# If this CIF has been generated from an entry in the Cambridge 
# Structural Database, then it will include bibliographic, chemical, 
# crystal, experimental, refinement or atomic coordinate data resulting 
# from the CCDC's data processing and validation procedures.
#
#######################################################################

data_FUWGIP
_symmetry_cell_setting           rhombohedral
_symmetry_space_group_name_H-M   'R 3'
_symmetry_Int_Tables_number      146
_space_group_name_Hall           'R 3'
loop_
_symmetry_equiv_pos_site_id
_symmetry_equiv_pos_as_xyz
1 x,y,z
2 -y,x-y,z
3 -x+y,-x,z
4 2/3+x,1/3+y,1/3+z
5 2/3-y,1/3+x-y,1/3+z
6 2/3-x+y,1/3-x,1/3+z
7 1/3+x,2/3+y,2/3+z
8 1/3-y,2/3+x-y,2/3+z
9 1/3-x+y,2/3-x,2/3+z
_cell_length_a                   18.795(18)
_cell_length_b                   18.795
_cell_length_c                   21.47(2)
_cell_angle_alpha                90
_cell_angle_beta                 90
_cell_angle_gamma                120
_cell_volume                     6568.21
loop_
_atom_site_label
_atom_site_type_symbol
_atom_site_fract_x
_atom_site_fract_y
_atom_site_fract_z
Zn1 Zn 0.54339(5) 0.65067(5) 0.51768(4)
Zn2 Zn 0.65347(5) 0.54584(6) 0.52644(5)
Zn3 Zn 0.74069(5) 0.74187(5) 0.54197(5)
S1 S 0.62713(13) 0.63252(13) 0.64332(8)
O1 O 0.6504(3) 0.6485(3) 0.4975(2)
H1 H 0.6608 0.6558 0.4526
O2 O 0.1726(3) 0.3903(3) 0.5263(3)
O3 O 0.6171(5) 0.6247(5) 0.7112(3)
O4 O 0.6733(6) 0.4482(6) 0.5592(5)
H2 H 0.7224 0.4523 0.5900
H3 H 0.6365 0.3825 0.5486
O5 O 0.4676(4) 0.5279(3) 0.5076(3)
O6 O 0.5218(4) 0.6633(4) 0.4240(2)
O7 O 0.5349(4) 0.4591(4) 0.5141(4)
O8 O 0.6564(4) 1.2078(4) 0.2954(3)
O9 O 0.6847(6) 0.5221(6) 0.4390(3)
H4 H 0.6518 0.4701 0.4269
H5 H 0.7360 0.5307 0.4382
O10 O 0.5557(4) 0.6317(4) 0.6145(3)
O11 O 0.0976(4) 0.2520(4) 0.5248(4)
O12 O 0.6382(5) 0.5659(4) 0.6182(3)
O13 O 0.3800(5) 0.1634(4) 0.5405(4)
O14 O 0.7027(4) 0.7109(4) 0.6282(3)
N1 N 0.6386(4) 1.1354(4) 0.3167(3)
N2 N 0.5387(5) 0.7384(4) 0.4043(3)
C1 C 0.5014(6) 0.8391(6) 0.3945(4)
H6 H 0.4621 0.8548 0.3999
C2 C 0.3905(4) 0.3858(4) 0.5159(3)
C3 C 0.5383(6) 1.0008(6) 0.3460(3)
H7 H 0.4837 0.9630 0.3549
C4 C 0.2426(4) 0.3152(4) 0.5212(3)
C5 C 0.3176(4) 0.3876(4) 0.5173(3)
H8 H 0.3190 0.4377 0.5157
C6 C 0.5974(5) 0.9784(5) 0.3519(3)
C7 C 0.4837(6) 0.7625(6) 0.4130(4)
H9 H 0.4334 0.7272 0.4315
C8 C 0.3871(5) 0.3097(4) 0.5207(4)
H10 H 0.4353 0.3071 0.5210
O15 O 0.2463(4) 0.0930(4) 0.5296(4)
C9 C 0.5752(5) 0.8932(5) 0.3683(3)
C10 C 0.4716(4) 0.4643(4) 0.5127(3)
C11 C 0.6288(6) 0.8640(6) 0.3594(4)
H11 H 0.6793 0.8983 0.3407
C12 C 0.2409(4) 0.2403(4) 0.5249(3)
H12 H 0.1911 0.1913 0.5273
C13 C 0.1662(5) 0.3206(5) 0.5239(3)
C14 C 0.6790(6) 1.0391(6) 0.3431(4)
H13 H 0.7210 1.0272 0.3488
C15 C 0.5601(6) 1.0787(6) 0.3272(4)
H14 H 0.5194 1.0925 0.3215
C16 C 0.3133(4) 0.2400(4) 0.5248(4)
C17 C 0.6108(6) 0.7866(6) 0.3770(4)
H15 H 0.6478 0.7683 0.3701
C18 C 0.3140(5) 0.1599(5) 0.5318(4)
C19 C 0.6968(6) 1.1168(6) 0.3258(4)
H16 H 0.7514 1.1573 0.3204
O16 O 0.4414(3) 0.6588(4) 0.5472(3)
H17 H 0.4199 0.6749 0.5163
H18 H 0.4537 0.6952 0.5785
Zn1B Zn 0.10728(7) 0.45661(5) 0.51768(4)
Zn2A Zn 0.45416(6) 0.10763(8) 0.52644(5)
Zn3A Zn 0.25813(5) -0.00118(7) 0.54197(5)
Zn3B Zn 0.00118(7) 0.25931(5) 0.54197(5)
O2A O 0.6097(3) 0.7823(4) 0.5263(3)
O11A O 0.7480(4) 0.8456(6) 0.5248(4)
O13B O 0.7834(6) 0.6200(5) 0.5405(4)
O15B O 0.8467(6) 0.7537(4) 0.5296(4)
O17 O 0.7602(15) 0.4298(15) 0.4409(10)
loop_
_geom_bond_atom_site_label_1
_geom_bond_atom_site_label_2
_geom_bond_site_symmetry_1
_geom_bond_site_symmetry_2
Zn1 O1 1_555 1_555
Zn2 O1 1_555 1_555
Zn3 O1 1_555 1_555
S1 O3 1_555 1_555
O1 H1 1_555 1_555
O2 C13 1_555 1_555
O4 Zn2 1_555 1_555
H2 O4 1_555 1_555
H3 O4 1_555 1_555
O5 Zn1 1_555 1_555
O6 Zn1 1_555 1_555
O7 Zn2 1_555 1_555
O8 N1 1_555 1_555
O9 Zn2 1_555 1_555
H4 O9 1_555 1_555
H5 O9 1_555 1_555
O10 Zn1 1_555 1_555
O11 C13 1_555 1_555
O12 Zn2 1_555 1_555
O13 C18 1_555 1_555
O14 Zn3 1_555 1_555
N1 C15 1_555 1_555
N2 O6 1_555 1_555
C1 H6 1_555 1_555
C2 C5 1_555 1_555
C3 H7 1_555 1_555
C4 C5 1_555 1_555
C5 H8 1_555 1_555
C6 C3 1_555 1_555
C7 N2 1_555 1_555
H9 C7 1_555 1_555
C8 C2 1_555 1_555
H10 C8 1_555 1_555
O15 C18 1_555 1_555
C9 C1 1_555 1_555
C10 O5 1_555 1_555
C11 C9 1_555 1_555
H11 C11 1_555 1_555
C12 C4 1_555 1_555
H12 C12 1_555 1_555
C13 C4 1_555 1_555
C14 C6 1_555 1_555
H13 C14 1_555 1_555
C15 C3 1_555 1_555
H14 C15 1_555 1_555
C16 C8 1_555 1_555
C17 N2 1_555 1_555
H15 C17 1_555 1_555
C18 C16 1_555 1_555
C19 N1 1_555 1_555
H16 C19 1_555 1_555
O16 Zn1 1_555 1_555
H17 O16 1_555 1_555
H18 O16 1_555 1_555
Zn1B O2 1_555 1_555
Zn2A O13 1_555 1_555
Zn3A O15 1_555 1_555
Zn3B O11 1_555 1_555
O2A Zn1 1_555 1_555
O11A Zn3 1_555 1_555
O13B Zn2 1_555 1_555
O15B Zn3 1_555 1_555
S1 O10 1_555 1_555
S1 O12 1_555 1_555
S1 O14 1_555 1_555
O7 C10 1_555 1_555
C1 C7 1_555 1_555
C2 C10 1_555 1_555
C6 C9 1_555 1_555
C11 C17 1_555 1_555
C12 C16 1_555 1_555
C14 C19 1_555 1_555

#END
