
#######################################################################
#
#                 Cambridge Crystallographic Data Centre
#                                CCDC 
#
#######################################################################
#
# If this CIF has been generated from an entry in the Cambridge 
# Structural Database, then it will include bibliographic, chemical, 
# crystal, experimental, refinement or atomic coordinate data resulting 
# from the CCDC's data processing and validation procedures.
#
#######################################################################

data_FUWGOV
_symmetry_cell_setting           rhombohedral
_symmetry_space_group_name_H-M   'R 3'
_symmetry_Int_Tables_number      146
_space_group_name_Hall           'R 3'
loop_
_symmetry_equiv_pos_site_id
_symmetry_equiv_pos_as_xyz
1 x,y,z
2 -y,x-y,z
3 -x+y,-x,z
4 2/3+x,1/3+y,1/3+z
5 2/3-y,1/3+x-y,1/3+z
6 2/3-x+y,1/3-x,1/3+z
7 1/3+x,2/3+y,2/3+z
8 1/3-y,2/3+x-y,2/3+z
9 1/3-x+y,2/3-x,2/3+z
_cell_length_a                   18.815(5)
_cell_length_b                   18.815(5)
_cell_length_c                   21.425(6)
_cell_angle_alpha                90
_cell_angle_beta                 90
_cell_angle_gamma                120
_cell_volume                     6568.4
loop_
_atom_site_label
_atom_site_type_symbol
_atom_site_fract_x
_atom_site_fract_y
_atom_site_fract_z
Zn1 Zn 1.54335(6) 1.65025(6) 1.51717(5)
Zn2 Zn 1.65371(6) 1.54507(6) 1.52630(5)
Zn3 Zn 1.74029(6) 1.74110(6) 1.54179(5)
S1 S 1.62651(14) 1.63162(15) 1.64381(10)
O1 O 1.6500(3) 1.6479(4) 1.4981(3)
H1 H 1.6604 1.6551 1.4531
O2 O 1.1719(4) 1.3898(4) 1.5266(3)
O3 O 1.6153(5) 1.6235(5) 1.7111(3)
O4 O 1.4670(4) 1.5277(4) 1.5074(4)
O5 O 1.5213(5) 1.6629(4) 1.4236(3)
O6 O 1.5340(4) 1.4577(4) 1.5150(4)
O7 O 1.6561(5) 2.2081(4) 1.2948(4)
O8 O 1.5549(4) 1.6302(5) 1.6152(3)
O9 O 1.0980(4) 1.2519(4) 1.5258(4)
O10 O 1.6355(5) 1.5637(5) 1.6197(3)
O11 O 1.3803(5) 1.1640(5) 1.5433(4)
O12 O 1.7016(4) 1.7105(5) 1.6290(3)
N1 N 1.6389(5) 2.1353(5) 1.3163(3)
N2 N 1.5395(5) 1.7377(5) 1.4048(4)
C1 C 1.5000(6) 1.8387(6) 1.3952(5)
H2 H 1.4606 1.8541 1.4007
C2 C 1.3904(5) 1.3852(5) 1.5162(4)
C3 C 1.5373(6) 2.0004(6) 1.3457(4)
H3 H 1.4827 1.9619 1.3533
C4 C 1.2419(5) 1.3152(5) 1.5220(4)
C5 C 1.3176(5) 1.3880(5) 1.5182(4)
H4 H 1.3194 1.4383 1.5169
C6 C 1.5980(6) 1.9791(6) 1.3529(4)
C7 C 1.4841(6) 1.7628(6) 1.4127(5)
H5 H 1.4336 1.7269 1.4306
C8 C 1.3869(5) 1.3096(5) 1.5212(4)
H6 H 1.4352 1.3074 1.5217
O13 O 1.2451(5) 1.0926(4) 1.5280(5)
C9 C 1.5757(6) 1.8930(6) 1.3691(4)
C10 C 1.4712(5) 1.4641(5) 1.5131(4)
C11 C 1.6304(7) 1.8645(6) 1.3594(5)
H7 H 1.6804 1.8984 1.3400
C12 C 1.2402(5) 1.2403(5) 1.5250(4)
H8 H 1.1902 1.1914 1.5266
C13 C 1.1658(5) 1.3200(5) 1.5250(4)
C14 C 1.6793(6) 2.0397(6) 1.3437(5)
H9 H 1.7213 2.0279 1.3498
C15 C 1.5585(6) 2.0784(6) 1.3275(5)
H10 H 1.5181 2.0927 1.3227
C16 C 1.3129(5) 1.2387(5) 1.5254(4)
C17 C 1.6118(7) 1.7871(6) 1.3780(5)
H11 H 1.6493 1.7693 1.3719
C18 C 1.3137(5) 1.1600(5) 1.5325(5)
C19 C 1.6971(6) 2.1161(6) 1.3256(5)
H12 H 1.7517 2.1562 1.3196
O14 O 1.4418(4) 1.6588(4) 1.5477(3)
H13 H 1.4506 1.6996 1.5802
H14 H 1.4129 1.6712 1.5152
O15 O 1.6748(6) 1.4490(6) 1.5591(5)
O16 O 1.6855(6) 1.5221(6) 1.4393(4)
Zn1B Zn 1.10690(8) 1.45665(6) 1.51717(5)
Zn2A Zn 1.45493(6) 1.10864(8) 1.52630(5)
Zn3A Zn 1.25890(6) 0.99919(8) 1.54179(5)
Zn3B Zn 1.00081(8) 1.25971(6) 1.54179(5)
O2A O 1.6102(4) 1.7821(6) 1.5266(3)
O9A O 1.7481(4) 1.8461(6) 1.5258(4)
O11B O 1.7837(7) 1.6197(5) 1.5433(4)
O13B O 1.8475(6) 1.7549(5) 1.5280(5)
O17 O 1.5635(14) 1.3296(14) 1.4478(10)
O18 O 1.5184(17) 1.3366(19) 1.6355(12)
O19 O 1.6171(19) 1.294(2) 1.3866(14)
loop_
_geom_bond_atom_site_label_1
_geom_bond_atom_site_label_2
_geom_bond_site_symmetry_1
_geom_bond_site_symmetry_2
Zn1 O1 1_555 1_555
Zn2 O1 1_555 1_555
Zn3 O1 1_555 1_555
S1 O3 1_555 1_555
O1 H1 1_555 1_555
O2 C13 1_555 1_555
O4 Zn1 1_555 1_555
O5 Zn1 1_555 1_555
O6 Zn2 1_555 1_555
O7 N1 1_555 1_555
O8 Zn1 1_555 1_555
O9 C13 1_555 1_555
O10 Zn2 1_555 1_555
O11 C18 1_555 1_555
O12 Zn3 1_555 1_555
N1 C15 1_555 1_555
N2 O5 1_555 1_555
C1 H2 1_555 1_555
C2 C5 1_555 1_555
C3 H3 1_555 1_555
C4 C5 1_555 1_555
C5 H4 1_555 1_555
C6 C3 1_555 1_555
C7 N2 1_555 1_555
H5 C7 1_555 1_555
C8 C2 1_555 1_555
H6 C8 1_555 1_555
O13 C18 1_555 1_555
C9 C1 1_555 1_555
C10 O4 1_555 1_555
C11 C9 1_555 1_555
H7 C11 1_555 1_555
C12 C4 1_555 1_555
H8 C12 1_555 1_555
C13 C4 1_555 1_555
C14 C6 1_555 1_555
H9 C14 1_555 1_555
C15 C3 1_555 1_555
H10 C15 1_555 1_555
C16 C8 1_555 1_555
C17 N2 1_555 1_555
H11 C17 1_555 1_555
C18 C16 1_555 1_555
C19 N1 1_555 1_555
H12 C19 1_555 1_555
O14 Zn1 1_555 1_555
H13 O14 1_555 1_555
H14 O14 1_555 1_555
O15 Zn2 1_555 1_555
O16 Zn2 1_555 1_555
Zn1B O2 1_555 1_555
Zn2A O11 1_555 1_555
Zn3A O13 1_555 1_555
Zn3B O9 1_555 1_555
O2A Zn1 1_555 1_555
O9A Zn3 1_555 1_555
O11B Zn2 1_555 1_555
O13B Zn3 1_555 1_555
S1 O8 1_555 1_555
S1 O10 1_555 1_555
S1 O12 1_555 1_555
O6 C10 1_555 1_555
C1 C7 1_555 1_555
C2 C10 1_555 1_555
C6 C9 1_555 1_555
C11 C17 1_555 1_555
C12 C16 1_555 1_555
C14 C19 1_555 1_555

#END
