
#######################################################################
#
#                 Cambridge Crystallographic Data Centre
#                                CCDC 
#
#######################################################################
#
# If this CIF has been generated from an entry in the Cambridge 
# Structural Database, then it will include bibliographic, chemical, 
# crystal, experimental, refinement or atomic coordinate data resulting 
# from the CCDC's data processing and validation procedures.
#
#######################################################################

data_FUWQAR01
_symmetry_cell_setting           rhombohedral
_symmetry_space_group_name_H-M   'R 3'
_symmetry_Int_Tables_number      146
_space_group_name_Hall           'R 3'
loop_
_symmetry_equiv_pos_site_id
_symmetry_equiv_pos_as_xyz
1 x,y,z
2 -y,x-y,z
3 -x+y,-x,z
4 2/3+x,1/3+y,1/3+z
5 2/3-y,1/3+x-y,1/3+z
6 2/3-x+y,1/3-x,1/3+z
7 1/3+x,2/3+y,2/3+z
8 1/3-y,2/3+x-y,2/3+z
9 1/3-x+y,2/3-x,2/3+z
_cell_length_a                   18.723(5)
_cell_length_b                   18.723(5)
_cell_length_c                   21.353(6)
_cell_angle_alpha                90
_cell_angle_beta                 90
_cell_angle_gamma                120
_cell_volume                     6482.47
loop_
_atom_site_label
_atom_site_type_symbol
_atom_site_fract_x
_atom_site_fract_y
_atom_site_fract_z
Zn1 Zn -0.54418(6) -0.65871(7) -0.51714(4)
Zn2 Zn -0.65248(7) -0.56239(9) -0.53023(7)
Zn3 Zn -0.74282(7) -0.75313(7) -0.53962(5)
S1 S -0.63297(16) -0.64455(17) -0.64431(10)
O1 O -0.6517(4) -0.6602(4) -0.4957(3)
H1 H -0.6611 -0.6645 -0.4504
O2 O -0.1797(4) -0.3875(4) -0.5244(3)
O3 O -0.6217(6) -0.6386(6) -0.7112(3)
O4 O -0.4739(4) -0.5327(4) -0.5071(3)
O5 O -0.5187(4) -0.6670(4) -0.4237(3)
O6 O -0.5459(5) -0.4666(4) -0.5126(4)
O7 O -0.6632(5) -1.2140(4) -0.2930(3)
O8 O -0.5597(4) -0.6378(5) -0.6135(3)
O9 O -0.1091(5) -0.2506(4) -0.5253(4)
O10 O -0.6479(6) -0.5789(6) -0.6224(4)
O11 O -0.3979(6) -0.1679(5) -0.5223(5)
O12 O -0.7052(5) -0.7243(5) -0.6273(3)
N1 N -0.6453(5) -1.1428(5) -0.3159(3)
N2 N -0.5372(5) -0.7411(5) -0.4032(3)
C1 C -0.5010(6) -0.8447(6) -0.3928(4)
H2 H -0.4622 -0.8615 -0.3973
C2 C -0.4013(5) -0.3892(5) -0.5139(4)
C3 C -0.5442(6) -1.0085(6) -0.3456(4)
H3 H -0.4890 -0.9707 -0.3537
C4 C -0.2526(6) -0.3157(6) -0.5208(4)
C5 C -0.3279(6) -0.3896(6) -0.5176(4)
H4 H -0.3286 -0.4396 -0.5179
C6 C -0.6019(6) -0.9847(5) -0.3518(3)
C7 C -0.4828(6) -0.7675(6) -0.4114(4)
H5 H -0.4320 -0.7327 -0.4299
C8 C -0.4009(6) -0.3152(5) -0.5158(4)
H6 H -0.4503 -0.3146 -0.5140
O13 O -0.2596(5) -0.0963(4) -0.5304(4)
C9 C -0.5784(6) -0.8981(5) -0.3670(4)
C10 C -0.4817(6) -0.4708(5) -0.5111(4)
C11 C -0.6317(6) -0.8676(6) -0.3582(4)
H7 H -0.6828 -0.9009 -0.3396
C12 C -0.2525(6) -0.2411(6) -0.5215(4)
H8 H -0.2030 -0.1912 -0.5228
C13 C -0.1743(6) -0.3195(6) -0.5240(4)
C14 C -0.6822(7) -1.0446(7) -0.3438(4)
H9 H -0.7232 -1.0311 -0.3505
C15 C -0.5665(6) -1.0882(6) -0.3276(4)
H10 H -0.5265 -1.1034 -0.3236
C16 C -0.3271(6) -0.2422(6) -0.5204(4)
C17 C -0.6103(6) -0.7898(6) -0.3764(4)
H11 H -0.6468 -0.7704 -0.3701
C18 C -0.3282(8) -0.1628(6) -0.5245(5)
C19 C -0.7052(6) -1.1238(7) -0.3263(4)
H12 H -0.7605 -1.1634 -0.3218
O14 O -0.4422(4) -0.6622(4) -0.5482(3)
H13 H -0.4552 -0.7123 -0.5581
H14 H -0.4043 -0.6448 -0.5194
Zn1B Zn -0.11453(9) -0.45582(6) -0.51714(4)
Zn2A Zn -0.43761(9) -0.09009(11) -0.53023(7)
Zn3A Zn -0.24687(7) 0.01031(10) -0.53962(5)
Zn3B Zn -0.01031(10) -0.25718(7) -0.53962(5)
O2A O -0.6125(4) -0.7922(6) -0.5244(3)
O9A O -0.7494(4) -0.8585(6) -0.5253(4)
O11B O -0.7700(8) -0.6021(6) -0.5223(5)
O13B O -0.8367(6) -0.7404(5) -0.5304(4)
loop_
_geom_bond_atom_site_label_1
_geom_bond_atom_site_label_2
_geom_bond_site_symmetry_1
_geom_bond_site_symmetry_2
Zn1 O1 1_555 1_555
Zn2 O1 1_555 1_555
Zn3 O1 1_555 1_555
S1 O3 1_555 1_555
O1 H1 1_555 1_555
O2 C13 1_555 1_555
O4 Zn1 1_555 1_555
O5 Zn1 1_555 1_555
O6 Zn2 1_555 1_555
O7 N1 1_555 1_555
O8 Zn1 1_555 1_555
O9 C13 1_555 1_555
O10 Zn2 1_555 1_555
O11 C18 1_555 1_555
O12 Zn3 1_555 1_555
N1 C15 1_555 1_555
N2 O5 1_555 1_555
C1 H2 1_555 1_555
C2 C5 1_555 1_555
C3 H3 1_555 1_555
C4 C5 1_555 1_555
C5 H4 1_555 1_555
C6 C3 1_555 1_555
C7 N2 1_555 1_555
H5 C7 1_555 1_555
C8 C2 1_555 1_555
H6 C8 1_555 1_555
O13 C18 1_555 1_555
C9 C1 1_555 1_555
C10 O4 1_555 1_555
C11 C9 1_555 1_555
H7 C11 1_555 1_555
C12 C4 1_555 1_555
H8 C12 1_555 1_555
C13 C4 1_555 1_555
C14 C6 1_555 1_555
H9 C14 1_555 1_555
C15 C3 1_555 1_555
H10 C15 1_555 1_555
C16 C8 1_555 1_555
C17 N2 1_555 1_555
H11 C17 1_555 1_555
C18 C16 1_555 1_555
C19 N1 1_555 1_555
H12 C19 1_555 1_555
O14 Zn1 1_555 1_555
H13 O14 1_555 1_555
H14 O14 1_555 1_555
Zn1B O2 1_555 1_555
Zn2A O11 1_555 1_555
Zn3A O13 1_555 1_555
Zn3B O9 1_555 1_555
O2A Zn1 1_555 1_555
O9A Zn3 1_555 1_555
O11B Zn2 1_555 1_555
O13B Zn3 1_555 1_555
S1 O8 1_555 1_555
S1 O10 1_555 1_555
S1 O12 1_555 1_555
O6 C10 1_555 1_555
C1 C7 1_555 1_555
C2 C10 1_555 1_555
C6 C9 1_555 1_555
C11 C17 1_555 1_555
C12 C16 1_555 1_555
C14 C19 1_555 1_555

#END
