
#######################################################################
#
#                 Cambridge Crystallographic Data Centre
#                                CCDC 
#
#######################################################################
#
# If this CIF has been generated from an entry in the Cambridge 
# Structural Database, then it will include bibliographic, chemical, 
# crystal, experimental, refinement or atomic coordinate data resulting 
# from the CCDC's data processing and validation procedures.
#
#######################################################################

data_FUWQAR
_symmetry_cell_setting           rhombohedral
_symmetry_space_group_name_H-M   'R 3'
_symmetry_Int_Tables_number      146
_space_group_name_Hall           'R 3'
loop_
_symmetry_equiv_pos_site_id
_symmetry_equiv_pos_as_xyz
1 x,y,z
2 -y,x-y,z
3 -x+y,-x,z
4 2/3+x,1/3+y,1/3+z
5 2/3-y,1/3+x-y,1/3+z
6 2/3-x+y,1/3-x,1/3+z
7 1/3+x,2/3+y,2/3+z
8 1/3-y,2/3+x-y,2/3+z
9 1/3-x+y,2/3-x,2/3+z
_cell_length_a                   18.889(19)
_cell_length_b                   18.889(19)
_cell_length_c                   21.67(2)
_cell_angle_alpha                90
_cell_angle_beta                 90
_cell_angle_gamma                120
_cell_volume                     6695.88
loop_
_atom_site_label
_atom_site_type_symbol
_atom_site_fract_x
_atom_site_fract_y
_atom_site_fract_z
Zn1 Zn -0.45592(5) -0.34190(6) -0.48293(3)
Zn2 Zn -0.34768(6) -0.43861(8) -0.46992(6)
Zn3 Zn -0.25743(6) -0.24735(7) -0.46044(5)
S1 S -0.36672(15) -0.35566(16) -0.35610(8)
O1 O -0.3486(3) -0.3416(4) -0.5045(2)
H1 H -0.3392 -0.3374 -0.5491
O2 O -0.8202(4) -0.6124(4) -0.4756(2)
O3 O -0.3768(5) -0.3610(6) -0.2897(3)
O4 O -0.5263(4) -0.4677(4) -0.4920(3)
O5 O -0.4819(4) -0.3335(4) -0.5758(2)
O6 O -0.4543(4) -0.5332(4) -0.4873(4)
O7 O -0.3362(5) 0.2144(4) -0.7058(3)
O8 O -0.4401(4) -0.3623(5) -0.3870(2)
O9 O -0.8925(4) -0.7496(4) -0.4752(3)
O10 O -0.3541(6) -0.4225(6) -0.3787(3)
O11 O -0.6020(6) -0.8313(5) -0.4793(4)
O12 O -0.2944(5) -0.2761(5) -0.3730(3)
N1 N -0.3556(5) 0.1415(4) -0.6838(3)
N2 N -0.4633(5) -0.2594(4) -0.5964(3)
C1 C -0.4994(6) -0.1557(6) -0.6074(3)
H2 H -0.5379 -0.1390 -0.6029
C2 C -0.5998(5) -0.6114(4) -0.4862(3)
C3 C -0.4559(6) 0.0083(6) -0.6540(3)
H3 H -0.5104 -0.0286 -0.6455
C4 C -0.7478(5) -0.6841(5) -0.4802(3)
C5 C -0.6736(5) -0.6115(5) -0.4836(3)
H4 H -0.6731 -0.5620 -0.4843
C6 C -0.3974(5) -0.0156(5) -0.6485(3)
C7 C -0.5178(6) -0.2327(6) -0.5888(4)
H5 H -0.5683 -0.2671 -0.5707
C8 C -0.5996(6) -0.6845(5) -0.4850(3)
H6 H -0.5505 -0.6847 -0.4865
O13 O -0.7410(5) -0.9031(4) -0.4719(4)
C9 C -0.4220(5) -0.1019(5) -0.6333(3)
C10 C -0.5205(5) -0.5300(5) -0.4891(3)
C11 C -0.3687(6) -0.1330(6) -0.6414(3)
H7 H -0.3180 -0.1002 -0.6597
C12 C -0.7479(6) -0.7591(5) -0.4794(3)
H8 H -0.7969 -0.8084 -0.4776
C13 C -0.8265(5) -0.6811(5) -0.4765(3)
C14 C -0.3168(6) 0.0448(6) -0.6568(3)
H9 H -0.2760 0.0318 -0.6502
C15 C -0.4326(6) 0.0875(6) -0.6724(4)
H10 H -0.4722 0.1026 -0.6768
C16 C -0.6736(6) -0.7581(5) -0.4814(3)
C17 C -0.3895(6) -0.2102(6) -0.6229(4)
H11 H -0.3530 -0.2290 -0.6285
C18 C -0.6713(7) -0.8367(6) -0.4773(4)
C19 C -0.2942(6) 0.1236(6) -0.6745(4)
H12 H -0.2396 0.1630 -0.6800
O14 O -0.5579(3) -0.3383(4) -0.4516(2)
H13 H -0.5449 -0.2884 -0.4426
H14 H -0.5958 -0.3563 -0.4797
Zn1B Zn -0.88598(8) -0.54408(5) -0.48293(3)
Zn2A Zn -0.56139(8) -0.90907(10) -0.46992(6)
Zn3A Zn -0.75265(7) -1.01008(9) -0.46044(5)
Zn3B Zn -0.98992(9) -0.74257(6) -0.46044(5)
O2A O -0.3876(4) -0.2078(6) -0.4756(2)
O9A O -0.2504(4) -0.1429(6) -0.4752(3)
O11B O -0.2293(8) -0.3980(6) -0.4793(4)
O13B O -0.1621(6) -0.2590(5) -0.4719(4)
loop_
_geom_bond_atom_site_label_1
_geom_bond_atom_site_label_2
_geom_bond_site_symmetry_1
_geom_bond_site_symmetry_2
Zn1 O1 1_555 1_555
Zn2 O1 1_555 1_555
Zn3 O1 1_555 1_555
S1 O3 1_555 1_555
O1 H1 1_555 1_555
O2 C13 1_555 1_555
O4 Zn1 1_555 1_555
O5 Zn1 1_555 1_555
O6 Zn2 1_555 1_555
O7 N1 1_555 1_555
O8 Zn1 1_555 1_555
O9 C13 1_555 1_555
O10 Zn2 1_555 1_555
O11 C18 1_555 1_555
O12 Zn3 1_555 1_555
N1 C15 1_555 1_555
N2 O5 1_555 1_555
C1 H2 1_555 1_555
C2 C5 1_555 1_555
C3 H3 1_555 1_555
C4 C5 1_555 1_555
C5 H4 1_555 1_555
C6 C3 1_555 1_555
C7 N2 1_555 1_555
H5 C7 1_555 1_555
C8 C2 1_555 1_555
H6 C8 1_555 1_555
O13 C18 1_555 1_555
C9 C1 1_555 1_555
C10 O4 1_555 1_555
C11 C9 1_555 1_555
H7 C11 1_555 1_555
C12 C4 1_555 1_555
H8 C12 1_555 1_555
C13 C4 1_555 1_555
C14 C6 1_555 1_555
H9 C14 1_555 1_555
C15 C3 1_555 1_555
H10 C15 1_555 1_555
C16 C8 1_555 1_555
C17 N2 1_555 1_555
H11 C17 1_555 1_555
C18 C16 1_555 1_555
C19 N1 1_555 1_555
H12 C19 1_555 1_555
O14 Zn1 1_555 1_555
H13 O14 1_555 1_555
H14 O14 1_555 1_555
Zn1B O2 1_555 1_555
Zn2A O11 1_555 1_555
Zn3A O13 1_555 1_555
Zn3B O9 1_555 1_555
O2A Zn1 1_555 1_555
O9A Zn3 1_555 1_555
O11B Zn2 1_555 1_555
O13B Zn3 1_555 1_555
S1 O8 1_555 1_555
S1 O10 1_555 1_555
S1 O12 1_555 1_555
O6 C10 1_555 1_555
C1 C7 1_555 1_555
C2 C10 1_555 1_555
C6 C9 1_555 1_555
C11 C17 1_555 1_555
C12 C16 1_555 1_555
C14 C19 1_555 1_555

#END
