
#######################################################################
#
#                 Cambridge Crystallographic Data Centre
#                                CCDC 
#
#######################################################################
#
# If this CIF has been generated from an entry in the Cambridge 
# Structural Database, then it will include bibliographic, chemical, 
# crystal, experimental, refinement or atomic coordinate data resulting 
# from the CCDC's data processing and validation procedures.
#
#######################################################################

data_FUWROE
_symmetry_cell_setting           orthorhombic
_symmetry_space_group_name_H-M   'P b c a'
_symmetry_Int_Tables_number      61
_space_group_name_Hall           '-P 2ac 2ab'
loop_
_symmetry_equiv_pos_site_id
_symmetry_equiv_pos_as_xyz
1 x,y,z
2 1/2-x,1/2+y,z
3 x,1/2-y,1/2+z
4 1/2-x,-y,1/2+z
5 -x,-y,-z
6 1/2+x,1/2-y,-z
7 -x,1/2+y,1/2-z
8 1/2+x,y,1/2-z
_cell_length_a                   6.530(6)
_cell_length_b                   9.882(4)
_cell_length_c                   12.973(3)
_cell_angle_alpha                90
_cell_angle_beta                 90
_cell_angle_gamma                90
_cell_volume                     837.141
loop_
_atom_site_label
_atom_site_type_symbol
_atom_site_fract_x
_atom_site_fract_y
_atom_site_fract_z
Ag1 Ag 0.55322(7) 0.20941(4) 0.32750(4)
N1 N -0.1750(6) 0.0880(4) 0.3229(4)
C1 C -0.0580(7) 0.0062(5) 0.3449(4)
N2 N 0.0692(6) -0.0911(3) 0.3643(3)
C2 C 0.2529(8) -0.0514(4) 0.4070(3)
O1 O 0.2886(5) 0.0693(3) 0.4290(3)
N3 N 0.3896(6) -0.1487(3) 0.4220(4)
H1 H 0.366(8) -0.226(4) 0.423(3)
H2 H 0.498(9) -0.127(6) 0.461(4)
N1G N 0.3250(6) 0.0880(4) 0.1771(4)
Ag1G Ag 0.05322(7) 0.20941(4) 0.17250(4)
Ag1_2 Ag -0.44678(7) 0.20941(4) 0.32750(4)
N1_2 N 0.8250(6) 0.0880(4) 0.3229(4)
N2A N 0.4308(6) 0.4089(3) 0.3643(3)
Ag1A Ag -0.05322(7) -0.29059(4) 0.32750(4)
loop_
_geom_bond_atom_site_label_1
_geom_bond_atom_site_label_2
_geom_bond_site_symmetry_1
_geom_bond_site_symmetry_2
Ag1 O1 1_555 1_555
N1 C1 1_555 1_555
C1 N2 1_555 1_555
N2 C2 1_555 1_555
C2 O1 1_555 1_555
N3 C2 1_555 1_555
H1 N3 1_555 1_555
H2 N3 1_555 1_555
N1G Ag1 1_555 1_555
Ag1G N1 1_555 1_555
Ag1_2 N1 1_555 1_555
N1_2 Ag1 1_555 1_555
N2A Ag1 1_555 1_555
Ag1A N2 1_555 1_555
N1G Ag1G 1_555 1_555

#END
