
#######################################################################
#
#                 Cambridge Crystallographic Data Centre
#                                CCDC 
#
#######################################################################
#
# If this CIF has been generated from an entry in the Cambridge 
# Structural Database, then it will include bibliographic, chemical, 
# crystal, experimental, refinement or atomic coordinate data resulting 
# from the CCDC's data processing and validation procedures.
#
#######################################################################

data_FUWSAT
_symmetry_cell_setting           rhombohedral
_symmetry_space_group_name_H-M   'R 3'
_symmetry_Int_Tables_number      146
_space_group_name_Hall           'R 3'
loop_
_symmetry_equiv_pos_site_id
_symmetry_equiv_pos_as_xyz
1 x,y,z
2 -y,x-y,z
3 -x+y,-x,z
4 2/3+x,1/3+y,1/3+z
5 2/3-y,1/3+x-y,1/3+z
6 2/3-x+y,1/3-x,1/3+z
7 1/3+x,2/3+y,2/3+z
8 1/3-y,2/3+x-y,2/3+z
9 1/3-x+y,2/3-x,2/3+z
_cell_length_a                   18.816(4)
_cell_length_b                   18.816(4)
_cell_length_c                   21.441(5)
_cell_angle_alpha                90
_cell_angle_beta                 90
_cell_angle_gamma                120
_cell_volume                     6574.01
loop_
_atom_site_label
_atom_site_type_symbol
_atom_site_fract_x
_atom_site_fract_y
_atom_site_fract_z
Zn1 Zn 0.54412(4) 0.65014(4) 0.51628(3)
Zn2 Zn 0.65578(4) 0.54462(4) 0.52862(3)
Zn3 Zn 0.74177(4) 0.74086(4) 0.54224(4)
S1 S 0.62409(9) 0.63127(9) 0.64373(6)
O1 O 0.6504(2) 0.6469(2) 0.49869(19)
H1 H 0.6614 0.6537 0.4528
O2 O 0.1724(3) 0.3919(3) 0.52521(19)
O3 O 0.6129(3) 0.6235(3) 0.7115(2)
O4 O 0.6802(3) 0.4548(3) 0.5625(2)
H2 H 0.7166 0.4716 0.5982
H3 H 0.7058 0.4357 0.5328
O5 O 0.4680(3) 0.5268(3) 0.5070(2)
O6 O 0.5228(3) 0.6627(3) 0.42202(19)
O7 O 0.5355(3) 0.4569(3) 0.5126(2)
O8 O 0.6558(3) 1.2077(3) 0.2891(2)
O9 O 0.6884(3) 0.5219(3) 0.4400(2)
H4 H 0.7415 0.5197 0.4372
H5 H 0.6976 0.5632 0.4054
O10 O 0.5524(3) 0.6294(3) 0.6143(2)
O11 O 0.0976(3) 0.2541(3) 0.5228(3)
O12 O 0.6333(3) 0.5621(3) 0.6202(2)
O13 O 0.3726(3) 0.1586(3) 0.5462(2)
O14 O 0.6993(3) 0.7103(3) 0.6289(2)
N1 N 0.6381(3) 1.1356(3) 0.3127(2)
N2 N 0.5399(3) 0.7373(3) 0.4033(2)
C1 C 0.5002(4) 0.8387(4) 0.3948(3)
H6 H 0.4601 0.8546 0.4009
C2 C 0.3900(3) 0.3841(3) 0.5153(3)
C3 C 0.5373(4) 1.0010(4) 0.3450(3)
H7 H 0.4815 0.9621 0.3535
C4 C 0.2423(3) 0.3163(3) 0.5193(3)
C5 C 0.3179(3) 0.3879(3) 0.5164(3)
H8 H 0.3204 0.4396 0.5152
C6 C 0.5982(4) 0.9790(3) 0.3518(2)
C7 C 0.4836(4) 0.7614(4) 0.4128(3)
H9 H 0.4326 0.7249 0.4320
C8 C 0.3858(4) 0.3085(4) 0.5206(3)
H10 H 0.4348 0.3057 0.5225
O15 O 0.2410(4) 0.0910(3) 0.5215(5)
C9 C 0.5760(4) 0.8941(4) 0.3675(2)
C10 C 0.4715(4) 0.4626(3) 0.5113(2)
C11 C 0.6318(4) 0.8657(4) 0.3577(3)
H11 H 0.6834 0.9008 0.3388
C12 C 0.2382(4) 0.2405(4) 0.5212(3)
H12 H 0.1864 0.1914 0.5213
C13 C 0.1651(3) 0.3220(4) 0.5221(3)
C14 C 0.6792(4) 1.0402(4) 0.3414(3)
H13 H 0.7222 1.0284 0.3480
C15 C 0.5588(4) 1.0796(4) 0.3258(3)
H14 H 0.5177 1.0945 0.3218
C16 C 0.3097(4) 0.2366(4) 0.5232(3)
C17 C 0.6125(4) 0.7877(4) 0.3753(3)
H15 H 0.6503 0.7691 0.3677
C18 C 0.3093(4) 0.1575(4) 0.5302(3)
C19 C 0.6982(4) 1.1172(4) 0.3218(3)
H16 H 0.7538 1.1577 0.3146
O16 O 0.4411(2) 0.6570(3) 0.54401(19)
H17 H 0.4110 0.6620 0.5102
H18 H 0.4534 0.7025 0.5705
Zn1B Zn 0.10602(6) 0.45588(4) 0.51628(3)
Zn2A Zn 0.45538(4) 0.11116(6) 0.52862(3)
Zn3A Zn 0.25914(4) 0.00091(6) 0.54224(4)
Zn3B Zn -0.00091(6) 0.25823(4) 0.54224(4)
O2A O 0.6081(3) 0.7805(4) 0.52521(19)
O11A O 0.7459(3) 0.8435(4) 0.5228(3)
O13B O 0.7860(4) 0.6274(3) 0.5462(2)
O15B O 0.8500(5) 0.7590(4) 0.5215(5)
O17 O 0.5577(4) 0.3321(4) 0.4576(4)
H19 H 0.5851 0.3517 0.4232
H20 H 0.5301 0.3567 0.4660
O18 O 0.6667 0.3333 0.3695(5)
O19 O 0.7688(8) 0.4957(7) 0.6696(5)
O20? O 0.8270(13) 0.4918(11) 0.6352(9)
loop_
_geom_bond_atom_site_label_1
_geom_bond_atom_site_label_2
_geom_bond_site_symmetry_1
_geom_bond_site_symmetry_2
Zn1 O1 1_555 1_555
Zn2 O1 1_555 1_555
Zn3 O1 1_555 1_555
S1 O3 1_555 1_555
O1 H1 1_555 1_555
O2 C13 1_555 1_555
O4 Zn2 1_555 1_555
H2 O4 1_555 1_555
H3 O4 1_555 1_555
O5 Zn1 1_555 1_555
O6 Zn1 1_555 1_555
O7 Zn2 1_555 1_555
O8 N1 1_555 1_555
O9 Zn2 1_555 1_555
H4 O9 1_555 1_555
H5 O9 1_555 1_555
O10 Zn1 1_555 1_555
O11 C13 1_555 1_555
O12 Zn2 1_555 1_555
O13 C18 1_555 1_555
O14 Zn3 1_555 1_555
N1 C15 1_555 1_555
N2 O6 1_555 1_555
C1 H6 1_555 1_555
C2 C5 1_555 1_555
C3 H7 1_555 1_555
C4 C5 1_555 1_555
C5 H8 1_555 1_555
C6 C3 1_555 1_555
C7 N2 1_555 1_555
H9 C7 1_555 1_555
C8 C2 1_555 1_555
H10 C8 1_555 1_555
O15 C18 1_555 1_555
C9 C1 1_555 1_555
C10 O5 1_555 1_555
C11 C9 1_555 1_555
H11 C11 1_555 1_555
C12 C4 1_555 1_555
H12 C12 1_555 1_555
C13 C4 1_555 1_555
C14 C6 1_555 1_555
H13 C14 1_555 1_555
C15 C3 1_555 1_555
H14 C15 1_555 1_555
C16 C8 1_555 1_555
C17 N2 1_555 1_555
H15 C17 1_555 1_555
C18 C16 1_555 1_555
C19 N1 1_555 1_555
H16 C19 1_555 1_555
O16 Zn1 1_555 1_555
H17 O16 1_555 1_555
H18 O16 1_555 1_555
O17 H19 1_555 1_555
H20 O17 1_555 1_555
Zn1B O2 1_555 1_555
Zn2A O13 1_555 1_555
Zn3A O15 1_555 1_555
Zn3B O11 1_555 1_555
O2A Zn1 1_555 1_555
O11A Zn3 1_555 1_555
O13B Zn2 1_555 1_555
O15B Zn3 1_555 1_555
S1 O10 1_555 1_555
S1 O12 1_555 1_555
S1 O14 1_555 1_555
O7 C10 1_555 1_555
C1 C7 1_555 1_555
C2 C10 1_555 1_555
C6 C9 1_555 1_555
C11 C17 1_555 1_555
C12 C16 1_555 1_555
C14 C19 1_555 1_555

#END
