
#######################################################################
#
#                 Cambridge Crystallographic Data Centre
#                                CCDC 
#
#######################################################################
#
# If this CIF has been generated from an entry in the Cambridge 
# Structural Database, then it will include bibliographic, chemical, 
# crystal, experimental, refinement or atomic coordinate data resulting 
# from the CCDC's data processing and validation procedures.
#
#######################################################################

data_FUWXUR
_symmetry_cell_setting           cubic
_symmetry_space_group_name_H-M   'I -4 3 d'
_symmetry_Int_Tables_number      220
_space_group_name_Hall           'I -4bd 2c 3'
loop_
_symmetry_equiv_pos_site_id
_symmetry_equiv_pos_as_xyz
1 x,y,z
2 1/4+y,3/4-x,1/4-z
3 -x,1/2-y,z
4 1/4-y,1/4+x,3/4-z
5 1/4-x,1/4+z,3/4-y
6 x,-y,1/2-z
7 3/4-x,1/4-z,1/4+y
8 3/4-z,1/4-y,1/4+x
9 1/2-x,y,-z
10 1/4+z,3/4-y,1/4-x
11 z,x,y
12 y,z,x
13 -y,1/2-z,x
14 z,-x,1/2-y
15 1/2-y,z,-x
16 -z,1/2-x,y
17 1/2-z,x,-y
18 y,-z,1/2-x
19 3/4-y,1/4-x,1/4+z
20 1/4+y,1/4+x,1/4+z
21 1/4+x,3/4-z,1/4-y
22 1/4+x,1/4+z,1/4+y
23 1/4-z,1/4+y,3/4-x
24 1/4+z,1/4+y,1/4+x
25 1/2+x,1/2+y,1/2+z
26 3/4+y,1/4-x,3/4-z
27 1/2-x,-y,1/2+z
28 3/4-y,3/4+x,1/4-z
29 3/4-x,3/4+z,1/4-y
30 1/2+x,1/2-y,-z
31 1/4-x,3/4-z,3/4+y
32 1/4-z,3/4-y,3/4+x
33 -x,1/2+y,1/2-z
34 3/4+z,1/4-y,3/4-x
35 1/2+z,1/2+x,1/2+y
36 1/2+y,1/2+z,1/2+x
37 1/2-y,-z,1/2+x
38 1/2+z,1/2-x,-y
39 -y,1/2+z,1/2-x
40 1/2-z,-x,1/2+y
41 -z,1/2+x,1/2-y
42 1/2+y,1/2-z,-x
43 1/4-y,3/4-x,3/4+z
44 3/4+y,3/4+x,3/4+z
45 3/4+x,1/4-z,3/4-y
46 3/4+x,3/4+z,3/4+y
47 3/4-z,3/4+y,1/4-x
48 3/4+z,3/4+y,3/4+x
_cell_length_a                   21.015(2)
_cell_length_b                   21.015(2)
_cell_length_c                   21.015(2)
_cell_angle_alpha                90
_cell_angle_beta                 90
_cell_angle_gamma                90
_cell_volume                     9280.86
loop_
_atom_site_label
_atom_site_type_symbol
_atom_site_fract_x
_atom_site_fract_y
_atom_site_fract_z
O4 O 0.2100(7) 0.7285(5) 0.0497(4)
H4 H 0.183(3) 0.703(2) 0.065(3)
H5 H 0.214(3) 0.7588(19) 0.074(2)
Mn1 Mn 0.2500 0.3750 0.0000
Mn2 Mn 0.15134(3) 0.28076(3) 0.26533(3)
S1 S 0.30169(6) 0.30169(6) 0.30169(6)
O1 O 0.34159(19) 0.34159(19) 0.34159(19)
O2 O 0.23392(18) 0.31370(19) 0.3151(2)
O3 O 0.21372(16) 0.21372(16) 0.21372(16)
N1 N 0.0735(2) 0.4227(2) 0.1935(2)
H1 H 0.0523 0.4538 0.1775
H2 H 0.0633 0.4079 0.2303
N2 N 0.15864(19) 0.34939(19) 0.18412(18)
N3 N 0.20299(18) 0.33943(19) 0.13807(18)
N4 N 0.19333(19) 0.37774(19) 0.09128(18)
N5 N 0.14321(19) 0.41605(19) 0.10365(19)
N6 N 0.1783(7) 0.6320(6) -0.0091(9)
N7 N 0.1990(2) 0.5175(2) 0.0080(2)
N8 N 0.2500 0.4812(3) 0.0000
C1 C 0.1225(2) 0.3973(2) 0.1612(2)
C2 C 0.2180(13) 0.5790(11) -0.0062(7)
H3 H 0.19119(16) 0.19119(16) 0.19119(16)
Mn1D Mn 0.0000 0.2500 0.3750
Mn1F Mn 0.5000 0.2500 -0.3750
Mn1A Mn 0.6250 0.5000 0.2500
Mn1C Mn -0.1250 0.5000 -0.2500
Mn2H Mn 0.34866(3) 0.28076(3) -0.26533(3)
Mn2I Mn 0.51533(3) 0.46924(3) 0.09866(3)
Mn2EA Mn -0.01533(3) 0.46924(3) -0.09866(3)
Mn2K Mn 0.28076(3) 0.26533(3) 0.15134(3)
Mn2N Mn 0.21924(3) 0.26533(3) -0.15134(3)
Mn2T Mn 0.40134(3) 0.48467(3) -0.03076(3)
Mn2DA Mn 0.09866(3) 0.48467(3) 0.03076(3)
Mn2J Mn 0.26533(3) 0.15134(3) 0.28076(3)
Mn2P Mn 0.23467(3) 0.15134(3) -0.28076(3)
Mn2A Mn 0.53076(3) 0.59866(3) -0.01533(3)
Mn2PA Mn -0.03076(3) 0.59866(3) 0.01533(3)
Mn2Y Mn 0.03076(3) 0.09866(3) 0.48467(3)
Mn2D Mn 0.09866(3) 0.51533(3) 0.46924(3)
Mn2C Mn -0.03076(3) 0.40134(3) 0.48467(3)
Mn2B Mn -0.15134(3) 0.21924(3) 0.26533(3)
Mn2R Mn 0.46924(3) 0.09866(3) -0.48467(3)
Mn2U Mn 0.40134(3) 0.51533(3) -0.46924(3)
Mn2S Mn 0.53076(3) 0.40134(3) -0.48467(3)
Mn2CA Mn 0.65134(3) 0.21924(3) -0.26533(3)
Mn2NA Mn 0.73467(3) 0.65134(3) 0.21924(3)
Mn2L Mn 0.71924(3) 0.23467(3) 0.15134(3)
Mn2O Mn 0.73467(3) 0.34866(3) 0.28076(3)
Mn2W Mn 0.51533(3) 0.53076(3) 0.40134(3)
Mn2HA Mn -0.23467(3) 0.65134(3) -0.21924(3)
Mn2OA Mn -0.21924(3) 0.23467(3) -0.15134(3)
Mn2KA Mn -0.23467(3) 0.34866(3) -0.28076(3)
Mn2V Mn -0.01533(3) 0.53076(3) -0.40134(3)
S1H S 0.19831(6) 0.30169(6) -0.30169(6)
S1A S 0.55169(6) 0.44831(6) -0.05169(6)
S1DA S -0.05169(6) 0.44831(6) 0.05169(6)
O1H O 0.15841(19) 0.34159(19) -0.34159(19)
O1A O 0.59159(19) 0.40841(19) -0.09159(19)
O1DA O -0.09159(19) 0.40841(19) 0.09159(19)
O2K O 0.31370(19) 0.3151(2) 0.23392(18)
O2J O 0.3151(2) 0.23392(18) 0.31370(19)
O2H O 0.26608(18) 0.31370(19) -0.3151(2)
O2N O 0.18630(19) 0.3151(2) -0.23392(18)
O2P O 0.1849(2) 0.23392(18) -0.31370(19)
O2I O 0.5651(2) 0.43630(19) 0.01608(18)
O2T O 0.48392(18) 0.4349(2) -0.06370(19)
O2A O 0.56370(19) 0.51608(18) -0.0651(2)
O2EA O -0.0651(2) 0.43630(19) -0.01608(18)
O2DA O 0.01608(18) 0.4349(2) 0.06370(19)
O2PA O -0.06370(19) 0.51608(18) 0.0651(2)
O3H O 0.28628(16) 0.21372(16) -0.21372(16)
O3A O 0.46372(16) 0.53628(16) 0.03628(16)
O3DA O 0.03628(16) 0.53628(16) -0.03628(16)
N1H N 0.4265(2) 0.4227(2) -0.1935(2)
N1I N 0.4435(2) 0.3273(2) 0.1765(2)
N1EA N 0.0565(2) 0.3273(2) -0.1765(2)
N1J N 0.1935(2) 0.0735(2) 0.4227(2)
N1D N 0.1765(2) 0.4435(2) 0.3273(2)
N1P N 0.3065(2) 0.0735(2) -0.4227(2)
N1U N 0.3235(2) 0.4435(2) -0.3273(2)
N1A N 0.6727(2) 0.6765(2) 0.0565(2)
N1L N 0.5773(2) 0.3065(2) 0.0735(2)
N1PA N -0.1727(2) 0.6765(2) -0.0565(2)
N1OA N -0.0773(2) 0.3065(2) -0.0735(2)
H1H H 0.4477 0.4538 -0.1775
H1I H 0.4275 0.2962 0.1977
H1EA H 0.0725 0.2962 -0.1977
H1J H 0.1775 0.0523 0.4538
H1D H 0.1977 0.4275 0.2962
H1P H 0.3225 0.0523 -0.4538
H1U H 0.3023 0.4275 -0.2962
H1A H 0.7038 0.6977 0.0725
H1L H 0.5462 0.3225 0.0523
H1PA H -0.2038 0.6977 -0.0725
H1OA H -0.0462 0.3225 -0.0523
H2H H 0.4367 0.4079 -0.2303
H2I H 0.4803 0.3421 0.1867
H2EA H 0.0197 0.3421 -0.1867
H2J H 0.2303 0.0633 0.4079
H2D H 0.1867 0.4803 0.3421
H2P H 0.2697 0.0633 -0.4079
H2U H 0.3133 0.4803 -0.3421
H2A H 0.6579 0.6867 0.0197
H2L H 0.5921 0.2697 0.0633
H2PA H -0.1579 0.6867 -0.0197
H2OA H -0.0921 0.2697 -0.0633
N2H N 0.34136(19) 0.34939(19) -0.18412(18)
N2I N 0.43412(18) 0.40061(19) 0.09136(19)
N2EA N 0.06588(18) 0.40061(19) -0.09136(19)
N2J N 0.18412(18) 0.15864(19) 0.34939(19)
N2D N 0.09136(19) 0.43412(18) 0.40061(19)
N2P N 0.31588(18) 0.15864(19) -0.34939(19)
N2U N 0.40864(19) 0.43412(18) -0.40061(19)
N2A N 0.59939(19) 0.59136(19) 0.06588(18)
N2L N 0.65061(19) 0.31588(18) 0.15864(19)
N2PA N -0.09939(19) 0.59136(19) -0.06588(18)
N2OA N -0.15061(19) 0.31588(18) -0.15864(19)
N2K N 0.34939(19) 0.18412(18) 0.15864(19)
N2N N 0.15061(19) 0.18412(18) -0.15864(19)
N2T N 0.40864(19) 0.56588(18) -0.09939(19)
N2DA N 0.09136(19) 0.56588(18) 0.09939(19)
N3H N 0.29701(18) 0.33943(19) -0.13807(18)
N3I N 0.38807(18) 0.41057(19) 0.04701(18)
N3EA N 0.11193(18) 0.41057(19) -0.04701(18)
N3J N 0.13807(18) 0.20299(18) 0.33943(19)
N3D N 0.04701(18) 0.38807(18) 0.41057(19)
N3P N 0.36193(18) 0.20299(18) -0.33943(19)
N3U N 0.45299(18) 0.38807(18) -0.41057(19)
N3A N 0.58943(19) 0.54701(18) 0.11193(18)
N3L N 0.66057(19) 0.36193(18) 0.20299(18)
N3PA N -0.08943(19) 0.54701(18) -0.11193(18)
N3OA N -0.16057(19) 0.36193(18) -0.20299(18)
N3K N 0.33943(19) 0.13807(18) 0.20299(18)
N3N N 0.16057(19) 0.13807(18) -0.20299(18)
N3T N 0.45299(18) 0.61193(18) -0.08943(19)
N3DA N 0.04701(18) 0.61193(18) 0.08943(19)
N4H N 0.30667(19) 0.37774(19) -0.09128(18)
N4I N 0.34128(18) 0.37226(19) 0.05667(19)
N4EA N 0.15872(18) 0.37226(19) -0.05667(19)
N4J N 0.09128(18) 0.19333(19) 0.37774(19)
N4D N 0.05667(19) 0.34128(18) 0.37226(19)
N4P N 0.40872(18) 0.19333(19) -0.37774(19)
N4U N 0.44333(19) 0.34128(18) -0.37226(19)
N4A N 0.62774(19) 0.55667(19) 0.15872(18)
N4L N 0.62226(19) 0.40872(18) 0.19333(19)
N4PA N -0.12774(19) 0.55667(19) -0.15872(18)
N4OA N -0.12226(19) 0.40872(18) -0.19333(19)
N4O N -0.09128(18) 0.30667(19) 0.37774(19)
N4RA N -0.05667(19) 0.15872(18) 0.37226(19)
N4KA N 0.59128(18) 0.30667(19) -0.37774(19)
N4F N 0.55667(19) 0.15872(18) -0.37226(19)
N5H N 0.35679(19) 0.41605(19) -0.10365(19)
N5I N 0.35365(19) 0.33395(19) 0.10679(19)
N5EA N 0.14635(19) 0.33395(19) -0.10679(19)
N5J N 0.10365(19) 0.14321(19) 0.41605(19)
N5D N 0.10679(19) 0.35365(19) 0.33395(19)
N5P N 0.39635(19) 0.14321(19) -0.41605(19)
N5U N 0.39321(19) 0.35365(19) -0.33395(19)
N5A N 0.66605(19) 0.60679(19) 0.14635(19)
N5L N 0.58395(19) 0.39635(19) 0.14321(19)
N5PA N -0.16605(19) 0.60679(19) -0.14635(19)
N5OA N -0.08395(19) 0.39635(19) -0.14321(19)
N5R N 0.33395(19) 0.10679(19) 0.35365(19)
N5Y N 0.16605(19) 0.10679(19) -0.35365(19)
N5HA N 0.60365(19) 0.64321(19) -0.08395(19)
N5NA N -0.10365(19) 0.64321(19) 0.08395(19)
N6H N 0.3217(7) 0.6320(6) 0.0091(9)
N6I N 0.2409(9) 0.1180(6) 0.0717(7)
N6EA N 0.2591(9) 0.1180(6) -0.0717(7)
N6D N 0.0717(7) 0.2409(9) 0.1180(6)
N6RA N -0.0717(7) 0.2591(9) 0.1180(6)
N6U N 0.4283(7) 0.2409(9) -0.1180(6)
N6F N 0.5717(7) 0.2591(9) -0.1180(6)
N6L N 0.3680(6) 0.5091(9) 0.1783(7)
N6LA N 0.3680(6) 0.4909(9) 0.3217(7)
N6OA N 0.1320(6) 0.5091(9) -0.1783(7)
N6IA N 0.1320(6) 0.4909(9) -0.3217(7)
N7H N 0.3010(2) 0.5175(2) -0.0080(2)
N7I N 0.2580(2) 0.2325(2) 0.0510(2)
N7EA N 0.2420(2) 0.2325(2) -0.0510(2)
N7D N 0.0510(2) 0.2580(2) 0.2325(2)
N7RA N -0.0510(2) 0.2420(2) 0.2325(2)
N7U N 0.4490(2) 0.2580(2) -0.2325(2)
N7F N 0.5510(2) 0.2420(2) -0.2325(2)
N7L N 0.4825(2) 0.4920(2) 0.1990(2)
N7LA N 0.4825(2) 0.5080(2) 0.3010(2)
N7OA N 0.0175(2) 0.4920(2) -0.1990(2)
N7IA N 0.0175(2) 0.5080(2) -0.3010(2)
N7R N 0.2325(2) 0.0510(2) 0.2580(2)
N7Y N 0.2675(2) 0.0510(2) -0.2580(2)
N7HA N 0.5080(2) 0.6990(2) 0.0175(2)
N7NA N -0.0080(2) 0.6990(2) -0.0175(2)
N8I N 0.2500 0.2688(3) 0.0000
N8D N 0.0000 0.2500 0.2688(3)
N8F N 0.5000 0.2500 -0.2688(3)
N8L N 0.5188(3) 0.5000 0.2500
N8IA N -0.0188(3) 0.5000 -0.2500
N8J N 0.0000 0.2500 0.4812(3)
N8P N 0.5000 0.2500 -0.4812(3)
C1H C 0.3775(2) 0.3973(2) -0.1612(2)
C1I C 0.4112(2) 0.3527(2) 0.1275(2)
C1EA C 0.0888(2) 0.3527(2) -0.1275(2)
C1J C 0.1612(2) 0.1225(2) 0.3973(2)
C1D C 0.1275(2) 0.4112(2) 0.3527(2)
C1P C 0.3388(2) 0.1225(2) -0.3973(2)
C1U C 0.3725(2) 0.4112(2) -0.3527(2)
C1A C 0.6473(2) 0.6275(2) 0.0888(2)
C1L C 0.6027(2) 0.3388(2) 0.1225(2)
C1PA C -0.1473(2) 0.6275(2) -0.0888(2)
C1OA C -0.1027(2) 0.3388(2) -0.1225(2)
C2H C 0.2820(13) 0.5790(11) 0.0062(7)
C2I C 0.2438(7) 0.1710(11) 0.0320(13)
C2EA C 0.2562(7) 0.1710(11) -0.0320(13)
C2D C 0.0320(13) 0.2438(7) 0.1710(11)
C2RA C -0.0320(13) 0.2562(7) 0.1710(11)
C2U C 0.4680(13) 0.2438(7) -0.1710(11)
C2F C 0.5320(13) 0.2562(7) -0.1710(11)
C2L C 0.4210(11) 0.5062(7) 0.2180(13)
C2LA C 0.4210(11) 0.4938(7) 0.2820(13)
C2OA C 0.0790(11) 0.5062(7) -0.2180(13)
C2IA C 0.0790(11) 0.4938(7) -0.2820(13)
H3H H 0.30881(16) 0.19119(16) -0.19119(16)
H3A H 0.44119(16) 0.55881(16) 0.05881(16)
H3DA H 0.05881(16) 0.55881(16) -0.05881(16)
O5? O 0.1254(8) 0.6571(14) -0.0353(9)
C3? C 0.2203(12) 0.5762(11) 0.0190(7)
loop_
_geom_bond_atom_site_label_1
_geom_bond_atom_site_label_2
_geom_bond_site_symmetry_1
_geom_bond_site_symmetry_2
Mn1 N4 1_555 1_555
Mn2 O2 1_555 1_555
S1 O1 1_555 1_555
O2 S1 1_555 1_555
O3 Mn2 1_555 1_555
O4 H4 1_555 1_555
N1 H1 1_555 1_555
H2 N1 1_555 1_555
N2 Mn2 1_555 1_555
N3 N2 1_555 1_555
N4 N3 1_555 1_555
N5 N4 1_555 1_555
N6 C2 1_555 1_555
N7 N8 1_555 1_555
N8 Mn1 1_555 1_555
C1 N1 1_555 1_555
C2 N7 1_555 1_555
H3 O3 1_555 1_555
H5 O4 1_555 1_555
Mn1D N4J 1_555 1_555
Mn1F N4P 1_555 1_555
Mn1A N4A 1_555 1_555
Mn1C N4PA 1_555 1_555
Mn2H O2H 1_555 1_555
Mn2I O2I 1_555 1_555
Mn2EA O2EA 1_555 1_555
Mn2K O3 1_555 1_555
Mn2N O2N 1_555 1_555
Mn2T O2T 1_555 1_555
Mn2DA N5 1_555 1_555
Mn2J O3 1_555 1_555
Mn2P O2P 1_555 1_555
Mn2A O2A 1_555 1_555
Mn2PA O2PA 1_555 1_555
Mn2Y N5J 1_555 1_555
Mn2D N2D 1_555 1_555
Mn2C N3D 1_555 1_555
Mn2B N7RA 1_555 1_555
Mn2R N5P 1_555 1_555
Mn2U N2U 1_555 1_555
Mn2S N3U 1_555 1_555
Mn2CA N7F 1_555 1_555
Mn2NA N5A 1_555 1_555
Mn2L N2L 1_555 1_555
Mn2O N3L 1_555 1_555
Mn2W N7LA 1_555 1_555
Mn2HA N5PA 1_555 1_555
Mn2OA N2OA 1_555 1_555
Mn2KA N3OA 1_555 1_555
Mn2V N7IA 1_555 1_555
S1H O1H 1_555 1_555
S1A O1A 1_555 1_555
S1DA O1DA 1_555 1_555
O2K S1 1_555 1_555
O2J S1 1_555 1_555
O2H S1H 1_555 1_555
O2N S1H 1_555 1_555
O2P S1H 1_555 1_555
O2I S1A 1_555 1_555
O2T S1A 1_555 1_555
O2A S1A 1_555 1_555
O2EA S1DA 1_555 1_555
O2DA Mn2DA 1_555 1_555
O2PA S1DA 1_555 1_555
O3H Mn2H 1_555 1_555
O3A Mn2I 1_555 1_555
O3DA Mn2EA 1_555 1_555
N1H H1H 1_555 1_555
N1I H1I 1_555 1_555
N1EA H1EA 1_555 1_555
N1J H1J 1_555 1_555
N1D H1D 1_555 1_555
N1P H1P 1_555 1_555
N1U H1U 1_555 1_555
N1A H1A 1_555 1_555
N1L H1L 1_555 1_555
N1PA H1PA 1_555 1_555
N1OA H1OA 1_555 1_555
H2H N1H 1_555 1_555
H2I N1I 1_555 1_555
H2EA N1EA 1_555 1_555
H2J N1J 1_555 1_555
H2D N1D 1_555 1_555
H2P N1P 1_555 1_555
H2U N1U 1_555 1_555
H2A N1A 1_555 1_555
H2L N1L 1_555 1_555
H2PA N1PA 1_555 1_555
H2OA N1OA 1_555 1_555
N2H Mn2H 1_555 1_555
N2I Mn2I 1_555 1_555
N2EA Mn2EA 1_555 1_555
N2J Mn2J 1_555 1_555
N2D N3D 1_555 1_555
N2P Mn2P 1_555 1_555
N2U N3U 1_555 1_555
N2A Mn2A 1_555 1_555
N2L N3L 1_555 1_555
N2PA Mn2PA 1_555 1_555
N2OA N3OA 1_555 1_555
N2K Mn2K 1_555 1_555
N2N Mn2N 1_555 1_555
N2T Mn2T 1_555 1_555
N2DA Mn2DA 1_555 1_555
N3H Mn2N 1_555 1_555
N3I Mn2T 1_555 1_555
N3EA Mn2DA 1_555 1_555
N3J Mn2 1_555 1_555
N3D N4D 1_555 1_555
N3P Mn2H 1_555 1_555
N3U N4U 1_555 1_555
N3A Mn2I 1_555 1_555
N3L N4L 1_555 1_555
N3PA Mn2EA 1_555 1_555
N3OA N4OA 1_555 1_555
N3K Mn2J 1_555 1_555
N3N Mn2P 1_555 1_555
N3T Mn2A 1_555 1_555
N3DA Mn2PA 1_555 1_555
N4H Mn1 1_555 1_555
N4I Mn1 1_555 1_555
N4EA Mn1 1_555 1_555
N4J N3J 1_555 1_555
N4D Mn1D 1_555 1_555
N4P N3P 1_555 1_555
N4U Mn1F 1_555 1_555
N4A N3A 1_555 1_555
N4L Mn1A 1_555 1_555
N4PA N3PA 1_555 1_555
N4OA Mn1C 1_555 1_555
N4O Mn1D 1_555 1_555
N4RA Mn1D 1_555 1_555
N4KA Mn1F 1_555 1_555
N4F Mn1F 1_555 1_555
N5H Mn2T 1_555 1_555
N5I Mn2K 1_555 1_555
N5EA Mn2N 1_555 1_555
N5J N4J 1_555 1_555
N5D Mn2 1_555 1_555
N5P N4P 1_555 1_555
N5U Mn2H 1_555 1_555
N5A N4A 1_555 1_555
N5L Mn2I 1_555 1_555
N5PA N4PA 1_555 1_555
N5OA Mn2EA 1_555 1_555
N5R Mn2J 1_555 1_555
N5Y Mn2P 1_555 1_555
N5HA Mn2A 1_555 1_555
N5NA Mn2PA 1_555 1_555
N6H C2H 1_555 1_555
N6I C2I 1_555 1_555
N6EA C2EA 1_555 1_555
N6D C2D 1_555 1_555
N6RA C2RA 1_555 1_555
N6U C2U 1_555 1_555
N6F C2F 1_555 1_555
N6L C2L 1_555 1_555
N6LA C2LA 1_555 1_555
N6OA C2OA 1_555 1_555
N6IA C2IA 1_555 1_555
N7H N8 1_555 1_555
N7I Mn2K 1_555 1_555
N7EA Mn2N 1_555 1_555
N7D Mn2 1_555 1_555
N7RA N8D 1_555 1_555
N7U Mn2H 1_555 1_555
N7F N8F 1_555 1_555
N7L Mn2I 1_555 1_555
N7LA N8L 1_555 1_555
N7OA Mn2EA 1_555 1_555
N7IA N8IA 1_555 1_555
N7R Mn2J 1_555 1_555
N7Y Mn2P 1_555 1_555
N7HA Mn2A 1_555 1_555
N7NA Mn2PA 1_555 1_555
N8I Mn1 1_555 1_555
N8D Mn1D 1_555 1_555
N8F Mn1F 1_555 1_555
N8L Mn1A 1_555 1_555
N8IA Mn1C 1_555 1_555
N8J Mn1D 1_555 1_555
N8P Mn1F 1_555 1_555
C1H N1H 1_555 1_555
C1I N1I 1_555 1_555
C1EA N1EA 1_555 1_555
C1J N1J 1_555 1_555
C1D N1D 1_555 1_555
C1P N1P 1_555 1_555
C1U N1U 1_555 1_555
C1A N1A 1_555 1_555
C1L N1L 1_555 1_555
C1PA N1PA 1_555 1_555
C1OA N1OA 1_555 1_555
C2H C2 1_555 1_555
C2I N7I 1_555 1_555
C2EA N7EA 1_555 1_555
C2D N7D 1_555 1_555
C2RA N7RA 1_555 1_555
C2U N7U 1_555 1_555
C2F N7F 1_555 1_555
C2L N7L 1_555 1_555
C2LA N7LA 1_555 1_555
C2OA N7OA 1_555 1_555
C2IA N7IA 1_555 1_555
H3H O3H 1_555 1_555
H3A O3A 1_555 1_555
H3DA O3DA 1_555 1_555
N2 C1 1_555 1_555
N3 Mn2K 1_555 1_555
N5 C1 1_555 1_555
N7 Mn2DA 1_555 1_555
Mn2K O2K 1_555 1_555
Mn2N O3H 1_555 1_555
Mn2T O3A 1_555 1_555
Mn2T N7H 1_555 1_555
Mn2DA O3DA 1_555 1_555
Mn2J O2J 1_555 1_555
Mn2P O3H 1_555 1_555
Mn2A O3A 1_555 1_555
Mn2PA O3DA 1_555 1_555
S1DA O2DA 1_555 1_555
N2H N3H 1_555 1_555
N2H C1H 1_555 1_555
N2I N3I 1_555 1_555
N2I C1I 1_555 1_555
N2EA N3EA 1_555 1_555
N2EA C1EA 1_555 1_555
N2J N3J 1_555 1_555
N2J C1J 1_555 1_555
N2D C1D 1_555 1_555
N2P N3P 1_555 1_555
N2P C1P 1_555 1_555
N2U C1U 1_555 1_555
N2A N3A 1_555 1_555
N2A C1A 1_555 1_555
N2L C1L 1_555 1_555
N2PA N3PA 1_555 1_555
N2PA C1PA 1_555 1_555
N2OA C1OA 1_555 1_555
N2K N3K 1_555 1_555
N2N N3N 1_555 1_555
N2T N3T 1_555 1_555
N2DA N3DA 1_555 1_555
N3H N4H 1_555 1_555
N3I N4I 1_555 1_555
N3EA N4EA 1_555 1_555
N4H N5H 1_555 1_555
N4I N5I 1_555 1_555
N4EA N5EA 1_555 1_555
N4D N5D 1_555 1_555
N4U N5U 1_555 1_555
N4L N5L 1_555 1_555
N4OA N5OA 1_555 1_555
N5H C1H 1_555 1_555
N5I C1I 1_555 1_555
N5EA C1EA 1_555 1_555
N5J C1J 1_555 1_555
N5D C1D 1_555 1_555
N5P C1P 1_555 1_555
N5U C1U 1_555 1_555
N5A C1A 1_555 1_555
N5L C1L 1_555 1_555
N5PA C1PA 1_555 1_555
N5OA C1OA 1_555 1_555
N7H C2H 1_555 1_555
N7I N8I 1_555 1_555
N7EA N8I 1_555 1_555
N7D N8D 1_555 1_555
N7U N8F 1_555 1_555
N7L N8L 1_555 1_555
N7OA N8IA 1_555 1_555
C2I C2EA 1_555 1_555
C2D C2RA 1_555 1_555
C2U C2F 1_555 1_555
C2L C2LA 1_555 1_555
C2OA C2IA 1_555 1_555

#END
