
#######################################################################
#
#                 Cambridge Crystallographic Data Centre
#                                CCDC 
#
#######################################################################
#
# If this CIF has been generated from an entry in the Cambridge 
# Structural Database, then it will include bibliographic, chemical, 
# crystal, experimental, refinement or atomic coordinate data resulting 
# from the CCDC's data processing and validation procedures.
#
#######################################################################

data_FUWXOL
_symmetry_cell_setting           orthorhombic
_symmetry_space_group_name_H-M   'P 21 21 21'
_symmetry_Int_Tables_number      19
_space_group_name_Hall           'P 2ac 2ab'
loop_
_symmetry_equiv_pos_site_id
_symmetry_equiv_pos_as_xyz
1 x,y,z
2 1/2-x,-y,1/2+z
3 -x,1/2+y,1/2-z
4 1/2+x,1/2-y,-z
_cell_length_a                   8.6429(6)
_cell_length_b                   8.8848(6)
_cell_length_c                   15.4504(10)
_cell_angle_alpha                90
_cell_angle_beta                 90
_cell_angle_gamma                90
_cell_volume                     1186.44
loop_
_atom_site_label
_atom_site_type_symbol
_atom_site_fract_x
_atom_site_fract_y
_atom_site_fract_z
O1 O 0.713(6) 0.756(3) 0.976(3)
Zn1 Zn 0.04852(5) 0.74452(6) 0.62646(3)
N1 N 0.2268(5) 0.8671(5) 0.6998(3)
N2 N 0.4168(5) 0.9599(6) 0.7794(3)
N3 N 0.4052(5) 1.1074(5) 0.9475(3)
N4 N 0.3520(5) 1.1896(5) 1.0135(3)
N5 N 0.2065(5) 1.2241(6) 1.0046(2)
N6 N 0.1586(5) 1.1655(5) 0.9298(2)
N7 N -0.0790(5) 0.8713(5) 0.7140(3)
N8 N -0.2307(5) 0.9004(6) 0.7266(3)
N9 N -0.2430(5) 1.0065(6) 0.7858(3)
N10 N -0.0984(5) 1.0460(5) 0.8131(3)
C1 C 0.3792(6) 0.8727(7) 0.7107(4)
C2 C 0.2817(5) 1.0102(6) 0.8169(3)
C3 C 0.2818(6) 1.0948(5) 0.8975(3)
C4 C 0.1648(6) 0.9544(6) 0.7662(3)
C5 C -0.0016(5) 0.9619(6) 0.7675(3)
H1 H 0.444(7) 0.854(7) 0.667(4)
Zn1A Zn 0.45148(5) 1.25548(6) 1.12646(3)
Zn1B Zn -0.04852(5) 1.24452(6) 0.87354(3)
N4A N 0.1480(5) 0.8104(5) 0.5135(3)
N6B N -0.1586(5) 0.6655(5) 0.5702(2)
N10B N 0.0984(5) 0.5460(5) 0.6869(3)
loop_
_geom_bond_atom_site_label_1
_geom_bond_atom_site_label_2
_geom_bond_site_symmetry_1
_geom_bond_site_symmetry_2
Zn1 N1 1_555 1_555
N1 C1 1_555 1_555
N2 C1 1_555 1_555
N3 N4 1_555 1_555
N4 N5 1_555 1_555
N5 N6 1_555 1_555
N6 C3 1_555 1_555
N7 Zn1 1_555 1_555
N8 N7 1_555 1_555
N9 N8 1_555 1_555
N10 N9 1_555 1_555
C1 H1 1_555 1_555
C2 N2 1_555 1_555
C3 N3 1_555 1_555
C4 N1 1_555 1_555
C5 N7 1_555 1_555
Zn1A N4 1_555 1_555
Zn1B N6 1_555 1_555
N4A Zn1 1_555 1_555
N6B Zn1 1_555 1_555
N10B Zn1 1_555 1_555
N10 C5 1_555 1_555
N10 Zn1B 1_555 1_555
C2 C3 1_555 1_555
C2 C4 1_555 1_555
C4 C5 1_555 1_555

#END
