
#######################################################################
#
#                 Cambridge Crystallographic Data Centre
#                                CCDC 
#
#######################################################################
#
# If this CIF has been generated from an entry in the Cambridge 
# Structural Database, then it will include bibliographic, chemical, 
# crystal, experimental, refinement or atomic coordinate data resulting 
# from the CCDC's data processing and validation procedures.
#
#######################################################################

data_FUWXIF
_symmetry_cell_setting           cubic
_symmetry_space_group_name_H-M   'F m -3'
_symmetry_Int_Tables_number      202
_space_group_name_Hall           '-F 2 2 3'
loop_
_symmetry_equiv_pos_site_id
_symmetry_equiv_pos_as_xyz
1 x,y,z
2 -x,-y,z
3 -x,y,-z
4 x,-y,-z
5 z,x,y
6 z,-x,-y
7 -z,-x,y
8 -z,x,-y
9 y,z,x
10 -y,z,-x
11 y,-z,-x
12 -y,-z,x
13 x,1/2+y,1/2+z
14 -x,1/2-y,1/2+z
15 -x,1/2+y,1/2-z
16 x,1/2-y,1/2-z
17 z,1/2+x,1/2+y
18 z,1/2-x,1/2-y
19 -z,1/2-x,1/2+y
20 -z,1/2+x,1/2-y
21 y,1/2+z,1/2+x
22 -y,1/2+z,1/2-x
23 y,1/2-z,1/2-x
24 -y,1/2-z,1/2+x
25 1/2+x,y,1/2+z
26 1/2-x,-y,1/2+z
27 1/2-x,y,1/2-z
28 1/2+x,-y,1/2-z
29 1/2+z,x,1/2+y
30 1/2+z,-x,1/2-y
31 1/2-z,-x,1/2+y
32 1/2-z,x,1/2-y
33 1/2+y,z,1/2+x
34 1/2-y,z,1/2-x
35 1/2+y,-z,1/2-x
36 1/2-y,-z,1/2+x
37 1/2+x,1/2+y,z
38 1/2-x,1/2-y,z
39 1/2-x,1/2+y,-z
40 1/2+x,1/2-y,-z
41 1/2+z,1/2+x,y
42 1/2+z,1/2-x,-y
43 1/2-z,1/2-x,y
44 1/2-z,1/2+x,-y
45 1/2+y,1/2+z,x
46 1/2-y,1/2+z,-x
47 1/2+y,1/2-z,-x
48 1/2-y,1/2-z,x
49 -x,-y,-z
50 x,y,-z
51 x,-y,z
52 -x,y,z
53 -z,-x,-y
54 -z,x,y
55 z,x,-y
56 z,-x,y
57 -y,-z,-x
58 y,-z,x
59 -y,z,x
60 y,z,-x
61 -x,1/2-y,1/2-z
62 x,1/2+y,1/2-z
63 x,1/2-y,1/2+z
64 -x,1/2+y,1/2+z
65 -z,1/2-x,1/2-y
66 -z,1/2+x,1/2+y
67 z,1/2+x,1/2-y
68 z,1/2-x,1/2+y
69 -y,1/2-z,1/2-x
70 y,1/2-z,1/2+x
71 -y,1/2+z,1/2+x
72 y,1/2+z,1/2-x
73 1/2-x,-y,1/2-z
74 1/2+x,y,1/2-z
75 1/2+x,-y,1/2+z
76 1/2-x,y,1/2+z
77 1/2-z,-x,1/2-y
78 1/2-z,x,1/2+y
79 1/2+z,x,1/2-y
80 1/2+z,-x,1/2+y
81 1/2-y,-z,1/2-x
82 1/2+y,-z,1/2+x
83 1/2-y,z,1/2+x
84 1/2+y,z,1/2-x
85 1/2-x,1/2-y,-z
86 1/2+x,1/2+y,-z
87 1/2+x,1/2-y,z
88 1/2-x,1/2+y,z
89 1/2-z,1/2-x,-y
90 1/2-z,1/2+x,y
91 1/2+z,1/2+x,-y
92 1/2+z,1/2-x,y
93 1/2-y,1/2-z,-x
94 1/2+y,1/2-z,x
95 1/2-y,1/2+z,x
96 1/2+y,1/2+z,-x
_cell_length_a                   22.0003(7)
_cell_length_b                   22.0003(7)
_cell_length_c                   22.0003(7)
_cell_angle_alpha                90
_cell_angle_beta                 90
_cell_angle_gamma                90
_cell_volume                     10648.4
loop_
_atom_site_label
_atom_site_type_symbol
_atom_site_fract_x
_atom_site_fract_y
_atom_site_fract_z
N1 N 0.3500(2) 0.3450(2) 0.0508(2)
Zn1 Zn 0.35702(3) 0.35702(3) 0.14298(3)
Zn2 Zn 0.30268(4) 0.19732(4) 0.19732(4)
O1 O 0.3281(2) 0.25815(18) 0.13368(16)
O2 O 0.3130(3) 0.1861(2) 0.0626(2)
O3 O 0.2500 0.2500 0.2500
C1 C 0.3248(2) 0.2396(2) 0.0783(2)
C2 C 0.3366(2) 0.2860(2) 0.03171(18)
C3 C 0.3576(3) 0.3778(4) 0.0000
H1 H 0.387(4) 0.424(4) 0.0000
N1WA N 0.3500(2) 0.3450(2) -0.0508(2)
N1EA N 0.4492(2) 0.3500(2) 0.1550(2)
N1ZB N 0.5508(2) 0.3500(2) 0.1550(2)
N1V N 0.3450(2) 0.4492(2) 0.1500(2)
N1SB N 0.3450(2) 0.5508(2) 0.1500(2)
N1GA N 0.1550(2) 0.0508(2) 0.1500(2)
N1BC N 0.1550(2) -0.0508(2) 0.1500(2)
N1PA N 0.4492(2) 0.1500(2) 0.3450(2)
N1MC N 0.5508(2) 0.1500(2) 0.3450(2)
N1YB N 0.4492(2) 0.3500(2) -0.1550(2)
N1BA N 0.5508(2) 0.3500(2) -0.1550(2)
N1QB N 0.3450(2) 0.4492(2) -0.1500(2)
N1PB N 0.6550(2) 0.4492(2) 0.1500(2)
N1YA N 0.6500(2) 0.3450(2) 0.0508(2)
N1XA N 0.3500(2) 0.6550(2) 0.0508(2)
N1XB N 0.4492(2) 0.6500(2) 0.1550(2)
Zn1WA Zn 0.35702(3) 0.35702(3) -0.14298(3)
Zn1YA Zn 0.64298(3) 0.35702(3) 0.14298(3)
Zn1XA Zn 0.35702(3) 0.64298(3) 0.14298(3)
Zn1Q Zn 0.14298(3) 0.14298(3) 0.14298(3)
Zn1NB Zn 0.14298(3) -0.14298(3) 0.14298(3)
Zn1H Zn 0.35702(3) 0.14298(3) 0.35702(3)
Zn1FB Zn 0.64298(3) 0.14298(3) 0.35702(3)
Zn1B Zn 0.64298(3) 0.35702(3) -0.14298(3)
Zn2WA Zn 0.30268(4) 0.19732(4) -0.19732(4)
Zn2O Zn 0.30268(4) 0.30268(4) 0.30268(4)
Zn2HB Zn 0.69732(4) 0.30268(4) 0.30268(4)
Zn2D Zn 0.19732(4) 0.30268(4) 0.19732(4)
Zn2H Zn 0.19732(4) 0.19732(4) 0.30268(4)
Zn2CB Zn 0.19732(4) 0.69732(4) 0.19732(4)
Zn2XA Zn 0.30268(4) -0.19732(4) 0.19732(4)
Zn2YA Zn 0.69732(4) 0.19732(4) 0.19732(4)
Zn2JB Zn 0.30268(4) 0.30268(4) -0.30268(4)
Zn2M Zn 0.69732(4) 0.30268(4) -0.30268(4)
O1WA O 0.3281(2) 0.25815(18) -0.13368(16)
O1EA O 0.36632(16) 0.3281(2) 0.24185(18)
O1ZB O 0.63368(16) 0.3281(2) 0.24185(18)
O1V O 0.25815(18) 0.36632(16) 0.1719(2)
O1SB O 0.25815(18) 0.63368(16) 0.1719(2)
O1GA O 0.24185(18) 0.13368(16) 0.1719(2)
O1BC O 0.24185(18) -0.13368(16) 0.1719(2)
O1PA O 0.36632(16) 0.1719(2) 0.25815(18)
O1MC O 0.63368(16) 0.1719(2) 0.25815(18)
O1YB O 0.36632(16) 0.3281(2) -0.24185(18)
O1BA O 0.63368(16) 0.3281(2) -0.24185(18)
O1QB O 0.25815(18) 0.36632(16) -0.1719(2)
O1PB O 0.74185(18) 0.36632(16) 0.1719(2)
O1YA O 0.6719(2) 0.25815(18) 0.13368(16)
O1XA O 0.3281(2) 0.74185(18) 0.13368(16)
O1XB O 0.36632(16) 0.6719(2) 0.24185(18)
O1DC O 0.24185(18) 0.13368(16) -0.1719(2)
O1JC O 0.36632(16) 0.1719(2) -0.25815(18)
O1O O 0.3281(2) 0.24185(18) 0.36632(16)
O1UA O 0.24185(18) 0.36632(16) 0.3281(2)
O1HB O 0.6719(2) 0.24185(18) 0.36632(16)
O1OC O 0.75815(18) 0.36632(16) 0.3281(2)
O2WA O 0.3130(3) 0.1861(2) -0.0626(2)
O2EA O 0.4374(2) 0.3130(3) 0.3139(2)
O2ZB O 0.5626(2) 0.3130(3) 0.3139(2)
O2V O 0.1861(2) 0.4374(2) 0.1870(3)
O2SB O 0.1861(2) 0.5626(2) 0.1870(3)
O2GA O 0.3139(2) 0.0626(2) 0.1870(3)
O2BC O 0.3139(2) -0.0626(2) 0.1870(3)
O2PA O 0.4374(2) 0.1870(3) 0.1861(2)
O2MC O 0.5626(2) 0.1870(3) 0.1861(2)
O2YB O 0.4374(2) 0.3130(3) -0.3139(2)
O2BA O 0.5626(2) 0.3130(3) -0.3139(2)
O3WA O 0.2500 0.2500 -0.2500
O3YA O 0.7500 0.2500 0.2500
C1WA C 0.3248(2) 0.2396(2) -0.0783(2)
C1EA C 0.4217(2) 0.3248(2) 0.2604(2)
C1ZB C 0.5783(2) 0.3248(2) 0.2604(2)
C1V C 0.2396(2) 0.4217(2) 0.1752(2)
C1SB C 0.2396(2) 0.5783(2) 0.1752(2)
C1GA C 0.2604(2) 0.0783(2) 0.1752(2)
C1BC C 0.2604(2) -0.0783(2) 0.1752(2)
C1PA C 0.4217(2) 0.1752(2) 0.2396(2)
C1MC C 0.5783(2) 0.1752(2) 0.2396(2)
C1YB C 0.4217(2) 0.3248(2) -0.2604(2)
C1BA C 0.5783(2) 0.3248(2) -0.2604(2)
C2WA C 0.3366(2) 0.2860(2) -0.03171(18)
C2EA C 0.46829(18) 0.3366(2) 0.2140(2)
C2ZB C 0.53171(18) 0.3366(2) 0.2140(2)
C2V C 0.2860(2) 0.46829(18) 0.1634(2)
C2SB C 0.2860(2) 0.53171(18) 0.1634(2)
C2GA C 0.2140(2) 0.03171(18) 0.1634(2)
C2BC C 0.2140(2) -0.03171(18) 0.1634(2)
C2PA C 0.46829(18) 0.1634(2) 0.2860(2)
C2MC C 0.53171(18) 0.1634(2) 0.2860(2)
C2YB C 0.46829(18) 0.3366(2) -0.2140(2)
C2BA C 0.53171(18) 0.3366(2) -0.2140(2)
C3EA C 0.5000 0.3576(3) 0.1222(4)
C3V C 0.3778(4) 0.5000 0.1424(3)
C3GA C 0.1222(4) 0.0000 0.1424(3)
C3PA C 0.5000 0.1424(3) 0.3778(4)
C3BA C 0.5000 0.3576(3) -0.1222(4)
H1EA H 0.5000 0.387(4) 0.076(4)
H1V H 0.424(4) 0.5000 0.113(4)
H1GA H 0.076(4) 0.0000 0.113(4)
H1PA H 0.5000 0.113(4) 0.424(4)
H1BA H 0.5000 0.387(4) -0.076(4)
loop_
_geom_bond_atom_site_label_1
_geom_bond_atom_site_label_2
_geom_bond_site_symmetry_1
_geom_bond_site_symmetry_2
N1 Zn1 1_555 1_555
Zn1 O1 1_555 1_555
Zn2 O1 1_555 1_555
O1 C1 1_555 1_555
O2 C1 1_555 1_555
O3 Zn2 1_555 1_555
C1 C2 1_555 1_555
C2 N1 1_555 1_555
C3 N1 1_555 1_555
H1 C3 1_555 1_555
N1WA C3 1_555 1_555
N1EA Zn1 1_555 1_555
N1ZB Zn1YA 1_555 1_555
N1V Zn1 1_555 1_555
N1SB Zn1XA 1_555 1_555
N1GA Zn1Q 1_555 1_555
N1BC Zn1NB 1_555 1_555
N1PA Zn1H 1_555 1_555
N1MC Zn1FB 1_555 1_555
N1YB Zn1WA 1_555 1_555
N1BA Zn1B 1_555 1_555
N1QB Zn1WA 1_555 1_555
N1PB Zn1YA 1_555 1_555
N1YA Zn1YA 1_555 1_555
N1XA Zn1XA 1_555 1_555
N1XB Zn1XA 1_555 1_555
Zn1WA N1WA 1_555 1_555
Zn1YA O1ZB 1_555 1_555
Zn1XA O1SB 1_555 1_555
Zn1Q O1GA 1_555 1_555
Zn1NB O1BC 1_555 1_555
Zn1H O1PA 1_555 1_555
Zn1FB O1MC 1_555 1_555
Zn1B O1BA 1_555 1_555
Zn2WA O1WA 1_555 1_555
Zn2O O3 1_555 1_555
Zn2HB O1ZB 1_555 1_555
Zn2D O3 1_555 1_555
Zn2H O3 1_555 1_555
Zn2CB O1SB 1_555 1_555
Zn2XA O1BC 1_555 1_555
Zn2YA O1MC 1_555 1_555
Zn2JB O1YB 1_555 1_555
Zn2M O1BA 1_555 1_555
O1WA Zn1WA 1_555 1_555
O1EA Zn1 1_555 1_555
O1ZB C1ZB 1_555 1_555
O1V Zn1 1_555 1_555
O1SB C1SB 1_555 1_555
O1GA Zn2 1_555 1_555
O1BC C1BC 1_555 1_555
O1PA Zn2 1_555 1_555
O1MC C1MC 1_555 1_555
O1YB Zn1WA 1_555 1_555
O1BA C1BA 1_555 1_555
O1QB Zn1WA 1_555 1_555
O1PB Zn1YA 1_555 1_555
O1YA Zn1YA 1_555 1_555
O1XA Zn1XA 1_555 1_555
O1XB Zn1XA 1_555 1_555
O1DC Zn2WA 1_555 1_555
O1JC Zn2WA 1_555 1_555
O1O Zn1H 1_555 1_555
O1UA Zn2O 1_555 1_555
O1HB Zn1FB 1_555 1_555
O1OC Zn2HB 1_555 1_555
O2WA C1WA 1_555 1_555
O2EA C1EA 1_555 1_555
O2ZB C1ZB 1_555 1_555
O2V C1V 1_555 1_555
O2SB C1SB 1_555 1_555
O2GA C1GA 1_555 1_555
O2BC C1BC 1_555 1_555
O2PA C1PA 1_555 1_555
O2MC C1MC 1_555 1_555
O2YB C1YB 1_555 1_555
O2BA C1BA 1_555 1_555
O3WA Zn2WA 1_555 1_555
O3YA Zn2HB 1_555 1_555
C1WA O1WA 1_555 1_555
C1EA O1EA 1_555 1_555
C1ZB C2ZB 1_555 1_555
C1V O1V 1_555 1_555
C1SB C2SB 1_555 1_555
C1GA O1GA 1_555 1_555
C1BC C2BC 1_555 1_555
C1PA O1PA 1_555 1_555
C1MC C2MC 1_555 1_555
C1YB O1YB 1_555 1_555
C1BA C2BA 1_555 1_555
C2WA C2 1_555 1_555
C2EA N1EA 1_555 1_555
C2ZB N1ZB 1_555 1_555
C2V N1V 1_555 1_555
C2SB N1SB 1_555 1_555
C2GA N1GA 1_555 1_555
C2BC N1BC 1_555 1_555
C2PA N1PA 1_555 1_555
C2MC N1MC 1_555 1_555
C2YB N1YB 1_555 1_555
C2BA N1BA 1_555 1_555
C3EA N1EA 1_555 1_555
C3V N1V 1_555 1_555
C3GA N1GA 1_555 1_555
C3PA N1PA 1_555 1_555
C3BA N1YB 1_555 1_555
H1EA C3EA 1_555 1_555
H1V C3V 1_555 1_555
H1GA C3GA 1_555 1_555
H1PA C3PA 1_555 1_555
H1BA C3BA 1_555 1_555
N1WA C2WA 1_555 1_555
N1ZB C3EA 1_555 1_555
N1SB C3V 1_555 1_555
N1BC C3GA 1_555 1_555
N1MC C3PA 1_555 1_555
N1BA C3BA 1_555 1_555
Zn2O O1EA 1_555 1_555
Zn2O O1O 1_555 1_555
Zn2HB O1HB 1_555 1_555
Zn2D O1V 1_555 1_555
Zn2YA O1YA 1_555 1_555
Zn2YA O3YA 1_555 1_555
Zn2JB O3WA 1_555 1_555
C1WA C2WA 1_555 1_555
C1EA C2EA 1_555 1_555
C1V C2V 1_555 1_555
C1GA C2GA 1_555 1_555
C1PA C2PA 1_555 1_555
C1YB C2YB 1_555 1_555
C2EA C2ZB 1_555 1_555
C2V C2SB 1_555 1_555
C2GA C2BC 1_555 1_555
C2PA C2MC 1_555 1_555
C2YB C2BA 1_555 1_555

#END
