
#######################################################################
#
#                 Cambridge Crystallographic Data Centre
#                                CCDC 
#
#######################################################################
#
# If this CIF has been generated from an entry in the Cambridge 
# Structural Database, then it will include bibliographic, chemical, 
# crystal, experimental, refinement or atomic coordinate data resulting 
# from the CCDC's data processing and validation procedures.
#
#######################################################################

data_FUWYIG
_symmetry_cell_setting           monoclinic
_symmetry_space_group_name_H-M   'C 2/c'
_symmetry_Int_Tables_number      15
_space_group_name_Hall           '-C 2yn'
loop_
_symmetry_equiv_pos_site_id
_symmetry_equiv_pos_as_xyz
1 x,y,z
2 -x,y,1/2-z
3 1/2+x,1/2+y,z
4 1/2-x,1/2+y,1/2-z
5 -x,-y,-z
6 x,-y,1/2+z
7 1/2-x,1/2-y,-z
8 1/2+x,1/2-y,1/2+z
_cell_length_a                   19.692(6)
_cell_length_b                   11.217(4)
_cell_length_c                   27.769(9)
_cell_angle_alpha                90
_cell_angle_beta                 100.813(7)
_cell_angle_gamma                90
_cell_volume                     6024.85
loop_
_atom_site_label
_atom_site_type_symbol
_atom_site_fract_x
_atom_site_fract_y
_atom_site_fract_z
N1 N 0.0000 -0.0536(4) 0.2500
C1 C 0.0091(2) 0.0062(5) 0.29177(16)
H1 H 0.0157 -0.0358 0.3212
Co1 Co 0.0000 0.76072(8) 0.2500
Co2 Co 0.0000 1.0000 0.0000
S1 S 0.27062(6) 0.57733(14) 0.07680(5)
S2 S 0.19854(7) 0.44849(13) 0.06733(5)
O1 O 0.07292(16) 0.8219(3) -0.08057(12)
O2 O 0.02942(15) 0.8255(3) -0.01119(11)
O3 O -0.05024(19) 0.6752(4) -0.10584(13)
O4 O -0.05237(17) 0.4910(3) -0.12591(12)
O5 O 0.2533(2) 0.9803(5) 0.24589(16)
O6 O 0.14722(19) 0.9904(3) 0.21136(13)
O7 O 0.07843(14) 0.7592(3) 0.20813(11)
O8 O 0.04413(15) 0.8154(3) 0.13043(11)
O9 O -0.04189(12) 0.9434(3) 0.06033(9)
H2 H -0.0544 0.9990 0.0765
H3 H -0.0301 0.8856 0.0787
N2 N 0.40099(18) 0.5359(3) 0.45400(13)
N3 N 0.08617(18) 0.7493(4) 0.31278(13)
C2 C 0.2164(3) 0.8536(5) 0.18131(19)
C3 C 0.2833(3) 0.8427(5) 0.1726(2)
H4 H 0.3182 0.8930 0.1883
N4 N 0.0000 0.5721(5) 0.2500
C4 C 0.1628(2) 0.7832(4) 0.15846(16)
N5 N -0.0277(2) 0.5755(4) -0.10017(15)
C5 C 0.2101(2) 0.6698(5) 0.37066(16)
C6 C 0.0000 0.3261(7) 0.2500
C7 C 0.1473(2) 0.6186(4) 0.37373(16)
H5 H 0.1453 0.5557 0.3952
C8 C 0.0878(2) 0.7898(4) 0.16622(18)
C9 C 0.3977(2) 0.5892(4) 0.41066(16)
H6 H 0.4382 0.5970 0.3983
C10 C 0.0885(2) 0.6607(4) 0.34520(16)
H7 H 0.0469 0.6253 0.3485
C11 C 0.0555(2) 0.7751(5) -0.04394(19)
C12 C 0.0000 0.1956(7) 0.2500
C13 C 0.2092(2) 0.7657(4) 0.33960(16)
H8 H 0.2500 0.8054 0.3376
C14 C 0.0412(2) 0.4321(5) -0.04576(17)
H9 H 0.0141 0.3724 -0.0629
C15 C 0.1787(2) 0.6966(4) 0.12702(16)
H10 H 0.1439 0.6464 0.1113
C16 C 0.1470(2) 0.8031(4) 0.31123(15)
H11 H 0.1473 0.8677 0.2903
C17 C 0.3380(2) 0.6328(4) 0.38351(17)
H12 H 0.3387 0.6687 0.3534
C18 C 0.2765(2) 0.6242(4) 0.40026(18)
C19 C 0.0522(2) 0.5107(5) 0.23715(16)
H13 H 0.0894 0.5522 0.2290
C20 C 0.2789(2) 0.5675(5) 0.44499(18)
H14 H 0.2391 0.5582 0.4581
C21 C 0.3418(2) 0.5254(5) 0.46951(17)
H15 H 0.3426 0.4866 0.4992
C22 C 0.2455(3) 0.6829(5) 0.11842(17)
C23 C 0.1218(2) 0.6107(5) 0.00310(17)
H16 H 0.1496 0.6702 0.0199
C24 C 0.0682(2) 0.6430(5) -0.03515(17)
C25 C 0.0524(2) 0.3859(5) 0.23562(17)
H17 H 0.0879 0.3450 0.2249
C26 C 0.0297(2) 0.5521(5) -0.05885(17)
C27 C 0.0937(2) 0.4039(4) -0.00679(18)
H18 H 0.1009 0.3251 0.0033
C28 C 0.1351(2) 0.4931(5) 0.01687(16)
N6 N 0.2050(3) 0.9501(5) 0.21515(18)
C29 C 0.2974(3) 0.7569(5) 0.14075(18)
H19 H 0.3419 0.7490 0.1343
C30 C 0.0089(2) 0.1290(5) 0.29291(17)
H20 H 0.0149 0.1681 0.3230
N1_2 N 0.0000 0.9464(4) 0.2500
C1A C -0.0091(2) 0.0062(5) 0.20823(16)
H1A H -0.0157 -0.0358 0.1788
Co1_2 Co 0.0000 -0.23928(8) 0.2500
Co2C Co 0.5000 0.5000 0.5000
Co2A Co 0.0000 1.0000 0.5000
Co2B Co -0.5000 0.5000 0.0000
S1A S -0.27062(6) 0.57733(14) 0.42320(5)
S2A S -0.19854(7) 0.44849(13) 0.43267(5)
O1A O -0.07292(16) 0.8219(3) 0.58057(12)
O2A O -0.02942(15) 0.8255(3) 0.51119(11)
O2D O -0.02942(15) 1.1745(3) 0.01119(11)
O3A O 0.05024(19) 0.6752(4) 0.60584(13)
O4A O 0.05237(17) 0.4910(3) 0.62591(12)
O5A O -0.2533(2) 0.9803(5) 0.25411(16)
O6A O -0.14722(19) 0.9904(3) 0.28864(13)
O7A O -0.07843(14) 0.7592(3) 0.29187(11)
O8A O -0.04413(15) 0.8154(3) 0.36957(11)
O9D O 0.04189(12) 1.0566(3) -0.06033(9)
H2D H 0.0544 1.0010 -0.0765
H3D H 0.0301 1.1144 -0.0787
N2A N -0.40099(18) 0.5359(3) 0.04600(13)
N2C N 0.09901(18) 1.0359(3) 0.04600(13)
N2G N -0.09901(18) 0.9641(3) -0.04600(13)
N3A N -0.08617(18) 0.7493(4) 0.18722(13)
C2A C -0.2164(3) 0.8536(5) 0.31869(19)
C3A C -0.2833(3) 0.8427(5) 0.3274(2)
H4A H -0.3182 0.8930 0.3117
C4A C -0.1628(2) 0.7832(4) 0.34154(16)
N5A N 0.0277(2) 0.5755(4) 0.60017(15)
C5A C -0.2101(2) 0.6698(5) 0.12934(16)
C7A C -0.1473(2) 0.6186(4) 0.12627(16)
H5A H -0.1453 0.5557 0.1048
C8A C -0.0878(2) 0.7898(4) 0.33378(18)
C9A C -0.3977(2) 0.5892(4) 0.08934(16)
H6A H -0.4382 0.5970 0.1017
C10A C -0.0885(2) 0.6607(4) 0.15480(16)
H7A H -0.0469 0.6253 0.1515
C11A C -0.0555(2) 0.7751(5) 0.54394(19)
C13A C -0.2092(2) 0.7657(4) 0.16040(16)
H8A H -0.2500 0.8054 0.1624
C14A C -0.0412(2) 0.4321(5) 0.54576(17)
H9A H -0.0141 0.3724 0.5629
C15A C -0.1787(2) 0.6966(4) 0.37298(16)
H10A H -0.1439 0.6464 0.3887
C16A C -0.1470(2) 0.8031(4) 0.18877(15)
H11A H -0.1473 0.8677 0.2097
C17A C -0.3380(2) 0.6328(4) 0.11649(17)
H12A H -0.3387 0.6687 0.1466
C18A C -0.2765(2) 0.6242(4) 0.09974(18)
C19A C -0.0522(2) 0.5107(5) 0.26285(16)
H13A H -0.0894 0.5522 0.2710
C20A C -0.2789(2) 0.5675(5) 0.05501(18)
H14A H -0.2391 0.5582 0.0419
C21A C -0.3418(2) 0.5254(5) 0.03049(17)
H15A H -0.3426 0.4866 0.0008
C22A C -0.2455(3) 0.6829(5) 0.38158(17)
C23A C -0.1218(2) 0.6107(5) 0.49690(17)
H16A H -0.1496 0.6702 0.4801
C24A C -0.0682(2) 0.6430(5) 0.53515(17)
C25A C -0.0524(2) 0.3859(5) 0.26438(17)
H17A H -0.0879 0.3450 0.2751
C26A C -0.0297(2) 0.5521(5) 0.55885(17)
C27A C -0.0937(2) 0.4039(4) 0.50679(18)
H18A H -0.1009 0.3251 0.4967
C28A C -0.1351(2) 0.4931(5) 0.48313(16)
N6A N -0.2050(3) 0.9501(5) 0.28485(18)
C29A C -0.2974(3) 0.7569(5) 0.35925(18)
H19A H -0.3419 0.7490 0.3657
C30A C -0.0089(2) 0.1290(5) 0.20709(17)
H20A H -0.0149 0.1681 0.1770
loop_
_geom_bond_atom_site_label_1
_geom_bond_atom_site_label_2
_geom_bond_site_symmetry_1
_geom_bond_site_symmetry_2
N1 C1 1_555 1_555
C1 H1 1_555 1_555
Co1 O7 1_555 1_555
Co2 O2 1_555 1_555
S1 S2 1_555 1_555
S2 C28 1_555 1_555
O1 C11 1_555 1_555
O2 C11 1_555 1_555
O3 N5 1_555 1_555
O4 N5 1_555 1_555
O5 N6 1_555 1_555
O6 N6 1_555 1_555
O7 C8 1_555 1_555
O8 C8 1_555 1_555
O9 Co2 1_555 1_555
H2 O9 1_555 1_555
H3 O9 1_555 1_555
N2 C9 1_555 1_555
N3 Co1 1_555 1_555
C2 C3 1_555 1_555
C3 H4 1_555 1_555
N4 Co1 1_555 1_555
C4 C2 1_555 1_555
N5 C26 1_555 1_555
C5 C7 1_555 1_555
C6 C12 1_555 1_555
C7 H5 1_555 1_555
C8 C4 1_555 1_555
C9 H6 1_555 1_555
C10 N3 1_555 1_555
H7 C10 1_555 1_555
C11 C24 1_555 1_555
C12 C30 1_555 1_555
C13 C5 1_555 1_555
H8 C13 1_555 1_555
C14 H9 1_555 1_555
C15 C4 1_555 1_555
H10 C15 1_555 1_555
C16 N3 1_555 1_555
H11 C16 1_555 1_555
C17 C9 1_555 1_555
H12 C17 1_555 1_555
C18 C5 1_555 1_555
C19 N4 1_555 1_555
H13 C19 1_555 1_555
C20 C18 1_555 1_555
H14 C20 1_555 1_555
C21 N2 1_555 1_555
H15 C21 1_555 1_555
C22 S1 1_555 1_555
C23 H16 1_555 1_555
C24 C23 1_555 1_555
C25 C6 1_555 1_555
H17 C25 1_555 1_555
C26 C14 1_555 1_555
C27 C14 1_555 1_555
H18 C27 1_555 1_555
C28 C23 1_555 1_555
N6 C2 1_555 1_555
C29 C3 1_555 1_555
H19 C29 1_555 1_555
C30 C1 1_555 1_555
H20 C30 1_555 1_555
N1_2 Co1 1_555 1_555
C1A N1 1_555 1_555
H1A C1A 1_555 1_555
Co1_2 N1 1_555 1_555
Co2C N2 1_555 1_555
Co2A O2A 1_555 1_555
Co2B N2A 1_555 1_555
S1A S2A 1_555 1_555
S2A C28A 1_555 1_555
O1A C11A 1_555 1_555
O2A C11A 1_555 1_555
O2D Co2 1_555 1_555
O3A N5A 1_555 1_555
O4A N5A 1_555 1_555
O5A N6A 1_555 1_555
O6A N6A 1_555 1_555
O7A Co1 1_555 1_555
O8A C8A 1_555 1_555
O9D Co2 1_555 1_555
H2D O9D 1_555 1_555
H3D O9D 1_555 1_555
N2A C9A 1_555 1_555
N2C Co2 1_555 1_555
N2G Co2 1_555 1_555
N3A Co1 1_555 1_555
C2A C3A 1_555 1_555
C3A H4A 1_555 1_555
C4A C2A 1_555 1_555
N5A C26A 1_555 1_555
C5A C7A 1_555 1_555
C7A H5A 1_555 1_555
C8A O7A 1_555 1_555
C9A H6A 1_555 1_555
C10A N3A 1_555 1_555
H7A C10A 1_555 1_555
C11A C24A 1_555 1_555
C13A C5A 1_555 1_555
H8A C13A 1_555 1_555
C14A H9A 1_555 1_555
C15A C4A 1_555 1_555
H10A C15A 1_555 1_555
C16A N3A 1_555 1_555
H11A C16A 1_555 1_555
C17A C9A 1_555 1_555
H12A C17A 1_555 1_555
C18A C5A 1_555 1_555
C19A N4 1_555 1_555
H13A C19A 1_555 1_555
C20A C18A 1_555 1_555
H14A C20A 1_555 1_555
C21A N2A 1_555 1_555
H15A C21A 1_555 1_555
C22A S1A 1_555 1_555
C23A H16A 1_555 1_555
C24A C23A 1_555 1_555
C25A C6 1_555 1_555
H17A C25A 1_555 1_555
C26A C14A 1_555 1_555
C27A C14A 1_555 1_555
H18A C27A 1_555 1_555
C28A C23A 1_555 1_555
N6A C2A 1_555 1_555
C29A C3A 1_555 1_555
H19A C29A 1_555 1_555
C30A C12 1_555 1_555
H20A C30A 1_555 1_555
C7 C10 1_555 1_555
C13 C16 1_555 1_555
C15 C22 1_555 1_555
C17 C18 1_555 1_555
C19 C25 1_555 1_555
C20 C21 1_555 1_555
C22 C29 1_555 1_555
C24 C26 1_555 1_555
C27 C28 1_555 1_555
C1A C30A 1_555 1_555
C4A C8A 1_555 1_555
C7A C10A 1_555 1_555
C13A C16A 1_555 1_555
C15A C22A 1_555 1_555
C17A C18A 1_555 1_555
C19A C25A 1_555 1_555
C20A C21A 1_555 1_555
C22A C29A 1_555 1_555
C24A C26A 1_555 1_555
C27A C28A 1_555 1_555

#END
