
#######################################################################
#
#                 Cambridge Crystallographic Data Centre
#                                CCDC 
#
#######################################################################
#
# If this CIF has been generated from an entry in the Cambridge 
# Structural Database, then it will include bibliographic, chemical, 
# crystal, experimental, refinement or atomic coordinate data resulting 
# from the CCDC's data processing and validation procedures.
#
#######################################################################

data_FUWYEC
_symmetry_cell_setting           monoclinic
_symmetry_space_group_name_H-M   'C 2/c'
_symmetry_Int_Tables_number      15
_space_group_name_Hall           '-C 2yn'
loop_
_symmetry_equiv_pos_site_id
_symmetry_equiv_pos_as_xyz
1 x,y,z
2 -x,y,1/2-z
3 1/2+x,1/2+y,z
4 1/2-x,1/2+y,1/2-z
5 -x,-y,-z
6 x,-y,1/2+z
7 1/2-x,1/2-y,-z
8 1/2+x,1/2-y,1/2+z
_cell_length_a                   19.624(6)
_cell_length_b                   11.146(3)
_cell_length_c                   27.741(8)
_cell_angle_alpha                90
_cell_angle_beta                 101.201(9)
_cell_angle_gamma                90
_cell_volume                     5952.18
loop_
_atom_site_label
_atom_site_type_symbol
_atom_site_fract_x
_atom_site_fract_y
_atom_site_fract_z
C1 C 1.0101(2) 0.9987(5) 0.79193(15)
Ni1 Ni 1.0000 0.24404(8) 0.7500
Ni2 Ni 1.0000 0.0000 1.0000
S1 S 0.72809(7) 0.42500(14) 0.92198(5)
S2 S 0.80130(8) 0.55524(13) 0.93256(5)
O1 O 0.92634(18) 0.1740(3) 1.07903(11)
O2 O 0.97220(16) 0.1747(3) 1.01099(10)
O3 O 1.0496(2) 0.3226(4) 1.10646(14)
O4 O 1.05385(18) 0.5070(3) 1.12725(12)
O5 O 0.95754(17) 0.1881(3) 0.86957(11)
O6 O 0.92152(15) 0.2449(3) 0.79142(10)
O7 O 0.8535(2) 0.0102(3) 0.78830(13)
O8 O 0.7464(2) 0.0180(5) 0.75320(16)
O9 O 0.95836(14) -0.0601(2) 1.05902(9)
H1 H 0.9846 -0.1007 1.0811
H2 H 0.9484 0.0030 1.0727
N1 N 1.0000 1.0612(5) 0.7500
N2 N 1.0000 0.4310(5) 0.7500
N3 N 0.9156(2) 0.2559(4) 0.68909(13)
N4 N 0.5968(2) 0.4668(4) 0.54545(13)
N5 N 1.0282(2) 0.4238(4) 1.10041(15)
N6 N 0.7950(3) 0.0517(5) 0.78446(18)
C2 C 0.6564(3) 0.4776(5) 0.52967(17)
H3 H 0.6555 0.5156 0.4997
C3 C 0.7192(3) 0.4360(5) 0.55495(17)
H4 H 0.7589 0.4459 0.5417
C4 C 0.7239(3) 0.3797(4) 0.59968(17)
C5 C 0.6626(3) 0.3677(4) 0.61700(16)
H5 H 0.6623 0.3305 0.6470
C6 C 0.6015(3) 0.4124(4) 0.58851(16)
H6 H 0.5608 0.4035 0.6007
C7 C 0.7892(3) 0.3316(5) 0.62866(16)
C8 C 0.7919(2) 0.2364(5) 0.66094(15)
H7 H 0.7515 0.1953 0.6634
C9 C 0.8546(3) 0.2022(4) 0.68964(15)
H8 H 0.8545 0.1375 0.7108
C10 C 0.8524(3) 0.3839(4) 0.62582(16)
H9 H 0.8543 0.4461 0.6038
C11 C 0.9132(2) 0.3432(4) 0.65599(16)
H10 H 0.9548 0.3793 0.6528
C12 C 1.0518(2) 0.4933(5) 0.73716(16)
H11 H 1.0886 0.4513 0.7285
C13 C 1.0534(3) 0.6162(5) 0.73622(17)
H12 H 1.0900 0.6563 0.7264
C14 C 1.0000 0.6793(7) 0.7500
C15 C 1.0000 0.8118(7) 0.7500
C16 C 1.0100(2) 0.8760(4) 0.79402(16)
H13 H 1.0164 0.8364 0.8241
H14 H 1.0175 1.0411 0.8215
C17 C 0.9120(3) 0.2154(4) 0.83349(17)
C18 C 0.8375(3) 0.2201(5) 0.84149(15)
C19 C 0.7831(3) 0.1472(5) 0.81847(17)
C20 C 0.7158(3) 0.1575(5) 0.82699(19)
H15 H 0.6809 0.1063 0.8115
C21 C 0.7018(3) 0.2443(5) 0.85866(17)
H16 H 0.6571 0.2528 0.8648
C22 C 0.7542(3) 0.3192(4) 0.88142(16)
C23 C 0.8201(2) 0.3072(4) 0.87252(15)
H17 H 0.8544 0.3596 0.8879
C24 C 0.8656(3) 0.5087(5) 0.98339(16)
C25 C 0.8783(3) 0.3896(5) 0.99661(17)
H18 H 0.8504 0.3299 0.9795
C26 C 0.9321(3) 0.3581(5) 1.03510(17)
C27 C 0.9447(2) 0.2235(5) 1.04370(17)
C28 C 0.9716(3) 0.4510(5) 1.05939(17)
C29 C 0.9601(3) 0.5688(5) 1.04664(17)
H19 H 0.9877 0.6283 1.0640
C30 C 0.9073(3) 0.5990(5) 1.00791(18)
H20 H 0.8997 0.6787 0.9984
C1A C 0.9899(2) 0.9987(5) 0.70807(15)
Ni1_2 Ni 1.0000 1.24404(8) 0.7500
Ni2C Ni 0.5000 0.5000 0.5000
Ni2A Ni 1.0000 0.0000 0.5000
Ni2B Ni 1.5000 0.5000 1.0000
S1A S 1.27191(7) 0.42500(14) 0.57802(5)
S2A S 1.19870(8) 0.55524(13) 0.56744(5)
O1A O 1.07366(18) 0.1740(3) 0.42097(11)
O2A O 1.02780(16) 0.1747(3) 0.48901(10)
O2D O 1.02780(16) -0.1747(3) 0.98901(10)
O3A O 0.9504(2) 0.3226(4) 0.39354(14)
O4A O 0.94615(18) 0.5070(3) 0.37275(12)
O5A O 1.04246(17) 0.1881(3) 0.63043(11)
O6A O 1.07848(15) 0.2449(3) 0.70858(10)
O7A O 1.1465(2) 0.0102(3) 0.71170(13)
O8A O 1.2536(2) 0.0180(5) 0.74680(16)
O9D O 1.04164(14) 0.0601(2) 0.94098(9)
H1D H 1.0154 0.1007 0.9189
H2D H 1.0516 -0.0030 0.9273
N1_2 N 1.0000 0.0612(5) 0.7500
N3A N 1.0844(2) 0.2559(4) 0.81091(13)
N4A N 1.4032(2) 0.4668(4) 0.95455(13)
N4C N 0.9032(2) -0.0332(4) 0.95455(13)
N4G N 1.0968(2) 0.0332(4) 1.04545(13)
N5A N 0.9718(2) 0.4238(4) 0.39959(15)
N6A N 1.2050(3) 0.0517(5) 0.71554(18)
C2A C 1.3436(3) 0.4776(5) 0.97033(17)
H3A H 1.3445 0.5156 1.0003
C3A C 1.2808(3) 0.4360(5) 0.94505(17)
H4A H 1.2411 0.4459 0.9583
C4A C 1.2761(3) 0.3797(4) 0.90032(17)
C5A C 1.3374(3) 0.3677(4) 0.88300(16)
H5A H 1.3377 0.3305 0.8530
C6A C 1.3985(3) 0.4124(4) 0.91149(16)
H6A H 1.4392 0.4035 0.8993
C7A C 1.2108(3) 0.3316(5) 0.87134(16)
C8A C 1.2081(2) 0.2364(5) 0.83906(15)
H7A H 1.2485 0.1953 0.8366
C9A C 1.1454(3) 0.2022(4) 0.81036(15)
H8A H 1.1455 0.1375 0.7892
C10A C 1.1476(3) 0.3839(4) 0.87418(16)
H9A H 1.1457 0.4461 0.8962
C11A C 1.0868(2) 0.3432(4) 0.84401(16)
H10A H 1.0452 0.3793 0.8472
C12A C 0.9482(2) 0.4933(5) 0.76284(16)
H11A H 0.9114 0.4513 0.7715
C13A C 0.9466(3) 0.6162(5) 0.76378(17)
H12A H 0.9100 0.6563 0.7736
C16A C 0.9900(2) 0.8760(4) 0.70598(16)
H13A H 0.9836 0.8364 0.6759
H14A H 0.9825 1.0411 0.6785
C17A C 1.0880(3) 0.2154(4) 0.66651(17)
C18A C 1.1625(3) 0.2201(5) 0.65851(15)
C19A C 1.2169(3) 0.1472(5) 0.68153(17)
C20A C 1.2842(3) 0.1575(5) 0.67301(19)
H15A H 1.3191 0.1063 0.6885
C21A C 1.2982(3) 0.2443(5) 0.64134(17)
H16A H 1.3429 0.2528 0.6352
C22A C 1.2458(3) 0.3192(4) 0.61858(16)
C23A C 1.1799(2) 0.3072(4) 0.62748(15)
H17A H 1.1456 0.3596 0.6121
C24A C 1.1344(3) 0.5087(5) 0.51661(16)
C25A C 1.1217(3) 0.3896(5) 0.50339(17)
H18A H 1.1496 0.3299 0.5205
C26A C 1.0679(3) 0.3581(5) 0.46490(17)
C27A C 1.0553(2) 0.2235(5) 0.45630(17)
C28A C 1.0284(3) 0.4510(5) 0.44061(17)
C29A C 1.0399(3) 0.5688(5) 0.45336(17)
H19A H 1.0123 0.6283 0.4360
C30A C 1.0927(3) 0.5990(5) 0.49209(18)
H20A H 1.1003 0.6787 0.5016
loop_
_geom_bond_atom_site_label_1
_geom_bond_atom_site_label_2
_geom_bond_site_symmetry_1
_geom_bond_site_symmetry_2
C1 N1 1_555 1_555
Ni1 O6 1_555 1_555
Ni2 O2 1_555 1_555
S1 S2 1_555 1_555
S2 C24 1_555 1_555
O1 C27 1_555 1_555
O2 C27 1_555 1_555
O3 N5 1_555 1_555
O4 N5 1_555 1_555
O5 C17 1_555 1_555
O6 C17 1_555 1_555
O7 N6 1_555 1_555
O8 N6 1_555 1_555
O9 Ni2 1_555 1_555
H1 O9 1_555 1_555
H2 O9 1_555 1_555
N1 C1A 1_555 1_555
N2 Ni1 1_555 1_555
N3 Ni1 1_555 1_555
N4 C2 1_555 1_555
N5 C28 1_555 1_555
N6 C19 1_555 1_555
C2 H3 1_555 1_555
C3 C2 1_555 1_555
H4 C3 1_555 1_555
C4 C3 1_555 1_555
C5 C4 1_555 1_555
H5 C5 1_555 1_555
C6 N4 1_555 1_555
H6 C6 1_555 1_555
C7 C4 1_555 1_555
C8 C7 1_555 1_555
H7 C8 1_555 1_555
C9 N3 1_555 1_555
H8 C9 1_555 1_555
C10 C7 1_555 1_555
H9 C10 1_555 1_555
C11 N3 1_555 1_555
H10 C11 1_555 1_555
C12 N2 1_555 1_555
H11 C12 1_555 1_555
C13 C12 1_555 1_555
H12 C13 1_555 1_555
C14 C13 1_555 1_555
C15 C14 1_555 1_555
C16 C1 1_555 1_555
H13 C16 1_555 1_555
H14 C1 1_555 1_555
C17 C18 1_555 1_555
C18 C19 1_555 1_555
C19 C20 1_555 1_555
C20 H15 1_555 1_555
C21 C20 1_555 1_555
H16 C21 1_555 1_555
C22 S1 1_555 1_555
C23 C18 1_555 1_555
H17 C23 1_555 1_555
C24 C25 1_555 1_555
C25 H18 1_555 1_555
C26 C25 1_555 1_555
C27 C26 1_555 1_555
C28 C26 1_555 1_555
C29 C28 1_555 1_555
H19 C29 1_555 1_555
C30 C24 1_555 1_555
H20 C30 1_555 1_555
C1A C16A 1_555 1_555
Ni1_2 N1 1_555 1_555
Ni2C N4 1_555 1_555
Ni2A O2A 1_555 1_555
Ni2B N4A 1_555 1_555
S1A S2A 1_555 1_555
S2A C24A 1_555 1_555
O1A C27A 1_555 1_555
O2A C27A 1_555 1_555
O2D Ni2 1_555 1_555
O3A N5A 1_555 1_555
O4A N5A 1_555 1_555
O5A C17A 1_555 1_555
O6A Ni1 1_555 1_555
O7A N6A 1_555 1_555
O8A N6A 1_555 1_555
O9D Ni2 1_555 1_555
H1D O9D 1_555 1_555
H2D O9D 1_555 1_555
N1_2 Ni1 1_555 1_555
N3A Ni1 1_555 1_555
N4A C2A 1_555 1_555
N4C Ni2 1_555 1_555
N4G Ni2 1_555 1_555
N5A C28A 1_555 1_555
N6A C19A 1_555 1_555
C2A H3A 1_555 1_555
C3A C2A 1_555 1_555
H4A C3A 1_555 1_555
C4A C3A 1_555 1_555
C5A C4A 1_555 1_555
H5A C5A 1_555 1_555
C6A N4A 1_555 1_555
H6A C6A 1_555 1_555
C7A C4A 1_555 1_555
C8A C7A 1_555 1_555
H7A C8A 1_555 1_555
C9A N3A 1_555 1_555
H8A C9A 1_555 1_555
C10A C7A 1_555 1_555
H9A C10A 1_555 1_555
C11A N3A 1_555 1_555
H10A C11A 1_555 1_555
C12A N2 1_555 1_555
H11A C12A 1_555 1_555
C13A C14 1_555 1_555
H12A C13A 1_555 1_555
C16A C15 1_555 1_555
H13A C16A 1_555 1_555
H14A C1A 1_555 1_555
C17A O6A 1_555 1_555
C18A C17A 1_555 1_555
C19A C18A 1_555 1_555
C20A C19A 1_555 1_555
H15A C20A 1_555 1_555
C21A C20A 1_555 1_555
H16A C21A 1_555 1_555
C22A S1A 1_555 1_555
C23A C18A 1_555 1_555
H17A C23A 1_555 1_555
C24A C25A 1_555 1_555
C25A H18A 1_555 1_555
C26A C25A 1_555 1_555
C27A C26A 1_555 1_555
C28A C26A 1_555 1_555
C29A C28A 1_555 1_555
H19A C29A 1_555 1_555
C30A C24A 1_555 1_555
H20A C30A 1_555 1_555
C5 C6 1_555 1_555
C8 C9 1_555 1_555
C10 C11 1_555 1_555
C15 C16 1_555 1_555
C21 C22 1_555 1_555
C22 C23 1_555 1_555
C29 C30 1_555 1_555
C5A C6A 1_555 1_555
C8A C9A 1_555 1_555
C10A C11A 1_555 1_555
C12A C13A 1_555 1_555
C21A C22A 1_555 1_555
C22A C23A 1_555 1_555
C29A C30A 1_555 1_555

#END
