
#######################################################################
#
#                 Cambridge Crystallographic Data Centre
#                                CCDC 
#
#######################################################################
#
# If this CIF has been generated from an entry in the Cambridge 
# Structural Database, then it will include bibliographic, chemical, 
# crystal, experimental, refinement or atomic coordinate data resulting 
# from the CCDC's data processing and validation procedures.
#
#######################################################################

data_FUXBUX
_symmetry_cell_setting           triclinic
_symmetry_space_group_name_H-M   'P -1'
_symmetry_Int_Tables_number      2
_space_group_name_Hall           '-P 1'
loop_
_symmetry_equiv_pos_site_id
_symmetry_equiv_pos_as_xyz
1 x,y,z
2 -x,-y,-z
_cell_length_a                   8.1317(5)
_cell_length_b                   11.4097(7)
_cell_length_c                   14.6994(10)
_cell_angle_alpha                106.4710(18)
_cell_angle_beta                 101.9130(18)
_cell_angle_gamma                99.8710(17)
_cell_volume                     1240.65
loop_
_atom_site_label
_atom_site_type_symbol
_atom_site_fract_x
_atom_site_fract_y
_atom_site_fract_z
Cs1 Cs 0.368806(16) 0.485110(12) 0.366311(9)
Br1 Br 0.51202(4) 0.16887(3) -0.01666(2)
O1 O -0.00782(19) 0.34636(13) 0.25747(11)
O2 O 0.32548(19) 0.28933(13) 0.47322(11)
O3 O -0.1695(2) 0.06481(14) 0.42184(12)
N1 N 0.0726(2) 0.16660(15) 0.27236(12)
N2 N 0.2599(2) 0.17761(17) 0.57200(13)
N3 N -0.3067(2) 0.37376(18) 0.42764(14)
C1 C -0.1043(3) 0.11910(19) 0.37098(15)
C2 C 0.3288(3) 0.27976(19) 0.66268(15)
C3 C -0.1277(3) 0.22873(18) 0.35165(14)
C4 C -0.2268(3) 0.30831(19) 0.39281(15)
C5 C 0.1745(3) 0.16001(18) 0.20357(15)
C6 C -0.0210(3) 0.25747(18) 0.28966(14)
C7 C 0.0313(3) 0.07170(19) 0.31944(15)
C8 C 0.2446(3) 0.37742(19) 0.68289(15)
C9 C 0.2633(3) 0.18873(19) 0.48387(15)
C10 C 0.3181(3) 0.4777(2) 0.77104(16)
H1 H 0.2661 0.5469 0.7850
C11 C 0.4767(3) 0.2777(2) 0.73079(17)
C12 C 0.1858(3) 0.06663(19) 0.39779(15)
H2 H 0.1472 -0.0016 0.4235
H3 H 0.2774 0.0448 0.3658
C13 C 0.0995(3) 0.1576(2) 0.10892(16)
H4 H -0.0205 0.1542 0.0890
C14 C 0.5418(3) 0.3782(2) 0.81919(17)
H5 H 0.6402 0.3778 0.8668
C15 C 0.0780(3) 0.3734(2) 0.61318(16)
H6 H 0.0278 0.4410 0.6448
H7 H -0.0037 0.2918 0.5963
H8 H 0.1016 0.3849 0.5531
C16 C 0.4650(3) 0.4782(2) 0.83837(16)
H9 H 0.5132 0.5475 0.8978
C17 C -0.0486(3) -0.0592(2) 0.24213(16)
H10 H -0.1492 -0.0559 0.1939
H11 H -0.0853 -0.1194 0.2745
H12 H 0.0377 -0.0862 0.2086
C18 C 0.3726(3) 0.1621(2) 0.07215(17)
C19 C 0.4492(3) 0.1619(2) 0.16478(17)
H13 H 0.5680 0.1611 0.1830
C20 C 0.3495(3) 0.1628(2) 0.23143(16)
H14 H 0.4015 0.1654 0.2963
C21 C 0.1998(3) 0.1603(2) 0.04343(17)
H15 H 0.1495 0.1608 -0.0208
C22 C 0.5643(4) 0.1704(2) 0.7083(2)
H16 H 0.5975 0.1628 0.6469
H17 H 0.4842 0.0917 0.7012
H18 H 0.6681 0.1871 0.7623
H19 H 0.231(3) 0.110(3) 0.5753(19)
Cs1_2 Cs -0.631194(16) 0.485110(12) 0.366311(9)
Cs1A Cs -0.368806(16) 0.514890(12) 0.633689(9)
Cs1A_2 Cs 0.631194(16) 0.514890(12) 0.633689(9)
O2A O 0.67452(19) 0.71067(13) 0.52678(11)
N3_2 N 0.6933(2) 0.37376(18) 0.42764(14)
N3A N 0.3067(2) 0.62624(18) 0.57236(14)
C2A C 0.6712(3) 0.72024(19) 0.33732(15)
C8A C 0.7554(3) 0.62258(19) 0.31711(15)
C10A C 0.6819(3) 0.5223(2) 0.22896(16)
C11A C 0.5233(3) 0.7223(2) 0.26921(17)
C14A C 0.4582(3) 0.6218(2) 0.18081(17)
C16A C 0.5350(3) 0.5218(2) 0.16163(16)
O4 O -0.0684(2) 0.36746(17) -0.04279(13)
C23 C -0.0311(4) 0.4304(3) 0.06060(19)
H20 H 0.0879 0.4295 0.0932
H21 H -0.1128 0.3849 0.0879
C24 C 0.0462(4) 0.4360(3) -0.0821(2)
H22 H 0.0182 0.3943 -0.1543
H23 H 0.1671 0.4352 -0.0531
O4A O 0.0684(2) 0.63254(17) 0.04279(13)
C23A C 0.0311(4) 0.5696(3) -0.06060(19)
H20A H -0.0879 0.5705 -0.0932
H21A H 0.1128 0.6151 -0.0879
C24A C -0.0462(4) 0.5640(3) 0.0821(2)
H22A H -0.0182 0.6057 0.1543
H23A H -0.1671 0.5648 0.0531
loop_
_geom_bond_atom_site_label_1
_geom_bond_atom_site_label_2
_geom_bond_site_symmetry_1
_geom_bond_site_symmetry_2
Cs1 O1 1_555 1_555
Br1 C18 1_555 1_555
O1 C6 1_555 1_555
O2 Cs1 1_555 1_555
O3 C1 1_555 1_555
N1 C5 1_555 1_555
N2 C2 1_555 1_555
N3 C4 1_555 1_555
C1 C3 1_555 1_555
C2 C8 1_555 1_555
C3 C4 1_555 1_555
C5 Cs1 1_555 1_555
C6 N1 1_555 1_555
C7 N1 1_555 1_555
C8 C10 1_555 1_555
C9 O2 1_555 1_555
C10 H1 1_555 1_555
C11 C2 1_555 1_555
C12 C7 1_555 1_555
H2 C12 1_555 1_555
H3 C12 1_555 1_555
C13 C5 1_555 1_555
H4 C13 1_555 1_555
C14 C11 1_555 1_555
H5 C14 1_555 1_555
C15 C8 1_555 1_555
H6 C15 1_555 1_555
H7 C15 1_555 1_555
H8 C15 1_555 1_555
C16 C10 1_555 1_555
H9 C16 1_555 1_555
C17 C7 1_555 1_555
H10 C17 1_555 1_555
H11 C17 1_555 1_555
H12 C17 1_555 1_555
C18 C19 1_555 1_555
C19 H13 1_555 1_555
C20 Cs1 1_555 1_555
H14 C20 1_555 1_555
C21 C13 1_555 1_555
H15 C21 1_555 1_555
C22 C11 1_555 1_555
H16 C22 1_555 1_555
H17 C22 1_555 1_555
H18 C22 1_555 1_555
H19 N2 1_555 1_555
O4 C23 1_555 1_555
C23 H20 1_555 1_555
H21 C23 1_555 1_555
C24 O4 1_555 1_555
H22 C24 1_555 1_555
H23 C24 1_555 1_555
Cs1_2 N3 1_555 1_555
Cs1A N3 1_555 1_555
Cs1A_2 O2 1_555 1_555
O2A Cs1 1_555 1_555
N3_2 Cs1 1_555 1_555
N3A Cs1 1_555 1_555
C2A Cs1 1_555 1_555
C8A Cs1 1_555 1_555
C10A Cs1 1_555 1_555
C11A Cs1 1_555 1_555
C14A Cs1 1_555 1_555
C16A Cs1 1_555 1_555
O4A C23A 1_555 1_555
C23A C24 1_555 1_555
H20A C23A 1_555 1_555
H21A C23A 1_555 1_555
C24A C23 1_555 1_555
H22A C24A 1_555 1_555
H23A C24A 1_555 1_555
N2 C9 1_555 1_555
C1 C7 1_555 1_555
C2 Cs1A_2 1_555 1_555
C3 C6 1_555 1_555
C5 C20 1_555 1_555
C8 Cs1A_2 1_555 1_555
C9 C12 1_555 1_555
C10 Cs1A_2 1_555 1_555
C11 Cs1A_2 1_555 1_555
C14 C16 1_555 1_555
C14 Cs1A_2 1_555 1_555
C16 Cs1A_2 1_555 1_555
C18 C21 1_555 1_555
C19 C20 1_555 1_555
Cs1A_2 O2A 1_555 1_555
Cs1A_2 N3_2 1_555 1_555
Cs1A_2 N3A 1_555 1_555
C2A C8A 1_555 1_555
C2A C11A 1_555 1_555
C8A C10A 1_555 1_555
C10A C16A 1_555 1_555
C11A C14A 1_555 1_555
C14A C16A 1_555 1_555
O4A C24A 1_555 1_555

#END
