
#######################################################################
#
#                 Cambridge Crystallographic Data Centre
#                                CCDC 
#
#######################################################################
#
# If this CIF has been generated from an entry in the Cambridge 
# Structural Database, then it will include bibliographic, chemical, 
# crystal, experimental, refinement or atomic coordinate data resulting 
# from the CCDC's data processing and validation procedures.
#
#######################################################################

data_FUXCAE
_symmetry_cell_setting           monoclinic
_symmetry_space_group_name_H-M   'P 21/n'
_symmetry_Int_Tables_number      14
_space_group_name_Hall           '-P 2yn'
loop_
_symmetry_equiv_pos_site_id
_symmetry_equiv_pos_as_xyz
1 x,y,z
2 1/2-x,1/2+y,1/2-z
3 -x,-y,-z
4 1/2+x,1/2-y,1/2+z
_cell_length_a                   10.282(3)
_cell_length_b                   16.864(5)
_cell_length_c                   13.621(4)
_cell_angle_alpha                90
_cell_angle_beta                 107.265(4)
_cell_angle_gamma                90
_cell_volume                     2255.4
loop_
_atom_site_label
_atom_site_type_symbol
_atom_site_fract_x
_atom_site_fract_y
_atom_site_fract_z
Ag1 Ag 0.28598(2) 0.023983(13) 0.462285(15)
S1 S 0.78898(7) -0.08188(4) -0.03485(5)
S2 S 0.96465(7) 0.03651(4) -0.25036(5)
S3 S 0.58629(7) 0.03888(4) 0.16219(5)
N1 N 0.3999(2) 0.00577(14) 0.35720(17)
C1 C 0.4578(3) -0.01044(16) 0.30096(18)
C2 C 0.5299(3) -0.03197(16) 0.23055(18)
C3 C 0.6543(2) -0.03281(15) 0.10206(17)
C4 C 0.6332(3) -0.10690(16) 0.1347(2)
H1 H 0.6630 -0.1530 0.1108
C5 C 0.5619(3) -0.10640(17) 0.2082(2)
H2 H 0.5392 -0.1519 0.2381
C6 C 0.7229(2) -0.01013(14) 0.02771(17)
C7 C 0.7454(3) 0.06372(15) -0.00362(19)
H3 H 0.7169 0.1098 0.0213
C8 C 0.8161(3) 0.06333(16) -0.07746(19)
H4 H 0.8395 0.1093 -0.1060
C9 C 0.8470(2) -0.01054(15) -0.10307(17)
C10 C 0.9210(2) -0.03359(15) -0.17375(17)
C11 C 1.0454(2) -0.03427(16) -0.30277(18)
C12 C 1.0389(3) -0.10723(17) -0.2624(2)
H5 H 1.0777 -0.1524 -0.2812
C13 C 0.9674(3) -0.10700(16) -0.1894(2)
H6 H 0.9530 -0.1523 -0.1550
C14 C 1.1125(3) -0.01279(17) -0.37581(19)
N2 N 1.1666(2) 0.00427(15) -0.43508(17)
B1 B 0.3153(4) 0.2153(2) 0.5261(3)
F1 F 0.2048(3) 0.19233(18) 0.4508(2)
F2 F 0.2814(2) 0.25139(13) 0.60541(18)
F3 F 0.3971(2) 0.26518(11) 0.48957(16)
F4 F 0.3931(2) 0.14809(10) 0.56445(15)
Ag1_2 Ag 1.28598(2) 0.023983(13) -0.537715(15)
N2_2 N 0.1666(2) 0.00427(15) 0.56492(17)
C15 C 0.1964(3) -0.20081(14) 0.4391(2)
C16 C 0.2735(3) -0.20371(16) 0.3715(2)
H7 H 0.3638 -0.1872 0.3911
C17 C 0.2113(3) -0.23193(18) 0.2740(2)
H8 H 0.2606 -0.2357 0.2269
C18 C 0.0767(4) -0.25457(19) 0.2457(3)
H9 H 0.0357 -0.2734 0.1795
C19 C 0.0018(3) -0.24959(19) 0.3143(3)
H10 H -0.0896 -0.2642 0.2939
C20 C 0.0616(3) -0.22314(17) 0.4129(2)
H11 H 0.0127 -0.2204 0.4603
N3 N 0.2633(3) -0.17446(14) 0.54428(18)
O1 O 0.3640(2) -0.13236(13) 0.55999(17)
O2 O 0.2144(2) -0.19589(13) 0.61194(16)
loop_
_geom_bond_atom_site_label_1
_geom_bond_atom_site_label_2
_geom_bond_site_symmetry_1
_geom_bond_site_symmetry_2
Ag1 N1 1_555 1_555
S1 C6 1_555 1_555
S2 C10 1_555 1_555
S3 C2 1_555 1_555
N1 C1 1_555 1_555
C1 C2 1_555 1_555
C2 C5 1_555 1_555
C3 S3 1_555 1_555
C4 C3 1_555 1_555
H1 C4 1_555 1_555
C5 C4 1_555 1_555
H2 C5 1_555 1_555
C6 C3 1_555 1_555
C7 C6 1_555 1_555
H3 C7 1_555 1_555
C8 C7 1_555 1_555
H4 C8 1_555 1_555
C9 S1 1_555 1_555
C10 C9 1_555 1_555
C11 S2 1_555 1_555
C12 C11 1_555 1_555
H5 C12 1_555 1_555
C13 C10 1_555 1_555
H6 C13 1_555 1_555
C14 C11 1_555 1_555
N2 C14 1_555 1_555
B1 F1 1_555 1_555
F2 B1 1_555 1_555
F3 B1 1_555 1_555
F4 Ag1 1_555 1_555
C15 C16 1_555 1_555
C16 H7 1_555 1_555
C17 C16 1_555 1_555
H8 C17 1_555 1_555
C18 C17 1_555 1_555
H9 C18 1_555 1_555
C19 C18 1_555 1_555
H10 C19 1_555 1_555
C20 C15 1_555 1_555
H11 C20 1_555 1_555
N3 C15 1_555 1_555
O1 N3 1_555 1_555
O2 N3 1_555 1_555
Ag1_2 N2 1_555 1_555
N2_2 Ag1 1_555 1_555
C8 C9 1_555 1_555
C12 C13 1_555 1_555
B1 F4 1_555 1_555
C19 C20 1_555 1_555

#END
