
#######################################################################
#
#                 Cambridge Crystallographic Data Centre
#                                CCDC 
#
#######################################################################
#
# If this CIF has been generated from an entry in the Cambridge 
# Structural Database, then it will include bibliographic, chemical, 
# crystal, experimental, refinement or atomic coordinate data resulting 
# from the CCDC's data processing and validation procedures.
#
#######################################################################

data_FUXKOZ
_symmetry_cell_setting           orthorhombic
_symmetry_space_group_name_H-M   'P c c n'
_symmetry_Int_Tables_number      56
_space_group_name_Hall           '-P 2ab 2ac'
loop_
_symmetry_equiv_pos_site_id
_symmetry_equiv_pos_as_xyz
1 x,y,z
2 1/2-x,1/2-y,z
3 -x,1/2+y,1/2-z
4 1/2+x,-y,1/2-z
5 -x,-y,-z
6 1/2+x,1/2+y,-z
7 x,1/2-y,1/2+z
8 1/2-x,y,1/2+z
_cell_length_a                   29.902(3)
_cell_length_b                   12.891(1)
_cell_length_c                   12.747(1)
_cell_angle_alpha                90
_cell_angle_beta                 90
_cell_angle_gamma                90
_cell_volume                     4913.54
loop_
_atom_site_label
_atom_site_type_symbol
_atom_site_fract_x
_atom_site_fract_y
_atom_site_fract_z
N1 N 0.3871(45) 1.176(12) -0.703(16)
C1 C 0.3782(31) 1.267(31) -0.743(11)
C2 C 0.4088(62) 1.176(18) -0.614(21)
C3 C 0.3525(48) 1.270(22) -0.84(1)
N2 N 0.3872(45) 1.359(13) -0.705(17)
N3 N 0.4200(28) 1.261(21) -0.565(5)
C4 C 0.419(7) 1.075(16) -0.560(18)
C5 C 0.3532(45) 1.185(11) -0.908(13)
C6 C 0.3232(72) 1.35(1) -0.855(11)
C7 C 0.4083(64) 1.350(19) -0.613(23)
C8 C 0.4489(73) 1.074(12) -0.475(16)
C9 C 0.3956(53) 0.983(22) -0.586(11)
C10 C 0.3240(66) 1.193(12) -0.991(11)
C11 C 0.2946(45) 1.349(12) -0.939(15)
C12 C 0.421(6) 1.448(14) -0.556(17)
C13 C 0.453(5) 0.985(19) -0.418(11)
C14 C 0.4041(66) 0.897(13) -0.520(17)
N4 N 0.2959(31) 1.270(15) -1.0074(73)
C15 C 0.4052(42) 1.544(16) -0.58(1)
C16 C 0.447(7) 1.440(12) -0.464(14)
N5 N 0.4311(57) 0.8972(84) -0.438(12)
Zn1 Zn 0.25000 1.25000 -1.1221(21)
C17 C 0.4164(53) 1.628(14) -0.515(13)
C18 C 0.4568(44) 1.524(17) -0.401(12)
Zn2 Zn 0.43177(39) 0.7538(16) -0.339(1)
Cl1 Cl 0.25000 1.094(87) -1.189(51)
Cl2 Cl 0.25000 1.405(87) -1.19(5)
N6 N 0.4421(45) 1.6167(91) -0.427(11)
Br1 Br 0.49338(39) 0.75232(83) -0.2289(6)
Br2 Br 0.36370(34) 0.71291(73) -0.26078(87)
N1A N 0.1129(45) 1.324(12) -0.703(16)
C1A C 0.1218(31) 1.233(31) -0.743(11)
C2A C 0.0912(62) 1.324(18) -0.614(21)
C3A C 0.1475(48) 1.230(22) -0.84(1)
N2A N 0.1128(45) 1.141(13) -0.705(17)
N3A N 0.0800(28) 1.239(21) -0.565(5)
C4A C 0.081(7) 1.425(16) -0.560(18)
C5A C 0.1468(45) 1.315(11) -0.908(13)
C6A C 0.1768(72) 1.15(1) -0.855(11)
C7A C 0.0917(64) 1.150(19) -0.613(23)
C8A C 0.0511(73) 1.426(12) -0.475(16)
C9A C 0.1044(53) 1.517(22) -0.586(11)
C10A C 0.1760(66) 1.307(12) -0.991(11)
C11A C 0.2054(45) 1.151(12) -0.939(15)
C12A C 0.079(6) 1.052(14) -0.556(17)
C13A C 0.047(5) 1.515(19) -0.418(11)
C14A C 0.0959(66) 1.603(13) -0.520(17)
N4A N 0.2041(31) 1.230(15) -1.0074(73)
C15A C 0.0948(42) 0.956(16) -0.58(1)
C16A C 0.053(7) 1.060(12) -0.464(14)
N5A N 0.0689(57) 1.6028(84) -0.438(12)
C17A C 0.0836(53) 0.872(14) -0.515(13)
C18A C 0.0432(44) 0.976(17) -0.401(12)
Zn2A Zn 0.06823(39) 1.7462(16) -0.339(1)
Zn2_2 Zn 0.43177(39) 1.7538(16) -0.339(1)
Zn2A_2 Zn 0.06823(39) 0.7462(16) -0.339(1)
N6A N 0.0579(45) 0.8833(91) -0.427(11)
N6_2 N 0.4421(45) 0.6167(91) -0.427(11)
N6A_2 N 0.0579(45) 1.8833(91) -0.427(11)
Br1A Br 0.00662(39) 1.74768(83) -0.2289(6)
Br2A Br 0.13630(34) 1.78709(73) -0.26078(87)
loop_
_geom_bond_atom_site_label_1
_geom_bond_atom_site_label_2
_geom_bond_site_symmetry_1
_geom_bond_site_symmetry_2
N1 C1 1_555 1_555
C1 C3 1_555 1_555
C2 N1 1_555 1_555
C3 C5 1_555 1_555
N2 C1 1_555 1_555
N3 C2 1_555 1_555
C4 C2 1_555 1_555
C5 C10 1_555 1_555
C6 C3 1_555 1_555
C7 N2 1_555 1_555
C8 C4 1_555 1_555
C9 C4 1_555 1_555
C10 N4 1_555 1_555
C11 C6 1_555 1_555
C12 C7 1_555 1_555
C13 C8 1_555 1_555
C14 C9 1_555 1_555
N4 C11 1_555 1_555
C15 C12 1_555 1_555
C16 C12 1_555 1_555
N5 C13 1_555 1_555
Zn1 N4 1_555 1_555
C17 C15 1_555 1_555
C18 C16 1_555 1_555
Zn2 N5 1_555 1_555
Cl1 Zn1 1_555 1_555
Cl2 Zn1 1_555 1_555
N6 C17 1_555 1_555
Br1 Zn2 1_555 1_555
Br2 Zn2 1_555 1_555
N1A C1A 1_555 1_555
C1A C3A 1_555 1_555
C2A N1A 1_555 1_555
C3A C5A 1_555 1_555
N2A C1A 1_555 1_555
N3A C2A 1_555 1_555
C4A C2A 1_555 1_555
C5A C10A 1_555 1_555
C6A C3A 1_555 1_555
C7A N2A 1_555 1_555
C8A C4A 1_555 1_555
C9A C4A 1_555 1_555
C10A N4A 1_555 1_555
C11A C6A 1_555 1_555
C12A C7A 1_555 1_555
C13A C8A 1_555 1_555
C14A C9A 1_555 1_555
N4A Zn1 1_555 1_555
C15A C12A 1_555 1_555
C16A C12A 1_555 1_555
N5A C13A 1_555 1_555
C17A C15A 1_555 1_555
C18A C16A 1_555 1_555
Zn2A N5A 1_555 1_555
Zn2_2 N6 1_555 1_555
Zn2A_2 N6A 1_555 1_555
N6A C17A 1_555 1_555
N6_2 Zn2 1_555 1_555
N6A_2 Zn2A 1_555 1_555
Br1A Zn2A 1_555 1_555
Br2A Zn2A 1_555 1_555
N3 C7 1_555 1_555
C14 N5 1_555 1_555
C18 N6 1_555 1_555
N3A C7A 1_555 1_555
C11A N4A 1_555 1_555
C14A N5A 1_555 1_555
C18A N6A 1_555 1_555

#END
