
#######################################################################
#
#                 Cambridge Crystallographic Data Centre
#                                CCDC 
#
#######################################################################
#
# If this CIF has been generated from an entry in the Cambridge 
# Structural Database, then it will include bibliographic, chemical, 
# crystal, experimental, refinement or atomic coordinate data resulting 
# from the CCDC's data processing and validation procedures.
#
#######################################################################

data_FUYDOS
_symmetry_cell_setting           monoclinic
_symmetry_space_group_name_H-M   'P 21/c'
_symmetry_Int_Tables_number      14
_space_group_name_Hall           '-P 2ybc'
loop_
_symmetry_equiv_pos_site_id
_symmetry_equiv_pos_as_xyz
1 x,y,z
2 -x,1/2+y,1/2-z
3 -x,-y,-z
4 x,1/2-y,1/2+z
_cell_length_a                   16.037(3)
_cell_length_b                   13.356(5)
_cell_length_c                   8.132(3)
_cell_angle_alpha                90
_cell_angle_beta                 93.04(2)
_cell_angle_gamma                90
_cell_volume                     1739.34
loop_
_atom_site_label
_atom_site_type_symbol
_atom_site_fract_x
_atom_site_fract_y
_atom_site_fract_z
Pb1 Pb 0.40354(2) 0.07606(3) 0.14180(5)
S1 S 0.5180(2) 0.3393(2) 0.0654(3)
N1 N 0.5051(6) 0.2225(7) 0.0940(11)
C1 C 0.6191(7) 0.3332(8) -0.0081(13)
C2 C 0.6716(9) 0.4054(11) -0.0558(19)
C3 C 0.7499(10) 0.3711(16) -0.1090(23)
C4 C 0.7733(9) 0.2774(18) -0.1025(21)
C5 C 0.7184(8) 0.2027(14) -0.0561(20)
C6 C 0.6411(7) 0.2317(10) -0.0038(15)
C7 C 0.5714(7) 0.1671(10) 0.0558(13)
O1 O 0.5194(6) 0.3941(7) 0.2179(10)
O2 O 0.4585(5) 0.3801(8) -0.0541(10)
O3 O 0.5732(6) 0.0773(6) 0.0687(11)
S2 S 0.1412(2) 0.0341(3) 0.1536(8)
N2 N 0.2380(7) 0.0734(9) 0.1856(20)
C8 C 0.0945(8) 0.1542(11) 0.1545(20)
C9 C 0.0117(9) 0.1831(12) 0.1362(26)
C10 C -0.0053(10) 0.2845(16) 0.1338(28)
C11 C 0.0581(10) 0.3565(11) 0.1597(27)
C12 C 0.1418(9) 0.3265(10) 0.1781(25)
C13 C 0.1582(7) 0.2218(9) 0.1746(17)
C14 C 0.2406(7) 0.1716(11) 0.1887(19)
O4 O 0.1300(8) -0.0096(11) -0.0111(22)
O5 O 0.1185(8) -0.0213(11) 0.2948(29)
O6 O 0.3095(5) 0.2163(7) 0.2013(14)
O7 O 0.3533(6) 0.1109(9) -0.1416(11)
H1 H 0.392 0.071 -0.227
H2 H 0.341 0.183 -0.186
H3 H 0.655 0.484 -0.052
H4 H 0.792 0.426 -0.157
H5 H 0.836 0.258 -0.134
H6 H 0.735 0.125 -0.061
H7 H -0.038 0.128 0.130
H8 H -0.069 0.309 0.110
H9 H 0.042 0.435 0.164
H10 H 0.192 0.380 0.194
O3B O 0.4268(6) -0.0773(6) -0.0687(11)
O1A O 0.4806(6) -0.1059(7) 0.2821(10)
O2C O 0.4585(5) 0.1199(8) 0.4459(10)
Pb1B Pb 0.59646(2) -0.07606(3) -0.14180(5)
Pb1A Pb 0.59646(2) 0.57606(3) 0.35820(5)
Pb1C Pb 0.40354(2) 0.42394(3) -0.35820(5)
loop_
_geom_bond_atom_site_label_1
_geom_bond_atom_site_label_2
_geom_bond_site_symmetry_1
_geom_bond_site_symmetry_2
Pb1 N1 1_555 1_555
S1 N1 1_555 1_555
N1 C7 1_555 1_555
C1 S1 1_555 1_555
C2 C1 1_555 1_555
C3 C2 1_555 1_555
C4 C3 1_555 1_555
C5 C4 1_555 1_555
C6 C1 1_555 1_555
C7 C6 1_555 1_555
O1 S1 1_555 1_555
O2 S1 1_555 1_555
O3 Pb1 1_555 1_555
S2 N2 1_555 1_555
N2 Pb1 1_555 1_555
C8 S2 1_555 1_555
C9 C8 1_555 1_555
C10 C9 1_555 1_555
C11 C10 1_555 1_555
C12 C11 1_555 1_555
C13 C8 1_555 1_555
C14 N2 1_555 1_555
O4 S2 1_555 1_555
O5 S2 1_555 1_555
O6 Pb1 1_555 1_555
O7 Pb1 1_555 1_555
H1 O7 1_555 1_555
H2 O7 1_555 1_555
H3 C2 1_555 1_555
H4 C3 1_555 1_555
H5 C4 1_555 1_555
H6 C5 1_555 1_555
H7 C9 1_555 1_555
H8 C10 1_555 1_555
H9 C11 1_555 1_555
H10 C12 1_555 1_555
O3B Pb1 1_555 1_555
O1A Pb1 1_555 1_555
O2C Pb1 1_555 1_555
Pb1B O3 1_555 1_555
Pb1A O1 1_555 1_555
Pb1C O2 1_555 1_555
C5 C6 1_555 1_555
C7 O3 1_555 1_555
C12 C13 1_555 1_555
C13 C14 1_555 1_555
C14 O6 1_555 1_555
O3B Pb1B 1_555 1_555

#END
