
#######################################################################
#
#                 Cambridge Crystallographic Data Centre
#                                CCDC 
#
#######################################################################
#
# If this CIF has been generated from an entry in the Cambridge 
# Structural Database, then it will include bibliographic, chemical, 
# crystal, experimental, refinement or atomic coordinate data resulting 
# from the CCDC's data processing and validation procedures.
#
#######################################################################

data_FUYROH
_symmetry_cell_setting           orthorhombic
_symmetry_space_group_name_H-M   'P 21 21 21'
_symmetry_Int_Tables_number      19
_space_group_name_Hall           'P 2ac 2ab'
loop_
_symmetry_equiv_pos_site_id
_symmetry_equiv_pos_as_xyz
1 x,y,z
2 1/2-x,-y,1/2+z
3 1/2+x,1/2-y,-z
4 -x,1/2+y,1/2-z
_cell_length_a                   9.2004(3)
_cell_length_b                   15.9691(5)
_cell_length_c                   30.5492(11)
_cell_angle_alpha                90
_cell_angle_beta                 90
_cell_angle_gamma                90
_cell_volume                     4488.35
loop_
_atom_site_label
_atom_site_type_symbol
_atom_site_fract_x
_atom_site_fract_y
_atom_site_fract_z
C1 C 0.0762(6) 1.0964(4) 0.5968(2)
H1 H 0.0066 1.0636 0.5809
H2 H 0.0981 1.1464 0.5807
H3 H 0.0366 1.1112 0.6249
C2 C 0.2138(5) 1.0460(3) 0.6032(2)
C3 C 0.2576(7) 1.0210(3) 0.64376(19)
H4 H 0.2024 1.0384 0.6676
C4 C 0.3797(6) 0.9712(3) 0.65231(18)
C5 C 0.4127(7) 0.9454(4) 0.69833(18)
H5 H 0.5045 0.9686 0.7071
H6 H 0.4171 0.8854 0.7000
H7 H 0.3378 0.9656 0.7175
C6 C 0.5904(5) 0.8903(3) 0.62285(18)
H8 H 0.6041 0.8729 0.6533
C7 C 0.7292(6) 0.9326(3) 0.60705(19)
H9 H 0.7509 0.9799 0.6259
H10 H 0.7145 0.9536 0.5776
C8 C 0.8575(6) 0.8722(4) 0.6072(2)
H11 H 0.8777 0.8545 0.6370
H12 H 0.9432 0.9002 0.5960
C9 C 0.8238(7) 0.7957(4) 0.5790(2)
H13 H 0.8097 0.8130 0.5489
H14 H 0.9050 0.7570 0.5800
C10 C 0.6883(6) 0.7525(3) 0.5955(2)
H15 H 0.7046 0.7323 0.6250
H16 H 0.6668 0.7047 0.5770
C11 C 0.5591(6) 0.8128(3) 0.59529(17)
H17 H 0.5420 0.8307 0.5650
C12 C 0.3056(7) 0.7673(4) 0.5410(2)
H18 H 0.3878 0.7425 0.5266
H19 H 0.3074 0.8269 0.5367
H20 H 0.2176 0.7448 0.5289
C13 C 0.3119(6) 0.7484(3) 0.5887(2)
C14 C 0.1951(6) 0.7080(3) 0.6084(2)
H21 H 0.1207 0.6897 0.5902
C15 C 0.1793(6) 0.6924(3) 0.6527(2)
C16 C 0.0409(7) 0.6557(4) 0.6688(2)
H22 H -0.0121 0.6973 0.6850
H23 H 0.0616 0.6089 0.6875
H24 H -0.0163 0.6373 0.6444
C17 C 0.0503(6) 0.8403(4) 0.7535(3)
H25 H 0.0058 0.7892 0.7633
H26 H 0.0756 0.8353 0.7231
H27 H -0.0166 0.8858 0.7572
C18 C 0.1858(6) 0.8568(4) 0.7801(2)
C19 C 0.2027(6) 0.9312(3) 0.8020(2)
H28 H 0.1293 0.9709 0.7991
C20 C 0.3206(6) 0.9519(3) 0.82812(19)
C21 C 0.3227(8) 1.0326(4) 0.8532(2)
H29 H 0.4113 1.0622 0.8470
H30 H 0.3170 1.0210 0.8839
H31 H 0.2413 1.0664 0.8446
C22 C 0.5625(6) 0.9092(3) 0.85869(19)
H32 H 0.5451 0.9521 0.8810
C23 C 0.6915(7) 0.9363(4) 0.8304(2)
H33 H 0.7041 0.8970 0.8065
H34 H 0.6722 0.9911 0.8180
C24 C 0.8302(7) 0.9399(5) 0.8575(2)
H35 H 0.9111 0.9550 0.8388
H36 H 0.8205 0.9829 0.8798
C25 C 0.8614(7) 0.8585(5) 0.8789(3)
H37 H 0.9489 0.8634 0.8965
H38 H 0.8784 0.8162 0.8567
C26 C 0.7350(6) 0.8314(4) 0.9081(2)
H39 H 0.7227 0.8714 0.9317
H40 H 0.7562 0.7772 0.9209
C27 C 0.5946(6) 0.8259(4) 0.88147(19)
H41 H 0.6056 0.7823 0.8592
C28 C 0.3868(6) 0.7381(3) 0.90854(19)
C29 C 0.4238(7) 0.6683(4) 0.8777(2)
H42 H 0.5179 0.6462 0.8849
H43 H 0.4250 0.6892 0.8482
H44 H 0.3524 0.6247 0.8801
C30 C 0.2667(6) 0.7313(3) 0.93559(18)
H45 H 0.2136 0.6818 0.9343
C31 C 0.2191(5) 0.7926(3) 0.96458(18)
C32 C 0.0808(6) 0.7828(4) 0.9896(2)
H46 H 0.0089 0.8202 0.9779
H47 H 0.0976 0.7958 1.0198
H48 H 0.0471 0.7262 0.9870
N1 N 0.4666(4) 0.9472(3) 0.62072(14)
H49 H 0.4481 0.9678 0.5953
N2 N 0.4270(5) 0.7706(3) 0.61124(15)
H50 H 0.4250 0.7592 0.6387
N3 N 0.4320(5) 0.9002(3) 0.83225(15)
H51 H 0.4265 0.8548 0.8172
N4 N 0.4710(5) 0.8048(2) 0.90954(14)
H52 H 0.4504 0.8409 0.9295
O1 O 0.2876(4) 1.0291(2) 0.56869(12)
O2 O 0.2795(4) 0.7111(3) 0.67982(13)
O3 O 0.2826(4) 0.8003(2) 0.78125(14)
O4 O 0.2929(4) 0.8591(2) 0.97044(13)
I1 I 0.16397(5) 0.55756(3) 0.782452(15)
I2 I 0.62398(4) 0.69745(3) 0.748077(18)
I3 I 0.50708(5) 0.95599(3) 0.473359(16)
I4 I -0.02470(5) 0.95674(3) 0.480609(16)
Cd1 Cd 0.24467(5) 1.01427(2) 0.497465(14)
Cd2 Cd 0.33046(4) 0.67952(2) 0.748202(15)
O4A O 0.2071(4) 1.1409(2) 0.47044(13)
Cd1A Cd 0.25533(5) 0.98573(2) 0.997465(14)
loop_
_geom_bond_atom_site_label_1
_geom_bond_atom_site_label_2
_geom_bond_site_symmetry_1
_geom_bond_site_symmetry_2
C1 H1 1_555 1_555
H2 C1 1_555 1_555
H3 C1 1_555 1_555
C2 C1 1_555 1_555
C3 C2 1_555 1_555
H4 C3 1_555 1_555
C4 C3 1_555 1_555
C5 C4 1_555 1_555
H5 C5 1_555 1_555
H6 C5 1_555 1_555
H7 C5 1_555 1_555
C6 H8 1_555 1_555
C7 C6 1_555 1_555
H9 C7 1_555 1_555
H10 C7 1_555 1_555
C8 C7 1_555 1_555
H11 C8 1_555 1_555
H12 C8 1_555 1_555
C9 C8 1_555 1_555
H13 C9 1_555 1_555
H14 C9 1_555 1_555
C10 C9 1_555 1_555
H15 C10 1_555 1_555
H16 C10 1_555 1_555
C11 C6 1_555 1_555
H17 C11 1_555 1_555
C12 H18 1_555 1_555
H19 C12 1_555 1_555
H20 C12 1_555 1_555
C13 C12 1_555 1_555
C14 C13 1_555 1_555
H21 C14 1_555 1_555
C15 C14 1_555 1_555
C16 C15 1_555 1_555
H22 C16 1_555 1_555
H23 C16 1_555 1_555
H24 C16 1_555 1_555
C17 H25 1_555 1_555
H26 C17 1_555 1_555
H27 C17 1_555 1_555
C18 C17 1_555 1_555
C19 C18 1_555 1_555
H28 C19 1_555 1_555
C20 C19 1_555 1_555
C21 C20 1_555 1_555
H29 C21 1_555 1_555
H30 C21 1_555 1_555
H31 C21 1_555 1_555
C22 H32 1_555 1_555
C23 C22 1_555 1_555
H33 C23 1_555 1_555
H34 C23 1_555 1_555
C24 C23 1_555 1_555
H35 C24 1_555 1_555
H36 C24 1_555 1_555
C25 C24 1_555 1_555
H37 C25 1_555 1_555
H38 C25 1_555 1_555
C26 C25 1_555 1_555
H39 C26 1_555 1_555
H40 C26 1_555 1_555
C27 C22 1_555 1_555
H41 C27 1_555 1_555
C28 C29 1_555 1_555
C29 H42 1_555 1_555
H43 C29 1_555 1_555
H44 C29 1_555 1_555
C30 C28 1_555 1_555
H45 C30 1_555 1_555
C31 C30 1_555 1_555
C32 C31 1_555 1_555
H46 C32 1_555 1_555
H47 C32 1_555 1_555
H48 C32 1_555 1_555
N1 C4 1_555 1_555
H49 N1 1_555 1_555
N2 C11 1_555 1_555
H50 N2 1_555 1_555
N3 C20 1_555 1_555
H51 N3 1_555 1_555
N4 C27 1_555 1_555
H52 N4 1_555 1_555
O1 C2 1_555 1_555
O2 C15 1_555 1_555
O3 C18 1_555 1_555
O4 C31 1_555 1_555
I1 Cd2 1_555 1_555
I2 Cd2 1_555 1_555
I3 Cd1 1_555 1_555
I4 Cd1 1_555 1_555
Cd1 O1 1_555 1_555
Cd2 O2 1_555 1_555
O4A Cd1 1_555 1_555
Cd1A O4 1_555 1_555
C6 N1 1_555 1_555
C10 C11 1_555 1_555
C13 N2 1_555 1_555
C22 N3 1_555 1_555
C26 C27 1_555 1_555
C28 N4 1_555 1_555
O3 Cd2 1_555 1_555

#END
