
#######################################################################
#
#                 Cambridge Crystallographic Data Centre
#                                CCDC 
#
#######################################################################
#
# If this CIF has been generated from an entry in the Cambridge 
# Structural Database, then it will include bibliographic, chemical, 
# crystal, experimental, refinement or atomic coordinate data resulting 
# from the CCDC's data processing and validation procedures.
#
#######################################################################

data_FUYRAT
_symmetry_cell_setting           triclinic
_symmetry_space_group_name_H-M   'P -1'
_symmetry_Int_Tables_number      2
_space_group_name_Hall           '-P 1'
loop_
_symmetry_equiv_pos_site_id
_symmetry_equiv_pos_as_xyz
1 x,y,z
2 -x,-y,-z
_cell_length_a                   8.9536(17)
_cell_length_b                   13.309(3)
_cell_length_c                   16.703(3)
_cell_angle_alpha                111.848(3)
_cell_angle_beta                 90.811(3)
_cell_angle_gamma                95.663(3)
_cell_volume                     1835.62
loop_
_atom_site_label
_atom_site_type_symbol
_atom_site_fract_x
_atom_site_fract_y
_atom_site_fract_z
C1 C 0.6646(5) 0.9053(3) -0.0525(3)
H1 H 0.6943 0.9071 -0.1052
C2 C 0.5212(5) 0.8616(4) -0.0481(3)
H2 H 0.4562 0.8344 -0.0972
C3 C 0.4738(5) 0.8579(4) 0.0282(3)
H3 H 0.3771 0.8276 0.0315
C4 C 0.5722(5) 0.9002(3) 0.1005(3)
C5 C 0.7144(5) 0.9426(3) 0.0900(3)
H4 H 0.7810 0.9712 0.1383
C6 C 0.5310(5) 0.8989(3) 0.1860(3)
H5 H 0.5769 0.9643 0.2321
H6 H 0.4229 0.8948 0.1902
C7 C 0.5532(5) 0.7781(3) 0.2606(3)
C8 C 0.4681(5) 0.8364(4) 0.3270(3)
H7 H 0.4317 0.8993 0.3265
C9 C 0.4368(6) 0.8019(5) 0.3936(3)
H8 H 0.3809 0.8427 0.4383
C10 C 0.4865(6) 0.7082(5) 0.3956(3)
H9 H 0.4633 0.6850 0.4405
C11 C 0.5709(6) 0.6496(4) 0.3300(3)
H10 H 0.6037 0.5855 0.3303
C12 C 0.6083(5) 0.6841(3) 0.2631(3)
C13 C 0.7068(5) 0.6224(3) 0.1977(3)
C14 C 0.8274(4) 0.4877(3) 0.1321(2)
C15 C 0.8765(4) 0.3805(3) 0.1081(2)
C16 C 0.9734(5) 0.3445(3) 0.0410(3)
H11 H 1.0109 0.3901 0.0134
C17 C 1.0120(5) 0.2404(3) 0.0164(3)
H12 H 1.0772 0.2173 -0.0281
C18 C 0.8732(5) 0.2079(3) 0.1194(3)
H13 H 0.8409 0.1617 0.1475
C19 C 0.8282(5) 0.3098(3) 0.1482(3)
H14 H 0.7658 0.3315 0.1942
N1 N 0.9617(4) 0.1707(3) 0.0526(2)
N2 N 0.8586(4) 0.5588(3) 0.0977(2)
N3 N 0.7797(4) 0.6469(3) 0.1406(2)
N4 N 0.7637(4) 0.9455(3) 0.0154(2)
H29 H 1.0692 1.0707 0.1603
H30 H 1.0674 0.9595 0.1496
O3 O 0.7318(3) 0.5222(2) 0.19627(17)
O4 O 0.5868(4) 0.8038(3) 0.1914(2)
O5 O 1.0557(3) 1.0089(2) 0.12843(18)
Zn1 Zn 1.0000 1.0000 0.0000
C1A C 1.3354(5) 0.0947(3) 0.0525(3)
H1A H 1.3057 0.0929 0.1052
C2A C 1.4788(5) 0.1384(4) 0.0481(3)
H2A H 1.5438 0.1656 0.0972
C3A C 1.5262(5) 0.1421(4) -0.0282(3)
H3A H 1.6229 0.1724 -0.0315
C4A C 1.4278(5) 0.0998(3) -0.1005(3)
C5A C 1.2856(5) 0.0574(3) -0.0900(3)
H4A H 1.2190 0.0288 -0.1383
C6A C 1.4690(5) 0.1011(3) -0.1860(3)
H5A H 1.4231 0.0357 -0.2321
H6A H 1.5771 0.1052 -0.1902
C7A C 1.4468(5) 0.2219(3) -0.2606(3)
C8A C 1.5319(5) 0.1636(4) -0.3270(3)
H7A H 1.5683 0.1007 -0.3265
C9A C 1.5632(6) 0.1981(5) -0.3936(3)
H8A H 1.6191 0.1573 -0.4383
C10A C 1.5135(6) 0.2918(5) -0.3956(3)
H9A H 1.5367 0.3150 -0.4405
C11A C 1.4291(6) 0.3504(4) -0.3300(3)
H10A H 1.3963 0.4145 -0.3303
C12A C 1.3917(5) 0.3159(3) -0.2631(3)
C13A C 1.2932(5) 0.3776(3) -0.1977(3)
C14A C 1.1726(4) 0.5123(3) -0.1321(2)
C15A C 1.1235(4) 0.6195(3) -0.1081(2)
C16A C 1.0266(5) 0.6555(3) -0.0410(3)
H11A H 0.9891 0.6099 -0.0134
C17A C 0.9880(5) 0.7596(3) -0.0164(3)
H12A H 0.9228 0.7827 0.0281
C18A C 1.1268(5) 0.7921(3) -0.1194(3)
H13A H 1.1591 0.8383 -0.1475
C19A C 1.1718(5) 0.6902(3) -0.1482(3)
H14A H 1.2342 0.6685 -0.1942
N1A N 1.0383(4) 0.8293(3) -0.0526(2)
N1_2 N 0.9617(4) 1.1707(3) 0.0526(2)
N2A N 1.1414(4) 0.4412(3) -0.0977(2)
N3A N 1.2203(4) 0.3531(3) -0.1406(2)
N4A N 1.2363(4) 0.0545(3) -0.0154(2)
N4A_2 N 1.2363(4) 1.0545(3) -0.0154(2)
H29A H 0.9308 0.9293 -0.1603
H30A H 0.9326 1.0405 -0.1496
O3A O 1.2682(3) 0.4778(2) -0.19627(17)
O4A O 1.4132(4) 0.1962(3) -0.1914(2)
O5A O 0.9443(3) 0.9911(2) -0.12843(18)
Zn1_2 Zn 1.0000 0.0000 0.0000
C20 C 1.1879(7) -0.0455(5) 0.5962(4)
H15 H 1.2196 -0.1101 0.5958
C21 C 1.1030(6) 0.0104(4) 0.6626(3)
H16 H 1.0773 -0.0163 0.7052
C22 C 1.0565(5) 0.1067(4) 0.6646(3)
C23 C 1.0987(6) 0.1423(4) 0.6000(3)
H17 H 1.0706 0.2074 0.5993
C24 C 1.1845(7) 0.0783(6) 0.5357(4)
H18 H 1.2126 0.1028 0.4921
C25 C 0.9644(5) 0.1697(3) 0.7336(3)
C26 C 0.8422(5) 0.3022(3) 0.8020(3)
C27 C 0.7764(5) 0.4039(4) 0.8225(3)
C28 C 0.6917(6) 0.4380(4) 0.8951(3)
H19 H 0.6828 0.3970 0.9296
C29 C 0.6212(6) 0.5303(5) 0.9168(4)
H20 H 0.5665 0.5528 0.9662
C30 C 0.6324(6) 0.5897(4) 0.8643(4)
H21 H 0.5812 0.6508 0.8771
C31 C 0.7180(7) 0.5598(4) 0.7937(4)
H22 H 0.7258 0.6018 0.7599
C32 C 0.7932(6) 0.4681(4) 0.7719(3)
C33 C 0.8905(7) 0.4908(5) 0.6457(4)
H23 H 0.9154 0.5688 0.6757
H24 H 0.7927 0.4777 0.6157
C34 C 1.0055(7) 0.4455(5) 0.5839(3)
C35 C 1.1490(7) 0.5004(5) 0.5971(3)
H25 H 1.1728 0.5651 0.6445
C36 C 1.2569(7) 0.4577(6) 0.5386(4)
H26 H 1.3540 0.4930 0.5463
C37 C 0.9789(7) 0.3529(5) 0.5123(4)
H27 H 0.8824 0.3162 0.5026
C38 C 1.2171(8) 0.3629(6) 0.4697(4)
H28 H 1.2902 0.3339 0.4313
N5 N 1.2278(6) -0.0134(5) 0.5326(4)
N6 N 0.9103(5) 0.1499(3) 0.7977(2)
N7 N 0.8291(4) 0.2361(3) 0.8428(2)
N8 N 1.0799(7) 0.3100(4) 0.4546(3)
O1 O 0.9274(4) 0.2648(2) 0.73187(19)
O2 O 0.8889(5) 0.4368(3) 0.7060(2)
Cl1 Cl 0.44748(16) 0.77332(11) 0.68777(8)
O6 O 0.4397(14) 0.7571(10) 0.6003(4)
O7 O 0.5712(9) 0.8463(7) 0.7319(9)
O8 O 0.3395(10) 0.8289(10) 0.7408(7)
O9 O 0.4549(14) 0.6720(7) 0.6936(8)
H31 H 0.0808 0.2182 0.3184
H32 H 0.2144 0.1954 0.2799
O10 O 0.1209(5) 0.1890(4) 0.2701(3)
Cl2? Cl 0.44748(16) 0.77332(11) 0.68777(8)
O11? O 0.4918(15) 0.6970(8) 0.7235(8)
O12? O 0.3952(15) 0.7144(11) 0.5991(5)
O13? O 0.3056(11) 0.8097(11) 0.7190(8)
O14? O 0.5672(10) 0.8513(7) 0.6834(10)
loop_
_geom_bond_atom_site_label_1
_geom_bond_atom_site_label_2
_geom_bond_site_symmetry_1
_geom_bond_site_symmetry_2
C1 H1 1_555 1_555
C2 C1 1_555 1_555
H2 C2 1_555 1_555
C3 C2 1_555 1_555
H3 C3 1_555 1_555
C4 C3 1_555 1_555
C5 C4 1_555 1_555
H4 C5 1_555 1_555
C6 C4 1_555 1_555
H5 C6 1_555 1_555
H6 C6 1_555 1_555
C7 C8 1_555 1_555
C8 H7 1_555 1_555
C9 C8 1_555 1_555
H8 C9 1_555 1_555
C10 C9 1_555 1_555
H9 C10 1_555 1_555
C11 C10 1_555 1_555
H10 C11 1_555 1_555
C12 C7 1_555 1_555
C13 C12 1_555 1_555
C14 C15 1_555 1_555
C15 C16 1_555 1_555
C16 H11 1_555 1_555
C17 C16 1_555 1_555
H12 C17 1_555 1_555
C18 H13 1_555 1_555
C19 C15 1_555 1_555
H14 C19 1_555 1_555
C20 H15 1_555 1_555
C21 C20 1_555 1_555
H16 C21 1_555 1_555
C22 C21 1_555 1_555
C23 C22 1_555 1_555
H17 C23 1_555 1_555
C24 C23 1_555 1_555
H18 C24 1_555 1_555
C25 C22 1_555 1_555
C26 C27 1_555 1_555
C27 C28 1_555 1_555
C28 H19 1_555 1_555
C29 C28 1_555 1_555
H20 C29 1_555 1_555
C30 C29 1_555 1_555
H21 C30 1_555 1_555
C31 C30 1_555 1_555
H22 C31 1_555 1_555
C32 C27 1_555 1_555
C33 H23 1_555 1_555
H24 C33 1_555 1_555
C34 C33 1_555 1_555
C35 C34 1_555 1_555
H25 C35 1_555 1_555
C36 C35 1_555 1_555
H26 C36 1_555 1_555
C37 C34 1_555 1_555
H27 C37 1_555 1_555
C38 C36 1_555 1_555
H28 C38 1_555 1_555
Cl1 O6 1_555 1_555
N1 C17 1_555 1_555
N2 C14 1_555 1_555
N3 C13 1_555 1_555
N4 C1 1_555 1_555
N5 C20 1_555 1_555
N6 C25 1_555 1_555
N7 C26 1_555 1_555
N8 C37 1_555 1_555
H29 O5 1_555 1_555
H30 O5 1_555 1_555
H31 O10 1_555 1_555
H32 O10 1_555 1_555
O1 C25 1_555 1_555
O2 C32 1_555 1_555
O3 C13 1_555 1_555
O4 C6 1_555 1_555
O5 Zn1 1_555 1_555
O7 Cl1 1_555 1_555
O8 Cl1 1_555 1_555
O9 Cl1 1_555 1_555
Zn1 N4 1_555 1_555
C1A H1A 1_555 1_555
C2A C1A 1_555 1_555
H2A C2A 1_555 1_555
C3A C2A 1_555 1_555
H3A C3A 1_555 1_555
C4A C3A 1_555 1_555
C5A C4A 1_555 1_555
H4A C5A 1_555 1_555
C6A C4A 1_555 1_555
H5A C6A 1_555 1_555
H6A C6A 1_555 1_555
C7A C8A 1_555 1_555
C8A H7A 1_555 1_555
C9A C8A 1_555 1_555
H8A C9A 1_555 1_555
C10A C9A 1_555 1_555
H9A C10A 1_555 1_555
C11A C10A 1_555 1_555
H10A C11A 1_555 1_555
C12A C7A 1_555 1_555
C13A C12A 1_555 1_555
C14A C15A 1_555 1_555
C15A C16A 1_555 1_555
C16A H11A 1_555 1_555
C17A C16A 1_555 1_555
H12A C17A 1_555 1_555
C18A H13A 1_555 1_555
C19A C15A 1_555 1_555
H14A C19A 1_555 1_555
N1A Zn1 1_555 1_555
N1_2 Zn1 1_555 1_555
N2A C14A 1_555 1_555
N3A C13A 1_555 1_555
N4A C1A 1_555 1_555
N4A_2 Zn1 1_555 1_555
H29A O5A 1_555 1_555
H30A O5A 1_555 1_555
O3A C13A 1_555 1_555
O4A C6A 1_555 1_555
O5A Zn1 1_555 1_555
Zn1_2 N1 1_555 1_555
C5 N4 1_555 1_555
C7 O4 1_555 1_555
C11 C12 1_555 1_555
C14 O3 1_555 1_555
C18 C19 1_555 1_555
C18 N1 1_555 1_555
C24 N5 1_555 1_555
C26 O1 1_555 1_555
C31 C32 1_555 1_555
C33 O2 1_555 1_555
C38 N8 1_555 1_555
N2 N3 1_555 1_555
N6 N7 1_555 1_555
C5A N4A 1_555 1_555
C7A O4A 1_555 1_555
C11A C12A 1_555 1_555
C14A O3A 1_555 1_555
C17A N1A 1_555 1_555
C18A C19A 1_555 1_555
C18A N1A 1_555 1_555
N2A N3A 1_555 1_555
N4A Zn1_2 1_555 1_555

#END
