
#######################################################################
#
#                 Cambridge Crystallographic Data Centre
#                                CCDC 
#
#######################################################################
#
# If this CIF has been generated from an entry in the Cambridge 
# Structural Database, then it will include bibliographic, chemical, 
# crystal, experimental, refinement or atomic coordinate data resulting 
# from the CCDC's data processing and validation procedures.
#
#######################################################################

data_FUYRUN
_symmetry_cell_setting           orthorhombic
_symmetry_space_group_name_H-M   'P 21 21 21'
_symmetry_Int_Tables_number      19
_space_group_name_Hall           'P 2ac 2ab'
loop_
_symmetry_equiv_pos_site_id
_symmetry_equiv_pos_as_xyz
1 x,y,z
2 1/2-x,-y,1/2+z
3 1/2+x,1/2-y,-z
4 -x,1/2+y,1/2-z
_cell_length_a                   9.2287(4)
_cell_length_b                   16.0986(6)
_cell_length_c                   30.6083(12)
_cell_angle_alpha                90
_cell_angle_beta                 90
_cell_angle_gamma                90
_cell_volume                     4547.45
loop_
_atom_site_label
_atom_site_type_symbol
_atom_site_fract_x
_atom_site_fract_y
_atom_site_fract_z
C1 C 0.4430(6) 0.1863(3) 0.40435(17)
H1 H 0.4594 0.1685 0.4346
C2 C 0.3145(7) 0.2461(4) 0.4041(2)
H2 H 0.3353 0.2931 0.4229
H3 H 0.2995 0.2670 0.3747
C3 C 0.1783(7) 0.2028(4) 0.4197(2)
H4 H 0.1906 0.1860 0.4499
H5 H 0.0973 0.2411 0.4183
C4 C 0.1454(7) 0.1273(4) 0.3921(2)
H6 H 0.1250 0.1445 0.3624
H7 H 0.0601 0.0995 0.4035
C5 C 0.2723(6) 0.0675(3) 0.39226(19)
H8 H 0.2512 0.0212 0.3730
H9 H 0.2857 0.0457 0.4215
C6 C 0.4127(6) 0.1101(3) 0.37725(16)
H10 H 0.4006 0.1273 0.3468
C7 C 0.5881(8) 0.0524(5) 0.30185(17)
H11 H 0.4972 0.0285 0.2932
H12 H 0.6634 0.0327 0.2829
H13 H 0.5822 0.1118 0.3000
C8 C 0.6214(6) 0.0276(3) 0.34799(17)
C9 C 0.7410(7) -0.0220(3) 0.35686(18)
H14 H 0.7958 -0.0399 0.3332
C10 C 0.7850(6) -0.0467(4) 0.3977(2)
C11 C 0.9217(7) -0.0973(5) 0.4039(2)
H15 H 0.9955 -0.0631 0.4168
H16 H 0.9546 -0.1175 0.3761
H17 H 0.9018 -0.1435 0.4229
C12 C 0.5805(7) -0.2150(5) 0.5100(2)
H18 H 0.5093 -0.1771 0.5213
H19 H 0.5452 -0.2709 0.5126
H20 H 0.5986 -0.2026 0.4798
C13 C 0.7176(5) -0.2061(4) 0.53538(16)
C14 C 0.7636(6) -0.2669(3) 0.56403(17)
H21 H 0.7102 -0.3158 0.5651
C15 C 0.8833(6) -0.2606(3) 0.59133(17)
C16 C 0.9214(9) -0.3308(4) 0.6219(2)
H22 H 1.0228 -0.3432 0.6195
H23 H 0.8659 -0.3792 0.6143
H24 H 0.8996 -0.3148 0.6514
C17 C 1.0897(5) -0.1741(3) 0.61905(18)
H25 H 1.1003 -0.2176 0.6412
C18 C 1.2302(6) -0.1680(5) 0.5929(2)
H26 H 1.2182 -0.1284 0.5693
H27 H 1.2527 -0.2217 0.5802
C19 C 1.3552(8) -0.1404(6) 0.6225(3)
H28 H 1.3713 -0.1820 0.6449
H29 H 1.4431 -0.1357 0.6053
C20 C 1.3233(8) -0.0591(6) 0.6435(3)
H30 H 1.3117 -0.0168 0.6212
H31 H 1.4035 -0.0432 0.6621
C21 C 1.1846(8) -0.0655(5) 0.6706(2)
H32 H 1.1979 -0.1062 0.6936
H33 H 1.1643 -0.0123 0.6841
C22 C 1.0577(6) -0.0908(4) 0.64210(18)
H34 H 1.0416 -0.0478 0.6200
C23 C 0.8160(9) 0.0307(4) 0.6468(2)
H35 H 0.9055 0.0594 0.6519
H36 H 0.7365 0.0647 0.6562
H37 H 0.8065 0.0191 0.6161
C24 C 0.8153(7) -0.0494(4) 0.67188(18)
C25 C 0.6983(7) -0.0694(4) 0.6985(2)
H38 H 0.6252 -0.0300 0.7015
C26 C 0.6826(6) -0.1426(4) 0.72061(19)
C27 C 0.5475(7) -0.1591(5) 0.7470(3)
H39 H 0.4990 -0.2072 0.7356
H40 H 0.4842 -0.1119 0.7452
H41 H 0.5735 -0.1686 0.7769
C28 C 0.8216(7) 0.3063(4) 0.34794(18)
C29 C 0.9585(7) 0.3431(5) 0.3321(2)
H42 H 1.0119 0.3022 0.3159
H43 H 1.0153 0.3614 0.3566
H44 H 0.9374 0.3896 0.3135
C30 C 0.6892(6) 0.2503(3) 0.41157(18)
C31 C 0.6949(8) 0.2314(5) 0.45940(19)
H45 H 0.6159 0.2587 0.4739
H46 H 0.7850 0.2510 0.4712
H47 H 0.6874 0.1725 0.4637
C32 C 0.8065(6) 0.2904(4) 0.39245(19)
H48 H 0.8808 0.3080 0.4108
N1 N 0.5353(5) 0.0530(3) 0.37965(13)
H49 H 0.5538 0.0333 0.4052
N2 N 0.5740(5) 0.2288(3) 0.38908(14)
H50 H 0.5756 0.2413 0.3618
N3 N 0.9679(5) -0.1946(3) 0.59101(13)
H51 H 0.9480 -0.1583 0.5713
N4 N 0.9272(5) -0.1000(3) 0.66822(15)
H52 H 0.9221 -0.1447 0.6835
O1 O 0.7121(4) -0.0284(3) 0.43148(12)
O2 O 0.7900(4) -0.1392(2) 0.53019(13)
O3 O 0.7796(4) -0.1986(2) 0.72019(14)
O4 O 0.7220(5) 0.2882(3) 0.32115(12)
Cd1 Cd 0.82869(5) -0.31865(3) 0.752337(13)
Cd2 Cd 0.75386(5) -0.01392(2) 0.502938(13)
I1 I 0.66338(6) -0.43953(3) 0.717797(15)
I2 I 1.02183(5) 0.04343(3) 0.519673(16)
I3 I 0.49257(5) 0.04406(3) 0.526847(17)
I4 I 1.12068(5) -0.30076(3) 0.752357(18)
O4A O 0.7780(5) -0.2882(3) 0.82115(12)
Cd1A Cd 0.67131(5) 0.31865(3) 0.252337(13)
loop_
_geom_bond_atom_site_label_1
_geom_bond_atom_site_label_2
_geom_bond_site_symmetry_1
_geom_bond_site_symmetry_2
C1 H1 1_555 1_555
C2 C1 1_555 1_555
H2 C2 1_555 1_555
H3 C2 1_555 1_555
C3 C2 1_555 1_555
H4 C3 1_555 1_555
H5 C3 1_555 1_555
C4 C3 1_555 1_555
H6 C4 1_555 1_555
H7 C4 1_555 1_555
C5 C4 1_555 1_555
H8 C5 1_555 1_555
H9 C5 1_555 1_555
C6 C1 1_555 1_555
H10 C6 1_555 1_555
C7 H11 1_555 1_555
H12 C7 1_555 1_555
H13 C7 1_555 1_555
C8 C7 1_555 1_555
C9 C8 1_555 1_555
H14 C9 1_555 1_555
C10 C9 1_555 1_555
C11 C10 1_555 1_555
H15 C11 1_555 1_555
H16 C11 1_555 1_555
H17 C11 1_555 1_555
C12 H18 1_555 1_555
H19 C12 1_555 1_555
H20 C12 1_555 1_555
C13 C12 1_555 1_555
C14 C13 1_555 1_555
H21 C14 1_555 1_555
C15 C14 1_555 1_555
C16 C15 1_555 1_555
H22 C16 1_555 1_555
H23 C16 1_555 1_555
H24 C16 1_555 1_555
C17 H25 1_555 1_555
C18 C17 1_555 1_555
H26 C18 1_555 1_555
H27 C18 1_555 1_555
C19 C18 1_555 1_555
H28 C19 1_555 1_555
H29 C19 1_555 1_555
C20 C19 1_555 1_555
H30 C20 1_555 1_555
H31 C20 1_555 1_555
C21 C20 1_555 1_555
H32 C21 1_555 1_555
H33 C21 1_555 1_555
C22 C17 1_555 1_555
H34 C22 1_555 1_555
C23 H35 1_555 1_555
H36 C23 1_555 1_555
H37 C23 1_555 1_555
C24 C23 1_555 1_555
C25 C24 1_555 1_555
H38 C25 1_555 1_555
C26 C25 1_555 1_555
C27 C26 1_555 1_555
H39 C27 1_555 1_555
H40 C27 1_555 1_555
H41 C27 1_555 1_555
C28 C29 1_555 1_555
C29 H42 1_555 1_555
H43 C29 1_555 1_555
H44 C29 1_555 1_555
C30 C31 1_555 1_555
C31 H45 1_555 1_555
H46 C31 1_555 1_555
H47 C31 1_555 1_555
C32 C28 1_555 1_555
H48 C32 1_555 1_555
N1 C6 1_555 1_555
H49 N1 1_555 1_555
N2 C1 1_555 1_555
H50 N2 1_555 1_555
N3 C15 1_555 1_555
H51 N3 1_555 1_555
N4 C22 1_555 1_555
H52 N4 1_555 1_555
O1 C10 1_555 1_555
O2 C13 1_555 1_555
O3 C26 1_555 1_555
O4 C28 1_555 1_555
Cd1 O3 1_555 1_555
Cd2 O1 1_555 1_555
I1 Cd1 1_555 1_555
I2 Cd2 1_555 1_555
I3 Cd2 1_555 1_555
I4 Cd1 1_555 1_555
O4A Cd1 1_555 1_555
Cd1A O4 1_555 1_555
C5 C6 1_555 1_555
C8 N1 1_555 1_555
C17 N3 1_555 1_555
C21 C22 1_555 1_555
C24 N4 1_555 1_555
C30 C32 1_555 1_555
C30 N2 1_555 1_555
O2 Cd2 1_555 1_555

#END
