
#######################################################################
#
#                 Cambridge Crystallographic Data Centre
#                                CCDC 
#
#######################################################################
#
# If this CIF has been generated from an entry in the Cambridge 
# Structural Database, then it will include bibliographic, chemical, 
# crystal, experimental, refinement or atomic coordinate data resulting 
# from the CCDC's data processing and validation procedures.
#
#######################################################################

data_FUYSIC
_symmetry_cell_setting           triclinic
_symmetry_space_group_name_H-M   'P -1'
_symmetry_Int_Tables_number      2
_space_group_name_Hall           '-P 1'
loop_
_symmetry_equiv_pos_site_id
_symmetry_equiv_pos_as_xyz
1 x,y,z
2 -x,-y,-z
_cell_length_a                   7.5070(3)
_cell_length_b                   15.7740(6)
_cell_length_c                   16.6190(6)
_cell_angle_alpha                105.6790(6)
_cell_angle_beta                 97.3340(7)
_cell_angle_gamma                99.0640(6)
_cell_volume                     1840.83
loop_
_atom_site_label
_atom_site_type_symbol
_atom_site_fract_x
_atom_site_fract_y
_atom_site_fract_z
Ni1 Ni 0.0000 0.5000 0.5000
Ni2 Ni 0.92616(5) 0.97732(2) 0.40449(2)
V1 V -0.07807(7) 0.68776(3) 0.43207(3)
V2 V -0.32129(7) 0.84841(3) 0.49773(3)
V3 V 0.24809(7) 0.86852(3) 0.46349(3)
F1 F 0.4765(3) 0.48558(17) 0.10004(19)
F2 F -0.1080(5) 0.3140(2) -0.0252(2)
F3 F 0.6178(5) 0.7601(2) 0.92743(19)
F4 F 0.1877(5) 0.8971(2) 1.0669(2)
C1 C 0.7061(5) 0.7964(2) 0.2790(2)
H1 H 0.7909 0.7621 0.2902
C2 C 0.5701(5) 0.8400(2) 0.7908(2)
C3 C 0.4605(5) 0.8522(2) 0.8642(2)
C4 C 0.2249(5) 0.5363(2) 0.1534(2)
C5 C 0.3449(5) 0.6185(2) 0.2191(2)
C6 C 0.2481(6) 0.9260(3) 0.9412(3)
H2 H 0.1656 0.9646 0.9461
C7 C 0.4913(7) 0.8142(3) 0.9297(3)
C8 C 0.2868(5) 0.5765(2) 0.3990(2)
H3 H 0.2873 0.6371 0.4229
C9 C 0.9196(5) 0.9702(2) 0.7396(2)
H4 H 0.8802 1.0239 0.7590
C10 C 0.0013(7) 0.3871(3) 0.0346(3)
C11 C 0.2836(8) 0.8826(3) 1.0012(3)
C12 C 0.3409(6) 0.9098(3) 0.8728(3)
H5 H 0.3208 0.9390 0.8318
C13 C 0.2910(5) 0.4738(3) 0.0966(3)
C14 C 0.0341(5) 0.5193(3) 0.1475(3)
H6 H -0.0184 0.5595 0.1844
C15 C 0.5671(5) 0.9028(2) 0.2776(2)
H7 H 0.5410 0.9602 0.2907
C16 C 0.1856(6) 0.3988(3) 0.0370(3)
H8 H 0.2373 0.3582 0.0001
C17 C 0.7704(5) 0.8892(2) 0.8320(2)
H9 H 0.7691 0.9479 0.8696
H10 H 0.8241 0.8553 0.8659
C18 C 0.5728(5) 0.7424(2) 0.7439(2)
H11 H 0.6435 0.7424 0.6989
H12 H 0.6367 0.7171 0.7833
C19 C 0.3142(5) 0.6539(2) 0.6257(2)
H13 H 0.3499 0.6777 0.5834
C20 C 0.4662(6) 0.6724(2) 0.1735(2)
H14 H 0.5635 0.6412 0.1573
H15 H 0.3922 0.6741 0.1218
C21 C 0.4042(8) 0.8278(3) 0.9982(3)
H16 H 0.4273 0.8005 1.0405
C22 C 0.4698(5) 0.5921(2) 0.2850(2)
H17 H 0.5458 0.5539 0.2561
H18 H 0.5502 0.6458 0.3236
C23 C 0.2477(6) 0.4374(3) 0.3723(3)
H19 H 0.2125 0.3797 0.3765
C24 C 1.0400(5) 0.8679(2) 0.6744(2)
H20 H 1.1062 0.8374 0.6366
C25 C -0.0790(6) 0.4444(3) 0.0884(3)
H21 H -0.2054 0.4338 0.0857
C26 C 0.1823(5) 0.5760(3) 0.6922(2)
H22 H 0.1008 0.5317 0.7036
N1 N 0.2064(4) 0.51055(18) 0.42536(18)
N2 N 0.3659(4) 0.54448(18) 0.33422(18)
N3 N 0.3398(5) 0.4533(2) 0.3151(2)
N4 N 0.1758(4) 0.58563(18) 0.61342(18)
N5 N 0.3943(4) 0.68346(18) 0.70661(18)
N6 N 0.3099(4) 0.6328(2) 0.7508(2)
N7 N 0.7258(4) 0.88383(18) 0.31422(17)
N8 N 0.5476(4) 0.76433(19) 0.22523(18)
N9 N 0.4568(4) 0.8328(2) 0.2230(2)
N10 N 0.8847(4) 0.90036(19) 0.76912(18)
N11 N 0.9608(4) 0.8326(2) 0.7271(2)
N12 N 1.0168(4) 0.95335(18) 0.67968(17)
O1 O -0.0845(3) 0.60880(15) 0.47952(16)
O2 O -0.0931(4) 0.64312(17) 0.33069(16)
O4 O -0.3604(3) 0.84921(17) 0.59136(15)
O5 O -0.2705(3) 0.74247(15) 0.44770(16)
O6 O 0.8654(3) 0.92837(14) 0.50496(14)
O7 O 0.1410(3) 0.76338(15) 0.47404(16)
O8 O 0.7411(3) 1.05788(14) 0.44395(14)
O9 O 1.1177(3) 0.89506(15) 0.38845(14)
O10 O -0.5257(3) 0.86242(15) 0.43989(14)
O11 O 0.2434(4) 0.67618(18) 0.26409(18)
H23 H 0.1715 0.6898 0.2305
O12 O 0.4923(4) 0.88273(17) 0.73507(16)
H24 H 0.5530 0.8825 0.6974
Ni2A Ni -0.92616(5) 0.02268(2) 0.59551(2)
Ni2A_2 Ni 1.07384(5) 1.02268(2) 0.59551(2)
Ni2_2 Ni -1.07384(5) -0.02268(2) 0.40449(2)
V1A V 0.07807(7) 0.31224(3) 0.56793(3)
V2A V 0.32129(7) 0.15159(3) 0.50227(3)
V2_2 V 0.67871(7) 0.84841(3) 0.49773(3)
V2A_2 V 1.32129(7) 1.15159(3) 0.50227(3)
V3A V -0.24809(7) 0.13148(3) 0.53651(3)
V3A_2 V 0.75191(7) 1.13148(3) 0.53651(3)
V3_2 V 1.24809(7) 0.86852(3) 0.46349(3)
V3_3 V -0.75191(7) 0.86852(3) 0.46349(3)
V3_4 V -0.75191(7) -0.13148(3) 0.46349(3)
V3A_3 V -1.24809(7) 0.13148(3) 0.53651(3)
F1A F -0.4765(3) 0.51442(17) 0.89996(19)
F2A F 0.1080(5) 0.6860(2) 1.0252(2)
F3A F -0.6178(5) 0.2399(2) 0.07257(19)
F4A F -0.1877(5) 0.1029(2) -0.0669(2)
C1A C -0.7061(5) 0.2036(2) 0.7210(2)
H1A H -0.7909 0.2379 0.7098
C2A C -0.5701(5) 0.1600(2) 0.2092(2)
C3A C -0.4605(5) 0.1478(2) 0.1358(2)
C4A C -0.2249(5) 0.4637(2) 0.8466(2)
C5A C -0.3449(5) 0.3815(2) 0.7809(2)
C6A C -0.2481(6) 0.0740(3) 0.0588(3)
H2A H -0.1656 0.0354 0.0539
C7A C -0.4913(7) 0.1858(3) 0.0703(3)
C8A C -0.2868(5) 0.4235(2) 0.6010(2)
H3A H -0.2873 0.3629 0.5771
C9A C -0.9196(5) 0.0298(2) 0.2604(2)
H4A H -0.8802 -0.0239 0.2410
C10A C -0.0013(7) 0.6129(3) 0.9654(3)
C11A C -0.2836(8) 0.1174(3) -0.0012(3)
C12A C -0.3409(6) 0.0902(3) 0.1272(3)
H5A H -0.3208 0.0610 0.1682
C13A C -0.2910(5) 0.5262(3) 0.9034(3)
C14A C -0.0341(5) 0.4807(3) 0.8525(3)
H6A H 0.0184 0.4405 0.8156
C15A C -0.5671(5) 0.0972(2) 0.7224(2)
H7A H -0.5410 0.0398 0.7093
C16A C -0.1856(6) 0.6012(3) 0.9630(3)
H8A H -0.2373 0.6418 0.9999
C17A C -0.7704(5) 0.1108(2) 0.1680(2)
H9A H -0.7691 0.0521 0.1304
H10A H -0.8241 0.1447 0.1341
C18A C -0.5728(5) 0.2576(2) 0.2561(2)
H11A H -0.6435 0.2576 0.3011
H12A H -0.6367 0.2829 0.2167
C19A C -0.3142(5) 0.3461(2) 0.3743(2)
H13A H -0.3499 0.3223 0.4166
C20A C -0.4662(6) 0.3276(2) 0.8265(2)
H14A H -0.5635 0.3588 0.8427
H15A H -0.3922 0.3259 0.8782
C21A C -0.4042(8) 0.1722(3) 0.0018(3)
H16A H -0.4273 0.1995 -0.0405
C22A C -0.4698(5) 0.4079(2) 0.7150(2)
H17A H -0.5458 0.4461 0.7439
H18A H -0.5502 0.3542 0.6764
C23A C -0.2477(6) 0.5626(3) 0.6277(3)
H19A H -0.2125 0.6203 0.6235
C24A C -1.0400(5) 0.1321(2) 0.3256(2)
H20A H -1.1062 0.1626 0.3634
C25A C 0.0790(6) 0.5556(3) 0.9116(3)
H21A H 0.2054 0.5662 0.9143
C26A C -0.1823(5) 0.4240(3) 0.3078(2)
H22A H -0.1008 0.4683 0.2964
N1A N -0.2064(4) 0.48945(18) 0.57464(18)
N2A N -0.3659(4) 0.45552(18) 0.66578(18)
N3A N -0.3398(5) 0.5467(2) 0.6849(2)
N4A N -0.1758(4) 0.41437(18) 0.38658(18)
N5A N -0.3943(4) 0.31654(18) 0.29339(18)
N6A N -0.3099(4) 0.3672(2) 0.2492(2)
N7A N -0.7258(4) 0.11617(18) 0.68578(17)
N8A N -0.5476(4) 0.23567(19) 0.77477(18)
N9A N -0.4568(4) 0.1672(2) 0.7770(2)
N10A N -0.8847(4) 0.09964(19) 0.23088(18)
N11A N -0.9608(4) 0.1674(2) 0.2729(2)
N12A N -1.0168(4) 0.04665(18) 0.32032(17)
N12A_2 N 0.9832(4) 1.04665(18) 0.32032(17)
N12_2 N -0.9832(4) -0.04665(18) 0.67968(17)
O1A O 0.0845(3) 0.39120(15) 0.52048(16)
O2A O 0.0931(4) 0.35688(17) 0.66931(16)
O4A O 0.3604(3) 0.15079(17) 0.40864(15)
O5A O 0.2705(3) 0.25753(15) 0.55230(16)
O6A O 1.1346(3) 1.07163(14) 0.49504(14)
O6_2 O -0.1346(3) 0.92837(14) 0.50496(14)
O6A_2 O -0.8654(3) 0.07163(14) 0.49504(14)
O6_3 O -1.1346(3) -0.07163(14) 0.50496(14)
O6A_3 O 0.1346(3) 0.07163(14) 0.49504(14)
O7A O -0.1410(3) 0.23662(15) 0.52596(16)
O8A O -0.7411(3) -0.05788(14) 0.55605(14)
O8A_2 O 0.2589(3) 0.94212(14) 0.55605(14)
O8_2 O -0.2589(3) 0.05788(14) 0.44395(14)
O9A O -1.1177(3) 0.10494(15) 0.61155(14)
O9_2 O 0.1177(3) 0.89506(15) 0.38845(14)
O9A_2 O -0.1177(3) 0.10494(15) 0.61155(14)
O10_2 O 0.4743(3) 0.86242(15) 0.43989(14)
O10A O 0.5257(3) 0.13758(15) 0.56011(14)
O10A_2 O -0.4743(3) 0.13758(15) 0.56011(14)
O11A O -0.2434(4) 0.32382(18) 0.73591(18)
H23A H -0.1715 0.3102 0.7695
O12A O -0.4923(4) 0.11727(17) 0.26493(16)
H24A H -0.5530 0.1175 0.3026
O3 O 0.0527(8) 0.8009(4) 0.2033(4)
loop_
_geom_bond_atom_site_label_1
_geom_bond_atom_site_label_2
_geom_bond_site_symmetry_1
_geom_bond_site_symmetry_2
Ni1 N1 1_555 1_555
Ni2 N7 1_555 1_555
V1 O1 1_555 1_555
V2 O4 1_555 1_555
V3 O7 1_555 1_555
F1 C13 1_555 1_555
F2 C10 1_555 1_555
F3 C7 1_555 1_555
F4 C11 1_555 1_555
C1 H1 1_555 1_555
C2 C3 1_555 1_555
C3 C7 1_555 1_555
C4 C5 1_555 1_555
C5 C20 1_555 1_555
C6 H2 1_555 1_555
C7 C21 1_555 1_555
C8 H3 1_555 1_555
C9 H4 1_555 1_555
C10 C16 1_555 1_555
C11 C6 1_555 1_555
C12 C3 1_555 1_555
H5 C12 1_555 1_555
C13 C4 1_555 1_555
C14 C4 1_555 1_555
H6 C14 1_555 1_555
C15 H7 1_555 1_555
C16 C13 1_555 1_555
H8 C16 1_555 1_555
C17 C2 1_555 1_555
H9 C17 1_555 1_555
H10 C17 1_555 1_555
C18 C2 1_555 1_555
H11 C18 1_555 1_555
H12 C18 1_555 1_555
C19 H13 1_555 1_555
C20 H14 1_555 1_555
H15 C20 1_555 1_555
C21 C11 1_555 1_555
H16 C21 1_555 1_555
C22 C5 1_555 1_555
H17 C22 1_555 1_555
H18 C22 1_555 1_555
C23 H19 1_555 1_555
C24 H20 1_555 1_555
C25 C10 1_555 1_555
H21 C25 1_555 1_555
C26 H22 1_555 1_555
N1 C8 1_555 1_555
N2 C8 1_555 1_555
N3 C23 1_555 1_555
N4 Ni1 1_555 1_555
N5 C18 1_555 1_555
N6 C26 1_555 1_555
N7 C1 1_555 1_555
N8 C1 1_555 1_555
N9 C15 1_555 1_555
N10 C9 1_555 1_555
N11 C24 1_555 1_555
N12 C9 1_555 1_555
O1 Ni1 1_555 1_555
O2 V1 1_555 1_555
O5 V1 1_555 1_555
O6 Ni2 1_555 1_555
O7 V1 1_555 1_555
O8 Ni2 1_555 1_555
O9 Ni2 1_555 1_555
O10 V2 1_555 1_555
O11 C5 1_555 1_555
H23 O11 1_555 1_555
O12 C2 1_555 1_555
H24 O12 1_555 1_555
Ni2A N7A 1_555 1_555
Ni2A_2 N12 1_555 1_555
Ni2_2 N12A 1_555 1_555
V1A O1A 1_555 1_555
V2A O4A 1_555 1_555
V2_2 O6 1_555 1_555
V2A_2 O6A 1_555 1_555
V3A O7A 1_555 1_555
V3A_2 O8 1_555 1_555
V3_2 O9 1_555 1_555
V3_3 O10 1_555 1_555
V3_4 O8A 1_555 1_555
V3A_3 O9A 1_555 1_555
F1A C13A 1_555 1_555
F2A C10A 1_555 1_555
F3A C7A 1_555 1_555
F4A C11A 1_555 1_555
C1A H1A 1_555 1_555
C2A C3A 1_555 1_555
C3A C7A 1_555 1_555
C4A C5A 1_555 1_555
C5A C20A 1_555 1_555
C6A H2A 1_555 1_555
C7A C21A 1_555 1_555
C8A H3A 1_555 1_555
C9A H4A 1_555 1_555
C10A C16A 1_555 1_555
C11A C6A 1_555 1_555
C12A C3A 1_555 1_555
H5A C12A 1_555 1_555
C13A C4A 1_555 1_555
C14A C4A 1_555 1_555
H6A C14A 1_555 1_555
C15A H7A 1_555 1_555
C16A C13A 1_555 1_555
H8A C16A 1_555 1_555
C17A C2A 1_555 1_555
H9A C17A 1_555 1_555
H10A C17A 1_555 1_555
C18A C2A 1_555 1_555
H11A C18A 1_555 1_555
H12A C18A 1_555 1_555
C19A H13A 1_555 1_555
C20A H14A 1_555 1_555
H15A C20A 1_555 1_555
C21A C11A 1_555 1_555
H16A C21A 1_555 1_555
C22A C5A 1_555 1_555
H17A C22A 1_555 1_555
H18A C22A 1_555 1_555
C23A H19A 1_555 1_555
C24A H20A 1_555 1_555
C25A C10A 1_555 1_555
H21A C25A 1_555 1_555
C26A H22A 1_555 1_555
N1A Ni1 1_555 1_555
N2A C8A 1_555 1_555
N3A C23A 1_555 1_555
N4A Ni1 1_555 1_555
N5A C18A 1_555 1_555
N6A C26A 1_555 1_555
N7A C1A 1_555 1_555
N8A C1A 1_555 1_555
N9A C15A 1_555 1_555
N10A C9A 1_555 1_555
N11A C24A 1_555 1_555
N12A C9A 1_555 1_555
N12A_2 Ni2 1_555 1_555
N12_2 Ni2A 1_555 1_555
O1A Ni1 1_555 1_555
O2A V1A 1_555 1_555
O5A V1A 1_555 1_555
O6A Ni2 1_555 1_555
O6_2 V2 1_555 1_555
O6A_2 Ni2A 1_555 1_555
O6_3 Ni2A 1_555 1_555
O6A_3 V2A 1_555 1_555
O7A V1A 1_555 1_555
O8A Ni2A 1_555 1_555
O8A_2 V3 1_555 1_555
O8_2 V3A 1_555 1_555
O9A Ni2A 1_555 1_555
O9_2 V3 1_555 1_555
O9A_2 V3A 1_555 1_555
O10_2 V3 1_555 1_555
O10A V2A 1_555 1_555
O10A_2 V3A 1_555 1_555
O11A C5A 1_555 1_555
H23A O11A 1_555 1_555
O12A C2A 1_555 1_555
H24A O12A 1_555 1_555
V2 O5 1_555 1_555
C6 C12 1_555 1_555
C14 C25 1_555 1_555
C15 N7 1_555 1_555
C17 N10 1_555 1_555
C19 N4 1_555 1_555
C19 N5 1_555 1_555
C20 N8 1_555 1_555
C22 N2 1_555 1_555
C23 N1 1_555 1_555
C24 N12 1_555 1_555
C26 N4 1_555 1_555
N2 N3 1_555 1_555
N5 N6 1_555 1_555
N8 N9 1_555 1_555
N10 N11 1_555 1_555
O6 Ni2A_2 1_555 1_555
Ni2A_2 O6A 1_555 1_555
Ni2_2 O6A_2 1_555 1_555
Ni2_2 O6_3 1_555 1_555
V2A O5A 1_555 1_555
V2_2 O10_2 1_555 1_555
C6A C12A 1_555 1_555
C8A N1A 1_555 1_555
C14A C25A 1_555 1_555
C15A N7A 1_555 1_555
C17A N10A 1_555 1_555
C19A N4A 1_555 1_555
C19A N5A 1_555 1_555
C20A N8A 1_555 1_555
C22A N2A 1_555 1_555
C23A N1A 1_555 1_555
C24A N12A 1_555 1_555
C26A N4A 1_555 1_555
N2A N3A 1_555 1_555
N5A N6A 1_555 1_555
N8A N9A 1_555 1_555
N10A N11A 1_555 1_555

#END
