
#######################################################################
#
#                 Cambridge Crystallographic Data Centre
#                                CCDC 
#
#######################################################################
#
# If this CIF has been generated from an entry in the Cambridge 
# Structural Database, then it will include bibliographic, chemical, 
# crystal, experimental, refinement or atomic coordinate data resulting 
# from the CCDC's data processing and validation procedures.
#
#######################################################################

data_FUYSEY
_symmetry_cell_setting           monoclinic
_symmetry_space_group_name_H-M   'P 21/c'
_symmetry_Int_Tables_number      14
_space_group_name_Hall           '-P 2ybc'
loop_
_symmetry_equiv_pos_site_id
_symmetry_equiv_pos_as_xyz
1 x,y,z
2 -x,1/2+y,1/2-z
3 -x,-y,-z
4 x,1/2-y,1/2+z
_cell_length_a                   16.865(2)
_cell_length_b                   11.0364(16)
_cell_length_c                   33.354(5)
_cell_angle_alpha                90
_cell_angle_beta                 97.577(2)
_cell_angle_gamma                90
_cell_volume                     6153.94
loop_
_atom_site_label
_atom_site_type_symbol
_atom_site_fract_x
_atom_site_fract_y
_atom_site_fract_z
C1 C -0.0372(3) -0.0699(4) 0.67622(15)
C2 C 0.0389(3) 0.0023(4) 0.68573(15)
C3 C 0.0908(3) 0.0178(5) 0.65709(15)
C4 C 0.1658(3) 0.0670(4) 0.66900(15)
H1 H 0.2020 0.0709 0.6503
C5 C 0.1889(3) 0.1108(4) 0.70787(15)
C6 C 0.1318(3) 0.1118(4) 0.73517(14)
C7 C 0.0593(3) 0.0529(4) 0.72403(15)
H2 H 0.0232 0.0470 0.7428
C8 C 0.1455(3) 0.1829(4) 0.77388(14)
C9 C 0.0677(3) -0.0054(5) 0.61227(16)
C10 C 0.0066(3) 0.0792(5) 0.59072(16)
C11 C -0.0165(4) 0.0623(6) 0.54957(17)
H3 H 0.0012 -0.0050 0.5365
C12 C -0.0663(4) 0.1464(6) 0.5281(2)
H4 H -0.0813 0.1363 0.5005
C13 C -0.0939(4) 0.2456(6) 0.5477(2)
H5 H -0.1276 0.3016 0.5333
C14 C -0.0716(3) 0.2609(5) 0.5881(2)
H6 H -0.0900 0.3279 0.6011
C15 C -0.0223(3) 0.1786(5) 0.61005(17)
H7 H -0.0083 0.1893 0.6377
C16 C 0.2744(3) 0.1498(5) 0.71740(17)
C17 C 0.3301(3) 0.0804(5) 0.74680(16)
C18 C 0.4119(4) 0.0985(7) 0.7469(2)
H8 H 0.4300 0.1574 0.7304
C19 C 0.4663(5) 0.0287(8) 0.7718(3)
H9 H 0.5208 0.0406 0.7718
C20 C 0.4401(5) -0.0585(9) 0.7967(3)
H10 H 0.4768 -0.1052 0.8132
C21 C 0.3593(5) -0.0759(7) 0.7969(2)
H11 H 0.3413 -0.1335 0.8140
C22 C 0.3052(4) -0.0076(6) 0.77168(18)
H12 H 0.2508 -0.0213 0.7715
C23 C 0.2388(3) 1.0269(5) 0.88040(15)
C24 C 0.2716(3) 0.9094(5) 0.89853(15)
C25 C 0.3296(3) 0.9125(5) 0.93246(17)
C26 C 0.3577(3) 0.8054(5) 0.95022(16)
H13 H 0.3955 0.8082 0.9732
C27 C 0.3312(3) 0.6935(5) 0.93481(15)
C28 C 0.2744(3) 0.6901(5) 0.90033(15)
C29 C 0.2452(3) 0.7979(5) 0.88255(14)
H14 H 0.2075 0.7954 0.8596
C30 C 0.2429(3) 0.5710(5) 0.88293(17)
C31 C 0.3593(4) 1.0320(5) 0.9514(2)
C32 C 0.4388(4) 1.0770(6) 0.94312(19)
C33 C 0.4547(5) 1.1996(6) 0.9468(2)
H15 H 0.4148 1.2512 0.9535
C34 C 0.5264(6) 1.2471(8) 0.9410(2)
H16 H 0.5348 1.3303 0.9425
C35 C 0.5856(5) 1.1716(9) 0.9331(3)
H17 H 0.6358 1.2032 0.9304
C36 C 0.5728(5) 1.0481(8) 0.9289(3)
H18 H 0.6134 0.9969 0.9229
C37 C 0.4980(5) 1.0021(7) 0.9339(3)
H19 H 0.4883 0.9194 0.9309
C38 C 0.3696(3) 0.5799(5) 0.95392(16)
C39 C 0.3462(3) 0.5373(5) 0.99267(17)
C40 C 0.3897(4) 0.4464(6) 1.01365(18)
H20 H 0.4330 0.4127 1.0030
C41 C 0.3704(5) 0.4048(7) 1.0497(2)
H21 H 0.4002 0.3430 1.0634
C42 C 0.3073(5) 0.4546(8) 1.0657(2)
H22 H 0.2942 0.4263 1.0902
C43 C 0.2629(4) 0.5467(7) 1.0455(2)
H23 H 0.2203 0.5812 1.0565
C44 C 0.2825(4) 0.5874(6) 1.00843(18)
H24 H 0.2526 0.6484 0.9944
C45 C -0.0599(3) 0.1530(5) 0.88129(17)
H25 H -0.0502 0.2294 0.8927
C46 C -0.1276(3) 0.0915(6) 0.88894(17)
H26 H -0.1622 0.1266 0.9051
C47 C -0.1439(3) -0.0221(5) 0.87259(16)
C48 C -0.0921(3) -0.0645(5) 0.84671(16)
H27 H -0.1023 -0.1380 0.8335
C49 C -0.0258(3) 0.0015(5) 0.84055(16)
H28 H 0.0080 -0.0295 0.8232
C50 C -0.2148(3) -0.0959(6) 0.88315(16)
H29 H -0.2164 -0.1729 0.8690
H30 H -0.2639 -0.0529 0.8739
C51 C -0.2101(3) -0.1195(5) 0.92875(16)
H31 H -0.2090 -0.0423 0.9427
H32 H -0.2580 -0.1621 0.9339
C52 C -0.1379(3) -0.1925(6) 0.94583(16)
H33 H -0.1433 -0.2741 0.9351
H34 H -0.0905 -0.1568 0.9370
C53 C -0.1270(3) -0.1983(5) 0.99090(15)
C54 C -0.1039(3) -0.0970(5) 1.01397(16)
H35 H -0.0932 -0.0248 1.0013
C55 C -0.0969(3) -0.1022(5) 1.05555(16)
H36 H -0.0824 -0.0321 1.0701
C56 C -0.1300(3) -0.3014(5) 1.05397(15)
H37 H -0.1378 -0.3736 1.0673
C57 C -0.1401(3) -0.3015(5) 1.01240(16)
H38 H -0.1560 -0.3724 0.9985
C58 C 0.1817(3) 0.6288(5) 0.75532(17)
H39 H 0.1433 0.6491 0.7718
C59 C 0.1992(3) 0.7115(5) 0.72663(17)
H40 H 0.1727 0.7856 0.7241
C60 C 0.2558(3) 0.6845(5) 0.70180(16)
C61 C 0.2898(3) 0.5707(5) 0.70572(15)
H41 H 0.3267 0.5471 0.6888
C62 C 0.2691(3) 0.4917(5) 0.73489(16)
H42 H 0.2922 0.4150 0.7367
C63 C 0.2834(3) 0.7751(5) 0.67278(17)
H43 H 0.2542 0.8504 0.6743
H44 H 0.2721 0.7444 0.6454
C64 C 0.3724(3) 0.7992(5) 0.68272(17)
H45 H 0.4008 0.7231 0.6815
H46 H 0.3830 0.8289 0.7103
C65 C 0.4057(3) 0.8898(5) 0.65489(16)
H47 H 0.3892 0.8665 0.6270
H48 H 0.3836 0.9693 0.6590
C66 C 0.4961(3) 0.8966(5) 0.66246(15)
C67 C 0.5364(3) 1.0046(5) 0.66845(17)
H49 H 0.5079 1.0769 0.6672
C68 C 0.6192(3) 1.0067(5) 0.67628(16)
H50 H 0.6447 1.0812 0.6802
C69 C 0.5424(3) 0.7927(5) 0.66372(16)
H51 H 0.5181 0.7175 0.6591
C70 C 0.6248(3) 0.8007(5) 0.67182(15)
H52 H 0.6544 0.7294 0.6727
N1 N 0.2176(2) 0.5205(4) 0.76040(13)
N2 N 0.6642(2) 0.9056(4) 0.67851(12)
N3 N -0.0075(2) 0.1086(4) 0.85839(13)
N4 N -0.1098(2) -0.2035(4) 1.07618(12)
Ni1 Ni 0.21008(4) 0.41204(6) 0.811212(19)
Ni2 Ni 0.10231(4) 0.19879(6) 0.860160(19)
O1 O -0.04024(19) -0.1385(3) 0.64556(10)
O2 O -0.08884(19) -0.0597(3) 0.69984(10)
O3 O 0.1045(2) -0.0776(3) 0.59405(10)
O4 O 0.3001(2) 0.2284(4) 0.69630(12)
O5 O 0.2042(2) 0.2567(3) 0.77669(10)
O6 O 0.0984(2) 0.1653(3) 0.79927(10)
O7 O 0.1651(2) 1.0335(3) 0.86779(10)
O8 O 0.2887(2) 1.1120(3) 0.87935(13)
O9 O 0.3198(3) 1.0867(4) 0.97306(15)
O10 O 0.4230(2) 0.5337(4) 0.93870(12)
O11 O 0.2463(2) 0.4836(3) 0.90729(11)
O12 O 0.21634(19) 0.5679(3) 0.84613(10)
O13 O 0.20695(17) 0.3009(3) 0.86240(9)
N2A N 0.3358(2) 0.4056(4) 0.82149(12)
N4B N 0.1098(2) 0.2035(4) 0.92382(12)
Ni1A Ni 0.78992(4) 0.91204(6) 0.688788(19)
Ni1A_2 Ni -0.21008(4) -0.08796(6) 0.688788(19)
Ni2B Ni -0.10231(4) -0.19879(6) 1.139840(19)
Ni2A Ni -0.10231(4) -0.30121(6) 0.639840(19)
Ni2_2 Ni 0.10231(4) 1.19879(6) 0.860160(19)
O1A O 0.04024(19) 0.3615(3) 0.85444(10)
O2A O 0.08884(19) 0.4403(3) 0.80016(10)
O7_2 O 0.1651(2) 0.0335(3) 0.86779(10)
loop_
_geom_bond_atom_site_label_1
_geom_bond_atom_site_label_2
_geom_bond_site_symmetry_1
_geom_bond_site_symmetry_2
C1 C2 1_555 1_555
C2 C3 1_555 1_555
C3 C4 1_555 1_555
C4 H1 1_555 1_555
C5 C4 1_555 1_555
C6 C5 1_555 1_555
C7 C2 1_555 1_555
H2 C7 1_555 1_555
C8 C6 1_555 1_555
C9 C3 1_555 1_555
C10 C9 1_555 1_555
C11 C10 1_555 1_555
H3 C11 1_555 1_555
C12 C11 1_555 1_555
H4 C12 1_555 1_555
C13 C12 1_555 1_555
H5 C13 1_555 1_555
C14 C13 1_555 1_555
H6 C14 1_555 1_555
C15 C10 1_555 1_555
H7 C15 1_555 1_555
C16 C5 1_555 1_555
C17 C16 1_555 1_555
C18 C17 1_555 1_555
H8 C18 1_555 1_555
C19 C18 1_555 1_555
H9 C19 1_555 1_555
C20 C19 1_555 1_555
H10 C20 1_555 1_555
C21 C20 1_555 1_555
H11 C21 1_555 1_555
C22 C17 1_555 1_555
H12 C22 1_555 1_555
C23 C24 1_555 1_555
C24 C25 1_555 1_555
C25 C26 1_555 1_555
C26 H13 1_555 1_555
C27 C26 1_555 1_555
C28 C27 1_555 1_555
C29 C24 1_555 1_555
H14 C29 1_555 1_555
C30 C28 1_555 1_555
C31 C25 1_555 1_555
C32 C31 1_555 1_555
C33 C32 1_555 1_555
H15 C33 1_555 1_555
C34 C33 1_555 1_555
H16 C34 1_555 1_555
C35 C34 1_555 1_555
H17 C35 1_555 1_555
C36 C35 1_555 1_555
H18 C36 1_555 1_555
C37 C32 1_555 1_555
H19 C37 1_555 1_555
C38 C27 1_555 1_555
C39 C38 1_555 1_555
C40 C39 1_555 1_555
H20 C40 1_555 1_555
C41 C40 1_555 1_555
H21 C41 1_555 1_555
C42 C41 1_555 1_555
H22 C42 1_555 1_555
C43 C42 1_555 1_555
H23 C43 1_555 1_555
C44 C39 1_555 1_555
H24 C44 1_555 1_555
C45 H25 1_555 1_555
C46 C45 1_555 1_555
H26 C46 1_555 1_555
C47 C46 1_555 1_555
C48 C47 1_555 1_555
H27 C48 1_555 1_555
C49 C48 1_555 1_555
H28 C49 1_555 1_555
C50 C47 1_555 1_555
H29 C50 1_555 1_555
H30 C50 1_555 1_555
C51 C50 1_555 1_555
H31 C51 1_555 1_555
H32 C51 1_555 1_555
C52 C51 1_555 1_555
H33 C52 1_555 1_555
H34 C52 1_555 1_555
C53 C52 1_555 1_555
C54 C53 1_555 1_555
H35 C54 1_555 1_555
C55 C54 1_555 1_555
H36 C55 1_555 1_555
C56 H37 1_555 1_555
C57 C53 1_555 1_555
H38 C57 1_555 1_555
C58 H39 1_555 1_555
C59 C58 1_555 1_555
H40 C59 1_555 1_555
C60 C59 1_555 1_555
C61 C60 1_555 1_555
H41 C61 1_555 1_555
C62 C61 1_555 1_555
H42 C62 1_555 1_555
C63 C60 1_555 1_555
H43 C63 1_555 1_555
H44 C63 1_555 1_555
C64 C63 1_555 1_555
H45 C64 1_555 1_555
H46 C64 1_555 1_555
C65 C64 1_555 1_555
H47 C65 1_555 1_555
H48 C65 1_555 1_555
C66 C65 1_555 1_555
C67 C66 1_555 1_555
H49 C67 1_555 1_555
C68 C67 1_555 1_555
H50 C68 1_555 1_555
C69 C66 1_555 1_555
H51 C69 1_555 1_555
C70 C69 1_555 1_555
H52 C70 1_555 1_555
N1 C58 1_555 1_555
N2 C68 1_555 1_555
N3 C45 1_555 1_555
N4 C55 1_555 1_555
Ni1 N1 1_555 1_555
Ni2 N3 1_555 1_555
O1 C1 1_555 1_555
O2 C1 1_555 1_555
O3 C9 1_555 1_555
O4 C16 1_555 1_555
O5 C8 1_555 1_555
O6 C8 1_555 1_555
O7 C23 1_555 1_555
O8 C23 1_555 1_555
O9 C31 1_555 1_555
O10 C38 1_555 1_555
O11 C30 1_555 1_555
O12 C30 1_555 1_555
O13 Ni1 1_555 1_555
N2A Ni1 1_555 1_555
N4B Ni2 1_555 1_555
Ni1A N2 1_555 1_555
Ni1A_2 O2 1_555 1_555
Ni2B N4 1_555 1_555
Ni2A O1 1_555 1_555
Ni2_2 O7 1_555 1_555
O1A Ni2 1_555 1_555
O2A Ni1 1_555 1_555
O7_2 Ni2 1_555 1_555
C6 C7 1_555 1_555
C14 C15 1_555 1_555
C21 C22 1_555 1_555
C28 C29 1_555 1_555
C36 C37 1_555 1_555
C43 C44 1_555 1_555
C49 N3 1_555 1_555
C56 C57 1_555 1_555
C56 N4 1_555 1_555
C62 N1 1_555 1_555
C70 N2 1_555 1_555
Ni1 O5 1_555 1_555
Ni1 O12 1_555 1_555
Ni2 O6 1_555 1_555
Ni2 O13 1_555 1_555

#END
