
#######################################################################
#
#                 Cambridge Crystallographic Data Centre
#                                CCDC 
#
#######################################################################
#
# If this CIF has been generated from an entry in the Cambridge 
# Structural Database, then it will include bibliographic, chemical, 
# crystal, experimental, refinement or atomic coordinate data resulting 
# from the CCDC's data processing and validation procedures.
#
#######################################################################

data_FUYSUO
_symmetry_cell_setting           monoclinic
_symmetry_space_group_name_H-M   'P 21/c'
_symmetry_Int_Tables_number      14
_space_group_name_Hall           '-P 2ybc'
loop_
_symmetry_equiv_pos_site_id
_symmetry_equiv_pos_as_xyz
1 x,y,z
2 -x,1/2+y,1/2-z
3 -x,-y,-z
4 x,1/2-y,1/2+z
_cell_length_a                   10.408(4)
_cell_length_b                   17.120(6)
_cell_length_c                   11.582(4)
_cell_angle_alpha                90
_cell_angle_beta                 114.531(4)
_cell_angle_gamma                90
_cell_volume                     1877.46
loop_
_atom_site_label
_atom_site_type_symbol
_atom_site_fract_x
_atom_site_fract_y
_atom_site_fract_z
Cu1 Cu 0.23195(3) 0.218722(17) 0.75074(3)
O1 O 0.3180(2) 0.21897(14) 0.9437(2)
H1 H 0.386(3) 0.2044(16) 0.988(3)
H2 H 0.289(3) 0.2462(19) 0.983(3)
O2 O 0.4295(2) 0.16678(15) 0.7699(2)
H3 H 0.422(3) 0.135(2) 0.718(3)
H4 H 0.491(3) 0.194(2) 0.772(4)
O3 O 0.1644(2) 0.20549(12) 0.5507(2)
H5 H 0.084(4) 0.217(2) 0.506(4)
H6 H 0.164(4) 0.157(3) 0.526(4)
O4 O 0.0269(2) 0.27076(13) 0.7334(2)
H7 H -0.039(3) 0.2843(18) 0.664(3)
H8 H -0.005(4) 0.257(2) 0.771(4)
N1 N 0.2912(2) 0.33057(12) 0.7396(2)
N2 N 1.1485(2) 0.38864(12) 1.2473(2)
N3 N 0.6285(2) 0.54163(12) 0.8975(2)
N4 N 0.7658(2) 0.55261(12) 0.9872(2)
N5 N 0.70030(19) 0.43387(11) 1.00559(19)
N6 N 0.6908(2) 0.35969(15) 1.0535(3)
C1 C 0.4151(2) 0.35948(14) 0.8237(2)
H11 H 0.4784 0.3257 0.8850
C2 C 0.4528(2) 0.43674(14) 0.8234(2)
C3 C 0.3576(3) 0.48698(16) 0.7338(3)
H12 H 0.3791 0.5402 0.7324
C4 C 0.2309(3) 0.45688(17) 0.6471(3)
H13 H 0.1648 0.4894 0.5856
C5 C 0.2029(3) 0.37877(16) 0.6519(3)
H14 H 0.1180 0.3584 0.5909
C6 C 1.0156(2) 0.40232(15) 1.1632(2)
H15 H 0.9636 0.3608 1.1119
C7 C 0.9515(2) 0.47444(14) 1.1485(2)
C8 C 1.0293(3) 0.53593(16) 1.2230(3)
H16 H 0.9902 0.5862 1.2143
C9 C 1.1662(3) 0.52121(18) 1.3107(3)
H17 H 1.2209 0.5616 1.3630
C10 C 1.2215(3) 0.44789(17) 1.3208(3)
H18 H 1.3139 0.4387 1.3816
C11 C 0.5918(2) 0.47022(14) 0.9098(2)
C12 C 0.8079(2) 0.48719(14) 1.0497(2)
H19 H 0.727(4) 0.363(3) 1.135(4)
H20 H 0.729(3) 0.322(2) 1.029(4)
Cu1C Cu 1.23195(3) 0.281278(17) 1.25074(3)
N2C N 0.1485(2) 0.11136(12) 0.7473(2)
S1 S -0.19406(7) 0.21083(4) 0.89212(6)
O5 O -0.3318(3) 0.2378(2) 0.8052(3)
O6 O -0.1029(3) 0.27826(18) 0.9190(3)
O7 O -0.1396(4) 0.1546(2) 0.8353(3)
O8 O -0.1943(3) 0.1850(2) 1.0100(2)
O9 O 0.5789(3) 0.17176(17) 1.0875(3)
H9 H 0.607(4) 0.197(2) 1.149(4)
H10 H 0.632(4) 0.179(2) 1.056(4)
loop_
_geom_bond_atom_site_label_1
_geom_bond_atom_site_label_2
_geom_bond_site_symmetry_1
_geom_bond_site_symmetry_2
Cu1 O1 1_555 1_555
S1 O5 1_555 1_555
O1 H1 1_555 1_555
H2 O1 1_555 1_555
O2 Cu1 1_555 1_555
H3 O2 1_555 1_555
H4 O2 1_555 1_555
O3 Cu1 1_555 1_555
H5 O3 1_555 1_555
H6 O3 1_555 1_555
O4 Cu1 1_555 1_555
H7 O4 1_555 1_555
H8 O4 1_555 1_555
O6 S1 1_555 1_555
O7 S1 1_555 1_555
O8 S1 1_555 1_555
O9 H9 1_555 1_555
H10 O9 1_555 1_555
N1 Cu1 1_555 1_555
N2 C6 1_555 1_555
N3 N4 1_555 1_555
N4 C12 1_555 1_555
N5 N6 1_555 1_555
N6 H19 1_555 1_555
C1 N1 1_555 1_555
H11 C1 1_555 1_555
C2 C1 1_555 1_555
C3 C2 1_555 1_555
H12 C3 1_555 1_555
C4 C3 1_555 1_555
H13 C4 1_555 1_555
C5 N1 1_555 1_555
H14 C5 1_555 1_555
C6 H15 1_555 1_555
C7 C6 1_555 1_555
C8 C7 1_555 1_555
H16 C8 1_555 1_555
C9 C8 1_555 1_555
H17 C9 1_555 1_555
C10 N2 1_555 1_555
H18 C10 1_555 1_555
C11 N3 1_555 1_555
C12 N5 1_555 1_555
H20 N6 1_555 1_555
Cu1C N2 1_555 1_555
N2C Cu1 1_555 1_555
N5 C11 1_555 1_555
C2 C11 1_555 1_555
C4 C5 1_555 1_555
C7 C12 1_555 1_555
C9 C10 1_555 1_555

#END
