
#######################################################################
#
#                 Cambridge Crystallographic Data Centre
#                                CCDC 
#
#######################################################################
#
# If this CIF has been generated from an entry in the Cambridge 
# Structural Database, then it will include bibliographic, chemical, 
# crystal, experimental, refinement or atomic coordinate data resulting 
# from the CCDC's data processing and validation procedures.
#
#######################################################################

data_FUYTEZ
_symmetry_cell_setting           monoclinic
_symmetry_space_group_name_H-M   'P 21/n'
_symmetry_Int_Tables_number      14
_space_group_name_Hall           '-P 2yn'
loop_
_symmetry_equiv_pos_site_id
_symmetry_equiv_pos_as_xyz
1 x,y,z
2 1/2-x,1/2+y,1/2-z
3 -x,-y,-z
4 1/2+x,1/2-y,1/2+z
_cell_length_a                   7.2114(11)
_cell_length_b                   11.5938(19)
_cell_length_c                   22.398(4)
_cell_angle_alpha                90
_cell_angle_beta                 94.164(4)
_cell_angle_gamma                90
_cell_volume                     1867.7
loop_
_atom_site_label
_atom_site_type_symbol
_atom_site_fract_x
_atom_site_fract_y
_atom_site_fract_z
Cu1 Cu 0.58737(5) 0.95536(3) 0.740275(17)
S1 S 0.42961(11) 1.22127(7) 0.81910(4)
O1 O 0.5836(3) 1.1569(2) 0.79536(13)
O2 O 0.2548(3) 1.1550(2) 0.80773(13)
O3 O 0.4111(4) 1.3332(2) 0.78804(15)
O4 O 0.4634(5) 1.2399(4) 0.88316(13)
O5 O 0.3585(4) 0.9307(2) 0.78433(12)
H1 H 0.273(5) 0.900(4) 0.7632(17)
H2 H 0.329(7) 0.999(2) 0.789(2)
O6 O 0.8157(4) 0.9945(2) 0.69992(11)
H3 H 0.810(7) 1.023(4) 0.6654(11)
H4 H 0.877(4) 0.933(3) 0.704(2)
O7 O 0.5774(4) 0.7727(2) 0.71169(14)
H5 H 0.484(8) 0.726(5) 0.704(2)
H6 H 0.676(8) 0.737(5) 0.706(2)
N1 N 0.7498(4) 0.9143(2) 0.81497(12)
N2 N 0.9286(4) 0.4863(3) 1.16759(12)
N3 N 0.7415(4) 0.5957(3) 0.91330(12)
N4 N 0.7352(4) 0.5171(3) 0.95952(13)
N5 N 0.8048(4) 0.6863(2) 0.99837(12)
N6 N 0.8329(5) 0.7795(2) 1.03801(13)
H9 H 0.8374 0.8486 1.0243
H10 H 0.8456 0.7674 1.0760
C1 C 0.7155(5) 0.8237(3) 0.85000(15)
H11 H 0.6188 0.7740 0.8380
C2 C 0.8189(5) 0.8017(3) 0.90335(15)
C3 C 0.9638(5) 0.8758(3) 0.92114(16)
H12 H 1.0348 0.8636 0.9569
C4 C 1.0005(6) 0.9681(3) 0.88472(17)
H13 H 1.0974 1.0186 0.8954
C5 C 0.8914(5) 0.9838(3) 0.83255(16)
H14 H 0.9172 1.0458 0.8082
C6 C 0.8998(5) 0.5502(3) 1.11810(15)
H15 H 0.9533 0.6231 1.1171
C7 C 0.7923(5) 0.5112(3) 1.06802(14)
C8 C 0.7077(5) 0.4037(3) 1.07069(16)
H16 H 0.6300 0.3770 1.0387
C9 C 0.7404(5) 0.3373(3) 1.12111(17)
H17 H 0.6879 0.2643 1.1233
C10 C 0.8521(5) 0.3804(3) 1.16848(16)
H18 H 0.8754 0.3347 1.2023
C11 C 0.7831(5) 0.6963(3) 0.93751(15)
C12 C 0.7753(5) 0.5722(3) 1.00989(15)
Cu1C Cu 1.08737(5) 0.54464(3) 1.240275(17)
N2C N 0.4286(4) 1.0137(3) 0.66759(12)
O8 O 0.2880(5) 0.2274(3) 0.44455(17)
H7 H 0.277(15) 0.151(2) 0.437(5)
H8 H 0.180(11) 0.246(7) 0.421(4)
O10 O -0.0667(16) 0.6360(13) 0.4719(6)
O9? O -0.0512(14) 0.5285(6) 0.4787(6)
loop_
_geom_bond_atom_site_label_1
_geom_bond_atom_site_label_2
_geom_bond_site_symmetry_1
_geom_bond_site_symmetry_2
Cu1 O1 1_555 1_555
S1 O1 1_555 1_555
O2 S1 1_555 1_555
O3 S1 1_555 1_555
O4 S1 1_555 1_555
O5 Cu1 1_555 1_555
H1 O5 1_555 1_555
H2 O5 1_555 1_555
O6 Cu1 1_555 1_555
H3 O6 1_555 1_555
H4 O6 1_555 1_555
O7 Cu1 1_555 1_555
H5 O7 1_555 1_555
H6 O7 1_555 1_555
O8 H7 1_555 1_555
H8 O8 1_555 1_555
N1 Cu1 1_555 1_555
N2 C6 1_555 1_555
N3 N4 1_555 1_555
N4 C12 1_555 1_555
N5 N6 1_555 1_555
N6 H9 1_555 1_555
H10 N6 1_555 1_555
C1 N1 1_555 1_555
H11 C1 1_555 1_555
C2 C1 1_555 1_555
C3 C2 1_555 1_555
H12 C3 1_555 1_555
C4 C3 1_555 1_555
H13 C4 1_555 1_555
C5 N1 1_555 1_555
H14 C5 1_555 1_555
C6 H15 1_555 1_555
C7 C6 1_555 1_555
C8 C7 1_555 1_555
H16 C8 1_555 1_555
C9 C8 1_555 1_555
H17 C9 1_555 1_555
C10 N2 1_555 1_555
H18 C10 1_555 1_555
C11 N3 1_555 1_555
C12 N5 1_555 1_555
Cu1C N2 1_555 1_555
N2C Cu1 1_555 1_555
N5 C11 1_555 1_555
C2 C11 1_555 1_555
C4 C5 1_555 1_555
C7 C12 1_555 1_555
C9 C10 1_555 1_555

#END
