
#######################################################################
#
#                 Cambridge Crystallographic Data Centre
#                                CCDC 
#
#######################################################################
#
# If this CIF has been generated from an entry in the Cambridge 
# Structural Database, then it will include bibliographic, chemical, 
# crystal, experimental, refinement or atomic coordinate data resulting 
# from the CCDC's data processing and validation procedures.
#
#######################################################################

data_FUYTAV
_symmetry_cell_setting           monoclinic
_symmetry_space_group_name_H-M   'C 2/c'
_symmetry_Int_Tables_number      15
_space_group_name_Hall           '-C 2yn'
loop_
_symmetry_equiv_pos_site_id
_symmetry_equiv_pos_as_xyz
1 x,y,z
2 -x,y,1/2-z
3 1/2+x,1/2+y,z
4 1/2-x,1/2+y,1/2-z
5 -x,-y,-z
6 x,-y,1/2+z
7 1/2-x,1/2-y,-z
8 1/2+x,1/2-y,1/2+z
_cell_length_a                   27.9184(12)
_cell_length_b                   10.8607(2)
_cell_length_c                   30.3935(13)
_cell_angle_alpha                90
_cell_angle_beta                 114.969(2)
_cell_angle_gamma                90
_cell_volume                     8354.38
loop_
_atom_site_label
_atom_site_type_symbol
_atom_site_fract_x
_atom_site_fract_y
_atom_site_fract_z
Cu1 Cu 0.158140(10) 0.82297(2) 0.246230(9)
Cu2 Cu 0.2500 0.2500 0.5000
Cu3 Cu 0.0000 1.5000 0.0000
S1 S 0.19820(2) 1.04937(5) 0.19172(2)
O1 O 0.23436(6) 0.85749(17) 0.28866(6)
O2 O 0.17600(9) 0.72376(18) 0.20027(7)
O3 O 0.17026(7) 0.63031(16) 0.29030(7)
O4 O 0.18465(7) 0.16663(15) 0.49254(6)
O5 O 0.21233(8) 0.32493(16) 0.41794(7)
O6 O -0.05796(7) 1.57874(15) 0.00949(6)
O7 O 0.04431(8) 1.42824(17) 0.08577(7)
O8 O 0.15652(6) 1.00470(15) 0.20511(6)
O9 O 0.19766(8) 0.98061(18) 0.14998(7)
O10 O 0.25016(6) 1.03502(17) 0.23317(7)
O11 O 0.18882(7) 1.18183(15) 0.17851(7)
N1 N 0.13854(7) 0.90956(16) 0.29513(7)
N2 N 0.22616(7) 0.40478(16) 0.52532(7)
N3 N 0.16927(7) 0.92140(16) 0.46332(6)
N4 N 0.18436(8) 0.83802(16) 0.50118(7)
N5 N 0.16601(7) 0.73567(15) 0.43381(6)
N6 N 0.15144(8) 0.64266(16) 0.39825(7)
H1 H 0.1366 0.6621 0.3676
H2 H 0.1573 0.5658 0.4069
N7 N 0.08079(7) 0.79607(17) 0.20213(7)
N8 N -0.04491(7) 1.34295(16) -0.02004(7)
N9 N -0.04887(7) 0.82255(16) 0.03735(7)
N10 N -0.06695(7) 0.90844(16) 0.00065(6)
N11 N -0.01718(7) 1.00294(15) 0.06847(6)
N12 N 0.00667(8) 1.09100(16) 0.10523(7)
H3 H 0.0209 1.0683 0.1355
H4 H 0.0071 1.1681 0.0977
C1 C 0.15406(8) 0.86088(19) 0.33963(8)
H5 H 0.1744 0.7885 0.3472
C2 C 0.14113(8) 0.91358(19) 0.37487(8)
C3 C 0.11296(11) 1.0237(2) 0.36404(9)
H6 H 0.1044 1.0629 0.3874
C4 C 0.09779(13) 1.0743(3) 0.31845(10)
H7 H 0.0789 1.1488 0.3104
C5 C 0.11082(11) 1.0140(2) 0.28446(9)
H8 H 0.0998 1.0478 0.2532
C6 C 0.21198(8) 0.50799(19) 0.49807(8)
H9 H 0.2129 0.5071 0.4675
C7 C 0.19618(8) 0.61493(19) 0.51284(8)
C8 C 0.19563(10) 0.6162(2) 0.55867(9)
H10 H 0.1853 0.6873 0.5701
C9 C 0.21053(11) 0.5110(2) 0.58671(9)
H11 H 0.2106 0.5095 0.6176
C10 C 0.22537(10) 0.4080(2) 0.56886(9)
H12 H 0.2354 0.3369 0.5883
C11 C 0.15813(8) 0.85843(18) 0.42324(8)
C12 C 0.18226(8) 0.72707(19) 0.48310(8)
C13 C 0.05784(8) 0.84955(19) 0.15833(8)
H13 H 0.0771 0.9075 0.1494
C14 C 0.00635(9) 0.82174(18) 0.12584(8)
C15 C -0.02130(9) 0.7335(2) 0.13878(9)
H14 H -0.0556 0.7106 0.1169
C16 C 0.00200(10) 0.6797(2) 0.18417(10)
H15 H -0.0163 0.6208 0.1939
C17 C 0.05277(9) 0.7146(2) 0.21487(9)
H16 H 0.0684 0.6798 0.2461
C18 C -0.03094(8) 1.23732(18) 0.00529(8)
H17 H 0.0008 1.2352 0.0336
C19 C -0.06149(8) 1.13130(18) -0.00871(7)
C20 C -0.10759(9) 1.1337(2) -0.05151(8)
H18 H -0.1288 1.0630 -0.0623
C21 C -0.12171(10) 1.2415(2) -0.07791(9)
H19 H -0.1523 1.2448 -0.1072
C22 C -0.09024(9) 1.3448(2) -0.06072(9)
H20 H -0.1009 1.4190 -0.0781
C23 C -0.01929(8) 0.88077(18) 0.07779(8)
C24 C -0.04794(8) 1.01668(18) 0.01987(8)
H21 H 0.2550(13) 0.805(3) 0.2945(12)
H22 H 0.2438(12) 0.916(3) 0.2753(12)
H23 H 0.1645(16) 0.648(4) 0.1958(15)
H24 H 0.2008(17) 0.718(4) 0.2040(16)
H25 H 0.1868(13) 0.588(3) 0.2786(14)
H26 H 0.1475(13) 0.580(4) 0.2923(14)
H27 H 0.1530(17) 0.195(4) 0.4734(16)
H28 H 0.1856(13) 0.097(3) 0.4827(12)
H29 H 0.1796(7) 0.339(3) 0.4029(12)
H30 H 0.2259(10) 0.389(2) 0.4125(12)
H31 H -0.0675(11) 1.546(3) 0.0267(11)
H32 H -0.0564(11) 1.651(3) 0.0155(11)
H33 H 0.0659(13) 1.356(3) 0.0887(12)
H34 H 0.0288(13) 1.413(3) 0.0958(12)
Cu1F Cu 0.341860(10) -0.32297(2) 0.753770(9)
Cu3B Cu 0.5000 -1.0000 1.0000
S1F S 0.30180(2) -0.54937(5) 0.80828(2)
O1F O 0.26564(6) -0.35749(17) 0.71134(6)
O2F O 0.32400(9) -0.22376(18) 0.79973(7)
O3F O 0.32974(7) -0.13031(16) 0.70970(7)
O4F O 0.31535(7) 0.33337(15) 0.50746(6)
O5F O 0.28767(8) 0.17507(16) 0.58206(7)
O6D O 0.05796(7) 1.42126(15) -0.00949(6)
O7D O -0.04431(8) 1.57176(17) -0.08577(7)
O8F O 0.34348(6) -0.50470(15) 0.79489(6)
O9F O 0.30234(8) -0.48061(18) 0.85002(7)
O10F O 0.24984(6) -0.53502(17) 0.76683(7)
O11F O 0.31118(7) -0.68183(15) 0.82149(7)
N1F N 0.36146(7) -0.40956(16) 0.70487(7)
N2F N 0.27384(7) 0.09522(16) 0.47468(7)
N3F N 0.33073(7) -0.42140(16) 0.53668(6)
N4F N 0.31564(8) -0.33802(16) 0.49882(7)
N5F N 0.33399(7) -0.23567(15) 0.56619(6)
N6F N 0.34856(8) -0.14266(16) 0.60175(7)
H1F H 0.3634 -0.1621 0.6324
H2F H 0.3427 -0.0658 0.5931
N7F N 0.41921(7) -0.29607(17) 0.79787(7)
N8F N 0.54491(7) -0.84295(16) 1.02004(7)
N8D N 0.04491(7) 1.65705(16) 0.02004(7)
N9F N 0.54887(7) -0.32255(16) 0.96265(7)
N10F N 0.56695(7) -0.40844(16) 0.99935(6)
N11F N 0.51718(7) -0.50294(15) 0.93153(6)
N12F N 0.49333(8) -0.59100(16) 0.89477(7)
H3F H 0.4791 -0.5683 0.8645
H4F H 0.4929 -0.6681 0.9023
C1F C 0.34594(8) -0.36088(19) 0.66037(8)
H5F H 0.3256 -0.2885 0.6528
C2F C 0.35887(8) -0.41358(19) 0.62513(8)
C3F C 0.38704(11) -0.5237(2) 0.63596(9)
H6F H 0.3956 -0.5629 0.6126
C4F C 0.40221(13) -0.5743(3) 0.68155(10)
H7F H 0.4211 -0.6488 0.6896
C5F C 0.38918(11) -0.5140(2) 0.71554(9)
H8F H 0.4002 -0.5478 0.7468
C6F C 0.28802(8) -0.00799(19) 0.50193(8)
H9F H 0.2871 -0.0071 0.5325
C7F C 0.30382(8) -0.11493(19) 0.48716(8)
C8F C 0.30437(10) -0.1162(2) 0.44133(9)
H10F H 0.3147 -0.1873 0.4299
C9F C 0.28947(11) -0.0110(2) 0.41329(9)
H11F H 0.2894 -0.0095 0.3824
C10F C 0.27463(10) 0.0920(2) 0.43114(9)
H12F H 0.2646 0.1631 0.4117
C11F C 0.34187(8) -0.35843(18) 0.57676(8)
C12F C 0.31774(8) -0.22707(19) 0.51690(8)
C13F C 0.44216(8) -0.34955(19) 0.84167(8)
H13F H 0.4229 -0.4075 0.8506
C14F C 0.49365(9) -0.32174(18) 0.87416(8)
C15F C 0.52130(9) -0.2335(2) 0.86122(9)
H14F H 0.5556 -0.2106 0.8831
C16F C 0.49800(10) -0.1797(2) 0.81583(10)
H15F H 0.5163 -0.1208 0.8061
C17F C 0.44723(9) -0.2146(2) 0.78513(9)
H16F H 0.4316 -0.1798 0.7539
C18F C 0.53094(8) -0.73732(18) 0.99471(8)
H17F H 0.4992 -0.7352 0.9664
C19F C 0.56149(8) -0.63130(18) 1.00871(7)
C20F C 0.60759(9) -0.6337(2) 1.05151(8)
H18F H 0.6288 -0.5630 1.0623
C21F C 0.62171(10) -0.7415(2) 1.07791(9)
H19F H 0.6523 -0.7448 1.1072
C22F C 0.59024(9) -0.8448(2) 1.06072(9)
H20F H 0.6009 -0.9190 1.0781
C23F C 0.51929(8) -0.38077(18) 0.92221(8)
C24F C 0.54794(8) -0.51668(18) 0.98013(8)
H21F H 0.2450(13) -0.305(3) 0.7055(12)
H22F H 0.2562(12) -0.416(3) 0.7247(12)
H23F H 0.3355(16) -0.148(4) 0.8042(15)
H24F H 0.2992(17) -0.218(4) 0.7960(16)
H25F H 0.3132(13) -0.088(3) 0.7214(14)
H26F H 0.3525(13) -0.080(4) 0.7077(14)
H27F H 0.3470(17) 0.305(4) 0.5266(16)
H28F H 0.3144(13) 0.403(3) 0.5173(12)
H29F H 0.3204(7) 0.161(3) 0.5971(12)
H30F H 0.2741(10) 0.111(2) 0.5875(12)
H31D H 0.0675(11) 1.454(3) -0.0267(11)
H32D H 0.0564(11) 1.349(3) -0.0155(11)
H33D H -0.0659(13) 1.644(3) -0.0887(12)
H34D H -0.0288(13) 1.587(3) -0.0958(12)
S2 S 0.07766(2) 0.36116(5) 0.401756(19)
O12 O 0.09309(7) 0.47235(16) 0.43235(7)
O13 O 0.09113(7) 0.25016(15) 0.43231(7)
O14 O 0.02017(6) 0.36163(17) 0.37194(6)
O15 O 0.10589(7) 0.35964(16) 0.37031(6)
O16 O 0.25509(8) 0.55244(19) 0.40785(7)
H35 H 0.2757(14) 0.584(3) 0.4352(14)
H36 H 0.2684(15) 0.530(4) 0.3896(15)
O17 O 0.08468(10) 0.49423(19) 0.28828(9)
H37 H 0.0932(16) 0.459(4) 0.3115(15)
H38 H 0.0764(16) 0.449(4) 0.2688(16)
O18 O 0.12936(15) 0.5074(3) 0.17586(11)
H39 H 0.1361(17) 0.447(4) 0.1936(17)
H40 H 0.0999(19) 0.501(4) 0.1534(19)
O19 O 0.13789(10) 0.2950(2) 0.23259(10)
H41 H 0.134(4) 0.239(5) 0.250(3)
H42 H 0.153(2) 0.263(5) 0.217(2)
O20 O 0.03288(10) 0.2925(3) 0.22414(9)
H43 H 0.0196(14) 0.316(3) 0.1960(15)
H44 H 0.023(3) 0.278(6) 0.235(3)
O21 O 0.09857(8) 1.20949(18) 0.09240(8)
H45 H 0.0973(14) 1.177(3) 0.0703(14)
H46 H 0.1276(12) 1.200(3) 0.1151(12)
O22 O 0.26834(16) 0.7741(3) 0.17978(12)
H47 H 0.2969(14) 0.788(5) 0.2051(14)
H48 H 0.2535(12) 0.834(3) 0.1693(12)
loop_
_geom_bond_atom_site_label_1
_geom_bond_atom_site_label_2
_geom_bond_site_symmetry_1
_geom_bond_site_symmetry_2
Cu1 O1 1_555 1_555
Cu2 O4 1_555 1_555
Cu3 O6 1_555 1_555
S1 O8 1_555 1_555
S2 O12 1_555 1_555
O1 H21 1_555 1_555
O2 Cu1 1_555 1_555
O3 Cu1 1_555 1_555
O4 H27 1_555 1_555
O5 Cu2 1_555 1_555
O6 H31 1_555 1_555
O7 Cu3 1_555 1_555
O8 Cu1 1_555 1_555
O9 S1 1_555 1_555
O10 S1 1_555 1_555
O11 S1 1_555 1_555
O13 S2 1_555 1_555
O14 S2 1_555 1_555
O15 S2 1_555 1_555
O16 H35 1_555 1_555
O17 H37 1_555 1_555
O18 H39 1_555 1_555
O19 H41 1_555 1_555
O20 H43 1_555 1_555
O21 H45 1_555 1_555
O22 H47 1_555 1_555
N1 Cu1 1_555 1_555
N2 Cu2 1_555 1_555
N3 N4 1_555 1_555
N4 C12 1_555 1_555
N5 N6 1_555 1_555
N6 H1 1_555 1_555
H2 N6 1_555 1_555
N7 Cu1 1_555 1_555
N8 Cu3 1_555 1_555
N9 N10 1_555 1_555
N10 C24 1_555 1_555
N11 N12 1_555 1_555
N12 H3 1_555 1_555
H4 N12 1_555 1_555
C1 N1 1_555 1_555
H5 C1 1_555 1_555
C2 C1 1_555 1_555
C3 C2 1_555 1_555
H6 C3 1_555 1_555
C4 C3 1_555 1_555
H7 C4 1_555 1_555
C5 N1 1_555 1_555
H8 C5 1_555 1_555
C6 N2 1_555 1_555
H9 C6 1_555 1_555
C7 C6 1_555 1_555
C8 C7 1_555 1_555
H10 C8 1_555 1_555
C9 C8 1_555 1_555
H11 C9 1_555 1_555
C10 N2 1_555 1_555
H12 C10 1_555 1_555
C11 N3 1_555 1_555
C12 N5 1_555 1_555
C13 N7 1_555 1_555
H13 C13 1_555 1_555
C14 C13 1_555 1_555
C15 C14 1_555 1_555
H14 C15 1_555 1_555
C16 C15 1_555 1_555
H15 C16 1_555 1_555
C17 N7 1_555 1_555
H16 C17 1_555 1_555
C18 N8 1_555 1_555
H17 C18 1_555 1_555
C19 C18 1_555 1_555
C20 C19 1_555 1_555
H18 C20 1_555 1_555
C21 C20 1_555 1_555
H19 C21 1_555 1_555
C22 N8 1_555 1_555
H20 C22 1_555 1_555
C23 N9 1_555 1_555
C24 N11 1_555 1_555
H22 O1 1_555 1_555
H23 O2 1_555 1_555
H24 O2 1_555 1_555
H25 O3 1_555 1_555
H26 O3 1_555 1_555
H28 O4 1_555 1_555
H29 O5 1_555 1_555
H30 O5 1_555 1_555
H32 O6 1_555 1_555
H33 O7 1_555 1_555
H34 O7 1_555 1_555
H36 O16 1_555 1_555
H38 O17 1_555 1_555
H40 O18 1_555 1_555
H42 O19 1_555 1_555
H44 O20 1_555 1_555
H46 O21 1_555 1_555
H48 O22 1_555 1_555
Cu1F O1F 1_555 1_555
Cu3B N8F 1_555 1_555
S1F O8F 1_555 1_555
O1F H21F 1_555 1_555
O2F Cu1F 1_555 1_555
O3F Cu1F 1_555 1_555
O4F Cu2 1_555 1_555
O5F Cu2 1_555 1_555
O6D Cu3 1_555 1_555
O7D Cu3 1_555 1_555
O8F Cu1F 1_555 1_555
O9F S1F 1_555 1_555
O10F S1F 1_555 1_555
O11F S1F 1_555 1_555
N1F Cu1F 1_555 1_555
N2F Cu2 1_555 1_555
N3F N4F 1_555 1_555
N4F C12F 1_555 1_555
N5F N6F 1_555 1_555
N6F H1F 1_555 1_555
H2F N6F 1_555 1_555
N7F Cu1F 1_555 1_555
N8F C18F 1_555 1_555
N8D Cu3 1_555 1_555
N9F N10F 1_555 1_555
N10F C24F 1_555 1_555
N11F N12F 1_555 1_555
N12F H3F 1_555 1_555
H4F N12F 1_555 1_555
C1F N1F 1_555 1_555
H5F C1F 1_555 1_555
C2F C1F 1_555 1_555
C3F C2F 1_555 1_555
H6F C3F 1_555 1_555
C4F C3F 1_555 1_555
H7F C4F 1_555 1_555
C5F N1F 1_555 1_555
H8F C5F 1_555 1_555
C6F N2F 1_555 1_555
H9F C6F 1_555 1_555
C7F C6F 1_555 1_555
C8F C7F 1_555 1_555
H10F C8F 1_555 1_555
C9F C8F 1_555 1_555
H11F C9F 1_555 1_555
C10F N2F 1_555 1_555
H12F C10F 1_555 1_555
C11F N3F 1_555 1_555
C12F N5F 1_555 1_555
C13F N7F 1_555 1_555
H13F C13F 1_555 1_555
C14F C13F 1_555 1_555
C15F C14F 1_555 1_555
H14F C15F 1_555 1_555
C16F C15F 1_555 1_555
H15F C16F 1_555 1_555
C17F N7F 1_555 1_555
H16F C17F 1_555 1_555
C18F H17F 1_555 1_555
C19F C18F 1_555 1_555
C20F C19F 1_555 1_555
H18F C20F 1_555 1_555
C21F C20F 1_555 1_555
H19F C21F 1_555 1_555
C22F N8F 1_555 1_555
H20F C22F 1_555 1_555
C23F N9F 1_555 1_555
C24F N11F 1_555 1_555
H22F O1F 1_555 1_555
H23F O2F 1_555 1_555
H24F O2F 1_555 1_555
H25F O3F 1_555 1_555
H26F O3F 1_555 1_555
H27F O4F 1_555 1_555
H28F O4F 1_555 1_555
H29F O5F 1_555 1_555
H30F O5F 1_555 1_555
H31D O6D 1_555 1_555
H32D O6D 1_555 1_555
H33D O7D 1_555 1_555
H34D O7D 1_555 1_555
N5 C11 1_555 1_555
N11 C23 1_555 1_555
C2 C11 1_555 1_555
C4 C5 1_555 1_555
C7 C12 1_555 1_555
C9 C10 1_555 1_555
C14 C23 1_555 1_555
C16 C17 1_555 1_555
C19 C24 1_555 1_555
C21 C22 1_555 1_555
N5F C11F 1_555 1_555
N11F C23F 1_555 1_555
C2F C11F 1_555 1_555
C4F C5F 1_555 1_555
C7F C12F 1_555 1_555
C9F C10F 1_555 1_555
C14F C23F 1_555 1_555
C16F C17F 1_555 1_555
C19F C24F 1_555 1_555
C21F C22F 1_555 1_555

#END
