
#######################################################################
#
#                 Cambridge Crystallographic Data Centre
#                                CCDC 
#
#######################################################################
#
# If this CIF has been generated from an entry in the Cambridge 
# Structural Database, then it will include bibliographic, chemical, 
# crystal, experimental, refinement or atomic coordinate data resulting 
# from the CCDC's data processing and validation procedures.
#
#######################################################################

data_FUYTID
_symmetry_cell_setting           monoclinic
_symmetry_space_group_name_H-M   'P 21/c'
_symmetry_Int_Tables_number      14
_space_group_name_Hall           '-P 2ybc'
loop_
_symmetry_equiv_pos_site_id
_symmetry_equiv_pos_as_xyz
1 x,y,z
2 -x,1/2+y,1/2-z
3 -x,-y,-z
4 x,1/2-y,1/2+z
_cell_length_a                   10.947(3)
_cell_length_b                   17.610(4)
_cell_length_c                   7.439(2)
_cell_angle_alpha                90
_cell_angle_beta                 90.426(8)
_cell_angle_gamma                90
_cell_volume                     1434.03
loop_
_atom_site_label
_atom_site_type_symbol
_atom_site_fract_x
_atom_site_fract_y
_atom_site_fract_z
Cu1 Cu 0.27111(4) 0.36311(3) 0.01912(6)
S1 S 0.18505(8) 0.32157(5) 0.41052(12)
O1 O 0.3707(3) 0.39463(17) -0.1895(4)
O2 O 0.1628(2) 0.34548(15) 0.2192(3)
O3 O 0.2613(3) 0.25291(16) 0.4126(4)
O4 O 0.0639(2) 0.30777(16) 0.4872(4)
O5 O 0.2481(3) 0.38390(17) 0.5037(3)
N1 N 0.4265(3) 0.35903(17) 0.1627(4)
N2 N 1.1311(3) 0.08538(17) 0.3939(4)
N3 N 0.6116(3) 0.15294(19) 0.2914(4)
N4 N 0.6990(3) 0.09649(18) 0.2998(4)
N5 N 0.7917(3) 0.20656(17) 0.2655(4)
N6 N 0.8794(3) 0.26195(18) 0.2175(4)
H1 H 0.9535 0.2486 0.1961
H2 H 0.8586 0.3089 0.2096
C1 C 0.4918(3) 0.2951(2) 0.1735(5)
H3 H 0.4601 0.2511 0.1219
C2 C 0.6061(3) 0.2916(2) 0.2595(5)
C3 C 0.6509(4) 0.3576(2) 0.3381(5)
H4 H 0.7266 0.3575 0.3956
C4 C 0.5826(3) 0.4231(2) 0.3305(6)
H5 H 0.6107 0.4674 0.3852
C5 C 0.4709(4) 0.4223(2) 0.2397(5)
H6 H 0.4257 0.4669 0.2322
C6 C 1.0248(3) 0.1221(2) 0.3754(5)
H7 H 1.0185 0.1713 0.4201
C7 C 0.9236(3) 0.0898(2) 0.2923(5)
C8 C 0.9335(3) 0.0168(2) 0.2255(5)
H8 H 0.8674 -0.0062 0.1685
C9 C 1.0424(3) -0.0212(2) 0.2444(5)
H9 H 1.0507 -0.0704 0.2007
C10 C 1.1390(3) 0.0143(2) 0.3289(5)
H10 H 1.2124 -0.0118 0.3414
C11 C 0.6675(3) 0.2189(2) 0.2699(5)
C12 C 0.8067(3) 0.1298(2) 0.2849(5)
H11 H 0.347(3) 0.387(2) -0.274(5)
H12 H 0.446(5) 0.375(3) -0.201(7)
Cu1C Cu 0.27111(4) 0.13689(3) 0.51912(6)
Cu1C_2 Cu 1.27111(4) 0.13689(3) 0.51912(6)
O3C O 0.2613(3) 0.24709(16) -0.0874(4)
N2C N 0.1311(3) 0.41462(17) -0.1061(4)
loop_
_geom_bond_atom_site_label_1
_geom_bond_atom_site_label_2
_geom_bond_site_symmetry_1
_geom_bond_site_symmetry_2
Cu1 O1 1_555 1_555
S1 O2 1_555 1_555
O1 H11 1_555 1_555
O2 Cu1 1_555 1_555
O3 S1 1_555 1_555
O4 S1 1_555 1_555
O5 S1 1_555 1_555
N1 Cu1 1_555 1_555
N2 C6 1_555 1_555
N3 N4 1_555 1_555
N4 C12 1_555 1_555
N5 N6 1_555 1_555
N6 H1 1_555 1_555
H2 N6 1_555 1_555
C1 N1 1_555 1_555
H3 C1 1_555 1_555
C2 C1 1_555 1_555
C3 C2 1_555 1_555
H4 C3 1_555 1_555
C4 C3 1_555 1_555
H5 C4 1_555 1_555
C5 N1 1_555 1_555
H6 C5 1_555 1_555
C6 H7 1_555 1_555
C7 C6 1_555 1_555
C8 C7 1_555 1_555
H8 C8 1_555 1_555
C9 C8 1_555 1_555
H9 C9 1_555 1_555
C10 N2 1_555 1_555
H10 C10 1_555 1_555
C11 N3 1_555 1_555
C12 N5 1_555 1_555
H12 O1 1_555 1_555
Cu1C O3 1_555 1_555
Cu1C_2 N2 1_555 1_555
O3C Cu1 1_555 1_555
N2C Cu1 1_555 1_555
N5 C11 1_555 1_555
C2 C11 1_555 1_555
C4 C5 1_555 1_555
C7 C12 1_555 1_555
C9 C10 1_555 1_555

#END
