
#######################################################################
#
#                 Cambridge Crystallographic Data Centre
#                                CCDC 
#
#######################################################################
#
# If this CIF has been generated from an entry in the Cambridge 
# Structural Database, then it will include bibliographic, chemical, 
# crystal, experimental, refinement or atomic coordinate data resulting 
# from the CCDC's data processing and validation procedures.
#
#######################################################################

data_FUYTID01
_symmetry_cell_setting           monoclinic
_symmetry_space_group_name_H-M   'P 21/c'
_symmetry_Int_Tables_number      14
_space_group_name_Hall           '-P 2ybc'
loop_
_symmetry_equiv_pos_site_id
_symmetry_equiv_pos_as_xyz
1 x,y,z
2 -x,1/2+y,1/2-z
3 -x,-y,-z
4 x,1/2-y,1/2+z
_cell_length_a                   10.9136(18)
_cell_length_b                   17.598(3)
_cell_length_c                   7.4391(12)
_cell_angle_alpha                90
_cell_angle_beta                 90.448(2)
_cell_angle_gamma                90
_cell_volume                     1428.69
loop_
_atom_site_label
_atom_site_type_symbol
_atom_site_fract_x
_atom_site_fract_y
_atom_site_fract_z
Cu1 Cu -0.27078(4) 0.13693(3) -0.01896(6)
S1 S -0.18481(8) 0.17844(5) -0.41023(13)
C1 C -0.1387(3) 0.0144(2) 0.1711(5)
H1 H -0.2123 -0.0117 0.1581
C2 C -0.0428(3) -0.0209(2) 0.2554(5)
H2 H -0.0517 -0.0700 0.2996
C3 C 0.0672(3) 0.0167(2) 0.2747(5)
H3 H 0.1338 -0.0064 0.3311
C4 C 0.0761(3) 0.0899(2) 0.2077(5)
C5 C -0.0245(3) 0.1221(2) 0.1251(5)
H4 H -0.0180 0.1713 0.0809
C6 C 0.1937(3) 0.1298(2) 0.2153(5)
C7 C 0.3323(3) 0.2183(2) 0.2298(5)
C8 C 0.3943(3) 0.2916(2) 0.2420(5)
C9 C 0.3498(3) 0.3575(2) 0.1615(5)
H5 H 0.2747 0.3571 0.1016
C10 C 0.4180(3) 0.4235(2) 0.1711(6)
H6 H 0.3895 0.4681 0.1184
C11 C 0.5291(3) 0.4220(2) 0.2603(5)
H7 H 0.5750 0.4664 0.2669
C12 C 0.5080(3) 0.2949(2) 0.3273(5)
H8 H 0.5397 0.2509 0.3788
N1 N -0.1306(2) 0.08561(17) 0.1059(4)
N2 N 0.3006(3) 0.09641(18) 0.1999(5)
N3 N 0.3888(3) 0.15321(18) 0.2096(4)
N4 N 0.2088(3) 0.20660(17) 0.2348(4)
N5 N 0.1203(3) 0.26168(18) 0.2828(5)
H9 H 0.1431 0.3068 0.3120
H10 H 0.0438 0.2500 0.2827
N6 N 0.5735(3) 0.35893(17) 0.3380(4)
O1 O -0.1624(2) 0.15462(15) -0.2194(3)
O2 O -0.0634(2) 0.19239(15) -0.4866(4)
O3 O -0.2477(3) 0.11614(16) -0.5031(4)
O4 O -0.2604(2) 0.24705(15) -0.4124(4)
O5 O -0.3701(2) 0.10530(14) 0.1908(3)
H11 H -0.3349 0.1178 0.2840
H12 H -0.4431 0.1234 0.1915
Cu1C Cu 0.72922(4) 0.36307(3) 0.48104(6)
Cu1C_2 Cu -0.27078(4) 0.36307(3) -0.51896(6)
N6C N -0.4265(3) 0.14107(17) -0.1620(4)
O4C O -0.2604(2) 0.25295(15) 0.0876(4)
loop_
_geom_bond_atom_site_label_1
_geom_bond_atom_site_label_2
_geom_bond_site_symmetry_1
_geom_bond_site_symmetry_2
Cu1 N1 1_555 1_555
S1 O1 1_555 1_555
C1 H1 1_555 1_555
C2 C1 1_555 1_555
H2 C2 1_555 1_555
C3 C2 1_555 1_555
H3 C3 1_555 1_555
C4 C3 1_555 1_555
C5 C4 1_555 1_555
H4 C5 1_555 1_555
C6 C4 1_555 1_555
C7 C8 1_555 1_555
C8 C9 1_555 1_555
C9 H5 1_555 1_555
C10 C9 1_555 1_555
H6 C10 1_555 1_555
C11 C10 1_555 1_555
H7 C11 1_555 1_555
C12 C8 1_555 1_555
H8 C12 1_555 1_555
N1 C1 1_555 1_555
N2 C6 1_555 1_555
N3 C7 1_555 1_555
N4 C6 1_555 1_555
N5 N4 1_555 1_555
H9 N5 1_555 1_555
H10 N5 1_555 1_555
N6 C11 1_555 1_555
O1 Cu1 1_555 1_555
O2 S1 1_555 1_555
O3 S1 1_555 1_555
O4 S1 1_555 1_555
O5 Cu1 1_555 1_555
H11 O5 1_555 1_555
H12 O5 1_555 1_555
Cu1C N6 1_555 1_555
Cu1C_2 O4 1_555 1_555
N6C Cu1 1_555 1_555
O4C Cu1 1_555 1_555
C5 N1 1_555 1_555
C7 N4 1_555 1_555
C12 N6 1_555 1_555
N2 N3 1_555 1_555

#END
