
#######################################################################
#
#                 Cambridge Crystallographic Data Centre
#                                CCDC 
#
#######################################################################
#
# If this CIF has been generated from an entry in the Cambridge 
# Structural Database, then it will include bibliographic, chemical, 
# crystal, experimental, refinement or atomic coordinate data resulting 
# from the CCDC's data processing and validation procedures.
#
#######################################################################

data_FUYWEC
_symmetry_cell_setting           triclinic
_symmetry_space_group_name_H-M   'P -1'
_symmetry_Int_Tables_number      2
_space_group_name_Hall           '-P 1'
loop_
_symmetry_equiv_pos_site_id
_symmetry_equiv_pos_as_xyz
1 x,y,z
2 -x,-y,-z
_cell_length_a                   14.8147(17)
_cell_length_b                   17.055(2)
_cell_length_c                   21.370(3)
_cell_angle_alpha                71.843(2)
_cell_angle_beta                 87.901(2)
_cell_angle_gamma                70.774(2)
_cell_volume                     4831.32
loop_
_atom_site_label
_atom_site_type_symbol
_atom_site_fract_x
_atom_site_fract_y
_atom_site_fract_z
Cd1 Cd 0.20216(3) 0.24886(2) 0.01570(2)
Cd2 Cd -0.72480(3) 0.23918(3) 0.511710(19)
O1 O 0.2209(3) 0.3145(3) -0.0945(2)
O2 O 0.1351(4) 0.2310(3) -0.0913(2)
O3 O 0.3252(3) 0.3047(3) 0.0363(2)
O4 O 0.2519(4) 0.2539(3) 0.1215(2)
O5 O -0.6224(4) 0.1989(3) 0.6074(2)
O6 O -0.7283(4) 0.1329(3) 0.6229(2)
O7 O -0.8412(4) 0.3038(4) 0.4058(3)
O8 O -0.8402(4) 0.1882(4) 0.4835(3)
N1 N -0.1562(3) -0.3370(3) 0.4471(2)
N2 N -0.0100(3) -0.4166(3) 0.4327(2)
N3 N 0.3482(4) -0.0264(3) 0.0288(2)
N4 N 0.3149(3) 0.1114(3) 0.0266(2)
N5 N 0.1047(3) 0.1641(3) 0.0698(2)
N6 N -0.0213(3) 0.1173(3) 0.0841(2)
N7 N -0.6229(4) 0.4348(3) 0.3621(2)
N8 N -0.6584(3) 0.3481(3) 0.4545(2)
N9 N 0.0605(4) 0.3635(3) 0.0188(3)
N10 N -0.0381(4) 0.4338(3) 0.0806(3)
N11 N -0.4455(3) 0.0791(3) 0.4600(2)
N12 N -0.5990(4) 0.1474(3) 0.4709(2)
C1 C -0.1643(4) -0.3946(3) 0.4159(2)
C2 C -0.2445(4) -0.4094(4) 0.3951(3)
H4 H -0.3064 -0.3762 0.4004
C3 C -0.2290(5) -0.4728(5) 0.3674(3)
H5 H -0.2814 -0.4830 0.3531
C4 C -0.1372(6) -0.5239(4) 0.3593(4)
H6 H -0.1304 -0.5674 0.3402
C5 C -0.0575(5) -0.5127(4) 0.3782(3)
H7 H 0.0036 -0.5474 0.3728
C6 C -0.0720(4) -0.4457(3) 0.4065(3)
C7 C -0.0633(4) -0.3528(4) 0.4552(3)
H8 H -0.0376 -0.3224 0.4747
C8 C 0.0954(4) -0.4464(4) 0.4312(3)
H9 H 0.1180 -0.5074 0.4333
H10 H 0.1232 -0.4424 0.4701
C9 C 0.1295(5) -0.3946(5) 0.3713(4)
C10 C 0.1030(5) -0.3914(5) 0.3094(3)
H11 H 0.0638 -0.4227 0.3053
C11 C 0.1333(5) -0.3426(4) 0.2526(4)
H12 H 0.1126 -0.3404 0.2113
C12 C 0.1946(5) -0.2967(5) 0.2570(3)
C13 C 0.2279(5) -0.3100(5) 0.3202(3)
H13 H 0.2723 -0.2846 0.3261
C14 C 0.1966(5) -0.3606(4) 0.3753(4)
H14 H 0.2242 -0.3710 0.4168
C15 C 0.2279(5) -0.2452(5) 0.1975(3)
C16 C 0.2704(5) -0.2838(5) 0.1515(3)
H15 H 0.2758 -0.3413 0.1565
C17 C 0.3057(5) -0.2351(5) 0.0971(3)
H16 H 0.3393 -0.2637 0.0684
C18 C 0.2947(5) -0.1522(5) 0.0837(3)
C19 C 0.2516(5) -0.1179(5) 0.1287(3)
H17 H 0.2459 -0.0603 0.1238
C20 C 0.2151(5) -0.1621(5) 0.1819(3)
H18 H 0.1791 -0.1313 0.2086
C21 C 0.3310(5) -0.1028(4) 0.0221(3)
H19 H 0.3901 -0.1418 0.0124
H20 H 0.2843 -0.0841 -0.0148
C22 C 0.4256(4) -0.0256(3) 0.0621(2)
C23 C 0.5101(5) -0.0914(4) 0.0915(3)
H21 H 0.5227 -0.1490 0.0926
C24 C 0.5736(4) -0.0670(4) 0.1187(3)
H22 H 0.6319 -0.1089 0.1384
C25 C 0.5545(4) 0.0164(5) 0.1180(3)
H23 H 0.6000 0.0293 0.1381
C26 C 0.4712(4) 0.0834(4) 0.0890(3)
H24 H 0.4603 0.1405 0.0885
C27 C 0.4039(4) 0.0609(3) 0.0603(3)
C28 C 0.2861(4) 0.0559(4) 0.0088(3)
H25 H 0.2283 0.0720 -0.0153
C29 C 0.1043(4) 0.1183(4) 0.1358(3)
C30 C 0.1666(5) 0.0999(5) 0.1886(4)
H26 H 0.2183 0.1202 0.1834
C31 C 0.1497(6) 0.0496(6) 0.2502(4)
H27 H 0.1916 0.0350 0.2866
C32 C 0.0693(6) 0.0207(5) 0.2581(4)
H28 H 0.0599 -0.0127 0.2998
C33 C 0.0049(5) 0.0402(4) 0.2061(3)
H29 H -0.0487 0.0225 0.2113
C34 C 0.0256(4) 0.0885(3) 0.1449(3)
C35 C 0.0274(4) 0.1634(4) 0.0414(3)
H30 H 0.0083 0.1915 -0.0032
C36 C -0.1152(4) 0.1126(4) 0.0694(3)
H31 H -0.1129 0.0521 0.0856
H32 H -0.1295 0.1335 0.0219
C37 C -0.1942(4) 0.1671(4) 0.1008(3)
C38 C -0.2535(4) 0.1312(4) 0.1424(3)
H33 H -0.2464 0.0726 0.1507
C39 C -0.3224(4) 0.1804(4) 0.1716(3)
H34 H -0.3613 0.1541 0.1994
C40 C -0.3371(4) 0.2681(3) 0.1615(3)
C41 C -0.2778(4) 0.3042(4) 0.1182(3)
H35 H -0.2858 0.3632 0.1093
C42 C -0.2091(4) 0.2563(4) 0.0890(3)
H36 H -0.1710 0.2827 0.0605
C43 C -0.4111(4) 0.3210(3) 0.1949(2)
C44 C -0.4429(4) 0.2818(3) 0.2539(3)
H37 H -0.4183 0.2213 0.2730
C45 C -0.5111(4) 0.3314(4) 0.2851(3)
H38 H -0.5313 0.3033 0.3249
C46 C -0.5497(4) 0.4212(3) 0.2587(3)
C47 C -0.5160(4) 0.4603(4) 0.1990(3)
H39 H -0.5392 0.5209 0.1805
C48 C -0.4509(4) 0.4125(4) 0.1676(3)
H40 H -0.4321 0.4405 0.1272
C49 C -0.6213(5) 0.4780(4) 0.2921(3)
H41 H -0.6061 0.5308 0.2862
H42 H -0.6847 0.4951 0.2709
C50 C -0.6814(4) 0.3920(4) 0.3912(3)
H43 H -0.7345 0.3930 0.3687
C51 C -0.5751(4) 0.3649(4) 0.4681(3)
C52 C -0.5173(5) 0.3360(4) 0.5253(3)
H44 H -0.5313 0.3001 0.5642
C53 C -0.4387(6) 0.3616(5) 0.5232(4)
H45 H -0.3972 0.3401 0.5609
C54 C -0.4187(6) 0.4199(5) 0.4654(4)
H46 H -0.3679 0.4401 0.4667
C55 C -0.4743(5) 0.4470(4) 0.4070(4)
H47 H -0.4595 0.4820 0.3679
C56 C -0.5532(4) 0.4194(3) 0.4093(3)
C57 C 0.0517(5) 0.3891(4) 0.0716(4)
H48 H 0.1038 0.3772 0.1003
C58 C -0.0315(5) 0.3933(4) -0.0098(3)
C59 C -0.0637(5) 0.3870(5) -0.0659(4)
H49 H -0.0226 0.3579 -0.0916
C60 C -0.1622(6) 0.4266(6) -0.0830(4)
H50 H -0.1876 0.4242 -0.1212
C61 C -0.2235(5) 0.4699(5) -0.0436(5)
H51 H -0.2887 0.4953 -0.0565
C62 C -0.1913(6) 0.4761(4) 0.0123(5)
H52 H -0.2324 0.5048 0.0382
C63 C -0.0931(5) 0.4372(3) 0.0292(4)
C64 C -0.0731(5) 0.4636(4) 0.1365(4)
H53 H -0.1229 0.5204 0.1207
H54 H -0.0210 0.4704 0.1582
C65 C -0.1126(4) 0.4003(4) 0.1857(3)
C66 C -0.0613(4) 0.3110(4) 0.2081(3)
H55 H -0.0030 0.2900 0.1909
C67 C -0.0944(4) 0.2529(4) 0.2548(3)
H56 H -0.0591 0.1934 0.2685
C68 C -0.1825(4) 0.2838(4) 0.2821(3)
C69 C -0.2346(4) 0.3722(3) 0.2593(3)
H57 H -0.2937 0.3936 0.2755
C70 C -0.1990(4) 0.4291(4) 0.2122(3)
H58 H -0.2344 0.4885 0.1980
C71 C -0.2175(4) 0.2211(4) 0.3331(3)
C72 C -0.1985(4) 0.1348(4) 0.3334(3)
H59 H -0.1595 0.1148 0.3026
C73 C -0.2372(5) 0.0785(4) 0.3794(3)
H60 H -0.2233 0.0214 0.3789
C74 C -0.2952(4) 0.1059(4) 0.4249(3)
C75 C -0.3156(5) 0.1918(4) 0.4255(3)
H61 H -0.3552 0.2112 0.4563
C76 C -0.2770(5) 0.2479(4) 0.3805(3)
H62 H -0.2907 0.3047 0.3817
C77 C -0.3417(4) 0.0456(4) 0.4719(3)
H63 H -0.3171 -0.0120 0.4666
H64 H -0.3249 0.0395 0.5171
C78 C -0.5110(5) 0.1163(4) 0.4968(3)
H65 H -0.4948 0.1194 0.5374
C79 C -0.5916(4) 0.1289(4) 0.4112(3)
C80 C -0.6607(5) 0.1472(4) 0.3624(3)
H66 H -0.7249 0.1752 0.3669
C81 C -0.6328(6) 0.1228(5) 0.3056(4)
H67 H -0.6783 0.1352 0.2719
C82 C -0.5349(6) 0.0793(5) 0.3005(4)
H68 H -0.5168 0.0625 0.2632
C83 C -0.4658(5) 0.0609(4) 0.3490(3)
H69 H -0.4016 0.0319 0.3452
C84 C -0.4947(4) 0.0871(3) 0.4040(3)
C85 C 0.1752(5) 0.2832(4) -0.1228(3)
C86 C 0.1691(8) 0.3118(6) -0.1980(4)
H70 H 0.1700 0.2637 -0.2125
H71 H 0.2227 0.3301 -0.2137
H72 H 0.1106 0.3597 -0.2151
C87 C 0.3161(5) 0.2855(4) 0.0968(3)
C88 C 0.3825(6) 0.2967(6) 0.1413(4)
H73 H 0.4450 0.2541 0.1441
H74 H 0.3589 0.2885 0.1844
H75 H 0.3864 0.3545 0.1240
C89 C -0.6667(6) 0.1549(4) 0.6447(3)
C90 C -0.6454(8) 0.1250(6) 0.7180(4)
H76 H -0.5785 0.0921 0.7287
H77 H -0.6826 0.0888 0.7392
H78 H -0.6617 0.1750 0.7332
C91 C -0.8708(6) 0.2430(7) 0.4289(5)
C92 C -0.9490(7) 0.2367(8) 0.3878(6)
H79 H -0.9935 0.2162 0.4165
H80 H -0.9203 0.1965 0.3639
H81 H -0.9822 0.2934 0.3572
Cd2A Cd -0.27520(3) -0.23918(3) 0.488290(19)
N1A N -0.8438(3) 0.3370(3) 0.5529(2)
O9 O -0.4558(6) 0.6045(5) 0.2635(4)
H1 H -0.3982 0.5908 0.2583
C93 C -0.4861(10) 0.6821(9) 0.2776(6)
H82 H -0.5189 0.6749 0.3175
H83 H -0.5289 0.7270 0.2419
H84 H -0.4317 0.6986 0.2833
O10 O -0.5463(11) 0.3667(15) 0.9704(5)
H2 H -0.5242 0.3338 0.9484
C94 C -0.4755(7) 0.3820(7) 0.9954(5)
H85 H -0.4511 0.4194 0.9608
H86 H -0.4250 0.3276 1.0154
H87 H -0.4991 0.4101 1.0281
O11 O -0.8695(7) 0.4098(6) 0.2765(5)
H3 H -0.8696 0.4604 0.2642
C95 C -0.8164(10) 0.3682(8) 0.2418(5)
H88 H -0.8040 0.4088 0.2027
H89 H -0.8478 0.3335 0.2295
H90 H -0.7569 0.3305 0.2668
O12 O -0.8880(9) 0.1150(9) 0.7001(6)
O13 O -0.6117(5) 0.3495(5) 0.8613(3)
loop_
_geom_bond_atom_site_label_1
_geom_bond_atom_site_label_2
_geom_bond_site_symmetry_1
_geom_bond_site_symmetry_2
Cd1 O1 1_555 1_555
Cd2 O5 1_555 1_555
O1 C85 1_555 1_555
O2 Cd1 1_555 1_555
O3 Cd1 1_555 1_555
O4 Cd1 1_555 1_555
O5 C89 1_555 1_555
O6 Cd2 1_555 1_555
O7 Cd2 1_555 1_555
O8 Cd2 1_555 1_555
O9 H1 1_555 1_555
O10 H2 1_555 1_555
O11 H3 1_555 1_555
N1 C1 1_555 1_555
N2 C6 1_555 1_555
N3 C21 1_555 1_555
N4 Cd1 1_555 1_555
N5 Cd1 1_555 1_555
N6 C34 1_555 1_555
N7 C49 1_555 1_555
N8 Cd2 1_555 1_555
N9 Cd1 1_555 1_555
N10 C57 1_555 1_555
N11 C77 1_555 1_555
N12 Cd2 1_555 1_555
C1 C2 1_555 1_555
C2 H4 1_555 1_555
C3 C2 1_555 1_555
H5 C3 1_555 1_555
C4 C3 1_555 1_555
H6 C4 1_555 1_555
C5 C4 1_555 1_555
H7 C5 1_555 1_555
C6 C1 1_555 1_555
C7 N1 1_555 1_555
H8 C7 1_555 1_555
C8 N2 1_555 1_555
H9 C8 1_555 1_555
H10 C8 1_555 1_555
C9 C8 1_555 1_555
C10 C9 1_555 1_555
H11 C10 1_555 1_555
C11 C10 1_555 1_555
H12 C11 1_555 1_555
C12 C11 1_555 1_555
C13 C12 1_555 1_555
H13 C13 1_555 1_555
C14 C9 1_555 1_555
H14 C14 1_555 1_555
C15 C12 1_555 1_555
C16 C15 1_555 1_555
H15 C16 1_555 1_555
C17 C16 1_555 1_555
H16 C17 1_555 1_555
C18 C17 1_555 1_555
C19 C18 1_555 1_555
H17 C19 1_555 1_555
C20 C15 1_555 1_555
H18 C20 1_555 1_555
C21 C18 1_555 1_555
H19 C21 1_555 1_555
H20 C21 1_555 1_555
C22 N3 1_555 1_555
C23 C22 1_555 1_555
H21 C23 1_555 1_555
C24 C23 1_555 1_555
H22 C24 1_555 1_555
C25 C24 1_555 1_555
H23 C25 1_555 1_555
C26 C25 1_555 1_555
H24 C26 1_555 1_555
C27 N4 1_555 1_555
C28 N3 1_555 1_555
H25 C28 1_555 1_555
C29 N5 1_555 1_555
C30 C29 1_555 1_555
H26 C30 1_555 1_555
C31 C30 1_555 1_555
H27 C31 1_555 1_555
C32 C31 1_555 1_555
H28 C32 1_555 1_555
C33 C32 1_555 1_555
H29 C33 1_555 1_555
C34 C29 1_555 1_555
C35 N5 1_555 1_555
H30 C35 1_555 1_555
C36 N6 1_555 1_555
H31 C36 1_555 1_555
H32 C36 1_555 1_555
C37 C36 1_555 1_555
C38 C37 1_555 1_555
H33 C38 1_555 1_555
C39 C38 1_555 1_555
H34 C39 1_555 1_555
C40 C39 1_555 1_555
C41 C40 1_555 1_555
H35 C41 1_555 1_555
C42 C37 1_555 1_555
H36 C42 1_555 1_555
C43 C40 1_555 1_555
C44 C43 1_555 1_555
H37 C44 1_555 1_555
C45 C44 1_555 1_555
H38 C45 1_555 1_555
C46 C45 1_555 1_555
C47 C46 1_555 1_555
H39 C47 1_555 1_555
C48 C43 1_555 1_555
H40 C48 1_555 1_555
C49 C46 1_555 1_555
H41 C49 1_555 1_555
H42 C49 1_555 1_555
C50 N7 1_555 1_555
H43 C50 1_555 1_555
C51 N8 1_555 1_555
C52 C51 1_555 1_555
H44 C52 1_555 1_555
C53 C52 1_555 1_555
H45 C53 1_555 1_555
C54 C53 1_555 1_555
H46 C54 1_555 1_555
C55 C54 1_555 1_555
H47 C55 1_555 1_555
C56 N7 1_555 1_555
C57 N9 1_555 1_555
H48 C57 1_555 1_555
C58 N9 1_555 1_555
C59 C58 1_555 1_555
H49 C59 1_555 1_555
C60 C59 1_555 1_555
H50 C60 1_555 1_555
C61 C60 1_555 1_555
H51 C61 1_555 1_555
C62 C61 1_555 1_555
H52 C62 1_555 1_555
C63 N10 1_555 1_555
C64 N10 1_555 1_555
H53 C64 1_555 1_555
H54 C64 1_555 1_555
C65 C64 1_555 1_555
C66 C65 1_555 1_555
H55 C66 1_555 1_555
C67 C66 1_555 1_555
H56 C67 1_555 1_555
C68 C67 1_555 1_555
C69 C68 1_555 1_555
H57 C69 1_555 1_555
C70 C65 1_555 1_555
H58 C70 1_555 1_555
C71 C68 1_555 1_555
C72 C71 1_555 1_555
H59 C72 1_555 1_555
C73 C72 1_555 1_555
H60 C73 1_555 1_555
C74 C73 1_555 1_555
C75 C74 1_555 1_555
H61 C75 1_555 1_555
C76 C71 1_555 1_555
H62 C76 1_555 1_555
C77 C74 1_555 1_555
H63 C77 1_555 1_555
H64 C77 1_555 1_555
C78 N11 1_555 1_555
H65 C78 1_555 1_555
C79 N12 1_555 1_555
C80 C79 1_555 1_555
H66 C80 1_555 1_555
C81 C80 1_555 1_555
H67 C81 1_555 1_555
C82 C81 1_555 1_555
H68 C82 1_555 1_555
C83 C82 1_555 1_555
H69 C83 1_555 1_555
C84 N11 1_555 1_555
C85 O2 1_555 1_555
C86 C85 1_555 1_555
H70 C86 1_555 1_555
H71 C86 1_555 1_555
H72 C86 1_555 1_555
C87 O3 1_555 1_555
C88 C87 1_555 1_555
H73 C88 1_555 1_555
H74 C88 1_555 1_555
H75 C88 1_555 1_555
C89 O6 1_555 1_555
C90 C89 1_555 1_555
H76 C90 1_555 1_555
H77 C90 1_555 1_555
H78 C90 1_555 1_555
C91 O7 1_555 1_555
C92 C91 1_555 1_555
H79 C92 1_555 1_555
H80 C92 1_555 1_555
H81 C92 1_555 1_555
C93 O9 1_555 1_555
H82 C93 1_555 1_555
H83 C93 1_555 1_555
H84 C93 1_555 1_555
C94 O10 1_555 1_555
H85 C94 1_555 1_555
H86 C94 1_555 1_555
H87 C94 1_555 1_555
C95 O11 1_555 1_555
H88 C95 1_555 1_555
H89 C95 1_555 1_555
H90 C95 1_555 1_555
Cd2A N1 1_555 1_555
N1A Cd2 1_555 1_555
O4 C87 1_555 1_555
O8 C91 1_555 1_555
N2 C7 1_555 1_555
N4 C28 1_555 1_555
N6 C35 1_555 1_555
N8 C50 1_555 1_555
N12 C78 1_555 1_555
C5 C6 1_555 1_555
C13 C14 1_555 1_555
C19 C20 1_555 1_555
C22 C27 1_555 1_555
C26 C27 1_555 1_555
C33 C34 1_555 1_555
C41 C42 1_555 1_555
C47 C48 1_555 1_555
C51 C56 1_555 1_555
C55 C56 1_555 1_555
C58 C63 1_555 1_555
C62 C63 1_555 1_555
C69 C70 1_555 1_555
C75 C76 1_555 1_555
C79 C84 1_555 1_555
C83 C84 1_555 1_555

#END
