
#######################################################################
#
#                 Cambridge Crystallographic Data Centre
#                                CCDC 
#
#######################################################################
#
# If this CIF has been generated from an entry in the Cambridge 
# Structural Database, then it will include bibliographic, chemical, 
# crystal, experimental, refinement or atomic coordinate data resulting 
# from the CCDC's data processing and validation procedures.
#
#######################################################################

data_FUYYAA
_symmetry_cell_setting           triclinic
_symmetry_space_group_name_H-M   'P -1'
_symmetry_Int_Tables_number      2
_space_group_name_Hall           '-P 1'
loop_
_symmetry_equiv_pos_site_id
_symmetry_equiv_pos_as_xyz
1 x,y,z
2 -x,-y,-z
_cell_length_a                   8.823(6)
_cell_length_b                   9.396(6)
_cell_length_c                   14.546(10)
_cell_angle_alpha                81.850(11)
_cell_angle_beta                 72.798(10)
_cell_angle_gamma                65.368(9)
_cell_volume                     1046.88
loop_
_atom_site_label
_atom_site_type_symbol
_atom_site_fract_x
_atom_site_fract_y
_atom_site_fract_z
Nd1 Nd -0.07647(4) 0.81205(3) 0.365626(19)
Cu1 Cu 0.57297(9) 0.61726(8) 0.06554(4)
O1 O 0.0388(5) 0.6660(4) 0.5042(2)
O2 O 0.3502(5) 0.7985(4) 0.0888(2)
O3 O 0.4564(5) 0.5185(4) 0.1742(3)
O4 O 0.2119(5) 0.5929(4) 0.2927(2)
O5 O -0.3856(5) 0.8567(5) 0.4500(3)
H1 H -0.3539 0.7826 0.4900
H2 H -0.4614 0.8482 0.4286
O6 O -0.2462(6) 1.0858(5) 0.3088(3)
O7 O -0.1787(5) 0.7590(4) 0.2424(2)
O8 O 0.1012(5) 0.8762(4) 0.2050(2)
O9 O -0.3296(5) 0.7098(5) 0.1634(3)
O10 O 0.1013(5) 0.4437(4) 0.5929(2)
O11 O 0.1268(5) 0.9116(4) 0.3895(2)
O12 O 0.1936(5) 1.0134(5) 0.4947(3)
N1 N 0.2213(6) 0.5779(5) -0.0322(3)
N2 N 0.3137(6) 0.3163(5) 0.0622(3)
C1 C 0.0402(7) 0.5315(6) 0.5283(4)
C2 C 0.1018(7) 0.5753(6) 0.0510(3)
C3 C 0.1594(7) 0.4233(6) 0.1066(3)
C4 C 0.3084(7) 0.6163(6) 0.2161(4)
C5 C 0.2460(7) 0.7796(6) 0.1667(3)
C6 C 0.1921(8) 0.7038(7) -0.0908(4)
H3 H 0.2762 0.7029 -0.1474
C7 C 0.0404(8) 0.8357(7) -0.0696(4)
H4 H 0.0212 0.9223 -0.1113
C8 C 0.3806(8) 0.1752(6) 0.1034(4)
H5 H 0.4882 0.1031 0.0718
C9 C 0.0661(8) 0.3882(7) 0.1953(4)
H6 H -0.0419 0.4609 0.2258
C10 C 0.2950(9) 0.1345(7) 0.1906(4)
H7 H 0.3423 0.0355 0.2178
C11 C 0.1380(8) 0.2421(7) 0.2373(4)
H8 H 0.0790 0.2174 0.2975
C12 C -0.0534(7) 0.7060(6) 0.0772(3)
C13 C -0.1987(7) 0.7237(6) 0.1689(3)
C14 C -0.0812(7) 0.8348(7) 0.0145(4)
H9 H -0.1844 0.9225 0.0301
C15 C 0.0920(7) 0.9788(6) 0.4667(4)
H16 H -0.349(3) 1.099(6) 0.313(4)
H17 H -0.247(7) 1.158(5) 0.338(4)
Nd1A Nd 0.07647(4) 0.18795(3) 0.634374(19)
Nd1A_2 Nd 0.07647(4) 1.18795(3) 0.634374(19)
Nd1_2 Nd 0.92353(4) 0.81205(3) 0.365626(19)
Cu1_2 Cu -0.42703(9) 0.61726(8) 0.06554(4)
Cu1A Cu 0.42703(9) 0.38274(8) -0.06554(4)
Cu1A_2 Cu 1.42703(9) 0.38274(8) -0.06554(4)
Cu1A_3 Cu -0.57297(9) 0.38274(8) 0.93446(4)
O1A O -0.0388(5) 0.3340(4) 0.4958(2)
O2A O -0.3502(5) 0.2015(4) 0.9112(2)
O2_2 O -0.6498(5) 0.7985(4) 0.0888(2)
O3A O -0.4564(5) 0.4815(4) 0.8258(3)
O3_2 O -0.5436(5) 0.5185(4) 0.1742(3)
O4A O -0.2119(5) 0.4071(4) 0.7073(2)
O5A O 0.3856(5) 0.1433(5) 0.5500(3)
H1A H 0.3539 0.2174 0.5100
H2A H 0.4614 0.1518 0.5714
O6A O 0.2462(6) -0.0858(5) 0.6912(3)
O7_2 O 0.8213(5) 0.7590(4) 0.2424(2)
O7A O 0.1787(5) 0.2410(4) 0.7576(2)
O8A O -0.1012(5) 0.1238(4) 0.7950(2)
O9_2 O 0.6704(5) 0.7098(5) 0.1634(3)
O10A O -0.1013(5) 0.5563(4) 0.4071(2)
O11A O -0.1268(5) 1.0884(4) 0.6105(2)
O11A_2 O -0.1268(5) 0.0884(4) 0.6105(2)
O12A O -0.1936(5) 0.9866(5) 0.5053(3)
O12_2 O 0.1936(5) 0.0134(5) 0.4947(3)
N1_2 N 1.2213(6) 0.5779(5) -0.0322(3)
N1A N 0.7787(6) 0.4221(5) 0.0322(3)
N1A_2 N -0.2213(6) 0.4221(5) 0.0322(3)
N2_2 N 1.3137(6) 0.3163(5) 0.0622(3)
N2A N 0.6863(6) 0.6837(5) -0.0622(3)
N2A_2 N -0.3137(6) 0.6837(5) -0.0622(3)
C1A C -0.0402(7) 0.4685(6) 0.4717(4)
C2_2 C 1.1018(7) 0.5753(6) 0.0510(3)
C3_2 C 1.1594(7) 0.4233(6) 0.1066(3)
C4A C -0.3084(7) 0.3837(6) 0.7839(4)
C5A C -0.2460(7) 0.2204(6) 0.8333(3)
C6_2 C 1.1921(8) 0.7038(7) -0.0908(4)
H3_2 H 1.2762 0.7029 -0.1474
C7_2 C 1.0404(8) 0.8357(7) -0.0696(4)
H4_2 H 1.0212 0.9223 -0.1113
C8_2 C 1.3806(8) 0.1752(6) 0.1034(4)
H5_2 H 1.4882 0.1031 0.0718
C9_2 C 1.0661(8) 0.3882(7) 0.1953(4)
H6_2 H 0.9581 0.4609 0.2258
C10_2 C 1.2950(9) 0.1345(7) 0.1906(4)
H7_2 H 1.3423 0.0355 0.2178
C11_2 C 1.1380(8) 0.2421(7) 0.2373(4)
H8_2 H 1.0790 0.2174 0.2975
C12_2 C 0.9466(7) 0.7060(6) 0.0772(3)
C13_2 C 0.8013(7) 0.7237(6) 0.1689(3)
C14_2 C 0.9188(7) 0.8348(7) 0.0145(4)
H9_2 H 0.8156 0.9225 0.0301
C15A C -0.0920(7) 1.0212(6) 0.5333(4)
H16A H 0.349(3) -0.099(6) 0.687(4)
H17A H 0.247(7) -0.158(5) 0.662(4)
O13 O 0.3927(8) 0.2629(8) 0.3558(4)
H10 H 0.4167 0.3235 0.3839
H11 H 0.4936 0.1745 0.3392
O14 O 0.7083(9) 0.3647(8) 0.3801(5)
H12 H 0.6161 0.4468 0.3829
H13 H 0.7472 0.3609 0.4277
O15 O 0.4880(7) 0.7070(7) 0.3602(4)
H14 H 0.3912 0.7767 0.3548
H15 H 0.4738 0.6594 0.4143
loop_
_geom_bond_atom_site_label_1
_geom_bond_atom_site_label_2
_geom_bond_site_symmetry_1
_geom_bond_site_symmetry_2
Nd1 O1 1_555 1_555
Cu1 O2 1_555 1_555
O1 C1 1_555 1_555
O2 C5 1_555 1_555
O3 Cu1 1_555 1_555
O4 Nd1 1_555 1_555
O5 Nd1 1_555 1_555
H1 O5 1_555 1_555
H2 O5 1_555 1_555
O6 Nd1 1_555 1_555
O7 Nd1 1_555 1_555
O8 Nd1 1_555 1_555
O9 C13 1_555 1_555
O10 C1 1_555 1_555
O11 Nd1 1_555 1_555
O12 C15 1_555 1_555
N1 C2 1_555 1_555
N2 C3 1_555 1_555
C1 C1A 1_555 1_555
C2 C3 1_555 1_555
C3 C9 1_555 1_555
C4 O3 1_555 1_555
C5 O8 1_555 1_555
C6 N1 1_555 1_555
H3 C6 1_555 1_555
C7 C6 1_555 1_555
H4 C7 1_555 1_555
C8 N2 1_555 1_555
H5 C8 1_555 1_555
C9 H6 1_555 1_555
C10 C8 1_555 1_555
H7 C10 1_555 1_555
C11 C9 1_555 1_555
H8 C11 1_555 1_555
C12 C2 1_555 1_555
C13 O7 1_555 1_555
C14 C7 1_555 1_555
H9 C14 1_555 1_555
C15 O11 1_555 1_555
O13 H10 1_555 1_555
H11 O13 1_555 1_555
O14 H12 1_555 1_555
H13 O14 1_555 1_555
O15 H14 1_555 1_555
H15 O15 1_555 1_555
H16 O6 1_555 1_555
H17 O6 1_555 1_555
Nd1A O10 1_555 1_555
Nd1A_2 O12 1_555 1_555
Nd1_2 O7_2 1_555 1_555
Cu1_2 O9 1_555 1_555
Cu1A N1 1_555 1_555
Cu1A_2 N1_2 1_555 1_555
Cu1A_3 O2A 1_555 1_555
O1A Nd1A 1_555 1_555
O2A C5A 1_555 1_555
O2_2 Cu1_2 1_555 1_555
O3A Cu1A_3 1_555 1_555
O3_2 Cu1_2 1_555 1_555
O4A Nd1A 1_555 1_555
O5A Nd1A 1_555 1_555
H1A O5A 1_555 1_555
H2A O5A 1_555 1_555
O6A Nd1A 1_555 1_555
O7_2 C13_2 1_555 1_555
O7A Nd1A 1_555 1_555
O8A Nd1A 1_555 1_555
O9_2 Cu1 1_555 1_555
O10A Nd1 1_555 1_555
O11A Nd1A_2 1_555 1_555
O11A_2 Nd1A 1_555 1_555
O12A Nd1 1_555 1_555
O12_2 Nd1A 1_555 1_555
N1_2 C2_2 1_555 1_555
N1A Cu1 1_555 1_555
N1A_2 Cu1_2 1_555 1_555
N2_2 Cu1A_2 1_555 1_555
N2A Cu1 1_555 1_555
N2A_2 Cu1_2 1_555 1_555
C1A O1A 1_555 1_555
C2_2 C3_2 1_555 1_555
C3_2 N2_2 1_555 1_555
C4A O3A 1_555 1_555
C5A O8A 1_555 1_555
C6_2 N1_2 1_555 1_555
H3_2 C6_2 1_555 1_555
C7_2 C6_2 1_555 1_555
H4_2 C7_2 1_555 1_555
C8_2 N2_2 1_555 1_555
H5_2 C8_2 1_555 1_555
C9_2 C3_2 1_555 1_555
H6_2 C9_2 1_555 1_555
C10_2 C8_2 1_555 1_555
H7_2 C10_2 1_555 1_555
C11_2 C9_2 1_555 1_555
H8_2 C11_2 1_555 1_555
C12_2 C2_2 1_555 1_555
C13_2 O9_2 1_555 1_555
C14_2 C7_2 1_555 1_555
H9_2 C14_2 1_555 1_555
C15A C15 1_555 1_555
H16A O6A 1_555 1_555
H17A O6A 1_555 1_555
O4 C4 1_555 1_555
N2 Cu1A 1_555 1_555
C4 C5 1_555 1_555
C10 C11 1_555 1_555
C12 C13 1_555 1_555
C12 C14 1_555 1_555
O4A C4A 1_555 1_555
O10A C1A 1_555 1_555
O11A C15A 1_555 1_555
O12A C15A 1_555 1_555
C4A C5A 1_555 1_555
C10_2 C11_2 1_555 1_555
C12_2 C13_2 1_555 1_555
C12_2 C14_2 1_555 1_555

#END
