
#######################################################################
#
#                 Cambridge Crystallographic Data Centre
#                                CCDC 
#
#######################################################################
#
# If this CIF has been generated from an entry in the Cambridge 
# Structural Database, then it will include bibliographic, chemical, 
# crystal, experimental, refinement or atomic coordinate data resulting 
# from the CCDC's data processing and validation procedures.
#
#######################################################################

data_FUYYOO
_symmetry_cell_setting           monoclinic
_symmetry_space_group_name_H-M   'P 21/c'
_symmetry_Int_Tables_number      14
_space_group_name_Hall           '-P 2ybc'
loop_
_symmetry_equiv_pos_site_id
_symmetry_equiv_pos_as_xyz
1 x,y,z
2 -x,1/2+y,1/2-z
3 -x,-y,-z
4 x,1/2-y,1/2+z
_cell_length_a                   11.1514(9)
_cell_length_b                   8.9392(7)
_cell_length_c                   23.0780(18)
_cell_angle_alpha                90
_cell_angle_beta                 94.8790(10)
_cell_angle_gamma                90
_cell_volume                     2292.19
loop_
_atom_site_label
_atom_site_type_symbol
_atom_site_fract_x
_atom_site_fract_y
_atom_site_fract_z
O1 O 0.1726(3) 0.1021(4) 0.10772(14)
H11 H 0.1059 0.1208 0.0881
H12 H 0.2119 0.1822 0.1132
O2 O 0.6566(2) 0.5477(3) 0.10459(10)
H10 H 0.7102 0.5974 0.1237
H21 H 0.621(3) 0.490(4) 0.1242(12)
Er1 Er 0.798639(12) 0.840301(15) 0.234951(5)
O3 O 0.9751(2) 0.8591(3) 0.18341(11)
O4 O 0.8693(2) 0.6534(3) 0.16814(10)
O5 O 1.1061(2) 0.5362(3) 0.20955(9)
O6 O 1.2050(2) 0.3754(3) 0.16010(10)
O7 O 0.6945(3) 0.8598(3) 0.14070(11)
O8 O 0.7563(2) 1.0755(3) 0.17642(10)
O9 O 0.4817(2) 1.1215(3) 0.17340(11)
O10 O 0.5086(3) 1.3633(3) 0.15545(12)
H1 H 0.4772 1.3730 0.1861
O11 O 0.6104(3) 0.9356(3) 0.25374(12)
H2 H 0.6425 1.0109 0.2714
H3 H 0.5667 0.9907 0.2305
O12 O 0.6854(2) 0.6304(3) 0.25004(12)
H4 H 0.6234 0.6430 0.2685
H5 H 0.7162 0.5444 0.2563
O13 O 0.9504(2) 0.6836(3) 0.28622(11)
H6 H 0.9204 0.6376 0.3138
H7 H 1.0005 0.6284 0.2705
N1 N 1.1678(3) 0.6114(4) -0.04874(12)
H13 H 1.2180 0.5486 -0.0612
N2 N 1.0370(3) 0.7999(4) -0.04966(12)
N3 N 0.6666(3) 1.0950(4) -0.07703(12)
H14 H 0.7182 1.0359 -0.0906
N4 N 0.5292(3) 1.2680(4) -0.07337(12)
C1 C 1.0257(3) 0.6981(4) 0.10599(14)
C2 C 1.1080(3) 0.5776(4) 0.10718(13)
C3 C 1.1641(3) 0.5392(4) 0.05752(14)
H15 H 1.2195 0.4614 0.0580
C4 C 1.1342(3) 0.6213(4) 0.00733(14)
C5 C 1.0526(3) 0.7405(4) 0.00590(14)
C6 C 0.9992(3) 0.7807(4) 0.05616(15)
H16 H 0.9467 0.8617 0.0560
C7 C 1.1076(3) 0.7175(4) -0.08000(14)
H17 H 1.1148 0.7321 -0.1195
C8 C 0.9545(3) 0.7374(4) 0.15646(13)
C9 C 1.1412(3) 0.4914(4) 0.16182(13)
C10 C 0.5614(3) 1.1882(4) 0.08553(14)
C11 C 0.6479(3) 1.0736(4) 0.08256(14)
C12 C 0.6890(3) 1.0316(4) 0.03020(14)
H18 H 0.7453 0.9554 0.0282
C13 C 0.6431(3) 1.1075(4) -0.01928(14)
C14 C 0.5566(3) 1.2192(4) -0.01644(14)
C15 C 0.5148(3) 1.2617(4) 0.03577(14)
H19 H 0.4575 1.3369 0.0374
C16 C 0.5957(4) 1.1898(4) -0.10751(16)
H20 H 0.5928 1.2003 -0.1477
C17 C 0.7026(3) 0.9994(4) 0.13720(13)
C18 C 0.5148(3) 1.2278(4) 0.14322(14)
Er1A Er 1.201361(12) 0.340301(15) 0.265049(5)
O5A O 0.8939(2) 1.0362(3) 0.29045(9)
O6A O 0.7950(2) 0.8754(3) 0.33990(10)
O14 O 0.7601(4) 0.3424(4) 0.2645(2)
H8 H 0.8343 0.3209 0.2710
H9 H 0.7234 0.2781 0.2424
loop_
_geom_bond_atom_site_label_1
_geom_bond_atom_site_label_2
_geom_bond_site_symmetry_1
_geom_bond_site_symmetry_2
O1 H11 1_555 1_555
O2 H10 1_555 1_555
Er1 O3 1_555 1_555
O3 C8 1_555 1_555
O4 Er1 1_555 1_555
O5 C9 1_555 1_555
O6 C9 1_555 1_555
O7 Er1 1_555 1_555
O8 Er1 1_555 1_555
O9 C18 1_555 1_555
O10 H1 1_555 1_555
O11 Er1 1_555 1_555
H2 O11 1_555 1_555
H3 O11 1_555 1_555
O12 Er1 1_555 1_555
H4 O12 1_555 1_555
H5 O12 1_555 1_555
O13 Er1 1_555 1_555
H6 O13 1_555 1_555
H7 O13 1_555 1_555
O14 H8 1_555 1_555
H9 O14 1_555 1_555
H12 O1 1_555 1_555
N1 H13 1_555 1_555
N2 C5 1_555 1_555
N3 H14 1_555 1_555
N4 C14 1_555 1_555
C1 C2 1_555 1_555
C2 C3 1_555 1_555
C3 H15 1_555 1_555
C4 N1 1_555 1_555
C5 C4 1_555 1_555
C6 C1 1_555 1_555
H16 C6 1_555 1_555
C7 N1 1_555 1_555
H17 C7 1_555 1_555
C8 O4 1_555 1_555
C9 C2 1_555 1_555
C10 C11 1_555 1_555
C11 C12 1_555 1_555
C12 H18 1_555 1_555
C13 N3 1_555 1_555
C14 C13 1_555 1_555
C15 C10 1_555 1_555
H19 C15 1_555 1_555
C16 N3 1_555 1_555
H20 C16 1_555 1_555
C17 O7 1_555 1_555
C18 O10 1_555 1_555
H21 O2 1_555 1_555
Er1A O5 1_555 1_555
O5A Er1 1_555 1_555
O6A Er1 1_555 1_555
O6 Er1A 1_555 1_555
O8 C17 1_555 1_555
N2 C7 1_555 1_555
N4 C16 1_555 1_555
C1 C8 1_555 1_555
C3 C4 1_555 1_555
C5 C6 1_555 1_555
C10 C18 1_555 1_555
C11 C17 1_555 1_555
C12 C13 1_555 1_555
C14 C15 1_555 1_555

#END
