
#######################################################################
#
#                 Cambridge Crystallographic Data Centre
#                                CCDC 
#
#######################################################################
#
# If this CIF has been generated from an entry in the Cambridge 
# Structural Database, then it will include bibliographic, chemical, 
# crystal, experimental, refinement or atomic coordinate data resulting 
# from the CCDC's data processing and validation procedures.
#
#######################################################################

data_FUYYUU
_symmetry_cell_setting           triclinic
_symmetry_space_group_name_H-M   'P -1'
_symmetry_Int_Tables_number      2
_space_group_name_Hall           '-P 1'
loop_
_symmetry_equiv_pos_site_id
_symmetry_equiv_pos_as_xyz
1 x,y,z
2 -x,-y,-z
_cell_length_a                   7.4471(15)
_cell_length_b                   12.358(3)
_cell_length_c                   13.845(3)
_cell_angle_alpha                71.91(3)
_cell_angle_beta                 82.65(3)
_cell_angle_gamma                79.04(3)
_cell_volume                     1185.85
loop_
_atom_site_label
_atom_site_type_symbol
_atom_site_fract_x
_atom_site_fract_y
_atom_site_fract_z
O1 O 0.4321(8) 0.6289(5) 0.0162(4)
H24 H 0.524(5) 0.659(4) -0.026(3)
H25 H 0.403(7) 0.688(3) 0.044(4)
Er1 Er -0.00173(3) 0.064805(14) 0.176950(12)
N1 N -0.2560(5) -0.5451(3) 0.3891(3)
N2 N -0.2007(5) -0.6058(3) 0.2509(3)
H1 H -0.1916 -0.6513 0.2139
N3 N 0.2799(6) 0.5905(3) 0.3912(3)
H2 H 0.2550 0.5997 0.4508
N4 N 0.3674(5) 0.6253(3) 0.2289(3)
O2 O -0.1691(5) -0.1044(2) 0.2613(2)
O3 O 0.0623(4) -0.1215(2) 0.1494(2)
O4 O -0.1485(4) -0.1346(2) -0.0100(2)
O5 O 0.0783(5) -0.2616(3) -0.0446(2)
O6 O 0.1128(4) 0.2043(2) 0.2233(2)
O7 O 0.4015(4) 0.2132(3) 0.1613(2)
O8 O 0.2562(4) 0.1035(2) 0.4293(2)
H3 H 0.2396 0.0964 0.3721
O9 O 0.0250(5) 0.1978(3) 0.5072(2)
O10 O 0.3281(4) -0.0011(3) 0.1817(2)
O11 O 0.0421(5) -0.0060(3) 0.3492(2)
O12 O -0.2653(4) 0.1636(3) 0.2402(2)
O13 O -0.2244(4) 0.0593(3) 0.0689(2)
H4 H -0.2999 0.0922 0.0245
H5 H -0.1799 -0.0073 0.0673
C1 C -0.0723(6) -0.1599(3) 0.2064(3)
C2 C -0.1153(6) -0.2750(3) 0.2075(3)
C3 C -0.0844(6) -0.3133(3) 0.1197(3)
C4 C -0.0457(6) -0.2323(4) 0.0164(3)
C5 C -0.1080(6) -0.4241(3) 0.1251(3)
H6 H -0.0870 -0.4499 0.0677
C6 C -0.1640(6) -0.4949(3) 0.2190(3)
C7 C -0.1989(6) -0.4575(3) 0.3065(3)
C8 C -0.1740(6) -0.3459(3) 0.3005(3)
H7 H -0.1966 -0.3200 0.3579
C9 C -0.2537(6) -0.6298(4) 0.3510(3)
H8 H -0.2859 -0.7006 0.3896
C10 C 0.2621(6) 0.2406(3) 0.2146(3)
C11 C 0.2694(6) 0.3280(3) 0.2699(3)
C12 C 0.2056(6) 0.3090(3) 0.3742(3)
C13 C 0.1566(7) 0.1945(4) 0.4414(3)
C14 C 0.2001(6) 0.3923(4) 0.4208(3)
H9 H 0.1564 0.3811 0.4886
C15 C 0.2618(6) 0.4943(4) 0.3640(3)
C16 C 0.3208(6) 0.5146(3) 0.2612(3)
C17 C 0.3273(6) 0.4308(4) 0.2130(3)
H10 H 0.3690 0.4432 0.1448
C18 C 0.3422(7) 0.6655(4) 0.3092(4)
H11 H 0.3656 0.7373 0.3077
H14 H 0.077(8) 0.030(4) 0.381(3)
H15 H 0.034(8) -0.073(2) 0.383(3)
H16 H -0.289(7) 0.140(4) 0.3026(14)
H17 H -0.363(4) 0.182(4) 0.210(3)
H18 H 0.372(7) 0.060(3) 0.162(3)
H19 H 0.353(8) -0.033(4) 0.2425(19)
Er1A Er 0.00173(3) -0.064805(14) -0.176950(12)
O4A O 0.1485(4) 0.1346(2) 0.0100(2)
O5A O -0.0783(5) 0.2616(3) 0.0446(2)
O14 O 0.6197(5) 0.1086(3) 0.4398(3)
H20 H 0.671(6) 0.043(2) 0.467(4)
H21 H 0.516(4) 0.105(4) 0.426(4)
O15 O 0.5116(5) 0.1372(3) 0.6450(3)
H12 H 0.404(4) 0.129(5) 0.660(4)
H13 H 0.545(6) 0.134(5) 0.588(2)
O16 O 0.4766(6) 0.8315(4) 0.0799(3)
H22 H 0.440(6) 0.884(3) 0.109(4)
H23 H 0.586(4) 0.839(4) 0.056(4)
loop_
_geom_bond_atom_site_label_1
_geom_bond_atom_site_label_2
_geom_bond_site_symmetry_1
_geom_bond_site_symmetry_2
O1 H24 1_555 1_555
Er1 O2 1_555 1_555
N1 C7 1_555 1_555
N2 H1 1_555 1_555
N3 H2 1_555 1_555
N4 C16 1_555 1_555
O2 C1 1_555 1_555
O3 Er1 1_555 1_555
O4 C4 1_555 1_555
O5 C4 1_555 1_555
O6 Er1 1_555 1_555
O7 C10 1_555 1_555
O8 H3 1_555 1_555
O9 C13 1_555 1_555
O10 Er1 1_555 1_555
O11 Er1 1_555 1_555
O12 Er1 1_555 1_555
O13 Er1 1_555 1_555
H4 O13 1_555 1_555
H5 O13 1_555 1_555
O14 H20 1_555 1_555
O15 H12 1_555 1_555
O16 H22 1_555 1_555
C1 O3 1_555 1_555
C2 C1 1_555 1_555
C3 C2 1_555 1_555
C4 C3 1_555 1_555
C5 C3 1_555 1_555
H6 C5 1_555 1_555
C6 N2 1_555 1_555
C7 C6 1_555 1_555
C8 C2 1_555 1_555
H7 C8 1_555 1_555
C9 N1 1_555 1_555
H8 C9 1_555 1_555
C10 O6 1_555 1_555
C11 C10 1_555 1_555
C12 C11 1_555 1_555
C13 O8 1_555 1_555
C14 C12 1_555 1_555
H9 C14 1_555 1_555
C15 N3 1_555 1_555
C16 C15 1_555 1_555
C17 C11 1_555 1_555
H10 C17 1_555 1_555
C18 N3 1_555 1_555
H11 C18 1_555 1_555
H13 O15 1_555 1_555
H14 O11 1_555 1_555
H15 O11 1_555 1_555
H16 O12 1_555 1_555
H17 O12 1_555 1_555
H18 O10 1_555 1_555
H19 O10 1_555 1_555
H21 O14 1_555 1_555
H23 O16 1_555 1_555
H25 O1 1_555 1_555
Er1A O4 1_555 1_555
O4A Er1 1_555 1_555
O5A Er1 1_555 1_555
N2 C9 1_555 1_555
N4 C18 1_555 1_555
O5 Er1A 1_555 1_555
C5 C6 1_555 1_555
C7 C8 1_555 1_555
C12 C13 1_555 1_555
C14 C15 1_555 1_555
C16 C17 1_555 1_555

#END
