
#######################################################################
#
#                 Cambridge Crystallographic Data Centre
#                                CCDC 
#
#######################################################################
#
# If this CIF has been generated from an entry in the Cambridge 
# Structural Database, then it will include bibliographic, chemical, 
# crystal, experimental, refinement or atomic coordinate data resulting 
# from the CCDC's data processing and validation procedures.
#
#######################################################################

data_FUZDEK
_symmetry_cell_setting           monoclinic
_symmetry_space_group_name_H-M   'P 21/c'
_symmetry_Int_Tables_number      14
_space_group_name_Hall           '-P 2ybc'
loop_
_symmetry_equiv_pos_site_id
_symmetry_equiv_pos_as_xyz
1 x,y,z
2 -x,1/2+y,1/2-z
3 -x,-y,-z
4 x,1/2-y,1/2+z
_cell_length_a                   17.000(5)
_cell_length_b                   20.000(5)
_cell_length_c                   20.000(5)
_cell_angle_alpha                90
_cell_angle_beta                 105.000(5)
_cell_angle_gamma                90
_cell_volume                     6568.3
loop_
_atom_site_label
_atom_site_type_symbol
_atom_site_fract_x
_atom_site_fract_y
_atom_site_fract_z
Ni1 Ni 0.86316(3) 0.76033(2) 0.80205(2)
Ni2 Ni 0.85850(3) 0.90957(2) 0.77942(2)
C1 C 0.4928(3) 0.8475(3) 0.8452(3)
H1 H 0.4757 0.8932 0.8448
H2 H 0.5025 0.8299 0.8913
H3 H 0.4511 0.8217 0.8145
C2 C 0.5679(3) 0.8437(3) 0.8225(2)
C3 C 0.6016(3) 0.8998(2) 0.8027(2)
H4 H 0.5753 0.9405 0.8028
C4 C 0.6707(2) 0.8984(2) 0.7833(2)
C5 C 0.7107(2) 0.83714(19) 0.78454(19)
C6 C 0.6739(3) 0.7791(2) 0.7995(2)
C7 C 0.6041(3) 0.7842(3) 0.8187(2)
H5 H 0.5799 0.7455 0.8298
C8 C 0.6966(2) 0.9604(2) 0.7539(2)
H6 H 0.6948 0.9525 0.7056
H7 H 0.6581 0.9957 0.7555
C9 C 0.7044(3) 0.7113(2) 0.7889(2)
H8 H 0.6669 0.6781 0.7979
H9 H 0.7060 0.7068 0.7410
C10 C 0.7857(3) 1.05301(19) 0.7709(3)
H10 H 0.7724 1.0571 0.7209
H11 H 0.7471 1.0801 0.7873
C11 C 0.8669(3) 1.07871(19) 0.7998(3)
H12 H 0.8829 1.0698 0.8491
H13 H 0.8667 1.1268 0.7934
C12 C 0.9264(3) 1.04869(18) 0.7675(2)
H14 H 0.9754 1.0758 0.7784
H15 H 0.9045 1.0490 0.7177
C13 C 0.8020(3) 0.6262(2) 0.8380(3)
H16 H 0.7607 0.6037 0.8553
H17 H 0.7989 0.6090 0.7921
C14 C 0.8821(3) 0.6110(2) 0.8834(3)
H18 H 0.8905 0.6370 0.9256
H19 H 0.8846 0.5640 0.8958
C15 C 0.9463(3) 0.62606(19) 0.8499(3)
H20 H 0.9327 0.6059 0.8042
H21 H 0.9966 0.6059 0.8764
C16 C 1.0203(3) 0.70723(18) 0.8053(2)
H22 H 0.9959 0.6984 0.7567
H23 H 1.0635 0.6748 0.8216
C17 C 1.0080(2) 0.95463(17) 0.7583(2)
H24 H 1.0482 0.9893 0.7594
H25 H 0.9819 0.9450 0.7101
C18 C 1.0106(2) 0.83283(17) 0.79309(18)
C19 C 1.0563(2) 0.77522(18) 0.81258(19)
C20 C 1.1375(2) 0.7794(2) 0.8328(2)
H26 H 1.1677 0.7407 0.8465
C21 C 1.1772(2) 0.8390(2) 0.8339(2)
C22 C 1.1318(2) 0.8952(2) 0.8126(2)
H27 H 1.1583 0.9359 0.8131
C23 C 1.0504(2) 0.89358(17) 0.79101(19)
C24 C 1.2658(3) 0.8423(3) 0.8558(3)
H28 H 1.2874 0.7984 0.8686
H29 H 1.2822 0.8718 0.8948
H30 H 1.2860 0.8589 0.8184
C25 C 0.8838(2) 0.86949(16) 0.99668(17)
C26 C 0.8958(2) 0.93310(17) 1.02421(19)
H31 H 0.9099 0.9675 0.9982
C27 C 0.8873(3) 0.94636(18) 1.0896(2)
H32 H 0.8950 0.9895 1.1075
C28 C 0.8674(2) 0.89527(18) 1.12799(19)
H33 H 0.8612 0.9042 1.1720
C29 C 0.8645(2) 0.81840(17) 1.03663(18)
H34 H 0.8567 0.7752 1.0188
C30 C 0.8867(2) 0.85629(17) 0.92351(17)
C31 C 0.8566(2) 0.83081(17) 1.1023(2)
C32 C 0.8390(2) 0.77509(18) 1.1473(2)
N1 N 0.7762(2) 0.98214(16) 0.78917(18)
H35 H 0.783(3) 0.982(2) 0.829(2)
N2 N 0.94791(19) 0.97955(14) 0.79048(17)
H36 H 0.968(2) 0.979(2) 0.832(2)
N3 N 0.7846(2) 0.69849(16) 0.83318(19)
H37 H 0.783(3) 0.716(2) 0.869(3)
N4 N 0.9596(2) 0.69807(15) 0.84295(18)
H38 H 0.977(3) 0.715(2) 0.882(2)
O1 O 0.77901(15) 0.83343(12) 0.76863(13)
O2 O 0.93230(15) 0.83084(11) 0.77433(12)
O3 O 0.88706(15) 0.90760(11) 0.88667(12)
O4 O 0.88707(16) 0.79694(11) 0.90477(12)
O5 O 0.84291(18) 0.79081(13) 1.20877(13)
O6 O 0.8233(2) 0.71847(14) 1.12050(15)
O7 O 0.8314(2) 0.91065(14) 0.67106(15)
H39 H 0.834(3) 0.8698(8) 0.660(2)
H40 H 0.814(3) 0.9417(15) 0.6420(18)
Ni1C Ni 0.86316(3) 0.73967(2) 1.30205(2)
O5C O 0.84291(18) 0.70919(13) 0.70877(13)
Ni3 Ni 0.77348(3) 0.29058(3) 0.90999(2)
Ni4 Ni 0.60726(3) 0.30556(3) 0.91834(3)
C33 C 0.6291(4) 0.5468(3) 0.6718(3)
H41 H 0.5729 0.5598 0.6606
H42 H 0.6399 0.5226 0.6337
H43 H 0.6628 0.5860 0.6808
C34 C 0.6479(3) 0.5028(2) 0.7356(3)
C35 C 0.7214(3) 0.4777(2) 0.7638(2)
H44 H 0.7638 0.4898 0.7447
C36 C 0.7388(3) 0.4345(2) 0.8200(2)
C37 C 0.6790(3) 0.4128(2) 0.8491(2)
C38 C 0.6056(3) 0.4443(2) 0.8250(2)
C39 C 0.5914(3) 0.4869(2) 0.7683(2)
H45 H 0.5397 0.5053 0.7523
C40 C 0.8228(3) 0.4165(2) 0.8544(2)
H46 H 0.8355 0.4328 0.9017
H47 H 0.8587 0.4390 0.8311
C41 C 0.5450(3) 0.4372(2) 0.8640(3)
H48 H 0.4989 0.4658 0.8436
H49 H 0.5681 0.4524 0.9111
C42 C 0.9258(2) 0.3341(2) 0.8778(2)
H50 H 0.9457 0.3495 0.9252
H51 H 0.9519 0.3607 0.8491
C43 C 0.9483(3) 0.2627(2) 0.8737(3)
H52 H 1.0056 0.2604 0.8747
H53 H 0.9177 0.2449 0.8295
C44 C 0.9336(2) 0.2189(3) 0.9304(2)
H54 H 0.9600 0.1760 0.9292
H55 H 0.9577 0.2394 0.9749
C45 C 0.4454(3) 0.3697(3) 0.8924(3)
H56 H 0.4063 0.4013 0.8658
H57 H 0.4609 0.3850 0.9401
C46 C 0.4068(3) 0.3034(3) 0.8894(3)
H58 H 0.4042 0.2836 0.8446
H59 H 0.3514 0.3092 0.8929
C47 C 0.4501(3) 0.2560(3) 0.9449(3)
H60 H 0.4605 0.2780 0.9896
H61 H 0.4156 0.2176 0.9458
C48 C 0.8404(2) 0.1644(2) 0.9793(2)
H62 H 0.8801 0.1286 0.9848
H63 H 0.8522 0.1896 1.0222
C49 C 0.5621(3) 0.1866(3) 0.9870(3)
H64 H 0.5202 0.1570 0.9948
H65 H 0.5847 0.2108 1.0296
C50 C 0.6954(2) 0.1776(2) 0.9646(2)
C51 C 0.7600(2) 0.1355(2) 0.9674(2)
C52 C 0.7518(3) 0.0660(2) 0.9689(2)
H66 H 0.7973 0.0401 0.9693
C53 C 0.6829(3) 0.0346(3) 0.9698(3)
C54 C 0.6213(3) 0.0769(3) 0.9720(3)
H67 H 0.5721 0.0582 0.9746
C55 C 0.6267(3) 0.1460(3) 0.9708(2)
C56 C 0.6788(4) -0.0404(3) 0.9745(3)
H68 H 0.6244 -0.0536 0.9740
H69 H 0.7158 -0.0553 1.0167
H70 H 0.6937 -0.0602 0.9357
C57 C 0.6432(2) 0.2328(2) 0.79926(19)
C58 C 0.6125(2) 0.18804(19) 0.73761(19)
C59 C 0.5401(2) 0.1564(2) 0.7284(2)
H71 H 0.5117 0.1592 0.7623
C60 C 0.5083(3) 0.1203(2) 0.6693(2)
H72 H 0.4596 0.0975 0.6649
C61 C 0.5454(2) 0.1167(2) 0.6174(2)
H73 H 0.5215 0.0941 0.5766
C62 C 0.6180(2) 0.14698(18) 0.62658(19)
C63 C 0.6521(2) 0.18065(18) 0.68737(18)
H74 H 0.7039 0.1989 0.6941
C64 C 0.6561(3) 0.1471(2) 0.5686(2)
N5 N 0.83944(19) 0.34438(17) 0.85560(18)
H75 H 0.820(3) 0.329(2) 0.815(2)
N6 N 0.84913(19) 0.20853(19) 0.92318(18)
H76 H 0.833(3) 0.188(2) 0.889(2)
N7 N 0.5161(2) 0.3685(2) 0.86587(19)
H77 H 0.498(3) 0.355(2) 0.822(3)
N8 N 0.5247(2) 0.2344(2) 0.9332(2)
H78 H 0.518(3) 0.204(3) 0.899(3)
O8 O 0.83379(18) 0.32950(16) 1.00936(16)
H79 H 0.880(2) 0.339(3) 1.013(3)
H80 H 0.799(2) 0.347(2) 1.028(2)
O9 O 0.69300(16) 0.36768(14) 0.90022(13)
O10 O 0.70151(15) 0.24355(14) 0.96179(14)
O11 O 0.59284(15) 0.25536(15) 0.82681(14)
O12 O 0.71570(15) 0.24500(14) 0.81734(13)
O13 O 0.60903(19) 0.14890(18) 0.50934(15)
O14 O 0.72967(18) 0.14526(18) 0.58381(16)
Ni4C Ni 0.60726(3) 0.19444(3) 0.41834(3)
O13C O 0.60903(19) 0.35110(18) 1.00934(15)
C65 C 0.7088(10) 0.5121(9) 0.0131(10)
H81 H 0.6545 0.5210 0.0166
H82 H 0.7074 0.4770 -0.0200
H83 H 0.7310 0.5519 -0.0018
O15 O 0.7570(7) 0.4926(4) 0.0772(5)
H84 H 0.8044(19) 0.472(3) 0.0798(19)
C66 C 0.7110(8) 0.6917(6) -0.0239(7)
H85 H 0.6697 0.6604 -0.0199
H86 H 0.7014 0.7059 -0.0712
H87 H 0.7093 0.7298 0.0049
O16 O 0.7693(4) 0.6686(3) -0.0078(3)
C67 C 0.9339(10) 0.5239(8) 0.0493(9)
H88 H 0.9023 0.5629 0.0531
H89 H 0.9590 0.5297 0.0119
H90 H 0.9752 0.5176 0.0917
O17 O 0.8856(8) 0.4708(6) 0.0372(9)
H91 H 0.916(5) 0.450(3) 0.015(7)
loop_
_geom_bond_atom_site_label_1
_geom_bond_atom_site_label_2
_geom_bond_site_symmetry_1
_geom_bond_site_symmetry_2
Ni1 N3 1_555 1_555
Ni2 N1 1_555 1_555
C1 H1 1_555 1_555
H2 C1 1_555 1_555
H3 C1 1_555 1_555
C2 C1 1_555 1_555
C3 C2 1_555 1_555
H4 C3 1_555 1_555
C4 C3 1_555 1_555
C5 C4 1_555 1_555
C6 C5 1_555 1_555
C7 C2 1_555 1_555
H5 C7 1_555 1_555
C8 C4 1_555 1_555
H6 C8 1_555 1_555
H7 C8 1_555 1_555
C9 C6 1_555 1_555
H8 C9 1_555 1_555
H9 C9 1_555 1_555
C10 H10 1_555 1_555
H11 C10 1_555 1_555
C11 C10 1_555 1_555
H12 C11 1_555 1_555
H13 C11 1_555 1_555
C12 C11 1_555 1_555
H14 C12 1_555 1_555
H15 C12 1_555 1_555
C13 H16 1_555 1_555
H17 C13 1_555 1_555
C14 C13 1_555 1_555
H18 C14 1_555 1_555
H19 C14 1_555 1_555
C15 C14 1_555 1_555
H20 C15 1_555 1_555
H21 C15 1_555 1_555
C16 H22 1_555 1_555
H23 C16 1_555 1_555
C17 H24 1_555 1_555
H25 C17 1_555 1_555
C18 C19 1_555 1_555
C19 C16 1_555 1_555
C20 C19 1_555 1_555
H26 C20 1_555 1_555
C21 C20 1_555 1_555
C22 C21 1_555 1_555
H27 C22 1_555 1_555
C23 C17 1_555 1_555
C24 C21 1_555 1_555
H28 C24 1_555 1_555
H29 C24 1_555 1_555
H30 C24 1_555 1_555
C25 C26 1_555 1_555
C26 H31 1_555 1_555
C27 C26 1_555 1_555
H32 C27 1_555 1_555
C28 C27 1_555 1_555
H33 C28 1_555 1_555
C29 C25 1_555 1_555
H34 C29 1_555 1_555
C30 C25 1_555 1_555
C31 C28 1_555 1_555
C32 C31 1_555 1_555
N1 C8 1_555 1_555
H35 N1 1_555 1_555
N2 Ni2 1_555 1_555
H36 N2 1_555 1_555
N3 C9 1_555 1_555
H37 N3 1_555 1_555
N4 Ni1 1_555 1_555
H38 N4 1_555 1_555
O1 Ni1 1_555 1_555
O2 Ni1 1_555 1_555
O3 Ni2 1_555 1_555
O4 Ni1 1_555 1_555
O5 C32 1_555 1_555
O6 C32 1_555 1_555
O7 Ni2 1_555 1_555
H39 O7 1_555 1_555
H40 O7 1_555 1_555
Ni3 N5 1_555 1_555
Ni4 N7 1_555 1_555
C33 H41 1_555 1_555
H42 C33 1_555 1_555
H43 C33 1_555 1_555
C34 C33 1_555 1_555
C35 C34 1_555 1_555
H44 C35 1_555 1_555
C36 C35 1_555 1_555
C37 C36 1_555 1_555
C38 C37 1_555 1_555
C39 C34 1_555 1_555
H45 C39 1_555 1_555
C40 C36 1_555 1_555
H46 C40 1_555 1_555
H47 C40 1_555 1_555
C41 C38 1_555 1_555
H48 C41 1_555 1_555
H49 C41 1_555 1_555
C42 H50 1_555 1_555
H51 C42 1_555 1_555
C43 C42 1_555 1_555
H52 C43 1_555 1_555
H53 C43 1_555 1_555
C44 C43 1_555 1_555
H54 C44 1_555 1_555
H55 C44 1_555 1_555
C45 H56 1_555 1_555
H57 C45 1_555 1_555
C46 C45 1_555 1_555
H58 C46 1_555 1_555
H59 C46 1_555 1_555
C47 C46 1_555 1_555
H60 C47 1_555 1_555
H61 C47 1_555 1_555
C48 H62 1_555 1_555
H63 C48 1_555 1_555
C49 H64 1_555 1_555
H65 C49 1_555 1_555
C50 C51 1_555 1_555
C51 C48 1_555 1_555
C52 C51 1_555 1_555
H66 C52 1_555 1_555
C53 C52 1_555 1_555
C54 C53 1_555 1_555
H67 C54 1_555 1_555
C55 C49 1_555 1_555
C56 C53 1_555 1_555
H68 C56 1_555 1_555
H69 C56 1_555 1_555
H70 C56 1_555 1_555
C57 C58 1_555 1_555
C58 C59 1_555 1_555
C59 H71 1_555 1_555
C60 C59 1_555 1_555
H72 C60 1_555 1_555
C61 C60 1_555 1_555
H73 C61 1_555 1_555
C62 C61 1_555 1_555
C63 C58 1_555 1_555
H74 C63 1_555 1_555
C64 C62 1_555 1_555
N5 C40 1_555 1_555
H75 N5 1_555 1_555
N6 Ni3 1_555 1_555
H76 N6 1_555 1_555
N7 C41 1_555 1_555
H77 N7 1_555 1_555
N8 Ni4 1_555 1_555
H78 N8 1_555 1_555
O8 Ni3 1_555 1_555
H79 O8 1_555 1_555
H80 O8 1_555 1_555
O9 Ni3 1_555 1_555
O10 Ni3 1_555 1_555
O11 Ni4 1_555 1_555
O12 Ni3 1_555 1_555
O13 C64 1_555 1_555
O14 C64 1_555 1_555
C65 H81 1_555 1_555
H82 C65 1_555 1_555
H83 C65 1_555 1_555
O15 C65 1_555 1_555
H84 O15 1_555 1_555
C66 H85 1_555 1_555
H86 C66 1_555 1_555
H87 C66 1_555 1_555
O16 C66 1_555 1_555
C67 H88 1_555 1_555
H89 C67 1_555 1_555
H90 C67 1_555 1_555
O17 C67 1_555 1_555
H91 O17 1_555 1_555
Ni1C O5 1_555 1_555
O5C Ni1 1_555 1_555
Ni4C O13 1_555 1_555
O13C Ni4 1_555 1_555
Ni2 O1 1_555 1_555
Ni2 O2 1_555 1_555
C5 O1 1_555 1_555
C6 C7 1_555 1_555
C10 N1 1_555 1_555
C12 N2 1_555 1_555
C13 N3 1_555 1_555
C15 N4 1_555 1_555
C16 N4 1_555 1_555
C17 N2 1_555 1_555
C18 C23 1_555 1_555
C18 O2 1_555 1_555
C22 C23 1_555 1_555
C29 C31 1_555 1_555
C30 O3 1_555 1_555
C30 O4 1_555 1_555
Ni4 O9 1_555 1_555
Ni4 O10 1_555 1_555
C37 O9 1_555 1_555
C38 C39 1_555 1_555
C42 N5 1_555 1_555
C44 N6 1_555 1_555
C45 N7 1_555 1_555
C47 N8 1_555 1_555
C48 N6 1_555 1_555
C49 N8 1_555 1_555
C50 C55 1_555 1_555
C50 O10 1_555 1_555
C54 C55 1_555 1_555
C57 O11 1_555 1_555
C57 O12 1_555 1_555
C62 C63 1_555 1_555

#END
