
#######################################################################
#
#                 Cambridge Crystallographic Data Centre
#                                CCDC 
#
#######################################################################
#
# If this CIF has been generated from an entry in the Cambridge 
# Structural Database, then it will include bibliographic, chemical, 
# crystal, experimental, refinement or atomic coordinate data resulting 
# from the CCDC's data processing and validation procedures.
#
#######################################################################

data_FUZJUG
_symmetry_cell_setting           triclinic
_symmetry_space_group_name_H-M   'P -1'
_symmetry_Int_Tables_number      2
_space_group_name_Hall           '-P 1'
loop_
_symmetry_equiv_pos_site_id
_symmetry_equiv_pos_as_xyz
1 x,y,z
2 -x,-y,-z
_cell_length_a                   9.597(2)
_cell_length_b                   10.825(2)
_cell_length_c                   11.445(3)
_cell_angle_alpha                63.137(3)
_cell_angle_beta                 70.425(4)
_cell_angle_gamma                77.851(3)
_cell_volume                     996.914
loop_
_atom_site_label
_atom_site_type_symbol
_atom_site_fract_x
_atom_site_fract_y
_atom_site_fract_z
O1 O 0.6400(2) 0.6752(2) 0.44771(19)
O2 O 0.83976(19) 0.6720(2) 0.2849(2)
C1 C 0.6994(3) 0.6730(2) 0.3338(3)
Mn1 Mn 0.89186(4) 0.67781(4) 0.45392(4)
O3 O 0.1318(2) 0.5339(2) 0.3942(2)
O4 O 0.1122(2) 0.7565(2) 0.3269(3)
N1 N 0.7977(2) 0.9067(2) 0.4042(2)
N2 N 0.9037(2) 0.7354(2) 0.6176(2)
C2 C 0.4424(2) 0.6603(2) 0.3278(2)
H1 H 0.4071 0.7396 0.3506
H2 H 0.4296 0.5769 0.4121
C3 C 0.3501(2) 0.6568(2) 0.2419(2)
C4 C 0.1890(3) 0.6478(3) 0.3256(3)
C5 C 0.6064(3) 0.6699(2) 0.2504(2)
C6 C 0.3713(3) 0.7901(3) 0.1092(3)
H3 H 0.3140 0.7895 0.0539
H4 H 0.3358 0.8704 0.1304
C7 C 0.5708(3) 0.5416(3) 0.1272(3)
H5 H 0.6065 0.4608 0.1052
C8 C 0.6257(3) 0.8039(2) 0.1158(3)
H6 H 0.5920 0.8847 0.1363
H7 H 0.7296 0.8107 0.0652
C9 C 0.8559(3) 0.8656(3) 0.6073(3)
C10 C 0.4071(3) 0.5307(3) 0.2069(3)
H8 H 0.3949 0.4460 0.2900
H9 H 0.3501 0.5273 0.1527
C11 C 0.5902(3) 0.6737(3) -0.0045(3)
H10 H 0.5341 0.6717 -0.0601
H11 H 0.6939 0.6795 -0.0558
C12 C 0.6615(3) 0.5453(3) 0.2127(3)
H12 H 0.7652 0.5521 0.1617
H13 H 0.6525 0.4601 0.2951
C13 C 0.7781(3) 0.9515(3) 0.5009(3)
C14 C 0.5356(3) 0.7999(3) 0.0296(3)
H14 H 0.5477 0.8848 -0.0550
C15 C 0.9575(4) 0.8306(4) 0.7844(3)
H15 H 0.9760 0.8626 0.8404
C16 C 0.7348(3) 0.9835(3) 0.3036(3)
H16 H 0.7508 0.9543 0.2348
C17 C 0.8826(3) 0.9162(3) 0.6892(3)
H17 H 0.8504 1.0066 0.6799
C18 C 1.0045(3) 0.6982(4) 0.7959(3)
H18 H 1.0545 0.6388 0.8602
C19 C 0.9763(3) 0.6544(3) 0.7109(3)
H19 H 1.0092 0.5646 0.7186
C20 C 0.6470(4) 1.1039(3) 0.2960(4)
H20 H 0.6054 1.1549 0.2237
C21 C 0.6891(4) 1.0710(3) 0.4996(4)
H21 H 0.6746 1.0998 0.5684
C22 C 0.6229(4) 1.1462(3) 0.3965(4)
H22 H 0.5619 1.2256 0.3954
Mn1_2 Mn -0.10814(4) 0.67781(4) 0.45392(4)
Mn1A Mn 0.10814(4) 0.32219(4) 0.54608(4)
O3_2 O 1.1318(2) 0.5339(2) 0.3942(2)
O3A O 0.8682(2) 0.4661(2) 0.6058(2)
O4_2 O 1.1122(2) 0.7565(2) 0.3269(3)
O5 O 0.0315(5) 0.8341(10) 0.0441(4)
H23 H -0.047(8) 0.811(14) 0.107(9)
H24 H 0.075(12) 0.886(12) 0.056(14)
loop_
_geom_bond_atom_site_label_1
_geom_bond_atom_site_label_2
_geom_bond_site_symmetry_1
_geom_bond_site_symmetry_2
O1 C1 1_555 1_555
O2 C1 1_555 1_555
C1 C5 1_555 1_555
Mn1 O1 1_555 1_555
O3 C4 1_555 1_555
O4 C4 1_555 1_555
N1 Mn1 1_555 1_555
N2 Mn1 1_555 1_555
C2 H1 1_555 1_555
H2 C2 1_555 1_555
C3 C2 1_555 1_555
C4 C3 1_555 1_555
C5 C2 1_555 1_555
C6 C3 1_555 1_555
H3 C6 1_555 1_555
H4 C6 1_555 1_555
C7 H5 1_555 1_555
C8 C5 1_555 1_555
H6 C8 1_555 1_555
H7 C8 1_555 1_555
C9 N2 1_555 1_555
C10 C3 1_555 1_555
H8 C10 1_555 1_555
H9 C10 1_555 1_555
C11 C7 1_555 1_555
H10 C11 1_555 1_555
H11 C11 1_555 1_555
C12 C5 1_555 1_555
H12 C12 1_555 1_555
H13 C12 1_555 1_555
C13 N1 1_555 1_555
C14 C6 1_555 1_555
H14 C14 1_555 1_555
C15 H15 1_555 1_555
C16 N1 1_555 1_555
H16 C16 1_555 1_555
C17 C9 1_555 1_555
H17 C17 1_555 1_555
C18 C15 1_555 1_555
H18 C18 1_555 1_555
C19 N2 1_555 1_555
H19 C19 1_555 1_555
C20 C16 1_555 1_555
H20 C20 1_555 1_555
C21 C13 1_555 1_555
H21 C21 1_555 1_555
C22 C20 1_555 1_555
H22 C22 1_555 1_555
O5 H23 1_555 1_555
H24 O5 1_555 1_555
Mn1_2 O3 1_555 1_555
Mn1A O3 1_555 1_555
O3_2 Mn1 1_555 1_555
O3A Mn1 1_555 1_555
O4_2 Mn1 1_555 1_555
O2 Mn1 1_555 1_555
O4 Mn1_2 1_555 1_555
C7 C10 1_555 1_555
C7 C12 1_555 1_555
C8 C14 1_555 1_555
C9 C13 1_555 1_555
C11 C14 1_555 1_555
C15 C17 1_555 1_555
C18 C19 1_555 1_555
C21 C22 1_555 1_555

#END
