
#######################################################################
#
#                 Cambridge Crystallographic Data Centre
#                                CCDC 
#
#######################################################################
#
# If this CIF has been generated from an entry in the Cambridge 
# Structural Database, then it will include bibliographic, chemical, 
# crystal, experimental, refinement or atomic coordinate data resulting 
# from the CCDC's data processing and validation procedures.
#
#######################################################################

data_FUZWIH
_symmetry_cell_setting           triclinic
_symmetry_space_group_name_H-M   'P -1'
_symmetry_Int_Tables_number      2
_space_group_name_Hall           '-P 1'
loop_
_symmetry_equiv_pos_site_id
_symmetry_equiv_pos_as_xyz
1 x,y,z
2 -x,-y,-z
_cell_length_a                   9.6662(12)
_cell_length_b                   10.1637(13)
_cell_length_c                   11.4612(15)
_cell_angle_alpha                74.3750(10)
_cell_angle_beta                 79.374(2)
_cell_angle_gamma                65.2970(10)
_cell_volume                     981.825
loop_
_atom_site_label
_atom_site_type_symbol
_atom_site_fract_x
_atom_site_fract_y
_atom_site_fract_z
Co1 Co 0.45474(4) 0.37015(4) 0.38567(3)
O1 O 0.5996(2) 0.32482(19) 0.51131(15)
O2 O 0.6310(2) 0.40225(18) 0.66516(15)
O3 O 0.4945(2) -0.14658(19) 0.62476(16)
O4 O 0.6550(2) -0.32753(18) 0.74885(16)
O5 O 0.7106(3) -0.0374(2) 1.02277(17)
N1 N 0.6371(2) 0.3719(2) 0.24323(19)
N2 N 1.2696(3) 0.3629(2) -0.47752(19)
C1 C 0.6328(3) 0.1604(3) 0.7057(2)
C2 C 0.6058(3) 0.0557(3) 0.6667(2)
H1 H 0.5794 0.0750 0.5880
C3 C 0.6187(3) -0.0786(3) 0.7467(2)
C4 C 0.6572(3) -0.1075(3) 0.8634(2)
H2 H 0.6681 -0.1984 0.9156
C5 C 0.6797(3) -0.0003(3) 0.9035(2)
C6 C 0.6694(3) 0.1322(3) 0.8245(2)
H3 H 0.6868 0.2027 0.8505
C7 C 0.6190(3) 0.3071(3) 0.6207(2)
C8 C 0.5869(3) -0.1909(3) 0.7049(2)
C9 C 0.7304(4) 0.0689(4) 1.0690(3)
H4 H 0.8210 0.0835 1.0294
H5 H 0.7400 0.0342 1.1549
H6 H 0.6435 0.1611 1.0541
C10 C 0.6024(3) 0.4688(3) 0.1372(2)
H7 H 0.5027 0.5387 0.1305
C11 C 0.7067(3) 0.4708(3) 0.0374(2)
H8 H 0.6763 0.5405 -0.0343
C12 C 0.8563(3) 0.3691(3) 0.0439(2)
C13 C 0.8926(3) 0.2688(3) 0.1537(3)
H9 H 0.9916 0.1981 0.1630
C14 C 0.7812(3) 0.2739(3) 0.2496(2)
H10 H 0.8084 0.2053 0.3224
C15 C 0.9712(4) 0.3723(4) -0.0650(3)
H11 H 1.0717 0.3018 -0.0414
H12 H 0.9744 0.4702 -0.0891
C16 C 0.9363(3) 0.3362(3) -0.1731(2)
H13 H 0.9377 0.2366 -0.1506
H14 H 0.8343 0.4042 -0.1952
C17 C 1.1924(4) 0.4730(4) -0.4218(3)
H15 H 1.2136 0.5580 -0.4482
C18 C 1.0821(5) 0.4708(4) -0.3270(3)
H16 H 1.0297 0.5540 -0.2933
C19 C 1.0491(3) 0.3466(3) -0.2817(2)
C20 C 1.1246(4) 0.2345(3) -0.3422(3)
H17 H 1.1022 0.1500 -0.3196
C21 C 1.2338(4) 0.2443(3) -0.4365(3)
H18 H 1.2853 0.1639 -0.4735
Co1A Co 0.54526(4) 0.62985(4) 0.61433(3)
Co1A_2 Co 0.54526(4) -0.37015(4) 0.61433(3)
Co1_2 Co 1.45474(4) 0.37015(4) -0.61433(3)
O2A O 0.3690(2) 0.59775(18) 0.33484(15)
O3A O 0.5055(2) 0.14658(19) 0.37524(16)
O4A O 0.3450(2) 0.32753(18) 0.25115(16)
N2_2 N 0.2696(3) 0.3629(2) 0.52248(19)
loop_
_geom_bond_atom_site_label_1
_geom_bond_atom_site_label_2
_geom_bond_site_symmetry_1
_geom_bond_site_symmetry_2
Co1 O1 1_555 1_555
O1 C7 1_555 1_555
O2 C7 1_555 1_555
O3 C8 1_555 1_555
O4 C8 1_555 1_555
O5 C5 1_555 1_555
N1 Co1 1_555 1_555
N2 C17 1_555 1_555
C1 C2 1_555 1_555
C2 H1 1_555 1_555
C3 C2 1_555 1_555
C4 C3 1_555 1_555
H2 C4 1_555 1_555
C5 C4 1_555 1_555
C6 C1 1_555 1_555
H3 C6 1_555 1_555
C7 C1 1_555 1_555
C8 C3 1_555 1_555
C9 O5 1_555 1_555
H4 C9 1_555 1_555
H5 C9 1_555 1_555
H6 C9 1_555 1_555
C10 N1 1_555 1_555
H7 C10 1_555 1_555
C11 C10 1_555 1_555
H8 C11 1_555 1_555
C12 C11 1_555 1_555
C13 C12 1_555 1_555
H9 C13 1_555 1_555
C14 N1 1_555 1_555
H10 C14 1_555 1_555
C15 C12 1_555 1_555
H11 C15 1_555 1_555
H12 C15 1_555 1_555
C16 C15 1_555 1_555
H13 C16 1_555 1_555
H14 C16 1_555 1_555
C17 H15 1_555 1_555
C18 C17 1_555 1_555
H16 C18 1_555 1_555
C19 C16 1_555 1_555
C20 C19 1_555 1_555
H17 C20 1_555 1_555
C21 N2 1_555 1_555
H18 C21 1_555 1_555
Co1A O2 1_555 1_555
Co1A_2 O3 1_555 1_555
Co1_2 N2 1_555 1_555
O2A Co1 1_555 1_555
O3A Co1 1_555 1_555
O4A Co1 1_555 1_555
N2_2 Co1 1_555 1_555
O4 Co1A_2 1_555 1_555
C5 C6 1_555 1_555
C13 C14 1_555 1_555
C18 C19 1_555 1_555
C20 C21 1_555 1_555

#END
