
#######################################################################
#
#                 Cambridge Crystallographic Data Centre
#                                CCDC 
#
#######################################################################
#
# If this CIF has been generated from an entry in the Cambridge 
# Structural Database, then it will include bibliographic, chemical, 
# crystal, experimental, refinement or atomic coordinate data resulting 
# from the CCDC's data processing and validation procedures.
#
#######################################################################

data_FUZWAZ
_symmetry_cell_setting           monoclinic
_symmetry_space_group_name_H-M   'P 21/n'
_symmetry_Int_Tables_number      14
_space_group_name_Hall           '-P 2yn'
loop_
_symmetry_equiv_pos_site_id
_symmetry_equiv_pos_as_xyz
1 x,y,z
2 1/2-x,1/2+y,1/2-z
3 -x,-y,-z
4 1/2+x,1/2-y,1/2+z
_cell_length_a                   15.8776(7)
_cell_length_b                   7.0127(3)
_cell_length_c                   16.4853(7)
_cell_angle_alpha                90
_cell_angle_beta                 92.569(4)
_cell_angle_gamma                90
_cell_volume                     1833.71
loop_
_atom_site_label
_atom_site_type_symbol
_atom_site_fract_x
_atom_site_fract_y
_atom_site_fract_z
Cu1 Cu 0.72952(2) 0.12719(5) 0.50296(2)
S1 S 0.70185(5) -0.36690(11) 0.54413(4)
S2 S 0.82583(5) -0.39035(12) 0.68983(4)
C1 C 0.8367(2) 0.1155(5) 0.27611(19)
O1 O 0.74898(14) -0.2016(3) 0.52017(12)
O2 O 0.72969(16) -0.5373(3) 0.50609(12)
O3 O 0.81512(14) 0.1325(3) 0.59492(11)
O4 O 0.63558(14) 0.1220(3) 0.57735(11)
O5 O 0.82048(16) -0.4641(4) 0.77123(13)
O6 O 0.85440(13) -0.1971(3) 0.68688(13)
O7 O 0.61093(13) -0.3381(3) 0.53515(13)
N1 N 0.65305(15) 0.1184(3) 0.40190(13)
N2 N 0.81851(15) 0.1254(4) 0.42154(14)
O8 O 0.87358(15) -0.5172(3) 0.63995(14)
C2 C 0.78655(19) 0.1191(4) 0.34401(17)
C3 C 0.69714(18) 0.1170(4) 0.33292(16)
C4 C 0.71922(18) -0.3946(5) 0.65081(16)
H1 H 0.6945 -0.5149 0.6663
H2 H 0.6888 -0.2941 0.6774
C5 C 0.7116(3) 0.1082(5) 0.18713(19)
H3 H 0.6872 0.1037 0.1348
C6 C 0.9562(2) 0.1258(5) 0.3692(2)
H4 H 1.0142 0.1275 0.3800
C7 C 0.9241(2) 0.1200(5) 0.2915(2)
H5 H 0.9601 0.1190 0.2486
C8 C 0.7963(3) 0.1104(5) 0.19750(19)
H6 H 0.8290 0.1084 0.1521
C9 C 0.6585(2) 0.1127(5) 0.25534(18)
C10 C 0.5266(2) 0.1144(5) 0.3187(2)
H7 H 0.4679 0.1139 0.3157
C11 C 0.5706(2) 0.1128(5) 0.2493(2)
H8 H 0.5423 0.1119 0.1987
C12 C 0.5697(2) 0.1167(5) 0.39361(19)
H9 H 0.5388 0.1171 0.4402
C13 C 0.9010(2) 0.1292(5) 0.43285(19)
H10 H 0.9237 0.1343 0.4858
H11 H 0.832(4) 0.236(4) 0.616(2)
H12 H 0.824(3) 0.033(4) 0.624(2)
H13 H 0.656(3) 0.085(7) 0.6231(14)
H14 H 0.594(2) 0.198(6) 0.578(3)
Cu1_2 Cu 0.72952(2) -0.87281(5) 0.50296(2)
O2_2 O 0.72969(16) 0.4627(3) 0.50609(12)
O9 O 0.50829(15) 0.3692(4) 0.59201(14)
H15 H 0.467(2) 0.366(7) 0.556(2)
H16 H 0.535(3) 0.477(4) 0.591(3)
O10 O 0.9305(2) -0.3551(6) 0.48029(19)
loop_
_geom_bond_atom_site_label_1
_geom_bond_atom_site_label_2
_geom_bond_site_symmetry_1
_geom_bond_site_symmetry_2
Cu1 O1 1_555 1_555
S1 O1 1_555 1_555
S2 O5 1_555 1_555
C1 C2 1_555 1_555
O2 S1 1_555 1_555
O3 Cu1 1_555 1_555
O4 Cu1 1_555 1_555
O6 S2 1_555 1_555
O7 S1 1_555 1_555
N1 Cu1 1_555 1_555
N2 Cu1 1_555 1_555
O8 S2 1_555 1_555
C2 N2 1_555 1_555
C3 N1 1_555 1_555
C4 S1 1_555 1_555
H1 C4 1_555 1_555
H2 C4 1_555 1_555
C5 H3 1_555 1_555
C6 H4 1_555 1_555
C7 C1 1_555 1_555
H5 C7 1_555 1_555
C8 C1 1_555 1_555
H6 C8 1_555 1_555
C9 C3 1_555 1_555
C10 H7 1_555 1_555
C11 C9 1_555 1_555
H8 C11 1_555 1_555
C12 N1 1_555 1_555
H9 C12 1_555 1_555
C13 N2 1_555 1_555
H10 C13 1_555 1_555
H11 O3 1_555 1_555
H12 O3 1_555 1_555
H13 O4 1_555 1_555
H14 O4 1_555 1_555
O9 H15 1_555 1_555
H16 O9 1_555 1_555
Cu1_2 O2 1_555 1_555
O2_2 Cu1 1_555 1_555
S2 C4 1_555 1_555
C2 C3 1_555 1_555
C5 C8 1_555 1_555
C5 C9 1_555 1_555
C6 C7 1_555 1_555
C6 C13 1_555 1_555
C10 C11 1_555 1_555
C10 C12 1_555 1_555

#END
