
#######################################################################
#
#                 Cambridge Crystallographic Data Centre
#                                CCDC 
#
#######################################################################
#
# If this CIF has been generated from an entry in the Cambridge 
# Structural Database, then it will include bibliographic, chemical, 
# crystal, experimental, refinement or atomic coordinate data resulting 
# from the CCDC's data processing and validation procedures.
#
#######################################################################

data_FUZWED
_symmetry_cell_setting           monoclinic
_symmetry_space_group_name_H-M   'C 2/c'
_symmetry_Int_Tables_number      15
_space_group_name_Hall           '-C 2yn'
loop_
_symmetry_equiv_pos_site_id
_symmetry_equiv_pos_as_xyz
1 x,y,z
2 -x,y,1/2-z
3 1/2+x,1/2+y,z
4 1/2-x,1/2+y,1/2-z
5 -x,-y,-z
6 x,-y,1/2+z
7 1/2-x,1/2-y,-z
8 1/2+x,1/2-y,1/2+z
_cell_length_a                   18.263(4)
_cell_length_b                   8.0749(17)
_cell_length_c                   18.715(4)
_cell_angle_alpha                90
_cell_angle_beta                 117.910(2)
_cell_angle_gamma                90
_cell_volume                     2438.91
loop_
_atom_site_label
_atom_site_type_symbol
_atom_site_fract_x
_atom_site_fract_y
_atom_site_fract_z
Zn1 Zn 0.23681(2) 0.26838(4) 0.28595(2)
O1 O 0.29931(16) 0.2564(3) 0.22267(15)
O2 O 0.23942(15) 0.0095(3) 0.18420(16)
O3 O 0.18034(16) -0.1263(4) -0.10589(16)
O4 O 0.29427(14) -0.1272(3) -0.12080(15)
O5 O 0.47717(17) 0.3037(3) 0.08728(17)
N1 N 0.11567(17) 0.2576(3) 0.21249(18)
N2 N -0.00981(18) 0.1574(4) 0.15555(17)
H1 H -0.0498 0.0870 0.1381
C1 C 0.31232(19) 0.1220(4) 0.11681(19)
C2 C 0.2701(2) 0.0254(4) 0.0473(2)
H2 H 0.2242 -0.0366 0.0400
C3 C 0.2974(2) 0.0229(4) -0.0106(2)
C4 C 0.3672(2) 0.1142(4) 0.0006(2)
H3 H 0.3861 0.1103 -0.0377
C5 C 0.4079(2) 0.2109(4) 0.0698(2)
C6 C 0.3801(2) 0.2160(4) 0.1270(2)
H4 H 0.4071 0.2826 0.1726
C7 C 0.2822(2) 0.1282(4) 0.1785(2)
C8 C 0.2519(2) -0.0836(4) -0.0847(2)
C9 C 0.5148(3) 0.2863(5) 0.0362(3)
H5 H 0.5289 0.1722 0.0348
H6 H 0.5641 0.3526 0.0568
H7 H 0.4769 0.3222 -0.0174
C10 C 0.0600(2) 0.3854(4) 0.1828(2)
H8 H 0.0738 0.4970 0.1861
C11 C -0.0178(2) 0.3249(5) 0.1480(2)
H9 H -0.0668 0.3852 0.1238
C12 C 0.0707(2) 0.1215(4) 0.1946(2)
H10 H 0.0923 0.0149 0.2075
Zn1C Zn 0.26319(2) -0.23162(4) 0.21405(2)
Zn1E Zn 0.23681(2) -0.26838(4) -0.21405(2)
O2C O 0.26058(15) 0.5095(3) 0.31580(16)
O4E O 0.29427(14) 0.1272(3) 0.37920(15)
loop_
_geom_bond_atom_site_label_1
_geom_bond_atom_site_label_2
_geom_bond_site_symmetry_1
_geom_bond_site_symmetry_2
Zn1 O1 1_555 1_555
O1 C7 1_555 1_555
O2 C7 1_555 1_555
O3 C8 1_555 1_555
O4 C8 1_555 1_555
O5 C5 1_555 1_555
N1 Zn1 1_555 1_555
N2 H1 1_555 1_555
C1 C2 1_555 1_555
C2 H2 1_555 1_555
C3 C2 1_555 1_555
C4 C3 1_555 1_555
H3 C4 1_555 1_555
C5 C4 1_555 1_555
C6 C1 1_555 1_555
H4 C6 1_555 1_555
C7 C1 1_555 1_555
C8 C3 1_555 1_555
C9 O5 1_555 1_555
H5 C9 1_555 1_555
H6 C9 1_555 1_555
H7 C9 1_555 1_555
C10 N1 1_555 1_555
H8 C10 1_555 1_555
C11 N2 1_555 1_555
H9 C11 1_555 1_555
C12 N1 1_555 1_555
H10 C12 1_555 1_555
Zn1C O2 1_555 1_555
Zn1E O4 1_555 1_555
O2C Zn1 1_555 1_555
O4E Zn1 1_555 1_555
N2 C12 1_555 1_555
C5 C6 1_555 1_555
C10 C11 1_555 1_555

#END
