
#######################################################################
#
#                 Cambridge Crystallographic Data Centre
#                                CCDC 
#
#######################################################################
#
# If this CIF has been generated from an entry in the Cambridge 
# Structural Database, then it will include bibliographic, chemical, 
# crystal, experimental, refinement or atomic coordinate data resulting 
# from the CCDC's data processing and validation procedures.
#
#######################################################################

data_FUZXAA
_symmetry_cell_setting           triclinic
_symmetry_space_group_name_H-M   'P -1'
_symmetry_Int_Tables_number      2
_space_group_name_Hall           '-P 1'
loop_
_symmetry_equiv_pos_site_id
_symmetry_equiv_pos_as_xyz
1 x,y,z
2 -x,-y,-z
_cell_length_a                   8.811(5)
_cell_length_b                   8.822(5)
_cell_length_c                   10.366(5)
_cell_angle_alpha                82.822(5)
_cell_angle_beta                 65.822(5)
_cell_angle_gamma                60.286(5)
_cell_volume                     635.312
loop_
_atom_site_label
_atom_site_type_symbol
_atom_site_fract_x
_atom_site_fract_y
_atom_site_fract_z
Cu1 Cu 0.0000 0.5000 0.5000
C1 C -0.2778(3) 0.8825(3) 0.5964(3)
H1 H -0.1814 0.9115 0.5678
C2 C -0.4275(4) 0.7357(4) 0.6428(3)
H2 H -0.4520 0.6429 0.6516
C3 C -0.5609(4) 0.9064(4) 0.6799(3)
H3 H -0.6926 0.9526 0.7183
C4 C -0.5496(4) 1.1892(4) 0.6770(3)
H4 H -0.6689 1.2487 0.6648
H5 H -0.4638 1.2270 0.6082
C5 C -0.5866(4) 1.2398(4) 0.8247(3)
H6 H -0.6488 1.3663 0.8422
H7 H -0.6682 1.1988 0.8948
C6 C -0.4115(4) 1.1905(4) 0.9649(3)
H8 H -0.4638 1.1266 1.0353
H9 H -0.4905 1.3145 0.9976
C7 C -0.2092(4) 1.1279(4) 0.9427(3)
H10 H -0.2022 1.1214 1.0344
H11 H -0.1278 1.0110 0.8931
C8 C -0.1092(4) 1.2747(3) 0.7234(3)
H12 H -0.1220 1.2164 0.6629
C9 C -0.0575(4) 1.4484(4) 0.8072(3)
H13 H -0.0279 1.5339 0.8139
C10 C -0.1052(4) 1.3541(4) 0.9129(3)
H14 H -0.1136 1.3617 1.0045
N1 N -0.2488(3) 0.7210(3) 0.5897(2)
N2 N -0.4651(3) 0.9987(3) 0.6502(2)
N3 N -0.1388(3) 1.2453(3) 0.8602(2)
N4 N -0.0596(3) 1.3980(3) 0.6872(2)
N5 N 0.1536(3) 0.7243(3) 0.6410(2)
O1 O 0.1866(3) 0.6015(3) 0.5689(3)
O2 O 0.1140(4) 0.8682(3) 0.5946(3)
O3 O 0.1596(4) 0.7046(4) 0.7584(3)
O4 O -0.4065(3) 1.1599(3) 0.8327(2)
Cu1_2 Cu 0.0000 -0.5000 0.5000
Cu1_3 Cu 0.0000 1.5000 0.5000
C1A C 0.2778(3) 0.1175(3) 0.4036(3)
H1A H 0.1814 0.0885 0.4322
C2A C 0.4275(4) 0.2643(4) 0.3572(3)
H2A H 0.4520 0.3571 0.3484
C3A C 0.5609(4) 0.0936(4) 0.3201(3)
H3A H 0.6926 0.0474 0.2817
C4A C 0.5496(4) -0.1892(4) 0.3230(3)
H4A H 0.6689 -0.2487 0.3352
H5A H 0.4638 -0.2270 0.3918
C5A C 0.5866(4) -0.2398(4) 0.1753(3)
H6A H 0.6488 -0.3663 0.1578
H7A H 0.6682 -0.1988 0.1052
C6A C 0.4115(4) -0.1905(4) 0.0351(3)
H8A H 0.4638 -0.1266 -0.0353
H9A H 0.4905 -0.3145 0.0024
C7A C 0.2092(4) -0.1279(4) 0.0573(3)
H10A H 0.2022 -0.1214 -0.0344
H11A H 0.1278 -0.0110 0.1069
C8A C 0.1092(4) -0.2747(3) 0.2766(3)
H12A H 0.1220 -0.2164 0.3371
C9A C 0.0575(4) -0.4484(4) 0.1928(3)
H13A H 0.0279 -0.5339 0.1861
C10A C 0.1052(4) -0.3541(4) 0.0871(3)
H14A H 0.1136 -0.3617 -0.0045
N1A N 0.2488(3) 0.2790(3) 0.4103(2)
N2A N 0.4651(3) 0.0013(3) 0.3498(2)
N3A N 0.1388(3) -0.2453(3) 0.1398(2)
N4A N 0.0596(3) -0.3980(3) 0.3128(2)
N4_2 N -0.0596(3) 0.3980(3) 0.6872(2)
N4A_2 N 0.0596(3) 0.6020(3) 0.3128(2)
N5A N -0.1536(3) 0.2757(3) 0.3590(2)
O1A O -0.1866(3) 0.3985(3) 0.4311(3)
O2A O -0.1140(4) 0.1318(3) 0.4054(3)
O3A O -0.1596(4) 0.2954(4) 0.2416(3)
O4A O 0.4065(3) -0.1599(3) 0.1673(2)
loop_
_geom_bond_atom_site_label_1
_geom_bond_atom_site_label_2
_geom_bond_site_symmetry_1
_geom_bond_site_symmetry_2
Cu1 N1 1_555 1_555
C1 H1 1_555 1_555
C2 H2 1_555 1_555
C3 C2 1_555 1_555
H3 C3 1_555 1_555
C4 H4 1_555 1_555
H5 C4 1_555 1_555
C5 C4 1_555 1_555
H6 C5 1_555 1_555
H7 C5 1_555 1_555
C6 H8 1_555 1_555
H9 C6 1_555 1_555
C7 C6 1_555 1_555
H10 C7 1_555 1_555
H11 C7 1_555 1_555
C8 H12 1_555 1_555
C9 H13 1_555 1_555
C10 C9 1_555 1_555
H14 C10 1_555 1_555
N1 C1 1_555 1_555
N2 C1 1_555 1_555
N3 C7 1_555 1_555
N4 C8 1_555 1_555
N5 O1 1_555 1_555
O1 Cu1 1_555 1_555
O2 N5 1_555 1_555
O3 N5 1_555 1_555
O4 C5 1_555 1_555
Cu1_2 N4A 1_555 1_555
Cu1_3 N4 1_555 1_555
C1A H1A 1_555 1_555
C2A H2A 1_555 1_555
C3A C2A 1_555 1_555
H3A C3A 1_555 1_555
C4A H4A 1_555 1_555
H5A C4A 1_555 1_555
C5A C4A 1_555 1_555
H6A C5A 1_555 1_555
H7A C5A 1_555 1_555
C6A H8A 1_555 1_555
H9A C6A 1_555 1_555
C7A C6A 1_555 1_555
H10A C7A 1_555 1_555
H11A C7A 1_555 1_555
C8A H12A 1_555 1_555
C9A H13A 1_555 1_555
C10A C9A 1_555 1_555
H14A C10A 1_555 1_555
N1A Cu1 1_555 1_555
N2A C1A 1_555 1_555
N3A C7A 1_555 1_555
N4A C8A 1_555 1_555
N4_2 Cu1 1_555 1_555
N4A_2 Cu1 1_555 1_555
N5A O1A 1_555 1_555
O1A Cu1 1_555 1_555
O2A N5A 1_555 1_555
O3A N5A 1_555 1_555
O4A C5A 1_555 1_555
C2 N1 1_555 1_555
C3 N2 1_555 1_555
C4 N2 1_555 1_555
C6 O4 1_555 1_555
C8 N3 1_555 1_555
C9 N4 1_555 1_555
C10 N3 1_555 1_555
C1A N1A 1_555 1_555
C2A N1A 1_555 1_555
C3A N2A 1_555 1_555
C4A N2A 1_555 1_555
C6A O4A 1_555 1_555
C8A N3A 1_555 1_555
C9A N4A 1_555 1_555
C10A N3A 1_555 1_555

#END
