
#######################################################################
#
#                 Cambridge Crystallographic Data Centre
#                                CCDC 
#
#######################################################################
#
# If this CIF has been generated from an entry in the Cambridge 
# Structural Database, then it will include bibliographic, chemical, 
# crystal, experimental, refinement or atomic coordinate data resulting 
# from the CCDC's data processing and validation procedures.
#
#######################################################################

data_FUZYOP
_symmetry_cell_setting           monoclinic
_symmetry_space_group_name_H-M   'P 21/c'
_symmetry_Int_Tables_number      14
_space_group_name_Hall           '-P 2ybc'
loop_
_symmetry_equiv_pos_site_id
_symmetry_equiv_pos_as_xyz
1 x,y,z
2 -x,1/2+y,1/2-z
3 -x,-y,-z
4 x,1/2-y,1/2+z
_cell_length_a                   7.4328(17)
_cell_length_b                   14.317(3)
_cell_length_c                   9.856(2)
_cell_angle_alpha                90
_cell_angle_beta                 107.548(3)
_cell_angle_gamma                90
_cell_volume                     1000.02
loop_
_atom_site_label
_atom_site_type_symbol
_atom_site_fract_x
_atom_site_fract_y
_atom_site_fract_z
Zn1 Zn -0.09942(7) 0.18279(4) 0.70878(5)
O1 O 0.0931(4) 0.0731(2) 0.7845(3)
C1 C 0.0942(6) 0.2018(3) 1.0305(5)
O2 O 0.2090(5) -0.0264(2) 0.9638(3)
C2 C 0.1778(6) 0.0546(3) 0.9166(5)
O3 O -0.0289(4) 0.2264(2) 0.9180(3)
C3 C 0.2532(6) 0.1375(3) 1.0160(5)
C4 C 0.4107(6) 0.1158(3) 1.1567(5)
H1 H 0.3700 0.1209 1.2412
H2 H 0.4755 0.0572 1.1554
O4 O 0.0967(4) 0.2285(2) 1.1525(3)
O5 O -0.3077(5) 0.1024(2) 0.7600(4)
H3 H -0.4242 0.0924 0.7191
H4 H -0.2635 0.0531 0.8067
C5 C 0.5166(6) 0.2009(3) 1.1291(5)
H5 H 0.4807 0.2558 1.1743
O6 O -0.2248(5) 0.1401(2) 0.5042(4)
H6 H -0.2584 0.0873 0.4654
H7 H -0.1656 0.1581 0.4474
C6 C 0.4031(6) 0.1986(3) 0.9721(5)
H8 H 0.4654 0.1663 0.9123
H9 H 0.3564 0.2592 0.9328
O7 O 0.7201(4) 0.1947(2) 1.1676(3)
H10 H 0.7332 0.1445 1.1256
Zn1C Zn -0.09942(7) 0.31721(4) 1.20878(5)
Zn1C_2 Zn 0.90058(7) 0.31721(4) 1.20878(5)
O4C O 0.0967(4) 0.2715(2) 0.6525(3)
O7C O -0.2799(4) 0.3053(2) 0.6676(3)
O8 O 0.3329(5) 0.0430(3) 0.6072(4)
H11 H 0.2641 0.0514 0.6612
H12 H 0.2903 0.0777 0.5345
O9 O 0.9021(5) 0.9166(2) 0.6433(4)
H13 H 0.9600 0.9607 0.6965
H14 H 0.9312 0.8724 0.7039
loop_
_geom_bond_atom_site_label_1
_geom_bond_atom_site_label_2
_geom_bond_site_symmetry_1
_geom_bond_site_symmetry_2
Zn1 O1 1_555 1_555
O1 C2 1_555 1_555
C1 O3 1_555 1_555
O2 C2 1_555 1_555
C2 C3 1_555 1_555
O3 Zn1 1_555 1_555
C3 C1 1_555 1_555
C4 C3 1_555 1_555
H1 C4 1_555 1_555
H2 C4 1_555 1_555
O4 C1 1_555 1_555
O5 Zn1 1_555 1_555
H3 O5 1_555 1_555
H4 O5 1_555 1_555
C5 C4 1_555 1_555
H5 C5 1_555 1_555
O6 Zn1 1_555 1_555
H6 O6 1_555 1_555
H7 O6 1_555 1_555
C6 C3 1_555 1_555
H8 C6 1_555 1_555
H9 C6 1_555 1_555
O7 C5 1_555 1_555
H10 O7 1_555 1_555
O8 H11 1_555 1_555
H12 O8 1_555 1_555
O9 H13 1_555 1_555
H14 O9 1_555 1_555
Zn1C O4 1_555 1_555
Zn1C_2 O7 1_555 1_555
O4C Zn1 1_555 1_555
O7C Zn1 1_555 1_555
C5 C6 1_555 1_555

#END
