
#######################################################################
#
#                 Cambridge Crystallographic Data Centre
#                                CCDC 
#
#######################################################################
#
# If this CIF has been generated from an entry in the Cambridge 
# Structural Database, then it will include bibliographic, chemical, 
# crystal, experimental, refinement or atomic coordinate data resulting 
# from the CCDC's data processing and validation procedures.
#
#######################################################################

data_GABCUI
_symmetry_cell_setting           triclinic
_symmetry_space_group_name_H-M   'P -1'
_symmetry_Int_Tables_number      2
_space_group_name_Hall           '-P 1'
loop_
_symmetry_equiv_pos_site_id
_symmetry_equiv_pos_as_xyz
1 x,y,z
2 -x,-y,-z
_cell_length_a                   8.758(4)
_cell_length_b                   7.7120(10)
_cell_length_c                   7.5400(10)
_cell_angle_alpha                67.830(10)
_cell_angle_beta                 69.03(3)
_cell_angle_gamma                65.29(3)
_cell_volume                     416.131
loop_
_atom_site_label
_atom_site_type_symbol
_atom_site_fract_x
_atom_site_fract_y
_atom_site_fract_z
Ag1 Ag 0.88167(3) 0.75352(3) 0.57955(3)
S1 S 0.82283(8) 0.70851(9) 0.94588(10)
C1 C 0.8215(4) 0.4588(4) 1.0766(5)
C2 C 1.0147(4) 0.6990(4) 0.9943(5)
S2 S 0.67661(8) 1.07792(9) 0.43828(11)
C3 C 0.4900(4) 1.1117(4) 0.6458(5)
C4 C 0.5835(4) 1.0573(4) 0.2701(4)
N1 N 1.2394(3) 0.6564(4) 0.3099(4)
O1 O 1.1571(3) 0.5481(3) 0.4476(4)
O2 O 1.1670(4) 0.8380(4) 0.2722(5)
O3 O 1.3855(4) 0.5797(5) 0.2192(5)
H1 H 0.716(5) 0.456(5) 1.065(5)
H2 H 0.802(5) 0.448(5) 1.220(6)
H3 H 1.037(7) 0.782(7) 0.954(8)
H4 H 0.983(6) 0.661(6) 1.147(7)
H5 H 0.520(7) 1.148(7) 0.729(8)
H6 H 0.404(5) 1.250(5) 0.592(5)
H7 H 0.681(6) 1.038(6) 0.152(7)
H8 H 0.485(5) 1.191(6) 0.234(6)
C2A C 0.9853(4) 0.3010(4) 1.0057(5)
S1A S 1.17717(8) 0.29149(9) 1.05412(10)
C1A C 1.1785(4) 0.5412(4) 0.9234(5)
H1A H 1.284(5) 0.544(5) 0.935(5)
H2A H 1.198(5) 0.552(5) 0.780(6)
H3A H 0.963(7) 0.218(7) 1.046(8)
H4A H 1.017(6) 0.339(6) 0.853(7)
C4A C 0.4165(4) 0.9427(4) 0.7299(4)
S2A S 0.32339(8) 0.92208(9) 0.56172(11)
C3A C 0.5100(4) 0.8883(4) 0.3542(5)
H5A H 0.480(7) 0.852(7) 0.271(8)
H6A H 0.596(5) 0.750(5) 0.408(5)
H7A H 0.319(6) 0.962(6) 0.848(7)
H8A H 0.515(5) 0.809(6) 0.766(6)
N1A N 0.7606(3) 0.3436(4) 0.6901(4)
O1A O 0.8429(3) 0.4519(3) 0.5524(4)
O2A O 0.8330(4) 0.1620(4) 0.7278(5)
O3A O 0.6145(4) 0.4203(5) 0.7808(5)
Ag1A Ag 1.11833(3) 0.24648(3) 1.42045(3)
Ag1A_2 Ag 1.11833(3) 0.24648(3) 0.42045(3)
Ag1A_3 Ag 0.11833(3) 1.24648(3) 0.42045(3)
S2A_2 S 1.32339(8) -0.07792(9) 1.56172(11)
O1_2 O 1.1571(3) 0.5481(3) 1.4476(4)
O1A_2 O 0.8429(3) 0.4519(3) 1.5524(4)
loop_
_geom_bond_atom_site_label_1
_geom_bond_atom_site_label_2
_geom_bond_site_symmetry_1
_geom_bond_site_symmetry_2
Ag1 S1 1_555 1_555
S1 C1 1_555 1_555
C1 H1 1_555 1_555
C2 S1 1_555 1_555
S2 Ag1 1_555 1_555
C3 S2 1_555 1_555
C4 S2 1_555 1_555
N1 O1 1_555 1_555
O1 Ag1 1_555 1_555
O2 N1 1_555 1_555
O3 N1 1_555 1_555
H2 C1 1_555 1_555
H3 C2 1_555 1_555
H4 C2 1_555 1_555
H5 C3 1_555 1_555
H6 C3 1_555 1_555
H7 C4 1_555 1_555
H8 C4 1_555 1_555
C2A C1 1_555 1_555
S1A C2A 1_555 1_555
C1A C2 1_555 1_555
H1A C1A 1_555 1_555
H2A C1A 1_555 1_555
H3A C2A 1_555 1_555
H4A C2A 1_555 1_555
C4A C3 1_555 1_555
S2A C4A 1_555 1_555
C3A C4 1_555 1_555
H5A C3A 1_555 1_555
H6A C3A 1_555 1_555
H7A C4A 1_555 1_555
H8A C4A 1_555 1_555
N1A O1A 1_555 1_555
O1A Ag1 1_555 1_555
O2A N1A 1_555 1_555
O3A N1A 1_555 1_555
Ag1A S1A 1_555 1_555
Ag1A_2 O1 1_555 1_555
Ag1A_3 S2A 1_555 1_555
S2A_2 Ag1A 1_555 1_555
O1_2 Ag1A 1_555 1_555
O1A_2 Ag1A 1_555 1_555
S1A C1A 1_555 1_555
S2A C3A 1_555 1_555
O1A Ag1A_2 1_555 1_555

#END
