
#######################################################################
#
#                 Cambridge Crystallographic Data Centre
#                                CCDC 
#
#######################################################################
#
# If this CIF has been generated from an entry in the Cambridge 
# Structural Database, then it will include bibliographic, chemical, 
# crystal, experimental, refinement or atomic coordinate data resulting 
# from the CCDC's data processing and validation procedures.
#
#######################################################################

data_GABDIX
_symmetry_cell_setting           monoclinic
_symmetry_space_group_name_H-M   'P 21/n'
_symmetry_Int_Tables_number      14
_space_group_name_Hall           '-P 2yn'
loop_
_symmetry_equiv_pos_site_id
_symmetry_equiv_pos_as_xyz
1 x,y,z
2 1/2+x,1/2-y,1/2+z
3 -x,-y,-z
4 1/2-x,1/2+y,1/2-z
_cell_length_a                   8.6390(17)
_cell_length_b                   15.614(3)
_cell_length_c                   11.326(2)
_cell_angle_alpha                90
_cell_angle_beta                 94.67(3)
_cell_angle_gamma                90
_cell_volume                     1522.68
loop_
_atom_site_label
_atom_site_type_symbol
_atom_site_fract_x
_atom_site_fract_y
_atom_site_fract_z
Cu1 Cu -0.00288(4) 0.89580(2) 0.77466(3)
Cl1 Cl -0.04925(13) 0.75556(5) 0.75006(8)
N1 N 0.1154(3) 0.90513(14) 0.62950(19)
N2 N 0.0131(2) 1.02522(15) 0.76654(18)
C1 C 0.1683(4) 0.8435(2) 0.5639(2)
H1 H 0.1417 0.7872 0.5798
C2 C 0.2627(4) 0.8592(2) 0.4715(3)
H2 H 0.2984 0.8139 0.4278
C3 C 0.3013(3) 0.9405(2) 0.4463(2)
H3 H 0.3631 0.9515 0.3845
C4 C 0.2482(3) 1.00881(19) 0.5135(2)
C5 C 0.2829(4) 1.0969(2) 0.4956(3)
H4 H 0.3425 1.1125 0.4343
C6 C 0.2302(4) 1.1583(2) 0.5666(3)
H5 H 0.2559 1.2152 0.5536
C7 C 0.1360(3) 1.13811(19) 0.6610(2)
C8 C 0.0756(4) 1.1978(2) 0.7374(3)
H6 H 0.0964 1.2558 0.7288
C9 C -0.0141(4) 1.1709(2) 0.8248(3)
H7 H -0.0558 1.2104 0.8749
C10 C -0.0419(4) 1.0839(2) 0.8373(2)
H8 H -0.1013 1.0660 0.8975
C11 C 0.0998(3) 1.05196(17) 0.6793(2)
C12 C 0.1549(3) 0.98694(17) 0.6053(2)
O1 O -0.1264(2) 0.89764(12) 0.91310(17)
O2 O -0.3298(2) 0.93365(18) 0.79339(18)
C13 C -0.2700(3) 0.90893(17) 0.8925(2)
C14 C -0.3664(3) 0.89052(16) 0.9926(2)
H9 H -0.3109 0.8781 1.0644
C15 C -0.5208(3) 0.88917(17) 0.9947(2)
H10 H -0.5558 0.8753 1.0678
C16 C -0.6457(3) 0.90617(16) 0.8994(2)
O3 O -0.7802(2) 0.89342(14) 0.9189(2)
O4 O -0.6091(2) 0.93458(16) 0.79768(18)
H11 H -0.467(6) 0.940(3) 0.789(4)
O3_2 O 0.2198(2) 0.89342(14) 0.9189(2)
Cu1_2 Cu -1.00288(4) 0.89580(2) 0.77466(3)
loop_
_geom_bond_atom_site_label_1
_geom_bond_atom_site_label_2
_geom_bond_site_symmetry_1
_geom_bond_site_symmetry_2
Cu1 Cl1 1_555 1_555
N1 Cu1 1_555 1_555
N2 Cu1 1_555 1_555
C1 N1 1_555 1_555
H1 C1 1_555 1_555
C2 C1 1_555 1_555
H2 C2 1_555 1_555
C3 C2 1_555 1_555
H3 C3 1_555 1_555
C4 C3 1_555 1_555
C5 C4 1_555 1_555
H4 C5 1_555 1_555
C6 C5 1_555 1_555
H5 C6 1_555 1_555
C7 C6 1_555 1_555
C8 C7 1_555 1_555
H6 C8 1_555 1_555
C9 C8 1_555 1_555
H7 C9 1_555 1_555
C10 N2 1_555 1_555
H8 C10 1_555 1_555
C11 N2 1_555 1_555
C12 N1 1_555 1_555
O1 Cu1 1_555 1_555
O2 C13 1_555 1_555
C13 O1 1_555 1_555
C14 C13 1_555 1_555
H9 C14 1_555 1_555
C15 C14 1_555 1_555
H10 C15 1_555 1_555
C16 C15 1_555 1_555
O3 C16 1_555 1_555
O4 C16 1_555 1_555
H11 O2 1_555 1_555
O3_2 Cu1 1_555 1_555
Cu1_2 O3 1_555 1_555
C4 C12 1_555 1_555
C7 C11 1_555 1_555
C9 C10 1_555 1_555
C11 C12 1_555 1_555

#END
