
#######################################################################
#
#                 Cambridge Crystallographic Data Centre
#                                CCDC 
#
#######################################################################
#
# If this CIF has been generated from an entry in the Cambridge 
# Structural Database, then it will include bibliographic, chemical, 
# crystal, experimental, refinement or atomic coordinate data resulting 
# from the CCDC's data processing and validation procedures.
#
#######################################################################

data_GABDOD
_symmetry_cell_setting           monoclinic
_symmetry_space_group_name_H-M   'P 21/n'
_symmetry_Int_Tables_number      14
_space_group_name_Hall           '-P 2yn'
loop_
_symmetry_equiv_pos_site_id
_symmetry_equiv_pos_as_xyz
1 x,y,z
2 1/2+x,1/2-y,1/2+z
3 -x,-y,-z
4 1/2-x,1/2+y,1/2-z
_cell_length_a                   8.5440(10)
_cell_length_b                   15.517(2)
_cell_length_c                   12.1600(10)
_cell_angle_alpha                90
_cell_angle_beta                 90.840(8)
_cell_angle_gamma                90
_cell_volume                     1611.97
loop_
_atom_site_label
_atom_site_type_symbol
_atom_site_fract_x
_atom_site_fract_y
_atom_site_fract_z
Cu1 Cu 0.06377(5) -0.38905(3) -0.30007(3)
N1 N 0.1772(3) -0.39908(19) -0.1543(2)
N2 N 0.0283(3) -0.51498(19) -0.2750(2)
N3 N 0.0254(4) -0.2158(2) -0.2595(3)
C1 C 0.2578(5) -0.3400(3) -0.0981(3)
C2 C 0.3305(6) -0.3588(3) 0.0025(4)
C3 C 0.3185(5) -0.4385(3) 0.0468(3)
C4 C 0.2373(4) -0.5031(3) -0.0093(3)
C5 C 0.2169(6) -0.5897(3) 0.0275(3)
C6 C 0.1418(6) -0.6479(3) -0.0335(3)
C7 C 0.0741(5) -0.6273(2) -0.1391(3)
C8 C -0.0035(6) -0.6850(3) -0.2096(4)
C9 C -0.0609(5) -0.6584(3) -0.3089(4)
C10 C -0.0430(4) -0.5721(3) -0.3393(3)
C11 C 0.0877(4) -0.5422(2) -0.1762(3)
C12 C 0.1685(4) -0.4797(2) -0.1116(3)
C13 C 0.7659(4) -0.3932(2) -0.3991(3)
C14 C 0.6550(4) -0.3871(2) -0.4943(3)
C15 C 0.4991(4) -0.3944(2) -0.4982(3)
C16 C 0.3851(4) -0.4090(2) -0.4089(3)
O1 O 0.9074(3) -0.37998(16) -0.42023(18)
O2 O 0.7187(3) -0.4118(2) -0.30515(19)
O3 O 0.2463(3) -0.40692(18) -0.4312(2)
O4 O 0.4361(3) -0.42416(19) -0.3092(2)
O5 O 0.1160(3) -0.26608(17) -0.3149(2)
O6 O -0.0818(4) -0.2494(2) -0.2082(3)
O7 O 0.0520(4) -0.13831(19) -0.2608(2)
H1 H 0.576(7) -0.414(4) -0.304(4)
H2 H 0.262(4) -0.283(2) -0.131(3)
H3 H 0.375(5) -0.318(3) 0.037(3)
H4 H 0.370(5) -0.451(3) 0.113(3)
H5 H 0.264(4) -0.605(2) 0.096(3)
H6 H 0.138(5) -0.706(3) -0.013(3)
H7 H -0.010(5) -0.737(3) -0.192(3)
H8 H -0.119(5) -0.695(3) -0.362(3)
H9 H -0.082(4) -0.552(2) -0.407(3)
H10 H 0.701(4) -0.383(2) -0.560(3)
H11 H 0.448(3) -0.3900(19) -0.568(2)
Cu1_2 Cu 1.06377(5) -0.38905(3) -0.30007(3)
O1_2 O -0.0926(3) -0.37998(16) -0.42023(18)
loop_
_geom_bond_atom_site_label_1
_geom_bond_atom_site_label_2
_geom_bond_site_symmetry_1
_geom_bond_site_symmetry_2
Cu1 N1 1_555 1_555
N1 C1 1_555 1_555
N2 Cu1 1_555 1_555
N3 O5 1_555 1_555
C1 C2 1_555 1_555
C2 C3 1_555 1_555
C3 C4 1_555 1_555
C4 C5 1_555 1_555
C5 C6 1_555 1_555
C6 C7 1_555 1_555
C7 C8 1_555 1_555
C8 C9 1_555 1_555
C9 C10 1_555 1_555
C10 N2 1_555 1_555
C11 N2 1_555 1_555
C12 N1 1_555 1_555
C13 C14 1_555 1_555
C14 C15 1_555 1_555
C15 C16 1_555 1_555
C16 O3 1_555 1_555
O1 C13 1_555 1_555
O2 C13 1_555 1_555
O3 Cu1 1_555 1_555
O4 C16 1_555 1_555
O5 Cu1 1_555 1_555
O6 N3 1_555 1_555
O7 N3 1_555 1_555
H1 O4 1_555 1_555
H2 C1 1_555 1_555
H3 C2 1_555 1_555
H4 C3 1_555 1_555
H5 C5 1_555 1_555
H6 C6 1_555 1_555
H7 C8 1_555 1_555
H8 C9 1_555 1_555
H9 C10 1_555 1_555
H10 C14 1_555 1_555
H11 C15 1_555 1_555
Cu1_2 O1 1_555 1_555
O1_2 Cu1 1_555 1_555
C4 C12 1_555 1_555
C7 C11 1_555 1_555
C11 C12 1_555 1_555

#END
