
#######################################################################
#
#                 Cambridge Crystallographic Data Centre
#                                CCDC 
#
#######################################################################
#
# If this CIF has been generated from an entry in the Cambridge 
# Structural Database, then it will include bibliographic, chemical, 
# crystal, experimental, refinement or atomic coordinate data resulting 
# from the CCDC's data processing and validation procedures.
#
#######################################################################

data_GABDUJ
_symmetry_cell_setting           monoclinic
_symmetry_space_group_name_H-M   'P 21/c'
_symmetry_Int_Tables_number      14
_space_group_name_Hall           '-P 2ybc'
loop_
_symmetry_equiv_pos_site_id
_symmetry_equiv_pos_as_xyz
1 x,y,z
2 x,1/2-y,1/2+z
3 -x,-y,-z
4 -x,1/2+y,1/2-z
_cell_length_a                   5.8774(7)
_cell_length_b                   18.528(2)
_cell_length_c                   7.7117(9)
_cell_angle_alpha                90
_cell_angle_beta                 103.168(2)
_cell_angle_gamma                90
_cell_volume                     817.696
loop_
_atom_site_label
_atom_site_type_symbol
_atom_site_fract_x
_atom_site_fract_y
_atom_site_fract_z
Fe1 Fe -0.53631(7) 0.47850(2) 0.21296(5)
Fe2 Fe 0.0000 0.5000 0.5000
O1 O -0.5246(4) 0.59204(12) 0.2663(3)
O2 O -0.1449(4) 0.60367(12) 0.3988(4)
O3 O -0.3073(4) 0.45341(12) 0.4295(3)
O4 O -0.2706(4) 0.49593(12) 0.0542(3)
O5 O 0.0892(4) 0.48136(12) 0.2274(3)
C1 C -0.3726(6) 0.70895(17) 0.3425(4)
C2 C -0.1850(6) 0.75270(19) 0.4150(5)
H1 H -0.0394 0.7326 0.4636
C3 C -0.2153(6) 0.82658(18) 0.4149(5)
H2 H -0.0870 0.8552 0.4647
C4 C -0.6025(6) 0.81624(19) 0.2822(5)
H3 H -0.7473 0.8375 0.2376
C5 C -0.5866(6) 0.74201(19) 0.2785(5)
H4 H -0.7188 0.7143 0.2334
C6 C -0.3439(6) 0.62764(17) 0.3349(4)
C7 C -0.0520(5) 0.49335(15) 0.0825(4)
N1 N -0.4187(5) 0.85938(15) 0.3472(4)
C7B C 0.0520(5) 0.50665(15) -0.0825(4)
O4B O 0.2706(4) 0.50407(12) -0.0542(3)
O5B O -0.0892(4) 0.51864(12) -0.2274(3)
O1B O 0.5246(4) 0.40796(12) 0.7337(3)
O2B O 0.1449(4) 0.39633(12) 0.6012(4)
C1B C 0.3726(6) 0.29105(17) 0.6575(4)
C2B C 0.1850(6) 0.24730(19) 0.5850(5)
H1B H 0.0394 0.2674 0.5364
C3B C 0.2153(6) 0.17342(18) 0.5851(5)
H2B H 0.0870 0.1448 0.5353
C4B C 0.6025(6) 0.18376(19) 0.7178(5)
H3B H 0.7473 0.1625 0.7624
C5B C 0.5866(6) 0.25799(19) 0.7215(5)
H4B H 0.7188 0.2857 0.7666
C6B C 0.3439(6) 0.37236(17) 0.6651(4)
N1B N 0.4187(5) 0.14062(15) 0.6528(4)
O3B O 0.3073(4) 0.54659(12) 0.5705(3)
Fe1B Fe 0.53631(7) 0.52150(2) 0.78704(5)
O4B_2 O -0.7294(4) 0.50407(12) -0.0542(3)
O5_2 O -0.9108(4) 0.48136(12) 0.2274(3)
N1C N -0.5813(5) 0.35938(15) 0.1528(4)
O5B_2 O -0.0892(4) 0.51864(12) 0.7726(3)
Fe1B_2 Fe -0.46369(7) 0.52150(2) -0.21296(5)
Fe1_2 Fe 0.46369(7) 0.47850(2) 0.21296(5)
Fe1C Fe -0.46369(7) 0.97850(2) 0.28704(5)
Fe1B_3 Fe 0.53631(7) 0.52150(2) -0.21296(5)
Fe2_2 Fe 0.0000 0.5000 -0.5000
Fe1A Fe 0.46369(7) 0.02150(2) 0.71296(5)
O4_2 O 0.7294(4) 0.49593(12) 1.0542(3)
O4B_3 O 0.2706(4) 0.50407(12) 0.9458(3)
O5B_3 O 0.9108(4) 0.51864(12) 0.7726(3)
N1A N 0.5813(5) 0.64062(15) 0.8472(4)
loop_
_geom_bond_atom_site_label_1
_geom_bond_atom_site_label_2
_geom_bond_site_symmetry_1
_geom_bond_site_symmetry_2
Fe1 O1 1_555 1_555
Fe2 O2 1_555 1_555
O1 C6 1_555 1_555
O2 C6 1_555 1_555
O3 Fe1 1_555 1_555
O4 Fe1 1_555 1_555
O5 Fe2 1_555 1_555
C1 C2 1_555 1_555
C2 H1 1_555 1_555
C3 C2 1_555 1_555
H2 C3 1_555 1_555
C4 H3 1_555 1_555
C5 C1 1_555 1_555
H4 C5 1_555 1_555
C6 C1 1_555 1_555
C7 O4 1_555 1_555
N1 C3 1_555 1_555
C7B C7 1_555 1_555
O4B C7B 1_555 1_555
O5B C7B 1_555 1_555
O1B C6B 1_555 1_555
O2B Fe2 1_555 1_555
C1B C2B 1_555 1_555
C2B H1B 1_555 1_555
C3B C2B 1_555 1_555
H2B C3B 1_555 1_555
C4B H3B 1_555 1_555
C5B C1B 1_555 1_555
H4B C5B 1_555 1_555
C6B O2B 1_555 1_555
N1B C3B 1_555 1_555
O3B Fe2 1_555 1_555
Fe1B O1B 1_555 1_555
O4B_2 Fe1 1_555 1_555
O5_2 Fe1 1_555 1_555
N1C Fe1 1_555 1_555
O5B_2 Fe2 1_555 1_555
Fe1B_2 O4 1_555 1_555
Fe1_2 O5 1_555 1_555
Fe1C N1 1_555 1_555
Fe1B_3 O4B 1_555 1_555
Fe2_2 O5B 1_555 1_555
Fe1A N1B 1_555 1_555
O4_2 Fe1B 1_555 1_555
O4B_3 Fe1B 1_555 1_555
O5B_3 Fe1B 1_555 1_555
N1A Fe1B 1_555 1_555
Fe2 O3 1_555 1_555
O5 C7 1_555 1_555
C4 N1 1_555 1_555
C4 C5 1_555 1_555
O4B Fe1_2 1_555 1_555
O5B Fe1B_2 1_555 1_555
C1B C6B 1_555 1_555
C4B N1B 1_555 1_555
C4B C5B 1_555 1_555
O3B Fe1B 1_555 1_555
O4B_2 Fe1B_2 1_555 1_555

#END
