
#######################################################################
#
#                 Cambridge Crystallographic Data Centre
#                                CCDC 
#
#######################################################################
#
# If this CIF has been generated from an entry in the Cambridge 
# Structural Database, then it will include bibliographic, chemical, 
# crystal, experimental, refinement or atomic coordinate data resulting 
# from the CCDC's data processing and validation procedures.
#
#######################################################################

data_GABHIB
_symmetry_cell_setting           monoclinic
_symmetry_space_group_name_H-M   'P 21/c'
_symmetry_Int_Tables_number      14
_space_group_name_Hall           '-P 2ybc'
loop_
_symmetry_equiv_pos_site_id
_symmetry_equiv_pos_as_xyz
1 x,y,z
2 x,1/2-y,1/2+z
3 -x,-y,-z
4 -x,1/2+y,1/2-z
_cell_length_a                   11.529(2)
_cell_length_b                   13.575(2)
_cell_length_c                   15.908(4)
_cell_angle_alpha                90
_cell_angle_beta                 106.411(17)
_cell_angle_gamma                90
_cell_volume                     2388.27
loop_
_atom_site_label
_atom_site_type_symbol
_atom_site_fract_x
_atom_site_fract_y
_atom_site_fract_z
Cu1 Cu 0.00194(3) 0.13839(2) 0.87418(2)
O1 O -0.14162(18) 0.14882(15) 0.77795(12)
O2 O -0.2330(2) 0.14235(19) 0.88306(13)
O3 O -0.5801(2) 0.1187(2) 0.43489(15)
O4 O -0.3784(2) 0.12016(19) 0.46777(14)
O5 O 0.15063(17) 0.12869(14) 0.96709(13)
O6 O 0.2298(2) 0.12708(19) 0.85576(14)
O7 O 0.6101(2) 0.11244(18) 1.29802(14)
O8 O 0.4092(2) 0.11017(18) 1.26951(14)
N1 N -0.0119(2) -0.01452(17) 0.86750(16)
N2 N 0.0096(2) -0.70795(18) 0.88339(16)
C1 C -0.3548(3) 0.1402(2) 0.73512(18)
C2 C -0.3594(3) 0.1336(2) 0.64738(19)
C3 C -0.4704(3) 0.1289(2) 0.58388(19)
C4 C -0.5763(3) 0.1311(3) 0.6094(2)
C5 C -0.5717(3) 0.1379(3) 0.6967(2)
C6 C -0.4606(3) 0.1423(3) 0.7586(2)
C7 C -0.2357(3) 0.1442(2) 0.80548(18)
C8 C -0.4751(3) 0.1227(2) 0.4901(2)
C9 C 0.3633(3) 0.1210(2) 1.00057(18)
C10 C 0.4651(3) 0.1255(3) 0.9717(2)
C11 C 0.5798(3) 0.1228(3) 1.0299(2)
C12 C 0.5930(3) 0.1162(2) 1.1183(2)
C13 C 0.4919(3) 0.1128(2) 1.14939(19)
C14 C 0.3760(3) 0.1147(2) 1.08931(19)
C15 C 0.2402(3) 0.1251(2) 0.93482(18)
C16 C 0.5029(3) 0.1112(2) 1.2442(2)
C17 C -0.0974(3) -0.0607(2) 0.8047(2)
C18 C -0.1080(3) -0.1615(2) 0.7991(2)
C19 C -0.0287(3) -0.2215(2) 0.85853(19)
C20 C 0.0605(3) -0.1736(2) 0.9240(2)
C21 C 0.0643(3) -0.0729(2) 0.9261(2)
C22 C -0.0396(3) -0.3287(2) 0.8515(2)
C23 C 0.0339(3) -0.3936(2) 0.9003(2)
C24 C 0.0232(3) -0.5005(2) 0.89311(19)
C25 C -0.0809(3) -0.5494(3) 0.8438(3)
C26 C -0.0826(3) -0.6505(3) 0.8418(3)
C27 C 0.1085(3) -0.6608(2) 0.9291(2)
C28 C 0.1186(3) -0.5602(2) 0.9349(2)
H1 H -0.295(3) 0.132(3) 0.633(2)
H2 H -0.640(3) 0.128(2) 0.572(2)
H3 H -0.638(4) 0.145(3) 0.710(2)
H4 H -0.460(4) 0.149(3) 0.812(3)
H5 H 0.459(3) 0.131(3) 0.915(3)
H6 H 0.641(3) 0.127(2) 1.006(2)
H7 H 0.670(3) 0.111(3) 1.156(2)
H8 H 0.310(3) 0.110(2) 1.111(2)
H9 H -0.147(3) -0.021(2) 0.7660(18)
H10 H -0.161(3) -0.184(2) 0.758(2)
H11 H 0.117(3) -0.210(2) 0.965(2)
H12 H 0.119(3) -0.040(2) 0.9679(19)
H13 H -0.097(3) -0.345(3) 0.809(2)
H14 H 0.098(3) -0.372(3) 0.948(2)
H15 H -0.148(4) -0.515(3) 0.822(3)
H16 H -0.151(4) -0.681(3) 0.804(3)
H17 H 0.172(3) -0.700(3) 0.956(2)
H18 H 0.185(3) -0.535(3) 0.967(2)
H19 H -0.580(7) 0.114(6) 0.363(5)
H20 H 0.616(7) 0.116(5) 1.382(5)
N2_2 N 0.0096(2) 0.29205(18) 0.88339(16)
Cu1_2 Cu 0.00194(3) -0.86161(2) 0.87418(2)
loop_
_geom_bond_atom_site_label_1
_geom_bond_atom_site_label_2
_geom_bond_site_symmetry_1
_geom_bond_site_symmetry_2
Cu1 O1 1_555 1_555
O1 C7 1_555 1_555
O2 C7 1_555 1_555
O3 C8 1_555 1_555
O4 C8 1_555 1_555
O5 Cu1 1_555 1_555
O6 C15 1_555 1_555
O7 C16 1_555 1_555
O8 C16 1_555 1_555
N1 Cu1 1_555 1_555
N2 C26 1_555 1_555
C1 C2 1_555 1_555
C2 C3 1_555 1_555
C3 C4 1_555 1_555
C4 C5 1_555 1_555
C5 C6 1_555 1_555
C6 C1 1_555 1_555
C7 C1 1_555 1_555
C8 C3 1_555 1_555
C9 C10 1_555 1_555
C10 C11 1_555 1_555
C11 C12 1_555 1_555
C12 C13 1_555 1_555
C13 C14 1_555 1_555
C14 C9 1_555 1_555
C15 O5 1_555 1_555
C16 C13 1_555 1_555
C17 N1 1_555 1_555
C18 C17 1_555 1_555
C19 C18 1_555 1_555
C20 C19 1_555 1_555
C21 N1 1_555 1_555
C22 C19 1_555 1_555
C23 C22 1_555 1_555
C24 C23 1_555 1_555
C25 C24 1_555 1_555
C26 C25 1_555 1_555
C27 N2 1_555 1_555
C28 C24 1_555 1_555
H1 C2 1_555 1_555
H2 C4 1_555 1_555
H3 C5 1_555 1_555
H4 C6 1_555 1_555
H5 C10 1_555 1_555
H6 C11 1_555 1_555
H7 C12 1_555 1_555
H8 C14 1_555 1_555
H9 C17 1_555 1_555
H10 C18 1_555 1_555
H11 C20 1_555 1_555
H12 C21 1_555 1_555
H13 C22 1_555 1_555
H14 C23 1_555 1_555
H15 C25 1_555 1_555
H16 C26 1_555 1_555
H17 C27 1_555 1_555
H18 C28 1_555 1_555
H19 O3 1_555 1_555
H20 O7 1_555 1_555
N2_2 Cu1 1_555 1_555
Cu1_2 N2 1_555 1_555
C9 C15 1_555 1_555
C20 C21 1_555 1_555
C27 C28 1_555 1_555

#END
