
#######################################################################
#
#                 Cambridge Crystallographic Data Centre
#                                CCDC 
#
#######################################################################
#
# If this CIF has been generated from an entry in the Cambridge 
# Structural Database, then it will include bibliographic, chemical, 
# crystal, experimental, refinement or atomic coordinate data resulting 
# from the CCDC's data processing and validation procedures.
#
#######################################################################

data_GABHAT01
_symmetry_cell_setting           orthorhombic
_symmetry_space_group_name_H-M   'P c c n'
_symmetry_Int_Tables_number      56
_space_group_name_Hall           '-P 2ab 2ac'
loop_
_symmetry_equiv_pos_site_id
_symmetry_equiv_pos_as_xyz
1 x,y,z
2 1/2-x,1/2-y,z
3 1/2+x,-y,1/2-z
4 -x,1/2+y,1/2-z
5 -x,-y,-z
6 1/2+x,1/2+y,-z
7 1/2-x,y,1/2+z
8 x,1/2-y,1/2+z
_cell_length_a                   22.064(4)
_cell_length_b                   22.140(4)
_cell_length_c                   9.433(2)
_cell_angle_alpha                90
_cell_angle_beta                 90
_cell_angle_gamma                90
_cell_volume                     4607.99
loop_
_atom_site_label
_atom_site_type_symbol
_atom_site_fract_x
_atom_site_fract_y
_atom_site_fract_z
I1 I 0.00000 0.50000 0.0000
I2 I 0.00497(7) 0.52501(4) 0.3036(1)
I2D I -0.00497(7) 0.47499(4) -0.3036(1)
K1 K -0.250 0.25000 -0.1018(2)
O1 O -0.250 0.25000 0.1891(10)
O2 O -0.23353(8) 0.37303(8) -0.0902(2)
C1 C -0.1749(1) 0.3812(1) -0.0309(4)
C2 C -0.1292(1) 0.3536(1) -0.1285(3)
O3 O -0.13695(9) 0.28997(9) -0.1226(2)
C3 C -0.0972(1) 0.2551(1) -0.1977(3)
C4 C -0.1032(1) 0.1930(1) -0.1766(3)
O4 O -0.14807(9) 0.17534(9) -0.0853(2)
C5 C -0.1606(1) 0.1123(1) -0.0766(4)
C6 C -0.2802(1) 0.3960(1) -0.0030(3)
C7 C -0.0648(1) 0.1534(1) -0.2472(4)
C8 C -0.0228(2) 0.1758(2) -0.3423(4)
C9 C -0.0175(1) 0.2363(2) -0.3643(4)
C10 C -0.0546(1) 0.2767(2) -0.2918(4)
K1F K -0.250 0.25000 0.3982(2)
O1F O -0.250 0.25000 -0.3109(10)
O2A O -0.26647(8) 0.12697(8) -0.0902(2)
C1A C -0.3251(1) 0.1188(1) -0.0309(4)
C2A C -0.3708(1) 0.1464(1) -0.1285(3)
O3A O -0.36305(9) 0.21003(9) -0.1226(2)
C3A C -0.4028(1) 0.2449(1) -0.1977(3)
C4A C -0.3968(1) 0.3070(1) -0.1766(3)
O4A O -0.35193(9) 0.32466(9) -0.0853(2)
C5A C -0.3394(1) 0.3877(1) -0.0766(4)
C6A C -0.2198(1) 0.1040(1) -0.0030(3)
C7A C -0.4352(1) 0.3466(1) -0.2472(4)
C8A C -0.4772(2) 0.3242(2) -0.3423(4)
C9A C -0.4825(1) 0.2637(2) -0.3643(4)
C10A C -0.4454(1) 0.2233(2) -0.2918(4)
O5 O 0.25000 0.25000 0.2724(7)
O6 O 0.12375(8) 0.24515(9) -0.0442(2)
C11 C 0.1108(2) 0.1900(1) -0.1138(3)
C12 C 0.1315(1) 0.1387(1) -0.0245(3)
O7 O 0.19549(9) 0.1410(1) -0.0167(2)
C13 C 0.2252(1) 0.0994(1) 0.0667(3)
C14 C 0.2881(1) 0.1010(1) 0.0575(3)
O8 O 0.31159(9) 0.14436(9) -0.0315(2)
C15 C 0.3754(1) 0.1480(1) -0.0448(3)
C16 C 0.1099(1) 0.2969(1) -0.1271(3)
C17 C 0.3223(1) 0.0609(1) 0.1363(3)
C18 C 0.2939(2) 0.0211(2) 0.2251(4)
C19 C 0.2322(2) 0.0197(1) 0.2348(3)
C20 C 0.1974(1) 0.0586(2) 0.1556(3)
O6A O 0.37625(8) 0.25485(9) -0.0442(2)
C11A C 0.3892(2) 0.3100(1) -0.1138(3)
C12A C 0.3685(1) 0.3613(1) -0.0245(3)
O7A O 0.30451(9) 0.3590(1) -0.0167(2)
C13A C 0.2748(1) 0.4006(1) 0.0667(3)
C14A C 0.2119(1) 0.3990(1) 0.0575(3)
O8A O 0.18841(9) 0.35564(9) -0.0315(2)
C15A C 0.1246(1) 0.3520(1) -0.0448(3)
C16A C 0.3901(1) 0.2031(1) -0.1271(3)
C17A C 0.1777(1) 0.4391(1) 0.1363(3)
C18A C 0.2061(2) 0.4789(2) 0.2251(4)
C19A C 0.2678(2) 0.4803(1) 0.2348(3)
C20A C 0.3026(1) 0.4414(2) 0.1556(3)
O9? O -0.250 0.25000 -0.4002(8)
K2? K 0.25000 0.25000 -0.0241(2)
O10? O 0.25000 0.25000 -0.3210(8)
loop_
_geom_bond_atom_site_label_1
_geom_bond_atom_site_label_2
_geom_bond_site_symmetry_1
_geom_bond_site_symmetry_2
I1 I2 1_555 1_555
K1 O1 1_555 1_555
O1 K1F 1_555 1_555
O2 K1 1_555 1_555
C1 O2 1_555 1_555
C2 C1 1_555 1_555
O3 K1 1_555 1_555
C3 O3 1_555 1_555
C4 C3 1_555 1_555
O4 K1 1_555 1_555
C5 O4 1_555 1_555
C6 O2 1_555 1_555
C7 C4 1_555 1_555
C8 C7 1_555 1_555
C9 C8 1_555 1_555
C10 C3 1_555 1_555
O6 C11 1_555 1_555
C11 C12 1_555 1_555
C12 O7 1_555 1_555
O7 C13 1_555 1_555
C13 C14 1_555 1_555
C14 O8 1_555 1_555
O8 C15 1_555 1_555
C15 C16A 1_555 1_555
C16 O6 1_555 1_555
C17 C14 1_555 1_555
C18 C17 1_555 1_555
C19 C18 1_555 1_555
C20 C13 1_555 1_555
I2D I1 1_555 1_555
O1F K1 1_555 1_555
O2A K1 1_555 1_555
C1A O2A 1_555 1_555
C2A C1A 1_555 1_555
O3A K1 1_555 1_555
C3A O3A 1_555 1_555
C4A C3A 1_555 1_555
O4A K1 1_555 1_555
C5A C6 1_555 1_555
C6A C5 1_555 1_555
C7A C4A 1_555 1_555
C8A C7A 1_555 1_555
C9A C8A 1_555 1_555
C10A C3A 1_555 1_555
O6A C11A 1_555 1_555
C11A C12A 1_555 1_555
C12A O7A 1_555 1_555
O7A C13A 1_555 1_555
C13A C14A 1_555 1_555
C14A O8A 1_555 1_555
O8A C15A 1_555 1_555
C15A C16 1_555 1_555
C16A O6A 1_555 1_555
C17A C14A 1_555 1_555
C18A C17A 1_555 1_555
C19A C18A 1_555 1_555
C20A C13A 1_555 1_555
C2 O3 1_555 1_555
C4 O4 1_555 1_555
C9 C10 1_555 1_555
C19 C20 1_555 1_555
O2A C6A 1_555 1_555
C2A O3A 1_555 1_555
C4A O4A 1_555 1_555
O4A C5A 1_555 1_555
C9A C10A 1_555 1_555
C19A C20A 1_555 1_555

#END
