
#######################################################################
#
#                 Cambridge Crystallographic Data Centre
#                                CCDC 
#
#######################################################################
#
# If this CIF has been generated from an entry in the Cambridge 
# Structural Database, then it will include bibliographic, chemical, 
# crystal, experimental, refinement or atomic coordinate data resulting 
# from the CCDC's data processing and validation procedures.
#
#######################################################################

data_GABHUN
_symmetry_cell_setting           monoclinic
_symmetry_space_group_name_H-M   'P 21/c'
_symmetry_Int_Tables_number      14
_space_group_name_Hall           '-P 2ybc'
loop_
_symmetry_equiv_pos_site_id
_symmetry_equiv_pos_as_xyz
1 x,y,z
2 x,1/2-y,1/2+z
3 -x,-y,-z
4 -x,1/2+y,1/2-z
_cell_length_a                   4.2679(5)
_cell_length_b                   13.9422(13)
_cell_length_c                   13.0174(13)
_cell_angle_alpha                90.00
_cell_angle_beta                 92.644(10)
_cell_angle_gamma                90.00
_cell_volume                     773.762
loop_
_atom_site_label
_atom_site_type_symbol
_atom_site_fract_x
_atom_site_fract_y
_atom_site_fract_z
Cu1 Cu 0.48731(9) 0.32882(3) 0.82462(2)
I1 I -0.01194(4) 0.446230(13) 0.827100(12)
N1 N 0.4760(6) 0.27786(17) 0.67806(15)
C1 C 0.3671(7) 0.3352(2) 0.60239(18)
H1 H 0.2809 0.3941 0.6189
C2 C 0.3794(6) 0.30893(18) 0.49932(17)
N2 N 0.5006(6) 0.22530(16) 0.47090(15)
C3 C 0.6086(8) 0.1680(2) 0.54731(19)
H2 H 0.6940 0.1088 0.5312
C4 C 0.5965(8) 0.1946(2) 0.64982(18)
H3 H 0.6754 0.1528 0.7003
I2 I 0.21583(4) 0.403732(14) 0.384314(12)
I1_2 I 0.98806(4) 0.446230(13) 0.827100(12)
N2A N 0.5006(6) 0.27470(16) 0.97090(15)
Cu1_2 Cu -0.51269(9) 0.32882(3) 0.82462(2)
Cu1A Cu 0.48731(9) 0.17118(3) 0.32462(2)
loop_
_geom_bond_atom_site_label_1
_geom_bond_atom_site_label_2
_geom_bond_site_symmetry_1
_geom_bond_site_symmetry_2
Cu1 I1 1_555 1_555
I1 Cu1_2 1_555 1_555
N1 Cu1 1_555 1_555
C1 N1 1_555 1_555
H1 C1 1_555 1_555
C2 C1 1_555 1_555
N2 C2 1_555 1_555
C3 N2 1_555 1_555
H2 C3 1_555 1_555
C4 N1 1_555 1_555
H3 C4 1_555 1_555
I2 C2 1_555 1_555
I1_2 Cu1 1_555 1_555
N2A Cu1 1_555 1_555
Cu1A N2 1_555 1_555
C3 C4 1_555 1_555

#END
