
#######################################################################
#
#                 Cambridge Crystallographic Data Centre
#                                CCDC 
#
#######################################################################
#
# If this CIF has been generated from an entry in the Cambridge 
# Structural Database, then it will include bibliographic, chemical, 
# crystal, experimental, refinement or atomic coordinate data resulting 
# from the CCDC's data processing and validation procedures.
#
#######################################################################

data_GACBIV
_symmetry_cell_setting           triclinic
_symmetry_space_group_name_H-M   'P -1'
_symmetry_Int_Tables_number      2
_space_group_name_Hall           '-P 1'
loop_
_symmetry_equiv_pos_site_id
_symmetry_equiv_pos_as_xyz
1 x,y,z
2 -x,-y,-z
_cell_length_a                   10.504(5)
_cell_length_b                   10.856(4)
_cell_length_c                   17.145(6)
_cell_angle_alpha                84.23(2)
_cell_angle_beta                 72.68(2)
_cell_angle_gamma                72.79(2)
_cell_volume                     1782.69
loop_
_atom_site_label
_atom_site_type_symbol
_atom_site_fract_x
_atom_site_fract_y
_atom_site_fract_z
N1 N -0.1421(5) 0.5595(5) -0.5514(3)
C1 C -0.1080(6) 0.5094(6) -0.6274(3)
O1 O 0.0169(4) 0.4693(4) -0.6656(3)
C2 C -0.2210(8) 0.5089(7) -0.6569(4)
C3 C -0.3530(8) 0.5534(9) -0.6097(6)
C4 C -0.3815(8) 0.6030(9) -0.5326(6)
C5 C -0.2755(8) 0.6059(8) -0.5047(5)
C6 C -0.0293(7) 0.5641(6) -0.5188(4)
N2 N 0.0233(5) 0.6319(5) -0.9473(3)
C7 C 0.0269(6) 0.6018(6) -0.8692(4)
O2 O 0.0654(5) 0.4840(4) -0.8489(3)
C8 C -0.0147(7) 0.7057(6) -0.8160(4)
C9 C -0.0547(8) 0.8291(7) -0.8423(5)
C10 C -0.0583(9) 0.8572(8) -0.9216(6)
C11 C -0.0179(9) 0.7563(8) -0.9725(5)
C12 C 0.0617(7) 0.5248(7) -1.0045(4)
N3 N 0.5279(5) 0.3224(5) -1.0077(3)
C13 C 0.4713(6) 0.2622(6) -0.9369(4)
O3 O 0.3740(5) 0.3297(4) -0.8822(3)
C14 C 0.5274(8) 0.1269(6) -0.9329(4)
C15 C 0.6349(8) 0.0618(7) -0.9938(5)
C16 C 0.6940(8) 0.1282(8) -1.0624(5)
C17 C 0.6370(8) 0.2588(7) -1.0680(5)
C18 C 0.4655(7) 0.4627(6) -1.0178(4)
N4 N 0.3406(7) 0.5047(7) -0.7299(4)
O4 O 0.3469(5) 0.3903(6) -0.7025(3)
O5 O 0.2614(5) 0.5485(4) -0.7734(3)
O6 O 0.4094(10) 0.5648(8) -0.7164(7)
N5 N 0.2780(8) 0.1277(6) -0.6671(4)
O7 O 0.3338(6) 0.1308(5) -0.7431(3)
O8 O 0.1780(6) 0.2192(5) -0.6371(3)
O9 O 0.3227(10) 0.0369(8) -0.6256(4)
N6 N 0.0579(6) 0.1744(5) -0.8121(4)
O10 O 0.0067(5) 0.2355(5) -0.7467(3)
O11 O 0.1653(5) 0.1957(5) -0.8604(3)
O12 O 0.0074(6) 0.0976(6) -0.8305(4)
H1 H -0.2027 0.4766 -0.7104
H2 H -0.4281 0.5490 -0.6294
H3 H -0.4759 0.6362 -0.5002
H4 H -0.2936 0.6412 -0.4521
H5 H -0.0629 0.6303 -0.4786
H6 H 0.0439 0.5842 -0.5623
H7 H -0.0157 0.6882 -0.7599
H8 H -0.0811 0.8983 -0.8048
H9 H -0.0868 0.9447 -0.9402
H10 H -0.0183 0.7730 -1.0285
H11 H 0.1362 0.4562 -0.9930
H12 H 0.0925 0.5543 -1.0597
H13 H 0.4883 0.0802 -0.8858
H14 H 0.6707 -0.0301 -0.9899
H15 H 0.7729 0.0836 -1.1047
H16 H 0.6740 0.3057 -1.1155
H17 H 0.3675 0.4858 -0.9911
H18 H 0.4793 0.4844 -1.0748
Tb1 Tb 0.1879(1) 0.3471(1) -0.7689(1)
C6A C 0.0293(7) 0.4359(6) -0.4812(4)
N1A N 0.1421(5) 0.4405(5) -0.4486(3)
C1A C 0.1080(6) 0.4906(6) -0.3726(3)
O1A O -0.0169(4) 0.5307(4) -0.3344(3)
C2A C 0.2210(8) 0.4911(7) -0.3431(4)
C3A C 0.3530(8) 0.4466(9) -0.3903(6)
C4A C 0.3815(8) 0.3970(9) -0.4674(6)
C5A C 0.2755(8) 0.3941(8) -0.4953(5)
H4A H 0.2936 0.3588 -0.5479
H3A H 0.4759 0.3638 -0.4998
H2A H 0.4281 0.4510 -0.3706
H1A H 0.2027 0.5234 -0.2896
H5A H 0.0629 0.3697 -0.5214
H6A H -0.0439 0.4158 -0.4377
C12A C -0.0617(7) 0.4752(7) -0.9955(4)
N2A N -0.0233(5) 0.3681(5) -1.0527(3)
C7A C -0.0269(6) 0.3982(6) -1.1308(4)
O2A O -0.0654(5) 0.5160(4) -1.1511(3)
C8A C 0.0147(7) 0.2943(6) -1.1840(4)
C9A C 0.0547(8) 0.1709(7) -1.1577(5)
C10A C 0.0583(9) 0.1428(8) -1.0784(6)
C11A C 0.0179(9) 0.2437(8) -1.0275(5)
H10A H 0.0183 0.2270 -0.9715
H9A H 0.0868 0.0553 -1.0598
H8A H 0.0811 0.1017 -1.1952
H7A H 0.0157 0.3118 -1.2401
H11A H -0.1362 0.5438 -1.0070
H12A H -0.0925 0.4457 -0.9403
C18A C 0.5345(7) 0.5373(6) -0.9822(4)
N3A N 0.4721(5) 0.6776(5) -0.9923(3)
C13A C 0.5287(6) 0.7378(6) -1.0631(4)
O3A O 0.6260(5) 0.6703(4) -1.1178(3)
C14A C 0.4726(8) 0.8731(6) -1.0671(4)
C15A C 0.3651(8) 0.9382(7) -1.0062(5)
C16A C 0.3060(8) 0.8718(8) -0.9376(5)
C17A C 0.3630(8) 0.7412(7) -0.9320(5)
H16A H 0.3260 0.6943 -0.8845
H15A H 0.2271 0.9164 -0.8953
H14A H 0.3293 1.0301 -1.0101
H13A H 0.5117 0.9198 -1.1142
H17A H 0.6325 0.5142 -1.0089
H18A H 0.5207 0.5156 -0.9252
Tb1A Tb -0.1879(1) 0.6529(1) -0.2311(1)
Tb1A_2 Tb -0.1879(1) 0.6529(1) -1.2311(1)
Tb1A_3 Tb 0.8121(1) 0.6529(1) -1.2311(1)
O2A_2 O -0.0654(5) 0.5160(4) -0.1511(3)
O3A_2 O -0.3740(5) 0.6703(4) -0.1178(3)
N4A N -0.3406(7) 0.4953(7) -0.2701(4)
O4A O -0.3469(5) 0.6097(6) -0.2975(3)
O5A O -0.2614(5) 0.4515(4) -0.2266(3)
O6A O -0.4094(10) 0.4352(8) -0.2836(7)
N5A N -0.2780(8) 0.8723(6) -0.3329(4)
O7A O -0.3338(6) 0.8692(5) -0.2569(3)
O8A O -0.1780(6) 0.7808(5) -0.3629(3)
O9A O -0.3227(10) 0.9631(8) -0.3744(4)
N6A N -0.0579(6) 0.8256(5) -0.1879(4)
O10A O -0.0067(5) 0.7645(5) -0.2533(3)
O11A O -0.1653(5) 0.8043(5) -0.1396(3)
O12A O -0.0074(6) 0.9024(6) -0.1695(4)
C19 C 0.6651(13) 0.2030(15) -0.7278(9)
C20 C 0.6948(12) 0.2700(13) -0.8064(11)
N7 N 0.7206(14) 0.3204(16) -0.8670(12)
C21 C 0.4445(16) 0.1807(12) -0.2476(9)
C22 C 0.3818(11) 0.2435(12) -0.1718(9)
N8 N 0.3346(12) 0.2888(15) -0.1120(10)
C23 C 0.7676(39) 0.2435(36) -0.4699(25)
C24 C 0.7998(47) 0.2154(44) -0.3965(29)
N9 N 0.8543(39) 0.1461(35) -0.3258(24)
C25? C 0.4471(36) 0.0253(40) 0.5242(26)
C26? C 0.2899(36) 0.0940(31) 0.5893(21)
N10? N 0.1791(23) 0.1320(20) 0.6232(13)
loop_
_geom_bond_atom_site_label_1
_geom_bond_atom_site_label_2
_geom_bond_site_symmetry_1
_geom_bond_site_symmetry_2
N1 C1 1_555 1_555
C1 O1 1_555 1_555
O1 Tb1 1_555 1_555
C2 C1 1_555 1_555
C3 C2 1_555 1_555
C4 C3 1_555 1_555
C5 N1 1_555 1_555
C6 N1 1_555 1_555
N2 C7 1_555 1_555
C7 O2 1_555 1_555
O2 Tb1 1_555 1_555
C8 C7 1_555 1_555
C9 C8 1_555 1_555
C10 C9 1_555 1_555
C11 N2 1_555 1_555
C12 N2 1_555 1_555
N3 C13 1_555 1_555
C13 O3 1_555 1_555
O3 Tb1 1_555 1_555
C14 C13 1_555 1_555
C15 C14 1_555 1_555
C16 C15 1_555 1_555
C17 N3 1_555 1_555
C18 N3 1_555 1_555
N4 O4 1_555 1_555
O4 Tb1 1_555 1_555
O5 N4 1_555 1_555
O6 N4 1_555 1_555
N5 O7 1_555 1_555
O7 Tb1 1_555 1_555
O8 N5 1_555 1_555
O9 N5 1_555 1_555
N6 O10 1_555 1_555
O10 Tb1 1_555 1_555
O11 N6 1_555 1_555
O12 N6 1_555 1_555
C19 C20 1_555 1_555
C20 N7 1_555 1_555
C21 C22 1_555 1_555
C22 N8 1_555 1_555
C23 C24 1_555 1_555
C24 N9 1_555 1_555
H1 C2 1_555 1_555
H2 C3 1_555 1_555
H3 C4 1_555 1_555
H4 C5 1_555 1_555
H5 C6 1_555 1_555
H6 C6 1_555 1_555
H7 C8 1_555 1_555
H8 C9 1_555 1_555
H9 C10 1_555 1_555
H10 C11 1_555 1_555
H11 C12 1_555 1_555
H12 C12 1_555 1_555
H13 C14 1_555 1_555
H14 C15 1_555 1_555
H15 C16 1_555 1_555
H16 C17 1_555 1_555
H17 C18 1_555 1_555
H18 C18 1_555 1_555
Tb1 O5 1_555 1_555
C6A C6 1_555 1_555
N1A C6A 1_555 1_555
C1A N1A 1_555 1_555
O1A C1A 1_555 1_555
C2A C1A 1_555 1_555
C3A C2A 1_555 1_555
C4A C3A 1_555 1_555
C5A N1A 1_555 1_555
H4A C5A 1_555 1_555
H3A C4A 1_555 1_555
H2A C3A 1_555 1_555
H1A C2A 1_555 1_555
H5A C6A 1_555 1_555
H6A C6A 1_555 1_555
C12A C12 1_555 1_555
N2A C12A 1_555 1_555
C7A N2A 1_555 1_555
O2A C7A 1_555 1_555
C8A C7A 1_555 1_555
C9A C8A 1_555 1_555
C10A C9A 1_555 1_555
C11A N2A 1_555 1_555
H10A C11A 1_555 1_555
H9A C10A 1_555 1_555
H8A C9A 1_555 1_555
H7A C8A 1_555 1_555
H11A C12A 1_555 1_555
H12A C12A 1_555 1_555
C18A C18 1_555 1_555
N3A C18A 1_555 1_555
C13A N3A 1_555 1_555
O3A C13A 1_555 1_555
C14A C13A 1_555 1_555
C15A C14A 1_555 1_555
C16A C15A 1_555 1_555
C17A N3A 1_555 1_555
H16A C17A 1_555 1_555
H15A C16A 1_555 1_555
H14A C15A 1_555 1_555
H13A C14A 1_555 1_555
H17A C18A 1_555 1_555
H18A C18A 1_555 1_555
Tb1A O1A 1_555 1_555
Tb1A_2 O2A 1_555 1_555
Tb1A_3 O3A 1_555 1_555
O2A_2 Tb1A 1_555 1_555
O3A_2 Tb1A 1_555 1_555
N4A O4A 1_555 1_555
O4A Tb1A 1_555 1_555
O5A Tb1A 1_555 1_555
O6A N4A 1_555 1_555
N5A O7A 1_555 1_555
O7A Tb1A 1_555 1_555
O8A Tb1A 1_555 1_555
O9A N5A 1_555 1_555
N6A O10A 1_555 1_555
O10A Tb1A 1_555 1_555
O11A Tb1A 1_555 1_555
O12A N6A 1_555 1_555
C4 C5 1_555 1_555
C10 C11 1_555 1_555
C16 C17 1_555 1_555
O8 Tb1 1_555 1_555
O11 Tb1 1_555 1_555
C4A C5A 1_555 1_555
C10A C11A 1_555 1_555
C16A C17A 1_555 1_555
N4A O5A 1_555 1_555
N5A O8A 1_555 1_555
N6A O11A 1_555 1_555

#END
