
#######################################################################
#
#                 Cambridge Crystallographic Data Centre
#                                CCDC 
#
#######################################################################
#
# If this CIF has been generated from an entry in the Cambridge 
# Structural Database, then it will include bibliographic, chemical, 
# crystal, experimental, refinement or atomic coordinate data resulting 
# from the CCDC's data processing and validation procedures.
#
#######################################################################

data_GACJAX
_symmetry_cell_setting           triclinic
_symmetry_space_group_name_H-M   'P -1'
_symmetry_Int_Tables_number      2
_space_group_name_Hall           '-P 1'
loop_
_symmetry_equiv_pos_site_id
_symmetry_equiv_pos_as_xyz
1 x,y,z
2 -x,-y,-z
_cell_length_a                   10.2381(7)
_cell_length_b                   12.4104(9)
_cell_length_c                   13.7901(10)
_cell_angle_alpha                84.3250(10)
_cell_angle_beta                 89.5620(10)
_cell_angle_gamma                68.3220(10)
_cell_volume                     1619.46
loop_
_atom_site_label
_atom_site_type_symbol
_atom_site_fract_x
_atom_site_fract_y
_atom_site_fract_z
Ce1 Ce 0.454627(12) 0.820500(10) 0.269338(8)
Cu1 Cu 0.0000 1.0000 0.0000
Cu2 Cu 0.0000 1.0000 0.5000
C1 C 0.5450(2) 0.80100(19) 0.03376(16)
C2 C 0.5492(2) 0.7769(2) -0.06277(17)
H1 H 0.5922 0.8126 -0.1103
C3 C 0.4894(3) 0.6998(2) -0.08806(17)
H2 H 0.4914 0.6813 -0.1534
C4 C 0.4262(3) 0.6496(2) -0.01683(17)
H3 H 0.3847 0.5964 -0.0327
C5 C 0.4252(2) 0.67881(19) 0.07759(17)
C6 C 0.3578(3) 0.6343(2) 0.16178(17)
C7 C 0.6064(2) 0.8824(2) 0.07157(16)
C8 C 0.3969(2) 0.71995(19) 0.49909(16)
C9 C 0.4191(3) 0.6598(2) 0.59140(17)
H4 H 0.3490 0.6804 0.6390
C10 C 0.5473(3) 0.5682(2) 0.61207(17)
H5 H 0.5667 0.5256 0.6748
C11 C 0.6470(3) 0.5394(2) 0.54020(17)
H6 H 0.7346 0.4765 0.5528
C12 C 0.6156(2) 0.60436(19) 0.44947(16)
C13 C 0.7113(3) 0.5815(2) 0.36379(17)
C14 C 0.2656(2) 0.82187(19) 0.46624(16)
C15 C 0.2379(2) 1.10548(19) 0.23243(15)
C16 C 0.1717(2) 1.22208(19) 0.24676(16)
H7 H 0.0879 1.2699 0.2111
C17 C 0.2318(2) 1.2670(2) 0.31496(17)
H8 H 0.1885 1.3462 0.3275
C18 C 0.3559(2) 1.19479(19) 0.36453(16)
H9 H 0.3986 1.2238 0.4113
C19 C 0.4160(2) 1.08010(19) 0.34449(15)
C20 C 0.5510(2) 0.99238(19) 0.39187(15)
C21 C 0.1831(2) 1.04320(19) 0.16435(15)
N1 N 0.48403(19) 0.75296(16) 0.10202(13)
N2 N 0.4931(2) 0.69312(15) 0.43021(13)
N3 N 0.35667(19) 1.03657(15) 0.28048(13)
O1 O 0.58960(17) 0.89364(14) 0.16325(11)
O2 O 0.66712(18) 0.93067(16) 0.01613(12)
O3 O 0.35600(18) 0.68225(14) 0.24111(12)
O4 O 0.3099(2) 0.55824(16) 0.15331(13)
O5 O 0.26596(16) 0.86713(14) 0.37930(11)
O6 O 0.16784(16) 0.85342(14) 0.52355(11)
O7 O 0.66582(18) 0.65668(14) 0.28887(12)
O8 O 0.8197(2) 0.49435(16) 0.36768(13)
O9 O 0.24877(16) 0.93152(13) 0.17361(11)
O10 O 0.08360(16) 1.09777(14) 0.10733(11)
O11 O 0.57844(16) 0.88710(13) 0.37241(11)
O12 O 0.62318(16) 1.02504(14) 0.44379(12)
O13 O 0.05498(17) 0.85776(14) 0.09562(11)
H10 H -0.0155 0.8725 0.1333
H11 H 0.1204 0.8604 0.1268
O14 O -0.18783(16) 1.06634(14) 0.05224(12)
H12 H -0.2310 1.0246 0.0536
H13 H -0.1955 1.1014 0.1047
O15 O -0.01494(18) 0.98777(16) 0.33037(12)
H14 H -0.0507 0.9491 0.3159
H15 H 0.0732 0.9538 0.3270
O16 O 0.11770(16) 1.09226(14) 0.47553(12)
H16 H 0.1970 1.0600 0.4989
H17 H 0.0883 1.1650 0.4835
Ce1A Ce -0.454627(12) 1.179500(10) -0.269338(8)
Cu2_2 Cu 0.0000 1.0000 -0.5000
C1A C -0.5450(2) 1.19900(19) -0.03376(16)
C2A C -0.5492(2) 1.2231(2) 0.06277(17)
H1A H -0.5922 1.1874 0.1103
C3A C -0.4894(3) 1.3002(2) 0.08806(17)
H2A H -0.4914 1.3187 0.1534
C4A C -0.4262(3) 1.3504(2) 0.01683(17)
H3A H -0.3847 1.4036 0.0327
C5A C -0.4252(2) 1.32119(19) -0.07759(17)
C6A C -0.3578(3) 1.3657(2) -0.16178(17)
C7A C -0.6064(2) 1.1176(2) -0.07157(16)
C8A C -0.3969(2) 1.28005(19) -0.49909(16)
C9A C -0.4191(3) 1.3402(2) -0.59140(17)
H4A H -0.3490 1.3196 -0.6390
C10A C -0.5473(3) 1.4318(2) -0.61207(17)
H5A H -0.5667 1.4744 -0.6748
C11A C -0.6470(3) 1.4606(2) -0.54020(17)
H6A H -0.7346 1.5235 -0.5528
C12A C -0.6156(2) 1.39564(19) -0.44947(16)
C13A C -0.7113(3) 1.4185(2) -0.36379(17)
C14A C -0.2656(2) 1.17813(19) -0.46624(16)
C15A C -0.2379(2) 0.89452(19) -0.23243(15)
C16A C -0.1717(2) 0.77792(19) -0.24676(16)
H7A H -0.0879 0.7301 -0.2111
C17A C -0.2318(2) 0.7330(2) -0.31496(17)
H8A H -0.1885 0.6538 -0.3275
C18A C -0.3559(2) 0.80521(19) -0.36453(16)
H9A H -0.3986 0.7762 -0.4113
C19A C -0.4160(2) 0.91990(19) -0.34449(15)
C20A C -0.5510(2) 1.00762(19) -0.39187(15)
C21A C -0.1831(2) 0.95680(19) -0.16435(15)
N1A N -0.48403(19) 1.24704(16) -0.10202(13)
N2A N -0.4931(2) 1.30688(15) -0.43021(13)
N3A N -0.35667(19) 0.96343(15) -0.28048(13)
O1A O -0.58960(17) 1.10636(14) -0.16325(11)
O2A O -0.66712(18) 1.06933(16) -0.01613(12)
O3A O -0.35600(18) 1.31775(14) -0.24111(12)
O4A O -0.3099(2) 1.44176(16) -0.15331(13)
O5A O -0.26596(16) 1.13287(14) -0.37930(11)
O6A O -0.16784(16) 1.14658(14) -0.52355(11)
O6A_2 O -0.16784(16) 1.14658(14) 0.47645(11)
O7A O -0.66582(18) 1.34332(14) -0.28887(12)
O8A O -0.8197(2) 1.50565(16) -0.36768(13)
O9A O -0.24877(16) 1.06848(13) -0.17361(11)
O10A O -0.08360(16) 0.90223(14) -0.10733(11)
O11A O -0.57844(16) 1.11290(13) -0.37241(11)
O12A O -0.62318(16) 0.97496(14) -0.44379(12)
O13A O -0.05498(17) 1.14224(14) -0.09562(11)
H10A H 0.0155 1.1275 -0.1333
H11A H -0.1204 1.1396 -0.1268
O14A O 0.18783(16) 0.93366(14) -0.05224(12)
H12A H 0.2310 0.9754 -0.0536
H13A H 0.1955 0.8986 -0.1047
O15A O 0.01494(18) 1.01223(16) 0.66963(12)
H14A H 0.0507 1.0509 0.6841
H15A H -0.0732 1.0462 0.6730
O16A O -0.11770(16) 0.90774(14) 0.52447(12)
H16A H -0.1970 0.9400 0.5011
H17A H -0.0883 0.8350 0.5165
O17 O -0.21807(18) 1.17199(16) 0.21526(12)
H18 H -0.2173 1.2385 0.2044
H19 H -0.1430 1.1290 0.2520
O18 O -0.1312(2) 0.85313(18) 0.23961(13)
H20 H -0.2131 0.8767 0.2270
H21 H -0.1006 0.7847 0.2539
O19 O 0.0849(2) 1.32315(17) 0.00146(16)
H22 H 0.0966 1.2598 0.0190
H23 H -0.0009 1.3579 0.0177
O20 O 0.0173(2) 1.32036(16) 0.50292(14)
H24 H -0.0439 1.3725 0.4624
H25 H -0.0329 1.3227 0.5448
O21 O 0.8156(2) 0.49490(17) 0.00355(14)
H26 H 0.7762 0.4792 -0.0492
H27 H 0.8371 0.5592 -0.0043
O22 O 0.7940(3) 0.39184(19) 0.19123(16)
H28 H 0.7966 0.4349 0.1371
H29 H 0.8000 0.4364 0.2383
O23 O 0.0652(8) 1.4050(7) -0.1938(4)
H30 H 0.1432 1.3881 -0.2221
H31 H 0.0840 1.3676 -0.1400
O24 O 0.0566(9) 0.6011(6) 0.3008(4)
H32 H 0.0969 0.5731 0.2513
H33 H 0.1098 0.6501 0.2869
H34? H 0.0896 0.6106 0.2707
H35? H 0.1586 0.6711 0.2713
O25? O 0.1008(5) 0.6586(5) 0.3206(3)
loop_
_geom_bond_atom_site_label_1
_geom_bond_atom_site_label_2
_geom_bond_site_symmetry_1
_geom_bond_site_symmetry_2
Ce1 N1 1_555 1_555
Cu1 O10 1_555 1_555
Cu2 O6 1_555 1_555
C1 C2 1_555 1_555
C2 H1 1_555 1_555
C3 C2 1_555 1_555
H2 C3 1_555 1_555
C4 C3 1_555 1_555
H3 C4 1_555 1_555
C5 C4 1_555 1_555
C6 C5 1_555 1_555
C7 C1 1_555 1_555
C8 C9 1_555 1_555
C9 H4 1_555 1_555
C10 C9 1_555 1_555
H5 C10 1_555 1_555
C11 C10 1_555 1_555
H6 C11 1_555 1_555
C12 C11 1_555 1_555
C13 C12 1_555 1_555
C14 C8 1_555 1_555
C15 C16 1_555 1_555
C16 H7 1_555 1_555
C17 C16 1_555 1_555
H8 C17 1_555 1_555
C18 C17 1_555 1_555
H9 C18 1_555 1_555
C19 C18 1_555 1_555
C20 C19 1_555 1_555
C21 C15 1_555 1_555
N1 C1 1_555 1_555
N2 Ce1 1_555 1_555
N3 Ce1 1_555 1_555
O1 Ce1 1_555 1_555
O2 C7 1_555 1_555
O3 Ce1 1_555 1_555
O4 C6 1_555 1_555
O5 Ce1 1_555 1_555
O6 C14 1_555 1_555
O7 Ce1 1_555 1_555
O8 C13 1_555 1_555
O9 Ce1 1_555 1_555
O10 C21 1_555 1_555
O11 Ce1 1_555 1_555
O12 C20 1_555 1_555
O13 Cu1 1_555 1_555
H10 O13 1_555 1_555
H11 O13 1_555 1_555
O14 Cu1 1_555 1_555
H12 O14 1_555 1_555
H13 O14 1_555 1_555
O15 Cu2 1_555 1_555
H14 O15 1_555 1_555
H15 O15 1_555 1_555
O16 Cu2 1_555 1_555
H16 O16 1_555 1_555
H17 O16 1_555 1_555
O17 H18 1_555 1_555
H19 O17 1_555 1_555
O18 H20 1_555 1_555
H21 O18 1_555 1_555
O19 H22 1_555 1_555
H23 O19 1_555 1_555
O20 H24 1_555 1_555
H25 O20 1_555 1_555
O21 H26 1_555 1_555
H27 O21 1_555 1_555
O22 H28 1_555 1_555
H29 O22 1_555 1_555
O23 H30 1_555 1_555
H31 O23 1_555 1_555
O24 H32 1_555 1_555
H33 O24 1_555 1_555
Ce1A N1A 1_555 1_555
Cu2_2 O6A 1_555 1_555
C1A C2A 1_555 1_555
C2A H1A 1_555 1_555
C3A C2A 1_555 1_555
H2A C3A 1_555 1_555
C4A C3A 1_555 1_555
H3A C4A 1_555 1_555
C5A C4A 1_555 1_555
C6A C5A 1_555 1_555
C7A C1A 1_555 1_555
C8A C9A 1_555 1_555
C9A H4A 1_555 1_555
C10A C9A 1_555 1_555
H5A C10A 1_555 1_555
C11A C10A 1_555 1_555
H6A C11A 1_555 1_555
C12A C11A 1_555 1_555
C13A C12A 1_555 1_555
C14A C8A 1_555 1_555
C15A C16A 1_555 1_555
C16A H7A 1_555 1_555
C17A C16A 1_555 1_555
H8A C17A 1_555 1_555
C18A C17A 1_555 1_555
H9A C18A 1_555 1_555
C19A C18A 1_555 1_555
C20A C19A 1_555 1_555
C21A C15A 1_555 1_555
N1A C1A 1_555 1_555
N2A Ce1A 1_555 1_555
N3A Ce1A 1_555 1_555
O1A Ce1A 1_555 1_555
O2A C7A 1_555 1_555
O3A Ce1A 1_555 1_555
O4A C6A 1_555 1_555
O5A Ce1A 1_555 1_555
O6A C14A 1_555 1_555
O6A_2 Cu2 1_555 1_555
O7A Ce1A 1_555 1_555
O8A C13A 1_555 1_555
O9A Ce1A 1_555 1_555
O10A Cu1 1_555 1_555
O11A Ce1A 1_555 1_555
O12A C20A 1_555 1_555
O13A Cu1 1_555 1_555
H10A O13A 1_555 1_555
H11A O13A 1_555 1_555
O14A Cu1 1_555 1_555
H12A O14A 1_555 1_555
H13A O14A 1_555 1_555
O15A Cu2 1_555 1_555
H14A O15A 1_555 1_555
H15A O15A 1_555 1_555
O16A Cu2 1_555 1_555
H16A O16A 1_555 1_555
H17A O16A 1_555 1_555
C5 N1 1_555 1_555
C6 O3 1_555 1_555
C7 O1 1_555 1_555
C8 N2 1_555 1_555
C12 N2 1_555 1_555
C13 O7 1_555 1_555
C14 O5 1_555 1_555
C15 N3 1_555 1_555
C19 N3 1_555 1_555
C20 O11 1_555 1_555
C21 O9 1_555 1_555
C5A N1A 1_555 1_555
C6A O3A 1_555 1_555
C7A O1A 1_555 1_555
C8A N2A 1_555 1_555
C12A N2A 1_555 1_555
C13A O7A 1_555 1_555
C14A O5A 1_555 1_555
C15A N3A 1_555 1_555
C19A N3A 1_555 1_555
C20A O11A 1_555 1_555
C21A O9A 1_555 1_555
C21A O10A 1_555 1_555

#END
