
#######################################################################
#
#                 Cambridge Crystallographic Data Centre
#                                CCDC 
#
#######################################################################
#
# If this CIF has been generated from an entry in the Cambridge 
# Structural Database, then it will include bibliographic, chemical, 
# crystal, experimental, refinement or atomic coordinate data resulting 
# from the CCDC's data processing and validation procedures.
#
#######################################################################

data_GACPUX
_symmetry_cell_setting           orthorhombic
_symmetry_space_group_name_H-M   'P 21 21 21'
_symmetry_Int_Tables_number      19
_space_group_name_Hall           'P 2ac 2ab'
loop_
_symmetry_equiv_pos_site_id
_symmetry_equiv_pos_as_xyz
1 x,y,z
2 1/2-x,-y,1/2+z
3 -x,1/2+y,1/2-z
4 1/2+x,1/2-y,-z
_cell_length_a                   10.1365(2)
_cell_length_b                   11.4134(3)
_cell_length_c                   29.2794(7)
_cell_angle_alpha                90
_cell_angle_beta                 90
_cell_angle_gamma                90
_cell_volume                     3387.39
loop_
_atom_site_label
_atom_site_type_symbol
_atom_site_fract_x
_atom_site_fract_y
_atom_site_fract_z
Zn1 Zn 0.65861(4) 0.68462(4) -0.006979(16)
Zn2 Zn 0.96531(4) 0.56981(4) -0.006226(16)
O1 O 0.8608(3) 0.7354(2) -0.00391(10)
O2 O 0.9809(3) 0.8943(2) 0.01236(10)
O3 O 0.6359(3) 0.8550(2) -0.00187(10)
C1 C 0.8745(4) 0.8443(3) 0.00240(14)
C2 C 0.7528(4) 0.9228(4) -0.00335(14)
H1 H 0.7508 0.9813 0.0221
C3 C 0.7715(5) 0.9875(4) -0.04860(15)
C4 C 0.8381(5) 1.0953(4) -0.04813(17)
H2 H 0.8661 1.1283 -0.0200
C5 C 0.8633(6) 1.1543(5) -0.08905(17)
H3 H 0.9098 1.2265 -0.0888
C6 C 0.8201(5) 1.1067(5) -0.13006(18)
H4 H 0.8355 1.1475 -0.1578
C7 C 0.7545(6) 1.0002(5) -0.13071(17)
H5 H 0.7259 0.9674 -0.1588
C8 C 0.7306(5) 0.9412(5) -0.08944(15)
H6 H 0.6856 0.8682 -0.0898
O4 O 0.6799(3) 0.6087(3) 0.05416(10)
O5 O 0.8827(3) 0.5313(3) 0.05338(10)
C9 C 0.7767(4) 0.5632(4) 0.07316(13)
C10 C 0.7672(5) 0.5390(4) 0.12315(14)
C11 C 0.8814(5) 0.5158(4) 0.14845(16)
H7 H 0.9647 0.5124 0.1337
C12 C 0.8723(5) 0.4978(4) 0.19512(15)
H8 H 0.9500 0.4828 0.2123
C13 C 0.7509(5) 0.5013(4) 0.21719(15)
C14 C 0.6367(5) 0.5233(4) 0.19161(15)
H9 H 0.5531 0.5248 0.2063
C15 C 0.6455(5) 0.5430(4) 0.14481(14)
H10 H 0.5680 0.5591 0.1277
C16 C 0.7429(5) 0.4832(4) 0.26752(14)
C17 C 0.8191(5) 0.3992(4) 0.28916(15)
H11 H 0.8788 0.3534 0.2716
C18 C 0.8101(5) 0.3804(4) 0.33582(16)
H12 H 0.8649 0.3237 0.3501
C19 C 0.7207(5) 0.4447(4) 0.36164(14)
C20 C 0.6434(5) 0.5300(4) 0.34066(14)
H13 H 0.5830 0.5749 0.3582
C21 C 0.6548(5) 0.5495(4) 0.29387(14)
H14 H 0.6024 0.6081 0.2797
C22 C 0.7091(5) 0.4230(4) 0.41190(14)
O6 O 0.8061(3) 0.3709(3) 0.43022(10)
O7 O 0.6063(3) 0.4575(3) 0.43190(10)
O8 O 1.0368(3) 0.3960(2) -0.00972(10)
C23 C 1.0387(5) 0.3301(4) 0.02405(15)
H15 H 0.9997 0.3581 0.0515
N1 N 1.0909(4) 0.2244(4) 0.02459(13)
C24 C 1.0885(5) 0.1532(4) 0.06555(16)
H16 H 1.1313 0.0778 0.0594
H17 H 0.9969 0.1398 0.0749
H18 H 1.1358 0.1939 0.0901
C25 C 1.1626(5) 0.1756(4) -0.01473(14)
H19 H 1.1928 0.0962 -0.0074
H20 H 1.2390 0.2253 -0.0216
H21 H 1.1040 0.1730 -0.0413
Zn1A Zn 0.84139(4) 0.31538(4) 0.493021(16)
Zn1C Zn 1.15861(4) 0.81538(4) 0.006979(16)
Zn2A Zn 0.53469(4) 0.43019(4) 0.493774(16)
Zn2C Zn 0.46531(4) 0.93019(4) 0.006226(16)
O2C O 0.4809(3) 0.6057(2) -0.01236(10)
O3C O 1.1359(3) 0.6450(2) 0.00187(10)
O6A O 0.6939(3) 0.6291(3) -0.06978(10)
O7A O 0.8937(3) 0.5425(3) -0.06810(10)
O9 O 0.8319(5) 0.0983(4) 0.26566(17)
C26 C 0.7556(7) 0.1373(6) 0.2370(2)
H22 H 0.6655 0.1453 0.2454
N2 N 0.7903(5) 0.1693(5) 0.19467(18)
C27 C 0.6958(8) 0.2156(7) 0.1636(2)
H23 H 0.7391 0.2340 0.1345
H24 H 0.6571 0.2871 0.1764
H25 H 0.6261 0.1576 0.1584
C28 C 0.9278(9) 0.1591(8) 0.1809(3)
H26 H 0.9375 0.1858 0.1492
H27 H 0.9557 0.0771 0.1832
H28 H 0.9828 0.2075 0.2009
O10 O 0.5450(5) 0.7968(4) 0.25244(15)
C29 C 0.5606(7) 0.8180(6) 0.2112(2)
H29 H 0.4829 0.8213 0.1931
N3 N 0.6730(6) 0.8363(5) 0.18969(19)
C30 C 0.6772(8) 0.8595(7) 0.1407(3)
H30 H 0.7690 0.8700 0.1310
H31 H 0.6271 0.9309 0.1339
H32 H 0.6383 0.7933 0.1241
C31 C 0.7978(7) 0.8269(7) 0.2141(3)
H33 H 0.8708 0.8424 0.1931
H34 H 0.8068 0.7477 0.2268
H35 H 0.7997 0.8842 0.2390
loop_
_geom_bond_atom_site_label_1
_geom_bond_atom_site_label_2
_geom_bond_site_symmetry_1
_geom_bond_site_symmetry_2
Zn1 O1 1_555 1_555
Zn2 O1 1_555 1_555
O1 C1 1_555 1_555
O2 C1 1_555 1_555
O3 Zn1 1_555 1_555
C1 C2 1_555 1_555
C2 O3 1_555 1_555
H1 C2 1_555 1_555
C3 C2 1_555 1_555
C4 C3 1_555 1_555
H2 C4 1_555 1_555
C5 C4 1_555 1_555
H3 C5 1_555 1_555
C6 C5 1_555 1_555
H4 C6 1_555 1_555
C7 C6 1_555 1_555
H5 C7 1_555 1_555
C8 C3 1_555 1_555
H6 C8 1_555 1_555
O4 Zn1 1_555 1_555
O5 Zn2 1_555 1_555
C9 O4 1_555 1_555
C10 C9 1_555 1_555
C11 C10 1_555 1_555
H7 C11 1_555 1_555
C12 C11 1_555 1_555
H8 C12 1_555 1_555
C13 C12 1_555 1_555
C14 C13 1_555 1_555
H9 C14 1_555 1_555
C15 C10 1_555 1_555
H10 C15 1_555 1_555
C16 C13 1_555 1_555
C17 C16 1_555 1_555
H11 C17 1_555 1_555
C18 C17 1_555 1_555
H12 C18 1_555 1_555
C19 C18 1_555 1_555
C20 C19 1_555 1_555
H13 C20 1_555 1_555
C21 C16 1_555 1_555
H14 C21 1_555 1_555
C22 C19 1_555 1_555
O6 C22 1_555 1_555
O7 C22 1_555 1_555
O8 Zn2 1_555 1_555
C23 O8 1_555 1_555
H15 C23 1_555 1_555
N1 C23 1_555 1_555
C24 N1 1_555 1_555
H16 C24 1_555 1_555
H17 C24 1_555 1_555
H18 C24 1_555 1_555
C25 N1 1_555 1_555
H19 C25 1_555 1_555
H20 C25 1_555 1_555
H21 C25 1_555 1_555
O9 C26 1_555 1_555
C26 H22 1_555 1_555
N2 C26 1_555 1_555
C27 N2 1_555 1_555
H23 C27 1_555 1_555
H24 C27 1_555 1_555
H25 C27 1_555 1_555
C28 N2 1_555 1_555
H26 C28 1_555 1_555
H27 C28 1_555 1_555
H28 C28 1_555 1_555
O10 C29 1_555 1_555
C29 H29 1_555 1_555
N3 C29 1_555 1_555
C30 N3 1_555 1_555
H30 C30 1_555 1_555
H31 C30 1_555 1_555
H32 C30 1_555 1_555
C31 N3 1_555 1_555
H33 C31 1_555 1_555
H34 C31 1_555 1_555
H35 C31 1_555 1_555
Zn1A O6 1_555 1_555
Zn1C O2 1_555 1_555
Zn2A O7 1_555 1_555
Zn2C O3 1_555 1_555
O2C Zn1 1_555 1_555
O3C Zn2 1_555 1_555
O6A Zn1 1_555 1_555
O7A Zn2 1_555 1_555
C7 C8 1_555 1_555
O5 C9 1_555 1_555
C14 C15 1_555 1_555
C20 C21 1_555 1_555
Zn1C O3C 1_555 1_555

#END
