
#######################################################################
#
#                 Cambridge Crystallographic Data Centre
#                                CCDC 
#
#######################################################################
#
# If this CIF has been generated from an entry in the Cambridge 
# Structural Database, then it will include bibliographic, chemical, 
# crystal, experimental, refinement or atomic coordinate data resulting 
# from the CCDC's data processing and validation procedures.
#
#######################################################################

data_GACQUX
_symmetry_cell_setting           orthorhombic
_symmetry_space_group_name_H-M   'I m m 2'
_symmetry_Int_Tables_number      44
_space_group_name_Hall           'I 2 -2'
loop_
_symmetry_equiv_pos_site_id
_symmetry_equiv_pos_as_xyz
1 x,y,z
2 x,-y,z
3 -x,-y,z
4 -x,y,z
5 1/2+x,1/2+y,1/2+z
6 1/2+x,1/2-y,1/2+z
7 1/2-x,1/2-y,1/2+z
8 1/2-x,1/2+y,1/2+z
_cell_length_a                   7.584(13)
_cell_length_b                   15.80(2)
_cell_length_c                   6.939(11)
_cell_angle_alpha                90
_cell_angle_beta                 90
_cell_angle_gamma                90
_cell_volume                     831.481
loop_
_atom_site_label
_atom_site_type_symbol
_atom_site_fract_x
_atom_site_fract_y
_atom_site_fract_z
Co1 Co 0.0000 0.19558(6) 0.0009(2)
O1 O 0.2151(6) 0.1387(2) 0.1429(6)
O2 O 0.3138(5) 0.2405(2) 0.3375(6)
C1 C 0.3314(7) 0.1708(3) 0.2466(9)
C2 C 0.5000 0.1209(5) 0.2720(14)
H1 H 0.5000 0.0963 0.4000
H2 H 0.5000 0.0747 0.1800
O3 O 0.0000 0.2956(4) 0.2110(10)
N1 N 0.0000 0.0795(4) -0.1786(9)
C3 C 0.1590(8) 0.0753(3) -0.3046(9)
H3 H 0.1633 0.1255 -0.3846
H4 H 0.2638 0.0749 -0.2244
N2 N 0.1605(10) 0.0000 -0.4290(9)
C4 C 0.0000 0.0000 -0.0593(17)
H5 H 0.1033 0.0000 0.0231
H6 H -0.1033 0.0000 0.0231
C5 C 0.0000 0.0000 -0.5470(17)
H7 H 0.0000 -0.0496 -0.6292
H8 H 0.0000 0.0496 -0.6292
C1C C 0.6686(7) 0.1708(3) 0.2466(9)
O1C O 0.7849(6) 0.1387(2) 0.1429(6)
O2C O 0.6862(5) 0.2405(2) 0.3375(6)
C3A C 0.1590(8) -0.0753(3) -0.3046(9)
N1A N 0.0000 -0.0795(4) -0.1786(9)
C3B C -0.1590(8) -0.0753(3) -0.3046(9)
H3B H -0.1633 -0.1255 -0.3846
H4B H -0.2638 -0.0749 -0.2244
N2B N -0.1605(10) 0.0000 -0.4290(9)
C3C C -0.1590(8) 0.0753(3) -0.3046(9)
H3C H -0.1633 0.1255 -0.3846
H4C H -0.2638 0.0749 -0.2244
H3A H 0.1633 -0.1255 -0.3846
H4A H 0.2638 -0.0749 -0.2244
O1C_2 O -0.2151(6) 0.1387(2) 0.1429(6)
O2C_2 O -0.3138(5) 0.2405(2) 0.3375(6)
C1C_2 C -0.3314(7) 0.1708(3) 0.2466(9)
C2C C -0.5000 0.1209(5) 0.2720(14)
H1C H -0.5000 0.0963 0.4000
H2C H -0.5000 0.0747 0.1800
C1_2 C -0.6686(7) 0.1708(3) 0.2466(9)
O1_2 O -0.7849(6) 0.1387(2) 0.1429(6)
O2_2 O -0.6862(5) 0.2405(2) 0.3375(6)
Co1C Co 1.0000 0.19558(6) 0.0009(2)
O3C O 1.0000 0.2956(4) 0.2110(10)
O2E O -0.1862(5) 0.2595(2) -0.1625(6)
O2F O 0.1862(5) 0.2595(2) -0.1625(6)
Co1E Co 0.5000 0.30442(6) 0.5009(2)
Co1A Co 0.0000 -0.19558(6) 0.0009(2)
Co1E_2 Co -0.5000 0.30442(6) 0.5009(2)
Co1_2 Co -1.0000 0.19558(6) 0.0009(2)
O1_3 O 1.2151(6) 0.1387(2) 0.1429(6)
O2E_2 O 0.8138(5) 0.2595(2) -0.1625(6)
O2F_2 O 1.1862(5) 0.2595(2) -0.1625(6)
N1_2 N 1.0000 0.0795(4) -0.1786(9)
loop_
_geom_bond_atom_site_label_1
_geom_bond_atom_site_label_2
_geom_bond_site_symmetry_1
_geom_bond_site_symmetry_2
Co1 O1 1_555 1_555
O1 C1 1_555 1_555
O2 C1 1_555 1_555
C1 C2 1_555 1_555
C2 H1 1_555 1_555
H2 C2 1_555 1_555
O3 Co1 1_555 1_555
N1 Co1 1_555 1_555
C3 N1 1_555 1_555
H3 C3 1_555 1_555
H4 C3 1_555 1_555
N2 C3 1_555 1_555
C4 N1 1_555 1_555
H5 C4 1_555 1_555
H6 C4 1_555 1_555
C5 N2 1_555 1_555
H7 C5 1_555 1_555
H8 C5 1_555 1_555
C1C C2 1_555 1_555
O1C C1C 1_555 1_555
O2C C1C 1_555 1_555
C3A N2 1_555 1_555
N1A C4 1_555 1_555
C3B N1A 1_555 1_555
H3B C3B 1_555 1_555
H4B C3B 1_555 1_555
N2B C5 1_555 1_555
C3C N1 1_555 1_555
H3C C3C 1_555 1_555
H4C C3C 1_555 1_555
H3A C3A 1_555 1_555
H4A C3A 1_555 1_555
O1C_2 Co1 1_555 1_555
O2C_2 C1C_2 1_555 1_555
C1C_2 O1C_2 1_555 1_555
C2C C1C_2 1_555 1_555
H1C C2C 1_555 1_555
H2C C2C 1_555 1_555
C1_2 C2C 1_555 1_555
O1_2 C1_2 1_555 1_555
O2_2 C1_2 1_555 1_555
Co1C O1C 1_555 1_555
O3C Co1C 1_555 1_555
O2E Co1 1_555 1_555
O2F Co1 1_555 1_555
Co1E O2 1_555 1_555
Co1A N1A 1_555 1_555
Co1E_2 O2C_2 1_555 1_555
Co1_2 O1_2 1_555 1_555
O1_3 Co1C 1_555 1_555
O2E_2 Co1C 1_555 1_555
O2F_2 Co1C 1_555 1_555
N1_2 Co1C 1_555 1_555
O2C Co1E 1_555 1_555
C3A N1A 1_555 1_555
C3B N2B 1_555 1_555
N2B C3C 1_555 1_555
O2_2 Co1E_2 1_555 1_555

#END
