
#######################################################################
#
#                 Cambridge Crystallographic Data Centre
#                                CCDC 
#
#######################################################################
#
# If this CIF has been generated from an entry in the Cambridge 
# Structural Database, then it will include bibliographic, chemical, 
# crystal, experimental, refinement or atomic coordinate data resulting 
# from the CCDC's data processing and validation procedures.
#
#######################################################################

data_GACSOS02
_symmetry_cell_setting           monoclinic
_symmetry_space_group_name_H-M   'P 21'
_symmetry_Int_Tables_number      4
_space_group_name_Hall           'P 2yb'
loop_
_symmetry_equiv_pos_site_id
_symmetry_equiv_pos_as_xyz
1 x,y,z
2 -x,1/2+y,-z
_cell_length_a                   11.5316(18)
_cell_length_b                   7.8813(13)
_cell_length_c                   13.039(2)
_cell_angle_alpha                90
_cell_angle_beta                 94.184(2)
_cell_angle_gamma                90
_cell_volume                     1181.88
loop_
_atom_site_label
_atom_site_type_symbol
_atom_site_fract_x
_atom_site_fract_y
_atom_site_fract_z
Er1 Er 0.039705(14) 0.26637(5) 0.476000(13)
O1 O 0.0840(3) 0.4058(5) 0.3244(3)
O2 O -0.0401(3) 0.5403(4) 0.4127(3)
O3 O 0.1707(3) 0.4073(5) 0.5787(3)
O4 O 0.1762(3) 0.0943(5) 0.4176(3)
C1 C 0.0034(4) 0.5085(7) 0.3258(4)
C2 C -0.0524(5) 0.5872(8) 0.2311(4)
H1 H -0.1060 0.6743 0.2365
C3 C -0.0266(5) 0.5344(8) 0.1390(4)
H2 H 0.0356 0.4596 0.1373
C4 C -0.0851(5) 0.5809(8) 0.0403(4)
C5 C -0.1885(5) 0.6717(8) 0.0297(5)
H3 H -0.2222 0.7104 0.0880
C6 C -0.2416(5) 0.7050(8) -0.0663(5)
H4 H -0.3110 0.7653 -0.0723
C7 C -0.1929(5) 0.6501(9) -0.1530(5)
H5 H -0.2288 0.6735 -0.2176
C8 C -0.0916(6) 0.5611(10) -0.1440(5)
H6 H -0.0586 0.5239 -0.2029
C9 C -0.0376(5) 0.5254(8) -0.0494(4)
H7 H 0.0313 0.4636 -0.0449
C10 C 0.1680(4) 0.5296(7) 0.6430(4)
C11 C 0.2465(4) 0.5160(7) 0.7367(4)
H8 H 0.3044 0.4336 0.7393
C12 C 0.2385(4) 0.6155(8) 0.8174(4)
H9 H 0.1805 0.6977 0.8120
C13 C 0.3109(5) 0.6103(8) 0.9140(4)
C14 C 0.4178(5) 0.5281(9) 0.9237(5)
H10 H 0.4461 0.4753 0.8668
C15 C 0.4824(7) 0.5242(15) 1.0171(6)
H11 H 0.5536 0.4681 1.0232
C16 C 0.4411(6) 0.6036(10) 1.1009(5)
H12 H 0.4854 0.6021 1.1634
C17 C 0.3364(6) 0.6844(9) 1.0942(5)
H13 H 0.3086 0.7356 1.1518
C18 C 0.2710(5) 0.6894(8) 0.9994(5)
H14 H 0.2002 0.7464 0.9938
C19 C 0.1816(4) -0.0641(8) 0.4111(4)
C20 C 0.2954(7) -0.1389(11) 0.3958(6)
H15 H 0.3583 -0.0671 0.3886
C21 C 0.3119(7) -0.3047(11) 0.3918(6)
H16 H 0.2459 -0.3707 0.3980
C22 C 0.4200(5) -0.4002(8) 0.3790(4)
C23 C 0.5284(4) -0.3193(8) 0.3841(4)
H17 H 0.5338 -0.2039 0.3984
C24 C 0.6270(5) -0.4111(9) 0.3678(5)
H18 H 0.6985 -0.3560 0.3706
C25 C 0.6222(6) -0.5783(9) 0.3479(5)
H19 H 0.6896 -0.6379 0.3361
C26 C 0.5160(5) -0.6614(9) 0.3452(5)
H20 H 0.5121 -0.7776 0.3329
C27 C 0.4162(5) -0.5716(8) 0.3606(5)
H21 H 0.3452 -0.6280 0.3585
O5 O 0.1019(3) 0.6555(5) 0.6289(3)
O6 O 0.0939(3) -0.1606(5) 0.4162(3)
Er1A Er -0.039705(14) 0.76637(5) 0.524000(13)
Er1A_2 Er -0.039705(14) -0.23363(5) 0.524000(13)
O2A O 0.0401(3) 0.0403(4) 0.5873(3)
O5A O -0.1019(3) 0.1555(5) 0.3711(3)
O6A O -0.0939(3) 0.3394(5) 0.5838(3)
loop_
_geom_bond_atom_site_label_1
_geom_bond_atom_site_label_2
_geom_bond_site_symmetry_1
_geom_bond_site_symmetry_2
Er1 O1 1_555 1_555
O1 C1 1_555 1_555
O2 Er1 1_555 1_555
O3 Er1 1_555 1_555
O4 Er1 1_555 1_555
C1 O2 1_555 1_555
C2 C1 1_555 1_555
H1 C2 1_555 1_555
C3 C2 1_555 1_555
H2 C3 1_555 1_555
C4 C3 1_555 1_555
C5 C4 1_555 1_555
H3 C5 1_555 1_555
C6 C5 1_555 1_555
H4 C6 1_555 1_555
C7 C6 1_555 1_555
H5 C7 1_555 1_555
C8 C7 1_555 1_555
H6 C8 1_555 1_555
C9 C4 1_555 1_555
H7 C9 1_555 1_555
C10 O3 1_555 1_555
C11 C10 1_555 1_555
H8 C11 1_555 1_555
C12 C11 1_555 1_555
H9 C12 1_555 1_555
C13 C12 1_555 1_555
C14 C13 1_555 1_555
H10 C14 1_555 1_555
C15 C14 1_555 1_555
H11 C15 1_555 1_555
C16 C15 1_555 1_555
H12 C16 1_555 1_555
C17 C16 1_555 1_555
H13 C17 1_555 1_555
C18 C13 1_555 1_555
H14 C18 1_555 1_555
C19 O4 1_555 1_555
C20 C19 1_555 1_555
H15 C20 1_555 1_555
C21 C20 1_555 1_555
H16 C21 1_555 1_555
C22 C21 1_555 1_555
C23 C22 1_555 1_555
H17 C23 1_555 1_555
C24 C23 1_555 1_555
H18 C24 1_555 1_555
C25 C24 1_555 1_555
H19 C25 1_555 1_555
C26 C25 1_555 1_555
H20 C26 1_555 1_555
C27 C22 1_555 1_555
H21 C27 1_555 1_555
O5 C10 1_555 1_555
O6 C19 1_555 1_555
Er1A O2 1_555 1_555
Er1A_2 O6 1_555 1_555
O2A Er1 1_555 1_555
O5A Er1 1_555 1_555
O6A Er1 1_555 1_555
C8 C9 1_555 1_555
C17 C18 1_555 1_555
C26 C27 1_555 1_555
O5 Er1A 1_555 1_555
Er1A_2 O2A 1_555 1_555

#END
