
#######################################################################
#
#                 Cambridge Crystallographic Data Centre
#                                CCDC 
#
#######################################################################
#
# If this CIF has been generated from an entry in the Cambridge 
# Structural Database, then it will include bibliographic, chemical, 
# crystal, experimental, refinement or atomic coordinate data resulting 
# from the CCDC's data processing and validation procedures.
#
#######################################################################

data_GACSOS01
_symmetry_cell_setting           monoclinic
_symmetry_space_group_name_H-M   'P 21'
_symmetry_Int_Tables_number      4
_space_group_name_Hall           'P 2yb'
loop_
_symmetry_equiv_pos_site_id
_symmetry_equiv_pos_as_xyz
1 x,y,z
2 -x,1/2+y,-z
_cell_length_a                   11.548(1)
_cell_length_b                   7.886(1)
_cell_length_c                   13.048(1)
_cell_angle_alpha                90
_cell_angle_beta                 94.15(1)
_cell_angle_gamma                90
_cell_volume                     1185.13
loop_
_atom_site_label
_atom_site_type_symbol
_atom_site_fract_x
_atom_site_fract_y
_atom_site_fract_z
Er1 Er 0.03962(2) 0.5369(2) 0.475890(10)
O1 O 0.1768(4) 0.3648(6) 0.4166(4)
O2 O 0.0938(4) 0.1098(6) 0.4155(3)
O3 O 0.0406(4) 0.3103(6) 0.5872(3)
O4 O -0.0841(4) 0.1754(6) 0.6767(3)
O5 O 0.1693(4) 0.6773(6) 0.5782(4)
O6 O 0.1030(4) 0.9245(6) 0.6296(4)
C1 C 0.1807(5) 0.2039(8) 0.4105(5)
C2 C 0.2952(10) 0.127(2) 0.3951(9)
C3 C 0.3126(10) -0.037(2) 0.3921(9)
C4 C 0.4205(6) -0.1282(9) 0.3798(5)
C5 C 0.5279(6) -0.0498(10) 0.3840(5)
C6 C 0.6269(6) -0.1387(11) 0.3681(6)
C7 C 0.6229(7) -0.3094(11) 0.3480(7)
C8 C 0.5152(8) -0.3946(12) 0.3442(8)
C9 C 0.4163(7) -0.3045(9) 0.3601(7)
C10 C -0.0026(5) 0.2791(8) 0.6746(5)
C11 C 0.0534(7) 0.3546(9) 0.7697(5)
C12 C 0.0263(6) 0.3038(9) 0.8604(5)
C13 C 0.0842(6) 0.3493(9) 0.9605(5)
C14 C 0.1881(7) 0.4402(11) 0.9696(5)
C15 C 0.2411(7) 0.4745(11) 1.0659(6)
C16 C 0.1935(7) 0.4199(11) 1.1534(6)
C17 C 0.0902(7) 0.3283(13) 1.1444(6)
C18 C 0.0374(7) 0.2938(11) 1.0502(5)
C19 C 0.1684(5) 0.7985(8) 0.6417(5)
C20 C 0.2478(5) 0.7853(8) 0.7362(5)
C21 C 0.2377(6) 0.8852(9) 0.8164(5)
C22 C 0.3107(6) 0.8806(9) 0.9144(5)
C23 C 0.4177(6) 0.7971(11) 0.9237(6)
C24 C 0.4818(9) 0.791(2) 1.0158(9)
C25 C 0.4410(8) 0.8722(12) 1.1023(6)
C26 C 0.3355(8) 0.9541(12) 1.0936(6)
C27 C 0.2701(7) 0.9580(11) 1.0004(6)
H1 H 0.3592 0.2006 0.3871
H2 H 0.2461 -0.1062 0.3988
H3 H 0.5332 0.0683 0.3983
H4 H 0.6994 -0.0813 0.3710
H5 H 0.6920 -0.3698 0.3367
H6 H 0.5111 -0.5129 0.3307
H7 H 0.3438 -0.3617 0.3579
H8 H 0.1099 0.4413 0.7647
H9 H -0.0381 0.2291 0.8616
H10 H 0.2224 0.4785 0.9097
H11 H 0.3117 0.5369 1.0715
H12 H 0.2304 0.4443 1.2192
H13 H 0.0564 0.2897 1.2044
H14 H -0.0328 0.2305 1.0454
H15 H 0.3077 0.7025 0.7390
H16 H 0.1779 0.9680 0.8105
H17 H 0.4461 0.7438 0.8652
H18 H 0.5538 0.7328 1.0214
H19 H 0.4860 0.8703 1.1662
H20 H 0.3074 1.0082 1.1520
H21 H 0.1970 1.0140 0.9952
Er1A Er -0.03962(2) 0.0369(2) 0.524110(10)
Er1A_2 Er -0.03962(2) 1.0369(2) 0.524110(10)
O2A O -0.0938(4) 0.6098(6) 0.5845(3)
O3A O -0.0406(4) 0.8103(6) 0.4128(3)
O4A O 0.0841(4) 0.6754(6) 0.3233(3)
O6A O -0.1030(4) 0.4245(6) 0.3704(4)
loop_
_geom_bond_atom_site_label_1
_geom_bond_atom_site_label_2
_geom_bond_site_symmetry_1
_geom_bond_site_symmetry_2
Er1 O1 1_555 1_555
O1 C1 1_555 1_555
O2 C1 1_555 1_555
O3 Er1 1_555 1_555
O4 C10 1_555 1_555
O5 Er1 1_555 1_555
O6 C19 1_555 1_555
C1 C2 1_555 1_555
C2 C3 1_555 1_555
C3 C4 1_555 1_555
C4 C5 1_555 1_555
C5 C6 1_555 1_555
C6 C7 1_555 1_555
C7 C8 1_555 1_555
C8 C9 1_555 1_555
C9 C4 1_555 1_555
C10 O3 1_555 1_555
C11 C10 1_555 1_555
C12 C11 1_555 1_555
C13 C12 1_555 1_555
C14 C13 1_555 1_555
C15 C14 1_555 1_555
C16 C15 1_555 1_555
C17 C16 1_555 1_555
C18 C13 1_555 1_555
C19 O5 1_555 1_555
C20 C19 1_555 1_555
C21 C20 1_555 1_555
C22 C21 1_555 1_555
C23 C22 1_555 1_555
C24 C23 1_555 1_555
C25 C24 1_555 1_555
C26 C25 1_555 1_555
C27 C22 1_555 1_555
H1 C2 1_555 1_555
H2 C3 1_555 1_555
H3 C5 1_555 1_555
H4 C6 1_555 1_555
H5 C7 1_555 1_555
H6 C8 1_555 1_555
H7 C9 1_555 1_555
H8 C11 1_555 1_555
H9 C12 1_555 1_555
H10 C14 1_555 1_555
H11 C15 1_555 1_555
H12 C16 1_555 1_555
H13 C17 1_555 1_555
H14 C18 1_555 1_555
H15 C20 1_555 1_555
H16 C21 1_555 1_555
H17 C23 1_555 1_555
H18 C24 1_555 1_555
H19 C25 1_555 1_555
H20 C26 1_555 1_555
H21 C27 1_555 1_555
Er1A O2 1_555 1_555
Er1A_2 O6 1_555 1_555
O2A Er1 1_555 1_555
O3A Er1 1_555 1_555
O4A Er1 1_555 1_555
O6A Er1 1_555 1_555
O3 Er1A 1_555 1_555
O4 Er1A 1_555 1_555
C17 C18 1_555 1_555
C26 C27 1_555 1_555
Er1A_2 O3A 1_555 1_555

#END
