
#######################################################################
#
#                 Cambridge Crystallographic Data Centre
#                                CCDC 
#
#######################################################################
#
# If this CIF has been generated from an entry in the Cambridge 
# Structural Database, then it will include bibliographic, chemical, 
# crystal, experimental, refinement or atomic coordinate data resulting 
# from the CCDC's data processing and validation procedures.
#
#######################################################################

data_GACSOS
_symmetry_cell_setting           monoclinic
_symmetry_space_group_name_H-M   'P 21'
_symmetry_Int_Tables_number      4
_space_group_name_Hall           'P 2yb'
loop_
_symmetry_equiv_pos_site_id
_symmetry_equiv_pos_as_xyz
1 x,y,z
2 -x,1/2+y,-z
_cell_length_a                   11.547(1)
_cell_length_b                   7.871(1)
_cell_length_c                   13.027(1)
_cell_angle_alpha                90
_cell_angle_beta                 94.08(1)
_cell_angle_gamma                90
_cell_volume                     1180.98
loop_
_atom_site_label
_atom_site_type_symbol
_atom_site_fract_x
_atom_site_fract_y
_atom_site_fract_z
Er1 Er 0.53962(2) -0.20830(2) -0.52362(2)
O1 O 0.4073(3) -0.2782(6) -0.4147(3)
O2 O 0.3235(3) -0.5337(6) -0.4169(3)
O3 O 0.6023(3) -0.5932(6) -0.3706(3)
O4 O 0.6698(3) -0.3465(6) -0.4216(3)
O5 O 0.4590(3) -0.4786(5) -0.5879(3)
O6 O 0.5839(4) -0.3435(6) -0.6764(3)
C1 C 0.3186(4) -0.3741(7) -0.4110(4)
C2 C 0.2034(5) -0.2982(8) -0.3966(5)
C3 C 0.1893(5) -0.1310(9) -0.3917(4)
C4 C 0.0802(5) -0.0405(8) -0.3792(4)
C5 C -0.0283(5) -0.1196(9) -0.3843(5)
C6 C -0.1280(5) -0.030(1) -0.3684(5)
C7 C -0.1211(6) 0.143(1) -0.3479(6)
C8 C -0.0156(7) 0.221(1) -0.3452(7)
C9 C 0.0844(6) 0.1338(9) -0.3614(5)
C10 C 0.6676(4) -0.4673(8) -0.3582(4)
C11 C 0.7465(5) -0.4556(8) -0.2635(4)
C12 C 0.7378(5) -0.5534(8) -0.1837(4)
C13 C 0.8100(5) -0.5489(8) -0.0863(4)
C14 C 0.9177(5) -0.466(1) -0.0771(5)
C15 C 0.9824(6) -0.461(1) 0.0172(5)
C16 C 0.9413(7) -0.539(1) 0.1021(5)
C17 C 0.8360(7) -0.622(1) 0.0941(5)
C18 C 0.7712(6) -0.627(1) 0.0005(5)
C19 C 0.5012(5) -0.4482(7) -0.6749(4)
C20 C 0.4467(5) -0.5238(9) -0.7684(4)
C21 C 0.4736(5) -0.4728(8) -0.8603(4)
C22 C 0.4161(5) -0.5172(8) -0.9600(4)
C23 C 0.3110(6) -0.609(1) -0.9700(5)
C24 C 0.2580(6) -0.644(1) -1.0661(5)
C25 C 0.3067(6) -0.587(1) -1.1537(5)
C26 C 0.4094(6) -0.497(1) -1.1452(5)
C27 C 0.4630(5) -0.463(1) -1.0491(4)
O2A O 0.6765(3) -0.0337(6) -0.5831(3)
O3A O 0.3977(3) -0.0932(6) -0.6294(3)
O5A O 0.5410(3) 0.0214(5) -0.4121(3)
Er1A Er 0.46038(2) 0.29170(2) -0.47638(2)
Er1A_2 Er 0.46038(2) -0.70830(2) -0.47638(2)
loop_
_geom_bond_atom_site_label_1
_geom_bond_atom_site_label_2
_geom_bond_site_symmetry_1
_geom_bond_site_symmetry_2
Er1 O1 1_555 1_555
O1 C1 1_555 1_555
O2 C1 1_555 1_555
O3 C10 1_555 1_555
O4 Er1 1_555 1_555
O5 Er1 1_555 1_555
O6 Er1 1_555 1_555
C1 C2 1_555 1_555
C2 C3 1_555 1_555
C3 C4 1_555 1_555
C4 C5 1_555 1_555
C5 C6 1_555 1_555
C6 C7 1_555 1_555
C7 C8 1_555 1_555
C8 C9 1_555 1_555
C9 C4 1_555 1_555
C10 O4 1_555 1_555
C11 C10 1_555 1_555
C12 C11 1_555 1_555
C13 C12 1_555 1_555
C14 C13 1_555 1_555
C15 C14 1_555 1_555
C16 C15 1_555 1_555
C17 C16 1_555 1_555
C18 C13 1_555 1_555
C19 O5 1_555 1_555
C20 C19 1_555 1_555
C21 C20 1_555 1_555
C22 C21 1_555 1_555
C23 C22 1_555 1_555
C24 C23 1_555 1_555
C25 C24 1_555 1_555
C26 C25 1_555 1_555
C27 C22 1_555 1_555
O2A Er1 1_555 1_555
O3A Er1 1_555 1_555
O5A Er1 1_555 1_555
Er1A O5A 1_555 1_555
Er1A_2 O2 1_555 1_555
O3 Er1A_2 1_555 1_555
O5 Er1A_2 1_555 1_555
O6 C19 1_555 1_555
C17 C18 1_555 1_555
C26 C27 1_555 1_555

#END
