
#######################################################################
#
#                 Cambridge Crystallographic Data Centre
#                                CCDC 
#
#######################################################################
#
# If this CIF has been generated from an entry in the Cambridge 
# Structural Database, then it will include bibliographic, chemical, 
# crystal, experimental, refinement or atomic coordinate data resulting 
# from the CCDC's data processing and validation procedures.
#
#######################################################################

data_GACVAI
_symmetry_cell_setting           trigonal
_symmetry_space_group_name_H-M   'P 31 2 1'
_symmetry_Int_Tables_number      152
_space_group_name_Hall           'P 31 2"'
loop_
_symmetry_equiv_pos_site_id
_symmetry_equiv_pos_as_xyz
1 x,y,z
2 -y,x-y,1/3+z
3 -x+y,-x,2/3+z
4 y,x,-z
5 x-y,-y,2/3-z
6 -x,-x+y,1/3-z
_cell_length_a                   8.0488(11)
_cell_length_b                   8.0488(11)
_cell_length_c                   30.552(6)
_cell_angle_alpha                90
_cell_angle_beta                 90
_cell_angle_gamma                120
_cell_volume                     1714.09
loop_
_atom_site_label
_atom_site_type_symbol
_atom_site_fract_x
_atom_site_fract_y
_atom_site_fract_z
Mn1 Mn 0.22337(8) 1.00274(8) 0.146742(16)
N1 N 0.3111(4) 0.8808(5) 0.09008(9)
N2 N 0.0773(4) 0.6680(4) 0.15210(9)
N3 N -0.0790(5) 0.9065(4) 0.12332(11)
N4 N -0.1366(5) 0.8022(6) 0.09176(11)
N5 N -0.1885(6) 0.7030(7) 0.06197(14)
N6 N 0.3417(6) 1.2843(5) 0.11997(13)
N7 N 0.4296(5) 1.4345(6) 0.13674(10)
N8 N 0.5110(5) 1.5879(5) 0.15223(13)
C2 C 0.4515(6) 0.9906(7) 0.06180(14)
H1 H 0.5078 1.1232 0.0639
C3 C 0.5158(7) 0.9161(8) 0.02986(15)
H2 H 0.6151 0.9965 0.0112
C4 C 0.4304(7) 0.7204(8) 0.02608(14)
H3 H 0.4705 0.6660 0.0047
C5 C 0.2841(7) 0.6055(7) 0.05445(12)
H4 H 0.2237 0.4727 0.0521
C6 C 0.2281(6) 0.6883(5) 0.08619(11)
C7 C 0.0721(5) 0.5751(5) 0.11770(12)
C8 C -0.0721(6) 0.3707(6) 0.10882(14)
H5 H -0.1607 0.3200 0.1328
H6 H -0.0079 0.2980 0.1055
H7 H -0.1405 0.3623 0.0824
N2E N -0.0773(4) 0.5907(6) 0.18123(9)
C7E C -0.0721(5) 0.5030(7) 0.21563(12)
C6E C -0.2281(6) 0.4602(8) 0.24714(11)
N1E N -0.3111(4) 0.5697(6) 0.24325(9)
C2E C -0.4515(6) 0.5391(9) 0.27153(14)
H1E H -0.5078 0.6154 0.2694
C3E C -0.5158(7) 0.4003(11) 0.30347(15)
H2E H -0.6151 0.3814 0.3221
C4E C -0.4304(7) 0.2900(11) 0.30725(14)
H3E H -0.4705 0.1955 0.3286
C5E C -0.2841(7) 0.3214(10) 0.27888(12)
H4E H -0.2237 0.2490 0.2812
C8E C 0.0721(6) 0.4428(8) 0.22451(14)
H5E H 0.1607 0.4807 0.2005
H6E H 0.0079 0.3059 0.2278
H7E H 0.1405 0.5028 0.2509
N3E N 0.0790(5) 0.9855(6) 0.21001(11)
N4E N 0.1366(5) 0.9388(8) 0.24157(11)
N5E N 0.1885(6) 0.8915(9) 0.27136(14)
N6E N 0.6583(6) 0.9426(8) 0.21336(13)
N7E N 0.5704(5) 1.0049(8) 0.19659(10)
N8E N 0.4890(5) 1.0769(7) 0.18110(13)
Mn1E Mn -0.22337(8) 0.77937(11) 0.186591(16)
Mn1E_2 Mn 0.77663(8) 1.77937(11) 0.186591(16)
Mn1E_3 Mn 0.77663(8) 0.77937(11) 0.186591(16)
N6E_2 N -0.3417(6) 0.9426(8) 0.21336(13)
N8_2 N -0.4890(5) 0.5879(5) 0.15223(13)
C1 C 0.279(2) 0.236(2) 0.0183(4)
O1 O 0.0940(13) 0.0940(13) 0.0000
C1C C 0.236(2) 0.279(2) -0.0183(4)
loop_
_geom_bond_atom_site_label_1
_geom_bond_atom_site_label_2
_geom_bond_site_symmetry_1
_geom_bond_site_symmetry_2
C1 O1 1_555 1_555
O1 C1C 1_555 1_555
Mn1 N1 1_555 1_555
N1 C2 1_555 1_555
N2 Mn1 1_555 1_555
N3 Mn1 1_555 1_555
N4 N3 1_555 1_555
N5 N4 1_555 1_555
N6 Mn1 1_555 1_555
N7 N6 1_555 1_555
N8 N7 1_555 1_555
C2 H1 1_555 1_555
C3 C2 1_555 1_555
H2 C3 1_555 1_555
C4 C3 1_555 1_555
H3 C4 1_555 1_555
C5 C4 1_555 1_555
H4 C5 1_555 1_555
C6 N1 1_555 1_555
C7 N2 1_555 1_555
C8 C7 1_555 1_555
H5 C8 1_555 1_555
H6 C8 1_555 1_555
H7 C8 1_555 1_555
C1C C1 1_555 1_555
N2E N2 1_555 1_555
C7E N2E 1_555 1_555
C6E C7E 1_555 1_555
N1E C6E 1_555 1_555
C2E N1E 1_555 1_555
H1E C2E 1_555 1_555
C3E C2E 1_555 1_555
H2E C3E 1_555 1_555
C4E C3E 1_555 1_555
H3E C4E 1_555 1_555
C5E C6E 1_555 1_555
H4E C5E 1_555 1_555
C8E C7E 1_555 1_555
H5E C8E 1_555 1_555
H6E C8E 1_555 1_555
H7E C8E 1_555 1_555
N3E Mn1 1_555 1_555
N4E N3E 1_555 1_555
N5E N4E 1_555 1_555
N6E N7E 1_555 1_555
N7E N8E 1_555 1_555
N8E Mn1 1_555 1_555
Mn1E N3 1_555 1_555
Mn1E_2 N8 1_555 1_555
Mn1E_3 N6E 1_555 1_555
N6E_2 Mn1E 1_555 1_555
N8_2 Mn1E 1_555 1_555
C5 C6 1_555 1_555
C6 C7 1_555 1_555
N2E Mn1E 1_555 1_555
N1E Mn1E 1_555 1_555
C4E C5E 1_555 1_555
N3E Mn1E 1_555 1_555

#END
