
#######################################################################
#
#                 Cambridge Crystallographic Data Centre
#                                CCDC 
#
#######################################################################
#
# If this CIF has been generated from an entry in the Cambridge 
# Structural Database, then it will include bibliographic, chemical, 
# crystal, experimental, refinement or atomic coordinate data resulting 
# from the CCDC's data processing and validation procedures.
#
#######################################################################

data_GADCIZ
_symmetry_cell_setting           orthorhombic
_symmetry_space_group_name_H-M   'P c a 21'
_symmetry_Int_Tables_number      29
_space_group_name_Hall           'P 2c -2ac'
loop_
_symmetry_equiv_pos_site_id
_symmetry_equiv_pos_as_xyz
1 x,y,z
2 -x,-y,1/2+z
3 1/2+x,-y,z
4 1/2-x,y,1/2+z
_cell_length_a                   14.0393(5)
_cell_length_b                   9.9142(5)
_cell_length_c                   18.2288(7)
_cell_angle_alpha                90
_cell_angle_beta                 90
_cell_angle_gamma                90
_cell_volume                     2537.24
loop_
_atom_site_label
_atom_site_type_symbol
_atom_site_fract_x
_atom_site_fract_y
_atom_site_fract_z
Fe1 Fe 0.199790(18) 0.65741(2) 0.689608(16)
Cl1 Cl 0.33496(3) 0.78142(4) 0.68448(3)
Cl2 Cl 0.12640(4) 0.63392(5) 0.79942(3)
N1 N 0.37130(11) 0.33385(15) 0.68798(10)
N2 N 0.24387(13) 0.21328(15) 0.70619(9)
N3 N 0.46493(12) 0.44449(15) 0.59176(9)
N4 N 0.54377(12) 0.40706(17) 0.49076(9)
S1 S 0.21332(3) 0.44901(4) 0.62639(3)
S2 S 0.59018(3) 0.23721(4) 0.60723(3)
C1 C 0.27539(14) 0.33003(18) 0.67605(11)
C2 C 0.39920(16) 0.2203(2) 0.72624(13)
H1 H 0.4607 0.1995 0.7415
C3 C 0.32075(17) 0.1457(2) 0.73713(13)
H2 H 0.3182 0.0631 0.7612
C4 C 0.43553(14) 0.44366(19) 0.66845(11)
H3 H 0.4044 0.5287 0.6794
H4 H 0.4919 0.4378 0.6990
C5 C 0.53361(13) 0.36525(19) 0.56112(11)
C6 C 0.43254(15) 0.5366(2) 0.54038(12)
H5 H 0.3863 0.6024 0.5477
C7 C 0.48073(15) 0.5129(2) 0.47788(12)
H6 H 0.4733 0.5591 0.4338
C8 C 0.14139(15) 0.16569(19) 0.71102(12)
C9 C 0.08484(16) 0.2702(2) 0.75402(13)
H7 H 0.1122 0.2807 0.8019
H8 H 0.0200 0.2408 0.7586
H9 H 0.0867 0.3550 0.7286
C10 C 0.10172(18) 0.1443(2) 0.63395(13)
H10 H 0.1050 0.2275 0.6071
H11 H 0.0366 0.1153 0.6371
H12 H 0.1386 0.0768 0.6091
C11 C 0.13843(17) 0.0327(2) 0.75302(15)
H13 H 0.1754 -0.0337 0.7273
H14 H 0.0737 0.0024 0.7569
H15 H 0.1644 0.0457 0.8012
C12 C 0.61058(17) 0.3494(2) 0.43348(12)
C13 C 0.71328(17) 0.3574(3) 0.46077(13)
H16 H 0.7200 0.3039 0.5043
H17 H 0.7290 0.4495 0.4716
H18 H 0.7554 0.3239 0.4235
C14 C 0.58157(19) 0.2035(2) 0.41790(13)
H19 H 0.5973 0.1481 0.4594
H20 H 0.6150 0.1714 0.3754
H21 H 0.5142 0.1994 0.4091
C15 C 0.60177(17) 0.4337(2) 0.36321(12)
H22 H 0.6434 0.3976 0.3263
H23 H 0.6192 0.5254 0.3734
H24 H 0.5372 0.4308 0.3459
Fe1B Fe 0.699790(18) 0.34259(2) 0.689608(16)
S2B S 0.09018(3) 0.76279(4) 0.60723(3)
O1 O 0.35251(16) 0.0632(2) 0.44989(11)
C16 C 0.4617(3) -0.1185(3) 0.4457(2)
H25 H 0.4190 -0.1685 0.4149
H26 H 0.4978 -0.1800 0.4755
H27 H 0.5043 -0.0666 0.4158
C17 C 0.4055(3) -0.0254(4) 0.49437(19)
H28 H 0.3629 -0.0773 0.5254
H29 H 0.4482 0.0255 0.5257
C18 C 0.2969(3) 0.1548(5) 0.4904(2)
H30 H 0.3385 0.2126 0.5190
H31 H 0.2566 0.1053 0.5242
C19 C 0.2375(3) 0.2379(4) 0.4427(2)
H32 H 0.2772 0.2863 0.4088
H33 H 0.2020 0.3009 0.4719
H34 H 0.1942 0.1813 0.4160
loop_
_geom_bond_atom_site_label_1
_geom_bond_atom_site_label_2
_geom_bond_site_symmetry_1
_geom_bond_site_symmetry_2
Fe1 Cl1 1_555 1_555
Cl2 Fe1 1_555 1_555
N1 C1 1_555 1_555
N2 C1 1_555 1_555
N3 C4 1_555 1_555
N4 C5 1_555 1_555
S1 Fe1 1_555 1_555
S2 C5 1_555 1_555
C1 S1 1_555 1_555
C2 N1 1_555 1_555
H1 C2 1_555 1_555
C3 N2 1_555 1_555
H2 C3 1_555 1_555
C4 N1 1_555 1_555
H3 C4 1_555 1_555
H4 C4 1_555 1_555
C5 N3 1_555 1_555
C6 N3 1_555 1_555
H5 C6 1_555 1_555
C7 N4 1_555 1_555
H6 C7 1_555 1_555
C8 N2 1_555 1_555
C9 C8 1_555 1_555
H7 C9 1_555 1_555
H8 C9 1_555 1_555
H9 C9 1_555 1_555
C10 C8 1_555 1_555
H10 C10 1_555 1_555
H11 C10 1_555 1_555
H12 C10 1_555 1_555
C11 C8 1_555 1_555
H13 C11 1_555 1_555
H14 C11 1_555 1_555
H15 C11 1_555 1_555
C12 N4 1_555 1_555
C13 C12 1_555 1_555
H16 C13 1_555 1_555
H17 C13 1_555 1_555
H18 C13 1_555 1_555
C14 C12 1_555 1_555
H19 C14 1_555 1_555
H20 C14 1_555 1_555
H21 C14 1_555 1_555
C15 C12 1_555 1_555
H22 C15 1_555 1_555
H23 C15 1_555 1_555
H24 C15 1_555 1_555
O1 C17 1_555 1_555
C16 H25 1_555 1_555
H26 C16 1_555 1_555
H27 C16 1_555 1_555
C17 C16 1_555 1_555
H28 C17 1_555 1_555
H29 C17 1_555 1_555
C18 O1 1_555 1_555
H30 C18 1_555 1_555
H31 C18 1_555 1_555
C19 C18 1_555 1_555
H32 C19 1_555 1_555
H33 C19 1_555 1_555
H34 C19 1_555 1_555
Fe1B S2 1_555 1_555
S2B Fe1 1_555 1_555
C2 C3 1_555 1_555
C6 C7 1_555 1_555

#END
