
#######################################################################
#
#                 Cambridge Crystallographic Data Centre
#                                CCDC 
#
#######################################################################
#
# If this CIF has been generated from an entry in the Cambridge 
# Structural Database, then it will include bibliographic, chemical, 
# crystal, experimental, refinement or atomic coordinate data resulting 
# from the CCDC's data processing and validation procedures.
#
#######################################################################

data_GADFOG
_symmetry_cell_setting           monoclinic
_symmetry_space_group_name_H-M   'P 21'
_symmetry_Int_Tables_number      4
_space_group_name_Hall           'P 2yb'
loop_
_symmetry_equiv_pos_site_id
_symmetry_equiv_pos_as_xyz
1 x,y,z
2 -x,1/2+y,-z
_cell_length_a                   10.057(7)
_cell_length_b                   29.178(18)
_cell_length_c                   6.508(2)
_cell_angle_alpha                90
_cell_angle_beta                 108.84(4)
_cell_angle_gamma                90
_cell_volume                     1807.41
loop_
_atom_site_label
_atom_site_type_symbol
_atom_site_fract_x
_atom_site_fract_y
_atom_site_fract_z
Ca1 Ca 0.144(1) -0.208 0.071(1)
O1 O 0.166(2) -0.166(1) -0.232(3)
O2 O 0.165(2) -0.251(1) 0.388(3)
S1 S -0.193(1) -0.334 0.063(1)
C1 C -0.229(3) -0.346(1) -0.234(4)
C2 C -0.228(2) -0.294(1) -0.328(3)
N1 N -0.291(2) -0.266(1) -0.206(3)
C3 C -0.251(2) -0.274(1) 0.026(3)
C4 C -0.408(3) -0.263(1) 0.015(3)
C5 C -0.434(2) -0.262(1) -0.242(4)
O3 O -0.533(2) -0.262(1) -0.394(3)
C6 C -0.109(3) -0.376(1) -0.258(4)
C7 C -0.370(3) -0.370(1) -0.326(5)
C8 C -0.084(3) -0.277(1) -0.321(4)
O4 O -0.012(2) -0.258(1) -0.145(3)
O5 O -0.048(2) -0.282(1) -0.483(3)
N2 N -0.484(2) -0.299(1) 0.075(3)
C9 C -0.610(3) -0.294(1) 0.085(4)
O6 O -0.668(2) -0.255(1) 0.055(3)
C10 C -0.678(3) -0.338(1) 0.140(5)
O7 O -0.633(2) -0.375(1) 0.086(4)
C11 C -0.684(3) -0.389(1) -0.125(4)
C12 C -0.648(4) -0.430(1) -0.169(5)
C13 C -0.697(4) -0.447(1) -0.372(6)
C14 C -0.789(4) -0.421(1) -0.550(6)
C15 C -0.827(4) -0.384(1) -0.491(6)
C16 C -0.773(3) -0.362(1) -0.287(4)
S2 S -0.194(1) -0.083 -0.257(1)
C17 C -0.226(2) -0.071(1) 0.004(4)
C18 C -0.229(2) -0.122(1) 0.103(4)
N3 N -0.292(2) -0.151(1) -0.086(3)
C19 C -0.252(3) -0.143(1) -0.281(4)
C20 C -0.404(2) -0.153(1) -0.411(4)
C21 C -0.431(2) -0.154(1) -0.195(4)
O8 O -0.534(2) -0.156(1) -0.138(3)
C22 C -0.105(3) -0.041(1) 0.142(5)
C23 C -0.370(3) -0.050(1) -0.038(5)
C24 C -0.083(3) -0.140(1) 0.240(4)
O9 O -0.012(2) -0.158(1) 0.133(3)
O10 O -0.048(2) -0.135(1) 0.430(3)
N4 N -0.484(2) -0.117(1) -0.559(3)
C25 C -0.613(3) -0.122(1) -0.702(4)
O11 O -0.668(2) -0.162(1) -0.723(3)
C26 C -0.680(3) -0.081(1) -0.820(5)
O12 O -0.629(2) -0.040(1) -0.714(3)
C27 C -0.687(3) -0.026(1) -0.566(5)
C28 C -0.774(3) -0.054(1) -0.478(5)
C29 C -0.824(4) -0.033(1) -0.323(6)
C30 C -0.783(4) 0.008(1) -0.253(6)
C31 C -0.695(4) 0.033(1) -0.313(6)
C32 C -0.644(4) 0.015(1) -0.473(6)
H1 H -0.291 -0.295 -0.477
H2 H -0.183 -0.256 0.124
H3 H -0.421 -0.236 0.085
H4 H -0.439 -0.330 0.113
H5 H -0.781 -0.336 0.073
H6 H -0.662 -0.339 0.301
H7 H -0.584 -0.450 -0.054
H8 H -0.659 -0.479 -0.399
H9 H -0.818 -0.438 -0.690
H10 H -0.900 -0.367 -0.611
H11 H -0.797 -0.330 -0.259
H12 H -0.287 -0.120 0.199
H13 H -0.186 -0.162 -0.322
H14 H -0.417 -0.181 -0.496
H15 H -0.438 -0.088 -0.552
H16 H -0.783 -0.084 -0.851
H17 H -0.668 -0.082 -0.969
H18 H -0.802 -0.084 -0.530
H19 H -0.886 -0.054 -0.268
H20 H -0.827 0.023 -0.145
H21 H -0.665 0.067 -0.255
H22 H -0.570 0.032 -0.513
O6_2 O 0.332(2) -0.255(1) 0.055(3)
O11_2 O 0.332(2) -0.162(1) 0.277(3)
Ca1_2 Ca -0.856(1) -0.208 0.071(1)
Ca1_3 Ca -0.856(1) -0.208 -0.929(1)
loop_
_geom_bond_atom_site_label_1
_geom_bond_atom_site_label_2
_geom_bond_site_symmetry_1
_geom_bond_site_symmetry_2
Ca1 O1 1_555 1_555
O2 Ca1 1_555 1_555
S1 C1 1_555 1_555
C1 C2 1_555 1_555
C2 N1 1_555 1_555
N1 C3 1_555 1_555
C3 S1 1_555 1_555
C4 C3 1_555 1_555
C5 N1 1_555 1_555
O3 C5 1_555 1_555
C6 C1 1_555 1_555
C7 C1 1_555 1_555
C8 C2 1_555 1_555
O4 Ca1 1_555 1_555
O5 C8 1_555 1_555
N2 C4 1_555 1_555
C9 N2 1_555 1_555
O6 C9 1_555 1_555
C10 C9 1_555 1_555
O7 C10 1_555 1_555
C11 O7 1_555 1_555
C12 C11 1_555 1_555
C13 C12 1_555 1_555
C14 C13 1_555 1_555
C15 C14 1_555 1_555
C16 C11 1_555 1_555
S2 C17 1_555 1_555
C17 C18 1_555 1_555
C18 N3 1_555 1_555
N3 C19 1_555 1_555
C19 S2 1_555 1_555
C20 C19 1_555 1_555
C21 N3 1_555 1_555
O8 C21 1_555 1_555
C22 C17 1_555 1_555
C23 C17 1_555 1_555
C24 C18 1_555 1_555
O9 Ca1 1_555 1_555
O10 C24 1_555 1_555
N4 C20 1_555 1_555
C25 N4 1_555 1_555
O11 C25 1_555 1_555
C26 C25 1_555 1_555
O12 C26 1_555 1_555
C27 O12 1_555 1_555
C28 C27 1_555 1_555
C29 C28 1_555 1_555
C30 C29 1_555 1_555
C31 C30 1_555 1_555
C32 C27 1_555 1_555
H1 C2 1_555 1_555
H2 C3 1_555 1_555
H3 C4 1_555 1_555
H4 N2 1_555 1_555
H5 C10 1_555 1_555
H6 C10 1_555 1_555
H7 C12 1_555 1_555
H8 C13 1_555 1_555
H9 C14 1_555 1_555
H10 C15 1_555 1_555
H11 C16 1_555 1_555
H12 C18 1_555 1_555
H13 C19 1_555 1_555
H14 C20 1_555 1_555
H15 N4 1_555 1_555
H16 C26 1_555 1_555
H17 C26 1_555 1_555
H18 C28 1_555 1_555
H19 C29 1_555 1_555
H20 C30 1_555 1_555
H21 C31 1_555 1_555
H22 C32 1_555 1_555
O6_2 Ca1 1_555 1_555
O11_2 Ca1 1_555 1_555
Ca1_2 O6 1_555 1_555
Ca1_3 O11 1_555 1_555
C4 C5 1_555 1_555
C8 O4 1_555 1_555
C15 C16 1_555 1_555
C20 C21 1_555 1_555
C24 O9 1_555 1_555
C31 C32 1_555 1_555

#END
