
#######################################################################
#
#                 Cambridge Crystallographic Data Centre
#                                CCDC 
#
#######################################################################
#
# If this CIF has been generated from an entry in the Cambridge 
# Structural Database, then it will include bibliographic, chemical, 
# crystal, experimental, refinement or atomic coordinate data resulting 
# from the CCDC's data processing and validation procedures.
#
#######################################################################

data_GADFOG01
_symmetry_cell_setting           orthorhombic
_symmetry_space_group_name_H-M   'C 2 2 21'
_symmetry_Int_Tables_number      20
_space_group_name_Hall           'C 2n 2'
loop_
_symmetry_equiv_pos_site_id
_symmetry_equiv_pos_as_xyz
1 x,y,z
2 -x,-y,1/2+z
3 x,-y,-z
4 -x,y,1/2-z
5 1/2+x,1/2+y,z
6 1/2-x,1/2-y,1/2+z
7 1/2+x,1/2-y,-z
8 1/2-x,1/2+y,1/2-z
_cell_length_a                   19.036(10)
_cell_length_b                   6.508(2)
_cell_length_c                   29.178(18)
_cell_angle_alpha                90
_cell_angle_beta                 90
_cell_angle_gamma                90
_cell_volume                     3614.75
loop_
_atom_site_label
_atom_site_type_symbol
_atom_site_fract_x
_atom_site_fract_y
_atom_site_fract_z
Ca1 Ca 0.572 0.50000 0.00000
S1 S 0.40325 0.65975 0.12550
O1 O 0.58275 0.18975 -0.04250
O2 O 0.23325 0.37175 0.053
O3 O 0.494 0.361 0.05
O4 O 0.476 0.0435 0.0735
O5 O 0.166 0.889 0.0465
O6 O 0.1845 0.901 0.1675
N1 N 0.35425 0.43975 0.0575
N2 N 0.258 0.817 0.091
C1 C 0.38625 0.38175 0.1375
C2 C 0.38575 0.28425 0.086
C3 C 0.37425 0.65325 0.0655
C4 C 0.297 0.714 0.055
C5 C 0.28375 0.47725 0.054
C6 C 0.4465 0.301 0.1675
C7 C 0.315 0.356 0.16
C8 C 0.45825 0.21975 0.0685
C9 C 0.19425 0.89275 0.086
C10 C 0.1605 0.9795 0.1285
C11 C 0.15725 0.71975 0.1815
C12 C 0.177 0.653 0.2225
C13 C 0.152 0.471 0.24
C14 C 0.107 0.353 0.2145
C15 C 0.08725 0.41675 0.1755
C16 C 0.11325 0.59525 0.154
O1B O 0.58275 0.81025 0.04250
S1B S 0.40325 0.34025 -0.12550
O2B O 0.23325 0.62825 -0.053
O3B O 0.494 0.639 -0.05
O4B O 0.476 0.9565 -0.0735
O5B O 0.166 0.111 -0.0465
O6B O 0.1845 0.099 -0.1675
N1B N 0.35425 0.56025 -0.0575
N2B N 0.258 0.183 -0.091
C1B C 0.38625 0.61825 -0.1375
C2B C 0.38575 0.71575 -0.086
C3B C 0.37425 0.34675 -0.0655
C4B C 0.297 0.286 -0.055
C5B C 0.28375 0.52275 -0.054
C6B C 0.4465 0.699 -0.1675
C7B C 0.315 0.644 -0.16
C8B C 0.45825 0.78025 -0.0685
C9B C 0.19425 0.10725 -0.086
C10B C 0.1605 0.0205 -0.1285
C11B C 0.15725 0.28025 -0.1815
C12B C 0.177 0.347 -0.2225
C13B C 0.152 0.529 -0.24
C14B C 0.107 0.647 -0.2145
C15B C 0.08725 0.58325 -0.1755
C16B C 0.11325 0.40475 -0.154
O5D O 0.666 0.389 0.0465
O5F O 0.666 0.611 -0.0465
Ca1D Ca 0.072 1.00000 0.00000
Ca1D_2 Ca 0.072 0.00000 0.00000
loop_
_geom_bond_atom_site_label_1
_geom_bond_atom_site_label_2
_geom_bond_site_symmetry_1
_geom_bond_site_symmetry_2
Ca1 O1 1_555 1_555
S1 C1 1_555 1_555
O2 C5 1_555 1_555
O3 Ca1 1_555 1_555
O4 C8 1_555 1_555
O5 C9 1_555 1_555
O6 C10 1_555 1_555
N1 C2 1_555 1_555
N2 C4 1_555 1_555
C1 C2 1_555 1_555
C2 C8 1_555 1_555
C3 S1 1_555 1_555
C4 C3 1_555 1_555
C5 N1 1_555 1_555
C6 C1 1_555 1_555
C7 C1 1_555 1_555
C8 O3 1_555 1_555
C9 N2 1_555 1_555
C10 C9 1_555 1_555
C11 O6 1_555 1_555
C12 C11 1_555 1_555
C13 C12 1_555 1_555
C14 C13 1_555 1_555
C15 C14 1_555 1_555
C16 C11 1_555 1_555
O1B Ca1 1_555 1_555
S1B C1B 1_555 1_555
O2B C5B 1_555 1_555
O3B Ca1 1_555 1_555
O4B C8B 1_555 1_555
O5B C9B 1_555 1_555
O6B C10B 1_555 1_555
N1B C2B 1_555 1_555
N2B C4B 1_555 1_555
C1B C2B 1_555 1_555
C2B C8B 1_555 1_555
C3B S1B 1_555 1_555
C4B C3B 1_555 1_555
C5B N1B 1_555 1_555
C6B C1B 1_555 1_555
C7B C1B 1_555 1_555
C8B O3B 1_555 1_555
C9B N2B 1_555 1_555
C10B C9B 1_555 1_555
C11B O6B 1_555 1_555
C12B C11B 1_555 1_555
C13B C12B 1_555 1_555
C14B C13B 1_555 1_555
C15B C14B 1_555 1_555
C16B C11B 1_555 1_555
O5D Ca1 1_555 1_555
O5F Ca1 1_555 1_555
Ca1D O5 1_555 1_555
Ca1D_2 O5B 1_555 1_555
N1 C3 1_555 1_555
C4 C5 1_555 1_555
C15 C16 1_555 1_555
N1B C3B 1_555 1_555
C4B C5B 1_555 1_555
C15B C16B 1_555 1_555

#END
