
#######################################################################
#
#                 Cambridge Crystallographic Data Centre
#                                CCDC 
#
#######################################################################
#
# If this CIF has been generated from an entry in the Cambridge 
# Structural Database, then it will include bibliographic, chemical, 
# crystal, experimental, refinement or atomic coordinate data resulting 
# from the CCDC's data processing and validation procedures.
#
#######################################################################

data_GADFUM
_symmetry_cell_setting           monoclinic
_symmetry_space_group_name_H-M   'P 21/c'
_symmetry_Int_Tables_number      14
_space_group_name_Hall           '-P 2ybc'
loop_
_symmetry_equiv_pos_site_id
_symmetry_equiv_pos_as_xyz
1 x,y,z
2 -x,1/2+y,1/2-z
3 -x,-y,-z
4 x,1/2-y,1/2+z
_cell_length_a                   17.955(3)
_cell_length_b                   17.100(6)
_cell_length_c                   12.570(3)
_cell_angle_alpha                90
_cell_angle_beta                 92.48(2)
_cell_angle_gamma                90
_cell_volume                     3855.76
loop_
_atom_site_label
_atom_site_type_symbol
_atom_site_fract_x
_atom_site_fract_y
_atom_site_fract_z
Ho1 Ho 0.2546(1) -0.0011(1) 0.1108(1)
O1 O 0.322(1) 0.095(1) 0.212(1)
O2 O 0.333(1) -0.068(1) 0.248(1)
O3 O 0.188(1) 0.022(1) 0.260(2)
S1 S 0.0842(4) -0.050(5) -0.0120(6)
O4 O 0.132(1) 0.009(1) 0.053(1)
C1 C 0.033(2) 0.004(2) -0.114(2)
C2 C 0.007(2) -0.076(2) 0.071(2)
S2 S 0.4100(4) 0.0253(5) -0.0446(6)
O5 O 0.374(1) -0.016(1) 0.052(1)
C3 C 0.470(1) -0.046(2) -0.101(2)
C4 C 0.484(2) 0.085(2) 0.019(2)
S3 S 0.2209(4) -0.2120(4) 0.1464(5)
O6 O 0.217(1) -0.127(1) 0.107(1)
C5 C 0.312(1) -0.244(2) 0.120(2)
C6 C 0.169(2) -0.266(2) 0.043(2)
S4 S 0.2848(5) -0.2705(5) -0.0982(6)
O7 O 0.292(1) -0.357(1) -0.077(2)
C7 C 0.193(1) -0.247(2) -0.070(2)
C8 C 0.337(2) -0.220(2) 0.010(2)
S5 S 0.1974(5) 0.1558(5) -0.0543(6)
O8 O 0.254(1) 0.118(1) 0.027(1)
C9 C 0.154(2) 0.233(2) 0.021(2)
C10 C 0.255(1) 0.217(2) -0.136(2)
S6 S 0.2687(5) 0.3423(5) 0.0061(6)
O9 O 0.216(1) 0.385(1) -0.067(2)
C11 C 0.210(2) 0.279(2) 0.086(2)
C12 C 0.311(2) 0.267(2) -0.069(2)
Re3 Re 0.2463(1) -0.0405(1) -0.2209(1)
O20 O 0.183(1) -0.105(1) -0.265(2)
O21 O 0.247(1) -0.036(1) -0.079(1)
O22 O 0.326(1) -0.066(1) -0.256(1)
O23 O 0.221(1) 0.047(2) -0.273(2)
C2B C -0.007(2) 0.076(2) -0.071(2)
S1B S -0.0842(4) 0.050(5) 0.0120(6)
O4B O -0.132(1) -0.009(1) -0.053(1)
C1B C -0.033(2) -0.004(2) 0.114(2)
C4B C 0.516(2) -0.085(2) -0.019(2)
S2B S 0.5900(4) -0.0253(5) 0.0446(6)
O5B O 0.626(1) 0.016(1) -0.052(1)
C3B C 0.530(1) 0.046(2) 0.101(2)
Ho1B Ho -0.2546(1) 0.0011(1) -0.1108(1)
O1B O -0.322(1) -0.095(1) -0.212(1)
O2B O -0.333(1) 0.068(1) -0.248(1)
O3B O -0.188(1) -0.022(1) -0.260(2)
S3B S -0.2209(4) 0.2120(4) -0.1464(5)
O6B O -0.217(1) 0.127(1) -0.107(1)
C5B C -0.312(1) 0.244(2) -0.120(2)
C6B C -0.169(2) 0.266(2) -0.043(2)
S4B S -0.2848(5) 0.2705(5) 0.0982(6)
O7B O -0.292(1) 0.357(1) 0.077(2)
C7B C -0.193(1) 0.247(2) 0.070(2)
C8B C -0.337(2) 0.220(2) -0.010(2)
S5B S -0.1974(5) -0.1558(5) 0.0543(6)
O8B O -0.254(1) -0.118(1) -0.027(1)
C9B C -0.154(2) -0.233(2) -0.021(2)
C10B C -0.255(1) -0.217(2) 0.136(2)
S6B S -0.2687(5) -0.3423(5) -0.0061(6)
O9B O -0.216(1) -0.385(1) 0.067(2)
C11B C -0.210(2) -0.279(2) -0.086(2)
C12B C -0.311(2) -0.267(2) 0.069(2)
O21B O -0.247(1) 0.036(1) 0.079(1)
Re3B Re -0.2463(1) 0.0405(1) 0.2209(1)
O20B O -0.183(1) 0.105(1) 0.265(2)
O22B O -0.326(1) 0.066(1) 0.256(1)
O23B O -0.221(1) -0.047(2) 0.273(2)
Ho1B_2 Ho 0.7454(1) 0.0011(1) -0.1108(1)
O5B_2 O -0.374(1) 0.016(1) -0.052(1)
S7 S 0.9569(5) 0.4284(5) 0.0740(6)
O10 O 0.942(1) 0.479(1) 0.169(2)
C13 C 1.051(2) 0.435(2) 0.047(2)
C14 C 0.919(2) 0.480(2) -0.045(2)
C14B C 1.081(2) 0.520(2) 0.045(2)
S7B S 1.0431(5) 0.5716(5) -0.0740(6)
O10B O 1.058(1) 0.521(1) -0.169(2)
C13B C 0.949(2) 0.565(2) -0.047(2)
S8 S 0.4445(5) 0.0770(5) 0.4550(7)
O11 O 0.434(1) 0.040(1) 0.342(2)
C15 C 0.419(2) 0.001(2) 0.540(2)
C16 C 0.540(2) 0.082(2) 0.478(2)
C16B C 0.460(2) -0.082(2) 0.522(2)
S8B S 0.5555(5) -0.0770(5) 0.5450(7)
O11B O 0.566(1) -0.040(1) 0.658(2)
C15B C 0.581(2) -0.001(2) 0.460(2)
Re1 Re 1.0043(1) 0.2363(1) 0.2553(1)
O12 O 0.931(1) 0.290(1) 0.257(2)
O13 O 1.080(1) 0.289(1) 0.258(2)
O14 O 0.995(1) 0.180(2) 0.143(2)
O15 O 1.005(2) 0.177(2) 0.362(2)
Re2 Re 0.4740(1) 0.2796(1) 0.2356(1)
O16 O 0.393(1) 0.240(1) 0.185(2)
O17 O 0.475(1) 0.379(1) 0.240(2)
O18 O 0.543(1) 0.258(2) 0.161(2)
O19 O 0.499(1) 0.242(1) 0.361(2)
loop_
_geom_bond_atom_site_label_1
_geom_bond_atom_site_label_2
_geom_bond_site_symmetry_1
_geom_bond_site_symmetry_2
Ho1 O1 1_555 1_555
O2 Ho1 1_555 1_555
O3 Ho1 1_555 1_555
S1 O4 1_555 1_555
O4 Ho1 1_555 1_555
C1 S1 1_555 1_555
C2 S1 1_555 1_555
S2 O5 1_555 1_555
O5 Ho1 1_555 1_555
C3 S2 1_555 1_555
C4 S2 1_555 1_555
S3 O6 1_555 1_555
O6 Ho1 1_555 1_555
C5 S3 1_555 1_555
C6 S3 1_555 1_555
S4 O7 1_555 1_555
C7 C6 1_555 1_555
C8 C5 1_555 1_555
S5 O8 1_555 1_555
O8 Ho1 1_555 1_555
C9 S5 1_555 1_555
C10 S5 1_555 1_555
S6 O9 1_555 1_555
C11 C9 1_555 1_555
C12 C10 1_555 1_555
S7 O10 1_555 1_555
C13 S7 1_555 1_555
C14 S7 1_555 1_555
S8 O11 1_555 1_555
C15 S8 1_555 1_555
C16 S8 1_555 1_555
Re1 O12 1_555 1_555
O13 Re1 1_555 1_555
O14 Re1 1_555 1_555
O15 Re1 1_555 1_555
Re2 O16 1_555 1_555
O17 Re2 1_555 1_555
O18 Re2 1_555 1_555
O19 Re2 1_555 1_555
Re3 O20 1_555 1_555
O21 Ho1 1_555 1_555
O22 Re3 1_555 1_555
O23 Re3 1_555 1_555
C2B C1 1_555 1_555
S1B C2B 1_555 1_555
O4B S1B 1_555 1_555
C1B C2 1_555 1_555
C4B C3 1_555 1_555
S2B C4B 1_555 1_555
O5B S2B 1_555 1_555
C3B C4 1_555 1_555
C14B C13 1_555 1_555
S7B C14B 1_555 1_555
O10B S7B 1_555 1_555
C13B C14 1_555 1_555
C16B C15 1_555 1_555
S8B C16B 1_555 1_555
O11B S8B 1_555 1_555
C15B C16 1_555 1_555
Ho1B O4B 1_555 1_555
O1B Ho1B 1_555 1_555
O2B Ho1B 1_555 1_555
O3B Ho1B 1_555 1_555
S3B O6B 1_555 1_555
O6B Ho1B 1_555 1_555
C5B S3B 1_555 1_555
C6B S3B 1_555 1_555
S4B O7B 1_555 1_555
C7B C6B 1_555 1_555
C8B C5B 1_555 1_555
S5B O8B 1_555 1_555
O8B Ho1B 1_555 1_555
C9B S5B 1_555 1_555
C10B S5B 1_555 1_555
S6B O9B 1_555 1_555
C11B C9B 1_555 1_555
C12B C10B 1_555 1_555
O21B Ho1B 1_555 1_555
Re3B O21B 1_555 1_555
O20B Re3B 1_555 1_555
O22B Re3B 1_555 1_555
O23B Re3B 1_555 1_555
Ho1B_2 O5B 1_555 1_555
O5B_2 Ho1B 1_555 1_555
S4 C8 1_555 1_555
S4 C7 1_555 1_555
S6 C11 1_555 1_555
S6 C12 1_555 1_555
Re3 O21 1_555 1_555
S1B C1B 1_555 1_555
S2B C3B 1_555 1_555
S7B C13B 1_555 1_555
S8B C15B 1_555 1_555
S4B C8B 1_555 1_555
S4B C7B 1_555 1_555
S6B C11B 1_555 1_555
S6B C12B 1_555 1_555

#END
