
#######################################################################
#
#                 Cambridge Crystallographic Data Centre
#                                CCDC 
#
#######################################################################
#
# If this CIF has been generated from an entry in the Cambridge 
# Structural Database, then it will include bibliographic, chemical, 
# crystal, experimental, refinement or atomic coordinate data resulting 
# from the CCDC's data processing and validation procedures.
#
#######################################################################

data_GADLED
_symmetry_cell_setting           monoclinic
_symmetry_space_group_name_H-M   'C 2/c'
_symmetry_Int_Tables_number      15
_space_group_name_Hall           '-C 2yn'
loop_
_symmetry_equiv_pos_site_id
_symmetry_equiv_pos_as_xyz
1 x,y,z
2 x,-y,1/2+z
3 1/2+x,1/2+y,z
4 1/2+x,1/2-y,1/2+z
5 -x,-y,-z
6 -x,y,1/2-z
7 1/2-x,1/2-y,-z
8 1/2-x,1/2+y,1/2-z
_cell_length_a                   14.2021(12)
_cell_length_b                   7.2102(16)
_cell_length_c                   15.368(3)
_cell_angle_alpha                90
_cell_angle_beta                 103.945(9)
_cell_angle_gamma                90
_cell_volume                     1527.3
loop_
_atom_site_label
_atom_site_type_symbol
_atom_site_fract_x
_atom_site_fract_y
_atom_site_fract_z
Hg1 Hg 0.268279(17) 0.14614(4) 0.32713(2)
Br1 Br 0.33117(5) -0.04035(12) 0.20344(6)
O1 O 0.1321(4) -0.0441(10) 0.3206(5)
O2 O 0.2229(4) -0.0051(9) 0.4559(5)
N1 N -0.0863(4) -0.2817(8) 0.4192(4)
C1 C 0.1481(5) -0.0665(11) 0.4020(7)
C2 C 0.0742(4) -0.1631(9) 0.4409(5)
C3 C -0.0155(5) -0.2103(10) 0.3863(5)
H1 H -0.0265 -0.1914 0.3248
C4 C -0.0706(5) -0.3119(9) 0.5078(5)
H2 H -0.1205 -0.3621 0.5300
C5 C 0.0156(5) -0.2721(10) 0.5666(5)
H3 H 0.0244 -0.2938 0.6277
C6 C 0.0902(5) -0.1977(10) 0.5324(6)
H4 H 0.1502 -0.1715 0.5706
Br1G Br 0.16883(5) 0.45965(12) 0.29656(6)
N1B N 0.4137(4) 0.2183(8) 0.4192(4)
Hg1G Hg 0.231721(17) -0.35386(4) 0.17287(2)
Hg1B Hg -0.231721(17) -0.35386(4) 0.32713(2)
loop_
_geom_bond_atom_site_label_1
_geom_bond_atom_site_label_2
_geom_bond_site_symmetry_1
_geom_bond_site_symmetry_2
Hg1 Br1 1_555 1_555
Br1 Hg1G 1_555 1_555
O1 Hg1 1_555 1_555
O2 Hg1 1_555 1_555
N1 C3 1_555 1_555
C1 O1 1_555 1_555
C2 C1 1_555 1_555
C3 C2 1_555 1_555
H1 C3 1_555 1_555
C4 N1 1_555 1_555
H2 C4 1_555 1_555
C5 C4 1_555 1_555
H3 C5 1_555 1_555
C6 C2 1_555 1_555
H4 C6 1_555 1_555
Br1G Hg1 1_555 1_555
N1B Hg1 1_555 1_555
Hg1B N1 1_555 1_555
O2 C1 1_555 1_555
C5 C6 1_555 1_555

#END
