
#######################################################################
#
#                 Cambridge Crystallographic Data Centre
#                                CCDC 
#
#######################################################################
#
# If this CIF has been generated from an entry in the Cambridge 
# Structural Database, then it will include bibliographic, chemical, 
# crystal, experimental, refinement or atomic coordinate data resulting 
# from the CCDC's data processing and validation procedures.
#
#######################################################################

data_GADNIJ
_symmetry_cell_setting           orthorhombic
_symmetry_space_group_name_H-M   'P n m a'
_symmetry_Int_Tables_number      62
_space_group_name_Hall           '-P 2ac 2n'
loop_
_symmetry_equiv_pos_site_id
_symmetry_equiv_pos_as_xyz
1 x,y,z
2 1/2+x,y,1/2-z
3 x,1/2-y,z
4 1/2-x,1/2+y,1/2+z
5 -x,-y,-z
6 1/2-x,-y,1/2+z
7 -x,1/2+y,-z
8 1/2+x,1/2-y,1/2-z
_cell_length_a                   7.563(3)
_cell_length_b                   29.885(3)
_cell_length_c                   8.2254(9)
_cell_angle_alpha                90
_cell_angle_beta                 90
_cell_angle_gamma                90
_cell_volume                     1859.11
loop_
_atom_site_label
_atom_site_type_symbol
_atom_site_fract_x
_atom_site_fract_y
_atom_site_fract_z
Ba1 Ba 0.01796(4) 0.2500 0.37889(4)
O1 O -0.3428(6) 0.2500 0.4358(5)
O2 O 0.2176(9) 0.2500 0.6680(7)
O3 O -0.0924(7) 0.32007(17) 0.5805(7)
C1 C -0.1844(5) 0.38326(14) 0.0582(5)
C2 C -0.1016(5) 0.41538(15) -0.0396(5)
C3 C -0.1642(6) 0.45974(15) -0.0356(6)
H1 H -0.1099 0.4814 -0.0995
C4 C -0.3059(7) 0.47142(16) 0.0624(6)
H2 H -0.3461 0.5008 0.0639
C5 C -0.3873(8) 0.43974(19) 0.1574(7)
H3 H -0.4828 0.4476 0.2227
C6 C -0.3256(7) 0.39562(17) 0.1552(6)
H4 H -0.3805 0.3742 0.2200
C7 C -0.1234(6) 0.33539(14) 0.0627(5)
O4 O -0.1906(4) 0.30882(10) 0.1648(4)
O5 O -0.0029(5) 0.32452(14) -0.0361(6)
S1 S 0.07991(19) 0.40320(5) -0.16599(18)
H5 H 0.1020 0.3635 -0.1710
O3B O -0.0924(7) 0.17993(17) 0.5805(7)
C1A C 0.3156(5) 0.38326(14) 0.4418(5)
C2A C 0.3984(5) 0.41538(15) 0.5396(5)
C3A C 0.3358(6) 0.45974(15) 0.5356(6)
H1A H 0.3901 0.4814 0.5995
C4A C 0.1941(7) 0.47142(16) 0.4376(6)
H2A H 0.1539 0.5008 0.4361
C5A C 0.1127(8) 0.43974(19) 0.3426(7)
H3A H 0.0172 0.4476 0.2773
C6A C 0.1744(7) 0.39562(17) 0.3448(6)
H4A H 0.1195 0.3742 0.2800
C7A C 0.3766(6) 0.33539(14) 0.4373(5)
O4A O 0.3094(4) 0.30882(10) 0.3352(4)
O5A O 0.4971(5) 0.32452(14) 0.5361(6)
S1A S 0.57991(19) 0.40320(5) 0.66599(18)
H5A H 0.6020 0.3635 0.6710
O1A O 0.1572(6) 0.2500 0.0642(5)
O4B O -0.1906(4) 0.19118(10) 0.1648(4)
O4G O 0.3094(4) 0.19118(10) 0.3352(4)
Ba1A Ba 0.51796(4) 0.2500 0.12111(4)
Ba1A_2 Ba -0.48204(4) 0.2500 0.12111(4)
loop_
_geom_bond_atom_site_label_1
_geom_bond_atom_site_label_2
_geom_bond_site_symmetry_1
_geom_bond_site_symmetry_2
Ba1 O1 1_555 1_555
O1 Ba1A_2 1_555 1_555
O2 Ba1 1_555 1_555
O3 Ba1 1_555 1_555
C1 C2 1_555 1_555
C2 C3 1_555 1_555
C3 H1 1_555 1_555
C4 C3 1_555 1_555
H2 C4 1_555 1_555
C5 C4 1_555 1_555
H3 C5 1_555 1_555
C6 C1 1_555 1_555
H4 C6 1_555 1_555
C7 C1 1_555 1_555
O4 Ba1 1_555 1_555
O5 C7 1_555 1_555
S1 C2 1_555 1_555
H5 S1 1_555 1_555
O3B Ba1 1_555 1_555
C1A C2A 1_555 1_555
C2A C3A 1_555 1_555
C3A H1A 1_555 1_555
C4A C3A 1_555 1_555
H2A C4A 1_555 1_555
C5A C4A 1_555 1_555
H3A C5A 1_555 1_555
C6A C1A 1_555 1_555
H4A C6A 1_555 1_555
C7A C1A 1_555 1_555
O4A Ba1 1_555 1_555
O5A C7A 1_555 1_555
S1A C2A 1_555 1_555
H5A S1A 1_555 1_555
O1A Ba1 1_555 1_555
O4B Ba1 1_555 1_555
O4G Ba1 1_555 1_555
Ba1A O4A 1_555 1_555
Ba1A_2 O4 1_555 1_555
C5 C6 1_555 1_555
C7 O4 1_555 1_555
C5A C6A 1_555 1_555
C7A O4A 1_555 1_555
O1A Ba1A 1_555 1_555
O4B Ba1A_2 1_555 1_555
O4G Ba1A 1_555 1_555

#END
