
#######################################################################
#
#                 Cambridge Crystallographic Data Centre
#                                CCDC 
#
#######################################################################
#
# If this CIF has been generated from an entry in the Cambridge 
# Structural Database, then it will include bibliographic, chemical, 
# crystal, experimental, refinement or atomic coordinate data resulting 
# from the CCDC's data processing and validation procedures.
#
#######################################################################

data_GADNIK
_symmetry_cell_setting           triclinic
_symmetry_space_group_name_H-M   'P -1'
_symmetry_Int_Tables_number      2
_space_group_name_Hall           '-P 1'
loop_
_symmetry_equiv_pos_site_id
_symmetry_equiv_pos_as_xyz
1 x,y,z
2 -x,-y,-z
_cell_length_a                   9.0554(6)
_cell_length_b                   10.6974(7)
_cell_length_c                   12.9134(8)
_cell_angle_alpha                93.0200(10)
_cell_angle_beta                 96.8560(10)
_cell_angle_gamma                108.6540(10)
_cell_volume                     1171.22
loop_
_atom_site_label
_atom_site_type_symbol
_atom_site_fract_x
_atom_site_fract_y
_atom_site_fract_z
Ho1 Ho 0.40938(3) 0.04963(3) 0.366162(19)
Ho2 Ho 0.12841(3) 0.08900(2) -0.106215(19)
Co1 Co 0.84994(10) 0.28677(8) 0.27327(6)
C1 C 0.1667(7) 0.4302(6) 0.0660(5)
C2 C 0.2540(7) 0.4207(6) -0.0251(5)
O1 O 0.2306(6) 0.3049(4) -0.0683(4)
O2 O 0.3607(5) -0.1757(4) 0.3556(3)
O3 O 0.5528(5) -0.2829(5) 0.3448(3)
O4 O 0.4898(5) -0.2314(4) 0.5137(3)
O5 O 0.2999(6) -0.4027(4) 0.3968(4)
S1 S 0.42312(18) -0.27583(14) 0.40216(11)
O6 O 0.3345(6) 0.5236(5) -0.0548(4)
O7 O 0.3839(5) 0.0029(4) 0.1875(3)
S2 S 0.27345(16) -0.07717(14) 0.09663(11)
O8 O 0.2796(5) 0.0072(4) 0.0102(3)
O9 O 0.3254(5) -0.1875(4) 0.0664(4)
O10 O 0.1137(5) -0.1263(5) 0.1261(3)
C3 C 0.0163(7) 0.1951(6) 0.1218(4)
C4 C 0.0683(7) 0.3400(6) 0.1206(5)
O11 O 0.0644(5) 0.1200(4) 0.0651(3)
N1 N 0.0133(6) 0.4080(5) 0.1923(4)
N2 N 0.1703(7) 0.5524(5) 0.1067(4)
C5 C 0.0774(8) 0.5352(6) 0.1815(5)
H1 H 0.0603 0.6035 0.2206
O12 O -0.0804(5) 0.1454(4) 0.1827(3)
C6 C 0.7394(7) 0.1005(5) 0.4232(4)
C7 C 0.9074(7) 0.1644(6) 0.4638(4)
N3 N 0.9910(6) 0.2561(5) 0.4022(4)
O13 O 0.6859(5) 0.1376(4) 0.3391(3)
C8 C 0.9811(7) 0.0822(6) 0.6442(4)
C9 C 1.0060(7) 0.1542(6) 0.5506(4)
C10 C 1.1380(7) 0.3008(6) 0.4524(5)
H2 H 1.2209 0.3650 0.4298
N4 N 1.1504(6) 0.2410(5) 0.5394(4)
O14 O 0.6453(5) 0.0157(4) 0.4689(3)
O15 O 0.8516(5) -0.0046(4) 0.6481(3)
O16 O 1.0955(5) 0.1190(5) 0.7185(3)
H3 H 0.227(9) 0.627(7) 0.083(6)
H4 H 1.236(9) 0.252(7) 0.575(6)
O17 O 0.3641(5) 0.1279(5) -0.1721(4)
H5 H 0.458(3) 0.153(7) -0.144(5)
H6 H 0.368(7) 0.167(6) -0.225(3)
O18 O 0.3742(7) 0.2315(5) 0.2763(4)
H7 H 0.439(7) 0.307(4) 0.277(6)
H8 H 0.324(8) 0.219(7) 0.218(3)
O19 O 0.6591(6) 0.2532(5) 0.1510(4)
H9 H 0.614(8) 0.304(6) 0.159(5)
H10 H 0.622(8) 0.205(6) 0.098(4)
O20 O 0.7898(6) 0.4287(5) 0.3606(4)
H11 H 0.706(5) 0.434(9) 0.332(5)
H12 H 0.772(9) 0.407(9) 0.419(3)
Ho1A Ho 0.59062(3) -0.04963(3) 0.633838(19)
Ho2A Ho -0.12841(3) -0.08900(2) 0.106215(19)
Ho2_2 Ho 1.12841(3) 0.08900(2) 0.893785(19)
Co1_2 Co -0.15006(10) 0.28677(8) 0.27327(6)
O4A O 0.5102(5) 0.2314(4) 0.4863(3)
O10A O -0.1137(5) 0.1263(5) -0.1261(3)
O11A O -0.0644(5) -0.1200(4) -0.0651(3)
N1_2 N 1.0133(6) 0.4080(5) 0.1923(4)
O12A O 0.0804(5) -0.1454(4) -0.1827(3)
O12_2 O 0.9196(5) 0.1454(4) 0.1827(3)
O14A O 0.3547(5) -0.0157(4) 0.5311(3)
O15A O 0.1484(5) 0.0046(4) 0.3519(3)
O16_2 O 0.0955(5) 0.1190(5) -0.2815(3)
O21 O 0.5538(7) 0.4844(5) 0.2456(4)
H13 H 0.531(10) 0.551(5) 0.269(6)
H14 H 0.588(10) 0.504(8) 0.186(4)
loop_
_geom_bond_atom_site_label_1
_geom_bond_atom_site_label_2
_geom_bond_site_symmetry_1
_geom_bond_site_symmetry_2
Ho1 O2 1_555 1_555
Ho2 O1 1_555 1_555
Co1 N3 1_555 1_555
C1 C2 1_555 1_555
C2 O1 1_555 1_555
O2 S1 1_555 1_555
O3 S1 1_555 1_555
O4 S1 1_555 1_555
O5 S1 1_555 1_555
O6 C2 1_555 1_555
O7 Ho1 1_555 1_555
S2 O7 1_555 1_555
O8 Ho2 1_555 1_555
O9 S2 1_555 1_555
O10 S2 1_555 1_555
C3 C4 1_555 1_555
C4 C1 1_555 1_555
O11 Ho2 1_555 1_555
N1 C4 1_555 1_555
N2 C1 1_555 1_555
C5 N1 1_555 1_555
H1 C5 1_555 1_555
O12 C3 1_555 1_555
C6 C7 1_555 1_555
C7 N3 1_555 1_555
N3 C10 1_555 1_555
O13 Ho1 1_555 1_555
C8 C9 1_555 1_555
C9 C7 1_555 1_555
C10 H2 1_555 1_555
N4 C9 1_555 1_555
O14 Ho1 1_555 1_555
O15 C8 1_555 1_555
O16 C8 1_555 1_555
H3 N2 1_555 1_555
H4 N4 1_555 1_555
O17 Ho2 1_555 1_555
H5 O17 1_555 1_555
H6 O17 1_555 1_555
O18 Ho1 1_555 1_555
H7 O18 1_555 1_555
H8 O18 1_555 1_555
O19 Co1 1_555 1_555
H9 O19 1_555 1_555
H10 O19 1_555 1_555
O20 Co1 1_555 1_555
H11 O20 1_555 1_555
H12 O20 1_555 1_555
O21 H13 1_555 1_555
H14 O21 1_555 1_555
Ho1A O4 1_555 1_555
Ho2A O10 1_555 1_555
Ho2_2 O16 1_555 1_555
Co1_2 N1 1_555 1_555
O4A Ho1 1_555 1_555
O10A Ho2 1_555 1_555
O11A Ho2 1_555 1_555
N1_2 Co1 1_555 1_555
O12A Ho2 1_555 1_555
O12_2 Co1 1_555 1_555
O14A Ho1 1_555 1_555
O15A Ho1 1_555 1_555
O16_2 Ho2 1_555 1_555
Co1 O13 1_555 1_555
S2 O8 1_555 1_555
C3 O11 1_555 1_555
O11 Ho2A 1_555 1_555
N2 C5 1_555 1_555
O12 Ho2A 1_555 1_555
O12 Co1_2 1_555 1_555
C6 O13 1_555 1_555
C6 O14 1_555 1_555
C10 N4 1_555 1_555
O14 Ho1A 1_555 1_555
O15 Ho1A 1_555 1_555
Ho1A O14A 1_555 1_555
Ho2A O11A 1_555 1_555

#END
