
#######################################################################
#
#                 Cambridge Crystallographic Data Centre
#                                CCDC 
#
#######################################################################
#
# If this CIF has been generated from an entry in the Cambridge 
# Structural Database, then it will include bibliographic, chemical, 
# crystal, experimental, refinement or atomic coordinate data resulting 
# from the CCDC's data processing and validation procedures.
#
#######################################################################

data_GADNOQ
_symmetry_cell_setting           triclinic
_symmetry_space_group_name_H-M   'P -1'
_symmetry_Int_Tables_number      2
_space_group_name_Hall           '-P 1'
loop_
_symmetry_equiv_pos_site_id
_symmetry_equiv_pos_as_xyz
1 x,y,z
2 -x,-y,-z
_cell_length_a                   9.0298(7)
_cell_length_b                   10.6490(9)
_cell_length_c                   12.8499(11)
_cell_angle_alpha                92.9150(10)
_cell_angle_beta                 97.2780(10)
_cell_angle_gamma                108.5440(10)
_cell_volume                     1156.56
loop_
_atom_site_label
_atom_site_type_symbol
_atom_site_fract_x
_atom_site_fract_y
_atom_site_fract_z
Yb1 Yb -0.40879(2) -0.54975(2) 0.132970(16)
Yb2 Yb 0.12774(2) -0.41116(2) 0.395530(16)
Co1 Co -0.84692(8) -0.78585(7) 0.22740(5)
S1 S -0.27265(14) -0.42325(12) 0.40182(9)
S2 S -0.57697(15) -0.77406(13) -0.09824(10)
C1 C -0.9055(6) -0.6626(5) 0.0359(4)
O1 O -0.3826(4) -0.5022(4) 0.3096(3)
N1 N 0.0104(5) -0.0935(4) 0.6923(3)
C2 C 0.0749(7) 0.0348(5) 0.6821(4)
H1 H 0.0577 0.1036 0.7210
C3 C 0.0682(6) -0.1608(5) 0.6206(4)
O2 O -0.5087(5) -0.7305(3) 0.0141(3)
O3 O -0.6404(4) -0.6732(4) -0.1443(3)
O4 O -0.4480(4) -0.7817(4) -0.1563(3)
O5 O -0.6995(5) -0.9015(4) -0.1037(4)
C4 C 0.0158(6) -0.3055(5) 0.6213(4)
O6 O -0.0826(4) -0.3571(3) 0.6822(3)
O7 O 0.0636(4) -0.3817(3) 0.5650(3)
N2 N 0.1693(6) 0.0508(5) 0.6069(4)
C5 C 0.1663(6) -0.0708(5) 0.5660(4)
C6 C 0.2522(6) -0.0818(5) 0.4757(4)
O8 O 0.3341(5) 0.0222(4) 0.4463(3)
O9 O 0.2321(5) -0.1973(4) 0.4337(3)
O10 O -0.2803(4) -0.5092(4) 0.4886(3)
O11 O -0.3249(4) -0.3120(3) 0.4333(3)
O12 O -0.1117(4) -0.3722(4) 0.3748(3)
N3 N -0.9900(5) -0.7559(4) 0.0969(3)
C7 C -1.1351(6) -0.7981(5) 0.0473(4)
H2 H -1.2183 -0.8609 0.0711
C8 C -0.7374(6) -0.5997(5) 0.0758(4)
O13 O -0.6825(4) -0.6366(4) 0.1611(3)
N4 N -1.1497(5) -0.7405(5) -0.0413(3)
C9 C -1.0044(6) -0.6538(5) -0.0523(4)
O14 O -0.6433(4) -0.5153(3) 0.0307(3)
C10 C -0.9785(6) -0.5824(5) -0.1472(4)
O15 O -0.8488(4) -0.4938(3) -0.1492(3)
O16 O -1.0928(4) -0.6184(4) -0.2208(3)
H3 H 0.220(8) 0.119(6) 0.593(5)
H4 H -1.238(4) -0.744(6) -0.078(4)
O17 O -0.3721(5) -0.7317(4) 0.2204(3)
H5 H -0.392(8) -0.705(5) 0.275(3)
H6 H -0.429(7) -0.809(3) 0.208(5)
O18 O 0.3609(4) -0.3747(4) 0.3305(3)
H7 H 0.378(6) -0.341(6) 0.276(3)
H8 H 0.449(4) -0.361(6) 0.364(4)
O19 O -0.6525(5) -0.7514(4) 0.3497(3)
H9 H -0.670(8) -0.801(4) 0.396(3)
H10 H -0.619(8) -0.678(3) 0.383(4)
O20 O -0.7891(6) -0.9298(4) 0.1397(3)
H11 H -0.767(8) -0.912(7) 0.082(3)
H12 H -0.728(7) -0.966(7) 0.165(5)
Yb1A Yb -0.59121(2) -0.45025(2) -0.132970(16)
Yb2A Yb -0.12774(2) -0.58884(2) 0.604470(16)
Yb2A_2 Yb -1.12774(2) -0.58884(2) -0.395530(16)
Co1A Co -0.15308(8) -0.21415(7) 0.77260(5)
N1A N -1.0104(5) -0.9065(4) 0.3077(3)
O3A O -0.3596(4) -0.3268(4) 0.1443(3)
O6A O -0.9174(4) -0.6429(3) 0.3178(3)
O6A_2 O 0.0826(4) -0.6429(3) 0.3178(3)
O7A O -0.0636(4) -0.6183(3) 0.4350(3)
O10A O 0.2803(4) -0.4908(4) 0.5114(3)
O14A O -0.3567(4) -0.4847(3) -0.0307(3)
O15A O -0.1512(4) -0.5062(3) 0.1492(3)
O16A O 0.0928(4) -0.3816(4) 0.2208(3)
O21 O -0.5511(6) 0.0141(5) 0.2548(4)
H13 H -0.522(8) -0.052(5) 0.236(5)
H14 H -0.582(9) 0.003(7) 0.315(3)
loop_
_geom_bond_atom_site_label_1
_geom_bond_atom_site_label_2
_geom_bond_site_symmetry_1
_geom_bond_site_symmetry_2
Yb1 O1 1_555 1_555
Yb2 O7 1_555 1_555
Co1 N3 1_555 1_555
S1 O1 1_555 1_555
S2 O2 1_555 1_555
C1 N3 1_555 1_555
N1 C2 1_555 1_555
C2 H1 1_555 1_555
C3 N1 1_555 1_555
O2 Yb1 1_555 1_555
O3 S2 1_555 1_555
O4 S2 1_555 1_555
O5 S2 1_555 1_555
C4 C3 1_555 1_555
O6 C4 1_555 1_555
O7 C4 1_555 1_555
N2 C2 1_555 1_555
C5 C3 1_555 1_555
C6 C5 1_555 1_555
O8 C6 1_555 1_555
O9 Yb2 1_555 1_555
O10 S1 1_555 1_555
O11 S1 1_555 1_555
O12 Yb2 1_555 1_555
N3 C7 1_555 1_555
C7 H2 1_555 1_555
C8 C1 1_555 1_555
O13 Yb1 1_555 1_555
N4 C7 1_555 1_555
C9 C1 1_555 1_555
O14 Yb1 1_555 1_555
C10 C9 1_555 1_555
O15 C10 1_555 1_555
O16 C10 1_555 1_555
H3 N2 1_555 1_555
H4 N4 1_555 1_555
O17 Yb1 1_555 1_555
H5 O17 1_555 1_555
H6 O17 1_555 1_555
O18 Yb2 1_555 1_555
H7 O18 1_555 1_555
H8 O18 1_555 1_555
O19 Co1 1_555 1_555
H9 O19 1_555 1_555
H10 O19 1_555 1_555
O20 Co1 1_555 1_555
H11 O20 1_555 1_555
H12 O20 1_555 1_555
O21 H13 1_555 1_555
H14 O21 1_555 1_555
Yb1A O3 1_555 1_555
Yb2A O6 1_555 1_555
Yb2A_2 O16 1_555 1_555
Co1A N1 1_555 1_555
N1A Co1 1_555 1_555
O3A Yb1 1_555 1_555
O6A Co1 1_555 1_555
O6A_2 Yb2 1_555 1_555
O7A Yb2 1_555 1_555
O10A Yb2 1_555 1_555
O14A Yb1 1_555 1_555
O15A Yb1 1_555 1_555
O16A Yb2 1_555 1_555
Co1 O13 1_555 1_555
S1 O12 1_555 1_555
O6 Co1A 1_555 1_555
O7 Yb2A 1_555 1_555
N2 C5 1_555 1_555
C6 O9 1_555 1_555
O10 Yb2A 1_555 1_555
C8 O13 1_555 1_555
C8 O14 1_555 1_555
N4 C9 1_555 1_555
O14 Yb1A 1_555 1_555
O15 Yb1A 1_555 1_555
Yb1A O14A 1_555 1_555
Yb2A O7A 1_555 1_555

#END
