
#######################################################################
#
#                 Cambridge Crystallographic Data Centre
#                                CCDC 
#
#######################################################################
#
# If this CIF has been generated from an entry in the Cambridge 
# Structural Database, then it will include bibliographic, chemical, 
# crystal, experimental, refinement or atomic coordinate data resulting 
# from the CCDC's data processing and validation procedures.
#
#######################################################################

data_GADPIM
_symmetry_cell_setting           monoclinic
_symmetry_space_group_name_H-M   'P 21/n'
_symmetry_Int_Tables_number      14
_space_group_name_Hall           '-P 2yn'
loop_
_symmetry_equiv_pos_site_id
_symmetry_equiv_pos_as_xyz
1 x,y,z
2 1/2-x,1/2+y,1/2-z
3 -x,-y,-z
4 1/2+x,1/2-y,1/2+z
_cell_length_a                   9.5649(10)
_cell_length_b                   16.0084(17)
_cell_length_c                   12.6827(14)
_cell_angle_alpha                90
_cell_angle_beta                 90.697(2)
_cell_angle_gamma                90
_cell_volume                     1941.82
loop_
_atom_site_label
_atom_site_type_symbol
_atom_site_fract_x
_atom_site_fract_y
_atom_site_fract_z
Zn1 Zn 1.20109(7) 0.54308(4) 0.84940(6)
C1 C 1.3836(6) 0.3846(4) 0.5062(5)
C2 C 1.4891(6) 0.3246(4) 0.4905(5)
H1 H 1.5673 0.3222 0.5347
C3 C 1.4729(6) 0.2699(4) 0.4081(5)
C4 C 1.3598(6) 0.2731(4) 0.3387(5)
H2 H 1.3525 0.2367 0.2817
C5 C 1.2586(6) 0.3325(4) 0.3576(5)
C6 C 1.2681(6) 0.3879(4) 0.4408(5)
H3 H 1.1977 0.4267 0.4524
C7 C 1.5130(7) 0.4598(4) 0.6511(5)
H4 H 1.6043 0.4442 0.6361
C8 C 1.4709(6) 0.5077(4) 0.7327(5)
H5 H 1.5295 0.5309 0.7838
C9 C 1.2854(6) 0.4746(4) 0.6442(5)
H6 H 1.1927 0.4703 0.6218
C10 C 1.7105(8) 0.2068(5) 0.4289(9)
H7 H 1.7599 0.2534 0.4523
C11 C 1.7602(8) 0.1276(5) 0.4183(9)
H8 H 1.8520 0.1112 0.4316
C12 C 1.5424(7) 0.1238(4) 0.3732(5)
H9 H 1.4549 0.1052 0.3508
C13 C 1.0610(9) 0.2689(5) 0.2503(7)
H10 H 1.0836 0.2128 0.2586
C14 C 0.9500(9) 0.2992(5) 0.1986(7)
H11 H 0.8816 0.2677 0.1642
C15 C 1.0625(7) 0.4019(4) 0.2645(6)
H12 H 1.0850 0.4555 0.2871
I1 I 1.33334(6) 0.61302(4) 0.99912(5)
N1 N 1.3270(5) 0.5166(3) 0.7279(4)
N2 N 1.3942(5) 0.4385(3) 0.5947(4)
N3 N 1.6539(5) 0.0753(3) 0.3849(5)
N4 N 1.5731(5) 0.2037(3) 0.3981(5)
N5 N 0.9540(6) 0.3862(3) 0.2052(4)
N6 N 1.1375(6) 0.3366(3) 0.2897(4)
Zn1C Zn 1.70109(7) -0.04308(4) 0.34940(6)
Zn1B Zn 0.79891(7) 0.45692(4) 0.15060(6)
N3C N 1.1539(5) 0.4247(3) 0.8849(5)
N5B N 1.0460(6) 0.6138(3) 0.7948(4)
I2 I 0.10377(5) 0.61520(3) 0.41144(4)
loop_
_geom_bond_atom_site_label_1
_geom_bond_atom_site_label_2
_geom_bond_site_symmetry_1
_geom_bond_site_symmetry_2
Zn1 I1 1_555 1_555
C1 C2 1_555 1_555
C2 H1 1_555 1_555
C3 C2 1_555 1_555
C4 C3 1_555 1_555
H2 C4 1_555 1_555
C5 C4 1_555 1_555
C6 C1 1_555 1_555
H3 C6 1_555 1_555
C7 H4 1_555 1_555
C8 C7 1_555 1_555
H5 C8 1_555 1_555
C9 H6 1_555 1_555
C10 H7 1_555 1_555
C11 C10 1_555 1_555
H8 C11 1_555 1_555
C12 H9 1_555 1_555
C13 H10 1_555 1_555
C14 C13 1_555 1_555
H11 C14 1_555 1_555
C15 H12 1_555 1_555
N1 Zn1 1_555 1_555
N2 C1 1_555 1_555
N3 C11 1_555 1_555
N4 C3 1_555 1_555
N5 C14 1_555 1_555
N6 C5 1_555 1_555
Zn1C N3 1_555 1_555
Zn1B N5 1_555 1_555
N3C Zn1 1_555 1_555
N5B Zn1 1_555 1_555
C5 C6 1_555 1_555
C7 N2 1_555 1_555
C8 N1 1_555 1_555
C9 N1 1_555 1_555
C9 N2 1_555 1_555
C10 N4 1_555 1_555
C12 N3 1_555 1_555
C12 N4 1_555 1_555
C13 N6 1_555 1_555
C15 N5 1_555 1_555
C15 N6 1_555 1_555

#END
