
#######################################################################
#
#                 Cambridge Crystallographic Data Centre
#                                CCDC 
#
#######################################################################
#
# If this CIF has been generated from an entry in the Cambridge 
# Structural Database, then it will include bibliographic, chemical, 
# crystal, experimental, refinement or atomic coordinate data resulting 
# from the CCDC's data processing and validation procedures.
#
#######################################################################

data_GADPUY
_symmetry_cell_setting           triclinic
_symmetry_space_group_name_H-M   'P -1'
_symmetry_Int_Tables_number      2
_space_group_name_Hall           '-P 1'
loop_
_symmetry_equiv_pos_site_id
_symmetry_equiv_pos_as_xyz
1 x,y,z
2 -x,-y,-z
_cell_length_a                   6.5329(3)
_cell_length_b                   8.1345(3)
_cell_length_c                   14.0855(5)
_cell_angle_alpha                90.364(2)
_cell_angle_beta                 92.104(2)
_cell_angle_gamma                92.058(2)
_cell_volume                     747.521
loop_
_atom_site_label
_atom_site_type_symbol
_atom_site_fract_x
_atom_site_fract_y
_atom_site_fract_z
C1 C 0.6566(3) 0.3711(3) 0.40236(14)
C2 C 0.6314(3) 0.5549(3) 0.40113(14)
C3 C 0.4709(3) 0.6323(3) 0.35598(14)
C4 C 0.4673(4) 0.8035(3) 0.36199(17)
H1 H 0.3575 0.8587 0.3352
C5 C 0.6272(4) 0.8901(3) 0.40784(18)
H2 H 0.6279 1.0043 0.4113
C6 C 0.7846(4) 0.8058(3) 0.44811(16)
H3 H 0.8945 0.8646 0.4773
C7 C 0.3044(3) 0.5420(3) 0.29598(15)
Cu1 Cu 1.0000 0.5000 0.5000
N1 N 0.7864(3) 0.6415(2) 0.44704(12)
O1 O 0.8211(2) 0.3235(2) 0.44364(11)
O2 O 0.5232(3) 0.2795(2) 0.36444(13)
O3 O 0.1325(2) 0.5219(2) 0.32953(11)
O4 O 0.3522(2) 0.5043(2) 0.21272(11)
C1A C 1.3434(3) 0.6289(3) 0.59764(14)
C2A C 1.3686(3) 0.4451(3) 0.59887(14)
C3A C 1.5291(3) 0.3677(3) 0.64402(14)
C4A C 1.5327(4) 0.1965(3) 0.63801(17)
H1A H 1.6425 0.1413 0.6648
C5A C 1.3728(4) 0.1099(3) 0.59216(18)
H2A H 1.3721 -0.0043 0.5887
C6A C 1.2154(4) 0.1942(3) 0.55189(16)
H3A H 1.1055 0.1354 0.5227
C7A C 1.6956(3) 0.4580(3) 0.70402(15)
Cu1_2 Cu 0.0000 0.5000 0.5000
Cu1_3 Cu 2.0000 0.5000 0.5000
N1A N 1.2136(3) 0.3585(2) 0.55296(12)
O1A O 1.1789(2) 0.6765(2) 0.55636(11)
O2A O 1.4768(3) 0.7205(2) 0.63556(13)
O3A O 1.8675(2) 0.4781(2) 0.67047(11)
O3_2 O 1.1325(2) 0.5219(2) 0.32953(11)
O3A_2 O 0.8675(2) 0.4781(2) 0.67047(11)
O4A O 1.6478(2) 0.4957(2) 0.78728(11)
C8 C 0.8482(3) 0.4029(3) 0.11439(15)
C9 C 0.6970(4) 0.3517(4) 0.04512(17)
H4 H 0.5623 0.3837 0.0492
C10 C 0.7525(4) 0.2557(3) -0.02679(17)
H5 H 0.6543 0.2211 -0.0728
C11 C 1.0983(4) 0.2510(3) 0.03220(17)
H11 H 0.990(5) 0.150(4) -0.078(2)
H12 H 1.136(4) 0.388(4) 0.137(2)
N2 N 0.9473(3) 0.2082(3) -0.03397(15)
N3 N 1.0412(3) 0.3560(3) 0.10285(14)
N4 N 0.8084(4) 0.4935(3) 0.18821(16)
O5 O 1.2719(3) 0.2018(3) 0.02821(14)
H13 H 0.916(5) 0.509(4) 0.244(2)
H14 H 0.700(5) 0.515(4) 0.194(2)
H6 H 0.013(7) 0.188(6) 0.345(3)
O6 O 0.0982(4) 0.1338(3) 0.32885(17)
H15 H 0.216(9) 0.201(8) 0.325(4)
H7 H 0.443(6) 0.124(5) 0.138(2)
H9 H 0.455(13) 0.140(9) 0.237(4)
O7 O 0.5008(4) 0.0701(3) 0.18978(18)
H8 H 0.773(3) 0.991(6) 0.180(3)
H10 H 0.975(5) 1.034(5) 0.223(2)
O8 O 0.9116(4) 0.9732(4) 0.17595(19)
loop_
_geom_bond_atom_site_label_1
_geom_bond_atom_site_label_2
_geom_bond_site_symmetry_1
_geom_bond_site_symmetry_2
C1 C2 1_555 1_555
C2 C3 1_555 1_555
C3 C4 1_555 1_555
C4 H1 1_555 1_555
C5 C4 1_555 1_555
H2 C5 1_555 1_555
C6 C5 1_555 1_555
H3 C6 1_555 1_555
C7 C3 1_555 1_555
C8 C9 1_555 1_555
C9 H4 1_555 1_555
C10 C9 1_555 1_555
H5 C10 1_555 1_555
C11 N2 1_555 1_555
Cu1 N1 1_555 1_555
H6 O6 1_555 1_555
H7 O7 1_555 1_555
H8 O8 1_555 1_555
H9 O7 1_555 1_555
H10 O8 1_555 1_555
H11 N2 1_555 1_555
H12 N3 1_555 1_555
N1 C2 1_555 1_555
N2 C10 1_555 1_555
N3 C8 1_555 1_555
N4 C8 1_555 1_555
O1 C1 1_555 1_555
O2 C1 1_555 1_555
O3 C7 1_555 1_555
O4 C7 1_555 1_555
O5 C11 1_555 1_555
O6 H15 1_555 1_555
H13 N4 1_555 1_555
H14 N4 1_555 1_555
C1A C2A 1_555 1_555
C2A C3A 1_555 1_555
C3A C4A 1_555 1_555
C4A H1A 1_555 1_555
C5A C4A 1_555 1_555
H2A C5A 1_555 1_555
C6A C5A 1_555 1_555
H3A C6A 1_555 1_555
C7A C3A 1_555 1_555
Cu1_2 O3 1_555 1_555
Cu1_3 O3A 1_555 1_555
N1A Cu1 1_555 1_555
O1A Cu1 1_555 1_555
O2A C1A 1_555 1_555
O3A C7A 1_555 1_555
O3_2 Cu1 1_555 1_555
O3A_2 Cu1 1_555 1_555
O4A C7A 1_555 1_555
C6 N1 1_555 1_555
C11 N3 1_555 1_555
Cu1 O1 1_555 1_555
C1A O1A 1_555 1_555
C2A N1A 1_555 1_555
C6A N1A 1_555 1_555

#END
