
#######################################################################
#
#                 Cambridge Crystallographic Data Centre
#                                CCDC 
#
#######################################################################
#
# If this CIF has been generated from an entry in the Cambridge 
# Structural Database, then it will include bibliographic, chemical, 
# crystal, experimental, refinement or atomic coordinate data resulting 
# from the CCDC's data processing and validation procedures.
#
#######################################################################

data_GADPEI
_symmetry_cell_setting           monoclinic
_symmetry_space_group_name_H-M   'P 21/n'
_symmetry_Int_Tables_number      14
_space_group_name_Hall           '-P 2yn'
loop_
_symmetry_equiv_pos_site_id
_symmetry_equiv_pos_as_xyz
1 x,y,z
2 1/2-x,1/2+y,1/2-z
3 -x,-y,-z
4 1/2+x,1/2-y,1/2+z
_cell_length_a                   10.917(2)
_cell_length_b                   18.998(3)
_cell_length_c                   12.486(2)
_cell_angle_alpha                90
_cell_angle_beta                 108.934(3)
_cell_angle_gamma                90
_cell_volume                     2449.49
loop_
_atom_site_label
_atom_site_type_symbol
_atom_site_fract_x
_atom_site_fract_y
_atom_site_fract_z
C1 C 0.3457(3) 0.44218(17) 0.4961(3)
C2 C 0.2882(3) 0.48852(17) 0.4086(3)
H1 H 0.3087 0.4876 0.3420
C3 C 0.1989(3) 0.53644(18) 0.4232(3)
C4 C 0.1710(3) 0.54014(18) 0.5228(3)
H2 H 0.1118 0.5730 0.5316
C5 C 0.2321(3) 0.49450(18) 0.6093(3)
C6 C 0.3173(3) 0.44413(17) 0.5964(3)
H3 H 0.3550 0.4121 0.6539
C7 C 0.5300(3) 0.35718(18) 0.5708(3)
H4 H 0.5473 0.3642 0.6481
C8 C 0.5894(3) 0.31185(18) 0.5226(3)
H5 H 0.6555 0.2813 0.5616
C9 C 0.4478(3) 0.36559(17) 0.3871(3)
H6 H 0.3972 0.3800 0.3152
C10 C 0.1074(4) 0.5720(2) 0.2194(3)
H7 H 0.1315 0.5331 0.1854
C11 C 0.0391(3) 0.62760(19) 0.1669(3)
H8 H 0.0067 0.6336 0.0888
C12 C 0.0835(4) 0.64653(19) 0.3443(3)
H9 H 0.0897 0.6673 0.4133
C13 C 0.1328(4) 0.5495(2) 0.7445(3)
H10 H 0.0827 0.5840 0.6975
C14 C 0.1444(4) 0.5386(2) 0.8535(3)
H11 H 0.1028 0.5644 0.8948
C15 C 0.2609(4) 0.4623(2) 0.8092(3)
H12 H 0.3163 0.4245 0.8134
C16 C 1.0517(3) 0.21551(18) 0.4996(3)
H13 H 1.0556 0.2627 0.5321
C17 C 1.1895(3) 0.1911(2) 0.5220(3)
H14 H 1.2348 0.1919 0.6029
H15 H 1.1890 0.1430 0.4961
C18 C 1.2610(4) 0.2370(2) 0.4630(3)
H16 H 1.3462 0.2171 0.4741
H17 H 1.2727 0.2835 0.4968
C19 C 1.1899(4) 0.2432(2) 0.3385(4)
H18 H 1.2355 0.2761 0.3054
H19 H 1.1892 0.1978 0.3029
C20 C 1.0520(3) 0.2682(2) 0.3144(3)
H20 H 1.0524 0.3164 0.3402
H21 H 1.0074 0.2674 0.2334
C21 C 0.9797(3) 0.2217(2) 0.3736(3)
H22 H 0.9759 0.1744 0.3414
C22 C 0.9836(3) 0.16858(18) 0.5597(3)
C23 C 0.8403(4) 0.2464(2) 0.3488(4)
Cl1 Cl 0.41293(11) 0.52435(5) 1.17562(9)
Cl2 Cl 0.16214(9) 0.38933(5) 1.12176(8)
N1 N 0.5388(3) 0.31687(14) 0.4074(2)
N2 N 0.4381(3) 0.39170(14) 0.4843(2)
N3 N 0.0236(3) 0.67477(15) 0.2450(2)
N4 N 0.1349(3) 0.58341(15) 0.3332(2)
N5 N 0.2259(3) 0.48412(15) 0.8940(2)
N6 N 0.2079(3) 0.50071(14) 0.7155(2)
O1 O 1.0058(3) 0.17274(13) 0.6635(2)
O2 O 0.9067(2) 0.12386(13) 0.5002(2)
O3 O 0.8175(3) 0.2957(2) 0.4037(3)
O4 O 0.7540(3) 0.21697(16) 0.2731(3)
Zn1 Zn 0.58903(4) 0.26284(2) 0.28759(3)
Zn2 Zn 0.30278(4) 0.44350(2) 1.05244(3)
N3A N 0.4764(3) 0.17477(15) 0.2550(2)
O1C O 0.5058(3) 0.32726(13) 0.1635(2)
O2C O 0.4067(2) 0.37614(13) 1.0002(2)
Zn1A Zn -0.08903(4) 0.76284(2) 0.21241(3)
Zn1C Zn 1.08903(4) 0.23716(2) 0.78759(3)
Zn2C Zn 0.80278(4) 0.05650(2) 0.55244(3)
loop_
_geom_bond_atom_site_label_1
_geom_bond_atom_site_label_2
_geom_bond_site_symmetry_1
_geom_bond_site_symmetry_2
C1 C2 1_555 1_555
C2 H1 1_555 1_555
C3 C2 1_555 1_555
C4 C3 1_555 1_555
H2 C4 1_555 1_555
C5 C4 1_555 1_555
C6 C1 1_555 1_555
H3 C6 1_555 1_555
C7 H4 1_555 1_555
C8 C7 1_555 1_555
H5 C8 1_555 1_555
C9 H6 1_555 1_555
C10 H7 1_555 1_555
C11 C10 1_555 1_555
H8 C11 1_555 1_555
C12 H9 1_555 1_555
C13 H10 1_555 1_555
C14 C13 1_555 1_555
H11 C14 1_555 1_555
C15 H12 1_555 1_555
C16 H13 1_555 1_555
C17 C16 1_555 1_555
H14 C17 1_555 1_555
H15 C17 1_555 1_555
C18 C17 1_555 1_555
H16 C18 1_555 1_555
H17 C18 1_555 1_555
C19 C18 1_555 1_555
H18 C19 1_555 1_555
H19 C19 1_555 1_555
C20 C19 1_555 1_555
H20 C20 1_555 1_555
H21 C20 1_555 1_555
C21 C16 1_555 1_555
H22 C21 1_555 1_555
C22 C16 1_555 1_555
C23 C21 1_555 1_555
Cl1 Zn2 1_555 1_555
Cl2 Zn2 1_555 1_555
N1 C8 1_555 1_555
N2 C1 1_555 1_555
N3 C11 1_555 1_555
N4 C3 1_555 1_555
N5 C14 1_555 1_555
N6 C5 1_555 1_555
O1 C22 1_555 1_555
O2 C22 1_555 1_555
O3 C23 1_555 1_555
O4 C23 1_555 1_555
Zn1 N1 1_555 1_555
Zn2 N5 1_555 1_555
N3A Zn1 1_555 1_555
O1C Zn1 1_555 1_555
O2C Zn2 1_555 1_555
Zn1A N3 1_555 1_555
Zn1C O1 1_555 1_555
Zn2C O2 1_555 1_555
C5 C6 1_555 1_555
C7 N2 1_555 1_555
C9 N1 1_555 1_555
C9 N2 1_555 1_555
C10 N4 1_555 1_555
C12 N3 1_555 1_555
C12 N4 1_555 1_555
C13 N6 1_555 1_555
C15 N5 1_555 1_555
C15 N6 1_555 1_555
C20 C21 1_555 1_555
O4 Zn1 1_555 1_555

#END
