
#######################################################################
#
#                 Cambridge Crystallographic Data Centre
#                                CCDC 
#
#######################################################################
#
# If this CIF has been generated from an entry in the Cambridge 
# Structural Database, then it will include bibliographic, chemical, 
# crystal, experimental, refinement or atomic coordinate data resulting 
# from the CCDC's data processing and validation procedures.
#
#######################################################################

data_GADPOS
_symmetry_cell_setting           triclinic
_symmetry_space_group_name_H-M   'P -1'
_symmetry_Int_Tables_number      2
_space_group_name_Hall           '-P 1'
loop_
_symmetry_equiv_pos_site_id
_symmetry_equiv_pos_as_xyz
1 x,y,z
2 -x,-y,-z
_cell_length_a                   6.6148(7)
_cell_length_b                   8.9184(13)
_cell_length_c                   13.4019(13)
_cell_angle_alpha                77.094(8)
_cell_angle_beta                 80.684(8)
_cell_angle_gamma                75.215(8)
_cell_volume                     740.507
loop_
_atom_site_label
_atom_site_type_symbol
_atom_site_fract_x
_atom_site_fract_y
_atom_site_fract_z
C1 C 1.1524(11) 0.1068(8) 0.3694(5)
C2 C 1.0605(11) 0.1910(8) 0.4576(5)
C3 C 0.8589(11) 0.2867(9) 0.4640(5)
C4 C 0.7980(13) 0.3633(10) 0.5461(6)
C5 C 0.9292(14) 0.3474(11) 0.6179(6)
C6 C 1.1288(13) 0.2499(9) 0.6066(6)
C7 C 0.7033(11) 0.3075(9) 0.3871(5)
H2 H 0.678(13) 0.424(9) 0.559(6)
H3 H 0.896(14) 0.407(11) 0.677(7)
H4 H 1.226(15) 0.245(11) 0.655(7)
Mn1 Mn 1.5000 0.0000 0.5000
N1 N 1.1920(10) 0.1713(7) 0.5300(4)
O1 O 1.3231(8) 0.0035(6) 0.3770(4)
O2 O 1.0527(9) 0.1466(7) 0.2919(4)
O3 O 0.5997(8) 0.2047(6) 0.3984(4)
O4 O 0.6818(9) 0.4304(7) 0.3217(4)
C1A C 1.8476(11) -0.1068(8) 0.6306(5)
C2A C 1.9395(11) -0.1910(8) 0.5424(5)
C3A C 2.1411(11) -0.2867(9) 0.5360(5)
C4A C 2.2020(13) -0.3633(10) 0.4539(6)
C5A C 2.0708(14) -0.3474(11) 0.3821(6)
C6A C 1.8712(13) -0.2499(9) 0.3934(6)
C7A C 2.2967(11) -0.3075(9) 0.6129(5)
H2A H 2.322(13) -0.424(9) 0.441(6)
H3A H 2.104(14) -0.407(11) 0.323(7)
H4A H 1.774(15) -0.245(11) 0.345(7)
Mn1_2 Mn 0.5000 0.0000 0.5000
Mn1_3 Mn 2.5000 0.0000 0.5000
N1A N 1.8080(10) -0.1713(7) 0.4700(4)
O1A O 1.6769(8) -0.0035(6) 0.6230(4)
O2A O 1.9473(9) -0.1466(7) 0.7081(4)
O3A O 2.4003(8) -0.2047(6) 0.6016(4)
O3_2 O 1.5997(8) 0.2047(6) 0.3984(4)
O3A_2 O 1.4003(8) -0.2047(6) 0.6016(4)
O4A O 2.3182(9) -0.4304(7) 0.6783(4)
C8 C 0.6870(13) 0.0602(10) 0.1854(6)
H1 H 0.6731 0.0672 0.2545
C9 C 0.7542(11) -0.0294(9) 0.0471(5)
C10 C 0.8132(11) -0.1174(9) -0.0304(5)
C11 C 0.7023(13) 0.1242(10) -0.1456(6)
C12 C 0.6694(11) 0.1316(9) 0.0207(6)
H5 H 0.706(12) 0.167(9) -0.217(6)
H8 H 0.890(16) -0.316(12) -0.067(8)
H11 H 0.920(12) -0.329(9) 0.045(7)
H12 H 0.817(16) -0.079(12) -0.189(8)
N2 N 0.7651(10) -0.0728(8) 0.1523(5)
N3 N 0.6278(10) 0.1876(8) 0.1095(5)
N4 N 0.6403(11) 0.2150(8) -0.0768(5)
N5 N 0.7852(10) -0.0327(8) -0.1277(5)
N6 N 0.8986(11) -0.2710(8) -0.0169(6)
H13 H 0.540(12) 0.273(7) 0.120(8)
H6 H 0.424(15) 0.546(12) 0.142(8)
H9 H 0.490(17) 0.457(12) 0.228(8)
O5 O 0.4264(10) 0.4636(8) 0.1767(5)
H7 H 0.129(8) 0.482(11) 0.184(7)
H10 H -0.077(16) 0.444(14) 0.221(5)
O6 O 0.0009(10) 0.4838(7) 0.1594(4)
loop_
_geom_bond_atom_site_label_1
_geom_bond_atom_site_label_2
_geom_bond_site_symmetry_1
_geom_bond_site_symmetry_2
C1 C2 1_555 1_555
C2 C3 1_555 1_555
C3 C4 1_555 1_555
C4 C5 1_555 1_555
C5 C6 1_555 1_555
C6 H4 1_555 1_555
C7 C3 1_555 1_555
C8 H1 1_555 1_555
C9 C10 1_555 1_555
C10 N5 1_555 1_555
C11 H5 1_555 1_555
C12 C9 1_555 1_555
H2 C4 1_555 1_555
H3 C5 1_555 1_555
H6 O5 1_555 1_555
H7 O6 1_555 1_555
H8 N6 1_555 1_555
H9 O5 1_555 1_555
H10 O6 1_555 1_555
H11 N6 1_555 1_555
H12 N5 1_555 1_555
Mn1 N1 1_555 1_555
N1 C2 1_555 1_555
N2 C8 1_555 1_555
N3 C8 1_555 1_555
N4 C11 1_555 1_555
N5 C11 1_555 1_555
N6 C10 1_555 1_555
O1 C1 1_555 1_555
O2 C1 1_555 1_555
O3 C7 1_555 1_555
O4 C7 1_555 1_555
H13 N3 1_555 1_555
C1A C2A 1_555 1_555
C2A C3A 1_555 1_555
C3A C4A 1_555 1_555
C4A C5A 1_555 1_555
C5A C6A 1_555 1_555
C6A H4A 1_555 1_555
C7A C3A 1_555 1_555
H2A C4A 1_555 1_555
H3A C5A 1_555 1_555
Mn1_2 O3 1_555 1_555
Mn1_3 O3A 1_555 1_555
N1A Mn1 1_555 1_555
O1A Mn1 1_555 1_555
O2A C1A 1_555 1_555
O3A C7A 1_555 1_555
O3_2 Mn1 1_555 1_555
O3A_2 Mn1 1_555 1_555
O4A C7A 1_555 1_555
C6 N1 1_555 1_555
C9 N2 1_555 1_555
C12 N3 1_555 1_555
C12 N4 1_555 1_555
Mn1 O1 1_555 1_555
C1A O1A 1_555 1_555
C2A N1A 1_555 1_555
C6A N1A 1_555 1_555

#END
