
#######################################################################
#
#                 Cambridge Crystallographic Data Centre
#                                CCDC 
#
#######################################################################
#
# If this CIF has been generated from an entry in the Cambridge 
# Structural Database, then it will include bibliographic, chemical, 
# crystal, experimental, refinement or atomic coordinate data resulting 
# from the CCDC's data processing and validation procedures.
#
#######################################################################

data_GADQEJ
_symmetry_cell_setting           monoclinic
_symmetry_space_group_name_H-M   'P 21/c'
_symmetry_Int_Tables_number      14
_space_group_name_Hall           '-P 2ybc'
loop_
_symmetry_equiv_pos_site_id
_symmetry_equiv_pos_as_xyz
1 x,y,z
2 -x,1/2+y,1/2-z
3 -x,-y,-z
4 x,1/2-y,1/2+z
_cell_length_a                   10.1400(10)
_cell_length_b                   19.1774(19)
_cell_length_c                   11.3096(11)
_cell_angle_alpha                90
_cell_angle_beta                 98.420(2)
_cell_angle_gamma                90
_cell_volume                     2175.55
loop_
_atom_site_label
_atom_site_type_symbol
_atom_site_fract_x
_atom_site_fract_y
_atom_site_fract_z
O10 O 0.0766(6) 0.0075(3) 0.5304(5)
H20 H 0.1086 0.0459 0.5100
H21 H 0.0826 -0.0160 0.4676
O10B O -0.0766(6) -0.0075(3) 0.4696(5)
H20B H -0.1086 -0.0459 0.4900
H21B H -0.0826 0.0160 0.5324
C1 C 0.9608(3) 0.19867(16) 0.5359(3)
H1 H 0.9749 0.2122 0.6158
C2 C 1.0677(3) 0.18777(16) 0.4762(3)
C3 C 1.0471(3) 0.16470(16) 0.3585(3)
H2 H 1.1198 0.1573 0.3185
C4 C 0.9187(3) 0.15259(16) 0.2998(3)
C5 C 0.8122(3) 0.16702(17) 0.3598(3)
H3 H 0.7257 0.1615 0.3203
C6 C 0.8317(3) 0.18956(16) 0.4774(3)
C7 C 0.8923(3) 0.12647(19) 0.1729(3)
H4 H 0.8201 0.0929 0.1673
H5 H 0.8612 0.1654 0.1216
C8 C 1.0069(3) 0.09311(17) 0.1243(3)
C9 C 1.0605(3) 0.12283(17) 0.0307(3)
H6 H 1.0277 0.1653 -0.0008
C10 C 1.1633(3) 0.08982(17) -0.0171(3)
C11 C 1.2122(3) 0.02711(17) 0.0281(3)
H7 H 1.2819 0.0056 -0.0030
C12 C 1.1579(3) -0.00421(17) 0.1202(3)
C13 C 1.0566(3) 0.02933(18) 0.1678(3)
H8 H 1.0211 0.0085 0.2304
C14 C 1.2059(3) 0.20412(17) 0.5381(3)
C15 C 0.7163(3) 0.20414(16) 0.5422(3)
C16 C 1.2096(3) -0.07308(18) 0.1652(3)
C17 C 1.2138(3) 0.12038(18) -0.1231(3)
C18 C 0.4226(3) 0.34762(18) 0.7396(3)
H9 H 0.3758 0.3194 0.7860
C19 C 0.5319(3) 0.38357(19) 0.6030(3)
H10 H 0.5756 0.3843 0.5362
C20 C 0.5195(4) 0.43800(19) 0.6741(3)
H11 H 0.5517 0.4829 0.6661
C21 C 0.4089(4) 0.4554(2) 0.8605(3)
H12 H 0.3486 0.4275 0.9001
H13 H 0.3605 0.4963 0.8277
C22 C 0.5239(4) 0.4782(2) 0.9513(3)
H14 H 0.5857 0.5053 0.9121
H15 H 0.5709 0.4375 0.9867
N1 N 0.4703(3) 0.32627(14) 0.6435(2)
N2 N 0.4498(3) 0.41451(15) 0.7617(2)
O1 O 1.3025(2) 0.19776(14) 0.4787(2)
O2 O 1.2234(2) 0.22395(13) 0.6430(2)
O3 O 0.7345(2) 0.20763(13) 0.6538(2)
O4 O 0.6024(2) 0.21174(14) 0.4810(2)
O5 O 1.1485(3) 0.17492(14) -0.1660(2)
H16 H 1.1666 0.1833 -0.2329
O6 O 1.3077(3) 0.09597(16) -0.1637(3)
O7 O 1.1430(3) -0.09984(15) 0.2445(3)
H17 H 1.1619 -0.1412 0.2536
O8 O 1.3038(3) -0.10084(15) 0.1322(3)
O9 O 0.4861(3) 0.15675(16) 0.7135(3)
H18 H 0.5577 0.1642 0.7610
H19 H 0.4222 0.1584 0.7503
Zn1 Zn 0.46578(3) 0.22865(2) 0.58556(3)
C1_2 C -0.0392(3) 0.19867(16) 0.5359(3)
H1_2 H -0.0251 0.2122 0.6158
C2_2 C 0.0677(3) 0.18777(16) 0.4762(3)
C3_2 C 0.0471(3) 0.16470(16) 0.3585(3)
H2_2 H 0.1198 0.1573 0.3185
C4_2 C -0.0813(3) 0.15259(16) 0.2998(3)
C5_2 C -0.1878(3) 0.16702(17) 0.3598(3)
H3_2 H -0.2743 0.1615 0.3203
C6_2 C -0.1683(3) 0.18956(16) 0.4774(3)
C7_2 C -0.1077(3) 0.12647(19) 0.1729(3)
H4_2 H -0.1799 0.0929 0.1673
H5_2 H -0.1388 0.1654 0.1216
C8_2 C 0.0069(3) 0.09311(17) 0.1243(3)
C9_2 C 0.0605(3) 0.12283(17) 0.0307(3)
H6_2 H 0.0277 0.1653 -0.0008
C10_2 C 0.1633(3) 0.08982(17) -0.0171(3)
C11_2 C 0.2122(3) 0.02711(17) 0.0281(3)
H7_2 H 0.2819 0.0056 -0.0030
C12_2 C 0.1579(3) -0.00421(17) 0.1202(3)
C13_2 C 0.0566(3) 0.02933(18) 0.1678(3)
H8_2 H 0.0211 0.0085 0.2304
C14_2 C 0.2059(3) 0.20412(17) 0.5381(3)
C15_2 C -0.2837(3) 0.20414(16) 0.5422(3)
C16_2 C 0.2096(3) -0.07308(18) 0.1652(3)
C17_2 C 0.2138(3) 0.12038(18) -0.1231(3)
C18B C 0.5774(3) 0.65238(18) 1.2604(3)
H9B H 0.6242 0.6806 1.2140
C19B C 0.4681(3) 0.61643(19) 1.3970(3)
H10B H 0.4244 0.6157 1.4638
C20B C 0.4805(4) 0.56200(19) 1.3259(3)
H11B H 0.4483 0.5171 1.3339
C21B C 0.5911(4) 0.5446(2) 1.1395(3)
H12B H 0.6514 0.5725 1.0999
H13B H 0.6395 0.5037 1.1723
C22B C 0.4761(4) 0.5218(2) 1.0487(3)
H14B H 0.4143 0.4947 1.0879
H15B H 0.4291 0.5625 1.0133
N1B N 0.5297(3) 0.67373(14) 1.3565(2)
N1_2 N -0.5297(3) 0.32627(14) 0.6435(2)
N2B N 0.5502(3) 0.58549(15) 1.2383(2)
O1_2 O 0.3025(2) 0.19776(14) 0.4787(2)
O1_3 O -0.6975(2) 0.19776(14) 0.4787(2)
O2_2 O 0.2234(2) 0.22395(13) 0.6430(2)
O3_2 O -0.2655(2) 0.20763(13) 0.6538(2)
O4_2 O -0.3976(2) 0.21174(14) 0.4810(2)
O5_2 O 0.1485(3) 0.17492(14) -0.1660(2)
H16_2 H 0.1666 0.1833 -0.2329
O6_2 O 0.3077(3) 0.09597(16) -0.1637(3)
O7_2 O 0.1430(3) -0.09984(15) 0.2445(3)
H17_2 H 0.1619 -0.1412 0.2536
O8_2 O 0.3038(3) -0.10084(15) 0.1322(3)
O9_2 O -0.5139(3) 0.15675(16) 0.7135(3)
H18_2 H -0.4423 0.1642 0.7610
H19_2 H -0.5778 0.1584 0.7503
Zn1_2 Zn -0.53422(3) 0.22865(2) 0.58556(3)
Zn1_3 Zn 1.46578(3) 0.22865(2) 0.58556(3)
Zn1B Zn 0.53422(3) 0.77135(2) 1.41444(3)
loop_
_geom_bond_atom_site_label_1
_geom_bond_atom_site_label_2
_geom_bond_site_symmetry_1
_geom_bond_site_symmetry_2
C1 H1 1_555 1_555
C2 C1 1_555 1_555
C3 C2 1_555 1_555
H2 C3 1_555 1_555
C4 C3 1_555 1_555
C5 C4 1_555 1_555
H3 C5 1_555 1_555
C6 C1 1_555 1_555
C7 C4 1_555 1_555
H4 C7 1_555 1_555
H5 C7 1_555 1_555
C8 C7 1_555 1_555
C9 C8 1_555 1_555
H6 C9 1_555 1_555
C10 C9 1_555 1_555
C11 C10 1_555 1_555
H7 C11 1_555 1_555
C12 C11 1_555 1_555
C13 C8 1_555 1_555
H8 C13 1_555 1_555
C14 C2 1_555 1_555
C15 C6 1_555 1_555
C16 C12 1_555 1_555
C17 C10 1_555 1_555
C18 H9 1_555 1_555
C19 H10 1_555 1_555
C20 C19 1_555 1_555
H11 C20 1_555 1_555
C21 H12 1_555 1_555
H13 C21 1_555 1_555
C22 C21 1_555 1_555
H14 C22 1_555 1_555
H15 C22 1_555 1_555
N1 C18 1_555 1_555
N2 C18 1_555 1_555
O1 C14 1_555 1_555
O2 C14 1_555 1_555
O3 C15 1_555 1_555
O4 C15 1_555 1_555
O5 C17 1_555 1_555
H16 O5 1_555 1_555
O6 C17 1_555 1_555
O7 C16 1_555 1_555
H17 O7 1_555 1_555
O8 C16 1_555 1_555
O9 H18 1_555 1_555
H19 O9 1_555 1_555
O10 H20 1_555 1_555
H21 O10 1_555 1_555
Zn1 N1 1_555 1_555
C1_2 H1_2 1_555 1_555
C2_2 C1_2 1_555 1_555
C3_2 C2_2 1_555 1_555
H2_2 C3_2 1_555 1_555
C4_2 C3_2 1_555 1_555
C5_2 C4_2 1_555 1_555
H3_2 C5_2 1_555 1_555
C6_2 C1_2 1_555 1_555
C7_2 C4_2 1_555 1_555
H4_2 C7_2 1_555 1_555
H5_2 C7_2 1_555 1_555
C8_2 C7_2 1_555 1_555
C9_2 C8_2 1_555 1_555
H6_2 C9_2 1_555 1_555
C10_2 C9_2 1_555 1_555
C11_2 C10_2 1_555 1_555
H7_2 C11_2 1_555 1_555
C12_2 C11_2 1_555 1_555
C13_2 C8_2 1_555 1_555
H8_2 C13_2 1_555 1_555
C14_2 C2_2 1_555 1_555
C15_2 C6_2 1_555 1_555
C16_2 C12_2 1_555 1_555
C17_2 C10_2 1_555 1_555
C18B H9B 1_555 1_555
C19B H10B 1_555 1_555
C20B C19B 1_555 1_555
H11B C20B 1_555 1_555
C21B H12B 1_555 1_555
H13B C21B 1_555 1_555
C22B C22 1_555 1_555
H14B C22B 1_555 1_555
H15B C22B 1_555 1_555
N1B C18B 1_555 1_555
N1_2 Zn1_2 1_555 1_555
N2B C18B 1_555 1_555
O1_2 Zn1 1_555 1_555
O1_3 Zn1_2 1_555 1_555
O2_2 C14_2 1_555 1_555
O3_2 C15_2 1_555 1_555
O4_2 C15_2 1_555 1_555
O5_2 C17_2 1_555 1_555
H16_2 O5_2 1_555 1_555
O6_2 C17_2 1_555 1_555
O7_2 C16_2 1_555 1_555
H17_2 O7_2 1_555 1_555
O8_2 C16_2 1_555 1_555
O9_2 H18_2 1_555 1_555
H19_2 O9_2 1_555 1_555
O10B O10 1_555 1_555
H20B O10B 1_555 1_555
H21B O10B 1_555 1_555
Zn1_2 O4_2 1_555 1_555
Zn1_3 O1 1_555 1_555
Zn1B N1B 1_555 1_555
C5 C6 1_555 1_555
C12 C13 1_555 1_555
C19 N1 1_555 1_555
C20 N2 1_555 1_555
C21 N2 1_555 1_555
O4 Zn1 1_555 1_555
O9 Zn1 1_555 1_555
C5_2 C6_2 1_555 1_555
C12_2 C13_2 1_555 1_555
C14_2 O1_2 1_555 1_555
C19B N1B 1_555 1_555
C20B N2B 1_555 1_555
C21B C22B 1_555 1_555
C21B N2B 1_555 1_555
O9_2 Zn1_2 1_555 1_555

#END
