
#######################################################################
#
#                 Cambridge Crystallographic Data Centre
#                                CCDC 
#
#######################################################################
#
# If this CIF has been generated from an entry in the Cambridge 
# Structural Database, then it will include bibliographic, chemical, 
# crystal, experimental, refinement or atomic coordinate data resulting 
# from the CCDC's data processing and validation procedures.
#
#######################################################################

data_GADRAG
_symmetry_cell_setting           triclinic
_symmetry_space_group_name_H-M   'P -1'
_symmetry_Int_Tables_number      2
_space_group_name_Hall           '-P 1'
loop_
_symmetry_equiv_pos_site_id
_symmetry_equiv_pos_as_xyz
1 x,y,z
2 -x,-y,-z
_cell_length_a                   11.9300(17)
_cell_length_b                   13.5340(19)
_cell_length_c                   21.013(3)
_cell_angle_alpha                90.597(2)
_cell_angle_beta                 100.438(2)
_cell_angle_gamma                112.774(2)
_cell_volume                     3064.34
loop_
_atom_site_label
_atom_site_type_symbol
_atom_site_fract_x
_atom_site_fract_y
_atom_site_fract_z
Zn1 Zn 1.11708(8) -0.19772(7) 0.06130(4)
Zn2 Zn 1.01914(7) 0.22812(6) 0.38250(4)
Zn3 Zn 0.61714(7) -0.59868(6) 0.32862(4)
N1 N 0.9763(6) -0.1798(5) -0.0086(3)
N2 N 0.9174(6) -0.0906(5) -0.0860(3)
H1 H 0.9223 -0.0425 -0.1130
N3 N 1.2176(6) -0.0540(4) 0.0088(3)
N4 N 1.1203(6) -0.3290(5) 0.0019(3)
N5 N 1.2771(6) -0.2058(5) 0.1075(3)
N6 N 1.4126(6) -0.2873(5) 0.1095(3)
N7 N 1.1664(5) 0.3666(4) 0.3752(3)
N8 N 1.3750(5) 0.4622(4) 0.4037(3)
N9 N 1.1709(5) 0.2089(4) 0.4497(3)
N10 N 0.8730(4) 0.2508(4) 0.3271(3)
N11 N 0.7405(5) 0.3335(4) 0.3204(3)
N12 N 0.9476(5) 0.2868(4) 0.4550(3)
N13 N 0.4725(5) -0.7545(4) 0.3357(3)
N14 N 0.2712(5) -0.8581(4) 0.3121(3)
H2 H 0.1932 -0.8779 0.2963
N15 N 0.4540(5) -0.5988(4) 0.2616(3)
O1 O 0.9956(4) -0.2774(4) 0.1295(2)
O2 O 1.0810(4) -0.1009(4) 0.1363(2)
O3 O 1.0323(4) 0.1186(3) 0.3072(2)
O4 O 0.9155(4) 0.0452(3) 0.3775(2)
O5 O 0.7264(4) -0.4534(3) 0.2957(2)
O6 O 0.7497(4) -0.3461(3) 0.3824(2)
O7 O 0.6071(4) -0.5304(3) 0.41152(19)
H3 H 0.5357 -0.5331 0.4092
H4 H 0.6530 -0.4709 0.4022
C1 C 0.8519(7) -0.2296(6) -0.0280(4)
C2 C 0.7651(7) -0.3165(6) -0.0075(4)
H5 H 0.7876 -0.3533 0.0262
C3 C 0.6447(9) -0.3471(7) -0.0382(5)
H6 H 0.5853 -0.4075 -0.0256
C4 C 0.6070(9) -0.2945(8) -0.0860(5)
H7 H 0.5231 -0.3209 -0.1050
C5 C 0.6843(8) -0.2065(7) -0.1073(4)
H8 H 0.6565 -0.1700 -0.1396
C6 C 0.8092(8) -0.1726(6) -0.0784(4)
C7 C 1.0169(7) -0.0973(6) -0.0439(3)
C8 C 1.1443(8) -0.0279(6) -0.0380(4)
C9 C 1.1910(8) 0.0526(7) -0.0736(4)
H9 H 1.1360 0.0673 -0.1055
C10 C 1.3146(9) 0.1153(6) -0.0665(4)
H10 H 1.3443 0.1719 -0.0920
C11 C 1.3949(8) 0.0885(7) -0.0178(5)
H11 H 1.4804 0.1264 -0.0106
C12 C 1.3414(7) 0.0025(6) 0.0196(4)
H12 H 1.3925 -0.0153 0.0522
C13 C 1.0420(8) -0.3860(6) -0.0512(4)
H13 H 0.9685 -0.3759 -0.0638
C14 C 1.0617(10) -0.4582(7) -0.0887(4)
H14 H 1.0030 -0.4968 -0.1251
C15 C 1.1698(10) -0.4721(7) -0.0712(5)
H15 H 1.1873 -0.5192 -0.0964
C16 C 1.2523(9) -0.4162(7) -0.0165(4)
H16 H 1.3268 -0.4245 -0.0038
C17 C 1.2231(8) -0.3470(6) 0.0201(4)
C18 C 1.3079(7) -0.2802(5) 0.0799(4)
C19 C 1.4570(8) -0.2077(6) 0.1616(4)
C20 C 1.5624(8) -0.1756(7) 0.2082(4)
H17 H 1.6178 -0.2091 0.2103
C21 C 1.5826(8) -0.0926(8) 0.2514(4)
H18 H 1.6533 -0.0691 0.2841
C22 C 1.5004(10) -0.0410(7) 0.2482(4)
H19 H 1.5199 0.0174 0.2780
C23 C 1.3943(8) -0.0733(6) 0.2037(4)
H20 H 1.3383 -0.0407 0.2028
C24 C 1.3730(7) -0.1581(6) 0.1590(4)
C25 C 1.0147(6) -0.1874(6) 0.1570(3)
C26 C 0.9583(6) -0.1826(5) 0.2149(3)
C27 C 0.9798(5) -0.0821(5) 0.2446(3)
H21 H 1.0264 -0.0200 0.2273
C28 C 0.9336(5) -0.0731(5) 0.2986(3)
C29 C 0.8642(5) -0.1660(5) 0.3243(3)
H22 H 0.8334 -0.1605 0.3612
C30 C 0.8405(5) -0.2659(4) 0.2961(3)
C31 C 0.8880(6) -0.2736(5) 0.2415(3)
H23 H 0.8723 -0.3412 0.2225
C32 C 0.7664(6) -0.3623(5) 0.3278(4)
C33 C 0.9599(6) 0.0370(5) 0.3302(3)
C34 C 1.1947(6) 0.4595(5) 0.3443(3)
C35 C 1.1189(7) 0.5000(6) 0.3040(3)
H24 H 1.0335 0.4615 0.2928
C36 C 1.1745(8) 0.5983(6) 0.2815(4)
H25 H 1.1258 0.6267 0.2545
C37 C 1.3030(8) 0.6570(6) 0.2982(4)
H26 H 1.3377 0.7237 0.2823
C38 C 1.3783(7) 0.6185(5) 0.3374(4)
H27 H 1.4638 0.6572 0.3476
C39 C 1.3228(6) 0.5182(5) 0.3621(3)
C40 C 1.2771(6) 0.3739(5) 0.4099(3)
C41 C 1.2817(6) 0.2895(5) 0.4510(3)
C42 C 1.3903(6) 0.2894(6) 0.4901(3)
H28 H 1.4660 0.3463 0.4909
C43 C 1.3850(7) 0.2053(6) 0.5271(4)
H29 H 1.4569 0.2041 0.5524
C44 C 1.2722(7) 0.1231(6) 0.5264(3)
H30 H 1.2661 0.0661 0.5518
C45 C 1.1678(6) 0.1266(5) 0.4871(3)
H31 H 1.0917 0.0702 0.4862
C46 C 0.8164(6) 0.2401(5) 0.2629(3)
C47 C 0.8279(7) 0.1890(6) 0.2081(4)
H32 H 0.8847 0.1569 0.2106
C48 C 0.7532(8) 0.1878(7) 0.1510(4)
H33 H 0.7575 0.1520 0.1141
C49 C 0.6703(8) 0.2380(7) 0.1453(4)
H34 H 0.6216 0.2359 0.1050
C50 C 0.6595(7) 0.2910(7) 0.1988(4)
H35 H 0.6050 0.3255 0.1951
C51 C 0.7329(6) 0.2912(5) 0.2588(4)
C52 C 0.8248(5) 0.3056(5) 0.3590(3)
C53 C 0.8618(6) 0.3254(5) 0.4293(3)
C54 C 0.8142(7) 0.3746(6) 0.4678(4)
H36 H 0.7549 0.4002 0.4493
C55 C 0.8549(9) 0.3860(8) 0.5345(4)
H37 H 0.8234 0.4196 0.5612
C56 C 0.9415(8) 0.3474(7) 0.5608(4)
H38 H 0.9697 0.3536 0.6055
C57 C 0.9856(7) 0.2994(6) 0.5197(4)
H39 H 1.0454 0.2740 0.5377
C58 C 0.4548(6) -0.8492(5) 0.3639(3)
C59 C 0.5372(7) -0.8859(6) 0.4018(3)
H40 H 0.6216 -0.8430 0.4127
C60 C 0.4904(8) -0.9866(6) 0.4223(4)
H41 H 0.5442 -1.0124 0.4473
C61 C 0.3639(8) -1.0516(6) 0.4066(4)
H42 H 0.3358 -1.1205 0.4205
C62 C 0.2794(7) -1.0168(6) 0.3711(4)
H43 H 0.1948 -1.0595 0.3620
C63 C 0.3255(6) -0.9171(5) 0.3500(3)
C64 C 0.3633(6) -0.7629(5) 0.3042(3)
C65 C 0.3461(6) -0.6802(5) 0.2649(3)
C66 C 0.2352(7) -0.6848(6) 0.2335(3)
H44 H 0.1627 -0.7422 0.2374
C67 C 0.2302(8) -0.6029(7) 0.1951(4)
H45 H 0.1545 -0.6038 0.1733
C68 C 0.3415(9) -0.5194(7) 0.1901(4)
H46 H 0.3420 -0.4638 0.1644
C69 C 0.4494(8) -0.5212(6) 0.2237(3)
H47 H 0.5236 -0.4656 0.2202
N11_2 N 0.7405(5) -0.6665(4) 0.3204(3)
Zn3_2 Zn 0.61714(7) 0.40132(6) 0.32862(4)
O8 O 0.5826(11) 0.6035(9) 0.1067(6)
loop_
_geom_bond_atom_site_label_1
_geom_bond_atom_site_label_2
_geom_bond_site_symmetry_1
_geom_bond_site_symmetry_2
Zn1 N1 1_555 1_555
Zn2 N7 1_555 1_555
Zn3 N13 1_555 1_555
N1 C1 1_555 1_555
N2 H1 1_555 1_555
N3 Zn1 1_555 1_555
N4 Zn1 1_555 1_555
N5 Zn1 1_555 1_555
N6 C18 1_555 1_555
N7 C34 1_555 1_555
N8 C39 1_555 1_555
N9 Zn2 1_555 1_555
N10 Zn2 1_555 1_555
N11 C51 1_555 1_555
N12 Zn2 1_555 1_555
N13 C58 1_555 1_555
N14 H2 1_555 1_555
N15 Zn3 1_555 1_555
O1 Zn1 1_555 1_555
O2 Zn1 1_555 1_555
O3 Zn2 1_555 1_555
O4 Zn2 1_555 1_555
O5 Zn3 1_555 1_555
O6 C32 1_555 1_555
O7 Zn3 1_555 1_555
H3 O7 1_555 1_555
H4 O7 1_555 1_555
C1 C2 1_555 1_555
C2 H5 1_555 1_555
C3 C2 1_555 1_555
H6 C3 1_555 1_555
C4 C3 1_555 1_555
H7 C4 1_555 1_555
C5 C4 1_555 1_555
H8 C5 1_555 1_555
C6 N2 1_555 1_555
C7 N1 1_555 1_555
C8 N3 1_555 1_555
C9 C8 1_555 1_555
H9 C9 1_555 1_555
C10 C9 1_555 1_555
H10 C10 1_555 1_555
C11 C10 1_555 1_555
H11 C11 1_555 1_555
C12 N3 1_555 1_555
H12 C12 1_555 1_555
C13 N4 1_555 1_555
H13 C13 1_555 1_555
C14 C13 1_555 1_555
H14 C14 1_555 1_555
C15 C14 1_555 1_555
H15 C15 1_555 1_555
C16 C15 1_555 1_555
H16 C16 1_555 1_555
C17 N4 1_555 1_555
C18 N5 1_555 1_555
C19 N6 1_555 1_555
C20 C19 1_555 1_555
H17 C20 1_555 1_555
C21 C20 1_555 1_555
H18 C21 1_555 1_555
C22 C21 1_555 1_555
H19 C22 1_555 1_555
C23 C22 1_555 1_555
H20 C23 1_555 1_555
C24 N5 1_555 1_555
C25 O1 1_555 1_555
C26 C25 1_555 1_555
C27 C26 1_555 1_555
H21 C27 1_555 1_555
C28 C27 1_555 1_555
C29 C28 1_555 1_555
H22 C29 1_555 1_555
C30 C29 1_555 1_555
C31 C26 1_555 1_555
H23 C31 1_555 1_555
C32 O5 1_555 1_555
C33 O3 1_555 1_555
C34 C35 1_555 1_555
C35 H24 1_555 1_555
C36 C35 1_555 1_555
H25 C36 1_555 1_555
C37 C36 1_555 1_555
H26 C37 1_555 1_555
C38 C37 1_555 1_555
H27 C38 1_555 1_555
C39 C34 1_555 1_555
C40 N7 1_555 1_555
C41 N9 1_555 1_555
C42 C41 1_555 1_555
H28 C42 1_555 1_555
C43 C42 1_555 1_555
H29 C43 1_555 1_555
C44 C43 1_555 1_555
H30 C44 1_555 1_555
C45 N9 1_555 1_555
H31 C45 1_555 1_555
C46 N10 1_555 1_555
C47 C46 1_555 1_555
H32 C47 1_555 1_555
C48 C47 1_555 1_555
H33 C48 1_555 1_555
C49 C48 1_555 1_555
H34 C49 1_555 1_555
C50 C49 1_555 1_555
H35 C50 1_555 1_555
C51 C46 1_555 1_555
C52 N10 1_555 1_555
C53 N12 1_555 1_555
C54 C53 1_555 1_555
H36 C54 1_555 1_555
C55 C54 1_555 1_555
H37 C55 1_555 1_555
C56 C55 1_555 1_555
H38 C56 1_555 1_555
C57 N12 1_555 1_555
H39 C57 1_555 1_555
C58 C59 1_555 1_555
C59 H40 1_555 1_555
C60 C59 1_555 1_555
H41 C60 1_555 1_555
C61 C60 1_555 1_555
H42 C61 1_555 1_555
C62 C61 1_555 1_555
H43 C62 1_555 1_555
C63 N14 1_555 1_555
C64 N13 1_555 1_555
C65 N15 1_555 1_555
C66 C65 1_555 1_555
H44 C66 1_555 1_555
C67 C66 1_555 1_555
H45 C67 1_555 1_555
C68 C67 1_555 1_555
H46 C68 1_555 1_555
C69 N15 1_555 1_555
H47 C69 1_555 1_555
N11_2 Zn3 1_555 1_555
Zn3_2 N11 1_555 1_555
N2 C7 1_555 1_555
N8 C40 1_555 1_555
N11 C52 1_555 1_555
N14 C64 1_555 1_555
O2 C25 1_555 1_555
O4 C33 1_555 1_555
C1 C6 1_555 1_555
C5 C6 1_555 1_555
C7 C8 1_555 1_555
C11 C12 1_555 1_555
C16 C17 1_555 1_555
C17 C18 1_555 1_555
C19 C24 1_555 1_555
C23 C24 1_555 1_555
C28 C33 1_555 1_555
C30 C31 1_555 1_555
C30 C32 1_555 1_555
C38 C39 1_555 1_555
C40 C41 1_555 1_555
C44 C45 1_555 1_555
C50 C51 1_555 1_555
C52 C53 1_555 1_555
C56 C57 1_555 1_555
C58 C63 1_555 1_555
C62 C63 1_555 1_555
C64 C65 1_555 1_555
C68 C69 1_555 1_555

#END
