
#######################################################################
#
#                 Cambridge Crystallographic Data Centre
#                                CCDC 
#
#######################################################################
#
# If this CIF has been generated from an entry in the Cambridge 
# Structural Database, then it will include bibliographic, chemical, 
# crystal, experimental, refinement or atomic coordinate data resulting 
# from the CCDC's data processing and validation procedures.
#
#######################################################################

data_GADRUA
_symmetry_cell_setting           orthorhombic
_symmetry_space_group_name_H-M   'P c a 21'
_symmetry_Int_Tables_number      29
_space_group_name_Hall           'P 2c -2ac'
loop_
_symmetry_equiv_pos_site_id
_symmetry_equiv_pos_as_xyz
1 x,y,z
2 -x,-y,1/2+z
3 1/2+x,-y,z
4 1/2-x,y,1/2+z
_cell_length_a                   20.5491(15)
_cell_length_b                   9.4459(7)
_cell_length_c                   15.3548(11)
_cell_angle_alpha                90
_cell_angle_beta                 90
_cell_angle_gamma                90
_cell_volume                     2980.44
loop_
_atom_site_label
_atom_site_type_symbol
_atom_site_fract_x
_atom_site_fract_y
_atom_site_fract_z
C1 C 0.5865(3) 1.1039(6) 0.0097(4)
C2 C 0.5771(2) 1.0246(6) 0.0935(4)
C3 C 0.6276(3) 1.0082(6) 0.1505(4)
H1 H 0.6675 1.0500 0.1380
C4 C 0.6207(3) 0.9305(6) 0.2266(4)
H2 H 0.6549 0.9238 0.2659
C5 C 0.5618(3) 0.8625(6) 0.2433(3)
C6 C 0.5112(3) 0.8807(6) 0.1855(4)
H3 H 0.4713 0.8376 0.1961
C7 C 0.5196(3) 0.9618(7) 0.1126(4)
H4 H 0.4847 0.9743 0.0749
C8 C 0.5902(2) 0.7022(5) 0.3671(4)
C9 C 0.5829(3) 0.5794(6) 0.5145(4)
C10 C 0.6430(3) 0.5276(7) 0.5271(4)
H5 H 0.6750 0.5420 0.4852
C11 C 0.6575(3) 0.4527(7) 0.6023(4)
H6 H 0.6991 0.4159 0.6092
C12 C 0.6128(2) 0.4312(5) 0.6665(3)
C13 C 0.5499(3) 0.4795(6) 0.6518(4)
H7 H 0.5175 0.4625 0.6927
C14 C 0.5352(3) 0.5534(6) 0.5756(4)
H8 H 0.4931 0.5854 0.5659
C15 C 0.6316(3) 0.3577(7) 0.7481(4)
C16 C 0.8153(2) 1.2660(7) -0.1303(5)
H9 H 0.8027 1.3454 -0.1619
C17 C 0.8802(2) 1.2391(6) -0.1227(5)
H10 H 0.9104 1.2979 -0.1497
C18 C 0.9004(3) 1.1270(6) -0.0760(4)
H11 H 0.9445 1.1068 -0.0701
C19 C 0.8541(3) 1.0435(7) -0.0374(4)
H12 H 0.8662 0.9658 -0.0039
C20 C 0.7895(3) 1.0763(6) -0.0489(4)
H13 H 0.7583 1.0189 -0.0227
C21 C 0.6090(3) 0.9647(6) -0.1894(4)
H14 H 0.5772 0.9898 -0.1491
C22 C 0.5992(3) 0.8438(7) -0.2391(4)
H15 H 0.5623 0.7883 -0.2313
C23 C 0.6455(3) 0.8078(7) -0.3004(4)
H16 H 0.6404 0.7282 -0.3354
C24 C 0.6987(3) 0.8923(6) -0.3081(4)
H17 H 0.7310 0.8717 -0.3486
C25 C 0.7037(3) 1.0079(6) -0.2552(4)
H18 H 0.7404 1.0647 -0.2613
C26 C 0.6670(3) 1.4176(6) 0.0402(4)
H19 H 0.6674 1.3286 0.0661
C27 C 0.6607(3) 1.5296(6) 0.0941(4)
H20 H 0.6579 1.5189 0.1542
C28 C 0.6589(3) 1.6576(7) 0.0559(4)
H21 H 0.6521 1.7377 0.0899
C29 C 0.6669(3) 1.6722(7) -0.0323(4)
H22 H 0.6681 1.7608 -0.0587
C30 C 0.6732(3) 1.5472(6) -0.0808(4)
H23 H 0.6781 1.5547 -0.1408
N1 N 0.5487(2) 0.7849(5) 0.3145(3)
H24 H 0.5115 0.7927 0.3308
N2 N 0.5618(2) 0.6584(6) 0.4475(3)
H25 H 0.5274 0.6999 0.4558
N3 N 0.7694(2) 1.1867(4) -0.0959(3)
N4 N 0.6725(2) 1.4209(5) -0.0464(3)
N5 N 0.6605(2) 1.0449(5) -0.1961(3)
Ni1 Ni 0.67207(3) 1.23109(6) -0.12092(5)
O1 O 0.64487(19) 1.1225(4) -0.0142(3)
O2 O 0.53737(18) 1.1435(4) -0.0309(3)
O3 O 0.69160(17) 0.3382(4) 0.7636(2)
O4 O 0.58961(18) 0.3193(4) 0.8033(2)
S1 S 0.66470(7) 0.65654(17) 0.33529(11)
C15_2 C 0.6316(3) 1.3577(7) -0.2519(4)
Ni1_2 Ni 0.67207(3) 0.23109(6) 0.87908(5)
O3_2 O 0.69160(17) 1.3382(4) -0.2364(2)
O4_2 O 0.58961(18) 1.3193(4) -0.1967(2)
loop_
_geom_bond_atom_site_label_1
_geom_bond_atom_site_label_2
_geom_bond_site_symmetry_1
_geom_bond_site_symmetry_2
C1 C2 1_555 1_555
C2 C3 1_555 1_555
C3 H1 1_555 1_555
C4 C3 1_555 1_555
H2 C4 1_555 1_555
C5 C4 1_555 1_555
C6 C5 1_555 1_555
H3 C6 1_555 1_555
C7 C2 1_555 1_555
H4 C7 1_555 1_555
C8 N1 1_555 1_555
C9 C10 1_555 1_555
C10 H5 1_555 1_555
C11 C10 1_555 1_555
H6 C11 1_555 1_555
C12 C11 1_555 1_555
C13 C12 1_555 1_555
H7 C13 1_555 1_555
C14 C9 1_555 1_555
H8 C14 1_555 1_555
C15 C12 1_555 1_555
C16 H9 1_555 1_555
C17 C16 1_555 1_555
H10 C17 1_555 1_555
C18 C17 1_555 1_555
H11 C18 1_555 1_555
C19 C18 1_555 1_555
H12 C19 1_555 1_555
C20 C19 1_555 1_555
H13 C20 1_555 1_555
C21 H14 1_555 1_555
C22 C21 1_555 1_555
H15 C22 1_555 1_555
C23 C22 1_555 1_555
H16 C23 1_555 1_555
C24 C23 1_555 1_555
H17 C24 1_555 1_555
C25 C24 1_555 1_555
H18 C25 1_555 1_555
C26 H19 1_555 1_555
C27 C26 1_555 1_555
H20 C27 1_555 1_555
C28 C27 1_555 1_555
H21 C28 1_555 1_555
C29 C28 1_555 1_555
H22 C29 1_555 1_555
C30 C29 1_555 1_555
H23 C30 1_555 1_555
N1 C5 1_555 1_555
H24 N1 1_555 1_555
N2 C8 1_555 1_555
H25 N2 1_555 1_555
N3 C16 1_555 1_555
N4 C26 1_555 1_555
N5 C21 1_555 1_555
Ni1 N3 1_555 1_555
O1 C1 1_555 1_555
O2 C1 1_555 1_555
O3 C15 1_555 1_555
O4 C15 1_555 1_555
S1 C8 1_555 1_555
C15_2 O3_2 1_555 1_555
Ni1_2 O3 1_555 1_555
O3_2 Ni1 1_555 1_555
O4_2 Ni1 1_555 1_555
C6 C7 1_555 1_555
C9 N2 1_555 1_555
C13 C14 1_555 1_555
C20 N3 1_555 1_555
C25 N5 1_555 1_555
C30 N4 1_555 1_555
N4 Ni1 1_555 1_555
N5 Ni1 1_555 1_555
Ni1 O1 1_555 1_555
O4 Ni1_2 1_555 1_555
C15_2 O4_2 1_555 1_555

#END
