
#######################################################################
#
#                 Cambridge Crystallographic Data Centre
#                                CCDC 
#
#######################################################################
#
# If this CIF has been generated from an entry in the Cambridge 
# Structural Database, then it will include bibliographic, chemical, 
# crystal, experimental, refinement or atomic coordinate data resulting 
# from the CCDC's data processing and validation procedures.
#
#######################################################################

data_GADROU
_symmetry_cell_setting           monoclinic
_symmetry_space_group_name_H-M   'C 2/c'
_symmetry_Int_Tables_number      15
_space_group_name_Hall           '-C 2yn'
loop_
_symmetry_equiv_pos_site_id
_symmetry_equiv_pos_as_xyz
1 x,y,z
2 -x,y,1/2-z
3 1/2+x,1/2+y,z
4 1/2-x,1/2+y,1/2-z
5 -x,-y,-z
6 x,-y,1/2+z
7 1/2-x,1/2-y,-z
8 1/2+x,1/2-y,1/2+z
_cell_length_a                   65.653(7)
_cell_length_b                   6.4308(7)
_cell_length_c                   7.2703(8)
_cell_angle_alpha                90
_cell_angle_beta                 90.816(2)
_cell_angle_gamma                90
_cell_volume                     3069.22
loop_
_atom_site_label
_atom_site_type_symbol
_atom_site_fract_x
_atom_site_fract_y
_atom_site_fract_z
C1 C 0.47252(7) 0.6009(7) -0.0902(6)
C2 C 0.45182(7) 0.6877(7) -0.0695(6)
C3 C 0.43471(8) 0.5738(8) -0.1260(7)
H1 H 0.4364 0.4403 -0.1725
C4 C 0.41520(8) 0.6558(8) -0.1138(7)
H2 H 0.4039 0.5786 -0.1522
C5 C 0.41281(7) 0.8545(8) -0.0441(7)
C6 C 0.42971(7) 0.9689(8) 0.0137(6)
H3 H 0.4280 1.1017 0.0619
C7 C 0.44896(7) 0.8861(7) 0.0002(6)
H4 H 0.4602 0.9642 0.0381
C8 C 0.37592(7) 0.8783(8) 0.0306(6)
C9 C 0.33970(7) 0.9901(8) 0.0596(6)
C10 C 0.32879(8) 0.8081(8) 0.0774(7)
H5 H 0.3349 0.6816 0.0503
C11 C 0.30891(8) 0.8125(7) 0.1347(7)
H6 H 0.3017 0.6887 0.1446
C12 C 0.29947(7) 0.9993(7) 0.1782(6)
C13 C 0.31046(8) 1.1821(7) 0.1579(7)
H7 H 0.3044 1.3090 0.1843
C14 C 0.33041(8) 1.1774(7) 0.0988(7)
H8 H 0.3376 1.3010 0.0854
C15 C 0.27823(7) 1.0029(7) 0.2475(6)
N1 N 0.35987(6) 1.0002(7) -0.0065(5)
H9 H 0.3622 1.1032 -0.0874
N2 N 0.39333(6) 0.9507(7) -0.0451(6)
H10 H 0.3924 1.0745 -0.1024
O1 O 0.48766(5) 0.7022(5) -0.0331(4)
O2 O 0.47404(5) 0.4279(5) -0.1712(5)
O3 O 0.5000 0.9890(7) 0.2500
H11 H 0.5077 1.0836 0.1759
O4 O 0.27205(5) 1.1707(5) 0.3156(4)
O5 O 0.26756(5) 0.8399(5) 0.2375(4)
O6 O 0.26485(5) 1.5359(5) 0.5118(4)
H12 H 0.2579 1.6259 0.5958
H13 H 0.2648 1.5978 0.3917
S1 S 0.37537(2) 0.6669(2) 0.16572(19)
Zn1 Zn 0.5000 0.68296(11) 0.2500
Zn2 Zn 0.2500 1.2500 0.5000
C1A C 0.52748(7) 0.6009(7) 0.5902(6)
C2A C 0.54818(7) 0.6877(7) 0.5695(6)
C3A C 0.56529(8) 0.5738(8) 0.6260(7)
H1A H 0.5636 0.4403 0.6725
C4A C 0.58480(8) 0.6558(8) 0.6138(7)
H2A H 0.5961 0.5786 0.6522
C5A C 0.58719(7) 0.8545(8) 0.5441(7)
C6A C 0.57029(7) 0.9689(8) 0.4863(6)
H3A H 0.5720 1.1017 0.4381
C7A C 0.55104(7) 0.8861(7) 0.4998(6)
H4A H 0.5398 0.9642 0.4619
C8A C 0.62408(7) 0.8783(8) 0.4694(6)
C9A C 0.66030(7) 0.9901(8) 0.4404(6)
C10A C 0.67121(8) 0.8081(8) 0.4226(7)
H5A H 0.6651 0.6816 0.4497
C11A C 0.69109(8) 0.8125(7) 0.3653(7)
H6A H 0.6983 0.6887 0.3554
C12A C 0.70053(7) 0.9993(7) 0.3218(6)
C13A C 0.68954(8) 1.1821(7) 0.3421(7)
H7A H 0.6956 1.3090 0.3157
C14A C 0.66959(8) 1.1774(7) 0.4012(7)
H8A H 0.6624 1.3010 0.4146
C15A C 0.72177(7) 1.0029(7) 0.2525(6)
N1A N 0.64013(6) 1.0002(7) 0.5065(5)
H9A H 0.6378 1.1032 0.5874
N2A N 0.60667(6) 0.9507(7) 0.5451(6)
H10A H 0.6076 1.0745 0.6024
O1A O 0.51234(5) 0.7022(5) 0.5331(4)
O2A O 0.52596(5) 0.4279(5) 0.6712(5)
O2D O 0.52596(5) 0.5721(5) 0.1712(5)
O2E O 0.47404(5) 0.5721(5) 0.3288(5)
H11A H 0.4923 1.0836 0.3241
O4A O 0.72795(5) 1.1707(5) 0.1844(4)
O4F O 0.22795(5) 1.3293(5) 0.6844(4)
O5A O 0.73244(5) 0.8399(5) 0.2625(4)
O5C O 0.23244(5) 1.3399(5) 0.2625(4)
O5E O 0.26756(5) 1.1601(5) 0.7375(4)
O6F O 0.23515(5) 0.9641(5) 0.4882(4)
H12F H 0.2421 0.8741 0.4042
H13F H 0.2352 0.9022 0.6083
S1A S 0.62463(2) 0.6669(2) 0.33428(19)
Zn1D Zn 0.5000 0.31704(11) -0.2500
Zn1D_2 Zn 0.5000 0.31704(11) 0.7500
Zn2C Zn 0.2500 0.7500 0.0000
Zn2A Zn 0.7500 1.2500 0.0000
Zn2B Zn 0.7500 0.7500 0.5000
loop_
_geom_bond_atom_site_label_1
_geom_bond_atom_site_label_2
_geom_bond_site_symmetry_1
_geom_bond_site_symmetry_2
C1 C2 1_555 1_555
C2 C3 1_555 1_555
C3 H1 1_555 1_555
C4 C3 1_555 1_555
H2 C4 1_555 1_555
C5 C4 1_555 1_555
C6 C5 1_555 1_555
H3 C6 1_555 1_555
C7 C2 1_555 1_555
H4 C7 1_555 1_555
C8 N1 1_555 1_555
C9 C10 1_555 1_555
C10 H5 1_555 1_555
C11 C10 1_555 1_555
H6 C11 1_555 1_555
C12 C11 1_555 1_555
C13 C12 1_555 1_555
H7 C13 1_555 1_555
C14 C9 1_555 1_555
H8 C14 1_555 1_555
C15 C12 1_555 1_555
N1 C9 1_555 1_555
H9 N1 1_555 1_555
N2 C5 1_555 1_555
H10 N2 1_555 1_555
O1 C1 1_555 1_555
O2 C1 1_555 1_555
O3 H11 1_555 1_555
O4 C15 1_555 1_555
O5 C15 1_555 1_555
O6 H12 1_555 1_555
H13 O6 1_555 1_555
S1 C8 1_555 1_555
Zn1 O1 1_555 1_555
Zn2 O4 1_555 1_555
C1A C2A 1_555 1_555
C2A C3A 1_555 1_555
C3A H1A 1_555 1_555
C4A C3A 1_555 1_555
H2A C4A 1_555 1_555
C5A C4A 1_555 1_555
C6A C5A 1_555 1_555
H3A C6A 1_555 1_555
C7A C2A 1_555 1_555
H4A C7A 1_555 1_555
C8A N1A 1_555 1_555
C9A C10A 1_555 1_555
C10A H5A 1_555 1_555
C11A C10A 1_555 1_555
H6A C11A 1_555 1_555
C12A C11A 1_555 1_555
C13A C12A 1_555 1_555
H7A C13A 1_555 1_555
C14A C9A 1_555 1_555
H8A C14A 1_555 1_555
C15A C12A 1_555 1_555
N1A C9A 1_555 1_555
H9A N1A 1_555 1_555
N2A C5A 1_555 1_555
H10A N2A 1_555 1_555
O1A Zn1 1_555 1_555
O2A C1A 1_555 1_555
O2D Zn1 1_555 1_555
O2E Zn1 1_555 1_555
H11A O3 1_555 1_555
O4A C15A 1_555 1_555
O4F Zn2 1_555 1_555
O5A C15A 1_555 1_555
O5C Zn2 1_555 1_555
O5E Zn2 1_555 1_555
O6F Zn2 1_555 1_555
H12F O6F 1_555 1_555
H13F O6F 1_555 1_555
S1A C8A 1_555 1_555
Zn1D O2 1_555 1_555
Zn1D_2 O2A 1_555 1_555
Zn2C O5 1_555 1_555
Zn2A O4A 1_555 1_555
Zn2B O5A 1_555 1_555
C6 C7 1_555 1_555
C8 N2 1_555 1_555
C13 C14 1_555 1_555
O3 Zn1 1_555 1_555
O6 Zn2 1_555 1_555
C1A O1A 1_555 1_555
C6A C7A 1_555 1_555
C8A N2A 1_555 1_555
C13A C14A 1_555 1_555

#END
