
#######################################################################
#
#                 Cambridge Crystallographic Data Centre
#                                CCDC 
#
#######################################################################
#
# If this CIF has been generated from an entry in the Cambridge 
# Structural Database, then it will include bibliographic, chemical, 
# crystal, experimental, refinement or atomic coordinate data resulting 
# from the CCDC's data processing and validation procedures.
#
#######################################################################

data_GADRIO
_symmetry_cell_setting           monoclinic
_symmetry_space_group_name_H-M   'P 21/n'
_symmetry_Int_Tables_number      14
_space_group_name_Hall           '-P 2yn'
loop_
_symmetry_equiv_pos_site_id
_symmetry_equiv_pos_as_xyz
1 x,y,z
2 1/2-x,1/2+y,1/2-z
3 -x,-y,-z
4 1/2+x,1/2-y,1/2+z
_cell_length_a                   7.4964(11)
_cell_length_b                   18.366(3)
_cell_length_c                   16.569(2)
_cell_angle_alpha                90
_cell_angle_beta                 97.785(2)
_cell_angle_gamma                90
_cell_volume                     2260.18
loop_
_atom_site_label
_atom_site_type_symbol
_atom_site_fract_x
_atom_site_fract_y
_atom_site_fract_z
Cd1 Cd 1.19832(9) 0.07384(3) 0.82587(4)
N1 N 1.2911(10) -0.0523(4) 0.8477(5)
N2 N 1.2005(10) 0.0486(4) 0.9585(4)
N3 N 1.2823(10) -0.0240(4) 1.0633(4)
H1 H 1.3208 -0.0619 1.0907
O1 O 0.9132(8) 0.0965(3) 0.7641(4)
O2 O 1.1101(8) 0.0579(4) 0.6878(4)
O3 O 0.4409(8) 0.0874(3) 0.4137(4)
O4 O -0.2290(8) 0.3002(3) 0.3417(4)
O5 O -0.0089(7) 0.3784(3) 0.3392(3)
C1 C 1.3146(15) -0.1028(6) 0.7905(6)
H2 H 1.2961 -0.0883 0.7362
C2 C 1.3630(16) -0.1728(6) 0.8066(7)
H3 H 1.3772 -0.2054 0.7650
C3 C 1.3919(14) -0.1947(6) 0.8911(8)
H4 H 1.4314 -0.2411 0.9073
C4 C 1.3565(13) -0.1416(4) 0.9464(6)
H5 H 1.3682 -0.1539 1.0013
C5 C 1.3061(12) -0.0732(5) 0.9247(6)
C6 C 1.2645(10) -0.0182(4) 0.9819(4)
C7 C 1.2297(11) 0.0402(4) 1.0967(5)
C8 C 1.2189(14) 0.0656(5) 1.1723(6)
H6 H 1.2515 0.0360 1.2174
C9 C 1.1615(15) 0.1332(6) 1.1822(7)
H7 H 1.1548 0.1507 1.2344
C10 C 1.1116(13) 0.1777(6) 1.1156(6)
H8 H 1.0697 0.2243 1.1245
C11 C 1.1213(12) 0.1564(4) 1.0374(6)
H9 H 1.0912 0.1882 0.9940
C12 C 1.1780(12) 0.0849(5) 1.0244(6)
C13 C 0.9553(11) 0.0800(4) 0.6958(5)
C14 C 0.8167(11) 0.0844(4) 0.6223(5)
C15 C 0.8614(12) 0.0653(4) 0.5470(6)
H10 H 0.9792 0.0517 0.5425
C16 C 0.7353(12) 0.0659(4) 0.4785(5)
H11 H 0.7653 0.0505 0.4286
C17 C 0.5635(11) 0.0897(4) 0.4852(5)
C18 C 0.5153(12) 0.1104(5) 0.5577(5)
H12 H 0.3992 0.1267 0.5612
C19 C 0.6433(12) 0.1067(5) 0.6268(5)
H13 H 0.6108 0.1197 0.6771
C20 C 0.3186(11) 0.1444(4) 0.4002(4)
C21 C 0.3762(11) 0.2133(4) 0.3808(5)
H14 H 0.4983 0.2224 0.3810
C22 C 0.2528(11) 0.2680(4) 0.3615(5)
H15 H 0.2909 0.3137 0.3469
C23 C 0.0705(10) 0.2548(4) 0.3636(4)
C24 C 0.0155(11) 0.1852(4) 0.3818(5)
H16 H -0.1064 0.1756 0.3816
C25 C 0.1400(12) 0.1303(4) 0.4003(5)
H17 H 0.1023 0.0838 0.4127
C26 C -0.0661(11) 0.3147(4) 0.3457(5)
Cd1C Cd -0.30168(9) 0.42616(3) 0.32587(4)
O4C O 1.2710(8) 0.1998(3) 0.8417(4)
O5C O 1.4911(7) 0.1216(3) 0.8392(3)
C26C C 1.4339(11) 0.1853(4) 0.8457(5)
loop_
_geom_bond_atom_site_label_1
_geom_bond_atom_site_label_2
_geom_bond_site_symmetry_1
_geom_bond_site_symmetry_2
Cd1 N1 1_555 1_555
N1 C1 1_555 1_555
N2 Cd1 1_555 1_555
N3 H1 1_555 1_555
O1 Cd1 1_555 1_555
O2 Cd1 1_555 1_555
O3 C17 1_555 1_555
O4 C26 1_555 1_555
O5 C26 1_555 1_555
C1 H2 1_555 1_555
C2 C1 1_555 1_555
H3 C2 1_555 1_555
C3 C2 1_555 1_555
H4 C3 1_555 1_555
C4 C3 1_555 1_555
H5 C4 1_555 1_555
C5 N1 1_555 1_555
C6 N2 1_555 1_555
C7 N3 1_555 1_555
C8 C7 1_555 1_555
H6 C8 1_555 1_555
C9 C8 1_555 1_555
H7 C9 1_555 1_555
C10 C9 1_555 1_555
H8 C10 1_555 1_555
C11 C10 1_555 1_555
H9 C11 1_555 1_555
C12 N2 1_555 1_555
C13 O1 1_555 1_555
C14 C13 1_555 1_555
C15 C14 1_555 1_555
H10 C15 1_555 1_555
C16 C15 1_555 1_555
H11 C16 1_555 1_555
C17 C16 1_555 1_555
C18 C17 1_555 1_555
H12 C18 1_555 1_555
C19 C14 1_555 1_555
H13 C19 1_555 1_555
C20 O3 1_555 1_555
C21 C20 1_555 1_555
H14 C21 1_555 1_555
C22 C21 1_555 1_555
H15 C22 1_555 1_555
C23 C22 1_555 1_555
C24 C23 1_555 1_555
H16 C24 1_555 1_555
C25 C20 1_555 1_555
H17 C25 1_555 1_555
C26 C23 1_555 1_555
Cd1C O4 1_555 1_555
O4C Cd1 1_555 1_555
O5C Cd1 1_555 1_555
C26C O4C 1_555 1_555
N3 C6 1_555 1_555
O2 C13 1_555 1_555
O5 Cd1C 1_555 1_555
C4 C5 1_555 1_555
C5 C6 1_555 1_555
C7 C12 1_555 1_555
C11 C12 1_555 1_555
C18 C19 1_555 1_555
C24 C25 1_555 1_555
O5C C26C 1_555 1_555

#END
