
#######################################################################
#
#                 Cambridge Crystallographic Data Centre
#                                CCDC 
#
#######################################################################
#
# If this CIF has been generated from an entry in the Cambridge 
# Structural Database, then it will include bibliographic, chemical, 
# crystal, experimental, refinement or atomic coordinate data resulting 
# from the CCDC's data processing and validation procedures.
#
#######################################################################

data_GADREK
_symmetry_cell_setting           monoclinic
_symmetry_space_group_name_H-M   'P 21/n'
_symmetry_Int_Tables_number      14
_space_group_name_Hall           '-P 2yn'
loop_
_symmetry_equiv_pos_site_id
_symmetry_equiv_pos_as_xyz
1 x,y,z
2 1/2-x,1/2+y,1/2-z
3 -x,-y,-z
4 1/2+x,1/2-y,1/2+z
_cell_length_a                   7.4391(12)
_cell_length_b                   18.537(3)
_cell_length_c                   16.235(3)
_cell_angle_alpha                90
_cell_angle_beta                 99.742(2)
_cell_angle_gamma                90
_cell_volume                     2206.5
loop_
_atom_site_label
_atom_site_type_symbol
_atom_site_fract_x
_atom_site_fract_y
_atom_site_fract_z
Zn1 Zn -0.22755(11) 0.07988(5) 0.16543(5)
N1 N -0.2965(8) -0.0375(4) 0.1543(4)
N2 N -0.2205(8) 0.0585(4) 0.0430(4)
N3 N -0.2600(8) -0.0167(3) -0.0629(4)
H1 H -0.2813 -0.0564 -0.0903
O1 O 0.0528(6) 0.0911(2) 0.2181(3)
O2 O -0.1491(7) 0.0706(3) 0.2985(3)
O3 O 0.5514(6) 0.0864(2) 0.5794(3)
O4 O 1.2233(6) 0.3014(3) 0.6547(3)
O5 O 0.9997(6) 0.3786(2) 0.6553(3)
C1 C -0.3203(11) -0.0838(5) 0.2166(5)
H2 H -0.3129 -0.0654 0.2704
C2 C -0.3548(12) -0.1569(5) 0.2046(6)
H3 H -0.3727 -0.1869 0.2483
C3 C -0.3617(12) -0.1842(5) 0.1205(7)
H4 H -0.3864 -0.2323 0.1066
C4 C -0.3289(10) -0.1334(4) 0.0625(5)
H5 H -0.3286 -0.1487 0.0080
C5 C -0.2972(10) -0.0629(5) 0.0801(5)
C6 C -0.2627(8) -0.0097(3) 0.0203(4)
C7 C -0.2195(9) 0.0470(3) -0.0974(4)
C8 C -0.1987(10) 0.0726(4) -0.1736(5)
H6 H -0.2157 0.0421 -0.2198
C9 C -0.1543(12) 0.1409(5) -0.1820(6)
H7 H -0.1359 0.1579 -0.2339
C10 C -0.1352(11) 0.1865(5) -0.1156(5)
H8 H -0.1078 0.2345 -0.1248
C11 C -0.1533(10) 0.1671(4) -0.0362(4)
H9 H -0.1398 0.2005 0.0071
C12 C -0.1924(9) 0.0960(4) -0.0235(4)
C13 C 0.0144(10) 0.0822(3) 0.2893(4)
C14 C 0.1587(9) 0.0846(3) 0.3654(4)
C15 C 0.1181(9) 0.0674(3) 0.4421(4)
H10 H -0.0008 0.0548 0.4466
C16 C 0.2504(9) 0.0685(3) 0.5132(4)
H11 H 0.2212 0.0562 0.5648
C17 C 0.4259(9) 0.0880(3) 0.5063(4)
C18 C 0.4717(10) 0.1048(4) 0.4293(4)
H12 H 0.5910 0.1170 0.4249
C19 C 0.3378(9) 0.1032(4) 0.3596(4)
H13 H 0.3672 0.1148 0.3078
C20 C 0.6739(10) 0.1436(4) 0.5946(4)
C21 C 0.6133(9) 0.2106(3) 0.6133(4)
H14 H 0.4897 0.2187 0.6127
C22 C 0.7381(9) 0.2660(3) 0.6333(4)
H15 H 0.6986 0.3111 0.6478
C23 C 0.9212(8) 0.2546(3) 0.6316(4)
C24 C 0.9765(9) 0.1863(4) 0.6122(4)
H16 H 1.0994 0.1780 0.6112
C25 C 0.8550(10) 0.1306(4) 0.5945(5)
H17 H 0.8948 0.0848 0.5826
C26 C 1.0567(9) 0.3148(4) 0.6488(4)
Zn1C Zn 1.27245(11) 0.42012(5) 0.66543(5)
O4C O -0.2767(6) 0.1986(3) 0.1547(3)
O5C O -0.5003(6) 0.1214(2) 0.1553(3)
C26C C -0.4433(9) 0.1852(4) 0.1488(4)
loop_
_geom_bond_atom_site_label_1
_geom_bond_atom_site_label_2
_geom_bond_site_symmetry_1
_geom_bond_site_symmetry_2
Zn1 N1 1_555 1_555
N1 C1 1_555 1_555
N2 Zn1 1_555 1_555
N3 H1 1_555 1_555
O1 Zn1 1_555 1_555
O2 Zn1 1_555 1_555
O3 C17 1_555 1_555
O4 C26 1_555 1_555
O5 C26 1_555 1_555
C1 H2 1_555 1_555
C2 C1 1_555 1_555
H3 C2 1_555 1_555
C3 C2 1_555 1_555
H4 C3 1_555 1_555
C4 C3 1_555 1_555
H5 C4 1_555 1_555
C5 N1 1_555 1_555
C6 N2 1_555 1_555
C7 N3 1_555 1_555
C8 C7 1_555 1_555
H6 C8 1_555 1_555
C9 C8 1_555 1_555
H7 C9 1_555 1_555
C10 C9 1_555 1_555
H8 C10 1_555 1_555
C11 C10 1_555 1_555
H9 C11 1_555 1_555
C12 N2 1_555 1_555
C13 O1 1_555 1_555
C14 C13 1_555 1_555
C15 C14 1_555 1_555
H10 C15 1_555 1_555
C16 C15 1_555 1_555
H11 C16 1_555 1_555
C17 C16 1_555 1_555
C18 C17 1_555 1_555
H12 C18 1_555 1_555
C19 C14 1_555 1_555
H13 C19 1_555 1_555
C20 O3 1_555 1_555
C21 C20 1_555 1_555
H14 C21 1_555 1_555
C22 C21 1_555 1_555
H15 C22 1_555 1_555
C23 C22 1_555 1_555
C24 C23 1_555 1_555
H16 C24 1_555 1_555
C25 C20 1_555 1_555
H17 C25 1_555 1_555
C26 C23 1_555 1_555
Zn1C O4 1_555 1_555
O4C Zn1 1_555 1_555
O5C Zn1 1_555 1_555
C26C O4C 1_555 1_555
N3 C6 1_555 1_555
O2 C13 1_555 1_555
O5 Zn1C 1_555 1_555
C4 C5 1_555 1_555
C5 C6 1_555 1_555
C7 C12 1_555 1_555
C11 C12 1_555 1_555
C18 C19 1_555 1_555
C24 C25 1_555 1_555
O5C C26C 1_555 1_555

#END
