
#######################################################################
#
#                 Cambridge Crystallographic Data Centre
#                                CCDC 
#
#######################################################################
#
# If this CIF has been generated from an entry in the Cambridge 
# Structural Database, then it will include bibliographic, chemical, 
# crystal, experimental, refinement or atomic coordinate data resulting 
# from the CCDC's data processing and validation procedures.
#
#######################################################################

data_GADSUB
_symmetry_cell_setting           monoclinic
_symmetry_space_group_name_H-M   'P 21/m'
_symmetry_Int_Tables_number      11
_space_group_name_Hall           '-P 2yb'
loop_
_symmetry_equiv_pos_site_id
_symmetry_equiv_pos_as_xyz
1 x,y,z
2 -x,1/2+y,-z
3 -x,-y,-z
4 x,1/2-y,z
_cell_length_a                   8.7661(18)
_cell_length_b                   20.484(4)
_cell_length_c                   8.8671(18)
_cell_angle_alpha                90
_cell_angle_beta                 101.81(3)
_cell_angle_gamma                90
_cell_volume                     1558.51
loop_
_atom_site_label
_atom_site_type_symbol
_atom_site_fract_x
_atom_site_fract_y
_atom_site_fract_z
O8 O -0.6775(12) 0.7500 0.4189(11)
H6 H -0.686(13) 0.782(4) 0.354(10)
H6C H -0.686(13) 0.718(4) 0.354(10)
Cu1 Cu -0.27108(5) 0.54278(2) 0.19738(5)
Mn1 Mn 0.24286(9) 0.2500 0.31259(9)
K1 K -0.15423(17) 0.2500 0.06962(18)
K2 K 0.2517(2) 0.2500 -0.1184(2)
N1 N -0.0538(3) 0.51029(14) 0.2367(3)
C1 C 0.2441(4) 0.46559(17) 0.2880(4)
H1 H 0.3466 0.4510 0.3035
C2 C 0.0532(4) 0.54045(18) 0.3421(4)
C3 C 0.2081(4) 0.51826(18) 0.3742(4)
C4 C 0.1296(4) 0.43416(17) 0.1784(4)
C5 C -0.0220(4) 0.45892(17) 0.1558(4)
C6 C -0.0118(4) 0.59921(19) 0.4120(4)
C7 C 0.3337(4) 0.54989(19) 0.4955(4)
C8 C 0.1734(4) 0.37503(18) 0.0933(4)
C9 C -0.1620(4) 0.43393(17) 0.0411(4)
O1 O 0.1395(3) 0.32048(13) 0.1420(3)
O2 O 0.4555(6) 0.2500 0.2276(8)
H2 H 0.506(6) 0.2843(19) 0.219(7)
O3 O 0.0261(5) 0.2500 0.3975(5)
H3 H 0.003(6) 0.2154(15) 0.440(5)
O4 O 0.2436(4) 0.38346(14) -0.0133(3)
O5 O 0.3371(4) 0.32496(16) 0.4754(4)
H4 H 0.283(5) 0.344(2) 0.528(5)
H5 H 0.419(4) 0.348(2) 0.488(6)
O6 O -0.1476(3) 0.38903(13) -0.0460(3)
O7 O -0.2913(3) 0.46447(13) 0.0443(3)
O9 O -0.1586(3) 0.60840(14) 0.3648(3)
O10 O -0.4459(10) 0.2235(3) -0.1400(10)
O11 O 0.0756(3) 0.63369(15) 0.5055(4)
O12 O -0.0544(9) 0.2228(3) -0.2051(8)
O13 O 0.4209(3) 0.58969(15) 0.4460(3)
O14 O -0.3322(6) 0.3419(2) 0.2246(6)
H10 H -0.314(8) 0.374(3) 0.286(7)
H11 H -0.420(6) 0.358(4) 0.167(8)
O15 O -0.4801(3) 0.57931(15) 0.1781(3)
H12 H -0.548(4) 0.565(2) 0.106(4)
H13 H -0.519(5) 0.578(2) 0.257(4)
O16 O 0.3442(3) 0.53348(15) 0.6317(3)
Cu1C Cu -0.27108(5) -0.04278(2) 0.19738(5)
Cu1B Cu 0.27108(5) 0.45722(2) -0.19738(5)
Cu1B_2 Cu 0.27108(5) 0.45722(2) 0.80262(5)
Cu1A Cu 0.27108(5) 0.04278(2) -0.19738(5)
Cu1A_2 Cu 0.27108(5) 0.04278(2) 0.80262(5)
K2_2 K -0.7483(2) 0.2500 -0.1184(2)
N1C N -0.0538(3) -0.01029(14) 0.2367(3)
C1C C 0.2441(4) 0.03441(17) 0.2880(4)
H1C H 0.3466 0.0490 0.3035
C2C C 0.0532(4) -0.04045(18) 0.3421(4)
C3C C 0.2081(4) -0.01826(18) 0.3742(4)
C4C C 0.1296(4) 0.06584(17) 0.1784(4)
C5C C -0.0220(4) 0.04108(17) 0.1558(4)
C6C C -0.0118(4) -0.09921(19) 0.4120(4)
C7C C 0.3337(4) -0.04989(19) 0.4955(4)
C8C C 0.1734(4) 0.12497(18) 0.0933(4)
C9C C -0.1620(4) 0.06607(17) 0.0411(4)
O1C O 0.1395(3) 0.17952(13) 0.1420(3)
H2C H 0.506(6) 0.2157(19) 0.219(7)
H3C H 0.003(6) 0.2846(15) 0.440(5)
O4C O 0.2436(4) 0.11654(14) -0.0133(3)
O4B O -0.2436(4) 0.61654(14) 0.0133(3)
O4A O -0.2436(4) -0.11654(14) 0.0133(3)
O5C O 0.3371(4) 0.17504(16) 0.4754(4)
H4C H 0.283(5) 0.156(2) 0.528(5)
H5C H 0.419(4) 0.152(2) 0.488(6)
O6C O -0.1476(3) 0.11097(13) -0.0460(3)
O7C O -0.2913(3) 0.03553(13) 0.0443(3)
O9C O -0.1586(3) -0.10840(14) 0.3648(3)
O10C O -0.4459(10) 0.2765(3) -0.1400(10)
O10_2 O 0.5541(10) 0.2235(3) -0.1400(10)
O10C_2 O 0.5541(10) 0.2765(3) -0.1400(10)
O11C O 0.0756(3) -0.13369(15) 0.5055(4)
O12C O -0.0544(9) 0.2772(3) -0.2051(8)
O13C O 0.4209(3) -0.08969(15) 0.4460(3)
O14C O -0.3322(6) 0.1581(2) 0.2246(6)
H10C H -0.314(8) 0.126(3) 0.286(7)
H11C H -0.420(6) 0.142(4) 0.167(8)
O15C O -0.4801(3) -0.07931(15) 0.1781(3)
H12C H -0.548(4) -0.065(2) 0.106(4)
H13C H -0.519(5) -0.078(2) 0.257(4)
O16C O 0.3442(3) -0.03348(15) 0.6317(3)
O16B O -0.3442(3) 0.46652(15) 0.3683(3)
O16A O -0.3442(3) 0.03348(15) 0.3683(3)
H7? H -0.431(13) 0.2500 -0.209(6)
H8? H -0.440(5) 0.1817(12) -0.145(15)
H9? H -0.070(3) 0.1827(11) -0.213(3)
loop_
_geom_bond_atom_site_label_1
_geom_bond_atom_site_label_2
_geom_bond_site_symmetry_1
_geom_bond_site_symmetry_2
Cu1 N1 1_555 1_555
Mn1 O1 1_555 1_555
K1 O1 1_555 1_555
K2 O4 1_555 1_555
N1 C2 1_555 1_555
C1 H1 1_555 1_555
C2 C3 1_555 1_555
C3 C1 1_555 1_555
C4 C1 1_555 1_555
C5 N1 1_555 1_555
C6 C2 1_555 1_555
C7 C3 1_555 1_555
C8 C4 1_555 1_555
C9 C5 1_555 1_555
O1 C8 1_555 1_555
O2 Mn1 1_555 1_555
H2 O2 1_555 1_555
O3 Mn1 1_555 1_555
H3 O3 1_555 1_555
O4 C8 1_555 1_555
O5 Mn1 1_555 1_555
H4 O5 1_555 1_555
H5 O5 1_555 1_555
O6 K1 1_555 1_555
O7 Cu1 1_555 1_555
O8 H6 1_555 1_555
O9 Cu1 1_555 1_555
O10 K1 1_555 1_555
O11 C6 1_555 1_555
O12 K1 1_555 1_555
O13 C7 1_555 1_555
O14 K1 1_555 1_555
H10 O14 1_555 1_555
H11 O14 1_555 1_555
O15 Cu1 1_555 1_555
H12 O15 1_555 1_555
H13 O15 1_555 1_555
O16 C7 1_555 1_555
Cu1C N1C 1_555 1_555
Cu1B O4 1_555 1_555
Cu1B_2 O16 1_555 1_555
Cu1A O4C 1_555 1_555
Cu1A_2 O16C 1_555 1_555
K2_2 O10 1_555 1_555
N1C C2C 1_555 1_555
C1C H1C 1_555 1_555
C2C C3C 1_555 1_555
C3C C1C 1_555 1_555
C4C C1C 1_555 1_555
C5C N1C 1_555 1_555
C6C C2C 1_555 1_555
C7C C3C 1_555 1_555
C8C C4C 1_555 1_555
C9C C5C 1_555 1_555
O1C Mn1 1_555 1_555
H2C O2 1_555 1_555
H3C O3 1_555 1_555
O4C K2 1_555 1_555
O4B Cu1 1_555 1_555
O4A Cu1C 1_555 1_555
O5C Mn1 1_555 1_555
H4C O5C 1_555 1_555
H5C O5C 1_555 1_555
O6C K1 1_555 1_555
O7C Cu1C 1_555 1_555
H6C O8 1_555 1_555
O9C Cu1C 1_555 1_555
O10C K1 1_555 1_555
O10_2 K2 1_555 1_555
O10C_2 K2 1_555 1_555
O11C C6C 1_555 1_555
O12C K1 1_555 1_555
O13C C7C 1_555 1_555
O14C K1 1_555 1_555
H10C O14C 1_555 1_555
H11C O14C 1_555 1_555
O15C Cu1C 1_555 1_555
H12C O15C 1_555 1_555
H13C O15C 1_555 1_555
O16C C7C 1_555 1_555
O16B Cu1 1_555 1_555
O16A Cu1C 1_555 1_555
K1 O3 1_555 1_555
K1 O1C 1_555 1_555
K2 O12 1_555 1_555
K2 O12C 1_555 1_555
C4 C5 1_555 1_555
C6 O9 1_555 1_555
C9 O6 1_555 1_555
C9 O7 1_555 1_555
O10 O10C 1_555 1_555
O12 O12C 1_555 1_555
K2_2 O10C 1_555 1_555
C4C C5C 1_555 1_555
C6C O9C 1_555 1_555
C8C O1C 1_555 1_555
C8C O4C 1_555 1_555
C9C O6C 1_555 1_555
C9C O7C 1_555 1_555
O10_2 O10C_2 1_555 1_555

#END
