
#######################################################################
#
#                 Cambridge Crystallographic Data Centre
#                                CCDC 
#
#######################################################################
#
# If this CIF has been generated from an entry in the Cambridge 
# Structural Database, then it will include bibliographic, chemical, 
# crystal, experimental, refinement or atomic coordinate data resulting 
# from the CCDC's data processing and validation procedures.
#
#######################################################################

data_GADVUE
_symmetry_cell_setting           triclinic
_symmetry_space_group_name_H-M   'P -1'
_symmetry_Int_Tables_number      2
_space_group_name_Hall           '-P 1'
loop_
_symmetry_equiv_pos_site_id
_symmetry_equiv_pos_as_xyz
1 x,y,z
2 -x,-y,-z
_cell_length_a                   6.7019(8)
_cell_length_b                   10.9061(12)
_cell_length_c                   13.1438(15)
_cell_angle_alpha                66.231(2)
_cell_angle_beta                 82.799(2)
_cell_angle_gamma                75.624(2)
_cell_volume                     851.336
loop_
_atom_site_label
_atom_site_type_symbol
_atom_site_fract_x
_atom_site_fract_y
_atom_site_fract_z
Ni1 Ni 0.78858(5) 0.78128(4) 0.77143(3)
V1 V 0.31876(7) 0.69191(5) 0.84128(4)
V2 V 0.71586(7) 0.45159(5) 0.88066(4)
O1 O 0.4707(3) 0.8006(2) 0.77761(16)
O2 O 0.8125(3) 0.5819(2) 0.87091(17)
O3 O 1.1046(3) 0.7509(2) 0.77093(16)
O4 O 0.4483(3) 0.5267(2) 0.83962(17)
O5 O 0.8383(3) 0.3866(2) 0.79201(17)
O6 O 0.2701(3) 0.6792(2) 0.98164(16)
N1 N 0.7914(4) 0.7863(3) 0.60853(19)
N2 N 0.7562(4) 0.9806(2) 0.6805(2)
N3 N 0.7641(4) 0.8585(2) 0.8943(2)
C1 C 0.8067(5) 0.6815(3) 0.5775(2)
H1 H 0.8203 0.5933 0.6321
C2 C 0.8030(5) 0.6995(3) 0.4666(2)
H2 H 0.8139 0.6248 0.4475
C3 C 0.7830(5) 0.8306(3) 0.3858(3)
H3 H 0.7810 0.8451 0.3111
C4 C 0.7659(5) 0.9406(3) 0.4167(2)
H4 H 0.7519 1.0296 0.3634
C5 C 0.7700(4) 0.9146(3) 0.5286(2)
C6 C 0.7496(4) 1.0266(3) 0.5692(2)
C7 C 0.7254(5) 1.1652(3) 0.5037(2)
H5 H 0.7229 1.1969 0.4267
C8 C 0.7051(5) 1.2556(3) 0.5564(3)
H6 H 0.6881 1.3492 0.5141
C9 C 0.7098(5) 1.2079(3) 0.6717(3)
H7 H 0.6947 1.2681 0.7074
C10 C 0.7378(4) 1.0669(3) 0.7319(2)
C11 C 0.7497(4) 0.9957(3) 0.8552(2)
C12 C 0.7450(5) 1.0633(3) 0.9254(3)
H8 H 0.7393 1.1572 0.8967
C13 C 0.7491(5) 0.9878(3) 1.0393(3)
H9 H 0.7444 1.0308 1.0882
C14 C 0.7601(5) 0.8486(3) 1.0793(2)
H10 H 0.7614 0.7968 1.1555
C15 C 0.7693(4) 0.7865(3) 1.0044(2)
H11 H 0.7793 0.6922 1.0315
V1_2 V 1.31876(7) 0.69191(5) 0.84128(4)
V2A V 0.28414(7) 0.54841(5) 1.11934(4)
O3_2 O 0.1046(3) 0.7509(2) 0.77093(16)
O6A O 0.7299(3) 0.3208(2) 1.01836(16)
O7 O 0.2467(4) 0.4530(3) 0.6968(2)
H12 H 0.121(8) 0.448(5) 0.727(4)
H13 H 0.308(7) 0.473(5) 0.731(4)
loop_
_geom_bond_atom_site_label_1
_geom_bond_atom_site_label_2
_geom_bond_site_symmetry_1
_geom_bond_site_symmetry_2
Ni1 O1 1_555 1_555
V1 O1 1_555 1_555
V2 O2 1_555 1_555
O2 Ni1 1_555 1_555
O3 Ni1 1_555 1_555
O4 V1 1_555 1_555
O5 V2 1_555 1_555
O6 V1 1_555 1_555
O7 H12 1_555 1_555
N1 Ni1 1_555 1_555
N2 Ni1 1_555 1_555
N3 Ni1 1_555 1_555
C1 N1 1_555 1_555
H1 C1 1_555 1_555
C2 C1 1_555 1_555
H2 C2 1_555 1_555
C3 C2 1_555 1_555
H3 C3 1_555 1_555
C4 C3 1_555 1_555
H4 C4 1_555 1_555
C5 N1 1_555 1_555
C6 N2 1_555 1_555
C7 C6 1_555 1_555
H5 C7 1_555 1_555
C8 C7 1_555 1_555
H6 C8 1_555 1_555
C9 C8 1_555 1_555
H7 C9 1_555 1_555
C10 N2 1_555 1_555
C11 N3 1_555 1_555
C12 C11 1_555 1_555
H8 C12 1_555 1_555
C13 C12 1_555 1_555
H9 C13 1_555 1_555
C14 C13 1_555 1_555
H10 C14 1_555 1_555
C15 N3 1_555 1_555
H11 C15 1_555 1_555
H13 O7 1_555 1_555
V1_2 O3 1_555 1_555
V2A O6 1_555 1_555
O3_2 V1 1_555 1_555
O6A V2 1_555 1_555
V2 O4 1_555 1_555
C4 C5 1_555 1_555
C5 C6 1_555 1_555
C9 C10 1_555 1_555
C10 C11 1_555 1_555
C14 C15 1_555 1_555

#END
