
#######################################################################
#
#                 Cambridge Crystallographic Data Centre
#                                CCDC 
#
#######################################################################
#
# If this CIF has been generated from an entry in the Cambridge 
# Structural Database, then it will include bibliographic, chemical, 
# crystal, experimental, refinement or atomic coordinate data resulting 
# from the CCDC's data processing and validation procedures.
#
#######################################################################

data_GADWAL
_symmetry_cell_setting           orthorhombic
_symmetry_space_group_name_H-M   'P n m a'
_symmetry_Int_Tables_number      62
_space_group_name_Hall           '-P 2ac 2n'
loop_
_symmetry_equiv_pos_site_id
_symmetry_equiv_pos_as_xyz
1 x,y,z
2 1/2-x,-y,1/2+z
3 -x,1/2+y,-z
4 1/2+x,1/2-y,1/2-z
5 -x,-y,-z
6 1/2+x,y,1/2-z
7 x,1/2-y,z
8 1/2-x,1/2+y,1/2+z
_cell_length_a                   14.3854(15)
_cell_length_b                   13.3348(13)
_cell_length_c                   8.6306(9)
_cell_angle_alpha                90
_cell_angle_beta                 90
_cell_angle_gamma                90
_cell_volume                     1655.58
loop_
_atom_site_label
_atom_site_type_symbol
_atom_site_fract_x
_atom_site_fract_y
_atom_site_fract_z
Cu1 Cu 0.596741(15) 0.545357(16) 0.08371(3)
V1 V 0.47949(2) 0.37771(2) 0.30695(4)
V2 V 0.71889(2) 0.61767(2) 0.47651(4)
O1 O 0.68176(10) 0.57808(11) 0.30889(16)
O2 O 0.50398(9) 0.45210(10) 0.15278(15)
O3 O 0.68265(10) 0.44248(10) 0.02201(17)
O4 O 0.36531(10) 0.40724(11) 0.37695(16)
O5 O 0.55594(10) 0.39201(11) 0.44095(17)
O6 O 0.47995(14) 0.2500 0.2409(2)
O7 O 0.73808(15) 0.7500 0.4682(3)
N1 N 0.67121(11) 0.66080(12) -0.01072(18)
N2 N 0.51552(11) 0.66104(12) 0.15542(18)
C1 C 0.74492(13) 0.66028(14) -0.1073(2)
C2 C 0.78293(19) 0.7500 -0.1597(3)
C3 C 0.63778(18) 0.7500 0.0295(3)
C4 C 0.55141(18) 0.7500 0.1206(3)
C5 C 0.43486(13) 0.66042(14) 0.2334(2)
C6 C 0.39186(19) 0.7500 0.2739(3)
H1 H 0.7713(15) 0.5991(17) -0.141(3)
H2 H 0.834(2) 0.7500 -0.234(4)
H3 H 0.4067(15) 0.6004(17) 0.259(3)
H4 H 0.338(2) 0.7500 0.329(4)
Cu1F Cu 0.596741(15) 0.954643(16) 0.08371(3)
Cu1A Cu 0.903259(15) 0.454643(16) 0.58371(3)
V1F V 0.47949(2) 1.12229(2) 0.30695(4)
V1F_2 V 0.47949(2) 0.12229(2) 0.30695(4)
V1D V 0.52051(2) 0.62229(2) 0.69305(4)
V2A V 0.78111(2) 0.38233(2) -0.02349(4)
V2D V 0.28111(2) 0.38233(2) 0.52349(4)
V2F V 0.71889(2) 0.88233(2) 0.47651(4)
O1F O 0.68176(10) 0.92192(11) 0.30889(16)
O1A O 0.81824(10) 0.42192(11) -0.19111(16)
O2F O 0.50398(9) 1.04790(10) 0.15278(15)
O3A O 0.81735(10) 0.55752(10) 0.52201(17)
O3F O 0.68265(10) 1.05752(10) 0.02201(17)
O4D O 0.63469(10) 0.59276(11) 0.62305(16)
O4E O 0.86531(10) 0.40724(11) 0.12305(16)
O4F O 0.36531(10) 1.09276(11) 0.37695(16)
O5F O 0.55594(10) 1.10799(11) 0.44095(17)
O6_2 O 0.47995(14) 1.2500 0.2409(2)
O7A O 0.76192(15) 0.2500 -0.0318(3)
N1F N 0.67121(11) 0.83920(12) -0.01072(18)
N2F N 0.51552(11) 0.83896(12) 0.15542(18)
C1F C 0.74492(13) 0.83972(14) -0.1073(2)
C5F C 0.43486(13) 0.83958(14) 0.2334(2)
H1F H 0.7713(15) 0.9009(17) -0.141(3)
H3F H 0.4067(15) 0.8996(17) 0.259(3)
loop_
_geom_bond_atom_site_label_1
_geom_bond_atom_site_label_2
_geom_bond_site_symmetry_1
_geom_bond_site_symmetry_2
Cu1 O1 1_555 1_555
V1 O2 1_555 1_555
V2 O1 1_555 1_555
O2 Cu1 1_555 1_555
O3 Cu1 1_555 1_555
O4 V1 1_555 1_555
O5 V1 1_555 1_555
O6 V1 1_555 1_555
O7 V2 1_555 1_555
N1 Cu1 1_555 1_555
N2 Cu1 1_555 1_555
C1 N1 1_555 1_555
C2 C1 1_555 1_555
C3 N1 1_555 1_555
C4 N2 1_555 1_555
C5 N2 1_555 1_555
C6 C5 1_555 1_555
H1 C1 1_555 1_555
H2 C2 1_555 1_555
H3 C5 1_555 1_555
H4 C6 1_555 1_555
Cu1F O1F 1_555 1_555
Cu1A O3A 1_555 1_555
V1F O2F 1_555 1_555
V1F_2 O6 1_555 1_555
V1D O4D 1_555 1_555
V2A O3 1_555 1_555
V2D O4 1_555 1_555
V2F O7 1_555 1_555
O1F V2F 1_555 1_555
O1A V2A 1_555 1_555
O2F Cu1F 1_555 1_555
O3A V2 1_555 1_555
O3F Cu1F 1_555 1_555
O4D V2 1_555 1_555
O4E V2A 1_555 1_555
O4F V1F 1_555 1_555
O5F V1F 1_555 1_555
O6_2 V1F 1_555 1_555
O7A V2A 1_555 1_555
N1F C3 1_555 1_555
N2F C4 1_555 1_555
C1F C2 1_555 1_555
C5F C6 1_555 1_555
H1F C1F 1_555 1_555
H3F C5F 1_555 1_555
C3 C4 1_555 1_555
Cu1F N1F 1_555 1_555
Cu1F N2F 1_555 1_555
N1F C1F 1_555 1_555
N2F C5F 1_555 1_555

#END
