
#######################################################################
#
#                 Cambridge Crystallographic Data Centre
#                                CCDC 
#
#######################################################################
#
# If this CIF has been generated from an entry in the Cambridge 
# Structural Database, then it will include bibliographic, chemical, 
# crystal, experimental, refinement or atomic coordinate data resulting 
# from the CCDC's data processing and validation procedures.
#
#######################################################################

data_GADWEP
_symmetry_cell_setting           triclinic
_symmetry_space_group_name_H-M   'P -1'
_symmetry_Int_Tables_number      2
_space_group_name_Hall           '-P 1'
loop_
_symmetry_equiv_pos_site_id
_symmetry_equiv_pos_as_xyz
1 x,y,z
2 -x,-y,-z
_cell_length_a                   6.9859(7)
_cell_length_b                   9.7633(9)
_cell_length_c                   12.7204(12)
_cell_angle_alpha                89.964(2)
_cell_angle_beta                 84.916(2)
_cell_angle_gamma                82.920(2)
_cell_volume                     857.551
loop_
_atom_site_label
_atom_site_type_symbol
_atom_site_fract_x
_atom_site_fract_y
_atom_site_fract_z
Cu1 Cu 0.12030(3) 0.23591(2) 0.263932(17)
V1 V -0.42739(4) 0.39250(3) 0.29124(2)
F1 F -0.20173(15) 0.26058(11) 0.25897(9)
F2 F 0.42494(16) 0.23716(11) 0.31024(9)
F3 F -0.63901(16) 0.50046(11) 0.37708(9)
F4 F -0.26283(16) 0.53238(11) 0.32248(9)
O1 O -0.4774(2) 0.44022(14) 0.17565(11)
O2 O 0.0425(2) 0.21638(15) 0.41807(11)
O3 O 0.0891(2) 0.43881(14) 0.26768(12)
O4 O -0.3497(2) 0.32485(16) 0.46279(11)
N1 N 0.1793(2) 0.23069(17) 0.10621(13)
N2 N 0.1651(2) 0.02988(16) 0.24474(13)
C1 C 0.1857(3) 0.3345(2) 0.03903(16)
H1 H 0.1636 0.4264 0.0659
C2 C 0.2240(3) 0.3133(2) -0.07045(17)
H2 H 0.2276 0.3898 -0.1164
C3 C 0.2563(3) 0.1807(2) -0.11065(16)
H3 H 0.2808 0.1650 -0.1846
C4 C 0.2526(3) 0.0683(2) -0.04108(15)
C5 C 0.2125(3) 0.0999(2) 0.06655(15)
C6 C 0.2904(3) -0.0745(2) -0.07320(17)
H4 H 0.3171 -0.0969 -0.1461
C7 C 0.2889(3) -0.1775(2) -0.00206(17)
H5 H 0.3156 -0.2707 -0.0258
C8 C 0.2476(3) -0.1479(2) 0.10869(16)
C9 C 0.2074(3) -0.00941(19) 0.14207(15)
C10 C 0.2461(3) -0.2490(2) 0.18758(18)
H6 H 0.2735 -0.3442 0.1693
C11 C 0.2046(3) -0.2083(2) 0.29146(18)
H7 H 0.2033 -0.2756 0.3454
C12 C 0.1644(3) -0.0682(2) 0.31763(16)
H8 H 0.1355 -0.0419 0.3897
H9 H 0.116(5) 0.232(3) 0.461(3)
H10 H -0.060(5) 0.246(4) 0.437(3)
H11 H 0.155(4) 0.462(3) 0.299(2)
H12 H -0.025(5) 0.478(3) 0.286(2)
H13 H -0.353(4) 0.385(3) 0.500(2)
H14 H -0.436(4) 0.287(3) 0.487(2)
V1_2 V 0.57261(4) 0.39250(3) 0.29124(2)
F2_2 F -0.57506(16) 0.23716(11) 0.31024(9)
O5 O 0.6933(2) 0.76049(17) 0.44276(12)
H15 H 0.710(4) 0.702(3) 0.407(3)
H16 H 0.689(5) 0.828(4) 0.414(3)
O6 O 0.6707(3) 0.01304(17) 0.34995(14)
H17 H 0.574(6) 0.063(4) 0.349(3)
H18 H 0.750(5) 0.058(4) 0.339(3)
loop_
_geom_bond_atom_site_label_1
_geom_bond_atom_site_label_2
_geom_bond_site_symmetry_1
_geom_bond_site_symmetry_2
Cu1 F1 1_555 1_555
V1 F1 1_555 1_555
F2 Cu1 1_555 1_555
F3 V1 1_555 1_555
F4 V1 1_555 1_555
O1 V1 1_555 1_555
O2 Cu1 1_555 1_555
O3 Cu1 1_555 1_555
O4 V1 1_555 1_555
O5 H15 1_555 1_555
O6 H17 1_555 1_555
N1 Cu1 1_555 1_555
N2 Cu1 1_555 1_555
C1 N1 1_555 1_555
H1 C1 1_555 1_555
C2 C1 1_555 1_555
H2 C2 1_555 1_555
C3 C2 1_555 1_555
H3 C3 1_555 1_555
C4 C3 1_555 1_555
C5 N1 1_555 1_555
C6 C4 1_555 1_555
H4 C6 1_555 1_555
C7 C6 1_555 1_555
H5 C7 1_555 1_555
C8 C7 1_555 1_555
C9 N2 1_555 1_555
C10 C8 1_555 1_555
H6 C10 1_555 1_555
C11 C10 1_555 1_555
H7 C11 1_555 1_555
C12 N2 1_555 1_555
H8 C12 1_555 1_555
H9 O2 1_555 1_555
H10 O2 1_555 1_555
H11 O3 1_555 1_555
H12 O3 1_555 1_555
H13 O4 1_555 1_555
H14 O4 1_555 1_555
H16 O5 1_555 1_555
H18 O6 1_555 1_555
V1_2 F2 1_555 1_555
F2_2 V1 1_555 1_555
C4 C5 1_555 1_555
C5 C9 1_555 1_555
C8 C9 1_555 1_555
C11 C12 1_555 1_555

#END
