
#######################################################################
#
#                 Cambridge Crystallographic Data Centre
#                                CCDC 
#
#######################################################################
#
# If this CIF has been generated from an entry in the Cambridge 
# Structural Database, then it will include bibliographic, chemical, 
# crystal, experimental, refinement or atomic coordinate data resulting 
# from the CCDC's data processing and validation procedures.
#
#######################################################################

data_GADYUH
_symmetry_cell_setting           triclinic
_symmetry_space_group_name_H-M   'P -1'
_symmetry_Int_Tables_number      2
_space_group_name_Hall           '-P 1'
loop_
_symmetry_equiv_pos_site_id
_symmetry_equiv_pos_as_xyz
1 x,y,z
2 -x,-y,-z
_cell_length_a                   8.334(5)
_cell_length_b                   9.593(5)
_cell_length_c                   15.733(5)
_cell_angle_alpha                87.237(5)
_cell_angle_beta                 85.411(5)
_cell_angle_gamma                79.543(5)
_cell_volume                     1232.24
loop_
_atom_site_label
_atom_site_type_symbol
_atom_site_fract_x
_atom_site_fract_y
_atom_site_fract_z
Cu1 Cu 0.69448(3) 0.07724(3) 1.012193(16)
Cl1 Cl 0.51245(6) 0.09481(6) 0.90444(3)
P1 P 0.97077(7) -0.01308(6) 0.88549(4)
O1 O 0.84375(18) -0.06850(16) 0.94700(10)
O2 O 0.9276(2) 0.15361(17) 0.88870(10)
O3 O 1.14787(18) -0.06722(16) 0.90058(10)
N1 N 0.5603(2) 0.2450(2) 1.06503(12)
N2 N 0.3950(2) 0.2597(2) 1.08106(12)
H2 H 0.3382 0.1926 1.0744
C1 C 0.9368(3) -0.0595(2) 0.77869(14)
H3 H 0.9745 -0.1628 0.7731
H4 H 0.8177 -0.0395 0.7719
C2 C 1.0215(3) 0.0174(2) 0.70643(14)
C3 C 1.1819(3) -0.0383(2) 0.67505(14)
C4 C 1.2541(3) 0.0328(2) 0.60707(14)
H5 H 1.3612 -0.0066 0.5849
C5 C 1.1756(3) 0.1585(2) 0.57058(14)
C6 C 1.0170(3) 0.2118(2) 0.60276(14)
H6 H 0.9606 0.2975 0.5783
C7 C 0.9382(3) 0.1440(2) 0.66936(14)
C8 C 1.2786(3) -0.1763(2) 0.71087(15)
H7 H 1.2262 -0.1958 0.7686
C9 C 1.2696(4) -0.3007(3) 0.6552(2)
H8 H 1.1552 -0.3116 0.6535
H9 H 1.3327 -0.3879 0.6792
H10 H 1.3151 -0.2824 0.5972
C10 C 1.4571(3) -0.1676(3) 0.72189(16)
H11 H 1.5132 -0.1526 0.6659
H12 H 1.5112 -0.2562 0.7486
H13 H 1.4615 -0.0883 0.7581
C11 C 1.2598(3) 0.2376(3) 0.49915(15)
H14 H 1.3648 0.1749 0.4802
C12 C 1.1578(3) 0.2707(3) 0.42193(15)
H15 H 1.1284 0.1830 0.4035
H16 H 1.2214 0.3117 0.3753
H17 H 1.0580 0.3384 0.4374
C13 C 1.3021(3) 0.3741(3) 0.53107(17)
H18 H 1.2010 0.4402 0.5467
H19 H 1.3662 0.4179 0.4858
H20 H 1.3662 0.3516 0.5811
C14 C 0.7595(3) 0.2032(2) 0.69569(15)
H21 H 0.7379 0.1753 0.7570
C15 C 0.6505(3) 0.1350(3) 0.64330(18)
H22 H 0.6640 0.1660 0.5833
H23 H 0.5360 0.1635 0.6646
H24 H 0.6814 0.0315 0.6483
C16 C 0.7153(3) 0.3642(3) 0.68673(18)
H25 H 0.7915 0.4072 0.7169
H26 H 0.6035 0.3956 0.7113
H27 H 0.7225 0.3934 0.6262
C17 C 0.7698(3) 0.3949(2) 1.07233(16)
H28 H 0.8213 0.3708 1.1263
H29 H 0.7700 0.4951 1.0568
H30 H 0.8312 0.3357 1.0274
C18 C 0.5985(3) 0.3694(2) 1.08222(14)
C19 C 0.4567(3) 0.4635(2) 1.10962(15)
H31 H 0.4497 0.5587 1.1258
C20 C 0.3297(3) 0.3901(2) 1.10840(15)
C21 C 0.1511(3) 0.4305(3) 1.13114(17)
H32 H 0.0904 0.3898 1.0907
H33 H 0.1199 0.5341 1.1287
H34 H 0.1253 0.3943 1.1890
H38 H 1.005(3) 0.187(3) 0.8829(17)
Cu1A Cu 1.30552(3) -0.07724(3) 0.987807(16)
O3A O 0.85213(18) 0.06722(16) 1.09942(10)
O4 O 0.1756(2) 0.28287(18) 0.86897(11)
H1 H 0.2542 0.2295 0.8907
C22 C 0.2212(3) 0.3153(3) 0.78171(17)
H35 H 0.1284 0.3751 0.7558
H36 H 0.2528 0.2271 0.7508
H37 H 0.3138 0.3658 0.7787
loop_
_geom_bond_atom_site_label_1
_geom_bond_atom_site_label_2
_geom_bond_site_symmetry_1
_geom_bond_site_symmetry_2
Cu1 Cl1 1_555 1_555
P1 O1 1_555 1_555
O1 Cu1 1_555 1_555
O2 P1 1_555 1_555
O3 P1 1_555 1_555
O4 H1 1_555 1_555
N1 Cu1 1_555 1_555
N2 N1 1_555 1_555
H2 N2 1_555 1_555
C1 P1 1_555 1_555
H3 C1 1_555 1_555
H4 C1 1_555 1_555
C2 C1 1_555 1_555
C3 C2 1_555 1_555
C4 C3 1_555 1_555
H5 C4 1_555 1_555
C5 C4 1_555 1_555
C6 C5 1_555 1_555
H6 C6 1_555 1_555
C7 C2 1_555 1_555
C8 C3 1_555 1_555
H7 C8 1_555 1_555
C9 C8 1_555 1_555
H8 C9 1_555 1_555
H9 C9 1_555 1_555
H10 C9 1_555 1_555
C10 C8 1_555 1_555
H11 C10 1_555 1_555
H12 C10 1_555 1_555
H13 C10 1_555 1_555
C11 C5 1_555 1_555
H14 C11 1_555 1_555
C12 C11 1_555 1_555
H15 C12 1_555 1_555
H16 C12 1_555 1_555
H17 C12 1_555 1_555
C13 C11 1_555 1_555
H18 C13 1_555 1_555
H19 C13 1_555 1_555
H20 C13 1_555 1_555
C14 C7 1_555 1_555
H21 C14 1_555 1_555
C15 C14 1_555 1_555
H22 C15 1_555 1_555
H23 C15 1_555 1_555
H24 C15 1_555 1_555
C16 C14 1_555 1_555
H25 C16 1_555 1_555
H26 C16 1_555 1_555
H27 C16 1_555 1_555
C17 H28 1_555 1_555
H29 C17 1_555 1_555
H30 C17 1_555 1_555
C18 N1 1_555 1_555
C19 C18 1_555 1_555
H31 C19 1_555 1_555
C20 N2 1_555 1_555
C21 C20 1_555 1_555
H32 C21 1_555 1_555
H33 C21 1_555 1_555
H34 C21 1_555 1_555
C22 O4 1_555 1_555
H35 C22 1_555 1_555
H36 C22 1_555 1_555
H37 C22 1_555 1_555
H38 O2 1_555 1_555
Cu1A O3 1_555 1_555
O3A Cu1 1_555 1_555
C6 C7 1_555 1_555
C17 C18 1_555 1_555
C19 C20 1_555 1_555

#END
