
#######################################################################
#
#                 Cambridge Crystallographic Data Centre
#                                CCDC 
#
#######################################################################
#
# If this CIF has been generated from an entry in the Cambridge 
# Structural Database, then it will include bibliographic, chemical, 
# crystal, experimental, refinement or atomic coordinate data resulting 
# from the CCDC's data processing and validation procedures.
#
#######################################################################

data_GADZIU
_symmetry_cell_setting           triclinic
_symmetry_space_group_name_H-M   'P -1'
_symmetry_Int_Tables_number      2
_space_group_name_Hall           '-P 1'
loop_
_symmetry_equiv_pos_site_id
_symmetry_equiv_pos_as_xyz
1 x,y,z
2 -x,-y,-z
_cell_length_a                   7.585(1)
_cell_length_b                   8.544(2)
_cell_length_c                   16.564(1)
_cell_angle_alpha                92.26(1)
_cell_angle_beta                 96.37(1)
_cell_angle_gamma                102.40(2)
_cell_volume                     1039.72
loop_
_atom_site_label
_atom_site_type_symbol
_atom_site_fract_x
_atom_site_fract_y
_atom_site_fract_z
Tl1 Tl 1.02137(5) 0.23949(4) 1.01532(2)
S1 S 0.9874(3) 0.0127(3) 0.8697(2)
N1 N 0.8240(13) 0.0024(10) 0.5463(6)
C1 C 0.9216(15) 0.0605(12) 0.6176(7)
C2 C 0.7684(15) 0.1104(12) 0.4995(6)
C3 C 0.6606(17) 0.0486(14) 0.4181(7)
N2 N 0.7999(12) 0.2683(9) 0.5174(5)
C4 C 0.8962(14) 0.3252(11) 0.5901(6)
N3 N 0.9177(15) 0.4826(11) 0.6089(6)
C5 C 0.9653(13) 0.2225(11) 0.6425(6)
C6 C 1.0726(14) 0.2763(13) 0.7234(7)
N4 N 0.9599(11) 0.3117(8) 0.7860(5)
C7 C 1.0208(16) 0.4431(12) 0.8375(7)
C8 C 0.7885(13) 0.2037(11) 0.7925(6)
C9 C 0.6269(16) 0.2669(14) 0.7583(8)
C10 C 0.7860(13) 0.0620(11) 0.8235(6)
C11 C 0.6151(13) -0.0626(12) 0.8227(7)
C12 C 0.6116(16) -0.2082(13) 0.7659(8)
O1 O 0.4391(11) -0.3159(9) 0.7585(5)
O2 O 0.9406(14) 0.4722(9) 0.8946(5)
C13 C 0.7384(14) 0.1949(13) 1.0209(7)
C14 C 1.3014(14) 0.3321(14) 1.0067(8)
H1 H 1.1596 0.5062 0.8339
H2 H 0.6435 -0.0650 0.4116
H3 H 0.5421 0.0742 0.4156
H4 H 0.7204 0.0967 0.3754
H5 H 1.1433 0.1877 0.7404
H6 H 1.1869 0.3783 0.7200
H7 H 0.6693 0.3708 0.7382
H8 H 0.5651 0.1964 0.7113
H9 H 0.5493 0.2713 0.7964
H10 H 0.9830 0.5408 0.6426
H11 H 0.9481 0.5078 0.5630
H12 H 0.5066 -0.0394 0.8001
H13 H 0.6118 -0.1000 0.8827
H14 H 0.7165 -0.2674 0.7880
H15 H 0.6530 -0.1397 0.7093
H16 H 0.4329 -0.3353 0.6953
H17 H 0.9972 -0.0310 0.6441
H18 H 0.6798 0.2434 0.9783
H19 H 0.6876 0.0835 1.0184
H20 H 0.7155 0.2416 1.0723
H21 H 1.3530 0.3768 1.0598
H22 H 1.3010 0.4297 0.9746
H23 H 1.3460 0.2725 0.9784
Tl1A Tl 0.97863(5) -0.23949(4) 0.98468(2)
S1A S 1.0126(3) -0.0127(3) 1.1303(2)
Tl1A_2 Tl 0.97863(5) 0.76051(4) 0.98468(2)
O2A O 1.0594(14) 0.5278(9) 1.1054(5)
O3 O 0.3029(13) 0.3205(9) 0.4805(6)
H24 H 0.3269 0.2198 0.4806
H25 H 0.4288 0.3935 0.4823
O4 O 0.3800(13) -0.4367(10) 0.6004(5)
H26 H 0.3130 -0.3854 0.5549
H27 H 0.3362 -0.5413 0.5925
O5 O 0.9094(13) 0.2451(11) 0.2657(6)
H28 H 0.7939 0.2447 0.2426
H29 H 0.9272 0.2016 0.2171
loop_
_geom_bond_atom_site_label_1
_geom_bond_atom_site_label_2
_geom_bond_site_symmetry_1
_geom_bond_site_symmetry_2
Tl1 S1 1_555 1_555
S1 C10 1_555 1_555
N1 C1 1_555 1_555
C1 C5 1_555 1_555
C2 N1 1_555 1_555
C3 C2 1_555 1_555
N2 C2 1_555 1_555
C4 N2 1_555 1_555
N3 C4 1_555 1_555
C5 C4 1_555 1_555
C6 C5 1_555 1_555
N4 C6 1_555 1_555
C7 N4 1_555 1_555
C8 N4 1_555 1_555
C9 C8 1_555 1_555
C10 C8 1_555 1_555
C11 C10 1_555 1_555
C12 C11 1_555 1_555
O1 C12 1_555 1_555
O2 Tl1 1_555 1_555
C13 Tl1 1_555 1_555
C14 Tl1 1_555 1_555
O3 H24 1_555 1_555
O4 H26 1_555 1_555
O5 H28 1_555 1_555
H1 C7 1_555 1_555
H2 C3 1_555 1_555
H3 C3 1_555 1_555
H4 C3 1_555 1_555
H5 C6 1_555 1_555
H6 C6 1_555 1_555
H7 C9 1_555 1_555
H8 C9 1_555 1_555
H9 C9 1_555 1_555
H10 N3 1_555 1_555
H11 N3 1_555 1_555
H12 C11 1_555 1_555
H13 C11 1_555 1_555
H14 C12 1_555 1_555
H15 C12 1_555 1_555
H16 O1 1_555 1_555
H17 C1 1_555 1_555
H18 C13 1_555 1_555
H19 C13 1_555 1_555
H20 C13 1_555 1_555
H21 C14 1_555 1_555
H22 C14 1_555 1_555
H23 C14 1_555 1_555
H25 O3 1_555 1_555
H27 O4 1_555 1_555
H29 O5 1_555 1_555
Tl1A S1 1_555 1_555
S1A Tl1 1_555 1_555
Tl1A_2 O2 1_555 1_555
O2A Tl1 1_555 1_555
C7 O2 1_555 1_555
Tl1A S1A 1_555 1_555
Tl1A_2 O2A 1_555 1_555

#END
