
#######################################################################
#
#                 Cambridge Crystallographic Data Centre
#                                CCDC 
#
#######################################################################
#
# If this CIF has been generated from an entry in the Cambridge 
# Structural Database, then it will include bibliographic, chemical, 
# crystal, experimental, refinement or atomic coordinate data resulting 
# from the CCDC's data processing and validation procedures.
#
#######################################################################

data_GAFDAT
_symmetry_cell_setting           monoclinic
_symmetry_space_group_name_H-M   'P 21/c'
_symmetry_Int_Tables_number      14
_space_group_name_Hall           '-P 2ybc'
loop_
_symmetry_equiv_pos_site_id
_symmetry_equiv_pos_as_xyz
1 x,y,z
2 x,1/2-y,1/2+z
3 -x,-y,-z
4 -x,1/2+y,1/2-z
_cell_length_a                   12.998(3)
_cell_length_b                   15.816(3)
_cell_length_c                   21.168(5)
_cell_angle_alpha                90
_cell_angle_beta                 106.996(10)
_cell_angle_gamma                90
_cell_volume                     4161.58
loop_
_atom_site_label
_atom_site_type_symbol
_atom_site_fract_x
_atom_site_fract_y
_atom_site_fract_z
O11 O 0.6568(6) 0.4059(7) 0.2407(4)
O13 O 0.1933(10) 0.1798(10) 0.4144(7)
O14 O 0.2842(19) 0.109(2) 0.3041(14)
Yb1 Yb 0.36501(2) 0.57857(2) 0.219124(15)
Yb2 Yb 0.13272(2) 0.73061(2) 0.095736(16)
O1 O 0.5469(4) 0.5529(4) 0.2839(3)
O2 O 0.4788(4) 0.6796(4) 0.2868(3)
O3 O 0.0350(4) 0.8234(4) 0.0111(3)
O4 O -0.0285(4) 0.6955(4) 0.0125(3)
O5 O 0.1471(4) 0.8599(4) 0.1603(3)
O6 O 0.0166(4) 0.7696(4) 0.1554(3)
O7 O 0.0683(4) 0.6070(4) 0.1268(3)
O8 O 0.2105(4) 0.5223(4) 0.1588(2)
O9 O 0.4583(4) 0.6113(4) 0.1429(3)
O10 O 0.4109(4) 0.4788(4) 0.1495(3)
N1 N 0.3632(5) 0.4533(5) 0.2887(3)
N2 N 0.2584(5) 0.5979(4) 0.2998(3)
N3 N 0.2753(5) 0.8053(5) 0.0596(3)
N4 N 0.1951(5) 0.6517(5) 0.0146(3)
N5 N 0.7844(8) 0.8568(6) 0.4300(5)
H1 H 0.7314 0.8901 0.4125
H2 H 0.8424 0.8765 0.4570
N6 N 0.5989(19) 0.8077(15) 0.3512(14)
H3 H 0.5360 0.7975 0.3247
H4 H 0.6149 0.8578 0.3668
N7 N 0.9153(17) 0.5478(13) 0.4361(13)
H5 H 0.9775 0.5527 0.4648
H6 H 0.8943 0.4994 0.4184
N8 N 0.0703(10) 1.1032(7) 0.2971(7)
H7 H 0.1217 1.1187 0.2817
H8 H 0.0476 1.1368 0.3220
N9 N 0.141(2) 1.0154(17) 0.2159(15)
H9 H 0.1685 0.9910 0.1881
H10 H 0.1604 1.0661 0.2289
N10 N -0.094(2) 0.7694(10) 0.2450(16)
H11 H -0.1407 0.7551 0.2650
H12 H -0.0739 0.7332 0.2209
N11 N 0.5757(19) 0.6530(11) 0.0647(12)
H13 H 0.5615 0.6687 0.1002
H14 H 0.6129 0.6853 0.0471
N12 N 0.365(3) 0.385(2) 0.0423(18)
H15 H 0.3449 0.3941 0.0767
H16 H 0.3433 0.3401 0.0188
C1 C 0.4125(7) 0.3816(7) 0.2824(5)
H17 H 0.4519 0.3798 0.2522
C2 C 0.4084(9) 0.3083(7) 0.3189(6)
H18 H 0.4428 0.2589 0.3124
C3 C 0.3537(10) 0.3115(8) 0.3636(6)
H19 H 0.3515 0.2641 0.3892
C4 C 0.2992(8) 0.3856(7) 0.3722(5)
C5 C 0.2395(10) 0.3933(9) 0.4193(6)
H20 H 0.2387 0.3481 0.4473
C6 C 0.1853(9) 0.4634(9) 0.4238(5)
H21 H 0.1440 0.4653 0.4530
C7 C 0.1900(7) 0.5356(7) 0.3845(4)
C8 C 0.1344(7) 0.6112(8) 0.3865(5)
H22 H 0.0931 0.6164 0.4155
O12 O 0.2761(4) 0.6964(3) 0.1779(2)
H23 H 0.3078 0.7438 0.2017
C9 C 0.1407(7) 0.6756(7) 0.3470(5)
H24 H 0.1037 0.7257 0.3480
C10 C 0.2039(6) 0.6668(6) 0.3038(4)
H25 H 0.2075 0.7122 0.2766
C11 C 0.2508(6) 0.5324(6) 0.3393(4)
C12 C 0.3048(6) 0.4552(6) 0.3338(4)
C13 C 0.3159(7) 0.8801(6) 0.0828(5)
H26 H 0.2945 0.9045 0.1170
C14 C 0.3896(8) 0.9235(7) 0.0579(6)
H27 H 0.4145 0.9767 0.0739
C15 C 0.4237(7) 0.8869(7) 0.0104(5)
H28 H 0.4751 0.9140 -0.0050
C16 C 0.3836(7) 0.8094(7) -0.0161(4)
C17 C 0.4135(8) 0.7672(8) -0.0685(5)
H29 H 0.4643 0.7917 -0.0859
C18 C 0.3689(8) 0.6927(9) -0.0924(5)
H30 H 0.3873 0.6683 -0.1276
C19 C 0.2948(7) 0.6503(6) -0.0660(4)
C20 C 0.2489(8) 0.5723(7) -0.0883(5)
H31 H 0.2668 0.5456 -0.1228
C21 C 0.1780(7) 0.5342(7) -0.0607(4)
H32 H 0.1475 0.4820 -0.0756
C22 C 0.1532(6) 0.5770(6) -0.0088(4)
H33 H 0.1048 0.5519 0.0103
C23 C 0.2661(6) 0.6871(6) -0.0130(4)
C24 C 0.3105(6) 0.7694(6) 0.0112(4)
C25 C 0.5571(6) 0.6281(6) 0.3034(4)
C26 C 0.6644(6) 0.6573(6) 0.3486(4)
C27 C 0.6785(6) 0.7400(6) 0.3696(4)
C28 C 0.7759(6) 0.7672(6) 0.4140(4)
C29 C 0.8572(6) 0.7066(6) 0.4375(4)
C30 C 0.8441(6) 0.6229(6) 0.4173(4)
C31 C 0.7471(6) 0.5991(6) 0.3713(4)
H34 H 0.7379 0.5438 0.3558
C32 C -0.0398(6) 0.7698(6) -0.0103(4)
C33 C 0.0656(6) 0.8375(6) 0.1777(4)
C34 C 0.0260(6) 0.8902(6) 0.2246(4)
C35 C 0.0636(6) 0.9709(6) 0.2409(4)
C36 C 0.0223(6) 1.0209(6) 0.2811(4)
C37 C -0.0587(6) 0.9897(5) 0.3065(4)
C38 C -0.0928(6) 0.9053(5) 0.2926(4)
H35 H -0.1438 0.8827 0.3107
C39 C -0.0509(6) 0.8554(6) 0.2520(5)
C40 C 0.1140(6) 0.5431(5) 0.1566(4)
C41 C 0.4474(6) 0.5363(6) 0.1204(4)
C42 C 0.4773(6) 0.5172(5) 0.0589(4)
C43 C 0.5372(6) 0.5734(6) 0.0350(4)
C44 C 0.4378(6) 0.4438(6) 0.0236(4)
C32A C 0.9602(6) 0.7302(6) 0.4897(4)
C29A C -0.1428(6) 0.7934(6) -0.0625(4)
C40C C -0.1140(6) 1.0431(5) 0.3434(4)
C37C C 0.0587(6) 0.4897(5) 0.1935(4)
C44B C 0.5622(6) 0.5562(6) -0.0236(4)
C43B C 0.4628(6) 0.4266(6) -0.0350(4)
loop_
_geom_bond_atom_site_label_1
_geom_bond_atom_site_label_2
_geom_bond_site_symmetry_1
_geom_bond_site_symmetry_2
Yb1 O1 1_555 1_555
Yb2 O3 1_555 1_555
O1 C25 1_555 1_555
O2 Yb1 1_555 1_555
O3 C32 1_555 1_555
O4 Yb2 1_555 1_555
O5 Yb2 1_555 1_555
O6 Yb2 1_555 1_555
O7 Yb2 1_555 1_555
O8 Yb1 1_555 1_555
O9 Yb1 1_555 1_555
O10 Yb1 1_555 1_555
N1 Yb1 1_555 1_555
N2 Yb1 1_555 1_555
N3 Yb2 1_555 1_555
N4 Yb2 1_555 1_555
N5 H1 1_555 1_555
H2 N5 1_555 1_555
N6 H3 1_555 1_555
H4 N6 1_555 1_555
N7 H5 1_555 1_555
H6 N7 1_555 1_555
N8 H7 1_555 1_555
H8 N8 1_555 1_555
N9 H9 1_555 1_555
H10 N9 1_555 1_555
N10 H11 1_555 1_555
H12 N10 1_555 1_555
N11 H13 1_555 1_555
H14 N11 1_555 1_555
N12 H15 1_555 1_555
H16 N12 1_555 1_555
C1 N1 1_555 1_555
H17 C1 1_555 1_555
C2 C1 1_555 1_555
H18 C2 1_555 1_555
C3 C2 1_555 1_555
H19 C3 1_555 1_555
C4 C3 1_555 1_555
C5 C4 1_555 1_555
H20 C5 1_555 1_555
C6 C5 1_555 1_555
H21 C6 1_555 1_555
C7 C6 1_555 1_555
C8 C7 1_555 1_555
H22 C8 1_555 1_555
O12 Yb1 1_555 1_555
H23 O12 1_555 1_555
C9 C8 1_555 1_555
H24 C9 1_555 1_555
C10 N2 1_555 1_555
H25 C10 1_555 1_555
C11 N2 1_555 1_555
C12 N1 1_555 1_555
C13 N3 1_555 1_555
H26 C13 1_555 1_555
C14 C13 1_555 1_555
H27 C14 1_555 1_555
C15 C14 1_555 1_555
H28 C15 1_555 1_555
C16 C15 1_555 1_555
C17 C16 1_555 1_555
H29 C17 1_555 1_555
C18 C17 1_555 1_555
H30 C18 1_555 1_555
C19 C18 1_555 1_555
C20 C19 1_555 1_555
H31 C20 1_555 1_555
C21 C20 1_555 1_555
H32 C21 1_555 1_555
C22 N4 1_555 1_555
H33 C22 1_555 1_555
C23 N4 1_555 1_555
C24 N3 1_555 1_555
C25 O2 1_555 1_555
C26 C25 1_555 1_555
C27 N6 1_555 1_555
C28 N5 1_555 1_555
C29 C28 1_555 1_555
C30 N7 1_555 1_555
C31 C26 1_555 1_555
H34 C31 1_555 1_555
C32 O4 1_555 1_555
C33 O5 1_555 1_555
C34 C33 1_555 1_555
C35 N9 1_555 1_555
C36 N8 1_555 1_555
C37 C36 1_555 1_555
C38 C37 1_555 1_555
H35 C38 1_555 1_555
C39 N10 1_555 1_555
C40 O7 1_555 1_555
C41 O9 1_555 1_555
C42 C41 1_555 1_555
C43 N11 1_555 1_555
C44 N12 1_555 1_555
C32A C29 1_555 1_555
C29A C32 1_555 1_555
C40C C37 1_555 1_555
C37C C40 1_555 1_555
C44B C43 1_555 1_555
C43B C44 1_555 1_555
Yb2 O12 1_555 1_555
O6 C33 1_555 1_555
O8 C40 1_555 1_555
O10 C41 1_555 1_555
C4 C12 1_555 1_555
C7 C11 1_555 1_555
C9 C10 1_555 1_555
C11 C12 1_555 1_555
C16 C24 1_555 1_555
C19 C23 1_555 1_555
C21 C22 1_555 1_555
C23 C24 1_555 1_555
C26 C27 1_555 1_555
C27 C28 1_555 1_555
C29 C30 1_555 1_555
C30 C31 1_555 1_555
C34 C35 1_555 1_555
C34 C39 1_555 1_555
C35 C36 1_555 1_555
C38 C39 1_555 1_555
C42 C43 1_555 1_555
C42 C44 1_555 1_555

#END
