
#######################################################################
#
#                 Cambridge Crystallographic Data Centre
#                                CCDC 
#
#######################################################################
#
# If this CIF has been generated from an entry in the Cambridge 
# Structural Database, then it will include bibliographic, chemical, 
# crystal, experimental, refinement or atomic coordinate data resulting 
# from the CCDC's data processing and validation procedures.
#
#######################################################################

data_GAFFOJ
_symmetry_cell_setting           triclinic
_symmetry_space_group_name_H-M   'P -1'
_symmetry_Int_Tables_number      2
_space_group_name_Hall           '-P 1'
loop_
_symmetry_equiv_pos_site_id
_symmetry_equiv_pos_as_xyz
1 x,y,z
2 -x,-y,-z
_cell_length_a                   12.301(13)
_cell_length_b                   12.992(17)
_cell_length_c                   13.221(14)
_cell_angle_alpha                70.85(9)
_cell_angle_beta                 66.48(8)
_cell_angle_gamma                78.79(8)
_cell_volume                     1825.24
loop_
_atom_site_label
_atom_site_type_symbol
_atom_site_fract_x
_atom_site_fract_y
_atom_site_fract_z
Cd1 Cd 0.24855(4) 0.25154(4) 0.76935(4)
N3 N -0.1180(4) 0.3042(3) 1.0193(4)
N4 N 0.0759(4) 0.2910(4) 0.9210(4)
N5 N -0.3933(4) 0.0430(4) 1.0271(4)
N6 N -0.3229(4) -0.1213(4) 1.0994(4)
N7 N -0.4729(4) 0.5101(4) 1.2380(4)
N8 N -0.3593(4) 0.6104(4) 1.2547(4)
N9 N 0.6104(4) 0.1822(3) 0.5138(4)
N10 N 0.4200(3) 0.2067(3) 0.6194(3)
N11 N 0.9074(4) 0.4592(4) 0.4361(4)
N12 N 0.8332(4) 0.6221(4) 0.3541(4)
N13 N 0.9552(3) -0.0232(4) 0.2683(4)
N14 N 0.8528(3) -0.1177(4) 0.2291(4)
C1 C -0.2438(5) 0.3020(5) 1.0501(4)
C2 C -0.2868(5) 0.2248(4) 1.0265(4)
H1 H -0.2339 0.1704 0.9943
C3 C -0.4071(5) 0.2279(5) 1.0502(4)
C4 C -0.4814(5) 0.3042(5) 1.1005(4)
H2 H -0.5643 0.3042 1.1188
C5 C -0.4412(5) 0.3825(5) 1.1265(4)
C6 C -0.3185(5) 0.3780(4) 1.0997(4)
H3 H -0.2871 0.4290 1.1166
C7 C -0.0303(5) 0.2782(5) 0.9266(5)
H4 H -0.0440 0.2539 0.8725
C8 C 0.0567(5) 0.3281(5) 1.0137(5)
H5 H 0.1174 0.3457 1.0313
C9 C -0.0639(5) 0.3361(4) 1.0774(5)
H6 H -0.1013 0.3585 1.1458
C10 C -0.4600(5) 0.1509(4) 1.0219(5)
H7 H -0.4622 0.1840 0.9437
H8 H -0.5429 0.1409 1.0764
C11 C -0.3941(5) -0.0363(6) 1.1216(5)
H9 H -0.4414 -0.0315 1.1972
C12 C -0.2727(5) -0.0913(5) 0.9810(5)
H10 H -0.2154 -0.1363 0.9378
C13 C -0.3141(5) 0.0090(5) 0.9340(5)
H11 H -0.2935 0.0474 0.8548
C14 C -0.5261(4) 0.4633(5) 1.1823(5)
H12 H -0.5500 0.5227 1.1239
H13 H -0.5984 0.4273 1.2404
C15 C -0.4102(5) 0.5987(5) 1.1885(5)
H14 H -0.4033 0.6471 1.1149
C16 C -0.3898(5) 0.5226(5) 1.3504(5)
H15 H -0.3657 0.5079 1.4140
C17 C -0.4600(5) 0.4596(5) 1.3409(5)
H16 H -0.4929 0.3941 1.3948
C18 C 0.7370(5) 0.1830(5) 0.4735(4)
C19 C 0.7879(5) 0.2654(4) 0.4799(4)
H17 H 0.7390 0.3214 0.5122
C20 C 0.9091(5) 0.2660(5) 0.4392(4)
C21 C 0.9786(5) 0.1849(5) 0.3899(4)
H18 H 1.0626 0.1870 0.3592
C22 C 0.9290(5) 0.1002(5) 0.3838(4)
C23 C 0.8055(5) 0.1010(5) 0.4288(4)
H19 H 0.7684 0.0435 0.4284
C24 C 0.5290(5) 0.2176(4) 0.6041(4)
H20 H 0.5496 0.2469 0.6506
C25 C 0.4274(5) 0.1640(5) 0.5345(5)
H21 H 0.3616 0.1481 0.5231
C26 C 0.5452(5) 0.1476(4) 0.4682(5)
H22 H 0.5754 0.1184 0.4042
C27 C 0.9703(5) 0.3500(4) 0.4506(5)
H23 H 1.0519 0.3549 0.3924
H24 H 0.9768 0.3252 0.5274
C28 C 0.8996(5) 0.5296(5) 0.3386(5)
H25 H 0.9374 0.5154 0.2658
C29 C 0.7964(5) 0.6035(5) 0.4703(5)
H26 H 0.7463 0.6545 0.5097
C30 C 0.8373(5) 0.5069(5) 0.5230(5)
H27 H 0.8218 0.4773 0.6029
C31 C 1.0063(4) 0.0124(4) 0.3342(4)
H28 H 1.0170 -0.0509 0.3969
H29 H 1.0855 0.0393 0.2831
C32 C 0.8957(5) -0.1137(5) 0.3043(5)
H30 H 0.8862 -0.1678 0.3754
C33 C 0.8853(5) -0.0238(5) 0.1417(5)
H31 H 0.8659 -0.0026 0.0746
C34 C 0.9499(5) 0.0355(5) 0.1641(5)
H32 H 0.9835 0.1028 0.1170
N6A N 0.3229(4) 0.1213(4) 0.9006(4)
N8A N 0.3593(4) 0.3896(4) 0.7453(4)
N12A N 0.1668(4) 0.3779(4) 0.6459(4)
N14A N 0.1472(3) 0.1177(4) 0.7709(4)
Cd1A Cd -0.24855(4) -0.25154(4) 1.23065(4)
Cd1A_2 Cd -0.24855(4) 0.74846(4) 1.23065(4)
Cd1A_3 Cd 0.75145(4) 0.74846(4) 0.23065(4)
Cd1A_4 Cd 0.75145(4) -0.25154(4) 0.23065(4)
O1 O -0.3266(4) 0.2925(5) 0.7583(4)
O2 O -0.2127(5) 0.3822(4) 0.7806(4)
O3 O -0.1470(4) 0.2257(4) 0.7478(4)
N1 N -0.2302(7) 0.2960(5) 0.7614(4)
O4 O 0.2697(3) 0.1746(4) 0.2309(4)
O5 O 0.3709(4) 0.0804(4) 0.3365(4)
O6 O 0.2550(4) 0.2167(5) 0.3780(5)
N2 N 0.2965(5) 0.1583(5) 0.3164(5)
O7 O 0.1848(4) 0.4168(4) 0.1611(4)
loop_
_geom_bond_atom_site_label_1
_geom_bond_atom_site_label_2
_geom_bond_site_symmetry_1
_geom_bond_site_symmetry_2
Cd1 N4 1_555 1_555
O1 N1 1_555 1_555
O2 N1 1_555 1_555
O3 N1 1_555 1_555
O4 N2 1_555 1_555
O5 N2 1_555 1_555
O6 N2 1_555 1_555
N3 C1 1_555 1_555
N4 C7 1_555 1_555
N5 C10 1_555 1_555
N6 C11 1_555 1_555
N7 C14 1_555 1_555
N8 C15 1_555 1_555
N9 C18 1_555 1_555
N10 Cd1 1_555 1_555
N11 C27 1_555 1_555
N12 C28 1_555 1_555
N13 C31 1_555 1_555
N14 C32 1_555 1_555
C1 C2 1_555 1_555
C2 H1 1_555 1_555
C3 C2 1_555 1_555
C4 C3 1_555 1_555
H2 C4 1_555 1_555
C5 C4 1_555 1_555
C6 C1 1_555 1_555
H3 C6 1_555 1_555
C7 N3 1_555 1_555
H4 C7 1_555 1_555
C8 N4 1_555 1_555
H5 C8 1_555 1_555
C9 N3 1_555 1_555
H6 C9 1_555 1_555
C10 C3 1_555 1_555
H7 C10 1_555 1_555
H8 C10 1_555 1_555
C11 N5 1_555 1_555
H9 C11 1_555 1_555
C12 N6 1_555 1_555
H10 C12 1_555 1_555
C13 N5 1_555 1_555
H11 C13 1_555 1_555
C14 C5 1_555 1_555
H12 C14 1_555 1_555
H13 C14 1_555 1_555
C15 N7 1_555 1_555
H14 C15 1_555 1_555
C16 N8 1_555 1_555
H15 C16 1_555 1_555
C17 N7 1_555 1_555
H16 C17 1_555 1_555
C18 C19 1_555 1_555
C19 H17 1_555 1_555
C20 C19 1_555 1_555
C21 C20 1_555 1_555
H18 C21 1_555 1_555
C22 C21 1_555 1_555
C23 C18 1_555 1_555
H19 C23 1_555 1_555
C24 N9 1_555 1_555
H20 C24 1_555 1_555
C25 N10 1_555 1_555
H21 C25 1_555 1_555
C26 N9 1_555 1_555
H22 C26 1_555 1_555
C27 C20 1_555 1_555
H23 C27 1_555 1_555
H24 C27 1_555 1_555
C28 N11 1_555 1_555
H25 C28 1_555 1_555
C29 N12 1_555 1_555
H26 C29 1_555 1_555
C30 N11 1_555 1_555
H27 C30 1_555 1_555
C31 C22 1_555 1_555
H28 C31 1_555 1_555
H29 C31 1_555 1_555
C32 N13 1_555 1_555
H30 C32 1_555 1_555
C33 N14 1_555 1_555
H31 C33 1_555 1_555
C34 N13 1_555 1_555
H32 C34 1_555 1_555
N6A Cd1 1_555 1_555
N8A Cd1 1_555 1_555
N12A Cd1 1_555 1_555
N14A Cd1 1_555 1_555
Cd1A N6 1_555 1_555
Cd1A_2 N8 1_555 1_555
Cd1A_3 N12 1_555 1_555
Cd1A_4 N14 1_555 1_555
N10 C24 1_555 1_555
C5 C6 1_555 1_555
C8 C9 1_555 1_555
C12 C13 1_555 1_555
C16 C17 1_555 1_555
C22 C23 1_555 1_555
C25 C26 1_555 1_555
C29 C30 1_555 1_555
C33 C34 1_555 1_555

#END
