
#######################################################################
#
#                 Cambridge Crystallographic Data Centre
#                                CCDC 
#
#######################################################################
#
# If this CIF has been generated from an entry in the Cambridge 
# Structural Database, then it will include bibliographic, chemical, 
# crystal, experimental, refinement or atomic coordinate data resulting 
# from the CCDC's data processing and validation procedures.
#
#######################################################################

data_GAFFID
_symmetry_cell_setting           triclinic
_symmetry_space_group_name_H-M   'P -1'
_symmetry_Int_Tables_number      2
_space_group_name_Hall           '-P 1'
loop_
_symmetry_equiv_pos_site_id
_symmetry_equiv_pos_as_xyz
1 x,y,z
2 -x,-y,-z
_cell_length_a                   8.860(6)
_cell_length_b                   10.518(7)
_cell_length_c                   12.331(8)
_cell_angle_alpha                81.71(5)
_cell_angle_beta                 76.18(5)
_cell_angle_gamma                82.76(5)
_cell_volume                     1099.17
loop_
_atom_site_label
_atom_site_type_symbol
_atom_site_fract_x
_atom_site_fract_y
_atom_site_fract_z
Cu1 Cu 0.0000 1.0000 0.0000
N1 N 0.7037(2) 0.64343(17) 0.06325(16)
N2 N 0.8751(2) 0.78812(18) -0.00819(17)
N3 N 0.1410(2) 0.78456(17) 0.27383(15)
N4 N 0.0512(2) 0.92710(17) 0.14958(15)
N5 N 0.5872(2) 0.16716(17) 0.18824(15)
N6 N 0.7825(2) 0.06910(17) 0.07431(15)
C1 C 0.5811(3) 0.5796(2) 0.14037(19)
C2 C 0.4477(3) 0.6513(2) 0.19258(19)
H7 H 0.4363 0.7425 0.1753
C3 C 0.3310(3) 0.5891(2) 0.27011(18)
C4 C 0.3486(3) 0.4549(2) 0.29461(18)
H8 H 0.2681 0.4119 0.3466
C5 C 0.4831(3) 0.3839(2) 0.24340(18)
C6 C 0.6002(3) 0.4459(2) 0.16612(19)
H9 H 0.6924 0.3976 0.1311
C7 C 0.7548(3) 0.7571(2) 0.0729(2)
H10 H 0.7086 0.8085 0.1319
C8 C 0.9040(3) 0.6877(2) -0.0742(2)
H11 H 0.9851 0.6821 -0.1400
C9 C 0.8004(3) 0.5989(2) -0.0318(2)
H12 H 0.7954 0.5215 -0.0615
C10 C 0.1853(3) 0.6604(2) 0.33430(19)
H13 H 0.0979 0.6056 0.3496
H14 H 0.2029 0.6754 0.4076
C11 C 0.0812(3) 0.8031(2) 0.18183(19)
H15 H 0.0627 0.7354 0.1446
C12 C 0.0955(3) 0.9911(2) 0.2255(2)
H16 H 0.0880 1.0822 0.2241
C13 C 0.1512(3) 0.9044(2) 0.3023(2)
H17 H 0.1896 0.9226 0.3635
C14 C 0.5010(3) 0.2400(2) 0.28003(19)
H18 H 0.5565 0.2236 0.3422
H19 H 0.3962 0.2090 0.3089
C15 C 0.7388(3) 0.1232(2) 0.16879(19)
H20 H 0.8062 0.1299 0.2167
C16 C 0.6506(3) 0.0797(2) 0.0317(2)
H21 H 0.6457 0.0492 -0.0362
C17 C 0.5292(3) 0.1398(2) 0.1004(2)
H22 H 0.4253 0.1593 0.0905
N1A N -0.7037(2) 1.35657(17) -0.06325(16)
N2A N -0.8751(2) 1.21188(18) 0.00819(17)
N3A N -0.1410(2) 1.21544(17) -0.27383(15)
N4A N -0.0512(2) 1.07290(17) -0.14958(15)
N5A N -0.5872(2) 1.83284(17) -0.18824(15)
N6A N -0.7825(2) 1.93090(17) -0.07431(15)
C1A C -0.5811(3) 1.4204(2) -0.14037(19)
C2A C -0.4477(3) 1.3487(2) -0.19258(19)
H7A H -0.4363 1.2575 -0.1753
C3A C -0.3310(3) 1.4109(2) -0.27011(18)
C4A C -0.3486(3) 1.5451(2) -0.29461(18)
H8A H -0.2681 1.5881 -0.3466
C5A C -0.4831(3) 1.6161(2) -0.24340(18)
C6A C -0.6002(3) 1.5541(2) -0.16612(19)
H9A H -0.6924 1.6024 -0.1311
C7A C -0.7548(3) 1.2429(2) -0.0729(2)
H10A H -0.7086 1.1915 -0.1319
C8A C -0.9040(3) 1.3123(2) 0.0742(2)
H11A H -0.9851 1.3179 0.1400
C9A C -0.8004(3) 1.4011(2) 0.0318(2)
H12A H -0.7954 1.4785 0.0615
C10A C -0.1853(3) 1.3396(2) -0.33430(19)
H13A H -0.0979 1.3944 -0.3496
H14A H -0.2029 1.3246 -0.4076
C11A C -0.0812(3) 1.1969(2) -0.18183(19)
H15A H -0.0627 1.2646 -0.1446
C12A C -0.0955(3) 1.0089(2) -0.2255(2)
H16A H -0.0880 0.9178 -0.2241
C13A C -0.1512(3) 1.0956(2) -0.3023(2)
H17A H -0.1896 1.0774 -0.3635
C14A C -0.5010(3) 1.7600(2) -0.28003(19)
H18A H -0.5565 1.7764 -0.3422
H19A H -0.3962 1.7910 -0.3089
C15A C -0.7388(3) 1.8768(2) -0.16879(19)
H20A H -0.8062 1.8701 -0.2167
C16A C -0.6506(3) 1.9203(2) -0.0317(2)
H21A H -0.6457 1.9508 0.0362
C17A C -0.5292(3) 1.8602(2) -0.1004(2)
H22A H -0.4253 1.8407 -0.0905
N6_2 N -0.2175(2) 1.06910(17) 0.07431(15)
N6A_2 N 0.2175(2) 0.93090(17) -0.07431(15)
Cu1_2 Cu 1.0000 0.0000 0.0000
Cu1_3 Cu -1.0000 2.0000 0.0000
Cu2 Cu 0.5000 0.5000 0.5000
O1 O 0.4771(2) 0.68437(15) 0.46084(14)
O2 O 0.5522(2) 0.87435(16) 0.37836(16)
O3 O 0.7029(2) 0.47647(16) 0.40380(15)
O4 O 0.8993(2) 0.53981(18) 0.26637(16)
C18 C 0.5822(3) 0.7559(2) 0.4053(2)
C19 C 0.7500(3) 0.7020(2) 0.3730(2)
H23 H 0.7990 0.7083 0.4360
H24 H 0.8021 0.7595 0.3076
C20 C 0.7877(3) 0.5642(2) 0.3433(2)
O1A O 0.5229(2) 0.31563(15) 0.53916(14)
O2A O 0.4478(2) 0.12565(16) 0.62164(16)
O3A O 0.2971(2) 0.52353(16) 0.59620(15)
O4A O 0.1007(2) 0.46019(18) 0.73363(16)
C18A C 0.4178(3) 0.2441(2) 0.5947(2)
C19A C 0.2500(3) 0.2980(2) 0.6270(2)
H23A H 0.2010 0.2917 0.5640
H24A H 0.1979 0.2405 0.6924
C20A C 0.2123(3) 0.4358(2) 0.6567(2)
O5 O 0.2910(2) 0.97211(17) 0.52263(17)
H1 H 0.3302 1.0204 0.5613
H2 H 0.3780 0.9418 0.4743
O6 O 0.8634(2) 0.23590(16) 0.35753(16)
H3 H 0.8032 0.1786 0.4013
H4 H 0.8143 0.3045 0.3700
O7 O 0.8563(3) 0.79513(19) 0.58119(19)
H5 H 0.9562 0.7829 0.6004
H6 H 0.8488 0.8725 0.5355
loop_
_geom_bond_atom_site_label_1
_geom_bond_atom_site_label_2
_geom_bond_site_symmetry_1
_geom_bond_site_symmetry_2
Cu1 N4 1_555 1_555
Cu2 O1 1_555 1_555
O1 C18 1_555 1_555
O2 C18 1_555 1_555
O3 Cu2 1_555 1_555
O4 C20 1_555 1_555
O5 H1 1_555 1_555
H2 O5 1_555 1_555
O6 H3 1_555 1_555
H4 O6 1_555 1_555
O7 H5 1_555 1_555
H6 O7 1_555 1_555
N1 C1 1_555 1_555
N2 C7 1_555 1_555
N3 C10 1_555 1_555
N4 C11 1_555 1_555
N5 C14 1_555 1_555
N6 C15 1_555 1_555
C1 C2 1_555 1_555
C2 H7 1_555 1_555
C3 C2 1_555 1_555
C4 C3 1_555 1_555
H8 C4 1_555 1_555
C5 C4 1_555 1_555
C6 C1 1_555 1_555
H9 C6 1_555 1_555
C7 N1 1_555 1_555
H10 C7 1_555 1_555
C8 N2 1_555 1_555
H11 C8 1_555 1_555
C9 N1 1_555 1_555
H12 C9 1_555 1_555
C10 C3 1_555 1_555
H13 C10 1_555 1_555
H14 C10 1_555 1_555
C11 N3 1_555 1_555
H15 C11 1_555 1_555
C12 N4 1_555 1_555
H16 C12 1_555 1_555
C13 N3 1_555 1_555
H17 C13 1_555 1_555
C14 C5 1_555 1_555
H18 C14 1_555 1_555
H19 C14 1_555 1_555
C15 N5 1_555 1_555
H20 C15 1_555 1_555
C16 N6 1_555 1_555
H21 C16 1_555 1_555
C17 N5 1_555 1_555
H22 C17 1_555 1_555
C18 C19 1_555 1_555
C19 H23 1_555 1_555
H24 C19 1_555 1_555
C20 O3 1_555 1_555
N1A C1A 1_555 1_555
N2A C7A 1_555 1_555
N3A C10A 1_555 1_555
N4A Cu1 1_555 1_555
N5A C14A 1_555 1_555
N6A C15A 1_555 1_555
C1A C2A 1_555 1_555
C2A H7A 1_555 1_555
C3A C2A 1_555 1_555
C4A C3A 1_555 1_555
H8A C4A 1_555 1_555
C5A C4A 1_555 1_555
C6A C1A 1_555 1_555
H9A C6A 1_555 1_555
C7A N1A 1_555 1_555
H10A C7A 1_555 1_555
C8A N2A 1_555 1_555
H11A C8A 1_555 1_555
C9A N1A 1_555 1_555
H12A C9A 1_555 1_555
C10A C3A 1_555 1_555
H13A C10A 1_555 1_555
H14A C10A 1_555 1_555
C11A N3A 1_555 1_555
H15A C11A 1_555 1_555
C12A N4A 1_555 1_555
H16A C12A 1_555 1_555
C13A N3A 1_555 1_555
H17A C13A 1_555 1_555
C14A C5A 1_555 1_555
H18A C14A 1_555 1_555
H19A C14A 1_555 1_555
C15A N5A 1_555 1_555
H20A C15A 1_555 1_555
C16A N6A 1_555 1_555
H21A C16A 1_555 1_555
C17A N5A 1_555 1_555
H22A C17A 1_555 1_555
O1A Cu2 1_555 1_555
O2A C18A 1_555 1_555
O3A Cu2 1_555 1_555
O4A C20A 1_555 1_555
C18A O1A 1_555 1_555
C19A C18A 1_555 1_555
H23A C19A 1_555 1_555
H24A C19A 1_555 1_555
C20A O3A 1_555 1_555
N6_2 Cu1 1_555 1_555
N6A_2 Cu1 1_555 1_555
Cu1_2 N6 1_555 1_555
Cu1_3 N6A 1_555 1_555
C5 C6 1_555 1_555
C8 C9 1_555 1_555
C12 C13 1_555 1_555
C16 C17 1_555 1_555
C19 C20 1_555 1_555
N4A C11A 1_555 1_555
C5A C6A 1_555 1_555
C8A C9A 1_555 1_555
C12A C13A 1_555 1_555
C16A C17A 1_555 1_555
C19A C20A 1_555 1_555

#END
