
#######################################################################
#
#                 Cambridge Crystallographic Data Centre
#                                CCDC 
#
#######################################################################
#
# If this CIF has been generated from an entry in the Cambridge 
# Structural Database, then it will include bibliographic, chemical, 
# crystal, experimental, refinement or atomic coordinate data resulting 
# from the CCDC's data processing and validation procedures.
#
#######################################################################

data_GAFFUP
_symmetry_cell_setting           triclinic
_symmetry_space_group_name_H-M   'P -1'
_symmetry_Int_Tables_number      2
_space_group_name_Hall           '-P 1'
loop_
_symmetry_equiv_pos_site_id
_symmetry_equiv_pos_as_xyz
1 x,y,z
2 -x,-y,-z
_cell_length_a                   11.2414(6)
_cell_length_b                   12.1178(2)
_cell_length_c                   12.2494(6)
_cell_angle_alpha                60.400(2)
_cell_angle_beta                 77.0554(16)
_cell_angle_gamma                70.382(3)
_cell_volume                     1363.19
loop_
_atom_site_label
_atom_site_type_symbol
_atom_site_fract_x
_atom_site_fract_y
_atom_site_fract_z
Cd1 Cd 0.234589(12) 0.289187(12) 0.212367(13)
O7 O 0.17054(15) 0.08978(15) 0.43803(15)
O8 O 0.31052(15) 0.19474(15) 0.40735(14)
O9 O 0.27491(17) 0.42487(16) -0.00724(16)
O10 O 0.32744(15) 0.48100(17) 0.11505(15)
N1 N -0.01377(14) 0.13471(15) 0.11641(15)
N2 N 0.08962(16) 0.24465(17) 0.14171(16)
N3 N -0.44957(14) 0.01229(16) 0.11015(15)
N4 N -0.61344(16) 0.11809(16) 0.18898(17)
N5 N -0.01852(15) -0.42920(15) 0.34536(15)
N6 N 0.07483(15) -0.57022(16) 0.26997(16)
C1 C -0.06787(16) 0.03274(18) 0.14296(17)
C2 C -0.16590(16) 0.05937(18) 0.07496(17)
H13 H -0.1958 0.1452 0.0092
C3 C -0.22016(16) -0.03966(18) 0.10334(18)
C4 C -0.17800(17) -0.16347(18) 0.19993(18)
H14 H -0.2159 -0.2310 0.2196
C5 C -0.08057(17) -0.19011(17) 0.26867(17)
C6 C -0.02399(16) -0.09229(18) 0.23923(17)
H15 H 0.0443 -0.1108 0.2846
C7 C 0.05534(19) 0.1359(2) 0.19310(19)
H16 H 0.0762 0.0659 0.2744
C8 C 0.0411(2) 0.3184(2) 0.0261(2)
H17 H 0.0512 0.4032 -0.0334
C9 C -0.0232(2) 0.2524(2) 0.00955(19)
H18 H -0.0666 0.2817 -0.0622
C10 C -0.33167(17) -0.0102(2) 0.03539(19)
H19 H -0.3323 0.0690 -0.0470
H20 H -0.3242 -0.0850 0.0197
C11 C -0.52050(18) 0.13008(18) 0.10083(19)
H21 H -0.5053 0.2118 0.0383
C12 C -0.6013(2) -0.0148(2) 0.2587(2)
H22 H -0.6559 -0.0540 0.3293
C13 C -0.50002(19) -0.08123(19) 0.2118(2)
H23 H -0.4699 -0.1740 0.2430
C14 C -0.03760(19) -0.32336(18) 0.37736(19)
H24 H 0.0427 -0.3302 0.4037
H25 H -0.1017 -0.3333 0.4493
C15 C 0.09011(17) -0.48473(18) 0.29832(18)
H26 H 0.1682 -0.4648 0.2869
C16 C -0.05080(18) -0.56895(19) 0.29993(19)
H27 H -0.0902 -0.6210 0.2895
C17 C -0.10957(18) -0.48239(19) 0.34644(19)
H28 H -0.1964 -0.4622 0.3743
C18 C 0.3186(2) -0.0055(2) 0.5938(2)
H29 H 0.3999 -0.0590 0.5755
H30 H 0.2611 -0.0615 0.6442
H31 H 0.3320 0.0349 0.6409
C19 C 0.26146(19) 0.1005(2) 0.4726(2)
C20 C 0.3438(2) 0.6201(2) -0.1061(2)
H32 H 0.3444 0.6853 -0.0811
H33 H 0.2796 0.6589 -0.1666
H34 H 0.4273 0.5933 -0.1449
C21 C 0.31344(19) 0.5018(2) 0.0082(2)
N6_2 N 0.07483(15) 0.42978(16) 0.26997(16)
Cd1_2 Cd 0.234589(12) -0.710813(12) 0.212367(13)
N4_2 N 0.38656(16) 0.11809(16) 0.18898(17)
Cd1_3 Cd -0.765411(12) 0.289187(12) 0.212367(13)
O1 O 0.11685(17) -0.13988(17) 0.5083(2)
H1 H 0.1262 -0.0588 0.4970
H2 H 0.0400 -0.1347 0.5347
O2 O 0.4127(3) 0.3204(2) 0.4888(2)
H3 H 0.3785 0.4006 0.4364
H4 H 0.4025 0.2629 0.4676
O3 O 0.66059(17) 0.34635(19) 0.43667(19)
H5 H 0.7288 0.2718 0.4536
H6 H 0.5988 0.3233 0.4403
O4 O 0.62343(17) 0.60116(19) 0.22212(19)
H7 H 0.6364 0.5361 0.2769
H8 H 0.6710 0.5812 0.1567
O5 O 0.37665(18) 0.67040(18) 0.14801(17)
H11 H 0.4630 0.6388 0.1900
H12 H 0.3640 0.6030 0.1344
H9 H 0.3193 0.6204 0.4371
H10 H 0.3792 0.5836 0.3662
O6 O 0.29186(19) 0.5858(2) 0.39445(19)
loop_
_geom_bond_atom_site_label_1
_geom_bond_atom_site_label_2
_geom_bond_site_symmetry_1
_geom_bond_site_symmetry_2
Cd1 O8 1_555 1_555
O1 H1 1_555 1_555
H2 O1 1_555 1_555
O2 H3 1_555 1_555
H4 O2 1_555 1_555
O3 H5 1_555 1_555
H6 O3 1_555 1_555
O4 H7 1_555 1_555
H8 O4 1_555 1_555
O5 H11 1_555 1_555
H9 O6 1_555 1_555
H10 O6 1_555 1_555
H12 O5 1_555 1_555
O7 C19 1_555 1_555
O8 C19 1_555 1_555
O9 Cd1 1_555 1_555
O10 Cd1 1_555 1_555
N1 C1 1_555 1_555
N2 Cd1 1_555 1_555
N3 C10 1_555 1_555
N4 C11 1_555 1_555
N5 C14 1_555 1_555
N6 C15 1_555 1_555
C1 C2 1_555 1_555
C2 H13 1_555 1_555
C3 C2 1_555 1_555
C4 C3 1_555 1_555
H14 C4 1_555 1_555
C5 C4 1_555 1_555
C6 C1 1_555 1_555
H15 C6 1_555 1_555
C7 N1 1_555 1_555
H16 C7 1_555 1_555
C8 N2 1_555 1_555
H17 C8 1_555 1_555
C9 N1 1_555 1_555
H18 C9 1_555 1_555
C10 C3 1_555 1_555
H19 C10 1_555 1_555
H20 C10 1_555 1_555
C11 N3 1_555 1_555
H21 C11 1_555 1_555
C12 N4 1_555 1_555
H22 C12 1_555 1_555
C13 N3 1_555 1_555
H23 C13 1_555 1_555
C14 C5 1_555 1_555
H24 C14 1_555 1_555
H25 C14 1_555 1_555
C15 N5 1_555 1_555
H26 C15 1_555 1_555
C16 N6 1_555 1_555
H27 C16 1_555 1_555
C17 N5 1_555 1_555
H28 C17 1_555 1_555
C18 H29 1_555 1_555
H30 C18 1_555 1_555
H31 C18 1_555 1_555
C19 C18 1_555 1_555
C20 H32 1_555 1_555
H33 C20 1_555 1_555
H34 C20 1_555 1_555
C21 O9 1_555 1_555
N6_2 Cd1 1_555 1_555
Cd1_2 N6 1_555 1_555
N4_2 Cd1 1_555 1_555
Cd1_3 N4 1_555 1_555
O10 C21 1_555 1_555
N2 C7 1_555 1_555
C5 C6 1_555 1_555
C8 C9 1_555 1_555
C12 C13 1_555 1_555
C16 C17 1_555 1_555
C20 C21 1_555 1_555

#END
