
#######################################################################
#
#                 Cambridge Crystallographic Data Centre
#                                CCDC 
#
#######################################################################
#
# If this CIF has been generated from an entry in the Cambridge 
# Structural Database, then it will include bibliographic, chemical, 
# crystal, experimental, refinement or atomic coordinate data resulting 
# from the CCDC's data processing and validation procedures.
#
#######################################################################

data_GAFKED10
_symmetry_cell_setting           monoclinic
_symmetry_space_group_name_H-M   'P 21/n'
_symmetry_Int_Tables_number      14
_space_group_name_Hall           '-P 2yn'
loop_
_symmetry_equiv_pos_site_id
_symmetry_equiv_pos_as_xyz
1 x,y,z
2 1/2-x,1/2+y,1/2-z
3 -x,-y,-z
4 1/2+x,1/2-y,1/2+z
_cell_length_a                   12.107(3)
_cell_length_b                   10.117(2)
_cell_length_c                   12.471(3)
_cell_angle_alpha                90
_cell_angle_beta                 113.67(2)
_cell_angle_gamma                90
_cell_volume                     1399.02
loop_
_atom_site_label
_atom_site_type_symbol
_atom_site_fract_x
_atom_site_fract_y
_atom_site_fract_z
Cd1 Cd 0.50000 0.50000 0.50000
Ni1 Ni 0.50000 0.00000 0.50000
N1 N 0.5290(3) 0.2838(3) 0.5733(3)
C1 C 0.5218(3) 0.1742(3) 0.5506(3)
N2 N 0.3244(3) 0.1039(4) 0.2706(3)
C2 C 0.3890(3) 0.0615(3) 0.3564(3)
N3 N 0.3052(2) 0.5176(4) 0.4860(2)
C3 C 0.2402(3) 0.3913(4) 0.4835(4)
C4 C 0.1056(3) 0.4070(5) 0.4464(5)
C5 C 0.0691(3) 0.4992(7) 0.5194(4)
N4 N 0.4116(2) 0.4192(3) 0.2956(3)
C6 C 0.4928(3) 0.4326(4) 0.2415(3)
C7 C 0.5676(4) 0.3295(4) 0.2417(4)
C8 C 0.6544(4) 0.3483(5) 0.1960(4)
C9 C 0.6684(4) 0.4657(4) 0.1499(4)
C10 C 0.5918(4) 0.5694(5) 0.1482(4)
C11 C 0.5058(4) 0.5526(4) 0.1961(4)
C12 C 0.7649(5) 0.4833(9) 0.1022(5)
H1 H 0.30683 0.57590 0.55909
H2 H 0.25347 0.57085 0.40563
H3 H 0.25661 0.32224 0.42443
H4 H 0.27857 0.34756 0.57107
H5 H 0.06694 0.44345 0.35701
H6 H 0.06568 0.31168 0.44837
H7 H 0.11181 0.47122 0.61131
H8 H 0.09905 0.59986 0.51229
H9 H 0.38684 0.31502 0.29524
H10 H 0.32977 0.47373 0.24630
H11 H 0.55940 0.23387 0.27810
H12 H 0.71194 0.26591 0.19636
H13 H 0.59767 0.66454 0.10712
H14 H 0.44955 0.63620 0.20007
H15 H 0.75000 0.42000 0.05000
H16 H 0.76000 0.55500 0.05000
C1B C 0.4782(3) -0.1742(3) 0.4494(3)
N1B N 0.4710(3) -0.2838(3) 0.4267(3)
C2B C 0.6110(3) -0.0615(3) 0.6436(3)
N2B N 0.6756(3) -0.1039(4) 0.7294(3)
C5B C -0.0691(3) 0.5008(7) 0.4806(4)
C4B C -0.1056(3) 0.5930(5) 0.5536(5)
C3B C -0.2402(3) 0.6087(4) 0.5165(4)
N3B N -0.3052(2) 0.4824(4) 0.5140(2)
H1B H -0.30683 0.42410 0.44091
H2B H -0.25347 0.42915 0.59437
H3B H -0.25661 0.67776 0.57557
H4B H -0.27857 0.65244 0.42893
H5B H -0.06694 0.55655 0.64299
H6B H -0.06568 0.68832 0.55163
H7B H -0.11181 0.52878 0.38869
H8B H -0.09905 0.40014 0.48771
N1B_2 N 0.4710(3) 0.7162(3) 0.4267(3)
N3B_2 N 0.6948(2) 0.4824(4) 0.5140(2)
H1B_2 H 0.69317 0.42410 0.44091
H2B_2 H 0.74653 0.42915 0.59437
N4B N 0.5884(2) 0.5808(3) 0.7044(3)
C6B C 0.5072(3) 0.5674(4) 0.7585(3)
C7B C 0.4324(4) 0.6705(4) 0.7583(4)
C8B C 0.3456(4) 0.6517(5) 0.8040(4)
C9B C 0.3316(4) 0.5343(4) 0.8501(4)
C10B C 0.4082(4) 0.4306(5) 0.8518(4)
C11B C 0.4942(4) 0.4474(4) 0.8039(4)
C12B C 0.2351(5) 0.5167(9) 0.8978(5)
H9B H 0.61316 0.68498 0.70476
H10B H 0.67023 0.52627 0.75370
H11B H 0.44060 0.76613 0.72190
H12B H 0.28806 0.73409 0.80364
H13B H 0.40233 0.33546 0.89288
H14B H 0.55045 0.36380 0.79993
H15B H 0.25000 0.58000 0.95000
H16B H 0.24000 0.44500 0.95000
Cd1B Cd 0.50000 -0.50000 0.50000
Cd1B_2 Cd -0.50000 0.50000 0.50000
loop_
_geom_bond_atom_site_label_1
_geom_bond_atom_site_label_2
_geom_bond_site_symmetry_1
_geom_bond_site_symmetry_2
Cd1 N1 1_555 1_555
Ni1 C1 1_555 1_555
N1 C1 1_555 1_555
N2 C2 1_555 1_555
C2 Ni1 1_555 1_555
N3 Cd1 1_555 1_555
C3 N3 1_555 1_555
C4 C3 1_555 1_555
C5 C4 1_555 1_555
N4 Cd1 1_555 1_555
C6 N4 1_555 1_555
C7 C6 1_555 1_555
C8 C7 1_555 1_555
C9 C8 1_555 1_555
C10 C9 1_555 1_555
C11 C6 1_555 1_555
C12 C9 1_555 1_555
H1 N3 1_555 1_555
H2 N3 1_555 1_555
H3 C3 1_555 1_555
H4 C3 1_555 1_555
H5 C4 1_555 1_555
H6 C4 1_555 1_555
H7 C5 1_555 1_555
H8 C5 1_555 1_555
H9 N4 1_555 1_555
H10 N4 1_555 1_555
H11 C7 1_555 1_555
H12 C8 1_555 1_555
H13 C10 1_555 1_555
H14 C11 1_555 1_555
H15 C12 1_555 1_555
H16 C12 1_555 1_555
C1B Ni1 1_555 1_555
N1B C1B 1_555 1_555
C2B Ni1 1_555 1_555
N2B C2B 1_555 1_555
C5B C5 1_555 1_555
C4B C5B 1_555 1_555
C3B C4B 1_555 1_555
N3B C3B 1_555 1_555
H1B N3B 1_555 1_555
H2B N3B 1_555 1_555
H3B C3B 1_555 1_555
H4B C3B 1_555 1_555
H5B C4B 1_555 1_555
H6B C4B 1_555 1_555
H7B C5B 1_555 1_555
H8B C5B 1_555 1_555
N1B_2 Cd1 1_555 1_555
N3B_2 Cd1 1_555 1_555
H1B_2 N3B_2 1_555 1_555
H2B_2 N3B_2 1_555 1_555
N4B Cd1 1_555 1_555
C6B N4B 1_555 1_555
C7B C6B 1_555 1_555
C8B C7B 1_555 1_555
C9B C8B 1_555 1_555
C10B C9B 1_555 1_555
C11B C6B 1_555 1_555
C12B C9B 1_555 1_555
H9B N4B 1_555 1_555
H10B N4B 1_555 1_555
H11B C7B 1_555 1_555
H12B C8B 1_555 1_555
H13B C10B 1_555 1_555
H14B C11B 1_555 1_555
H15B C12B 1_555 1_555
H16B C12B 1_555 1_555
Cd1B N1B 1_555 1_555
Cd1B_2 N3B 1_555 1_555
C10 C11 1_555 1_555
C10B C11B 1_555 1_555

#END
