
#######################################################################
#
#                 Cambridge Crystallographic Data Centre
#                                CCDC 
#
#######################################################################
#
# If this CIF has been generated from an entry in the Cambridge 
# Structural Database, then it will include bibliographic, chemical, 
# crystal, experimental, refinement or atomic coordinate data resulting 
# from the CCDC's data processing and validation procedures.
#
#######################################################################

data_GAFLAC
_symmetry_cell_setting           monoclinic
_symmetry_space_group_name_H-M   'P 21/c'
_symmetry_Int_Tables_number      14
_space_group_name_Hall           '-P 2ybc'
loop_
_symmetry_equiv_pos_site_id
_symmetry_equiv_pos_as_xyz
1 x,y,z
2 -x,1/2+y,1/2-z
3 -x,-y,-z
4 x,1/2-y,1/2+z
_cell_length_a                   11.1656(9)
_cell_length_b                   15.1860(12)
_cell_length_c                   7.0365(6)
_cell_angle_alpha                90
_cell_angle_beta                 94.8620(10)
_cell_angle_gamma                90
_cell_volume                     1188.82
loop_
_atom_site_label
_atom_site_type_symbol
_atom_site_fract_x
_atom_site_fract_y
_atom_site_fract_z
Cl1 Cl 0.34109(9) 0.82476(6) 0.27415(16)
Cu1 Cu 0.44204(4) 0.70651(3) 0.18860(7)
O1 O 0.5729(2) 0.76085(16) 0.0616(4)
N1 N 0.5403(3) 0.60052(19) 0.1829(4)
N2 N 0.3257(3) 0.61642(19) 0.2819(4)
C1 C 0.6526(3) 0.6171(2) 0.1199(5)
C2 C 0.4949(4) 0.5285(2) 0.2396(5)
H1 H 0.5371 0.4757 0.2434
C3 C 0.3109(4) 0.4636(3) 0.3609(5)
H2 H 0.3460 0.4081 0.3718
C4 C 0.7730(3) 0.7276(3) -0.0173(5)
H3 H 0.7820 0.7836 -0.0674
C5 C 0.7486(3) 0.5579(3) 0.1228(5)
H4 H 0.7404 0.5010 0.1687
C6 C 0.6631(4) 0.7048(3) 0.0534(5)
C7 C 0.2141(4) 0.6277(3) 0.3279(6)
H5 H 0.1809 0.6839 0.3189
C8 C 0.3736(3) 0.5347(2) 0.2975(5)
C9 C 0.8669(4) 0.6698(3) -0.0146(6)
C10 C 0.1947(4) 0.4772(3) 0.4075(6)
H6 H 0.1505 0.4306 0.4514
C11 C 0.9841(4) 0.6966(3) -0.0919(6)
H7 H 0.9722 0.7497 -0.1649
H8 H 1.0105 0.6505 -0.1720
H9 H 1.0438 0.7064 0.0122
C12 C 0.8542(4) 0.5845(3) 0.0577(6)
H10 H 0.9187 0.5457 0.0611
C13 C 0.1448(4) 0.5592(3) 0.3889(6)
H11 H 0.0660 0.5689 0.4166
Cl1C Cl 0.34109(9) 0.67524(6) -0.22585(16)
Cu1C Cu 0.44204(4) 0.79349(3) 0.68860(7)
loop_
_geom_bond_atom_site_label_1
_geom_bond_atom_site_label_2
_geom_bond_site_symmetry_1
_geom_bond_site_symmetry_2
Cl1 Cu1 1_555 1_555
Cu1 O1 1_555 1_555
O1 C6 1_555 1_555
N1 Cu1 1_555 1_555
N2 Cu1 1_555 1_555
C1 N1 1_555 1_555
C2 N1 1_555 1_555
H1 C2 1_555 1_555
C3 H2 1_555 1_555
C4 H3 1_555 1_555
C5 C1 1_555 1_555
H4 C5 1_555 1_555
C6 C1 1_555 1_555
C7 N2 1_555 1_555
H5 C7 1_555 1_555
C8 N2 1_555 1_555
C9 C4 1_555 1_555
C10 C3 1_555 1_555
H6 C10 1_555 1_555
C11 C9 1_555 1_555
H7 C11 1_555 1_555
H8 C11 1_555 1_555
H9 C11 1_555 1_555
C12 C5 1_555 1_555
H10 C12 1_555 1_555
C13 C7 1_555 1_555
H11 C13 1_555 1_555
Cl1C Cu1 1_555 1_555
Cu1C Cl1 1_555 1_555
C2 C8 1_555 1_555
C3 C8 1_555 1_555
C4 C6 1_555 1_555
C9 C12 1_555 1_555
C10 C13 1_555 1_555

#END
