
#######################################################################
#
#                 Cambridge Crystallographic Data Centre
#                                CCDC 
#
#######################################################################
#
# If this CIF has been generated from an entry in the Cambridge 
# Structural Database, then it will include bibliographic, chemical, 
# crystal, experimental, refinement or atomic coordinate data resulting 
# from the CCDC's data processing and validation procedures.
#
#######################################################################

data_GAFLEG
_symmetry_cell_setting           monoclinic
_symmetry_space_group_name_H-M   'P 21/c'
_symmetry_Int_Tables_number      14
_space_group_name_Hall           '-P 2ybc'
loop_
_symmetry_equiv_pos_site_id
_symmetry_equiv_pos_as_xyz
1 x,y,z
2 -x,1/2+y,1/2-z
3 -x,-y,-z
4 x,1/2-y,1/2+z
_cell_length_a                   11.1310(7)
_cell_length_b                   15.4597(9)
_cell_length_c                   7.1193(4)
_cell_angle_alpha                90
_cell_angle_beta                 94.4820(10)
_cell_angle_gamma                90
_cell_volume                     1221.36
loop_
_atom_site_label
_atom_site_type_symbol
_atom_site_fract_x
_atom_site_fract_y
_atom_site_fract_z
Br1 Br 1.17378(2) 0.824903(17) 0.22584(4)
Cu1 Cu 1.06486(3) 0.70238(2) 0.32293(5)
O1 O 0.93277(16) 0.75858(11) 0.4404(3)
N1 N 0.96028(18) 0.60083(13) 0.3207(3)
N2 N 1.17771(18) 0.61099(14) 0.2270(3)
C1 C 1.1252(2) 0.53234(16) 0.2064(3)
C2 C 1.0016(2) 0.52933(17) 0.2601(3)
H1 H 0.9557 0.4790 0.2511
C3 C 0.6436(2) 0.5914(2) 0.4450(4)
H2 H 0.5771 0.5548 0.4397
C4 C 0.8409(2) 0.70569(17) 0.4480(3)
C5 C 0.8477(2) 0.61943(17) 0.3827(3)
C6 C 1.1850(3) 0.46119(18) 0.1421(4)
H3 H 1.1469 0.4078 0.1280
C7 C 0.6347(2) 0.6746(2) 0.5190(4)
C8 C 0.7316(2) 0.73052(19) 0.5210(4)
H4 H 0.7248 0.7856 0.5714
C9 C 1.2909(2) 0.61967(19) 0.1836(4)
H5 H 1.3272 0.6738 0.1961
C10 C 0.7499(2) 0.56305(18) 0.3798(4)
H6 H 0.7565 0.5070 0.3343
C11 C 1.3567(3) 0.5514(2) 0.1206(4)
H7 H 1.4363 0.5591 0.0930
C12 C 1.3029(3) 0.47187(19) 0.0994(4)
H8 H 1.3457 0.4252 0.0563
C13 C 0.5185(3) 0.7036(2) 0.5957(5)
H9 H 0.5328 0.7551 0.6695
H10 H 0.4890 0.6588 0.6732
H11 H 0.4597 0.7155 0.4930
Br1C Br 1.17378(2) 0.675097(17) 0.72584(4)
Cu1C Cu 1.06486(3) 0.79762(2) -0.17707(5)
loop_
_geom_bond_atom_site_label_1
_geom_bond_atom_site_label_2
_geom_bond_site_symmetry_1
_geom_bond_site_symmetry_2
Br1 Cu1 1_555 1_555
Cu1 O1 1_555 1_555
O1 C4 1_555 1_555
N1 Cu1 1_555 1_555
N2 Cu1 1_555 1_555
C1 N2 1_555 1_555
C2 N1 1_555 1_555
H1 C2 1_555 1_555
C3 H2 1_555 1_555
C4 C5 1_555 1_555
C5 N1 1_555 1_555
C6 C1 1_555 1_555
H3 C6 1_555 1_555
C7 C3 1_555 1_555
C8 C4 1_555 1_555
H4 C8 1_555 1_555
C9 N2 1_555 1_555
H5 C9 1_555 1_555
C10 C3 1_555 1_555
H6 C10 1_555 1_555
C11 C9 1_555 1_555
H7 C11 1_555 1_555
C12 C6 1_555 1_555
H8 C12 1_555 1_555
C13 C7 1_555 1_555
H9 C13 1_555 1_555
H10 C13 1_555 1_555
H11 C13 1_555 1_555
Br1C Cu1 1_555 1_555
Cu1C Br1 1_555 1_555
C1 C2 1_555 1_555
C5 C10 1_555 1_555
C7 C8 1_555 1_555
C11 C12 1_555 1_555

#END
