
#######################################################################
#
#                 Cambridge Crystallographic Data Centre
#                                CCDC 
#
#######################################################################
#
# If this CIF has been generated from an entry in the Cambridge 
# Structural Database, then it will include bibliographic, chemical, 
# crystal, experimental, refinement or atomic coordinate data resulting 
# from the CCDC's data processing and validation procedures.
#
#######################################################################

data_GAFNOS
_symmetry_cell_setting           triclinic
_symmetry_space_group_name_H-M   'P -1'
_symmetry_Int_Tables_number      2
_space_group_name_Hall           '-P 1'
loop_
_symmetry_equiv_pos_site_id
_symmetry_equiv_pos_as_xyz
1 x,y,z
2 -x,-y,-z
_cell_length_a                   13.976(15)
_cell_length_b                   14.732(13)
_cell_length_c                   16.236(13)
_cell_angle_alpha                111.27(3)
_cell_angle_beta                 97.42(3)
_cell_angle_gamma                99.54(4)
_cell_volume                     3006.25
loop_
_atom_site_label
_atom_site_type_symbol
_atom_site_fract_x
_atom_site_fract_y
_atom_site_fract_z
Mo1 Mo 0.65475(4) 0.42738(4) 0.33138(3)
Mo2 Mo 0.54037(4) 0.19390(4) 0.30643(3)
Mo3 Mo 0.33127(4) 0.10716(4) 0.14145(3)
Mo4 Mo 0.53456(5) 0.48141(4) 0.16872(4)
Mo5 Mo 0.29811(4) 0.29146(4) 0.07325(4)
Cu1 Cu 0.66413(6) 0.07682(6) 0.10034(5)
Cu2 Cu 0.61941(6) 0.65603(6) 0.52811(5)
P1 P 0.40080(13) 0.36163(12) 0.29066(10)
P2 P 0.54297(13) 0.24125(12) 0.11492(10)
O1 O 0.4893(3) 0.1658(2) 0.3871(2)
O2 O 0.2585(3) 0.0692(2) 0.2048(2)
O3 O 0.6422(3) 0.1429(2) 0.2996(2)
O4 O 0.3137(3) 0.0056(3) 0.0414(2)
O5 O 0.3035(3) 0.2317(3) -0.0392(2)
O6 O 0.5773(3) 0.5189(3) 0.0899(2)
O7 O 0.5049(3) 0.5882(2) 0.2370(2)
O8 O 0.1987(3) 0.3408(3) 0.0654(2)
O9 O 0.5949(2) 0.3336(2) 0.3791(2)
O10 O 0.4586(2) 0.0941(2) 0.1952(2)
O11 O 0.7702(3) 0.4042(3) 0.3321(2)
O12 O 0.6552(2) 0.4837(2) 0.2422(2)
O13 O 0.2484(2) 0.1807(2) 0.1025(2)
O14 O 0.6672(3) 0.5333(2) 0.4265(2)
O15 O 0.4048(3) 0.4051(2) 0.1031(2)
O16 O 0.5678(2) 0.3305(2) 0.0894(2)
O17 O 0.5806(2) 0.1519(2) 0.0570(2)
O18 O 0.4289(2) 0.2124(2) 0.1019(2)
O19 O 0.5935(2) 0.2715(2) 0.2146(2)
O20 O 0.4976(2) 0.4170(2) 0.2776(2)
O21 O 0.3158(2) 0.3669(2) 0.2244(2)
O22 O 0.4021(2) 0.2519(2) 0.2724(2)
O23 O 0.3890(2) 0.4128(2) 0.3880(2)
O24 O 0.5445(2) -0.0270(2) 0.0891(2)
O25 O 0.4746(2) 0.6024(2) 0.4738(2)
N1 N 0.7309(3) -0.0129(3) 0.1520(3)
N2 N 0.7810(3) 0.1983(3) 0.1608(3)
N3 N 0.7516(3) 0.7517(3) 0.6044(3)
N4 N 0.6032(4) 0.7336(3) 0.4451(3)
C1 C 0.8343(5) 0.0080(4) 0.1860(4)
C3 C 0.8957(6) -0.0208(5) 0.1242(5)
C4 C 1.0367(6) 0.0412(6) 0.2502(8)
C5 C 0.8719(5) 0.0541(5) 0.2783(4)
C6 C 0.9732(7) 0.0695(6) 0.3095(5)
C7 C 0.8801(5) 0.6631(6) 0.5447(5)
C8 C 0.8355(5) 0.7042(5) 0.6183(4)
C9 C 0.8699(5) 0.7102(5) 0.7066(5)
C10 C 0.9528(6) 0.6695(7) 0.7192(7)
C11 C 1.0012(7) 0.6277(7) 0.6473(9)
C12 C 0.7796(8) 0.9819(6) 0.5243(6)
C13 C 0.6959(6) 0.9085(5) 0.5170(5)
C14 C 0.6838(5) 0.8092(5) 0.4501(4)
C15 C 0.7523(6) 0.7858(6) 0.3925(4)
C16 C 0.8333(7) 0.8612(8) 0.4013(6)
C17 C 0.8242(5) 0.2408(5) 0.1032(4)
C18 C 0.8089(5) 0.3328(6) 0.1050(5)
C19 C 0.8798(7) 0.1904(6) 0.0453(6)
C20 C 0.9220(8) 0.2362(7) -0.0122(6)
C21 C 0.9075(8) 0.3243(7) -0.0094(6)
C23 C 0.9647(7) 0.6263(7) 0.5625(7)
C24 C 0.8501(7) 0.9584(9) 0.4678(8)
C41 C 1.0002(6) -0.0057(6) 0.1568(6)
C42 C 0.8501(6) 0.3734(7) 0.0481(6)
Cu1A Cu 0.33587(6) -0.07682(6) -0.10034(5)
Cu2A Cu 0.38059(6) 0.34397(6) 0.47189(5)
O4A O 0.6863(3) -0.0056(3) -0.0414(2)
O23A O 0.6110(2) 0.5872(2) 0.6120(2)
O26 O 0.3060(7) 0.5529(7) 0.0676(6)
O27 O 0.0936(5) 0.5116(5) 0.1362(4)
N5 N 0.7177(5) 0.4560(4) 0.7636(3)
C2 C 0.6725(9) 0.2122(9) 0.5710(9)
C25 C 0.7222(12) 0.2372(12) 0.5120(8)
C27 C 0.6706(6) 0.2827(7) 0.6525(7)
C28 C 0.7211(5) 0.3804(6) 0.6742(5)
C29 C 0.7683(6) 0.4092(7) 0.6152(6)
C30 C 0.7697(9) 0.3365(11) 0.5330(8)
N6 N 0.5087(5) 0.6882(4) 0.0794(3)
C35 C 0.4864(6) 0.7691(5) 0.1517(4)
C36 C 0.3969(7) 0.7929(6) 0.1371(6)
C37 C 0.3741(11) 0.8732(10) 0.2037(10)
C38 C 0.4485(18) 0.9247(11) 0.2822(10)
C39 C 0.5371(15) 0.9013(11) 0.3000(10)
C40 C 0.5599(8) 0.8218(7) 0.2285(6)
N7 N 0.7816(7) 0.6371(9) 0.1400(6)
C22 C 0.8727(6) 0.6651(9) 0.1960(6)
C26 C 0.9423(8) 0.7493(7) 0.1936(6)
C31 C 1.0349(8) 0.7792(7) 0.2539(6)
C32 C 1.0507(8) 0.7263(9) 0.3085(7)
C33 C 0.9799(10) 0.6482(10) 0.3108(8)
C34 C 0.8946(8) 0.6165(6) 0.2541(7)
loop_
_geom_bond_atom_site_label_1
_geom_bond_atom_site_label_2
_geom_bond_site_symmetry_1
_geom_bond_site_symmetry_2
Mo1 O9 1_555 1_555
Mo2 O1 1_555 1_555
Mo3 O2 1_555 1_555
Mo4 O6 1_555 1_555
Mo5 O5 1_555 1_555
Cu1 O17 1_555 1_555
Cu2 O14 1_555 1_555
P1 O20 1_555 1_555
P2 O16 1_555 1_555
O3 Mo2 1_555 1_555
O4 Mo3 1_555 1_555
O7 Mo4 1_555 1_555
O8 Mo5 1_555 1_555
O9 Mo2 1_555 1_555
O10 Mo2 1_555 1_555
O11 Mo1 1_555 1_555
O12 Mo1 1_555 1_555
O13 Mo3 1_555 1_555
O14 Mo1 1_555 1_555
O15 Mo4 1_555 1_555
O16 Mo4 1_555 1_555
O17 P2 1_555 1_555
O18 Mo3 1_555 1_555
O19 Mo1 1_555 1_555
O20 Mo1 1_555 1_555
O21 Mo5 1_555 1_555
O22 Mo2 1_555 1_555
O23 P1 1_555 1_555
O24 Cu1 1_555 1_555
O25 Cu2 1_555 1_555
N1 Cu1 1_555 1_555
N2 Cu1 1_555 1_555
N3 Cu2 1_555 1_555
N4 Cu2 1_555 1_555
N5 C28 1_555 1_555
N6 C35 1_555 1_555
N7 C22 1_555 1_555
C1 N1 1_555 1_555
C2 C25 1_555 1_555
C3 C1 1_555 1_555
C4 C6 1_555 1_555
C5 C1 1_555 1_555
C6 C5 1_555 1_555
C7 C8 1_555 1_555
C8 N3 1_555 1_555
C9 C8 1_555 1_555
C10 C9 1_555 1_555
C11 C10 1_555 1_555
C12 C13 1_555 1_555
C13 C14 1_555 1_555
C14 N4 1_555 1_555
C15 C14 1_555 1_555
C16 C15 1_555 1_555
C17 N2 1_555 1_555
C18 C17 1_555 1_555
C19 C17 1_555 1_555
C20 C19 1_555 1_555
C21 C20 1_555 1_555
C22 C26 1_555 1_555
C23 C7 1_555 1_555
C24 C12 1_555 1_555
C25 C30 1_555 1_555
C26 C31 1_555 1_555
C27 C2 1_555 1_555
C28 C27 1_555 1_555
C29 C28 1_555 1_555
C30 C29 1_555 1_555
C31 C32 1_555 1_555
C32 C33 1_555 1_555
C33 C34 1_555 1_555
C34 C22 1_555 1_555
C35 C36 1_555 1_555
C36 C37 1_555 1_555
C37 C38 1_555 1_555
C38 C39 1_555 1_555
C39 C40 1_555 1_555
C40 C35 1_555 1_555
C41 C3 1_555 1_555
C42 C18 1_555 1_555
Cu1A O4 1_555 1_555
Cu2A O23 1_555 1_555
O4A Cu1 1_555 1_555
O23A Cu2 1_555 1_555
Mo2 O19 1_555 1_555
Mo3 O10 1_555 1_555
Mo3 O22 1_555 1_555
Mo4 O12 1_555 1_555
Mo4 O20 1_555 1_555
Mo5 O13 1_555 1_555
Mo5 O15 1_555 1_555
Mo5 O18 1_555 1_555
P1 O21 1_555 1_555
P1 O22 1_555 1_555
P2 O18 1_555 1_555
P2 O19 1_555 1_555
C4 C41 1_555 1_555
C11 C23 1_555 1_555
C16 C24 1_555 1_555
C21 C42 1_555 1_555

#END
