
#######################################################################
#
#                 Cambridge Crystallographic Data Centre
#                                CCDC 
#
#######################################################################
#
# If this CIF has been generated from an entry in the Cambridge 
# Structural Database, then it will include bibliographic, chemical, 
# crystal, experimental, refinement or atomic coordinate data resulting 
# from the CCDC's data processing and validation procedures.
#
#######################################################################

data_GAFNAD
_symmetry_cell_setting           monoclinic
_symmetry_space_group_name_H-M   'P 21/c'
_symmetry_Int_Tables_number      14
_space_group_name_Hall           '-P 2ybc'
loop_
_symmetry_equiv_pos_site_id
_symmetry_equiv_pos_as_xyz
1 x,y,z
2 x,1/2-y,1/2+z
3 -x,-y,-z
4 -x,1/2+y,1/2-z
_cell_length_a                   13.3190(12)
_cell_length_b                   9.1110(8)
_cell_length_c                   18.5590(17)
_cell_angle_alpha                90
_cell_angle_beta                 122.668(4)
_cell_angle_gamma                90
_cell_volume                     1895.87
loop_
_atom_site_label
_atom_site_type_symbol
_atom_site_fract_x
_atom_site_fract_y
_atom_site_fract_z
Fe1 Fe -0.00433(8) -0.38639(11) 0.09257(6)
S1 S 0.23158(15) -0.6727(2) 0.46361(11)
S2 S 0.48447(15) -0.0460(2) 0.22330(12)
S3 S -0.23488(16) -0.0881(2) -0.27519(11)
S4 S -0.48591(17) -0.7410(3) -0.04350(14)
N1 N 0.0679(4) -0.4858(6) 0.2029(3)
N2 N 0.2678(4) -0.3824(6) 0.2747(3)
C1 C 0.1833(5) -0.4623(7) 0.2715(4)
C2 C 0.0132(6) -0.5853(7) 0.2258(4)
N3 N -0.0964(4) -0.6391(6) 0.1790(3)
C3 C -0.1674(5) -0.6036(7) 0.0968(4)
N4 N -0.1448(4) -0.5126(6) 0.0485(3)
C4 C -0.2450(5) -0.5079(8) -0.0349(4)
N5 N -0.2594(4) -0.4334(6) -0.1001(3)
C5 C -0.3351(5) -0.5989(8) -0.0383(4)
C6 C -0.2892(6) -0.6550(8) 0.0440(4)
N6 N -0.3647(5) -0.7367(8) 0.0521(4)
N7 N -0.4481(5) -0.6370(7) -0.0957(4)
C7 C 0.3387(5) -0.2046(8) 0.2145(4)
C8 C 0.2874(5) -0.1287(8) 0.1377(4)
N8 N 0.3564(5) -0.0338(7) 0.1314(3)
N9 N 0.4532(5) -0.1714(7) 0.2711(4)
C9 C 0.1642(5) -0.1826(8) 0.0848(4)
N10 N 0.1451(4) -0.2834(6) 0.1305(3)
N11 N 0.0903(5) -0.1385(6) 0.0052(3)
C10 C -0.0178(5) -0.1994(8) -0.0427(4)
C11 C -0.0999(6) -0.1586(8) -0.1323(4)
N12 N -0.1032(5) -0.0619(7) -0.1867(4)
N13 N -0.2862(5) -0.2222(7) -0.2452(3)
C12 C -0.1998(6) -0.2462(8) -0.1636(4)
C13 C -0.1814(5) -0.3395(7) -0.0946(4)
N14 N -0.0690(4) -0.3053(6) -0.0222(3)
C14 C 0.0948(5) -0.6230(7) 0.3161(4)
C15 C 0.1991(6) -0.5453(7) 0.3429(4)
N15 N 0.0978(4) -0.7049(6) 0.3759(3)
N16 N 0.2852(5) -0.5618(7) 0.4258(3)
C16 C 0.2498(5) -0.2995(7) 0.2110(4)
N15C N -0.0978(4) -0.2049(6) 0.1241(3)
Fe1C Fe 0.00433(8) -0.88639(11) 0.40743(6)
loop_
_geom_bond_atom_site_label_1
_geom_bond_atom_site_label_2
_geom_bond_site_symmetry_1
_geom_bond_site_symmetry_2
Fe1 N1 1_555 1_555
S1 N15 1_555 1_555
S2 N8 1_555 1_555
S3 N12 1_555 1_555
S4 N6 1_555 1_555
N1 C1 1_555 1_555
N2 C1 1_555 1_555
C1 C15 1_555 1_555
C2 N1 1_555 1_555
N3 C2 1_555 1_555
C3 N3 1_555 1_555
N4 Fe1 1_555 1_555
C4 N4 1_555 1_555
N5 C4 1_555 1_555
C5 C4 1_555 1_555
C6 C3 1_555 1_555
N6 C6 1_555 1_555
N7 S4 1_555 1_555
C7 C8 1_555 1_555
C8 N8 1_555 1_555
N9 S2 1_555 1_555
C9 C8 1_555 1_555
N10 Fe1 1_555 1_555
N11 C9 1_555 1_555
C10 N11 1_555 1_555
C11 C10 1_555 1_555
N12 C11 1_555 1_555
N13 S3 1_555 1_555
C12 C11 1_555 1_555
C13 N5 1_555 1_555
N14 Fe1 1_555 1_555
C14 C2 1_555 1_555
C15 C14 1_555 1_555
N15 C14 1_555 1_555
N16 S1 1_555 1_555
C16 N2 1_555 1_555
N15C Fe1 1_555 1_555
Fe1C N15 1_555 1_555
C3 N4 1_555 1_555
C5 C6 1_555 1_555
C5 N7 1_555 1_555
C7 C16 1_555 1_555
C7 N9 1_555 1_555
C9 N10 1_555 1_555
N10 C16 1_555 1_555
C10 N14 1_555 1_555
N13 C12 1_555 1_555
C12 C13 1_555 1_555
C13 N14 1_555 1_555
C15 N16 1_555 1_555

#END
