
#######################################################################
#
#                 Cambridge Crystallographic Data Centre
#                                CCDC 
#
#######################################################################
#
# If this CIF has been generated from an entry in the Cambridge 
# Structural Database, then it will include bibliographic, chemical, 
# crystal, experimental, refinement or atomic coordinate data resulting 
# from the CCDC's data processing and validation procedures.
#
#######################################################################

data_GAFPOU
_symmetry_cell_setting           monoclinic
_symmetry_space_group_name_H-M   'C 2/c'
_symmetry_Int_Tables_number      15
_space_group_name_Hall           '-C 2yn'
loop_
_symmetry_equiv_pos_site_id
_symmetry_equiv_pos_as_xyz
1 x,y,z
2 -x,y,1/2-z
3 1/2+x,1/2+y,z
4 1/2-x,1/2+y,1/2-z
5 -x,-y,-z
6 x,-y,1/2+z
7 1/2-x,1/2-y,-z
8 1/2+x,1/2-y,1/2+z
_cell_length_a                   24.212(3)
_cell_length_b                   6.5900(7)
_cell_length_c                   16.664(2)
_cell_angle_alpha                90
_cell_angle_beta                 128.944(4)
_cell_angle_gamma                90
_cell_volume                     2067.96
loop_
_atom_site_label
_atom_site_type_symbol
_atom_site_fract_x
_atom_site_fract_y
_atom_site_fract_z
C1 C 0.3460(3) 1.0927(8) 1.0054(4)
C2 C 0.3669(3) 0.9477(9) 0.9587(4)
H1 H 0.3608 0.8092 0.9716
H2 H 0.3363 0.9679 0.8846
C3 C 0.4727(3) 0.7990(9) 0.9892(4)
H3 H 0.4688 0.6805 1.0198
H4 H 0.4462 0.7729 0.9162
C4 C 0.4511(3) 1.1642(9) 0.9612(5)
H5 H 0.4323 1.2811 0.9725
H6 H 0.4242 1.1483 0.8874
Eu1 Eu 0.339680(14) 1.43482(4) 1.128290(19)
N1 N 0.4418(2) 0.9801(7) 1.0033(3)
H7 H 0.4671 0.9989 1.0716
O1 O 0.3351(2) 1.4960(7) 1.2706(3)
H8 H 0.3123 1.4152 1.2801
H9 H 0.3640 1.5784 1.3187
O2 O 0.4520(2) 1.2904(7) 1.2856(3)
H10 H 0.4849 1.3765 1.3079
H11 H 0.4659 1.1761 1.2806
O3 O 0.2934(2) 1.5303(6) 0.9574(3)
O4 O 0.1856(2) 1.7232(6) 0.8732(3)
O5 O 0.2292(2) 1.6382(6) 0.7820(3)
O6 O 0.1798(2) 1.3799(6) 0.8211(3)
O7 O 0.3925(2) 1.2020(6) 1.0786(3)
O8 O 0.2820(2) 1.0952(6) 0.9671(3)
O9 O 0.4742(2) 1.8758(6) 1.2929(3)
O10 O 0.4426(2) 1.6176(6) 1.1673(3)
S1 S 0.22218(7) 1.56726(19) 0.85894(10)
S2 S 0.5000 1.7492(3) 1.2500
C1D C 0.6540(3) 0.9073(8) 0.9946(4)
C2D C 0.6331(3) 1.0523(9) 1.0413(4)
H1D H 0.6392 1.1908 1.0284
H2D H 0.6637 1.0321 1.1154
C3D C 0.5273(3) 1.2010(9) 1.0108(4)
H3D H 0.5312 1.3195 0.9802
H4D H 0.5538 1.2271 1.0838
C4D C 0.5489(3) 0.8358(9) 1.0388(5)
H5D H 0.5677 0.7189 1.0275
H6D H 0.5758 0.8517 1.1126
Eu1F Eu 0.160320(14) 2.06518(4) 0.871710(19)
Eu1F_2 Eu 0.160320(14) 1.06518(4) 0.871710(19)
Eu1D Eu 0.660320(14) 0.56518(4) 0.871710(19)
Eu1B Eu 0.839680(14) 0.93482(4) 1.128290(19)
Eu1A Eu 0.660320(14) 1.43482(4) 1.371710(19)
Eu1_2 Eu 0.339680(14) 2.43482(4) 1.128290(19)
N1D N 0.5582(2) 1.0199(7) 0.9967(3)
H7D H 0.5329 1.0011 0.9284
O1F O 0.1649(2) 2.0040(7) 0.7294(3)
H8F H 0.1877 2.0848 0.7199
H9F H 0.1360 1.9216 0.6813
O2F O 0.0480(2) 2.2096(7) 0.7144(3)
H10F H 0.0151 2.1235 0.6921
H11F H 0.0341 2.3239 0.7194
O3F O 0.2066(2) 1.9697(6) 1.0426(3)
O4F O 0.3144(2) 1.7768(6) 1.1268(3)
O5F O 0.2708(2) 1.8618(6) 1.2180(3)
O6F O 0.3202(2) 2.1201(6) 1.1789(3)
O6F_2 O 0.3202(2) 1.1201(6) 1.1789(3)
O6_2 O 0.1798(2) 2.3799(6) 0.8211(3)
O7D O 0.6075(2) 0.7980(6) 0.9214(3)
O7F O 0.1075(2) 2.2980(6) 0.9214(3)
O8D O 0.7180(2) 0.9048(6) 1.0329(3)
O8F O 0.2180(2) 1.4048(6) 1.0329(3)
O8_2 O 0.2820(2) 2.0952(6) 0.9671(3)
O9A O 0.5258(2) 1.8758(6) 1.2071(3)
O10A O 0.5574(2) 1.6176(6) 1.3327(3)
O10F O 0.0574(2) 1.8824(6) 0.8327(3)
S1F S 0.27782(7) 1.93274(19) 1.14106(10)
loop_
_geom_bond_atom_site_label_1
_geom_bond_atom_site_label_2
_geom_bond_site_symmetry_1
_geom_bond_site_symmetry_2
C1 C2 1_555 1_555
C2 H1 1_555 1_555
H2 C2 1_555 1_555
C3 H3 1_555 1_555
H4 C3 1_555 1_555
C4 H5 1_555 1_555
H6 C4 1_555 1_555
Eu1 O1 1_555 1_555
N1 C2 1_555 1_555
H7 N1 1_555 1_555
O1 H8 1_555 1_555
H9 O1 1_555 1_555
O2 Eu1 1_555 1_555
H10 O2 1_555 1_555
H11 O2 1_555 1_555
O3 Eu1 1_555 1_555
O4 S1 1_555 1_555
O5 S1 1_555 1_555
O6 S1 1_555 1_555
O7 C1 1_555 1_555
O8 C1 1_555 1_555
O9 S2 1_555 1_555
O10 Eu1 1_555 1_555
S1 O3 1_555 1_555
S2 O10 1_555 1_555
C1D C2D 1_555 1_555
C2D H1D 1_555 1_555
H2D C2D 1_555 1_555
C3D C4 1_555 1_555
H3D C3D 1_555 1_555
H4D C3D 1_555 1_555
C4D C3 1_555 1_555
H5D C4D 1_555 1_555
H6D C4D 1_555 1_555
Eu1F O4 1_555 1_555
Eu1F_2 O6 1_555 1_555
Eu1D O7D 1_555 1_555
Eu1B O8D 1_555 1_555
Eu1A O10A 1_555 1_555
Eu1_2 O6F 1_555 1_555
N1D C2D 1_555 1_555
H7D N1D 1_555 1_555
O1F Eu1F 1_555 1_555
H8F O1F 1_555 1_555
H9F O1F 1_555 1_555
O2F Eu1F 1_555 1_555
H10F O2F 1_555 1_555
H11F O2F 1_555 1_555
O3F Eu1F 1_555 1_555
O4F Eu1 1_555 1_555
O5F S1F 1_555 1_555
O6F S1F 1_555 1_555
O6F_2 Eu1 1_555 1_555
O6_2 Eu1F 1_555 1_555
O7D C1D 1_555 1_555
O7F Eu1F 1_555 1_555
O8D C1D 1_555 1_555
O8F Eu1 1_555 1_555
O8_2 Eu1F 1_555 1_555
O9A S2 1_555 1_555
O10A S2 1_555 1_555
O10F Eu1F 1_555 1_555
S1F O3F 1_555 1_555
C3 N1 1_555 1_555
C4 N1 1_555 1_555
Eu1 O7 1_555 1_555
O8 Eu1F_2 1_555 1_555
C3D N1D 1_555 1_555
C4D N1D 1_555 1_555
O4F S1F 1_555 1_555

#END
