
#######################################################################
#
#                 Cambridge Crystallographic Data Centre
#                                CCDC 
#
#######################################################################
#
# If this CIF has been generated from an entry in the Cambridge 
# Structural Database, then it will include bibliographic, chemical, 
# crystal, experimental, refinement or atomic coordinate data resulting 
# from the CCDC's data processing and validation procedures.
#
#######################################################################

data_GAFPUA
_symmetry_cell_setting           triclinic
_symmetry_space_group_name_H-M   'P -1'
_symmetry_Int_Tables_number      2
_space_group_name_Hall           '-P 1'
loop_
_symmetry_equiv_pos_site_id
_symmetry_equiv_pos_as_xyz
1 x,y,z
2 -x,-y,-z
_cell_length_a                   6.7326(13)
_cell_length_b                   12.392(2)
_cell_length_c                   13.035(2)
_cell_angle_alpha                75.963(4)
_cell_angle_beta                 76.038(4)
_cell_angle_gamma                74.337(3)
_cell_volume                     997.712
loop_
_atom_site_label
_atom_site_type_symbol
_atom_site_fract_x
_atom_site_fract_y
_atom_site_fract_z
Gd1 Gd 0.38610(11) 0.96073(5) 0.86609(5)
Gd2 Gd 0.72395(11) 0.55332(5) 0.62864(5)
S1 S 0.7190(6) 0.5742(3) 0.3475(3)
S2 S 0.5161(6) 0.7577(3) 0.7460(3)
S3 S 0.1562(6) 0.9196(3) 1.1504(3)
C1 C 0.922(2) 0.3143(11) 0.5079(10)
C2 C 0.795(2) 0.2264(11) 0.5390(11)
H1 H 0.6641 0.2571 0.5130
H2 H 0.7628 0.2052 0.6169
C3 C 1.105(2) 0.0616(11) 0.5398(14)
H3 H 1.0618 0.0367 0.6166
H4 H 1.1966 0.1133 0.5293
C4 C 0.775(2) 0.0415(12) 0.5111(13)
H5 H 0.6515 0.0791 0.4799
H6 H 0.7305 0.0171 0.5879
C5 C 0.240(2) 1.1911(12) 0.9967(11)
C6 C 0.063(2) 1.2994(13) 0.9822(14)
H7 H 0.0772 1.3355 0.9068
H8 H -0.0721 1.2788 1.0050
C7 C -0.125(3) 1.4496(13) 1.0934(14)
H9 H -0.1000 1.4837 1.1473
H10 H -0.2220 1.4007 1.1294
C8 C 0.227(2) 1.4557(14) 0.9901(14)
H11 H 0.3560 1.4111 0.9551
H12 H 0.2606 1.4887 1.0423
N1 N 0.9159(17) 0.1231(9) 0.4917(9)
H13 H 0.9570 0.1453 0.4195
N2 N 0.074(2) 1.3797(10) 1.0464(10)
H14 H 0.1296 1.3349 1.1038
O1 O 0.8527(17) 0.3959(8) 0.5546(8)
O2 O 1.0838(17) 0.3015(8) 0.4384(8)
O3 O 0.6805(15) 0.6166(8) 0.4476(8)
O4 O 0.6454(16) 0.6684(8) 0.2619(8)
O5 O 0.6111(16) 0.4801(8) 0.3617(8)
O6 O 0.9481(15) 0.5305(8) 0.3105(8)
O7 O 0.4592(16) 0.7341(8) 0.6533(8)
O8 O 0.6781(16) 0.6561(8) 0.7788(8)
O9 O 0.5864(16) 0.8652(8) 0.7170(8)
O10 O 0.3398(16) 0.7775(8) 0.8364(8)
O11 O 0.2435(16) 0.8914(8) 1.0438(8)
O12 O 0.3098(16) 0.9592(8) 1.1877(8)
O13 O -0.0336(15) 1.0119(7) 1.1485(7)
O14 O 0.1025(16) 0.8187(8) 1.2263(7)
O15 O 0.2668(19) 1.1220(9) 0.9407(9)
O16 O 0.3409(17) 1.1859(8) 1.0682(8)
O17 O 0.6656(15) 0.4040(8) 0.7881(8)
H15 H 0.7291 0.3244 0.7964
H16 H 0.5289 0.3896 0.7994
O18 O 0.3311(14) 1.1177(8) 0.7137(7)
H17 H 0.3926 1.1812 0.7049
H18 H 0.1847 1.1415 0.7115
Gd1A Gd 0.61390(11) 1.03927(5) 1.13391(5)
Gd1A_2 Gd -0.38610(11) 1.03927(5) 1.13391(5)
Gd1A_3 Gd -0.38610(11) 2.03927(5) 1.13391(5)
Gd1_2 Gd -0.61390(11) 1.96073(5) 0.86609(5)
Gd1_3 Gd 1.38610(11) 0.96073(5) 0.86609(5)
Gd2A Gd 1.27605(11) -0.55332(5) 0.37136(5)
Gd2A_2 Gd 1.27605(11) 0.44668(5) 0.37136(5)
Gd2A_3 Gd 0.27605(11) 0.44668(5) 0.37136(5)
Gd2_2 Gd 0.72395(11) -0.44668(5) 0.62864(5)
Gd2_3 Gd -0.27605(11) 0.55332(5) 0.62864(5)
Gd2A_4 Gd 0.27605(11) 1.44668(5) 1.37136(5)
S1A S 0.2810(6) 0.4258(3) 0.6525(3)
S2A S 0.4839(6) 1.2423(3) 1.2540(3)
S3A S 0.8438(6) 1.0804(3) 0.8496(3)
C1A C 1.078(2) -0.3143(11) 0.4921(10)
C2A C 1.205(2) -0.2264(11) 0.4610(11)
H1A H 1.3359 -0.2571 0.4870
H2A H 1.2372 -0.2052 0.3831
C3A C 0.895(2) -0.0616(11) 0.4602(14)
H3A H 0.9382 -0.0367 0.3834
H4A H 0.8034 -0.1133 0.4707
C4A C 1.225(2) -0.0415(12) 0.4889(13)
H5A H 1.3485 -0.0791 0.5201
H6A H 1.2695 -0.0171 0.4121
C5A C -0.240(2) 1.8089(12) 1.0033(11)
C6A C -0.063(2) 1.7006(13) 1.0178(14)
H7A H -0.0772 1.6645 1.0932
H8A H 0.0721 1.7212 0.9950
C7A C 0.125(3) 1.5504(13) 0.9066(14)
H9A H 0.1000 1.5163 0.8527
H10A H 0.2220 1.5993 0.8706
C8A C -0.227(2) 1.5443(14) 1.0099(14)
H11A H -0.3560 1.5889 1.0449
H12A H -0.2606 1.5113 0.9577
N1A N 1.0841(17) -0.1231(9) 0.5083(9)
H13A H 1.0430 -0.1453 0.5805
N2A N -0.074(2) 1.6203(10) 0.9536(10)
H14A H -0.1296 1.6651 0.8962
O1A O 1.1473(17) -0.3959(8) 0.4454(8)
O2A O 0.9162(17) -0.3015(8) 0.5616(8)
O2A_2 O 0.9162(17) 0.6985(8) 0.5616(8)
O2_2 O 1.0838(17) -0.6985(8) 0.4384(8)
O3A O 0.3195(15) 0.3834(8) 0.5524(8)
O3A_2 O 1.3195(15) -0.6166(8) 0.5524(8)
O4A O 0.3546(16) 0.3316(8) 0.7381(8)
O5A O 0.3889(16) 0.5199(8) 0.6383(8)
O5_2 O 1.6111(16) -0.5199(8) 0.3617(8)
O6A O 0.0519(15) 0.4695(8) 0.6895(8)
O6A_2 O 1.0519(15) 0.4695(8) 0.6895(8)
O6_2 O 0.9481(15) -0.4695(8) 0.3105(8)
O7A O 0.5408(16) 1.2659(8) 1.3467(8)
O7A_2 O 1.5408(16) -0.7341(8) 0.3467(8)
O8A O 0.3219(16) 1.3439(8) 1.2212(8)
O8A_2 O 1.3219(16) -0.6561(8) 0.2212(8)
O9A O 0.4136(16) 1.1348(8) 1.2830(8)
O10A O 0.6602(16) 1.2225(8) 1.1636(8)
O11A O 0.7565(16) 1.1086(8) 0.9562(8)
O12A O 0.6902(16) 1.0408(8) 0.8123(8)
O13A O 1.0336(15) 0.9881(7) 0.8515(7)
O13A_2 O 0.0336(15) 0.9881(7) 0.8515(7)
O13_2 O 0.9664(15) 1.0119(7) 1.1485(7)
O14A O 0.8975(16) 1.1813(8) 0.7737(7)
O15A O -0.2668(19) 1.8780(9) 1.0593(9)
O15A_2 O 0.7332(19) 0.8780(9) 1.0593(9)
O16A O -0.3409(17) 1.8141(8) 0.9318(8)
O16A_2 O 0.6591(17) 0.8141(8) 0.9318(8)
O17A O 1.3344(15) -0.4040(8) 0.2119(8)
H15A H 1.2709 -0.3244 0.2036
H16A H 1.4711 -0.3896 0.2006
O18A O 0.6689(14) 0.8823(8) 1.2863(7)
H17A H 0.6074 0.8188 1.2951
H18A H 0.8153 0.8585 1.2885
O19 O -0.0003(19) 0.8215(11) 0.7267(9)
H19 H 0.0739 0.7818 0.7836
H20 H -0.1361 0.8193 0.7697
loop_
_geom_bond_atom_site_label_1
_geom_bond_atom_site_label_2
_geom_bond_site_symmetry_1
_geom_bond_site_symmetry_2
Gd1 O9 1_555 1_555
Gd2 O1 1_555 1_555
S1 O3 1_555 1_555
S2 O7 1_555 1_555
S3 O11 1_555 1_555
C1 C2 1_555 1_555
C2 H1 1_555 1_555
H2 C2 1_555 1_555
C3 H3 1_555 1_555
H4 C3 1_555 1_555
C4 H5 1_555 1_555
H6 C4 1_555 1_555
C5 C6 1_555 1_555
C6 H7 1_555 1_555
H8 C6 1_555 1_555
C7 H9 1_555 1_555
H10 C7 1_555 1_555
C8 H11 1_555 1_555
H12 C8 1_555 1_555
N1 C2 1_555 1_555
H13 N1 1_555 1_555
N2 C6 1_555 1_555
H14 N2 1_555 1_555
O1 C1 1_555 1_555
O2 C1 1_555 1_555
O3 Gd2 1_555 1_555
O4 S1 1_555 1_555
O5 S1 1_555 1_555
O6 S1 1_555 1_555
O7 Gd2 1_555 1_555
O8 Gd2 1_555 1_555
O9 S2 1_555 1_555
O10 Gd1 1_555 1_555
O11 Gd1 1_555 1_555
O12 S3 1_555 1_555
O13 S3 1_555 1_555
O14 S3 1_555 1_555
O15 Gd1 1_555 1_555
O16 C5 1_555 1_555
O17 Gd2 1_555 1_555
H15 O17 1_555 1_555
H16 O17 1_555 1_555
O18 Gd1 1_555 1_555
H17 O18 1_555 1_555
H18 O18 1_555 1_555
O19 H19 1_555 1_555
H20 O19 1_555 1_555
Gd1A O12 1_555 1_555
Gd1A_2 O13 1_555 1_555
Gd1A_3 O15A 1_555 1_555
Gd1_2 O16A 1_555 1_555
Gd1_3 O13A 1_555 1_555
Gd2A O1A 1_555 1_555
Gd2A_2 O2 1_555 1_555
Gd2A_3 O5 1_555 1_555
Gd2_2 O2A 1_555 1_555
Gd2_3 O6A 1_555 1_555
Gd2A_4 O7A 1_555 1_555
S1A O3A 1_555 1_555
S2A O7A 1_555 1_555
S3A O11A 1_555 1_555
C1A C2A 1_555 1_555
C2A H1A 1_555 1_555
H2A C2A 1_555 1_555
C3A C4 1_555 1_555
H3A C3A 1_555 1_555
H4A C3A 1_555 1_555
C4A C3 1_555 1_555
H5A C4A 1_555 1_555
H6A C4A 1_555 1_555
C5A C6A 1_555 1_555
C6A H7A 1_555 1_555
H8A C6A 1_555 1_555
C7A C8 1_555 1_555
H9A C7A 1_555 1_555
H10A C7A 1_555 1_555
C8A C7 1_555 1_555
H11A C8A 1_555 1_555
H12A C8A 1_555 1_555
N1A C2A 1_555 1_555
H13A N1A 1_555 1_555
N2A C6A 1_555 1_555
H14A N2A 1_555 1_555
O1A C1A 1_555 1_555
O2A C1A 1_555 1_555
O2A_2 Gd2 1_555 1_555
O2_2 Gd2A 1_555 1_555
O3A Gd2A_3 1_555 1_555
O3A_2 Gd2A 1_555 1_555
O4A S1A 1_555 1_555
O5A Gd2 1_555 1_555
O5_2 Gd2A 1_555 1_555
O6A S1A 1_555 1_555
O6A_2 Gd2 1_555 1_555
O6_2 Gd2A 1_555 1_555
O7A_2 Gd2A 1_555 1_555
O8A Gd2A_4 1_555 1_555
O8A_2 Gd2A 1_555 1_555
O9A Gd1A 1_555 1_555
O10A Gd1A 1_555 1_555
O11A Gd1A 1_555 1_555
O12A Gd1 1_555 1_555
O13A S3A 1_555 1_555
O13A_2 Gd1 1_555 1_555
O13_2 Gd1A 1_555 1_555
O14A S3A 1_555 1_555
O15A C5A 1_555 1_555
O15A_2 Gd1A 1_555 1_555
O16A C5A 1_555 1_555
O16A_2 Gd1 1_555 1_555
O17A Gd2A 1_555 1_555
H15A O17A 1_555 1_555
H16A O17A 1_555 1_555
O18A Gd1A 1_555 1_555
H17A O18A 1_555 1_555
H18A O18A 1_555 1_555
S2 O8 1_555 1_555
S2 O10 1_555 1_555
C3 N1 1_555 1_555
C4 N1 1_555 1_555
C5 O15 1_555 1_555
C7 N2 1_555 1_555
C8 N2 1_555 1_555
O6 Gd2A_2 1_555 1_555
O16 Gd1A 1_555 1_555
S1A O5A 1_555 1_555
S2A O8A 1_555 1_555
S2A O9A 1_555 1_555
S2A O10A 1_555 1_555
S3A O12A 1_555 1_555
C3A N1A 1_555 1_555
C4A N1A 1_555 1_555
C7A N2A 1_555 1_555
C8A N2A 1_555 1_555

#END
