
#######################################################################
#
#                 Cambridge Crystallographic Data Centre
#                                CCDC 
#
#######################################################################
#
# If this CIF has been generated from an entry in the Cambridge 
# Structural Database, then it will include bibliographic, chemical, 
# crystal, experimental, refinement or atomic coordinate data resulting 
# from the CCDC's data processing and validation procedures.
#
#######################################################################

data_GAFPEK
_symmetry_cell_setting           monoclinic
_symmetry_space_group_name_H-M   'C 2/c'
_symmetry_Int_Tables_number      15
_space_group_name_Hall           '-C 2yn'
loop_
_symmetry_equiv_pos_site_id
_symmetry_equiv_pos_as_xyz
1 x,y,z
2 -x,y,1/2-z
3 1/2+x,1/2+y,z
4 1/2-x,1/2+y,1/2-z
5 -x,-y,-z
6 x,-y,1/2+z
7 1/2-x,1/2-y,-z
8 1/2+x,1/2-y,1/2+z
_cell_length_a                   24.366(3)
_cell_length_b                   6.6443(8)
_cell_length_c                   16.718(2)
_cell_angle_alpha                90
_cell_angle_beta                 128.889(4)
_cell_angle_gamma                90
_cell_volume                     2106.69
loop_
_atom_site_label
_atom_site_type_symbol
_atom_site_fract_x
_atom_site_fract_y
_atom_site_fract_z
C1 C 0.5272(3) 1.2011(11) 1.0103(5)
H1 H 0.5536 1.2277 1.0831
H2 H 0.5308 1.3182 0.9793
Nd1 Nd 0.660849(17) 0.56590(5) 0.87227(3)
S1 S 0.77763(8) 0.4323(2) 1.14280(12)
S2 S 0.5000 0.2490(3) 0.7500
N1 N 0.5576(3) 1.0197(9) 0.9962(4)
O1 O 0.7069(2) 0.4703(7) 1.0445(4)
O2 O 0.7709(2) 0.3601(7) 1.2202(4)
O3 O 0.8198(2) 0.6180(7) 1.1807(4)
O4 O 0.8146(2) 0.2784(7) 1.1287(3)
O5 O 0.5571(2) 0.3805(7) 0.8321(4)
O6 O 0.4746(2) 0.1240(8) 0.7930(4)
O7 O 0.6052(2) 0.7995(8) 0.9203(3)
O8 O 0.7160(2) 0.9019(7) 1.0298(4)
O9 O 0.5469(2) 0.7103(8) 0.7135(3)
H3 H 0.5307 0.8258 0.7104
H4 H 0.5205 0.6057 0.6635
O10 O 0.6660(3) 0.5038(8) 0.7283(4)
H5 H 0.6618 0.6019 0.6922
H6 H 0.6594 0.3859 0.7041
C2 C 0.6518(3) 0.9067(10) 0.9932(5)
C3 C 0.6326(3) 1.0512(10) 1.0410(5)
H7 H 0.6631 1.0299 1.1148
H8 H 0.6391 1.1883 1.0285
C4 C 0.4520(4) 1.1631(11) 0.9616(6)
H9 H 0.4331 1.2793 0.9722
H10 H 0.4254 1.1464 0.8881
H11 H 0.530(4) 1.004(12) 0.924(6)
C1D C 0.4728(3) 0.7989(11) 0.9897(5)
H1D H 0.4464 0.7723 0.9169
H2D H 0.4692 0.6818 1.0207
Nd1F Nd 0.839151(17) 0.93410(5) 1.12773(3)
Nd1F_2 Nd 0.839151(17) -0.06590(5) 1.12773(3)
Nd1D Nd 0.339151(17) 1.43410(5) 1.12773(3)
Nd1B Nd 0.160849(17) 1.06590(5) 0.87227(3)
Nd1A Nd 0.339151(17) 0.56590(5) 0.62773(3)
Nd1_2 Nd 0.660849(17) -0.43410(5) 0.87227(3)
S1F S 0.72237(8) 0.0677(2) 0.85720(12)
N1D N 0.4424(3) 0.9803(9) 1.0038(4)
O1F O 0.7931(2) 0.0297(7) 0.9555(4)
O1D O 0.2931(2) 1.5297(7) 0.9555(4)
O2F O 0.7291(2) 0.1399(7) 0.7798(4)
O3F O 0.6802(2) 0.8820(7) 0.8193(4)
O3B O 0.3198(2) 1.1180(7) 1.1807(4)
O3F_2 O 0.6802(2) -0.1180(7) 0.8193(4)
O4F O 0.6854(2) 0.2216(7) 0.8713(3)
O4B O 0.3146(2) 1.7784(7) 1.1287(3)
O5A O 0.4429(2) 0.3805(7) 0.6679(4)
O5D O 0.4429(2) 1.6195(7) 1.1679(4)
O6A O 0.5254(2) 0.1240(8) 0.7070(4)
O7D O 0.3948(2) 1.2005(8) 1.0797(3)
O8D O 0.2840(2) 1.0981(7) 0.9702(4)
O8F O 0.7840(2) 0.5981(7) 0.9702(4)
O8B O 0.2160(2) 1.4019(7) 1.0298(4)
O9D O 0.4531(2) 1.2897(8) 1.2865(3)
H3D H 0.4693 1.1742 1.2896
H4D H 0.4795 1.3943 1.3365
O10D O 0.3340(3) 1.4962(8) 1.2717(4)
H5D H 0.3382 1.3981 1.3078
H6D H 0.3406 1.6141 1.2959
C2D C 0.3482(3) 1.0933(10) 1.0068(5)
C3D C 0.3674(3) 0.9488(10) 0.9590(5)
H7D H 0.3369 0.9701 0.8852
H8D H 0.3609 0.8117 0.9715
C4D C 0.5480(4) 0.8369(11) 1.0384(6)
H9D H 0.5669 0.7207 1.0278
H10D H 0.5746 0.8536 1.1119
H11D H 0.470(4) 0.996(12) 1.076(6)
loop_
_geom_bond_atom_site_label_1
_geom_bond_atom_site_label_2
_geom_bond_site_symmetry_1
_geom_bond_site_symmetry_2
C1 H1 1_555 1_555
H2 C1 1_555 1_555
Nd1 O1 1_555 1_555
S1 O1 1_555 1_555
S2 O5 1_555 1_555
N1 C1 1_555 1_555
O2 S1 1_555 1_555
O3 S1 1_555 1_555
O4 S1 1_555 1_555
O5 Nd1 1_555 1_555
O6 S2 1_555 1_555
O7 Nd1 1_555 1_555
O8 C2 1_555 1_555
O9 Nd1 1_555 1_555
H3 O9 1_555 1_555
H4 O9 1_555 1_555
O10 Nd1 1_555 1_555
H5 O10 1_555 1_555
H6 O10 1_555 1_555
C2 O7 1_555 1_555
C3 N1 1_555 1_555
H7 C3 1_555 1_555
H8 C3 1_555 1_555
C4 C1 1_555 1_555
H9 C4 1_555 1_555
H10 C4 1_555 1_555
H11 N1 1_555 1_555
C1D H1D 1_555 1_555
H2D C1D 1_555 1_555
Nd1F O3 1_555 1_555
Nd1F_2 O4 1_555 1_555
Nd1D O1D 1_555 1_555
Nd1B O8D 1_555 1_555
Nd1A O5A 1_555 1_555
Nd1_2 O3F_2 1_555 1_555
S1F O1F 1_555 1_555
N1D C4 1_555 1_555
O1F Nd1F_2 1_555 1_555
O2F S1F 1_555 1_555
O3F Nd1 1_555 1_555
O3B Nd1D 1_555 1_555
O3F_2 S1F 1_555 1_555
O4F Nd1 1_555 1_555
O4B Nd1D 1_555 1_555
O5A S2 1_555 1_555
O5D Nd1D 1_555 1_555
O6A S2 1_555 1_555
O7D Nd1D 1_555 1_555
O8D C2D 1_555 1_555
O8F Nd1 1_555 1_555
O8B Nd1D 1_555 1_555
O9D Nd1D 1_555 1_555
H3D O9D 1_555 1_555
H4D O9D 1_555 1_555
O10D Nd1D 1_555 1_555
H5D O10D 1_555 1_555
H6D O10D 1_555 1_555
C2D O7D 1_555 1_555
C3D N1D 1_555 1_555
H7D C3D 1_555 1_555
H8D C3D 1_555 1_555
C4D N1 1_555 1_555
H9D C4D 1_555 1_555
H10D C4D 1_555 1_555
H11D N1D 1_555 1_555
O8 Nd1F 1_555 1_555
C2 C3 1_555 1_555
C1D N1D 1_555 1_555
C1D C4D 1_555 1_555
S1F O4F 1_555 1_555
C2D C3D 1_555 1_555

#END
