
#######################################################################
#
#                 Cambridge Crystallographic Data Centre
#                                CCDC 
#
#######################################################################
#
# If this CIF has been generated from an entry in the Cambridge 
# Structural Database, then it will include bibliographic, chemical, 
# crystal, experimental, refinement or atomic coordinate data resulting 
# from the CCDC's data processing and validation procedures.
#
#######################################################################

data_GAFPIO
_symmetry_cell_setting           monoclinic
_symmetry_space_group_name_H-M   'C 2/c'
_symmetry_Int_Tables_number      15
_space_group_name_Hall           '-C 2yn'
loop_
_symmetry_equiv_pos_site_id
_symmetry_equiv_pos_as_xyz
1 x,y,z
2 -x,y,1/2-z
3 1/2+x,1/2+y,z
4 1/2-x,1/2+y,1/2-z
5 -x,-y,-z
6 x,-y,1/2+z
7 1/2-x,1/2-y,-z
8 1/2+x,1/2-y,1/2+z
_cell_length_a                   24.187(3)
_cell_length_b                   6.5870(7)
_cell_length_c                   16.6304(19)
_cell_angle_alpha                90
_cell_angle_beta                 128.946(4)
_cell_angle_gamma                90
_cell_volume                     2060.66
loop_
_atom_site_label
_atom_site_type_symbol
_atom_site_fract_x
_atom_site_fract_y
_atom_site_fract_z
Sm1 Sm 0.339548(11) 0.56563(3) 0.628217(15)
S1 S 0.22230(6) 0.43219(14) 0.35849(9)
S2 S 0.5000 0.2506(2) 0.7500
O1 O 0.39343(16) 0.7982(5) 0.5791(2)
O2 O 0.28250(18) 0.9051(5) 0.4679(3)
O3 O 0.29337(17) 0.4698(5) 0.4572(2)
O4 O 0.22923(17) 0.3612(5) 0.2814(2)
O5 O 0.17986(17) 0.6187(5) 0.3206(2)
O6 O 0.18577(16) 0.2784(5) 0.3730(2)
O7 O 0.33566(17) 0.5032(6) 0.7723(2)
H1 H 0.2972 0.4427 0.7489
H2 H 0.3376 0.6160 0.7987
O8 O 0.45273(18) 0.7096(6) 0.7862(3)
H3 H 0.4765 0.6162 0.8308
O9 O 0.44239(16) 0.3816(5) 0.6669(2)
O10 O 0.47433(18) 0.1241(6) 0.7927(2)
N1 N 0.44201(19) 1.0202(6) 0.5038(3)
H4 H 0.4674 1.0009 0.5722
C1 C 0.3467(2) 0.9071(6) 0.5059(4)
C2 C 0.3666(3) 1.0530(6) 0.4586(4)
H5 H 0.3359 1.0327 0.3844
H6 H 0.3604 1.1912 0.4717
C3 C 0.4510(3) 0.8367(7) 0.4609(4)
H7 H 0.4242 0.8539 0.3870
H8 H 0.4320 0.7196 0.4715
C4 C 0.4723(3) 1.2013(7) 0.4894(4)
H9 H 0.4685 1.3198 0.5203
H10 H 0.4456 1.2276 0.4162
H11 H 0.450(3) 0.825(9) 0.774(4)
Sm1D Sm 0.660452(11) 1.43437(3) 0.371783(15)
Sm1F Sm 0.160452(11) 0.93437(3) 0.371783(15)
Sm1F_2 Sm 0.160452(11) -0.06563(3) 0.371783(15)
Sm1A Sm 0.660452(11) 0.56563(3) 0.871783(15)
Sm1B Sm 0.839548(11) 1.06563(3) 0.628217(15)
Sm1_2 Sm 0.339548(11) 1.56563(3) 0.628217(15)
S1F S 0.27770(6) 1.06781(14) 0.64151(9)
O1D O 0.60657(16) 1.2018(5) 0.4209(2)
O2D O 0.71750(18) 1.0949(5) 0.5321(3)
O2F O 0.21750(18) 0.5949(5) 0.5321(3)
O2B O 0.78250(18) 1.4051(5) 0.4679(3)
O3F O 0.20663(17) 1.0302(5) 0.5428(2)
O3D O 0.70663(17) 1.5302(5) 0.5428(2)
O4F O 0.27077(17) 1.1388(5) 0.7186(2)
O5F O 0.32014(17) 0.8813(5) 0.6794(2)
O5B O 0.67986(17) 1.1187(5) 0.3206(2)
O6F O 0.31423(16) 1.2216(5) 0.6270(2)
O6F_2 O 0.31423(16) 0.2216(5) 0.6270(2)
O6B O 0.68577(16) 1.7784(5) 0.3730(2)
O7D O 0.66434(17) 1.4968(6) 0.2277(2)
H1D H 0.7028 1.5573 0.2511
H2D H 0.6624 1.3840 0.2013
O8D O 0.54727(18) 1.2904(6) 0.2138(3)
H3D H 0.5235 1.3838 0.1692
O9A O 0.55761(16) 0.3816(5) 0.8331(2)
O9D O 0.55761(16) 1.6184(5) 0.3331(2)
O10A O 0.52567(18) 0.1241(6) 0.7073(2)
N1D N 0.55799(19) 0.9798(6) 0.4962(3)
H4D H 0.5326 0.9991 0.4278
C1D C 0.6533(2) 1.0929(6) 0.4941(4)
C2D C 0.6334(3) 0.9470(6) 0.5414(4)
H5D H 0.6641 0.9673 0.6156
H6D H 0.6396 0.8088 0.5283
C3D C 0.5490(3) 1.1633(7) 0.5391(4)
H7D H 0.5758 1.1461 0.6130
H8D H 0.5680 1.2804 0.5285
C4D C 0.5277(3) 0.7987(7) 0.5106(4)
H9D H 0.5315 0.6802 0.4797
H10D H 0.5544 0.7724 0.5838
H11D H 0.550(3) 1.175(9) 0.226(4)
loop_
_geom_bond_atom_site_label_1
_geom_bond_atom_site_label_2
_geom_bond_site_symmetry_1
_geom_bond_site_symmetry_2
Sm1 O1 1_555 1_555
S1 O3 1_555 1_555
S2 O9 1_555 1_555
O1 C1 1_555 1_555
O2 C1 1_555 1_555
O3 Sm1 1_555 1_555
O4 S1 1_555 1_555
O5 S1 1_555 1_555
O6 S1 1_555 1_555
O7 Sm1 1_555 1_555
H1 O7 1_555 1_555
H2 O7 1_555 1_555
O8 Sm1 1_555 1_555
H3 O8 1_555 1_555
O9 Sm1 1_555 1_555
O10 S2 1_555 1_555
N1 H4 1_555 1_555
C1 C2 1_555 1_555
C2 N1 1_555 1_555
H5 C2 1_555 1_555
H6 C2 1_555 1_555
C3 N1 1_555 1_555
H7 C3 1_555 1_555
H8 C3 1_555 1_555
C4 N1 1_555 1_555
H9 C4 1_555 1_555
H10 C4 1_555 1_555
H11 O8 1_555 1_555
Sm1D O1D 1_555 1_555
Sm1F O2 1_555 1_555
Sm1F_2 O6 1_555 1_555
Sm1A O9A 1_555 1_555
Sm1B O2D 1_555 1_555
Sm1_2 O6F 1_555 1_555
S1F O3F 1_555 1_555
O1D C1D 1_555 1_555
O2D C1D 1_555 1_555
O2F Sm1 1_555 1_555
O2B Sm1D 1_555 1_555
O3F Sm1F 1_555 1_555
O3D Sm1D 1_555 1_555
O4F S1F 1_555 1_555
O5F Sm1 1_555 1_555
O5B Sm1D 1_555 1_555
O6F S1F 1_555 1_555
O6F_2 Sm1 1_555 1_555
O6B Sm1D 1_555 1_555
O7D Sm1D 1_555 1_555
H1D O7D 1_555 1_555
H2D O7D 1_555 1_555
O8D Sm1D 1_555 1_555
H3D O8D 1_555 1_555
O9A S2 1_555 1_555
O9D Sm1D 1_555 1_555
O10A S2 1_555 1_555
N1D H4D 1_555 1_555
C1D C2D 1_555 1_555
C2D N1D 1_555 1_555
H5D C2D 1_555 1_555
H6D C2D 1_555 1_555
C3D C4 1_555 1_555
H7D C3D 1_555 1_555
H8D C3D 1_555 1_555
C4D C3 1_555 1_555
H9D C4D 1_555 1_555
H10D C4D 1_555 1_555
H11D O8D 1_555 1_555
O5 Sm1F 1_555 1_555
S1F O5F 1_555 1_555
N1D C3D 1_555 1_555
N1D C4D 1_555 1_555

#END
