
#######################################################################
#
#                 Cambridge Crystallographic Data Centre
#                                CCDC 
#
#######################################################################
#
# If this CIF has been generated from an entry in the Cambridge 
# Structural Database, then it will include bibliographic, chemical, 
# crystal, experimental, refinement or atomic coordinate data resulting 
# from the CCDC's data processing and validation procedures.
#
#######################################################################

data_GAFQAH
_symmetry_cell_setting           triclinic
_symmetry_space_group_name_H-M   'P -1'
_symmetry_Int_Tables_number      2
_space_group_name_Hall           '-P 1'
loop_
_symmetry_equiv_pos_site_id
_symmetry_equiv_pos_as_xyz
1 x,y,z
2 -x,-y,-z
_cell_length_a                   6.694(3)
_cell_length_b                   12.313(6)
_cell_length_c                   12.952(6)
_cell_angle_alpha                76.308(9)
_cell_angle_beta                 76.254(8)
_cell_angle_gamma                74.460(9)
_cell_volume                     981.835
loop_
_atom_site_label
_atom_site_type_symbol
_atom_site_fract_x
_atom_site_fract_y
_atom_site_fract_z
Dy1 Dy 0.38428(7) 0.96268(3) 0.86559(3)
Dy2 Dy 0.72371(7) 0.55553(4) 0.62822(3)
S1 S 0.7198(4) 0.57204(19) 0.34727(19)
S2 S 0.5168(4) 0.7602(2) 0.74516(19)
S3 S 0.1581(4) 0.91802(19) 1.14924(19)
C1 C 0.9218(15) 0.3148(7) 0.5106(7)
C2 C 0.7934(14) 0.2255(7) 0.5415(7)
H1 H 0.7625 0.2032 0.6196
H2 H 0.6607 0.2564 0.5160
C3 C 1.1044(15) 0.0634(7) 0.5404(8)
H3 H 1.0617 0.0393 0.6177
H4 H 1.1956 0.1161 0.5293
C4 C 0.7736(15) 0.0413(7) 0.5101(8)
H5 H 0.6504 0.0787 0.4774
H6 H 0.7262 0.0174 0.5870
C5 C 0.2436(16) 1.1910(8) 0.9993(8)
C6 C 0.0632(16) 1.3010(7) 0.9836(7)
H7 H 0.0794 1.3381 0.9081
H8 H -0.0729 1.2805 1.0050
C7 C -0.1390(16) 1.4521(8) 1.0950(8)
H9 H -0.2376 1.4030 1.1277
H10 H -0.1238 1.4888 1.1503
C8 C 0.2241(15) 1.4573(8) 0.9956(8)
H11 H 0.3588 1.4116 0.9662
H12 H 0.2476 1.4947 1.0483
N1 N 0.9141(13) 0.1233(6) 0.4920(6)
H13 H 0.9550 0.1465 0.4197
N2 N 0.0750(13) 1.3798(6) 1.0510(6)
H14 H 0.1279 1.3351 1.1095
O1 O 0.8504(11) 0.3993(5) 0.5577(5)
O2 O 1.0826(11) 0.3041(5) 0.4394(5)
O3 O 0.6813(10) 0.6169(5) 0.4474(5)
O4 O 0.6431(10) 0.6653(5) 0.2620(5)
O5 O 0.6121(10) 0.4780(5) 0.3629(5)
O6 O 0.9485(10) 0.5261(5) 0.3134(5)
O7 O 0.4574(11) 0.7353(5) 0.6526(5)
O8 O 0.6843(11) 0.6597(5) 0.7775(5)
O9 O 0.5866(10) 0.8695(5) 0.7152(5)
O10 O 0.3360(11) 0.7785(5) 0.8358(5)
O11 O 0.2423(11) 0.8928(5) 1.0404(5)
O12 O 0.3157(11) 0.9565(6) 1.1867(5)
O13 O -0.0353(10) 1.0121(5) 1.1490(5)
O14 O 0.1037(10) 0.8168(5) 1.2225(5)
O15 O 0.2634(11) 1.1227(5) 0.9397(5)
O16 O 0.3449(11) 1.1831(5) 1.0688(5)
O17 O 0.6638(10) 0.4080(5) 0.7883(5)
H15 H 0.7273 0.3284 0.7966
H16 H 0.5271 0.3936 0.7996
O18 O 0.3259(10) 1.1168(5) 0.7156(5)
H17 H 0.3874 1.1804 0.7068
H18 H 0.1795 1.1406 0.7134
Dy1A Dy 0.61572(7) 1.03732(3) 1.13441(3)
Dy1A_2 Dy -0.38428(7) 1.03732(3) 1.13441(3)
Dy1_2 Dy -0.61572(7) 1.96268(3) 0.86559(3)
Dy1A_3 Dy -0.38428(7) 2.03732(3) 1.13441(3)
Dy1_3 Dy 1.38428(7) 0.96268(3) 0.86559(3)
Dy2A Dy 1.27629(7) -0.55553(4) 0.37178(3)
Dy2A_2 Dy 1.27629(7) 0.44447(4) 0.37178(3)
Dy2A_3 Dy 0.27629(7) 0.44447(4) 0.37178(3)
Dy2_2 Dy 0.72371(7) -0.44447(4) 0.62822(3)
Dy2_3 Dy -0.27629(7) 0.55553(4) 0.62822(3)
Dy2A_4 Dy 0.27629(7) 1.44447(4) 1.37178(3)
S1A S 0.2802(4) 0.42796(19) 0.65273(19)
S2A S 0.4832(4) 1.2398(2) 1.25484(19)
S3A S 0.8419(4) 1.08198(19) 0.85076(19)
C1A C 1.0782(15) -0.3148(7) 0.4894(7)
C2A C 1.2066(14) -0.2255(7) 0.4585(7)
H1A H 1.2375 -0.2032 0.3804
H2A H 1.3393 -0.2564 0.4840
C3A C 0.8956(15) -0.0634(7) 0.4596(8)
H3A H 0.9383 -0.0393 0.3823
H4A H 0.8044 -0.1161 0.4707
C4A C 1.2264(15) -0.0413(7) 0.4899(8)
H5A H 1.3496 -0.0787 0.5226
H6A H 1.2738 -0.0174 0.4130
C5A C -0.2436(16) 1.8090(8) 1.0007(8)
C6A C -0.0632(16) 1.6990(7) 1.0164(7)
H7A H -0.0794 1.6619 1.0919
H8A H 0.0729 1.7195 0.9950
C7A C 0.1390(16) 1.5479(8) 0.9050(8)
H9A H 0.2376 1.5970 0.8723
H10A H 0.1238 1.5112 0.8497
C8A C -0.2241(15) 1.5427(8) 1.0044(8)
H11A H -0.3588 1.5884 1.0338
H12A H -0.2476 1.5053 0.9517
N1A N 1.0859(13) -0.1233(6) 0.5080(6)
H13A H 1.0450 -0.1465 0.5803
N2A N -0.0750(13) 1.6202(6) 0.9490(6)
H14A H -0.1279 1.6649 0.8905
O1A O 1.1496(11) -0.3993(5) 0.4423(5)
O2A O 0.9174(11) -0.3041(5) 0.5606(5)
O2A_2 O 0.9174(11) 0.6959(5) 0.5606(5)
O2_2 O 1.0826(11) -0.6959(5) 0.4394(5)
O3A O 0.3187(10) 0.3831(5) 0.5526(5)
O3A_2 O 1.3187(10) -0.6169(5) 0.5526(5)
O4A O 0.3569(10) 0.3347(5) 0.7380(5)
O5A O 0.3879(10) 0.5220(5) 0.6371(5)
O5_2 O 1.6121(10) -0.5220(5) 0.3629(5)
O6A O 0.0515(10) 0.4739(5) 0.6866(5)
O6A_2 O 1.0515(10) 0.4739(5) 0.6866(5)
O6_2 O 0.9485(10) -0.4739(5) 0.3134(5)
O7A O 0.5426(11) 1.2647(5) 1.3474(5)
O7A_2 O 1.5426(11) -0.7353(5) 0.3474(5)
O8A O 0.3157(11) 1.3403(5) 1.2225(5)
O8A_2 O 1.3157(11) -0.6597(5) 0.2225(5)
O9A O 0.4134(10) 1.1305(5) 1.2848(5)
O10A O 0.6640(11) 1.2215(5) 1.1642(5)
O11A O 0.7577(11) 1.1072(5) 0.9596(5)
O12A O 0.6843(11) 1.0435(6) 0.8133(5)
O13A O 1.0353(10) 0.9879(5) 0.8510(5)
O13A_2 O 0.0353(10) 0.9879(5) 0.8510(5)
O13_2 O 0.9647(10) 1.0121(5) 1.1490(5)
O14A O 0.8963(10) 1.1832(5) 0.7775(5)
O15A O -0.2634(11) 1.8773(5) 1.0603(5)
O15A_2 O 0.7366(11) 0.8773(5) 1.0603(5)
O16A O -0.3449(11) 1.8169(5) 0.9312(5)
O16A_2 O 0.6551(11) 0.8169(5) 0.9312(5)
O17A O 1.3362(10) -0.4080(5) 0.2117(5)
H15A H 1.2727 -0.3284 0.2034
H16A H 1.4729 -0.3936 0.2004
O18A O 0.6741(10) 0.8832(5) 1.2844(5)
H17A H 0.6126 0.8196 1.2932
H18A H 0.8205 0.8594 1.2866
O19 O 0.0011(13) 0.8188(6) 0.7274(6)
H19 H 0.0754 0.7792 0.7843
H20 H -0.1346 0.8167 0.7704
loop_
_geom_bond_atom_site_label_1
_geom_bond_atom_site_label_2
_geom_bond_site_symmetry_1
_geom_bond_site_symmetry_2
Dy1 O9 1_555 1_555
Dy2 O1 1_555 1_555
S1 O3 1_555 1_555
S2 O7 1_555 1_555
S3 O11 1_555 1_555
C1 C2 1_555 1_555
C2 H1 1_555 1_555
H2 C2 1_555 1_555
C3 H3 1_555 1_555
H4 C3 1_555 1_555
C4 H5 1_555 1_555
H6 C4 1_555 1_555
C5 C6 1_555 1_555
C6 H7 1_555 1_555
H8 C6 1_555 1_555
C7 H9 1_555 1_555
H10 C7 1_555 1_555
C8 H11 1_555 1_555
H12 C8 1_555 1_555
N1 C2 1_555 1_555
H13 N1 1_555 1_555
N2 C6 1_555 1_555
H14 N2 1_555 1_555
O1 C1 1_555 1_555
O2 C1 1_555 1_555
O3 Dy2 1_555 1_555
O4 S1 1_555 1_555
O5 S1 1_555 1_555
O6 S1 1_555 1_555
O7 Dy2 1_555 1_555
O8 Dy2 1_555 1_555
O9 S2 1_555 1_555
O10 Dy1 1_555 1_555
O11 Dy1 1_555 1_555
O12 S3 1_555 1_555
O13 S3 1_555 1_555
O14 S3 1_555 1_555
O15 Dy1 1_555 1_555
O16 C5 1_555 1_555
O17 Dy2 1_555 1_555
H15 O17 1_555 1_555
H16 O17 1_555 1_555
O18 Dy1 1_555 1_555
H17 O18 1_555 1_555
H18 O18 1_555 1_555
O19 H19 1_555 1_555
H20 O19 1_555 1_555
Dy1A O12 1_555 1_555
Dy1A_2 O13 1_555 1_555
Dy1_2 O16A 1_555 1_555
Dy1A_3 O15A 1_555 1_555
Dy1_3 O13A 1_555 1_555
Dy2A O1A 1_555 1_555
Dy2A_2 O2 1_555 1_555
Dy2A_3 O5 1_555 1_555
Dy2_2 O2A 1_555 1_555
Dy2_3 O6A 1_555 1_555
Dy2A_4 O7A 1_555 1_555
S1A O3A 1_555 1_555
S2A O7A 1_555 1_555
S3A O11A 1_555 1_555
C1A C2A 1_555 1_555
C2A H1A 1_555 1_555
H2A C2A 1_555 1_555
C3A C4 1_555 1_555
H3A C3A 1_555 1_555
H4A C3A 1_555 1_555
C4A C3 1_555 1_555
H5A C4A 1_555 1_555
H6A C4A 1_555 1_555
C5A C6A 1_555 1_555
C6A H7A 1_555 1_555
H8A C6A 1_555 1_555
C7A C8 1_555 1_555
H9A C7A 1_555 1_555
H10A C7A 1_555 1_555
C8A C7 1_555 1_555
H11A C8A 1_555 1_555
H12A C8A 1_555 1_555
N1A C2A 1_555 1_555
H13A N1A 1_555 1_555
N2A C6A 1_555 1_555
H14A N2A 1_555 1_555
O1A C1A 1_555 1_555
O2A C1A 1_555 1_555
O2A_2 Dy2 1_555 1_555
O2_2 Dy2A 1_555 1_555
O3A Dy2A_3 1_555 1_555
O3A_2 Dy2A 1_555 1_555
O4A S1A 1_555 1_555
O5A Dy2 1_555 1_555
O5_2 Dy2A 1_555 1_555
O6A S1A 1_555 1_555
O6A_2 Dy2 1_555 1_555
O6_2 Dy2A 1_555 1_555
O7A_2 Dy2A 1_555 1_555
O8A Dy2A_4 1_555 1_555
O8A_2 Dy2A 1_555 1_555
O9A Dy1A 1_555 1_555
O10A Dy1A 1_555 1_555
O11A Dy1A 1_555 1_555
O12A Dy1 1_555 1_555
O13A S3A 1_555 1_555
O13A_2 Dy1 1_555 1_555
O13_2 Dy1A 1_555 1_555
O14A S3A 1_555 1_555
O15A C5A 1_555 1_555
O15A_2 Dy1A 1_555 1_555
O16A C5A 1_555 1_555
O16A_2 Dy1 1_555 1_555
O17A Dy2A 1_555 1_555
H15A O17A 1_555 1_555
H16A O17A 1_555 1_555
O18A Dy1A 1_555 1_555
H17A O18A 1_555 1_555
H18A O18A 1_555 1_555
S2 O8 1_555 1_555
S2 O10 1_555 1_555
C3 N1 1_555 1_555
C4 N1 1_555 1_555
C5 O15 1_555 1_555
C7 N2 1_555 1_555
C8 N2 1_555 1_555
O6 Dy2A_2 1_555 1_555
O16 Dy1A 1_555 1_555
S1A O5A 1_555 1_555
S2A O8A 1_555 1_555
S2A O9A 1_555 1_555
S2A O10A 1_555 1_555
S3A O12A 1_555 1_555
C3A N1A 1_555 1_555
C4A N1A 1_555 1_555
C7A N2A 1_555 1_555
C8A N2A 1_555 1_555

#END
