
#######################################################################
#
#                 Cambridge Crystallographic Data Centre
#                                CCDC 
#
#######################################################################
#
# If this CIF has been generated from an entry in the Cambridge 
# Structural Database, then it will include bibliographic, chemical, 
# crystal, experimental, refinement or atomic coordinate data resulting 
# from the CCDC's data processing and validation procedures.
#
#######################################################################

data_GAFVAL
_symmetry_cell_setting           monoclinic
_symmetry_space_group_name_H-M   'P 2/n'
_symmetry_Int_Tables_number      13
_space_group_name_Hall           '-P 2yac'
loop_
_symmetry_equiv_pos_site_id
_symmetry_equiv_pos_as_xyz
1 x,y,z
2 1/2-x,y,1/2-z
3 -x,-y,-z
4 1/2+x,-y,1/2+z
_cell_length_a                   8.979(2)
_cell_length_b                   6.2299(8)
_cell_length_c                   8.103(1)
_cell_angle_alpha                90
_cell_angle_beta                 90.05(2)
_cell_angle_gamma                90
_cell_volume                     453.268
loop_
_atom_site_label
_atom_site_type_symbol
_atom_site_fract_x
_atom_site_fract_y
_atom_site_fract_z
Y1 Y 0.7500 0.1058(4) 0.750
O1 O 0.6736(8) -0.118(2) 0.518(1)
O2 O 0.474(1) -0.241(1) 0.396(1)
O3 O 0.560(1) -0.160(2) 0.828(1)
O4 O 0.401(1) -0.237(2) 1.022(2)
C1 C 0.5463(9) -0.090(2) 0.459(2)
C2 C 0.490(2) -0.109(2) 0.956(2)
O5 O 0.7500 0.509(2) 0.750
C1B C 0.4537(9) 0.090(2) 0.541(2)
O1B O 0.3264(8) 0.118(2) 0.482(1)
O2B O 0.526(1) 0.241(1) 0.604(1)
C2B C 0.510(2) 0.109(2) 1.044(2)
O3B O 0.440(1) 0.160(2) 1.172(1)
O4B O 0.599(1) 0.237(2) 0.978(2)
O1A O 0.8264(8) -0.118(2) 0.982(1)
O2C O 0.974(1) 0.241(1) 0.896(1)
O3A O 0.940(1) -0.160(2) 0.672(1)
O4C O 0.901(1) 0.237(2) 0.522(2)
Y1B Y 0.2500 -0.1058(4) 0.250
Y1B_2 Y 0.2500 -0.1058(4) 1.250
Cs1 Cs 0.2500 0.4927(3) 0.750
loop_
_geom_bond_atom_site_label_1
_geom_bond_atom_site_label_2
_geom_bond_site_symmetry_1
_geom_bond_site_symmetry_2
Y1 O1 1_555 1_555
O1 C1 1_555 1_555
O2 C1 1_555 1_555
O3 Y1 1_555 1_555
O4 C2 1_555 1_555
C1 C1B 1_555 1_555
C2 O3 1_555 1_555
O5 Y1 1_555 1_555
C1B O1B 1_555 1_555
O1B Y1B 1_555 1_555
O2B Y1 1_555 1_555
C2B C2 1_555 1_555
O3B C2B 1_555 1_555
O4B Y1 1_555 1_555
O1A Y1 1_555 1_555
O2C Y1 1_555 1_555
O3A Y1 1_555 1_555
O4C Y1 1_555 1_555
Y1B O2 1_555 1_555
Y1B_2 O4 1_555 1_555
C1B O2B 1_555 1_555
C2B O4B 1_555 1_555
O3B Y1B_2 1_555 1_555

#END
