
#######################################################################
#
#                 Cambridge Crystallographic Data Centre
#                                CCDC 
#
#######################################################################
#
# If this CIF has been generated from an entry in the Cambridge 
# Structural Database, then it will include bibliographic, chemical, 
# crystal, experimental, refinement or atomic coordinate data resulting 
# from the CCDC's data processing and validation procedures.
#
#######################################################################

data_GAFVOA
_symmetry_cell_setting           monoclinic
_symmetry_space_group_name_H-M   'P 21/c'
_symmetry_Int_Tables_number      14
_space_group_name_Hall           '-P 2ybc'
loop_
_symmetry_equiv_pos_site_id
_symmetry_equiv_pos_as_xyz
1 x,y,z
2 -x,1/2+y,1/2-z
3 -x,-y,-z
4 x,1/2-y,1/2+z
_cell_length_a                   13.9851(11)
_cell_length_b                   9.7932(8)
_cell_length_c                   16.0191(13)
_cell_angle_alpha                90
_cell_angle_beta                 100.780(2)
_cell_angle_gamma                90
_cell_volume                     2155.24
loop_
_atom_site_label
_atom_site_type_symbol
_atom_site_fract_x
_atom_site_fract_y
_atom_site_fract_z
Cu1 Cu -0.03874(3) 0.64131(5) 0.08463(3)
N1 N -0.0387(2) 0.4865(3) 0.16974(18)
N2 N 0.0918(2) 0.5802(3) 0.08719(18)
N3 N -0.0089(2) 0.7608(3) -0.00285(19)
N4 N -0.1747(2) 0.7130(3) 0.04339(19)
N5 N 0.0056(2) 0.2895(3) 0.29624(19)
N6 N -0.3469(3) 0.8417(5) -0.0330(3)
O1 O 0.20780(19) 0.4213(3) 0.15045(17)
O2 O -0.0796(2) 0.9185(3) -0.1042(2)
C1 C -0.1037(3) 0.4454(4) 0.2151(2)
H1 H -0.1659 0.4828 0.2041
C2 C -0.0811(3) 0.3485(4) 0.2782(2)
H2 H -0.1284 0.3238 0.3092
C3 C 0.0709(3) 0.3285(4) 0.2498(2)
H3 H 0.1322 0.2881 0.2600
C4 C 0.0504(3) 0.4274(4) 0.1869(2)
C5 C 0.1263(3) 0.4757(4) 0.1388(2)
C6 C 0.1432(3) 0.6526(4) 0.0333(2)
C7 C 0.2386(3) 0.6347(4) 0.0252(2)
H4 H 0.2763 0.5692 0.0582
C8 C 0.2799(3) 0.7129(5) -0.0317(3)
C9 C 0.2224(3) 0.8130(5) -0.0813(3)
C10 C 0.1292(3) 0.8309(4) -0.0721(3)
H5 H 0.0922 0.8974 -0.1047
C11 C 0.0858(3) 0.7539(4) -0.0157(2)
C12 C -0.0816(3) 0.8376(4) -0.0462(3)
C13 C -0.1753(3) 0.8091(4) -0.0176(2)
C14 C -0.2609(4) 0.8724(5) -0.0533(3)
H6 H -0.2589 0.9401 -0.0937
C15 C -0.3446(3) 0.7445(6) 0.0248(3)
H7 H -0.4028 0.7177 0.0399
C16 C -0.2602(3) 0.6812(5) 0.0634(3)
H8 H -0.2628 0.6147 0.1044
C17 C 0.3857(3) 0.6797(6) -0.0381(3)
H9 H 0.4108 0.6112 0.0031
H10 H 0.4246 0.7608 -0.0274
H11 H 0.3879 0.6462 -0.0941
C18 C 0.2644(4) 0.8997(5) -0.1443(3)
H12 H 0.2196 0.9717 -0.1651
H13 H 0.2749 0.8438 -0.1910
H14 H 0.3251 0.9385 -0.1167
Cu1A Cu 0.03874(3) 0.14131(5) 0.41537(3)
N5A N -0.0056(2) 0.7895(3) 0.20376(19)
O3 O 0.3387(2) 0.9651(4) 0.2522(3)
S1 S 0.43209(11) 0.89147(15) 0.25290(10)
C19 C 0.4565(5) 0.8994(8) 0.1503(4)
H15 H 0.4062 0.8525 0.1119
H16 H 0.5181 0.8570 0.1492
H17 H 0.4586 0.9932 0.1332
C20 C 0.5274(4) 0.9991(7) 0.3018(5)
H18 H 0.5182 1.0888 0.2774
H19 H 0.5885 0.9629 0.2930
H20 H 0.5274 1.0043 0.3616
O4 O 0.3288(3) 0.2498(5) 0.2646(3)
H21 H 0.310(5) 0.160(2) 0.253(4)
H22 H 0.290(4) 0.307(5) 0.226(3)
loop_
_geom_bond_atom_site_label_1
_geom_bond_atom_site_label_2
_geom_bond_site_symmetry_1
_geom_bond_site_symmetry_2
Cu1 N1 1_555 1_555
N1 C1 1_555 1_555
N2 Cu1 1_555 1_555
N3 Cu1 1_555 1_555
N4 Cu1 1_555 1_555
N5 C2 1_555 1_555
N6 C14 1_555 1_555
O1 C5 1_555 1_555
O2 C12 1_555 1_555
C1 H1 1_555 1_555
C2 C1 1_555 1_555
H2 C2 1_555 1_555
C3 N5 1_555 1_555
H3 C3 1_555 1_555
C4 N1 1_555 1_555
C5 N2 1_555 1_555
C6 N2 1_555 1_555
C7 C6 1_555 1_555
H4 C7 1_555 1_555
C8 C7 1_555 1_555
C9 C8 1_555 1_555
C10 C9 1_555 1_555
H5 C10 1_555 1_555
C11 N3 1_555 1_555
C12 N3 1_555 1_555
C13 N4 1_555 1_555
C14 C13 1_555 1_555
H6 C14 1_555 1_555
C15 N6 1_555 1_555
H7 C15 1_555 1_555
C16 N4 1_555 1_555
H8 C16 1_555 1_555
C17 C8 1_555 1_555
H9 C17 1_555 1_555
H10 C17 1_555 1_555
H11 C17 1_555 1_555
C18 C9 1_555 1_555
H12 C18 1_555 1_555
H13 C18 1_555 1_555
H14 C18 1_555 1_555
O3 S1 1_555 1_555
S1 C19 1_555 1_555
C19 H15 1_555 1_555
H16 C19 1_555 1_555
H17 C19 1_555 1_555
C20 S1 1_555 1_555
H18 C20 1_555 1_555
H19 C20 1_555 1_555
H20 C20 1_555 1_555
O4 H21 1_555 1_555
H22 O4 1_555 1_555
Cu1A N5 1_555 1_555
N5A Cu1 1_555 1_555
C3 C4 1_555 1_555
C4 C5 1_555 1_555
C6 C11 1_555 1_555
C10 C11 1_555 1_555
C12 C13 1_555 1_555
C15 C16 1_555 1_555

#END
