
#######################################################################
#
#                 Cambridge Crystallographic Data Centre
#                                CCDC 
#
#######################################################################
#
# If this CIF has been generated from an entry in the Cambridge 
# Structural Database, then it will include bibliographic, chemical, 
# crystal, experimental, refinement or atomic coordinate data resulting 
# from the CCDC's data processing and validation procedures.
#
#######################################################################

data_GAFXIV
_symmetry_cell_setting           monoclinic
_symmetry_space_group_name_H-M   'C 2/c'
_symmetry_Int_Tables_number      15
_space_group_name_Hall           '-C 2yn'
loop_
_symmetry_equiv_pos_site_id
_symmetry_equiv_pos_as_xyz
1 x,y,z
2 1/2+x,1/2+y,z
3 x,-y,1/2+z
4 1/2+x,1/2-y,1/2+z
5 -x,-y,-z
6 1/2-x,1/2-y,-z
7 -x,y,1/2-z
8 1/2-x,1/2+y,1/2-z
_cell_length_a                   19.9369(19)
_cell_length_b                   7.6855(7)
_cell_length_c                   13.8113(13)
_cell_angle_alpha                90
_cell_angle_beta                 121.6520(10)
_cell_angle_gamma                90
_cell_volume                     1801.45
loop_
_atom_site_label
_atom_site_type_symbol
_atom_site_fract_x
_atom_site_fract_y
_atom_site_fract_z
H1 H 0.323(4) 0.500(3) 0.145(5)
H2 H 0.331(3) 0.356(7) 0.099(5)
Y1 Y 0.26875(3) 0.21716(6) 0.22988(4)
O1 O 0.1962(2) 0.2450(4) 0.3225(3)
O2 O 0.1799(2) 0.5265(4) 0.3403(3)
O3 O 0.18750(18) 0.5167(4) 0.6371(3)
O4 O 0.1711(2) 0.7362(4) 0.5280(3)
O5 O 0.17733(18) -0.0183(4) 0.1604(3)
O6 O 0.09392(19) -0.2301(4) 0.1202(3)
O7 O 0.3328(2) 0.3872(5) 0.1528(4)
C1 C 0.1701(3) 0.3702(7) 0.3522(4)
C2 C 0.1230(3) 0.3254(6) 0.4067(4)
H3 H 0.1563 0.2589 0.4753
H4 H 0.0792 0.2516 0.3549
C3 C 0.0907(3) 0.4833(6) 0.4372(4)
H5 H 0.0646 0.5600 0.3719
H6 H 0.0515 0.4437 0.4537
C4 C 0.1528(3) 0.5845(7) 0.5374(4)
C5 C 0.1058(3) -0.0760(7) 0.1068(4)
C6 C 0.0400(3) 0.0428(6) 0.0307(5)
H7 H 0.0503 0.0908 -0.0253
H8 H 0.0391 0.1387 0.0756
C6D C -0.0400(3) -0.0428(6) -0.0307(5)
C5D C -0.1058(3) 0.0760(7) -0.1068(4)
O5D O -0.17733(18) 0.0183(4) -0.1604(3)
O6D O -0.09392(19) 0.2301(4) -0.1202(3)
H7D H -0.0503 -0.0908 0.0253
H8D H -0.0391 -0.1387 -0.0756
O1G O 0.3038(2) -0.2550(4) 0.1775(3)
O2G O 0.3201(2) 0.0265(4) 0.1597(3)
O3G O 0.31250(18) 0.0167(4) -0.1371(3)
O4G O 0.3289(2) 0.2362(4) -0.0280(3)
C1G C 0.3299(3) -0.1298(7) 0.1478(4)
C2G C 0.3770(3) -0.1746(6) 0.0933(4)
H3G H 0.3437 -0.2411 0.0247
H4G H 0.4208 -0.2484 0.1451
C3G C 0.4093(3) -0.0167(6) 0.0628(4)
H5G H 0.4354 0.0600 0.1281
H6G H 0.4485 -0.0563 0.0463
C4G C 0.3472(3) 0.0845(7) -0.0374(4)
Y1G Y 0.23125(3) -0.28284(6) 0.27012(4)
H1G H 0.177(4) 0.000(3) 0.355(5)
H2G H 0.169(3) -0.144(7) 0.401(5)
O7G O 0.1672(2) -0.1128(5) 0.3472(4)
O3B O 0.18750(18) 0.4833(4) 0.1371(3)
O3E O 0.31250(18) -0.0167(4) 0.3629(3)
O4B O 0.1711(2) 0.2638(4) 0.0280(3)
O5G O 0.32267(18) 0.4817(4) 0.3396(3)
O6G O 0.40608(19) 0.2699(4) 0.3798(3)
Y1G_2 Y 0.23125(3) 0.71716(6) 0.27012(4)
Y1B Y 0.26875(3) 0.78284(6) 0.72988(4)
Y1E Y 0.23125(3) 0.28284(6) 0.77012(4)
Y1C Y -0.23125(3) 0.28284(6) -0.27012(4)
Y1D Y -0.26875(3) -0.21716(6) -0.22988(4)
Y1B_2 Y 0.26875(3) -0.21716(6) -0.27012(4)
Y1E_2 Y 0.23125(3) 0.28284(6) -0.22988(4)
O2_2 O 0.1799(2) -0.4735(4) 0.3403(3)
O3B_2 O 0.18750(18) -0.5167(4) 0.1371(3)
O4E O 0.3289(2) -0.2362(4) 0.4720(3)
O5G_2 O 0.32267(18) -0.5183(4) 0.3396(3)
O8 O 0.5000 0.4679(15) 0.2500
loop_
_geom_bond_atom_site_label_1
_geom_bond_atom_site_label_2
_geom_bond_site_symmetry_1
_geom_bond_site_symmetry_2
H1 O7 1_555 1_555
H2 O7 1_555 1_555
Y1 O1 1_555 1_555
O1 C1 1_555 1_555
O2 C1 1_555 1_555
O3 C4 1_555 1_555
O4 C4 1_555 1_555
O5 Y1 1_555 1_555
O6 C5 1_555 1_555
O7 Y1 1_555 1_555
C1 C2 1_555 1_555
C2 H3 1_555 1_555
H4 C2 1_555 1_555
C3 C2 1_555 1_555
H5 C3 1_555 1_555
H6 C3 1_555 1_555
C4 C3 1_555 1_555
C5 O5 1_555 1_555
C6 C5 1_555 1_555
H7 C6 1_555 1_555
H8 C6 1_555 1_555
C6D C6 1_555 1_555
C5D C6D 1_555 1_555
O5D C5D 1_555 1_555
O6D C5D 1_555 1_555
H7D C6D 1_555 1_555
H8D C6D 1_555 1_555
O1G C1G 1_555 1_555
O2G Y1 1_555 1_555
O3G C4G 1_555 1_555
O4G C4G 1_555 1_555
C1G O2G 1_555 1_555
C2G C1G 1_555 1_555
H3G C2G 1_555 1_555
H4G C2G 1_555 1_555
C3G C2G 1_555 1_555
H5G C3G 1_555 1_555
H6G C3G 1_555 1_555
C4G C3G 1_555 1_555
Y1G O5 1_555 1_555
H1G O7G 1_555 1_555
H2G O7G 1_555 1_555
O7G Y1G 1_555 1_555
O3B Y1 1_555 1_555
O3E Y1 1_555 1_555
O4B Y1 1_555 1_555
O5G Y1 1_555 1_555
O6G Y1 1_555 1_555
Y1G_2 O2 1_555 1_555
Y1B O3 1_555 1_555
Y1E O3 1_555 1_555
Y1C O5D 1_555 1_555
Y1D O5D 1_555 1_555
Y1B_2 O3G 1_555 1_555
Y1E_2 O3G 1_555 1_555
O2_2 Y1G 1_555 1_555
O3B_2 Y1G 1_555 1_555
O4E Y1G 1_555 1_555
O5G_2 Y1G 1_555 1_555
O4 Y1B 1_555 1_555
O6 Y1G 1_555 1_555
O6D Y1C 1_555 1_555
O1G Y1G 1_555 1_555
O4G Y1E_2 1_555 1_555
Y1G O3E 1_555 1_555
O3B Y1G_2 1_555 1_555
O5G Y1G_2 1_555 1_555

#END
