
#######################################################################
#
#                 Cambridge Crystallographic Data Centre
#                                CCDC 
#
#######################################################################
#
# If this CIF has been generated from an entry in the Cambridge 
# Structural Database, then it will include bibliographic, chemical, 
# crystal, experimental, refinement or atomic coordinate data resulting 
# from the CCDC's data processing and validation procedures.
#
#######################################################################

data_GAGHIH
_symmetry_cell_setting           monoclinic
_symmetry_space_group_name_H-M   'P 21/c'
_symmetry_Int_Tables_number      14
_space_group_name_Hall           '-P 2ybc'
loop_
_symmetry_equiv_pos_site_id
_symmetry_equiv_pos_as_xyz
1 x,y,z
2 -x,1/2+y,1/2-z
3 -x,-y,-z
4 x,1/2-y,1/2+z
_cell_length_a                   7.354(1)
_cell_length_b                   31.098(5)
_cell_length_c                   7.882(1)
_cell_angle_alpha                90
_cell_angle_beta                 106.08(1)
_cell_angle_gamma                90
_cell_volume                     1732.05
loop_
_atom_site_label
_atom_site_type_symbol
_atom_site_fract_x
_atom_site_fract_y
_atom_site_fract_z
Zn1 Zn 0.39252(6) 1.174554(15) 0.64200(7)
C1 C 0.3906(5) 1.26132(13) 0.4703(6)
C2 C 0.1965(6) 1.24933(13) 0.4474(6)
C3 C 0.0537(6) 1.27634(14) 0.3854(6)
H1 H 0.0715 1.3051 0.3617
C4 C -0.1138(6) 1.25914(16) 0.3604(7)
H2 H -0.2211 1.2760 0.3171
C5 C -0.1333(6) 1.21612(15) 0.3978(7)
H3 H -0.2537 1.2041 0.3718
C6 C 0.0163(5) 1.19165(13) 0.4701(6)
C7 C 0.0220(6) 1.14573(13) 0.5376(6)
C8 C 0.6898(6) 1.13259(14) 0.9545(6)
H4 H 0.6717 1.1558 1.0224
C9 C 0.8061(7) 1.09993(16) 1.0342(7)
H5 H 0.8690 1.1005 1.1541
C10 C 0.8258(6) 1.06552(15) 0.9262(6)
H6 H 0.9018 1.0424 0.9768
C11 C 0.7311(5) 1.06458(13) 0.7362(6)
C12 C 0.7459(5) 1.02926(13) 0.6101(6)
C13 C 0.8632(6) 0.96544(15) 0.5617(7)
H7 H 0.9370 0.9414 0.6039
C14 C 0.7689(7) 0.96637(15) 0.3736(7)
H8 H 0.7855 0.9434 0.3040
C15 C 0.6489(5) 1.03006(13) 0.4193(6)
C16 C 0.5324(5) 1.06612(13) 0.3459(6)
C17 C 0.4304(6) 1.06858(15) 0.1560(6)
H9 H 0.4389 1.0465 0.0788
C18 C 0.3252(7) 1.10368(16) 0.0986(6)
H10 H 0.2576 1.1070 -0.0192
C19 C 0.3223(6) 1.13568(16) 0.2277(6)
H11 H 0.2505 1.1601 0.1875
C20 C 0.5186(5) 1.09925(13) 0.4662(6)
C21 C 0.6178(5) 1.09890(12) 0.6637(6)
N1 N 0.1771(4) 1.20895(10) 0.4935(5)
N2 N 0.5965(4) 1.13219(11) 0.7729(5)
N3 N 0.4158(5) 1.13420(11) 0.4081(5)
N4 N 0.8549(5) 0.99634(12) 0.6835(5)
N5 N 0.6617(5) 0.99830(12) 0.2990(6)
O1 O 0.4195(4) 1.29692(9) 0.4100(4)
O2 O 0.5000(4) 1.23371(10) 0.5496(5)
O3 O -0.1127(4) 1.12375(11) 0.4828(5)
O4 O 0.1687(4) 1.13358(9) 0.6482(4)
Zn1C Zn 0.39252(6) 1.325446(15) 0.14200(7)
O1C O 0.4195(4) 1.20308(9) 0.9100(4)
loop_
_geom_bond_atom_site_label_1
_geom_bond_atom_site_label_2
_geom_bond_site_symmetry_1
_geom_bond_site_symmetry_2
Zn1 N1 1_555 1_555
C1 C2 1_555 1_555
C2 C3 1_555 1_555
C3 H1 1_555 1_555
C4 C3 1_555 1_555
H2 C4 1_555 1_555
C5 C4 1_555 1_555
H3 C5 1_555 1_555
C6 C5 1_555 1_555
C7 C6 1_555 1_555
C8 H4 1_555 1_555
C9 C8 1_555 1_555
H5 C9 1_555 1_555
C10 C9 1_555 1_555
H6 C10 1_555 1_555
C11 C10 1_555 1_555
C12 C11 1_555 1_555
C13 H7 1_555 1_555
C14 C13 1_555 1_555
H8 C14 1_555 1_555
C15 C12 1_555 1_555
C16 C15 1_555 1_555
C17 C16 1_555 1_555
H9 C17 1_555 1_555
C18 C17 1_555 1_555
H10 C18 1_555 1_555
C19 C18 1_555 1_555
H11 C19 1_555 1_555
C20 C16 1_555 1_555
C21 C11 1_555 1_555
N1 C2 1_555 1_555
N2 Zn1 1_555 1_555
N3 Zn1 1_555 1_555
N4 C12 1_555 1_555
N5 C14 1_555 1_555
O1 C1 1_555 1_555
O2 Zn1 1_555 1_555
O3 C7 1_555 1_555
O4 Zn1 1_555 1_555
Zn1C O1 1_555 1_555
O1C Zn1 1_555 1_555
C1 O2 1_555 1_555
C6 N1 1_555 1_555
C7 O4 1_555 1_555
C8 N2 1_555 1_555
C13 N4 1_555 1_555
C15 N5 1_555 1_555
C19 N3 1_555 1_555
C20 C21 1_555 1_555
C20 N3 1_555 1_555
C21 N2 1_555 1_555

#END
