
#######################################################################
#
#                 Cambridge Crystallographic Data Centre
#                                CCDC 
#
#######################################################################
#
# If this CIF has been generated from an entry in the Cambridge 
# Structural Database, then it will include bibliographic, chemical, 
# crystal, experimental, refinement or atomic coordinate data resulting 
# from the CCDC's data processing and validation procedures.
#
#######################################################################

data_GAGMIL
_symmetry_cell_setting           monoclinic
_symmetry_space_group_name_H-M   'P 21/c'
_symmetry_Int_Tables_number      14
_space_group_name_Hall           '-P 2ybc'
loop_
_symmetry_equiv_pos_site_id
_symmetry_equiv_pos_as_xyz
1 x,y,z
2 x,1/2-y,1/2+z
3 -x,-y,-z
4 -x,1/2+y,1/2-z
_cell_length_a                   15.788(3)
_cell_length_b                   8.0286(15)
_cell_length_c                   19.247(4)
_cell_angle_alpha                90.00
_cell_angle_beta                 95.835(4)
_cell_angle_gamma                90.00
_cell_volume                     2427.02
loop_
_atom_site_label
_atom_site_type_symbol
_atom_site_fract_x
_atom_site_fract_y
_atom_site_fract_z
Cu1 Cu 0.70289(5) 0.34282(10) 0.77555(4)
Cl1 Cl 0.80068(11) 0.4372(2) 0.86913(9)
Cl2 Cl 0.55582(10) 0.3476(2) 0.76401(8)
N1 N 0.6660(3) -0.1251(6) 0.8513(2)
N2 N 0.7019(3) 0.1165(6) 0.8184(3)
N3 N 0.7456(3) -0.1059(7) 0.8812(3)
N4 N 0.7049(3) -0.0624(7) 1.2259(3)
N5 N 0.7550(4) -0.3042(8) 1.1893(3)
N6 N 0.6733(4) -0.2782(6) 1.1624(2)
N7 N 0.8973(4) 0.1288(9) 0.6681(4)
O1 O 0.7018(3) -0.4005(6) 0.9972(2)
H1 H 0.7271 -0.4042 0.9603
O2 O 0.7775(3) 0.2493(6) 0.6984(2)
C1 C 0.6213(4) -0.3376(8) 0.9929(3)
C2 C 0.5781(4) -0.2795(7) 0.9311(3)
C3 C 0.4966(4) -0.2228(7) 0.9321(3)
H2 H 0.4681 -0.1841 0.8906
C4 C 0.4543(4) -0.2198(8) 0.9914(4)
C5 C 0.3657(4) -0.1589(10) 0.9899(4)
H3 H 0.3331 -0.2354 1.0148
H4 H 0.3410 -0.1506 0.9424
H5 H 0.3656 -0.0513 1.0116
C6 C 0.6180(4) -0.2802(7) 0.8630(3)
H6 H 0.6564 -0.3745 0.8626
H7 H 0.5736 -0.2945 0.8248
C7 C 0.6404(4) 0.0077(8) 0.8149(3)
H8 H 0.5869 0.0217 0.7906
C8 C 0.7655(4) 0.0415(9) 0.8602(4)
H9 H 0.8182 0.0910 0.8726
C9 C 0.7705(4) -0.1685(10) 1.2263(4)
H10 H 0.8232 -0.1474 1.2511
C10 C 0.6443(4) -0.1371(8) 1.1860(3)
H11 H 0.5892 -0.0968 1.1759
C11 C 0.6250(4) -0.4099(8) 1.1203(3)
H12 H 0.6640 -0.4975 1.1096
H13 H 0.5831 -0.4585 1.1478
C12 C 0.5806(4) -0.3414(8) 1.0530(3)
C13 C 0.4985(4) -0.2805(8) 1.0509(3)
H14 H 0.4719 -0.2808 1.0919
C14 C 0.8504(5) 0.1967(11) 0.7106(4)
H15 H 0.8746 0.2076 0.7564
C15 C 0.9809(7) 0.070(2) 0.6861(6)
H16 H 1.0141 0.1545 0.7113
H17 H 1.0064 0.0417 0.6444
H18 H 0.9791 -0.0277 0.7150
C16 C 0.8642(6) 0.1027(12) 0.5968(4)
H19 H 0.8073 0.1460 0.5894
H20 H 0.8635 -0.0144 0.5866
H21 H 0.8996 0.1591 0.5666
N4A N 0.7049(3) 0.5624(7) 0.7259(3)
Cu1A Cu 0.70289(5) 0.15718(10) 1.27555(4)
N8 N 0.9314(5) 0.6593(11) 0.5437(5)
O3 O 1.0179(5) 0.5879(13) 0.6370(5)
C17 C 0.9960(10) 0.657(2) 0.5881(9)
H22 H 1.0365 0.7345 0.5770
C18 C 0.8596(9) 0.5571(15) 0.5557(6)
H23 H 0.8697 0.5048 0.6006
H24 H 0.8518 0.4731 0.5201
H25 H 0.8094 0.6250 0.5543
C19 C 0.9249(7) 0.7485(16) 0.4827(6)
H26 H 0.9728 0.8221 0.4826
H27 H 0.8733 0.8126 0.4789
H28 H 0.9240 0.6734 0.4438
loop_
_geom_bond_atom_site_label_1
_geom_bond_atom_site_label_2
_geom_bond_site_symmetry_1
_geom_bond_site_symmetry_2
Cu1 Cl1 1_555 1_555
Cl2 Cu1 1_555 1_555
N1 N3 1_555 1_555
N2 Cu1 1_555 1_555
N3 C8 1_555 1_555
N4 C9 1_555 1_555
N5 N6 1_555 1_555
N6 C10 1_555 1_555
N7 C14 1_555 1_555
N8 C17 1_555 1_555
O1 H1 1_555 1_555
O2 Cu1 1_555 1_555
O3 C17 1_555 1_555
C1 O1 1_555 1_555
C2 C1 1_555 1_555
C3 C2 1_555 1_555
H2 C3 1_555 1_555
C4 C3 1_555 1_555
C5 C4 1_555 1_555
H3 C5 1_555 1_555
H4 C5 1_555 1_555
H5 C5 1_555 1_555
C6 N1 1_555 1_555
H6 C6 1_555 1_555
H7 C6 1_555 1_555
C7 N1 1_555 1_555
H8 C7 1_555 1_555
C8 N2 1_555 1_555
H9 C8 1_555 1_555
C9 N5 1_555 1_555
H10 C9 1_555 1_555
C10 N4 1_555 1_555
H11 C10 1_555 1_555
C11 N6 1_555 1_555
H12 C11 1_555 1_555
H13 C11 1_555 1_555
C12 C1 1_555 1_555
C13 C4 1_555 1_555
H14 C13 1_555 1_555
C14 O2 1_555 1_555
H15 C14 1_555 1_555
C15 N7 1_555 1_555
H16 C15 1_555 1_555
H17 C15 1_555 1_555
H18 C15 1_555 1_555
C16 N7 1_555 1_555
H19 C16 1_555 1_555
H20 C16 1_555 1_555
H21 C16 1_555 1_555
C17 H22 1_555 1_555
C18 N8 1_555 1_555
H23 C18 1_555 1_555
H24 C18 1_555 1_555
H25 C18 1_555 1_555
C19 N8 1_555 1_555
H26 C19 1_555 1_555
H27 C19 1_555 1_555
H28 C19 1_555 1_555
N4A Cu1 1_555 1_555
Cu1A N4 1_555 1_555
N2 C7 1_555 1_555
C2 C6 1_555 1_555
C11 C12 1_555 1_555
C12 C13 1_555 1_555

#END
