
#######################################################################
#
#                 Cambridge Crystallographic Data Centre
#                                CCDC 
#
#######################################################################
#
# If this CIF has been generated from an entry in the Cambridge 
# Structural Database, then it will include bibliographic, chemical, 
# crystal, experimental, refinement or atomic coordinate data resulting 
# from the CCDC's data processing and validation procedures.
#
#######################################################################

data_GAGVAN
_symmetry_cell_setting           monoclinic
_symmetry_space_group_name_H-M   'P 21'
_symmetry_Int_Tables_number      4
_space_group_name_Hall           'P 2yb'
loop_
_symmetry_equiv_pos_site_id
_symmetry_equiv_pos_as_xyz
1 x,y,z
2 -x,1/2+y,-z
_cell_length_a                   7.6053(4)
_cell_length_b                   9.7784(3)
_cell_length_c                   8.1617(4)
_cell_angle_alpha                90
_cell_angle_beta                 106.359(2)
_cell_angle_gamma                90
_cell_volume                     582.394
loop_
_atom_site_label
_atom_site_type_symbol
_atom_site_fract_x
_atom_site_fract_y
_atom_site_fract_z
C1 C 0.4721(7) 0.3319(6) 0.6789(6)
H1 H 0.3488 0.2966 0.6604
H2 H 0.5454 0.2642 0.6410
C2 C 0.4701(9) 0.4669(8) 0.5858(7)
H3 H 0.4651 0.4518 0.4671
H4 H 0.3664 0.5227 0.5911
C3 C 0.6498(9) 0.5337(6) 0.6823(7)
H5 H 0.6432 0.6324 0.6695
H6 H 0.7506 0.4997 0.6429
C4 C 0.6718(5) 0.4919(4) 0.8675(5)
H7 H 0.8004 0.4690 0.9223
C5 C 0.6125(5) 0.6045(3) 0.9681(5)
N1 N 0.5560(5) 0.3675(3) 0.8634(5)
H8 H 0.6302 0.2974 0.9142
O1 O 0.4717(4) 0.5873(3) 1.0183(4)
O2 O 0.7076(4) 0.7134(3) 0.9912(5)
O7 O 0.2382(5) 0.4450(4) 1.1582(5)
H9 H 0.2459 0.5319 1.2062
H10 H 0.1652 0.3786 1.1879
O8 O 0.1170(5) 0.4710(5) 0.7825(6)
Cu1 Cu 0.37630(6) 0.40188(4) 0.99398(5)
O2A O 0.2924(4) 0.2134(3) 1.0088(5)
Cu1A Cu 0.62370(6) 0.90188(4) 1.00602(5)
O3 O 0.9354(8) 0.2738(6) 1.2025(7)
O4 O 0.9124(17) 0.2512(16) 1.4781(10)
O5 O 0.6721(10) 0.3296(14) 1.2744(11)
O6 O 0.9236(19) 0.4651(10) 1.3654(18)
Cl1 Cl 0.86441(17) 0.33261(12) 1.33279(14)
O9 O 0.9002(6) 0.1925(4) 0.8226(6)
loop_
_geom_bond_atom_site_label_1
_geom_bond_atom_site_label_2
_geom_bond_site_symmetry_1
_geom_bond_site_symmetry_2
C1 H1 1_555 1_555
H2 C1 1_555 1_555
C2 C1 1_555 1_555
H3 C2 1_555 1_555
H4 C2 1_555 1_555
C3 C2 1_555 1_555
H5 C3 1_555 1_555
H6 C3 1_555 1_555
C4 C3 1_555 1_555
H7 C4 1_555 1_555
C5 C4 1_555 1_555
N1 C1 1_555 1_555
H8 N1 1_555 1_555
O1 C5 1_555 1_555
O2 C5 1_555 1_555
O3 Cl1 1_555 1_555
O4 Cl1 1_555 1_555
O5 Cl1 1_555 1_555
O6 Cl1 1_555 1_555
O7 H9 1_555 1_555
H10 O7 1_555 1_555
O8 Cu1 1_555 1_555
Cu1 N1 1_555 1_555
O2A Cu1 1_555 1_555
Cu1A O2 1_555 1_555
C4 N1 1_555 1_555
O1 Cu1 1_555 1_555
O7 Cu1 1_555 1_555

#END
