
#######################################################################
#
#                 Cambridge Crystallographic Data Centre
#                                CCDC 
#
#######################################################################
#
# If this CIF has been generated from an entry in the Cambridge 
# Structural Database, then it will include bibliographic, chemical, 
# crystal, experimental, refinement or atomic coordinate data resulting 
# from the CCDC's data processing and validation procedures.
#
#######################################################################

data_GAGWUH01
_symmetry_cell_setting           trigonal
_symmetry_space_group_name_H-M   'P 31 2 1'
_symmetry_Int_Tables_number      152
_space_group_name_Hall           'P 31 2"'
loop_
_symmetry_equiv_pos_site_id
_symmetry_equiv_pos_as_xyz
1 x,y,z
2 -y,x-y,1/3+z
3 -x+y,-x,2/3+z
4 y,x,-z
5 x-y,-y,2/3-z
6 -x,-x+y,1/3-z
_cell_length_a                   11.8912(17)
_cell_length_b                   11.8912(17)
_cell_length_c                   8.2240(16)
_cell_angle_alpha                90
_cell_angle_beta                 90
_cell_angle_gamma                120
_cell_volume                     1007.08
loop_
_atom_site_label
_atom_site_type_symbol
_atom_site_fract_x
_atom_site_fract_y
_atom_site_fract_z
O1 O 0.8729(4) 0.7686(4) 0.3415(5)
C1 C 0.5942(6) 0.4422(7) 0.3746(7)
H1 H 0.6089 0.4158 0.4749
C2 C 0.6561(6) 0.5978(6) 0.1644(6)
H2 H 0.7133 0.6788 0.1205
C3 C 0.6821(6) 0.5628(6) 0.3141(6)
C4 C 0.8050(6) 0.6578(6) 0.4036(7)
Ni1 Ni 0.29362(8) 0.29362(8) 0.0000
N1 N 0.4595(4) 0.3947(5) 0.1404(5)
C5 C 0.5448(6) 0.5123(5) 0.0796(6)
C6 C 0.4834(7) 0.3600(6) 0.2859(7)
H3 H 0.4245 0.2791 0.3285
O2 O 0.8297(4) 0.6167(5) 0.5315(4)
O3 O 0.2170(6) 0.1323(4) 0.1510(5)
H4 H 0.1740 0.0665 0.0968
H5 H 0.164(9) 0.149(8) 0.187(9)
O1C O 0.7686(4) 0.8729(4) -0.3415(5)
C1C C 0.4422(7) 0.5942(6) -0.3746(7)
H1C H 0.4158 0.6089 -0.4749
C2C C 0.5978(6) 0.6561(6) -0.1644(6)
H2C H 0.6788 0.7133 -0.1205
C3C C 0.5628(6) 0.6821(6) -0.3141(6)
C4C C 0.6578(6) 0.8050(6) -0.4036(7)
Ni1A Ni 0.70638(8) 1.00000(11) -0.6667
Ni1B Ni 1.00000(11) 0.70638(8) 0.6667
N1C N 0.3947(5) 0.4595(4) -0.1404(5)
C5C C 0.5123(5) 0.5448(6) -0.0796(6)
C6C C 0.3600(6) 0.4834(7) -0.2859(7)
H3C H 0.2791 0.4245 -0.3285
O2C O 0.6167(5) 0.8297(4) -0.5315(4)
O2A O 0.3833(5) 0.2130(6) -0.1352(4)
O2D O 0.2130(6) 0.3833(5) 0.1352(4)
O3C O 0.1323(4) 0.2170(6) -0.1510(5)
H4C H 0.0665 0.1740 -0.0968
H5C H 0.149(8) 0.164(9) -0.187(9)
loop_
_geom_bond_atom_site_label_1
_geom_bond_atom_site_label_2
_geom_bond_site_symmetry_1
_geom_bond_site_symmetry_2
O1 C4 1_555 1_555
C1 H1 1_555 1_555
C2 H2 1_555 1_555
C3 C1 1_555 1_555
C4 C3 1_555 1_555
Ni1 N1 1_555 1_555
N1 C5 1_555 1_555
C5 C2 1_555 1_555
C6 C1 1_555 1_555
H3 C6 1_555 1_555
O2 C4 1_555 1_555
O3 Ni1 1_555 1_555
H4 O3 1_555 1_555
H5 O3 1_555 1_555
O1C C4C 1_555 1_555
C1C H1C 1_555 1_555
C2C H2C 1_555 1_555
C3C C1C 1_555 1_555
C4C C3C 1_555 1_555
Ni1A O2C 1_555 1_555
Ni1B O2 1_555 1_555
N1C Ni1 1_555 1_555
C5C C5 1_555 1_555
C6C C1C 1_555 1_555
H3C C6C 1_555 1_555
O2C C4C 1_555 1_555
O2A Ni1 1_555 1_555
O2D Ni1 1_555 1_555
O3C Ni1 1_555 1_555
H4C O3C 1_555 1_555
H5C O3C 1_555 1_555
C2 C3 1_555 1_555
N1 C6 1_555 1_555
C2C C3C 1_555 1_555
C2C C5C 1_555 1_555
N1C C5C 1_555 1_555
N1C C6C 1_555 1_555

#END
