
#######################################################################
#
#                 Cambridge Crystallographic Data Centre
#                                CCDC 
#
#######################################################################
#
# If this CIF has been generated from an entry in the Cambridge 
# Structural Database, then it will include bibliographic, chemical, 
# crystal, experimental, refinement or atomic coordinate data resulting 
# from the CCDC's data processing and validation procedures.
#
#######################################################################

data_GAGWUH
_symmetry_cell_setting           trigonal
_symmetry_space_group_name_H-M   'P 32 2 1'
_symmetry_Int_Tables_number      154
_space_group_name_Hall           'P 32 2"'
loop_
_symmetry_equiv_pos_site_id
_symmetry_equiv_pos_as_xyz
1 x,y,z
2 -y,x-y,2/3+z
3 -x+y,-x,1/3+z
4 y,x,-z
5 x-y,-y,1/3-z
6 -x,-x+y,2/3-z
_cell_length_a                   11.8210(3)
_cell_length_b                   11.8210(3)
_cell_length_c                   8.2308(5)
_cell_angle_alpha                90
_cell_angle_beta                 90
_cell_angle_gamma                120
_cell_volume                     996.05
loop_
_atom_site_label
_atom_site_type_symbol
_atom_site_fract_x
_atom_site_fract_y
_atom_site_fract_z
Ni1 Ni 0.70740(4) 0.70740(4) 0.5000
N1 N 0.5412(2) 0.6061(2) 0.3595(3)
C1 C 0.5167(3) 0.6399(3) 0.2136(3)
H1 H 0.5776 0.7229 0.1701
C2 C 0.4064(3) 0.5589(3) 0.1240(3)
H2 H 0.3913 0.5866 0.0220
C3 C 0.3181(3) 0.4365(3) 0.1853(3)
C4 C 0.3434(3) 0.4013(3) 0.3356(3)
H3 H 0.2845 0.3184 0.3811
C5 C 0.4560(3) 0.4884(2) 0.4193(3)
C6 C 0.1948(3) 0.3412(3) 0.0953(3)
O1 O 0.1270(2) 0.2299(2) 0.1576(3)
O2 O 0.1710(2) 0.3819(2) -0.0331(2)
O3 O 0.7838(2) 0.86820(18) 0.3502(2)
H4 H 0.816(4) 0.9429(14) 0.392(4)
H5 H 0.844(2) 0.864(3) 0.301(4)
C5C C 0.4884(2) 0.4560(3) 0.5807(3)
N1C N 0.6061(2) 0.5412(2) 0.6405(3)
C1C C 0.6399(3) 0.5167(3) 0.7864(3)
H1C H 0.7229 0.5776 0.8299
C2C C 0.5589(3) 0.4064(3) 0.8760(3)
H2C H 0.5866 0.3913 0.9780
C3C C 0.4365(3) 0.3181(3) 0.8147(3)
C4C C 0.4013(3) 0.3434(3) 0.6644(3)
H3C H 0.3184 0.2845 0.6189
C6C C 0.3412(3) 0.1948(3) 0.9047(3)
O1C O 0.2299(2) 0.1270(2) 0.8424(3)
O2C O 0.3819(2) 0.1710(2) 1.0331(2)
O3C O 0.86820(18) 0.7838(2) 0.6498(2)
H4C H 0.9429(14) 0.816(4) 0.608(4)
H5C H 0.864(3) 0.844(2) 0.699(4)
O2A O 0.6181(2) 0.7891(3) 0.6336(2)
O2D O 0.7891(3) 0.6181(2) 0.3664(2)
Ni1B Ni 0.00000(6) 0.29260(4) -0.1667
Ni1A Ni 0.29260(4) 0.00000(6) 1.1667
loop_
_geom_bond_atom_site_label_1
_geom_bond_atom_site_label_2
_geom_bond_site_symmetry_1
_geom_bond_site_symmetry_2
Ni1 N1 1_555 1_555
N1 C1 1_555 1_555
C1 H1 1_555 1_555
C2 C1 1_555 1_555
H2 C2 1_555 1_555
C3 C2 1_555 1_555
C4 C3 1_555 1_555
H3 C4 1_555 1_555
C5 N1 1_555 1_555
C6 C3 1_555 1_555
O1 C6 1_555 1_555
O2 C6 1_555 1_555
O3 Ni1 1_555 1_555
H4 O3 1_555 1_555
H5 O3 1_555 1_555
C5C C5 1_555 1_555
N1C Ni1 1_555 1_555
C1C N1C 1_555 1_555
H1C C1C 1_555 1_555
C2C C1C 1_555 1_555
H2C C2C 1_555 1_555
C3C C2C 1_555 1_555
C4C C5C 1_555 1_555
H3C C4C 1_555 1_555
C6C C3C 1_555 1_555
O1C C6C 1_555 1_555
O2C C6C 1_555 1_555
O3C Ni1 1_555 1_555
H4C O3C 1_555 1_555
H5C O3C 1_555 1_555
O2A Ni1 1_555 1_555
O2D Ni1 1_555 1_555
Ni1B O2 1_555 1_555
Ni1A O2C 1_555 1_555
C4 C5 1_555 1_555
C5C N1C 1_555 1_555
C3C C4C 1_555 1_555

#END
