
#######################################################################
#
#                 Cambridge Crystallographic Data Centre
#                                CCDC 
#
#######################################################################
#
# If this CIF has been generated from an entry in the Cambridge 
# Structural Database, then it will include bibliographic, chemical, 
# crystal, experimental, refinement or atomic coordinate data resulting 
# from the CCDC's data processing and validation procedures.
#
#######################################################################

data_GAGWUH02
_symmetry_cell_setting           trigonal
_symmetry_space_group_name_H-M   'P 31 2 1'
_symmetry_Int_Tables_number      152
_space_group_name_Hall           'P 31 2"'
loop_
_symmetry_equiv_pos_site_id
_symmetry_equiv_pos_as_xyz
1 x,y,z
2 -y,x-y,1/3+z
3 -x+y,-x,2/3+z
4 y,x,-z
5 -x,-x+y,1/3-z
6 x-y,-y,2/3-z
_cell_length_a                   11.8620(12)
_cell_length_b                   11.8620(12)
_cell_length_c                   8.2201(10)
_cell_angle_alpha                90
_cell_angle_beta                 90
_cell_angle_gamma                120
_cell_volume                     1001.67
loop_
_atom_site_label
_atom_site_type_symbol
_atom_site_fract_x
_atom_site_fract_y
_atom_site_fract_z
Ni1 Ni 0.29350(6) 0.29350(6) 0.0000
C1 C 0.1233(5) 0.6386(5) 0.3809(6)
H1 H 0.1447 0.7218 0.3363
C2 C 0.1524(5) 0.5566(5) 0.2905(5)
H2 H 0.1967 0.5845 0.1880
C3 C 0.1184(5) 0.4363(5) 0.3519(5)
C4 C 0.0581(4) 0.4015(4) 0.5021(6)
H3 H 0.0336 0.3178 0.5478
C5 C 0.0326(4) 0.4872(4) 0.5862(5)
C6 C 0.1487(5) 0.3423(5) 0.2635(6)
N1 N 0.0663(4) 0.6068(4) 0.5261(4)
O1 O 0.2133(4) 0.3829(4) 0.1351(4)
O2 O 0.1041(3) 0.2310(3) 0.3252(4)
O3 O 0.1322(3) 0.2160(4) -0.1496(4)
H4 H 0.054(2) 0.174(4) -0.118(5)
H5 H 0.145(4) 0.163(4) -0.205(6)
C1D C -0.1233(5) 0.5153(7) 0.9524(6)
H1D H -0.1447 0.5771 0.9970
C2D C -0.1524(5) 0.4042(7) 1.0428(5)
H2D H -0.1967 0.3878 1.1453
C3D C -0.1184(5) 0.3179(7) 0.9814(5)
C4D C -0.0581(4) 0.3434(6) 0.8312(6)
H3D H -0.0336 0.2842 0.7855
C5D C -0.0326(4) 0.4546(6) 0.7471(5)
C6D C -0.1487(5) 0.1936(7) 1.0698(6)
N1D N -0.0663(4) 0.5405(6) 0.8072(4)
O1D O -0.2133(4) 0.1696(6) 1.1982(4)
O2D O -0.1041(3) 0.1269(4) 1.0081(4)
O3C O 0.2160(4) 0.1322(3) 0.1496(4)
H4C H 0.174(4) 0.054(2) 0.118(5)
H5C H 0.163(4) 0.145(4) 0.205(6)
Ni1A Ni -0.29350(6) 0.00000(8) 1.3333
Ni1B Ni 0.00000(8) 0.70650(6) 0.6667
N1A N 0.3932(4) 0.4595(6) -0.1406(4)
N1E N 0.4595(6) 0.3932(4) 0.1406(4)
O1C O 0.3829(4) 0.2133(4) -0.1351(4)
loop_
_geom_bond_atom_site_label_1
_geom_bond_atom_site_label_2
_geom_bond_site_symmetry_1
_geom_bond_site_symmetry_2
Ni1 O1 1_555 1_555
C1 H1 1_555 1_555
C2 C1 1_555 1_555
H2 C2 1_555 1_555
C3 C2 1_555 1_555
C4 C3 1_555 1_555
H3 C4 1_555 1_555
C5 C4 1_555 1_555
C6 C3 1_555 1_555
N1 C1 1_555 1_555
O1 C6 1_555 1_555
O2 C6 1_555 1_555
O3 Ni1 1_555 1_555
H4 O3 1_555 1_555
H5 O3 1_555 1_555
C1D H1D 1_555 1_555
C2D C1D 1_555 1_555
H2D C2D 1_555 1_555
C3D C2D 1_555 1_555
C4D C3D 1_555 1_555
H3D C4D 1_555 1_555
C5D C5 1_555 1_555
C6D C3D 1_555 1_555
N1D C1D 1_555 1_555
O1D C6D 1_555 1_555
O2D C6D 1_555 1_555
O3C Ni1 1_555 1_555
H4C O3C 1_555 1_555
H5C O3C 1_555 1_555
Ni1A O1D 1_555 1_555
Ni1B N1 1_555 1_555
N1A Ni1 1_555 1_555
N1E Ni1 1_555 1_555
O1C Ni1 1_555 1_555
C5 N1 1_555 1_555
C4D C5D 1_555 1_555
C5D N1D 1_555 1_555
N1D Ni1B 1_555 1_555

#END
