
#######################################################################
#
#                 Cambridge Crystallographic Data Centre
#                                CCDC 
#
#######################################################################
#
# If this CIF has been generated from an entry in the Cambridge 
# Structural Database, then it will include bibliographic, chemical, 
# crystal, experimental, refinement or atomic coordinate data resulting 
# from the CCDC's data processing and validation procedures.
#
#######################################################################

data_GAGXUI
_symmetry_cell_setting           monoclinic
_symmetry_space_group_name_H-M   'P 21/c'
_symmetry_Int_Tables_number      14
_space_group_name_Hall           '-P 2ybc'
loop_
_symmetry_equiv_pos_site_id
_symmetry_equiv_pos_as_xyz
1 x,y,z
2 x,1/2-y,1/2+z
3 -x,-y,-z
4 -x,1/2+y,1/2-z
_cell_length_a                   8.9709(6)
_cell_length_b                   14.5505(10)
_cell_length_c                   22.2314(15)
_cell_angle_alpha                90
_cell_angle_beta                 98.1770(10)
_cell_angle_gamma                90
_cell_volume                     2872.39
loop_
_atom_site_label
_atom_site_type_symbol
_atom_site_fract_x
_atom_site_fract_y
_atom_site_fract_z
Pb1 Pb 0.42847(2) 0.523396(18) 0.087867(10)
Pb2 Pb 0.95715(2) 0.528550(18) 0.093460(9)
S1 S 0.63403(17) 0.59745(11) 0.00417(7)
S2 S 0.67537(17) 0.43897(11) 0.14635(7)
S3 S 0.18654(16) 0.41096(11) 0.13202(7)
S4 S 0.12266(17) 0.59614(11) 0.00385(7)
C1 C 0.5631(7) 0.7101(4) -0.0136(3)
C2 C 0.5540(7) 0.7468(5) -0.0720(3)
H1 H 0.5839 0.7112 -0.1041
C3 C 0.5014(7) 0.8351(5) -0.0826(3)
H2 H 0.4937 0.8596 -0.1225
C4 C 0.4601(8) 0.8883(5) -0.0371(3)
H3 H 0.4245 0.9492 -0.0453
C5 C 0.4707(8) 0.8522(5) 0.0209(3)
H4 H 0.4444 0.8893 0.0529
C6 C 0.5186(7) 0.7639(5) 0.0328(3)
H5 H 0.5216 0.7393 0.0725
C7 C 0.7039(6) 0.5283(5) 0.2013(3)
C8 C 0.7100(6) 0.6197(4) 0.1856(3)
H6 H 0.6977 0.6358 0.1438
C9 C 0.7336(7) 0.6890(5) 0.2285(3)
H7 H 0.7355 0.7514 0.2162
C10 C 0.7543(8) 0.6667(5) 0.2895(3)
H8 H 0.7719 0.7134 0.3195
C11 C 0.7490(7) 0.5757(6) 0.3062(3)
H9 H 0.7628 0.5601 0.3481
C12 C 0.7239(6) 0.5060(4) 0.2628(3)
H10 H 0.7205 0.4436 0.2752
C13 C 0.2000(7) 0.4255(4) 0.2124(3)
C14 C 0.3313(7) 0.4503(4) 0.2467(3)
H11 H 0.4164 0.4638 0.2273
C15 C 0.3440(8) 0.4563(5) 0.3098(3)
H12 H 0.4371 0.4737 0.3328
C16 C 0.2224(8) 0.4372(5) 0.3386(3)
H13 H 0.2305 0.4414 0.3816
C17 C 0.0880(8) 0.4116(5) 0.3045(3)
H14 H 0.0032 0.3982 0.3242
C18 C 0.0756(7) 0.4054(4) 0.2413(3)
H15 H -0.0171 0.3876 0.2181
C19 C 0.0631(7) 0.7103(4) -0.0143(3)
C20 C -0.0369(7) 0.7557(5) 0.0162(3)
H16 H -0.0783 0.7249 0.0477
C21 C -0.0790(8) 0.8455(5) 0.0020(3)
H17 H -0.1475 0.8757 0.0243
C22 C -0.0235(8) 0.8907(5) -0.0432(3)
H18 H -0.0519 0.9525 -0.0526
C23 C 0.0741(8) 0.8458(5) -0.0750(3)
H19 H 0.1125 0.8762 -0.1074
C24 C 0.1170(8) 0.7568(5) -0.0604(3)
H20 H 0.1855 0.7268 -0.0828
N1 N 1.1315(6) 0.6629(4) 0.1647(2)
C25 C 1.1295(8) 0.6555(5) 0.2243(3)
H21 H 1.0537 0.6190 0.2383
C26 C 1.2344(8) 0.6994(5) 0.2666(3)
H22 H 1.2279 0.6940 0.3087
C27 C 1.3483(8) 0.7510(5) 0.2475(3)
H23 H 1.4230 0.7798 0.2759
C28 C 1.3497(8) 0.7590(5) 0.1853(3)
H24 H 1.4243 0.7947 0.1698
C29 C 1.2416(7) 0.7145(5) 0.1474(3)
H25 H 1.2441 0.7203 0.1050
S1B S 0.36597(17) 0.40255(11) -0.00417(7)
S3_2 S 1.18654(16) 0.41096(11) 0.13202(7)
S4_2 S 1.12266(17) 0.59614(11) 0.00385(7)
S4B S 0.87734(17) 0.40386(11) -0.00385(7)
Pb1B Pb 0.57153(2) 0.476604(18) -0.087867(10)
Pb2_2 Pb -0.04285(2) 0.528550(18) 0.093460(9)
Pb2B Pb 0.04285(2) 0.471450(18) -0.093460(9)
loop_
_geom_bond_atom_site_label_1
_geom_bond_atom_site_label_2
_geom_bond_site_symmetry_1
_geom_bond_site_symmetry_2
Pb1 S1 1_555 1_555
Pb2 S1 1_555 1_555
S1 C1 1_555 1_555
S2 Pb1 1_555 1_555
S3 Pb1 1_555 1_555
S4 Pb1 1_555 1_555
C1 C2 1_555 1_555
C2 H1 1_555 1_555
C3 C2 1_555 1_555
H2 C3 1_555 1_555
C4 C3 1_555 1_555
H3 C4 1_555 1_555
C5 C4 1_555 1_555
H4 C5 1_555 1_555
C6 C1 1_555 1_555
H5 C6 1_555 1_555
C7 S2 1_555 1_555
C8 C7 1_555 1_555
H6 C8 1_555 1_555
C9 C8 1_555 1_555
H7 C9 1_555 1_555
C10 C9 1_555 1_555
H8 C10 1_555 1_555
C11 C10 1_555 1_555
H9 C11 1_555 1_555
C12 C7 1_555 1_555
H10 C12 1_555 1_555
C13 S3 1_555 1_555
C14 C13 1_555 1_555
H11 C14 1_555 1_555
C15 C14 1_555 1_555
H12 C15 1_555 1_555
C16 C15 1_555 1_555
H13 C16 1_555 1_555
C17 C16 1_555 1_555
H14 C17 1_555 1_555
C18 C13 1_555 1_555
H15 C18 1_555 1_555
C19 S4 1_555 1_555
C20 C19 1_555 1_555
H16 C20 1_555 1_555
C21 C20 1_555 1_555
H17 C21 1_555 1_555
C22 C21 1_555 1_555
H18 C22 1_555 1_555
C23 C22 1_555 1_555
H19 C23 1_555 1_555
C24 C19 1_555 1_555
H20 C24 1_555 1_555
N1 Pb2 1_555 1_555
C25 N1 1_555 1_555
H21 C25 1_555 1_555
C26 C25 1_555 1_555
H22 C26 1_555 1_555
C27 C26 1_555 1_555
H23 C27 1_555 1_555
C28 C27 1_555 1_555
H24 C28 1_555 1_555
C29 N1 1_555 1_555
H25 C29 1_555 1_555
S1B Pb1 1_555 1_555
S3_2 Pb2 1_555 1_555
S4_2 Pb2 1_555 1_555
S4B Pb2 1_555 1_555
Pb1B S1 1_555 1_555
Pb2_2 S3 1_555 1_555
Pb2B S4 1_555 1_555
Pb2 S2 1_555 1_555
S4 Pb2_2 1_555 1_555
C5 C6 1_555 1_555
C11 C12 1_555 1_555
C17 C18 1_555 1_555
C23 C24 1_555 1_555
C28 C29 1_555 1_555
S1B Pb1B 1_555 1_555
S1B Pb2B 1_555 1_555
S4B Pb1B 1_555 1_555

#END
