
#######################################################################
#
#                 Cambridge Crystallographic Data Centre
#                                CCDC 
#
#######################################################################
#
# If this CIF has been generated from an entry in the Cambridge 
# Structural Database, then it will include bibliographic, chemical, 
# crystal, experimental, refinement or atomic coordinate data resulting 
# from the CCDC's data processing and validation procedures.
#
#######################################################################

data_GAGXOC
_symmetry_cell_setting           triclinic
_symmetry_space_group_name_H-M   'P -1'
_symmetry_Int_Tables_number      2
_space_group_name_Hall           '-P 1'
loop_
_symmetry_equiv_pos_site_id
_symmetry_equiv_pos_as_xyz
1 x,y,z
2 -x,-y,-z
_cell_length_a                   5.3732(9)
_cell_length_b                   11.828(2)
_cell_length_c                   15.587(3)
_cell_angle_alpha                90.884(3)
_cell_angle_beta                 92.637(2)
_cell_angle_gamma                96.783(2)
_cell_volume                     982.427
loop_
_atom_site_label
_atom_site_type_symbol
_atom_site_fract_x
_atom_site_fract_y
_atom_site_fract_z
Pb1 Pb 0.35073(7) -0.00399(4) 0.74665(2)
S1 S -0.0550(5) -0.1388(3) 0.77374(18)
S2 S 0.1050(6) 0.1658(3) 0.78186(19)
N1 N 0.1468(18) 0.0086(11) 0.5756(6)
N2 N 0.4498(16) -0.0104(9) 0.9122(5)
C1 C 0.007(2) -0.2593(12) 0.7139(7)
C2 C 0.185(3) -0.3290(12) 0.7437(9)
C3 C 0.229(4) -0.4200(13) 0.6941(11)
H1 H 0.3466 -0.4689 0.7138
C4 C 0.105(5) -0.4408(17) 0.6164(12)
H2 H 0.1400 -0.5030 0.5815
C5 C -0.069(4) -0.3740(16) 0.5881(11)
H3 H -0.1550 -0.3914 0.5340
C6 C -0.123(3) -0.2838(14) 0.6341(8)
C7 C 0.320(3) -0.3078(12) 0.8295(8)
H4 H 0.4036 -0.3743 0.8450
H5 H 0.1992 -0.2945 0.8727
H6 H 0.4449 -0.2408 0.8268
C8 C -0.329(3) -0.2171(16) 0.6023(8)
H7 H -0.2910 -0.1376 0.6220
H8 H -0.4887 -0.2497 0.6248
H9 H -0.3417 -0.2205 0.5394
C9 C 0.359(2) 0.2709(11) 0.8150(7)
C10 C 0.517(3) 0.3171(12) 0.7530(9)
C11 C 0.715(3) 0.3967(14) 0.7796(13)
H10 H 0.8283 0.4268 0.7384
C12 C 0.754(4) 0.4344(15) 0.8639(15)
H11 H 0.8889 0.4909 0.8808
C13 C 0.591(4) 0.3869(13) 0.9225(11)
H12 H 0.6164 0.4116 0.9808
C14 C 0.390(3) 0.3045(12) 0.9005(9)
C15 C 0.485(4) 0.2862(14) 0.6600(9)
H13 H 0.6152 0.3307 0.6287
H14 H 0.3191 0.3026 0.6380
H15 H 0.4981 0.2048 0.6519
C16 C 0.222(3) 0.2578(15) 0.9653(9)
H16 H 0.0492 0.2690 0.9480
H17 H 0.2695 0.2968 1.0205
H18 H 0.2347 0.1762 0.9708
C17 C 0.179(2) -0.0637(14) 0.5131(7)
H19 H 0.3096 -0.1111 0.5197
C18 C -0.031(2) 0.0725(14) 0.5610(7)
H20 H -0.0585 0.1275 0.6035
C19 C 0.659(2) 0.0511(13) 0.9456(7)
H21 H 0.7756 0.0893 0.9088
C20 C 0.297(2) -0.0584(13) 0.9676(7)
H22 H 0.1458 -0.1011 0.9459
C18A C 0.031(2) -0.0725(14) 0.4390(7)
N1A N -0.1468(18) -0.0086(11) 0.4244(6)
C17A C -0.179(2) 0.0637(14) 0.4869(7)
H19A H -0.3096 0.1111 0.4803
H20A H 0.0585 -0.1275 0.3965
C20A C 0.703(2) 0.0584(13) 1.0324(7)
N2A N 0.5502(16) 0.0104(9) 1.0878(5)
C19A C 0.341(2) -0.0511(13) 1.0544(7)
H21A H 0.2244 -0.0893 1.0912
H22A H 0.8542 0.1011 1.0541
Pb1A Pb -0.35073(7) 0.00399(4) 0.25335(2)
S1A S 0.0550(5) 0.1388(3) 0.22626(18)
C1A C -0.007(2) 0.2593(12) 0.2861(7)
C2A C -0.185(3) 0.3290(12) 0.2563(9)
C3A C -0.229(4) 0.4200(13) 0.3059(11)
H1A H -0.3466 0.4689 0.2862
C4A C -0.105(5) 0.4408(17) 0.3836(12)
H2A H -0.1400 0.5030 0.4185
C5A C 0.069(4) 0.3740(16) 0.4119(11)
H3A H 0.1550 0.3914 0.4660
C6A C 0.123(3) 0.2838(14) 0.3659(8)
C7A C -0.320(3) 0.3078(12) 0.1705(8)
H4A H -0.4036 0.3743 0.1550
H5A H -0.1992 0.2945 0.1273
H6A H -0.4449 0.2408 0.1732
C8A C 0.329(3) 0.2171(16) 0.3977(8)
H7A H 0.2910 0.1376 0.3780
H8A H 0.4887 0.2497 0.3752
H9A H 0.3417 0.2205 0.4606
S2A S -0.1050(6) -0.1658(3) 0.21814(19)
C9A C -0.359(2) -0.2709(11) 0.1850(7)
C10A C -0.517(3) -0.3171(12) 0.2470(9)
C11A C -0.715(3) -0.3967(14) 0.2204(13)
H10A H -0.8283 -0.4268 0.2616
C12A C -0.754(4) -0.4344(15) 0.1361(15)
H11A H -0.8889 -0.4909 0.1192
C13A C -0.591(4) -0.3869(13) 0.0775(11)
H12A H -0.6164 -0.4116 0.0192
C14A C -0.390(3) -0.3045(12) 0.0995(9)
C15A C -0.485(4) -0.2862(14) 0.3400(9)
H13A H -0.6152 -0.3307 0.3713
H14A H -0.3191 -0.3026 0.3620
H15A H -0.4981 -0.2048 0.3481
C16A C -0.222(3) -0.2578(15) 0.0347(9)
H16A H -0.0492 -0.2690 0.0520
H17A H -0.2695 -0.2968 -0.0205
H18A H -0.2347 -0.1762 0.0292
Pb1A_2 Pb 0.64927(7) 0.00399(4) 1.25335(2)
N2A_2 N -0.4498(16) 0.0104(9) 0.0878(5)
loop_
_geom_bond_atom_site_label_1
_geom_bond_atom_site_label_2
_geom_bond_site_symmetry_1
_geom_bond_site_symmetry_2
Pb1 S1 1_555 1_555
S1 C1 1_555 1_555
S2 Pb1 1_555 1_555
N1 Pb1 1_555 1_555
N2 Pb1 1_555 1_555
C1 C2 1_555 1_555
C2 C3 1_555 1_555
C3 H1 1_555 1_555
C4 C3 1_555 1_555
H2 C4 1_555 1_555
C5 C4 1_555 1_555
H3 C5 1_555 1_555
C6 C1 1_555 1_555
C7 C2 1_555 1_555
H4 C7 1_555 1_555
H5 C7 1_555 1_555
H6 C7 1_555 1_555
C8 C6 1_555 1_555
H7 C8 1_555 1_555
H8 C8 1_555 1_555
H9 C8 1_555 1_555
C9 S2 1_555 1_555
C10 C9 1_555 1_555
C11 C10 1_555 1_555
H10 C11 1_555 1_555
C12 C11 1_555 1_555
H11 C12 1_555 1_555
C13 C12 1_555 1_555
H12 C13 1_555 1_555
C14 C9 1_555 1_555
C15 C10 1_555 1_555
H13 C15 1_555 1_555
H14 C15 1_555 1_555
H15 C15 1_555 1_555
C16 C14 1_555 1_555
H16 C16 1_555 1_555
H17 C16 1_555 1_555
H18 C16 1_555 1_555
C17 N1 1_555 1_555
H19 C17 1_555 1_555
C18 N1 1_555 1_555
H20 C18 1_555 1_555
C19 N2 1_555 1_555
H21 C19 1_555 1_555
C20 N2 1_555 1_555
H22 C20 1_555 1_555
C18A C17 1_555 1_555
N1A C18A 1_555 1_555
C17A C18 1_555 1_555
H19A C17A 1_555 1_555
H20A C18A 1_555 1_555
C20A C19 1_555 1_555
N2A C20A 1_555 1_555
C19A C20 1_555 1_555
H21A C19A 1_555 1_555
H22A C20A 1_555 1_555
Pb1A N1A 1_555 1_555
S1A Pb1A 1_555 1_555
C1A S1A 1_555 1_555
C2A C1A 1_555 1_555
C3A C2A 1_555 1_555
H1A C3A 1_555 1_555
C4A C3A 1_555 1_555
H2A C4A 1_555 1_555
C5A C4A 1_555 1_555
H3A C5A 1_555 1_555
C6A C1A 1_555 1_555
C7A C2A 1_555 1_555
H4A C7A 1_555 1_555
H5A C7A 1_555 1_555
H6A C7A 1_555 1_555
C8A C6A 1_555 1_555
H7A C8A 1_555 1_555
H8A C8A 1_555 1_555
H9A C8A 1_555 1_555
S2A Pb1A 1_555 1_555
C9A S2A 1_555 1_555
C10A C9A 1_555 1_555
C11A C10A 1_555 1_555
H10A C11A 1_555 1_555
C12A C11A 1_555 1_555
H11A C12A 1_555 1_555
C13A C12A 1_555 1_555
H12A C13A 1_555 1_555
C14A C9A 1_555 1_555
C15A C10A 1_555 1_555
H13A C15A 1_555 1_555
H14A C15A 1_555 1_555
H15A C15A 1_555 1_555
C16A C14A 1_555 1_555
H16A C16A 1_555 1_555
H17A C16A 1_555 1_555
H18A C16A 1_555 1_555
Pb1A_2 N2A 1_555 1_555
N2A_2 Pb1A 1_555 1_555
C5 C6 1_555 1_555
C13 C14 1_555 1_555
N1A C17A 1_555 1_555
N2A C19A 1_555 1_555
C5A C6A 1_555 1_555
C13A C14A 1_555 1_555

#END
