
#######################################################################
#
#                 Cambridge Crystallographic Data Centre
#                                CCDC 
#
#######################################################################
#
# If this CIF has been generated from an entry in the Cambridge 
# Structural Database, then it will include bibliographic, chemical, 
# crystal, experimental, refinement or atomic coordinate data resulting 
# from the CCDC's data processing and validation procedures.
#
#######################################################################

data_GAGXET
_symmetry_cell_setting           monoclinic
_symmetry_space_group_name_H-M   'P 21/c'
_symmetry_Int_Tables_number      14
_space_group_name_Hall           '-P 2ybc'
loop_
_symmetry_equiv_pos_site_id
_symmetry_equiv_pos_as_xyz
1 x,y,z
2 -x,1/2+y,1/2-z
3 -x,-y,-z
4 x,1/2-y,1/2+z
_cell_length_a                   20.1669(13)
_cell_length_b                   8.9824(6)
_cell_length_c                   17.2558(11)
_cell_angle_alpha                90
_cell_angle_beta                 110.8490(10)
_cell_angle_gamma                90
_cell_volume                     2921.16
loop_
_atom_site_label
_atom_site_type_symbol
_atom_site_fract_x
_atom_site_fract_y
_atom_site_fract_z
Co1 Co 0.67764(3) -0.36843(6) 0.60775(3)
Co2 Co 0.81353(3) 0.10429(5) 0.62107(3)
Co3 Co 0.77655(3) -0.54635(5) 0.52784(3)
O1 O 0.74848(15) -0.0735(3) 0.5581(2)
O2 O 0.73460(14) -0.5715(3) 0.62416(18)
O3 O 0.8165(2) 0.2279(4) 0.3943(2)
O4 O 0.72436(17) -0.8155(3) 0.6413(2)
O5 O 1.12785(15) -0.0302(3) 0.87808(19)
O6 O 0.39455(15) -0.5398(4) 0.49495(19)
O7 O 1.11548(15) -0.2428(3) 0.80443(18)
O8 O 0.73563(16) -0.2589(3) 0.71602(19)
N1 N 0.88120(16) -0.0308(3) 0.5666(2)
O9 O 0.83749(18) -0.0359(4) 0.7244(2)
C1 C 0.8579(2) 0.0171(4) 0.4786(3)
H1 H 0.816(3) -0.049(6) 0.447(3)
H2 H 0.900(3) 0.027(6) 0.461(3)
C2 C 0.3841(2) -0.4674(5) 0.5520(3)
C3 C 0.4496(2) -0.4266(5) 0.6250(3)
O10 O 0.32560(15) -0.4260(4) 0.5542(2)
C4 C 0.9938(2) -0.0741(4) 0.6852(3)
H3 H 0.976(3) -0.169(6) 0.691(3)
O11 O 0.79998(15) 0.2252(3) 0.51555(17)
C5 C 0.7809(2) -0.1923(4) 0.5573(2)
C6 C 0.8592(2) -0.1862(4) 0.5709(3)
H4 H 0.880(2) -0.224(5) 0.626(3)
H5 H 0.872(3) -0.249(6) 0.541(3)
C7 C 1.0887(2) 0.1063(5) 0.7158(3)
H6 H 1.137(3) 0.142(6) 0.751(3)
C8 C 0.7067(2) -0.6846(4) 0.6454(2)
O12 O 0.6181(3) -0.1718(5) 0.5771(3)
C9 C 1.0604(2) -0.0231(4) 0.7354(2)
C10 C 0.95387(19) 0.0064(4) 0.6146(2)
C11 C 1.0499(2) 0.1833(5) 0.6444(3)
H7 H 1.070(3) 0.265(6) 0.633(3)
O13 O 0.75169(14) -0.3192(3) 0.54939(18)
C12 C 0.8224(2) 0.1694(4) 0.4610(3)
C13 C 0.4429(3) -0.3438(10) 0.6890(5)
H8 H 0.384(3) -0.311(7) 0.680(4)
C14 C 0.9836(2) 0.1359(4) 0.5948(3)
H9 H 0.958(3) 0.191(6) 0.548(3)
C15 C 1.1047(2) -0.1066(4) 0.8128(3)
N2 N 0.64482(16) -0.4972(4) 0.6990(2)
O14 O 0.7621(2) -0.2593(4) 0.8525(2)
C16 C 0.5156(2) -0.4768(4) 0.6285(3)
H10 H 0.525(2) -0.539(5) 0.590(3)
C17 C 0.7356(2) -0.3145(5) 0.7835(3)
C18 C 0.6461(2) -0.6552(5) 0.6756(3)
H11 H 0.601(3) -0.669(6) 0.630(3)
H12 H 0.654(4) -0.722(8) 0.729(5)
C19 C 0.5758(2) -0.4450(5) 0.6970(3)
C20 C 0.7034(2) -0.4697(5) 0.7783(3)
H13 H 0.739(3) -0.542(5) 0.784(3)
H14 H 0.690(3) -0.489(6) 0.827(3)
C21 C 0.5698(3) -0.3587(9) 0.7603(4)
H15 H 0.618(4) -0.326(9) 0.810(5)
C22 C 0.5039(3) -0.3104(12) 0.7567(5)
H16 H 0.505(4) -0.255(9) 0.810(5)
O15 O 0.81338(17) -0.4861(3) 0.43606(19)
Co1B Co 0.32236(3) -0.63157(6) 0.39225(3)
Co2_2 Co 0.81353(3) -0.89571(5) 0.62107(3)
Co2A Co 1.18647(3) -0.39571(5) 0.87893(3)
Co3A Co 1.22345(3) -0.04635(5) 0.97216(3)
Co3B Co 0.22345(3) -0.45365(5) 0.47216(3)
Co3_2 Co 0.77655(3) 0.45365(5) 0.52784(3)
O4_2 O 0.72436(17) 0.1845(3) 0.6413(2)
O5A O 0.87215(15) -0.5302(3) 0.62192(19)
O6B O 0.60545(15) -0.4602(4) 0.50505(19)
O7A O 0.88452(15) 0.2572(3) 0.69557(18)
O10B O 0.67440(15) -0.5740(4) 0.4458(2)
O11_2 O 0.79998(15) -0.7748(3) 0.51555(17)
O16 O 0.9297(4) 0.1069(8) 0.8553(5)
O17 O 0.3663(9) 0.5875(18) 0.0580(10)
O18 O 0.9747(11) -0.026(3) 1.0253(13)
loop_
_geom_bond_atom_site_label_1
_geom_bond_atom_site_label_2
_geom_bond_site_symmetry_1
_geom_bond_site_symmetry_2
Co1 O2 1_555 1_555
Co2 O1 1_555 1_555
Co3 O2 1_555 1_555
O1 C5 1_555 1_555
O2 C8 1_555 1_555
O3 C12 1_555 1_555
O4 C8 1_555 1_555
O5 C15 1_555 1_555
O6 C2 1_555 1_555
O7 C15 1_555 1_555
O8 Co1 1_555 1_555
N1 Co2 1_555 1_555
O9 Co2 1_555 1_555
C1 N1 1_555 1_555
H1 C1 1_555 1_555
H2 C1 1_555 1_555
C2 C3 1_555 1_555
C3 C13 1_555 1_555
O10 C2 1_555 1_555
C4 H3 1_555 1_555
O11 Co2 1_555 1_555
C5 C6 1_555 1_555
C6 N1 1_555 1_555
H4 C6 1_555 1_555
H5 C6 1_555 1_555
C7 H6 1_555 1_555
C8 C18 1_555 1_555
O12 Co1 1_555 1_555
C9 C4 1_555 1_555
C10 N1 1_555 1_555
C11 C7 1_555 1_555
H7 C11 1_555 1_555
O13 Co1 1_555 1_555
C12 C1 1_555 1_555
C13 H8 1_555 1_555
C14 C10 1_555 1_555
H9 C14 1_555 1_555
C15 C9 1_555 1_555
N2 Co1 1_555 1_555
O14 C17 1_555 1_555
C16 C3 1_555 1_555
H10 C16 1_555 1_555
C17 O8 1_555 1_555
C18 N2 1_555 1_555
H11 C18 1_555 1_555
H12 C18 1_555 1_555
C19 N2 1_555 1_555
C20 N2 1_555 1_555
H13 C20 1_555 1_555
H14 C20 1_555 1_555
C21 C19 1_555 1_555
H15 C21 1_555 1_555
C22 C13 1_555 1_555
H16 C22 1_555 1_555
O15 Co3 1_555 1_555
Co1B O6 1_555 1_555
Co2_2 O4 1_555 1_555
Co2A O7 1_555 1_555
Co3A O5 1_555 1_555
Co3B O10 1_555 1_555
Co3_2 O11 1_555 1_555
O4_2 Co2 1_555 1_555
O5A Co3 1_555 1_555
O6B Co1 1_555 1_555
O7A Co2 1_555 1_555
O10B Co3 1_555 1_555
O11_2 Co3 1_555 1_555
Co3 O13 1_555 1_555
C4 C10 1_555 1_555
O11 C12 1_555 1_555
C5 O13 1_555 1_555
C7 C9 1_555 1_555
C11 C14 1_555 1_555
C16 C19 1_555 1_555
C17 C20 1_555 1_555
C21 C22 1_555 1_555
Co2_2 O11_2 1_555 1_555

#END
