
#######################################################################
#
#                 Cambridge Crystallographic Data Centre
#                                CCDC 
#
#######################################################################
#
# If this CIF has been generated from an entry in the Cambridge 
# Structural Database, then it will include bibliographic, chemical, 
# crystal, experimental, refinement or atomic coordinate data resulting 
# from the CCDC's data processing and validation procedures.
#
#######################################################################

data_GAHBEX
_symmetry_cell_setting           monoclinic
_symmetry_space_group_name_H-M   'P 21/n'
_symmetry_Int_Tables_number      14
_space_group_name_Hall           '-P 2yn'
loop_
_symmetry_equiv_pos_site_id
_symmetry_equiv_pos_as_xyz
1 x,y,z
2 1/2+x,1/2-y,1/2+z
3 -x,-y,-z
4 1/2-x,1/2+y,1/2-z
_cell_length_a                   12.905(3)
_cell_length_b                   6.4760(10)
_cell_length_c                   16.291(3)
_cell_angle_alpha                90
_cell_angle_beta                 111.08(3)
_cell_angle_gamma                90
_cell_volume                     1270.37
loop_
_atom_site_label
_atom_site_type_symbol
_atom_site_fract_x
_atom_site_fract_y
_atom_site_fract_z
S1 S 0.68722(5) 0.28844(9) 0.97508(3)
S2 S 0.73059(4) 0.06389(9) 0.82969(4)
S3 S 0.53022(4) 0.64819(9) 0.90842(3)
Na1 Na 0.98885(7) 0.17589(13) 0.91076(5)
O1 O 0.91269(14) 0.5115(3) 0.87878(12)
H1 H 0.8717(25) 0.5209(52) 0.8250(22)
H2 H 0.8723(22) 0.5505(42) 0.9016(18)
O2 O 1.1752(2) 0.2674(3) 1.00923(13)
H3 H 1.2029(25) 0.1780(48) 1.0443(19)
H4 H 1.2194(25) 0.3361(49) 1.0008(19)
N1 N 0.50040(13) 0.6761(3) 0.74153(10)
O3 O 1.05045(13) -0.1601(2) 0.95231(10)
N2 N 0.60717(15) 0.3923(3) 0.80642(12)
H5 H 0.6013(20) 0.3699(39) 0.7552(16)
C1 C 0.5480(2) 0.5664(3) 0.81216(13)
C2 C 0.3880(2) 0.9955(3) 0.70189(15)
H6 H 0.3817(2) 0.9889(3) 0.64324(15)
C3 C 0.44595(15) 0.8437(3) 0.76117(13)
C4 C 0.4530(2) 0.8550(3) 0.84870(13)
C5 C 0.6714(2) 0.2570(3) 0.86865(13)
C6 C 0.4046(2) 1.0169(4) 0.8782(2)
H7 H 0.4097(2) 1.0239(4) 0.9365(2)
C7 C 0.3490(2) 1.1658(4) 0.8187(2)
H8 H 0.3165(2) 1.2758(4) 0.8371(2)
C8 C 0.3405(2) 1.1547(4) 0.7312(2)
H9 H 0.3019(2) 1.2569(4) 0.6920(2)
H10 H 1.0187(2) -0.2713(4) 0.9223(2)
H11 H 1.1187(2) -0.2007(4) 0.9658(2)
N1C N 0.99960(13) 0.1761(3) 0.75847(10)
O3B O 0.94955(13) 0.1601(2) 1.04769(10)
Na1C Na 0.51115(7) 0.67589(13) 0.58924(5)
Na1B Na 1.01115(7) -0.17589(13) 1.08924(5)
H10B H 0.9813(2) 0.2713(4) 1.0777(2)
H11B H 0.8813(2) 0.2007(4) 1.0342(2)
loop_
_geom_bond_atom_site_label_1
_geom_bond_atom_site_label_2
_geom_bond_site_symmetry_1
_geom_bond_site_symmetry_2
S1 C5 1_555 1_555
S2 Na1 1_555 1_555
S3 C1 1_555 1_555
Na1 O1 1_555 1_555
O1 H1 1_555 1_555
H2 O1 1_555 1_555
O2 Na1 1_555 1_555
H3 O2 1_555 1_555
H4 O2 1_555 1_555
N1 C1 1_555 1_555
O3 Na1 1_555 1_555
N2 H5 1_555 1_555
C1 N2 1_555 1_555
C2 H6 1_555 1_555
C3 N1 1_555 1_555
C4 S3 1_555 1_555
C5 S2 1_555 1_555
C6 C4 1_555 1_555
H7 C6 1_555 1_555
C7 C6 1_555 1_555
H8 C7 1_555 1_555
C8 C2 1_555 1_555
H9 C8 1_555 1_555
H10 O3 1_555 1_555
H11 O3 1_555 1_555
N1C Na1 1_555 1_555
O3B Na1 1_555 1_555
Na1C N1 1_555 1_555
Na1B O3 1_555 1_555
H10B O3B 1_555 1_555
H11B O3B 1_555 1_555
N2 C5 1_555 1_555
C2 C3 1_555 1_555
C3 C4 1_555 1_555
C7 C8 1_555 1_555
O3B Na1B 1_555 1_555

#END
