
#######################################################################
#
#                 Cambridge Crystallographic Data Centre
#                                CCDC 
#
#######################################################################
#
# If this CIF has been generated from an entry in the Cambridge 
# Structural Database, then it will include bibliographic, chemical, 
# crystal, experimental, refinement or atomic coordinate data resulting 
# from the CCDC's data processing and validation procedures.
#
#######################################################################

data_GAHKIJ10
_symmetry_cell_setting           tetragonal
_symmetry_space_group_name_H-M   'I 41/a'
_symmetry_Int_Tables_number      88
_space_group_name_Hall           '-I 4ad'
loop_
_symmetry_equiv_pos_site_id
_symmetry_equiv_pos_as_xyz
1 x,y,z
2 1/2+x,1/2+y,1/2+z
3 3/4-y,1/4+x,1/4+z
4 1/4-y,3/4+x,3/4+z
5 1/2-x,-y,1/2+z
6 -x,1/2-y,z
7 3/4+y,3/4-x,3/4+z
8 1/4+y,1/4-x,1/4+z
9 -x,-y,-z
10 1/2-x,1/2-y,1/2-z
11 1/4+y,3/4-x,3/4-z
12 3/4+y,1/4-x,1/4-z
13 1/2+x,y,1/2-z
14 x,1/2+y,-z
15 1/4-y,1/4+x,1/4-z
16 3/4-y,3/4+x,3/4-z
_cell_length_a                   21.640(7)
_cell_length_b                   21.640(7)
_cell_length_c                   3.745(2)
_cell_angle_alpha                90
_cell_angle_beta                 90
_cell_angle_gamma                90
_cell_volume                     1753.74
loop_
_atom_site_label
_atom_site_type_symbol
_atom_site_fract_x
_atom_site_fract_y
_atom_site_fract_z
Cu1 Cu 0.0000 0.2500 0.125
N1 N 0.0723(3) 0.2132(2) -0.0981(14)
N2 N 0.1732(2) 0.1781(2) -0.3370(13)
C1 C 0.2097(3) 0.2137(3) -0.5386(14)
C2 C 0.1945(3) 0.2761(3) -0.6355(15)
C3 C 0.2674(3) 0.1884(3) -0.6662(15)
C4 C 0.1203(3) 0.1997(3) -0.2190(16)
C5 C 0.2852(1) 0.1162(1) -0.5579(6)
H1 H 0.147(4) 0.297(4) -0.553(24)
H2 H 0.328(9) 0.102(8) -0.638(53)
H3 H 0.236(8) 0.084(8) -0.676(57)
H4 H 0.323(8) 0.112(9) -0.396(58)
N1E N -0.0723(3) 0.2868(2) -0.0981(14)
N1K N -0.0368(2) 0.1777(3) 0.3481(14)
N1N N 0.0368(2) 0.3223(3) 0.3481(14)
C3I C 0.2326(3) 0.3116(3) -0.8338(15)
C2I C 0.3055(3) 0.2239(3) -0.8645(15)
loop_
_geom_bond_atom_site_label_1
_geom_bond_atom_site_label_2
_geom_bond_site_symmetry_1
_geom_bond_site_symmetry_2
Cu1 N1 1_555 1_555
N1 C4 1_555 1_555
N2 C1 1_555 1_555
C1 C2 1_555 1_555
C2 H1 1_555 1_555
C3 C1 1_555 1_555
C4 N2 1_555 1_555
C5 C3 1_555 1_555
H2 C5 1_555 1_555
H3 C5 1_555 1_555
H4 C5 1_555 1_555
N1E Cu1 1_555 1_555
N1K Cu1 1_555 1_555
N1N Cu1 1_555 1_555
C3I C2 1_555 1_555
C2I C3 1_555 1_555

#END
