
#######################################################################
#
#                 Cambridge Crystallographic Data Centre
#                                CCDC 
#
#######################################################################
#
# If this CIF has been generated from an entry in the Cambridge 
# Structural Database, then it will include bibliographic, chemical, 
# crystal, experimental, refinement or atomic coordinate data resulting 
# from the CCDC's data processing and validation procedures.
#
#######################################################################

data_GAHVES
_symmetry_cell_setting           triclinic
_symmetry_space_group_name_H-M   'P -1'
_symmetry_Int_Tables_number      2
_space_group_name_Hall           '-P 1'
loop_
_symmetry_equiv_pos_site_id
_symmetry_equiv_pos_as_xyz
1 x,y,z
2 -x,-y,-z
_cell_length_a                   7.0433(11)
_cell_length_b                   10.4671(17)
_cell_length_c                   10.9191(18)
_cell_angle_alpha                103.311(3)
_cell_angle_beta                 108.174(3)
_cell_angle_gamma                99.807(3)
_cell_volume                     718.305
loop_
_atom_site_label
_atom_site_type_symbol
_atom_site_fract_x
_atom_site_fract_y
_atom_site_fract_z
As1 As 0.84368(10) 0.76892(6) 1.04651(6)
Cu1 Cu 0.53573(15) 0.82892(8) 0.81581(9)
V1 V 0.9180(2) 1.08815(12) 1.11303(13)
O1 O 0.8706(8) 0.6571(5) 1.1379(5)
O2 O 0.8953(8) 0.9189(5) 1.1640(5)
O3 O 1.0195(7) 0.7664(5) 0.9691(5)
O4 O 0.6009(7) 0.7157(5) 0.9305(5)
O5 O 1.0724(10) 1.1813(5) 1.2730(5)
O6 O 0.8127(7) 0.9563(4) 0.9220(5)
O7 O 0.3126(8) 0.8877(6) 0.9023(6)
N1 N 0.4498(9) 0.9398(6) 0.6973(6)
N2 N 0.3715(9) 0.6767(6) 0.6471(6)
C1 C 0.4888(12) 1.0750(7) 0.7377(7)
H1 H 0.5783 1.1232 0.8256
C2 C 0.3998(12) 1.1458(8) 0.6525(8)
H2 H 0.4296 1.2402 0.6829
C3 C 0.2672(12) 1.0750(8) 0.5228(8)
H3 H 0.2051 1.1209 0.4645
C4 C 0.2261(11) 0.9326(8) 0.4789(8)
H4 H 0.1376 0.8830 0.3911
C5 C 0.3197(11) 0.8671(7) 0.5689(7)
C6 C 0.2892(11) 0.7186(7) 0.5372(7)
C7 C 0.1891(13) 0.6284(8) 0.4095(8)
H5 H 0.1368 0.6595 0.3358
C8 C 0.1663(15) 0.4877(9) 0.3913(9)
H6 H 0.0976 0.4241 0.3062
C9 C 0.2490(16) 0.4480(8) 0.5037(9)
H7 H 0.2366 0.3562 0.4952
C10 C 0.3507(12) 0.5439(7) 0.6294(8)
H8 H 0.4063 0.5150 0.7041
H9 H 0.825(13) 0.587(10) 1.092(9)
V1A V 1.0820(2) 0.91185(12) 0.88697(13)
V1A_2 V 0.0820(2) 0.91185(12) 0.88697(13)
O3A O 0.9805(7) 1.2336(5) 1.0309(5)
O6A O 1.1873(7) 1.0437(4) 1.0780(5)
O7A O 0.6874(8) 1.1123(6) 1.0977(6)
O8 O 0.7188(8) 0.4038(5) 0.0032(6)
loop_
_geom_bond_atom_site_label_1
_geom_bond_atom_site_label_2
_geom_bond_site_symmetry_1
_geom_bond_site_symmetry_2
As1 O1 1_555 1_555
Cu1 O4 1_555 1_555
V1 O2 1_555 1_555
O1 H9 1_555 1_555
O2 As1 1_555 1_555
O3 As1 1_555 1_555
O4 As1 1_555 1_555
O5 V1 1_555 1_555
O6 Cu1 1_555 1_555
O7 Cu1 1_555 1_555
N1 Cu1 1_555 1_555
N2 Cu1 1_555 1_555
C1 N1 1_555 1_555
H1 C1 1_555 1_555
C2 C1 1_555 1_555
H2 C2 1_555 1_555
C3 C2 1_555 1_555
H3 C3 1_555 1_555
C4 C3 1_555 1_555
H4 C4 1_555 1_555
C5 N1 1_555 1_555
C6 N2 1_555 1_555
C7 C6 1_555 1_555
H5 C7 1_555 1_555
C8 C7 1_555 1_555
H6 C8 1_555 1_555
C9 C8 1_555 1_555
H7 C9 1_555 1_555
C10 N2 1_555 1_555
H8 C10 1_555 1_555
V1A O3 1_555 1_555
V1A_2 O7 1_555 1_555
O3A V1 1_555 1_555
O6A V1 1_555 1_555
O7A V1 1_555 1_555
V1 O6 1_555 1_555
O6 V1A 1_555 1_555
C4 C5 1_555 1_555
C5 C6 1_555 1_555
C9 C10 1_555 1_555
V1A O6A 1_555 1_555

#END
