
#######################################################################
#
#                 Cambridge Crystallographic Data Centre
#                                CCDC 
#
#######################################################################
#
# If this CIF has been generated from an entry in the Cambridge 
# Structural Database, then it will include bibliographic, chemical, 
# crystal, experimental, refinement or atomic coordinate data resulting 
# from the CCDC's data processing and validation procedures.
#
#######################################################################

data_GAHVIW
_symmetry_cell_setting           monoclinic
_symmetry_space_group_name_H-M   'C 2/c'
_symmetry_Int_Tables_number      15
_space_group_name_Hall           '-C 2yn'
loop_
_symmetry_equiv_pos_site_id
_symmetry_equiv_pos_as_xyz
1 x,y,z
2 -x,y,1/2-z
3 1/2+x,1/2+y,z
4 1/2-x,1/2+y,1/2-z
5 -x,-y,-z
6 x,-y,1/2+z
7 1/2-x,1/2-y,-z
8 1/2+x,1/2-y,1/2+z
_cell_length_a                   19.3633(13)
_cell_length_b                   7.7905(5)
_cell_length_c                   11.6914(8)
_cell_angle_alpha                90
_cell_angle_beta                 98.3350(10)
_cell_angle_gamma                90
_cell_volume                     1745.02
loop_
_atom_site_label
_atom_site_type_symbol
_atom_site_fract_x
_atom_site_fract_y
_atom_site_fract_z
As1 As 0.783623(10) 0.53497(3) 0.604356(17)
Cu1 Cu 0.872696(12) 0.86201(3) 0.53249(2)
V1 V 0.673120(18) 0.66802(4) 0.77055(3)
O1 O 0.85629(8) 0.64731(19) 0.60539(14)
O2 O 0.72279(8) 0.55656(19) 0.48986(13)
O3 O 0.75165(8) 0.5633(2) 0.73261(13)
O4 O 0.80719(8) 0.32200(19) 0.61003(13)
O5 O 0.88515(8) 1.0290(2) 0.69952(13)
O6 O 0.86239(9) 0.7336(2) 0.34574(13)
N1 N 0.91300(9) 1.0801(2) 0.46396(15)
N2 N 1.02357(9) 1.1983(2) 0.44023(15)
C1 C 0.98236(11) 1.0768(3) 0.47364(17)
C2 C 0.99210(11) 1.3419(3) 0.39410(19)
H1 H 1.0188 1.4306 0.3703
C3 C 0.91997(11) 1.3581(3) 0.38196(18)
H2 H 0.8980 1.4573 0.3511
C4 C 0.88148(11) 1.2225(3) 0.41697(17)
H3 H 0.8331 1.2303 0.4078
As1F As 0.716377(10) 0.96503(3) 0.395644(17)
Cu1F Cu 0.627304(12) 0.63799(3) 0.46751(2)
Cu1D Cu 1.127304(12) 1.13799(3) 0.46751(2)
Cu1C Cu 0.627304(12) 0.36201(3) 0.96751(2)
V1F V 0.826880(18) 0.83198(4) 0.22945(3)
V1C V 0.826880(18) 0.16802(4) 0.72945(3)
V1C_2 V 0.826880(18) 1.16802(4) 0.72945(3)
V1E V 0.673120(18) 1.33198(4) 0.27055(3)
O1F O 0.64371(8) 0.85269(19) 0.39461(14)
O2F O 0.77721(8) 0.94344(19) 0.51014(13)
O3F O 0.74835(8) 0.9367(2) 0.26739(13)
O4F O 0.69281(8) 1.17800(19) 0.38997(13)
O4C O 0.69281(8) 0.82200(19) 0.88997(13)
O4E O 0.80719(8) 0.67800(19) 0.11003(13)
O5C O 0.61485(8) 0.5290(2) 0.80048(13)
O5F O 0.61485(8) 0.4710(2) 0.30048(13)
O5E O 0.88515(8) 0.9710(2) 0.19952(13)
O6F O 0.63761(9) 0.7664(2) 0.65426(13)
N1D N 1.08700(9) 0.9199(2) 0.53604(15)
N1F N 0.58700(9) 0.4199(2) 0.53604(15)
N2D N 0.97643(9) 0.8017(2) 0.55977(15)
N2B N 0.52357(9) 0.6983(2) 0.44023(15)
C1D C 1.01764(11) 0.9232(3) 0.52636(17)
C2D C 1.00790(11) 0.6581(3) 0.60590(19)
H1D H 0.9812 0.5694 0.6297
C3D C 1.08003(11) 0.6419(3) 0.61804(18)
H2D H 1.1020 0.5427 0.6489
C4D C 1.11852(11) 0.7775(3) 0.58303(17)
H3D H 1.1669 0.7697 0.5922
O7 O 0.0000 0.7010(5) 0.2500
loop_
_geom_bond_atom_site_label_1
_geom_bond_atom_site_label_2
_geom_bond_site_symmetry_1
_geom_bond_site_symmetry_2
As1 O1 1_555 1_555
Cu1 O1 1_555 1_555
V1 O3 1_555 1_555
O2 As1 1_555 1_555
O3 As1 1_555 1_555
O4 As1 1_555 1_555
O5 Cu1 1_555 1_555
O6 Cu1 1_555 1_555
N1 Cu1 1_555 1_555
N2 C1 1_555 1_555
C1 N1 1_555 1_555
C2 N2 1_555 1_555
H1 C2 1_555 1_555
C3 C2 1_555 1_555
H2 C3 1_555 1_555
C4 N1 1_555 1_555
H3 C4 1_555 1_555
As1F O1F 1_555 1_555
Cu1F O2 1_555 1_555
Cu1D N2 1_555 1_555
Cu1C O5C 1_555 1_555
V1F O6 1_555 1_555
V1C O4 1_555 1_555
V1C_2 O5 1_555 1_555
V1E O4F 1_555 1_555
O1F Cu1F 1_555 1_555
O2F Cu1 1_555 1_555
O3F As1F 1_555 1_555
O4F As1F 1_555 1_555
O4C V1 1_555 1_555
O4E V1F 1_555 1_555
O5C V1 1_555 1_555
O5F Cu1F 1_555 1_555
O5E V1F 1_555 1_555
O6F V1 1_555 1_555
N1D Cu1D 1_555 1_555
N1F Cu1F 1_555 1_555
N2D Cu1 1_555 1_555
N2B Cu1F 1_555 1_555
C1D C1 1_555 1_555
C2D N2D 1_555 1_555
H1D C2D 1_555 1_555
C3D C2D 1_555 1_555
H2D C3D 1_555 1_555
C4D N1D 1_555 1_555
H3D C4D 1_555 1_555
C3 C4 1_555 1_555
As1F O2F 1_555 1_555
Cu1F O6F 1_555 1_555
V1F O3F 1_555 1_555
N1D C1D 1_555 1_555
N2D C1D 1_555 1_555
C3D C4D 1_555 1_555

#END
