
#######################################################################
#
#                 Cambridge Crystallographic Data Centre
#                                CCDC 
#
#######################################################################
#
# If this CIF has been generated from an entry in the Cambridge 
# Structural Database, then it will include bibliographic, chemical, 
# crystal, experimental, refinement or atomic coordinate data resulting 
# from the CCDC's data processing and validation procedures.
#
#######################################################################

data_GAHWAP
_symmetry_cell_setting           monoclinic
_symmetry_space_group_name_H-M   'C c'
_symmetry_Int_Tables_number      9
_space_group_name_Hall           'C -2yc'
loop_
_symmetry_equiv_pos_site_id
_symmetry_equiv_pos_as_xyz
1 x,y,z
2 x,-y,1/2+z
3 1/2+x,1/2+y,z
4 1/2+x,1/2-y,1/2+z
_cell_length_a                   10.6664(6)
_cell_length_b                   22.9033(15)
_cell_length_c                   12.3070(6)
_cell_angle_alpha                90
_cell_angle_beta                 94.348(2)
_cell_angle_gamma                90
_cell_volume                     2997.89
loop_
_atom_site_label
_atom_site_type_symbol
_atom_site_fract_x
_atom_site_fract_y
_atom_site_fract_z
Mn1 Mn 0.95303(6) 0.70604(2) 0.66060(5)
C1 C 1.2770(4) 0.83341(17) 0.6097(3)
C2 C 1.4978(5) 0.8979(2) 0.6203(5)
H1 H 1.5727 0.9189 0.6243
C3 C 1.4153(5) 0.90431(19) 0.7005(4)
H2 H 1.4338 0.9300 0.7579
C4 C 1.3050(4) 0.87256(18) 0.6953(4)
H3 H 1.2491 0.8772 0.7491
C5 C 1.4697(4) 0.86079(19) 0.5350(4)
H4 H 1.5239 0.8582 0.4795
C6 C 1.3619(4) 0.8270(2) 0.5299(4)
H5 H 1.3463 0.8002 0.4737
C7 C 1.1585(4) 0.79954(18) 0.6053(4)
C8 C 1.0374(4) 0.83323(17) 0.5841(3)
C9 C 1.0368(4) 0.89054(17) 0.5497(4)
H6 H 1.1113 0.9116 0.5502
C10 C 0.8224(4) 0.82770(18) 0.5557(4)
H7 H 0.7481 0.8066 0.5579
C11 C 0.8160(4) 0.88406(18) 0.5164(4)
H8 H 0.7390 0.9001 0.4913
C12 C 0.9237(4) 0.91614(19) 0.5145(4)
H9 H 0.9209 0.9546 0.4900
N1 N 0.9307(3) 0.80192(14) 0.5909(3)
N2 N 1.3507(4) 0.81752(16) 1.0005(3)
N3 N 0.7594(4) 0.72438(15) 0.7445(3)
N4 N 0.8569(4) 0.62068(14) 0.7082(3)
N5 N 1.1007(3) 0.63266(13) 0.6568(3)
H10 H 1.1045 0.6224 0.5856
N6 N 1.1475(3) 0.74454(15) 0.6117(3)
N7 N 1.0279(4) 0.73893(18) 0.8240(3)
C13 C 0.5731(4) 0.68205(19) 0.8080(4)
H11 H 0.5252 0.6489 0.8186
C14 C 0.5297(4) 0.73609(19) 0.8358(4)
H12 H 0.4519 0.7401 0.8643
C15 C 0.6875(4) 0.67714(17) 0.7645(4)
C16 C 0.6036(4) 0.78423(19) 0.8207(4)
H13 H 0.5778 0.8212 0.8407
C17 C 0.7165(4) 0.77639(18) 0.7753(4)
H14 H 0.7659 0.8091 0.7654
C18 C 1.2464(5) 0.81602(18) 0.9675(4)
C19 C 1.2568(4) 0.70629(17) 0.6244(4)
H15 H 1.3281 0.7275 0.6584
H16 H 1.2786 0.6928 0.5536
C20 C 1.2264(4) 0.65459(18) 0.6947(4)
H17 H 1.2886 0.6241 0.6889
H18 H 1.2272 0.6665 0.7704
C21 C 1.0636(5) 0.58051(19) 0.7141(4)
H19 H 1.0760 0.5865 0.7922
H20 H 1.1146 0.5476 0.6949
C22 C 0.9274(4) 0.56832(18) 0.6824(5)
H21 H 0.9153 0.5598 0.6051
H22 H 0.8989 0.5351 0.7226
C23 C 0.7478(4) 0.61923(17) 0.7434(4)
C24 C 0.6782(4) 0.56558(17) 0.7720(4)
C25 C 0.5673(5) 0.5492(2) 0.7138(5)
H23 H 0.5375 0.5706 0.6531
C26 C 0.7249(5) 0.5307(2) 0.8588(4)
H24 H 0.8009 0.5406 0.8964
C27 C 0.6609(6) 0.4821(2) 0.8900(5)
H25 H 0.6929 0.4597 0.9488
C28 C 0.5510(7) 0.4670(2) 0.8346(6)
H26 H 0.5087 0.4339 0.8556
C29 C 0.4996(5) 0.5001(3) 0.7466(5)
H27 H 0.4228 0.4900 0.7106
C30 C 1.0786(4) 0.7750(2) 0.8755(4)
N8 N 1.1272(4) 0.81826(18) 0.9335(4)
Mn1C Mn 1.45303(6) 0.79396(2) 1.16060(5)
N2C N 0.8507(4) 0.68248(16) 0.5005(3)
Cl1 Cl 0.20412(13) 0.44725(5) 0.91522(11)
O1 O 0.0872(4) 0.42210(19) 0.9359(3)
O2 O 0.2950(4) 0.4344(3) 1.0012(4)
O3 O 0.2042(7) 0.50505(19) 0.9011(6)
O4 O 0.2370(6) 0.4258(3) 0.8115(5)
loop_
_geom_bond_atom_site_label_1
_geom_bond_atom_site_label_2
_geom_bond_site_symmetry_1
_geom_bond_site_symmetry_2
Mn1 N1 1_555 1_555
Cl1 O1 1_555 1_555
C1 C4 1_555 1_555
C2 H1 1_555 1_555
C3 C2 1_555 1_555
H2 C3 1_555 1_555
C4 C3 1_555 1_555
H3 C4 1_555 1_555
C5 C2 1_555 1_555
H4 C5 1_555 1_555
C6 C1 1_555 1_555
H5 C6 1_555 1_555
C7 C1 1_555 1_555
C8 C7 1_555 1_555
C9 C8 1_555 1_555
H6 C9 1_555 1_555
C10 H7 1_555 1_555
C11 C10 1_555 1_555
H8 C11 1_555 1_555
C12 C9 1_555 1_555
H9 C12 1_555 1_555
N1 C8 1_555 1_555
N2 C18 1_555 1_555
N3 Mn1 1_555 1_555
N4 Mn1 1_555 1_555
N5 Mn1 1_555 1_555
H10 N5 1_555 1_555
N6 Mn1 1_555 1_555
N7 Mn1 1_555 1_555
C13 H11 1_555 1_555
C14 C13 1_555 1_555
H12 C14 1_555 1_555
C15 N3 1_555 1_555
C16 C14 1_555 1_555
H13 C16 1_555 1_555
C17 N3 1_555 1_555
H14 C17 1_555 1_555
C18 N8 1_555 1_555
C19 N6 1_555 1_555
H15 C19 1_555 1_555
H16 C19 1_555 1_555
C20 N5 1_555 1_555
H17 C20 1_555 1_555
H18 C20 1_555 1_555
C21 N5 1_555 1_555
H19 C21 1_555 1_555
H20 C21 1_555 1_555
C22 N4 1_555 1_555
H21 C22 1_555 1_555
H22 C22 1_555 1_555
C23 N4 1_555 1_555
C24 C23 1_555 1_555
C25 C24 1_555 1_555
H23 C25 1_555 1_555
C26 C24 1_555 1_555
H24 C26 1_555 1_555
C27 C26 1_555 1_555
H25 C27 1_555 1_555
C28 C27 1_555 1_555
H26 C28 1_555 1_555
C29 C25 1_555 1_555
H27 C29 1_555 1_555
C30 N7 1_555 1_555
N8 C30 1_555 1_555
O2 Cl1 1_555 1_555
O3 Cl1 1_555 1_555
O4 Cl1 1_555 1_555
Mn1C N2 1_555 1_555
N2C Mn1 1_555 1_555
C5 C6 1_555 1_555
C7 N6 1_555 1_555
C10 N1 1_555 1_555
C11 C12 1_555 1_555
C13 C15 1_555 1_555
C15 C23 1_555 1_555
C16 C17 1_555 1_555
C19 C20 1_555 1_555
C21 C22 1_555 1_555
C28 C29 1_555 1_555

#END
