
#######################################################################
#
#                 Cambridge Crystallographic Data Centre
#                                CCDC 
#
#######################################################################
#
# If this CIF has been generated from an entry in the Cambridge 
# Structural Database, then it will include bibliographic, chemical, 
# crystal, experimental, refinement or atomic coordinate data resulting 
# from the CCDC's data processing and validation procedures.
#
#######################################################################

data_GAHWOD
_symmetry_cell_setting           monoclinic
_symmetry_space_group_name_H-M   'P 21/n'
_symmetry_Int_Tables_number      14
_space_group_name_Hall           '-P 2yn'
loop_
_symmetry_equiv_pos_site_id
_symmetry_equiv_pos_as_xyz
1 x,y,z
2 1/2-x,1/2+y,1/2-z
3 -x,-y,-z
4 1/2+x,1/2-y,1/2+z
_cell_length_a                   13.0139(13)
_cell_length_b                   27.361(3)
_cell_length_c                   17.7274(18)
_cell_angle_alpha                90
_cell_angle_beta                 90.687(5)
_cell_angle_gamma                90
_cell_volume                     6311.8
loop_
_atom_site_label
_atom_site_type_symbol
_atom_site_fract_x
_atom_site_fract_y
_atom_site_fract_z
C1 C 0.8767(7) 0.4828(3) 0.1253(5)
C2 C 0.9655(7) 0.5032(3) 0.0965(6)
C3 C 1.0582(7) 0.4880(3) 0.1234(5)
C4 C 1.0637(7) 0.4513(3) 0.1798(5)
C5 C 0.9711(6) 0.4335(3) 0.2049(5)
C6 C 1.1658(6) 0.4356(3) 0.2105(5)
C7 C 1.2306(7) 0.4716(3) 0.2609(5)
C8 C 1.2626(6) 0.4272(3) 0.3126(5)
C9 C 1.1744(6) 0.3959(3) 0.2736(5)
C10 C 1.1917(7) 0.3438(3) 0.2542(5)
C11 C 1.2309(7) 0.3119(3) 0.3098(5)
C12 C 1.2534(7) 0.2649(3) 0.2911(5)
C13 C 1.1929(7) 0.2759(3) 0.1706(5)
C14 C 1.1710(7) 0.3244(3) 0.1848(5)
C15 C 1.1726(7) 0.5119(3) 0.3002(5)
C16 C 1.0848(7) 0.5051(3) 0.3420(5)
C17 C 1.0358(8) 0.5446(3) 0.3744(6)
C18 C 1.0758(7) 0.5912(3) 0.3625(5)
C19 C 1.2084(7) 0.5593(3) 0.2931(5)
C20 C 1.3731(7) 0.4142(3) 0.3018(5)
C21 C 1.4132(7) 0.3838(3) 0.2460(5)
C22 C 1.5175(7) 0.3787(3) 0.2377(5)
C23 C 1.5494(7) 0.4300(3) 0.3352(5)
C24 C 1.4471(7) 0.4364(3) 0.3487(5)
C25 C 0.7053(7) 0.5339(3) 0.2415(5)
C26 C 0.5765(7) 0.4958(3) 0.1755(5)
C27 C 0.5239(7) 0.5393(3) 0.1666(6)
C28 C 0.5669(7) 0.5818(3) 0.1956(6)
C29 C 0.6579(7) 0.5789(3) 0.2352(5)
C30 C 0.7133(7) 0.6232(3) 0.2675(5)
C31 C 0.6499(6) 0.6633(3) 0.3085(5)
C32 C 0.6548(6) 0.6945(3) 0.2349(5)
C33 C 0.7463(7) 0.6622(3) 0.2080(5)
C34 C 0.8556(7) 0.6770(3) 0.2202(5)
C35 C 0.8913(7) 0.7085(3) 0.2762(6)
C36 C 0.9954(7) 0.7123(3) 0.2901(5)
C37 C 1.0317(7) 0.6567(4) 0.1983(6)
C38 C 0.9304(7) 0.6515(3) 0.1796(5)
C39 C 0.5491(7) 0.6492(3) 0.3438(5)
C40 C 0.5519(7) 0.6169(4) 0.4048(6)
C41 C 0.4626(8) 0.6027(4) 0.4367(6)
C42 C 0.3701(7) 0.6213(3) 0.4095(5)
C43 C 0.4545(7) 0.6657(3) 0.3197(5)
C44 C 0.6682(7) 0.7495(3) 0.2411(5)
C45 C 0.6428(7) 0.7748(3) 0.3063(5)
C46 C 0.6653(7) 0.8243(3) 0.3099(6)
C47 C 0.7298(7) 0.8249(3) 0.1908(5)
C48 C 0.7118(7) 0.7753(3) 0.1818(5)
H1 H 0.8121 0.4937 0.1061
H2 H 0.9615 0.5275 0.0583
H3 H 1.1195 0.5019 0.1044
H4 H 0.9728 0.4091 0.2429
H5 H 1.2092 0.4251 0.1673
H6 H 1.2908 0.4848 0.2329
H7 H 1.2474 0.4338 0.3668
H8 H 1.1117 0.398 0.3055
H9 H 1.2415 0.3231 0.36
H10 H 1.2835 0.2445 0.3286
H11 H 1.1769 0.2633 0.1219
H12 H 1.1416 0.3442 0.1462
H13 H 1.058 0.4731 0.3486
H14 H 0.9763 0.54 0.4042
H15 H 1.0406 0.6185 0.3829
H16 H 1.2695 0.5645 0.2653
H17 H 1.3678 0.3664 0.2134
H18 H 1.5417 0.3573 0.1997
H19 H 1.597 0.4467 0.3672
H20 H 1.426 0.4559 0.39
H21 H 0.7694 0.5321 0.2675
H22 H 0.5477 0.467 0.1541
H23 H 0.4594 0.5401 0.141
H24 H 0.5339 0.6125 0.1882
H25 H 0.7736 0.6129 0.2992
H26 H 0.6945 0.6789 0.3479
H27 H 0.5929 0.6873 0.2028
H28 H 0.7343 0.6501 0.1554
H29 H 0.8442 0.7274 0.3046
H30 H 1.0178 0.735 0.3274
H31 H 1.0806 0.6387 0.1703
H32 H 0.9105 0.6307 0.139
H33 H 0.6158 0.6051 0.4237
H34 H 0.4633 0.5802 0.4774
H35 H 0.308 0.6117 0.4329
H36 H 0.4518 0.6878 0.2784
H37 H 0.6109 0.7586 0.3472
H38 H 0.6496 0.8415 0.355
H39 H 0.7592 0.8423 0.1501
H40 H 0.7289 0.7593 0.1361
N1 N 0.8780(5) 0.4484(2) 0.1792(4)
N2 N 1.2351(6) 0.2457(2) 0.2213(4)
N3 N 1.1609(6) 0.5992(2) 0.3238(4)
N4 N 1.5869(5) 0.4025(2) 0.2809(4)
N5 N 0.6654(5) 0.4925(2) 0.2126(4)
N6 N 1.0670(5) 0.6862(2) 0.2548(4)
N7 N 0.3659(5) 0.6523(3) 0.3516(4)
N8 N 0.7079(5) 0.8492(2) 0.2536(4)
O1 O 0.6825(5) 0.3999(2) 0.1203(4)
O2 O 0.7996(5) 0.4420(2) 0.3372(4)
O3 O 1.3259(5) 0.1964(2) 0.0875(4)
O4 O 1.2216(5) 0.1511(2) 0.3060(4)
Zn1 Zn 0.73853(7) 0.42188(3) 0.23067(6)
Zn2 Zn 1.28079(8) 0.17263(3) 0.19664(6)
N3A N 1.3391(6) 0.0992(2) 0.1762(4)
N4_2 N 0.5869(5) 0.4025(2) 0.2809(4)
N6A N 1.4330(5) 0.1862(2) 0.2452(4)
N7A N 1.1341(5) 0.1523(3) 0.1484(4)
N8A N 0.7921(5) 0.3492(2) 0.2464(4)
Zn1_2 Zn 1.73853(7) 0.42188(3) 0.23067(6)
Zn1A Zn 0.76147(7) 0.92188(3) 0.26933(6)
Zn2A Zn 1.21921(8) 0.67263(3) 0.30336(6)
Zn2A_2 Zn 0.21921(8) 0.67263(3) 0.30336(6)
C49 C 0.4191(12) 0.1384(5) 0.5030(8)
C50 C 0.4913(11) 0.1794(5) 0.5111(7)
C51 C 0.5265(10) 0.2599(5) 0.4661(8)
C52 C 0.4902(11) 0.2977(5) 0.4112(8)
H41 H 0.3497 0.1493 0.5159
H42 H 0.44 0.1118 0.537
H43 H 0.4193 0.1266 0.4508
H44 H 0.498 0.1887 0.5649
H45 H 0.5599 0.1696 0.493
H46 H 0.5946 0.2474 0.451
H47 H 0.5335 0.2745 0.517
H48 H 0.4802 0.2827 0.3615
H49 H 0.5416 0.3238 0.4078
H50 H 0.425 0.3114 0.4283
O17 O 0.4537(6) 0.2208(3) 0.4673(4)
C53 C 0.7837(12) 0.0794(4) 0.5039(7)
C54 C 0.8888(10) 0.0688(5) 0.5307(8)
H51 H 0.9372 0.0907 0.5056
H52 H 0.9061 0.0348 0.519
H53 H 0.8931 0.0739 0.5854
N13 N 0.7037(9) 0.0884(5) 0.4848(8)
N9 N 0.5585(8) 0.8645(4) 0.0517(5)
O5 O 0.5026(8) 0.8357(4) 0.0163(7)
O6 O 0.6488(6) 0.8691(3) 0.0352(5)
O7 O 0.5247(8) 0.8878(4) 0.1061(5)
N10 N 0.7744(7) 0.0243(3) 0.0290(5)
O8 O 0.8155(10) -0.0129(4) 0.0122(7)
O9 O 0.7851(7) 0.0615(3) -0.0119(4)
O10 O 0.7251(8) 0.0278(3) 0.0885(5)
N11 N 0.8656(7) 0.1979(3) 0.4974(5)
O11 O 0.9132(6) 0.1735(3) 0.4494(5)
O12 O 0.9076(6) 0.2088(3) 0.5582(5)
O13 O 0.7771(7) 0.2121(3) 0.4838(5)
N12 N 0.2021(8) 0.0687(3) 0.4418(5)
O14 O 0.2354(7) 0.0609(3) 0.3783(4)
O15 O 0.1434(9) 0.1047(4) 0.4509(5)
O16 O 0.2148(10) 0.0409(3) 0.4947(5)
O18 O 1.0921(6) 0.2097(3) 0.3832(4)
O19 O 0.6178(6) 0.3077(2) 0.0915(4)
O20 O 0.2444(7) 0.2484(3) 0.4943(5)
O21 O 0.2952(8) 0.8454(4) -0.0127(7)
loop_
_geom_bond_atom_site_label_1
_geom_bond_atom_site_label_2
_geom_bond_site_symmetry_1
_geom_bond_site_symmetry_2
C1 C2 1_555 1_555
C2 C3 1_555 1_555
C3 C4 1_555 1_555
C4 C5 1_555 1_555
C5 H4 1_555 1_555
C6 C4 1_555 1_555
C7 C6 1_555 1_555
C8 C7 1_555 1_555
C9 C6 1_555 1_555
C10 C9 1_555 1_555
C11 C10 1_555 1_555
C12 C11 1_555 1_555
C13 C14 1_555 1_555
C14 C10 1_555 1_555
C15 C7 1_555 1_555
C16 C15 1_555 1_555
C17 C16 1_555 1_555
C18 C17 1_555 1_555
C19 C15 1_555 1_555
C20 C8 1_555 1_555
C21 C20 1_555 1_555
C22 C21 1_555 1_555
C23 C24 1_555 1_555
C24 C20 1_555 1_555
C25 C29 1_555 1_555
C26 C27 1_555 1_555
C27 C28 1_555 1_555
C28 C29 1_555 1_555
C29 C30 1_555 1_555
C30 C31 1_555 1_555
C31 C32 1_555 1_555
C32 C33 1_555 1_555
C33 C30 1_555 1_555
C34 C33 1_555 1_555
C35 C34 1_555 1_555
C36 C35 1_555 1_555
C37 C38 1_555 1_555
C38 C34 1_555 1_555
C39 C31 1_555 1_555
C40 C39 1_555 1_555
C41 C40 1_555 1_555
C42 C41 1_555 1_555
C43 C39 1_555 1_555
C44 C32 1_555 1_555
C45 C44 1_555 1_555
C46 C45 1_555 1_555
C47 C48 1_555 1_555
C48 C44 1_555 1_555
C49 C50 1_555 1_555
C50 H44 1_555 1_555
C51 C52 1_555 1_555
C52 H48 1_555 1_555
C53 C54 1_555 1_555
C54 H51 1_555 1_555
H1 C1 1_555 1_555
H2 C2 1_555 1_555
H3 C3 1_555 1_555
H5 C6 1_555 1_555
H6 C7 1_555 1_555
H7 C8 1_555 1_555
H8 C9 1_555 1_555
H9 C11 1_555 1_555
H10 C12 1_555 1_555
H11 C13 1_555 1_555
H12 C14 1_555 1_555
H13 C16 1_555 1_555
H14 C17 1_555 1_555
H15 C18 1_555 1_555
H16 C19 1_555 1_555
H17 C21 1_555 1_555
H18 C22 1_555 1_555
H19 C23 1_555 1_555
H20 C24 1_555 1_555
H21 C25 1_555 1_555
H22 C26 1_555 1_555
H23 C27 1_555 1_555
H24 C28 1_555 1_555
H25 C30 1_555 1_555
H26 C31 1_555 1_555
H27 C32 1_555 1_555
H28 C33 1_555 1_555
H29 C35 1_555 1_555
H30 C36 1_555 1_555
H31 C37 1_555 1_555
H32 C38 1_555 1_555
H33 C40 1_555 1_555
H34 C41 1_555 1_555
H35 C42 1_555 1_555
H36 C43 1_555 1_555
H37 C45 1_555 1_555
H38 C46 1_555 1_555
H39 C47 1_555 1_555
H40 C48 1_555 1_555
H41 C49 1_555 1_555
H42 C49 1_555 1_555
H43 C49 1_555 1_555
H45 C50 1_555 1_555
H46 C51 1_555 1_555
H47 C51 1_555 1_555
H49 C52 1_555 1_555
H50 C52 1_555 1_555
H52 C54 1_555 1_555
H53 C54 1_555 1_555
N1 C1 1_555 1_555
N2 C12 1_555 1_555
N3 C18 1_555 1_555
N4 C22 1_555 1_555
N5 C25 1_555 1_555
N6 C36 1_555 1_555
N7 C42 1_555 1_555
N8 C46 1_555 1_555
N9 O5 1_555 1_555
N10 O8 1_555 1_555
N11 O11 1_555 1_555
N12 O14 1_555 1_555
N13 C53 1_555 1_555
O1 Zn1 1_555 1_555
O2 Zn1 1_555 1_555
O3 Zn2 1_555 1_555
O4 Zn2 1_555 1_555
O6 N9 1_555 1_555
O7 N9 1_555 1_555
O9 N10 1_555 1_555
O10 N10 1_555 1_555
O12 N11 1_555 1_555
O13 N11 1_555 1_555
O15 N12 1_555 1_555
O16 N12 1_555 1_555
O17 C50 1_555 1_555
Zn1 N1 1_555 1_555
Zn2 N2 1_555 1_555
N3A Zn2 1_555 1_555
N4_2 Zn1 1_555 1_555
N6A Zn2 1_555 1_555
N7A Zn2 1_555 1_555
N8A Zn1 1_555 1_555
Zn1_2 N4 1_555 1_555
Zn1A N8 1_555 1_555
Zn2A N3 1_555 1_555
Zn2A_2 N7 1_555 1_555
C5 N1 1_555 1_555
C8 C9 1_555 1_555
C13 N2 1_555 1_555
C19 N3 1_555 1_555
C23 N4 1_555 1_555
C26 N5 1_555 1_555
C37 N6 1_555 1_555
C43 N7 1_555 1_555
C47 N8 1_555 1_555
C51 O17 1_555 1_555
N5 Zn1 1_555 1_555
N6 Zn2A 1_555 1_555

#END
