
#######################################################################
#
#                 Cambridge Crystallographic Data Centre
#                                CCDC 
#
#######################################################################
#
# If this CIF has been generated from an entry in the Cambridge 
# Structural Database, then it will include bibliographic, chemical, 
# crystal, experimental, refinement or atomic coordinate data resulting 
# from the CCDC's data processing and validation procedures.
#
#######################################################################

data_GAHXAQ
_symmetry_cell_setting           monoclinic
_symmetry_space_group_name_H-M   'P 21/c'
_symmetry_Int_Tables_number      14
_space_group_name_Hall           '-P 2ybc'
loop_
_symmetry_equiv_pos_site_id
_symmetry_equiv_pos_as_xyz
1 x,y,z
2 -x,1/2+y,1/2-z
3 -x,-y,-z
4 x,1/2-y,1/2+z
_cell_length_a                   7.8023(6)
_cell_length_b                   31.614(2)
_cell_length_c                   15.2690(12)
_cell_angle_alpha                90
_cell_angle_beta                 103.204(2)
_cell_angle_gamma                90
_cell_volume                     3666.71
loop_
_atom_site_label
_atom_site_type_symbol
_atom_site_fract_x
_atom_site_fract_y
_atom_site_fract_z
Zn1 Zn 0.24394(9) 0.38523(2) -0.01841(6)
S1 S 0.44911(19) 0.31443(6) 0.29416(11)
S2 S 0.03388(19) 0.30558(6) 0.70361(10)
O1 O 0.3347(5) 0.35263(18) 0.1298(3)
O2 O 0.4824(5) 0.36166(14) 0.0281(3)
O3 O 0.1438(5) 0.34008(16) 0.8694(3)
O4 O -0.0185(5) 0.36940(15) 0.9500(3)
N1 N 0.2244(7) 0.4452(2) 0.0411(5)
N2 N 0.2880(8) 0.4292(2) -0.1213(4)
C1 C 0.4747(8) 0.34933(19) 0.1052(4)
C2 C 0.6374(7) 0.33194(19) 0.1653(4)
C3 C 0.7929(8) 0.3331(2) 0.1347(4)
H1 H 0.7899 0.3438 0.0776
C4 C 0.9488(8) 0.3190(2) 0.1860(4)
H2 H 1.0508 0.3204 0.1644
C5 C 0.9538(8) 0.3027(2) 0.2690(5)
H3 H 1.0589 0.2922 0.3036
C6 C 0.8037(8) 0.3018(2) 0.3019(4)
H4 H 0.8100 0.2910 0.3592
C7 C 0.6427(7) 0.3165(2) 0.2520(4)
C8 C 0.5323(8) 0.2945(2) 0.4067(4)
H5 H 0.5823 0.2665 0.4042
H6 H 0.6240 0.3130 0.4394
C9 C 0.3824(8) 0.2923(2) 0.4543(4)
C10 C 0.3132(9) 0.3291(2) 0.4804(5)
H7 H 0.3591 0.3551 0.4688
C11 C 0.1741(9) 0.3275(2) 0.5245(5)
H8 H 0.1290 0.3525 0.5422
C12 C 0.1032(8) 0.2893(2) 0.5419(4)
C13 C 0.1749(9) 0.2530(2) 0.5153(4)
H9 H 0.1302 0.2270 0.5276
C14 C 0.3099(9) 0.2539(2) 0.4713(4)
H10 H 0.3529 0.2287 0.4529
C15 C -0.0468(8) 0.2880(2) 0.5885(4)
H11 H -0.0922 0.2594 0.5878
H12 H -0.1413 0.3063 0.5578
C16 C -0.1631(7) 0.3079(2) 0.7434(4)
C17 C -0.3202(8) 0.2910(2) 0.6936(4)
H13 H -0.3214 0.2776 0.6392
C18 C -0.4731(8) 0.2937(2) 0.7232(5)
H14 H -0.5768 0.2825 0.6885
C19 C -0.4739(8) 0.3129(2) 0.8035(4)
H15 H -0.5774 0.3145 0.8238
C20 C -0.3219(7) 0.3297(2) 0.8533(4)
H16 H -0.3237 0.3430 0.9074
C21 C -0.1640(7) 0.32757(18) 0.8258(4)
C22 C -0.0057(8) 0.34660(19) 0.8846(4)
C23 C 0.1905(10) 0.4501(4) 0.1188(6)
H17 H 0.1737 0.4266 0.1525
C24 C 0.1782(13) 0.4931(4) 0.1548(8)
H18 H 0.1556 0.4970 0.2115
C25 C 0.2007(12) 0.5273(4) 0.1028(9)
H19 H 0.1889 0.5547 0.1227
C26 C 0.2431(9) 0.5200(3) 0.0169(8)
C27 C 0.2659(13) 0.5531(3) -0.0326(11)
H20 H 0.2553 0.5807 -0.0133
C28 C 0.3065(12) 0.5445(4) -0.1147(11)
H21 H 0.3305 0.5672 -0.1489
C29 C 0.3134(10) 0.5034(3) -0.1492(8)
C30 C 0.3431(15) 0.4938(4) -0.2324(10)
H22 H 0.3627 0.5156 -0.2698
C31 C 0.3444(15) 0.4534(5) -0.2612(7)
H23 H 0.3637 0.4471 -0.3176
C32 C 0.3145(13) 0.4200(3) -0.2006(7)
H24 H 0.3142 0.3919 -0.2185
C33 C 0.2855(9) 0.4692(3) -0.0955(6)
C34 C 0.2500(7) 0.4782(2) -0.0081(5)
Zn1_2 Zn 0.24394(9) 0.38523(2) 0.98159(6)
O3_2 O 0.1438(5) 0.34008(16) -0.1306(3)
O4_2 O -0.0185(5) 0.36940(15) -0.0500(3)
O5 O 0.211(10) 0.5696(18) 0.359(4)
O6 O 0.125(6) 0.4298(8) 0.3643(16)
O7? O 0.263(8) 0.5916(12) 0.395(5)
O8? O 0.470(5) 0.4274(9) 0.339(2)
loop_
_geom_bond_atom_site_label_1
_geom_bond_atom_site_label_2
_geom_bond_site_symmetry_1
_geom_bond_site_symmetry_2
Zn1 O1 1_555 1_555
S1 C7 1_555 1_555
S2 C15 1_555 1_555
O1 C1 1_555 1_555
O2 Zn1 1_555 1_555
O3 C22 1_555 1_555
O4 C22 1_555 1_555
N1 Zn1 1_555 1_555
N2 Zn1 1_555 1_555
C1 O2 1_555 1_555
C2 C1 1_555 1_555
C3 C2 1_555 1_555
H1 C3 1_555 1_555
C4 C3 1_555 1_555
H2 C4 1_555 1_555
C5 C4 1_555 1_555
H3 C5 1_555 1_555
C6 C5 1_555 1_555
H4 C6 1_555 1_555
C7 C2 1_555 1_555
C8 S1 1_555 1_555
H5 C8 1_555 1_555
H6 C8 1_555 1_555
C9 C8 1_555 1_555
C10 C9 1_555 1_555
H7 C10 1_555 1_555
C11 C10 1_555 1_555
H8 C11 1_555 1_555
C12 C11 1_555 1_555
C13 C12 1_555 1_555
H9 C13 1_555 1_555
C14 C9 1_555 1_555
H10 C14 1_555 1_555
C15 C12 1_555 1_555
H11 C15 1_555 1_555
H12 C15 1_555 1_555
C16 S2 1_555 1_555
C17 C16 1_555 1_555
H13 C17 1_555 1_555
C18 C17 1_555 1_555
H14 C18 1_555 1_555
C19 C18 1_555 1_555
H15 C19 1_555 1_555
C20 C19 1_555 1_555
H16 C20 1_555 1_555
C21 C16 1_555 1_555
C22 C21 1_555 1_555
C23 N1 1_555 1_555
H17 C23 1_555 1_555
C24 C23 1_555 1_555
H18 C24 1_555 1_555
C25 C24 1_555 1_555
H19 C25 1_555 1_555
C26 C25 1_555 1_555
C27 C26 1_555 1_555
H20 C27 1_555 1_555
C28 C27 1_555 1_555
H21 C28 1_555 1_555
C29 C28 1_555 1_555
C30 C29 1_555 1_555
H22 C30 1_555 1_555
C31 C30 1_555 1_555
H23 C31 1_555 1_555
C32 N2 1_555 1_555
H24 C32 1_555 1_555
C33 N2 1_555 1_555
C34 N1 1_555 1_555
Zn1_2 O3 1_555 1_555
O3_2 Zn1 1_555 1_555
O4_2 Zn1 1_555 1_555
O4 Zn1_2 1_555 1_555
C6 C7 1_555 1_555
C13 C14 1_555 1_555
C20 C21 1_555 1_555
C26 C34 1_555 1_555
C29 C33 1_555 1_555
C31 C32 1_555 1_555
C33 C34 1_555 1_555

#END
