
#######################################################################
#
#                 Cambridge Crystallographic Data Centre
#                                CCDC 
#
#######################################################################
#
# If this CIF has been generated from an entry in the Cambridge 
# Structural Database, then it will include bibliographic, chemical, 
# crystal, experimental, refinement or atomic coordinate data resulting 
# from the CCDC's data processing and validation procedures.
#
#######################################################################

data_GAHXEU
_symmetry_cell_setting           triclinic
_symmetry_space_group_name_H-M   'P -1'
_symmetry_Int_Tables_number      2
_space_group_name_Hall           '-P 1'
loop_
_symmetry_equiv_pos_site_id
_symmetry_equiv_pos_as_xyz
1 x,y,z
2 -x,-y,-z
_cell_length_a                   12.2854(19)
_cell_length_b                   13.199(2)
_cell_length_c                   14.514(2)
_cell_angle_alpha                66.739(2)
_cell_angle_beta                 65.433(3)
_cell_angle_gamma                63.684(2)
_cell_volume                     1853.5
loop_
_atom_site_label
_atom_site_type_symbol
_atom_site_fract_x
_atom_site_fract_y
_atom_site_fract_z
Zn1 Zn 0.24375(5) 0.88489(4) 0.36732(4)
Zn2 Zn -0.03303(5) 0.88652(4) 0.53067(4)
O1 O 0.0812(3) 0.7558(3) 0.6109(2)
O2 O 0.2651(3) 0.7460(3) 0.4841(3)
O3 O 0.1507(3) 0.6283(3) 0.7943(2)
O4 O -0.2740(3) 1.0697(3) 0.9776(2)
O5 O -0.3204(3) 1.1550(3) 0.7640(2)
O6 O -0.2010(5) 1.2566(5) 0.7279(4)
O7 O 0.0652(3) 0.9831(2) 0.4038(2)
O8 O 0.3533(3) 0.9584(3) 0.3628(3)
O9 O 0.2091(3) 1.1119(3) 0.4188(3)
O10 O 0.2879(3) 1.2630(3) 0.4236(3)
O11 O -0.0078(5) 0.7892(4) 0.4338(4)
C1 C 0.1971(5) 0.7049(4) 0.5714(4)
C2 C 0.2603(4) 0.5843(4) 0.6296(4)
C3 C 0.3517(4) 0.5041(4) 0.5729(4)
H1 H 0.3730 0.5285 0.5001
C4 C 0.4129(5) 0.3894(4) 0.6196(4)
H2 H 0.4725 0.3376 0.5790
C5 C 0.3839(5) 0.3538(4) 0.7267(4)
H3 H 0.4247 0.2775 0.7595
C6 C 0.2939(5) 0.4313(4) 0.7862(4)
H4 H 0.2735 0.4059 0.8589
C7 C 0.2341(4) 0.5454(4) 0.7396(4)
C8 C 0.1055(5) 0.5842(4) 0.9058(4)
H5 H 0.0703 0.5243 0.9217
H6 H 0.1748 0.5499 0.9363
C9 C 0.0043(5) 0.6852(4) 0.9505(4)
C10 C 0.0338(5) 0.7340(4) 1.0037(4)
C11 C -0.0603(5) 0.8244(4) 1.0475(4)
C12 C -0.1807(5) 0.8678(4) 1.0350(4)
C13 C -0.2092(5) 0.8215(4) 0.9793(4)
C14 C -0.1158(5) 0.7294(4) 0.9370(4)
C15 C 0.1701(6) 0.6924(6) 1.0069(5)
H7 H 0.2219 0.6299 0.9731
H8 H 0.2029 0.7562 0.9711
H9 H 0.1712 0.6651 1.0785
C16 C -0.0290(6) 0.8773(5) 1.1070(5)
H10 H -0.1034 0.9382 1.1325
H11 H -0.0017 0.8174 1.1650
H12 H 0.0374 0.9091 1.0605
C17 C -0.3392(5) 0.8719(5) 0.9640(5)
H13 H -0.3916 0.9341 0.9981
H14 H -0.3315 0.9018 0.8904
H15 H -0.3771 0.8118 0.9938
C18 C -0.1426(5) 0.6810(5) 0.8722(4)
H16 H -0.0685 0.6184 0.8491
H17 H -0.2123 0.6520 0.9143
H18 H -0.1640 0.7420 0.8123
C19 C -0.2809(5) 0.9760(4) 1.0706(4)
H19 H -0.2622 0.9884 1.1233
H20 H -0.3645 0.9685 1.0995
C20 C -0.3626(4) 1.1782(4) 0.9816(4)
C21 C -0.4409(5) 1.2121(5) 1.0735(4)
H21 H -0.4377 1.1586 1.1382
C22 C -0.5225(5) 1.3242(5) 1.0686(5)
H22 H -0.5738 1.3472 1.1302
C23 C -0.5296(5) 1.4026(5) 0.9744(5)
H23 H -0.5867 1.4784 0.9721
C24 C -0.4521(5) 1.3703(4) 0.8816(4)
H24 H -0.4564 1.4246 0.8174
C25 C -0.3685(4) 1.2571(4) 0.8849(4)
C26 C -0.2879(5) 1.2203(4) 0.7841(4)
C27 C 0.3205(5) 1.0501(4) 0.3879(3)
C28 C 0.4266(4) 1.0851(4) 0.3777(3)
C29 C 0.5500(5) 1.0093(4) 0.3530(4)
H25 H 0.5634 0.9392 0.3423
C30 C 0.6537(5) 1.0318(5) 0.3432(4)
H26 H 0.7348 0.9774 0.3284
C31 C 0.6341(6) 1.1371(6) 0.3560(4)
H27 H 0.7035 1.1551 0.3473
C32 C 0.5144(5) 1.2159(5) 0.3813(5)
H28 H 0.5031 1.2866 0.3895
C33 C 0.4087(5) 1.1897(4) 0.3949(4)
C34 C 0.2698(5) 1.3725(5) 0.4400(5)
H29 H 0.3120 1.4193 0.3762
H30 H 0.3048 1.3566 0.4951
C35 C 0.1285(5) 1.4364(5) 0.4709(5)
C36 C 0.0658(6) 1.5030(5) 0.3940(5)
C37 C 0.0625(6) 1.4313(5) 0.5777(5)
C38 C 0.1389(6) 1.5010(6) 0.2814(5)
H31 H 0.0804 1.5294 0.2417
H32 H 0.1924 1.4223 0.2780
H33 H 0.1902 1.5501 0.2526
C39 C 0.1267(7) 1.3516(6) 0.6622(5)
H34 H 0.1957 1.2870 0.6374
H35 H 0.0665 1.3226 0.7236
H36 H 0.1587 1.3944 0.6791
H37 H -0.046(5) 0.745(4) 0.445(4)
H38 H 0.063(4) 0.776(6) 0.387(5)
H39 H 0.047(4) 1.013(4) 0.348(2)
Zn1A Zn -0.24375(5) 1.11511(4) 0.63268(4)
Zn1A_2 Zn -0.24375(5) 2.11511(4) 0.63268(4)
Zn2A Zn 0.03303(5) 1.11348(4) 0.46933(4)
Zn2_2 Zn -0.03303(5) 1.88652(4) 0.53067(4)
O1A O -0.0812(3) 1.2442(3) 0.3891(2)
O2A O -0.2651(3) 1.2540(3) 0.5159(3)
O3A O -0.1507(3) 1.3717(3) 0.2057(2)
O4A O 0.2740(3) 0.9303(3) 0.0224(2)
O5A O 0.3204(3) 0.8450(3) 0.2360(2)
O6A O 0.2010(5) 0.7434(5) 0.2721(4)
O7A O -0.0652(3) 1.0169(2) 0.5962(2)
O8A O -0.3533(3) 2.0416(3) 0.6372(3)
O8A_2 O -0.3533(3) 1.0416(3) 0.6372(3)
O9A O -0.2091(3) 1.8881(3) 0.5812(3)
O9A_2 O -0.2091(3) 0.8881(3) 0.5812(3)
O10A O -0.2879(3) 1.7370(3) 0.5764(3)
O11A O 0.0078(5) 1.2108(4) 0.5662(4)
C1A C -0.1971(5) 1.2951(4) 0.4286(4)
C2A C -0.2603(4) 1.4157(4) 0.3704(4)
C3A C -0.3517(4) 1.4959(4) 0.4271(4)
H1A H -0.3730 1.4715 0.4999
C4A C -0.4129(5) 1.6106(4) 0.3804(4)
H2A H -0.4725 1.6624 0.4210
C5A C -0.3839(5) 1.6462(4) 0.2733(4)
H3A H -0.4247 1.7225 0.2405
C6A C -0.2939(5) 1.5687(4) 0.2138(4)
H4A H -0.2735 1.5941 0.1411
C7A C -0.2341(4) 1.4546(4) 0.2604(4)
C8A C -0.1055(5) 1.4158(4) 0.0942(4)
H5A H -0.0703 1.4757 0.0783
H6A H -0.1748 1.4501 0.0637
C9A C -0.0043(5) 1.3148(4) 0.0495(4)
C10A C -0.0338(5) 1.2660(4) -0.0037(4)
C11A C 0.0603(5) 1.1756(4) -0.0475(4)
C12A C 0.1807(5) 1.1322(4) -0.0350(4)
C13A C 0.2092(5) 1.1785(4) 0.0207(4)
C14A C 0.1158(5) 1.2706(4) 0.0630(4)
C15A C -0.1701(6) 1.3076(6) -0.0069(5)
H7A H -0.2219 1.3701 0.0269
H8A H -0.2029 1.2438 0.0289
H9A H -0.1712 1.3349 -0.0785
C16A C 0.0290(6) 1.1227(5) -0.1070(5)
H10A H 0.1034 1.0618 -0.1325
H11A H 0.0017 1.1826 -0.1650
H12A H -0.0374 1.0909 -0.0605
C17A C 0.3392(5) 1.1281(5) 0.0360(5)
H13A H 0.3916 1.0659 0.0019
H14A H 0.3315 1.0982 0.1096
H15A H 0.3771 1.1882 0.0062
C18A C 0.1426(5) 1.3190(5) 0.1278(4)
H16A H 0.0685 1.3816 0.1509
H17A H 0.2123 1.3480 0.0857
H18A H 0.1640 1.2580 0.1877
C19A C 0.2809(5) 1.0240(4) -0.0706(4)
H19A H 0.2622 1.0116 -0.1233
H20A H 0.3645 1.0315 -0.0995
C20A C 0.3626(4) 0.8218(4) 0.0184(4)
C21A C 0.4409(5) 0.7879(5) -0.0735(4)
H21A H 0.4377 0.8414 -0.1382
C22A C 0.5225(5) 0.6758(5) -0.0686(5)
H22A H 0.5738 0.6528 -0.1302
C23A C 0.5296(5) 0.5974(5) 0.0256(5)
H23A H 0.5867 0.5216 0.0279
C24A C 0.4521(5) 0.6297(4) 0.1184(4)
H24A H 0.4564 0.5754 0.1826
C25A C 0.3685(4) 0.7429(4) 0.1151(4)
C26A C 0.2879(5) 0.7797(4) 0.2159(4)
C27A C -0.3205(5) 1.9499(4) 0.6121(3)
C28A C -0.4266(4) 1.9149(4) 0.6223(3)
C29A C -0.5500(5) 1.9907(4) 0.6470(4)
H25A H -0.5634 2.0608 0.6577
C30A C -0.6537(5) 1.9682(5) 0.6568(4)
H26A H -0.7348 2.0226 0.6716
C31A C -0.6341(6) 1.8629(6) 0.6440(4)
H27A H -0.7035 1.8449 0.6527
C32A C -0.5144(5) 1.7841(5) 0.6187(5)
H28A H -0.5031 1.7134 0.6105
C33A C -0.4087(5) 1.8103(4) 0.6051(4)
C34A C -0.2698(5) 1.6275(5) 0.5600(5)
H29A H -0.3120 1.5807 0.6238
H30A H -0.3048 1.6434 0.5049
C35A C -0.1285(5) 1.5636(5) 0.5291(5)
C36A C -0.0658(6) 1.4970(5) 0.6060(5)
C37A C -0.0625(6) 1.5687(5) 0.4223(5)
C38A C -0.1389(6) 1.4990(6) 0.7186(5)
H31A H -0.0804 1.4706 0.7583
H32A H -0.1924 1.5777 0.7220
H33A H -0.1902 1.4499 0.7474
C39A C -0.1267(7) 1.6484(6) 0.3378(5)
H34A H -0.1957 1.7130 0.3626
H35A H -0.0665 1.6774 0.2764
H36A H -0.1587 1.6056 0.3209
H37A H 0.046(5) 1.255(4) 0.555(4)
H38A H -0.063(4) 1.224(6) 0.613(5)
H39A H -0.047(4) 0.987(4) 0.652(2)
O12 O -0.0234(6) 1.0657(6) 0.2347(5)
H40 H -0.037(5) 1.134(3) 0.234(5)
H41 H 0.054(3) 1.034(5) 0.204(5)
loop_
_geom_bond_atom_site_label_1
_geom_bond_atom_site_label_2
_geom_bond_site_symmetry_1
_geom_bond_site_symmetry_2
Zn1 O2 1_555 1_555
Zn2 O1 1_555 1_555
O1 C1 1_555 1_555
O2 C1 1_555 1_555
O3 C7 1_555 1_555
O4 C19 1_555 1_555
O5 C26 1_555 1_555
O6 C26 1_555 1_555
O7 Zn1 1_555 1_555
O8 Zn1 1_555 1_555
O9 C27 1_555 1_555
O10 C33 1_555 1_555
O11 Zn2 1_555 1_555
O12 H40 1_555 1_555
C1 C2 1_555 1_555
C2 C3 1_555 1_555
C3 H1 1_555 1_555
C4 C3 1_555 1_555
H2 C4 1_555 1_555
C5 C4 1_555 1_555
H3 C5 1_555 1_555
C6 C5 1_555 1_555
H4 C6 1_555 1_555
C7 C2 1_555 1_555
C8 O3 1_555 1_555
H5 C8 1_555 1_555
H6 C8 1_555 1_555
C9 C8 1_555 1_555
C10 C9 1_555 1_555
C11 C10 1_555 1_555
C12 C11 1_555 1_555
C13 C12 1_555 1_555
C14 C9 1_555 1_555
C15 C10 1_555 1_555
H7 C15 1_555 1_555
H8 C15 1_555 1_555
H9 C15 1_555 1_555
C16 C11 1_555 1_555
H10 C16 1_555 1_555
H11 C16 1_555 1_555
H12 C16 1_555 1_555
C17 C13 1_555 1_555
H13 C17 1_555 1_555
H14 C17 1_555 1_555
H15 C17 1_555 1_555
C18 C14 1_555 1_555
H16 C18 1_555 1_555
H17 C18 1_555 1_555
H18 C18 1_555 1_555
C19 C12 1_555 1_555
H19 C19 1_555 1_555
H20 C19 1_555 1_555
C20 O4 1_555 1_555
C21 C20 1_555 1_555
H21 C21 1_555 1_555
C22 C21 1_555 1_555
H22 C22 1_555 1_555
C23 C22 1_555 1_555
H23 C23 1_555 1_555
C24 C23 1_555 1_555
H24 C24 1_555 1_555
C25 C20 1_555 1_555
C26 C25 1_555 1_555
C27 O8 1_555 1_555
C28 C27 1_555 1_555
C29 C28 1_555 1_555
H25 C29 1_555 1_555
C30 C29 1_555 1_555
H26 C30 1_555 1_555
C31 C30 1_555 1_555
H27 C31 1_555 1_555
C32 C31 1_555 1_555
H28 C32 1_555 1_555
C33 C28 1_555 1_555
C34 O10 1_555 1_555
H29 C34 1_555 1_555
H30 C34 1_555 1_555
C35 C34 1_555 1_555
C36 C35 1_555 1_555
C37 C35 1_555 1_555
C38 C36 1_555 1_555
H31 C38 1_555 1_555
H32 C38 1_555 1_555
H33 C38 1_555 1_555
C39 C37 1_555 1_555
H34 C39 1_555 1_555
H35 C39 1_555 1_555
H36 C39 1_555 1_555
H37 O11 1_555 1_555
H38 O11 1_555 1_555
H39 O7 1_555 1_555
H41 O12 1_555 1_555
Zn1A O5 1_555 1_555
Zn1A_2 O8A 1_555 1_555
Zn2A O7 1_555 1_555
Zn2_2 O9A 1_555 1_555
O1A Zn2A 1_555 1_555
O2A Zn1A 1_555 1_555
O3A C7A 1_555 1_555
O4A C19A 1_555 1_555
O5A Zn1 1_555 1_555
O6A C26A 1_555 1_555
O7A Zn2 1_555 1_555
O8A C27A 1_555 1_555
O8A_2 Zn1A 1_555 1_555
O9A C27A 1_555 1_555
O9A_2 Zn2 1_555 1_555
O10A C33A 1_555 1_555
O11A Zn2A 1_555 1_555
C1A O1A 1_555 1_555
C2A C1A 1_555 1_555
C3A C2A 1_555 1_555
H1A C3A 1_555 1_555
C4A C3A 1_555 1_555
H2A C4A 1_555 1_555
C5A C4A 1_555 1_555
H3A C5A 1_555 1_555
C6A C5A 1_555 1_555
H4A C6A 1_555 1_555
C7A C2A 1_555 1_555
C8A O3A 1_555 1_555
H5A C8A 1_555 1_555
H6A C8A 1_555 1_555
C9A C8A 1_555 1_555
C10A C9A 1_555 1_555
C11A C10A 1_555 1_555
C12A C11A 1_555 1_555
C13A C12A 1_555 1_555
C14A C9A 1_555 1_555
C15A C10A 1_555 1_555
H7A C15A 1_555 1_555
H8A C15A 1_555 1_555
H9A C15A 1_555 1_555
C16A C11A 1_555 1_555
H10A C16A 1_555 1_555
H11A C16A 1_555 1_555
H12A C16A 1_555 1_555
C17A C13A 1_555 1_555
H13A C17A 1_555 1_555
H14A C17A 1_555 1_555
H15A C17A 1_555 1_555
C18A C14A 1_555 1_555
H16A C18A 1_555 1_555
H17A C18A 1_555 1_555
H18A C18A 1_555 1_555
C19A C12A 1_555 1_555
H19A C19A 1_555 1_555
H20A C19A 1_555 1_555
C20A O4A 1_555 1_555
C21A C20A 1_555 1_555
H21A C21A 1_555 1_555
C22A C21A 1_555 1_555
H22A C22A 1_555 1_555
C23A C22A 1_555 1_555
H23A C23A 1_555 1_555
C24A C23A 1_555 1_555
H24A C24A 1_555 1_555
C25A C20A 1_555 1_555
C26A O5A 1_555 1_555
C27A C28A 1_555 1_555
C28A C29A 1_555 1_555
C29A H25A 1_555 1_555
C30A C29A 1_555 1_555
H26A C30A 1_555 1_555
C31A C30A 1_555 1_555
H27A C31A 1_555 1_555
C32A C31A 1_555 1_555
H28A C32A 1_555 1_555
C33A C28A 1_555 1_555
C34A O10A 1_555 1_555
H29A C34A 1_555 1_555
H30A C34A 1_555 1_555
C35A C34A 1_555 1_555
C36A C37 1_555 1_555
C37A C36 1_555 1_555
C38A C36A 1_555 1_555
H31A C38A 1_555 1_555
H32A C38A 1_555 1_555
H33A C38A 1_555 1_555
C39A C37A 1_555 1_555
H34A C39A 1_555 1_555
H35A C39A 1_555 1_555
H36A C39A 1_555 1_555
H37A O11A 1_555 1_555
H38A O11A 1_555 1_555
H39A O7A 1_555 1_555
Zn2 O7 1_555 1_555
O9 Zn2A 1_555 1_555
C6 C7 1_555 1_555
C13 C14 1_555 1_555
C24 C25 1_555 1_555
C32 C33 1_555 1_555
Zn1A O7A 1_555 1_555
Zn2A O7A 1_555 1_555
O2A C1A 1_555 1_555
C6A C7A 1_555 1_555
C13A C14A 1_555 1_555
C24A C25A 1_555 1_555
C25A C26A 1_555 1_555
C32A C33A 1_555 1_555
C35A C36A 1_555 1_555
C35A C37A 1_555 1_555

#END
