
#######################################################################
#
#                 Cambridge Crystallographic Data Centre
#                                CCDC 
#
#######################################################################
#
# If this CIF has been generated from an entry in the Cambridge 
# Structural Database, then it will include bibliographic, chemical, 
# crystal, experimental, refinement or atomic coordinate data resulting 
# from the CCDC's data processing and validation procedures.
#
#######################################################################

data_GAHYUL
_symmetry_cell_setting           triclinic
_symmetry_space_group_name_H-M   'P -1'
_symmetry_Int_Tables_number      2
_space_group_name_Hall           '-P 1'
loop_
_symmetry_equiv_pos_site_id
_symmetry_equiv_pos_as_xyz
1 x,y,z
2 -x,-y,-z
_cell_length_a                   8.899(4)
_cell_length_b                   9.728(4)
_cell_length_c                   12.736(6)
_cell_angle_alpha                77.685(14)
_cell_angle_beta                 71.179(12)
_cell_angle_gamma                68.753(13)
_cell_volume                     966.839
loop_
_atom_site_label
_atom_site_type_symbol
_atom_site_fract_x
_atom_site_fract_y
_atom_site_fract_z
Cu1 Cu 1.0000 0.5000 0.0000
N1 N 1.1912(5) 0.3518(5) -0.0866(3)
S1 S 1.3928(6) 0.1523(4) -0.2366(3)
C1 C 1.2737(8) 0.2727(7) -0.1496(5)
O1 O 0.7953(4) -0.0124(4) 0.4722(3)
N2 N 1.0031(4) 0.3553(4) 0.1415(3)
N3 N 0.7131(4) 0.1866(4) 0.3489(3)
H1 H 0.6267 0.2459 0.3281
C2 C 0.6873(5) 0.0736(5) 0.4301(3)
C3 C 0.5083(5) 0.0717(5) 0.4653(4)
H2 H 0.4706 0.0843 0.3994
H3 H 0.4368 0.1542 0.5083
C4 C 0.8637(5) 0.2166(5) 0.2960(3)
C5 C 0.8666(5) 0.3174(5) 0.2007(3)
H4 H 0.7696 0.3606 0.1769
C6 C 1.1421(6) 0.2945(6) 0.1768(4)
H5 H 1.2373 0.3205 0.1363
C7 C 1.1482(6) 0.1951(6) 0.2708(4)
H6 H 1.2467 0.1550 0.2929
C8 C 1.0096(5) 0.1542(5) 0.3328(4)
H7 H 1.0125 0.0874 0.3969
O2 O 0.8028(5) 0.4036(4) -0.0376(3)
N4 N 0.7490(7) 0.1982(6) -0.0460(5)
C9 C 0.8485(8) 0.2803(8) -0.0654(5)
H8 H 0.9606 0.2403 -0.1029
C10 C 0.8113(16) 0.0507(11) -0.0850(13)
H9 H 0.7213 0.0095 -0.0640
H10 H 0.8987 -0.0133 -0.0517
H11 H 0.8544 0.0595 -0.1648
C11 C 0.5764(10) 0.2489(12) 0.0124(10)
H12 H 0.5261 0.1745 0.0180
H13 H 0.5210 0.3387 -0.0273
H14 H 0.5656 0.2678 0.0859
Cu1_2 Cu 0.0000 -0.5000 1.0000
N1A N 0.8088(5) 0.6482(5) 0.0866(3)
S1A S 0.6072(6) 0.8477(4) 0.2366(3)
C1A C 0.7263(8) 0.7273(7) 0.1496(5)
O1A O 0.2047(4) 0.0124(4) 0.5278(3)
N2A N -0.0031(4) -0.3553(4) 0.8585(3)
N2A_2 N 0.9969(4) 0.6447(4) -0.1415(3)
N3A N 0.2869(4) -0.1866(4) 0.6511(3)
H1A H 0.3733 -0.2459 0.6719
C2A C 0.3127(5) -0.0736(5) 0.5699(3)
C3A C 0.4917(5) -0.0717(5) 0.5347(4)
H2A H 0.5294 -0.0843 0.6006
H3A H 0.5632 -0.1542 0.4917
C4A C 0.1363(5) -0.2166(5) 0.7040(3)
C5A C 0.1334(5) -0.3174(5) 0.7993(3)
H4A H 0.2304 -0.3606 0.8231
C6A C -0.1421(6) -0.2945(6) 0.8232(4)
H5A H -0.2373 -0.3205 0.8637
C7A C -0.1482(6) -0.1951(6) 0.7292(4)
H6A H -0.2467 -0.1550 0.7071
C8A C -0.0096(5) -0.1542(5) 0.6672(4)
H7A H -0.0125 -0.0874 0.6031
O2A O 1.1972(5) 0.5964(4) 0.0376(3)
N4A N 1.2510(7) 0.8018(6) 0.0460(5)
C9A C 1.1515(8) 0.7197(8) 0.0654(5)
H8A H 1.0394 0.7597 0.1029
C10A C 1.1887(16) 0.9493(11) 0.0850(13)
H9A H 1.2787 0.9905 0.0640
H10A H 1.1013 1.0133 0.0517
H11A H 1.1456 0.9405 0.1648
C11A C 1.4236(10) 0.7511(12) -0.0124(10)
H12A H 1.4739 0.8255 -0.0180
H13A H 1.4790 0.6613 0.0273
H14A H 1.4344 0.7322 -0.0859
O3 O 0.4290(6) 0.3825(5) 0.2790(4)
N5 N 0.2475(13) 0.5796(11) 0.3672(9)
C12 C 0.3206(13) 0.4934(11) 0.2941(10)
H15 H 0.2751 0.5280 0.2335
C13 C 0.365(4) 0.547(3) 0.440(3)
H16 H 0.3134 0.6118 0.4979
H17 H 0.4677 0.5642 0.3949
H18 H 0.3878 0.4460 0.4723
C14 C 0.153(3) 0.736(2) 0.368(2)
H19 H 0.1186 0.7626 0.4430
H20 H 0.0563 0.7568 0.3426
H21 H 0.2223 0.7935 0.3201
loop_
_geom_bond_atom_site_label_1
_geom_bond_atom_site_label_2
_geom_bond_site_symmetry_1
_geom_bond_site_symmetry_2
Cu1 N1 1_555 1_555
N1 C1 1_555 1_555
S1 C1 1_555 1_555
O1 C2 1_555 1_555
N2 Cu1 1_555 1_555
N3 H1 1_555 1_555
C2 N3 1_555 1_555
C3 C2 1_555 1_555
H2 C3 1_555 1_555
H3 C3 1_555 1_555
C4 N3 1_555 1_555
C5 N2 1_555 1_555
H4 C5 1_555 1_555
C6 N2 1_555 1_555
H5 C6 1_555 1_555
C7 C6 1_555 1_555
H6 C7 1_555 1_555
C8 C4 1_555 1_555
H7 C8 1_555 1_555
O2 Cu1 1_555 1_555
N4 C9 1_555 1_555
C9 O2 1_555 1_555
H8 C9 1_555 1_555
C10 N4 1_555 1_555
H9 C10 1_555 1_555
H10 C10 1_555 1_555
H11 C10 1_555 1_555
C11 N4 1_555 1_555
H12 C11 1_555 1_555
H13 C11 1_555 1_555
H14 C11 1_555 1_555
O3 C12 1_555 1_555
N5 C12 1_555 1_555
C12 H15 1_555 1_555
C13 N5 1_555 1_555
H16 C13 1_555 1_555
H17 C13 1_555 1_555
H18 C13 1_555 1_555
C14 N5 1_555 1_555
H19 C14 1_555 1_555
H20 C14 1_555 1_555
H21 C14 1_555 1_555
Cu1_2 N2A 1_555 1_555
N1A Cu1 1_555 1_555
S1A C1A 1_555 1_555
C1A N1A 1_555 1_555
O1A C2A 1_555 1_555
N2A C5A 1_555 1_555
N2A_2 Cu1 1_555 1_555
N3A H1A 1_555 1_555
C2A N3A 1_555 1_555
C3A C3 1_555 1_555
H2A C3A 1_555 1_555
H3A C3A 1_555 1_555
C4A N3A 1_555 1_555
C5A C4A 1_555 1_555
H4A C5A 1_555 1_555
C6A N2A 1_555 1_555
H5A C6A 1_555 1_555
C7A C6A 1_555 1_555
H6A C7A 1_555 1_555
C8A C4A 1_555 1_555
H7A C8A 1_555 1_555
O2A Cu1 1_555 1_555
N4A C9A 1_555 1_555
C9A O2A 1_555 1_555
H8A C9A 1_555 1_555
C10A N4A 1_555 1_555
H9A C10A 1_555 1_555
H10A C10A 1_555 1_555
H11A C10A 1_555 1_555
C11A N4A 1_555 1_555
H12A C11A 1_555 1_555
H13A C11A 1_555 1_555
H14A C11A 1_555 1_555
C4 C5 1_555 1_555
C7 C8 1_555 1_555
C2A C3A 1_555 1_555
C7A C8A 1_555 1_555

#END
