
#######################################################################
#
#                 Cambridge Crystallographic Data Centre
#                                CCDC 
#
#######################################################################
#
# If this CIF has been generated from an entry in the Cambridge 
# Structural Database, then it will include bibliographic, chemical, 
# crystal, experimental, refinement or atomic coordinate data resulting 
# from the CCDC's data processing and validation procedures.
#
#######################################################################

data_GAHZEW
_symmetry_cell_setting           triclinic
_symmetry_space_group_name_H-M   'P -1'
_symmetry_Int_Tables_number      2
_space_group_name_Hall           '-P 1'
loop_
_symmetry_equiv_pos_site_id
_symmetry_equiv_pos_as_xyz
1 x,y,z
2 -x,-y,-z
_cell_length_a                   7.808(3)
_cell_length_b                   8.946(3)
_cell_length_c                   10.837(6)
_cell_angle_alpha                102.017(14)
_cell_angle_beta                 104.357(15)
_cell_angle_gamma                111.247(10)
_cell_volume                     645.168
loop_
_atom_site_label
_atom_site_type_symbol
_atom_site_fract_x
_atom_site_fract_y
_atom_site_fract_z
Cu1 Cu 0.0000 -0.5000 0.5000
S1 S 0.00476(17) -0.82835(13) 0.10285(9)
O1 O 0.3715(4) -0.4167(3) 0.6019(3)
O2 O 0.4831(4) 0.3176(3) 0.5990(2)
N1 N 0.5489(4) 0.1810(3) 0.7434(3)
H1 H 0.5137 0.0858 0.7585
N2 N 0.0777(3) -0.2764(3) 0.4606(2)
N3 N -0.0098(4) -0.6164(3) 0.3234(3)
C1 C 0.7190(4) 0.3311(4) 0.8466(3)
H2 H 0.7616 0.4195 0.8071
H3 H 0.8265 0.3012 0.8756
C2 C 0.6740(5) 0.3998(4) 0.9686(3)
H4 H 0.6315 0.3109 1.0076
H5 H 0.7941 0.4924 1.0355
C3 C 0.5196(5) 0.4625(5) 0.9390(3)
H6 H 0.3980 0.3687 0.8748
H7 H 0.5595 0.5481 0.8964
C4 C 0.2813(4) 0.0223(3) 0.5271(3)
C5 C 0.2231(4) -0.1310(3) 0.5519(3)
H8 H 0.2879 -0.1330 0.6356
C6 C -0.0162(4) -0.2719(4) 0.3416(3)
H9 H -0.1170 -0.3722 0.2774
C7 C 0.0307(5) -0.1235(4) 0.3099(3)
H10 H -0.0386 -0.1241 0.2264
C8 C 0.1809(5) 0.0247(4) 0.4036(3)
H11 H 0.2147 0.1257 0.3841
C9 C 0.4480(4) 0.1862(3) 0.6285(3)
C10 C -0.0039(5) -0.7055(4) 0.2324(3)
Cu1_2 Cu 1.0000 1.5000 1.5000
S1A S -0.00476(17) -0.17165(13) 0.89715(9)
O1A O -0.3715(4) -0.5833(3) 0.3981(3)
O2A O 0.5169(4) 0.6824(3) 1.4010(2)
N1A N 0.4511(4) 0.8190(3) 1.2566(3)
H1A H 0.4863 0.9142 1.2415
N2A N 0.9223(3) 1.2764(3) 1.5394(2)
N2A_2 N -0.0777(3) -0.7236(3) 0.5394(2)
N3A N 0.0098(4) -0.3836(3) 0.6766(3)
C1A C 0.2810(4) 0.6689(4) 1.1534(3)
H2A H 0.2384 0.5805 1.1929
H3A H 0.1735 0.6988 1.1244
C2A C 0.3260(5) 0.6002(4) 1.0314(3)
H4A H 0.3685 0.6891 0.9924
H5A H 0.2059 0.5076 0.9645
C3A C 0.4804(5) 0.5375(5) 1.0610(3)
H6A H 0.6020 0.6313 1.1252
H7A H 0.4405 0.4519 1.1036
C4A C 0.7187(4) 0.9777(3) 1.4729(3)
C5A C 0.7769(4) 1.1310(3) 1.4481(3)
H8A H 0.7121 1.1330 1.3644
C6A C 1.0162(4) 1.2719(4) 1.6584(3)
H9A H 1.1170 1.3722 1.7226
C7A C 0.9693(5) 1.1235(4) 1.6901(3)
H10A H 1.0386 1.1241 1.7736
C8A C 0.8191(5) 0.9753(4) 1.5964(3)
H11A H 0.7853 0.8743 1.6159
C9A C 0.5520(4) 0.8138(3) 1.3715(3)
C10A C 0.0039(5) -0.2945(4) 0.7676(3)
O3 O 0.4519(5) 0.0985(4) 0.1613(4)
loop_
_geom_bond_atom_site_label_1
_geom_bond_atom_site_label_2
_geom_bond_site_symmetry_1
_geom_bond_site_symmetry_2
Cu1 O1 1_555 1_555
S1 C10 1_555 1_555
O2 C9 1_555 1_555
N1 H1 1_555 1_555
N2 Cu1 1_555 1_555
N3 Cu1 1_555 1_555
C1 N1 1_555 1_555
H2 C1 1_555 1_555
H3 C1 1_555 1_555
C2 C1 1_555 1_555
H4 C2 1_555 1_555
H5 C2 1_555 1_555
C3 C2 1_555 1_555
H6 C3 1_555 1_555
H7 C3 1_555 1_555
C4 C5 1_555 1_555
C5 N2 1_555 1_555
H8 C5 1_555 1_555
C6 N2 1_555 1_555
H9 C6 1_555 1_555
C7 C6 1_555 1_555
H10 C7 1_555 1_555
C8 C4 1_555 1_555
H11 C8 1_555 1_555
C9 N1 1_555 1_555
C10 N3 1_555 1_555
Cu1_2 N2A 1_555 1_555
S1A C10A 1_555 1_555
O1A Cu1 1_555 1_555
O2A C9A 1_555 1_555
N1A H1A 1_555 1_555
N2A C5A 1_555 1_555
N2A_2 Cu1 1_555 1_555
N3A Cu1 1_555 1_555
C1A N1A 1_555 1_555
H2A C1A 1_555 1_555
H3A C1A 1_555 1_555
C2A C1A 1_555 1_555
H4A C2A 1_555 1_555
H5A C2A 1_555 1_555
C3A C3 1_555 1_555
H6A C3A 1_555 1_555
H7A C3A 1_555 1_555
C4A C5A 1_555 1_555
C5A H8A 1_555 1_555
C6A N2A 1_555 1_555
H9A C6A 1_555 1_555
C7A C6A 1_555 1_555
H10A C7A 1_555 1_555
C8A C4A 1_555 1_555
H11A C8A 1_555 1_555
C9A N1A 1_555 1_555
C10A N3A 1_555 1_555
C4 C9 1_555 1_555
C7 C8 1_555 1_555
C2A C3A 1_555 1_555
C4A C9A 1_555 1_555
C7A C8A 1_555 1_555

#END
