
#######################################################################
#
#                 Cambridge Crystallographic Data Centre
#                                CCDC 
#
#######################################################################
#
# If this CIF has been generated from an entry in the Cambridge 
# Structural Database, then it will include bibliographic, chemical, 
# crystal, experimental, refinement or atomic coordinate data resulting 
# from the CCDC's data processing and validation procedures.
#
#######################################################################

data_GAHZIA
_symmetry_cell_setting           monoclinic
_symmetry_space_group_name_H-M   'P 21/c'
_symmetry_Int_Tables_number      14
_space_group_name_Hall           '-P 2ybc'
loop_
_symmetry_equiv_pos_site_id
_symmetry_equiv_pos_as_xyz
1 x,y,z
2 -x,1/2+y,1/2-z
3 -x,-y,-z
4 x,1/2-y,1/2+z
_cell_length_a                   13.243(3)
_cell_length_b                   14.680(3)
_cell_length_c                   9.1658(18)
_cell_angle_alpha                90
_cell_angle_beta                 109.618(6)
_cell_angle_gamma                90
_cell_volume                     1678.46
loop_
_atom_site_label
_atom_site_type_symbol
_atom_site_fract_x
_atom_site_fract_y
_atom_site_fract_z
Cu1 Cu 1.5000 0.0000 0.0000
O1 O 1.1175(2) -0.1783(2) -0.2695(3)
N1 N 1.4170(3) -0.1109(2) 0.0359(4)
C1 C 1.2571(3) -0.2013(3) -0.0313(4)
C2 C 1.3145(3) -0.1259(3) -0.0488(5)
H1 H 1.2798 -0.0831 -0.1238
C3 C 1.4656(4) -0.1738(3) 0.1416(5)
H2 H 1.5377 -0.1656 0.1989
C4 C 1.4151(4) -0.2496(3) 0.1703(6)
H3 H 1.4515 -0.2904 0.2476
C5 C 1.3088(4) -0.2642(3) 0.0818(5)
H4 H 1.2727 -0.3154 0.0981
C6 C 1.1451(3) -0.2136(3) -0.1396(5)
N2 N 1.0810(3) -0.2651(2) -0.0901(4)
H5 H 1.1073 -0.2891 0.0004
C7 C 0.9676(3) -0.2841(3) -0.1793(5)
H6 H 0.9434 -0.2414 -0.2647
H7 H 0.9248 -0.2743 -0.1131
C8 C 0.9491(4) -0.3795(3) -0.2425(5)
H8 H 0.8725 -0.3901 -0.2867
H9 H 0.9777 -0.4221 -0.1576
C9 C 0.9994(4) -0.3988(3) -0.3641(6)
H10 H 0.9767 -0.3521 -0.4432
H11 H 1.0766 -0.3942 -0.3167
C10 C 0.9728(4) -0.4909(3) -0.4413(5)
H12 H 0.9937 -0.5379 -0.3623
H13 H 0.8958 -0.4951 -0.4921
C11 C 1.3436(4) 0.1393(4) 0.0492(6)
S1 S 1.28151(14) 0.22297(16) 0.0971(3)
N3 N 1.3876(3) 0.0804(3) 0.0176(5)
O2 O 1.4044(4) -0.0146(3) -0.2812(6)
C12 C 1.3523(9) 0.0075(6) -0.3824(11)
Cu1_2 Cu 0.5000 -1.0000 -1.0000
O1B O 0.8825(2) -0.8217(2) -0.7305(3)
N1B N 0.5830(3) -0.8891(2) -1.0359(4)
N1B_2 N 1.5830(3) 0.1109(2) -0.0359(4)
C1B C 0.7429(3) -0.7987(3) -0.9687(4)
C2B C 0.6855(3) -0.8741(3) -0.9512(5)
H1B H 0.7202 -0.9169 -0.8762
C3B C 0.5344(4) -0.8262(3) -1.1416(5)
H2B H 0.4623 -0.8344 -1.1989
C4B C 0.5849(4) -0.7504(3) -1.1703(6)
H3B H 0.5485 -0.7096 -1.2476
C5B C 0.6912(4) -0.7358(3) -1.0818(5)
H4B H 0.7273 -0.6846 -1.0981
C6B C 0.8549(3) -0.7864(3) -0.8604(5)
N2B N 0.9190(3) -0.7349(2) -0.9099(4)
H5B H 0.8927 -0.7109 -1.0004
C7B C 1.0324(3) -0.7159(3) -0.8207(5)
H6B H 1.0566 -0.7586 -0.7353
H7B H 1.0752 -0.7257 -0.8869
C8B C 1.0509(4) -0.6205(3) -0.7575(5)
H8B H 1.1275 -0.6099 -0.7133
H9B H 1.0223 -0.5779 -0.8424
C9B C 1.0006(4) -0.6012(3) -0.6359(6)
H10B H 1.0233 -0.6479 -0.5568
H11B H 0.9234 -0.6058 -0.6833
C10B C 1.0272(4) -0.5091(3) -0.5587(5)
H12B H 1.0063 -0.4621 -0.6377
H13B H 1.1042 -0.5049 -0.5079
C11B C 1.6564(4) -0.1393(4) -0.0492(6)
S1B S 1.71849(14) -0.22297(16) -0.0971(3)
N3B N 1.6124(3) -0.0804(3) -0.0176(5)
O2B O 1.5956(4) 0.0146(3) 0.2812(6)
C12B C 1.6477(9) -0.0075(6) 0.3824(11)
loop_
_geom_bond_atom_site_label_1
_geom_bond_atom_site_label_2
_geom_bond_site_symmetry_1
_geom_bond_site_symmetry_2
Cu1 N1 1_555 1_555
O1 C6 1_555 1_555
N1 C2 1_555 1_555
C1 C2 1_555 1_555
C2 H1 1_555 1_555
C3 N1 1_555 1_555
H2 C3 1_555 1_555
C4 C3 1_555 1_555
H3 C4 1_555 1_555
C5 C1 1_555 1_555
H4 C5 1_555 1_555
C6 C1 1_555 1_555
N2 C6 1_555 1_555
H5 N2 1_555 1_555
C7 N2 1_555 1_555
H6 C7 1_555 1_555
H7 C7 1_555 1_555
C8 C7 1_555 1_555
H8 C8 1_555 1_555
H9 C8 1_555 1_555
C9 C8 1_555 1_555
H10 C9 1_555 1_555
H11 C9 1_555 1_555
C10 C9 1_555 1_555
H12 C10 1_555 1_555
H13 C10 1_555 1_555
C11 S1 1_555 1_555
N3 Cu1 1_555 1_555
O2 Cu1 1_555 1_555
C12 O2 1_555 1_555
Cu1_2 N1B 1_555 1_555
O1B C6B 1_555 1_555
N1B C2B 1_555 1_555
N1B_2 Cu1 1_555 1_555
C1B C2B 1_555 1_555
C2B H1B 1_555 1_555
C3B N1B 1_555 1_555
H2B C3B 1_555 1_555
C4B C3B 1_555 1_555
H3B C4B 1_555 1_555
C5B C1B 1_555 1_555
H4B C5B 1_555 1_555
C6B C1B 1_555 1_555
N2B C6B 1_555 1_555
H5B N2B 1_555 1_555
C7B N2B 1_555 1_555
H6B C7B 1_555 1_555
H7B C7B 1_555 1_555
C8B C7B 1_555 1_555
H8B C8B 1_555 1_555
H9B C8B 1_555 1_555
C9B C8B 1_555 1_555
H10B C9B 1_555 1_555
H11B C9B 1_555 1_555
C10B C10 1_555 1_555
H12B C10B 1_555 1_555
H13B C10B 1_555 1_555
C11B S1B 1_555 1_555
N3B Cu1 1_555 1_555
O2B Cu1 1_555 1_555
C12B O2B 1_555 1_555
C4 C5 1_555 1_555
C11 N3 1_555 1_555
C4B C5B 1_555 1_555
C9B C10B 1_555 1_555
C11B N3B 1_555 1_555

#END
