
#######################################################################
#
#                 Cambridge Crystallographic Data Centre
#                                CCDC 
#
#######################################################################
#
# If this CIF has been generated from an entry in the Cambridge 
# Structural Database, then it will include bibliographic, chemical, 
# crystal, experimental, refinement or atomic coordinate data resulting 
# from the CCDC's data processing and validation procedures.
#
#######################################################################

data_GAHZUM
_symmetry_cell_setting           triclinic
_symmetry_space_group_name_H-M   'P -1'
_symmetry_Int_Tables_number      2
_space_group_name_Hall           '-P 1'
loop_
_symmetry_equiv_pos_site_id
_symmetry_equiv_pos_as_xyz
1 x,y,z
2 -x,-y,-z
_cell_length_a                   7.4123(4)
_cell_length_b                   10.5479(6)
_cell_length_c                   14.0519(8)
_cell_angle_alpha                83.276(2)
_cell_angle_beta                 75.937(2)
_cell_angle_gamma                89.908(2)
_cell_volume                     1057.97
loop_
_atom_site_label
_atom_site_type_symbol
_atom_site_fract_x
_atom_site_fract_y
_atom_site_fract_z
Cu1 Cu 0.5000 0.0000 0.5000
S1 S 0.06145(11) -0.30145(8) 0.70718(6)
N1 N 0.3092(4) -0.1125(2) 0.5944(2)
C1 C 0.2059(4) -0.1903(3) 0.6410(2)
N2 N 0.3419(3) 0.1541(2) 0.53172(16)
N3 N 0.3824(3) 0.4644(2) 0.62243(16)
H1 H 0.3093 0.5272 0.6336
C2 C 0.3122(4) 0.3609(2) 0.58568(18)
C3 C 0.4158(4) 0.2544(2) 0.56070(19)
H2 H 0.5395 0.2528 0.5642
C4 C 0.1645(4) 0.1562(3) 0.5258(2)
H3 H 0.1133 0.0857 0.5069
C5 C 0.0554(4) 0.2600(3) 0.5470(2)
H4 H -0.0669 0.2601 0.5410
C6 C 0.1293(4) 0.3635(3) 0.5770(2)
H5 H 0.0577 0.4345 0.5913
O1 O 0.6745(3) 0.4010(2) 0.62110(19)
C7 C 0.5516(4) 0.4763(2) 0.6422(2)
C8 C 0.5791(4) 0.5901(3) 0.6938(2)
H6 H 0.4695 0.6419 0.7014
H7 H 0.6844 0.6421 0.6539
C9 C 0.6140(5) 0.5460(3) 0.7962(2)
H8 H 0.7087 0.4818 0.7893
H9 H 0.6615 0.6180 0.8207
C10 C 0.4426(5) 0.4916(4) 0.8705(3)
H10 H 0.3955 0.4196 0.8457
H11 H 0.3480 0.5559 0.8769
C11 C 0.4734(6) 0.4473(4) 0.9733(3)
H12 H 0.3602 0.4047 1.0139
H13 H 0.5707 0.3849 0.9664
O2 O 0.6654(4) 0.0389(2) 0.62850(19)
N4 N 0.5964(5) 0.0017(3) 0.7954(2)
C19 C 0.6458(7) -0.0329(4) 0.7042(4)
H19 H 0.6667 -0.1190 0.6986
C20 C 0.5728(10) -0.0945(5) 0.8812(4)
H20 H 0.4426 -0.1130 0.9090
H21 H 0.6267 -0.0629 0.9297
H22 H 0.6334 -0.1710 0.8614
C21 C 0.5617(8) 0.1304(4) 0.8113(4)
H23 H 0.6060 0.1848 0.7502
H24 H 0.6251 0.1532 0.8591
H25 H 0.4303 0.1406 0.8354
Cu1_2 Cu 0.5000 1.0000 1.5000
S1A S 0.93855(11) 0.30145(8) 0.29282(6)
N1A N 0.6908(4) 0.1125(2) 0.4056(2)
C1A C 0.7941(4) 0.1903(3) 0.3590(2)
N2A N 0.6581(3) 0.8459(2) 1.46828(16)
N2A_2 N 0.6581(3) -0.1541(2) 0.46828(16)
N3A N 0.6176(3) 0.5356(2) 1.37757(16)
H1A H 0.6907 0.4728 1.3664
C2A C 0.6878(4) 0.6391(2) 1.41432(18)
C3A C 0.5842(4) 0.7456(2) 1.43930(19)
H2A H 0.4605 0.7472 1.4358
C4A C 0.8355(4) 0.8438(3) 1.4742(2)
H3A H 0.8867 0.9143 1.4931
C5A C 0.9446(4) 0.7400(3) 1.4530(2)
H4A H 1.0669 0.7399 1.4590
C6A C 0.8707(4) 0.6365(3) 1.4230(2)
H5A H 0.9423 0.5655 1.4087
O1A O 0.3255(3) 0.5990(2) 1.37890(19)
C7A C 0.4484(4) 0.5237(2) 1.3578(2)
C8A C 0.4209(4) 0.4099(3) 1.3062(2)
H6A H 0.5305 0.3581 1.2986
H7A H 0.3156 0.3579 1.3461
C9A C 0.3860(5) 0.4540(3) 1.2038(2)
H8A H 0.2913 0.5182 1.2107
H9A H 0.3385 0.3820 1.1793
C10A C 0.5574(5) 0.5084(4) 1.1295(3)
H10A H 0.6045 0.5804 1.1543
H11A H 0.6520 0.4441 1.1231
C11A C 0.5266(6) 0.5527(4) 1.0267(3)
H12A H 0.6398 0.5953 0.9861
H13A H 0.4293 0.6151 1.0336
O2A O 0.3346(4) -0.0389(2) 0.37150(19)
N4A N 0.4036(5) -0.0017(3) 0.2046(2)
C19A C 0.3542(7) 0.0329(4) 0.2958(4)
H19A H 0.3333 0.1190 0.3014
C20A C 0.4272(10) 0.0945(5) 0.1188(4)
H20A H 0.5574 0.1130 0.0910
H21A H 0.3733 0.0629 0.0703
H22A H 0.3666 0.1710 0.1386
C21A C 0.4383(8) -0.1304(4) 0.1887(4)
H23A H 0.3940 -0.1848 0.2498
H24A H 0.3749 -0.1532 0.1409
H25A H 0.5697 -0.1406 0.1646
C12 C 0.0211(5) 0.8686(4) -0.0084(3)
C13 C 0.0415(6) 0.7351(4) -0.0134(3)
H14 H 0.0691 0.7048 -0.0747
C14 C 0.0215(6) 0.6521(4) 0.0689(3)
H15 H 0.0361 0.5654 0.0638
C15 C -0.0210(6) 0.6946(4) 0.1620(3)
H16 H -0.0340 0.6357 0.2181
C16 C -0.0434(6) 0.8199(4) 0.1718(3)
H17 H -0.0721 0.8461 0.2345
C17 C -0.0234(5) 0.9130(4) 0.0867(2)
C18 C 0.0426(6) 0.9580(4) -0.0924(3)
H18 H 0.0709 0.9294 -0.1543
C12A C -0.0211(5) 1.1314(4) 0.0084(3)
C13A C -0.0415(6) 1.2649(4) 0.0134(3)
H14A H -0.0691 1.2952 0.0747
C14A C -0.0215(6) 1.3479(4) -0.0689(3)
H15A H -0.0361 1.4346 -0.0638
C15A C 0.0210(6) 1.3054(4) -0.1620(3)
H16A H 0.0340 1.3643 -0.2181
C16A C 0.0434(6) 1.1801(4) -0.1718(3)
H17A H 0.0721 1.1539 -0.2345
C17A C 0.0234(5) 1.0870(4) -0.0867(2)
C18A C -0.0426(6) 1.0420(4) 0.0924(3)
H18A H -0.0709 1.0706 0.1543
loop_
_geom_bond_atom_site_label_1
_geom_bond_atom_site_label_2
_geom_bond_site_symmetry_1
_geom_bond_site_symmetry_2
Cu1 N1 1_555 1_555
S1 C1 1_555 1_555
N1 C1 1_555 1_555
N2 Cu1 1_555 1_555
N3 H1 1_555 1_555
C2 N3 1_555 1_555
C3 N2 1_555 1_555
H2 C3 1_555 1_555
C4 N2 1_555 1_555
H3 C4 1_555 1_555
C5 C4 1_555 1_555
H4 C5 1_555 1_555
C6 C2 1_555 1_555
H5 C6 1_555 1_555
O1 C7 1_555 1_555
C7 N3 1_555 1_555
C8 C7 1_555 1_555
H6 C8 1_555 1_555
H7 C8 1_555 1_555
C9 C8 1_555 1_555
H8 C9 1_555 1_555
H9 C9 1_555 1_555
C10 C9 1_555 1_555
H10 C10 1_555 1_555
H11 C10 1_555 1_555
C11 C10 1_555 1_555
H12 C11 1_555 1_555
H13 C11 1_555 1_555
C12 C13 1_555 1_555
C13 H14 1_555 1_555
C14 C13 1_555 1_555
H15 C14 1_555 1_555
C15 C14 1_555 1_555
H16 C15 1_555 1_555
C16 C15 1_555 1_555
H17 C16 1_555 1_555
C17 C12 1_555 1_555
C18 C12 1_555 1_555
H18 C18 1_555 1_555
O2 Cu1 1_555 1_555
N4 C19 1_555 1_555
C19 O2 1_555 1_555
H19 C19 1_555 1_555
C20 N4 1_555 1_555
H20 C20 1_555 1_555
H21 C20 1_555 1_555
H22 C20 1_555 1_555
C21 N4 1_555 1_555
H23 C21 1_555 1_555
H24 C21 1_555 1_555
H25 C21 1_555 1_555
Cu1_2 N2A 1_555 1_555
S1A C1A 1_555 1_555
N1A Cu1 1_555 1_555
C1A N1A 1_555 1_555
N2A C3A 1_555 1_555
N2A_2 Cu1 1_555 1_555
N3A H1A 1_555 1_555
C2A N3A 1_555 1_555
C3A C2A 1_555 1_555
H2A C3A 1_555 1_555
C4A N2A 1_555 1_555
H3A C4A 1_555 1_555
C5A C4A 1_555 1_555
H4A C5A 1_555 1_555
C6A C2A 1_555 1_555
H5A C6A 1_555 1_555
O1A C7A 1_555 1_555
C7A N3A 1_555 1_555
C8A C7A 1_555 1_555
H6A C8A 1_555 1_555
H7A C8A 1_555 1_555
C9A C8A 1_555 1_555
H8A C9A 1_555 1_555
H9A C9A 1_555 1_555
C10A C9A 1_555 1_555
H10A C10A 1_555 1_555
H11A C10A 1_555 1_555
C11A C11 1_555 1_555
H12A C11A 1_555 1_555
H13A C11A 1_555 1_555
C12A C13A 1_555 1_555
C13A H14A 1_555 1_555
C14A C13A 1_555 1_555
H15A C14A 1_555 1_555
C15A C14A 1_555 1_555
H16A C15A 1_555 1_555
C16A C15A 1_555 1_555
H17A C16A 1_555 1_555
C17A C18 1_555 1_555
C18A C17 1_555 1_555
H18A C18A 1_555 1_555
O2A Cu1 1_555 1_555
N4A C19A 1_555 1_555
C19A O2A 1_555 1_555
H19A C19A 1_555 1_555
C20A N4A 1_555 1_555
H20A C20A 1_555 1_555
H21A C20A 1_555 1_555
H22A C20A 1_555 1_555
C21A N4A 1_555 1_555
H23A C21A 1_555 1_555
H24A C21A 1_555 1_555
H25A C21A 1_555 1_555
C2 C3 1_555 1_555
C5 C6 1_555 1_555
C16 C17 1_555 1_555
C5A C6A 1_555 1_555
C10A C11A 1_555 1_555
C12A C17A 1_555 1_555
C12A C18A 1_555 1_555
C16A C17A 1_555 1_555

#END
