
#######################################################################
#
#                 Cambridge Crystallographic Data Centre
#                                CCDC 
#
#######################################################################
#
# If this CIF has been generated from an entry in the Cambridge 
# Structural Database, then it will include bibliographic, chemical, 
# crystal, experimental, refinement or atomic coordinate data resulting 
# from the CCDC's data processing and validation procedures.
#
#######################################################################

data_GAHZOG
_symmetry_cell_setting           triclinic
_symmetry_space_group_name_H-M   'P -1'
_symmetry_Int_Tables_number      2
_space_group_name_Hall           '-P 1'
loop_
_symmetry_equiv_pos_site_id
_symmetry_equiv_pos_as_xyz
1 x,y,z
2 -x,-y,-z
_cell_length_a                   10.069(3)
_cell_length_b                   14.339(3)
_cell_length_c                   14.469(4)
_cell_angle_alpha                75.382(7)
_cell_angle_beta                 85.836(7)
_cell_angle_gamma                76.313(7)
_cell_volume                     1963.82
loop_
_atom_site_label
_atom_site_type_symbol
_atom_site_fract_x
_atom_site_fract_y
_atom_site_fract_z
Cu1 Cu 0.43390(4) 1.25296(3) 0.47287(3)
S1 S 0.58461(17) 1.11214(12) 0.21857(9)
C1 C 0.5562(4) 1.1488(3) 0.3159(3)
N1 N 0.5345(3) 1.1743(2) 0.3860(2)
S2 S 0.15754(18) 1.39823(13) 0.69611(12)
C2 C 0.2586(4) 1.3594(3) 0.6153(3)
N2 N 0.3292(3) 1.3323(2) 0.5567(2)
O1 O 0.7402(3) 1.30046(19) 0.7437(2)
N3 N 0.5577(3) 1.1692(2) 0.58330(19)
C3 C 0.6932(3) 1.1557(2) 0.7174(2)
C4 C 0.6042(3) 1.2097(2) 0.6446(2)
H1 H 0.5750 1.2776 0.6378
C5 C 0.5998(4) 1.0716(3) 0.5938(3)
H2 H 0.5691 1.0425 0.5513
C6 C 0.6871(4) 1.0124(3) 0.6654(3)
H3 H 0.7134 0.9445 0.6712
C7 C 0.7352(3) 1.0545(2) 0.7284(2)
H4 H 0.7943 1.0157 0.7770
C8 C 0.7461(3) 1.2124(3) 0.7756(2)
N4 N 1.3092(3) 1.3326(2) 1.36272(19)
O2 O 1.0744(3) 1.19419(19) 1.24414(18)
C9 C 1.1637(3) 1.3344(2) 1.2382(2)
C10 C 1.2427(3) 1.2865(2) 1.3181(2)
H5 H 1.2500 1.2189 1.3419
C11 C 1.2952(4) 1.4302(3) 1.3292(3)
H6 H 1.3409 1.4630 1.3597
C12 C 1.2166(4) 1.4839(3) 1.2520(3)
H7 H 1.2085 1.5518 1.2309
C13 C 1.1493(4) 1.4350(3) 1.2059(3)
H8 H 1.0949 1.4700 1.1535
C14 C 1.0976(3) 1.2719(3) 1.1953(2)
N5 N 0.8004(3) 1.1597(2) 0.86074(18)
H9 H 0.7924 1.0994 0.8799
N6 N 1.0697(3) 1.3068(2) 1.10120(19)
H10 H 1.0949 1.3603 1.0729
C15 C 0.8698(3) 1.1964(2) 0.9212(2)
C16 C 0.8591(4) 1.1624(3) 1.0191(2)
H11 H 0.8066 1.1163 1.0441
C17 C 0.9250(4) 1.1958(3) 1.0805(3)
H12 H 0.9169 1.1721 1.1462
C18 C 1.0034(3) 1.2648(2) 1.0440(2)
C19 C 1.0158(3) 1.2972(2) 0.9453(2)
H13 H 1.0699 1.3422 0.9199
C20 C 0.9499(3) 1.2640(2) 0.8849(2)
H14 H 0.9589 1.2870 0.8192
O3 O 0.5839(3) 1.3750(2) 0.4320(2)
N7 N 0.8055(4) 1.3450(3) 0.4716(3)
C21 C 0.6772(5) 1.3952(3) 0.4653(3)
H15 H 0.6564 1.4517 0.4888
C22 C 0.8450(7) 1.2560(5) 0.4405(6)
H16 H 0.7678 1.2265 0.4445
H17 H 0.9166 1.2109 0.4803
H18 H 0.8773 1.2703 0.3755
C23 C 0.9093(6) 1.3761(5) 0.5142(5)
H19 H 0.8760 1.4434 0.5182
H20 H 0.9909 1.3709 0.4753
H21 H 0.9295 1.3343 0.5771
N8 N 0.1450(3) 1.0728(3) 0.6356(3)
O4 O 0.2880(3) 1.1283(2) 0.5167(2)
C24 C 0.2350(5) 1.1255(3) 0.5963(4)
H22 H 0.2605 1.1639 0.6321
C25 C 0.1093(6) 1.0049(5) 0.5920(5)
H23 H 0.0982 1.0335 0.5247
H24 H 0.0251 0.9895 0.6195
H25 H 0.1802 0.9455 0.6022
C26 C 0.0923(6) 1.0757(5) 0.7320(5)
H26 H 0.1448 1.1087 0.7605
H27 H 0.0993 1.0094 0.7700
H28 H -0.0017 1.1108 0.7288
Cu1_2 Cu 1.43390(4) 1.25296(3) 1.47287(3)
N4_2 N 0.3092(3) 1.3326(2) 0.36272(19)
N9 N 1.3673(3) 1.1439(2) -0.0367(3)
O5 O 1.2780(4) 1.0142(2) 0.0376(2)
C27 C 1.3213(5) 1.0870(4) 0.0377(4)
H29 H 1.3213 1.1033 0.0960
C28 C 1.4208(6) 1.2266(4) -0.0277(5)
H30 H 1.3966 1.2394 0.0340
H31 H 1.3827 1.2842 -0.0764
H32 H 1.5185 1.2109 -0.0349
C29 C 1.3665(8) 1.1275(5) -0.1289(4)
H33 H 1.3166 1.0777 -0.1270
H34 H 1.4587 1.1058 -0.1499
H35 H 1.3235 1.1879 -0.1725
N10 N 0.6770(5) 1.4387(4) 1.1041(4)
O6 O 0.8112(4) 1.5340(3) 1.0219(3)
C30 C 0.7411(10) 1.4761(7) 1.0300(8)
H36 H 0.7319 1.4555 0.9753
C31 C 0.634(3) 1.4900(19) 1.1795(18)
H37 H 0.5863 1.4512 1.2285
H38 H 0.5747 1.5531 1.1538
H39 H 0.7130 1.4996 1.2062
C32 C 0.5857(16) 1.3726(11) 1.1136(12)
H40 H 0.5529 1.3574 1.1784
H41 H 0.6339 1.3127 1.0970
H42 H 0.5097 1.4038 1.0717
C33? C 0.6424(15) 1.3947(11) 1.0302(11)
C34? C 0.7641(12) 1.4961(9) 1.0920(10)
C35? C 0.661(2) 1.3916(17) 1.2030(15)
H43? H 0.7915 1.5075 1.1474
H44? H 0.5762 1.3561 1.0554
H45? H 0.7234 1.3530 1.0109
H46? H 0.6051 1.4464 0.9761
H47? H 0.5969 1.3503 1.2091
H48? H 0.6279 1.4411 1.2382
H49? H 0.7478 1.3519 1.2277
loop_
_geom_bond_atom_site_label_1
_geom_bond_atom_site_label_2
_geom_bond_site_symmetry_1
_geom_bond_site_symmetry_2
Cu1 N1 1_555 1_555
S1 C1 1_555 1_555
C1 N1 1_555 1_555
S2 C2 1_555 1_555
C2 N2 1_555 1_555
N2 Cu1 1_555 1_555
O1 C8 1_555 1_555
N3 Cu1 1_555 1_555
C3 C4 1_555 1_555
C4 N3 1_555 1_555
H1 C4 1_555 1_555
C5 N3 1_555 1_555
H2 C5 1_555 1_555
C6 C5 1_555 1_555
H3 C6 1_555 1_555
C7 C3 1_555 1_555
H4 C7 1_555 1_555
C8 C3 1_555 1_555
N4 C10 1_555 1_555
O2 C14 1_555 1_555
C9 C10 1_555 1_555
C10 H5 1_555 1_555
C11 N4 1_555 1_555
H6 C11 1_555 1_555
C12 C11 1_555 1_555
H7 C12 1_555 1_555
C13 C9 1_555 1_555
H8 C13 1_555 1_555
C14 C9 1_555 1_555
N5 C8 1_555 1_555
H9 N5 1_555 1_555
N6 C14 1_555 1_555
H10 N6 1_555 1_555
C15 N5 1_555 1_555
C16 C15 1_555 1_555
H11 C16 1_555 1_555
C17 C16 1_555 1_555
H12 C17 1_555 1_555
C18 N6 1_555 1_555
C19 C18 1_555 1_555
H13 C19 1_555 1_555
C20 C15 1_555 1_555
H14 C20 1_555 1_555
O3 Cu1 1_555 1_555
N7 C21 1_555 1_555
C21 O3 1_555 1_555
H15 C21 1_555 1_555
C22 N7 1_555 1_555
H16 C22 1_555 1_555
H17 C22 1_555 1_555
H18 C22 1_555 1_555
C23 N7 1_555 1_555
H19 C23 1_555 1_555
H20 C23 1_555 1_555
H21 C23 1_555 1_555
N8 C24 1_555 1_555
O4 Cu1 1_555 1_555
C24 O4 1_555 1_555
H22 C24 1_555 1_555
C25 N8 1_555 1_555
H23 C25 1_555 1_555
H24 C25 1_555 1_555
H25 C25 1_555 1_555
C26 N8 1_555 1_555
H26 C26 1_555 1_555
H27 C26 1_555 1_555
H28 C26 1_555 1_555
N9 C27 1_555 1_555
O5 C27 1_555 1_555
C27 H29 1_555 1_555
C28 N9 1_555 1_555
H30 C28 1_555 1_555
H31 C28 1_555 1_555
H32 C28 1_555 1_555
C29 N9 1_555 1_555
H33 C29 1_555 1_555
H34 C29 1_555 1_555
H35 C29 1_555 1_555
N10 C30 1_555 1_555
O6 C30 1_555 1_555
C30 H36 1_555 1_555
C31 N10 1_555 1_555
H37 C31 1_555 1_555
H38 C31 1_555 1_555
H39 C31 1_555 1_555
C32 N10 1_555 1_555
H40 C32 1_555 1_555
H41 C32 1_555 1_555
H42 C32 1_555 1_555
Cu1_2 N4 1_555 1_555
N4_2 Cu1 1_555 1_555
C6 C7 1_555 1_555
C12 C13 1_555 1_555
C17 C18 1_555 1_555
C19 C20 1_555 1_555

#END
