
#######################################################################
#
#                 Cambridge Crystallographic Data Centre
#                                CCDC 
#
#######################################################################
#
# If this CIF has been generated from an entry in the Cambridge 
# Structural Database, then it will include bibliographic, chemical, 
# crystal, experimental, refinement or atomic coordinate data resulting 
# from the CCDC's data processing and validation procedures.
#
#######################################################################

data_GAHZAS
_symmetry_cell_setting           triclinic
_symmetry_space_group_name_H-M   'P -1'
_symmetry_Int_Tables_number      2
_space_group_name_Hall           '-P 1'
loop_
_symmetry_equiv_pos_site_id
_symmetry_equiv_pos_as_xyz
1 x,y,z
2 -x,-y,-z
_cell_length_a                   7.474(3)
_cell_length_b                   9.371(3)
_cell_length_c                   10.441(4)
_cell_angle_alpha                80.422(10)
_cell_angle_beta                 89.867(10)
_cell_angle_gamma                76.380(10)
_cell_volume                     700.285
loop_
_atom_site_label
_atom_site_type_symbol
_atom_site_fract_x
_atom_site_fract_y
_atom_site_fract_z
Cu1 Cu 0.0000 0.5000 0.0000
S1 S 0.44270(9) 0.19322(9) 0.31544(7)
N1 N 0.1893(3) 0.3598(2) 0.1201(2)
C1 C 0.2957(3) 0.2919(3) 0.2002(2)
O1 O 0.1725(2) 0.6776(2) 0.40259(19)
N2 N -0.1575(3) 0.5475(2) 0.15336(18)
N3 N -0.1217(3) 0.6875(2) 0.45905(19)
H1 H -0.1967 0.7072 0.5199
C2 C -0.1904(3) 0.6338(2) 0.3562(2)
C3 C -0.0851(3) 0.5908(2) 0.2533(2)
H2 H 0.0389 0.5921 0.2538
C4 C -0.3347(3) 0.5431(3) 0.1531(2)
H3 H -0.3848 0.5145 0.0827
C5 C -0.4453(3) 0.5797(3) 0.2537(3)
H4 H -0.5675 0.5730 0.2524
C6 C -0.3742(3) 0.6263(3) 0.3562(2)
H5 H -0.4477 0.6524 0.4246
C7 C 0.0482(3) 0.7122(3) 0.4744(2)
C8 C 0.0723(3) 0.7910(3) 0.5863(2)
H6 H 0.1827 0.7367 0.6377
H7 H -0.0321 0.7932 0.6419
C9 C 0.0877(3) 0.9503(3) 0.5353(2)
H8 H 0.1173 0.9944 0.6078
H9 H 0.1885 0.9470 0.4764
N4 N -0.2343(3) 0.0786(2) -0.0103(2)
O2 O -0.1750(3) 0.3082(2) -0.0360(2)
C10 C -0.2112(4) 0.1995(3) 0.0313(3)
H10 H -0.2237 0.2019 0.1197
C11 C -0.2192(5) 0.0656(4) -0.1462(3)
H11 H -0.2398 -0.0286 -0.1584
H12 H -0.0982 0.0721 -0.1735
H13 H -0.3095 0.1447 -0.1970
C12 C -0.2622(5) -0.0503(4) 0.0793(4)
H14 H -0.2760 -0.1262 0.0313
H15 H -0.3713 -0.0215 0.1268
H16 H -0.1578 -0.0883 0.1390
Cu1_2 Cu 0.0000 1.5000 1.0000
S1A S -0.44270(9) 0.80678(9) -0.31544(7)
N1A N -0.1893(3) 0.6402(2) -0.1201(2)
C1A C -0.2957(3) 0.7081(3) -0.2002(2)
O1A O -0.1725(2) 1.3224(2) 0.59741(19)
N2A N 0.1575(3) 1.4525(2) 0.84664(18)
N2A_2 N 0.1575(3) 0.4525(2) -0.15336(18)
N3A N 0.1217(3) 1.3125(2) 0.54095(19)
H1A H 0.1967 1.2928 0.4801
C2A C 0.1904(3) 1.3662(2) 0.6438(2)
C3A C 0.0851(3) 1.4092(2) 0.7467(2)
H2A H -0.0389 1.4079 0.7462
C4A C 0.3347(3) 1.4569(3) 0.8469(2)
H3A H 0.3848 1.4855 0.9173
C5A C 0.4453(3) 1.4203(3) 0.7463(3)
H4A H 0.5675 1.4270 0.7476
C6A C 0.3742(3) 1.3737(3) 0.6438(2)
H5A H 0.4477 1.3476 0.5754
C7A C -0.0482(3) 1.2878(3) 0.5256(2)
C8A C -0.0723(3) 1.2090(3) 0.4137(2)
H6A H -0.1827 1.2633 0.3623
H7A H 0.0321 1.2068 0.3581
C9A C -0.0877(3) 1.0497(3) 0.4647(2)
H8A H -0.1173 1.0056 0.3922
H9A H -0.1885 1.0530 0.5236
N4A N 0.2343(3) 0.9214(2) 0.0103(2)
O2A O 0.1750(3) 0.6918(2) 0.0360(2)
C10A C 0.2112(4) 0.8005(3) -0.0313(3)
H10A H 0.2237 0.7981 -0.1197
C11A C 0.2192(5) 0.9344(4) 0.1462(3)
H11A H 0.2398 1.0286 0.1584
H12A H 0.0982 0.9279 0.1735
H13A H 0.3095 0.8553 0.1970
C12A C 0.2622(5) 1.0503(4) -0.0793(4)
H14A H 0.2760 1.1262 -0.0313
H15A H 0.3713 1.0215 -0.1268
H16A H 0.1578 1.0883 -0.1390
loop_
_geom_bond_atom_site_label_1
_geom_bond_atom_site_label_2
_geom_bond_site_symmetry_1
_geom_bond_site_symmetry_2
Cu1 N1 1_555 1_555
S1 C1 1_555 1_555
N1 C1 1_555 1_555
O1 C7 1_555 1_555
N2 Cu1 1_555 1_555
N3 H1 1_555 1_555
C2 N3 1_555 1_555
C3 N2 1_555 1_555
H2 C3 1_555 1_555
C4 N2 1_555 1_555
H3 C4 1_555 1_555
C5 C4 1_555 1_555
H4 C5 1_555 1_555
C6 C2 1_555 1_555
H5 C6 1_555 1_555
C7 N3 1_555 1_555
C8 C7 1_555 1_555
H6 C8 1_555 1_555
H7 C8 1_555 1_555
C9 C8 1_555 1_555
H8 C9 1_555 1_555
H9 C9 1_555 1_555
N4 C10 1_555 1_555
O2 Cu1 1_555 1_555
C10 O2 1_555 1_555
H10 C10 1_555 1_555
C11 N4 1_555 1_555
H11 C11 1_555 1_555
H12 C11 1_555 1_555
H13 C11 1_555 1_555
C12 N4 1_555 1_555
H14 C12 1_555 1_555
H15 C12 1_555 1_555
H16 C12 1_555 1_555
Cu1_2 N2A 1_555 1_555
S1A C1A 1_555 1_555
N1A Cu1 1_555 1_555
C1A N1A 1_555 1_555
O1A C7A 1_555 1_555
N2A C3A 1_555 1_555
N2A_2 Cu1 1_555 1_555
N3A H1A 1_555 1_555
C2A N3A 1_555 1_555
C3A C2A 1_555 1_555
H2A C3A 1_555 1_555
C4A N2A 1_555 1_555
H3A C4A 1_555 1_555
C5A C4A 1_555 1_555
H4A C5A 1_555 1_555
C6A C2A 1_555 1_555
H5A C6A 1_555 1_555
C7A N3A 1_555 1_555
C8A C7A 1_555 1_555
H6A C8A 1_555 1_555
H7A C8A 1_555 1_555
C9A C9 1_555 1_555
H8A C9A 1_555 1_555
H9A C9A 1_555 1_555
N4A C10A 1_555 1_555
O2A Cu1 1_555 1_555
C10A O2A 1_555 1_555
H10A C10A 1_555 1_555
C11A N4A 1_555 1_555
H11A C11A 1_555 1_555
H12A C11A 1_555 1_555
H13A C11A 1_555 1_555
C12A N4A 1_555 1_555
H14A C12A 1_555 1_555
H15A C12A 1_555 1_555
H16A C12A 1_555 1_555
C2 C3 1_555 1_555
C5 C6 1_555 1_555
C5A C6A 1_555 1_555
C8A C9A 1_555 1_555

#END
