
#######################################################################
#
#                 Cambridge Crystallographic Data Centre
#                                CCDC 
#
#######################################################################
#
# If this CIF has been generated from an entry in the Cambridge 
# Structural Database, then it will include bibliographic, chemical, 
# crystal, experimental, refinement or atomic coordinate data resulting 
# from the CCDC's data processing and validation procedures.
#
#######################################################################

data_GAJBIE
_symmetry_cell_setting           triclinic
_symmetry_space_group_name_H-M   'P -1'
_symmetry_Int_Tables_number      2
_space_group_name_Hall           '-P 1'
loop_
_symmetry_equiv_pos_site_id
_symmetry_equiv_pos_as_xyz
1 x,y,z
2 -x,-y,-z
_cell_length_a                   11.099(3)
_cell_length_b                   12.396(3)
_cell_length_c                   13.677(3)
_cell_angle_alpha                95.279(7)
_cell_angle_beta                 98.762(7)
_cell_angle_gamma                111.365(7)
_cell_volume                     1709.57
loop_
_atom_site_label
_atom_site_type_symbol
_atom_site_fract_x
_atom_site_fract_y
_atom_site_fract_z
Cu1 Cu 0.0000 0.5000 1.0000
Cu2 Cu -0.5000 -0.5000 0.0000
S1 S 0.23793(17) 0.72200(14) 1.03017(14)
N1 N 0.4086(5) 0.6065(4) 1.0163(4)
C1 C 0.3374(5) 0.6546(5) 1.0204(4)
S2 S -0.28700(18) 0.69815(16) 0.94383(16)
N2 N -0.1028(5) 0.5970(4) 0.9863(4)
C2 C -0.1782(6) 0.6384(5) 0.9693(4)
N3 N -0.0021(5) 0.4859(4) 0.8494(3)
N4 N -0.0830(6) 0.2467(4) 0.6464(4)
H1 H -0.0826 0.1974 0.6866
C3 C -0.0485(6) 0.3611(5) 0.6906(4)
C4 C -0.0316(6) 0.3805(5) 0.7948(4)
H2 H -0.0412 0.3169 0.8283
C5 C 0.0158(7) 0.5773(5) 0.8000(4)
H3 H 0.0355 0.6511 0.8360
C6 C 0.0061(8) 0.5658(6) 0.6978(5)
H4 H 0.0224 0.6314 0.6660
C7 C -0.0275(7) 0.4581(6) 0.6439(5)
H5 H -0.0364 0.4497 0.5745
N5 N -0.4017(5) -0.4434(4) 0.1455(4)
N6 N -0.2581(6) -0.1692(4) 0.3199(4)
H6 H -0.2700 -0.1279 0.2749
C8 C -0.2940(7) -0.2888(5) 0.2869(5)
C9 C -0.3606(6) -0.3299(5) 0.1862(4)
H7 H -0.3764 -0.2772 0.1470
C10 C -0.3760(7) -0.5180(5) 0.2017(5)
H8 H -0.4051 -0.5967 0.1741
O1 O -0.1203(7) 0.2609(5) 0.4810(4)
C11 C -0.3075(7) -0.4813(6) 0.2993(5)
H9 H -0.2889 -0.5350 0.3358
C12 C -0.2663(7) -0.3666(6) 0.3433(5)
H10 H -0.2209 -0.3419 0.4095
O2 O -0.1822(8) -0.1580(5) 0.4835(4)
C13 C -0.1172(8) 0.2025(6) 0.5476(5)
C14 C -0.1608(10) 0.0692(6) 0.5291(5)
H11 H -0.2413 0.0347 0.5541
H12 H -0.0935 0.0487 0.5675
C15 C -0.1841(10) 0.0176(6) 0.4245(5)
H13 H -0.2604 0.0269 0.3873
H14 H -0.1084 0.0589 0.3961
C16 C -0.2074(8) -0.1120(6) 0.4132(5)
Cu1_2 Cu -1.0000 -0.5000 0.0000
Cu2_2 Cu -0.5000 0.5000 1.0000
Cu2_3 Cu 0.5000 0.5000 1.0000
Cu2_4 Cu 0.5000 1.5000 2.0000
S1A S -0.23793(17) 0.27800(14) 0.96983(14)
S1_2 S -0.76207(17) -0.27800(14) 0.03017(14)
N1_2 N -0.5914(5) -0.3935(4) 0.0163(4)
N1A N -0.4086(5) -0.6065(4) -0.0163(4)
C1_2 C -0.6626(5) -0.3454(5) 0.0204(4)
S2A S 0.28700(18) 0.30185(16) 1.05617(16)
S2_2 S -0.28700(18) -0.30185(16) -0.05617(16)
S2A_2 S -0.71300(18) -0.69815(16) 0.05617(16)
N2A N 0.1028(5) 0.4030(4) 1.0137(4)
C2A C 0.1782(6) 0.3616(5) 1.0307(4)
N3A N 0.0021(5) 0.5141(4) 1.1506(3)
N4A N 0.0830(6) 0.7533(4) 1.3536(4)
H1A H 0.0826 0.8026 1.3134
C3A C 0.0485(6) 0.6389(5) 1.3094(4)
C4A C 0.0316(6) 0.6195(5) 1.2052(4)
H2A H 0.0412 0.6831 1.1717
C5A C -0.0158(7) 0.4227(5) 1.2000(4)
H3A H -0.0355 0.3489 1.1640
C6A C -0.0061(8) 0.4342(6) 1.3022(5)
H4A H -0.0224 0.3686 1.3340
C7A C 0.0275(7) 0.5419(6) 1.3561(5)
H5A H 0.0364 0.5503 1.4255
N5A N 0.4017(5) 1.4434(4) 1.8545(4)
N5A_2 N -0.5983(5) -0.5566(4) -0.1455(4)
N6A N 0.2581(6) 1.1692(4) 1.6801(4)
H6A H 0.2700 1.1279 1.7251
C8A C 0.2940(7) 1.2888(5) 1.7131(5)
C9A C 0.3606(6) 1.3299(5) 1.8138(4)
H7A H 0.3764 1.2772 1.8530
C10A C 0.3760(7) 1.5180(5) 1.7983(5)
H8A H 0.4051 1.5967 1.8259
O1A O 0.1203(7) 0.7391(5) 1.5190(4)
C11A C 0.3075(7) 1.4813(6) 1.7007(5)
H9A H 0.2889 1.5350 1.6642
C12A C 0.2663(7) 1.3666(6) 1.6567(5)
H10A H 0.2209 1.3419 1.5905
O2A O 0.1822(8) 1.1580(5) 1.5165(4)
C13A C 0.1172(8) 0.7975(6) 1.4524(5)
C14A C 0.1608(10) 0.9308(6) 1.4709(5)
H11A H 0.2413 0.9653 1.4459
H12A H 0.0935 0.9513 1.4325
C15A C 0.1841(10) 0.9824(6) 1.5755(5)
H13A H 0.2604 0.9731 1.6127
H14A H 0.1084 0.9411 1.6039
C16A C 0.2074(8) 1.1120(6) 1.5868(5)
O3 O -0.3506(9) -1.0435(6) 0.1830(6)
N7 N -0.4640(11) -0.9310(9) 0.1671(7)
C17 C -0.3486(16) -0.8250(10) 0.2183(12)
H15 H -0.3715 -0.7575 0.2173
H16 H -0.2766 -0.8151 0.1842
H17 H -0.3227 -0.8336 0.2864
C18 C -0.5766(18) -0.9128(17) 0.1300(16)
H18 H -0.5602 -0.8309 0.1450
H19 H -0.6473 -0.9575 0.1604
H20 H -0.6004 -0.9373 0.0587
C19 C -0.4469(13) -1.0226(10) 0.1609(11)
H21 H -0.5230 -1.0885 0.1339
O4 O -0.9302(11) -1.0956(7) 0.2161(6)
N8 N -0.9966(10) -0.9546(8) 0.1700(7)
C20 C -1.0033(15) -1.0597(9) 0.1656(9)
H22 H -1.0721 -1.1157 0.1183
C21 C -1.0809(15) -0.9207(14) 0.0929(15)
H23 H -1.0279 -0.8778 0.0493
H24 H -1.1187 -0.8725 0.1254
H25 H -1.1503 -0.9902 0.0543
C22 C -0.9095(17) -0.8663(11) 0.2464(10)
H26 H -0.9105 -0.8953 0.3091
H27 H -0.9358 -0.8006 0.2500
H28 H -0.8219 -0.8420 0.2329
O5 O -0.4719(16) -0.2647(12) 0.6322(9)
N9 N -0.5054(16) -0.2132(13) 0.5652(10)
O6 O -0.4876(17) -0.1138(12) 0.5674(13)
C23 C -0.5589(9) -0.2898(10) 0.4666(6)
C24 C -0.5781(10) -0.2388(9) 0.3823(10)
H29 H -0.5584 -0.1585 0.3889
C25 C -0.6267(9) -0.3077(15) 0.2880(7)
H30 H -0.6395 -0.2735 0.2316
C26 C -0.6562(8) -0.4277(14) 0.2781(6)
H31 H -0.6887 -0.4738 0.2150
C27 C -0.6370(10) -0.4787(9) 0.3623(10)
H32 H -0.6567 -0.5590 0.3557
C28 C -0.5884(10) -0.4098(11) 0.4566(7)
H33 H -0.5756 -0.4440 0.5130
loop_
_geom_bond_atom_site_label_1
_geom_bond_atom_site_label_2
_geom_bond_site_symmetry_1
_geom_bond_site_symmetry_2
Cu1 S1 1_555 1_555
Cu2 N5 1_555 1_555
S1 C1 1_555 1_555
N1 C1 1_555 1_555
S2 C2 1_555 1_555
N2 Cu1 1_555 1_555
C2 N2 1_555 1_555
N3 Cu1 1_555 1_555
N4 H1 1_555 1_555
C3 N4 1_555 1_555
C4 N3 1_555 1_555
H2 C4 1_555 1_555
C5 N3 1_555 1_555
H3 C5 1_555 1_555
C6 C5 1_555 1_555
H4 C6 1_555 1_555
C7 C3 1_555 1_555
H5 C7 1_555 1_555
N5 C9 1_555 1_555
N6 H6 1_555 1_555
C8 N6 1_555 1_555
C9 C8 1_555 1_555
H7 C9 1_555 1_555
C10 N5 1_555 1_555
H8 C10 1_555 1_555
O1 C13 1_555 1_555
C11 C10 1_555 1_555
H9 C11 1_555 1_555
C12 C8 1_555 1_555
H10 C12 1_555 1_555
O2 C16 1_555 1_555
C13 N4 1_555 1_555
C14 C13 1_555 1_555
H11 C14 1_555 1_555
H12 C14 1_555 1_555
C15 C14 1_555 1_555
H13 C15 1_555 1_555
H14 C15 1_555 1_555
C16 N6 1_555 1_555
O3 C19 1_555 1_555
N7 C17 1_555 1_555
C17 H15 1_555 1_555
H16 C17 1_555 1_555
H17 C17 1_555 1_555
C18 N7 1_555 1_555
H18 C18 1_555 1_555
H19 C18 1_555 1_555
H20 C18 1_555 1_555
C19 N7 1_555 1_555
H21 C19 1_555 1_555
O4 C20 1_555 1_555
N8 C20 1_555 1_555
C20 H22 1_555 1_555
C21 N8 1_555 1_555
H23 C21 1_555 1_555
H24 C21 1_555 1_555
H25 C21 1_555 1_555
C22 N8 1_555 1_555
H26 C22 1_555 1_555
H27 C22 1_555 1_555
H28 C22 1_555 1_555
O5 N9 1_555 1_555
N9 O6 1_555 1_555
C23 N9 1_555 1_555
C24 C23 1_555 1_555
H29 C24 1_555 1_555
C25 C24 1_555 1_555
H30 C25 1_555 1_555
C26 C25 1_555 1_555
H31 C26 1_555 1_555
C27 C26 1_555 1_555
H32 C27 1_555 1_555
C28 C23 1_555 1_555
H33 C28 1_555 1_555
Cu1_2 S1_2 1_555 1_555
Cu2_2 S2 1_555 1_555
Cu2_3 N1 1_555 1_555
Cu2_4 N5A 1_555 1_555
S1A Cu1 1_555 1_555
S1_2 C1_2 1_555 1_555
N1_2 Cu2 1_555 1_555
N1A Cu2 1_555 1_555
C1_2 N1_2 1_555 1_555
S2A Cu2_3 1_555 1_555
S2_2 Cu2 1_555 1_555
S2A_2 Cu2 1_555 1_555
N2A Cu1 1_555 1_555
C2A S2A 1_555 1_555
N3A Cu1 1_555 1_555
N4A H1A 1_555 1_555
C3A N4A 1_555 1_555
C4A N3A 1_555 1_555
H2A C4A 1_555 1_555
C5A N3A 1_555 1_555
H3A C5A 1_555 1_555
C6A C5A 1_555 1_555
H4A C6A 1_555 1_555
C7A C3A 1_555 1_555
H5A C7A 1_555 1_555
N5A C9A 1_555 1_555
N5A_2 Cu2 1_555 1_555
N6A H6A 1_555 1_555
C8A N6A 1_555 1_555
C9A C8A 1_555 1_555
H7A C9A 1_555 1_555
C10A N5A 1_555 1_555
H8A C10A 1_555 1_555
O1A C13A 1_555 1_555
C11A C10A 1_555 1_555
H9A C11A 1_555 1_555
C12A C8A 1_555 1_555
H10A C12A 1_555 1_555
O2A C16A 1_555 1_555
C13A N4A 1_555 1_555
C14A C13A 1_555 1_555
H11A C14A 1_555 1_555
H12A C14A 1_555 1_555
C15A C14A 1_555 1_555
H13A C15A 1_555 1_555
H14A C15A 1_555 1_555
C16A N6A 1_555 1_555
C3 C4 1_555 1_555
C6 C7 1_555 1_555
C11 C12 1_555 1_555
C15 C16 1_555 1_555
C27 C28 1_555 1_555
N2A C2A 1_555 1_555
C3A C4A 1_555 1_555
C6A C7A 1_555 1_555
C11A C12A 1_555 1_555
C15A C16A 1_555 1_555

#END
