
#######################################################################
#
#                 Cambridge Crystallographic Data Centre
#                                CCDC 
#
#######################################################################
#
# If this CIF has been generated from an entry in the Cambridge 
# Structural Database, then it will include bibliographic, chemical, 
# crystal, experimental, refinement or atomic coordinate data resulting 
# from the CCDC's data processing and validation procedures.
#
#######################################################################

data_GAJBOK
_symmetry_cell_setting           triclinic
_symmetry_space_group_name_H-M   'P -1'
_symmetry_Int_Tables_number      2
_space_group_name_Hall           '-P 1'
loop_
_symmetry_equiv_pos_site_id
_symmetry_equiv_pos_as_xyz
1 x,y,z
2 -x,-y,-z
_cell_length_a                   7.3122(17)
_cell_length_b                   9.953(2)
_cell_length_c                   12.917(3)
_cell_angle_alpha                99.909(6)
_cell_angle_beta                 105.708(6)
_cell_angle_gamma                110.183(6)
_cell_volume                     811.904
loop_
_atom_site_label
_atom_site_type_symbol
_atom_site_fract_x
_atom_site_fract_y
_atom_site_fract_z
Cu1 Cu 0.0000 0.0000 0.0000
S1 S 0.51406(10) 0.49072(7) 0.19640(7)
N1 N 0.2115(3) 0.19887(19) 0.09629(14)
C1 C 0.3369(3) 0.3200(2) 0.13749(17)
O1 O 0.7319(2) 0.10135(18) -0.07730(15)
N2 N 0.1170(2) 0.03005(17) -0.12334(13)
C2 C 0.4153(3) 0.1105(2) -0.17742(16)
C3 C 0.3220(3) 0.0755(2) -0.10037(16)
H1 H 0.4058 0.0838 -0.0290
C4 C -0.0035(3) 0.0137(2) -0.22742(17)
H2 H -0.1470 -0.0216 -0.2452
C5 C 0.0773(3) 0.0471(2) -0.30870(17)
H3 H -0.0107 0.0354 -0.3799
C6 C 0.2895(3) 0.0982(2) -0.28434(17)
H4 H 0.3472 0.1238 -0.3379
C7 C 0.6476(3) 0.1601(2) -0.13959(16)
N3 N 0.7484(3) 0.27040(19) -0.17502(14)
H5 H 0.6764 0.2943 -0.2274
C8 C 0.9750(3) 0.3538(2) -0.13022(17)
H6 H 1.0392 0.2971 -0.0916
H7 H 1.0248 0.3676 -0.1917
C9 C 1.0378(3) 0.5054(2) -0.04915(16)
H8 H 0.8114 0.4422 0.0201
H9 H 1.0186 0.4359 0.0898
Cu1_2 Cu 1.0000 0.0000 0.0000
Cu1_3 Cu 1.0000 1.0000 0.0000
Cu1_4 Cu 2.0000 1.0000 0.0000
S1A S -0.51406(10) -0.49072(7) -0.19640(7)
N1A N -0.2115(3) -0.19887(19) -0.09629(14)
C1A C -0.3369(3) -0.3200(2) -0.13749(17)
O1A O 0.2681(2) -0.10135(18) 0.07730(15)
O1_2 O -0.2681(2) 0.10135(18) -0.07730(15)
O1A_2 O 1.2681(2) 0.89865(18) 0.07730(15)
N2A N -0.1170(2) -0.03005(17) 0.12334(13)
N2A_2 N 1.8830(2) 0.96995(17) 0.12334(13)
C2A C 1.5847(3) 0.8895(2) 0.17742(16)
C3A C 1.6780(3) 0.9245(2) 0.10037(16)
H1A H 1.5942 0.9162 0.0290
C4A C 2.0035(3) 0.9863(2) 0.22742(17)
H2A H 2.1470 1.0216 0.2452
C5A C 1.9227(3) 0.9529(2) 0.30870(17)
H3A H 2.0107 0.9646 0.3799
C6A C 1.7105(3) 0.9018(2) 0.28434(17)
H4A H 1.6528 0.8762 0.3379
C7A C 1.3524(3) 0.8399(2) 0.13959(16)
N3A N 1.2516(3) 0.72960(19) 0.17502(14)
H5A H 1.3236 0.7057 0.2274
C8A C 1.0250(3) 0.6462(2) 0.13022(17)
H6A H 0.9608 0.7029 0.0916
H7A H 0.9752 0.6324 0.1917
C9A C 0.9622(3) 0.4946(2) 0.04915(16)
H8A H 1.1886 0.5578 -0.0201
H9A H 0.9814 0.5641 -0.0898
N4 N -0.3667(4) 0.2143(3) 0.4855(2)
O2 O -0.3269(5) 0.2277(5) 0.5823(2)
O3 O -0.5418(4) 0.1609(5) 0.4223(3)
C10 C -0.1955(4) 0.2661(3) 0.44322(19)
C11 C -0.2453(6) 0.2617(3) 0.3314(2)
H10 H -0.3831 0.2277 0.2838
C12 C -0.0836(8) 0.3097(4) 0.2935(3)
H11 H -0.1120 0.3063 0.2182
C13 C 0.1178(8) 0.3620(4) 0.3637(4)
H12 H 0.2251 0.3950 0.3361
C14 C 0.1646(5) 0.3666(4) 0.4757(3)
H13 H 0.3026 0.4021 0.5233
C15 C 0.0052(4) 0.3182(3) 0.5161(2)
H14 H 0.0333 0.3209 0.5912
loop_
_geom_bond_atom_site_label_1
_geom_bond_atom_site_label_2
_geom_bond_site_symmetry_1
_geom_bond_site_symmetry_2
Cu1 N1 1_555 1_555
S1 C1 1_555 1_555
N1 C1 1_555 1_555
O1 C7 1_555 1_555
N2 Cu1 1_555 1_555
C2 C3 1_555 1_555
C3 N2 1_555 1_555
H1 C3 1_555 1_555
C4 N2 1_555 1_555
H2 C4 1_555 1_555
C5 C4 1_555 1_555
H3 C5 1_555 1_555
C6 C2 1_555 1_555
H4 C6 1_555 1_555
C7 C2 1_555 1_555
N3 C7 1_555 1_555
H5 N3 1_555 1_555
C8 N3 1_555 1_555
H6 C8 1_555 1_555
H7 C8 1_555 1_555
C9 C8 1_555 1_555
H8 C9A 1_555 1_555
H9 C9A 1_555 1_555
N4 O2 1_555 1_555
O3 N4 1_555 1_555
C10 N4 1_555 1_555
C11 C10 1_555 1_555
H10 C11 1_555 1_555
C12 C11 1_555 1_555
H11 C12 1_555 1_555
C13 C12 1_555 1_555
H12 C13 1_555 1_555
C14 C13 1_555 1_555
H13 C14 1_555 1_555
C15 C10 1_555 1_555
H14 C15 1_555 1_555
Cu1_2 O1 1_555 1_555
Cu1_3 O1A_2 1_555 1_555
Cu1_4 N2A_2 1_555 1_555
S1A C1A 1_555 1_555
N1A Cu1 1_555 1_555
C1A N1A 1_555 1_555
O1A Cu1 1_555 1_555
O1_2 Cu1 1_555 1_555
O1A_2 C7A 1_555 1_555
N2A Cu1 1_555 1_555
N2A_2 C3A 1_555 1_555
C2A C3A 1_555 1_555
C3A H1A 1_555 1_555
C4A N2A_2 1_555 1_555
H2A C4A 1_555 1_555
C5A C4A 1_555 1_555
H3A C5A 1_555 1_555
C6A C2A 1_555 1_555
H4A C6A 1_555 1_555
C7A C2A 1_555 1_555
N3A C7A 1_555 1_555
H5A N3A 1_555 1_555
C8A N3A 1_555 1_555
H6A C8A 1_555 1_555
H7A C8A 1_555 1_555
C9A C9 1_555 1_555
H8A C9 1_555 1_555
H9A C9 1_555 1_555
C5 C6 1_555 1_555
C14 C15 1_555 1_555
C5A C6A 1_555 1_555
C8A C9A 1_555 1_555

#END
