
#######################################################################
#
#                 Cambridge Crystallographic Data Centre
#                                CCDC 
#
#######################################################################
#
# If this CIF has been generated from an entry in the Cambridge 
# Structural Database, then it will include bibliographic, chemical, 
# crystal, experimental, refinement or atomic coordinate data resulting 
# from the CCDC's data processing and validation procedures.
#
#######################################################################

data_GAJBEA
_symmetry_cell_setting           triclinic
_symmetry_space_group_name_H-M   'P -1'
_symmetry_Int_Tables_number      2
_space_group_name_Hall           '-P 1'
loop_
_symmetry_equiv_pos_site_id
_symmetry_equiv_pos_as_xyz
1 x,y,z
2 -x,-y,-z
_cell_length_a                   7.4296(13)
_cell_length_b                   10.7026(19)
_cell_length_c                   14.433(3)
_cell_angle_alpha                105.255(5)
_cell_angle_beta                 100.958(6)
_cell_angle_gamma                90.074(5)
_cell_volume                     1085.43
loop_
_atom_site_label
_atom_site_type_symbol
_atom_site_fract_x
_atom_site_fract_y
_atom_site_fract_z
Cu1 Cu 1.5000 0.5000 0.0000
S1 S 1.7558(2) 0.15373(16) -0.20495(12)
C1 C 1.6760(7) 0.2796(5) -0.1373(4)
N1 N 1.6175(6) 0.3686(5) -0.0891(3)
O1 O 1.2355(6) 0.5144(5) -0.1331(3)
N2 N 1.1191(7) 0.4814(5) -0.2956(4)
C2 C 1.0476(12) 0.3919(8) -0.3905(6)
H1 H 1.0177 0.4394 -0.4388
H2 H 0.9393 0.3456 -0.3873
H3 H 1.1387 0.3315 -0.4083
C3 C 1.1407(11) 0.6169(7) -0.2944(6)
H4 H 1.0945 0.6267 -0.3588
H5 H 1.2684 0.6447 -0.2748
H6 H 1.0736 0.6687 -0.2489
C4 C 1.1720(9) 0.4434(6) -0.2152(5)
H7 H 1.1601 0.3550 -0.2210
N3 N 1.3649(5) 0.3552(4) 0.0304(3)
C5 C 1.3800(6) 0.1599(4) 0.0827(3)
C6 C 1.4606(6) 0.2608(5) 0.0587(3)
H8 H 1.5869 0.2632 0.0622
C7 C 1.1838(7) 0.3516(5) 0.0236(4)
H9 H 1.1174 0.4172 0.0042
C8 C 1.0917(7) 0.2534(6) 0.0445(4)
H10 H 0.9647 0.2524 0.0381
C9 C 1.1879(6) 0.1580(5) 0.0743(4)
H11 H 1.1271 0.0920 0.0891
O2 O 1.7639(5) 0.1110(4) 0.0978(3)
N4 N 1.4767(5) 0.0662(4) 0.1177(3)
H12 H 1.4133 0.0115 0.1344
C10 C 1.6642(6) 0.0498(5) 0.1291(3)
C11 C 1.7338(7) -0.0419(5) 0.1884(4)
H13 H 1.8277 -0.0930 0.1604
H14 H 1.6343 -0.1005 0.1887
C12 C 1.8131(8) 0.0373(6) 0.2920(4)
H15 H 1.9141 0.0937 0.2904
H16 H 1.7196 0.0919 0.3171
C13 C 1.8809(7) -0.0438(6) 0.3610(4)
H17 H 1.9761 -0.0974 0.3368
H18 H 1.7805 -0.1009 0.3623
C14 C 1.9579(8) 0.0386(6) 0.4656(4)
H19 H 1.8595 0.0864 0.4916
H20 H 2.0501 0.1013 0.4632
Cu1_2 Cu 2.5000 -0.5000 1.0000
S1A S 1.2442(2) 0.84627(16) 0.20495(12)
C1A C 1.3240(7) 0.7204(5) 0.1373(4)
N1A N 1.3825(6) 0.6314(5) 0.0891(3)
O1A O 1.7645(6) 0.4856(5) 0.1331(3)
N2A N 1.8809(7) 0.5186(5) 0.2956(4)
C2A C 1.9524(12) 0.6081(8) 0.3905(6)
H1A H 1.9823 0.5606 0.4388
H2A H 2.0607 0.6544 0.3873
H3A H 1.8613 0.6685 0.4083
C3A C 1.8593(11) 0.3831(7) 0.2944(6)
H4A H 1.9055 0.3733 0.3588
H5A H 1.7316 0.3553 0.2748
H6A H 1.9264 0.3313 0.2489
C4A C 1.8280(9) 0.5566(6) 0.2152(5)
H7A H 1.8399 0.6450 0.2210
N3A N 2.6351(5) -0.3552(4) 0.9696(3)
N3A_2 N 1.6351(5) 0.6448(4) -0.0304(3)
C5A C 2.6200(6) -0.1599(4) 0.9173(3)
C6A C 2.5394(6) -0.2608(5) 0.9413(3)
H8A H 2.4131 -0.2632 0.9378
C7A C 2.8162(7) -0.3516(5) 0.9764(4)
H9A H 2.8826 -0.4172 0.9958
C8A C 2.9083(7) -0.2534(6) 0.9555(4)
H10A H 3.0353 -0.2524 0.9619
C9A C 2.8121(6) -0.1580(5) 0.9257(4)
H11A H 2.8729 -0.0920 0.9109
O2A O 2.2361(5) -0.1110(4) 0.9022(3)
N4A N 2.5233(5) -0.0662(4) 0.8823(3)
H12A H 2.5867 -0.0115 0.8656
C10A C 2.3358(6) -0.0498(5) 0.8709(3)
C11A C 2.2662(7) 0.0419(5) 0.8116(4)
H13A H 2.1723 0.0930 0.8396
H14A H 2.3657 0.1005 0.8113
C12A C 2.1869(8) -0.0373(6) 0.7080(4)
H15A H 2.0859 -0.0937 0.7096
H16A H 2.2804 -0.0919 0.6829
C13A C 2.1191(7) 0.0438(6) 0.6390(4)
H17A H 2.0239 0.0974 0.6632
H18A H 2.2195 0.1009 0.6377
C14A C 2.0421(8) -0.0386(6) 0.5344(4)
H19A H 2.1405 -0.0864 0.5084
H20A H 1.9499 -0.1013 0.5368
C15 C 0.3997(10) 0.5558(9) 0.3387(5)
H21 H 0.3736 0.5970 0.2889
C16 C 0.3675(10) 0.4297(10) 0.3172(5)
H22 H 0.3174 0.3844 0.2529
C17 C 0.4080(8) 0.3597(7) 0.3910(5)
C18 C 0.4823(7) 0.4323(6) 0.4895(4)
C19 C 0.4735(9) 0.6320(7) 0.4363(5)
C20 C 0.5092(11) 0.7679(9) 0.4623(7)
H23 H 0.4833 0.8122 0.4143
C21 C 0.5799(12) 0.8346(9) 0.5555(8)
H24 H 0.5995 0.9241 0.5703
C22 C 0.3756(10) 0.2265(8) 0.3699(6)
H25 H 0.3246 0.1786 0.3065
C15A C 0.6003(10) 0.4442(9) 0.6613(5)
H21A H 0.6264 0.4030 0.7111
C16A C 0.6325(10) 0.5703(10) 0.6828(5)
H22A H 0.6826 0.6156 0.7471
C17A C 0.5920(8) 0.6403(7) 0.6090(5)
C18A C 0.5177(7) 0.5677(6) 0.5105(4)
C19A C 0.5265(9) 0.3680(7) 0.5637(5)
C20A C 0.4908(11) 0.2321(9) 0.5377(7)
H23A H 0.5167 0.1878 0.5857
C21A C 0.4201(12) 0.1654(9) 0.4445(8)
H24A H 0.4005 0.0759 0.4297
C22A C 0.6244(10) 0.7735(8) 0.6301(6)
H25A H 0.6754 0.8214 0.6935
loop_
_geom_bond_atom_site_label_1
_geom_bond_atom_site_label_2
_geom_bond_site_symmetry_1
_geom_bond_site_symmetry_2
Cu1 N1 1_555 1_555
S1 C1 1_555 1_555
C1 N1 1_555 1_555
O1 Cu1 1_555 1_555
N2 C2 1_555 1_555
C2 H1 1_555 1_555
H2 C2 1_555 1_555
H3 C2 1_555 1_555
C3 N2 1_555 1_555
H4 C3 1_555 1_555
H5 C3 1_555 1_555
H6 C3 1_555 1_555
C4 O1 1_555 1_555
H7 C4 1_555 1_555
N3 Cu1 1_555 1_555
C5 C6 1_555 1_555
C6 N3 1_555 1_555
H8 C6 1_555 1_555
C7 N3 1_555 1_555
H9 C7 1_555 1_555
C8 C7 1_555 1_555
H10 C8 1_555 1_555
C9 C5 1_555 1_555
H11 C9 1_555 1_555
O2 C10 1_555 1_555
N4 C5 1_555 1_555
H12 N4 1_555 1_555
C10 N4 1_555 1_555
C11 C10 1_555 1_555
H13 C11 1_555 1_555
H14 C11 1_555 1_555
C12 C11 1_555 1_555
H15 C12 1_555 1_555
H16 C12 1_555 1_555
C13 C12 1_555 1_555
H17 C13 1_555 1_555
H18 C13 1_555 1_555
C14 C13 1_555 1_555
H19 C14 1_555 1_555
H20 C14 1_555 1_555
C15 H21 1_555 1_555
C16 C15 1_555 1_555
H22 C16 1_555 1_555
C17 C16 1_555 1_555
C18 C17 1_555 1_555
C19 C15 1_555 1_555
C20 C19 1_555 1_555
H23 C20 1_555 1_555
C21 C20 1_555 1_555
H24 C21 1_555 1_555
C22 C17 1_555 1_555
H25 C22 1_555 1_555
Cu1_2 N3A 1_555 1_555
S1A C1A 1_555 1_555
C1A N1A 1_555 1_555
N1A Cu1 1_555 1_555
O1A Cu1 1_555 1_555
N2A C2A 1_555 1_555
C2A H1A 1_555 1_555
H2A C2A 1_555 1_555
H3A C2A 1_555 1_555
C3A N2A 1_555 1_555
H4A C3A 1_555 1_555
H5A C3A 1_555 1_555
H6A C3A 1_555 1_555
C4A O1A 1_555 1_555
H7A C4A 1_555 1_555
N3A C6A 1_555 1_555
N3A_2 Cu1 1_555 1_555
C5A C6A 1_555 1_555
C6A H8A 1_555 1_555
C7A N3A 1_555 1_555
H9A C7A 1_555 1_555
C8A C7A 1_555 1_555
H10A C8A 1_555 1_555
C9A C5A 1_555 1_555
H11A C9A 1_555 1_555
O2A C10A 1_555 1_555
N4A C5A 1_555 1_555
H12A N4A 1_555 1_555
C10A N4A 1_555 1_555
C11A C10A 1_555 1_555
H13A C11A 1_555 1_555
H14A C11A 1_555 1_555
C12A C11A 1_555 1_555
H15A C12A 1_555 1_555
H16A C12A 1_555 1_555
C13A C12A 1_555 1_555
H17A C13A 1_555 1_555
H18A C13A 1_555 1_555
C14A C14 1_555 1_555
H19A C14A 1_555 1_555
H20A C14A 1_555 1_555
C15A H21A 1_555 1_555
C16A C15A 1_555 1_555
H22A C16A 1_555 1_555
C17A C16A 1_555 1_555
C18A C18 1_555 1_555
C19A C18 1_555 1_555
C20A C19A 1_555 1_555
H23A C20A 1_555 1_555
C21A C22 1_555 1_555
H24A C21A 1_555 1_555
C22A C21 1_555 1_555
H25A C22A 1_555 1_555
N2 C4 1_555 1_555
C8 C9 1_555 1_555
C19 C18A 1_555 1_555
N2A C4A 1_555 1_555
C8A C9A 1_555 1_555
C13A C14A 1_555 1_555
C15A C19A 1_555 1_555
C17A C18A 1_555 1_555
C17A C22A 1_555 1_555
C20A C21A 1_555 1_555

#END
