
#######################################################################
#
#                 Cambridge Crystallographic Data Centre
#                                CCDC 
#
#######################################################################
#
# If this CIF has been generated from an entry in the Cambridge 
# Structural Database, then it will include bibliographic, chemical, 
# crystal, experimental, refinement or atomic coordinate data resulting 
# from the CCDC's data processing and validation procedures.
#
#######################################################################

data_GAJCAX
_symmetry_cell_setting           triclinic
_symmetry_space_group_name_H-M   'P -1'
_symmetry_Int_Tables_number      2
_space_group_name_Hall           '-P 1'
loop_
_symmetry_equiv_pos_site_id
_symmetry_equiv_pos_as_xyz
1 x,y,z
2 -x,-y,-z
_cell_length_a                   8.1263(13)
_cell_length_b                   10.0055(17)
_cell_length_c                   15.295(3)
_cell_angle_alpha                73.118(4)
_cell_angle_beta                 87.475(4)
_cell_angle_gamma                87.115(4)
_cell_volume                     1187.94
loop_
_atom_site_label
_atom_site_type_symbol
_atom_site_fract_x
_atom_site_fract_y
_atom_site_fract_z
Cu1 Cu 0.0000 0.0000 0.0000
S1 S -0.16944(12) -0.09730(10) 0.30410(5)
C1 C -0.1398(3) -0.0417(2) 0.19426(16)
N1 N -0.1144(2) -0.0016(2) 0.11642(13)
N2 N 0.2086(2) 0.07636(18) 0.04271(12)
N3 N 0.4087(2) 0.04760(18) 0.25692(11)
H1 H 0.3940 -0.0390 0.2850
C2 C 0.3818(3) 0.0934(2) 0.16165(13)
C3 C 0.2455(3) 0.0453(2) 0.13103(14)
H2 H 0.1755 -0.0119 0.1741
C4 C 0.3096(3) 0.1608(2) -0.01793(15)
H3 H 0.2858 0.1847 -0.0796
C5 C 0.4471(3) 0.2136(3) 0.00747(16)
H4 H 0.5137 0.2724 -0.0367
C6 C 0.4862(3) 0.1791(2) 0.09862(16)
H5 H 0.5797 0.2124 0.1168
O1 O 0.4783(2) 0.25506(15) 0.27432(10)
C7 C 0.4556(3) 0.1298(2) 0.30686(14)
C8 C 0.4766(2) 0.05907(19) 0.40673(13)
C9 C 0.5922(3) 0.1114(2) 0.45123(14)
H6 H 0.6541 0.1865 0.4186
C10 C 0.3843(3) -0.0526(2) 0.45628(14)
H7 H 0.3062 -0.0880 0.4272
N4 N 0.0913(2) -0.2523(2) 0.07229(13)
N5 N 0.3149(2) -0.46029(18) 0.27521(11)
H8 H 0.3316 -0.5486 0.2998
C11 C 0.2465(3) -0.4178(2) 0.18775(14)
C12 C 0.1492(3) -0.2964(2) 0.15719(15)
H9 H 0.1230 -0.2434 0.1971
C13 C 0.1216(3) -0.3338(2) 0.01823(16)
H10 H 0.0814 -0.3047 -0.0406
C14 C 0.2092(4) -0.4587(3) 0.04489(16)
H11 H 0.2242 -0.5142 0.0056
C15 C 0.2747(3) -0.5010(2) 0.13042(15)
H12 H 0.3369 -0.5844 0.1493
O2 O 0.3335(2) -0.24706(15) 0.29784(11)
C16 C 0.3568(3) -0.3735(2) 0.32390(14)
C17 C 0.4323(3) -0.4432(2) 0.41437(13)
C18 C 0.5355(3) -0.3655(2) 0.44897(14)
H13 H 0.5601 -0.2753 0.4145
C19 C 0.3982(3) -0.5787(2) 0.46598(14)
H14 H 0.3304 -0.6319 0.4431
Cu1_2 Cu 1.0000 0.0000 1.0000
Cu1_3 Cu 1.0000 -1.0000 1.0000
S1A S 0.16944(12) 0.09730(10) -0.30410(5)
C1A C 0.1398(3) 0.0417(2) -0.19426(16)
N1A N 0.1144(2) 0.0016(2) -0.11642(13)
N2A N 0.7914(2) -0.07636(18) 0.95729(12)
N2A_2 N -0.2086(2) -0.07636(18) -0.04271(12)
N3A N 0.5913(2) -0.04760(18) 0.74308(11)
H1A H 0.6060 0.0390 0.7150
C2A C 0.6182(3) -0.0934(2) 0.83835(13)
C3A C 0.7545(3) -0.0453(2) 0.86897(14)
H2A H 0.8245 0.0119 0.8259
C4A C 0.6904(3) -0.1608(2) 1.01793(15)
H3A H 0.7142 -0.1847 1.0796
C5A C 0.5529(3) -0.2136(3) 0.99253(16)
H4A H 0.4863 -0.2724 1.0367
C6A C 0.5138(3) -0.1791(2) 0.90138(16)
H5A H 0.4203 -0.2124 0.8832
O1A O 0.5217(2) -0.25506(15) 0.72568(10)
C7A C 0.5444(3) -0.1298(2) 0.69314(14)
C8A C 0.5234(2) -0.05907(19) 0.59327(13)
C9A C 0.4078(3) -0.1114(2) 0.54877(14)
H6A H 0.3459 -0.1865 0.5814
C10A C 0.6157(3) 0.0526(2) 0.54372(14)
H7A H 0.6938 0.0880 0.5728
N4A N 0.9087(2) -0.7477(2) 0.92771(13)
N4A_2 N -0.0913(2) 0.2523(2) -0.07229(13)
N5A N 0.6851(2) -0.53971(18) 0.72479(11)
H8A H 0.6684 -0.4514 0.7002
C11A C 0.7535(3) -0.5822(2) 0.81225(14)
C12A C 0.8508(3) -0.7036(2) 0.84281(15)
H9A H 0.8770 -0.7566 0.8029
C13A C 0.8784(3) -0.6662(2) 0.98177(16)
H10A H 0.9186 -0.6953 1.0406
C14A C 0.7908(4) -0.5413(3) 0.95511(16)
H11A H 0.7758 -0.4858 0.9944
C15A C 0.7253(3) -0.4990(2) 0.86958(15)
H12A H 0.6631 -0.4156 0.8507
O2A O 0.6665(2) -0.75294(15) 0.70216(11)
C16A C 0.6432(3) -0.6265(2) 0.67610(14)
C17A C 0.5677(3) -0.5568(2) 0.58563(13)
C18A C 0.4645(3) -0.6345(2) 0.55103(14)
H13A H 0.4399 -0.7247 0.5855
C19A C 0.6018(3) -0.4213(2) 0.53402(14)
H14A H 0.6696 -0.3681 0.5569
N6 N 0.2140(4) 0.5114(3) -0.22732(18)
O3 O 0.2069(5) 0.5399(4) -0.15641(17)
O4 O 0.2918(4) 0.4111(3) -0.23870(19)
C20 C 0.1242(3) 0.6060(3) -0.30423(17)
C21 C 0.1244(4) 0.5709(3) -0.3842(2)
H15 H 0.1750 0.4880 -0.3894
C22 C 0.0451(4) 0.6655(4) -0.4584(2)
H16 H 0.0437 0.6462 -0.5143
C23 C -0.0302(4) 0.7859(4) -0.4483(3)
H17 H -0.0832 0.8480 -0.4973
C24 C -0.0276(4) 0.8147(4) -0.3672(3)
H18 H -0.0798 0.8966 -0.3612
C25 C 0.0494(4) 0.7267(3) -0.2944(2)
H19 H 0.0514 0.7479 -0.2391
loop_
_geom_bond_atom_site_label_1
_geom_bond_atom_site_label_2
_geom_bond_site_symmetry_1
_geom_bond_site_symmetry_2
Cu1 N1 1_555 1_555
S1 C1 1_555 1_555
C1 N1 1_555 1_555
N2 Cu1 1_555 1_555
N3 H1 1_555 1_555
C2 N3 1_555 1_555
C3 N2 1_555 1_555
H2 C3 1_555 1_555
C4 N2 1_555 1_555
H3 C4 1_555 1_555
C5 C4 1_555 1_555
H4 C5 1_555 1_555
C6 C2 1_555 1_555
H5 C6 1_555 1_555
O1 C7 1_555 1_555
C7 N3 1_555 1_555
C8 C7 1_555 1_555
C9 C8 1_555 1_555
H6 C9 1_555 1_555
C10 C8 1_555 1_555
H7 C10 1_555 1_555
N4 Cu1 1_555 1_555
N5 H8 1_555 1_555
C11 N5 1_555 1_555
C12 N4 1_555 1_555
H9 C12 1_555 1_555
C13 N4 1_555 1_555
H10 C13 1_555 1_555
C14 C13 1_555 1_555
H11 C14 1_555 1_555
C15 C11 1_555 1_555
H12 C15 1_555 1_555
O2 C16 1_555 1_555
C16 N5 1_555 1_555
C17 C16 1_555 1_555
C18 C17 1_555 1_555
H13 C18 1_555 1_555
C19 C17 1_555 1_555
H14 C19 1_555 1_555
N6 O3 1_555 1_555
O4 N6 1_555 1_555
C20 N6 1_555 1_555
C21 C20 1_555 1_555
H15 C21 1_555 1_555
C22 C21 1_555 1_555
H16 C22 1_555 1_555
C23 C22 1_555 1_555
H17 C23 1_555 1_555
C24 C23 1_555 1_555
H18 C24 1_555 1_555
C25 C20 1_555 1_555
H19 C25 1_555 1_555
Cu1_2 N2A 1_555 1_555
Cu1_3 N4A 1_555 1_555
S1A C1A 1_555 1_555
C1A N1A 1_555 1_555
N1A Cu1 1_555 1_555
N2A C3A 1_555 1_555
N2A_2 Cu1 1_555 1_555
N3A H1A 1_555 1_555
C2A N3A 1_555 1_555
C3A C2A 1_555 1_555
H2A C3A 1_555 1_555
C4A N2A 1_555 1_555
H3A C4A 1_555 1_555
C5A C4A 1_555 1_555
H4A C5A 1_555 1_555
C6A C2A 1_555 1_555
H5A C6A 1_555 1_555
O1A C7A 1_555 1_555
C7A N3A 1_555 1_555
C8A C7A 1_555 1_555
C9A C10 1_555 1_555
H6A C9A 1_555 1_555
C10A C9 1_555 1_555
H7A C10A 1_555 1_555
N4A C12A 1_555 1_555
N4A_2 Cu1 1_555 1_555
N5A H8A 1_555 1_555
C11A N5A 1_555 1_555
C12A C11A 1_555 1_555
H9A C12A 1_555 1_555
C13A N4A 1_555 1_555
H10A C13A 1_555 1_555
C14A C13A 1_555 1_555
H11A C14A 1_555 1_555
C15A C11A 1_555 1_555
H12A C15A 1_555 1_555
O2A C16A 1_555 1_555
C16A N5A 1_555 1_555
C17A C16A 1_555 1_555
C18A C19 1_555 1_555
H13A C18A 1_555 1_555
C19A C18 1_555 1_555
H14A C19A 1_555 1_555
C2 C3 1_555 1_555
C5 C6 1_555 1_555
C11 C12 1_555 1_555
C14 C15 1_555 1_555
C24 C25 1_555 1_555
C5A C6A 1_555 1_555
C8A C9A 1_555 1_555
C8A C10A 1_555 1_555
C14A C15A 1_555 1_555
C17A C18A 1_555 1_555
C17A C19A 1_555 1_555

#END
