
#######################################################################
#
#                 Cambridge Crystallographic Data Centre
#                                CCDC 
#
#######################################################################
#
# If this CIF has been generated from an entry in the Cambridge 
# Structural Database, then it will include bibliographic, chemical, 
# crystal, experimental, refinement or atomic coordinate data resulting 
# from the CCDC's data processing and validation procedures.
#
#######################################################################

data_GAJKOT
_symmetry_cell_setting           orthorhombic
_symmetry_space_group_name_H-M   'P b c a'
_symmetry_Int_Tables_number      61
_space_group_name_Hall           '-P 2ac 2ab'
loop_
_symmetry_equiv_pos_site_id
_symmetry_equiv_pos_as_xyz
1 x,y,z
2 1/2-x,-y,1/2+z
3 -x,1/2+y,1/2-z
4 1/2+x,1/2-y,-z
5 -x,-y,-z
6 1/2+x,y,1/2-z
7 x,1/2-y,1/2+z
8 1/2-x,1/2+y,z
_cell_length_a                   14.2742(6)
_cell_length_b                   13.6250(6)
_cell_length_c                   25.4330(11)
_cell_angle_alpha                90
_cell_angle_beta                 90
_cell_angle_gamma                90
_cell_volume                     4946.36
loop_
_atom_site_label
_atom_site_type_symbol
_atom_site_fract_x
_atom_site_fract_y
_atom_site_fract_z
Tl1 Tl 0.563720(7) 0.313454(7) 0.227585(4)
S1 S 0.39376(5) 0.41209(5) 0.20885(3)
S2 S 0.14279(5) 0.29476(5) 0.37231(3)
B1 B 0.3546(2) 0.2896(2) 0.31863(13)
H1 H 0.431(2) 0.307(2) 0.3132(13)
H2 H 0.342(2) 0.223(2) 0.3445(12)
C1 C 0.5111(2) 0.1656(2) 0.22606(15)
H3 H 0.5628 0.1197 0.2322
H4 H 0.4828 0.1523 0.1917
H5 H 0.4638 0.1575 0.2536
C2 C 0.6306(2) 0.4477(2) 0.24963(14)
H6 H 0.6961 0.4346 0.2589
H7 H 0.5982 0.4761 0.2800
H8 H 0.6283 0.4939 0.2201
C3 C 0.32514(18) 0.3091(2) 0.21700(10)
N1 N 0.31152(16) 0.26411(16) 0.26377(9)
N2 N 0.27768(16) 0.25716(17) 0.17936(10)
C4 C 0.2566(2) 0.1819(2) 0.25517(12)
H9 H 0.2369 0.1363 0.2812
C5 C 0.2358(2) 0.1775(2) 0.20360(12)
H10 H 0.1989 0.1286 0.1869
C6 C 0.2730(2) 0.2796(2) 0.12151(12)
C7 C 0.3708(3) 0.2705(3) 0.09820(13)
H11 H 0.4123 0.3190 0.1145
H12 H 0.3680 0.2821 0.0602
H13 H 0.3952 0.2044 0.1048
C8 C 0.2087(3) 0.2046(3) 0.09525(15)
H14 H 0.1454 0.2103 0.1099
H15 H 0.2327 0.1383 0.1017
H16 H 0.2066 0.2170 0.0573
C9 C 0.2313(3) 0.3817(3) 0.11396(13)
H17 H 0.2720 0.4305 0.1307
H18 H 0.1690 0.3842 0.1300
H19 H 0.2262 0.3959 0.0763
C10 C 0.2261(2) 0.3867(2) 0.37089(11)
N3 N 0.30789(16) 0.38120(17) 0.34463(9)
N4 N 0.22087(17) 0.47703(17) 0.39436(9)
C11 C 0.3536(2) 0.4697(2) 0.35034(11)
H20 H 0.4124 0.4862 0.3353
C12 C 0.3009(2) 0.5288(2) 0.38086(11)
H21 H 0.3159 0.5939 0.3912
C13 C 0.1449(2) 0.5152(2) 0.42972(11)
C14 C 0.1302(3) 0.4439(3) 0.47555(12)
H22 H 0.1097 0.3801 0.4619
H23 H 0.0823 0.4701 0.4993
H24 H 0.1892 0.4357 0.4948
C15 C 0.1766(3) 0.6133(2) 0.45282(12)
H25 H 0.1867 0.6605 0.4243
H26 H 0.2352 0.6040 0.4723
H27 H 0.1283 0.6383 0.4767
C16 C 0.0557(2) 0.5297(2) 0.39751(12)
H28 H 0.0358 0.4666 0.3828
H29 H 0.0680 0.5760 0.3688
H30 H 0.0062 0.5559 0.4202
Tl1E Tl 0.063720(7) 0.313454(7) 0.272415(4)
S2E S 0.64279(5) 0.29476(5) 0.12769(3)
N5 N 0.1249(3) 0.5449(3) 0.01341(18)
C17 C 0.0766(3) 0.5939(4) -0.0107(2)
C18 C 0.0154(4) 0.6547(4) -0.0417(2)
H31 H 0.0522 0.6900 -0.0682
H32 H -0.0164 0.7020 -0.0189
H33 H -0.0313 0.6135 -0.0593
loop_
_geom_bond_atom_site_label_1
_geom_bond_atom_site_label_2
_geom_bond_site_symmetry_1
_geom_bond_site_symmetry_2
Tl1 S1 1_555 1_555
S1 C3 1_555 1_555
S2 C10 1_555 1_555
B1 H1 1_555 1_555
H2 B1 1_555 1_555
C1 Tl1 1_555 1_555
H3 C1 1_555 1_555
H4 C1 1_555 1_555
H5 C1 1_555 1_555
C2 Tl1 1_555 1_555
H6 C2 1_555 1_555
H7 C2 1_555 1_555
H8 C2 1_555 1_555
C3 N1 1_555 1_555
N1 B1 1_555 1_555
N2 C3 1_555 1_555
C4 N1 1_555 1_555
H9 C4 1_555 1_555
C5 N2 1_555 1_555
H10 C5 1_555 1_555
C6 N2 1_555 1_555
C7 C6 1_555 1_555
H11 C7 1_555 1_555
H12 C7 1_555 1_555
H13 C7 1_555 1_555
C8 C6 1_555 1_555
H14 C8 1_555 1_555
H15 C8 1_555 1_555
H16 C8 1_555 1_555
C9 C6 1_555 1_555
H17 C9 1_555 1_555
H18 C9 1_555 1_555
H19 C9 1_555 1_555
C10 N3 1_555 1_555
N3 B1 1_555 1_555
N4 C10 1_555 1_555
C11 N3 1_555 1_555
H20 C11 1_555 1_555
C12 N4 1_555 1_555
H21 C12 1_555 1_555
C13 N4 1_555 1_555
C14 C13 1_555 1_555
H22 C14 1_555 1_555
H23 C14 1_555 1_555
H24 C14 1_555 1_555
C15 C13 1_555 1_555
H25 C15 1_555 1_555
H26 C15 1_555 1_555
H27 C15 1_555 1_555
C16 C13 1_555 1_555
H28 C16 1_555 1_555
H29 C16 1_555 1_555
H30 C16 1_555 1_555
N5 C17 1_555 1_555
C17 C18 1_555 1_555
C18 H31 1_555 1_555
H32 C18 1_555 1_555
H33 C18 1_555 1_555
Tl1E S2 1_555 1_555
S2E Tl1 1_555 1_555
C4 C5 1_555 1_555
C11 C12 1_555 1_555

#END
