
#######################################################################
#
#                 Cambridge Crystallographic Data Centre
#                                CCDC 
#
#######################################################################
#
# If this CIF has been generated from an entry in the Cambridge 
# Structural Database, then it will include bibliographic, chemical, 
# crystal, experimental, refinement or atomic coordinate data resulting 
# from the CCDC's data processing and validation procedures.
#
#######################################################################

data_GAJROA
_symmetry_cell_setting           monoclinic
_symmetry_space_group_name_H-M   'C 2/c'
_symmetry_Int_Tables_number      15
_space_group_name_Hall           '-C 2yn'
loop_
_symmetry_equiv_pos_site_id
_symmetry_equiv_pos_as_xyz
1 x,y,z
2 -x,y,1/2-z
3 1/2+x,1/2+y,z
4 1/2-x,1/2+y,1/2-z
5 -x,-y,-z
6 x,-y,1/2+z
7 1/2-x,1/2-y,-z
8 1/2+x,1/2-y,1/2+z
_cell_length_a                   6.8873(10)
_cell_length_b                   6.8857(10)
_cell_length_c                   27.206(4)
_cell_angle_alpha                90
_cell_angle_beta                 96.654(3)
_cell_angle_gamma                90
_cell_volume                     1281.52
loop_
_atom_site_label
_atom_site_type_symbol
_atom_site_fract_x
_atom_site_fract_y
_atom_site_fract_z
C1 C 0.7039(5) 0.6380(5) 0.80314(12)
C2 C 0.7201(5) 0.7920(5) 0.84309(11)
H1 H 0.8574 0.8167 0.8536
H2 H 0.6630 0.9116 0.8292
C3 C 0.7061(5) 0.6041(5) 0.91738(13)
C4 C 0.5956(5) 0.5531(5) 0.95940(11)
C5 C 0.7000(5) 0.4849(5) 1.00283(12)
H3 H 0.8353 0.4744 1.0048
C6 C 0.3934(5) 0.5670(5) 0.95728(12)
H4 H 0.3208 0.6119 0.9286
N1 N 0.6255(4) 0.7404(4) 0.88585(9)
H5 H 0.5128 0.7981 0.8914
O1 O 0.8051(3) 0.6530(4) 0.76794(7)
O2 O 0.5848(3) 0.5016(4) 0.80631(8)
O3 O 0.8604(4) 0.5247(4) 0.91043(8)
Zn1 Zn 0.5000 0.33761(9) 0.7500
C1D C 0.2961(5) 0.3620(5) 1.19686(12)
C2D C 0.2799(5) 0.2080(5) 1.15691(11)
H1D H 0.1426 0.1833 1.1464
H2D H 0.3370 0.0884 1.1708
C3D C 0.2939(5) 0.3959(5) 1.08262(13)
C4D C 0.4044(5) 0.4469(5) 1.04060(11)
C5D C 0.3000(5) 0.5151(5) 0.99717(12)
H3D H 0.1647 0.5256 0.9952
C6D C 0.6066(5) 0.4330(5) 1.04272(12)
H4D H 0.6792 0.3881 1.0714
N1D N 0.3745(4) 0.2596(4) 1.11415(9)
H5D H 0.4872 0.2019 1.1086
O1D O 0.1949(3) 0.3470(4) 1.23206(7)
O1B O 0.3051(3) 0.1530(4) 0.76794(7)
O1C O 0.6949(3) 0.1530(4) 0.73206(7)
O2D O 0.4152(3) 0.4984(4) 1.19369(8)
O2A O 0.4152(3) 0.5016(4) 0.69369(8)
O3D O 0.1396(4) 0.4753(4) 1.08957(8)
Zn1B Zn 1.0000 0.83761(9) 0.7500
Zn1F Zn 0.0000 0.16239(9) 1.2500
Zn1D Zn 0.5000 0.66239(9) 1.2500
loop_
_geom_bond_atom_site_label_1
_geom_bond_atom_site_label_2
_geom_bond_site_symmetry_1
_geom_bond_site_symmetry_2
C1 C2 1_555 1_555
C2 H1 1_555 1_555
H2 C2 1_555 1_555
C3 C4 1_555 1_555
C4 C5 1_555 1_555
C5 H3 1_555 1_555
C6 C4 1_555 1_555
H4 C6 1_555 1_555
N1 C2 1_555 1_555
H5 N1 1_555 1_555
O1 C1 1_555 1_555
O2 C1 1_555 1_555
O3 C3 1_555 1_555
Zn1 O2 1_555 1_555
C1D C2D 1_555 1_555
C2D H1D 1_555 1_555
H2D C2D 1_555 1_555
C3D C4D 1_555 1_555
C4D C5D 1_555 1_555
C5D C6 1_555 1_555
H3D C5D 1_555 1_555
C6D C5 1_555 1_555
H4D C6D 1_555 1_555
N1D C2D 1_555 1_555
H5D N1D 1_555 1_555
O1D C1D 1_555 1_555
O1B Zn1 1_555 1_555
O1C Zn1 1_555 1_555
O2D C1D 1_555 1_555
O2A Zn1 1_555 1_555
O3D C3D 1_555 1_555
Zn1B O1 1_555 1_555
Zn1F O1D 1_555 1_555
Zn1D O2D 1_555 1_555
C3 N1 1_555 1_555
C3D N1D 1_555 1_555
C4D C6D 1_555 1_555

#END
