
#######################################################################
#
#                 Cambridge Crystallographic Data Centre
#                                CCDC 
#
#######################################################################
#
# If this CIF has been generated from an entry in the Cambridge 
# Structural Database, then it will include bibliographic, chemical, 
# crystal, experimental, refinement or atomic coordinate data resulting 
# from the CCDC's data processing and validation procedures.
#
#######################################################################

data_GAJRIU
_symmetry_cell_setting           triclinic
_symmetry_space_group_name_H-M   'P -1'
_symmetry_Int_Tables_number      2
_space_group_name_Hall           '-P 1'
loop_
_symmetry_equiv_pos_site_id
_symmetry_equiv_pos_as_xyz
1 x,y,z
2 -x,-y,-z
_cell_length_a                   4.8950(5)
_cell_length_b                   5.0921(6)
_cell_length_c                   13.9272(15)
_cell_angle_alpha                82.3120(10)
_cell_angle_beta                 85.4630(10)
_cell_angle_gamma                85.5440(10)
_cell_volume                     342.156
loop_
_atom_site_label
_atom_site_type_symbol
_atom_site_fract_x
_atom_site_fract_y
_atom_site_fract_z
C1 C 0.5016(4) 0.2345(4) 0.37712(16)
C2 C 0.6451(4) 0.2634(5) 0.27598(16)
H1 H 0.7420 0.4249 0.2666
H2 H 0.7811 0.1155 0.2717
C3 C 0.3258(4) 0.4988(4) 0.16521(15)
C4 C 0.1549(4) 0.4918(4) 0.08047(15)
C5 C 0.2065(5) 0.3030(5) 0.01701(16)
H3 H 0.3462 0.1704 0.0281
C6 C -0.0523(5) 0.6898(5) 0.06252(16)
H4 H -0.0879 0.8183 0.1043
Mn1 Mn 1.0000 0.0000 0.5000
N1 N 0.4638(4) 0.2731(4) 0.19790(13)
H5 H 0.4447 0.1247 0.1711
O1 O 0.9359(4) -0.2809(3) 0.39882(13)
H6 H 1.0568 -0.4101 0.4052
H7 H 0.7771 -0.3388 0.4114
O2 O 0.2519(3) 0.1984(4) 0.38483(12)
O3 O 0.6469(3) 0.2506(3) 0.44643(11)
O4 O 0.3406(4) 0.7071(3) 0.19990(13)
C1A C -0.5016(4) 0.7655(4) -0.37712(16)
C2A C -0.6451(4) 0.7366(5) -0.27598(16)
H1A H -0.7420 0.5751 -0.2666
H2A H -0.7811 0.8845 -0.2717
C3A C -0.3258(4) 0.5012(4) -0.16521(15)
C4A C -0.1549(4) 0.5082(4) -0.08047(15)
C5A C -0.2065(5) 0.6970(5) -0.01701(16)
H3A H -0.3462 0.8296 -0.0281
C6A C 0.0523(5) 0.3102(5) -0.06252(16)
H4A H 0.0879 0.1817 -0.1043
Mn1_2 Mn -1.0000 1.0000 -0.5000
Mn1_3 Mn 0.0000 0.0000 0.5000
Mn1_4 Mn 0.0000 1.0000 -0.5000
N1A N -0.4638(4) 0.7269(4) -0.19790(13)
H5A H -0.4447 0.8753 -0.1711
O1A O 1.0641(4) 0.2809(3) 0.60118(13)
H6A H 0.9432 0.4101 0.5948
H7A H 1.2229 0.3388 0.5886
O2A O -0.2519(3) 0.8016(4) -0.38483(12)
O2_2 O 1.2519(3) 0.1984(4) 0.38483(12)
O2A_2 O 0.7481(3) -0.1984(4) 0.61517(12)
O3A O -0.6469(3) 0.7494(3) -0.44643(11)
O3A_2 O 1.3531(3) -0.2506(3) 0.55357(11)
O4A O -0.3406(4) 0.2929(3) -0.19990(13)
loop_
_geom_bond_atom_site_label_1
_geom_bond_atom_site_label_2
_geom_bond_site_symmetry_1
_geom_bond_site_symmetry_2
C1 C2 1_555 1_555
C2 H1 1_555 1_555
H2 C2 1_555 1_555
C3 C4 1_555 1_555
C4 C5 1_555 1_555
C5 H3 1_555 1_555
C6 C4 1_555 1_555
H4 C6 1_555 1_555
Mn1 O1 1_555 1_555
N1 C2 1_555 1_555
H5 N1 1_555 1_555
O1 H6 1_555 1_555
H7 O1 1_555 1_555
O2 C1 1_555 1_555
O3 C1 1_555 1_555
O4 C3 1_555 1_555
C1A C2A 1_555 1_555
C2A H1A 1_555 1_555
H2A C2A 1_555 1_555
C3A C4A 1_555 1_555
C4A C5A 1_555 1_555
C5A C6 1_555 1_555
H3A C5A 1_555 1_555
C6A C5 1_555 1_555
H4A C6A 1_555 1_555
Mn1_2 O3A 1_555 1_555
Mn1_3 O2 1_555 1_555
Mn1_4 O2A 1_555 1_555
N1A C2A 1_555 1_555
H5A N1A 1_555 1_555
O1A Mn1 1_555 1_555
H6A O1A 1_555 1_555
H7A O1A 1_555 1_555
O2A C1A 1_555 1_555
O2_2 Mn1 1_555 1_555
O2A_2 Mn1 1_555 1_555
O3A C1A 1_555 1_555
O3A_2 Mn1 1_555 1_555
O4A C3A 1_555 1_555
C3 N1 1_555 1_555
Mn1 O3 1_555 1_555
C3A N1A 1_555 1_555
C4A C6A 1_555 1_555

#END
