
#######################################################################
#
#                 Cambridge Crystallographic Data Centre
#                                CCDC 
#
#######################################################################
#
# If this CIF has been generated from an entry in the Cambridge 
# Structural Database, then it will include bibliographic, chemical, 
# crystal, experimental, refinement or atomic coordinate data resulting 
# from the CCDC's data processing and validation procedures.
#
#######################################################################

data_GAJREQ01
_symmetry_cell_setting           monoclinic
_symmetry_space_group_name_H-M   'C 2/c'
_symmetry_Int_Tables_number      15
_space_group_name_Hall           '-C 2yn'
loop_
_symmetry_equiv_pos_site_id
_symmetry_equiv_pos_as_xyz
1 x,y,z
2 -x,y,1/2-z
3 1/2+x,1/2+y,z
4 1/2-x,1/2+y,1/2-z
5 -x,-y,-z
6 x,-y,1/2+z
7 1/2-x,1/2-y,-z
8 1/2+x,1/2-y,1/2+z
_cell_length_a                   6.9224(2)
_cell_length_b                   7.9698(2)
_cell_length_c                   30.1896(8)
_cell_angle_alpha                90
_cell_angle_beta                 93.8408(14)
_cell_angle_gamma                90
_cell_volume                     1661.82
loop_
_atom_site_label
_atom_site_type_symbol
_atom_site_fract_x
_atom_site_fract_y
_atom_site_fract_z
Cd1 Cd 0.50000 0.17901(2) 0.25000
O1 O 0.37740(19) 0.36786(17) 0.20081(4)
O2 O 0.2693(2) 0.12189(17) 0.17507(5)
O3 O 0.3736(2) 0.19895(17) 0.07460(5)
O4 O 0.7642(2) 0.18372(18) 0.20634(5)
O5 O 0.50000 -0.0946(3) 0.25000
N1 N 0.0858(3) 0.2755(2) 0.09943(5)
C1 C 0.2795(3) 0.2771(2) 0.17236(6)
C2 C 0.1745(3) 0.3765(3) 0.13490(6)
C3 C 0.1946(3) 0.1941(2) 0.07117(6)
C4 C 0.0888(3) 0.0951(2) 0.03470(6)
C5 C -0.1129(3) 0.0925(3) 0.02751(7)
C6 C 0.1992(3) 0.0013(3) 0.00695(6)
H1 H 0.075(3) 0.435(3) 0.1472(7)
H2 H 0.267(3) 0.456(3) 0.1233(7)
H3 H -0.189(3) 0.150(3) 0.0457(8)
H4 H 0.331(4) 0.001(3) 0.0113(8)
H5 H 0.743(3) 0.218(3) 0.1807(9)
H6 H 0.812(4) 0.092(4) 0.2027(10)
H9 H 0.576(4) -0.155(3) 0.2644(9)
H10 H -0.034(4) 0.274(3) 0.0971(8)
Cd1D Cd -0.50000 -0.17901(2) -0.25000
O1D O -0.37740(19) -0.36786(17) -0.20081(4)
O1A O 0.62260(19) 0.36786(17) 0.29919(4)
O2D O -0.2693(2) -0.12189(17) -0.17507(5)
O2A O 0.7307(2) 0.12189(17) 0.32493(5)
O3D O -0.3736(2) -0.19895(17) -0.07460(5)
O4A O 0.2358(2) 0.18372(18) 0.29366(5)
N1D N -0.0858(3) -0.2755(2) -0.09943(5)
C1D C -0.2795(3) -0.2771(2) -0.17236(6)
C2D C -0.1745(3) -0.3765(3) -0.13490(6)
C3D C -0.1946(3) -0.1941(2) -0.07117(6)
C4D C -0.0888(3) -0.0951(2) -0.03470(6)
C5D C 0.1129(3) -0.0925(3) -0.02751(7)
C6D C -0.1992(3) -0.0013(3) -0.00695(6)
H1D H -0.075(3) -0.435(3) -0.1472(7)
H2D H -0.267(3) -0.456(3) -0.1233(7)
H3D H 0.189(3) -0.150(3) -0.0457(8)
H4D H -0.331(4) -0.001(3) -0.0113(8)
H5A H 0.257(3) 0.218(3) 0.3193(9)
H6A H 0.188(4) 0.092(4) 0.2973(10)
H9A H 0.424(4) -0.155(3) 0.2356(9)
H10D H 0.034(4) -0.274(3) -0.0971(8)
O6 O 0.1916(2) -0.1740(2) 0.12444(5)
H7 H 0.185(4) -0.082(4) 0.1332(10)
H8 H 0.102(4) -0.203(4) 0.1111(10)
loop_
_geom_bond_atom_site_label_1
_geom_bond_atom_site_label_2
_geom_bond_site_symmetry_1
_geom_bond_site_symmetry_2
Cd1 O1 1_555 1_555
O1 C1 1_555 1_555
O2 Cd1 1_555 1_555
O3 C3 1_555 1_555
O4 Cd1 1_555 1_555
O5 Cd1 1_555 1_555
O6 H7 1_555 1_555
N1 C2 1_555 1_555
C1 O2 1_555 1_555
C2 C1 1_555 1_555
C3 N1 1_555 1_555
C4 C3 1_555 1_555
C5 C4 1_555 1_555
C6 C4 1_555 1_555
H1 C2 1_555 1_555
H2 C2 1_555 1_555
H3 C5 1_555 1_555
H4 C6 1_555 1_555
H5 O4 1_555 1_555
H6 O4 1_555 1_555
H8 O6 1_555 1_555
H9 O5 1_555 1_555
H10 N1 1_555 1_555
Cd1D O1D 1_555 1_555
O1D C1D 1_555 1_555
O1A Cd1 1_555 1_555
O2D Cd1D 1_555 1_555
O2A Cd1 1_555 1_555
O3D C3D 1_555 1_555
O4A Cd1 1_555 1_555
N1D C2D 1_555 1_555
C1D O2D 1_555 1_555
C2D C1D 1_555 1_555
C3D N1D 1_555 1_555
C4D C3D 1_555 1_555
C5D C6 1_555 1_555
C6D C5 1_555 1_555
H1D C2D 1_555 1_555
H2D C2D 1_555 1_555
H3D C5D 1_555 1_555
H4D C6D 1_555 1_555
H5A O4A 1_555 1_555
H6A O4A 1_555 1_555
H9A O5 1_555 1_555
H10D N1D 1_555 1_555
C4D C5D 1_555 1_555
C4D C6D 1_555 1_555

#END
