
#######################################################################
#
#                 Cambridge Crystallographic Data Centre
#                                CCDC 
#
#######################################################################
#
# If this CIF has been generated from an entry in the Cambridge 
# Structural Database, then it will include bibliographic, chemical, 
# crystal, experimental, refinement or atomic coordinate data resulting 
# from the CCDC's data processing and validation procedures.
#
#######################################################################

data_GAJREQ
_symmetry_cell_setting           monoclinic
_symmetry_space_group_name_H-M   'C 2/c'
_symmetry_Int_Tables_number      15
_space_group_name_Hall           '-C 2yn'
loop_
_symmetry_equiv_pos_site_id
_symmetry_equiv_pos_as_xyz
1 x,y,z
2 -x,y,1/2-z
3 1/2+x,1/2+y,z
4 1/2-x,1/2+y,1/2-z
5 -x,-y,-z
6 x,-y,1/2+z
7 1/2-x,1/2-y,-z
8 1/2+x,1/2-y,1/2+z
_cell_length_a                   6.9658(8)
_cell_length_b                   8.0078(8)
_cell_length_c                   30.398(4)
_cell_angle_alpha                90
_cell_angle_beta                 94.420(2)
_cell_angle_gamma                90
_cell_volume                     1690.58
loop_
_atom_site_label
_atom_site_type_symbol
_atom_site_fract_x
_atom_site_fract_y
_atom_site_fract_z
C1 C 0.2798(3) 0.2304(2) 0.67262(6)
C2 C 0.1757(3) 0.1325(3) 0.63524(6)
H1 H 0.2664 0.0562 0.6233
H2 H 0.0760 0.0658 0.6473
C3 C 0.1953(3) 0.3113(2) 0.57149(6)
C4 C 0.0890(3) 0.4074(2) 0.53502(6)
C5 C 0.1976(3) 0.4982(3) 0.50706(7)
H3 H 0.3312 0.4979 0.5117
C6 C -0.1104(3) 0.4109(3) 0.52766(7)
H4 H -0.1858 0.3516 0.5462
Cd1 Cd 0.5000 0.32828(2) 0.7500
N1 N 0.0885(2) 0.2325(2) 0.59982(5)
H5 H -0.0348 0.2416 0.5967
O1 O 0.5000 0.6006(3) 0.7500
O2 O 0.7630(2) 0.32442(15) 0.70693(5)
H6 H 0.7329 0.2790 0.6821
H7 H 0.8004 0.4243 0.7036
O3 O 0.2707(2) 0.38460(19) 0.67540(5)
O4 O 0.3756(2) 0.14069(17) 0.70107(5)
O5 O 0.3715(2) 0.30535(19) 0.57507(5)
H8 H 0.433(4) 0.656(3) 0.7380(10)
C1D C -0.2798(3) 0.7696(2) 0.32738(6)
C2D C -0.1757(3) 0.8675(3) 0.36476(6)
H1D H -0.2664 0.9438 0.3767
H2D H -0.0760 0.9342 0.3527
C3D C -0.1953(3) 0.6887(2) 0.42851(6)
C4D C -0.0890(3) 0.5926(2) 0.46498(6)
C5D C -0.1976(3) 0.5018(3) 0.49294(7)
H3D H -0.3312 0.5021 0.4883
C6D C 0.1104(3) 0.5891(3) 0.47234(7)
H4D H 0.1858 0.6484 0.4538
Cd1D Cd -0.5000 0.67172(2) 0.2500
N1D N -0.0885(2) 0.7675(2) 0.40018(5)
H5D H 0.0348 0.7584 0.4033
O2A O 0.2370(2) 0.32442(15) 0.79307(5)
H6A H 0.2671 0.2790 0.8179
H7A H 0.1996 0.4243 0.7964
O3D O -0.2707(2) 0.61540(19) 0.32460(5)
O3A O 0.7293(2) 0.38460(19) 0.82460(5)
O4D O -0.3756(2) 0.85931(17) 0.29893(5)
O4A O 0.6244(2) 0.14069(17) 0.79893(5)
O5D O -0.3715(2) 0.69465(19) 0.42493(5)
H8A H 0.567(4) 0.656(3) 0.7620(10)
O6 O 0.6934(2) 0.18245(17) 0.62493(5)
H9 H 0.5954 0.2201 0.6097
H10 H 0.6890 0.0764 0.6253
loop_
_geom_bond_atom_site_label_1
_geom_bond_atom_site_label_2
_geom_bond_site_symmetry_1
_geom_bond_site_symmetry_2
C1 C2 1_555 1_555
C2 H1 1_555 1_555
H2 C2 1_555 1_555
C3 C4 1_555 1_555
C4 C5 1_555 1_555
C5 H3 1_555 1_555
C6 C4 1_555 1_555
H4 C6 1_555 1_555
Cd1 O1 1_555 1_555
N1 C2 1_555 1_555
H5 N1 1_555 1_555
O1 H8 1_555 1_555
O2 Cd1 1_555 1_555
H6 O2 1_555 1_555
H7 O2 1_555 1_555
O3 C1 1_555 1_555
O4 C1 1_555 1_555
O5 C3 1_555 1_555
O6 H9 1_555 1_555
H10 O6 1_555 1_555
C1D C2D 1_555 1_555
C2D H1D 1_555 1_555
H2D C2D 1_555 1_555
C3D C4D 1_555 1_555
C4D C5D 1_555 1_555
C5D C6 1_555 1_555
H3D C5D 1_555 1_555
C6D C5 1_555 1_555
H4D C6D 1_555 1_555
Cd1D O3D 1_555 1_555
N1D C2D 1_555 1_555
H5D N1D 1_555 1_555
O2A Cd1 1_555 1_555
H6A O2A 1_555 1_555
H7A O2A 1_555 1_555
O3D C1D 1_555 1_555
O3A Cd1 1_555 1_555
O4D C1D 1_555 1_555
O4A Cd1 1_555 1_555
O5D C3D 1_555 1_555
H8A O1 1_555 1_555
C3 N1 1_555 1_555
Cd1 O3 1_555 1_555
Cd1 O4 1_555 1_555
C3D N1D 1_555 1_555
C4D C6D 1_555 1_555
Cd1D O4D 1_555 1_555

#END
