
#######################################################################
#
#                 Cambridge Crystallographic Data Centre
#                                CCDC 
#
#######################################################################
#
# If this CIF has been generated from an entry in the Cambridge 
# Structural Database, then it will include bibliographic, chemical, 
# crystal, experimental, refinement or atomic coordinate data resulting 
# from the CCDC's data processing and validation procedures.
#
#######################################################################

data_GAJTOC
_symmetry_cell_setting           monoclinic
_symmetry_space_group_name_H-M   'C 2/c'
_symmetry_Int_Tables_number      15
_space_group_name_Hall           '-C 2yn'
loop_
_symmetry_equiv_pos_site_id
_symmetry_equiv_pos_as_xyz
1 x,y,z
2 -x,y,1/2-z
3 1/2+x,1/2+y,z
4 1/2-x,1/2+y,1/2-z
5 -x,-y,-z
6 x,-y,1/2+z
7 1/2-x,1/2-y,-z
8 1/2+x,1/2-y,1/2+z
_cell_length_a                   21.8010(17)
_cell_length_b                   13.5504(10)
_cell_length_c                   34.874(3)
_cell_angle_alpha                90
_cell_angle_beta                 98.8400(10)
_cell_angle_gamma                90
_cell_volume                     10179.8
loop_
_atom_site_label
_atom_site_type_symbol
_atom_site_fract_x
_atom_site_fract_y
_atom_site_fract_z
S1 S 0.66506(7) 0.50029(12) 0.17277(6)
C1 C 0.6255(2) -0.1568(4) 0.12494(16)
C2 C 0.5584(2) -0.1836(4) 0.12474(15)
C3 C 0.3528(2) 0.4674(4) 0.11935(15)
C4 C 0.4197(2) 0.4923(4) 0.11909(15)
C5 C 0.1574(3) 0.5972(4) -0.25232(14)
C6 C 0.1179(2) 0.5207(4) -0.23689(14)
C7 C 0.6748(2) 0.3777(4) 0.15640(17)
C8 C 0.3018(2) -0.0795(4) 0.09419(15)
C9 C 0.1291(2) 0.4211(4) -0.24235(15)
H1 H 0.1603 0.4039 -0.2565
C10 C 0.2831(2) 0.1141(4) 0.10862(14)
C11 C 0.7114(2) 0.2179(4) 0.17326(16)
H2 H 0.7303 0.1726 0.1913
C12 C 0.6918(2) 0.1894(4) 0.13523(14)
C13 C 0.6641(2) 0.2595(4) 0.10980(15)
H3 H 0.6508 0.2405 0.0842
C14 C 0.5417(2) 0.5371(4) 0.12335(19)
C15 C 0.4378(2) -0.2311(4) 0.12361(18)
C16 C 0.4622(2) 0.4788(4) 0.15224(16)
H4 H 0.4480 0.4529 0.1740
C17 C 0.2715(2) 0.2207(4) 0.11483(17)
C18 C 0.0049(2) 0.3366(4) -0.11199(15)
C19 C 0.0527(2) 0.3742(4) -0.20805(14)
C20 C 0.7007(2) 0.0860(4) 0.12201(17)
C21 C 0.5378(2) -0.2212(4) 0.15720(16)
H5 H 0.5660 -0.2295 0.1798
C22 C 0.5156(2) -0.1693(4) 0.09195(17)
H6 H 0.5284 -0.1429 0.0698
C23 C 0.4411(3) 0.5316(4) 0.08694(16)
H7 H 0.4138 0.5429 0.0641
C24 C 0.5033(3) 0.5539(4) 0.08910(19)
H8 H 0.5187 0.5798 0.0678
C25 C 0.1208(3) 0.3831(5) -0.00561(16)
C26 C 0.0781(2) 0.3662(4) -0.04248(15)
C27 C 0.3075(3) 0.0528(4) 0.13876(15)
H9 H 0.3177 0.0778 0.1638
C28 C 0.2692(3) 0.0723(4) 0.07244(15)
H10 H 0.2523 0.1128 0.0520
C29 C 0.0912(3) 0.2976(5) -0.06897(17)
H11 H 0.1268 0.2595 -0.0625
C30 C 0.3165(3) -0.0461(4) 0.13154(15)
H12 H 0.3322 -0.0888 0.1515
C31 C 0.4547(2) -0.1932(4) 0.09143(17)
H13 H 0.4257 -0.1834 0.0693
C32 C 0.0707(2) 0.5440(4) -0.21611(15)
H14 H 0.0609 0.6098 -0.2124
C33 C 0.0382(2) 0.4712(4) -0.20095(15)
H15 H 0.0072 0.4864 -0.1863
C34 C -0.0135(3) 0.4034(5) -0.08766(17)
H16 H -0.0503 0.4381 -0.0944
C35 C 0.0233(3) 0.4191(5) -0.05259(18)
H17 H 0.0115 0.4655 -0.0355
C36 C 0.7027(3) 0.3130(5) 0.18405(16)
H18 H 0.7153 0.3335 0.2095
Gd1 Gd 0.217684(11) 0.421458(18) 0.058597(7)
Gd2 Gd 0.260504(10) 0.391230(18) 0.184435(7)
S2 S 0.35969(6) -0.26766(11) 0.12679(5)
S3 S 0.01586(7) 0.26746(11) -0.19252(4)
S4 S -0.04360(6) 0.31979(13) -0.15829(4)
S5 S 0.30947(6) -0.20423(11) 0.07967(5)
S6 S 0.62153(7) 0.57115(11) 0.12547(6)
O1 O 0.33911(17) 0.4424(3) 0.15139(11)
O2 O 0.20366(16) 0.5668(3) -0.26624(10)
O3 O 0.64100(16) -0.1317(3) 0.09354(11)
O4 O 0.31584(16) 0.4733(3) 0.08833(11)
O5 O 0.66068(17) -0.1634(3) 0.15682(11)
O6 O 0.34904(16) 0.3396(3) 0.22949(10)
H19 H 0.3665 0.2833 0.2309
H20 H 0.3786 0.3799 0.2361
O7 O 0.1146(2) 0.4588(3) 0.01406(12)
O8 O 0.29345(18) 0.3612(3) 0.01782(11)
H21 H 0.3201 0.3960 0.0086
H22 H 0.3098 0.3041 0.0187
O9 O 0.30749(18) 0.5382(3) 0.22059(11)
H23 H 0.3372 0.5777 0.2189
H24 H 0.2946 0.5589 0.2409
O10 O 0.69046(19) 0.0703(3) 0.08587(12)
O11 O 0.2395(2) 0.5541(3) 0.01566(11)
H25 H 0.2307 0.5521 -0.0108
H26 H 0.2266 0.6133 0.0156
O12 O 0.71764(18) 0.0218(3) 0.14684(12)
O13 O 0.25549(19) 0.2733(3) 0.08606(12)
O14 O 0.23285(19) 0.2254(3) 0.21780(12)
H27 H 0.2039 0.2383 0.2308
H28 H 0.2646 0.2039 0.2327
O15 O 0.27992(19) 0.2502(3) 0.14929(12)
O16 O 0.16424(17) 0.3231(3) 0.00486(11)
O17 O 0.14314(19) 0.6867(3) -0.24963(12)
N1 N 0.09734(19) 0.3486(3) -0.22834(12)
N2 N 0.0558(2) 0.2813(4) -0.10415(14)
N3 N 0.5232(2) 0.5009(4) 0.15516(15)
N4 N 0.2784(2) -0.0228(3) 0.06463(12)
N5 N 0.4770(2) -0.2468(4) 0.15706(15)
N6 N 0.6549(2) 0.3532(3) 0.11953(13)
Gd1B Gd 0.717684(11) -0.078542(18) 0.058597(7)
Gd2E Gd 0.260504(10) 0.608770(18) -0.315565(7)
Gd2B Gd 0.760504(10) -0.108770(18) 0.184435(7)
O2E O 0.20366(16) 0.4332(3) 0.23376(10)
O3B O 0.14100(16) 0.3683(3) 0.09354(11)
O5B O 0.16068(17) 0.3366(3) 0.15682(11)
O10B O 0.19046(19) 0.5703(3) 0.08587(12)
O12B O 0.21764(18) 0.5218(3) 0.14684(12)
O18 O 0.0828(3) 0.1568(4) 0.27721(18)
O19 O 0.0934(4) 0.6629(6) 0.9987(3)
O20 O 0.1143(4) 0.9311(7) 0.0421(2)
O21 O 0.0183(5) 0.8291(7) 0.0126(4)
O22 O 0.4035(5) 0.3943(10) 0.9877(4)
O23 O 0.4413(2) 0.4735(4) 0.26221(13)
O24 O 0.1760(6) 0.8020(12) 1.0036(4)
loop_
_geom_bond_atom_site_label_1
_geom_bond_atom_site_label_2
_geom_bond_site_symmetry_1
_geom_bond_site_symmetry_2
S1 C7 1_555 1_555
C1 C2 1_555 1_555
C2 C21 1_555 1_555
C3 C4 1_555 1_555
C4 C16 1_555 1_555
C5 C6 1_555 1_555
C6 C9 1_555 1_555
C7 C36 1_555 1_555
C8 C30 1_555 1_555
C9 H1 1_555 1_555
C10 C17 1_555 1_555
C11 H2 1_555 1_555
C12 C11 1_555 1_555
C13 C12 1_555 1_555
H3 C13 1_555 1_555
C14 C24 1_555 1_555
C15 C31 1_555 1_555
C16 H4 1_555 1_555
C17 O13 1_555 1_555
C18 C34 1_555 1_555
C19 C33 1_555 1_555
C20 C12 1_555 1_555
C21 H5 1_555 1_555
C22 C2 1_555 1_555
H6 C22 1_555 1_555
C23 C4 1_555 1_555
H7 C23 1_555 1_555
C24 C23 1_555 1_555
H8 C24 1_555 1_555
C25 C26 1_555 1_555
C26 C29 1_555 1_555
C27 C10 1_555 1_555
H9 C27 1_555 1_555
C28 C10 1_555 1_555
H10 C28 1_555 1_555
C29 H11 1_555 1_555
C30 C27 1_555 1_555
H12 C30 1_555 1_555
C31 C22 1_555 1_555
H13 C31 1_555 1_555
C32 C6 1_555 1_555
H14 C32 1_555 1_555
C33 C32 1_555 1_555
H15 C33 1_555 1_555
C34 H16 1_555 1_555
C35 C26 1_555 1_555
H17 C35 1_555 1_555
C36 C11 1_555 1_555
H18 C36 1_555 1_555
Gd1 O4 1_555 1_555
Gd2 O1 1_555 1_555
S2 C15 1_555 1_555
S3 C19 1_555 1_555
S4 C18 1_555 1_555
S5 C8 1_555 1_555
S6 S1 1_555 1_555
O1 C3 1_555 1_555
O2 C5 1_555 1_555
O3 C1 1_555 1_555
O4 C3 1_555 1_555
O5 C1 1_555 1_555
O6 Gd2 1_555 1_555
H19 O6 1_555 1_555
H20 O6 1_555 1_555
O7 C25 1_555 1_555
O8 Gd1 1_555 1_555
H21 O8 1_555 1_555
H22 O8 1_555 1_555
O9 Gd2 1_555 1_555
H23 O9 1_555 1_555
H24 O9 1_555 1_555
O10 C20 1_555 1_555
O11 Gd1 1_555 1_555
H25 O11 1_555 1_555
H26 O11 1_555 1_555
O12 C20 1_555 1_555
O13 Gd1 1_555 1_555
O14 Gd2 1_555 1_555
H27 O14 1_555 1_555
H28 O14 1_555 1_555
O15 C17 1_555 1_555
O16 C25 1_555 1_555
O17 C5 1_555 1_555
N1 C9 1_555 1_555
N2 C18 1_555 1_555
N3 C14 1_555 1_555
N4 C8 1_555 1_555
N5 C15 1_555 1_555
N6 C7 1_555 1_555
Gd1B O3 1_555 1_555
Gd2E O2 1_555 1_555
Gd2B O5 1_555 1_555
O2E Gd2 1_555 1_555
O3B Gd1 1_555 1_555
O5B Gd2 1_555 1_555
O10B Gd1 1_555 1_555
O12B Gd2 1_555 1_555
C13 N6 1_555 1_555
C14 S6 1_555 1_555
C16 N3 1_555 1_555
C19 N1 1_555 1_555
C21 N5 1_555 1_555
C28 N4 1_555 1_555
C29 N2 1_555 1_555
C34 C35 1_555 1_555
Gd1 O7 1_555 1_555
Gd1 O16 1_555 1_555
Gd2 O15 1_555 1_555
S2 S5 1_555 1_555
S3 S4 1_555 1_555
O10 Gd1B 1_555 1_555
O12 Gd2B 1_555 1_555

#END
