
#######################################################################
#
#                 Cambridge Crystallographic Data Centre
#                                CCDC 
#
#######################################################################
#
# If this CIF has been generated from an entry in the Cambridge 
# Structural Database, then it will include bibliographic, chemical, 
# crystal, experimental, refinement or atomic coordinate data resulting 
# from the CCDC's data processing and validation procedures.
#
#######################################################################

data_GAJTES
_symmetry_cell_setting           orthorhombic
_symmetry_space_group_name_H-M   'P b c a'
_symmetry_Int_Tables_number      61
_space_group_name_Hall           '-P 2ac 2ab'
loop_
_symmetry_equiv_pos_site_id
_symmetry_equiv_pos_as_xyz
1 x,y,z
2 1/2-x,-y,1/2+z
3 1/2+x,1/2-y,-z
4 -x,1/2+y,1/2-z
5 -x,-y,-z
6 1/2+x,y,1/2-z
7 1/2-x,1/2+y,z
8 x,1/2-y,1/2+z
_cell_length_a                   23.933(4)
_cell_length_b                   18.704(3)
_cell_length_c                   8.4940(10)
_cell_angle_alpha                90
_cell_angle_beta                 90
_cell_angle_gamma                90
_cell_volume                     3802.28
loop_
_atom_site_label
_atom_site_type_symbol
_atom_site_fract_x
_atom_site_fract_y
_atom_site_fract_z
U1 U 0.94085(2) 0.24363(3) 0.97359(7)
U2 U 0.80462(2) 0.26775(3) 0.73145(6)
N1 N 0.5807(5) -0.0672(6) 0.7160(13)
N2 N 1.1667(5) 0.5662(7) 0.9653(15)
O1 O 0.9058(4) 0.2845(5) 0.7253(9)
H1 H 0.9102 0.3365 0.7315
O2 O 0.8425(4) 0.2860(5) 0.9960(10)
H2 H 0.8439 0.3377 1.0141
O3 O 0.9208(4) 0.1585(5) 0.9086(10)
O4 O 0.9586(4) 0.3290(6) 1.0335(11)
O5 O 0.7986(4) 0.1784(6) 0.7965(10)
O6 O 0.8077(4) 0.3569(6) 0.6563(10)
O7 O 1.0207(5) 0.2494(6) 0.8088(12)
O8 O 1.0171(4) 0.3215(6) 0.6057(11)
O9 O 0.7235(4) 0.2537(6) 0.5790(13)
O10 O 0.7272(4) 0.1784(6) 0.3796(11)
C1 C 1.0389(6) 0.3039(9) 0.7287(18)
C2 C 1.0813(7) 0.3429(10) 0.810(2)
H3 H 1.0997 0.3206 0.8928
C3 C 1.0959(7) 0.4105(9) 0.773(2)
H4 H 1.0792 0.4324 0.6865
C4 C 1.1379(7) 0.4510(9) 0.8653(19)
C5 C 1.1793(7) 0.4188(9) 0.952(2)
H5 H 1.1839 0.3694 0.9500
C6 C 1.2140(7) 0.4611(9) 1.0441(19)
H6 H 1.2428 0.4402 1.1011
C7 C 1.2061(7) 0.5324(9) 1.0509(18)
H7 H 1.2288 0.5594 1.1172
C8 C 1.1344(7) 0.5264(10) 0.8716(19)
H8 H 1.1084 0.5493 0.8076
C9 C 0.7065(6) 0.1999(8) 0.5062(17)
C10 C 0.6616(7) 0.1613(9) 0.582(2)
H9 H 0.6409 0.1841 0.6600
C11 C 0.6490(7) 0.0947(9) 0.544(2)
H10 H 0.6675 0.0743 0.4588
C12 C 0.6068(7) 0.0496(9) 0.6301(18)
C13 C 0.5636(7) 0.0808(9) 0.7162(19)
H11 H 0.5583 0.1300 0.7186
C14 C 0.5294(7) 0.0348(10) 0.797(2)
H12 H 0.4987 0.0525 0.8524
C15 C 0.5403(7) -0.0373(10) 0.7977(18)
H13 H 0.5179 -0.0667 0.8593
C16 C 0.6120(6) -0.0232(9) 0.6314(18)
H14 H 0.6397 -0.0433 0.5684
U1G U 0.94085(2) 0.25637(3) 0.47359(7)
U2G U 0.80462(2) 0.23225(3) 1.23145(6)
U2G_2 U 0.80462(2) 0.23225(3) 0.23145(6)
O1G O 0.9058(4) 0.2155(5) 1.2253(9)
H1G H 0.9102 0.1635 1.2315
O2G O 0.8425(4) 0.2140(5) 0.4960(10)
H2G H 0.8439 0.1623 0.5141
O8G O 1.0171(4) 0.1785(6) 1.1057(11)
O10G O 0.7272(4) 0.3216(6) 0.8796(11)
loop_
_geom_bond_atom_site_label_1
_geom_bond_atom_site_label_2
_geom_bond_site_symmetry_1
_geom_bond_site_symmetry_2
U1 O1 1_555 1_555
U2 O1 1_555 1_555
N1 C15 1_555 1_555
N2 C7 1_555 1_555
O1 H1 1_555 1_555
O2 U1 1_555 1_555
H2 O2 1_555 1_555
O3 U1 1_555 1_555
O4 U1 1_555 1_555
O5 U2 1_555 1_555
O6 U2 1_555 1_555
O7 U1 1_555 1_555
O8 C1 1_555 1_555
O9 U2 1_555 1_555
O10 C9 1_555 1_555
C1 O7 1_555 1_555
C2 C1 1_555 1_555
H3 C2 1_555 1_555
C3 C2 1_555 1_555
H4 C3 1_555 1_555
C4 C3 1_555 1_555
C5 C4 1_555 1_555
H5 C5 1_555 1_555
C6 C5 1_555 1_555
H6 C6 1_555 1_555
C7 C6 1_555 1_555
H7 C7 1_555 1_555
C8 N2 1_555 1_555
H8 C8 1_555 1_555
C9 O9 1_555 1_555
C10 C9 1_555 1_555
H9 C10 1_555 1_555
C11 C10 1_555 1_555
H10 C11 1_555 1_555
C12 C11 1_555 1_555
C13 C12 1_555 1_555
H11 C13 1_555 1_555
C14 C13 1_555 1_555
H12 C14 1_555 1_555
C15 C14 1_555 1_555
H13 C15 1_555 1_555
C16 N1 1_555 1_555
H14 C16 1_555 1_555
U1G O1 1_555 1_555
U2G O2 1_555 1_555
U2G_2 O10 1_555 1_555
O1G U1 1_555 1_555
H1G O1G 1_555 1_555
O2G U2 1_555 1_555
H2G O2G 1_555 1_555
O8G U1 1_555 1_555
O10G U2 1_555 1_555
U2 O2 1_555 1_555
O8 U1G 1_555 1_555
C4 C8 1_555 1_555
C12 C16 1_555 1_555
U1G O2G 1_555 1_555
U2G O1G 1_555 1_555
U2G_2 O2G 1_555 1_555

#END
