
#######################################################################
#
#                 Cambridge Crystallographic Data Centre
#                                CCDC 
#
#######################################################################
#
# If this CIF has been generated from an entry in the Cambridge 
# Structural Database, then it will include bibliographic, chemical, 
# crystal, experimental, refinement or atomic coordinate data resulting 
# from the CCDC's data processing and validation procedures.
#
#######################################################################

data_GAJVOE
_symmetry_cell_setting           monoclinic
_symmetry_space_group_name_H-M   'P 21/c'
_symmetry_Int_Tables_number      14
_space_group_name_Hall           '-P 2ybc'
loop_
_symmetry_equiv_pos_site_id
_symmetry_equiv_pos_as_xyz
1 x,y,z
2 -x,1/2+y,1/2-z
3 -x,-y,-z
4 x,1/2-y,1/2+z
_cell_length_a                   13.470(3)
_cell_length_b                   11.610(3)
_cell_length_c                   15.371(3)
_cell_angle_alpha                90
_cell_angle_beta                 99.904(4)
_cell_angle_gamma                90
_cell_volume                     2368
loop_
_atom_site_label
_atom_site_type_symbol
_atom_site_fract_x
_atom_site_fract_y
_atom_site_fract_z
I1 I 0.64998(2) 0.53365(2) 0.636425(18)
Cd1 Cd 0.83325(2) 0.54374(3) 0.57982(2)
N1 N 0.8144(3) 0.6654(3) 0.4667(2)
I2 I 1.00035(2) 0.58480(3) 0.706918(19)
C1 C 0.8056(3) 0.6412(4) 0.3779(3)
H1 H 0.8042 0.5663 0.3528
C2 C 0.7992(3) 0.7418(4) 0.3321(3)
H2 H 0.7919 0.7506 0.2698
N2 N 0.8053(3) 0.8276(3) 0.3936(2)
H3 H 0.8043 0.9020 0.3824
C3 C 0.8133(3) 0.7795(4) 0.4743(3)
S1 S 0.82875(8) 0.85678(9) 0.57332(7)
C4 C 0.6966(3) 0.8902(4) 0.5825(3)
H4 H 0.6587 0.8172 0.5828
H5 H 0.6955 0.9296 0.6394
C5 C 0.6445(3) 0.9654(3) 0.5082(3)
C6 C 0.5874(3) 0.9151(4) 0.4334(3)
C7 C 0.5689(3) 0.7872(4) 0.4235(3)
H6 H 0.5819 0.7506 0.4818
H7 H 0.6140 0.7543 0.3864
H8 H 0.4987 0.7735 0.3959
C8 C 0.5457(3) 0.9867(4) 0.3637(3)
H9 H 0.5081 0.9527 0.3121
C9 C 0.5568(3) 1.1038(4) 0.3666(3)
C10 C 0.5113(3) 1.1751(4) 0.2872(3)
H10 H 0.4749 1.1245 0.2416
H11 H 0.5651 1.2153 0.2639
H12 H 0.4645 1.2316 0.3049
C11 C 0.6110(3) 1.1560(3) 0.4438(3)
C12 C 0.6551(3) 1.0865(4) 0.5151(3)
C13 C 0.7122(3) 1.1378(4) 0.5996(3)
H13 H 0.7798 1.1040 0.6125
H14 H 0.6761 1.1212 0.6484
H15 H 0.7177 1.2214 0.5928
C14 C 0.6158(3) 1.2855(4) 0.4473(3)
H16 H 0.6284 1.3099 0.5100
H17 H 0.5495 1.3168 0.4197
S2 S 0.71407(8) 1.34905(10) 0.39153(7)
C15 C 0.8213(3) 1.3079(3) 0.4655(3)
N3 N 0.8661(3) 1.3665(3) 0.5348(2)
C16 C 0.9426(3) 1.2978(4) 0.5773(3)
H18 H 0.9883 1.3176 0.6294
C17 C 0.9416(3) 1.1959(4) 0.5321(3)
H19 H 0.9853 1.1320 0.5472
N4 N 0.8664(3) 1.2042(3) 0.4618(3)
H20 H 0.8497 1.1515 0.4208
Cd1_2 Cd 0.83325(2) 1.54374(3) 0.57982(2)
N3_2 N 0.8661(3) 0.3665(3) 0.5348(2)
O1 O 0.8223(3) 1.0492(3) 0.3238(2)
H21 H 0.7597(17) 1.053(4) 0.279(2)
H22 H 0.878(2) 1.050(7) 0.290(3)
loop_
_geom_bond_atom_site_label_1
_geom_bond_atom_site_label_2
_geom_bond_site_symmetry_1
_geom_bond_site_symmetry_2
I1 Cd1 1_555 1_555
Cd1 N1 1_555 1_555
N1 C1 1_555 1_555
I2 Cd1 1_555 1_555
C1 H1 1_555 1_555
C2 C1 1_555 1_555
H2 C2 1_555 1_555
N2 C2 1_555 1_555
H3 N2 1_555 1_555
C3 N1 1_555 1_555
S1 C3 1_555 1_555
C4 S1 1_555 1_555
H4 C4 1_555 1_555
H5 C4 1_555 1_555
C5 C4 1_555 1_555
C6 C5 1_555 1_555
C7 C6 1_555 1_555
H6 C7 1_555 1_555
H7 C7 1_555 1_555
H8 C7 1_555 1_555
C8 C6 1_555 1_555
H9 C8 1_555 1_555
C9 C8 1_555 1_555
C10 C9 1_555 1_555
H10 C10 1_555 1_555
H11 C10 1_555 1_555
H12 C10 1_555 1_555
C11 C9 1_555 1_555
C12 C5 1_555 1_555
C13 C12 1_555 1_555
H13 C13 1_555 1_555
H14 C13 1_555 1_555
H15 C13 1_555 1_555
C14 C11 1_555 1_555
H16 C14 1_555 1_555
H17 C14 1_555 1_555
S2 C14 1_555 1_555
C15 S2 1_555 1_555
N3 C15 1_555 1_555
C16 N3 1_555 1_555
H18 C16 1_555 1_555
C17 C16 1_555 1_555
H19 C17 1_555 1_555
N4 C15 1_555 1_555
H20 N4 1_555 1_555
O1 H21 1_555 1_555
H22 O1 1_555 1_555
Cd1_2 N3 1_555 1_555
N3_2 Cd1 1_555 1_555
N2 C3 1_555 1_555
C11 C12 1_555 1_555
C17 N4 1_555 1_555

#END
