
#######################################################################
#
#                 Cambridge Crystallographic Data Centre
#                                CCDC 
#
#######################################################################
#
# If this CIF has been generated from an entry in the Cambridge 
# Structural Database, then it will include bibliographic, chemical, 
# crystal, experimental, refinement or atomic coordinate data resulting 
# from the CCDC's data processing and validation procedures.
#
#######################################################################

data_GAJVIY
_symmetry_cell_setting           orthorhombic
_symmetry_space_group_name_H-M   'P n a 21'
_symmetry_Int_Tables_number      33
_space_group_name_Hall           'P 2c -2n'
loop_
_symmetry_equiv_pos_site_id
_symmetry_equiv_pos_as_xyz
1 x,y,z
2 -x,-y,1/2+z
3 1/2-x,1/2+y,1/2+z
4 1/2+x,1/2-y,z
_cell_length_a                   24.6744(5)
_cell_length_b                   14.5575(5)
_cell_length_c                   22.4021(6)
_cell_angle_alpha                90
_cell_angle_beta                 90
_cell_angle_gamma                90
_cell_volume                     8046.78
loop_
_atom_site_label
_atom_site_type_symbol
_atom_site_fract_x
_atom_site_fract_y
_atom_site_fract_z
Zn1 Zn 0.656167(12) 0.04083(2) 0.613224(13)
Zn2 Zn 0.655975(10) 0.00357(2) 0.770978(18)
Zn3 Zn 0.660280(12) -0.03922(2) -0.064820(13)
O1 O 0.65132(10) 0.03415(18) 0.52673(12)
O2 O 0.73147(10) 0.10132(17) 0.51110(10)
C1 C 0.69009(13) 0.0617(2) 0.49399(14)
C2 C 0.68285(13) 0.0407(2) 0.42810(14)
C3 C 0.64082(14) -0.0140(3) 0.40892(16)
H1 H 0.6154 -0.0371 0.4370
C4 C 0.63534(15) -0.0356(3) 0.34942(15)
H2 H 0.6060 -0.0733 0.3370
C5 C 0.67192(17) -0.0033(3) 0.30694(16)
C6 C 0.71524(15) 0.0506(3) 0.32674(16)
H3 H 0.7412 0.0723 0.2988
C7 C 0.72088(14) 0.0732(3) 0.38709(15)
H4 H 0.7503 0.1102 0.4001
C8 C 0.66523(16) -0.0247(3) 0.24238(17)
C9 C 0.61371(15) -0.0437(3) 0.21928(16)
H5 H 0.5835 -0.0456 0.2455
C10 C 0.60607(14) -0.0598(3) 0.15933(15)
H6 H 0.5710 -0.0748 0.1448
C11 C 0.64918(14) -0.0543(2) 0.12011(17)
C12 C 0.70067(15) -0.0390(3) 0.14272(17)
H7 H 0.7309 -0.0377 0.1164
C13 C 0.70850(15) -0.0254(3) 0.20383(15)
H8 H 0.7441 -0.0166 0.2189
C14 C 0.63907(14) -0.0633(3) 0.05411(15)
O3 O 0.59489(11) -0.0911(2) 0.03601(11)
O4 O 0.67835(11) -0.04154(18) 0.02030(10)
O5 O 0.59150(9) -0.03112(17) 0.62985(11)
O6 O 0.58202(9) -0.00190(16) 0.72784(11)
C15 C 0.56765(12) -0.0374(2) 0.67993(14)
C16 C 0.51619(12) -0.0940(2) 0.67999(14)
C17 C 0.49105(14) -0.1165(3) 0.62651(15)
H9 H 0.5063 -0.0965 0.5898
C18 C 0.44416(14) -0.1677(3) 0.62630(16)
H10 H 0.4268 -0.1815 0.5895
C19 C 0.42181(13) -0.1997(2) 0.67999(15)
C20 C 0.44787(15) -0.1779(3) 0.73331(15)
H11 H 0.4338 -0.1999 0.7701
C21 C 0.49419(14) -0.1242(3) 0.73288(15)
H12 H 0.5110 -0.1081 0.7696
C22 C 0.37198(13) -0.2575(2) 0.67905(15)
C23 C 0.36275(14) -0.3179(2) 0.63102(15)
H13 H 0.3882 -0.3216 0.5993
C24 C 0.31667(13) -0.3721(2) 0.62996(14)
H14 H 0.3110 -0.4131 0.5976
C25 C 0.27870(12) -0.3672(2) 0.67538(14)
C26 C 0.28737(13) -0.3071(2) 0.72297(15)
H15 H 0.2616 -0.3035 0.7543
C27 C 0.33384(14) -0.2521(3) 0.72473(17)
H16 H 0.3394 -0.2111 0.7571
C28 C 0.22839(11) -0.4247(2) 0.67267(13)
O7 O 0.22595(9) -0.48304(16) 0.63025(10)
O8 O 0.19221(8) -0.41125(13) 0.71039(9)
O9 O 0.64380(10) 0.16820(15) 0.63659(11)
O10 O 0.68059(9) 0.12252(14) 0.72257(10)
C29 C 0.65856(12) 0.1818(2) 0.69070(16)
C30 C 0.65152(14) 0.2772(2) 0.71488(16)
C31 C 0.62846(16) 0.3462(2) 0.67993(17)
H17 H 0.6162 0.3329 0.6407
C32 C 0.62350(16) 0.4339(2) 0.70266(17)
H18 H 0.6083 0.4809 0.6785
C33 C 0.64043(14) 0.45476(19) 0.76042(15)
C34 C 0.66324(17) 0.3849(2) 0.79543(18)
H19 H 0.6753 0.3976 0.8349
C35 C 0.66806(16) 0.2971(2) 0.77197(17)
H20 H 0.6831 0.2497 0.7959
C36 C 0.63644(14) 0.5502(2) 0.78454(16)
C37 C 0.63928(17) 0.6252(2) 0.74741(16)
H21 H 0.6416 0.6154 0.7056
C38 C 0.63883(15) 0.7148(2) 0.76872(16)
H22 H 0.6396 0.7654 0.7420
C39 C 0.63722(13) 0.7288(2) 0.83038(14)
C40 C 0.63428(16) 0.6544(2) 0.86821(16)
H23 H 0.6332 0.6640 0.9101
C41 C 0.63290(18) 0.5657(2) 0.84598(17)
H24 H 0.6295 0.5152 0.8726
C42 C 0.63964(12) 0.8242(2) 0.85455(15)
O11 O 0.62917(10) 0.88950(15) 0.82003(11)
O12 O 0.65149(9) 0.83349(16) 0.90893(12)
O13 O 0.73119(9) 0.00993(17) 0.80991(11)
O14 O 0.72770(9) 0.01906(17) 0.90990(11)
C43 C 0.74865(12) 0.0349(2) 0.85947(14)
C44 C 0.79978(12) 0.0902(2) 0.86135(15)
C45 C 0.81427(13) 0.1441(2) 0.81244(15)
H25 H 0.7925 0.1441 0.7775
C46 C 0.86088(14) 0.1978(3) 0.81524(16)
H26 H 0.8705 0.2354 0.7822
C47 C 0.89361(13) 0.1972(2) 0.86585(15)
C48 C 0.87887(13) 0.1421(3) 0.91361(16)
H27 H 0.9013 0.1402 0.9480
C49 C 0.83249(12) 0.0904(2) 0.91213(16)
H28 H 0.8226 0.0545 0.9458
C50 C 0.94379(13) 0.2525(2) 0.86813(15)
C51 C 0.97539(14) 0.2684(2) 0.81721(16)
H29 H 0.9639 0.2440 0.7800
C52 C 1.02299(13) 0.3189(2) 0.81977(15)
H30 H 1.0446 0.3265 0.7851
C53 C 1.03900(12) 0.3589(2) 0.87439(15)
C54 C 1.00759(13) 0.3451(2) 0.92453(15)
H31 H 1.0182 0.3719 0.9614
C55 C 0.96083(13) 0.2928(2) 0.92208(15)
H32 H 0.9399 0.2840 0.9572
C56 C 1.09007(11) 0.41488(19) 0.87653(14)
O15 O 1.12255(8) 0.40765(14) 0.83425(10)
O16 O 1.09628(9) 0.46312(15) 0.92298(10)
Zn1C Zn 0.156167(12) -0.54083(2) 0.613224(13)
Zn2C Zn 0.155975(10) -0.50357(2) 0.770978(18)
Zn2_2 Zn 0.655975(10) 1.00357(2) 0.770978(18)
Zn2C_2 Zn 1.155975(10) 0.49643(2) 0.770978(18)
Zn3_2 Zn 0.660280(12) 0.96078(2) 0.935180(13)
Zn3_3 Zn 0.660280(12) -0.03922(2) 0.935180(13)
Zn3C Zn 1.160280(12) 0.53922(2) 0.935180(13)
O7C O 0.72595(9) -0.01696(16) 0.63025(10)
O8C O 0.69221(8) -0.08875(13) 0.71039(9)
O11_2 O 0.62917(10) -0.11050(15) 0.82003(11)
O12_2 O 0.65149(9) -0.16651(16) -0.09107(12)
O14_2 O 0.72770(9) 0.01906(17) -0.09010(11)
O15C O 0.62255(8) 0.09235(14) 0.83425(10)
O16C O 0.59628(9) 0.03688(15) -0.07702(10)
N1 N 0.81304(12) 0.1353(2) 0.59180(14)
H33 H 0.7846 0.1054 0.5736
H34 H 0.8316 0.0927 0.6142
C57 C 0.79097(18) 0.2044(3) 0.6318(2)
H35 H 0.7676 0.1747 0.6614
H36 H 0.7698 0.2490 0.6088
H37 H 0.8207 0.2361 0.6523
C58 C 0.84934(18) 0.1698(4) 0.5455(2)
H38 H 0.8622 0.1184 0.5210
H39 H 0.8804 0.2005 0.5641
H40 H 0.8298 0.2137 0.5202
N2 N 0.51243(13) 0.8586(3) 0.96493(16)
H41 H 0.5451 0.8842 0.9758
H42 H 0.5154 0.7959 0.9691
C59 C 0.50151(18) 0.8804(4) 0.9018(2)
H43 H 0.5307 0.8558 0.8769
H44 H 0.4995 0.9472 0.8968
H45 H 0.4670 0.8527 0.8898
C60 C 0.4698(2) 0.8924(4) 1.0055(2)
H46 H 0.4789 0.8754 1.0467
H47 H 0.4350 0.8649 0.9945
H48 H 0.4673 0.9594 1.0024
O17 O 0.64427(15) 0.4359(3) 0.98987(17)
C61 C 0.6867(2) 0.4096(3) 0.97261(18)
H49 H 0.7157 0.4526 0.9727
N3 N 0.69776(16) 0.3258(2) 0.95305(17)
C62 C 0.6564(3) 0.2568(4) 0.9490(3)
H50 H 0.6722 0.1996 0.9338
H51 H 0.6279 0.2776 0.9217
H52 H 0.6408 0.2460 0.9886
C63 C 0.7512(3) 0.3017(4) 0.9297(3)
H53 H 0.7513 0.2370 0.9176
H54 H 0.7786 0.3115 0.9608
H55 H 0.7595 0.3404 0.8951
O18 O 0.88881(15) 0.0634(3) 0.66870(19)
C64 C 0.8888(2) 0.0180(4) 0.7146(2)
H56 H 0.8542 -0.0008 0.7287
N4 N 0.9301(2) -0.0080(3) 0.7466(2)
C65 C 0.9840(3) 0.0217(7) 0.7303(4)
H57 H 1.0104 -0.0042 0.7584
H58 H 0.9858 0.0889 0.7317
H59 H 0.9924 0.0005 0.6898
C66 C 0.9238(4) -0.0627(4) 0.7992(3)
H60 H 0.9595 -0.0753 0.8166
H61 H 0.9061 -0.1208 0.7889
H62 H 0.9015 -0.0294 0.8283
O19 O 0.6111(3) 0.5668(3) 0.5635(2)
C67 C 0.6574(4) 0.5866(6) 0.5664(4)
H63 H 0.6822 0.5379 0.5592
N5 N 0.6791(3) 0.6661(4) 0.5782(2)
C68 C 0.6484(4) 0.7499(5) 0.5884(4)
H64 H 0.6735 0.8006 0.5965
H65 H 0.6242 0.7415 0.6226
H66 H 0.6269 0.7642 0.5528
C69 C 0.7401(4) 0.6739(5) 0.5798(3)
H67 H 0.7503 0.7373 0.5892
H68 H 0.7550 0.6570 0.5407
H69 H 0.7546 0.6326 0.6104
O20 O 0.40846(18) 0.7247(4) 0.8916(2)
C70 C 0.3573(3) 0.7146(5) 0.9011(3)
H70 H 0.3330 0.7284 0.8695
N6 N 0.33711(19) 0.6868(4) 0.9509(3)
C71 C 0.3741(3) 0.6789(5) 1.0019(3)
H71 H 0.3543 0.6547 1.0364
H72 H 0.3888 0.7396 1.0116
H73 H 0.4038 0.6372 0.9917
C72 C 0.2828(2) 0.6765(5) 0.9643(3)
H74 H 0.2790 0.6523 1.0049
H75 H 0.2663 0.6336 0.9359
H76 H 0.2647 0.7362 0.9615
O21 O 0.52288(18) 0.6784(4) 0.9913(3)
C73 C 0.5177(3) 0.6057(6) 0.9627(5)
H77 H 0.5137 0.6080 0.9206
N7 N 0.5178(2) 0.5236(5) 0.9907(5)
C74 C 0.5248(4) 0.5110(7) 1.0533(5)
H78 H 0.5232 0.4453 1.0627
H79 H 0.4960 0.5434 1.0748
H80 H 0.5602 0.5356 1.0653
C75 C 0.5163(3) 0.4452(6) 0.9482(5)
H81 H 0.5163 0.3873 0.9706
H82 H 0.5482 0.4476 0.9222
H83 H 0.4833 0.4489 0.9239
loop_
_geom_bond_atom_site_label_1
_geom_bond_atom_site_label_2
_geom_bond_site_symmetry_1
_geom_bond_site_symmetry_2
Zn1 O1 1_555 1_555
Zn2 O6 1_555 1_555
Zn3 O4 1_555 1_555
O1 C1 1_555 1_555
O2 C1 1_555 1_555
C1 C2 1_555 1_555
C2 C3 1_555 1_555
C3 H1 1_555 1_555
C4 C3 1_555 1_555
H2 C4 1_555 1_555
C5 C4 1_555 1_555
C6 C5 1_555 1_555
H3 C6 1_555 1_555
C7 C2 1_555 1_555
H4 C7 1_555 1_555
C8 C5 1_555 1_555
C9 C8 1_555 1_555
H5 C9 1_555 1_555
C10 C9 1_555 1_555
H6 C10 1_555 1_555
C11 C10 1_555 1_555
C12 C11 1_555 1_555
H7 C12 1_555 1_555
C13 C8 1_555 1_555
H8 C13 1_555 1_555
C14 C11 1_555 1_555
O3 C14 1_555 1_555
O4 C14 1_555 1_555
O5 Zn1 1_555 1_555
O6 C15 1_555 1_555
C15 O5 1_555 1_555
C16 C15 1_555 1_555
C17 C16 1_555 1_555
H9 C17 1_555 1_555
C18 C17 1_555 1_555
H10 C18 1_555 1_555
C19 C18 1_555 1_555
C20 C19 1_555 1_555
H11 C20 1_555 1_555
C21 C16 1_555 1_555
H12 C21 1_555 1_555
C22 C19 1_555 1_555
C23 C22 1_555 1_555
H13 C23 1_555 1_555
C24 C23 1_555 1_555
H14 C24 1_555 1_555
C25 C24 1_555 1_555
C26 C25 1_555 1_555
H15 C26 1_555 1_555
C27 C22 1_555 1_555
H16 C27 1_555 1_555
C28 C25 1_555 1_555
O7 C28 1_555 1_555
O8 C28 1_555 1_555
O9 Zn1 1_555 1_555
O10 Zn2 1_555 1_555
C29 O9 1_555 1_555
C30 C29 1_555 1_555
C31 C30 1_555 1_555
H17 C31 1_555 1_555
C32 C31 1_555 1_555
H18 C32 1_555 1_555
C33 C32 1_555 1_555
C34 C33 1_555 1_555
H19 C34 1_555 1_555
C35 C30 1_555 1_555
H20 C35 1_555 1_555
C36 C33 1_555 1_555
C37 C36 1_555 1_555
H21 C37 1_555 1_555
C38 C37 1_555 1_555
H22 C38 1_555 1_555
C39 C38 1_555 1_555
C40 C39 1_555 1_555
H23 C40 1_555 1_555
C41 C36 1_555 1_555
H24 C41 1_555 1_555
C42 C39 1_555 1_555
O11 C42 1_555 1_555
O12 C42 1_555 1_555
O13 Zn2 1_555 1_555
O14 C43 1_555 1_555
C43 O13 1_555 1_555
C44 C43 1_555 1_555
C45 C44 1_555 1_555
H25 C45 1_555 1_555
C46 C45 1_555 1_555
H26 C46 1_555 1_555
C47 C46 1_555 1_555
C48 C47 1_555 1_555
H27 C48 1_555 1_555
C49 C44 1_555 1_555
H28 C49 1_555 1_555
C50 C47 1_555 1_555
C51 C50 1_555 1_555
H29 C51 1_555 1_555
C52 C51 1_555 1_555
H30 C52 1_555 1_555
C53 C52 1_555 1_555
C54 C53 1_555 1_555
H31 C54 1_555 1_555
C55 C50 1_555 1_555
H32 C55 1_555 1_555
C56 C53 1_555 1_555
O15 C56 1_555 1_555
O16 C56 1_555 1_555
N1 H33 1_555 1_555
H34 N1 1_555 1_555
C57 N1 1_555 1_555
H35 C57 1_555 1_555
H36 C57 1_555 1_555
H37 C57 1_555 1_555
C58 N1 1_555 1_555
H38 C58 1_555 1_555
H39 C58 1_555 1_555
H40 C58 1_555 1_555
N2 H41 1_555 1_555
H42 N2 1_555 1_555
C59 N2 1_555 1_555
H43 C59 1_555 1_555
H44 C59 1_555 1_555
H45 C59 1_555 1_555
C60 N2 1_555 1_555
H46 C60 1_555 1_555
H47 C60 1_555 1_555
H48 C60 1_555 1_555
O17 C61 1_555 1_555
C61 H49 1_555 1_555
N3 C61 1_555 1_555
C62 N3 1_555 1_555
H50 C62 1_555 1_555
H51 C62 1_555 1_555
H52 C62 1_555 1_555
C63 N3 1_555 1_555
H53 C63 1_555 1_555
H54 C63 1_555 1_555
H55 C63 1_555 1_555
O18 C64 1_555 1_555
C64 H56 1_555 1_555
N4 C64 1_555 1_555
C65 N4 1_555 1_555
H57 C65 1_555 1_555
H58 C65 1_555 1_555
H59 C65 1_555 1_555
C66 N4 1_555 1_555
H60 C66 1_555 1_555
H61 C66 1_555 1_555
H62 C66 1_555 1_555
O19 C67 1_555 1_555
C67 H63 1_555 1_555
N5 C67 1_555 1_555
C68 N5 1_555 1_555
H64 C68 1_555 1_555
H65 C68 1_555 1_555
H66 C68 1_555 1_555
C69 N5 1_555 1_555
H67 C69 1_555 1_555
H68 C69 1_555 1_555
H69 C69 1_555 1_555
O20 C70 1_555 1_555
C70 H70 1_555 1_555
N6 C70 1_555 1_555
C71 N6 1_555 1_555
H71 C71 1_555 1_555
H72 C71 1_555 1_555
H73 C71 1_555 1_555
C72 N6 1_555 1_555
H74 C72 1_555 1_555
H75 C72 1_555 1_555
H76 C72 1_555 1_555
O21 C73 1_555 1_555
C73 H77 1_555 1_555
N7 C73 1_555 1_555
C74 N7 1_555 1_555
H78 C74 1_555 1_555
H79 C74 1_555 1_555
H80 C74 1_555 1_555
C75 N7 1_555 1_555
H81 C75 1_555 1_555
H82 C75 1_555 1_555
H83 C75 1_555 1_555
Zn1C O7 1_555 1_555
Zn2C O8 1_555 1_555
Zn2_2 O11 1_555 1_555
Zn2C_2 O15 1_555 1_555
Zn3_2 O12 1_555 1_555
Zn3_3 O14 1_555 1_555
Zn3C O16 1_555 1_555
O7C Zn1 1_555 1_555
O8C Zn2 1_555 1_555
O11_2 Zn2 1_555 1_555
O12_2 Zn3 1_555 1_555
O14_2 Zn3 1_555 1_555
O15C Zn2 1_555 1_555
O16C Zn3 1_555 1_555
C6 C7 1_555 1_555
C12 C13 1_555 1_555
C20 C21 1_555 1_555
C26 C27 1_555 1_555
O10 C29 1_555 1_555
C34 C35 1_555 1_555
C40 C41 1_555 1_555
C48 C49 1_555 1_555
C54 C55 1_555 1_555

#END
