
#######################################################################
#
#                 Cambridge Crystallographic Data Centre
#                                CCDC 
#
#######################################################################
#
# If this CIF has been generated from an entry in the Cambridge 
# Structural Database, then it will include bibliographic, chemical, 
# crystal, experimental, refinement or atomic coordinate data resulting 
# from the CCDC's data processing and validation procedures.
#
#######################################################################

data_GAJVEU
_symmetry_cell_setting           monoclinic
_symmetry_space_group_name_H-M   'C 2/c'
_symmetry_Int_Tables_number      15
_space_group_name_Hall           '-C 2yn'
loop_
_symmetry_equiv_pos_site_id
_symmetry_equiv_pos_as_xyz
1 x,y,z
2 -x,y,1/2-z
3 1/2+x,1/2+y,z
4 1/2-x,1/2+y,1/2-z
5 -x,-y,-z
6 x,-y,1/2+z
7 1/2-x,1/2-y,-z
8 1/2+x,1/2-y,1/2+z
_cell_length_a                   33.1453(16)
_cell_length_b                   9.5959(4)
_cell_length_c                   18.4950(8)
_cell_angle_alpha                90
_cell_angle_beta                 90.467(1)
_cell_angle_gamma                90
_cell_volume                     5882.31
loop_
_atom_site_label
_atom_site_type_symbol
_atom_site_fract_x
_atom_site_fract_y
_atom_site_fract_z
Zn1 Zn 0.153346(11) 0.71055(4) 0.00432(2)
Zn2 Zn 0.2500 0.7500 0.0000
O1 O 0.16089(9) 0.8377(4) 0.08558(15)
O2 O 0.22866(9) 0.8192(3) 0.09677(14)
C1 C 0.19440(12) 0.8576(4) 0.11807(19)
C2 C 0.19242(11) 0.9290(4) 0.1900(2)
C3 C 0.15608(12) 0.9811(6) 0.2138(2)
H1 H 0.1325 0.9734 0.1846
C4 C 0.15445(12) 1.0453(6) 0.2817(2)
H2 H 0.1296 1.0816 0.2985
C5 C 0.18878(11) 1.0564(4) 0.3246(2)
C6 C 0.22519(12) 1.0020(5) 0.3010(2)
H3 H 0.2486 1.0076 0.3308
C7 C 0.22699(12) 0.9393(5) 0.2335(2)
H4 H 0.2519 0.9032 0.2167
C8 C 0.18661(11) 1.1254(4) 0.39731(19)
O3 O 0.15430(9) 1.1876(4) 0.41167(16)
O4 O 0.21594(9) 1.1144(3) 0.43925(15)
O5 O 0.09811(11) 0.6607(5) 0.0230(2)
O6 O 0.1037(6) 0.5258(18) -0.0721(8)
C9 C 0.08490(16) 0.5672(7) -0.0166(4)
C10 C 0.04070(16) 0.5317(7) -0.0080(4)
C11 C 0.0236(2) 0.4247(9) -0.0461(5)
H5 H 0.0397 0.3737 -0.0792
C12 C 0.0171(2) 0.6115(9) 0.0374(5)
H6 H 0.0283 0.6893 0.0623
O7 O 0.20149(8) 0.5931(3) -0.00612(15)
O8 O 0.17988(13) 0.4847(4) 0.0922(2)
C13 C 0.20077(13) 0.4866(4) 0.0385(2)
C14 C 0.22688(12) 0.3652(4) 0.0176(2)
C15 C 0.23086(15) 0.2541(5) 0.0670(2)
H7 H 0.2176 0.2576 0.1123
C16 C 0.24586(13) 0.3600(4) -0.0488(2)
H8 H 0.2429 0.4350 -0.0820
Zn1F Zn 0.346654(11) 0.78945(4) -0.00432(2)
Zn1E Zn 0.153346(11) 1.28945(4) 0.50432(2)
Zn1D Zn -0.153346(11) 0.28945(4) -0.00432(2)
Zn1F_2 Zn 0.346654(11) -0.21055(4) -0.00432(2)
Zn1C Zn 0.346654(11) 0.21055(4) -0.50432(2)
Zn2C Zn 0.2500 1.2500 0.5000
Zn2_2 Zn 0.2500 -0.2500 0.0000
Zn2C_2 Zn 0.2500 0.2500 -0.5000
O1F O 0.33911(9) 0.6623(4) -0.08558(15)
O2F O 0.27134(9) 0.6808(3) -0.09677(14)
C1F C 0.30560(12) 0.6424(4) -0.11807(19)
C2F C 0.30758(11) 0.5710(4) -0.1900(2)
C3F C 0.34392(12) 0.5189(6) -0.2138(2)
H1F H 0.3675 0.5266 -0.1846
C4F C 0.34555(12) 0.4547(6) -0.2817(2)
H2F H 0.3704 0.4184 -0.2985
C5F C 0.31122(11) 0.4436(4) -0.3246(2)
C6F C 0.27481(12) 0.4980(5) -0.3010(2)
H3F H 0.2514 0.4924 -0.3308
C7F C 0.27301(12) 0.5607(5) -0.2335(2)
H4F H 0.2481 0.5968 -0.2167
C8F C 0.31339(11) 0.3746(4) -0.39731(19)
O3F O 0.34570(9) 0.3124(4) -0.41167(16)
O3E O 0.15430(9) 0.8124(4) -0.08833(16)
O3C O 0.34570(9) 0.6876(4) 0.08833(16)
O4F O 0.28406(9) 0.3856(3) -0.43925(15)
O4C O 0.28406(9) 0.6144(3) 0.06075(15)
O4E O 0.21594(9) 0.8856(3) -0.06075(15)
O5D O -0.09811(11) 0.3393(5) -0.0230(2)
O5F O 0.40189(11) 0.8393(5) -0.0230(2)
O6D O -0.1037(6) 0.4742(18) 0.0721(8)
C9D C -0.08490(16) 0.4328(7) 0.0166(4)
C10D C -0.04070(16) 0.4683(7) 0.0080(4)
C11D C -0.0236(2) 0.5753(9) 0.0461(5)
H5D H -0.0397 0.6263 0.0792
C12D C -0.0171(2) 0.3885(9) -0.0374(5)
H6D H -0.0283 0.3107 -0.0623
O7F O 0.29851(8) -0.0931(3) 0.00612(15)
O7F_2 O 0.29851(8) 0.9069(3) 0.00612(15)
O8F O 0.32012(13) 0.0153(4) -0.0922(2)
C13F C 0.29923(13) 0.0134(4) -0.0385(2)
C14F C 0.27312(12) 0.1348(4) -0.0176(2)
C15F C 0.26914(15) 0.2459(5) -0.0670(2)
H7F H 0.2824 0.2424 -0.1123
C16F C 0.25414(13) 0.1400(4) 0.0488(2)
H8F H 0.2571 0.0650 0.0820
N1 N 0.1262(3) 0.4483(10) -0.2254(5)
C17 C 0.1084(6) 0.390(2) -0.2978(9)
H9 H 0.1282 0.4006 -0.3364
H10 H 0.0838 0.4407 -0.3106
H11 H 0.1020 0.2905 -0.2918
C18 C 0.1367(6) 0.5900(18) -0.2346(9)
H12 H 0.1618 0.5963 -0.2621
H13 H 0.1405 0.6336 -0.1871
H14 H 0.1150 0.6381 -0.2610
O9 O 0.0727(7) 1.251(2) 0.1473(11)
C21 C 0.0993(5) 1.2455(17) 0.0971(9)
H21 H 0.1201 1.3135 0.0957
N2 N 0.0981(3) 1.1479(12) 0.0481(8)
C22 C 0.0705(7) 1.032(2) 0.0491(14)
H22 H 0.0746 0.9745 0.0061
H23 H 0.0427 1.0676 0.0492
H24 H 0.0752 0.9765 0.0927
C23 C 0.1279(6) 1.157(2) -0.0082(11)
H25 H 0.1241 1.0794 -0.0422
H26 H 0.1549 1.1515 0.0132
H27 H 0.1248 1.2454 -0.0340
O10 O 0.0895(13) 0.215(5) -0.1455(18)
C19? C 0.0918(6) 0.415(2) -0.1875(9)
H15? H 0.0895 0.3134 -0.1836
H16? H 0.0681 0.4521 -0.2130
H17? H 0.0934 0.4557 -0.1390
C20? C 0.1638(6) 0.374(2) -0.1968(11)
H18? H 0.1872 0.4005 -0.2257
H19? H 0.1598 0.2726 -0.2000
H20? H 0.1685 0.3999 -0.1462
O11? O 0.1095(14) 1.162(5) -0.006(3)
O12? O -0.1077(6) 0.508(2) 0.0547(9)
loop_
_geom_bond_atom_site_label_1
_geom_bond_atom_site_label_2
_geom_bond_site_symmetry_1
_geom_bond_site_symmetry_2
Zn1 O1 1_555 1_555
Zn2 O2 1_555 1_555
O1 C1 1_555 1_555
O2 C1 1_555 1_555
C1 C2 1_555 1_555
C2 C3 1_555 1_555
C3 H1 1_555 1_555
C4 C3 1_555 1_555
H2 C4 1_555 1_555
C5 C4 1_555 1_555
C6 C5 1_555 1_555
H3 C6 1_555 1_555
C7 C2 1_555 1_555
H4 C7 1_555 1_555
C8 C5 1_555 1_555
O3 C8 1_555 1_555
O4 C8 1_555 1_555
O5 Zn1 1_555 1_555
O6 C9 1_555 1_555
C9 O5 1_555 1_555
C10 C9 1_555 1_555
C11 C10 1_555 1_555
H5 C11 1_555 1_555
C12 C10 1_555 1_555
H6 C12 1_555 1_555
O7 Zn1 1_555 1_555
O8 C13 1_555 1_555
C13 O7 1_555 1_555
C14 C13 1_555 1_555
C15 C14 1_555 1_555
H7 C15 1_555 1_555
C16 C14 1_555 1_555
H8 C16 1_555 1_555
N1 C17 1_555 1_555
C17 H9 1_555 1_555
H10 C17 1_555 1_555
H11 C17 1_555 1_555
C18 N1 1_555 1_555
H12 C18 1_555 1_555
H13 C18 1_555 1_555
H14 C18 1_555 1_555
O9 C21 1_555 1_555
C21 H21 1_555 1_555
N2 C21 1_555 1_555
C22 N2 1_555 1_555
H22 C22 1_555 1_555
H23 C22 1_555 1_555
H24 C22 1_555 1_555
C23 N2 1_555 1_555
H25 C23 1_555 1_555
H26 C23 1_555 1_555
H27 C23 1_555 1_555
Zn1F O1F 1_555 1_555
Zn1E O3 1_555 1_555
Zn1D O5D 1_555 1_555
Zn1F_2 O7F 1_555 1_555
Zn1C O3F 1_555 1_555
Zn2C O4 1_555 1_555
Zn2_2 O7F 1_555 1_555
Zn2C_2 O4F 1_555 1_555
O1F C1F 1_555 1_555
O2F Zn2 1_555 1_555
C1F O2F 1_555 1_555
C2F C1F 1_555 1_555
C3F C2F 1_555 1_555
H1F C3F 1_555 1_555
C4F C3F 1_555 1_555
H2F C4F 1_555 1_555
C5F C4F 1_555 1_555
C6F C5F 1_555 1_555
H3F C6F 1_555 1_555
C7F C2F 1_555 1_555
H4F C7F 1_555 1_555
C8F C5F 1_555 1_555
O3F C8F 1_555 1_555
O3E Zn1 1_555 1_555
O3C Zn1F 1_555 1_555
O4F C8F 1_555 1_555
O4C Zn2 1_555 1_555
O4E Zn2 1_555 1_555
O5D C9D 1_555 1_555
O5F Zn1F 1_555 1_555
O6D C9D 1_555 1_555
C9D C10D 1_555 1_555
C10D C11D 1_555 1_555
C11D C12 1_555 1_555
H5D C11D 1_555 1_555
C12D C11 1_555 1_555
H6D C12D 1_555 1_555
O7F C13F 1_555 1_555
O7F_2 Zn2 1_555 1_555
O8F C13F 1_555 1_555
C13F C14F 1_555 1_555
C14F C15F 1_555 1_555
C15F C16 1_555 1_555
H7F C15F 1_555 1_555
C16F C15 1_555 1_555
H8F C16F 1_555 1_555
Zn2 O7 1_555 1_555
C6 C7 1_555 1_555
Zn1F O7F_2 1_555 1_555
C6F C7F 1_555 1_555
C10D C12D 1_555 1_555
C14F C16F 1_555 1_555

#END
