
#######################################################################
#
#                 Cambridge Crystallographic Data Centre
#                                CCDC 
#
#######################################################################
#
# If this CIF has been generated from an entry in the Cambridge 
# Structural Database, then it will include bibliographic, chemical, 
# crystal, experimental, refinement or atomic coordinate data resulting 
# from the CCDC's data processing and validation procedures.
#
#######################################################################

data_GAJVUK
_symmetry_cell_setting           monoclinic
_symmetry_space_group_name_H-M   'C 2/c'
_symmetry_Int_Tables_number      15
_space_group_name_Hall           '-C 2yn'
loop_
_symmetry_equiv_pos_site_id
_symmetry_equiv_pos_as_xyz
1 x,y,z
2 -x,y,1/2-z
3 1/2+x,1/2+y,z
4 1/2-x,1/2+y,1/2-z
5 -x,-y,-z
6 x,-y,1/2+z
7 1/2-x,1/2-y,-z
8 1/2+x,1/2-y,1/2+z
_cell_length_a                   31.625(3)
_cell_length_b                   11.0517(10)
_cell_length_c                   16.3433(15)
_cell_angle_alpha                90
_cell_angle_beta                 119.084(1)
_cell_angle_gamma                90
_cell_volume                     4991.89
loop_
_atom_site_label
_atom_site_type_symbol
_atom_site_fract_x
_atom_site_fract_y
_atom_site_fract_z
I1 I 0.709581(11) 0.42408(3) 0.21545(2)
Cd1 Cd 0.642863(11) 0.47483(3) 0.27460(2)
N1 N 0.66874(13) 0.3588(3) 0.4035(3)
I2 I 0.548372(11) 0.48755(3) 0.14869(2)
C1 C 0.69086(17) 0.3893(4) 0.4968(3)
H1 H 0.6986 0.4692 0.5211
C2 C 0.69967(18) 0.2883(4) 0.5481(3)
H2 H 0.7148 0.2834 0.6144
N2 N 0.68272(14) 0.1940(3) 0.4868(3)
H3 H 0.6838 0.1170 0.5015
C3 C 0.66397(16) 0.2399(4) 0.3990(3)
S1 S 0.63931(5) 0.15505(10) 0.29682(9)
C4 C 0.57550(17) 0.1450(4) 0.2686(3)
H4 H 0.5645 0.2260 0.2763
H5 H 0.5557 0.1214 0.2021
C5 C 0.56678(15) 0.0568(4) 0.3278(3)
C6 C 0.55836(15) 0.0986(4) 0.3996(3)
C7 C 0.55719(18) 0.2321(4) 0.4197(4)
H6 H 0.5871 0.2706 0.4290
H7 H 0.5543 0.2417 0.4764
H8 H 0.5294 0.2703 0.3667
C8 C 0.54949(16) 0.0140(4) 0.4528(4)
H9 H 0.5430 0.0420 0.5005
C9 C 0.54983(15) -0.1102(4) 0.4382(3)
C10 C 0.54136(18) -0.1956(4) 0.5007(3)
H10 H 0.5143 -0.2497 0.4622
H11 H 0.5336 -0.1490 0.5428
H12 H 0.5706 -0.2436 0.5378
C11 C 0.55858(14) -0.1515(4) 0.3673(3)
C12 C 0.56728(16) -0.0693(4) 0.3115(3)
C13 C 0.57695(16) -0.1109(4) 0.2352(3)
H13 H 0.5531 -0.0751 0.1756
H14 H 0.5746 -0.1993 0.2305
H15 H 0.6095 -0.0856 0.2493
C14 C 0.56029(15) -0.2856(4) 0.3550(3)
H16 H 0.5548 -0.3021 0.2910
H17 H 0.5337 -0.3241 0.3610
S2 S 0.61808(4) -0.35472(10) 0.44052(8)
C15 C 0.65784(15) -0.2938(4) 0.4055(3)
N3 N 0.66998(13) -0.3441(3) 0.3460(3)
C16 C 0.70116(16) -0.2682(4) 0.3389(3)
H18 H 0.7157 -0.2814 0.3006
C17 C 0.70894(17) -0.1697(4) 0.3943(4)
H19 H 0.7294 -0.1027 0.4024
N4 N 0.68105(13) -0.1878(3) 0.4361(3)
H20 H 0.6787 -0.1386 0.4760
Cd1_2 Cd 0.642863(11) -0.52517(3) 0.27460(2)
N3_2 N 0.66998(13) 0.6559(3) 0.3460(3)
O1 O 0.69438(13) -0.0292(3) 0.5812(2)
H21 H 0.7232 -0.0130 0.6203
C18 C 0.6685(2) -0.0612(5) 0.6295(4)
H22 H 0.6893 -0.1109 0.6842
H23 H 0.6395 -0.1072 0.5874
H24 H 0.6591 0.0124 0.6500
loop_
_geom_bond_atom_site_label_1
_geom_bond_atom_site_label_2
_geom_bond_site_symmetry_1
_geom_bond_site_symmetry_2
I1 Cd1 1_555 1_555
Cd1 N1 1_555 1_555
N1 C1 1_555 1_555
I2 Cd1 1_555 1_555
C1 H1 1_555 1_555
C2 C1 1_555 1_555
H2 C2 1_555 1_555
N2 C2 1_555 1_555
H3 N2 1_555 1_555
C3 N1 1_555 1_555
S1 C3 1_555 1_555
C4 S1 1_555 1_555
H4 C4 1_555 1_555
H5 C4 1_555 1_555
C5 C4 1_555 1_555
C6 C5 1_555 1_555
C7 C6 1_555 1_555
H6 C7 1_555 1_555
H7 C7 1_555 1_555
H8 C7 1_555 1_555
C8 C6 1_555 1_555
H9 C8 1_555 1_555
C9 C8 1_555 1_555
C10 C9 1_555 1_555
H10 C10 1_555 1_555
H11 C10 1_555 1_555
H12 C10 1_555 1_555
C11 C9 1_555 1_555
C12 C5 1_555 1_555
C13 C12 1_555 1_555
H13 C13 1_555 1_555
H14 C13 1_555 1_555
H15 C13 1_555 1_555
C14 C11 1_555 1_555
H16 C14 1_555 1_555
H17 C14 1_555 1_555
S2 C14 1_555 1_555
C15 S2 1_555 1_555
N3 C15 1_555 1_555
C16 N3 1_555 1_555
H18 C16 1_555 1_555
C17 C16 1_555 1_555
H19 C17 1_555 1_555
N4 C15 1_555 1_555
H20 N4 1_555 1_555
O1 H21 1_555 1_555
C18 O1 1_555 1_555
H22 C18 1_555 1_555
H23 C18 1_555 1_555
H24 C18 1_555 1_555
Cd1_2 N3 1_555 1_555
N3_2 Cd1 1_555 1_555
N2 C3 1_555 1_555
C11 C12 1_555 1_555
C17 N4 1_555 1_555

#END
