
#######################################################################
#
#                 Cambridge Crystallographic Data Centre
#                                CCDC 
#
#######################################################################
#
# If this CIF has been generated from an entry in the Cambridge 
# Structural Database, then it will include bibliographic, chemical, 
# crystal, experimental, refinement or atomic coordinate data resulting 
# from the CCDC's data processing and validation procedures.
#
#######################################################################

data_GAJWIZ01
_symmetry_cell_setting           monoclinic
_symmetry_space_group_name_H-M   'P 21/n'
_symmetry_Int_Tables_number      14
_space_group_name_Hall           '-P 2yn'
loop_
_symmetry_equiv_pos_site_id
_symmetry_equiv_pos_as_xyz
1 x,y,z
2 1/2-x,1/2+y,1/2-z
3 -x,-y,-z
4 1/2+x,1/2-y,1/2+z
_cell_length_a                   17.0542(11)
_cell_length_b                   7.8076(5)
_cell_length_c                   18.7729(12)
_cell_angle_alpha                90
_cell_angle_beta                 95.793(1)
_cell_angle_gamma                90
_cell_volume                     2486.89
loop_
_atom_site_label
_atom_site_type_symbol
_atom_site_fract_x
_atom_site_fract_y
_atom_site_fract_z
Ag1 Ag -0.52813(2) 0.21455(5) -0.291370(19)
N1 N -0.4733(3) 1.1715(5) -0.4004(2)
O1 O -0.74207(18) -0.5195(4) -0.39157(17)
N2 N -0.4195(2) 0.3657(5) -0.2265(2)
H1 H -0.4384 0.4563 -0.2031
N3 N -0.50621(19) 0.0508(5) -0.18362(18)
H2 H -0.4764 -0.0412 -0.1934
O5 O -0.3905(2) 1.0886(5) -0.47877(18)
N4 N -0.6512(2) -0.7010(5) -0.3411(2)
C1 C -0.3905(3) 0.2355(6) -0.1746(3)
H3 H -0.3507 0.2855 -0.1403
H4 H -0.3661 0.1435 -0.1992
C2 C -0.4559(3) 0.1641(6) -0.1358(3)
H5 H -0.4339 0.1002 -0.0942
H6 H -0.4873 0.2571 -0.1195
C3 C -0.3584(3) 0.4246(6) -0.2694(3)
H7 H -0.3464 0.3338 -0.3019
H8 H -0.3109 0.4479 -0.2379
C4 C -0.5746(3) -0.0150(6) -0.1498(3)
H9 H -0.6125 0.0762 -0.1459
H10 H -0.5576 -0.0561 -0.1019
C5 C -0.3808(2) 0.5829(6) -0.3121(2)
C6 C -0.3277(3) 0.6531(7) -0.3549(3)
H11 H -0.2806 0.5960 -0.3593
C7 C -0.3424(3) 0.8036(6) -0.3908(3)
H12 H -0.3051 0.8479 -0.4187
C8 C -0.4125(2) 0.8911(6) -0.3858(2)
C9 C -0.4665(3) 0.8180(6) -0.3444(3)
H13 H -0.5143 0.8730 -0.3409
C10 C -0.4515(3) 0.6689(6) -0.3092(3)
H14 H -0.4894 0.6230 -0.2825
C11 C -0.4282(3) 1.0567(6) -0.4205(2)
C12 C -0.4028(4) 1.2675(8) -0.4928(3)
H15 H -0.4142 1.2886 -0.5437
H16 H -0.3568 1.3338 -0.4750
C13 C -0.4722(4) 1.3116(7) -0.4533(3)
H17 H -0.4652 1.4219 -0.4298
H18 H -0.5206 1.3134 -0.4854
C14 C -0.6123(3) -0.1592(6) -0.1944(2)
C15 C -0.5994(3) -0.3275(6) -0.1745(2)
H19 H -0.5727 -0.3531 -0.1302
C16 C -0.6262(2) -0.4582(6) -0.2203(2)
H20 H -0.6177 -0.5716 -0.2063
C17 C -0.6656(2) -0.4216(6) -0.2871(2)
C18 C -0.6823(3) -0.2527(6) -0.3041(3)
H21 H -0.7118 -0.2258 -0.3470
C19 C -0.6555(3) -0.1237(6) -0.2579(3)
H22 H -0.6669 -0.0104 -0.2701
C20 C -0.6845(2) -0.5565(6) -0.3389(2)
C21 C -0.6908(4) -0.7929(7) -0.4042(3)
H23 H -0.7203 -0.8905 -0.3892
H24 H -0.6526 -0.8326 -0.4354
C22 C -0.7446(3) -0.6633(7) -0.4411(3)
H25 H -0.7263 -0.6293 -0.4863
H26 H -0.7977 -0.7082 -0.4501
Ag1_2 Ag -0.52813(2) 1.21455(5) -0.291370(19)
Ag1_3 Ag -0.52813(2) -0.78545(5) -0.291370(19)
N1_2 N -0.4733(3) 0.1715(5) -0.4004(2)
N4_2 N -0.6512(2) 0.2990(5) -0.3411(2)
S1 S -0.33691(9) 1.72984(19) -0.09354(9)
F1 F -0.3868(5) 1.4812(6) -0.0208(2)
F2 F -0.4166(5) 1.7245(11) 0.0130(4)
F3 F -0.3028(4) 1.6396(7) 0.0374(2)
O2 O -0.4082(3) 1.7216(6) -0.1385(2)
O3 O -0.3097(3) 1.8943(6) -0.0726(3)
O4 O -0.2777(3) 1.6195(9) -0.1143(4)
C23 C -0.3627(6) 1.6392(10) -0.0132(4)
loop_
_geom_bond_atom_site_label_1
_geom_bond_atom_site_label_2
_geom_bond_site_symmetry_1
_geom_bond_site_symmetry_2
Ag1 N2 1_555 1_555
S1 O2 1_555 1_555
F1 C23 1_555 1_555
F2 C23 1_555 1_555
F3 C23 1_555 1_555
N1 C11 1_555 1_555
O1 C20 1_555 1_555
O3 S1 1_555 1_555
O4 S1 1_555 1_555
N2 H1 1_555 1_555
N3 Ag1 1_555 1_555
H2 N3 1_555 1_555
O5 C11 1_555 1_555
N4 C20 1_555 1_555
C1 N2 1_555 1_555
H3 C1 1_555 1_555
H4 C1 1_555 1_555
C2 N3 1_555 1_555
H5 C2 1_555 1_555
H6 C2 1_555 1_555
C3 N2 1_555 1_555
H7 C3 1_555 1_555
H8 C3 1_555 1_555
C4 N3 1_555 1_555
H9 C4 1_555 1_555
H10 C4 1_555 1_555
C5 C3 1_555 1_555
C6 C5 1_555 1_555
H11 C6 1_555 1_555
C7 C6 1_555 1_555
H12 C7 1_555 1_555
C8 C7 1_555 1_555
C9 C8 1_555 1_555
H13 C9 1_555 1_555
C10 C5 1_555 1_555
H14 C10 1_555 1_555
C11 C8 1_555 1_555
C12 O5 1_555 1_555
H15 C12 1_555 1_555
H16 C12 1_555 1_555
C13 N1 1_555 1_555
H17 C13 1_555 1_555
H18 C13 1_555 1_555
C14 C4 1_555 1_555
C15 C14 1_555 1_555
H19 C15 1_555 1_555
C16 C15 1_555 1_555
H20 C16 1_555 1_555
C17 C16 1_555 1_555
C18 C17 1_555 1_555
H21 C18 1_555 1_555
C19 C14 1_555 1_555
H22 C19 1_555 1_555
C20 C17 1_555 1_555
C21 N4 1_555 1_555
H23 C21 1_555 1_555
H24 C21 1_555 1_555
C22 O1 1_555 1_555
H25 C22 1_555 1_555
H26 C22 1_555 1_555
C23 S1 1_555 1_555
Ag1_2 N1 1_555 1_555
Ag1_3 N4 1_555 1_555
N1_2 Ag1 1_555 1_555
N4_2 Ag1 1_555 1_555
C1 C2 1_555 1_555
C9 C10 1_555 1_555
C12 C13 1_555 1_555
C18 C19 1_555 1_555
C21 C22 1_555 1_555

#END
