
#######################################################################
#
#                 Cambridge Crystallographic Data Centre
#                                CCDC 
#
#######################################################################
#
# If this CIF has been generated from an entry in the Cambridge 
# Structural Database, then it will include bibliographic, chemical, 
# crystal, experimental, refinement or atomic coordinate data resulting 
# from the CCDC's data processing and validation procedures.
#
#######################################################################

data_GAJXEW
_symmetry_cell_setting           monoclinic
_symmetry_space_group_name_H-M   'C 2/c'
_symmetry_Int_Tables_number      15
_space_group_name_Hall           '-C 2yn'
loop_
_symmetry_equiv_pos_site_id
_symmetry_equiv_pos_as_xyz
1 x,y,z
2 -x,y,1/2-z
3 1/2+x,1/2+y,z
4 1/2-x,1/2+y,1/2-z
5 -x,-y,-z
6 x,-y,1/2+z
7 1/2-x,1/2-y,-z
8 1/2+x,1/2-y,1/2+z
_cell_length_a                   15.250(9)
_cell_length_b                   8.2253(5)
_cell_length_c                   39.011(2)
_cell_angle_alpha                90
_cell_angle_beta                 100.425(1)
_cell_angle_gamma                90
_cell_volume                     4812.6
loop_
_atom_site_label
_atom_site_type_symbol
_atom_site_fract_x
_atom_site_fract_y
_atom_site_fract_z
Ag1 Ag -0.20632(3) 0.05068(5) 0.379260(10)
O1 O -0.4333(3) 0.7941(5) 0.31536(10)
O2 O -0.1606(3) -0.6856(5) 0.28367(10)
N1 N -0.3456(3) 0.9718(5) 0.34969(12)
N2 N -0.1949(3) 0.2142(5) 0.43178(11)
H1 H -0.1545 0.2945 0.4306
N3 N -0.1085(3) -0.1046(5) 0.42165(11)
H2 H -0.1417 -0.1826 0.4298
N4 N -0.1626(3) -0.8644(6) 0.32701(12)
C1 C -0.1556(4) 0.1021(7) 0.45984(14)
H3 H -0.2008 0.0259 0.4643
H4 H -0.1353 0.1634 0.4810
C2 C -0.2766(4) 0.2907(8) 0.43898(16)
H5 H -0.2664 0.3306 0.4628
H6 H -0.3239 0.2105 0.4366
C3 C -0.3047(4) 0.4300(7) 0.41419(15)
C4 C -0.3035(4) 0.5891(7) 0.42644(15)
H7 H -0.2868 0.6092 0.4502
C5 C -0.3264(4) 0.7156(7) 0.40413(14)
H8 H -0.3243 0.8210 0.4128
C6 C -0.3525(3) 0.6899(6) 0.36876(13)
C7 C -0.3560(4) 0.5306(7) 0.35623(15)
H9 H -0.3752 0.5100 0.3326
C8 C -0.3312(4) 0.4048(7) 0.37893(15)
H10 H -0.3322 0.2993 0.3703
C9 C -0.3747(3) 0.8268(7) 0.34486(13)
C10 C -0.3944(4) 1.0688(7) 0.32034(15)
H11 H -0.3537 1.1353 0.3099
H12 H -0.4384 1.1386 0.3280
C11 C -0.4388(4) 0.9414(7) 0.29488(15)
H13 H -0.5004 0.9700 0.2859
H14 H -0.4076 0.9294 0.2755
C12 C -0.0788(4) 0.0101(7) 0.45023(15)
H15 H -0.0367 0.0862 0.4433
H16 H -0.0484 -0.0491 0.4704
C13 C -0.0329(4) -0.1852(8) 0.41049(17)
H17 H 0.0077 -0.2250 0.4308
H18 H -0.0010 -0.1071 0.3988
C14 C -0.0626(4) -0.3252(7) 0.38626(15)
C15 C -0.0439(4) -0.4838(8) 0.39612(15)
H19 H -0.0120 -0.5052 0.4183
C16 C -0.0709(4) -0.6108(7) 0.37411(14)
H20 H -0.0564 -0.7167 0.3814
C17 C -0.1195(4) -0.5832(7) 0.34127(14)
C18 C -0.1379(5) -0.4236(7) 0.33089(16)
H21 H -0.1698 -0.4023 0.3087
C19 C -0.1098(5) -0.2985(8) 0.35271(17)
H22 H -0.1223 -0.1924 0.3451
C20 C -0.1486(4) -0.7198(7) 0.31794(14)
C21 C -0.1821(5) -0.9606(8) 0.29469(16)
H23 H -0.2363 -1.0235 0.2938
H24 H -0.1334 -1.0340 0.2929
C22 C -0.1932(6) -0.8343(9) 0.26589(17)
H25 H -0.1584 -0.8626 0.2483
H26 H -0.2553 -0.8236 0.2549
Ag1_2 Ag -0.20632(3) 1.05068(5) 0.379260(10)
Ag1_3 Ag -0.20632(3) -0.94932(5) 0.379260(10)
N1_2 N -0.3456(3) -0.0282(5) 0.34969(12)
N4_2 N -0.1626(3) 0.1356(6) 0.32701(12)
B1 B -0.5000 0.3355(15) 0.2500
F1 F -0.4371(4) 0.2373(7) 0.24057(18)
F2 F -0.4655(6) 0.4254(9) 0.2772(2)
F1A F -0.5629(4) 0.2373(7) 0.25943(18)
F2A F -0.5345(6) 0.4254(9) 0.2228(2)
B2 B -0.1043(8) -0.3898(16) 0.5048(3)
F3 F -0.0972(7) -0.4381(17) 0.4737(3)
F4 F -0.1549(10) -0.285(2) 0.4989(4)
F5 F -0.0253(8) -0.3385(14) 0.5191(3)
F6 F -0.1212(11) -0.496(2) 0.5205(4)
loop_
_geom_bond_atom_site_label_1
_geom_bond_atom_site_label_2
_geom_bond_site_symmetry_1
_geom_bond_site_symmetry_2
Ag1 N2 1_555 1_555
O1 C9 1_555 1_555
O2 C20 1_555 1_555
N1 C9 1_555 1_555
N2 H1 1_555 1_555
N3 Ag1 1_555 1_555
H2 N3 1_555 1_555
N4 C20 1_555 1_555
C1 N2 1_555 1_555
H3 C1 1_555 1_555
H4 C1 1_555 1_555
C2 N2 1_555 1_555
H5 C2 1_555 1_555
H6 C2 1_555 1_555
C3 C2 1_555 1_555
C4 C3 1_555 1_555
H7 C4 1_555 1_555
C5 C4 1_555 1_555
H8 C5 1_555 1_555
C6 C5 1_555 1_555
C7 C6 1_555 1_555
H9 C7 1_555 1_555
C8 C3 1_555 1_555
H10 C8 1_555 1_555
C9 C6 1_555 1_555
C10 N1 1_555 1_555
H11 C10 1_555 1_555
H12 C10 1_555 1_555
C11 O1 1_555 1_555
H13 C11 1_555 1_555
H14 C11 1_555 1_555
C12 N3 1_555 1_555
H15 C12 1_555 1_555
H16 C12 1_555 1_555
C13 N3 1_555 1_555
H17 C13 1_555 1_555
H18 C13 1_555 1_555
C14 C13 1_555 1_555
C15 C14 1_555 1_555
H19 C15 1_555 1_555
C16 C15 1_555 1_555
H20 C16 1_555 1_555
C17 C16 1_555 1_555
C18 C17 1_555 1_555
H21 C18 1_555 1_555
C19 C14 1_555 1_555
H22 C19 1_555 1_555
C20 C17 1_555 1_555
C21 N4 1_555 1_555
H23 C21 1_555 1_555
H24 C21 1_555 1_555
C22 O2 1_555 1_555
H25 C22 1_555 1_555
H26 C22 1_555 1_555
B1 F1 1_555 1_555
B2 F3 1_555 1_555
F2 B1 1_555 1_555
F4 B2 1_555 1_555
F5 B2 1_555 1_555
F6 B2 1_555 1_555
Ag1_2 N1 1_555 1_555
Ag1_3 N4 1_555 1_555
N1_2 Ag1 1_555 1_555
N4_2 Ag1 1_555 1_555
F1A B1 1_555 1_555
F2A B1 1_555 1_555
C1 C12 1_555 1_555
C7 C8 1_555 1_555
C10 C11 1_555 1_555
C18 C19 1_555 1_555
C21 C22 1_555 1_555

#END
