
#######################################################################
#
#                 Cambridge Crystallographic Data Centre
#                                CCDC 
#
#######################################################################
#
# If this CIF has been generated from an entry in the Cambridge 
# Structural Database, then it will include bibliographic, chemical, 
# crystal, experimental, refinement or atomic coordinate data resulting 
# from the CCDC's data processing and validation procedures.
#
#######################################################################

data_GAJYAT
_symmetry_cell_setting           monoclinic
_symmetry_space_group_name_H-M   'P 21/n'
_symmetry_Int_Tables_number      14
_space_group_name_Hall           '-P 2yn'
loop_
_symmetry_equiv_pos_site_id
_symmetry_equiv_pos_as_xyz
1 x,y,z
2 1/2-x,1/2+y,1/2-z
3 -x,-y,-z
4 1/2+x,1/2-y,1/2+z
_cell_length_a                   10.5871(16)
_cell_length_b                   20.8938(11)
_cell_length_c                   16.6956(16)
_cell_angle_alpha                90
_cell_angle_beta                 107.58(1)
_cell_angle_gamma                90
_cell_volume                     3520.66
loop_
_atom_site_label
_atom_site_type_symbol
_atom_site_fract_x
_atom_site_fract_y
_atom_site_fract_z
C1 C 0.3493(5) 0.3206(2) 0.6455(3)
H1 H 0.3277 0.3587 0.6120
H2 H 0.4431 0.3192 0.6729
H3 H 0.3032 0.3207 0.6869
C2 C 0.1824(4) 0.2611(2) 0.5418(2)
C3 C 0.0826(5) 0.3030(2) 0.5408(3)
H4 H 0.0997 0.3384 0.5761
C4 C -0.0445(5) 0.2926(3) 0.4869(3)
H5 H -0.1121 0.3213 0.4856
C5 C -0.0694(5) 0.2404(3) 0.4362(3)
H6 H -0.1552 0.2332 0.4016
C6 C 0.0319(4) 0.1965(2) 0.4347(3)
C7 C 0.1589(4) 0.2072(2) 0.4887(2)
C8 C -0.0004(4) 0.1429(3) 0.3786(3)
H7 H -0.0899 0.1376 0.3500
C9 C 0.0178(5) 0.0514(3) 0.3005(3)
H8 H -0.0694 0.0657 0.2671
H9 H 0.0068 0.0127 0.3297
C10 C 0.0986(4) 0.0365(2) 0.2433(3)
H10 H 0.1286 0.0762 0.2250
H11 H 0.0433 0.0146 0.1939
C11 C 0.2176(5) -0.0048(2) 0.2848(3)
H12 H 0.1888 -0.0419 0.3097
H13 H 0.2560 -0.0200 0.2424
C12 C 0.4377(4) 0.00639(19) 0.3663(2)
H14 H 0.4445 -0.0308 0.3373
C13 C 0.5597(4) 0.03038(18) 0.4231(2)
C14 C 0.6770(4) -0.0011(2) 0.4243(3)
H15 H 0.6732 -0.0379 0.3923
C15 C 0.7962(4) 0.0215(2) 0.4716(3)
H16 H 0.8734 0.0005 0.4711
C16 C 0.8043(4) 0.0762(2) 0.5210(3)
H17 H 0.8865 0.0919 0.5526
C17 C 0.6902(4) 0.10664(17) 0.5226(2)
C18 C 0.5657(4) 0.08450(17) 0.4730(2)
C19 C 0.8041(4) 0.1889(2) 0.6179(3)
H18 H 0.8539 0.1599 0.6604
H19 H 0.7846 0.2270 0.6440
H20 H 0.8551 0.1998 0.5811
C20 C 0.5634(4) 0.17637(19) 0.7281(2)
C21 C 0.6007(4) 0.13666(17) 0.8070(2)
C22 C 0.5139(4) 0.09191(19) 0.8220(2)
H21 H 0.4311 0.0859 0.7828
C23 C 0.5502(4) 0.0560(2) 0.8954(3)
H22 H 0.4907 0.0274 0.9069
C24 C 0.6747(4) 0.06310(18) 0.9505(2)
C25 C 0.7630(4) 0.10626(19) 0.9362(2)
H23 H 0.8474 0.1103 0.9740
C26 C 0.7246(4) 0.14358(19) 0.8645(2)
H24 H 0.7830 0.1738 0.8550
C27 C 0.7695(3) -0.02981(17) 1.0266(2)
C28 C 0.8163(4) -0.05971(18) 1.1038(2)
H25 H 0.8064 -0.0404 1.1518
C29 C 0.8776(4) -0.11832(18) 1.1091(2)
H26 H 0.9107 -0.1380 1.1612
C30 C 0.8912(3) -0.14859(17) 1.0385(2)
C31 C 0.8447(4) -0.11780(19) 0.9620(2)
H27 H 0.8548 -0.1371 0.9141
C32 C 0.7839(4) -0.05922(19) 0.9554(2)
H28 H 0.7525 -0.0393 0.9033
C33 C 0.9575(4) -0.21266(18) 1.0447(2)
Co1 Co 0.45160(5) 0.18973(2) 0.55250(3)
Cu1 Cu 0.27360(4) 0.10448(2) 0.40941(3)
N1 N 0.0785(3) 0.10090(18) 0.3623(2)
N2 N 0.3205(3) 0.02987(15) 0.35087(18)
O1 O 0.3106(3) 0.26563(14) 0.59255(17)
O2 O 0.2602(3) 0.16892(13) 0.49143(16)
O3 O 0.4578(2) 0.11537(12) 0.47603(15)
O4 O 0.6829(3) 0.15895(13) 0.57054(18)
O5 O 0.4806(3) 0.15024(13) 0.66455(15)
O6 O 0.6125(3) 0.22962(13) 0.72745(16)
O7 O 0.9810(3) -0.24379(13) 1.11068(18)
O8 O 0.9853(3) -0.22952(13) 0.97937(17)
O9 O 0.7096(3) 0.02878(12) 1.02612(15)
O10 O 0.2956(4) 0.18270(15) 0.3171(2)
H38 H 0.244(5) 0.204(2) 0.294(3)
H39 H 0.360(5) 0.206(2) 0.342(3)
Co1A Co 1.04840(5) -0.31027(2) 0.94750(3)
O8A O 0.5147(3) 0.27048(13) 0.52063(17)
C34 C 1.1684(5) 0.1369(3) 0.6925(3)
C35 C 1.2277(8) 0.1930(4) 0.7376(5)
H29 H 1.1595 0.2210 0.7440
H30 H 1.2784 0.2147 0.7069
H31 H 1.2848 0.1810 0.7919
N3 N 1.1216(6) 0.0951(4) 0.6636(4)
C36 C 0.1169(8) 0.4170(3) 0.7297(4)
H32 H 0.0610 0.4495 0.6964
H33 H 0.1773 0.4018 0.7012
H34 H 0.1660 0.4345 0.7832
C37 C 0.0293(11) 0.3600(4) 0.7433(7)
H35 H -0.0258 0.3727 0.7776
H36 H -0.0264 0.3432 0.6902
O11 O 0.1315(12) 0.3131(11) 0.7875(11)
H37 H 0.0999 0.2884 0.8145
loop_
_geom_bond_atom_site_label_1
_geom_bond_atom_site_label_2
_geom_bond_site_symmetry_1
_geom_bond_site_symmetry_2
C1 H1 1_555 1_555
H2 C1 1_555 1_555
H3 C1 1_555 1_555
C2 C3 1_555 1_555
C3 H4 1_555 1_555
C4 C3 1_555 1_555
H5 C4 1_555 1_555
C5 C4 1_555 1_555
H6 C5 1_555 1_555
C6 C5 1_555 1_555
C7 C2 1_555 1_555
C8 C6 1_555 1_555
H7 C8 1_555 1_555
C9 H8 1_555 1_555
H9 C9 1_555 1_555
C10 C9 1_555 1_555
H10 C10 1_555 1_555
H11 C10 1_555 1_555
C11 C10 1_555 1_555
H12 C11 1_555 1_555
H13 C11 1_555 1_555
C12 H14 1_555 1_555
C13 C12 1_555 1_555
C14 C13 1_555 1_555
H15 C14 1_555 1_555
C15 C14 1_555 1_555
H16 C15 1_555 1_555
C16 C15 1_555 1_555
H17 C16 1_555 1_555
C17 C16 1_555 1_555
C18 C13 1_555 1_555
C19 H18 1_555 1_555
H19 C19 1_555 1_555
H20 C19 1_555 1_555
C20 C21 1_555 1_555
C21 C22 1_555 1_555
C22 H21 1_555 1_555
C23 C22 1_555 1_555
H22 C23 1_555 1_555
C24 C23 1_555 1_555
C25 C24 1_555 1_555
H23 C25 1_555 1_555
C26 C21 1_555 1_555
H24 C26 1_555 1_555
C27 C28 1_555 1_555
C28 H25 1_555 1_555
C29 C28 1_555 1_555
H26 C29 1_555 1_555
C30 C29 1_555 1_555
C31 C30 1_555 1_555
H27 C31 1_555 1_555
C32 C27 1_555 1_555
H28 C32 1_555 1_555
C33 C30 1_555 1_555
C34 C35 1_555 1_555
C35 H29 1_555 1_555
H30 C35 1_555 1_555
H31 C35 1_555 1_555
C36 H32 1_555 1_555
H33 C36 1_555 1_555
H34 C36 1_555 1_555
C37 C36 1_555 1_555
H35 C37 1_555 1_555
H36 C37 1_555 1_555
Co1 O1 1_555 1_555
Cu1 N1 1_555 1_555
N1 C8 1_555 1_555
N2 C11 1_555 1_555
N3 C34 1_555 1_555
O1 C1 1_555 1_555
O2 C7 1_555 1_555
O3 C18 1_555 1_555
O4 C17 1_555 1_555
O5 C20 1_555 1_555
O6 C20 1_555 1_555
O7 C33 1_555 1_555
O8 C33 1_555 1_555
O9 C24 1_555 1_555
O10 Cu1 1_555 1_555
O11 C37 1_555 1_555
H37 O11 1_555 1_555
H38 O10 1_555 1_555
H39 O10 1_555 1_555
Co1A O8 1_555 1_555
O8A Co1 1_555 1_555
C2 O1 1_555 1_555
C6 C7 1_555 1_555
C9 N1 1_555 1_555
C12 N2 1_555 1_555
C17 C18 1_555 1_555
C19 O4 1_555 1_555
C25 C26 1_555 1_555
C27 O9 1_555 1_555
C31 C32 1_555 1_555
Co1 O2 1_555 1_555
Co1 O3 1_555 1_555
Co1 O4 1_555 1_555
Co1 O5 1_555 1_555
Cu1 N2 1_555 1_555
Cu1 O2 1_555 1_555
Cu1 O3 1_555 1_555

#END
