
#######################################################################
#
#                 Cambridge Crystallographic Data Centre
#                                CCDC 
#
#######################################################################
#
# If this CIF has been generated from an entry in the Cambridge 
# Structural Database, then it will include bibliographic, chemical, 
# crystal, experimental, refinement or atomic coordinate data resulting 
# from the CCDC's data processing and validation procedures.
#
#######################################################################

data_GAJYOH
_symmetry_cell_setting           monoclinic
_symmetry_space_group_name_H-M   'P 21/n'
_symmetry_Int_Tables_number      14
_space_group_name_Hall           '-P 2yn'
loop_
_symmetry_equiv_pos_site_id
_symmetry_equiv_pos_as_xyz
1 x,y,z
2 1/2-x,1/2+y,1/2-z
3 -x,-y,-z
4 1/2+x,1/2-y,1/2+z
_cell_length_a                   15.236(5)
_cell_length_b                   10.124(5)
_cell_length_c                   15.653(5)
_cell_angle_alpha                90
_cell_angle_beta                 93.066(5)
_cell_angle_gamma                90
_cell_volume                     2411.01
loop_
_atom_site_label
_atom_site_type_symbol
_atom_site_fract_x
_atom_site_fract_y
_atom_site_fract_z
C1 C 0.1757(3) -0.0161(4) 0.0406(2)
H1 H 0.2139 -0.0831 0.0651
H2 H 0.2103 0.0534 0.0178
H3 H 0.1385 -0.0539 -0.0045
C2 C 0.06376(18) 0.1346(3) 0.07987(17)
C3 C 0.0456(2) 0.1743(3) -0.00403(19)
H4 H 0.0719 0.1323 -0.0489
C4 C -0.0134(3) 0.2794(4) -0.0197(2)
H5 H -0.0253 0.3088 -0.0754
C5 C -0.0532(2) 0.3381(3) 0.0457(2)
H6 H -0.0926 0.4067 0.0338
C6 C -0.03649(19) 0.2982(3) 0.13129(18)
C7 C 0.02363(18) 0.1940(3) 0.14915(17)
C8 C -0.08608(18) 0.3600(3) 0.19659(19)
H7 H -0.1260 0.4248 0.1780
C9 C -0.1480(2) 0.4027(3) 0.3270(2)
H8 H -0.1942 0.3403 0.3386
H9 H -0.1742 0.4740 0.2931
C10 C -0.1104(2) 0.4580(3) 0.4108(2)
H10 H -0.0555 0.5026 0.4012
H11 H -0.1508 0.5228 0.4319
C11 C -0.0942(2) 0.3522(3) 0.4776(2)
H12 H -0.0791 0.3938 0.5322
H13 H -0.1480 0.3025 0.4833
C12 C 0.0127(2) 0.1999(3) 0.52204(18)
H14 H -0.0108 0.2185 0.5743
C13 C 0.08479(19) 0.1076(3) 0.52482(18)
C14 C 0.1141(2) 0.0574(3) 0.60580(18)
H15 H 0.0846 0.0803 0.6541
C15 C 0.1861(2) -0.0253(3) 0.61356(19)
H16 H 0.2047 -0.0579 0.6670
C16 C 0.2311(2) -0.0602(3) 0.54132(19)
H17 H 0.2805 -0.1141 0.5468
C17 C 0.20185(19) -0.0145(3) 0.46232(18)
C18 C 0.12860(17) 0.0702(3) 0.45139(16)
C19 C 0.3235(2) -0.0952(6) 0.3889(3)
H18 H 0.3405 -0.1104 0.3316
H19 H 0.3248 -0.1772 0.4198
H20 H 0.3635 -0.0338 0.4169
C20 C 0.09017(19) -0.2576(3) 0.26420(19)
C21 C 0.19046(18) -0.2689(3) 0.24771(17)
N1 N -0.08153(16) 0.3359(2) 0.27716(16)
N2 N -0.02312(16) 0.2599(2) 0.45698(16)
O1 O 0.12251(14) 0.0364(2) 0.10521(12)
O2 O 0.04378(13) 0.15083(19) 0.22729(12)
O3 O 0.10940(13) 0.4012(2) 0.33840(13)
O4 O 0.10425(13) 0.10937(19) 0.37310(12)
O6 O 0.23885(14) -0.0435(2) 0.38666(13)
O8 O 0.22457(12) -0.16501(18) 0.22021(12)
O10 O 0.06106(13) -0.1414(2) 0.26896(14)
O11 O 0.04710(14) -0.3599(2) 0.27145(16)
O12 O 0.22758(13) -0.37621(19) 0.26284(13)
Cu1 Cu 0.01213(2) 0.23144(3) 0.33711(2)
Mn1 Mn 0.15397(3) 0.01868(4) 0.25751(3)
O12A O 0.27242(13) 0.12379(19) 0.23716(13)
Mn1A Mn 0.34603(3) -0.48132(4) 0.24249(3)
O5 O -0.13190(16) -0.2955(3) 0.22168(18)
O7 O -0.12268(16) -0.0234(2) 0.17966(14)
O9 O -0.24511(17) 0.1881(3) 0.15523(19)
loop_
_geom_bond_atom_site_label_1
_geom_bond_atom_site_label_2
_geom_bond_site_symmetry_1
_geom_bond_site_symmetry_2
C1 H1 1_555 1_555
H2 C1 1_555 1_555
H3 C1 1_555 1_555
C2 C3 1_555 1_555
C3 H4 1_555 1_555
C4 C3 1_555 1_555
H5 C4 1_555 1_555
C5 C4 1_555 1_555
H6 C5 1_555 1_555
C6 C5 1_555 1_555
C7 C2 1_555 1_555
C8 C6 1_555 1_555
H7 C8 1_555 1_555
C9 H8 1_555 1_555
H9 C9 1_555 1_555
C10 C9 1_555 1_555
H10 C10 1_555 1_555
H11 C10 1_555 1_555
C11 C10 1_555 1_555
H12 C11 1_555 1_555
H13 C11 1_555 1_555
C12 H14 1_555 1_555
C13 C12 1_555 1_555
C14 C13 1_555 1_555
H15 C14 1_555 1_555
C15 C14 1_555 1_555
H16 C15 1_555 1_555
C16 C15 1_555 1_555
H17 C16 1_555 1_555
C17 C16 1_555 1_555
C18 C13 1_555 1_555
C19 H18 1_555 1_555
H19 C19 1_555 1_555
H20 C19 1_555 1_555
C20 C21 1_555 1_555
C21 O8 1_555 1_555
N1 C8 1_555 1_555
N2 C11 1_555 1_555
O1 C1 1_555 1_555
O2 C7 1_555 1_555
O3 Cu1 1_555 1_555
O4 C18 1_555 1_555
O6 C17 1_555 1_555
O8 Mn1 1_555 1_555
O10 C20 1_555 1_555
O11 C20 1_555 1_555
O12 C21 1_555 1_555
Cu1 N1 1_555 1_555
Mn1 O1 1_555 1_555
O12A Mn1 1_555 1_555
Mn1A O12 1_555 1_555
C2 O1 1_555 1_555
C6 C7 1_555 1_555
C9 N1 1_555 1_555
C12 N2 1_555 1_555
C17 C18 1_555 1_555
C19 O6 1_555 1_555
N2 Cu1 1_555 1_555
O2 Cu1 1_555 1_555
O2 Mn1 1_555 1_555
O4 Cu1 1_555 1_555
O4 Mn1 1_555 1_555
O6 Mn1 1_555 1_555
O10 Mn1 1_555 1_555

#END
