
#######################################################################
#
#                 Cambridge Crystallographic Data Centre
#                                CCDC 
#
#######################################################################
#
# If this CIF has been generated from an entry in the Cambridge 
# Structural Database, then it will include bibliographic, chemical, 
# crystal, experimental, refinement or atomic coordinate data resulting 
# from the CCDC's data processing and validation procedures.
#
#######################################################################

data_GAKHAD
_symmetry_cell_setting           monoclinic
_symmetry_space_group_name_H-M   'P 21/c'
_symmetry_Int_Tables_number      14
_space_group_name_Hall           '-P 2ybc'
loop_
_symmetry_equiv_pos_site_id
_symmetry_equiv_pos_as_xyz
1 x,y,z
2 -x,1/2+y,1/2-z
3 -x,-y,-z
4 x,1/2-y,1/2+z
_cell_length_a                   13.403(3)
_cell_length_b                   12.843(3)
_cell_length_c                   7.5005(15)
_cell_angle_alpha                90
_cell_angle_beta                 96.30(3)
_cell_angle_gamma                90
_cell_volume                     1283.3
loop_
_atom_site_label
_atom_site_type_symbol
_atom_site_fract_x
_atom_site_fract_y
_atom_site_fract_z
Zn1 Zn 0.73409(5) 0.41707(6) 0.07795(10)
O1 O 0.7977(3) 0.5564(4) 0.1568(7)
O2 O 0.8538(3) 0.7179(4) 0.1551(8)
C1 C 0.7888(4) 0.6513(5) 0.1132(9)
C2 C 0.6910(4) 0.6905(5) 0.0146(8)
C3 C 0.6762(5) 0.7967(5) 0.0172(9)
H1 H 0.7265 0.8379 0.0762
C4 C 0.5906(5) 0.8456(6) -0.0629(10)
H2 H 0.5837 0.9176 -0.0617
C5 C 0.5169(4) 0.7827(5) -0.1435(8)
H3 H 0.4573 0.8116 -0.1966
N1 N 0.5303(4) 0.6797(4) -0.1461(7)
H4 H 0.4813 0.6427 -0.1955
C6 C 0.6154(4) 0.6274(5) -0.0770(8)
S1 S 0.61464(12) 0.49722(14) -0.1266(2)
O3 O 0.6741(3) 0.2752(4) -0.0558(7)
O4 O 0.6657(3) 0.1234(3) -0.1995(6)
C7 C 0.7086(4) 0.1873(5) -0.0836(8)
C8 C 0.8021(4) 0.1465(5) 0.0242(8)
C9 C 0.8074(5) 0.0405(5) 0.0512(9)
H5 H 0.7533 -0.0009 0.0074
C10 C 0.8912(5) -0.0058(6) 0.1420(10)
H6 H 0.8934 -0.0772 0.1626
C11 C 0.9690(5) 0.0553(6) 0.1991(10)
H7 H 1.0268 0.0256 0.2577
N2 N 0.9650(4) 0.1583(5) 0.1734(7)
H8 H 1.0179 0.1942 0.2074
C12 C 0.8820(4) 0.2103(5) 0.0963(8)
S2 S 0.89441(11) 0.34382(14) 0.0926(2)
Zn1C Zn 0.73409(5) 0.08293(6) -0.42205(10)
O4C O 0.6657(3) 0.3766(3) 0.3005(6)
loop_
_geom_bond_atom_site_label_1
_geom_bond_atom_site_label_2
_geom_bond_site_symmetry_1
_geom_bond_site_symmetry_2
Zn1 O1 1_555 1_555
O1 C1 1_555 1_555
O2 C1 1_555 1_555
C1 C2 1_555 1_555
C2 C3 1_555 1_555
C3 H1 1_555 1_555
C4 C3 1_555 1_555
H2 C4 1_555 1_555
C5 C4 1_555 1_555
H3 C5 1_555 1_555
N1 C5 1_555 1_555
H4 N1 1_555 1_555
C6 C2 1_555 1_555
S1 Zn1 1_555 1_555
O3 Zn1 1_555 1_555
O4 C7 1_555 1_555
C7 O3 1_555 1_555
C8 C7 1_555 1_555
C9 C8 1_555 1_555
H5 C9 1_555 1_555
C10 C9 1_555 1_555
H6 C10 1_555 1_555
C11 C10 1_555 1_555
H7 C11 1_555 1_555
N2 C11 1_555 1_555
H8 N2 1_555 1_555
C12 C8 1_555 1_555
S2 Zn1 1_555 1_555
Zn1C O4 1_555 1_555
O4C Zn1 1_555 1_555
N1 C6 1_555 1_555
C6 S1 1_555 1_555
N2 C12 1_555 1_555
C12 S2 1_555 1_555

#END
