
#######################################################################
#
#                 Cambridge Crystallographic Data Centre
#                                CCDC 
#
#######################################################################
#
# If this CIF has been generated from an entry in the Cambridge 
# Structural Database, then it will include bibliographic, chemical, 
# crystal, experimental, refinement or atomic coordinate data resulting 
# from the CCDC's data processing and validation procedures.
#
#######################################################################

data_GAKHAD01
_symmetry_cell_setting           monoclinic
_symmetry_space_group_name_H-M   'P 21/c'
_symmetry_Int_Tables_number      14
_space_group_name_Hall           '-P 2ybc'
loop_
_symmetry_equiv_pos_site_id
_symmetry_equiv_pos_as_xyz
1 x,y,z
2 -x,1/2+y,1/2-z
3 -x,-y,-z
4 x,1/2-y,1/2+z
_cell_length_a                   13.376(2)
_cell_length_b                   12.8429(14)
_cell_length_c                   7.4856(10)
_cell_angle_alpha                90
_cell_angle_beta                 96.190(10)
_cell_angle_gamma                90
_cell_volume                     1278.43
loop_
_atom_site_label
_atom_site_type_symbol
_atom_site_fract_x
_atom_site_fract_y
_atom_site_fract_z
Zn1 Zn 0.73423(3) 0.08336(3) 0.57662(6)
C1 C 0.6151(2) -0.1277(3) 0.4214(5)
C2 C 0.6912(2) -0.1906(2) 0.5127(5)
C3 C 0.6767(2) -0.2971(3) 0.5146(5)
H1 H 0.7273 -0.3386 0.5721
C4 C 0.5905(3) -0.3450(3) 0.4350(5)
H2 H 0.5833 -0.4170 0.4365
C5 C 0.5167(2) -0.2826(3) 0.3547(5)
H3 H 0.4571 -0.3116 0.3012
C6 C 0.7890(2) -0.1512(3) 0.6123(5)
C7 C 0.8822(2) 0.2897(3) 0.5960(4)
C8 C 0.8015(2) 0.3534(2) 0.5253(4)
C9 C 0.8075(2) 0.4600(3) 0.5505(5)
H4 H 0.7538 0.5012 0.5038
C10 C 0.8905(3) 0.5076(3) 0.6425(6)
H5 H 0.8923 0.5789 0.6639
C11 C 0.9696(3) 0.4448(3) 0.7003(5)
H6 H 1.0279 0.4740 0.7586
C12 C 0.7085(2) 0.3128(2) 0.4175(4)
O1 O 0.79815(19) -0.05639(19) 0.6540(4)
O2 O 0.85352(18) -0.2175(2) 0.6538(4)
O3 O 0.67538(18) 0.22473(18) 0.4423(4)
O4 O 0.66522(17) 0.37601(18) 0.3021(3)
S1 S 0.61483(7) 0.00275(7) 0.37318(13)
S2 S 0.89447(6) 0.15721(7) 0.59359(14)
N1 N 0.53020(19) -0.1793(2) 0.3529(4)
H7 H 0.4811 -0.1422 0.3043
N2 N 0.96451(19) 0.3424(2) 0.6746(4)
H8 H 1.0171 0.3064 0.7101
Zn1C Zn 0.73423(3) 0.41664(3) 0.07662(6)
O4C O 0.66522(17) 0.12399(18) 0.8021(3)
loop_
_geom_bond_atom_site_label_1
_geom_bond_atom_site_label_2
_geom_bond_site_symmetry_1
_geom_bond_site_symmetry_2
Zn1 O1 1_555 1_555
C1 C2 1_555 1_555
C2 C3 1_555 1_555
C3 H1 1_555 1_555
C4 C3 1_555 1_555
H2 C4 1_555 1_555
C5 C4 1_555 1_555
H3 C5 1_555 1_555
C6 C2 1_555 1_555
C7 C8 1_555 1_555
C8 C9 1_555 1_555
C9 H4 1_555 1_555
C10 C9 1_555 1_555
H5 C10 1_555 1_555
C11 C10 1_555 1_555
H6 C11 1_555 1_555
C12 C8 1_555 1_555
O1 C6 1_555 1_555
O2 C6 1_555 1_555
O3 Zn1 1_555 1_555
O4 C12 1_555 1_555
S1 Zn1 1_555 1_555
S2 Zn1 1_555 1_555
N1 C1 1_555 1_555
H7 N1 1_555 1_555
N2 C7 1_555 1_555
H8 N2 1_555 1_555
Zn1C O4 1_555 1_555
O4C Zn1 1_555 1_555
C1 S1 1_555 1_555
C5 N1 1_555 1_555
C7 S2 1_555 1_555
C11 N2 1_555 1_555
C12 O3 1_555 1_555

#END
