
#######################################################################
#
#                 Cambridge Crystallographic Data Centre
#                                CCDC 
#
#######################################################################
#
# If this CIF has been generated from an entry in the Cambridge 
# Structural Database, then it will include bibliographic, chemical, 
# crystal, experimental, refinement or atomic coordinate data resulting 
# from the CCDC's data processing and validation procedures.
#
#######################################################################

data_GAKKIM
_symmetry_cell_setting           triclinic
_symmetry_space_group_name_H-M   'P -1'
_symmetry_Int_Tables_number      2
_space_group_name_Hall           '-P 1'
loop_
_symmetry_equiv_pos_site_id
_symmetry_equiv_pos_as_xyz
1 x,y,z
2 -x,-y,-z
_cell_length_a                   8.448(2)
_cell_length_b                   9.630(2)
_cell_length_c                   11.655(2)
_cell_angle_alpha                65.42(1)
_cell_angle_beta                 71.59(2)
_cell_angle_gamma                73.52(1)
_cell_volume                     805.283
loop_
_atom_site_label
_atom_site_type_symbol
_atom_site_fract_x
_atom_site_fract_y
_atom_site_fract_z
Cu1 Cu 1.0216(1) 0.3859(1) -0.3433(1)
Cu2 Cu 1.0000 0.5000 0.0000
Br1 Br 0.8369(1) 0.4055(1) -0.1507(1)
Br2 Br 1.2123(1) 0.1629(1) -0.2661(1)
Br3 Br 1.0057(2) 0.6584(1) -0.4723(1)
O1 O 1.1434(7) 0.2968(6) 0.0449(6)
O2 O 0.8227(6) 0.4196(6) 0.1491(5)
S1 S 1.0632(3) 0.1488(3) 0.1133(2)
S2 S 0.6327(3) 0.4716(3) 0.1512(2)
C1 C 0.5567(11) 0.2935(11) 0.2116(10)
C2 C 0.5323(16) 0.2290(14) 0.3539(12)
C3 C 0.5553(16) 0.3329(18) 0.4033(10)
C4 C 0.5443(11) 0.4952(12) 0.3046(10)
C5 C 1.2385(13) 0.0028(10) 0.0848(10)
C6 C 1.3275(21) -0.0438(21) 0.1848(18)
C7 C 1.2467(20) 0.0052(17) 0.2887(14)
C8 C 1.0702(15) 0.0862(11) 0.2775(9)
H1 H 0.6382 0.2215 0.1754
H2 H 0.4510 0.3118 0.1887
H3 H 0.6126 0.1348 0.3778
H4 H 0.4193 0.2070 0.3919
H5 H 0.4683 0.3324 0.4799
H6 H 0.6643 0.2996 0.4244
H7 H 0.4287 0.5479 0.3102
H8 H 0.6093 0.5528 0.3172
H9 H 1.3132 0.0464 0.0030
H10 H 1.1990 -0.0808 0.0840
H11 H 1.4384 -0.0168 0.1474
H12 H 1.3376 -0.1547 0.2217
H13 H 1.2455 -0.0789 0.3705
H14 H 1.3095 0.0782 0.2821
H15 H 0.9932 0.0151 0.3309
H16 H 1.0401 0.1736 0.3074
Br1A Br 1.1631(1) 0.5945(1) 0.1507(1)
O1A O 0.8566(7) 0.7032(6) -0.0449(6)
S1A S 0.9368(3) 0.8512(3) -0.1133(2)
C5A C 0.7615(13) 0.9972(10) -0.0848(10)
C6A C 0.6725(21) 1.0438(21) -0.1848(18)
C7A C 0.7533(20) 0.9948(17) -0.2887(14)
C8A C 0.9298(15) 0.9138(11) -0.2775(9)
H9A H 0.6868 0.9536 -0.0030
H10A H 0.8010 1.0808 -0.0840
H11A H 0.5616 1.0168 -0.1474
H12A H 0.6624 1.1547 -0.2217
H13A H 0.7545 1.0789 -0.3705
H14A H 0.6905 0.9218 -0.2821
H15A H 1.0068 0.9849 -0.3309
H16A H 0.9599 0.8264 -0.3074
O2A O 1.1773(6) 0.5804(6) -0.1491(5)
S2A S 1.3673(3) 0.5284(3) -0.1512(2)
C1A C 1.4433(11) 0.7065(11) -0.2116(10)
C2A C 1.4677(16) 0.7710(14) -0.3539(12)
C3A C 1.4447(16) 0.6671(18) -0.4033(10)
C4A C 1.4557(11) 0.5048(12) -0.3046(10)
H1A H 1.3618 0.7785 -0.1754
H2A H 1.5490 0.6882 -0.1887
H3A H 1.3874 0.8652 -0.3778
H4A H 1.5807 0.7930 -0.3919
H5A H 1.5317 0.6676 -0.4799
H6A H 1.3357 0.7004 -0.4244
H7A H 1.5713 0.4521 -0.3102
H8A H 1.3907 0.4472 -0.3172
Cu1A Cu 0.9784(1) 0.6141(1) 0.3433(1)
Br3A Br 0.9943(2) 0.3416(1) -0.5277(1)
Br2A Br 0.7877(1) 0.8371(1) 0.2661(1)
Cu1A_2 Cu 0.9784(1) 0.6141(1) -0.6567(1)
Br3_2 Br 1.0057(2) 0.6584(1) 0.5277(1)
Br3A_2 Br 0.9943(2) 0.3416(1) 0.4723(1)
loop_
_geom_bond_atom_site_label_1
_geom_bond_atom_site_label_2
_geom_bond_site_symmetry_1
_geom_bond_site_symmetry_2
Cu1 Br1 1_555 1_555
Cu2 Br1 1_555 1_555
Br2 Cu1 1_555 1_555
Br3 Cu1 1_555 1_555
O1 Cu2 1_555 1_555
O2 Cu2 1_555 1_555
S1 O1 1_555 1_555
S2 O2 1_555 1_555
C1 S2 1_555 1_555
C2 C1 1_555 1_555
C3 C2 1_555 1_555
C4 S2 1_555 1_555
C5 S1 1_555 1_555
C6 C5 1_555 1_555
C7 C6 1_555 1_555
C8 S1 1_555 1_555
H1 C1 1_555 1_555
H2 C1 1_555 1_555
H3 C2 1_555 1_555
H4 C2 1_555 1_555
H5 C3 1_555 1_555
H6 C3 1_555 1_555
H7 C4 1_555 1_555
H8 C4 1_555 1_555
H9 C5 1_555 1_555
H10 C5 1_555 1_555
H11 C6 1_555 1_555
H12 C6 1_555 1_555
H13 C7 1_555 1_555
H14 C7 1_555 1_555
H15 C8 1_555 1_555
H16 C8 1_555 1_555
Br1A Cu2 1_555 1_555
O1A Cu2 1_555 1_555
S1A O1A 1_555 1_555
C5A S1A 1_555 1_555
C6A C5A 1_555 1_555
C7A C6A 1_555 1_555
C8A S1A 1_555 1_555
H9A C5A 1_555 1_555
H10A C5A 1_555 1_555
H11A C6A 1_555 1_555
H12A C6A 1_555 1_555
H13A C7A 1_555 1_555
H14A C7A 1_555 1_555
H15A C8A 1_555 1_555
H16A C8A 1_555 1_555
O2A Cu2 1_555 1_555
S2A O2A 1_555 1_555
C1A S2A 1_555 1_555
C2A C1A 1_555 1_555
C3A C2A 1_555 1_555
C4A S2A 1_555 1_555
H1A C1A 1_555 1_555
H2A C1A 1_555 1_555
H3A C2A 1_555 1_555
H4A C2A 1_555 1_555
H5A C3A 1_555 1_555
H6A C3A 1_555 1_555
H7A C4A 1_555 1_555
H8A C4A 1_555 1_555
Cu1A Br1A 1_555 1_555
Br3A Cu1 1_555 1_555
Br2A Cu1A 1_555 1_555
Cu1A_2 Br3 1_555 1_555
Br3_2 Cu1A 1_555 1_555
Br3A_2 Cu1A 1_555 1_555
C3 C4 1_555 1_555
C7 C8 1_555 1_555
C7A C8A 1_555 1_555
C3A C4A 1_555 1_555
Br3A Cu1A_2 1_555 1_555

#END
