
#######################################################################
#
#                 Cambridge Crystallographic Data Centre
#                                CCDC 
#
#######################################################################
#
# If this CIF has been generated from an entry in the Cambridge 
# Structural Database, then it will include bibliographic, chemical, 
# crystal, experimental, refinement or atomic coordinate data resulting 
# from the CCDC's data processing and validation procedures.
#
#######################################################################

data_GAKKEI
_symmetry_cell_setting           triclinic
_symmetry_space_group_name_H-M   'P -1'
_symmetry_Int_Tables_number      2
_space_group_name_Hall           '-P 1'
loop_
_symmetry_equiv_pos_site_id
_symmetry_equiv_pos_as_xyz
1 x,y,z
2 -x,-y,-z
_cell_length_a                   8.250(4)
_cell_length_b                   9.330(5)
_cell_length_c                   11.131(6)
_cell_angle_alpha                67.59(4)
_cell_angle_beta                 73.29(6)
_cell_angle_gamma                74.67(6)
_cell_volume                     746.951
loop_
_atom_site_label
_atom_site_type_symbol
_atom_site_fract_x
_atom_site_fract_y
_atom_site_fract_z
Cu1 Cu 1.0229(1) 0.3928(1) -0.3443(1)
Cu2 Cu 1.0000 0.5000 0.0000
Cl1 Cl 0.8448(1) 0.4100(1) -0.1570(1)
Cl2 Cl 1.2085(1) 0.1828(1) -0.2704(1)
Cl3 Cl 0.9796(2) 0.6538(1) -0.4655(1)
O1 O 1.1415(2) 0.2917(2) 0.0488(2)
O2 O 0.8174(2) 0.4222(2) 0.1517(2)
S1 S 1.0559(1) 0.1447(1) 0.1101(1)
S2 S 0.6249(1) 0.4739(1) 0.1492(1)
C1 C 0.5510(4) 0.2913(4) 0.1966(3)
C2 C 0.5313(6) 0.2160(5) 0.3465(4)
C3 C 0.5613(5) 0.3216(5) 0.4050(3)
C4 C 0.5333(4) 0.4895(4) 0.3113(3)
C5 C 1.2303(5) -0.0069(4) 0.0795(4)
C6 C 1.3379(7) -0.0438(7) 0.1737(6)
C7 C 1.2343(7) -0.0221(7) 0.2964(5)
C8 C 1.0605(5) 0.0756(4) 0.2824(3)
H1 H 0.6333 0.2228 0.1530
H2 H 0.4423 0.3109 0.1727
H3 H 0.6130 0.1198 0.3657
H4 H 0.4169 0.1935 0.3848
H5 H 0.4825 0.3135 0.4888
H6 H 0.6771 0.2925 0.4183
H7 H 0.4129 0.5328 0.3198
H8 H 0.5907 0.5542 0.3288
H9 H 1.2592 0.0293 -0.0097
H10 H 1.1872 -0.0987 0.0921
H11 H 1.4214 0.0247 0.1367
H12 H 1.3958 -0.1512 0.1911
H13 H 1.2195 -0.1237 0.3609
H14 H 1.2937 0.0287 0.3269
H15 H 0.9728 0.0130 0.3330
H16 H 1.0427 0.1631 0.3129
Cl1A Cl 1.1552(1) 0.5900(1) 0.1570(1)
O1A O 0.8585(2) 0.7083(2) -0.0488(2)
S1A S 0.9441(1) 0.8553(1) -0.1101(1)
C5A C 0.7697(5) 1.0069(4) -0.0795(4)
C6A C 0.6621(7) 1.0438(7) -0.1737(6)
C7A C 0.7657(7) 1.0221(7) -0.2964(5)
C8A C 0.9395(5) 0.9244(4) -0.2824(3)
H9A H 0.7408 0.9707 0.0097
H10A H 0.8128 1.0987 -0.0921
H11A H 0.5786 0.9753 -0.1367
H12A H 0.6042 1.1512 -0.1911
H13A H 0.7805 1.1237 -0.3609
H14A H 0.7063 0.9713 -0.3269
H15A H 1.0272 0.9870 -0.3330
H16A H 0.9573 0.8369 -0.3129
O2A O 1.1826(2) 0.5778(2) -0.1517(2)
S2A S 1.3751(1) 0.5261(1) -0.1492(1)
C1A C 1.4490(4) 0.7087(4) -0.1966(3)
C2A C 1.4687(6) 0.7840(5) -0.3465(4)
C3A C 1.4387(5) 0.6784(5) -0.4050(3)
C4A C 1.4667(4) 0.5105(4) -0.3113(3)
H1A H 1.3667 0.7772 -0.1530
H2A H 1.5577 0.6891 -0.1727
H3A H 1.3870 0.8802 -0.3657
H4A H 1.5831 0.8065 -0.3848
H5A H 1.5175 0.6865 -0.4888
H6A H 1.3229 0.7075 -0.4183
H7A H 1.5871 0.4672 -0.3198
H8A H 1.4093 0.4458 -0.3288
Cu1A Cu 0.9771(1) 0.6072(1) 0.3443(1)
Cl3A Cl 1.0204(2) 0.3462(1) -0.5345(1)
Cl2A Cl 0.7915(1) 0.8172(1) 0.2704(1)
Cu1A_2 Cu 0.9771(1) 0.6072(1) -0.6557(1)
Cl3_2 Cl 0.9796(2) 0.6538(1) 0.5345(1)
Cl3A_2 Cl 1.0204(2) 0.3462(1) 0.4655(1)
loop_
_geom_bond_atom_site_label_1
_geom_bond_atom_site_label_2
_geom_bond_site_symmetry_1
_geom_bond_site_symmetry_2
Cu1 Cl1 1_555 1_555
Cu2 Cl1 1_555 1_555
Cl2 Cu1 1_555 1_555
Cl3 Cu1 1_555 1_555
O1 Cu2 1_555 1_555
O2 Cu2 1_555 1_555
S1 O1 1_555 1_555
S2 O2 1_555 1_555
C1 S2 1_555 1_555
C2 C1 1_555 1_555
C3 C2 1_555 1_555
C4 S2 1_555 1_555
C5 S1 1_555 1_555
C6 C5 1_555 1_555
C7 C6 1_555 1_555
C8 S1 1_555 1_555
H1 C1 1_555 1_555
H2 C1 1_555 1_555
H3 C2 1_555 1_555
H4 C2 1_555 1_555
H5 C3 1_555 1_555
H6 C3 1_555 1_555
H7 C4 1_555 1_555
H8 C4 1_555 1_555
H9 C5 1_555 1_555
H10 C5 1_555 1_555
H11 C6 1_555 1_555
H12 C6 1_555 1_555
H13 C7 1_555 1_555
H14 C7 1_555 1_555
H15 C8 1_555 1_555
H16 C8 1_555 1_555
Cl1A Cu2 1_555 1_555
O1A Cu2 1_555 1_555
S1A O1A 1_555 1_555
C5A S1A 1_555 1_555
C6A C5A 1_555 1_555
C7A C6A 1_555 1_555
C8A S1A 1_555 1_555
H9A C5A 1_555 1_555
H10A C5A 1_555 1_555
H11A C6A 1_555 1_555
H12A C6A 1_555 1_555
H13A C7A 1_555 1_555
H14A C7A 1_555 1_555
H15A C8A 1_555 1_555
H16A C8A 1_555 1_555
O2A Cu2 1_555 1_555
S2A O2A 1_555 1_555
C1A S2A 1_555 1_555
C2A C1A 1_555 1_555
C3A C2A 1_555 1_555
C4A S2A 1_555 1_555
H1A C1A 1_555 1_555
H2A C1A 1_555 1_555
H3A C2A 1_555 1_555
H4A C2A 1_555 1_555
H5A C3A 1_555 1_555
H6A C3A 1_555 1_555
H7A C4A 1_555 1_555
H8A C4A 1_555 1_555
Cu1A Cl1A 1_555 1_555
Cl3A Cu1 1_555 1_555
Cl2A Cu1A 1_555 1_555
Cu1A_2 Cl3 1_555 1_555
Cl3_2 Cu1A 1_555 1_555
Cl3A_2 Cu1A 1_555 1_555
C3 C4 1_555 1_555
C7 C8 1_555 1_555
C7A C8A 1_555 1_555
C3A C4A 1_555 1_555
Cl3A Cu1A_2 1_555 1_555

#END
