
#######################################################################
#
#                 Cambridge Crystallographic Data Centre
#                                CCDC 
#
#######################################################################
#
# If this CIF has been generated from an entry in the Cambridge 
# Structural Database, then it will include bibliographic, chemical, 
# crystal, experimental, refinement or atomic coordinate data resulting 
# from the CCDC's data processing and validation procedures.
#
#######################################################################

data_GAKLAG
_symmetry_cell_setting           monoclinic
_symmetry_space_group_name_H-M   'C 2/c'
_symmetry_Int_Tables_number      15
_space_group_name_Hall           '-C 2yn'
loop_
_symmetry_equiv_pos_site_id
_symmetry_equiv_pos_as_xyz
1 x,y,z
2 1/2+x,1/2+y,z
3 x,-y,1/2+z
4 1/2+x,1/2-y,1/2+z
5 -x,-y,-z
6 1/2-x,1/2-y,-z
7 -x,y,1/2-z
8 1/2-x,1/2+y,1/2-z
_cell_length_a                   7.990(7)
_cell_length_b                   14.675(13)
_cell_length_c                   5.707(5)
_cell_angle_alpha                90
_cell_angle_beta                 104.271(13)
_cell_angle_gamma                90
_cell_volume                     648.514
loop_
_atom_site_label
_atom_site_type_symbol
_atom_site_fract_x
_atom_site_fract_y
_atom_site_fract_z
Na1 Na 1.0000 1.08024(9) 0.2500
O1 O 0.8658(2) 0.93648(11) 0.0833(3)
O2 O 0.9061(2) 0.83005(12) 0.3965(3)
C1 C 0.7006(3) 0.91314(18) 0.1182(5)
H1 H 0.6175 0.9014 -0.0389
H2 H 0.6552 0.9629 0.2021
C2 C 0.7296(3) 0.82712(19) 0.2728(5)
H3 H 0.6553 0.8271 0.3884
H4 H 0.7040 0.7720 0.1703
B1 B 1.0000 0.8817(3) 0.2500
O1F O 1.1342(2) 0.93648(11) 0.4167(3)
C1F C 1.2994(3) 0.91314(18) 0.3818(5)
H1F H 1.3825 0.9014 0.5389
H2F H 1.3448 0.9629 0.2979
C2F C 1.2704(3) 0.82712(19) 0.2272(5)
O2F O 1.0939(2) 0.83005(12) 0.1035(3)
H3F H 1.3447 0.8271 0.1116
H4F H 1.2960 0.7720 0.3297
O1B O 0.8658(2) 1.06352(11) 0.5833(3)
O1D O 1.1342(2) 1.06352(11) -0.0833(3)
O2B O 0.9061(2) 1.16995(12) -0.1035(3)
O2D O 1.0939(2) 1.16995(12) 0.6035(3)
Na1B Na 1.0000 0.91976(9) -0.2500
Na1B_2 Na 1.0000 0.91976(9) 0.7500
loop_
_geom_bond_atom_site_label_1
_geom_bond_atom_site_label_2
_geom_bond_site_symmetry_1
_geom_bond_site_symmetry_2
Na1 O1 1_555 1_555
O1 C1 1_555 1_555
O2 C2 1_555 1_555
C1 H1 1_555 1_555
H2 C1 1_555 1_555
C2 C1 1_555 1_555
H3 C2 1_555 1_555
H4 C2 1_555 1_555
B1 O1 1_555 1_555
O1F Na1 1_555 1_555
C1F O1F 1_555 1_555
H1F C1F 1_555 1_555
H2F C1F 1_555 1_555
C2F C1F 1_555 1_555
O2F B1 1_555 1_555
H3F C2F 1_555 1_555
H4F C2F 1_555 1_555
O1B Na1 1_555 1_555
O1D Na1 1_555 1_555
O2B Na1 1_555 1_555
O2D Na1 1_555 1_555
Na1B O1 1_555 1_555
Na1B_2 O2 1_555 1_555
O2 B1 1_555 1_555
B1 O1F 1_555 1_555
O1F Na1B_2 1_555 1_555
C2F O2F 1_555 1_555
O2F Na1B 1_555 1_555
O1B Na1B_2 1_555 1_555
O1D Na1B 1_555 1_555

#END
