
#######################################################################
#
#                 Cambridge Crystallographic Data Centre
#                                CCDC 
#
#######################################################################
#
# If this CIF has been generated from an entry in the Cambridge 
# Structural Database, then it will include bibliographic, chemical, 
# crystal, experimental, refinement or atomic coordinate data resulting 
# from the CCDC's data processing and validation procedures.
#
#######################################################################

data_GAKNOX
_symmetry_cell_setting           triclinic
_symmetry_space_group_name_H-M   'P -1'
_symmetry_Int_Tables_number      2
_space_group_name_Hall           '-P 1'
loop_
_symmetry_equiv_pos_site_id
_symmetry_equiv_pos_as_xyz
1 x,y,z
2 -x,-y,-z
_cell_length_a                   10.2940(16)
_cell_length_b                   10.7355(17)
_cell_length_c                   10.9828(17)
_cell_angle_alpha                81.663(3)
_cell_angle_beta                 77.172(3)
_cell_angle_gamma                64.806(3)
_cell_volume                     1069.1
loop_
_atom_site_label
_atom_site_type_symbol
_atom_site_fract_x
_atom_site_fract_y
_atom_site_fract_z
C1 C 1.1048(4) 0.4392(4) 0.8007(4)
H1 H 1.1852 0.4539 0.7549
C2 C 1.1065(4) 0.3555(4) 0.9040(4)
H2 H 1.1863 0.3029 0.9427
C3 C 0.8888(4) 0.4510(4) 0.8597(3)
H3 H 0.7898 0.4750 0.8643
C4 C 0.9188(5) 0.2856(4) 1.0478(3)
H4 H 0.8134 0.3308 1.0704
H5 H 0.9599 0.2875 1.1185
C5 C 0.9612(4) 0.1372(3) 1.0227(3)
C6 C 1.0202(4) 0.0893(3) 0.9036(3)
H6 H 1.0336 0.1504 0.8379
C7 C 0.9399(4) 0.0469(4) 1.1213(3)
C8 C 0.8777(5) 0.0969(4) 1.2518(3)
H7 H 0.9523 0.1081 1.2840
H8 H 0.7976 0.1868 1.2475
Mn1 Mn 0.88697(5) 0.66251(5) 0.62054(5)
C9 C 0.9013(4) -0.0999(4) 1.4123(3)
H9 H 0.9979 -0.1234 1.4177
C10 C 0.6911(5) -0.0981(5) 1.4407(4)
H10 H 0.6121 -0.1215 1.4706
C11 C 0.6890(5) 0.0077(4) 1.3578(4)
H11 H 0.6108 0.0693 1.3208
C12 C 0.6949(4) 0.8278(4) 0.7972(3)
C13 C 0.5920(4) 0.9176(4) 0.9021(3)
C14 C 0.6427(4) 0.9855(4) 0.9653(4)
H12 H 0.7386 0.9767 0.9425
C15 C 0.4503(4) 0.9331(4) 0.9369(4)
H13 H 0.4153 0.8884 0.8944
C16 C 0.7994(4) 0.4556(4) 0.4927(3)
C17 C 0.6437(4) 0.4771(4) 0.4984(3)
C18 C 0.6122(4) 0.3818(4) 0.4544(4)
H14 H 0.6880 0.3010 0.4240
C19 C 0.5296(4) 0.5966(4) 0.5455(4)
H15 H 0.5490 0.6616 0.5769
N1 N 0.9676(3) 0.5000(3) 0.7725(3)
N2 N 0.9681(3) 0.3628(3) 0.9410(3)
N3 N 0.8255(3) 0.0064(3) 1.3390(3)
N4 N 0.8246(3) -0.1664(3) 1.4750(3)
O1 O 0.8967(3) 0.3506(3) 0.4389(3)
O2 O 0.8214(3) 0.5413(3) 0.5382(3)
O3 O 0.6529(3) 0.7581(3) 0.7456(2)
O4 O 0.8202(3) 0.8259(3) 0.7634(3)
C1A C 0.8952(4) -0.4392(4) 1.1993(4)
H1A H 0.8148 -0.4539 1.2451
C2A C 0.8935(4) -0.3555(4) 1.0960(4)
H2A H 0.8137 -0.3029 1.0573
C3A C 1.1112(4) -0.4510(4) 1.1403(3)
H3A H 1.2102 -0.4750 1.1357
C4A C 1.0812(5) -0.2856(4) 0.9522(3)
H4A H 1.1866 -0.3308 0.9296
H5A H 1.0401 -0.2875 0.8815
C5A C 1.0388(4) -0.1372(3) 0.9773(3)
C6A C 0.9798(4) -0.0893(3) 1.0964(3)
H6A H 0.9664 -0.1504 1.1621
C7A C 1.0601(4) -0.0469(4) 0.8787(3)
C8A C 1.1223(5) -0.0969(4) 0.7482(3)
H7A H 1.0477 -0.1081 0.7160
H8A H 1.2024 -0.1868 0.7525
Mn1A Mn 1.11303(5) -0.66251(5) 1.37946(5)
Mn1_2 Mn 0.88697(5) -0.33749(5) 1.62054(5)
Mn1A_2 Mn 1.11303(5) 0.33749(5) 0.37946(5)
Mn1A_3 Mn 0.11303(5) 1.33749(5) 1.37946(5)
Mn1_3 Mn -0.11303(5) 0.66251(5) 0.62054(5)
Mn1A_4 Mn 0.11303(5) 0.33749(5) 0.37946(5)
C9A C 1.0987(4) 0.0999(4) 0.5877(3)
H9A H 1.0021 0.1234 0.5823
C10A C 1.3089(5) 0.0981(5) 0.5593(4)
H10A H 1.3879 0.1215 0.5294
C11A C 1.3110(5) -0.0077(4) 0.6422(4)
H11A H 1.3892 -0.0693 0.6792
C12A C 0.3051(4) 1.1722(4) 1.2028(3)
C13A C 0.4080(4) 1.0824(4) 1.0979(3)
C14A C 0.3573(4) 1.0145(4) 1.0347(4)
H12A H 0.2614 1.0233 1.0575
C15A C 0.5497(4) 1.0669(4) 1.0631(4)
H13A H 0.5847 1.1116 1.1056
C16A C 0.2006(4) 0.5444(4) 0.5073(3)
C17A C 0.3563(4) 0.5229(4) 0.5016(3)
C18A C 0.3878(4) 0.6182(4) 0.5456(4)
H14A H 0.3120 0.6990 0.5760
C19A C 0.4704(4) 0.4034(4) 0.4545(4)
H15A H 0.4510 0.3384 0.4231
N1A N 1.0324(3) -0.5000(3) 1.2275(3)
N2A N 1.0319(3) -0.3628(3) 1.0590(3)
N3A N 1.1745(3) -0.0064(3) 0.6610(3)
N4A N 1.1754(3) 0.1664(3) 0.5250(3)
N4_2 N 0.8246(3) 0.8336(3) 0.4750(3)
N4A_2 N 1.1754(3) -0.8336(3) 1.5250(3)
O1A O 0.1033(3) 0.6494(3) 0.5611(3)
O1A_2 O 1.1033(3) 0.6494(3) 0.5611(3)
O1_2 O 0.8967(3) -0.6494(3) 1.4389(3)
O2A O 0.1786(3) 0.4587(3) 0.4618(3)
O2A_2 O 1.1786(3) -0.5413(3) 1.4618(3)
O3A O 0.3471(3) 1.2419(3) 1.2544(2)
O3A_2 O 1.3471(3) -0.7581(3) 1.2544(2)
O4A O 0.1798(3) 1.1741(3) 1.2366(3)
O4A_2 O 1.1798(3) -0.8259(3) 1.2366(3)
loop_
_geom_bond_atom_site_label_1
_geom_bond_atom_site_label_2
_geom_bond_site_symmetry_1
_geom_bond_site_symmetry_2
C1 H1 1_555 1_555
C2 C1 1_555 1_555
H2 C2 1_555 1_555
C3 H3 1_555 1_555
C4 H4 1_555 1_555
H5 C4 1_555 1_555
C5 C4 1_555 1_555
C6 C5 1_555 1_555
H6 C6 1_555 1_555
C7 C5 1_555 1_555
C8 C7 1_555 1_555
H7 C8 1_555 1_555
H8 C8 1_555 1_555
Mn1 N1 1_555 1_555
C9 H9 1_555 1_555
C10 H10 1_555 1_555
C11 C10 1_555 1_555
H11 C11 1_555 1_555
C12 C13 1_555 1_555
C13 C14 1_555 1_555
C14 H12 1_555 1_555
C15 C13 1_555 1_555
H13 C15 1_555 1_555
C16 C17 1_555 1_555
C17 C18 1_555 1_555
C18 H14 1_555 1_555
C19 C17 1_555 1_555
H15 C19 1_555 1_555
N1 C1 1_555 1_555
N2 C2 1_555 1_555
N3 C8 1_555 1_555
N4 C9 1_555 1_555
O1 C16 1_555 1_555
O2 Mn1 1_555 1_555
O3 Mn1 1_555 1_555
O4 Mn1 1_555 1_555
C1A H1A 1_555 1_555
C2A C1A 1_555 1_555
H2A C2A 1_555 1_555
C3A H3A 1_555 1_555
C4A H4A 1_555 1_555
H5A C4A 1_555 1_555
C5A C4A 1_555 1_555
C6A C7 1_555 1_555
H6A C6A 1_555 1_555
C7A C6 1_555 1_555
C8A C7A 1_555 1_555
H7A C8A 1_555 1_555
H8A C8A 1_555 1_555
Mn1A N1A 1_555 1_555
Mn1_2 N4 1_555 1_555
Mn1A_2 O1 1_555 1_555
Mn1A_3 O3A 1_555 1_555
Mn1_3 O1A 1_555 1_555
Mn1A_4 O2A 1_555 1_555
C9A H9A 1_555 1_555
C10A H10A 1_555 1_555
C11A C10A 1_555 1_555
H11A C11A 1_555 1_555
C12A C13A 1_555 1_555
C13A C14A 1_555 1_555
C14A C15 1_555 1_555
H12A C14A 1_555 1_555
C15A C14 1_555 1_555
H13A C15A 1_555 1_555
C16A C17A 1_555 1_555
C17A C18A 1_555 1_555
C18A C19 1_555 1_555
H14A C18A 1_555 1_555
C19A C18 1_555 1_555
H15A C19A 1_555 1_555
N1A C1A 1_555 1_555
N2A C2A 1_555 1_555
N3A C8A 1_555 1_555
N4A Mn1A_2 1_555 1_555
N4_2 Mn1 1_555 1_555
N4A_2 Mn1A 1_555 1_555
O1A C16A 1_555 1_555
O1A_2 Mn1 1_555 1_555
O1_2 Mn1A 1_555 1_555
O2A C16A 1_555 1_555
O2A_2 Mn1A 1_555 1_555
O3A C12A 1_555 1_555
O3A_2 Mn1A 1_555 1_555
O4A Mn1A_3 1_555 1_555
O4A_2 Mn1A 1_555 1_555
C3 N1 1_555 1_555
C3 N2 1_555 1_555
C4 N2 1_555 1_555
C9 N3 1_555 1_555
C10 N4 1_555 1_555
C11 N3 1_555 1_555
C12 O3 1_555 1_555
C12 O4 1_555 1_555
C16 O2 1_555 1_555
C3A N1A 1_555 1_555
C3A N2A 1_555 1_555
C4A N2A 1_555 1_555
C5A C6A 1_555 1_555
C5A C7A 1_555 1_555
C9A N3A 1_555 1_555
C9A N4A 1_555 1_555
C10A N4A 1_555 1_555
C11A N3A 1_555 1_555
C12A O4A 1_555 1_555
C13A C15A 1_555 1_555
C17A C19A 1_555 1_555

#END
