
#######################################################################
#
#                 Cambridge Crystallographic Data Centre
#                                CCDC 
#
#######################################################################
#
# If this CIF has been generated from an entry in the Cambridge 
# Structural Database, then it will include bibliographic, chemical, 
# crystal, experimental, refinement or atomic coordinate data resulting 
# from the CCDC's data processing and validation procedures.
#
#######################################################################

data_GAKNIR
_symmetry_cell_setting           triclinic
_symmetry_space_group_name_H-M   'P -1'
_symmetry_Int_Tables_number      2
_space_group_name_Hall           '-P 1'
loop_
_symmetry_equiv_pos_site_id
_symmetry_equiv_pos_as_xyz
1 x,y,z
2 -x,-y,-z
_cell_length_a                   8.1528(16)
_cell_length_b                   9.159(2)
_cell_length_c                   11.196(3)
_cell_angle_alpha                86.776(7)
_cell_angle_beta                 87.540(7)
_cell_angle_gamma                64.481(7)
_cell_volume                     753.106
loop_
_atom_site_label
_atom_site_type_symbol
_atom_site_fract_x
_atom_site_fract_y
_atom_site_fract_z
Mn1 Mn 1.0000 1.0000 0.0000
O1 O 0.7065(2) 1.0732(2) -0.00865(14)
H1 H 0.637(3) 1.079(3) 0.055(2)
H2 H 0.643(3) 1.081(3) -0.064(2)
N1 N 1.0585(2) 0.7404(2) 0.05180(14)
N2 N 0.9570(2) 0.0496(2) 0.19860(14)
N3 N 0.8835(2) 0.19484(19) 0.35978(14)
N4 N 1.0410(2) 0.54047(19) 0.16301(14)
C1 C 0.9849(3) 0.4778(2) 0.37790(17)
C2 C 0.9003(3) 0.4177(2) 0.46585(17)
C3 C 1.0822(3) 0.5595(2) 0.41432(17)
H5 H 1.1391 0.6016 0.3551
C4 C 0.9696(3) 0.4530(3) 0.24628(17)
H6 H 1.0351 0.3359 0.2318
H7 H 0.8399 0.4870 0.2289
C5 C 0.9577(3) 0.6985(2) 0.12839(18)
H8 H 0.8402 0.7708 0.1560
C6 C 1.2131(3) 0.6008(3) 0.03516(19)
H9 H 1.3121 0.5922 -0.0166
C7 C 1.2050(3) 0.4764(3) 0.10304(18)
H10 H 1.2947 0.3674 0.1079
C8 C 0.7850(3) 0.3317(2) 0.43657(17)
H11 H 0.7469 0.2920 0.5119
H12 H 0.6740 0.4097 0.3957
C9 C 0.8301(3) 0.1747(2) 0.25164(17)
H13 H 0.7155 0.2423 0.2181
C10 C 1.0981(3) -0.0140(2) 0.27853(17)
H14 H 1.2093 -0.1068 0.2658
C11 C 1.0554(3) 0.0745(2) 0.37704(17)
H15 H 1.1292 0.0571 0.4446
Mn1_2 Mn 1.0000 0.0000 0.0000
Mn1_3 Mn 1.0000 1.0000 1.0000
Mn1_4 Mn 1.0000 0.0000 1.0000
O1A O 1.2935(2) 0.9268(2) 0.00865(14)
H1A H 1.363(3) 0.921(3) -0.055(2)
H2A H 1.357(3) 0.919(3) 0.064(2)
N1A N 0.9415(2) 0.2596(2) 0.94820(14)
N1A_2 N 0.9415(2) 1.2596(2) -0.05180(14)
N2A N 1.0430(2) 0.9504(2) 0.80140(14)
N2_2 N 0.9570(2) 1.0496(2) 0.19860(14)
N2A_2 N 1.0430(2) 0.9504(2) -0.19860(14)
N3A N 1.1165(2) 0.80516(19) 0.64022(14)
N4A N 0.9590(2) 0.45953(19) 0.83699(14)
C1A C 1.0151(3) 0.5222(2) 0.62210(17)
C2A C 1.0997(3) 0.5823(2) 0.53415(17)
C3A C 0.9178(3) 0.4405(2) 0.58568(17)
H5A H 0.8609 0.3984 0.6449
C4A C 1.0304(3) 0.5470(3) 0.75372(17)
H6A H 0.9649 0.6641 0.7682
H7A H 1.1601 0.5130 0.7711
C5A C 1.0423(3) 0.3015(2) 0.87161(18)
H8A H 1.1598 0.2292 0.8440
C6A C 0.7869(3) 0.3992(3) 0.96484(19)
H9A H 0.6879 0.4078 1.0166
C7A C 0.7950(3) 0.5236(3) 0.89696(18)
H10A H 0.7053 0.6326 0.8921
C8A C 1.2150(3) 0.6683(2) 0.56343(17)
H11A H 1.2531 0.7080 0.4881
H12A H 1.3260 0.5903 0.6043
C9A C 1.1699(3) 0.8253(2) 0.74836(17)
H13A H 1.2845 0.7577 0.7819
C10A C 0.9019(3) 1.0140(2) 0.72147(17)
H14A H 0.7907 1.1068 0.7342
C11A C 0.9446(3) 0.9255(2) 0.62296(17)
H15A H 0.8708 0.9429 0.5554
O2 O 0.5104(3) 0.4147(2) 0.75190(19)
H3 H 0.579(4) 0.415(4) 0.801(3)
H4 H 0.497(4) 0.321(4) 0.773(3)
O3 O 0.5096(2) 0.87916(18) 0.81630(12)
O4 O 0.47212(19) 1.13564(18) 0.80529(12)
C12 C 0.4939(3) 1.0040(3) 0.62418(17)
C13 C 0.5399(3) 0.8592(3) 0.56930(18)
H16 H 0.5668 0.7625 0.6167
C14 C 0.4533(3) 1.1451(3) 0.55404(18)
H17 H 0.4207 1.2449 0.5911
C15 C 0.4916(3) 1.0059(3) 0.75901(18)
O3A O 0.4904(2) 1.12084(18) 0.18370(12)
O4A O 0.52788(19) 0.86436(18) 0.19471(12)
C12A C 0.5061(3) 0.9960(3) 0.37582(17)
C13A C 0.4601(3) 1.1408(3) 0.43070(18)
H16A H 0.4332 1.2375 0.3833
C14A C 0.5467(3) 0.8549(3) 0.44596(18)
H17A H 0.5793 0.7551 0.4089
C15A C 0.5084(3) 0.9941(3) 0.24099(18)
loop_
_geom_bond_atom_site_label_1
_geom_bond_atom_site_label_2
_geom_bond_site_symmetry_1
_geom_bond_site_symmetry_2
Mn1 O1 1_555 1_555
O1 H1 1_555 1_555
H2 O1 1_555 1_555
O2 H3 1_555 1_555
H4 O2 1_555 1_555
O3 C15 1_555 1_555
O4 C15 1_555 1_555
N1 Mn1 1_555 1_555
N2 C9 1_555 1_555
N3 C8 1_555 1_555
N4 C4 1_555 1_555
C1 C2 1_555 1_555
C2 C8 1_555 1_555
C3 C1 1_555 1_555
H5 C3 1_555 1_555
C4 C1 1_555 1_555
H6 C4 1_555 1_555
H7 C4 1_555 1_555
C5 N1 1_555 1_555
H8 C5 1_555 1_555
C6 N1 1_555 1_555
H9 C6 1_555 1_555
C7 N4 1_555 1_555
H10 C7 1_555 1_555
C8 H11 1_555 1_555
H12 C8 1_555 1_555
C9 N3 1_555 1_555
H13 C9 1_555 1_555
C10 N2 1_555 1_555
H14 C10 1_555 1_555
C11 N3 1_555 1_555
H15 C11 1_555 1_555
C12 C13 1_555 1_555
C13 H16 1_555 1_555
C14 C12 1_555 1_555
H17 C14 1_555 1_555
C15 C12 1_555 1_555
Mn1_2 N2 1_555 1_555
Mn1_3 N2A 1_555 1_555
Mn1_4 N1A 1_555 1_555
O1A Mn1 1_555 1_555
H1A O1A 1_555 1_555
H2A O1A 1_555 1_555
O3A C15A 1_555 1_555
O4A C15A 1_555 1_555
N1A C5A 1_555 1_555
N1A_2 Mn1 1_555 1_555
N2A C9A 1_555 1_555
N2_2 Mn1 1_555 1_555
N2A_2 Mn1 1_555 1_555
N3A C8A 1_555 1_555
N4A C4A 1_555 1_555
C1A C2A 1_555 1_555
C2A C3 1_555 1_555
C3A C2 1_555 1_555
H5A C3A 1_555 1_555
C4A C1A 1_555 1_555
H6A C4A 1_555 1_555
H7A C4A 1_555 1_555
C5A N4A 1_555 1_555
H8A C5A 1_555 1_555
C6A N1A 1_555 1_555
H9A C6A 1_555 1_555
C7A N4A 1_555 1_555
H10A C7A 1_555 1_555
C8A C2A 1_555 1_555
H11A C8A 1_555 1_555
H12A C8A 1_555 1_555
C9A N3A 1_555 1_555
H13A C9A 1_555 1_555
C10A N2A 1_555 1_555
H14A C10A 1_555 1_555
C11A N3A 1_555 1_555
H15A C11A 1_555 1_555
C12A C13A 1_555 1_555
C13A C14 1_555 1_555
H16A C13A 1_555 1_555
C14A C13 1_555 1_555
H17A C14A 1_555 1_555
C15A C12A 1_555 1_555
N4 C5 1_555 1_555
C6 C7 1_555 1_555
C10 C11 1_555 1_555
C1A C3A 1_555 1_555
C6A C7A 1_555 1_555
C10A C11A 1_555 1_555
C12A C14A 1_555 1_555

#END
