
#######################################################################
#
#                 Cambridge Crystallographic Data Centre
#                                CCDC 
#
#######################################################################
#
# If this CIF has been generated from an entry in the Cambridge 
# Structural Database, then it will include bibliographic, chemical, 
# crystal, experimental, refinement or atomic coordinate data resulting 
# from the CCDC's data processing and validation procedures.
#
#######################################################################

data_GAKNUD
_symmetry_cell_setting           triclinic
_symmetry_space_group_name_H-M   'P -1'
_symmetry_Int_Tables_number      2
_space_group_name_Hall           '-P 1'
loop_
_symmetry_equiv_pos_site_id
_symmetry_equiv_pos_as_xyz
1 x,y,z
2 -x,-y,-z
_cell_length_a                   8.9824(9)
_cell_length_b                   9.6177(10)
_cell_length_c                   10.7945(11)
_cell_angle_alpha                90.185(2)
_cell_angle_beta                 96.399(2)
_cell_angle_gamma                90.912(2)
_cell_volume                     926.598
loop_
_atom_site_label
_atom_site_type_symbol
_atom_site_fract_x
_atom_site_fract_y
_atom_site_fract_z
Mn1 Mn 0.0000 0.5000 0.0000
N1 N 0.06823(15) 0.55663(14) 0.19671(12)
C1 C -0.02613(19) 0.53716(18) 0.28700(16)
H1 H -0.1074 0.4754 0.2813
O1 O -0.23140(13) 0.56330(14) 0.02248(12)
H2 H -0.2882 0.5363 -0.0378
N2 N -0.02376(16) 1.08211(14) 0.15771(12)
N3 N 0.14110(15) 0.69252(13) 0.35634(12)
C2 C 0.08131(18) 0.92121(16) 0.58754(15)
H3 H 0.1367 0.8667 0.6463
C3 C 0.10539(18) 0.90912(16) 0.46333(14)
N4 N -0.05310(16) 1.28322(14) 0.06388(13)
C4 C 0.02228(18) 0.98848(16) 0.37274(14)
C5 C -0.1863(2) 1.21055(19) 0.05014(16)
H4 H -0.2751 1.2424 0.0079
C6 C 0.21815(19) 0.80618(17) 0.42837(15)
H5 H 0.2886 0.8519 0.3794
H6 H 0.2737 0.7698 0.5031
C7 C 0.16711(18) 0.65080(16) 0.24252(14)
H7 H 0.2455 0.6843 0.2009
C8 C 0.0439(2) 0.97224(17) 0.23627(15)
H8 H 0.1504 0.9708 0.2284
H9 H 0.0009 0.8835 0.2064
C9 C 0.04146(19) 1.20222(17) 0.12931(15)
H10 H 0.1415 1.2253 0.1531
C10 C 0.01673(19) 0.62102(18) 0.38519(16)
H11 H -0.0291 0.6288 0.4580
C11 C -0.1700(2) 1.08631(19) 0.10668(16)
H12 H -0.2432 1.0174 0.1103
H17 H -0.2656 0.6350 0.0597
Mn1_2 Mn 0.0000 1.5000 0.0000
Mn1_3 Mn 0.0000 1.5000 1.0000
Mn1_4 Mn 0.0000 0.5000 1.0000
N1A N -0.06823(15) 1.44337(14) 0.80329(12)
N1A_2 N -0.06823(15) 0.44337(14) -0.19671(12)
C1A C 0.02613(19) 1.46284(18) 0.71300(16)
H1A H 0.1074 1.5246 0.7187
O1A O 0.23140(13) 0.43670(14) -0.02248(12)
H2A H 0.2882 0.4637 0.0378
N2A N 0.02376(16) 0.91789(14) 0.84229(12)
N3A N -0.14110(15) 1.30748(13) 0.64366(12)
C2A C -0.08131(18) 1.07879(16) 0.41246(15)
H3A H -0.1367 1.1333 0.3537
C3A C -0.10539(18) 1.09088(16) 0.53667(14)
N4A N 0.05310(16) 0.71678(14) 0.93612(13)
N4_2 N -0.05310(16) 0.28322(14) 0.06388(13)
N4A_2 N 0.05310(16) 0.71678(14) -0.06388(13)
C4A C -0.02228(18) 1.01152(16) 0.62726(14)
C5A C 0.1863(2) 0.78945(19) 0.94986(16)
H4A H 0.2751 0.7576 0.9921
C6A C -0.21815(19) 1.19382(17) 0.57163(15)
H5A H -0.2886 1.1481 0.6206
H6A H -0.2737 1.2302 0.4969
C7A C -0.16711(18) 1.34920(16) 0.75748(14)
H7A H -0.2455 1.3157 0.7991
C8A C -0.0439(2) 1.02776(17) 0.76373(15)
H8A H -0.1504 1.0292 0.7716
H9A H -0.0009 1.1165 0.7936
C9A C -0.04146(19) 0.79778(17) 0.87069(15)
H10A H -0.1415 0.7747 0.8469
C10A C -0.01673(19) 1.37898(18) 0.61481(16)
H11A H 0.0291 1.3712 0.5420
C11A C 0.1700(2) 0.91369(19) 0.89332(16)
H12A H 0.2432 0.9826 0.8897
H17A H 0.2656 0.3650 -0.0597
C12 C 0.55311(19) 0.81077(17) 0.19965(16)
C13 C 0.59360(17) 0.74342(17) 0.32472(16)
C14 C 0.6261(2) 0.8320(2) 0.42578(17)
H13 H 0.6160 0.9273 0.4142
C15 C 0.65557(19) 0.5520(2) 0.46244(17)
H14 H 0.6658 0.4568 0.4751
C16 C 0.54850(18) 0.49849(18) 0.24532(16)
C17 C 0.60554(17) 0.60004(18) 0.34415(16)
C18 C 0.6903(2) 0.6416(2) 0.56128(18)
H15 H 0.7251 0.6074 0.6395
C19 C 0.6732(2) 0.7825(2) 0.54341(18)
H16 H 0.6932 0.8439 0.6102
O3 O 0.63594(15) 0.78744(13) 0.11671(12)
O4 O 0.60028(15) 0.37171(13) 0.26394(13)
O5 O 0.45761(14) 0.52907(13) 0.15882(12)
O6 O 0.44639(15) 0.89299(14) 0.19270(13)
H20 H 0.5497 0.3008 0.2053
O2 O 0.44163(17) 0.17683(14) 0.13404(13)
H18 H 0.4519 0.0833 0.1549
H19 H 0.4216 0.1819 0.0466
loop_
_geom_bond_atom_site_label_1
_geom_bond_atom_site_label_2
_geom_bond_site_symmetry_1
_geom_bond_site_symmetry_2
Mn1 N1 1_555 1_555
N1 C1 1_555 1_555
C1 H1 1_555 1_555
O1 Mn1 1_555 1_555
H2 O1 1_555 1_555
N2 C8 1_555 1_555
N3 C6 1_555 1_555
C2 H3 1_555 1_555
C3 C2 1_555 1_555
N4 C5 1_555 1_555
C4 C3 1_555 1_555
C5 H4 1_555 1_555
C6 C3 1_555 1_555
H5 C6 1_555 1_555
H6 C6 1_555 1_555
C7 N1 1_555 1_555
H7 C7 1_555 1_555
C8 C4 1_555 1_555
H8 C8 1_555 1_555
H9 C8 1_555 1_555
C9 N2 1_555 1_555
H10 C9 1_555 1_555
C10 C1 1_555 1_555
H11 C10 1_555 1_555
C11 N2 1_555 1_555
H12 C11 1_555 1_555
C12 C13 1_555 1_555
C13 C14 1_555 1_555
C14 H13 1_555 1_555
C15 H14 1_555 1_555
C16 C17 1_555 1_555
C17 C13 1_555 1_555
C18 C15 1_555 1_555
H15 C18 1_555 1_555
C19 C14 1_555 1_555
H16 C19 1_555 1_555
O2 H18 1_555 1_555
O3 C12 1_555 1_555
O4 C16 1_555 1_555
O5 C16 1_555 1_555
O6 C12 1_555 1_555
H17 O1 1_555 1_555
H19 O2 1_555 1_555
H20 O4 1_555 1_555
Mn1_2 N4 1_555 1_555
Mn1_3 N1A 1_555 1_555
Mn1_4 N4A 1_555 1_555
N1A C1A 1_555 1_555
N1A_2 Mn1 1_555 1_555
C1A H1A 1_555 1_555
O1A Mn1 1_555 1_555
H2A O1A 1_555 1_555
N2A C8A 1_555 1_555
N3A C6A 1_555 1_555
C2A C4 1_555 1_555
H3A C2A 1_555 1_555
C3A C2A 1_555 1_555
N4A C5A 1_555 1_555
N4_2 Mn1 1_555 1_555
N4A_2 Mn1 1_555 1_555
C4A C2 1_555 1_555
C5A H4A 1_555 1_555
C6A C3A 1_555 1_555
H5A C6A 1_555 1_555
H6A C6A 1_555 1_555
C7A N1A 1_555 1_555
H7A C7A 1_555 1_555
C8A C4A 1_555 1_555
H8A C8A 1_555 1_555
H9A C8A 1_555 1_555
C9A N2A 1_555 1_555
H10A C9A 1_555 1_555
C10A C1A 1_555 1_555
H11A C10A 1_555 1_555
C11A N2A 1_555 1_555
H12A C11A 1_555 1_555
H17A O1A 1_555 1_555
N3 C7 1_555 1_555
N3 C10 1_555 1_555
N4 C9 1_555 1_555
C5 C11 1_555 1_555
C15 C17 1_555 1_555
C18 C19 1_555 1_555
N3A C7A 1_555 1_555
N3A C10A 1_555 1_555
C3A C4A 1_555 1_555
N4A C9A 1_555 1_555
C5A C11A 1_555 1_555

#END
