
#######################################################################
#
#                 Cambridge Crystallographic Data Centre
#                                CCDC 
#
#######################################################################
#
# If this CIF has been generated from an entry in the Cambridge 
# Structural Database, then it will include bibliographic, chemical, 
# crystal, experimental, refinement or atomic coordinate data resulting 
# from the CCDC's data processing and validation procedures.
#
#######################################################################

data_GAKPAK
_symmetry_cell_setting           orthorhombic
_symmetry_space_group_name_H-M   'P b c a'
_symmetry_Int_Tables_number      61
_space_group_name_Hall           '-P 2ac 2ab'
loop_
_symmetry_equiv_pos_site_id
_symmetry_equiv_pos_as_xyz
1 x,y,z
2 1/2+x,y,1/2-z
3 1/2-x,1/2+y,z
4 x,1/2-y,1/2+z
5 -x,-y,-z
6 1/2-x,-y,1/2+z
7 1/2+x,1/2-y,-z
8 -x,1/2+y,1/2-z
_cell_length_a                   10.0472(4)
_cell_length_b                   11.3090(5)
_cell_length_c                   14.9321(5)
_cell_angle_alpha                90
_cell_angle_beta                 90
_cell_angle_gamma                90
_cell_volume                     1696.64
loop_
_atom_site_label
_atom_site_type_symbol
_atom_site_fract_x
_atom_site_fract_y
_atom_site_fract_z
Co1 Co 0.14327(3) 0.34301(2) 0.612022(19)
O1 O 0.33163(15) 0.26714(14) 0.58471(10)
O2 O 0.51179(15) 0.18595(15) 0.64565(10)
O3 O 0.18320(15) 0.22823(14) 0.72076(10)
H1 H 0.1337 0.2130 0.7626
O4 O 0.25331(14) -0.00534(13) 0.65798(10)
H2 H 0.1666 -0.0035 0.6618
O5 O 0.48856(15) -0.08290(14) 0.70184(11)
O6 O 0.49597(15) 0.01870(14) 0.82963(10)
O7 O 0.01426(19) 0.21180(15) 0.56158(12)
H3 H 0.0001 0.1535 0.5941
H4 H -0.0407 0.2180 0.5175
O8 O 0.1351(2) 0.41923(19) 0.49124(13)
H5 H 0.1825 0.4708 0.4655
H6 H 0.0965 0.3958 0.4421
C1 C 0.3916(2) 0.21470(17) 0.64735(14)
C2 C 0.3123(2) 0.18003(18) 0.73065(13)
H7 H 0.3549 0.2129 0.7842
C3 C 0.3049(2) 0.04408(17) 0.73822(13)
H8 H 0.2449 0.0238 0.7876
C4 C 0.44127(19) -0.01056(17) 0.75708(14)
O4B O 0.24669(14) 0.49466(13) 0.65798(10)
O5B O 0.01144(15) 0.41710(14) 0.70184(11)
Co1B Co 0.35673(3) -0.15699(2) 0.612022(19)
H2B H 0.3334 0.4965 0.6618
O9 O 0.2695(3) 0.6095(2) 0.43282(17)
H9 H 0.3415 0.6408 0.4396
H10 H 0.2308 0.6509 0.4817
loop_
_geom_bond_atom_site_label_1
_geom_bond_atom_site_label_2
_geom_bond_site_symmetry_1
_geom_bond_site_symmetry_2
Co1 O1 1_555 1_555
O1 C1 1_555 1_555
O2 C1 1_555 1_555
O3 Co1 1_555 1_555
H1 O3 1_555 1_555
O4 H2 1_555 1_555
O5 C4 1_555 1_555
O6 C4 1_555 1_555
O7 Co1 1_555 1_555
H3 O7 1_555 1_555
H4 O7 1_555 1_555
O8 Co1 1_555 1_555
H5 O8 1_555 1_555
H6 O8 1_555 1_555
C1 C2 1_555 1_555
C2 O3 1_555 1_555
H7 C2 1_555 1_555
C3 O4 1_555 1_555
H8 C3 1_555 1_555
C4 C3 1_555 1_555
O9 H9 1_555 1_555
H10 O9 1_555 1_555
O4B Co1 1_555 1_555
O5B Co1 1_555 1_555
Co1B O4 1_555 1_555
H2B O4B 1_555 1_555
O5 Co1B 1_555 1_555
C2 C3 1_555 1_555

#END
