
#######################################################################
#
#                 Cambridge Crystallographic Data Centre
#                                CCDC 
#
#######################################################################
#
# If this CIF has been generated from an entry in the Cambridge 
# Structural Database, then it will include bibliographic, chemical, 
# crystal, experimental, refinement or atomic coordinate data resulting 
# from the CCDC's data processing and validation procedures.
#
#######################################################################

data_GAKSOB
_symmetry_cell_setting           triclinic
_symmetry_space_group_name_H-M   'P -1'
_symmetry_Int_Tables_number      2
_space_group_name_Hall           '-P 1'
loop_
_symmetry_equiv_pos_site_id
_symmetry_equiv_pos_as_xyz
1 x,y,z
2 -x,-y,-z
_cell_length_a                   5.2082(10)
_cell_length_b                   7.3705(15)
_cell_length_c                   7.8068(16)
_cell_angle_alpha                96.35(3)
_cell_angle_beta                 106.91(3)
_cell_angle_gamma                92.79(3)
_cell_volume                     283.932
loop_
_atom_site_label
_atom_site_type_symbol
_atom_site_fract_x
_atom_site_fract_y
_atom_site_fract_z
Ag1 Ag 0.29373(6) 0.24243(5) 0.58092(4)
S1 S 0.65683(18) 0.19537(13) 0.31105(12)
O1 O 0.6470(6) 0.3288(4) 0.4626(4)
O2 O 0.9326(6) 0.1749(4) 0.3077(4)
O3 O 0.5058(6) 0.0213(4) 0.3022(4)
C1 C 0.2500(8) 0.1976(5) 0.0041(5)
C2 C 0.4846(7) 0.2903(5) 0.1133(4)
C3 C 0.5809(7) 0.4616(5) 0.0760(4)
C4 C 0.8318(7) 0.5592(5) 0.1837(5)
C5 C 0.0895(7) 0.2742(5) -0.1452(5)
H1 H 0.1957 0.0835 0.0282
H2 H 0.9414 0.5087 0.2802
H3 H -0.0708 0.2108 -0.2177
C4A C 0.1682(7) 0.4408(5) -0.1837(5)
C3A C 0.4191(7) 0.5384(5) -0.0760(4)
C2A C 0.5154(7) 0.7097(5) -0.1133(4)
S1A S 0.34317(18) 0.80463(13) -0.31105(12)
O1A O 0.3530(6) 0.6712(4) -0.4626(4)
O2A O 0.0674(6) 0.8251(4) -0.3077(4)
O3A O 0.4942(6) 0.9787(4) -0.3022(4)
C1A C 0.7500(8) 0.8024(5) -0.0041(5)
C5A C 0.9105(7) 0.7258(5) 0.1452(5)
H3A H 1.0708 0.7892 0.2177
H1A H 0.8043 0.9165 -0.0282
H2A H 0.0586 0.4913 -0.2802
Ag1A Ag 0.70627(6) 0.75757(5) -0.58092(4)
O2_2 O -0.0674(6) 0.1749(4) 0.3077(4)
O3A_2 O 0.4942(6) -0.0213(4) 0.6978(4)
C4A_2 C 0.1682(7) 0.4408(5) 0.8163(5)
C5_2 C 0.0895(7) 0.2742(5) 0.8548(5)
Ag1_2 Ag 1.29373(6) 0.24243(5) 0.58092(4)
Ag1A_2 Ag 0.70627(6) -0.24243(5) 0.41908(4)
Ag1A_3 Ag 0.70627(6) 0.75757(5) 0.41908(4)
Ag1_3 Ag 0.29373(6) 0.24243(5) -0.41908(4)
Ag1A_4 Ag -0.29373(6) 0.75757(5) -0.58092(4)
Ag1_4 Ag 0.29373(6) 1.24243(5) -0.41908(4)
O2A_2 O 1.0674(6) 0.8251(4) -0.3077(4)
O3_2 O 0.5058(6) 1.0213(4) -0.6978(4)
C4_2 C 0.8318(7) 0.5592(5) -0.8163(5)
C5A_2 C 0.9105(7) 0.7258(5) -0.8548(5)
H2A_2 H 0.0586 0.4913 0.7198
H3_2 H -0.0708 0.2108 0.7823
H2_2 H 0.9414 0.5087 -0.7198
H3A_2 H 1.0708 0.7892 -0.7823
loop_
_geom_bond_atom_site_label_1
_geom_bond_atom_site_label_2
_geom_bond_site_symmetry_1
_geom_bond_site_symmetry_2
Ag1 O1 1_555 1_555
S1 O1 1_555 1_555
O2 S1 1_555 1_555
O3 S1 1_555 1_555
C1 C2 1_555 1_555
C2 S1 1_555 1_555
C3 C2 1_555 1_555
C4 C3 1_555 1_555
C5 C1 1_555 1_555
H1 C1 1_555 1_555
H2 C4 1_555 1_555
H3 C5 1_555 1_555
C4A C5 1_555 1_555
C3A C3 1_555 1_555
C2A C3A 1_555 1_555
S1A C2A 1_555 1_555
O1A S1A 1_555 1_555
O2A S1A 1_555 1_555
O3A S1A 1_555 1_555
C1A C2A 1_555 1_555
C5A C4 1_555 1_555
H3A C5A 1_555 1_555
H1A C1A 1_555 1_555
H2A C4A 1_555 1_555
Ag1A O1A 1_555 1_555
O2_2 Ag1 1_555 1_555
O3A_2 Ag1 1_555 1_555
C4A_2 Ag1 1_555 1_555
C5_2 Ag1 1_555 1_555
Ag1_2 O2 1_555 1_555
Ag1A_2 O3 1_555 1_555
Ag1A_3 C4 1_555 1_555
Ag1_3 C5 1_555 1_555
Ag1A_4 O2A 1_555 1_555
Ag1_4 O3A 1_555 1_555
O2A_2 Ag1A 1_555 1_555
O3_2 Ag1A 1_555 1_555
C4_2 Ag1A 1_555 1_555
C5A_2 Ag1A 1_555 1_555
H2A_2 C4A_2 1_555 1_555
H3_2 C5_2 1_555 1_555
H2_2 C4_2 1_555 1_555
H3A_2 C5A_2 1_555 1_555
C4A C3A 1_555 1_555
C4A Ag1_3 1_555 1_555
C1A C5A 1_555 1_555
C5A Ag1A_3 1_555 1_555
C4A_2 C5_2 1_555 1_555
C4_2 C5A_2 1_555 1_555

#END
