
#######################################################################
#
#                 Cambridge Crystallographic Data Centre
#                                CCDC 
#
#######################################################################
#
# If this CIF has been generated from an entry in the Cambridge 
# Structural Database, then it will include bibliographic, chemical, 
# crystal, experimental, refinement or atomic coordinate data resulting 
# from the CCDC's data processing and validation procedures.
#
#######################################################################

data_GAKSUH
_symmetry_cell_setting           triclinic
_symmetry_space_group_name_H-M   'P -1'
_symmetry_Int_Tables_number      2
_space_group_name_Hall           '-P 1'
loop_
_symmetry_equiv_pos_site_id
_symmetry_equiv_pos_as_xyz
1 x,y,z
2 -x,-y,-z
_cell_length_a                   9.3142(19)
_cell_length_b                   10.315(2)
_cell_length_c                   12.169(2)
_cell_angle_alpha                87.87(3)
_cell_angle_beta                 84.04(3)
_cell_angle_gamma                68.68(3)
_cell_volume                     1083.25
loop_
_atom_site_label
_atom_site_type_symbol
_atom_site_fract_x
_atom_site_fract_y
_atom_site_fract_z
Mn1 Mn 0.61289(2) 0.33086(2) 0.444083(17)
N1 N 0.82625(15) 0.29404(15) 0.53092(12)
N2 N 0.82389(16) 0.19612(15) 0.33029(11)
O1 O 0.46484(14) 0.35065(13) 0.31732(10)
O2 O 0.42236(19) 0.15119(15) 0.32103(12)
O3 O 0.28052(16) 0.45515(15) 0.15279(11)
O4 O 0.56467(12) 0.55628(11) 0.41487(8)
O5 O 0.54889(19) 0.74673(14) 0.31933(11)
O6 O 0.76772(14) 0.61715(12) 0.16751(9)
O7 O 0.59294(14) 0.12852(13) 0.49158(10)
C1 C 0.8236(2) 0.3491(2) 0.62901(16)
C2 C 0.9551(2) 0.3220(2) 0.68355(18)
C3 C 1.0945(2) 0.2346(3) 0.6346(2)
C4 C 1.1002(2) 0.1775(2) 0.53325(19)
C5 C 0.96390(18) 0.20849(17) 0.48245(14)
C6 C 0.96109(18) 0.14972(17) 0.37376(14)
C7 C 1.0920(2) 0.0510(2) 0.31974(19)
C8 C 1.0806(3) -0.0007(2) 0.2198(2)
C9 C 0.9409(3) 0.0455(2) 0.17523(17)
C10 C 0.8158(2) 0.1437(2) 0.23322(15)
C11 C 0.4045(2) 0.27009(19) 0.28464(14)
C12 C 0.2966(2) 0.3212(2) 0.19308(17)
C13 C 0.3940(2) 0.47122(19) 0.07723(14)
C14 C 0.3788(2) 0.6064(2) 0.05119(16)
C15 C 0.5170(2) 0.3634(2) 0.02586(16)
C16 C 0.60170(18) 0.62004(16) 0.33130(12)
C17 C 0.71894(19) 0.52999(17) 0.24278(12)
C18 C 0.88372(17) 0.55316(16) 0.08559(11)
C19 C 0.93652(18) 0.64205(16) 0.01894(12)
C20 C 0.94709(18) 0.41116(16) 0.06661(12)
H1 H 0.541(2) 0.145(3) 0.5540(10)
H2 H 0.537(2) 0.122(3) 0.4434(13)
H3 H 0.7292 0.4083 0.6623
H4 H 0.9489 0.3623 0.7518
H5 H 1.1842 0.2141 0.6697
H6 H 1.1941 0.1187 0.4988
H7 H 1.1858 0.0204 0.3508
H8 H 1.1670 -0.0667 0.1825
H9 H 0.9310 0.0115 0.1078
H10 H 0.7211 0.1749 0.2033
H11 H 0.3353 0.2558 0.1321
H12 H 0.1951 0.3214 0.2209
H13 H 0.2968 0.6791 0.0860
H14 H 0.5297 0.2715 0.0428
H15 H 0.8072 0.4651 0.2764
H16 H 0.6723 0.4770 0.2042
H17 H 0.8939 0.7375 0.0316
H18 H 0.9119 0.3514 0.1110
C15A C 0.4830(2) 0.6366(2) -0.02586(16)
C13A C 0.6060(2) 0.52878(19) -0.07723(14)
O3A O 0.71948(16) 0.54485(15) -0.15279(11)
C12A C 0.7034(2) 0.6788(2) -0.19308(17)
C11A C 0.5955(2) 0.72991(19) -0.28464(14)
O1A O 0.53516(14) 0.64935(13) -0.31732(10)
O2A O 0.57764(19) 0.84881(15) -0.32103(12)
H11A H 0.6647 0.7442 -0.1321
H12A H 0.8049 0.6786 -0.2209
C14A C 0.6212(2) 0.3936(2) -0.05119(16)
H13A H 0.7032 0.3209 -0.0860
H14A H 0.4703 0.7285 -0.0428
C20A C 1.05291(18) 0.58884(16) -0.06661(12)
C18A C 1.11628(17) 0.44684(16) -0.08559(11)
O6A O 1.23228(14) 0.38285(12) -0.16751(9)
C17A C 1.28106(19) 0.47001(17) -0.24278(12)
C16A C 1.39830(18) 0.37996(16) -0.33130(12)
O4A O 1.43533(12) 0.44372(11) -0.41487(8)
O5A O 1.45111(19) 0.25327(14) -0.31933(11)
H15A H 1.1928 0.5349 -0.2764
H16A H 1.3277 0.5230 -0.2042
C19A C 1.06348(18) 0.35795(16) -0.01894(12)
H17A H 1.1061 0.2625 -0.0316
H18A H 1.0881 0.6486 -0.1110
Mn1A Mn 0.38711(2) 0.66914(2) -0.444083(17)
N1A N 0.17375(15) 0.70596(15) -0.53092(12)
N2A N 0.17611(16) 0.80388(15) -0.33029(11)
C1A C 0.1764(2) 0.6509(2) -0.62901(16)
C2A C 0.0449(2) 0.6780(2) -0.68355(18)
C3A C -0.0945(2) 0.7654(3) -0.6346(2)
C4A C -0.1002(2) 0.8225(2) -0.53325(19)
C5A C 0.03610(18) 0.79151(17) -0.48245(14)
C6A C 0.03891(18) 0.85028(17) -0.37376(14)
C7A C -0.0920(2) 0.9490(2) -0.31974(19)
C8A C -0.0806(3) 1.0007(2) -0.2198(2)
C9A C 0.0591(3) 0.9545(2) -0.17523(17)
C10A C 0.1842(2) 0.8563(2) -0.23322(15)
H3A H 0.2708 0.5917 -0.6623
H4A H 0.0511 0.6377 -0.7518
H5A H -0.1842 0.7859 -0.6697
H6A H -0.1941 0.8813 -0.4988
H7A H -0.1858 0.9796 -0.3508
H8A H -0.1670 1.0667 -0.1825
H9A H 0.0690 0.9885 -0.1078
H10A H 0.2789 0.8251 -0.2033
O7A O 0.40706(14) 0.87148(13) -0.49158(10)
H1A H 0.459(2) 0.855(3) -0.5540(10)
H2A H 0.463(2) 0.878(3) -0.4434(13)
O4A_2 O 0.43533(12) 0.44372(11) 0.58513(8)
Mn1A_2 Mn 0.38711(2) 0.66914(2) 0.555917(17)
Mn1_2 Mn 1.61289(2) 0.33086(2) -0.555917(17)
Mn1A_3 Mn 1.38711(2) 0.66914(2) -0.444083(17)
O4_2 O 0.56467(12) 0.55628(11) -0.58513(8)
O4A_3 O 0.43533(12) 0.44372(11) -0.41487(8)
O8 O 0.7030(3) 1.0068(3) 0.00861(19)
H19 H 0.651(4) 0.976(4) 0.061(2)
H20 H 0.651(4) 1.014(5) -0.0487(19)
O9 O 0.4921(3) 0.9463(2) 0.16291(15)
H21 H 0.476(5) 1.012(2) 0.210(2)
H22 H 0.533(5) 0.8689(19) 0.197(3)
loop_
_geom_bond_atom_site_label_1
_geom_bond_atom_site_label_2
_geom_bond_site_symmetry_1
_geom_bond_site_symmetry_2
Mn1 N1 1_555 1_555
N1 C1 1_555 1_555
N2 Mn1 1_555 1_555
O1 Mn1 1_555 1_555
O2 C11 1_555 1_555
O3 C12 1_555 1_555
O4 Mn1 1_555 1_555
O5 C16 1_555 1_555
O6 C17 1_555 1_555
O7 Mn1 1_555 1_555
C1 C2 1_555 1_555
C2 C3 1_555 1_555
C3 C4 1_555 1_555
C4 C5 1_555 1_555
C5 N1 1_555 1_555
C6 N2 1_555 1_555
C7 C6 1_555 1_555
C8 C7 1_555 1_555
C9 C8 1_555 1_555
C10 N2 1_555 1_555
C11 O1 1_555 1_555
C12 C11 1_555 1_555
C13 O3 1_555 1_555
C14 C13 1_555 1_555
C15 C13 1_555 1_555
C16 O4 1_555 1_555
C17 C16 1_555 1_555
C18 O6 1_555 1_555
C19 C18 1_555 1_555
C20 C18 1_555 1_555
H1 O7 1_555 1_555
H2 O7 1_555 1_555
H3 C1 1_555 1_555
H4 C2 1_555 1_555
H5 C3 1_555 1_555
H6 C4 1_555 1_555
H7 C7 1_555 1_555
H8 C8 1_555 1_555
H9 C9 1_555 1_555
H10 C10 1_555 1_555
H11 C12 1_555 1_555
H12 C12 1_555 1_555
H13 C14 1_555 1_555
H14 C15 1_555 1_555
H15 C17 1_555 1_555
H16 C17 1_555 1_555
H17 C19 1_555 1_555
H18 C20 1_555 1_555
O8 H19 1_555 1_555
H20 O8 1_555 1_555
O9 H21 1_555 1_555
H22 O9 1_555 1_555
C15A C14 1_555 1_555
C13A C15A 1_555 1_555
O3A C13A 1_555 1_555
C12A O3A 1_555 1_555
C11A C12A 1_555 1_555
O1A C11A 1_555 1_555
O2A C11A 1_555 1_555
H11A C12A 1_555 1_555
H12A C12A 1_555 1_555
C14A C15 1_555 1_555
H13A C14A 1_555 1_555
H14A C15A 1_555 1_555
C20A C19 1_555 1_555
C18A C20A 1_555 1_555
O6A C18A 1_555 1_555
C17A O6A 1_555 1_555
C16A C17A 1_555 1_555
O4A C16A 1_555 1_555
O5A C16A 1_555 1_555
H15A C17A 1_555 1_555
H16A C17A 1_555 1_555
C19A C20 1_555 1_555
H17A C19A 1_555 1_555
H18A C20A 1_555 1_555
Mn1A O1A 1_555 1_555
N1A Mn1A 1_555 1_555
N2A Mn1A 1_555 1_555
C1A N1A 1_555 1_555
C2A C1A 1_555 1_555
C3A C2A 1_555 1_555
C4A C3A 1_555 1_555
C5A N1A 1_555 1_555
C6A N2A 1_555 1_555
C7A C6A 1_555 1_555
C8A C7A 1_555 1_555
C9A C8A 1_555 1_555
C10A N2A 1_555 1_555
H3A C1A 1_555 1_555
H4A C2A 1_555 1_555
H5A C3A 1_555 1_555
H6A C4A 1_555 1_555
H7A C7A 1_555 1_555
H8A C8A 1_555 1_555
H9A C9A 1_555 1_555
H10A C10A 1_555 1_555
O7A Mn1A 1_555 1_555
H1A O7A 1_555 1_555
H2A O7A 1_555 1_555
O4A_2 Mn1 1_555 1_555
Mn1A_2 O4 1_555 1_555
Mn1_2 O4A 1_555 1_555
Mn1A_3 O4A 1_555 1_555
O4_2 Mn1A 1_555 1_555
O4A_3 Mn1A 1_555 1_555
C5 C6 1_555 1_555
C9 C10 1_555 1_555
C13A C14A 1_555 1_555
C18A C19A 1_555 1_555
C4A C5A 1_555 1_555
C5A C6A 1_555 1_555
C9A C10A 1_555 1_555
O4A_2 Mn1A_2 1_555 1_555

#END
