
#######################################################################
#
#                 Cambridge Crystallographic Data Centre
#                                CCDC 
#
#######################################################################
#
# If this CIF has been generated from an entry in the Cambridge 
# Structural Database, then it will include bibliographic, chemical, 
# crystal, experimental, refinement or atomic coordinate data resulting 
# from the CCDC's data processing and validation procedures.
#
#######################################################################

data_GAKSER
_symmetry_cell_setting           monoclinic
_symmetry_space_group_name_H-M   'C 2/c'
_symmetry_Int_Tables_number      15
_space_group_name_Hall           '-C 2yn'
loop_
_symmetry_equiv_pos_site_id
_symmetry_equiv_pos_as_xyz
1 x,y,z
2 1/2+x,1/2+y,z
3 x,-y,1/2+z
4 1/2+x,1/2-y,1/2+z
5 -x,-y,-z
6 1/2-x,1/2-y,-z
7 -x,y,1/2-z
8 1/2-x,1/2+y,1/2-z
_cell_length_a                   16.888(5)
_cell_length_b                   11.722(5)
_cell_length_c                   20.258(7)
_cell_angle_alpha                90
_cell_angle_beta                 112.483(5)
_cell_angle_gamma                90
_cell_volume                     3705.49
loop_
_atom_site_label
_atom_site_type_symbol
_atom_site_fract_x
_atom_site_fract_y
_atom_site_fract_z
Cd1 Cd 0.0000 0.328102(17) 0.2500
Cd2 Cd 0.2500 0.2500 0.5000
S1 S 0.39639(3) 0.25100(4) 0.42586(3)
O1 O 0.34224(10) 0.16938(13) 0.37541(9)
N1 N 0.24497(10) 0.05305(15) 0.48461(10)
C1 C 0.0000 -0.2331(2) 0.2500
N2 N 0.0000 0.1341(2) 0.2500
C2 C 0.17469(13) -0.00748(18) 0.47798(12)
H1 H 0.1226 0.0326 0.4686
C3 C 0.36340(13) 0.38939(18) 0.38914(11)
O2 O 0.48678(10) 0.24235(14) 0.44034(10)
C4 C 0.42829(14) 0.46993(19) 0.40212(13)
H2 H 0.4861 0.4484 0.4283
O3 O 0.38295(9) 0.25162(12) 0.49445(8)
C5 C 0.0000 -0.1063(2) 0.2500
C6 C 0.07185(14) 0.07367(18) 0.28599(13)
H3 H 0.1232 0.1142 0.3117
C7 C 0.24876(12) -0.18712(17) 0.49634(11)
C8 C 0.31677(13) -0.00709(18) 0.49580(12)
H4 H 0.3672 0.0335 0.5002
C9 C 0.17405(13) -0.12485(18) 0.48402(12)
H5 H 0.1228 -0.1631 0.4798
C10 C 0.04668(15) -0.29460(19) 0.31107(13)
H6 H 0.0803 -0.2559 0.3538
C11 C 0.32127(13) -0.12451(18) 0.50127(13)
H7 H 0.3735 -0.1627 0.5084
C12 C 0.07424(15) -0.04458(19) 0.28722(13)
H8 H 0.1263 -0.0833 0.3133
N3 N 0.0000 -0.4720(2) 0.2500
C13 C 0.19983(13) 0.34380(17) 0.33406(12)
C14 C 0.27777(13) 0.41981(18) 0.34950(11)
C15 C 0.26117(15) 0.53133(19) 0.32333(13)
H9 H 0.2040 0.5526 0.2949
C16 C 0.04395(15) -0.41230(19) 0.30933(12)
H10 H 0.0746 -0.4529 0.3521
C17 C 0.40980(15) 0.5813(2) 0.37745(14)
H11 H 0.4544 0.6360 0.3877
C18 C 0.32578(16) 0.6116(2) 0.33774(14)
H12 H 0.3124 0.6873 0.3204
O4 O 0.14417(9) 0.34923(13) 0.27122(8)
O5 O 0.18963(9) 0.28660(13) 0.38228(8)
O6 O 0.01040(12) 0.34649(16) 0.36865(10)
H13 H 0.040(2) 0.316(3) 0.4027(19)
H15 H -0.032(2) 0.373(3) 0.3760(18)
C7E C 0.25124(12) -0.31288(17) 0.50366(11)
C9E C 0.32595(13) -0.37515(18) 0.51598(12)
C2E C 0.32531(13) -0.49252(18) 0.52202(12)
N1E N 0.25503(10) -0.55305(15) 0.51539(10)
C8E C 0.18323(13) -0.49291(18) 0.50420(12)
H4E H 0.1328 -0.5335 0.4998
C11E C 0.17873(13) -0.37549(18) 0.49873(13)
H7E H 0.1265 -0.3373 0.4916
H1E H 0.3774 -0.5326 0.5314
H5E H 0.3772 -0.3369 0.5202
C6F C -0.07185(14) 0.07367(18) 0.21401(13)
H3F H -0.1232 0.1142 0.1883
C12F C -0.07424(15) -0.04458(19) 0.21278(13)
H8F H -0.1263 -0.0833 0.1867
C16F C -0.04395(15) -0.41230(19) 0.19067(12)
C10F C -0.04668(15) -0.29460(19) 0.18893(13)
H6F H -0.0803 -0.2559 0.1462
H10F H -0.0746 -0.4529 0.1479
S1F S -0.39639(3) 0.25100(4) 0.07414(3)
O1F O -0.34224(10) 0.16938(13) 0.12459(9)
C3F C -0.36340(13) 0.38939(18) 0.11086(11)
O2F O -0.48678(10) 0.24235(14) 0.05966(10)
C4F C -0.42829(14) 0.46993(19) 0.09788(13)
H2F H -0.4861 0.4484 0.0717
O3F O -0.38295(9) 0.25162(12) 0.00555(8)
C13F C -0.19983(13) 0.34380(17) 0.16594(12)
C14F C -0.27777(13) 0.41981(18) 0.15050(11)
C15F C -0.26117(15) 0.53133(19) 0.17667(13)
H9F H -0.2040 0.5526 0.2051
C17F C -0.40980(15) 0.5813(2) 0.12255(14)
H11F H -0.4544 0.6360 0.1123
C18F C -0.32578(16) 0.6116(2) 0.16226(14)
H12F H -0.3124 0.6873 0.1796
O4F O -0.14417(9) 0.34923(13) 0.22878(8)
O5F O -0.18963(9) 0.28660(13) 0.11772(8)
O6F O -0.01040(12) 0.34649(16) 0.13135(10)
H13F H -0.040(2) 0.316(3) 0.0973(19)
H15F H 0.032(2) 0.373(3) 0.1240(18)
N3_2 N 0.0000 0.5280(2) 0.2500
N1E_2 N 0.25503(10) 0.44695(15) 0.51539(10)
O3E O 0.11705(9) 0.24838(12) 0.50555(8)
O5E O 0.31037(9) 0.21340(13) 0.61772(8)
Cd1_2 Cd 0.0000 -0.671898(17) 0.2500
Cd2_2 Cd 0.2500 -0.7500 0.5000
Cd2C Cd -0.2500 0.2500 0.0000
O7 O 0.14492(13) 0.42967(17) 0.14342(11)
H14 H 0.161(2) 0.415(3) 0.188(2)
H16 H 0.157(3) 0.500(4) 0.142(2)
loop_
_geom_bond_atom_site_label_1
_geom_bond_atom_site_label_2
_geom_bond_site_symmetry_1
_geom_bond_site_symmetry_2
Cd1 N2 1_555 1_555
Cd2 N1 1_555 1_555
S1 O1 1_555 1_555
N1 C2 1_555 1_555
C1 C5 1_555 1_555
N2 C6 1_555 1_555
C2 H1 1_555 1_555
C3 S1 1_555 1_555
O2 S1 1_555 1_555
C4 C3 1_555 1_555
H2 C4 1_555 1_555
O3 Cd2 1_555 1_555
C5 C12 1_555 1_555
C6 H3 1_555 1_555
C7 C9 1_555 1_555
C8 N1 1_555 1_555
H4 C8 1_555 1_555
C9 C2 1_555 1_555
H5 C9 1_555 1_555
C10 C1 1_555 1_555
H6 C10 1_555 1_555
C11 C7 1_555 1_555
H7 C11 1_555 1_555
C12 C6 1_555 1_555
H8 C12 1_555 1_555
N3 C16 1_555 1_555
C13 C14 1_555 1_555
C14 C3 1_555 1_555
C15 C14 1_555 1_555
H9 C15 1_555 1_555
C16 C10 1_555 1_555
H10 C16 1_555 1_555
C17 C4 1_555 1_555
H11 C17 1_555 1_555
C18 C15 1_555 1_555
H12 C18 1_555 1_555
O4 Cd1 1_555 1_555
O5 Cd2 1_555 1_555
O6 Cd1 1_555 1_555
O7 H14 1_555 1_555
H13 O6 1_555 1_555
H15 O6 1_555 1_555
H16 O7 1_555 1_555
C7E C7 1_555 1_555
C9E C7E 1_555 1_555
C2E C9E 1_555 1_555
N1E C2E 1_555 1_555
C8E N1E 1_555 1_555
H4E C8E 1_555 1_555
C11E C7E 1_555 1_555
H7E C11E 1_555 1_555
H1E C2E 1_555 1_555
H5E C9E 1_555 1_555
C6F N2 1_555 1_555
H3F C6F 1_555 1_555
C12F C5 1_555 1_555
H8F C12F 1_555 1_555
C16F N3 1_555 1_555
C10F C1 1_555 1_555
H6F C10F 1_555 1_555
H10F C16F 1_555 1_555
S1F O1F 1_555 1_555
C3F S1F 1_555 1_555
O2F S1F 1_555 1_555
C4F C3F 1_555 1_555
H2F C4F 1_555 1_555
O3F S1F 1_555 1_555
C13F C14F 1_555 1_555
C14F C3F 1_555 1_555
C15F C14F 1_555 1_555
H9F C15F 1_555 1_555
C17F C4F 1_555 1_555
H11F C17F 1_555 1_555
C18F C15F 1_555 1_555
H12F C18F 1_555 1_555
O4F Cd1 1_555 1_555
O5F C13F 1_555 1_555
O6F Cd1 1_555 1_555
H13F O6F 1_555 1_555
H15F O6F 1_555 1_555
N3_2 Cd1 1_555 1_555
N1E_2 Cd2 1_555 1_555
O3E Cd2 1_555 1_555
O5E Cd2 1_555 1_555
Cd1_2 N3 1_555 1_555
Cd2_2 N1E 1_555 1_555
Cd2C O3F 1_555 1_555
S1 O3 1_555 1_555
C8 C11 1_555 1_555
C13 O4 1_555 1_555
C13 O5 1_555 1_555
C17 C18 1_555 1_555
C8E C11E 1_555 1_555
C6F C12F 1_555 1_555
C16F C10F 1_555 1_555
C13F O4F 1_555 1_555
C17F C18F 1_555 1_555
O5F Cd2C 1_555 1_555

#END
