
#######################################################################
#
#                 Cambridge Crystallographic Data Centre
#                                CCDC 
#
#######################################################################
#
# If this CIF has been generated from an entry in the Cambridge 
# Structural Database, then it will include bibliographic, chemical, 
# crystal, experimental, refinement or atomic coordinate data resulting 
# from the CCDC's data processing and validation procedures.
#
#######################################################################

data_GAKTIX
_symmetry_cell_setting           monoclinic
_symmetry_space_group_name_H-M   'P 21/n'
_symmetry_Int_Tables_number      14
_space_group_name_Hall           '-P 2yn'
loop_
_symmetry_equiv_pos_site_id
_symmetry_equiv_pos_as_xyz
1 x,y,z
2 1/2-x,1/2+y,1/2-z
3 -x,-y,-z
4 1/2+x,1/2-y,1/2+z
_cell_length_a                   7.4191(3)
_cell_length_b                   27.4874(13)
_cell_length_c                   11.5347(11)
_cell_angle_alpha                90
_cell_angle_beta                 91.609(6)
_cell_angle_gamma                90
_cell_volume                     2351.36
loop_
_atom_site_label
_atom_site_type_symbol
_atom_site_fract_x
_atom_site_fract_y
_atom_site_fract_z
C1 C 0.4771(7) 0.19714(17) 0.3727(4)
C2 C 0.4115(7) 0.16221(17) 0.2775(4)
H1 H 0.2843 0.1546 0.2897
C3 C 0.4261(8) 0.18912(18) 0.1620(4)
C4 C 0.5188(9) 0.1148(2) 0.2800(5)
H2 H 0.4734 0.0935 0.2199
H3 H 0.5069 0.0993 0.3540
H4 H 0.6437 0.1216 0.2676
O1 O 0.6465(4) 0.20014(11) 0.3852(3)
O2 O 0.3697(5) 0.22055(14) 0.4292(3)
O3 O 1.0034(5) 0.21306(15) 0.4298(3)
O4 O 0.5688(6) 0.19027(16) 0.1106(3)
O6 O 0.2796(5) 0.20994(12) 0.1280(3)
C5 C 0.7067(8) 0.19705(18) 0.7356(4)
H5 H 0.6914 0.2289 0.7605
C6 C 0.7049(8) 0.16077(18) 0.8172(4)
H6 H 0.6870 0.1683 0.8947
C7 C 0.7296(7) 0.11304(17) 0.7844(4)
C8 C 0.7500(8) 0.10513(18) 0.6668(4)
H7 H 0.7648 0.0735 0.6399
C9 C 0.7487(7) 0.14289(17) 0.5894(4)
H8 H 0.7619 0.1361 0.5111
C10 C 0.7385(7) 0.07263(18) 0.8688(4)
C11 C 0.7580(12) 0.0810(2) 0.9876(5)
H9 H 0.7625 0.1127 1.0157
C12 C 0.7704(13) 0.0426(2) 1.0631(5)
H10 H 0.7843 0.0497 1.1416
C13 C 0.7508(11) -0.0109(2) 0.9212(6)
H11 H 0.7506 -0.0431 0.8961
C14 C 0.7369(11) 0.0246(2) 0.8381(6)
H12 H 0.7263 0.0159 0.7603
C15 C 0.7461(7) 0.29171(18) 0.2719(4)
H13 H 0.7595 0.2595 0.2488
C16 C 0.7450(7) 0.32696(17) 0.1884(4)
H14 H 0.7574 0.3184 0.1110
C17 C 0.7252(7) 0.37552(17) 0.2188(4)
C18 C 0.7078(8) 0.38510(18) 0.3370(4)
H15 H 0.6948 0.4169 0.3627
C19 C 0.7099(8) 0.34797(17) 0.4141(4)
H16 H 0.6973 0.3555 0.4920
C20 C 0.7234(7) 0.41461(17) 0.1314(4)
C21 C 0.6681(8) 0.4063(2) 0.0168(4)
H17 H 0.6300 0.3755 -0.0062
C22 C 0.6696(9) 0.4434(2) -0.0619(5)
H18 H 0.6302 0.4367 -0.1375
C23 C 0.7758(11) 0.4958(2) 0.0720(6)
H19 H 0.8123 0.5271 0.0925
C24 C 0.7798(9) 0.4612(2) 0.1567(5)
H20 H 0.8207 0.4690 0.2313
Cu1 Cu 0.74396(9) 0.244570(18) 0.50198(5)
N1 N 0.7290(5) 0.18941(14) 0.6227(3)
N2 N 0.7642(8) -0.0033(2) 1.0331(5)
N3 N 0.7291(6) 0.30079(14) 0.3854(3)
N4 N 0.7233(8) 0.48815(19) -0.0380(5)
O6C O 0.7796(5) 0.29006(12) 0.6280(3)
Cu1C Cu 0.24396(9) 0.255430(18) 0.00198(5)
O5 O -0.0617(7) 0.1697(2) 0.2028(5)
loop_
_geom_bond_atom_site_label_1
_geom_bond_atom_site_label_2
_geom_bond_site_symmetry_1
_geom_bond_site_symmetry_2
C1 C2 1_555 1_555
C2 H1 1_555 1_555
C3 C2 1_555 1_555
C4 C2 1_555 1_555
H2 C4 1_555 1_555
H3 C4 1_555 1_555
H4 C4 1_555 1_555
O1 C1 1_555 1_555
O2 C1 1_555 1_555
O3 Cu1 1_555 1_555
O4 C3 1_555 1_555
O6 C3 1_555 1_555
C5 H5 1_555 1_555
C6 C5 1_555 1_555
H6 C6 1_555 1_555
C7 C6 1_555 1_555
C8 C7 1_555 1_555
H7 C8 1_555 1_555
C9 C8 1_555 1_555
H8 C9 1_555 1_555
C10 C7 1_555 1_555
C11 C10 1_555 1_555
H9 C11 1_555 1_555
C12 C11 1_555 1_555
H10 C12 1_555 1_555
C13 H11 1_555 1_555
C14 C10 1_555 1_555
H12 C14 1_555 1_555
C15 H13 1_555 1_555
C16 C15 1_555 1_555
H14 C16 1_555 1_555
C17 C16 1_555 1_555
C18 C17 1_555 1_555
H15 C18 1_555 1_555
C19 C18 1_555 1_555
H16 C19 1_555 1_555
C20 C17 1_555 1_555
C21 C20 1_555 1_555
H17 C21 1_555 1_555
C22 C21 1_555 1_555
H18 C22 1_555 1_555
C23 H19 1_555 1_555
C24 C20 1_555 1_555
H20 C24 1_555 1_555
Cu1 O1 1_555 1_555
N1 C5 1_555 1_555
N2 C12 1_555 1_555
N3 C15 1_555 1_555
N4 C22 1_555 1_555
O6C Cu1 1_555 1_555
Cu1C O6 1_555 1_555
C9 N1 1_555 1_555
C13 C14 1_555 1_555
C13 N2 1_555 1_555
C19 N3 1_555 1_555
C23 C24 1_555 1_555
C23 N4 1_555 1_555
Cu1 N1 1_555 1_555
Cu1 N3 1_555 1_555

#END
