
#######################################################################
#
#                 Cambridge Crystallographic Data Centre
#                                CCDC 
#
#######################################################################
#
# If this CIF has been generated from an entry in the Cambridge 
# Structural Database, then it will include bibliographic, chemical, 
# crystal, experimental, refinement or atomic coordinate data resulting 
# from the CCDC's data processing and validation procedures.
#
#######################################################################

data_GAKTAO
_symmetry_cell_setting           triclinic
_symmetry_space_group_name_H-M   'P -1'
_symmetry_Int_Tables_number      2
_space_group_name_Hall           '-P 1'
loop_
_symmetry_equiv_pos_site_id
_symmetry_equiv_pos_as_xyz
1 x,y,z
2 -x,-y,-z
_cell_length_a                   5.3754(11)
_cell_length_b                   5.9136(12)
_cell_length_c                   11.236(2)
_cell_angle_alpha                85.83(3)
_cell_angle_beta                 82.01(3)
_cell_angle_gamma                83.54(3)
_cell_volume                     350.865
loop_
_atom_site_label
_atom_site_type_symbol
_atom_site_fract_x
_atom_site_fract_y
_atom_site_fract_z
Na1 Na 0.45322(10) 0.60837(9) 0.35083(5)
O1 O 0.23780(18) 0.28698(17) 0.34521(9)
O2 O 0.21557(19) -0.05454(17) 0.27465(9)
O3 O 0.61125(19) 0.37996(17) 0.17376(8)
O4 O 0.75382(19) 0.86038(19) 0.39989(9)
O5 O 0.26331(19) 0.66757(18) 0.55011(9)
C1 C 0.2990(2) 0.1358(2) 0.27052(11)
C2 C 0.4912(3) 0.1823(2) 0.16067(12)
C3 C 0.8044(2) 0.4319(2) 0.08475(11)
C4 C 0.8590(3) 0.3289(2) -0.02459(12)
C5 C 0.9457(3) 0.6015(2) 0.10882(12)
H1 H 0.896(2) 0.888(4) 0.3620(14)
H2 H 0.772(4) 0.826(4) 0.4732(9)
H3 H 0.304(3) 0.797(2) 0.5656(18)
H4 H 0.111(2) 0.657(3) 0.5835(16)
H5 H 0.6174 0.0519 0.1507
H6 H 0.4067 0.2039 0.0892
H7 H 0.7656 0.2145 -0.0412
H8 H 0.9094 0.6695 0.1822
C5A C 1.0543(3) 0.3985(2) -0.10882(12)
C3A C 1.1956(2) 0.5681(2) -0.08475(11)
O3A O 1.38875(19) 0.62004(17) -0.17376(8)
C2A C 1.5088(3) 0.8177(2) -0.16067(12)
C1A C 1.7010(2) 0.8642(2) -0.27052(11)
O1A O 1.76220(18) 0.71302(17) -0.34521(9)
O2A O 1.78443(19) 1.05454(17) -0.27465(9)
H5A H 1.3826 0.9481 -0.1507
H6A H 1.5933 0.7961 -0.0892
C4A C 1.1410(3) 0.6711(2) 0.02459(12)
H7A H 1.2344 0.7855 0.0412
H8A H 1.0906 0.3305 -0.1822
O5A O 0.73669(19) 0.33243(18) 0.44989(9)
H3A H 0.696(3) 0.203(2) 0.4344(18)
H4A H 0.889(2) 0.343(3) 0.4165(16)
Na1A Na 1.54678(10) 0.39163(9) -0.35083(5)
O4A O 1.24618(19) 0.13962(19) -0.39989(9)
H1A H 1.104(2) 0.112(4) -0.3620(14)
H2A H 1.228(4) 0.174(4) -0.4732(9)
O2_2 O 0.21557(19) 0.94546(17) 0.27465(9)
Na1_2 Na 0.45322(10) -0.39163(9) 0.35083(5)
Na1A_2 Na 0.54678(10) 0.39163(9) 0.64917(5)
Na1A_3 Na 1.54678(10) 1.39163(9) -0.35083(5)
O2A_2 O 1.78443(19) 0.05454(17) -0.27465(9)
O5_2 O 1.26331(19) 0.66757(18) -0.44989(9)
O5A_2 O 1.73669(19) 0.33243(18) -0.55011(9)
H3_2 H 1.304(3) 0.797(2) -0.4344(18)
H4_2 H 1.111(2) 0.657(3) -0.4165(16)
H3A_2 H 1.696(3) 0.203(2) -0.5656(18)
H4A_2 H 1.889(2) 0.343(3) -0.5835(16)
loop_
_geom_bond_atom_site_label_1
_geom_bond_atom_site_label_2
_geom_bond_site_symmetry_1
_geom_bond_site_symmetry_2
Na1 O1 1_555 1_555
O1 C1 1_555 1_555
O2 C1 1_555 1_555
O3 Na1 1_555 1_555
O4 Na1 1_555 1_555
O5 Na1 1_555 1_555
C1 C2 1_555 1_555
C2 O3 1_555 1_555
C3 O3 1_555 1_555
C4 C3 1_555 1_555
C5 C3 1_555 1_555
H1 O4 1_555 1_555
H2 O4 1_555 1_555
H3 O5 1_555 1_555
H4 O5 1_555 1_555
H5 C2 1_555 1_555
H6 C2 1_555 1_555
H7 C4 1_555 1_555
H8 C5 1_555 1_555
C5A C4 1_555 1_555
C3A C5A 1_555 1_555
O3A C3A 1_555 1_555
C2A O3A 1_555 1_555
C1A C2A 1_555 1_555
O1A C1A 1_555 1_555
O2A C1A 1_555 1_555
H5A C2A 1_555 1_555
H6A C2A 1_555 1_555
C4A C5 1_555 1_555
H7A C4A 1_555 1_555
H8A C5A 1_555 1_555
O5A Na1 1_555 1_555
H3A O5A 1_555 1_555
H4A O5A 1_555 1_555
Na1A O3A 1_555 1_555
O4A Na1A 1_555 1_555
H1A O4A 1_555 1_555
H2A O4A 1_555 1_555
O2_2 Na1 1_555 1_555
Na1_2 O2 1_555 1_555
Na1A_2 O5 1_555 1_555
Na1A_3 O2A 1_555 1_555
O2A_2 Na1A 1_555 1_555
O5_2 Na1A 1_555 1_555
O5A_2 Na1A 1_555 1_555
H3_2 O5_2 1_555 1_555
H4_2 O5_2 1_555 1_555
H3A_2 O5A_2 1_555 1_555
H4A_2 O5A_2 1_555 1_555
C3A C4A 1_555 1_555
O1A Na1A 1_555 1_555
O5A Na1A_2 1_555 1_555

#END
