
#######################################################################
#
#                 Cambridge Crystallographic Data Centre
#                                CCDC 
#
#######################################################################
#
# If this CIF has been generated from an entry in the Cambridge 
# Structural Database, then it will include bibliographic, chemical, 
# crystal, experimental, refinement or atomic coordinate data resulting 
# from the CCDC's data processing and validation procedures.
#
#######################################################################

data_GAKTIW01
_symmetry_cell_setting           triclinic
_symmetry_space_group_name_H-M   'P -1'
_symmetry_Int_Tables_number      2
_space_group_name_Hall           '-P 1'
loop_
_symmetry_equiv_pos_site_id
_symmetry_equiv_pos_as_xyz
1 x,y,z
2 -x,-y,-z
_cell_length_a                   8.0247(3)
_cell_length_b                   9.4962(3)
_cell_length_c                   10.2740(2)
_cell_angle_alpha                81.0700(10)
_cell_angle_beta                 80.4380(10)
_cell_angle_gamma                75.66
_cell_volume                     742.637
loop_
_atom_site_label
_atom_site_type_symbol
_atom_site_fract_x
_atom_site_fract_y
_atom_site_fract_z
C1 C 1.0097(6) -0.1333(5) 0.7746(4)
H1 H 1.0686 -0.1387 0.6889
C2 C 1.0500(6) -0.2533(5) 0.8708(4)
H2 H 1.1348 -0.3359 0.8498
C3 C 0.9623(6) -0.2465(5) 0.9964(4)
H3 H 0.9868 -0.3253 1.0617
C4 C 0.8354(6) -0.1212(5) 1.0271(4)
C5 C 0.8037(5) -0.0060(4) 0.9244(4)
C6 C 0.6720(5) 0.1232(4) 0.9482(4)
C7 C 0.7328(6) -0.1069(5) 1.1558(4)
H4 H 0.7535 -0.1823 1.2248
C8 C 0.6082(6) 0.0134(5) 1.1773(4)
H5 H 0.5429 0.0194 1.2608
C9 C 0.5730(6) 0.1339(5) 1.0740(4)
C10 C 0.4412(6) 0.2615(5) 1.0903(5)
H6 H 0.3725 0.2736 1.1719
C11 C 0.4159(6) 0.3676(5) 0.9841(5)
H7 H 0.3287 0.4521 0.9929
C12 C 0.5215(6) 0.3485(5) 0.8626(5)
H8 H 0.5029 0.4217 0.7917
N1 N 0.8926(4) -0.0130(4) 0.7993(3)
N2 N 0.6462(4) 0.2309(4) 0.8448(3)
O1 O 0.6619(4) 0.3548(3) 0.3776(3)
O2 O 0.7032(4) 0.1294(3) 0.5318(3)
O3 O 0.4503(4) 0.3236(3) 0.5711(3)
O4 O 0.8265(4) 0.3940(3) 0.6165(3)
O5 O 1.0762(4) 0.4464(3) 0.6928(3)
O6 O 0.8340(4) 0.6408(3) 0.6213(3)
O7 O 1.0755(4) 0.1353(3) 0.5585(3)
S1 S 0.56597(13) 0.24344(11) 0.45797(10)
S2 S 0.87987(13) 0.49633(11) 0.70310(9)
Zn1 Zn 0.74320(6) 0.50673(5) 0.44912(4)
Zn2 Zn 0.82079(6) 0.17877(5) 0.66646(4)
H9 H 1.153(7) 0.044(4) 0.542(7)
H10 H 1.115(7) 0.212(4) 0.501(4)
O3A O 0.5497(4) 0.6764(3) 0.4289(3)
O5A O 0.9238(4) 0.5536(3) 0.3072(3)
Zn1A Zn 0.25680(6) 0.49327(5) 0.55088(4)
Zn1A_2 Zn 1.25680(6) 0.49327(5) 0.55088(4)
loop_
_geom_bond_atom_site_label_1
_geom_bond_atom_site_label_2
_geom_bond_site_symmetry_1
_geom_bond_site_symmetry_2
C1 H1 1_555 1_555
C2 C1 1_555 1_555
H2 C2 1_555 1_555
C3 C2 1_555 1_555
H3 C3 1_555 1_555
C4 C3 1_555 1_555
C5 C4 1_555 1_555
C6 C5 1_555 1_555
C7 C4 1_555 1_555
H4 C7 1_555 1_555
C8 C7 1_555 1_555
H5 C8 1_555 1_555
C9 C6 1_555 1_555
C10 C9 1_555 1_555
H6 C10 1_555 1_555
C11 C10 1_555 1_555
H7 C11 1_555 1_555
C12 C11 1_555 1_555
H8 C12 1_555 1_555
N1 C1 1_555 1_555
N2 C6 1_555 1_555
O1 S1 1_555 1_555
O2 S1 1_555 1_555
O3 S1 1_555 1_555
O4 S2 1_555 1_555
O5 S2 1_555 1_555
O6 S2 1_555 1_555
O7 Zn2 1_555 1_555
Zn1 O1 1_555 1_555
Zn2 N1 1_555 1_555
H9 O7 1_555 1_555
H10 O7 1_555 1_555
O3A Zn1 1_555 1_555
O5A Zn1 1_555 1_555
Zn1A O3 1_555 1_555
Zn1A_2 O5 1_555 1_555
C5 N1 1_555 1_555
C8 C9 1_555 1_555
C12 N2 1_555 1_555
N2 Zn2 1_555 1_555
O2 Zn2 1_555 1_555
O4 Zn1 1_555 1_555
O4 Zn2 1_555 1_555

#END
