
#######################################################################
#
#                 Cambridge Crystallographic Data Centre
#                                CCDC 
#
#######################################################################
#
# If this CIF has been generated from an entry in the Cambridge 
# Structural Database, then it will include bibliographic, chemical, 
# crystal, experimental, refinement or atomic coordinate data resulting 
# from the CCDC's data processing and validation procedures.
#
#######################################################################

data_GAKTIW
_symmetry_cell_setting           triclinic
_symmetry_space_group_name_H-M   'P -1'
_symmetry_Int_Tables_number      2
_space_group_name_Hall           '-P 1'
loop_
_symmetry_equiv_pos_site_id
_symmetry_equiv_pos_as_xyz
1 x,y,z
2 -x,-y,-z
_cell_length_a                   8.0271(16)
_cell_length_b                   9.4817(19)
_cell_length_c                   10.286(2)
_cell_angle_alpha                80.98(3)
_cell_angle_beta                 80.39(3)
_cell_angle_gamma                75.55(3)
_cell_volume                     742.016
loop_
_atom_site_label
_atom_site_type_symbol
_atom_site_fract_x
_atom_site_fract_y
_atom_site_fract_z
Zn1 Zn 0.32018(6) 0.67862(5) 0.16652(4)
Zn2 Zn 0.24315(6) 1.00687(5) -0.05093(5)
S1 S 0.06614(13) 0.74326(11) -0.04183(10)
O1 O 0.1620(4) 0.8546(3) -0.1232(3)
O2 O -0.0487(4) 0.8238(3) 0.0703(3)
O3 O 0.2031(4) 0.6289(3) 0.0322(3)
S2 S 0.37973(12) 0.99622(11) 0.20246(9)
O4 O 0.3261(4) 0.8940(3) 0.1167(3)
O5 O 0.5763(3) 0.9471(3) 0.1924(3)
O6 O 0.3328(4) 1.1404(3) 0.1200(3)
N1 N 0.3915(4) 0.4869(4) 0.2991(3)
N2 N 0.1460(4) 0.7310(4) 0.3443(3)
C1 C 0.5108(6) 0.3656(5) 0.2744(4)
H1 H 0.5707 0.3599 0.1891
C2 C 0.5492(6) 0.2472(5) 0.3706(4)
H2 H 0.6330 0.1638 0.3496
C3 C 0.4638(6) 0.2538(5) 0.4963(4)
H3 H 0.4899 0.1751 0.5617
C4 C 0.3369(5) 0.3787(5) 0.5267(4)
C5 C 0.2341(6) 0.3936(5) 0.6555(4)
H4 H 0.2555 0.3183 0.7246
C6 C 0.1093(6) 0.5135(5) 0.6771(4)
H5 H 0.0443 0.5192 0.7607
C7 C 0.0729(5) 0.6341(5) 0.5740(4)
C8 C -0.0588(5) 0.7616(5) 0.5910(4)
H6 H -0.1265 0.7736 0.6729
C9 C -0.0859(6) 0.8674(5) 0.4852(4)
H7 H -0.1744 0.9513 0.4941
C10 C 0.0199(6) 0.8494(5) 0.3633(4)
H8 H 0.0009 0.9235 0.2929
C11 C 0.1718(5) 0.6235(4) 0.4479(4)
C12 C 0.3048(5) 0.4943(4) 0.4243(4)
O7 O 0.5756(4) 0.6350(3) 0.0588(3)
H9 H 0.612(5) 0.698(3) 0.005(4)
H10 H 0.636(5) 0.554(2) 0.044(4)
O2A O 0.0487(4) 1.1762(3) -0.0703(3)
O5A O 0.4237(3) 1.0529(3) -0.1924(3)
Zn2A Zn -0.24315(6) 0.99313(5) 0.05093(5)
Zn2A_2 Zn 0.75685(6) 0.99313(5) 0.05093(5)
loop_
_geom_bond_atom_site_label_1
_geom_bond_atom_site_label_2
_geom_bond_site_symmetry_1
_geom_bond_site_symmetry_2
Zn1 O3 1_555 1_555
Zn2 O1 1_555 1_555
S1 O1 1_555 1_555
O2 S1 1_555 1_555
O3 S1 1_555 1_555
S2 O4 1_555 1_555
O4 Zn1 1_555 1_555
O5 S2 1_555 1_555
O6 S2 1_555 1_555
N1 Zn1 1_555 1_555
N2 Zn1 1_555 1_555
C1 N1 1_555 1_555
H1 C1 1_555 1_555
C2 C1 1_555 1_555
H2 C2 1_555 1_555
C3 C2 1_555 1_555
H3 C3 1_555 1_555
C4 C3 1_555 1_555
C5 C4 1_555 1_555
H4 C5 1_555 1_555
C6 C5 1_555 1_555
H5 C6 1_555 1_555
C7 C6 1_555 1_555
C8 C7 1_555 1_555
H6 C8 1_555 1_555
C9 C8 1_555 1_555
H7 C9 1_555 1_555
C10 N2 1_555 1_555
H8 C10 1_555 1_555
C11 N2 1_555 1_555
C12 N1 1_555 1_555
O7 Zn1 1_555 1_555
H9 O7 1_555 1_555
H10 O7 1_555 1_555
O2A Zn2 1_555 1_555
O5A Zn2 1_555 1_555
Zn2A O2 1_555 1_555
Zn2A_2 O5 1_555 1_555
Zn2 O4 1_555 1_555
C4 C12 1_555 1_555
C7 C11 1_555 1_555
C9 C10 1_555 1_555
C11 C12 1_555 1_555

#END
