
#######################################################################
#
#                 Cambridge Crystallographic Data Centre
#                                CCDC 
#
#######################################################################
#
# If this CIF has been generated from an entry in the Cambridge 
# Structural Database, then it will include bibliographic, chemical, 
# crystal, experimental, refinement or atomic coordinate data resulting 
# from the CCDC's data processing and validation procedures.
#
#######################################################################

data_GAKVUK
_symmetry_cell_setting           monoclinic
_symmetry_space_group_name_H-M   'P 21/n'
_symmetry_Int_Tables_number      14
_space_group_name_Hall           '-P 2yn'
loop_
_symmetry_equiv_pos_site_id
_symmetry_equiv_pos_as_xyz
1 x,y,z
2 1/2+x,1/2-y,1/2+z
3 -x,-y,-z
4 1/2-x,1/2+y,1/2-z
_cell_length_a                   6.7680(9)
_cell_length_b                   19.989(3)
_cell_length_c                   9.4923(12)
_cell_angle_alpha                90
_cell_angle_beta                 90.717(2)
_cell_angle_gamma                90
_cell_volume                     1284.07
loop_
_atom_site_label
_atom_site_type_symbol
_atom_site_fract_x
_atom_site_fract_y
_atom_site_fract_z
C1 C 0.4347(5) 0.37862(16) 0.3719(3)
H1 H 0.4442 0.4227 0.4025
C2 C 0.4380(5) 0.36570(17) 0.2292(4)
H2 H 0.4600 0.3998 0.1645
C3 C 0.4075(5) 0.30097(17) 0.1857(3)
H3 H 0.4035 0.2914 0.0898
C4 C 0.3828(5) 0.25003(16) 0.2807(3)
C5 C 0.4032(4) 0.26532(15) 0.4243(3)
C6 C 0.4162(4) 0.21691(15) 0.5433(3)
C7 C 0.4811(4) 0.15095(14) 0.5354(3)
C8 C 0.4707(5) 0.11145(16) 0.6558(3)
H4 H 0.4991 0.0660 0.6507
C9 C 0.4184(5) 0.13941(16) 0.7821(3)
H5 H 0.4119 0.1134 0.8632
C10 C 0.3757(5) 0.20679(16) 0.7863(3)
H6 H 0.3512 0.2268 0.8728
C11 C 0.3162(5) 0.18230(18) 0.2237(4)
C12 C 0.5904(5) 0.12067(16) 0.4126(3)
Cu1 Cu 0.34847(6) 0.344115(19) 0.67357(4)
O1 O 0.4024(5) 0.16084(13) 0.1177(3)
N1 N 0.3685(4) 0.24435(12) 0.6690(3)
O2 O 0.1714(4) 0.15582(12) 0.2837(3)
O3 O 0.7141(3) 0.16050(10) 0.3558(2)
N2 N 0.4184(4) 0.32980(12) 0.4680(3)
O4 O 0.5636(4) 0.06164(12) 0.3844(3)
O5 O 0.3439(5) 0.44308(14) 0.6675(3)
O2A O 0.6714(4) 0.34418(12) 0.7837(3)
O3A O 0.2141(3) 0.33950(10) 0.8558(2)
Cu1A Cu -0.15153(6) 0.155885(19) 0.17357(4)
Cu1A_2 Cu 0.84847(6) 0.155885(19) 0.17357(4)
O6 O 0.8128(5) 0.47346(15) 0.5847(3)
O7 O 0.6416(5) 0.47782(19) 0.9044(5)
loop_
_geom_bond_atom_site_label_1
_geom_bond_atom_site_label_2
_geom_bond_site_symmetry_1
_geom_bond_site_symmetry_2
C1 H1 1_555 1_555
C2 C1 1_555 1_555
H2 C2 1_555 1_555
C3 C2 1_555 1_555
H3 C3 1_555 1_555
C4 C3 1_555 1_555
C5 C4 1_555 1_555
C6 C5 1_555 1_555
C7 C6 1_555 1_555
C8 C7 1_555 1_555
H4 C8 1_555 1_555
C9 C8 1_555 1_555
H5 C9 1_555 1_555
C10 C9 1_555 1_555
H6 C10 1_555 1_555
C11 C4 1_555 1_555
C12 C7 1_555 1_555
Cu1 N1 1_555 1_555
O1 C11 1_555 1_555
N1 C6 1_555 1_555
O2 C11 1_555 1_555
O3 C12 1_555 1_555
N2 C1 1_555 1_555
O4 C12 1_555 1_555
O5 Cu1 1_555 1_555
O2A Cu1 1_555 1_555
O3A Cu1 1_555 1_555
Cu1A O2 1_555 1_555
Cu1A_2 O3 1_555 1_555
C5 N2 1_555 1_555
C10 N1 1_555 1_555
Cu1 N2 1_555 1_555

#END
