
#######################################################################
#
#                 Cambridge Crystallographic Data Centre
#                                CCDC 
#
#######################################################################
#
# If this CIF has been generated from an entry in the Cambridge 
# Structural Database, then it will include bibliographic, chemical, 
# crystal, experimental, refinement or atomic coordinate data resulting 
# from the CCDC's data processing and validation procedures.
#
#######################################################################

data_GAKXUN
_symmetry_cell_setting           monoclinic
_symmetry_space_group_name_H-M   'P 21/n'
_symmetry_Int_Tables_number      14
_space_group_name_Hall           '-P 2yn'
loop_
_symmetry_equiv_pos_site_id
_symmetry_equiv_pos_as_xyz
1 x,y,z
2 1/2-x,1/2+y,1/2-z
3 -x,-y,-z
4 1/2+x,1/2-y,1/2+z
_cell_length_a                   13.710(5)
_cell_length_b                   8.481(3)
_cell_length_c                   19.343(5)
_cell_angle_alpha                90
_cell_angle_beta                 101.405(5)
_cell_angle_gamma                90
_cell_volume                     2204.69
loop_
_atom_site_label
_atom_site_type_symbol
_atom_site_fract_x
_atom_site_fract_y
_atom_site_fract_z
Cd1 Cd -0.08098(2) 0.36509(3) 0.253156(15)
Cd2 Cd 0.16476(2) 0.54653(3) 0.256606(15)
O1 O -0.1233(2) 0.1005(3) 0.21962(14)
O2 O -0.0895(2) 0.2655(3) 0.13955(14)
O3 O 0.1607(2) 0.4707(3) 0.37920(15)
O4 O 0.0944(2) 0.3127(3) 0.29058(14)
O5 O -0.0087(2) 0.6021(4) 0.25264(16)
O6 O -0.1257(2) 0.6957(4) 0.30703(15)
O7 O 0.1890(2) 0.8086(3) 0.25188(15)
O8 O 0.1696(2) 1.0350(3) 0.19396(15)
N1 N -0.1370(3) -0.5046(4) -0.13974(17)
N2 N -0.1296(2) -0.3770(4) -0.03929(17)
N3 N 0.1029(2) -0.3167(4) 0.63597(17)
N4 N 0.1170(3) -0.1834(4) 0.54094(17)
C1 C -0.1234(3) -0.6114(5) -0.0842(2)
H1 H -0.1179 -0.7200 -0.0888
C2 C -0.1193(3) -0.5346(5) -0.0226(2)
H2 H -0.1112 -0.5792 0.0221
C3 C -0.1400(3) -0.3655(5) -0.1108(2)
H3 H -0.1482 -0.2710 -0.1357
C4 C -0.1310(3) -0.2486(5) 0.0087(2)
C5 C -0.1193(3) -0.0955(5) -0.0127(2)
H4 H -0.1137 -0.0747 -0.0589
C6 C -0.1158(3) 0.0271(5) 0.0353(2)
H5 H -0.1070 0.1299 0.0210
C7 C -0.1255(3) -0.0016(5) 0.1040(2)
C8 C -0.1422(3) -0.1548(5) 0.1235(2)
H6 H -0.1524 -0.1746 0.1688
C9 C -0.1440(3) -0.2788(5) 0.0770(2)
H7 H -0.1538 -0.3814 0.0912
C10 C -0.1129(3) 0.1303(5) 0.1571(2)
C11 C 0.1052(3) -0.4223(5) 0.5813(2)
H8 H 0.1013 -0.5314 0.5847
C12 C 0.1137(3) -0.3419(5) 0.5225(2)
H9 H 0.1168 -0.3842 0.4787
C13 C 0.1100(3) -0.1767(5) 0.6096(2)
H10 H 0.1103 -0.0834 0.6349
C14 C 0.1246(3) -0.0525(5) 0.4957(2)
C15 C 0.1114(3) -0.0766(5) 0.4233(2)
H11 H 0.1018 -0.1778 0.4046
C16 C 0.1129(3) 0.0524(5) 0.3794(2)
H12 H 0.1031 0.0368 0.3309
C17 C 0.1284(3) 0.2036(5) 0.4060(2)
C18 C 0.1459(3) 0.2237(5) 0.4784(2)
H13 H 0.1592 0.3242 0.4970
C19 C 0.1440(3) 0.0988(5) 0.5235(2)
H14 H 0.1555 0.1150 0.5720
C20 C 0.1280(3) 0.3400(5) 0.3567(2)
C21 C -0.0503(3) 0.7110(5) 0.2825(2)
H15 H -0.0208 0.8101 0.2859
C22 C 0.1385(3) 0.9053(5) 0.2106(2)
H16 H 0.0732 0.8781 0.1909
O9 O -0.2429(2) 0.4401(4) 0.21251(16)
H17 H -0.269(4) 0.508(5) 0.235(3)
H18 H -0.273(3) 0.358(3) 0.218(2)
Cd1B Cd 0.08098(2) -0.36509(3) 0.746844(15)
Cd2A Cd 0.33524(2) 1.04653(3) 0.243394(15)
Cd2B Cd -0.16476(2) -0.54653(3) -0.256606(15)
O8A O 0.3304(2) 0.5350(3) 0.30604(15)
N1B N 0.1370(3) 0.5046(4) 0.13974(17)
N3B N -0.1029(2) 0.3167(4) 0.36403(17)
loop_
_geom_bond_atom_site_label_1
_geom_bond_atom_site_label_2
_geom_bond_site_symmetry_1
_geom_bond_site_symmetry_2
Cd1 O1 1_555 1_555
Cd2 O3 1_555 1_555
O1 C10 1_555 1_555
O2 Cd1 1_555 1_555
O3 C20 1_555 1_555
O4 Cd1 1_555 1_555
O5 Cd1 1_555 1_555
O6 C21 1_555 1_555
O7 Cd2 1_555 1_555
O8 C22 1_555 1_555
N1 C1 1_555 1_555
N2 C2 1_555 1_555
N3 C11 1_555 1_555
N4 C12 1_555 1_555
C1 H1 1_555 1_555
C2 C1 1_555 1_555
H2 C2 1_555 1_555
C3 N1 1_555 1_555
H3 C3 1_555 1_555
C4 N2 1_555 1_555
C5 C4 1_555 1_555
H4 C5 1_555 1_555
C6 C5 1_555 1_555
H5 C6 1_555 1_555
C7 C6 1_555 1_555
C8 C7 1_555 1_555
H6 C8 1_555 1_555
C9 C4 1_555 1_555
H7 C9 1_555 1_555
C10 O2 1_555 1_555
C11 H8 1_555 1_555
C12 C11 1_555 1_555
H9 C12 1_555 1_555
C13 N3 1_555 1_555
H10 C13 1_555 1_555
C14 N4 1_555 1_555
C15 C14 1_555 1_555
H11 C15 1_555 1_555
C16 C15 1_555 1_555
H12 C16 1_555 1_555
C17 C16 1_555 1_555
C18 C17 1_555 1_555
H13 C18 1_555 1_555
C19 C14 1_555 1_555
H14 C19 1_555 1_555
C20 O4 1_555 1_555
C21 O5 1_555 1_555
H15 C21 1_555 1_555
C22 O7 1_555 1_555
H16 C22 1_555 1_555
O9 Cd1 1_555 1_555
H17 O9 1_555 1_555
H18 O9 1_555 1_555
Cd1B N3 1_555 1_555
Cd2A O8 1_555 1_555
Cd2B N1 1_555 1_555
O8A Cd2 1_555 1_555
N1B Cd2 1_555 1_555
N3B Cd1 1_555 1_555
Cd2 O4 1_555 1_555
Cd2 O5 1_555 1_555
N2 C3 1_555 1_555
N4 C13 1_555 1_555
C7 C10 1_555 1_555
C8 C9 1_555 1_555
C17 C20 1_555 1_555
C18 C19 1_555 1_555

#END
