
#######################################################################
#
#                 Cambridge Crystallographic Data Centre
#                                CCDC 
#
#######################################################################
#
# If this CIF has been generated from an entry in the Cambridge 
# Structural Database, then it will include bibliographic, chemical, 
# crystal, experimental, refinement or atomic coordinate data resulting 
# from the CCDC's data processing and validation procedures.
#
#######################################################################

data_GAKXIB
_symmetry_cell_setting           monoclinic
_symmetry_space_group_name_H-M   'C 2/c'
_symmetry_Int_Tables_number      15
_space_group_name_Hall           '-C 2yn'
loop_
_symmetry_equiv_pos_site_id
_symmetry_equiv_pos_as_xyz
1 x,y,z
2 -x,y,1/2-z
3 1/2+x,1/2+y,z
4 1/2-x,1/2+y,1/2-z
5 -x,-y,-z
6 x,-y,1/2+z
7 1/2-x,1/2-y,-z
8 1/2+x,1/2-y,1/2+z
_cell_length_a                   18.290(2)
_cell_length_b                   16.292(5)
_cell_length_c                   13.675(4)
_cell_angle_alpha                90
_cell_angle_beta                 120.330(4)
_cell_angle_gamma                90
_cell_volume                     3517.16
loop_
_atom_site_label
_atom_site_type_symbol
_atom_site_fract_x
_atom_site_fract_y
_atom_site_fract_z
Cd1 Cd 0.5000 0.148438(13) 0.7500
O1 O 0.85745(10) -0.31923(10) 0.65899(14)
O2 O 0.94258(11) -0.24622(10) 0.81095(15)
N1 N 0.51669(13) 0.04429(12) 0.65101(17)
N2 N 0.58689(12) -0.06844(12) 0.65424(17)
C1 C 0.59160(15) 0.01243(14) 0.6820(2)
H1 H 0.6420 0.0419 0.7187
C2 C 0.45896(15) -0.01994(14) 0.6004(2)
C3 C 0.37159(15) -0.02050(15) 0.5555(2)
H2 H 0.3424 0.0266 0.5542
C4 C 0.33017(16) -0.09438(16) 0.5129(2)
H3 H 0.2718 -0.0969 0.4820
C5 C 0.37427(17) -0.16568(16) 0.5154(2)
H4 H 0.3443 -0.2142 0.4863
C6 C 0.46067(16) -0.16575(15) 0.5598(2)
H5 H 0.4898 -0.2131 0.5617
C7 C 0.50218(15) -0.09133(14) 0.6018(2)
C8 C 0.65789(15) -0.11857(14) 0.6755(2)
C9 C 0.64914(16) -0.17212(15) 0.5907(2)
H6 H 0.5980 -0.1760 0.5228
C10 C 0.71803(15) -0.21936(15) 0.6096(2)
H7 H 0.7131 -0.2556 0.5541
C11 C 0.79490(15) -0.21289(14) 0.7116(2)
C12 C 0.80241(16) -0.15867(14) 0.7952(2)
H8 H 0.8536 -0.1540 0.8630
C13 C 0.73332(15) -0.11174(14) 0.7768(2)
H9 H 0.7378 -0.0759 0.8325
C14 C 0.86991(15) -0.26228(14) 0.7288(2)
Cd1B Cd 1.0000 -0.351562(13) 0.7500
Cd1B_2 Cd 1.0000 0.648438(13) 0.7500
O1C O 0.64255(10) 0.18077(10) 0.84101(14)
O1B O 0.35745(10) 0.18077(10) 0.65899(14)
O2C O 0.55742(11) 0.25378(10) 0.68905(15)
O2B O 0.44258(11) 0.25378(10) 0.81095(15)
N1C N 0.98331(13) 0.54429(12) 0.84899(17)
N1A N 0.48331(13) 0.04429(12) 0.84899(17)
N2C N 0.91311(12) 0.43156(12) 0.84576(17)
C1C C 0.90840(15) 0.51243(14) 0.8180(2)
H1C H 0.8580 0.5419 0.7813
C2C C 1.04104(15) 0.48006(14) 0.8996(2)
C3C C 1.12841(15) 0.47950(15) 0.9445(2)
H2C H 1.1576 0.5266 0.9458
C4C C 1.16983(16) 0.40562(16) 0.9871(2)
H3C H 1.2282 0.4031 1.0180
C5C C 1.12573(17) 0.33432(16) 0.9846(2)
H4C H 1.1557 0.2858 1.0137
C6C C 1.03933(16) 0.33425(15) 0.9402(2)
H5C H 1.0102 0.2869 0.9383
C7C C 0.99782(15) 0.40867(14) 0.8982(2)
C8C C 0.84211(15) 0.38143(14) 0.8245(2)
C9C C 0.85086(16) 0.32788(15) 0.9093(2)
H6C H 0.9020 0.3240 0.9772
C10C C 0.78197(15) 0.28064(15) 0.8904(2)
H7C H 0.7869 0.2444 0.9459
C11C C 0.70510(15) 0.28711(14) 0.7884(2)
C12C C 0.69759(16) 0.34133(14) 0.7048(2)
H8C H 0.6464 0.3460 0.6370
C13C C 0.76668(15) 0.38826(14) 0.7232(2)
H9C H 0.7622 0.4241 0.6675
C14C C 0.63009(15) 0.23772(14) 0.7712(2)
O3 O 0.93940(12) 0.12779(12) 0.56959(16)
N3 N 0.88815(14) 0.08553(13) 0.68161(19)
C15 C 0.86545(19) 0.01744(18) 0.7301(2)
H10 H 0.8074 0.0230 0.7109
H11 H 0.9014 0.0178 0.8110
H12 H 0.8726 -0.0334 0.7003
C16 C 0.87681(18) 0.16804(18) 0.7135(2)
H13 H 0.9045 0.1719 0.7945
H14 H 0.8175 0.1791 0.6811
H15 H 0.9011 0.2074 0.6858
C17 C 0.91907(16) 0.07308(16) 0.6134(2)
H16 H 0.9259 0.0190 0.5975
O4 O 0.78506(13) -0.06905(12) 0.4192(2)
H17 H 0.7510(19) -0.1082(18) 0.405(3)
H18 H 0.8337(15) -0.089(2) 0.441(4)
O5 O 0.95845(13) -0.11947(14) 0.5297(2)
H19 H 0.982(3) -0.153(2) 0.574(4)
H20 H 0.984(2) -0.1181(19) 0.501(3)
loop_
_geom_bond_atom_site_label_1
_geom_bond_atom_site_label_2
_geom_bond_site_symmetry_1
_geom_bond_site_symmetry_2
Cd1 N1 1_555 1_555
O1 C14 1_555 1_555
O2 C14 1_555 1_555
O3 C17 1_555 1_555
N1 C1 1_555 1_555
N2 C1 1_555 1_555
N3 C15 1_555 1_555
C1 H1 1_555 1_555
C2 N1 1_555 1_555
C3 C2 1_555 1_555
H2 C3 1_555 1_555
C4 C3 1_555 1_555
H3 C4 1_555 1_555
C5 C4 1_555 1_555
H4 C5 1_555 1_555
C6 C5 1_555 1_555
H5 C6 1_555 1_555
C7 N2 1_555 1_555
C8 N2 1_555 1_555
C9 C8 1_555 1_555
H6 C9 1_555 1_555
C10 C9 1_555 1_555
H7 C10 1_555 1_555
C11 C10 1_555 1_555
C12 C11 1_555 1_555
H8 C12 1_555 1_555
C13 C8 1_555 1_555
H9 C13 1_555 1_555
C14 C11 1_555 1_555
C15 H10 1_555 1_555
H11 C15 1_555 1_555
H12 C15 1_555 1_555
C16 N3 1_555 1_555
H13 C16 1_555 1_555
H14 C16 1_555 1_555
H15 C16 1_555 1_555
C17 N3 1_555 1_555
H16 C17 1_555 1_555
O4 H17 1_555 1_555
O5 H19 1_555 1_555
H18 O4 1_555 1_555
H20 O5 1_555 1_555
Cd1B O1 1_555 1_555
Cd1B_2 N1C 1_555 1_555
O1C Cd1 1_555 1_555
O1B Cd1 1_555 1_555
O2C Cd1 1_555 1_555
O2B Cd1 1_555 1_555
N1C C1C 1_555 1_555
N1A Cd1 1_555 1_555
N2C C1C 1_555 1_555
C1C H1C 1_555 1_555
C2C N1C 1_555 1_555
C3C C2C 1_555 1_555
H2C C3C 1_555 1_555
C4C C3C 1_555 1_555
H3C C4C 1_555 1_555
C5C C4C 1_555 1_555
H4C C5C 1_555 1_555
C6C C5C 1_555 1_555
H5C C6C 1_555 1_555
C7C N2C 1_555 1_555
C8C N2C 1_555 1_555
C9C C8C 1_555 1_555
H6C C9C 1_555 1_555
C10C C9C 1_555 1_555
H7C C10C 1_555 1_555
C11C C10C 1_555 1_555
C12C C11C 1_555 1_555
H8C C12C 1_555 1_555
C13C C8C 1_555 1_555
H9C C13C 1_555 1_555
C14C O1C 1_555 1_555
O2 Cd1B 1_555 1_555
C2 C7 1_555 1_555
C6 C7 1_555 1_555
C12 C13 1_555 1_555
O2C C14C 1_555 1_555
C2C C7C 1_555 1_555
C6C C7C 1_555 1_555
C11C C14C 1_555 1_555
C12C C13C 1_555 1_555

#END
