
#######################################################################
#
#                 Cambridge Crystallographic Data Centre
#                                CCDC 
#
#######################################################################
#
# If this CIF has been generated from an entry in the Cambridge 
# Structural Database, then it will include bibliographic, chemical, 
# crystal, experimental, refinement or atomic coordinate data resulting 
# from the CCDC's data processing and validation procedures.
#
#######################################################################

data_GAKYAU
_symmetry_cell_setting           triclinic
_symmetry_space_group_name_H-M   'P -1'
_symmetry_Int_Tables_number      2
_space_group_name_Hall           '-P 1'
loop_
_symmetry_equiv_pos_site_id
_symmetry_equiv_pos_as_xyz
1 x,y,z
2 -x,-y,-z
_cell_length_a                   9.889(2)
_cell_length_b                   10.169(2)
_cell_length_c                   10.898(2)
_cell_angle_alpha                91.87(3)
_cell_angle_beta                 95.71(3)
_cell_angle_gamma                116.91(3)
_cell_volume                     968.668
loop_
_atom_site_label
_atom_site_type_symbol
_atom_site_fract_x
_atom_site_fract_y
_atom_site_fract_z
Cu1 Cu 1.05524(7) 0.15718(7) 0.01866(5)
Cu2 Cu 1.35648(7) 0.00109(7) -0.00347(6)
I1 I 1.17705(3) 0.01409(4) 0.15209(3)
I2 I 1.60934(3) 0.24136(3) -0.00789(3)
N1 N 0.9999(4) 0.2831(4) 0.1354(3)
N2 N 0.8599(4) 0.3109(4) 0.2918(3)
N3 N 1.2220(5) 0.3019(5) -0.0714(4)
S1 S 0.79135(13) 0.03675(13) 0.20498(11)
C1 C 0.8942(5) 0.2318(5) 0.2142(4)
C2 C 1.0701(5) 0.4303(5) 0.1351(4)
H1 H 1.1446 0.4726 0.0816
C3 C 1.0393(5) 0.5236(5) 0.2087(4)
H2 H 1.0885 0.6267 0.2041
C4 C 0.9320(5) 0.4585(5) 0.2901(4)
C5 C 0.8876(5) 0.5440(5) 0.3772(4)
C6 C 0.9442(6) 0.6968(6) 0.3763(5)
H3 H 1.0126 0.7484 0.3205
C7 C 0.8999(7) 0.7719(7) 0.4572(6)
H4 H 0.9385 0.8750 0.4563
C8 C 0.7999(8) 0.6987(8) 0.5397(6)
H5 H 0.7705 0.7513 0.5946
C9 C 0.7435(8) 0.5485(8) 0.5410(5)
H6 H 0.6744 0.4977 0.5965
C10 C 0.7878(7) 0.4713(7) 0.4609(5)
H7 H 0.7497 0.3684 0.4633
C11 C 0.6389(7) 0.0099(7) 0.2999(5)
H8 H 0.6078 0.0877 0.2867
H9 H 0.5500 -0.0854 0.2721
C12 C 0.6834(7) 0.0127(9) 0.4311(6)
H10 H 0.7568 0.1138 0.4639
H11 H 0.7331 -0.0510 0.4441
C13 C 0.5357(9) -0.0442(11) 0.5032(8)
H12 H 0.4624 -0.1445 0.4684
H13 H 0.5667 -0.0496 0.5904
C14 C 1.3171(6) 0.3738(6) -0.1255(4)
C15 C 1.4376(6) 0.4630(7) -0.1969(5)
H14 H 1.5217 0.4387 -0.1823
H15 H 1.4735 0.5671 -0.1720
H16 H 1.3983 0.4431 -0.2843
Cu1A Cu 0.94476(7) -0.15718(7) -0.01866(5)
Cu1A_2 Cu -0.05524(7) -0.15718(7) 0.98134(5)
Cu2A Cu 0.64352(7) -0.00109(7) 0.00347(6)
Cu2A_2 Cu 1.64352(7) -0.00109(7) 0.00347(6)
Cu2_2 Cu 0.35648(7) 0.00109(7) 0.99653(6)
I1A I 0.82295(3) -0.01409(4) -0.15209(3)
I2A I 1.39066(3) -0.24136(3) 0.00789(3)
I2A_2 I 0.39066(3) -0.24136(3) 0.00789(3)
I2_2 I 0.60934(3) 0.24136(3) -0.00789(3)
N1A N 0.0001(4) -0.2831(4) 0.8646(3)
N1A_2 N 1.0001(4) -0.2831(4) -0.1354(3)
N2A N 0.1401(4) -0.3109(4) 0.7082(3)
N3A N 0.7780(5) -0.3019(5) 0.0714(4)
S1A S 0.20865(13) -0.03675(13) 0.79502(11)
S1A_2 S 1.20865(13) -0.03675(13) -0.20498(11)
C1A C 0.1058(5) -0.2318(5) 0.7858(4)
C2A C -0.0701(5) -0.4303(5) 0.8649(4)
H1A H -0.1446 -0.4726 0.9184
C3A C -0.0393(5) -0.5236(5) 0.7913(4)
H2A H -0.0885 -0.6267 0.7959
C4A C 0.0680(5) -0.4585(5) 0.7099(4)
C5A C 0.1124(5) -0.5440(5) 0.6228(4)
C6A C 0.0558(6) -0.6968(6) 0.6237(5)
H3A H -0.0126 -0.7484 0.6795
C7A C 0.1001(7) -0.7719(7) 0.5428(6)
H4A H 0.0615 -0.8750 0.5437
C8A C 0.2001(8) -0.6987(8) 0.4603(6)
H5A H 0.2295 -0.7513 0.4054
C9A C 0.2565(8) -0.5485(8) 0.4590(5)
H6A H 0.3256 -0.4977 0.4035
C10A C 0.2122(7) -0.4713(7) 0.5391(5)
H7A H 0.2503 -0.3684 0.5367
C11A C 0.3611(7) -0.0099(7) 0.7001(5)
H8A H 0.3922 -0.0877 0.7133
H9A H 0.4500 0.0854 0.7279
C12A C 0.3166(7) -0.0127(9) 0.5689(6)
H10A H 0.2432 -0.1138 0.5361
H11A H 0.2669 0.0510 0.5559
C13A C 0.4643(9) 0.0442(11) 0.4968(8)
H12A H 0.5376 0.1445 0.5316
H13A H 0.4333 0.0496 0.4096
C14A C 0.6829(6) -0.3738(6) 0.1255(4)
C15A C 0.5624(6) -0.4630(7) 0.1969(5)
H14A H 0.4783 -0.4387 0.1823
H15A H 0.5265 -0.5671 0.1720
H16A H 0.6017 -0.4431 0.2843
loop_
_geom_bond_atom_site_label_1
_geom_bond_atom_site_label_2
_geom_bond_site_symmetry_1
_geom_bond_site_symmetry_2
Cu1 I1 1_555 1_555
Cu2 I1 1_555 1_555
I1 Cu1A 1_555 1_555
I2 Cu2 1_555 1_555
N1 Cu1 1_555 1_555
N2 C1 1_555 1_555
N3 Cu1 1_555 1_555
S1 C1 1_555 1_555
C1 N1 1_555 1_555
C2 N1 1_555 1_555
H1 C2 1_555 1_555
C3 C2 1_555 1_555
H2 C3 1_555 1_555
C4 N2 1_555 1_555
C5 C4 1_555 1_555
C6 C5 1_555 1_555
H3 C6 1_555 1_555
C7 C6 1_555 1_555
H4 C7 1_555 1_555
C8 C7 1_555 1_555
H5 C8 1_555 1_555
C9 C8 1_555 1_555
H6 C9 1_555 1_555
C10 C5 1_555 1_555
H7 C10 1_555 1_555
C11 S1 1_555 1_555
H8 C11 1_555 1_555
H9 C11 1_555 1_555
C12 C11 1_555 1_555
H10 C12 1_555 1_555
H11 C12 1_555 1_555
C13 C12 1_555 1_555
H12 C13 1_555 1_555
H13 C13 1_555 1_555
C14 N3 1_555 1_555
C15 C14 1_555 1_555
H14 C15 1_555 1_555
H15 C15 1_555 1_555
H16 C15 1_555 1_555
Cu1A I1A 1_555 1_555
Cu1A_2 N1A 1_555 1_555
Cu2A S1 1_555 1_555
Cu2A_2 I2 1_555 1_555
Cu2_2 S1A 1_555 1_555
I1A Cu1 1_555 1_555
I2A Cu2 1_555 1_555
I2A_2 Cu2A 1_555 1_555
I2_2 Cu2A 1_555 1_555
N1A C1A 1_555 1_555
N1A_2 Cu1A 1_555 1_555
N2A C1A 1_555 1_555
N3A Cu1A 1_555 1_555
S1A C1A 1_555 1_555
S1A_2 Cu2 1_555 1_555
C2A N1A 1_555 1_555
H1A C2A 1_555 1_555
C3A C2A 1_555 1_555
H2A C3A 1_555 1_555
C4A N2A 1_555 1_555
C5A C4A 1_555 1_555
C6A C5A 1_555 1_555
H3A C6A 1_555 1_555
C7A C6A 1_555 1_555
H4A C7A 1_555 1_555
C8A C7A 1_555 1_555
H5A C8A 1_555 1_555
C9A C8A 1_555 1_555
H6A C9A 1_555 1_555
C10A C5A 1_555 1_555
H7A C10A 1_555 1_555
C11A S1A 1_555 1_555
H8A C11A 1_555 1_555
H9A C11A 1_555 1_555
C12A C11A 1_555 1_555
H10A C12A 1_555 1_555
H11A C12A 1_555 1_555
C13A C13 1_555 1_555
H12A C13A 1_555 1_555
H13A C13A 1_555 1_555
C14A N3A 1_555 1_555
C15A C14A 1_555 1_555
H14A C15A 1_555 1_555
H15A C15A 1_555 1_555
H16A C15A 1_555 1_555
C3 C4 1_555 1_555
C9 C10 1_555 1_555
Cu2A I1A 1_555 1_555
Cu2A_2 I2A 1_555 1_555
C3A C4A 1_555 1_555
C9A C10A 1_555 1_555
C12A C13A 1_555 1_555

#END
