
#######################################################################
#
#                 Cambridge Crystallographic Data Centre
#                                CCDC 
#
#######################################################################
#
# If this CIF has been generated from an entry in the Cambridge 
# Structural Database, then it will include bibliographic, chemical, 
# crystal, experimental, refinement or atomic coordinate data resulting 
# from the CCDC's data processing and validation procedures.
#
#######################################################################

data_GALBUS
_symmetry_cell_setting           tetragonal
_symmetry_space_group_name_H-M   'P 4 21 2'
_symmetry_Int_Tables_number      90
_space_group_name_Hall           'P 4ab 2ab'
loop_
_symmetry_equiv_pos_site_id
_symmetry_equiv_pos_as_xyz
1 x,y,z
2 -x,-y,z
3 1/2-y,1/2+x,z
4 1/2+y,1/2-x,z
5 1/2-x,1/2+y,-z
6 1/2+x,1/2-y,-z
7 y,x,-z
8 -y,-x,-z
_cell_length_a                   22.3163(5)
_cell_length_b                   22.3163(5)
_cell_length_c                   12.7222(6)
_cell_angle_alpha                90
_cell_angle_beta                 90
_cell_angle_gamma                90
_cell_volume                     6335.88
loop_
_atom_site_label
_atom_site_type_symbol
_atom_site_fract_x
_atom_site_fract_y
_atom_site_fract_z
Ni1 Ni 0.260770(15) 0.747136(14) 0.24839(2)
C1 C -0.14108(14) 0.77718(15) -0.1785(2)
C2 C -0.08196(14) 0.78179(19) -0.1239(2)
C3 C -0.02933(16) 0.7754(2) -0.1793(3)
H1 H -0.0296 0.7726 -0.2538
C4 C 0.02405(18) 0.7731(3) -0.1238(3)
H2 H 0.0609 0.7674 -0.1598
C5 C 0.02342(16) 0.7793(2) -0.0162(3)
C6 C -0.07894(14) 0.79022(17) -0.0179(2)
H3 H -0.1152 0.7972 0.0194
C7 C 0.07908(16) 0.7732(2) 0.0466(2)
C8 C 0.12729(16) 0.7415(2) 0.0084(3)
H4 H 0.1258 0.7244 -0.0599
C9 C 0.17809(15) 0.73464(19) 0.0701(3)
H5 H 0.2110 0.7126 0.0426
C10 C 0.13619(16) 0.78910(18) 0.2036(3)
H6 H 0.1391 0.8067 0.2714
C11 C 0.08379(17) 0.7968(2) 0.1459(3)
H7 H 0.0512 0.8185 0.1753
C12 C 0.23693(16) 0.34362(15) 0.6627(2)
C13 C 0.23263(19) 0.40007(15) 0.6000(2)
C14 C 0.2004(2) 0.44692(17) 0.6323(3)
H8 H 0.1781 0.4444 0.6957
C15 C 0.1995(2) 0.49867(17) 0.5742(3)
H9 H 0.1764 0.5319 0.5975
C16 C 0.2309(2) 0.50245(16) 0.4849(3)
C17 C 0.2628(2) 0.40455(18) 0.5059(3)
H10 H 0.2857 0.3715 0.4814
C18 C 0.23306(18) 0.55896(15) 0.4246(2)
C19 C 0.2240(2) 0.61280(16) 0.4748(3)
H11 H 0.2146 0.6138 0.5476
C20 C 0.22861(17) 0.66540(14) 0.4182(3)
H12 H 0.2217 0.7023 0.4534
C21 C 0.25040(18) 0.61447(15) 0.2694(2)
H13 H 0.2608 0.6145 0.1970
C22 C 0.2448(2) 0.56022(16) 0.3189(3)
H14 H 0.2489 0.5240 0.2804
N1 N -0.02688(13) 0.78918(16) 0.0373(2)
N2 N 0.18260(11) 0.75761(13) 0.16625(18)
N3 N 0.2604(2) 0.45566(15) 0.4474(3)
N4 N 0.24230(12) 0.66666(11) 0.31620(19)
O1 O -0.18829(9) 0.78201(10) -0.12463(15)
O2 O -0.14358(9) 0.76517(11) -0.27483(16)
O3 O 0.21768(11) 0.34273(9) 0.75538(17)
O4 O 0.26071(10) 0.29765(9) 0.62287(15)
Ni1E Ni -0.239230(15) 0.752864(14) -0.24839(2)
Ni1D Ni 0.239230(15) 0.247136(14) 0.75161(2)
O1E O 0.31171(9) 0.71799(10) 0.12463(15)
O2E O 0.35642(9) 0.73483(11) 0.27483(16)
O3D O 0.28232(11) 0.84273(9) 0.24462(17)
O4D O 0.23929(10) 0.79765(9) 0.37713(15)
loop_
_geom_bond_atom_site_label_1
_geom_bond_atom_site_label_2
_geom_bond_site_symmetry_1
_geom_bond_site_symmetry_2
Ni1 N2 1_555 1_555
C1 C2 1_555 1_555
C2 C3 1_555 1_555
C3 H1 1_555 1_555
C4 C3 1_555 1_555
H2 C4 1_555 1_555
C5 C4 1_555 1_555
C6 C2 1_555 1_555
H3 C6 1_555 1_555
C7 C5 1_555 1_555
C8 C7 1_555 1_555
H4 C8 1_555 1_555
C9 C8 1_555 1_555
H5 C9 1_555 1_555
C10 H6 1_555 1_555
C11 C7 1_555 1_555
H7 C11 1_555 1_555
C12 C13 1_555 1_555
C13 C14 1_555 1_555
C14 H8 1_555 1_555
C15 C14 1_555 1_555
H9 C15 1_555 1_555
C16 C15 1_555 1_555
C17 C13 1_555 1_555
H10 C17 1_555 1_555
C18 C16 1_555 1_555
C19 C18 1_555 1_555
H11 C19 1_555 1_555
C20 C19 1_555 1_555
H12 C20 1_555 1_555
C21 H13 1_555 1_555
C22 C18 1_555 1_555
H14 C22 1_555 1_555
N1 C5 1_555 1_555
N2 C9 1_555 1_555
N3 C16 1_555 1_555
N4 Ni1 1_555 1_555
O1 C1 1_555 1_555
O2 C1 1_555 1_555
O3 C12 1_555 1_555
O4 C12 1_555 1_555
Ni1E O1 1_555 1_555
Ni1D O3 1_555 1_555
O1E Ni1 1_555 1_555
O2E Ni1 1_555 1_555
O3D Ni1 1_555 1_555
O4D Ni1 1_555 1_555
C6 N1 1_555 1_555
C10 C11 1_555 1_555
C10 N2 1_555 1_555
C17 N3 1_555 1_555
C20 N4 1_555 1_555
C21 C22 1_555 1_555
C21 N4 1_555 1_555
O2 Ni1E 1_555 1_555
O4 Ni1D 1_555 1_555

#END
