
#######################################################################
#
#                 Cambridge Crystallographic Data Centre
#                                CCDC 
#
#######################################################################
#
# If this CIF has been generated from an entry in the Cambridge 
# Structural Database, then it will include bibliographic, chemical, 
# crystal, experimental, refinement or atomic coordinate data resulting 
# from the CCDC's data processing and validation procedures.
#
#######################################################################

data_GALCON
_symmetry_cell_setting           monoclinic
_symmetry_space_group_name_H-M   'C 2/c'
_symmetry_Int_Tables_number      15
_space_group_name_Hall           '-C 2yn'
loop_
_symmetry_equiv_pos_site_id
_symmetry_equiv_pos_as_xyz
1 x,y,z
2 -x,y,1/2-z
3 1/2+x,1/2+y,z
4 1/2-x,1/2+y,1/2-z
5 -x,-y,-z
6 x,-y,1/2+z
7 1/2-x,1/2-y,-z
8 1/2+x,1/2-y,1/2+z
_cell_length_a                   29.96(3)
_cell_length_b                   5.629(4)
_cell_length_c                   20.905(17)
_cell_angle_alpha                90
_cell_angle_beta                 104.337(14)
_cell_angle_gamma                90
_cell_volume                     3415.72
loop_
_atom_site_label
_atom_site_type_symbol
_atom_site_fract_x
_atom_site_fract_y
_atom_site_fract_z
Ag1 Ag 0.124477(13) 0.12703(6) 0.530515(19)
S1 S 0.29808(4) 0.4971(2) 0.35287(6)
S2 S 0.37165(4) 0.7119(2) 0.29379(6)
S3 S 0.43566(4) 0.6296(2) 0.20550(7)
O1 O 0.14646(15) -0.4435(7) 0.5747(2)
O2 O 0.09370(15) -0.4429(7) 0.4861(2)
N1 N 0.12189(17) -0.3302(7) 0.5283(3)
N2 N 0.17004(14) 0.1517(6) 0.45349(19)
N3 N 0.33456(13) 0.3050(6) 0.25845(19)
N4 N 0.36811(13) 0.3357(6) 0.22318(19)
N5 N 0.56050(13) 0.4047(6) 0.0779(2)
C1 C 0.23528(18) 0.0158(8) 0.4164(2)
H1 H 0.2584 -0.0971 0.4197
C2 C 0.20402(18) -0.0016(8) 0.4551(3)
H2 H 0.2070 -0.1291 0.4841
C3 C 0.16707(16) 0.3359(7) 0.4117(2)
H3 H 0.1440 0.4479 0.4102
C4 C 0.19655(16) 0.3675(7) 0.3710(2)
H4 H 0.1929 0.4974 0.3426
C5 C 0.23163(15) 0.2045(7) 0.3725(2)
C6 C 0.26388(16) 0.2290(8) 0.3283(2)
H5 H 0.2466 0.2412 0.2826
H6 H 0.2839 0.0912 0.3327
C7 C 0.33370(15) 0.4834(7) 0.2983(2)
C8 C 0.38973(15) 0.5346(8) 0.2368(2)
C9 C 0.43862(19) 0.3767(8) 0.1529(3)
H7 H 0.4389 0.2305 0.1775
H8 H 0.4118 0.3749 0.1157
C10 C 0.48180(17) 0.3939(8) 0.1284(2)
C11 C 0.49075(17) 0.5829(8) 0.0917(2)
H9 H 0.4704 0.7102 0.0828
C12 C 0.52996(17) 0.5844(8) 0.0681(2)
H10 H 0.5355 0.7160 0.0443
C13 C 0.55181(17) 0.2254(9) 0.1144(2)
H11 H 0.5727 0.1002 0.1226
C14 C 0.51447(18) 0.2117(9) 0.1406(3)
H12 H 0.5108 0.0821 0.1664
Ag1G Ag 0.624477(13) 0.37297(6) 0.030515(19)
N5G N 0.06050(13) 0.0953(6) 0.5779(2)
loop_
_geom_bond_atom_site_label_1
_geom_bond_atom_site_label_2
_geom_bond_site_symmetry_1
_geom_bond_site_symmetry_2
Ag1 N1 1_555 1_555
S1 C6 1_555 1_555
S2 C7 1_555 1_555
S3 C8 1_555 1_555
O1 N1 1_555 1_555
O2 N1 1_555 1_555
N2 Ag1 1_555 1_555
N3 N4 1_555 1_555
N4 C8 1_555 1_555
N5 C12 1_555 1_555
C1 H1 1_555 1_555
C2 N2 1_555 1_555
H2 C2 1_555 1_555
C3 N2 1_555 1_555
H3 C3 1_555 1_555
C4 C3 1_555 1_555
H4 C4 1_555 1_555
C5 C1 1_555 1_555
C6 C5 1_555 1_555
H5 C6 1_555 1_555
H6 C6 1_555 1_555
C7 S1 1_555 1_555
C8 S2 1_555 1_555
C9 S3 1_555 1_555
H7 C9 1_555 1_555
H8 C9 1_555 1_555
C10 C9 1_555 1_555
C11 C10 1_555 1_555
H9 C11 1_555 1_555
C12 C11 1_555 1_555
H10 C12 1_555 1_555
C13 N5 1_555 1_555
H11 C13 1_555 1_555
C14 C10 1_555 1_555
H12 C14 1_555 1_555
Ag1G N5 1_555 1_555
N5G Ag1 1_555 1_555
N3 C7 1_555 1_555
C1 C2 1_555 1_555
C4 C5 1_555 1_555
C13 C14 1_555 1_555

#END
