
#######################################################################
#
#                 Cambridge Crystallographic Data Centre
#                                CCDC 
#
#######################################################################
#
# If this CIF has been generated from an entry in the Cambridge 
# Structural Database, then it will include bibliographic, chemical, 
# crystal, experimental, refinement or atomic coordinate data resulting 
# from the CCDC's data processing and validation procedures.
#
#######################################################################

data_GALCIH
_symmetry_cell_setting           monoclinic
_symmetry_space_group_name_H-M   'C 2/m'
_symmetry_Int_Tables_number      12
_space_group_name_Hall           '-C 2y'
loop_
_symmetry_equiv_pos_site_id
_symmetry_equiv_pos_as_xyz
1 x,y,z
2 -x,y,-z
3 1/2+x,1/2+y,z
4 1/2-x,1/2+y,-z
5 -x,-y,-z
6 x,-y,z
7 1/2-x,1/2-y,-z
8 1/2+x,1/2-y,z
_cell_length_a                   18.164(2)
_cell_length_b                   14.237(2)
_cell_length_c                   8.9017(13)
_cell_angle_alpha                90
_cell_angle_beta                 109.170(7)
_cell_angle_gamma                90
_cell_volume                     2174.34
loop_
_atom_site_label
_atom_site_type_symbol
_atom_site_fract_x
_atom_site_fract_y
_atom_site_fract_z
Ag1 Ag 0.0000 0.34652(2) -0.5000
S1 S 0.15455(4) 0.29576(5) 0.37036(7)
S2 S 0.19417(5) 0.5000 0.30724(12)
N1 N 0.07780(14) 0.31099(17) -0.2553(2)
N2 N 0.09166(11) 0.45170(15) 0.4286(2)
C1 C 0.10328(18) 0.2343(2) -0.0056(3)
H1 H 0.0896 0.1876 0.0533
C2 C 0.0609(2) 0.2449(2) -0.1646(3)
H2 H 0.0192 0.2047 -0.2104
C3 C 0.13940(17) 0.3652(2) -0.1860(3)
H3 H 0.1533 0.4101 -0.2476
C4 C 0.18339(17) 0.3582(2) -0.0279(3)
H4 H 0.2254 0.3983 0.0156
C5 C 0.16480(14) 0.2913(2) 0.0659(3)
C6 C 0.21167(16) 0.2798(2) 0.2390(3)
H5 H 0.2540 0.3250 0.2668
H6 H 0.2345 0.2174 0.2554
C7 C 0.14253(13) 0.4170(2) 0.3696(2)
Ag1D Ag 0.0000 0.65348(2) -0.5000
Ag1_2 Ag 0.0000 0.34652(2) 0.5000
Ag1D_2 Ag 0.0000 0.65348(2) 0.5000
Ag1_3 Ag 0.0000 0.34652(2) -1.5000
Ag1D_3 Ag 0.0000 0.65348(2) -1.5000
S1E S 0.15455(4) 0.70424(5) 0.37036(7)
S1A S -0.15455(4) 0.29576(5) -1.37036(7)
S1D S -0.15455(4) 0.70424(5) -1.37036(7)
S2A S -0.19417(5) 0.5000 -1.30724(12)
N1E N 0.07780(14) 0.68901(17) -0.2553(2)
N1A N -0.07780(14) 0.31099(17) -0.7447(2)
N1D N -0.07780(14) 0.68901(17) -0.7447(2)
N2E N 0.09166(11) 0.54830(15) 0.4286(2)
N2A N -0.09166(11) 0.45170(15) -1.4286(2)
N2D N -0.09166(11) 0.54830(15) -1.4286(2)
N2_2 N 0.09166(11) 0.45170(15) -0.5714(2)
N2A_2 N -0.09166(11) 0.45170(15) -0.4286(2)
N2E_2 N 0.09166(11) 0.54830(15) -0.5714(2)
N2D_2 N -0.09166(11) 0.54830(15) -0.4286(2)
C1E C 0.10328(18) 0.7657(2) -0.0056(3)
C1A C -0.10328(18) 0.2343(2) -0.9944(3)
C1D C -0.10328(18) 0.7657(2) -0.9944(3)
H1E H 0.0896 0.8124 0.0533
H1A H -0.0896 0.1876 -1.0533
H1D H -0.0896 0.8124 -1.0533
C2E C 0.0609(2) 0.7551(2) -0.1646(3)
C2A C -0.0609(2) 0.2449(2) -0.8354(3)
C2D C -0.0609(2) 0.7551(2) -0.8354(3)
H2E H 0.0192 0.7953 -0.2104
H2A H -0.0192 0.2047 -0.7896
H2D H -0.0192 0.7953 -0.7896
C3E C 0.13940(17) 0.6348(2) -0.1860(3)
C3A C -0.13940(17) 0.3652(2) -0.8140(3)
C3D C -0.13940(17) 0.6348(2) -0.8140(3)
H3E H 0.1533 0.5899 -0.2476
H3A H -0.1533 0.4101 -0.7524
H3D H -0.1533 0.5899 -0.7524
C4E C 0.18339(17) 0.6418(2) -0.0279(3)
C4A C -0.18339(17) 0.3582(2) -0.9721(3)
C4D C -0.18339(17) 0.6418(2) -0.9721(3)
H4E H 0.2254 0.6017 0.0156
H4A H -0.2254 0.3983 -1.0156
H4D H -0.2254 0.6017 -1.0156
C5E C 0.16480(14) 0.7087(2) 0.0659(3)
C5A C -0.16480(14) 0.2913(2) -1.0659(3)
C5D C -0.16480(14) 0.7087(2) -1.0659(3)
C6E C 0.21167(16) 0.7202(2) 0.2390(3)
C6A C -0.21167(16) 0.2798(2) -1.2390(3)
C6D C -0.21167(16) 0.7202(2) -1.2390(3)
H5E H 0.2540 0.6750 0.2668
H5A H -0.2540 0.3250 -1.2668
H5D H -0.2540 0.6750 -1.2668
H6E H 0.2345 0.7826 0.2554
H6A H -0.2345 0.2174 -1.2554
H6D H -0.2345 0.7826 -1.2554
C7E C 0.14253(13) 0.5830(2) 0.3696(2)
C7A C -0.14253(13) 0.4170(2) -1.3696(2)
C7D C -0.14253(13) 0.5830(2) -1.3696(2)
F1 F 0.1538(3) 0.0752(3) 0.3352(5)
B1 B 0.1607(4) 0.0000 0.2629(7)
F2 F 0.2261(3) 0.0000 0.2479(10)
F3 F 0.1105(6) 0.0000 0.1252(9)
F1E F 0.1538(3) -0.0752(3) 0.3352(5)
O1 O 0.5000 0.4009(8) 0.5000
O2 O 0.3982(6) 0.5000 0.2584(19)
O3 O 0.0000 0.5000 0.0000
O4? O 0.3483(5) 0.5000 0.1877(12)
O5? O 0.4276(9) 0.3986(10) 0.4519(15)
loop_
_geom_bond_atom_site_label_1
_geom_bond_atom_site_label_2
_geom_bond_site_symmetry_1
_geom_bond_site_symmetry_2
Ag1 N1 1_555 1_555
S1 C6 1_555 1_555
S2 C7 1_555 1_555
N1 C2 1_555 1_555
N2 C7 1_555 1_555
C1 H1 1_555 1_555
C2 C1 1_555 1_555
H2 C2 1_555 1_555
C3 N1 1_555 1_555
H3 C3 1_555 1_555
C4 C3 1_555 1_555
H4 C4 1_555 1_555
C5 C1 1_555 1_555
C6 C5 1_555 1_555
H5 C6 1_555 1_555
H6 C6 1_555 1_555
C7 S1 1_555 1_555
F1 B1 1_555 1_555
B1 F2 1_555 1_555
F3 B1 1_555 1_555
Ag1D N1E 1_555 1_555
Ag1_2 N2 1_555 1_555
Ag1D_2 N2E 1_555 1_555
Ag1_3 N2A 1_555 1_555
Ag1D_3 N2D 1_555 1_555
S1E C6E 1_555 1_555
S1A C6A 1_555 1_555
S1D C6D 1_555 1_555
S2A C7A 1_555 1_555
N1E C2E 1_555 1_555
N1A Ag1 1_555 1_555
N1D Ag1D 1_555 1_555
N2E N2 1_555 1_555
N2A N2D 1_555 1_555
N2D C7D 1_555 1_555
N2_2 Ag1 1_555 1_555
N2A_2 Ag1 1_555 1_555
N2E_2 Ag1D 1_555 1_555
N2D_2 Ag1D 1_555 1_555
C1E H1E 1_555 1_555
C1A H1A 1_555 1_555
C1D H1D 1_555 1_555
C2E C1E 1_555 1_555
C2A N1A 1_555 1_555
C2D N1D 1_555 1_555
H2E C2E 1_555 1_555
H2A C2A 1_555 1_555
H2D C2D 1_555 1_555
C3E N1E 1_555 1_555
C3A N1A 1_555 1_555
C3D N1D 1_555 1_555
H3E C3E 1_555 1_555
H3A C3A 1_555 1_555
H3D C3D 1_555 1_555
C4E C3E 1_555 1_555
C4A C3A 1_555 1_555
C4D C3D 1_555 1_555
H4E C4E 1_555 1_555
H4A C4A 1_555 1_555
H4D C4D 1_555 1_555
C5E C1E 1_555 1_555
C5A C1A 1_555 1_555
C5D C1D 1_555 1_555
C6E C5E 1_555 1_555
C6A C5A 1_555 1_555
C6D C5D 1_555 1_555
H5E C6E 1_555 1_555
H5A C6A 1_555 1_555
H5D C6D 1_555 1_555
H6E C6E 1_555 1_555
H6A C6A 1_555 1_555
H6D C6D 1_555 1_555
C7E S2 1_555 1_555
C7A S1A 1_555 1_555
C7D S1D 1_555 1_555
F1E B1 1_555 1_555
C4 C5 1_555 1_555
S1E C7E 1_555 1_555
S2A C7D 1_555 1_555
N2E C7E 1_555 1_555
N2A C7A 1_555 1_555
N2_2 N2E_2 1_555 1_555
N2A_2 N2D_2 1_555 1_555
C1A C2A 1_555 1_555
C1D C2D 1_555 1_555
C4E C5E 1_555 1_555
C4A C5A 1_555 1_555
C4D C5D 1_555 1_555

#END
