
#######################################################################
#
#                 Cambridge Crystallographic Data Centre
#                                CCDC 
#
#######################################################################
#
# If this CIF has been generated from an entry in the Cambridge 
# Structural Database, then it will include bibliographic, chemical, 
# crystal, experimental, refinement or atomic coordinate data resulting 
# from the CCDC's data processing and validation procedures.
#
#######################################################################

data_GALDUT
_symmetry_cell_setting           orthorhombic
_symmetry_space_group_name_H-M   'I b c a'
_symmetry_Int_Tables_number      73
_space_group_name_Hall           '-I 2b 2c'
loop_
_symmetry_equiv_pos_site_id
_symmetry_equiv_pos_as_xyz
1 x,y,z
2 1/2+x,1/2+y,1/2+z
3 -x,1/2-y,z
4 x,-y,1/2-z
5 1/2-x,y,-z
6 1/2-x,-y,1/2+z
7 1/2+x,1/2-y,-z
8 -x,1/2+y,1/2-z
9 -x,-y,-z
10 1/2-x,1/2-y,1/2-z
11 x,1/2+y,-z
12 -x,y,1/2+z
13 1/2+x,-y,z
14 1/2+x,y,1/2-z
15 1/2-x,1/2+y,z
16 x,1/2-y,1/2+z
_cell_length_a                   18.447(11)
_cell_length_b                   15.952(8)
_cell_length_c                   21.40(2)
_cell_angle_alpha                90
_cell_angle_beta                 90
_cell_angle_gamma                90
_cell_volume                     6297.3
loop_
_atom_site_label
_atom_site_type_symbol
_atom_site_fract_x
_atom_site_fract_y
_atom_site_fract_z
Ni1 Ni 0.2500 0.17636(12) 0.0000
Cl1 Cl 0.15672(14) 0.17549(19) -0.07804(13)
S1 S 0.07703(15) -0.1078(2) 0.17391(14)
O1 O 0.0000 -0.2500 0.2164(7)
N1 N 0.1916(4) 0.0840(5) 0.0511(4)
C1 C 0.1873(6) 0.0888(7) 0.1138(5)
H1 H 0.2114 0.1339 0.1340
S2 S 0.05803(16) 0.4590(2) 0.15955(15)
O2 O 0.2237(7) 0.5000 0.2500
N2 N 0.1910(5) 0.2687(5) 0.0501(4)
C2 C 0.1560(6) 0.0214(8) 0.0269(5)
H2 H 0.1570 0.0167 -0.0173
C3 C 0.1508(5) 0.0332(7) 0.1497(5)
H3 H 0.1489 0.0404 0.1937
C4 C 0.1179(5) -0.0376(7) 0.0582(5)
H4 H 0.0928 -0.0806 0.0363
C5 C 0.1163(5) -0.0340(7) 0.1220(5)
C6 C 0.0305(6) -0.1790(7) 0.1217(5)
H5 H -0.0091 -0.1490 0.0998
H6 H 0.0647 -0.2005 0.0899
C7 C 0.0000 -0.2500 0.1583(9)
C8 C 0.2244(6) 0.3317(8) 0.0813(5)
H7 H 0.2758 0.3346 0.0794
C9 C 0.1190(5) 0.2673(7) 0.0553(5)
H8 H 0.0932 0.2234 0.0351
C10 C 0.1884(6) 0.3923(7) 0.1158(5)
H9 H 0.2146 0.4357 0.1361
C11 C 0.0802(6) 0.3263(8) 0.0884(5)
H10 H 0.0287 0.3234 0.0891
C12 C 0.1144(5) 0.3885(7) 0.1201(5)
C13 C 0.1184(6) 0.5330(7) 0.1947(5)
H11 H 0.1539 0.5516 0.1628
H12 H 0.0902 0.5828 0.2078
C14 C 0.1589(9) 0.5000 0.2500
Ni1B Ni -0.2500 -0.67636(12) 0.0000
Ni1C Ni 0.2500 0.82364(12) 0.5000
Cl1D Cl 0.34328(14) 0.17549(19) 0.07804(13)
S1B S -0.07703(15) -0.3922(2) 0.17391(14)
N1B N -0.1916(4) -0.5840(5) 0.0511(4)
N1D N 0.3084(4) 0.0840(5) -0.0511(4)
C1B C -0.1873(6) -0.5888(7) 0.1138(5)
H1B H -0.2114 -0.6339 0.1340
S2C S 0.05803(16) 0.5410(2) 0.34045(15)
N2C N 0.1910(5) 0.7313(5) 0.4499(4)
N2D N 0.3090(5) 0.2687(5) -0.0501(4)
C2B C -0.1560(6) -0.5214(8) 0.0269(5)
H2B H -0.1570 -0.5167 -0.0173
C3B C -0.1508(5) -0.5332(7) 0.1497(5)
H3B H -0.1489 -0.5404 0.1937
C4B C -0.1179(5) -0.4624(7) 0.0582(5)
H4B H -0.0928 -0.4194 0.0363
C5B C -0.1163(5) -0.4660(7) 0.1220(5)
C6B C -0.0305(6) -0.3210(7) 0.1217(5)
H5B H 0.0091 -0.3510 0.0998
H6B H -0.0647 -0.2995 0.0899
C8C C 0.2244(6) 0.6683(8) 0.4187(5)
H7C H 0.2758 0.6654 0.4206
C9C C 0.1190(5) 0.7327(7) 0.4447(5)
H8C H 0.0932 0.7766 0.4649
C10C C 0.1884(6) 0.6077(7) 0.3842(5)
H9C H 0.2146 0.5643 0.3639
C11C C 0.0802(6) 0.6737(8) 0.4116(5)
H10C H 0.0287 0.6766 0.4109
C12C C 0.1144(5) 0.6115(7) 0.3799(5)
C13C C 0.1184(6) 0.4670(7) 0.3053(5)
H11C H 0.1539 0.4484 0.3372
H12C H 0.0902 0.4172 0.2922
loop_
_geom_bond_atom_site_label_1
_geom_bond_atom_site_label_2
_geom_bond_site_symmetry_1
_geom_bond_site_symmetry_2
Ni1 Cl1 1_555 1_555
S1 C5 1_555 1_555
O1 C7 1_555 1_555
N1 Ni1 1_555 1_555
C1 N1 1_555 1_555
H1 C1 1_555 1_555
S2 C12 1_555 1_555
O2 C14 1_555 1_555
N2 Ni1 1_555 1_555
C2 N1 1_555 1_555
H2 C2 1_555 1_555
C3 C1 1_555 1_555
H3 C3 1_555 1_555
C4 C2 1_555 1_555
H4 C4 1_555 1_555
C5 C3 1_555 1_555
C6 S1 1_555 1_555
H5 C6 1_555 1_555
H6 C6 1_555 1_555
C7 C6 1_555 1_555
C8 N2 1_555 1_555
H7 C8 1_555 1_555
C9 N2 1_555 1_555
H8 C9 1_555 1_555
C10 C8 1_555 1_555
H9 C10 1_555 1_555
C11 C9 1_555 1_555
H10 C11 1_555 1_555
C12 C10 1_555 1_555
C13 S2 1_555 1_555
H11 C13 1_555 1_555
H12 C13 1_555 1_555
C14 C13 1_555 1_555
Ni1B N1B 1_555 1_555
Ni1C N2C 1_555 1_555
Cl1D Ni1 1_555 1_555
S1B C5B 1_555 1_555
N1B C1B 1_555 1_555
N1D Ni1 1_555 1_555
C1B H1B 1_555 1_555
S2C C12C 1_555 1_555
N2C C8C 1_555 1_555
N2D Ni1 1_555 1_555
C2B N1B 1_555 1_555
H2B C2B 1_555 1_555
C3B C1B 1_555 1_555
H3B C3B 1_555 1_555
C4B C2B 1_555 1_555
H4B C4B 1_555 1_555
C5B C3B 1_555 1_555
C6B C7 1_555 1_555
H5B C6B 1_555 1_555
H6B C6B 1_555 1_555
C8C H7C 1_555 1_555
C9C N2C 1_555 1_555
H8C C9C 1_555 1_555
C10C C8C 1_555 1_555
H9C C10C 1_555 1_555
C11C C9C 1_555 1_555
H10C C11C 1_555 1_555
C12C C10C 1_555 1_555
C13C C14 1_555 1_555
H11C C13C 1_555 1_555
H12C C13C 1_555 1_555
C4 C5 1_555 1_555
C11 C12 1_555 1_555
S1B C6B 1_555 1_555
S2C C13C 1_555 1_555
C4B C5B 1_555 1_555
C11C C12C 1_555 1_555

#END
