
#######################################################################
#
#                 Cambridge Crystallographic Data Centre
#                                CCDC 
#
#######################################################################
#
# If this CIF has been generated from an entry in the Cambridge 
# Structural Database, then it will include bibliographic, chemical, 
# crystal, experimental, refinement or atomic coordinate data resulting 
# from the CCDC's data processing and validation procedures.
#
#######################################################################

data_GALFIK
_symmetry_cell_setting           triclinic
_symmetry_space_group_name_H-M   'P -1'
_symmetry_Int_Tables_number      2
_space_group_name_Hall           '-P 1'
loop_
_symmetry_equiv_pos_site_id
_symmetry_equiv_pos_as_xyz
1 x,y,z
2 -x,-y,-z
_cell_length_a                   9.3233(10)
_cell_length_b                   10.1051(11)
_cell_length_c                   23.432(2)
_cell_angle_alpha                78.7510(10)
_cell_angle_beta                 79.3290(10)
_cell_angle_gamma                76.2100(10)
_cell_volume                     2080.37
loop_
_atom_site_label
_atom_site_type_symbol
_atom_site_fract_x
_atom_site_fract_y
_atom_site_fract_z
Zn1 Zn 0.0000 1.0000 0.0000
Zn2 Zn 0.36121(3) 1.03358(3) 0.262488(11)
Zn3 Zn 0.0000 0.5000 0.5000
O1 O -0.02256(18) 1.10899(18) 0.06923(7)
O2 O 0.1182(2) 1.1930(2) 0.11443(10)
O3 O 0.4982(2) 1.0927(2) 0.13001(8)
O4 O 0.3266(2) 0.99246(19) 0.18919(7)
O5 O 0.2204(2) 0.9404(2) 0.31672(7)
O6 O 0.2936(3) 1.0041(3) 0.38933(9)
O7 O 0.3349(2) 0.6590(2) 0.39266(9)
O8 O 0.1977(2) 0.51140(18) 0.44426(8)
N1 N 0.2162(2) 0.9359(2) 0.02405(8)
N2 N -0.0358(2) 0.7160(2) 0.46654(9)
N3 N -0.1017(3) 0.4469(2) 0.42875(9)
N4 N -0.0649(2) 0.8155(2) 0.06156(9)
N5 N 0.3258(2) 1.2411(2) 0.25479(9)
N6 N -0.4255(2) 1.9544(2) 0.27708(8)
C1 C 0.4000(3) 1.0269(2) 0.13928(10)
C2 C 0.3686(3) 0.9675(2) 0.08957(10)
C3 C 0.4827(3) 0.8688(3) 0.06631(11)
H3 H 0.5739 0.8469 0.0804
C4 C 0.4652(3) 0.8014(3) 0.02268(11)
C5 C 0.3276(3) 0.8393(3) 0.00320(10)
H4 H 0.3119 0.7955 -0.0258
C6 C 0.2339(3) 1.0003(2) 0.06680(9)
C7 C 0.0997(3) 1.1108(3) 0.08616(10)
C8 C 0.5879(3) 0.6907(3) -0.00165(13)
H5 H 0.5588 0.6666 -0.0353
H6 H 0.6778 0.7272 -0.0152
C9 C 0.6212(5) 0.5649(4) 0.04201(18)
H7 H 0.6557 0.5870 0.0744
H8 H 0.6972 0.4970 0.0240
H9 H 0.5324 0.5289 0.0560
C10 C 0.2167(3) 0.9461(3) 0.37100(11)
C11 C 0.0904(3) 0.8896(3) 0.41121(10)
C12 C 0.0876(3) 0.7511(3) 0.43334(10)
C13 C -0.1576(3) 0.8124(3) 0.47835(11)
H10 H -0.2415 0.7848 0.5010
C14 C -0.1649(3) 0.9526(3) 0.45830(11)
C15 C -0.0366(3) 0.9878(3) 0.42496(11)
H11 H -0.0357 1.0805 0.4114
C16 C 0.2189(3) 0.6322(3) 0.42235(11)
C17 C -0.3058(3) 1.0607(3) 0.46918(13)
H12 H -0.3668 1.0281 0.5050
H13 H -0.2799 1.1446 0.4744
C18 C -0.3938(4) 1.0918(4) 0.41860(15)
H14 H -0.3308 1.1161 0.3826
H15 H -0.4769 1.1672 0.4246
H16 H -0.4298 1.0117 0.4163
C19 C -0.0088(3) 0.3845(3) 0.38691(12)
H17 H 0.0931 0.3653 0.3887
C20 C -0.0561(3) 0.3468(3) 0.34082(12)
H18 H 0.0134 0.3025 0.3130
C21 C -0.2066(3) 0.3748(3) 0.33610(11)
C22 C -0.3035(3) 0.4375(3) 0.38046(12)
H19 H -0.4060 0.4571 0.3799
C23 C -0.2480(3) 0.4706(3) 0.42533(12)
H20 H -0.3155 0.5114 0.4547
C24 C -0.2624(3) 0.3424(3) 0.28492(12)
H21 H -0.3609 0.3220 0.2982
H22 H -0.1966 0.2603 0.2721
C25 C -0.2713(3) 0.4599(3) 0.23229(12)
H23 H -0.3327 0.4443 0.2061
H24 H -0.3183 0.5466 0.2462
C26 C -0.1176(3) 0.4697(3) 0.19869(13)
H25 H -0.0544 0.4744 0.2265
H26 H -0.0757 0.3852 0.1824
C27 C -0.1103(3) 0.5903(3) 0.14926(12)
C28 C -0.0179(3) 0.5721(3) 0.09630(12)
H27 H 0.0313 0.4840 0.0893
C29 C 0.0003(3) 0.6855(3) 0.05428(13)
H28 H 0.0613 0.6708 0.0189
C30 C -0.1578(3) 0.8324(3) 0.11166(11)
H29 H -0.2066 0.9216 0.1173
C31 C -0.1851(3) 0.7240(3) 0.15565(11)
C32 C -0.3889(3) 1.8330(3) 0.31185(11)
H30 H -0.4646 1.7919 0.3343
C33 C -0.2430(3) 1.7676(3) 0.31532(12)
H31 H -0.2223 1.6838 0.3402
C34 C -0.3138(3) 2.0131(2) 0.24733(11)
H32 H -0.3375 2.0991 0.2243
C35 C -0.1654(3) 1.9529(3) 0.24901(12)
H33 H -0.0918 1.9984 0.2278
C36 C -0.1262(3) 1.8239(2) 0.28248(11)
C37 C 0.0330(3) 1.7457(3) 0.28282(12)
H34 H 0.0326 1.6486 0.2958
H35 H 0.0750 1.7764 0.3116
C38 C 0.1338(3) 1.7607(3) 0.22476(13)
H36 H 0.1349 1.8576 0.2113
H37 H 0.0944 1.7280 0.1959
C39 C 0.3433(3) 1.3033(3) 0.29776(11)
H38 H 0.3634 1.2492 0.3335
C40 C 0.3331(3) 1.4429(3) 0.29179(12)
H39 H 0.3443 1.4816 0.3232
C41 C 0.3061(3) 1.5262(3) 0.23872(12)
C42 C 0.2857(3) 1.4617(3) 0.19463(12)
H40 H 0.2653 1.5138 0.1586
C43 C 0.2953(3) 1.3217(3) 0.20358(12)
H41 H 0.2803 1.2812 0.1734
C44 C 0.2939(3) 1.6799(3) 0.22922(15)
H42 H 0.3583 1.7065 0.1933
H43 H 0.3286 1.7041 0.2616
Zn2A Zn -0.36121(3) 0.96642(3) -0.262488(11)
Zn2_2 Zn -0.63879(3) 2.03358(3) 0.262488(11)
Zn2_3 Zn 1.36121(3) 0.03358(3) 0.262488(11)
Zn2A_2 Zn -0.36121(3) -0.03358(3) 0.737512(11)
Zn3_2 Zn 0.0000 1.5000 -0.5000
O1A O 0.02256(18) 0.89101(18) -0.06923(7)
O2A O -0.1182(2) 0.8070(2) -0.11443(10)
O3A O -0.4982(2) 0.9073(2) -0.13001(8)
O4A O -0.3266(2) 1.00754(19) -0.18919(7)
O5A O -0.2204(2) 0.0596(2) 0.68328(7)
O5A_2 O -0.2204(2) 1.0596(2) -0.31672(7)
O6A O -0.2936(3) -0.0041(3) 0.61067(9)
O7A O -0.3349(2) 0.3410(2) 0.60734(9)
O8A O -0.1977(2) 0.48860(18) 0.55574(8)
N1A N -0.2162(2) 1.0641(2) -0.02405(8)
N2A N 0.0358(2) 0.2840(2) 0.53346(9)
N3A N 0.1017(3) 1.5531(2) -0.42875(9)
N3A_2 N 0.1017(3) 0.5531(2) 0.57125(9)
N4A N 0.0649(2) 1.1845(2) -0.06156(9)
N5_2 N 1.3258(2) 0.2411(2) 0.25479(9)
N5A N -0.3258(2) 0.7589(2) -0.25479(9)
N6_2 N 0.5745(2) 0.9544(2) 0.27708(8)
N6A N -0.5745(2) 1.0456(2) -0.27708(8)
C1A C -0.4000(3) 0.9731(2) -0.13928(10)
C2A C -0.3686(3) 1.0325(2) -0.08957(10)
C3A C -0.4827(3) 1.1312(3) -0.06631(11)
H3A H -0.5739 1.1531 -0.0804
C4A C -0.4652(3) 1.1986(3) -0.02268(11)
C5A C -0.3276(3) 1.1607(3) -0.00320(10)
H4A H -0.3119 1.2045 0.0258
C6A C -0.2339(3) 0.9997(2) -0.06680(9)
C7A C -0.0997(3) 0.8892(3) -0.08616(10)
C8A C -0.5879(3) 1.3093(3) 0.00165(13)
H5A H -0.5588 1.3334 0.0353
H6A H -0.6778 1.2728 0.0152
C9A C -0.6212(5) 1.4351(4) -0.04201(18)
H7A H -0.6557 1.4130 -0.0744
H8A H -0.6972 1.5030 -0.0240
H9A H -0.5324 1.4711 -0.0560
C10A C -0.2167(3) 0.0539(3) 0.62900(11)
C11A C -0.0904(3) 0.1104(3) 0.58879(10)
C12A C -0.0876(3) 0.2489(3) 0.56666(10)
C13A C 0.1576(3) 0.1876(3) 0.52165(11)
H10A H 0.2415 0.2152 0.4990
C14A C 0.1649(3) 0.0474(3) 0.54170(11)
C15A C 0.0366(3) 0.0122(3) 0.57504(11)
H11A H 0.0357 -0.0805 0.5886
C16A C -0.2189(3) 0.3678(3) 0.57765(11)
C17A C 0.3058(3) -0.0607(3) 0.53082(13)
H12A H 0.3668 -0.0281 0.4950
H13A H 0.2799 -0.1446 0.5256
C18A C 0.3938(4) -0.0918(4) 0.58140(15)
H14A H 0.3308 -0.1161 0.6174
H15A H 0.4769 -0.1672 0.5754
H16A H 0.4298 -0.0117 0.5837
C19A C 0.0088(3) 1.6155(3) -0.38691(12)
H17A H -0.0931 1.6347 -0.3887
C20A C 0.0561(3) 1.6532(3) -0.34082(12)
H18A H -0.0134 1.6975 -0.3130
C21A C 0.2066(3) 1.6252(3) -0.33610(11)
C22A C 0.3035(3) 1.5625(3) -0.38046(12)
H19A H 0.4060 1.5429 -0.3799
C23A C 0.2480(3) 1.5294(3) -0.42533(12)
H20A H 0.3155 1.4886 -0.4547
C24A C 0.2624(3) 1.6576(3) -0.28492(12)
H21A H 0.3609 1.6780 -0.2982
H22A H 0.1966 1.7397 -0.2721
C25A C 0.2713(3) 1.5401(3) -0.23229(12)
H23A H 0.3327 1.5557 -0.2061
H24A H 0.3183 1.4534 -0.2462
C26A C 0.1176(3) 1.5303(3) -0.19869(13)
H25A H 0.0544 1.5256 -0.2265
H26A H 0.0757 1.6148 -0.1824
C27A C 0.1103(3) 1.4097(3) -0.14926(12)
C28A C 0.0179(3) 1.4279(3) -0.09630(12)
H27A H -0.0313 1.5160 -0.0893
C29A C -0.0003(3) 1.3145(3) -0.05428(13)
H28A H -0.0613 1.3292 -0.0189
C30A C 0.1578(3) 1.1676(3) -0.11166(11)
H29A H 0.2066 1.0784 -0.1173
C31A C 0.1851(3) 1.2760(3) -0.15565(11)
C32_2 C 0.6111(3) 0.8330(3) 0.31185(11)
H30_2 H 0.5354 0.7919 0.3343
C33_2 C 0.7570(3) 0.7676(3) 0.31532(12)
H31_2 H 0.7777 0.6838 0.3402
C34_2 C 0.6862(3) 1.0131(2) 0.24733(11)
H32_2 H 0.6625 1.0991 0.2243
C35_2 C 0.8346(3) 0.9529(3) 0.24901(12)
H33_2 H 0.9082 0.9984 0.2278
C36_2 C 0.8738(3) 0.8239(2) 0.28248(11)
C37_2 C 1.0330(3) 0.7457(3) 0.28282(12)
H34_2 H 1.0326 0.6486 0.2958
H35_2 H 1.0750 0.7764 0.3116
C38_2 C 1.1338(3) 0.7607(3) 0.22476(13)
H36_2 H 1.1349 0.8576 0.2113
H37_2 H 1.0944 0.7280 0.1959
C39_2 C 1.3433(3) 0.3033(3) 0.29776(11)
H38_2 H 1.3634 0.2492 0.3335
C40_2 C 1.3331(3) 0.4429(3) 0.29179(12)
H39_2 H 1.3443 0.4816 0.3232
C41_2 C 1.3061(3) 0.5262(3) 0.23872(12)
C42_2 C 1.2857(3) 0.4617(3) 0.19463(12)
H40_2 H 1.2653 0.5138 0.1586
C43_2 C 1.2953(3) 0.3217(3) 0.20358(12)
H41_2 H 1.2803 0.2812 0.1734
C44_2 C 1.2939(3) 0.6799(3) 0.22922(15)
H42_2 H 1.3583 0.7065 0.1933
H43_2 H 1.3286 0.7041 0.2616
O9 O 0.7119(3) 0.2617(2) 0.13235(10)
H1 H 0.6420 0.2122 0.1311
H2 H 0.8037 0.2283 0.1120
loop_
_geom_bond_atom_site_label_1
_geom_bond_atom_site_label_2
_geom_bond_site_symmetry_1
_geom_bond_site_symmetry_2
Zn1 O1 1_555 1_555
Zn2 O4 1_555 1_555
Zn3 O8 1_555 1_555
O1 C7 1_555 1_555
O2 C7 1_555 1_555
O3 C1 1_555 1_555
O4 C1 1_555 1_555
O5 Zn2 1_555 1_555
O6 C10 1_555 1_555
O7 C16 1_555 1_555
O8 C16 1_555 1_555
O9 H1 1_555 1_555
H2 O9 1_555 1_555
N1 Zn1 1_555 1_555
N2 Zn3 1_555 1_555
N3 Zn3 1_555 1_555
N4 Zn1 1_555 1_555
N5 Zn2 1_555 1_555
N6 C32 1_555 1_555
C1 C2 1_555 1_555
C2 C3 1_555 1_555
C3 H3 1_555 1_555
C4 C3 1_555 1_555
C5 N1 1_555 1_555
H4 C5 1_555 1_555
C6 N1 1_555 1_555
C7 C6 1_555 1_555
C8 C4 1_555 1_555
H5 C8 1_555 1_555
H6 C8 1_555 1_555
C9 C8 1_555 1_555
H7 C9 1_555 1_555
H8 C9 1_555 1_555
H9 C9 1_555 1_555
C10 O5 1_555 1_555
C11 C10 1_555 1_555
C12 N2 1_555 1_555
C13 N2 1_555 1_555
H10 C13 1_555 1_555
C14 C13 1_555 1_555
C15 C11 1_555 1_555
H11 C15 1_555 1_555
C16 C12 1_555 1_555
C17 C14 1_555 1_555
H12 C17 1_555 1_555
H13 C17 1_555 1_555
C18 C17 1_555 1_555
H14 C18 1_555 1_555
H15 C18 1_555 1_555
H16 C18 1_555 1_555
C19 N3 1_555 1_555
H17 C19 1_555 1_555
C20 C19 1_555 1_555
H18 C20 1_555 1_555
C21 C20 1_555 1_555
C22 C21 1_555 1_555
H19 C22 1_555 1_555
C23 N3 1_555 1_555
H20 C23 1_555 1_555
C24 C21 1_555 1_555
H21 C24 1_555 1_555
H22 C24 1_555 1_555
C25 C24 1_555 1_555
H23 C25 1_555 1_555
H24 C25 1_555 1_555
C26 C25 1_555 1_555
H25 C26 1_555 1_555
H26 C26 1_555 1_555
C27 C26 1_555 1_555
C28 C27 1_555 1_555
H27 C28 1_555 1_555
C29 N4 1_555 1_555
H28 C29 1_555 1_555
C30 N4 1_555 1_555
H29 C30 1_555 1_555
C31 C27 1_555 1_555
C32 H30 1_555 1_555
C33 C32 1_555 1_555
H31 C33 1_555 1_555
C34 N6 1_555 1_555
H32 C34 1_555 1_555
C35 C34 1_555 1_555
H33 C35 1_555 1_555
C36 C33 1_555 1_555
C37 C36 1_555 1_555
H34 C37 1_555 1_555
H35 C37 1_555 1_555
C38 C37 1_555 1_555
H36 C38 1_555 1_555
H37 C38 1_555 1_555
C39 N5 1_555 1_555
H38 C39 1_555 1_555
C40 C39 1_555 1_555
H39 C40 1_555 1_555
C41 C40 1_555 1_555
C42 C41 1_555 1_555
H40 C42 1_555 1_555
C43 N5 1_555 1_555
H41 C43 1_555 1_555
C44 C38 1_555 1_555
H42 C44 1_555 1_555
H43 C44 1_555 1_555
Zn2A O4A 1_555 1_555
Zn2_2 N6 1_555 1_555
Zn2_3 N5_2 1_555 1_555
Zn2A_2 O5A 1_555 1_555
Zn3_2 N3A 1_555 1_555
O1A Zn1 1_555 1_555
O2A C7A 1_555 1_555
O3A C1A 1_555 1_555
O4A C1A 1_555 1_555
O5A C10A 1_555 1_555
O5A_2 Zn2A 1_555 1_555
O6A C10A 1_555 1_555
O7A C16A 1_555 1_555
O8A Zn3 1_555 1_555
N1A Zn1 1_555 1_555
N2A Zn3 1_555 1_555
N3A C19A 1_555 1_555
N3A_2 Zn3 1_555 1_555
N4A Zn1 1_555 1_555
N5_2 C39_2 1_555 1_555
N5A Zn2A 1_555 1_555
N6_2 Zn2 1_555 1_555
N6A Zn2A 1_555 1_555
C1A C2A 1_555 1_555
C2A C3A 1_555 1_555
C3A H3A 1_555 1_555
C4A C3A 1_555 1_555
C5A N1A 1_555 1_555
H4A C5A 1_555 1_555
C6A N1A 1_555 1_555
C7A O1A 1_555 1_555
C8A C4A 1_555 1_555
H5A C8A 1_555 1_555
H6A C8A 1_555 1_555
C9A C8A 1_555 1_555
H7A C9A 1_555 1_555
H8A C9A 1_555 1_555
H9A C9A 1_555 1_555
C10A C11A 1_555 1_555
C11A C12A 1_555 1_555
C12A N2A 1_555 1_555
C13A N2A 1_555 1_555
H10A C13A 1_555 1_555
C14A C13A 1_555 1_555
C15A C11A 1_555 1_555
H11A C15A 1_555 1_555
C16A O8A 1_555 1_555
C17A C14A 1_555 1_555
H12A C17A 1_555 1_555
H13A C17A 1_555 1_555
C18A C17A 1_555 1_555
H14A C18A 1_555 1_555
H15A C18A 1_555 1_555
H16A C18A 1_555 1_555
C19A H17A 1_555 1_555
C20A C19A 1_555 1_555
H18A C20A 1_555 1_555
C21A C20A 1_555 1_555
C22A C21A 1_555 1_555
H19A C22A 1_555 1_555
C23A N3A 1_555 1_555
H20A C23A 1_555 1_555
C24A C21A 1_555 1_555
H21A C24A 1_555 1_555
H22A C24A 1_555 1_555
C25A C24A 1_555 1_555
H23A C25A 1_555 1_555
H24A C25A 1_555 1_555
C26A C25A 1_555 1_555
H25A C26A 1_555 1_555
H26A C26A 1_555 1_555
C27A C26A 1_555 1_555
C28A C27A 1_555 1_555
H27A C28A 1_555 1_555
C29A N4A 1_555 1_555
H28A C29A 1_555 1_555
C30A N4A 1_555 1_555
H29A C30A 1_555 1_555
C31A C27A 1_555 1_555
C32_2 N6_2 1_555 1_555
H30_2 C32_2 1_555 1_555
C33_2 C32_2 1_555 1_555
H31_2 C33_2 1_555 1_555
C34_2 N6_2 1_555 1_555
H32_2 C34_2 1_555 1_555
C35_2 C34_2 1_555 1_555
H33_2 C35_2 1_555 1_555
C36_2 C33_2 1_555 1_555
C37_2 C36_2 1_555 1_555
H34_2 C37_2 1_555 1_555
H35_2 C37_2 1_555 1_555
C38_2 C37_2 1_555 1_555
H36_2 C38_2 1_555 1_555
H37_2 C38_2 1_555 1_555
C39_2 H38_2 1_555 1_555
C40_2 C39_2 1_555 1_555
H39_2 C40_2 1_555 1_555
C41_2 C40_2 1_555 1_555
C42_2 C41_2 1_555 1_555
H40_2 C42_2 1_555 1_555
C43_2 N5_2 1_555 1_555
H41_2 C43_2 1_555 1_555
C44_2 C38_2 1_555 1_555
H42_2 C44_2 1_555 1_555
H43_2 C44_2 1_555 1_555
C2 C6 1_555 1_555
C4 C5 1_555 1_555
C11 C12 1_555 1_555
C14 C15 1_555 1_555
C22 C23 1_555 1_555
C28 C29 1_555 1_555
C30 C31 1_555 1_555
C35 C36 1_555 1_555
C41 C44 1_555 1_555
C42 C43 1_555 1_555
C2A C6A 1_555 1_555
C4A C5A 1_555 1_555
C6A C7A 1_555 1_555
C12A C16A 1_555 1_555
C14A C15A 1_555 1_555
C22A C23A 1_555 1_555
C28A C29A 1_555 1_555
C30A C31A 1_555 1_555
C35_2 C36_2 1_555 1_555
C41_2 C44_2 1_555 1_555
C42_2 C43_2 1_555 1_555

#END
