
#######################################################################
#
#                 Cambridge Crystallographic Data Centre
#                                CCDC 
#
#######################################################################
#
# If this CIF has been generated from an entry in the Cambridge 
# Structural Database, then it will include bibliographic, chemical, 
# crystal, experimental, refinement or atomic coordinate data resulting 
# from the CCDC's data processing and validation procedures.
#
#######################################################################

data_GALGOR
_symmetry_cell_setting           monoclinic
_symmetry_space_group_name_H-M   'P 21/c'
_symmetry_Int_Tables_number      14
_space_group_name_Hall           '-P 2ybc'
loop_
_symmetry_equiv_pos_site_id
_symmetry_equiv_pos_as_xyz
1 x,y,z
2 -x,1/2+y,1/2-z
3 -x,-y,-z
4 x,1/2-y,1/2+z
_cell_length_a                   24.817(5)
_cell_length_b                   25.609(5)
_cell_length_c                   16.634(3)
_cell_angle_alpha                90
_cell_angle_beta                 90.25(3)
_cell_angle_gamma                90
_cell_volume                     10571.4
loop_
_atom_site_label
_atom_site_type_symbol
_atom_site_fract_x
_atom_site_fract_y
_atom_site_fract_z
Ni1 Ni 0.98608(3) 0.23626(3) 0.73876(5)
Cl1 Cl 1.04058(6) 0.17976(6) 0.65237(10)
Cl2 Cl 0.92520(7) 0.28855(6) 0.82446(10)
Ni2 Ni 1.48295(3) 0.22857(3) 0.75005(5)
Cl3 Cl 1.42493(7) 0.17490(6) 0.66428(10)
Cl4 Cl 1.54469(7) 0.27849(7) 0.83745(10)
N1 N 0.9201(2) 0.2208(2) 0.6634(3)
N2 N 0.7333(2) 0.1935(2) 0.5622(3)
N3 N 0.5480(2) 0.2133(2) 0.6725(3)
C1 C 0.9223(3) 0.2202(3) 0.5819(4)
H1 H 0.9560 0.2266 0.5570
C2 C 0.8790(3) 0.2109(3) 0.5339(4)
H2 H 0.8826 0.2126 0.4772
C3 C 0.8289(3) 0.1989(3) 0.5680(4)
C4 C 0.8269(3) 0.1974(3) 0.6514(4)
H3 H 0.7941 0.1890 0.6775
C5 C 0.8723(3) 0.2082(3) 0.6961(4)
H4 H 0.8698 0.2066 0.7531
C6 C 0.7790(3) 0.1907(3) 0.5193(4)
C7 C 0.7792(3) 0.1821(3) 0.4376(4)
H5 H 0.8125 0.1799 0.4098
C8 C 0.7304(3) 0.1767(3) 0.3950(4)
C9 C 0.6842(3) 0.1804(3) 0.4397(4)
H6 H 0.6501 0.1771 0.4140
C10 C 0.6869(3) 0.1889(3) 0.5223(4)
C11 C 0.5970(3) 0.2022(3) 0.7032(4)
H7 H 0.6008 0.2007 0.7600
C12 C 0.6416(3) 0.1928(3) 0.6570(4)
H8 H 0.6751 0.1844 0.6819
C13 C 0.6378(3) 0.1957(3) 0.5729(4)
C14 C 0.5868(3) 0.2058(3) 0.5411(4)
H9 H 0.5814 0.2061 0.4845
C15 C 0.5439(3) 0.2153(3) 0.5921(4)
H10 H 0.5099 0.2236 0.5690
C16 C 0.7308(3) 0.1700(4) 0.3038(4)
C17 C 0.7454(8) 0.2218(6) 0.2671(7)
H11 H 0.7777 0.2356 0.2936
H12 H 0.7155 0.2463 0.2741
H13 H 0.7525 0.2171 0.2096
C18 C 0.7716(6) 0.1316(8) 0.2795(7)
H14 H 0.8067 0.1415 0.3021
H15 H 0.7739 0.1307 0.2207
H16 H 0.7614 0.0970 0.2995
C19 C 0.6766(4) 0.1517(6) 0.2738(6)
H17 H 0.6712 0.1151 0.2891
H18 H 0.6751 0.1548 0.2151
H19 H 0.6482 0.1732 0.2976
N4 N 0.9659(2) 0.1705(2) 0.8092(3)
N5 N 0.9478(3) -0.0119(2) 0.9129(4)
N6 N 0.9888(2) -0.1960(2) 0.8290(3)
C20 C 0.9587(3) 0.1230(3) 0.7747(4)
H20 H 0.9611 0.1204 0.7178
C21 C 0.9479(3) 0.0780(3) 0.8184(4)
H21 H 0.9429 0.0456 0.7916
C22 C 0.9444(3) 0.0809(3) 0.9011(4)
C23 C 0.9507(3) 0.1295(3) 0.9371(4)
H22 H 0.9475 0.1333 0.9937
C24 C 0.9618(3) 0.1725(3) 0.8891(4)
H23 H 0.9668 0.2053 0.9147
C25 C 0.9331(3) 0.0326(3) 0.9487(4)
C26 C 0.9098(3) 0.0344(3) 1.0246(5)
H24 H 0.9001 0.0671 1.0475
C27 C 0.9007(3) -0.0110(3) 1.0662(5)
C28 C 0.9153(3) -0.0577(3) 1.0299(5)
H25 H 0.9100 -0.0899 1.0571
C29 C 0.9377(3) -0.0570(3) 0.9538(4)
C30 C 1.0111(4) -0.1491(3) 0.8143(5)
H26 H 1.0398 -0.1470 0.7769
C31 C 0.9938(4) -0.1037(3) 0.8519(5)
H27 H 1.0090 -0.0711 0.8368
C32 C 0.9549(3) -0.1052(3) 0.9107(4)
C33 C 0.9330(4) -0.1539(3) 0.9276(6)
H28 H 0.9062 -0.1574 0.9678
C34 C 0.9509(3) -0.1977(3) 0.8847(5)
H29 H 0.9349 -0.2305 0.8964
C35 C 0.8726(4) -0.0128(3) 1.1496(5)
C36 C 0.8204(4) -0.0442(5) 1.1389(7)
H30 H 0.7996 -0.0430 1.1888
H31 H 0.8292 -0.0805 1.1260
H32 H 0.7990 -0.0290 1.0950
C37 C 0.8591(6) 0.0414(4) 1.1791(7)
H33 H 0.8423 0.0391 1.2321
H34 H 0.8342 0.0581 1.1412
H35 H 0.8922 0.0621 1.1830
C38 C 0.9094(4) -0.0395(4) 1.2095(5)
H36 H 0.9425 -0.0190 1.2158
H37 H 0.9184 -0.0745 1.1900
H38 H 0.8912 -0.0422 1.2615
N7 N 1.0514(2) 0.2494(2) 0.8210(3)
N8 N 1.2348(2) 0.2642(2) 0.9374(3)
N9 N 1.4193(2) 0.2442(2) 0.8317(3)
C39 C 1.0923(3) 0.2160(3) 0.8254(4)
H39 H 1.0906 0.1851 0.7939
C40 C 1.1372(3) 0.2240(3) 0.8737(4)
H40 H 1.1660 0.1996 0.8733
C41 C 1.1399(3) 0.2681(3) 0.9230(4)
C42 C 1.0957(3) 0.3019(3) 0.9213(5)
H41 H 1.0950 0.3318 0.9550
C43 C 1.0527(3) 0.2912(3) 0.8697(5)
H42 H 1.0229 0.3145 0.8689
C44 C 1.1884(3) 0.2805(3) 0.9706(4)
C45 C 1.1860(3) 0.3095(3) 1.0412(4)
H43 H 1.1521 0.3197 1.0625
C46 C 1.2339(3) 0.3237(3) 1.0808(4)
C47 C 1.2821(3) 0.3086(3) 1.0439(5)
H44 H 1.3157 0.3183 1.0671
C48 C 1.2810(3) 0.2795(3) 0.9737(4)
C49 C 1.3784(3) 0.2100(3) 0.8397(4)
H45 H 1.3803 0.1780 0.8111
C50 C 1.3345(3) 0.2191(3) 0.8867(4)
H46 H 1.3065 0.1939 0.8897
C51 C 1.3307(3) 0.2654(3) 0.9301(4)
C52 C 1.3747(3) 0.2989(3) 0.9262(5)
H47 H 1.3755 0.3297 0.9581
C53 C 1.4168(3) 0.2873(3) 0.8762(5)
H48 H 1.4458 0.3114 0.8731
C54 C 1.2338(3) 0.3565(3) 1.1570(5)
C55 C 1.1780(4) 0.3583(5) 1.1934(6)
H49 H 1.1643 0.3227 1.1999
H50 H 1.1538 0.3779 1.1578
H51 H 1.1797 0.3755 1.2460
C56 C 1.2564(6) 0.4097(4) 1.1382(6)
H52 H 1.2663 0.4274 1.1884
H53 H 1.2292 0.4304 1.1095
H54 H 1.2884 0.4059 1.1045
C57 C 1.2709(5) 0.3301(5) 1.2208(6)
H55 H 1.2556 0.2963 1.2360
H56 H 1.2735 0.3525 1.2684
H57 H 1.3068 0.3249 1.1981
N10 N 1.5028(2) 0.1616(2) 0.8173(3)
N11 N 1.5543(3) -0.0178(2) 0.9106(4)
N12 N 1.5380(2) -0.2028(2) 0.8173(3)
C58 C 1.5134(3) 0.1159(3) 0.7809(4)
H58 H 1.5075 0.1132 0.7246
C59 C 1.5324(3) 0.0724(3) 0.8221(5)
H59 H 1.5396 0.0410 0.7936
C60 C 1.5409(3) 0.0744(3) 0.9043(4)
C61 C 1.5291(3) 0.1215(3) 0.9422(4)
H60 H 1.5337 0.1249 0.9987
C62 C 1.5107(3) 0.1636(3) 0.8973(4)
H61 H 1.5032 0.1954 0.9244
C63 C 1.5618(3) 0.0285(3) 0.9486(5)
C64 C 1.5872(4) 0.0323(3) 1.0228(5)
H62 H 1.5919 0.0656 1.0472
C65 C 1.6058(4) -0.0124(3) 1.0621(6)
C66 C 1.5978(3) -0.0596(3) 1.0226(5)
H63 H 1.6100 -0.0911 1.0467
C67 C 1.5721(3) -0.0610(3) 0.9476(5)
C68 C 1.5771(3) -0.2006(3) 0.8718(6)
H64 H 1.5980 -0.2312 0.8804
C69 C 1.5895(4) -0.1567(3) 0.9173(6)
H65 H 1.6170 -0.1583 0.9571
C70 C 1.5618(3) -0.1109(3) 0.9043(4)
C71 C 1.5215(4) -0.1129(3) 0.8478(5)
H66 H 1.5013 -0.0822 0.8365
C72 C 1.5097(4) -0.1580(3) 0.8071(5)
H67 H 1.4804 -0.1579 0.7701
C73 C 1.6336(4) -0.0079(4) 1.1439(7)
C74 C 1.5979(5) 0.0233(4) 1.2024(7)
H68 H 1.6148 0.0238 1.2557
H69 H 1.5623 0.0069 1.2058
H70 H 1.5939 0.0592 1.1827
C75 C 1.6860(5) 0.0232(5) 1.1325(9)
H71 H 1.6775 0.0578 1.1107
H72 H 1.7095 0.0046 1.0951
H73 H 1.7043 0.0271 1.1844
C76 C 1.6462(9) -0.0616(4) 1.1790(10)
H74 H 1.6642 -0.0830 1.1383
H75 H 1.6126 -0.0787 1.1952
H76 H 1.6698 -0.0577 1.2259
Ni1A Ni 1.01392(3) -0.26374(3) 0.76124(5)
Ni2_2 Ni 0.48295(3) 0.22857(3) 0.75005(5)
Ni2A Ni 1.51705(3) -0.27143(3) 0.74995(5)
N3_2 N 1.5480(2) 0.2133(2) 0.6725(3)
N6A N 1.0112(2) 0.3040(2) 0.6710(3)
N12A N 1.4620(2) 0.2972(2) 0.6827(3)
Cl5 Cl 1.58885(17) 0.06106(13) 1.6099(2)
Cl6 Cl 1.6334(2) 0.0224(2) 1.4435(2)
C77 C 1.5686(6) 0.0017(4) 1.5707(7)
C78 C 1.5883(6) -0.0163(4) 1.4986(6)
C79 C 1.5742(7) -0.0616(6) 1.4671(9)
H77 H 1.5898 -0.0731 1.4181
C80 C 1.5370(7) -0.0918(5) 1.5055(10)
H78 H 1.5254 -0.1233 1.4809
C81 C 1.5153(7) -0.0776(5) 1.5805(10)
H79 H 1.4900 -0.0994 1.6072
C82 C 1.5325(6) -0.0296(5) 1.6145(8)
H80 H 1.5199 -0.0187 1.6657
Cl7 Cl 0.88168(18) -0.05689(15) 1.4903(3)
Cl8 Cl 0.8554(2) 0.06193(18) 1.4530(3)
C83 C 0.9293(2) -0.01612(19) 1.4372(4)
C84 C 0.9216(2) 0.03655(18) 1.4204(3)
C85 C 0.9622(3) 0.0651(2) 1.3836(6)
H81 H 0.9569 0.1011 1.3721
C86 C 1.0105(3) 0.0410(2) 1.3634(6)
H82 H 1.0379 0.0604 1.3373
C87 C 1.0185(2) -0.0113(2) 1.3813(4)
H83 H 1.0520 -0.0275 1.3691
C88 C 0.9776(2) -0.04020(19) 1.4171(4)
H84 H 0.9826 -0.0763 1.4277
Cl11 Cl 0.6655(3) 0.1691(3) 1.0299(5)
Cl12 Cl 0.6613(2) 0.1170(2) 0.8550(4)
C95 C 0.7134(2) 0.1584(2) 0.9645(4)
C96 C 0.7083(2) 0.1345(2) 0.8899(4)
C97 C 0.7541(2) 0.1223(4) 0.8457(4)
H89 H 0.7506 0.1059 0.7947
C98 C 0.8049(2) 0.1341(4) 0.8762(4)
H90 H 0.8361 0.1258 0.8460
C99 C 0.8100(2) 0.1581(4) 0.9508(4)
H91 H 0.8447 0.1662 0.9715
C100 C 0.7642(2) 0.1702(2) 0.9950(4)
H92 H 0.7677 0.1865 1.0460
O1 O 0.7606(8) -0.1294(8) 0.9694(9)
O11 O 0.7221(13) -0.0977(18) 0.867(2)
Cl9? Cl 1.2481(5) -0.0550(5) 1.3659(8)
Cl10? Cl 1.2714(9) 0.0545(12) 1.4246(8)
C89? C 1.2118(13) 0.0012(11) 1.346(2)
C90? C 1.2220(11) 0.0548(13) 1.3647(19)
C91? C 1.1994(11) 0.0977(13) 1.3324(17)
H85? H 1.2119 0.1303 1.3525
C92? C 1.1574(11) 0.1001(17) 1.2690(19)
H86? H 1.1431 0.1316 1.2476
C93? C 1.1403(10) 0.0473(13) 1.2431(17)
H87? H 1.1122 0.0402 1.2056
C94? C 1.1722(12) 0.0083(16) 1.283(2)
H88? H 1.1646 -0.0247 1.2593
Cl13? Cl 0.8079(2) 0.1615(2) 1.0398(3)
Cl14? Cl 0.8157(2) 0.1292(4) 0.8709(4)
C101? C 0.7543(2) 0.1522(2) 0.9754(4)
C102? C 0.7484(2) 0.1353(4) 0.8964(4)
C103? C 0.6992(3) 0.1416(4) 0.8573(5)
H93? H 0.6949 0.1308 0.8030
C104? C 0.6560(3) 0.1639(2) 0.8985(6)
H94? H 0.6223 0.1682 0.8719
C105? C 0.6616(2) 0.1795(2) 0.9766(5)
H95? H 0.6315 0.1931 1.0048
C106? C 0.7107(2) 0.1755(2) 1.0143(5)
H96? H 0.7152 0.1887 1.0673
O2? O 1.2517(14) 0.1860(6) 1.1397(11)
O3? O 0.7884(10) -0.0198(9) 0.9041(13)
O4? O 0.7647(14) -0.0796(11) 0.9431(15)
O5? O 0.7214(15) -0.0164(10) 0.903(2)
O6? O 1.1683(12) -0.0557(8) 1.3172(15)
O7? O 1.6649(12) -0.0399(15) 0.7790(19)
O8? O 1.1068(12) -0.0495(14) 1.3845(16)
O9? O 1.6759(11) -0.132(2) 0.7574(14)
O10? O 0.8771(15) 0.0092(14) 1.440(2)
O12? O 1.0441(10) 0.0375(14) 1.3513(16)
loop_
_geom_bond_atom_site_label_1
_geom_bond_atom_site_label_2
_geom_bond_site_symmetry_1
_geom_bond_site_symmetry_2
Ni1 Cl1 1_555 1_555
Cl2 Ni1 1_555 1_555
Ni2 Cl3 1_555 1_555
Cl4 Ni2 1_555 1_555
N1 Ni1 1_555 1_555
N2 C6 1_555 1_555
N3 C11 1_555 1_555
C1 N1 1_555 1_555
H1 C1 1_555 1_555
C2 C1 1_555 1_555
H2 C2 1_555 1_555
C3 C2 1_555 1_555
C4 C3 1_555 1_555
H3 C4 1_555 1_555
C5 N1 1_555 1_555
H4 C5 1_555 1_555
C6 C3 1_555 1_555
C7 C6 1_555 1_555
H5 C7 1_555 1_555
C8 C7 1_555 1_555
C9 C8 1_555 1_555
H6 C9 1_555 1_555
C10 N2 1_555 1_555
C11 H7 1_555 1_555
C12 C11 1_555 1_555
H8 C12 1_555 1_555
C13 C10 1_555 1_555
C14 C13 1_555 1_555
H9 C14 1_555 1_555
C15 N3 1_555 1_555
H10 C15 1_555 1_555
C16 C8 1_555 1_555
C17 C16 1_555 1_555
H11 C17 1_555 1_555
H12 C17 1_555 1_555
H13 C17 1_555 1_555
C18 C16 1_555 1_555
H14 C18 1_555 1_555
H15 C18 1_555 1_555
H16 C18 1_555 1_555
C19 C16 1_555 1_555
H17 C19 1_555 1_555
H18 C19 1_555 1_555
H19 C19 1_555 1_555
N4 Ni1 1_555 1_555
N5 C25 1_555 1_555
N6 C30 1_555 1_555
C20 N4 1_555 1_555
H20 C20 1_555 1_555
C21 C20 1_555 1_555
H21 C21 1_555 1_555
C22 C21 1_555 1_555
C23 C22 1_555 1_555
H22 C23 1_555 1_555
C24 N4 1_555 1_555
H23 C24 1_555 1_555
C25 C22 1_555 1_555
C26 C25 1_555 1_555
H24 C26 1_555 1_555
C27 C26 1_555 1_555
C28 C27 1_555 1_555
H25 C28 1_555 1_555
C29 N5 1_555 1_555
C30 H26 1_555 1_555
C31 C30 1_555 1_555
H27 C31 1_555 1_555
C32 C29 1_555 1_555
C33 C32 1_555 1_555
H28 C33 1_555 1_555
C34 N6 1_555 1_555
H29 C34 1_555 1_555
C35 C27 1_555 1_555
C36 C35 1_555 1_555
H30 C36 1_555 1_555
H31 C36 1_555 1_555
H32 C36 1_555 1_555
C37 C35 1_555 1_555
H33 C37 1_555 1_555
H34 C37 1_555 1_555
H35 C37 1_555 1_555
C38 C35 1_555 1_555
H36 C38 1_555 1_555
H37 C38 1_555 1_555
H38 C38 1_555 1_555
N7 Ni1 1_555 1_555
N8 C44 1_555 1_555
N9 Ni2 1_555 1_555
C39 N7 1_555 1_555
H39 C39 1_555 1_555
C40 C39 1_555 1_555
H40 C40 1_555 1_555
C41 C40 1_555 1_555
C42 C41 1_555 1_555
H41 C42 1_555 1_555
C43 N7 1_555 1_555
H42 C43 1_555 1_555
C44 C41 1_555 1_555
C45 C44 1_555 1_555
H43 C45 1_555 1_555
C46 C45 1_555 1_555
C47 C46 1_555 1_555
H44 C47 1_555 1_555
C48 N8 1_555 1_555
C49 N9 1_555 1_555
H45 C49 1_555 1_555
C50 C49 1_555 1_555
H46 C50 1_555 1_555
C51 C48 1_555 1_555
C52 C51 1_555 1_555
H47 C52 1_555 1_555
C53 N9 1_555 1_555
H48 C53 1_555 1_555
C54 C46 1_555 1_555
C55 C54 1_555 1_555
H49 C55 1_555 1_555
H50 C55 1_555 1_555
H51 C55 1_555 1_555
C56 C54 1_555 1_555
H52 C56 1_555 1_555
H53 C56 1_555 1_555
H54 C56 1_555 1_555
C57 C54 1_555 1_555
H55 C57 1_555 1_555
H56 C57 1_555 1_555
H57 C57 1_555 1_555
N10 Ni2 1_555 1_555
N11 C63 1_555 1_555
N12 C68 1_555 1_555
C58 N10 1_555 1_555
H58 C58 1_555 1_555
C59 C58 1_555 1_555
H59 C59 1_555 1_555
C60 C59 1_555 1_555
C61 C60 1_555 1_555
H60 C61 1_555 1_555
C62 N10 1_555 1_555
H61 C62 1_555 1_555
C63 C60 1_555 1_555
C64 C63 1_555 1_555
H62 C64 1_555 1_555
C65 C64 1_555 1_555
C66 C65 1_555 1_555
H63 C66 1_555 1_555
C67 N11 1_555 1_555
C68 H64 1_555 1_555
C69 C68 1_555 1_555
H65 C69 1_555 1_555
C70 C67 1_555 1_555
C71 C70 1_555 1_555
H66 C71 1_555 1_555
C72 N12 1_555 1_555
H67 C72 1_555 1_555
C73 C65 1_555 1_555
C74 C73 1_555 1_555
H68 C74 1_555 1_555
H69 C74 1_555 1_555
H70 C74 1_555 1_555
C75 C73 1_555 1_555
H71 C75 1_555 1_555
H72 C75 1_555 1_555
H73 C75 1_555 1_555
C76 C73 1_555 1_555
H74 C76 1_555 1_555
H75 C76 1_555 1_555
H76 C76 1_555 1_555
Cl5 C77 1_555 1_555
Cl6 C78 1_555 1_555
C77 C78 1_555 1_555
C78 C79 1_555 1_555
C79 H77 1_555 1_555
C80 C79 1_555 1_555
H78 C80 1_555 1_555
C81 C80 1_555 1_555
H79 C81 1_555 1_555
C82 C77 1_555 1_555
H80 C82 1_555 1_555
Cl7 C83 1_555 1_555
Cl8 C84 1_555 1_555
C83 C84 1_555 1_555
C84 C85 1_555 1_555
C85 H81 1_555 1_555
C86 C85 1_555 1_555
H82 C86 1_555 1_555
C87 C86 1_555 1_555
H83 C87 1_555 1_555
C88 C83 1_555 1_555
H84 C88 1_555 1_555
Cl11 C95 1_555 1_555
Cl12 C96 1_555 1_555
C95 C96 1_555 1_555
C96 C97 1_555 1_555
C97 H89 1_555 1_555
C98 C97 1_555 1_555
H90 C98 1_555 1_555
C99 C98 1_555 1_555
H91 C99 1_555 1_555
C100 C95 1_555 1_555
H92 C100 1_555 1_555
Ni1A N6 1_555 1_555
Ni2_2 N3 1_555 1_555
Ni2A N12 1_555 1_555
N3_2 Ni2 1_555 1_555
N6A Ni1 1_555 1_555
N12A Ni2 1_555 1_555
C4 C5 1_555 1_555
C9 C10 1_555 1_555
C12 C13 1_555 1_555
C14 C15 1_555 1_555
C23 C24 1_555 1_555
C28 C29 1_555 1_555
C31 C32 1_555 1_555
C33 C34 1_555 1_555
C42 C43 1_555 1_555
C47 C48 1_555 1_555
C50 C51 1_555 1_555
C52 C53 1_555 1_555
C61 C62 1_555 1_555
C66 C67 1_555 1_555
C69 C70 1_555 1_555
C71 C72 1_555 1_555
C81 C82 1_555 1_555
C87 C88 1_555 1_555
C99 C100 1_555 1_555

#END
