
#######################################################################
#
#                 Cambridge Crystallographic Data Centre
#                                CCDC 
#
#######################################################################
#
# If this CIF has been generated from an entry in the Cambridge 
# Structural Database, then it will include bibliographic, chemical, 
# crystal, experimental, refinement or atomic coordinate data resulting 
# from the CCDC's data processing and validation procedures.
#
#######################################################################

data_GALGEH
_symmetry_cell_setting           triclinic
_symmetry_space_group_name_H-M   'P -1'
_symmetry_Int_Tables_number      2
_space_group_name_Hall           '-P 1'
loop_
_symmetry_equiv_pos_site_id
_symmetry_equiv_pos_as_xyz
1 x,y,z
2 -x,-y,-z
_cell_length_a                   7.732(3)
_cell_length_b                   12.238(5)
_cell_length_c                   12.394(4)
_cell_angle_alpha                81.707(13)
_cell_angle_beta                 71.83(2)
_cell_angle_gamma                89.722(9)
_cell_volume                     1101.64
loop_
_atom_site_label
_atom_site_type_symbol
_atom_site_fract_x
_atom_site_fract_y
_atom_site_fract_z
Eu1 Eu 0.79891(12) 0.81129(7) 0.96280(7)
Ag1 Ag 1.2725(2) 1.52241(11) 0.39613(11)
O1 O 0.5111(18) 0.5171(10) 0.8025(9)
O2 O 0.3343(17) 0.6388(10) 0.9033(9)
O3 O 0.6381(16) 0.8018(9) 0.8273(9)
O4 O 0.508(2) 0.9523(9) 0.7726(10)
O5 O 0.9926(15) 0.9112(10) 0.7601(9)
O6 O 0.8329(14) 1.0108(8) 0.8887(8)
O7 O 1.1803(15) 1.1107(9) 0.8677(9)
O8 O 1.1443(15) 1.2899(8) 0.8620(9)
O9 O 0.5836(18) 0.6530(10) 1.0278(10)
O10 O 1.1239(16) 0.8587(10) 0.9489(9)
O11 O 0.9922(16) 0.6675(9) 0.8869(9)
O12 O 0.5063(16) 0.8874(10) 1.0734(10)
N1 N 1.1102(18) 1.3735(10) 0.4369(11)
N2 N 0.9926(17) 1.2177(11) 0.4043(11)
H1 H 0.9483 1.1770 0.3748
N3 N 0.4976(19) 0.8514(11) 0.3732(10)
H2 H 0.5120 0.9206 0.3330
N4 N 0.4014(18) 0.6716(10) 0.4081(10)
C1 C 1.072(2) 1.2031(13) 0.7191(13)
C2 C 0.943(2) 1.0051(13) 0.7887(13)
C3 C 0.555(2) 0.8563(13) 0.7661(13)
C4 C 1.136(2) 1.2007(14) 0.8228(14)
C5 C 0.531(2) 0.8612(12) 0.5699(11)
H3 H 0.5692 0.9353 0.5552
C6 C 0.961(2) 1.1041(13) 0.5979(13)
H4 H 0.9100 1.0407 0.5846
C7 C 1.004(2) 1.1961(13) 0.5142(13)
C8 C 0.489(2) 0.8107(11) 0.4858(12)
C9 C 0.994(2) 1.1054(13) 0.7002(13)
C10 C 1.107(2) 1.2970(12) 0.6386(13)
C11 C 0.514(2) 0.7979(14) 0.6759(14)
C12 C 0.431(2) 0.6999(12) 0.5065(12)
C13 C 0.453(2) 0.6843(12) 0.6961(13)
C14 C 1.064(2) 1.3244(14) 0.3619(14)
H5 H 1.0776 1.3582 0.2874
C15 C 0.413(2) 0.6367(13) 0.6101(14)
H6 H 0.3749 0.5627 0.6233
C16 C 0.443(2) 0.7619(14) 0.3351(13)
H7 H 0.4358 0.7659 0.2611
C17 C 1.076(2) 1.2929(12) 0.5358(13)
C18 C 0.427(2) 0.6090(15) 0.8099(16)
Eu1A Eu 1.20109(12) 1.18871(7) 1.03720(7)
Ag1_2 Ag 0.2725(2) 0.52241(11) 0.39613(11)
O7A O 0.8197(15) 0.8893(9) 1.1323(9)
O8A O 0.8557(15) 0.7101(8) 1.1380(9)
N4_2 N 1.4014(18) 1.6716(10) 0.4081(10)
O13 O 0.104(2) 0.5371(10) 0.1294(12)
H8 H 0.0447 0.4867 0.1133
H9 H 0.0448 0.5952 0.1228
loop_
_geom_bond_atom_site_label_1
_geom_bond_atom_site_label_2
_geom_bond_site_symmetry_1
_geom_bond_site_symmetry_2
Eu1 O3 1_555 1_555
Ag1 N1 1_555 1_555
O1 C18 1_555 1_555
O2 C18 1_555 1_555
O3 C3 1_555 1_555
O4 C3 1_555 1_555
O5 Eu1 1_555 1_555
O6 Eu1 1_555 1_555
O7 C4 1_555 1_555
O8 C4 1_555 1_555
O9 Eu1 1_555 1_555
O10 Eu1 1_555 1_555
O11 Eu1 1_555 1_555
O12 Eu1 1_555 1_555
N1 C14 1_555 1_555
N2 H1 1_555 1_555
N3 H2 1_555 1_555
N4 C12 1_555 1_555
C1 C4 1_555 1_555
C2 O5 1_555 1_555
C3 C11 1_555 1_555
C5 H3 1_555 1_555
C6 H4 1_555 1_555
C7 N2 1_555 1_555
C8 N3 1_555 1_555
C9 C1 1_555 1_555
C10 C1 1_555 1_555
C11 C5 1_555 1_555
C12 C8 1_555 1_555
C13 C11 1_555 1_555
C14 N2 1_555 1_555
H5 C14 1_555 1_555
C15 C12 1_555 1_555
H6 C15 1_555 1_555
C16 N3 1_555 1_555
H7 C16 1_555 1_555
C17 N1 1_555 1_555
C18 C13 1_555 1_555
O13 H8 1_555 1_555
H9 O13 1_555 1_555
Eu1A O7 1_555 1_555
Ag1_2 N4 1_555 1_555
O7A Eu1 1_555 1_555
O8A Eu1 1_555 1_555
N4_2 Ag1 1_555 1_555
O6 C2 1_555 1_555
O8 Eu1A 1_555 1_555
N4 C16 1_555 1_555
C2 C9 1_555 1_555
C5 C8 1_555 1_555
C6 C7 1_555 1_555
C6 C9 1_555 1_555
C7 C17 1_555 1_555
C10 C17 1_555 1_555
C13 C15 1_555 1_555

#END
