
#######################################################################
#
#                 Cambridge Crystallographic Data Centre
#                                CCDC 
#
#######################################################################
#
# If this CIF has been generated from an entry in the Cambridge 
# Structural Database, then it will include bibliographic, chemical, 
# crystal, experimental, refinement or atomic coordinate data resulting 
# from the CCDC's data processing and validation procedures.
#
#######################################################################

data_GALGAD
_symmetry_cell_setting           monoclinic
_symmetry_space_group_name_H-M   'C c'
_symmetry_Int_Tables_number      9
_space_group_name_Hall           'C -2yc'
loop_
_symmetry_equiv_pos_site_id
_symmetry_equiv_pos_as_xyz
1 x,y,z
2 x,-y,1/2+z
3 1/2+x,1/2+y,z
4 1/2+x,1/2-y,1/2+z
_cell_length_a                   10.081(2)
_cell_length_b                   22.229(4)
_cell_length_c                   9.4620(19)
_cell_angle_alpha                90
_cell_angle_beta                 114.50(3)
_cell_angle_gamma                90
_cell_volume                     1929.43
loop_
_atom_site_label
_atom_site_type_symbol
_atom_site_fract_x
_atom_site_fract_y
_atom_site_fract_z
O1 O 0.5001(4) 0.16486(14) 0.5483(4)
O2 O 0.3663(3) 0.16447(14) 0.6808(3)
C1 C 0.4070(4) 0.14020(19) 0.5878(5)
Ho1 Ho 0.56258(3) 0.244910(7) 0.73020(3)
Ag1 Ag 0.61533(4) -0.086750(18) 0.91219(4)
O3 O 0.6431(4) 0.16929(16) 0.9191(4)
O4 O 0.8372(3) 0.21688(15) 1.0764(3)
O5 O 0.9643(4) 0.22512(16) 1.3996(4)
O6 O 0.8337(6) 0.17800(18) 1.5015(5)
O7 O 0.1231(4) 0.09870(14) 0.1241(3)
O8 O 0.1782(3) 0.16278(13) 0.3199(3)
O9 O 0.5735(4) 0.29000(15) 0.4957(3)
H1 H 0.6555 0.2992 0.4961
H2 H 0.4955 0.2962 0.4149
O10 O 0.7975(3) 0.22614(17) 0.7418(4)
H3 H 0.8725 0.2384 0.8191
H4 H 0.8070 0.2069 0.6690
N1 N 0.9250(5) -0.04184(17) 1.3764(4)
H5 H 0.9834 -0.0533 1.4680
N2 N 0.7692(4) -0.04701(18) 1.1297(4)
N3 N 0.4675(4) -0.08053(16) 0.6704(4)
N4 N 0.3280(5) -0.10289(18) 0.4253(4)
H6 H 0.2844 -0.1242 0.3430
C2 C 0.8491(6) -0.0774(2) 1.2561(6)
H7 H 0.8523 -0.1192 1.2611
C3 C 0.7945(5) 0.01254(19) 1.1693(5)
C4 C 0.7460(5) 0.0641(2) 1.0812(5)
H8 H 0.6838 0.0616 0.9763
C5 C 0.7912(5) 0.1196(2) 1.1511(5)
C6 C 0.7532(5) 0.17223(19) 1.0420(5)
C7 C 0.8755(5) 0.1234(2) 1.3135(5)
C8 C 0.8929(5) 0.1807(2) 1.4099(5)
C9 C 0.9267(5) 0.0725(2) 1.4006(5)
H9 H 0.9833 0.0748 1.5070
C10 C 0.8918(5) 0.0172(2) 1.3257(5)
C11 C 0.4177(5) -0.1238(2) 0.5661(5)
H10 H 0.4418 -0.1642 0.5875
C12 C 0.3184(5) -0.04123(19) 0.4363(5)
C13 C 0.2434(5) 0.0031(2) 0.3295(5)
H11 H 0.1807 -0.0068 0.2281
C14 C 0.2647(5) 0.06254(18) 0.3788(5)
C15 C 0.1827(4) 0.11155(19) 0.2656(5)
C16 C 0.3609(5) 0.07645(18) 0.5314(5)
C17 C 0.4312(5) 0.0321(2) 0.6392(5)
H12 H 0.4929 0.0417 0.7411
C18 C 0.4059(5) -0.0281(2) 0.5894(5)
Ho1C Ho 1.06258(3) 0.255090(7) 1.23020(3)
Ho1C_2 Ho 0.06258(3) 0.255090(7) 0.23020(3)
O4C O 0.3372(3) 0.28312(15) 0.5764(3)
O5C O 0.4643(4) 0.27488(16) 0.8996(4)
O8C O 0.6782(3) 0.33722(13) 0.8199(3)
O11 O 0.1372(5) 0.7704(3) 0.2429(6)
H13 H 0.1841 0.7848 0.1940
H14 H 0.1827 0.7582 0.3358
loop_
_geom_bond_atom_site_label_1
_geom_bond_atom_site_label_2
_geom_bond_site_symmetry_1
_geom_bond_site_symmetry_2
O1 C1 1_555 1_555
O2 C1 1_555 1_555
C1 C16 1_555 1_555
Ho1 O1 1_555 1_555
Ag1 N2 1_555 1_555
O3 Ho1 1_555 1_555
O4 C6 1_555 1_555
O5 C8 1_555 1_555
O6 C8 1_555 1_555
O7 C15 1_555 1_555
O8 C15 1_555 1_555
O9 Ho1 1_555 1_555
H1 O9 1_555 1_555
H2 O9 1_555 1_555
O10 Ho1 1_555 1_555
H3 O10 1_555 1_555
H4 O10 1_555 1_555
N1 H5 1_555 1_555
N2 C2 1_555 1_555
N3 Ag1 1_555 1_555
N4 H6 1_555 1_555
C2 N1 1_555 1_555
H7 C2 1_555 1_555
C3 N2 1_555 1_555
C4 C3 1_555 1_555
H8 C4 1_555 1_555
C5 C4 1_555 1_555
C6 O3 1_555 1_555
C7 C5 1_555 1_555
C8 C7 1_555 1_555
C9 C7 1_555 1_555
H9 C9 1_555 1_555
C10 N1 1_555 1_555
C11 N3 1_555 1_555
H10 C11 1_555 1_555
C12 N4 1_555 1_555
C13 C12 1_555 1_555
H11 C13 1_555 1_555
C14 C13 1_555 1_555
C15 C14 1_555 1_555
C16 C14 1_555 1_555
C17 C16 1_555 1_555
H12 C17 1_555 1_555
C18 N3 1_555 1_555
O11 H13 1_555 1_555
H14 O11 1_555 1_555
Ho1C O4 1_555 1_555
Ho1C_2 O8 1_555 1_555
O4C Ho1 1_555 1_555
O5C Ho1 1_555 1_555
O8C Ho1 1_555 1_555
O2 Ho1 1_555 1_555
O5 Ho1C 1_555 1_555
N4 C11 1_555 1_555
C3 C10 1_555 1_555
C5 C6 1_555 1_555
C9 C10 1_555 1_555
C12 C18 1_555 1_555
C17 C18 1_555 1_555

#END
