
#######################################################################
#
#                 Cambridge Crystallographic Data Centre
#                                CCDC 
#
#######################################################################
#
# If this CIF has been generated from an entry in the Cambridge 
# Structural Database, then it will include bibliographic, chemical, 
# crystal, experimental, refinement or atomic coordinate data resulting 
# from the CCDC's data processing and validation procedures.
#
#######################################################################

data_GALHOS
_symmetry_cell_setting           orthorhombic
_symmetry_space_group_name_H-M   'F d d d'
_symmetry_Int_Tables_number      70
_space_group_name_Hall           '-F 2uv 2vw'
loop_
_symmetry_equiv_pos_site_id
_symmetry_equiv_pos_as_xyz
1 x,y,z
2 3/4-x,3/4-y,z
3 3/4-x,y,3/4-z
4 x,3/4-y,3/4-z
5 x,1/2+y,1/2+z
6 3/4-x,1/4-y,1/2+z
7 3/4-x,1/2+y,1/4-z
8 x,1/4-y,1/4-z
9 1/2+x,y,1/2+z
10 1/4-x,3/4-y,1/2+z
11 1/4-x,y,1/4-z
12 1/2+x,3/4-y,1/4-z
13 1/2+x,1/2+y,z
14 1/4-x,1/4-y,z
15 1/4-x,1/2+y,3/4-z
16 1/2+x,1/4-y,3/4-z
17 -x,-y,-z
18 1/4+x,1/4+y,-z
19 1/4+x,-y,1/4+z
20 -x,1/4+y,1/4+z
21 -x,1/2-y,1/2-z
22 1/4+x,3/4+y,1/2-z
23 1/4+x,1/2-y,3/4+z
24 -x,3/4+y,3/4+z
25 1/2-x,-y,1/2-z
26 3/4+x,1/4+y,1/2-z
27 3/4+x,-y,3/4+z
28 1/2-x,1/4+y,3/4+z
29 1/2-x,1/2-y,-z
30 3/4+x,3/4+y,-z
31 3/4+x,1/2-y,1/4+z
32 1/2-x,3/4+y,1/4+z
_cell_length_a                   23.760(5)
_cell_length_b                   39.331(8)
_cell_length_c                   40.610(9)
_cell_angle_alpha                90
_cell_angle_beta                 90
_cell_angle_gamma                90
_cell_volume                     37950.2
loop_
_atom_site_label
_atom_site_type_symbol
_atom_site_fract_x
_atom_site_fract_y
_atom_site_fract_z
In1 In 0.1250 0.497220(13) 0.1250
O1 O 0.1366(2) 0.45797(11) 0.08330(12)
O2 O 0.05454(19) 0.46945(10) 0.10110(11)
O3 O -0.1347(3) 0.28550(13) -0.08208(14)
O4 O -0.0528(2) 0.27690(13) -0.10404(13)
C1 C 0.0844(3) 0.45391(16) 0.08222(18)
C2 C 0.0612(3) 0.43006(16) 0.05701(18)
C3 C 0.0934(3) 0.4173(2) 0.0311(2)
H1 H 0.1305 0.4243 0.0287
C4 C 0.0711(4) 0.39474(19) 0.0093(2)
H2 H 0.0941 0.3858 -0.0071
C5 C 0.0144(4) 0.38435(17) 0.01068(18)
C6 C -0.0151(3) 0.39653(18) 0.0360(2)
H3 H -0.0523 0.3895 0.0383
C7 C 0.0071(3) 0.42010(17) 0.06004(17)
H4 H -0.0153 0.4282 0.0771
C8 C -0.0101(4) 0.35985(17) -0.01177(18)
C9 C -0.0634(4) 0.3505(2) -0.0117(2)
H5 H -0.0866 0.3602 0.0042
C10 C -0.0872(4) 0.3284(2) -0.0326(2)
H6 H -0.1248 0.3225 -0.0300
C11 C -0.0571(4) 0.31483(16) -0.05718(19)
C12 C -0.0025(5) 0.3211(2) -0.0564(2)
H7 H 0.0206 0.3098 -0.0713
C13 C 0.0212(4) 0.3432(3) -0.0350(2)
H8 H 0.0597 0.3472 -0.0362
C14 C -0.0817(4) 0.29096(17) -0.0829(2)
In1W In -0.1250 0.247220(13) -0.1250
In1U In 0.3750 0.247220(13) 0.3750
O1J O 0.1134(2) 0.45797(11) 0.16670(12)
O2J O 0.19546(19) 0.46945(10) 0.14890(11)
O3J O 0.3847(3) 0.28550(13) 0.33208(14)
O3Q O 0.1153(3) 0.53550(13) 0.08208(14)
O3S O 0.1347(3) 0.53550(13) 0.16792(14)
O4J O 0.3028(2) 0.27690(13) 0.35404(13)
O4Q O 0.1972(2) 0.52690(13) 0.10404(13)
O4S O 0.0528(2) 0.52690(13) 0.14596(13)
C1J C 0.1656(3) 0.45391(16) 0.16778(18)
C2J C 0.1888(3) 0.43006(16) 0.19299(18)
C3J C 0.1566(3) 0.4173(2) 0.2189(2)
H1J H 0.1195 0.4243 0.2213
C4J C 0.1789(4) 0.39474(19) 0.2407(2)
H2J H 0.1559 0.3858 0.2571
C5J C 0.2356(4) 0.38435(17) 0.23932(18)
C6J C 0.2651(3) 0.39653(18) 0.2140(2)
H3J H 0.3023 0.3895 0.2117
C7J C 0.2429(3) 0.42010(17) 0.18996(17)
H4J H 0.2653 0.4282 0.1729
C8J C 0.2601(4) 0.35985(17) 0.26177(18)
C9J C 0.3134(4) 0.3505(2) 0.2617(2)
H5J H 0.3366 0.3602 0.2458
C10J C 0.3372(4) 0.3284(2) 0.2826(2)
H6J H 0.3748 0.3225 0.2800
C11J C 0.3071(4) 0.31483(16) 0.30718(19)
C12J C 0.2525(5) 0.3211(2) 0.3064(2)
H7J H 0.2294 0.3098 0.3213
C13J C 0.2288(4) 0.3432(3) 0.2850(2)
H8J H 0.1903 0.3472 0.2862
C14J C 0.3317(4) 0.29096(17) 0.3329(2)
In2 In 0.8750 0.3750 0.136647(14)
O5 O 0.7953(2) 0.39897(11) 0.11434(11)
O6 O 0.8786(2) 0.41492(12) 0.09661(13)
O7 O 0.6885(2) 0.59369(11) -0.08835(12)
O8 O 0.6042(2) 0.58543(14) -0.06986(15)
C15 C 0.8266(4) 0.41697(16) 0.09579(18)
C16 C 0.7975(4) 0.44099(17) 0.07183(17)
C17 C 0.7410(3) 0.44095(18) 0.06614(19)
H9 H 0.7183 0.4260 0.0779
C18 C 0.7168(3) 0.4622(2) 0.0438(2)
H10 H 0.6782 0.4614 0.0401
C19 C 0.7502(4) 0.48515(17) 0.02628(18)
C20 C 0.8083(3) 0.4848(2) 0.0311(2)
H11 H 0.8315 0.4989 0.0187
C21 C 0.8306(3) 0.4639(2) 0.0538(2)
H12 H 0.8691 0.4647 0.0577
C22 C 0.7251(4) 0.50957(19) 0.0016(2)
C23 C 0.6686(4) 0.5195(2) 0.0042(2)
H13 H 0.6461 0.5120 0.0216
C24 C 0.6471(4) 0.5413(2) -0.0205(2)
H14 H 0.6090 0.5468 -0.0201
C25 C 0.6807(4) 0.55490(17) -0.04554(18)
C26 C 0.7339(4) 0.54414(18) -0.04654(18)
H15 H 0.7566 0.5524 -0.0634
C27 C 0.7578(3) 0.52174(18) -0.02467(19)
H16 H 0.7949 0.5148 -0.0272
C28 C 0.6535(5) 0.57928(18) -0.06855(19)
In2Z In 0.6250 0.6250 -0.113353(14)
In2V In 1.1250 0.1250 -0.113353(14)
O5A O 0.9547(2) 0.35103(11) 0.11434(11)
O6A O 0.8714(2) 0.33508(12) 0.09661(13)
O7A O 1.0615(2) 0.15631(11) -0.08835(12)
O7R O 0.9385(2) 0.40631(11) 0.16165(12)
O7EA O 0.8115(2) 0.34369(11) 0.16165(12)
O8A O 1.1458(2) 0.16457(14) -0.06986(15)
O8R O 0.8542(2) 0.41457(14) 0.18014(15)
O8EA O 0.8958(2) 0.33543(14) 0.18014(15)
C15A C 0.9234(4) 0.33303(16) 0.09579(18)
C16A C 0.9525(4) 0.30901(17) 0.07183(17)
C17A C 1.0090(3) 0.30905(18) 0.06614(19)
H9A H 1.0317 0.3240 0.0779
C18A C 1.0332(3) 0.2878(2) 0.0438(2)
H10A H 1.0718 0.2886 0.0401
C19A C 0.9998(4) 0.26485(17) 0.02628(18)
C20A C 0.9417(3) 0.2652(2) 0.0311(2)
H11A H 0.9185 0.2511 0.0187
C21A C 0.9194(3) 0.2861(2) 0.0538(2)
H12A H 0.8809 0.2853 0.0577
C22A C 1.0249(4) 0.24043(19) 0.0016(2)
C23A C 1.0814(4) 0.2305(2) 0.0042(2)
H13A H 1.1039 0.2380 0.0216
C24A C 1.1029(4) 0.2087(2) -0.0205(2)
H14A H 1.1410 0.2032 -0.0201
C25A C 1.0693(4) 0.19510(17) -0.04554(18)
C26A C 1.0161(4) 0.20586(18) -0.04654(18)
H15A H 0.9934 0.1976 -0.0634
C27A C 0.9922(3) 0.22826(18) -0.02467(19)
H16A H 0.9551 0.2352 -0.0272
C28A C 1.0965(5) 0.17072(18) -0.06855(19)
N1 N 0.7067(8) 0.3943(4) 0.1651(5)
C29 C 0.6857(7) 0.3663(4) 0.1441(4)
C30 C 0.7277(13) 0.3947(8) 0.1995(5)
N2 N 0.9299(7) 0.4932(4) 0.1219(5)
C31 C 0.9566(11) 0.5175(6) 0.0988(6)
C32 C 0.8863(19) 0.5152(14) 0.1369(14)
O9 O 0.1250 0.6250 0.1250
O10 O 1.0000 0.5000 0.0000
loop_
_geom_bond_atom_site_label_1
_geom_bond_atom_site_label_2
_geom_bond_site_symmetry_1
_geom_bond_site_symmetry_2
In1 O1 1_555 1_555
In2 O5 1_555 1_555
O1 C1 1_555 1_555
O2 In1 1_555 1_555
O3 C14 1_555 1_555
O4 C14 1_555 1_555
C1 O2 1_555 1_555
C2 C1 1_555 1_555
C3 C2 1_555 1_555
H1 C3 1_555 1_555
C4 C3 1_555 1_555
H2 C4 1_555 1_555
C5 C4 1_555 1_555
C6 C5 1_555 1_555
H3 C6 1_555 1_555
C7 C2 1_555 1_555
H4 C7 1_555 1_555
C8 C5 1_555 1_555
C9 C8 1_555 1_555
H5 C9 1_555 1_555
C10 C9 1_555 1_555
H6 C10 1_555 1_555
C11 C10 1_555 1_555
C12 C11 1_555 1_555
H7 C12 1_555 1_555
C13 C8 1_555 1_555
H8 C13 1_555 1_555
C14 C11 1_555 1_555
O5 C15 1_555 1_555
O6 In2 1_555 1_555
O7 C28 1_555 1_555
O8 C28 1_555 1_555
C15 O6 1_555 1_555
C16 C15 1_555 1_555
C17 C16 1_555 1_555
H9 C17 1_555 1_555
C18 C17 1_555 1_555
H10 C18 1_555 1_555
C19 C18 1_555 1_555
C20 C19 1_555 1_555
H11 C20 1_555 1_555
C21 C16 1_555 1_555
H12 C21 1_555 1_555
C22 C19 1_555 1_555
C23 C22 1_555 1_555
H13 C23 1_555 1_555
C24 C23 1_555 1_555
H14 C24 1_555 1_555
C25 C24 1_555 1_555
C26 C25 1_555 1_555
H15 C26 1_555 1_555
C27 C22 1_555 1_555
H16 C27 1_555 1_555
C28 C25 1_555 1_555
N1 C29 1_555 1_555
C30 N1 1_555 1_555
N2 C31 1_555 1_555
C32 N2 1_555 1_555
In1W O3 1_555 1_555
In1U O3J 1_555 1_555
In2Z O7 1_555 1_555
In2V O7A 1_555 1_555
O1J In1 1_555 1_555
O2J In1 1_555 1_555
O3J C14J 1_555 1_555
O3Q In1 1_555 1_555
O3S In1 1_555 1_555
O4J In1U 1_555 1_555
O4Q In1 1_555 1_555
O4S In1 1_555 1_555
C1J O1J 1_555 1_555
C2J C1J 1_555 1_555
C3J C2J 1_555 1_555
H1J C3J 1_555 1_555
C4J C3J 1_555 1_555
H2J C4J 1_555 1_555
C5J C4J 1_555 1_555
C6J C5J 1_555 1_555
H3J C6J 1_555 1_555
C7J C2J 1_555 1_555
H4J C7J 1_555 1_555
C8J C5J 1_555 1_555
C9J C8J 1_555 1_555
H5J C9J 1_555 1_555
C10J C9J 1_555 1_555
H6J C10J 1_555 1_555
C11J C10J 1_555 1_555
C12J C11J 1_555 1_555
H7J C12J 1_555 1_555
C13J C8J 1_555 1_555
H8J C13J 1_555 1_555
C14J O4J 1_555 1_555
O5A In2 1_555 1_555
O6A In2 1_555 1_555
O7A C28A 1_555 1_555
O7R In2 1_555 1_555
O7EA In2 1_555 1_555
O8A In2V 1_555 1_555
O8R In2 1_555 1_555
O8EA In2 1_555 1_555
C15A O5A 1_555 1_555
C16A C15A 1_555 1_555
C17A C16A 1_555 1_555
H9A C17A 1_555 1_555
C18A C17A 1_555 1_555
H10A C18A 1_555 1_555
C19A C18A 1_555 1_555
C20A C19A 1_555 1_555
H11A C20A 1_555 1_555
C21A C16A 1_555 1_555
H12A C21A 1_555 1_555
C22A C19A 1_555 1_555
C23A C22A 1_555 1_555
H13A C23A 1_555 1_555
C24A C23A 1_555 1_555
H14A C24A 1_555 1_555
C25A C24A 1_555 1_555
C26A C25A 1_555 1_555
H15A C26A 1_555 1_555
C27A C22A 1_555 1_555
H16A C27A 1_555 1_555
C28A O8A 1_555 1_555
O4 In1W 1_555 1_555
C6 C7 1_555 1_555
C12 C13 1_555 1_555
O8 In2Z 1_555 1_555
C20 C21 1_555 1_555
C26 C27 1_555 1_555
O2J C1J 1_555 1_555
C6J C7J 1_555 1_555
C11J C14J 1_555 1_555
C12J C13J 1_555 1_555
O6A C15A 1_555 1_555
C20A C21A 1_555 1_555
C25A C28A 1_555 1_555
C26A C27A 1_555 1_555

#END
