
#######################################################################
#
#                 Cambridge Crystallographic Data Centre
#                                CCDC 
#
#######################################################################
#
# If this CIF has been generated from an entry in the Cambridge 
# Structural Database, then it will include bibliographic, chemical, 
# crystal, experimental, refinement or atomic coordinate data resulting 
# from the CCDC's data processing and validation procedures.
#
#######################################################################

data_GALHAE
_symmetry_cell_setting           monoclinic
_symmetry_space_group_name_H-M   'P 21/c'
_symmetry_Int_Tables_number      14
_space_group_name_Hall           '-P 2ybc'
loop_
_symmetry_equiv_pos_site_id
_symmetry_equiv_pos_as_xyz
1 x,y,z
2 -x,1/2+y,1/2-z
3 -x,-y,-z
4 x,1/2-y,1/2+z
_cell_length_a                   13.7314(2)
_cell_length_b                   7.6426(2)
_cell_length_c                   14.8068(3)
_cell_angle_alpha                90
_cell_angle_beta                 96.755(2)
_cell_angle_gamma                90
_cell_volume                     1543.09
loop_
_atom_site_label
_atom_site_type_symbol
_atom_site_fract_x
_atom_site_fract_y
_atom_site_fract_z
O1 O 0.58130(17) -0.3111(3) 0.24445(14)
H4 H 0.596(2) -0.393(3) 0.2082(18)
H5 H 0.6336(19) -0.269(5) 0.277(2)
O2 O 0.26527(17) 0.3868(3) 0.16045(15)
H3 H 0.287(4) 0.386(7) 0.109(2)
H7 H 0.255(4) 0.471(5) 0.198(3)
H1 H -0.084(2) 0.885(5) -0.256(2)
H2 H -0.134(2) 0.729(5) -0.194(2)
O3 O 0.26204(13) 0.7968(3) -0.22770(11)
H10 H 0.3134 0.7529 -0.2042
C1 C 0.20070(16) 0.6022(3) -0.12028(14)
O4 O 0.37068(12) 0.5865(3) -0.12932(11)
C2 C 0.09258(18) 0.7863(4) -0.22134(16)
H11 H 0.0845 0.8692 -0.2676
O5 O 0.31294(14) 0.4483(3) -0.01528(13)
C3 C 0.18566(17) 0.7275(3) -0.18977(15)
C4 C 0.02519(18) 0.5973(4) -0.11451(16)
H12 H -0.0283 0.5529 -0.0888
C6 C 0.11789(19) 0.5403(3) -0.08380(17)
H13 H 0.1259 0.4579 -0.0373
C7 C 0.01035(17) 0.7220(3) -0.18430(16)
C8 C 0.30021(19) 0.5408(3) -0.08524(17)
N2 N -0.08159(17) 0.7793(4) -0.21569(18)
H6 H 0.978(2) 0.133(4) -0.0852(18)
H8 H 0.484(2) 0.055(4) 0.172(2)
H9 H 0.525(2) 0.331(4) 0.0507(19)
Co1 Co 0.5000 0.0000 0.0000
N1 N 0.65676(15) 0.0263(3) -0.00178(15)
C5 C 0.85928(18) 0.0319(3) -0.01504(18)
O6 O 0.48648(12) 0.2700(3) 0.00839(13)
H14 H 0.4283 0.2968 0.0014
C9 C 0.82058(17) -0.0617(4) 0.05328(17)
H15 H 0.8620 -0.1239 0.0960
O7 O 0.52411(15) -0.0111(2) 0.14432(13)
H16 H 0.5353 -0.1125 0.1605
C10 C 0.72059(17) -0.0620(4) 0.05752(17)
H17 H 0.6963 -0.1260 0.1034
C11 C 0.9646(2) 0.0396(4) -0.0259(2)
C12 C 0.69411(17) 0.1175(4) -0.06668(16)
H18 H 0.6514 0.1799 -0.1082
C13 C 0.79323(18) 0.1234(4) -0.07497(16)
H19 H 0.8156 0.1894 -0.1211
H6B H 1.022(2) -0.133(4) 0.0852(18)
H8B H 0.516(2) -0.055(4) -0.172(2)
H9B H 0.475(2) -0.331(4) -0.0507(19)
Co1_2 Co 1.5000 0.0000 0.0000
N1B N 1.34324(15) -0.0263(3) 0.00178(15)
N1B_2 N 0.34324(15) -0.0263(3) 0.00178(15)
C5B C 1.14072(18) -0.0319(3) 0.01504(18)
O6B O 0.51352(12) -0.2700(3) -0.00839(13)
H14B H 0.5717 -0.2968 -0.0014
C9B C 1.17942(17) 0.0617(4) -0.05328(17)
H15B H 1.1380 0.1239 -0.0960
O7B O 0.47589(15) 0.0111(2) -0.14432(13)
H16B H 0.4647 0.1125 -0.1605
C10B C 1.27941(17) 0.0620(4) -0.05752(17)
H17B H 1.3037 0.1260 -0.1034
C11B C 1.0354(2) -0.0396(4) 0.0259(2)
C12B C 1.30589(17) -0.1175(4) 0.06668(16)
H18B H 1.3486 -0.1799 0.1082
C13B C 1.20677(18) -0.1234(4) 0.07497(16)
H19B H 1.1844 -0.1894 0.1211
loop_
_geom_bond_atom_site_label_1
_geom_bond_atom_site_label_2
_geom_bond_site_symmetry_1
_geom_bond_site_symmetry_2
O1 H4 1_555 1_555
O2 H3 1_555 1_555
H1 N2 1_555 1_555
H2 N2 1_555 1_555
H5 O1 1_555 1_555
H6 C11 1_555 1_555
H7 O2 1_555 1_555
H8 O7 1_555 1_555
H9 O6 1_555 1_555
Co1 N1 1_555 1_555
O3 H10 1_555 1_555
C1 C3 1_555 1_555
O4 C8 1_555 1_555
C2 H11 1_555 1_555
N1 C10 1_555 1_555
O5 C8 1_555 1_555
C3 O3 1_555 1_555
C4 H12 1_555 1_555
C5 C9 1_555 1_555
C6 C1 1_555 1_555
H13 C6 1_555 1_555
C7 C2 1_555 1_555
C8 C1 1_555 1_555
O6 Co1 1_555 1_555
H14 O6 1_555 1_555
C9 H15 1_555 1_555
O7 Co1 1_555 1_555
H16 O7 1_555 1_555
C10 C9 1_555 1_555
H17 C10 1_555 1_555
C11 C5 1_555 1_555
N2 C7 1_555 1_555
C12 N1 1_555 1_555
H18 C12 1_555 1_555
C13 C5 1_555 1_555
H19 C13 1_555 1_555
H6B C11B 1_555 1_555
H8B O7B 1_555 1_555
H9B O6B 1_555 1_555
Co1_2 N1B 1_555 1_555
N1B C10B 1_555 1_555
N1B_2 Co1 1_555 1_555
C5B C9B 1_555 1_555
O6B Co1 1_555 1_555
H14B O6B 1_555 1_555
C9B H15B 1_555 1_555
O7B Co1 1_555 1_555
H16B O7B 1_555 1_555
C10B C9B 1_555 1_555
H17B C10B 1_555 1_555
C11B C11 1_555 1_555
C12B N1B 1_555 1_555
H18B C12B 1_555 1_555
C13B C5B 1_555 1_555
H19B C13B 1_555 1_555
C2 C3 1_555 1_555
C4 C6 1_555 1_555
C4 C7 1_555 1_555
C12 C13 1_555 1_555
C5B C11B 1_555 1_555
C12B C13B 1_555 1_555

#END
