
#######################################################################
#
#                 Cambridge Crystallographic Data Centre
#                                CCDC 
#
#######################################################################
#
# If this CIF has been generated from an entry in the Cambridge 
# Structural Database, then it will include bibliographic, chemical, 
# crystal, experimental, refinement or atomic coordinate data resulting 
# from the CCDC's data processing and validation procedures.
#
#######################################################################

data_GALHIM
_symmetry_cell_setting           monoclinic
_symmetry_space_group_name_H-M   'P 21/c'
_symmetry_Int_Tables_number      14
_space_group_name_Hall           '-P 2ybc'
loop_
_symmetry_equiv_pos_site_id
_symmetry_equiv_pos_as_xyz
1 x,y,z
2 -x,1/2+y,1/2-z
3 -x,-y,-z
4 x,1/2-y,1/2+z
_cell_length_a                   13.7232(3)
_cell_length_b                   7.6423(2)
_cell_length_c                   14.8063(4)
_cell_angle_alpha                90
_cell_angle_beta                 96.804(2)
_cell_angle_gamma                90
_cell_volume                     1541.9
loop_
_atom_site_label
_atom_site_type_symbol
_atom_site_fract_x
_atom_site_fract_y
_atom_site_fract_z
O1 O 0.52472(13) -0.0121(2) 0.14486(12)
O2 O 0.48616(11) 0.2703(2) 0.00796(13)
C1 C 0.96396(17) 0.0397(3) -0.02602(17)
H1 H 0.4964(18) 0.059(3) 0.1727(17)
H2 H 0.4326(13) 0.316(3) 0.0040(17)
H4 H 0.535(2) -0.106(3) 0.1718(18)
H6 H 0.5289(16) 0.320(4) 0.0407(18)
H11 H 0.9802(19) 0.108(4) -0.0754(19)
Zn1 Zn 0.5000 0.0000 0.0000
N1 N 0.65658(13) 0.0260(2) -0.00144(13)
C4 C 0.85984(15) 0.0317(3) -0.01473(16)
C6 C 0.82050(14) -0.0616(3) 0.05318(15)
H15 H 0.8616 -0.1245 0.0959
C8 C 0.72062(14) -0.0608(3) 0.05695(15)
H16 H 0.6964 -0.1245 0.1029
C12 C 0.69422(15) 0.1160(3) -0.06646(15)
H18 H 0.6514 0.1776 -0.1084
C13 C 0.79314(15) 0.1226(3) -0.07478(15)
H19 H 0.8152 0.1885 -0.1211
O1B O 0.47528(13) 0.0121(2) -0.14486(12)
O2B O 0.51384(11) -0.2703(2) -0.00796(13)
C1B C 1.03604(17) -0.0397(3) 0.02602(17)
H1B H 0.5036(18) -0.059(3) -0.1727(17)
H2B H 0.5674(13) -0.316(3) -0.0040(17)
H4B H 0.465(2) 0.106(3) -0.1718(18)
H6B H 0.4711(16) -0.320(4) -0.0407(18)
H11B H 1.0198(19) -0.108(4) 0.0754(19)
Zn1_2 Zn 1.5000 0.0000 0.0000
N1B N 1.34342(13) -0.0260(2) 0.00144(13)
N1B_2 N 0.34342(13) -0.0260(2) 0.00144(13)
C4B C 1.14016(15) -0.0317(3) 0.01473(16)
C6B C 1.17950(14) 0.0616(3) -0.05318(15)
H15B H 1.1384 0.1245 -0.0959
C8B C 1.27938(14) 0.0608(3) -0.05695(15)
H16B H 1.3036 0.1245 -0.1029
C12B C 1.30578(15) -0.1160(3) 0.06646(15)
H18B H 1.3486 -0.1776 0.1084
C13B C 1.20686(15) -0.1226(3) 0.07478(15)
H19B H 1.1848 -0.1885 0.1211
O3 O 0.58088(14) -0.3115(3) 0.24388(13)
H7 H 0.602(2) -0.395(3) 0.217(2)
H8 H 0.6254(19) -0.255(4) 0.274(2)
O4 O 0.73504(15) 0.6141(3) -0.16005(15)
H3 H 0.731(3) 0.526(4) -0.199(2)
H5 H 0.727(2) 0.566(4) -0.1086(14)
H9 H 1.0852(19) 0.127(4) 0.249(2)
H10 H 1.125(2) 0.254(4) 0.1875(18)
O5 O 0.73793(11) 0.2037(2) 0.22777(11)
H12 H 0.6866 0.2477 0.2042
C2 C 0.79972(14) 0.3981(3) 0.12035(14)
O6 O 0.62953(10) 0.4134(2) 0.13020(11)
C3 C 0.90738(15) 0.2144(3) 0.22111(15)
H13 H 0.9155 0.1313 0.2672
O7 O 0.68697(11) 0.5512(2) 0.01506(12)
C5 C 0.88228(16) 0.4591(3) 0.08397(16)
H14 H 0.8741 0.5403 0.0369
C7 C 0.81451(14) 0.2730(3) 0.19002(14)
C9 C 0.98958(14) 0.2783(3) 0.18433(15)
C10 C 0.70032(15) 0.4592(3) 0.08442(16)
C11 C 0.97534(15) 0.4039(3) 0.11497(15)
H17 H 1.0290 0.4497 0.0900
N2 N 1.08146(15) 0.2207(3) 0.21556(18)
loop_
_geom_bond_atom_site_label_1
_geom_bond_atom_site_label_2
_geom_bond_site_symmetry_1
_geom_bond_site_symmetry_2
O1 H1 1_555 1_555
O2 H2 1_555 1_555
O3 H7 1_555 1_555
O4 H3 1_555 1_555
C1 H11 1_555 1_555
H4 O1 1_555 1_555
H5 O4 1_555 1_555
H6 O2 1_555 1_555
H8 O3 1_555 1_555
H9 N2 1_555 1_555
H10 N2 1_555 1_555
Zn1 O1 1_555 1_555
O5 H12 1_555 1_555
C2 C5 1_555 1_555
O6 C10 1_555 1_555
N1 Zn1 1_555 1_555
C3 H13 1_555 1_555
C4 C1 1_555 1_555
O7 C10 1_555 1_555
C5 H14 1_555 1_555
C6 C4 1_555 1_555
H15 C6 1_555 1_555
C7 O5 1_555 1_555
C8 N1 1_555 1_555
H16 C8 1_555 1_555
C9 C3 1_555 1_555
C10 C2 1_555 1_555
C11 C5 1_555 1_555
H17 C11 1_555 1_555
C12 N1 1_555 1_555
H18 C12 1_555 1_555
N2 C9 1_555 1_555
C13 C4 1_555 1_555
H19 C13 1_555 1_555
O1B Zn1 1_555 1_555
O2B Zn1 1_555 1_555
C1B C1 1_555 1_555
H1B O1B 1_555 1_555
H2B O2B 1_555 1_555
H4B O1B 1_555 1_555
H6B O2B 1_555 1_555
H11B C1B 1_555 1_555
Zn1_2 N1B 1_555 1_555
N1B C8B 1_555 1_555
N1B_2 Zn1 1_555 1_555
C4B C1B 1_555 1_555
C6B C4B 1_555 1_555
H15B C6B 1_555 1_555
C8B C6B 1_555 1_555
H16B C8B 1_555 1_555
C12B N1B 1_555 1_555
H18B C12B 1_555 1_555
C13B C4B 1_555 1_555
H19B C13B 1_555 1_555
O2 Zn1 1_555 1_555
C2 C7 1_555 1_555
C3 C7 1_555 1_555
C6 C8 1_555 1_555
C9 C11 1_555 1_555
C12 C13 1_555 1_555
C12B C13B 1_555 1_555

#END
