
#######################################################################
#
#                 Cambridge Crystallographic Data Centre
#                                CCDC 
#
#######################################################################
#
# If this CIF has been generated from an entry in the Cambridge 
# Structural Database, then it will include bibliographic, chemical, 
# crystal, experimental, refinement or atomic coordinate data resulting 
# from the CCDC's data processing and validation procedures.
#
#######################################################################

data_GALJUZ
_symmetry_cell_setting           monoclinic
_symmetry_space_group_name_H-M   'C 2/c'
_symmetry_Int_Tables_number      15
_space_group_name_Hall           '-C 2yn'
loop_
_symmetry_equiv_pos_site_id
_symmetry_equiv_pos_as_xyz
1 x,y,z
2 1/2+x,1/2+y,z
3 -x,y,1/2-z
4 1/2-x,1/2+y,1/2-z
5 -x,-y,-z
6 1/2-x,1/2-y,-z
7 x,-y,1/2+z
8 1/2+x,1/2-y,1/2+z
_cell_length_a                   17.630(4)
_cell_length_b                   13.670(3)
_cell_length_c                   25.111(5)
_cell_angle_alpha                90
_cell_angle_beta                 106.61(3)
_cell_angle_gamma                90
_cell_volume                     5799.28
loop_
_atom_site_label
_atom_site_type_symbol
_atom_site_fract_x
_atom_site_fract_y
_atom_site_fract_z
Mo1 Mo -0.07075(3) 0.23382(4) 0.29077(2)
Mo2 Mo 0.08172(3) -0.00417(4) 0.17263(2)
Mo3 Mo 0.0000 -0.14791(6) 0.2500
Cu1 Cu 0.0000 0.0000 0.0000
P1 P 0.09401(8) 0.06898(11) 0.30927(6)
O1 O -0.0186(3) 0.2782(4) 0.3550(2)
O2 O 0.0899(2) -0.0156(3) 0.26760(17)
O3 O 0.1431(3) 0.0350(4) 0.36906(18)
O4 O -0.1458(3) 0.3172(3) 0.2692(2)
O5 O 0.0469(2) 0.0044(3) 0.10058(18)
O6 O 0.0110(2) 0.0936(3) 0.31355(17)
O7 O 0.0792(3) -0.2249(4) 0.2737(2)
O8 O 0.1294(2) 0.1600(3) 0.29217(17)
O9 O 0.0000 0.2719(5) 0.2500
O10 O -0.1285(2) 0.1264(3) 0.31126(17)
O11 O 0.0116(3) -0.1060(3) 0.17994(18)
O12 O 0.1685(3) -0.0659(4) 0.1850(2)
N1 N 0.0822(3) 0.1071(4) -0.0005(2)
N2 N 0.0867(3) -0.1004(4) 0.0026(2)
C1 C 0.1028(4) 0.1192(6) -0.0466(3)
H1 H 0.0731 0.0891 -0.0791
C2 C 0.1679(5) 0.1758(6) -0.0479(3)
H2 H 0.1806 0.1833 -0.0812
C3 C 0.2141(3) 0.2209(5) -0.0002(3)
C4 C 0.1902(5) 0.2099(6) 0.0469(3)
H3 H 0.2175 0.2411 0.0797
C5 C 0.1256(4) 0.1526(5) 0.0454(3)
H4 H 0.1113 0.1450 0.0780
C6 C 0.1532(4) -0.1051(6) 0.0465(3)
H5 H 0.1554 -0.0672 0.0777
C7 C 0.2170(4) -0.1629(6) 0.0469(3)
H6 H 0.2611 -0.1640 0.0779
C8 C 0.2155(3) -0.2194(5) 0.0009(2)
C9 C 0.1459(4) -0.2159(6) -0.0436(3)
H7 H 0.1416 -0.2543 -0.0749
C10 C 0.0845(4) -0.1566(5) -0.0415(3)
H8 H 0.0395 -0.1553 -0.0718
Mo1B Mo 0.07075(3) 0.23382(4) 0.20923(2)
Mo2B Mo -0.08172(3) -0.00417(4) 0.32737(2)
Cu1A Cu 0.5000 0.5000 0.0000
Cu1A_2 Cu 0.5000 -0.5000 0.0000
Cu1F Cu 0.0000 0.0000 0.5000
P1B P -0.09401(8) 0.06898(11) 0.19073(6)
O1B O 0.0186(3) 0.2782(4) 0.1450(2)
O2B O -0.0899(2) -0.0156(3) 0.23240(17)
O3B O -0.1431(3) 0.0350(4) 0.13094(18)
O4B O 0.1458(3) 0.3172(3) 0.2308(2)
O5B O -0.0469(2) 0.0044(3) 0.39942(18)
O5D O -0.0469(2) -0.0044(3) -0.10058(18)
O6B O -0.0110(2) 0.0936(3) 0.18645(17)
O7B O -0.0792(3) -0.2249(4) 0.2263(2)
O8B O -0.1294(2) 0.1600(3) 0.20783(17)
O10B O 0.1285(2) 0.1264(3) 0.18874(17)
O11B O -0.0116(3) -0.1060(3) 0.32006(18)
O12B O -0.1685(3) -0.0659(4) 0.3150(2)
N1E N 0.4178(3) 0.3929(4) 0.0005(2)
N1D N -0.0822(3) -0.1071(4) 0.0005(2)
N2E N 0.4133(3) -0.3996(4) -0.0026(2)
N2D N -0.0867(3) 0.1004(4) -0.0026(2)
C1E C 0.3972(4) 0.3808(6) 0.0466(3)
H1E H 0.4269 0.4109 0.0791
C2E C 0.3321(5) 0.3242(6) 0.0479(3)
H2E H 0.3194 0.3167 0.0812
C3E C 0.2859(3) 0.2791(5) 0.0002(3)
C4E C 0.3098(5) 0.2901(6) -0.0469(3)
H3E H 0.2825 0.2589 -0.0797
C5E C 0.3744(4) 0.3474(5) -0.0454(3)
H4E H 0.3887 0.3550 -0.0780
C6E C 0.3468(4) -0.3949(6) -0.0465(3)
H5E H 0.3446 -0.4328 -0.0777
C7E C 0.2830(4) -0.3371(6) -0.0469(3)
H6E H 0.2389 -0.3360 -0.0779
C8E C 0.2845(3) -0.2806(5) -0.0009(2)
C9E C 0.3541(4) -0.2841(6) 0.0436(3)
H7E H 0.3584 -0.2457 0.0749
C10E C 0.4155(4) -0.3434(5) 0.0415(3)
H8E H 0.4605 -0.3447 0.0718
N3 N 0.7185(4) -0.1295(6) 0.7338(3)
C11 C 0.6925(6) -0.2005(7) 0.6973(4)
H9 H 0.7226 -0.2575 0.7024
C12 C 0.6280(8) -0.1989(10) 0.6541(5)
H10 H 0.6154 -0.2509 0.6293
C13 C 0.5794(6) -0.1156(9) 0.6474(5)
C14 C 0.6046(7) -0.0374(10) 0.6873(6)
H11 H 0.5750 0.0196 0.6848
C15 C 0.6749(7) -0.0506(9) 0.7298(5)
H12 H 0.6914 -0.0017 0.7563
N4 N 0.3851(8) -0.0665(10) 0.5003(5)
C16 C 0.4494(8) -0.1130(10) 0.4992(6)
H13 H 0.4526 -0.1345 0.4647
C17 C 0.5140(7) -0.1330(9) 0.5453(5)
H14 H 0.5577 -0.1673 0.5416
C18 C 0.5106(7) -0.1003(9) 0.5962(5)
C19 C 0.4420(8) -0.0566(12) 0.5985(6)
H15 H 0.4353 -0.0376 0.6324
C20 C 0.3825(8) -0.0410(12) 0.5497(7)
H16 H 0.3369 -0.0097 0.5524
O13 O 0.2605(4) 0.3203(7) 0.1709(3)
H22 H 0.2760 0.3083 0.2066
O14 O 0.3673(7) 0.1180(9) 0.6610(4)
O15 O 0.2900(5) -0.0070(6) 0.3971(3)
C21? C 0.5993(16) -0.1816(19) 0.6676(11)
C22? C 0.5626(12) -0.1022(18) 0.6913(9)
C23? C 0.6100(18) -0.054(2) 0.7355(13)
H17? H 0.5882 0.0040 0.7440
C24? C 0.686(3) -0.074(4) 0.771(2)
N5? N 0.3250(17) -0.002(2) 0.6238(13)
H18? H 0.2799 0.0204 0.6043
C25? C 0.342(3) -0.091(4) 0.6204(19)
H19? H 0.3012 -0.1338 0.6037
C26? C 0.4209(18) -0.132(2) 0.6403(13)
C27? C 0.4774(12) -0.0721(15) 0.6674(9)
C28? C 0.4558(15) 0.0206(19) 0.6825(10)
H20? H 0.4929 0.0571 0.7088
C29? C 0.379(2) 0.060(3) 0.6588(14)
C30? C 0.3622(12) -0.0476(17) 0.3949(9)
C31? C 0.4391(13) -0.0524(17) 0.4317(9)
H21? H 0.4769 -0.0914 0.4227
C32? C 0.4591(16) -0.002(2) 0.4797(11)
C33? C 0.392(2) 0.031(3) 0.4965(18)
C34? C 0.320(3) 0.040(4) 0.4532(19)
H23? H 0.2980 0.3535 0.1934
N6? N 0.2900(5) -0.0070(6) 0.3971(3)
loop_
_geom_bond_atom_site_label_1
_geom_bond_atom_site_label_2
_geom_bond_site_symmetry_1
_geom_bond_site_symmetry_2
Mo1 O1 1_555 1_555
Mo2 O2 1_555 1_555
Mo3 O2 1_555 1_555
Cu1 O5 1_555 1_555
P1 O2 1_555 1_555
O3 P1 1_555 1_555
O4 Mo1 1_555 1_555
O5 Mo2 1_555 1_555
O6 Mo1 1_555 1_555
O7 Mo3 1_555 1_555
O8 P1 1_555 1_555
O9 Mo1 1_555 1_555
O10 Mo1 1_555 1_555
O11 Mo2 1_555 1_555
O12 Mo2 1_555 1_555
N1 Cu1 1_555 1_555
N2 Cu1 1_555 1_555
C1 N1 1_555 1_555
H1 C1 1_555 1_555
C2 C1 1_555 1_555
H2 C2 1_555 1_555
C3 C2 1_555 1_555
C4 C3 1_555 1_555
H3 C4 1_555 1_555
C5 N1 1_555 1_555
H4 C5 1_555 1_555
C6 N2 1_555 1_555
H5 C6 1_555 1_555
C7 C6 1_555 1_555
H6 C7 1_555 1_555
C8 C7 1_555 1_555
C9 C8 1_555 1_555
H7 C9 1_555 1_555
C10 N2 1_555 1_555
H8 C10 1_555 1_555
N3 C11 1_555 1_555
C11 H9 1_555 1_555
C12 C11 1_555 1_555
H10 C12 1_555 1_555
C13 C12 1_555 1_555
C14 C13 1_555 1_555
H11 C14 1_555 1_555
C15 N3 1_555 1_555
H12 C15 1_555 1_555
N4 C16 1_555 1_555
C16 H13 1_555 1_555
C17 C16 1_555 1_555
H14 C17 1_555 1_555
C18 C13 1_555 1_555
C19 C18 1_555 1_555
H15 C19 1_555 1_555
C20 N4 1_555 1_555
H16 C20 1_555 1_555
O13 H22 1_555 1_555
Mo1B O8 1_555 1_555
Mo2B O6 1_555 1_555
Cu1A N1E 1_555 1_555
Cu1A_2 N2E 1_555 1_555
Cu1F O5B 1_555 1_555
P1B O2B 1_555 1_555
O1B Mo1B 1_555 1_555
O2B Mo3 1_555 1_555
O3B P1B 1_555 1_555
O4B Mo1B 1_555 1_555
O5B Mo2B 1_555 1_555
O5D Cu1 1_555 1_555
O6B Mo2 1_555 1_555
O7B Mo3 1_555 1_555
O8B Mo1 1_555 1_555
O10B Mo2 1_555 1_555
O11B Mo3 1_555 1_555
O12B Mo2B 1_555 1_555
N1E C1E 1_555 1_555
N1D Cu1 1_555 1_555
N2E C6E 1_555 1_555
N2D Cu1 1_555 1_555
C1E H1E 1_555 1_555
C2E C1E 1_555 1_555
H2E C2E 1_555 1_555
C3E C3 1_555 1_555
C4E C3E 1_555 1_555
H3E C4E 1_555 1_555
C5E N1E 1_555 1_555
H4E C5E 1_555 1_555
C6E H5E 1_555 1_555
C7E C6E 1_555 1_555
H6E C7E 1_555 1_555
C8E C8 1_555 1_555
C9E C8E 1_555 1_555
H7E C9E 1_555 1_555
C10E N2E 1_555 1_555
H8E C10E 1_555 1_555
Mo3 O11 1_555 1_555
P1 O6 1_555 1_555
O9 Mo1B 1_555 1_555
O10 Mo2B 1_555 1_555
C4 C5 1_555 1_555
C9 C10 1_555 1_555
C14 C15 1_555 1_555
C17 C18 1_555 1_555
C19 C20 1_555 1_555
Mo1B O6B 1_555 1_555
Mo1B O10B 1_555 1_555
Mo2B O2B 1_555 1_555
Mo2B O11B 1_555 1_555
P1B O6B 1_555 1_555
P1B O8B 1_555 1_555
C2E C3E 1_555 1_555
C4E C5E 1_555 1_555
C7E C8E 1_555 1_555
C9E C10E 1_555 1_555

#END
