
#######################################################################
#
#                 Cambridge Crystallographic Data Centre
#                                CCDC 
#
#######################################################################
#
# If this CIF has been generated from an entry in the Cambridge 
# Structural Database, then it will include bibliographic, chemical, 
# crystal, experimental, refinement or atomic coordinate data resulting 
# from the CCDC's data processing and validation procedures.
#
#######################################################################

data_GALJUA
_symmetry_cell_setting           orthorhombic
_symmetry_space_group_name_H-M   'P n a 21'
_symmetry_Int_Tables_number      33
_space_group_name_Hall           'P 2c -2n'
loop_
_symmetry_equiv_pos_site_id
_symmetry_equiv_pos_as_xyz
1 x,y,z
2 -x,-y,1/2+z
3 1/2+x,1/2-y,z
4 1/2-x,1/2+y,1/2+z
_cell_length_a                   19.390(4)
_cell_length_b                   11.906(3)
_cell_length_c                   12.766(3)
_cell_angle_alpha                90
_cell_angle_beta                 90
_cell_angle_gamma                90
_cell_volume                     2947.12
loop_
_atom_site_label
_atom_site_type_symbol
_atom_site_fract_x
_atom_site_fract_y
_atom_site_fract_z
Co1 Co 0.40732(3) 0.87179(5) 0.78400(5)
N1 N 0.4164(2) 0.7315(4) 0.6842(4)
N2 N 0.4079(2) 0.5603(4) 0.6209(4)
N3 N 0.0120(2) 0.5837(3) 0.7736(4)
N4 N 0.1021(2) 0.4789(4) 0.7359(4)
N5 N 0.3936(2) 0.0139(4) 0.8841(4)
N6 N 0.3573(2) 0.1733(4) 0.9494(3)
O1 O 0.3029(3) 0.7823(4) 0.8590(4)
O2 O 0.4083(2) 0.7654(4) 0.9169(4)
O3 O 0.1127(3) 0.5860(7) 1.0600(7)
O4 O 0.1416(2) 0.4537(4) 1.1691(4)
Br1 Br 0.41377(4) 0.45493(8) 1.22514(9)
C1 C 0.4385(3) 0.7303(5) 0.5851(5)
H1 H 0.4548 0.7927 0.5490
C2 C 0.4340(3) 0.6265(6) 0.5448(5)
H2 H 0.4465 0.6044 0.4775
C3 C 0.3984(3) 0.6260(5) 0.7036(5)
H3 H 0.3813 0.6011 0.7675
C4 C 0.0716(3) 0.6401(5) 0.7992(5)
H4 H 0.0734 0.7113 0.8291
C5 C 0.1266(3) 0.5774(5) 0.7748(5)
H5 H 0.1726 0.5974 0.7829
C6 C 0.0334(3) 0.4870(4) 0.7340(5)
H6 H 0.0042 0.4316 0.7081
C7 C 0.4307(3) 0.0386(5) 0.9700(5)
H7 H 0.4663 -0.0053 0.9964
C8 C 0.4087(3) 0.1364(5) 1.0126(5)
H8 H 0.4253 0.1711 1.0728
C9 C 0.3489(3) 0.0974(5) 0.8732(4)
H9 H 0.3162 0.1024 0.8200
C10 C 0.3937(3) 0.4393(5) 0.6148(5)
H10 H 0.4354 0.3980 0.6315
H11 H 0.3803 0.4201 0.5438
C11 C 0.2520(3) 0.4735(5) 0.5556(5)
H12 H 0.2512 0.4176 0.5015
H13 H 0.2866 0.5286 0.5399
H14 H 0.2077 0.5093 0.5597
C12 C 0.1419(3) 0.3846(5) 0.6897(5)
H15 H 0.1413 0.3918 0.6140
H16 H 0.1194 0.3145 0.7076
C13 C 0.1744(3) 0.2952(7) 0.8963(6)
H17 H 0.1874 0.2247 0.9271
H18 H 0.1328 0.2856 0.8564
H19 H 0.1667 0.3495 0.9507
C14 C 0.3189(4) 0.2794(5) 0.9612(5)
H20 H 0.3467 0.3327 1.0002
H21 H 0.2770 0.2657 1.0009
C15 C 0.4282(3) 0.3565(6) 0.8243(6)
H22 H 0.4456 0.2820 0.8129
H23 H 0.4307 0.3742 0.8975
H24 H 0.4555 0.4092 0.7853
C16 C 0.3369(3) 0.4052(4) 0.6896(4)
C17 C 0.2684(3) 0.4183(4) 0.6594(5)
C18 C 0.2156(3) 0.3802(4) 0.7263(5)
C19 C 0.2316(3) 0.3359(5) 0.8249(5)
C20 C 0.3005(3) 0.3290(4) 0.8563(4)
C21 C 0.3537(2) 0.3628(4) 0.7880(5)
C22 C 0.3445(4) 0.7418(5) 0.9203(5)
C23 C 0.3211(3) 0.6580(5) 1.0025(5)
C24 C 0.3695(3) 0.6047(5) 1.0652(5)
H25 H 0.4163 0.6193 1.0565
C25 C 0.3474(3) 0.5295(4) 1.1406(5)
C26 C 0.2791(3) 0.5042(4) 1.1542(4)
H26 H 0.2656 0.4518 1.2042
C27 C 0.2303(3) 0.5578(4) 1.0925(4)
C28 C 0.2520(3) 0.6346(4) 1.0164(4)
H27 H 0.2194 0.6705 0.9747
C29 C 0.1543(3) 0.5305(5) 1.1087(5)
Co1_2 Co 0.40732(3) -0.12821(5) 0.78400(5)
Co1B Co -0.09268(3) 0.62821(5) 0.78400(5)
Co1C Co 0.09268(3) 0.37179(5) 1.28400(5)
N3B N 0.5120(2) 0.9163(3) 0.7736(4)
N5_2 N 0.3936(2) 1.0139(4) 0.8841(4)
O4C O 0.3584(2) 0.9537(4) 0.6691(4)
O5 O 0.9955(4) 0.2721(5) 0.5803(6)
H28 H 0.962(2) 0.318(4) 0.569(5)
H29 H 0.995(3) 0.240(5) 0.518(3)
loop_
_geom_bond_atom_site_label_1
_geom_bond_atom_site_label_2
_geom_bond_site_symmetry_1
_geom_bond_site_symmetry_2
Co1 N1 1_555 1_555
N1 C1 1_555 1_555
N2 C2 1_555 1_555
N3 C4 1_555 1_555
N4 C5 1_555 1_555
N5 C7 1_555 1_555
N6 C8 1_555 1_555
O1 C22 1_555 1_555
O2 Co1 1_555 1_555
O3 C29 1_555 1_555
O4 C29 1_555 1_555
O5 H28 1_555 1_555
Br1 C25 1_555 1_555
C1 H1 1_555 1_555
C2 C1 1_555 1_555
H2 C2 1_555 1_555
C3 N1 1_555 1_555
H3 C3 1_555 1_555
C4 H4 1_555 1_555
C5 C4 1_555 1_555
H5 C5 1_555 1_555
C6 N3 1_555 1_555
H6 C6 1_555 1_555
C7 H7 1_555 1_555
C8 C7 1_555 1_555
H8 C8 1_555 1_555
C9 N5 1_555 1_555
H9 C9 1_555 1_555
C10 N2 1_555 1_555
H10 C10 1_555 1_555
H11 C10 1_555 1_555
C11 H12 1_555 1_555
H13 C11 1_555 1_555
H14 C11 1_555 1_555
C12 N4 1_555 1_555
H15 C12 1_555 1_555
H16 C12 1_555 1_555
C13 H17 1_555 1_555
H18 C13 1_555 1_555
H19 C13 1_555 1_555
C14 N6 1_555 1_555
H20 C14 1_555 1_555
H21 C14 1_555 1_555
C15 H22 1_555 1_555
H23 C15 1_555 1_555
H24 C15 1_555 1_555
C16 C10 1_555 1_555
C17 C11 1_555 1_555
C18 C12 1_555 1_555
C19 C13 1_555 1_555
C20 C14 1_555 1_555
C21 C15 1_555 1_555
C22 O2 1_555 1_555
C23 C22 1_555 1_555
C24 C23 1_555 1_555
H25 C24 1_555 1_555
C25 C24 1_555 1_555
C26 C25 1_555 1_555
H26 C26 1_555 1_555
C27 C26 1_555 1_555
C28 C23 1_555 1_555
H27 C28 1_555 1_555
C29 C27 1_555 1_555
H29 O5 1_555 1_555
Co1_2 N5 1_555 1_555
Co1B N3 1_555 1_555
Co1C O4 1_555 1_555
N3B Co1 1_555 1_555
N5_2 Co1 1_555 1_555
O4C Co1 1_555 1_555
N2 C3 1_555 1_555
N4 C6 1_555 1_555
N6 C9 1_555 1_555
C16 C17 1_555 1_555
C16 C21 1_555 1_555
C17 C18 1_555 1_555
C18 C19 1_555 1_555
C19 C20 1_555 1_555
C20 C21 1_555 1_555
C27 C28 1_555 1_555

#END
