
#######################################################################
#
#                 Cambridge Crystallographic Data Centre
#                                CCDC 
#
#######################################################################
#
# If this CIF has been generated from an entry in the Cambridge 
# Structural Database, then it will include bibliographic, chemical, 
# crystal, experimental, refinement or atomic coordinate data resulting 
# from the CCDC's data processing and validation procedures.
#
#######################################################################

data_GALKAH
_symmetry_cell_setting           triclinic
_symmetry_space_group_name_H-M   'P -1'
_symmetry_Int_Tables_number      2
_space_group_name_Hall           '-P 1'
loop_
_symmetry_equiv_pos_site_id
_symmetry_equiv_pos_as_xyz
1 x,y,z
2 -x,-y,-z
_cell_length_a                   13.3734(13)
_cell_length_b                   16.6806(16)
_cell_length_c                   16.8150(15)
_cell_angle_alpha                111.6570(10)
_cell_angle_beta                 97.4360(10)
_cell_angle_gamma                102.7300(10)
_cell_volume                     3307.39
loop_
_atom_site_label
_atom_site_type_symbol
_atom_site_fract_x
_atom_site_fract_y
_atom_site_fract_z
Co1 Co 0.20523(4) 0.98206(4) 0.78885(4)
Co2 Co -0.26179(5) 1.53931(4) 0.92128(4)
Co3 Co 0.64235(4) 1.29295(4) 0.46587(4)
N1 N -0.3202(3) 1.4048(2) 0.8573(2)
N2 N -0.3284(3) 1.2627(2) 0.7851(2)
N3 N 0.0420(3) 1.1435(2) 0.9350(2)
N4 N 0.1486(3) 1.0752(2) 0.8663(2)
N5 N -0.4965(3) 0.9691(3) 0.8569(3)
N6 N -0.6527(3) 0.9899(3) 0.8550(2)
N7 N 0.2204(3) 1.7262(2) 1.4866(2)
N8 N 0.0752(3) 1.7673(2) 1.4727(2)
N9 N -0.2842(3) 1.6121(3) 1.1805(2)
N10 N -0.2437(3) 1.5669(3) 1.0510(2)
N11 N -0.3228(3) 1.5694(3) 1.5616(3)
N12 N -0.3350(3) 1.4279(2) 1.5364(2)
O1 O 0.1322(3) 0.8541(2) 0.7493(2)
O2 O 0.0175(3) 0.8625(2) 0.8346(2)
O3 O -0.1358(3) 0.5920(2) 0.8883(2)
O4 O -0.0671(3) 0.4775(3) 0.8435(3)
O5 O 0.2087(2) 0.9896(2) 0.6756(2)
O6 O 0.3323(3) 1.1183(2) 0.7590(2)
O7 O 0.5119(2) 1.2042(2) 0.4546(2)
O8 O 0.5676(3) 1.2533(2) 0.5984(2)
O9 O -0.6545(2) 1.7341(2) 0.65941(19)
O10 O -0.5162(3) 1.6837(2) 0.6448(2)
O11 O -0.3421(3) 1.6118(3) 0.8848(3)
O12 O -0.4636(3) 1.5401(3) 0.9313(3)
Br1 Br 0.14778(7) 0.51048(5) 0.60760(6)
Br2 Br 0.10722(4) 0.99838(4) 0.35651(3)
Br3 Br -0.74910(4) 1.73424(4) 0.96492(4)
C1 C 0.0670(4) 0.8210(3) 0.7854(3)
C2 C 0.0506(3) 0.7223(3) 0.7640(3)
C3 C 0.0973(4) 0.6706(3) 0.7033(3)
H3 H 0.1371 0.6956 0.6723
C4 C 0.0840(4) 0.5823(3) 0.6898(4)
C5 C 0.0286(4) 0.5444(3) 0.7367(4)
H4 H 0.0235 0.4852 0.7284
C6 C -0.0191(3) 0.5944(3) 0.7959(3)
C7 C -0.0095(3) 0.6823(3) 0.8078(3)
H5 H -0.0443 0.7155 0.8461
C8 C -0.0786(4) 0.5501(3) 0.8458(3)
C9 C 0.2786(4) 1.0613(3) 0.6862(3)
C10 C 0.2921(3) 1.0760(3) 0.6047(3)
C11 C 0.2112(3) 1.0344(3) 0.5304(3)
H6 H 0.1491 0.9955 0.5296
C12 C 0.2230(3) 1.0510(3) 0.4572(3)
C13 C 0.3156(3) 1.1049(3) 0.4543(3)
H7 H 0.3228 1.1135 0.4036
C14 C 0.3984(3) 1.1462(3) 0.5293(3)
C15 C 0.3858(3) 1.1332(3) 0.6048(3)
H8 H 0.4398 1.1625 0.6555
C16 C 0.5006(3) 1.2053(3) 0.5294(3)
C17 C -0.5808(4) 1.7069(3) 0.6876(3)
C18 C -0.5766(3) 1.6981(3) 0.7737(3)
C19 C -0.6503(3) 1.7206(3) 0.8229(3)
H9 H -0.6990 1.7470 0.8063
C20 C -0.6492(4) 1.7030(3) 0.8963(3)
C21 C -0.5813(4) 1.6621(3) 0.9216(3)
H10 H -0.5856 1.6476 0.9696
C22 C -0.5058(4) 1.6425(3) 0.8743(3)
C23 C -0.5029(3) 1.6622(3) 0.8017(3)
H11 H -0.4506 1.6511 0.7713
C24 C -0.4325(4) 1.5954(4) 0.8996(3)
C25 C -0.2744(3) 1.3492(3) 0.8087(3)
H12 H -0.2123 1.3674 0.7925
C26 C -0.4090(3) 1.3508(3) 0.8652(3)
H13 H -0.4575 1.3714 0.8962
C27 C -0.4146(3) 1.2639(3) 0.8210(3)
H14 H -0.4671 1.2140 0.8158
C28 C 0.0515(3) 1.0664(3) 0.8798(3)
H15 H -0.0030 1.0127 0.8537
C29 C 0.2023(4) 1.1639(3) 0.9178(4)
H16 H 0.2725 1.1909 0.9218
C30 C 0.1393(4) 1.2058(3) 0.9613(4)
H17 H 0.1576 1.2656 1.0016
C31 C -0.5984(3) 0.9360(3) 0.8160(3)
H18 H -0.6274 0.8820 0.7665
C32 C -0.5807(4) 1.0608(3) 0.9254(3)
H19 H -0.5960 1.1097 0.9655
C33 C -0.4843(4) 1.0481(3) 0.9270(3)
H20 H -0.4219 1.0858 0.9678
C34 C -0.2984(4) 1.1841(3) 0.7298(3)
H21 H -0.2386 1.2046 0.7080
H22 H -0.3565 1.1455 0.6796
C35 C -0.0916(4) 1.2468(3) 0.8501(4)
H23 H -0.1009 1.2989 0.8945
H24 H -0.0997 1.2525 0.7950
H25 H -0.0223 1.2423 0.8666
C36 C -0.0514(3) 1.1612(3) 0.9668(3)
H26 H -0.0400 1.2258 0.9943
H27 H -0.0603 1.1381 1.0114
C37 C -0.2013(4) 0.9947(4) 0.9472(4)
H28 H -0.1265 1.0059 0.9636
H29 H -0.2347 0.9310 0.9168
H30 H -0.2273 1.0183 0.9991
C38 C -0.4091(3) 0.9326(3) 0.8248(4)
H31 H -0.4356 0.8860 0.7654
H32 H -0.3820 0.9062 0.8624
C39 C -0.4496(4) 1.0142(3) 0.7035(3)
H33 H -0.4997 1.0427 0.7288
H34 H -0.4755 0.9504 0.6860
H35 H -0.4394 1.0261 0.6529
C40 C -0.2701(3) 1.1303(3) 0.7805(3)
C41 C -0.1733(3) 1.1630(3) 0.8408(3)
C42 C -0.1517(3) 1.1188(3) 0.8945(3)
C43 C -0.2259(3) 1.0409(3) 0.8871(3)
C44 C -0.3223(3) 1.0091(3) 0.8265(3)
C45 C -0.3442(3) 1.0518(3) 0.7716(3)
C46 C 0.1638(3) 1.7771(3) 1.5264(3)
H36 H 0.1836 1.8157 1.5858
C47 C 0.1644(5) 1.6818(4) 1.4003(4)
H37 H 0.1850 1.6415 1.3551
C48 C 0.0747(5) 1.7061(4) 1.3914(3)
H38 H 0.0227 1.6851 1.3401
C49 C -0.2958(4) 1.6149(3) 1.1020(3)
H39 H -0.3361 1.6470 1.0846
C50 C -0.1967(5) 1.5317(4) 1.1011(4)
H40 H -0.1533 1.4950 1.0836
C51 C -0.2221(5) 1.5578(4) 1.1799(4)
H41 H -0.2011 1.5416 1.2253
C52 C -0.3450(4) 1.4856(3) 1.5012(3)
H42 H -0.3652 1.4694 1.4411
C53 C -0.3066(4) 1.4790(3) 1.6259(3)
H43 H -0.2943 1.4571 1.6686
C54 C -0.2996(4) 1.5658(4) 1.6421(4)
H44 H -0.2823 1.6138 1.6970
C55 C -0.0036(3) 1.8162(3) 1.4931(3)
H45 H 0.0091 1.8480 1.5564
H46 H 0.0055 1.8610 1.4686
C56 C -0.1250(4) 1.7823(3) 1.3182(3)
H47 H -0.1804 1.7871 1.2794
H48 H -0.0787 1.8414 1.3554
H49 H -0.0861 1.7463 1.2842
C57 C -0.3347(4) 1.6585(4) 1.2499(3)
H50 H -0.3405 1.7139 1.2459
H51 H -0.4055 1.6205 1.2397
C58 C -0.4383(4) 1.5838(3) 1.3593(4)
H52 H -0.4422 1.5342 1.3055
H53 H -0.4587 1.5612 1.4015
H54 H -0.4850 1.6166 1.3481
C59 C -0.3313(4) 1.6503(3) 1.5470(3)
H55 H -0.4053 1.6434 1.5270
H56 H -0.3051 1.7023 1.6030
C60 C -0.1064(4) 1.7386(4) 1.6020(3)
H57 H -0.1071 1.7959 1.6440
H58 H -0.1391 1.6919 1.6186
H59 H -0.0348 1.7387 1.6004
C61 C -0.1168(3) 1.7562(3) 1.4579(3)
C62 C -0.1718(3) 1.7388(3) 1.3740(3)
C63 C -0.2748(3) 1.6807(3) 1.3417(3)
C64 C -0.3255(3) 1.6462(3) 1.3954(3)
C65 C -0.2730(3) 1.6699(3) 1.4813(3)
C66 C -0.1664(3) 1.7218(3) 1.5117(3)
Co1_2 Co -0.79477(4) 0.98206(4) 0.78885(4)
Co2_2 Co -0.26179(5) 0.53931(4) 0.92128(4)
Co3A Co 0.35765(4) 1.70705(4) 1.53413(4)
Co3_2 Co -0.35765(4) 1.29295(4) 1.46587(4)
Co3A_2 Co -0.64235(4) 1.70705(4) 0.53413(4)
N6_2 N 0.3473(3) 0.9899(3) 0.8550(2)
N7A N 0.7796(3) 1.2738(2) 0.5134(2)
N12_2 N 0.6650(3) 1.4279(2) 0.5364(2)
O3_2 O -0.1358(3) 1.5920(2) 0.8883(2)
O9A O 0.6545(2) 1.2659(2) 0.34059(19)
O13 O 0.7666(7) 0.7713(6) 0.8167(6)
H1 H 0.8302 0.7778 0.8124
H2 H 0.7495 0.7294 0.8340
loop_
_geom_bond_atom_site_label_1
_geom_bond_atom_site_label_2
_geom_bond_site_symmetry_1
_geom_bond_site_symmetry_2
Co1 N4 1_555 1_555
Co2 N1 1_555 1_555
Co3 O7 1_555 1_555
N1 C25 1_555 1_555
N2 C25 1_555 1_555
N3 C28 1_555 1_555
N4 C28 1_555 1_555
N5 C31 1_555 1_555
N6 C31 1_555 1_555
N7 C46 1_555 1_555
N8 C46 1_555 1_555
N9 C49 1_555 1_555
N10 Co2 1_555 1_555
N11 C52 1_555 1_555
N12 C52 1_555 1_555
O1 Co1 1_555 1_555
O2 C1 1_555 1_555
O3 C8 1_555 1_555
O4 C8 1_555 1_555
O5 Co1 1_555 1_555
O6 C9 1_555 1_555
O7 C16 1_555 1_555
O8 C16 1_555 1_555
O9 C17 1_555 1_555
O10 C17 1_555 1_555
O11 Co2 1_555 1_555
O12 C24 1_555 1_555
O13 H1 1_555 1_555
H2 O13 1_555 1_555
Br1 C4 1_555 1_555
Br2 C12 1_555 1_555
Br3 C20 1_555 1_555
C1 O1 1_555 1_555
C2 C1 1_555 1_555
C3 C2 1_555 1_555
H3 C3 1_555 1_555
C4 C3 1_555 1_555
C5 C4 1_555 1_555
H4 C5 1_555 1_555
C6 C5 1_555 1_555
C7 C2 1_555 1_555
H5 C7 1_555 1_555
C8 C6 1_555 1_555
C9 O5 1_555 1_555
C10 C9 1_555 1_555
C11 C10 1_555 1_555
H6 C11 1_555 1_555
C12 C11 1_555 1_555
C13 C12 1_555 1_555
H7 C13 1_555 1_555
C14 C13 1_555 1_555
C15 C10 1_555 1_555
H8 C15 1_555 1_555
C16 C14 1_555 1_555
C17 C18 1_555 1_555
C18 C19 1_555 1_555
C19 H9 1_555 1_555
C20 C19 1_555 1_555
C21 C20 1_555 1_555
H10 C21 1_555 1_555
C22 C21 1_555 1_555
C23 C18 1_555 1_555
H11 C23 1_555 1_555
C24 O11 1_555 1_555
C25 H12 1_555 1_555
C26 N1 1_555 1_555
H13 C26 1_555 1_555
C27 N2 1_555 1_555
H14 C27 1_555 1_555
C28 H15 1_555 1_555
C29 N4 1_555 1_555
H16 C29 1_555 1_555
C30 N3 1_555 1_555
H17 C30 1_555 1_555
C31 H18 1_555 1_555
C32 N6 1_555 1_555
H19 C32 1_555 1_555
C33 N5 1_555 1_555
H20 C33 1_555 1_555
C34 N2 1_555 1_555
H21 C34 1_555 1_555
H22 C34 1_555 1_555
C35 H23 1_555 1_555
H24 C35 1_555 1_555
H25 C35 1_555 1_555
C36 N3 1_555 1_555
H26 C36 1_555 1_555
H27 C36 1_555 1_555
C37 H28 1_555 1_555
H29 C37 1_555 1_555
H30 C37 1_555 1_555
C38 N5 1_555 1_555
H31 C38 1_555 1_555
H32 C38 1_555 1_555
C39 H33 1_555 1_555
H34 C39 1_555 1_555
H35 C39 1_555 1_555
C40 C34 1_555 1_555
C41 C35 1_555 1_555
C42 C36 1_555 1_555
C43 C37 1_555 1_555
C44 C38 1_555 1_555
C45 C39 1_555 1_555
C46 H36 1_555 1_555
C47 N7 1_555 1_555
H37 C47 1_555 1_555
C48 N8 1_555 1_555
H38 C48 1_555 1_555
C49 N10 1_555 1_555
H39 C49 1_555 1_555
C50 N10 1_555 1_555
H40 C50 1_555 1_555
C51 N9 1_555 1_555
H41 C51 1_555 1_555
C52 H42 1_555 1_555
C53 N12 1_555 1_555
H43 C53 1_555 1_555
C54 N11 1_555 1_555
H44 C54 1_555 1_555
C55 N8 1_555 1_555
H45 C55 1_555 1_555
H46 C55 1_555 1_555
C56 H47 1_555 1_555
H48 C56 1_555 1_555
H49 C56 1_555 1_555
C57 N9 1_555 1_555
H50 C57 1_555 1_555
H51 C57 1_555 1_555
C58 H52 1_555 1_555
H53 C58 1_555 1_555
H54 C58 1_555 1_555
C59 N11 1_555 1_555
H55 C59 1_555 1_555
H56 C59 1_555 1_555
C60 H57 1_555 1_555
H58 C60 1_555 1_555
H59 C60 1_555 1_555
C61 C55 1_555 1_555
C62 C56 1_555 1_555
C63 C57 1_555 1_555
C64 C58 1_555 1_555
C65 C59 1_555 1_555
C66 C60 1_555 1_555
Co1_2 N6 1_555 1_555
Co2_2 O3 1_555 1_555
Co3A N7 1_555 1_555
Co3_2 N12 1_555 1_555
Co3A_2 O9 1_555 1_555
N6_2 Co1 1_555 1_555
N7A Co3 1_555 1_555
N12_2 Co3 1_555 1_555
O3_2 Co2 1_555 1_555
O9A Co3 1_555 1_555
C6 C7 1_555 1_555
C14 C15 1_555 1_555
C22 C23 1_555 1_555
C22 C24 1_555 1_555
C26 C27 1_555 1_555
C29 C30 1_555 1_555
C32 C33 1_555 1_555
C40 C41 1_555 1_555
C40 C45 1_555 1_555
C41 C42 1_555 1_555
C42 C43 1_555 1_555
C43 C44 1_555 1_555
C44 C45 1_555 1_555
C47 C48 1_555 1_555
C50 C51 1_555 1_555
C53 C54 1_555 1_555
C61 C62 1_555 1_555
C61 C66 1_555 1_555
C62 C63 1_555 1_555
C63 C64 1_555 1_555
C64 C65 1_555 1_555
C65 C66 1_555 1_555

#END
