
#######################################################################
#
#                 Cambridge Crystallographic Data Centre
#                                CCDC 
#
#######################################################################
#
# If this CIF has been generated from an entry in the Cambridge 
# Structural Database, then it will include bibliographic, chemical, 
# crystal, experimental, refinement or atomic coordinate data resulting 
# from the CCDC's data processing and validation procedures.
#
#######################################################################

data_GALKIP
_symmetry_cell_setting           triclinic
_symmetry_space_group_name_H-M   'P -1'
_symmetry_Int_Tables_number      2
_space_group_name_Hall           '-P 1'
loop_
_symmetry_equiv_pos_site_id
_symmetry_equiv_pos_as_xyz
1 x,y,z
2 -x,-y,-z
_cell_length_a                   10.1202(16)
_cell_length_b                   10.8830(17)
_cell_length_c                   13.409(2)
_cell_angle_alpha                70.501(2)
_cell_angle_beta                 87.561(3)
_cell_angle_gamma                76.947(3)
_cell_volume                     1355.3
loop_
_atom_site_label
_atom_site_type_symbol
_atom_site_fract_x
_atom_site_fract_y
_atom_site_fract_z
Ni1 Ni 0.04977(3) 0.57295(3) 0.66657(2)
O1 O 0.21490(16) 0.41478(17) 0.76817(13)
O2 O 0.10154(16) 0.38570(16) 0.64513(13)
O3 O 0.25801(18) -0.5262(2) 1.31468(14)
O4 O 0.07573(17) -0.49711(18) 1.21573(13)
O5 O 0.46339(18) -0.28366(18) 0.75944(13)
O6 O 0.62630(17) -0.24663(18) 0.87309(15)
N1 N 0.0114(2) 0.7440(2) 0.70662(16)
N2 N -0.0885(2) 0.8945(3) 0.7773(2)
N3 N 0.1941(2) 0.6366(2) 0.56228(15)
N4 N 0.3881(2) 0.6898(2) 0.50760(16)
O7 O -0.10269(19) 0.65150(19) 0.55116(15)
H1 H -0.101(3) 0.639(3) 0.4931(17)
H2 H -0.160(3) 0.611(3) 0.585(2)
C1 C 0.1915(2) 0.3420(2) 0.71884(18)
C2 C 0.2690(2) 0.2003(2) 0.74791(18)
C3 C 0.3638(3) 0.1452(3) 0.8305(2)
H3 H 0.3816 0.1981 0.8680
C4 C 0.4325(3) 0.0141(3) 0.8585(2)
H4 H 0.4973 -0.0212 0.9138
C5 C 0.4048(2) -0.0647(2) 0.80425(18)
C6 C 0.3133(3) -0.0126(3) 0.7211(2)
H5 H 0.2966 -0.0659 0.6835
C7 C 0.2455(3) 0.1197(3) 0.6928(2)
H6 H 0.1830 0.1553 0.6359
C8 C 0.1955(3) -0.4885(2) 1.2287(2)
C9 C 0.2682(2) -0.4261(2) 1.13102(19)
C10 C 0.3969(3) -0.4071(3) 1.1413(2)
H7 H 0.4374 -0.4328 1.2083
C11 C 0.4655(3) -0.3505(3) 1.0534(2)
H8 H 0.5523 -0.3385 1.0608
C12 C 0.4049(2) -0.3119(2) 0.95459(18)
C13 C 0.2775(3) -0.3317(3) 0.9431(2)
H9 H 0.2373 -0.3064 0.8760
C14 C 0.2104(3) -0.3891(3) 1.0313(2)
H10 H 0.1247 -0.4032 1.0236
C15 C -0.0595(3) 0.7641(3) 0.7870(2)
H11 H -0.0859 0.6972 0.8427
C16 C 0.0261(3) 0.8677(3) 0.6437(3)
H12 H 0.0717 0.8853 0.5805
C17 C -0.0348(3) 0.9597(3) 0.6865(3)
H13 H -0.0392 1.0512 0.6590
C18 C -0.1671(3) 0.9521(4) 0.8524(3)
H14 H -0.2227 0.8917 0.8924
H15 H -0.2276 1.0360 0.8130
C19 C -0.0453(4) 0.8856(4) 1.0260(3)
H16 H -0.0765 0.8070 1.0451
C20 C -0.0794(3) 0.9770(4) 0.9288(3)
C21 C -0.0348(4) 1.0946(4) 0.9019(3)
H17 H -0.0583 1.1599 0.8360
C22 C 0.3085(3) 0.6576(3) 0.5900(2)
H18 H 0.3310 0.6508 0.6585
C23 C 0.2025(3) 0.6558(3) 0.4567(2)
H19 H 0.1367 0.6471 0.4148
C24 C 0.3201(3) 0.6892(3) 0.4226(2)
H20 H 0.3496 0.7083 0.3536
C25 C 0.5182(3) 0.7260(3) 0.5101(2)
H21 H 0.5702 0.7117 0.4509
H22 H 0.5685 0.6668 0.5747
C26 C 0.6052(3) 0.8988(3) 0.5536(2)
H23 H 0.6771 0.8308 0.5905
C27 C 0.5056(2) 0.8684(3) 0.5050(2)
C28 C 0.4004(3) 0.9720(3) 0.4518(2)
H24 H 0.3317 0.9539 0.4187
S1 S 0.48940(6) -0.23511(6) 0.84192(5)
Ni1A Ni -0.04977(3) -0.57295(3) 1.33343(2)
Ni1A_2 Ni -0.04977(3) 1.42705(3) 1.33343(2)
Ni1A_3 Ni 0.95023(3) 1.42705(3) 0.33343(2)
O1A O -0.21490(16) -0.41478(17) 1.23183(13)
O2A O -0.10154(16) -0.38570(16) 1.35487(13)
O3A O -0.25801(18) 0.5262(2) 0.68532(14)
O4A O -0.07573(17) 0.49711(18) 0.78427(13)
O5A O -0.46339(18) 0.28366(18) 1.24056(13)
O6A O -0.62630(17) 0.24663(18) 1.12691(15)
N1A N -0.0114(2) 1.2560(2) 1.29338(16)
N1A_2 N -0.0114(2) -0.7440(2) 1.29338(16)
N2A N 0.0885(2) 1.1055(3) 1.2227(2)
N3A N 0.8059(2) 1.3634(2) 0.43772(15)
N3A_2 N -0.1941(2) -0.6366(2) 1.43772(15)
N4A N 0.6119(2) 1.3102(2) 0.49240(16)
O7A O 0.10269(19) -0.65150(19) 1.44884(15)
H1A H 0.101(3) -0.639(3) 1.5069(17)
H2A H 0.160(3) -0.611(3) 1.415(2)
C1A C -0.1915(2) -0.3420(2) 1.28116(18)
C2A C -0.2690(2) -0.2003(2) 1.25209(18)
C3A C -0.3638(3) -0.1452(3) 1.1695(2)
H3A H -0.3816 -0.1981 1.1320
C4A C -0.4325(3) -0.0141(3) 1.1415(2)
H4A H -0.4973 0.0212 1.0862
C5A C -0.4048(2) 0.0647(2) 1.19575(18)
C6A C -0.3133(3) 0.0126(3) 1.2789(2)
H5A H -0.2966 0.0659 1.3165
C7A C -0.2455(3) -0.1197(3) 1.3072(2)
H6A H -0.1830 -0.1553 1.3641
C8A C -0.1955(3) 0.4885(2) 0.7713(2)
C9A C -0.2682(2) 0.4261(2) 0.86898(19)
C10A C -0.3969(3) 0.4071(3) 0.8587(2)
H7A H -0.4374 0.4328 0.7917
C11A C -0.4655(3) 0.3505(3) 0.9466(2)
H8A H -0.5523 0.3385 0.9392
C12A C -0.4049(2) 0.3119(2) 1.04541(18)
C13A C -0.2775(3) 0.3317(3) 1.0569(2)
H9A H -0.2373 0.3064 1.1240
C14A C -0.2104(3) 0.3891(3) 0.9687(2)
H10A H -0.1247 0.4032 0.9764
C15A C 0.0595(3) 1.2359(3) 1.2130(2)
H11A H 0.0859 1.3028 1.1573
C16A C -0.0261(3) 1.1323(3) 1.3563(3)
H12A H -0.0717 1.1147 1.4195
C17A C 0.0348(3) 1.0403(3) 1.3135(3)
H13A H 0.0392 0.9488 1.3410
C18A C 0.1671(3) 1.0479(4) 1.1476(3)
H14A H 0.2227 1.1083 1.1076
H15A H 0.2276 0.9640 1.1870
C19A C 0.0453(4) 1.1144(4) 0.9740(3)
H16A H 0.0765 1.1930 0.9549
C20A C 0.0794(3) 1.0230(4) 1.0712(3)
C21A C 0.0348(4) 0.9054(4) 1.0981(3)
H17A H 0.0583 0.8401 1.1640
C22A C 0.6915(3) 1.3424(3) 0.4100(2)
H18A H 0.6690 1.3492 0.3415
C23A C 0.7975(3) 1.3442(3) 0.5433(2)
H19A H 0.8633 1.3529 0.5852
C24A C 0.6799(3) 1.3108(3) 0.5774(2)
H20A H 0.6504 1.2917 0.6464
C25A C 0.4818(3) 1.2740(3) 0.4899(2)
H21A H 0.4298 1.2883 0.5491
H22A H 0.4315 1.3332 0.4253
C26A C 0.3948(3) 1.1012(3) 0.4464(2)
H23A H 0.3229 1.1692 0.4095
C27A C 0.4944(2) 1.1316(3) 0.4950(2)
C28A C 0.5996(3) 1.0280(3) 0.5482(2)
H24A H 0.6683 1.0461 0.5813
S1A S -0.48940(6) 0.23511(6) 1.15808(5)
O8 O 0.8650(7) 0.6138(7) 0.0244(5)
loop_
_geom_bond_atom_site_label_1
_geom_bond_atom_site_label_2
_geom_bond_site_symmetry_1
_geom_bond_site_symmetry_2
Ni1 O1 1_555 1_555
O1 C1 1_555 1_555
O2 Ni1 1_555 1_555
O3 C8 1_555 1_555
O4 C8 1_555 1_555
O5 S1 1_555 1_555
O6 S1 1_555 1_555
N1 Ni1 1_555 1_555
N2 C15 1_555 1_555
N3 Ni1 1_555 1_555
N4 C22 1_555 1_555
O7 Ni1 1_555 1_555
H1 O7 1_555 1_555
H2 O7 1_555 1_555
C1 O2 1_555 1_555
C2 C1 1_555 1_555
C3 C2 1_555 1_555
H3 C3 1_555 1_555
C4 C3 1_555 1_555
H4 C4 1_555 1_555
C5 C4 1_555 1_555
C6 C5 1_555 1_555
H5 C6 1_555 1_555
C7 C2 1_555 1_555
H6 C7 1_555 1_555
C8 C9 1_555 1_555
C9 C10 1_555 1_555
C10 H7 1_555 1_555
C11 C10 1_555 1_555
H8 C11 1_555 1_555
C12 C11 1_555 1_555
C13 C12 1_555 1_555
H9 C13 1_555 1_555
C14 C9 1_555 1_555
H10 C14 1_555 1_555
C15 N1 1_555 1_555
H11 C15 1_555 1_555
C16 N1 1_555 1_555
H12 C16 1_555 1_555
C17 N2 1_555 1_555
H13 C17 1_555 1_555
C18 N2 1_555 1_555
H14 C18 1_555 1_555
H15 C18 1_555 1_555
C19 H16 1_555 1_555
C20 C18 1_555 1_555
C21 C20 1_555 1_555
H17 C21 1_555 1_555
C22 N3 1_555 1_555
H18 C22 1_555 1_555
C23 N3 1_555 1_555
H19 C23 1_555 1_555
C24 N4 1_555 1_555
H20 C24 1_555 1_555
C25 N4 1_555 1_555
H21 C25 1_555 1_555
H22 C25 1_555 1_555
C26 H23 1_555 1_555
C27 C25 1_555 1_555
C28 C27 1_555 1_555
H24 C28 1_555 1_555
S1 C5 1_555 1_555
Ni1A O4 1_555 1_555
Ni1A_2 N1A 1_555 1_555
Ni1A_3 N3A 1_555 1_555
O1A Ni1A 1_555 1_555
O2A Ni1A 1_555 1_555
O3A C8A 1_555 1_555
O4A Ni1 1_555 1_555
O5A S1A 1_555 1_555
O6A S1A 1_555 1_555
N1A C15A 1_555 1_555
N1A_2 Ni1A 1_555 1_555
N2A C15A 1_555 1_555
N3A C22A 1_555 1_555
N3A_2 Ni1A 1_555 1_555
N4A C22A 1_555 1_555
O7A Ni1A 1_555 1_555
H1A O7A 1_555 1_555
H2A O7A 1_555 1_555
C1A O1A 1_555 1_555
C2A C1A 1_555 1_555
C3A C2A 1_555 1_555
H3A C3A 1_555 1_555
C4A C3A 1_555 1_555
H4A C4A 1_555 1_555
C5A C4A 1_555 1_555
C6A C5A 1_555 1_555
H5A C6A 1_555 1_555
C7A C2A 1_555 1_555
H6A C7A 1_555 1_555
C8A O4A 1_555 1_555
C9A C8A 1_555 1_555
C10A C9A 1_555 1_555
H7A C10A 1_555 1_555
C11A C10A 1_555 1_555
H8A C11A 1_555 1_555
C12A C11A 1_555 1_555
C13A C12A 1_555 1_555
H9A C13A 1_555 1_555
C14A C9A 1_555 1_555
H10A C14A 1_555 1_555
C15A H11A 1_555 1_555
C16A N1A 1_555 1_555
H12A C16A 1_555 1_555
C17A N2A 1_555 1_555
H13A C17A 1_555 1_555
C18A N2A 1_555 1_555
H14A C18A 1_555 1_555
H15A C18A 1_555 1_555
C19A C21 1_555 1_555
H16A C19A 1_555 1_555
C20A C18A 1_555 1_555
C21A C19 1_555 1_555
H17A C21A 1_555 1_555
C22A H18A 1_555 1_555
C23A N3A 1_555 1_555
H19A C23A 1_555 1_555
C24A N4A 1_555 1_555
H20A C24A 1_555 1_555
C25A N4A 1_555 1_555
H21A C25A 1_555 1_555
H22A C25A 1_555 1_555
C26A C28 1_555 1_555
H23A C26A 1_555 1_555
C27A C25A 1_555 1_555
C28A C26 1_555 1_555
H24A C28A 1_555 1_555
S1A C5A 1_555 1_555
C6 C7 1_555 1_555
C12 S1 1_555 1_555
C13 C14 1_555 1_555
C16 C17 1_555 1_555
C19 C20 1_555 1_555
C23 C24 1_555 1_555
C26 C27 1_555 1_555
O2A C1A 1_555 1_555
C6A C7A 1_555 1_555
C12A S1A 1_555 1_555
C13A C14A 1_555 1_555
C16A C17A 1_555 1_555
C19A C20A 1_555 1_555
C20A C21A 1_555 1_555
C23A C24A 1_555 1_555
C26A C27A 1_555 1_555
C27A C28A 1_555 1_555

#END
