
#######################################################################
#
#                 Cambridge Crystallographic Data Centre
#                                CCDC 
#
#######################################################################
#
# If this CIF has been generated from an entry in the Cambridge 
# Structural Database, then it will include bibliographic, chemical, 
# crystal, experimental, refinement or atomic coordinate data resulting 
# from the CCDC's data processing and validation procedures.
#
#######################################################################

data_GALKEL
_symmetry_cell_setting           orthorhombic
_symmetry_space_group_name_H-M   'C m c a'
_symmetry_Int_Tables_number      64
_space_group_name_Hall           '-C 2ac 2'
loop_
_symmetry_equiv_pos_site_id
_symmetry_equiv_pos_as_xyz
1 x,y,z
2 -x,1/2-y,1/2+z
3 x,-y,-z
4 -x,1/2+y,1/2-z
5 1/2+x,1/2+y,z
6 1/2-x,-y,1/2+z
7 1/2+x,1/2-y,-z
8 1/2-x,y,1/2-z
9 -x,-y,-z
10 x,1/2+y,1/2-z
11 -x,y,z
12 x,1/2-y,1/2+z
13 1/2-x,1/2-y,-z
14 1/2+x,y,1/2-z
15 1/2-x,1/2+y,z
16 1/2+x,-y,1/2+z
_cell_length_a                   24.2834(9)
_cell_length_b                   20.5803(9)
_cell_length_c                   12.6997(4)
_cell_angle_alpha                90
_cell_angle_beta                 90
_cell_angle_gamma                90
_cell_volume                     6346.8
loop_
_atom_site_label
_atom_site_type_symbol
_atom_site_fract_x
_atom_site_fract_y
_atom_site_fract_z
Ni1 Ni 0.2500 0.03837(3) 0.2500
N1 N 0.30186(13) -0.02743(14) 0.1883(2)
N2 N 0.33193(14) -0.10255(15) 0.0787(2)
O1 O 0.20788(10) 0.05607(12) 0.10838(17)
O2 O 0.18841(10) 0.11300(11) 0.24907(19)
O3 O 0.0000 0.3108(2) -0.0400(4)
O4 O 0.0000 0.2247(3) -0.1827(4)
S1 S 0.0000 0.24270(11) -0.07212(17)
C1 C 0.18079(16) 0.1005(2) 0.1534(3)
C2 C 0.13859(15) 0.13808(18) 0.0934(3)
C3 C 0.12569(17) 0.1221(2) -0.0086(3)
H1 H 0.1450 0.0891 -0.0425
C4 C 0.08415(18) 0.1548(3) -0.0614(3)
H2 H 0.0751 0.1434 -0.1302
C5 C 0.05657(16) 0.2037(2) -0.0115(3)
C6 C 0.06982(17) 0.2209(2) 0.0905(4)
H3 H 0.0513 0.2547 0.1240
C7 C 0.11051(17) 0.1876(2) 0.1414(3)
H4 H 0.1194 0.1988 0.2103
C8 C 0.3515(2) -0.0497(2) 0.2209(3)
H5 H 0.3698 -0.0352 0.2807
C9 C 0.37078(19) -0.0959(2) 0.1549(3)
H6 H 0.4039 -0.1184 0.1604
C10 C 0.29155(16) -0.06088(19) 0.1010(3)
H7 H 0.2600 -0.0558 0.0604
C11 C 0.33282(17) -0.14815(18) -0.0105(3)
H8 H 0.3687 -0.1687 -0.0138
H9 H 0.3276 -0.1240 -0.0754
C12 C 0.26644(17) -0.22017(19) 0.0906(3)
H10 H 0.2775 -0.2005 0.1530
C13 C 0.28906(16) -0.20022(18) -0.0031(3)
C14 C 0.27228(17) -0.23134(19) -0.0933(3)
H11 H 0.2875 -0.2193 -0.1576
Ni1K Ni 0.2500 -0.53837(3) -0.2500
Ni1J Ni -0.2500 0.03837(3) 0.2500
N1L N 0.19814(13) -0.47257(14) -0.1883(2)
N1G N 0.19814(13) -0.02743(14) 0.3117(2)
N2L N 0.16807(14) -0.39745(15) -0.0787(2)
O1J O -0.20788(10) 0.05607(12) 0.10838(17)
O1G O 0.29212(10) 0.05607(12) 0.39162(17)
O2J O -0.18841(10) 0.11300(11) 0.24907(19)
O2G O 0.31159(10) 0.11300(11) 0.25093(19)
C1J C -0.18079(16) 0.1005(2) 0.1534(3)
C2J C -0.13859(15) 0.13808(18) 0.0934(3)
C3J C -0.12569(17) 0.1221(2) -0.0086(3)
H1J H -0.1450 0.0891 -0.0425
C4J C -0.08415(18) 0.1548(3) -0.0614(3)
H2J H -0.0751 0.1434 -0.1302
C5J C -0.05657(16) 0.2037(2) -0.0115(3)
C6J C -0.06982(17) 0.2209(2) 0.0905(4)
H3J H -0.0513 0.2547 0.1240
C7J C -0.11051(17) 0.1876(2) 0.1414(3)
H4J H -0.1194 0.1988 0.2103
C8L C 0.1485(2) -0.4503(2) -0.2209(3)
H5L H 0.1302 -0.4648 -0.2807
C9L C 0.12922(19) -0.4041(2) -0.1549(3)
H6L H 0.0961 -0.3816 -0.1604
C10L C 0.20845(16) -0.43912(19) -0.1010(3)
H7L H 0.2400 -0.4442 -0.0604
C11L C 0.16718(17) -0.35185(18) 0.0105(3)
H8L H 0.1313 -0.3313 0.0138
H9L H 0.1724 -0.3760 0.0754
C12L C 0.23356(17) -0.27983(19) -0.0906(3)
H10L H 0.2225 -0.2995 -0.1530
C13L C 0.21094(16) -0.29978(18) 0.0031(3)
C14L C 0.22772(17) -0.26866(19) 0.0933(3)
H11L H 0.2125 -0.2807 0.1576
loop_
_geom_bond_atom_site_label_1
_geom_bond_atom_site_label_2
_geom_bond_site_symmetry_1
_geom_bond_site_symmetry_2
Ni1 N1 1_555 1_555
N1 C8 1_555 1_555
N2 C9 1_555 1_555
O1 Ni1 1_555 1_555
O2 Ni1 1_555 1_555
O3 S1 1_555 1_555
O4 S1 1_555 1_555
S1 C5 1_555 1_555
C1 O1 1_555 1_555
C2 C1 1_555 1_555
C3 C2 1_555 1_555
H1 C3 1_555 1_555
C4 C3 1_555 1_555
H2 C4 1_555 1_555
C5 C4 1_555 1_555
C6 C5 1_555 1_555
H3 C6 1_555 1_555
C7 C2 1_555 1_555
H4 C7 1_555 1_555
C8 H5 1_555 1_555
C9 C8 1_555 1_555
H6 C9 1_555 1_555
C10 N1 1_555 1_555
H7 C10 1_555 1_555
C11 N2 1_555 1_555
H8 C11 1_555 1_555
H9 C11 1_555 1_555
C12 H10 1_555 1_555
C13 C11 1_555 1_555
C14 C13 1_555 1_555
H11 C14 1_555 1_555
Ni1K N1L 1_555 1_555
Ni1J O1J 1_555 1_555
N1L C8L 1_555 1_555
N1G Ni1 1_555 1_555
N2L C9L 1_555 1_555
O1J C1J 1_555 1_555
O1G Ni1 1_555 1_555
O2J Ni1J 1_555 1_555
O2G Ni1 1_555 1_555
C1J O2J 1_555 1_555
C2J C1J 1_555 1_555
C3J C2J 1_555 1_555
H1J C3J 1_555 1_555
C4J C3J 1_555 1_555
H2J C4J 1_555 1_555
C5J S1 1_555 1_555
C6J C5J 1_555 1_555
H3J C6J 1_555 1_555
C7J C2J 1_555 1_555
H4J C7J 1_555 1_555
C8L H5L 1_555 1_555
C9L C8L 1_555 1_555
H6L C9L 1_555 1_555
C10L N1L 1_555 1_555
H7L C10L 1_555 1_555
C11L N2L 1_555 1_555
H8L C11L 1_555 1_555
H9L C11L 1_555 1_555
C12L C14 1_555 1_555
H10L C12L 1_555 1_555
C13L C11L 1_555 1_555
C14L C12 1_555 1_555
H11L C14L 1_555 1_555
N2 C10 1_555 1_555
O2 C1 1_555 1_555
C6 C7 1_555 1_555
C12 C13 1_555 1_555
N2L C10L 1_555 1_555
C4J C5J 1_555 1_555
C6J C7J 1_555 1_555
C12L C13L 1_555 1_555
C13L C14L 1_555 1_555

#END
