
#######################################################################
#
#                 Cambridge Crystallographic Data Centre
#                                CCDC 
#
#######################################################################
#
# If this CIF has been generated from an entry in the Cambridge 
# Structural Database, then it will include bibliographic, chemical, 
# crystal, experimental, refinement or atomic coordinate data resulting 
# from the CCDC's data processing and validation procedures.
#
#######################################################################

data_GALLAI
_symmetry_cell_setting           triclinic
_symmetry_space_group_name_H-M   'P -1'
_symmetry_Int_Tables_number      2
_space_group_name_Hall           '-P 1'
loop_
_symmetry_equiv_pos_site_id
_symmetry_equiv_pos_as_xyz
1 x,y,z
2 -x,-y,-z
_cell_length_a                   8.743(5)
_cell_length_b                   9.887(5)
_cell_length_c                   11.655(1)
_cell_angle_alpha                71.127(9)
_cell_angle_beta                 72.770(1)
_cell_angle_gamma                65.701(5)
_cell_volume                     853.184
loop_
_atom_site_label
_atom_site_type_symbol
_atom_site_fract_x
_atom_site_fract_y
_atom_site_fract_z
Cd1 Cd 0.57993(4) 1.30751(3) 0.11959(3)
Cd2 Cd 0.56009(4) 1.58746(3) 0.32407(3)
C1 C 0.2547(5) 1.2313(5) 0.2482(4)
C2 C 0.3864(5) 1.0823(5) 0.2314(4)
C3 C 0.3782(5) 0.9370(4) 0.2681(4)
C4 C 0.2370(5) 0.8799(5) 0.3317(4)
C5 C 0.6353(5) 0.9210(4) 0.1791(4)
C6 C 0.8165(5) 0.8579(4) 0.1195(4)
C7 C 0.9445(5) 0.8837(5) 0.1462(4)
H1 H 0.9197 0.9379 0.2054
C8 C 1.1098(5) 0.8278(5) 0.0836(4)
H2 H 1.1957 0.8448 0.1023
C9 C 0.8612(6) 0.7719(5) 0.0341(4)
H3 H 0.7789 0.7486 0.0168
C10 C 1.0283(6) 0.7211(5) -0.0249(4)
H4 H 1.0566 0.6642 -0.0828
C11 C 0.5549(6) 1.2861(5) 0.4021(4)
C12 C 0.5266(6) 1.1382(5) 0.4555(4)
C13 C 0.6604(5) 1.0034(5) 0.4377(4)
H5 H 0.7680 1.0060 0.3958
C14 C 0.3664(6) 1.1339(5) 0.5181(4)
H6 H 0.2769 1.2237 0.5303
Cl1 Cl 0.53771(15) 1.59197(12) 0.09295(10)
N1 N 0.5505(4) 1.0715(4) 0.1751(3)
N2 N 0.5371(4) 0.8357(4) 0.2347(3)
N3 N 1.1513(4) 0.7500(4) -0.0028(3)
O1 O 0.2991(4) 1.3445(3) 0.2186(3)
O2 O 0.1027(4) 1.2347(3) 0.2935(3)
O3 O 0.0847(4) 0.9778(4) 0.3535(3)
O4 O 0.2649(4) 0.7414(3) 0.3603(3)
O5 O 0.4758(4) 1.3927(3) 0.4587(3)
O6 O 0.6554(4) 1.3036(4) 0.2993(3)
O7 O 0.8421(4) 1.5090(4) 0.3061(4)
H7 H 0.874(9) 1.414(2) 0.338(7)
H8 H 0.900(7) 1.542(6) 0.330(6)
Cd1A Cd 0.42007(4) 1.69249(3) -0.11959(3)
Cd1A_2 Cd 1.42007(4) 0.69249(3) -0.11959(3)
Cd1A_3 Cd 0.42007(4) 0.69249(3) 0.88041(3)
Cd2A Cd 0.43991(4) 1.41254(3) -0.32407(3)
Cd2_2 Cd 0.56009(4) 0.58746(3) 0.32407(3)
Cd2A_2 Cd 0.43991(4) 1.41254(3) 0.67593(3)
Cd2A_3 Cd 0.43991(4) 0.41254(3) 0.67593(3)
Cd2A_4 Cd 1.43991(4) 1.41254(3) -0.32407(3)
C1A C 1.7453(5) 0.7687(5) -0.2482(4)
C2A C 1.6136(5) 0.9177(5) -0.2314(4)
C3A C 1.6218(5) 1.0630(4) -0.2681(4)
C4A C 1.7630(5) 1.1201(5) -0.3317(4)
C5A C 1.3647(5) 1.0790(4) -0.1791(4)
C6A C 1.1835(5) 1.1421(4) -0.1195(4)
C7A C 1.0555(5) 1.1163(5) -0.1462(4)
H1A H 1.0803 1.0621 -0.2054
C8A C 0.8902(5) 1.1722(5) -0.0836(4)
H2A H 0.8043 1.1552 -0.1023
C9A C 1.1388(6) 1.2281(5) -0.0341(4)
H3A H 1.2211 1.2514 -0.0168
C10A C 0.9717(6) 1.2789(5) 0.0249(4)
H4A H 0.9434 1.3358 0.0828
C11A C 0.4451(6) 0.7139(5) 0.5979(4)
C12A C 0.4734(6) 0.8618(5) 0.5445(4)
C13A C 0.3396(5) 0.9966(5) 0.5623(4)
H5A H 0.2320 0.9940 0.6042
C14A C 0.6336(6) 0.8661(5) 0.4819(4)
H6A H 0.7231 0.7763 0.4697
Cl1A Cl 0.46229(15) 1.40803(12) -0.09295(10)
N1A N 1.4495(4) 0.9285(4) -0.1751(3)
N1A_2 N 0.4495(4) 1.9285(4) -0.1751(3)
N2A N 1.4629(4) 1.1643(4) -0.2347(3)
N2_2 N 0.5371(4) 1.8357(4) 0.2347(3)
N2A_2 N 0.4629(4) 1.1643(4) -0.2347(3)
N3A N 0.8487(4) 1.2500(4) 0.0028(3)
N3_2 N 0.1513(4) 1.7500(4) -0.0028(3)
O1A O 1.7009(4) 0.6555(3) -0.2186(3)
O1A_2 O 0.7009(4) 1.6555(3) -0.2186(3)
O2A O 1.8973(4) 0.7653(3) -0.2935(3)
O3A O 1.9153(4) 1.0222(4) -0.3535(3)
O4A O 1.7351(4) 1.2586(3) -0.3603(3)
O4_2 O 0.2649(4) 1.7414(3) 0.3603(3)
O4A_2 O 0.7351(4) 1.2586(3) -0.3603(3)
O5A O 0.5242(4) 0.6073(3) 0.5413(3)
O5A_2 O 0.5242(4) 1.6073(3) 0.5413(3)
O5A_3 O 0.5242(4) 1.6073(3) -0.4587(3)
O5_2 O 0.4758(4) 1.3927(3) -0.5413(3)
O6A O 0.3446(4) 0.6964(4) 0.7007(3)
O6A_2 O 0.3446(4) 1.6964(4) -0.2993(3)
O7A O 0.1579(4) 1.4910(4) -0.3061(4)
H7A H 0.126(9) 1.586(2) -0.338(7)
H8A H 0.100(7) 1.458(6) -0.330(6)
O8 O 0.0556(8) 0.5816(7) 0.3765(6)
loop_
_geom_bond_atom_site_label_1
_geom_bond_atom_site_label_2
_geom_bond_site_symmetry_1
_geom_bond_site_symmetry_2
Cd1 Cl1 1_555 1_555
Cd2 Cl1 1_555 1_555
C1 C2 1_555 1_555
C2 C3 1_555 1_555
C3 C4 1_555 1_555
C4 O3 1_555 1_555
C5 C6 1_555 1_555
C6 C7 1_555 1_555
C7 H1 1_555 1_555
C8 C7 1_555 1_555
H2 C8 1_555 1_555
C9 C6 1_555 1_555
H3 C9 1_555 1_555
C10 C9 1_555 1_555
H4 C10 1_555 1_555
C11 C12 1_555 1_555
C12 C13 1_555 1_555
C13 H5 1_555 1_555
C14 C12 1_555 1_555
H6 C14 1_555 1_555
Cl1 Cd1A 1_555 1_555
N1 Cd1 1_555 1_555
N2 C3 1_555 1_555
N3 C8 1_555 1_555
O1 Cd1 1_555 1_555
O2 C1 1_555 1_555
O4 C4 1_555 1_555
O5 Cd2 1_555 1_555
O6 Cd1 1_555 1_555
O7 Cd2 1_555 1_555
H7 O7 1_555 1_555
H8 O7 1_555 1_555
Cd1A Cl1A 1_555 1_555
Cd1A_2 N3 1_555 1_555
Cd1A_3 O6A 1_555 1_555
Cd2A Cl1A 1_555 1_555
Cd2_2 N2 1_555 1_555
Cd2A_2 O5 1_555 1_555
Cd2A_3 O5A 1_555 1_555
Cd2A_4 N2A 1_555 1_555
C1A C2A 1_555 1_555
C2A C3A 1_555 1_555
C3A C4A 1_555 1_555
C4A O3A 1_555 1_555
C5A C6A 1_555 1_555
C6A C7A 1_555 1_555
C7A H1A 1_555 1_555
C8A C7A 1_555 1_555
H2A C8A 1_555 1_555
C9A C6A 1_555 1_555
H3A C9A 1_555 1_555
C10A C9A 1_555 1_555
H4A C10A 1_555 1_555
C11A C12A 1_555 1_555
C12A C13A 1_555 1_555
C13A C14 1_555 1_555
H5A C13A 1_555 1_555
C14A C13 1_555 1_555
H6A C14A 1_555 1_555
Cl1A Cd1 1_555 1_555
N1A Cd1A_2 1_555 1_555
N1A_2 Cd1A 1_555 1_555
N2A C3A 1_555 1_555
N2_2 Cd2 1_555 1_555
N2A_2 Cd2A 1_555 1_555
N3A Cd1 1_555 1_555
N3_2 Cd1A 1_555 1_555
O1A Cd1A_2 1_555 1_555
O1A_2 Cd1A 1_555 1_555
O2A C1A 1_555 1_555
O4A Cd2A_4 1_555 1_555
O4_2 Cd2 1_555 1_555
O4A_2 Cd2A 1_555 1_555
O5A Cd2_2 1_555 1_555
O5A_2 Cd2 1_555 1_555
O5A_3 Cd2A 1_555 1_555
O5_2 Cd2A 1_555 1_555
O6A C11A 1_555 1_555
O6A_2 Cd1A 1_555 1_555
O7A Cd2A 1_555 1_555
H7A O7A 1_555 1_555
H8A O7A 1_555 1_555
C1 O1 1_555 1_555
C2 N1 1_555 1_555
C5 N1 1_555 1_555
C5 N2 1_555 1_555
C10 N3 1_555 1_555
C11 O5 1_555 1_555
C11 O6 1_555 1_555
O4 Cd2_2 1_555 1_555
Cd2A_2 O5A_2 1_555 1_555
C1A O1A 1_555 1_555
C2A N1A 1_555 1_555
C4A O4A 1_555 1_555
C5A N1A 1_555 1_555
C5A N2A 1_555 1_555
C8A N3A 1_555 1_555
C10A N3A 1_555 1_555
C11A O5A 1_555 1_555
C12A C14A 1_555 1_555

#END
