
#######################################################################
#
#                 Cambridge Crystallographic Data Centre
#                                CCDC 
#
#######################################################################
#
# If this CIF has been generated from an entry in the Cambridge 
# Structural Database, then it will include bibliographic, chemical, 
# crystal, experimental, refinement or atomic coordinate data resulting 
# from the CCDC's data processing and validation procedures.
#
#######################################################################

data_GALLUC01
_symmetry_cell_setting           monoclinic
_symmetry_space_group_name_H-M   'P 21/c'
_symmetry_Int_Tables_number      14
_space_group_name_Hall           '-P 2ybc'
loop_
_symmetry_equiv_pos_site_id
_symmetry_equiv_pos_as_xyz
1 x,y,z
2 -x,1/2+y,1/2-z
3 -x,-y,-z
4 x,1/2-y,1/2+z
_cell_length_a                   8.3098(11)
_cell_length_b                   14.7322(19)
_cell_length_c                   11.5232(15)
_cell_angle_alpha                90
_cell_angle_beta                 90.8490(10)
_cell_angle_gamma                90
_cell_volume                     1410.53
loop_
_atom_site_label
_atom_site_type_symbol
_atom_site_fract_x
_atom_site_fract_y
_atom_site_fract_z
C1 C 0.3169(6) 0.2387(3) 0.6855(4)
C2 C 0.4266(6) 0.2944(3) 0.7617(4)
C3 C 0.5060(6) 0.3751(3) 0.7459(4)
C4 C 0.5362(6) 0.4357(3) 0.6452(4)
C5 C 0.5597(7) 0.3207(3) 0.9199(4)
C6 C 0.6470(6) 0.3114(3) 1.0327(4)
C7 C 0.6420(8) 0.3780(4) 1.1161(5)
H1 H 0.5779 0.4292 1.1057
C8 C 0.7348(9) 0.3672(4) 1.2159(5)
H2 H 0.7313 0.4125 1.2720
C9 C 0.8328(8) 0.2325(4) 1.1553(5)
H3 H 0.8993 0.1826 1.1679
C10 C 0.7437(7) 0.2363(4) 1.0524(5)
H4 H 0.7489 0.1896 0.9982
C11 C -0.0259(7) -0.0023(3) 0.9354(4)
N1 N 0.4615(5) 0.2607(3) 0.8711(3)
N2 N 0.5870(6) 0.3905(3) 0.8487(4)
H7 H 0.6455 0.4372 0.8646
N3 N 0.8281(6) 0.2959(4) 1.2361(4)
O1 O 0.2705(4) 0.1656(2) 0.7312(3)
O2 O 0.2800(4) 0.2634(2) 0.5862(3)
O3 O 0.4934(5) 0.4097(2) 0.5455(3)
O4 O 0.6131(5) 0.5065(2) 0.6673(3)
O5 O 0.0519(5) 0.0429(3) 0.8660(3)
O6 O -0.1452(5) -0.0518(3) 0.9123(3)
O7 O 0.0605(5) 0.2342(3) 0.9031(3)
H8 H -0.0049 0.2311 0.8487
H9 H 0.0174 0.2177 0.9632
Tb1 Tb 0.27800(3) 0.132049(14) 0.933268(19)
C1B C -0.3169(6) -0.2387(3) 1.3145(4)
C2B C -0.4266(6) -0.2944(3) 1.2383(4)
C3B C -0.5060(6) -0.3751(3) 1.2541(4)
C4B C -0.5362(6) -0.4357(3) 1.3548(4)
C5B C -0.5597(7) -0.3207(3) 1.0801(4)
C6B C -0.6470(6) -0.3114(3) 0.9673(4)
C7B C -0.6420(8) -0.3780(4) 0.8839(5)
H1B H -0.5779 -0.4292 0.8943
C8B C -0.7348(9) -0.3672(4) 0.7841(5)
H2B H -0.7313 -0.4125 0.7280
C9B C -0.8328(8) -0.2325(4) 0.8447(5)
H3B H -0.8993 -0.1826 0.8321
C10B C -0.7437(7) -0.2363(4) 0.9476(5)
H4B H -0.7489 -0.1896 1.0018
C11B C 0.0259(7) 0.0023(3) 1.0646(4)
N1B N -0.4615(5) -0.2607(3) 1.1289(3)
N2B N -0.5870(6) -0.3905(3) 1.1513(4)
H7B H -0.6455 -0.4372 1.1354
N3B N -0.8281(6) -0.2959(4) 0.7639(4)
O1B O -0.2705(4) -0.1656(2) 1.2688(3)
O2B O -0.2800(4) -0.2634(2) 1.4138(3)
O2A O -0.2800(4) -0.2366(2) 0.9138(3)
O2C O 0.2800(4) 0.2366(2) 1.0862(3)
O3B O -0.4934(5) -0.4097(2) 1.4545(3)
O3A O -0.4934(5) -0.0903(2) 0.9545(3)
O3C O 0.4934(5) 0.0903(2) 1.0455(3)
O4B O -0.6131(5) -0.5065(2) 1.3327(3)
O4A O 0.3869(5) 0.0065(2) 0.8327(3)
O4C O -0.3869(5) -0.0065(2) 1.1673(3)
O5B O -0.0519(5) -0.0429(3) 1.1340(3)
O6B O 0.1452(5) 0.0518(3) 1.0877(3)
O7B O -0.0605(5) -0.2342(3) 1.0969(3)
H8B H 0.0049 -0.2311 1.1513
H9B H -0.0174 -0.2177 1.0368
Tb1B Tb -0.27800(3) -0.132049(14) 1.066732(19)
Tb1A Tb -0.27800(3) -0.367951(14) 1.566732(19)
Tb1A_2 Tb 0.72200(3) 0.632049(14) 0.566732(19)
Tb1C Tb -0.72200(3) -0.632049(14) 1.433268(19)
Tb1C_2 Tb 0.27800(3) 0.367951(14) 0.433268(19)
H5 H 0.229(7) 0.070(2) 0.624(3)
H6 H 0.173(7) 0.047(3) 0.518(2)
O8 O 0.1932(6) 0.0257(3) 0.5851(4)
O9 O 0.9193(6) 0.9245(3) 0.6447(4)
H10 H 0.8769 0.9415 0.7077
H11 H 0.8918 0.8697 0.6328
loop_
_geom_bond_atom_site_label_1
_geom_bond_atom_site_label_2
_geom_bond_site_symmetry_1
_geom_bond_site_symmetry_2
C1 C2 1_555 1_555
C2 C3 1_555 1_555
C3 C4 1_555 1_555
C4 O3 1_555 1_555
C5 C6 1_555 1_555
C6 C7 1_555 1_555
C7 H1 1_555 1_555
C8 C7 1_555 1_555
H2 C8 1_555 1_555
C9 H3 1_555 1_555
C10 C6 1_555 1_555
H4 C10 1_555 1_555
C11 O5 1_555 1_555
H5 O8 1_555 1_555
H6 O8 1_555 1_555
N1 C2 1_555 1_555
N2 C3 1_555 1_555
H7 N2 1_555 1_555
N3 C8 1_555 1_555
O1 C1 1_555 1_555
O2 C1 1_555 1_555
O3 Tb1C_2 1_555 1_555
O4 C4 1_555 1_555
O5 Tb1 1_555 1_555
O6 C11 1_555 1_555
O7 H8 1_555 1_555
H9 O7 1_555 1_555
O9 H10 1_555 1_555
H11 O9 1_555 1_555
Tb1 N1 1_555 1_555
C1B C2B 1_555 1_555
C2B C3B 1_555 1_555
C3B C4B 1_555 1_555
C4B O3B 1_555 1_555
C5B C6B 1_555 1_555
C6B C7B 1_555 1_555
C7B H1B 1_555 1_555
C8B C7B 1_555 1_555
H2B C8B 1_555 1_555
C9B H3B 1_555 1_555
C10B C6B 1_555 1_555
H4B C10B 1_555 1_555
C11B C11 1_555 1_555
N1B C2B 1_555 1_555
N2B C3B 1_555 1_555
H7B N2B 1_555 1_555
N3B C8B 1_555 1_555
O1B C1B 1_555 1_555
O2B C1B 1_555 1_555
O2A Tb1B 1_555 1_555
O2C Tb1 1_555 1_555
O3B Tb1A 1_555 1_555
O3A Tb1B 1_555 1_555
O3C Tb1 1_555 1_555
O4B C4B 1_555 1_555
O4A Tb1 1_555 1_555
O4C Tb1B 1_555 1_555
O5B C11B 1_555 1_555
O6B Tb1 1_555 1_555
O7B H8B 1_555 1_555
H9B O7B 1_555 1_555
Tb1B O6 1_555 1_555
Tb1A O2B 1_555 1_555
Tb1A_2 O4 1_555 1_555
Tb1C O4B 1_555 1_555
Tb1C_2 O2 1_555 1_555
C5 N1 1_555 1_555
C5 N2 1_555 1_555
C9 C10 1_555 1_555
C9 N3 1_555 1_555
O1 Tb1 1_555 1_555
O7 Tb1 1_555 1_555
C5B N1B 1_555 1_555
C5B N2B 1_555 1_555
C9B C10B 1_555 1_555
C9B N3B 1_555 1_555
C11B O6B 1_555 1_555
N1B Tb1B 1_555 1_555
O1B Tb1B 1_555 1_555
O5B Tb1B 1_555 1_555
O7B Tb1B 1_555 1_555

#END
