
#######################################################################
#
#                 Cambridge Crystallographic Data Centre
#                                CCDC 
#
#######################################################################
#
# If this CIF has been generated from an entry in the Cambridge 
# Structural Database, then it will include bibliographic, chemical, 
# crystal, experimental, refinement or atomic coordinate data resulting 
# from the CCDC's data processing and validation procedures.
#
#######################################################################

data_GALLEM
_symmetry_cell_setting           monoclinic
_symmetry_space_group_name_H-M   'P 21/n'
_symmetry_Int_Tables_number      14
_space_group_name_Hall           '-P 2yn'
loop_
_symmetry_equiv_pos_site_id
_symmetry_equiv_pos_as_xyz
1 x,y,z
2 1/2-x,1/2+y,1/2-z
3 -x,-y,-z
4 1/2+x,1/2-y,1/2+z
_cell_length_a                   13.562(6)
_cell_length_b                   6.941(2)
_cell_length_c                   16.190(1)
_cell_angle_alpha                90
_cell_angle_beta                 102.243(3)
_cell_angle_gamma                90
_cell_volume                     1489.37
loop_
_atom_site_label
_atom_site_type_symbol
_atom_site_fract_x
_atom_site_fract_y
_atom_site_fract_z
Cd1 Cd 0.79417(2) 1.34721(5) -0.14056(2)
Cd2 Cd 1.28437(2) 1.46046(5) -0.15073(2)
C1 C 1.1161(3) 1.7044(7) -0.2659(3)
C2 C 1.0604(3) 1.5768(6) -0.2178(3)
C3 C 0.9606(3) 1.5538(6) -0.2119(3)
C4 C 0.8657(3) 1.6420(6) -0.2587(3)
C5 C 1.0521(3) 1.3555(6) -0.1249(3)
C6 C 1.0869(3) 1.2060(6) -0.0614(3)
C7 C 1.1454(4) 1.0552(7) -0.0806(3)
H1 H 1.1617 1.0483 -0.1336
C8 C 1.1788(4) 0.9169(8) -0.0213(4)
H2 H 1.2166 0.8153 -0.0357
C9 C 1.0676(3) 1.2112(7) 0.0187(3)
H3 H 1.0288 1.3101 0.0340
C10 C 1.1062(3) 1.0684(7) 0.0764(3)
H4 H 1.0943 1.0760 0.1308
C11 C 0.6719(4) 1.6200(7) -0.0380(3)
C12 C 0.6180(4) 1.7093(8) -0.1197(3)
H5 H 0.6642 1.7238 -0.1568
H6 H 0.5923 1.8333 -0.1087
H7 H 0.5631 1.6277 -0.1460
H8 H 1.383(5) 1.794(10) -0.070(2)
H10 H 1.343(7) 1.855(7) -0.151(4)
N1 N 1.1171(3) 1.4477(5) -0.1643(2)
N2 N 0.9558(3) 1.4141(5) -0.1533(2)
N3 N 1.1599(3) 0.9202(6) 0.0568(3)
O1 O 1.2014(2) 1.6434(5) -0.2753(2)
O2 O 1.0826(2) 1.8653(5) -0.2916(2)
O3 O 0.8691(2) 1.7648(5) -0.3148(2)
O4 O 0.7839(2) 1.5911(5) -0.2398(2)
O5 O 0.6409(3) 1.6671(5) 0.0281(2)
O6 O 0.7435(2) 1.5037(5) -0.0353(2)
O7 O 1.3474(3) 1.7594(6) -0.1177(3)
Cd1B Cd 1.20583(2) 0.65279(5) 0.14056(2)
Cd1A Cd 0.70583(2) 1.84721(5) -0.35944(2)
Cd2A Cd 1.21563(2) 1.96046(5) -0.34927(2)
Cd2B Cd 0.71563(2) 1.53954(5) 0.15073(2)
N3B N 0.8401(3) 1.0798(6) -0.0568(3)
O2A O 1.4174(2) 1.3653(5) -0.2084(2)
O3A O 0.6309(2) 1.2648(5) -0.1852(2)
O5B O 1.3591(3) 1.3329(5) -0.0281(2)
H9 H 0.510(3) 0.785(12) 0.029(5)
H11 H 0.448(5) 0.774(11) 0.085(3)
O8 O 0.4535(3) 0.8226(7) 0.0377(3)
loop_
_geom_bond_atom_site_label_1
_geom_bond_atom_site_label_2
_geom_bond_site_symmetry_1
_geom_bond_site_symmetry_2
Cd1 N2 1_555 1_555
Cd2 N1 1_555 1_555
C1 C2 1_555 1_555
C2 C3 1_555 1_555
C3 C4 1_555 1_555
C4 O3 1_555 1_555
C5 C6 1_555 1_555
C6 C7 1_555 1_555
C7 H1 1_555 1_555
C8 C7 1_555 1_555
H2 C8 1_555 1_555
C9 C6 1_555 1_555
H3 C9 1_555 1_555
C10 C9 1_555 1_555
H4 C10 1_555 1_555
C11 C12 1_555 1_555
C12 H5 1_555 1_555
H6 C12 1_555 1_555
H7 C12 1_555 1_555
H8 O7 1_555 1_555
H9 O8 1_555 1_555
H10 O7 1_555 1_555
H11 O8 1_555 1_555
N1 C2 1_555 1_555
N2 C3 1_555 1_555
N3 C8 1_555 1_555
O1 Cd2 1_555 1_555
O2 C1 1_555 1_555
O3 Cd1A 1_555 1_555
O4 Cd1 1_555 1_555
O5 C11 1_555 1_555
O6 Cd1 1_555 1_555
O7 Cd2 1_555 1_555
Cd1B N3 1_555 1_555
Cd2A O2 1_555 1_555
Cd2B O5 1_555 1_555
N3B Cd1 1_555 1_555
O2A Cd2 1_555 1_555
O3A Cd1 1_555 1_555
O5B Cd2 1_555 1_555
C1 O1 1_555 1_555
C4 O4 1_555 1_555
C5 N1 1_555 1_555
C5 N2 1_555 1_555
C10 N3 1_555 1_555
C11 O6 1_555 1_555

#END
