
#######################################################################
#
#                 Cambridge Crystallographic Data Centre
#                                CCDC 
#
#######################################################################
#
# If this CIF has been generated from an entry in the Cambridge 
# Structural Database, then it will include bibliographic, chemical, 
# crystal, experimental, refinement or atomic coordinate data resulting 
# from the CCDC's data processing and validation procedures.
#
#######################################################################

data_GALLOW
_symmetry_cell_setting           monoclinic
_symmetry_space_group_name_H-M   'P 21/c'
_symmetry_Int_Tables_number      14
_space_group_name_Hall           '-P 2ybc'
loop_
_symmetry_equiv_pos_site_id
_symmetry_equiv_pos_as_xyz
1 x,y,z
2 -x,1/2+y,1/2-z
3 -x,-y,-z
4 x,1/2-y,1/2+z
_cell_length_a                   8.301(6)
_cell_length_b                   14.878(5)
_cell_length_c                   11.575(4)
_cell_angle_alpha                90
_cell_angle_beta                 90.854(9)
_cell_angle_gamma                90
_cell_volume                     1429.38
loop_
_atom_site_label
_atom_site_type_symbol
_atom_site_fract_x
_atom_site_fract_y
_atom_site_fract_z
Eu1 Eu 0.78023(3) 1.132097(14) 0.932320(19)
C1 C 0.9642(6) 0.9359(3) 0.8540(4)
C2 C 0.9925(6) 0.8746(3) 0.7542(4)
C3 C 1.0701(6) 0.7942(3) 0.7393(4)
C4 C 1.1784(6) 0.7391(3) 0.8157(4)
C5 C 0.9363(6) 0.8208(3) 0.5814(4)
C6 C 0.8492(6) 0.8119(3) 0.4697(4)
C7 C 0.8533(7) 0.8783(4) 0.3856(5)
H1 H 0.9156 0.9297 0.3964
C8 C 0.7639(8) 0.8667(4) 0.2866(5)
H2 H 0.7691 0.9110 0.2301
C9 C 0.7552(6) 0.7372(4) 0.4478(5)
H3 H 0.7512 0.6903 0.5008
C10 C 0.6678(7) 0.7334(4) 0.3463(5)
H4 H 0.6029 0.6833 0.3334
C11 C 0.4733(6) 0.9972(3) 0.9363(4)
H5 H 0.848(8) 0.941(4) 0.639(5)
N1 N 0.9124(5) 0.8910(3) 0.6520(3)
N2 N 1.0338(5) 0.7604(3) 0.6305(3)
N3 N 0.6699(6) 0.7960(4) 0.2662(4)
O1 O 0.8913(5) 1.0076(2) 0.8298(3)
O2 O 1.0039(4) 0.9108(2) 0.9524(3)
O3 O 1.2171(4) 0.7638(2) 0.9135(3)
O4 O 1.2244(4) 0.6667(2) 0.7703(3)
O5 O 0.5511(5) 1.0430(3) 0.8660(3)
O6 O 0.3546(5) 0.9480(2) 0.9123(3)
O7 O 0.5593(4) 1.2353(2) 0.9013(3)
Eu1B Eu 0.21977(3) 0.867903(14) 1.067680(19)
Eu1_2 Eu -0.21977(3) 1.132097(14) 0.932320(19)
Eu1A Eu 1.21977(3) 0.632097(14) 0.567680(19)
Eu1B_2 Eu 1.21977(3) 0.867903(14) 1.067680(19)
Eu1C Eu -0.21977(3) 1.367903(14) 1.432320(19)
C1B C 0.0358(6) 1.0641(3) 1.1460(4)
C2B C 0.0075(6) 1.1254(3) 1.2458(4)
C3B C -0.0701(6) 1.2058(3) 1.2607(4)
C4B C -0.1784(6) 1.2609(3) 1.1843(4)
C5B C 0.0637(6) 1.1792(3) 1.4186(4)
C6B C 0.1508(6) 1.1881(3) 1.5303(4)
C7B C 0.1467(7) 1.1217(4) 1.6144(5)
H1B H 0.0844 1.0703 1.6036
C8B C 0.2361(8) 1.1333(4) 1.7134(5)
H2B H 0.2309 1.0890 1.7699
C9B C 0.2448(6) 1.2628(4) 1.5522(5)
H3B H 0.2488 1.3097 1.4992
C10B C 0.3322(7) 1.2666(4) 1.6537(5)
H4B H 0.3971 1.3167 1.6666
C11B C 0.5267(6) 1.0028(3) 1.0637(4)
H5B H 0.152(8) 1.059(4) 1.361(5)
N1B N 0.0876(5) 1.1090(3) 1.3480(3)
N2B N -0.0338(5) 1.2396(3) 1.3695(3)
N2A N 0.9662(5) 1.2604(3) 0.8695(3)
N2C N 0.0338(5) 0.7396(3) 1.1305(3)
N3B N 0.3301(6) 1.2040(4) 1.7338(4)
O1B O 0.1087(5) 0.9924(2) 1.1702(3)
O2B O -0.0039(4) 1.0892(2) 1.0476(3)
O2_2 O 0.0039(4) 0.9108(2) 0.9524(3)
O2B_2 O 0.9961(4) 1.0892(2) 1.0476(3)
O3B O -0.2171(4) 1.2362(2) 1.0865(3)
O3_2 O 0.2171(4) 0.7638(2) 0.9135(3)
O3B_2 O 0.7829(4) 1.2362(2) 1.0865(3)
O4B O -0.2244(4) 1.3333(2) 1.2297(3)
O4A O 0.7756(4) 1.1667(2) 0.7297(3)
O4C O 0.2244(4) 0.8333(2) 1.2703(3)
O5B O 0.4489(5) 0.9570(3) 1.1340(3)
O6B O 0.6454(5) 1.0520(2) 1.0877(3)
O7B O 0.4407(4) 0.7647(2) 1.0987(3)
O8 O 0.3058(5) 0.5281(3) 0.9154(3)
O9 O 0.5793(6) 0.4253(3) 0.8537(4)
loop_
_geom_bond_atom_site_label_1
_geom_bond_atom_site_label_2
_geom_bond_site_symmetry_1
_geom_bond_site_symmetry_2
Eu1 O1 1_555 1_555
C1 C2 1_555 1_555
C2 C3 1_555 1_555
C3 C4 1_555 1_555
C4 O3 1_555 1_555
C5 C6 1_555 1_555
C6 C7 1_555 1_555
C7 H1 1_555 1_555
C8 C7 1_555 1_555
H2 C8 1_555 1_555
C9 C6 1_555 1_555
H3 C9 1_555 1_555
C10 C9 1_555 1_555
H4 C10 1_555 1_555
C11 O5 1_555 1_555
H5 N1 1_555 1_555
N1 C2 1_555 1_555
N2 C3 1_555 1_555
N3 C8 1_555 1_555
O1 C1 1_555 1_555
O2 C1 1_555 1_555
O3 Eu1B_2 1_555 1_555
O4 C4 1_555 1_555
O5 Eu1 1_555 1_555
O6 C11 1_555 1_555
O7 Eu1 1_555 1_555
Eu1B O6 1_555 1_555
Eu1_2 O2B 1_555 1_555
Eu1A N2 1_555 1_555
Eu1B_2 O2 1_555 1_555
Eu1C N2B 1_555 1_555
C1B C2B 1_555 1_555
C2B C3B 1_555 1_555
C3B C4B 1_555 1_555
C4B O3B 1_555 1_555
C5B C6B 1_555 1_555
C6B C7B 1_555 1_555
C7B H1B 1_555 1_555
C8B C7B 1_555 1_555
H2B C8B 1_555 1_555
C9B C6B 1_555 1_555
H3B C9B 1_555 1_555
C10B C9B 1_555 1_555
H4B C10B 1_555 1_555
C11B C11 1_555 1_555
H5B N1B 1_555 1_555
N1B C2B 1_555 1_555
N2B C3B 1_555 1_555
N2A Eu1 1_555 1_555
N2C Eu1B 1_555 1_555
N3B C8B 1_555 1_555
O1B Eu1B 1_555 1_555
O2B C1B 1_555 1_555
O2_2 Eu1B 1_555 1_555
O2B_2 Eu1 1_555 1_555
O3B Eu1_2 1_555 1_555
O3_2 Eu1B 1_555 1_555
O3B_2 Eu1 1_555 1_555
O4B Eu1C 1_555 1_555
O4A Eu1 1_555 1_555
O4C Eu1B 1_555 1_555
O5B Eu1B 1_555 1_555
O6B Eu1 1_555 1_555
O7B Eu1B 1_555 1_555
C5 N1 1_555 1_555
C5 N2 1_555 1_555
C10 N3 1_555 1_555
O4 Eu1A 1_555 1_555
C1B O1B 1_555 1_555
C4B O4B 1_555 1_555
C5B N1B 1_555 1_555
C5B N2B 1_555 1_555
C10B N3B 1_555 1_555
C11B O5B 1_555 1_555
C11B O6B 1_555 1_555

#END
