
#######################################################################
#
#                 Cambridge Crystallographic Data Centre
#                                CCDC 
#
#######################################################################
#
# If this CIF has been generated from an entry in the Cambridge 
# Structural Database, then it will include bibliographic, chemical, 
# crystal, experimental, refinement or atomic coordinate data resulting 
# from the CCDC's data processing and validation procedures.
#
#######################################################################

data_GALLUC
_symmetry_cell_setting           monoclinic
_symmetry_space_group_name_H-M   'P 21/c'
_symmetry_Int_Tables_number      14
_space_group_name_Hall           '-P 2ybc'
loop_
_symmetry_equiv_pos_site_id
_symmetry_equiv_pos_as_xyz
1 x,y,z
2 -x,1/2+y,1/2-z
3 -x,-y,-z
4 x,1/2-y,1/2+z
_cell_length_a                   8.321(9)
_cell_length_b                   14.724(1)
_cell_length_c                   11.522(3)
_cell_angle_alpha                90
_cell_angle_beta                 90.797(7)
_cell_angle_gamma                90
_cell_volume                     1411.52
loop_
_atom_site_label
_atom_site_type_symbol
_atom_site_fract_x
_atom_site_fract_y
_atom_site_fract_z
Tb1 Tb 0.77765(4) 0.132268(19) 0.93312(2)
C1 C 0.8173(7) 0.2393(4) 0.6861(5)
C2 C 0.9270(8) 0.2944(4) 0.7603(5)
C3 C 1.0055(8) 0.3748(4) 0.7449(5)
C4 C 1.0357(8) 0.4357(4) 0.6455(5)
C5 C 1.0601(9) 0.3202(5) 0.9192(6)
C6 C 1.1467(8) 0.3124(5) 1.0306(5)
C7 C 1.2433(9) 0.2376(5) 1.0514(6)
H1 H 1.2487 0.1910 0.9971
C8 C 1.3311(10) 0.2328(6) 1.1529(7)
H2 H 1.3969 0.1825 1.1648
C9 C 1.1421(9) 0.3788(5) 1.1167(6)
H3 H 1.0780 0.4301 1.1067
C10 C 1.2329(10) 0.3683(5) 1.2167(6)
H4 H 1.2280 0.4134 1.2731
C11 C 0.4742(9) -0.0026(5) 0.9356(5)
H5 H 1.161(9) 0.442(5) 0.849(6)
H6 H 0.561(9) 0.2897(14) 0.899(6)
H7 H 0.490(6) 0.212(4) 0.858(5)
N1 N 1.0874(7) 0.3906(4) 0.8474(4)
N2 N 0.9610(6) 0.2602(3) 0.8705(4)
N3 N 1.3273(8) 0.2969(5) 1.2365(5)
O1 O 0.7704(5) 0.1663(3) 0.7318(3)
O2 O 0.7787(5) 0.2626(3) 0.5855(3)
O3 O 0.9909(6) 0.4106(3) 0.5459(4)
O4 O 1.1127(6) 0.5071(3) 0.6671(4)
O5 O 0.5541(6) 0.0425(3) 0.8662(4)
O6 O 0.3562(6) -0.0529(3) 0.9120(3)
O7 O 0.5594(6) 0.2330(4) 0.9043(4)
Tb1B Tb 0.22235(4) -0.132268(19) 1.06688(2)
Tb1A Tb 0.22235(4) -0.367732(19) 1.56688(2)
Tb1A_2 Tb 1.22235(4) 0.632268(19) 0.56688(2)
Tb1C Tb -0.22235(4) -0.632268(19) 1.43312(2)
Tb1C_2 Tb 0.77765(4) 0.367732(19) 0.43312(2)
C1B C 0.1827(7) -0.2393(4) 1.3139(5)
C2B C 0.0730(8) -0.2944(4) 1.2397(5)
C3B C -0.0055(8) -0.3748(4) 1.2551(5)
C4B C -0.0357(8) -0.4357(4) 1.3545(5)
C5B C -0.0601(9) -0.3202(5) 1.0808(6)
C6B C -0.1467(8) -0.3124(5) 0.9694(5)
C7B C -0.2433(9) -0.2376(5) 0.9486(6)
H1B H -0.2487 -0.1910 1.0029
C8B C -0.3311(10) -0.2328(6) 0.8471(7)
H2B H -0.3969 -0.1825 0.8352
C9B C -0.1421(9) -0.3788(5) 0.8833(6)
H3B H -0.0780 -0.4301 0.8933
C10B C -0.2329(10) -0.3683(5) 0.7833(6)
H4B H -0.2280 -0.4134 0.7269
C11B C 0.5258(9) 0.0026(5) 1.0644(5)
H5B H -0.161(9) -0.442(5) 1.151(6)
H6B H 0.439(9) -0.2897(14) 1.101(6)
H7B H 0.510(6) -0.212(4) 1.142(5)
N1B N -0.0874(7) -0.3906(4) 1.1526(4)
N2B N 0.0390(6) -0.2602(3) 1.1295(4)
N3B N -0.3273(8) -0.2969(5) 0.7635(5)
O1B O 0.2296(5) -0.1663(3) 1.2682(3)
O2B O 0.2213(5) -0.2626(3) 1.4145(3)
O2A O 0.2213(5) -0.2374(3) 0.9145(3)
O2C O 0.7787(5) 0.2374(3) 1.0855(3)
O3B O 0.0091(6) -0.4106(3) 1.4541(4)
O3A O 0.0091(6) -0.0894(3) 0.9541(4)
O3C O 0.9909(6) 0.0894(3) 1.0459(4)
O4B O -0.1127(6) -0.5071(3) 1.3329(4)
O4A O 0.8873(6) 0.0071(3) 0.8329(4)
O4C O 0.1127(6) -0.0071(3) 1.1671(4)
O5B O 0.4459(6) -0.0425(3) 1.1338(4)
O6B O 0.6438(6) 0.0529(3) 1.0880(3)
O7B O 0.4406(6) -0.2330(4) 1.0957(4)
O8 O 0.6923(6) 0.0273(3) 0.5847(4)
O9 O 0.5821(7) 0.4253(3) 0.8546(4)
loop_
_geom_bond_atom_site_label_1
_geom_bond_atom_site_label_2
_geom_bond_site_symmetry_1
_geom_bond_site_symmetry_2
Tb1 N2 1_555 1_555
C1 C2 1_555 1_555
C2 C3 1_555 1_555
C3 C4 1_555 1_555
C4 O3 1_555 1_555
C5 C6 1_555 1_555
C6 C7 1_555 1_555
C7 H1 1_555 1_555
C8 C7 1_555 1_555
H2 C8 1_555 1_555
C9 C6 1_555 1_555
H3 C9 1_555 1_555
C10 C9 1_555 1_555
H4 C10 1_555 1_555
C11 O5 1_555 1_555
H5 N1 1_555 1_555
H6 O7 1_555 1_555
H7 O7 1_555 1_555
N1 C3 1_555 1_555
N2 C2 1_555 1_555
N3 C8 1_555 1_555
O1 Tb1 1_555 1_555
O2 C1 1_555 1_555
O3 Tb1C_2 1_555 1_555
O4 C4 1_555 1_555
O5 Tb1 1_555 1_555
O6 C11 1_555 1_555
O7 Tb1 1_555 1_555
Tb1B O6 1_555 1_555
Tb1A O2B 1_555 1_555
Tb1A_2 O4 1_555 1_555
Tb1C O4B 1_555 1_555
Tb1C_2 O2 1_555 1_555
C1B C2B 1_555 1_555
C2B C3B 1_555 1_555
C3B C4B 1_555 1_555
C4B O3B 1_555 1_555
C5B C6B 1_555 1_555
C6B C7B 1_555 1_555
C7B H1B 1_555 1_555
C8B C7B 1_555 1_555
H2B C8B 1_555 1_555
C9B C6B 1_555 1_555
H3B C9B 1_555 1_555
C10B C9B 1_555 1_555
H4B C10B 1_555 1_555
C11B C11 1_555 1_555
H5B N1B 1_555 1_555
H6B O7B 1_555 1_555
H7B O7B 1_555 1_555
N1B C3B 1_555 1_555
N2B Tb1B 1_555 1_555
N3B C8B 1_555 1_555
O1B Tb1B 1_555 1_555
O2B C1B 1_555 1_555
O2A Tb1B 1_555 1_555
O2C Tb1 1_555 1_555
O3B Tb1A 1_555 1_555
O3A Tb1B 1_555 1_555
O3C Tb1 1_555 1_555
O4B C4B 1_555 1_555
O4A Tb1 1_555 1_555
O4C Tb1B 1_555 1_555
O5B Tb1B 1_555 1_555
O6B Tb1 1_555 1_555
O7B Tb1B 1_555 1_555
C1 O1 1_555 1_555
C5 N1 1_555 1_555
C5 N2 1_555 1_555
C10 N3 1_555 1_555
C1B O1B 1_555 1_555
C2B N2B 1_555 1_555
C5B N1B 1_555 1_555
C5B N2B 1_555 1_555
C10B N3B 1_555 1_555
C11B O5B 1_555 1_555
C11B O6B 1_555 1_555

#END
