
#######################################################################
#
#                 Cambridge Crystallographic Data Centre
#                                CCDC 
#
#######################################################################
#
# If this CIF has been generated from an entry in the Cambridge 
# Structural Database, then it will include bibliographic, chemical, 
# crystal, experimental, refinement or atomic coordinate data resulting 
# from the CCDC's data processing and validation procedures.
#
#######################################################################

data_GALLIQ
_symmetry_cell_setting           monoclinic
_symmetry_space_group_name_H-M   'C 2/c'
_symmetry_Int_Tables_number      15
_space_group_name_Hall           '-C 2yn'
loop_
_symmetry_equiv_pos_site_id
_symmetry_equiv_pos_as_xyz
1 x,y,z
2 -x,y,1/2-z
3 1/2+x,1/2+y,z
4 1/2-x,1/2+y,1/2-z
5 -x,-y,-z
6 x,-y,1/2+z
7 1/2-x,1/2-y,-z
8 1/2+x,1/2-y,1/2+z
_cell_length_a                   8.259(8)
_cell_length_b                   10.892(1)
_cell_length_c                   16.450(9)
_cell_angle_alpha                90
_cell_angle_beta                 98.025(8)
_cell_angle_gamma                90
_cell_volume                     1465.3
loop_
_atom_site_label
_atom_site_type_symbol
_atom_site_fract_x
_atom_site_fract_y
_atom_site_fract_z
Zn1 Zn 0.51797(8) 0.37921(6) 0.05836(4)
C1 C 0.5047(8) 0.6083(5) 0.1433(4)
C2 C 0.5094(7) 0.5113(5) 0.2081(3)
C3 C 0.5000 0.3235(7) 0.2500
C4 C 0.5000 0.1887(7) 0.2500
C5 C 0.5861(7) 0.1219(5) 0.1972(4)
H1 H 0.6457 0.1631 0.1618
C6 C 0.5829(8) -0.0037(6) 0.1976(4)
H2 H 0.6383 -0.0473 0.1614
C7 C 0.3095(7) 0.1939(5) -0.0033(3)
N1 N 0.5194(6) 0.3919(4) 0.1845(3)
N2 N 0.5000 -0.0648(7) 0.2500
O1 O 0.5181(5) 0.5676(4) 0.0730(2)
O2 O 0.4884(8) 0.7174(4) 0.1597(3)
O3 O 0.4543(5) 0.2057(4) 0.0261(2)
O4 O 0.2461(5) 0.1005(4) -0.0389(3)
O5 O 0.7662(5) 0.3734(4) 0.0567(3)
H3 H 0.8380 0.3252 0.0735
H4 H 0.8047 0.4307 0.0330
Zn1A Zn 0.48203(8) 0.37921(6) 0.44164(4)
Zn1D Zn 0.48203(8) 0.62079(6) -0.05836(4)
Zn1F Zn -0.01797(8) 0.12079(6) -0.05836(4)
Zn1E Zn 0.51797(8) 0.62079(6) 0.55836(4)
C1A C 0.4953(8) 0.6083(5) 0.3567(4)
C2A C 0.4906(7) 0.5113(5) 0.2919(3)
C5A C 0.4139(7) 0.1219(5) 0.3028(4)
H1A H 0.3543 0.1631 0.3382
C6A C 0.4171(8) -0.0037(6) 0.3024(4)
H2A H 0.3617 -0.0473 0.3386
C7F C 0.1905(7) 0.3061(5) 0.0033(3)
N1A N 0.4806(6) 0.3919(4) 0.3155(3)
O1A O 0.4819(5) 0.5676(4) 0.4270(2)
O1D O 0.4819(5) 0.4324(4) -0.0730(2)
O1E O 0.5181(5) 0.4324(4) 0.5730(2)
O2A O 0.5116(8) 0.7174(4) 0.3403(3)
O3F O 0.0457(5) 0.2943(4) -0.0261(2)
O3A O 0.5457(5) 0.2057(4) 0.4739(2)
O4F O 0.2539(5) 0.3995(4) 0.0389(3)
O4G O 0.7461(5) 0.3995(4) 0.4611(3)
O5A O 0.2338(5) 0.3734(4) 0.4433(3)
H3A H 0.1620 0.3252 0.4265
H4A H 0.1953 0.4307 0.4670
loop_
_geom_bond_atom_site_label_1
_geom_bond_atom_site_label_2
_geom_bond_site_symmetry_1
_geom_bond_site_symmetry_2
Zn1 N1 1_555 1_555
C1 C2 1_555 1_555
C2 N1 1_555 1_555
C3 C4 1_555 1_555
C4 C5 1_555 1_555
C5 H1 1_555 1_555
C6 C5 1_555 1_555
H2 C6 1_555 1_555
C7 O3 1_555 1_555
N1 C3 1_555 1_555
N2 C6 1_555 1_555
O1 Zn1 1_555 1_555
O2 C1 1_555 1_555
O3 Zn1 1_555 1_555
O4 C7 1_555 1_555
O5 Zn1 1_555 1_555
H3 O5 1_555 1_555
H4 O5 1_555 1_555
Zn1A N1A 1_555 1_555
Zn1D O1 1_555 1_555
Zn1F O4 1_555 1_555
Zn1E O1A 1_555 1_555
C1A C2A 1_555 1_555
C2A C2 1_555 1_555
C5A C4 1_555 1_555
H1A C5A 1_555 1_555
C6A N2 1_555 1_555
H2A C6A 1_555 1_555
C7F C7 1_555 1_555
N1A C3 1_555 1_555
O1A Zn1A 1_555 1_555
O1D Zn1 1_555 1_555
O1E Zn1A 1_555 1_555
O2A C1A 1_555 1_555
O3F Zn1F 1_555 1_555
O3A Zn1A 1_555 1_555
O4F Zn1 1_555 1_555
O4G Zn1A 1_555 1_555
O5A Zn1A 1_555 1_555
H3A O5A 1_555 1_555
H4A O5A 1_555 1_555
C1 O1 1_555 1_555
Zn1D O1D 1_555 1_555
Zn1E O1E 1_555 1_555
C1A O1A 1_555 1_555
C2A N1A 1_555 1_555
C5A C6A 1_555 1_555
C7F O3F 1_555 1_555
C7F O4F 1_555 1_555

#END
