
#######################################################################
#
#                 Cambridge Crystallographic Data Centre
#                                CCDC 
#
#######################################################################
#
# If this CIF has been generated from an entry in the Cambridge 
# Structural Database, then it will include bibliographic, chemical, 
# crystal, experimental, refinement or atomic coordinate data resulting 
# from the CCDC's data processing and validation procedures.
#
#######################################################################

data_GALRUH
_symmetry_cell_setting           monoclinic
_symmetry_space_group_name_H-M   'P 21/c'
_symmetry_Int_Tables_number      14
_space_group_name_Hall           '-P 2ybc'
loop_
_symmetry_equiv_pos_site_id
_symmetry_equiv_pos_as_xyz
1 x,y,z
2 -x,1/2+y,1/2-z
3 -x,-y,-z
4 x,1/2-y,1/2+z
_cell_length_a                   8.4437(13)
_cell_length_b                   23.126(4)
_cell_length_c                   14.156(2)
_cell_angle_alpha                90
_cell_angle_beta                 97.927(2)
_cell_angle_gamma                90
_cell_volume                     2737.81
loop_
_atom_site_label
_atom_site_type_symbol
_atom_site_fract_x
_atom_site_fract_y
_atom_site_fract_z
Cd1 Cd 0.23524(5) 0.123240(19) 0.18783(3)
I1 I 0.54690(5) 0.09233(2) 0.20063(4)
I2 I 0.06748(7) 0.09311(2) 0.33038(3)
N1 N -0.3765(6) 0.39667(19) 0.1682(3)
N2 N -0.7948(5) 0.2788(2) 0.6662(3)
N3 N 0.1195(6) 0.08356(19) 0.0430(3)
C1 C -0.4315(7) 0.3711(2) 0.2458(4)
C2 C -0.5003(8) 0.3966(3) 0.3185(4)
H1 H -0.5134 0.4365 0.3210
C3 C -0.5484(7) 0.3614(3) 0.3865(4)
H2 H -0.5940 0.3781 0.4361
C4 C -0.5319(7) 0.3008(2) 0.3848(4)
C5 C -0.4586(6) 0.2762(2) 0.3128(4)
H3 H -0.4456 0.2363 0.3107
C6 C -0.4048(6) 0.3107(2) 0.2438(4)
C7 C -0.3280(6) 0.3000(2) 0.1597(4)
C8 C -0.2708(6) 0.2503(2) 0.1209(4)
H4 H -0.2765 0.2147 0.1510
C9 C -0.2042(6) 0.2545(2) 0.0357(4)
C10 C -0.2028(7) 0.3083(3) -0.0091(4)
H5 H -0.1639 0.3104 -0.0674
C11 C -0.2556(7) 0.3577(3) 0.0283(4)
H6 H -0.2504 0.3930 -0.0026
C12 C -0.3176(7) 0.3538(2) 0.1141(4)
C13 C -0.5986(7) 0.2643(3) 0.4537(4)
H7 H -0.5857 0.2245 0.4485
C14 C -0.6754(7) 0.2830(2) 0.5225(4)
H8 H -0.6855 0.3229 0.5272
C15 C -0.7471(6) 0.2485(2) 0.5930(4)
C16 C -0.7711(7) 0.1891(3) 0.5850(5)
H9 H -0.7389 0.1688 0.5341
C17 C -0.8428(8) 0.1608(3) 0.6530(6)
H10 H -0.8595 0.1210 0.6486
C18 C -0.8895(8) 0.1912(3) 0.7270(5)
H11 H -0.9379 0.1725 0.7738
C19 C -0.8640(7) 0.2491(3) 0.7312(5)
H12 H -0.8962 0.2695 0.7819
C20 C -0.1359(6) 0.2045(3) -0.0065(4)
H13 H -0.1277 0.2069 -0.0712
C21 C -0.0843(6) 0.1559(2) 0.0368(4)
H14 H -0.0984 0.1513 0.1003
C22 C -0.0067(7) 0.1091(2) -0.0085(4)
C23 C -0.0574(8) 0.0914(3) -0.1015(4)
H15 H -0.1440 0.1096 -0.1372
C24 C 0.0202(10) 0.0472(3) -0.1409(5)
H16 H -0.0134 0.0352 -0.2031
C25 C 0.1467(9) 0.0210(3) -0.0876(6)
H17 H 0.2001 -0.0092 -0.1129
C26 C 0.1949(8) 0.0399(3) 0.0044(5)
H18 H 0.2815 0.0221 0.0406
C27 C -0.4018(8) 0.4573(2) 0.1419(5)
H19 H -0.3298 0.4679 0.0971
H20 H -0.3765 0.4811 0.1984
C28 C -0.5717(9) 0.4689(3) 0.0978(5)
H21 H -0.5832 0.5090 0.0811
H22 H -0.6431 0.4593 0.1426
H23 H -0.5968 0.4457 0.0415
Cd1C Cd -0.76476(5) 0.376760(19) 0.68783(3)
N2C N 0.2052(5) 0.2212(2) 0.1662(3)
loop_
_geom_bond_atom_site_label_1
_geom_bond_atom_site_label_2
_geom_bond_site_symmetry_1
_geom_bond_site_symmetry_2
Cd1 I1 1_555 1_555
I2 Cd1 1_555 1_555
N1 C1 1_555 1_555
N2 C15 1_555 1_555
N3 Cd1 1_555 1_555
C1 C2 1_555 1_555
C2 H1 1_555 1_555
C3 C2 1_555 1_555
H2 C3 1_555 1_555
C4 C3 1_555 1_555
C5 C4 1_555 1_555
H3 C5 1_555 1_555
C6 C1 1_555 1_555
C7 C6 1_555 1_555
C8 C7 1_555 1_555
H4 C8 1_555 1_555
C9 C8 1_555 1_555
C10 C9 1_555 1_555
H5 C10 1_555 1_555
C11 C10 1_555 1_555
H6 C11 1_555 1_555
C12 N1 1_555 1_555
C13 C4 1_555 1_555
H7 C13 1_555 1_555
C14 C13 1_555 1_555
H8 C14 1_555 1_555
C15 C14 1_555 1_555
C16 C15 1_555 1_555
H9 C16 1_555 1_555
C17 C16 1_555 1_555
H10 C17 1_555 1_555
C18 C17 1_555 1_555
H11 C18 1_555 1_555
C19 N2 1_555 1_555
H12 C19 1_555 1_555
C20 C9 1_555 1_555
H13 C20 1_555 1_555
C21 C20 1_555 1_555
H14 C21 1_555 1_555
C22 N3 1_555 1_555
C23 C22 1_555 1_555
H15 C23 1_555 1_555
C24 C23 1_555 1_555
H16 C24 1_555 1_555
C25 C24 1_555 1_555
H17 C25 1_555 1_555
C26 N3 1_555 1_555
H18 C26 1_555 1_555
C27 N1 1_555 1_555
H19 C27 1_555 1_555
H20 C27 1_555 1_555
C28 C27 1_555 1_555
H21 C28 1_555 1_555
H22 C28 1_555 1_555
H23 C28 1_555 1_555
Cd1C N2 1_555 1_555
N2C Cd1 1_555 1_555
C5 C6 1_555 1_555
C7 C12 1_555 1_555
C11 C12 1_555 1_555
C18 C19 1_555 1_555
C21 C22 1_555 1_555
C25 C26 1_555 1_555

#END
