
#######################################################################
#
#                 Cambridge Crystallographic Data Centre
#                                CCDC 
#
#######################################################################
#
# If this CIF has been generated from an entry in the Cambridge 
# Structural Database, then it will include bibliographic, chemical, 
# crystal, experimental, refinement or atomic coordinate data resulting 
# from the CCDC's data processing and validation procedures.
#
#######################################################################

data_GALSER
_symmetry_cell_setting           orthorhombic
_symmetry_space_group_name_H-M   'P 21 21 21'
_symmetry_Int_Tables_number      19
_space_group_name_Hall           'P 2ac 2ab'
loop_
_symmetry_equiv_pos_site_id
_symmetry_equiv_pos_as_xyz
1 x,y,z
2 1/2-x,-y,1/2+z
3 1/2+x,1/2-y,-z
4 -x,1/2+y,1/2-z
_cell_length_a                   9.719(2)
_cell_length_b                   22.194(4)
_cell_length_c                   5.8537(5)
_cell_angle_alpha                90
_cell_angle_beta                 90
_cell_angle_gamma                90
_cell_volume                     1262.66
loop_
_atom_site_label
_atom_site_type_symbol
_atom_site_fract_x
_atom_site_fract_y
_atom_site_fract_z
Zn1 Zn 0.12059(5) -0.08491(2) 0.15510(8)
Cl1 Cl -0.04751(11) -0.14047(5) -0.04877(20)
S1 S 0.18535(16) -0.31221(6) 0.58130(28)
S2 S -0.12642(14) 0.02899(6) 0.63917(24)
O1 O 0.1723(3) -0.1458(1) 0.3960(5)
O2 O 0.3405(4) -0.1897(2) 0.1969(6)
O3 O 0.2400(3) -0.0167(1) 0.3485(6)
O4 O 0.2640(3) -0.0819(1) -0.0820(5)
N1 N 0.2230(4) -0.2068(2) 0.7775(6)
N2 N -0.0252(4) -0.0232(2) 0.2641(7)
C1 C 0.1602(5) -0.2673(2) 0.8313(10)
C2 C 0.3265(4) -0.2113(2) 0.5890(7)
C3 C 0.3529(5) -0.2786(2) 0.5495(9)
C4 C 0.2749(4) -0.1799(2) 0.3718(7)
C5 C -0.0648(5) -0.0387(2) 0.4961(9)
C6 C 0.0332(4) 0.0379(2) 0.2688(7)
C7 C -0.0570(5) 0.0778(2) 0.4179(10)
C8 C 0.1827(4) 0.0332(2) 0.3520(7)
H1 H 0.386(6) -0.285(3) 0.393(10)
H2 H 0.416(6) -0.298(2) 0.663(10)
H3 H 0.068(6) -0.262(2) 0.864(10)
H4 H 0.199(6) -0.287(2) 0.970(10)
H5 H 0.412(6) -0.189(2) 0.642(10)
H6 H 0.274(6) -0.195(2) 0.908(9)
H7 H 0.152(6) -0.182(2) 0.750(11)
H8 H -0.097(6) -0.023(2) 0.179(11)
H9 H -0.142(6) 0.093(2) 0.356(9)
H10 H 0.009(6) 0.115(2) 0.478(10)
H11 H 0.014(6) -0.054(2) 0.591(10)
H12 H -0.148(6) -0.065(3) 0.475(10)
H13 H 0.035(6) 0.053(2) 0.126(10)
C8A C 0.3173(4) -0.0332(2) -0.1480(7)
O4A O 0.2360(3) 0.0819(1) 0.4180(5)
O3A O 0.2600(3) 0.0167(1) -0.1515(6)
C6A C 0.4668(4) -0.0379(2) -0.2312(7)
Zn1A Zn 0.37941(5) 0.08491(2) 0.65510(8)
Zn1A_2 Zn 0.37941(5) 0.08491(2) -0.34490(8)
N2A N 0.5252(4) 0.0232(2) -0.2359(7)
C7A C 0.5570(5) -0.0778(2) -0.0821(10)
H13A H 0.465(6) -0.053(2) -0.374(10)
Cl1A Cl 0.54751(11) 0.14047(5) 0.45123(20)
O1A O 0.3277(3) 0.1458(1) 0.8960(5)
O3A_2 O 0.2600(3) 0.0167(1) 0.8485(6)
N2A_2 N 0.5252(4) 0.0232(2) 0.7641(7)
C5A C 0.5648(5) 0.0387(2) -0.0039(9)
H8A H 0.597(6) 0.023(2) -0.321(11)
S2A S 0.62642(14) -0.02899(6) 0.13917(24)
H9A H 0.642(6) -0.093(2) -0.144(9)
H10A H 0.491(6) -0.115(2) -0.022(10)
C4A C 0.2251(4) 0.1799(2) 0.8718(7)
H11A H 0.486(6) 0.054(2) 0.091(10)
H12A H 0.648(6) 0.065(3) -0.025(10)
O2A O 0.1595(4) 0.1897(2) 0.6969(6)
C2A C 0.1735(4) 0.2113(2) 1.0890(7)
N1A N 0.2770(4) 0.2068(2) 1.2775(6)
C3A C 0.1471(5) 0.2786(2) 1.0495(9)
H5A H 0.088(6) 0.189(2) 1.142(10)
C1A C 0.3398(5) 0.2673(2) 1.3313(10)
H6A H 0.226(6) 0.195(2) 1.408(9)
H7A H 0.348(6) 0.182(2) 1.250(11)
S1A S 0.31465(16) 0.31221(6) 1.08130(28)
H1A H 0.114(6) 0.285(3) 0.893(10)
H2A H 0.084(6) 0.298(2) 1.163(10)
H3A H 0.432(6) 0.262(2) 1.364(10)
H4A H 0.301(6) 0.287(2) 1.470(10)
loop_
_geom_bond_atom_site_label_1
_geom_bond_atom_site_label_2
_geom_bond_site_symmetry_1
_geom_bond_site_symmetry_2
Zn1 Cl1 1_555 1_555
S1 C1 1_555 1_555
S2 C5 1_555 1_555
O1 Zn1 1_555 1_555
O2 C4 1_555 1_555
O3 Zn1 1_555 1_555
O4 Zn1 1_555 1_555
N1 C1 1_555 1_555
N2 Zn1 1_555 1_555
C1 H3 1_555 1_555
C2 N1 1_555 1_555
C3 S1 1_555 1_555
C4 O1 1_555 1_555
C5 N2 1_555 1_555
C6 N2 1_555 1_555
C7 S2 1_555 1_555
C8 O3 1_555 1_555
H1 C3 1_555 1_555
H2 C3 1_555 1_555
H4 C1 1_555 1_555
H5 C2 1_555 1_555
H6 N1 1_555 1_555
H7 N1 1_555 1_555
H8 N2 1_555 1_555
H9 C7 1_555 1_555
H10 C7 1_555 1_555
H11 C5 1_555 1_555
H12 C5 1_555 1_555
H13 C6 1_555 1_555
C8A O4 1_555 1_555
O4A C8 1_555 1_555
O3A C8A 1_555 1_555
C6A C8A 1_555 1_555
Zn1A O4A 1_555 1_555
Zn1A_2 O3A 1_555 1_555
N2A C6A 1_555 1_555
C7A C6A 1_555 1_555
H13A C6A 1_555 1_555
Cl1A Zn1A 1_555 1_555
O1A Zn1A 1_555 1_555
O3A_2 Zn1A 1_555 1_555
N2A_2 Zn1A 1_555 1_555
C5A N2A 1_555 1_555
H8A N2A 1_555 1_555
S2A C7A 1_555 1_555
H9A C7A 1_555 1_555
H10A C7A 1_555 1_555
C4A O1A 1_555 1_555
H11A C5A 1_555 1_555
H12A C5A 1_555 1_555
O2A C4A 1_555 1_555
C2A C4A 1_555 1_555
N1A C2A 1_555 1_555
C3A C2A 1_555 1_555
H5A C2A 1_555 1_555
C1A N1A 1_555 1_555
H6A N1A 1_555 1_555
H7A N1A 1_555 1_555
S1A C3A 1_555 1_555
H1A C3A 1_555 1_555
H2A C3A 1_555 1_555
H3A C1A 1_555 1_555
H4A C1A 1_555 1_555
C2 C3 1_555 1_555
C2 C4 1_555 1_555
C6 C7 1_555 1_555
C6 C8 1_555 1_555
Zn1A_2 N2A 1_555 1_555
C5A S2A 1_555 1_555
C1A S1A 1_555 1_555

#END
