
#######################################################################
#
#                 Cambridge Crystallographic Data Centre
#                                CCDC 
#
#######################################################################
#
# If this CIF has been generated from an entry in the Cambridge 
# Structural Database, then it will include bibliographic, chemical, 
# crystal, experimental, refinement or atomic coordinate data resulting 
# from the CCDC's data processing and validation procedures.
#
#######################################################################

data_GALTUJ01
_symmetry_cell_setting           triclinic
_symmetry_space_group_name_H-M   'P -1'
_symmetry_Int_Tables_number      2
_space_group_name_Hall           '-P 1'
loop_
_symmetry_equiv_pos_site_id
_symmetry_equiv_pos_as_xyz
1 x,y,z
2 -x,-y,-z
_cell_length_a                   8.4629(17)
_cell_length_b                   11.494(2)
_cell_length_c                   13.020(3)
_cell_angle_alpha                81.92(3)
_cell_angle_beta                 72.55(3)
_cell_angle_gamma                83.16(3)
_cell_volume                     1192.23
loop_
_atom_site_label
_atom_site_type_symbol
_atom_site_fract_x
_atom_site_fract_y
_atom_site_fract_z
Co1 Co 0.21089(7) 0.29670(6) 0.47667(5)
Co2 Co 0.30604(8) 0.20401(6) 0.05983(5)
C1 C 0.2428(5) 0.1843(5) 0.2886(4)
C2 C 0.3122(6) 0.3069(5) 0.2448(4)
C3 C -0.0366(8) 0.3481(7) 0.1047(7)
H1 H 0.0034 0.4146 0.1183
N1 N -0.2033(5) 0.2315(5) 0.0870(4)
H2 H -0.2902 0.2003 0.0859
C4 C -0.0513(6) 0.1819(5) 0.0669(4)
H3 H -0.0221 0.1061 0.0466
C5 C 0.3466(9) 0.2895(7) -0.1774(5)
H4 H 0.2754 0.2364 -0.1829
N2 N 0.5157(5) 0.4268(4) -0.2188(4)
H5 H 0.5796 0.4812 -0.2529
C6 C 0.4897(6) 0.3830(5) -0.1159(5)
H6 H 0.5378 0.4096 -0.0689
C7 C 0.4903(7) 0.1415(5) 0.5488(5)
H7 H 0.4217 0.0818 0.5838
N3 N 0.7036(5) 0.2425(5) 0.4878(4)
H8 H 0.8021 0.2650 0.4727
C8 C 0.5765(6) 0.3031(5) 0.4606(4)
H9 H 0.5811 0.3777 0.4218
C9 C 0.0241(6) 0.1077(5) 0.6395(4)
H10 H 0.0604 0.0533 0.5890
C10 C -0.1102(8) 0.1845(6) 0.7856(5)
H11 H -0.1815 0.1953 0.8541
C11 C -0.0129(7) 0.2648(5) 0.7168(4)
H12 H -0.0050 0.3412 0.7297
C12 C 0.5758(6) 0.0225(5) 0.0110(4)
C13 C -0.0613(6) 0.4720(5) 0.4785(4)
N4 N 0.0554(5) 0.2489(4) 0.0782(3)
C14 C -0.1966(8) 0.3389(8) 0.1094(8)
H13 H -0.2843 0.3968 0.1253
N5 N 0.3902(5) 0.2992(4) -0.0877(3)
C15 C 0.4232(10) 0.3699(6) -0.2588(5)
H14 H 0.4131 0.3826 -0.3287
N6 N 0.4425(5) 0.2443(4) 0.4954(4)
C16 C 0.6525(7) 0.1401(6) 0.5430(6)
H15 H 0.7159 0.0800 0.5717
N7 N 0.0733(5) 0.2126(4) 0.6233(3)
N8 N -0.0838(5) 0.0862(4) 0.7358(4)
H16 H -0.1289 0.0211 0.7619
O1 O 0.3528(4) 0.3331(3) 0.1454(3)
O2 O 0.2395(4) 0.1205(3) 0.2197(3)
O3 O 0.3216(4) 0.3703(3) 0.3134(3)
O4 O 0.1972(4) 0.1592(3) 0.3895(3)
O5 O 0.5510(4) 0.1224(3) 0.0439(3)
O6 O 0.7068(4) -0.0420(3) -0.0048(3)
O7 O -0.0208(4) 0.3706(3) 0.4516(3)
O8 O -0.1902(4) 0.5357(3) 0.4724(3)
Co1A Co -0.21089(7) 0.70330(6) 0.52333(5)
Co2A Co -0.30604(8) 0.79599(6) 0.94017(5)
Co2A_2 Co 0.69396(8) -0.20401(6) -0.05983(5)
C1A C -0.2428(5) 0.8157(5) 0.7114(4)
C2A C -0.3122(6) 0.6931(5) 0.7552(4)
C3A C 0.0366(8) 0.6519(7) 0.8953(7)
H1A H -0.0034 0.5854 0.8817
N1A N 0.2033(5) 0.7685(5) 0.9130(4)
H2A H 0.2902 0.7997 0.9141
C4A C 0.0513(6) 0.8181(5) 0.9331(4)
H3A H 0.0221 0.8939 0.9534
C5A C -0.3466(9) 0.7105(7) 1.1774(5)
H4A H -0.2754 0.7636 1.1829
N2A N -0.5157(5) 0.5732(4) 1.2188(4)
H5A H -0.5796 0.5188 1.2529
C6A C -0.4897(6) 0.6170(5) 1.1159(5)
H6A H -0.5378 0.5904 1.0689
C7A C -0.4903(7) 0.8585(5) 0.4512(5)
H7A H -0.4217 0.9182 0.4162
N3A N -0.7036(5) 0.7575(5) 0.5122(4)
H8A H -0.8021 0.7350 0.5273
C8A C -0.5765(6) 0.6969(5) 0.5394(4)
H9A H -0.5811 0.6223 0.5782
C9A C -0.0241(6) 0.8923(5) 0.3605(4)
H10A H -0.0604 0.9467 0.4110
C10A C 0.1102(8) 0.8155(6) 0.2144(5)
H11A H 0.1815 0.8047 0.1459
C11A C 0.0129(7) 0.7352(5) 0.2832(4)
H12A H 0.0050 0.6588 0.2703
C12A C 0.4242(6) -0.0225(5) -0.0110(4)
C13A C 0.0613(6) 0.5280(5) 0.5215(4)
N4A N -0.0554(5) 0.7511(4) 0.9218(3)
C14A C 0.1966(8) 0.6611(8) 0.8906(8)
H13A H 0.2843 0.6032 0.8747
N5A N -0.3902(5) 0.7008(4) 1.0877(3)
C15A C -0.4232(10) 0.6301(6) 1.2588(5)
H14A H -0.4131 0.6174 1.3287
N6A N -0.4425(5) 0.7557(4) 0.5046(4)
C16A C -0.6525(7) 0.8599(6) 0.4570(6)
H15A H -0.7159 0.9200 0.4283
N7A N -0.0733(5) 0.7874(4) 0.3767(3)
N8A N 0.0838(5) 0.9138(4) 0.2642(4)
H16A H 0.1289 0.9789 0.2381
O1A O -0.3528(4) 0.6669(3) 0.8546(3)
O2A O -0.2395(4) 0.8795(3) 0.7803(3)
O3A O -0.3216(4) 0.6297(3) 0.6866(3)
O4A O -0.1972(4) 0.8408(3) 0.6105(3)
O5A O 0.4490(4) -0.1224(3) -0.0439(3)
O5A_2 O -0.5510(4) 0.8776(3) 0.9561(3)
O6A O 0.2932(4) 0.0420(3) 0.0048(3)
O6_2 O -0.2932(4) 0.9580(3) 0.9952(3)
O7A O 0.0208(4) 0.6294(3) 0.5484(3)
O8A O 0.1902(4) 0.4643(3) 0.5276(3)
loop_
_geom_bond_atom_site_label_1
_geom_bond_atom_site_label_2
_geom_bond_site_symmetry_1
_geom_bond_site_symmetry_2
Co1 N6 1_555 1_555
Co2 N4 1_555 1_555
C1 C2 1_555 1_555
C2 O1 1_555 1_555
C3 H1 1_555 1_555
N1 H2 1_555 1_555
C4 N1 1_555 1_555
H3 C4 1_555 1_555
C5 H4 1_555 1_555
N2 H5 1_555 1_555
C6 N2 1_555 1_555
H6 C6 1_555 1_555
C7 H7 1_555 1_555
N3 H8 1_555 1_555
C8 N3 1_555 1_555
H9 C8 1_555 1_555
C9 H10 1_555 1_555
C10 H11 1_555 1_555
C11 C10 1_555 1_555
H12 C11 1_555 1_555
C12 O5 1_555 1_555
C13 O7 1_555 1_555
N4 C3 1_555 1_555
C14 C3 1_555 1_555
H13 C14 1_555 1_555
N5 Co2 1_555 1_555
C15 C5 1_555 1_555
H14 C15 1_555 1_555
N6 C7 1_555 1_555
C16 C7 1_555 1_555
H15 C16 1_555 1_555
N7 Co1 1_555 1_555
N8 C9 1_555 1_555
H16 N8 1_555 1_555
O1 Co2 1_555 1_555
O2 Co2 1_555 1_555
O3 Co1 1_555 1_555
O4 Co1 1_555 1_555
O5 Co2 1_555 1_555
O6 C12 1_555 1_555
O7 Co1 1_555 1_555
O8 C13 1_555 1_555
Co1A O8 1_555 1_555
Co2A N4A 1_555 1_555
Co2A_2 O6 1_555 1_555
C1A C2A 1_555 1_555
C2A O1A 1_555 1_555
C3A H1A 1_555 1_555
N1A H2A 1_555 1_555
C4A N1A 1_555 1_555
H3A C4A 1_555 1_555
C5A H4A 1_555 1_555
N2A H5A 1_555 1_555
C6A N2A 1_555 1_555
H6A C6A 1_555 1_555
C7A H7A 1_555 1_555
N3A H8A 1_555 1_555
C8A N3A 1_555 1_555
H9A C8A 1_555 1_555
C9A H10A 1_555 1_555
C10A H11A 1_555 1_555
C11A C10A 1_555 1_555
H12A C11A 1_555 1_555
C12A C12 1_555 1_555
C13A C13 1_555 1_555
N4A C3A 1_555 1_555
C14A C3A 1_555 1_555
H13A C14A 1_555 1_555
N5A Co2A 1_555 1_555
C15A C5A 1_555 1_555
H14A C15A 1_555 1_555
N6A Co1A 1_555 1_555
C16A C7A 1_555 1_555
H15A C16A 1_555 1_555
N7A Co1A 1_555 1_555
N8A C9A 1_555 1_555
H16A N8A 1_555 1_555
O1A Co2A 1_555 1_555
O2A Co2A 1_555 1_555
O3A Co1A 1_555 1_555
O4A Co1A 1_555 1_555
O5A Co2A_2 1_555 1_555
O5A_2 Co2A 1_555 1_555
O6A Co2 1_555 1_555
O6_2 Co2A 1_555 1_555
O7A Co1A 1_555 1_555
O8A Co1 1_555 1_555
C1 O2 1_555 1_555
C1 O4 1_555 1_555
C2 O3 1_555 1_555
N1 C14 1_555 1_555
C4 N4 1_555 1_555
C5 N5 1_555 1_555
N2 C15 1_555 1_555
C6 N5 1_555 1_555
N3 C16 1_555 1_555
C8 N6 1_555 1_555
C9 N7 1_555 1_555
C10 N8 1_555 1_555
C11 N7 1_555 1_555
C1A O2A 1_555 1_555
C1A O4A 1_555 1_555
C2A O3A 1_555 1_555
N1A C14A 1_555 1_555
C4A N4A 1_555 1_555
C5A N5A 1_555 1_555
N2A C15A 1_555 1_555
C6A N5A 1_555 1_555
C7A N6A 1_555 1_555
N3A C16A 1_555 1_555
C8A N6A 1_555 1_555
C9A N7A 1_555 1_555
C10A N8A 1_555 1_555
C11A N7A 1_555 1_555
C12A O5A 1_555 1_555
C12A O6A 1_555 1_555
C13A O7A 1_555 1_555
C13A O8A 1_555 1_555

#END
