
#######################################################################
#
#                 Cambridge Crystallographic Data Centre
#                                CCDC 
#
#######################################################################
#
# If this CIF has been generated from an entry in the Cambridge 
# Structural Database, then it will include bibliographic, chemical, 
# crystal, experimental, refinement or atomic coordinate data resulting 
# from the CCDC's data processing and validation procedures.
#
#######################################################################

data_GALTOD
_symmetry_cell_setting           triclinic
_symmetry_space_group_name_H-M   'P -1'
_symmetry_Int_Tables_number      2
_space_group_name_Hall           '-P 1'
loop_
_symmetry_equiv_pos_site_id
_symmetry_equiv_pos_as_xyz
1 x,y,z
2 -x,-y,-z
_cell_length_a                   8.5450(17)
_cell_length_b                   11.566(2)
_cell_length_c                   13.199(3)
_cell_angle_alpha                82.15(3)
_cell_angle_beta                 72.15(3)
_cell_angle_gamma                82.84(3)
_cell_volume                     1225.3
loop_
_atom_site_label
_atom_site_type_symbol
_atom_site_fract_x
_atom_site_fract_y
_atom_site_fract_z
Fe1 Fe -0.21353(7) -0.29503(5) -0.47821(5)
Fe2 Fe -0.30374(7) -0.20692(5) -0.05807(5)
C1 C -0.2443(5) -0.1851(3) -0.2878(3)
C2 C -0.3125(5) -0.3061(4) -0.2443(3)
C3 C 0.0444(8) -0.3498(7) -0.1011(8)
H1 H 0.0108 -0.4178 -0.1152
C4 C 0.2030(5) -0.2275(4) -0.0824(4)
H2 H 0.2930 -0.1906 -0.0812
C5 C 0.0523(6) -0.1846(4) -0.0633(4)
H3 H 0.0183 -0.1097 -0.0423
C6 C -0.3399(10) -0.2986(6) 0.1794(5)
H4 H -0.2657 -0.2497 0.1857
C7 C -0.5130(6) -0.4319(4) 0.2190(3)
H5 H -0.5808 -0.4908 0.2549
C8 C -0.4883(6) -0.3871(4) 0.1200(4)
H6 H -0.5387 -0.4108 0.0740
C9 C -0.4950(7) -0.1405(4) -0.5539(5)
H7 H -0.4291 -0.0807 -0.5899
C10 C -0.7086(5) -0.2446(4) -0.4891(4)
H8 H -0.8132 -0.2706 -0.4718
C11 C -0.5816(6) -0.2989(5) -0.4638(4)
H9 H -0.5843 -0.3717 -0.4238
C12 C 0.0136(8) -0.2573(5) -0.7183(4)
H10 H 0.0075 -0.3326 -0.7334
C13 C 0.0821(5) -0.0805(4) -0.7349(3)
H11 H 0.1298 -0.0102 -0.7603
C14 C -0.0280(6) -0.1035(4) -0.6424(4)
H12 H -0.0696 -0.0493 -0.5927
C15 C -0.5744(5) -0.0237(4) -0.0102(3)
C16 C -1.0592(5) 0.4725(4) 0.4776(3)
O1 O -0.3502(4) -0.3346(2) -0.1465(2)
O2 O -0.2384(4) -0.1232(2) -0.2195(2)
O3 O -0.3259(4) -0.3675(2) -0.3133(2)
O4 O -0.2011(4) -0.1586(2) -0.3877(2)
O5 O -0.5496(3) -0.1235(3) -0.0414(2)
O6 O -0.2942(3) -0.0408(3) -0.0044(2)
O7 O -1.0200(4) 0.3710(2) 0.4527(2)
O8 O -1.1867(4) 0.5358(3) 0.4696(2)
N1 N -0.0490(5) -0.2516(3) -0.0750(3)
N2 N 0.2026(8) -0.3305(8) -0.1031(8)
H13 H 0.2871 -0.3810 -0.1164
N3 N -0.3861(5) -0.3056(3) 0.0917(3)
N4 N -0.4239(11) -0.3778(6) 0.2571(4)
H14 H -0.4182 -0.3898 0.3217
N5 N -0.4485(5) -0.2416(3) -0.4999(3)
N6 N -0.6593(7) -0.1449(6) -0.5443(6)
H15 H -0.7200 -0.0914 -0.5701
N7 N -0.0736(5) -0.2095(3) -0.6266(3)
N8 N 0.1126(8) -0.1751(6) -0.7851(4)
H16 H 0.1807 -0.1841 -0.8474
Fe1A Fe -0.78647(7) 0.29503(5) 0.47821(5)
Fe1_2 Fe -1.21353(7) 0.70497(5) 0.52179(5)
Fe2A Fe -0.69626(7) 0.20692(5) 0.05807(5)
C1A C -0.7557(5) 0.1851(3) 0.2878(3)
C2A C -0.6875(5) 0.3061(4) 0.2443(3)
C3A C -1.0444(8) 0.3498(7) 0.1011(8)
H1A H -1.0108 0.4178 0.1152
C4A C -1.2030(5) 0.2275(4) 0.0824(4)
H2A H -1.2930 0.1906 0.0812
C5A C -1.0523(6) 0.1846(4) 0.0633(4)
H3A H -1.0183 0.1097 0.0423
C6A C -0.6601(10) 0.2986(6) -0.1794(5)
H4A H -0.7343 0.2497 -0.1857
C7A C -0.4870(6) 0.4319(4) -0.2190(3)
H5A H -0.4192 0.4908 -0.2549
C8A C -0.5117(6) 0.3871(4) -0.1200(4)
H6A H -0.4613 0.4108 -0.0740
C9A C -0.5050(7) 0.1405(4) 0.5539(5)
H7A H -0.5709 0.0807 0.5899
C10A C -0.2914(5) 0.2446(4) 0.4891(4)
H8A H -0.1868 0.2706 0.4718
C11A C -0.4184(6) 0.2989(5) 0.4638(4)
H9A H -0.4157 0.3717 0.4238
C12A C -1.0136(8) 0.2573(5) 0.7183(4)
H10A H -1.0075 0.3326 0.7334
C13A C -1.0821(5) 0.0805(4) 0.7349(3)
H11A H -1.1298 0.0102 0.7603
C14A C -0.9720(6) 0.1035(4) 0.6424(4)
H12A H -0.9304 0.0493 0.5927
C15A C -0.4256(5) 0.0237(4) 0.0102(3)
C16A C -0.9408(5) 0.5275(4) 0.5224(3)
O1A O -0.6498(4) 0.3346(2) 0.1465(2)
O2A O -0.7616(4) 0.1232(2) 0.2195(2)
O3A O -0.6741(4) 0.3675(2) 0.3133(2)
O4A O -0.7989(4) 0.1586(2) 0.3877(2)
O5A O -0.4504(3) 0.1235(3) 0.0414(2)
O6A O -0.7058(3) 0.0408(3) 0.0044(2)
O7A O 0.0200(4) -0.3710(2) -0.4527(2)
O7A_2 O -0.9800(4) 0.6290(2) 0.5473(2)
O8_2 O -0.1867(4) -0.4642(3) -0.5304(2)
O8A O -0.8133(4) 0.4642(3) 0.5304(2)
N1A N -0.9510(5) 0.2516(3) 0.0750(3)
N2A N -1.2026(8) 0.3305(8) 0.1031(8)
H13A H -1.2871 0.3810 0.1164
N3A N -0.6139(5) 0.3056(3) -0.0917(3)
N4A N -0.5761(11) 0.3778(6) -0.2571(4)
H14A H -0.5818 0.3898 -0.3217
N5A N -0.5515(5) 0.2416(3) 0.4999(3)
N6A N -0.3407(7) 0.1449(6) 0.5443(6)
H15A H -0.2800 0.0914 0.5701
N7A N -0.9264(5) 0.2095(3) 0.6266(3)
N8A N -1.1126(8) 0.1751(6) 0.7851(4)
H16A H -1.1807 0.1841 0.8474
loop_
_geom_bond_atom_site_label_1
_geom_bond_atom_site_label_2
_geom_bond_site_symmetry_1
_geom_bond_site_symmetry_2
Fe1 O3 1_555 1_555
Fe2 O1 1_555 1_555
C1 C2 1_555 1_555
C2 O1 1_555 1_555
C3 H1 1_555 1_555
C4 H2 1_555 1_555
C5 C4 1_555 1_555
H3 C5 1_555 1_555
C6 H4 1_555 1_555
C7 H5 1_555 1_555
C8 C7 1_555 1_555
H6 C8 1_555 1_555
C9 H7 1_555 1_555
C10 H8 1_555 1_555
C11 C10 1_555 1_555
H9 C11 1_555 1_555
C12 H10 1_555 1_555
C13 H11 1_555 1_555
C14 C13 1_555 1_555
H12 C14 1_555 1_555
C15 O5 1_555 1_555
C16 O7 1_555 1_555
O2 Fe2 1_555 1_555
O3 C2 1_555 1_555
O4 Fe1 1_555 1_555
O5 Fe2 1_555 1_555
O6 Fe2 1_555 1_555
O7 Fe1A 1_555 1_555
O8 C16 1_555 1_555
N1 Fe2 1_555 1_555
N2 C3 1_555 1_555
H13 N2 1_555 1_555
N3 Fe2 1_555 1_555
N4 C6 1_555 1_555
H14 N4 1_555 1_555
N5 Fe1 1_555 1_555
N6 C9 1_555 1_555
H15 N6 1_555 1_555
N7 Fe1 1_555 1_555
N8 C12 1_555 1_555
H16 N8 1_555 1_555
Fe1A O3A 1_555 1_555
Fe1_2 O8 1_555 1_555
Fe2A O1A 1_555 1_555
C1A C2A 1_555 1_555
C2A O1A 1_555 1_555
C3A H1A 1_555 1_555
C4A H2A 1_555 1_555
C5A C4A 1_555 1_555
H3A C5A 1_555 1_555
C6A H4A 1_555 1_555
C7A H5A 1_555 1_555
C8A C7A 1_555 1_555
H6A C8A 1_555 1_555
C9A H7A 1_555 1_555
C10A H8A 1_555 1_555
C11A C10A 1_555 1_555
H9A C11A 1_555 1_555
C12A H10A 1_555 1_555
C13A H11A 1_555 1_555
C14A C13A 1_555 1_555
H12A C14A 1_555 1_555
C15A C15 1_555 1_555
C16A C16 1_555 1_555
O2A Fe2A 1_555 1_555
O3A C2A 1_555 1_555
O4A Fe1A 1_555 1_555
O5A Fe2A 1_555 1_555
O6A C15 1_555 1_555
O7A Fe1 1_555 1_555
O7A_2 Fe1_2 1_555 1_555
O8_2 Fe1 1_555 1_555
O8A Fe1A 1_555 1_555
N1A Fe2A 1_555 1_555
N2A C3A 1_555 1_555
H13A N2A 1_555 1_555
N3A Fe2A 1_555 1_555
N4A C6A 1_555 1_555
H14A N4A 1_555 1_555
N5A Fe1A 1_555 1_555
N6A C9A 1_555 1_555
H15A N6A 1_555 1_555
N7A Fe1A 1_555 1_555
N8A C12A 1_555 1_555
H16A N8A 1_555 1_555
C1 O2 1_555 1_555
C1 O4 1_555 1_555
C3 N1 1_555 1_555
C4 N2 1_555 1_555
C5 N1 1_555 1_555
C6 N3 1_555 1_555
C7 N4 1_555 1_555
C8 N3 1_555 1_555
C9 N5 1_555 1_555
C10 N6 1_555 1_555
C11 N5 1_555 1_555
C12 N7 1_555 1_555
C13 N8 1_555 1_555
C14 N7 1_555 1_555
O6 C15A 1_555 1_555
Fe2A O6A 1_555 1_555
C1A O2A 1_555 1_555
C1A O4A 1_555 1_555
C3A N1A 1_555 1_555
C4A N2A 1_555 1_555
C5A N1A 1_555 1_555
C6A N3A 1_555 1_555
C7A N4A 1_555 1_555
C8A N3A 1_555 1_555
C9A N5A 1_555 1_555
C10A N6A 1_555 1_555
C11A N5A 1_555 1_555
C12A N7A 1_555 1_555
C13A N8A 1_555 1_555
C14A N7A 1_555 1_555
C15A O5A 1_555 1_555
C16A O7A_2 1_555 1_555
C16A O8A 1_555 1_555

#END
