
#######################################################################
#
#                 Cambridge Crystallographic Data Centre
#                                CCDC 
#
#######################################################################
#
# If this CIF has been generated from an entry in the Cambridge 
# Structural Database, then it will include bibliographic, chemical, 
# crystal, experimental, refinement or atomic coordinate data resulting 
# from the CCDC's data processing and validation procedures.
#
#######################################################################

data_GALVIZ
_symmetry_cell_setting           rhombohedral
_symmetry_space_group_name_H-M   'R -3'
_symmetry_Int_Tables_number      148
_space_group_name_Hall           '-R 3'
loop_
_symmetry_equiv_pos_site_id
_symmetry_equiv_pos_as_xyz
1 x,y,z
2 -y,x-y,z
3 -x+y,-x,z
4 2/3+x,1/3+y,1/3+z
5 2/3-y,1/3+x-y,1/3+z
6 2/3-x+y,1/3-x,1/3+z
7 1/3+x,2/3+y,2/3+z
8 1/3-y,2/3+x-y,2/3+z
9 1/3-x+y,2/3-x,2/3+z
10 -x,-y,-z
11 y,-x+y,-z
12 x-y,x,-z
13 1/3-x,2/3-y,2/3-z
14 1/3+y,2/3-x+y,2/3-z
15 1/3+x-y,2/3+x,2/3-z
16 2/3-x,1/3-y,1/3-z
17 2/3+y,1/3-x+y,1/3-z
18 2/3+x-y,1/3+x,1/3-z
_cell_length_a                   20.0669(18)
_cell_length_b                   20.0669(18)
_cell_length_c                   22.499(3)
_cell_angle_alpha                90
_cell_angle_beta                 90
_cell_angle_gamma                120.00
_cell_volume                     7846.11
loop_
_atom_site_label
_atom_site_type_symbol
_atom_site_fract_x
_atom_site_fract_y
_atom_site_fract_z
Sn1 Sn 0.39564(4) 0.44709(4) 0.36991(3)
N1 N 0.4622(5) 0.4797(5) 0.2778(3)
O1 O 0.3489(4) 0.3451(4) 0.3165(3)
O2 O 0.3296(4) 0.2940(4) 0.2260(3)
O3 O 0.3963(4) 0.3650(4) 0.0947(3)
O4 O 0.4563(4) 0.3144(4) 0.1419(3)
O5 O 0.4837(4) 0.5889(5) 0.3964(4)
H1 H 0.528(3) 0.604(7) 0.410(5)
H2 H 0.467(7) 0.611(7) 0.419(5)
C1 C 0.5208(6) 0.5471(6) 0.2609(4)
H3 H 0.5416 0.5881 0.2888
C2 C 0.5531(6) 0.5605(6) 0.2051(4)
H4 H 0.5942 0.6097 0.1941
C3 C 0.5233(6) 0.4995(6) 0.1655(5)
H5 H 0.5441 0.5068 0.1266
C4 C 0.4636(6) 0.4281(6) 0.1821(4)
C5 C 0.4331(6) 0.4206(5) 0.2390(4)
C6 C 0.3652(6) 0.3468(6) 0.2615(4)
C7 C 0.4361(6) 0.3625(6) 0.1381(4)
C8 C 0.4802(6) 0.4332(7) 0.4157(5)
H6 H 0.5198 0.4840 0.4310
H7 H 0.4556 0.3993 0.4504
C9 C 0.5196(13) 0.4001(15) 0.3796(8)
H8 H 0.5436 0.4338 0.3447
H9 H 0.4798 0.3492 0.3644
C10 C 0.5802(11) 0.3900(11) 0.4109(8)
H10 H 0.6151 0.4378 0.4328
H11 H 0.6111 0.3810 0.3811
C11 C 0.5440(13) 0.3220(13) 0.4547(12)
H12 H 0.5003 0.3211 0.4749
H13 H 0.5825 0.3279 0.4842
H14 H 0.5263 0.2737 0.4329
C12 C 0.3273(6) 0.4929(6) 0.3382(4)
H15 H 0.3047 0.5055 0.3725
H16 H 0.3606 0.5414 0.3165
C13 C 0.2633(8) 0.4385(8) 0.2975(6)
H17 H 0.2361 0.3870 0.3163
H18 H 0.2861 0.4336 0.2599
C14 C 0.2051(7) 0.4636(7) 0.2833(6)
H19 H 0.1859 0.4739 0.3207
H20 H 0.1607 0.4217 0.2621
C15 C 0.2414(8) 0.5367(8) 0.2445(7)
H21 H 0.2857 0.5781 0.2653
H22 H 0.2032 0.5526 0.2370
H23 H 0.2583 0.5259 0.2067
Sn1H Sn 0.38478(6) 0.27103(4) 0.03658(3)
O3D O 0.3017(4) 0.3646(6) 0.4280(3)
O4D O 0.3523(4) 0.4752(6) 0.4752(3)
loop_
_geom_bond_atom_site_label_1
_geom_bond_atom_site_label_2
_geom_bond_site_symmetry_1
_geom_bond_site_symmetry_2
Sn1 N1 1_555 1_555
N1 C1 1_555 1_555
O1 Sn1 1_555 1_555
O2 C6 1_555 1_555
O3 C7 1_555 1_555
O4 C7 1_555 1_555
O5 Sn1 1_555 1_555
H1 O5 1_555 1_555
H2 O5 1_555 1_555
C1 H3 1_555 1_555
C2 C1 1_555 1_555
H4 C2 1_555 1_555
C3 C2 1_555 1_555
H5 C3 1_555 1_555
C4 C3 1_555 1_555
C5 N1 1_555 1_555
C6 O1 1_555 1_555
C7 C4 1_555 1_555
C8 Sn1 1_555 1_555
H6 C8 1_555 1_555
H7 C8 1_555 1_555
C9 C8 1_555 1_555
H8 C9 1_555 1_555
H9 C9 1_555 1_555
C10 C9 1_555 1_555
H10 C10 1_555 1_555
H11 C10 1_555 1_555
C11 C10 1_555 1_555
H12 C11 1_555 1_555
H13 C11 1_555 1_555
H14 C11 1_555 1_555
C12 Sn1 1_555 1_555
H15 C12 1_555 1_555
H16 C12 1_555 1_555
C13 C12 1_555 1_555
H17 C13 1_555 1_555
H18 C13 1_555 1_555
C14 C13 1_555 1_555
H19 C14 1_555 1_555
H20 C14 1_555 1_555
C15 C14 1_555 1_555
H21 C15 1_555 1_555
H22 C15 1_555 1_555
H23 C15 1_555 1_555
Sn1H O3 1_555 1_555
O3D Sn1 1_555 1_555
O4D Sn1 1_555 1_555
O4 Sn1H 1_555 1_555
C4 C5 1_555 1_555
C5 C6 1_555 1_555

#END
