
#######################################################################
#
#                 Cambridge Crystallographic Data Centre
#                                CCDC 
#
#######################################################################
#
# If this CIF has been generated from an entry in the Cambridge 
# Structural Database, then it will include bibliographic, chemical, 
# crystal, experimental, refinement or atomic coordinate data resulting 
# from the CCDC's data processing and validation procedures.
#
#######################################################################

data_GALWIZ
_symmetry_cell_setting           monoclinic
_symmetry_space_group_name_H-M   'C 2/c'
_symmetry_Int_Tables_number      15
_space_group_name_Hall           '-C 2yn'
loop_
_symmetry_equiv_pos_site_id
_symmetry_equiv_pos_as_xyz
1 x,y,z
2 1/2+x,1/2+y,z
3 -x,y,1/2-z
4 1/2-x,1/2+y,1/2-z
5 -x,-y,-z
6 1/2-x,1/2-y,-z
7 x,-y,1/2+z
8 1/2+x,1/2-y,1/2+z
_cell_length_a                   18.197(4)
_cell_length_b                   14.630(3)
_cell_length_c                   24.926(7)
_cell_angle_alpha                90
_cell_angle_beta                 107.88(2)
_cell_angle_gamma                90
_cell_volume                     6315.35
loop_
_atom_site_label
_atom_site_type_symbol
_atom_site_fract_x
_atom_site_fract_y
_atom_site_fract_z
Cu1 Cu 0.06686(6) 0.05778(8) 0.30040(5)
Cu2 Cu 0.20310(6) 0.11057(9) 0.35151(5)
Cu3 Cu 0.21105(7) 0.19048(8) 0.44365(5)
Cu4 Cu 0.25878(6) -0.00362(9) 0.45453(5)
Cl1 Cl 0.3335(1) 0.2211(2) 0.4846(1)
Cl2 Cl 0.0693(1) 0.0130(2) 0.2160(1)
Cl3 Cl 0.2842(1) -0.0122(2) 0.3685(1)
P1 P 0.1024(1) 0.1357(2) 0.3822(1)
P2 P 0.1414(1) -0.0296(2) 0.4575(1)
N1 N 0.2428(4) 0.1988(6) 0.3051(3)
N2 N 0.3643(4) -0.0337(5) 0.5080(3)
C1 C 0.0339(8) 0.2355(8) 0.3657(6)
C2 C 0.0608(9) 0.2998(8) 0.3289(6)
C3 C -0.0226(9) 0.245(1) 0.3851(9)
C4 C 0.0719(4) 0.0624(6) 0.4320(4)
C5 C 0.0962(6) -0.1239(7) 0.4085(6)
C6 C 0.1517(8) -0.1993(8) 0.4080(6)
C7 C 0.0209(7) -0.1596(9) 0.4178(7)
C8 C 0.1321(6) -0.0568(9) 0.5272(5)
C9 C 0.1619(8) 0.022(1) 0.5672(5)
C10 C 0.1756(7) -0.143(1) 0.5509(5)
C11 C 0.2960(7) 0.2561(9) 0.3290(5)
C12 C 0.3235(8) 0.320(1) 0.2968(6)
C13 C 0.2924(7) 0.325(1) 0.2412(5)
C14 C 0.2391(8) 0.265(1) 0.2158(5)
C15 C 0.2142(7) 0.2035(9) 0.2492(6)
C16 C 0.4111(6) -0.0873(7) 0.4904(5)
C17 C 0.4833(6) -0.1120(9) 0.5231(6)
C18 C 0.5100(7) -0.0812(9) 0.5757(8)
C19 C 0.4642(8) -0.028(1) 0.5949(6)
C20 C 0.3896(6) -0.0051(9) 0.5594(5)
H1 H 0.0227(4) 0.0370(6) 0.4133(4)
H2 H 0.0689(4) 0.0982(6) 0.4630(4)
H3 H 0.0819(6) -0.0980(7) 0.3718(6)
H4 H 0.1970(8) -0.1743(8) 0.4024(6)
H5 H 0.1281(8) -0.2405(8) 0.3782(6)
H6 H 0.1651(8) -0.2310(8) 0.4429(6)
H7 H -0.0121(7) -0.1094(9) 0.4179(7)
H8 H 0.0327(7) -0.1908(9) 0.4528(7)
H9 H -0.0043(7) -0.2003(9) 0.3881(7)
H10 H 0.0790(6) -0.0665(9) 0.5231(5)
H11 H 0.1343(8) 0.076(1) 0.5519(5)
H12 H 0.2153(8) 0.031(1) 0.5720(5)
H13 H 0.1549(8) 0.009(1) 0.6026(5)
H14 H 0.1565(7) -0.192(1) 0.5256(5)
H15 H 0.1686(7) -0.157(1) 0.5863(5)
H16 H 0.2290(7) -0.135(1) 0.5558(5)
H17 H 0.3176(7) 0.2556(9) 0.3689(5)
H18 H 0.3646(8) 0.360(1) 0.3152(6)
H19 H 0.3085(7) 0.370(1) 0.2202(5)
H20 H 0.2181(8) 0.264(1) 0.1759(5)
H21 H 0.1743(7) 0.1620(9) 0.2308(6)
H22 H 0.3933(6) -0.1099(7) 0.4529(5)
H23 H 0.5145(6) -0.1506(9) 0.5083(6)
H24 H 0.5603(7) -0.0968(9) 0.5991(8)
H25 H 0.4815(8) -0.006(1) 0.6324(6)
H26 H 0.3572(6) 0.0323(9) 0.5737(5)
Cl2B Cl -0.0693(1) 0.0130(2) 0.2840(1)
Cl1E Cl 0.1665(1) 0.2789(2) 0.5154(1)
Cu3E Cu 0.28895(7) 0.30952(8) 0.55635(5)
Cu1B Cu -0.06686(6) 0.05778(8) 0.19960(5)
O1 O 0.5000 0.055(2) 0.2500
C21 C 0.4283 0.098(2) 0.2425
C22 C 0.3678 0.024(2) 0.2346
C21B C 0.5717 0.098(2) 0.2575
C22B C 0.6322 0.024(2) 0.2654
loop_
_geom_bond_atom_site_label_1
_geom_bond_atom_site_label_2
_geom_bond_site_symmetry_1
_geom_bond_site_symmetry_2
Cu1 Cu2 1_555 1_555
Cu2 Cu3 1_555 1_555
Cu3 Cl1 1_555 1_555
Cu4 Cl3 1_555 1_555
Cl1 Cu3E 1_555 1_555
Cl2 Cu1 1_555 1_555
Cl3 Cu2 1_555 1_555
P1 Cu1 1_555 1_555
P2 Cu4 1_555 1_555
N1 Cu2 1_555 1_555
N2 Cu4 1_555 1_555
C1 P1 1_555 1_555
C2 C1 1_555 1_555
C3 C1 1_555 1_555
C4 P1 1_555 1_555
C5 P2 1_555 1_555
C6 C5 1_555 1_555
C7 C5 1_555 1_555
C8 P2 1_555 1_555
C9 C8 1_555 1_555
C10 C8 1_555 1_555
C11 N1 1_555 1_555
C12 C11 1_555 1_555
C13 C12 1_555 1_555
C14 C13 1_555 1_555
C15 N1 1_555 1_555
C16 N2 1_555 1_555
C17 C16 1_555 1_555
C18 C17 1_555 1_555
C19 C18 1_555 1_555
C20 N2 1_555 1_555
H1 C4 1_555 1_555
H2 C4 1_555 1_555
H3 C5 1_555 1_555
H4 C6 1_555 1_555
H5 C6 1_555 1_555
H6 C6 1_555 1_555
H7 C7 1_555 1_555
H8 C7 1_555 1_555
H9 C7 1_555 1_555
H10 C8 1_555 1_555
H11 C9 1_555 1_555
H12 C9 1_555 1_555
H13 C9 1_555 1_555
H14 C10 1_555 1_555
H15 C10 1_555 1_555
H16 C10 1_555 1_555
H17 C11 1_555 1_555
H18 C12 1_555 1_555
H19 C13 1_555 1_555
H20 C14 1_555 1_555
H21 C15 1_555 1_555
H22 C16 1_555 1_555
H23 C17 1_555 1_555
H24 C18 1_555 1_555
H25 C19 1_555 1_555
H26 C20 1_555 1_555
O1 C21 1_555 1_555
C21 C22 1_555 1_555
Cl2B Cu1 1_555 1_555
Cl1E Cu3 1_555 1_555
Cu3E Cl1E 1_555 1_555
Cu1B Cl2 1_555 1_555
C21B O1 1_555 1_555
C22B C21B 1_555 1_555
Cu2 P1 1_555 1_555
Cu3 P1 1_555 1_555
P2 C4 1_555 1_555
C14 C15 1_555 1_555
C19 C20 1_555 1_555
Cl2B Cu1B 1_555 1_555

#END
