
#######################################################################
#
#                 Cambridge Crystallographic Data Centre
#                                CCDC 
#
#######################################################################
#
# If this CIF has been generated from an entry in the Cambridge 
# Structural Database, then it will include bibliographic, chemical, 
# crystal, experimental, refinement or atomic coordinate data resulting 
# from the CCDC's data processing and validation procedures.
#
#######################################################################

data_GALXOI
_symmetry_cell_setting           monoclinic
_symmetry_space_group_name_H-M   'P 21/n'
_symmetry_Int_Tables_number      14
_space_group_name_Hall           '-P 2yn'
loop_
_symmetry_equiv_pos_site_id
_symmetry_equiv_pos_as_xyz
1 x,y,z
2 1/2-x,1/2+y,1/2-z
3 -x,-y,-z
4 1/2+x,1/2-y,1/2+z
_cell_length_a                   7.2302(1)
_cell_length_b                   7.9460(1)
_cell_length_c                   13.9173(2)
_cell_angle_alpha                90
_cell_angle_beta                 93.982(1)
_cell_angle_gamma                90
_cell_volume                     797.635
loop_
_atom_site_label
_atom_site_type_symbol
_atom_site_fract_x
_atom_site_fract_y
_atom_site_fract_z
Ag1 Ag 1.06879(3) 0.76630(3) 0.487450(14)
Mo1 Mo 0.50000 1.00000 0.50000
Cu1 Cu 0.50000 0.50000 0.50000
F1 F 0.4290(3) 0.77747(17) 0.46681(13)
F2 F 0.5048(2) 0.94364(19) 0.63256(10)
O1 O 0.7639(2) 0.55651(19) 0.52366(10)
O2 O 0.9563(2) 0.6864(2) 0.63208(11)
O3 O 0.2510(2) 1.0562(2) 0.50245(11)
N1 N 0.4949(2) 0.5513(2) 0.63982(12)
N2 N 0.5364(3) 0.6620(3) 0.82772(13)
C1 C 0.6572(3) 0.6109(2) 0.67687(13)
C2 C 0.6787(3) 0.6653(3) 0.77086(15)
C3 C 0.3753(3) 0.6027(3) 0.78992(15)
C4 C 0.3533(3) 0.5456(3) 0.69585(15)
C5 C 0.8072(3) 0.6197(2) 0.60709(14)
H1 H 0.798 0.706 0.796
H2 H 0.271 0.600 0.829
H3 H 0.236 0.501 0.671
Ag1B Ag -0.06879(3) 0.23370(3) 0.512550(14)
Ag1C Ag 0.56879(3) 0.73370(3) 0.987450(14)
Ag1A Ag 0.43121(3) 0.26630(3) 0.012550(14)
Cu1_2 Cu 0.50000 1.50000 0.50000
F1B F 0.5710(3) 1.22253(17) 0.53319(13)
F1B_2 F 0.5710(3) 0.22253(17) 0.53319(13)
F2B F 0.4952(2) 1.05636(19) 0.36744(10)
O1B O 0.2361(2) 0.44349(19) 0.47634(10)
O2B O 0.0437(2) 0.3136(2) 0.36792(11)
O3B O 0.7490(2) 0.9438(2) 0.49755(11)
N1B N 0.5051(2) 0.4487(2) 0.36018(12)
N2B N 0.4636(3) 0.3380(3) 0.17228(13)
N2C N 1.0364(3) 0.8380(3) 0.32772(13)
N2A N -0.0364(3) 0.1620(3) 0.67228(13)
C1B C 0.3428(3) 0.3891(2) 0.32313(13)
C2B C 0.3213(3) 0.3347(3) 0.22914(15)
C3B C 0.6247(3) 0.3973(3) 0.21008(15)
C4B C 0.6467(3) 0.4544(3) 0.30415(15)
C5B C 0.1928(3) 0.3803(2) 0.39291(14)
H1B H 0.202 0.294 0.204
H2B H 0.729 0.400 0.171
H3B H 0.764 0.499 0.329
loop_
_geom_bond_atom_site_label_1
_geom_bond_atom_site_label_2
_geom_bond_site_symmetry_1
_geom_bond_site_symmetry_2
Ag1 O2 1_555 1_555
Mo1 F1 1_555 1_555
Cu1 F1 1_555 1_555
F2 Mo1 1_555 1_555
O1 Cu1 1_555 1_555
O2 C5 1_555 1_555
O3 Mo1 1_555 1_555
N1 Cu1 1_555 1_555
N2 C2 1_555 1_555
C1 N1 1_555 1_555
C2 C1 1_555 1_555
C3 N2 1_555 1_555
C4 N1 1_555 1_555
C5 O1 1_555 1_555
H1 C2 1_555 1_555
H2 C3 1_555 1_555
H3 C4 1_555 1_555
Ag1B O2B 1_555 1_555
Ag1C N2 1_555 1_555
Ag1A N2B 1_555 1_555
Cu1_2 F1B 1_555 1_555
F1B Mo1 1_555 1_555
F1B_2 Cu1 1_555 1_555
F2B Mo1 1_555 1_555
O1B Cu1 1_555 1_555
O2B C5B 1_555 1_555
O3B Mo1 1_555 1_555
N1B Cu1 1_555 1_555
N2B C2B 1_555 1_555
N2C Ag1 1_555 1_555
N2A Ag1B 1_555 1_555
C1B N1B 1_555 1_555
C2B C1B 1_555 1_555
C3B N2B 1_555 1_555
C4B N1B 1_555 1_555
C5B O1B 1_555 1_555
H1B C2B 1_555 1_555
H2B C3B 1_555 1_555
H3B C4B 1_555 1_555
C1 C5 1_555 1_555
C3 C4 1_555 1_555
C1B C5B 1_555 1_555
C3B C4B 1_555 1_555

#END
