
#######################################################################
#
#                 Cambridge Crystallographic Data Centre
#                                CCDC 
#
#######################################################################
#
# If this CIF has been generated from an entry in the Cambridge 
# Structural Database, then it will include bibliographic, chemical, 
# crystal, experimental, refinement or atomic coordinate data resulting 
# from the CCDC's data processing and validation procedures.
#
#######################################################################

data_GALXAU
_symmetry_cell_setting           orthorhombic
_symmetry_space_group_name_H-M   'P b c n'
_symmetry_Int_Tables_number      60
_space_group_name_Hall           '-P 2n 2ab'
loop_
_symmetry_equiv_pos_site_id
_symmetry_equiv_pos_as_xyz
1 x,y,z
2 1/2-x,1/2-y,1/2+z
3 1/2+x,1/2-y,-z
4 -x,y,1/2-z
5 -x,-y,-z
6 1/2+x,1/2+y,1/2-z
7 1/2-x,1/2+y,z
8 x,-y,1/2+z
_cell_length_a                   25.305(5)
_cell_length_b                   10.665(5)
_cell_length_c                   11.487(5)
_cell_angle_alpha                90
_cell_angle_beta                 90
_cell_angle_gamma                90
_cell_volume                     3100.09
loop_
_atom_site_label
_atom_site_type_symbol
_atom_site_fract_x
_atom_site_fract_y
_atom_site_fract_z
Ni1 Ni 0.5000 0.09858(5) 0.2500
O1 O 0.44096(10) -0.0473(2) 0.2938(2)
O2 O 0.43968(9) 0.0661(2) 0.1345(2)
N1 N 0.46350(11) 0.2212(2) 0.3601(2)
N2 N 0.44979(12) 0.3146(3) 0.5305(2)
C1 C 0.34038(16) -0.1506(4) 0.2368(4)
H1 H 0.3502 -0.1543 0.3148
C2 C 0.29500(17) -0.2121(4) 0.1994(4)
H2 H 0.2739 -0.2555 0.2520
C3 C 0.28173(15) -0.2079(4) 0.0833(4)
C4 C 0.31176(15) -0.1438(4) 0.0044(4)
H3 H 0.3023 -0.1427 -0.0739
C5 C 0.35657(14) -0.0801(3) 0.0423(3)
H4 H 0.3768 -0.0349 -0.0107
C6 C 0.37116(13) -0.0836(3) 0.1584(3)
C7 C 0.41990(13) -0.0185(3) 0.1988(3)
C8 C 0.42056(13) 0.3010(3) 0.3494(3)
C9 C 0.38700(14) 0.3232(3) 0.2559(3)
H5 H 0.3920 0.2837 0.1845
C10 C 0.34604(16) 0.4064(4) 0.2733(4)
H6 H 0.3225 0.4217 0.2128
C11 C 0.33888(17) 0.4681(4) 0.3788(4)
H7 H 0.3112 0.5250 0.3865
C12 C 0.37180(16) 0.4469(4) 0.4723(4)
H8 H 0.3672 0.4885 0.5427
C13 C 0.41193(13) 0.3611(3) 0.4565(3)
C14 C 0.47889(14) 0.2314(3) 0.4698(3)
H9 H 0.5068 0.1861 0.5016
C15 C 0.45498(16) 0.3402(4) 0.6552(3)
H10 H 0.4658 0.2637 0.6941
H11 H 0.4206 0.3634 0.6856
C16 C 0.49413(14) 0.4431(3) 0.6850(3)
H12 H 0.4797 0.5237 0.6625
H13 H 0.5266 0.4300 0.6419
Br1 Br 0.22137(2) -0.29842(6) 0.03439(5)
Ni1_2 Ni 0.5000 0.09858(5) 1.2500
O1C O 0.55904(10) -0.0473(2) 0.2062(2)
O2C O 0.56032(9) 0.0661(2) 0.3655(2)
N1C N 0.53650(11) 0.2212(2) 1.1399(2)
N1C_2 N 0.53650(11) 0.2212(2) 0.1399(2)
N2C N 0.55021(12) 0.3146(3) 0.9695(2)
C1C C 0.65962(16) -0.1506(4) 0.2632(4)
H1C H 0.6498 -0.1543 0.1852
C2C C 0.70500(17) -0.2121(4) 0.3006(4)
H2C H 0.7261 -0.2555 0.2480
C3C C 0.71827(15) -0.2079(4) 0.4167(4)
C4C C 0.68824(15) -0.1438(4) 0.4956(4)
H3C H 0.6977 -0.1427 0.5739
C5C C 0.64343(14) -0.0801(3) 0.4577(3)
H4C H 0.6232 -0.0349 0.5107
C6C C 0.62884(13) -0.0836(3) 0.3416(3)
C7C C 0.58010(13) -0.0185(3) 0.3012(3)
C8C C 0.57944(13) 0.3010(3) 1.1506(3)
C9C C 0.61300(14) 0.3232(3) 1.2441(3)
H5C H 0.6080 0.2837 1.3155
C10C C 0.65396(16) 0.4064(4) 1.2267(4)
H6C H 0.6775 0.4217 1.2872
C11C C 0.66112(17) 0.4681(4) 1.1212(4)
H7C H 0.6888 0.5250 1.1135
C12C C 0.62820(16) 0.4469(4) 1.0277(4)
H8C H 0.6328 0.4885 0.9573
C13C C 0.58807(13) 0.3611(3) 1.0435(3)
C14C C 0.52111(14) 0.2314(3) 1.0302(3)
H9C H 0.4932 0.1861 0.9984
C15C C 0.54502(16) 0.3402(4) 0.8448(3)
H10C H 0.5342 0.2637 0.8059
H11C H 0.5794 0.3634 0.8144
C16C C 0.50587(14) 0.4431(3) 0.8150(3)
H12C H 0.5203 0.5237 0.8375
H13C H 0.4734 0.4300 0.8581
Br1C Br 0.77863(2) -0.29842(6) 0.46561(5)
loop_
_geom_bond_atom_site_label_1
_geom_bond_atom_site_label_2
_geom_bond_site_symmetry_1
_geom_bond_site_symmetry_2
Ni1 O1 1_555 1_555
O1 C7 1_555 1_555
O2 Ni1 1_555 1_555
N1 Ni1 1_555 1_555
N2 C13 1_555 1_555
C1 H1 1_555 1_555
C2 C1 1_555 1_555
H2 C2 1_555 1_555
C3 C2 1_555 1_555
C4 C3 1_555 1_555
H3 C4 1_555 1_555
C5 C4 1_555 1_555
H4 C5 1_555 1_555
C6 C1 1_555 1_555
C7 O2 1_555 1_555
C8 N1 1_555 1_555
C9 C8 1_555 1_555
H5 C9 1_555 1_555
C10 C9 1_555 1_555
H6 C10 1_555 1_555
C11 C10 1_555 1_555
H7 C11 1_555 1_555
C12 C11 1_555 1_555
H8 C12 1_555 1_555
C13 C8 1_555 1_555
C14 N1 1_555 1_555
H9 C14 1_555 1_555
C15 N2 1_555 1_555
H10 C15 1_555 1_555
H11 C15 1_555 1_555
C16 C15 1_555 1_555
H12 C16 1_555 1_555
H13 C16 1_555 1_555
Br1 C3 1_555 1_555
Ni1_2 N1C 1_555 1_555
O1C Ni1 1_555 1_555
O2C Ni1 1_555 1_555
N1C C8C 1_555 1_555
N1C_2 Ni1 1_555 1_555
N2C C13C 1_555 1_555
C1C H1C 1_555 1_555
C2C C1C 1_555 1_555
H2C C2C 1_555 1_555
C3C C2C 1_555 1_555
C4C C3C 1_555 1_555
H3C C4C 1_555 1_555
C5C C4C 1_555 1_555
H4C C5C 1_555 1_555
C6C C1C 1_555 1_555
C7C O1C 1_555 1_555
C8C C9C 1_555 1_555
C9C H5C 1_555 1_555
C10C C9C 1_555 1_555
H6C C10C 1_555 1_555
C11C C10C 1_555 1_555
H7C C11C 1_555 1_555
C12C C11C 1_555 1_555
H8C C12C 1_555 1_555
C13C C8C 1_555 1_555
C14C N1C 1_555 1_555
H9C C14C 1_555 1_555
C15C N2C 1_555 1_555
H10C C15C 1_555 1_555
H11C C15C 1_555 1_555
C16C C16 1_555 1_555
H12C C16C 1_555 1_555
H13C C16C 1_555 1_555
Br1C C3C 1_555 1_555
N2 C14 1_555 1_555
C5 C6 1_555 1_555
C6 C7 1_555 1_555
C12 C13 1_555 1_555
O2C C7C 1_555 1_555
N2C C14C 1_555 1_555
C5C C6C 1_555 1_555
C6C C7C 1_555 1_555
C12C C13C 1_555 1_555
C15C C16C 1_555 1_555

#END
