
#######################################################################
#
#                 Cambridge Crystallographic Data Centre
#                                CCDC 
#
#######################################################################
#
# If this CIF has been generated from an entry in the Cambridge 
# Structural Database, then it will include bibliographic, chemical, 
# crystal, experimental, refinement or atomic coordinate data resulting 
# from the CCDC's data processing and validation procedures.
#
#######################################################################

data_GALYAV
_symmetry_cell_setting           monoclinic
_symmetry_space_group_name_H-M   'P 21/n'
_symmetry_Int_Tables_number      14
_space_group_name_Hall           '-P 2yn'
loop_
_symmetry_equiv_pos_site_id
_symmetry_equiv_pos_as_xyz
1 x,y,z
2 1/2-x,1/2+y,1/2-z
3 -x,-y,-z
4 1/2+x,1/2-y,1/2+z
_cell_length_a                   7.2715(2)
_cell_length_b                   7.9843(3)
_cell_length_c                   13.8226(5)
_cell_angle_alpha                90
_cell_angle_beta                 94.0800(10)
_cell_angle_gamma                90
_cell_volume                     800.476
loop_
_atom_site_label
_atom_site_type_symbol
_atom_site_fract_x
_atom_site_fract_y
_atom_site_fract_z
Ag1 Ag 0.419868(18) 0.248933(17) 0.012836(9)
Nb1 Nb 0.0000 0.5000 0.0000
Cu1 Cu 0.0000 0.0000 0.0000
N1 N 1.00252(19) 0.05280(18) -0.14061(10)
C1 C 0.8398(2) 0.1136(2) -0.17662(11)
C2 C 1.1428(2) 0.0495(2) -0.19746(12)
C3 C 0.8165(2) 0.1705(2) -0.27152(11)
F1 F 0.07551(17) 0.27402(14) 0.03175(9)
F2 F 0.25653(15) 0.56211(15) 0.00015(9)
F3 F -0.00056(18) 0.55098(16) 0.13587(8)
O1 O 0.73653(16) 0.05910(16) -0.02207(8)
O2 O 0.54077(17) 0.18396(18) -0.13155(9)
N2 N 0.9571(2) 0.1694(2) -0.32905(10)
C4 C 1.1192(2) 0.1099(3) -0.29204(13)
C5 C 0.6915(2) 0.1203(2) -0.10605(11)
H1 H 0.704(4) 0.207(4) -0.294(2)
H2 H 1.257(4) 0.012(3) -0.1720(19)
H3 H 1.215(4) 0.108(4) -0.334(2)
Ag1B Ag -0.419868(18) 0.751067(17) -0.012836(9)
Ag1C Ag 0.919868(18) 0.251067(17) -0.487164(9)
Ag1C_2 Ag -0.080132(18) 0.251067(17) 0.512836(9)
Cu1_2 Cu 1.0000 0.0000 0.0000
Cu1_3 Cu 0.0000 1.0000 0.0000
Cu1A Cu 0.5000 0.5000 0.5000
N1C N 0.50252(19) 0.44720(18) 0.35939(10)
N1B N -0.00252(19) -0.05280(18) 0.14061(10)
N1_2 N 0.00252(19) 0.05280(18) -0.14061(10)
C1C C 0.3398(2) 0.3864(2) 0.32338(11)
C2C C 0.6428(2) 0.4505(2) 0.30254(12)
C3C C 0.3165(2) 0.3295(2) 0.22848(11)
F1B F -0.07551(17) 0.72598(14) -0.03175(9)
F1B_2 F -0.07551(17) -0.27402(14) -0.03175(9)
F2B F -0.25653(15) 0.43789(15) -0.00015(9)
F3B F 0.00056(18) 0.44902(16) -0.13587(8)
O1C O 0.23653(16) 0.44090(16) 0.47793(8)
O1B O 0.26347(16) -0.05910(16) 0.02207(8)
O1_2 O -0.26347(16) 0.05910(16) -0.02207(8)
O2C O 0.04077(17) 0.31604(18) 0.36845(9)
O2B O -0.54077(17) 0.81604(18) 0.13155(9)
N2C N 0.4571(2) 0.3306(2) 0.17095(10)
N2A N -0.4571(2) 0.6694(2) -0.17095(10)
C4C C 0.6192(2) 0.3901(3) 0.20796(13)
C5C C 0.1915(2) 0.3797(2) 0.39395(11)
H1C H 0.204(4) 0.293(4) 0.206(2)
H2C H 0.757(4) 0.488(3) 0.3280(19)
H3C H 0.715(4) 0.392(4) 0.166(2)
loop_
_geom_bond_atom_site_label_1
_geom_bond_atom_site_label_2
_geom_bond_site_symmetry_1
_geom_bond_site_symmetry_2
Ag1 F1 1_555 1_555
Nb1 F1 1_555 1_555
Cu1 F1 1_555 1_555
N1 C1 1_555 1_555
C1 C3 1_555 1_555
C2 N1 1_555 1_555
C3 N2 1_555 1_555
F2 Nb1 1_555 1_555
F3 Nb1 1_555 1_555
O1 C5 1_555 1_555
O2 Ag1 1_555 1_555
N2 C4 1_555 1_555
C4 C2 1_555 1_555
C5 C1 1_555 1_555
H1 C3 1_555 1_555
H2 C2 1_555 1_555
H3 C4 1_555 1_555
Ag1B F1B 1_555 1_555
Ag1C N2 1_555 1_555
Ag1C_2 O2C 1_555 1_555
Cu1_2 N1 1_555 1_555
Cu1_3 F1B 1_555 1_555
Cu1A N1C 1_555 1_555
N1C C1C 1_555 1_555
N1B Cu1 1_555 1_555
N1_2 Cu1 1_555 1_555
C1C C3C 1_555 1_555
C2C N1C 1_555 1_555
C3C N2C 1_555 1_555
F1B Nb1 1_555 1_555
F1B_2 Cu1 1_555 1_555
F2B Nb1 1_555 1_555
F3B Nb1 1_555 1_555
O1C Cu1A 1_555 1_555
O1B Cu1 1_555 1_555
O1_2 Cu1 1_555 1_555
O2C C5C 1_555 1_555
O2B Ag1B 1_555 1_555
N2C Ag1 1_555 1_555
N2A Ag1B 1_555 1_555
C4C C2C 1_555 1_555
C5C C1C 1_555 1_555
H1C C3C 1_555 1_555
H2C C2C 1_555 1_555
H3C C4C 1_555 1_555
O1 Cu1_2 1_555 1_555
O2 C5 1_555 1_555
O1C C5C 1_555 1_555
N2C C4C 1_555 1_555

#END
