
#######################################################################
#
#                 Cambridge Crystallographic Data Centre
#                                CCDC 
#
#######################################################################
#
# If this CIF has been generated from an entry in the Cambridge 
# Structural Database, then it will include bibliographic, chemical, 
# crystal, experimental, refinement or atomic coordinate data resulting 
# from the CCDC's data processing and validation procedures.
#
#######################################################################

data_GAMBUS
_symmetry_cell_setting           monoclinic
_symmetry_space_group_name_H-M   'P 21/c'
_symmetry_Int_Tables_number      14
_space_group_name_Hall           '-P 2ybc'
loop_
_symmetry_equiv_pos_site_id
_symmetry_equiv_pos_as_xyz
1 x,y,z
2 -x,1/2+y,1/2-z
3 -x,-y,-z
4 x,1/2-y,1/2+z
_cell_length_a                   6.0458(3)
_cell_length_b                   9.3592(5)
_cell_length_c                   14.0314(6)
_cell_angle_alpha                90
_cell_angle_beta                 90.5000(10)
_cell_angle_gamma                90
_cell_volume                     793.92
loop_
_atom_site_label
_atom_site_type_symbol
_atom_site_fract_x
_atom_site_fract_y
_atom_site_fract_z
U1 U 0.93360(3) 0.21799(2) 0.491671(14)
O1 O 1.1686(9) 0.2329(5) 0.4212(4)
O2 O 0.6972(8) 0.1974(5) 0.5613(4)
O3 O 0.8829(7) -0.0286(4) 0.4216(3)
O4 O 0.7255(8) 0.1485(4) 0.3475(3)
O5 O 0.1876(8) -0.0655(5) 0.0628(3)
O6 O 0.0937(8) 0.1478(4) 0.1145(3)
C1 C 0.7668(9) 0.0188(6) 0.3502(4)
C2 C 0.6960(9) -0.0846(6) 0.2751(4)
H1 H 0.6092 -0.1590 0.3051
H2 H 0.8273 -0.1293 0.2493
C3 C 0.5612(10) -0.0230(7) 0.1926(4)
H3 H 0.5692 -0.0879 0.1388
H4 H 0.6263 0.0672 0.1733
C4 C 0.3191(10) 0.0015(6) 0.2172(4)
H5 H 0.2599 -0.0823 0.2487
H6 H 0.3060 0.0823 0.2600
C5 C 0.1905(10) 0.0304(6) 0.1258(4)
U1B U 1.06640(3) -0.21799(2) 0.508329(14)
U1A U 0.06640(3) -0.28201(2) 0.008329(14)
U1C U -0.06640(3) 0.28201(2) -0.008329(14)
O3B O 1.1171(7) 0.0286(4) 0.5784(3)
O5A O 0.8124(8) 0.4345(5) 0.4372(3)
O6C O 1.0937(8) 0.3522(4) 0.6145(3)
loop_
_geom_bond_atom_site_label_1
_geom_bond_atom_site_label_2
_geom_bond_site_symmetry_1
_geom_bond_site_symmetry_2
U1 O1 1_555 1_555
O2 U1 1_555 1_555
O3 U1 1_555 1_555
O4 U1 1_555 1_555
O5 C5 1_555 1_555
O6 C5 1_555 1_555
C1 O3 1_555 1_555
C2 C1 1_555 1_555
H1 C2 1_555 1_555
H2 C2 1_555 1_555
C3 C2 1_555 1_555
H3 C3 1_555 1_555
H4 C3 1_555 1_555
C4 C3 1_555 1_555
H5 C4 1_555 1_555
H6 C4 1_555 1_555
C5 C4 1_555 1_555
U1B O3 1_555 1_555
U1A O5 1_555 1_555
U1C O6 1_555 1_555
O3B U1 1_555 1_555
O5A U1 1_555 1_555
O6C U1 1_555 1_555
O4 C1 1_555 1_555
U1B O3B 1_555 1_555

#END
