
#######################################################################
#
#                 Cambridge Crystallographic Data Centre
#                                CCDC 
#
#######################################################################
#
# If this CIF has been generated from an entry in the Cambridge 
# Structural Database, then it will include bibliographic, chemical, 
# crystal, experimental, refinement or atomic coordinate data resulting 
# from the CCDC's data processing and validation procedures.
#
#######################################################################

data_GAMFUW
_symmetry_cell_setting           monoclinic
_symmetry_space_group_name_H-M   'P 21/n'
_symmetry_Int_Tables_number      14
_space_group_name_Hall           '-P 2yn'
loop_
_symmetry_equiv_pos_site_id
_symmetry_equiv_pos_as_xyz
1 x,y,z
2 1/2-x,1/2+y,1/2-z
3 -x,-y,-z
4 1/2+x,1/2-y,1/2+z
_cell_length_a                   8.1570(10)
_cell_length_b                   6.7568(8)
_cell_length_c                   17.451(2)
_cell_angle_alpha                90
_cell_angle_beta                 94.697(2)
_cell_angle_gamma                90
_cell_volume                     958.586
loop_
_atom_site_label
_atom_site_type_symbol
_atom_site_fract_x
_atom_site_fract_y
_atom_site_fract_z
Zn1 Zn 0.56290(2) 0.56938(3) 0.271010(10)
O1 O 0.7391(2) 0.3739(2) 0.29030(10)
O2 O 0.8980(2) 0.1337(2) 0.33600(10)
O3 O 0.6345(2) 0.6303(2) 0.39710(10)
O4 O 0.4284(2) 1.0838(2) 0.36670(10)
O5 O 0.4405(2) 0.8151(2) 0.29440(10)
O6 O 0.3850(2) 0.3658(2) 0.26200(10)
C1 C 0.8096(2) 0.2820(3) 0.34630(10)
C2 C 0.7970(2) 0.3428(3) 0.42820(10)
C3 C 0.8789(2) 0.2255(3) 0.48430(10)
C4 C 0.8852(3) 0.2706(3) 0.56150(10)
C5 C 0.8098(3) 0.4411(3) 0.58370(10)
C6 C 0.7254(2) 0.5611(3) 0.52980(10)
C7 C 0.7176(2) 0.5127(3) 0.45230(10)
C8 C 0.5731(3) 0.8160(3) 0.42180(10)
C9 C 0.4746(2) 0.9135(3) 0.35540(10)
H1 H 0.399(3) 0.272(3) 0.2940(10)
H2 H 0.287(2) 0.372(4) 0.2430(10)
H3 H 0.9316 0.1117 0.4691
H4 H 0.9392 0.1876 0.5978
H5 H 0.8158 0.4758 0.6355
H6 H 0.6735 0.6749 0.5455
H7 H 0.6640 0.9007 0.4400
H8 H 0.5041 0.7951 0.4638
Zn1A Zn 0.93710(2) 0.06938(3) 0.228990(10)
O2A O 0.6020(2) 0.6337(2) 0.16400(10)
loop_
_geom_bond_atom_site_label_1
_geom_bond_atom_site_label_2
_geom_bond_site_symmetry_1
_geom_bond_site_symmetry_2
Zn1 O1 1_555 1_555
O1 C1 1_555 1_555
O2 C1 1_555 1_555
O3 Zn1 1_555 1_555
O4 C9 1_555 1_555
O5 Zn1 1_555 1_555
O6 Zn1 1_555 1_555
C1 C2 1_555 1_555
C2 C3 1_555 1_555
C3 C4 1_555 1_555
C4 C5 1_555 1_555
C5 C6 1_555 1_555
C6 C7 1_555 1_555
C7 O3 1_555 1_555
C8 O3 1_555 1_555
C9 O5 1_555 1_555
H1 O6 1_555 1_555
H2 O6 1_555 1_555
H3 C3 1_555 1_555
H4 C4 1_555 1_555
H5 C5 1_555 1_555
H6 C6 1_555 1_555
H7 C8 1_555 1_555
H8 C8 1_555 1_555
Zn1A O2 1_555 1_555
O2A Zn1 1_555 1_555
C2 C7 1_555 1_555
C8 C9 1_555 1_555

#END
