
#######################################################################
#
#                 Cambridge Crystallographic Data Centre
#                                CCDC 
#
#######################################################################
#
# If this CIF has been generated from an entry in the Cambridge 
# Structural Database, then it will include bibliographic, chemical, 
# crystal, experimental, refinement or atomic coordinate data resulting 
# from the CCDC's data processing and validation procedures.
#
#######################################################################

data_GAMNUC
_symmetry_cell_setting           monoclinic
_symmetry_space_group_name_H-M   'P 21/c'
_symmetry_Int_Tables_number      14
_space_group_name_Hall           '-P 2ybc'
loop_
_symmetry_equiv_pos_site_id
_symmetry_equiv_pos_as_xyz
1 x,y,z
2 -x,1/2+y,1/2-z
3 -x,-y,-z
4 x,1/2-y,1/2+z
_cell_length_a                   11.619(1)
_cell_length_b                   8.413(1)
_cell_length_c                   11.698(4)
_cell_angle_alpha                90
_cell_angle_beta                 108.65(2)
_cell_angle_gamma                90
_cell_volume                     1083.44
loop_
_atom_site_label
_atom_site_type_symbol
_atom_site_fract_x
_atom_site_fract_y
_atom_site_fract_z
Tl1 Tl 0.0728(1) 0.3489(2) 0.4012(1)
S1 S 0.1180(8) 0.064(1) 0.2921(8)
N1 N 0.353(2) 0.137(3) 0.309(2)
C1 C 0.230(3) 0.123(4) 0.233(3)
N2 N 0.223(3) 0.332(4) 0.621(3)
N3 N 0.340(3) 0.298(3) 0.623(2)
C2 C 0.411(3) 0.185(3) 0.233(3)
C3 C 0.545(3) 0.219(5) 0.274(3)
N4 N 0.405(3) 0.110(3) 0.432(2)
C4 C -0.065(3) 0.239(4) 0.458(3)
C5 C 0.204(3) 0.487(4) 0.355(3)
F1 F 0.577(2) 0.327(2) 0.353(2)
F2 F 0.578(2) 0.262(3) 0.181(2)
F3 F 0.607(2) 0.085(3) 0.319(2)
H1 H 0.4011 0.1916 0.5056
H2 H 0.4274 -0.0081 0.4755
H3 H -0.1440 0.1841 0.4473
H4 H 0.2369 0.5799 0.4338
H5 H 0.2837 0.4148 0.3672
H6 H 0.1704 0.5433 0.2780
N2C N 0.223(3) 0.168(4) 0.121(3)
C1C C 0.230(3) 0.377(4) 0.733(3)
C2C C 0.411(3) 0.315(3) 0.733(3)
N3C N 0.340(3) 0.202(3) 0.123(2)
Tl1C Tl 0.0728(1) 0.1511(2) -0.0988(1)
S1C S 0.1180(8) 0.436(1) 0.7921(8)
N1C N 0.353(2) 0.363(3) 0.809(2)
C3C C 0.545(3) 0.281(5) 0.774(3)
S1C_2 S 0.1180(8) 0.436(1) -0.2079(8)
C4C C -0.065(3) 0.261(4) -0.042(3)
C5C C 0.204(3) 0.013(4) -0.145(3)
Tl1C_2 Tl 0.0728(1) 0.1511(2) 0.9012(1)
N4C N 0.405(3) 0.390(3) 0.932(2)
F1C F 0.577(2) 0.173(2) 0.853(2)
F2C F 0.578(2) 0.238(3) 0.681(2)
F3C F 0.607(2) 0.415(3) 0.819(2)
H3C H -0.1440 0.3159 -0.0527
H4C H 0.2369 -0.0799 -0.0662
H5C H 0.2837 0.0852 -0.1328
H6C H 0.1704 -0.0433 -0.2220
H1C H 0.4011 0.3084 1.0056
H2C H 0.4274 0.5081 0.9755
loop_
_geom_bond_atom_site_label_1
_geom_bond_atom_site_label_2
_geom_bond_site_symmetry_1
_geom_bond_site_symmetry_2
Tl1 S1 1_555 1_555
S1 C1 1_555 1_555
N1 C1 1_555 1_555
C1 N2C 1_555 1_555
N2 Tl1 1_555 1_555
N3 N2 1_555 1_555
C2 N1 1_555 1_555
C3 C2 1_555 1_555
N4 N1 1_555 1_555
C4 Tl1 1_555 1_555
C5 Tl1 1_555 1_555
F1 C3 1_555 1_555
F2 C3 1_555 1_555
F3 C3 1_555 1_555
H1 N4 1_555 1_555
H2 N4 1_555 1_555
H3 C4 1_555 1_555
H4 C5 1_555 1_555
H5 C5 1_555 1_555
H6 C5 1_555 1_555
N2C N3C 1_555 1_555
C1C N2 1_555 1_555
C2C N3 1_555 1_555
N3C C2 1_555 1_555
Tl1C N2C 1_555 1_555
S1C C1C 1_555 1_555
N1C C1C 1_555 1_555
C3C C2C 1_555 1_555
S1C_2 Tl1C 1_555 1_555
C4C Tl1C 1_555 1_555
C5C Tl1C 1_555 1_555
Tl1C_2 S1C 1_555 1_555
N4C N1C 1_555 1_555
F1C C3C 1_555 1_555
F2C C3C 1_555 1_555
F3C C3C 1_555 1_555
H3C C4C 1_555 1_555
H4C C5C 1_555 1_555
H5C C5C 1_555 1_555
H6C C5C 1_555 1_555
H1C N4C 1_555 1_555
H2C N4C 1_555 1_555
C2C N1C 1_555 1_555

#END
