
#######################################################################
#
#                 Cambridge Crystallographic Data Centre
#                                CCDC 
#
#######################################################################
#
# If this CIF has been generated from an entry in the Cambridge 
# Structural Database, then it will include bibliographic, chemical, 
# crystal, experimental, refinement or atomic coordinate data resulting 
# from the CCDC's data processing and validation procedures.
#
#######################################################################

data_GAMPUG
_symmetry_cell_setting           monoclinic
_symmetry_space_group_name_H-M   'C 2/c'
_symmetry_Int_Tables_number      15
_space_group_name_Hall           '-C 2yn'
loop_
_symmetry_equiv_pos_site_id
_symmetry_equiv_pos_as_xyz
1 x,y,z
2 1/2+x,1/2+y,z
3 -x,y,1/2-z
4 1/2-x,1/2+y,1/2-z
5 -x,-y,-z
6 1/2-x,1/2-y,-z
7 x,-y,1/2+z
8 1/2+x,1/2-y,1/2+z
_cell_length_a                   20.956(13)
_cell_length_b                   9.884(6)
_cell_length_c                   24.318(14)
_cell_angle_alpha                90
_cell_angle_beta                 95.87(5)
_cell_angle_gamma                90
_cell_volume                     5010.55
loop_
_atom_site_label
_atom_site_type_symbol
_atom_site_fract_x
_atom_site_fract_y
_atom_site_fract_z
Mn1 Mn 0.5000 0.5000 0.0000
Mn2 Mn 0.7500 0.2500 0.0000
N1 N 0.47901(11) 0.6698(2) 0.05857(9)
N2 N 0.48414(11) 0.6999(3) 0.10485(11)
N3 N 0.48909(17) 0.7346(6) 0.15200(14)
N4 N 0.67986(10) 0.4155(2) -0.02225(9)
N5 N 0.64136(9) 0.4603(2) 0.00493(8)
N6 N 0.60312(10) 0.5077(2) 0.03278(8)
N7 N 0.51778(10) 0.6554(2) -0.06622(8)
N8 N 0.56702(9) 0.7977(2) -0.11977(8)
N9 N 0.74171(10) 0.6283(2) -0.32312(8)
N10 N 0.75638(10) 0.7047(2) -0.40734(8)
N11 N 0.85321(9) 0.5898(2) -0.06222(8)
N12 N 0.82752(10) 0.4063(2) -0.01583(8)
C1 C 0.67336(12) 0.7786(2) -0.16026(9)
C2 C 0.66719(12) 0.7052(3) -0.21104(10)
C3 C 0.71974(12) 0.6241(2) -0.22451(9)
C4 C 0.77729(11) 0.6177(2) -0.18886(9)
C5 C 0.78351(11) 0.6970(2) -0.13994(9)
C6 C 0.73057(12) 0.7716(2) -0.12413(9)
C7 C 0.61879(12) 0.8702(3) -0.14566(11)
H4 H 0.6368 0.9413 -0.1199
H5 H 0.5997 0.9155 -0.1797
C8 C 0.57214(12) 0.6832(3) -0.08875(10)
H6 H 0.6098 0.6292 -0.0836
C9 C 0.47651(13) 0.7596(3) -0.08401(11)
H7 H 0.4336 0.7683 -0.0751
C10 C 0.50615(12) 0.8478(3) -0.11607(11)
H8 H 0.4884 0.9282 -0.1327
C11 C 0.60469(13) 0.7098(3) -0.24910(11)
H9 H 0.5845 0.6203 -0.2503
H10 H 0.6138 0.7358 -0.2864
H11 H 0.5757 0.7763 -0.2351
C12 C 0.71436(13) 0.5470(3) -0.27933(9)
H12 H 0.7377 0.4601 -0.2743
H13 H 0.6687 0.5268 -0.2910
C13 C 0.71778(12) 0.6354(3) -0.37702(9)
H14 H 0.6783 0.5958 -0.3915
C14 C 0.80769(13) 0.7443(3) -0.37050(10)
H15 H 0.8435 0.7952 -0.3799
C15 C 0.79933(13) 0.6993(3) -0.31840(11)
H16 H 0.8273 0.7137 -0.2856
C16 C 0.83200(13) 0.5233(3) -0.20037(11)
H17 H 0.8186 0.4676 -0.2328
H18 H 0.8429 0.4647 -0.1683
H19 H 0.8696 0.5771 -0.2074
C17 C 0.84805(11) 0.7002(3) -0.10393(10)
H20 H 0.8833 0.6912 -0.1279
H21 H 0.8530 0.7885 -0.0848
C18 C 0.80975(12) 0.4921(3) -0.05690(9)
H22 H 0.7705 0.4848 -0.0800
C19 C 0.88666(12) 0.4535(3) 0.00630(10)
H23 H 0.9121 0.4131 0.0365
C20 C 0.90362(12) 0.5664(3) -0.02119(10)
H24 H 0.9417 0.6181 -0.0139
C21 C 0.73391(13) 0.8375(3) -0.06726(10)
H25 H 0.7349 0.9361 -0.0713
H26 H 0.7728 0.8074 -0.0448
H27 H 0.6962 0.8114 -0.0490
Mn2F Mn 0.7500 0.7500 -0.5000
Mn2A Mn 0.2500 0.7500 0.0000
Mn2G Mn 0.2500 0.2500 0.5000
N1D N 0.52099(11) 0.3302(2) -0.05857(9)
N2D N 0.51586(11) 0.3001(3) -0.10485(11)
N3D N 0.51091(17) 0.2654(6) -0.15200(14)
N4D N 0.32014(10) 0.5845(2) 0.02225(9)
N4E N 0.82014(10) 0.0845(2) 0.02225(9)
N5D N 0.35864(9) 0.5397(2) -0.00493(8)
N6D N 0.39688(10) 0.4923(2) -0.03278(8)
N7D N 0.48222(10) 0.3446(2) 0.06622(8)
N8D N 0.43298(9) 0.2023(2) 0.11977(8)
N9D N 0.25829(10) 0.3717(2) 0.32312(8)
N10D N 0.24362(10) 0.2953(2) 0.40734(8)
N10F N 0.75638(10) 0.2953(2) 0.09266(8)
N10C N 0.74362(10) 0.2047(2) -0.09266(8)
N11D N 0.14679(9) 0.4102(2) 0.06222(8)
N12D N 0.17248(10) 0.5937(2) 0.01583(8)
N12E N 0.67248(10) 0.0937(2) 0.01583(8)
C1D C 0.32664(12) 0.2214(2) 0.16026(9)
C2D C 0.33281(12) 0.2948(3) 0.21104(10)
C3D C 0.28026(12) 0.3759(2) 0.22451(9)
C4D C 0.22271(11) 0.3823(2) 0.18886(9)
C5D C 0.21649(11) 0.3030(2) 0.13994(9)
C6D C 0.26943(12) 0.2284(2) 0.12413(9)
C7D C 0.38121(12) 0.1298(3) 0.14566(11)
H4D H 0.3632 0.0587 0.1199
H5D H 0.4003 0.0845 0.1797
C8D C 0.42786(12) 0.3168(3) 0.08875(10)
H6D H 0.3902 0.3708 0.0836
C9D C 0.52349(13) 0.2404(3) 0.08401(11)
H7D H 0.5664 0.2317 0.0751
C10D C 0.49385(12) 0.1522(3) 0.11607(11)
H8D H 0.5116 0.0718 0.1327
C11D C 0.39531(13) 0.2902(3) 0.24910(11)
H9D H 0.4155 0.3797 0.2503
H10D H 0.3862 0.2642 0.2864
H11D H 0.4243 0.2237 0.2351
C12D C 0.28564(13) 0.4530(3) 0.27933(9)
H12D H 0.2623 0.5399 0.2743
H13D H 0.3313 0.4732 0.2910
C13D C 0.28222(12) 0.3646(3) 0.37702(9)
H14D H 0.3217 0.4042 0.3915
C14D C 0.19231(13) 0.2557(3) 0.37050(10)
H15D H 0.1565 0.2048 0.3799
C15D C 0.20067(13) 0.3007(3) 0.31840(11)
H16D H 0.1727 0.2863 0.2856
C16D C 0.16800(13) 0.4767(3) 0.20037(11)
H17D H 0.1814 0.5324 0.2328
H18D H 0.1571 0.5353 0.1683
H19D H 0.1304 0.4229 0.2074
C17D C 0.15195(11) 0.2998(3) 0.10393(10)
H20D H 0.1167 0.3088 0.1279
H21D H 0.1470 0.2115 0.0848
C18D C 0.19025(12) 0.5079(3) 0.05690(9)
H22D H 0.2295 0.5152 0.0800
C19D C 0.11334(12) 0.5465(3) -0.00630(10)
H23D H 0.0879 0.5869 -0.0365
C20D C 0.09638(12) 0.4336(3) 0.02119(10)
H24D H 0.0583 0.3819 0.0139
C21D C 0.26609(13) 0.1625(3) 0.06726(10)
H25D H 0.2651 0.0639 0.0713
H26D H 0.2272 0.1926 0.0448
H27D H 0.3038 0.1886 0.0490
O1 O 0.0000 0.4454(4) 0.2500
H1 H 0.0360 0.3960 0.2488
H1B H -0.0360 0.3960 0.2512
O2 O 0.08536(13) 0.1493(3) 0.24296(13)
H2 H 0.0758 0.2517 0.2433
H3 H 0.0421 0.1155 0.2140
loop_
_geom_bond_atom_site_label_1
_geom_bond_atom_site_label_2
_geom_bond_site_symmetry_1
_geom_bond_site_symmetry_2
Mn1 N1 1_555 1_555
Mn2 N4 1_555 1_555
O1 H1 1_555 1_555
O2 H2 1_555 1_555
H3 O2 1_555 1_555
N1 N2 1_555 1_555
N2 N3 1_555 1_555
N4 N5 1_555 1_555
N5 N6 1_555 1_555
N6 Mn1 1_555 1_555
N7 Mn1 1_555 1_555
N8 C7 1_555 1_555
N9 C12 1_555 1_555
N10 C13 1_555 1_555
N11 C17 1_555 1_555
N12 Mn2 1_555 1_555
C1 C2 1_555 1_555
C2 C3 1_555 1_555
C3 C4 1_555 1_555
C4 C5 1_555 1_555
C5 C6 1_555 1_555
C6 C1 1_555 1_555
C7 C1 1_555 1_555
H4 C7 1_555 1_555
H5 C7 1_555 1_555
C8 N7 1_555 1_555
H6 C8 1_555 1_555
C9 N7 1_555 1_555
H7 C9 1_555 1_555
C10 N8 1_555 1_555
H8 C10 1_555 1_555
C11 C2 1_555 1_555
H9 C11 1_555 1_555
H10 C11 1_555 1_555
H11 C11 1_555 1_555
C12 C3 1_555 1_555
H12 C12 1_555 1_555
H13 C12 1_555 1_555
C13 N9 1_555 1_555
H14 C13 1_555 1_555
C14 N10 1_555 1_555
H15 C14 1_555 1_555
C15 N9 1_555 1_555
H16 C15 1_555 1_555
C16 C4 1_555 1_555
H17 C16 1_555 1_555
H18 C16 1_555 1_555
H19 C16 1_555 1_555
C17 C5 1_555 1_555
H20 C17 1_555 1_555
H21 C17 1_555 1_555
C18 N11 1_555 1_555
H22 C18 1_555 1_555
C19 N12 1_555 1_555
H23 C19 1_555 1_555
C20 N11 1_555 1_555
H24 C20 1_555 1_555
C21 C6 1_555 1_555
H25 C21 1_555 1_555
H26 C21 1_555 1_555
H27 C21 1_555 1_555
Mn2F N10 1_555 1_555
Mn2A N4D 1_555 1_555
Mn2G N10D 1_555 1_555
H1B O1 1_555 1_555
N1D Mn1 1_555 1_555
N2D N1D 1_555 1_555
N3D N2D 1_555 1_555
N4D N5D 1_555 1_555
N4E Mn2 1_555 1_555
N5D N6D 1_555 1_555
N6D Mn1 1_555 1_555
N7D Mn1 1_555 1_555
N8D C7D 1_555 1_555
N9D C12D 1_555 1_555
N10D C13D 1_555 1_555
N10F Mn2 1_555 1_555
N10C Mn2 1_555 1_555
N11D C17D 1_555 1_555
N12D Mn2A 1_555 1_555
N12E Mn2 1_555 1_555
C1D C2D 1_555 1_555
C2D C3D 1_555 1_555
C3D C4D 1_555 1_555
C4D C5D 1_555 1_555
C5D C6D 1_555 1_555
C6D C1D 1_555 1_555
C7D C1D 1_555 1_555
H4D C7D 1_555 1_555
H5D C7D 1_555 1_555
C8D N7D 1_555 1_555
H6D C8D 1_555 1_555
C9D N7D 1_555 1_555
H7D C9D 1_555 1_555
C10D N8D 1_555 1_555
H8D C10D 1_555 1_555
C11D C2D 1_555 1_555
H9D C11D 1_555 1_555
H10D C11D 1_555 1_555
H11D C11D 1_555 1_555
C12D C3D 1_555 1_555
H12D C12D 1_555 1_555
H13D C12D 1_555 1_555
C13D N9D 1_555 1_555
H14D C13D 1_555 1_555
C14D N10D 1_555 1_555
H15D C14D 1_555 1_555
C15D N9D 1_555 1_555
H16D C15D 1_555 1_555
C16D C4D 1_555 1_555
H17D C16D 1_555 1_555
H18D C16D 1_555 1_555
H19D C16D 1_555 1_555
C17D C5D 1_555 1_555
H20D C17D 1_555 1_555
H21D C17D 1_555 1_555
C18D N11D 1_555 1_555
H22D C18D 1_555 1_555
C19D N12D 1_555 1_555
H23D C19D 1_555 1_555
C20D N11D 1_555 1_555
H24D C20D 1_555 1_555
C21D C6D 1_555 1_555
H25D C21D 1_555 1_555
H26D C21D 1_555 1_555
H27D C21D 1_555 1_555
N8 C8 1_555 1_555
N12 C18 1_555 1_555
C9 C10 1_555 1_555
C14 C15 1_555 1_555
C19 C20 1_555 1_555
N8D C8D 1_555 1_555
N12D C18D 1_555 1_555
C9D C10D 1_555 1_555
C14D C15D 1_555 1_555
C19D C20D 1_555 1_555

#END
