
#######################################################################
#
#                 Cambridge Crystallographic Data Centre
#                                CCDC 
#
#######################################################################
#
# If this CIF has been generated from an entry in the Cambridge 
# Structural Database, then it will include bibliographic, chemical, 
# crystal, experimental, refinement or atomic coordinate data resulting 
# from the CCDC's data processing and validation procedures.
#
#######################################################################

data_GAMSOD
_symmetry_cell_setting           monoclinic
_symmetry_space_group_name_H-M   'P 21/a'
_symmetry_Int_Tables_number      14
_space_group_name_Hall           '-P 2yab'
loop_
_symmetry_equiv_pos_site_id
_symmetry_equiv_pos_as_xyz
1 x,y,z
2 1/2-x,1/2+y,-z
3 -x,-y,-z
4 1/2+x,1/2-y,z
_cell_length_a                   10.7108(1)
_cell_length_b                   13.2616(2)
_cell_length_c                   20.7926(3)
_cell_angle_alpha                90
_cell_angle_beta                 92.5034(4)
_cell_angle_gamma                90
_cell_volume                     2950.61
loop_
_atom_site_label
_atom_site_type_symbol
_atom_site_fract_x
_atom_site_fract_y
_atom_site_fract_z
Ag1 Ag 0.194705(16) 0.190070(12) 0.069066(8)
Ag2 Ag 0.098974(14) -0.005864(12) 0.401098(7)
S1 S -0.04315(5) 0.23640(4) 0.10417(2)
S2 S 0.02388(4) 0.12382(4) 0.48366(2)
N1 N 0.18394(16) 0.14170(13) 0.18023(8)
N2 N 0.13938(16) 0.05943(14) 0.30021(9)
N3 N -0.28678(16) 0.14724(13) 0.03161(8)
N4 N -0.24609(17) -0.04306(14) -0.02072(9)
N5 N 0.02829(15) 0.13805(13) 0.63712(8)
N6 N 0.19718(17) 0.28150(14) 0.68744(9)
N7 N -0.03427(16) 0.35392(13) 0.53198(9)
N8 N 0.19680(16) 0.44982(13) 0.55499(9)
C1 C 0.2536(2) 0.06710(17) 0.20541(11)
H1 H 0.319(2) 0.041(2) 0.1821(13)
C2 C 0.2312(2) 0.02525(17) 0.26456(11)
H2 H 0.278(2) -0.0305(19) 0.2812(12)
C3 C 0.0691(2) 0.13467(16) 0.27510(10)
H3 H 0.002(2) 0.1576(17) 0.2999(11)
C4 C 0.08994(18) 0.17521(15) 0.21494(10)
C5 C 0.0081(2) 0.25812(16) 0.18766(11)
H4 H -0.063(2) 0.2653(18) 0.2123(11)
H5 H 0.055(3) 0.319(2) 0.1869(14)
C6 C -0.1264(2) 0.11833(17) 0.11645(11)
H6 H -0.185(2) 0.1288(18) 0.1513(12)
H7 H -0.070(2) 0.0681(19) 0.1293(12)
C7 C -0.19792(18) 0.08596(15) 0.05634(10)
C8 C -0.1757(2) -0.00770(16) 0.02902(10)
H8 H -0.113(2) -0.0495(17) 0.0439(11)
C9 C -0.3377(2) 0.01725(17) -0.04338(11)
H9 H -0.389(3) -0.006(2) -0.0782(15)
C10 C -0.3566(2) 0.11294(18) -0.01863(11)
H10 H -0.414(2) 0.1554(19) -0.0356(12)
C11 C 0.0125(2) 0.18303(16) 0.69397(11)
H11 H -0.052(2) 0.1627(17) 0.7164(11)
C12 C 0.0958(2) 0.25471(17) 0.71857(11)
H12 H 0.082(2) 0.2851(18) 0.7571(12)
C13 C 0.21362(19) 0.23434(16) 0.63173(10)
H13 H 0.286(2) 0.2508(17) 0.6086(11)
C14 C 0.13021(18) 0.16419(15) 0.60561(10)
C15 C 0.15343(18) 0.11271(16) 0.54287(10)
H14 H 0.160(2) 0.0405(19) 0.5506(11)
H15 H 0.232(2) 0.1359(18) 0.5243(11)
C16 C 0.0532(2) 0.24749(16) 0.44890(10)
H16 H -0.016(2) 0.2607(19) 0.4203(12)
H17 H 0.128(2) 0.2435(18) 0.4242(12)
C17 C 0.06617(18) 0.32930(15) 0.49845(10)
C18 C 0.18019(19) 0.37782(16) 0.51006(10)
H18 H 0.253(2) 0.3584(19) 0.4845(12)
C19 C 0.0962(2) 0.47513(16) 0.58740(11)
H19 H 0.105(2) 0.5274(18) 0.6201(11)
C20 C -0.0181(2) 0.42715(16) 0.57553(11)
H20 H -0.086(2) 0.443(2) 0.5993(12)
Ag1C Ag -0.305295(16) 0.309930(12) 0.069066(8)
Ag1B Ag -0.194705(16) -0.190070(12) -0.069066(8)
Ag2B Ag -0.098974(14) 0.005864(12) 0.598902(7)
Ag2A Ag 0.401026(14) 0.494136(12) 0.598902(7)
N3C N 0.21322(16) 0.35276(13) 0.03161(8)
N4B N 0.24609(17) 0.04306(14) 0.02072(9)
N5B N -0.02829(15) -0.13805(13) 0.36288(8)
N8A N 0.30320(16) -0.05018(13) 0.44501(9)
C21 C 0.2223(2) -0.40746(19) 0.20530(14)
H21 H 0.2053 -0.3351 0.2087
H22 H 0.2778 -0.4193 0.1698
H23 H 0.2627 -0.4315 0.2456
N9 N 0.10392(18) -0.46226(15) 0.19284(11)
O1 O 0.08932(18) -0.50880(14) 0.14227(10)
O2 O 0.02654(18) -0.45993(15) 0.23402(11)
B1 B 0.0764(3) -0.1720(2) 0.12671(15)
F1 F 0.05912(16) -0.15917(15) 0.06095(8)
F2 F 0.20111(15) -0.16774(14) 0.14591(10)
F3 F 0.01138(16) -0.09624(13) 0.15834(9)
F4 F 0.02740(14) -0.26498(12) 0.14359(8)
B2 B 0.2349(3) 0.3709(2) 0.32540(13)
F5 F 0.25571(13) 0.36504(11) 0.26038(7)
F6 F 0.10779(13) 0.37040(12) 0.33496(8)
F7 F 0.29059(15) 0.28831(16) 0.35665(9)
F8 F 0.2861(2) 0.45831(17) 0.35007(10)
loop_
_geom_bond_atom_site_label_1
_geom_bond_atom_site_label_2
_geom_bond_site_symmetry_1
_geom_bond_site_symmetry_2
Ag1 S1 1_555 1_555
Ag2 S2 1_555 1_555
S1 C5 1_555 1_555
S2 C15 1_555 1_555
N1 Ag1 1_555 1_555
N2 Ag2 1_555 1_555
N3 C7 1_555 1_555
N4 C8 1_555 1_555
N5 C11 1_555 1_555
N6 C12 1_555 1_555
N7 C17 1_555 1_555
N8 C18 1_555 1_555
C1 N1 1_555 1_555
H1 C1 1_555 1_555
C2 N2 1_555 1_555
H2 C2 1_555 1_555
C3 N2 1_555 1_555
H3 C3 1_555 1_555
C4 N1 1_555 1_555
C5 C4 1_555 1_555
H4 C5 1_555 1_555
H5 C5 1_555 1_555
C6 S1 1_555 1_555
H6 C6 1_555 1_555
H7 C6 1_555 1_555
C7 C6 1_555 1_555
C8 C7 1_555 1_555
H8 C8 1_555 1_555
C9 N4 1_555 1_555
H9 C9 1_555 1_555
C10 N3 1_555 1_555
H10 C10 1_555 1_555
C11 H11 1_555 1_555
C12 C11 1_555 1_555
H12 C12 1_555 1_555
C13 N6 1_555 1_555
H13 C13 1_555 1_555
C14 N5 1_555 1_555
C15 C14 1_555 1_555
H14 C15 1_555 1_555
H15 C15 1_555 1_555
C16 S2 1_555 1_555
H16 C16 1_555 1_555
H17 C16 1_555 1_555
C17 C16 1_555 1_555
C18 C17 1_555 1_555
H18 C18 1_555 1_555
C19 N8 1_555 1_555
H19 C19 1_555 1_555
C20 N7 1_555 1_555
H20 C20 1_555 1_555
C21 H21 1_555 1_555
H22 C21 1_555 1_555
H23 C21 1_555 1_555
N9 C21 1_555 1_555
O1 N9 1_555 1_555
O2 N9 1_555 1_555
B1 F1 1_555 1_555
F2 B1 1_555 1_555
F3 B1 1_555 1_555
F4 B1 1_555 1_555
B2 F5 1_555 1_555
F6 B2 1_555 1_555
F7 B2 1_555 1_555
F8 B2 1_555 1_555
Ag1C N3 1_555 1_555
Ag1B N4 1_555 1_555
Ag2B N5 1_555 1_555
Ag2A N8 1_555 1_555
N3C Ag1 1_555 1_555
N4B Ag1 1_555 1_555
N5B Ag2 1_555 1_555
N8A Ag2 1_555 1_555
C1 C2 1_555 1_555
C3 C4 1_555 1_555
C9 C10 1_555 1_555
C13 C14 1_555 1_555
C19 C20 1_555 1_555

#END
