
#######################################################################
#
#                 Cambridge Crystallographic Data Centre
#                                CCDC 
#
#######################################################################
#
# If this CIF has been generated from an entry in the Cambridge 
# Structural Database, then it will include bibliographic, chemical, 
# crystal, experimental, refinement or atomic coordinate data resulting 
# from the CCDC's data processing and validation procedures.
#
#######################################################################

data_GAMSIX
_symmetry_cell_setting           monoclinic
_symmetry_space_group_name_H-M   'P 21/c'
_symmetry_Int_Tables_number      14
_space_group_name_Hall           '-P 2ybc'
loop_
_symmetry_equiv_pos_site_id
_symmetry_equiv_pos_as_xyz
1 x,y,z
2 -x,1/2+y,1/2-z
3 -x,-y,-z
4 x,1/2-y,1/2+z
_cell_length_a                   9.9188(2)
_cell_length_b                   12.8858(5)
_cell_length_c                   11.7449(4)
_cell_angle_alpha                90
_cell_angle_beta                 100.646(2)
_cell_angle_gamma                90
_cell_volume                     1475.3
loop_
_atom_site_label
_atom_site_type_symbol
_atom_site_fract_x
_atom_site_fract_y
_atom_site_fract_z
C1 C -0.0432(2) -0.13841(18) 0.25492(19)
H1 H -0.029 -0.2044 0.223
C2 C 0.0688(2) -0.08510(18) 0.31465(18)
H2 H 0.1574 -0.1153 0.3229
C3 C -0.0729(2) 0.04607(17) 0.34780(17)
H3 H -0.0871 0.112 0.3799
C4 C -0.1854(2) -0.00839(17) 0.28832(16)
C5 C -0.3274(2) 0.03552(19) 0.27606(17)
H4 H -0.3216 0.1122 0.2768
H5 H -0.3813 0.0143 0.2001
C6 C -0.4964(2) -0.12752(18) 0.33438(19)
H6 H -0.5429 -0.1165 0.2532
H7 H -0.5675 -0.1464 0.3797
C7 C -0.3988(2) -0.21709(17) 0.33757(17)
C8 C -0.3903(2) -0.27356(17) 0.23839(17)
H8 H -0.4495 -0.2561 0.1678
C9 C -0.2250(2) -0.37630(18) 0.34088(18)
H9 H -0.1626 -0.4328 0.3453
C10 C -0.2343(2) -0.32110(18) 0.44060(17)
H10 H -0.1795 -0.3417 0.5121
Ag1 Ag 0.258262(16) 0.087768(14) 0.438380(13)
N1 N -0.17016(18) -0.10078(15) 0.24049(15)
N2 N 0.05497(17) 0.00810(14) 0.36108(14)
N3 N -0.30180(18) -0.35158(14) 0.23905(14)
N4 N -0.31797(19) -0.24005(15) 0.43913(15)
S1 S -0.41776(5) -0.00633(4) 0.39026(4)
Ag1A Ag -0.258262(16) -0.412232(14) 0.061620(13)
Ag1B Ag -0.258262(16) -0.087768(14) 0.561620(13)
N3A N 0.30180(18) 0.14842(14) 0.26095(14)
N4B N 0.31797(19) 0.24005(15) 0.56087(15)
S1B S 0.41776(5) 0.00633(4) 0.60974(4)
F1 F 0.23719(17) 0.65978(19) 0.63747(13)
F2 F 0.36721(19) 0.62299(19) 0.50550(17)
F3 F 0.1475(2) 0.56827(14) 0.47709(19)
F4 F 0.20793(19) 0.69550(13) 0.36612(12)
F5 F 0.29629(18) 0.78699(15) 0.52482(16)
F6 F 0.07866(15) 0.73289(13) 0.50003(13)
P1 P 0.22244(6) 0.67649(5) 0.50184(5)
loop_
_geom_bond_atom_site_label_1
_geom_bond_atom_site_label_2
_geom_bond_site_symmetry_1
_geom_bond_site_symmetry_2
C1 H1 1_555 1_555
C2 C1 1_555 1_555
H2 C2 1_555 1_555
C3 H3 1_555 1_555
C4 C3 1_555 1_555
C5 C4 1_555 1_555
H4 C5 1_555 1_555
H5 C5 1_555 1_555
C6 H6 1_555 1_555
H7 C6 1_555 1_555
C7 C6 1_555 1_555
C8 C7 1_555 1_555
H8 C8 1_555 1_555
C9 H9 1_555 1_555
C10 C9 1_555 1_555
H10 C10 1_555 1_555
Ag1 N2 1_555 1_555
F1 P1 1_555 1_555
F2 P1 1_555 1_555
F3 P1 1_555 1_555
F4 P1 1_555 1_555
F5 P1 1_555 1_555
F6 P1 1_555 1_555
N1 C1 1_555 1_555
N2 C2 1_555 1_555
N3 C8 1_555 1_555
N4 C7 1_555 1_555
S1 C5 1_555 1_555
Ag1A N3 1_555 1_555
Ag1B N4 1_555 1_555
N3A Ag1 1_555 1_555
N4B Ag1 1_555 1_555
S1B Ag1 1_555 1_555
C3 N2 1_555 1_555
C4 N1 1_555 1_555
C6 S1 1_555 1_555
C9 N3 1_555 1_555
C10 N4 1_555 1_555
S1 Ag1B 1_555 1_555

#END
