
#######################################################################
#
#                 Cambridge Crystallographic Data Centre
#                                CCDC 
#
#######################################################################
#
# If this CIF has been generated from an entry in the Cambridge 
# Structural Database, then it will include bibliographic, chemical, 
# crystal, experimental, refinement or atomic coordinate data resulting 
# from the CCDC's data processing and validation procedures.
#
#######################################################################

data_GAMVAS
_symmetry_cell_setting           triclinic
_symmetry_space_group_name_H-M   'P -1'
_symmetry_Int_Tables_number      2
_space_group_name_Hall           '-P 1'
loop_
_symmetry_equiv_pos_site_id
_symmetry_equiv_pos_as_xyz
1 x,y,z
2 -x,-y,-z
_cell_length_a                   11.781(11)
_cell_length_b                   12.503(13)
_cell_length_c                   12.416(12)
_cell_angle_alpha                118.87(3)
_cell_angle_beta                 98.42(3)
_cell_angle_gamma                108.30(3)
_cell_volume                     1419.51
loop_
_atom_site_label
_atom_site_type_symbol
_atom_site_fract_x
_atom_site_fract_y
_atom_site_fract_z
Pr1 Pr 0.02218(2) 0.49040(2) 0.322212(19)
Pr2 Pr 0.30216(2) 0.73515(2) 0.25658(2)
O1 O -0.1049(3) 0.6093(3) 0.2668(2)
O2 O 0.1022(3) 0.6952(3) 0.3109(3)
O3 O -0.1962(3) 0.4971(3) -0.2234(2)
O4 O -0.3863(3) 0.4459(3) -0.2052(3)
O5 O -0.4588(3) 0.8694(3) 0.3374(3)
O6 O -0.5616(3) 0.8558(3) 0.1652(3)
O7 O 0.0279(3) 0.3886(2) 0.4791(2)
O8 O 0.0756(3) 0.3088(3) 0.2994(3)
O9 O 0.1683(3) -0.2196(3) 0.1318(2)
O10 O 0.0894(3) -0.3445(3) -0.0865(2)
O11 O 0.7690(3) 0.3561(3) 0.4982(2)
O12 O 0.6108(2) 0.2270(3) 0.5259(2)
O13 O -0.1892(3) 0.3295(3) 0.2766(2)
H1 H -0.2012 0.3530 0.3558
H2 H -0.2586 0.3213 0.2229
O14 O 0.3364(3) 0.9730(3) 0.4065(2)
H3 H 0.3180 1.0034 0.4767
H4 H 0.3607 1.0552 0.3967
O15 O 0.2387(3) 0.5649(3) 0.0174(3)
H5 H 0.1916 0.5544 -0.0568
H6 H 0.2954 0.5345 -0.0201
C1 C -0.1081(4) 0.8280(4) 0.2294(4)
C2 C -0.1392(4) 0.7531(4) 0.0923(4)
H7 H -0.0968 0.6990 0.0542
C3 C -0.2310(4) 0.7565(4) 0.0113(4)
C4 C -0.2907(4) 0.8374(4) 0.0682(4)
H8 H -0.3504 0.8440 0.0142
C5 C -0.2643(4) 0.9093(4) 0.2037(4)
C6 C -0.1744(4) 0.9027(4) 0.2818(4)
H9 H -0.1574 0.9505 0.3739
C7 C 0.0011(4) 0.8373(4) 0.3181(4)
H10 H 0.0063 0.8945 0.4099
H11 H 0.0812 0.8859 0.3113
C8 C -0.0023(4) 0.7052(4) 0.2942(3)
C9 C -0.2647(4) 0.6748(4) -0.1378(4)
H12 H -0.3436 0.6737 -0.1799
H13 H -0.1947 0.7201 -0.1587
C10 C -0.2847(4) 0.5317(4) -0.1932(4)
C11 C -0.3344(4) 0.9942(4) 0.2635(4)
H14 H -0.2814 1.0694 0.3565
H15 H -0.3513 1.0341 0.2145
C12 C -0.4592(4) 0.9016(4) 0.2551(4)
C13 C 0.2079(4) 0.1868(4) 0.3621(4)
C14 C 0.1525(4) 0.0718(4) 0.2344(4)
H16 H 0.0619 0.0216 0.1951
C15 C 0.2285(4) 0.0284(4) 0.1623(4)
C16 C 0.3601(4) 0.1087(4) 0.2207(4)
H17 H 0.4124 0.0815 0.1719
C17 C 0.4184(4) 0.2263(4) 0.3466(4)
C18 C 0.3401(4) 0.2640(4) 0.4192(4)
H18 H 0.3778 0.3422 0.5073
C19 C 0.1219(4) 0.2332(4) 0.4359(4)
H19 H 0.0486 0.1520 0.4157
H20 H 0.1709 0.2898 0.5317
C20 C 0.0718(4) 0.3133(4) 0.4020(4)
C21 C 0.1679(4) -0.1016(4) 0.0261(4)
H21 H 0.2257 -0.0957 -0.0234
H22 H 0.0867 -0.1097 -0.0205
C22 C 0.1401(4) -0.2298(4) 0.0249(4)
C23 C 0.5610(4) 0.3198(5) 0.4047(4)
H23 H 0.5883 0.3152 0.3316
H24 H 0.5731 0.4141 0.4641
C24 C 0.6515(4) 0.2964(4) 0.4803(4)
Pr1A Pr -0.02218(2) 0.50960(2) -0.322212(19)
Pr1A_2 Pr -0.02218(2) 0.50960(2) 0.677788(19)
Pr1A_3 Pr -0.02218(2) -0.49040(2) -0.322212(19)
Pr1A_4 Pr 0.97782(2) 0.50960(2) 0.677788(19)
Pr2A Pr -0.30216(2) 0.26485(2) -0.25658(2)
Pr2_2 Pr -0.69784(2) 0.73515(2) 0.25658(2)
Pr2_3 Pr 0.30216(2) -0.26485(2) 0.25658(2)
Pr2A_2 Pr 0.69784(2) 0.26485(2) 0.74342(2)
O3A O 0.1962(3) 0.5029(3) 0.2234(2)
O4A O 0.3863(3) 0.5541(3) 0.2052(3)
O5_2 O 0.5412(3) 0.8694(3) 0.3374(3)
O6_2 O 0.4384(3) 0.8558(3) 0.1652(3)
O7A O -0.0279(3) 0.6114(2) 0.5209(2)
O9_2 O 0.1683(3) 0.7804(3) 0.1318(2)
O10A O -0.0894(3) 0.3445(3) 0.0865(2)
O11A O 0.2310(3) 0.6439(3) 0.5018(2)
O12A O 0.3892(2) 0.7730(3) 0.4741(2)
O16 O 0.6096(4) 0.5232(4) 0.1651(4)
O17 O 0.5984(3) 0.2691(4) 0.1016(3)
loop_
_geom_bond_atom_site_label_1
_geom_bond_atom_site_label_2
_geom_bond_site_symmetry_1
_geom_bond_site_symmetry_2
Pr1 O1 1_555 1_555
Pr2 O2 1_555 1_555
O1 C8 1_555 1_555
O2 Pr1 1_555 1_555
O3 C10 1_555 1_555
O4 C10 1_555 1_555
O5 C12 1_555 1_555
O6 C12 1_555 1_555
O7 Pr1 1_555 1_555
O8 Pr1 1_555 1_555
O9 C22 1_555 1_555
O10 C22 1_555 1_555
O11 C24 1_555 1_555
O12 C24 1_555 1_555
O13 Pr1 1_555 1_555
H1 O13 1_555 1_555
H2 O13 1_555 1_555
O14 Pr2 1_555 1_555
H3 O14 1_555 1_555
H4 O14 1_555 1_555
O15 Pr2 1_555 1_555
H5 O15 1_555 1_555
H6 O15 1_555 1_555
C1 C2 1_555 1_555
C2 H7 1_555 1_555
C3 C2 1_555 1_555
C4 C3 1_555 1_555
H8 C4 1_555 1_555
C5 C4 1_555 1_555
C6 C1 1_555 1_555
H9 C6 1_555 1_555
C7 C1 1_555 1_555
H10 C7 1_555 1_555
H11 C7 1_555 1_555
C8 O2 1_555 1_555
C9 C3 1_555 1_555
H12 C9 1_555 1_555
H13 C9 1_555 1_555
C10 C9 1_555 1_555
C11 C5 1_555 1_555
H14 C11 1_555 1_555
H15 C11 1_555 1_555
C12 C11 1_555 1_555
C13 C14 1_555 1_555
C14 H16 1_555 1_555
C15 C14 1_555 1_555
C16 C15 1_555 1_555
H17 C16 1_555 1_555
C17 C16 1_555 1_555
C18 C13 1_555 1_555
H18 C18 1_555 1_555
C19 C13 1_555 1_555
H19 C19 1_555 1_555
H20 C19 1_555 1_555
C20 O7 1_555 1_555
C21 C15 1_555 1_555
H21 C21 1_555 1_555
H22 C21 1_555 1_555
C22 C21 1_555 1_555
C23 C17 1_555 1_555
H23 C23 1_555 1_555
H24 C23 1_555 1_555
C24 C23 1_555 1_555
Pr1A O3 1_555 1_555
Pr1A_2 O7 1_555 1_555
Pr1A_3 O10 1_555 1_555
Pr1A_4 O11 1_555 1_555
Pr2A O3 1_555 1_555
Pr2_2 O5 1_555 1_555
Pr2_3 O9 1_555 1_555
Pr2A_2 O12 1_555 1_555
O3A Pr1 1_555 1_555
O4A Pr2 1_555 1_555
O5_2 Pr2 1_555 1_555
O6_2 Pr2 1_555 1_555
O7A Pr1 1_555 1_555
O9_2 Pr2 1_555 1_555
O10A Pr1 1_555 1_555
O11A Pr1 1_555 1_555
O12A Pr2 1_555 1_555
Pr2 O3A 1_555 1_555
O4 Pr2A 1_555 1_555
O6 Pr2_2 1_555 1_555
O8 C20 1_555 1_555
C5 C6 1_555 1_555
C7 C8 1_555 1_555
C17 C18 1_555 1_555
C19 C20 1_555 1_555
Pr1A_2 O7A 1_555 1_555

#END
