
#######################################################################
#
#                 Cambridge Crystallographic Data Centre
#                                CCDC 
#
#######################################################################
#
# If this CIF has been generated from an entry in the Cambridge 
# Structural Database, then it will include bibliographic, chemical, 
# crystal, experimental, refinement or atomic coordinate data resulting 
# from the CCDC's data processing and validation procedures.
#
#######################################################################

data_GAMVOF
_symmetry_cell_setting           triclinic
_symmetry_space_group_name_H-M   'P -1'
_symmetry_Int_Tables_number      2
_space_group_name_Hall           '-P 1'
loop_
_symmetry_equiv_pos_site_id
_symmetry_equiv_pos_as_xyz
1 x,y,z
2 -x,-y,-z
_cell_length_a                   3.918(3)
_cell_length_b                   9.371(3)
_cell_length_c                   11.162(5)
_cell_angle_alpha                67.89(3)
_cell_angle_beta                 84.40(4)
_cell_angle_gamma                76.84(4)
_cell_volume                     369.679
loop_
_atom_site_label
_atom_site_type_symbol
_atom_site_fract_x
_atom_site_fract_y
_atom_site_fract_z
Cd1 Cd 0.5000 0.5000 0.50000
N1 N -0.2703(9) 0.9780(4) 0.4009(3)
C1 C -0.255(1) 1.0999(4) 0.2869(4)
N2 N -0.053(1) 1.0978(4) 0.1858(4)
C2 C 0.146(1) 0.9544(4) 0.2011(4)
C3 C 0.1482(9) 0.8217(4) 0.3161(3)
C4 C -0.0700(9) 0.8324(4) 0.4183(4)
S1 S -0.0808(2) 0.6761(1) 0.56225(9)
N3 N 0.3832(8) 0.6958(4) 0.3023(3)
C5 C 0.518(1) 0.7534(5) 0.1839(4)
N4 N 0.382(1) 0.9085(4) 0.1181(3)
H1 H -0.41(2) 1.199(7) 0.309(6)
H2 H 0.73(2) 0.687(7) 0.173(6)
H3 H 0.48(2) 0.941(7) 0.062(6)
N1_2 N 0.7297(9) 0.9780(4) 0.4009(3)
C1_2 C 0.745(1) 1.0999(4) 0.2869(4)
N2_2 N 0.947(1) 1.0978(4) 0.1858(4)
C2_2 C 1.146(1) 0.9544(4) 0.2011(4)
C3_2 C 1.1482(9) 0.8217(4) 0.3161(3)
C4_2 C 0.9300(9) 0.8324(4) 0.4183(4)
S1_2 S 0.9192(2) 0.6761(1) 0.56225(9)
N3_2 N 1.3832(8) 0.6958(4) 0.3023(3)
C5_2 C 1.518(1) 0.7534(5) 0.1839(4)
N4_2 N 1.382(1) 0.9085(4) 0.1181(3)
H1_2 H 0.59(2) 1.199(7) 0.309(6)
H2_2 H 1.73(2) 0.687(7) 0.173(6)
H3_2 H 1.48(2) 0.941(7) 0.062(6)
S1A S 0.0808(2) 0.3239(1) 0.43775(9)
S1A_2 S 1.0808(2) 0.3239(1) 0.43775(9)
N3A N 0.6168(8) 0.3042(4) 0.6977(3)
Cd1_2 Cd -0.5000 0.5000 0.50000
Cd1_3 Cd 1.5000 0.5000 0.50000
O1 O 0.188(2) 0.5889(6) 0.0142(6)
loop_
_geom_bond_atom_site_label_1
_geom_bond_atom_site_label_2
_geom_bond_site_symmetry_1
_geom_bond_site_symmetry_2
Cd1 S1 1_555 1_555
N1 C1 1_555 1_555
C1 N2 1_555 1_555
N2 C2 1_555 1_555
C2 C3 1_555 1_555
C3 C4 1_555 1_555
C4 N1 1_555 1_555
S1 C4 1_555 1_555
N3 Cd1 1_555 1_555
C5 N3 1_555 1_555
N4 C2 1_555 1_555
H1 C1 1_555 1_555
H2 C5 1_555 1_555
H3 N4 1_555 1_555
N1_2 C1_2 1_555 1_555
C1_2 N2_2 1_555 1_555
N2_2 C2_2 1_555 1_555
C2_2 C3_2 1_555 1_555
C3_2 C4_2 1_555 1_555
C4_2 N1_2 1_555 1_555
S1_2 Cd1 1_555 1_555
N3_2 C3_2 1_555 1_555
C5_2 N3_2 1_555 1_555
N4_2 C2_2 1_555 1_555
H1_2 C1_2 1_555 1_555
H2_2 C5_2 1_555 1_555
H3_2 N4_2 1_555 1_555
S1A Cd1 1_555 1_555
S1A_2 Cd1 1_555 1_555
N3A Cd1 1_555 1_555
Cd1_2 S1 1_555 1_555
Cd1_3 S1_2 1_555 1_555
C3 N3 1_555 1_555
C5 N4 1_555 1_555
C4_2 S1_2 1_555 1_555
N3_2 Cd1_3 1_555 1_555
C5_2 N4_2 1_555 1_555
S1A Cd1_2 1_555 1_555
S1A_2 Cd1_3 1_555 1_555

#END
