
#######################################################################
#
#                 Cambridge Crystallographic Data Centre
#                                CCDC 
#
#######################################################################
#
# If this CIF has been generated from an entry in the Cambridge 
# Structural Database, then it will include bibliographic, chemical, 
# crystal, experimental, refinement or atomic coordinate data resulting 
# from the CCDC's data processing and validation procedures.
#
#######################################################################

data_GAMVUM
_symmetry_cell_setting           orthorhombic
_symmetry_space_group_name_H-M   'P c c n'
_symmetry_Int_Tables_number      56
_space_group_name_Hall           '-P 2ab 2ac'
loop_
_symmetry_equiv_pos_site_id
_symmetry_equiv_pos_as_xyz
1 x,y,z
2 1/2-x,1/2-y,z
3 -x,1/2+y,1/2-z
4 1/2+x,-y,1/2-z
5 -x,-y,-z
6 1/2+x,1/2+y,-z
7 x,1/2-y,1/2+z
8 1/2-x,y,1/2+z
_cell_length_a                   18.4371(3)
_cell_length_b                   21.3954(4)
_cell_length_c                   7.20880(10)
_cell_angle_alpha                90
_cell_angle_beta                 90
_cell_angle_gamma                90
_cell_volume                     2843.65
loop_
_atom_site_label
_atom_site_type_symbol
_atom_site_fract_x
_atom_site_fract_y
_atom_site_fract_z
Cu1 Cu 0.230248(16) 0.426461(15) 0.40605(5)
N1 N 0.14940(11) 0.36610(10) 0.4735(3)
N2 N 0.14277(10) 0.48002(10) 0.3421(3)
N3 N 0.30292(13) 0.37288(12) 0.5184(4)
N4 N 0.36668(14) 0.37931(11) 0.4958(3)
N5 N 0.42849(15) 0.38368(14) 0.4835(4)
N6 N 0.29209(12) 0.47265(11) 0.2344(3)
N7 N 0.35109(13) 0.49532(12) 0.2497(3)
N8 N 0.40755(15) 0.51863(16) 0.2497(4)
C1 C 0.15516(16) 0.31007(13) 0.5518(4)
H1 H 0.2010 0.2948 0.5804
C2 C 0.09549(17) 0.27392(14) 0.5918(4)
H2 H 0.1012 0.2349 0.6465
C3 C 0.02763(17) 0.29586(14) 0.5507(4)
H3 H -0.0132 0.2719 0.5763
C4 C 0.02071(15) 0.35425(14) 0.4703(4)
H4 H -0.0248 0.3703 0.4413
C5 C 0.08267(14) 0.38809(12) 0.4342(3)
C6 C 0.08221(14) 0.45222(13) 0.3620(3)
H5 H 0.0389 0.4720 0.3316
C7 C 0.14460(13) 0.54461(12) 0.2897(3)
C8 C 0.19654(14) 0.58246(12) 0.3722(3)
H6 H 0.2300 0.5652 0.4540
C9 C 0.19863(14) 0.64531(13) 0.3334(4)
H7 H 0.2332 0.6709 0.3888
C10 C 0.14856(14) 0.67001(12) 0.2106(4)
C11 C 0.09806(15) 0.63313(13) 0.1253(4)
H8 H 0.0656 0.6504 0.0407
C12 C 0.09562(14) 0.56983(13) 0.1657(4)
H9 H 0.0611 0.5444 0.1095
Cl1 Cl 0.14894(4) 0.75026(4) 0.16755(12)
Cu1G Cu 0.269752(16) 0.426461(15) -0.09395(5)
N6G N 0.20791(12) 0.47265(11) 0.7344(3)
loop_
_geom_bond_atom_site_label_1
_geom_bond_atom_site_label_2
_geom_bond_site_symmetry_1
_geom_bond_site_symmetry_2
Cu1 N1 1_555 1_555
N1 C1 1_555 1_555
N2 Cu1 1_555 1_555
N3 Cu1 1_555 1_555
N4 N3 1_555 1_555
N5 N4 1_555 1_555
N6 Cu1 1_555 1_555
N7 N6 1_555 1_555
N8 N7 1_555 1_555
C1 H1 1_555 1_555
C2 C1 1_555 1_555
H2 C2 1_555 1_555
C3 C2 1_555 1_555
H3 C3 1_555 1_555
C4 C3 1_555 1_555
H4 C4 1_555 1_555
C5 N1 1_555 1_555
C6 N2 1_555 1_555
H5 C6 1_555 1_555
C7 N2 1_555 1_555
C8 C7 1_555 1_555
H6 C8 1_555 1_555
C9 C8 1_555 1_555
H7 C9 1_555 1_555
C10 C9 1_555 1_555
C11 C10 1_555 1_555
H8 C11 1_555 1_555
C12 C7 1_555 1_555
H9 C12 1_555 1_555
Cl1 C10 1_555 1_555
Cu1G N6 1_555 1_555
N6G Cu1 1_555 1_555
C4 C5 1_555 1_555
C5 C6 1_555 1_555
C11 C12 1_555 1_555

#END
