
#######################################################################
#
#                 Cambridge Crystallographic Data Centre
#                                CCDC 
#
#######################################################################
#
# If this CIF has been generated from an entry in the Cambridge 
# Structural Database, then it will include bibliographic, chemical, 
# crystal, experimental, refinement or atomic coordinate data resulting 
# from the CCDC's data processing and validation procedures.
#
#######################################################################

data_GAMWOH
_symmetry_cell_setting           monoclinic
_symmetry_space_group_name_H-M   'P 21/c'
_symmetry_Int_Tables_number      14
_space_group_name_Hall           '-P 2ybc'
loop_
_symmetry_equiv_pos_site_id
_symmetry_equiv_pos_as_xyz
1 x,y,z
2 -x,1/2+y,1/2-z
3 -x,-y,-z
4 x,1/2-y,1/2+z
_cell_length_a                   9.5205(16)
_cell_length_b                   13.338(2)
_cell_length_c                   7.4575(12)
_cell_angle_alpha                90
_cell_angle_beta                 107.993(4)
_cell_angle_gamma                90
_cell_volume                     900.673
loop_
_atom_site_label
_atom_site_type_symbol
_atom_site_fract_x
_atom_site_fract_y
_atom_site_fract_z
Mn1 Mn 0.0000 0.5000 0.5000
N1 N 0.1578(3) 0.3688(2) 0.5667(4)
N2 N 0.1402(3) 0.5744(2) 0.3503(4)
N3 N 0.1288(3) 0.5723(2) -0.2324(4)
N4 N 0.2309(3) 0.6278(2) 0.0941(4)
C1 C 0.1117(4) 0.2746(3) 0.5428(5)
H1 H 0.0106 0.2630 0.4951
C2 C 0.2039(4) 0.1932(3) 0.5843(5)
H2 H 0.1644 0.1288 0.5653
C3 C 0.3528(5) 0.2058(3) 0.6531(5)
C4 C 0.4590(4) 0.1185(3) 0.7001(6)
H3 H 0.4047 0.0568 0.6717
H4 H 0.5140 0.1202 0.8318
H5 H 0.5258 0.1230 0.6268
C5 C 0.4009(4) 0.3033(3) 0.6776(5)
H6 H 0.5015 0.3167 0.7248
C6 C 0.3022(4) 0.3811(3) 0.6332(5)
H7 H 0.3390 0.4461 0.6509
C7 C 0.1779(4) 0.5972(2) 0.2260(5)
C8 C 0.1713(4) 0.5954(3) -0.0780(5)
Mn1_2 Mn 0.0000 0.5000 -0.5000
Mn1_3 Mn 0.0000 0.5000 1.5000
N1B N -0.1578(3) 0.6312(2) 0.4333(4)
N2B N -0.1402(3) 0.4256(2) 0.6497(4)
N3B N -0.1288(3) 0.4277(2) 1.2324(4)
N3_2 N 0.1288(3) 0.5723(2) 0.7676(4)
N3B_2 N -0.1288(3) 0.4277(2) 0.2324(4)
N4B N -0.2309(3) 0.3722(2) 0.9059(4)
C1B C -0.1117(4) 0.7254(3) 0.4572(5)
H1B H -0.0106 0.7370 0.5049
C2B C -0.2039(4) 0.8068(3) 0.4157(5)
H2B H -0.1644 0.8712 0.4347
C3B C -0.3528(5) 0.7942(3) 0.3469(5)
C4B C -0.4590(4) 0.8815(3) 0.2999(6)
H3B H -0.4047 0.9432 0.3283
H4B H -0.5140 0.8798 0.1682
H5B H -0.5258 0.8770 0.3732
C5B C -0.4009(4) 0.6967(3) 0.3224(5)
H6B H -0.5015 0.6833 0.2752
C6B C -0.3022(4) 0.6189(3) 0.3668(5)
H7B H -0.3390 0.5539 0.3491
C7B C -0.1779(4) 0.4028(2) 0.7740(5)
C8B C -0.1713(4) 0.4046(3) 1.0780(5)
loop_
_geom_bond_atom_site_label_1
_geom_bond_atom_site_label_2
_geom_bond_site_symmetry_1
_geom_bond_site_symmetry_2
Mn1 N1 1_555 1_555
N1 C1 1_555 1_555
N2 Mn1 1_555 1_555
N3 C8 1_555 1_555
N4 C7 1_555 1_555
C1 H1 1_555 1_555
C2 C1 1_555 1_555
H2 C2 1_555 1_555
C3 C2 1_555 1_555
C4 C3 1_555 1_555
H3 C4 1_555 1_555
H4 C4 1_555 1_555
H5 C4 1_555 1_555
C5 C3 1_555 1_555
H6 C5 1_555 1_555
C6 N1 1_555 1_555
H7 C6 1_555 1_555
C7 N2 1_555 1_555
C8 N4 1_555 1_555
Mn1_2 N3 1_555 1_555
Mn1_3 N3B 1_555 1_555
N1B Mn1 1_555 1_555
N2B Mn1 1_555 1_555
N3B C8B 1_555 1_555
N3_2 Mn1 1_555 1_555
N3B_2 Mn1 1_555 1_555
N4B C7B 1_555 1_555
C1B N1B 1_555 1_555
H1B C1B 1_555 1_555
C2B C1B 1_555 1_555
H2B C2B 1_555 1_555
C3B C2B 1_555 1_555
C4B C3B 1_555 1_555
H3B C4B 1_555 1_555
H4B C4B 1_555 1_555
H5B C4B 1_555 1_555
C5B C3B 1_555 1_555
H6B C5B 1_555 1_555
C6B N1B 1_555 1_555
H7B C6B 1_555 1_555
C7B N2B 1_555 1_555
C8B N4B 1_555 1_555
C5 C6 1_555 1_555
C5B C6B 1_555 1_555

#END
