
#######################################################################
#
#                 Cambridge Crystallographic Data Centre
#                                CCDC 
#
#######################################################################
#
# If this CIF has been generated from an entry in the Cambridge 
# Structural Database, then it will include bibliographic, chemical, 
# crystal, experimental, refinement or atomic coordinate data resulting 
# from the CCDC's data processing and validation procedures.
#
#######################################################################

data_GAMXUO
_symmetry_cell_setting           monoclinic
_symmetry_space_group_name_H-M   'P 21'
_symmetry_Int_Tables_number      4
_space_group_name_Hall           'P 2yb'
loop_
_symmetry_equiv_pos_site_id
_symmetry_equiv_pos_as_xyz
1 x,y,z
2 -x,1/2+y,-z
_cell_length_a                   12.432(2)
_cell_length_b                   16.167(2)
_cell_length_c                   15.208(3)
_cell_angle_alpha                90
_cell_angle_beta                 105.025(4)
_cell_angle_gamma                90
_cell_volume                     2952.13
loop_
_atom_site_label
_atom_site_type_symbol
_atom_site_fract_x
_atom_site_fract_y
_atom_site_fract_z
Ag1 Ag 0.61403(3) 0.29864(5) 0.96522(3)
Ag2 Ag 0.62376(3) 0.21630(5) 0.46799(3)
O1 O 0.5882(3) 0.2036(2) 0.6046(3)
O2 O 0.7109(3) 0.3015(3) 0.6214(3)
O3 O 0.5683(3) 0.3097(3) 1.0979(3)
O4 O 0.6782(3) 0.2034(3) 1.1103(3)
N1 N 0.5509(3) 0.2073(3) 0.8522(3)
N2 N 0.7090(3) 0.3569(3) 0.8746(4)
N3 N 0.6477(3) 0.2570(3) 0.6559(3)
N4 N 0.5459(3) 0.3044(3) 1.3513(3)
N5 N 0.7016(3) 0.1560(2) 1.3677(3)
N6 N 0.6245(4) 0.2517(3) 1.1471(3)
C1 C 0.6413(4) 0.2669(3) 0.7440(4)
C2 C 0.5720(4) 0.2058(3) 0.7758(4)
C3 C 0.7078(4) 0.3311(3) 0.7927(4)
C4 C 0.4900(4) 0.1374(3) 0.8727(4)
C5 C 0.5453(4) 0.0633(3) 0.8989(4)
C6 C 0.4814(5) -0.0024(4) 0.9224(5)
C7 C 0.3753(5) 0.0073(3) 0.9218(5)
C8 C 0.3210(5) 0.0813(4) 0.8982(5)
C9 C 0.3782(5) 0.1506(3) 0.8758(5)
C10 C 0.6676(5) 0.0486(3) 0.9047(5)
C11 C 0.6857(5) -0.0202(4) 0.8408(4)
C12 C 0.7378(5) 0.0316(4) 1.0019(5)
C13 C 0.3215(4) 0.2313(4) 0.8522(4)
C14 C 0.2248(5) 0.2263(4) 0.7671(5)
C15 C 0.2850(7) 0.2661(4) 0.9343(6)
C16 C 0.7853(4) 0.4220(3) 0.9132(4)
C17 C 0.7599(5) 0.5049(3) 0.8858(5)
C18 C 0.8329(5) 0.5664(3) 0.9256(4)
C19 C 0.9276(5) 0.5477(3) 0.9916(5)
C20 C 0.9482(4) 0.4678(3) 1.0226(4)
C21 C 0.8791(4) 0.4044(3) 0.9846(3)
C22 C 0.6537(5) 0.5270(3) 0.8121(4)
C23 C 0.6748(5) 0.5388(4) 0.7192(4)
C24 C 0.5972(5) 0.6040(4) 0.8389(5)
C25 C 0.9070(4) 0.3157(3) 1.0196(4)
C26 C 1.0144(5) 0.2895(4) 0.9983(6)
C27 C 0.9132(5) 0.3117(3) 1.1193(4)
C28 C 0.6243(4) 0.2442(3) 1.2372(4)
C29 C 0.5618(4) 0.3025(4) 1.2706(3)
C30 C 0.6940(4) 0.1794(3) 1.2857(4)
C31 C 0.4858(4) 0.3732(3) 1.3771(4)
C32 C 0.3765(4) 0.3624(3) 1.3782(4)
C33 C 0.3216(5) 0.4277(3) 1.4052(4)
C34 C 0.3719(5) 0.5037(3) 1.4275(5)
C35 C 0.4844(5) 0.5132(3) 1.4258(5)
C36 C 0.5410(4) 0.4505(3) 1.3993(4)
C37 C 0.3190(4) 0.2774(3) 1.3564(4)
C38 C 0.2960(6) 0.2393(4) 1.4413(5)
C39 C 0.2135(5) 0.2865(4) 1.2814(5)
C40 C 0.6640(5) 0.4613(4) 1.4020(5)
C41 C 0.7309(6) 0.4785(5) 1.4989(5)
C42 C 0.6784(5) 0.5320(5) 1.3413(6)
C43 C 0.7846(4) 0.0919(3) 1.4036(4)
C44 C 0.8871(4) 0.1191(3) 1.4588(4)
C45 C 0.9643(4) 0.0578(3) 1.4986(4)
C46 C 0.9406(5) -0.0257(4) 1.4809(5)
C47 C 0.8415(5) -0.0487(4) 1.4232(5)
C48 C 0.7576(4) 0.0094(3) 1.3819(4)
C49 C 0.9131(4) 0.2106(3) 1.4737(3)
C50 C 0.9581(5) 0.2435(3) 1.3960(4)
C51 C 0.9935(5) 0.2311(3) 1.5629(4)
C52 C 0.6502(5) -0.0194(4) 1.3192(4)
C53 C 0.6624(6) -0.0299(3) 1.2215(5)
C54 C 0.5988(5) -0.0963(4) 1.3494(5)
H1 H 0.5413 0.1618 0.7357
H2 H 0.7546 0.3598 0.7626
H3 H 0.5173 -0.0542 0.9385
H4 H 0.3351 -0.0385 0.9361
H5 H 0.2456 0.0883 0.8997
H6 H 0.6979 0.0970 0.8849
H7 H 0.6937 -0.0699 0.8753
H8 H 0.7498 -0.0122 0.8187
H9 H 0.6215 -0.0240 0.7909
H10 H 0.7643 0.0814 1.0333
H11 H 0.7990 -0.0034 1.0014
H12 H 0.6896 0.0042 1.0319
H13 H 0.3744 0.2690 0.8399
H14 H 0.2514 0.2397 0.7156
H15 H 0.1686 0.2646 0.7719
H16 H 0.1947 0.1720 0.7603
H17 H 0.2117 0.2474 0.9312
H18 H 0.2855 0.3248 0.9313
H19 H 0.3340 0.2485 0.9900
H20 H 0.8213 0.6209 0.9016
H21 H 0.9762 0.5906 1.0206
H22 H 1.0125 0.4554 1.0702
H23 H 0.6055 0.4806 0.8066
H24 H 0.6915 0.5954 0.7122
H25 H 0.6112 0.5233 0.6724
H26 H 0.7365 0.5057 0.7153
H27 H 0.5469 0.5832 0.8711
H28 H 0.5574 0.6361 0.7886
H29 H 0.6518 0.6375 0.8783
H30 H 0.8501 0.2796 0.9871
H31 H 1.0007 0.2642 0.9400
H32 H 1.0519 0.2514 1.0435
H33 H 1.0593 0.3372 0.9998
H34 H 0.9878 0.3216 1.1532
H35 H 0.8911 0.2579 1.1325
H36 H 0.8655 0.3516 1.1354
H37 H 0.5295 0.3458 1.2300
H38 H 0.7403 0.1523 1.2539
H39 H 0.2458 0.4211 1.4057
H40 H 0.3323 0.5486 1.4446
H41 H 0.5208 0.5642 1.4452
H42 H 0.3676 0.2422 1.3346
H43 H 0.3593 0.2080 1.4717
H44 H 0.2321 0.2046 1.4273
H45 H 0.2849 0.2832 1.4797
H46 H 0.1545 0.2946 1.3096
H47 H 0.2000 0.2377 1.2454
H48 H 0.2177 0.3326 1.2437
H49 H 0.6882 0.4106 1.3819
H50 H 0.7359 0.5364 1.5097
H51 H 0.8033 0.4566 1.5047
H52 H 0.6984 0.4528 1.5419
H53 H 0.6742 0.5088 1.2831
H54 H 0.7497 0.5562 1.3649
H55 H 0.6226 0.5732 1.3359
H56 H 1.0339 0.0733 1.5380
H57 H 0.9943 -0.0672 1.5048
H58 H 0.8231 -0.1058 1.4164
H59 H 0.8459 0.2390 1.4726
H60 H 1.0369 0.2378 1.4118
H61 H 0.9389 0.3002 1.3858
H62 H 0.9268 0.2129 1.3421
H63 H 0.9557 0.2398 1.6091
H64 H 1.0340 0.2795 1.5563
H65 H 1.0435 0.1859 1.5795
H66 H 0.5958 0.0221 1.3178
H67 H 0.6453 0.0203 1.1884
H68 H 0.6128 -0.0721 1.1920
H69 H 0.7368 -0.0457 1.2241
H70 H 0.6261 -0.1391 1.3182
H71 H 0.5198 -0.0950 1.3298
H72 H 0.6215 -0.1064 1.4131
Ag2_2 Ag 0.62376(3) 0.21630(5) 1.46799(3)
N4_2 N 0.5459(3) 0.3044(3) 0.3513(3)
N5_2 N 0.7016(3) 0.1560(2) 0.3677(3)
Cl1 Cl 0.9676(2) 0.39891(11) 0.7275(1)
Cl2 Cl 1.0221(2) 0.57345(11) 0.7540(2)
C55 C 1.0248(5) 0.4773(3) 0.8020(4)
H73 H 0.9822 0.4804 0.8456
H74 H 1.0996 0.4632 0.8318
Cl3 Cl 1.0118(5) 0.0137(2) 0.7376(2)
Cl4 Cl 0.8956(2) 0.15403(13) 0.7856(2)
C56 C 0.8917(7) 0.0664(6) 0.7124(5)
H75 H 0.8726 0.0839 0.6506
H76 H 0.8358 0.0303 0.7222
loop_
_geom_bond_atom_site_label_1
_geom_bond_atom_site_label_2
_geom_bond_site_symmetry_1
_geom_bond_site_symmetry_2
Ag1 O3 1_555 1_555
Ag2 O1 1_555 1_555
Cl1 C55 1_555 1_555
Cl2 C55 1_555 1_555
Cl3 C56 1_555 1_555
Cl4 C56 1_555 1_555
O1 N3 1_555 1_555
O2 N3 1_555 1_555
O3 N6 1_555 1_555
O4 Ag1 1_555 1_555
N1 Ag1 1_555 1_555
N2 Ag1 1_555 1_555
N3 C1 1_555 1_555
N4 C29 1_555 1_555
N5 C30 1_555 1_555
N6 O4 1_555 1_555
C1 C2 1_555 1_555
C2 N1 1_555 1_555
C3 N2 1_555 1_555
C4 N1 1_555 1_555
C5 C4 1_555 1_555
C6 C5 1_555 1_555
C7 C6 1_555 1_555
C8 C7 1_555 1_555
C9 C4 1_555 1_555
C10 C5 1_555 1_555
C11 C10 1_555 1_555
C12 C10 1_555 1_555
C13 C9 1_555 1_555
C14 C13 1_555 1_555
C15 C13 1_555 1_555
C16 N2 1_555 1_555
C17 C16 1_555 1_555
C18 C17 1_555 1_555
C19 C18 1_555 1_555
C20 C19 1_555 1_555
C21 C16 1_555 1_555
C22 C17 1_555 1_555
C23 C22 1_555 1_555
C24 C22 1_555 1_555
C25 C21 1_555 1_555
C26 C25 1_555 1_555
C27 C25 1_555 1_555
C28 N6 1_555 1_555
C29 C28 1_555 1_555
C30 C28 1_555 1_555
C31 N4 1_555 1_555
C32 C31 1_555 1_555
C33 C32 1_555 1_555
C34 C33 1_555 1_555
C35 C34 1_555 1_555
C36 C31 1_555 1_555
C37 C32 1_555 1_555
C38 C37 1_555 1_555
C39 C37 1_555 1_555
C40 C36 1_555 1_555
C41 C40 1_555 1_555
C42 C40 1_555 1_555
C43 N5 1_555 1_555
C44 C43 1_555 1_555
C45 C44 1_555 1_555
C46 C45 1_555 1_555
C47 C46 1_555 1_555
C48 C43 1_555 1_555
C49 C44 1_555 1_555
C50 C49 1_555 1_555
C51 C49 1_555 1_555
C52 C48 1_555 1_555
C53 C52 1_555 1_555
C54 C52 1_555 1_555
C55 H73 1_555 1_555
C56 H75 1_555 1_555
H1 C2 1_555 1_555
H2 C3 1_555 1_555
H3 C6 1_555 1_555
H4 C7 1_555 1_555
H5 C8 1_555 1_555
H6 C10 1_555 1_555
H7 C11 1_555 1_555
H8 C11 1_555 1_555
H9 C11 1_555 1_555
H10 C12 1_555 1_555
H11 C12 1_555 1_555
H12 C12 1_555 1_555
H13 C13 1_555 1_555
H14 C14 1_555 1_555
H15 C14 1_555 1_555
H16 C14 1_555 1_555
H17 C15 1_555 1_555
H18 C15 1_555 1_555
H19 C15 1_555 1_555
H20 C18 1_555 1_555
H21 C19 1_555 1_555
H22 C20 1_555 1_555
H23 C22 1_555 1_555
H24 C23 1_555 1_555
H25 C23 1_555 1_555
H26 C23 1_555 1_555
H27 C24 1_555 1_555
H28 C24 1_555 1_555
H29 C24 1_555 1_555
H30 C25 1_555 1_555
H31 C26 1_555 1_555
H32 C26 1_555 1_555
H33 C26 1_555 1_555
H34 C27 1_555 1_555
H35 C27 1_555 1_555
H36 C27 1_555 1_555
H37 C29 1_555 1_555
H38 C30 1_555 1_555
H39 C33 1_555 1_555
H40 C34 1_555 1_555
H41 C35 1_555 1_555
H42 C37 1_555 1_555
H43 C38 1_555 1_555
H44 C38 1_555 1_555
H45 C38 1_555 1_555
H46 C39 1_555 1_555
H47 C39 1_555 1_555
H48 C39 1_555 1_555
H49 C40 1_555 1_555
H50 C41 1_555 1_555
H51 C41 1_555 1_555
H52 C41 1_555 1_555
H53 C42 1_555 1_555
H54 C42 1_555 1_555
H55 C42 1_555 1_555
H56 C45 1_555 1_555
H57 C46 1_555 1_555
H58 C47 1_555 1_555
H59 C49 1_555 1_555
H60 C50 1_555 1_555
H61 C50 1_555 1_555
H62 C50 1_555 1_555
H63 C51 1_555 1_555
H64 C51 1_555 1_555
H65 C51 1_555 1_555
H66 C52 1_555 1_555
H67 C53 1_555 1_555
H68 C53 1_555 1_555
H69 C53 1_555 1_555
H70 C54 1_555 1_555
H71 C54 1_555 1_555
H72 C54 1_555 1_555
H74 C55 1_555 1_555
H76 C56 1_555 1_555
Ag2_2 N4 1_555 1_555
N4_2 Ag2 1_555 1_555
N5_2 Ag2 1_555 1_555
N5 Ag2_2 1_555 1_555
C1 C3 1_555 1_555
C8 C9 1_555 1_555
C20 C21 1_555 1_555
C35 C36 1_555 1_555
C47 C48 1_555 1_555

#END
