
#######################################################################
#
#                 Cambridge Crystallographic Data Centre
#                                CCDC 
#
#######################################################################
#
# If this CIF has been generated from an entry in the Cambridge 
# Structural Database, then it will include bibliographic, chemical, 
# crystal, experimental, refinement or atomic coordinate data resulting 
# from the CCDC's data processing and validation procedures.
#
#######################################################################

data_GANHAG
_symmetry_cell_setting           orthorhombic
_symmetry_space_group_name_H-M   'P n n m'
_symmetry_Int_Tables_number      58
_space_group_name_Hall           '-P 2 2n'
loop_
_symmetry_equiv_pos_site_id
_symmetry_equiv_pos_as_xyz
1 x,y,z
2 -x,-y,z
3 1/2-x,1/2+y,1/2-z
4 1/2+x,1/2-y,1/2-z
5 -x,-y,-z
6 x,y,-z
7 1/2+x,1/2-y,1/2+z
8 1/2-x,1/2+y,1/2+z
_cell_length_a                   13.3963(6)
_cell_length_b                   6.6071(3)
_cell_length_c                   10.1307(4)
_cell_angle_alpha                90
_cell_angle_beta                 90
_cell_angle_gamma                90
_cell_volume                     896.675
loop_
_atom_site_label
_atom_site_type_symbol
_atom_site_fract_x
_atom_site_fract_y
_atom_site_fract_z
Eu1 Eu 0.301523(18) 0.64393(4) 0.0000
O1 O 0.39181(18) 0.4386(4) 0.1682(2)
O2 O 0.3638(2) 0.7524(4) 0.2300(2)
O3 O 0.2334(3) 0.4885(6) 0.5000
O4 O 0.2688(3) 0.8151(5) 0.5000
O5 O 0.1655(2) 0.6245(4) 0.1570(3)
H1 H 0.1487 0.5072 0.1815
H2 H 0.1556 0.7011 0.2229
O6 O 0.4756(3) 0.7834(6) 0.0000
H3 H 0.5229 0.7683 -0.0548
C1 C 0.3996(3) 0.5811(6) 0.2528(3)
C2 C 0.2927(4) 0.6328(8) 0.5000
C3 C 0.4516(2) 0.5404(5) 0.3811(3)
C4 C 0.4026(4) 0.5780(7) 0.5000
Eu1_2 Eu 0.301523(18) 0.64393(4) 1.0000
Eu1B Eu 0.198477(18) 0.14393(4) 0.5000
Eu1B_2 Eu 0.198477(18) 1.14393(4) 0.5000
Eu1A Eu 0.698477(18) 0.35607(4) 1.0000
Eu1C Eu 0.801523(18) 0.85607(4) 0.5000
Eu1C_2 Eu 0.801523(18) -0.14393(4) 0.5000
Eu1A_2 Eu 0.698477(18) 0.35607(4) 0.0000
O1E O 0.39181(18) 0.4386(4) 0.8318(2)
O1D O 0.60819(18) 0.5614(4) 0.8318(2)
O1A O 0.60819(18) 0.5614(4) 0.1682(2)
O1E_2 O 0.39181(18) 0.4386(4) -0.1682(2)
O1_2 O 0.39181(18) 0.4386(4) 1.1682(2)
O2E O 0.3638(2) 0.7524(4) 0.7700(2)
O2D O 0.6362(2) 0.2476(4) 0.7700(2)
O2A O 0.6362(2) 0.2476(4) 0.2300(2)
O2E_2 O 0.3638(2) 0.7524(4) -0.2300(2)
O2_2 O 0.3638(2) 0.7524(4) 1.2300(2)
O3A O 0.7666(3) 0.5115(6) 0.5000
O3B O 0.2666(3) 0.9885(6) 0.0000
O3B_2 O 0.2666(3) 0.9885(6) 1.0000
O4A O 0.7312(3) 0.1849(5) 0.5000
O4B O 0.2312(3) 0.3151(5) 0.0000
O4B_2 O 0.2312(3) 0.3151(5) 1.0000
O5E O 0.1655(2) 0.6245(4) -0.1570(3)
O5E_2 O 0.1655(2) 0.6245(4) 0.8430(3)
O5_2 O 0.1655(2) 0.6245(4) 1.1570(3)
H1E H 0.1487 0.5072 -0.1815
H1E_2 H 0.1487 0.5072 0.8185
H1_2 H 0.1487 0.5072 1.1815
H2E H 0.1556 0.7011 -0.2229
H2E_2 H 0.1556 0.7011 0.7771
H2_2 H 0.1556 0.7011 1.2229
O6_2 O 0.4756(3) 0.7834(6) 1.0000
H3E H 0.5229 0.7683 0.0548
H3E_2 H 0.5229 0.7683 1.0548
H3_2 H 0.5229 0.7683 0.9452
C1E C 0.3996(3) 0.5811(6) 0.7472(3)
C1D C 0.6004(3) 0.4189(6) 0.7472(3)
C1A C 0.6004(3) 0.4189(6) 0.2528(3)
C2A C 0.7073(4) 0.3672(8) 0.5000
C3E C 0.4516(2) 0.5404(5) 0.6189(3)
C3D C 0.5484(2) 0.4596(5) 0.6189(3)
C3A C 0.5484(2) 0.4596(5) 0.3811(3)
C4A C 0.5974(4) 0.4220(7) 0.5000
loop_
_geom_bond_atom_site_label_1
_geom_bond_atom_site_label_2
_geom_bond_site_symmetry_1
_geom_bond_site_symmetry_2
Eu1 O1 1_555 1_555
O1 C1 1_555 1_555
O2 Eu1 1_555 1_555
O3 C2 1_555 1_555
O4 C2 1_555 1_555
O5 Eu1 1_555 1_555
H1 O5 1_555 1_555
H2 O5 1_555 1_555
O6 Eu1 1_555 1_555
H3 O6 1_555 1_555
C1 O2 1_555 1_555
C2 C4 1_555 1_555
C3 C1 1_555 1_555
C4 C3 1_555 1_555
Eu1_2 O1E 1_555 1_555
Eu1B O3 1_555 1_555
Eu1B_2 O4 1_555 1_555
Eu1A O1D 1_555 1_555
Eu1C O3A 1_555 1_555
Eu1C_2 O4A 1_555 1_555
Eu1A_2 O1A 1_555 1_555
O1E C1E 1_555 1_555
O1D C1D 1_555 1_555
O1A C1A 1_555 1_555
O1E_2 Eu1 1_555 1_555
O1_2 Eu1_2 1_555 1_555
O2E Eu1_2 1_555 1_555
O2D Eu1A 1_555 1_555
O2A Eu1A_2 1_555 1_555
O2E_2 Eu1 1_555 1_555
O2_2 Eu1_2 1_555 1_555
O3A C2A 1_555 1_555
O3B Eu1 1_555 1_555
O3B_2 Eu1_2 1_555 1_555
O4A C2A 1_555 1_555
O4B Eu1 1_555 1_555
O4B_2 Eu1_2 1_555 1_555
O5E Eu1 1_555 1_555
O5E_2 Eu1_2 1_555 1_555
O5_2 Eu1_2 1_555 1_555
H1E O5E 1_555 1_555
H1E_2 O5E_2 1_555 1_555
H1_2 O5_2 1_555 1_555
H2E O5E 1_555 1_555
H2E_2 O5E_2 1_555 1_555
H2_2 O5_2 1_555 1_555
O6_2 Eu1_2 1_555 1_555
H3E O6 1_555 1_555
H3E_2 O6_2 1_555 1_555
H3_2 O6_2 1_555 1_555
C1E O2E 1_555 1_555
C1D O2D 1_555 1_555
C1A O2A 1_555 1_555
C2A C4A 1_555 1_555
C3E C4 1_555 1_555
C3D C1D 1_555 1_555
C3A C3 1_555 1_555
C4A C3D 1_555 1_555
C1E C3E 1_555 1_555
C1A C3A 1_555 1_555
C3E C3D 1_555 1_555
C3A C4A 1_555 1_555

#END
