
#######################################################################
#
#                 Cambridge Crystallographic Data Centre
#                                CCDC 
#
#######################################################################
#
# If this CIF has been generated from an entry in the Cambridge 
# Structural Database, then it will include bibliographic, chemical, 
# crystal, experimental, refinement or atomic coordinate data resulting 
# from the CCDC's data processing and validation procedures.
#
#######################################################################

data_GANKIQ
_symmetry_cell_setting           monoclinic
_symmetry_space_group_name_H-M   'P 21/c'
_symmetry_Int_Tables_number      14
_space_group_name_Hall           '-P 2ybc'
loop_
_symmetry_equiv_pos_site_id
_symmetry_equiv_pos_as_xyz
1 x,y,z
2 -x,1/2+y,1/2-z
3 -x,-y,-z
4 x,1/2-y,1/2+z
_cell_length_a                   20.076(3)
_cell_length_b                   6.9430(9)
_cell_length_c                   7.6750(10)
_cell_angle_alpha                90
_cell_angle_beta                 100.344(2)
_cell_angle_gamma                90
_cell_volume                     1052.41
loop_
_atom_site_label
_atom_site_type_symbol
_atom_site_fract_x
_atom_site_fract_y
_atom_site_fract_z
Cu1 Cu 0.0000 0.0000 0.0000
Br1 Br 0.049092(18) 0.20716(5) 0.24644(4)
C1 C 0.0988(2) -0.3241(6) 0.0541(5)
H1 H 0.072(2) -0.406(6) 0.081(5)
N1 N 0.08698(15) -0.1413(4) 0.0239(4)
N2 N 0.19368(18) -0.1879(5) 0.0405(5)
N3 N 0.14680(17) -0.0588(5) 0.0156(5)
N4 N 0.16390(15) -0.3565(4) 0.0653(4)
C2 C 0.2022(2) -0.5361(6) 0.1035(7)
H2 H 0.175(2) -0.619(6) 0.128(5)
H3 H 0.234(2) -0.515(5) 0.211(5)
C3 C 0.2410(2) -0.5924(7) -0.0362(7)
H4 H 0.213(3) -0.569(7) -0.145(7)
H5 H 0.254(2) -0.734(7) -0.008(6)
C4 C 0.3059(3) -0.4854(8) -0.0397(8)
H6 H 0.338(3) -0.492(7) 0.084(7)
H7 H 0.300(2) -0.352(8) -0.056(6)
C5 C 0.3424(3) -0.5520(10) -0.1849(10)
H8 H 0.362(4) -0.673(11) -0.144(11)
H9 H 0.308(4) -0.548(10) -0.325(10)
C6 C 0.4078(5) -0.4518(17) -0.1867(14)
H10 H 0.412(6) -0.315(17) -0.200(16)
H11 H 0.442(7) -0.450(18) -0.075(17)
C7 C 0.4400(8) -0.521(3) -0.340(2)
H12 H 0.471(4) -0.479(14) -0.336(12)
H13 H 0.404(17) -0.40(3) -0.45(4)
H14 H 0.459(4) -0.641(14) -0.313(13)
Cu1C Cu 0.0000 0.5000 0.5000
Cu1C_2 Cu 0.0000 0.5000 -0.5000
Br1C Br 0.049092(18) 0.29284(5) -0.25356(4)
Br1B Br -0.049092(18) -0.20716(5) -0.24644(4)
Br1A Br -0.049092(18) -0.29284(5) 0.25356(4)
C1B C -0.0988(2) 0.3241(6) -0.0541(5)
H1B H -0.072(2) 0.406(6) -0.081(5)
N1B N -0.08698(15) 0.1413(4) -0.0239(4)
N2B N -0.19368(18) 0.1879(5) -0.0405(5)
N3B N -0.14680(17) 0.0588(5) -0.0156(5)
N4B N -0.16390(15) 0.3565(4) -0.0653(4)
C2B C -0.2022(2) 0.5361(6) -0.1035(7)
H2B H -0.175(2) 0.619(6) -0.128(5)
H3B H -0.234(2) 0.515(5) -0.211(5)
C3B C -0.2410(2) 0.5924(7) 0.0362(7)
H4B H -0.213(3) 0.569(7) 0.145(7)
H5B H -0.254(2) 0.734(7) 0.008(6)
C4B C -0.3059(3) 0.4854(8) 0.0397(8)
H6B H -0.338(3) 0.492(7) -0.084(7)
H7B H -0.300(2) 0.352(8) 0.056(6)
C5B C -0.3424(3) 0.5520(10) 0.1849(10)
H8B H -0.362(4) 0.673(11) 0.144(11)
H9B H -0.308(4) 0.548(10) 0.325(10)
C6B C -0.4078(5) 0.4518(17) 0.1867(14)
H10B H -0.412(6) 0.315(17) 0.200(16)
H11B H -0.442(7) 0.450(18) 0.075(17)
C7B C -0.4400(8) 0.521(3) 0.340(2)
H12B H -0.471(4) 0.479(14) 0.336(12)
H13B H -0.404(17) 0.40(3) 0.45(4)
H14B H -0.459(4) 0.641(14) 0.313(13)
loop_
_geom_bond_atom_site_label_1
_geom_bond_atom_site_label_2
_geom_bond_site_symmetry_1
_geom_bond_site_symmetry_2
Cu1 Br1 1_555 1_555
Br1 Cu1C 1_555 1_555
C1 H1 1_555 1_555
N1 Cu1 1_555 1_555
N2 N3 1_555 1_555
N3 N1 1_555 1_555
N4 C1 1_555 1_555
C2 N4 1_555 1_555
H2 C2 1_555 1_555
H3 C2 1_555 1_555
C3 C2 1_555 1_555
H4 C3 1_555 1_555
H5 C3 1_555 1_555
C4 C3 1_555 1_555
H6 C4 1_555 1_555
H7 C4 1_555 1_555
C5 C4 1_555 1_555
H8 C5 1_555 1_555
H9 C5 1_555 1_555
C6 C5 1_555 1_555
H10 C6 1_555 1_555
H11 C6 1_555 1_555
C7 C6 1_555 1_555
H12 C7 1_555 1_555
H13 C7 1_555 1_555
H14 C7 1_555 1_555
Cu1C_2 Br1C 1_555 1_555
Br1C Cu1 1_555 1_555
Br1B Cu1 1_555 1_555
Br1A Cu1 1_555 1_555
C1B H1B 1_555 1_555
N1B Cu1 1_555 1_555
N2B N3B 1_555 1_555
N3B N1B 1_555 1_555
N4B C1B 1_555 1_555
C2B N4B 1_555 1_555
H2B C2B 1_555 1_555
H3B C2B 1_555 1_555
C3B C2B 1_555 1_555
H4B C3B 1_555 1_555
H5B C3B 1_555 1_555
C4B C3B 1_555 1_555
H6B C4B 1_555 1_555
H7B C4B 1_555 1_555
C5B C4B 1_555 1_555
H8B C5B 1_555 1_555
H9B C5B 1_555 1_555
C6B C5B 1_555 1_555
H10B C6B 1_555 1_555
H11B C6B 1_555 1_555
C7B C6B 1_555 1_555
H12B C7B 1_555 1_555
H13B C7B 1_555 1_555
H14B C7B 1_555 1_555
C1 N1 1_555 1_555
N2 N4 1_555 1_555
C1B N1B 1_555 1_555
N2B N4B 1_555 1_555

#END
