
#######################################################################
#
#                 Cambridge Crystallographic Data Centre
#                                CCDC 
#
#######################################################################
#
# If this CIF has been generated from an entry in the Cambridge 
# Structural Database, then it will include bibliographic, chemical, 
# crystal, experimental, refinement or atomic coordinate data resulting 
# from the CCDC's data processing and validation procedures.
#
#######################################################################

data_GANKOX
_symmetry_cell_setting           triclinic
_symmetry_space_group_name_H-M   'P -1'
_symmetry_Int_Tables_number      2
_space_group_name_Hall           '-P 1'
loop_
_symmetry_equiv_pos_site_id
_symmetry_equiv_pos_as_xyz
1 x,y,z
2 -x,-y,-z
_cell_length_a                   7.8998(4)
_cell_length_b                   9.8238(5)
_cell_length_c                   11.3815(8)
_cell_angle_alpha                68.677(6)
_cell_angle_beta                 70.141(6)
_cell_angle_gamma                89.655(5)
_cell_volume                     766.886
loop_
_atom_site_label
_atom_site_type_symbol
_atom_site_fract_x
_atom_site_fract_y
_atom_site_fract_z
Ni1 Ni 0.83574(2) 0.255869(19) 0.208342(18)
O1 O 1.05052(14) 0.37310(12) 0.20856(11)
H1 H 0.9946 0.4226 0.2539
H2 H 1.1060 0.4310 0.1268
O2 O 0.77961(14) 0.43278(11) 0.05893(11)
O3 O 0.60066(15) 0.22129(11) 0.15882(11)
O4 O 0.65578(15) 0.30773(12) 0.35633(11)
O5 O 0.82308(16) 0.48624(13) 0.36300(12)
N1 N 0.85113(17) 0.05252(14) 0.34101(12)
N2 N 1.02443(17) 0.18287(13) 0.07328(12)
C1 C 0.7599(2) -0.01127(18) 0.47314(16)
H3 H 0.6707 0.0385 0.5153
C2 C 0.7899(3) -0.1492(2) 0.55307(17)
H4 H 0.7221 -0.1916 0.6476
C3 C 0.9174(3) -0.22201(19) 0.49376(18)
H5 H 0.9389 -0.3155 0.5469
C4 C 1.1536(3) -0.22521(19) 0.28194(19)
H6 H 1.1810 -0.3187 0.3300
C5 C 1.2444(2) -0.15787(19) 0.14727(19)
H7 H 1.3352 -0.2046 0.1026
C6 C 1.2939(2) 0.05748(19) -0.07064(18)
H8 H 1.3850 0.0156 -0.1209
C7 C 1.2463(2) 0.19111(18) -0.13455(16)
H9 H 1.3051 0.2431 -0.2294
C8 C 1.1105(2) 0.25035(17) -0.05917(15)
H10 H 1.0786 0.3429 -0.1048
C9 C 1.0168(2) -0.15825(17) 0.35373(17)
C10 C 0.9774(2) -0.01967(16) 0.28145(15)
C11 C 1.2066(2) -0.01704(17) 0.07015(17)
C12 C 1.0727(2) 0.05085(16) 0.13778(15)
C13 C 0.6336(2) 0.35570(16) 0.08395(14)
C14 C 0.4973(2) 0.42762(17) 0.02642(16)
H11 H 0.4064 0.3645 0.0340
C15 C 0.6762(2) 0.41233(16) 0.39247(15)
C16 C 0.5037(2) 0.44635(18) 0.47800(16)
H12 H 0.4000 0.3893 0.4987
Ni1A Ni 0.16426(2) 0.744131(19) -0.208342(18)
Ni1A_2 Ni 0.16426(2) 0.744131(19) 0.791658(18)
O1A O -0.05052(14) 0.62690(12) -0.20856(11)
H1A H 0.0054 0.5774 -0.2539
H2A H -0.1060 0.5690 -0.1268
O2A O 0.22039(14) 0.56722(11) -0.05893(11)
O3A O 0.39934(15) 0.77871(11) -0.15882(11)
O4A O 0.34422(15) 0.69227(12) 0.64367(11)
O4A_2 O 0.34422(15) 0.69227(12) -0.35633(11)
O5A O 0.17692(16) 0.51376(13) 0.63700(12)
N1A N 0.14887(17) 0.94748(14) -0.34101(12)
N2A N -0.02443(17) 0.81713(13) -0.07328(12)
C1A C 0.2401(2) 1.01127(18) -0.47314(16)
H3A H 0.3293 0.9615 -0.5153
C2A C 0.2101(3) 1.1492(2) -0.55307(17)
H4A H 0.2779 1.1916 -0.6476
C3A C 0.0826(3) 1.22201(19) -0.49376(18)
H5A H 0.0611 1.3155 -0.5469
C4A C -0.1536(3) 1.22521(19) -0.28194(19)
H6A H -0.1810 1.3187 -0.3300
C5A C -0.2444(2) 1.15787(19) -0.14727(19)
H7A H -0.3352 1.2046 -0.1026
C6A C -0.2939(2) 0.94252(19) 0.07064(18)
H8A H -0.3850 0.9844 0.1209
C7A C -0.2463(2) 0.80889(18) 0.13455(16)
H9A H -0.3051 0.7569 0.2294
C8A C -0.1105(2) 0.74965(17) 0.05917(15)
H10A H -0.0786 0.6571 0.1048
C9A C -0.0168(2) 1.15825(17) -0.35373(17)
C10A C 0.0226(2) 1.01967(16) -0.28145(15)
C11A C -0.2066(2) 1.01704(17) -0.07015(17)
C12A C -0.0727(2) 0.94915(16) -0.13778(15)
C13A C 0.3664(2) 0.64430(16) -0.08395(14)
C14A C 0.5027(2) 0.57238(17) -0.02642(16)
H11A H 0.5936 0.6355 -0.0340
C15A C 0.3238(2) 0.58767(16) 0.60753(15)
C16A C 0.4963(2) 0.55365(18) 0.52200(16)
H12A H 0.6000 0.6107 0.5013
loop_
_geom_bond_atom_site_label_1
_geom_bond_atom_site_label_2
_geom_bond_site_symmetry_1
_geom_bond_site_symmetry_2
Ni1 O1 1_555 1_555
O1 H1 1_555 1_555
H2 O1 1_555 1_555
O2 Ni1 1_555 1_555
O3 Ni1 1_555 1_555
O4 Ni1 1_555 1_555
O5 C15 1_555 1_555
N1 Ni1 1_555 1_555
N2 Ni1 1_555 1_555
C1 N1 1_555 1_555
H3 C1 1_555 1_555
C2 C1 1_555 1_555
H4 C2 1_555 1_555
C3 C2 1_555 1_555
H5 C3 1_555 1_555
C4 H6 1_555 1_555
C5 C4 1_555 1_555
H7 C5 1_555 1_555
C6 H8 1_555 1_555
C7 C6 1_555 1_555
H9 C7 1_555 1_555
C8 N2 1_555 1_555
H10 C8 1_555 1_555
C9 C3 1_555 1_555
C10 N1 1_555 1_555
C11 C5 1_555 1_555
C12 N2 1_555 1_555
C13 O2 1_555 1_555
C14 C13 1_555 1_555
H11 C14 1_555 1_555
C15 O4 1_555 1_555
C16 C15 1_555 1_555
H12 C16 1_555 1_555
Ni1A O1A 1_555 1_555
Ni1A_2 O4A 1_555 1_555
O1A H1A 1_555 1_555
H2A O1A 1_555 1_555
O2A Ni1A 1_555 1_555
O3A Ni1A 1_555 1_555
O4A C15A 1_555 1_555
O4A_2 Ni1A 1_555 1_555
O5A C15A 1_555 1_555
N1A Ni1A 1_555 1_555
N2A Ni1A 1_555 1_555
C1A N1A 1_555 1_555
H3A C1A 1_555 1_555
C2A C1A 1_555 1_555
H4A C2A 1_555 1_555
C3A C2A 1_555 1_555
H5A C3A 1_555 1_555
C4A H6A 1_555 1_555
C5A C4A 1_555 1_555
H7A C5A 1_555 1_555
C6A H8A 1_555 1_555
C7A C6A 1_555 1_555
H9A C7A 1_555 1_555
C8A N2A 1_555 1_555
H10A C8A 1_555 1_555
C9A C3A 1_555 1_555
C10A N1A 1_555 1_555
C11A C5A 1_555 1_555
C12A N2A 1_555 1_555
C13A O2A 1_555 1_555
C14A C14 1_555 1_555
H11A C14A 1_555 1_555
C15A C16A 1_555 1_555
C16A C16 1_555 1_555
H12A C16A 1_555 1_555
O3 C13 1_555 1_555
C4 C9 1_555 1_555
C6 C11 1_555 1_555
C7 C8 1_555 1_555
C9 C10 1_555 1_555
C10 C12 1_555 1_555
C11 C12 1_555 1_555
O3A C13A 1_555 1_555
C4A C9A 1_555 1_555
C6A C11A 1_555 1_555
C7A C8A 1_555 1_555
C9A C10A 1_555 1_555
C10A C12A 1_555 1_555
C11A C12A 1_555 1_555
C13A C14A 1_555 1_555

#END
