
#######################################################################
#
#                 Cambridge Crystallographic Data Centre
#                                CCDC 
#
#######################################################################
#
# If this CIF has been generated from an entry in the Cambridge 
# Structural Database, then it will include bibliographic, chemical, 
# crystal, experimental, refinement or atomic coordinate data resulting 
# from the CCDC's data processing and validation procedures.
#
#######################################################################

data_GANKUD
_symmetry_cell_setting           triclinic
_symmetry_space_group_name_H-M   'P -1'
_symmetry_Int_Tables_number      2
_space_group_name_Hall           '-P 1'
loop_
_symmetry_equiv_pos_site_id
_symmetry_equiv_pos_as_xyz
1 x,y,z
2 -x,-y,-z
_cell_length_a                   7.497(4)
_cell_length_b                   9.136(5)
_cell_length_c                   9.443(7)
_cell_angle_alpha                78.289(19)
_cell_angle_beta                 77.858(19)
_cell_angle_gamma                67.72(2)
_cell_volume                     579.646
loop_
_atom_site_label
_atom_site_type_symbol
_atom_site_fract_x
_atom_site_fract_y
_atom_site_fract_z
Co1 Co 1.0000 0.5000 0.5000
O1 O 1.2375(2) 0.3098(2) 0.58992(19)
O3 O 0.8818(2) 0.3208(2) 0.5127(2)
O4 O 0.6238(3) 0.2504(2) 0.5388(3)
N1 N 0.8569(3) 0.5511(2) 0.7146(2)
N2 N 0.7050(3) 0.7105(2) 0.8865(2)
C1 C 0.7791(4) 0.6984(3) 0.7437(3)
H1 H 0.7751 0.7864 0.6731
C2 C 0.7396(3) 0.5554(3) 0.9577(3)
C3 C 0.8340(3) 0.4566(3) 0.8486(3)
C4 C 0.8857(4) 0.2915(3) 0.8831(3)
H2 H 0.9466 0.2244 0.8117
C5 C 0.8430(4) 0.2314(3) 1.0271(3)
H3 H 0.8772 0.1216 1.0531
C6 C 0.7500(5) 0.3310(4) 1.1347(3)
H4 H 0.7243 0.2857 1.2307
C7 C 0.6952(4) 0.4944(3) 1.1030(3)
H5 H 0.6319 0.5606 1.1748
C8 C 0.6007(3) 0.8580(3) 0.9448(3)
C9 C 0.6227(4) 0.8724(3) 1.0825(3)
H6 H 0.7047 0.7868 1.1376
C10 C 0.4786(4) 0.9844(3) 0.8624(3)
H7 H 0.4644 0.9732 0.7701
C11 C 0.7062(4) 0.3410(3) 0.5497(3)
H8 H 0.6286 0.4339 0.5897
H9 H 1.3579 0.3142 0.5608
H10 H 1.2358 0.2205 0.5863
Co1_2 Co 0.0000 1.5000 1.5000
O1A O 0.7625(2) 0.6902(2) 0.41008(19)
O3A O 1.1182(2) 0.6792(2) 0.4873(2)
O4A O 1.3762(3) 0.7496(2) 0.4612(3)
N1A N 0.1431(3) 1.4489(2) 1.2854(2)
N1A_2 N 1.1431(3) 0.4489(2) 0.2854(2)
N2A N 0.2950(3) 1.2895(2) 1.1135(2)
C1A C 0.2209(4) 1.3016(3) 1.2563(3)
H1A H 0.2249 1.2136 1.3269
C2A C 0.2604(3) 1.4446(3) 1.0423(3)
C3A C 0.1660(3) 1.5434(3) 1.1514(3)
C4A C 0.1143(4) 1.7085(3) 1.1169(3)
H2A H 0.0534 1.7756 1.1883
C5A C 0.1570(4) 1.7686(3) 0.9729(3)
H3A H 0.1228 1.8784 0.9469
C6A C 0.2500(5) 1.6690(4) 0.8653(3)
H4A H 0.2757 1.7143 0.7693
C7A C 0.3048(4) 1.5056(3) 0.8970(3)
H5A H 0.3681 1.4394 0.8252
C8A C 0.3993(3) 1.1420(3) 1.0552(3)
C9A C 0.3773(4) 1.1276(3) 0.9175(3)
H6A H 0.2953 1.2132 0.8624
C10A C 0.5214(4) 1.0156(3) 1.1376(3)
H7A H 0.5356 1.0268 1.2299
C11A C 1.2938(4) 0.6590(3) 0.4503(3)
H8A H 1.3714 0.5661 0.4103
H9A H 0.6421 0.6858 0.4392
H10A H 0.7642 0.7795 0.4137
O2 O 0.1838(4) 0.0285(3) 0.5850(3)
H11 H 0.2325 -0.0572 0.5401
H12 H 0.0565 0.0927 0.5551
loop_
_geom_bond_atom_site_label_1
_geom_bond_atom_site_label_2
_geom_bond_site_symmetry_1
_geom_bond_site_symmetry_2
Co1 O1 1_555 1_555
O1 H9 1_555 1_555
O2 H11 1_555 1_555
O3 Co1 1_555 1_555
O4 C11 1_555 1_555
N1 Co1 1_555 1_555
N2 C1 1_555 1_555
C1 N1 1_555 1_555
H1 C1 1_555 1_555
C2 N2 1_555 1_555
C3 N1 1_555 1_555
C4 C3 1_555 1_555
H2 C4 1_555 1_555
C5 C4 1_555 1_555
H3 C5 1_555 1_555
C6 C5 1_555 1_555
H4 C6 1_555 1_555
C7 C2 1_555 1_555
H5 C7 1_555 1_555
C8 N2 1_555 1_555
C9 C8 1_555 1_555
H6 C9 1_555 1_555
C10 C8 1_555 1_555
H7 C10 1_555 1_555
C11 O3 1_555 1_555
H8 C11 1_555 1_555
H10 O1 1_555 1_555
H12 O2 1_555 1_555
Co1_2 N1A 1_555 1_555
O1A Co1 1_555 1_555
O3A Co1 1_555 1_555
O4A C11A 1_555 1_555
N1A C1A 1_555 1_555
N1A_2 Co1 1_555 1_555
N2A C1A 1_555 1_555
C1A H1A 1_555 1_555
C2A N2A 1_555 1_555
C3A N1A 1_555 1_555
C4A C3A 1_555 1_555
H2A C4A 1_555 1_555
C5A C4A 1_555 1_555
H3A C5A 1_555 1_555
C6A C5A 1_555 1_555
H4A C6A 1_555 1_555
C7A C2A 1_555 1_555
H5A C7A 1_555 1_555
C8A N2A 1_555 1_555
C9A C10 1_555 1_555
H6A C9A 1_555 1_555
C10A C9 1_555 1_555
H7A C10A 1_555 1_555
C11A O3A 1_555 1_555
H8A C11A 1_555 1_555
H9A O1A 1_555 1_555
H10A O1A 1_555 1_555
C2 C3 1_555 1_555
C6 C7 1_555 1_555
C2A C3A 1_555 1_555
C6A C7A 1_555 1_555
C8A C9A 1_555 1_555
C8A C10A 1_555 1_555

#END
