
#######################################################################
#
#                 Cambridge Crystallographic Data Centre
#                                CCDC 
#
#######################################################################
#
# If this CIF has been generated from an entry in the Cambridge 
# Structural Database, then it will include bibliographic, chemical, 
# crystal, experimental, refinement or atomic coordinate data resulting 
# from the CCDC's data processing and validation procedures.
#
#######################################################################

data_GANLOY
_symmetry_cell_setting           monoclinic
_symmetry_space_group_name_H-M   'C 2/c'
_symmetry_Int_Tables_number      15
_space_group_name_Hall           '-C 2yn'
loop_
_symmetry_equiv_pos_site_id
_symmetry_equiv_pos_as_xyz
1 x,y,z
2 -x,y,1/2-z
3 1/2+x,1/2+y,z
4 1/2-x,1/2+y,1/2-z
5 -x,-y,-z
6 x,-y,1/2+z
7 1/2-x,1/2-y,-z
8 1/2+x,1/2-y,1/2+z
_cell_length_a                   20.103(3)
_cell_length_b                   5.0634(9)
_cell_length_c                   16.036(3)
_cell_angle_alpha                90
_cell_angle_beta                 110.142(2)
_cell_angle_gamma                90
_cell_volume                     1532.47
loop_
_atom_site_label
_atom_site_type_symbol
_atom_site_fract_x
_atom_site_fract_y
_atom_site_fract_z
Ag1 Ag 0.325354(14) 0.79247(6) 0.004298(16)
Br1 Br 0.505370(16) 0.07401(7) -0.11753(2)
S1 S 0.31936(4) 0.73875(15) -0.36706(5)
N1 N 0.36109(14) 0.6390(6) -0.10644(17)
O1 O 0.36615(13) 0.6412(6) -0.41279(15)
O2 O 0.25004(15) 0.6214(6) -0.39819(17)
O3 O 0.31813(13) 1.0272(5) -0.36391(16)
C1 C 0.33643(16) 0.7281(7) -0.1871(2)
H1 H 0.3026 0.8615 -0.2007
C2 C 0.35925(15) 0.6292(6) -0.25503(18)
C3 C 0.40983(15) 0.4352(7) -0.23435(19)
H2 H 0.4265 0.3676 -0.2774
C4 C 0.43547(15) 0.3425(7) -0.1486(2)
C5 C 0.41094(16) 0.4495(7) -0.0849(2)
H3 H 0.4292 0.3893 -0.0267
Ag1E Ag 0.325354(14) 0.20753(6) -0.495702(16)
Ag1C Ag 0.174646(14) 0.29247(6) -0.504298(16)
Ag1E_2 Ag 0.325354(14) 1.20753(6) -0.495702(16)
O1E O 0.36615(13) 0.3588(6) 0.08721(15)
O2C O 0.24996(15) 1.1214(6) -0.10181(17)
O3E O 0.31813(13) 0.9728(5) 0.13609(16)
loop_
_geom_bond_atom_site_label_1
_geom_bond_atom_site_label_2
_geom_bond_site_symmetry_1
_geom_bond_site_symmetry_2
Ag1 N1 1_555 1_555
Br1 C4 1_555 1_555
S1 O1 1_555 1_555
N1 C1 1_555 1_555
O1 Ag1E 1_555 1_555
O2 S1 1_555 1_555
O3 S1 1_555 1_555
C1 H1 1_555 1_555
C2 S1 1_555 1_555
C3 C2 1_555 1_555
H2 C3 1_555 1_555
C4 C3 1_555 1_555
C5 N1 1_555 1_555
H3 C5 1_555 1_555
Ag1C O2 1_555 1_555
Ag1E_2 O3 1_555 1_555
O1E Ag1 1_555 1_555
O2C Ag1 1_555 1_555
O3E Ag1 1_555 1_555
C1 C2 1_555 1_555
C4 C5 1_555 1_555

#END
