
#######################################################################
#
#                 Cambridge Crystallographic Data Centre
#                                CCDC 
#
#######################################################################
#
# If this CIF has been generated from an entry in the Cambridge 
# Structural Database, then it will include bibliographic, chemical, 
# crystal, experimental, refinement or atomic coordinate data resulting 
# from the CCDC's data processing and validation procedures.
#
#######################################################################

data_GANMAL
_symmetry_cell_setting           tetragonal
_symmetry_space_group_name_H-M   'I 41/a'
_symmetry_Int_Tables_number      88
_space_group_name_Hall           '-I 4ad'
loop_
_symmetry_equiv_pos_site_id
_symmetry_equiv_pos_as_xyz
1 x,y,z
2 1/2-x,-y,1/2+z
3 3/4-y,1/4+x,1/4+z
4 3/4+y,3/4-x,3/4+z
5 1/2+x,1/2+y,1/2+z
6 -x,1/2-y,z
7 1/4-y,3/4+x,3/4+z
8 1/4+y,1/4-x,1/4+z
9 -x,-y,-z
10 1/2+x,y,1/2-z
11 1/4+y,3/4-x,3/4-z
12 1/4-y,1/4+x,1/4-z
13 1/2-x,1/2-y,1/2-z
14 x,1/2+y,-z
15 3/4+y,1/4-x,1/4-z
16 3/4-y,3/4+x,3/4-z
_cell_length_a                   12.8412(2)
_cell_length_b                   12.8412(2)
_cell_length_c                   27.2647(7)
_cell_angle_alpha                90
_cell_angle_beta                 90
_cell_angle_gamma                90
_cell_volume                     4495.85
loop_
_atom_site_label
_atom_site_type_symbol
_atom_site_fract_x
_atom_site_fract_y
_atom_site_fract_z
Zn1 Zn 0.5000 0.0000 0.5000
Zn2 Zn 0.5000 -0.2500 0.49263(3)
Zn3 Zn 0.31832(5) 0.13663(5) 0.42903(2)
O1 O 0.3829(3) -0.2239(3) 0.44919(13)
O2 O 0.1742(4) 0.1142(4) 0.38585(16)
O3 O 0.4505(3) -0.0690(3) 0.42997(12)
O4 O 0.3919(3) 0.1070(3) 0.36657(11)
O5 O 0.4706(3) 0.0068(3) 0.31306(13)
O6 O 0.2600(3) 0.1066(3) 0.28024(12)
O7 O 0.1945(3) -0.0076(3) 0.22700(13)
O8 O 0.4625(3) 0.1373(3) 0.46294(12)
C1 C 0.3132(4) -0.1383(4) 0.38044(18)
C2 C 0.3150(4) -0.0597(4) 0.34414(17)
C3 C 0.2429(4) -0.0677(4) 0.30533(19)
C4 C 0.1747(5) -0.1498(5) 0.3023(2)
H1 H 0.1296 -0.1543 0.2757
C5 C 0.1720(6) -0.2254(5) 0.3380(3)
H2 H 0.1251 -0.2803 0.3357
C6 C 0.2400(5) -0.2187(5) 0.3774(2)
H3 H 0.2370 -0.2685 0.4022
C7 C 0.3880(4) -0.1430(4) 0.42282(17)
C8 C 0.3973(4) 0.0242(4) 0.34212(17)
C9 C 0.2329(4) 0.0172(4) 0.26799(19)
H7 H 0.115(3) 0.124(5) 0.3994(18)
H8 H 0.175(4) 0.141(5) 0.3569(11)
H9 H 0.507(3) 0.139(4) 0.4428(14)
Zn1F Zn 0.2500 0.2500 0.2500
Zn1B Zn 0.7500 -0.2500 0.7500
Zn2H Zn 0.5000 0.2500 0.50737(3)
Zn3H Zn 0.68168(5) -0.13663(5) 0.57097(2)
Zn3O Zn 0.61337(5) 0.06832(5) 0.32097(2)
Zn3F Zn 0.11337(5) 0.06832(5) 0.17903(2)
Zn3G Zn 0.38663(5) -0.06832(5) 0.67903(2)
Zn3N Zn 0.88663(5) -0.06832(5) 0.82097(2)
O1H O 0.6171(3) 0.2239(3) 0.55081(13)
O1E O 0.6171(3) -0.2761(3) 0.44919(13)
O2H O 0.8258(4) -0.1142(4) 0.61415(16)
O3H O 0.5495(3) 0.0690(3) 0.57003(12)
O4H O 0.6081(3) -0.1070(3) 0.63343(11)
O5H O 0.5294(3) -0.0068(3) 0.68694(13)
O5J O 0.2568(3) 0.2794(3) 0.43694(13)
O5B O 0.7432(3) -0.2794(3) 0.56306(13)
O6H O 0.7400(3) -0.1066(3) 0.71976(12)
O6O O 0.6434(3) 0.0100(3) 0.46976(12)
O6G O 0.3566(3) -0.0100(3) 0.53024(12)
O7H O 0.8055(3) 0.0076(3) 0.77300(13)
O7G O 0.2424(3) 0.0555(3) 0.47700(13)
O7O O 0.7576(3) -0.0555(3) 0.52300(13)
O8H O 0.5375(3) -0.1373(3) 0.53706(12)
O8M O 0.4625(3) -0.3627(3) 0.53706(12)
C1H C 0.6868(4) 0.1383(4) 0.61956(18)
C2H C 0.6850(4) 0.0597(4) 0.65586(17)
C3H C 0.7571(4) 0.0677(4) 0.69467(19)
C4H C 0.8253(5) 0.1498(5) 0.6977(2)
H1H H 0.8704 0.1543 0.7243
C5H C 0.8280(6) 0.2254(5) 0.6620(3)
H2H H 0.8749 0.2803 0.6643
C6H C 0.7600(5) 0.2187(5) 0.6226(2)
H3H H 0.7630 0.2685 0.5978
C7H C 0.6120(4) 0.1430(4) 0.57718(17)
C8H C 0.6027(4) -0.0242(4) 0.65788(17)
C9H C 0.7671(4) -0.0172(4) 0.73201(19)
H7H H 0.885(3) -0.124(5) 0.6006(18)
H8H H 0.825(4) -0.141(5) 0.6431(11)
H9H H 0.493(3) -0.139(4) 0.5572(14)
H9M H 0.507(3) -0.361(4) 0.5572(14)
O9 O 1.0000 -0.2500 0.5664(4)
H4 H 0.9977 -0.2203 0.5475
H4E H 1.0023 -0.2797 0.5475
O10 O 0.0743(12) -0.3649(12) 0.2625(5)
H5 H 0.0608 -0.3205 0.2396
H6 H 0.0318 -0.4194 0.2582
loop_
_geom_bond_atom_site_label_1
_geom_bond_atom_site_label_2
_geom_bond_site_symmetry_1
_geom_bond_site_symmetry_2
Zn1 O3 1_555 1_555
Zn2 O1 1_555 1_555
Zn3 O2 1_555 1_555
O1 C7 1_555 1_555
O2 H7 1_555 1_555
O3 C7 1_555 1_555
O4 Zn3 1_555 1_555
O5 C8 1_555 1_555
O6 C9 1_555 1_555
O7 C9 1_555 1_555
O8 Zn1 1_555 1_555
C1 C2 1_555 1_555
C2 C3 1_555 1_555
C3 C4 1_555 1_555
C4 H1 1_555 1_555
C5 C4 1_555 1_555
H2 C5 1_555 1_555
C6 C1 1_555 1_555
H3 C6 1_555 1_555
C7 C1 1_555 1_555
C8 O4 1_555 1_555
C9 C3 1_555 1_555
O9 H4 1_555 1_555
O10 H5 1_555 1_555
H6 O10 1_555 1_555
H8 O2 1_555 1_555
H9 O8 1_555 1_555
Zn1F O6 1_555 1_555
Zn1B O6H 1_555 1_555
Zn2H O8 1_555 1_555
Zn3H O2H 1_555 1_555
Zn3O O5 1_555 1_555
Zn3F O7 1_555 1_555
Zn3G O5H 1_555 1_555
Zn3N O7H 1_555 1_555
O1H Zn2H 1_555 1_555
O1E Zn2 1_555 1_555
O2H H7H 1_555 1_555
O3H Zn1 1_555 1_555
O4H Zn3H 1_555 1_555
O5H C8H 1_555 1_555
O5J Zn3 1_555 1_555
O5B Zn3H 1_555 1_555
O6H C9H 1_555 1_555
O6O Zn1 1_555 1_555
O6G Zn1 1_555 1_555
O7H C9H 1_555 1_555
O7G Zn3 1_555 1_555
O7O Zn3H 1_555 1_555
O8H Zn1 1_555 1_555
O8M Zn2 1_555 1_555
C1H C2H 1_555 1_555
C2H C3H 1_555 1_555
C3H C4H 1_555 1_555
C4H H1H 1_555 1_555
C5H C4H 1_555 1_555
H2H C5H 1_555 1_555
C6H C1H 1_555 1_555
H3H C6H 1_555 1_555
C7H O1H 1_555 1_555
C8H O4H 1_555 1_555
C9H C3H 1_555 1_555
H4E O9 1_555 1_555
H8H O2H 1_555 1_555
H9H O8H 1_555 1_555
H9M O8M 1_555 1_555
Zn2 O8H 1_555 1_555
Zn3 O8 1_555 1_555
C2 C8 1_555 1_555
C5 C6 1_555 1_555
Zn3H O8H 1_555 1_555
O3H C7H 1_555 1_555
C1H C7H 1_555 1_555
C2H C8H 1_555 1_555
C5H C6H 1_555 1_555

#END
