
#######################################################################
#
#                 Cambridge Crystallographic Data Centre
#                                CCDC 
#
#######################################################################
#
# If this CIF has been generated from an entry in the Cambridge 
# Structural Database, then it will include bibliographic, chemical, 
# crystal, experimental, refinement or atomic coordinate data resulting 
# from the CCDC's data processing and validation procedures.
#
#######################################################################

data_GANMEP
_symmetry_cell_setting           monoclinic
_symmetry_space_group_name_H-M   'C 2/c'
_symmetry_Int_Tables_number      15
_space_group_name_Hall           '-C 2yn'
loop_
_symmetry_equiv_pos_site_id
_symmetry_equiv_pos_as_xyz
1 x,y,z
2 -x,y,1/2-z
3 1/2+x,1/2+y,z
4 1/2-x,1/2+y,1/2-z
5 -x,-y,-z
6 x,-y,1/2+z
7 1/2-x,1/2-y,-z
8 1/2+x,1/2-y,1/2+z
_cell_length_a                   20.4396(8)
_cell_length_b                   12.8695(8)
_cell_length_c                   7.9798(4)
_cell_angle_alpha                90
_cell_angle_beta                 90.765(3)
_cell_angle_gamma                90
_cell_volume                     2098.88
loop_
_atom_site_label
_atom_site_type_symbol
_atom_site_fract_x
_atom_site_fract_y
_atom_site_fract_z
Zn1 Zn 0.5000 0.725191(16) 0.2500
S1 S 0.676748(19) 0.62114(4) 0.78141(5)
N1 N 0.44065(7) 0.85617(9) 0.31662(16)
O1 O 0.57320(6) 0.61941(8) 0.18683(14)
H1 H 0.5703(10) 0.5693(13) 0.123(2)
H2 H 0.5785(10) 0.5933(15) 0.2793(18)
O2 O 0.54190(6) 0.72445(7) 0.49896(13)
O3 O 0.57240(6) 0.55857(8) 0.50514(13)
C1 C 0.38250(9) 0.85086(14) 0.3913(2)
H3 H 0.3633 0.7861 0.4061
C2 C 0.34980(10) 0.93842(17) 0.4477(2)
H4 H 0.3089 0.9329 0.4966
C3 C 0.37950(11) 1.03389(15) 0.4292(3)
H5 H 0.3594 1.0937 0.4688
C4 C 0.43876(10) 1.03996(13) 0.3523(2)
H6 H 0.4592 1.1040 0.3391
C5 C 0.46836(8) 0.94978(11) 0.29374(19)
C6 C 0.56711(6) 0.64669(10) 0.56961(17)
C7 C 0.59312(7) 0.66315(13) 0.74760(18)
H7 H 0.5652 0.6258 0.8245
H8 H 0.5901 0.7365 0.7746
C8 C 0.71752(7) 0.69346(13) 0.6228(2)
C9 C 0.71738(8) 0.65950(13) 0.4586(2)
H9 H 0.6958 0.5983 0.4300
C10 C 0.75080(8) 0.78402(14) 0.6640(2)
H10 H 0.7518 0.8070 0.7745
Zn1F Zn 1.0000 0.774809(16) 0.7500
S1F S 0.823252(19) 0.87886(4) 0.21859(5)
N1A N 0.55935(7) 0.85617(9) 0.18338(16)
O1A O 0.42680(6) 0.61941(8) 0.31317(14)
H1A H 0.4297(10) 0.5693(13) 0.377(2)
H2A H 0.4215(10) 0.5933(15) 0.2207(18)
O2F O 0.95810(6) 0.77555(7) 0.50104(13)
O2A O 0.45810(6) 0.72445(7) 0.00104(13)
O3F O 0.92760(6) 0.94143(8) 0.49486(13)
C1A C 0.61750(9) 0.85086(14) 0.1087(2)
H3A H 0.6367 0.7861 0.0939
C2A C 0.65020(10) 0.93842(17) 0.0523(2)
H4A H 0.6911 0.9329 0.0034
C3A C 0.62050(11) 1.03389(15) 0.0708(3)
H5A H 0.6406 1.0937 0.0312
C4A C 0.56124(10) 1.03996(13) 0.1477(2)
H6A H 0.5408 1.1040 0.1609
C5A C 0.53164(8) 0.94978(11) 0.20626(19)
C6F C 0.93289(6) 0.85331(10) 0.43039(17)
C7F C 0.90688(7) 0.83685(13) 0.25240(18)
H7F H 0.9348 0.8742 0.1755
H8F H 0.9099 0.7635 0.2254
C8F C 0.78248(7) 0.80654(13) 0.3772(2)
C9F C 0.78262(8) 0.84050(13) 0.5414(2)
H9F H 0.8042 0.9017 0.5700
C10F C 0.74920(8) 0.71598(14) 0.3360(2)
H10F H 0.7482 0.6930 0.2255
loop_
_geom_bond_atom_site_label_1
_geom_bond_atom_site_label_2
_geom_bond_site_symmetry_1
_geom_bond_site_symmetry_2
Zn1 N1 1_555 1_555
S1 C7 1_555 1_555
N1 C1 1_555 1_555
O1 Zn1 1_555 1_555
H1 O1 1_555 1_555
H2 O1 1_555 1_555
O2 Zn1 1_555 1_555
O3 C6 1_555 1_555
C1 H3 1_555 1_555
C2 C1 1_555 1_555
H4 C2 1_555 1_555
C3 C2 1_555 1_555
H5 C3 1_555 1_555
C4 C3 1_555 1_555
H6 C4 1_555 1_555
C5 N1 1_555 1_555
C6 O2 1_555 1_555
C7 C6 1_555 1_555
H7 C7 1_555 1_555
H8 C7 1_555 1_555
C8 S1 1_555 1_555
C9 C8 1_555 1_555
H9 C9 1_555 1_555
C10 C8 1_555 1_555
H10 C10 1_555 1_555
Zn1F O2F 1_555 1_555
S1F C7F 1_555 1_555
N1A Zn1 1_555 1_555
O1A Zn1 1_555 1_555
H1A O1A 1_555 1_555
H2A O1A 1_555 1_555
O2F C6F 1_555 1_555
O2A Zn1 1_555 1_555
O3F C6F 1_555 1_555
C1A N1A 1_555 1_555
H3A C1A 1_555 1_555
C2A C1A 1_555 1_555
H4A C2A 1_555 1_555
C3A C2A 1_555 1_555
H5A C3A 1_555 1_555
C4A C3A 1_555 1_555
H6A C4A 1_555 1_555
C5A C5 1_555 1_555
C6F C7F 1_555 1_555
C7F H7F 1_555 1_555
H8F C7F 1_555 1_555
C8F S1F 1_555 1_555
C9F C10 1_555 1_555
H9F C9F 1_555 1_555
C10F C9 1_555 1_555
H10F C10F 1_555 1_555
C4 C5 1_555 1_555
N1A C5A 1_555 1_555
C4A C5A 1_555 1_555
C8F C9F 1_555 1_555
C8F C10F 1_555 1_555

#END
