
#######################################################################
#
#                 Cambridge Crystallographic Data Centre
#                                CCDC 
#
#######################################################################
#
# If this CIF has been generated from an entry in the Cambridge 
# Structural Database, then it will include bibliographic, chemical, 
# crystal, experimental, refinement or atomic coordinate data resulting 
# from the CCDC's data processing and validation procedures.
#
#######################################################################

data_GANNOA
_symmetry_cell_setting           monoclinic
_symmetry_space_group_name_H-M   'P 21/c'
_symmetry_Int_Tables_number      14
_space_group_name_Hall           '-P 2ybc'
loop_
_symmetry_equiv_pos_site_id
_symmetry_equiv_pos_as_xyz
1 x,y,z
2 -x,1/2+y,1/2-z
3 -x,-y,-z
4 x,1/2-y,1/2+z
_cell_length_a                   10.6511(13)
_cell_length_b                   23.321(3)
_cell_length_c                   7.0111(8)
_cell_angle_alpha                90
_cell_angle_beta                 105.044(7)
_cell_angle_gamma                90
_cell_volume                     1681.83
loop_
_atom_site_label
_atom_site_type_symbol
_atom_site_fract_x
_atom_site_fract_y
_atom_site_fract_z
Cu1 Cu 1.25554(4) 0.334248(14) 0.91097(6)
N1 N 1.0793(3) 0.30297(10) 0.7883(4)
O1 O 0.8837(2) 0.42750(9) 1.2312(4)
H1 H 0.8138 0.4356 1.2531
H2 H 1.3391 0.4178 0.6721
H3 H 1.2197 0.4224 0.6553
N2 N 1.2308(2) 0.40329(10) 1.0943(4)
O3 O 1.5049(2) 0.53445(8) 1.2189(4)
O4 O 0.9233(2) 0.52059(8) 1.2933(3)
O5 O 1.3867(2) 0.58268(9) 1.3819(4)
C1 C 1.0490(3) 0.24710(12) 0.7920(5)
H4 H 1.1159 0.2213 0.8425
C2 C 0.8215(3) 0.26339(11) 0.6516(4)
C3 C 0.9569(3) 0.47324(12) 1.2534(4)
C4 C 0.5797(3) 0.27900(12) 0.5599(4)
H5 H 0.5926 0.3183 0.5789
O6 O 1.2742(2) 0.39559(9) 0.6563(4)
C5 C 1.1825(3) 0.50477(11) 1.2678(4)
H8 H 1.1658 0.5389 1.3253
C6 C 1.0874(3) 0.46268(11) 1.2204(4)
C7 C 1.3011(3) 0.49604(11) 1.2300(4)
C8 C 0.8532(3) 0.32095(12) 0.6460(5)
H9 H 0.7882 0.3477 0.5968
C9 C 0.9247(3) 0.22588(12) 0.7254(4)
H10 H 0.9095 0.1867 0.7295
C10 C 0.6855(3) 0.24224(11) 0.5851(4)
C11 C 1.4074(3) 0.54121(11) 1.2813(5)
C12 C 0.6585(3) 0.18475(12) 0.5473(5)
H11 H 0.7261 0.1586 0.5593
C13 C 0.9796(3) 0.33862(12) 0.7125(5)
H12 H 0.9975 0.3775 0.7049
C14 C 1.3199(3) 0.44466(12) 1.1400(5)
H13 H 1.3991 0.4389 1.1101
C15 C 1.1176(3) 0.41237(12) 1.1376(4)
H14 H 1.0556 0.3833 1.1106
C16 C 0.4562(3) 0.25688(12) 0.5068(5)
H15 H 0.3866 0.2820 0.4929
N3 N 0.4300(2) 0.20061(10) 0.4737(4)
C17 C 0.5326(3) 0.16626(11) 0.4921(5)
H16 H 0.5175 0.1274 0.4659
Cu1C Cu 0.25554(4) 0.165752(14) 0.41097(6)
N3C N 1.4300(2) 0.29939(10) 0.9737(4)
O2 O 0.3423(2) 0.55931(9) 0.7333(4)
H6 H 0.3745 0.5267 0.7734
H7 H 0.3550 0.5631 0.6190
loop_
_geom_bond_atom_site_label_1
_geom_bond_atom_site_label_2
_geom_bond_site_symmetry_1
_geom_bond_site_symmetry_2
Cu1 N1 1_555 1_555
N1 C1 1_555 1_555
O1 H1 1_555 1_555
O2 H6 1_555 1_555
H2 O6 1_555 1_555
H3 O6 1_555 1_555
N2 Cu1 1_555 1_555
O3 C11 1_555 1_555
O4 C3 1_555 1_555
O5 C11 1_555 1_555
C1 H4 1_555 1_555
C2 C8 1_555 1_555
C3 O1 1_555 1_555
C4 H5 1_555 1_555
O6 Cu1 1_555 1_555
H7 O2 1_555 1_555
C5 H8 1_555 1_555
C6 C3 1_555 1_555
C7 C5 1_555 1_555
C8 H9 1_555 1_555
C9 C1 1_555 1_555
H10 C9 1_555 1_555
C10 C2 1_555 1_555
C11 C7 1_555 1_555
C12 C10 1_555 1_555
H11 C12 1_555 1_555
C13 N1 1_555 1_555
H12 C13 1_555 1_555
C14 N2 1_555 1_555
H13 C14 1_555 1_555
C15 N2 1_555 1_555
H14 C15 1_555 1_555
C16 C4 1_555 1_555
H15 C16 1_555 1_555
N3 C16 1_555 1_555
C17 C12 1_555 1_555
H16 C17 1_555 1_555
Cu1C N3 1_555 1_555
N3C Cu1 1_555 1_555
C2 C9 1_555 1_555
C4 C10 1_555 1_555
C5 C6 1_555 1_555
C6 C15 1_555 1_555
C7 C14 1_555 1_555
C8 C13 1_555 1_555
N3 C17 1_555 1_555

#END
