
#######################################################################
#
#                 Cambridge Crystallographic Data Centre
#                                CCDC 
#
#######################################################################
#
# If this CIF has been generated from an entry in the Cambridge 
# Structural Database, then it will include bibliographic, chemical, 
# crystal, experimental, refinement or atomic coordinate data resulting 
# from the CCDC's data processing and validation procedures.
#
#######################################################################

data_GANPES
_symmetry_cell_setting           monoclinic
_symmetry_space_group_name_H-M   'P 21/c'
_symmetry_Int_Tables_number      14
_space_group_name_Hall           '-P 2ybc'
loop_
_symmetry_equiv_pos_site_id
_symmetry_equiv_pos_as_xyz
1 x,y,z
2 -x,1/2+y,1/2-z
3 -x,-y,-z
4 x,1/2-y,1/2+z
_cell_length_a                   10.8382(9)
_cell_length_b                   17.3428(16)
_cell_length_c                   17.7939(17)
_cell_angle_alpha                90
_cell_angle_beta                 100.7810(10)
_cell_angle_gamma                90
_cell_volume                     3285.59
loop_
_atom_site_label
_atom_site_type_symbol
_atom_site_fract_x
_atom_site_fract_y
_atom_site_fract_z
Zn1 Zn -0.39449(6) 0.50406(4) 0.24221(4)
O1 O -0.3107(4) 0.5943(2) 0.2949(2)
O2 O -0.1690(4) 0.5185(2) 0.3671(2)
O3 O -0.0023(4) 0.57744(19) 0.4719(2)
H1 H -0.0409 0.5448 0.4434
O4 O 0.5308(4) 0.9456(2) 0.6440(2)
O5 O 0.3738(4) 0.9219(2) 0.7034(2)
O6 O 0.2189(4) 0.8163(2) 0.6615(2)
H2 H 0.2553 0.8513 0.6876
N1 N -0.1407(4) 0.3384(3) 0.1945(3)
N2 N -0.2782(4) 0.4302(3) 0.2033(3)
N3 N 0.3730(5) 0.4304(3) 0.3875(3)
N4 N 0.5190(5) 0.4570(3) 0.3194(3)
C1 C -0.2182(6) 0.5840(4) 0.3479(3)
C2 C 0.4305(7) 0.9104(3) 0.6495(4)
C3 C 0.1095(5) 0.7031(3) 0.5576(3)
H3 H 0.1300 0.6487 0.5626
H4 H 0.0865 0.7195 0.6052
C4 C -0.0044(6) 0.7121(3) 0.4946(3)
C5 C -0.0545(5) 0.6475(3) 0.4542(3)
C6 C -0.1615(5) 0.6530(3) 0.3926(3)
C7 C -0.2144(5) 0.7256(3) 0.3752(3)
H5 H -0.2815 0.7305 0.3344
C8 C -0.1694(6) 0.7915(3) 0.4174(3)
C9 C -0.0664(5) 0.7846(3) 0.4788(3)
C10 C -0.0301(6) 0.8524(3) 0.5231(3)
H6 H 0.0375 0.8493 0.5638
C11 C -0.0892(7) 0.9204(4) 0.5084(4)
H7 H -0.0649 0.9625 0.5402
C12 C -0.1880(8) 0.9278(4) 0.4450(5)
H8 H -0.2263 0.9755 0.4338
C13 C -0.2281(6) 0.8654(4) 0.3996(4)
H9 H -0.2929 0.8708 0.3576
C14 C 0.2276(5) 0.7466(3) 0.5483(3)
C15 C 0.2754(6) 0.8037(3) 0.5997(3)
C16 C 0.3828(5) 0.8488(3) 0.5920(3)
C17 C 0.4395(5) 0.8354(3) 0.5311(3)
H10 H 0.5063 0.8666 0.5241
C18 C 0.3996(5) 0.7754(3) 0.4782(3)
C19 C 0.2920(5) 0.7298(3) 0.4877(3)
C20 C 0.2585(6) 0.6664(3) 0.4362(3)
H11 H 0.1903 0.6353 0.4407
C21 C 0.3278(6) 0.6513(3) 0.3798(3)
H12 H 0.3052 0.6097 0.3472
C22 C 0.4289(7) 0.6959(4) 0.3705(4)
H13 H 0.4727 0.6849 0.3316
C23 C 0.4644(6) 0.7565(4) 0.4189(4)
H14 H 0.5332 0.7862 0.4125
C24 C -0.2301(6) 0.3633(3) 0.2317(3)
H15 H -0.2551 0.3372 0.2720
C25 C -0.2178(7) 0.4463(4) 0.1459(4)
H16 H -0.2320 0.4898 0.1150
C26 C -0.1329(7) 0.3902(4) 0.1392(4)
H17 H -0.0802 0.3880 0.1036
C27 C 0.3969(6) 0.4536(3) 0.3211(3)
H18 H 0.3345 0.4664 0.2796
C28 C 0.5744(6) 0.4335(4) 0.3922(4)
H19 H 0.6606 0.4293 0.4096
C29 C 0.4875(7) 0.4179(4) 0.4341(4)
H20 H 0.5015 0.4017 0.4848
C30 C -0.0691(6) 0.2657(3) 0.2106(3)
H21 H -0.0437 0.2486 0.1639
H22 H -0.1246 0.2267 0.2249
C31 C 0.2486(6) 0.4144(3) 0.4057(3)
H23 H 0.1919 0.4568 0.3884
H24 H 0.2554 0.4094 0.4607
C32 C 0.0448(6) 0.2705(3) 0.2720(3)
C33 C 0.0892(6) 0.3386(3) 0.3090(3)
H25 H 0.0464 0.3845 0.2953
C34 C 0.1966(6) 0.3394(4) 0.3661(4)
C35 C 0.2594(6) 0.2702(4) 0.3865(4)
H26 H 0.3304 0.2691 0.4250
C36 C 0.2149(7) 0.2026(4) 0.3485(4)
H27 H 0.2580 0.1566 0.3610
C37 C 0.1091(6) 0.2030(4) 0.2934(4)
H28 H 0.0797 0.1569 0.2699
Zn1_2 Zn 0.60551(6) 0.50406(4) 0.24221(4)
Zn1C Zn 0.60551(6) 0.99594(4) 0.74221(4)
O4C O -0.4692(4) 0.5544(2) 0.1440(2)
N4_2 N -0.4810(5) 0.4570(3) 0.3194(3)
loop_
_geom_bond_atom_site_label_1
_geom_bond_atom_site_label_2
_geom_bond_site_symmetry_1
_geom_bond_site_symmetry_2
Zn1 O1 1_555 1_555
O1 C1 1_555 1_555
O2 C1 1_555 1_555
O3 H1 1_555 1_555
O4 C2 1_555 1_555
O5 C2 1_555 1_555
O6 H2 1_555 1_555
N1 C24 1_555 1_555
N2 Zn1 1_555 1_555
N3 C27 1_555 1_555
N4 C27 1_555 1_555
C1 C6 1_555 1_555
C2 C16 1_555 1_555
C3 H3 1_555 1_555
H4 C3 1_555 1_555
C4 C3 1_555 1_555
C5 O3 1_555 1_555
C6 C5 1_555 1_555
C7 C6 1_555 1_555
H5 C7 1_555 1_555
C8 C7 1_555 1_555
C9 C4 1_555 1_555
C10 C9 1_555 1_555
H6 C10 1_555 1_555
C11 C10 1_555 1_555
H7 C11 1_555 1_555
C12 C11 1_555 1_555
H8 C12 1_555 1_555
C13 C8 1_555 1_555
H9 C13 1_555 1_555
C14 C3 1_555 1_555
C15 O6 1_555 1_555
C16 C15 1_555 1_555
C17 C16 1_555 1_555
H10 C17 1_555 1_555
C18 C17 1_555 1_555
C19 C14 1_555 1_555
C20 C19 1_555 1_555
H11 C20 1_555 1_555
C21 C20 1_555 1_555
H12 C21 1_555 1_555
C22 C21 1_555 1_555
H13 C22 1_555 1_555
C23 C18 1_555 1_555
H14 C23 1_555 1_555
C24 N2 1_555 1_555
H15 C24 1_555 1_555
C25 N2 1_555 1_555
H16 C25 1_555 1_555
C26 N1 1_555 1_555
H17 C26 1_555 1_555
C27 H18 1_555 1_555
C28 N4 1_555 1_555
H19 C28 1_555 1_555
C29 N3 1_555 1_555
H20 C29 1_555 1_555
C30 N1 1_555 1_555
H21 C30 1_555 1_555
H22 C30 1_555 1_555
C31 N3 1_555 1_555
H23 C31 1_555 1_555
H24 C31 1_555 1_555
C32 C30 1_555 1_555
C33 C32 1_555 1_555
H25 C33 1_555 1_555
C34 C31 1_555 1_555
C35 C34 1_555 1_555
H26 C35 1_555 1_555
C36 C35 1_555 1_555
H27 C36 1_555 1_555
C37 C32 1_555 1_555
H28 C37 1_555 1_555
Zn1_2 N4 1_555 1_555
Zn1C O4 1_555 1_555
O4C Zn1 1_555 1_555
N4_2 Zn1 1_555 1_555
C4 C5 1_555 1_555
C8 C9 1_555 1_555
C12 C13 1_555 1_555
C14 C15 1_555 1_555
C18 C19 1_555 1_555
C22 C23 1_555 1_555
C25 C26 1_555 1_555
C28 C29 1_555 1_555
C33 C34 1_555 1_555
C36 C37 1_555 1_555

#END
