
#######################################################################
#
#                 Cambridge Crystallographic Data Centre
#                                CCDC 
#
#######################################################################
#
# If this CIF has been generated from an entry in the Cambridge 
# Structural Database, then it will include bibliographic, chemical, 
# crystal, experimental, refinement or atomic coordinate data resulting 
# from the CCDC's data processing and validation procedures.
#
#######################################################################

data_GANPER
_symmetry_cell_setting           orthorhombic
_symmetry_space_group_name_H-M   'P n n a'
_symmetry_Int_Tables_number      52
_space_group_name_Hall           '-P 2a 2bc'
loop_
_symmetry_equiv_pos_site_id
_symmetry_equiv_pos_as_xyz
1 x,y,z
2 1/2-x,-y,z
3 x,1/2-y,1/2-z
4 1/2-x,1/2+y,1/2-z
5 -x,-y,-z
6 1/2+x,y,-z
7 -x,1/2+y,1/2+z
8 1/2+x,1/2-y,1/2+z
_cell_length_a                   10.839(14)
_cell_length_b                   13.208(17)
_cell_length_c                   19.75(2)
_cell_angle_alpha                90
_cell_angle_beta                 90
_cell_angle_gamma                90
_cell_volume                     2827.44
loop_
_atom_site_label
_atom_site_type_symbol
_atom_site_fract_x
_atom_site_fract_y
_atom_site_fract_z
Cu1 Cu 0.19712(10) 0.7500 0.7500
N1 N 0.3323(5) 0.7164(4) 0.6806(3)
C1 C 0.3298(6) 0.6239(5) 0.6514(3)
H1 H 0.2624 0.5821 0.6593
C2 C 0.4232(6) 0.5894(5) 0.6106(3)
H2 H 0.4179 0.5255 0.5911
C3 C 0.5242(6) 0.6490(5) 0.5985(3)
C4 C 0.5281(7) 0.7446(5) 0.6284(4)
H3 H 0.5951 0.7873 0.6213
C5 C 0.4305(6) 0.7749(5) 0.6689(4)
H4 H 0.4335 0.8387 0.6887
S1 S 0.63984(17) 0.59771(15) 0.54553(10)
S2 S 0.75454(18) 0.71398(17) 0.52256(9)
C6 C 0.8728(6) 0.7112(5) 0.5847(3)
C7 C 0.8711(6) 0.6549(5) 0.6442(3)
H5 H 0.8056 0.6117 0.6537
C8 C 0.9681(6) 0.6642(5) 0.6888(3)
H6 H 0.9664 0.6259 0.7283
N2 N 1.0643(5) 0.7251(4) 0.6784(3)
C9 C 1.0660(6) 0.7789(5) 0.6198(3)
H7 H 1.1326 0.8215 0.6116
C10 C 0.9741(6) 0.7732(5) 0.5722(3)
H8 H 0.9793 0.8103 0.5323
N3 N 0.2500 1.0000 0.7147(4)
N4 N 0.1884(7) 0.9278(5) 0.7155(4)
Cu1_2 Cu 1.19712(10) 0.7500 0.7500
Cu1A Cu 0.30288(10) 1.2500 0.7500
N1B N 0.3323(5) 0.7836(4) 0.8194(3)
C1B C 0.3298(6) 0.8761(5) 0.8486(3)
H1B H 0.2624 0.9179 0.8407
C2B C 0.4232(6) 0.9106(5) 0.8894(3)
H2B H 0.4179 0.9745 0.9089
C3B C 0.5242(6) 0.8510(5) 0.9015(3)
C4B C 0.5281(7) 0.7554(5) 0.8716(4)
H3B H 0.5951 0.7127 0.8787
C5B C 0.4305(6) 0.7251(5) 0.8311(4)
H4B H 0.4335 0.6613 0.8113
S1B S 0.63984(17) 0.90229(15) 0.95447(10)
S2B S 0.75454(18) 0.78602(17) 0.97744(9)
C6B C 0.8728(6) 0.7888(5) 0.9153(3)
C7B C 0.8711(6) 0.8451(5) 0.8558(3)
H5B H 0.8056 0.8883 0.8463
C8B C 0.9681(6) 0.8358(5) 0.8112(3)
H6B H 0.9664 0.8741 0.7717
N2B N 1.0643(5) 0.7749(4) 0.8216(3)
N2_2 N 0.0643(5) 0.7251(4) 0.6784(3)
N2B_2 N 0.0643(5) 0.7749(4) 0.8216(3)
C9B C 1.0660(6) 0.7211(5) 0.8802(3)
H7B H 1.1326 0.6785 0.8884
C10B C 0.9741(6) 0.7268(5) 0.9278(3)
H8B H 0.9793 0.6897 0.9677
N4A N 0.3116(7) 1.0722(5) 0.7155(4)
N4B N 0.1884(7) 0.5722(5) 0.7845(4)
Cl1 Cl 0.7500 0.5000 0.8130(2)
O1 O 0.8202(15) 0.4539(12) 0.7633(8)
O2 O 0.7927(19) 0.5890(12) 0.8346(10)
O1A O 0.6798(15) 0.5461(12) 0.7633(8)
O2A O 0.7073(19) 0.4110(12) 0.8346(10)
O6 O 0.989(3) 1.028(2) 0.5484(14)
O7 O 0.7500 1.0000 0.475(2)
O3? O 0.8771(16) 0.503(4) 0.822(2)
O4? O 0.687(4) 0.525(7) 0.871(2)
O5? O 0.881(3) 0.973(2) 0.4471(15)
loop_
_geom_bond_atom_site_label_1
_geom_bond_atom_site_label_2
_geom_bond_site_symmetry_1
_geom_bond_site_symmetry_2
Cu1 N1 1_555 1_555
N1 C1 1_555 1_555
C1 H1 1_555 1_555
C2 C1 1_555 1_555
H2 C2 1_555 1_555
C3 C2 1_555 1_555
C4 C3 1_555 1_555
H3 C4 1_555 1_555
C5 N1 1_555 1_555
H4 C5 1_555 1_555
S1 C3 1_555 1_555
S2 S1 1_555 1_555
C6 S2 1_555 1_555
C7 C6 1_555 1_555
H5 C7 1_555 1_555
C8 C7 1_555 1_555
H6 C8 1_555 1_555
N2 C8 1_555 1_555
C9 N2 1_555 1_555
H7 C9 1_555 1_555
C10 C6 1_555 1_555
H8 C10 1_555 1_555
N3 N4 1_555 1_555
N4 Cu1 1_555 1_555
Cl1 O1 1_555 1_555
O2 Cl1 1_555 1_555
Cu1_2 N2 1_555 1_555
Cu1A N4A 1_555 1_555
N1B Cu1 1_555 1_555
C1B N1B 1_555 1_555
H1B C1B 1_555 1_555
C2B C1B 1_555 1_555
H2B C2B 1_555 1_555
C3B C2B 1_555 1_555
C4B C3B 1_555 1_555
H3B C4B 1_555 1_555
C5B N1B 1_555 1_555
H4B C5B 1_555 1_555
S1B C3B 1_555 1_555
S2B S1B 1_555 1_555
C6B S2B 1_555 1_555
C7B C6B 1_555 1_555
H5B C7B 1_555 1_555
C8B C7B 1_555 1_555
H6B C8B 1_555 1_555
N2B Cu1_2 1_555 1_555
N2_2 Cu1 1_555 1_555
N2B_2 Cu1 1_555 1_555
C9B N2B 1_555 1_555
H7B C9B 1_555 1_555
C10B C6B 1_555 1_555
H8B C10B 1_555 1_555
N4A N3 1_555 1_555
N4B Cu1 1_555 1_555
O1A Cl1 1_555 1_555
O2A Cl1 1_555 1_555
C4 C5 1_555 1_555
C9 C10 1_555 1_555
C4B C5B 1_555 1_555
C8B N2B 1_555 1_555
C9B C10B 1_555 1_555

#END
