
#######################################################################
#
#                 Cambridge Crystallographic Data Centre
#                                CCDC 
#
#######################################################################
#
# If this CIF has been generated from an entry in the Cambridge 
# Structural Database, then it will include bibliographic, chemical, 
# crystal, experimental, refinement or atomic coordinate data resulting 
# from the CCDC's data processing and validation procedures.
#
#######################################################################

data_GANTOG
_symmetry_cell_setting           monoclinic
_symmetry_space_group_name_H-M   'C 2/c'
_symmetry_Int_Tables_number      15
_space_group_name_Hall           '-C 2yn'
loop_
_symmetry_equiv_pos_site_id
_symmetry_equiv_pos_as_xyz
1 x,y,z
2 -x,y,1/2-z
3 1/2+x,1/2+y,z
4 1/2-x,1/2+y,1/2-z
5 -x,-y,-z
6 x,-y,1/2+z
7 1/2-x,1/2-y,-z
8 1/2+x,1/2-y,1/2+z
_cell_length_a                   28.5458(19)
_cell_length_b                   8.2274(5)
_cell_length_c                   15.3810(10)
_cell_angle_alpha                90
_cell_angle_beta                 112.7080(10)
_cell_angle_gamma                90
_cell_volume                     3332.33
loop_
_atom_site_label
_atom_site_type_symbol
_atom_site_fract_x
_atom_site_fract_y
_atom_site_fract_z
C1 C 0.34654(8) 0.5497(3) 0.54346(16)
C2 C 0.32133(8) 0.3940(2) 0.49788(15)
C3 C 0.34221(7) 0.2429(2) 0.53538(14)
H1 H 0.3719 0.2423 0.5895
C4 C 0.27770(8) 0.1014(2) 0.41904(14)
C5 C 0.25472(8) 0.2488(2) 0.37712(15)
C6 C 0.27767(8) 0.3957(2) 0.41891(15)
H2 H 0.2630 0.4943 0.3926
C7 C 0.25462(8) -0.0467(3) 0.37961(16)
H3 H 0.2697 -0.1447 0.4061
C8 C 0.20978(9) -0.0464(3) 0.30198(16)
H4 H 0.1940 -0.1444 0.2773
C9 C 0.18757(9) 0.1000(3) 0.25964(17)
H5 H 0.1577 0.0981 0.2059
C10 C 0.20908(8) 0.2448(3) 0.29603(16)
H6 H 0.1938 0.3413 0.2676
C11 C 0.40746(8) -0.0031(2) 0.25028(14)
C12 C 0.43039(8) -0.0798(2) 0.34589(14)
C13 C 0.40592(8) -0.0688(2) 0.40905(14)
H7 H 0.3751 -0.0139 0.3894
C14 C 0.47532(8) -0.1623(3) 0.37387(15)
H8 H 0.4921 -0.1728 0.3329
C15 C 0.49631(8) -0.2315(2) 0.46445(14)
C16 C 0.46983(8) -0.2114(2) 0.52540(14)
C17 C 0.49105(8) -0.2735(2) 0.61748(15)
H9 H 0.4741 -0.2599 0.6579
C18 C 0.53653(9) -0.3542(3) 0.64796(16)
H10 H 0.5507 -0.3935 0.7094
C19 C 0.56197(9) -0.3778(3) 0.58655(18)
H11 H 0.5925 -0.4344 0.6074
C20 C 0.54238(8) -0.3188(3) 0.49743(17)
H12 H 0.5595 -0.3361 0.4576
N1 N 0.32245(6) 0.10129(19) 0.49881(12)
N2 N 0.42383(6) -0.13141(19) 0.49468(12)
O1 O 0.32218(6) 0.67760(18) 0.50681(12)
O2 O 0.38802(6) 0.54807(19) 0.61082(12)
O3 O 0.36675(6) 0.07521(18) 0.22734(10)
O4 O 0.43035(6) -0.02228(19) 0.19529(10)
Cd1 Cd 0.371130(5) -0.122200(17) 0.577600(10)
O1_2 O 0.32218(6) -0.32240(18) 0.50681(12)
O3E O 0.36675(6) -0.07521(18) 0.72734(10)
O4E O 0.43035(6) 0.02228(19) 0.69529(10)
Cd1E Cd 0.371130(5) 0.122200(17) 0.077600(10)
Cd1_2 Cd 0.371130(5) 0.877800(17) 0.577600(10)
loop_
_geom_bond_atom_site_label_1
_geom_bond_atom_site_label_2
_geom_bond_site_symmetry_1
_geom_bond_site_symmetry_2
C1 C2 1_555 1_555
C2 C3 1_555 1_555
C3 H1 1_555 1_555
C4 C5 1_555 1_555
C5 C6 1_555 1_555
C6 C2 1_555 1_555
H2 C6 1_555 1_555
C7 C4 1_555 1_555
H3 C7 1_555 1_555
C8 C7 1_555 1_555
H4 C8 1_555 1_555
C9 C8 1_555 1_555
H5 C9 1_555 1_555
C10 C5 1_555 1_555
H6 C10 1_555 1_555
C11 C12 1_555 1_555
C12 C13 1_555 1_555
C13 H7 1_555 1_555
C14 C12 1_555 1_555
H8 C14 1_555 1_555
C15 C14 1_555 1_555
C16 C15 1_555 1_555
C17 C16 1_555 1_555
H9 C17 1_555 1_555
C18 C17 1_555 1_555
H10 C18 1_555 1_555
C19 C18 1_555 1_555
H11 C19 1_555 1_555
C20 C15 1_555 1_555
H12 C20 1_555 1_555
N1 C3 1_555 1_555
N2 C13 1_555 1_555
O1 C1 1_555 1_555
O2 C1 1_555 1_555
O3 C11 1_555 1_555
O4 C11 1_555 1_555
Cd1 N1 1_555 1_555
O1_2 Cd1 1_555 1_555
O3E Cd1 1_555 1_555
O4E Cd1 1_555 1_555
Cd1E O3 1_555 1_555
Cd1_2 O1 1_555 1_555
C4 N1 1_555 1_555
C9 C10 1_555 1_555
C16 N2 1_555 1_555
C19 C20 1_555 1_555
N2 Cd1 1_555 1_555
O4 Cd1E 1_555 1_555

#END
