
#######################################################################
#
#                 Cambridge Crystallographic Data Centre
#                                CCDC 
#
#######################################################################
#
# If this CIF has been generated from an entry in the Cambridge 
# Structural Database, then it will include bibliographic, chemical, 
# crystal, experimental, refinement or atomic coordinate data resulting 
# from the CCDC's data processing and validation procedures.
#
#######################################################################

data_GANTOG01
_symmetry_cell_setting           monoclinic
_symmetry_space_group_name_H-M   'C 2/c'
_symmetry_Int_Tables_number      15
_space_group_name_Hall           '-C 2yn'
loop_
_symmetry_equiv_pos_site_id
_symmetry_equiv_pos_as_xyz
1 x,y,z
2 -x,y,1/2-z
3 1/2+x,1/2+y,z
4 1/2-x,1/2+y,1/2-z
5 -x,-y,-z
6 x,-y,1/2+z
7 1/2-x,1/2-y,-z
8 1/2+x,1/2-y,1/2+z
_cell_length_a                   28.777(8)
_cell_length_b                   8.059(2)
_cell_length_c                   15.281(4)
_cell_angle_alpha                90
_cell_angle_beta                 114.007(4)
_cell_angle_gamma                90
_cell_volume                     3237.32
loop_
_atom_site_label
_atom_site_type_symbol
_atom_site_fract_x
_atom_site_fract_y
_atom_site_fract_z
Cd1 Cd 0.12695(4) -0.12339(12) 0.43024(7)
O1 O 0.0776(3) 0.0215(9) 0.8096(5)
O2 O 0.1434(3) 0.0893(10) 0.7775(6)
O3 O 0.1050(3) 0.5265(9) 0.3728(6)
O4 O 0.1658(3) 0.6755(9) 0.4807(6)
N1 N 0.0800(3) -0.1245(9) 0.5098(5)
N2 N 0.1732(3) 0.0882(9) 0.4939(6)
C1 C 0.0988(4) -0.0565(12) 0.5944(7)
H1 H 0.1296 -0.0009 0.6129
C2 C 0.0759(4) -0.0614(13) 0.6591(7)
C3 C 0.1023(4) 0.0255(13) 0.7563(8)
C4 C 0.0307(4) -0.1434(14) 0.6327(8)
H2 H 0.0146 -0.1493 0.6745
C5 C 0.0086(4) -0.2192(13) 0.5417(7)
C6 C -0.0381(4) -0.3063(15) 0.5107(9)
H3 H -0.0546 -0.3179 0.5515
C7 C -0.0593(4) -0.3745(15) 0.4192(9)
H4 H -0.0901 -0.4313 0.3986
C8 C -0.0343(4) -0.3572(13) 0.3588(8)
H5 H -0.0493 -0.4001 0.2971
C9 C 0.0111(4) -0.2796(12) 0.3875(7)
H6 H 0.0276 -0.2733 0.3464
C10 C 0.0341(3) -0.2069(12) 0.4812(7)
C11 C 0.1523(3) 0.2316(11) 0.4559(7)
H7 H 0.1221 0.2293 0.4011
C12 C 0.1729(4) 0.3866(12) 0.4932(7)
C13 C 0.1453(4) 0.5419(14) 0.4428(8)
C14 C 0.2171(4) 0.3922(12) 0.5731(7)
H8 H 0.2312 0.4937 0.5998
C15 C 0.2418(4) 0.2410(13) 0.6157(7)
C16 C 0.2881(4) 0.2420(15) 0.6971(8)
H9 H 0.3033 0.3422 0.7239
C17 C 0.3108(5) 0.0960(17) 0.7367(9)
H10 H 0.3408 0.0953 0.7919
C18 C 0.2879(5) -0.0548(16) 0.6924(9)
H11 H 0.3042 -0.1542 0.7178
C19 C 0.2434(4) -0.0593(13) 0.6147(8)
H12 H 0.2290 -0.1604 0.5878
C20 C 0.2191(4) 0.0896(12) 0.5752(7)
Cd1_2 Cd 0.12695(4) 0.87661(12) 0.43024(7)
Cd1E Cd 0.12695(4) 0.12339(12) 0.93024(7)
O1E O 0.0776(3) -0.0215(9) 0.3096(5)
O2E O 0.1434(3) -0.0893(10) 0.2775(6)
O4_2 O 0.1658(3) -0.3245(9) 0.4807(6)
loop_
_geom_bond_atom_site_label_1
_geom_bond_atom_site_label_2
_geom_bond_site_symmetry_1
_geom_bond_site_symmetry_2
Cd1 N1 1_555 1_555
O1 C3 1_555 1_555
O2 C3 1_555 1_555
O3 C13 1_555 1_555
O4 C13 1_555 1_555
N1 C1 1_555 1_555
N2 Cd1 1_555 1_555
C1 H1 1_555 1_555
C2 C1 1_555 1_555
C3 C2 1_555 1_555
C4 C2 1_555 1_555
H2 C4 1_555 1_555
C5 C4 1_555 1_555
C6 C5 1_555 1_555
H3 C6 1_555 1_555
C7 C6 1_555 1_555
H4 C7 1_555 1_555
C8 C7 1_555 1_555
H5 C8 1_555 1_555
C9 C8 1_555 1_555
H6 C9 1_555 1_555
C10 N1 1_555 1_555
C11 N2 1_555 1_555
H7 C11 1_555 1_555
C12 C11 1_555 1_555
C13 C12 1_555 1_555
C14 C12 1_555 1_555
H8 C14 1_555 1_555
C15 C14 1_555 1_555
C16 C15 1_555 1_555
H9 C16 1_555 1_555
C17 C16 1_555 1_555
H10 C17 1_555 1_555
C18 C17 1_555 1_555
H11 C18 1_555 1_555
C19 C18 1_555 1_555
H12 C19 1_555 1_555
C20 N2 1_555 1_555
Cd1_2 O4 1_555 1_555
Cd1E O1 1_555 1_555
O1E Cd1 1_555 1_555
O2E Cd1 1_555 1_555
O4_2 Cd1 1_555 1_555
O2 Cd1E 1_555 1_555
C5 C10 1_555 1_555
C9 C10 1_555 1_555
C15 C20 1_555 1_555
C19 C20 1_555 1_555

#END
