
#######################################################################
#
#                 Cambridge Crystallographic Data Centre
#                                CCDC 
#
#######################################################################
#
# If this CIF has been generated from an entry in the Cambridge 
# Structural Database, then it will include bibliographic, chemical, 
# crystal, experimental, refinement or atomic coordinate data resulting 
# from the CCDC's data processing and validation procedures.
#
#######################################################################

data_GANTOG02
_symmetry_cell_setting           monoclinic
_symmetry_space_group_name_H-M   'C 2/c'
_symmetry_Int_Tables_number      15
_space_group_name_Hall           '-C 2yn'
loop_
_symmetry_equiv_pos_site_id
_symmetry_equiv_pos_as_xyz
1 x,y,z
2 -x,y,1/2-z
3 1/2+x,1/2+y,z
4 1/2-x,1/2+y,1/2-z
5 -x,-y,-z
6 x,-y,1/2+z
7 1/2-x,1/2-y,-z
8 1/2+x,1/2-y,1/2+z
_cell_length_a                   28.893(6)
_cell_length_b                   8.2386(16)
_cell_length_c                   15.421(3)
_cell_angle_alpha                90
_cell_angle_beta                 113.10(3)
_cell_angle_gamma                90
_cell_volume                     3376.46
loop_
_atom_site_label
_atom_site_type_symbol
_atom_site_fract_x
_atom_site_fract_y
_atom_site_fract_z
Cd1 Cd 0.371433(7) 0.12502(2) 0.575904(13)
O1 O 0.42994(8) 0.0186(3) 0.19457(15)
O2 O 0.32278(10) -0.6751(3) 0.50480(19)
O3 O 0.38743(9) -0.5458(3) 0.60901(18)
O4 O 0.36682(8) -0.0754(3) 0.22604(15)
N1 N 0.42361(8) 0.1331(3) 0.49277(16)
N2 N 0.32261(8) -0.0988(2) 0.49752(17)
C1 C 0.46927(10) 0.2113(3) 0.52388(19)
C2 C 0.49063(12) 0.2746(4) 0.6161(2)
H1 H 0.4739 0.2623 0.6564
C3 C 0.53546(13) 0.3534(4) 0.6465(2)
H2 H 0.5494 0.3931 0.7079
C4 C 0.56104(13) 0.3757(4) 0.5864(3)
H3 H 0.5913 0.4322 0.6076
C5 C 0.54162(12) 0.3149(4) 0.4972(3)
H4 H 0.5589 0.3299 0.4580
C6 C 0.49560(10) 0.2293(3) 0.4635(2)
C7 C 0.47491(11) 0.1590(4) 0.3733(2)
H5 H 0.4918 0.1673 0.3330
C8 C 0.43018(11) 0.0785(3) 0.34471(19)
C9 C 0.40565(10) 0.0698(3) 0.40755(19)
H6 H 0.3749 0.0160 0.3876
C10 C 0.40713(11) 0.0017(3) 0.24912(19)
C11 C 0.32126(10) -0.3913(3) 0.4966(2)
C12 C 0.34670(12) -0.5474(3) 0.5420(2)
C13 C 0.34250(10) -0.2407(3) 0.5342(2)
H7 H 0.3722 -0.2403 0.5879
C14 C 0.27804(10) -0.0984(3) 0.41882(19)
C15 C 0.25463(12) 0.0497(3) 0.3794(2)
H8 H 0.2696 0.1476 0.4057
C16 C 0.20990(13) 0.0492(4) 0.3024(3)
H9 H 0.1944 0.1472 0.2776
C17 C 0.18720(13) -0.0969(4) 0.2605(3)
H10 H 0.1572 -0.0948 0.2074
C18 C 0.20866(12) -0.2415(4) 0.2968(2)
H11 H 0.1932 -0.3379 0.2687
C19 C 0.25432(10) -0.2460(3) 0.3769(2)
C20 C 0.27744(11) -0.3927(3) 0.4188(2)
H12 H 0.2627 -0.4912 0.3930
Cd1_2 Cd 0.371433(7) -0.87498(2) 0.575904(13)
Cd1E Cd 0.371433(7) -0.12502(2) 0.075904(13)
O1E O 0.42994(8) -0.0186(3) 0.69457(15)
O2_2 O 0.32278(10) 0.3249(3) 0.50480(19)
O3_2 O 0.38743(9) 0.4542(3) 0.60901(18)
O4E O 0.36682(8) 0.0754(3) 0.72604(15)
loop_
_geom_bond_atom_site_label_1
_geom_bond_atom_site_label_2
_geom_bond_site_symmetry_1
_geom_bond_site_symmetry_2
Cd1 N1 1_555 1_555
O1 C10 1_555 1_555
O2 C12 1_555 1_555
O3 C12 1_555 1_555
O4 C10 1_555 1_555
N1 C1 1_555 1_555
N2 Cd1 1_555 1_555
C1 C2 1_555 1_555
C2 H1 1_555 1_555
C3 C2 1_555 1_555
H2 C3 1_555 1_555
C4 C3 1_555 1_555
H3 C4 1_555 1_555
C5 C4 1_555 1_555
H4 C5 1_555 1_555
C6 C1 1_555 1_555
C7 C6 1_555 1_555
H5 C7 1_555 1_555
C8 C7 1_555 1_555
C9 N1 1_555 1_555
H6 C9 1_555 1_555
C10 C8 1_555 1_555
C11 C12 1_555 1_555
C13 N2 1_555 1_555
H7 C13 1_555 1_555
C14 N2 1_555 1_555
C15 C14 1_555 1_555
H8 C15 1_555 1_555
C16 C15 1_555 1_555
H9 C16 1_555 1_555
C17 C16 1_555 1_555
H10 C17 1_555 1_555
C18 C17 1_555 1_555
H11 C18 1_555 1_555
C19 C14 1_555 1_555
C20 C11 1_555 1_555
H12 C20 1_555 1_555
Cd1_2 O2 1_555 1_555
Cd1E O1 1_555 1_555
O1E Cd1 1_555 1_555
O2_2 Cd1 1_555 1_555
O3_2 Cd1 1_555 1_555
O4E Cd1 1_555 1_555
O3 Cd1_2 1_555 1_555
O4 Cd1E 1_555 1_555
C5 C6 1_555 1_555
C8 C9 1_555 1_555
C11 C13 1_555 1_555
C18 C19 1_555 1_555
C19 C20 1_555 1_555

#END
