
#######################################################################
#
#                 Cambridge Crystallographic Data Centre
#                                CCDC 
#
#######################################################################
#
# If this CIF has been generated from an entry in the Cambridge 
# Structural Database, then it will include bibliographic, chemical, 
# crystal, experimental, refinement or atomic coordinate data resulting 
# from the CCDC's data processing and validation procedures.
#
#######################################################################

data_GAPBIK
_symmetry_cell_setting           monoclinic
_symmetry_space_group_name_H-M   'P 21/n'
_symmetry_Int_Tables_number      14
_space_group_name_Hall           '-P 2yn'
loop_
_symmetry_equiv_pos_site_id
_symmetry_equiv_pos_as_xyz
1 x,y,z
2 1/2-x,1/2+y,1/2-z
3 -x,-y,-z
4 1/2+x,1/2-y,1/2+z
_cell_length_a                   12.1307(9)
_cell_length_b                   12.1554(9)
_cell_length_c                   13.8209(10)
_cell_angle_alpha                90
_cell_angle_beta                 102.4660(10)
_cell_angle_gamma                90
_cell_volume                     1989.89
loop_
_atom_site_label
_atom_site_type_symbol
_atom_site_fract_x
_atom_site_fract_y
_atom_site_fract_z
Fe1 Fe 0.5000 0.5000 0.5000
O1 O 0.52584(13) 0.46637(12) 0.65141(11)
H4 H 0.576(2) 0.417(2) 0.676(2)
H8 H 0.4716(18) 0.466(2) 0.6803(19)
N3 N 0.49078(14) 0.32436(14) 0.47352(13)
C3 C 0.49325(17) 0.23044(17) 0.47862(15)
C4 C 0.49595(17) 0.11201(16) 0.48873(15)
C5 C 0.48332(19) 0.06644(17) 0.57797(16)
H9 H 0.4724 0.1125 0.6306
C6 C 0.51318(19) 0.04656(17) 0.41060(16)
H10 H 0.5224 0.0791 0.3503
N4 N 0.32197(14) 0.50641(13) 0.48775(13)
C7 C 0.22841(17) 0.50554(16) 0.48975(15)
C8 C 0.11031(17) 0.50257(16) 0.49328(15)
C9 C 0.07732(17) 0.42932(16) 0.55939(15)
H11 H 0.1310 0.3821 0.5994
C10 C 0.03464(17) 0.57343(17) 0.43427(15)
H12 H 0.0595 0.6230 0.3903
Fe1_2 Fe -0.5000 0.5000 0.5000
Fe1_3 Fe 0.5000 -0.5000 0.5000
O1B O 0.47416(13) 0.53363(12) 0.34859(11)
H4B H 0.424(2) 0.583(2) 0.324(2)
H8B H 0.5284(18) 0.534(2) 0.3197(19)
N3B N 0.50922(14) -0.32436(14) 0.52648(13)
N3B_2 N 0.50922(14) 0.67564(14) 0.52648(13)
C3B C 0.50675(17) -0.23044(17) 0.52138(15)
C4B C 0.50405(17) -0.11201(16) 0.51127(15)
C5B C 0.51668(19) -0.06644(17) 0.42203(16)
H9B H 0.5276 -0.1125 0.3694
C6B C 0.48682(19) -0.04656(17) 0.58940(16)
H10B H 0.4776 -0.0791 0.6497
N4B N -0.32197(14) 0.49359(13) 0.51225(13)
N4B_2 N 0.67803(14) 0.49359(13) 0.51225(13)
C7B C -0.22841(17) 0.49446(16) 0.51025(15)
C8B C -0.11031(17) 0.49743(16) 0.50672(15)
C9B C -0.07732(17) 0.57068(16) 0.44061(15)
H11B H -0.1310 0.6179 0.4006
C10B C -0.03464(17) 0.42657(17) 0.56573(15)
H12B H -0.0595 0.3770 0.6097
Cl1 Cl 0.31456(5) 0.45491(4) 0.76369(4)
Fe2 Fe 0.29049(3) 0.29511(2) 0.83208(2)
Cl2 Cl 0.42489(5) 0.18565(5) 0.80885(4)
Cl3 Cl 0.12062(5) 0.23479(4) 0.76444(4)
Cl4 Cl 0.30172(5) 0.31921(5) 0.99164(4)
N1 N 0.74782(15) 0.26095(15) 0.71549(13)
C1 C 0.7964(2) 0.15057(19) 0.74355(17)
H1 H 0.7828 0.1301 0.8086
H2 H 0.8778 0.1522 0.7465
H3 H 0.7606 0.0965 0.6941
O2 O 0.64553(13) 0.26786(12) 0.68614(12)
O3 O 0.81115(14) 0.33973(14) 0.72375(13)
N2 N 0.67018(18) 0.34984(17) 0.93557(15)
C2 C 0.6206(3) 0.3774(2) 1.0194(2)
H5 H 0.6721 0.3550 1.0810
H6 H 0.5485 0.3388 1.0131
H7 H 0.6080 0.4570 1.0205
O4 O 0.6489(2) 0.41206(17) 0.86466(15)
O5 O 0.72545(17) 0.26586(17) 0.93885(17)
loop_
_geom_bond_atom_site_label_1
_geom_bond_atom_site_label_2
_geom_bond_site_symmetry_1
_geom_bond_site_symmetry_2
Fe1 O1 1_555 1_555
Cl1 Fe2 1_555 1_555
O1 H4 1_555 1_555
N1 C1 1_555 1_555
C1 H1 1_555 1_555
H2 C1 1_555 1_555
H3 C1 1_555 1_555
Fe2 Cl2 1_555 1_555
O2 N1 1_555 1_555
N2 C2 1_555 1_555
C2 H5 1_555 1_555
H6 C2 1_555 1_555
H7 C2 1_555 1_555
H8 O1 1_555 1_555
Cl3 Fe2 1_555 1_555
O3 N1 1_555 1_555
Cl4 Fe2 1_555 1_555
O4 N2 1_555 1_555
O5 N2 1_555 1_555
N3 Fe1 1_555 1_555
C3 N3 1_555 1_555
C4 C3 1_555 1_555
C5 C4 1_555 1_555
H9 C5 1_555 1_555
C6 C4 1_555 1_555
H10 C6 1_555 1_555
N4 Fe1 1_555 1_555
C7 N4 1_555 1_555
C8 C7 1_555 1_555
C9 C8 1_555 1_555
H11 C9 1_555 1_555
C10 C8 1_555 1_555
H12 C10 1_555 1_555
Fe1_2 N4B 1_555 1_555
Fe1_3 N3B 1_555 1_555
O1B Fe1 1_555 1_555
H4B O1B 1_555 1_555
H8B O1B 1_555 1_555
N3B C3B 1_555 1_555
N3B_2 Fe1 1_555 1_555
C3B C4B 1_555 1_555
C4B C5B 1_555 1_555
C5B C6 1_555 1_555
H9B C5B 1_555 1_555
C6B C5 1_555 1_555
H10B C6B 1_555 1_555
N4B C7B 1_555 1_555
N4B_2 Fe1 1_555 1_555
C7B C8B 1_555 1_555
C8B C9B 1_555 1_555
C9B C10 1_555 1_555
H11B C9B 1_555 1_555
C10B C9 1_555 1_555
H12B C10B 1_555 1_555
C4B C6B 1_555 1_555
C8B C10B 1_555 1_555

#END
