
#######################################################################
#
#                 Cambridge Crystallographic Data Centre
#                                CCDC 
#
#######################################################################
#
# If this CIF has been generated from an entry in the Cambridge 
# Structural Database, then it will include bibliographic, chemical, 
# crystal, experimental, refinement or atomic coordinate data resulting 
# from the CCDC's data processing and validation procedures.
#
#######################################################################

data_GAPBAC
_symmetry_cell_setting           monoclinic
_symmetry_space_group_name_H-M   'C 2/c'
_symmetry_Int_Tables_number      15
_space_group_name_Hall           '-C 2yn'
loop_
_symmetry_equiv_pos_site_id
_symmetry_equiv_pos_as_xyz
1 x,y,z
2 -x,y,1/2-z
3 1/2+x,1/2+y,z
4 1/2-x,1/2+y,1/2-z
5 -x,-y,-z
6 x,-y,1/2+z
7 1/2-x,1/2-y,-z
8 1/2+x,1/2-y,1/2+z
_cell_length_a                   22.276(3)
_cell_length_b                   8.0625(11)
_cell_length_c                   15.773(2)
_cell_angle_alpha                90
_cell_angle_beta                 123.757(2)
_cell_angle_gamma                90
_cell_volume                     2355.22
loop_
_atom_site_label
_atom_site_type_symbol
_atom_site_fract_x
_atom_site_fract_y
_atom_site_fract_z
Cu1 Cu 0.5000 0.74249(4) 0.2500
F1 F 0.41305(11) 0.2547(2) 0.15265(16)
F2 F 0.5000 0.4646(2) 0.2500
F3 F 0.52519(13) 0.25362(17) 0.16853(16)
F4 F 0.5000 0.0403(2) 0.2500
O1 O 0.28725(11) 0.3987(2) 0.25902(13)
N1 N 0.44068(11) 0.7455(2) 0.31189(15)
N2 N 0.40850(11) 0.2534(2) 0.60639(16)
C1 C 0.44339(14) 0.8752(3) 0.36825(18)
H1 H 0.4656 0.9728 0.3681
C2 C 0.41460(15) 0.8679(3) 0.4256(2)
H2 H 0.4180 0.9591 0.4641
C3 C 0.38056(15) 0.7252(3) 0.4264(2)
H3 H 0.3627 0.7166 0.4674
C4 C 0.37380(12) 0.5948(3) 0.36396(16)
C5 C 0.40448(12) 0.6095(3) 0.30803(17)
H4 H 0.3998 0.5219 0.2664
C6 C 0.33971(13) 0.3406(3) 0.43201(17)
C7 C 0.29023(14) 0.2136(3) 0.40819(19)
H5 H 0.2507 0.1995 0.3415
C8 C 0.30047(14) 0.1093(3) 0.48437(19)
H6 H 0.2678 0.0247 0.4701
C9 C 0.36008(13) 0.1327(3) 0.58208(18)
H7 H 0.3670 0.0618 0.6333
C10 C 0.39803(13) 0.3574(3) 0.53214(17)
H8 H 0.4309 0.4427 0.5487
C11 C 0.33011(13) 0.4426(3) 0.34617(17)
Si1 Si 0.5000 0.25199(9) 0.2500
Cu1_2 Cu 0.5000 -0.25751(4) 0.2500
Cu1D Cu 0.5000 0.25751(4) 0.7500
Cu1D_2 Cu 0.5000 0.25751(4) -0.2500
F1A F 0.58695(11) 0.2547(2) 0.34735(16)
F3A F 0.47481(13) 0.25362(17) 0.33147(16)
F4_2 F 0.5000 1.0403(2) 0.2500
O1A O 0.71275(11) 0.3987(2) 0.24098(13)
N1A N 0.55932(11) 0.7455(2) 0.18811(15)
N2A N 0.59150(11) 0.2534(2) -0.10639(16)
N2D N 0.59150(11) 0.7466(2) 0.39361(16)
N2E N 0.40850(11) 0.7466(2) 0.10639(16)
C1A C 0.55661(14) 0.8752(3) 0.13175(18)
H1A H 0.5344 0.9728 0.1319
C2A C 0.58540(15) 0.8679(3) 0.0744(2)
H2A H 0.5820 0.9591 0.0359
C3A C 0.61944(15) 0.7252(3) 0.0736(2)
H3A H 0.6373 0.7166 0.0326
C4A C 0.62620(12) 0.5948(3) 0.13604(16)
C5A C 0.59552(12) 0.6095(3) 0.19197(17)
H4A H 0.6002 0.5219 0.2336
C6A C 0.66029(13) 0.3406(3) 0.06799(17)
C7A C 0.70977(14) 0.2136(3) 0.09181(19)
H5A H 0.7493 0.1995 0.1585
C8A C 0.69953(14) 0.1093(3) 0.01563(19)
H6A H 0.7322 0.0247 0.0299
C9A C 0.63992(13) 0.1327(3) -0.08208(18)
H7A H 0.6330 0.0618 -0.1333
C10A C 0.60197(13) 0.3574(3) -0.03214(17)
H8A H 0.5691 0.4427 -0.0487
C11A C 0.66989(13) 0.4426(3) 0.15383(17)
O2 O 0.2808(2) 0.1657(6) 0.1183(4)
H9 H 0.2777 0.2089 0.1676
H10 H 0.3244 0.1856 0.1308
loop_
_geom_bond_atom_site_label_1
_geom_bond_atom_site_label_2
_geom_bond_site_symmetry_1
_geom_bond_site_symmetry_2
Cu1 F2 1_555 1_555
F1 Si1 1_555 1_555
F2 Si1 1_555 1_555
F3 Si1 1_555 1_555
F4 Si1 1_555 1_555
O1 C11 1_555 1_555
N1 Cu1 1_555 1_555
N2 C9 1_555 1_555
C1 N1 1_555 1_555
H1 C1 1_555 1_555
C2 C1 1_555 1_555
H2 C2 1_555 1_555
C3 C2 1_555 1_555
H3 C3 1_555 1_555
C4 C3 1_555 1_555
C5 N1 1_555 1_555
H4 C5 1_555 1_555
C6 C7 1_555 1_555
C7 H5 1_555 1_555
C8 C7 1_555 1_555
H6 C8 1_555 1_555
C9 C8 1_555 1_555
H7 C9 1_555 1_555
C10 N2 1_555 1_555
H8 C10 1_555 1_555
C11 C4 1_555 1_555
Si1 F1A 1_555 1_555
O2 H9 1_555 1_555
H10 O2 1_555 1_555
Cu1_2 F4 1_555 1_555
Cu1D N2 1_555 1_555
Cu1D_2 N2A 1_555 1_555
F3A Si1 1_555 1_555
F4_2 Cu1 1_555 1_555
O1A C11A 1_555 1_555
N1A Cu1 1_555 1_555
N2A C9A 1_555 1_555
N2D Cu1 1_555 1_555
N2E Cu1 1_555 1_555
C1A N1A 1_555 1_555
H1A C1A 1_555 1_555
C2A C1A 1_555 1_555
H2A C2A 1_555 1_555
C3A C2A 1_555 1_555
H3A C3A 1_555 1_555
C4A C3A 1_555 1_555
C5A N1A 1_555 1_555
H4A C5A 1_555 1_555
C6A C7A 1_555 1_555
C7A H5A 1_555 1_555
C8A C7A 1_555 1_555
H6A C8A 1_555 1_555
C9A C8A 1_555 1_555
H7A C9A 1_555 1_555
C10A N2A 1_555 1_555
H8A C10A 1_555 1_555
C11A C4A 1_555 1_555
C4 C5 1_555 1_555
C6 C10 1_555 1_555
C6 C11 1_555 1_555
C4A C5A 1_555 1_555
C6A C10A 1_555 1_555
C6A C11A 1_555 1_555

#END
