
#######################################################################
#
#                 Cambridge Crystallographic Data Centre
#                                CCDC 
#
#######################################################################
#
# If this CIF has been generated from an entry in the Cambridge 
# Structural Database, then it will include bibliographic, chemical, 
# crystal, experimental, refinement or atomic coordinate data resulting 
# from the CCDC's data processing and validation procedures.
#
#######################################################################

data_GAPBUW
_symmetry_cell_setting           triclinic
_symmetry_space_group_name_H-M   'P -1'
_symmetry_Int_Tables_number      2
_space_group_name_Hall           '-P 1'
loop_
_symmetry_equiv_pos_site_id
_symmetry_equiv_pos_as_xyz
1 x,y,z
2 -x,-y,-z
_cell_length_a                   9.1020(5)
_cell_length_b                   11.6866(5)
_cell_length_c                   13.3534(5)
_cell_angle_alpha                69.1646(11)
_cell_angle_beta                 84.2052(16)
_cell_angle_gamma                76.9358(16)
_cell_volume                     1292.84
loop_
_atom_site_label
_atom_site_type_symbol
_atom_site_fract_x
_atom_site_fract_y
_atom_site_fract_z
Cd1 Cd 0.18002(2) 0.944005(16) 0.589093(15)
O1 O 0.0904(2) 1.01688(18) 0.40717(15)
O2 O 0.3311(2) 1.00556(19) 0.41763(15)
O3 O 0.3901(3) 0.8936(2) 0.23010(18)
O4 O 0.8546(3) 0.4867(2) 0.0878(2)
O5 O 0.9522(3) 0.6549(2) 0.0014(2)
H1 H 1.0193 0.6153 -0.0288
O6 O 0.1426(3) 0.8763(2) 0.77857(16)
O10 O 0.4333(2) 0.8691(2) 0.64542(17)
H2 H 0.4611 0.7941 0.6493
H3 H 0.4890 0.9124 0.6010
N1 N 0.1779(3) 0.74731(19) 0.58879(18)
N2 N 0.1773(3) 0.1380(2) 0.59570(18)
N3 N 0.2606(4) 0.7602(3) 0.9348(2)
C1 C 0.2171(3) 1.0305(2) 0.3627(2)
C2 C 0.2299(4) 1.0791(3) 0.2418(2)
H4 H 0.2158 1.1695 0.2170
H5 H 0.1497 1.0586 0.2130
C3 C 0.3801(4) 1.0261(3) 0.1987(2)
H6 H 0.3853 1.0634 0.1213
H7 H 0.4624 1.0431 0.2284
C4 C 0.5115(4) 0.8267(3) 0.1927(2)
C5 C 0.5131(4) 0.7005(3) 0.2196(2)
H8 H 0.4373 0.6657 0.2639
C6 C 0.6268(4) 0.6263(3) 0.1807(2)
H9 H 0.6275 0.5416 0.1990
C7 C 0.7403(4) 0.6773(3) 0.1143(2)
C8 C 0.7405(4) 0.8018(3) 0.0913(3)
H10 H 0.8178 0.8360 0.0485
C9 C 0.6276(4) 0.8772(3) 0.1307(3)
H11 H 0.6299 0.9608 0.1156
C10 C 0.8552(4) 0.5984(3) 0.0665(3)
C11 C 0.0810(3) 0.6805(2) 0.6513(2)
H12 H 0.0148 0.7150 0.6957
C12 C 0.0742(3) 0.5627(2) 0.6532(2)
H13 H 0.0044 0.5198 0.6978
C13 C 0.1722(3) 0.5090(2) 0.5881(2)
C14 C 0.2714(3) 0.5799(2) 0.5215(2)
H14 H 0.3376 0.5486 0.4752
C15 C 0.2709(3) 0.6963(3) 0.5248(2)
H15 H 0.3385 0.7419 0.4802
C16 C 0.0616(3) 0.2007(3) 0.6371(2)
H16 H -0.0188 0.1622 0.6681
C17 C 0.0552(3) 0.3203(3) 0.6364(2)
H17 H -0.0282 0.3605 0.6661
C18 C 0.1735(3) 0.3800(2) 0.5914(2)
C19 C 0.2945(4) 0.3138(3) 0.5491(3)
H18 H 0.3768 0.3498 0.5180
C20 C 0.2921(4) 0.1946(3) 0.5536(3)
H19 H 0.3748 0.1515 0.5258
C21 C 0.2327(4) 0.7857(3) 0.8328(3)
H20 H 0.2858 0.7304 0.7998
C22 C 0.1831(6) 0.8376(5) 0.9937(4)
H21 H 0.1137 0.9066 0.9477
H22 H 0.2548 0.8687 1.0197
H23 H 0.1286 0.7895 1.0532
C23 C 0.3709(7) 0.6488(6) 0.9891(4)
H24 H 0.4105 0.6049 0.9405
H25 H 0.3234 0.5955 1.0496
H26 H 0.4516 0.6725 1.0131
Cd1A Cd -0.18002(2) 1.055995(16) 0.410907(15)
Cd1_2 Cd 0.18002(2) -0.055995(16) 0.589093(15)
O1A O -0.0904(2) 0.98312(18) 0.59283(15)
N2_2 N 0.1773(3) 1.1380(2) 0.59570(18)
O7 O 0.5403(4) 0.6153(3) 0.6982(3)
O8 O 0.7250(5) 0.6396(4) 0.7677(4)
O9 O 0.7435(3) 0.4764(3) 0.7307(3)
N4 N 0.6706(4) 0.5765(3) 0.7332(3)
loop_
_geom_bond_atom_site_label_1
_geom_bond_atom_site_label_2
_geom_bond_site_symmetry_1
_geom_bond_site_symmetry_2
Cd1 O1 1_555 1_555
O1 C1 1_555 1_555
O2 Cd1 1_555 1_555
O3 C3 1_555 1_555
O4 C10 1_555 1_555
O5 H1 1_555 1_555
O6 Cd1 1_555 1_555
O7 N4 1_555 1_555
O8 N4 1_555 1_555
O9 N4 1_555 1_555
O10 Cd1 1_555 1_555
H2 O10 1_555 1_555
H3 O10 1_555 1_555
N1 Cd1 1_555 1_555
N2 C16 1_555 1_555
N3 C21 1_555 1_555
C1 O2 1_555 1_555
C2 C1 1_555 1_555
H4 C2 1_555 1_555
H5 C2 1_555 1_555
C3 C2 1_555 1_555
H6 C3 1_555 1_555
H7 C3 1_555 1_555
C4 O3 1_555 1_555
C5 C4 1_555 1_555
H8 C5 1_555 1_555
C6 C5 1_555 1_555
H9 C6 1_555 1_555
C7 C6 1_555 1_555
C8 C7 1_555 1_555
H10 C8 1_555 1_555
C9 C4 1_555 1_555
H11 C9 1_555 1_555
C10 O5 1_555 1_555
C11 N1 1_555 1_555
H12 C11 1_555 1_555
C12 C11 1_555 1_555
H13 C12 1_555 1_555
C13 C12 1_555 1_555
C14 C13 1_555 1_555
H14 C14 1_555 1_555
C15 N1 1_555 1_555
H15 C15 1_555 1_555
C16 H16 1_555 1_555
C17 C16 1_555 1_555
H17 C17 1_555 1_555
C18 C13 1_555 1_555
C19 C18 1_555 1_555
H18 C19 1_555 1_555
C20 N2 1_555 1_555
H19 C20 1_555 1_555
C21 O6 1_555 1_555
H20 C21 1_555 1_555
C22 N3 1_555 1_555
H21 C22 1_555 1_555
H22 C22 1_555 1_555
H23 C22 1_555 1_555
C23 N3 1_555 1_555
H24 C23 1_555 1_555
H25 C23 1_555 1_555
H26 C23 1_555 1_555
Cd1A O1 1_555 1_555
Cd1_2 N2 1_555 1_555
O1A Cd1 1_555 1_555
N2_2 Cd1 1_555 1_555
C7 C10 1_555 1_555
C8 C9 1_555 1_555
C14 C15 1_555 1_555
C17 C18 1_555 1_555
C19 C20 1_555 1_555
Cd1A O1A 1_555 1_555

#END
