
#######################################################################
#
#                 Cambridge Crystallographic Data Centre
#                                CCDC 
#
#######################################################################
#
# If this CIF has been generated from an entry in the Cambridge 
# Structural Database, then it will include bibliographic, chemical, 
# crystal, experimental, refinement or atomic coordinate data resulting 
# from the CCDC's data processing and validation procedures.
#
#######################################################################

data_GAPCEH
_symmetry_cell_setting           triclinic
_symmetry_space_group_name_H-M   'P -1'
_symmetry_Int_Tables_number      2
_space_group_name_Hall           '-P 1'
loop_
_symmetry_equiv_pos_site_id
_symmetry_equiv_pos_as_xyz
1 x,y,z
2 -x,-y,-z
_cell_length_a                   7.4431(15)
_cell_length_b                   9.0895(18)
_cell_length_c                   9.3863(19)
_cell_angle_alpha                78.46(3)
_cell_angle_beta                 77.79(3)
_cell_angle_gamma                67.86(3)
_cell_volume                     569.791
loop_
_atom_site_label
_atom_site_type_symbol
_atom_site_fract_x
_atom_site_fract_y
_atom_site_fract_z
Ni1 Ni 1.0000 0.0000 0.0000
N1 N 0.8599(2) 0.05059(18) 0.21160(16)
N2 N 0.7076(2) 0.21017(19) 0.38522(17)
O1 O 1.11753(19) 0.17566(16) -0.00983(15)
O2 O 1.3775(2) 0.24681(19) -0.03883(19)
O4 O 0.76721(19) 0.18582(16) -0.09086(15)
C1 C 0.7822(3) 0.1980(2) 0.2416(2)
H1 H 0.7785 0.2864 0.1709
C2 C 0.7415(3) 0.0544(2) 0.4562(2)
C3 C 0.6960(3) -0.0069(3) 0.6010(2)
H2 H 0.6319 0.0598 0.6733
C4 C 0.7496(4) -0.1702(3) 0.6330(2)
H3 H 0.7235 -0.2156 0.7294
C5 C 0.8426(3) -0.2698(3) 0.5238(3)
H4 H 0.8762 -0.3800 0.5493
C6 C 0.8858(3) -0.2091(2) 0.3798(2)
H5 H 0.9465 -0.2762 0.3076
C7 C 0.8359(3) -0.0440(2) 0.3458(2)
C8 C 0.6026(3) 0.3572(2) 0.4442(2)
C9 C 0.6216(3) 0.3723(2) 0.5828(2)
H6 H 0.7031 0.2864 0.6386
C10 C 0.5193(3) 0.5154(2) 0.6388(2)
H7 H 0.5321 0.5262 0.7322
C11 C 1.2948(3) 0.1551(2) -0.0493(2)
H8 H 1.3723 0.0622 -0.0905
H9 H 0.6479 0.1921 -0.0709
H10 H 0.7658 0.2799 -0.0905
Ni1_2 Ni 0.0000 1.0000 1.0000
N1A N 0.1401(2) 0.94941(18) 0.78840(16)
N1A_2 N 1.1401(2) -0.05059(18) -0.21160(16)
N2A N 0.2924(2) 0.78983(19) 0.61478(17)
O1A O 0.88247(19) -0.17566(16) 0.00983(15)
O2A O 0.6225(2) -0.24681(19) 0.03883(19)
O4A O 1.23279(19) -0.18582(16) 0.09086(15)
C1A C 0.2178(3) 0.8020(2) 0.7584(2)
H1A H 0.2215 0.7136 0.8291
C2A C 0.2585(3) 0.9456(2) 0.5438(2)
C3A C 0.3040(3) 1.0069(3) 0.3990(2)
H2A H 0.3681 0.9402 0.3267
C4A C 0.2504(4) 1.1702(3) 0.3670(2)
H3A H 0.2765 1.2156 0.2706
C5A C 0.1574(3) 1.2698(3) 0.4762(3)
H4A H 0.1238 1.3800 0.4507
C6A C 0.1142(3) 1.2091(2) 0.6202(2)
H5A H 0.0535 1.2762 0.6924
C7A C 0.1641(3) 1.0440(2) 0.6542(2)
C8A C 0.3974(3) 0.6428(2) 0.5558(2)
C9A C 0.3784(3) 0.6277(2) 0.4172(2)
H6A H 0.2969 0.7136 0.3614
C10A C 0.4807(3) 0.4846(2) 0.3612(2)
H7A H 0.4679 0.4738 0.2678
C11A C 0.7052(3) -0.1551(2) 0.0493(2)
H8A H 0.6277 -0.0622 0.0905
H9A H 1.3521 -0.1921 0.0709
H10A H 1.2342 -0.2799 0.0905
O3 O 0.8143(3) 0.4708(2) 0.9185(2)
H11 H 0.7644 0.5582 0.9559
H12 H 0.9293 0.4212 0.9405
loop_
_geom_bond_atom_site_label_1
_geom_bond_atom_site_label_2
_geom_bond_site_symmetry_1
_geom_bond_site_symmetry_2
Ni1 N1 1_555 1_555
N1 C1 1_555 1_555
N2 C1 1_555 1_555
O1 Ni1 1_555 1_555
O2 C11 1_555 1_555
O3 H11 1_555 1_555
O4 Ni1 1_555 1_555
C1 H1 1_555 1_555
C2 N2 1_555 1_555
C3 C2 1_555 1_555
H2 C3 1_555 1_555
C4 C3 1_555 1_555
H3 C4 1_555 1_555
C5 C4 1_555 1_555
H4 C5 1_555 1_555
C6 C5 1_555 1_555
H5 C6 1_555 1_555
C7 N1 1_555 1_555
C8 N2 1_555 1_555
C9 C8 1_555 1_555
H6 C9 1_555 1_555
C10 C9 1_555 1_555
H7 C10 1_555 1_555
C11 O1 1_555 1_555
H8 C11 1_555 1_555
H9 O4 1_555 1_555
H10 O4 1_555 1_555
H12 O3 1_555 1_555
Ni1_2 N1A 1_555 1_555
N1A C1A 1_555 1_555
N1A_2 Ni1 1_555 1_555
N2A C1A 1_555 1_555
O1A Ni1 1_555 1_555
O2A C11A 1_555 1_555
O4A Ni1 1_555 1_555
C1A H1A 1_555 1_555
C2A N2A 1_555 1_555
C3A C2A 1_555 1_555
H2A C3A 1_555 1_555
C4A C3A 1_555 1_555
H3A C4A 1_555 1_555
C5A C4A 1_555 1_555
H4A C5A 1_555 1_555
C6A C5A 1_555 1_555
H5A C6A 1_555 1_555
C7A N1A 1_555 1_555
C8A C10 1_555 1_555
C9A C8A 1_555 1_555
H6A C9A 1_555 1_555
C10A C8 1_555 1_555
H7A C10A 1_555 1_555
C11A O1A 1_555 1_555
H8A C11A 1_555 1_555
H9A O4A 1_555 1_555
H10A O4A 1_555 1_555
C2 C7 1_555 1_555
C6 C7 1_555 1_555
N2A C8A 1_555 1_555
C2A C7A 1_555 1_555
C6A C7A 1_555 1_555
C9A C10A 1_555 1_555

#END
