
#######################################################################
#
#                 Cambridge Crystallographic Data Centre
#                                CCDC 
#
#######################################################################
#
# If this CIF has been generated from an entry in the Cambridge 
# Structural Database, then it will include bibliographic, chemical, 
# crystal, experimental, refinement or atomic coordinate data resulting 
# from the CCDC's data processing and validation procedures.
#
#######################################################################

data_GAPDIL
_symmetry_cell_setting           monoclinic
_symmetry_space_group_name_H-M   'C 2/c'
_symmetry_Int_Tables_number      15
_space_group_name_Hall           '-C 2yn'
loop_
_symmetry_equiv_pos_site_id
_symmetry_equiv_pos_as_xyz
1 x,y,z
2 1/2+x,1/2+y,z
3 -x,y,1/2-z
4 1/2-x,1/2+y,1/2-z
5 -x,-y,-z
6 1/2-x,1/2-y,-z
7 x,-y,1/2+z
8 1/2+x,1/2-y,1/2+z
_cell_length_a                   14.244(3)
_cell_length_b                   13.166(3)
_cell_length_c                   19.477(4)
_cell_angle_alpha                90
_cell_angle_beta                 104.56(3)
_cell_angle_gamma                90
_cell_volume                     3535.34
loop_
_atom_site_label
_atom_site_type_symbol
_atom_site_fract_x
_atom_site_fract_y
_atom_site_fract_z
Co1 Co -0.242650(16) 0.205530(17) -0.376700(11)
O1 O -0.14393(10) 0.23077(11) -0.43494(6)
H1 H -0.1486(19) 0.1950(13) -0.4713(9)
H2 H -0.1334(18) 0.2927(8) -0.4439(11)
O2 O -0.36257(9) 0.30300(10) -0.42791(6)
O3 O -0.37645(10) 0.20573(10) -0.34004(7)
O4 O -0.80931(9) 0.36341(10) -0.42955(8)
O5 O -0.78358(10) 0.56968(10) -0.42988(7)
O6 O -0.89575(11) 0.58590(12) -0.53262(8)
N1 N -0.17748(11) 0.32847(11) -0.30827(8)
N2 N -0.16277(10) 0.13094(11) -0.28638(7)
C1 C -0.18623(15) 0.42726(15) -0.32317(12)
H3 H -0.2214 0.4472 -0.3681
C2 C -0.14515(17) 0.50156(16) -0.27454(14)
H4 H -0.1529 0.5699 -0.2866
C3 C -0.09283(17) 0.47263(18) -0.20841(13)
H5 H -0.0651 0.5212 -0.1748
C4 C -0.08192(15) 0.37143(17) -0.19246(11)
H6 H -0.0457 0.3505 -0.1481
C5 C -0.12541(13) 0.30020(14) -0.24321(9)
C6 C -0.11777(12) 0.18983(14) -0.23113(9)
C7 C -0.06663(16) 0.14556(19) -0.16815(11)
H7 H -0.0365 0.1861 -0.1298
C8 C -0.06071(18) 0.0421(2) -0.16266(12)
H8 H -0.0263 0.0121 -0.1206
C9 C -0.10554(16) -0.01751(18) -0.21916(11)
H9 H -0.1016 -0.0880 -0.2164
C10 C -0.15657(14) 0.03016(14) -0.28016(10)
H10 H -0.1880 -0.0096 -0.3185
C11 C -0.41398(12) 0.26512(13) -0.38996(9)
C12 C -0.51868(12) 0.29209(12) -0.40312(8)
C13 C -0.57165(13) 0.25997(14) -0.35612(9)
H11 H -0.5415 0.2209 -0.3170
C14 C -0.66813(14) 0.28521(14) -0.36662(10)
H12 H -0.7024 0.2637 -0.3344
C15 C -0.71445(12) 0.34290(13) -0.42532(9)
C16 C -0.66288(13) 0.37508(15) -0.47289(9)
H13 H -0.6931 0.4138 -0.5122
C17 C -0.56564(13) 0.34907(14) -0.46143(9)
H14 H -0.5313 0.3704 -0.4936
C18 C -0.86381(13) 0.42243(15) -0.48753(11)
H15 H -0.9323 0.4110 -0.4916
H16 H -0.8498 0.3978 -0.5308
C19 C -0.84483(12) 0.53632(14) -0.48228(9)
Co1A Co -0.742650(16) 0.705530(17) -0.376700(11)
O5A O -0.28358(10) 0.06968(10) -0.42988(7)
loop_
_geom_bond_atom_site_label_1
_geom_bond_atom_site_label_2
_geom_bond_site_symmetry_1
_geom_bond_site_symmetry_2
Co1 O1 1_555 1_555
O1 H1 1_555 1_555
H2 O1 1_555 1_555
O2 Co1 1_555 1_555
O3 Co1 1_555 1_555
O4 C15 1_555 1_555
O5 C19 1_555 1_555
O6 C19 1_555 1_555
N1 Co1 1_555 1_555
N2 Co1 1_555 1_555
C1 N1 1_555 1_555
H3 C1 1_555 1_555
C2 C1 1_555 1_555
H4 C2 1_555 1_555
C3 C2 1_555 1_555
H5 C3 1_555 1_555
C4 C3 1_555 1_555
H6 C4 1_555 1_555
C5 N1 1_555 1_555
C6 N2 1_555 1_555
C7 C6 1_555 1_555
H7 C7 1_555 1_555
C8 C7 1_555 1_555
H8 C8 1_555 1_555
C9 C8 1_555 1_555
H9 C9 1_555 1_555
C10 N2 1_555 1_555
H10 C10 1_555 1_555
C11 O2 1_555 1_555
C12 C11 1_555 1_555
C13 C12 1_555 1_555
H11 C13 1_555 1_555
C14 C13 1_555 1_555
H12 C14 1_555 1_555
C15 C14 1_555 1_555
C16 C15 1_555 1_555
H13 C16 1_555 1_555
C17 C12 1_555 1_555
H14 C17 1_555 1_555
C18 O4 1_555 1_555
H15 C18 1_555 1_555
H16 C18 1_555 1_555
C19 C18 1_555 1_555
Co1A O5 1_555 1_555
O5A Co1 1_555 1_555
O3 C11 1_555 1_555
C4 C5 1_555 1_555
C5 C6 1_555 1_555
C9 C10 1_555 1_555
C16 C17 1_555 1_555

#END
