
#######################################################################
#
#                 Cambridge Crystallographic Data Centre
#                                CCDC 
#
#######################################################################
#
# If this CIF has been generated from an entry in the Cambridge 
# Structural Database, then it will include bibliographic, chemical, 
# crystal, experimental, refinement or atomic coordinate data resulting 
# from the CCDC's data processing and validation procedures.
#
#######################################################################

data_GAPDOR
_symmetry_cell_setting           orthorhombic
_symmetry_space_group_name_H-M   'P 21 21 21'
_symmetry_Int_Tables_number      19
_space_group_name_Hall           'P 2ac 2ab'
loop_
_symmetry_equiv_pos_site_id
_symmetry_equiv_pos_as_xyz
1 x,y,z
2 1/2-x,-y,1/2+z
3 -x,1/2+y,1/2-z
4 1/2+x,1/2-y,-z
_cell_length_a                   5.3078(17)
_cell_length_b                   17.239(5)
_cell_length_c                   24.569(8)
_cell_angle_alpha                90
_cell_angle_beta                 90
_cell_angle_gamma                90
_cell_volume                     2248.09
loop_
_atom_site_label
_atom_site_type_symbol
_atom_site_fract_x
_atom_site_fract_y
_atom_site_fract_z
Mn1 Mn 0.23552(7) 0.10502(2) 0.126960(12)
S1 S -0.13556(11) 0.53816(4) 0.03750(2)
C1 C 0.6505(5) 0.16601(16) 0.21067(11)
H1 H 0.6720 0.2050 0.1850
C2 C 0.8128(5) 0.16362(17) 0.25536(11)
H2 H 0.9418 0.1998 0.2587
C3 C 0.7808(5) 0.10775(16) 0.29420(10)
H3 H 0.8862 0.1061 0.3244
C4 C 0.5878(5) 0.05292(15) 0.28806(9)
C5 C 0.5398(6) -0.00699(16) 0.32683(10)
H4 H 0.6364 -0.0097 0.3584
C6 C 0.3578(6) -0.05919(17) 0.31841(10)
H5 H 0.3310 -0.0977 0.3443
C7 C 0.2023(5) -0.05762(14) 0.27052(9)
C8 C 0.2446(5) 0.00150(13) 0.23164(9)
C9 C 0.4380(4) 0.05767(14) 0.24114(9)
C10 C 0.0104(5) -0.11054(16) 0.26003(10)
H6 H -0.0221 -0.1507 0.2843
C11 C -0.1302(5) -0.10295(16) 0.21359(11)
H7 H -0.2607 -0.1375 0.2064
C12 C -0.0767(5) -0.04333(15) 0.17719(10)
H8 H -0.1739 -0.0392 0.1458
C13 C 0.1871(5) 0.25015(15) 0.10137(10)
C14 C 0.1515(7) 0.33117(16) 0.08047(10)
H9 H 0.2586 0.3658 0.1013
H10 H -0.0217 0.3465 0.0869
C15 C 0.2091(5) 0.34191(13) 0.02100(9)
H11 H 0.1022 0.3078 -0.0003
H12 H 0.3829 0.3275 0.0142
C16 C 0.1669(4) 0.42646(13) 0.00259(9)
H13 H 0.2810 0.4594 0.0238
C17 C 0.2374(5) 0.43562(12) -0.05746(8)
C18 C -0.0422(4) 0.60551(14) -0.01321(10)
C19 C 0.1711(5) 0.64981(15) -0.00585(12)
H14 H 0.2703 0.6434 0.0250
C20 C 0.2357(6) 0.70390(15) -0.04488(11)
H15 H 0.3803 0.7336 -0.0401
C21 C 0.0907(6) 0.71497(16) -0.09080(12)
C22 C -0.1179(6) 0.66830(16) -0.09785(12)
H16 H -0.2143 0.6736 -0.1293
C23 C -0.1869(5) 0.61416(16) -0.05953(11)
H17 H -0.3294 0.5837 -0.0648
C24 C 0.1641(7) 0.77668(19) -0.13127(14)
H18 H 0.0466 0.7767 -0.1610
H19 H 0.3303 0.7662 -0.1448
H20 H 0.1623 0.8265 -0.1138
N1 N 0.4676(4) 0.11496(11) 0.20345(7)
N2 N 0.1069(4) 0.00802(12) 0.18509(8)
N3 N -0.0911(3) 0.45179(11) 0.01416(7)
H21 H -0.2165 0.4212 0.0086
O1 O 0.0772(4) 0.22808(12) 0.14325(8)
O2 O 0.3298(5) 0.20478(12) 0.07682(9)
O3 O 0.4711(3) 0.43302(11) -0.06748(7)
O4 O 0.0707(3) 0.44607(10) -0.09230(6)
O5 O 0.0286(3) 0.54913(11) 0.08307(6)
O6 O -0.4012(3) 0.54609(11) 0.04485(7)
Mn1C Mn -0.26448(7) 0.39498(2) -0.126960(12)
Mn1C_2 Mn 0.73552(7) 0.39498(2) -0.126960(12)
O3C O -0.0289(3) 0.06698(11) 0.06748(7)
O4C O 0.5707(3) 0.05393(10) 0.09230(6)
loop_
_geom_bond_atom_site_label_1
_geom_bond_atom_site_label_2
_geom_bond_site_symmetry_1
_geom_bond_site_symmetry_2
Mn1 N1 1_555 1_555
S1 C18 1_555 1_555
C1 H1 1_555 1_555
C2 C1 1_555 1_555
H2 C2 1_555 1_555
C3 C2 1_555 1_555
H3 C3 1_555 1_555
C4 C3 1_555 1_555
C5 C4 1_555 1_555
H4 C5 1_555 1_555
C6 C5 1_555 1_555
H5 C6 1_555 1_555
C7 C6 1_555 1_555
C8 C7 1_555 1_555
C9 C4 1_555 1_555
C10 C7 1_555 1_555
H6 C10 1_555 1_555
C11 C10 1_555 1_555
H7 C11 1_555 1_555
C12 C11 1_555 1_555
H8 C12 1_555 1_555
C13 C14 1_555 1_555
C14 H9 1_555 1_555
H10 C14 1_555 1_555
C15 C14 1_555 1_555
H11 C15 1_555 1_555
H12 C15 1_555 1_555
C16 C15 1_555 1_555
H13 C16 1_555 1_555
C17 C16 1_555 1_555
C18 C19 1_555 1_555
C19 H14 1_555 1_555
C20 C19 1_555 1_555
H15 C20 1_555 1_555
C21 C20 1_555 1_555
C22 C21 1_555 1_555
H16 C22 1_555 1_555
C23 C18 1_555 1_555
H17 C23 1_555 1_555
C24 C21 1_555 1_555
H18 C24 1_555 1_555
H19 C24 1_555 1_555
H20 C24 1_555 1_555
N1 C1 1_555 1_555
N2 Mn1 1_555 1_555
N3 S1 1_555 1_555
H21 N3 1_555 1_555
O1 Mn1 1_555 1_555
O2 Mn1 1_555 1_555
O3 C17 1_555 1_555
O4 C17 1_555 1_555
O5 S1 1_555 1_555
O6 S1 1_555 1_555
Mn1C O4 1_555 1_555
Mn1C_2 O3 1_555 1_555
O3C Mn1 1_555 1_555
O4C Mn1 1_555 1_555
C8 C9 1_555 1_555
C8 N2 1_555 1_555
C9 N1 1_555 1_555
C12 N2 1_555 1_555
C13 O1 1_555 1_555
C13 O2 1_555 1_555
C16 N3 1_555 1_555
C22 C23 1_555 1_555

#END
