
#######################################################################
#
#                 Cambridge Crystallographic Data Centre
#                                CCDC 
#
#######################################################################
#
# If this CIF has been generated from an entry in the Cambridge 
# Structural Database, then it will include bibliographic, chemical, 
# crystal, experimental, refinement or atomic coordinate data resulting 
# from the CCDC's data processing and validation procedures.
#
#######################################################################

data_GAPNOB
_symmetry_cell_setting           monoclinic
_symmetry_space_group_name_H-M   'C c'
_symmetry_Int_Tables_number      9
_space_group_name_Hall           'C -2yc'
loop_
_symmetry_equiv_pos_site_id
_symmetry_equiv_pos_as_xyz
1 x,y,z
2 x,-y,1/2+z
3 1/2+x,1/2+y,z
4 1/2+x,1/2-y,1/2+z
_cell_length_a                   25.513(2)
_cell_length_b                   7.1249(6)
_cell_length_c                   16.8915(14)
_cell_angle_alpha                90
_cell_angle_beta                 129.9970(10)
_cell_angle_gamma                90
_cell_volume                     2352.24
loop_
_atom_site_label
_atom_site_type_symbol
_atom_site_fract_x
_atom_site_fract_y
_atom_site_fract_z
Cu1 Cu -0.423580(8) 0.36194(3) -0.302940(11)
N1 N -0.44697(7) 0.5044(2) -0.42553(11)
N2 N -0.33445(7) 0.3728(2) -0.26688(11)
O1 O -0.36528(6) 0.21721(18) -0.16218(9)
O2 O -0.00732(6) 0.13704(17) 0.17485(9)
O3 O -0.37437(8) 0.6207(2) -0.18328(12)
H1 H -0.3989(15) 0.669(4) -0.171(3)
H2 H -0.3527(13) 0.712(3) -0.185(2)
O4 O -0.43077(6) 0.05035(19) -0.37481(9)
H3 H -0.4488(13) 0.077(4) -0.4375(11)
H4 H -0.3902(8) 0.007(4) -0.3466(19)
C1 C -0.50713(9) 0.5819(2) -0.50170(13)
H5 H -0.5451(12) 0.565(4) -0.5026(18)
C2 C -0.51683(9) 0.6922(3) -0.57864(13)
H6 H -0.5540(15) 0.742(5) -0.622(2)
C3 C -0.46177(9) 0.7273(3) -0.57382(13)
H7 H -0.4664(13) 0.788(4) -0.623(2)
C4 C -0.39803(10) 0.6503(2) -0.49289(14)
H8 H -0.3596(14) 0.677(3) -0.485(2)
C5 C -0.39212(8) 0.5344(2) -0.42094(12)
C6 C -0.32755(8) 0.4418(2) -0.33103(12)
C7 C -0.06618(8) 0.1844(2) 0.09388(13)
C8 C -0.12556(8) 0.1398(2) 0.09133(12)
C9 C -0.12278(8) 0.0502(2) 0.16755(12)
H9 H -0.0821(12) 0.011(3) 0.2281(18)
C10 C -0.18464(9) 0.0217(2) 0.14766(13)
H10 H -0.1854(11) -0.027(3) 0.1937(17)
C11 C -0.24713(8) 0.0720(2) 0.05219(12)
H11 H -0.2912(12) 0.047(3) 0.0310(17)
C12 C -0.24500(8) 0.1579(2) -0.01933(12)
C13 C -0.30452(8) 0.2254(2) -0.12590(12)
Cu2 Cu -0.185300(8) 0.32870(3) -0.097110(11)
O5 O -0.08120(6) 0.25951(17) 0.01400(9)
O6 O -0.15619(7) 0.60160(18) -0.02165(10)
H12 H -0.1127(6) 0.623(4) 0.0208(17)
H13 H -0.1763(15) 0.699(3) -0.057(2)
N3 N -0.18483(7) 0.19309(19) 0.00306(10)
N4 N -0.28291(7) 0.2966(2) -0.17490(11)
N5 N -0.20207(7) 0.4161(2) -0.22309(10)
C14 C -0.26451(8) 0.4305(2) -0.31898(12)
C15 C -0.26966(8) 0.4281(2) -0.40672(12)
H14 H -0.3139(12) 0.416(3) -0.4737(18)
C16 C -0.21031(9) 0.4286(2) -0.39530(14)
H15 H -0.2134(11) 0.417(3) -0.4510(17)
C17 C -0.14733(9) 0.4302(2) -0.29728(14)
H16 H -0.1088(13) 0.427(4) -0.2868(18)
C18 C -0.14530(8) 0.4186(2) -0.21316(13)
H17 H -0.1067(12) 0.410(3) -0.1511(19)
Cu1C Cu 0.076420(8) 0.13806(3) 0.197060(11)
O2C O -0.50732(6) 0.36296(17) -0.32515(9)
O7 O -0.52373(9) 0.1390(3) -0.86688(15)
H18 H -0.4935(11) 0.079(4) -0.864(2)
H19 H -0.5087(15) 0.185(4) -0.8081(13)
N6 N -0.75315(8) 0.5862(2) -0.71480(12)
O8 O -0.79458(7) 0.5305(2) -0.80602(10)
O9 O -0.77325(10) 0.6712(2) -0.67326(15)
O10 O -0.69009(7) 0.5543(2) -0.66128(11)
N7 N -0.95494(8) 0.6967(2) -0.59351(11)
O11 O -0.97724(8) 0.7813(2) -0.67549(11)
O12 O -0.99486(7) 0.6620(2) -0.57674(11)
O13 O -0.89354(7) 0.6517(2) -0.52933(12)
loop_
_geom_bond_atom_site_label_1
_geom_bond_atom_site_label_2
_geom_bond_site_symmetry_1
_geom_bond_site_symmetry_2
Cu1 N1 1_555 1_555
N1 C1 1_555 1_555
N2 Cu1 1_555 1_555
O1 Cu1 1_555 1_555
O2 C7 1_555 1_555
O3 Cu1 1_555 1_555
H1 O3 1_555 1_555
H2 O3 1_555 1_555
O4 Cu1 1_555 1_555
H3 O4 1_555 1_555
H4 O4 1_555 1_555
C1 H5 1_555 1_555
C2 C1 1_555 1_555
H6 C2 1_555 1_555
C3 C2 1_555 1_555
H7 C3 1_555 1_555
C4 C3 1_555 1_555
H8 C4 1_555 1_555
C5 N1 1_555 1_555
C6 N2 1_555 1_555
C7 C8 1_555 1_555
C8 C9 1_555 1_555
C9 H9 1_555 1_555
C10 C9 1_555 1_555
H10 C10 1_555 1_555
C11 C10 1_555 1_555
H11 C11 1_555 1_555
C12 C11 1_555 1_555
C13 O1 1_555 1_555
Cu2 O5 1_555 1_555
O5 C7 1_555 1_555
O6 Cu2 1_555 1_555
H12 O6 1_555 1_555
H13 O6 1_555 1_555
N3 C8 1_555 1_555
N4 N2 1_555 1_555
N5 Cu2 1_555 1_555
C14 C6 1_555 1_555
C15 C14 1_555 1_555
H14 C15 1_555 1_555
C16 C15 1_555 1_555
H15 C16 1_555 1_555
C17 C16 1_555 1_555
H16 C17 1_555 1_555
C18 N5 1_555 1_555
H17 C18 1_555 1_555
O7 H18 1_555 1_555
H19 O7 1_555 1_555
N6 O8 1_555 1_555
O9 N6 1_555 1_555
O10 N6 1_555 1_555
N7 O11 1_555 1_555
O12 N7 1_555 1_555
O13 N7 1_555 1_555
Cu1C O2 1_555 1_555
O2C Cu1 1_555 1_555
C4 C5 1_555 1_555
C5 C6 1_555 1_555
C12 C13 1_555 1_555
C12 N3 1_555 1_555
C13 N4 1_555 1_555
Cu2 N3 1_555 1_555
Cu2 N4 1_555 1_555
N5 C14 1_555 1_555
C17 C18 1_555 1_555

#END
