
#######################################################################
#
#                 Cambridge Crystallographic Data Centre
#                                CCDC 
#
#######################################################################
#
# If this CIF has been generated from an entry in the Cambridge 
# Structural Database, then it will include bibliographic, chemical, 
# crystal, experimental, refinement or atomic coordinate data resulting 
# from the CCDC's data processing and validation procedures.
#
#######################################################################

data_GAPQAQ
_symmetry_cell_setting           monoclinic
_symmetry_space_group_name_H-M   'P 21/c'
_symmetry_Int_Tables_number      14
_space_group_name_Hall           '-P 2ybc'
loop_
_symmetry_equiv_pos_site_id
_symmetry_equiv_pos_as_xyz
1 x,y,z
2 -x,1/2+y,1/2-z
3 -x,-y,-z
4 x,1/2-y,1/2+z
_cell_length_a                   27.983(7)
_cell_length_b                   20.538(5)
_cell_length_c                   15.833(4)
_cell_angle_alpha                90
_cell_angle_beta                 90.736(5)
_cell_angle_gamma                90
_cell_volume                     9098.71
loop_
_atom_site_label
_atom_site_type_symbol
_atom_site_fract_x
_atom_site_fract_y
_atom_site_fract_z
Eu1 Eu 0.20609(3) 0.27646(6) -0.50597(7)
Eu2 Eu 0.24239(3) 0.24915(5) -0.27014(7)
Eu3 Eu 0.21722(4) 0.06836(5) -0.84209(7)
Eu4 Eu -0.26633(3) 0.19314(5) -0.33455(7)
Eu5 Eu -0.27376(3) 0.23332(5) -0.06972(7)
O1 O 0.1722(4) 0.2387(6) -0.3564(9)
O2 O 0.1573(4) 0.1838(6) -0.4698(10)
O3 O -0.0076(5) 0.0731(7) -0.2448(13)
O4 O -0.2089(4) 0.2230(6) -0.2373(10)
O5 O -0.2012(4) 0.1798(7) -0.1074(9)
O6 O 0.1838(4) 0.2363(6) -0.6469(8)
O7 O 0.1927(4) 0.1541(6) -0.7362(9)
O8 O -0.0074(4) 0.0708(6) -0.5866(10)
O9 O -0.2161(4) 0.1899(6) -0.5558(8)
O10 O -0.2017(4) 0.1640(6) -0.4218(9)
O11 O 0.1913(6) 0.3731(7) -0.5963(11)
O12 O 0.2203(7) 0.4415(8) -0.4885(13)
O13 O 0.0789(6) 0.6377(9) -0.6691(11)
O14 O -0.1409(5) 0.5946(7) -0.6167(10)
O15 O -0.1293(5) 0.6757(7) -0.5275(11)
O16 O 0.2962(4) 0.3073(7) -0.6761(11)
O17 O 0.2834(5) 0.3128(8) -0.5406(12)
O18 O 0.4966(5) 0.4100(8) -0.5340(11)
O19 O 0.6588(4) 0.3589(6) -0.7970(9)
O20 O 0.6993(4) 0.3355(6) -0.6799(8)
O21 O 0.2862(5) 0.4180(7) -0.2683(10)
O22 O 0.3105(5) 0.3152(7) -0.2523(10)
O23 O 0.5073(4) 0.4698(7) -0.2550(10)
O24 O 0.6806(4) 0.2753(7) -0.2976(8)
O25 O 0.6904(4) 0.3051(6) -0.1640(8)
O26 O 0.2444(5) -0.0842(7) -0.7062(8)
O27 O 0.2000(4) 0.0051(6) -0.7244(8)
O28 O 0.2593(5) 0.0323(6) -0.3380(9)
O29 O 0.2479(4) -0.2085(7) -0.0804(8)
O30 O 0.2739(4) -0.1273(6) 0.0003(9)
O31 O 0.6854(4) 0.1887(6) -0.4621(8)
O32 O 0.6453(4) 0.2705(6) -0.5168(9)
O33 O 0.4720(5) 0.0778(7) -0.4689(11)
O34 O 0.2629(5) 0.1852(8) -0.5189(11)
O35 O 0.2717(6) 0.1959(8) -0.3850(12)
O36 O 0.2459(6) -0.0403(6) -0.8717(10)
O37 O 0.2100(5) 0.1403(7) -0.2516(10)
O38 O 0.2425(4) 0.3282(6) -0.3886(8)
C1 C 0.1476(7) 0.1975(10) -0.3947(14)
C2 C 0.1082(7) 0.1650(9) -0.3552(13)
C3 C 0.0848(7) 0.1108(9) -0.3929(13)
H1 H 0.0959 0.0948 -0.4439
C4 C 0.0470(8) 0.0819(11) -0.3574(15)
H2 H 0.0325 0.0463 -0.3832
C5 C 0.0307(7) 0.1049(10) -0.2849(14)
C6 C 0.0502(8) 0.1551(12) -0.2457(16)
H3 H 0.0380 0.1700 -0.1949
C7 C 0.0881(7) 0.1845(11) -0.2802(14)
H4 H 0.1015 0.2199 -0.2521
C8 C -0.0497(8) 0.1079(11) -0.2337(15)
C9 C -0.0666(8) 0.1548(11) -0.2811(16)
H5 H -0.0492 0.1692 -0.3271
C10 C -0.1106(8) 0.1836(11) -0.2636(15)
H6 H -0.1215 0.2171 -0.2983
C11 C -0.1376(6) 0.1650(9) -0.1994(13)
C12 C -0.1871(7) 0.1912(11) -0.1804(14)
C13 C -0.1204(9) 0.1179(12) -0.1466(17)
H7 H -0.1378 0.1059 -0.0994
C14 C -0.0750(9) 0.0865(13) -0.1637(18)
H8 H -0.0632 0.0534 -0.1292
C15 C 0.1688(7) 0.1830(11) -0.6774(14)
C16 C 0.1197(7) 0.1578(10) -0.6584(13)
C17 C 0.0872(5) 0.1949(9) -0.6129(10)
H9 H 0.0948 0.2373 -0.5971
C18 C 0.0429(6) 0.1682(9) -0.5909(12)
H10 H 0.0208 0.1937 -0.5627
C19 C 0.0320(7) 0.1042(10) -0.6111(13)
C20 C 0.0626(6) 0.0688(10) -0.6570(12)
H11 H 0.0541 0.0269 -0.6738
C21 C 0.1070(6) 0.0940(9) -0.6800(12)
H12 H 0.1283 0.0681 -0.7098
C22 C -0.0490(7) 0.1006(9) -0.5619(12)
C23 C -0.0722(8) 0.1467(11) -0.6130(15)
H13 H -0.0571 0.1629 -0.6606
C24 C -0.1187(7) 0.1689(10) -0.5925(13)
H14 H -0.1343 0.1988 -0.6273
C25 C -0.1408(7) 0.1455(10) -0.5200(13)
C26 C -0.1887(7) 0.1657(10) -0.4962(14)
C27 C -0.1170(7) 0.1002(10) -0.4677(14)
H15 H -0.1307 0.0848 -0.4184
C28 C -0.0716(7) 0.0792(10) -0.4937(14)
H16 H -0.0561 0.0479 -0.4607
C29 C 0.1963(10) 0.4265(16) -0.555(2)
C30 C 0.1623(8) 0.4824(13) -0.5905(17)
C31 C 0.1407(9) 0.4773(14) -0.6666(19)
H17 H 0.1444 0.4406 -0.7004
C32 C 0.1099(9) 0.5347(14) -0.6945(19)
H18 H 0.0938 0.5337 -0.7462
C33 C 0.1066(9) 0.5826(14) -0.6480(18)
C34 C 0.1332(9) 0.5919(14) -0.5743(19)
H19 H 0.1321 0.6312 -0.5453
C35 C 0.1630(9) 0.5381(13) -0.5436(17)
C36 C 0.0318(8) 0.6321(12) -0.6420(14)
C37 C 0.0047(9) 0.5777(14) -0.6501(17)
H20 H 0.0165 0.5401 -0.6748
C38 C -0.0430(9) 0.5809(14) -0.6189(16)
H21 H -0.0597 0.5421 -0.6128
C39 C -0.0643(8) 0.6337(12) -0.5988(14)
C40 C -0.1162(8) 0.6354(12) -0.5777(16)
C41 C -0.0356(10) 0.6848(15) -0.5931(18)
H22 H -0.0496 0.7235 -0.5758
C42 C 0.0123(10) 0.6876(15) -0.6096(17)
H23 H 0.0304 0.7248 -0.5995
C43 C 0.3101(8) 0.3206(12) -0.6049(17)
C44 C 0.3596(8) 0.3427(10) -0.5867(15)
C45 C 0.3783(9) 0.3310(12) -0.5134(17)
H24 H 0.3609 0.3093 -0.4724
C46 C 0.4263(8) 0.3520(11) -0.4959(16)
H25 H 0.4420 0.3404 -0.4460
C47 C 0.4483(8) 0.3900(12) -0.5558(16)
C48 C 0.4310(7) 0.4024(10) -0.6308(15)
H26 H 0.4484 0.4252 -0.6708
C49 C 0.3837(8) 0.3790(10) -0.6481(15)
H27 H 0.3689 0.3878 -0.6998
C50 C 0.5352(7) 0.3939(10) -0.5839(14)
C51 C 0.5786(8) 0.4197(11) -0.5520(16)
H28 H 0.5799 0.4450 -0.5033
C52 C 0.6183(7) 0.4052(9) -0.5965(13)
H29 H 0.6476 0.4208 -0.5771
C53 C 0.6171(7) 0.3686(10) -0.6688(14)
C54 C 0.6606(7) 0.3522(10) -0.7185(15)
C55 C 0.5743(6) 0.3399(9) -0.6962(12)
H30 H 0.5738 0.3125 -0.7430
C56 C 0.5323(7) 0.3528(10) -0.6522(14)
H31 H 0.5033 0.3342 -0.6687
C57 C 0.3189(8) 0.3750(12) -0.2565(14)
C58 C 0.3684(7) 0.3947(10) -0.2520(12)
C59 C 0.4060(7) 0.3538(11) -0.2515(13)
H32 H 0.4003 0.3092 -0.2534
C60 C 0.4546(7) 0.3765(11) -0.2481(13)
H33 H 0.4800 0.3475 -0.2422
C61 C 0.4624(7) 0.4420(11) -0.2537(13)
C62 C 0.4247(6) 0.4859(10) -0.2554(12)
H34 H 0.4305 0.5305 -0.2560
C63 C 0.3770(7) 0.4616(11) -0.2561(13)
H35 H 0.3514 0.4905 -0.2592
C64 C 0.5482(7) 0.4295(10) -0.2532(13)
C65 C 0.5731(7) 0.4278(10) -0.1782(14)
H36 H 0.5636 0.4522 -0.1319
C66 C 0.6134(7) 0.3881(10) -0.1744(14)
H37 H 0.6309 0.3848 -0.1242
C67 C 0.6273(7) 0.3542(10) -0.2432(13)
C68 C 0.6716(7) 0.3073(11) -0.2309(15)
C69 C 0.6024(7) 0.3557(11) -0.3184(15)
H38 H 0.6118 0.3312 -0.3648
C70 C 0.5612(7) 0.3968(10) -0.3218(15)
H39 H 0.5436 0.4008 -0.3717
C71 C 0.2250(7) -0.0341(10) -0.6785(13)
C72 C 0.2356(6) -0.0149(9) -0.5927(12)
C73 C 0.2720(7) -0.0415(10) -0.5450(13)
H40 H 0.2918 -0.0716 -0.5711
C74 C 0.2815(8) -0.0267(11) -0.4605(16)
H41 H 0.3075 -0.0450 -0.4321
C75 C 0.2513(7) 0.0156(10) -0.4202(14)
C76 C 0.2115(7) 0.0408(10) -0.4654(14)
H42 H 0.1894 0.0661 -0.4370
C77 C 0.2049(7) 0.0292(11) -0.5479(15)
H43 H 0.1800 0.0500 -0.5767
C78 C 0.2577(8) -0.0192(12) -0.2775(16)
C79 C 0.2818(7) 0.0001(11) -0.2051(14)
H44 H 0.2967 0.0405 -0.2022
C80 C 0.2833(7) -0.0432(10) -0.1348(13)
H45 H 0.3001 -0.0337 -0.0853
C81 C 0.2575(7) -0.1016(10) -0.1457(13)
C82 C 0.2604(6) -0.1490(10) -0.0722(12)
C83 C 0.2347(7) -0.1181(10) -0.2155(13)
H46 H 0.2196 -0.1583 -0.2198
C84 C 0.2335(7) -0.0739(11) -0.2845(15)
H47 H 0.2161 -0.0834 -0.3334
C85 C 0.6457(7) 0.2158(10) -0.4828(12)
C86 C 0.5989(7) 0.1806(10) -0.4722(13)
C87 C 0.5959(7) 0.1156(10) -0.4461(13)
H48 H 0.6236 0.0940 -0.4294
C88 C 0.5532(7) 0.0831(10) -0.4445(13)
H49 H 0.5529 0.0397 -0.4276
C89 C 0.5105(7) 0.1126(10) -0.4673(12)
C90 C 0.5118(8) 0.1785(12) -0.4886(14)
H50 H 0.4834 0.2006 -0.4997
C91 C 0.5552(7) 0.2115(11) -0.4933(13)
H51 H 0.5554 0.2547 -0.5107
C92 C 0.4284(8) 0.1046(11) -0.4671(16)
C93 C 0.3982(8) 0.1005(11) -0.5315(16)
H52 H 0.4088 0.0807 -0.5807
C94 C 0.3533(8) 0.1231(11) -0.5302(15)
H53 H 0.3343 0.1197 -0.5787
C95 C 0.3342(7) 0.1516(10) -0.4582(14)
C96 C 0.2864(8) 0.1789(12) -0.4554(17)
C97 C 0.3628(8) 0.1557(11) -0.3884(16)
H54 H 0.3523 0.1734 -0.3378
C98 C 0.4135(9) 0.1294(12) -0.3987(17)
H55 H 0.4344 0.1316 -0.3527
Eu1B Eu -0.20609(3) 0.72354(6) -0.49403(7)
Eu2C Eu 0.24239(3) 0.25085(5) -0.77014(7)
Eu3C Eu 0.21722(4) 0.43164(5) -0.34209(7)
Eu3A Eu -0.21722(4) 0.56836(5) -0.65791(7)
Eu4C Eu 0.73367(3) 0.30686(5) -0.83455(7)
Eu4_2 Eu 0.73367(3) 0.19314(5) -0.33455(7)
Eu4B Eu 0.26633(3) -0.19314(5) -0.66545(7)
Eu4A Eu 0.26633(3) -0.30686(5) -0.16545(7)
Eu5C Eu -0.27376(3) 0.26668(5) -0.56972(7)
Eu5C_2 Eu 0.72624(3) 0.26668(5) -0.56972(7)
Eu5_2 Eu 0.72624(3) 0.23332(5) -0.06972(7)
Eu5B Eu 0.27376(3) -0.23332(5) 0.06972(7)
O6C O 0.1838(4) 0.2637(6) -0.1469(8)
O7C O 0.1927(4) 0.3459(6) -0.2362(9)
O9C O -0.2161(4) 0.3101(6) -0.0558(8)
O12C O 0.2203(7) 0.0585(8) -0.9885(13)
O14A O 0.1409(5) 0.0946(7) -0.8833(10)
O15B O 0.1293(5) 0.3243(7) -0.4725(11)
O16C O 0.2962(4) 0.1927(7) -0.1761(11)
O19C O -0.3412(4) 0.1411(6) -0.2970(9)
O20C O -0.3007(4) 0.1645(6) -0.1799(8)
O21C O 0.2862(5) 0.0820(7) -0.7683(10)
O24_2 O -0.3194(4) 0.2753(7) -0.2976(8)
O25_2 O -0.3096(4) 0.3051(6) -0.1640(8)
O26B O -0.2444(5) 0.0842(7) -0.2938(8)
O29A O -0.2479(4) 0.2915(7) -0.4196(8)
O29B O -0.2479(4) 0.2085(7) 0.0804(8)
O30B O -0.2739(4) 0.1273(6) -0.0003(9)
O31_2 O -0.3146(4) 0.1887(6) -0.4621(8)
O31C O -0.3146(4) 0.3113(6) 0.0379(8)
O32C O -0.3547(4) 0.2295(6) -0.0168(9)
O38C O 0.2425(4) 0.1718(6) -0.8886(8)
O39 O 0.3029(14) 0.4356(18) -0.437(2)
loop_
_geom_bond_atom_site_label_1
_geom_bond_atom_site_label_2
_geom_bond_site_symmetry_1
_geom_bond_site_symmetry_2
Eu1 O1 1_555 1_555
Eu2 O1 1_555 1_555
Eu3 O7 1_555 1_555
Eu4 O4 1_555 1_555
Eu5 O5 1_555 1_555
O1 C1 1_555 1_555
O2 Eu1 1_555 1_555
O3 C5 1_555 1_555
O4 C12 1_555 1_555
O5 C12 1_555 1_555
O6 Eu1 1_555 1_555
O7 C15 1_555 1_555
O8 C19 1_555 1_555
O9 C26 1_555 1_555
O10 Eu4 1_555 1_555
O11 Eu1 1_555 1_555
O12 C29 1_555 1_555
O13 C33 1_555 1_555
O14 C40 1_555 1_555
O15 C40 1_555 1_555
O16 C43 1_555 1_555
O17 Eu1 1_555 1_555
O18 C47 1_555 1_555
O19 C54 1_555 1_555
O20 C54 1_555 1_555
O21 C57 1_555 1_555
O22 Eu2 1_555 1_555
O23 C61 1_555 1_555
O24 C68 1_555 1_555
O25 C68 1_555 1_555
O26 C71 1_555 1_555
O27 Eu3 1_555 1_555
O28 C75 1_555 1_555
O29 C82 1_555 1_555
O30 C82 1_555 1_555
O31 C85 1_555 1_555
O32 C85 1_555 1_555
O33 C89 1_555 1_555
O34 Eu1 1_555 1_555
O35 Eu2 1_555 1_555
O36 Eu3 1_555 1_555
O37 Eu2 1_555 1_555
O38 Eu1 1_555 1_555
C1 O2 1_555 1_555
C2 C1 1_555 1_555
C3 C2 1_555 1_555
H1 C3 1_555 1_555
C4 C3 1_555 1_555
H2 C4 1_555 1_555
C5 C4 1_555 1_555
C6 C5 1_555 1_555
H3 C6 1_555 1_555
C7 C2 1_555 1_555
H4 C7 1_555 1_555
C8 O3 1_555 1_555
C9 C8 1_555 1_555
H5 C9 1_555 1_555
C10 C9 1_555 1_555
H6 C10 1_555 1_555
C11 C10 1_555 1_555
C12 C11 1_555 1_555
C13 C11 1_555 1_555
H7 C13 1_555 1_555
C14 C8 1_555 1_555
H8 C14 1_555 1_555
C15 O6 1_555 1_555
C16 C15 1_555 1_555
C17 C16 1_555 1_555
H9 C17 1_555 1_555
C18 C17 1_555 1_555
H10 C18 1_555 1_555
C19 C18 1_555 1_555
C20 C19 1_555 1_555
H11 C20 1_555 1_555
C21 C16 1_555 1_555
H12 C21 1_555 1_555
C22 O8 1_555 1_555
C23 C22 1_555 1_555
H13 C23 1_555 1_555
C24 C23 1_555 1_555
H14 C24 1_555 1_555
C25 C24 1_555 1_555
C26 O10 1_555 1_555
C27 C25 1_555 1_555
H15 C27 1_555 1_555
C28 C22 1_555 1_555
H16 C28 1_555 1_555
C29 O11 1_555 1_555
C30 C29 1_555 1_555
C31 C30 1_555 1_555
H17 C31 1_555 1_555
C32 C31 1_555 1_555
H18 C32 1_555 1_555
C33 C32 1_555 1_555
C34 C33 1_555 1_555
H19 C34 1_555 1_555
C35 C30 1_555 1_555
C36 O13 1_555 1_555
C37 C36 1_555 1_555
H20 C37 1_555 1_555
C38 C37 1_555 1_555
H21 C38 1_555 1_555
C39 C38 1_555 1_555
C40 C39 1_555 1_555
C41 C39 1_555 1_555
H22 C41 1_555 1_555
C42 C36 1_555 1_555
H23 C42 1_555 1_555
C43 O17 1_555 1_555
C44 C43 1_555 1_555
C45 C44 1_555 1_555
H24 C45 1_555 1_555
C46 C45 1_555 1_555
H25 C46 1_555 1_555
C47 C46 1_555 1_555
C48 C47 1_555 1_555
H26 C48 1_555 1_555
C49 C44 1_555 1_555
H27 C49 1_555 1_555
C50 O18 1_555 1_555
C51 C50 1_555 1_555
H28 C51 1_555 1_555
C52 C51 1_555 1_555
H29 C52 1_555 1_555
C53 C52 1_555 1_555
C54 C53 1_555 1_555
C55 C53 1_555 1_555
H30 C55 1_555 1_555
C56 C50 1_555 1_555
H31 C56 1_555 1_555
C57 O22 1_555 1_555
C58 C57 1_555 1_555
C59 C58 1_555 1_555
H32 C59 1_555 1_555
C60 C59 1_555 1_555
H33 C60 1_555 1_555
C61 C60 1_555 1_555
C62 C61 1_555 1_555
H34 C62 1_555 1_555
C63 C58 1_555 1_555
H35 C63 1_555 1_555
C64 O23 1_555 1_555
C65 C64 1_555 1_555
H36 C65 1_555 1_555
C66 C65 1_555 1_555
H37 C66 1_555 1_555
C67 C66 1_555 1_555
C68 C67 1_555 1_555
C69 C67 1_555 1_555
H38 C69 1_555 1_555
C70 C64 1_555 1_555
H39 C70 1_555 1_555
C71 O27 1_555 1_555
C72 C71 1_555 1_555
C73 C72 1_555 1_555
H40 C73 1_555 1_555
C74 C73 1_555 1_555
H41 C74 1_555 1_555
C75 C74 1_555 1_555
C76 C75 1_555 1_555
H42 C76 1_555 1_555
C77 C72 1_555 1_555
H43 C77 1_555 1_555
C78 O28 1_555 1_555
C79 C78 1_555 1_555
H44 C79 1_555 1_555
C80 C79 1_555 1_555
H45 C80 1_555 1_555
C81 C80 1_555 1_555
C82 C81 1_555 1_555
C83 C81 1_555 1_555
H46 C83 1_555 1_555
C84 C78 1_555 1_555
H47 C84 1_555 1_555
C85 C86 1_555 1_555
C86 C87 1_555 1_555
C87 H48 1_555 1_555
C88 C87 1_555 1_555
H49 C88 1_555 1_555
C89 C88 1_555 1_555
C90 C89 1_555 1_555
H50 C90 1_555 1_555
C91 C86 1_555 1_555
H51 C91 1_555 1_555
C92 O33 1_555 1_555
C93 C92 1_555 1_555
H52 C93 1_555 1_555
C94 C93 1_555 1_555
H53 C94 1_555 1_555
C95 C94 1_555 1_555
C96 O34 1_555 1_555
C97 C95 1_555 1_555
H54 C97 1_555 1_555
C98 C92 1_555 1_555
H55 C98 1_555 1_555
Eu1B O15 1_555 1_555
Eu2C O6 1_555 1_555
Eu3C O12 1_555 1_555
Eu3A O14 1_555 1_555
Eu4C O19 1_555 1_555
Eu4_2 O24 1_555 1_555
Eu4B O26 1_555 1_555
Eu4A O29 1_555 1_555
Eu5C O9 1_555 1_555
Eu5C_2 O20 1_555 1_555
Eu5_2 O25 1_555 1_555
Eu5B O29 1_555 1_555
O6C Eu2 1_555 1_555
O7C Eu2 1_555 1_555
O9C Eu5 1_555 1_555
O12C Eu3 1_555 1_555
O14A Eu3 1_555 1_555
O15B Eu1 1_555 1_555
O16C Eu2 1_555 1_555
O19C Eu4 1_555 1_555
O20C Eu4 1_555 1_555
O21C Eu3 1_555 1_555
O24_2 Eu4 1_555 1_555
O25_2 Eu5 1_555 1_555
O26B Eu4 1_555 1_555
O29A Eu4 1_555 1_555
O29B Eu5 1_555 1_555
O30B Eu5 1_555 1_555
O31_2 Eu4 1_555 1_555
O31C Eu5 1_555 1_555
O32C Eu5 1_555 1_555
O38C Eu3 1_555 1_555
Eu2 O38 1_555 1_555
Eu5 O20C 1_555 1_555
O7 Eu2C 1_555 1_555
O16 Eu2C 1_555 1_555
O20 Eu4C 1_555 1_555
O21 Eu3C 1_555 1_555
O30 Eu5B 1_555 1_555
O31 Eu4_2 1_555 1_555
O31 Eu5C_2 1_555 1_555
O32 Eu5C_2 1_555 1_555
O35 C96 1_555 1_555
O38 Eu3C 1_555 1_555
C6 C7 1_555 1_555
C13 C14 1_555 1_555
C20 C21 1_555 1_555
C25 C26 1_555 1_555
C27 C28 1_555 1_555
C34 C35 1_555 1_555
C41 C42 1_555 1_555
C48 C49 1_555 1_555
C55 C56 1_555 1_555
C62 C63 1_555 1_555
C69 C70 1_555 1_555
C76 C77 1_555 1_555
C83 C84 1_555 1_555
C90 C91 1_555 1_555
C95 C96 1_555 1_555
C97 C98 1_555 1_555
Eu2C O38C 1_555 1_555
Eu3C O7C 1_555 1_555
Eu5C O29A 1_555 1_555
Eu5C O31_2 1_555 1_555

#END
