
#######################################################################
#
#                 Cambridge Crystallographic Data Centre
#                                CCDC 
#
#######################################################################
#
# If this CIF has been generated from an entry in the Cambridge 
# Structural Database, then it will include bibliographic, chemical, 
# crystal, experimental, refinement or atomic coordinate data resulting 
# from the CCDC's data processing and validation procedures.
#
#######################################################################

data_GAPREV
_symmetry_cell_setting           orthorhombic
_symmetry_space_group_name_H-M   'P b n a'
_symmetry_Int_Tables_number      60
_space_group_name_Hall           '-P 2ac 2b'
loop_
_symmetry_equiv_pos_site_id
_symmetry_equiv_pos_as_xyz
1 x,y,z
2 1/2-x,1/2+y,1/2-z
3 x,1/2-y,-z
4 1/2-x,-y,1/2+z
5 -x,-y,-z
6 1/2+x,1/2-y,1/2+z
7 -x,1/2+y,z
8 1/2+x,y,1/2-z
_cell_length_a                   8.6744(9)
_cell_length_b                   14.130(5)
_cell_length_c                   17.266(5)
_cell_angle_alpha                90
_cell_angle_beta                 90
_cell_angle_gamma                90
_cell_volume                     2116.28
loop_
_atom_site_label
_atom_site_type_symbol
_atom_site_fract_x
_atom_site_fract_y
_atom_site_fract_z
Cd1 Cd 0.11709(5) 0.07785(3) 0.19329(3)
N1 N 0.2540(6) 0.0867(4) 0.0750(3)
C1 C 0.4072(7) 0.0945(4) 0.0818(4)
C2 C 0.5000(8) 0.1187(5) 0.0207(3)
H1 H 0.6059(8) 0.1248(5) 0.0276(3)
C3 C 0.4343(8) 0.1340(5) -0.0520(4)
C4 C 0.2793(8) 0.1227(6) -0.0594(4)
H2 H 0.2318(8) 0.1317(6) -0.1072(4)
C5 C 0.1927(8) 0.0974(6) 0.0049(4)
H3 H 0.0874(8) 0.0876(6) -0.0012(4)
C6 C 0.4745(7) 0.0781(5) 0.1622(4)
C7 C 0.5362(9) 0.1647(5) -0.1205(4)
O1 O 0.6778(6) 0.1648(4) -0.1096(3)
O2 O 0.4672(7) 0.1856(4) -0.1821(3)
O3 O 0.6161(5) 0.0788(4) 0.1698(3)
O4 O 0.3829(5) 0.0655(4) 0.2163(3)
O5 O 0.0842(7) -0.0802(4) 0.1823(3)
O6 O 0.1610(7) 0.2380(4) 0.2088(3)
O7 O -0.0919(6) 0.1114(5) 0.1155(3)
Cd1G Cd 0.61709(5) 0.07785(3) 0.30671(3)
Cd1_2 Cd 1.11709(5) 0.07785(3) 0.19329(3)
N1G N 0.7540(6) 0.0867(4) 0.4250(3)
C1G C 0.9072(7) 0.0945(4) 0.4182(4)
C2G C 1.0000(8) 0.1187(5) 0.4793(3)
H1G H 1.1059(8) 0.1248(5) 0.4724(3)
C3G C 0.9343(8) 0.1340(5) 0.5520(4)
C4G C 0.7793(8) 0.1227(6) 0.5594(4)
H2G H 0.7318(8) 0.1317(6) 0.6072(4)
C5G C 0.6927(8) 0.0974(6) 0.4951(4)
H3G H 0.5874(8) 0.0876(6) 0.5012(4)
C6G C 0.9745(7) 0.0781(5) 0.3378(4)
C7G C 1.0362(9) 0.1647(5) 0.6205(4)
O1G O 1.1778(6) 0.1648(4) 0.6096(3)
O2G O 0.9672(7) 0.1856(4) 0.6821(3)
O3G O 0.1161(5) 0.0788(4) 0.3302(3)
O3G_2 O 1.1161(5) 0.0788(4) 0.3302(3)
O4G O 0.8829(5) 0.0655(4) 0.2837(3)
O4G_2 O -0.1171(5) 0.0655(4) 0.2837(3)
O5G O 0.5842(7) -0.0802(4) 0.3177(3)
O6G O 0.6610(7) 0.2380(4) 0.2912(3)
O7G O 0.4081(6) 0.1114(5) 0.3845(3)
O8 O -0.1418(9) 0.2500 0.0000
loop_
_geom_bond_atom_site_label_1
_geom_bond_atom_site_label_2
_geom_bond_site_symmetry_1
_geom_bond_site_symmetry_2
Cd1 N1 1_555 1_555
N1 C1 1_555 1_555
C1 C2 1_555 1_555
C2 H1 1_555 1_555
C3 C2 1_555 1_555
C4 C3 1_555 1_555
H2 C4 1_555 1_555
C5 N1 1_555 1_555
H3 C5 1_555 1_555
C6 C1 1_555 1_555
C7 C3 1_555 1_555
O1 C7 1_555 1_555
O2 C7 1_555 1_555
O3 C6 1_555 1_555
O4 Cd1 1_555 1_555
O5 Cd1 1_555 1_555
O6 Cd1 1_555 1_555
O7 Cd1 1_555 1_555
Cd1G O3 1_555 1_555
Cd1_2 O3G_2 1_555 1_555
N1G Cd1G 1_555 1_555
C1G N1G 1_555 1_555
C2G C1G 1_555 1_555
H1G C2G 1_555 1_555
C3G C2G 1_555 1_555
C4G C3G 1_555 1_555
H2G C4G 1_555 1_555
C5G N1G 1_555 1_555
H3G C5G 1_555 1_555
C6G C1G 1_555 1_555
C7G C3G 1_555 1_555
O1G C7G 1_555 1_555
O2G C7G 1_555 1_555
O3G Cd1 1_555 1_555
O3G_2 C6G 1_555 1_555
O4G Cd1G 1_555 1_555
O4G_2 Cd1 1_555 1_555
O5G Cd1G 1_555 1_555
O6G Cd1G 1_555 1_555
O7G Cd1G 1_555 1_555
C4 C5 1_555 1_555
C6 O4 1_555 1_555
O4 Cd1G 1_555 1_555
Cd1_2 O4G 1_555 1_555
C4G C5G 1_555 1_555
C6G O4G 1_555 1_555

#END
