
#######################################################################
#
#                 Cambridge Crystallographic Data Centre
#                                CCDC 
#
#######################################################################
#
# If this CIF has been generated from an entry in the Cambridge 
# Structural Database, then it will include bibliographic, chemical, 
# crystal, experimental, refinement or atomic coordinate data resulting 
# from the CCDC's data processing and validation procedures.
#
#######################################################################

data_GAQLAM
_symmetry_cell_setting           triclinic
_symmetry_space_group_name_H-M   'P -1'
_symmetry_Int_Tables_number      2
_space_group_name_Hall           '-P 1'
loop_
_symmetry_equiv_pos_site_id
_symmetry_equiv_pos_as_xyz
1 x,y,z
2 -x,-y,-z
_cell_length_a                   10.2950(12)
_cell_length_b                   11.6318(14)
_cell_length_c                   26.616(3)
_cell_angle_alpha                93.265(4)
_cell_angle_beta                 91.424(4)
_cell_angle_gamma                99.097(4)
_cell_volume                     3140.2
loop_
_atom_site_label
_atom_site_type_symbol
_atom_site_fract_x
_atom_site_fract_y
_atom_site_fract_z
Ag1 Ag 0.14274(4) 0.66047(4) 0.245452(14)
Cl1 Cl 0.46495(11) 0.96126(11) 0.25492(5)
Ag2 Ag 0.27138(4) 0.42777(4) 0.213144(15)
Cl2 Cl 0.48191(11) 0.47207(11) 0.25782(5)
Ag3 Ag 0.15170(4) 0.16326(4) 0.243061(14)
Cl3 Cl -0.02183(11) 0.62695(10) 0.17938(4)
Ag4 Ag 0.26072(4) 0.92988(4) 0.208270(15)
Cl4 Cl -0.02645(11) 0.13839(10) 0.18175(4)
Ag5 Ag -0.12622(4) 0.74022(4) 0.274064(14)
Cl5 Cl 0.04649(11) 0.91489(11) 0.27803(4)
Ag6 Ag -0.12388(4) 0.26528(3) 0.264137(14)
Cl6 Cl 0.08967(11) 0.41245(11) 0.28911(5)
N1 N -0.1572(4) 0.5704(3) 0.31574(14)
H1 H -0.2441 0.5376 0.3102
H2 H -0.1081 0.5207 0.2997
C1 C -0.1281(5) 0.5679(4) 0.37057(19)
H3 H -0.0302 0.5813 0.3758
C2 C -0.1807(7) 0.4515(5) 0.3915(2)
H4 H -0.1398 0.3895 0.3740
H5 H -0.2769 0.4334 0.3846
C3 C -0.1530(8) 0.4511(6) 0.4479(2)
H6 H -0.1922 0.3748 0.4600
H7 H -0.0567 0.4617 0.4547
C4 C -0.2093(6) 0.5473(6) 0.4761(2)
H8 H -0.1857 0.5481 0.5124
H9 H -0.3065 0.5323 0.4722
C5 C -0.1571(5) 0.6647(5) 0.45651(19)
H10 H -0.0616 0.6843 0.4648
H11 H -0.2011 0.7252 0.4735
C6 C -0.1800(5) 0.6657(5) 0.39962(18)
H12 H -0.2756 0.6592 0.3920
H13 H -0.1365 0.7413 0.3881
N2 N 0.3199(4) 0.6935(3) 0.29273(14)
H14 H 0.3770 0.6463 0.2804
H15 H 0.3588 0.7695 0.2895
C7 C 0.3055(5) 0.6755(4) 0.34756(17)
H16 H 0.2551 0.5957 0.3511
C8 C 0.4393(5) 0.6831(5) 0.3744(2)
H17 H 0.4937 0.7590 0.3686
H18 H 0.4848 0.6205 0.3602
C9 C 0.4260(5) 0.6711(5) 0.4309(2)
H19 H 0.3796 0.5921 0.4369
H20 H 0.5148 0.6804 0.4473
C10 C 0.3512(5) 0.7611(6) 0.4543(2)
H21 H 0.4010 0.8402 0.4511
H22 H 0.3404 0.7488 0.4906
C11 C 0.2158(5) 0.7506(6) 0.4277(2)
H23 H 0.1638 0.6735 0.4334
H24 H 0.1683 0.8114 0.4424
C12 C 0.2276(5) 0.7640(5) 0.3710(2)
H25 H 0.1386 0.7529 0.3548
H26 H 0.2719 0.8437 0.3652
N3 N 0.1250(4) 0.3942(4) 0.15096(14)
H27 H 0.0639 0.3320 0.1591
H28 H 0.0822 0.4578 0.1509
C13 C 0.1615(4) 0.3692(4) 0.09785(17)
H29 H 0.1913 0.2914 0.0954
C14 C 0.2748(4) 0.4614(4) 0.08405(17)
H30 H 0.2490 0.5396 0.0889
H31 H 0.3521 0.4590 0.1066
C15 C 0.3119(4) 0.4415(5) 0.02977(18)
H32 H 0.3455 0.3664 0.0257
H33 H 0.3833 0.5044 0.0215
C16 C 0.1936(5) 0.4394(4) -0.00676(18)
H34 H 0.1658 0.5172 -0.0054
H35 H 0.2193 0.4214 -0.0416
C17 C 0.0800(5) 0.3486(4) 0.00695(18)
H36 H 0.1042 0.2700 0.0011
H37 H 0.0025 0.3531 -0.0152
C18 C 0.0435(4) 0.3654(4) 0.06174(18)
H38 H 0.0073 0.4391 0.0665
H39 H -0.0260 0.3006 0.0697
N4 N 0.1021(4) 0.8987(3) 0.15106(14)
H40 H 0.0535 0.8271 0.1562
H41 H 0.0483 0.9534 0.1577
C19 C 0.1292(4) 0.8997(4) 0.09648(17)
H42 H 0.0460 0.8669 0.0770
C20 C 0.2320(5) 0.8230(4) 0.08402(18)
H43 H 0.1981 0.7418 0.0919
H44 H 0.3124 0.8503 0.1053
C21 C 0.2671(5) 0.8253(4) 0.02889(19)
H45 H 0.1897 0.7887 0.0076
H46 H 0.3391 0.7795 0.0228
C22 C 0.3104(5) 0.9505(5) 0.0143(2)
H47 H 0.3939 0.9838 0.0326
H48 H 0.3262 0.9504 -0.0223
C23 C 0.2068(5) 1.0253(5) 0.0267(2)
H49 H 0.1264 0.9970 0.0055
H50 H 0.2393 1.1067 0.0187
C24 C 0.1724(5) 1.0229(5) 0.08201(19)
H51 H 0.2502 1.0591 0.1032
H52 H 0.1008 1.0690 0.0883
N5 N 0.3353(4) 0.2038(4) 0.28690(16)
H53 H 0.3849 0.1461 0.2795
H54 H 0.3810 0.2725 0.2767
C25 C 0.3233(6) 0.2157(6) 0.3431(2)
H55 H 0.2488 0.2588 0.3508
C26 C 0.4490(8) 0.2830(7) 0.3686(3)
H56 H 0.4667 0.3620 0.3558
H57 H 0.5240 0.2426 0.3601
C27 C 0.4375(9) 0.2933(7) 0.4257(3)
H58 H 0.5220 0.3331 0.4415
H59 H 0.3685 0.3406 0.4345
C28 C 0.4034(6) 0.1746(6) 0.4454(2)
H60 H 0.3903 0.1830 0.4820
H61 H 0.4780 0.1314 0.4402
C29 C 0.2816(8) 0.1053(8) 0.4202(2)
H62 H 0.2043 0.1422 0.4292
H63 H 0.2678 0.0254 0.4322
C30 C 0.2943(7) 0.0992(6) 0.3626(2)
H64 H 0.3655 0.0545 0.3536
H65 H 0.2111 0.0572 0.3466
N6 N -0.3349(4) 0.7420(4) 0.23809(15)
H66 H -0.3919 0.6787 0.2479
H67 H -0.3654 0.8084 0.2498
C31 C -0.3335(4) 0.7383(4) 0.18184(18)
H68 H -0.2812 0.6767 0.1705
C32 C -0.2627(4) 0.8550(4) 0.16530(17)
H69 H -0.3127 0.9179 0.1757
H70 H -0.1741 0.8730 0.1819
C33 C -0.2500(5) 0.8501(5) 0.1083(2)
H71 H -0.1939 0.7916 0.0982
H72 H -0.2071 0.9270 0.0979
C34 C -0.3852(5) 0.8177(4) 0.08153(19)
H73 H -0.3741 0.8101 0.0447
H74 H -0.4377 0.8808 0.0886
C35 C -0.4591(4) 0.7027(4) 0.09903(18)
H75 H -0.5483 0.6868 0.0829
H76 H -0.4119 0.6380 0.0884
C36 C -0.4701(4) 0.7081(4) 0.15617(17)
H77 H -0.5141 0.6319 0.1668
H78 H -0.5242 0.7680 0.1666
N7 N -0.2312(4) 0.3807(3) 0.21587(13)
H79 H -0.3010 0.4015 0.2332
H80 H -0.1746 0.4480 0.2103
C37 C -0.2805(4) 0.3215(4) 0.16670(16)
H81 H -0.2044 0.2944 0.1496
C38 C -0.3818(5) 0.2143(4) 0.17509(18)
H82 H -0.3412 0.1615 0.1963
H83 H -0.4564 0.2388 0.1934
C39 C -0.4326(5) 0.1495(4) 0.1266(2)
H84 H -0.5031 0.0847 0.1336
H85 H -0.3605 0.1154 0.1105
C40 C -0.4875(5) 0.2302(4) 0.08986(19)
H86 H -0.5118 0.1865 0.0571
H87 H -0.5680 0.2548 0.1036
C41 C -0.3867(5) 0.3374(4) 0.08197(18)
H88 H -0.4268 0.3904 0.0607
H89 H -0.3112 0.3135 0.0640
C42 C -0.3374(4) 0.4023(4) 0.13226(17)
H90 H -0.2690 0.4695 0.1261
H91 H -0.4113 0.4326 0.1488
N8 N -0.1993(4) 0.0949(3) 0.29715(15)
H92 H -0.2804 0.0673 0.2820
H93 H -0.1442 0.0433 0.2874
C43 C -0.2143(5) 0.0883(4) 0.35232(18)
H94 H -0.2762 0.1424 0.3632
C44 C -0.2740(5) -0.0348(5) 0.3655(2)
H95 H -0.3628 -0.0560 0.3493
H96 H -0.2186 -0.0911 0.3522
C45 C -0.2838(6) -0.0429(5) 0.4225(2)
H97 H -0.3486 0.0054 0.4350
H98 H -0.3159 -0.1248 0.4299
C46 C -0.1517(6) -0.0018(5) 0.4497(2)
H99 H -0.0892 -0.0550 0.4399
H100 H -0.1626 -0.0039 0.4865
C47 C -0.0957(6) 0.1227(5) 0.4367(2)
H101 H -0.1546 0.1769 0.4491
H102 H -0.0083 0.1469 0.4538
C48 C -0.0825(5) 0.1299(5) 0.37978(19)
H103 H -0.0500 0.2116 0.3721
H104 H -0.0175 0.0812 0.3679
Ag3_2 Ag 0.15170(4) 1.16326(4) 0.243061(14)
Ag4_2 Ag 0.26072(4) -0.07012(4) 0.208270(15)
loop_
_geom_bond_atom_site_label_1
_geom_bond_atom_site_label_2
_geom_bond_site_symmetry_1
_geom_bond_site_symmetry_2
Ag1 Ag2 1_555 1_555
Cl1 Ag4 1_555 1_555
Ag2 Cl2 1_555 1_555
Ag3 Ag2 1_555 1_555
Cl3 Ag1 1_555 1_555
Ag4 Ag1 1_555 1_555
Cl4 Ag3 1_555 1_555
Ag5 Ag1 1_555 1_555
Cl5 Ag4 1_555 1_555
Ag6 Ag3 1_555 1_555
Cl6 Ag2 1_555 1_555
N1 Ag5 1_555 1_555
H1 N1 1_555 1_555
H2 N1 1_555 1_555
C1 N1 1_555 1_555
H3 C1 1_555 1_555
C2 C1 1_555 1_555
H4 C2 1_555 1_555
H5 C2 1_555 1_555
C3 C2 1_555 1_555
H6 C3 1_555 1_555
H7 C3 1_555 1_555
C4 C3 1_555 1_555
H8 C4 1_555 1_555
H9 C4 1_555 1_555
C5 C4 1_555 1_555
H10 C5 1_555 1_555
H11 C5 1_555 1_555
C6 C1 1_555 1_555
H12 C6 1_555 1_555
H13 C6 1_555 1_555
N2 Ag1 1_555 1_555
H14 N2 1_555 1_555
H15 N2 1_555 1_555
C7 N2 1_555 1_555
H16 C7 1_555 1_555
C8 C7 1_555 1_555
H17 C8 1_555 1_555
H18 C8 1_555 1_555
C9 C8 1_555 1_555
H19 C9 1_555 1_555
H20 C9 1_555 1_555
C10 C9 1_555 1_555
H21 C10 1_555 1_555
H22 C10 1_555 1_555
C11 C10 1_555 1_555
H23 C11 1_555 1_555
H24 C11 1_555 1_555
C12 C7 1_555 1_555
H25 C12 1_555 1_555
H26 C12 1_555 1_555
N3 Ag2 1_555 1_555
H27 N3 1_555 1_555
H28 N3 1_555 1_555
C13 N3 1_555 1_555
H29 C13 1_555 1_555
C14 C13 1_555 1_555
H30 C14 1_555 1_555
H31 C14 1_555 1_555
C15 C14 1_555 1_555
H32 C15 1_555 1_555
H33 C15 1_555 1_555
C16 C15 1_555 1_555
H34 C16 1_555 1_555
H35 C16 1_555 1_555
C17 C16 1_555 1_555
H36 C17 1_555 1_555
H37 C17 1_555 1_555
C18 C13 1_555 1_555
H38 C18 1_555 1_555
H39 C18 1_555 1_555
N4 Ag4 1_555 1_555
H40 N4 1_555 1_555
H41 N4 1_555 1_555
C19 N4 1_555 1_555
H42 C19 1_555 1_555
C20 C19 1_555 1_555
H43 C20 1_555 1_555
H44 C20 1_555 1_555
C21 C20 1_555 1_555
H45 C21 1_555 1_555
H46 C21 1_555 1_555
C22 C21 1_555 1_555
H47 C22 1_555 1_555
H48 C22 1_555 1_555
C23 C22 1_555 1_555
H49 C23 1_555 1_555
H50 C23 1_555 1_555
C24 C19 1_555 1_555
H51 C24 1_555 1_555
H52 C24 1_555 1_555
N5 Ag3 1_555 1_555
H53 N5 1_555 1_555
H54 N5 1_555 1_555
C25 N5 1_555 1_555
H55 C25 1_555 1_555
C26 C25 1_555 1_555
H56 C26 1_555 1_555
H57 C26 1_555 1_555
C27 C26 1_555 1_555
H58 C27 1_555 1_555
H59 C27 1_555 1_555
C28 C27 1_555 1_555
H60 C28 1_555 1_555
H61 C28 1_555 1_555
C29 C28 1_555 1_555
H62 C29 1_555 1_555
H63 C29 1_555 1_555
C30 C25 1_555 1_555
H64 C30 1_555 1_555
H65 C30 1_555 1_555
N6 Ag5 1_555 1_555
H66 N6 1_555 1_555
H67 N6 1_555 1_555
C31 N6 1_555 1_555
H68 C31 1_555 1_555
C32 C31 1_555 1_555
H69 C32 1_555 1_555
H70 C32 1_555 1_555
C33 C32 1_555 1_555
H71 C33 1_555 1_555
H72 C33 1_555 1_555
C34 C33 1_555 1_555
H73 C34 1_555 1_555
H74 C34 1_555 1_555
C35 C34 1_555 1_555
H75 C35 1_555 1_555
H76 C35 1_555 1_555
C36 C31 1_555 1_555
H77 C36 1_555 1_555
H78 C36 1_555 1_555
N7 Ag6 1_555 1_555
H79 N7 1_555 1_555
H80 N7 1_555 1_555
C37 N7 1_555 1_555
H81 C37 1_555 1_555
C38 C37 1_555 1_555
H82 C38 1_555 1_555
H83 C38 1_555 1_555
C39 C38 1_555 1_555
H84 C39 1_555 1_555
H85 C39 1_555 1_555
C40 C39 1_555 1_555
H86 C40 1_555 1_555
H87 C40 1_555 1_555
C41 C40 1_555 1_555
H88 C41 1_555 1_555
H89 C41 1_555 1_555
C42 C37 1_555 1_555
H90 C42 1_555 1_555
H91 C42 1_555 1_555
N8 Ag6 1_555 1_555
H92 N8 1_555 1_555
H93 N8 1_555 1_555
C43 N8 1_555 1_555
H94 C43 1_555 1_555
C44 C43 1_555 1_555
H95 C44 1_555 1_555
H96 C44 1_555 1_555
C45 C44 1_555 1_555
H97 C45 1_555 1_555
H98 C45 1_555 1_555
C46 C45 1_555 1_555
H99 C46 1_555 1_555
H100 C46 1_555 1_555
C47 C46 1_555 1_555
H101 C47 1_555 1_555
H102 C47 1_555 1_555
C48 C43 1_555 1_555
H103 C48 1_555 1_555
H104 C48 1_555 1_555
Ag3_2 Ag4 1_555 1_555
Ag4_2 Ag3 1_555 1_555
Cl4 Ag6 1_555 1_555
Ag5 Cl5 1_555 1_555
Ag6 Cl6 1_555 1_555
C5 C6 1_555 1_555
C11 C12 1_555 1_555
C17 C18 1_555 1_555
C23 C24 1_555 1_555
C29 C30 1_555 1_555
C35 C36 1_555 1_555
C41 C42 1_555 1_555
C47 C48 1_555 1_555

#END
