
#######################################################################
#
#                 Cambridge Crystallographic Data Centre
#                                CCDC 
#
#######################################################################
#
# If this CIF has been generated from an entry in the Cambridge 
# Structural Database, then it will include bibliographic, chemical, 
# crystal, experimental, refinement or atomic coordinate data resulting 
# from the CCDC's data processing and validation procedures.
#
#######################################################################

data_GAQLEQ
_symmetry_cell_setting           tetragonal
_symmetry_space_group_name_H-M   'P 4/n'
_symmetry_Int_Tables_number      85
_space_group_name_Hall           '-P 4a'
loop_
_symmetry_equiv_pos_site_id
_symmetry_equiv_pos_as_xyz
1 x,y,z
2 1/2-y,x,z
3 y,1/2-x,z
4 1/2-x,1/2-y,z
5 -x,-y,-z
6 1/2+y,-x,-z
7 -y,1/2+x,-z
8 1/2+x,1/2+y,-z
_cell_length_a                   17.2444(8)
_cell_length_b                   17.2444(8)
_cell_length_c                   6.0965(4)
_cell_angle_alpha                90
_cell_angle_beta                 90
_cell_angle_gamma                90
_cell_volume                     1812.91
loop_
_atom_site_label
_atom_site_type_symbol
_atom_site_fract_x
_atom_site_fract_y
_atom_site_fract_z
Ag1 Ag 0.2500 -0.7500 0.27994(4)
Ag2 Ag 0.237200(8) -0.604170(8) -0.36824(2)
Cl1 Cl 0.2500 -0.7500 -0.14901(12)
Cl2 Cl 0.33685(2) -0.61629(2) -0.64723(6)
N1 N 0.17441(9) -0.55790(8) -0.0799(2)
H1 H 0.1761(13) -0.5914(13) 0.006(4)
C1 C 0.20926(11) -0.48874(10) 0.0223(3)
H2 H 0.2640 -0.4994 0.0604
H3 H 0.1811 -0.4757 0.1589
C2 C 0.20495(11) -0.42104(10) -0.1366(3)
H4 H 0.2367 -0.4329 -0.2677
H5 H 0.2269 -0.3743 -0.0659
C3 C 0.12182(11) -0.40426(10) -0.2078(3)
H6 H 0.0924 -0.3860 -0.0762
C4 C 0.08361(10) -0.47816(11) -0.2903(3)
H7 H 0.0279 -0.4681 -0.3174
H8 H 0.1076 -0.4934 -0.4313
C5 C 0.09162(10) -0.54433(11) -0.1276(3)
H9 H 0.0638 -0.5313 0.0096
H10 H 0.0682 -0.5920 -0.1895
C6 C 0.11817(15) -0.34060(13) -0.3812(4)
H11 H 0.1436 -0.2938 -0.3252
H12 H 0.0639 -0.3290 -0.4154
H13 H 0.1448 -0.3581 -0.5143
Ag1_2 Ag 0.2500 -0.7500 -0.72006(4)
Ag2B Ag 0.395830(8) -0.737200(8) -0.36824(2)
Ag2A Ag 0.104170(8) -0.762800(8) -0.36824(2)
Ag2C Ag 0.262800(8) -0.895830(8) -0.36824(2)
Ag2_2 Ag 0.237200(8) -0.604170(8) 0.63176(2)
Ag2A_2 Ag 0.104170(8) -0.762800(8) 0.63176(2)
Ag2B_2 Ag 0.395830(8) -0.737200(8) 0.63176(2)
Ag2C_2 Ag 0.262800(8) -0.895830(8) 0.63176(2)
Cl2A Cl 0.11629(2) -0.66315(2) 0.35277(6)
Cl2B Cl 0.38371(2) -0.83685(2) 0.35277(6)
Cl2C Cl 0.16315(2) -0.88371(2) 0.35277(6)
Cl2_2 Cl 0.33685(2) -0.61629(2) 0.35277(6)
Cl2A_2 Cl 0.11629(2) -0.66315(2) -0.64723(6)
Cl2B_2 Cl 0.38371(2) -0.83685(2) -0.64723(6)
Cl2C_2 Cl 0.16315(2) -0.88371(2) -0.64723(6)
N1B N 0.44210(8) -0.67441(9) -0.0799(2)
N1A N 0.05790(8) -0.82559(9) -0.0799(2)
N1C N 0.32559(9) -0.94210(8) -0.0799(2)
H1B H 0.4086(13) -0.6761(13) 0.006(4)
H1A H 0.0914(13) -0.8239(13) 0.006(4)
H1C H 0.3239(13) -0.9086(13) 0.006(4)
C1B C 0.51126(10) -0.70926(11) 0.0223(3)
C1A C -0.01126(10) -0.79074(11) 0.0223(3)
C1C C 0.29074(11) -1.01126(10) 0.0223(3)
H2B H 0.5006 -0.7640 0.0604
H2A H -0.0006 -0.7360 0.0604
H2C H 0.2360 -1.0006 0.0604
H3B H 0.5243 -0.6811 0.1589
H3A H -0.0243 -0.8189 0.1589
H3C H 0.3189 -1.0243 0.1589
C2B C 0.57896(10) -0.70495(11) -0.1366(3)
C2A C -0.07896(10) -0.79505(11) -0.1366(3)
C2C C 0.29505(11) -1.07896(10) -0.1366(3)
H4B H 0.5671 -0.7367 -0.2677
H4A H -0.0671 -0.7633 -0.2677
H4C H 0.2633 -1.0671 -0.2677
H5B H 0.6257 -0.7269 -0.0659
H5A H -0.1257 -0.7731 -0.0659
H5C H 0.2731 -1.1257 -0.0659
C3B C 0.59574(10) -0.62182(11) -0.2078(3)
C3A C -0.09574(10) -0.87818(11) -0.2078(3)
C3C C 0.37818(11) -1.09574(10) -0.2078(3)
H6B H 0.6140 -0.5924 -0.0762
H6A H -0.1140 -0.9076 -0.0762
H6C H 0.4076 -1.1140 -0.0762
C4B C 0.52184(11) -0.58361(10) -0.2903(3)
C4A C -0.02184(11) -0.91639(10) -0.2903(3)
C4C C 0.41639(10) -1.02184(11) -0.2903(3)
H7B H 0.5319 -0.5279 -0.3174
H7A H -0.0319 -0.9721 -0.3174
H7C H 0.4721 -1.0319 -0.3174
H8B H 0.5066 -0.6076 -0.4313
H8A H -0.0066 -0.8924 -0.4313
H8C H 0.3924 -1.0066 -0.4313
C5B C 0.45567(11) -0.59162(10) -0.1276(3)
C5A C 0.04433(11) -0.90838(10) -0.1276(3)
C5C C 0.40838(10) -0.95567(11) -0.1276(3)
H9B H 0.4687 -0.5638 0.0096
H9A H 0.0313 -0.9362 0.0096
H9C H 0.4362 -0.9687 0.0096
H10B H 0.4080 -0.5682 -0.1895
H10A H 0.0920 -0.9318 -0.1895
H10C H 0.4318 -0.9080 -0.1895
C6B C 0.65940(13) -0.61817(15) -0.3812(4)
C6A C -0.15940(13) -0.88183(15) -0.3812(4)
C6C C 0.38183(15) -1.15940(13) -0.3812(4)
H11B H 0.7062 -0.6436 -0.3252
H11A H -0.2062 -0.8564 -0.3252
H11C H 0.3564 -1.2062 -0.3252
H12B H 0.6710 -0.5639 -0.4154
H12A H -0.1710 -0.9361 -0.4154
H12C H 0.4361 -1.1710 -0.4154
H13B H 0.6419 -0.6448 -0.5143
H13A H -0.1419 -0.8552 -0.5143
H13C H 0.3552 -1.1419 -0.5143
loop_
_geom_bond_atom_site_label_1
_geom_bond_atom_site_label_2
_geom_bond_site_symmetry_1
_geom_bond_site_symmetry_2
Ag1 Cl1 1_555 1_555
Ag2 Cl1 1_555 1_555
Cl1 Ag2B 1_555 1_555
Cl2 Ag2 1_555 1_555
N1 Ag2 1_555 1_555
H1 N1 1_555 1_555
C1 N1 1_555 1_555
H2 C1 1_555 1_555
H3 C1 1_555 1_555
C2 C1 1_555 1_555
H4 C2 1_555 1_555
H5 C2 1_555 1_555
C3 C2 1_555 1_555
H6 C3 1_555 1_555
C4 C3 1_555 1_555
H7 C4 1_555 1_555
H8 C4 1_555 1_555
C5 N1 1_555 1_555
H9 C5 1_555 1_555
H10 C5 1_555 1_555
C6 C3 1_555 1_555
H11 C6 1_555 1_555
H12 C6 1_555 1_555
H13 C6 1_555 1_555
Ag1_2 Ag2 1_555 1_555
Ag2B Ag2 1_555 1_555
Ag2A Ag2 1_555 1_555
Ag2C Cl1 1_555 1_555
Ag2_2 Ag1 1_555 1_555
Ag2A_2 Ag1 1_555 1_555
Ag2B_2 Ag1 1_555 1_555
Ag2C_2 Ag1 1_555 1_555
Cl2A Ag1 1_555 1_555
Cl2B Ag1 1_555 1_555
Cl2C Ag1 1_555 1_555
Cl2_2 Ag1 1_555 1_555
Cl2A_2 Ag2 1_555 1_555
Cl2B_2 Ag1_2 1_555 1_555
Cl2C_2 Ag1_2 1_555 1_555
N1B Ag2B 1_555 1_555
N1A Ag2A 1_555 1_555
N1C Ag2C 1_555 1_555
H1B N1B 1_555 1_555
H1A N1A 1_555 1_555
H1C N1C 1_555 1_555
C1B N1B 1_555 1_555
C1A N1A 1_555 1_555
C1C N1C 1_555 1_555
H2B C1B 1_555 1_555
H2A C1A 1_555 1_555
H2C C1C 1_555 1_555
H3B C1B 1_555 1_555
H3A C1A 1_555 1_555
H3C C1C 1_555 1_555
C2B C1B 1_555 1_555
C2A C1A 1_555 1_555
C2C C1C 1_555 1_555
H4B C2B 1_555 1_555
H4A C2A 1_555 1_555
H4C C2C 1_555 1_555
H5B C2B 1_555 1_555
H5A C2A 1_555 1_555
H5C C2C 1_555 1_555
C3B C2B 1_555 1_555
C3A C2A 1_555 1_555
C3C C2C 1_555 1_555
H6B C3B 1_555 1_555
H6A C3A 1_555 1_555
H6C C3C 1_555 1_555
C4B C3B 1_555 1_555
C4A C3A 1_555 1_555
C4C C3C 1_555 1_555
H7B C4B 1_555 1_555
H7A C4A 1_555 1_555
H7C C4C 1_555 1_555
H8B C4B 1_555 1_555
H8A C4A 1_555 1_555
H8C C4C 1_555 1_555
C5B N1B 1_555 1_555
C5A N1A 1_555 1_555
C5C N1C 1_555 1_555
H9B C5B 1_555 1_555
H9A C5A 1_555 1_555
H9C C5C 1_555 1_555
H10B C5B 1_555 1_555
H10A C5A 1_555 1_555
H10C C5C 1_555 1_555
C6B C3B 1_555 1_555
C6A C3A 1_555 1_555
C6C C3C 1_555 1_555
H11B C6B 1_555 1_555
H11A C6A 1_555 1_555
H11C C6C 1_555 1_555
H12B C6B 1_555 1_555
H12A C6A 1_555 1_555
H12C C6C 1_555 1_555
H13B C6B 1_555 1_555
H13A C6A 1_555 1_555
H13C C6C 1_555 1_555
Cl1 Ag2A 1_555 1_555
Cl2 Ag1_2 1_555 1_555
Cl2 Ag2B 1_555 1_555
C4 C5 1_555 1_555
Ag1_2 Ag2B 1_555 1_555
Ag1_2 Ag2A 1_555 1_555
Ag1_2 Ag2C 1_555 1_555
Ag1_2 Cl2A_2 1_555 1_555
Ag2B Ag2C 1_555 1_555
Ag2B Cl2B_2 1_555 1_555
Ag2A Ag2C 1_555 1_555
Ag2A Cl2A_2 1_555 1_555
Ag2A Cl2C_2 1_555 1_555
Ag2C Cl2B_2 1_555 1_555
Ag2C Cl2C_2 1_555 1_555
Ag2_2 Ag2A_2 1_555 1_555
Ag2_2 Ag2B_2 1_555 1_555
Ag2_2 Cl2A 1_555 1_555
Ag2_2 Cl2_2 1_555 1_555
Ag2A_2 Ag2C_2 1_555 1_555
Ag2A_2 Cl2A 1_555 1_555
Ag2A_2 Cl2C 1_555 1_555
Ag2B_2 Ag2C_2 1_555 1_555
Ag2B_2 Cl2B 1_555 1_555
Ag2B_2 Cl2_2 1_555 1_555
Ag2C_2 Cl2B 1_555 1_555
Ag2C_2 Cl2C 1_555 1_555
C4B C5B 1_555 1_555
C4A C5A 1_555 1_555
C4C C5C 1_555 1_555

#END
