
#######################################################################
#
#                 Cambridge Crystallographic Data Centre
#                                CCDC 
#
#######################################################################
#
# If this CIF has been generated from an entry in the Cambridge 
# Structural Database, then it will include bibliographic, chemical, 
# crystal, experimental, refinement or atomic coordinate data resulting 
# from the CCDC's data processing and validation procedures.
#
#######################################################################

data_GAQVUQ
_symmetry_cell_setting           monoclinic
_symmetry_space_group_name_H-M   'P 21/c'
_symmetry_Int_Tables_number      14
_space_group_name_Hall           '-P 2ybc'
loop_
_symmetry_equiv_pos_site_id
_symmetry_equiv_pos_as_xyz
1 x,y,z
2 -x,1/2+y,1/2-z
3 -x,-y,-z
4 x,1/2-y,1/2+z
_cell_length_a                   8.34970(10)
_cell_length_b                   23.0390(2)
_cell_length_c                   21.3683(2)
_cell_angle_alpha                90
_cell_angle_beta                 93.3420(10)
_cell_angle_gamma                90
_cell_volume                     4103.6
loop_
_atom_site_label
_atom_site_type_symbol
_atom_site_fract_x
_atom_site_fract_y
_atom_site_fract_z
Ag1 Ag 0.40172(5) 0.773068(15) 0.314511(17)
Ag2 Ag 0.06620(4) 0.727548(15) 0.280294(16)
Ag3 Ag 0.71878(5) 0.769570(16) 0.253900(17)
N1 N 0.4895(5) 0.69338(17) 0.35132(18)
C1 C 0.5579(6) 0.64951(19) 0.3227(2)
N2 N 0.6162(5) 0.61018(18) 0.3641(2)
C2 C 0.5832(8) 0.6304(3) 0.4224(3)
H1 H 0.6104 0.6127 0.4606
C3 C 0.5036(8) 0.6812(2) 0.4135(2)
H2 H 0.4647 0.7041 0.4450
C4 C 0.7133(8) 0.5590(3) 0.3528(3)
H3 H 0.7364 0.5575 0.3093
H4 H 0.6554 0.5247 0.3635
H5 H 0.8119 0.5610 0.3781
N3 N 0.3055(5) 0.84544(17) 0.26406(18)
C5 C 0.2242(6) 0.8452(2) 0.2089(2)
N4 N 0.1597(5) 0.89782(18) 0.1967(2)
C6 C 0.2014(7) 0.9328(2) 0.2469(3)
H6 H 0.1729 0.9715 0.2520
C7 C 0.2927(7) 0.8998(2) 0.2875(3)
H7 H 0.3395 0.9125 0.3257
C8 C 0.0513(8) 0.9147(3) 0.1436(3)
H8 H 0.1096 0.9367 0.1142
H9 H -0.0341 0.9381 0.1582
H10 H 0.0073 0.8806 0.1234
N5 N 0.1512(6) 0.74343(18) 0.1904(2)
C9 C 0.2041(6) 0.7926(2) 0.1699(2)
N6 N 0.2432(5) 0.7881(2) 0.1096(2)
C10 C 0.2127(8) 0.7326(3) 0.0914(3)
H11 H 0.2287 0.7167 0.0523
C11 C 0.1548(8) 0.7050(3) 0.1409(3)
H12 H 0.1226 0.6664 0.1416
C12 C 0.3183(8) 0.8328(4) 0.0714(3)
H13 H 0.4122 0.8170 0.0539
H14 H 0.3480 0.8656 0.0973
H15 H 0.2435 0.8449 0.0381
N7 N -0.0067(5) 0.73722(16) 0.37323(19)
C13 C -0.0747(6) 0.7820(2) 0.3988(2)
N8 N -0.1088(5) 0.76994(19) 0.4585(2)
C14 C -0.0597(7) 0.7146(3) 0.4708(3)
H16 H -0.0689 0.6944 0.5081
C15 C 0.0050(7) 0.6948(2) 0.4185(3)
H17 H 0.0502 0.6583 0.4138
C16 C -0.1978(8) 0.8051(3) 0.5023(3)
H18 H -0.2901 0.7839 0.5143
H19 H -0.2317 0.8407 0.4823
H20 H -0.1296 0.8136 0.5389
N9 N -0.1957(5) 0.83917(18) 0.31000(17)
C17 C -0.1142(5) 0.8366(2) 0.3655(2)
N10 N -0.0721(5) 0.89042(17) 0.38506(19)
C18 C -0.1312(7) 0.9287(2) 0.3407(3)
H21 H -0.1207 0.9689 0.3417
C19 C -0.2078(7) 0.8969(2) 0.2951(3)
H22 H -0.2607 0.9118 0.2592
C20 C 0.0343(7) 0.9061(3) 0.4401(3)
H23 H -0.0274 0.9246 0.4710
H24 H 0.1160 0.9322 0.4274
H25 H 0.0836 0.8716 0.4576
N11 N 0.6290(5) 0.68897(19) 0.22095(18)
C21 C 0.5706(6) 0.6463(2) 0.2544(2)
N12 N 0.5235(5) 0.60112(19) 0.2171(2)
C22 C 0.5526(8) 0.6164(3) 0.1571(3)
H26 H 0.5321 0.5940 0.1213
C23 C 0.6168(8) 0.6701(3) 0.1595(3)
H27 H 0.6480 0.6911 0.1252
C24 C 0.4427(7) 0.5482(3) 0.2340(3)
H28 H 0.3516 0.5418 0.2053
H29 H 0.4076 0.5517 0.2758
H30 H 0.5154 0.5161 0.2320
Ag3_2 Ag -0.28122(5) 0.769570(16) 0.253900(17)
N9_2 N 0.8043(5) 0.83917(18) 0.31000(17)
N13 N 0.4182(6) 0.8426(2) 0.4510(2)
O1 O 0.3201(6) 0.8030(2) 0.4414(2)
O2 O 0.4285(6) 0.8675(2) 0.5014(2)
O3 O 0.5066(6) 0.8548(3) 0.40988(19)
N15 N 0.068(2) 0.5864(7) 0.2741(13)
O7 O 0.1462(19) 0.6152(7) 0.3134(4)
O8 O 0.075(2) 0.5328(7) 0.274(2)
O9 O -0.027(4) 0.6116(13) 0.2377(11)
N16 N -0.2910(7) 0.8372(3) 0.1211(2)
O10 O -0.2006(8) 0.7957(3) 0.1300(3)
O11 O -0.2911(6) 0.8643(3) 0.0716(2)
O12 O -0.3727(6) 0.8530(3) 0.1633(2)
O13 O -0.0652(2) 0.9368(2) 0.60866(12)
H31 H -0.1380 0.9430 0.5820
H32 H -0.0520 0.9230 0.6440
O14 O 0.3197(5) 1.04368(17) 0.48397(15)
H33 H 0.3890 1.0690 0.4870
H34 H 0.2950 1.0170 0.5070
O15 O 0.2443(3) 0.95017(10) 0.5665(2)
H35 H 0.2960 0.9260 0.5480
H36 H 0.1540 0.9460 0.5790
O16 O 0.199(2) 0.5490(8) 0.4294(8)
H37 H 0.2681 0.5645 0.4097
C25 C 0.269(3) 0.5289(10) 0.4904(11)
H38 H 0.3393 0.5584 0.5083
H39 H 0.3296 0.4941 0.4846
H40 H 0.1855 0.5213 0.5182
O18 O 0.9448(19) 0.5462(7) 0.5022(8)
N14? N 0.037(6) 0.5925(18) 0.271(3)
O4? O 0.161(5) 0.6180(18) 0.2887(14)
O5? O 0.030(6) 0.5390(18) 0.270(5)
O6? O -0.056(9) 0.620(3) 0.235(3)
O17? O 0.462(2) 0.4656(8) 0.4290(8)
H41? H 0.4395 0.4310 0.4309
C26? C 0.351(2) 0.4944(9) 0.3809(9)
H42? H 0.2618 0.5109 0.4009
H43? H 0.3130 0.4662 0.3505
H44? H 0.4079 0.5245 0.3604
loop_
_geom_bond_atom_site_label_1
_geom_bond_atom_site_label_2
_geom_bond_site_symmetry_1
_geom_bond_site_symmetry_2
Ag1 N1 1_555 1_555
Ag2 N5 1_555 1_555
Ag3 N11 1_555 1_555
N1 C1 1_555 1_555
C1 N2 1_555 1_555
N2 C2 1_555 1_555
C2 H1 1_555 1_555
C3 N1 1_555 1_555
H2 C3 1_555 1_555
C4 N2 1_555 1_555
H3 C4 1_555 1_555
H4 C4 1_555 1_555
H5 C4 1_555 1_555
N3 Ag1 1_555 1_555
C5 N3 1_555 1_555
N4 C5 1_555 1_555
C6 N4 1_555 1_555
H6 C6 1_555 1_555
C7 N3 1_555 1_555
H7 C7 1_555 1_555
C8 N4 1_555 1_555
H8 C8 1_555 1_555
H9 C8 1_555 1_555
H10 C8 1_555 1_555
N5 C9 1_555 1_555
C9 C5 1_555 1_555
N6 C9 1_555 1_555
C10 N6 1_555 1_555
H11 C10 1_555 1_555
C11 N5 1_555 1_555
H12 C11 1_555 1_555
C12 N6 1_555 1_555
H13 C12 1_555 1_555
H14 C12 1_555 1_555
H15 C12 1_555 1_555
N7 Ag2 1_555 1_555
C13 N7 1_555 1_555
N8 C13 1_555 1_555
C14 N8 1_555 1_555
H16 C14 1_555 1_555
C15 N7 1_555 1_555
H17 C15 1_555 1_555
C16 N8 1_555 1_555
H18 C16 1_555 1_555
H19 C16 1_555 1_555
H20 C16 1_555 1_555
N9 C17 1_555 1_555
C17 C13 1_555 1_555
N10 C17 1_555 1_555
C18 N10 1_555 1_555
H21 C18 1_555 1_555
C19 N9 1_555 1_555
H22 C19 1_555 1_555
C20 N10 1_555 1_555
H23 C20 1_555 1_555
H24 C20 1_555 1_555
H25 C20 1_555 1_555
N11 C21 1_555 1_555
C21 C1 1_555 1_555
N12 C21 1_555 1_555
C22 N12 1_555 1_555
H26 C22 1_555 1_555
C23 N11 1_555 1_555
H27 C23 1_555 1_555
C24 N12 1_555 1_555
H28 C24 1_555 1_555
H29 C24 1_555 1_555
H30 C24 1_555 1_555
N13 O1 1_555 1_555
O2 N13 1_555 1_555
O3 N13 1_555 1_555
N15 O7 1_555 1_555
O8 N15 1_555 1_555
O9 N15 1_555 1_555
N16 O10 1_555 1_555
O11 N16 1_555 1_555
O12 N16 1_555 1_555
O13 H31 1_555 1_555
H32 O13 1_555 1_555
O14 H33 1_555 1_555
H34 O14 1_555 1_555
O15 H35 1_555 1_555
H36 O15 1_555 1_555
O16 H37 1_555 1_555
C25 O16 1_555 1_555
H38 C25 1_555 1_555
H39 C25 1_555 1_555
H40 C25 1_555 1_555
Ag3_2 N9 1_555 1_555
N9_2 Ag3 1_555 1_555
C2 C3 1_555 1_555
C6 C7 1_555 1_555
C10 C11 1_555 1_555
C14 C15 1_555 1_555
C18 C19 1_555 1_555
C22 C23 1_555 1_555

#END
