
#######################################################################
#
#                 Cambridge Crystallographic Data Centre
#                                CCDC 
#
#######################################################################
#
# If this CIF has been generated from an entry in the Cambridge 
# Structural Database, then it will include bibliographic, chemical, 
# crystal, experimental, refinement or atomic coordinate data resulting 
# from the CCDC's data processing and validation procedures.
#
#######################################################################

data_GAQWIF
_symmetry_cell_setting           rhombohedral
_symmetry_space_group_name_H-M   'R -3'
_symmetry_Int_Tables_number      148
_space_group_name_Hall           '-R 3'
loop_
_symmetry_equiv_pos_site_id
_symmetry_equiv_pos_as_xyz
1 x,y,z
2 -y,x-y,z
3 -x+y,-x,z
4 2/3+x,1/3+y,1/3+z
5 2/3-y,1/3+x-y,1/3+z
6 2/3-x+y,1/3-x,1/3+z
7 1/3+x,2/3+y,2/3+z
8 1/3-y,2/3+x-y,2/3+z
9 1/3-x+y,2/3-x,2/3+z
10 -x,-y,-z
11 y,-x+y,-z
12 x-y,x,-z
13 1/3-x,2/3-y,2/3-z
14 1/3+y,2/3-x+y,2/3-z
15 1/3+x-y,2/3+x,2/3-z
16 2/3-x,1/3-y,1/3-z
17 2/3+y,1/3-x+y,1/3-z
18 2/3+x-y,1/3+x,1/3-z
_cell_length_a                   20.1208(16)
_cell_length_b                   20.1208(16)
_cell_length_c                   22.625(3)
_cell_angle_alpha                90
_cell_angle_beta                 90
_cell_angle_gamma                120.00
_cell_volume                     7932.49
loop_
_atom_site_label
_atom_site_type_symbol
_atom_site_fract_x
_atom_site_fract_y
_atom_site_fract_z
Sn1 Sn -0.281730(18) -0.061750(18) -0.295880(13)
N1 N -0.3158(2) -0.1278(2) -0.38911(16)
O1 O -0.33874(18) -0.01645(19) -0.34953(13)
O2 O -0.37093(19) 0.0036(2) -0.43922(14)
O3 O -0.36176(18) -0.06104(19) -0.57212(13)
O4 O -0.47303(19) -0.1203(2) -0.52579(14)
O5 O -0.2330(2) -0.1524(2) -0.27657(16)
H1 H -0.265(3) -0.196(3) -0.263(2)
C1 C -0.3061(3) -0.1859(3) -0.4060(2)
H2 H -0.2860 -0.2068 -0.3783
C2 C -0.3244(3) -0.2172(3) -0.4625(2)
H3 H -0.3161 -0.2579 -0.4738
C3 C -0.3549(3) -0.1871(3) -0.5016(2)
H4 H -0.3675 -0.2070 -0.5406
C4 C -0.3675(3) -0.1279(3) -0.4847(2)
C5 C -0.3459(3) -0.0986(3) -0.4276(2)
C6 C -0.3528(3) -0.0322(3) -0.4046(2)
C7 C -0.4043(3) -0.1002(3) -0.52903(19)
C8 C -0.3810(3) -0.1453(3) -0.2510(2)
H5 H -0.3667 -0.1763 -0.2256
H6 H -0.3997 -0.1187 -0.2248
C9 C -0.4460(4) -0.1989(4) -0.2914(3)
H7 H -0.4557 -0.1678 -0.3204
H8 H -0.4297 -0.2306 -0.3138
C10 C -0.5200(3) -0.2514(3) -0.2594(3)
H9 H -0.5098 -0.2804 -0.2288
H10 H -0.5572 -0.2890 -0.2879
C11 C -0.5556(3) -0.2086(4) -0.2302(4)
H11 H -0.5206 -0.1739 -0.1999
H12 H -0.6045 -0.2455 -0.2118
H13 H -0.5647 -0.1788 -0.2601
C12 C -0.1687(3) 0.0081(3) -0.3295(2)
H14 H -0.1333 0.0323 -0.2958
H15 H -0.1530 -0.0252 -0.3502
C13 C -0.1602(4) 0.0705(3) -0.3717(3)
H16 H -0.1833 0.0989 -0.3533
H17 H -0.1893 0.0462 -0.4082
C14 C -0.0774(3) 0.1274(3) -0.3880(3)
H18 H -0.0762 0.1689 -0.4123
H19 H -0.0480 0.1509 -0.3514
C15 C -0.0385(4) 0.0911(4) -0.4220(4)
H20 H -0.0416 0.0483 -0.3991
H21 H 0.0155 0.1295 -0.4287
H22 H -0.0643 0.0721 -0.4601
C16 C -0.1605(5) -0.1272(5) -0.2497(4)
H23 H -0.1196 -0.0936 -0.2771
H24 H -0.1551 -0.1718 -0.2401
H25 H -0.1567 -0.0989 -0.2134
Sn1H Sn -0.446687(25) -0.051603(18) -0.629213(13)
O3D O -0.27229(19) 0.03261(26) -0.23879(13)
O4D O -0.2130(2) -0.01940(28) -0.19246(14)
loop_
_geom_bond_atom_site_label_1
_geom_bond_atom_site_label_2
_geom_bond_site_symmetry_1
_geom_bond_site_symmetry_2
Sn1 N1 1_555 1_555
N1 C1 1_555 1_555
O1 Sn1 1_555 1_555
O2 C6 1_555 1_555
O3 C7 1_555 1_555
O4 C7 1_555 1_555
O5 Sn1 1_555 1_555
H1 O5 1_555 1_555
C1 H2 1_555 1_555
C2 C1 1_555 1_555
H3 C2 1_555 1_555
C3 C2 1_555 1_555
H4 C3 1_555 1_555
C4 C3 1_555 1_555
C5 N1 1_555 1_555
C6 O1 1_555 1_555
C7 C4 1_555 1_555
C8 Sn1 1_555 1_555
H5 C8 1_555 1_555
H6 C8 1_555 1_555
C9 C8 1_555 1_555
H7 C9 1_555 1_555
H8 C9 1_555 1_555
C10 C9 1_555 1_555
H9 C10 1_555 1_555
H10 C10 1_555 1_555
C11 C10 1_555 1_555
H11 C11 1_555 1_555
H12 C11 1_555 1_555
H13 C11 1_555 1_555
C12 Sn1 1_555 1_555
H14 C12 1_555 1_555
H15 C12 1_555 1_555
C13 C12 1_555 1_555
H16 C13 1_555 1_555
H17 C13 1_555 1_555
C14 C13 1_555 1_555
H18 C14 1_555 1_555
H19 C14 1_555 1_555
C15 C14 1_555 1_555
H20 C15 1_555 1_555
H21 C15 1_555 1_555
H22 C15 1_555 1_555
C16 O5 1_555 1_555
H23 C16 1_555 1_555
H24 C16 1_555 1_555
H25 C16 1_555 1_555
Sn1H O3 1_555 1_555
O3D Sn1 1_555 1_555
O4D Sn1 1_555 1_555
O4 Sn1H 1_555 1_555
C4 C5 1_555 1_555
C5 C6 1_555 1_555

#END
