
#######################################################################
#
#                 Cambridge Crystallographic Data Centre
#                                CCDC 
#
#######################################################################
#
# If this CIF has been generated from an entry in the Cambridge 
# Structural Database, then it will include bibliographic, chemical, 
# crystal, experimental, refinement or atomic coordinate data resulting 
# from the CCDC's data processing and validation procedures.
#
#######################################################################

data_GAQXAY
_symmetry_cell_setting           triclinic
_symmetry_space_group_name_H-M   'P -1'
_symmetry_Int_Tables_number      2
_space_group_name_Hall           '-P 1'
loop_
_symmetry_equiv_pos_site_id
_symmetry_equiv_pos_as_xyz
1 x,y,z
2 -x,-y,-z
_cell_length_a                   8.404(3)
_cell_length_b                   8.618(3)
_cell_length_c                   10.385(3)
_cell_angle_alpha                66.379(4)
_cell_angle_beta                 76.161(5)
_cell_angle_gamma                77.081(4)
_cell_volume                     662.186
loop_
_atom_site_label
_atom_site_type_symbol
_atom_site_fract_x
_atom_site_fract_y
_atom_site_fract_z
Cd1 Cd 1.0000 1.0000 0.0000
O1 O 1.2144(6) 0.9071(8) 0.1350(6)
H1 H 1.2266 0.9790 0.1680
H2 H 1.3021 0.8628 0.0937
N1 N 0.8510(6) 0.8036(6) 0.1917(5)
N2 N 0.6829(8) 0.8222(8) 0.2311(7)
N3 N 0.7703(6) 0.5728(6) 0.3607(5)
N4 N 0.7491(6) 0.2913(6) 0.2748(5)
N5 N 0.8781(6) 0.1940(6) 0.1097(5)
N6 N 0.8210(9) 0.3626(8) 0.0540(7)
C1 C 0.8997(7) 0.6466(7) 0.2751(6)
H3 H 1.0093 0.5944 0.2743
C2 C 0.6299(6) 0.6845(6) 0.3339(6)
H4 H 0.5215 0.6680 0.3777
C3 C 0.7615(8) 0.3983(7) 0.4597(6)
H5 H 0.7064 0.3989 0.5530
H6 H 0.8727 0.3372 0.4683
C4 C 0.6682(8) 0.3067(7) 0.4107(6)
H7 H 0.6583 0.1932 0.4824
H8 H 0.5574 0.3686 0.4018
C5 C 0.8293(7) 0.1539(7) 0.2482(6)
H9 H 0.8485 0.0452 0.3169
C6 C 0.7416(8) 0.4274(6) 0.1503(5)
H10 H 0.6921 0.5395 0.1366
Cd1_2 Cd 1.0000 0.0000 0.0000
Cd1_3 Cd 1.0000 2.0000 0.0000
O1A O 0.7856(6) 1.0929(8) -0.1350(6)
H1A H 0.7734 1.0210 -0.1680
H2A H 0.6979 1.1372 -0.0937
N1A N 1.1490(6) 1.1964(6) -0.1917(5)
N2A N 1.3171(8) 1.1778(8) -0.2311(7)
N3A N 1.2297(6) 1.4272(6) -0.3607(5)
N4A N 1.2509(6) 1.7087(6) -0.2748(5)
N5A N 1.1219(6) 1.8060(6) -0.1097(5)
N5_2 N 0.8781(6) 1.1940(6) 0.1097(5)
N5A_2 N 1.1219(6) 0.8060(6) -0.1097(5)
N6A N 1.1790(9) 1.6374(8) -0.0540(7)
C1A C 1.1003(7) 1.3534(7) -0.2751(6)
H3A H 0.9907 1.4056 -0.2743
C2A C 1.3701(6) 1.3155(6) -0.3339(6)
H4A H 1.4785 1.3320 -0.3777
C3A C 1.2385(8) 1.6017(7) -0.4597(6)
H5A H 1.2936 1.6011 -0.5530
H6A H 1.1273 1.6628 -0.4683
C4A C 1.3318(8) 1.6933(7) -0.4107(6)
H7A H 1.3417 1.8068 -0.4824
H8A H 1.4426 1.6314 -0.4018
C5A C 1.1707(7) 1.8461(7) -0.2482(6)
H9A H 1.1515 1.9548 -0.3169
C6A C 1.2584(8) 1.5726(6) -0.1503(5)
H10A H 1.3079 1.4605 -0.1366
Cl1 Cl 0.2590(2) 0.2122(2) 0.32650(19)
O6 O 0.4156(13) 0.1138(19) 0.344(2)
O7 O 0.1379(19) 0.140(2) 0.4451(16)
O8 O 0.204(3) 0.227(3) 0.2022(15)
O9 O 0.2700(17) 0.3906(11) 0.2980(15)
O10 O 0.4926(8) 0.7374(9) 0.0350(8)
H11 H 0.5267 0.7255 -0.0450
H12 H 0.4993 0.6475 0.1094
O2? O 0.4291(12) 0.198(3) 0.2658(19)
O3? O 0.217(2) 0.202(2) 0.4688(11)
O4? O 0.225(3) 0.0470(18) 0.332(2)
O5? O 0.1432(18) 0.314(2) 0.2349(16)
loop_
_geom_bond_atom_site_label_1
_geom_bond_atom_site_label_2
_geom_bond_site_symmetry_1
_geom_bond_site_symmetry_2
Cd1 O1 1_555 1_555
O1 H1 1_555 1_555
H2 O1 1_555 1_555
N1 Cd1 1_555 1_555
N2 N1 1_555 1_555
N3 C1 1_555 1_555
N4 C4 1_555 1_555
N5 N6 1_555 1_555
N6 C6 1_555 1_555
C1 N1 1_555 1_555
H3 C1 1_555 1_555
C2 N2 1_555 1_555
H4 C2 1_555 1_555
C3 N3 1_555 1_555
H5 C3 1_555 1_555
H6 C3 1_555 1_555
C4 C3 1_555 1_555
H7 C4 1_555 1_555
H8 C4 1_555 1_555
C5 N4 1_555 1_555
H9 C5 1_555 1_555
C6 N4 1_555 1_555
H10 C6 1_555 1_555
Cl1 O6 1_555 1_555
O7 Cl1 1_555 1_555
O8 Cl1 1_555 1_555
O9 Cl1 1_555 1_555
O10 H11 1_555 1_555
H12 O10 1_555 1_555
Cd1_2 N5 1_555 1_555
Cd1_3 N5A 1_555 1_555
O1A Cd1 1_555 1_555
H1A O1A 1_555 1_555
H2A O1A 1_555 1_555
N1A Cd1 1_555 1_555
N2A N1A 1_555 1_555
N3A C1A 1_555 1_555
N4A C4A 1_555 1_555
N5A N6A 1_555 1_555
N5_2 Cd1 1_555 1_555
N5A_2 Cd1 1_555 1_555
N6A C6A 1_555 1_555
C1A N1A 1_555 1_555
H3A C1A 1_555 1_555
C2A N2A 1_555 1_555
H4A C2A 1_555 1_555
C3A N3A 1_555 1_555
H5A C3A 1_555 1_555
H6A C3A 1_555 1_555
C4A C3A 1_555 1_555
H7A C4A 1_555 1_555
H8A C4A 1_555 1_555
C5A N4A 1_555 1_555
H9A C5A 1_555 1_555
C6A N4A 1_555 1_555
H10A C6A 1_555 1_555
N3 C2 1_555 1_555
N5 C5 1_555 1_555
N3A C2A 1_555 1_555
N5A C5A 1_555 1_555

#END
