
#######################################################################
#
#                 Cambridge Crystallographic Data Centre
#                                CCDC 
#
#######################################################################
#
# If this CIF has been generated from an entry in the Cambridge 
# Structural Database, then it will include bibliographic, chemical, 
# crystal, experimental, refinement or atomic coordinate data resulting 
# from the CCDC's data processing and validation procedures.
#
#######################################################################

data_GAQYUT
_symmetry_cell_setting           triclinic
_symmetry_space_group_name_H-M   'P -1'
_symmetry_Int_Tables_number      2
_space_group_name_Hall           '-P 1'
loop_
_symmetry_equiv_pos_site_id
_symmetry_equiv_pos_as_xyz
1 x,y,z
2 -x,-y,-z
_cell_length_a                   12.0997(14)
_cell_length_b                   12.8855(16)
_cell_length_c                   14.7601(17)
_cell_angle_alpha                89.462(2)
_cell_angle_beta                 86.349(2)
_cell_angle_gamma                76.122(2)
_cell_volume                     2229.51
loop_
_atom_site_label
_atom_site_type_symbol
_atom_site_fract_x
_atom_site_fract_y
_atom_site_fract_z
Cu1 Cu 0.29625(3) 0.67972(3) 0.76155(2)
Cu2 Cu 0.0000 1.0000 1.5000
Cu3 Cu 0.0000 1.0000 0.0000
N1 N 0.2540(2) 0.61103(19) 0.87863(16)
N2 N 0.0637(2) 0.8708(2) 1.42257(17)
N3 N 0.3683(2) 0.7199(2) 0.64282(16)
N4 N 0.1426(2) 0.9469(2) 0.06313(15)
O1 O 0.37045(18) 0.76843(16) 0.82729(13)
O2 O 0.5404(2) 0.65456(19) 0.82828(16)
O3 O 0.20486(19) 0.6086(2) 0.69447(14)
O4 O 0.3227(2) 0.4485(2) 0.68591(18)
O5 O -0.13830(17) 0.94607(17) 1.53253(15)
O6 O -0.0214(2) 0.8732(2) 1.63581(15)
O7 O -0.0575(2) 0.8625(2) 0.03754(17)
O8 O -0.1089(2) 0.9885(2) 0.1366(2)
O9 O 0.1343(2) 0.8207(2) 0.77116(18)
H1 H 0.0985 0.8209 0.7258
C1 C 0.3307(3) 0.5552(3) 0.9322(2)
H2 H 0.4076 0.5464 0.9148
C2 C 0.3014(3) 0.5097(3) 1.0127(2)
H3 H 0.3584 0.4702 1.0472
C3 C 0.1910(3) 0.5221(2) 1.0417(2)
C4 C 0.1117(3) 0.5814(3) 0.9864(2)
H4 H 0.0343 0.5928 1.0033
C5 C 0.1456(3) 0.6235(3) 0.9069(2)
H5 H 0.0899 0.6627 0.8711
C6 C 0.1555(3) 0.4745(3) 1.1291(2)
H6 H 0.2215 0.4254 1.1520
H7 H 0.1001 0.4339 1.1170
C7 C 0.1043(3) 0.5583(3) 1.2010(2)
H8 H 0.0515 0.6172 1.1736
H9 H 0.0616 0.5274 1.2473
C8 C 0.1937(3) 0.6000(3) 1.2443(2)
H10 H 0.2427 0.6215 1.1969
H11 H 0.2404 0.5425 1.2778
C9 C 0.1473(2) 0.6933(3) 1.3078(2)
C10 C 0.1611(3) 0.6883(3) 1.4002(2)
H12 H 0.1991 0.6243 1.4256
C11 C 0.1197(3) 0.7762(3) 1.4547(2)
H13 H 0.1308 0.7702 1.5165
C12 C 0.0893(3) 0.7904(3) 1.2752(2)
H14 H 0.0768 0.7979 1.2138
C13 C 0.0501(3) 0.8757(3) 1.3327(2)
H15 H 0.0121 0.9404 1.3085
C14 C 0.3469(3) 0.8196(3) 0.6153(2)
H16 H 0.3030 0.8725 0.6538
C15 C 0.3865(3) 0.8491(3) 0.5323(3)
H17 H 0.3686 0.9208 0.5159
C16 C 0.4524(2) 0.7744(3) 0.4727(2)
C17 C 0.4764(3) 0.6720(3) 0.5029(2)
H18 H 0.5227 0.6179 0.4668
C18 C 0.4326(3) 0.6483(3) 0.5860(3)
H19 H 0.4492 0.5770 0.6038
C19 C 0.4926(3) 0.8037(3) 0.3807(2)
H20 H 0.5579 0.7483 0.3585
H21 H 0.5168 0.8699 0.3845
C20 C 0.3992(2) 0.8171(3) 0.31414(19)
H22 H 0.3718 0.7523 0.3138
H23 H 0.3358 0.8751 0.3352
C21 C 0.4372(3) 0.8405(3) 0.2180(2)
H24 H 0.4796 0.8955 0.2191
H25 H 0.4876 0.7765 0.1914
C22 C 0.3375(2) 0.8770(3) 0.16049(19)
C23 C 0.2642(3) 0.9760(3) 0.1756(2)
H26 H 0.2792 1.0216 0.2192
C24 C 0.1690(3) 1.0078(3) 0.1267(2)
H27 H 0.1209 1.0749 0.1385
C25 C 0.2150(3) 0.8530(3) 0.0466(2)
H28 H 0.2000 0.8099 0.0010
C26 C 0.3113(3) 0.8160(3) 0.0938(2)
H29 H 0.3587 0.7491 0.0800
C27 C 0.4490(4) 0.9318(3) 0.8934(3)
H30 H 0.4732 0.9856 0.9222
H31 H 0.3800 0.9476 0.8658
C28 C 0.5164(3) 0.8273(3) 0.8915(2)
C29 C 0.6218(3) 0.7988(3) 0.9321(3)
H32 H 0.6330 0.8590 0.9651
H33 H 0.6824 0.7775 0.8859
H34 H 0.6218 0.7405 0.9731
C30 C 0.4743(3) 0.7429(3) 0.84502(19)
C31 C 0.0473(3) 0.5421(3) 0.6057(3)
H35 H -0.0082 0.5197 0.5754
H36 H 0.0340 0.6124 0.6257
C32 C 0.1460(3) 0.4730(3) 0.6203(2)
C33 C 0.1728(4) 0.3622(3) 0.5911(3)
H37 H 0.1072 0.3467 0.5660
H38 H 0.1937 0.3167 0.6422
H39 H 0.2352 0.3499 0.5459
C34 C 0.2325(3) 0.5116(3) 0.6711(2)
C35 C -0.3114(4) 0.8513(4) 1.5942(3)
H40 H -0.3563 0.8042 1.6186
H41 H -0.2990 0.8411 1.5297
H42 H -0.3511 0.9241 1.6072
C36 C -0.2014(3) 0.8279(3) 1.6357(2)
C37 C -0.1770(4) 0.7585(3) 1.7028(3)
H43 H -0.2309 0.7224 1.7253
H44 H -0.1061 0.7458 1.7273
C38 C -0.1139(3) 0.8855(3) 1.6006(2)
C39 C -0.2362(4) 0.8826(5) 0.2483(3)
H45 H -0.2837 0.8386 0.2742
H46 H -0.2817 0.9534 0.2389
H47 H -0.1781 0.8857 0.2889
C40 C -0.1826(3) 0.8368(3) 0.1613(3)
C41 C -0.1948(4) 0.7456(4) 0.1277(4)
H48 H -0.2396 0.7066 0.1599
H49 H -0.1587 0.7205 0.0720
C42 C -0.1123(3) 0.8994(3) 0.1084(3)
H50 H 0.131(3) 0.879(3) 0.802(2)
Cu1A Cu -0.29625(3) 1.32028(3) 2.23845(2)
Cu3_2 Cu 0.0000 1.0000 3.0000
N1A N -0.2540(2) 1.38897(19) 2.12137(16)
N2A N -0.0637(2) 1.1292(2) 1.57743(17)
N3A N -0.3683(2) 1.2801(2) 2.35718(16)
N4A N -0.1426(2) 1.0531(2) 2.93687(15)
N4A_2 N -0.1426(2) 1.0531(2) -0.06313(15)
O1A O -0.37045(18) 1.23157(16) 2.17271(13)
O2A O -0.5404(2) 1.34544(19) 2.17172(16)
O3A O -0.20486(19) 1.3914(2) 2.30553(14)
O4A O -0.3227(2) 1.5515(2) 2.31409(18)
O5A O 0.13830(17) 1.05393(17) 1.46747(15)
O6A O 0.0214(2) 1.1268(2) 1.36419(15)
O7A O 0.0575(2) 1.1375(2) -0.03754(17)
O8A O 0.1089(2) 1.0115(2) -0.1366(2)
O9A O -0.1343(2) 1.1793(2) 2.22884(18)
H1A H -0.0985 1.1791 2.2742
C1A C -0.3307(3) 1.4448(3) 2.0678(2)
H2A H -0.4076 1.4536 2.0852
C2A C -0.3014(3) 1.4903(3) 1.9873(2)
H3A H -0.3584 1.5298 1.9528
C3A C -0.1910(3) 1.4779(2) 1.9583(2)
C4A C -0.1117(3) 1.4186(3) 2.0136(2)
H4A H -0.0343 1.4072 1.9967
C5A C -0.1456(3) 1.3765(3) 2.0931(2)
H5A H -0.0899 1.3373 2.1289
C6A C -0.1555(3) 1.5255(3) 1.8709(2)
H6A H -0.2215 1.5746 1.8480
H7A H -0.1001 1.5661 1.8830
C7A C -0.1043(3) 1.4417(3) 1.7990(2)
H8A H -0.0515 1.3828 1.8264
H9A H -0.0616 1.4726 1.7527
C8A C -0.1937(3) 1.4000(3) 1.7557(2)
H10A H -0.2427 1.3785 1.8031
H11A H -0.2404 1.4575 1.7222
C9A C -0.1473(2) 1.3067(3) 1.6922(2)
C10A C -0.1611(3) 1.3117(3) 1.5998(2)
H12A H -0.1991 1.3757 1.5744
C11A C -0.1197(3) 1.2238(3) 1.5453(2)
H13A H -0.1308 1.2298 1.4835
C12A C -0.0893(3) 1.2096(3) 1.7248(2)
H14A H -0.0768 1.2021 1.7862
C13A C -0.0501(3) 1.1243(3) 1.6673(2)
H15A H -0.0121 1.0596 1.6915
C14A C -0.3469(3) 1.1804(3) 2.3847(2)
H16A H -0.3030 1.1275 2.3462
C15A C -0.3865(3) 1.1509(3) 2.4677(3)
H17A H -0.3686 1.0792 2.4841
C16A C -0.4524(2) 1.2256(3) 2.5273(2)
C17A C -0.4764(3) 1.3280(3) 2.4971(2)
H18A H -0.5227 1.3821 2.5332
C18A C -0.4326(3) 1.3517(3) 2.4140(3)
H19A H -0.4492 1.4230 2.3962
C19A C -0.4926(3) 1.1963(3) 2.6193(2)
H20A H -0.5579 1.2517 2.6415
H21A H -0.5168 1.1301 2.6155
C20A C -0.3992(2) 1.1829(3) 2.68586(19)
H22A H -0.3718 1.2477 2.6862
H23A H -0.3358 1.1249 2.6648
C21A C -0.4372(3) 1.1595(3) 2.7820(2)
H24A H -0.4796 1.1045 2.7809
H25A H -0.4876 1.2235 2.8086
C22A C -0.3375(2) 1.1230(3) 2.83951(19)
C23A C -0.2642(3) 1.0240(3) 2.8244(2)
H26A H -0.2792 0.9784 2.7808
C24A C -0.1690(3) 0.9922(3) 2.8733(2)
H27A H -0.1209 0.9251 2.8615
C25A C -0.2150(3) 1.1470(3) 2.9534(2)
H28A H -0.2000 1.1901 2.9990
C26A C -0.3113(3) 1.1840(3) 2.9062(2)
H29A H -0.3587 1.2509 2.9200
C27A C -0.4490(4) 1.0682(3) 2.1066(3)
H30A H -0.4732 1.0144 2.0778
H31A H -0.3800 1.0524 2.1342
C28A C -0.5164(3) 1.1727(3) 2.1085(2)
C29A C -0.6218(3) 1.2012(3) 2.0679(3)
H32A H -0.6330 1.1410 2.0349
H33A H -0.6824 1.2225 2.1141
H34A H -0.6218 1.2595 2.0269
C30A C -0.4743(3) 1.2571(3) 2.15498(19)
C31A C -0.0473(3) 1.4579(3) 2.3943(3)
H35A H 0.0082 1.4803 2.4246
H36A H -0.0340 1.3876 2.3743
C32A C -0.1460(3) 1.5270(3) 2.3797(2)
C33A C -0.1728(4) 1.6378(3) 2.4089(3)
H37A H -0.1072 1.6533 2.4340
H38A H -0.1937 1.6833 2.3578
H39A H -0.2352 1.6501 2.4541
C34A C -0.2325(3) 1.4884(3) 2.3289(2)
C35A C 0.3114(4) 1.1487(4) 1.4058(3)
H40A H 0.3563 1.1958 1.3814
H41A H 0.2990 1.1589 1.4703
H42A H 0.3511 1.0759 1.3928
C36A C 0.2014(3) 1.1721(3) 1.3643(2)
C37A C 0.1770(4) 1.2415(3) 1.2972(3)
H43A H 0.2309 1.2776 1.2747
H44A H 0.1061 1.2542 1.2727
C38A C 0.1139(3) 1.1145(3) 1.3994(2)
C39A C 0.2362(4) 1.1174(5) -0.2483(3)
H45A H 0.2837 1.1614 -0.2742
H46A H 0.2817 1.0466 -0.2389
H47A H 0.1781 1.1143 -0.2889
C40A C 0.1826(3) 1.1632(3) -0.1613(3)
C41A C 0.1948(4) 1.2544(4) -0.1277(4)
H48A H 0.2396 1.2934 -0.1599
H49A H 0.1587 1.2795 -0.0720
C42A C 0.1123(3) 1.1006(3) -0.1084(3)
H50A H -0.131(3) 1.121(3) 2.198(2)
O10 O 0.5310(3) 0.4491(3) 0.7578(3)
H51 H 0.529(3) 0.517(3) 0.777(2)
H52 H 0.465(3) 0.449(3) 0.742(2)
loop_
_geom_bond_atom_site_label_1
_geom_bond_atom_site_label_2
_geom_bond_site_symmetry_1
_geom_bond_site_symmetry_2
Cu1 N1 1_555 1_555
Cu2 N2 1_555 1_555
Cu3 N4 1_555 1_555
N1 C1 1_555 1_555
N2 C11 1_555 1_555
N3 Cu1 1_555 1_555
N4 C24 1_555 1_555
O1 Cu1 1_555 1_555
O2 C30 1_555 1_555
O3 Cu1 1_555 1_555
O4 C34 1_555 1_555
O5 Cu2 1_555 1_555
O6 C38 1_555 1_555
O7 Cu3 1_555 1_555
O8 Cu3 1_555 1_555
O9 Cu1 1_555 1_555
H1 O9 1_555 1_555
C1 H2 1_555 1_555
C2 C1 1_555 1_555
H3 C2 1_555 1_555
C3 C2 1_555 1_555
C4 C3 1_555 1_555
H4 C4 1_555 1_555
C5 N1 1_555 1_555
H5 C5 1_555 1_555
C6 C3 1_555 1_555
H6 C6 1_555 1_555
H7 C6 1_555 1_555
C7 C6 1_555 1_555
H8 C7 1_555 1_555
H9 C7 1_555 1_555
C8 C7 1_555 1_555
H10 C8 1_555 1_555
H11 C8 1_555 1_555
C9 C8 1_555 1_555
C10 C9 1_555 1_555
H12 C10 1_555 1_555
C11 C10 1_555 1_555
H13 C11 1_555 1_555
C12 C9 1_555 1_555
H14 C12 1_555 1_555
C13 N2 1_555 1_555
H15 C13 1_555 1_555
C14 N3 1_555 1_555
H16 C14 1_555 1_555
C15 C14 1_555 1_555
H17 C15 1_555 1_555
C16 C15 1_555 1_555
C17 C16 1_555 1_555
H18 C17 1_555 1_555
C18 N3 1_555 1_555
H19 C18 1_555 1_555
C19 C16 1_555 1_555
H20 C19 1_555 1_555
H21 C19 1_555 1_555
C20 C19 1_555 1_555
H22 C20 1_555 1_555
H23 C20 1_555 1_555
C21 C20 1_555 1_555
H24 C21 1_555 1_555
H25 C21 1_555 1_555
C22 C21 1_555 1_555
C23 C22 1_555 1_555
H26 C23 1_555 1_555
C24 C23 1_555 1_555
H27 C24 1_555 1_555
C25 N4 1_555 1_555
H28 C25 1_555 1_555
C26 C22 1_555 1_555
H29 C26 1_555 1_555
C27 H30 1_555 1_555
H31 C27 1_555 1_555
C28 C27 1_555 1_555
C29 C28 1_555 1_555
H32 C29 1_555 1_555
H33 C29 1_555 1_555
H34 C29 1_555 1_555
C30 O1 1_555 1_555
C31 H35 1_555 1_555
H36 C31 1_555 1_555
C32 C31 1_555 1_555
C33 C32 1_555 1_555
H37 C33 1_555 1_555
H38 C33 1_555 1_555
H39 C33 1_555 1_555
C34 O3 1_555 1_555
C35 H40 1_555 1_555
H41 C35 1_555 1_555
H42 C35 1_555 1_555
C36 C35 1_555 1_555
C37 C36 1_555 1_555
H43 C37 1_555 1_555
H44 C37 1_555 1_555
C38 O5 1_555 1_555
C39 H45 1_555 1_555
H46 C39 1_555 1_555
H47 C39 1_555 1_555
C40 C39 1_555 1_555
C41 C40 1_555 1_555
H48 C41 1_555 1_555
H49 C41 1_555 1_555
C42 O7 1_555 1_555
H50 O9 1_555 1_555
O10 H51 1_555 1_555
H52 O10 1_555 1_555
Cu1A N1A 1_555 1_555
Cu3_2 N4A 1_555 1_555
N1A C1A 1_555 1_555
N2A Cu2 1_555 1_555
N3A Cu1A 1_555 1_555
N4A C24A 1_555 1_555
N4A_2 Cu3 1_555 1_555
O1A Cu1A 1_555 1_555
O2A C30A 1_555 1_555
O3A Cu1A 1_555 1_555
O4A C34A 1_555 1_555
O5A Cu2 1_555 1_555
O6A C38A 1_555 1_555
O7A Cu3 1_555 1_555
O8A Cu3 1_555 1_555
O9A Cu1A 1_555 1_555
H1A O9A 1_555 1_555
C1A H2A 1_555 1_555
C2A C1A 1_555 1_555
H3A C2A 1_555 1_555
C3A C2A 1_555 1_555
C4A C3A 1_555 1_555
H4A C4A 1_555 1_555
C5A N1A 1_555 1_555
H5A C5A 1_555 1_555
C6A C3A 1_555 1_555
H6A C6A 1_555 1_555
H7A C6A 1_555 1_555
C7A C6A 1_555 1_555
H8A C7A 1_555 1_555
H9A C7A 1_555 1_555
C8A C7A 1_555 1_555
H10A C8A 1_555 1_555
H11A C8A 1_555 1_555
C9A C8A 1_555 1_555
C10A C9A 1_555 1_555
H12A C10A 1_555 1_555
C11A N2A 1_555 1_555
H13A C11A 1_555 1_555
C12A C9A 1_555 1_555
H14A C12A 1_555 1_555
C13A N2A 1_555 1_555
H15A C13A 1_555 1_555
C14A N3A 1_555 1_555
H16A C14A 1_555 1_555
C15A C14A 1_555 1_555
H17A C15A 1_555 1_555
C16A C15A 1_555 1_555
C17A C16A 1_555 1_555
H18A C17A 1_555 1_555
C18A N3A 1_555 1_555
H19A C18A 1_555 1_555
C19A C16A 1_555 1_555
H20A C19A 1_555 1_555
H21A C19A 1_555 1_555
C20A C19A 1_555 1_555
H22A C20A 1_555 1_555
H23A C20A 1_555 1_555
C21A C20A 1_555 1_555
H24A C21A 1_555 1_555
H25A C21A 1_555 1_555
C22A C21A 1_555 1_555
C23A C22A 1_555 1_555
H26A C23A 1_555 1_555
C24A C23A 1_555 1_555
H27A C24A 1_555 1_555
C25A N4A 1_555 1_555
H28A C25A 1_555 1_555
C26A C22A 1_555 1_555
H29A C26A 1_555 1_555
C27A H30A 1_555 1_555
H31A C27A 1_555 1_555
C28A C27A 1_555 1_555
C29A C28A 1_555 1_555
H32A C29A 1_555 1_555
H33A C29A 1_555 1_555
H34A C29A 1_555 1_555
C30A O1A 1_555 1_555
C31A H35A 1_555 1_555
H36A C31A 1_555 1_555
C32A C31A 1_555 1_555
C33A C32A 1_555 1_555
H37A C33A 1_555 1_555
H38A C33A 1_555 1_555
H39A C33A 1_555 1_555
C34A O3A 1_555 1_555
C35A H40A 1_555 1_555
H41A C35A 1_555 1_555
H42A C35A 1_555 1_555
C36A C35A 1_555 1_555
C37A C36A 1_555 1_555
H43A C37A 1_555 1_555
H44A C37A 1_555 1_555
C38A O5A 1_555 1_555
C39A H45A 1_555 1_555
H46A C39A 1_555 1_555
H47A C39A 1_555 1_555
C40A C39A 1_555 1_555
C41A C40A 1_555 1_555
H48A C41A 1_555 1_555
H49A C41A 1_555 1_555
C42A O7A 1_555 1_555
H50A O9A 1_555 1_555
O8 C42 1_555 1_555
C4 C5 1_555 1_555
C12 C13 1_555 1_555
C17 C18 1_555 1_555
C25 C26 1_555 1_555
C28 C30 1_555 1_555
C32 C34 1_555 1_555
C36 C38 1_555 1_555
C40 C42 1_555 1_555
O8A C42A 1_555 1_555
C4A C5A 1_555 1_555
C10A C11A 1_555 1_555
C12A C13A 1_555 1_555
C17A C18A 1_555 1_555
C25A C26A 1_555 1_555
C28A C30A 1_555 1_555
C32A C34A 1_555 1_555
C36A C38A 1_555 1_555
C40A C42A 1_555 1_555

#END
