
#######################################################################
#
#                 Cambridge Crystallographic Data Centre
#                                CCDC 
#
#######################################################################
#
# If this CIF has been generated from an entry in the Cambridge 
# Structural Database, then it will include bibliographic, chemical, 
# crystal, experimental, refinement or atomic coordinate data resulting 
# from the CCDC's data processing and validation procedures.
#
#######################################################################

data_GARBOR
_symmetry_cell_setting           orthorhombic
_symmetry_space_group_name_H-M   'P 21 21 21'
_symmetry_Int_Tables_number      19
_space_group_name_Hall           'P 2ac 2ab'
loop_
_symmetry_equiv_pos_site_id
_symmetry_equiv_pos_as_xyz
1 x,y,z
2 1/2-x,-y,1/2+z
3 1/2+x,1/2-y,-z
4 -x,1/2+y,1/2-z
_cell_length_a                   9.943(2)
_cell_length_b                   14.620(2)
_cell_length_c                   15.259(3)
_cell_angle_alpha                90
_cell_angle_beta                 90
_cell_angle_gamma                90
_cell_volume                     2218.15
loop_
_atom_site_label
_atom_site_type_symbol
_atom_site_fract_x
_atom_site_fract_y
_atom_site_fract_z
Ag1 Ag 0.13482(4) 0.22949(3) 0.21440(3)
Ag2 Ag 0.48773(5) 0.47609(3) 0.32515(3)
P1 P -0.0969(1) 0.25808(8) 0.18632(9)
N1 N 0.2663(5) 0.3233(4) 0.2954(4)
N2 N 0.2841(6) 0.1270(4) 0.1720(4)
C1 C 0.3425(6) 0.3784(4) 0.3085(4)
C2 C 0.3662(7) 0.0743(5) 0.1676(5)
C3 C -0.1596(5) 0.1948(3) 0.0908(3)
C4 C -0.1613(7) 0.0918(4) 0.1083(4)
C5 C -0.2154(9) 0.0411(4) 0.0304(4)
C6 C -0.1405(8) 0.0629(5) -0.0541(5)
C7 C -0.1332(7) 0.1640(4) -0.0688(4)
C8 C -0.0771(6) 0.2134(4) 0.0088(4)
C9 C -0.1331(6) 0.3805(4) 0.1670(4)
C10 C -0.2472(6) 0.4035(4) 0.1056(5)
C11 C -0.2645(10) 0.5057(5) 0.0963(7)
C12 C -0.1431(10) 0.5560(5) 0.0777(6)
C13 C -0.0298(9) 0.5343(4) 0.1400(7)
C14 C -0.0060(8) 0.4319(5) 0.1496(6)
C15 C -0.2044(5) 0.2231(3) 0.2791(3)
C16 C -0.3560(5) 0.2320(4) 0.2677(4)
C17 C -0.4289(6) 0.1889(4) 0.3432(4)
C18 C -0.3862(7) 0.2299(5) 0.4298(5)
C19 C -0.2356(7) 0.2258(5) 0.4426(4)
C20 C -0.1606(6) 0.2661(4) 0.3651(4)
H1 H -0.2505 0.2138 0.0787
H2 H -0.0724 0.0706 0.1176
H3 H -0.2153 0.0787 0.1576
H4 H -0.2140 -0.0221 0.0412
H5 H -0.3100 0.0595 0.0234
H6 H -0.0565 0.0367 -0.0515
H7 H -0.1918 0.0345 -0.1021
H8 H -0.0756 0.1737 -0.1198
H9 H -0.2203 0.1871 -0.0841
H10 H -0.0774 0.2762 -0.0041
H11 H 0.0115 0.1920 0.0172
H12 H -0.1627 0.4029 0.2220
H13 H -0.2316 0.3798 0.0493
H14 H -0.3299 0.3760 0.1281
H15 H -0.3369 0.5155 0.0538
H16 H -0.3063 0.5264 0.1530
H17 H -0.1183 0.5401 0.0193
H18 H -0.1636 0.6196 0.0798
H19 H 0.0419 0.5604 0.1199
H20 H -0.0630 0.5560 0.1950
H21 H 0.0237 0.4103 0.0953
H22 H -0.1906 0.1603 0.2862
H23 H -0.3807 0.2952 0.2639
H24 H -0.3823 0.2027 0.2140
H25 H -0.5245 0.1964 0.3348
H26 H -0.4101 0.1249 0.3439
H27 H -0.4162 0.2928 0.4302
H28 H -0.4335 0.1986 0.4756
H29 H -0.2133 0.2556 0.4944
H30 H -0.2120 0.1617 0.4471
H31 H -0.0708 0.2581 0.3736
H32 H -0.1845 0.3300 0.3643
Ag2C Ag 0.51227(5) -0.02391(3) 0.17485(3)
C2C C 0.6338(7) 0.5743(5) 0.3324(5)
loop_
_geom_bond_atom_site_label_1
_geom_bond_atom_site_label_2
_geom_bond_site_symmetry_1
_geom_bond_site_symmetry_2
Ag1 P1 1_555 1_555
Ag2 C1 1_555 1_555
P1 C3 1_555 1_555
N1 Ag1 1_555 1_555
N2 Ag1 1_555 1_555
C1 N1 1_555 1_555
C2 N2 1_555 1_555
C3 C4 1_555 1_555
C4 C5 1_555 1_555
C5 C6 1_555 1_555
C6 C7 1_555 1_555
C7 C8 1_555 1_555
C8 C3 1_555 1_555
C9 P1 1_555 1_555
C10 C9 1_555 1_555
C11 C10 1_555 1_555
C12 C11 1_555 1_555
C13 C12 1_555 1_555
C14 C9 1_555 1_555
C15 P1 1_555 1_555
C16 C15 1_555 1_555
C17 C16 1_555 1_555
C18 C17 1_555 1_555
C19 C18 1_555 1_555
C20 C15 1_555 1_555
H1 C3 1_555 1_555
H2 C4 1_555 1_555
H3 C4 1_555 1_555
H4 C5 1_555 1_555
H5 C5 1_555 1_555
H6 C6 1_555 1_555
H7 C6 1_555 1_555
H8 C7 1_555 1_555
H9 C7 1_555 1_555
H10 C8 1_555 1_555
H11 C8 1_555 1_555
H12 C9 1_555 1_555
H13 C10 1_555 1_555
H14 C10 1_555 1_555
H15 C11 1_555 1_555
H16 C11 1_555 1_555
H17 C12 1_555 1_555
H18 C12 1_555 1_555
H19 C13 1_555 1_555
H20 C13 1_555 1_555
H21 C14 1_555 1_555
H22 C15 1_555 1_555
H23 C16 1_555 1_555
H24 C16 1_555 1_555
H25 C17 1_555 1_555
H26 C17 1_555 1_555
H27 C18 1_555 1_555
H28 C18 1_555 1_555
H29 C19 1_555 1_555
H30 C19 1_555 1_555
H31 C20 1_555 1_555
H32 C20 1_555 1_555
Ag2C C2 1_555 1_555
C2C Ag2 1_555 1_555
C13 C14 1_555 1_555
C19 C20 1_555 1_555

#END
