
#######################################################################
#
#                 Cambridge Crystallographic Data Centre
#                                CCDC 
#
#######################################################################
#
# If this CIF has been generated from an entry in the Cambridge 
# Structural Database, then it will include bibliographic, chemical, 
# crystal, experimental, refinement or atomic coordinate data resulting 
# from the CCDC's data processing and validation procedures.
#
#######################################################################

data_GARCUX
_symmetry_cell_setting           triclinic
_symmetry_space_group_name_H-M   'P -1'
_symmetry_Int_Tables_number      2
_space_group_name_Hall           '-P 1'
loop_
_symmetry_equiv_pos_site_id
_symmetry_equiv_pos_as_xyz
1 x,y,z
2 -x,-y,-z
_cell_length_a                   7.887(3)
_cell_length_b                   8.218(3)
_cell_length_c                   10.372(3)
_cell_angle_alpha                109.84(4)
_cell_angle_beta                 84.22(4)
_cell_angle_gamma                105.44(4)
_cell_volume                     609.5
loop_
_atom_site_label
_atom_site_type_symbol
_atom_site_fract_x
_atom_site_fract_y
_atom_site_fract_z
Nd1 Nd 0.25349(3) 0.04617(3) 0.07313(2)
O1 O 0.0545(5) 0.0453(5) -0.1192(4)
O2 O 0.3368(5) 0.1330(6) -0.1373(5)
O3 O 0.1521(5) 0.7298(5) -0.0763(5)
O4 O 0.4368(5) 0.8235(5) -0.0873(4)
O5 O 0.3252(6) -0.1386(6) 0.1953(5)
O6 O 0.2713(9) 0.1986(8) 0.3273(6)
O7 O 0.1921(6) 0.3473(6) 0.1309(5)
C1 C 0.1879(6) 0.1140(6) -0.1800(5)
C2 C 0.1650(8) 0.1782(7) -0.2941(5)
C3 C 0.1417(7) 0.3696(7) -0.2335(6)
C4 C 0.3140(7) 0.5072(7) -0.1800(6)
C5 C 0.2975(6) 0.6957(6) -0.1131(5)
H1 H 0.061 0.099 -0.348
H2 H 0.269 0.177 -0.355
H3 H 0.056 0.375 -0.158
H4 H 0.096 0.400 -0.306
H5 H 0.364 0.473 -0.113
H6 H 0.398 0.506 -0.258
H7 H 0.458 -0.125 0.208
H8 H 0.286 -0.143 0.286
H9 H 0.366 0.178 0.361
H10 H 0.195 0.277 0.397
H11 H 0.083 0.333 0.125
H12 H 0.233 0.427 0.207
O1A O -0.0545(5) -0.0453(5) 0.1192(4)
O3_2 O 0.1521(5) -0.2702(5) -0.0763(5)
O4_2 O 0.4368(5) -0.1765(5) -0.0873(4)
O4A O 0.5632(5) 0.1765(5) 0.0873(4)
Nd1A Nd -0.25349(3) -0.04617(3) -0.07313(2)
Nd1_2 Nd 0.25349(3) 1.04617(3) 0.07313(2)
Nd1A_2 Nd 0.74651(3) 0.95383(3) -0.07313(2)
Cl1 Cl 0.7198(3) 0.2893(3) 0.4963(2)
O8 O 0.8004(14) 0.1892(19) 0.5511(13)
O9 O 0.5599(15) 0.1762(17) 0.4459(15)
O10 O 0.8214(29) 0.2832(24) 0.3816(15)
O11 O 0.7231(25) 0.4304(21) 0.5863(22)
loop_
_geom_bond_atom_site_label_1
_geom_bond_atom_site_label_2
_geom_bond_site_symmetry_1
_geom_bond_site_symmetry_2
Nd1 O1 1_555 1_555
Cl1 O8 1_555 1_555
O1 C1 1_555 1_555
O2 Nd1 1_555 1_555
O3 C5 1_555 1_555
O4 C5 1_555 1_555
O5 Nd1 1_555 1_555
O6 Nd1 1_555 1_555
O7 Nd1 1_555 1_555
O9 Cl1 1_555 1_555
O10 Cl1 1_555 1_555
O11 Cl1 1_555 1_555
C1 O2 1_555 1_555
C2 C1 1_555 1_555
C3 C2 1_555 1_555
C4 C3 1_555 1_555
C5 C4 1_555 1_555
H1 C2 1_555 1_555
H2 C2 1_555 1_555
H3 C3 1_555 1_555
H4 C3 1_555 1_555
H5 C4 1_555 1_555
H6 C4 1_555 1_555
H7 O5 1_555 1_555
H8 O5 1_555 1_555
H9 O6 1_555 1_555
H10 O6 1_555 1_555
H11 O7 1_555 1_555
H12 O7 1_555 1_555
O1A Nd1 1_555 1_555
O3_2 Nd1 1_555 1_555
O4_2 Nd1 1_555 1_555
O4A Nd1 1_555 1_555
Nd1A O1 1_555 1_555
Nd1_2 O3 1_555 1_555
Nd1A_2 O4 1_555 1_555
O4 Nd1_2 1_555 1_555
O1A Nd1A 1_555 1_555

#END
