
#######################################################################
#
#                 Cambridge Crystallographic Data Centre
#                                CCDC 
#
#######################################################################
#
# If this CIF has been generated from an entry in the Cambridge 
# Structural Database, then it will include bibliographic, chemical, 
# crystal, experimental, refinement or atomic coordinate data resulting 
# from the CCDC's data processing and validation procedures.
#
#######################################################################

data_GARDAE
_symmetry_cell_setting           triclinic
_symmetry_space_group_name_H-M   'P -1'
_symmetry_Int_Tables_number      2
_space_group_name_Hall           '-P 1'
loop_
_symmetry_equiv_pos_site_id
_symmetry_equiv_pos_as_xyz
1 x,y,z
2 -x,-y,-z
_cell_length_a                   7.839(2)
_cell_length_b                   8.135(3)
_cell_length_c                   10.328(3)
_cell_angle_alpha                109.63(4)
_cell_angle_beta                 84.42(4)
_cell_angle_gamma                105.09(4)
_cell_volume                     598.916
loop_
_atom_site_label
_atom_site_type_symbol
_atom_site_fract_x
_atom_site_fract_y
_atom_site_fract_z
Eu1 Eu 0.25319(4) 0.04461(4) 0.07129(3)
O1 O 0.0491(7) 0.0450(7) -0.1186(6)
O2 O 0.3335(7) 0.1294(8) -0.1349(6)
O3 O 0.1563(7) 0.7328(7) -0.0784(6)
O4 O 0.4419(7) 0.8236(7) -0.0888(6)
O5 O 0.3256(8) -0.1408(9) 0.1884(6)
O6 O 0.2662(11) 0.1928(11) 0.3209(8)
O7 O 0.1934(7) 0.3414(7) 0.1264(6)
C1 C 0.1845(8) 0.1130(8) -0.1789(7)
C2 C 0.1616(10) 0.1786(9) -0.2930(7)
C3 C 0.1418(9) 0.3715(9) -0.2347(8)
C4 C 0.3173(9) 0.5071(9) -0.1823(9)
C5 C 0.3015(8) 0.6976(8) -0.1146(7)
H1 H 0.058 0.100 -0.348
H2 H 0.267 0.176 -0.354
H3 H 0.055 0.380 -0.159
H4 H 0.096 0.403 -0.308
H5 H 0.402 0.504 -0.262
H6 H 0.368 0.470 -0.116
H7 H 0.458 -0.125 0.208
H8 H 0.286 -0.143 0.286
H9 H 0.366 0.178 0.361
H10 H 0.195 0.277 0.397
H11 H 0.083 0.333 0.125
H12 H 0.232 0.427 0.207
O1A O -0.0491(7) -0.0450(7) 0.1186(6)
O3_2 O 0.1563(7) -0.2672(7) -0.0784(6)
O4_2 O 0.4419(7) -0.1764(7) -0.0888(6)
O4A O 0.5581(7) 0.1764(7) 0.0888(6)
Eu1A Eu -0.25319(4) -0.04461(4) -0.07129(3)
Eu1_2 Eu 0.25319(4) 1.04461(4) 0.07129(3)
Eu1A_2 Eu 0.74681(4) 0.95539(4) -0.07129(3)
Cl1 Cl 0.7205(4) 0.2900(4) 0.4981(3)
O8 O 0.7979(21) 0.1862(23) 0.5563(19)
O9 O 0.5529(21) 0.1761(22) 0.4486(18)
O10 O 0.8227(42) 0.2925(44) 0.3809(36)
O11 O 0.7119(29) 0.4309(32) 0.6114(26)
loop_
_geom_bond_atom_site_label_1
_geom_bond_atom_site_label_2
_geom_bond_site_symmetry_1
_geom_bond_site_symmetry_2
Eu1 O1 1_555 1_555
Cl1 O8 1_555 1_555
O1 C1 1_555 1_555
O2 Eu1 1_555 1_555
O3 C5 1_555 1_555
O4 C5 1_555 1_555
O5 Eu1 1_555 1_555
O6 Eu1 1_555 1_555
O7 Eu1 1_555 1_555
O9 Cl1 1_555 1_555
O10 Cl1 1_555 1_555
O11 Cl1 1_555 1_555
C1 O2 1_555 1_555
C2 C1 1_555 1_555
C3 C2 1_555 1_555
C4 C3 1_555 1_555
C5 C4 1_555 1_555
H1 C2 1_555 1_555
H2 C2 1_555 1_555
H3 C3 1_555 1_555
H4 C3 1_555 1_555
H5 C4 1_555 1_555
H6 C4 1_555 1_555
H7 O5 1_555 1_555
H8 O5 1_555 1_555
H9 O6 1_555 1_555
H10 O6 1_555 1_555
H11 O7 1_555 1_555
H12 O7 1_555 1_555
O1A Eu1 1_555 1_555
O3_2 Eu1 1_555 1_555
O4_2 Eu1 1_555 1_555
O4A Eu1 1_555 1_555
Eu1A O1 1_555 1_555
Eu1_2 O3 1_555 1_555
Eu1A_2 O4 1_555 1_555
O4 Eu1_2 1_555 1_555
O1A Eu1A 1_555 1_555

#END
