
#######################################################################
#
#                 Cambridge Crystallographic Data Centre
#                                CCDC 
#
#######################################################################
#
# If this CIF has been generated from an entry in the Cambridge 
# Structural Database, then it will include bibliographic, chemical, 
# crystal, experimental, refinement or atomic coordinate data resulting 
# from the CCDC's data processing and validation procedures.
#
#######################################################################

data_GARDEI
_symmetry_cell_setting           triclinic
_symmetry_space_group_name_H-M   'P -1'
_symmetry_Int_Tables_number      2
_space_group_name_Hall           '-P 1'
loop_
_symmetry_equiv_pos_site_id
_symmetry_equiv_pos_as_xyz
1 x,y,z
2 -x,-y,-z
_cell_length_a                   7.797(3)
_cell_length_b                   8.056(3)
_cell_length_c                   10.286(3)
_cell_angle_alpha                109.30(4)
_cell_angle_beta                 84.69(4)
_cell_angle_gamma                104.25(4)
_cell_volume                     590.974
loop_
_atom_site_label
_atom_site_type_symbol
_atom_site_fract_x
_atom_site_fract_y
_atom_site_fract_z
Ho1 Ho 0.25282(3) 0.04376(3) 0.07211(3)
O1 O 0.0406(6) 0.0457(6) -0.1192(5)
O2 O 0.3266(6) 0.1229(7) -0.1334(5)
O3 O 0.1654(6) 0.7422(6) -0.0796(5)
O4 O 0.4518(6) 0.8232(6) -0.0906(5)
O5 O 0.3309(6) -0.1402(7) 0.1834(5)
O6 O 0.2611(9) 0.1868(8) 0.3199(6)
O7 O 0.1853(6) 0.3327(6) 0.1251(5)
C1 C 0.1783(7) 0.1104(7) -0.1787(6)
C2 C 0.1627(9) 0.1787(8) -0.2942(6)
C3 C 0.1445(8) 0.3748(8) -0.2350(7)
C4 C 0.3205(8) 0.5072(8) -0.1828(7)
C5 C 0.3096(7) 0.6994(7) -0.1174(6)
H1 H 0.058 0.102 -0.351
H2 H 0.269 0.171 -0.354
H3 H 0.058 0.384 -0.161
H4 H 0.100 0.405 -0.311
H5 H 0.405 0.502 -0.265
H6 H 0.371 0.468 -0.119
H7 H 0.458 -0.125 0.208
H8 H 0.286 -0.143 0.286
H9 H 0.365 0.178 0.361
H10 H 0.195 0.277 0.397
H11 H 0.083 0.333 0.125
H12 H 0.233 0.427 0.207
O1A O -0.0406(6) -0.0457(6) 0.1192(5)
O3_2 O 0.1654(6) -0.2578(6) -0.0796(5)
O4_2 O 0.4518(6) -0.1768(6) -0.0906(5)
O4A O 0.5482(6) 0.1768(6) 0.0906(5)
Ho1A Ho -0.25282(3) -0.04376(3) -0.07211(3)
Ho1_2 Ho 0.25282(3) 1.04376(3) 0.07211(3)
Ho1A_2 Ho 0.74718(3) 0.95624(3) -0.07211(3)
Cl1 Cl 0.7243(3) 0.2904(3) 0.4990(2)
O8 O 0.7905(18) 0.1799(27) 0.5583(18)
O9 O 0.5644(17) 0.1825(21) 0.4479(17)
O10 O 0.8510(26) 0.2762(24) 0.3921(16)
O11 O 0.7252(22) 0.4356(21) 0.5918(22)
loop_
_geom_bond_atom_site_label_1
_geom_bond_atom_site_label_2
_geom_bond_site_symmetry_1
_geom_bond_site_symmetry_2
Ho1 O1 1_555 1_555
Cl1 O8 1_555 1_555
O1 C1 1_555 1_555
O2 Ho1 1_555 1_555
O3 C5 1_555 1_555
O4 C5 1_555 1_555
O5 Ho1 1_555 1_555
O6 Ho1 1_555 1_555
O7 Ho1 1_555 1_555
O9 Cl1 1_555 1_555
O10 Cl1 1_555 1_555
O11 Cl1 1_555 1_555
C1 O2 1_555 1_555
C2 C1 1_555 1_555
C3 C2 1_555 1_555
C4 C3 1_555 1_555
C5 C4 1_555 1_555
H1 C2 1_555 1_555
H2 C2 1_555 1_555
H3 C3 1_555 1_555
H4 C3 1_555 1_555
H5 C4 1_555 1_555
H6 C4 1_555 1_555
H7 O5 1_555 1_555
H8 O5 1_555 1_555
H9 O6 1_555 1_555
H10 O6 1_555 1_555
H11 O7 1_555 1_555
H12 O7 1_555 1_555
O1A Ho1 1_555 1_555
O3_2 Ho1 1_555 1_555
O4_2 Ho1 1_555 1_555
O4A Ho1 1_555 1_555
Ho1A O1 1_555 1_555
Ho1_2 O3 1_555 1_555
Ho1A_2 O4 1_555 1_555
O4 Ho1_2 1_555 1_555
O1A Ho1A 1_555 1_555

#END
