
#######################################################################
#
#                 Cambridge Crystallographic Data Centre
#                                CCDC 
#
#######################################################################
#
# If this CIF has been generated from an entry in the Cambridge 
# Structural Database, then it will include bibliographic, chemical, 
# crystal, experimental, refinement or atomic coordinate data resulting 
# from the CCDC's data processing and validation procedures.
#
#######################################################################

data_GARMES
_symmetry_cell_setting           triclinic
_symmetry_space_group_name_H-M   'P -1'
_symmetry_Int_Tables_number      2
_space_group_name_Hall           '-P 1'
loop_
_symmetry_equiv_pos_site_id
_symmetry_equiv_pos_as_xyz
1 x,y,z
2 -x,-y,-z
_cell_length_a                   9.67730(10)
_cell_length_b                   10.2288(2)
_cell_length_c                   14.8317(3)
_cell_angle_alpha                88.9600(10)
_cell_angle_beta                 71.7120(10)
_cell_angle_gamma                75.7630(10)
_cell_volume                     1348.4
loop_
_atom_site_label
_atom_site_type_symbol
_atom_site_fract_x
_atom_site_fract_y
_atom_site_fract_z
Cd1 Cd -0.03537(4) 1.09910(4) -0.19726(3)
Cd2 Cd -0.91057(4) 0.89488(4) -0.41395(3)
O1 O -0.6624(4) 0.9040(4) -0.4103(3)
O2 O 0.0866(5) 0.8961(4) -0.1726(3)
N1 N -0.8541(5) 1.6952(4) 0.5036(3)
C1 C 0.0746(6) 0.7905(5) -0.2081(4)
C2 C 0.2012(7) 0.6512(6) -0.1020(4)
H1 H 0.2366 0.7245 -0.0917
C3 C 0.1116(6) 0.6622(5) -0.1602(4)
C4 C -0.4510(6) 1.2687(6) -0.3217(4)
H2 H -0.3953 1.3207 -0.3049
C5 C -0.3861(6) 1.1332(5) -0.3510(4)
C6 C -0.7179(6) 1.0235(6) -0.3784(4)
C7 C -0.4710(6) 1.0555(5) -0.3741(4)
H3 H -0.4265 0.9660 -0.3971
O3 O 0.0317(5) 0.7848(4) -0.2794(3)
C8 C -0.6218(6) 1.1107(5) -0.3632(4)
C9 C -0.9214(6) 1.6797(5) 0.4389(4)
H4 H -0.9924 1.7533 0.4291
C10 C 0.0557(6) 0.5528(5) -0.1727(4)
H5 H -0.0065 0.5599 -0.2102
C11 C -0.5984(6) 1.3269(6) -0.3174(5)
H6 H -0.6396 1.4188 -0.3011
C12 C -0.7146(7) 1.4630(6) 0.4647(4)
H7 H -0.6429 1.3903 0.4749
C13 C -0.7864(6) 1.4480(5) 0.3993(4)
C14 C -0.6842(6) 1.2485(6) -0.3373(4)
H8 H -0.7836 1.2874 -0.3335
C15 C -0.8903(7) 1.5606(6) 0.3870(4)
H9 H -0.9396 1.5555 0.3431
C16 C -0.7555(8) 1.3159(6) 0.3443(4)
H10 H -0.8472 1.3092 0.3333
H11 H -0.7288 1.2425 0.3830
C17 C -0.7499(7) 1.5864(6) 0.5149(5)
H12 H -0.6999 1.5946 0.5580
C18 C -0.6310(7) 1.2976(6) 0.2493(4)
H13 H -0.5353 1.2875 0.2603
H14 H -0.6483 1.3777 0.2143
C19 C 0.2383(8) 0.5323(6) -0.0594(5)
H15 H 0.2987 0.5255 -0.0207
O4 O -0.1406(4) 0.9957(4) -0.4262(3)
O5 O -0.1912(4) 1.1023(5) -0.2857(3)
C20 C -0.2281(6) 1.0711(5) -0.3541(4)
O6 O -0.0583(5) 0.3305(4) -0.1911(3)
C21 C 0.0363(6) 0.3146(5) -0.1464(4)
C22 C 0.0922(6) 0.4341(5) -0.1297(4)
C23 C 0.1851(7) 0.4227(6) -0.0744(5)
H16 H 0.2122 0.3418 -0.0472
O7 O 0.0908(5) 0.2018(4) -0.1205(3)
O8 O -0.8603(4) 1.0776(4) -0.3565(3)
N2 N -0.2468(5) 1.1023(5) -0.0687(3)
C24 C -0.2440(7) 1.0257(6) 0.0046(4)
H17 H -0.1579 0.9574 -0.0004
C25 C -0.4932(7) 1.1462(6) 0.0991(4)
C26 C -0.3652(7) 1.0440(6) 0.0884(4)
H18 H -0.3596 0.9870 0.1374
C27 C -0.4950(7) 1.2245(7) 0.0215(4)
H19 H -0.5795 1.2937 0.0244
C28 C -0.3715(7) 1.1993(7) -0.0598(4)
H20 H -0.3755 1.2527 -0.1108
C29 C -0.6233(7) 1.1737(6) 0.1895(4)
H21 H -0.6153 1.0951 0.2270
H22 H -0.7160 1.1876 0.1742
Cd1_2 Cd -0.03537(4) 0.09910(4) -0.19726(3)
Cd1_3 Cd -1.03537(4) 1.09910(4) -0.19726(3)
Cd2_2 Cd -0.91057(4) 1.89488(4) 0.58605(3)
Cd2_3 Cd 0.08943(4) 0.89488(4) -0.41395(3)
Cd2A Cd -0.08943(4) 1.10512(4) -0.58605(3)
N1_2 N -0.8541(5) 0.6952(4) -0.4964(3)
O3_2 O -0.9683(5) 0.7848(4) -0.2794(3)
O4_2 O -1.1406(4) 0.9957(4) -0.4262(3)
O4A O -0.8594(4) 1.0043(4) -0.5738(3)
O6_2 O -0.0583(5) 1.3305(4) -0.1911(3)
O7_2 O 0.0908(5) 1.2018(4) -0.1205(3)
O8_2 O 0.1397(4) 1.0776(4) -0.3565(3)
loop_
_geom_bond_atom_site_label_1
_geom_bond_atom_site_label_2
_geom_bond_site_symmetry_1
_geom_bond_site_symmetry_2
Cd1 O2 1_555 1_555
Cd2 O1 1_555 1_555
O1 C6 1_555 1_555
O2 C1 1_555 1_555
N1 C9 1_555 1_555
C1 C3 1_555 1_555
C2 H1 1_555 1_555
C3 C2 1_555 1_555
C4 H2 1_555 1_555
C5 C4 1_555 1_555
C6 C8 1_555 1_555
C7 C5 1_555 1_555
H3 C7 1_555 1_555
O3 C1 1_555 1_555
C8 C7 1_555 1_555
C9 H4 1_555 1_555
C10 C3 1_555 1_555
H5 C10 1_555 1_555
C11 C4 1_555 1_555
H6 C11 1_555 1_555
C12 H7 1_555 1_555
C13 C12 1_555 1_555
C14 C8 1_555 1_555
H8 C14 1_555 1_555
C15 C9 1_555 1_555
H9 C15 1_555 1_555
C16 C13 1_555 1_555
H10 C16 1_555 1_555
H11 C16 1_555 1_555
C17 N1 1_555 1_555
H12 C17 1_555 1_555
C18 C16 1_555 1_555
H13 C18 1_555 1_555
H14 C18 1_555 1_555
C19 C2 1_555 1_555
H15 C19 1_555 1_555
O4 C20 1_555 1_555
O5 Cd1 1_555 1_555
C20 C5 1_555 1_555
O6 C21 1_555 1_555
C21 C22 1_555 1_555
C22 C10 1_555 1_555
C23 C19 1_555 1_555
H16 C23 1_555 1_555
O7 C21 1_555 1_555
O8 Cd2 1_555 1_555
N2 Cd1 1_555 1_555
C24 N2 1_555 1_555
H17 C24 1_555 1_555
C25 C26 1_555 1_555
C26 C24 1_555 1_555
H18 C26 1_555 1_555
C27 C25 1_555 1_555
H19 C27 1_555 1_555
C28 N2 1_555 1_555
H20 C28 1_555 1_555
C29 C18 1_555 1_555
H21 C29 1_555 1_555
H22 C29 1_555 1_555
Cd1_2 O6 1_555 1_555
Cd1_3 O8 1_555 1_555
Cd2_2 N1 1_555 1_555
Cd2_3 O3 1_555 1_555
Cd2A O4 1_555 1_555
N1_2 Cd2 1_555 1_555
O3_2 Cd2 1_555 1_555
O4_2 Cd2 1_555 1_555
O4A Cd2 1_555 1_555
O6_2 Cd1 1_555 1_555
O7_2 Cd1 1_555 1_555
O8_2 Cd1 1_555 1_555
C6 O8 1_555 1_555
C11 C14 1_555 1_555
C12 C17 1_555 1_555
C13 C15 1_555 1_555
O4 Cd2_3 1_555 1_555
O5 C20 1_555 1_555
C22 C23 1_555 1_555
O7 Cd1_2 1_555 1_555
C25 C29 1_555 1_555
C27 C28 1_555 1_555
Cd2_3 O8_2 1_555 1_555

#END
