
#######################################################################
#
#                 Cambridge Crystallographic Data Centre
#                                CCDC 
#
#######################################################################
#
# If this CIF has been generated from an entry in the Cambridge 
# Structural Database, then it will include bibliographic, chemical, 
# crystal, experimental, refinement or atomic coordinate data resulting 
# from the CCDC's data processing and validation procedures.
#
#######################################################################

data_GARNOD
_symmetry_cell_setting           monoclinic
_symmetry_space_group_name_H-M   'P 21'
_symmetry_Int_Tables_number      4
_space_group_name_Hall           'P 2yb'
loop_
_symmetry_equiv_pos_site_id
_symmetry_equiv_pos_as_xyz
1 x,y,z
2 -x,1/2+y,-z
_cell_length_a                   10.0954(16)
_cell_length_b                   8.1245(13)
_cell_length_c                   23.297(4)
_cell_angle_alpha                90
_cell_angle_beta                 102.447(3)
_cell_angle_gamma                90
_cell_volume                     1865.91
loop_
_atom_site_label
_atom_site_type_symbol
_atom_site_fract_x
_atom_site_fract_y
_atom_site_fract_z
Cu1 Cu 0.54210(3) 0.12774(4) 0.426823(15)
C1 C 0.6381(3) 0.4641(5) 0.40213(15)
H1 H 0.6990 0.4547 0.4381
C2 C 0.6389(4) 0.6057(5) 0.36938(16)
H2 H 0.6998 0.6902 0.3829
C3 C 0.5476(3) 0.6193(6) 0.31639(15)
H3 H 0.5451 0.7140 0.2937
C4 C 0.4599(3) 0.4912(5) 0.29729(14)
H4 H 0.3986 0.4977 0.2613
C5 C 0.4638(3) 0.3522(4) 0.33225(12)
C6 C 0.3723(3) 0.2082(5) 0.31718(12)
C7 C 0.2654(4) 0.2005(6) 0.26862(15)
H5 H 0.2467 0.2895 0.2430
C8 C 0.1882(4) 0.0626(7) 0.25871(17)
H6 H 0.1149 0.0571 0.2268
C9 C 0.2200(4) -0.0717(6) 0.29709(16)
H7 H 0.1706 -0.1690 0.2902
C10 C 0.3251(3) -0.0563(5) 0.34471(14)
H8 H 0.3457 -0.1440 0.3708
C11 C 0.6246(3) -0.1354(4) 0.50055(12)
C12 C 0.7569(3) -0.0399(4) 0.50382(11)
H9 H 0.8042 -0.0936 0.4763
C13 C 0.8524(3) -0.0476(5) 0.56435(14)
H10 H 0.8617 -0.1632 0.5765
C14 C 0.9927(3) 0.0165(6) 0.56184(17)
H11 H 1.0273 -0.0445 0.5330
H12 H 1.0525 0.0034 0.5996
H13 H 0.9867 0.1309 0.5513
C15 C 0.7987(4) 0.0471(6) 0.61049(14)
H14 H 0.7106 0.0060 0.6124
H15 H 0.7922 0.1617 0.6003
H16 H 0.8594 0.0335 0.6480
N1 N 0.5530(2) 0.3410(3) 0.38381(10)
N2 N 0.3997(2) 0.0819(3) 0.35504(10)
N3 N 0.7244(2) 0.1307(4) 0.48129(10)
H33 H 0.7875 0.1657 0.4621
H34 H 0.7238 0.1997 0.5114
O9 O 0.51949(19) -0.0797(3) 0.46497(9)
O10 O 0.6238(2) -0.2611(3) 0.52994(10)
Cu1A Cu 0.45790(3) -0.37226(4) 0.573177(15)
O10A O 0.3762(2) 0.2389(3) 0.47006(10)
Cu2 Cu 0.45844(3) 0.54727(4) 0.079525(15)
C16 C 0.6900(3) 0.7080(5) 0.16081(15)
H17 H 0.6683 0.8013 0.1376
C17 C 0.8015(4) 0.7109(7) 0.20737(16)
H18 H 0.8534 0.8059 0.2159
C18 C 0.8344(4) 0.5718(7) 0.24063(17)
H19 H 0.9100 0.5709 0.2716
C19 C 0.7551(4) 0.4336(6) 0.22803(16)
H20 H 0.7759 0.3385 0.2504
C20 C 0.6428(3) 0.4383(5) 0.18114(13)
C21 C 0.5478(3) 0.2996(5) 0.16487(13)
C22 C 0.5543(4) 0.1514(6) 0.19522(16)
H21 H 0.6238 0.1325 0.2279
C23 C 0.4578(4) 0.0340(6) 0.17665(16)
H22 H 0.4622 -0.0658 0.1965
C24 C 0.3544(4) 0.0622(6) 0.12887(15)
H23 H 0.2877 -0.0165 0.1160
C25 C 0.3530(4) 0.2124(5) 0.10039(14)
H24 H 0.2832 0.2330 0.0680
C26 C 0.3979(3) 0.8074(4) 0.00371(13)
C27 C 0.3089(3) 0.6699(4) -0.02907(12)
H25 H 0.3569 0.6245 -0.0579
C28 C 0.1718(4) 0.7344(5) -0.06352(16)
H26 H 0.1911 0.8305 -0.0858
C29 C 0.1027(6) 0.6094(7) -0.1078(2)
H27 H 0.0176 0.6527 -0.1289
H28 H 0.0872 0.5102 -0.0879
H29 H 0.1594 0.5856 -0.1350
C30 C 0.0817(4) 0.7926(7) -0.0241(2)
H30 H -0.0022 0.8323 -0.0475
H31 H 0.1260 0.8798 0.0006
H32 H 0.0637 0.7029 0.0000
N4 N 0.6123(2) 0.5721(4) 0.14859(10)
N5 N 0.4462(3) 0.3283(4) 0.11704(11)
N6 N 0.2981(2) 0.5370(4) 0.01256(11)
H35 H 0.2955 0.4388 -0.0055
H36 H 0.2213 0.5488 0.0259
O11 O 0.4715(2) 0.7722(3) 0.05343(9)
O12 O 0.3968(2) 0.9461(3) -0.01939(10)
Cu2A Cu 0.54156(3) 1.04727(4) -0.079525(15)
O12A O 0.6032(2) 0.4461(3) 0.01939(10)
Cl1 Cl 0.15994(8) 0.62965(14) 0.15600(3)
O1 O 0.0851(5) 0.7752(8) 0.1438(3)
O2 O 0.3022(3) 0.6628(6) 0.16092(17)
O3 O 0.1200(7) 0.5303(13) 0.1106(3)
O4 O 0.1398(4) 0.5678(8) 0.20890(19)
Cl2 Cl 0.85117(8) 0.02627(13) 0.34502(4)
O5 O 0.8763(4) 0.0709(7) 0.29049(14)
O6 O 0.7097(3) 0.0069(6) 0.34051(15)
O7 O 0.9051(5) 0.1352(9) 0.3898(2)
O8 O 0.9159(4) -0.1276(7) 0.3595(3)
O13 O 0.2008(3) 0.2108(4) 0.95964(14)
H37 H 0.133(6) 0.156(9) 0.922(3)
H38 H 0.247(4) 0.151(8) 0.9624(19)
O14 O 0.1943(3) 0.9560(4) 0.45684(12)
H39 H 0.131(4) 0.965(5) 0.4342(17)
H40 H 0.247(4) 1.057(6) 0.4594(15)
loop_
_geom_bond_atom_site_label_1
_geom_bond_atom_site_label_2
_geom_bond_site_symmetry_1
_geom_bond_site_symmetry_2
Cu1 N1 1_555 1_555
Cu2 N4 1_555 1_555
Cl1 O1 1_555 1_555
O2 Cl1 1_555 1_555
O3 Cl1 1_555 1_555
O4 Cl1 1_555 1_555
Cl2 O5 1_555 1_555
O6 Cl2 1_555 1_555
O7 Cl2 1_555 1_555
O8 Cl2 1_555 1_555
C1 H1 1_555 1_555
C2 C1 1_555 1_555
H2 C2 1_555 1_555
C3 C2 1_555 1_555
H3 C3 1_555 1_555
C4 C3 1_555 1_555
H4 C4 1_555 1_555
C5 C4 1_555 1_555
C6 C5 1_555 1_555
C7 C6 1_555 1_555
H5 C7 1_555 1_555
C8 C7 1_555 1_555
H6 C8 1_555 1_555
C9 C8 1_555 1_555
H7 C9 1_555 1_555
C10 C9 1_555 1_555
H8 C10 1_555 1_555
C11 C12 1_555 1_555
C12 H9 1_555 1_555
C13 C12 1_555 1_555
H10 C13 1_555 1_555
C14 C13 1_555 1_555
H11 C14 1_555 1_555
H12 C14 1_555 1_555
H13 C14 1_555 1_555
C15 C13 1_555 1_555
H14 C15 1_555 1_555
H15 C15 1_555 1_555
H16 C15 1_555 1_555
C16 H17 1_555 1_555
C17 C16 1_555 1_555
H18 C17 1_555 1_555
C18 C17 1_555 1_555
H19 C18 1_555 1_555
C19 C18 1_555 1_555
H20 C19 1_555 1_555
C20 C19 1_555 1_555
C21 C20 1_555 1_555
C22 C21 1_555 1_555
H21 C22 1_555 1_555
C23 C22 1_555 1_555
H22 C23 1_555 1_555
C24 C23 1_555 1_555
H23 C24 1_555 1_555
C25 C24 1_555 1_555
H24 C25 1_555 1_555
C26 C27 1_555 1_555
C27 H25 1_555 1_555
C28 C27 1_555 1_555
H26 C28 1_555 1_555
C29 C28 1_555 1_555
H27 C29 1_555 1_555
H28 C29 1_555 1_555
H29 C29 1_555 1_555
C30 C28 1_555 1_555
H30 C30 1_555 1_555
H31 C30 1_555 1_555
H32 C30 1_555 1_555
N1 C1 1_555 1_555
N2 Cu1 1_555 1_555
N3 Cu1 1_555 1_555
H33 N3 1_555 1_555
H34 N3 1_555 1_555
N4 C16 1_555 1_555
N5 Cu2 1_555 1_555
N6 Cu2 1_555 1_555
H35 N6 1_555 1_555
H36 N6 1_555 1_555
O9 Cu1 1_555 1_555
O10 C11 1_555 1_555
O11 Cu2 1_555 1_555
O12 C26 1_555 1_555
O13 H37 1_555 1_555
H38 O13 1_555 1_555
O14 H39 1_555 1_555
H40 O14 1_555 1_555
Cu1A O10 1_555 1_555
Cu2A O12 1_555 1_555
O10A Cu1 1_555 1_555
O12A Cu2 1_555 1_555
C5 N1 1_555 1_555
C6 N2 1_555 1_555
C10 N2 1_555 1_555
C11 O9 1_555 1_555
C12 N3 1_555 1_555
C20 N4 1_555 1_555
C21 N5 1_555 1_555
C25 N5 1_555 1_555
C26 O11 1_555 1_555
C27 N6 1_555 1_555

#END
