
#######################################################################
#
#                 Cambridge Crystallographic Data Centre
#                                CCDC 
#
#######################################################################
#
# If this CIF has been generated from an entry in the Cambridge 
# Structural Database, then it will include bibliographic, chemical, 
# crystal, experimental, refinement or atomic coordinate data resulting 
# from the CCDC's data processing and validation procedures.
#
#######################################################################

data_GARNUJ
_symmetry_cell_setting           triclinic
_symmetry_space_group_name_H-M   'P -1'
_symmetry_Int_Tables_number      2
_space_group_name_Hall           '-P 1'
loop_
_symmetry_equiv_pos_site_id
_symmetry_equiv_pos_as_xyz
1 x,y,z
2 -x,-y,-z
_cell_length_a                   7.1526(3)
_cell_length_b                   11.1318(5)
_cell_length_c                   13.4809(6)
_cell_angle_alpha                76.0200(10)
_cell_angle_beta                 82.6110(10)
_cell_angle_gamma                78.5390(10)
_cell_volume                     1017.13
loop_
_atom_site_label
_atom_site_type_symbol
_atom_site_fract_x
_atom_site_fract_y
_atom_site_fract_z
Ag1 Ag 0.64201(2) 0.509137(14) 0.584164(12)
N1 N 0.4544(2) 0.63608(15) 0.67058(13)
C1 C 0.3971(3) 0.5974(2) 0.77053(16)
H1 H 0.4421 0.5131 0.8043
N2 N -0.1407(2) 1.38826(15) 0.50511(12)
C2 C 0.2754(3) 0.6753(2) 0.82611(16)
H2 H 0.2386 0.6448 0.8966
C3 C 0.2080(3) 0.7983(2) 0.77761(15)
H3 H 0.1240 0.8533 0.8142
C4 C 0.2657(3) 0.83981(18) 0.67399(15)
C5 C 0.3901(3) 0.75518(18) 0.62422(15)
H4 H 0.4310 0.7835 0.5540
C6 C 0.1984(3) 0.96396(19) 0.61759(15)
C7 C -0.0783(3) 1.42566(18) 0.40584(15)
H5 H -0.1273 1.5083 0.3700
C8 C 0.0537(3) 1.34901(19) 0.35397(15)
H6 H 0.0937 1.3786 0.2838
C9 C 0.1273(3) 1.22824(19) 0.40545(15)
H7 H 0.2169 1.1734 0.3711
C10 C 0.0665(3) 1.18916(18) 0.50928(15)
C11 C -0.0676(3) 1.27204(18) 0.55546(15)
H8 H -0.1094 1.2454 0.6258
C12 C 0.1385(3) 1.06673(19) 0.56808(15)
Ag1A Ag 0.35799(2) 0.490863(14) 0.415836(12)
Ag1_2 Ag -0.35799(2) 1.509137(14) 0.584164(12)
N2_2 N 0.8593(2) 0.38826(15) 0.50511(12)
S1 S 0.85831(8) 0.32850(5) 0.84025(4)
F1 F 0.7286(2) 0.13661(15) 0.96505(13)
O1 O 1.0448(3) 0.33965(17) 0.78910(14)
F2 F 1.0249(3) 0.13859(15) 0.97437(13)
O2 O 0.7121(3) 0.33630(16) 0.77366(12)
F3 F 0.9378(3) 0.08728(14) 0.84605(13)
O3 O 0.7995(3) 0.39695(17) 0.91974(13)
C13 C 0.8887(4) 0.1642(2) 0.90993(17)
N3 N 0.4169(3) 0.3127(2) 0.59940(16)
C14 C 0.4251(3) 0.2334(2) 0.67108(17)
C15 C 0.4348(4) 0.1323(2) 0.7624(2)
H9 H 0.4270 0.1674 0.8231
H10 H 0.5560 0.0739 0.7579
H11 H 0.3278 0.0874 0.7678
N4 N 0.6997(4) 0.8312(3) 0.8252(2)
C16 C 0.6957(4) 0.7570(2) 0.9000(2)
C17 C 0.6919(4) 0.6617(3) 0.9947(2)
H12 H 0.5647 0.6736 1.0317
H13 H 0.7881 0.6690 1.0375
H14 H 0.7202 0.5781 0.9790
loop_
_geom_bond_atom_site_label_1
_geom_bond_atom_site_label_2
_geom_bond_site_symmetry_1
_geom_bond_site_symmetry_2
Ag1 N1 1_555 1_555
S1 O1 1_555 1_555
F1 C13 1_555 1_555
N1 C1 1_555 1_555
C1 H1 1_555 1_555
F2 C13 1_555 1_555
O2 S1 1_555 1_555
N2 C7 1_555 1_555
C2 C1 1_555 1_555
H2 C2 1_555 1_555
F3 C13 1_555 1_555
O3 S1 1_555 1_555
N3 C14 1_555 1_555
C3 C2 1_555 1_555
H3 C3 1_555 1_555
N4 C16 1_555 1_555
C4 C3 1_555 1_555
C5 N1 1_555 1_555
H4 C5 1_555 1_555
C6 C4 1_555 1_555
C7 H5 1_555 1_555
C8 C7 1_555 1_555
H6 C8 1_555 1_555
C9 C8 1_555 1_555
H7 C9 1_555 1_555
C10 C9 1_555 1_555
C11 N2 1_555 1_555
H8 C11 1_555 1_555
C12 C6 1_555 1_555
C13 S1 1_555 1_555
C14 C15 1_555 1_555
C15 H9 1_555 1_555
H10 C15 1_555 1_555
H11 C15 1_555 1_555
C16 C17 1_555 1_555
C17 H12 1_555 1_555
H13 C17 1_555 1_555
H14 C17 1_555 1_555
Ag1A Ag1 1_555 1_555
Ag1_2 N2 1_555 1_555
N2_2 Ag1 1_555 1_555
C4 C5 1_555 1_555
C10 C11 1_555 1_555
C10 C12 1_555 1_555

#END
