
#######################################################################
#
#                 Cambridge Crystallographic Data Centre
#                                CCDC 
#
#######################################################################
#
# If this CIF has been generated from an entry in the Cambridge 
# Structural Database, then it will include bibliographic, chemical, 
# crystal, experimental, refinement or atomic coordinate data resulting 
# from the CCDC's data processing and validation procedures.
#
#######################################################################

data_GARQAS
_symmetry_cell_setting           orthorhombic
_symmetry_space_group_name_H-M   'P 21 21 21'
_symmetry_Int_Tables_number      19
_space_group_name_Hall           'P 2ac 2ab'
loop_
_symmetry_equiv_pos_site_id
_symmetry_equiv_pos_as_xyz
1 x,y,z
2 1/2-x,-y,1/2+z
3 1/2+x,1/2-y,-z
4 -x,1/2+y,1/2-z
_cell_length_a                   9.3209(11)
_cell_length_b                   12.0149(12)
_cell_length_c                   20.9644(15)
_cell_angle_alpha                90
_cell_angle_beta                 90
_cell_angle_gamma                90
_cell_volume                     2347.8
loop_
_atom_site_label
_atom_site_type_symbol
_atom_site_fract_x
_atom_site_fract_y
_atom_site_fract_z
Ni1 Ni 0.53256(3) 0.72844(2) 0.887524(12)
O1 O 0.44666(17) 0.61859(13) 0.95373(7)
O2 O 0.24816(19) 0.56644(17) 0.90177(7)
O3 O 0.14422(18) 0.61584(14) 1.13249(7)
O4 O 0.11556(17) 0.66846(14) 1.03296(7)
N1 N 0.1476(2) 0.88403(18) 0.93807(9)
H1 H 0.0886 0.9006 0.9681
N2 N 0.34319(19) 0.81817(16) 0.89017(9)
N3 N 0.4396(2) 0.55778(19) 0.71510(9)
H2 H 0.3926 0.5082 0.6942
N4 N 0.5059(2) 0.66506(17) 0.79596(8)
N5 N 0.9559(2) 0.60502(17) 0.90556(9)
H3 H 1.0466 0.6175 0.9073
N6 N 0.72361(19) 0.63758(16) 0.89264(10)
C1 C 0.3317(2) 0.5637(2) 0.94776(11)
C2 C 0.3019(3) 0.4802(2) 0.99953(11)
H4 H 0.3415 0.4100 0.9934
C3 C 0.2269(3) 0.4931(2) 1.05270(11)
H5 H 0.2164 0.4316 1.0792
C4 C 0.1585(2) 0.5985(2) 1.07277(10)
C5 C 0.2747(3) 0.8339(2) 0.94453(11)
H6 H 0.3116 0.8120 0.9838
C6 C 0.2674(3) 0.8698(3) 0.77814(12)
H7 H 0.3483 0.8420 0.7576
C7 C 0.1585(4) 0.9193(3) 0.74486(14)
H8 H 0.1656 0.9242 0.7007
C8 C 0.0381(4) 0.9624(3) 0.77454(15)
H9 H -0.0322 0.9966 0.7500
C9 C 0.0202(3) 0.9557(3) 0.83947(14)
H10 H -0.0609 0.9842 0.8595
C10 C 0.1294(3) 0.9042(2) 0.87380(11)
C11 C 0.2521(3) 0.8626(2) 0.84433(11)
C12 C 0.4197(3) 0.5864(2) 0.77683(11)
H11 H 0.3514 0.5533 0.8030
C13 C 0.7024(3) 0.7661(3) 0.73532(12)
H12 H 0.7329 0.8110 0.7688
C14 C 0.7662(4) 0.7714(3) 0.67599(13)
H13 H 0.8407 0.8216 0.6695
C15 C 0.7222(3) 0.7038(3) 0.62538(12)
H14 H 0.7676 0.7104 0.5861
C16 C 0.6146(3) 0.6285(3) 0.63237(12)
H15 H 0.5859 0.5829 0.5989
C17 C 0.5493(3) 0.6230(2) 0.69214(11)
C18 C 0.5911(3) 0.6910(2) 0.74286(10)
C19 C 0.8542(2) 0.6794(2) 0.89247(12)
H16 H 0.8736 0.7539 0.8840
C20 C 0.6467(3) 0.4358(2) 0.90800(13)
H17 H 0.5493 0.4468 0.9007
C21 C 0.7006(4) 0.3321(3) 0.92097(17)
H18 H 0.6383 0.2717 0.9219
C22 C 0.8471(4) 0.3147(3) 0.93291(16)
H19 H 0.8788 0.2435 0.9431
C23 C 0.9445(3) 0.3998(2) 0.92991(13)
H20 H 1.0419 0.3880 0.9369
C24 C 0.8899(3) 0.5055(2) 0.91578(11)
C25 C 0.7440(3) 0.5244(2) 0.90613(11)
Ni1B Ni 0.03256(3) 0.77156(2) 1.112476(12)
O3B O 0.64422(18) 0.88416(14) 0.86751(7)
O4B O 0.61556(17) 0.83154(14) 0.96704(7)
loop_
_geom_bond_atom_site_label_1
_geom_bond_atom_site_label_2
_geom_bond_site_symmetry_1
_geom_bond_site_symmetry_2
Ni1 O1 1_555 1_555
O1 C1 1_555 1_555
O2 C1 1_555 1_555
O3 C4 1_555 1_555
O4 C4 1_555 1_555
N1 H1 1_555 1_555
N2 Ni1 1_555 1_555
N3 H2 1_555 1_555
N4 Ni1 1_555 1_555
N5 H3 1_555 1_555
N6 Ni1 1_555 1_555
C1 C2 1_555 1_555
C2 H4 1_555 1_555
C3 C2 1_555 1_555
H5 C3 1_555 1_555
C4 C3 1_555 1_555
C5 N1 1_555 1_555
H6 C5 1_555 1_555
C6 H7 1_555 1_555
C7 C6 1_555 1_555
H8 C7 1_555 1_555
C8 C7 1_555 1_555
H9 C8 1_555 1_555
C9 C8 1_555 1_555
H10 C9 1_555 1_555
C10 N1 1_555 1_555
C11 N2 1_555 1_555
C12 N3 1_555 1_555
H11 C12 1_555 1_555
C13 H12 1_555 1_555
C14 C13 1_555 1_555
H13 C14 1_555 1_555
C15 C14 1_555 1_555
H14 C15 1_555 1_555
C16 C15 1_555 1_555
H15 C16 1_555 1_555
C17 N3 1_555 1_555
C18 N4 1_555 1_555
C19 N5 1_555 1_555
H16 C19 1_555 1_555
C20 H17 1_555 1_555
C21 C20 1_555 1_555
H18 C21 1_555 1_555
C22 C21 1_555 1_555
H19 C22 1_555 1_555
C23 C22 1_555 1_555
H20 C23 1_555 1_555
C24 N5 1_555 1_555
C25 N6 1_555 1_555
Ni1B O3 1_555 1_555
O3B Ni1 1_555 1_555
O4B Ni1 1_555 1_555
O4 Ni1B 1_555 1_555
N2 C5 1_555 1_555
N4 C12 1_555 1_555
N6 C19 1_555 1_555
C6 C11 1_555 1_555
C9 C10 1_555 1_555
C10 C11 1_555 1_555
C13 C18 1_555 1_555
C16 C17 1_555 1_555
C17 C18 1_555 1_555
C20 C25 1_555 1_555
C23 C24 1_555 1_555
C24 C25 1_555 1_555

#END
