
#######################################################################
#
#                 Cambridge Crystallographic Data Centre
#                                CCDC 
#
#######################################################################
#
# If this CIF has been generated from an entry in the Cambridge 
# Structural Database, then it will include bibliographic, chemical, 
# crystal, experimental, refinement or atomic coordinate data resulting 
# from the CCDC's data processing and validation procedures.
#
#######################################################################

data_GARRUO
_symmetry_cell_setting           orthorhombic
_symmetry_space_group_name_H-M   'P b c a'
_symmetry_Int_Tables_number      61
_space_group_name_Hall           '-P 2ac 2ab'
loop_
_symmetry_equiv_pos_site_id
_symmetry_equiv_pos_as_xyz
1 x,y,z
2 1/2-x,-y,1/2+z
3 -x,1/2+y,1/2-z
4 1/2+x,1/2-y,-z
5 -x,-y,-z
6 1/2+x,y,1/2-z
7 x,1/2-y,1/2+z
8 1/2-x,1/2+y,z
_cell_length_a                   7.7978(9)
_cell_length_b                   10.7744(12)
_cell_length_c                   35.325(4)
_cell_angle_alpha                90
_cell_angle_beta                 90
_cell_angle_gamma                90
_cell_volume                     2967.89
loop_
_atom_site_label
_atom_site_type_symbol
_atom_site_fract_x
_atom_site_fract_y
_atom_site_fract_z
Cu1 Cu 1.11691(4) 0.67597(3) 0.345104(9)
S1 S 1.40271(9) 0.61263(7) 0.34368(3)
N1 N 1.3844(3) 0.3538(2) 0.34377(6)
C1 C 1.3879(3) 0.4601(3) 0.34412(7)
N2 N 0.9620(3) 0.59247(18) 0.38739(6)
C2 C 0.8393(3) 0.6026(2) 0.49059(6)
C3 C 0.8656(3) 0.4982(2) 0.37430(7)
C4 C 0.8445(3) 0.5642(2) 0.45016(6)
N3 N 0.9760(3) 0.5504(2) 0.31300(6)
C5 C 0.8833(3) 0.4689(2) 0.33359(7)
C6 C 0.7568(3) 0.4343(3) 0.39843(7)
H1 H 0.6907 0.3691 0.3893
C7 C 0.8303(4) 0.6706(3) 0.56739(7)
H2 H 0.8272 0.6938 0.5927
C8 C 0.9497(3) 0.6232(2) 0.42376(7)
H3 H 1.0163 0.6891 0.4323
C9 C 0.9373(3) 0.7005(2) 0.50432(7)
H4 H 1.0077 0.7444 0.4878
C10 C 0.9318(3) 0.7338(3) 0.54203(8)
H5 H 0.9979 0.8002 0.5504
C11 C 0.7336(3) 0.5726(3) 0.55461(7)
H6 H 0.6649 0.5287 0.5714
C12 C 0.7469(3) 0.4675(2) 0.43580(7)
H7 H 0.6733 0.4244 0.4518
C13 C 0.8093(4) 0.3650(3) 0.31698(8)
H8 H 0.7476 0.3088 0.3316
C14 C 0.7381(3) 0.5388(2) 0.51663(7)
H9 H 0.6720 0.4722 0.5084
C15 C 0.9202(4) 0.4297(3) 0.25767(9)
H10 H 0.9332 0.4194 0.2317
C16 C 0.8281(4) 0.3458(3) 0.27870(9)
H11 H 0.7789 0.2768 0.2672
C17 C 0.9924(4) 0.5287(3) 0.27587(8)
H12 H 1.0568 0.5844 0.2616
Cu1G Cu 1.38309(4) 0.17597(3) 0.345104(9)
N1G N 1.1156(3) 0.8538(2) 0.34377(6)
loop_
_geom_bond_atom_site_label_1
_geom_bond_atom_site_label_2
_geom_bond_site_symmetry_1
_geom_bond_site_symmetry_2
Cu1 S1 1_555 1_555
S1 C1 1_555 1_555
N1 C1 1_555 1_555
N2 Cu1 1_555 1_555
C2 C4 1_555 1_555
C3 N2 1_555 1_555
C4 C8 1_555 1_555
N3 Cu1 1_555 1_555
C5 C3 1_555 1_555
C6 C3 1_555 1_555
H1 C6 1_555 1_555
C7 H2 1_555 1_555
C8 N2 1_555 1_555
H3 C8 1_555 1_555
C9 C2 1_555 1_555
H4 C9 1_555 1_555
C10 C7 1_555 1_555
H5 C10 1_555 1_555
C11 C7 1_555 1_555
H6 C11 1_555 1_555
C12 C4 1_555 1_555
H7 C12 1_555 1_555
C13 C5 1_555 1_555
H8 C13 1_555 1_555
C14 C2 1_555 1_555
H9 C14 1_555 1_555
C15 H10 1_555 1_555
C16 C13 1_555 1_555
H11 C16 1_555 1_555
C17 N3 1_555 1_555
H12 C17 1_555 1_555
Cu1G N1 1_555 1_555
N1G Cu1 1_555 1_555
N3 C5 1_555 1_555
C6 C12 1_555 1_555
C9 C10 1_555 1_555
C11 C14 1_555 1_555
C15 C16 1_555 1_555
C15 C17 1_555 1_555

#END
