
#######################################################################
#
#                 Cambridge Crystallographic Data Centre
#                                CCDC 
#
#######################################################################
#
# If this CIF has been generated from an entry in the Cambridge 
# Structural Database, then it will include bibliographic, chemical, 
# crystal, experimental, refinement or atomic coordinate data resulting 
# from the CCDC's data processing and validation procedures.
#
#######################################################################

data_GARROI
_symmetry_cell_setting           orthorhombic
_symmetry_space_group_name_H-M   'I b a 2'
_symmetry_Int_Tables_number      45
_space_group_name_Hall           'I 2 -2c'
loop_
_symmetry_equiv_pos_site_id
_symmetry_equiv_pos_as_xyz
1 x,y,z
2 -x,-y,z
3 -x,y,1/2+z
4 x,-y,1/2+z
5 1/2+x,1/2+y,1/2+z
6 1/2-x,1/2-y,1/2+z
7 1/2-x,1/2+y,z
8 1/2+x,1/2-y,z
_cell_length_a                   10.3794(10)
_cell_length_b                   18.983(3)
_cell_length_c                   10.5021(12)
_cell_angle_alpha                90
_cell_angle_beta                 90
_cell_angle_gamma                90
_cell_volume                     2069.25
loop_
_atom_site_label
_atom_site_type_symbol
_atom_site_fract_x
_atom_site_fract_y
_atom_site_fract_z
Co1 Co 0.23966(4) 0.966647(19) 0.74932(8)
O1 O 0.1588(3) 0.91672(15) 0.5806(2)
H1 H 0.2080 0.9431 0.5369
H2 H 0.0843 0.8987 0.5727
O2 O 0.3221(2) 0.99510(11) 0.9348(2)
O3 O 0.1226(2) 1.06142(12) 0.7759(2)
H3 H 0.0483 1.0731 0.8026
H4 H 0.1121 1.0858 0.7089
O4 O 0.3530(2) 0.96635(11) 1.1378(2)
O5 O 0.1138(2) 0.90091(11) 0.8609(2)
O6 O 0.0868(2) 0.85747(12) 1.0548(2)
O7 O 0.37724(17) 0.87420(9) 0.76172(19)
C1 C 0.4783(3) 0.87921(15) 0.8584(3)
H5 H 0.5346 0.9202 0.8480
C2 C 0.4010(3) 0.87971(14) 0.9824(3)
H6 H 0.4522 0.8587 1.0510
C3 C 0.2838(3) 0.82969(15) 0.9480(3)
H7 H 0.2852 0.7878 1.0023
C4 C 0.3196(3) 0.80965(14) 0.8104(3)
H8 H 0.2465 0.7927 0.7597
C5 C 0.4367(4) 0.75899(17) 0.8103(4)
H9 H 0.4272 0.7223 0.8738
H10 H 0.4492 0.7376 0.7273
C6 C 0.5475(3) 0.80918(18) 0.8437(3)
H11 H 0.5895 0.7953 0.9224
H12 H 0.6110 0.8110 0.7760
C7 C 0.3557(2) 0.95301(15) 1.0216(3)
C8 C 0.1514(3) 0.86588(14) 0.9561(3)
Co1C Co 0.23966(4) 1.033353(19) 1.24932(8)
O4C O 0.3530(2) 1.03365(11) 0.6378(2)
loop_
_geom_bond_atom_site_label_1
_geom_bond_atom_site_label_2
_geom_bond_site_symmetry_1
_geom_bond_site_symmetry_2
Co1 O1 1_555 1_555
O1 H1 1_555 1_555
H2 O1 1_555 1_555
O2 Co1 1_555 1_555
O3 Co1 1_555 1_555
H3 O3 1_555 1_555
H4 O3 1_555 1_555
O4 C7 1_555 1_555
O5 Co1 1_555 1_555
O6 C8 1_555 1_555
O7 Co1 1_555 1_555
C1 O7 1_555 1_555
H5 C1 1_555 1_555
C2 C1 1_555 1_555
H6 C2 1_555 1_555
C3 C2 1_555 1_555
H7 C3 1_555 1_555
C4 O7 1_555 1_555
H8 C4 1_555 1_555
C5 C4 1_555 1_555
H9 C5 1_555 1_555
H10 C5 1_555 1_555
C6 C1 1_555 1_555
H11 C6 1_555 1_555
H12 C6 1_555 1_555
C7 O2 1_555 1_555
C8 O5 1_555 1_555
Co1C O4 1_555 1_555
O4C Co1 1_555 1_555
C2 C7 1_555 1_555
C3 C4 1_555 1_555
C3 C8 1_555 1_555
C5 C6 1_555 1_555

#END
