
#######################################################################
#
#                 Cambridge Crystallographic Data Centre
#                                CCDC 
#
#######################################################################
#
# If this CIF has been generated from an entry in the Cambridge 
# Structural Database, then it will include bibliographic, chemical, 
# crystal, experimental, refinement or atomic coordinate data resulting 
# from the CCDC's data processing and validation procedures.
#
#######################################################################

data_GARSUP
_symmetry_cell_setting           triclinic
_symmetry_space_group_name_H-M   'P -1'
_symmetry_Int_Tables_number      2
_space_group_name_Hall           '-P 1'
loop_
_symmetry_equiv_pos_site_id
_symmetry_equiv_pos_as_xyz
1 x,y,z
2 -x,-y,-z
_cell_length_a                   5.1093(4)
_cell_length_b                   9.2367(8)
_cell_length_c                   9.6769(8)
_cell_angle_alpha                68.725(3)
_cell_angle_beta                 82.576(3)
_cell_angle_gamma                89.045(3)
_cell_volume                     421.766
loop_
_atom_site_label
_atom_site_type_symbol
_atom_site_fract_x
_atom_site_fract_y
_atom_site_fract_z
S1 S -0.30781(7) 0.77817(4) 0.59785(4)
O1 O -0.5839(3) 0.7797(2) 0.57385(16)
O2 O -0.2641(3) 0.89203(17) 0.66688(16)
O3 O 0.0637(2) 0.85784(15) 0.13776(14)
O4 O -0.1386(2) 0.82127(16) 0.45218(14)
O5 O 0.4349(2) 0.83197(17) 0.23942(15)
O6 O -0.2486(4) 0.62525(19) 0.69837(19)
C1 C 0.2965(3) 0.81463(19) 0.14778(18)
C2 C 0.4192(4) 0.7346(3) 0.0438(2)
C3 C 0.2349(4) 0.7090(2) -0.0549(2)
N1 N 0.1701(4) 0.8593(2) -0.16740(19)
O7 O -0.1998(4) 0.53707(19) 0.3258(3)
Li1 Li -0.2349(6) 1.1171(4) 0.5940(3)
Li2 Li -0.2272(6) 0.7488(4) 0.2953(4)
H1 H 0.321(7) 0.912(4) -0.232(4)
H2 H 0.055(7) 0.846(4) -0.222(4)
H3 H -0.325(5) 0.473(3) 0.364(4)
H4 H 0.321(5) 0.649(3) -0.109(3)
H5 H 0.070(6) 0.660(3) 0.004(3)
H6 H 0.482(6) 0.643(4) 0.097(3)
H7 H 0.569(6) 0.793(3) -0.013(3)
H8 H -0.058(5) 0.485(4) 0.340(5)
H9 H 0.109(5) 0.927(3) -0.120(3)
S1A S -0.69219(7) 1.22183(4) 0.40215(4)
O1A O -0.4161(3) 1.2203(2) 0.42615(16)
O2A O -0.7359(3) 1.10797(17) 0.33312(16)
O3A O -1.0637(2) 1.14216(15) 0.86224(14)
O4A O -0.8614(2) 1.17873(16) 0.54782(14)
O4_2 O -1.1386(2) 0.82127(16) 0.45218(14)
O4A_2 O 0.1386(2) 1.17873(16) 0.54782(14)
O5A O -1.4349(2) 1.16803(17) 0.76058(15)
O5_2 O -0.5651(2) 0.83197(17) 0.23942(15)
O5A_2 O -0.4349(2) 1.16803(17) 0.76058(15)
O6A O -0.7514(4) 1.37475(19) 0.30163(19)
C1A C -1.2965(3) 1.18537(19) 0.85222(18)
C2A C -1.4192(4) 1.2654(3) 0.9562(2)
C3A C -1.2349(4) 1.2910(2) 1.0549(2)
N1A N -1.1701(4) 1.1407(2) 1.16740(19)
O7A O -0.8002(4) 1.46293(19) 0.6742(3)
Li1A Li -0.7651(6) 0.8829(4) 0.4060(3)
Li1_2 Li -1.2349(6) 1.1171(4) 0.5940(3)
Li1A_2 Li 0.2349(6) 0.8829(4) 0.4060(3)
Li2A Li -0.7728(6) 1.2512(4) 0.7047(4)
Li2_2 Li 0.7728(6) 0.7488(4) 0.2953(4)
Li2A_2 Li -1.7728(6) 1.2512(4) 0.7047(4)
H1A H -1.321(7) 1.088(4) 1.232(4)
H2A H -1.055(7) 1.154(4) 1.222(4)
H3A H -0.675(5) 1.527(3) 0.636(4)
H4A H -1.321(5) 1.351(3) 1.109(3)
H5A H -1.070(6) 1.340(3) 0.996(3)
H6A H -1.482(6) 1.357(4) 0.903(3)
H7A H -1.569(6) 1.207(3) 1.013(3)
H8A H -0.942(5) 1.515(4) 0.660(5)
H9A H -1.109(5) 1.073(3) 1.120(3)
loop_
_geom_bond_atom_site_label_1
_geom_bond_atom_site_label_2
_geom_bond_site_symmetry_1
_geom_bond_site_symmetry_2
S1 O1 1_555 1_555
O1 Li1A 1_555 1_555
O2 S1 1_555 1_555
O3 C1 1_555 1_555
O4 S1 1_555 1_555
O5 C1 1_555 1_555
O6 S1 1_555 1_555
C1 C2 1_555 1_555
C2 C3 1_555 1_555
C3 N1 1_555 1_555
N1 H1 1_555 1_555
O7 Li2 1_555 1_555
Li1 O2 1_555 1_555
Li2 O3 1_555 1_555
H2 N1 1_555 1_555
H3 O7 1_555 1_555
H4 C3 1_555 1_555
H5 C3 1_555 1_555
H6 C2 1_555 1_555
H7 C2 1_555 1_555
H8 O7 1_555 1_555
H9 N1 1_555 1_555
S1A O1A 1_555 1_555
O1A Li1 1_555 1_555
O2A S1A 1_555 1_555
O3A C1A 1_555 1_555
O4A S1A 1_555 1_555
O4_2 Li1A 1_555 1_555
O4A_2 Li1 1_555 1_555
O5A C1A 1_555 1_555
O5_2 Li2 1_555 1_555
O5A_2 Li1 1_555 1_555
O6A S1A 1_555 1_555
C1A C2A 1_555 1_555
C2A C3A 1_555 1_555
C3A N1A 1_555 1_555
N1A H1A 1_555 1_555
O7A Li2A 1_555 1_555
Li1A O2A 1_555 1_555
Li1_2 O4A 1_555 1_555
Li1A_2 O4 1_555 1_555
Li2A O3A 1_555 1_555
Li2_2 O5 1_555 1_555
Li2A_2 O5A 1_555 1_555
H2A N1A 1_555 1_555
H3A O7A 1_555 1_555
H4A C3A 1_555 1_555
H5A C3A 1_555 1_555
H6A C2A 1_555 1_555
H7A C2A 1_555 1_555
H8A O7A 1_555 1_555
H9A N1A 1_555 1_555
O4 Li2 1_555 1_555
O5 Li1A_2 1_555 1_555
O4A Li2A 1_555 1_555
O5A Li1_2 1_555 1_555
O5_2 Li1A 1_555 1_555
O5A_2 Li2A 1_555 1_555

#END
