
#######################################################################
#
#                 Cambridge Crystallographic Data Centre
#                                CCDC 
#
#######################################################################
#
# If this CIF has been generated from an entry in the Cambridge 
# Structural Database, then it will include bibliographic, chemical, 
# crystal, experimental, refinement or atomic coordinate data resulting 
# from the CCDC's data processing and validation procedures.
#
#######################################################################

data_GARSAV
_symmetry_cell_setting           orthorhombic
_symmetry_space_group_name_H-M   'P b c n'
_symmetry_Int_Tables_number      60
_space_group_name_Hall           '-P 2n 2ab'
loop_
_symmetry_equiv_pos_site_id
_symmetry_equiv_pos_as_xyz
1 x,y,z
2 1/2-x,1/2-y,1/2+z
3 -x,y,1/2-z
4 1/2+x,1/2-y,-z
5 -x,-y,-z
6 1/2+x,1/2+y,1/2-z
7 x,-y,1/2+z
8 1/2-x,1/2+y,z
_cell_length_a                   8.9223(18)
_cell_length_b                   19.684(4)
_cell_length_c                   10.151(2)
_cell_angle_alpha                90
_cell_angle_beta                 90
_cell_angle_gamma                90
_cell_volume                     1782.79
loop_
_atom_site_label
_atom_site_type_symbol
_atom_site_fract_x
_atom_site_fract_y
_atom_site_fract_z
Nd1 Nd 0.5000 0.51140(3) 0.2500
O1 O 0.6995(7) 0.4591(3) 0.1133(5)
H1 H 0.802(4) 0.448(5) 0.131(7)
H2 H 0.694(9) 0.459(5) 0.020(2)
O2 O 0.5450(7) 0.3957(3) 0.5981(6)
O3 O 0.6051(7) 0.4301(3) 0.3977(5)
O4 O 0.2471(7) 0.5501(3) 0.1620(6)
H3 H 0.163(6) 0.526(3) 0.195(10)
H4 H 0.211(8) 0.5964(15) 0.157(9)
C1 C 0.5817(8) 0.3855(4) 0.4827(8)
C2 C 0.6021(10) 0.3129(4) 0.4415(8)
C3 C 0.6744(10) 0.2956(4) 0.3247(8)
H5 H 0.7100 0.3295 0.2691
C4 C 0.5480(12) 0.2591(4) 0.5189(10)
H6 H 0.4971 0.2678 0.5970
N1 N 0.6459(9) 0.1776(4) 0.3683(7)
C5 C 0.5713(12) 0.1933(4) 0.4775(9)
H7 H 0.5329 0.1581 0.5285
C6 C 0.6936(11) 0.2279(4) 0.2911(10)
H8 H 0.7412 0.2173 0.2123
Nd1D Nd 0.5000 0.48860(3) -0.2500
Nd1D_2 Nd 0.5000 0.48860(3) 0.7500
O1B O 0.3005(7) 0.4591(3) 0.3867(5)
H1B H 0.198(4) 0.448(5) 0.369(7)
H2B H 0.306(9) 0.459(5) 0.480(2)
O2B O 0.4550(7) 0.3957(3) -0.0981(6)
O2D O 0.4550(7) 0.6043(3) 0.4019(6)
O2F O 0.5450(7) 0.6043(3) 0.0981(6)
O3B O 0.3949(7) 0.4301(3) 0.1023(5)
O4B O 0.7529(7) 0.5501(3) 0.3380(6)
H3B H 0.837(6) 0.526(3) 0.305(10)
H4B H 0.789(8) 0.5964(15) 0.343(9)
C1B C 0.4183(8) 0.3855(4) 0.0173(8)
C2B C 0.3979(10) 0.3129(4) 0.0585(8)
C3B C 0.3256(10) 0.2956(4) 0.1753(8)
H5B H 0.2900 0.3295 0.2309
C4B C 0.4520(12) 0.2591(4) -0.0189(10)
H6B H 0.5029 0.2678 -0.0970
N1B N 0.3541(9) 0.1776(4) 0.1317(7)
C5B C 0.4287(12) 0.1933(4) 0.0225(9)
H7B H 0.4671 0.1581 -0.0285
C6B C 0.3064(11) 0.2279(4) 0.2089(10)
H8B H 0.2588 0.2173 0.2877
Cl1 Cl 0.0000 0.55946(19) 0.7500
loop_
_geom_bond_atom_site_label_1
_geom_bond_atom_site_label_2
_geom_bond_site_symmetry_1
_geom_bond_site_symmetry_2
Nd1 O1 1_555 1_555
O1 H1 1_555 1_555
H2 O1 1_555 1_555
O2 C1 1_555 1_555
O3 Nd1 1_555 1_555
O4 Nd1 1_555 1_555
H3 O4 1_555 1_555
H4 O4 1_555 1_555
C1 O3 1_555 1_555
C2 C1 1_555 1_555
C3 C2 1_555 1_555
H5 C3 1_555 1_555
C4 C2 1_555 1_555
H6 C4 1_555 1_555
N1 C5 1_555 1_555
C5 C4 1_555 1_555
H7 C5 1_555 1_555
C6 C3 1_555 1_555
H8 C6 1_555 1_555
Nd1D O2B 1_555 1_555
Nd1D_2 O2 1_555 1_555
O1B Nd1 1_555 1_555
H1B O1B 1_555 1_555
H2B O1B 1_555 1_555
O2B C1B 1_555 1_555
O2D Nd1 1_555 1_555
O2F Nd1 1_555 1_555
O3B Nd1 1_555 1_555
O4B Nd1 1_555 1_555
H3B O4B 1_555 1_555
H4B O4B 1_555 1_555
C1B O3B 1_555 1_555
C2B C1B 1_555 1_555
C3B C2B 1_555 1_555
H5B C3B 1_555 1_555
C4B C2B 1_555 1_555
H6B C4B 1_555 1_555
N1B C5B 1_555 1_555
C5B C4B 1_555 1_555
H7B C5B 1_555 1_555
C6B C3B 1_555 1_555
H8B C6B 1_555 1_555
N1 C6 1_555 1_555
N1B C6B 1_555 1_555

#END
