
#######################################################################
#
#                 Cambridge Crystallographic Data Centre
#                                CCDC 
#
#######################################################################
#
# If this CIF has been generated from an entry in the Cambridge 
# Structural Database, then it will include bibliographic, chemical, 
# crystal, experimental, refinement or atomic coordinate data resulting 
# from the CCDC's data processing and validation procedures.
#
#######################################################################

data_GARSID
_symmetry_cell_setting           monoclinic
_symmetry_space_group_name_H-M   'P 21/c'
_symmetry_Int_Tables_number      14
_space_group_name_Hall           '-P 2ybc'
loop_
_symmetry_equiv_pos_site_id
_symmetry_equiv_pos_as_xyz
1 x,y,z
2 -x,1/2+y,1/2-z
3 -x,-y,-z
4 x,1/2-y,1/2+z
_cell_length_a                   7.5117(15)
_cell_length_b                   11.400(2)
_cell_length_c                   12.896(4)
_cell_angle_alpha                90
_cell_angle_beta                 109.04(3)
_cell_angle_gamma                90
_cell_volume                     1043.91
loop_
_atom_site_label
_atom_site_type_symbol
_atom_site_fract_x
_atom_site_fract_y
_atom_site_fract_z
Ni1 Ni 0.32031(7) -0.26730(4) 0.18242(4)
O1 O 0.7267(4) -0.0698(3) 0.1164(3)
H1 H 0.740(10) -0.063(6) 0.046(6)
O2 O 0.5375(4) -0.1450(3) 0.1996(2)
O3 O 0.7296(4) -0.0603(3) -0.0768(2)
O4 O 0.5464(4) -0.1211(2) -0.2426(2)
O5 O 0.1140(5) -0.1417(3) 0.1203(3)
H2 H 0.163(12) -0.087(8) 0.106(7)
H3 H 0.041(8) -0.120(5) 0.142(4)
N1 N 0.3422(5) -0.2756(3) 0.0217(3)
N2 N 0.3437(5) -0.2632(3) -0.1527(2)
N3 N -0.1352(5) -0.5920(3) -0.1621(3)
C1 C 0.5860(6) -0.1354(3) 0.1176(3)
C2 C 0.4806(5) -0.1986(3) 0.0175(3)
C3 C 0.4813(5) -0.1914(3) -0.0886(3)
C4 C 0.5922(6) -0.1201(3) -0.1406(3)
C5 C 0.2647(5) -0.3130(3) -0.0826(3)
C6 C 0.1198(5) -0.4054(3) -0.1148(3)
C7 C -0.0568(6) -0.3944(3) -0.1030(3)
H4 H -0.090(7) -0.323(4) -0.074(4)
C8 C -0.1783(6) -0.4892(4) -0.1272(3)
H5 H -0.297(6) -0.478(4) -0.122(3)
C9 C 0.0311(6) -0.6007(4) -0.1785(4)
H6 H 0.047(6) -0.676(4) -0.206(4)
C10 C 0.1607(6) -0.5112(4) -0.1567(3)
H7 H 0.285(7) -0.522(4) -0.161(4)
Ni1C Ni 0.32031(7) -0.23270(4) -0.31758(4)
Ni1B Ni -0.32031(7) -0.73270(4) -0.18242(4)
O4C O 0.5464(4) -0.3789(2) 0.2574(2)
N2C N 0.3437(5) -0.2368(3) 0.3473(2)
N3B N 0.1352(5) -0.4080(3) 0.1621(3)
loop_
_geom_bond_atom_site_label_1
_geom_bond_atom_site_label_2
_geom_bond_site_symmetry_1
_geom_bond_site_symmetry_2
Ni1 O2 1_555 1_555
O1 H1 1_555 1_555
O2 C1 1_555 1_555
O3 C4 1_555 1_555
O4 C4 1_555 1_555
O5 Ni1 1_555 1_555
H2 O5 1_555 1_555
H3 O5 1_555 1_555
N1 Ni1 1_555 1_555
N2 C3 1_555 1_555
N3 C8 1_555 1_555
C1 O1 1_555 1_555
C2 N1 1_555 1_555
C3 C2 1_555 1_555
C4 C3 1_555 1_555
C5 N1 1_555 1_555
C6 C5 1_555 1_555
C7 C6 1_555 1_555
H4 C7 1_555 1_555
C8 C7 1_555 1_555
H5 C8 1_555 1_555
C9 N3 1_555 1_555
H6 C9 1_555 1_555
C10 C6 1_555 1_555
H7 C10 1_555 1_555
Ni1C O4 1_555 1_555
Ni1B N3 1_555 1_555
O4C Ni1 1_555 1_555
N2C Ni1 1_555 1_555
N3B Ni1 1_555 1_555
N2 C5 1_555 1_555
N2 Ni1C 1_555 1_555
C1 C2 1_555 1_555
C9 C10 1_555 1_555

#END
