
#######################################################################
#
#                 Cambridge Crystallographic Data Centre
#                                CCDC 
#
#######################################################################
#
# If this CIF has been generated from an entry in the Cambridge 
# Structural Database, then it will include bibliographic, chemical, 
# crystal, experimental, refinement or atomic coordinate data resulting 
# from the CCDC's data processing and validation procedures.
#
#######################################################################

data_GARTUP
_symmetry_cell_setting           triclinic
_symmetry_space_group_name_H-M   'P -1'
_symmetry_Int_Tables_number      2
_space_group_name_Hall           '-P 1'
loop_
_symmetry_equiv_pos_site_id
_symmetry_equiv_pos_as_xyz
1 x,y,z
2 -x,-y,-z
_cell_length_a                   10.8149(8)
_cell_length_b                   13.8352(11)
_cell_length_c                   14.1575(11)
_cell_angle_alpha                103.553(2)
_cell_angle_beta                 95.110(2)
_cell_angle_gamma                110.780(2)
_cell_volume                     1890.51
loop_
_atom_site_label
_atom_site_type_symbol
_atom_site_fract_x
_atom_site_fract_y
_atom_site_fract_z
C1 C 0.6595(3) 0.0811(3) 0.9864(2)
C2 C 0.7023(4) -0.0064(3) 0.9639(3)
H1 H 0.7099 -0.0416 0.9015
C3 C 0.7310(4) -0.0304(3) 1.0527(3)
H2 H 0.7598 -0.0848 1.0588
C4 C 0.7089(4) 0.0413(3) 1.1298(3)
H3 H 0.7217 0.0435 1.1963
C5 C 0.6641(4) 0.1100(3) 1.0902(3)
H4 H 0.6414 0.1648 1.1258
C6 C 0.9699(4) 0.2540(4) 1.0217(4)
H5 H 0.9417 0.2866 0.9785
C7 C 1.0128(4) 0.1690(4) 0.9955(4)
H6 H 1.0181 0.1346 0.9320
C8 C 1.0465(4) 0.1451(4) 1.0830(4)
H7 H 1.0785 0.0919 1.0878
C9 C 1.0237(4) 0.2143(4) 1.1605(4)
H8 H 1.0377 0.2156 1.2266
C10 C 0.9765(4) 0.2816(4) 1.1233(4)
H9 H 0.9534 0.3356 1.1600
C11 C 0.6138(3) 0.1302(3) 0.9160(2)
C12 C 0.5829(3) 0.2197(3) 0.9467(2)
H10 H 0.5977 0.2528 1.0143
C13 C 0.5149(3) 0.2134(3) 0.7886(2)
H11 H 0.4792 0.2415 0.7445
C14 C 0.5926(3) 0.0881(3) 0.8150(2)
H12 H 0.6130 0.0283 0.7903
C15 C 0.7407(4) 0.5666(3) 1.0916(3)
C16 C 0.8819(4) 0.5999(3) 1.1437(3)
C17 C 0.9532(4) 0.5366(3) 1.1162(3)
H13 H 0.9121 0.4719 1.0662
C18 C 1.0845(4) 0.5678(4) 1.1617(3)
H14 H 1.1321 0.5248 1.1417
C19 C 1.1449(4) 0.6615(4) 1.2359(3)
H15 H 1.2334 0.6819 1.2670
C20 C 1.0756(4) 0.7263(4) 1.2651(3)
H16 H 1.1172 0.7904 1.3157
C21 C 0.9441(4) 0.6956(3) 1.2189(3)
H17 H 0.8971 0.7393 1.2384
C22 C 0.4283(4) 0.4236(3) 1.1411(3)
C23 C 0.4019(4) 0.3804(3) 1.2275(3)
C24 C 0.3920(4) 0.2783(3) 1.2227(3)
H18 H 0.3973 0.2343 1.1638
C25 C 0.3743(5) 0.2396(4) 1.3030(4)
H19 H 0.3667 0.1694 1.2981
C26 C 0.3679(6) 0.3024(5) 1.3888(4)
H20 H 0.3582 0.2769 1.4440
C27 C 0.3759(8) 0.4036(6) 1.3941(4)
H21 H 0.3703 0.4471 1.4532
C28 C 0.3923(7) 0.4431(5) 1.3131(4)
H22 H 0.3967 0.5124 1.3175
C29 C 0.7090(3) -0.0380(3) 0.5366(3)
C30 C 0.8309(4) -0.0616(3) 0.5610(3)
C31 C 0.9087(4) -0.0160(3) 0.6550(3)
H23 H 0.8856 0.0298 0.7029
C32 C 1.0211(5) -0.0382(4) 0.6780(4)
H24 H 1.0754 -0.0053 0.7405
C33 C 1.0519(5) -0.1086(5) 0.6086(4)
H25 H 1.1265 -0.1243 0.6245
C34 C 0.9739(5) -0.1562(4) 0.5158(4)
H26 H 0.9951 -0.2046 0.4692
C35 C 0.8631(4) -0.1323(4) 0.4913(3)
H27 H 0.8108 -0.1638 0.4280
C36 C 0.3647(4) -0.1761(3) 0.5341(3)
C37 C 0.2930(4) -0.2791(3) 0.5577(3)
C38 C 0.2878(5) -0.2803(4) 0.6535(4)
H28 H 0.3258 -0.2152 0.7033
C39 C 0.2288(6) -0.3737(5) 0.6791(5)
H29 H 0.2290 -0.3719 0.7452
C40 C 0.1698(6) -0.4692(5) 0.6063(5)
H30 H 0.1303 -0.5332 0.6226
C41 C 0.1690(7) -0.4706(5) 0.5109(5)
H31 H 0.1250 -0.5354 0.4614
C42 C 0.2336(5) -0.3757(4) 0.4853(4)
H32 H 0.2362 -0.3781 0.4193
Cu1 Cu 0.50393(4) 0.40934(3) 0.95081(3)
Cu2 Cu 0.51671(4) 0.05306(3) 0.59234(3)
Fe1 Fe 0.84939(5) 0.12543(4) 1.06083(4)
N1 N 0.5328(3) 0.2609(2) 0.8842(2)
N2 N 0.5443(3) 0.1286(2) 0.75074(19)
O1 O 0.4432(3) 0.3631(2) 1.06530(19)
O2 O 0.6883(2) 0.4754(2) 1.02846(19)
O3 O 0.4369(3) 0.5190(2) 1.14956(19)
O4 O 0.6826(3) 0.6310(2) 1.11316(19)
O5 O 0.6765(2) 0.0173(2) 0.60643(18)
O6 O 0.4080(3) -0.0908(2) 0.60439(18)
O7 O 0.6468(3) -0.0750(2) 0.44834(19)
O8 O 0.3787(3) -0.1817(2) 0.44601(18)
Cu1A Cu 0.49607(4) 0.59066(3) 1.04919(3)
Cu2A Cu 0.48329(4) -0.05306(3) 0.40766(3)
O3A O 0.5631(3) 0.4810(2) 0.85044(19)
O4A O 0.3174(3) 0.3690(2) 0.88684(19)
O7A O 0.3532(3) 0.0750(2) 0.55166(19)
O8A O 0.6213(3) 0.1817(2) 0.55399(18)
loop_
_geom_bond_atom_site_label_1
_geom_bond_atom_site_label_2
_geom_bond_site_symmetry_1
_geom_bond_site_symmetry_2
C1 C2 1_555 1_555
C2 H1 1_555 1_555
C3 C2 1_555 1_555
H2 C3 1_555 1_555
C4 C3 1_555 1_555
H3 C4 1_555 1_555
C5 C1 1_555 1_555
H4 C5 1_555 1_555
C6 H5 1_555 1_555
C7 C6 1_555 1_555
H6 C7 1_555 1_555
C8 C7 1_555 1_555
H7 C8 1_555 1_555
C9 C8 1_555 1_555
H8 C9 1_555 1_555
C10 C6 1_555 1_555
H9 C10 1_555 1_555
C11 C1 1_555 1_555
C12 C11 1_555 1_555
H10 C12 1_555 1_555
C13 H11 1_555 1_555
C14 C11 1_555 1_555
H12 C14 1_555 1_555
C15 C16 1_555 1_555
C16 C17 1_555 1_555
C17 H13 1_555 1_555
C18 C17 1_555 1_555
H14 C18 1_555 1_555
C19 C18 1_555 1_555
H15 C19 1_555 1_555
C20 C19 1_555 1_555
H16 C20 1_555 1_555
C21 C16 1_555 1_555
H17 C21 1_555 1_555
C22 C23 1_555 1_555
C23 C24 1_555 1_555
C24 H18 1_555 1_555
C25 C24 1_555 1_555
H19 C25 1_555 1_555
C26 C25 1_555 1_555
H20 C26 1_555 1_555
C27 C26 1_555 1_555
H21 C27 1_555 1_555
C28 C23 1_555 1_555
H22 C28 1_555 1_555
C29 C30 1_555 1_555
C30 C31 1_555 1_555
C31 H23 1_555 1_555
C32 C31 1_555 1_555
H24 C32 1_555 1_555
C33 C32 1_555 1_555
H25 C33 1_555 1_555
C34 C33 1_555 1_555
H26 C34 1_555 1_555
C35 C30 1_555 1_555
H27 C35 1_555 1_555
C36 C37 1_555 1_555
C37 C38 1_555 1_555
C38 H28 1_555 1_555
C39 C38 1_555 1_555
H29 C39 1_555 1_555
C40 C39 1_555 1_555
H30 C40 1_555 1_555
C41 C40 1_555 1_555
H31 C41 1_555 1_555
C42 C37 1_555 1_555
H32 C42 1_555 1_555
Cu1 N1 1_555 1_555
Cu2 N2 1_555 1_555
Fe1 C1 1_555 1_555
N1 C12 1_555 1_555
N2 C13 1_555 1_555
O1 C22 1_555 1_555
O2 C15 1_555 1_555
O3 C22 1_555 1_555
O4 C15 1_555 1_555
O5 C29 1_555 1_555
O6 C36 1_555 1_555
O7 C29 1_555 1_555
O8 C36 1_555 1_555
Cu1A O3 1_555 1_555
Cu2A O7 1_555 1_555
O3A Cu1 1_555 1_555
O4A Cu1 1_555 1_555
O7A Cu2 1_555 1_555
O8A Cu2 1_555 1_555
C2 Fe1 1_555 1_555
C3 Fe1 1_555 1_555
C4 C5 1_555 1_555
C4 Fe1 1_555 1_555
C5 Fe1 1_555 1_555
C6 Fe1 1_555 1_555
C7 Fe1 1_555 1_555
C8 Fe1 1_555 1_555
C9 C10 1_555 1_555
C9 Fe1 1_555 1_555
C10 Fe1 1_555 1_555
C13 N1 1_555 1_555
C14 N2 1_555 1_555
C20 C21 1_555 1_555
C27 C28 1_555 1_555
C34 C35 1_555 1_555
C41 C42 1_555 1_555
Cu1 O1 1_555 1_555
Cu1 O2 1_555 1_555
Cu2 O5 1_555 1_555
Cu2 O6 1_555 1_555
O4 Cu1A 1_555 1_555
O8 Cu2A 1_555 1_555

#END
