
#######################################################################
#
#                 Cambridge Crystallographic Data Centre
#                                CCDC 
#
#######################################################################
#
# If this CIF has been generated from an entry in the Cambridge 
# Structural Database, then it will include bibliographic, chemical, 
# crystal, experimental, refinement or atomic coordinate data resulting 
# from the CCDC's data processing and validation procedures.
#
#######################################################################

data_GASMUK
_symmetry_cell_setting           triclinic
_symmetry_space_group_name_H-M   'P -1'
_symmetry_Int_Tables_number      2
_space_group_name_Hall           '-P 1'
loop_
_symmetry_equiv_pos_site_id
_symmetry_equiv_pos_as_xyz
1 x,y,z
2 -x,-y,-z
_cell_length_a                   12.6394(5)
_cell_length_b                   15.0375(6)
_cell_length_c                   16.4799(7)
_cell_angle_alpha                64.6570(10)
_cell_angle_beta                 87.4280(10)
_cell_angle_gamma                89.0270(10)
_cell_volume                     2827.95
loop_
_atom_site_label
_atom_site_type_symbol
_atom_site_fract_x
_atom_site_fract_y
_atom_site_fract_z
C1 C 0.6053(8) 0.3975(8) 0.1425(7)
C2 C 0.5894(10) 0.5701(8) 0.1242(9)
H1 H 0.5327 0.6180 0.1101
H2 H 0.6466 0.5958 0.0791
H3 H 0.6154 0.5570 0.1827
C3 C 0.4447(9) 0.4671(9) 0.1072(8)
H4 H 0.3897 0.5135 0.0927
C4 C 0.4394(9) 0.3739(9) 0.1151(8)
H5 H 0.3792 0.3430 0.1073
C5 C 0.5672(8) 0.2301(8) 0.1569(8)
H6 H 0.6436 0.2249 0.1470
H7 H 0.5305 0.2094 0.1166
C6 C 0.5348(9) 0.1629(8) 0.2549(8)
H8 H 0.5641 0.1891 0.2943
H9 H 0.4574 0.1624 0.2626
C7 C 0.5737(9) 0.0586(8) 0.2821(8)
H10 H 0.6513 0.0593 0.2787
H11 H 0.5511 0.0188 0.3450
C8 C 0.4303(9) 0.0077(8) 0.2088(9)
H12 H 0.3720 0.0352 0.2273
C9 C 0.4291(9) -0.0427(8) 0.1588(8)
H13 H 0.3688 -0.0578 0.1356
C10 C 0.5635(10) -0.1261(10) 0.0973(10)
H14 H 0.5015 -0.1419 0.0732
H15 H 0.5972 -0.1865 0.1373
H16 H 0.6129 -0.0879 0.0484
C11 C 0.5961(8) -0.0353(8) 0.1882(8)
C12 C 0.9184(9) -0.0614(8) 0.2043(8)
C13 C 0.9525(11) -0.1513(12) 0.1087(11)
H17 H 1.0151 -0.1765 0.0894
H18 H 0.9182 -0.1034 0.0565
H19 H 0.9040 -0.2051 0.1424
C14 C 1.0851(11) -0.1009(11) 0.1898(11)
H20 H 1.1455 -0.1265 0.1720
C15 C 1.0830(10) -0.0549(10) 0.2425(11)
H21 H 1.1413 -0.0403 0.2682
C16 C 0.9388(10) 0.0213(9) 0.3040(10)
H22 H 0.9773 -0.0002 0.3596
H23 H 0.8630 0.0092 0.3199
C17 C 0.9614(12) 0.1448(17) 0.2373(14)
H24 H 1.0348 0.1575 0.2135
H25 H 0.9131 0.1713 0.1875
C18 C 0.9409(15) 0.1806(16) 0.2972(10)
H26 H 0.9831 0.1480 0.3505
H27 H 0.8655 0.1750 0.3155
C19 C 1.0790(10) 0.3179(11) 0.2361(13)
H28 H 1.1366 0.2747 0.2562
C20 C 1.0827(10) 0.4139(9) 0.1991(10)
H29 H 1.1434 0.4527 0.1906
C21 C 0.9514(9) 0.5524(8) 0.1291(9)
H30 H 1.0128 0.5942 0.1190
H31 H 0.8984 0.5668 0.1661
H32 H 0.9222 0.5646 0.0718
C22 C 0.9166(9) 0.3717(8) 0.1987(9)
N1 N 0.5499(7) 0.4801(7) 0.1254(6)
N2 N 0.5397(7) 0.3322(7) 0.1369(6)
N3 N 0.5363(6) 0.0110(6) 0.2277(6)
N4 N 0.5313(7) -0.0686(7) 0.1472(6)
N5 N 0.9833(7) -0.1045(8) 0.1658(7)
N6 N 0.9759(7) -0.0319(7) 0.2525(7)
N7 N 0.9761(8) 0.2928(8) 0.2396(10)
N8 N 0.9831(7) 0.4481(7) 0.1751(7)
Br1 Br 0.80728(13) 0.40862(17) 0.02112(12)
Br2 Br 0.71317(13) 0.34390(15) 0.32605(10)
Br3 Br 0.73298(12) -0.20358(11) 0.32277(12)
Br4 Br 0.77819(11) 0.10453(10) 0.06282(10)
Au1 Au 0.76104(3) 0.38108(3) 0.17199(3)
Au2 Au 0.75706(3) -0.04920(3) 0.19441(3)
C23 C 0.5000(10) 0.3660(8) 0.4945(8)
C24 C 0.3976(12) 0.4127(11) 0.3570(10)
C25 C 0.4670(10) 0.2462(8) 0.4560(9)
H33 H 0.4407 0.2124 0.4245
C26 C 0.5260(9) 0.2080(8) 0.5279(9)
H34 H 0.5501 0.1427 0.5561
C27 C 0.6020(12) 0.2711(11) 0.6343(9)
C28 C 0.7286(18) 0.2404(16) 0.6178(17)
C30 C 0.8025(16) 0.3243(13) 0.5420(12)
C31 C 0.952(2) 0.2219(15) 0.5062(15)
H35 H 0.9102 0.1678 0.5131
C32 C 1.053(3) 0.2318(16) 0.4840(17)
H36 H 1.0964 0.1850 0.4750
C33 C 1.1890(18) 0.3625(14) 0.4557(12)
C34 C 0.9984(15) 0.3663(12) 0.4978(10)
N9 N 0.4519(8) 0.3418(7) 0.4366(6)
N10 N 0.5451(8) 0.2836(6) 0.5533(7)
N11 N 0.9152(15) 0.3041(9) 0.5181(10)
N12 N 1.0868(15) 0.3235(10) 0.4759(10)
Br5 Br 0.64681(13) 0.55006(10) 0.39159(11)
Br6 Br 1.04233(15) 0.42489(13) 0.65587(11)
Au3 Au 0.5000 0.5000 0.5000
Au4 Au 1.0000 0.5000 0.5000
C23A C 0.5000(10) 0.6340(8) 0.5055(8)
C24A C 0.6024(12) 0.5873(11) 0.6430(10)
C25A C 0.5330(10) 0.7538(8) 0.5440(9)
H33A H 0.5593 0.7876 0.5755
C26A C 0.4740(9) 0.7920(8) 0.4721(9)
H34A H 0.4499 0.8573 0.4439
C27A C 0.3980(12) 0.7289(11) 0.3657(9)
C28A C 0.2714(18) 0.7596(16) 0.3822(17)
C30A C 0.1975(16) 0.6757(13) 0.4580(12)
C31A C 0.048(2) 0.7781(15) 0.4938(15)
H35A H 0.0898 0.8322 0.4869
C32A C -0.053(3) 0.7682(16) 0.5160(17)
H36A H -0.0964 0.8150 0.5250
C33A C -0.1890(18) 0.6375(14) 0.5443(12)
C34A C 0.0016(15) 0.6337(12) 0.5022(10)
C34A_2 C 1.0016(15) 0.6337(12) 0.5022(10)
N9A N 0.5481(8) 0.6582(7) 0.5634(6)
N10A N 0.4549(8) 0.7164(6) 0.4467(7)
N11A N 0.0848(15) 0.6959(9) 0.4819(10)
N12A N -0.0868(15) 0.6765(10) 0.5241(10)
Br5A Br 0.35319(13) 0.44994(10) 0.60841(11)
Br6A Br 0.95767(15) 0.57511(13) 0.34413(11)
Au4_2 Au 0.0000 0.5000 0.5000
F1 F 0.8240(6) 0.3058(7) 0.8585(6)
F2 F 0.6560(6) 0.2999(6) 0.9143(5)
F3 F 0.7006(7) 0.2245(6) 0.8247(6)
F4 F 0.5976(6) 0.3601(6) 0.7738(5)
F5 F 0.7628(7) 0.3698(6) 0.7176(6)
F6 F 0.7225(7) 0.4426(5) 0.8090(6)
P1 P 0.7114(2) 0.3330(2) 0.8172(2)
F7 F 0.7677(6) 0.7444(5) 0.0592(5)
F8 F 0.7752(6) 0.6852(6) -0.0459(6)
F9 F 0.6445(5) 0.7885(5) -0.0461(5)
F10 F 0.7739(6) 0.8403(6) -0.1554(5)
F11 F 0.7658(5) 0.8999(5) -0.0502(5)
F12 F 0.8988(5) 0.7970(6) -0.0508(5)
P2 P 0.7725(2) 0.7931(2) -0.0485(2)
F13 F 0.6169(6) -0.0257(7) 0.5553(8)
F14 F 0.7412(11) 0.0211(14) 0.6152(11)
F15 F 0.7367(10) 0.0810(8) 0.4700(10)
F16 F 0.8652(7) -0.0196(9) 0.5376(8)
F17 F 0.7385(9) -0.0719(9) 0.4809(8)
F18 F 0.7406(10) -0.1311(9) 0.6217(9)
P3 P 0.7410(3) -0.0228(3) 0.5472(3)
C29? C 1.2716(19) 0.3683(19) 0.3691(16)
loop_
_geom_bond_atom_site_label_1
_geom_bond_atom_site_label_2
_geom_bond_site_symmetry_1
_geom_bond_site_symmetry_2
C1 N1 1_555 1_555
C2 H1 1_555 1_555
H2 C2 1_555 1_555
H3 C2 1_555 1_555
C3 H4 1_555 1_555
C4 C3 1_555 1_555
H5 C4 1_555 1_555
C5 H6 1_555 1_555
H7 C5 1_555 1_555
C6 C5 1_555 1_555
H8 C6 1_555 1_555
H9 C6 1_555 1_555
C7 C6 1_555 1_555
H10 C7 1_555 1_555
H11 C7 1_555 1_555
C8 H12 1_555 1_555
C9 C8 1_555 1_555
H13 C9 1_555 1_555
C10 H14 1_555 1_555
H15 C10 1_555 1_555
H16 C10 1_555 1_555
C11 N3 1_555 1_555
C12 N5 1_555 1_555
C13 H17 1_555 1_555
H18 C13 1_555 1_555
H19 C13 1_555 1_555
C14 H20 1_555 1_555
C15 C14 1_555 1_555
H21 C15 1_555 1_555
C16 H22 1_555 1_555
H23 C16 1_555 1_555
C17 C16 1_555 1_555
H24 C17 1_555 1_555
H25 C17 1_555 1_555
C18 C17 1_555 1_555
H26 C18 1_555 1_555
H27 C18 1_555 1_555
C19 H28 1_555 1_555
C20 C19 1_555 1_555
H29 C20 1_555 1_555
C21 H30 1_555 1_555
H31 C21 1_555 1_555
H32 C21 1_555 1_555
C22 N7 1_555 1_555
C23 N9 1_555 1_555
C24 N9 1_555 1_555
C25 H33 1_555 1_555
C26 C25 1_555 1_555
H34 C26 1_555 1_555
C27 C28 1_555 1_555
C28 C30 1_555 1_555
C30 N11 1_555 1_555
C31 H35 1_555 1_555
C32 C31 1_555 1_555
H36 C32 1_555 1_555
C33 N12 1_555 1_555
C34 N11 1_555 1_555
N1 C2 1_555 1_555
N2 C1 1_555 1_555
N3 C7 1_555 1_555
N4 C9 1_555 1_555
N5 C13 1_555 1_555
N6 C12 1_555 1_555
N7 C18 1_555 1_555
N8 C20 1_555 1_555
N9 C25 1_555 1_555
N10 C23 1_555 1_555
N11 C31 1_555 1_555
N12 C32 1_555 1_555
F1 P1 1_555 1_555
F2 P1 1_555 1_555
F3 P1 1_555 1_555
F4 P1 1_555 1_555
F5 P1 1_555 1_555
F6 P1 1_555 1_555
F7 P2 1_555 1_555
F8 P2 1_555 1_555
F9 P2 1_555 1_555
F10 P2 1_555 1_555
F11 P2 1_555 1_555
F12 P2 1_555 1_555
F13 P3 1_555 1_555
F14 P3 1_555 1_555
F15 P3 1_555 1_555
F16 P3 1_555 1_555
F17 P3 1_555 1_555
F18 P3 1_555 1_555
Br1 Au1 1_555 1_555
Br2 Au1 1_555 1_555
Br3 Au2 1_555 1_555
Br4 Au2 1_555 1_555
Br5 Au3 1_555 1_555
Br6 Au4 1_555 1_555
Au1 C1 1_555 1_555
Au2 C11 1_555 1_555
Au3 C23 1_555 1_555
Au4 C34 1_555 1_555
C23A Au3 1_555 1_555
C24A N9A 1_555 1_555
C25A H33A 1_555 1_555
C26A C25A 1_555 1_555
H34A C26A 1_555 1_555
C27A C28A 1_555 1_555
C28A C30A 1_555 1_555
C30A N11A 1_555 1_555
C31A H35A 1_555 1_555
C32A C31A 1_555 1_555
H36A C32A 1_555 1_555
C33A N12A 1_555 1_555
C34A N11A 1_555 1_555
C34A_2 Au4 1_555 1_555
N9A C23A 1_555 1_555
N10A C23A 1_555 1_555
N11A C31A 1_555 1_555
N12A C32A 1_555 1_555
Br5A Au3 1_555 1_555
Br6A Au4 1_555 1_555
Au4_2 C34A 1_555 1_555
C3 N1 1_555 1_555
C4 N2 1_555 1_555
C5 N2 1_555 1_555
C8 N3 1_555 1_555
C10 N4 1_555 1_555
C11 N4 1_555 1_555
C12 Au2 1_555 1_555
C14 N5 1_555 1_555
C15 N6 1_555 1_555
C16 N6 1_555 1_555
C19 N7 1_555 1_555
C21 N8 1_555 1_555
C22 N8 1_555 1_555
C22 Au1 1_555 1_555
C26 N10 1_555 1_555
C27 N10 1_555 1_555
C34 N12 1_555 1_555
C25A N9A 1_555 1_555
C26A N10A 1_555 1_555
C27A N10A 1_555 1_555
C34A N12A 1_555 1_555

#END
