
#######################################################################
#
#                 Cambridge Crystallographic Data Centre
#                                CCDC 
#
#######################################################################
#
# If this CIF has been generated from an entry in the Cambridge 
# Structural Database, then it will include bibliographic, chemical, 
# crystal, experimental, refinement or atomic coordinate data resulting 
# from the CCDC's data processing and validation procedures.
#
#######################################################################

data_GASMOC
_symmetry_cell_setting           triclinic
_symmetry_space_group_name_H-M   'P -1'
_symmetry_Int_Tables_number      2
_space_group_name_Hall           '-P 1'
loop_
_symmetry_equiv_pos_site_id
_symmetry_equiv_pos_as_xyz
1 x,y,z
2 -x,-y,-z
_cell_length_a                   9.214(2)
_cell_length_b                   10.254(3)
_cell_length_c                   11.059(4)
_cell_angle_alpha                65.97(2)
_cell_angle_beta                 70.33(2)
_cell_angle_gamma                80.71(2)
_cell_volume                     898.256
loop_
_atom_site_label
_atom_site_type_symbol
_atom_site_fract_x
_atom_site_fract_y
_atom_site_fract_z
Y1 Y 0.2089(1) 0.2431(1) 0.2488(1)
Br1 Br 0.2247(1) 0.0419(1) -0.1476(1)
Br2 Br -0.1543(1) 0.2094(1) 0.7687(1)
Br3 Br 0.3564(1) -0.2965(1) 0.5374(1)
C1 C 0.3592(11) 0.0825(9) 0.0308(10)
C2 C 0.4904(10) 0.0690(9) 0.0917(9)
C3 C 0.3790(10) 0.0197(9) -0.0638(10)
C4 C 0.0206(9) 0.3595(8) 0.4914(9)
C5 C 0.0928(9) 0.4966(9) 0.3668(9)
C6 C -0.0670(10) 0.3735(8) 0.6159(9)
C7 C 0.3713(9) 0.0029(9) 0.4516(9)
C8 C 0.4386(10) 0.1425(9) 0.4285(10)
C9 C 0.4401(10) -0.1300(9) 0.5178(10)
O1 O 0.2431(6) 0.1506(6) 0.0732(6)
O2 O 0.4707(7) 0.1414(6) 0.1636(6)
O3 O 0.0446(6) 0.2507(6) 0.4665(6)
O4 O 0.1739(6) 0.4737(6) 0.2615(6)
O5 O 0.2573(6) 0.0206(6) 0.4104(6)
O6 O 0.3808(6) 0.2555(6) 0.3628(6)
O7 O 0.0029(6) 0.3652(6) 0.1607(6)
O8 O 0.3472(6) 0.4163(6) 0.0434(6)
O9 O -0.0034(6) 0.0800(6) 0.3316(6)
C3A C 0.6210(10) -0.0197(9) 0.0638(10)
C2A C 0.5096(10) -0.0690(9) -0.0917(9)
C6A C 0.0670(10) 0.6265(8) 0.3841(9)
C5A C -0.0928(9) 0.5034(9) 0.6332(9)
C9A C 0.5599(10) 0.1300(9) 0.4822(10)
C8A C 0.5614(10) -0.1425(9) 0.5715(10)
Br1A Br 0.7753(1) -0.0419(1) 0.1476(1)
C1A C 0.6408(11) -0.0825(9) -0.0308(10)
O2A O 0.5293(7) -0.1414(6) -0.1636(6)
Br2A Br 0.1543(1) 0.7906(1) 0.2313(1)
C4A C -0.0206(9) 0.6405(8) 0.5086(9)
O4A O -0.1739(6) 0.5263(6) 0.7385(6)
Br3A Br 0.6436(1) 0.2965(1) 0.4626(1)
C7A C 0.6287(9) -0.0029(9) 0.5484(9)
O6A O 0.6192(6) -0.2555(6) 0.6372(6)
O1A O 0.7569(6) -0.1506(6) -0.0732(6)
Y1A Y 0.7911(1) -0.2431(1) -0.2488(1)
O3A O -0.0446(6) 0.7493(6) 0.5335(6)
Y1A_2 Y -0.2089(1) 0.7569(1) 0.7512(1)
O5A O 0.7427(6) -0.0206(6) 0.5896(6)
Y1A_3 Y 0.7911(1) -0.2431(1) 0.7512(1)
O3A_2 O 0.9554(6) -0.2507(6) -0.4665(6)
O4A_2 O 0.8261(6) -0.4737(6) -0.2615(6)
O5A_2 O 0.7427(6) -0.0206(6) -0.4104(6)
O6A_2 O 0.6192(6) -0.2555(6) -0.3628(6)
O7A O 0.9971(6) -0.3652(6) -0.1607(6)
O8A O 0.6528(6) -0.4163(6) -0.0434(6)
O9A O 1.0034(6) -0.0800(6) -0.3316(6)
O10 O 0.2343(9) 0.6889(7) 0.9275(8)
O11 O 0.5028(9) 0.4194(8) 0.7835(8)
O12 O 0.1250(11) 0.3799(10) 0.8449(11)
loop_
_geom_bond_atom_site_label_1
_geom_bond_atom_site_label_2
_geom_bond_site_symmetry_1
_geom_bond_site_symmetry_2
Y1 O1 1_555 1_555
Br1 C3 1_555 1_555
Br2 C6 1_555 1_555
Br3 C9 1_555 1_555
C1 C2 1_555 1_555
C2 O2 1_555 1_555
C3 C1 1_555 1_555
C4 C5 1_555 1_555
C5 O4 1_555 1_555
C6 C4 1_555 1_555
C7 C8 1_555 1_555
C8 O6 1_555 1_555
C9 C7 1_555 1_555
O1 C1 1_555 1_555
O2 Y1 1_555 1_555
O3 Y1 1_555 1_555
O4 Y1 1_555 1_555
O5 Y1 1_555 1_555
O6 Y1 1_555 1_555
O7 Y1 1_555 1_555
O8 Y1 1_555 1_555
O9 Y1 1_555 1_555
C3A C2 1_555 1_555
C2A C3 1_555 1_555
C6A C5 1_555 1_555
C5A C6 1_555 1_555
C9A C8 1_555 1_555
C8A C9 1_555 1_555
Br1A C3A 1_555 1_555
C1A C3A 1_555 1_555
O2A C2A 1_555 1_555
Br2A C6A 1_555 1_555
C4A C6A 1_555 1_555
O4A C5A 1_555 1_555
Br3A C9A 1_555 1_555
C7A C9A 1_555 1_555
O6A C8A 1_555 1_555
O1A C1A 1_555 1_555
Y1A O2A 1_555 1_555
O3A C4A 1_555 1_555
Y1A_2 O4A 1_555 1_555
O5A C7A 1_555 1_555
Y1A_3 O6A 1_555 1_555
O3A_2 Y1A 1_555 1_555
O4A_2 Y1A 1_555 1_555
O5A_2 Y1A 1_555 1_555
O6A_2 Y1A 1_555 1_555
O7A Y1A 1_555 1_555
O8A Y1A 1_555 1_555
O9A Y1A 1_555 1_555
C4 O3 1_555 1_555
C7 O5 1_555 1_555
C2A C1A 1_555 1_555
C5A C4A 1_555 1_555
C8A C7A 1_555 1_555
O1A Y1A 1_555 1_555
O3A Y1A_2 1_555 1_555
O5A Y1A_3 1_555 1_555

#END
