
#######################################################################
#
#                 Cambridge Crystallographic Data Centre
#                                CCDC 
#
#######################################################################
#
# If this CIF has been generated from an entry in the Cambridge 
# Structural Database, then it will include bibliographic, chemical, 
# crystal, experimental, refinement or atomic coordinate data resulting 
# from the CCDC's data processing and validation procedures.
#
#######################################################################

data_GASMUI
_symmetry_cell_setting           triclinic
_symmetry_space_group_name_H-M   'P -1'
_symmetry_Int_Tables_number      2
_space_group_name_Hall           '-P 1'
loop_
_symmetry_equiv_pos_site_id
_symmetry_equiv_pos_as_xyz
1 x,y,z
2 -x,-y,-z
_cell_length_a                   9.217(1)
_cell_length_b                   10.167(2)
_cell_length_c                   10.933(2)
_cell_angle_alpha                65.11(2)
_cell_angle_beta                 70.14(1)
_cell_angle_gamma                81.47(1)
_cell_volume                     874.072
loop_
_atom_site_label
_atom_site_type_symbol
_atom_site_fract_x
_atom_site_fract_y
_atom_site_fract_z
Y1 Y 0.2108(1) 0.24767(5) 0.24503(5)
Cl1 Cl 0.2361(2) 0.0346(2) -0.1376(2)
Cl2 Cl -0.1585(2) 0.2151(1) 0.7587(1)
Cl3 Cl 0.3482(2) -0.2869(1) 0.5510(2)
C1 C 0.3617(5) 0.0835(5) 0.0292(5)
C2 C 0.4921(5) 0.0711(5) 0.0897(5)
C3 C 0.3796(5) 0.0183(5) -0.0631(5)
C4 C 0.0178(5) 0.3602(4) 0.4911(5)
C5 C 0.0971(5) 0.4977(5) 0.3673(4)
C6 C -0.0727(6) 0.3698(5) 0.6179(5)
C7 C 0.3713(5) 0.0021(5) 0.4550(5)
C8 C 0.4445(5) 0.1424(5) 0.4267(5)
C9 C 0.4314(6) -0.1315(5) 0.5236(5)
O1 O 0.2439(4) 0.1543(4) 0.0696(4)
O2 O 0.4741(4) 0.1460(4) 0.1588(4)
O3 O 0.0441(4) 0.2473(3) 0.4674(3)
O4 O 0.1800(4) 0.4814(3) 0.2572(3)
O5 O 0.2553(4) 0.0196(3) 0.4143(4)
O6 O 0.3852(4) 0.2589(3) 0.3606(3)
O7 O 0.0054(5) 0.3711(5) 0.1600(5)
O8 O 0.3510(5) 0.4257(5) 0.0323(5)
O9 O 0.0001(4) 0.0810(4) 0.3265(4)
H1 H -0.0059(66) 0.4344(63) 0.1504(61)
H2 H -0.062(10) 0.333(10) 0.1320(97)
H3 H 0.3960(69) 0.4130(65) -0.0306(63)
H4 H 0.3149(80) 0.5046(76) 0.0044(73)
H5 H -0.0734(72) 0.0792(68) 0.3925(65)
H6 H 0.0197(75) 0.0042(70) 0.3404(69)
C3A C 0.6204(5) -0.0183(5) 0.0631(5)
C2A C 0.5079(5) -0.0711(5) -0.0897(5)
C6A C 0.0727(6) 0.6302(5) 0.3821(5)
C5A C -0.0971(5) 0.5023(5) 0.6327(4)
C9A C 0.5686(6) 0.1315(5) 0.4764(5)
C8A C 0.5555(5) -0.1424(5) 0.5733(5)
Cl1A Cl 0.7639(2) -0.0346(2) 0.1376(2)
C1A C 0.6383(5) -0.0835(5) -0.0292(5)
O2A O 0.5259(4) -0.1460(4) -0.1588(4)
Cl2A Cl 0.1585(2) 0.7849(1) 0.2413(1)
C4A C -0.0178(5) 0.6398(4) 0.5089(5)
O4A O -0.1800(4) 0.5186(3) 0.7428(3)
Cl3A Cl 0.6518(2) 0.2869(1) 0.4490(2)
C7A C 0.6287(5) -0.0021(5) 0.5450(5)
O6A O 0.6148(4) -0.2589(3) 0.6394(3)
O1A O 0.7561(4) -0.1543(4) -0.0696(4)
Y1A Y 0.7892(1) -0.24767(5) -0.24503(5)
O3A O -0.0441(4) 0.7527(3) 0.5326(3)
Y1A_2 Y -0.2108(1) 0.75233(5) 0.75497(5)
O5A O 0.7447(4) -0.0196(3) 0.5857(4)
Y1A_3 Y 0.7892(1) -0.24767(5) 0.75497(5)
O3A_2 O 0.9559(4) -0.2473(3) -0.4674(3)
O4A_2 O 0.8200(4) -0.4814(3) -0.2572(3)
O5A_2 O 0.7447(4) -0.0196(3) -0.4143(4)
O6A_2 O 0.6148(4) -0.2589(3) -0.3606(3)
O7A O 0.9946(5) -0.3711(5) -0.1600(5)
O8A O 0.6490(5) -0.4257(5) -0.0323(5)
O9A O 0.9999(4) -0.0810(4) -0.3265(4)
H1A H 1.0059(66) -0.4344(63) -0.1504(61)
H2A H 1.062(10) -0.333(10) -0.1320(97)
H3A H 0.6040(69) -0.4130(65) 0.0306(63)
H4A H 0.6851(80) -0.5046(76) -0.0044(73)
H5A H 1.0734(72) -0.0792(68) -0.3925(65)
H6A H 0.9803(75) -0.0042(70) -0.3404(69)
O10 O 0.7769(7) 0.3067(5) 0.0706(6)
O11 O 0.5019(6) 0.4201(6) 0.7697(6)
O12 O 0.1033(9) 0.3611(8) 0.8558(8)
O13 O 0.6939(20) 0.6119(18) 0.3933(20)
loop_
_geom_bond_atom_site_label_1
_geom_bond_atom_site_label_2
_geom_bond_site_symmetry_1
_geom_bond_site_symmetry_2
Y1 O1 1_555 1_555
Cl1 C3 1_555 1_555
Cl2 C6 1_555 1_555
Cl3 C9 1_555 1_555
C1 C2 1_555 1_555
C2 O2 1_555 1_555
C3 C1 1_555 1_555
C4 C5 1_555 1_555
C5 O4 1_555 1_555
C6 C4 1_555 1_555
C7 C8 1_555 1_555
C8 O6 1_555 1_555
C9 C7 1_555 1_555
O1 C1 1_555 1_555
O2 Y1 1_555 1_555
O3 Y1 1_555 1_555
O4 Y1 1_555 1_555
O5 Y1 1_555 1_555
O6 Y1 1_555 1_555
O7 Y1 1_555 1_555
O8 Y1 1_555 1_555
O9 Y1 1_555 1_555
H1 O7 1_555 1_555
H2 O7 1_555 1_555
H3 O8 1_555 1_555
H4 O8 1_555 1_555
H5 O9 1_555 1_555
H6 O9 1_555 1_555
C3A C2 1_555 1_555
C2A C3 1_555 1_555
C6A C5 1_555 1_555
C5A C6 1_555 1_555
C9A C8 1_555 1_555
C8A C9 1_555 1_555
Cl1A C3A 1_555 1_555
C1A C3A 1_555 1_555
O2A C2A 1_555 1_555
Cl2A C6A 1_555 1_555
C4A C6A 1_555 1_555
O4A C5A 1_555 1_555
Cl3A C9A 1_555 1_555
C7A C9A 1_555 1_555
O6A C8A 1_555 1_555
O1A C1A 1_555 1_555
Y1A O2A 1_555 1_555
O3A C4A 1_555 1_555
Y1A_2 O4A 1_555 1_555
O5A C7A 1_555 1_555
Y1A_3 O6A 1_555 1_555
O3A_2 Y1A 1_555 1_555
O4A_2 Y1A 1_555 1_555
O5A_2 Y1A 1_555 1_555
O6A_2 Y1A 1_555 1_555
O7A Y1A 1_555 1_555
O8A Y1A 1_555 1_555
O9A Y1A 1_555 1_555
H1A O7A 1_555 1_555
H2A O7A 1_555 1_555
H3A O8A 1_555 1_555
H4A O8A 1_555 1_555
H5A O9A 1_555 1_555
H6A O9A 1_555 1_555
C4 O3 1_555 1_555
C7 O5 1_555 1_555
C2A C1A 1_555 1_555
C5A C4A 1_555 1_555
C8A C7A 1_555 1_555
O1A Y1A 1_555 1_555
O3A Y1A_2 1_555 1_555
O5A Y1A_3 1_555 1_555

#END
