
#######################################################################
#
#                 Cambridge Crystallographic Data Centre
#                                CCDC 
#
#######################################################################
#
# If this CIF has been generated from an entry in the Cambridge 
# Structural Database, then it will include bibliographic, chemical, 
# crystal, experimental, refinement or atomic coordinate data resulting 
# from the CCDC's data processing and validation procedures.
#
#######################################################################

data_GASQUM
_symmetry_cell_setting           monoclinic
_symmetry_space_group_name_H-M   'P 21/n'
_symmetry_Int_Tables_number      14
_space_group_name_Hall           '-P 2yn'
loop_
_symmetry_equiv_pos_site_id
_symmetry_equiv_pos_as_xyz
1 x,y,z
2 1/2-x,1/2+y,1/2-z
3 -x,-y,-z
4 1/2+x,1/2-y,1/2+z
_cell_length_a                   13.024(1)
_cell_length_b                   9.848(1)
_cell_length_c                   13.067(1)
_cell_angle_alpha                90
_cell_angle_beta                 110.184(6)
_cell_angle_gamma                90
_cell_volume                     1573.06
loop_
_atom_site_label
_atom_site_type_symbol
_atom_site_fract_x
_atom_site_fract_y
_atom_site_fract_z
Cu1 Cu 0.38903(2) -0.29899(3) 0.36873(2)
N1 N 0.6088(2) -0.4399(2) 0.2258(2)
N2 N 0.4984(1) -0.3523(2) 0.3012(2)
N3 N 0.5338(1) -0.2395(2) 0.4948(1)
N4 N 0.2888(1) -0.2722(2) 0.4538(1)
N5 N 0.2902(1) -0.4600(2) 0.3125(1)
N6 N 0.1748(1) -0.6283(2) 0.2323(1)
C1 C 0.5039(2) -0.4139(2) 0.2146(2)
C2 C 0.6732(2) -0.3920(3) 0.3235(2)
C3 C 0.6055(2) -0.3367(2) 0.3716(2)
C4 C 0.6190(2) -0.2733(2) 0.4749(2)
C5 C 0.5455(2) -0.1787(2) 0.6007(2)
C6 C 0.4796(2) -0.2540(3) 0.6577(2)
C7 C 0.3681(2) -0.1942(3) 0.6458(2)
C8 C 0.2958(2) -0.1603(2) 0.5303(2)
C9 C 0.2097(2) -0.3574(2) 0.4310(2)
C10 C 0.2062(2) -0.4619(2) 0.3541(2)
C11 C 0.1358(2) -0.5651(2) 0.3037(2)
C12 C 0.2674(2) -0.5611(2) 0.2411(2)
H1 H 0.4432 -0.4370 0.1526
H2 H 0.6329 -0.4845 0.1738
H3 H 0.7507 -0.3962 0.3533
H4 H 0.6896 -0.2575 0.5265
H5 H 0.6207 -0.1812 0.6449
H6 H 0.5216 -0.0872 0.5891
H7 H 0.5211 -0.2582 0.7331
H8 H 0.4671 -0.3444 0.6289
H9 H 0.3806 -0.1121 0.6870
H10 H 0.3303 -0.2566 0.6747
H11 H 0.3247 -0.0828 0.5062
H12 H 0.2243 -0.1407 0.5298
H13 H 0.1557 -0.3513 0.4643
H14 H 0.0707 -0.5886 0.3165
H15 H 0.3118 -0.5834 0.1995
Cu1A Cu 0.11097(2) -0.79899(3) 0.13127(2)
N6A N 0.3252(1) -0.1283(2) 0.2677(1)
O1 O 0.6614(2) -0.6119(3) 0.0817(2)
O2 O 0.5911(2) -0.7905(3) -0.0028(2)
O3 O 0.4975(2) -0.6636(3) 0.0642(2)
N7 N 0.5827(3) -0.6905(3) 0.0493(2)
O4 O 0.4053(5) -0.9366(7) 0.8747(6)
loop_
_geom_bond_atom_site_label_1
_geom_bond_atom_site_label_2
_geom_bond_site_symmetry_1
_geom_bond_site_symmetry_2
Cu1 N2 1_555 1_555
O1 N7 1_555 1_555
O2 N7 1_555 1_555
O3 N7 1_555 1_555
N1 C1 1_555 1_555
N2 C1 1_555 1_555
N3 Cu1 1_555 1_555
N4 Cu1 1_555 1_555
N5 Cu1 1_555 1_555
N6 C11 1_555 1_555
C1 H1 1_555 1_555
C2 N1 1_555 1_555
C3 N2 1_555 1_555
C4 N3 1_555 1_555
C5 N3 1_555 1_555
C6 C5 1_555 1_555
C7 C6 1_555 1_555
C8 N4 1_555 1_555
C9 N4 1_555 1_555
C10 N5 1_555 1_555
C11 C10 1_555 1_555
C12 N5 1_555 1_555
H2 N1 1_555 1_555
H3 C2 1_555 1_555
H4 C4 1_555 1_555
H5 C5 1_555 1_555
H6 C5 1_555 1_555
H7 C6 1_555 1_555
H8 C6 1_555 1_555
H9 C7 1_555 1_555
H10 C7 1_555 1_555
H11 C8 1_555 1_555
H12 C8 1_555 1_555
H13 C9 1_555 1_555
H14 C11 1_555 1_555
H15 C12 1_555 1_555
Cu1A N6 1_555 1_555
N6A Cu1 1_555 1_555
N6 C12 1_555 1_555
C2 C3 1_555 1_555
C3 C4 1_555 1_555
C7 C8 1_555 1_555
C9 C10 1_555 1_555

#END
