
#######################################################################
#
#                 Cambridge Crystallographic Data Centre
#                                CCDC 
#
#######################################################################
#
# If this CIF has been generated from an entry in the Cambridge 
# Structural Database, then it will include bibliographic, chemical, 
# crystal, experimental, refinement or atomic coordinate data resulting 
# from the CCDC's data processing and validation procedures.
#
#######################################################################

data_GASYAB
_symmetry_cell_setting           triclinic
_symmetry_space_group_name_H-M   'P -1'
_symmetry_Int_Tables_number      2
_space_group_name_Hall           '-P 1'
loop_
_symmetry_equiv_pos_site_id
_symmetry_equiv_pos_as_xyz
1 x,y,z
2 -x,-y,-z
_cell_length_a                   9.919(3)
_cell_length_b                   13.451(4)
_cell_length_c                   14.028(4)
_cell_angle_alpha                111.185(4)
_cell_angle_beta                 101.151(4)
_cell_angle_gamma                102.857(5)
_cell_volume                     1622.37
loop_
_atom_site_label
_atom_site_type_symbol
_atom_site_fract_x
_atom_site_fract_y
_atom_site_fract_z
Pt1 Pt 0.0000 0.5000 0.5000
K1 K 0.62048(15) 0.75669(11) 0.91901(10)
N1 N 0.3319(7) 0.6869(5) 0.7948(5)
N2 N 0.2697(10) 0.3447(7) 0.6171(8)
N3 N -0.2495(10) 0.1623(7) 0.4017(7)
O1 O 0.6439(4) 0.5427(3) 0.8237(3)
O2 O 0.6483(4) 0.6165(4) 1.0221(3)
O3 O 0.6577(5) 0.8367(4) 1.1336(4)
O4 O 0.7122(5) 0.9873(3) 1.0418(4)
O5 O 0.7241(5) 0.9169(4) 0.8469(4)
O6 O 0.6670(4) 0.6882(3) 0.7242(3)
S1 S 0.05367(19) 0.52809(16) 0.68170(14)
S2 S 0.0974(2) 0.35090(16) 0.44094(16)
S3 S -0.22947(18) 0.38866(16) 0.48901(14)
C1 C 0.7085(7) 0.4936(5) 0.8821(6)
C2 C 0.7669(8) 0.4096(6) 0.8392(7)
C3 C 0.8297(9) 0.3658(7) 0.9078(9)
C4 C 0.8288(10) 0.4034(8) 1.0110(9)
C5 C 0.7715(8) 0.4908(7) 1.0552(7)
C6 C 0.7101(7) 0.5319(5) 0.9877(6)
C7 C 0.6538(8) 0.6608(6) 1.1339(6)
C8 C 0.5763(9) 0.7471(6) 1.1540(6)
C9 C 0.5946(10) 0.9279(6) 1.1569(7)
C10 C 0.7091(11) 1.0235(6) 1.1500(6)
C11 C 0.8162(7) 1.0554(5) 1.0223(6)
C12 C 0.9133(8) 1.1596(5) 1.1022(6)
C13 C 1.0157(8) 1.2214(6) 1.0730(8)
C14 C 1.0233(8) 1.1852(6) 0.9691(8)
C15 C 0.9261(7) 1.0809(6) 0.8892(6)
C16 C 0.8245(7) 1.0191(5) 0.9180(6)
C17 C 0.7325(8) 0.8730(6) 0.7394(5)
C18 C 0.6213(8) 0.7580(6) 0.6760(5)
C19 C 0.5764(7) 0.5720(5) 0.6646(5)
C20 C 0.6448(7) 0.5050(5) 0.7140(5)
C21 C 0.2188(8) 0.6227(6) 0.7453(5)
C22 C 0.1942(9) 0.3509(7) 0.5485(8)
C23 C -0.2323(9) 0.2571(9) 0.4392(6)
K1A K -0.62048(15) 0.24331(11) 0.08099(10)
K1A_2 K 1.37952(15) 1.24331(11) 1.08099(10)
N1A N -0.3319(7) 0.3131(5) 0.2052(5)
N2A N -0.2697(10) 0.6553(7) 0.3829(8)
N3A N 0.2495(10) 0.8377(7) 0.5983(7)
O1A O 1.3561(4) 1.4573(3) 1.1763(3)
O1A_2 O -0.6439(4) 0.4573(3) 0.1763(3)
O2A O 1.3517(4) 1.3835(4) 0.9779(3)
O2A_2 O -0.6483(4) 0.3835(4) -0.0221(3)
O3A O 1.3423(5) 1.1633(4) 0.8664(4)
O3A_2 O -0.6577(5) 0.1633(4) -0.1336(4)
O4A O 1.2878(5) 1.0127(3) 0.9582(4)
O4A_2 O -0.7122(5) 0.0127(3) -0.0418(4)
O5A O 1.2759(5) 1.0831(4) 1.1531(4)
O5A_2 O -0.7241(5) 0.0831(4) 0.1531(4)
O6A O 1.3330(4) 1.3118(3) 1.2758(3)
O6A_2 O -0.6670(4) 0.3118(3) 0.2758(3)
S1A S -0.05367(19) 0.47191(16) 0.31830(14)
S2A S -0.0974(2) 0.64910(16) 0.55906(16)
S3A S 0.22947(18) 0.61134(16) 0.51099(14)
C1A C 1.2915(7) 1.5064(5) 1.1179(6)
C2A C 1.2331(8) 1.5904(6) 1.1608(7)
C3A C 1.1703(9) 1.6342(7) 1.0922(9)
C4A C 1.1712(10) 1.5966(8) 0.9890(9)
C5A C 1.2285(8) 1.5092(7) 0.9448(7)
C6A C 1.2899(7) 1.4681(5) 1.0123(6)
C7A C 1.3462(8) 1.3392(6) 0.8661(6)
C8A C 1.4237(9) 1.2529(6) 0.8460(6)
C8A_2 C -0.5763(9) 0.2529(6) -0.1540(6)
C9A C 1.4054(10) 1.0721(6) 0.8431(7)
C9A_2 C -0.5946(10) 0.0721(6) -0.1569(7)
C10A C 1.2909(11) 0.9765(6) 0.8500(6)
C11A C 1.1838(7) 0.9446(5) 0.9777(6)
C12A C 1.0867(8) 0.8404(5) 0.8978(6)
C13A C 0.9843(8) 0.7786(6) 0.9270(8)
C13_2 C -0.9843(8) 0.2214(6) 0.0730(8)
C14A C 0.9767(8) 0.8148(6) 1.0309(8)
C14_2 C -0.9767(8) 0.1852(6) -0.0309(8)
C15A C 1.0739(7) 0.9191(6) 1.1108(6)
C16A C 1.1755(7) 0.9809(5) 1.0820(6)
C17A C 1.2675(8) 1.1270(6) 1.2606(5)
C18A C 1.3787(8) 1.2420(6) 1.3240(5)
C18A_2 C -0.6213(8) 0.2420(6) 0.3240(5)
C19A C 1.4236(7) 1.4280(5) 1.3354(5)
C19A_2 C -0.5764(7) 0.4280(5) 0.3354(5)
C20A C 1.3552(7) 1.4950(5) 1.2860(5)
C21A C -0.2188(8) 0.3773(6) 0.2547(5)
C22A C -0.1942(9) 0.6491(7) 0.4515(8)
C23A C 0.2323(9) 0.7429(9) 0.5608(6)
Cl1 Cl 0.5434(4) 0.8438(2) 0.4476(2)
C24 C 0.479(3) 0.9559(12) 0.473(3)
Cl1A Cl 0.4566(4) 1.1562(2) 0.5524(2)
C24A C 0.521(3) 1.0441(12) 0.527(3)
O7 O 0.9610(7) 0.1070(6) 0.6458(4)
loop_
_geom_bond_atom_site_label_1
_geom_bond_atom_site_label_2
_geom_bond_site_symmetry_1
_geom_bond_site_symmetry_2
Pt1 S1 1_555 1_555
K1 N1 1_555 1_555
Cl1 C24 1_555 1_555
N1 C21 1_555 1_555
N2 C22 1_555 1_555
N3 C23 1_555 1_555
O1 K1 1_555 1_555
O2 K1 1_555 1_555
O3 K1 1_555 1_555
O4 K1 1_555 1_555
O5 K1 1_555 1_555
O6 K1 1_555 1_555
S1 C21 1_555 1_555
S2 Pt1 1_555 1_555
S3 Pt1 1_555 1_555
C1 O1 1_555 1_555
C2 C1 1_555 1_555
C3 C2 1_555 1_555
C4 C3 1_555 1_555
C5 C4 1_555 1_555
C6 O2 1_555 1_555
C7 O2 1_555 1_555
C8 O3 1_555 1_555
C9 O3 1_555 1_555
C10 O4 1_555 1_555
C11 O4 1_555 1_555
C12 C11 1_555 1_555
C13 C12 1_555 1_555
C14 C13 1_555 1_555
C15 C14 1_555 1_555
C16 O5 1_555 1_555
C17 O5 1_555 1_555
C18 O6 1_555 1_555
C19 O6 1_555 1_555
C20 O1 1_555 1_555
C22 S2 1_555 1_555
C23 S3 1_555 1_555
C24 C24A 1_555 1_555
K1A N1A 1_555 1_555
K1A_2 C13 1_555 1_555
Cl1A C24A 1_555 1_555
N1A C21A 1_555 1_555
N2A C22A 1_555 1_555
N3A C23A 1_555 1_555
O1A K1A_2 1_555 1_555
O1A_2 K1A 1_555 1_555
O2A K1A_2 1_555 1_555
O2A_2 K1A 1_555 1_555
O3A K1A_2 1_555 1_555
O3A_2 K1A 1_555 1_555
O4A K1A_2 1_555 1_555
O4A_2 K1A 1_555 1_555
O5A K1A_2 1_555 1_555
O5A_2 K1A 1_555 1_555
O6A K1A_2 1_555 1_555
O6A_2 K1A 1_555 1_555
S1A Pt1 1_555 1_555
S2A Pt1 1_555 1_555
S3A Pt1 1_555 1_555
C1A O1A 1_555 1_555
C2A C1A 1_555 1_555
C3A C2A 1_555 1_555
C4A C3A 1_555 1_555
C5A C4A 1_555 1_555
C6A O2A 1_555 1_555
C7A O2A 1_555 1_555
C8A O3A 1_555 1_555
C8A_2 O3A_2 1_555 1_555
C9A O3A 1_555 1_555
C9A_2 O3A_2 1_555 1_555
C10A O4A 1_555 1_555
C11A O4A 1_555 1_555
C12A C11A 1_555 1_555
C13A K1 1_555 1_555
C13_2 K1A 1_555 1_555
C14A K1 1_555 1_555
C14_2 K1A 1_555 1_555
C15A C14A 1_555 1_555
C16A O5A 1_555 1_555
C17A O5A 1_555 1_555
C18A O6A 1_555 1_555
C18A_2 O6A_2 1_555 1_555
C19A O6A 1_555 1_555
C19A_2 O6A_2 1_555 1_555
C20A O1A 1_555 1_555
C21A S1A 1_555 1_555
C22A S2A 1_555 1_555
C23A S3A 1_555 1_555
C1 C6 1_555 1_555
C5 C6 1_555 1_555
C7 C8 1_555 1_555
C9 C10 1_555 1_555
C11 C16 1_555 1_555
C14 K1A_2 1_555 1_555
C15 C16 1_555 1_555
C17 C18 1_555 1_555
C19 C20 1_555 1_555
C1A C6A 1_555 1_555
C5A C6A 1_555 1_555
C7A C8A 1_555 1_555
C9A C10A 1_555 1_555
C11A C16A 1_555 1_555
C12A C13A 1_555 1_555
C13A C14A 1_555 1_555
C13_2 C14_2 1_555 1_555
C15A C16A 1_555 1_555
C17A C18A 1_555 1_555
C19A C20A 1_555 1_555

#END
