
#######################################################################
#
#                 Cambridge Crystallographic Data Centre
#                                CCDC 
#
#######################################################################
#
# If this CIF has been generated from an entry in the Cambridge 
# Structural Database, then it will include bibliographic, chemical, 
# crystal, experimental, refinement or atomic coordinate data resulting 
# from the CCDC's data processing and validation procedures.
#
#######################################################################

data_GATBUZ
_symmetry_cell_setting           monoclinic
_symmetry_space_group_name_H-M   'C 2/c'
_symmetry_Int_Tables_number      15
_space_group_name_Hall           '-C 2yn'
loop_
_symmetry_equiv_pos_site_id
_symmetry_equiv_pos_as_xyz
1 x,y,z
2 1/2+x,1/2+y,z
3 -x,y,1/2-z
4 1/2-x,1/2+y,1/2-z
5 -x,-y,-z
6 1/2-x,1/2-y,-z
7 x,-y,1/2+z
8 1/2+x,1/2-y,1/2+z
_cell_length_a                   33.6075(14)
_cell_length_b                   9.8727(4)
_cell_length_c                   18.1642(8)
_cell_angle_alpha                90
_cell_angle_beta                 92.226(1)
_cell_angle_gamma                90
_cell_volume                     6022.27
loop_
_atom_site_label
_atom_site_type_symbol
_atom_site_fract_x
_atom_site_fract_y
_atom_site_fract_z
Zn1 Zn 0.7500 0.2500 0.0000
Zn2 Zn 0.846927(10) 0.19730(4) 0.003436(18)
O1 O 0.78526(7) 0.3748(2) 0.06477(12)
O2 O 0.84512(7) 0.2929(3) 0.09847(13)
O3 O 0.77241(7) 0.6825(2) 0.40509(12)
O4 O 0.83904(7) 0.6777(3) 0.41874(13)
O5 O 0.79769(6) 0.0846(2) 0.00909(12)
O6 O 0.81803(9) -0.0200(3) -0.09053(16)
O7 O 0.90036(8) 0.1465(3) -0.02000(15)
O8 O 0.89959(9) 0.0060(4) 0.0742(2)
C1 C 0.81396(9) 0.3607(3) 0.10988(17)
C2 C 0.81209(9) 0.4320(3) 0.18242(17)
C3 C 0.84422(11) 0.4308(4) 0.23267(19)
H3 H 0.8674 0.3801 0.2222
C4 C 0.77757(11) 0.5018(5) 0.1996(2)
H4 H 0.7552 0.5018 0.1659
C5 C 0.80624(9) 0.6503(3) 0.38563(16)
C6 C 0.80853(10) 0.5734(3) 0.31523(17)
C7 C 0.77590(11) 0.5711(4) 0.2655(2)
H5 H 0.7522 0.6176 0.2771
C8 C 0.84290(11) 0.5030(4) 0.29818(19)
H6 H 0.8654 0.5044 0.3314
C9 C 0.79759(10) -0.0158(3) -0.03530(19)
C10 C 0.77231(10) -0.1359(4) -0.01720(19)
C11 C 0.77017(13) -0.2471(4) -0.0652(2)
H7 H 0.7841 -0.2450 -0.1097
C12 C 0.75213(11) -0.1404(4) 0.04816(19)
H8 H 0.7537 -0.0658 0.0812
C13 C 0.91653(10) 0.0606(4) 0.0238(2)
C14 C 0.95973(10) 0.0283(4) 0.0115(2)
C15 C 0.98096(11) 0.1015(4) -0.0396(2)
H9 H 0.9681 0.1722 -0.0669
C16 C 0.97926(12) -0.0720(4) 0.0510(2)
H10 H 0.9654 -0.1220 0.0865
Zn1F Zn 0.7500 0.7500 0.5000
Zn1_2 Zn 0.7500 -0.7500 0.0000
Zn1F_2 Zn 0.7500 -0.2500 -0.5000
Zn2E Zn 0.653073(10) 0.30270(4) -0.003436(18)
Zn2F Zn 0.846927(10) 0.80270(4) 0.503436(18)
Zn2E_2 Zn 0.653073(10) -0.69730(4) -0.003436(18)
Zn2D Zn 1.153073(10) -0.19730(4) -0.003436(18)
Zn2C Zn 0.653073(10) -0.30270(4) -0.503436(18)
O1E O 0.71474(7) 0.1252(2) -0.06477(12)
O2E O 0.65488(7) 0.2071(3) -0.09847(13)
O3E O 0.72759(7) -0.1825(2) -0.40509(12)
O3F O 0.77241(7) 0.3175(2) -0.09491(12)
O3C O 0.72759(7) 0.1825(2) 0.09491(12)
O4E O 0.66096(7) -0.1777(3) -0.41874(13)
O4F O 0.83904(7) 0.3223(3) -0.08126(13)
O4C O 0.66096(7) 0.1777(3) 0.08126(13)
O5E O 0.70231(6) -0.5846(2) -0.00909(12)
O5E_2 O 0.70231(6) 0.4154(2) -0.00909(12)
O6E O 0.68197(9) -0.4800(3) 0.09053(16)
O7D O 1.09964(8) -0.1465(3) 0.02000(15)
O7E O 0.59964(8) 0.3535(3) 0.02000(15)
O8D O 1.10041(9) -0.0060(4) -0.0742(2)
C1E C 0.68604(9) 0.1393(3) -0.10988(17)
C2E C 0.68791(9) 0.0680(3) -0.18242(17)
C3E C 0.65578(11) 0.0692(4) -0.23267(19)
H3E H 0.6326 0.1199 -0.2222
C4E C 0.72243(11) -0.0018(5) -0.1996(2)
H4E H 0.7448 -0.0018 -0.1659
C5E C 0.69376(9) -0.1503(3) -0.38563(16)
C6E C 0.69147(10) -0.0734(3) -0.31523(17)
C7E C 0.72410(11) -0.0711(4) -0.2655(2)
H5E H 0.7478 -0.1176 -0.2771
C8E C 0.65710(11) -0.0030(4) -0.29818(19)
H6E H 0.6346 -0.0044 -0.3314
C9E C 0.70241(10) -0.4842(3) 0.03530(19)
C10E C 0.72769(10) -0.3641(4) 0.01720(19)
C11E C 0.72983(13) -0.2529(4) 0.0652(2)
H7E H 0.7159 -0.2550 0.1097
C12E C 0.74787(11) -0.3596(4) -0.04816(19)
H8E H 0.7463 -0.4342 -0.0812
C13D C 1.08347(10) -0.0606(4) -0.0238(2)
C14D C 1.04027(10) -0.0283(4) -0.0115(2)
C15D C 1.01904(11) -0.1015(4) 0.0396(2)
H9D H 1.0319 -0.1722 0.0669
C16D C 1.02074(12) 0.0720(4) -0.0510(2)
H10D H 1.0346 0.1220 -0.0865
O9 O 0.91275(14) -0.1949(4) -0.1278(3)
N1 N 0.90375(14) -0.3403(5) -0.0362(3)
C17 C 0.89264(19) -0.2431(6) -0.0798(4)
H11 H 0.8668 -0.2063 -0.0742
C18 C 0.94367(19) -0.3940(7) -0.0361(4)
H12 H 0.9550 -0.3962 0.0150
H13 H 0.9606 -0.3341 -0.0654
C19 C 0.9438(3) -0.5311(8) -0.0672(6)
H14 H 0.9712 -0.5652 -0.0673
H15 H 0.9326 -0.5288 -0.1179
H16 H 0.9277 -0.5910 -0.0374
C20 C 0.8761(2) -0.3889(7) 0.0208(4)
H17 H 0.8770 -0.4891 0.0228
H18 H 0.8486 -0.3619 0.0062
C21 C 0.8865(4) -0.3332(9) 0.0960(5)
H19 H 0.8673 -0.3665 0.1310
H20 H 0.8856 -0.2341 0.0944
H21 H 0.9133 -0.3628 0.1117
N2 N 0.87669(13) 0.0304(5) -0.1931(2)
H1 H 0.8579 0.0597 -0.1613
H2 H 0.8914 -0.0363 -0.1694
C22 C 0.90330(18) 0.1444(7) -0.2083(3)
H22 H 0.9105 0.1920 -0.1617
H23 H 0.8893 0.2095 -0.2418
C23 C 0.9406(2) 0.0948(9) -0.2433(4)
H24 H 0.9578 0.1721 -0.2534
H25 H 0.9334 0.0481 -0.2895
H26 H 0.9547 0.0320 -0.2097
C24 C 0.8559(2) -0.0298(7) -0.2582(3)
H27 H 0.8759 -0.0538 -0.2947
H28 H 0.8427 -0.1145 -0.2432
C25 C 0.8264(2) 0.0591(10) -0.2929(4)
H29 H 0.8137 0.0134 -0.3356
H30 H 0.8393 0.1424 -0.3090
H31 H 0.8061 0.0815 -0.2575
O10? O 0.9907(7) -0.6230(17) -0.2960(16)
N3? N 1.0000 -0.4095(10) -0.2500
C26? C 0.9642(3) -0.3458(15) -0.2702(6)
H32? H 0.9609 -0.2674 -0.2369
H33? H 0.9423 -0.4099 -0.2608
C27? C 0.9588(4) -0.2980(14) -0.3447(7)
H34? H 0.9326 -0.2548 -0.3511
H35? H 0.9604 -0.3745 -0.3788
H36? H 0.9796 -0.2320 -0.3550
C28? C 1.0118(5) -0.542(3) -0.2642(16)
H37? H 1.0361(12) -0.561(3) -0.245(5)
loop_
_geom_bond_atom_site_label_1
_geom_bond_atom_site_label_2
_geom_bond_site_symmetry_1
_geom_bond_site_symmetry_2
Zn1 O1 1_555 1_555
Zn2 O2 1_555 1_555
O1 C1 1_555 1_555
O2 C1 1_555 1_555
O3 C5 1_555 1_555
O4 C5 1_555 1_555
O5 Zn1 1_555 1_555
O6 C9 1_555 1_555
O7 Zn2 1_555 1_555
O8 C13 1_555 1_555
O9 C17 1_555 1_555
N1 C17 1_555 1_555
N2 H1 1_555 1_555
H2 N2 1_555 1_555
C1 C2 1_555 1_555
C2 C3 1_555 1_555
C3 H3 1_555 1_555
C4 C2 1_555 1_555
H4 C4 1_555 1_555
C5 C6 1_555 1_555
C6 C7 1_555 1_555
C7 C4 1_555 1_555
H5 C7 1_555 1_555
C8 C3 1_555 1_555
H6 C8 1_555 1_555
C9 O5 1_555 1_555
C10 C9 1_555 1_555
C11 C10 1_555 1_555
H7 C11 1_555 1_555
C12 C10 1_555 1_555
H8 C12 1_555 1_555
C13 O7 1_555 1_555
C14 C13 1_555 1_555
C15 C14 1_555 1_555
H9 C15 1_555 1_555
C16 C14 1_555 1_555
H10 C16 1_555 1_555
C17 H11 1_555 1_555
C18 N1 1_555 1_555
H12 C18 1_555 1_555
H13 C18 1_555 1_555
C19 C18 1_555 1_555
H14 C19 1_555 1_555
H15 C19 1_555 1_555
H16 C19 1_555 1_555
C20 N1 1_555 1_555
H17 C20 1_555 1_555
H18 C20 1_555 1_555
C21 C20 1_555 1_555
H19 C21 1_555 1_555
H20 C21 1_555 1_555
H21 C21 1_555 1_555
C22 N2 1_555 1_555
H22 C22 1_555 1_555
H23 C22 1_555 1_555
C23 C22 1_555 1_555
H24 C23 1_555 1_555
H25 C23 1_555 1_555
H26 C23 1_555 1_555
C24 N2 1_555 1_555
H27 C24 1_555 1_555
H28 C24 1_555 1_555
C25 C24 1_555 1_555
H29 C25 1_555 1_555
H30 C25 1_555 1_555
H31 C25 1_555 1_555
Zn1F O3 1_555 1_555
Zn1_2 O5E 1_555 1_555
Zn1F_2 O3E 1_555 1_555
Zn2E O2E 1_555 1_555
Zn2F O4 1_555 1_555
Zn2E_2 O5E 1_555 1_555
Zn2D O7D 1_555 1_555
Zn2C O4E 1_555 1_555
O1E Zn1 1_555 1_555
O2E C1E 1_555 1_555
O3E C5E 1_555 1_555
O3F Zn1 1_555 1_555
O3C Zn1 1_555 1_555
O4E C5E 1_555 1_555
O4F Zn2 1_555 1_555
O4C Zn2E 1_555 1_555
O5E C9E 1_555 1_555
O5E_2 Zn1 1_555 1_555
O6E C9E 1_555 1_555
O7D C13D 1_555 1_555
O7E Zn2E 1_555 1_555
O8D C13D 1_555 1_555
C1E O1E 1_555 1_555
C2E C1E 1_555 1_555
C3E C2E 1_555 1_555
H3E C3E 1_555 1_555
C4E C2E 1_555 1_555
H4E C4E 1_555 1_555
C5E C6E 1_555 1_555
C6E C7E 1_555 1_555
C7E C4E 1_555 1_555
H5E C7E 1_555 1_555
C8E C3E 1_555 1_555
H6E C8E 1_555 1_555
C9E C10E 1_555 1_555
C10E C11E 1_555 1_555
C11E C12 1_555 1_555
H7E C11E 1_555 1_555
C12E C11 1_555 1_555
H8E C12E 1_555 1_555
C13D C14D 1_555 1_555
C14D C15D 1_555 1_555
C15D C16 1_555 1_555
H9D C15D 1_555 1_555
C16D C15 1_555 1_555
H10D C16D 1_555 1_555
Zn2 O5 1_555 1_555
C6 C8 1_555 1_555
Zn2E O5E_2 1_555 1_555
C6E C8E 1_555 1_555
C10E C12E 1_555 1_555
C14D C16D 1_555 1_555

#END
