
#######################################################################
#
#                 Cambridge Crystallographic Data Centre
#                                CCDC 
#
#######################################################################
#
# If this CIF has been generated from an entry in the Cambridge 
# Structural Database, then it will include bibliographic, chemical, 
# crystal, experimental, refinement or atomic coordinate data resulting 
# from the CCDC's data processing and validation procedures.
#
#######################################################################

data_GATFIS
_symmetry_cell_setting           triclinic
_symmetry_space_group_name_H-M   'P -1'
_symmetry_Int_Tables_number      2
_space_group_name_Hall           '-P 1'
loop_
_symmetry_equiv_pos_site_id
_symmetry_equiv_pos_as_xyz
1 x,y,z
2 -x,-y,-z
_cell_length_a                   8.5926(7)
_cell_length_b                   9.2683(7)
_cell_length_c                   9.2161(7)
_cell_angle_alpha                77.105(6)
_cell_angle_beta                 82.720(6)
_cell_angle_gamma                80.648(6)
_cell_volume                     702.811
loop_
_atom_site_label
_atom_site_type_symbol
_atom_site_fract_x
_atom_site_fract_y
_atom_site_fract_z
C1 C 0.5418(2) 0.8680(2) 0.3562(2)
H1 H 0.4504 0.8278 0.3522
C2 C 0.5792(2) 0.9913(2) 0.2494(2)
H2 H 0.5134 1.0327 0.1736
C3 C 0.7149(2) 1.05405(19) 0.2544(2)
C4 C 0.8147(2) 0.9897(2) 0.3653(2)
H3 H 0.9059 1.0303 0.3689
C5 C 0.7788(2) 0.8652(2) 0.4706(2)
H4 H 0.8477 0.8213 0.5433
C6 C 0.6397(2) 0.8038(2) 0.4696(2)
C7 C 0.6096(2) 0.6780(2) 0.5912(2)
H5 H 0.6962 0.6357 0.6449
C8 C 0.4783(2) 0.6118(2) 0.6398(2)
C9 C 0.3295(2) 0.6552(2) 0.5756(2)
C10 C 0.4743(2) 0.49031(19) 0.7720(2)
C11 C -0.0035(3) 0.3343(4) 0.7790(4)
H6 H -0.0413 0.2395 0.8145
H7 H -0.0261 0.3726 0.6770
H8 H 0.1088 0.3218 0.7848
C12 C -0.1699(3) 0.9467(3) 0.8727(4)
H9 H -0.1843 0.9455 0.9779
H10 H -0.2619 1.0016 0.8267
H11 H -0.0786 0.9938 0.8287
N1 N 0.33910(18) 0.44889(18) 0.84715(18)
N2 N 0.38542(18) 0.33985(18) 0.96098(19)
N3 N 0.54082(19) 0.31686(18) 0.95491(19)
N4 N 0.60089(17) 0.41126(17) 0.83606(18)
N5 N 0.2054(2) 0.6839(3) 0.5366(3)
O1 O 0.75394(17) 1.17682(15) 0.15274(16)
H12 H 0.680(4) 1.210(4) 0.094(4)
O2 O -0.08065(18) 0.43658(17) 0.86897(18)
H13 H -0.168(4) 0.448(4) 0.854(4)
O3 O -0.14766(19) 0.79913(18) 0.85020(19)
H14 H -0.221(5) 0.775(5) 0.892(5)
Na1 Na 0.08179(9) 0.62892(9) 0.85516(9)
O1A O 0.24606(17) 0.82318(15) 0.84726(16)
H12A H 0.320(4) 0.790(4) 0.906(4)
O2A O 0.08065(18) 0.56342(17) 1.13103(18)
H13A H 0.168(4) 0.552(4) 1.146(4)
Na1A Na 0.91821(9) 1.37108(9) 0.14484(9)
Na1A_2 Na -0.08179(9) 0.37108(9) 1.14484(9)
loop_
_geom_bond_atom_site_label_1
_geom_bond_atom_site_label_2
_geom_bond_site_symmetry_1
_geom_bond_site_symmetry_2
C1 H1 1_555 1_555
C2 C1 1_555 1_555
H2 C2 1_555 1_555
C3 C2 1_555 1_555
C4 C3 1_555 1_555
H3 C4 1_555 1_555
C5 C4 1_555 1_555
H4 C5 1_555 1_555
C6 C1 1_555 1_555
C7 C6 1_555 1_555
H5 C7 1_555 1_555
C8 C7 1_555 1_555
C9 C8 1_555 1_555
C10 C8 1_555 1_555
C11 H6 1_555 1_555
H7 C11 1_555 1_555
H8 C11 1_555 1_555
C12 H9 1_555 1_555
H10 C12 1_555 1_555
H11 C12 1_555 1_555
N1 C10 1_555 1_555
N2 N1 1_555 1_555
N3 N2 1_555 1_555
N4 C10 1_555 1_555
N5 C9 1_555 1_555
O1 C3 1_555 1_555
H12 O1 1_555 1_555
O2 C11 1_555 1_555
H13 O2 1_555 1_555
O3 C12 1_555 1_555
H14 O3 1_555 1_555
Na1 N1 1_555 1_555
O1A Na1 1_555 1_555
H12A O1A 1_555 1_555
O2A Na1 1_555 1_555
H13A O2A 1_555 1_555
Na1A O1 1_555 1_555
Na1A_2 O2 1_555 1_555
C5 C6 1_555 1_555
N3 N4 1_555 1_555
O2 Na1 1_555 1_555
O3 Na1 1_555 1_555
O2A Na1A_2 1_555 1_555

#END
