
#######################################################################
#
#                 Cambridge Crystallographic Data Centre
#                                CCDC 
#
#######################################################################
#
# If this CIF has been generated from an entry in the Cambridge 
# Structural Database, then it will include bibliographic, chemical, 
# crystal, experimental, refinement or atomic coordinate data resulting 
# from the CCDC's data processing and validation procedures.
#
#######################################################################

data_GATJIV
_symmetry_cell_setting           trigonal
_symmetry_space_group_name_H-M   'P 3 2 1'
_symmetry_Int_Tables_number      150
_space_group_name_Hall           'P 3 2"'
loop_
_symmetry_equiv_pos_site_id
_symmetry_equiv_pos_as_xyz
1 x,y,z
2 -y,x-y,z
3 -x+y,-x,z
4 y,x,-z
5 x-y,-y,-z
6 -x,-x+y,-z
_cell_length_a                   26.209(2)
_cell_length_b                   26.209(2)
_cell_length_c                   12.7517(16)
_cell_angle_alpha                90
_cell_angle_beta                 90
_cell_angle_gamma                120
_cell_volume                     7585.77
loop_
_atom_site_label
_atom_site_type_symbol
_atom_site_fract_x
_atom_site_fract_y
_atom_site_fract_z
Cd1 Cd 0.69886(3) 0.0000 -1.0000
Cl1 Cl 0.67782(11) 0.05481(10) -0.35283(17)
Cl2 Cl 0.2870(2) -0.02753(18) -0.1786(5)
O1 O 0.4649(4) 0.1463(3) -0.6579(5)
O2 O 0.5419(4) 0.2483(3) -0.4956(6)
O3 O 0.7458(4) -0.0381(3) -1.1040(5)
H1 H 0.7658 -0.0475 -1.0656
H2 H 0.7408 -0.0406 -1.1740
N1 N 0.6536(3) 0.0363(3) -0.8830(5)
N2 N 0.3430(4) 0.2562(4) -0.0942(5)
C1 C 0.6832(4) 0.0810(4) -0.8209(6)
H3 H 0.7248 0.1024 -0.8286
C2 C 0.6598(4) 0.0992(4) -0.7473(6)
H4 H 0.6848 0.1306 -0.7020
C3 C 0.6000(3) 0.0728(3) -0.7366(6)
C4 C 0.5664(4) 0.0252(4) -0.8005(6)
H5 H 0.5247 0.0049 -0.7958
C5 C 0.5945(4) 0.0070(4) -0.8721(5)
H6 H 0.5714 -0.0267 -0.9143
C6 C 0.5713(4) 0.0929(4) -0.6574(7)
C7 C 0.5319(4) 0.1089(4) -0.6959(7)
H7 H 0.5239 0.1064 -0.7689
C8 C 0.5038(4) 0.1290(4) -0.6263(7)
C9 C 0.5160(4) 0.1329(4) -0.5167(6)
C10 C 0.5561(4) 0.1170(4) -0.4793(6)
C11 C 0.5714(5) 0.1213(4) -0.3683(6)
H8 H 0.5545 0.1366 -0.3207
C12 C 0.6089(4) 0.1041(4) -0.3313(6)
H9 H 0.6199 0.1092 -0.2595
C13 C 0.6310(4) 0.0788(4) -0.4007(6)
C14 C 0.6209(4) 0.0754(4) -0.5096(6)
H10 H 0.6388 0.0602 -0.5554
C15 C 0.5833(3) 0.0953(3) -0.5485(6)
C16 C 0.4639(6) 0.1558(5) -0.7688(9)
H11 H 0.4452 0.1177 -0.8066
H12 H 0.5044 0.1806 -0.7957
C17 C 0.4278(7) 0.1871(7) -0.7845(13)
H13 H 0.4285 0.1971 -0.8587
H14 H 0.4450 0.2232 -0.7423
H15 H 0.3870 0.1609 -0.7624
C18 C 0.5760(6) 0.3244(6) -0.6199(11)
H16 H 0.5733 0.3585 -0.6435
H17 H 0.5632 0.2953 -0.6765
H18 H 0.6168 0.3370 -0.6010
C19 C 0.5396(7) 0.2992(5) -0.5322(12)
H19 H 0.4985 0.2874 -0.5508
H20 H 0.5524 0.3287 -0.4752
C20 C 0.4828(5) 0.1518(4) -0.4432(7)
C21 C 0.4989(5) 0.2102(5) -0.4307(8)
C22 C 0.4696(5) 0.2269(5) -0.3608(7)
H21 H 0.4812 0.2674 -0.3551
C23 C 0.4239(5) 0.1865(5) -0.2989(8)
C24 C 0.4061(5) 0.1249(4) -0.3080(8)
C25 C 0.3592(6) 0.0815(4) -0.2491(9)
H22 H 0.3407 0.0930 -0.1976
C26 C 0.3407(10) 0.0262(7) -0.2634(19)
C27 C 0.3724(7) 0.0079(6) -0.3299(14)
H23 H 0.3613 -0.0325 -0.3353
C28 C 0.4172(6) 0.0480(6) -0.3830(14)
H24 H 0.4386 0.0355 -0.4257
C29 C 0.4359(4) 0.1088(4) -0.3810(8)
C30 C 0.3090(5) 0.2124(4) -0.1611(8)
H25 H 0.2676 0.1974 -0.1621
C31 C 0.3341(5) 0.1882(4) -0.2302(8)
H26 H 0.3098 0.1590 -0.2798
C32 C 0.3946(5) 0.2075(5) -0.2253(7)
C33 C 0.4283(5) 0.2527(5) -0.1537(7)
H27 H 0.4696 0.2683 -0.1481
C34 C 0.3997(4) 0.2735(4) -0.0920(6)
H28 H 0.4232 0.3034 -0.0428
Cd1B Cd 0.30114(3) 0.30114(3) 0.0000
Cd1A Cd 0.0000 -0.30114(3) -2.0000
Cl1D Cl 0.62301(15) -0.05481(10) -1.64717(17)
Cl2D Cl 0.31453(27) 0.02753(18) -1.8214(5)
O1D O 0.3186(5) -0.1463(3) -1.3421(5)
O2D O 0.2936(5) -0.2483(3) -1.5044(6)
O3D O 0.7839(5) 0.0381(3) -0.8960(5)
H1D H 0.8133 0.0475 -0.9344
H2D H 0.7814 0.0406 -0.8260
N1D N 0.6173(4) -0.0363(3) -1.1170(5)
N2D N 0.0868(6) -0.2562(4) -1.9058(5)
N2A N 0.7438(4) 0.0868(6) -1.0942(5)
N2E N 0.6570(4) -0.0868(6) -0.9058(5)
C1D C 0.6022(6) -0.0810(4) -1.1791(6)
H3D H 0.6224 -0.1024 -1.1714
C2D C 0.5606(6) -0.0992(4) -1.2527(6)
H4D H 0.5542 -0.1306 -1.2980
C3D C 0.5272(4) -0.0728(3) -1.2634(6)
C4D C 0.5412(6) -0.0252(4) -1.1995(6)
H5D H 0.5198 -0.0049 -1.2042
C5D C 0.5875(6) -0.0070(4) -1.1279(5)
H6D H 0.5981 0.0267 -1.0857
C6D C 0.4784(6) -0.0929(4) -1.3426(7)
C7D C 0.4230(6) -0.1089(4) -1.3041(7)
H7D H 0.4175 -0.1064 -1.2311
C8D C 0.3748(6) -0.1290(4) -1.3737(7)
C9D C 0.3831(6) -0.1329(4) -1.4833(6)
C10D C 0.4391(6) -0.1170(4) -1.5207(6)
C11D C 0.4501(6) -0.1213(4) -1.6317(6)
H8D H 0.4179 -0.1366 -1.6793
C12D C 0.5048(6) -0.1041(4) -1.6687(6)
H9D H 0.5107 -0.1092 -1.7405
C13D C 0.5522(6) -0.0788(4) -1.5993(6)
C14D C 0.5455(6) -0.0754(4) -1.4904(6)
H10D H 0.5786 -0.0602 -1.4446
C15D C 0.4880(4) -0.0953(3) -1.4515(6)
C16D C 0.3081(8) -0.1558(5) -1.2312(9)
H11D H 0.3275 -0.1177 -1.1934
H12D H 0.3238 -0.1806 -1.2043
C17D C 0.2407(10) -0.1871(7) -1.2155(13)
H13D H 0.2314 -0.1971 -1.1413
H14D H 0.2218 -0.2232 -1.2577
H15D H 0.2261 -0.1609 -1.2376
C18D C 0.2516(8) -0.3244(6) -1.3801(11)
H16D H 0.2148 -0.3585 -1.3565
H17D H 0.2679 -0.2953 -1.3235
H18D H 0.2798 -0.3370 -1.3990
C19D C 0.2404(9) -0.2992(5) -1.4678(12)
H19D H 0.2111 -0.2874 -1.4492
H20D H 0.2237 -0.3287 -1.5248
C20D C 0.3310(6) -0.1518(4) -1.5568(7)
C21D C 0.2887(7) -0.2102(5) -1.5693(8)
C22D C 0.2427(7) -0.2269(5) -1.6392(7)
H21D H 0.2138 -0.2674 -1.6449
C23D C 0.2374(7) -0.1865(5) -1.7011(8)
C24D C 0.2812(6) -0.1249(4) -1.6920(8)
C25D C 0.2777(7) -0.0815(4) -1.7509(9)
H22D H 0.2477 -0.0930 -1.8024
C26D C 0.3145(12) -0.0262(7) -1.7366(19)
C27D C 0.3645(9) -0.0079(6) -1.6701(14)
H23D H 0.3938 0.0325 -1.6647
C28D C 0.3692(8) -0.0480(6) -1.6170(14)
H24D H 0.4031 -0.0355 -1.5743
C29D C 0.3271(6) -0.1088(4) -1.6190(8)
C30D C 0.0966(6) -0.2124(4) -1.8389(8)
H25D H 0.0702 -0.1974 -1.8379
C31D C 0.1459(6) -0.1882(4) -1.7698(8)
H26D H 0.1508 -0.1590 -1.7202
C32D C 0.1871(7) -0.2075(5) -1.7747(7)
C33D C 0.1756(7) -0.2527(5) -1.8463(7)
H27D H 0.2013 -0.2683 -1.8519
C34D C 0.1262(6) -0.2735(4) -1.9080(6)
H28D H 0.1198 -0.3034 -1.9572
O4 O 0.2874(9) 0.1929(8) 0.2826(16)
N3 N 0.3027(13) 0.1351(16) 0.4088(17)
C35 C 0.347(2) 0.194(4) 0.455(2)
H29 H 0.3665 0.1876 0.5150
H30 H 0.3269 0.2149 0.4778
H31 H 0.3765 0.2173 0.4016
C36 C 0.2836(17) 0.0730(17) 0.450(2)
H32 H 0.3097 0.0757 0.5076
H33 H 0.2858 0.0490 0.3935
H34 H 0.2430 0.0547 0.4761
C37 C 0.2694(13) 0.1411(14) 0.318(2)
H35 H 0.2363 0.1077 0.2886
O5 O 0.795(2) -0.089(2) -0.987(3)
C38 C 0.716(2) -0.171(2) -1.026(4)
H36 H 0.6975 -0.2136 -1.0186
H37 H 0.7208 -0.1604 -1.1007
H38 H 0.6908 -0.1574 -0.9934
C39 C 0.771(2) -0.144(2) -0.977(4)
H39 H 0.7658 -0.1538 -0.9017
H40 H 0.7958 -0.1581 -1.0085
O6 O 0.8251(19) -0.1214(18) -0.774(3)
C40 C 0.814(2) -0.087(3) -0.658(4)
H41 H 0.8144 -0.0850 -0.5815
H42 H 0.7775 -0.0888 -0.6842
H43 H 0.8480 -0.0517 -0.6866
C41 C 0.815(2) -0.131(2) -0.687(4)
H44 H 0.8462 -0.1350 -0.6503
H45 H 0.7765 -0.1675 -0.6756
Cl3 Cl 0.3932(9) -0.4419(9) 0.0107(14)
O7 O 0.4025(11) -0.4854(10) 0.0398(19)
O8 O 0.4411(11) -0.4014(12) -0.051(2)
O9 O 0.3445(10) -0.4612(12) -0.051(2)
O10 O 0.388(2) -0.4124(18) 0.094(2)
O11 O 0.567(5) -0.286(5) -0.042(8)
O13 O 0.3333 -0.3333 0.234(2)
C42? C 0.538(6) -0.403(6) 0.069(10)
C43? C 0.554(3) -0.446(3) 0.0000
O12? O 0.541(4) -0.377(5) 0.031(8)
loop_
_geom_bond_atom_site_label_1
_geom_bond_atom_site_label_2
_geom_bond_site_symmetry_1
_geom_bond_site_symmetry_2
Cd1 O3 1_555 1_555
Cl1 C13 1_555 1_555
Cl2 C26 1_555 1_555
O1 C8 1_555 1_555
O2 C19 1_555 1_555
O3 H1 1_555 1_555
H2 O3 1_555 1_555
O4 C37 1_555 1_555
O5 C39 1_555 1_555
O6 C41 1_555 1_555
N1 Cd1 1_555 1_555
N2 C30 1_555 1_555
N3 C35 1_555 1_555
C1 N1 1_555 1_555
H3 C1 1_555 1_555
C2 C1 1_555 1_555
H4 C2 1_555 1_555
C3 C2 1_555 1_555
C4 C3 1_555 1_555
H5 C4 1_555 1_555
C5 N1 1_555 1_555
H6 C5 1_555 1_555
C6 C3 1_555 1_555
C7 C6 1_555 1_555
H7 C7 1_555 1_555
C8 C7 1_555 1_555
C9 C8 1_555 1_555
C10 C9 1_555 1_555
C11 C10 1_555 1_555
H8 C11 1_555 1_555
C12 C11 1_555 1_555
H9 C12 1_555 1_555
C13 C12 1_555 1_555
C14 C13 1_555 1_555
H10 C14 1_555 1_555
C15 C6 1_555 1_555
C16 O1 1_555 1_555
H11 C16 1_555 1_555
H12 C16 1_555 1_555
C17 C16 1_555 1_555
H13 C17 1_555 1_555
H14 C17 1_555 1_555
H15 C17 1_555 1_555
C18 H16 1_555 1_555
H17 C18 1_555 1_555
H18 C18 1_555 1_555
C19 C18 1_555 1_555
H19 C19 1_555 1_555
H20 C19 1_555 1_555
C20 C9 1_555 1_555
C21 O2 1_555 1_555
C22 C21 1_555 1_555
H21 C22 1_555 1_555
C23 C22 1_555 1_555
C24 C23 1_555 1_555
C25 C24 1_555 1_555
H22 C25 1_555 1_555
C26 C25 1_555 1_555
C27 C26 1_555 1_555
H23 C27 1_555 1_555
C28 C27 1_555 1_555
H24 C28 1_555 1_555
C29 C20 1_555 1_555
C30 H25 1_555 1_555
C31 C30 1_555 1_555
H26 C31 1_555 1_555
C32 C23 1_555 1_555
C33 C32 1_555 1_555
H27 C33 1_555 1_555
C34 N2 1_555 1_555
H28 C34 1_555 1_555
C35 H29 1_555 1_555
H30 C35 1_555 1_555
H31 C35 1_555 1_555
C36 N3 1_555 1_555
H32 C36 1_555 1_555
H33 C36 1_555 1_555
H34 C36 1_555 1_555
C37 N3 1_555 1_555
H35 C37 1_555 1_555
C38 H36 1_555 1_555
H37 C38 1_555 1_555
H38 C38 1_555 1_555
C39 C38 1_555 1_555
H39 C39 1_555 1_555
H40 C39 1_555 1_555
C40 H41 1_555 1_555
H42 C40 1_555 1_555
H43 C40 1_555 1_555
C41 C40 1_555 1_555
H44 C41 1_555 1_555
H45 C41 1_555 1_555
Cl3 O7 1_555 1_555
O8 Cl3 1_555 1_555
O9 Cl3 1_555 1_555
O10 Cl3 1_555 1_555
Cd1B N2 1_555 1_555
Cd1A N2D 1_555 1_555
Cl1D C13D 1_555 1_555
Cl2D C26D 1_555 1_555
O1D C8D 1_555 1_555
O2D C19D 1_555 1_555
O3D Cd1 1_555 1_555
H1D O3D 1_555 1_555
H2D O3D 1_555 1_555
N1D Cd1 1_555 1_555
N2D C30D 1_555 1_555
N2A Cd1 1_555 1_555
N2E Cd1 1_555 1_555
C1D N1D 1_555 1_555
H3D C1D 1_555 1_555
C2D C1D 1_555 1_555
H4D C2D 1_555 1_555
C3D C2D 1_555 1_555
C4D C3D 1_555 1_555
H5D C4D 1_555 1_555
C5D N1D 1_555 1_555
H6D C5D 1_555 1_555
C6D C3D 1_555 1_555
C7D C6D 1_555 1_555
H7D C7D 1_555 1_555
C8D C7D 1_555 1_555
C9D C8D 1_555 1_555
C10D C9D 1_555 1_555
C11D C10D 1_555 1_555
H8D C11D 1_555 1_555
C12D C11D 1_555 1_555
H9D C12D 1_555 1_555
C13D C12D 1_555 1_555
C14D C13D 1_555 1_555
H10D C14D 1_555 1_555
C15D C6D 1_555 1_555
C16D O1D 1_555 1_555
H11D C16D 1_555 1_555
H12D C16D 1_555 1_555
C17D C16D 1_555 1_555
H13D C17D 1_555 1_555
H14D C17D 1_555 1_555
H15D C17D 1_555 1_555
C18D H16D 1_555 1_555
H17D C18D 1_555 1_555
H18D C18D 1_555 1_555
C19D C18D 1_555 1_555
H19D C19D 1_555 1_555
H20D C19D 1_555 1_555
C20D C9D 1_555 1_555
C21D O2D 1_555 1_555
C22D C21D 1_555 1_555
H21D C22D 1_555 1_555
C23D C22D 1_555 1_555
C24D C23D 1_555 1_555
C25D C24D 1_555 1_555
H22D C25D 1_555 1_555
C26D C25D 1_555 1_555
C27D C26D 1_555 1_555
H23D C27D 1_555 1_555
C28D C27D 1_555 1_555
H24D C28D 1_555 1_555
C29D C20D 1_555 1_555
C30D H25D 1_555 1_555
C31D C30D 1_555 1_555
H26D C31D 1_555 1_555
C32D C23D 1_555 1_555
C33D C32D 1_555 1_555
H27D C33D 1_555 1_555
C34D N2D 1_555 1_555
H28D C34D 1_555 1_555
C4 C5 1_555 1_555
C10 C15 1_555 1_555
C14 C15 1_555 1_555
C20 C21 1_555 1_555
C24 C29 1_555 1_555
C28 C29 1_555 1_555
C31 C32 1_555 1_555
C33 C34 1_555 1_555
C4D C5D 1_555 1_555
C10D C15D 1_555 1_555
C14D C15D 1_555 1_555
C20D C21D 1_555 1_555
C24D C29D 1_555 1_555
C28D C29D 1_555 1_555
C31D C32D 1_555 1_555
C33D C34D 1_555 1_555

#END
