
#######################################################################
#
#                 Cambridge Crystallographic Data Centre
#                                CCDC 
#
#######################################################################
#
# If this CIF has been generated from an entry in the Cambridge 
# Structural Database, then it will include bibliographic, chemical, 
# crystal, experimental, refinement or atomic coordinate data resulting 
# from the CCDC's data processing and validation procedures.
#
#######################################################################

data_GATKOD
_symmetry_cell_setting           orthorhombic
_symmetry_space_group_name_H-M   'P b c a'
_symmetry_Int_Tables_number      61
_space_group_name_Hall           '-P 2ac 2ab'
loop_
_symmetry_equiv_pos_site_id
_symmetry_equiv_pos_as_xyz
1 x,y,z
2 1/2-x,-y,1/2+z
3 1/2+x,1/2-y,-z
4 -x,1/2+y,1/2-z
5 -x,-y,-z
6 1/2+x,y,1/2-z
7 1/2-x,1/2+y,z
8 x,1/2-y,1/2+z
_cell_length_a                   12.9331(4)
_cell_length_b                   8.3175(3)
_cell_length_c                   29.6896(10)
_cell_angle_alpha                90
_cell_angle_beta                 90
_cell_angle_gamma                90
_cell_volume                     3193.74
loop_
_atom_site_label
_atom_site_type_symbol
_atom_site_fract_x
_atom_site_fract_y
_atom_site_fract_z
Sr1 Sr 0.80388(4) 0.54007(6) 0.584476(18)
Cl1 Cl 0.76317(17) 0.4428(3) 0.38803(7)
Cl2 Cl 0.67503(19) 0.7927(3) 0.79238(8)
O1 O 1.0044(4) 0.5387(6) 0.57994(17)
O2 O 0.6587(3) 0.7398(5) 0.55081(14)
O3 O 0.6581(3) 0.3405(5) 0.61623(13)
N1 N 0.6343(4) 0.2793(6) 0.51498(18)
O4 O 0.6255(4) 0.1546(5) 0.66602(14)
O5 O 0.6315(3) 0.9291(5) 0.50152(14)
N2 N 0.5933(4) 0.4135(6) 0.45744(17)
N3 N 0.6119(4) 0.4041(6) 0.68866(17)
N4 N 0.5793(4) 0.8193(6) 0.68767(17)
N5 N 0.6187(4) 0.6807(6) 0.47773(16)
N6 N 0.6559(4) 0.6462(6) 0.64280(17)
N7 N 0.6330(4) 0.3008(6) 0.65646(18)
N8 N 0.6322(4) 0.8028(6) 0.65056(18)
N9 N 0.6500(4) 0.4376(6) 0.52529(17)
N10 N 0.5684(4) 0.6687(6) 0.70464(17)
C1 C 0.6225(4) 0.5198(7) 0.4891(2)
N11 N 0.6378(4) 0.7824(6) 0.51043(17)
N12 N 0.6013(4) 0.2634(6) 0.47404(18)
C2 C 0.6165(5) 0.5637(7) 0.6767(2)
C3 C 0.5965(6) 0.6120(9) 0.7852(2)
H1 H 0.6413 0.5198 0.7771
H2 H 0.5604 0.5862 0.8137
C4 C 0.5621(5) 0.4411(8) 0.4107(2)
H3 H 0.5571 0.5582 0.4052
H4 H 0.4929 0.3936 0.4057
C5 C 0.5191(5) 0.6407(8) 0.7485(2)
H5 H 0.4728 0.5464 0.7463
H6 H 0.4763 0.7352 0.7565
C6 C 0.6369(6) 0.3694(10) 0.3786(2)
H7 H 0.6155 0.3953 0.3474
H8 H 0.6365 0.2509 0.3819
H9 H 1.030(6) 0.466(6) 0.564(2)
H10 H 1.031(6) 0.629(5) 0.574(3)
Sr1F Sr 0.69612(4) 1.04007(6) 0.584476(18)
Sr1F_2 Sr 0.69612(4) 0.04007(6) 0.584476(18)
O2F O 0.8413(3) 0.2398(5) 0.55081(14)
O3F O 0.8419(3) 0.8405(5) 0.61623(13)
N1F N 0.8657(4) 0.7793(6) 0.51498(18)
O4F O 0.8745(4) 0.6546(5) 0.66602(14)
O5F O 0.8685(3) 0.4291(5) 0.50152(14)
N8F N 0.8678(4) 0.3028(6) 0.65056(18)
loop_
_geom_bond_atom_site_label_1
_geom_bond_atom_site_label_2
_geom_bond_site_symmetry_1
_geom_bond_site_symmetry_2
Sr1 O1 1_555 1_555
Cl1 C6 1_555 1_555
Cl2 C3 1_555 1_555
O1 H9 1_555 1_555
O2 Sr1 1_555 1_555
O3 Sr1 1_555 1_555
N1 N9 1_555 1_555
O4 N7 1_555 1_555
O5 N11 1_555 1_555
N2 C1 1_555 1_555
N3 N7 1_555 1_555
N4 N8 1_555 1_555
N5 C1 1_555 1_555
N6 Sr1 1_555 1_555
N7 O3 1_555 1_555
N8 N6 1_555 1_555
N9 Sr1 1_555 1_555
N10 N4 1_555 1_555
C1 N9 1_555 1_555
N11 O2 1_555 1_555
N12 N1 1_555 1_555
C2 N3 1_555 1_555
C3 H1 1_555 1_555
H2 C3 1_555 1_555
C4 N2 1_555 1_555
H3 C4 1_555 1_555
H4 C4 1_555 1_555
C5 N10 1_555 1_555
H5 C5 1_555 1_555
H6 C5 1_555 1_555
C6 C4 1_555 1_555
H7 C6 1_555 1_555
H8 C6 1_555 1_555
H10 O1 1_555 1_555
Sr1F O2 1_555 1_555
Sr1F_2 O3 1_555 1_555
O2F Sr1 1_555 1_555
O3F Sr1 1_555 1_555
N1F Sr1 1_555 1_555
O4F Sr1 1_555 1_555
O5F Sr1 1_555 1_555
N8F Sr1 1_555 1_555
N1 Sr1F_2 1_555 1_555
O4 Sr1F_2 1_555 1_555
O5 Sr1F 1_555 1_555
N2 N12 1_555 1_555
N5 N11 1_555 1_555
N6 C2 1_555 1_555
N8 Sr1F 1_555 1_555
N10 C2 1_555 1_555
C3 C5 1_555 1_555
Sr1F O3F 1_555 1_555
Sr1F_2 O2F 1_555 1_555

#END
