
#######################################################################
#
#                 Cambridge Crystallographic Data Centre
#                                CCDC 
#
#######################################################################
#
# If this CIF has been generated from an entry in the Cambridge 
# Structural Database, then it will include bibliographic, chemical, 
# crystal, experimental, refinement or atomic coordinate data resulting 
# from the CCDC's data processing and validation procedures.
#
#######################################################################

data_GATLIY
_symmetry_cell_setting           orthorhombic
_symmetry_space_group_name_H-M   'P b c n'
_symmetry_Int_Tables_number      60
_space_group_name_Hall           '-P 2n 2ab'
loop_
_symmetry_equiv_pos_site_id
_symmetry_equiv_pos_as_xyz
1 x,y,z
2 1/2-x,1/2-y,1/2+z
3 1/2+x,1/2-y,-z
4 -x,y,1/2-z
5 -x,-y,-z
6 1/2+x,1/2+y,1/2-z
7 1/2-x,1/2+y,z
8 x,-y,1/2+z
_cell_length_a                   10.255(2)
_cell_length_b                   14.036(3)
_cell_length_c                   18.787(4)
_cell_angle_alpha                90
_cell_angle_beta                 90
_cell_angle_gamma                90
_cell_volume                     2704.19
loop_
_atom_site_label
_atom_site_type_symbol
_atom_site_fract_x
_atom_site_fract_y
_atom_site_fract_z
O1 O -0.34562(15) 0.35707(12) 0.06507(10)
H4 H -0.384(3) 0.329(2) 0.0996(17)
H7 H -0.368(3) 0.332(2) 0.0301(18)
O2 O -0.10103(17) 0.59854(12) 0.06379(9)
H1 H 0.399(3) 0.4890(16) 0.299(2)
H2 H -0.177(3) 0.6068(18) 0.0637(14)
H3 H -0.159(3) 0.3808(19) 0.0632(16)
H5 H -0.063(3) 0.636(2) 0.0871(17)
H8 H -0.046(3) 0.340(2) 0.0597(15)
Fe1 Fe 0.0000 0.5000 0.0000
N1 N 0.15319(17) 0.49406(11) 0.08416(9)
O4 O -0.08788(18) 0.38788(12) 0.05539(8)
C1 C 0.1196(2) 0.49351(13) 0.15315(13)
H10 H 0.0313 0.4935 0.1644
C2 C 0.3420(2) 0.49234(13) 0.19381(12)
C3 C 0.2823(2) 0.49321(13) 0.07013(12)
H11 H 0.3085 0.4935 0.0227
C4 C 0.2081(2) 0.49300(13) 0.20832(12)
H12 H 0.1790 0.4931 0.2552
C5 C 0.3773(2) 0.49191(13) 0.12187(12)
H13 H 0.4649 0.4907 0.1090
C6 C 0.4351(3) 0.49180(14) 0.25297(12)
O2D O 0.10103(17) 0.40146(12) -0.06379(9)
H1C H 0.601(3) 0.4890(16) 0.201(2)
H2D H 0.177(3) 0.3932(18) -0.0637(14)
H3D H 0.159(3) 0.6192(19) -0.0632(16)
H5D H 0.063(3) 0.364(2) -0.0871(17)
H8D H 0.046(3) 0.660(2) -0.0597(15)
Fe1C Fe 1.0000 0.5000 0.5000
N1C N 0.84681(17) 0.49406(11) 0.41584(9)
N1D N -0.15319(17) 0.50594(11) -0.08416(9)
O4D O 0.08788(18) 0.61212(12) -0.05539(8)
C1C C 0.8804(2) 0.49351(13) 0.34685(13)
H10C H 0.9687 0.4935 0.3356
C2C C 0.6580(2) 0.49234(13) 0.30619(12)
C3C C 0.7177(2) 0.49321(13) 0.42987(12)
H11C H 0.6915 0.4935 0.4773
C4C C 0.7919(2) 0.49300(13) 0.29168(12)
H12C H 0.8210 0.4931 0.2448
C5C C 0.6227(2) 0.49191(13) 0.37813(12)
H13C H 0.5351 0.4907 0.3910
C6C C 0.5649(3) 0.49180(14) 0.24703(12)
O3 O -0.14590(18) 0.13027(13) 0.09060(11)
H6 H -0.162(3) 0.169(2) 0.1250(16)
H9 H -0.076(3) 0.149(2) 0.0713(17)
O5 O 0.08210(14) 0.23459(10) 0.05969(8)
O6 O 0.50836(13) 0.23474(10) 0.15605(8)
C7 C 0.1675(2) 0.24026(14) 0.10825(11)
N2 N 0.32743(16) 0.24713(12) 0.22498(9)
H14 H 0.3779 0.2485 0.2615
O7 O 0.15181(14) 0.26014(11) 0.29744(8)
N3 N 0.12142(16) 0.24978(12) 0.17723(9)
H15 H 0.0384 0.2543 0.1829
C8 C 0.3025(2) 0.23690(14) 0.09963(12)
H16 H 0.3379 0.2328 0.0541
C9 C 0.38446(19) 0.23967(14) 0.15832(11)
C10 C 0.1967(2) 0.25247(14) 0.23625(11)
loop_
_geom_bond_atom_site_label_1
_geom_bond_atom_site_label_2
_geom_bond_site_symmetry_1
_geom_bond_site_symmetry_2
O1 H4 1_555 1_555
O2 H2 1_555 1_555
O3 H6 1_555 1_555
H1 C6 1_555 1_555
H3 O4 1_555 1_555
H5 O2 1_555 1_555
H7 O1 1_555 1_555
H8 O4 1_555 1_555
H9 O3 1_555 1_555
Fe1 O2 1_555 1_555
N1 Fe1 1_555 1_555
O4 Fe1 1_555 1_555
C1 N1 1_555 1_555
H10 C1 1_555 1_555
C2 C4 1_555 1_555
C3 N1 1_555 1_555
H11 C3 1_555 1_555
C4 C1 1_555 1_555
H12 C4 1_555 1_555
C5 C2 1_555 1_555
H13 C5 1_555 1_555
C6 C2 1_555 1_555
O5 C7 1_555 1_555
O6 C9 1_555 1_555
C7 N3 1_555 1_555
N2 H14 1_555 1_555
O7 C10 1_555 1_555
N3 H15 1_555 1_555
C8 C7 1_555 1_555
H16 C8 1_555 1_555
C9 N2 1_555 1_555
C10 N2 1_555 1_555
O2D Fe1 1_555 1_555
H1C C6C 1_555 1_555
H2D O2D 1_555 1_555
H3D O4D 1_555 1_555
H5D O2D 1_555 1_555
H8D O4D 1_555 1_555
Fe1C N1C 1_555 1_555
N1C C1C 1_555 1_555
N1D Fe1 1_555 1_555
O4D Fe1 1_555 1_555
C1C H10C 1_555 1_555
C2C C4C 1_555 1_555
C3C N1C 1_555 1_555
H11C C3C 1_555 1_555
C4C C1C 1_555 1_555
H12C C4C 1_555 1_555
C5C C2C 1_555 1_555
H13C C5C 1_555 1_555
C6C C6 1_555 1_555
C3 C5 1_555 1_555
N3 C10 1_555 1_555
C8 C9 1_555 1_555
C2C C6C 1_555 1_555
C3C C5C 1_555 1_555

#END
