
#######################################################################
#
#                 Cambridge Crystallographic Data Centre
#                                CCDC 
#
#######################################################################
#
# If this CIF has been generated from an entry in the Cambridge 
# Structural Database, then it will include bibliographic, chemical, 
# crystal, experimental, refinement or atomic coordinate data resulting 
# from the CCDC's data processing and validation procedures.
#
#######################################################################

data_GATLAQ
_symmetry_cell_setting           monoclinic
_symmetry_space_group_name_H-M   'P 21/c'
_symmetry_Int_Tables_number      14
_space_group_name_Hall           '-P 2ybc'
loop_
_symmetry_equiv_pos_site_id
_symmetry_equiv_pos_as_xyz
1 x,y,z
2 -x,1/2+y,1/2-z
3 -x,-y,-z
4 x,1/2-y,1/2+z
_cell_length_a                   10.1160(5)
_cell_length_b                   9.9464(4)
_cell_length_c                   8.6448(4)
_cell_angle_alpha                90
_cell_angle_beta                 109.461(5)
_cell_angle_gamma                90
_cell_volume                     820.126
loop_
_atom_site_label
_atom_site_type_symbol
_atom_site_fract_x
_atom_site_fract_y
_atom_site_fract_z
K1 K 0.43386(5) 0.30979(4) -0.05124(5)
Cl1 Cl -0.06753(6) 0.60581(6) -0.68072(7)
O1 O 0.39884(13) 0.56498(13) -0.21406(14)
O2 O 0.39474(15) 0.39324(13) -0.37062(15)
N1 N 0.20932(15) 0.62126(15) -0.76099(17)
N2 N 0.19794(17) 0.55800(16) -0.90326(18)
N3 N 0.26703(17) 0.44627(17) -0.86278(18)
N4 N 0.32366(16) 0.43330(15) -0.69572(17)
N5 N 0.31741(16) 0.59790(15) -0.47906(17)
N6 N 0.37177(15) 0.51499(16) -0.35490(18)
C1 C 0.28704(18) 0.54449(18) -0.6341(2)
C2 C 0.13266(19) 0.74555(19) -0.7610(2)
H1 H 0.1533 0.8111 -0.8360
H2 H 0.1650 0.7846 -0.6493
C3 C -0.0229(2) 0.7222(2) -0.8140(2)
H3 H -0.0559 0.6866 -0.9274
H4 H -0.0710 0.8088 -0.8138
K1B K 0.56614(5) 0.69021(4) 0.05124(5)
K1C K 0.43386(5) 0.19021(4) -0.55124(5)
O1B O 0.60116(13) 0.43502(13) 0.21406(14)
O2C O 0.39474(15) 0.10676(13) 0.12938(15)
N4C N 0.32366(16) 0.06670(15) -0.19572(17)
loop_
_geom_bond_atom_site_label_1
_geom_bond_atom_site_label_2
_geom_bond_site_symmetry_1
_geom_bond_site_symmetry_2
K1 O1 1_555 1_555
Cl1 C3 1_555 1_555
O1 N6 1_555 1_555
O2 K1 1_555 1_555
N1 N2 1_555 1_555
N2 N3 1_555 1_555
N3 N4 1_555 1_555
N4 C1 1_555 1_555
N5 N6 1_555 1_555
N6 O2 1_555 1_555
C1 N1 1_555 1_555
C2 N1 1_555 1_555
H1 C2 1_555 1_555
H2 C2 1_555 1_555
C3 C2 1_555 1_555
H3 C3 1_555 1_555
H4 C3 1_555 1_555
K1B O1 1_555 1_555
K1C O2 1_555 1_555
O1B K1 1_555 1_555
O2C K1 1_555 1_555
N4C K1 1_555 1_555
N4 K1C 1_555 1_555
N5 C1 1_555 1_555
K1B O1B 1_555 1_555

#END
