
#######################################################################
#
#                 Cambridge Crystallographic Data Centre
#                                CCDC 
#
#######################################################################
#
# If this CIF has been generated from an entry in the Cambridge 
# Structural Database, then it will include bibliographic, chemical, 
# crystal, experimental, refinement or atomic coordinate data resulting 
# from the CCDC's data processing and validation procedures.
#
#######################################################################

data_GATPEY
_symmetry_cell_setting           monoclinic
_symmetry_space_group_name_H-M   'P 21/c'
_symmetry_Int_Tables_number      14
_space_group_name_Hall           '-P 2ybc'
loop_
_symmetry_equiv_pos_site_id
_symmetry_equiv_pos_as_xyz
1 x,y,z
2 -x,1/2+y,1/2-z
3 -x,-y,-z
4 x,1/2-y,1/2+z
_cell_length_a                   10.9514(3)
_cell_length_b                   16.0913(5)
_cell_length_c                   13.0233(4)
_cell_angle_alpha                90
_cell_angle_beta                 109.410(2)
_cell_angle_gamma                90
_cell_volume                     2164.56
loop_
_atom_site_label
_atom_site_type_symbol
_atom_site_fract_x
_atom_site_fract_y
_atom_site_fract_z
Sn1 Sn 0.5420(9) 0.2778(4) 0.0819(7)
N1 N 0.7265(9) 0.2703(4) 0.2440(7)
N2 N 1.3479(9) 0.2795(4) 0.9269(7)
C1 C 1.1224(9) 0.2731(4) 0.7453(7)
C2 C 0.8941(9) 0.3356(4) 0.3879(7)
C3 C 1.1766(9) 0.2027(4) 0.8009(7)
C4 C 0.7914(9) 0.3377(4) 0.2919(7)
C5 C 1.2883(9) 0.2075(4) 0.8900(7)
C6 C 0.6019(9) 0.3947(4) 0.0390(7)
C7 C 0.9358(9) 0.2610(4) 0.4392(7)
C8 C 0.6082(9) 0.1712(4) 0.0183(7)
C9 C 1.2935(9) 0.3494(4) 0.8748(7)
C10 C 1.0486(9) 0.2582(4) 0.5432(7)
C11 C 1.0064(9) 0.2701(4) 0.6435(7)
C12 C 0.7667(9) 0.1975(4) 0.2953(7)
C13 C 0.4254(9) 0.2671(4) 0.1805(7)
C14 C 0.8691(9) 0.1916(4) 0.3903(7)
C15 C 1.1823(9) 0.3477(4) 0.7853(7)
H1 H 0.935100 0.386650 0.419410
H2 H 1.137300 0.149650 0.777010
H3 H 0.766810 0.390890 0.257810
H4 H 1.322110 0.156310 0.926110
H5 H 1.330950 0.402420 0.901490
H6 H 1.090040 0.205040 0.548650
H7 H 1.108810 0.301240 0.542030
H8 H 0.951010 0.224990 0.648080
H9 H 0.959990 0.321550 0.636240
H10 H 0.721540 0.147270 0.265400
H11 H 0.895200 0.138190 0.423130
H12 H 1.147000 0.398840 0.749860
H13 H 0.548270 0.158100 -0.052380
H14 H 0.614190 0.125110 0.066520
H15 H 0.691870 0.182320 0.012730
H16 H 0.335690 0.268280 0.136110
H17 H 0.443500 0.312740 0.230760
H18 H 0.443950 0.215700 0.220170
H19 H 0.540450 0.413760 -0.028210
H20 H 0.685280 0.388740 0.030690
H21 H 0.607380 0.434350 0.095500
Sn1_2 Sn 1.5420(9) 0.2778(4) 1.0819(7)
N2_2 N 0.3479(9) 0.2795(4) -0.0731(7)
Ag1 Ag 0.3134(9) 0.0095(4) 0.0698(7)
N3 N 0.5686(9) 0.0114(4) 0.2775(7)
C16 C 0.4762(9) 0.0136(4) 0.2053(7)
N4 N 0.0684(9) -0.0052(4) -0.1474(7)
C17 C 0.1536(9) 0.0017(4) -0.0688(7)
O1 O 0.9603(9) 0.0423(4) 0.6268(7)
H22 H 1.036550 0.044120 0.606040
H23 H 0.967990 0.044120 0.702410
O2 O 0.1866(9) 0.0412(4) 0.5610(7)
H24 H 0.276740 0.044050 0.603750
H25 H 0.122080 0.044050 0.595960
loop_
_geom_bond_atom_site_label_1
_geom_bond_atom_site_label_2
_geom_bond_site_symmetry_1
_geom_bond_site_symmetry_2
Sn1 N1 1_555 1_555
N1 C4 1_555 1_555
N2 C5 1_555 1_555
C1 C3 1_555 1_555
C2 C4 1_555 1_555
C3 C5 1_555 1_555
C4 H3 1_555 1_555
C5 H4 1_555 1_555
C6 Sn1 1_555 1_555
C7 C2 1_555 1_555
C8 Sn1 1_555 1_555
C9 N2 1_555 1_555
C10 C7 1_555 1_555
C11 C1 1_555 1_555
C12 N1 1_555 1_555
C13 Sn1 1_555 1_555
C14 C7 1_555 1_555
C15 C1 1_555 1_555
H1 C2 1_555 1_555
H2 C3 1_555 1_555
H5 C9 1_555 1_555
H6 C10 1_555 1_555
H7 C10 1_555 1_555
H8 C11 1_555 1_555
H9 C11 1_555 1_555
H10 C12 1_555 1_555
H11 C14 1_555 1_555
H12 C15 1_555 1_555
H13 C8 1_555 1_555
H14 C8 1_555 1_555
H15 C8 1_555 1_555
H16 C13 1_555 1_555
H17 C13 1_555 1_555
H18 C13 1_555 1_555
H19 C6 1_555 1_555
H20 C6 1_555 1_555
H21 C6 1_555 1_555
Ag1 C16 1_555 1_555
N3 C16 1_555 1_555
N4 C17 1_555 1_555
C17 Ag1 1_555 1_555
O1 H22 1_555 1_555
H23 O1 1_555 1_555
O2 H24 1_555 1_555
H25 O2 1_555 1_555
Sn1_2 N2 1_555 1_555
N2_2 Sn1 1_555 1_555
C9 C15 1_555 1_555
C10 C11 1_555 1_555
C12 C14 1_555 1_555

#END
