
#######################################################################
#
#                 Cambridge Crystallographic Data Centre
#                                CCDC 
#
#######################################################################
#
# If this CIF has been generated from an entry in the Cambridge 
# Structural Database, then it will include bibliographic, chemical, 
# crystal, experimental, refinement or atomic coordinate data resulting 
# from the CCDC's data processing and validation procedures.
#
#######################################################################

data_GATTOL
_symmetry_cell_setting           triclinic
_symmetry_space_group_name_H-M   'P -1'
_symmetry_Int_Tables_number      2
_space_group_name_Hall           '-P 1'
loop_
_symmetry_equiv_pos_site_id
_symmetry_equiv_pos_as_xyz
1 x,y,z
2 -x,-y,-z
_cell_length_a                   6.9619(8)
_cell_length_b                   9.3723(11)
_cell_length_c                   9.9791(11)
_cell_angle_alpha                74.900(2)
_cell_angle_beta                 89.418(2)
_cell_angle_gamma                78.241(2)
_cell_volume                     614.817
loop_
_atom_site_label
_atom_site_type_symbol
_atom_site_fract_x
_atom_site_fract_y
_atom_site_fract_z
Mn1 Mn 1.0000 1.0000 1.0000
S1 S 0.71399(9) 0.84489(7) 0.82931(6)
O1 O 0.7601(3) 0.9168(2) 0.93698(19)
O2 O 0.8678(3) 0.8447(2) 0.7283(2)
O3 O 0.6994(4) 0.6881(2) 0.8962(2)
O4 O 0.5230(3) 0.9281(3) 0.7612(2)
O5 O 0.8088(3) 1.1475(2) 1.10973(19)
N1 N 0.9692(3) 1.2009(2) 0.8004(2)
C1 C 0.9458(4) 1.3450(3) 0.8065(3)
H1 H 0.9226 1.3654 0.8923
C2 C 0.9541(4) 1.4644(3) 0.6930(3)
H2 H 0.9347 1.5622 0.7031
C3 C 0.9918(3) 1.4379(3) 0.5627(2)
C4 C 1.0115(4) 1.2890(3) 0.5558(3)
H3 H 1.0336 1.2653 0.4713
C5 C 0.9984(4) 1.1772(3) 0.6740(3)
H4 H 1.0104 1.0791 0.6659
H9 H 0.707(3) 1.120(4) 1.146(3)
H11 H 0.880(4) 1.162(4) 1.171(2)
Mn1_2 Mn 1.0000 2.0000 0.0000
S1A S 1.28601(9) 1.15511(7) 1.17069(6)
O1A O 1.2399(3) 1.0832(2) 1.06302(19)
O2A O 1.1322(3) 1.1553(2) 1.2717(2)
O3A O 1.3006(4) 1.3119(2) 1.1038(2)
O4A O 1.4770(3) 1.0719(3) 1.2388(2)
O5A O 1.1912(3) 0.8525(2) 0.89027(19)
N1A N 1.0308(3) 1.7991(2) 0.1996(2)
N1A_2 N 1.0308(3) 0.7991(2) 1.1996(2)
C1A C 1.0542(4) 1.6550(3) 0.1935(3)
H1A H 1.0774 1.6346 0.1077
C2A C 1.0459(4) 1.5356(3) 0.3070(3)
H2A H 1.0653 1.4378 0.2969
C3A C 1.0082(3) 1.5621(3) 0.4373(2)
C4A C 0.9885(4) 1.7110(3) 0.4442(3)
H3A H 0.9664 1.7347 0.5287
C5A C 1.0016(4) 1.8228(3) 0.3260(3)
H4A H 0.9896 1.9209 0.3341
H9A H 1.293(3) 0.880(4) 0.854(3)
H11A H 1.120(4) 0.838(4) 0.829(2)
O6 O 0.2878(4) 0.9321(2) 0.5347(2)
H10 H 0.367(4) 0.954(3) 0.588(3)
H12 H 0.255(5) 1.008(2) 0.464(2)
N2 N 0.4119(3) 0.3750(3) 0.8512(2)
C6 C 0.4619(4) 0.2738(3) 0.7779(3)
H5 H 0.4724 0.1716 0.8208
C7 C 0.4980(4) 0.3196(3) 0.6396(3)
H6 H 0.5328 0.2488 0.5888
C8 C 0.4822(4) 0.4732(3) 0.5754(3)
C9 C 0.4313(4) 0.5744(3) 0.6562(3)
H7 H 0.4212 0.6773 0.6167
C10 C 0.3960(4) 0.5232(3) 0.7936(3)
H8 H 0.3609 0.5913 0.8472
H13 H 0.379(5) 0.345(4) 0.9400(15)
N2A N 0.5881(3) 0.6250(3) 0.1488(2)
C6A C 0.5381(4) 0.7262(3) 0.2221(3)
H5A H 0.5276 0.8284 0.1792
C7A C 0.5020(4) 0.6804(3) 0.3604(3)
H6A H 0.4672 0.7512 0.4112
C8A C 0.5178(4) 0.5268(3) 0.4246(3)
C9A C 0.5687(4) 0.4256(3) 0.3438(3)
H7A H 0.5788 0.3227 0.3833
C10A C 0.6040(4) 0.4768(3) 0.2064(3)
H8A H 0.6391 0.4087 0.1528
H13A H 0.621(5) 0.655(4) 0.0600(15)
loop_
_geom_bond_atom_site_label_1
_geom_bond_atom_site_label_2
_geom_bond_site_symmetry_1
_geom_bond_site_symmetry_2
Mn1 O1 1_555 1_555
S1 O1 1_555 1_555
O2 S1 1_555 1_555
O3 S1 1_555 1_555
O4 S1 1_555 1_555
O5 Mn1 1_555 1_555
O6 H10 1_555 1_555
N1 Mn1 1_555 1_555
N2 C6 1_555 1_555
C1 N1 1_555 1_555
H1 C1 1_555 1_555
C2 C1 1_555 1_555
H2 C2 1_555 1_555
C3 C2 1_555 1_555
C4 C3 1_555 1_555
H3 C4 1_555 1_555
C5 N1 1_555 1_555
H4 C5 1_555 1_555
C6 H5 1_555 1_555
C7 C6 1_555 1_555
H6 C7 1_555 1_555
C8 C7 1_555 1_555
C9 C8 1_555 1_555
H7 C9 1_555 1_555
C10 N2 1_555 1_555
H8 C10 1_555 1_555
H9 O5 1_555 1_555
H11 O5 1_555 1_555
H12 O6 1_555 1_555
H13 N2 1_555 1_555
Mn1_2 N1A 1_555 1_555
S1A O1A 1_555 1_555
O1A Mn1 1_555 1_555
O2A S1A 1_555 1_555
O3A S1A 1_555 1_555
O4A S1A 1_555 1_555
O5A Mn1 1_555 1_555
N1A C1A 1_555 1_555
N1A_2 Mn1 1_555 1_555
N2A C6A 1_555 1_555
C1A H1A 1_555 1_555
C2A C1A 1_555 1_555
H2A C2A 1_555 1_555
C3A C3 1_555 1_555
C4A C3A 1_555 1_555
H3A C4A 1_555 1_555
C5A N1A 1_555 1_555
H4A C5A 1_555 1_555
C6A H5A 1_555 1_555
C7A C6A 1_555 1_555
H6A C7A 1_555 1_555
C8A C8 1_555 1_555
C9A C8A 1_555 1_555
H7A C9A 1_555 1_555
C10A N2A 1_555 1_555
H8A C10A 1_555 1_555
H9A O5A 1_555 1_555
H11A O5A 1_555 1_555
H13A N2A 1_555 1_555
C4 C5 1_555 1_555
C9 C10 1_555 1_555
C2A C3A 1_555 1_555
C4A C5A 1_555 1_555
C7A C8A 1_555 1_555
C9A C10A 1_555 1_555

#END
