
#######################################################################
#
#                 Cambridge Crystallographic Data Centre
#                                CCDC 
#
#######################################################################
#
# If this CIF has been generated from an entry in the Cambridge 
# Structural Database, then it will include bibliographic, chemical, 
# crystal, experimental, refinement or atomic coordinate data resulting 
# from the CCDC's data processing and validation procedures.
#
#######################################################################

data_GATVAZ
_symmetry_cell_setting           monoclinic
_symmetry_space_group_name_H-M   'C 2/c'
_symmetry_Int_Tables_number      15
_space_group_name_Hall           '-C 2yn'
loop_
_symmetry_equiv_pos_site_id
_symmetry_equiv_pos_as_xyz
1 x,y,z
2 1/2+x,1/2+y,z
3 -x,y,1/2-z
4 1/2-x,1/2+y,1/2-z
5 -x,-y,-z
6 1/2-x,1/2-y,-z
7 x,-y,1/2+z
8 1/2+x,1/2-y,1/2+z
_cell_length_a                   15.579(3)
_cell_length_b                   6.0883(12)
_cell_length_c                   21.725(4)
_cell_angle_alpha                90
_cell_angle_beta                 104.76(3)
_cell_angle_gamma                90
_cell_volume                     1992.61
loop_
_atom_site_label
_atom_site_type_symbol
_atom_site_fract_x
_atom_site_fract_y
_atom_site_fract_z
Zn1 Zn 0.5000 0.57043(10) 0.7500
C1 C 0.3443(2) 0.3387(6) 0.78616(17)
H1 H 0.3520 0.2373 0.7560
C2 C 0.2777(2) 0.3019(7) 0.81645(18)
H2 H 0.2416 0.1785 0.8066
C3 C 0.2654(2) 0.4487(8) 0.86094(18)
H3 H 0.2204 0.4289 0.8815
C4 C 0.3207(3) 0.6246(7) 0.87448(19)
H4 H 0.3147 0.7261 0.9051
C5 C 0.3860(3) 0.6513(7) 0.84245(18)
H5 H 0.4233 0.7725 0.8523
C6 C 0.4049(2) 0.3691(7) 0.63620(18)
C7 C 0.3609(2) 0.3775(6) 0.56537(16)
H6 H 0.3017 0.4377 0.5594
H7 H 0.3942 0.4777 0.5456
C8 C 0.4297(2) 0.0926(6) 0.51878(15)
C9 C 0.5124(2) 0.1892(6) 0.53611(16)
H8 H 0.5213 0.3160 0.5608
C10 C 0.4182(2) -0.0965(6) 0.48347(16)
H9 H 0.3627 -0.1634 0.4725
N1 N 0.39817(18) 0.5121(5) 0.79810(13)
O1 O 0.5000 0.9029(5) 0.7500
H10 H 0.5328 0.9478 0.7834
O2 O 0.41024(15) 0.5530(4) 0.66347(11)
O3 O 0.43308(17) 0.1942(5) 0.66094(12)
O4 O 0.35411(15) 0.1738(4) 0.53345(11)
Zn1F Zn 0.5000 -0.57043(10) 0.2500
C1B C 0.6557(2) 0.3387(6) 0.71384(17)
H1B H 0.6480 0.2373 0.7440
C2B C 0.7223(2) 0.3019(7) 0.68355(18)
H2B H 0.7584 0.1785 0.6934
C3B C 0.7346(2) 0.4487(8) 0.63906(18)
H3B H 0.7796 0.4289 0.6185
C4B C 0.6793(3) 0.6246(7) 0.62552(19)
H4B H 0.6853 0.7261 0.5949
C5B C 0.6140(3) 0.6513(7) 0.65755(18)
H5B H 0.5767 0.7725 0.6477
C6D C 0.5951(2) -0.3691(7) 0.36380(18)
C7D C 0.6391(2) -0.3775(6) 0.43463(16)
H6D H 0.6983 -0.4377 0.4406
H7D H 0.6058 -0.4777 0.4544
C8D C 0.5703(2) -0.0926(6) 0.48122(15)
C9D C 0.4876(2) -0.1892(6) 0.46389(16)
H8D H 0.4787 -0.3160 0.4392
C10D C 0.5818(2) 0.0965(6) 0.51653(16)
H9D H 0.6373 0.1634 0.5275
N1B N 0.60183(18) 0.5121(5) 0.70190(13)
H10B H 0.4672 0.9478 0.7166
O2D O 0.58976(15) -0.5530(4) 0.33653(11)
O2B O 0.58976(15) 0.5530(4) 0.83653(11)
O3D O 0.56692(17) -0.1942(5) 0.33906(12)
O4D O 0.64589(15) -0.1738(4) 0.46655(11)
loop_
_geom_bond_atom_site_label_1
_geom_bond_atom_site_label_2
_geom_bond_site_symmetry_1
_geom_bond_site_symmetry_2
Zn1 N1 1_555 1_555
C1 H1 1_555 1_555
C2 C1 1_555 1_555
H2 C2 1_555 1_555
C3 C2 1_555 1_555
H3 C3 1_555 1_555
C4 C3 1_555 1_555
H4 C4 1_555 1_555
C5 C4 1_555 1_555
H5 C5 1_555 1_555
C6 C7 1_555 1_555
C7 H6 1_555 1_555
H7 C7 1_555 1_555
C8 C9 1_555 1_555
C9 H8 1_555 1_555
C10 C8 1_555 1_555
H9 C10 1_555 1_555
N1 C1 1_555 1_555
O1 Zn1 1_555 1_555
H10 O1 1_555 1_555
O2 Zn1 1_555 1_555
O3 C6 1_555 1_555
O4 C7 1_555 1_555
Zn1F O2D 1_555 1_555
C1B H1B 1_555 1_555
C2B C1B 1_555 1_555
H2B C2B 1_555 1_555
C3B C2B 1_555 1_555
H3B C3B 1_555 1_555
C4B C3B 1_555 1_555
H4B C4B 1_555 1_555
C5B C4B 1_555 1_555
H5B C5B 1_555 1_555
C6D C7D 1_555 1_555
C7D H6D 1_555 1_555
H7D C7D 1_555 1_555
C8D C9D 1_555 1_555
C9D C10 1_555 1_555
H8D C9D 1_555 1_555
C10D C9 1_555 1_555
H9D C10D 1_555 1_555
N1B Zn1 1_555 1_555
H10B O1 1_555 1_555
O2D C6D 1_555 1_555
O2B Zn1 1_555 1_555
O3D C6D 1_555 1_555
O4D C7D 1_555 1_555
C5 N1 1_555 1_555
C6 O2 1_555 1_555
C8 O4 1_555 1_555
C1B N1B 1_555 1_555
C5B N1B 1_555 1_555
C8D C10D 1_555 1_555
C8D O4D 1_555 1_555

#END
