
#######################################################################
#
#                 Cambridge Crystallographic Data Centre
#                                CCDC 
#
#######################################################################
#
# If this CIF has been generated from an entry in the Cambridge 
# Structural Database, then it will include bibliographic, chemical, 
# crystal, experimental, refinement or atomic coordinate data resulting 
# from the CCDC's data processing and validation procedures.
#
#######################################################################

data_GATXUV
_symmetry_cell_setting           triclinic
_symmetry_space_group_name_H-M   'P -1'
_symmetry_Int_Tables_number      2
_space_group_name_Hall           '-P 1'
loop_
_symmetry_equiv_pos_site_id
_symmetry_equiv_pos_as_xyz
1 x,y,z
2 -x,-y,-z
_cell_length_a                   10.0909(7)
_cell_length_b                   12.7898(9)
_cell_length_c                   17.5601(12)
_cell_angle_alpha                95.6425(12)
_cell_angle_beta                 99.8511(13)
_cell_angle_gamma                109.6652(11)
_cell_volume                     2072.77
loop_
_atom_site_label
_atom_site_type_symbol
_atom_site_fract_x
_atom_site_fract_y
_atom_site_fract_z
Cu1 Cu 0.85425(3) -0.53720(3) 0.819636(19)
Cu2 Cu 1.14283(3) -0.43811(3) 0.671911(19)
N1 N 1.0699(2) -0.60625(18) 0.63251(13)
N2 N 1.2144(2) -0.27464(18) 0.72413(13)
N3 N 0.9620(2) -0.37792(17) 0.87744(13)
N4 N 0.7464(2) -0.69335(18) 0.75504(13)
C1 C 0.9447(3) -0.6649(2) 0.58117(16)
H1 H 0.8924 -0.6256 0.5561
C2 C 1.3829(3) -0.5667(2) 0.86615(15)
H2 H 1.4013 -0.5325 0.8228
C3 C 1.1411(3) -0.5459(2) 0.84170(16)
C4 C 1.4874(3) -0.5995(2) 0.90949(15)
C5 C 0.8522(3) -0.4364(2) 0.64600(15)
C6 C 1.2513(3) -0.5850(2) 0.88771(15)
C7 C 1.2248(3) -0.6367(2) 0.95208(16)
H3 H 1.1360 -0.6512 0.9656
C8 C 1.4605(3) -0.6480(2) 0.97474(15)
H4 H 1.5309 -0.6683 1.0044
C9 C 0.7396(3) -0.4017(2) 0.59801(15)
C10 C 1.3294(3) -0.6670(2) 0.99667(16)
H5 H 1.3119 -0.6998 1.0407
C11 C 0.7876(3) -0.7804(2) 0.76497(18)
H6 H 0.8722 -0.7684 0.8013
C12 C 0.8908(3) -0.7810(2) 0.56424(18)
H7 H 0.8037 -0.8189 0.5286
C13 C 0.9674(3) -0.8408(2) 0.60073(18)
C14 C 1.1459(3) -0.6651(2) 0.66525(16)
H8 H 1.2351 -0.6254 0.6986
C15 C 1.1747(3) -0.1983(2) 0.68907(18)
H9 H 1.1087 -0.2228 0.6412
C16 C 1.0987(3) -0.7804(2) 0.65204(17)
H10 H 1.1538 -0.8176 0.6771
C17 C 1.3682(3) -0.1242(2) 0.82790(18)
H11 H 1.4351 -0.1013 0.8754
C18 C 0.5850(3) -0.9078(2) 0.66917(17)
C19 C 1.3264(3) -0.0460(2) 0.79050(18)
C20 C 1.1350(3) -0.2445(2) 0.98401(17)
H12 H 1.2022 -0.2311 1.0307
C21 C 0.9343(3) -0.2917(2) 0.84979(18)
H13 H 0.8641 -0.3074 0.8041
C22 C 0.5428(3) -0.8171(2) 0.65836(18)
H14 H 0.4595 -0.8268 0.6217
C23 C 1.3849(4) 0.0790(3) 0.82118(19)
C24 C 1.3091(3) -0.2363(2) 0.79359(17)
H15 H 1.3363 -0.2881 0.8199
C25 C 0.6237(3) -0.7133(2) 0.70169(18)
H16 H 0.5927 -0.6536 0.6940
C26 C 1.1080(3) -0.1554(2) 0.95457(18)
C27 C 1.0626(3) -0.3525(2) 0.94441(16)
H17 H 1.0839 -0.4108 0.9648
C28 C 1.2267(3) -0.0850(2) 0.72019(18)
H18 H 1.1947 -0.0354 0.6939
C29 C 0.7104(3) -0.8883(2) 0.72367(19)
H19 H 0.7428 -0.9469 0.7326
C30 C 1.0044(3) -0.1814(2) 0.88560(19)
H20 H 0.9824 -0.1243 0.8637
C31 C 0.4912(4) -1.0216(3) 0.62202(19)
C32 C 1.1919(4) -0.0375(3) 0.9973(2)
C33 C 0.9148(4) -0.9677(3) 0.5934(2)
C34 C 0.3684(3) -0.3917(2) 0.60512(16)
C35 C 1.6294(3) -0.5820(2) 0.88655(16)
C36 C 0.5069(3) -0.3805(2) 0.57966(15)
C37 C 0.6114(3) -0.4143(2) 0.62214(15)
H21 H 0.5952 -0.4455 0.6669
C38 C 0.5309(3) -0.3373(2) 0.51227(15)
H22 H 0.4610 -0.3160 0.4832
C39 C 0.7624(3) -0.3567(2) 0.53070(16)
H23 H 0.8481 -0.3476 0.5145
C40 C 0.6576(3) -0.3252(2) 0.48724(17)
H24 H 0.6724 -0.2961 0.4416
O1 O 1.1773(2) -0.48180(16) 0.79492(11)
O2 O 0.8293(2) -0.47316(17) 0.70611(12)
O3 O 1.01672(19) -0.58179(15) 0.85759(12)
O4 O 1.2787(3) -0.0207(2) 1.06012(16)
N5 N 1.1704(3) 0.0458(2) 0.96495(19)
H25 H 1.2175 0.1144 0.9876
H26 H 1.1093 0.0316 0.9212
N6 N 0.8025(4) -1.0281(2) 0.5373(2)
H27 H 0.7681 -1.1002 0.5333
H28 H 0.7634 -0.9954 0.5046
N7 N 1.5086(3) 0.1199(2) 0.87421(17)
H29 H 1.5464 0.1909 0.8923
H30 H 1.5507 0.0754 0.8904
O5 O 0.3938(3) -1.0299(2) 0.56774(15)
O6 O 0.9725(4) -1.0112(2) 0.6405(2)
O7 O 1.3204(3) 0.13879(18) 0.79610(16)
O8 O 0.96438(19) -0.42416(16) 0.61892(11)
N8 N 0.5176(3) -1.1105(2) 0.64262(18)
H31 H 0.4650 -1.1767 0.6173
H32 H 0.5873 -1.1020 0.6813
O9 O 1.7077(2) -0.62947(17) 0.91849(12)
O10 O 0.2802(2) -0.35998(18) 0.56429(12)
O11 O 1.66369(19) -0.52172(14) 0.83445(11)
O12 O 0.34834(19) -0.42901(15) 0.66843(11)
Cu1_2 Cu 1.85425(3) -0.53720(3) 0.819636(19)
Cu2_2 Cu 0.14283(3) -0.43811(3) 0.671911(19)
O9_2 O 0.7077(2) -0.62947(17) 0.91849(12)
O11_2 O 0.66369(19) -0.52172(14) 0.83445(11)
O12_2 O 1.34834(19) -0.42901(15) 0.66843(11)
O13 O 0.5791(2) -0.33497(17) 0.80320(12)
H33 H 0.6050 -0.3889 0.8147
H34 H 0.5104 -0.3610 0.7627
O14 O 1.2853(3) 0.1154(2) 1.20693(19)
H35 H 1.2556 0.1337 1.2471
H36 H 1.3347 0.1773 1.1948
O15 O 1.0293(3) 0.0719(2) 0.81552(18)
H37 H 0.9850 0.0579 0.8526
H38 H 0.9978 0.0132 0.7808
loop_
_geom_bond_atom_site_label_1
_geom_bond_atom_site_label_2
_geom_bond_site_symmetry_1
_geom_bond_site_symmetry_2
Cu1 N3 1_555 1_555
Cu2 N1 1_555 1_555
N1 C1 1_555 1_555
N2 Cu2 1_555 1_555
N3 C21 1_555 1_555
N4 Cu1 1_555 1_555
C1 H1 1_555 1_555
C2 H2 1_555 1_555
C3 C6 1_555 1_555
C4 C2 1_555 1_555
C5 C9 1_555 1_555
C6 C2 1_555 1_555
C7 C6 1_555 1_555
H3 C7 1_555 1_555
C8 C4 1_555 1_555
H4 C8 1_555 1_555
C9 C37 1_555 1_555
C10 C7 1_555 1_555
H5 C10 1_555 1_555
C11 N4 1_555 1_555
H6 C11 1_555 1_555
C12 C1 1_555 1_555
H7 C12 1_555 1_555
C13 C12 1_555 1_555
C14 N1 1_555 1_555
H8 C14 1_555 1_555
C15 N2 1_555 1_555
H9 C15 1_555 1_555
C16 C13 1_555 1_555
H10 C16 1_555 1_555
C17 H11 1_555 1_555
C18 C22 1_555 1_555
C19 C17 1_555 1_555
C20 H12 1_555 1_555
C21 H13 1_555 1_555
C22 H14 1_555 1_555
C23 C19 1_555 1_555
C24 N2 1_555 1_555
H15 C24 1_555 1_555
C25 N4 1_555 1_555
H16 C25 1_555 1_555
C26 C20 1_555 1_555
C27 N3 1_555 1_555
H17 C27 1_555 1_555
C28 C15 1_555 1_555
H18 C28 1_555 1_555
C29 C11 1_555 1_555
H19 C29 1_555 1_555
C30 C21 1_555 1_555
H20 C30 1_555 1_555
C31 C18 1_555 1_555
C32 C26 1_555 1_555
C33 C13 1_555 1_555
C34 C36 1_555 1_555
C35 C4 1_555 1_555
C36 C37 1_555 1_555
C37 H21 1_555 1_555
C38 C36 1_555 1_555
H22 C38 1_555 1_555
C39 C9 1_555 1_555
H23 C39 1_555 1_555
C40 C38 1_555 1_555
H24 C40 1_555 1_555
O1 Cu2 1_555 1_555
O2 Cu1 1_555 1_555
O3 Cu1 1_555 1_555
O4 C32 1_555 1_555
N5 C32 1_555 1_555
H25 N5 1_555 1_555
H26 N5 1_555 1_555
N6 C33 1_555 1_555
H27 N6 1_555 1_555
H28 N6 1_555 1_555
N7 C23 1_555 1_555
H29 N7 1_555 1_555
H30 N7 1_555 1_555
O5 C31 1_555 1_555
O6 C33 1_555 1_555
O7 C23 1_555 1_555
O8 Cu2 1_555 1_555
N8 C31 1_555 1_555
H31 N8 1_555 1_555
H32 N8 1_555 1_555
O9 C35 1_555 1_555
O10 C34 1_555 1_555
O11 C35 1_555 1_555
O12 C34 1_555 1_555
O13 H33 1_555 1_555
H34 O13 1_555 1_555
O14 H35 1_555 1_555
H36 O14 1_555 1_555
O15 H37 1_555 1_555
H38 O15 1_555 1_555
Cu1_2 O9 1_555 1_555
Cu2_2 O12 1_555 1_555
O9_2 Cu1 1_555 1_555
O11_2 Cu1 1_555 1_555
O12_2 Cu2 1_555 1_555
C3 O1 1_555 1_555
C3 O3 1_555 1_555
C5 O2 1_555 1_555
C5 O8 1_555 1_555
C8 C10 1_555 1_555
C14 C16 1_555 1_555
C17 C24 1_555 1_555
C18 C29 1_555 1_555
C19 C28 1_555 1_555
C20 C27 1_555 1_555
C22 C25 1_555 1_555
C26 C30 1_555 1_555
C39 C40 1_555 1_555
O11 Cu1_2 1_555 1_555

#END
