
#######################################################################
#
#                 Cambridge Crystallographic Data Centre
#                                CCDC 
#
#######################################################################
#
# If this CIF has been generated from an entry in the Cambridge 
# Structural Database, then it will include bibliographic, chemical, 
# crystal, experimental, refinement or atomic coordinate data resulting 
# from the CCDC's data processing and validation procedures.
#
#######################################################################

data_GAVBIP
_symmetry_cell_setting           rhombohedral
_symmetry_space_group_name_H-M   'R -3'
_symmetry_Int_Tables_number      148
_space_group_name_Hall           '-R 3'
loop_
_symmetry_equiv_pos_site_id
_symmetry_equiv_pos_as_xyz
1 x,y,z
2 -y,x-y,z
3 -x+y,-x,z
4 2/3+x,1/3+y,1/3+z
5 2/3-y,1/3+x-y,1/3+z
6 2/3-x+y,1/3-x,1/3+z
7 1/3+x,2/3+y,2/3+z
8 1/3-y,2/3+x-y,2/3+z
9 1/3-x+y,2/3-x,2/3+z
10 -x,-y,-z
11 y,-x+y,-z
12 x-y,x,-z
13 1/3-x,2/3-y,2/3-z
14 1/3+y,2/3-x+y,2/3-z
15 1/3+x-y,2/3+x,2/3-z
16 2/3-x,1/3-y,1/3-z
17 2/3+y,1/3-x+y,1/3-z
18 2/3+x-y,1/3+x,1/3-z
_cell_length_a                   33.9602(7)
_cell_length_b                   33.9602(7)
_cell_length_c                   3.91520(10)
_cell_angle_alpha                90
_cell_angle_beta                 90
_cell_angle_gamma                120.0
_cell_volume                     3910.43
loop_
_atom_site_label
_atom_site_type_symbol
_atom_site_fract_x
_atom_site_fract_y
_atom_site_fract_z
Cu1 Cu 0.5000 0.0000 0.5000
Cl1 Cl 0.56042(3) 0.04681(3) -0.1620(3)
N1 N 0.48025(12) 0.04665(12) 0.4888(9)
N2 N 0.38064(13) 0.05380(14) 0.7476(11)
H1 H 0.3704 0.0724 0.7444
H2 H 0.3644 0.0271 0.8334
C1 C 0.43931(14) 0.03596(15) 0.6133(11)
H3 H 0.4209 0.0070 0.7022
C2 C 0.42328(14) 0.06690(14) 0.6142(10)
C3 C 0.45063(17) 0.10937(15) 0.4735(11)
H4 H 0.4408 0.1305 0.4639
C4 C 0.49323(16) 0.12013(17) 0.3460(13)
H5 H 0.5122 0.1486 0.2516
C5 C 0.50721(16) 0.08815(16) 0.3605(12)
H6 H 0.5359 0.0957 0.2793
Cu1_2 Cu 0.5000 0.0000 -0.5000
Cl1_2 Cl 0.56042(3) 0.04681(3) 0.8380(3)
Cl1I Cl 0.43958(3) -0.04681(3) 0.1620(3)
Cl1I_2 Cl 0.43958(3) -0.04681(3) 1.1620(3)
N1I N 0.51975(12) -0.04665(12) 0.5112(9)
N2I N 0.61936(13) -0.05380(14) 0.2524(11)
H1I H 0.6296 -0.0724 0.2556
H2I H 0.6356 -0.0271 0.1666
C1I C 0.56069(14) -0.03596(15) 0.3867(11)
H3I H 0.5791 -0.0070 0.2978
C2I C 0.57672(14) -0.06690(14) 0.3858(10)
C3I C 0.54937(17) -0.10937(15) 0.5265(11)
H4I H 0.5592 -0.1305 0.5361
C4I C 0.50677(16) -0.12013(17) 0.6540(13)
H5I H 0.4878 -0.1486 0.7484
C5I C 0.49279(16) -0.08815(16) 0.6395(12)
H6I H 0.4641 -0.0957 0.7207
O1 O 0.6144(6) 0.1832(6) -0.192(5)
loop_
_geom_bond_atom_site_label_1
_geom_bond_atom_site_label_2
_geom_bond_site_symmetry_1
_geom_bond_site_symmetry_2
Cu1 Cl1 1_555 1_555
Cl1 Cu1_2 1_555 1_555
N1 Cu1 1_555 1_555
N2 H1 1_555 1_555
H2 N2 1_555 1_555
C1 N1 1_555 1_555
H3 C1 1_555 1_555
C2 N2 1_555 1_555
C3 C2 1_555 1_555
H4 C3 1_555 1_555
C4 C3 1_555 1_555
H5 C4 1_555 1_555
C5 N1 1_555 1_555
H6 C5 1_555 1_555
Cu1_2 Cl1I 1_555 1_555
Cl1_2 Cu1 1_555 1_555
Cl1I Cu1 1_555 1_555
Cl1I_2 Cu1 1_555 1_555
N1I Cu1 1_555 1_555
N2I H1I 1_555 1_555
H2I N2I 1_555 1_555
C1I N1I 1_555 1_555
H3I C1I 1_555 1_555
C2I N2I 1_555 1_555
C3I C2I 1_555 1_555
H4I C3I 1_555 1_555
C4I C3I 1_555 1_555
H5I C4I 1_555 1_555
C5I N1I 1_555 1_555
H6I C5I 1_555 1_555
C1 C2 1_555 1_555
C4 C5 1_555 1_555
C1I C2I 1_555 1_555
C4I C5I 1_555 1_555

#END
