
#######################################################################
#
#                 Cambridge Crystallographic Data Centre
#                                CCDC 
#
#######################################################################
#
# If this CIF has been generated from an entry in the Cambridge 
# Structural Database, then it will include bibliographic, chemical, 
# crystal, experimental, refinement or atomic coordinate data resulting 
# from the CCDC's data processing and validation procedures.
#
#######################################################################

data_GAVDUD
_symmetry_cell_setting           monoclinic
_symmetry_space_group_name_H-M   'P 21/m'
_symmetry_Int_Tables_number      11
_space_group_name_Hall           '-P 2yb'
loop_
_symmetry_equiv_pos_site_id
_symmetry_equiv_pos_as_xyz
1 x,y,z
2 -x,1/2+y,-z
3 -x,-y,-z
4 x,1/2-y,z
_cell_length_a                   3.6100(11)
_cell_length_b                   14.110(4)
_cell_length_c                   10.915(3)
_cell_angle_alpha                90
_cell_angle_beta                 97.060(4)
_cell_angle_gamma                90
_cell_volume                     551.763
loop_
_atom_site_label
_atom_site_type_symbol
_atom_site_fract_x
_atom_site_fract_y
_atom_site_fract_z
Cu1 Cu 0.45911(12) 0.37002(3) 0.72375(4)
Cu2 Cu 0.0000 0.5000 0.5000
O1 O 0.5038(9) 0.2500 0.6393(3)
H1 H 0.3301 0.2500 0.5708
O2 O 0.0155(6) 0.40055(16) 0.6144(2)
H2 H -0.0873 0.3493 0.5763
O3 O 0.3654(8) 0.57695(16) 0.6082(2)
O4 O 0.4998(7) 0.49913(16) 0.7876(2)
O5 O 1.1896(7) 0.67019(16) 1.1355(2)
C1 C 0.4745(9) 0.5724(2) 0.7232(3)
C2 C 0.5867(8) 0.6643(2) 0.7871(3)
C3 C 0.4985(12) 0.7500 0.7273(4)
H3 H 0.3799 0.7500 0.6467
C4 C 1.1047(13) 0.7500 1.0883(4)
C5 C 0.8801(12) 0.7500 0.9639(4)
C6 C 0.7780(9) 0.6642(2) 0.9054(3)
H4 H 0.8381 0.6071 0.9457
Cu1B Cu -0.45911(12) 0.62998(3) 0.27625(4)
Cu1C Cu 0.45911(12) 0.12998(3) 0.72375(4)
Cu1_2 Cu -0.54089(12) 0.37002(3) 0.72375(4)
Cu1B_2 Cu 1.54089(12) 0.62998(3) 1.27625(4)
Cu1C_2 Cu 0.45911(12) 1.12998(3) 0.72375(4)
Cu1A Cu 1.54089(12) 0.87002(3) 1.27625(4)
Cu1B_3 Cu 0.54089(12) 0.62998(3) 0.27625(4)
Cu2C Cu 0.0000 1.0000 0.5000
O1B O -0.5038(9) 0.7500 0.3607(3)
H1B H -0.3301 0.7500 0.4292
O2B O -0.0155(6) 0.59945(16) 0.3856(2)
O2_2 O 1.0155(6) 0.40055(16) 0.6144(2)
O2B_2 O -1.0155(6) 0.59945(16) 0.3856(2)
H2B H 0.0873 0.6507 0.4237
H2_2 H 0.9127 0.3493 0.5763
H2B_2 H -0.9127 0.6507 0.4237
O3C O 0.3654(8) 0.92305(16) 0.6082(2)
O3B O -0.3654(8) 0.42305(16) 0.3918(2)
O4C O 0.4998(7) 1.00087(16) 0.7876(2)
O4B O -0.4998(7) 0.50087(16) 0.2124(2)
O5C O 1.1896(7) 0.82981(16) 1.1355(2)
O5B O 0.8104(7) 0.32981(16) 0.8645(2)
O5_2 O -0.8104(7) 0.67019(16) 0.1355(2)
C1C C 0.4745(9) 0.9276(2) 0.7232(3)
C2C C 0.5867(8) 0.8357(2) 0.7871(3)
C6C C 0.7780(9) 0.8358(2) 0.9054(3)
H4C H 0.8381 0.8929 0.9457
loop_
_geom_bond_atom_site_label_1
_geom_bond_atom_site_label_2
_geom_bond_site_symmetry_1
_geom_bond_site_symmetry_2
Cu1 O1 1_555 1_555
Cu2 O2 1_555 1_555
O1 H1 1_555 1_555
O2 Cu1 1_555 1_555
H2 O2 1_555 1_555
O3 Cu2 1_555 1_555
O4 Cu1 1_555 1_555
O5 C4 1_555 1_555
C1 O3 1_555 1_555
C2 C1 1_555 1_555
C3 C2 1_555 1_555
H3 C3 1_555 1_555
C4 C5 1_555 1_555
C5 C6 1_555 1_555
C6 C2 1_555 1_555
H4 C6 1_555 1_555
Cu1B O1B 1_555 1_555
Cu1C O1 1_555 1_555
Cu1_2 O2 1_555 1_555
Cu1B_2 O5 1_555 1_555
Cu1C_2 O4C 1_555 1_555
Cu1A O5C 1_555 1_555
Cu1B_3 O2B 1_555 1_555
Cu2C O3C 1_555 1_555
O1B H1B 1_555 1_555
O2B Cu2 1_555 1_555
O2_2 Cu1 1_555 1_555
O2B_2 Cu1B 1_555 1_555
H2B O2B 1_555 1_555
H2_2 O2_2 1_555 1_555
H2B_2 O2B_2 1_555 1_555
O3C C1C 1_555 1_555
O3B Cu2 1_555 1_555
O4C C1C 1_555 1_555
O4B Cu1B 1_555 1_555
O5C C4 1_555 1_555
O5B Cu1 1_555 1_555
O5_2 Cu1B 1_555 1_555
C1C C2C 1_555 1_555
C2C C3 1_555 1_555
C6C C5 1_555 1_555
H4C C6C 1_555 1_555
O4 C1 1_555 1_555
Cu1B O2B 1_555 1_555
C2C C6C 1_555 1_555

#END
