
#######################################################################
#
#                 Cambridge Crystallographic Data Centre
#                                CCDC 
#
#######################################################################
#
# If this CIF has been generated from an entry in the Cambridge 
# Structural Database, then it will include bibliographic, chemical, 
# crystal, experimental, refinement or atomic coordinate data resulting 
# from the CCDC's data processing and validation procedures.
#
#######################################################################

data_GAVFEO01
_symmetry_cell_setting           triclinic
_symmetry_space_group_name_H-M   'P -1'
_symmetry_Int_Tables_number      2
_space_group_name_Hall           '-P 1'
loop_
_symmetry_equiv_pos_site_id
_symmetry_equiv_pos_as_xyz
1 x,y,z
2 -x,-y,-z
_cell_length_a                   7.9497(4)
_cell_length_b                   10.3985(4)
_cell_length_c                   5.4287(4)
_cell_angle_alpha                101.544(4)
_cell_angle_beta                 96.950(5)
_cell_angle_gamma                74.506(4)
_cell_volume                     422.621
loop_
_atom_site_label
_atom_site_type_symbol
_atom_site_fract_x
_atom_site_fract_y
_atom_site_fract_z
Ca1 Ca 0.29584(6) 0.12630(5) 0.1599(1)
P1 P 0.58700(8) 0.15766(6) 0.6989(1)
O1 O 0.4981(2) 0.2108(2) 0.4630(4)
O2 O 0.7656(2) 0.0589(2) 0.6618(4)
O3 O 0.4802(2) 0.0950(2) 0.8315(3)
O4 O 1.0406(2) 0.2329(2) 1.3752(4)
O5 O 0.9672(3) 0.4070(2) 1.6865(4)
O6 O 0.1186(3) 0.0397(2) -0.1851(4)
O7 O 0.2235(3) 0.3524(2) 0.0546(5)
N1 N 0.7132(3) 0.2724(2) 1.1597(5)
C1 C 0.6248(4) 0.3065(3) 0.9163(6)
C2 C 0.7656(4) 0.3867(3) 1.3363(6)
C3 C 0.9410(4) 0.3370(3) 1.4816(6)
H1 H 0.696(4) 0.348(3) 0.845(6)
H2 H 0.525(5) 0.376(4) 0.957(7)
H3 H 0.641(4) 0.235(3) 1.250(6)
H4 H 0.805(5) 0.207(4) 1.138(7)
H5 H 0.664(4) 0.442(3) 1.451(7)
H6 H 0.782(4) 0.449(3) 1.223(6)
H7 H 0.151(5) 0.031(4) -0.327(8)
H8 H 0.013(6) 0.027(5) -0.224(8)
H9 H 0.179(5) 0.419(4) 0.158(8)
H10 H 0.142(5) 0.353(4) -0.095(8)
O2A O 0.2344(2) -0.0589(2) 0.3382(4)
O3_2 O 0.4802(2) 0.0950(2) -0.1685(3)
O3A O 0.5198(2) -0.0950(2) 0.1685(3)
O4_2 O 0.0406(2) 0.2329(2) 0.3752(4)
Ca1A Ca 0.70416(6) -0.12630(5) 0.8401(1)
Ca1_2 Ca 0.29584(6) 0.12630(5) 1.1599(1)
Ca1_3 Ca 1.29584(6) 0.12630(5) 1.1599(1)
loop_
_geom_bond_atom_site_label_1
_geom_bond_atom_site_label_2
_geom_bond_site_symmetry_1
_geom_bond_site_symmetry_2
Ca1 O1 1_555 1_555
P1 O1 1_555 1_555
O2 P1 1_555 1_555
O3 P1 1_555 1_555
O4 C3 1_555 1_555
O5 C3 1_555 1_555
O6 Ca1 1_555 1_555
O7 Ca1 1_555 1_555
N1 C1 1_555 1_555
C1 P1 1_555 1_555
C2 N1 1_555 1_555
C3 C2 1_555 1_555
H1 C1 1_555 1_555
H2 C1 1_555 1_555
H3 N1 1_555 1_555
H4 N1 1_555 1_555
H5 C2 1_555 1_555
H6 C2 1_555 1_555
H7 O6 1_555 1_555
H8 O6 1_555 1_555
H9 O7 1_555 1_555
H10 O7 1_555 1_555
O2A Ca1 1_555 1_555
O3_2 Ca1 1_555 1_555
O3A Ca1 1_555 1_555
O4_2 Ca1 1_555 1_555
Ca1A O2 1_555 1_555
Ca1_2 O3 1_555 1_555
Ca1_3 O4 1_555 1_555
O3 Ca1A 1_555 1_555

#END
