
#######################################################################
#
#                 Cambridge Crystallographic Data Centre
#                                CCDC 
#
#######################################################################
#
# If this CIF has been generated from an entry in the Cambridge 
# Structural Database, then it will include bibliographic, chemical, 
# crystal, experimental, refinement or atomic coordinate data resulting 
# from the CCDC's data processing and validation procedures.
#
#######################################################################

data_GAVFEO
_symmetry_cell_setting           triclinic
_symmetry_space_group_name_H-M   'P -1'
_symmetry_Int_Tables_number      2
_space_group_name_Hall           '-P 1'
loop_
_symmetry_equiv_pos_site_id
_symmetry_equiv_pos_as_xyz
1 x,y,z
2 -x,-y,-z
_cell_length_a                   5.4336(7)
_cell_length_b                   7.9530(10)
_cell_length_c                   10.3868(9)
_cell_angle_alpha                74.576(8)
_cell_angle_beta                 78.495(9)
_cell_angle_gamma                83.044(10)
_cell_volume                     422.888
loop_
_atom_site_label
_atom_site_type_symbol
_atom_site_fract_x
_atom_site_fract_y
_atom_site_fract_z
Ca1 Ca -0.15988(6) 0.29597(4) 0.62633(3)
P1 P -0.69862(8) 0.58700(6) 0.65777(4)
O1 O -0.4628(2) 0.4985(2) 0.7108(1)
O2 O -0.8311(2) 0.4798(2) 0.5948(1)
O3 O -0.6623(2) 0.7653(2) 0.5597(1)
O4 O -1.3744(3) 1.0402(2) 0.7327(1)
O5 O -1.6866(3) 0.9675(2) 0.9069(1)
O6 O 0.1851(2) 0.1188(2) 0.5394(1)
O7 O -0.0549(2) 0.2239(2) 0.8521(1)
N1 N -1.1598(3) 0.7131(2) 0.7725(1)
C1 C -0.9159(3) 0.6243(2) 0.8069(2)
C2 C -1.3365(3) 0.7660(2) 0.8869(2)
C3 C -1.4797(4) 0.9407(2) 0.8362(2)
H1 H -1.143(4) 0.808(2) 0.711(2)
H2 H -1.247(4) 0.638(3) 0.739(2)
H3 H -0.948(4) 0.507(3) 0.878(2)
H4 H -0.847(4) 0.701(3) 0.847(2)
H5 H -1.249(4) 0.774(3) 0.952(2)
H6 H -1.444(4) 0.672(2) 0.934(2)
H7 H 0.224(4) 0.025(2) 0.550(2)
H8 H 0.332(4) 0.157(3) 0.520(2)
H9 H 0.081(4) 0.150(3) 0.856(2)
H10 H -0.146(4) 0.172(2) 0.913(2)
O2_2 O 0.1689(2) 0.4798(2) 0.5948(1)
O2A O -0.1689(2) 0.5202(2) 0.4052(1)
O3A O -0.3377(2) 0.2347(2) 0.4403(1)
O4_2 O -0.3744(3) 0.0402(2) 0.7327(1)
Ca1_2 Ca -1.15988(6) 0.29597(4) 0.62633(3)
Ca1A Ca -0.84012(6) 0.70403(4) 0.37367(3)
Ca1_3 Ca -1.15988(6) 1.29597(4) 0.62633(3)
loop_
_geom_bond_atom_site_label_1
_geom_bond_atom_site_label_2
_geom_bond_site_symmetry_1
_geom_bond_site_symmetry_2
Ca1 O1 1_555 1_555
P1 O1 1_555 1_555
O2 P1 1_555 1_555
O3 P1 1_555 1_555
O4 C3 1_555 1_555
O5 C3 1_555 1_555
O6 Ca1 1_555 1_555
O7 Ca1 1_555 1_555
N1 C1 1_555 1_555
C1 P1 1_555 1_555
C2 N1 1_555 1_555
C3 C2 1_555 1_555
H1 N1 1_555 1_555
H2 N1 1_555 1_555
H3 C1 1_555 1_555
H4 C1 1_555 1_555
H5 C2 1_555 1_555
H6 C2 1_555 1_555
H7 O6 1_555 1_555
H8 O6 1_555 1_555
H9 O7 1_555 1_555
H10 O7 1_555 1_555
O2_2 Ca1 1_555 1_555
O2A Ca1 1_555 1_555
O3A Ca1 1_555 1_555
O4_2 Ca1 1_555 1_555
Ca1_2 O2 1_555 1_555
Ca1A O2 1_555 1_555
Ca1_3 O4 1_555 1_555
O3 Ca1A 1_555 1_555

#END
