
#######################################################################
#
#                 Cambridge Crystallographic Data Centre
#                                CCDC 
#
#######################################################################
#
# If this CIF has been generated from an entry in the Cambridge 
# Structural Database, then it will include bibliographic, chemical, 
# crystal, experimental, refinement or atomic coordinate data resulting 
# from the CCDC's data processing and validation procedures.
#
#######################################################################

data_GAVGAM
_symmetry_cell_setting           monoclinic
_symmetry_space_group_name_H-M   'C 2/c'
_symmetry_Int_Tables_number      15
_space_group_name_Hall           '-C 2yn'
loop_
_symmetry_equiv_pos_site_id
_symmetry_equiv_pos_as_xyz
1 x,y,z
2 1/2+x,1/2+y,z
3 -x,y,1/2-z
4 1/2-x,1/2+y,1/2-z
5 -x,-y,-z
6 1/2-x,1/2-y,-z
7 x,-y,1/2+z
8 1/2+x,1/2-y,1/2+z
_cell_length_a                   25.179(4)
_cell_length_b                   13.822(3)
_cell_length_c                   24.112(4)
_cell_angle_alpha                90
_cell_angle_beta                 99.580(10)
_cell_angle_gamma                90
_cell_volume                     8274.53
loop_
_atom_site_label
_atom_site_type_symbol
_atom_site_fract_x
_atom_site_fract_y
_atom_site_fract_z
Sb1 Sb 0.49789(2) 0.33387(4) 0.64983(2)
Sb2 Sb 0.46389(2) 0.36881(4) 0.43846(2)
I1 I 0.41033(2) 0.36587(4) 0.56055(2)
I2 I 0.42006(2) 0.29721(5) 0.72394(2)
I3 I 0.51380(3) 0.14543(4) 0.62158(3)
I4 I 0.57288(2) 0.39764(4) 0.56149(2)
I5 I 0.35692(2) 0.33326(4) 0.39522(2)
I6 I 0.49377(3) 0.17455(5) 0.44241(3)
I7 I 0.49882(2) 0.59726(5) 0.66486(2)
Sb1B Sb 0.50211(2) 0.33387(4) 0.85017(2)
Sb2D Sb 0.53611(2) 0.63119(4) 0.56154(2)
I2B I 0.57994(2) 0.29721(5) 0.77606(2)
I4D I 0.42712(2) 0.60236(4) 0.43851(2)
I7D I 0.50118(2) 0.40274(5) 0.33514(2)
Sb3 Sb 0.641810(18) 0.37298(3) 0.438540(18)
N1 N 0.6714(2) 0.2506(4) 0.4913(2)
N2 N 0.6289(2) 0.1185(4) 0.4331(2)
N3 N 0.6424(2) 0.2595(4) 0.3758(2)
N4 N 0.6444(3) 0.3549(4) 0.2925(2)
N5 N 0.6814(2) 0.4455(4) 0.3758(2)
N6 N 0.7321(2) 0.5708(4) 0.4333(2)
N7 N 0.7124(2) 0.4359(4) 0.4923(2)
N8 N 0.7161(2) 0.3334(4) 0.5747(2)
C1 C 0.6915(3) 0.2585(5) 0.5488(3)
C2 C 0.6806(3) 0.1693(6) 0.5765(3)
C3 C 0.6893(3) 0.1396(6) 0.6328(3)
H1 H 0.7065 0.1804 0.6608
C4 C 0.6726(3) 0.0525(7) 0.6458(3)
H2 H 0.6778 0.0336 0.6833
C5 C 0.6465(3) -0.0135(6) 0.6034(3)
H3 H 0.6365 -0.0750 0.6135
C6 C 0.6366(3) 0.0150(6) 0.5482(3)
H4 H 0.6187 -0.0253 0.5204
C7 C 0.6542(3) 0.1068(5) 0.5351(3)
C8 C 0.6498(3) 0.1586(5) 0.4816(3)
C9 C 0.6260(3) 0.1663(5) 0.3852(3)
C10 C 0.6049(3) 0.1210(5) 0.3310(3)
C11 C 0.5851(3) 0.0302(6) 0.3174(3)
H5 H 0.5835 -0.0164 0.3449
C12 C 0.5673(3) 0.0101(6) 0.2605(3)
H6 H 0.5519 -0.0498 0.2500
C13 C 0.5721(4) 0.0783(6) 0.2192(3)
H7 H 0.5618 0.0618 0.1816
C14 C 0.5919(4) 0.1699(6) 0.2329(3)
H8 H 0.5933 0.2163 0.2053
C15 C 0.6095(3) 0.1901(5) 0.2893(3)
C16 C 0.6323(3) 0.2776(5) 0.3179(3)
C17 C 0.6684(3) 0.4319(6) 0.3188(3)
C18 C 0.6877(3) 0.5131(5) 0.2903(3)
C19 C 0.6839(4) 0.5351(6) 0.2327(3)
H9 H 0.6659 0.4945 0.2051
C20 C 0.7077(4) 0.6185(6) 0.2192(4)
H10 H 0.7052 0.6356 0.1815
C21 C 0.7365(4) 0.6800(6) 0.2614(3)
H11 H 0.7532 0.7357 0.2511
C22 C 0.7394(3) 0.6569(6) 0.3171(3)
H12 H 0.7583 0.6963 0.3449
C23 C 0.7143(3) 0.5752(5) 0.3310(3)
C24 C 0.7094(3) 0.5297(5) 0.3849(3)
C25 C 0.7331(3) 0.5229(5) 0.4813(3)
C26 C 0.7616(3) 0.5644(5) 0.5344(3)
C27 C 0.7898(3) 0.6463(6) 0.5472(4)
H13 H 0.7943 0.6897 0.5189
C28 C 0.8122(4) 0.6663(7) 0.6023(4)
H14 H 0.8305 0.7240 0.6117
C29 C 0.8065(3) 0.5975(6) 0.6438(3)
H15 H 0.8219 0.6107 0.6808
C30 C 0.7792(3) 0.5112(6) 0.6324(3)
H16 H 0.7759 0.4664 0.6604
C31 C 0.7568(3) 0.4955(5) 0.5762(3)
C32 C 0.7267(3) 0.4133(5) 0.5487(3)
loop_
_geom_bond_atom_site_label_1
_geom_bond_atom_site_label_2
_geom_bond_site_symmetry_1
_geom_bond_site_symmetry_2
Sb1 I1 1_555 1_555
Sb2 I1 1_555 1_555
I2 Sb1 1_555 1_555
I3 Sb1 1_555 1_555
I4 Sb1 1_555 1_555
I5 Sb2 1_555 1_555
I6 Sb2 1_555 1_555
I7 Sb1 1_555 1_555
Sb3 N1 1_555 1_555
N1 C1 1_555 1_555
N2 C8 1_555 1_555
N3 Sb3 1_555 1_555
N4 C16 1_555 1_555
N5 Sb3 1_555 1_555
N6 C24 1_555 1_555
N7 Sb3 1_555 1_555
N8 C1 1_555 1_555
C1 C2 1_555 1_555
C2 C3 1_555 1_555
C3 H1 1_555 1_555
C4 C3 1_555 1_555
H2 C4 1_555 1_555
C5 C4 1_555 1_555
H3 C5 1_555 1_555
C6 C5 1_555 1_555
H4 C6 1_555 1_555
C7 C2 1_555 1_555
C8 N1 1_555 1_555
C9 N2 1_555 1_555
C10 C9 1_555 1_555
C11 C10 1_555 1_555
H5 C11 1_555 1_555
C12 C11 1_555 1_555
H6 C12 1_555 1_555
C13 C12 1_555 1_555
H7 C13 1_555 1_555
C14 C13 1_555 1_555
H8 C14 1_555 1_555
C15 C10 1_555 1_555
C16 N3 1_555 1_555
C17 N4 1_555 1_555
C18 C17 1_555 1_555
C19 C18 1_555 1_555
H9 C19 1_555 1_555
C20 C19 1_555 1_555
H10 C20 1_555 1_555
C21 C20 1_555 1_555
H11 C21 1_555 1_555
C22 C21 1_555 1_555
H12 C22 1_555 1_555
C23 C18 1_555 1_555
C24 N5 1_555 1_555
C25 N6 1_555 1_555
C26 C25 1_555 1_555
C27 C26 1_555 1_555
H13 C27 1_555 1_555
C28 C27 1_555 1_555
H14 C28 1_555 1_555
C29 C28 1_555 1_555
H15 C29 1_555 1_555
C30 C29 1_555 1_555
H16 C30 1_555 1_555
C31 C26 1_555 1_555
C32 N7 1_555 1_555
Sb1B I2 1_555 1_555
Sb2D I4 1_555 1_555
I2B Sb1 1_555 1_555
I4D Sb2 1_555 1_555
I7D Sb2 1_555 1_555
Sb2 I4 1_555 1_555
I7 Sb2D 1_555 1_555
N3 C9 1_555 1_555
N5 C17 1_555 1_555
N7 C25 1_555 1_555
N8 C32 1_555 1_555
C6 C7 1_555 1_555
C7 C8 1_555 1_555
C14 C15 1_555 1_555
C15 C16 1_555 1_555
C22 C23 1_555 1_555
C23 C24 1_555 1_555
C30 C31 1_555 1_555
C31 C32 1_555 1_555
Sb1B I2B 1_555 1_555
Sb2D I4D 1_555 1_555

#END
