
#######################################################################
#
#                 Cambridge Crystallographic Data Centre
#                                CCDC 
#
#######################################################################
#
# If this CIF has been generated from an entry in the Cambridge 
# Structural Database, then it will include bibliographic, chemical, 
# crystal, experimental, refinement or atomic coordinate data resulting 
# from the CCDC's data processing and validation procedures.
#
#######################################################################

data_GAVTAZ
_symmetry_cell_setting           triclinic
_symmetry_space_group_name_H-M   'P -1'
_symmetry_Int_Tables_number      2
_space_group_name_Hall           '-P 1'
loop_
_symmetry_equiv_pos_site_id
_symmetry_equiv_pos_as_xyz
1 x,y,z
2 -x,-y,-z
_cell_length_a                   7.688(2)
_cell_length_b                   10.163(2)
_cell_length_c                   10.797(2)
_cell_angle_alpha                94.08(3)
_cell_angle_beta                 101.01(3)
_cell_angle_gamma                100.46(3)
_cell_volume                     809.407
loop_
_atom_site_label
_atom_site_type_symbol
_atom_site_fract_x
_atom_site_fract_y
_atom_site_fract_z
Mn1 Mn 0.5000 0.5000 0.5000
O6 O 0.2471(3) 0.5801(3) 0.4818(3)
O7 O 0.4249(3) 0.4573(3) 0.2964(3)
N1 N 0.3337(4) 0.2953(3) 0.5123(3)
C1 C 0.2211(6) 0.2843(4) 0.5917(4)
C2 C 0.0897(6) 0.1716(4) 0.5893(4)
C3 C 0.0704(4) 0.0615(3) 0.5025(3)
C4 C 0.1906(5) 0.0706(4) 0.4220(4)
C5 C 0.3166(5) 0.1880(4) 0.4301(4)
H1 H 0.213(6) 0.599(5) 0.550(3)
H2 H 0.163(4) 0.523(3) 0.433(3)
H3 H 0.314(2) 0.445(5) 0.259(4)
H4 H 0.493(6) 0.456(5) 0.243(4)
H9 H 0.2314 0.3566 0.6523
H10 H 0.0136 0.1699 0.6468
H11 H 0.1867 -0.0016 0.3630
H12 H 0.3951 0.1922 0.3741
Mn1_2 Mn -0.5000 -0.5000 0.5000
O6A O 0.7529(3) 0.4199(3) 0.5182(3)
O7A O 0.5751(3) 0.5427(3) 0.7036(3)
N1A N -0.3337(4) -0.2953(3) 0.4877(3)
N1A_2 N 0.6663(4) 0.7047(3) 0.4877(3)
C1A C -0.2211(6) -0.2843(4) 0.4083(4)
C2A C -0.0897(6) -0.1716(4) 0.4107(4)
C3A C -0.0704(4) -0.0615(3) 0.4975(3)
C4A C -0.1906(5) -0.0706(4) 0.5780(4)
C5A C -0.3166(5) -0.1880(4) 0.5699(4)
H1A H 0.787(6) 0.401(5) 0.450(3)
H2A H 0.837(4) 0.477(3) 0.567(3)
H3A H 0.686(2) 0.555(5) 0.741(4)
H4A H 0.507(6) 0.544(5) 0.757(4)
H9A H -0.2314 -0.3566 0.3477
H10A H -0.0136 -0.1699 0.3532
H11A H -0.1867 0.0016 0.6370
H12A H -0.3951 -0.1922 0.6259
Mn2 Mn 0.0000 0.5000 1.0000
O1 O -0.0672(3) 0.6088(2) 0.8310(2)
O2 O 0.0333(3) 0.6016(3) 0.6519(2)
O3 O 0.4536(3) 1.1873(2) 0.8933(2)
O4 O 0.6383(3) 1.4624(2) 1.1312(2)
O5 O 0.7252(3) 1.3919(2) 0.9574(2)
O8 O -0.0676(4) 0.6567(3) 1.1214(3)
C6 C 0.0305(4) 0.6601(3) 0.7577(3)
C7 C 0.1435(4) 0.7992(3) 0.7976(3)
C8 C 0.1346(5) 0.8729(3) 0.9076(3)
C9 C 0.2351(5) 1.0034(4) 0.9445(4)
C10 C 0.3492(4) 1.0607(3) 0.8686(3)
C11 C 0.3616(5) 0.9874(4) 0.7586(4)
C12 C 0.2582(5) 0.8581(4) 0.7223(4)
C13 C 0.4641(4) 1.2628(3) 1.0114(3)
C14 C 0.6207(4) 1.3827(3) 1.0338(3)
H5 H -0.155(5) 0.612(5) 1.148(5)
H6 H 0.021(4) 0.682(5) 1.184(3)
H13 H 0.0592 0.8345 0.9588
H14 H 0.2260 1.0513 1.0189
H15 H 0.4395 1.0247 0.7086
H16 H 0.2657 0.8106 0.6473
H17 H 0.4814 1.2062 1.0795
H18 H 0.3519 1.2939 1.0110
Mn2_2 Mn 1.0000 1.5000 1.0000
Mn2_3 Mn -1.0000 -0.5000 1.0000
O1A O 0.0672(3) 0.3912(2) 1.1690(2)
O2A O -0.0333(3) 0.3984(3) 1.3481(2)
O3A O -0.4536(3) -0.1873(2) 1.1067(2)
O4A O -0.6383(3) -0.4624(2) 0.8688(2)
O5A O -0.7252(3) -0.3919(2) 1.0426(2)
O5_2 O -0.2748(3) 0.3919(2) 0.9574(2)
O5A_2 O 0.2748(3) 0.6081(2) 1.0426(2)
O8A O 0.0676(4) 0.3433(3) 0.8786(3)
C6A C -0.0305(4) 0.3399(3) 1.2423(3)
C7A C -0.1435(4) 0.2008(3) 1.2024(3)
C8A C -0.1346(5) 0.1271(3) 1.0924(3)
C9A C -0.2351(5) -0.0034(4) 1.0555(4)
C10A C -0.3492(4) -0.0607(3) 1.1314(3)
C11A C -0.3616(5) 0.0126(4) 1.2414(4)
C12A C -0.2582(5) 0.1419(4) 1.2777(4)
C13A C -0.4641(4) -0.2628(3) 0.9886(3)
C14A C -0.6207(4) -0.3827(3) 0.9662(3)
H5A H 0.155(5) 0.388(5) 0.852(5)
H6A H -0.021(4) 0.318(5) 0.816(3)
H13A H -0.0592 0.1655 1.0412
H14A H -0.2260 -0.0513 0.9811
H15A H -0.4395 -0.0247 1.2914
H16A H -0.2657 0.1894 1.3527
H17A H -0.4814 -0.2062 0.9205
H18A H -0.3519 -0.2939 0.9890
O9 O 0.2645(4) 0.7645(3) 0.2788(3)
H7 H 0.306(8) 0.742(6) 0.214(4)
H8 H 0.284(9) 0.718(6) 0.340(5)
loop_
_geom_bond_atom_site_label_1
_geom_bond_atom_site_label_2
_geom_bond_site_symmetry_1
_geom_bond_site_symmetry_2
Mn1 O6 1_555 1_555
Mn2 O1 1_555 1_555
O1 C6 1_555 1_555
O2 C6 1_555 1_555
O3 C10 1_555 1_555
O4 C14 1_555 1_555
O5 C14 1_555 1_555
O6 H1 1_555 1_555
O7 Mn1 1_555 1_555
O8 Mn2 1_555 1_555
O9 H7 1_555 1_555
N1 Mn1 1_555 1_555
C1 N1 1_555 1_555
C2 C1 1_555 1_555
C3 C2 1_555 1_555
C4 C3 1_555 1_555
C5 N1 1_555 1_555
C6 C7 1_555 1_555
C7 C8 1_555 1_555
C8 C9 1_555 1_555
C9 C10 1_555 1_555
C10 C11 1_555 1_555
C11 C12 1_555 1_555
C12 C7 1_555 1_555
C13 O3 1_555 1_555
C14 C13 1_555 1_555
H2 O6 1_555 1_555
H3 O7 1_555 1_555
H4 O7 1_555 1_555
H5 O8 1_555 1_555
H6 O8 1_555 1_555
H8 O9 1_555 1_555
H9 C1 1_555 1_555
H10 C2 1_555 1_555
H11 C4 1_555 1_555
H12 C5 1_555 1_555
H13 C8 1_555 1_555
H14 C9 1_555 1_555
H15 C11 1_555 1_555
H16 C12 1_555 1_555
H17 C13 1_555 1_555
H18 C13 1_555 1_555
Mn1_2 N1A 1_555 1_555
Mn2_2 O5 1_555 1_555
Mn2_3 O5A 1_555 1_555
O1A Mn2 1_555 1_555
O2A C6A 1_555 1_555
O3A C10A 1_555 1_555
O4A C14A 1_555 1_555
O5A C14A 1_555 1_555
O5_2 Mn2 1_555 1_555
O5A_2 Mn2 1_555 1_555
O6A Mn1 1_555 1_555
O7A Mn1 1_555 1_555
O8A Mn2 1_555 1_555
N1A C1A 1_555 1_555
N1A_2 Mn1 1_555 1_555
C1A C2A 1_555 1_555
C2A C3A 1_555 1_555
C3A C3 1_555 1_555
C4A C3A 1_555 1_555
C5A N1A 1_555 1_555
C6A O1A 1_555 1_555
C7A C6A 1_555 1_555
C8A C7A 1_555 1_555
C9A C8A 1_555 1_555
C10A C9A 1_555 1_555
C11A C10A 1_555 1_555
C12A C7A 1_555 1_555
C13A O3A 1_555 1_555
C14A C13A 1_555 1_555
H1A O6A 1_555 1_555
H2A O6A 1_555 1_555
H3A O7A 1_555 1_555
H4A O7A 1_555 1_555
H5A O8A 1_555 1_555
H6A O8A 1_555 1_555
H9A C1A 1_555 1_555
H10A C2A 1_555 1_555
H11A C4A 1_555 1_555
H12A C5A 1_555 1_555
H13A C8A 1_555 1_555
H14A C9A 1_555 1_555
H15A C11A 1_555 1_555
H16A C12A 1_555 1_555
H17A C13A 1_555 1_555
H18A C13A 1_555 1_555
C4 C5 1_555 1_555
C4A C5A 1_555 1_555
C11A C12A 1_555 1_555

#END
