
#######################################################################
#
#                 Cambridge Crystallographic Data Centre
#                                CCDC 
#
#######################################################################
#
# If this CIF has been generated from an entry in the Cambridge 
# Structural Database, then it will include bibliographic, chemical, 
# crystal, experimental, refinement or atomic coordinate data resulting 
# from the CCDC's data processing and validation procedures.
#
#######################################################################

data_GAVTIH
_symmetry_cell_setting           triclinic
_symmetry_space_group_name_H-M   'P -1'
_symmetry_Int_Tables_number      2
_space_group_name_Hall           '-P 1'
loop_
_symmetry_equiv_pos_site_id
_symmetry_equiv_pos_as_xyz
1 x,y,z
2 -x,-y,-z
_cell_length_a                   6.8033(6)
_cell_length_b                   11.1687(10)
_cell_length_c                   12.6787(11)
_cell_angle_alpha                99.6840(10)
_cell_angle_beta                 98.1090(10)
_cell_angle_gamma                102.6140(10)
_cell_volume                     910.764
loop_
_atom_site_label
_atom_site_type_symbol
_atom_site_fract_x
_atom_site_fract_y
_atom_site_fract_z
Pb1 Pb 0.15034(3) 0.193427(16) 0.159983(14)
S1 S 0.2586(2) 0.90156(12) 0.12656(11)
O1 O -0.0915(6) 0.3402(4) 0.1710(4)
O2 O 0.2283(6) 0.4337(4) 0.1747(4)
O3 O 0.2009(7) 0.9436(4) 0.0262(4)
O4 O 0.2427(7) 0.9911(4) 0.2219(3)
O5 O 0.4528(6) 0.8681(4) 0.1356(4)
O6 O 0.5115(7) 0.2047(5) 0.1029(4)
N1 N 0.3803(7) 0.2865(4) 0.3411(4)
N2 N -0.0160(7) 0.1562(4) 0.3226(4)
C1 C 0.5711(10) 0.3545(6) 0.3499(6)
H1 H 0.6193 0.3700 0.2872
C2 C 0.6993(10) 0.4026(7) 0.4497(6)
H2 H 0.8308 0.4511 0.4530
C3 C 0.6371(11) 0.3804(9) 0.5422(7)
H3 H 0.7270 0.4089 0.6087
C4 C 0.4342(10) 0.3136(7) 0.5369(5)
C5 C 0.3480(13) 0.2892(9) 0.6308(5)
H4 H 0.4293 0.3193 0.6996
C6 C 0.1559(13) 0.2250(9) 0.6216(6)
H5 H 0.1054 0.2118 0.6842
C7 C 0.0235(11) 0.1754(7) 0.5174(5)
C8 C -0.1780(12) 0.1079(8) 0.5045(6)
H6 H -0.2338 0.0903 0.5647
C9 C -0.2940(12) 0.0673(8) 0.4017(7)
H7 H -0.4301 0.0229 0.3917
C10 C -0.2071(10) 0.0927(6) 0.3125(6)
H8 H -0.2869 0.0638 0.2432
C11 C 0.3090(8) 0.2671(5) 0.4333(4)
C12 C 0.1011(9) 0.1979(5) 0.4228(5)
C13 C 0.0416(9) 0.4325(5) 0.1628(5)
C14 C -0.0216(8) 0.5474(5) 0.1380(4)
C15 C 0.0703(8) 0.7634(5) 0.1216(4)
C16 C 0.1244(8) 0.6550(5) 0.1404(4)
H9 H 0.2623 0.6551 0.1549
C17 C -0.1377(8) 0.7626(5) 0.0989(4)
H10 H -0.1762 0.8347 0.0864
C18 C -0.2839(8) 0.6553(5) 0.0953(4)
H11 H -0.4219 0.6546 0.0791
C19 C -0.2289(8) 0.5477(5) 0.1154(4)
H12 H -0.3296 0.4759 0.1139
H13 H 0.634(4) 0.244(6) 0.132(4)
H14 H 0.511(8) 0.159(5) 0.042(3)
Pb1A Pb -0.15034(3) 0.806573(16) -0.159983(14)
Pb1_2 Pb 0.15034(3) 1.193427(16) 0.159983(14)
O3A O -0.2009(7) 0.0564(4) -0.0262(4)
O4_2 O 0.2427(7) -0.0089(4) 0.2219(3)
loop_
_geom_bond_atom_site_label_1
_geom_bond_atom_site_label_2
_geom_bond_site_symmetry_1
_geom_bond_site_symmetry_2
Pb1 O1 1_555 1_555
S1 O3 1_555 1_555
O1 C13 1_555 1_555
O2 Pb1 1_555 1_555
O3 Pb1A 1_555 1_555
O4 S1 1_555 1_555
O5 S1 1_555 1_555
O6 Pb1 1_555 1_555
N1 Pb1 1_555 1_555
N2 Pb1 1_555 1_555
C1 N1 1_555 1_555
H1 C1 1_555 1_555
C2 C1 1_555 1_555
H2 C2 1_555 1_555
C3 C2 1_555 1_555
H3 C3 1_555 1_555
C4 C3 1_555 1_555
C5 C4 1_555 1_555
H4 C5 1_555 1_555
C6 C5 1_555 1_555
H5 C6 1_555 1_555
C7 C6 1_555 1_555
C8 C7 1_555 1_555
H6 C8 1_555 1_555
C9 C8 1_555 1_555
H7 C9 1_555 1_555
C10 N2 1_555 1_555
H8 C10 1_555 1_555
C11 N1 1_555 1_555
C12 N2 1_555 1_555
C13 O2 1_555 1_555
C14 C13 1_555 1_555
C15 S1 1_555 1_555
C16 C14 1_555 1_555
H9 C16 1_555 1_555
C17 C15 1_555 1_555
H10 C17 1_555 1_555
C18 C17 1_555 1_555
H11 C18 1_555 1_555
C19 C14 1_555 1_555
H12 C19 1_555 1_555
H13 O6 1_555 1_555
H14 O6 1_555 1_555
Pb1_2 O4 1_555 1_555
O3A Pb1 1_555 1_555
O4_2 Pb1 1_555 1_555
C4 C11 1_555 1_555
C7 C12 1_555 1_555
C9 C10 1_555 1_555
C11 C12 1_555 1_555
C15 C16 1_555 1_555
C18 C19 1_555 1_555

#END
