
#######################################################################
#
#                 Cambridge Crystallographic Data Centre
#                                CCDC 
#
#######################################################################
#
# If this CIF has been generated from an entry in the Cambridge 
# Structural Database, then it will include bibliographic, chemical, 
# crystal, experimental, refinement or atomic coordinate data resulting 
# from the CCDC's data processing and validation procedures.
#
#######################################################################

data_GAVYEI
_symmetry_cell_setting           triclinic
_symmetry_space_group_name_H-M   'P -1'
_symmetry_Int_Tables_number      2
_space_group_name_Hall           '-P 1'
loop_
_symmetry_equiv_pos_site_id
_symmetry_equiv_pos_as_xyz
1 x,y,z
2 -x,-y,-z
_cell_length_a                   7.0098(4)
_cell_length_b                   11.2360(7)
_cell_length_c                   11.6818(7)
_cell_angle_alpha                98.2270(10)
_cell_angle_beta                 98.1470(10)
_cell_angle_gamma                102.2320(10)
_cell_volume                     875.753
loop_
_atom_site_label
_atom_site_type_symbol
_atom_site_fract_x
_atom_site_fract_y
_atom_site_fract_z
Pb1 Pb 0.85100(3) 0.297872(17) 0.343132(17)
S1 S 0.7450(2) -0.40708(13) 0.36744(14)
O1 O 1.1008(7) 0.1562(4) 0.3347(5)
O2 O 0.7901(7) 0.0650(4) 0.3336(4)
O3 O 0.7975(8) -0.4411(4) 0.4817(4)
O4 O 0.5578(7) -0.3725(4) 0.3532(5)
O5 O 0.7587(7) -0.5009(4) 0.2718(4)
O6 O 0.4922(8) 0.2836(5) 0.4024(5)
N1 N 0.6353(7) 0.2116(4) 0.1454(4)
N2 N 1.0125(8) 0.3380(5) 0.1689(4)
C1 C 0.9690(9) 0.0629(5) 0.3409(5)
C2 C 1.0259(9) -0.0571(5) 0.3526(5)
C3 C 0.8794(9) -0.1610(5) 0.3543(5)
H1 H 0.7480 -0.1557 0.3501
C4 C 0.9302(9) -0.2736(5) 0.3625(5)
C5 C 1.1255(9) -0.2820(6) 0.3678(6)
H2 H 1.1577 -0.3580 0.3698
C6 C 1.2737(9) -0.1770(6) 0.3700(6)
H3 H 1.4054 -0.1820 0.3770
C7 C 1.2246(10) -0.0648(6) 0.3619(6)
H4 H 1.3234 0.0053 0.3627
C8 C 0.4499(11) 0.1463(7) 0.1399(7)
H5 H 0.4085 0.1298 0.2094
C9 C 0.3166(13) 0.1020(9) 0.0349(8)
H6 H 0.1879 0.0572 0.0328
C10 C 0.3832(15) 0.1272(10) -0.0640(8)
H7 H 0.2984 0.0981 -0.1360
C11 C 0.5743(12) 0.1952(8) -0.0615(6)
H8 H 0.6167 0.2138 -0.1301
C12 C 0.7000(10) 0.2346(6) 0.0465(5)
C13 C 0.9078(10) 0.3041(6) 0.0590(6)
C14 C 0.9941(12) 0.3334(8) -0.0361(7)
H9 H 0.9213 0.3092 -0.1120
C15 C 1.1890(14) 0.3988(9) -0.0169(8)
H10 H 1.2480 0.4194 -0.0801
C16 C 1.2955(12) 0.4332(8) 0.0942(7)
H11 H 1.4275 0.4769 0.1083
C17 C 1.2016(10) 0.4014(6) 0.1856(7)
H12 H 1.2729 0.4251 0.2619
H13 H 0.500(9) 0.333(5) 0.466(4)
H14 H 0.374(4) 0.240(6) 0.381(6)
Pb1A Pb 1.14900(3) -0.297872(17) 0.656868(17)
Pb1_2 Pb 0.85100(3) -0.702128(17) 0.343132(17)
O3A O 1.2025(8) 0.4411(4) 0.5183(4)
O5_2 O 0.7587(7) 0.4991(4) 0.2718(4)
loop_
_geom_bond_atom_site_label_1
_geom_bond_atom_site_label_2
_geom_bond_site_symmetry_1
_geom_bond_site_symmetry_2
Pb1 O1 1_555 1_555
S1 O3 1_555 1_555
O1 C1 1_555 1_555
O2 Pb1 1_555 1_555
O3 Pb1A 1_555 1_555
O4 S1 1_555 1_555
O5 S1 1_555 1_555
O6 Pb1 1_555 1_555
N1 Pb1 1_555 1_555
N2 Pb1 1_555 1_555
C1 O2 1_555 1_555
C2 C1 1_555 1_555
C3 C2 1_555 1_555
H1 C3 1_555 1_555
C4 S1 1_555 1_555
C5 C4 1_555 1_555
H2 C5 1_555 1_555
C6 C5 1_555 1_555
H3 C6 1_555 1_555
C7 C2 1_555 1_555
H4 C7 1_555 1_555
C8 N1 1_555 1_555
H5 C8 1_555 1_555
C9 C8 1_555 1_555
H6 C9 1_555 1_555
C10 C9 1_555 1_555
H7 C10 1_555 1_555
C11 C10 1_555 1_555
H8 C11 1_555 1_555
C12 N1 1_555 1_555
C13 N2 1_555 1_555
C14 C13 1_555 1_555
H9 C14 1_555 1_555
C15 C14 1_555 1_555
H10 C15 1_555 1_555
C16 C15 1_555 1_555
H11 C16 1_555 1_555
C17 N2 1_555 1_555
H12 C17 1_555 1_555
H13 O6 1_555 1_555
H14 O6 1_555 1_555
Pb1_2 O5 1_555 1_555
O3A Pb1 1_555 1_555
O5_2 Pb1 1_555 1_555
C3 C4 1_555 1_555
C6 C7 1_555 1_555
C11 C12 1_555 1_555
C12 C13 1_555 1_555
C16 C17 1_555 1_555

#END
