
#######################################################################
#
#                 Cambridge Crystallographic Data Centre
#                                CCDC 
#
#######################################################################
#
# If this CIF has been generated from an entry in the Cambridge 
# Structural Database, then it will include bibliographic, chemical, 
# crystal, experimental, refinement or atomic coordinate data resulting 
# from the CCDC's data processing and validation procedures.
#
#######################################################################

data_GAWBAI
_symmetry_cell_setting           monoclinic
_symmetry_space_group_name_H-M   'P 21/c'
_symmetry_Int_Tables_number      14
_space_group_name_Hall           '-P 2ybc'
loop_
_symmetry_equiv_pos_site_id
_symmetry_equiv_pos_as_xyz
1 x,y,z
2 -x,1/2+y,1/2-z
3 -x,-y,-z
4 x,1/2-y,1/2+z
_cell_length_a                   9.354(2)
_cell_length_b                   14.876(3)
_cell_length_c                   10.231(2)
_cell_angle_alpha                90
_cell_angle_beta                 109.58(3)
_cell_angle_gamma                90
_cell_volume                     1341.32
loop_
_atom_site_label
_atom_site_type_symbol
_atom_site_fract_x
_atom_site_fract_y
_atom_site_fract_z
Zn1 Zn 0.38247(3) 0.47092(2) 0.36770(2)
O1 O 0.5176(2) 0.36370(10) 0.4570(2)
O2 O 0.6949(2) 0.40190(10) 0.6569(2)
O3 O 0.7574(2) -0.02370(10) 0.6673(2)
O4 O 0.7504(2) -0.05450(10) 1.0117(2)
O5 O 0.5660(2) -0.01750(10) 0.8144(2)
N1 N 0.2647(2) 0.40230(10) 0.1931(2)
C1 C 0.1163(3) 0.4094(2) 0.1328(3)
C2 C 0.0357(3) 0.3568(3) 0.0228(4)
C3 C 0.1128(3) 0.2933(2) -0.0271(3)
C4 C 0.2647(3) 0.2868(2) 0.0319(3)
C5 C 0.3372(3) 0.3426(2) 0.1411(2)
C6 C 0.6247(3) 0.34540(10) 0.5662(2)
C7 C 0.6682(2) 0.24840(10) 0.5919(2)
C8 C 0.6153(3) 0.18410(10) 0.4878(2)
C9 C 0.6477(3) 0.0939(2) 0.5160(2)
C10 C 0.7326(2) 0.06700(10) 0.6493(2)
C11 C 0.7869(3) 0.1301(2) 0.7542(2)
C12 C 0.7544(2) 0.22050(10) 0.7240(2)
C13 C 0.8096(3) -0.0568(2) 0.8055(3)
C14 C 0.6975(3) -0.04090(10) 0.8832(2)
H1 H 0.0643 0.4518 0.1664
H2 H -0.0688 0.3636 -0.0175
H3 H 0.0605 0.2558 -0.1002
H4 H 0.3193 0.2454 -0.0007
H5 H 0.4421 0.3384 0.1806
H6 H 0.5577 0.2019 0.3986
H7 H 0.6126 0.0514 0.4458
H8 H 0.8442 0.1122 0.8435
H9 H 0.7913 0.2630 0.7938
H10 H 0.9051 -0.0278 0.8560
H11 H 0.8285 -0.1208 0.8036
Zn1B Zn 0.61753(3) 0.52908(2) 0.63230(2)
Zn1A Zn 0.61753(3) -0.02908(2) 1.13230(2)
Zn1C Zn 0.38247(3) 0.02908(2) 0.86770(2)
O2B O 0.3051(2) 0.59810(10) 0.3431(2)
O4A O 0.2496(2) 0.44550(10) 0.4883(2)
O5C O 0.5660(2) 0.51750(10) 0.3144(2)
loop_
_geom_bond_atom_site_label_1
_geom_bond_atom_site_label_2
_geom_bond_site_symmetry_1
_geom_bond_site_symmetry_2
Zn1 O1 1_555 1_555
O1 C6 1_555 1_555
O2 C6 1_555 1_555
O3 C10 1_555 1_555
O4 C14 1_555 1_555
O5 C14 1_555 1_555
N1 Zn1 1_555 1_555
C1 N1 1_555 1_555
C2 C1 1_555 1_555
C3 C2 1_555 1_555
C4 C3 1_555 1_555
C5 N1 1_555 1_555
C6 C7 1_555 1_555
C7 C8 1_555 1_555
C8 C9 1_555 1_555
C9 C10 1_555 1_555
C10 C11 1_555 1_555
C11 C12 1_555 1_555
C12 C7 1_555 1_555
C13 O3 1_555 1_555
C14 C13 1_555 1_555
H1 C1 1_555 1_555
H2 C2 1_555 1_555
H3 C3 1_555 1_555
H4 C4 1_555 1_555
H5 C5 1_555 1_555
H6 C8 1_555 1_555
H7 C9 1_555 1_555
H8 C11 1_555 1_555
H9 C12 1_555 1_555
H10 C13 1_555 1_555
H11 C13 1_555 1_555
Zn1B Zn1 1_555 1_555
Zn1A O4 1_555 1_555
Zn1C O5 1_555 1_555
O2B Zn1 1_555 1_555
O4A Zn1 1_555 1_555
O5C Zn1 1_555 1_555
O2 Zn1B 1_555 1_555
C4 C5 1_555 1_555
Zn1A Zn1C 1_555 1_555

#END
