
#######################################################################
#
#                 Cambridge Crystallographic Data Centre
#                                CCDC 
#
#######################################################################
#
# If this CIF has been generated from an entry in the Cambridge 
# Structural Database, then it will include bibliographic, chemical, 
# crystal, experimental, refinement or atomic coordinate data resulting 
# from the CCDC's data processing and validation procedures.
#
#######################################################################

data_GAWCOW
_symmetry_cell_setting           monoclinic
_symmetry_space_group_name_H-M   'P 21/c'
_symmetry_Int_Tables_number      14
_space_group_name_Hall           '-P 2ybc'
loop_
_symmetry_equiv_pos_site_id
_symmetry_equiv_pos_as_xyz
1 x,y,z
2 -x,1/2+y,1/2-z
3 -x,-y,-z
4 x,1/2-y,1/2+z
_cell_length_a                   20.135(1)
_cell_length_b                   9.430(1)
_cell_length_c                   15.475(1)
_cell_angle_alpha                90
_cell_angle_beta                 110.74(2)
_cell_angle_gamma                90
_cell_volume                     2747.88
loop_
_atom_site_label
_atom_site_type_symbol
_atom_site_fract_x
_atom_site_fract_y
_atom_site_fract_z
Mn1 Mn -0.2537(1) 0.1155(2) 0.4940(1)
O1 O -0.1660(4) 0.2213(8) 0.5964(5)
O2 O -0.1763(4) -0.0509(8) 0.5132(5)
O3 O -0.3443(4) 0.2444(9) 0.4271(5)
O4 O -0.3260(4) -0.0529(8) 0.4370(5)
O5 O -0.2139(4) 0.1880(9) 0.3878(5)
O6 O -0.2974(4) 0.3986(9) 0.1030(5)
N1 N -0.2672(5) 0.3815(12) 0.1922(7)
N2 N -0.2325(5) 0.2848(11) 0.3253(7)
C1 C -0.2635(6) 0.2609(14) 0.2338(8)
C2 C -0.2474(7) 0.5057(14) 0.2518(8)
C3 C -0.2053(7) 0.4344(13) 0.3475(8)
C4 C -0.1020(7) 0.1888(14) 0.6193(8)
C5 C -0.1113(7) -0.0391(14) 0.5476(8)
C6 C -0.0708(8) 0.0715(14) 0.6006(8)
C7 C -0.0507(10) 0.3076(21) 0.6736(13)
C8 C -0.0726(9) -0.1637(19) 0.5251(12)
C9 C -0.4090(7) 0.2057(14) 0.4074(8)
C10 C -0.3915(8) -0.0448(14) 0.4212(8)
C11 C -0.4345(8) 0.0719(14) 0.4041(8)
C12 C -0.4592(10) 0.3286(19) 0.3873(12)
C13 C -0.4246(10) -0.1882(21) 0.4228(13)
C14 C -0.2904(8) 0.1226(17) 0.1890(10)
C15 C -0.3599(7) 0.0863(16) 0.1987(9)
C16 C -0.2393(8) 0.0092(17) 0.2063(11)
C17 C -0.2035(6) 0.6088(15) 0.2201(8)
C18 C -0.3161(7) 0.5748(15) 0.2497(9)
C19 C -0.2227(7) 0.4903(14) 0.4293(8)
C20 C -0.1260(6) 0.4262(13) 0.3708(8)
F1 F 0.0138(5) 0.2683(12) 0.7146(8)
F2 F -0.0705(5) 0.3574(13) 0.7386(7)
F3 F -0.0502(7) 0.4111(12) 0.6270(7)
F4 F -0.0033(4) -0.1537(10) 0.5556(6)
F5 F -0.0932(4) -0.1891(11) 0.4360(6)
F6 F -0.0863(5) -0.2816(10) 0.5627(7)
F7 F -0.5263(4) 0.2927(10) 0.3588(7)
F8 F -0.4528(5) 0.4078(10) 0.3179(7)
F9 F -0.4475(5) 0.4155(11) 0.4556(7)
F10 F -0.3947(6) -0.2577(11) 0.4987(8)
F11 F -0.4194(6) -0.2716(11) 0.3589(8)
F12 F -0.4919(6) -0.1883(11) 0.4089(9)
H1 H -0.0178(8) 0.0638(14) 0.6256(8)
H2 H -0.4867(8) 0.0585(14) 0.3884(8)
H3 H -0.3001(8) 0.1369(17) 0.1216(10)
H4 H -0.3770(7) -0.0070(16) 0.1682(9)
H5 H -0.3957(7) 0.1615(16) 0.1686(9)
H6 H -0.3534(7) 0.0800(16) 0.2657(9)
H7 H -0.2635(8) -0.0779(17) 0.1729(11)
H8 H -0.2188(8) -0.0108(17) 0.2742(11)
H9 H -0.2004(8) 0.0371(17) 0.1838(11)
H10 H -0.1911(6) 0.6922(15) 0.2627(8)
H11 H -0.2313(6) 0.6416(15) 0.1559(8)
H12 H -0.1589(6) 0.5613(15) 0.2206(8)
H13 H -0.3050(7) 0.6608(15) 0.2900(9)
H14 H -0.3438(7) 0.5060(15) 0.2727(9)
H15 H -0.3448(7) 0.6029(15) 0.1849(9)
H16 H -0.2044(7) 0.5894(14) 0.4436(8)
H17 H -0.2001(7) 0.4287(14) 0.4846(8)
H18 H -0.2754(7) 0.4900(14) 0.4131(8)
H19 H -0.1050(6) 0.5231(13) 0.3862(8)
H20 H -0.1158(6) 0.3881(13) 0.3165(8)
H21 H -0.1046(6) 0.3620(13) 0.4251(8)
O6C O -0.2974(4) 0.1014(9) 0.6030(5)
Mn1C Mn -0.2537(1) 0.3845(2) -0.0060(1)
loop_
_geom_bond_atom_site_label_1
_geom_bond_atom_site_label_2
_geom_bond_site_symmetry_1
_geom_bond_site_symmetry_2
Mn1 O1 1_555 1_555
O1 C4 1_555 1_555
O2 Mn1 1_555 1_555
O3 Mn1 1_555 1_555
O4 Mn1 1_555 1_555
O5 Mn1 1_555 1_555
O6 N1 1_555 1_555
N1 C1 1_555 1_555
N2 O5 1_555 1_555
C1 N2 1_555 1_555
C2 N1 1_555 1_555
C3 N2 1_555 1_555
C4 C6 1_555 1_555
C5 O2 1_555 1_555
C6 C5 1_555 1_555
C7 C4 1_555 1_555
C8 C5 1_555 1_555
C9 O3 1_555 1_555
C10 O4 1_555 1_555
C11 C9 1_555 1_555
C12 C9 1_555 1_555
C13 C10 1_555 1_555
C14 C1 1_555 1_555
C15 C14 1_555 1_555
C16 C14 1_555 1_555
C17 C2 1_555 1_555
C18 C2 1_555 1_555
C19 C3 1_555 1_555
C20 C3 1_555 1_555
F1 C7 1_555 1_555
F2 C7 1_555 1_555
F3 C7 1_555 1_555
F4 C8 1_555 1_555
F5 C8 1_555 1_555
F6 C8 1_555 1_555
F7 C12 1_555 1_555
F8 C12 1_555 1_555
F9 C12 1_555 1_555
F10 C13 1_555 1_555
F11 C13 1_555 1_555
F12 C13 1_555 1_555
H1 C6 1_555 1_555
H2 C11 1_555 1_555
H3 C14 1_555 1_555
H4 C15 1_555 1_555
H5 C15 1_555 1_555
H6 C15 1_555 1_555
H7 C16 1_555 1_555
H8 C16 1_555 1_555
H9 C16 1_555 1_555
H10 C17 1_555 1_555
H11 C17 1_555 1_555
H12 C17 1_555 1_555
H13 C18 1_555 1_555
H14 C18 1_555 1_555
H15 C18 1_555 1_555
H16 C19 1_555 1_555
H17 C19 1_555 1_555
H18 C19 1_555 1_555
H19 C20 1_555 1_555
H20 C20 1_555 1_555
H21 C20 1_555 1_555
O6C Mn1 1_555 1_555
Mn1C O6 1_555 1_555
C2 C3 1_555 1_555
C10 C11 1_555 1_555

#END
