
#######################################################################
#
#                 Cambridge Crystallographic Data Centre
#                                CCDC 
#
#######################################################################
#
# If this CIF has been generated from an entry in the Cambridge 
# Structural Database, then it will include bibliographic, chemical, 
# crystal, experimental, refinement or atomic coordinate data resulting 
# from the CCDC's data processing and validation procedures.
#
#######################################################################

data_GAWGOB
_symmetry_cell_setting           triclinic
_symmetry_space_group_name_H-M   'P -1'
_symmetry_Int_Tables_number      2
_space_group_name_Hall           '-P 1'
loop_
_symmetry_equiv_pos_site_id
_symmetry_equiv_pos_as_xyz
1 x,y,z
2 -x,-y,-z
_cell_length_a                   7.136(3)
_cell_length_b                   10.515(4)
_cell_length_c                   10.517(4)
_cell_angle_alpha                110.553(4)
_cell_angle_beta                 91.344(5)
_cell_angle_gamma                102.424(5)
_cell_volume                     717.369
loop_
_atom_site_label
_atom_site_type_symbol
_atom_site_fract_x
_atom_site_fract_y
_atom_site_fract_z
Ni1 Ni 0.5000 0.5000 0.0000
Ni2 Ni 0.5000 0.0000 0.5000
O1 O 0.2297(3) 0.19282(19) -0.17920(19)
O2 O 0.3963(3) 0.31286(18) 0.02536(19)
O3 O 0.4715(3) 0.0846(2) 0.3497(2)
O4 O 0.3463(3) -0.13798(19) 0.3001(2)
O5 O -0.0055(3) -0.42120(19) -0.1661(2)
O6 O -0.1058(3) -0.3097(2) -0.2888(2)
O7 O 0.2884(3) 0.45515(18) -0.16146(19)
H1 H 0.2001 0.4996 -0.1525
H2 H 0.2509 0.3696 -0.1710
O8 O 0.3363(3) 0.58689(19) 0.15250(19)
H3 H 0.3450 0.6743 0.1888
H4 H 0.2261 0.5337 0.1476
O9 O 0.2472(3) 0.0437(2) 0.5642(2)
H5 H 0.2599 0.0836 0.6506
H6 H 0.2002 0.0849 0.5193
C2 C 0.2642(4) 0.0707(3) -0.0316(3)
C3 C 0.3348(4) 0.0762(3) 0.0948(3)
H9 H 0.4059 0.1607 0.1581
C4 C 0.3007(4) -0.0428(3) 0.1279(3)
C5 C 0.1946(4) -0.1686(3) 0.0330(3)
H10 H 0.1715 -0.2487 0.0547
C6 C 0.1224(4) -0.1763(3) -0.0942(3)
C7 C 0.1556(4) -0.0557(3) -0.1242(3)
H11 H 0.1042 -0.0595 -0.2079
C8 C 0.2991(4) 0.2016(3) -0.0642(3)
C9 C 0.3768(4) -0.0316(3) 0.2658(3)
C10 C -0.0053(4) -0.3131(3) -0.1911(3)
Ni2_2 Ni 0.5000 1.0000 -0.5000
O1A O 0.7703(3) 0.80718(19) 0.17920(19)
O2A O 0.6037(3) 0.68714(18) -0.02536(19)
O3A O 0.5285(3) 0.9154(2) -0.3497(2)
O3A_2 O 0.5285(3) -0.0846(2) 0.6503(2)
O4A O 0.6537(3) 1.13798(19) -0.3001(2)
O4A_2 O 0.6537(3) 0.13798(19) 0.6999(2)
O5A O 1.0055(3) 1.42120(19) 0.1661(2)
O6A O 1.1058(3) 1.3097(2) 0.2888(2)
O7A O 0.7116(3) 0.54485(18) 0.16146(19)
H1A H 0.7999 0.5004 0.1525
H2A H 0.7491 0.6304 0.1710
O8A O 0.6637(3) 0.41311(19) -0.15250(19)
H3A H 0.6550 0.3257 -0.1888
H4A H 0.7739 0.4663 -0.1476
O9A O 0.7528(3) -0.0437(2) 0.4358(2)
H5A H 0.7401 -0.0836 0.3494
H6A H 0.7998 -0.0849 0.4807
C2A C 0.7358(4) 0.9293(3) 0.0316(3)
C3A C 0.6652(4) 0.9238(3) -0.0948(3)
H9A H 0.5941 0.8393 -0.1581
C4A C 0.6993(4) 1.0428(3) -0.1279(3)
C5A C 0.8054(4) 1.1686(3) -0.0330(3)
H10A H 0.8285 1.2487 -0.0547
C6A C 0.8776(4) 1.1763(3) 0.0942(3)
C7A C 0.8444(4) 1.0557(3) 0.1242(3)
H11A H 0.8958 1.0595 0.2079
C8A C 0.7009(4) 0.7984(3) 0.0642(3)
C9A C 0.6232(4) 1.0316(3) -0.2658(3)
C10A C 1.0053(4) 1.3131(3) 0.1911(3)
C1 C 0.5577(5) 0.3927(3) 0.5357(3)
H7 H 0.4394 0.3197 0.5121
H8 H 0.6570 0.3604 0.5715
C11 C 0.6174(4) 0.4202(3) 0.4100(3)
H12 H 0.7423 0.4861 0.4315
H13 H 0.6296 0.3337 0.3402
N1 N 0.5264(4) 0.5225(2) 0.6427(2)
H14 H 0.4851 0.5027 0.7154
H15 H 0.6392 0.5873 0.6705
C1A C 0.4423(5) 0.6073(3) 0.4643(3)
H7A H 0.5606 0.6803 0.4879
H8A H 0.3430 0.6396 0.4285
C11A C 0.3826(4) 0.5798(3) 0.5900(3)
H12A H 0.2577 0.5139 0.5685
H13A H 0.3704 0.6663 0.6598
N1A N 0.4736(4) 0.4775(2) 0.3573(2)
H14A H 0.5149 0.4973 0.2846
H15A H 0.3608 0.4127 0.3295
O10 O 0.0547(4) 0.2127(3) 0.4970(3)
H16 H 0.0573 0.2553 0.4416
H17 H -0.0488 0.1526 0.4923
loop_
_geom_bond_atom_site_label_1
_geom_bond_atom_site_label_2
_geom_bond_site_symmetry_1
_geom_bond_site_symmetry_2
Ni1 O2 1_555 1_555
Ni2 O3 1_555 1_555
O1 C8 1_555 1_555
O2 C8 1_555 1_555
O3 C9 1_555 1_555
O4 Ni2 1_555 1_555
O5 C10 1_555 1_555
O6 C10 1_555 1_555
O7 Ni1 1_555 1_555
H1 O7 1_555 1_555
H2 O7 1_555 1_555
O8 Ni1 1_555 1_555
H3 O8 1_555 1_555
H4 O8 1_555 1_555
O9 Ni2 1_555 1_555
H5 O9 1_555 1_555
H6 O9 1_555 1_555
C1 H7 1_555 1_555
H8 C1 1_555 1_555
C2 C3 1_555 1_555
C3 H9 1_555 1_555
C4 C3 1_555 1_555
C5 C4 1_555 1_555
H10 C5 1_555 1_555
C6 C5 1_555 1_555
C7 C2 1_555 1_555
H11 C7 1_555 1_555
C8 C2 1_555 1_555
C9 O4 1_555 1_555
C10 C6 1_555 1_555
C11 C1 1_555 1_555
H12 C11 1_555 1_555
H13 C11 1_555 1_555
N1 C1 1_555 1_555
H14 N1 1_555 1_555
H15 N1 1_555 1_555
O10 H16 1_555 1_555
H17 O10 1_555 1_555
Ni2_2 O3A 1_555 1_555
O1A C8A 1_555 1_555
O2A Ni1 1_555 1_555
O3A C9A 1_555 1_555
O3A_2 Ni2 1_555 1_555
O4A Ni2_2 1_555 1_555
O4A_2 Ni2 1_555 1_555
O5A C10A 1_555 1_555
O6A C10A 1_555 1_555
O7A Ni1 1_555 1_555
H1A O7A 1_555 1_555
H2A O7A 1_555 1_555
O8A Ni1 1_555 1_555
H3A O8A 1_555 1_555
H4A O8A 1_555 1_555
O9A Ni2 1_555 1_555
H5A O9A 1_555 1_555
H6A O9A 1_555 1_555
C1A H7A 1_555 1_555
H8A C1A 1_555 1_555
C2A C3A 1_555 1_555
C3A H9A 1_555 1_555
C4A C3A 1_555 1_555
C5A C4A 1_555 1_555
H10A C5A 1_555 1_555
C6A C5A 1_555 1_555
C7A C2A 1_555 1_555
H11A C7A 1_555 1_555
C8A O2A 1_555 1_555
C9A O4A 1_555 1_555
C10A C6A 1_555 1_555
C11A N1 1_555 1_555
H12A C11A 1_555 1_555
H13A C11A 1_555 1_555
N1A C11 1_555 1_555
H14A N1A 1_555 1_555
H15A N1A 1_555 1_555
C4 C9 1_555 1_555
C6 C7 1_555 1_555
C1A C11A 1_555 1_555
C1A N1A 1_555 1_555
C2A C8A 1_555 1_555
C4A C9A 1_555 1_555
C6A C7A 1_555 1_555

#END
