
#######################################################################
#
#                 Cambridge Crystallographic Data Centre
#                                CCDC 
#
#######################################################################
#
# If this CIF has been generated from an entry in the Cambridge 
# Structural Database, then it will include bibliographic, chemical, 
# crystal, experimental, refinement or atomic coordinate data resulting 
# from the CCDC's data processing and validation procedures.
#
#######################################################################

data_GAWGOB01
_symmetry_cell_setting           triclinic
_symmetry_space_group_name_H-M   'P -1'
_symmetry_Int_Tables_number      2
_space_group_name_Hall           '-P 1'
loop_
_symmetry_equiv_pos_site_id
_symmetry_equiv_pos_as_xyz
1 x,y,z
2 -x,-y,-z
_cell_length_a                   7.157(2)
_cell_length_b                   10.466(3)
_cell_length_c                   10.495(3)
_cell_angle_alpha                110.779(4)
_cell_angle_beta                 92.232(5)
_cell_angle_gamma                101.891(4)
_cell_volume                     713.81
loop_
_atom_site_label
_atom_site_type_symbol
_atom_site_fract_x
_atom_site_fract_y
_atom_site_fract_z
Ni1 Ni 0.5000 0.5000 0.5000
Ni2 Ni 0.5000 0.0000 1.0000
O1 O 0.3993(4) 0.3135(3) 0.5240(3)
O2 O 0.6638(4) 0.4143(3) 0.3500(3)
O3 O 0.2895(4) 0.4550(3) 0.3372(3)
O4 O 0.2385(5) 0.0330(4) 1.0567(4)
O5 O 0.4764(5) 0.0887(3) 0.8536(3)
O6 O 0.3613(5) -0.1358(3) 0.8006(3)
O7 O 0.2249(5) 0.1926(3) 0.3200(3)
O8 O -0.0083(4) -0.4211(3) 0.3355(3)
O9 O -0.1090(5) -0.3082(3) 0.2119(3)
C1 C 0.2647(5) 0.0723(4) 0.4686(4)
C2 C 0.3413(5) 0.0786(4) 0.5948(4)
H1 H 0.4164 0.1631 0.6571
C3 C 0.3065(6) -0.0407(4) 0.6291(4)
C4 C 0.1981(6) -0.1673(4) 0.5346(4)
H2 H 0.1759 -0.2472 0.5568
C5 C 0.1224(5) -0.1756(4) 0.4071(4)
C6 C 0.1543(6) -0.0556(4) 0.3753(4)
H3 H 0.1016 -0.0605 0.2909
C7 C 0.2988(6) 0.2017(4) 0.4346(4)
C8 C 0.3859(6) -0.0291(4) 0.7671(4)
C9 C -0.0073(6) -0.3116(4) 0.3099(4)
H8 H 0.224(10) 0.079(7) 1.150(2)
H9 H 0.161(11) 0.071(9) 1.009(8)
H11 H 0.182(6) 0.495(7) 0.354(7)
H12 H 0.786(4) 0.464(5) 0.340(6)
H13 H 0.225(10) 0.363(3) 0.329(8)
H14 H 0.637(13) 0.3150(14) 0.306(8)
Ni2_2 Ni 0.5000 1.0000 0.0000
O1A O 0.6007(4) 0.6865(3) 0.4760(3)
O2A O 0.3362(4) 0.5857(3) 0.6500(3)
O3A O 0.7105(4) 0.5450(3) 0.6628(3)
O4A O 0.7615(5) -0.0330(4) 0.9433(4)
O5A O 0.5236(5) -0.0887(3) 1.1464(3)
O5A_2 O 0.5236(5) 0.9113(3) 0.1464(3)
O6A O 0.6387(5) 0.1358(3) 1.1994(3)
O6A_2 O 0.6387(5) 1.1358(3) 0.1994(3)
O7A O 0.7751(5) 0.8074(3) 0.6800(3)
O8A O 1.0083(4) 1.4211(3) 0.6645(3)
O9A O 1.1090(5) 1.3082(3) 0.7881(3)
C1A C 0.7353(5) 0.9277(4) 0.5314(4)
C2A C 0.6587(5) 0.9214(4) 0.4052(4)
H1A H 0.5836 0.8369 0.3429
C3A C 0.6935(6) 1.0407(4) 0.3709(4)
C4A C 0.8019(6) 1.1673(4) 0.4654(4)
H2A H 0.8241 1.2472 0.4432
C5A C 0.8776(5) 1.1756(4) 0.5929(4)
C6A C 0.8457(6) 1.0556(4) 0.6247(4)
H3A H 0.8984 1.0605 0.7091
C7A C 0.7012(6) 0.7983(4) 0.5654(4)
C8A C 0.6141(6) 1.0291(4) 0.2329(4)
C9A C 1.0073(6) 1.3116(4) 0.6901(4)
H8A H 0.776(10) -0.079(7) 0.850(2)
H9A H 0.839(11) -0.071(9) 0.991(8)
H11A H 0.818(6) 0.505(7) 0.646(7)
H12A H 0.214(4) 0.536(5) 0.660(6)
H13A H 0.775(10) 0.637(3) 0.671(8)
H14A H 0.363(13) 0.6850(14) 0.694(8)
O10 O 0.0495(9) 0.2127(6) -0.0039(7)
H15 H 0.102(8) 0.141(4) -0.014(6)
H16 H -0.045(4) 0.147(3) 0.004(4)
N1 N 0.3790(7) 0.5763(5) 0.0873(5)
C10 C 0.4345(8) 0.6043(5) -0.0379(5)
H4 H 0.3317 0.6331 -0.0755
H5 H 0.5490 0.6803 -0.0131
C11 C 0.5278(6) 0.5237(4) 0.1434(4)
H6 H 0.4851 0.5020 0.2215
H7 H 0.6460 0.5966 0.1749
H10 H 0.237(8) 0.492(6) 0.065(5)
H17 H 0.368(9) 0.688(7) 0.169(6)
N1A N 0.6210(7) 0.4237(5) -0.0873(5)
C10A C 0.5655(8) 0.3957(5) 0.0379(5)
H4A H 0.6683 0.3669 0.0755
H5A H 0.4510 0.3197 0.0131
C11A C 0.4722(6) 0.4763(4) -0.1434(4)
H6A H 0.5149 0.4980 -0.2215
H7A H 0.3540 0.4034 -0.1749
H10A H 0.763(8) 0.508(6) -0.065(5)
H17A H 0.632(9) 0.312(7) -0.169(6)
loop_
_geom_bond_atom_site_label_1
_geom_bond_atom_site_label_2
_geom_bond_site_symmetry_1
_geom_bond_site_symmetry_2
Ni1 O1 1_555 1_555
Ni2 O4 1_555 1_555
O1 C7 1_555 1_555
O2 Ni1 1_555 1_555
O3 Ni1 1_555 1_555
O4 H8 1_555 1_555
O5 Ni2 1_555 1_555
O6 Ni2 1_555 1_555
O7 C7 1_555 1_555
O8 C9 1_555 1_555
O9 C9 1_555 1_555
O10 H15 1_555 1_555
N1 C10 1_555 1_555
C1 C2 1_555 1_555
C2 H1 1_555 1_555
C3 C2 1_555 1_555
C4 C3 1_555 1_555
H2 C4 1_555 1_555
C5 C4 1_555 1_555
C6 C1 1_555 1_555
H3 C6 1_555 1_555
C7 C1 1_555 1_555
C8 O5 1_555 1_555
C9 C5 1_555 1_555
C10 H4 1_555 1_555
H5 C10 1_555 1_555
C11 N1 1_555 1_555
H6 C11 1_555 1_555
H7 C11 1_555 1_555
H9 O4 1_555 1_555
H10 N1 1_555 1_555
H11 O3 1_555 1_555
H12 O2 1_555 1_555
H13 O3 1_555 1_555
H14 O2 1_555 1_555
H16 O10 1_555 1_555
H17 N1 1_555 1_555
Ni2_2 O5A_2 1_555 1_555
O1A Ni1 1_555 1_555
O2A Ni1 1_555 1_555
O3A Ni1 1_555 1_555
O4A Ni2 1_555 1_555
O5A Ni2 1_555 1_555
O5A_2 C8A 1_555 1_555
O6A Ni2 1_555 1_555
O6A_2 Ni2_2 1_555 1_555
O7A C7A 1_555 1_555
O8A C9A 1_555 1_555
O9A C9A 1_555 1_555
N1A C10A 1_555 1_555
C1A C2A 1_555 1_555
C2A H1A 1_555 1_555
C3A C2A 1_555 1_555
C4A C3A 1_555 1_555
H2A C4A 1_555 1_555
C5A C4A 1_555 1_555
C6A C1A 1_555 1_555
H3A C6A 1_555 1_555
C7A O1A 1_555 1_555
C8A O6A_2 1_555 1_555
C9A C5A 1_555 1_555
C10A C11 1_555 1_555
H4A C10A 1_555 1_555
H5A C10A 1_555 1_555
C11A C10 1_555 1_555
H6A C11A 1_555 1_555
H7A C11A 1_555 1_555
H8A O4A 1_555 1_555
H9A O4A 1_555 1_555
H10A N1A 1_555 1_555
H11A O3A 1_555 1_555
H12A O2A 1_555 1_555
H13A O3A 1_555 1_555
H14A O2A 1_555 1_555
H17A N1A 1_555 1_555
O6 C8 1_555 1_555
C3 C8 1_555 1_555
C5 C6 1_555 1_555
N1A C11A 1_555 1_555
C1A C7A 1_555 1_555
C3A C8A 1_555 1_555
C5A C6A 1_555 1_555

#END
