
#######################################################################
#
#                 Cambridge Crystallographic Data Centre
#                                CCDC 
#
#######################################################################
#
# If this CIF has been generated from an entry in the Cambridge 
# Structural Database, then it will include bibliographic, chemical, 
# crystal, experimental, refinement or atomic coordinate data resulting 
# from the CCDC's data processing and validation procedures.
#
#######################################################################

data_GAWHOD
_symmetry_cell_setting           monoclinic
_symmetry_space_group_name_H-M   'C 2/c'
_symmetry_Int_Tables_number      15
_space_group_name_Hall           '-C 2yn'
loop_
_symmetry_equiv_pos_site_id
_symmetry_equiv_pos_as_xyz
1 x,y,z
2 -x,y,1/2-z
3 1/2+x,1/2+y,z
4 1/2-x,1/2+y,1/2-z
5 -x,-y,-z
6 x,-y,1/2+z
7 1/2-x,1/2-y,-z
8 1/2+x,1/2-y,1/2+z
_cell_length_a                   20.593(4)
_cell_length_b                   16.513(2)
_cell_length_c                   17.963(3)
_cell_angle_alpha                90
_cell_angle_beta                 117.938(3)
_cell_angle_gamma                90
_cell_volume                     5396.46
loop_
_atom_site_label
_atom_site_type_symbol
_atom_site_fract_x
_atom_site_fract_y
_atom_site_fract_z
Cd1 Cd 0.20245(4) 0.40181(4) 0.13714(5)
Cd2 Cd 0.07858(4) 0.39377(4) -0.13048(5)
Cd3 Cd 0.5000 0.5000 0.5000
Cd4 Cd 0.39636(4) 0.69541(4) 0.41470(5)
Cd5 Cd 0.2500 0.2500 0.5000
C1 C 0.1389(6) 0.5039(7) 0.2498(8)
H1 H 0.1808 0.4871 0.2977
C2 C 0.0626(7) 0.5242(9) 0.1257(8)
H2 H 0.0393 0.5251 0.0671
C3 C 0.4302(7) 0.2658(8) 0.5503(8)
H3 H 0.4378 0.2107 0.5622
C4 C 0.3816(6) 0.3802(7) 0.5187(8)
H4 H 0.3471 0.4218 0.5027
C5 C 0.2994(6) 0.5512(7) 0.2687(8)
H5 H 0.2624 0.5879 0.2369
C6 C 0.3635(7) 0.4473(8) 0.3066(8)
H6 H 0.3810 0.3951 0.3082
C7 C 0.2619(6) 0.1605(7) 0.0944(8)
H7 H 0.2490 0.1061 0.0850
C8 C 0.3207(6) 0.2691(6) 0.1171(7)
H8 H 0.3578 0.3065 0.1276
C9 C 0.2366(7) 0.5611(7) 0.0569(8)
H9 H 0.2763 0.5719 0.1092
C10 C 0.1546(6) 0.5738(7) -0.0672(7)
H10 H 0.1248 0.5953 -0.1203
C11 C 0.1497(7) 0.2288(7) 0.2872(8)
H11 H 0.1188 0.1896 0.2906
C12 C 0.2330(6) 0.3130(7) 0.3184(7)
H12 H 0.2740 0.3454 0.3489
N1 N 0.1470(5) 0.5001(5) -0.0457(6)
N2 N 0.2026(5) 0.4911(5) 0.0376(6)
N3 N 0.2092(5) 0.6154(5) -0.0054(6)
N4 N 0.1975(5) 0.3153(5) 0.2375(6)
N5 N 0.1420(5) 0.2585(5) 0.2154(6)
N6 N 0.2077(5) 0.2616(5) 0.3559(6)
N7 N 0.3576(5) 0.5704(6) 0.3420(7)
N8 N 0.4001(5) 0.5032(5) 0.3656(7)
N9 N 0.2997(5) 0.4739(6) 0.2453(6)
N10 N 0.4830(5) 0.3160(5) 0.5528(6)
N11 N 0.4492(5) 0.3908(5) 0.5334(6)
N12 N 0.3665(5) 0.3022(5) 0.5293(6)
N13 N 0.2551(5) 0.2887(5) 0.1100(6)
N14 N 0.2171(5) 0.2162(6) 0.0962(6)
N15 N 0.3273(5) 0.1878(6) 0.1072(6)
N16 N 0.1278(5) 0.4900(6) 0.1718(6)
N17 N 0.0338(5) 0.5567(6) 0.1708(6)
N18 N 0.0838(5) 0.5443(6) 0.2527(6)
O1 O 0.0000 0.2985(8) -0.2500
H13 H 0.0265 0.2686 -0.2634
Cl1 Cl 0.07021(15) 0.34311(15) 0.01118(17)
Cl2 Cl 0.42988(19) 0.60333(19) 0.5518(2)
Cd1D Cd 0.79755(4) 0.59819(4) 0.86286(5)
Cd1C Cd 0.29755(4) 0.90181(4) 0.36286(5)
Cd1E Cd 0.20245(4) 0.59819(4) 0.63714(5)
Cd2E Cd 0.07858(4) 0.60623(4) 0.36952(5)
Cd2F Cd 0.42142(4) 0.10623(4) 0.13048(5)
Cd2D Cd -0.07858(4) 0.60623(4) 0.13048(5)
Cd2A Cd -0.07858(4) 0.39377(4) -0.36952(5)
Cd2C Cd 0.42142(4) 0.89377(4) 0.63048(5)
Cd2_2 Cd 1.07858(4) 0.39377(4) 0.86952(5)
Cd2A_2 Cd 0.92142(4) 0.39377(4) 0.63048(5)
Cd4D Cd 0.60364(4) 0.30459(4) 0.58530(5)
Cd4C Cd 0.10364(4) 0.19541(4) 0.08530(5)
Cd5C Cd 0.2500 0.7500 0.0000
Cd5B Cd 0.7500 0.7500 0.5000
C1D C 0.8611(6) 0.4961(7) 0.7502(8)
H1D H 0.8192 0.5129 0.7023
C2D C 0.9374(7) 0.4758(9) 0.8743(8)
H2D H 0.9607 0.4749 0.9329
C3D C 0.5698(7) 0.7342(8) 0.4497(8)
H3D H 0.5622 0.7893 0.4378
C4D C 0.6184(6) 0.6198(7) 0.4813(8)
H4D H 0.6529 0.5782 0.4973
C5D C 0.7006(6) 0.4488(7) 0.7313(8)
H5D H 0.7376 0.4121 0.7631
C6D C 0.6365(7) 0.5527(8) 0.6934(8)
H6D H 0.6190 0.6049 0.6918
C7C C 0.2381(6) 0.6605(7) 0.4056(8)
H7C H 0.2510 0.6061 0.4150
C8C C 0.1793(6) 0.7691(6) 0.3829(7)
H8C H 0.1422 0.8065 0.3724
C9E C 0.2366(7) 0.4389(7) 0.5569(8)
H9E H 0.2763 0.4281 0.6092
C10E C 0.1546(6) 0.4262(7) 0.4328(7)
H10E H 0.1248 0.4047 0.3797
C11C C 0.3503(7) 0.7288(7) 0.2128(8)
H11C H 0.3812 0.6896 0.2094
C12C C 0.2670(6) 0.8130(7) 0.1816(7)
H12C H 0.2260 0.8454 0.1511
N1E N 0.1470(5) 0.4999(5) 0.4543(6)
N2E N 0.2026(5) 0.5089(5) 0.5376(6)
N2D N 0.7974(5) 0.5089(5) 0.9624(6)
N3E N 0.2092(5) 0.3846(5) 0.4946(6)
N3C N 0.2908(5) 0.1154(5) 0.5054(6)
N4C N 0.3025(5) 0.8153(5) 0.2625(6)
N4D N 0.8025(5) 0.6847(5) 0.7625(6)
N5C N 0.3580(5) 0.7585(5) 0.2846(6)
N5G N 0.6420(5) 0.2415(5) 0.7154(6)
N6C N 0.2923(5) 0.7616(5) 0.1441(6)
N6F N 0.2923(5) 0.2384(5) 0.6441(6)
N7D N 0.6424(5) 0.4296(6) 0.6580(7)
N8D N 0.5999(5) 0.4968(5) 0.6344(7)
N9D N 0.7003(5) 0.5261(6) 0.7547(6)
N10D N 0.5170(5) 0.6840(5) 0.4472(6)
N11D N 0.5508(5) 0.6092(5) 0.4666(6)
N12D N 0.6335(5) 0.6978(5) 0.4707(6)
N12F N 0.1335(5) 0.1978(5) 0.4707(6)
N13C N 0.2449(5) 0.7887(5) 0.3900(6)
N13D N 0.7449(5) 0.7113(5) 0.8900(6)
N14C N 0.2829(5) 0.7162(6) 0.4038(6)
N14G N 0.7171(5) 0.2838(6) 0.5962(6)
N15C N 0.1727(5) 0.6878(6) 0.3928(6)
N15F N 0.1727(5) 0.3122(6) -0.1072(6)
N16D N 0.8722(5) 0.5100(6) 0.8282(6)
N17D N 0.9662(5) 0.4433(6) 0.8292(6)
N17D_2 N -0.0338(5) 0.4433(6) -0.1708(6)
N17A N -0.0338(5) 0.5567(6) 0.3292(6)
N18D N 0.9162(5) 0.4557(6) 0.7473(6)
N18E N 0.0838(5) 0.4557(6) -0.2473(6)
O1D O 0.0000 0.7015(8) 0.2500
H13A H -0.0265 0.2686 -0.2366
H13E H 0.0265 0.7314 0.2366
H13D H -0.0265 0.7314 0.2634
Cl1C Cl 0.42979(15) 0.84311(15) 0.48882(17)
Cl1D Cl 0.92979(15) 0.65689(15) 0.98882(17)
Cl1G Cl 0.57021(15) 0.15689(15) 0.51118(17)
Cl1E Cl 0.07021(15) 0.65689(15) 0.51118(17)
Cl2D Cl 0.57012(19) 0.39667(19) 0.4482(2)
O2 O 0.0578(10) 0.7636(9) 0.1548(10)
H14 H 0.1049 0.7663 0.2041
H15 H 0.0653 0.7602 0.1060
loop_
_geom_bond_atom_site_label_1
_geom_bond_atom_site_label_2
_geom_bond_site_symmetry_1
_geom_bond_site_symmetry_2
Cd1 N2 1_555 1_555
Cd2 N1 1_555 1_555
Cd3 N8 1_555 1_555
Cd4 N7 1_555 1_555
Cd5 N6 1_555 1_555
C1 H1 1_555 1_555
C2 H2 1_555 1_555
C3 H3 1_555 1_555
C4 H4 1_555 1_555
C5 H5 1_555 1_555
C6 H6 1_555 1_555
C7 H7 1_555 1_555
C8 H8 1_555 1_555
C9 H9 1_555 1_555
C10 H10 1_555 1_555
C11 H11 1_555 1_555
C12 H12 1_555 1_555
N1 C10 1_555 1_555
N2 C9 1_555 1_555
N3 C9 1_555 1_555
N4 Cd1 1_555 1_555
N5 C11 1_555 1_555
N6 C11 1_555 1_555
N7 C5 1_555 1_555
N8 C6 1_555 1_555
N9 Cd1 1_555 1_555
N10 C3 1_555 1_555
N11 Cd3 1_555 1_555
N12 Cd5 1_555 1_555
N13 Cd1 1_555 1_555
N14 C7 1_555 1_555
N15 C7 1_555 1_555
N16 Cd1 1_555 1_555
N17 C2 1_555 1_555
N18 C1 1_555 1_555
O1 Cd2 1_555 1_555
H13 O1 1_555 1_555
O2 H14 1_555 1_555
H15 O2 1_555 1_555
Cl1 Cd1 1_555 1_555
Cl2 Cd3 1_555 1_555
Cd1D N2D 1_555 1_555
Cd1C N4C 1_555 1_555
Cd1E N2E 1_555 1_555
Cd2E N18 1_555 1_555
Cd2F N15 1_555 1_555
Cd2D N17 1_555 1_555
Cd2A O1 1_555 1_555
Cd2C Cl1C 1_555 1_555
Cd2_2 N17D 1_555 1_555
Cd2A_2 N18D 1_555 1_555
Cd4D N10 1_555 1_555
Cd4C N5 1_555 1_555
Cd5C N3 1_555 1_555
Cd5B N12D 1_555 1_555
C1D H1D 1_555 1_555
C2D H2D 1_555 1_555
C3D H3D 1_555 1_555
C4D H4D 1_555 1_555
C5D H5D 1_555 1_555
C6D H6D 1_555 1_555
C7C H7C 1_555 1_555
C8C H8C 1_555 1_555
C9E H9E 1_555 1_555
C10E H10E 1_555 1_555
C11C H11C 1_555 1_555
C12C H12C 1_555 1_555
N1E Cd2E 1_555 1_555
N2E C9E 1_555 1_555
N3E Cd5 1_555 1_555
N3C Cd5 1_555 1_555
N4C C12C 1_555 1_555
N4D Cd1D 1_555 1_555
N5C Cd4 1_555 1_555
N5G Cd4D 1_555 1_555
N6C Cd5C 1_555 1_555
N6F Cd5 1_555 1_555
N7D Cd4D 1_555 1_555
N8D Cd3 1_555 1_555
N9D Cd1D 1_555 1_555
N10D Cd4 1_555 1_555
N11D Cd3 1_555 1_555
N12D C3D 1_555 1_555
N12F Cd5 1_555 1_555
N13C Cd1C 1_555 1_555
N13D Cd1D 1_555 1_555
N14C Cd4 1_555 1_555
N14G Cd4D 1_555 1_555
N15C Cd2E 1_555 1_555
N15F Cd2 1_555 1_555
N16D Cd1D 1_555 1_555
N17D C2D 1_555 1_555
N17D_2 Cd2 1_555 1_555
N17A Cd2E 1_555 1_555
N18D C1D 1_555 1_555
N18E Cd2 1_555 1_555
O1D Cd2E 1_555 1_555
H13A O1 1_555 1_555
H13E O1D 1_555 1_555
H13D O1D 1_555 1_555
Cl1C Cd4 1_555 1_555
Cl1D Cd1D 1_555 1_555
Cl1G Cd4D 1_555 1_555
Cl1E Cd1E 1_555 1_555
Cl2D Cd3 1_555 1_555
Cd2 Cl1 1_555 1_555
Cd4 Cl2 1_555 1_555
C1 N16 1_555 1_555
C2 N16 1_555 1_555
C3 N12 1_555 1_555
C4 N11 1_555 1_555
C4 N12 1_555 1_555
C5 N9 1_555 1_555
C6 N9 1_555 1_555
C8 N13 1_555 1_555
C8 N15 1_555 1_555
C10 N3 1_555 1_555
C12 N4 1_555 1_555
C12 N6 1_555 1_555
N1 N2 1_555 1_555
N4 N5 1_555 1_555
N7 N8 1_555 1_555
N10 N11 1_555 1_555
N13 N14 1_555 1_555
N14 Cd4C 1_555 1_555
N17 N18 1_555 1_555
Cl1 Cd4C 1_555 1_555
Cd1C Cl1C 1_555 1_555
Cd2E Cl1E 1_555 1_555
Cd2D O1D 1_555 1_555
Cd4D Cl2D 1_555 1_555
C1D N16D 1_555 1_555
C2D N16D 1_555 1_555
C3D N10D 1_555 1_555
C4D N11D 1_555 1_555
C4D N12D 1_555 1_555
C5D N7D 1_555 1_555
C5D N9D 1_555 1_555
C6D N8D 1_555 1_555
C6D N9D 1_555 1_555
C7C N14C 1_555 1_555
C7C N15C 1_555 1_555
C8C N13C 1_555 1_555
C8C N15C 1_555 1_555
C9E N3E 1_555 1_555
C10E N1E 1_555 1_555
C10E N3E 1_555 1_555
C11C N5C 1_555 1_555
C11C N6C 1_555 1_555
C12C N6C 1_555 1_555
N1E N2E 1_555 1_555
N4C N5C 1_555 1_555
N7D N8D 1_555 1_555
N10D N11D 1_555 1_555
N13C N14C 1_555 1_555
N17D N18D 1_555 1_555

#END
