
#######################################################################
#
#                 Cambridge Crystallographic Data Centre
#                                CCDC 
#
#######################################################################
#
# If this CIF has been generated from an entry in the Cambridge 
# Structural Database, then it will include bibliographic, chemical, 
# crystal, experimental, refinement or atomic coordinate data resulting 
# from the CCDC's data processing and validation procedures.
#
#######################################################################

data_GAWJOF
_symmetry_cell_setting           orthorhombic
_symmetry_space_group_name_H-M   'P c a 21'
_symmetry_Int_Tables_number      29
_space_group_name_Hall           'P 2c -2ac'
loop_
_symmetry_equiv_pos_site_id
_symmetry_equiv_pos_as_xyz
1 x,y,z
2 -x,-y,1/2+z
3 1/2+x,-y,z
4 1/2-x,y,1/2+z
_cell_length_a                   13.0325(4)
_cell_length_b                   5.37760(10)
_cell_length_c                   17.1501(4)
_cell_angle_alpha                90
_cell_angle_beta                 90
_cell_angle_gamma                90
_cell_volume                     1201.94
loop_
_atom_site_label
_atom_site_type_symbol
_atom_site_fract_x
_atom_site_fract_y
_atom_site_fract_z
Ag1 Ag 0.83606(12) 0.0368(2) 0.50124(8)
Ag2 Ag 0.67686(13) 0.5519(3) 0.39128(8)
Ag3 Ag 0.57163(13) 0.0503(3) 0.51630(8)
Ag4 Ag 0.41230(13) 0.5325(2) 0.40953(9)
O1 O 0.5329(7) 0.2774(19) 0.3373(7)
O2 O 0.5551(7) -0.0971(17) 0.3949(8)
O3 O 0.7934(7) -0.082(2) 0.3801(7)
O4 O 0.8177(6) 0.2759(18) 0.3177(6)
O5 O 0.6665(6) -0.2544(14) 0.2597(6)
O6 O 0.6963(6) -0.5912(19) 0.5188(9)
O7 O 0.7160(6) -0.2230(18) 0.5679(7)
O8 O 0.4561(8) -0.582(2) 0.5318(9)
O9 O 0.4316(6) -0.2269(17) 0.5934(6)
O10 O 0.5854(6) -0.7544(14) 0.6484(5)
C1 C 0.5607(10) 0.055(3) 0.3337(11)
C2 C 0.6147(13) -0.021(2) 0.2570(11)
H1 H 0.5796 0.0214 0.2082
C3 C 0.7190(11) -0.016(2) 0.2561(12)
H2 H 0.7494 0.0228 0.2053
C4 C 0.7812(9) 0.051(2) 0.3223(9)
C5 C 0.6893(10) -0.448(3) 0.5666(11)
C6 C 0.6462(11) -0.5210(19) 0.6438(10)
H3 H 0.6889 -0.4824 0.6893
C7 C 0.5267(13) -0.520(3) 0.6578(13)
H4 H 0.5007 -0.4766 0.7096
C8 C 0.4642(10) -0.440(3) 0.5852(10)
Ag1B Ag 0.33606(12) -0.0368(2) 0.50124(8)
Ag1B_2 Ag 0.33606(12) 0.9632(2) 0.50124(8)
Ag2B Ag 0.17686(13) 0.4481(3) 0.39128(8)
Ag2_2 Ag 0.67686(13) -0.4481(3) 0.39128(8)
Ag3B Ag 1.07163(13) -0.0503(3) 0.51630(8)
Ag3_2 Ag 0.57163(13) -0.9497(3) 0.51630(8)
Ag4B Ag 0.91230(13) 0.4675(2) 0.40953(9)
Ag4_2 Ag 0.41230(13) -0.4675(2) 0.40953(9)
O2_2 O 0.5551(7) 0.9029(17) 0.3949(8)
O3_2 O 0.7934(7) 0.918(2) 0.3801(7)
O4B O 0.3177(6) 0.7241(18) 0.3177(6)
O5_2 O 0.6665(6) 0.7456(14) 0.2597(6)
O6_2 O 0.6963(6) 0.4088(19) 0.5188(9)
O8_2 O 0.4561(8) 0.418(2) 0.5318(9)
O9B O 0.9316(6) 0.2269(17) 0.5934(6)
O10_2 O 0.5854(6) 0.2456(14) 0.6484(5)
loop_
_geom_bond_atom_site_label_1
_geom_bond_atom_site_label_2
_geom_bond_site_symmetry_1
_geom_bond_site_symmetry_2
Ag1 O3 1_555 1_555
Ag2 O1 1_555 1_555
Ag3 O2 1_555 1_555
Ag4 O1 1_555 1_555
O1 C1 1_555 1_555
O2 C1 1_555 1_555
O3 C4 1_555 1_555
O4 C4 1_555 1_555
O5 C2 1_555 1_555
O6 C5 1_555 1_555
O7 Ag1 1_555 1_555
O8 C8 1_555 1_555
O9 C8 1_555 1_555
O10 C6 1_555 1_555
C1 C2 1_555 1_555
C2 H1 1_555 1_555
C3 O5 1_555 1_555
H2 C3 1_555 1_555
C4 C3 1_555 1_555
C5 O7 1_555 1_555
C6 C5 1_555 1_555
H3 C6 1_555 1_555
C7 O10 1_555 1_555
H4 C7 1_555 1_555
C8 C7 1_555 1_555
Ag1B Ag3 1_555 1_555
Ag1B_2 Ag4 1_555 1_555
Ag2B Ag4 1_555 1_555
Ag2_2 O2 1_555 1_555
Ag3B Ag1 1_555 1_555
Ag3_2 O6 1_555 1_555
Ag4B Ag1 1_555 1_555
Ag4_2 O8 1_555 1_555
O2_2 Ag2 1_555 1_555
O3_2 Ag2 1_555 1_555
O4B Ag4 1_555 1_555
O5_2 Ag2 1_555 1_555
O6_2 Ag2 1_555 1_555
O8_2 Ag3 1_555 1_555
O9B Ag1 1_555 1_555
O10_2 Ag3 1_555 1_555
Ag2 Ag4B 1_555 1_555
Ag3 O7 1_555 1_555
Ag3 O6_2 1_555 1_555
Ag4 O8_2 1_555 1_555
O3 Ag2_2 1_555 1_555
O4 Ag4B 1_555 1_555
O5 Ag2_2 1_555 1_555
O6 Ag2_2 1_555 1_555
O8 Ag3_2 1_555 1_555
O9 Ag1B 1_555 1_555
O10 Ag3_2 1_555 1_555
C2 C3 1_555 1_555
C6 C7 1_555 1_555
Ag1B Ag4_2 1_555 1_555

#END
