
#######################################################################
#
#                 Cambridge Crystallographic Data Centre
#                                CCDC 
#
#######################################################################
#
# If this CIF has been generated from an entry in the Cambridge 
# Structural Database, then it will include bibliographic, chemical, 
# crystal, experimental, refinement or atomic coordinate data resulting 
# from the CCDC's data processing and validation procedures.
#
#######################################################################

data_GAWJIZ
_symmetry_cell_setting           monoclinic
_symmetry_space_group_name_H-M   'P 21/c'
_symmetry_Int_Tables_number      14
_space_group_name_Hall           '-P 2ybc'
loop_
_symmetry_equiv_pos_site_id
_symmetry_equiv_pos_as_xyz
1 x,y,z
2 -x,1/2+y,1/2-z
3 -x,-y,-z
4 x,1/2-y,1/2+z
_cell_length_a                   5.1567(2)
_cell_length_b                   7.6978(4)
_cell_length_c                   16.1233(8)
_cell_angle_alpha                90
_cell_angle_beta                 99.987(4)
_cell_angle_gamma                90
_cell_volume                     630.32
loop_
_atom_site_label
_atom_site_type_symbol
_atom_site_fract_x
_atom_site_fract_y
_atom_site_fract_z
Ag1 Ag 1.28255(7) -0.43868(6) -0.10005(2)
Ag2 Ag 0.89443(7) -0.20671(6) -0.06002(3)
O1 O 1.0078(6) -0.5004(6) -0.2182(2)
O2 O 0.6925(6) -0.3835(6) -0.1571(2)
O3 O 0.4943(6) -0.1871(4) -0.47743(19)
O4 O 0.2146(6) -0.3963(5) -0.4573(2)
O5 O 0.6384(6) -0.5759(5) -0.36193(19)
C1 C 0.7783(8) -0.4527(7) -0.2174(3)
C2 C 0.4299(9) -0.3201(7) -0.4409(3)
C3 C 0.5778(8) -0.4685(7) -0.2975(3)
H1 H 0.3923 -0.4640 -0.2912
C4 C 0.6423(8) -0.3926(7) -0.3744(3)
H2 H 0.8164 -0.3387 -0.3696
Ag1_2 Ag 0.28255(7) -0.43868(6) -0.10005(2)
Ag1A Ag 0.71745(7) 0.06132(6) -0.39995(2)
Ag1C Ag 0.28255(7) -0.06132(6) -0.60005(2)
Ag2A Ag 0.10557(7) -0.70671(6) -0.43998(3)
Ag2C Ag -0.10557(7) -0.29329(6) -0.56002(3)
O2_2 O 1.6925(6) -0.3835(6) -0.1571(2)
O3A O 1.5057(6) -0.6871(4) -0.02257(19)
O3C O 1.4943(6) -0.3129(4) 0.02257(19)
O4A O 0.7854(6) 0.1037(5) -0.0427(2)
O4C O 1.2146(6) -0.1037(5) 0.0427(2)
loop_
_geom_bond_atom_site_label_1
_geom_bond_atom_site_label_2
_geom_bond_site_symmetry_1
_geom_bond_site_symmetry_2
Ag1 Ag2 1_555 1_555
Ag2 O2 1_555 1_555
O1 Ag1 1_555 1_555
O2 C1 1_555 1_555
O3 C2 1_555 1_555
O4 C2 1_555 1_555
O5 C3 1_555 1_555
C1 O1 1_555 1_555
C2 C4 1_555 1_555
C3 C1 1_555 1_555
H1 C3 1_555 1_555
C4 O5 1_555 1_555
H2 C4 1_555 1_555
Ag1_2 O2 1_555 1_555
Ag1A O3 1_555 1_555
Ag1C O3 1_555 1_555
Ag2A O4 1_555 1_555
Ag2C O4 1_555 1_555
O2_2 Ag1 1_555 1_555
O3A Ag1 1_555 1_555
O3C Ag1 1_555 1_555
O4A Ag2 1_555 1_555
O4C Ag2 1_555 1_555
C3 C4 1_555 1_555
Ag1C Ag2C 1_555 1_555

#END
