
#######################################################################
#
#                 Cambridge Crystallographic Data Centre
#                                CCDC 
#
#######################################################################
#
# If this CIF has been generated from an entry in the Cambridge 
# Structural Database, then it will include bibliographic, chemical, 
# crystal, experimental, refinement or atomic coordinate data resulting 
# from the CCDC's data processing and validation procedures.
#
#######################################################################

data_GAWKUK
_symmetry_cell_setting           monoclinic
_symmetry_space_group_name_H-M   'P 21/n'
_symmetry_Int_Tables_number      14
_space_group_name_Hall           '-P 2yn'
loop_
_symmetry_equiv_pos_site_id
_symmetry_equiv_pos_as_xyz
1 x,y,z
2 1/2-x,1/2+y,1/2-z
3 -x,-y,-z
4 1/2+x,1/2-y,1/2+z
_cell_length_a                   17.326(5)
_cell_length_b                   5.477(3)
_cell_length_c                   23.133(7)
_cell_angle_alpha                90
_cell_angle_beta                 111.65(2)
_cell_angle_gamma                90
_cell_volume                     2040.33
loop_
_atom_site_label
_atom_site_type_symbol
_atom_site_fract_x
_atom_site_fract_y
_atom_site_fract_z
Ca1 Ca 0.1015(1) 0.1876(4) 0.5687(1)
O1 O 0.1695(3) -0.1434(9) 0.7512(2)
O2 O 0.0876(3) 0.1295(10) 0.6868(2)
O3 O 0.2721(3) 0.3327(10) 0.8910(2)
O4 O 0.2599(3) -0.0416(10) 0.8542(2)
O5 O 0.0816(3) -0.1019(10) 0.4667(2)
O6 O 0.1674(3) -0.4121(10) 0.5057(2)
O7 O 0.0160(3) -0.7580(10) 0.3441(2)
O8 O -0.0122(3) -0.6271(10) 0.4245(2)
C1 C 0.1402(4) 0.074(1) 0.7389(3)
C2 C 0.1707(4) 0.268(1) 0.7888(3)
C3 C 0.2392(4) 0.185(1) 0.8493(3)
C4 C 0.0977(5) 0.375(1) 0.8045(3)
C5 C 0.0583(4) 0.198(2) 0.8344(3)
C6 C 0.0818(5) 0.206(2) 0.8986(4)
C7 C 0.0442(6) 0.039(3) 0.9275(4)
C8 C -0.0113(6) -0.132(2) 0.8946(5)
C9 C -0.0323(5) -0.135(2) 0.8318(5)
C10 C 0.0019(5) 0.025(2) 0.8018(4)
C11 C 0.1131(4) -0.292(1) 0.4601(3)
C12 C 0.0903(4) -0.415(1) 0.3972(3)
C13 C 0.0266(4) -0.611(1) 0.3907(3)
C14 C 0.1670(5) -0.503(2) 0.3845(4)
C15 C 0.2193(4) -0.294(2) 0.3776(3)
C16 C 0.2820(5) -0.193(2) 0.4274(4)
C17 C 0.3278(5) 0.005(2) 0.4174(5)
C18 C 0.3109(5) 0.098(2) 0.3605(5)
C19 C 0.2503(6) -0.003(2) 0.3116(5)
C20 C 0.2052(5) -0.193(2) 0.3193(4)
H1 H 0.1967 0.3946 0.7732
H2 H 0.0562 0.4327 0.7653
H3 H 0.1167 0.5159 0.8304
H4 H 0.1228 0.3290 0.9244
H5 H 0.0616 0.0441 0.9732
H6 H -0.0342 -0.2515 0.9161
H7 H -0.0729 -0.2598 0.8095
H8 H -0.0146 0.0171 0.7552
H9 H 0.2344 -0.1250 0.8066
H10 H 0.0656 -0.2904 0.3665
H11 H 0.1482 -0.5997 0.3456
H12 H 0.1996 -0.6112 0.4164
H13 H 0.2909 -0.2541 0.4693
H14 H 0.3739 0.0691 0.4559
H15 H 0.3440 0.2373 0.3588
H16 H 0.2384 0.0678 0.2687
H17 H 0.1603 -0.2651 0.2832
H18 H 0.1680 -0.3750 0.5430
H19 H -0.0352 -0.8750 0.3457
O3A O 0.2279(3) -0.1673(10) 0.6090(2)
O4A O 0.2401(3) 0.4584(10) 0.6458(2)
O5B O -0.0816(3) 0.1019(10) 0.5333(2)
O6_2 O 0.1674(3) 0.5879(10) 0.5057(2)
O8B O 0.0122(3) 0.6271(10) 0.5755(2)
Ca1A Ca 0.3985(1) 0.6876(4) 0.9313(1)
Ca1A_2 Ca 0.3985(1) -0.3124(4) 0.9313(1)
Ca1B Ca -0.1015(1) -0.1876(4) 0.4313(1)
Ca1_2 Ca 0.1015(1) -0.8124(4) 0.5687(1)
H9A H 0.2656 0.3750 0.6934
H18_2 H 0.1680 0.6250 0.5430
loop_
_geom_bond_atom_site_label_1
_geom_bond_atom_site_label_2
_geom_bond_site_symmetry_1
_geom_bond_site_symmetry_2
Ca1 O2 1_555 1_555
O1 C1 1_555 1_555
O2 C1 1_555 1_555
O3 C3 1_555 1_555
O4 C3 1_555 1_555
O5 Ca1 1_555 1_555
O6 C11 1_555 1_555
O7 C13 1_555 1_555
O8 C13 1_555 1_555
C1 C2 1_555 1_555
C2 C3 1_555 1_555
C4 C2 1_555 1_555
C5 C4 1_555 1_555
C6 C5 1_555 1_555
C7 C6 1_555 1_555
C8 C7 1_555 1_555
C9 C8 1_555 1_555
C10 C5 1_555 1_555
C11 O5 1_555 1_555
C12 C11 1_555 1_555
C13 C12 1_555 1_555
C14 C12 1_555 1_555
C15 C14 1_555 1_555
C16 C15 1_555 1_555
C17 C16 1_555 1_555
C18 C17 1_555 1_555
C19 C18 1_555 1_555
C20 C15 1_555 1_555
H1 C2 1_555 1_555
H2 C4 1_555 1_555
H3 C4 1_555 1_555
H4 C6 1_555 1_555
H5 C7 1_555 1_555
H6 C8 1_555 1_555
H7 C9 1_555 1_555
H8 C10 1_555 1_555
H9 O4 1_555 1_555
H10 C12 1_555 1_555
H11 C14 1_555 1_555
H12 C14 1_555 1_555
H13 C16 1_555 1_555
H14 C17 1_555 1_555
H15 C18 1_555 1_555
H16 C19 1_555 1_555
H17 C20 1_555 1_555
H18 O6 1_555 1_555
H19 O7 1_555 1_555
O3A Ca1 1_555 1_555
O4A Ca1 1_555 1_555
O5B Ca1 1_555 1_555
O6_2 Ca1 1_555 1_555
O8B Ca1 1_555 1_555
Ca1A O3 1_555 1_555
Ca1A_2 O4 1_555 1_555
Ca1B O5 1_555 1_555
Ca1_2 O6 1_555 1_555
H9A O4A 1_555 1_555
H18_2 O6_2 1_555 1_555
O8 Ca1B 1_555 1_555
C9 C10 1_555 1_555
C19 C20 1_555 1_555
O5B Ca1B 1_555 1_555

#END
