
#######################################################################
#
#                 Cambridge Crystallographic Data Centre
#                                CCDC 
#
#######################################################################
#
# If this CIF has been generated from an entry in the Cambridge 
# Structural Database, then it will include bibliographic, chemical, 
# crystal, experimental, refinement or atomic coordinate data resulting 
# from the CCDC's data processing and validation procedures.
#
#######################################################################

data_GAWMUO
_symmetry_cell_setting           triclinic
_symmetry_space_group_name_H-M   'P -1'
_symmetry_Int_Tables_number      2
_space_group_name_Hall           '-P 1'
loop_
_symmetry_equiv_pos_site_id
_symmetry_equiv_pos_as_xyz
1 x,y,z
2 -x,-y,-z
_cell_length_a                   8.5574(8)
_cell_length_b                   8.8061(8)
_cell_length_c                   9.8454(9)
_cell_angle_alpha                98.523(4)
_cell_angle_beta                 112.604(4)
_cell_angle_gamma                108.548(4)
_cell_volume                     617.57
loop_
_atom_site_label
_atom_site_type_symbol
_atom_site_fract_x
_atom_site_fract_y
_atom_site_fract_z
C1 C 0.0669(15) 0.4858(13) 1.0715(12)
C2 C 0.7291(15) 0.8125(14) 1.1427(12)
C3 C 0.9020(15) 0.8510(13) 1.2896(13)
H1 H 1.0116 0.9082 1.2766
C4 C 0.9083(14) 0.9657(13) 1.4275(12)
H2 H 0.8902 1.0624 1.3975
C5 C 0.2928(15) 0.7004(12) 0.5955(12)
C6 C 0.4633(15) 0.6602(14) 0.6296(12)
H3 H 0.5717 0.7636 0.6568
C7 C 0.4255(13) 0.5327(13) 0.4844(11)
H4 H 0.4220 0.5886 0.4049
O1 O 0.4938(10) 0.5968(9) 0.7578(8)
O2 O 0.2182(11) 0.6774(10) 0.6818(9)
O3 O 0.2092(10) 0.4751(10) 1.0682(9)
O4 O 0.6047(9) 0.6591(8) 1.0833(8)
O5 O 0.7153(13) 0.9246(11) 1.0863(11)
O6 O 0.3177(13) 0.8182(10) 1.0202(10)
O7 O 0.0185(10) 0.4701(10) 1.1756(8)
O8 O 0.9024(10) 0.6974(9) 1.3176(8)
O9 O 0.7580(10) 0.8806(9) 1.4573(9)
O10 O 0.2391(10) 0.7496(9) 0.4811(9)
O11 O 0.2498(10) 0.3928(9) 0.4259(9)
Tb1 Tb 0.29770(6) 0.56613(6) 0.88088(5)
C1A C -0.0669(15) 0.5142(13) 0.9285(12)
C2A C 1.2709(15) 1.1875(14) 1.8573(12)
C3A C 1.0980(15) 1.1490(13) 1.7104(13)
H1A H 0.9884 1.0918 1.7234
C4A C 1.0917(14) 1.0343(13) 1.5725(12)
H2A H 1.1098 0.9376 1.6025
C5A C 0.7072(15) 0.2996(12) 0.4045(12)
C6A C 0.5367(15) 0.3398(14) 0.3704(12)
H3A H 0.4283 0.2364 0.3432
C7A C 0.5745(13) 0.4673(13) 0.5156(11)
H4A H 0.5780 0.4114 0.5951
O1A O 0.5062(10) 0.4032(9) 0.2422(8)
O2A O 0.7818(11) 0.3226(10) 0.3182(9)
O3A O -0.2092(10) 0.5249(10) 0.9318(9)
O3A_2 O 0.7908(10) 0.5249(10) -0.0682(9)
O4A O 1.3953(9) 1.3409(8) 1.9167(8)
O4A_2 O 0.3953(9) 0.3409(8) 0.9167(8)
O4A_3 O 0.3953(9) 0.3409(8) -0.0833(8)
O4_2 O 0.6047(9) 0.6591(8) 0.0833(8)
O5A O 1.2847(13) 1.0754(11) 1.9137(11)
O6A O 0.6823(13) 0.1818(10) -0.0202(10)
O7A O -0.0185(10) 0.5299(10) 0.8244(8)
O7_2 O 1.0185(10) 0.4701(10) 0.1756(8)
O8A O 1.0976(10) 1.3026(9) 1.6824(8)
O8A_2 O 0.0976(10) 0.3026(9) 0.6824(8)
O8_2 O 0.9024(10) 0.6974(9) 0.3176(8)
O9A O 1.2420(10) 1.1194(9) 1.5427(9)
O10A O 0.7609(10) 0.2504(9) 0.5189(9)
O11A O 0.7502(10) 0.6072(9) 0.5741(9)
Tb1A Tb 0.70230(6) 0.43387(6) 0.11912(5)
Tb1A_2 Tb 0.70230(6) 0.43387(6) 1.11912(5)
Tb1A_3 Tb -0.29770(6) 0.43387(6) 1.11912(5)
Tb1A_4 Tb 1.70230(6) 1.43387(6) 2.11912(5)
Tb1_2 Tb 1.29770(6) 1.56613(6) 1.88088(5)
O12 O 0.4170(12) 0.9011(11) 1.3198(10)
loop_
_geom_bond_atom_site_label_1
_geom_bond_atom_site_label_2
_geom_bond_site_symmetry_1
_geom_bond_site_symmetry_2
C1 O3 1_555 1_555
C2 C3 1_555 1_555
C3 H1 1_555 1_555
C4 C3 1_555 1_555
H2 C4 1_555 1_555
C5 C6 1_555 1_555
C6 H3 1_555 1_555
C7 C6 1_555 1_555
H4 C7 1_555 1_555
O1 C6 1_555 1_555
O2 C5 1_555 1_555
O3 Tb1 1_555 1_555
O4 C2 1_555 1_555
O5 C2 1_555 1_555
O6 Tb1 1_555 1_555
O7 C1 1_555 1_555
O8 C3 1_555 1_555
O9 C4 1_555 1_555
O10 C5 1_555 1_555
O11 C7 1_555 1_555
Tb1 O1 1_555 1_555
C1A C1 1_555 1_555
C2A C3A 1_555 1_555
C3A H1A 1_555 1_555
C4A C4 1_555 1_555
H2A C4A 1_555 1_555
C5A C6A 1_555 1_555
C6A H3A 1_555 1_555
C7A C7 1_555 1_555
H4A C7A 1_555 1_555
O1A C6A 1_555 1_555
O2A C5A 1_555 1_555
O3A C1A 1_555 1_555
O3A_2 Tb1A 1_555 1_555
O4A C2A 1_555 1_555
O4A_2 Tb1 1_555 1_555
O4A_3 Tb1A 1_555 1_555
O4_2 Tb1A 1_555 1_555
O5A C2A 1_555 1_555
O6A Tb1A 1_555 1_555
O7A Tb1 1_555 1_555
O7_2 Tb1A 1_555 1_555
O8A C3A 1_555 1_555
O8A_2 Tb1 1_555 1_555
O8_2 Tb1A 1_555 1_555
O9A C4A 1_555 1_555
O10A C5A 1_555 1_555
O11A C7A 1_555 1_555
Tb1A O1A 1_555 1_555
Tb1A_2 O4 1_555 1_555
Tb1A_3 O7 1_555 1_555
Tb1A_4 O4A 1_555 1_555
Tb1_2 O4A 1_555 1_555
O2 Tb1 1_555 1_555
O4 Tb1 1_555 1_555
O8 Tb1A_2 1_555 1_555
C1A O7A 1_555 1_555
C3A C4A 1_555 1_555
C6A C7A 1_555 1_555
O2A Tb1A 1_555 1_555
O3A Tb1A_3 1_555 1_555
O4A_2 Tb1A_2 1_555 1_555
O8A Tb1_2 1_555 1_555

#END
