
#######################################################################
#
#                 Cambridge Crystallographic Data Centre
#                                CCDC 
#
#######################################################################
#
# If this CIF has been generated from an entry in the Cambridge 
# Structural Database, then it will include bibliographic, chemical, 
# crystal, experimental, refinement or atomic coordinate data resulting 
# from the CCDC's data processing and validation procedures.
#
#######################################################################

data_GAWMIC
_symmetry_cell_setting           monoclinic
_symmetry_space_group_name_H-M   'P 21/c'
_symmetry_Int_Tables_number      14
_space_group_name_Hall           '-P 2ybc'
loop_
_symmetry_equiv_pos_site_id
_symmetry_equiv_pos_as_xyz
1 x,y,z
2 -x,1/2+y,1/2-z
3 -x,-y,-z
4 x,1/2-y,1/2+z
_cell_length_a                   9.809(2)
_cell_length_b                   11.596(2)
_cell_length_c                   20.754(6)
_cell_angle_alpha                90
_cell_angle_beta                 111.44(3)
_cell_angle_gamma                90
_cell_volume                     2197.31
loop_
_atom_site_label
_atom_site_type_symbol
_atom_site_fract_x
_atom_site_fract_y
_atom_site_fract_z
I1 I -0.43923(9) -0.24050(6) 0.14373(4)
Zn1 Zn -0.32667(9) -0.04159(8) 0.16149(4)
O1 O -0.2438(6) 0.0150(5) 0.0960(3)
O2 O -0.0587(6) -0.0902(5) 0.1579(3)
N1 N -0.2194(6) 0.0001(5) 0.2637(3)
N2 N -0.3780(8) 0.1057(7) 0.6824(4)
N3 N -0.1469(5) 0.1201(5) 0.5042(3)
N4 N 0.0726(6) 0.1844(5) 0.4934(3)
N5 N 0.0275(6) 0.2185(5) 0.5972(3)
N6 N 0.1534(14) -0.1298(12) 0.1109(7)
H1 H 0.1205 -0.1414 0.1435
H2 H 0.2349 -0.1603 0.1132
C1 C -0.2878(8) -0.0202(7) 0.3077(4)
H3 H -0.3731 -0.0640 0.2929
C2 C -0.2355(7) 0.0218(7) 0.3742(4)
H4 H -0.2850 0.0056 0.4038
C3 C -0.0984(8) 0.0618(7) 0.2862(4)
H5 H -0.0508 0.0767 0.2557
C4 C -0.0387(8) 0.1055(7) 0.3522(4)
H6 H 0.0488 0.1465 0.3665
C5 C -0.1118(7) 0.0870(6) 0.3969(3)
C6 C -0.0585(8) 0.1353(6) 0.4685(4)
C7 C -0.0996(7) 0.1638(6) 0.5675(4)
C8 C 0.1092(7) 0.2283(6) 0.5575(4)
C9 C -0.1952(7) 0.1468(6) 0.6078(4)
C10 C -0.1595(9) 0.1816(8) 0.6740(5)
H7 H -0.0709 0.2189 0.6968
C11 C -0.2571(12) 0.1609(11) 0.7081(5)
H8 H -0.2319 0.1896 0.7528
C12 C -0.3236(9) 0.0899(8) 0.5802(4)
H9 H -0.3544 0.0634 0.5348
C13 C -0.4093(9) 0.0712(8) 0.6191(5)
H10 H -0.4963 0.0307 0.5983
C14 C 0.2474(9) 0.2914(8) 0.5857(4)
C15 C 0.2894(9) 0.3447(8) 0.6491(4)
H11 H 0.2331 0.3362 0.6764
C16 C 0.3355(8) 0.3049(7) 0.5474(4)
H12 H 0.3110 0.2699 0.5043
C17 C -0.1219(10) -0.0293(9) 0.1065(4)
C18 C -0.0573(7) -0.0141(6) 0.0526(4)
C19 C -0.1318(8) 0.0497(6) -0.0057(4)
H13 H -0.2209 0.0830 -0.0100
C20 C 0.0771(7) -0.0658(6) 0.0591(4)
C21 C 0.4595(8) 0.3705(7) 0.5740(4)
N7 N 0.4999(6) 0.4245(5) 0.6350(3)
C22 C 0.4126(8) 0.4094(8) 0.6718(4)
H14 H 0.4383 0.4452 0.7147
H15 H 0.5191 0.3781 0.5482
I1B I 0.43923(9) 0.24050(6) -0.14373(4)
Zn1B Zn 0.32667(9) 0.04159(8) -0.16149(4)
Zn1C Zn 0.67333(9) 0.54159(8) 0.66149(4)
Zn1C_2 Zn -1.32667(9) 0.54159(8) -0.33851(4)
O1B O 0.2438(6) -0.0150(5) -0.0960(3)
O2B O 0.0587(6) 0.0902(5) -0.1579(3)
N1C N -1.2194(6) 0.4999(5) -0.2363(3)
N1B N 0.2194(6) -0.0001(5) -0.2637(3)
N2C N -1.3780(8) 0.3943(7) 0.1824(4)
N3C N -1.1469(5) 0.3799(5) 0.0042(3)
N4C N -0.9274(6) 0.3156(5) -0.0066(3)
N5C N -0.9725(6) 0.2815(5) 0.0972(3)
N6B N -0.1534(14) 0.1298(12) -0.1109(7)
H1B H -0.1205 0.1414 -0.1435
H2B H -0.2349 0.1603 -0.1132
C1C C -1.2878(8) 0.5202(7) -0.1923(4)
H3C H -1.3731 0.5640 -0.2071
C2C C -1.2355(7) 0.4782(7) -0.1258(4)
H4C H -1.2850 0.4944 -0.0962
C3C C -1.0984(8) 0.4382(7) -0.2138(4)
H5C H -1.0508 0.4233 -0.2443
C4C C -1.0387(8) 0.3945(7) -0.1478(4)
H6C H -0.9512 0.3535 -0.1335
C5C C -1.1118(7) 0.4130(6) -0.1031(3)
C6C C -1.0585(8) 0.3647(6) -0.0315(4)
C7C C -1.0996(7) 0.3362(6) 0.0675(4)
C8C C -0.8908(7) 0.2717(6) 0.0575(4)
C9C C -1.1952(7) 0.3532(6) 0.1078(4)
C10C C -1.1595(9) 0.3184(8) 0.1740(5)
H7C H -1.0709 0.2811 0.1968
C11C C -1.2571(12) 0.3391(11) 0.2081(5)
H8C H -1.2319 0.3104 0.2528
C12C C -1.3236(9) 0.4101(8) 0.0802(4)
H9C H -1.3544 0.4366 0.0348
C13C C -1.4093(9) 0.4288(8) 0.1191(5)
H10C H -1.4963 0.4693 0.0983
C14C C -0.7526(9) 0.2086(8) 0.0857(4)
C15C C -0.7106(9) 0.1553(8) 0.1491(4)
H11C H -0.7669 0.1638 0.1764
C16C C -0.6645(8) 0.1951(7) 0.0474(4)
H12C H -0.6890 0.2301 0.0043
C17B C 0.1219(10) 0.0293(9) -0.1065(4)
C18B C 0.0573(7) 0.0141(6) -0.0526(4)
C19B C 0.1318(8) -0.0497(6) 0.0057(4)
H13B H 0.2209 -0.0830 0.0100
C20B C -0.0771(7) 0.0658(6) -0.0591(4)
C21C C -0.5405(8) 0.1295(7) 0.0740(4)
N7C N -0.5001(6) 0.0755(5) 0.1350(3)
N7A N 0.5001(6) -0.0755(5) -0.1350(3)
C22C C -0.5874(8) 0.0906(8) 0.1718(4)
H14C H -0.5617 0.0548 0.2147
H15C H -0.4809 0.1219 0.0482
loop_
_geom_bond_atom_site_label_1
_geom_bond_atom_site_label_2
_geom_bond_site_symmetry_1
_geom_bond_site_symmetry_2
I1 Zn1 1_555 1_555
Zn1 O1 1_555 1_555
O1 C17 1_555 1_555
O2 Zn1 1_555 1_555
N1 Zn1 1_555 1_555
N2 C11 1_555 1_555
N3 C6 1_555 1_555
N4 C6 1_555 1_555
N5 C7 1_555 1_555
N6 H1 1_555 1_555
H2 N6 1_555 1_555
C1 N1 1_555 1_555
H3 C1 1_555 1_555
C2 C1 1_555 1_555
H4 C2 1_555 1_555
C3 N1 1_555 1_555
H5 C3 1_555 1_555
C4 C3 1_555 1_555
H6 C4 1_555 1_555
C5 C2 1_555 1_555
C6 C5 1_555 1_555
C7 N3 1_555 1_555
C8 N4 1_555 1_555
C9 C7 1_555 1_555
C10 C9 1_555 1_555
H7 C10 1_555 1_555
C11 C10 1_555 1_555
H8 C11 1_555 1_555
C12 C9 1_555 1_555
H9 C12 1_555 1_555
C13 N2 1_555 1_555
H10 C13 1_555 1_555
C14 C8 1_555 1_555
C15 C14 1_555 1_555
H11 C15 1_555 1_555
C16 C14 1_555 1_555
H12 C16 1_555 1_555
C17 O2 1_555 1_555
C18 C17 1_555 1_555
C19 C18 1_555 1_555
H13 C19 1_555 1_555
C20 N6 1_555 1_555
C21 C16 1_555 1_555
N7 C21 1_555 1_555
C22 C15 1_555 1_555
H14 C22 1_555 1_555
H15 C21 1_555 1_555
I1B Zn1B 1_555 1_555
Zn1B O1B 1_555 1_555
Zn1C N7 1_555 1_555
Zn1C_2 N1C 1_555 1_555
O1B C17B 1_555 1_555
O2B Zn1B 1_555 1_555
N1C C1C 1_555 1_555
N1B Zn1B 1_555 1_555
N2C C11C 1_555 1_555
N3C C6C 1_555 1_555
N4C C6C 1_555 1_555
N5C C7C 1_555 1_555
N6B H1B 1_555 1_555
H2B N6B 1_555 1_555
C1C H3C 1_555 1_555
C2C C1C 1_555 1_555
H4C C2C 1_555 1_555
C3C N1C 1_555 1_555
H5C C3C 1_555 1_555
C4C C3C 1_555 1_555
H6C C4C 1_555 1_555
C5C C2C 1_555 1_555
C6C C5C 1_555 1_555
C7C N3C 1_555 1_555
C8C N4C 1_555 1_555
C9C C7C 1_555 1_555
C10C C9C 1_555 1_555
H7C C10C 1_555 1_555
C11C C10C 1_555 1_555
H8C C11C 1_555 1_555
C12C C9C 1_555 1_555
H9C C12C 1_555 1_555
C13C N2C 1_555 1_555
H10C C13C 1_555 1_555
C14C C8C 1_555 1_555
C15C C14C 1_555 1_555
H11C C15C 1_555 1_555
C16C C14C 1_555 1_555
H12C C16C 1_555 1_555
C17B O2B 1_555 1_555
C18B C17B 1_555 1_555
C19B C20 1_555 1_555
H13B C19B 1_555 1_555
C20B C19 1_555 1_555
C21C C16C 1_555 1_555
N7C Zn1 1_555 1_555
N7A Zn1B 1_555 1_555
C22C C15C 1_555 1_555
H14C C22C 1_555 1_555
H15C C21C 1_555 1_555
N5 C8 1_555 1_555
C4 C5 1_555 1_555
C12 C13 1_555 1_555
C18 C20 1_555 1_555
N7 C22 1_555 1_555
N5C C8C 1_555 1_555
N6B C20B 1_555 1_555
C4C C5C 1_555 1_555
C12C C13C 1_555 1_555
C18B C19B 1_555 1_555
C18B C20B 1_555 1_555
C21C N7C 1_555 1_555
N7C C22C 1_555 1_555

#END
