
#######################################################################
#
#                 Cambridge Crystallographic Data Centre
#                                CCDC 
#
#######################################################################
#
# If this CIF has been generated from an entry in the Cambridge 
# Structural Database, then it will include bibliographic, chemical, 
# crystal, experimental, refinement or atomic coordinate data resulting 
# from the CCDC's data processing and validation procedures.
#
#######################################################################

data_GAWMEY
_symmetry_cell_setting           orthorhombic
_symmetry_space_group_name_H-M   'P n a 21'
_symmetry_Int_Tables_number      33
_space_group_name_Hall           'P 2c -2n'
loop_
_symmetry_equiv_pos_site_id
_symmetry_equiv_pos_as_xyz
1 x,y,z
2 -x,-y,1/2+z
3 1/2-x,1/2+y,1/2+z
4 1/2+x,1/2-y,z
_cell_length_a                   25.9008(19)
_cell_length_b                   6.2593(5)
_cell_length_c                   8.7624(6)
_cell_angle_alpha                90
_cell_angle_beta                 90
_cell_angle_gamma                90
_cell_volume                     1420.57
loop_
_atom_site_label
_atom_site_type_symbol
_atom_site_fract_x
_atom_site_fract_y
_atom_site_fract_z
Sm1 Sm 0.58873(2) 0.43434(8) 0.8074(2)
Na1 Na 0.50887(17) -0.0336(7) 0.8047(17)
O1 O 0.6290(5) 0.350(2) 0.5593(15)
O2 O 0.6888(5) 0.511(2) 0.4012(13)
O3 O 0.6256(6) 0.413(2) 1.0638(16)
H1 H 0.6117 0.4808 1.1518
O4 O 0.6419(3) -0.2536(12) 0.8257(14)
O5 O 0.5981(3) 0.0512(12) 0.814(4)
O6 O 0.5453(4) 0.6775(18) 0.9916(12)
O7 O 0.4658(4) 0.3118(18) 1.1663(12)
O8 O 0.5232(4) 0.2666(19) 0.9780(13)
O9 O 0.4847(5) 0.7303(19) 1.1606(13)
O10 O 0.4184(4) -0.1735(14) 0.807(4)
C1 C 0.7095(6) 0.424(3) 0.6562(16)
H2 H 0.7398 0.3448 0.6166
H3 H 0.7218 0.5627 0.6960
C2 C 0.7105(6) 0.353(3) 0.9295(15)
H4 H 0.7119 0.5103 0.9411
H5 H 0.7463 0.2981 0.9300
C3 C 0.6870(5) 0.0633(19) 0.7509(17)
H6 H 0.6943 0.0422 0.6410
H7 H 0.7159 -0.0013 0.8090
C4 C 0.6719(5) 0.463(2) 0.5267(15)
C5 C 0.6808(6) 0.257(3) 1.0616(16)
H8 H 0.7003 0.2697 1.1585
H9 H 0.6725 0.1049 1.0429
C6 C 0.6381(4) -0.0527(19) 0.790(3)
C7 C 0.5017(5) 0.619(2) 1.0441(15)
C8 C 0.4912(5) 0.384(2) 1.0415(16)
N1 N 0.6856(4) 0.2990(14) 0.7836(12)
Sm1_2 Sm 0.58873(2) -0.56566(8) 0.8074(2)
Sm1A Sm 0.41127(2) 0.56566(8) 1.3074(2)
Na1_2 Na 0.50887(17) 0.9664(7) 0.8047(17)
Na1A Na 0.49113(17) 0.0336(7) 1.3047(17)
Na1A_2 Na 0.49113(17) 1.0336(7) 1.3047(17)
O4_2 O 0.6419(3) 0.7464(12) 0.8257(14)
O6_2 O 0.5453(4) -0.3225(18) 0.9916(12)
O7A O 0.5342(4) 0.6882(18) 0.6663(12)
O7A_2 O 0.5342(4) -0.3118(18) 0.6663(12)
O9A O 0.5153(5) 0.2697(19) 0.6606(13)
O11 O 0.3670(8) 0.181(3) 0.8840(19)
loop_
_geom_bond_atom_site_label_1
_geom_bond_atom_site_label_2
_geom_bond_site_symmetry_1
_geom_bond_site_symmetry_2
Sm1 O1 1_555 1_555
Na1 O5 1_555 1_555
O1 C4 1_555 1_555
O2 C4 1_555 1_555
O3 Sm1 1_555 1_555
H1 O3 1_555 1_555
O4 C6 1_555 1_555
O5 Sm1 1_555 1_555
O6 Sm1 1_555 1_555
O7 C8 1_555 1_555
O8 Sm1 1_555 1_555
O9 C7 1_555 1_555
O10 Na1 1_555 1_555
C1 H2 1_555 1_555
H3 C1 1_555 1_555
C2 H4 1_555 1_555
H5 C2 1_555 1_555
C3 H6 1_555 1_555
H7 C3 1_555 1_555
C4 C1 1_555 1_555
C5 O3 1_555 1_555
H8 C5 1_555 1_555
H9 C5 1_555 1_555
C6 O5 1_555 1_555
C7 O6 1_555 1_555
C8 O8 1_555 1_555
N1 Sm1 1_555 1_555
Sm1_2 O4 1_555 1_555
Sm1A O7 1_555 1_555
Na1_2 O6 1_555 1_555
Na1A O7 1_555 1_555
Na1A_2 O9 1_555 1_555
O4_2 Sm1 1_555 1_555
O6_2 Na1 1_555 1_555
O7A Sm1 1_555 1_555
O7A_2 Na1 1_555 1_555
O9A Sm1 1_555 1_555
Na1 O8 1_555 1_555
Na1 O9A 1_555 1_555
O9 Sm1A 1_555 1_555
C1 N1 1_555 1_555
C2 C5 1_555 1_555
C2 N1 1_555 1_555
C3 C6 1_555 1_555
C3 N1 1_555 1_555
C7 C8 1_555 1_555
Sm1_2 O6_2 1_555 1_555
Sm1_2 O7A_2 1_555 1_555
Na1_2 O7A 1_555 1_555

#END
