
#######################################################################
#
#                 Cambridge Crystallographic Data Centre
#                                CCDC 
#
#######################################################################
#
# If this CIF has been generated from an entry in the Cambridge 
# Structural Database, then it will include bibliographic, chemical, 
# crystal, experimental, refinement or atomic coordinate data resulting 
# from the CCDC's data processing and validation procedures.
#
#######################################################################

data_GAWRUT
_symmetry_cell_setting           monoclinic
_symmetry_space_group_name_H-M   'C 2/c'
_symmetry_Int_Tables_number      15
_space_group_name_Hall           '-C 2yn'
loop_
_symmetry_equiv_pos_site_id
_symmetry_equiv_pos_as_xyz
1 x,y,z
2 -x,y,1/2-z
3 1/2+x,1/2+y,z
4 1/2-x,1/2+y,1/2-z
5 -x,-y,-z
6 x,-y,1/2+z
7 1/2-x,1/2-y,-z
8 1/2+x,1/2-y,1/2+z
_cell_length_a                   19.0791(12)
_cell_length_b                   9.6024(6)
_cell_length_c                   18.6000(11)
_cell_angle_alpha                90
_cell_angle_beta                 103.239(1)
_cell_angle_gamma                90
_cell_volume                     3317.05
loop_
_atom_site_label
_atom_site_type_symbol
_atom_site_fract_x
_atom_site_fract_y
_atom_site_fract_z
Co1 Co 0.2500 0.2500 0.0000
F1 F 0.04962(6) 0.51404(11) 0.12384(6)
F2 F 0.01857(5) 0.30955(12) 0.08314(6)
F3 F 0.09988(5) 0.33589(12) 0.18321(5)
F4 F 0.05387(5) -0.16497(10) 0.06676(5)
F5 F 0.14987(6) -0.24046(10) 0.19169(6)
F6 F 0.25412(5) -0.06070(11) 0.25681(5)
F7 F 0.13248(5) 0.76153(9) -0.04272(6)
F8 F 0.22961(5) 0.71264(10) -0.07777(6)
F9 F 0.12829(6) 0.62828(11) -0.13672(5)
O1 O 0.5000 0.64875(18) 0.2500
O2 O 0.22451(5) 0.44615(10) -0.03697(5)
N1 N 0.5000 0.5103(2) 0.2500
N2 N 0.33386(6) 0.32920(13) 0.09020(6)
N3 N 0.17117(6) 0.27661(13) 0.06645(7)
C1 C 0.16083(8) 0.14922(15) 0.10258(8)
C2 C 0.10755(8) 0.05684(16) 0.06831(8)
C3 C 0.10478(8) -0.07281(16) 0.09916(9)
C4 C 0.15332(9) -0.11278(16) 0.16281(9)
C5 C 0.20601(8) -0.01938(18) 0.19540(8)
C6 C 0.21092(8) 0.11125(16) 0.16692(8)
C7 C 0.07509(8) 0.38684(17) 0.11568(9)
C8 C 0.13225(7) 0.38712(16) 0.06929(8)
C9 C 0.13557(8) 0.51189(15) 0.02888(8)
C10 C 0.39559(8) 0.25998(16) 0.11707(8)
C11 C 0.45188(8) 0.31211(16) 0.17074(8)
C12 C 0.44438(8) 0.44447(16) 0.19862(8)
C13 C 0.38098(8) 0.51746(16) 0.17178(8)
C14 C 0.32784(8) 0.45592(16) 0.11857(8)
C15 C 0.17817(7) 0.52833(15) -0.02082(8)
C16 C 0.16719(8) 0.65947(16) -0.06904(9)
H1 H 0.0737 0.0826 0.0245
H2 H 0.2475 0.1742 0.1903
H3 H 0.1066 0.5883 0.0368
H4 H 0.4008 0.1698 0.0980
H5 H 0.4945 0.2592 0.1881
H6 H 0.3744 0.6080 0.1897
H7 H 0.2844 0.5061 0.1009
Co1A Co 0.7500 0.2500 0.5000
F1F F 0.45038(6) -0.01404(11) -0.12384(6)
F2F F 0.48143(5) 0.19045(12) -0.08314(6)
F3F F 0.40012(5) 0.16411(12) -0.18321(5)
F4F F 0.44613(5) 0.66497(10) -0.06676(5)
F5F F 0.35013(6) 0.74046(10) -0.19169(6)
F6F F 0.24588(5) 0.56070(11) -0.25681(5)
F7F F 0.36752(5) -0.26153(9) 0.04272(6)
F8F F 0.27039(5) -0.21264(10) 0.07777(6)
F9F F 0.37171(6) -0.12828(11) 0.13672(5)
O2F O 0.27549(5) 0.05385(10) 0.03697(5)
N2A N 0.66614(6) 0.32920(13) 0.40980(6)
N2F N 0.16614(6) 0.17080(13) -0.09020(6)
N3F N 0.32883(6) 0.22339(13) -0.06645(7)
C1F C 0.33917(8) 0.35078(15) -0.10258(8)
C2F C 0.39245(8) 0.44316(16) -0.06831(8)
C3F C 0.39522(8) 0.57281(16) -0.09916(9)
C4F C 0.34668(9) 0.61278(16) -0.16281(9)
C5F C 0.29399(8) 0.51938(18) -0.19540(8)
C6F C 0.28908(8) 0.38875(16) -0.16692(8)
C7F C 0.42491(8) 0.11316(17) -0.11568(9)
C8F C 0.36775(7) 0.11288(16) -0.06929(8)
C9F C 0.36443(8) -0.01189(15) -0.02888(8)
C10A C 0.60441(8) 0.25998(16) 0.38293(8)
C11A C 0.54812(8) 0.31211(16) 0.32926(8)
C12A C 0.55562(8) 0.44447(16) 0.30138(8)
C13A C 0.61902(8) 0.51746(16) 0.32822(8)
C14A C 0.67216(8) 0.45592(16) 0.38143(8)
C15F C 0.32183(7) -0.02833(15) 0.02082(8)
C16F C 0.33281(8) -0.15947(16) 0.06904(9)
H1F H 0.4263 0.4174 -0.0245
H2F H 0.2525 0.3258 -0.1903
H3F H 0.3934 -0.0883 -0.0368
H4A H 0.5992 0.1698 0.4020
H5A H 0.5055 0.2592 0.3119
H6A H 0.6256 0.6080 0.3103
H7A H 0.7156 0.5061 0.3991
loop_
_geom_bond_atom_site_label_1
_geom_bond_atom_site_label_2
_geom_bond_site_symmetry_1
_geom_bond_site_symmetry_2
Co1 O2 1_555 1_555
F1 C7 1_555 1_555
F2 C7 1_555 1_555
F3 C7 1_555 1_555
F4 C3 1_555 1_555
F5 C4 1_555 1_555
F6 C5 1_555 1_555
F7 C16 1_555 1_555
F8 C16 1_555 1_555
F9 C16 1_555 1_555
O1 N1 1_555 1_555
O2 C15 1_555 1_555
N1 C12 1_555 1_555
N2 Co1 1_555 1_555
N3 Co1 1_555 1_555
C1 N3 1_555 1_555
C2 C1 1_555 1_555
C3 C2 1_555 1_555
C4 C3 1_555 1_555
C5 C4 1_555 1_555
C6 C1 1_555 1_555
C7 C8 1_555 1_555
C8 N3 1_555 1_555
C9 C8 1_555 1_555
C10 N2 1_555 1_555
C11 C10 1_555 1_555
C12 C11 1_555 1_555
C13 C12 1_555 1_555
C14 N2 1_555 1_555
C15 C9 1_555 1_555
C16 C15 1_555 1_555
H1 C2 1_555 1_555
H2 C6 1_555 1_555
H3 C9 1_555 1_555
H4 C10 1_555 1_555
H5 C11 1_555 1_555
H6 C13 1_555 1_555
H7 C14 1_555 1_555
Co1A N2A 1_555 1_555
F1F C7F 1_555 1_555
F2F C7F 1_555 1_555
F3F C7F 1_555 1_555
F4F C3F 1_555 1_555
F5F C4F 1_555 1_555
F6F C5F 1_555 1_555
F7F C16F 1_555 1_555
F8F C16F 1_555 1_555
F9F C16F 1_555 1_555
O2F Co1 1_555 1_555
N2A C10A 1_555 1_555
N2F Co1 1_555 1_555
N3F Co1 1_555 1_555
C1F N3F 1_555 1_555
C2F C1F 1_555 1_555
C3F C2F 1_555 1_555
C4F C3F 1_555 1_555
C5F C4F 1_555 1_555
C6F C1F 1_555 1_555
C7F C8F 1_555 1_555
C8F N3F 1_555 1_555
C9F C8F 1_555 1_555
C10A C11A 1_555 1_555
C11A C12A 1_555 1_555
C12A N1 1_555 1_555
C13A C12A 1_555 1_555
C14A N2A 1_555 1_555
C15F O2F 1_555 1_555
C16F C15F 1_555 1_555
H1F C2F 1_555 1_555
H2F C6F 1_555 1_555
H3F C9F 1_555 1_555
H4A C10A 1_555 1_555
H5A C11A 1_555 1_555
H6A C13A 1_555 1_555
H7A C14A 1_555 1_555
C5 C6 1_555 1_555
C13 C14 1_555 1_555
C5F C6F 1_555 1_555
C9F C15F 1_555 1_555
C13A C14A 1_555 1_555

#END
