
#######################################################################
#
#                 Cambridge Crystallographic Data Centre
#                                CCDC 
#
#######################################################################
#
# If this CIF has been generated from an entry in the Cambridge 
# Structural Database, then it will include bibliographic, chemical, 
# crystal, experimental, refinement or atomic coordinate data resulting 
# from the CCDC's data processing and validation procedures.
#
#######################################################################

data_GAWRIH
_symmetry_cell_setting           monoclinic
_symmetry_space_group_name_H-M   'P 21/n'
_symmetry_Int_Tables_number      14
_space_group_name_Hall           '-P 2yn'
loop_
_symmetry_equiv_pos_site_id
_symmetry_equiv_pos_as_xyz
1 x,y,z
2 1/2-x,1/2+y,1/2-z
3 -x,-y,-z
4 1/2+x,1/2-y,1/2+z
_cell_length_a                   9.539(5)
_cell_length_b                   18.791(10)
_cell_length_c                   18.602(10)
_cell_angle_alpha                90
_cell_angle_beta                 104.519(7)
_cell_angle_gamma                90
_cell_volume                     3227.87
loop_
_atom_site_label
_atom_site_type_symbol
_atom_site_fract_x
_atom_site_fract_y
_atom_site_fract_z
Co1 Co 0.05731(5) 0.24494(2) 0.27907(3)
F1 F 0.2311(3) 0.43928(14) 0.16794(18)
F2 F 0.0398(3) 0.50299(12) 0.15592(17)
F3 F 0.1736(3) 0.48255(14) 0.26364(16)
F4 F -0.3623(3) 0.38408(14) 0.06708(17)
F5 F -0.3633(3) 0.27185(15) 0.05249(18)
F6 F -0.4450(3) 0.31801(16) 0.1399(2)
F7 F -0.0629(3) 0.00629(14) 0.30092(17)
F8 F -0.1361(3) 0.05827(15) 0.38732(18)
F9 F 0.0573(3) -0.00595(14) 0.41387(17)
F10 F 0.5576(3) 0.17399(16) 0.41090(19)
F11 F 0.4807(3) 0.20861(15) 0.50563(17)
F12 F 0.4813(3) 0.09810(14) 0.47832(17)
O1 O 0.3113(3) 0.03056(13) 0.02602(15)
O2 O 0.1173(3) 0.34016(13) 0.24704(15)
O3 O -0.0069(3) 0.15147(14) 0.31137(16)
N1 N 0.1481(3) 0.19379(15) 0.19561(17)
N2 N 0.3093(3) 0.09915(16) 0.02702(17)
N3 N 0.4684(3) 0.20176(15) -0.13791(17)
N4 N -0.1515(3) 0.25769(16) 0.19509(19)
N5 N 0.2656(3) 0.23045(17) 0.36043(18)
C1 C 0.1283(4) 0.12417(19) 0.1780(2)
C2 C 0.1789(4) 0.09207(19) 0.1227(2)
C3 C 0.2571(4) 0.13273(18) 0.0834(2)
C4 C 0.2845(4) 0.20384(19) 0.1031(2)
C5 C 0.2262(4) 0.23141(19) 0.1577(2)
C6 C 0.5096(4) 0.13541(19) -0.1136(2)
C7 C 0.4622(4) 0.10137(19) -0.0583(2)
C8 C 0.3624(3) 0.13539(18) -0.02820(19)
C9 C 0.3126(4) 0.20270(19) -0.0544(2)
C10 C 0.3709(4) 0.23338(19) -0.1075(2)
C11 C -0.2418(4) 0.1968(2) 0.1847(2)
C12 C -0.2260(4) 0.1445(2) 0.1334(2)
C13 C -0.3063(5) 0.0824(2) 0.1277(2)
C14 C -0.3960(5) 0.0705(2) 0.1722(2)
C15 C -0.4157(4) 0.1217(2) 0.2223(2)
C16 C -0.3361(4) 0.1843(2) 0.2287(2)
C17 C 0.3594(4) 0.2913(2) 0.3716(2)
C18 C 0.3600(5) 0.3380(2) 0.4299(2)
C19 C 0.4405(5) 0.4007(2) 0.4350(2)
C20 C 0.5166(5) 0.4169(2) 0.3841(3)
C21 C 0.5164(5) 0.3703(2) 0.3263(2)
C22 C 0.4379(4) 0.3082(2) 0.3204(2)
C23 C 0.1186(5) 0.4533(2) 0.1972(2)
C24 C 0.0380(4) 0.38491(19) 0.2048(2)
C25 C -0.1897(4) 0.3170(2) 0.1594(2)
C26 C -0.3429(5) 0.3221(2) 0.1032(3)
C27 C -0.0173(5) 0.0408(2) 0.3654(2)
C28 C 0.0677(4) 0.10706(19) 0.3561(2)
C29 C 0.2114(5) 0.1109(2) 0.3950(2)
C30 C 0.3021(4) 0.1716(2) 0.3973(2)
C31 C 0.4571(6) 0.1629(2) 0.4486(3)
C32 C -0.1042(4) 0.3798(2) 0.1642(2)
H1 H 0.0768 0.0958 0.2051
H2 H 0.1608 0.0431 0.1116
H3 H 0.3418 0.2325 0.0795
H4 H 0.2420 0.2804 0.1695
H5 H 0.5750 0.1108 -0.1358
H6 H 0.4976 0.0555 -0.0415
H7 H 0.2407 0.2266 -0.0362
H8 H 0.3400 0.2800 -0.1238
H9 H -0.1610 0.1516 0.1028
H10 H -0.2980 0.0476 0.0919
H11 H -0.4462 0.0265 0.1691
H12 H -0.4825 0.1141 0.2518
H13 H -0.3468 0.2192 0.2639
H14 H 0.3069 0.3273 0.4655
H15 H 0.4421 0.4328 0.4747
H16 H 0.5698 0.4600 0.3882
H17 H 0.5701 0.3812 0.2910
H18 H 0.4374 0.2764 0.2806
H19 H 0.2529 0.0701 0.4223
H20 H -0.1477 0.4207 0.1377
Co1C Co 0.55731(5) 0.25506(2) -0.22093(3)
N3C N -0.0316(3) 0.29824(15) 0.36209(17)
loop_
_geom_bond_atom_site_label_1
_geom_bond_atom_site_label_2
_geom_bond_site_symmetry_1
_geom_bond_site_symmetry_2
Co1 O2 1_555 1_555
F1 C23 1_555 1_555
F2 C23 1_555 1_555
F3 C23 1_555 1_555
F4 C26 1_555 1_555
F5 C26 1_555 1_555
F6 C26 1_555 1_555
F7 C27 1_555 1_555
F8 C27 1_555 1_555
F9 C27 1_555 1_555
F10 C31 1_555 1_555
F11 C31 1_555 1_555
F12 C31 1_555 1_555
O1 N2 1_555 1_555
O2 C24 1_555 1_555
O3 Co1 1_555 1_555
N1 Co1 1_555 1_555
N2 C3 1_555 1_555
N3 C6 1_555 1_555
N4 Co1 1_555 1_555
N5 Co1 1_555 1_555
C1 N1 1_555 1_555
C2 C1 1_555 1_555
C3 C2 1_555 1_555
C4 C3 1_555 1_555
C5 N1 1_555 1_555
C6 C7 1_555 1_555
C7 C8 1_555 1_555
C8 N2 1_555 1_555
C9 C8 1_555 1_555
C10 N3 1_555 1_555
C11 N4 1_555 1_555
C12 C11 1_555 1_555
C13 C12 1_555 1_555
C14 C13 1_555 1_555
C15 C14 1_555 1_555
C16 C11 1_555 1_555
C17 N5 1_555 1_555
C18 C17 1_555 1_555
C19 C18 1_555 1_555
C20 C19 1_555 1_555
C21 C20 1_555 1_555
C22 C17 1_555 1_555
C23 C24 1_555 1_555
C24 C32 1_555 1_555
C25 N4 1_555 1_555
C26 C25 1_555 1_555
C27 C28 1_555 1_555
C28 O3 1_555 1_555
C29 C28 1_555 1_555
C30 N5 1_555 1_555
C31 C30 1_555 1_555
C32 C25 1_555 1_555
H1 C1 1_555 1_555
H2 C2 1_555 1_555
H3 C4 1_555 1_555
H4 C5 1_555 1_555
H5 C6 1_555 1_555
H6 C7 1_555 1_555
H7 C9 1_555 1_555
H8 C10 1_555 1_555
H9 C12 1_555 1_555
H10 C13 1_555 1_555
H11 C14 1_555 1_555
H12 C15 1_555 1_555
H13 C16 1_555 1_555
H14 C18 1_555 1_555
H15 C19 1_555 1_555
H16 C20 1_555 1_555
H17 C21 1_555 1_555
H18 C22 1_555 1_555
H19 C29 1_555 1_555
H20 C32 1_555 1_555
Co1C N3 1_555 1_555
N3C Co1 1_555 1_555
C4 C5 1_555 1_555
C9 C10 1_555 1_555
C15 C16 1_555 1_555
C21 C22 1_555 1_555
C29 C30 1_555 1_555

#END
