
#######################################################################
#
#                 Cambridge Crystallographic Data Centre
#                                CCDC 
#
#######################################################################
#
# If this CIF has been generated from an entry in the Cambridge 
# Structural Database, then it will include bibliographic, chemical, 
# crystal, experimental, refinement or atomic coordinate data resulting 
# from the CCDC's data processing and validation procedures.
#
#######################################################################

data_GAWSUU
_symmetry_cell_setting           monoclinic
_symmetry_space_group_name_H-M   'P 21/n'
_symmetry_Int_Tables_number      14
_space_group_name_Hall           '-P 2yn'
loop_
_symmetry_equiv_pos_site_id
_symmetry_equiv_pos_as_xyz
1 x,y,z
2 1/2-x,1/2+y,1/2-z
3 -x,-y,-z
4 1/2+x,1/2-y,1/2+z
_cell_length_a                   16.338(5)
_cell_length_b                   14.020(4)
_cell_length_c                   18.562(5)
_cell_angle_alpha                90
_cell_angle_beta                 110.931(3)
_cell_angle_gamma                90
_cell_volume                     3971.22
loop_
_atom_site_label
_atom_site_type_symbol
_atom_site_fract_x
_atom_site_fract_y
_atom_site_fract_z
I1 I 1.21672(2) 0.33901(3) 0.20195(2)
I2 I 0.38411(3) 0.31292(3) 0.10954(3)
Co1 Co 0.76466(5) 0.20657(5) -0.00200(4)
F1 F 1.0555(2) 0.1141(3) 0.0948(2)
F2 F 1.0026(3) -0.0243(3) 0.0763(3)
F3 F 1.0516(3) 0.0312(6) 0.1894(2)
F4 F 0.5130(2) 0.3745(3) -0.1659(2)
F5 F 0.4873(2) 0.4459(3) -0.0742(2)
F6 F 0.4713(2) 0.2955(3) -0.0876(2)
F7 F 0.7832(3) 0.1575(3) 0.2715(2)
F8 F 0.7350(2) 0.5757(2) 0.0903(2)
F9 F 0.8262(2) 0.0133(2) 0.2705(2)
F10 F 0.6933(2) 0.0488(4) 0.2102(2)
F11 F 0.8534(2) 0.5034(2) 0.1558(2)
F12 F 0.8364(3) 0.5610(2) 0.0431(2)
O1 O 0.9951(2) 0.3610(3) -0.2386(2)
O2 O 0.8816(2) 0.1380(2) 0.0400(2)
O3 O 0.6453(2) 0.2696(2) -0.0523(2)
N1 N 0.8106(2) 0.2602(3) -0.0925(2)
N2 N 0.9143(3) 0.3824(3) -0.2490(2)
N3 N 0.8057(3) 0.3461(3) 0.0525(2)
N4 N 0.7407(3) 0.1550(2) 0.0989(2)
N5 N 0.7963(3) 0.5849(2) -0.4231(2)
C1 C 0.9241(3) 0.5134(3) -0.3300(3)
C2 C 0.8993(3) 0.3512(3) 0.0884(2)
C3 C 0.8807(3) 0.2240(3) -0.1044(2)
C4 C 1.0800(3) 0.3456(3) 0.1538(3)
C5 C 0.9392(3) 0.3114(3) 0.1619(2)
C6 C 0.6642(3) 0.4251(3) 0.0027(3)
C7 C 0.7953(3) 0.1055(3) 0.1549(2)
C8 C 0.7816(3) 0.4490(3) -0.3490(2)
C9 C 0.6601(3) 0.1893(3) 0.1038(2)
C10 C 0.8771(3) 0.3431(3) -0.1978(2)
C11 C 0.5028(3) 0.2600(4) 0.1052(3)
C12 C 1.0401(3) 0.3847(3) 0.0805(3)
C13 C 0.6179(3) 0.3512(3) -0.0424(2)
C14 C 0.5824(3) 0.1394(4) 0.0667(3)
C15 C 0.8794(3) 0.0736(3) 0.1587(2)
C16 C 0.7556(3) 0.4210(3) 0.0457(2)
C17 C 0.7733(4) 0.0802(4) 0.2269(3)
C18 C 0.7472(3) 0.5182(3) -0.4051(2)
C19 C 1.0309(3) 0.3089(3) 0.1947(3)
C20 C 0.7957(3) 0.5159(3) 0.0843(3)
C21 C 0.6584(3) 0.2748(3) 0.1405(3)
C22 C 0.7740(3) 0.3386(3) -0.1330(3)
C23 C 0.9149(3) 0.0929(3) 0.1034(2)
C24 C 0.8720(3) 0.4482(3) -0.3086(2)
C25 C 0.5032(4) 0.1740(4) 0.0685(3)
C26 C 0.8837(3) 0.5798(3) -0.3866(3)
C27 C 0.5783(4) 0.3106(4) 0.1413(3)
C28 C 1.0072(3) 0.0539(4) 0.1165(3)
C29 C 0.9493(3) 0.3867(3) 0.0478(3)
C30 C 0.8050(3) 0.3831(3) -0.1849(3)
C31 C 0.5218(3) 0.3679(4) -0.0919(3)
C32 C 0.9159(3) 0.2616(3) -0.1563(2)
H1 H 0.9861 0.5120 -0.3060
H2 H 0.9080 0.1693 -0.0756
H3 H 0.9046 0.2864 0.1892
H4 H 0.6335 0.4818 0.0052
H5 H 0.7447 0.4031 -0.3384
H6 H 1.0747 0.4096 0.0532
H7 H 0.5836 0.0817 0.0402
H8 H 0.9131 0.0368 0.2022
H9 H 0.6856 0.5186 -0.4323
H10 H 1.0591 0.2822 0.2446
H11 H 0.7111 0.3092 0.1650
H12 H 0.7241 0.3650 -0.1256
H13 H 0.4504 0.1393 0.0450
H14 H 0.9195 0.6242 -0.4005
H15 H 0.5765 0.3691 0.1666
H16 H 0.9214 0.4125 -0.0023
H17 H 0.7779 0.4394 -0.2111
H18 H 0.9650 0.2326 -0.1634
Co1A Co 0.73534(5) 0.70657(5) -0.49800(4)
N5A N 0.7037(3) 0.0849(2) -0.0769(2)
Cl1 Cl 0.84973(16) -0.21139(17) 0.16807(14)
Cl2 Cl 0.71941(15) -0.09621(17) 0.05435(13)
Cl3 Cl 0.85430(16) -0.19533(17) 0.01492(14)
C33 C 0.7875(6) -0.2011(7) 0.0731(5)
H19 H 0.7488 -0.2584 0.0573
loop_
_geom_bond_atom_site_label_1
_geom_bond_atom_site_label_2
_geom_bond_site_symmetry_1
_geom_bond_site_symmetry_2
I1 C4 1_555 1_555
I2 C11 1_555 1_555
Co1 O2 1_555 1_555
Cl1 C33 1_555 1_555
Cl2 C33 1_555 1_555
Cl3 C33 1_555 1_555
F1 C28 1_555 1_555
F2 C28 1_555 1_555
F3 C28 1_555 1_555
F4 C31 1_555 1_555
F5 C31 1_555 1_555
F6 C31 1_555 1_555
F7 C17 1_555 1_555
F8 C20 1_555 1_555
F9 C17 1_555 1_555
F10 C17 1_555 1_555
F11 C20 1_555 1_555
F12 C20 1_555 1_555
O1 N2 1_555 1_555
O2 C23 1_555 1_555
O3 Co1 1_555 1_555
N1 Co1 1_555 1_555
N2 C10 1_555 1_555
N3 Co1 1_555 1_555
N4 Co1 1_555 1_555
N5 C18 1_555 1_555
C1 C24 1_555 1_555
C2 N3 1_555 1_555
C3 N1 1_555 1_555
C4 C12 1_555 1_555
C5 C2 1_555 1_555
C6 C13 1_555 1_555
C7 N4 1_555 1_555
C8 C18 1_555 1_555
C9 N4 1_555 1_555
C10 C30 1_555 1_555
C11 C25 1_555 1_555
C12 C29 1_555 1_555
C13 O3 1_555 1_555
C14 C9 1_555 1_555
C15 C7 1_555 1_555
C16 N3 1_555 1_555
C17 C7 1_555 1_555
C18 H9 1_555 1_555
C19 C4 1_555 1_555
C20 C16 1_555 1_555
C21 C9 1_555 1_555
C22 N1 1_555 1_555
C23 C15 1_555 1_555
C24 N2 1_555 1_555
C25 C14 1_555 1_555
C26 N5 1_555 1_555
C27 C11 1_555 1_555
C28 C23 1_555 1_555
C29 C2 1_555 1_555
C30 C22 1_555 1_555
C31 C13 1_555 1_555
C32 C3 1_555 1_555
C33 H19 1_555 1_555
H1 C1 1_555 1_555
H2 C3 1_555 1_555
H3 C5 1_555 1_555
H4 C6 1_555 1_555
H5 C8 1_555 1_555
H6 C12 1_555 1_555
H7 C14 1_555 1_555
H8 C15 1_555 1_555
H10 C19 1_555 1_555
H11 C21 1_555 1_555
H12 C22 1_555 1_555
H13 C25 1_555 1_555
H14 C26 1_555 1_555
H15 C27 1_555 1_555
H16 C29 1_555 1_555
H17 C30 1_555 1_555
H18 C32 1_555 1_555
Co1A N5 1_555 1_555
N5A Co1 1_555 1_555
C1 C26 1_555 1_555
C5 C19 1_555 1_555
C6 C16 1_555 1_555
C8 C24 1_555 1_555
C10 C32 1_555 1_555
C21 C27 1_555 1_555

#END
