
#######################################################################
#
#                 Cambridge Crystallographic Data Centre
#                                CCDC 
#
#######################################################################
#
# If this CIF has been generated from an entry in the Cambridge 
# Structural Database, then it will include bibliographic, chemical, 
# crystal, experimental, refinement or atomic coordinate data resulting 
# from the CCDC's data processing and validation procedures.
#
#######################################################################

data_GAWSEE
_symmetry_cell_setting           monoclinic
_symmetry_space_group_name_H-M   'P 21/n'
_symmetry_Int_Tables_number      14
_space_group_name_Hall           '-P 2yn'
loop_
_symmetry_equiv_pos_site_id
_symmetry_equiv_pos_as_xyz
1 x,y,z
2 1/2-x,1/2+y,1/2-z
3 -x,-y,-z
4 1/2+x,1/2-y,1/2+z
_cell_length_a                   15.294(8)
_cell_length_b                   13.850(7)
_cell_length_c                   18.514(9)
_cell_angle_alpha                90
_cell_angle_beta                 110.744(7)
_cell_angle_gamma                90
_cell_volume                     3667.44
loop_
_atom_site_label
_atom_site_type_symbol
_atom_site_fract_x
_atom_site_fract_y
_atom_site_fract_z
Co1 Co 0.75442(4) 0.29175(4) 0.99462(3)
Cl1 Cl 1.21424(8) 0.15718(9) 1.21329(8)
Cl2 Cl 0.37074(16) 0.18273(18) 1.11220(17)
F1 F 0.7680(4) 0.3400(4) 1.2680(2)
F2 F 0.8014(2) 0.4897(2) 1.26186(19)
F3 F 0.6642(2) 0.4393(5) 1.2033(3)
F4 F 0.4926(2) 0.1280(2) 0.82630(18)
F5 F 0.4460(2) 0.1905(2) 0.9106(2)
F6 F 0.4702(2) 0.0406(2) 0.9120(2)
F7 F 1.0607(2) 0.3922(2) 1.1022(2)
F8 F 0.9985(2) 0.5278(2) 1.0739(2)
F9 F 1.0464(2) 0.4830(4) 1.1886(2)
F10 F 0.8458(2) -0.0604(2) 1.0444(2)
F11 F 0.8500(2) -0.0047(2) 1.15401(18)
F12 F 0.7307(2) -0.08229(18) 1.08146(18)
O1 O 0.8777(2) 0.3610(2) 1.03988(17)
O2 O 0.6300(2) 0.2286(2) 0.94182(18)
O3 O 0.4909(2) 0.6544(2) 0.7392(2)
N1 N 0.6923(2) 0.4183(2) 0.9225(2)
N2 N 0.5765(2) 0.6281(2) 0.7509(2)
N3 N 0.6938(2) 0.7397(2) 0.5949(2)
N4 N 0.8029(2) 0.1534(2) 1.0501(2)
N5 N 0.7221(2) 0.3405(2) 1.0935(2)
C1 C 0.9074(3) 0.4100(3) 1.1018(2)
C4 C 0.7288(3) 0.6601(2) 0.6368(2)
C5 C 0.5031(3) 0.1250(3) 0.9003(3)
C6 C 1.0926(3) 0.1564(3) 1.1648(2)
C7 C 0.6041(3) 0.1441(3) 0.9511(2)
C8 C 0.6185(2) 0.6643(2) 0.7002(2)
C9 C 0.9022(3) 0.1508(2) 1.0907(2)
C10 C 1.0041(3) 0.4523(3) 1.1177(3)
C11 C 0.6201(3) 0.7798(3) 0.6061(2)
C12 C 0.5812(2) 0.7458(3) 0.6574(2)
C13 C 0.7949(3) -0.0184(3) 1.0809(3)
C14 C 0.7124(3) 0.5573(3) 0.8528(2)
C15 C 0.5596(3) 0.4927(2) 0.8267(2)
C16 C 0.9612(3) 0.1168(3) 1.0544(2)
C17 C 0.6177(2) 0.5587(2) 0.8098(2)
C18 C 0.7515(3) 0.0761(2) 1.0413(2)
C19 C 0.5998(3) 0.4235(3) 0.8824(2)
C20 C 0.7459(3) 0.4862(2) 0.9078(2)
C21 C 0.9402(3) 0.1897(2) 1.1645(2)
C22 C 0.6549(3) 0.0708(3) 0.9957(2)
C23 C 1.0360(3) 0.1925(3) 1.2021(2)
C24 C 1.0570(3) 0.1192(3) 1.0916(2)
C25 C 0.6939(3) 0.6197(3) 0.6883(2)
C26 C 0.6365(3) 0.3024(3) 1.0982(3)
C27 C 0.8647(3) 0.4295(3) 1.1535(2)
C28 C 0.7763(3) 0.3943(3) 1.1493(2)
C29 C 0.6388(4) 0.2178(3) 1.1391(3)
C30 C 0.7491(4) 0.4181(5) 1.2195(4)
C31 C 0.5530(3) 0.3472(4) 1.0593(3)
C32 C 0.5558(5) 0.1810(4) 1.1425(4)
C33 C 0.4732(5) 0.2286(6) 1.1043(4)
C34 C 0.4708(4) 0.3105(6) 1.0631(4)
H1 H 0.7802 0.6307 0.6304
H2 H 0.5936 0.8343 0.5774
H3 H 0.5304 0.7772 0.6633
H4 H 0.7525 0.6031 0.8447
H5 H 0.4952 0.4948 0.8011
H6 H 0.9361 0.0921 1.0046
H7 H 0.5609 0.3782 0.8928
H8 H 0.8095 0.4855 0.9365
H9 H 0.6241 0.0131 0.9964
H10 H 1.0618 0.2182 1.2516
H11 H 1.0966 0.0960 1.0673
H12 H 0.7200 0.5635 0.7147
H13 H 0.8964 0.4692 1.1951
H14 H 0.6952 0.1862 1.1639
H15 H 0.5518 0.4023 1.0302
H16 H 0.5561 0.1249 1.1701
H17 H 0.4143 0.3415 1.0378
H18 H 0.9010 0.2140 1.1888
Co1A Co 0.74558(4) 0.79175(4) 0.50538(3)
N3A N 0.8062(2) 0.2397(2) 0.9051(2)
Cl3 Cl 0.7896(17) 0.6912(18) 1.0909(15)
Cl4 Cl 0.6880(8) 0.5902(8) 1.0646(7)
Cl5 Cl 0.6611(14) 0.6090(15) 1.1346(12)
C3 C 0.7255(14) 0.6475(14) 1.1227(12)
Cl6? Cl 0.8334(7) 0.6975(6) 1.1658(6)
Cl7? Cl 0.8316(7) 0.6934(7) 1.0174(6)
C2? C 0.7868(16) 0.6929(15) 1.1188(16)
loop_
_geom_bond_atom_site_label_1
_geom_bond_atom_site_label_2
_geom_bond_site_symmetry_1
_geom_bond_site_symmetry_2
Co1 O1 1_555 1_555
Cl1 C6 1_555 1_555
Cl2 C33 1_555 1_555
Cl3 C3 1_555 1_555
Cl4 C3 1_555 1_555
Cl5 C3 1_555 1_555
F1 C30 1_555 1_555
F2 C30 1_555 1_555
F3 C30 1_555 1_555
F4 C5 1_555 1_555
F5 C5 1_555 1_555
F6 C5 1_555 1_555
F7 C10 1_555 1_555
F8 C10 1_555 1_555
F9 C10 1_555 1_555
F10 C13 1_555 1_555
F11 C13 1_555 1_555
F12 C13 1_555 1_555
O1 C1 1_555 1_555
O2 Co1 1_555 1_555
O3 N2 1_555 1_555
N1 Co1 1_555 1_555
N2 C8 1_555 1_555
N3 C4 1_555 1_555
N4 Co1 1_555 1_555
N5 Co1 1_555 1_555
C1 C10 1_555 1_555
C4 C25 1_555 1_555
C5 C7 1_555 1_555
C6 C23 1_555 1_555
C7 O2 1_555 1_555
C8 C12 1_555 1_555
C9 N4 1_555 1_555
C11 N3 1_555 1_555
C12 C11 1_555 1_555
C13 C18 1_555 1_555
C14 C17 1_555 1_555
C15 C17 1_555 1_555
C16 C9 1_555 1_555
C17 N2 1_555 1_555
C18 N4 1_555 1_555
C19 N1 1_555 1_555
C20 N1 1_555 1_555
C21 C9 1_555 1_555
C22 C7 1_555 1_555
C23 C21 1_555 1_555
C24 C6 1_555 1_555
C25 C8 1_555 1_555
C26 N5 1_555 1_555
C27 C1 1_555 1_555
C28 N5 1_555 1_555
C29 C26 1_555 1_555
C30 C28 1_555 1_555
C31 C26 1_555 1_555
C32 C29 1_555 1_555
C33 C32 1_555 1_555
C34 C31 1_555 1_555
H1 C4 1_555 1_555
H2 C11 1_555 1_555
H3 C12 1_555 1_555
H4 C14 1_555 1_555
H5 C15 1_555 1_555
H6 C16 1_555 1_555
H7 C19 1_555 1_555
H8 C20 1_555 1_555
H9 C22 1_555 1_555
H10 C23 1_555 1_555
H11 C24 1_555 1_555
H12 C25 1_555 1_555
H13 C27 1_555 1_555
H14 C29 1_555 1_555
H15 C31 1_555 1_555
H16 C32 1_555 1_555
H17 C34 1_555 1_555
H18 C21 1_555 1_555
Co1A N3 1_555 1_555
N3A Co1 1_555 1_555
C14 C20 1_555 1_555
C15 C19 1_555 1_555
C16 C24 1_555 1_555
C18 C22 1_555 1_555
C27 C28 1_555 1_555
C33 C34 1_555 1_555

#END
