
#######################################################################
#
#                 Cambridge Crystallographic Data Centre
#                                CCDC 
#
#######################################################################
#
# If this CIF has been generated from an entry in the Cambridge 
# Structural Database, then it will include bibliographic, chemical, 
# crystal, experimental, refinement or atomic coordinate data resulting 
# from the CCDC's data processing and validation procedures.
#
#######################################################################

data_GAWSIH
_symmetry_cell_setting           orthorhombic
_symmetry_space_group_name_H-M   'P c c n'
_symmetry_Int_Tables_number      56
_space_group_name_Hall           '-P 2ab 2ac'
loop_
_symmetry_equiv_pos_site_id
_symmetry_equiv_pos_as_xyz
1 x,y,z
2 1/2-x,1/2-y,z
3 -x,1/2+y,1/2-z
4 1/2+x,-y,1/2-z
5 -x,-y,-z
6 1/2+x,1/2+y,-z
7 x,1/2-y,1/2+z
8 1/2-x,y,1/2+z
_cell_length_a                   17.932(4)
_cell_length_b                   7.4244(15)
_cell_length_c                   15.067(3)
_cell_angle_alpha                90
_cell_angle_beta                 90
_cell_angle_gamma                90
_cell_volume                     2005.94
loop_
_atom_site_label
_atom_site_type_symbol
_atom_site_fract_x
_atom_site_fract_y
_atom_site_fract_z
Ni1 Ni 0.454140(10) 0.17826(3) 0.628000(10)
O1 O 0.55877(8) 0.2765(2) 0.61918(9)
O2 O 0.58407(8) 0.31922(19) 0.47543(9)
O3 O 0.90931(7) 0.66551(17) 0.49877(8)
O4 O 0.83794(8) 0.5779(2) 0.39024(8)
O5 O 0.77774(8) 0.5428(2) 0.78148(9)
O6 O 0.41751(8) 0.43417(19) 0.65233(10)
O7 O 0.46406(9) 0.1506(2) 0.76241(10)
O8 O 0.48991(8) -0.08363(18) 0.61828(8)
C1 C 0.69031(10) 0.4408(3) 0.67124(12)
C2 C 0.75761(11) 0.5177(3) 0.69464(12)
C3 C 0.80802(11) 0.5707(3) 0.62967(11)
C4 C 0.79139(10) 0.5441(2) 0.54034(12)
C5 C 0.72373(10) 0.4677(2) 0.51620(12)
C6 C 0.67272(10) 0.4170(2) 0.58160(12)
C7 C 0.59944(10) 0.3319(2) 0.55631(13)
C8 C 0.84784(10) 0.5984(3) 0.47282(11)
H1 H 0.65680 0.40490 0.71490
H2 H 0.85290 0.62390 0.64590
H3 H 0.71240 0.45030 0.45660
H4 H 0.74030 0.54240 0.81280
H5 H 0.4151(14) 0.502(3) 0.6053(10)
H6 H 0.3720(8) 0.435(4) 0.6739(19)
H7 H 0.4905(16) 0.057(3) 0.777(2)
H8 H 0.4805(17) 0.244(3) 0.7918(18)
H9 H 0.5295(9) -0.088(4) 0.5854(15)
H10 H 0.4592(10) -0.154(2) 0.5885(14)
Ni1E Ni 0.954140(10) 0.67826(3) 0.372000(10)
O3E O 0.40931(7) 0.16551(17) 0.50123(8)
O4E O 0.33794(8) 0.0779(2) 0.60976(8)
loop_
_geom_bond_atom_site_label_1
_geom_bond_atom_site_label_2
_geom_bond_site_symmetry_1
_geom_bond_site_symmetry_2
Ni1 O1 1_555 1_555
O1 C7 1_555 1_555
O2 C7 1_555 1_555
O3 C8 1_555 1_555
O4 C8 1_555 1_555
O5 C2 1_555 1_555
O6 Ni1 1_555 1_555
O7 Ni1 1_555 1_555
O8 Ni1 1_555 1_555
C1 C2 1_555 1_555
C2 C3 1_555 1_555
C3 C4 1_555 1_555
C4 C5 1_555 1_555
C5 C6 1_555 1_555
C6 C1 1_555 1_555
C7 C6 1_555 1_555
C8 C4 1_555 1_555
H1 C1 1_555 1_555
H2 C3 1_555 1_555
H3 C5 1_555 1_555
H4 O5 1_555 1_555
H5 O6 1_555 1_555
H6 O6 1_555 1_555
H7 O7 1_555 1_555
H8 O7 1_555 1_555
H9 O8 1_555 1_555
H10 O8 1_555 1_555
Ni1E O3 1_555 1_555
O3E Ni1 1_555 1_555
O4E Ni1 1_555 1_555
O4 Ni1E 1_555 1_555

#END
