
#######################################################################
#
#                 Cambridge Crystallographic Data Centre
#                                CCDC 
#
#######################################################################
#
# If this CIF has been generated from an entry in the Cambridge 
# Structural Database, then it will include bibliographic, chemical, 
# crystal, experimental, refinement or atomic coordinate data resulting 
# from the CCDC's data processing and validation procedures.
#
#######################################################################

data_GAWSII
_symmetry_cell_setting           monoclinic
_symmetry_space_group_name_H-M   'P 21/c'
_symmetry_Int_Tables_number      14
_space_group_name_Hall           '-P 2ybc'
loop_
_symmetry_equiv_pos_site_id
_symmetry_equiv_pos_as_xyz
1 x,y,z
2 -x,1/2+y,1/2-z
3 -x,-y,-z
4 x,1/2-y,1/2+z
_cell_length_a                   12.124(12)
_cell_length_b                   16.469(15)
_cell_length_c                   20.811(20)
_cell_angle_alpha                90
_cell_angle_beta                 94.210(12)
_cell_angle_gamma                90
_cell_volume                     4144.12
loop_
_atom_site_label
_atom_site_type_symbol
_atom_site_fract_x
_atom_site_fract_y
_atom_site_fract_z
Co1 Co 0.34134(7) 0.24877(4) 0.92397(4)
Cl1 Cl -0.21134(15) 0.33067(10) 0.85839(10)
Cl2 Cl 0.41809(17) 0.28301(12) 1.21269(9)
Cl3 Cl 0.69671(15) 0.08732(11) 1.09441(10)
Cl4 Cl -0.13658(17) 0.21164(10) 0.97191(10)
Cl5 Cl -0.04007(16) 0.45695(11) 0.81393(10)
Cl6 Cl 0.64677(17) 0.19278(14) 1.21448(9)
F1 F 0.3113(4) 0.0001(2) 1.0578(2)
F2 F 0.1914(6) 0.0791(3) 1.0956(2)
F3 F 0.6198(4) 0.4273(3) 1.0819(2)
F4 F 0.6611(3) 0.3940(2) 0.9887(2)
F5 F -0.0069(3) 0.1843(2) 0.8159(2)
F6 F 0.0052(3) 0.0569(2) 0.8343(2)
F7 F 0.1122(3) 0.1120(3) 0.7725(2)
F8 F 0.2675(4) 0.4814(2) 1.1067(2)
F9 F 0.1560(3) 0.4895(2) 1.0235(2)
F10 F 0.1437(5) 0.3910(3) 1.0892(2)
F11 F 0.1406(3) -0.0142(2) 1.0297(2)
F12 F 0.6601(3) 0.3046(2) 1.0612(2)
O1 O 0.7825(4) 0.0489(3) 0.7993(3)
O2 O 0.4774(3) 0.2957(2) 0.97337(19)
O3 O 0.2086(3) 0.2022(2) 0.87149(19)
N1 N 0.2496(4) 0.3383(2) 0.9770(2)
N2 N 0.3090(4) 0.1551(2) 0.9940(2)
N3 N 0.4540(4) 0.1702(2) 0.8784(2)
N4 N 0.6768(4) 0.0310(3) 0.7829(2)
N5 N 0.6490(4) -0.1637(2) 0.6535(2)
C1 C 0.4219(5) 0.1003(3) 0.8496(2)
C2 C 0.6340(5) 0.1466(3) 0.8440(2)
C3 C 0.5585(4) 0.1914(3) 0.8752(3)
C4 C 0.7311(5) -0.1579(3) 0.7002(2)
C5 C 0.3875(5) 0.1591(3) 1.0487(2)
C6 C 0.1357(5) 0.3405(3) 0.9543(2)
C11 C 0.6598(5) -0.0368(3) 0.7421(2)
C12 C 0.5691(5) -0.1071(3) 0.6537(3)
C13 C 0.0645(5) 0.1232(3) 0.8266(3)
C14 C 0.4858(5) 0.3503(3) 1.0158(2)
C15 C 0.1025(5) 0.3945(3) 0.9049(3)
C16 C 0.5995(5) 0.0754(3) 0.8133(2)
C17 C 0.1480(5) 0.1416(3) 0.8820(3)
C18 C 0.2909(5) 0.3859(3) 1.0223(3)
C19 C 0.2170(6) 0.4377(4) 1.0618(3)
C20 C 0.2314(5) 0.1006(3) 0.9884(3)
C21 C 0.3643(5) 0.2071(3) 1.1007(3)
C22 C 0.4904(5) 0.1231(3) 1.0469(3)
C23 C 0.4901(4) 0.0519(3) 0.8168(2)
C24 C 0.5700(5) -0.0440(3) 0.6968(3)
C25 C 0.7406(5) -0.0966(3) 0.7444(3)
C26 C 0.5684(5) 0.1332(3) 1.0980(3)
C27 C 0.5474(5) 0.1805(3) 1.1508(3)
C28 C 0.4044(5) 0.3934(3) 1.0425(3)
C29 C 0.0600(5) 0.2849(3) 0.9750(3)
C30 C 0.4456(5) 0.2184(3) 1.1509(3)
C31 C 0.6062(6) 0.3693(3) 1.0383(3)
C32 C -0.0454(5) 0.2829(3) 0.9465(3)
C33 C 0.2186(7) 0.0411(4) 1.0429(3)
C34 C -0.0033(5) 0.3910(3) 0.8766(3)
C35 C -0.0796(5) 0.3353(3) 0.8961(3)
C36 C 0.1527(5) 0.0923(3) 0.9353(3)
H1 H 0.3473 0.0836 0.8522
H2 H 0.7086 0.1641 0.8436
H3 H 0.5830 0.2405 0.8956
H4 H 0.7861 -0.1991 0.7026
H5 H 0.5085 -0.1110 0.6222
H6 H 0.1530 0.4336 0.8908
H7 H 0.2939 0.2320 1.1021
H8 H 0.5072 0.0916 1.0106
H9 H 0.4632 0.0032 0.7968
H10 H 0.5107 -0.0061 0.6957
H11 H 0.8011 -0.0949 0.7761
H12 H 0.4250 0.4304 1.0763
H13 H 0.0813 0.2482 1.0089
H14 H 0.0996 0.0500 0.9365
Co1A Co 0.65866(7) -0.25123(4) 0.57603(4)
N5A N 0.3510(4) 0.3363(2) 0.8465(2)
N6 N 0.0910(12) 0.2256(8) 1.1489(7)
C7 C -0.0017(15) 0.2654(12) 1.1568(9)
C9 C -0.1026(14) 0.3166(10) 1.1594(8)
C8? C -0.1623(11) 0.3826(8) 1.1975(6)
C10? C -0.096(2) 0.3765(16) 1.0924(13)
N7? N 0.023(2) 0.2049(16) 1.1625(12)
loop_
_geom_bond_atom_site_label_1
_geom_bond_atom_site_label_2
_geom_bond_site_symmetry_1
_geom_bond_site_symmetry_2
Co1 O2 1_555 1_555
Cl1 C35 1_555 1_555
Cl2 C30 1_555 1_555
Cl3 C26 1_555 1_555
Cl4 C32 1_555 1_555
Cl5 C34 1_555 1_555
Cl6 C27 1_555 1_555
F1 C33 1_555 1_555
F2 C33 1_555 1_555
F3 C31 1_555 1_555
F4 C31 1_555 1_555
F5 C13 1_555 1_555
F6 C13 1_555 1_555
F7 C13 1_555 1_555
F8 C19 1_555 1_555
F9 C19 1_555 1_555
F10 C19 1_555 1_555
F11 C33 1_555 1_555
F12 C31 1_555 1_555
O1 N4 1_555 1_555
O2 C14 1_555 1_555
O3 Co1 1_555 1_555
N1 Co1 1_555 1_555
N2 Co1 1_555 1_555
N3 Co1 1_555 1_555
N4 C11 1_555 1_555
N5 C4 1_555 1_555
N6 C7 1_555 1_555
C1 N3 1_555 1_555
C2 C3 1_555 1_555
C3 N3 1_555 1_555
C4 C25 1_555 1_555
C5 N2 1_555 1_555
C6 N1 1_555 1_555
C7 C9 1_555 1_555
C11 C24 1_555 1_555
C12 N5 1_555 1_555
C13 C17 1_555 1_555
C14 C28 1_555 1_555
C15 C6 1_555 1_555
C16 N4 1_555 1_555
C17 O3 1_555 1_555
C18 N1 1_555 1_555
C19 C18 1_555 1_555
C20 N2 1_555 1_555
C21 C5 1_555 1_555
C22 C5 1_555 1_555
C23 C1 1_555 1_555
C24 C12 1_555 1_555
C25 C11 1_555 1_555
C26 C22 1_555 1_555
C27 C26 1_555 1_555
C28 C18 1_555 1_555
C29 C6 1_555 1_555
C30 C21 1_555 1_555
C31 C14 1_555 1_555
C32 C29 1_555 1_555
C33 C20 1_555 1_555
C34 C15 1_555 1_555
C35 C32 1_555 1_555
C36 C17 1_555 1_555
H1 C1 1_555 1_555
H2 C2 1_555 1_555
H3 C3 1_555 1_555
H4 C4 1_555 1_555
H5 C12 1_555 1_555
H6 C15 1_555 1_555
H7 C21 1_555 1_555
H8 C22 1_555 1_555
H9 C23 1_555 1_555
H10 C24 1_555 1_555
H11 C25 1_555 1_555
H12 C28 1_555 1_555
H13 C29 1_555 1_555
H14 C36 1_555 1_555
Co1A N5 1_555 1_555
N5A Co1 1_555 1_555
C2 C16 1_555 1_555
C16 C23 1_555 1_555
C20 C36 1_555 1_555
C27 C30 1_555 1_555
C34 C35 1_555 1_555

#END
