
#######################################################################
#
#                 Cambridge Crystallographic Data Centre
#                                CCDC 
#
#######################################################################
#
# If this CIF has been generated from an entry in the Cambridge 
# Structural Database, then it will include bibliographic, chemical, 
# crystal, experimental, refinement or atomic coordinate data resulting 
# from the CCDC's data processing and validation procedures.
#
#######################################################################

data_GAWTEE
_symmetry_cell_setting           monoclinic
_symmetry_space_group_name_H-M   'P 21'
_symmetry_Int_Tables_number      4
_space_group_name_Hall           'P 2yb'
loop_
_symmetry_equiv_pos_site_id
_symmetry_equiv_pos_as_xyz
1 x,y,z
2 -x,1/2+y,-z
_cell_length_a                   12.0004(4)
_cell_length_b                   6.8589(2)
_cell_length_c                   13.2287(4)
_cell_angle_alpha                90
_cell_angle_beta                 93.2810(10)
_cell_angle_gamma                90
_cell_volume                     1087.06
loop_
_atom_site_label
_atom_site_type_symbol
_atom_site_fract_x
_atom_site_fract_y
_atom_site_fract_z
Cu1 Cu -0.52924(2) -0.23521(3) 0.155170(18)
N1 N -0.62891(18) -0.4708(4) 0.14269(17)
H1 H -0.632(3) -0.533(6) 0.199(2)
H2 H -0.602(2) -0.528(5) 0.099(2)
N2 N -0.67331(18) -0.0848(4) 0.14549(15)
H3 H -0.666(2) 0.028(5) 0.191(2)
H4 H -0.692(2) -0.036(5) 0.085(2)
C1 C -0.74333(17) -0.4086(3) 0.11083(15)
H5 H -0.7449 -0.3775 0.0384
C2 C -0.76501(16) -0.2211(3) 0.16791(15)
H6 H -0.7596 -0.2497 0.2406
C3 C -0.8814(2) -0.1390(5) 0.14051(18)
H7 H -0.8855 -0.0959 0.0706
H8 H -0.8949 -0.0272 0.1830
C4 C -0.97121(18) -0.2945(4) 0.15515(18)
H9 H -0.9732 -0.3257 0.2265
H10 H -1.0437 -0.2431 0.1325
C5 C -0.94771(19) -0.4787(4) 0.09611(18)
H11 H -0.9522 -0.4496 0.0242
H12 H -1.0040 -0.5758 0.1086
C6 C -0.8324(2) -0.5611(5) 0.12632(19)
H13 H -0.8296 -0.6005 0.1968
H14 H -0.8185 -0.6752 0.0856
N3 N -0.39249(17) -0.3931(4) 0.18838(15)
N4 N -0.32284(16) -0.4054(4) 0.12696(14)
N5 N -0.25419(18) -0.4220(6) 0.06984(15)
N6 N -0.43657(18) 0.0105(4) 0.15587(15)
N7 N -0.46059(16) 0.1302(4) 0.09205(16)
N8 N -0.48307(17) 0.2477(5) 0.03149(13)
Cu2 Cu -0.46873(2) 0.06367(3) 0.347750(18)
N9 N -0.32571(18) -0.0911(4) 0.36801(16)
H15 H -0.3181(18) -0.153(4) 0.3083(17)
H16 H -0.328(2) -0.166(5) 0.410(2)
N10 N -0.36618(18) 0.2966(4) 0.34713(17)
H17 H -0.383(2) 0.379(4) 0.3010(19)
H18 H -0.370(2) 0.359(5) 0.400(2)
C7 C -0.23191(17) 0.0439(3) 0.39361(15)
H19 H -0.2347 0.0791 0.4652
C8 C -0.25092(17) 0.2281(3) 0.33120(16)
H20 H -0.2473 0.1930 0.2596
C9 C -0.1605(2) 0.3794(5) 0.35637(19)
H21 H -0.1659 0.4239 0.4255
H22 H -0.1713 0.4909 0.3118
C10 C -0.04434(19) 0.2911(4) 0.34382(18)
H23 H -0.0359 0.2624 0.2729
H24 H 0.0123 0.3857 0.3652
C11 C -0.02656(19) 0.1054(4) 0.4055(2)
H25 H -0.0267 0.1363 0.4770
H26 H 0.0456 0.0500 0.3926
C12 C -0.1183(2) -0.0443(5) 0.3784(2)
H27 H -0.1141 -0.0843 0.3084
H28 H -0.1076 -0.1588 0.4209
N11 N -0.56116(17) -0.1837(4) 0.34537(14)
N12 N -0.53648(17) -0.3034(4) 0.40813(16)
N13 N -0.51392(18) -0.4224(5) 0.46858(13)
N14 N -0.60570(17) 0.2223(4) 0.31193(15)
N15 N -0.67706(17) 0.2164(4) 0.37208(15)
N16 N -0.74708(19) 0.2120(5) 0.42815(17)
Cu1A Cu -0.47076(2) 0.26479(3) -0.155170(18)
N8A N -0.51693(17) -0.2523(5) -0.03149(13)
Cu2A Cu -0.53127(2) -0.43633(3) 0.652250(18)
N13A N -0.48608(18) 0.0776(5) 0.53142(13)
loop_
_geom_bond_atom_site_label_1
_geom_bond_atom_site_label_2
_geom_bond_site_symmetry_1
_geom_bond_site_symmetry_2
Cu1 N1 1_555 1_555
N1 H1 1_555 1_555
H2 N1 1_555 1_555
N2 Cu1 1_555 1_555
H3 N2 1_555 1_555
H4 N2 1_555 1_555
C1 N1 1_555 1_555
H5 C1 1_555 1_555
C2 N2 1_555 1_555
H6 C2 1_555 1_555
C3 C2 1_555 1_555
H7 C3 1_555 1_555
H8 C3 1_555 1_555
C4 C3 1_555 1_555
H9 C4 1_555 1_555
H10 C4 1_555 1_555
C5 C4 1_555 1_555
H11 C5 1_555 1_555
H12 C5 1_555 1_555
C6 C1 1_555 1_555
H13 C6 1_555 1_555
H14 C6 1_555 1_555
N3 Cu1 1_555 1_555
N4 N3 1_555 1_555
N5 N4 1_555 1_555
N6 Cu1 1_555 1_555
N7 N6 1_555 1_555
N8 N7 1_555 1_555
Cu2 N6 1_555 1_555
N9 Cu2 1_555 1_555
H15 N9 1_555 1_555
H16 N9 1_555 1_555
N10 Cu2 1_555 1_555
H17 N10 1_555 1_555
H18 N10 1_555 1_555
C7 N9 1_555 1_555
H19 C7 1_555 1_555
C8 N10 1_555 1_555
H20 C8 1_555 1_555
C9 C8 1_555 1_555
H21 C9 1_555 1_555
H22 C9 1_555 1_555
C10 C9 1_555 1_555
H23 C10 1_555 1_555
H24 C10 1_555 1_555
C11 C10 1_555 1_555
H25 C11 1_555 1_555
H26 C11 1_555 1_555
C12 C7 1_555 1_555
H27 C12 1_555 1_555
H28 C12 1_555 1_555
N11 Cu1 1_555 1_555
N12 N11 1_555 1_555
N13 N12 1_555 1_555
N14 Cu2 1_555 1_555
N15 N14 1_555 1_555
N16 N15 1_555 1_555
Cu1A N8 1_555 1_555
N8A Cu1 1_555 1_555
Cu2A N13 1_555 1_555
N13A Cu2 1_555 1_555
C1 C2 1_555 1_555
C5 C6 1_555 1_555
Cu2 N11 1_555 1_555
C7 C8 1_555 1_555
C11 C12 1_555 1_555

#END
