
#######################################################################
#
#                 Cambridge Crystallographic Data Centre
#                                CCDC 
#
#######################################################################
#
# If this CIF has been generated from an entry in the Cambridge 
# Structural Database, then it will include bibliographic, chemical, 
# crystal, experimental, refinement or atomic coordinate data resulting 
# from the CCDC's data processing and validation procedures.
#
#######################################################################

data_GAWZAF
_symmetry_cell_setting           triclinic
_symmetry_space_group_name_H-M   'P -1'
_symmetry_Int_Tables_number      2
_space_group_name_Hall           '-P 1'
loop_
_symmetry_equiv_pos_site_id
_symmetry_equiv_pos_as_xyz
1 x,y,z
2 -x,-y,-z
_cell_length_a                   10.104(1)
_cell_length_b                   11.110(2)
_cell_length_c                   9.998(1)
_cell_angle_alpha                112.47(3)
_cell_angle_beta                 102.01(3)
_cell_angle_gamma                90.97(2)
_cell_volume                     1008.63
loop_
_atom_site_label
_atom_site_type_symbol
_atom_site_fract_x
_atom_site_fract_y
_atom_site_fract_z
Cu1 Cu -0.0566(2) -0.0468(2) 0.2187(2)
P1 P -0.1517(4) 0.0946(4) 0.5249(4)
P2 P -0.0254(4) 0.1741(3) 0.0879(4)
O1 O -0.135(1) 0.0762(9) 0.371(1)
O2 O 0.0239(9) -0.1287(9) 0.355(1)
O3 O -0.1012(9) 0.0677(8) 0.108(1)
O4 O 0.0347(9) -0.1570(8) 0.072(1)
O5 O -0.2592(9) -0.183(1) 0.111(1)
C1 C -0.245(2) -0.050(2) 0.514(2)
C2 C -0.261(1) 0.224(1) 0.576(2)
C3 C -0.219(2) 0.329(2) 0.705(2)
C4 C -0.299(2) 0.437(2) 0.749(2)
C5 C -0.424(2) 0.424(2) 0.653(2)
C6 C -0.465(2) 0.325(2) 0.525(2)
C7 C -0.383(2) 0.221(2) 0.484(2)
C8 C 0.149(2) 0.201(1) 0.189(2)
C9 C -0.093(1) 0.328(1) 0.176(2)
C10 C -0.096(2) 0.426(1) 0.122(2)
C11 C -0.146(2) 0.544(2) 0.193(2)
C12 C -0.192(2) 0.562(2) 0.317(2)
C13 C -0.193(2) 0.468(2) 0.372(2)
C14 C -0.144(2) 0.348(2) 0.297(2)
N1 N -0.484(2) -0.180(1) 0.080(2)
C15 C -0.358(2) -0.127(2) 0.118(2)
C16 C -0.509(3) -0.329(3) 0.020(3)
C17 C -0.604(3) -0.105(3) 0.096(3)
O2A O -0.0239(9) 0.1287(9) 0.645(1)
P1A P 0.1517(4) -0.0946(4) 0.4751(4)
O4A O -0.0347(9) 0.1570(8) -0.072(1)
P2A P 0.0254(4) -0.1741(3) -0.0879(4)
Cu1A Cu 0.0566(2) 0.0468(2) 0.7813(2)
O1A O 0.135(1) -0.0762(9) 0.629(1)
C1A C 0.245(2) 0.050(2) 0.486(2)
C2A C 0.261(1) -0.224(1) 0.424(2)
Cu1A_2 Cu 0.0566(2) 0.0468(2) -0.2187(2)
O3A O 0.1012(9) -0.0677(8) -0.108(1)
C8A C -0.149(2) -0.201(1) -0.189(2)
C9A C 0.093(1) -0.328(1) -0.176(2)
O3A_2 O 0.1012(9) -0.0677(8) 0.892(1)
O4A_2 O -0.0347(9) 0.1570(8) 0.928(1)
O5A O 0.2592(9) 0.183(1) 0.889(1)
C3A C 0.219(2) -0.329(2) 0.295(2)
C7A C 0.383(2) -0.221(2) 0.516(2)
C10A C 0.096(2) -0.426(1) -0.122(2)
C14A C 0.144(2) -0.348(2) -0.297(2)
C15A C 0.358(2) 0.127(2) 0.882(2)
C4A C 0.299(2) -0.437(2) 0.251(2)
C6A C 0.465(2) -0.325(2) 0.475(2)
C11A C 0.146(2) -0.544(2) -0.193(2)
C13A C 0.193(2) -0.468(2) -0.372(2)
N1A N 0.484(2) 0.180(1) 0.920(2)
C5A C 0.424(2) -0.424(2) 0.347(2)
C12A C 0.192(2) -0.562(2) -0.317(2)
C16A C 0.509(3) 0.329(3) 0.980(3)
C17A C 0.604(3) 0.105(3) 0.904(3)
loop_
_geom_bond_atom_site_label_1
_geom_bond_atom_site_label_2
_geom_bond_site_symmetry_1
_geom_bond_site_symmetry_2
Cu1 O1 1_555 1_555
P1 O1 1_555 1_555
P2 O3 1_555 1_555
O2 Cu1 1_555 1_555
O3 Cu1 1_555 1_555
O4 Cu1 1_555 1_555
O5 Cu1 1_555 1_555
C1 P1 1_555 1_555
C2 P1 1_555 1_555
C3 C2 1_555 1_555
C4 C3 1_555 1_555
C5 C4 1_555 1_555
C6 C5 1_555 1_555
C7 C2 1_555 1_555
C8 P2 1_555 1_555
C9 P2 1_555 1_555
C10 C9 1_555 1_555
C11 C10 1_555 1_555
C12 C11 1_555 1_555
C13 C12 1_555 1_555
C14 C9 1_555 1_555
N1 C15 1_555 1_555
C15 O5 1_555 1_555
C16 N1 1_555 1_555
C17 N1 1_555 1_555
O2A P1 1_555 1_555
P1A O2 1_555 1_555
O4A P2 1_555 1_555
P2A O4 1_555 1_555
Cu1A O2A 1_555 1_555
O1A P1A 1_555 1_555
C1A P1A 1_555 1_555
C2A P1A 1_555 1_555
Cu1A_2 O4A 1_555 1_555
O3A P2A 1_555 1_555
C8A P2A 1_555 1_555
C9A P2A 1_555 1_555
O3A_2 Cu1A 1_555 1_555
O4A_2 Cu1A 1_555 1_555
O5A Cu1A 1_555 1_555
C3A C2A 1_555 1_555
C7A C2A 1_555 1_555
C10A C9A 1_555 1_555
C14A C9A 1_555 1_555
C15A O5A 1_555 1_555
C4A C3A 1_555 1_555
C6A C7A 1_555 1_555
C11A C10A 1_555 1_555
C13A C14A 1_555 1_555
N1A C15A 1_555 1_555
C5A C4A 1_555 1_555
C12A C11A 1_555 1_555
C16A N1A 1_555 1_555
C17A N1A 1_555 1_555
C6 C7 1_555 1_555
C13 C14 1_555 1_555
Cu1A O1A 1_555 1_555
Cu1A_2 O3A 1_555 1_555
C6A C5A 1_555 1_555
C13A C12A 1_555 1_555

#END
