
#######################################################################
#
#                 Cambridge Crystallographic Data Centre
#                                CCDC 
#
#######################################################################
#
# If this CIF has been generated from an entry in the Cambridge 
# Structural Database, then it will include bibliographic, chemical, 
# crystal, experimental, refinement or atomic coordinate data resulting 
# from the CCDC's data processing and validation procedures.
#
#######################################################################

data_GAXBOY
_symmetry_cell_setting           monoclinic
_symmetry_space_group_name_H-M   'P 21/n'
_symmetry_Int_Tables_number      14
_space_group_name_Hall           '-P 2yn'
loop_
_symmetry_equiv_pos_site_id
_symmetry_equiv_pos_as_xyz
1 x,y,z
2 1/2-x,1/2+y,1/2-z
3 -x,-y,-z
4 1/2+x,1/2-y,1/2+z
_cell_length_a                   17.8948(13)
_cell_length_b                   23.8818(17)
_cell_length_c                   25.2878(18)
_cell_angle_alpha                90
_cell_angle_beta                 90.6340(10)
_cell_angle_gamma                90
_cell_volume                     10806.3
loop_
_atom_site_label
_atom_site_type_symbol
_atom_site_fract_x
_atom_site_fract_y
_atom_site_fract_z
C79 C 0.4520(7) 0.8481(6) 0.3746(3)
H145 H 0.4295 0.8122 0.3644
H146 H 0.5050 0.8481 0.3655
H147 H 0.4264 0.8785 0.3558
C80 C 0.4443(4) 0.8562(3) 0.4321(2)
C81 C 0.3973(4) 0.8182(2) 0.4568(3)
H148 H 0.3744 0.7891 0.4369
C82 C 0.3838(4) 0.8230(3) 0.5106(3)
H149 H 0.3517 0.7970 0.5275
C83 C 0.4173(4) 0.8657(3) 0.5398(2)
H150 H 0.4080 0.8689 0.5766
C84 C 0.4643(3) 0.9036(2) 0.5151(2)
H151 H 0.4871 0.9328 0.5350
C85 C 0.4778(3) 0.8989(2) 0.4612(3)
H152 H 0.5099 0.9249 0.4443
C86 C 0.7737(4) 0.8435(4) 0.0262(3)
H153 H 0.7352 0.8530 0.0520
H154 H 0.7874 0.8040 0.0301
H155 H 0.7542 0.8501 -0.0096
C87 C 0.8387(3) 0.8781(2) 0.03525(18)
C88 C 0.8491(3) 0.9308(2) 0.01319(16)
H156 H 0.8123 0.9460 -0.0100
C89 C 0.9133(4) 0.96124(18) 0.0251(2)
H157 H 0.9204 0.9973 0.0101
C90 C 0.9672(3) 0.9390(2) 0.0591(2)
H158 H 1.0111 0.9598 0.0673
C91 C 0.9568(3) 0.8863(3) 0.08119(17)
H159 H 0.9936 0.8710 0.1044
C92 C 0.8926(3) 0.85583(18) 0.06925(17)
H160 H 0.8855 0.8198 0.0843
Fe1 Fe 0.23217(3) 0.604791(19) 0.190973(18)
Mn2 Mn -0.10849(2) 0.715460(18) 0.396180(17)
Fe3 Fe 0.37372(3) 0.647694(19) 0.117332(18)
Fe4 Fe -0.26597(2) 0.658130(18) 0.348080(17)
Mn5 Mn 0.39654(2) 0.632107(18) 0.247906(18)
Fe6 Fe -0.10326(2) 0.627190(18) 0.294340(17)
O1 O 0.33308(11) 0.62829(8) 0.18586(8)
O2 O -0.15841(11) 0.66584(8) 0.34625(8)
O3 O 0.36604(13) 0.55305(9) 0.27471(9)
O4 O 0.25259(12) 0.53867(9) 0.24040(9)
O5 O 0.31545(12) 0.66672(10) 0.29529(9)
O6 O 0.20573(12) 0.65480(9) 0.25402(9)
O7 O 0.23477(12) 0.54945(9) 0.12899(9)
O8 O 0.32666(13) 0.57904(9) 0.07736(8)
O9 O 0.18910(12) 0.66535(10) 0.14229(9)
O10 O 0.28322(12) 0.69352(10) 0.09139(9)
O11 O 0.46699(12) 0.59774(9) 0.12805(8)
O12 O 0.48468(13) 0.59018(10) 0.21510(9)
O13 O 0.42054(12) 0.72153(9) 0.14515(9)
O14 O 0.43785(12) 0.71099(9) 0.23226(9)
O15 O -0.15615(12) 0.67721(9) 0.46067(8)
O16 O -0.26497(12) 0.64531(9) 0.42908(8)
O17 O -0.18675(12) 0.77985(9) 0.39565(9)
O18 O -0.28547(12) 0.74359(9) 0.35427(9)
O19 O -0.26510(12) 0.57120(9) 0.33746(9)
O20 O -0.15435(12) 0.55194(9) 0.30290(10)
O21 O -0.28508(12) 0.66657(10) 0.26846(9)
O22 O -0.17612(13) 0.64415(10) 0.23214(8)
O23 O -0.02037(12) 0.59960(9) 0.34449(9)
O24 O -0.01879(12) 0.66140(9) 0.41045(9)
O25 O -0.04685(12) 0.69619(9) 0.27000(8)
O26 O -0.05467(12) 0.75759(9) 0.33590(8)
C1 C 0.30957(18) 0.52345(13) 0.26647(12)
C2 C 0.30710(19) 0.46450(13) 0.29062(13)
C3 C 0.3812(2) 0.44937(15) 0.31662(17)
H1 H 0.3790 0.4109 0.3299
H2 H 0.3913 0.4750 0.3461
H3 H 0.4212 0.4524 0.2906
C4 C 0.2456(2) 0.46378(16) 0.33169(15)
H4 H 0.1978 0.4732 0.3147
H5 H 0.2571 0.4913 0.3594
H6 H 0.2424 0.4264 0.3474
C5 C 0.2875(2) 0.42241(14) 0.24757(15)
H7 H 0.2394 0.4325 0.2312
H8 H 0.2839 0.3849 0.2631
H9 H 0.3264 0.4227 0.2206
C6 C 0.24756(17) 0.67722(13) 0.28865(12)
C7 C 0.21344(19) 0.72282(15) 0.32326(14)
C8 C 0.2398(2) 0.7159(2) 0.38053(16)
H10 H 0.2203 0.7468 0.4019
H11 H 0.2946 0.7163 0.3820
H12 H 0.2215 0.6802 0.3944
C9 C 0.2429(3) 0.77788(17) 0.3017(2)
H13 H 0.2261 0.7825 0.2649
H14 H 0.2976 0.7777 0.3032
H15 H 0.2240 0.8089 0.3230
C10 C 0.12852(19) 0.72196(17) 0.32030(16)
H16 H 0.1122 0.7266 0.2834
H17 H 0.1085 0.7526 0.3417
H18 H 0.1102 0.6861 0.3338
C11 C 0.27549(18) 0.54600(13) 0.08842(12)
C12 C 0.2588(2) 0.49746(15) 0.05037(14)
C13 C 0.2525(4) 0.44311(18) 0.08190(19)
H19 H 0.2456 0.4116 0.0575
H20 H 0.2096 0.4454 0.1055
H21 H 0.2982 0.4375 0.1029
C14 C 0.3194(2) 0.49053(18) 0.01002(17)
H22 H 0.3072 0.4589 -0.0132
H23 H 0.3672 0.4834 0.0281
H24 H 0.3232 0.5248 -0.0111
C15 C 0.1854(3) 0.5105(2) 0.02238(19)
H25 H 0.1866 0.5490 0.0089
H26 H 0.1442 0.5066 0.0473
H27 H 0.1780 0.4844 -0.0071
C16 C 0.21707(18) 0.69610(13) 0.10758(12)
C17 C 0.16723(19) 0.74244(14) 0.08431(14)
C18 C 0.0879(2) 0.72101(18) 0.07511(18)
H28 H 0.0567 0.7514 0.0611
H29 H 0.0674 0.7078 0.1086
H30 H 0.0887 0.6901 0.0497
C19 C 0.1991(2) 0.76412(16) 0.03246(15)
H31 H 0.2495 0.7789 0.0388
H32 H 0.1669 0.7939 0.0184
H33 H 0.2014 0.7334 0.0068
C20 C 0.1671(2) 0.78946(16) 0.12570(15)
H34 H 0.2173 0.8055 0.1288
H35 H 0.1521 0.7742 0.1600
H36 H 0.1317 0.8187 0.1147
C21 C 0.49070(16) 0.57237(13) 0.16851(13)
C22 C 0.5241(2) 0.51367(15) 0.15994(14)
C23 C 0.4555(2) 0.47481(16) 0.15367(17)
H37 H 0.4253 0.4870 0.1232
H38 H 0.4253 0.4766 0.1857
H39 H 0.4723 0.4362 0.1481
C24 C 0.5702(2) 0.49627(17) 0.20883(16)
H40 H 0.5896 0.4583 0.2038
H41 H 0.5384 0.4971 0.2401
H42 H 0.6120 0.5223 0.2138
C25 C 0.5698(2) 0.51067(19) 0.10980(16)
H43 H 0.6116 0.5372 0.1123
H44 H 0.5381 0.5203 0.0793
H45 H 0.5893 0.4726 0.1055
C26 C 0.43770(17) 0.73971(13) 0.19037(14)
C27 C 0.4575(2) 0.80250(15) 0.19486(17)
C28 C 0.3832(3) 0.83435(17) 0.1934(2)
H46 H 0.3536 0.8241 0.2242
H47 H 0.3555 0.8246 0.1610
H48 H 0.3930 0.8747 0.1939
C29 C 0.5005(3) 0.82136(19) 0.1458(2)
H49 H 0.5083 0.8620 0.1471
H50 H 0.4717 0.8118 0.1138
H51 H 0.5490 0.8024 0.1450
C30 C 0.4984(4) 0.8147(2) 0.2446(3)
H52 H 0.5098 0.8548 0.2465
H53 H 0.5450 0.7932 0.2456
H54 H 0.4674 0.8041 0.2748
C31 C -0.21148(18) 0.64451(14) 0.46147(12)
C32 C -0.2102(2) 0.59660(15) 0.50229(14)
C33 C -0.1888(3) 0.54427(17) 0.46956(17)
H55 H -0.1857 0.5116 0.4929
H56 H -0.1403 0.5504 0.4529
H57 H -0.2270 0.5377 0.4421
C34 C -0.2872(2) 0.58648(17) 0.52629(15)
H58 H -0.3018 0.6192 0.5471
H59 H -0.2851 0.5534 0.5492
H60 H -0.3240 0.5803 0.4979
C35 C -0.1530(2) 0.60880(19) 0.54635(15)
H61 H -0.1659 0.6440 0.5639
H62 H -0.1030 0.6119 0.5311
H63 H -0.1534 0.5782 0.5722
C36 C -0.24988(18) 0.78339(13) 0.37407(12)
C37 C -0.2873(2) 0.84143(14) 0.37299(15)
C38 C -0.3405(2) 0.84581(17) 0.3264(2)
H64 H -0.3604 0.8840 0.3242
H65 H -0.3817 0.8193 0.3308
H66 H -0.3138 0.8370 0.2938
C39 C -0.3319(3) 0.84628(19) 0.4250(2)
H67 H -0.3608 0.8811 0.4247
H68 H -0.2971 0.8465 0.4552
H69 H -0.3660 0.8143 0.4280
C40 C -0.2304(2) 0.88816(15) 0.37245(17)
H70 H -0.1967 0.8829 0.3426
H71 H -0.2014 0.8876 0.4056
H72 H -0.2561 0.9242 0.3689
C41 C -0.21723(18) 0.53806(13) 0.32052(12)
C42 C -0.2348(2) 0.47522(14) 0.31920(15)
C43 C -0.1752(3) 0.44357(17) 0.3492(2)
H73 H -0.1779 0.4529 0.3869
H74 H -0.1259 0.4540 0.3359
H75 H -0.1829 0.4033 0.3445
C44 C -0.2323(2) 0.45650(18) 0.26119(16)
H76 H -0.1815 0.4611 0.2478
H77 H -0.2669 0.4794 0.2401
H78 H -0.2470 0.4171 0.2586
C45 C -0.3115(2) 0.46281(16) 0.33992(17)
H79 H -0.3209 0.4224 0.3379
H80 H -0.3489 0.4828 0.3186
H81 H -0.3145 0.4751 0.3768
C46 C -0.24307(19) 0.66017(14) 0.23018(13)
C47 C -0.2763(2) 0.67242(19) 0.17481(15)
C48 C -0.2310(4) 0.7079(4) 0.1453(3)
H82 H -0.2351 0.7462 0.1589
H83 H -0.2471 0.7070 0.1081
H84 H -0.1789 0.6954 0.1481
C49 C -0.2811(8) 0.6184(3) 0.1466(3)
H85 H -0.3223 0.6197 0.1208
H86 H -0.2902 0.5883 0.1721
H87 H -0.2341 0.6113 0.1283
C50 C -0.3515(4) 0.6950(6) 0.1784(2)
H88 H -0.3491 0.7360 0.1800
H89 H -0.3754 0.6807 0.2103
H90 H -0.3808 0.6837 0.1472
C51 C 0.00068(17) 0.61661(14) 0.38971(13)
C52 C 0.05357(19) 0.57723(15) 0.42041(14)
C53 C 0.0730(3) 0.6010(2) 0.47394(17)
H91 H 0.1095 0.5767 0.4917
H92 H 0.0277 0.6034 0.4953
H93 H 0.0944 0.6385 0.4697
C54 C 0.1224(2) 0.5683(2) 0.38858(19)
H94 H 0.1474 0.6042 0.3830
H95 H 0.1086 0.5519 0.3543
H96 H 0.1562 0.5428 0.4076
C55 C 0.0155(3) 0.5203(2) 0.4249(3)
H97 H 0.0523 0.4921 0.4361
H98 H -0.0058 0.5097 0.3905
H99 H -0.0244 0.5224 0.4511
C56 C -0.04777(16) 0.74515(12) 0.28833(12)
C57 C -0.0456(2) 0.79348(15) 0.24894(14)
C58 C 0.0029(4) 0.83980(18) 0.2682(2)
H100 H -0.0165 0.8542 0.3016
H101 H 0.0034 0.8699 0.2419
H102 H 0.0539 0.8258 0.2738
C59 C -0.0185(3) 0.77259(19) 0.19489(16)
H103 H 0.0314 0.7561 0.1990
H104 H -0.0163 0.8041 0.1702
H105 H -0.0533 0.7443 0.1811
C60 C -0.1276(3) 0.8132(2) 0.2431(2)
H106 H -0.1594 0.7812 0.2338
H107 H -0.1311 0.8415 0.2151
H108 H -0.1441 0.8294 0.2765
C61 C 0.57632(17) 0.69609(15) 0.39123(13)
H109 H 0.6065 0.6990 0.4242
H110 H 0.5838 0.7309 0.3707
C62 C 0.58908(18) 0.59580(15) 0.39135(14)
H111 H 0.6046 0.5626 0.3707
H112 H 0.6199 0.5970 0.4241
C63 C 0.55651(16) 0.64421(13) 0.31114(12)
H113 H 0.5728 0.6119 0.2896
H114 H 0.5640 0.6786 0.2899
C64 C 0.46695(18) 0.58699(15) 0.35670(13)
H115 H 0.4136 0.5820 0.3654
H116 H 0.4830 0.5538 0.3363
C65 C 0.4883(2) 0.64088(19) 0.43465(14)
H117 H 0.4351 0.6375 0.4447
H118 H 0.5184 0.6435 0.4676
C66 C 0.45400(18) 0.68708(15) 0.35637(13)
H119 H 0.4606 0.7218 0.3356
H120 H 0.4005 0.6841 0.3654
C67 C 0.05454(16) 0.60275(13) 0.23364(12)
H121 H 0.0534 0.6430 0.2244
H122 H 0.0764 0.5992 0.2696
C68 C 0.10257(18) 0.51228(13) 0.21035(16)
H123 H 0.1340 0.4913 0.1852
H124 H 0.1248 0.5078 0.2461
C69 C 0.06710(18) 0.57818(16) 0.14230(13)
H125 H 0.0651 0.6182 0.1323
H126 H 0.0982 0.5585 0.1161
C70 C -0.01776(19) 0.51980(13) 0.24728(15)
H127 H 0.0045 0.5159 0.2831
H128 H -0.0686 0.5034 0.2480
C71 C -0.05363(19) 0.58515(16) 0.18008(13)
H129 H -0.0561 0.6252 0.1701
H130 H -0.1053 0.5702 0.1794
C72 C -0.0048(2) 0.49586(16) 0.15745(17)
H131 H -0.0557 0.4797 0.1569
H132 H 0.0256 0.4747 0.1318
C73 C 0.51441(17) 0.69174(16) 0.05452(13)
H133 H 0.5072 0.7267 0.0749
H134 H 0.5396 0.6643 0.0781
C74 C 0.40443(17) 0.71057(13) 0.00282(12)
H135 H 0.3956 0.7458 0.0225
H136 H 0.3553 0.6959 -0.0091
C75 C 0.4539(2) 0.61718(14) 0.00745(13)
H137 H 0.4773 0.5887 0.0308
H138 H 0.4055 0.6021 -0.0054
C76 C 0.5729(2) 0.65117(17) -0.01908(15)
H139 H 0.6055 0.6580 -0.0498
H140 H 0.5983 0.6237 0.0043
C77 C 0.52456(17) 0.74396(14) -0.02458(13)
H141 H 0.5569 0.7527 -0.0550
H142 H 0.5165 0.7791 -0.0047
C78 C 0.4658(2) 0.66863(13) -0.07192(13)
H143 H 0.4178 0.6530 -0.0849
H144 H 0.4977 0.6756 -0.1030
N1 N 0.60346(14) 0.64742(10) 0.35967(10)
N2 N 0.47509(14) 0.63807(11) 0.32304(10)
N3 N 0.51044(15) 0.58984(13) 0.40552(11)
N4 N 0.49774(15) 0.69116(14) 0.40477(11)
N5 N 0.10277(14) 0.57287(11) 0.19572(10)
N6 N 0.02744(16) 0.48878(12) 0.20982(14)
N7 N -0.00895(16) 0.55481(14) 0.14065(12)
N8 N -0.02351(14) 0.58061(11) 0.23376(10)
N9 N 0.44026(14) 0.66931(11) 0.03859(10)
N10 N 0.50243(18) 0.62752(12) -0.03765(11)
N11 N 0.45142(14) 0.72284(11) -0.04449(10)
N12 N 0.56276(15) 0.70349(13) 0.00975(11)
Mn2C Mn 0.39151(2) 0.784540(18) -0.103820(17)
Fe4_2 Fe 0.73403(2) 0.658130(18) 0.348080(17)
N1_2 N -0.39654(14) 0.64742(10) 0.35967(10)
N11C N -0.04858(14) 0.77716(11) 0.45551(10)
Mn1? Mn 0.23217(3) 0.604791(19) 0.190973(18)
Fe2? Fe 0.89151(2) 0.715463(18) 0.396181(17)
Mn3? Mn 0.37372(3) 0.647694(19) 0.117332(18)
Mn4? Mn 0.73403(2) 0.658126(18) 0.348077(17)
Fe5? Fe 0.39654(2) 0.632107(18) 0.247906(18)
Mn6? Mn 0.89674(2) 0.627186(18) 0.294335(17)
loop_
_geom_bond_atom_site_label_1
_geom_bond_atom_site_label_2
_geom_bond_site_symmetry_1
_geom_bond_site_symmetry_2
Fe1 O1 1_555 1_555
Mn2 O2 1_555 1_555
Fe3 O1 1_555 1_555
Fe4 O2 1_555 1_555
Mn5 O1 1_555 1_555
Fe6 O2 1_555 1_555
O3 Mn5 1_555 1_555
O4 Fe1 1_555 1_555
O5 Mn5 1_555 1_555
O6 Fe1 1_555 1_555
O7 Fe1 1_555 1_555
O8 Fe3 1_555 1_555
O9 Fe1 1_555 1_555
O10 Fe3 1_555 1_555
O11 Fe3 1_555 1_555
O12 Mn5 1_555 1_555
O13 Fe3 1_555 1_555
O14 Mn5 1_555 1_555
O15 Mn2 1_555 1_555
O16 Fe4 1_555 1_555
O17 Mn2 1_555 1_555
O18 Fe4 1_555 1_555
O19 Fe4 1_555 1_555
O20 Fe6 1_555 1_555
O21 Fe4 1_555 1_555
O22 Fe6 1_555 1_555
O23 Fe6 1_555 1_555
O24 Mn2 1_555 1_555
O25 Fe6 1_555 1_555
O26 Mn2 1_555 1_555
C1 O3 1_555 1_555
C2 C1 1_555 1_555
C3 C2 1_555 1_555
H1 C3 1_555 1_555
H2 C3 1_555 1_555
H3 C3 1_555 1_555
C4 C2 1_555 1_555
H4 C4 1_555 1_555
H5 C4 1_555 1_555
H6 C4 1_555 1_555
C5 C2 1_555 1_555
H7 C5 1_555 1_555
H8 C5 1_555 1_555
H9 C5 1_555 1_555
C6 O5 1_555 1_555
C7 C6 1_555 1_555
C8 C7 1_555 1_555
H10 C8 1_555 1_555
H11 C8 1_555 1_555
H12 C8 1_555 1_555
C9 C7 1_555 1_555
H13 C9 1_555 1_555
H14 C9 1_555 1_555
H15 C9 1_555 1_555
C10 C7 1_555 1_555
H16 C10 1_555 1_555
H17 C10 1_555 1_555
H18 C10 1_555 1_555
C11 O7 1_555 1_555
C12 C11 1_555 1_555
C13 C12 1_555 1_555
H19 C13 1_555 1_555
H20 C13 1_555 1_555
H21 C13 1_555 1_555
C14 C12 1_555 1_555
H22 C14 1_555 1_555
H23 C14 1_555 1_555
H24 C14 1_555 1_555
C15 C12 1_555 1_555
H25 C15 1_555 1_555
H26 C15 1_555 1_555
H27 C15 1_555 1_555
C16 O9 1_555 1_555
C17 C16 1_555 1_555
C18 C17 1_555 1_555
H28 C18 1_555 1_555
H29 C18 1_555 1_555
H30 C18 1_555 1_555
C19 C17 1_555 1_555
H31 C19 1_555 1_555
H32 C19 1_555 1_555
H33 C19 1_555 1_555
C20 C17 1_555 1_555
H34 C20 1_555 1_555
H35 C20 1_555 1_555
H36 C20 1_555 1_555
C21 O11 1_555 1_555
C22 C21 1_555 1_555
C23 C22 1_555 1_555
H37 C23 1_555 1_555
H38 C23 1_555 1_555
H39 C23 1_555 1_555
C24 C22 1_555 1_555
H40 C24 1_555 1_555
H41 C24 1_555 1_555
H42 C24 1_555 1_555
C25 C22 1_555 1_555
H43 C25 1_555 1_555
H44 C25 1_555 1_555
H45 C25 1_555 1_555
C26 O13 1_555 1_555
C27 C26 1_555 1_555
C28 C27 1_555 1_555
H46 C28 1_555 1_555
H47 C28 1_555 1_555
H48 C28 1_555 1_555
C29 C27 1_555 1_555
H49 C29 1_555 1_555
H50 C29 1_555 1_555
H51 C29 1_555 1_555
C30 C27 1_555 1_555
H52 C30 1_555 1_555
H53 C30 1_555 1_555
H54 C30 1_555 1_555
C31 O15 1_555 1_555
C32 C31 1_555 1_555
C33 C32 1_555 1_555
H55 C33 1_555 1_555
H56 C33 1_555 1_555
H57 C33 1_555 1_555
C34 C32 1_555 1_555
H58 C34 1_555 1_555
H59 C34 1_555 1_555
H60 C34 1_555 1_555
C35 C32 1_555 1_555
H61 C35 1_555 1_555
H62 C35 1_555 1_555
H63 C35 1_555 1_555
C36 O17 1_555 1_555
C37 C36 1_555 1_555
C38 C37 1_555 1_555
H64 C38 1_555 1_555
H65 C38 1_555 1_555
H66 C38 1_555 1_555
C39 C37 1_555 1_555
H67 C39 1_555 1_555
H68 C39 1_555 1_555
H69 C39 1_555 1_555
C40 C37 1_555 1_555
H70 C40 1_555 1_555
H71 C40 1_555 1_555
H72 C40 1_555 1_555
C41 O19 1_555 1_555
C42 C41 1_555 1_555
C43 C42 1_555 1_555
H73 C43 1_555 1_555
H74 C43 1_555 1_555
H75 C43 1_555 1_555
C44 C42 1_555 1_555
H76 C44 1_555 1_555
H77 C44 1_555 1_555
H78 C44 1_555 1_555
C45 C42 1_555 1_555
H79 C45 1_555 1_555
H80 C45 1_555 1_555
H81 C45 1_555 1_555
C46 O21 1_555 1_555
C47 C46 1_555 1_555
C48 C47 1_555 1_555
H82 C48 1_555 1_555
H83 C48 1_555 1_555
H84 C48 1_555 1_555
C49 C47 1_555 1_555
H85 C49 1_555 1_555
H86 C49 1_555 1_555
H87 C49 1_555 1_555
C50 C47 1_555 1_555
H88 C50 1_555 1_555
H89 C50 1_555 1_555
H90 C50 1_555 1_555
C51 O23 1_555 1_555
C52 C51 1_555 1_555
C53 C52 1_555 1_555
H91 C53 1_555 1_555
H92 C53 1_555 1_555
H93 C53 1_555 1_555
C54 C52 1_555 1_555
H94 C54 1_555 1_555
H95 C54 1_555 1_555
H96 C54 1_555 1_555
C55 C52 1_555 1_555
H97 C55 1_555 1_555
H98 C55 1_555 1_555
H99 C55 1_555 1_555
C56 O25 1_555 1_555
C57 C56 1_555 1_555
C58 C57 1_555 1_555
H100 C58 1_555 1_555
H101 C58 1_555 1_555
H102 C58 1_555 1_555
C59 C57 1_555 1_555
H103 C59 1_555 1_555
H104 C59 1_555 1_555
H105 C59 1_555 1_555
C60 C57 1_555 1_555
H106 C60 1_555 1_555
H107 C60 1_555 1_555
H108 C60 1_555 1_555
C61 H109 1_555 1_555
H110 C61 1_555 1_555
C62 H111 1_555 1_555
H112 C62 1_555 1_555
C63 H113 1_555 1_555
H114 C63 1_555 1_555
C64 H115 1_555 1_555
H116 C64 1_555 1_555
C65 H117 1_555 1_555
H118 C65 1_555 1_555
C66 H119 1_555 1_555
H120 C66 1_555 1_555
C67 H121 1_555 1_555
H122 C67 1_555 1_555
C68 H123 1_555 1_555
H124 C68 1_555 1_555
C69 H125 1_555 1_555
H126 C69 1_555 1_555
C70 H127 1_555 1_555
H128 C70 1_555 1_555
C71 H129 1_555 1_555
H130 C71 1_555 1_555
C72 H131 1_555 1_555
H132 C72 1_555 1_555
C73 H133 1_555 1_555
H134 C73 1_555 1_555
C74 H135 1_555 1_555
H136 C74 1_555 1_555
C75 H137 1_555 1_555
H138 C75 1_555 1_555
C76 H139 1_555 1_555
H140 C76 1_555 1_555
C77 H141 1_555 1_555
H142 C77 1_555 1_555
C78 H143 1_555 1_555
H144 C78 1_555 1_555
C79 H145 1_555 1_555
H146 C79 1_555 1_555
H147 C79 1_555 1_555
C80 C79 1_555 1_555
C81 C80 1_555 1_555
H148 C81 1_555 1_555
C82 C81 1_555 1_555
H149 C82 1_555 1_555
C83 C82 1_555 1_555
H150 C83 1_555 1_555
C84 C83 1_555 1_555
H151 C84 1_555 1_555
C85 C80 1_555 1_555
H152 C85 1_555 1_555
C86 H153 1_555 1_555
H154 C86 1_555 1_555
H155 C86 1_555 1_555
C87 C86 1_555 1_555
C88 C87 1_555 1_555
H156 C88 1_555 1_555
C89 C88 1_555 1_555
H157 C89 1_555 1_555
C90 C89 1_555 1_555
H158 C90 1_555 1_555
C91 C90 1_555 1_555
H159 C91 1_555 1_555
C92 C87 1_555 1_555
H160 C92 1_555 1_555
N1 C61 1_555 1_555
N2 Mn5 1_555 1_555
N3 C62 1_555 1_555
N4 C61 1_555 1_555
N5 Fe1 1_555 1_555
N6 C68 1_555 1_555
N7 C69 1_555 1_555
N8 Fe6 1_555 1_555
N9 Fe3 1_555 1_555
N10 C75 1_555 1_555
N11 C74 1_555 1_555
N12 C73 1_555 1_555
Mn2C N11 1_555 1_555
Fe4_2 N1 1_555 1_555
N1_2 Fe4 1_555 1_555
N11C Mn2 1_555 1_555
O4 C1 1_555 1_555
O6 C6 1_555 1_555
O8 C11 1_555 1_555
O10 C16 1_555 1_555
O12 C21 1_555 1_555
O14 C26 1_555 1_555
O16 C31 1_555 1_555
O18 C36 1_555 1_555
O20 C41 1_555 1_555
O22 C46 1_555 1_555
O24 C51 1_555 1_555
O26 C56 1_555 1_555
C62 N1 1_555 1_555
C63 N1 1_555 1_555
C63 N2 1_555 1_555
C64 N2 1_555 1_555
C64 N3 1_555 1_555
C65 N3 1_555 1_555
C65 N4 1_555 1_555
C66 N2 1_555 1_555
C66 N4 1_555 1_555
C67 N5 1_555 1_555
C67 N8 1_555 1_555
C68 N5 1_555 1_555
C69 N5 1_555 1_555
C70 N6 1_555 1_555
C70 N8 1_555 1_555
C71 N7 1_555 1_555
C71 N8 1_555 1_555
C72 N6 1_555 1_555
C72 N7 1_555 1_555
C73 N9 1_555 1_555
C74 N9 1_555 1_555
C75 N9 1_555 1_555
C76 N10 1_555 1_555
C76 N12 1_555 1_555
C77 N11 1_555 1_555
C77 N12 1_555 1_555
C78 N10 1_555 1_555
C78 N11 1_555 1_555
C84 C85 1_555 1_555
C91 C92 1_555 1_555

#END
