
#######################################################################
#
#                 Cambridge Crystallographic Data Centre
#                                CCDC 
#
#######################################################################
#
# If this CIF has been generated from an entry in the Cambridge 
# Structural Database, then it will include bibliographic, chemical, 
# crystal, experimental, refinement or atomic coordinate data resulting 
# from the CCDC's data processing and validation procedures.
#
#######################################################################

data_GAXBEM11
_symmetry_cell_setting           monoclinic
_symmetry_space_group_name_H-M   'P 21/c'
_symmetry_Int_Tables_number      14
_space_group_name_Hall           '-P 2ybc'
loop_
_symmetry_equiv_pos_site_id
_symmetry_equiv_pos_as_xyz
1 x,y,z
2 -x,1/2+y,1/2-z
3 -x,-y,-z
4 x,1/2-y,1/2+z
_cell_length_a                   7.1066(14)
_cell_length_b                   16.883(3)
_cell_length_c                   6.9916(14)
_cell_angle_alpha                90
_cell_angle_beta                 101.50(3)
_cell_angle_gamma                90
_cell_volume                     822.017
loop_
_atom_site_label
_atom_site_type_symbol
_atom_site_fract_x
_atom_site_fract_y
_atom_site_fract_z
Ce1 Ce 0.24228(2) 0.420138(11) 0.49250(3)
O1 O -0.1188(3) 0.44106(14) 0.5439(4)
O2 O 0.0989(3) 0.28675(14) 0.5536(4)
O3 O -0.2699(3) 0.18512(14) 0.6670(4)
O4 O -0.4908(3) 0.34829(14) 0.6801(4)
O5 O 0.2323(3) 0.42896(14) 0.8622(4)
O6 O 0.5286(3) 0.51754(14) 0.6840(3)
O7 O 0.3612(4) 0.32269(15) 0.2686(4)
O8 O 0.0224(4) 0.41737(15) 0.1645(4)
C1 C -0.1683(5) 0.3719(2) 0.5920(5)
C2 C -0.0632(5) 0.2994(2) 0.5949(5)
C3 C -0.2255(5) 0.2555(2) 0.6450(5)
C4 C -0.3286(5) 0.3313(2) 0.6490(5)
C5 C 0.3784(5) 0.4669(2) 0.9444(5)
C6 C 0.5197(5) 0.5100(2) 0.8613(5)
H1 H 0.477(2) 0.319(2) 0.254(6)
H2 H 0.282(4) 0.2907(19) 0.202(5)
H3 H 0.072(5) 0.412(2) 0.065(4)
H4 H -0.077(5) 0.390(3) 0.168(6)
Ce1B Ce -0.24228(2) 0.579862(11) 0.50750(3)
Ce1_2 Ce -0.75772(2) 0.420138(11) 0.49250(3)
Ce1_3 Ce 0.24228(2) 0.420138(11) 1.49250(3)
Ce1B_2 Ce 0.75772(2) 0.579862(11) 0.50750(3)
Ce1B_3 Ce 0.75772(2) 0.579862(11) 1.50750(3)
O1B O 0.1188(3) 0.55894(14) 0.4561(4)
O2B O -0.0989(3) 0.71325(14) 0.4464(4)
O3B O 0.2699(3) 0.81488(14) 0.3330(4)
O4B O 0.4908(3) 0.65171(14) 0.3199(4)
O4_2 O 0.5092(3) 0.34829(14) 0.6801(4)
O4B_2 O -0.5092(3) 0.65171(14) 0.3199(4)
O5B O 0.7677(3) 0.57104(14) 1.1378(4)
O5B_2 O -0.2323(3) 0.57104(14) 0.1378(4)
O6B O 0.4714(3) 0.48246(14) 1.3160(3)
O6_2 O -0.4714(3) 0.51754(14) 0.6840(3)
O6B_2 O 0.4714(3) 0.48246(14) 0.3160(3)
O6B_3 O -0.5286(3) 0.48246(14) 0.3160(3)
O7B O -0.3612(4) 0.67731(15) 0.7314(4)
O8B O -0.0224(4) 0.58263(15) 0.8355(4)
C1B C 0.1683(5) 0.6281(2) 0.4080(5)
C2B C 0.0632(5) 0.7006(2) 0.4051(5)
C3B C 0.2255(5) 0.7445(2) 0.3550(5)
C4B C 0.3286(5) 0.6687(2) 0.3510(5)
C5B C 0.6216(5) 0.5331(2) 1.0556(5)
C6B C 0.4803(5) 0.4900(2) 1.1387(5)
H1B H -0.477(2) 0.681(2) 0.746(6)
H2B H -0.282(4) 0.7093(19) 0.798(5)
H3B H -0.072(5) 0.588(2) 0.935(4)
H4B H 0.077(5) 0.610(3) 0.832(6)
loop_
_geom_bond_atom_site_label_1
_geom_bond_atom_site_label_2
_geom_bond_site_symmetry_1
_geom_bond_site_symmetry_2
Ce1 O1 1_555 1_555
O1 C1 1_555 1_555
O2 Ce1 1_555 1_555
O3 C3 1_555 1_555
O4 C4 1_555 1_555
O5 Ce1 1_555 1_555
O6 Ce1 1_555 1_555
O7 Ce1 1_555 1_555
O8 Ce1 1_555 1_555
C1 C2 1_555 1_555
C2 O2 1_555 1_555
C3 C2 1_555 1_555
C4 C1 1_555 1_555
C5 O5 1_555 1_555
C6 O6 1_555 1_555
H1 O7 1_555 1_555
H2 O7 1_555 1_555
H3 O8 1_555 1_555
H4 O8 1_555 1_555
Ce1B O1 1_555 1_555
Ce1_2 O4 1_555 1_555
Ce1_3 O6B 1_555 1_555
Ce1B_2 O6 1_555 1_555
Ce1B_3 O5B 1_555 1_555
O1B Ce1 1_555 1_555
O2B Ce1B 1_555 1_555
O3B C3B 1_555 1_555
O4B Ce1B_2 1_555 1_555
O4_2 Ce1 1_555 1_555
O4B_2 Ce1B 1_555 1_555
O5B C5B 1_555 1_555
O5B_2 Ce1B 1_555 1_555
O6B Ce1B_3 1_555 1_555
O6_2 Ce1B 1_555 1_555
O6B_2 Ce1 1_555 1_555
O6B_3 Ce1B 1_555 1_555
O7B Ce1B 1_555 1_555
O8B Ce1B 1_555 1_555
C1B O1B 1_555 1_555
C2B O2B 1_555 1_555
C3B C2B 1_555 1_555
C4B O4B 1_555 1_555
C5B C6 1_555 1_555
C6B C5 1_555 1_555
H1B O7B 1_555 1_555
H2B O7B 1_555 1_555
H3B O8B 1_555 1_555
H4B O8B 1_555 1_555
C3 C4 1_555 1_555
C5 C6 1_555 1_555
Ce1B O1B 1_555 1_555
Ce1_2 O6_2 1_555 1_555
Ce1_2 O6B_3 1_555 1_555
Ce1B_2 O6B_2 1_555 1_555
O6B C6B 1_555 1_555
C1B C2B 1_555 1_555
C1B C4B 1_555 1_555
C3B C4B 1_555 1_555
C5B C6B 1_555 1_555

#END
