
#######################################################################
#
#                 Cambridge Crystallographic Data Centre
#                                CCDC 
#
#######################################################################
#
# If this CIF has been generated from an entry in the Cambridge 
# Structural Database, then it will include bibliographic, chemical, 
# crystal, experimental, refinement or atomic coordinate data resulting 
# from the CCDC's data processing and validation procedures.
#
#######################################################################

data_GAXBEM10
_symmetry_cell_setting           monoclinic
_symmetry_space_group_name_H-M   'P 21/c'
_symmetry_Int_Tables_number      14
_space_group_name_Hall           '-P 2ybc'
loop_
_symmetry_equiv_pos_site_id
_symmetry_equiv_pos_as_xyz
1 x,y,z
2 -x,1/2+y,1/2-z
3 -x,-y,-z
4 x,1/2-y,1/2+z
_cell_length_a                   7.143(1)
_cell_length_b                   16.940(4)
_cell_length_c                   6.994(1)
_cell_angle_alpha                90
_cell_angle_beta                 101.24(2)
_cell_angle_gamma                90
_cell_volume                     830.058
loop_
_atom_site_label
_atom_site_type_symbol
_atom_site_fract_x
_atom_site_fract_y
_atom_site_fract_z
Ce1 Ce -0.74217(3) 0.07978(1) 0.00681(3)
O1 O -0.8585(5) 0.1779(2) 0.2325(5)
O2 O -0.5227(4) 0.0837(2) 0.3346(5)
O3 O -0.2302(4) 0.3137(2) -0.1658(5)
O4 O -0.5987(4) 0.2121(2) -0.0562(5)
O5 O -0.3808(4) 0.0587(2) -0.0460(4)
O6 O -0.9907(4) -0.1512(2) 0.1777(5)
O7 O -0.2660(2) -0.0702(2) 0.3623(4)
O8 O 0.0280(2) 0.0183(2) 0.1851(4)
C1 C -0.2744(6) 0.2439(3) -0.1460(6)
C2 C -0.4357(5) 0.1999(2) -0.0966(6)
C3 C -0.3323(5) 0.1268(2) -0.0930(6)
C4 C -0.1707(5) 0.1676(2) -0.1482(6)
C5 C -0.1210(6) -0.0325(3) 0.4440(6)
C6 C 0.0194(5) 0.0103(2) 0.3611(5)
H1 H -0.959 0.184 0.250
H2 H -0.834 0.234 0.250
H3 H -0.584 0.082 0.457
H4 H -0.457 0.135 0.334
O5B O -0.6192(4) -0.0587(2) 0.0460(4)
O8_2 O -0.9720(2) 0.0183(2) 0.1851(4)
Ce1B Ce -0.25783(3) -0.07978(1) -0.00681(3)
Ce1B_2 Ce -1.25783(3) -0.07978(1) -0.00681(3)
C3B C -0.6677(5) -0.1268(2) 0.0930(6)
O1B O -0.1415(5) -0.1779(2) -0.2325(5)
O2B O -0.4773(4) -0.0837(2) -0.3346(5)
O4B O -0.4013(4) -0.2121(2) 0.0562(5)
O6_2 O 0.0093(4) -0.1512(2) 0.1777(5)
O7B O -0.7340(2) 0.0702(2) -0.3623(4)
O8B O -0.0280(2) -0.0183(2) -0.1851(4)
O8B_2 O -1.0280(2) -0.0183(2) -0.1851(4)
C2B C -0.5643(5) -0.1999(2) 0.0966(6)
C4B C -0.8293(5) -0.1676(2) 0.1482(6)
H1B H -0.041 -0.184 -0.250
H2B H -0.166 -0.234 -0.250
H3B H -0.416 -0.082 -0.457
H4B H -0.543 -0.135 -0.334
C1B C -0.7256(6) -0.2439(3) 0.1460(6)
O6B O -1.0093(4) 0.1512(2) -0.1777(5)
O3B O -0.7698(4) -0.3137(2) 0.1658(5)
O6B_2 O -0.0093(4) 0.1512(2) -0.1777(5)
Ce1_2 Ce 0.25783(3) 0.07978(1) 0.00681(3)
C6B C -0.0194(5) -0.0103(2) 0.6389(5)
C5B C 0.1210(6) 0.0325(3) 0.5560(6)
O8B_3 O -0.0280(2) -0.0183(2) 0.8149(4)
O7B_2 O 0.2660(2) 0.0702(2) 0.6377(4)
Ce1_3 Ce 0.25783(3) 0.07978(1) 1.00681(3)
Ce1B_3 Ce -0.25783(3) -0.07978(1) 0.99319(3)
loop_
_geom_bond_atom_site_label_1
_geom_bond_atom_site_label_2
_geom_bond_site_symmetry_1
_geom_bond_site_symmetry_2
Ce1 O1 1_555 1_555
O1 H1 1_555 1_555
O2 Ce1 1_555 1_555
O3 C1 1_555 1_555
O4 Ce1 1_555 1_555
O5 Ce1 1_555 1_555
O6 Ce1B_2 1_555 1_555
O7 C5 1_555 1_555
O8 C6 1_555 1_555
C1 C2 1_555 1_555
C2 O4 1_555 1_555
C3 O5 1_555 1_555
C4 C1 1_555 1_555
C5 C6 1_555 1_555
C6 C5B 1_555 1_555
H2 O1 1_555 1_555
H3 O2 1_555 1_555
H4 O2 1_555 1_555
O5B Ce1 1_555 1_555
O8_2 Ce1 1_555 1_555
Ce1B O5 1_555 1_555
Ce1B_2 O8_2 1_555 1_555
C3B O5B 1_555 1_555
O1B Ce1B 1_555 1_555
O2B Ce1B 1_555 1_555
O4B Ce1B 1_555 1_555
O6_2 Ce1B 1_555 1_555
O7B Ce1 1_555 1_555
O8B Ce1B 1_555 1_555
O8B_2 Ce1 1_555 1_555
C2B C3B 1_555 1_555
C4B O6 1_555 1_555
H1B O1B 1_555 1_555
H2B O1B 1_555 1_555
H3B O2B 1_555 1_555
H4B O2B 1_555 1_555
C1B C2B 1_555 1_555
O6B Ce1 1_555 1_555
O3B C1B 1_555 1_555
O6B_2 C4 1_555 1_555
Ce1_2 O8 1_555 1_555
C6B C5 1_555 1_555
C5B C6B 1_555 1_555
O8B_3 C6B 1_555 1_555
O7B_2 C5B 1_555 1_555
Ce1_3 O8B_3 1_555 1_555
Ce1B_3 O8B_3 1_555 1_555
O7 Ce1B 1_555 1_555
O8 Ce1B 1_555 1_555
C2 C3 1_555 1_555
C3 C4 1_555 1_555
O5B Ce1B 1_555 1_555
Ce1B_2 O8B_2 1_555 1_555
C3B C4B 1_555 1_555
O4B C2B 1_555 1_555
O8B Ce1_2 1_555 1_555
C4B C1B 1_555 1_555
O6B_2 Ce1_2 1_555 1_555
O7B_2 Ce1_3 1_555 1_555

#END
