
#######################################################################
#
#                 Cambridge Crystallographic Data Centre
#                                CCDC 
#
#######################################################################
#
# If this CIF has been generated from an entry in the Cambridge 
# Structural Database, then it will include bibliographic, chemical, 
# crystal, experimental, refinement or atomic coordinate data resulting 
# from the CCDC's data processing and validation procedures.
#
#######################################################################

data_GAXCEP
_symmetry_cell_setting           triclinic
_symmetry_space_group_name_H-M   'P -1'
_symmetry_Int_Tables_number      2
_space_group_name_Hall           '-P 1'
loop_
_symmetry_equiv_pos_site_id
_symmetry_equiv_pos_as_xyz
1 x,y,z
2 -x,-y,-z
_cell_length_a                   18.850(13)
_cell_length_b                   20.116(14)
_cell_length_c                   20.773(14)
_cell_angle_alpha                65.069(8)
_cell_angle_beta                 65.798(7)
_cell_angle_gamma                64.594(8)
_cell_volume                     6194.55
loop_
_atom_site_label
_atom_site_type_symbol
_atom_site_fract_x
_atom_site_fract_y
_atom_site_fract_z
W7 W 0.25859(7) 0.39955(7) 0.28762(6)
W8 W 0.28971(7) 0.39421(7) 0.11902(5)
W9 W 0.10240(7) 0.41622(7) 0.23742(6)
W10 W 0.23719(7) 0.07892(7) 0.24482(6)
W11 W 0.09138(6) 0.24817(8) 0.21478(6)
W12 W 0.27853(7) 0.22656(7) 0.09615(5)
W13 W 0.45085(6) 0.20814(7) 0.15142(5)
W14 W 0.41912(6) 0.21143(7) 0.32057(5)
W15 W 0.41009(6) 0.05997(7) 0.29892(6)
W16 W 0.21137(6) 0.23758(7) 0.45095(5)
W17 W 0.20402(6) 0.08372(7) 0.43150(5)
W18 W 0.05625(6) 0.25308(7) 0.40132(5)
P2 P 0.2512(3) 0.2349(4) 0.2711(3)
O21 O 0.2721(12) 0.4606(11) 0.3139(10)
O22 O 0.2981(9) 0.4362(9) 0.1800(8)
O23 O 0.1484(10) 0.4513(10) 0.2779(9)
O24 O 0.2118(8) 0.3355(10) 0.3820(8)
O25 O 0.3583(9) 0.3157(10) 0.2901(8)
O26 O 0.3255(10) 0.4545(11) 0.0343(9)
O27 O 0.3883(9) 0.3122(9) 0.1334(8)
O28 O 0.2671(9) 0.3269(9) 0.0931(8)
O29 O 0.1768(11) 0.4475(10) 0.1415(8)
O30 O 0.0143(10) 0.4900(10) 0.2295(9)
O31 O 0.0675(9) 0.3526(10) 0.3322(8)
O32 O 0.0910(8) 0.3482(10) 0.2035(8)
O33 O 0.2431(11) -0.0087(10) 0.2498(9)
O34 O 0.1974(9) 0.0755(8) 0.3463(7)
O35 O 0.2785(10) 0.1236(9) 0.1374(8)
O36 O 0.3435(10) 0.0569(9) 0.2528(8)
O37 O 0.1297(11) 0.1416(12) 0.2339(8)
O38 O -0.0020(10) 0.2707(13) 0.2021(9)
O39 O 0.1640(10) 0.2540(10) 0.1150(8)
O40 O 0.0600(9) 0.2329(10) 0.3184(8)
O41 O 0.3079(11) 0.2334(10) 0.0037(9)
O42 O 0.3813(9) 0.1979(9) 0.1140(7)
O43 O 0.5330(10) 0.2116(12) 0.0779(8)
O44 O 0.4781(8) 0.1017(9) 0.2022(8)
O45 O 0.4809(9) 0.2168(11) 0.3570(8)
O46 O 0.4523(8) 0.1028(9) 0.3372(7)
O47 O 0.3260(8) 0.2054(10) 0.4023(7)
O48 O 0.4721(9) -0.0339(10) 0.3194(8)
O49 O 0.3191(8) 0.0603(9) 0.3861(7)
O50 O 0.2104(9) 0.2514(11) 0.5264(8)
O51 O 0.2160(8) 0.1325(9) 0.4875(8)
O52 O 0.0961(8) 0.2676(10) 0.4659(8)
O53 O 0.1979(11) -0.0019(10) 0.4952(9)
O54 O 0.0892(9) 0.1468(10) 0.4494(8)
O55 O -0.0431(10) 0.2777(11) 0.4459(8)
O56 O 0.4831(9) 0.2205(10) 0.2197(8)
O57 O 0.2337(8) 0.3282(8) 0.2387(7)
O58 O 0.2220(8) 0.2077(9) 0.2247(7)
O59 O 0.3458(7) 0.1961(8) 0.2625(6)
O64 O 0.1986(8) 0.2119(9) 0.3575(7)
O60 O 1.2645(12) 0.4511(11) -0.1821(10)
C46 C 1.181(2) 0.4255(18) -0.0565(18)
H37 H 1.2255 0.3863 -0.0413
C47 C 1.1113(18) 0.4393(18) -0.0066(16)
H38 H 1.1081 0.4129 0.0431
C48 C 1.0398(15) 0.4948(17) -0.0276(12)
C49 C 1.0504(16) 0.5326(15) -0.1007(14)
H39 H 1.0058 0.5691 -0.1177
C50 C 1.1247(19) 0.5178(16) -0.1485(15)
H40 H 1.1296 0.5458 -0.1981
N10 N 1.1927(15) 0.4654(15) -0.1303(14)
O60A O 0.7355(12) 0.5489(11) 0.1821(10)
C46A C 0.819(2) 0.5745(18) 0.0565(18)
H37A H 0.7745 0.6137 0.0413
C47A C 0.8887(18) 0.5607(18) 0.0066(16)
H38A H 0.8919 0.5871 -0.0431
C48A C 0.9602(15) 0.5052(17) 0.0276(12)
C49A C 0.9496(16) 0.4674(15) 0.1007(14)
H39A H 0.9942 0.4309 0.1177
C50A C 0.8753(19) 0.4822(16) 0.1485(15)
H40A H 0.8704 0.4542 0.1981
N10A N 0.8073(15) 0.5346(15) 0.1303(14)
O61 O 0.5381(14) -0.2355(16) 0.4616(10)
C51 C 0.4562(18) -0.118(2) 0.4845(13)
H41 H 0.4109 -0.1264 0.4849
C52 C 0.4452(18) -0.0527(18) 0.4953(12)
H42 H 0.3924 -0.0185 0.5035
C53 C 0.5071(15) -0.0320(13) 0.4953(12)
C54 C 0.5818(16) -0.0906(16) 0.4797(12)
H43 H 0.6288 -0.0829 0.4759
C55 C 0.5917(15) -0.1560(16) 0.4700(12)
H44 H 0.6435 -0.1914 0.4608
N11 N 0.5262(15) -0.1707(17) 0.4735(12)
O61A O 0.4619(14) 0.2355(16) 0.5384(10)
C51A C 0.5438(18) 0.118(2) 0.5155(13)
H41A H 0.5891 0.1264 0.5151
C52A C 0.5548(18) 0.0527(18) 0.5047(12)
H42A H 0.6076 0.0185 0.4965
C53A C 0.4929(15) 0.0320(13) 0.5047(12)
C54A C 0.4182(16) 0.0906(16) 0.5203(12)
H43A H 0.3712 0.0829 0.5241
C55A C 0.4083(15) 0.1560(16) 0.5300(12)
H44A H 0.3565 0.1914 0.5392
N11A N 0.4738(15) 0.1707(17) 0.5265(12)
O63 O -0.2122(15) 0.4954(15) 0.4241(13)
C56 C -0.0735(16) 0.4695(18) 0.4145(17)
H45 H -0.0602 0.4462 0.3790
C57 C -0.006(2) 0.4732(18) 0.4271(15)
H46 H 0.0466 0.4617 0.3963
C58 C -0.0273(13) 0.4959(16) 0.4908(15)
C59 C -0.1109(14) 0.5293(18) 0.5233(16)
H47 H -0.1260 0.5557 0.5567
C60 C -0.1716(18) 0.5228(19) 0.5053(17)
H48 H -0.2256 0.5373 0.5335
N12 N -0.1551(16) 0.4963(15) 0.4487(13)
O63A O 0.2122(15) 0.5046(15) 0.5759(13)
C56A C 0.0735(16) 0.5305(18) 0.5855(17)
H45A H 0.0602 0.5538 0.6210
C57A C 0.006(2) 0.5268(18) 0.5729(15)
H46A H -0.0466 0.5383 0.6037
C58A C 0.0273(13) 0.5041(16) 0.5092(15)
C59A C 0.1109(14) 0.4707(18) 0.4767(16)
H47A H 0.1260 0.4443 0.4433
C60A C 0.1716(18) 0.4772(19) 0.4947(17)
H48A H 0.2256 0.4627 0.4665
N12A N 0.1551(16) 0.5037(15) 0.5513(13)
O81 O -0.1815(17) 0.3815(18) 1.3435(15)
O82 O 0.4533(18) -0.3416(19) 1.3074(16)
W1 W -0.01887(8) 0.10211(8) 0.81890(6)
W2 W -0.10995(7) 0.19826(7) 0.95553(6)
W3 W 0.21417(7) -0.06160(7) 0.92624(6)
W4 W 0.10457(8) 0.13479(7) 0.88506(6)
W5 W -0.12621(8) -0.03121(8) 0.93540(8)
W6 W 0.08836(7) -0.09688(7) 0.86416(7)
Eu1 Eu 0.24762(7) 0.27708(7) 0.75496(6)
Eu2 Eu -0.43583(9) 0.41087(9) 1.31946(8)
P1 P 0.0000 0.0000 1.0000
O1 O -0.0267(12) 0.1509(12) 0.7334(8)
O2 O 0.0665(11) 0.1316(15) 0.8164(10)
O3 O -0.0940(11) 0.1766(15) 0.8717(11)
O4 O 0.0570(11) 0.0059(12) 0.8038(10)
O5 O -0.1039(12) 0.0564(12) 0.8585(11)
O6 O -0.1599(13) 0.2904(12) 0.9339(13)
O7 O 0.0003(11) 0.2008(15) 0.9153(11)
O8 O -0.1962(11) 0.1557(11) 1.0037(10)
O9 O -0.1045(10) 0.1821(10) 1.0516(8)
O10 O 0.3135(11) -0.0942(12) 0.8873(9)
O11 O 0.1895(11) 0.0445(11) 0.8712(9)
O12 O 0.2085(12) -0.0332(12) 1.0011(10)
O13 O 0.1800(12) -0.0788(11) 0.8621(9)
O14 O 0.1536(11) 0.2014(11) 0.8289(9)
O15 O 0.1244(12) 0.1147(11) 0.9755(10)
O16 O -0.1840(12) -0.0498(12) 0.9057(9)
O17 O -0.0233(12) -0.0934(12) 0.8926(11)
O18 O 0.1288(12) -0.1440(11) 0.8031(9)
O19 O -0.0060(16) -0.0122(17) 0.9240(14)
O62 O -0.3416(12) 0.2866(11) 1.3418(10)
O65 O 0.3317(11) 0.1588(10) 0.7986(8)
O66 O 0.5034(10) -0.2170(12) 1.2251(10)
O67 O 0.1254(9) 0.3529(9) 0.7219(9)
O68 O -0.311(2) 0.341(2) 0.6014(19)
O69 O 0.1868(9) 0.3023(10) 0.8711(8)
O70 O -0.3626(10) 0.4048(11) 1.2011(9)
O71 O 0.2576(10) 0.2100(10) 0.6790(9)
O72 O -0.5223(13) 0.4108(16) 1.2665(11)
C1 C 0.3223(15) 0.1207(17) 0.9254(16)
H1 H 0.2872 0.1694 0.9285
C2 C 0.3428(16) 0.0683(19) 0.9858(14)
H2 H 0.3184 0.0805 1.0300
C3 C 0.3979(16) -0.0025(17) 0.9852(14)
C4 C 0.420(2) -0.025(2) 0.9224(18)
H3 H 0.4425 -0.0758 0.9223
C5 C 0.405(2) 0.039(2) 0.858(2)
H4 H 0.4366 0.0319 0.8122
C6 C 0.4267(17) -0.0623(15) 1.0468(13)
C7 C 0.400(2) -0.053(2) 1.1176(17)
H5 H 0.3595 -0.0069 1.1241
C8 C 0.428(2) -0.103(2) 1.1766(17)
H6 H 0.4099 -0.0930 1.2214
C9 C 0.5103(18) -0.1856(19) 1.1079(17)
H7 H 0.5466 -0.2344 1.1067
C10 C 0.4871(15) -0.1314(15) 1.0447(14)
H8 H 0.5134 -0.1426 0.9999
C11 C -0.0050(15) 0.3524(17) 0.7564(14)
H9 H -0.0147 0.3621 0.7997
C12 C -0.0668(17) 0.3469(17) 0.7404(15)
H10 H -0.1191 0.3544 0.7729
C13 C -0.051(2) 0.3297(14) 0.6734(14)
C14 C 0.0256(13) 0.3195(14) 0.6297(12)
H11 H 0.0393 0.3081 0.5863
C15 C 0.0855(15) 0.3258(14) 0.6480(13)
H12 H 0.1385 0.3171 0.6168
C16 C -0.120(2) 0.3311(16) 0.6580(17)
C17 C -0.1112(19) 0.3070(17) 0.6024(14)
H13 H -0.0573 0.2857 0.5777
C18 C -0.162(2) 0.3086(19) 0.580(2)
H14 H -0.1478 0.2916 0.5394
C19 C -0.264(2) 0.3665(19) 0.6767(19)
H15 H -0.3177 0.3874 0.7022
C20 C -0.196(2) 0.3593(18) 0.6916(18)
H16 H -0.2052 0.3767 0.7303
C21 C -0.2727(17) 0.4099(16) 1.0832(15)
H17 H -0.3177 0.4404 1.0648
C22 C -0.1996(17) 0.3931(17) 1.0351(14)
H18 H -0.1948 0.4088 0.9849
C23 C -0.1284(14) 0.3509(14) 1.0611(12)
C24 C -0.1460(15) 0.3235(14) 1.1379(12)
H19 H -0.1031 0.2907 1.1586
C25 C -0.2233(14) 0.3425(18) 1.1845(14)
H20 H -0.2313 0.3248 1.2354
C26 C -0.0481(13) 0.3337(13) 1.0109(11)
C27 C 0.0195(13) 0.2790(13) 1.0318(11)
H21 H 0.0108 0.2477 1.0806
C28 C 0.1004(13) 0.2654(13) 0.9871(11)
H22 H 0.1442 0.2280 1.0047
C29 C 0.0465(15) 0.3703(15) 0.8898(13)
H23 H 0.0550 0.4028 0.8415
C30 C -0.0278(17) 0.3777(16) 0.9385(12)
H24 H -0.0708 0.4174 0.9212
C31 C 0.2816(16) -0.1577(16) 0.6299(15)
H25 H 0.2623 -0.1602 0.5965
C32 C 0.2644(15) -0.0860(17) 0.6389(13)
H26 H 0.2352 -0.0419 0.6095
C33 C 0.2890(12) -0.0771(13) 0.6902(11)
C34 C 0.3314(13) -0.1487(12) 0.7330(12)
H27 H 0.3486 -0.1485 0.7689
C35 C 0.3488(16) -0.2209(15) 0.7236(14)
H28 H 0.3755 -0.2664 0.7538
C36 C 0.2782(12) -0.0035(13) 0.6932(9)
C37 C 0.2084(14) 0.0572(12) 0.6804(10)
H29 H 0.1665 0.0517 0.6723
C38 C 0.2064(13) 0.1271(13) 0.6808(9)
H30 H 0.1595 0.1686 0.6747
C39 C 0.3332(15) 0.0816(17) 0.7009(11)
H31 H 0.3742 0.0908 0.7066
C40 C 0.3406(15) 0.0072(15) 0.7046(11)
H32 H 0.3863 -0.0343 0.7146
C41 C -0.5524(16) 0.512(2) 1.1638(19)
H33 H -0.5765 0.5443 1.1931
C42 C -0.5447(18) 0.538(2) 1.0864(19)
H34 H -0.5670 0.5905 1.0649
C43 C -0.5058(18) 0.490(2) 1.0411(15)
C44 C -0.4857(19) 0.416(2) 1.0784(19)
H35 H -0.4678 0.3797 1.0535
C45 C -0.491(2) 0.388(2) 1.157(2)
H36 H -0.4708 0.3357 1.1798
N1 N 0.3503(13) 0.1066(14) 0.8592(13)
N2 N 0.4815(15) -0.1670(16) 1.1653(13)
N3 N 0.0702(12) 0.3431(10) 0.7062(10)
N4 N -0.242(2) 0.3381(17) 0.6182(18)
N5 N -0.2855(13) 0.3853(13) 1.1574(10)
N6 N 0.1097(12) 0.3112(12) 0.9163(9)
N7 N 0.2634(12) 0.1392(11) 0.6886(8)
N8 N -0.3263(14) 0.2227(16) 1.3297(12)
N9 N -0.5205(16) 0.432(2) 1.1907(18)
O73 O 0.2256(13) 0.4163(12) 0.7174(11)
O74 O 0.3389(9) 0.3020(11) 0.7921(9)
O75 O 0.3550(18) 0.2994(17) 0.6416(13)
O76 O -0.3169(13) 0.4439(13) 1.3019(11)
O77 O -0.4269(18) 0.381(2) 1.4427(12)
O78 O -0.4613(15) 0.5435(16) 1.2438(13)
O79 O -0.535(2) 0.501(2) 1.387(2)
O80 O -0.5325(16) 0.3350(15) 1.4057(11)
O83 O 0.0885(17) 0.0124(18) 0.9729(14)
O84 O -0.0102(17) 0.0869(17) 0.9418(14)
W1A W 0.01887(8) -0.10211(8) 1.18110(6)
W2A W 0.10995(7) -0.19826(7) 1.04447(6)
W3A W -0.21417(7) 0.06160(7) 1.07376(6)
W4A W -0.10457(8) -0.13479(7) 1.11494(6)
W5A W 0.12621(8) 0.03121(8) 1.06460(8)
W6A W -0.08836(7) 0.09688(7) 1.13584(7)
Eu1A Eu -0.24762(7) -0.27708(7) 1.24504(6)
Eu2A Eu 0.43583(9) -0.41087(9) 0.68054(8)
Eu2A_2 Eu -0.56417(9) 0.58913(9) 0.68054(8)
O1A O 0.0267(12) -0.1509(12) 1.2666(8)
O2A O -0.0665(11) -0.1316(15) 1.1836(10)
O3A O 0.0940(11) -0.1766(15) 1.1283(11)
O4A O -0.0570(11) -0.0059(12) 1.1962(10)
O5A O 0.1039(12) -0.0564(12) 1.1415(11)
O6A O 0.1599(13) -0.2904(12) 1.0661(13)
O7A O -0.0003(11) -0.2008(15) 1.0847(11)
O8A O 0.1962(11) -0.1557(11) 0.9963(10)
O9A O 0.1045(10) -0.1821(10) 0.9484(8)
O10A O -0.3135(11) 0.0942(12) 1.1127(9)
O11A O -0.1895(11) -0.0445(11) 1.1288(9)
O12A O -0.2085(12) 0.0332(12) 0.9989(10)
O13A O -0.1800(12) 0.0788(11) 1.1379(9)
O14A O -0.1536(11) -0.2014(11) 1.1711(9)
O15A O -0.1244(12) -0.1147(11) 1.0245(10)
O16A O 0.1840(12) 0.0498(12) 1.0943(9)
O17A O 0.0233(12) 0.0934(12) 1.1074(11)
O18A O -0.1288(12) 0.1440(11) 1.1969(9)
O19A O 0.0060(16) 0.0122(17) 1.0760(14)
O62A O 0.3416(12) -0.2866(11) 0.6582(10)
O65A O -0.3317(11) -0.1588(10) 1.2014(8)
O66A O -0.5034(10) 0.2170(12) 0.7749(10)
O67A O -0.1254(9) -0.3529(9) 1.2781(9)
O68A O 0.311(2) -0.341(2) 1.3986(19)
O69A O -0.1868(9) -0.3023(10) 1.1289(8)
O70A O 0.3626(10) -0.4048(11) 0.7989(9)
O71A O -0.2576(10) -0.2100(10) 1.3210(9)
O72A O 0.5223(13) -0.4108(16) 0.7335(11)
O72A_2 O -0.4777(13) 0.5892(16) 0.7335(11)
O72_2 O 0.4777(13) -0.5892(16) 1.2665(11)
C1A C -0.3223(15) -0.1207(17) 1.0746(16)
H1A H -0.2872 -0.1694 1.0715
C2A C -0.3428(16) -0.0683(19) 1.0142(14)
H2A H -0.3184 -0.0805 0.9700
C3A C -0.3979(16) 0.0025(17) 1.0148(14)
C4A C -0.420(2) 0.025(2) 1.0776(18)
H3A H -0.4425 0.0758 1.0777
C5A C -0.405(2) -0.039(2) 1.142(2)
H4A H -0.4366 -0.0319 1.1878
C6A C -0.4267(17) 0.0623(15) 0.9532(13)
C7A C -0.400(2) 0.053(2) 0.8824(17)
H5A H -0.3595 0.0069 0.8759
C8A C -0.428(2) 0.103(2) 0.8234(17)
H6A H -0.4099 0.0930 0.7786
C9A C -0.5103(18) 0.1856(19) 0.8921(17)
H7A H -0.5466 0.2344 0.8933
C10A C -0.4871(15) 0.1314(15) 0.9553(14)
H8A H -0.5134 0.1426 1.0001
C11A C 0.0050(15) -0.3524(17) 1.2436(14)
H9A H 0.0147 -0.3621 1.2003
C12A C 0.0668(17) -0.3469(17) 1.2596(15)
H10A H 0.1191 -0.3544 1.2271
C13A C 0.051(2) -0.3297(14) 1.3266(14)
C14A C -0.0256(13) -0.3195(14) 1.3703(12)
H11A H -0.0393 -0.3081 1.4137
C15A C -0.0855(15) -0.3258(14) 1.3520(13)
H12A H -0.1385 -0.3171 1.3832
C16A C 0.120(2) -0.3311(16) 1.3420(17)
C17A C 0.1112(19) -0.3070(17) 1.3976(14)
H13A H 0.0573 -0.2857 1.4223
C18A C 0.162(2) -0.3086(19) 1.420(2)
H14A H 0.1478 -0.2916 1.4606
C19A C 0.264(2) -0.3665(19) 1.3233(19)
H15A H 0.3177 -0.3874 1.2978
C20A C 0.196(2) -0.3593(18) 1.3084(18)
H16A H 0.2052 -0.3767 1.2697
C21A C 0.2727(17) -0.4099(16) 0.9168(15)
H17A H 0.3177 -0.4404 0.9352
C22A C 0.1996(17) -0.3931(17) 0.9649(14)
H18A H 0.1948 -0.4088 1.0151
C23A C 0.1284(14) -0.3509(14) 0.9389(12)
C24A C 0.1460(15) -0.3235(14) 0.8621(12)
H19A H 0.1031 -0.2907 0.8414
C25A C 0.2233(14) -0.3425(18) 0.8155(14)
H20A H 0.2313 -0.3248 0.7646
C26A C 0.0481(13) -0.3337(13) 0.9891(11)
C27A C -0.0195(13) -0.2790(13) 0.9682(11)
H21A H -0.0108 -0.2477 0.9194
C28A C -0.1004(13) -0.2654(13) 1.0129(11)
H22A H -0.1442 -0.2280 0.9953
C29A C -0.0465(15) -0.3703(15) 1.1102(13)
H23A H -0.0550 -0.4028 1.1585
C30A C 0.0278(17) -0.3777(16) 1.0615(12)
H24A H 0.0708 -0.4174 1.0788
C31A C -0.2816(16) 0.1577(16) 1.3701(15)
H25A H -0.2623 0.1602 1.4035
C32A C -0.2644(15) 0.0860(17) 1.3611(13)
H26A H -0.2352 0.0419 1.3905
C33A C -0.2890(12) 0.0771(13) 1.3098(11)
C34A C -0.3314(13) 0.1487(12) 1.2670(12)
H27A H -0.3486 0.1485 1.2311
C35A C -0.3488(16) 0.2209(15) 1.2764(14)
H28A H -0.3755 0.2664 1.2462
C36A C -0.2782(12) 0.0035(13) 1.3068(9)
C37A C -0.2084(14) -0.0572(12) 1.3196(10)
H29A H -0.1665 -0.0517 1.3277
C38A C -0.2064(13) -0.1271(13) 1.3192(9)
H30A H -0.1595 -0.1686 1.3253
C39A C -0.3332(15) -0.0816(17) 1.2991(11)
H31A H -0.3742 -0.0908 1.2934
C40A C -0.3406(15) -0.0072(15) 1.2954(11)
H32A H -0.3863 0.0343 1.2854
C41A C 0.5524(16) -0.512(2) 0.8362(19)
C41A_2 C -0.4476(16) 0.488(2) 0.8362(19)
C41_2 C 0.4476(16) -0.488(2) 1.1638(19)
H33A H 0.5765 -0.5443 0.8069
H33A_2 H -0.4235 0.4557 0.8069
H33_2 H 0.4235 -0.4557 1.1931
C42A C 0.5447(18) -0.538(2) 0.9136(19)
C42A_2 C -0.4553(18) 0.462(2) 0.9136(19)
C42_2 C 0.4553(18) -0.462(2) 1.0864(19)
H34A H 0.5670 -0.5905 0.9351
H34A_2 H -0.4330 0.4095 0.9351
H34_2 H 0.4330 -0.4095 1.0649
C43A C -0.4942(18) 0.510(2) 0.9589(15)
C43A_2 C 0.5058(18) -0.490(2) 0.9589(15)
C43_2 C 0.4942(18) -0.510(2) 1.0411(15)
C44A C 0.4857(19) -0.416(2) 0.9216(19)
C44A_2 C -0.5143(19) 0.584(2) 0.9216(19)
C44_2 C 0.5143(19) -0.584(2) 1.0784(19)
H35A H 0.4678 -0.3797 0.9465
H35A_2 H -0.5322 0.6203 0.9465
H35_2 H 0.5322 -0.6203 1.0535
C45A C 0.491(2) -0.388(2) 0.843(2)
C45A_2 C -0.509(2) 0.612(2) 0.843(2)
C45_2 C 0.509(2) -0.612(2) 1.157(2)
H36A H 0.4708 -0.3357 0.8202
H36A_2 H -0.5292 0.6643 0.8202
H36_2 H 0.5292 -0.6643 1.1798
N1A N -0.3503(13) -0.1066(14) 1.1408(13)
N2A N -0.4815(15) 0.1670(16) 0.8347(13)
N3A N -0.0702(12) -0.3431(10) 1.2938(10)
N4A N 0.242(2) -0.3381(17) 1.3818(18)
N5A N 0.2855(13) -0.3853(13) 0.8426(10)
N6A N -0.1097(12) -0.3112(12) 1.0837(9)
N7A N -0.2634(12) -0.1392(11) 1.3114(8)
N8A N 0.3263(14) -0.2227(16) 0.6703(12)
N9A N 0.5205(16) -0.432(2) 0.8093(18)
N9A_2 N -0.4795(16) 0.568(2) 0.8093(18)
N9_2 N 0.4795(16) -0.568(2) 1.1907(18)
O73A O -0.2256(13) -0.4163(12) 1.2826(11)
O74A O -0.3389(9) -0.3020(11) 1.2079(9)
O75A O -0.3550(18) -0.2994(17) 1.3584(13)
O76A O 0.3169(13) -0.4439(13) 0.6981(11)
O77A O 0.4269(18) -0.381(2) 0.5573(12)
O78A O 0.4613(15) -0.5435(16) 0.7562(13)
O79A O 0.535(2) -0.501(2) 0.613(2)
O80A O 0.5325(16) -0.3350(15) 0.5943(11)
O83A O -0.0885(17) -0.0124(18) 1.0271(14)
O84A O 0.0102(17) -0.0869(17) 1.0582(14)
O20? O -0.0738(18) 0.0643(18) 1.0248(15)
loop_
_geom_bond_atom_site_label_1
_geom_bond_atom_site_label_2
_geom_bond_site_symmetry_1
_geom_bond_site_symmetry_2
W1 O1 1_555 1_555
W2 O3 1_555 1_555
W3 O10 1_555 1_555
W4 O2 1_555 1_555
W5 O5 1_555 1_555
W6 O4 1_555 1_555
W7 O21 1_555 1_555
W8 O22 1_555 1_555
W9 O23 1_555 1_555
W10 O33 1_555 1_555
W11 O32 1_555 1_555
W12 O28 1_555 1_555
W13 O27 1_555 1_555
W14 O25 1_555 1_555
W15 O36 1_555 1_555
W16 O24 1_555 1_555
W17 O34 1_555 1_555
W18 O31 1_555 1_555
Eu1 O14 1_555 1_555
Eu2 O62 1_555 1_555
P1 O19 1_555 1_555
P2 O57 1_555 1_555
O2 W1 1_555 1_555
O3 W1 1_555 1_555
O4 W1 1_555 1_555
O5 W1 1_555 1_555
O6 W2 1_555 1_555
O7 W2 1_555 1_555
O8 W2 1_555 1_555
O9 W2 1_555 1_555
O11 W3 1_555 1_555
O12 W3 1_555 1_555
O13 W3 1_555 1_555
O14 W4 1_555 1_555
O15 W4 1_555 1_555
O16 W5 1_555 1_555
O17 W5 1_555 1_555
O18 W6 1_555 1_555
O19 W1 1_555 1_555
O22 W7 1_555 1_555
O23 W7 1_555 1_555
O24 W7 1_555 1_555
O25 W7 1_555 1_555
O26 W8 1_555 1_555
O27 W8 1_555 1_555
O28 W8 1_555 1_555
O29 W8 1_555 1_555
O30 W9 1_555 1_555
O31 W9 1_555 1_555
O32 W9 1_555 1_555
O34 W10 1_555 1_555
O35 W10 1_555 1_555
O36 W10 1_555 1_555
O37 W10 1_555 1_555
O38 W11 1_555 1_555
O39 W11 1_555 1_555
O40 W11 1_555 1_555
O41 W12 1_555 1_555
O42 W12 1_555 1_555
O43 W13 1_555 1_555
O44 W13 1_555 1_555
O45 W14 1_555 1_555
O46 W14 1_555 1_555
O47 W14 1_555 1_555
O48 W15 1_555 1_555
O49 W15 1_555 1_555
O50 W16 1_555 1_555
O51 W16 1_555 1_555
O52 W16 1_555 1_555
O53 W17 1_555 1_555
O54 W17 1_555 1_555
O55 W18 1_555 1_555
O56 W13 1_555 1_555
O57 W7 1_555 1_555
O58 W10 1_555 1_555
O59 W13 1_555 1_555
O60 N10 1_555 1_555
O61 N11 1_555 1_555
O62 N8 1_555 1_555
O63 N12 1_555 1_555
O64 W16 1_555 1_555
O65 Eu1 1_555 1_555
O66 N2 1_555 1_555
O67 Eu1 1_555 1_555
O68 N4 1_555 1_555
O69 Eu1 1_555 1_555
O70 Eu2 1_555 1_555
O71 Eu1 1_555 1_555
O72 Eu2 1_555 1_555
C1 H1 1_555 1_555
C2 C1 1_555 1_555
H2 C2 1_555 1_555
C3 C2 1_555 1_555
C4 C3 1_555 1_555
H3 C4 1_555 1_555
C5 C4 1_555 1_555
H4 C5 1_555 1_555
C6 C3 1_555 1_555
C7 C6 1_555 1_555
H5 C7 1_555 1_555
C8 C7 1_555 1_555
H6 C8 1_555 1_555
C9 H7 1_555 1_555
C10 C6 1_555 1_555
H8 C10 1_555 1_555
C11 H9 1_555 1_555
C12 C11 1_555 1_555
H10 C12 1_555 1_555
C13 C12 1_555 1_555
C14 C13 1_555 1_555
H11 C14 1_555 1_555
C15 C14 1_555 1_555
H12 C15 1_555 1_555
C16 C13 1_555 1_555
C17 C16 1_555 1_555
H13 C17 1_555 1_555
C18 C17 1_555 1_555
H14 C18 1_555 1_555
C19 H15 1_555 1_555
C20 C16 1_555 1_555
H16 C20 1_555 1_555
C21 H17 1_555 1_555
C22 C21 1_555 1_555
H18 C22 1_555 1_555
C23 C22 1_555 1_555
C24 C23 1_555 1_555
H19 C24 1_555 1_555
C25 C24 1_555 1_555
H20 C25 1_555 1_555
C26 C23 1_555 1_555
C27 C26 1_555 1_555
H21 C27 1_555 1_555
C28 C27 1_555 1_555
H22 C28 1_555 1_555
C29 H23 1_555 1_555
C30 C26 1_555 1_555
H24 C30 1_555 1_555
C31 H25 1_555 1_555
C32 C31 1_555 1_555
H26 C32 1_555 1_555
C33 C32 1_555 1_555
C34 C33 1_555 1_555
H27 C34 1_555 1_555
C35 C34 1_555 1_555
H28 C35 1_555 1_555
C36 C33 1_555 1_555
C37 C36 1_555 1_555
H29 C37 1_555 1_555
C38 C37 1_555 1_555
H30 C38 1_555 1_555
C39 H31 1_555 1_555
C40 C36 1_555 1_555
H32 C40 1_555 1_555
C41 H33 1_555 1_555
C42 C41 1_555 1_555
H34 C42 1_555 1_555
C43 C42 1_555 1_555
C44 C43 1_555 1_555
H35 C44 1_555 1_555
C45 C44 1_555 1_555
H36 C45 1_555 1_555
C46 H37 1_555 1_555
C47 C46 1_555 1_555
H38 C47 1_555 1_555
C48 C47 1_555 1_555
C49 C48 1_555 1_555
H39 C49 1_555 1_555
C50 C49 1_555 1_555
H40 C50 1_555 1_555
C51 H41 1_555 1_555
C52 C51 1_555 1_555
H42 C52 1_555 1_555
C53 C52 1_555 1_555
C54 C53 1_555 1_555
H43 C54 1_555 1_555
C55 C54 1_555 1_555
H44 C55 1_555 1_555
C56 H45 1_555 1_555
C57 C56 1_555 1_555
H46 C57 1_555 1_555
C58 C57 1_555 1_555
C59 C58 1_555 1_555
H47 C59 1_555 1_555
C60 C59 1_555 1_555
H48 C60 1_555 1_555
N1 O65 1_555 1_555
N2 C8 1_555 1_555
N3 O67 1_555 1_555
N4 C18 1_555 1_555
N5 O70 1_555 1_555
N6 O69 1_555 1_555
N7 O71 1_555 1_555
N8 C31A 1_555 1_555
N9 O72 1_555 1_555
N10 C46 1_555 1_555
N11 C51 1_555 1_555
N12 C56 1_555 1_555
O73 Eu1 1_555 1_555
O74 Eu1 1_555 1_555
O75 Eu1 1_555 1_555
O76 Eu2 1_555 1_555
O77 Eu2 1_555 1_555
O78 Eu2 1_555 1_555
O79 Eu2 1_555 1_555
O80 Eu2 1_555 1_555
O83 W3 1_555 1_555
O84 W1 1_555 1_555
W1A O1A 1_555 1_555
W2A O3A 1_555 1_555
W3A O8 1_555 1_555
W4A O2A 1_555 1_555
W5A O12 1_555 1_555
W6A O9 1_555 1_555
Eu1A O14A 1_555 1_555
Eu2A O62A 1_555 1_555
Eu2A_2 O72A_2 1_555 1_555
O2A W1A 1_555 1_555
O3A W1A 1_555 1_555
O4A W1A 1_555 1_555
O5A W1A 1_555 1_555
O6A W2A 1_555 1_555
O7A W2A 1_555 1_555
O8A W3 1_555 1_555
O9A W6 1_555 1_555
O10A W3A 1_555 1_555
O11A W3A 1_555 1_555
O12A W5 1_555 1_555
O13A W3A 1_555 1_555
O14A W4A 1_555 1_555
O15A W5 1_555 1_555
O16A W5A 1_555 1_555
O17A W5A 1_555 1_555
O18A W6A 1_555 1_555
O19A P1 1_555 1_555
O60A N10A 1_555 1_555
O61A N11A 1_555 1_555
O62A N8A 1_555 1_555
O63A N12A 1_555 1_555
O65A Eu1A 1_555 1_555
O66A N2A 1_555 1_555
O67A Eu1A 1_555 1_555
O68A N4A 1_555 1_555
O69A Eu1A 1_555 1_555
O70A Eu2A 1_555 1_555
O71A Eu1A 1_555 1_555
O72A Eu2A 1_555 1_555
O72A_2 N9A_2 1_555 1_555
O72_2 N9_2 1_555 1_555
C1A H1A 1_555 1_555
C2A C1A 1_555 1_555
H2A C2A 1_555 1_555
C3A C2A 1_555 1_555
C4A C3A 1_555 1_555
H3A C4A 1_555 1_555
C5A C4A 1_555 1_555
H4A C5A 1_555 1_555
C6A C3A 1_555 1_555
C7A C6A 1_555 1_555
H5A C7A 1_555 1_555
C8A C7A 1_555 1_555
H6A C8A 1_555 1_555
C9A H7A 1_555 1_555
C10A C6A 1_555 1_555
H8A C10A 1_555 1_555
C11A H9A 1_555 1_555
C12A C11A 1_555 1_555
H10A C12A 1_555 1_555
C13A C12A 1_555 1_555
C14A C13A 1_555 1_555
H11A C14A 1_555 1_555
C15A C14A 1_555 1_555
H12A C15A 1_555 1_555
C16A C13A 1_555 1_555
C17A C16A 1_555 1_555
H13A C17A 1_555 1_555
C18A C17A 1_555 1_555
H14A C18A 1_555 1_555
C19A H15A 1_555 1_555
C20A C16A 1_555 1_555
H16A C20A 1_555 1_555
C21A H17A 1_555 1_555
C22A C21A 1_555 1_555
H18A C22A 1_555 1_555
C23A C22A 1_555 1_555
C24A C23A 1_555 1_555
H19A C24A 1_555 1_555
C25A C24A 1_555 1_555
H20A C25A 1_555 1_555
C26A C23A 1_555 1_555
C27A C26A 1_555 1_555
H21A C27A 1_555 1_555
C28A C27A 1_555 1_555
H22A C28A 1_555 1_555
C29A H23A 1_555 1_555
C30A C26A 1_555 1_555
H24A C30A 1_555 1_555
C31A H25A 1_555 1_555
C32A C31A 1_555 1_555
H26A C32A 1_555 1_555
C33A C32A 1_555 1_555
C34A C33A 1_555 1_555
H27A C34A 1_555 1_555
C35A N8 1_555 1_555
H28A C35A 1_555 1_555
C36A C33A 1_555 1_555
C37A C36A 1_555 1_555
H29A C37A 1_555 1_555
C38A C37A 1_555 1_555
H30A C38A 1_555 1_555
C39A H31A 1_555 1_555
C40A C36A 1_555 1_555
H32A C40A 1_555 1_555
C41A H33A 1_555 1_555
C41A_2 H33A_2 1_555 1_555
C41_2 H33_2 1_555 1_555
C42A C41A 1_555 1_555
C42A_2 C41A_2 1_555 1_555
C42_2 C41_2 1_555 1_555
H34A C42A 1_555 1_555
H34A_2 C42A_2 1_555 1_555
H34_2 C42_2 1_555 1_555
C43A C43 1_555 1_555
C43A_2 C42A 1_555 1_555
C43_2 C42_2 1_555 1_555
C44A C43A_2 1_555 1_555
C44A_2 C43A 1_555 1_555
C44_2 C43_2 1_555 1_555
H35A C44A 1_555 1_555
H35A_2 C44A_2 1_555 1_555
H35_2 C44_2 1_555 1_555
C45A C44A 1_555 1_555
C45A_2 C44A_2 1_555 1_555
C45_2 C44_2 1_555 1_555
H36A C45A 1_555 1_555
H36A_2 C45A_2 1_555 1_555
H36_2 C45_2 1_555 1_555
C46A H37A 1_555 1_555
C47A C46A 1_555 1_555
H38A C47A 1_555 1_555
C48A C48 1_555 1_555
C49A C48A 1_555 1_555
H39A C49A 1_555 1_555
C50A C49A 1_555 1_555
H40A C50A 1_555 1_555
C51A H41A 1_555 1_555
C52A C51A 1_555 1_555
H42A C52A 1_555 1_555
C53A C53 1_555 1_555
C54A C53A 1_555 1_555
H43A C54A 1_555 1_555
C55A C54A 1_555 1_555
H44A C55A 1_555 1_555
C56A H45A 1_555 1_555
C57A C56A 1_555 1_555
H46A C57A 1_555 1_555
C58A C58 1_555 1_555
C59A C58A 1_555 1_555
H47A C59A 1_555 1_555
C60A C59A 1_555 1_555
H48A C60A 1_555 1_555
N1A O65A 1_555 1_555
N2A C8A 1_555 1_555
N3A O67A 1_555 1_555
N4A C18A 1_555 1_555
N5A O70A 1_555 1_555
N6A O69A 1_555 1_555
N7A O71A 1_555 1_555
N8A C31 1_555 1_555
N9A O72A 1_555 1_555
N9A_2 C41A_2 1_555 1_555
N9_2 C41_2 1_555 1_555
N10A C46A 1_555 1_555
N11A C51A 1_555 1_555
N12A C56A 1_555 1_555
O73A Eu1A 1_555 1_555
O74A Eu1A 1_555 1_555
O75A Eu1A 1_555 1_555
O76A Eu2A 1_555 1_555
O77A Eu2A 1_555 1_555
O78A Eu2A 1_555 1_555
O79A Eu2A 1_555 1_555
O80A Eu2A 1_555 1_555
O83A W5 1_555 1_555
O84A P1 1_555 1_555
W2 O84 1_555 1_555
W4 O7 1_555 1_555
W4 O11 1_555 1_555
W4 O83 1_555 1_555
W4 O84 1_555 1_555
W5 O19 1_555 1_555
W6 O13 1_555 1_555
W6 O17 1_555 1_555
W6 O19 1_555 1_555
W8 O57 1_555 1_555
W9 O29 1_555 1_555
W9 O57 1_555 1_555
W11 O37 1_555 1_555
W11 O58 1_555 1_555
W12 O35 1_555 1_555
W12 O39 1_555 1_555
W12 O58 1_555 1_555
W13 O42 1_555 1_555
W14 O56 1_555 1_555
W14 O59 1_555 1_555
W15 O44 1_555 1_555
W15 O46 1_555 1_555
W15 O59 1_555 1_555
W16 O47 1_555 1_555
W17 O49 1_555 1_555
W17 O51 1_555 1_555
W17 O64 1_555 1_555
W18 O40 1_555 1_555
W18 O52 1_555 1_555
W18 O54 1_555 1_555
W18 O64 1_555 1_555
P1 O83 1_555 1_555
P1 O84 1_555 1_555
P1 O83A 1_555 1_555
P2 O58 1_555 1_555
P2 O59 1_555 1_555
P2 O64 1_555 1_555
O15 W5A 1_555 1_555
C1 N1 1_555 1_555
C5 N1 1_555 1_555
C9 C10 1_555 1_555
C9 N2 1_555 1_555
C11 N3 1_555 1_555
C15 N3 1_555 1_555
C19 C20 1_555 1_555
C19 N4 1_555 1_555
C21 N5 1_555 1_555
C25 N5 1_555 1_555
C28 N6 1_555 1_555
C29 C30 1_555 1_555
C29 N6 1_555 1_555
C35 N8A 1_555 1_555
C38 N7 1_555 1_555
C39 C40 1_555 1_555
C39 N7 1_555 1_555
C41 N9 1_555 1_555
C45 N9 1_555 1_555
C50 N10 1_555 1_555
C55 N11 1_555 1_555
C60 N12 1_555 1_555
O83 W5A 1_555 1_555
W1A O19A 1_555 1_555
W1A O84A 1_555 1_555
W2A O8A 1_555 1_555
W2A O9A 1_555 1_555
W2A O84A 1_555 1_555
W3A O12A 1_555 1_555
W3A O83A 1_555 1_555
W4A O7A 1_555 1_555
W4A O11A 1_555 1_555
W4A O15A 1_555 1_555
W4A O83A 1_555 1_555
W4A O84A 1_555 1_555
W5A O5A 1_555 1_555
W5A O19A 1_555 1_555
W6A O4A 1_555 1_555
W6A O13A 1_555 1_555
W6A O17A 1_555 1_555
W6A O19A 1_555 1_555
C1A N1A 1_555 1_555
C5A N1A 1_555 1_555
C9A C10A 1_555 1_555
C9A N2A 1_555 1_555
C11A N3A 1_555 1_555
C15A N3A 1_555 1_555
C19A C20A 1_555 1_555
C19A N4A 1_555 1_555
C21A N5A 1_555 1_555
C25A N5A 1_555 1_555
C28A N6A 1_555 1_555
C29A C30A 1_555 1_555
C29A N6A 1_555 1_555
C34A C35A 1_555 1_555
C38A N7A 1_555 1_555
C39A C40A 1_555 1_555
C39A N7A 1_555 1_555
C41A N9A 1_555 1_555
C42A_2 C43A 1_555 1_555
C43A_2 C43_2 1_555 1_555
C45A N9A 1_555 1_555
C45A_2 N9A_2 1_555 1_555
C45_2 N9_2 1_555 1_555
C47A C48A 1_555 1_555
C50A N10A 1_555 1_555
C52A C53A 1_555 1_555
C55A N11A 1_555 1_555
C57A C58A 1_555 1_555
C60A N12A 1_555 1_555

#END
