
#######################################################################
#
#                 Cambridge Crystallographic Data Centre
#                                CCDC 
#
#######################################################################
#
# If this CIF has been generated from an entry in the Cambridge 
# Structural Database, then it will include bibliographic, chemical, 
# crystal, experimental, refinement or atomic coordinate data resulting 
# from the CCDC's data processing and validation procedures.
#
#######################################################################

data_GAXCOZ
_symmetry_cell_setting           triclinic
_symmetry_space_group_name_H-M   'P -1'
_symmetry_Int_Tables_number      2
_space_group_name_Hall           '-P 1'
loop_
_symmetry_equiv_pos_site_id
_symmetry_equiv_pos_as_xyz
1 x,y,z
2 -x,-y,-z
_cell_length_a                   12.5305(4)
_cell_length_b                   16.1251(5)
_cell_length_c                   16.4694(5)
_cell_angle_alpha                97.541(2)
_cell_angle_beta                 91.323(2)
_cell_angle_gamma                97.644(2)
_cell_volume                     3266.85
loop_
_atom_site_label
_atom_site_type_symbol
_atom_site_fract_x
_atom_site_fract_y
_atom_site_fract_z
W7 W 0.98956(4) 0.17011(3) -0.11590(3)
W8 W 1.23409(4) 0.08503(3) -0.09413(3)
W9 W 1.24465(4) -0.08517(3) 0.02034(3)
W10 W 0.89920(4) 0.11923(3) 0.17226(3)
W11 W 1.13193(4) 0.20623(3) 0.07764(3)
W12 W 1.14553(4) 0.03505(3) 0.19139(3)
P2 P 1.0000 0.0000 0.0000
O21 O 1.0301(10) 0.0634(8) 0.0804(8)
O22 O 1.1027(9) -0.0165(7) -0.0443(7)
O23 O 1.0572(12) 0.0811(9) -0.0227(9)
O24 O 0.9314(11) 0.0404(9) -0.0534(9)
O25 O 0.9862(10) 0.2514(6) -0.1714(6)
O26 O 1.1236(8) 0.1350(8) -0.1406(6)
O27 O 0.9270(8) 0.0747(7) -0.1905(7)
O28 O 1.0478(8) 0.2282(7) -0.0128(6)
O29 O 1.3465(8) 0.1283(7) -0.1347(5)
O30 O 1.2898(10) 0.0164(8) -0.0256(7)
O31 O 1.1861(10) -0.0125(7) -0.1698(7)
O32 O 1.2313(8) 0.1652(7) 0.0001(6)
O33 O 1.3624(7) -0.1229(7) 0.0364(7)
O34 O 0.8527(9) 0.1625(7) -0.0676(8)
O35 O 1.1934(10) -0.1400(7) -0.0871(7)
O36 O 1.2431(7) -0.0147(6) 0.1200(7)
O37 O 0.8503(9) 0.1722(7) 0.2561(6)
O38 O 1.0000(8) 0.1975(7) 0.1362(7)
O39 O 1.0112(8) 0.0708(6) 0.2169(7)
O40 O 1.1973(7) 0.3006(5) 0.1149(6)
O41 O 1.1852(8) 0.1390(7) 0.1520(6)
O42 O 1.2141(7) 0.0464(6) 0.2809(5)
W7A W 1.01044(4) -0.17011(3) 0.11590(3)
W8A W 0.76591(4) -0.08503(3) 0.09413(3)
W9A W 0.75535(4) 0.08517(3) -0.02034(3)
W10A W 1.10080(4) -0.11923(3) -0.17226(3)
W11A W 0.86807(4) -0.20623(3) -0.07764(3)
W12A W 0.85447(4) -0.03505(3) -0.19139(3)
O21A O 0.9699(10) -0.0634(8) -0.0804(8)
O22A O 0.8973(9) 0.0165(7) 0.0443(7)
O23A O 0.9428(12) -0.0811(9) 0.0227(9)
O24A O 1.0686(11) -0.0404(9) 0.0534(9)
O25A O 1.0138(10) -0.2514(6) 0.1714(6)
O26A O 0.8764(8) -0.1350(8) 0.1406(6)
O27A O 1.0730(8) -0.0747(7) 0.1905(7)
O28A O 0.9522(8) -0.2282(7) 0.0128(6)
O29A O 0.6535(8) -0.1283(7) 0.1347(5)
O30A O 0.7102(10) -0.0164(8) 0.0256(7)
O31A O 0.8139(10) 0.0125(7) 0.1698(7)
O32A O 0.7687(8) -0.1652(7) -0.0001(6)
O33A O 0.6376(7) 0.1229(7) -0.0364(7)
O34A O 1.1473(9) -0.1625(7) 0.0676(8)
O35A O 0.8066(10) 0.1400(7) 0.0871(7)
O36A O 0.7569(7) 0.0147(6) -0.1200(7)
O37A O 1.1497(9) -0.1722(7) -0.2561(6)
O38A O 1.0000(8) -0.1975(7) -0.1362(7)
O39A O 0.9888(8) -0.0708(6) -0.2169(7)
O40A O 0.8027(7) -0.3006(5) -0.1149(6)
O41A O 0.8148(8) -0.1390(7) -0.1520(6)
O42A O 0.7859(7) -0.0464(6) -0.2809(5)
Zn1 Zn -0.5000 0.5000 0.0000
Zn2 Zn -0.41880(11) -0.11246(9) 0.36410(8)
C1 C -0.5175(10) 0.0179(10) 0.2115(11)
H1 H -0.5603 -0.0340 0.1975
C2 C -0.5073(10) 0.0699(7) 0.1530(7)
H2 H -0.5376 0.0546 0.1002
C3 C -0.4452(10) 0.1510(7) 0.1800(8)
C4 C -0.3938(8) 0.1651(6) 0.2530(6)
H3 H -0.3470 0.2149 0.2680
C5 C -0.4088(10) 0.1085(8) 0.3046(10)
H4 H -0.3734 0.1211 0.3558
C6 C -0.4405(9) 0.2127(7) 0.1216(7)
C7 C -0.5244(11) 0.2149(7) 0.0603(7)
H5 H -0.5841 0.1733 0.0541
C8 C -0.5168(9) 0.2758(7) 0.0129(7)
H6 H -0.5732 0.2767 -0.0244
C9 C -0.3477(8) 0.3341(7) 0.0683(6)
H7 H -0.2857 0.3727 0.0676
C10 C -0.3508(10) 0.2782(7) 0.1209(7)
H8 H -0.2933 0.2815 0.1585
C11 C -0.5819(10) 0.5427(7) -0.2549(8)
H9 H -0.6433 0.5028 -0.2601
C12 C -0.5620(10) 0.5923(7) -0.3155(7)
H10 H -0.6096 0.5861 -0.3608
C13 C -0.4707(8) 0.6521(7) -0.3093(6)
C14 C -0.3987(10) 0.6531(7) -0.2424(7)
H11 H -0.3336 0.6889 -0.2382
C15 C -0.4232(9) 0.6017(7) -0.1826(7)
H12 H -0.3746 0.6036 -0.1387
C16 C -0.4393(8) 0.7038(6) -0.3756(6)
C17 C -0.4659(10) 0.6761(7) -0.4577(7)
H13 H -0.5075 0.6239 -0.4729
C18 C -0.4314(11) 0.7250(9) -0.5169(9)
H14 H -0.4483 0.7061 -0.5721
C19 C -0.3477(11) 0.8323(7) -0.4156(8)
H15 H -0.3106 0.8865 -0.4027
C20 C -0.1559(10) -0.1356(7) 0.3429(8)
H16 H -0.2093 -0.1818 0.3313
C21 C -0.0459(11) -0.1455(8) 0.3547(8)
H17 H -0.0263 -0.1994 0.3448
C22 C 0.0332(9) -0.0782(7) 0.3802(6)
C23 C -0.0011(9) -0.0008(7) 0.3894(7)
H18 H 0.0485 0.0458 0.4100
C24 C -0.1070(9) 0.0131(7) 0.3697(6)
H19 H -0.1250 0.0674 0.3711
C25 C 0.1484(9) -0.0954(7) 0.3899(8)
C26 C 0.1852(10) -0.1573(7) 0.3428(7)
H20 H 0.1409 -0.1918 0.3023
C27 C 0.2920(11) -0.1698(8) 0.3554(10)
H21 H 0.3190 -0.2113 0.3203
C28 C 0.3172(10) -0.0554(8) 0.4609(7)
H22 H 0.3611 -0.0181 0.4996
C29 C 0.2158(10) -0.0446(8) 0.4475(8)
H23 H 0.1893 -0.0001 0.4787
C30 C -0.1919(12) 0.5800(9) 0.0675(9)
H24 H -0.2143 0.6120 0.1135
C31 C -0.0918(13) 0.5588(12) 0.0680(12)
H25 H -0.0456 0.5747 0.1140
C32 C -0.0581(10) 0.5110(8) -0.0043(7)
C33 C -0.1272(12) 0.4834(10) -0.0667(11)
H26 H -0.1086 0.4474 -0.1114
C34 C -0.2296(12) 0.5100(11) -0.0638(9)
H27 H -0.2772 0.4950 -0.1092
C35 C -0.3784(9) 0.7826(6) -0.3519(6)
H28 H -0.3586 0.8019 -0.2972
N1 N -0.4727(8) 0.0333(6) 0.2870(6)
N2 N -0.4297(7) 0.3373(6) 0.0165(6)
N3 N -0.5152(8) 0.5497(6) -0.1873(6)
N4 N -0.3729(8) 0.8004(6) -0.4934(6)
N5 N -0.1794(8) -0.0543(6) 0.3494(6)
N6 N 0.3583(8) -0.1247(6) 0.4158(6)
N7 N -0.2598(9) 0.5562(7) 0.0026(6)
O43 O -0.4978(8) -0.0151(6) 0.3442(6)
O44 O -0.4291(8) 0.3925(6) -0.0354(5)
O45 O -0.5431(8) 0.4992(6) -0.1305(5)
O46 O -0.3313(7) -0.1507(7) 0.4488(6)
O47 O -0.2807(7) -0.0396(6) 0.3370(6)
O48 O -0.5464(8) -0.1434(6) 0.4335(6)
O49 O -0.3602(7) 0.5801(5) -0.0006(6)
O50 O -0.4377(12) -0.1952(9) 0.2648(7)
Zn1_2 Zn 0.5000 0.5000 0.0000
Zn1_3 Zn -0.5000 -0.5000 1.0000
Zn1_4 Zn -1.5000 0.5000 0.0000
Zn2_2 Zn -0.41880(11) 0.88754(9) -0.63590(8)
Zn2_3 Zn 0.58120(11) -0.11246(9) 0.36410(8)
Zn2_4 Zn -1.41880(11) -0.11246(9) 0.36410(8)
C11_2 C -0.5819(10) -0.4573(7) 0.7451(8)
H9_2 H -0.6433 -0.4972 0.7399
C12_2 C -0.5620(10) -0.4077(7) 0.6845(7)
H10_2 H -0.6096 -0.4139 0.6392
C13_2 C -0.4707(8) -0.3479(7) 0.6907(6)
C14_2 C -0.3987(10) -0.3469(7) 0.7576(7)
H11_2 H -0.3336 -0.3111 0.7618
C15_2 C -0.4232(9) -0.3983(7) 0.8174(7)
H12_2 H -0.3746 -0.3964 0.8613
C16_2 C -0.4393(8) -0.2962(6) 0.6244(6)
C17_2 C -0.4659(10) -0.3239(7) 0.5423(7)
H13_2 H -0.5075 -0.3761 0.5271
C18_2 C -0.4314(11) -0.2750(9) 0.4831(9)
H14_2 H -0.4483 -0.2939 0.4279
C19_2 C -0.3477(11) -0.1677(7) 0.5844(8)
H15_2 H -0.3106 -0.1135 0.5973
C20_2 C -1.1559(10) -0.1356(7) 0.3429(8)
H16_2 H -1.2093 -0.1818 0.3313
C21_2 C -1.0459(11) -0.1455(8) 0.3547(8)
H17_2 H -1.0263 -0.1994 0.3448
C22_2 C -0.9668(9) -0.0782(7) 0.3802(6)
C23_2 C -1.0011(9) -0.0008(7) 0.3894(7)
H18_2 H -0.9515 0.0458 0.4100
C24_2 C -1.1070(9) 0.0131(7) 0.3697(6)
H19_2 H -1.1250 0.0674 0.3711
C25_2 C -0.8516(9) -0.0954(7) 0.3899(8)
C26_2 C -0.8148(10) -0.1573(7) 0.3428(7)
H20_2 H -0.8591 -0.1918 0.3023
C27_2 C -0.7080(11) -0.1698(8) 0.3554(10)
H21_2 H -0.6810 -0.2113 0.3203
C28_2 C -0.6828(10) -0.0554(8) 0.4609(7)
H22_2 H -0.6389 -0.0181 0.4996
C29_2 C -0.7842(10) -0.0446(8) 0.4475(8)
H23_2 H -0.8107 -0.0001 0.4787
C30A C 0.1919(12) 0.4200(9) -0.0675(9)
C30A_2 C -0.8081(12) 0.4200(9) -0.0675(9)
C30_2 C -1.1919(12) 0.5800(9) 0.0675(9)
H24A H 0.2143 0.3880 -0.1135
H24A_2 H -0.7857 0.3880 -0.1135
H24_2 H -1.2143 0.6120 0.1135
C31A C 0.0918(13) 0.4412(12) -0.0680(12)
C31A_2 C -0.9082(13) 0.4412(12) -0.0680(12)
C31_2 C -1.0918(13) 0.5588(12) 0.0680(12)
H25A H 0.0456 0.4253 -0.1140
H25A_2 H -0.9544 0.4253 -0.1140
H25_2 H -1.0456 0.5747 0.1140
C32A C 0.0581(10) 0.4890(8) 0.0043(7)
C32A_2 C -0.9419(10) 0.4890(8) 0.0043(7)
C32_2 C -1.0581(10) 0.5110(8) -0.0043(7)
C33A C 0.1272(12) 0.5166(10) 0.0667(11)
C33A_2 C -0.8728(12) 0.5166(10) 0.0667(11)
C33_2 C -1.1272(12) 0.4834(10) -0.0667(11)
H26A H 0.1086 0.5526 0.1114
H26A_2 H -0.8914 0.5526 0.1114
H26_2 H -1.1086 0.4474 -0.1114
C34A C 0.2296(12) 0.4900(11) 0.0638(9)
C34A_2 C -0.7704(12) 0.4900(11) 0.0638(9)
C34_2 C -1.2296(12) 0.5100(11) -0.0638(9)
H27A H 0.2772 0.5050 0.1092
H27A_2 H -0.7228 0.5050 0.1092
H27_2 H -1.2772 0.4950 -0.1092
C35_2 C -0.3784(9) -0.2174(6) 0.6481(6)
H28_2 H -0.3586 -0.1981 0.7028
N2A N -0.5703(7) 0.6627(6) -0.0165(6)
N3A N -0.4848(8) 0.4503(6) 0.1873(6)
N3_2 N -0.5152(8) -0.4503(6) 0.8127(6)
N4_2 N -0.3729(8) -0.1996(6) 0.5066(6)
N5_2 N -1.1794(8) -0.0543(6) 0.3494(6)
N6_2 N -0.6417(8) -0.1247(6) 0.4158(6)
N7A N -0.7402(9) 0.4438(7) -0.0026(6)
N7A_2 N 0.2598(9) 0.4438(7) -0.0026(6)
N7_2 N -1.2598(9) 0.5562(7) 0.0026(6)
O43_2 O -0.4978(8) 0.9849(6) -0.6558(6)
O44A O -0.5709(8) 0.6075(6) 0.0354(5)
O45A O -0.4569(8) 0.5008(6) 0.1305(5)
O45_2 O -0.5431(8) -0.5008(6) 0.8695(5)
O46_2 O -0.3313(7) 0.8493(7) -0.5512(6)
O47_2 O -1.2807(7) -0.0396(6) 0.3370(6)
O47_3 O -0.2807(7) 0.9604(6) -0.6630(6)
O48_2 O 0.4536(8) -0.1434(6) 0.4335(6)
O48_3 O -0.5464(8) 0.8566(6) -0.5665(6)
O49A O -0.6398(7) 0.4199(5) 0.0006(6)
O49A_2 O 0.3602(7) 0.4199(5) 0.0006(6)
O49_2 O -1.3602(7) 0.5801(5) -0.0006(6)
O50_2 O -0.4377(12) 0.8048(9) -0.7352(7)
O51 O 0.553(3) 1.3416(17) -0.2198(16)
W1 W 1.16592(4) 0.39353(3) 0.61718(3)
W2 W 1.08449(4) 0.30606(3) 0.41193(3)
W3 W 1.27311(4) 0.49337(3) 0.45104(3)
W4 W 0.89332(4) 0.40324(3) 0.66793(3)
W5 W 0.81195(4) 0.31282(3) 0.46269(3)
W6 W 1.08428(4) 0.58901(3) 0.70515(3)
P1 P 1.0000 0.5000 0.5000
O1 O 1.2462(7) 0.3464(6) 0.6728(5)
O2 O 1.1275(11) 0.3135(8) 0.5260(7)
O3 O 1.2661(11) 0.4495(8) 0.5508(8)
O4 O 1.1700(9) 0.4971(7) 0.6877(8)
O5 O 0.9432(9) 0.2696(8) 0.4426(6)
O6 O 1.1269(9) 0.2132(6) 0.3745(9)
O7 O 1.2023(11) 0.3847(9) 0.4034(9)
O8 O 1.0176(8) 0.3412(7) 0.3192(7)
O9 O 1.4033(7) 0.4938(7) 0.4272(7)
O10 O 1.2193(8) 0.5361(7) 0.3599(6)
O11 O 1.2787(8) 0.6026(6) 0.5104(6)
O12 O 0.8421(12) 0.3589(7) 0.7460(6)
O13 O 0.8480(9) 0.3227(6) 0.5768(7)
O14 O 1.0268(9) 0.3616(6) 0.6604(10)
O15 O 0.9680(8) 0.5056(6) 0.7250(10)
O16 O 0.7235(9) 0.2251(6) 0.4500(7)
O17 O 1.1815(8) 0.6546(7) 0.6457(5)
O18 O 1.1275(7) 0.6284(7) 0.8015(5)
O19 O 1.0211(11) 0.4835(9) 0.5916(8)
O20 O 1.0976(12) 0.4455(10) 0.4999(9)
W1A W 0.83408(4) 0.60647(3) 0.38282(3)
W2A W 0.91551(4) 0.69394(3) 0.58807(3)
W3A W 0.72689(4) 0.50663(3) 0.54896(3)
W4A W 1.10668(4) 0.59676(3) 0.33207(3)
W5A W 1.18805(4) 0.68718(3) 0.53731(3)
W6A W 0.91572(4) 0.41099(3) 0.29485(3)
O1A O 0.7538(7) 0.6536(6) 0.3272(5)
O2A O 0.8725(11) 0.6865(8) 0.4740(7)
O3A O 0.7339(11) 0.5505(8) 0.4492(8)
O4A O 0.8300(9) 0.5029(7) 0.3123(8)
O5A O 1.0568(9) 0.7304(8) 0.5574(6)
O6A O 0.8731(9) 0.7868(6) 0.6255(9)
O7A O 0.7977(11) 0.6153(9) 0.5966(9)
O8A O 0.9824(8) 0.6588(7) 0.6808(7)
O9A O 0.5967(7) 0.5062(7) 0.5728(7)
O10A O 0.7807(8) 0.4639(7) 0.6401(6)
O11A O 0.7213(8) 0.3974(6) 0.4896(6)
O12A O 1.1579(12) 0.6411(7) 0.2540(6)
O13A O 1.1520(9) 0.6773(6) 0.4232(7)
O14A O 0.9732(9) 0.6384(6) 0.3396(10)
O15A O 1.0320(8) 0.4944(6) 0.2750(10)
O16A O 1.2765(9) 0.7749(6) 0.5500(7)
O17A O 0.8185(8) 0.3454(7) 0.3543(5)
O18A O 0.8725(7) 0.3716(7) 0.1985(5)
O19A O 0.9789(11) 0.5165(9) 0.4084(8)
O20A O 0.9024(12) 0.5545(10) 0.5001(9)
O52? O 0.9640(11) 0.4185(9) 0.4482(9)
O53? O 1.0956(11) 0.5504(9) 0.4714(8)
loop_
_geom_bond_atom_site_label_1
_geom_bond_atom_site_label_2
_geom_bond_site_symmetry_1
_geom_bond_site_symmetry_2
W1 O1 1_555 1_555
W2 O2 1_555 1_555
W3 O3 1_555 1_555
W4 O12 1_555 1_555
W5 O5 1_555 1_555
W6 O4 1_555 1_555
W7 O23 1_555 1_555
W8 O22 1_555 1_555
W9 O22 1_555 1_555
W10 O21 1_555 1_555
W11 O21 1_555 1_555
W12 O21 1_555 1_555
Zn1 O44 1_555 1_555
Zn2 O43 1_555 1_555
P1 O19 1_555 1_555
P2 O21 1_555 1_555
O2 W1 1_555 1_555
O3 W1 1_555 1_555
O4 W1 1_555 1_555
O5 W2 1_555 1_555
O6 W2 1_555 1_555
O7 W2 1_555 1_555
O8 W2 1_555 1_555
O9 W3 1_555 1_555
O10 W3 1_555 1_555
O11 W3 1_555 1_555
O13 W4 1_555 1_555
O14 W1 1_555 1_555
O15 W4 1_555 1_555
O16 W5 1_555 1_555
O17 W6 1_555 1_555
O18 W6 1_555 1_555
O19 W1 1_555 1_555
O20 W1 1_555 1_555
O22 P2 1_555 1_555
O23 W8 1_555 1_555
O24 W7 1_555 1_555
O25 W7 1_555 1_555
O26 W7 1_555 1_555
O27 W7 1_555 1_555
O28 W7 1_555 1_555
O29 W8 1_555 1_555
O30 W8 1_555 1_555
O31 W8 1_555 1_555
O32 W8 1_555 1_555
O33 W9 1_555 1_555
O34 W7 1_555 1_555
O35 W9 1_555 1_555
O36 W9 1_555 1_555
O37 W10 1_555 1_555
O38 W10 1_555 1_555
O39 W10 1_555 1_555
O40 W11 1_555 1_555
O41 W11 1_555 1_555
O42 W12 1_555 1_555
C1 H1 1_555 1_555
C2 C1 1_555 1_555
H2 C2 1_555 1_555
C3 C2 1_555 1_555
C4 C3 1_555 1_555
H3 C4 1_555 1_555
C5 C4 1_555 1_555
H4 C5 1_555 1_555
C6 C3 1_555 1_555
C7 C6 1_555 1_555
H5 C7 1_555 1_555
C8 C7 1_555 1_555
H6 C8 1_555 1_555
C9 H7 1_555 1_555
C10 C6 1_555 1_555
H8 C10 1_555 1_555
C11 H9 1_555 1_555
C12 C11 1_555 1_555
H10 C12 1_555 1_555
C13 C12 1_555 1_555
C14 C13 1_555 1_555
H11 C14 1_555 1_555
C15 C14 1_555 1_555
H12 C15 1_555 1_555
C16 C13 1_555 1_555
C17 C16 1_555 1_555
H13 C17 1_555 1_555
C18 C17 1_555 1_555
H14 C18 1_555 1_555
C19 H15 1_555 1_555
C20 H16 1_555 1_555
C21 C20 1_555 1_555
H17 C21 1_555 1_555
C22 C21 1_555 1_555
C23 C22 1_555 1_555
H18 C23 1_555 1_555
C24 C23 1_555 1_555
H19 C24 1_555 1_555
C25 C22 1_555 1_555
C26 C25 1_555 1_555
H20 C26 1_555 1_555
C27 C26 1_555 1_555
H21 C27 1_555 1_555
C28 H22 1_555 1_555
C29 C25 1_555 1_555
H23 C29 1_555 1_555
C30 H24 1_555 1_555
C31 C30 1_555 1_555
H25 C31 1_555 1_555
C32 C31 1_555 1_555
C33 C32 1_555 1_555
H26 C33 1_555 1_555
C34 C33 1_555 1_555
H27 C34 1_555 1_555
C35 C16 1_555 1_555
H28 C35 1_555 1_555
N1 C1 1_555 1_555
N2 C8 1_555 1_555
N3 C11 1_555 1_555
N4 C18 1_555 1_555
N5 C20 1_555 1_555
N6 C27 1_555 1_555
N7 C30 1_555 1_555
O43 N1 1_555 1_555
O44 N2 1_555 1_555
O45 Zn1 1_555 1_555
O46 Zn2 1_555 1_555
O47 Zn2 1_555 1_555
O48 Zn2 1_555 1_555
O49 Zn1 1_555 1_555
O50 Zn2 1_555 1_555
W1A O1A 1_555 1_555
W2A O2A 1_555 1_555
W3A O3A 1_555 1_555
W4A O10 1_555 1_555
W5A O11 1_555 1_555
W6A O8 1_555 1_555
W7A O23A 1_555 1_555
W8A O22A 1_555 1_555
W9A O24 1_555 1_555
W10A O22 1_555 1_555
W11A O21A 1_555 1_555
W12A O24 1_555 1_555
Zn1_2 O49A_2 1_555 1_555
Zn1_3 O45_2 1_555 1_555
Zn1_4 O49_2 1_555 1_555
Zn2_2 O43_2 1_555 1_555
Zn2_3 O48_2 1_555 1_555
Zn2_4 O47_2 1_555 1_555
O2A W1A 1_555 1_555
O3A W1A 1_555 1_555
O4A W1A 1_555 1_555
O5A W2A 1_555 1_555
O6A W2A 1_555 1_555
O7A W2A 1_555 1_555
O8A W6 1_555 1_555
O9A W3A 1_555 1_555
O10A W4 1_555 1_555
O11A W5 1_555 1_555
O12A W4A 1_555 1_555
O13A W4A 1_555 1_555
O14A W1A 1_555 1_555
O15A W4A 1_555 1_555
O16A W5A 1_555 1_555
O17A W5 1_555 1_555
O18A W6A 1_555 1_555
O19A P1 1_555 1_555
O20A P1 1_555 1_555
O21A P2 1_555 1_555
O22A W10 1_555 1_555
O23A P2 1_555 1_555
O24A W9 1_555 1_555
O25A W7A 1_555 1_555
O26A W7A 1_555 1_555
O27A W12 1_555 1_555
O28A W7A 1_555 1_555
O29A W8A 1_555 1_555
O30A W8A 1_555 1_555
O31A W10 1_555 1_555
O32A W8A 1_555 1_555
O33A W9A 1_555 1_555
O34A W9 1_555 1_555
O35A W10 1_555 1_555
O36A W9A 1_555 1_555
O37A W10A 1_555 1_555
O38A W10A 1_555 1_555
O39A W10A 1_555 1_555
O40A W11A 1_555 1_555
O41A W11A 1_555 1_555
O42A W12A 1_555 1_555
C11_2 H9_2 1_555 1_555
C12_2 C11_2 1_555 1_555
H10_2 C12_2 1_555 1_555
C13_2 C12_2 1_555 1_555
C14_2 C13_2 1_555 1_555
H11_2 C14_2 1_555 1_555
C15_2 C14_2 1_555 1_555
H12_2 C15_2 1_555 1_555
C16_2 C13_2 1_555 1_555
C17_2 C16_2 1_555 1_555
H13_2 C17_2 1_555 1_555
C18_2 C17_2 1_555 1_555
H14_2 C18_2 1_555 1_555
C19_2 H15_2 1_555 1_555
C20_2 H16_2 1_555 1_555
C21_2 C20_2 1_555 1_555
H17_2 C21_2 1_555 1_555
C22_2 C21_2 1_555 1_555
C23_2 C22_2 1_555 1_555
H18_2 C23_2 1_555 1_555
C24_2 C23_2 1_555 1_555
H19_2 C24_2 1_555 1_555
C25_2 C22_2 1_555 1_555
C26_2 C25_2 1_555 1_555
H20_2 C26_2 1_555 1_555
C27_2 C26_2 1_555 1_555
H21_2 C27_2 1_555 1_555
C28_2 H22_2 1_555 1_555
C29_2 C25_2 1_555 1_555
H23_2 C29_2 1_555 1_555
C30A H24A 1_555 1_555
C30A_2 H24A_2 1_555 1_555
C30_2 H24_2 1_555 1_555
C31A C30A 1_555 1_555
C31A_2 C30A_2 1_555 1_555
C31_2 C30_2 1_555 1_555
H25A C31A 1_555 1_555
H25A_2 C31A_2 1_555 1_555
H25_2 C31_2 1_555 1_555
C32A C32 1_555 1_555
C32A_2 C31A_2 1_555 1_555
C32_2 C31_2 1_555 1_555
C33A C32A 1_555 1_555
C33A_2 C32A_2 1_555 1_555
C33_2 C32_2 1_555 1_555
H26A C33A 1_555 1_555
H26A_2 C33A_2 1_555 1_555
H26_2 C33_2 1_555 1_555
C34A C33A 1_555 1_555
C34A_2 C33A_2 1_555 1_555
C34_2 C33_2 1_555 1_555
H27A C34A 1_555 1_555
H27A_2 C34A_2 1_555 1_555
H27_2 C34_2 1_555 1_555
C35_2 C16_2 1_555 1_555
H28_2 C35_2 1_555 1_555
N2A O44A 1_555 1_555
N3A O45A 1_555 1_555
N3_2 C11_2 1_555 1_555
N4_2 O46 1_555 1_555
N5_2 C20_2 1_555 1_555
N6_2 O48 1_555 1_555
N7A C30A_2 1_555 1_555
N7A_2 C30A 1_555 1_555
N7_2 C30_2 1_555 1_555
O44A Zn1 1_555 1_555
O45A Zn1 1_555 1_555
O45_2 N3_2 1_555 1_555
O46_2 N4 1_555 1_555
O47_2 N5_2 1_555 1_555
O47_3 Zn2_2 1_555 1_555
O48_2 N6 1_555 1_555
O48_3 Zn2_2 1_555 1_555
O49A Zn1 1_555 1_555
O49A_2 N7A_2 1_555 1_555
O49_2 N7_2 1_555 1_555
O50_2 Zn2_2 1_555 1_555
W2 O20 1_555 1_555
W3 O7 1_555 1_555
W3 O20 1_555 1_555
W4 O14 1_555 1_555
W4 O19 1_555 1_555
W5 O13 1_555 1_555
W6 O15 1_555 1_555
W6 O19 1_555 1_555
W8 O26 1_555 1_555
W9 O30 1_555 1_555
W11 O23 1_555 1_555
W11 O28 1_555 1_555
W11 O32 1_555 1_555
W11 O38 1_555 1_555
W12 O36 1_555 1_555
W12 O39 1_555 1_555
W12 O41 1_555 1_555
W12 O24A 1_555 1_555
P1 O20 1_555 1_555
P2 O23 1_555 1_555
P2 O24 1_555 1_555
P2 O22A 1_555 1_555
P2 O24A 1_555 1_555
O17 W5A 1_555 1_555
O27 W12A 1_555 1_555
O31 W10A 1_555 1_555
O34 W9A 1_555 1_555
O35 W10A 1_555 1_555
C5 N1 1_555 1_555
C9 C10 1_555 1_555
C9 N2 1_555 1_555
C15 N3 1_555 1_555
C19 C35 1_555 1_555
C19 N4 1_555 1_555
C24 N5 1_555 1_555
C28 C29 1_555 1_555
C28 N6 1_555 1_555
C34 N7 1_555 1_555
N3 O45 1_555 1_555
N5 O47 1_555 1_555
N7 O49 1_555 1_555
W1A O19A 1_555 1_555
W1A O20A 1_555 1_555
W2A O8A 1_555 1_555
W2A O20A 1_555 1_555
W3A O7A 1_555 1_555
W3A O10A 1_555 1_555
W3A O11A 1_555 1_555
W3A O20A 1_555 1_555
W4A O14A 1_555 1_555
W4A O19A 1_555 1_555
W5A O5A 1_555 1_555
W5A O13A 1_555 1_555
W6A O4A 1_555 1_555
W6A O15A 1_555 1_555
W6A O17A 1_555 1_555
W6A O19A 1_555 1_555
W7A O24A 1_555 1_555
W7A O27A 1_555 1_555
W7A O34A 1_555 1_555
W8A O23A 1_555 1_555
W8A O26A 1_555 1_555
W8A O31A 1_555 1_555
W9A O22A 1_555 1_555
W9A O30A 1_555 1_555
W9A O35A 1_555 1_555
W10A O21A 1_555 1_555
W11A O23A 1_555 1_555
W11A O28A 1_555 1_555
W11A O32A 1_555 1_555
W11A O38A 1_555 1_555
W12A O21A 1_555 1_555
W12A O36A 1_555 1_555
W12A O39A 1_555 1_555
W12A O41A 1_555 1_555
Zn2_2 O46_2 1_555 1_555
C15_2 N3_2 1_555 1_555
C18_2 N4_2 1_555 1_555
C19_2 C35_2 1_555 1_555
C19_2 N4_2 1_555 1_555
C24_2 N5_2 1_555 1_555
C27_2 N6_2 1_555 1_555
C28_2 C29_2 1_555 1_555
C28_2 N6_2 1_555 1_555
C31A C32A 1_555 1_555
C32A_2 C32_2 1_555 1_555
C34A N7A_2 1_555 1_555
C34A_2 N7A 1_555 1_555
C34_2 N7_2 1_555 1_555
N7A O49A 1_555 1_555

#END
