
#######################################################################
#
#                 Cambridge Crystallographic Data Centre
#                                CCDC 
#
#######################################################################
#
# If this CIF has been generated from an entry in the Cambridge 
# Structural Database, then it will include bibliographic, chemical, 
# crystal, experimental, refinement or atomic coordinate data resulting 
# from the CCDC's data processing and validation procedures.
#
#######################################################################

data_GAXDAM
_symmetry_cell_setting           monoclinic
_symmetry_space_group_name_H-M   'C 2/m'
_symmetry_Int_Tables_number      12
_space_group_name_Hall           '-C 2y'
loop_
_symmetry_equiv_pos_site_id
_symmetry_equiv_pos_as_xyz
1 x,y,z
2 -x,y,-z
3 1/2+x,1/2+y,z
4 1/2-x,1/2+y,-z
5 -x,-y,-z
6 x,-y,z
7 1/2-x,1/2-y,-z
8 1/2+x,1/2-y,z
_cell_length_a                   19.232(6)
_cell_length_b                   17.416(5)
_cell_length_c                   11.738(3)
_cell_angle_alpha                90
_cell_angle_beta                 105.990(4)
_cell_angle_gamma                90
_cell_volume                     3779.47
loop_
_atom_site_label
_atom_site_type_symbol
_atom_site_fract_x
_atom_site_fract_y
_atom_site_fract_z
Yb1 Yb 0.95988(11) -0.5000 0.62561(18)
O15 O 0.9392(17) -0.5000 0.431(3)
O16 O 0.8797(15) -0.4019(16) 0.559(2)
O17 O 0.5179(17) -0.0888(18) 0.762(3)
O18 O 0.895(2) -0.5000 0.767(3)
C1 C 0.762(2) -0.368(3) 0.539(4)
H1 H 0.7490 -0.3971 0.4700
C2 C 0.712(2) -0.331(2) 0.572(4)
H2 H 0.6632 -0.3397 0.5319
C3 C 0.7301(18) -0.2810(19) 0.665(3)
C4 C 0.7994(19) -0.276(2) 0.730(3)
H3 H 0.8123 -0.2447 0.7968
C5 C 0.8529(18) -0.320(3) 0.696(3)
H4 H 0.9011 -0.3178 0.7403
C6 C 0.6714(19) -0.236(2) 0.696(3)
C7 C 0.600(2) -0.238(2) 0.633(3)
H5 H 0.5858 -0.2742 0.5729
C8 C 0.550(2) -0.190(2) 0.653(3)
H6 H 0.5019 -0.1917 0.6073
C9 C 0.686(3) -0.186(3) 0.791(5)
H7 H 0.7324 -0.1868 0.8426
C10 C 0.636(3) -0.135(4) 0.817(6)
H8 H 0.6478 -0.1019 0.8809
N1 N 0.8332(15) -0.3657(16) 0.599(2)
N2 N 0.5712(16) -0.1386(17) 0.744(3)
Yb1A Yb 1.04012(11) -0.5000 0.37439(18)
Yb1B Yb 0.45988(11) 0.0000 0.62561(18)
Yb1B_2 Yb 0.45988(11) -1.0000 0.62561(18)
Yb1B_3 Yb 1.45988(11) -1.0000 0.62561(18)
Yb1B_4 Yb 1.45988(11) 0.0000 0.62561(18)
O15A O 1.0608(17) -0.5000 0.569(3)
O16E O 0.8797(15) -0.5981(16) 0.559(2)
O16B O 1.3797(15) -0.9019(16) 0.559(2)
O16G O 1.3797(15) -0.0981(16) 0.559(2)
O16A O 1.1203(15) -0.4019(16) 0.441(2)
O16D O 1.1203(15) -0.5981(16) 0.441(2)
O17E O 0.5179(17) -0.9112(18) 0.762(3)
O17B O 1.0179(17) -0.5888(18) 0.762(3)
O17G O 1.0179(17) -0.4112(18) 0.762(3)
O17C O 0.9821(17) -0.5888(18) 0.238(3)
O17F O 0.9821(17) -0.4112(18) 0.238(3)
O18A O 1.105(2) -0.5000 0.233(3)
C1E C 0.762(2) -0.632(3) 0.539(4)
C1B C 1.262(2) -0.868(3) 0.539(4)
C1G C 1.262(2) -0.132(3) 0.539(4)
H1E H 0.7490 -0.6029 0.4700
H1B H 1.2490 -0.8971 0.4700
H1G H 1.2490 -0.1029 0.4700
C2E C 0.712(2) -0.669(2) 0.572(4)
C2B C 1.212(2) -0.831(2) 0.572(4)
C2G C 1.212(2) -0.169(2) 0.572(4)
H2E H 0.6632 -0.6603 0.5319
H2B H 1.1632 -0.8397 0.5319
H2G H 1.1632 -0.1603 0.5319
C3E C 0.7301(18) -0.7190(19) 0.665(3)
C3B C 1.2301(18) -0.7810(19) 0.665(3)
C3G C 1.2301(18) -0.2190(19) 0.665(3)
C4E C 0.7994(19) -0.724(2) 0.730(3)
C4B C 1.2994(19) -0.776(2) 0.730(3)
C4G C 1.2994(19) -0.224(2) 0.730(3)
H3E H 0.8123 -0.7553 0.7968
H3B H 1.3123 -0.7447 0.7968
H3G H 1.3123 -0.2553 0.7968
C5E C 0.8529(18) -0.680(3) 0.696(3)
C5B C 1.3529(18) -0.820(3) 0.696(3)
C5G C 1.3529(18) -0.180(3) 0.696(3)
H4E H 0.9011 -0.6822 0.7403
H4B H 1.4011 -0.8178 0.7403
H4G H 1.4011 -0.1822 0.7403
C6E C 0.6714(19) -0.764(2) 0.696(3)
C6B C 1.1714(19) -0.736(2) 0.696(3)
C6G C 1.1714(19) -0.264(2) 0.696(3)
C7E C 0.600(2) -0.762(2) 0.633(3)
C7B C 1.100(2) -0.738(2) 0.633(3)
C7G C 1.100(2) -0.262(2) 0.633(3)
H5E H 0.5858 -0.7258 0.5729
H5B H 1.0858 -0.7742 0.5729
H5G H 1.0858 -0.2258 0.5729
C8E C 0.550(2) -0.810(2) 0.653(3)
C8B C 1.050(2) -0.690(2) 0.653(3)
C8G C 1.050(2) -0.310(2) 0.653(3)
H6E H 0.5019 -0.8083 0.6073
H6B H 1.0019 -0.6917 0.6073
H6G H 1.0019 -0.3083 0.6073
C9E C 0.686(3) -0.814(3) 0.791(5)
C9B C 1.186(3) -0.686(3) 0.791(5)
C9G C 1.186(3) -0.314(3) 0.791(5)
H7E H 0.7324 -0.8132 0.8426
H7B H 1.2324 -0.6868 0.8426
H7G H 1.2324 -0.3132 0.8426
C10E C 0.636(3) -0.865(4) 0.817(6)
C10B C 1.136(3) -0.635(4) 0.817(6)
C10G C 1.136(3) -0.365(4) 0.817(6)
H8E H 0.6478 -0.8981 0.8809
H8B H 1.1478 -0.6019 0.8809
H8G H 1.1478 -0.3981 0.8809
N1E N 0.8332(15) -0.6343(16) 0.599(2)
N1B N 1.3332(15) -0.8657(16) 0.599(2)
N1G N 1.3332(15) -0.1343(16) 0.599(2)
N2E N 0.5712(16) -0.8614(17) 0.744(3)
N2B N 1.0712(16) -0.6386(17) 0.744(3)
N2G N 1.0712(16) -0.3614(17) 0.744(3)
O19 O 0.616(3) -0.5000 0.589(7)
O20 O 0.756(2) -0.5000 0.733(3)
W1 W 0.64345(9) -0.60157(11) -0.06265(14)
W2 W 0.67208(12) -0.5000 0.20685(19)
W3 W 0.52840(11) -0.60167(10) 0.26890(13)
W4 W 0.5000 -0.70314(14) 0.0000
P1 P 0.5000 -0.5000 0.0000
O1 O 0.715(2) -0.651(3) -0.086(4)
O2 O 0.685(2) -0.5757(17) 0.100(2)
O3 O 0.595(2) -0.681(3) -0.012(4)
O4 O 0.577(3) -0.607(3) -0.209(5)
O5 O 0.662(3) -0.5000 -0.099(4)
O6 O 0.751(2) -0.5000 0.306(4)
O7 O 0.627(2) -0.576(3) 0.276(4)
O8 O 0.5425(16) -0.6509(19) 0.397(3)
O9 O 0.518(3) -0.5000 0.324(5)
O10 O 0.533(2) -0.683(2) 0.166(4)
O11 O 0.5000 -0.798(3) 0.0000
O12 O 0.579(6) -0.5000 0.017(10)
O13 O 0.546(4) -0.5000 0.136(6)
O14 O 0.529(2) -0.574(2) -0.062(4)
W1E W 0.64345(9) -0.39843(11) -0.06265(14)
W1A W 0.35655(9) -0.60157(11) 0.06265(14)
W1D W 0.35655(9) -0.39843(11) 0.06265(14)
W2A W 0.32792(12) -0.5000 -0.20685(19)
W3E W 0.52840(11) -0.39833(10) 0.26890(13)
W3A W 0.47160(11) -0.60167(10) -0.26890(13)
W3D W 0.47160(11) -0.39833(10) -0.26890(13)
W4D W 0.5000 -0.29686(14) 0.0000
O1E O 0.715(2) -0.349(3) -0.086(4)
O1A O 0.285(2) -0.651(3) 0.086(4)
O1D O 0.285(2) -0.349(3) 0.086(4)
O2E O 0.685(2) -0.4243(17) 0.100(2)
O2A O 0.315(2) -0.5757(17) -0.100(2)
O2D O 0.315(2) -0.4243(17) -0.100(2)
O3A O 0.405(2) -0.681(3) 0.012(4)
O3D O 0.405(2) -0.319(3) 0.012(4)
O3E O 0.595(2) -0.319(3) -0.012(4)
O4A O 0.423(3) -0.607(3) 0.209(5)
O4E O 0.577(3) -0.393(3) -0.209(5)
O4D O 0.423(3) -0.393(3) 0.209(5)
O5A O 0.338(3) -0.5000 0.099(4)
O6A O 0.249(2) -0.5000 -0.306(4)
O7E O 0.627(2) -0.424(3) 0.276(4)
O7A O 0.373(2) -0.576(3) -0.276(4)
O7D O 0.373(2) -0.424(3) -0.276(4)
O8E O 0.5425(16) -0.3491(19) 0.397(3)
O8A O 0.4575(16) -0.6509(19) -0.397(3)
O8D O 0.4575(16) -0.3491(19) -0.397(3)
O9A O 0.482(3) -0.5000 -0.324(5)
O10A O 0.467(2) -0.683(2) -0.166(4)
O10D O 0.467(2) -0.317(2) -0.166(4)
O10E O 0.533(2) -0.317(2) 0.166(4)
O11D O 0.5000 -0.202(3) 0.0000
O12A O 0.421(6) -0.5000 -0.017(10)
O13A O 0.454(4) -0.5000 -0.136(6)
O14A O 0.471(2) -0.574(2) 0.062(4)
O14E O 0.529(2) -0.426(2) -0.062(4)
O14D O 0.471(2) -0.426(2) 0.062(4)
loop_
_geom_bond_atom_site_label_1
_geom_bond_atom_site_label_2
_geom_bond_site_symmetry_1
_geom_bond_site_symmetry_2
W1 O1 1_555 1_555
W2 O2 1_555 1_555
W3 O7 1_555 1_555
W4 O3 1_555 1_555
P1 O12 1_555 1_555
Yb1 O15 1_555 1_555
O2 W1 1_555 1_555
O3 W1 1_555 1_555
O4 W1 1_555 1_555
O5 W1 1_555 1_555
O6 W2 1_555 1_555
O7 W2 1_555 1_555
O8 W3 1_555 1_555
O9 W3 1_555 1_555
O10 W3 1_555 1_555
O11 W4 1_555 1_555
O12 W1 1_555 1_555
O13 W2 1_555 1_555
O14 W1 1_555 1_555
O15 Yb1A 1_555 1_555
O16 Yb1 1_555 1_555
O17 N2 1_555 1_555
O18 Yb1 1_555 1_555
C1 H1 1_555 1_555
C2 C1 1_555 1_555
H2 C2 1_555 1_555
C3 C2 1_555 1_555
C4 C3 1_555 1_555
H3 C4 1_555 1_555
C5 C4 1_555 1_555
H4 C5 1_555 1_555
C6 C3 1_555 1_555
C7 C6 1_555 1_555
H5 C7 1_555 1_555
C8 C7 1_555 1_555
H6 C8 1_555 1_555
C9 C6 1_555 1_555
H7 C9 1_555 1_555
C10 C9 1_555 1_555
H8 C10 1_555 1_555
N1 O16 1_555 1_555
N2 C8 1_555 1_555
W1E O5 1_555 1_555
W1A O1A 1_555 1_555
W1D O1D 1_555 1_555
W2A O2A 1_555 1_555
W3E O9 1_555 1_555
W3A O4 1_555 1_555
W3D O4E 1_555 1_555
W4D O3D 1_555 1_555
Yb1A O15A 1_555 1_555
Yb1B O17 1_555 1_555
Yb1B_2 O17E 1_555 1_555
Yb1B_3 O16B 1_555 1_555
Yb1B_4 O16G 1_555 1_555
O1E W1E 1_555 1_555
O2E W2 1_555 1_555
O2A W1A 1_555 1_555
O2D W1D 1_555 1_555
O3A W4 1_555 1_555
O3D W1D 1_555 1_555
O3E W1E 1_555 1_555
O4A W3 1_555 1_555
O4E W1E 1_555 1_555
O4D W1D 1_555 1_555
O5A W1A 1_555 1_555
O6A W2A 1_555 1_555
O7E W2 1_555 1_555
O7A W2A 1_555 1_555
O7D W2A 1_555 1_555
O8E W3E 1_555 1_555
O8A W3A 1_555 1_555
O8D W3D 1_555 1_555
O9A W3A 1_555 1_555
O10A W4 1_555 1_555
O10D W3D 1_555 1_555
O10E W3E 1_555 1_555
O11D W4D 1_555 1_555
O12A P1 1_555 1_555
O13A P1 1_555 1_555
O14A W3 1_555 1_555
O14E P1 1_555 1_555
O14D P1 1_555 1_555
O15A Yb1 1_555 1_555
O16E Yb1 1_555 1_555
O16B N1B 1_555 1_555
O16G N1G 1_555 1_555
O16A Yb1A 1_555 1_555
O16D Yb1A 1_555 1_555
O17E N2E 1_555 1_555
O17B Yb1 1_555 1_555
O17G Yb1 1_555 1_555
O17C Yb1A 1_555 1_555
O17F Yb1A 1_555 1_555
O18A Yb1A 1_555 1_555
C1E H1E 1_555 1_555
C1B H1B 1_555 1_555
C1G H1G 1_555 1_555
C2E C1E 1_555 1_555
C2B C1B 1_555 1_555
C2G C1G 1_555 1_555
H2E C2E 1_555 1_555
H2B C2B 1_555 1_555
H2G C2G 1_555 1_555
C3E C2E 1_555 1_555
C3B C2B 1_555 1_555
C3G C2G 1_555 1_555
C4E C3E 1_555 1_555
C4B C3B 1_555 1_555
C4G C3G 1_555 1_555
H3E C4E 1_555 1_555
H3B C4B 1_555 1_555
H3G C4G 1_555 1_555
C5E C4E 1_555 1_555
C5B C4B 1_555 1_555
C5G C4G 1_555 1_555
H4E C5E 1_555 1_555
H4B C5B 1_555 1_555
H4G C5G 1_555 1_555
C6E C3E 1_555 1_555
C6B C3B 1_555 1_555
C6G C3G 1_555 1_555
C7E C6E 1_555 1_555
C7B C6B 1_555 1_555
C7G C6G 1_555 1_555
H5E C7E 1_555 1_555
H5B C7B 1_555 1_555
H5G C7G 1_555 1_555
C8E C7E 1_555 1_555
C8B C7B 1_555 1_555
C8G C7G 1_555 1_555
H6E C8E 1_555 1_555
H6B C8B 1_555 1_555
H6G C8G 1_555 1_555
C9E C6E 1_555 1_555
C9B C6B 1_555 1_555
C9G C6G 1_555 1_555
H7E C9E 1_555 1_555
H7B C9B 1_555 1_555
H7G C9G 1_555 1_555
C10E C9E 1_555 1_555
C10B C9B 1_555 1_555
C10G C9G 1_555 1_555
H8E C10E 1_555 1_555
H8B C10B 1_555 1_555
H8G C10G 1_555 1_555
N1E O16E 1_555 1_555
N1B C1B 1_555 1_555
N1G C1G 1_555 1_555
N2E C8E 1_555 1_555
N2B O17B 1_555 1_555
N2G O17G 1_555 1_555
W2 O12 1_555 1_555
W3 O13 1_555 1_555
W4 O10 1_555 1_555
W4 O14 1_555 1_555
W4 O14A 1_555 1_555
P1 O13 1_555 1_555
P1 O14 1_555 1_555
P1 O14A 1_555 1_555
O12 W1E 1_555 1_555
O13 W3E 1_555 1_555
O14 W3A 1_555 1_555
C1 N1 1_555 1_555
C5 N1 1_555 1_555
C10 N2 1_555 1_555
W1E O2E 1_555 1_555
W1E O14E 1_555 1_555
W1A O3A 1_555 1_555
W1A O4A 1_555 1_555
W1A O12A 1_555 1_555
W1A O14A 1_555 1_555
W1D O5A 1_555 1_555
W1D O12A 1_555 1_555
W1D O14D 1_555 1_555
W2A O2D 1_555 1_555
W2A O12A 1_555 1_555
W2A O13A 1_555 1_555
W3E O4D 1_555 1_555
W3E O7E 1_555 1_555
W3E O14D 1_555 1_555
W3A O7A 1_555 1_555
W3A O10A 1_555 1_555
W3A O13A 1_555 1_555
W3D O7D 1_555 1_555
W3D O9A 1_555 1_555
W3D O13A 1_555 1_555
W3D O14E 1_555 1_555
W4D O3E 1_555 1_555
W4D O10D 1_555 1_555
W4D O10E 1_555 1_555
W4D O14E 1_555 1_555
W4D O14D 1_555 1_555
C1E N1E 1_555 1_555
C5E N1E 1_555 1_555
C5B N1B 1_555 1_555
C5G N1G 1_555 1_555
C8B N2B 1_555 1_555
C8G N2G 1_555 1_555
C10E N2E 1_555 1_555
C10B N2B 1_555 1_555
C10G N2G 1_555 1_555

#END
