
#######################################################################
#
#                 Cambridge Crystallographic Data Centre
#                                CCDC 
#
#######################################################################
#
# If this CIF has been generated from an entry in the Cambridge 
# Structural Database, then it will include bibliographic, chemical, 
# crystal, experimental, refinement or atomic coordinate data resulting 
# from the CCDC's data processing and validation procedures.
#
#######################################################################

data_GAXGET01
_symmetry_cell_setting           monoclinic
_symmetry_space_group_name_H-M   'C 2/c'
_symmetry_Int_Tables_number      15
_space_group_name_Hall           '-C 2yn'
loop_
_symmetry_equiv_pos_site_id
_symmetry_equiv_pos_as_xyz
1 x,y,z
2 -x,y,1/2-z
3 1/2+x,1/2+y,z
4 1/2-x,1/2+y,1/2-z
5 -x,-y,-z
6 x,-y,1/2+z
7 1/2-x,1/2-y,-z
8 1/2+x,1/2-y,1/2+z
_cell_length_a                   15.097(5)
_cell_length_b                   16.499(4)
_cell_length_c                   25.737(5)
_cell_angle_alpha                90
_cell_angle_beta                 90.92(3)
_cell_angle_gamma                90
_cell_volume                     6409.88
loop_
_atom_site_label
_atom_site_type_symbol
_atom_site_fract_x
_atom_site_fract_y
_atom_site_fract_z
Co1 Co 0.52980(5) 0.17785(4) -0.00556(3)
Co2 Co 0.7500 0.2500 0.0000
O1 O 0.6455(2) -0.2140(2) 0.44587(12)
O2 O 0.5596(3) -0.1111(2) 0.42634(13)
O3 O 0.7245(2) 0.1550(2) 0.05138(13)
O4 O 0.5888(3) 0.0988(2) 0.04356(14)
O5 O 0.6684(2) 0.3278(2) 0.04295(13)
O6 O 0.5360(3) 0.2676(3) 0.04589(15)
O7 O 0.5000 0.4695(3) 0.2500
O8 O 0.7596(3) -0.1345(2) 0.21280(14)
N1 N 0.4018(3) 0.1276(3) 0.00165(16)
N2 N 0.4503(3) 0.2547(3) -0.05448(18)
C1 C 0.4778(5) 0.3158(4) -0.0825(3)
H1 H 0.5368 0.3317 -0.0796
C2 C 0.4220(6) 0.3573(5) -0.1162(4)
H2 H 0.4434 0.4002 -0.1358
C3 C 0.3351(6) 0.3348(5) -0.1206(3)
H3 H 0.2975 0.3624 -0.1434
C4 C 0.3024(5) 0.2713(4) -0.0914(3)
C5 C 0.2140(5) 0.2442(5) -0.0922(3)
H4 H 0.1724 0.2702 -0.1134
C6 C 0.1889(4) 0.1814(5) -0.0629(3)
H5 H 0.1298 0.1655 -0.0638
C7 C 0.2500(4) 0.1384(4) -0.0304(2)
C8 C 0.2283(4) 0.0701(4) -0.0017(3)
H6 H 0.1705 0.0506 -0.0025
C9 C 0.2924(4) 0.0310(4) 0.0279(3)
H7 H 0.2784 -0.0150 0.0470
C10 C 0.3788(4) 0.0621(4) 0.0286(2)
H8 H 0.4219 0.0360 0.0487
C11 C 0.3379(3) 0.1648(3) -0.0281(2)
C12 C 0.3650(4) 0.2313(3) -0.0585(2)
C13 C 0.6212(4) -0.1581(3) 0.41403(19)
C14 C 0.6603(3) -0.1507(3) 0.36128(19)
C15 C 0.7153(4) -0.2107(3) 0.34165(19)
H9 H 0.7311 -0.2551 0.3620
C16 C 0.7461(4) -0.2035(3) 0.2915(2)
H10 H 0.7821 -0.2437 0.2779
C17 C 0.6386(4) -0.0850(3) 0.3309(2)
H11 H 0.6026 -0.0446 0.3443
C18 C 0.6690(4) -0.0778(4) 0.2809(2)
H12 H 0.6528 -0.0335 0.2605
C19 C 0.5957(4) 0.3136(3) 0.06301(19)
C20 C 0.5748(3) 0.3540(3) 0.11426(18)
C21 C 0.5071(4) 0.3223(4) 0.14364(19)
H13 H 0.4778 0.2759 0.1322
C22 C 0.4821(4) 0.3584(3) 0.1898(2)
H14 H 0.4359 0.3372 0.2090
C23 C 0.5272(4) 0.4264(3) 0.20659(18)
C24 C 0.5963(4) 0.4570(3) 0.17905(19)
H15 H 0.6277 0.5017 0.1915
C25 C 0.6193(4) 0.4210(3) 0.13231(19)
H16 H 0.6653 0.4426 0.1131
C26 C 0.6663(4) 0.1045(3) 0.06335(19)
C27 C 0.6896(4) 0.0428(3) 0.10512(18)
C28 C 0.7701(4) 0.0453(4) 0.1303(2)
H17 H 0.8102 0.0862 0.1225
C29 C 0.7921(4) -0.0129(4) 0.1672(2)
H18 H 0.8468 -0.0111 0.1843
C30 C 0.7328(4) -0.0729(4) 0.1783(2)
C31 C 0.6511(4) -0.0752(3) 0.1540(2)
H19 H 0.6107 -0.1156 0.1621
C32 C 0.6294(4) -0.0168(3) 0.11734(19)
H20 H 0.5741 -0.0177 0.1009
C33 C 0.7235(4) -0.1369(3) 0.2616(2)
O5A O 0.3316(2) 0.3278(2) 0.45705(13)
O6A O 0.4640(3) 0.2676(3) 0.45411(15)
C19A C 0.4043(4) 0.3136(3) 0.43699(19)
C20A C 0.4252(3) 0.3540(3) 0.38574(18)
C21A C 0.4929(4) 0.3223(4) 0.35636(19)
H13A H 0.5222 0.2759 0.3678
C22A C 0.5179(4) 0.3584(3) 0.3102(2)
H14A H 0.5641 0.3372 0.2910
C23A C 0.4728(4) 0.4264(3) 0.29341(18)
C24A C 0.4037(4) 0.4570(3) 0.32095(19)
H15A H 0.3723 0.5017 0.3085
C25A C 0.3807(4) 0.4210(3) 0.36769(19)
H16A H 0.3347 0.4426 0.3869
Co1A Co 0.47020(5) 0.17785(4) 0.50556(3)
O1A O 0.3545(2) -0.2140(2) 0.05413(12)
O2A O 0.4404(3) -0.1111(2) 0.07366(13)
O3A O 0.2755(2) 0.1550(2) 0.44862(13)
O4A O 0.4112(3) 0.0988(2) 0.45644(14)
O8A O 0.2404(3) -0.1345(2) 0.28720(14)
N1A N 0.5982(3) 0.1276(3) 0.49835(16)
N2A N 0.5497(3) 0.2547(3) 0.55448(18)
C1A C 0.5222(5) 0.3158(4) 0.5825(3)
H1A H 0.4632 0.3317 0.5796
C2A C 0.5780(6) 0.3573(5) 0.6162(4)
H2A H 0.5566 0.4002 0.6358
C3A C 0.6649(6) 0.3348(5) 0.6206(3)
H3A H 0.7025 0.3624 0.6434
C4A C 0.6976(5) 0.2713(4) 0.5914(3)
C5A C 0.7860(5) 0.2442(5) 0.5922(3)
H4A H 0.8276 0.2702 0.6134
C6A C 0.8111(4) 0.1814(5) 0.5629(3)
H5A H 0.8702 0.1655 0.5638
C7A C 0.7500(4) 0.1384(4) 0.5304(2)
C8A C 0.7717(4) 0.0701(4) 0.5017(3)
H6A H 0.8295 0.0506 0.5025
C9A C 0.7076(4) 0.0310(4) 0.4721(3)
H7A H 0.7216 -0.0150 0.4530
C10A C 0.6212(4) 0.0621(4) 0.4714(2)
H8A H 0.5781 0.0360 0.4513
C11A C 0.6621(3) 0.1648(3) 0.5281(2)
C12A C 0.6350(4) 0.2313(3) 0.5585(2)
C13A C 0.3788(4) -0.1581(3) 0.08597(19)
C14A C 0.3397(3) -0.1507(3) 0.13872(19)
C15A C 0.2847(4) -0.2107(3) 0.15835(19)
H9A H 0.2689 -0.2551 0.1380
C16A C 0.2539(4) -0.2035(3) 0.2085(2)
H10A H 0.2179 -0.2437 0.2221
C17A C 0.3614(4) -0.0850(3) 0.1691(2)
H11A H 0.3974 -0.0446 0.1557
C18A C 0.3310(4) -0.0778(4) 0.2191(2)
H12A H 0.3472 -0.0335 0.2395
C26A C 0.3337(4) 0.1045(3) 0.43665(19)
C27A C 0.3104(4) 0.0428(3) 0.39488(18)
C28A C 0.2299(4) 0.0453(4) 0.3697(2)
H17A H 0.1898 0.0862 0.3775
C29A C 0.2079(4) -0.0129(4) 0.3328(2)
H18A H 0.1532 -0.0111 0.3157
C30A C 0.2672(4) -0.0729(4) 0.3217(2)
C31A C 0.3489(4) -0.0752(3) 0.3460(2)
H19A H 0.3893 -0.1156 0.3379
C32A C 0.3706(4) -0.0168(3) 0.38266(19)
H20A H 0.4259 -0.0177 0.3991
C33A C 0.2765(4) -0.1369(3) 0.2384(2)
Co1D Co 0.47020(5) -0.17785(4) 0.00556(3)
Co1E Co 0.52980(5) -0.17785(4) 0.49444(3)
Co2A Co 0.2500 0.2500 0.5000
Co2B Co 0.2500 -0.2500 0.0000
Co2C Co 0.7500 -0.2500 0.5000
O1C O 0.8545(2) 0.2860(2) 0.05413(12)
O1D O 0.3545(2) 0.2140(2) 0.55413(12)
O1E O 0.6455(2) 0.2140(2) -0.05413(12)
O2D O 0.4404(3) 0.1111(2) 0.57366(13)
O2E O 0.5596(3) 0.1111(2) -0.07366(13)
O3F O 0.7755(2) 0.3450(2) -0.05138(13)
O5F O 0.8316(2) 0.1722(2) -0.04295(13)
loop_
_geom_bond_atom_site_label_1
_geom_bond_atom_site_label_2
_geom_bond_site_symmetry_1
_geom_bond_site_symmetry_2
Co1 O4 1_555 1_555
Co2 O3 1_555 1_555
O1 C13 1_555 1_555
O2 C13 1_555 1_555
O3 C26 1_555 1_555
O4 C26 1_555 1_555
O5 Co2 1_555 1_555
O6 Co1 1_555 1_555
O7 C23 1_555 1_555
O8 C30 1_555 1_555
N1 Co1 1_555 1_555
N2 Co1 1_555 1_555
C1 N2 1_555 1_555
H1 C1 1_555 1_555
C2 C1 1_555 1_555
H2 C2 1_555 1_555
C3 C2 1_555 1_555
H3 C3 1_555 1_555
C4 C3 1_555 1_555
C5 C4 1_555 1_555
H4 C5 1_555 1_555
C6 C5 1_555 1_555
H5 C6 1_555 1_555
C7 C6 1_555 1_555
C8 C7 1_555 1_555
H6 C8 1_555 1_555
C9 C8 1_555 1_555
H7 C9 1_555 1_555
C10 N1 1_555 1_555
H8 C10 1_555 1_555
C11 N1 1_555 1_555
C12 N2 1_555 1_555
C13 C14 1_555 1_555
C14 C15 1_555 1_555
C15 H9 1_555 1_555
C16 C15 1_555 1_555
H10 C16 1_555 1_555
C17 C14 1_555 1_555
H11 C17 1_555 1_555
C18 C17 1_555 1_555
H12 C18 1_555 1_555
C19 O5 1_555 1_555
C20 C19 1_555 1_555
C21 C20 1_555 1_555
H13 C21 1_555 1_555
C22 C21 1_555 1_555
H14 C22 1_555 1_555
C23 C22 1_555 1_555
C24 C23 1_555 1_555
H15 C24 1_555 1_555
C25 C20 1_555 1_555
H16 C25 1_555 1_555
C26 C27 1_555 1_555
C27 C28 1_555 1_555
C28 H17 1_555 1_555
C29 C28 1_555 1_555
H18 C29 1_555 1_555
C30 C29 1_555 1_555
C31 C30 1_555 1_555
H19 C31 1_555 1_555
C32 C27 1_555 1_555
H20 C32 1_555 1_555
C33 O8 1_555 1_555
O5A C19A 1_555 1_555
O6A C19A 1_555 1_555
C19A C20A 1_555 1_555
C20A C21A 1_555 1_555
C21A H13A 1_555 1_555
C22A C21A 1_555 1_555
H14A C22A 1_555 1_555
C23A O7 1_555 1_555
C24A C23A 1_555 1_555
H15A C24A 1_555 1_555
C25A C20A 1_555 1_555
H16A C25A 1_555 1_555
Co1A O6A 1_555 1_555
O1A C13A 1_555 1_555
O2A C13A 1_555 1_555
O3A C26A 1_555 1_555
O4A Co1A 1_555 1_555
O8A C30A 1_555 1_555
N1A Co1A 1_555 1_555
N2A Co1A 1_555 1_555
C1A N2A 1_555 1_555
H1A C1A 1_555 1_555
C2A C1A 1_555 1_555
H2A C2A 1_555 1_555
C3A C2A 1_555 1_555
H3A C3A 1_555 1_555
C4A C3A 1_555 1_555
C5A C4A 1_555 1_555
H4A C5A 1_555 1_555
C6A C5A 1_555 1_555
H5A C6A 1_555 1_555
C7A C6A 1_555 1_555
C8A C7A 1_555 1_555
H6A C8A 1_555 1_555
C9A C8A 1_555 1_555
H7A C9A 1_555 1_555
C10A N1A 1_555 1_555
H8A C10A 1_555 1_555
C11A N1A 1_555 1_555
C12A N2A 1_555 1_555
C13A C14A 1_555 1_555
C14A C15A 1_555 1_555
C15A H9A 1_555 1_555
C16A C15A 1_555 1_555
H10A C16A 1_555 1_555
C17A C14A 1_555 1_555
H11A C17A 1_555 1_555
C18A C17A 1_555 1_555
H12A C18A 1_555 1_555
C26A O4A 1_555 1_555
C27A C26A 1_555 1_555
C28A C27A 1_555 1_555
H17A C28A 1_555 1_555
C29A C28A 1_555 1_555
H18A C29A 1_555 1_555
C30A C29A 1_555 1_555
C31A C30A 1_555 1_555
H19A C31A 1_555 1_555
C32A C27A 1_555 1_555
H20A C32A 1_555 1_555
C33A O8A 1_555 1_555
Co1D O1A 1_555 1_555
Co1E O1 1_555 1_555
Co2A O5A 1_555 1_555
Co2B O1A 1_555 1_555
Co2C O1 1_555 1_555
O1C Co2 1_555 1_555
O1D Co1A 1_555 1_555
O1E Co1 1_555 1_555
O2D Co1A 1_555 1_555
O2E Co1 1_555 1_555
O3F Co2 1_555 1_555
O5F Co2 1_555 1_555
Co2 O1E 1_555 1_555
O2 Co1E 1_555 1_555
O6 C19 1_555 1_555
C4 C12 1_555 1_555
C7 C11 1_555 1_555
C9 C10 1_555 1_555
C11 C12 1_555 1_555
C16 C33 1_555 1_555
C18 C33 1_555 1_555
C24 C25 1_555 1_555
C31 C32 1_555 1_555
C22A C23A 1_555 1_555
C24A C25A 1_555 1_555
O2A Co1D 1_555 1_555
O3A Co2A 1_555 1_555
C4A C12A 1_555 1_555
C7A C11A 1_555 1_555
C9A C10A 1_555 1_555
C11A C12A 1_555 1_555
C16A C33A 1_555 1_555
C18A C33A 1_555 1_555
C31A C32A 1_555 1_555
Co2A O1D 1_555 1_555

#END
