
#######################################################################
#
#                 Cambridge Crystallographic Data Centre
#                                CCDC 
#
#######################################################################
#
# If this CIF has been generated from an entry in the Cambridge 
# Structural Database, then it will include bibliographic, chemical, 
# crystal, experimental, refinement or atomic coordinate data resulting 
# from the CCDC's data processing and validation procedures.
#
#######################################################################

data_GAXGUJ
_symmetry_cell_setting           monoclinic
_symmetry_space_group_name_H-M   'C 2/c'
_symmetry_Int_Tables_number      15
_space_group_name_Hall           '-C 2yn'
loop_
_symmetry_equiv_pos_site_id
_symmetry_equiv_pos_as_xyz
1 x,y,z
2 -x,y,1/2-z
3 1/2+x,1/2+y,z
4 1/2-x,1/2+y,1/2-z
5 -x,-y,-z
6 x,-y,1/2+z
7 1/2-x,1/2-y,-z
8 1/2+x,1/2-y,1/2+z
_cell_length_a                   15.163(5)
_cell_length_b                   16.373(4)
_cell_length_c                   23.383(5)
_cell_angle_alpha                90
_cell_angle_beta                 97.486(18)
_cell_angle_gamma                90
_cell_volume                     5755.67
loop_
_atom_site_label
_atom_site_type_symbol
_atom_site_fract_x
_atom_site_fract_y
_atom_site_fract_z
Ni1 Ni 0.30999(5) 0.05113(5) 0.50287(3)
Ni2 Ni 0.2500 0.2500 0.5000
O1 O 0.4248(3) 0.1082(3) 0.5254(2)
O2 O 0.2707(3) 0.0790(3) 0.5790(2)
O3 O 0.3729(3) 0.2313(3) 0.54575(19)
O4 O 0.1834(3) 0.1867(3) 0.5566(2)
O5 O 0.0000 0.0139(6) 0.7500
N1 N 0.1969(4) -0.0194(4) 0.4847(3)
N2 N 0.3545(4) -0.0580(3) 0.5376(2)
C1 C 0.4311(4) 0.1768(4) 0.5499(3)
C2 C 0.5164(4) 0.1939(4) 0.5867(3)
C3 C 0.5853(5) 0.1385(5) 0.5902(3)
H1 H 0.5788 0.0911 0.5681
C4 C 0.6639(5) 0.1523(5) 0.6262(3)
H2 H 0.7099 0.1143 0.6282
C5 C 0.6736(5) 0.2219(5) 0.6585(3)
C6 C 0.6059(5) 0.2777(5) 0.6561(3)
H3 H 0.6124 0.3245 0.6788
C7 C 0.5276(5) 0.2641(4) 0.6195(3)
H4 H 0.4823 0.3027 0.6171
C8 C 0.2088(4) 0.1259(4) 0.5863(3)
C9 C 0.1578(5) 0.1040(4) 0.6356(3)
C10 C 0.1776(6) 0.0321(5) 0.6655(4)
H5 H 0.2260 0.0008 0.6582
C11 C 0.1260(7) 0.0072(6) 0.7058(4)
H6 H 0.1401 -0.0407 0.7265
C12 C 0.0547(7) 0.0515(5) 0.7159(4)
C13 C 0.0357(6) 0.1247(5) 0.6890(4)
H7 H -0.0122 0.1560 0.6973
C14 C 0.0888(5) 0.1512(5) 0.6493(3)
H8 H 0.0778 0.2017 0.6316
C15 C 0.1209(5) 0.0045(6) 0.4552(4)
H9 H 0.1185 0.0552 0.4372
C16 C 0.0450(6) -0.0428(6) 0.4500(4)
H10 H -0.0075 -0.0255 0.4284
C17 C 0.0502(6) -0.1168(6) 0.4783(4)
H11 H 0.0001 -0.1499 0.4767
C18 C 0.1277(5) -0.1418(5) 0.5085(4)
H12 H 0.1311 -0.1916 0.5278
C19 C 0.2019(5) -0.0921(4) 0.5104(3)
C20 C 0.2892(5) -0.1142(4) 0.5397(3)
C21 C 0.3083(6) -0.1878(5) 0.5676(4)
H13 H 0.2636 -0.2264 0.5689
C22 C 0.3932(6) -0.2039(5) 0.5934(4)
H14 H 0.4062 -0.2529 0.6129
C23 C 0.4586(6) -0.1470(5) 0.5899(4)
H15 H 0.5168 -0.1573 0.6062
C24 C 0.4369(5) -0.0746(5) 0.5621(3)
H16 H 0.4813 -0.0358 0.5603
O6 O 0.7557(3) 0.2364(4) 0.6901(2)
C25 C 0.7580(5) 0.2747(5) 0.7429(3)
C26 C 0.8176(5) 0.3381(5) 0.7539(3)
H17 H 0.8504 0.3562 0.7254
C27 C 0.8280(5) 0.3740(5) 0.8071(3)
H18 H 0.8687 0.4162 0.8150
C28 C 0.7783(5) 0.3480(4) 0.8491(3)
C29 C 0.7170(5) 0.2857(5) 0.8368(3)
H19 H 0.6829 0.2679 0.8647
C30 C 0.7070(5) 0.2501(5) 0.7829(3)
H20 H 0.6650 0.2091 0.7740
C31 C 0.7918(4) 0.3864(4) 0.9071(3)
O7 O 0.7571(3) 0.3554(3) 0.94904(18)
O8 O 0.8356(3) 0.4511(3) 0.91548(19)
Ni1F Ni 0.19001(5) 0.44887(5) 0.49713(3)
Ni1G Ni 0.80999(5) 0.44887(5) 1.00287(3)
Ni1A Ni -0.30999(5) 0.05113(5) 0.99713(3)
Ni1A_2 Ni -0.30999(5) 0.05113(5) -0.00287(3)
Ni2A Ni 0.7500 0.2500 1.0000
Ni2A_2 Ni -0.2500 0.2500 1.0000
Ni2A_3 Ni -0.2500 0.2500 0.0000
O1F O 0.0752(3) 0.3918(3) 0.4746(2)
O2A O -0.2707(3) 0.0790(3) 0.9210(2)
O2F O 0.2293(3) 0.4210(3) 0.4210(2)
O3F O 0.1271(3) 0.2687(3) 0.45425(19)
O4A O -0.1834(3) 0.1867(3) 0.9434(2)
O4F O 0.3166(3) 0.3133(3) 0.4434(2)
N1F N 0.3031(4) 0.5194(4) 0.5153(3)
N2F N 0.1455(4) 0.5580(3) 0.4624(2)
C1F C 0.0689(4) 0.3232(4) 0.4501(3)
C2F C -0.0164(4) 0.3061(4) 0.4133(3)
C3F C -0.0853(5) 0.3615(5) 0.4098(3)
H1F H -0.0788 0.4089 0.4319
C4F C -0.1639(5) 0.3477(5) 0.3738(3)
H2F H -0.2099 0.3857 0.3718
C5F C -0.1736(5) 0.2781(5) 0.3415(3)
C6F C -0.1059(5) 0.2223(5) 0.3439(3)
H3F H -0.1124 0.1755 0.3212
C7F C -0.0276(5) 0.2359(4) 0.3805(3)
H4F H 0.0177 0.1973 0.3829
C8A C -0.2088(4) 0.1259(4) 0.9137(3)
C9A C -0.1578(5) 0.1040(4) 0.8644(3)
C10A C -0.1776(6) 0.0321(5) 0.8345(4)
H5A H -0.2260 0.0008 0.8418
C11A C -0.1260(7) 0.0072(6) 0.7942(4)
H6A H -0.1401 -0.0407 0.7735
C12A C -0.0547(7) 0.0515(5) 0.7841(4)
C13A C -0.0357(6) 0.1247(5) 0.8110(4)
H7A H 0.0122 0.1560 0.8027
C14A C -0.0888(5) 0.1512(5) 0.8507(3)
H8A H -0.0778 0.2017 0.8684
C15F C 0.3791(5) 0.4955(6) 0.5448(4)
H9F H 0.3815 0.4448 0.5628
C16F C 0.4550(6) 0.5428(6) 0.5500(4)
H10F H 0.5075 0.5255 0.5716
C17F C 0.4498(6) 0.6168(6) 0.5217(4)
H11F H 0.4999 0.6499 0.5233
C18F C 0.3723(5) 0.6418(5) 0.4915(4)
H12F H 0.3689 0.6916 0.4722
C19F C 0.2981(5) 0.5921(4) 0.4896(3)
C20F C 0.2108(5) 0.6142(4) 0.4603(3)
C21F C 0.1917(6) 0.6878(5) 0.4324(4)
H13F H 0.2364 0.7264 0.4311
C22F C 0.1068(6) 0.7039(5) 0.4066(4)
H14F H 0.0938 0.7529 0.3871
C23F C 0.0414(6) 0.6470(5) 0.4101(4)
H15F H -0.0168 0.6573 0.3938
C24F C 0.0631(5) 0.5746(5) 0.4379(3)
H16F H 0.0187 0.5358 0.4397
O6F O -0.2557(3) 0.2636(4) 0.3099(2)
C25F C -0.2580(5) 0.2253(5) 0.2571(3)
C26F C -0.3176(5) 0.1619(5) 0.2461(3)
H17F H -0.3504 0.1438 0.2746
C27F C -0.3280(5) 0.1260(5) 0.1929(3)
H18F H -0.3687 0.0838 0.1850
C28F C -0.2783(5) 0.1520(4) 0.1509(3)
C29F C -0.2170(5) 0.2143(5) 0.1632(3)
H19F H -0.1829 0.2321 0.1353
C30F C -0.2070(5) 0.2499(5) 0.2171(3)
H20F H -0.1650 0.2909 0.2260
C31F C -0.2918(4) 0.1136(4) 0.0929(3)
O7F O -0.2571(3) 0.1446(3) 0.05096(18)
O7G O 0.2571(3) 0.1446(3) 0.44904(18)
O7A O 0.2429(3) 0.3554(3) 0.55096(18)
O8F O -0.3356(3) 0.0489(3) 0.08452(19)
O8G O 0.3356(3) 0.0489(3) 0.41548(19)
O8A O 0.1644(3) 0.4511(3) 0.58452(19)
O9 O 0.5000 0.0523(6) 0.7500
loop_
_geom_bond_atom_site_label_1
_geom_bond_atom_site_label_2
_geom_bond_site_symmetry_1
_geom_bond_site_symmetry_2
Ni1 O1 1_555 1_555
Ni2 O3 1_555 1_555
O1 C1 1_555 1_555
O2 Ni1 1_555 1_555
O3 C1 1_555 1_555
O4 Ni2 1_555 1_555
O5 C12 1_555 1_555
N1 Ni1 1_555 1_555
N2 Ni1 1_555 1_555
C1 C2 1_555 1_555
C2 C3 1_555 1_555
C3 H1 1_555 1_555
C4 C3 1_555 1_555
H2 C4 1_555 1_555
C5 C4 1_555 1_555
C6 C5 1_555 1_555
H3 C6 1_555 1_555
C7 C2 1_555 1_555
H4 C7 1_555 1_555
C8 O2 1_555 1_555
C9 C8 1_555 1_555
C10 C9 1_555 1_555
H5 C10 1_555 1_555
C11 C10 1_555 1_555
H6 C11 1_555 1_555
C12 C11 1_555 1_555
C13 C12 1_555 1_555
H7 C13 1_555 1_555
C14 C9 1_555 1_555
H8 C14 1_555 1_555
C15 N1 1_555 1_555
H9 C15 1_555 1_555
C16 C15 1_555 1_555
H10 C16 1_555 1_555
C17 C16 1_555 1_555
H11 C17 1_555 1_555
C18 C17 1_555 1_555
H12 C18 1_555 1_555
C19 N1 1_555 1_555
C20 N2 1_555 1_555
C21 C20 1_555 1_555
H13 C21 1_555 1_555
C22 C21 1_555 1_555
H14 C22 1_555 1_555
C23 C22 1_555 1_555
H15 C23 1_555 1_555
C24 N2 1_555 1_555
H16 C24 1_555 1_555
O6 C5 1_555 1_555
C25 O6 1_555 1_555
C26 C25 1_555 1_555
H17 C26 1_555 1_555
C27 C26 1_555 1_555
H18 C27 1_555 1_555
C28 C27 1_555 1_555
C29 C28 1_555 1_555
H19 C29 1_555 1_555
C30 C25 1_555 1_555
H20 C30 1_555 1_555
C31 C28 1_555 1_555
O7 C31 1_555 1_555
O8 C31 1_555 1_555
Ni1F O1F 1_555 1_555
Ni1G O7 1_555 1_555
Ni1A O2A 1_555 1_555
Ni1A_2 O7F 1_555 1_555
Ni2A O7 1_555 1_555
Ni2A_2 O4A 1_555 1_555
Ni2A_3 O7F 1_555 1_555
O1F C1F 1_555 1_555
O2A C8A 1_555 1_555
O2F Ni1F 1_555 1_555
O3F Ni2 1_555 1_555
O4A C8A 1_555 1_555
O4F Ni2 1_555 1_555
N1F Ni1F 1_555 1_555
N2F Ni1F 1_555 1_555
C1F O3F 1_555 1_555
C2F C1F 1_555 1_555
C3F C2F 1_555 1_555
H1F C3F 1_555 1_555
C4F C3F 1_555 1_555
H2F C4F 1_555 1_555
C5F C4F 1_555 1_555
C6F C5F 1_555 1_555
H3F C6F 1_555 1_555
C7F C2F 1_555 1_555
H4F C7F 1_555 1_555
C8A C9A 1_555 1_555
C9A C10A 1_555 1_555
C10A H5A 1_555 1_555
C11A C10A 1_555 1_555
H6A C11A 1_555 1_555
C12A O5 1_555 1_555
C13A C12A 1_555 1_555
H7A C13A 1_555 1_555
C14A C9A 1_555 1_555
H8A C14A 1_555 1_555
C15F N1F 1_555 1_555
H9F C15F 1_555 1_555
C16F C15F 1_555 1_555
H10F C16F 1_555 1_555
C17F C16F 1_555 1_555
H11F C17F 1_555 1_555
C18F C17F 1_555 1_555
H12F C18F 1_555 1_555
C19F N1F 1_555 1_555
C20F N2F 1_555 1_555
C21F C20F 1_555 1_555
H13F C21F 1_555 1_555
C22F C21F 1_555 1_555
H14F C22F 1_555 1_555
C23F C22F 1_555 1_555
H15F C23F 1_555 1_555
C24F N2F 1_555 1_555
H16F C24F 1_555 1_555
O6F C5F 1_555 1_555
C25F O6F 1_555 1_555
C26F C25F 1_555 1_555
H17F C26F 1_555 1_555
C27F C26F 1_555 1_555
H18F C27F 1_555 1_555
C28F C27F 1_555 1_555
C29F C28F 1_555 1_555
H19F C29F 1_555 1_555
C30F C25F 1_555 1_555
H20F C30F 1_555 1_555
C31F C28F 1_555 1_555
O7F C31F 1_555 1_555
O7G Ni1 1_555 1_555
O7A Ni2 1_555 1_555
O8F Ni1A_2 1_555 1_555
O8G Ni1 1_555 1_555
O8A Ni1F 1_555 1_555
Ni2 O7G 1_555 1_555
O4 C8 1_555 1_555
C6 C7 1_555 1_555
C13 C14 1_555 1_555
C18 C19 1_555 1_555
C19 C20 1_555 1_555
C23 C24 1_555 1_555
C29 C30 1_555 1_555
O8 Ni1G 1_555 1_555
Ni1F O7A 1_555 1_555
C6F C7F 1_555 1_555
C11A C12A 1_555 1_555
C13A C14A 1_555 1_555
C18F C19F 1_555 1_555
C19F C20F 1_555 1_555
C23F C24F 1_555 1_555
C29F C30F 1_555 1_555
C31F O8F 1_555 1_555

#END
