
#######################################################################
#
#                 Cambridge Crystallographic Data Centre
#                                CCDC 
#
#######################################################################
#
# If this CIF has been generated from an entry in the Cambridge 
# Structural Database, then it will include bibliographic, chemical, 
# crystal, experimental, refinement or atomic coordinate data resulting 
# from the CCDC's data processing and validation procedures.
#
#######################################################################

data_GAXGAP
_symmetry_cell_setting           monoclinic
_symmetry_space_group_name_H-M   'C 2/c'
_symmetry_Int_Tables_number      15
_space_group_name_Hall           '-C 2yn'
loop_
_symmetry_equiv_pos_site_id
_symmetry_equiv_pos_as_xyz
1 x,y,z
2 -x,y,1/2-z
3 1/2+x,1/2+y,z
4 1/2-x,1/2+y,1/2-z
5 -x,-y,-z
6 x,-y,1/2+z
7 1/2-x,1/2-y,-z
8 1/2+x,1/2-y,1/2+z
_cell_length_a                   15.213(3)
_cell_length_b                   16.590(2)
_cell_length_c                   23.677(3)
_cell_angle_alpha                90
_cell_angle_beta                 97.497(16)
_cell_angle_gamma                90
_cell_volume                     5924.61
loop_
_atom_site_label
_atom_site_type_symbol
_atom_site_fract_x
_atom_site_fract_y
_atom_site_fract_z
Co1 Co 0.31210(5) 0.05022(4) 0.50294(3)
Co2 Co 0.2500 0.2500 0.5000
O1 O 0.4277(2) 0.1079(2) 0.52627(17)
O2 O 0.2689(3) 0.0781(3) 0.57865(18)
O3 O 0.3755(3) 0.2298(2) 0.54583(17)
O4 O 0.1831(3) 0.1860(3) 0.55786(16)
O5 O 0.0000 0.0142(5) 0.7500
N1 N 0.1977(3) -0.0230(3) 0.4839(2)
N2 N 0.3553(3) -0.0615(3) 0.5381(2)
C1 C 0.4336(4) 0.1762(3) 0.5504(2)
C2 C 0.5189(4) 0.1928(3) 0.5880(2)
C3 C 0.5873(4) 0.1382(4) 0.5917(3)
H1 H 0.5810 0.0916 0.5697
C4 C 0.6656(4) 0.1512(4) 0.6278(3)
H2 H 0.7111 0.1134 0.6305
C5 C 0.6068(4) 0.2763(4) 0.6566(3)
H3 H 0.6128 0.3229 0.6787
C6 C 0.5290(4) 0.2618(4) 0.6203(3)
H4 H 0.4833 0.2993 0.6179
C7 C 0.2071(4) 0.1257(3) 0.5866(2)
C8 C 0.1570(4) 0.1038(4) 0.6351(2)
C9 C 0.1769(5) 0.0322(4) 0.6647(3)
H5 H 0.2255 0.0017 0.6574
C10 C 0.1255(6) 0.0065(4) 0.7045(4)
H6 H 0.1390 -0.0416 0.7240
C11 C 0.0539(6) 0.0515(4) 0.7159(3)
C12 C 0.0344(5) 0.1248(4) 0.6896(3)
H7 H -0.0131 0.1558 0.6980
C13 C 0.0886(4) 0.1508(4) 0.6499(3)
H8 H 0.0783 0.2011 0.6330
C14 C 0.1205(5) -0.0008(5) 0.4550(3)
H9 H 0.1175 0.0486 0.4363
C15 C 0.0455(5) -0.0468(5) 0.4514(4)
H10 H -0.0067 -0.0293 0.4301
C16 C 0.0482(5) -0.1197(5) 0.4799(4)
H11 H -0.0023 -0.1515 0.4792
C17 C 0.1277(5) -0.1440(4) 0.5094(3)
H12 H 0.1315 -0.1930 0.5286
C18 C 0.2024(4) -0.0954(4) 0.5107(3)
C19 C 0.2900(4) -0.1171(4) 0.5398(3)
C20 C 0.3082(5) -0.1893(4) 0.5688(3)
H13 H 0.2634 -0.2269 0.5706
C21 C 0.3923(5) -0.2048(5) 0.5945(3)
H14 H 0.4045 -0.2527 0.6144
C22 C 0.4591(5) -0.1494(4) 0.5910(3)
H15 H 0.5171 -0.1599 0.6071
C23 C 0.4373(4) -0.0780(4) 0.5628(3)
H16 H 0.4815 -0.0397 0.5609
C24 C 0.6750(4) 0.2209(4) 0.6597(3)
O6 O 0.7557(2) 0.3558(2) 0.94722(15)
O7 O 0.8355(3) 0.4500(2) 0.91416(16)
O8 O 0.7563(3) 0.2345(3) 0.69170(18)
C25 C 0.7586(4) 0.2741(4) 0.7435(3)
C26 C 0.8173(4) 0.3369(5) 0.7544(3)
H17 H 0.8504 0.3543 0.7264
C27 C 0.8270(4) 0.3742(4) 0.8067(3)
H18 H 0.8667 0.4167 0.8141
C28 C 0.7778(4) 0.3483(3) 0.8484(2)
C29 C 0.7171(4) 0.2856(4) 0.8370(2)
H19 H 0.6833 0.2684 0.8648
C30 C 0.7075(4) 0.2492(4) 0.7841(3)
H20 H 0.6666 0.2078 0.7759
C31 C 0.7907(4) 0.3870(3) 0.9062(2)
Co1F Co 0.18790(5) 0.44978(4) 0.49706(3)
Co1G Co 0.81210(5) 0.44978(4) 1.00294(3)
Co1A Co -0.31210(5) 0.05022(4) 0.99706(3)
Co1A_2 Co -0.31210(5) 0.05022(4) -0.00294(3)
Co2A Co 0.7500 0.2500 1.0000
Co2A_2 Co -0.2500 0.2500 1.0000
Co2A_3 Co -0.2500 0.2500 0.0000
O1F O 0.0723(2) 0.3921(2) 0.47373(17)
O2A O -0.2689(3) 0.0781(3) 0.92135(18)
O2F O 0.2311(3) 0.4219(3) 0.42135(18)
O3F O 0.1245(3) 0.2702(2) 0.45417(17)
O4A O -0.1831(3) 0.1860(3) 0.94214(16)
O4F O 0.3169(3) 0.3140(3) 0.44214(16)
N1F N 0.3023(3) 0.5230(3) 0.5161(2)
N2F N 0.1447(3) 0.5615(3) 0.4619(2)
C1F C 0.0664(4) 0.3238(3) 0.4496(2)
C2F C -0.0189(4) 0.3072(3) 0.4120(2)
C3F C -0.0873(4) 0.3618(4) 0.4083(3)
H1F H -0.0810 0.4084 0.4303
C4F C -0.1656(4) 0.3488(4) 0.3722(3)
H2F H -0.2111 0.3866 0.3695
C5F C -0.1068(4) 0.2237(4) 0.3434(3)
H3F H -0.1128 0.1771 0.3213
C6F C -0.0290(4) 0.2382(4) 0.3797(3)
H4F H 0.0167 0.2007 0.3821
C7A C -0.2071(4) 0.1257(3) 0.9134(2)
C8A C -0.1570(4) 0.1038(4) 0.8649(2)
C9A C -0.1769(5) 0.0322(4) 0.8353(3)
H5A H -0.2255 0.0017 0.8426
C10A C -0.1255(6) 0.0065(4) 0.7955(4)
H6A H -0.1390 -0.0416 0.7760
C11A C -0.0539(6) 0.0515(4) 0.7841(3)
C12A C -0.0344(5) 0.1248(4) 0.8104(3)
H7A H 0.0131 0.1558 0.8020
C13A C -0.0886(4) 0.1508(4) 0.8501(3)
H8A H -0.0783 0.2011 0.8670
C14F C 0.3795(5) 0.5008(5) 0.5450(3)
H9F H 0.3825 0.4514 0.5637
C15F C 0.4545(5) 0.5468(5) 0.5486(4)
H10F H 0.5067 0.5293 0.5699
C16F C 0.4518(5) 0.6197(5) 0.5201(4)
H11F H 0.5023 0.6515 0.5208
C17F C 0.3723(5) 0.6440(4) 0.4906(3)
H12F H 0.3685 0.6930 0.4714
C18F C 0.2976(4) 0.5954(4) 0.4893(3)
C19F C 0.2100(4) 0.6171(4) 0.4602(3)
C20F C 0.1918(5) 0.6893(4) 0.4312(3)
H13F H 0.2366 0.7269 0.4294
C21F C 0.1077(5) 0.7048(5) 0.4055(3)
H14F H 0.0955 0.7527 0.3856
C22F C 0.0409(5) 0.6494(4) 0.4090(3)
H15F H -0.0171 0.6599 0.3929
C23F C 0.0627(4) 0.5780(4) 0.4372(3)
H16F H 0.0185 0.5397 0.4391
C24F C -0.1750(4) 0.2791(4) 0.3403(3)
O6F O -0.2557(2) 0.1442(2) 0.05278(15)
O6G O 0.2557(2) 0.1442(2) 0.44722(15)
O6A O 0.2443(2) 0.3558(2) 0.55278(15)
O7F O -0.3355(3) 0.0500(2) 0.08584(16)
O7G O 0.3355(3) 0.0500(2) 0.41416(16)
O7A O 0.1645(3) 0.4500(2) 0.58584(16)
O8F O -0.2563(3) 0.2655(3) 0.30830(18)
C25F C -0.2586(4) 0.2259(4) 0.2565(3)
C26F C -0.3173(4) 0.1631(5) 0.2456(3)
H17F H -0.3504 0.1457 0.2736
C27F C -0.3270(4) 0.1258(4) 0.1933(3)
H18F H -0.3667 0.0833 0.1859
C28F C -0.2778(4) 0.1517(3) 0.1516(2)
C29F C -0.2171(4) 0.2144(4) 0.1630(2)
H19F H -0.1833 0.2316 0.1352
C30F C -0.2075(4) 0.2508(4) 0.2159(3)
H20F H -0.1666 0.2922 0.2241
C31F C -0.2907(4) 0.1130(3) 0.0938(2)
O9 O 0.5000 0.0517(6) 0.7500
loop_
_geom_bond_atom_site_label_1
_geom_bond_atom_site_label_2
_geom_bond_site_symmetry_1
_geom_bond_site_symmetry_2
Co1 O1 1_555 1_555
Co2 O3 1_555 1_555
O1 C1 1_555 1_555
O2 Co1 1_555 1_555
O3 C1 1_555 1_555
O4 Co2 1_555 1_555
O5 C11 1_555 1_555
N1 Co1 1_555 1_555
N2 Co1 1_555 1_555
C1 C2 1_555 1_555
C2 C3 1_555 1_555
C3 H1 1_555 1_555
C4 C3 1_555 1_555
H2 C4 1_555 1_555
C5 H3 1_555 1_555
C6 C2 1_555 1_555
H4 C6 1_555 1_555
C7 O2 1_555 1_555
C8 C7 1_555 1_555
C9 C8 1_555 1_555
H5 C9 1_555 1_555
C10 C9 1_555 1_555
H6 C10 1_555 1_555
C11 C10 1_555 1_555
C12 C11 1_555 1_555
H7 C12 1_555 1_555
C13 C8 1_555 1_555
H8 C13 1_555 1_555
C14 N1 1_555 1_555
H9 C14 1_555 1_555
C15 C14 1_555 1_555
H10 C15 1_555 1_555
C16 C15 1_555 1_555
H11 C16 1_555 1_555
C17 C16 1_555 1_555
H12 C17 1_555 1_555
C18 N1 1_555 1_555
C19 N2 1_555 1_555
C20 C19 1_555 1_555
H13 C20 1_555 1_555
C21 C20 1_555 1_555
H14 C21 1_555 1_555
C22 C21 1_555 1_555
H15 C22 1_555 1_555
C23 N2 1_555 1_555
H16 C23 1_555 1_555
C24 C4 1_555 1_555
O6 C31 1_555 1_555
O7 C31 1_555 1_555
O8 C24 1_555 1_555
C25 O8 1_555 1_555
C26 C25 1_555 1_555
H17 C26 1_555 1_555
C27 C26 1_555 1_555
H18 C27 1_555 1_555
C28 C27 1_555 1_555
C29 C28 1_555 1_555
H19 C29 1_555 1_555
C30 C25 1_555 1_555
H20 C30 1_555 1_555
C31 C28 1_555 1_555
Co1F O1F 1_555 1_555
Co1G O6 1_555 1_555
Co1A O2A 1_555 1_555
Co1A_2 O6F 1_555 1_555
Co2A O6 1_555 1_555
Co2A_2 O4A 1_555 1_555
Co2A_3 O6F 1_555 1_555
O1F C1F 1_555 1_555
O2A C7A 1_555 1_555
O2F Co1F 1_555 1_555
O3F Co2 1_555 1_555
O4A C7A 1_555 1_555
O4F Co2 1_555 1_555
N1F Co1F 1_555 1_555
N2F Co1F 1_555 1_555
C1F O3F 1_555 1_555
C2F C1F 1_555 1_555
C3F C2F 1_555 1_555
H1F C3F 1_555 1_555
C4F C3F 1_555 1_555
H2F C4F 1_555 1_555
C5F H3F 1_555 1_555
C6F C2F 1_555 1_555
H4F C6F 1_555 1_555
C7A C8A 1_555 1_555
C8A C9A 1_555 1_555
C9A H5A 1_555 1_555
C10A C9A 1_555 1_555
H6A C10A 1_555 1_555
C11A O5 1_555 1_555
C12A C11A 1_555 1_555
H7A C12A 1_555 1_555
C13A C8A 1_555 1_555
H8A C13A 1_555 1_555
C14F N1F 1_555 1_555
H9F C14F 1_555 1_555
C15F C14F 1_555 1_555
H10F C15F 1_555 1_555
C16F C15F 1_555 1_555
H11F C16F 1_555 1_555
C17F C16F 1_555 1_555
H12F C17F 1_555 1_555
C18F N1F 1_555 1_555
C19F N2F 1_555 1_555
C20F C19F 1_555 1_555
H13F C20F 1_555 1_555
C21F C20F 1_555 1_555
H14F C21F 1_555 1_555
C22F C21F 1_555 1_555
H15F C22F 1_555 1_555
C23F N2F 1_555 1_555
H16F C23F 1_555 1_555
C24F C4F 1_555 1_555
O6F C31F 1_555 1_555
O6G Co1 1_555 1_555
O6A Co2 1_555 1_555
O7F Co1A_2 1_555 1_555
O7G Co1 1_555 1_555
O7A Co1F 1_555 1_555
O8F C24F 1_555 1_555
C25F O8F 1_555 1_555
C26F C25F 1_555 1_555
H17F C26F 1_555 1_555
C27F C26F 1_555 1_555
H18F C27F 1_555 1_555
C28F C27F 1_555 1_555
C29F C28F 1_555 1_555
H19F C29F 1_555 1_555
C30F C25F 1_555 1_555
H20F C30F 1_555 1_555
C31F O7F 1_555 1_555
Co2 O6G 1_555 1_555
O4 C7 1_555 1_555
C5 C6 1_555 1_555
C5 C24 1_555 1_555
C12 C13 1_555 1_555
C17 C18 1_555 1_555
C18 C19 1_555 1_555
C22 C23 1_555 1_555
O7 Co1G 1_555 1_555
C29 C30 1_555 1_555
Co1F O6A 1_555 1_555
C5F C6F 1_555 1_555
C5F C24F 1_555 1_555
C10A C11A 1_555 1_555
C12A C13A 1_555 1_555
C17F C18F 1_555 1_555
C18F C19F 1_555 1_555
C22F C23F 1_555 1_555
C28F C31F 1_555 1_555
C29F C30F 1_555 1_555

#END
