
#######################################################################
#
#                 Cambridge Crystallographic Data Centre
#                                CCDC 
#
#######################################################################
#
# If this CIF has been generated from an entry in the Cambridge 
# Structural Database, then it will include bibliographic, chemical, 
# crystal, experimental, refinement or atomic coordinate data resulting 
# from the CCDC's data processing and validation procedures.
#
#######################################################################

data_GAXHIY
_symmetry_cell_setting           triclinic
_symmetry_space_group_name_H-M   'P -1'
_symmetry_Int_Tables_number      2
_space_group_name_Hall           '-P 1'
loop_
_symmetry_equiv_pos_site_id
_symmetry_equiv_pos_as_xyz
1 x,y,z
2 -x,-y,-z
_cell_length_a                   11.2153(3)
_cell_length_b                   11.6948(3)
_cell_length_c                   12.9855(4)
_cell_angle_alpha                85.0890(10)
_cell_angle_beta                 65.1570(10)
_cell_angle_gamma                79.3950(10)
_cell_volume                     1519.11
loop_
_atom_site_label
_atom_site_type_symbol
_atom_site_fract_x
_atom_site_fract_y
_atom_site_fract_z
Cu1 Cu -0.05607(3) 0.51559(3) 0.41533(3)
Br1 Br 0.18786(2) 0.49933(2) 0.37779(2)
O1 O -0.37695(18) -0.08584(16) 0.32468(17)
O2 O -0.21959(18) 0.22478(15) 0.18873(15)
S1 S -0.06071(6) 0.36146(5) 0.32296(5)
S2 S -0.10995(6) -0.29534(5) 0.36623(5)
C1 C -0.4566(3) 0.0124(3) 0.2986(3)
H1 H -0.5493 0.0214 0.3573
H2 H -0.4578 0.0018 0.2242
C2 C -0.3960(3) 0.1191(3) 0.2951(3)
H3 H -0.4611 0.1900 0.2983
H4 H -0.3751 0.1185 0.3620
C3 C -0.2709(3) 0.1215(2) 0.1884(3)
H5 H -0.2043 0.0518 0.1856
H6 H -0.2908 0.1213 0.1210
C4 C -0.1029(3) 0.2414(2) 0.0994(2)
C5 C -0.0386(3) 0.1699(2) 0.0048(2)
H7 H -0.0746 0.1043 -0.0004
C6 C 0.0788(3) 0.1952(3) -0.0821(2)
H8 H 0.1224 0.1468 -0.1470
C7 C 0.1327(3) 0.2893(3) -0.0756(2)
H9 H 0.2129 0.3061 -0.1353
C8 C 0.0686(3) 0.3594(2) 0.0193(2)
H10 H 0.1060 0.4242 0.0242
C9 C -0.0493(3) 0.3369(2) 0.1076(2)
C10 C -0.1146(3) 0.4146(2) 0.2095(2)
H11 H -0.2124 0.4200 0.2392
H12 H -0.0930 0.4938 0.1861
C11 C -0.1918(2) 0.2815(2) 0.4169(2)
H13 H -0.2275 0.3125 0.4946
H14 H -0.2653 0.2955 0.3917
C12 C -0.1464(2) 0.1519(2) 0.4205(2)
C13 C -0.0568(3) 0.0885(2) 0.3241(2)
H15 H -0.0186 0.1278 0.2537
C14 C -0.1972(2) 0.0923(2) 0.5226(2)
H16 H -0.2563 0.1342 0.5894
C15 C -0.0233(3) -0.0306(2) 0.3304(2)
H17 H 0.0366 -0.0726 0.2638
C16 C -0.1632(3) -0.0275(2) 0.5289(2)
H18 H -0.1998 -0.0667 0.5996
C17 C -0.0762(2) -0.0903(2) 0.4330(2)
C18 C -0.0396(3) -0.2202(2) 0.4396(2)
H19 H -0.0727 -0.2452 0.5203
H20 H 0.0586 -0.2420 0.4052
C19 C -0.2870(2) -0.2504(2) 0.4538(2)
H21 H -0.3124 -0.2917 0.5278
H22 H -0.3055 -0.1658 0.4680
C20 C -0.3672(2) -0.2781(2) 0.3941(2)
C21 C -0.3963(3) -0.3895(2) 0.3998(2)
H23 H -0.3660 -0.4478 0.4429
C22 C -0.4688(3) -0.4173(3) 0.3439(3)
H24 H -0.4874 -0.4940 0.3483
C23 C -0.5134(3) -0.3325(3) 0.2819(2)
H25 H -0.5636 -0.3510 0.2440
C24 C -0.4857(3) -0.2205(3) 0.2745(2)
H26 H -0.5169 -0.1626 0.2316
C25 C -0.4122(2) -0.1932(2) 0.3300(2)
Cu1A Cu 0.05607(3) 0.48441(3) 0.58467(3)
Cu1_2 Cu -0.05607(3) -0.48441(3) 0.41533(3)
Cu1A_2 Cu 0.05607(3) 1.48441(3) 0.58467(3)
Br1A Br -0.18786(2) 0.50067(2) 0.62221(2)
O1A O 0.37695(18) 1.08584(16) 0.67532(17)
O2A O 0.21959(18) 0.77522(15) 0.81127(15)
S1A S 0.06071(6) 0.63854(5) 0.67704(5)
S2A S 0.10995(6) 1.29534(5) 0.63377(5)
S2_2 S -0.10995(6) 0.70466(5) 0.36623(5)
S2A_2 S 0.10995(6) 0.29534(5) 0.63377(5)
C1A C 0.4566(3) 0.9876(3) 0.7014(3)
H1A H 0.5493 0.9786 0.6427
H2A H 0.4578 0.9982 0.7758
C2A C 0.3960(3) 0.8809(3) 0.7049(3)
H3A H 0.4611 0.8100 0.7017
H4A H 0.3751 0.8815 0.6380
C3A C 0.2709(3) 0.8785(2) 0.8116(3)
H5A H 0.2043 0.9482 0.8144
H6A H 0.2908 0.8787 0.8790
C4A C 0.1029(3) 0.7586(2) 0.9006(2)
C5A C 0.0386(3) 0.8301(2) 0.9952(2)
H7A H 0.0746 0.8957 1.0004
C6A C -0.0788(3) 0.8048(3) 1.0821(2)
H8A H -0.1224 0.8532 1.1470
C7A C -0.1327(3) 0.7107(3) 1.0756(2)
H9A H -0.2129 0.6939 1.1353
C8A C -0.0686(3) 0.6406(2) 0.9807(2)
H10A H -0.1060 0.5758 0.9758
C9A C 0.0493(3) 0.6631(2) 0.8924(2)
C10A C 0.1146(3) 0.5854(2) 0.7905(2)
H11A H 0.2124 0.5800 0.7608
H12A H 0.0930 0.5062 0.8139
C11A C 0.1918(2) 0.7185(2) 0.5831(2)
H13A H 0.2275 0.6875 0.5054
H14A H 0.2653 0.7045 0.6083
C12A C 0.1464(2) 0.8481(2) 0.5795(2)
C13A C 0.0568(3) 0.9115(2) 0.6759(2)
H15A H 0.0186 0.8722 0.7463
C14A C 0.1972(2) 0.9077(2) 0.4774(2)
H16A H 0.2563 0.8658 0.4106
C15A C 0.0233(3) 1.0306(2) 0.6696(2)
H17A H -0.0366 1.0726 0.7362
C16A C 0.1632(3) 1.0275(2) 0.4711(2)
H18A H 0.1998 1.0667 0.4004
C17A C 0.0762(2) 1.0903(2) 0.5670(2)
C18A C 0.0396(3) 1.2202(2) 0.5604(2)
H19A H 0.0727 1.2452 0.4797
H20A H -0.0586 1.2420 0.5948
C19A C 0.2870(2) 1.2504(2) 0.5462(2)
H21A H 0.3124 1.2917 0.4722
H22A H 0.3055 1.1658 0.5320
C20A C 0.3672(2) 1.2781(2) 0.6059(2)
C21A C 0.3963(3) 1.3895(2) 0.6002(2)
H23A H 0.3660 1.4478 0.5571
C22A C 0.4688(3) 1.4173(3) 0.6561(3)
H24A H 0.4874 1.4940 0.6517
C23A C 0.5134(3) 1.3325(3) 0.7181(2)
H25A H 0.5636 1.3510 0.7560
C24A C 0.4857(3) 1.2205(3) 0.7255(2)
H26A H 0.5169 1.1626 0.7684
C25A C 0.4122(2) 1.1932(2) 0.6700(2)
C26 C 0.2487(5) 0.6023(4) 0.0854(3)
H27 H 0.1547 0.6153 0.0953
H28 H 0.2565 0.5472 0.1454
Cl1 Cl 0.35087(11) 0.53982(12) -0.04812(9)
Cl2 Cl 0.29003(14) 0.73526(10) 0.10251(12)
C27 C 0.6457(9) 0.8260(6) 0.9283(6)
H29 H 0.6987 0.7831 0.9683
H30 H 0.5506 0.8320 0.9810
Cl3 Cl 0.67236(18) 0.75031(16) 0.81805(14)
Cl4 Cl 0.68606(16) 0.96928(16) 0.89601(19)
loop_
_geom_bond_atom_site_label_1
_geom_bond_atom_site_label_2
_geom_bond_site_symmetry_1
_geom_bond_site_symmetry_2
Cu1 Br1 1_555 1_555
Br1 Cu1A 1_555 1_555
O1 C1 1_555 1_555
O2 C3 1_555 1_555
S1 Cu1 1_555 1_555
S2 C18 1_555 1_555
C1 H1 1_555 1_555
H2 C1 1_555 1_555
C2 C1 1_555 1_555
H3 C2 1_555 1_555
H4 C2 1_555 1_555
C3 C2 1_555 1_555
H5 C3 1_555 1_555
H6 C3 1_555 1_555
C4 O2 1_555 1_555
C5 C4 1_555 1_555
H7 C5 1_555 1_555
C6 C5 1_555 1_555
H8 C6 1_555 1_555
C7 C6 1_555 1_555
H9 C7 1_555 1_555
C8 C7 1_555 1_555
H10 C8 1_555 1_555
C9 C4 1_555 1_555
C10 S1 1_555 1_555
H11 C10 1_555 1_555
H12 C10 1_555 1_555
C11 S1 1_555 1_555
H13 C11 1_555 1_555
H14 C11 1_555 1_555
C12 C11 1_555 1_555
C13 C12 1_555 1_555
H15 C13 1_555 1_555
C14 C12 1_555 1_555
H16 C14 1_555 1_555
C15 C13 1_555 1_555
H17 C15 1_555 1_555
C16 C14 1_555 1_555
H18 C16 1_555 1_555
C17 C15 1_555 1_555
C18 C17 1_555 1_555
H19 C18 1_555 1_555
H20 C18 1_555 1_555
C19 S2 1_555 1_555
H21 C19 1_555 1_555
H22 C19 1_555 1_555
C20 C19 1_555 1_555
C21 C20 1_555 1_555
H23 C21 1_555 1_555
C22 C21 1_555 1_555
H24 C22 1_555 1_555
C23 C22 1_555 1_555
H25 C23 1_555 1_555
C24 C23 1_555 1_555
H26 C24 1_555 1_555
C25 O1 1_555 1_555
C26 H27 1_555 1_555
H28 C26 1_555 1_555
Cl1 C26 1_555 1_555
Cl2 C26 1_555 1_555
C27 H29 1_555 1_555
H30 C27 1_555 1_555
Cl3 C27 1_555 1_555
Cl4 C27 1_555 1_555
Cu1A Br1A 1_555 1_555
Cu1_2 S2 1_555 1_555
Cu1A_2 S2A 1_555 1_555
Br1A Cu1 1_555 1_555
O1A C1A 1_555 1_555
O2A C3A 1_555 1_555
S1A Cu1A 1_555 1_555
S2A C18A 1_555 1_555
S2_2 Cu1 1_555 1_555
S2A_2 Cu1A 1_555 1_555
C1A H1A 1_555 1_555
H2A C1A 1_555 1_555
C2A C1A 1_555 1_555
H3A C2A 1_555 1_555
H4A C2A 1_555 1_555
C3A C2A 1_555 1_555
H5A C3A 1_555 1_555
H6A C3A 1_555 1_555
C4A O2A 1_555 1_555
C5A C4A 1_555 1_555
H7A C5A 1_555 1_555
C6A C5A 1_555 1_555
H8A C6A 1_555 1_555
C7A C6A 1_555 1_555
H9A C7A 1_555 1_555
C8A C7A 1_555 1_555
H10A C8A 1_555 1_555
C9A C4A 1_555 1_555
C10A S1A 1_555 1_555
H11A C10A 1_555 1_555
H12A C10A 1_555 1_555
C11A S1A 1_555 1_555
H13A C11A 1_555 1_555
H14A C11A 1_555 1_555
C12A C11A 1_555 1_555
C13A C12A 1_555 1_555
H15A C13A 1_555 1_555
C14A C12A 1_555 1_555
H16A C14A 1_555 1_555
C15A C13A 1_555 1_555
H17A C15A 1_555 1_555
C16A C14A 1_555 1_555
H18A C16A 1_555 1_555
C17A C15A 1_555 1_555
C18A C17A 1_555 1_555
H19A C18A 1_555 1_555
H20A C18A 1_555 1_555
C19A S2A 1_555 1_555
H21A C19A 1_555 1_555
H22A C19A 1_555 1_555
C20A C19A 1_555 1_555
C21A C20A 1_555 1_555
H23A C21A 1_555 1_555
C22A C21A 1_555 1_555
H24A C22A 1_555 1_555
C23A C22A 1_555 1_555
H25A C23A 1_555 1_555
C24A C23A 1_555 1_555
H26A C24A 1_555 1_555
C25A O1A 1_555 1_555
C8 C9 1_555 1_555
C9 C10 1_555 1_555
C16 C17 1_555 1_555
C20 C25 1_555 1_555
C24 C25 1_555 1_555
C8A C9A 1_555 1_555
C9A C10A 1_555 1_555
C16A C17A 1_555 1_555
C20A C25A 1_555 1_555
C24A C25A 1_555 1_555

#END
