
#######################################################################
#
#                 Cambridge Crystallographic Data Centre
#                                CCDC 
#
#######################################################################
#
# If this CIF has been generated from an entry in the Cambridge 
# Structural Database, then it will include bibliographic, chemical, 
# crystal, experimental, refinement or atomic coordinate data resulting 
# from the CCDC's data processing and validation procedures.
#
#######################################################################

data_GAXHOE01
_symmetry_cell_setting           monoclinic
_symmetry_space_group_name_H-M   'P 21/c'
_symmetry_Int_Tables_number      14
_space_group_name_Hall           '-P 2ybc'
loop_
_symmetry_equiv_pos_site_id
_symmetry_equiv_pos_as_xyz
1 x,y,z
2 -x,1/2+y,1/2-z
3 -x,-y,-z
4 x,1/2-y,1/2+z
_cell_length_a                   17.0726(15)
_cell_length_b                   21.8272(18)
_cell_length_c                   16.3027(14)
_cell_angle_alpha                90
_cell_angle_beta                 110.571(4)
_cell_angle_gamma                90
_cell_volume                     5687.79
loop_
_atom_site_label
_atom_site_type_symbol
_atom_site_fract_x
_atom_site_fract_y
_atom_site_fract_z
Cu1 Cu 0.15502(4) 0.82617(3) 0.69219(4)
Cu2 Cu 0.28215(4) 0.90789(3) 0.70214(4)
Cu3 Cu 0.30164(4) 0.82004(3) 0.82214(5)
Cu4 Cu 0.20217(4) 0.91410(3) 0.82164(5)
I1 I 0.12214(2) 0.945122(16) 0.65141(2)
I2 I 0.28618(2) 0.792538(17) 0.65157(2)
I3 I 0.37099(2) 0.928632(16) 0.87134(2)
I4 I 0.16160(2) 0.802109(16) 0.85677(2)
O1 O -0.1071(3) 0.55949(19) 0.4493(3)
O2 O -0.0833(2) 0.72272(18) 0.3906(2)
O3 O 0.2824(4) 1.0533(2) 0.4488(3)
O4 O 0.4246(3) 1.2318(2) 0.4537(3)
S1 S 0.04193(8) 0.77224(6) 0.59809(9)
S2 S -0.16249(8) 0.49795(6) 0.61656(9)
S3 S 0.60788(8) 1.24204(6) 0.61761(8)
S4 S 0.34763(8) 0.97008(6) 0.63263(9)
C1 C -0.0404(4) 0.5940(3) 0.4336(4)
H1 H 0.0071 0.5662 0.4390
H2 H -0.0201 0.6266 0.4783
C2 C -0.0709(4) 0.6220(3) 0.3447(4)
H3 H -0.0222 0.6368 0.3307
H4 H -0.0993 0.5901 0.3012
C3 C -0.1296(4) 0.6739(3) 0.3359(4)
H5 H -0.1530 0.6876 0.2742
H6 H -0.1764 0.6611 0.3546
C4 C -0.1245(4) 0.7757(3) 0.3927(3)
C5 C -0.2083(4) 0.7852(3) 0.3482(4)
H7 H -0.2417 0.7534 0.3133
C6 C -0.2439(5) 0.8414(4) 0.3542(4)
H8 H -0.3021 0.8474 0.3241
C7 C -0.1964(5) 0.8888(3) 0.4030(4)
H9 H -0.2213 0.9271 0.4067
C8 C -0.1110(5) 0.8791(3) 0.4468(4)
H10 H -0.0775 0.9117 0.4795
C9 C -0.0741(4) 0.8232(2) 0.4436(3)
C10 C 0.0168(4) 0.8136(3) 0.4928(4)
H11 H 0.0447 0.8541 0.5046
H12 H 0.0408 0.7904 0.4550
C11 C -0.0436(3) 0.7906(2) 0.6383(3)
H13 H -0.0205 0.8097 0.6970
H14 H -0.0827 0.8200 0.5980
C12 C -0.0896(3) 0.7323(2) 0.6434(3)
C13 C -0.1592(4) 0.7135(3) 0.5739(4)
H15 H -0.1793 0.7380 0.5225
C14 C -0.0611(4) 0.6958(3) 0.7168(3)
H16 H -0.0135 0.7082 0.7650
C15 C -0.1009(4) 0.6410(3) 0.7212(4)
H17 H -0.0805 0.6163 0.7724
C16 C -0.2000(4) 0.6595(3) 0.5784(4)
H18 H -0.2488 0.6481 0.5309
C17 C -0.1707(3) 0.6219(2) 0.6510(4)
C18 C -0.2110(4) 0.5612(2) 0.6563(4)
H19 H -0.2713 0.5632 0.6207
H20 H -0.2056 0.5532 0.7178
C19 C -0.2235(4) 0.5029(3) 0.4996(4)
H21 H -0.2799 0.4854 0.4884
H22 H -0.2304 0.5465 0.4816
C20 C -0.1820(4) 0.4693(3) 0.4469(4)
C21 C -0.1986(4) 0.4088(3) 0.4246(4)
H23 H -0.2384 0.3874 0.4424
C22 C -0.1570(4) 0.3778(3) 0.3753(4)
H24 H -0.1691 0.3360 0.3592
C23 C -0.0985(5) 0.4096(3) 0.3511(4)
H25 H -0.0700 0.3890 0.3185
C24 C -0.0804(4) 0.4700(3) 0.3729(4)
H26 H -0.0402 0.4910 0.3552
C25 C -0.1212(4) 0.4999(3) 0.4208(4)
C26 C 0.2636(5) 1.1107(4) 0.4031(5)
H27 H 0.2140 1.1302 0.4101
H28 H 0.2532 1.1052 0.3398
C27 C 0.3378(5) 1.1468(4) 0.4443(6)
H29 H 0.3865 1.1224 0.4437
H30 H 0.3438 1.1526 0.5065
C28 C 0.3438(5) 1.2102(4) 0.4058(5)
H31 H 0.3358 1.2069 0.3428
H32 H 0.3008 1.2382 0.4125
C29 C 0.4561(4) 1.2818(3) 0.4241(4)
C30 C 0.4069(4) 1.3288(3) 0.3751(4)
H33 H 0.3478 1.3277 0.3595
C31 C 0.4448(5) 1.3772(3) 0.3494(4)
H34 H 0.4113 1.4094 0.3156
C32 C 0.5297(4) 1.3796(3) 0.3717(4)
H35 H 0.5549 1.4130 0.3527
C33 C 0.5793(4) 1.3330(3) 0.4222(4)
H36 H 0.6384 1.3349 0.4386
C34 C 0.5419(3) 1.2834(3) 0.4491(3)
C35 C 0.5945(3) 1.2326(3) 0.5027(3)
H37 H 0.6499 1.2326 0.4960
H38 H 0.5674 1.1927 0.4815
C36 C 0.6639(4) 1.1724(2) 0.6639(4)
H39 H 0.7013 1.1618 0.6313
H40 H 0.6996 1.1805 0.7254
C37 C 0.6082(3) 1.1175(2) 0.6618(3)
C38 C 0.5221(3) 1.1213(3) 0.6330(4)
H41 H 0.4951 1.1589 0.6101
C39 C 0.6454(3) 1.0617(3) 0.6938(4)
H42 H 0.7046 1.0577 0.7128
C40 C 0.5971(4) 1.0119(3) 0.6982(4)
H43 H 0.6239 0.9741 0.7202
C41 C 0.4748(4) 1.0710(3) 0.6372(5)
H44 H 0.4155 1.0746 0.6160
C42 C 0.5104(3) 1.0154(2) 0.6712(3)
C43 C 0.4605(3) 0.9625(3) 0.6842(4)
H45 H 0.4740 0.9566 0.7479
H46 H 0.4783 0.9252 0.6612
C44 C 0.3339(3) 0.9416(3) 0.5229(4)
H47 H 0.3744 0.9621 0.5010
H48 H 0.3451 0.8970 0.5256
C45 C 0.2462(4) 0.9538(3) 0.4610(4)
C46 C 0.1876(4) 0.9071(4) 0.4399(4)
H49 H 0.2039 0.8681 0.4663
C47 C 0.1063(5) 0.9144(4) 0.3820(4)
H50 H 0.0688 0.8807 0.3652
C48 C 0.0827(5) 0.9706(4) 0.3507(5)
H51 H 0.0259 0.9764 0.3147
C49 C 0.1335(5) 1.0191(3) 0.3664(4)
H52 H 0.1137 1.0579 0.3413
C50 C 0.2223(5) 1.0103(3) 0.4247(4)
Cu3A Cu 0.69836(4) 1.32004(3) 0.67786(5)
Cu4A Cu -0.20217(4) 0.41410(3) 0.67836(5)
S2A S 0.16249(8) 0.99795(6) 0.88344(9)
S3A S 0.39212(8) 0.74204(6) 0.88239(8)
C51 C 0.5572(6) 0.6775(4) 0.3511(6)
H53 H 0.5010 0.6591 0.3376
H54 H 0.5716 0.6995 0.4076
Cl1 Cl 0.6314(2) 0.61840(16) 0.3613(2)
Cl2 Cl 0.5546(3) 0.7278(2) 0.2713(3)
loop_
_geom_bond_atom_site_label_1
_geom_bond_atom_site_label_2
_geom_bond_site_symmetry_1
_geom_bond_site_symmetry_2
Cu1 I1 1_555 1_555
Cu2 I1 1_555 1_555
Cu3 I2 1_555 1_555
Cu4 I1 1_555 1_555
I2 Cu1 1_555 1_555
I3 Cu2 1_555 1_555
I4 Cu1 1_555 1_555
O1 C1 1_555 1_555
O2 C3 1_555 1_555
O3 C26 1_555 1_555
O4 C28 1_555 1_555
S1 Cu1 1_555 1_555
S2 C18 1_555 1_555
S3 C35 1_555 1_555
S4 Cu2 1_555 1_555
C1 H1 1_555 1_555
H2 C1 1_555 1_555
C2 C1 1_555 1_555
H3 C2 1_555 1_555
H4 C2 1_555 1_555
C3 C2 1_555 1_555
H5 C3 1_555 1_555
H6 C3 1_555 1_555
C4 O2 1_555 1_555
C5 C4 1_555 1_555
H7 C5 1_555 1_555
C6 C5 1_555 1_555
H8 C6 1_555 1_555
C7 C6 1_555 1_555
H9 C7 1_555 1_555
C8 C7 1_555 1_555
H10 C8 1_555 1_555
C9 C4 1_555 1_555
C10 S1 1_555 1_555
H11 C10 1_555 1_555
H12 C10 1_555 1_555
C11 S1 1_555 1_555
H13 C11 1_555 1_555
H14 C11 1_555 1_555
C12 C11 1_555 1_555
C13 C12 1_555 1_555
H15 C13 1_555 1_555
C14 C12 1_555 1_555
H16 C14 1_555 1_555
C15 C14 1_555 1_555
H17 C15 1_555 1_555
C16 C13 1_555 1_555
H18 C16 1_555 1_555
C17 C15 1_555 1_555
C18 C17 1_555 1_555
H19 C18 1_555 1_555
H20 C18 1_555 1_555
C19 S2 1_555 1_555
H21 C19 1_555 1_555
H22 C19 1_555 1_555
C20 C19 1_555 1_555
C21 C20 1_555 1_555
H23 C21 1_555 1_555
C22 C21 1_555 1_555
H24 C22 1_555 1_555
C23 C22 1_555 1_555
H25 C23 1_555 1_555
C24 C23 1_555 1_555
H26 C24 1_555 1_555
C25 O1 1_555 1_555
C26 H27 1_555 1_555
H28 C26 1_555 1_555
C27 C26 1_555 1_555
H29 C27 1_555 1_555
H30 C27 1_555 1_555
C28 C27 1_555 1_555
H31 C28 1_555 1_555
H32 C28 1_555 1_555
C29 O4 1_555 1_555
C30 C29 1_555 1_555
H33 C30 1_555 1_555
C31 C30 1_555 1_555
H34 C31 1_555 1_555
C32 C31 1_555 1_555
H35 C32 1_555 1_555
C33 C32 1_555 1_555
H36 C33 1_555 1_555
C34 C29 1_555 1_555
C35 C34 1_555 1_555
H37 C35 1_555 1_555
H38 C35 1_555 1_555
C36 S3 1_555 1_555
H39 C36 1_555 1_555
H40 C36 1_555 1_555
C37 C36 1_555 1_555
C38 C37 1_555 1_555
H41 C38 1_555 1_555
C39 C37 1_555 1_555
H42 C39 1_555 1_555
C40 C39 1_555 1_555
H43 C40 1_555 1_555
C41 C38 1_555 1_555
H44 C41 1_555 1_555
C42 C40 1_555 1_555
C43 S4 1_555 1_555
H45 C43 1_555 1_555
H46 C43 1_555 1_555
C44 S4 1_555 1_555
H47 C44 1_555 1_555
H48 C44 1_555 1_555
C45 C44 1_555 1_555
C46 C45 1_555 1_555
H49 C46 1_555 1_555
C47 C46 1_555 1_555
H50 C47 1_555 1_555
C48 C47 1_555 1_555
H51 C48 1_555 1_555
C49 C48 1_555 1_555
H52 C49 1_555 1_555
C50 O3 1_555 1_555
C51 H53 1_555 1_555
H54 C51 1_555 1_555
Cl1 C51 1_555 1_555
Cl2 C51 1_555 1_555
Cu3A S3 1_555 1_555
Cu4A S2 1_555 1_555
S2A Cu4 1_555 1_555
S3A Cu3 1_555 1_555
Cu2 I2 1_555 1_555
Cu3 I3 1_555 1_555
Cu3 I4 1_555 1_555
Cu4 I3 1_555 1_555
Cu4 I4 1_555 1_555
C8 C9 1_555 1_555
C9 C10 1_555 1_555
C16 C17 1_555 1_555
C20 C25 1_555 1_555
C24 C25 1_555 1_555
C33 C34 1_555 1_555
C41 C42 1_555 1_555
C42 C43 1_555 1_555
C45 C50 1_555 1_555
C49 C50 1_555 1_555

#END
