
#######################################################################
#
#                 Cambridge Crystallographic Data Centre
#                                CCDC 
#
#######################################################################
#
# If this CIF has been generated from an entry in the Cambridge 
# Structural Database, then it will include bibliographic, chemical, 
# crystal, experimental, refinement or atomic coordinate data resulting 
# from the CCDC's data processing and validation procedures.
#
#######################################################################

data_GAXKUN
_symmetry_cell_setting           orthorhombic
_symmetry_space_group_name_H-M   'P n n a'
_symmetry_Int_Tables_number      52
_space_group_name_Hall           '-P 2a 2bc'
loop_
_symmetry_equiv_pos_site_id
_symmetry_equiv_pos_as_xyz
1 x,y,z
2 1/2-x,-y,z
3 1/2-x,1/2+y,1/2-z
4 x,1/2-y,1/2-z
5 -x,-y,-z
6 1/2+x,y,-z
7 1/2+x,1/2-y,1/2+z
8 -x,1/2+y,1/2+z
_cell_length_a                   14.498(3)
_cell_length_b                   14.899(3)
_cell_length_c                   17.473(4)
_cell_angle_alpha                90
_cell_angle_beta                 90
_cell_angle_gamma                90
_cell_volume                     3774.27
loop_
_atom_site_label
_atom_site_type_symbol
_atom_site_fract_x
_atom_site_fract_y
_atom_site_fract_z
Cd1 Cd 0.7500 0.5000 0.846332(14)
O1 O 0.89023(18) 0.4583(2) 0.90329(16)
O2 O 0.7718(2) 0.3725(2) 0.92277(19)
N1 N 1.16749(17) 0.07933(16) 1.25636(13)
C1 C 1.2082(3) 0.1334(3) 1.2055(2)
H1 H 1.2723 0.1362 1.2051
C2 C 1.1606(3) 0.1850(3) 1.15399(19)
H2 H 1.1930 0.2207 1.1196
C3 C 1.0656(2) 0.1850(2) 1.15217(15)
C4 C 1.0237(2) 0.1290(3) 1.2063(2)
H3 H 0.9597 0.1251 1.2084
C5 C 1.0763(2) 0.0798(2) 1.2562(2)
H4 H 1.0460 0.0447 1.2923
C6 C 1.0114(2) 0.2374(2) 1.09649(16)
C7 C 1.0482(2) 0.3123(2) 1.0617(2)
H5 H 1.1080 0.3300 1.0735
C8 C 0.9970(2) 0.3621(3) 1.00904(19)
H6 H 1.0232 0.4125 0.9864
C9 C 0.9087(2) 0.3377(2) 0.99032(17)
C10 C 0.8712(3) 0.2637(3) 1.0254(2)
H7 H 0.8112 0.2467 1.0136
C11 C 0.9212(3) 0.2140(3) 1.0782(2)
H8 H 0.8941 0.1645 1.1017
C12 C 0.8539(2) 0.3925(2) 0.93480(16)
Cd1F Cd 1.2500 0.0000 1.346332(14)
Cd1F_2 Cd 0.2500 1.0000 1.346332(14)
O1A O 0.60977(18) 0.5417(2) 0.90329(16)
O2A O 0.7282(2) 0.6275(2) 0.92277(19)
N1A N 0.33251(17) 0.92067(16) 1.25636(13)
N1F N 0.66749(17) 0.42067(16) 0.75636(13)
N1G N 0.83251(17) 0.57933(16) 0.75636(13)
C1A C 0.2918(3) 0.8666(3) 1.2055(2)
H1A H 0.2277 0.8638 1.2051
C2A C 0.3394(3) 0.8150(3) 1.15399(19)
H2A H 0.3070 0.7793 1.1196
C3A C 0.4344(2) 0.8150(2) 1.15217(15)
C4A C 0.4763(2) 0.8710(3) 1.2063(2)
H3A H 0.5403 0.8749 1.2084
C5A C 0.4237(2) 0.9202(2) 1.2562(2)
H4A H 0.4540 0.9553 1.2923
C6A C 0.4886(2) 0.7626(2) 1.09649(16)
C7A C 0.4518(2) 0.6877(2) 1.0617(2)
H5A H 0.3920 0.6700 1.0735
C8A C 0.5030(2) 0.6379(3) 1.00904(19)
H6A H 0.4768 0.5875 0.9864
C9A C 0.5913(2) 0.6623(2) 0.99032(17)
C10A C 0.6288(3) 0.7363(3) 1.0254(2)
H7A H 0.6888 0.7533 1.0136
C11A C 0.5788(3) 0.7860(3) 1.0782(2)
H8A H 0.6059 0.8355 1.1017
C12A C 0.6461(2) 0.6075(2) 0.93480(16)
loop_
_geom_bond_atom_site_label_1
_geom_bond_atom_site_label_2
_geom_bond_site_symmetry_1
_geom_bond_site_symmetry_2
Cd1 O1 1_555 1_555
O1 C12 1_555 1_555
O2 Cd1 1_555 1_555
N1 C1 1_555 1_555
C1 H1 1_555 1_555
C2 C1 1_555 1_555
H2 C2 1_555 1_555
C3 C2 1_555 1_555
C4 C3 1_555 1_555
H3 C4 1_555 1_555
C5 N1 1_555 1_555
H4 C5 1_555 1_555
C6 C3 1_555 1_555
C7 C6 1_555 1_555
H5 C7 1_555 1_555
C8 C7 1_555 1_555
H6 C8 1_555 1_555
C9 C8 1_555 1_555
C10 C9 1_555 1_555
H7 C10 1_555 1_555
C11 C6 1_555 1_555
H8 C11 1_555 1_555
C12 O2 1_555 1_555
Cd1F N1 1_555 1_555
Cd1F_2 N1A 1_555 1_555
O1A Cd1 1_555 1_555
O2A Cd1 1_555 1_555
N1A C1A 1_555 1_555
N1F Cd1 1_555 1_555
N1G Cd1 1_555 1_555
C1A H1A 1_555 1_555
C2A C1A 1_555 1_555
H2A C2A 1_555 1_555
C3A C2A 1_555 1_555
C4A C3A 1_555 1_555
H3A C4A 1_555 1_555
C5A N1A 1_555 1_555
H4A C5A 1_555 1_555
C6A C3A 1_555 1_555
C7A C6A 1_555 1_555
H5A C7A 1_555 1_555
C8A C7A 1_555 1_555
H6A C8A 1_555 1_555
C9A C8A 1_555 1_555
C10A C9A 1_555 1_555
H7A C10A 1_555 1_555
C11A C6A 1_555 1_555
H8A C11A 1_555 1_555
C12A O1A 1_555 1_555
C4 C5 1_555 1_555
C9 C12 1_555 1_555
C10 C11 1_555 1_555
O2A C12A 1_555 1_555
C4A C5A 1_555 1_555
C9A C12A 1_555 1_555
C10A C11A 1_555 1_555

#END
