
#######################################################################
#
#                 Cambridge Crystallographic Data Centre
#                                CCDC 
#
#######################################################################
#
# If this CIF has been generated from an entry in the Cambridge 
# Structural Database, then it will include bibliographic, chemical, 
# crystal, experimental, refinement or atomic coordinate data resulting 
# from the CCDC's data processing and validation procedures.
#
#######################################################################

data_GAXNOK
_symmetry_cell_setting           orthorhombic
_symmetry_space_group_name_H-M   'P c a 21'
_symmetry_Int_Tables_number      29
_space_group_name_Hall           'P 2c -2ac'
loop_
_symmetry_equiv_pos_site_id
_symmetry_equiv_pos_as_xyz
1 x,y,z
2 -x,-y,1/2+z
3 1/2+x,-y,z
4 1/2-x,y,1/2+z
_cell_length_a                   18.683(11)
_cell_length_b                   7.826(5)
_cell_length_c                   37.85(2)
_cell_angle_alpha                90
_cell_angle_beta                 90
_cell_angle_gamma                90
_cell_volume                     5534.17
loop_
_atom_site_label
_atom_site_type_symbol
_atom_site_fract_x
_atom_site_fract_y
_atom_site_fract_z
Cd1 Cd 0.15243(3) 0.64658(9) 0.391358(19)
C1 C 0.0476(6) 0.7471(14) 0.3213(3)
C2 C -0.0215(6) 0.8140(16) 0.3073(3)
C3 C -0.0842(5) 0.8082(16) 0.3276(3)
H1 H -0.0824 0.7621 0.3502
C4 C -0.1492(6) 0.8698(14) 0.3147(3)
C5 C -0.2202(6) 0.8562(16) 0.3344(3)
C6 C -0.1525(6) 0.9377(16) 0.2800(3)
H2 H -0.1962 0.9738 0.2708
C7 C -0.0879(6) 0.9514(17) 0.2586(3)
H3 H -0.0883 1.0047 0.2366
C8 C -0.0252(6) 0.8807(14) 0.2726(3)
C9 C 0.0431(6) 0.8798(15) 0.2517(3)
C10 C 0.5383(7) 0.7626(15) 0.3261(3)
C11 C 0.4683(5) 0.6961(15) 0.3143(2)
C12 C 0.4074(5) 0.7023(16) 0.3360(3)
H4 H 0.4108 0.7529 0.3581
C13 C 0.3413(5) 0.6340(14) 0.3251(3)
C14 C 0.2769(6) 0.6458(15) 0.3486(3)
C15 C 0.3357(5) 0.5654(15) 0.2899(3)
H5 H 0.2916 0.5294 0.2813
C16 C 0.3953(5) 0.5531(15) 0.2689(3)
H6 H 0.3916 0.4975 0.2473
C17 C 0.4620(5) 0.6220(14) 0.2791(3)
C18 C 0.5263(6) 0.6221(15) 0.2576(3)
C37 C 0.2487(7) 0.7298(16) 0.4632(3)
H13 H 0.2846 0.7469 0.4465
C38 C 0.2636(7) 0.7551(16) 0.4992(3)
H14 H 0.3099 0.7813 0.5065
C39 C 0.2106(7) 0.7410(16) 0.5229(4)
H15 H 0.2197 0.7634 0.5466
C40 C 0.1410(6) 0.6926(17) 0.5122(3)
H16 H 0.1039 0.6847 0.5285
C41 C 0.1295(6) 0.6566(14) 0.4764(3)
C42 C 0.0591(6) 0.5912(14) 0.4638(3)
C43 C 0.0020(7) 0.5288(17) 0.4866(3)
H17 H 0.0087 0.5306 0.5109
C44 C -0.0588(6) 0.4698(18) 0.4738(3)
H18 H -0.0943 0.4295 0.4889
C45 C -0.0694(7) 0.4685(17) 0.4367(3)
H19 H -0.1127 0.4352 0.4267
C46 C -0.0118(6) 0.5197(16) 0.4161(3)
H20 H -0.0171 0.5118 0.3917
N1 N 0.1044(5) 0.7574(14) 0.2988(3)
H29 H 0.1449 0.7207 0.3066
N2 N 0.1034(4) 0.8221(15) 0.2643(2)
N3 N 0.5920(6) 0.7575(13) 0.3022(3)
H30 H 0.6319 0.8042 0.3081
N4 N 0.5883(5) 0.6824(15) 0.2685(2)
N9 N 0.1806(5) 0.6792(12) 0.4522(2)
N10 N 0.0503(5) 0.5791(13) 0.4280(2)
O1 O 0.0522(4) 0.6863(13) 0.3526(2)
O2 O 0.0381(4) 0.9413(13) 0.2196(2)
H33 H 0.0774 0.9365 0.2099
O3 O -0.2157(5) 0.8088(16) 0.3663(2)
O4 O -0.2762(4) 0.9021(13) 0.3206(3)
O5 O 0.5475(4) 0.8259(11) 0.35719(18)
O6 O 0.5209(4) 0.5576(13) 0.2248(2)
H34 H 0.5598 0.5639 0.2149
O7 O 0.2861(4) 0.6715(12) 0.38135(19)
O8 O 0.2155(4) 0.6135(11) 0.3348(2)
O17 O 0.1550(4) 0.9460(11) 0.3867(3)
H37 H 0.1930 1.0020 0.3824
H38 H 0.1197 1.0031 0.3789
O18 O 0.1620(3) 0.3547(9) 0.3905(3)
H39 H 0.2003 0.3075 0.3833
H40 H 0.1268 0.3042 0.3809
Cd2 Cd 1.09766(4) 0.10192(10) 0.058511(18)
C19 C 1.2146(6) -0.0019(14) 0.1253(3)
C20 C 1.2841(5) -0.0672(15) 0.1369(2)
C21 C 1.3435(5) -0.0604(15) 0.1149(3)
H7 H 1.3393 -0.0191 0.0920
C22 C 1.4115(6) -0.1180(14) 0.1280(3)
C23 C 1.4770(5) -0.1070(13) 0.1038(3)
C24 C 1.4163(6) -0.1927(15) 0.1614(3)
H8 H 1.4594 -0.2393 0.1690
C25 C 1.3562(5) -0.1975(14) 0.1835(2)
H9 H 1.3609 -0.2379 0.2065
C26 C 1.2898(6) -0.1430(15) 0.1716(3)
C27 C 1.2252(5) -0.1425(14) 0.1935(2)
C47 C 1.2603(6) 0.2252(16) 0.0308(3)
H21 H 1.2679 0.2325 0.0551
C48 C 1.3168(6) 0.2724(16) 0.0087(3)
H22 H 1.3609 0.3080 0.0175
C49 C 1.3026(7) 0.2623(16) -0.0273(3)
H23 H 1.3380 0.2951 -0.0432
C50 C 1.2375(6) 0.2051(17) -0.0403(3)
H24 H 1.2294 0.1958 -0.0645
C51 C 1.1852(6) 0.1621(15) -0.0161(3)
C52 C 1.1129(6) 0.0901(14) -0.0281(3)
C53 C 1.0969(6) 0.0678(19) -0.0635(3)
H25 H 1.1310 0.0951 -0.0805
C54 C 1.0302(7) 0.0047(17) -0.0740(3)
H26 H 1.0185 -0.0126 -0.0976
C55 C 0.9799(7) -0.0322(17) -0.0454(3)
H27 H 0.9344 -0.0740 -0.0504
C56 C 1.0002(7) -0.0049(16) -0.0118(4)
H28 H 0.9672 -0.0294 0.0059
N5 N 1.1637(5) -0.0827(15) 0.1831(2)
N6 N 1.1581(5) -0.0166(14) 0.1473(3)
H31 H 1.1167 0.0148 0.1398
N11 N 1.1968(5) 0.1708(13) 0.0200(2)
N12 N 1.0646(5) 0.0553(13) -0.0017(2)
O9 O 1.2310(4) -0.2055(12) 0.2261(2)
H35 H 1.1922 -0.1991 0.2362
O10 O 1.2029(4) 0.0533(14) 0.0934(2)
O11 O 1.5390(4) -0.1343(11) 0.1179(2)
O12 O 1.4695(4) -0.0783(12) 0.07147(18)
O19 O 1.0885(4) 0.4019(9) 0.0573(3)
H41 H 1.1218 0.4534 0.0683
H42 H 1.0487 0.4444 0.0636
O20 O 1.0974(4) -0.2018(11) 0.0630(3)
H43 H 1.0561 -0.1631 0.0580
H44 H 1.0941 -0.2560 0.0824
Cd2B Cd 1.59766(4) -0.10192(10) 0.058511(18)
O11B O 1.0390(4) 0.1343(11) 0.1179(2)
O12B O 0.9695(4) 0.0783(12) 0.07147(18)
C28 C 0.7037(7) 0.4884(15) 0.1262(4)
C29 C 0.7700(5) 0.5607(15) 0.1409(3)
C30 C 0.8335(5) 0.5600(15) 0.1183(3)
H10 H 0.8314 0.5229 0.0950
C31 C 0.8977(5) 0.6175(14) 0.1333(3)
C32 C 0.9660(5) 0.6081(15) 0.1104(3)
C33 C 0.8982(6) 0.6864(15) 0.1670(3)
H11 H 0.9409 0.7292 0.1760
C34 C 0.8363(6) 0.6939(15) 0.1882(3)
H12 H 0.8379 0.7383 0.2109
C35 C 0.7712(6) 0.6311(14) 0.1735(3)
C36 C 0.7062(6) 0.6288(15) 0.1962(3)
N7 N 0.6452(5) 0.5658(16) 0.1833(3)
N8 N 0.6468(5) 0.4940(14) 0.1495(3)
H32 H 0.6077 0.4476 0.1423
O13 O 0.7079(5) 0.6955(14) 0.2271(2)
H36 H 0.6687 0.6849 0.2365
O14 O 0.6965(4) 0.4223(12) 0.0964(2)
O15 O 1.0221(5) 0.6631(13) 0.1256(3)
O16 O 0.9623(5) 0.5417(16) 0.0804(3)
loop_
_geom_bond_atom_site_label_1
_geom_bond_atom_site_label_2
_geom_bond_site_symmetry_1
_geom_bond_site_symmetry_2
Cd1 N9 1_555 1_555
Cd2 N11 1_555 1_555
C1 C2 1_555 1_555
C2 C3 1_555 1_555
C3 H1 1_555 1_555
C4 C3 1_555 1_555
C5 C4 1_555 1_555
C6 C4 1_555 1_555
H2 C6 1_555 1_555
C7 C6 1_555 1_555
H3 C7 1_555 1_555
C8 C2 1_555 1_555
C9 C8 1_555 1_555
C10 C11 1_555 1_555
C11 C12 1_555 1_555
C12 H4 1_555 1_555
C13 C12 1_555 1_555
C14 C13 1_555 1_555
C15 C13 1_555 1_555
H5 C15 1_555 1_555
C16 C15 1_555 1_555
H6 C16 1_555 1_555
C17 C11 1_555 1_555
C18 C17 1_555 1_555
C19 C20 1_555 1_555
C20 C21 1_555 1_555
C21 H7 1_555 1_555
C22 C21 1_555 1_555
C23 C22 1_555 1_555
C24 C22 1_555 1_555
H8 C24 1_555 1_555
C25 C24 1_555 1_555
H9 C25 1_555 1_555
C26 C20 1_555 1_555
C27 C26 1_555 1_555
C28 C29 1_555 1_555
C29 C30 1_555 1_555
C30 H10 1_555 1_555
C31 C30 1_555 1_555
C32 C31 1_555 1_555
C33 C31 1_555 1_555
H11 C33 1_555 1_555
C34 C33 1_555 1_555
H12 C34 1_555 1_555
C35 C29 1_555 1_555
C36 C35 1_555 1_555
C37 H13 1_555 1_555
C38 C37 1_555 1_555
H14 C38 1_555 1_555
C39 C38 1_555 1_555
H15 C39 1_555 1_555
C40 C39 1_555 1_555
H16 C40 1_555 1_555
C41 C40 1_555 1_555
C42 C41 1_555 1_555
C43 C42 1_555 1_555
H17 C43 1_555 1_555
C44 C43 1_555 1_555
H18 C44 1_555 1_555
C45 C44 1_555 1_555
H19 C45 1_555 1_555
C46 C45 1_555 1_555
H20 C46 1_555 1_555
C47 H21 1_555 1_555
C48 C47 1_555 1_555
H22 C48 1_555 1_555
C49 C48 1_555 1_555
H23 C49 1_555 1_555
C50 C49 1_555 1_555
H24 C50 1_555 1_555
C51 C50 1_555 1_555
C52 C51 1_555 1_555
C53 C52 1_555 1_555
H25 C53 1_555 1_555
C54 C53 1_555 1_555
H26 C54 1_555 1_555
C55 C54 1_555 1_555
H27 C55 1_555 1_555
C56 C55 1_555 1_555
H28 C56 1_555 1_555
N1 C1 1_555 1_555
H29 N1 1_555 1_555
N2 C9 1_555 1_555
N3 C10 1_555 1_555
H30 N3 1_555 1_555
N4 C18 1_555 1_555
N5 C27 1_555 1_555
N6 C19 1_555 1_555
H31 N6 1_555 1_555
N7 C36 1_555 1_555
N8 C28 1_555 1_555
H32 N8 1_555 1_555
N9 C37 1_555 1_555
N10 Cd1 1_555 1_555
N11 C47 1_555 1_555
N12 Cd2 1_555 1_555
O1 Cd1 1_555 1_555
O2 C9 1_555 1_555
H33 O2 1_555 1_555
O3 C5 1_555 1_555
O4 C5 1_555 1_555
O5 C10 1_555 1_555
O6 C18 1_555 1_555
H34 O6 1_555 1_555
O7 C14 1_555 1_555
O8 Cd1 1_555 1_555
O9 C27 1_555 1_555
H35 O9 1_555 1_555
O10 Cd2 1_555 1_555
O11 C23 1_555 1_555
O12 C23 1_555 1_555
O13 C36 1_555 1_555
H36 O13 1_555 1_555
O14 C28 1_555 1_555
O15 C32 1_555 1_555
O16 C32 1_555 1_555
O17 Cd1 1_555 1_555
H37 O17 1_555 1_555
H38 O17 1_555 1_555
O18 Cd1 1_555 1_555
H39 O18 1_555 1_555
H40 O18 1_555 1_555
O19 Cd2 1_555 1_555
H41 O19 1_555 1_555
H42 O19 1_555 1_555
O20 Cd2 1_555 1_555
H43 O20 1_555 1_555
H44 O20 1_555 1_555
Cd2B O11 1_555 1_555
O11B Cd2 1_555 1_555
O12B Cd2 1_555 1_555
C1 O1 1_555 1_555
C7 C8 1_555 1_555
C14 O8 1_555 1_555
C16 C17 1_555 1_555
C19 O10 1_555 1_555
C25 C26 1_555 1_555
C34 C35 1_555 1_555
C41 N9 1_555 1_555
C42 N10 1_555 1_555
C46 N10 1_555 1_555
C51 N11 1_555 1_555
C52 N12 1_555 1_555
C56 N12 1_555 1_555
N1 N2 1_555 1_555
N3 N4 1_555 1_555
N5 N6 1_555 1_555
N7 N8 1_555 1_555
O12 Cd2B 1_555 1_555

#END
