
#######################################################################
#
#                 Cambridge Crystallographic Data Centre
#                                CCDC 
#
#######################################################################
#
# If this CIF has been generated from an entry in the Cambridge 
# Structural Database, then it will include bibliographic, chemical, 
# crystal, experimental, refinement or atomic coordinate data resulting 
# from the CCDC's data processing and validation procedures.
#
#######################################################################

data_GAXNIE
_symmetry_cell_setting           triclinic
_symmetry_space_group_name_H-M   'P -1'
_symmetry_Int_Tables_number      2
_space_group_name_Hall           '-P 1'
loop_
_symmetry_equiv_pos_site_id
_symmetry_equiv_pos_as_xyz
1 x,y,z
2 -x,-y,-z
_cell_length_a                   6.6226(13)
_cell_length_b                   9.6570(19)
_cell_length_c                   9.752(2)
_cell_angle_alpha                95.92(3)
_cell_angle_beta                 108.90(3)
_cell_angle_gamma                94.26(3)
_cell_volume                     583.055
loop_
_atom_site_label
_atom_site_type_symbol
_atom_site_fract_x
_atom_site_fract_y
_atom_site_fract_z
Cu1 Cu 1.42629(7) -0.13297(5) 0.45630(5)
C1 C 0.7757(6) -0.1339(4) 0.2343(4)
C2 C 0.7427(6) 0.0164(4) 0.2427(4)
C3 C 0.5414(6) 0.0603(4) 0.1833(4)
H1 H 0.4225 -0.0057 0.1370
C4 C 0.5166(6) 0.2012(4) 0.1925(4)
C5 C 0.6998(6) 0.3006(4) 0.2624(4)
C6 C 0.8971(6) 0.2561(4) 0.3239(4)
H2 H 1.0154 0.3217 0.3731
C7 C 0.9228(5) 0.1140(4) 0.3137(4)
C8 C 1.1330(6) 0.0688(4) 0.3777(4)
C9 C 0.3025(6) 0.2532(4) 0.1348(4)
C10 C 0.6888(6) 0.4564(4) 0.2751(4)
N1 N 0.9756(5) -0.1618(3) 0.2987(4)
N2 N 1.1594(5) -0.0658(3) 0.3705(3)
O1 O 0.6272(4) -0.2295(3) 0.1698(3)
O2 O 1.2922(4) 0.1626(3) 0.4435(3)
O3 O 0.2757(5) 0.3759(3) 0.1553(4)
O4 O 0.1463(5) 0.1542(3) 0.0609(3)
H3 H 0.0363 0.1898 0.0234
O5 O 0.6873(5) 0.5067(3) 0.1545(3)
H4 H 0.6589 0.5879 0.1591
O6 O 0.6987(6) 0.5255(3) 0.3862(3)
O7 O 1.2365(5) -0.3776(3) 0.3712(4)
H5 H 1.2357 -0.3952 0.2838
H6 H 1.2627 -0.4503 0.4133
H7 H 0.984(10) -0.257(7) 0.305(7)
Cu1A Cu 1.57371(7) 0.13297(5) 0.54370(5)
O2A O 1.7078(4) -0.1626(3) 0.5565(3)
O8 O 0.1858(6) 0.7078(5) 0.0553(4)
H8 H 0.164(9) 0.618(6) 0.017(6)
H9 H 0.317(13) 0.740(8) 0.105(8)
loop_
_geom_bond_atom_site_label_1
_geom_bond_atom_site_label_2
_geom_bond_site_symmetry_1
_geom_bond_site_symmetry_2
Cu1 N2 1_555 1_555
C1 C2 1_555 1_555
C2 C3 1_555 1_555
C3 H1 1_555 1_555
C4 C3 1_555 1_555
C5 C4 1_555 1_555
C6 C5 1_555 1_555
H2 C6 1_555 1_555
C7 C2 1_555 1_555
C8 C7 1_555 1_555
C9 C4 1_555 1_555
C10 C5 1_555 1_555
N1 C1 1_555 1_555
N2 C8 1_555 1_555
O1 C1 1_555 1_555
O2 C8 1_555 1_555
O3 C9 1_555 1_555
O4 C9 1_555 1_555
H3 O4 1_555 1_555
O5 C10 1_555 1_555
H4 O5 1_555 1_555
O6 C10 1_555 1_555
O7 Cu1 1_555 1_555
H5 O7 1_555 1_555
H6 O7 1_555 1_555
O8 H8 1_555 1_555
H7 N1 1_555 1_555
H9 O8 1_555 1_555
Cu1A O2 1_555 1_555
O2A Cu1 1_555 1_555
C6 C7 1_555 1_555
N1 N2 1_555 1_555

#END
