
#######################################################################
#
#                 Cambridge Crystallographic Data Centre
#                                CCDC 
#
#######################################################################
#
# If this CIF has been generated from an entry in the Cambridge 
# Structural Database, then it will include bibliographic, chemical, 
# crystal, experimental, refinement or atomic coordinate data resulting 
# from the CCDC's data processing and validation procedures.
#
#######################################################################

data_GAXNEA
_symmetry_cell_setting           triclinic
_symmetry_space_group_name_H-M   'P -1'
_symmetry_Int_Tables_number      2
_space_group_name_Hall           '-P 1'
loop_
_symmetry_equiv_pos_site_id
_symmetry_equiv_pos_as_xyz
1 x,y,z
2 -x,-y,-z
_cell_length_a                   6.4427(13)
_cell_length_b                   9.5515(19)
_cell_length_c                   10.224(2)
_cell_angle_alpha                107.45(3)
_cell_angle_beta                 91.15(3)
_cell_angle_gamma                101.70(3)
_cell_volume                     585.527
loop_
_atom_site_label
_atom_site_type_symbol
_atom_site_fract_x
_atom_site_fract_y
_atom_site_fract_z
Fe1 Fe 0.29908(19) 0.19578(13) 0.66368(11)
Fe2 Fe 0.5000 0.5000 1.5000
C1 C 0.2680(13) 0.0728(10) 0.8574(9)
C2 C 0.2520(13) 0.0108(10) 0.9752(8)
C3 C 0.2935(13) 0.1039(9) 1.1074(8)
H1 H 0.3345 0.2073 1.1244
C4 C 0.2748(13) 0.0454(9) 1.2181(8)
C5 C 0.2185(12) -0.1115(9) 1.1920(8)
C6 C 0.1823(13) -0.2037(9) 1.0573(9)
H2 H 0.1496 -0.3074 1.0396
C7 C 0.1936(13) -0.1454(10) 0.9459(8)
C8 C 0.1462(13) -0.2420(10) 0.8046(9)
C9 C 0.3141(13) 0.1526(10) 1.3606(9)
C10 C 0.1991(12) -0.1870(8) 1.3087(8)
N1 N 0.2326(12) -0.0149(8) 0.7304(7)
N2 N 0.1702(13) -0.1713(10) 0.7089(8)
H3 H 0.1446 -0.2276 0.6246
O1 O 0.3184(10) 0.2135(7) 0.8754(6)
O2 O 0.0856(11) -0.3829(8) 0.7721(7)
O3 O 0.3861(12) 0.2890(6) 1.3734(7)
O4 O 0.2688(11) 0.0983(7) 1.4579(6)
O5 O 0.3637(9) -0.2141(6) 1.3455(6)
O6 O 0.0193(10) -0.2246(7) 1.3396(6)
O8 O 0.7856(10) 0.4363(7) 1.5442(6)
H6 H 0.7514 0.3624 1.5760
H7 H 0.9146 0.4338 1.5591
O9 O 0.3847(9) 0.4407(7) 1.6910(6)
H8 H 0.2530 0.4411 1.6859
H9 H 0.4719 0.4578 1.7606
Fe1A Fe 0.70092(19) 0.80422(13) 2.33632(11)
Fe1_2 Fe 0.29908(19) 0.19578(13) 1.66368(11)
Fe1A_2 Fe 0.70092(19) -0.19578(13) 1.33632(11)
Fe1A_3 Fe -0.29908(19) -0.19578(13) 1.33632(11)
Fe1A_4 Fe 0.70092(19) 0.80422(13) 1.33632(11)
Fe1_3 Fe 0.29908(19) 1.19578(13) 1.66368(11)
Fe1_4 Fe 1.29908(19) 1.19578(13) 1.66368(11)
C1A C 0.7320(13) 0.9272(10) 2.1426(9)
C2A C 0.7480(13) 0.9892(10) 2.0248(8)
C3A C 0.7065(13) 0.8961(9) 1.8926(8)
H1A H 0.6655 0.7927 1.8756
C4A C 0.7252(13) 0.9546(9) 1.7819(8)
C5A C 0.7815(12) 1.1115(9) 1.8080(8)
C6A C 0.8177(13) 1.2037(9) 1.9427(9)
H2A H 0.8504 1.3074 1.9604
C7A C 0.8064(13) 1.1454(10) 2.0541(8)
C8A C 0.8538(13) 1.2420(10) 2.1954(9)
C9A C 0.6859(13) 0.8474(10) 1.6394(9)
C10A C 0.8009(12) 1.1870(8) 1.6913(8)
N1A N 0.7674(12) 1.0149(8) 2.2696(7)
N2A N 0.8298(13) 1.1713(10) 2.2911(8)
H3A H 0.8554 1.2276 2.3754
O1A O 0.6816(10) 0.7865(7) 2.1246(6)
O2A O 0.9144(11) 1.3829(8) 2.2279(7)
O3A O 0.6139(12) 0.7110(6) 1.6266(7)
O4A O 0.7312(11) 0.9017(7) 1.5421(6)
O4_2 O 0.2688(11) 0.0983(7) 0.4579(6)
O4A_2 O 0.7312(11) 0.9017(7) 2.5421(6)
O5A O 0.6363(9) 1.2141(6) 1.6545(6)
O5A_2 O 0.6363(9) 0.2141(6) 0.6545(6)
O5_2 O 0.3637(9) 0.7859(6) 2.3455(6)
O6A O 0.9807(10) 1.2246(7) 1.6604(6)
O6A_2 O -0.0193(10) 0.2246(7) 0.6604(6)
O6_2 O 1.0193(10) 0.7754(7) 2.3396(6)
O8A O 0.2144(10) 0.5637(7) 1.4558(6)
H6A H 0.2486 0.6376 1.4240
H7A H 0.0854 0.5662 1.4409
O9A O 0.6153(9) 0.5593(7) 1.3090(6)
O9_2 O 0.3847(9) 0.4407(7) 0.6910(6)
O9A_2 O 0.6153(9) 0.5593(7) 2.3090(6)
H8A H 0.7470 0.5589 1.3141
H8_2 H 0.2530 0.4411 0.6859
H8A_2 H 0.7470 0.5589 2.3141
H9A H 0.5281 0.5422 1.2394
H9_2 H 0.4719 0.4578 0.7606
H9A_2 H 0.5281 0.5422 2.2394
O7 O 0.3082(12) 0.4662(8) 0.1020(7)
H4 H 0.1784 0.4576 0.1188
H5 H 0.3281 0.3987 0.0304
loop_
_geom_bond_atom_site_label_1
_geom_bond_atom_site_label_2
_geom_bond_site_symmetry_1
_geom_bond_site_symmetry_2
Fe1 N1 1_555 1_555
Fe2 O3 1_555 1_555
C1 C2 1_555 1_555
C2 C3 1_555 1_555
C3 H1 1_555 1_555
C4 C3 1_555 1_555
C5 C4 1_555 1_555
C6 C5 1_555 1_555
H2 C6 1_555 1_555
C7 C2 1_555 1_555
C8 C7 1_555 1_555
C9 C4 1_555 1_555
C10 C5 1_555 1_555
N1 C1 1_555 1_555
N2 C8 1_555 1_555
H3 N2 1_555 1_555
O1 Fe1 1_555 1_555
O2 C8 1_555 1_555
O3 C9 1_555 1_555
O4 C9 1_555 1_555
O5 C10 1_555 1_555
O6 C10 1_555 1_555
O7 H4 1_555 1_555
H5 O7 1_555 1_555
O8 Fe2 1_555 1_555
H6 O8 1_555 1_555
H7 O8 1_555 1_555
O9 Fe2 1_555 1_555
H8 O9 1_555 1_555
H9 O9 1_555 1_555
Fe1A N1A 1_555 1_555
Fe1_2 O4 1_555 1_555
Fe1A_2 O5 1_555 1_555
Fe1A_3 O6 1_555 1_555
Fe1A_4 O4A 1_555 1_555
Fe1_3 O5A 1_555 1_555
Fe1_4 O6A 1_555 1_555
C1A C2A 1_555 1_555
C2A C3A 1_555 1_555
C3A H1A 1_555 1_555
C4A C3A 1_555 1_555
C5A C4A 1_555 1_555
C6A C5A 1_555 1_555
H2A C6A 1_555 1_555
C7A C2A 1_555 1_555
C8A C7A 1_555 1_555
C9A C4A 1_555 1_555
C10A C5A 1_555 1_555
N1A C1A 1_555 1_555
N2A C8A 1_555 1_555
H3A N2A 1_555 1_555
O1A Fe1A 1_555 1_555
O2A C8A 1_555 1_555
O3A Fe2 1_555 1_555
O4A C9A 1_555 1_555
O4_2 Fe1 1_555 1_555
O4A_2 Fe1A 1_555 1_555
O5A C10A 1_555 1_555
O5A_2 Fe1 1_555 1_555
O5_2 Fe1A 1_555 1_555
O6A C10A 1_555 1_555
O6A_2 Fe1 1_555 1_555
O6_2 Fe1A 1_555 1_555
O8A Fe2 1_555 1_555
H6A O8A 1_555 1_555
H7A O8A 1_555 1_555
O9A Fe2 1_555 1_555
O9_2 Fe1 1_555 1_555
O9A_2 Fe1A 1_555 1_555
H8A O9A 1_555 1_555
H8_2 O9_2 1_555 1_555
H8A_2 O9A_2 1_555 1_555
H9A O9A 1_555 1_555
H9_2 O9_2 1_555 1_555
H9A_2 O9A_2 1_555 1_555
C1 O1 1_555 1_555
C6 C7 1_555 1_555
N1 N2 1_555 1_555
O9 Fe1_2 1_555 1_555
Fe1A_4 O9A 1_555 1_555
C1A O1A 1_555 1_555
C6A C7A 1_555 1_555
C9A O3A 1_555 1_555
N1A N2A 1_555 1_555

#END
