
#######################################################################
#
#                 Cambridge Crystallographic Data Centre
#                                CCDC 
#
#######################################################################
#
# If this CIF has been generated from an entry in the Cambridge 
# Structural Database, then it will include bibliographic, chemical, 
# crystal, experimental, refinement or atomic coordinate data resulting 
# from the CCDC's data processing and validation procedures.
#
#######################################################################

data_GAXNUQ
_symmetry_cell_setting           monoclinic
_symmetry_space_group_name_H-M   'P 21/c'
_symmetry_Int_Tables_number      14
_space_group_name_Hall           '-P 2ybc'
loop_
_symmetry_equiv_pos_site_id
_symmetry_equiv_pos_as_xyz
1 x,y,z
2 -x,1/2+y,1/2-z
3 -x,-y,-z
4 x,1/2-y,1/2+z
_cell_length_a                   9.4252(16)
_cell_length_b                   20.219(3)
_cell_length_c                   7.0187(12)
_cell_angle_alpha                90
_cell_angle_beta                 108.742(2)
_cell_angle_gamma                90
_cell_volume                     1266.62
loop_
_atom_site_label
_atom_site_type_symbol
_atom_site_fract_x
_atom_site_fract_y
_atom_site_fract_z
Zn1 Zn 0.77013(5) 0.98878(2) 0.55455(7)
C1 C 0.8819(4) 0.86439(16) 0.5831(5)
C2 C 0.9716(4) 0.80526(16) 0.6574(5)
C3 C 0.9067(4) 0.74305(16) 0.5894(5)
C4 C 0.7557(4) 0.74092(17) 0.4416(5)
C5 C 1.2135(4) 0.62693(16) 0.8713(5)
C6 C 1.1281(4) 0.68748(16) 0.7973(5)
C7 C 1.1927(4) 0.74946(16) 0.8662(5)
C8 C 1.3421(4) 0.75067(17) 1.0175(5)
C9 C 0.9853(4) 0.68465(16) 0.6604(5)
H1 H 0.9415 0.6439 0.6154
C10 C 1.1142(4) 0.80742(16) 0.7976(5)
H2 H 1.1573 0.8480 0.8459
N1 N 0.7479(3) 0.86132(13) 0.4521(4)
N2 N 0.6914(3) 0.79943(13) 0.3873(4)
H3 H 0.6030 0.7986 0.3004
N3 N 1.3468(3) 0.62912(14) 1.0095(4)
N4 N 1.4028(3) 0.69144(14) 1.0757(4)
H4 H 1.4890 0.6919 1.1676
N5 N 0.5424(3) 0.97881(13) 0.4552(4)
H5 H 0.5099 0.9859 0.3215
H6 H 0.5206 0.9366 0.4752
O1 O 0.9333(3) 0.92301(11) 0.6496(4)
O2 O 0.6911(3) 0.68820(12) 0.3705(4)
O3 O 1.1550(3) 0.57057(11) 0.8014(4)
O4 O 1.4076(3) 0.80281(11) 1.0938(4)
O5 O 0.8012(3) 1.01295(12) 0.2793(4)
H7 H 0.8675 1.0403 0.2709
H8 H 0.7281 1.0303 0.1885
Zn1B Zn 0.22987(5) 1.01122(2) 0.44545(7)
Zn1A Zn 1.22987(5) 0.48878(2) 0.94545(7)
Zn1C Zn -0.22987(5) 1.51122(2) 0.05455(7)
C1B C 0.1181(4) 1.13561(16) 0.4169(5)
C2B C 0.0284(4) 1.19474(16) 0.3426(5)
C3B C 0.0933(4) 1.25695(16) 0.4106(5)
C4B C 0.2443(4) 1.25908(17) 0.5584(5)
C5B C -0.2135(4) 1.37307(16) 0.1287(5)
C6B C -0.1281(4) 1.31252(16) 0.2027(5)
C7B C -0.1927(4) 1.25054(16) 0.1338(5)
C8B C -0.3421(4) 1.24933(17) -0.0175(5)
C9B C 0.0147(4) 1.31535(16) 0.3396(5)
H1B H 0.0585 1.3561 0.3846
C10B C -0.1142(4) 1.19258(16) 0.2024(5)
H2B H -0.1573 1.1520 0.1541
N1B N 0.2521(3) 1.13868(13) 0.5479(4)
N2B N 0.3086(3) 1.20057(13) 0.6127(4)
H3B H 0.3970 1.2014 0.6996
N3B N -0.3468(3) 1.37088(14) -0.0095(4)
N4B N -0.4028(3) 1.30856(14) -0.0757(4)
H4B H -0.4890 1.3081 -0.1676
N5B N 0.4576(3) 1.02119(13) 0.5448(4)
H5B H 0.4901 1.0141 0.6785
H6B H 0.4794 1.0634 0.5248
O1B O 0.0667(3) 1.07699(11) 0.3504(4)
O2B O 0.3089(3) 1.31180(12) 0.6295(4)
O3B O -0.1550(3) 1.42943(11) 0.1986(4)
O3A O 0.8450(3) 1.07057(11) 0.6986(4)
O3C O 0.1550(3) 0.92943(11) 0.3014(4)
O4B O -0.4076(3) 1.19719(11) -0.0938(4)
O5B O 0.1988(3) 0.98705(12) 0.7207(4)
H7B H 0.1325 0.9597 0.7291
H8B H 0.2719 0.9697 0.8115
O6 O 0.4384(3) 0.93109(13) 0.9985(4)
H9 H 0.4246 0.8916 1.0301
H10 H 0.5191 0.9316 0.9691
O7 O 0.7052(3) 0.94610(13) 0.8683(4)
H11 H 0.7612 0.9607 0.9809
H12 H 0.7137 0.9048 0.8950
loop_
_geom_bond_atom_site_label_1
_geom_bond_atom_site_label_2
_geom_bond_site_symmetry_1
_geom_bond_site_symmetry_2
Zn1 N5 1_555 1_555
C1 C2 1_555 1_555
C2 C3 1_555 1_555
C3 C4 1_555 1_555
C4 N2 1_555 1_555
C5 C6 1_555 1_555
C6 C7 1_555 1_555
C7 C8 1_555 1_555
C8 N4 1_555 1_555
C9 C3 1_555 1_555
H1 C9 1_555 1_555
C10 C2 1_555 1_555
H2 C10 1_555 1_555
N1 C1 1_555 1_555
N2 N1 1_555 1_555
H3 N2 1_555 1_555
N3 C5 1_555 1_555
N4 N3 1_555 1_555
H4 N4 1_555 1_555
N5 H5 1_555 1_555
H6 N5 1_555 1_555
O1 Zn1 1_555 1_555
O2 C4 1_555 1_555
O3 C5 1_555 1_555
O4 C8 1_555 1_555
O5 Zn1 1_555 1_555
H7 O5 1_555 1_555
H8 O5 1_555 1_555
O6 H9 1_555 1_555
H10 O6 1_555 1_555
O7 H11 1_555 1_555
H12 O7 1_555 1_555
Zn1B N5B 1_555 1_555
Zn1A O3 1_555 1_555
Zn1C O3B 1_555 1_555
C1B C2B 1_555 1_555
C2B C3B 1_555 1_555
C3B C4B 1_555 1_555
C4B N2B 1_555 1_555
C5B C6B 1_555 1_555
C6B C7B 1_555 1_555
C7B C8B 1_555 1_555
C8B N4B 1_555 1_555
C9B C3B 1_555 1_555
H1B C9B 1_555 1_555
C10B C2B 1_555 1_555
H2B C10B 1_555 1_555
N1B C1B 1_555 1_555
N2B N1B 1_555 1_555
H3B N2B 1_555 1_555
N3B C5B 1_555 1_555
N4B N3B 1_555 1_555
H4B N4B 1_555 1_555
N5B N5 1_555 1_555
H5B N5B 1_555 1_555
H6B N5B 1_555 1_555
O1B Zn1B 1_555 1_555
O2B C4B 1_555 1_555
O3B C5B 1_555 1_555
O3A Zn1 1_555 1_555
O3C Zn1B 1_555 1_555
O4B C8B 1_555 1_555
O5B Zn1B 1_555 1_555
H7B O5B 1_555 1_555
H8B O5B 1_555 1_555
C1 O1 1_555 1_555
C6 C9 1_555 1_555
C7 C10 1_555 1_555
C1B O1B 1_555 1_555
C6B C9B 1_555 1_555
C7B C10B 1_555 1_555

#END
