
#######################################################################
#
#                 Cambridge Crystallographic Data Centre
#                                CCDC 
#
#######################################################################
#
# If this CIF has been generated from an entry in the Cambridge 
# Structural Database, then it will include bibliographic, chemical, 
# crystal, experimental, refinement or atomic coordinate data resulting 
# from the CCDC's data processing and validation procedures.
#
#######################################################################

data_GAXPUS
_symmetry_cell_setting           monoclinic
_symmetry_space_group_name_H-M   'P 21/c'
_symmetry_Int_Tables_number      14
_space_group_name_Hall           '-P 2ybc'
loop_
_symmetry_equiv_pos_site_id
_symmetry_equiv_pos_as_xyz
1 x,y,z
2 -x,1/2+y,1/2-z
3 -x,-y,-z
4 x,1/2-y,1/2+z
_cell_length_a                   11.413(9)
_cell_length_b                   17.212(13)
_cell_length_c                   11.724(9)
_cell_angle_alpha                90
_cell_angle_beta                 116.240(7)
_cell_angle_gamma                90
_cell_volume                     2065.74
loop_
_atom_site_label
_atom_site_type_symbol
_atom_site_fract_x
_atom_site_fract_y
_atom_site_fract_z
Cd1 Cd 0.884027(16) 0.165871(11) 1.088313(16)
C1 C 0.7360(2) 0.27633(16) 1.1371(3)
C2 C 0.6350(3) 0.33155(16) 1.1453(3)
H1 H 0.6574 0.3424 1.2337
H2 H 0.6349 0.3802 1.1037
C3 C 0.5004(2) 0.29483(15) 1.0817(3)
C4 C 0.4578(3) 0.24325(16) 1.1479(3)
H3 H 0.5122 0.2324 1.2328
C5 C 0.3357(3) 0.20794(15) 1.0893(3)
H4 H 0.3098 0.1742 1.1357
C6 C 0.2522(2) 0.22231(15) 0.9626(2)
C7 C 0.2935(3) 0.27404(17) 0.8965(3)
H5 H 0.2387 0.2850 0.8118
C8 C 0.4156(3) 0.30963(17) 0.9552(3)
H6 H 0.4407 0.3440 0.9089
C9 C 0.1224(3) 0.18071(19) 0.8972(3)
H7 H 0.1385 0.1290 0.8744
H8 H 0.0695 0.2080 0.8187
C10 C 0.0426(3) 0.17270(15) 0.9724(3)
C11 C 0.5822(2) 0.10944(16) 0.9425(2)
H9 H 0.5548 0.1547 0.9669
C12 C 0.5778(3) -0.00260(16) 0.8544(3)
H10 H 0.5490 -0.0483 0.8079
C13 C 0.7020(3) 0.02064(17) 0.9199(3)
H11 H 0.7748 -0.0070 0.9268
C14 C 0.3579(2) 0.05619(17) 0.8088(2)
H12 H 0.3287 0.0970 0.8472
H13 H 0.3246 0.0071 0.8231
C15 C 0.3041(2) 0.07075(16) 0.6670(2)
H14 H 0.3279 0.1227 0.6527
H15 H 0.3424 0.0340 0.6305
C16 C 0.1568(2) 0.06245(17) 0.6020(2)
H16 H 0.1322 0.0149 0.6301
H17 H 0.1177 0.1057 0.6258
C17 C 0.0298(2) 0.11409(14) 0.3813(2)
H18 H -0.0014 0.1581 0.4048
C18 C 0.0685(3) 0.02662(16) 0.2699(3)
H19 H 0.0682 -0.0003 0.2010
C19 C 0.1321(3) 0.00428(17) 0.3929(3)
H20 H 0.1826 -0.0402 0.4241
N1 N 0.7054(2) 0.09166(13) 0.9755(2)
N2 N 0.50137(19) 0.05406(12) 0.86927(19)
N3 N 0.10713(19) 0.06077(12) 0.46294(19)
N4 N 0.00370(18) 0.09598(12) 0.26272(18)
O1 O 0.7647(3) 0.28280(14) 1.0473(3)
O2 O 0.7821(3) 0.22331(15) 1.2153(2)
O3 O 0.0415(2) 0.22700(11) 1.0440(2)
O4 O -0.0220(2) 0.11235(14) 0.9589(2)
Cd1_2 Cd -0.115973(16) 0.165871(11) 0.088313(16)
Cd1_3 Cd -0.115973(16) 0.165871(11) 1.088313(16)
N4_2 N 1.00370(18) 0.09598(12) 1.26272(18)
O3_2 O 1.0415(2) 0.22700(11) 1.0440(2)
O4_2 O 0.9780(2) 0.11235(14) 0.9589(2)
H21 H 0.705(4) 0.357(2) 0.899(4)
H22 H 0.712(4) 0.354(3) 0.812(4)
O5 O 0.6882(3) 0.38349(15) 0.8441(3)
loop_
_geom_bond_atom_site_label_1
_geom_bond_atom_site_label_2
_geom_bond_site_symmetry_1
_geom_bond_site_symmetry_2
Cd1 N1 1_555 1_555
C1 C2 1_555 1_555
C2 H1 1_555 1_555
H2 C2 1_555 1_555
C3 C2 1_555 1_555
C4 C3 1_555 1_555
H3 C4 1_555 1_555
C5 C4 1_555 1_555
H4 C5 1_555 1_555
C6 C5 1_555 1_555
C7 C6 1_555 1_555
H5 C7 1_555 1_555
C8 C3 1_555 1_555
H6 C8 1_555 1_555
C9 C6 1_555 1_555
H7 C9 1_555 1_555
H8 C9 1_555 1_555
C10 C9 1_555 1_555
C11 H9 1_555 1_555
C12 H10 1_555 1_555
C13 C12 1_555 1_555
H11 C13 1_555 1_555
C14 H12 1_555 1_555
H13 C14 1_555 1_555
C15 C14 1_555 1_555
H14 C15 1_555 1_555
H15 C15 1_555 1_555
C16 C15 1_555 1_555
H16 C16 1_555 1_555
H17 C16 1_555 1_555
C17 H18 1_555 1_555
C18 H19 1_555 1_555
C19 C18 1_555 1_555
H20 C19 1_555 1_555
H21 O5 1_555 1_555
H22 O5 1_555 1_555
N1 C11 1_555 1_555
N2 C11 1_555 1_555
N3 C16 1_555 1_555
N4 C17 1_555 1_555
O1 Cd1 1_555 1_555
O2 Cd1 1_555 1_555
O3 C10 1_555 1_555
O4 C10 1_555 1_555
Cd1_2 N4 1_555 1_555
Cd1_3 O3 1_555 1_555
N4_2 Cd1 1_555 1_555
O3_2 Cd1 1_555 1_555
O4_2 Cd1 1_555 1_555
C1 O1 1_555 1_555
C1 O2 1_555 1_555
C7 C8 1_555 1_555
C12 N2 1_555 1_555
C13 N1 1_555 1_555
C14 N2 1_555 1_555
C17 N3 1_555 1_555
C18 N4 1_555 1_555
C19 N3 1_555 1_555
O4 Cd1_3 1_555 1_555

#END
