
#######################################################################
#
#                 Cambridge Crystallographic Data Centre
#                                CCDC 
#
#######################################################################
#
# If this CIF has been generated from an entry in the Cambridge 
# Structural Database, then it will include bibliographic, chemical, 
# crystal, experimental, refinement or atomic coordinate data resulting 
# from the CCDC's data processing and validation procedures.
#
#######################################################################

data_GAXPAY
_symmetry_cell_setting           monoclinic
_symmetry_space_group_name_H-M   'P 21/c'
_symmetry_Int_Tables_number      14
_space_group_name_Hall           '-P 2ybc'
loop_
_symmetry_equiv_pos_site_id
_symmetry_equiv_pos_as_xyz
1 x,y,z
2 -x,1/2+y,1/2-z
3 -x,-y,-z
4 x,1/2-y,1/2+z
_cell_length_a                   9.0802(18)
_cell_length_b                   11.246(2)
_cell_length_c                   19.815(6)
_cell_angle_alpha                90
_cell_angle_beta                 109.95(3)
_cell_angle_gamma                90
_cell_volume                     1902
loop_
_atom_site_label
_atom_site_type_symbol
_atom_site_fract_x
_atom_site_fract_y
_atom_site_fract_z
Zn1 Zn 0.91992(6) 0.01307(5) 0.27853(3)
C1 C 0.7316(5) -0.0774(4) 0.1454(2)
C2 C 0.7174(5) -0.1360(4) 0.0743(3)
H1 H 0.7327 -0.0750 0.0428
H2 H 0.8031 -0.1921 0.0832
C3 C 0.5672(5) -0.2010(4) 0.0341(3)
C4 C 0.4688(6) -0.1525(4) -0.0296(3)
H3 H 0.4961 -0.0809 -0.0457
C5 C 0.3308(6) -0.2082(5) -0.0700(3)
H4 H 0.2648 -0.1736 -0.1121
C6 C 0.2929(6) -0.3149(5) -0.0471(3)
H5 H 0.2014 -0.3537 -0.0741
C7 C 0.3886(6) -0.3647(5) 0.0153(3)
H6 H 0.3618 -0.4377 0.0299
C8 C 0.5267(5) -0.3080(4) 0.0577(3)
C9 C 0.6219(6) -0.3632(5) 0.1282(3)
H7 H 0.5633 -0.4301 0.1369
H8 H 0.6317 -0.3054 0.1658
C10 C 0.7842(6) -0.4065(4) 0.1359(3)
C11 C 0.6687(7) 0.2078(5) 0.2541(3)
H9 H 0.6071 0.1829 0.2084
C12 C 0.6357(7) 0.3008(5) 0.2899(3)
H10 H 0.5492 0.3509 0.2739
C13 C 0.8522(6) 0.2178(4) 0.3554(3)
H11 H 0.9424 0.2013 0.3941
C14 C 0.7707(7) 0.3884(4) 0.4138(3)
H12 H 0.8337 0.3506 0.4583
H13 H 0.6678 0.4035 0.4167
C15 C 0.8458(7) 0.5064(4) 0.4065(3)
H14 H 0.8752 0.5484 0.4519
H15 H 0.9406 0.4911 0.3957
C16 C 0.7411(7) 0.5822(5) 0.3499(3)
H16 H 0.6356 0.5771 0.3513
H17 H 0.7391 0.5538 0.3034
C17 C 0.8508(6) 0.7687(5) 0.3158(3)
H18 H 0.8683 0.7365 0.2759
C18 C 0.8417(8) 0.8887(5) 0.3978(4)
H19 H 0.8521 0.9568 0.4257
C19 C 0.7882(9) 0.7847(6) 0.4112(4)
H20 H 0.7535 0.7676 0.4492
N1 N 0.8059(5) 0.1560(4) 0.2951(3)
N2 N 0.7544(5) 0.3063(4) 0.3541(2)
N3 N 0.7935(6) 0.7075(4) 0.3591(3)
N4 N 0.8795(5) 0.8799(4) 0.3364(2)
O1 O 0.6188(4) -0.0587(3) 0.16316(19)
O2 O 0.8732(4) -0.0476(3) 0.18225(19)
O3 O 0.8641(4) -0.4374(3) 0.20086(19)
O4 O 0.8337(4) -0.4102(3) 0.0854(2)
Zn1_2 Zn 0.91992(6) 1.01307(5) 0.27853(3)
Zn1A Zn 1.08008(6) -0.48693(5) 0.22147(3)
N4_2 N 0.8795(5) -0.1201(4) 0.3364(2)
O3A O 1.1359(4) 0.0626(3) 0.29914(19)
loop_
_geom_bond_atom_site_label_1
_geom_bond_atom_site_label_2
_geom_bond_site_symmetry_1
_geom_bond_site_symmetry_2
Zn1 N1 1_555 1_555
C1 C2 1_555 1_555
C2 H1 1_555 1_555
H2 C2 1_555 1_555
C3 C2 1_555 1_555
C4 C3 1_555 1_555
H3 C4 1_555 1_555
C5 C4 1_555 1_555
H4 C5 1_555 1_555
C6 C5 1_555 1_555
H5 C6 1_555 1_555
C7 C6 1_555 1_555
H6 C7 1_555 1_555
C8 C3 1_555 1_555
C9 C8 1_555 1_555
H7 C9 1_555 1_555
H8 C9 1_555 1_555
C10 C9 1_555 1_555
C11 H9 1_555 1_555
C12 C11 1_555 1_555
H10 C12 1_555 1_555
C13 H11 1_555 1_555
C14 H12 1_555 1_555
H13 C14 1_555 1_555
C15 C14 1_555 1_555
H14 C15 1_555 1_555
H15 C15 1_555 1_555
C16 C15 1_555 1_555
H16 C16 1_555 1_555
H17 C16 1_555 1_555
C17 H18 1_555 1_555
C18 H19 1_555 1_555
C19 C18 1_555 1_555
H20 C19 1_555 1_555
N1 C11 1_555 1_555
N2 C12 1_555 1_555
N3 C16 1_555 1_555
N4 C17 1_555 1_555
O1 C1 1_555 1_555
O2 Zn1 1_555 1_555
O3 C10 1_555 1_555
O4 C10 1_555 1_555
Zn1_2 N4 1_555 1_555
Zn1A O3 1_555 1_555
N4_2 Zn1 1_555 1_555
O3A Zn1 1_555 1_555
C1 O2 1_555 1_555
C7 C8 1_555 1_555
C13 N1 1_555 1_555
C13 N2 1_555 1_555
C14 N2 1_555 1_555
C17 N3 1_555 1_555
C18 N4 1_555 1_555
C19 N3 1_555 1_555

#END
