
#######################################################################
#
#                 Cambridge Crystallographic Data Centre
#                                CCDC 
#
#######################################################################
#
# If this CIF has been generated from an entry in the Cambridge 
# Structural Database, then it will include bibliographic, chemical, 
# crystal, experimental, refinement or atomic coordinate data resulting 
# from the CCDC's data processing and validation procedures.
#
#######################################################################

data_GAXPEC
_symmetry_cell_setting           monoclinic
_symmetry_space_group_name_H-M   'P 21/n'
_symmetry_Int_Tables_number      14
_space_group_name_Hall           '-P 2yn'
loop_
_symmetry_equiv_pos_site_id
_symmetry_equiv_pos_as_xyz
1 x,y,z
2 1/2-x,1/2+y,1/2-z
3 -x,-y,-z
4 1/2+x,1/2-y,1/2+z
_cell_length_a                   11.524(9)
_cell_length_b                   12.671(10)
_cell_length_c                   15.484(12)
_cell_angle_alpha                90
_cell_angle_beta                 100.353(16)
_cell_angle_gamma                90
_cell_volume                     2224.17
loop_
_atom_site_label
_atom_site_type_symbol
_atom_site_fract_x
_atom_site_fract_y
_atom_site_fract_z
Cd1 Cd -0.08399(5) 0.81693(4) 0.01283(4)
C1 C 0.1426(7) 0.8149(6) 0.1088(6)
C2 C 0.2689(7) 0.8200(6) 0.1587(5)
H1 H 0.3028 0.8869 0.1457
H2 H 0.2671 0.8190 0.2211
C3 C 0.3485(6) 0.7334(6) 0.1392(5)
C4 C 0.3526(6) 0.6358(6) 0.1809(5)
C5 C 0.4319(8) 0.5595(7) 0.1614(6)
H3 H 0.4370 0.4947 0.1900
C6 C 0.5031(9) 0.5797(11) 0.0997(7)
H4 H 0.5543 0.5279 0.0865
C7 C 0.4980(9) 0.6735(11) 0.0592(7)
H5 H 0.5458 0.6866 0.0179
C8 C 0.4232(8) 0.7498(8) 0.0784(6)
H6 H 0.4217 0.8148 0.0503
C9 C 0.2728(8) 0.6109(7) 0.2451(5)
H7 H 0.2631 0.5349 0.2469
H8 H 0.1958 0.6411 0.2232
C10 C 0.3145(8) 0.6501(6) 0.3385(5)
C11 C -0.0667(7) 0.5890(6) 0.0962(6)
H9 H -0.0097 0.6140 0.1418
C12 C -0.2038(7) 0.5825(7) -0.0157(5)
H10 H -0.2605 0.6026 -0.0635
C13 C -0.1815(7) 0.4837(7) 0.0127(5)
H11 H -0.2196 0.4231 -0.0117
C14 C -0.0395(7) 0.3995(7) 0.1373(6)
H12 H 0.0447 0.4120 0.1533
H13 H -0.0507 0.3352 0.1028
C15 C -0.0898(8) 0.3842(7) 0.2196(5)
H14 H -0.0739 0.4470 0.2556
H15 H -0.0493 0.3257 0.2524
C16 C -0.2221(8) 0.3627(7) 0.2036(6)
H16 H -0.2470 0.3561 0.2600
H17 H -0.2627 0.4230 0.1737
C17 C -0.2599(7) 0.2650(7) 0.1504(5)
H18 H -0.2273 0.2671 0.0969
H19 H -0.3451 0.2645 0.1341
C18 C -0.2200(9) 0.1647(6) 0.2001(6)
H20 H -0.1371 0.1706 0.2260
H21 H -0.2641 0.1555 0.2473
C19 C -0.1527(7) 0.0117(6) 0.1211(5)
H22 H -0.0730 0.0206 0.1440
C20 C -0.3143(7) -0.0479(7) 0.0480(6)
H23 H -0.3682 -0.0884 0.0100
C21 C -0.3407(8) 0.0330(7) 0.0953(5)
H24 H -0.4161 0.0587 0.0963
N1 N -0.1295(6) 0.6490(5) 0.0370(4)
N2 N -0.0940(5) 0.4879(5) 0.0831(4)
N3 N -0.2374(6) 0.0722(5) 0.1423(4)
N4 N -0.1936(5) -0.0620(5) 0.0645(4)
O1 O 0.0609(6) 0.8472(6) 0.1463(5)
O2 O 0.1208(5) 0.7821(5) 0.0344(4)
O3 O 0.2420(6) 0.6854(6) 0.3810(4)
O4 O 0.4221(5) 0.6459(5) 0.3704(4)
Cd1_2 Cd -0.08399(5) -0.18307(4) 0.01283(4)
Cd1C Cd 0.41601(5) 0.68307(4) 0.51283(4)
N4_2 N -0.1936(5) 0.9380(5) 0.0645(4)
O3C O -0.2580(6) 0.8146(6) -0.1190(4)
O4C O -0.0779(5) 0.8541(5) -0.1296(4)
O5 O 0.4789(7) 0.2314(11) 0.1996(7)
loop_
_geom_bond_atom_site_label_1
_geom_bond_atom_site_label_2
_geom_bond_site_symmetry_1
_geom_bond_site_symmetry_2
Cd1 N1 1_555 1_555
C1 C2 1_555 1_555
C2 H1 1_555 1_555
H2 C2 1_555 1_555
C3 C2 1_555 1_555
C4 C3 1_555 1_555
C5 C4 1_555 1_555
H3 C5 1_555 1_555
C6 C5 1_555 1_555
H4 C6 1_555 1_555
C7 C6 1_555 1_555
H5 C7 1_555 1_555
C8 C3 1_555 1_555
H6 C8 1_555 1_555
C9 C4 1_555 1_555
H7 C9 1_555 1_555
H8 C9 1_555 1_555
C10 C9 1_555 1_555
C11 H9 1_555 1_555
C12 H10 1_555 1_555
C13 C12 1_555 1_555
H11 C13 1_555 1_555
C14 H12 1_555 1_555
H13 C14 1_555 1_555
C15 C14 1_555 1_555
H14 C15 1_555 1_555
H15 C15 1_555 1_555
C16 C15 1_555 1_555
H16 C16 1_555 1_555
H17 C16 1_555 1_555
C17 C16 1_555 1_555
H18 C17 1_555 1_555
H19 C17 1_555 1_555
C18 C17 1_555 1_555
H20 C18 1_555 1_555
H21 C18 1_555 1_555
C19 H22 1_555 1_555
C20 H23 1_555 1_555
C21 C20 1_555 1_555
H24 C21 1_555 1_555
N1 C11 1_555 1_555
N2 C11 1_555 1_555
N3 C18 1_555 1_555
N4 C19 1_555 1_555
O1 Cd1 1_555 1_555
O2 Cd1 1_555 1_555
O3 C10 1_555 1_555
O4 C10 1_555 1_555
Cd1_2 N4 1_555 1_555
Cd1C O3 1_555 1_555
N4_2 Cd1 1_555 1_555
O3C Cd1 1_555 1_555
O4C Cd1 1_555 1_555
C1 O1 1_555 1_555
C1 O2 1_555 1_555
C7 C8 1_555 1_555
C12 N1 1_555 1_555
C13 N2 1_555 1_555
C14 N2 1_555 1_555
C19 N3 1_555 1_555
C20 N4 1_555 1_555
C21 N3 1_555 1_555
O4 Cd1C 1_555 1_555

#END
