
#######################################################################
#
#                 Cambridge Crystallographic Data Centre
#                                CCDC 
#
#######################################################################
#
# If this CIF has been generated from an entry in the Cambridge 
# Structural Database, then it will include bibliographic, chemical, 
# crystal, experimental, refinement or atomic coordinate data resulting 
# from the CCDC's data processing and validation procedures.
#
#######################################################################

data_GAXPOM
_symmetry_cell_setting           triclinic
_symmetry_space_group_name_H-M   'P -1'
_symmetry_Int_Tables_number      2
_space_group_name_Hall           '-P 1'
loop_
_symmetry_equiv_pos_site_id
_symmetry_equiv_pos_as_xyz
1 x,y,z
2 -x,-y,-z
_cell_length_a                   8.7106(9)
_cell_length_b                   10.4086(10)
_cell_length_c                   10.9644(11)
_cell_angle_alpha                64.4050(10)
_cell_angle_beta                 69.9560(10)
_cell_angle_gamma                77.723(2)
_cell_volume                     839.786
loop_
_atom_site_label
_atom_site_type_symbol
_atom_site_fract_x
_atom_site_fract_y
_atom_site_fract_z
Cd1 Cd 0.22908(2) 0.086448(18) 0.088483(18)
C1 C 0.4972(3) -0.1445(3) 0.2009(2)
C2 C 0.3827(3) -0.2430(3) 0.3335(2)
H1 H 0.2703 -0.2147 0.3300
H2 H 0.4084 -0.3403 0.3390
C3 C 0.4012(3) -0.2356(3) 0.4630(2)
C4 C 0.3178(3) -0.1272(3) 0.5076(2)
H3 H 0.2438 -0.0630 0.4616
C5 C 0.3426(3) -0.1125(3) 0.6195(2)
C6 C 0.4491(3) -0.2108(3) 0.6897(3)
H4 H 0.4661 -0.2027 0.7652
C7 C 0.5305(4) -0.3210(3) 0.6487(3)
H5 H 0.6005 -0.3876 0.6977
C8 C 0.5085(3) -0.3327(3) 0.5350(3)
H6 H 0.5658 -0.4060 0.5065
C9 C 0.2540(3) 0.0102(3) 0.6618(3)
H7 H 0.2504 0.0957 0.5779
H8 H 0.3135 0.0285 0.7123
C10 C 0.0808(3) -0.0234(3) 0.7548(3)
C11 C 0.0652(3) 0.3509(3) 0.1766(3)
H9 H -0.0227 0.2973 0.2404
C12 C 0.2165(4) 0.5284(3) 0.0498(3)
H10 H 0.2554 0.6187 0.0085
C13 C 0.2947(4) 0.4125(3) 0.0253(3)
H11 H 0.3981 0.4095 -0.0371
C14 C -0.0599(4) 0.5813(3) 0.2028(3)
H12 H -0.1620 0.5352 0.2457
H13 H -0.0751 0.6706 0.1258
C15 C -0.0214(4) 0.6128(3) 0.3116(3)
H14 H 0.0835 0.6542 0.2698
H15 H -0.1040 0.6832 0.3361
C16 C -0.0153(4) 0.4830(3) 0.4444(3)
H16 H 0.0711 0.4144 0.4207
H17 H -0.1183 0.4388 0.4839
H18 H 0.198(4) -0.109(4) -0.009(4)
N1 N 0.1997(3) 0.2997(2) 0.1056(2)
N2 N 0.0699(3) 0.4890(2) 0.1461(2)
O1 O 0.45765(19) -0.01120(16) 0.15921(16)
O2 O 0.6266(2) -0.19957(19) 0.14209(18)
O3 O 0.0566(2) -0.0934(2) 0.88595(18)
O4 O -0.0331(2) 0.0147(2) 0.69941(19)
O5 O 0.2642(2) -0.1142(2) 0.03250(19)
H19 H 0.3492 -0.1106 -0.0312
Cd1A Cd -0.22908(2) 0.913552(18) 0.911517(18)
Cd1A_2 Cd 0.77092(2) -0.086448(18) -0.088483(18)
Cd1A_3 Cd -0.22908(2) -0.086448(18) 0.911517(18)
Cd1_2 Cd 1.22908(2) 0.086448(18) -0.911517(18)
C1A C 0.5028(3) 0.1445(3) -0.2009(2)
C2A C 0.6173(3) 0.2430(3) -0.3335(2)
H1A H 0.7297 0.2147 -0.3300
H2A H 0.5916 0.3403 -0.3390
C3A C 0.5988(3) 0.2356(3) -0.4630(2)
C4A C 0.6822(3) 0.1272(3) -0.5076(2)
H3A H 0.7562 0.0630 -0.4616
C5A C 0.6574(3) 0.1125(3) -0.6195(2)
C6A C 0.5509(3) 0.2108(3) -0.6897(3)
H4A H 0.5339 0.2027 -0.7652
C7A C 0.4695(4) 0.3210(3) -0.6487(3)
H5A H 0.3995 0.3876 -0.6977
C8A C 0.4915(3) 0.3327(3) -0.5350(3)
H6A H 0.4342 0.4060 -0.5065
C9A C 0.7460(3) -0.0102(3) -0.6618(3)
H7A H 0.7496 -0.0957 -0.5779
H8A H 0.6865 -0.0285 -0.7123
C10A C 0.9192(3) 0.0234(3) -0.7548(3)
C11A C -0.0652(3) 0.6491(3) 0.8234(3)
H9A H 0.0227 0.7027 0.7596
C12A C -0.2165(4) 0.4716(3) 0.9502(3)
H10A H -0.2554 0.3813 0.9915
C13A C -0.2947(4) 0.5875(3) 0.9747(3)
H11A H -0.3981 0.5905 1.0371
C14A C 0.0599(4) 0.4187(3) 0.7972(3)
H12A H 0.1620 0.4648 0.7543
H13A H 0.0751 0.3294 0.8742
C15A C 0.0214(4) 0.3872(3) 0.6884(3)
H14A H -0.0835 0.3458 0.7302
H15A H 0.1040 0.3168 0.6639
C16A C 0.0153(4) 0.5170(3) 0.5556(3)
H16A H -0.0711 0.5856 0.5793
H17A H 0.1183 0.5612 0.5161
H18A H -0.198(4) 1.109(4) 1.009(4)
N1A N -0.1997(3) 0.7003(2) 0.8944(2)
N2A N -0.0699(3) 0.5110(2) 0.8539(2)
O1A O 0.54235(19) 0.01120(16) -0.15921(16)
O1A_2 O -0.45765(19) 1.01120(16) 0.84079(16)
O2A O 0.3734(2) 0.19957(19) -0.14209(18)
O2_2 O -0.3734(2) 0.80043(19) 1.14209(18)
O3A O 0.9434(2) 0.0934(2) -0.88595(18)
O3A_2 O -0.0566(2) 0.0934(2) 0.11405(18)
O3_2 O 0.0566(2) 0.9066(2) 0.88595(18)
O4A O 1.0331(2) -0.0147(2) -0.69941(19)
O4A_2 O 0.0331(2) -0.0147(2) 0.30059(19)
O4_2 O -0.0331(2) 1.0147(2) 0.69941(19)
O5A O -0.2642(2) 1.1142(2) 0.96750(19)
H19A H -0.3492 1.1106 1.0312
loop_
_geom_bond_atom_site_label_1
_geom_bond_atom_site_label_2
_geom_bond_site_symmetry_1
_geom_bond_site_symmetry_2
Cd1 N1 1_555 1_555
C1 C2 1_555 1_555
C2 H1 1_555 1_555
H2 C2 1_555 1_555
C3 C2 1_555 1_555
C4 C3 1_555 1_555
H3 C4 1_555 1_555
C5 C4 1_555 1_555
C6 C5 1_555 1_555
H4 C6 1_555 1_555
C7 C6 1_555 1_555
H5 C7 1_555 1_555
C8 C3 1_555 1_555
H6 C8 1_555 1_555
C9 C5 1_555 1_555
H7 C9 1_555 1_555
H8 C9 1_555 1_555
C10 C9 1_555 1_555
C11 H9 1_555 1_555
C12 H10 1_555 1_555
C13 C12 1_555 1_555
H11 C13 1_555 1_555
C14 H12 1_555 1_555
H13 C14 1_555 1_555
C15 C14 1_555 1_555
H14 C15 1_555 1_555
H15 C15 1_555 1_555
C16 C15 1_555 1_555
H16 C16 1_555 1_555
H17 C16 1_555 1_555
H18 O5 1_555 1_555
N1 C11 1_555 1_555
N2 C11 1_555 1_555
O1 Cd1 1_555 1_555
O2 C1 1_555 1_555
O3 C10 1_555 1_555
O4 C10 1_555 1_555
O5 Cd1 1_555 1_555
H19 O5 1_555 1_555
Cd1A N1A 1_555 1_555
Cd1A_2 O2 1_555 1_555
Cd1A_3 O3 1_555 1_555
Cd1_2 O3A 1_555 1_555
C1A C2A 1_555 1_555
C2A H1A 1_555 1_555
H2A C2A 1_555 1_555
C3A C2A 1_555 1_555
C4A C3A 1_555 1_555
H3A C4A 1_555 1_555
C5A C4A 1_555 1_555
C6A C5A 1_555 1_555
H4A C6A 1_555 1_555
C7A C6A 1_555 1_555
H5A C7A 1_555 1_555
C8A C3A 1_555 1_555
H6A C8A 1_555 1_555
C9A C5A 1_555 1_555
H7A C9A 1_555 1_555
H8A C9A 1_555 1_555
C10A C9A 1_555 1_555
C11A H9A 1_555 1_555
C12A H10A 1_555 1_555
C13A C12A 1_555 1_555
H11A C13A 1_555 1_555
C14A H12A 1_555 1_555
H13A C14A 1_555 1_555
C15A C14A 1_555 1_555
H14A C15A 1_555 1_555
H15A C15A 1_555 1_555
C16A C16 1_555 1_555
H16A C16A 1_555 1_555
H17A C16A 1_555 1_555
H18A O5A 1_555 1_555
N1A C11A 1_555 1_555
N2A C11A 1_555 1_555
O1A Cd1A_2 1_555 1_555
O1A_2 Cd1A 1_555 1_555
O2A Cd1 1_555 1_555
O2_2 Cd1A 1_555 1_555
O3A C10A 1_555 1_555
O3A_2 Cd1 1_555 1_555
O3_2 Cd1A 1_555 1_555
O4A Cd1_2 1_555 1_555
O4A_2 Cd1 1_555 1_555
O4_2 Cd1A 1_555 1_555
O5A Cd1A 1_555 1_555
H19A O5A 1_555 1_555
C1 O1 1_555 1_555
C7 C8 1_555 1_555
C12 N2 1_555 1_555
C13 N1 1_555 1_555
C14 N2 1_555 1_555
O4 Cd1A_3 1_555 1_555
C1A O1A 1_555 1_555
C1A O2A 1_555 1_555
C7A C8A 1_555 1_555
C10A O4A 1_555 1_555
C12A N2A 1_555 1_555
C13A N1A 1_555 1_555
C14A N2A 1_555 1_555
C15A C16A 1_555 1_555

#END
