
#######################################################################
#
#                 Cambridge Crystallographic Data Centre
#                                CCDC 
#
#######################################################################
#
# If this CIF has been generated from an entry in the Cambridge 
# Structural Database, then it will include bibliographic, chemical, 
# crystal, experimental, refinement or atomic coordinate data resulting 
# from the CCDC's data processing and validation procedures.
#
#######################################################################

data_GAXQED
_symmetry_cell_setting           monoclinic
_symmetry_space_group_name_H-M   'C 2/c'
_symmetry_Int_Tables_number      15
_space_group_name_Hall           '-C 2yn'
loop_
_symmetry_equiv_pos_site_id
_symmetry_equiv_pos_as_xyz
1 x,y,z
2 -x,y,1/2-z
3 1/2+x,1/2+y,z
4 1/2-x,1/2+y,1/2-z
5 -x,-y,-z
6 x,-y,1/2+z
7 1/2-x,1/2-y,-z
8 1/2+x,1/2-y,1/2+z
_cell_length_a                   20.5170(17)
_cell_length_b                   10.5876(9)
_cell_length_c                   21.9335(18)
_cell_angle_alpha                90
_cell_angle_beta                 105.4190(10)
_cell_angle_gamma                90
_cell_volume                     4593.03
loop_
_atom_site_label
_atom_site_type_symbol
_atom_site_fract_x
_atom_site_fract_y
_atom_site_fract_z
Cd1 Cd 0.162467(14) 0.71318(4) 0.440431(15)
O1 O 0.07939(15) 0.8634(4) 0.39658(17)
O2 O 0.04802(18) 0.6785(4) 0.35379(17)
O3 O -0.23208(15) 1.1258(3) 0.50049(17)
O4 O -0.29802(19) 0.9874(5) 0.4446(3)
N1 N 0.2112(2) 0.7469(7) 0.3609(2)
N2 N 0.2854(3) 0.7551(8) 0.3058(2)
N3 N 0.52202(19) 0.8757(4) 0.05668(18)
N4 N 0.60429(18) 0.8422(4) 0.01188(17)
C1 C 0.0378(2) 0.7927(6) 0.3602(2)
C2 C -0.0295(2) 0.8527(6) 0.3247(2)
H1 H -0.0517 0.8000 0.2891
H2 H -0.0213 0.9348 0.3086
C3 C -0.07501(19) 0.8675(5) 0.3689(2)
C4 C -0.0615(3) 0.9635(5) 0.4139(3)
H3 H -0.0266 1.0199 0.4143
C5 C -0.0977(2) 0.9778(5) 0.4578(3)
H4 H -0.0869 1.0418 0.4878
C6 C -0.1504(2) 0.8959(4) 0.4569(2)
C7 C -0.1650(2) 0.8011(5) 0.4140(3)
H5 H -0.2000 0.7453 0.4137
C8 C -0.1265(3) 0.7877(5) 0.3695(3)
H6 H -0.1367 0.7226 0.3400
C9 C -0.1904(3) 0.9139(5) 0.5055(3)
H7 H -0.2117 0.8350 0.5119
H8 H -0.1603 0.9396 0.5457
C10 C -0.2440(2) 1.0149(5) 0.4818(3)
C11 C 0.2660(3) 0.6961(9) 0.3507(3)
H9 H 0.2883 0.6267 0.3727
C12 C 0.2440(4) 0.8553(10) 0.2860(3)
H10 H 0.2462 0.9157 0.2558
C13 C 0.1972(3) 0.8457(10) 0.3219(4)
H11 H 0.1612 0.9007 0.3189
C14 C 0.3471(3) 0.7279(11) 0.2849(3)
H12 H 0.3755 0.8026 0.2916
H13 H 0.3723 0.6609 0.3110
C15 C 0.3343(4) 0.6934(11) 0.2237(4)
H14 H 0.3037 0.7544 0.1980
H15 H 0.3116 0.6122 0.2182
C16 C 0.3984(3) 0.6836(9) 0.1994(3)
H16 H 0.4381 0.6967 0.2344
H17 H 0.4011 0.5994 0.1829
C17 C 0.3981(3) 0.7776(6) 0.1493(3)
H18 H 0.3944 0.8613 0.1661
H19 H 0.3581 0.7638 0.1146
C18 C 0.4590(3) 0.7744(5) 0.1237(2)
H20 H 0.4989 0.7911 0.1580
H21 H 0.4635 0.6901 0.1080
C19 C 0.4568(2) 0.8670(5) 0.0719(2)
H22 H 0.4223 0.8415 0.0344
H23 H 0.4446 0.9495 0.0846
C20 C 0.5416(2) 0.8152(4) 0.0112(2)
H24 H 0.5141 0.7603 -0.0176
C21 C 0.6251(3) 0.9256(6) 0.0605(3)
H25 H 0.6679 0.9618 0.0727
C22 C 0.5762(3) 0.9481(5) 0.0879(3)
H26 H 0.5781 1.0023 0.1217
Cd1B Cd -0.337533(14) 1.21318(4) 0.440431(15)
Cd1D Cd -0.162467(14) 1.28682(4) 0.559569(15)
Cd1G Cd 0.662467(14) 0.78682(4) -0.059569(15)
O3B O 0.26792(15) 0.6258(3) 0.50049(17)
O3D O 0.23208(15) 0.8742(3) 0.49951(17)
O4B O 0.20198(19) 0.4874(5) 0.4446(3)
N4G N 0.10429(18) 0.6578(4) 0.51188(17)
O5 O 0.0005(3) 0.5273(5) 0.2496(3)
O6 O 0.3611(3) 1.0431(5) 0.2412(3)
loop_
_geom_bond_atom_site_label_1
_geom_bond_atom_site_label_2
_geom_bond_site_symmetry_1
_geom_bond_site_symmetry_2
Cd1 O1 1_555 1_555
O1 C1 1_555 1_555
O2 C1 1_555 1_555
O3 C10 1_555 1_555
O4 C10 1_555 1_555
N1 Cd1 1_555 1_555
N2 C11 1_555 1_555
N3 C19 1_555 1_555
N4 C20 1_555 1_555
C1 C2 1_555 1_555
C2 H1 1_555 1_555
H2 C2 1_555 1_555
C3 C2 1_555 1_555
C4 C3 1_555 1_555
H3 C4 1_555 1_555
C5 C4 1_555 1_555
H4 C5 1_555 1_555
C6 C5 1_555 1_555
C7 C6 1_555 1_555
H5 C7 1_555 1_555
C8 C3 1_555 1_555
H6 C8 1_555 1_555
C9 C6 1_555 1_555
H7 C9 1_555 1_555
H8 C9 1_555 1_555
C10 C9 1_555 1_555
C11 N1 1_555 1_555
H9 C11 1_555 1_555
C12 N2 1_555 1_555
H10 C12 1_555 1_555
C13 N1 1_555 1_555
H11 C13 1_555 1_555
C14 N2 1_555 1_555
H12 C14 1_555 1_555
H13 C14 1_555 1_555
C15 C14 1_555 1_555
H14 C15 1_555 1_555
H15 C15 1_555 1_555
C16 C15 1_555 1_555
H16 C16 1_555 1_555
H17 C16 1_555 1_555
C17 C16 1_555 1_555
H18 C17 1_555 1_555
H19 C17 1_555 1_555
C18 C17 1_555 1_555
H20 C18 1_555 1_555
H21 C18 1_555 1_555
C19 C18 1_555 1_555
H22 C19 1_555 1_555
H23 C19 1_555 1_555
C20 N3 1_555 1_555
H24 C20 1_555 1_555
C21 N4 1_555 1_555
H25 C21 1_555 1_555
C22 N3 1_555 1_555
H26 C22 1_555 1_555
Cd1B O3 1_555 1_555
Cd1D O3 1_555 1_555
Cd1G N4 1_555 1_555
O3B Cd1 1_555 1_555
O3D Cd1 1_555 1_555
O4B Cd1 1_555 1_555
N4G Cd1 1_555 1_555
O4 Cd1B 1_555 1_555
C7 C8 1_555 1_555
C12 C13 1_555 1_555
C21 C22 1_555 1_555

#END
