
#######################################################################
#
#                 Cambridge Crystallographic Data Centre
#                                CCDC 
#
#######################################################################
#
# If this CIF has been generated from an entry in the Cambridge 
# Structural Database, then it will include bibliographic, chemical, 
# crystal, experimental, refinement or atomic coordinate data resulting 
# from the CCDC's data processing and validation procedures.
#
#######################################################################

data_GAXRII
_symmetry_cell_setting           triclinic
_symmetry_space_group_name_H-M   'P -1'
_symmetry_Int_Tables_number      2
_space_group_name_Hall           '-P 1'
loop_
_symmetry_equiv_pos_site_id
_symmetry_equiv_pos_as_xyz
1 x,y,z
2 -x,-y,-z
_cell_length_a                   10.366(9)
_cell_length_b                   11.154(9)
_cell_length_c                   12.483(10)
_cell_angle_alpha                96.342(10)
_cell_angle_beta                 105.741(6)
_cell_angle_gamma                104.400(4)
_cell_volume                     1320.81
loop_
_atom_site_label
_atom_site_type_symbol
_atom_site_fract_x
_atom_site_fract_y
_atom_site_fract_z
Cu1 Cu -0.08290(19) 0.71419(16) -0.16716(19)
Cu2 Cu 0.0694(2) 0.49373(16) 0.10717(16)
Cu3 Cu 0.10165(15) 0.80763(14) -0.26614(15)
Cu4 Cu 0.10449(15) 1.00639(14) -0.41593(13)
I1 I 0.06878(8) 0.71381(7) 0.06371(6)
I2 I -0.32254(8) 0.54550(8) -0.19846(7)
I3 I 0.04042(7) 0.56722(6) -0.28403(6)
I4 I -0.05738(8) 0.93530(7) -0.21418(7)
I5 I -0.03001(8) 0.79349(7) -0.55606(7)
N1 N 0.5167(9) 1.0049(8) -0.2473(7)
N2 N 0.3002(8) 0.9240(8) -0.2609(7)
N3 N 0.2958(8) 0.9917(8) -0.3286(7)
N4 N 0.5875(10) 1.2821(9) -0.5315(8)
N5 N 0.5956(11) 0.7658(8) 0.0745(7)
C1 C 0.6687(15) 1.5007(12) -0.5540(11)
H1 H 0.7056 1.5543 -0.6023
H2 H 0.5792 1.5128 -0.5510
H3 H 0.7356 1.5236 -0.4773
C2 C 0.6475(16) 1.3691(12) -0.6003(11)
H4 H 0.5833 1.3475 -0.6791
H5 H 0.7383 1.3571 -0.6026
C3 C 0.6731(13) 1.2598(11) -0.4391(10)
H6 H 0.7710 1.2987 -0.4194
C4 C 0.6234(12) 1.1822(11) -0.3719(10)
H7 H 0.6860 1.1672 -0.3071
C5 C 0.4782(11) 1.1255(10) -0.4008(9)
C6 C 0.3890(12) 1.1524(11) -0.4956(9)
H8 H 0.2902 1.1192 -0.5144
C7 C 0.4470(13) 1.2279(10) -0.5609(10)
H9 H 0.3875 1.2423 -0.6278
C8 C 0.4266(10) 1.0409(9) -0.3266(8)
C9 C 0.4284(10) 0.9274(9) -0.2046(8)
C10 C 0.4859(10) 0.8688(9) -0.1071(9)
C11 C 0.6291(13) 0.8877(10) -0.0681(10)
H10 H 0.6897 0.9374 -0.1019
C12 C 0.6827(14) 0.8318(11) 0.0225(11)
H11 H 0.7801 0.8398 0.0479
C13 C 0.4574(11) 0.7487(10) 0.0355(10)
H12 H 0.3980 0.7007 0.0712
C14 C 0.4003(11) 0.7975(11) -0.0527(10)
H13 H 0.3019 0.7840 -0.0784
C15 C 0.6564(17) 0.7059(12) 0.1697(11)
H14 H 0.5936 0.6931 0.2173
H15 H 0.7478 0.7645 0.2175
C16 C 0.6770(14) 0.5843(13) 0.1326(10)
H16 H 0.7161 0.5504 0.1992
H17 H 0.5868 0.5251 0.0863
H18 H 0.7418 0.5964 0.0877
Cu2A Cu -0.0694(2) 0.50627(16) -0.10717(16)
Cu4A Cu -0.10449(15) 0.99361(14) -0.58407(13)
I1A I -0.06878(8) 0.28619(7) -0.06371(6)
I2A I 0.32254(8) 0.45450(8) 0.19846(7)
I3A I -0.04042(7) 0.43278(6) 0.28403(6)
I5A I 0.03001(8) 1.20651(7) -0.44394(7)
loop_
_geom_bond_atom_site_label_1
_geom_bond_atom_site_label_2
_geom_bond_site_symmetry_1
_geom_bond_site_symmetry_2
Cu1 I1 1_555 1_555
Cu2 I1 1_555 1_555
Cu3 I3 1_555 1_555
Cu4 I5 1_555 1_555
I1 Cu2A 1_555 1_555
I2 Cu1 1_555 1_555
I3 Cu1 1_555 1_555
I4 Cu1 1_555 1_555
I5 Cu4A 1_555 1_555
N1 C8 1_555 1_555
N2 Cu3 1_555 1_555
N3 Cu4 1_555 1_555
N4 C2 1_555 1_555
N5 C12 1_555 1_555
C1 H1 1_555 1_555
H2 C1 1_555 1_555
H3 C1 1_555 1_555
C2 C1 1_555 1_555
H4 C2 1_555 1_555
H5 C2 1_555 1_555
C3 N4 1_555 1_555
H6 C3 1_555 1_555
C4 C3 1_555 1_555
H7 C4 1_555 1_555
C5 C4 1_555 1_555
C6 C5 1_555 1_555
H8 C6 1_555 1_555
C7 N4 1_555 1_555
H9 C7 1_555 1_555
C8 N3 1_555 1_555
C9 N1 1_555 1_555
C10 C9 1_555 1_555
C11 C10 1_555 1_555
H10 C11 1_555 1_555
C12 C11 1_555 1_555
H11 C12 1_555 1_555
C13 N5 1_555 1_555
H12 C13 1_555 1_555
C14 C10 1_555 1_555
H13 C14 1_555 1_555
C15 N5 1_555 1_555
H14 C15 1_555 1_555
H15 C15 1_555 1_555
C16 C15 1_555 1_555
H16 C16 1_555 1_555
H17 C16 1_555 1_555
H18 C16 1_555 1_555
Cu2A I2 1_555 1_555
Cu4A I5A 1_555 1_555
I1A Cu2 1_555 1_555
I2A Cu2 1_555 1_555
I3A Cu2 1_555 1_555
I5A Cu4 1_555 1_555
Cu3 I4 1_555 1_555
I3 Cu2A 1_555 1_555
N2 N3 1_555 1_555
N2 C9 1_555 1_555
C5 C8 1_555 1_555
C6 C7 1_555 1_555
C13 C14 1_555 1_555
Cu2A I1A 1_555 1_555

#END
