
#######################################################################
#
#                 Cambridge Crystallographic Data Centre
#                                CCDC 
#
#######################################################################
#
# If this CIF has been generated from an entry in the Cambridge 
# Structural Database, then it will include bibliographic, chemical, 
# crystal, experimental, refinement or atomic coordinate data resulting 
# from the CCDC's data processing and validation procedures.
#
#######################################################################

data_GAXRAA
_symmetry_cell_setting           triclinic
_symmetry_space_group_name_H-M   'P -1'
_symmetry_Int_Tables_number      2
_space_group_name_Hall           '-P 1'
loop_
_symmetry_equiv_pos_site_id
_symmetry_equiv_pos_as_xyz
1 x,y,z
2 -x,-y,-z
_cell_length_a                   8.7520(18)
_cell_length_b                   10.915(2)
_cell_length_c                   11.035(2)
_cell_angle_alpha                76.85(3)
_cell_angle_beta                 77.91(3)
_cell_angle_gamma                67.61(3)
_cell_volume                     940.256
loop_
_atom_site_label
_atom_site_type_symbol
_atom_site_fract_x
_atom_site_fract_y
_atom_site_fract_z
Ni1 Ni 0.5000 0.5000 0.5000
Ni2 Ni 0.5000 0.0000 0.5000
O1 O 0.8911(3) 0.0000(4) 0.1981(2)
O2 O 0.3231(3) 0.4212(2) 0.6079(2)
O3 O 0.6679(3) 0.3128(2) 0.4810(2)
O4 O 0.6756(3) -0.0067(2) 0.3415(2)
O5 O 0.5311(3) 0.1686(2) 0.5327(2)
C1 C 0.6626(4) 0.1961(3) 0.5044(3)
C2 C 0.8337(3) 0.0875(3) 0.5012(3)
C3 C 0.8170(4) 0.0045(3) 0.3079(3)
C4 C -0.2016(4) 0.7656(3) -0.4112(3)
H1 H -0.1948 0.7426 -0.4888
C5 C -0.0789(4) 0.6883(3) -0.3369(3)
H2 H 0.0097 0.6159 -0.3648
N1 N -0.3297(3) 0.8721(3) -0.3767(2)
C6 C -0.3390(4) 0.9016(3) -0.2633(3)
H3 H -0.4285 0.9749 -0.2379
C7 C -0.2239(4) 0.8296(4) -0.1830(3)
H4 H -0.2355 0.8537 -0.1050
C8 C -0.0892(4) 0.7200(3) -0.2196(3)
N2 N 0.3863(3) 0.5023(3) 0.3466(2)
C9 C 0.2331(4) 0.5888(3) 0.3319(3)
H5 H 0.1732 0.6375 0.3962
C10 C 0.4657(4) 0.4253(3) 0.2575(3)
H6 H 0.5695 0.3596 0.2687
N3 N 0.1655(3) 0.5319(3) -0.1734(2)
N4 N 0.2522(3) 0.4838(3) -0.0748(2)
C11 C 1.0739(4) -0.0754(3) 0.4059(3)
N5 N 0.0398(3) 0.6586(3) -0.0216(2)
C12 C 0.1774(4) 0.5597(3) 0.0149(3)
C13 C 0.2456(4) 0.5353(3) 0.1318(3)
C14 C 0.1582(4) 0.6103(3) 0.2276(3)
H7 H 0.0518 0.6734 0.2209
C15 C 0.9093(4) 0.0092(3) 0.4058(3)
C16 C 0.3999(4) 0.4394(3) 0.1502(3)
H8 H 0.4592 0.3845 0.0903
C17 C 0.0391(4) 0.6372(3) -0.1383(3)
H10 H 0.3693 0.3321 0.6210
H11 H 1.1187 -0.1278 0.3466
H15 H 0.3372 0.4112 -0.0774
H17 H 0.2737 0.4478 0.6749
Ni1_2 Ni -0.5000 0.5000 -0.5000
Ni1_3 Ni 1.5000 -0.5000 0.5000
Ni2_2 Ni -0.5000 1.0000 -0.5000
Ni2_3 Ni 1.5000 0.0000 0.5000
O1A O 1.1089(3) 0.0000(4) 0.8019(2)
O2A O 0.6769(3) 0.5788(2) 0.3921(2)
O3A O 1.3321(3) -0.3128(2) 0.5190(2)
O3A_2 O 0.3321(3) 0.6872(2) 0.5190(2)
O4A O 1.3244(3) 0.0067(2) 0.6585(2)
O4A_2 O 0.3244(3) 0.0067(2) 0.6585(2)
O5A O 1.4689(3) -0.1686(2) 0.4673(2)
O5A_2 O 0.4689(3) -0.1686(2) 0.4673(2)
C1A C 1.3374(4) -0.1961(3) 0.4956(3)
C2A C 1.1663(3) -0.0875(3) 0.4988(3)
C3A C 1.1830(4) -0.0045(3) 0.6921(3)
C4A C 0.2016(4) 0.2344(3) 0.4112(3)
H1A H 0.1948 0.2574 0.4888
C5A C 0.0789(4) 0.3117(3) 0.3369(3)
H2A H -0.0097 0.3841 0.3648
N1A N 0.3297(3) 0.1279(3) 0.3767(2)
N1_2 N 0.6703(3) -0.1279(3) 0.6233(2)
C6A C 0.3390(4) 0.0984(3) 0.2633(3)
H3A H 0.4285 0.0251 0.2379
C7A C 0.2239(4) 0.1704(4) 0.1830(3)
H4A H 0.2355 0.1463 0.1050
C8A C 0.0892(4) 0.2800(3) 0.2196(3)
N2A N -0.3863(3) 0.4977(3) -0.3466(2)
N2A_2 N 0.6137(3) 0.4977(3) 0.6534(2)
C9A C -0.2331(4) 0.4112(3) -0.3319(3)
H5A H -0.1732 0.3625 -0.3962
C10A C -0.4657(4) 0.5747(3) -0.2575(3)
H6A H -0.5695 0.6404 -0.2687
N3A N -0.1655(3) 0.4681(3) 0.1734(2)
N4A N -0.2522(3) 0.5162(3) 0.0748(2)
C11A C 0.9261(4) 0.0754(3) 0.5941(3)
N5A N -0.0398(3) 0.3414(3) 0.0216(2)
C12A C -0.1774(4) 0.4403(3) -0.0149(3)
C13A C -0.2456(4) 0.4647(3) -0.1318(3)
C14A C -0.1582(4) 0.3897(3) -0.2276(3)
H7A H -0.0518 0.3266 -0.2209
C15A C 1.0907(4) -0.0092(3) 0.5942(3)
C16A C -0.3999(4) 0.5606(3) -0.1502(3)
H8A H -0.4592 0.6155 -0.0903
C17A C -0.0391(4) 0.3628(3) 0.1383(3)
H10A H 0.6307 0.6679 0.3790
H11A H 0.8813 0.1278 0.6534
H15A H -0.3372 0.5888 0.0774
H17A H 0.7263 0.5522 0.3251
O6 O 0.2023(4) 0.9106(4) 0.0455(3)
H12 H 0.1191 0.9316 0.0959
H14 H 0.1837 0.9217 -0.0153
O7 O 0.4954(4) 0.7432(4) 0.1132(4)
H9 H 0.5111 0.7928 0.1554
H16 H 0.4099 0.7957 0.0885
O8 O 0.2524(5) 0.1956(3) 0.8431(4)
H13 H 0.1711 0.1930 0.8946
H18 H 0.2377 0.1975 0.7649
loop_
_geom_bond_atom_site_label_1
_geom_bond_atom_site_label_2
_geom_bond_site_symmetry_1
_geom_bond_site_symmetry_2
Ni1 O2 1_555 1_555
Ni2 O4 1_555 1_555
O1 C3 1_555 1_555
O2 H10 1_555 1_555
O3 Ni1 1_555 1_555
O4 C3 1_555 1_555
O5 Ni2 1_555 1_555
C1 O3 1_555 1_555
C2 C1 1_555 1_555
C3 C15 1_555 1_555
C4 H1 1_555 1_555
C5 C4 1_555 1_555
H2 C5 1_555 1_555
N1 C4 1_555 1_555
C6 N1 1_555 1_555
H3 C6 1_555 1_555
C7 C6 1_555 1_555
H4 C7 1_555 1_555
C8 C5 1_555 1_555
N2 Ni1 1_555 1_555
C9 N2 1_555 1_555
H5 C9 1_555 1_555
C10 N2 1_555 1_555
H6 C10 1_555 1_555
N3 N4 1_555 1_555
N4 C12 1_555 1_555
C11 C15 1_555 1_555
N5 C12 1_555 1_555
C12 C13 1_555 1_555
C13 C14 1_555 1_555
C14 C9 1_555 1_555
H7 C14 1_555 1_555
C15 C2 1_555 1_555
C16 C10 1_555 1_555
H8 C16 1_555 1_555
C17 C8 1_555 1_555
O6 H12 1_555 1_555
O7 H9 1_555 1_555
O8 H13 1_555 1_555
H11 C11 1_555 1_555
H14 O6 1_555 1_555
H15 N4 1_555 1_555
H16 O7 1_555 1_555
H17 O2 1_555 1_555
H18 O8 1_555 1_555
Ni1_2 N2A 1_555 1_555
Ni1_3 O3A 1_555 1_555
Ni2_2 N1 1_555 1_555
Ni2_3 O4A 1_555 1_555
O1A C3A 1_555 1_555
O2A Ni1 1_555 1_555
O3A C1A 1_555 1_555
O3A_2 Ni1 1_555 1_555
O4A C3A 1_555 1_555
O4A_2 Ni2 1_555 1_555
O5A Ni2_3 1_555 1_555
O5A_2 Ni2 1_555 1_555
C1A O5A 1_555 1_555
C2A C11 1_555 1_555
C3A C15A 1_555 1_555
C4A H1A 1_555 1_555
C5A C4A 1_555 1_555
H2A C5A 1_555 1_555
N1A Ni2 1_555 1_555
N1_2 Ni2 1_555 1_555
C6A N1A 1_555 1_555
H3A C6A 1_555 1_555
C7A C6A 1_555 1_555
H4A C7A 1_555 1_555
C8A C5A 1_555 1_555
N2A C9A 1_555 1_555
N2A_2 Ni1 1_555 1_555
C9A H5A 1_555 1_555
C10A N2A 1_555 1_555
H6A C10A 1_555 1_555
N3A N4A 1_555 1_555
N4A C12A 1_555 1_555
C11A C2 1_555 1_555
N5A C12A 1_555 1_555
C12A C13A 1_555 1_555
C13A C14A 1_555 1_555
C14A C9A 1_555 1_555
H7A C14A 1_555 1_555
C15A C2A 1_555 1_555
C16A C10A 1_555 1_555
H8A C16A 1_555 1_555
C17A C8A 1_555 1_555
H10A O2A 1_555 1_555
H11A C11A 1_555 1_555
H15A N4A 1_555 1_555
H17A O2A 1_555 1_555
O5 C1 1_555 1_555
C7 C8 1_555 1_555
N3 C17 1_555 1_555
N5 C17 1_555 1_555
C13 C16 1_555 1_555
C1A C2A 1_555 1_555
C4A N1A 1_555 1_555
C7A C8A 1_555 1_555
N3A C17A 1_555 1_555
C11A C15A 1_555 1_555
N5A C17A 1_555 1_555
C13A C16A 1_555 1_555

#END
