
#######################################################################
#
#                 Cambridge Crystallographic Data Centre
#                                CCDC 
#
#######################################################################
#
# If this CIF has been generated from an entry in the Cambridge 
# Structural Database, then it will include bibliographic, chemical, 
# crystal, experimental, refinement or atomic coordinate data resulting 
# from the CCDC's data processing and validation procedures.
#
#######################################################################

data_GAXREE
_symmetry_cell_setting           monoclinic
_symmetry_space_group_name_H-M   'P 21/c'
_symmetry_Int_Tables_number      14
_space_group_name_Hall           '-P 2ybc'
loop_
_symmetry_equiv_pos_site_id
_symmetry_equiv_pos_as_xyz
1 x,y,z
2 -x,1/2+y,1/2-z
3 -x,-y,-z
4 x,1/2-y,1/2+z
_cell_length_a                   8.2800(17)
_cell_length_b                   28.059(6)
_cell_length_c                   16.424(3)
_cell_angle_alpha                90
_cell_angle_beta                 94.02(3)
_cell_angle_gamma                90
_cell_volume                     3806.38
loop_
_atom_site_label
_atom_site_type_symbol
_atom_site_fract_x
_atom_site_fract_y
_atom_site_fract_z
Co1 Co 0.23010(7) 0.42683(2) 0.84811(4)
Co2 Co 0.11951(7) -0.07854(2) 0.81131(4)
C1 C 0.2244(6) 0.40240(16) 0.6604(3)
C2 C 0.3440(6) 0.39913(19) 0.5990(3)
H1 H 0.3068 0.3935 0.5451
C3 C 0.4978(6) 0.40359(19) 0.6153(3)
H2 H 0.5352 0.4078 0.6696
C4 C 0.6189(6) 0.40243(18) 0.5529(3)
C5 C -0.1499(6) 0.45626(16) 0.8287(3)
C6 C -0.1648(6) 0.48387(18) 0.9031(3)
H3 H -0.0871 0.4804 0.9464
C7 C -0.2849(6) 0.51327(19) 0.9100(3)
H4 H -0.3608 0.5154 0.8656
C8 C -0.3125(7) 0.5436(2) 0.9814(3)
C9 C 0.0767(7) 0.34418(18) 0.9358(4)
H5 H 0.0253 0.3687 0.9620
C10 C 0.0401(7) 0.29859(19) 0.9552(4)
H6 H -0.0343 0.2924 0.9938
C11 C 0.1134(6) 0.26184(17) 0.9177(3)
C12 C 0.2242(8) 0.27377(19) 0.8638(4)
H7 H 0.2797 0.2500 0.8378
C13 C 0.2537(7) 0.32001(19) 0.8480(4)
H8 H 0.3302 0.3271 0.8110
C14 C 0.0723(7) 0.21239(18) 0.9343(3)
C15 C 0.0567(6) 0.13867(17) 0.9235(3)
C16 C 0.0725(6) 0.08947(18) 0.8998(3)
C17 C 0.1922(8) 0.0754(2) 0.8534(4)
H9 H 0.2677 0.0974 0.8372
C18 C 0.2020(8) 0.0292(2) 0.8303(4)
H10 H 0.2851 0.0206 0.7980
C19 C -0.0315(7) 0.05524(19) 0.9220(4)
H11 H -0.1158 0.0630 0.9542
C20 C -0.0117(7) 0.00962(19) 0.8969(3)
H12 H -0.0837 -0.0132 0.9136
C21 C 0.2104(8) 0.5333(2) 0.8435(4)
H13 H 0.1550 0.5270 0.8897
C22 C 0.2176(8) 0.5791(2) 0.8171(4)
H14 H 0.1702 0.6035 0.8454
C23 C 0.2955(7) 0.58894(18) 0.7481(3)
C24 C 0.3681(7) 0.55249(19) 0.7109(4)
H15 H 0.4244 0.5578 0.6647
C25 C 0.3568(6) 0.50759(18) 0.7427(3)
H16 H 0.4082 0.4828 0.7173
C26 C 0.2999(7) 0.63777(18) 0.7199(3)
C27 C 0.2767(7) 0.71078(18) 0.7108(3)
C28 C 0.2359(7) 0.75953(19) 0.7305(3)
C29 C 0.2908(8) 0.7967(2) 0.6887(4)
H17 H 0.3546 0.7916 0.6451
C30 C 0.2525(8) 0.8417(2) 0.7105(4)
H18 H 0.2919 0.8669 0.6809
C31 C 0.1416(9) 0.7695(2) 0.7926(4)
H19 H 0.1009 0.7448 0.8230
C32 C 0.1069(8) 0.81514(19) 0.8103(4)
H20 H 0.0400 0.8210 0.8523
H21 H 0.549(6) 0.426(2) 0.850(3)
H22 H 0.485(7) 0.420(2) 0.9225(14)
H23 H -0.083(7) 0.1346(18) 1.015(3)
H24 H 0.387(8) 0.633(2) 0.613(3)
N1 N 0.1800(5) 0.35570(14) 0.8823(3)
N2 N 0.1273(5) 0.17525(15) 0.8922(3)
N3 N -0.0240(6) 0.20036(15) 0.9905(3)
N4 N -0.0339(6) 0.15302(16) 0.9819(3)
N5 N 0.1019(5) -0.00429(15) 0.8508(3)
N6 N 0.2771(5) 0.49756(14) 0.8075(3)
N7 N 0.2471(6) 0.67428(16) 0.7596(3)
N8 N 0.3408(7) 0.69943(16) 0.6436(3)
N9 N 0.3541(7) 0.65184(16) 0.6501(3)
N10 N 0.1629(5) 0.85164(14) 0.7710(3)
O1 O 0.2735(4) 0.40393(13) 0.7327(2)
O2 O 0.0809(4) 0.40511(12) 0.6336(2)
O3 O 0.7639(4) 0.40526(13) 0.5783(2)
O4 O 0.5716(5) 0.39875(16) 0.4806(2)
O5 O -0.0155(4) 0.44022(11) 0.8111(2)
O6 O -0.2699(4) 0.44972(11) 0.7799(2)
O7 O -0.2051(4) 0.54663(12) 1.0374(2)
O8 O -0.4462(6) 0.5629(2) 0.9795(3)
O9 O 0.4742(4) 0.41221(13) 0.8726(2)
Co1B Co -0.23010(7) 0.57317(2) 1.15189(4)
Co2_2 Co 0.11951(7) 0.92146(2) 0.81131(4)
Co2A Co -0.11951(7) 0.42146(2) 0.68869(4)
Co2A_2 Co 0.88049(7) 0.42146(2) 0.68869(4)
N10_2 N 0.1629(5) -0.14836(14) 0.7710(3)
O2A O -0.0809(4) -0.09489(12) 0.8664(2)
O3A O 0.2361(4) -0.09474(13) 0.9217(2)
O5A O 0.0155(4) -0.05978(11) 0.6889(2)
O6A O 0.2699(4) -0.05028(11) 0.7201(2)
O7B O 0.2051(4) 0.45337(12) 0.9626(2)
O10 O 0.699(4) 0.3161(14) 0.054(2)
O11 O 0.599(3) 0.2624(10) 0.0211(15)
O12 O 0.308(3) 0.1722(8) 0.7367(15)
O13? O 0.322(4) 0.1313(11) 0.6736(17)
O14? O 0.181(3) 0.1607(10) 0.6694(15)
loop_
_geom_bond_atom_site_label_1
_geom_bond_atom_site_label_2
_geom_bond_site_symmetry_1
_geom_bond_site_symmetry_2
Co1 N1 1_555 1_555
Co2 N5 1_555 1_555
C1 C2 1_555 1_555
C2 H1 1_555 1_555
C3 C2 1_555 1_555
H2 C3 1_555 1_555
C4 C3 1_555 1_555
C5 C6 1_555 1_555
C6 H3 1_555 1_555
C7 C6 1_555 1_555
H4 C7 1_555 1_555
C8 C7 1_555 1_555
C9 H5 1_555 1_555
C10 C9 1_555 1_555
H6 C10 1_555 1_555
C11 C10 1_555 1_555
C12 C11 1_555 1_555
H7 C12 1_555 1_555
C13 C12 1_555 1_555
H8 C13 1_555 1_555
C14 C11 1_555 1_555
C15 C16 1_555 1_555
C16 C17 1_555 1_555
C17 H9 1_555 1_555
C18 C17 1_555 1_555
H10 C18 1_555 1_555
C19 C16 1_555 1_555
H11 C19 1_555 1_555
C20 C19 1_555 1_555
H12 C20 1_555 1_555
C21 H13 1_555 1_555
C22 C21 1_555 1_555
H14 C22 1_555 1_555
C23 C22 1_555 1_555
C24 C23 1_555 1_555
H15 C24 1_555 1_555
C25 C24 1_555 1_555
H16 C25 1_555 1_555
C26 C23 1_555 1_555
C27 C28 1_555 1_555
C28 C29 1_555 1_555
C29 H17 1_555 1_555
C30 C29 1_555 1_555
H18 C30 1_555 1_555
C31 C28 1_555 1_555
H19 C31 1_555 1_555
C32 C31 1_555 1_555
H20 C32 1_555 1_555
H21 O9 1_555 1_555
H22 O9 1_555 1_555
H23 N4 1_555 1_555
H24 N9 1_555 1_555
N1 C9 1_555 1_555
N2 C14 1_555 1_555
N3 C14 1_555 1_555
N4 C15 1_555 1_555
N5 C18 1_555 1_555
N6 Co1 1_555 1_555
N7 C26 1_555 1_555
N8 C27 1_555 1_555
N9 C26 1_555 1_555
N10 C30 1_555 1_555
O1 Co1 1_555 1_555
O2 C1 1_555 1_555
O3 C4 1_555 1_555
O4 C4 1_555 1_555
O5 Co1 1_555 1_555
O6 C5 1_555 1_555
O7 C8 1_555 1_555
O8 C8 1_555 1_555
O9 Co1 1_555 1_555
Co1B O7 1_555 1_555
Co2_2 N10 1_555 1_555
Co2A O2 1_555 1_555
Co2A_2 O3 1_555 1_555
N10_2 Co2 1_555 1_555
O2A Co2 1_555 1_555
O3A Co2 1_555 1_555
O5A Co2 1_555 1_555
O6A Co2 1_555 1_555
O7B Co1 1_555 1_555
C1 O1 1_555 1_555
C5 O5 1_555 1_555
C13 N1 1_555 1_555
C15 N2 1_555 1_555
C20 N5 1_555 1_555
C21 N6 1_555 1_555
C25 N6 1_555 1_555
C27 N7 1_555 1_555
C32 N10 1_555 1_555
N3 N4 1_555 1_555
N8 N9 1_555 1_555
O5 Co2A 1_555 1_555
O6 Co2A 1_555 1_555

#END
