
#######################################################################
#
#                 Cambridge Crystallographic Data Centre
#                                CCDC 
#
#######################################################################
#
# If this CIF has been generated from an entry in the Cambridge 
# Structural Database, then it will include bibliographic, chemical, 
# crystal, experimental, refinement or atomic coordinate data resulting 
# from the CCDC's data processing and validation procedures.
#
#######################################################################

data_GAXROO
_symmetry_cell_setting           orthorhombic
_symmetry_space_group_name_H-M   'F d d 2'
_symmetry_Int_Tables_number      43
_space_group_name_Hall           'F 2 -2d'
loop_
_symmetry_equiv_pos_site_id
_symmetry_equiv_pos_as_xyz
1 x,y,z
2 -x,-y,z
3 1/4-x,1/4+y,1/4+z
4 1/4+x,1/4-y,1/4+z
5 x,1/2+y,1/2+z
6 -x,1/2-y,1/2+z
7 1/4-x,3/4+y,3/4+z
8 1/4+x,3/4-y,3/4+z
9 1/2+x,y,1/2+z
10 1/2-x,-y,1/2+z
11 3/4-x,1/4+y,3/4+z
12 3/4+x,1/4-y,3/4+z
13 1/2+x,1/2+y,z
14 1/2-x,1/2-y,z
15 3/4-x,3/4+y,1/4+z
16 3/4+x,3/4-y,1/4+z
_cell_length_a                   31.754(12)
_cell_length_b                   10.712(4)
_cell_length_c                   21.206(8)
_cell_angle_alpha                90
_cell_angle_beta                 90
_cell_angle_gamma                90
_cell_volume                     7213.2
loop_
_atom_site_label
_atom_site_type_symbol
_atom_site_fract_x
_atom_site_fract_y
_atom_site_fract_z
Cu1 Cu 0.19640(4) -0.26073(15) 0.70754(8)
Cu2 Cu 0.22165(5) -0.49202(16) 0.82317(8)
Cu3 Cu 0.11724(4) -0.47999(14) 0.82668(8)
Br1 Br 0.2500 -0.2500 0.79723(10)
Br2 Br 0.16855(4) -0.49163(12) 0.73515(8)
N1 N 0.1907(3) -0.4850(8) 0.9019(5)
N2 N 0.1480(3) -0.5185(9) 0.9011(5)
N3 N 0.1684(2) -0.4993(8) 1.0015(6)
N4 N 0.3166(2) -0.3389(8) 1.0400(5)
N5 N 0.0201(2) -0.6695(9) 1.0336(5)
N6 N 0.0221(2) -0.0160(9) 0.8791(5)
N7 N 0.0000 0.0000 0.7765(8)
N8 N 0.1467(3) -0.1688(9) 0.7434(5)
C1 C 0.3106(3) -0.3422(13) 0.9769(7)
H1 H 0.3317 -0.3100 0.9495
C2 C 0.2737(3) -0.3926(12) 0.9517(6)
H2 H 0.2709 -0.3966 0.9071
C3 C 0.2416(3) -0.4361(10) 0.9882(6)
C4 C 0.2480(3) -0.4349(11) 1.0526(7)
H3 H 0.2267 -0.4650 1.0802
C5 C 0.2861(3) -0.3888(10) 1.0771(7)
H4 H 0.2907 -0.3928 1.1213
C6 C 0.2006(3) -0.4731(10) 0.9641(6)
C7 C 0.1370(3) -0.5255(10) 0.9618(6)
C8 C 0.0953(3) -0.5692(10) 0.9837(6)
C9 C 0.0834(4) -0.5466(11) 1.0463(7)
H5 H 0.1006 -0.4972 1.0732
C10 C 0.0457(4) -0.5983(13) 1.0686(7)
H6 H 0.0378 -0.5818 1.1110
C11 C 0.0311(4) -0.6863(12) 0.9735(6)
H7 H 0.0133 -0.7357 0.9476
C12 C 0.0674(4) -0.6353(13) 0.9464(6)
H8 H 0.0729 -0.6460 0.9027
C13 C 0.1417(3) -0.1629(11) 0.8054(6)
H9 H 0.1635 -0.1938 0.8317
C14 C 0.1055(3) -0.1130(11) 0.8338(7)
H10 H 0.1031 -0.1094 0.8784
C15 C 0.0729(3) -0.0681(9) 0.7949(6)
C16 C 0.0319(3) -0.0242(9) 0.8190(6)
C17 C 0.0809(4) -0.0669(13) 0.7302(6)
H11 H 0.0616 -0.0280 0.7021
C18 C 0.1163(3) -0.1218(11) 0.7077(6)
H12 H 0.1196 -0.1268 0.6632
Cu1A Cu -0.19640(4) 0.26073(15) 0.70754(8)
Cu1B Cu 0.05360(4) -0.01073(15) 0.95754(8)
Cu1M Cu 0.30360(4) -0.23927(15) 0.70754(8)
Cu1O Cu -0.05360(4) 0.01073(15) 0.95754(8)
Cu2A Cu -0.22165(5) 0.49202(16) 0.82317(8)
Cu2B Cu 0.02835(5) 0.75798(16) 1.07317(8)
Cu2M Cu 0.27835(5) -0.00798(16) 0.82317(8)
Cu2O Cu -0.02835(5) -0.75798(16) 1.07317(8)
Cu3A Cu -0.11724(4) 0.47999(14) 0.82668(8)
Cu3C Cu 0.36724(4) -0.27001(14) 1.07668(8)
Cu3N Cu -0.36724(4) 0.27001(14) 1.07668(8)
Br1A Br -0.2500 0.2500 0.79723(10)
Br2A Br -0.16855(4) 0.49163(12) 0.73515(8)
N1A N -0.1907(3) 0.4850(8) 0.9019(5)
N2A N -0.1480(3) 0.5185(9) 0.9011(5)
N3A N -0.1684(2) 0.4993(8) 1.0015(6)
N4A N -0.3166(2) 0.3389(8) 1.0400(5)
N4F N -0.0666(2) 0.4111(8) 0.7900(5)
N4K N 0.0666(2) -0.4111(8) 0.7900(5)
N5A N -0.0201(2) 0.6695(9) 1.0336(5)
N5G N 0.2701(2) -0.5805(9) 0.7836(5)
N5J N -0.2701(2) 0.5805(9) 0.7836(5)
N6A N -0.0221(2) 0.0160(9) 0.8791(5)
N6F N 0.2279(2) -0.2660(9) 0.6291(5)
N6K N -0.2279(2) 0.2660(9) 0.6291(5)
N8A N -0.1467(3) 0.1688(9) 0.7434(5)
C1A C -0.3106(3) 0.3422(13) 0.9769(7)
H1A H -0.3317 0.3100 0.9495
C2A C -0.2737(3) 0.3926(12) 0.9517(6)
H2A H -0.2709 0.3966 0.9071
C3A C -0.2416(3) 0.4361(10) 0.9882(6)
C4A C -0.2480(3) 0.4349(11) 1.0526(7)
H3A H -0.2267 0.4650 1.0802
C5A C -0.2861(3) 0.3888(10) 1.0771(7)
H4A H -0.2907 0.3928 1.1213
C6A C -0.2006(3) 0.4731(10) 0.9641(6)
C7A C -0.1370(3) 0.5255(10) 0.9618(6)
C8A C -0.0953(3) 0.5692(10) 0.9837(6)
C9A C -0.0834(4) 0.5466(11) 1.0463(7)
H5A H -0.1006 0.4972 1.0732
C10A C -0.0457(4) 0.5983(13) 1.0686(7)
H6A H -0.0378 0.5818 1.1110
C11A C -0.0311(4) 0.6863(12) 0.9735(6)
H7A H -0.0133 0.7357 0.9476
C12A C -0.0674(4) 0.6353(13) 0.9464(6)
H8A H -0.0729 0.6460 0.9027
C13A C -0.1417(3) 0.1629(11) 0.8054(6)
H9A H -0.1635 0.1938 0.8317
C14A C -0.1055(3) 0.1130(11) 0.8338(7)
H10A H -0.1031 0.1094 0.8784
C15A C -0.0729(3) 0.0681(9) 0.7949(6)
C16A C -0.0319(3) 0.0242(9) 0.8190(6)
C17A C -0.0809(4) 0.0669(13) 0.7302(6)
H11A H -0.0616 0.0280 0.7021
C18A C -0.1163(3) 0.1218(11) 0.7077(6)
H12A H -0.1196 0.1268 0.6632
loop_
_geom_bond_atom_site_label_1
_geom_bond_atom_site_label_2
_geom_bond_site_symmetry_1
_geom_bond_site_symmetry_2
Cu1 Br1 1_555 1_555
Cu2 Br1 1_555 1_555
Cu3 Br2 1_555 1_555
Br1 Cu1M 1_555 1_555
Br2 Cu1 1_555 1_555
N1 Cu2 1_555 1_555
N2 Cu3 1_555 1_555
N3 C6 1_555 1_555
N4 C1 1_555 1_555
N5 C10 1_555 1_555
N6 C16 1_555 1_555
N7 C16 1_555 1_555
N8 Cu1 1_555 1_555
C1 H1 1_555 1_555
C2 C1 1_555 1_555
H2 C2 1_555 1_555
C3 C2 1_555 1_555
C4 C3 1_555 1_555
H3 C4 1_555 1_555
C5 N4 1_555 1_555
H4 C5 1_555 1_555
C6 N1 1_555 1_555
C7 N2 1_555 1_555
C8 C7 1_555 1_555
C9 C8 1_555 1_555
H5 C9 1_555 1_555
C10 C9 1_555 1_555
H6 C10 1_555 1_555
C11 N5 1_555 1_555
H7 C11 1_555 1_555
C12 C8 1_555 1_555
H8 C12 1_555 1_555
C13 N8 1_555 1_555
H9 C13 1_555 1_555
C14 C13 1_555 1_555
H10 C14 1_555 1_555
C15 C14 1_555 1_555
C16 C15 1_555 1_555
C17 C15 1_555 1_555
H11 C17 1_555 1_555
C18 N8 1_555 1_555
H12 C18 1_555 1_555
Cu1A Br1A 1_555 1_555
Cu1B N6 1_555 1_555
Cu1O N6A 1_555 1_555
Cu2A Br1A 1_555 1_555
Cu2B N5A 1_555 1_555
Cu2M Br1 1_555 1_555
Cu2O N5 1_555 1_555
Cu3A Br2A 1_555 1_555
Cu3C N4 1_555 1_555
Cu3N N4A 1_555 1_555
Br2A Cu1A 1_555 1_555
N1A Cu2A 1_555 1_555
N2A Cu3A 1_555 1_555
N3A C6A 1_555 1_555
N4A C1A 1_555 1_555
N4F Cu3A 1_555 1_555
N4K Cu3 1_555 1_555
N5A C10A 1_555 1_555
N5G Cu2 1_555 1_555
N5J Cu2A 1_555 1_555
N6A N6 1_555 1_555
N6F Cu1 1_555 1_555
N6K Cu1A 1_555 1_555
N8A Cu1A 1_555 1_555
C1A H1A 1_555 1_555
C2A C1A 1_555 1_555
H2A C2A 1_555 1_555
C3A C2A 1_555 1_555
C4A C3A 1_555 1_555
H3A C4A 1_555 1_555
C5A N4A 1_555 1_555
H4A C5A 1_555 1_555
C6A N1A 1_555 1_555
C7A N2A 1_555 1_555
C8A C7A 1_555 1_555
C9A C8A 1_555 1_555
H5A C9A 1_555 1_555
C10A C9A 1_555 1_555
H6A C10A 1_555 1_555
C11A N5A 1_555 1_555
H7A C11A 1_555 1_555
C12A C8A 1_555 1_555
H8A C12A 1_555 1_555
C13A N8A 1_555 1_555
H9A C13A 1_555 1_555
C14A C13A 1_555 1_555
H10A C14A 1_555 1_555
C15A C14A 1_555 1_555
C16A N7 1_555 1_555
C17A C15A 1_555 1_555
H11A C17A 1_555 1_555
C18A N8A 1_555 1_555
H12A C18A 1_555 1_555
Cu2 Br2 1_555 1_555
N1 N2 1_555 1_555
N3 C7 1_555 1_555
C3 C6 1_555 1_555
C4 C5 1_555 1_555
C11 C12 1_555 1_555
C17 C18 1_555 1_555
Cu2A Br2A 1_555 1_555
N1A N2A 1_555 1_555
N3A C7A 1_555 1_555
N6A C16A 1_555 1_555
C3A C6A 1_555 1_555
C4A C5A 1_555 1_555
C11A C12A 1_555 1_555
C15A C16A 1_555 1_555
C17A C18A 1_555 1_555

#END
