
#######################################################################
#
#                 Cambridge Crystallographic Data Centre
#                                CCDC 
#
#######################################################################
#
# If this CIF has been generated from an entry in the Cambridge 
# Structural Database, then it will include bibliographic, chemical, 
# crystal, experimental, refinement or atomic coordinate data resulting 
# from the CCDC's data processing and validation procedures.
#
#######################################################################

data_GAXVUY
_symmetry_cell_setting           monoclinic
_symmetry_space_group_name_H-M   'P 21/n'
_symmetry_Int_Tables_number      14
_space_group_name_Hall           '-P 2yn'
loop_
_symmetry_equiv_pos_site_id
_symmetry_equiv_pos_as_xyz
1 x,y,z
2 1/2-x,1/2+y,1/2-z
3 -x,-y,-z
4 1/2+x,1/2-y,1/2+z
_cell_length_a                   10.3110(4)
_cell_length_b                   18.4014(13)
_cell_length_c                   14.3666(9)
_cell_angle_alpha                90
_cell_angle_beta                 99.825(5)
_cell_angle_gamma                90
_cell_volume                     2685.89
loop_
_atom_site_label
_atom_site_type_symbol
_atom_site_fract_x
_atom_site_fract_y
_atom_site_fract_z
Zn1 Zn 0.29259(4) 0.81383(3) -1.05302(3)
Ca1 Ca 0.37633(8) 0.69185(5) -0.82110(6)
C1 C 0.3244(4) 0.5920(2) -1.1207(3)
C2 C 0.3693(4) 0.5275(3) -1.0780(3)
H1 H 0.3967 0.5260 -1.0129
C3 C 0.3741(4) 0.4650(3) -1.1307(3)
H2 H 0.4083 0.4225 -1.1012
C4 C 0.3285(4) 0.4652(2) -1.2266(3)
C5 C 0.2784(5) 0.5291(3) -1.2686(3)
H3 H 0.2441 0.5297 -1.3328
C6 C 0.2786(5) 0.5923(3) -1.2164(3)
H4 H 0.2476 0.6353 -1.2462
C7 C 0.3291(4) 0.6598(2) -1.0630(3)
C8 C 0.3323(4) 0.3968(2) -1.2832(3)
C9 C -0.0418(4) 0.7921(2) -0.9301(3)
C10 C -0.1037(4) 0.7519(3) -0.8695(3)
H5 H -0.0549 0.7196 -0.8276
C11 C -0.2372(4) 0.7590(3) -0.8703(3)
H6 H -0.2774 0.7320 -0.8284
C12 C -0.3111(4) 0.8060(2) -0.9330(3)
C13 C -0.2482(4) 0.8465(3) -0.9938(3)
H7 H -0.2970 0.8782 -1.0365
C14 C -0.1144(4) 0.8404(3) -0.9917(3)
H8 H -0.0732 0.8687 -1.0316
C15 C 0.1041(4) 0.7834(3) -0.9310(3)
C16 C -0.4572(4) 0.8108(2) -0.9371(3)
C17 C 0.2916(9) 0.8076(4) -0.6523(4)
C18 C 0.1354(6) 0.8048(4) -0.6504(5)
H9 H 0.1116 0.8449 -0.6140
H10 H 0.1142 0.7600 -0.6222
H11 H 0.0876 0.8078 -0.7137
C19 C 0.2943(9) 0.9148(5) -0.5552(6)
H12 H 0.2011 0.9086 -0.5594
H13 H 0.3119 0.9616 -0.5799
H14 H 0.3362 0.9115 -0.4903
C20 C 0.4960(7) 0.8567(5) -0.6129(6)
H15 H 0.5159 0.8164 -0.6504
H16 H 0.5441 0.8519 -0.5499
H17 H 0.5207 0.9012 -0.6402
C21 C 0.2518(10) 0.5386(5) -0.7193(6)
C22 C 0.3720(6) 0.4843(4) -0.6635(6)
H18 H 0.3350 0.4496 -0.6255
H19 H 0.4367 0.5131 -0.6240
H20 H 0.4127 0.4590 -0.7095
C23 C 0.0468(6) 0.5772(4) -0.7513(6)
H21 H 0.0849 0.6114 -0.7892
H22 H 0.0065 0.6028 -0.7055
H23 H -0.0186 0.5488 -0.7911
C24 C 0.1178(8) 0.4679(4) -0.6357(6)
H24 H 0.1887 0.4378 -0.6055
H25 H 0.0528 0.4383 -0.6739
H26 H 0.0785 0.4925 -0.5885
O1 O 0.2902(3) 0.71702(17) -1.1076(2)
O2 O 0.3727(3) 0.65643(18) -0.9772(2)
O3 O 0.2419(3) 0.39192(17) -1.3543(2)
O4 O 0.4181(3) 0.35070(17) -1.2571(2)
O5 O 0.1538(3) 0.82868(18) -0.9807(2)
O6 O 0.1633(3) 0.7327(2) -0.8852(2)
O7 O -0.5227(3) 0.83865(18) -1.0115(2)
O8 O -0.5064(3) 0.78667(17) -0.8704(2)
O9 O 0.3361(4) 0.7593(3) -0.6965(3)
O10 O 0.2891(4) 0.5855(2) -0.7709(3)
N1 N 0.3459(9) 0.8579(4) -0.6102(5)
N2 N 0.1677(11) 0.5206(4) -0.6943(5)
Zn1A Zn 0.20741(4) 0.31383(3) -1.44698(3)
Zn1_2 Zn -0.70741(4) 0.81383(3) -1.05302(3)
Ca1B Ca 0.62367(8) 0.30815(5) -1.17890(6)
Ca1_2 Ca -0.62367(8) 0.69185(5) -0.82110(6)
O3A O 0.2581(3) 0.89192(17) -1.1457(2)
O4B O 0.5819(3) 0.64930(17) -0.7429(2)
O7_2 O 0.4773(3) 0.83865(18) -1.0115(2)
O8_2 O 0.4936(3) 0.78667(17) -0.8704(2)
loop_
_geom_bond_atom_site_label_1
_geom_bond_atom_site_label_2
_geom_bond_site_symmetry_1
_geom_bond_site_symmetry_2
Zn1 O1 1_555 1_555
Ca1 O2 1_555 1_555
C1 C2 1_555 1_555
C2 H1 1_555 1_555
C3 C2 1_555 1_555
H2 C3 1_555 1_555
C4 C3 1_555 1_555
C5 C4 1_555 1_555
H3 C5 1_555 1_555
C6 C1 1_555 1_555
H4 C6 1_555 1_555
C7 C1 1_555 1_555
C8 C4 1_555 1_555
C9 C10 1_555 1_555
C10 H5 1_555 1_555
C11 C10 1_555 1_555
H6 C11 1_555 1_555
C12 C11 1_555 1_555
C13 C12 1_555 1_555
H7 C13 1_555 1_555
C14 C9 1_555 1_555
H8 C14 1_555 1_555
C15 C9 1_555 1_555
C16 C12 1_555 1_555
C17 C18 1_555 1_555
C18 H9 1_555 1_555
H10 C18 1_555 1_555
H11 C18 1_555 1_555
C19 H12 1_555 1_555
H13 C19 1_555 1_555
H14 C19 1_555 1_555
C20 H15 1_555 1_555
H16 C20 1_555 1_555
H17 C20 1_555 1_555
C21 C22 1_555 1_555
C22 H18 1_555 1_555
H19 C22 1_555 1_555
H20 C22 1_555 1_555
C23 H21 1_555 1_555
H22 C23 1_555 1_555
H23 C23 1_555 1_555
C24 H24 1_555 1_555
H25 C24 1_555 1_555
H26 C24 1_555 1_555
O1 C7 1_555 1_555
O2 C7 1_555 1_555
O3 C8 1_555 1_555
O4 C8 1_555 1_555
O5 Zn1 1_555 1_555
O6 Ca1 1_555 1_555
O7 C16 1_555 1_555
O8 C16 1_555 1_555
O9 Ca1 1_555 1_555
O10 Ca1 1_555 1_555
N1 C17 1_555 1_555
N2 C21 1_555 1_555
Zn1A O3 1_555 1_555
Zn1_2 O7 1_555 1_555
Ca1B O4 1_555 1_555
Ca1_2 O8 1_555 1_555
O3A Zn1 1_555 1_555
O4B Ca1 1_555 1_555
O7_2 Zn1 1_555 1_555
O8_2 Ca1 1_555 1_555
C5 C6 1_555 1_555
C13 C14 1_555 1_555
C15 O5 1_555 1_555
C15 O6 1_555 1_555
C17 O9 1_555 1_555
C19 N1 1_555 1_555
C20 N1 1_555 1_555
C21 O10 1_555 1_555
C23 N2 1_555 1_555
C24 N2 1_555 1_555

#END
