
#######################################################################
#
#                 Cambridge Crystallographic Data Centre
#                                CCDC 
#
#######################################################################
#
# If this CIF has been generated from an entry in the Cambridge 
# Structural Database, then it will include bibliographic, chemical, 
# crystal, experimental, refinement or atomic coordinate data resulting 
# from the CCDC's data processing and validation procedures.
#
#######################################################################

data_GAXVOS
_symmetry_cell_setting           monoclinic
_symmetry_space_group_name_H-M   'C 2/c'
_symmetry_Int_Tables_number      15
_space_group_name_Hall           '-C 2yn'
loop_
_symmetry_equiv_pos_site_id
_symmetry_equiv_pos_as_xyz
1 x,y,z
2 -x,y,1/2-z
3 1/2+x,1/2+y,z
4 1/2-x,1/2+y,1/2-z
5 -x,-y,-z
6 x,-y,1/2+z
7 1/2-x,1/2-y,-z
8 1/2+x,1/2-y,1/2+z
_cell_length_a                   23.3223(18)
_cell_length_b                   10.6962(7)
_cell_length_c                   15.7966(12)
_cell_angle_alpha                90
_cell_angle_beta                 111.051(9)
_cell_angle_gamma                90
_cell_volume                     3677.63
loop_
_atom_site_label
_atom_site_type_symbol
_atom_site_fract_x
_atom_site_fract_y
_atom_site_fract_z
Zn1 Zn -0.092348(18) 1.34522(3) -0.93765(3)
Mg1 Mg -0.2500 1.2500 -1.0000
C1 C -0.13652(17) 1.1130(4) -0.7615(2)
C2 C -0.08667(19) 1.0361(4) -0.7197(3)
H1 H -0.0513 1.0453 -0.7334
C3 C -0.0883(2) 0.9462(4) -0.6584(3)
H2 H -0.0543 0.8953 -0.6313
C4 C -0.14055(17) 0.9312(3) -0.6369(3)
C5 C -0.18968(17) 1.0097(4) -0.6776(3)
H3 H -0.2246 1.0029 -0.6624
C6 C -0.18816(17) 1.0979(4) -0.7403(3)
H4 H -0.2225 1.1476 -0.7684
C7 C -0.13488(18) 1.2085(3) -0.8292(2)
C8 C -0.14419(18) 0.8360(3) -0.5704(3)
C9 C -0.22253(18) 1.6346(3) -0.9955(3)
C10 C -0.18895(19) 1.7362(4) -0.9490(3)
H5 H -0.1474 1.7270 -0.9148
C11 C -0.21657(19) 1.8502(3) -0.9530(3)
H6 H -0.1939 1.9174 -0.9206
C12 C -0.19287(17) 1.5091(3) -0.9919(2)
C13 C 0.0420(2) 1.4000(4) -0.8951(3)
C14 C 0.0521(2) 1.2991(5) -0.9525(4)
H7 H 0.0134 1.2627 -0.9885
H8 H 0.0781 1.2359 -0.9145
H9 H 0.0715 1.3332 -0.9917
C15 C 0.1525(2) 1.4423(6) -0.8275(4)
H10 H 0.1549 1.3757 -0.8669
H11 H 0.1750 1.4193 -0.7656
H12 H 0.1699 1.5169 -0.8421
C16 C 0.0771(3) 1.5637(6) -0.7861(4)
H13 H 0.0337 1.5713 -0.7997
H14 H 0.0928 1.6408 -0.8000
H15 H 0.0973 1.5450 -0.7229
O1 O -0.08421(12) 1.2293(2) -0.83819(19)
O2 O -0.18330(12) 1.2647(2) -0.87241(17)
O3 O -0.10076(13) 0.7571(2) -0.54298(18)
O4 O -0.18900(13) 0.8384(2) -0.5460(2)
O5 O -0.13572(12) 1.5028(2) -0.94835(19)
O6 O -0.22525(11) 1.4209(2) -1.03283(17)
O7 O -0.01156(12) 1.4269(3) -0.9000(2)
N1 N 0.08849(17) 1.4648(4) -0.8394(3)
Zn1F Zn -0.407652(18) 1.15478(3) -1.06235(3)
Zn1C Zn -0.407652(18) 1.84522(3) -1.56235(3)
Zn1E Zn -0.092348(18) 0.65478(3) -0.43765(3)
Zn1F_2 Zn -0.407652(18) 2.15478(3) -1.06235(3)
Mg1_2 Mg -0.2500 2.2500 -1.0000
Mg1C Mg -0.2500 0.7500 -0.5000
Mg1C_2 Mg -0.2500 1.7500 -1.5000
C1F C -0.36348(17) 1.3870(4) -1.2385(2)
C2F C -0.41333(19) 1.4639(4) -1.2803(3)
H1F H -0.4487 1.4547 -1.2666
C3F C -0.4117(2) 1.5538(4) -1.3416(3)
H2F H -0.4457 1.6047 -1.3687
C4F C -0.35945(17) 1.5688(3) -1.3631(3)
C5F C -0.31032(17) 1.4903(4) -1.3224(3)
H3F H -0.2754 1.4971 -1.3376
C6F C -0.31184(17) 1.4021(4) -1.2597(3)
H4F H -0.2775 1.3524 -1.2316
C7F C -0.36512(18) 1.2915(3) -1.1708(2)
C8F C -0.35581(18) 1.6640(3) -1.4296(3)
C9F C -0.27747(18) 1.8654(3) -1.0045(3)
C10F C -0.31105(19) 1.7638(4) -1.0510(3)
H5F H -0.3526 1.7730 -1.0852
C11F C -0.28343(19) 1.6498(3) -1.0470(3)
H6F H -0.3061 1.5826 -1.0794
C12F C -0.30713(17) 1.9909(3) -1.0081(2)
C13F C -0.5420(2) 1.1000(4) -1.1049(3)
C14F C -0.5521(2) 1.2009(5) -1.0475(4)
H7F H -0.5134 1.2373 -1.0115
H8F H -0.5781 1.2641 -1.0855
H9F H -0.5715 1.1668 -1.0083
C15F C -0.6525(2) 1.0577(6) -1.1725(4)
H10F H -0.6549 1.1243 -1.1331
H11F H -0.6750 1.0807 -1.2344
H12F H -0.6699 0.9831 -1.1579
C16F C -0.5771(3) 0.9363(6) -1.2139(4)
H13F H -0.5337 0.9287 -1.2003
H14F H -0.5928 0.8592 -1.2000
H15F H -0.5973 0.9550 -1.2771
O1F O -0.41579(12) 1.2707(2) -1.16181(19)
O2F O -0.31670(12) 1.2353(2) -1.12759(17)
O3F O -0.39924(13) 1.7429(2) -1.45702(18)
O3C O -0.39924(13) 1.2571(2) -0.95702(18)
O3E O -0.10076(13) 1.2429(2) -1.04298(18)
O4F O -0.31100(13) 1.6616(2) -1.4540(2)
O4C O -0.31100(13) 1.3384(2) -0.9540(2)
O4E O -0.18900(13) 1.1616(2) -1.0460(2)
O5F O -0.36428(12) 1.9972(2) -1.05165(19)
O5F_2 O -0.36428(12) 0.9972(2) -1.05165(19)
O6F O -0.27475(11) 2.0791(2) -0.96717(17)
O6F_2 O -0.27475(11) 1.0791(2) -0.96717(17)
O7F O -0.48844(12) 1.0731(3) -1.1000(2)
N1F N -0.58849(17) 1.0352(4) -1.1606(3)
loop_
_geom_bond_atom_site_label_1
_geom_bond_atom_site_label_2
_geom_bond_site_symmetry_1
_geom_bond_site_symmetry_2
Zn1 O1 1_555 1_555
Mg1 O2 1_555 1_555
C1 C2 1_555 1_555
C2 H1 1_555 1_555
C3 C2 1_555 1_555
H2 C3 1_555 1_555
C4 C3 1_555 1_555
C5 C4 1_555 1_555
H3 C5 1_555 1_555
C6 C1 1_555 1_555
H4 C6 1_555 1_555
C7 C1 1_555 1_555
C8 C4 1_555 1_555
C9 C10 1_555 1_555
C10 H5 1_555 1_555
C11 C10 1_555 1_555
H6 C11 1_555 1_555
C12 C9 1_555 1_555
C13 C14 1_555 1_555
C14 H7 1_555 1_555
H8 C14 1_555 1_555
H9 C14 1_555 1_555
C15 H10 1_555 1_555
H11 C15 1_555 1_555
H12 C15 1_555 1_555
C16 H13 1_555 1_555
H14 C16 1_555 1_555
H15 C16 1_555 1_555
O1 C7 1_555 1_555
O2 C7 1_555 1_555
O3 C8 1_555 1_555
O4 C8 1_555 1_555
O5 Zn1 1_555 1_555
O6 Mg1 1_555 1_555
O7 Zn1 1_555 1_555
N1 C13 1_555 1_555
Zn1F O1F 1_555 1_555
Zn1C O3F 1_555 1_555
Zn1E O3 1_555 1_555
Zn1F_2 O5F 1_555 1_555
Mg1_2 O6F 1_555 1_555
Mg1C O4 1_555 1_555
Mg1C_2 O4F 1_555 1_555
C1F C2F 1_555 1_555
C2F H1F 1_555 1_555
C3F C2F 1_555 1_555
H2F C3F 1_555 1_555
C4F C3F 1_555 1_555
C5F C4F 1_555 1_555
H3F C5F 1_555 1_555
C6F C1F 1_555 1_555
H4F C6F 1_555 1_555
C7F C1F 1_555 1_555
C8F C4F 1_555 1_555
C9F C11 1_555 1_555
C10F C9F 1_555 1_555
H5F C10F 1_555 1_555
C11F C9 1_555 1_555
H6F C11F 1_555 1_555
C12F C9F 1_555 1_555
C13F C14F 1_555 1_555
C14F H7F 1_555 1_555
H8F C14F 1_555 1_555
H9F C14F 1_555 1_555
C15F H10F 1_555 1_555
H11F C15F 1_555 1_555
H12F C15F 1_555 1_555
C16F H13F 1_555 1_555
H14F C16F 1_555 1_555
H15F C16F 1_555 1_555
O1F C7F 1_555 1_555
O2F Mg1 1_555 1_555
O3F C8F 1_555 1_555
O3C Zn1F 1_555 1_555
O3E Zn1 1_555 1_555
O4F C8F 1_555 1_555
O4C Mg1 1_555 1_555
O4E Mg1 1_555 1_555
O5F C12F 1_555 1_555
O5F_2 Zn1F 1_555 1_555
O6F C12F 1_555 1_555
O6F_2 Mg1 1_555 1_555
O7F Zn1F 1_555 1_555
N1F C13F 1_555 1_555
C5 C6 1_555 1_555
C12 O5 1_555 1_555
C12 O6 1_555 1_555
C13 O7 1_555 1_555
C15 N1 1_555 1_555
C16 N1 1_555 1_555
C5F C6F 1_555 1_555
C7F O2F 1_555 1_555
C10F C11F 1_555 1_555
C13F O7F 1_555 1_555
C15F N1F 1_555 1_555
C16F N1F 1_555 1_555

#END
