
#######################################################################
#
#                 Cambridge Crystallographic Data Centre
#                                CCDC 
#
#######################################################################
#
# If this CIF has been generated from an entry in the Cambridge 
# Structural Database, then it will include bibliographic, chemical, 
# crystal, experimental, refinement or atomic coordinate data resulting 
# from the CCDC's data processing and validation procedures.
#
#######################################################################

data_GAXVUW
_symmetry_cell_setting           monoclinic
_symmetry_space_group_name_H-M   'P 21/c'
_symmetry_Int_Tables_number      14
_space_group_name_Hall           '-P 2ybc'
loop_
_symmetry_equiv_pos_site_id
_symmetry_equiv_pos_as_xyz
1 x,y,z
2 -x,1/2+y,1/2-z
3 -x,-y,-z
4 x,1/2-y,1/2+z
_cell_length_a                   12.375(5)
_cell_length_b                   8.423(5)
_cell_length_c                   15.625(6)
_cell_angle_alpha                90
_cell_angle_beta                 94.20(4)
_cell_angle_gamma                90
_cell_volume                     1624.29
loop_
_atom_site_label
_atom_site_type_symbol
_atom_site_fract_x
_atom_site_fract_y
_atom_site_fract_z
Ni1 Ni 0.000 0.000 0.000
S1 S 0.082(3) 0.272(4) 0.074(2)
C1 C -0.134(7) 0.211(14) 0.086(6)
N1 N -0.148(7) 0.085(12) 0.056(5)
C2 C -0.221(8) 0.015(14) 0.062(6)
N2 N -0.290(7) 0.095(12) 0.093(5)
C3 C -0.243(7) 0.233(13) 0.110(6)
C4 C -0.293(8) 0.377(14) 0.144(6)
C5 C -0.076(8) 0.305(12) 0.089(6)
C6 C 0.099(7) 0.228(12) 0.192(6)
C7 C 0.172(7) 0.329(11) 0.249(6)
N3 N 0.248(7) 0.440(11) 0.216(6)
C8 C 0.232(7) 0.549(12) 0.170(6)
N4 N 0.128(6) 0.650(11) 0.191(5)
C9 C 0.088(7) 0.741(12) 0.143(6)
N5 N 0.046(6) 0.846(10) 0.114(5)
N6 N 0.309(6) 0.617(10) 0.142(5)
C10 C 0.418(8) 0.578(11) 0.131(6)
S1B S -0.082(3) -0.272(4) -0.074(2)
C1B C 0.134(7) -0.211(14) -0.086(6)
N1B N 0.148(7) -0.085(12) -0.056(5)
C2B C 0.221(8) -0.015(14) -0.062(6)
N2B N 0.290(7) -0.095(12) -0.093(5)
C3B C 0.243(7) -0.233(13) -0.110(6)
C4B C 0.293(8) -0.377(14) -0.144(6)
C5B C 0.076(8) -0.305(12) -0.089(6)
C6B C -0.099(7) -0.228(12) -0.192(6)
C7B C -0.172(7) -0.329(11) -0.249(6)
N3B N -0.248(7) -0.440(11) -0.216(6)
C8B C -0.232(7) -0.549(12) -0.170(6)
N4B N -0.128(6) -0.650(11) -0.191(5)
C9B C -0.088(7) -0.741(12) -0.143(6)
N5B N -0.046(6) -0.846(10) -0.114(5)
N6B N -0.309(6) -0.617(10) -0.142(5)
C10B C -0.418(8) -0.578(11) -0.131(6)
N5_2 N 0.046(6) -0.154(10) 0.114(5)
N5B_2 N -0.046(6) 0.154(10) -0.114(5)
Ni1_2 Ni 0.000 1.000 0.000
Ni1_3 Ni 0.000 -1.000 0.000
B1 B 0.577(7) 0.584(11) 0.360(6)
F1 F 0.676(4) 0.493(7) 0.378(3)
F2 F 0.494(4) 0.483(6) 0.336(3)
F3 F 0.567(4) 0.671(6) 0.432(3)
F4 F 0.601(4) 0.677(6) 0.291(3)
loop_
_geom_bond_atom_site_label_1
_geom_bond_atom_site_label_2
_geom_bond_site_symmetry_1
_geom_bond_site_symmetry_2
Ni1 S1 1_555 1_555
S1 C5 1_555 1_555
C1 N1 1_555 1_555
N1 Ni1 1_555 1_555
C2 N1 1_555 1_555
N2 C2 1_555 1_555
C3 C1 1_555 1_555
C4 C3 1_555 1_555
C5 C1 1_555 1_555
C6 S1 1_555 1_555
C7 C6 1_555 1_555
N3 C7 1_555 1_555
C8 N3 1_555 1_555
N4 C8 1_555 1_555
C9 N4 1_555 1_555
N5 C9 1_555 1_555
N6 C8 1_555 1_555
C10 N6 1_555 1_555
B1 F1 1_555 1_555
F2 B1 1_555 1_555
F3 B1 1_555 1_555
F4 B1 1_555 1_555
S1B Ni1 1_555 1_555
C1B N1B 1_555 1_555
N1B Ni1 1_555 1_555
C2B N1B 1_555 1_555
N2B C2B 1_555 1_555
C3B C1B 1_555 1_555
C4B C3B 1_555 1_555
C5B S1B 1_555 1_555
C6B S1B 1_555 1_555
C7B C6B 1_555 1_555
N3B C7B 1_555 1_555
C8B N3B 1_555 1_555
N4B C8B 1_555 1_555
C9B N4B 1_555 1_555
N5B C9B 1_555 1_555
N6B C8B 1_555 1_555
C10B N6B 1_555 1_555
N5_2 Ni1 1_555 1_555
N5B_2 Ni1 1_555 1_555
Ni1_2 N5 1_555 1_555
Ni1_3 N5B 1_555 1_555
N2 C3 1_555 1_555
C1B C5B 1_555 1_555
N2B C3B 1_555 1_555

#END
