
#######################################################################
#
#                 Cambridge Crystallographic Data Centre
#                                CCDC 
#
#######################################################################
#
# If this CIF has been generated from an entry in the Cambridge 
# Structural Database, then it will include bibliographic, chemical, 
# crystal, experimental, refinement or atomic coordinate data resulting 
# from the CCDC's data processing and validation procedures.
#
#######################################################################

data_GAXWOT
_symmetry_cell_setting           monoclinic
_symmetry_space_group_name_H-M   'P 21/c'
_symmetry_Int_Tables_number      14
_space_group_name_Hall           '-P 2ybc'
loop_
_symmetry_equiv_pos_site_id
_symmetry_equiv_pos_as_xyz
1 x,y,z
2 -x,1/2+y,1/2-z
3 -x,-y,-z
4 x,1/2-y,1/2+z
_cell_length_a                   11.1613(9)
_cell_length_b                   24.1334(12)
_cell_length_c                   20.5794(15)
_cell_angle_alpha                90
_cell_angle_beta                 91.020(7)
_cell_angle_gamma                90
_cell_volume                     5542.39
loop_
_atom_site_label
_atom_site_type_symbol
_atom_site_fract_x
_atom_site_fract_y
_atom_site_fract_z
Pb1 Pb 0.66288(6) 0.45441(2) 0.47850(3)
Pb2 Pb 0.98483(6) 0.43075(2) 0.55959(3)
Co1 Co 0.2869(2) 0.44954(7) 1.00130(10)
O1 O 0.7539(12) 0.4695(4) 0.5987(5)
O2 O 0.8774(14) 0.4189(5) 0.6570(5)
O3 O 0.2004(13) 0.8560(4) 0.9802(6)
O4 O 0.0243(13) 0.8333(4) 0.9433(6)
O5 O -0.2758(16) 0.4559(5) 1.3647(6)
O6 O -0.1092(12) 0.4546(4) 1.4242(6)
O7 O 0.2450(11) 0.0472(4) 1.0105(5)
O8 O 0.4348(10) 0.0469(4) 1.0433(5)
O9 O 1.1393(11) 0.4077(5) 0.6439(7)
N1 N 0.3519(14) 0.5085(4) 0.9445(6)
N2 N 0.2380(13) 0.3938(4) 1.0656(6)
N3 N 0.3841(13) 0.3936(4) 0.9551(6)
N4 N 0.1804(14) 0.5041(4) 1.0446(6)
C1 C 0.471(2) 0.5560(8) 0.8747(10)
H1 H 0.5279 0.5637 0.8437
C2 C 0.2055(18) 0.6483(6) 0.9745(8)
C3 C 0.518(2) 0.4713(8) 0.7577(10)
H2 H 0.4416 0.4863 0.7546
C4 C 0.1601(19) 0.5564(6) 1.0245(9)
C5 C 0.4354(16) 0.5025(6) 0.9002(8)
C6 C 0.3277(17) 0.5634(5) 0.9497(8)
C7 C 0.0389(18) 0.5425(6) 1.1068(9)
H3 H -0.0204 0.5464 1.1377
C8 C 0.2685(15) 0.3389(5) 1.0656(7)
C9 C 0.1505(17) 0.7603(6) 0.9643(8)
C10 C 0.1707(15) 0.4016(5) 1.1209(7)
C11 C 0.2342(16) 0.5881(6) 0.9813(7)
C12 C 0.4387(16) 0.3100(6) 0.9130(9)
H4 H 0.4465 0.2718 0.9084
C13 C 0.1071(19) 0.4964(6) 1.0958(8)
C14 C 0.3785(15) 0.3379(5) 0.9630(7)
C15 C 0.1682(17) 0.3502(6) 1.1570(9)
H5 H 0.1308 0.3445 1.1965
C16 C 0.2607(16) 0.7432(6) 0.9925(8)
H6 H 0.3138 0.7691 1.0100
C17 C 0.586(2) 0.4677(8) 0.7009(9)
H7 H 0.5552 0.4789 0.6608
C18 C 0.773(2) 0.4438(7) 0.6478(11)
C19 C 0.0700(16) 0.7208(6) 0.9444(9)
H8 H -0.0038 0.7314 0.9268
C20 C 0.4801(18) 0.4530(6) 0.8740(8)
C21 C 0.2882(15) 0.6879(6) 0.9936(8)
H9 H 0.3642 0.6767 1.0075
C22 C 0.560(2) 0.4537(7) 0.8174(9)
C23 C 0.7018(18) 0.4466(6) 0.7072(7)
C24 C 0.4827(17) 0.3491(6) 0.8733(8)
H10 H 0.5273 0.3435 0.8361
C25 C 0.1279(18) 0.8232(7) 0.9646(8)
C26 C 0.7469(17) 0.4275(6) 0.7675(8)
H11 H 0.8234 0.4125 0.7716
C27 C 0.4465(17) 0.4010(6) 0.9006(7)
C28 C 0.0979(16) 0.6659(5) 0.9503(7)
H12 H 0.0414 0.6397 0.9373
C29 C 0.4004(19) 0.5919(7) 0.9069(8)
H13 H 0.4006 0.6302 0.9013
C30 C 0.674(2) 0.4321(6) 0.8195(8)
H14 H 0.7033 0.4197 0.8595
C31 C 0.0733(18) 0.5798(5) 1.0657(9)
H15 H 0.0454 0.6161 1.0637
C32 C 0.2286(14) 0.3124(6) 1.1239(7)
H16 H 0.2424 0.2758 1.1361
C33 C 0.4399(15) 0.1651(6) 1.0523(8)
H17 H 0.5066 0.1488 1.0720
C34 C 0.256(2) 0.1623(6) 0.9996(10)
H18 H 0.1926 0.1416 0.9827
C35 C 0.3457(15) 0.1333(5) 1.0256(8)
C36 C 0.3401(17) 0.0719(7) 1.0263(7)
C37 C 0.1096(17) 0.4491(5) 1.1341(7)
C38 C -0.1518(18) 0.4524(6) 1.2510(11)
H19 H -0.2351 0.4524 1.2494
C39 C 0.0929(17) 0.4488(6) 1.2550(9)
H20 H 0.1762 0.4480 1.2566
C40 C 0.032(2) 0.4491(5) 1.3130(9)
H21 H 0.0743 0.4468 1.3523
C41 C 0.037(2) 0.4497(5) 1.1959(10)
C42 C -0.088(2) 0.4526(6) 1.3124(8)
C43 C -0.160(2) 0.4551(6) 1.3722(12)
C44 C -0.084(2) 0.4524(6) 1.1923(8)
H22 H -0.1234 0.4541 1.1520
C45 C 0.3346(17) 0.2489(5) 1.0207(8)
C46 C 0.2443(17) 0.2189(6) 0.9941(9)
H23 H 0.1785 0.2354 0.9735
C47 C 0.4282(18) 0.2221(7) 1.0476(9)
H24 H 0.4905 0.2435 1.0646
C48 C 0.3306(16) 0.3101(6) 1.0166(8)
O10 O 0.480(2) 0.4186(10) 0.4020(13)
C49 C 0.502(3) 0.3865(15) 0.3566(15)
H25 H 0.5821 0.3814 0.3467
N5 N 0.417(2) 0.3571(10) 0.3187(13)
C50 C 0.298(3) 0.3443(18) 0.336(2)
H26 H 0.2769 0.3650 0.3742
H27 H 0.2913 0.3054 0.3452
H28 H 0.2438 0.3538 0.3010
C51 C 0.449(4) 0.3237(16) 0.2644(16)
H29 H 0.5299 0.3317 0.2526
H30 H 0.3960 0.3317 0.2283
H31 H 0.4421 0.2852 0.2757
Pb1_2 Pb -0.33712(6) 0.45441(2) 1.47850(3)
Pb1A Pb 0.33712(6) -0.04559(2) 1.02150(3)
Pb2A Pb 0.01517(6) 0.93075(2) 0.94041(3)
O3A O 0.7996(13) 0.3560(4) 0.5198(6)
O4A O 0.9757(13) 0.3333(4) 0.5567(6)
O5_2 O 0.7242(16) 0.4559(5) 0.3647(6)
O6_2 O 0.8908(12) 0.4546(4) 0.4242(6)
O7A O 0.7550(11) 0.5472(4) 0.4895(5)
O8A O 0.5652(10) 0.5469(4) 0.4567(5)
loop_
_geom_bond_atom_site_label_1
_geom_bond_atom_site_label_2
_geom_bond_site_symmetry_1
_geom_bond_site_symmetry_2
Pb1 O1 1_555 1_555
Pb2 O1 1_555 1_555
Co1 N1 1_555 1_555
O1 C18 1_555 1_555
O2 Pb2 1_555 1_555
O3 C25 1_555 1_555
O4 C25 1_555 1_555
O5 C43 1_555 1_555
O6 C43 1_555 1_555
O7 C36 1_555 1_555
O8 C36 1_555 1_555
O9 Pb2 1_555 1_555
N1 C5 1_555 1_555
N2 Co1 1_555 1_555
N3 Co1 1_555 1_555
N4 Co1 1_555 1_555
C1 H1 1_555 1_555
C2 C11 1_555 1_555
C3 H2 1_555 1_555
C4 N4 1_555 1_555
C5 C1 1_555 1_555
C6 N1 1_555 1_555
C7 H3 1_555 1_555
C8 N2 1_555 1_555
C9 C16 1_555 1_555
C10 N2 1_555 1_555
C11 C4 1_555 1_555
C12 H4 1_555 1_555
C13 N4 1_555 1_555
C14 N3 1_555 1_555
C15 C10 1_555 1_555
H5 C15 1_555 1_555
C16 H6 1_555 1_555
C17 C3 1_555 1_555
H7 C17 1_555 1_555
C18 O2 1_555 1_555
C19 C9 1_555 1_555
H8 C19 1_555 1_555
C20 C5 1_555 1_555
C21 C2 1_555 1_555
H9 C21 1_555 1_555
C22 C3 1_555 1_555
C23 C17 1_555 1_555
C24 C12 1_555 1_555
H10 C24 1_555 1_555
C25 C9 1_555 1_555
C26 C23 1_555 1_555
H11 C26 1_555 1_555
C27 N3 1_555 1_555
C28 C2 1_555 1_555
H12 C28 1_555 1_555
C29 C1 1_555 1_555
H13 C29 1_555 1_555
C30 C22 1_555 1_555
H14 C30 1_555 1_555
C31 C4 1_555 1_555
H15 C31 1_555 1_555
C32 C8 1_555 1_555
H16 C32 1_555 1_555
C33 H17 1_555 1_555
C34 H18 1_555 1_555
C35 C33 1_555 1_555
C36 C35 1_555 1_555
C37 C10 1_555 1_555
C38 H19 1_555 1_555
C39 H20 1_555 1_555
C40 C39 1_555 1_555
H21 C40 1_555 1_555
C41 C37 1_555 1_555
C42 C38 1_555 1_555
C43 C42 1_555 1_555
C44 C38 1_555 1_555
H22 C44 1_555 1_555
C45 C46 1_555 1_555
C46 C34 1_555 1_555
H23 C46 1_555 1_555
C47 C33 1_555 1_555
H24 C47 1_555 1_555
C48 C8 1_555 1_555
O10 Pb1 1_555 1_555
C49 O10 1_555 1_555
H25 C49 1_555 1_555
N5 C49 1_555 1_555
C50 N5 1_555 1_555
H26 C50 1_555 1_555
H27 C50 1_555 1_555
H28 C50 1_555 1_555
C51 N5 1_555 1_555
H29 C51 1_555 1_555
H30 C51 1_555 1_555
H31 C51 1_555 1_555
Pb1_2 O5 1_555 1_555
Pb1A O7 1_555 1_555
Pb2A O3 1_555 1_555
O3A Pb2 1_555 1_555
O4A Pb2 1_555 1_555
O5_2 Pb1 1_555 1_555
O6_2 Pb1 1_555 1_555
O7A Pb1 1_555 1_555
O8A Pb1 1_555 1_555
O4 Pb2A 1_555 1_555
O6 Pb1_2 1_555 1_555
O8 Pb1A 1_555 1_555
C6 C11 1_555 1_555
C6 C29 1_555 1_555
C7 C13 1_555 1_555
C7 C31 1_555 1_555
C12 C14 1_555 1_555
C13 C37 1_555 1_555
C14 C48 1_555 1_555
C15 C32 1_555 1_555
C16 C21 1_555 1_555
C18 C23 1_555 1_555
C19 C28 1_555 1_555
C20 C22 1_555 1_555
C20 C27 1_555 1_555
C24 C27 1_555 1_555
C26 C30 1_555 1_555
C34 C35 1_555 1_555
C39 C41 1_555 1_555
C40 C42 1_555 1_555
C41 C44 1_555 1_555
C45 C47 1_555 1_555
C45 C48 1_555 1_555

#END
