
#######################################################################
#
#                 Cambridge Crystallographic Data Centre
#                                CCDC 
#
#######################################################################
#
# If this CIF has been generated from an entry in the Cambridge 
# Structural Database, then it will include bibliographic, chemical, 
# crystal, experimental, refinement or atomic coordinate data resulting 
# from the CCDC's data processing and validation procedures.
#
#######################################################################

data_GAXWIN
_symmetry_cell_setting           monoclinic
_symmetry_space_group_name_H-M   'P 21/c'
_symmetry_Int_Tables_number      14
_space_group_name_Hall           '-P 2ybc'
loop_
_symmetry_equiv_pos_site_id
_symmetry_equiv_pos_as_xyz
1 x,y,z
2 -x,1/2+y,1/2-z
3 -x,-y,-z
4 x,1/2-y,1/2+z
_cell_length_a                   15.3484(6)
_cell_length_b                   6.9216(3)
_cell_length_c                   27.1086(13)
_cell_angle_alpha                90
_cell_angle_beta                 99.924(4)
_cell_angle_gamma                90
_cell_volume                     2836.8
loop_
_atom_site_label
_atom_site_type_symbol
_atom_site_fract_x
_atom_site_fract_y
_atom_site_fract_z
Pb1 Pb 0.059404(16) 0.86549(3) 0.239874(9)
O1 O -0.0882(3) 0.9828(6) 0.25763(18)
O2 O -0.0867(3) 1.8839(6) 0.69685(18)
C1 C -0.4246(5) 0.6202(10) 0.3892(3)
H1 H -0.3882 0.5832 0.3668
N1 N -0.5205(4) 1.2087(7) 0.5509(2)
C2 C -0.2805(4) 0.8998(10) 0.3887(3)
N2 N -0.3896(3) 1.1450(7) 0.4867(2)
O3 O -0.1802(4) 2.1165(7) 0.6782(3)
C3 C -0.3456(4) 0.9260(9) 0.4239(3)
C4 C -0.3281(4) 1.5545(8) 0.5787(2)
C5 C -0.3531(4) 1.3089(9) 0.5119(3)
C6 C -0.3444(5) 1.7502(10) 0.5749(3)
H2 H -0.3927 1.7963 0.5525
C7 C -0.3867(4) 1.4064(9) 0.5492(3)
C8 C -0.1986(5) 1.6210(9) 0.6399(3)
H3 H -0.1494 1.5743 0.6615
C9 C -0.4663(4) 1.3665(9) 0.5663(2)
C10 C -0.2154(4) 1.8142(9) 0.6379(3)
C11 C -0.2218(5) 0.7479(9) 0.3929(3)
H4 H -0.2239 0.6544 0.4173
C12 C -0.3357(4) 1.0912(9) 0.4535(3)
C13 C -0.2632(5) 1.2298(11) 0.4582(3)
H5 H -0.2173 1.2302 0.4398
C14 C -0.1603(5) 0.7315(10) 0.3619(3)
H6 H -0.1205 0.6291 0.3660
C15 C -0.4116(4) 0.7877(10) 0.4225(3)
C16 C -0.2540(5) 1.4936(9) 0.6103(3)
H7 H -0.2404 1.3625 0.6118
C17 C -0.2746(5) 1.3557(10) 0.4938(3)
H8 H -0.2370 1.4578 0.5050
C18 C -0.5022(5) 1.4701(11) 0.6033(3)
H9 H -0.4787 1.5817 0.6195
C19 C -0.2774(5) 1.0345(11) 0.3506(3)
H10 H -0.3168 1.1378 0.3466
C20 C -0.2884(5) 1.8791(10) 0.6046(3)
H11 H -0.3003 2.0108 0.6021
C21 C -0.1574(4) 0.8675(9) 0.3244(2)
C22 C -0.2170(5) 1.0160(9) 0.3190(3)
H12 H -0.2167 1.1059 0.2935
C23 C -0.1575(5) 1.9486(9) 0.6733(3)
O4 O -0.0277(3) 0.7303(6) 0.30041(17)
C24 C -0.0873(4) 0.8612(9) 0.2916(2)
Pb1B Pb -1.059404(16) 1.13451(3) 0.760126(9)
Pb1A Pb -0.059404(16) 1.36549(3) 0.260126(9)
Pb1B_2 Pb -0.059404(16) 2.13451(3) 0.760126(9)
Pb1C Pb 0.059404(16) 1.63451(3) 0.739874(9)
Pb1A_2 Pb -0.059404(16) 0.36549(3) 0.260126(9)
Pb1C_2 Pb -0.940596(16) 0.63451(3) 0.739874(9)
Pb1C_3 Pb -0.940596(16) 1.63451(3) 0.739874(9)
Pb1_2 Pb -0.940596(16) -0.13451(3) 0.239874(9)
Pb1A_3 Pb -1.059404(16) 0.36549(3) 0.260126(9)
O1B O -0.9118(3) 1.0172(6) 0.74237(18)
O1A O 0.0882(3) 0.4828(6) 0.24237(18)
O1C O -1.0882(3) 1.5172(6) 0.75763(18)
O2B O -0.9133(3) 0.1161(6) 0.30315(18)
O2B_2 O 0.0867(3) 1.1161(6) 0.30315(18)
O2C O -0.0867(3) 0.6161(6) 0.19685(18)
O2_2 O -1.0867(3) 0.8839(6) 0.69685(18)
O2A O -0.9133(3) 1.3839(6) 0.80315(18)
C1B C -0.5754(5) 1.3798(10) 0.6108(3)
H1B H -0.6118 1.4168 0.6332
N1B N -0.4795(4) 0.7913(7) 0.4491(2)
C2B C -0.7195(4) 1.1002(10) 0.6113(3)
N2B N -0.6104(3) 0.8550(7) 0.5133(2)
O3B O -0.8198(4) -0.1165(7) 0.3218(3)
O3B_2 O 0.1802(4) 0.8835(7) 0.3218(3)
O3_2 O -1.1802(4) 1.1165(7) 0.6782(3)
C3B C -0.6544(4) 1.0740(9) 0.5761(3)
C4B C -0.6719(4) 0.4455(8) 0.4213(2)
C5B C -0.6469(4) 0.6911(9) 0.4881(3)
C6B C -0.6556(5) 0.2498(10) 0.4251(3)
H2B H -0.6073 0.2037 0.4475
C7B C -0.6133(4) 0.5936(9) 0.4508(3)
C8B C -0.8014(5) 0.3790(9) 0.3601(3)
H3B H -0.8506 0.4257 0.3385
C9B C -0.5337(4) 0.6335(9) 0.4337(2)
C10B C -0.7846(4) 0.1858(9) 0.3621(3)
C11B C -0.7782(5) 1.2521(9) 0.6071(3)
H4B H -0.7761 1.3456 0.5827
C12B C -0.6643(4) 0.9088(9) 0.5465(3)
C13B C -0.7368(5) 0.7702(11) 0.5418(3)
H5B H -0.7827 0.7698 0.5602
C14B C -0.8397(5) 1.2685(10) 0.6381(3)
H6B H -0.8795 1.3709 0.6340
C15B C -0.5884(4) 1.2123(10) 0.5775(3)
C16B C -0.7460(5) 0.5064(9) 0.3897(3)
H7B H -0.7596 0.6375 0.3882
C17B C -0.7254(5) 0.6443(10) 0.5062(3)
H8B H -0.7630 0.5422 0.4950
C18B C -0.4978(5) 0.5299(11) 0.3967(3)
H9B H -0.5213 0.4183 0.3805
C19B C -0.7226(5) 0.9655(11) 0.6494(3)
H10B H -0.6832 0.8622 0.6534
C20B C -0.7116(5) 0.1209(10) 0.3954(3)
H11B H -0.6997 -0.0108 0.3979
C21B C -0.8426(4) 1.1325(9) 0.6756(2)
C22B C -0.7830(5) 0.9840(9) 0.6810(3)
H12B H -0.7833 0.8941 0.7065
C23B C -0.8425(5) 0.0514(9) 0.3267(3)
O4B O -0.9723(3) 1.2697(6) 0.69959(17)
O4A O 0.0277(3) 1.2303(6) 0.19959(17)
O4C O -1.0277(3) 0.7697(6) 0.80041(17)
C24B C -0.9127(4) 1.1388(9) 0.7084(2)
loop_
_geom_bond_atom_site_label_1
_geom_bond_atom_site_label_2
_geom_bond_site_symmetry_1
_geom_bond_site_symmetry_2
Pb1 O1 1_555 1_555
O1 C24 1_555 1_555
O2 C23 1_555 1_555
C1 H1 1_555 1_555
N1 C9 1_555 1_555
C2 C3 1_555 1_555
N2 C5 1_555 1_555
O3 C23 1_555 1_555
C3 C12 1_555 1_555
C4 C6 1_555 1_555
C5 C7 1_555 1_555
C6 H2 1_555 1_555
C7 C4 1_555 1_555
C8 H3 1_555 1_555
C9 C7 1_555 1_555
C10 C8 1_555 1_555
C11 C2 1_555 1_555
H4 C11 1_555 1_555
C12 N2 1_555 1_555
C13 C12 1_555 1_555
H5 C13 1_555 1_555
C14 C11 1_555 1_555
H6 C14 1_555 1_555
C15 C1 1_555 1_555
C16 C4 1_555 1_555
H7 C16 1_555 1_555
C17 C5 1_555 1_555
H8 C17 1_555 1_555
C18 C9 1_555 1_555
H9 C18 1_555 1_555
C19 C2 1_555 1_555
H10 C19 1_555 1_555
C20 C6 1_555 1_555
H11 C20 1_555 1_555
C21 C14 1_555 1_555
C22 C19 1_555 1_555
H12 C22 1_555 1_555
C23 C10 1_555 1_555
O4 Pb1 1_555 1_555
C24 C21 1_555 1_555
Pb1B O1B 1_555 1_555
Pb1A O1 1_555 1_555
Pb1B_2 O2 1_555 1_555
Pb1C O2 1_555 1_555
Pb1A_2 O4 1_555 1_555
Pb1C_2 O1B 1_555 1_555
Pb1C_3 O1C 1_555 1_555
Pb1_2 O2B 1_555 1_555
Pb1A_3 O2B 1_555 1_555
O1B C24B 1_555 1_555
O1A Pb1 1_555 1_555
O1C Pb1B 1_555 1_555
O2B C23B 1_555 1_555
O2B_2 Pb1 1_555 1_555
O2C Pb1 1_555 1_555
O2_2 Pb1B 1_555 1_555
O2A Pb1B 1_555 1_555
C1B C18 1_555 1_555
H1B C1B 1_555 1_555
N1B C15 1_555 1_555
C2B C3B 1_555 1_555
N2B C5B 1_555 1_555
O3B Pb1_2 1_555 1_555
O3B_2 Pb1 1_555 1_555
O3_2 Pb1B 1_555 1_555
C3B C12B 1_555 1_555
C4B C6B 1_555 1_555
C5B C7B 1_555 1_555
C6B H2B 1_555 1_555
C7B C4B 1_555 1_555
C8B H3B 1_555 1_555
C9B N1B 1_555 1_555
C10B C8B 1_555 1_555
C11B C2B 1_555 1_555
H4B C11B 1_555 1_555
C12B N2B 1_555 1_555
C13B C12B 1_555 1_555
H5B C13B 1_555 1_555
C14B C11B 1_555 1_555
H6B C14B 1_555 1_555
C15B N1 1_555 1_555
C16B C4B 1_555 1_555
H7B C16B 1_555 1_555
C17B C5B 1_555 1_555
H8B C17B 1_555 1_555
C18B C1 1_555 1_555
H9B C18B 1_555 1_555
C19B C2B 1_555 1_555
H10B C19B 1_555 1_555
C20B C6B 1_555 1_555
H11B C20B 1_555 1_555
C21B C14B 1_555 1_555
C22B C19B 1_555 1_555
H12B C22B 1_555 1_555
C23B O3B 1_555 1_555
O4B Pb1B 1_555 1_555
O4A Pb1 1_555 1_555
O4C Pb1B 1_555 1_555
C24B C21B 1_555 1_555
O3 Pb1B_2 1_555 1_555
C3 C15 1_555 1_555
C8 C16 1_555 1_555
C10 C20 1_555 1_555
C13 C17 1_555 1_555
C21 C22 1_555 1_555
O4 C24 1_555 1_555
Pb1A O2B_2 1_555 1_555
Pb1A O4A 1_555 1_555
Pb1A_2 O1A 1_555 1_555
Pb1A_2 O2C 1_555 1_555
Pb1C_2 O2_2 1_555 1_555
Pb1C_2 O4C 1_555 1_555
Pb1C_3 O2A 1_555 1_555
Pb1C_3 O4B 1_555 1_555
C1B C15B 1_555 1_555
C3B C15B 1_555 1_555
C7B C9B 1_555 1_555
C8B C16B 1_555 1_555
C9B C18B 1_555 1_555
C10B C20B 1_555 1_555
C10B C23B 1_555 1_555
C13B C17B 1_555 1_555
C21B C22B 1_555 1_555
O4B C24B 1_555 1_555

#END
