
#######################################################################
#
#                 Cambridge Crystallographic Data Centre
#                                CCDC 
#
#######################################################################
#
# If this CIF has been generated from an entry in the Cambridge 
# Structural Database, then it will include bibliographic, chemical, 
# crystal, experimental, refinement or atomic coordinate data resulting 
# from the CCDC's data processing and validation procedures.
#
#######################################################################

data_GAXWUZ
_symmetry_cell_setting           monoclinic
_symmetry_space_group_name_H-M   'P 21/c'
_symmetry_Int_Tables_number      14
_space_group_name_Hall           '-P 2ybc'
loop_
_symmetry_equiv_pos_site_id
_symmetry_equiv_pos_as_xyz
1 x,y,z
2 -x,1/2+y,1/2-z
3 -x,-y,-z
4 x,1/2-y,1/2+z
_cell_length_a                   10.2406(5)
_cell_length_b                   24.0590(10)
_cell_length_c                   21.2577(8)
_cell_angle_alpha                90
_cell_angle_beta                 93.328(4)
_cell_angle_gamma                90
_cell_volume                     5228.61
loop_
_atom_site_label
_atom_site_type_symbol
_atom_site_fract_x
_atom_site_fract_y
_atom_site_fract_z
Pb1 Pb -0.97276(6) -0.43438(2) -0.56120(3)
Pb2 Pb -1.35472(6) 0.05331(2) -0.03236(3)
Ni1 Ni -0.71760(18) 0.05406(7) -0.49653(7)
O1 O -1.2818(13) 0.0515(5) -0.1368(5)
O2 O -1.0974(14) 0.0502(5) -0.0817(5)
O3 O -0.7902(14) -0.3542(5) -0.5189(6)
O4 O -0.9871(14) -0.3365(4) -0.5610(6)
O5 O -0.1370(12) 0.0837(5) -0.8456(5)
O6 O -0.2834(12) 0.0316(4) -0.8990(4)
O7 O -0.5730(10) 0.4595(4) -0.4560(5)
O8 O -0.7785(12) 0.4582(4) -0.4899(4)
O9 O -1.5655(10) 0.0625(5) -0.1009(4)
O10 O -1.1449(12) -0.4179(6) -0.6406(5)
N1 N -0.8227(11) 0.0005(4) -0.4537(4)
N2 N -0.6611(11) -0.0025(4) -0.5534(4)
N3 N -0.6394(12) 0.1104(4) -0.5478(5)
N4 N -0.7495(11) 0.1088(4) -0.4326(4)
N5 N -1.171(2) -0.3618(8) -0.7253(9)
C1 C -1.162(2) 0.0515(6) -0.1327(7)
C2 C -1.0853(16) 0.0525(6) -0.1910(7)
C3 C -1.1528(16) 0.0548(6) -0.2502(6)
H1 H -1.2437 0.0559 -0.2527
C4 C -1.0878(18) 0.0555(6) -0.3039(7)
H2 H -1.1354 0.0568 -0.3425
C5 C -0.9527(16) 0.0544(5) -0.3028(6)
C6 C -0.8839(16) 0.0540(6) -0.2448(7)
H3 H -0.7930 0.0547 -0.2421
C7 C -0.9539(18) 0.0524(5) -0.1907(7)
H4 H -0.9069 0.0511 -0.1520
C8 C -0.8791(16) 0.0539(6) -0.3627(7)
C9 C -0.8949(14) 0.0084(5) -0.4029(6)
C10 C -0.9752(17) -0.0372(6) -0.3939(7)
H5 H -1.0393 -0.0394 -0.3647
C11 C -0.9463(14) -0.0761(6) -0.4325(9)
H6 H -0.9808 -0.1118 -0.4342
C12 C -0.8488(15) -0.0532(6) -0.4732(6)
C13 C -0.7765(15) -0.0845(6) -0.5151(6)
C14 C -0.8036(15) -0.1454(5) -0.5218(6)
C15 C -0.9160(14) -0.1659(6) -0.5425(6)
H7 H -0.9840 -0.1413 -0.5525
C16 C -0.9394(17) -0.2213(6) -0.5501(7)
H8 H -1.0194 -0.2331 -0.5684
C17 C -0.8491(16) -0.2592(6) -0.5316(7)
C18 C -0.7297(18) -0.2407(6) -0.5083(8)
H9 H -0.6651 -0.2663 -0.4961
C19 C -0.7031(18) -0.1835(6) -0.5024(8)
H10 H -0.6221 -0.1709 -0.4862
C20 C -0.874(2) -0.3207(7) -0.5365(8)
C21 C -0.6832(15) -0.0582(6) -0.5494(6)
C22 C -0.6059(14) -0.0868(6) -0.5932(5)
H11 H -0.6001 -0.1251 -0.5979
C23 C -0.5434(17) -0.0488(7) -0.6260(7)
H12 H -0.4874 -0.0551 -0.6581
C24 C -0.5816(15) 0.0041(6) -0.6010(6)
C25 C -0.5445(15) 0.0529(6) -0.6265(7)
C26 C -0.4657(15) 0.0539(5) -0.6859(6)
C27 C -0.3366(16) 0.0712(6) -0.6832(7)
H13 H -0.2967 0.0829 -0.6451
C28 C -0.2705(16) 0.0710(6) -0.7341(6)
H14 H -0.1820 0.0798 -0.7304
C29 C -0.3253(15) 0.0585(6) -0.7920(6)
C30 C -0.4531(18) 0.0433(7) -0.7964(7)
H15 H -0.4922 0.0351 -0.8359
C31 C -0.5246(19) 0.0398(7) -0.7461(7)
H16 H -0.6115 0.0284 -0.7503
C32 C -0.2404(16) 0.0583(6) -0.8497(6)
C33 C -0.5804(16) 0.1031(6) -0.6018(6)
C34 C -0.5514(18) 0.1566(6) -0.6285(7)
H17 H -0.5102 0.1627 -0.6657
C35 C -0.5947(19) 0.1960(6) -0.5898(7)
H18 H -0.5929 0.2344 -0.5955
C36 C -0.6432(14) 0.1667(6) -0.5391(7)
C37 C -0.6776(16) 0.1939(6) -0.4835(7)
C38 C -0.6730(18) 0.2557(6) -0.4808(7)
C39 C -0.7595(16) 0.2846(6) -0.5134(7)
H19 H -0.8236 0.2668 -0.5388
C40 C -0.7564(12) 0.3390(6) -0.5104(4)
H20 H -0.8204 0.3576 -0.5351
C41 C -0.6716(16) 0.3715(5) -0.4758(6)
C42 C -0.6774(18) 0.4325(7) -0.4729(6)
C43 C -0.5749(14) 0.3422(6) -0.4427(5)
H21 H -0.5088 0.3608 -0.4194
C44 C -0.5771(14) 0.2857(7) -0.4445(6)
H22 H -0.5132 0.2660 -0.4209
C45 C -0.7136(14) 0.1639(6) -0.4316(6)
C46 C -0.7355(17) 0.1883(7) -0.3715(6)
H23 H -0.7141 0.2243 -0.3587
C47 C -0.7926(17) 0.1493(7) -0.3373(7)
H24 H -0.8190 0.1529 -0.2964
C48 C -0.8051(15) 0.1000(6) -0.3772(6)
C49 C -1.126(4) -0.4121(13) -0.6930(9)
H25 H -1.0821 -0.4394 -0.7145
C50 C -1.136(5) -0.3738(14) -0.7906(8)
H26 H -1.1134 -0.4123 -0.7941
H27 H -1.0633 -0.3511 -0.8008
H28 H -1.2098 -0.3656 -0.8193
C51 C -1.195(6) -0.3038(11) -0.747(2)
H29 H -1.2217 -0.2816 -0.7126
H30 H -1.2620 -0.3035 -0.7804
H31 H -1.1156 -0.2887 -0.7623
Pb1A Pb -0.02724(6) 0.06562(2) -0.93880(3)
Pb1B Pb -1.02724(6) 0.43438(2) -0.43880(3)
Pb2A Pb -0.64528(6) -0.44669(2) -0.46764(3)
Pb2A_2 Pb -0.64528(6) 0.55331(2) -0.46764(3)
Pb2C Pb -0.35472(6) 0.44669(2) -0.53236(3)
O3A O -1.2098(14) 0.1458(5) 0.0189(6)
O5A O -0.8630(12) -0.4163(5) -0.6544(5)
O7A O -1.4270(10) -0.0405(4) -0.0440(5)
O7C O -1.5730(10) 0.0405(4) 0.0440(5)
O8B O -1.2215(12) -0.4582(4) -0.5101(4)
O8A O -1.2215(12) -0.0418(4) -0.0101(4)
loop_
_geom_bond_atom_site_label_1
_geom_bond_atom_site_label_2
_geom_bond_site_symmetry_1
_geom_bond_site_symmetry_2
Pb1 O3 1_555 1_555
Pb2 O1 1_555 1_555
Ni1 N1 1_555 1_555
O1 C1 1_555 1_555
O2 Pb2 1_555 1_555
O3 C20 1_555 1_555
O4 Pb1 1_555 1_555
O5 C32 1_555 1_555
O6 C32 1_555 1_555
O7 C42 1_555 1_555
O8 C42 1_555 1_555
O9 Pb2 1_555 1_555
O10 Pb1 1_555 1_555
N1 C9 1_555 1_555
N2 Ni1 1_555 1_555
N3 Ni1 1_555 1_555
N4 Ni1 1_555 1_555
N5 C49 1_555 1_555
C1 O2 1_555 1_555
C2 C1 1_555 1_555
C3 C2 1_555 1_555
H1 C3 1_555 1_555
C4 C3 1_555 1_555
H2 C4 1_555 1_555
C5 C4 1_555 1_555
C6 C5 1_555 1_555
H3 C6 1_555 1_555
C7 C2 1_555 1_555
H4 C7 1_555 1_555
C8 C5 1_555 1_555
C9 C8 1_555 1_555
C10 C9 1_555 1_555
H5 C10 1_555 1_555
C11 C10 1_555 1_555
H6 C11 1_555 1_555
C12 N1 1_555 1_555
C13 C12 1_555 1_555
C14 C13 1_555 1_555
C15 C14 1_555 1_555
H7 C15 1_555 1_555
C16 C15 1_555 1_555
H8 C16 1_555 1_555
C17 C16 1_555 1_555
C18 C17 1_555 1_555
H9 C18 1_555 1_555
C19 C14 1_555 1_555
H10 C19 1_555 1_555
C20 O4 1_555 1_555
C21 N2 1_555 1_555
C22 C21 1_555 1_555
H11 C22 1_555 1_555
C23 C22 1_555 1_555
H12 C23 1_555 1_555
C24 N2 1_555 1_555
C25 C24 1_555 1_555
C26 C25 1_555 1_555
C27 C26 1_555 1_555
H13 C27 1_555 1_555
C28 C27 1_555 1_555
H14 C28 1_555 1_555
C29 C28 1_555 1_555
C30 C29 1_555 1_555
H15 C30 1_555 1_555
C31 C26 1_555 1_555
H16 C31 1_555 1_555
C32 C29 1_555 1_555
C33 N3 1_555 1_555
C34 C33 1_555 1_555
H17 C34 1_555 1_555
C35 C34 1_555 1_555
H18 C35 1_555 1_555
C36 N3 1_555 1_555
C37 C36 1_555 1_555
C38 C37 1_555 1_555
C39 C38 1_555 1_555
H19 C39 1_555 1_555
C40 C39 1_555 1_555
H20 C40 1_555 1_555
C41 C40 1_555 1_555
C42 C41 1_555 1_555
C43 C41 1_555 1_555
H21 C43 1_555 1_555
C44 C38 1_555 1_555
H22 C44 1_555 1_555
C45 N4 1_555 1_555
C46 C45 1_555 1_555
H23 C46 1_555 1_555
C47 C46 1_555 1_555
H24 C47 1_555 1_555
C48 N4 1_555 1_555
C49 O10 1_555 1_555
H25 C49 1_555 1_555
C50 N5 1_555 1_555
H26 C50 1_555 1_555
H27 C50 1_555 1_555
H28 C50 1_555 1_555
C51 N5 1_555 1_555
H29 C51 1_555 1_555
H30 C51 1_555 1_555
H31 C51 1_555 1_555
Pb1A O5 1_555 1_555
Pb1B O8 1_555 1_555
Pb2A O3 1_555 1_555
Pb2A_2 O7 1_555 1_555
Pb2C O7 1_555 1_555
O3A Pb2 1_555 1_555
O5A Pb1 1_555 1_555
O7A Pb2 1_555 1_555
O7C Pb2 1_555 1_555
O8B Pb1 1_555 1_555
O8A Pb2 1_555 1_555
O8 Pb2A_2 1_555 1_555
C6 C7 1_555 1_555
C8 C48 1_555 1_555
C11 C12 1_555 1_555
C13 C21 1_555 1_555
C17 C20 1_555 1_555
C18 C19 1_555 1_555
C23 C24 1_555 1_555
C25 C33 1_555 1_555
C30 C31 1_555 1_555
C35 C36 1_555 1_555
C37 C45 1_555 1_555
C43 C44 1_555 1_555
C47 C48 1_555 1_555

#END
