
#######################################################################
#
#                 Cambridge Crystallographic Data Centre
#                                CCDC 
#
#######################################################################
#
# If this CIF has been generated from an entry in the Cambridge 
# Structural Database, then it will include bibliographic, chemical, 
# crystal, experimental, refinement or atomic coordinate data resulting 
# from the CCDC's data processing and validation procedures.
#
#######################################################################

data_GAXXEK
_symmetry_cell_setting           triclinic
_symmetry_space_group_name_H-M   'P -1'
_symmetry_Int_Tables_number      2
_space_group_name_Hall           '-P 1'
loop_
_symmetry_equiv_pos_site_id
_symmetry_equiv_pos_as_xyz
1 x,y,z
2 -x,-y,-z
_cell_length_a                   8.2432(15)
_cell_length_b                   11.5390(18)
_cell_length_c                   16.397(2)
_cell_angle_alpha                100.295(12)
_cell_angle_beta                 90.639(13)
_cell_angle_gamma                107.891(15)
_cell_volume                     1456.7
loop_
_atom_site_label
_atom_site_type_symbol
_atom_site_fract_x
_atom_site_fract_y
_atom_site_fract_z
Pb1 Pb 0.21340(9) 0.43080(6) 0.99981(4)
V1 V -1.0186(10) 0.0372(6) 0.5106(5)
O1 O 0.0637(19) 0.2813(14) 0.8674(9)
O2 O -0.0826(16) 0.3846(11) 0.9402(8)
O3 O -1.5417(16) -0.5215(11) 0.9005(8)
O4 O -1.7235(18) -0.4161(12) 0.9079(8)
O5 O -1.056(3) 0.152(2) 0.5526(17)
O6 O 0.308(4) 0.211(4) 0.9952(16)
N1 N -0.9489(18) -0.0341(11) 0.6126(8)
N2 N -1.2488(17) -0.1028(12) 0.5020(8)
C1 C -0.069(3) 0.3119(19) 0.8794(12)
C2 C -0.217(2) 0.2460(14) 0.8172(10)
C3 C -0.207(2) 0.1706(16) 0.7442(12)
H1 H -0.1049 0.1541 0.7331
C4 C -0.345(3) 0.1188(16) 0.6871(10)
H2 H -0.3340 0.0678 0.6382
C5 C -0.497(2) 0.1392(15) 0.6992(10)
C6 C -0.515(2) 0.2142(16) 0.7764(11)
H3 H -0.6177 0.2291 0.7871
C7 C -0.381(3) 0.2627(15) 0.8330(12)
H4 H -0.3944 0.3082 0.8838
C8 C -0.645(2) 0.0902(15) 0.6368(10)
C9 C -0.798(2) 0.0097(15) 0.6593(10)
C10 C -0.812(2) -0.0418(16) 0.7329(11)
H5 H -0.7246 -0.0284 0.7730
C11 C -0.975(2) -0.1128(18) 0.7339(11)
H6 H -1.0212 -0.1559 0.7753
C12 C -1.063(2) -0.1096(15) 0.6586(10)
C13 C -1.233(2) -0.1703(16) 0.6348(11)
C14 C -1.335(2) -0.2439(16) 0.6957(10)
C15 C -1.464(3) -0.2094(17) 0.7357(12)
H7 H -1.4932 -0.1422 0.7237
C16 C -1.552(2) -0.2752(17) 0.7941(13)
H8 H -1.6386 -0.2512 0.8210
C17 C -1.511(2) -0.3746(14) 0.8118(10)
C18 C -1.390(2) -0.4143(15) 0.7680(10)
H9 H -1.3682 -0.4857 0.7764
C19 C -1.301(2) -0.3463(17) 0.7108(11)
H10 H -1.2169 -0.3719 0.6826
C20 C -1.594(2) -0.4408(15) 0.8777(10)
C21 C -1.319(2) -0.1687(14) 0.5635(10)
C22 C -1.489(2) -0.2351(19) 0.5372(13)
H11 H -1.5639 -0.2889 0.5659
C23 C -1.529(2) -0.2097(19) 0.4635(12)
H12 H -1.6353 -0.2376 0.4344
C24 C -0.627(2) 0.1309(14) 0.5605(10)
Pb1A Pb -2.21340(9) -0.43080(6) 0.00019(4)
Pb1A_2 Pb -0.21340(9) 0.56920(6) 1.00019(4)
Pb1_2 Pb -1.78660(9) -0.56920(6) 0.99981(4)
Pb1_3 Pb -1.78660(9) -0.56920(6) -0.00019(4)
Pb1A_3 Pb -0.21340(9) 0.56920(6) 0.00019(4)
V1A V -0.9814(10) -0.0372(6) 0.4894(5)
O1A O -2.0637(19) -0.2813(14) 0.1326(9)
O2A O -1.9174(16) -0.3846(11) 0.0598(8)
O2A_2 O 0.0826(16) 0.6154(11) 1.0598(8)
O2_2 O -2.0826(16) -0.6154(11) -0.0598(8)
O3A O -0.4583(16) 0.5215(11) 0.0995(8)
O3_2 O 0.4583(16) 0.4785(11) 0.9005(8)
O3A_2 O -2.4583(16) -0.4785(11) 0.0995(8)
O4A O -0.2765(18) 0.4161(12) 0.0921(8)
O4_2 O 0.2765(18) 0.5839(12) 0.9079(8)
O4A_2 O -2.2765(18) -0.5839(12) 0.0921(8)
O5A O -0.944(3) -0.152(2) 0.4474(17)
O6A O -2.308(4) -0.211(4) 0.0048(16)
N1A N -1.0511(18) 0.0341(11) 0.3874(8)
N2A N -0.7512(17) 0.1028(12) 0.4980(8)
C1A C -1.931(3) -0.3119(19) 0.1206(12)
C2A C -1.783(2) -0.2460(14) 0.1828(10)
C3A C -1.793(2) -0.1706(16) 0.2558(12)
H1A H -1.8951 -0.1541 0.2669
C4A C -1.655(3) -0.1188(16) 0.3129(10)
H2A H -1.6660 -0.0678 0.3618
C5A C -1.503(2) -0.1392(15) 0.3008(10)
C6A C -1.485(2) -0.2142(16) 0.2236(11)
H3A H -1.3823 -0.2291 0.2129
C7A C -1.619(3) -0.2627(15) 0.1670(12)
H4A H -1.6056 -0.3082 0.1162
C8A C -1.355(2) -0.0902(15) 0.3632(10)
C9A C -1.202(2) -0.0097(15) 0.3407(10)
C10A C -1.188(2) 0.0418(16) 0.2671(11)
H5A H -1.2754 0.0284 0.2270
C11A C -1.025(2) 0.1128(18) 0.2661(11)
H6A H -0.9788 0.1559 0.2247
C12A C -0.937(2) 0.1096(15) 0.3414(10)
C13A C -0.767(2) 0.1703(16) 0.3652(11)
C14A C -0.665(2) 0.2439(16) 0.3043(10)
C15A C -0.536(3) 0.2094(17) 0.2643(12)
H7A H -0.5068 0.1422 0.2763
C16A C -0.448(2) 0.2752(17) 0.2059(13)
H8A H -0.3614 0.2512 0.1790
C17A C -0.489(2) 0.3746(14) 0.1882(10)
C18A C -0.610(2) 0.4143(15) 0.2320(10)
H9A H -0.6318 0.4857 0.2236
C19A C -0.699(2) 0.3463(17) 0.2892(11)
H10A H -0.7831 0.3719 0.3174
C20A C -0.406(2) 0.4408(15) 0.1223(10)
C21A C -0.681(2) 0.1687(14) 0.4365(10)
C22A C -0.511(2) 0.2351(19) 0.4628(13)
H11A H -0.4361 0.2889 0.4341
C23A C -0.471(2) 0.2097(19) 0.5365(12)
H12A H -0.3647 0.2376 0.5656
C24A C -1.373(2) -0.1309(14) 0.4395(10)
loop_
_geom_bond_atom_site_label_1
_geom_bond_atom_site_label_2
_geom_bond_site_symmetry_1
_geom_bond_site_symmetry_2
Pb1 O1 1_555 1_555
V1 O5 1_555 1_555
O1 C1 1_555 1_555
O2 Pb1 1_555 1_555
O3 C20 1_555 1_555
O4 C20 1_555 1_555
O5 V1A 1_555 1_555
O6 Pb1 1_555 1_555
N1 V1 1_555 1_555
N2 V1 1_555 1_555
C1 O2 1_555 1_555
C2 C1 1_555 1_555
C3 C2 1_555 1_555
H1 C3 1_555 1_555
C4 C3 1_555 1_555
H2 C4 1_555 1_555
C5 C4 1_555 1_555
C6 C5 1_555 1_555
H3 C6 1_555 1_555
C7 C2 1_555 1_555
H4 C7 1_555 1_555
C8 C5 1_555 1_555
C9 N1 1_555 1_555
C10 C9 1_555 1_555
H5 C10 1_555 1_555
C11 C10 1_555 1_555
H6 C11 1_555 1_555
C12 N1 1_555 1_555
C13 C12 1_555 1_555
C14 C13 1_555 1_555
C15 C14 1_555 1_555
H7 C15 1_555 1_555
C16 C15 1_555 1_555
H8 C16 1_555 1_555
C17 C16 1_555 1_555
C18 C17 1_555 1_555
H9 C18 1_555 1_555
C19 C14 1_555 1_555
H10 C19 1_555 1_555
C20 C17 1_555 1_555
C21 N2 1_555 1_555
C22 C21 1_555 1_555
H11 C22 1_555 1_555
C23 C22 1_555 1_555
H12 C23 1_555 1_555
C24 C8 1_555 1_555
Pb1A O1A 1_555 1_555
Pb1A_2 O2 1_555 1_555
Pb1_2 O3 1_555 1_555
Pb1_3 O2A 1_555 1_555
Pb1A_3 O3A 1_555 1_555
V1A V1 1_555 1_555
O1A C1A 1_555 1_555
O2A Pb1A 1_555 1_555
O2A_2 Pb1 1_555 1_555
O2_2 Pb1A 1_555 1_555
O3A C20A 1_555 1_555
O3_2 Pb1 1_555 1_555
O3A_2 Pb1A 1_555 1_555
O4A Pb1A_3 1_555 1_555
O4_2 Pb1 1_555 1_555
O4A_2 Pb1A 1_555 1_555
O5A V1 1_555 1_555
O6A Pb1A 1_555 1_555
N1A V1 1_555 1_555
N2A V1 1_555 1_555
C1A O2A 1_555 1_555
C2A C1A 1_555 1_555
C3A C2A 1_555 1_555
H1A C3A 1_555 1_555
C4A C3A 1_555 1_555
H2A C4A 1_555 1_555
C5A C4A 1_555 1_555
C6A C5A 1_555 1_555
H3A C6A 1_555 1_555
C7A C2A 1_555 1_555
H4A C7A 1_555 1_555
C8A C5A 1_555 1_555
C9A N1A 1_555 1_555
C10A C9A 1_555 1_555
H5A C10A 1_555 1_555
C11A C10A 1_555 1_555
H6A C11A 1_555 1_555
C12A N1A 1_555 1_555
C13A C12A 1_555 1_555
C14A C13A 1_555 1_555
C15A C14A 1_555 1_555
H7A C15A 1_555 1_555
C16A C15A 1_555 1_555
H8A C16A 1_555 1_555
C17A C16A 1_555 1_555
C18A C17A 1_555 1_555
H9A C18A 1_555 1_555
C19A C14A 1_555 1_555
H10A C19A 1_555 1_555
C20A O4A 1_555 1_555
C21A N2A 1_555 1_555
C22A C21A 1_555 1_555
H11A C22A 1_555 1_555
C23A C24 1_555 1_555
H12A C23A 1_555 1_555
C24A N2 1_555 1_555
O4 Pb1_2 1_555 1_555
N1 V1A 1_555 1_555
N2 V1A 1_555 1_555
C6 C7 1_555 1_555
C8 C9 1_555 1_555
C11 C12 1_555 1_555
C13 C21 1_555 1_555
C18 C19 1_555 1_555
C23 C24A 1_555 1_555
C24 N2A 1_555 1_555
Pb1A_2 O2A_2 1_555 1_555
Pb1_3 O2_2 1_555 1_555
V1A O5A 1_555 1_555
V1A N1A 1_555 1_555
V1A N2A 1_555 1_555
C6A C7A 1_555 1_555
C8A C9A 1_555 1_555
C8A C24A 1_555 1_555
C11A C12A 1_555 1_555
C13A C21A 1_555 1_555
C17A C20A 1_555 1_555
C18A C19A 1_555 1_555
C22A C23A 1_555 1_555

#END
