
#######################################################################
#
#                 Cambridge Crystallographic Data Centre
#                                CCDC 
#
#######################################################################
#
# If this CIF has been generated from an entry in the Cambridge 
# Structural Database, then it will include bibliographic, chemical, 
# crystal, experimental, refinement or atomic coordinate data resulting 
# from the CCDC's data processing and validation procedures.
#
#######################################################################

data_GAYHUL
_symmetry_cell_setting           monoclinic
_symmetry_space_group_name_H-M   'P 21/c'
_symmetry_Int_Tables_number      14
_space_group_name_Hall           '-P 2ybc'
loop_
_symmetry_equiv_pos_site_id
_symmetry_equiv_pos_as_xyz
1 x,y,z
2 -x,1/2+y,1/2-z
3 -x,-y,-z
4 x,1/2-y,1/2+z
_cell_length_a                   6.1635(6)
_cell_length_b                   15.8852(15)
_cell_length_c                   6.7800(7)
_cell_angle_alpha                90
_cell_angle_beta                 104.003(4)
_cell_angle_gamma                90
_cell_volume                     644.092
loop_
_atom_site_label
_atom_site_type_symbol
_atom_site_fract_x
_atom_site_fract_y
_atom_site_fract_z
Ag1 Ag 0.55214(5) 0.25832(3) 0.12936(5)
N1 N 0.2367(6) 0.2106(2) -0.0374(5)
N2 N 0.1512(7) 0.1313(3) -0.0724(6)
N3 N -0.0603(7) 0.1365(3) -0.1622(6)
N4 N -0.1195(6) 0.2186(3) -0.1887(6)
C1 C 0.0645(7) 0.2634(3) -0.1117(7)
N5 N 0.0856(7) 0.3473(3) -0.1105(6)
N6 N 0.2937(6) 0.3802(2) -0.0018(6)
H1 H 0.353(8) 0.418(2) -0.068(7)
H2 H 0.273(8) 0.406(3) 0.108(5)
C2 C -0.1041(8) 0.4041(3) -0.1673(7)
H3 H -0.2231 0.3768 -0.2639
H4 H -0.0599 0.4541 -0.2271
H5 H -0.1545 0.4189 -0.0486
Ag1C Ag -0.44786(5) 0.24168(3) -0.37064(5)
N4C N 0.8805(6) 0.2814(3) 0.3113(6)
O1 O -0.4020(6) 0.0053(2) -0.1975(5)
H6 H -0.299(7) 0.041(3) -0.195(9)
H7 H -0.376(11) -0.019(3) -0.083(4)
loop_
_geom_bond_atom_site_label_1
_geom_bond_atom_site_label_2
_geom_bond_site_symmetry_1
_geom_bond_site_symmetry_2
Ag1 N1 1_555 1_555
N1 N2 1_555 1_555
N2 N3 1_555 1_555
N3 N4 1_555 1_555
N4 C1 1_555 1_555
C1 N1 1_555 1_555
N5 C1 1_555 1_555
N6 Ag1 1_555 1_555
H1 N6 1_555 1_555
H2 N6 1_555 1_555
C2 N5 1_555 1_555
H3 C2 1_555 1_555
H4 C2 1_555 1_555
H5 C2 1_555 1_555
O1 H6 1_555 1_555
H7 O1 1_555 1_555
Ag1C N4 1_555 1_555
N4C Ag1 1_555 1_555
N5 N6 1_555 1_555

#END
