
#######################################################################
#
#                 Cambridge Crystallographic Data Centre
#                                CCDC 
#
#######################################################################
#
# If this CIF has been generated from an entry in the Cambridge 
# Structural Database, then it will include bibliographic, chemical, 
# crystal, experimental, refinement or atomic coordinate data resulting 
# from the CCDC's data processing and validation procedures.
#
#######################################################################

data_GAYJIB
_symmetry_cell_setting           monoclinic
_symmetry_space_group_name_H-M   'P 21/c'
_symmetry_Int_Tables_number      14
_space_group_name_Hall           '-P 2ybc'
loop_
_symmetry_equiv_pos_site_id
_symmetry_equiv_pos_as_xyz
1 x,y,z
2 -x,1/2+y,1/2-z
3 -x,-y,-z
4 x,1/2-y,1/2+z
_cell_length_a                   6.7361(3)
_cell_length_b                   19.6039(14)
_cell_length_c                   21.5481(17)
_cell_angle_alpha                90
_cell_angle_beta                 95.929(5)
_cell_angle_gamma                90
_cell_volume                     2830.29
loop_
_atom_site_label
_atom_site_type_symbol
_atom_site_fract_x
_atom_site_fract_y
_atom_site_fract_z
Mn1 Mn 0.16095(7) 0.29030(3) 1.00530(2)
Mn2 Mn 0.17778(7) 0.13947(2) 0.76585(2)
N1 N 0.0102(4) 0.27015(16) 0.90761(14)
N2 N 0.0197(4) 0.21758(16) 0.88007(14)
N3 N 0.0244(4) 0.16629(15) 0.85214(13)
N4 N 0.0064(4) 0.37188(14) 1.01853(13)
N5 N -0.0519(4) 0.41188(16) 0.97810(15)
N6 N -0.1130(5) 0.45190(17) 0.94100(17)
N7 N 0.3041(4) 0.06094(13) 0.80827(13)
N8 N 0.4204(4) 0.06745(13) 0.85463(15)
N9 N 0.5314(5) 0.07042(15) 0.89874(15)
N10 N 0.3436(4) 0.29572(16) 1.10018(14)
N11 N 0.3362(4) 0.33776(16) 1.13868(14)
N12 N 0.3304(4) 0.38051(15) 1.17705(13)
N13 N 0.0314(4) 0.21316(14) 0.71672(12)
N14 N -0.0616(4) 0.07902(14) 0.72569(13)
N15 N 0.3309(4) 0.21090(15) 0.98995(12)
N16 N 0.3893(4) 0.34703(13) 0.96935(13)
C1 C 0.4227(4) 0.26103(17) 0.77451(14)
C2 C 0.6067(5) 0.29103(17) 0.79504(16)
H1 H 0.6989 0.2665 0.8213
C3 C 0.6537(5) 0.35542(19) 0.77745(17)
H2 H 0.7774 0.3736 0.7919
C4 C 0.5213(6) 0.3945(2) 0.73853(18)
H3 H 0.5537 0.4387 0.7275
C5 C 0.3418(5) 0.36596(18) 0.71697(16)
H4 H 0.2528 0.3912 0.6903
C6 C 0.2873(5) 0.29950(17) 0.73390(15)
C7 C 0.0982(5) 0.27286(18) 0.70827(15)
H5 H 0.0163 0.3020 0.6830
C8 C -0.1621(5) 0.19203(18) 0.68396(17)
H6 H -0.1909 0.2181 0.6458
H7 H -0.2685 0.1997 0.7102
C9 C -0.1459(5) 0.11704(18) 0.66927(15)
H8 H -0.2770 0.0991 0.6550
H9 H -0.0606 0.1109 0.6361
C10 C -0.0186(5) 0.16864(18) 1.05207(15)
C11 C -0.1776(5) 0.13934(19) 1.08058(15)
H10 H -0.2848 0.1665 1.0890
C12 C -0.1769(6) 0.0719(2) 1.09605(17)
H11 H -0.2835 0.0540 1.1149
C13 C -0.0201(6) 0.02959(19) 1.08422(17)
H12 H -0.0201 -0.0163 1.0952
C14 C 0.1349(6) 0.05695(18) 1.05591(16)
H13 H 0.2402 0.0288 1.0476
C15 C 0.1396(5) 0.12551(17) 1.03915(15)
C16 C 0.3056(5) 0.14939(18) 1.00763(15)
H14 H 0.4019 0.1175 0.9995
C17 C 0.4967(5) 0.22889(18) 0.95365(17)
H15 H 0.4527 0.2276 0.9094
H16 H 0.6057 0.1968 0.9622
C18 C 0.5643(4) 0.29987(16) 0.97273(16)
H17 H 0.6298 0.2991 1.0150
H18 H 0.6596 0.3161 0.9453
C19 C -0.2182(5) 0.06946(19) 0.76853(17)
H19 H -0.2677 0.1132 0.7798
H20 H -0.1625 0.0460 0.8054
H21 H -0.3256 0.0430 0.7481
C20 C 0.0043(5) 0.01009(18) 0.70687(19)
H22 H -0.1063 -0.0135 0.6848
H23 H 0.0522 -0.0154 0.7434
H24 H 0.1093 0.0148 0.6803
C21 C 0.4470(5) 0.40933(17) 1.00738(18)
H25 H 0.4898 0.3961 1.0495
H26 H 0.3341 0.4393 1.0070
H27 H 0.5539 0.4325 0.9899
C22 C 0.3396(5) 0.37096(19) 0.90444(17)
H28 H 0.2248 0.4002 0.9025
H29 H 0.3110 0.3324 0.8775
H30 H 0.4507 0.3958 0.8912
O1 O 0.3853(3) 0.19940(11) 0.79399(10)
O2 O -0.0281(3) 0.23435(12) 1.03911(11)
Mn2C Mn 0.17778(7) 0.36053(2) 1.26585(2)
N12C N 0.3304(4) 0.11949(15) 0.67705(13)
loop_
_geom_bond_atom_site_label_1
_geom_bond_atom_site_label_2
_geom_bond_site_symmetry_1
_geom_bond_site_symmetry_2
Mn1 N1 1_555 1_555
Mn2 N3 1_555 1_555
N1 N2 1_555 1_555
N2 N3 1_555 1_555
N4 Mn1 1_555 1_555
N5 N4 1_555 1_555
N6 N5 1_555 1_555
N7 Mn2 1_555 1_555
N8 N7 1_555 1_555
N9 N8 1_555 1_555
N10 Mn1 1_555 1_555
N11 N10 1_555 1_555
N12 N11 1_555 1_555
N13 Mn2 1_555 1_555
N14 Mn2 1_555 1_555
N15 Mn1 1_555 1_555
N16 Mn1 1_555 1_555
C1 C2 1_555 1_555
C2 H1 1_555 1_555
C3 C2 1_555 1_555
H2 C3 1_555 1_555
C4 C3 1_555 1_555
H3 C4 1_555 1_555
C5 C4 1_555 1_555
H4 C5 1_555 1_555
C6 C1 1_555 1_555
C7 N13 1_555 1_555
H5 C7 1_555 1_555
C8 N13 1_555 1_555
H6 C8 1_555 1_555
H7 C8 1_555 1_555
C9 N14 1_555 1_555
H8 C9 1_555 1_555
H9 C9 1_555 1_555
C10 C11 1_555 1_555
C11 H10 1_555 1_555
C12 C11 1_555 1_555
H11 C12 1_555 1_555
C13 C12 1_555 1_555
H12 C13 1_555 1_555
C14 C13 1_555 1_555
H13 C14 1_555 1_555
C15 C10 1_555 1_555
C16 N15 1_555 1_555
H14 C16 1_555 1_555
C17 N15 1_555 1_555
H15 C17 1_555 1_555
H16 C17 1_555 1_555
C18 N16 1_555 1_555
H17 C18 1_555 1_555
H18 C18 1_555 1_555
C19 N14 1_555 1_555
H19 C19 1_555 1_555
H20 C19 1_555 1_555
H21 C19 1_555 1_555
C20 N14 1_555 1_555
H22 C20 1_555 1_555
H23 C20 1_555 1_555
H24 C20 1_555 1_555
C21 N16 1_555 1_555
H25 C21 1_555 1_555
H26 C21 1_555 1_555
H27 C21 1_555 1_555
C22 N16 1_555 1_555
H28 C22 1_555 1_555
H29 C22 1_555 1_555
H30 C22 1_555 1_555
O1 Mn2 1_555 1_555
O2 Mn1 1_555 1_555
Mn2C N12 1_555 1_555
N12C Mn2 1_555 1_555
C1 O1 1_555 1_555
C5 C6 1_555 1_555
C6 C7 1_555 1_555
C8 C9 1_555 1_555
C10 O2 1_555 1_555
C14 C15 1_555 1_555
C15 C16 1_555 1_555
C17 C18 1_555 1_555

#END
