
#######################################################################
#
#                 Cambridge Crystallographic Data Centre
#                                CCDC 
#
#######################################################################
#
# If this CIF has been generated from an entry in the Cambridge 
# Structural Database, then it will include bibliographic, chemical, 
# crystal, experimental, refinement or atomic coordinate data resulting 
# from the CCDC's data processing and validation procedures.
#
#######################################################################

data_GAYMOI
_symmetry_cell_setting           monoclinic
_symmetry_space_group_name_H-M   'P 21/c'
_symmetry_Int_Tables_number      14
_space_group_name_Hall           '-P 2ybc'
loop_
_symmetry_equiv_pos_site_id
_symmetry_equiv_pos_as_xyz
1 x,y,z
2 -x,1/2+y,1/2-z
3 -x,-y,-z
4 x,1/2-y,1/2+z
_cell_length_a                   11.405(3)
_cell_length_b                   16.821(6)
_cell_length_c                   7.881(2)
_cell_angle_alpha                90
_cell_angle_beta                 108.06(2)
_cell_angle_gamma                90
_cell_volume                     1437.43
loop_
_atom_site_label
_atom_site_type_symbol
_atom_site_fract_x
_atom_site_fract_y
_atom_site_fract_z
Cu1 Cu 0.3106(1) 0.3039(1) 0.1484(1)
Br1 Br 0.0911(1) 0.5680(1) 0.3838(2)
N1 N 0.1471(6) 0.3618(4) 0.1285(9)
N2 N 0.4706(6) 0.2648(4) 0.1441(9)
N3 N -0.0687(7) 0.3741(5) 0.0900(11)
C1 C -0.0010(9) 0.2638(6) -0.0521(13)
C2 C 0.0735(10) 0.4727(6) 0.2504(12)
C3 C 0.3000(8) 0.4619(6) 0.2578(12)
C4 C 0.5499(9) 0.3993(6) 0.1049(13)
C5 C 0.6624(8) 0.2648(6) 0.1290(12)
Br2 Br 0.2474(1) 0.1774(1) 0.2481(1)
O1 O 0.3255(7) 0.5311(4) 0.3126(10)
N4 N 0.3742(6) 0.4095(4) 0.2201(10)
N5 N 0.6286(7) 0.1886(5) 0.1505(11)
C6 C 0.0275(8) 0.3366(5) 0.0619(11)
C7 C -0.0435(10) 0.4406(7) 0.1846(15)
C8 C 0.1706(8) 0.4322(5) 0.2177(11)
C9 C 0.5016(9) 0.4363(6) 0.2464(13)
C10 C 0.5649(8) 0.3128(6) 0.1261(12)
C11 C 0.5117(8) 0.1906(6) 0.1570(12)
H1 H 0.0643 0.2457 -0.0932
H2 H -0.0680 0.2809 -0.1510
H3 H -0.0274 0.2219 0.0079
H4 H -0.1096 0.4678 0.2086
H5 H 0.5029 0.4926 0.2369
H6 H 0.5525 0.4206 0.3614
H7 H 0.6277 0.4223 0.1136
H8 H 0.4934 0.4103 -0.0095
H9 H 0.7393 0.2815 0.1181
H10 H 0.4654 0.1452 0.1692
H11 H 0.6664 0.1532 0.1218
Br2C Br 0.2474(1) 0.3226(1) -0.2519(1)
Cu1C Cu 0.3106(1) 0.1961(1) 0.6484(1)
Cu1C_2 Cu 0.3106(1) 0.1961(1) -0.3516(1)
N1C N 0.1471(6) 0.1382(4) 0.6285(9)
N2C N 0.4706(6) 0.2352(4) 0.6441(9)
Br2C_2 Br 0.2474(1) 0.3226(1) 0.7481(1)
N4C N 0.3742(6) 0.0905(4) 0.7201(10)
C6C C 0.0275(8) 0.1634(5) 0.5619(11)
C8C C 0.1706(8) 0.0678(5) 0.7177(11)
C10C C 0.5649(8) 0.1872(6) 0.6261(12)
C11C C 0.5117(8) 0.3094(6) 0.6570(12)
C3C C 0.3000(8) 0.0381(6) 0.7578(12)
C9C C 0.5016(9) 0.0637(6) 0.7464(13)
N3C N -0.0687(7) 0.1259(5) 0.5900(11)
C1C C -0.0010(9) 0.2362(6) 0.4479(13)
C2C C 0.0735(10) 0.0273(6) 0.7504(12)
C4C C 0.5499(9) 0.1007(6) 0.6049(13)
C5C C 0.6624(8) 0.2352(6) 0.6290(12)
N5C N 0.6286(7) 0.3114(5) 0.6505(11)
H10C H 0.4654 0.3548 0.6692
O1C O 0.3255(7) -0.0311(4) 0.8126(10)
H5C H 0.5029 0.0074 0.7369
H6C H 0.5525 0.0794 0.8614
C7C C -0.0435(10) 0.0594(7) 0.6846(15)
H1C H 0.0643 0.2543 0.4068
H2C H -0.0680 0.2191 0.3490
H3C H -0.0274 0.2781 0.5079
Br1C Br 0.0911(1) -0.0680(1) 0.8838(2)
H7C H 0.6277 0.0777 0.6136
H8C H 0.4934 0.0897 0.4905
H9C H 0.7393 0.2185 0.6181
H11C H 0.6664 0.3468 0.6218
H4C H -0.1096 0.0322 0.7086
loop_
_geom_bond_atom_site_label_1
_geom_bond_atom_site_label_2
_geom_bond_site_symmetry_1
_geom_bond_site_symmetry_2
Cu1 N1 1_555 1_555
Br1 C2 1_555 1_555
N1 C6 1_555 1_555
N2 Cu1 1_555 1_555
N3 C6 1_555 1_555
C1 C6 1_555 1_555
C2 C7 1_555 1_555
C3 O1 1_555 1_555
C4 C9 1_555 1_555
C5 N5 1_555 1_555
Br2 Cu1 1_555 1_555
N4 Cu1 1_555 1_555
N5 C11 1_555 1_555
C7 N3 1_555 1_555
C8 N1 1_555 1_555
C9 N4 1_555 1_555
C10 N2 1_555 1_555
C11 N2 1_555 1_555
H1 C1 1_555 1_555
H2 C1 1_555 1_555
H3 C1 1_555 1_555
H4 C7 1_555 1_555
H5 C9 1_555 1_555
H6 C9 1_555 1_555
H7 C4 1_555 1_555
H8 C4 1_555 1_555
H9 C5 1_555 1_555
H10 C11 1_555 1_555
H11 N5 1_555 1_555
Br2C Cu1 1_555 1_555
Cu1C Br2 1_555 1_555
Cu1C_2 Br2C 1_555 1_555
N1C Cu1C 1_555 1_555
N2C Cu1C 1_555 1_555
Br2C_2 Cu1C 1_555 1_555
N4C Cu1C 1_555 1_555
C6C N1C 1_555 1_555
C8C N1C 1_555 1_555
C10C N2C 1_555 1_555
C11C N2C 1_555 1_555
C3C N4C 1_555 1_555
C9C N4C 1_555 1_555
N3C C6C 1_555 1_555
C1C C6C 1_555 1_555
C2C C8C 1_555 1_555
C4C C10C 1_555 1_555
C5C C10C 1_555 1_555
N5C C11C 1_555 1_555
H10C C11C 1_555 1_555
O1C C3C 1_555 1_555
H5C C9C 1_555 1_555
H6C C9C 1_555 1_555
C7C N3C 1_555 1_555
H1C C1C 1_555 1_555
H2C C1C 1_555 1_555
H3C C1C 1_555 1_555
Br1C C2C 1_555 1_555
H7C C4C 1_555 1_555
H8C C4C 1_555 1_555
H9C C5C 1_555 1_555
H11C N5C 1_555 1_555
H4C C7C 1_555 1_555
C2 C8 1_555 1_555
C3 N4 1_555 1_555
C3 C8 1_555 1_555
C4 C10 1_555 1_555
C5 C10 1_555 1_555
C8C C3C 1_555 1_555
C9C C4C 1_555 1_555
C2C C7C 1_555 1_555
C5C N5C 1_555 1_555

#END
