
#######################################################################
#
#                 Cambridge Crystallographic Data Centre
#                                CCDC 
#
#######################################################################
#
# If this CIF has been generated from an entry in the Cambridge 
# Structural Database, then it will include bibliographic, chemical, 
# crystal, experimental, refinement or atomic coordinate data resulting 
# from the CCDC's data processing and validation procedures.
#
#######################################################################

data_GAZPOM
_symmetry_cell_setting           monoclinic
_symmetry_space_group_name_H-M   'P 21/n'
_symmetry_Int_Tables_number      14
_space_group_name_Hall           '-P 2yn'
loop_
_symmetry_equiv_pos_site_id
_symmetry_equiv_pos_as_xyz
1 x,y,z
2 1/2-x,1/2+y,1/2-z
3 -x,-y,-z
4 1/2+x,1/2-y,1/2+z
_cell_length_a                   11.233(9)
_cell_length_b                   9.338(8)
_cell_length_c                   22.528(10)
_cell_angle_alpha                90
_cell_angle_beta                 103.10(7)
_cell_angle_gamma                90
_cell_volume                     2301.55
loop_
_atom_site_label
_atom_site_type_symbol
_atom_site_fract_x
_atom_site_fract_y
_atom_site_fract_z
Cd1 Cd 0.21951(9) 0.19180(9) 0.64923(4)
Mn1 Mn -0.0348(2) 0.3988(2) 0.67271(8)
O1 O -0.0279(9) 0.456(1) 0.5804(4)
O2 O -0.087(1) 0.614(1) 0.6908(5)
O3 O -0.0455(9) 0.3242(9) 0.7646(4)
O4 O -0.2291(9) 0.337(1) 0.6365(5)
O5 O 0.0124(8) 0.1787(9) 0.6510(4)
O6 O -0.1591(9) 0.073(1) 0.5993(5)
O7 O 0.4102(8) 0.3017(9) 0.6596(4)
O8 O 0.5975(8) 0.2122(9) 0.6905(4)
O9 O 0.3312(8) -0.1127(8) 0.7965(4)
O10 O 0.3289(8) 0.0734(8) 0.7364(4)
O11 O 0.1356(9) 0.2681(9) 0.5512(4)
O12 O 0.185(1) 0.333(1) 0.4652(4)
N1 N 0.153(1) -0.054(1) 0.6451(5)
N2 N 0.330(1) 0.081(1) 0.5817(5)
C1 C 0.241(1) -0.139(1) 0.6175(6)
C2 C 0.027(1) -0.055(1) 0.6094(7)
C3 C -0.048(1) 0.076(1) 0.6201(6)
C4 C 0.277(1) -0.069(1) 0.5641(6)
C5 C 0.456(1) 0.078(1) 0.6173(6)
C6 C 0.491(1) 0.208(1) 0.6584(6)
C7 C 0.365(1) -0.160(1) 0.5369(7)
C8 C 0.162(1) -0.091(1) 0.7087(5)
C9 C 0.282(1) -0.041(1) 0.7494(5)
C10 C 0.315(2) -0.311(2) 0.5216(7)
C11 C 0.317(1) 0.173(1) 0.5279(6)
C12 C 0.203(1) 0.265(1) 0.5137(6)
C13 C 0.285(2) -0.378(1) 0.5776(7)
C14 C 0.191(2) -0.293(1) 0.5994(7)
H1 H 0.316 -0.143 0.649
H2 H 0.204 -0.061 0.532
H3 H 0.443 -0.165 0.566
H4 H 0.380 -0.114 0.501
H5 H 0.372 -0.369 0.507
H6 H 0.241 -0.306 0.490
H7 H 0.359 -0.381 0.609
H8 H 0.259 -0.475 0.569
H9 H 0.169 -0.339 0.634
H10 H 0.118 -0.287 0.567
H11 H 0.028 -0.060 0.567
H12 H -0.013 -0.140 0.619
H13 H 0.467 -0.007 0.642
H14 H 0.510 0.073 0.590
H15 H 0.095 -0.047 0.722
H16 H 0.154 -0.192 0.712
H17 H 0.388 0.235 0.533
H18 H 0.318 0.113 0.493
O9A O 0.1688(8) 0.3873(8) 0.7035(4)
Cd1A Cd 0.28049(9) -0.30820(9) 0.85077(4)
Mn1A Mn 0.5348(2) -0.1012(2) 0.82729(8)
O13 O 0.7643(9) 0.465(1) 0.7949(5)
O14 O 0.561(1) 0.542(1) 0.7032(5)
O15 O 0.808(1) 0.205(1) 0.8754(5)
loop_
_geom_bond_atom_site_label_1
_geom_bond_atom_site_label_2
_geom_bond_site_symmetry_1
_geom_bond_site_symmetry_2
Cd1 O5 1_555 1_555
Mn1 O1 1_555 1_555
O2 Mn1 1_555 1_555
O3 Mn1 1_555 1_555
O4 Mn1 1_555 1_555
O5 Mn1 1_555 1_555
O6 C3 1_555 1_555
O7 Cd1 1_555 1_555
O8 C6 1_555 1_555
O9 C9 1_555 1_555
O10 Cd1 1_555 1_555
O11 Cd1 1_555 1_555
O12 C12 1_555 1_555
N1 Cd1 1_555 1_555
N2 Cd1 1_555 1_555
C1 N1 1_555 1_555
C2 N1 1_555 1_555
C3 O5 1_555 1_555
C4 N2 1_555 1_555
C5 N2 1_555 1_555
C6 O7 1_555 1_555
C7 C4 1_555 1_555
C8 N1 1_555 1_555
C9 O10 1_555 1_555
C10 C7 1_555 1_555
C11 N2 1_555 1_555
C12 O11 1_555 1_555
C13 C10 1_555 1_555
C14 C1 1_555 1_555
H1 C1 1_555 1_555
H2 C4 1_555 1_555
H3 C7 1_555 1_555
H4 C7 1_555 1_555
H5 C10 1_555 1_555
H6 C10 1_555 1_555
H7 C13 1_555 1_555
H8 C13 1_555 1_555
H9 C14 1_555 1_555
H10 C14 1_555 1_555
H11 C2 1_555 1_555
H12 C2 1_555 1_555
H13 C5 1_555 1_555
H14 C5 1_555 1_555
H15 C8 1_555 1_555
H16 C8 1_555 1_555
H17 C11 1_555 1_555
H18 C11 1_555 1_555
O9A Cd1 1_555 1_555
Cd1A O9 1_555 1_555
Mn1A O9 1_555 1_555
Mn1 O9A 1_555 1_555
C1 C4 1_555 1_555
C2 C3 1_555 1_555
C5 C6 1_555 1_555
C8 C9 1_555 1_555
C11 C12 1_555 1_555
C13 C14 1_555 1_555

#END
