
#######################################################################
#
#                 Cambridge Crystallographic Data Centre
#                                CCDC 
#
#######################################################################
#
# If this CIF has been generated from an entry in the Cambridge 
# Structural Database, then it will include bibliographic, chemical, 
# crystal, experimental, refinement or atomic coordinate data resulting 
# from the CCDC's data processing and validation procedures.
#
#######################################################################

data_GAZSOR
_symmetry_cell_setting           monoclinic
_symmetry_space_group_name_H-M   'P 21/c'
_symmetry_Int_Tables_number      14
_space_group_name_Hall           '-P 2ybc'
loop_
_symmetry_equiv_pos_site_id
_symmetry_equiv_pos_as_xyz
1 x,y,z
2 -x,1/2+y,1/2-z
3 -x,-y,-z
4 x,1/2-y,1/2+z
_cell_length_a                   10.0259(12)
_cell_length_b                   6.9271(8)
_cell_length_c                   13.9278(12)
_cell_angle_alpha                90
_cell_angle_beta                 127.630(5)
_cell_angle_gamma                90
_cell_volume                     766.066
loop_
_atom_site_label
_atom_site_type_symbol
_atom_site_fract_x
_atom_site_fract_y
_atom_site_fract_z
Cd1 Cd 0.21993(5) 1.19201(5) 0.67889(3)
O1 O 0.2679(5) 0.9359(6) 0.6062(4)
O2 O 0.0460(6) 0.9916(7) 0.6959(4)
H1 H -0.0109 0.9214 0.6330
H2 H 0.0007 0.9804 0.7308
O3 O 0.5273(5) 0.8519(6) 0.7661(3)
O4 O 0.0584(5) 1.4635(6) 0.6456(3)
O5 O -0.0871(5) 1.7036(5) 0.5166(3)
N1 N 0.6074(6) 0.7293(6) 0.6212(4)
N2 N 0.4569(7) 0.7345(7) 0.4244(4)
H3 H 0.4299 0.7203 0.3532
C1 C 0.4116(7) 0.8666(7) 0.6536(5)
C2 C 0.4506(7) 0.8010(6) 0.5725(5)
C3 C 0.3547(8) 0.8032(7) 0.4492(5)
H4 H 0.2433 0.8431 0.3942
C4 C 0.6049(8) 0.6929(7) 0.5275(6)
H5 H 0.6958 0.6439 0.5331
C5 C -0.0078(6) 1.5481(8) 0.5469(4)
Cd1A Cd 0.78007(5) 1.69201(5) 0.82111(3)
Cd1A_2 Cd 0.78007(5) 0.69201(5) 0.82111(3)
Cd1B Cd -0.21993(5) 1.80799(5) 0.32111(3)
O1A O 0.7321(5) 1.4359(6) 0.8938(4)
O2A O 0.9540(6) 1.4916(7) 0.8041(4)
H1A H 1.0109 1.4214 0.8670
H2A H 0.9993 1.4804 0.7692
O3A O 0.4727(5) 1.3519(6) 0.7339(3)
O3_2 O 0.5273(5) 1.8519(6) 0.7661(3)
O4B O -0.0584(5) 1.5365(6) 0.3544(3)
O4A O 0.9416(5) 1.9635(6) 0.8544(3)
O5B O 0.0871(5) 1.2964(5) 0.4834(3)
O5C O 0.9129(5) 1.7964(5) 1.0166(3)
N1A N 0.3926(6) 1.2293(6) 0.8788(4)
N1_2 N 0.6074(6) 1.7293(6) 0.6212(4)
N2A N 0.5431(7) 1.2345(7) 1.0756(4)
H3A H 0.5701 1.2203 1.1468
C1A C 0.5884(7) 1.3666(7) 0.8464(5)
C2A C 0.5494(7) 1.3010(6) 0.9275(5)
C3A C 0.6453(8) 1.3032(7) 1.0508(5)
H4A H 0.7567 1.3431 1.1058
C4A C 0.3951(8) 1.1929(7) 0.9725(6)
H5A H 0.3042 1.1439 0.9669
C5B C 0.0078(6) 1.4519(8) 0.4531(4)
loop_
_geom_bond_atom_site_label_1
_geom_bond_atom_site_label_2
_geom_bond_site_symmetry_1
_geom_bond_site_symmetry_2
Cd1 O1 1_555 1_555
O1 C1 1_555 1_555
O2 Cd1 1_555 1_555
H1 O2 1_555 1_555
H2 O2 1_555 1_555
O3 C1 1_555 1_555
O4 Cd1 1_555 1_555
O5 C5 1_555 1_555
N1 C2 1_555 1_555
N2 H3 1_555 1_555
C1 C2 1_555 1_555
C2 C3 1_555 1_555
C3 N2 1_555 1_555
H4 C3 1_555 1_555
C4 N1 1_555 1_555
H5 C4 1_555 1_555
C5 O4 1_555 1_555
Cd1A O1A 1_555 1_555
Cd1A_2 O3 1_555 1_555
Cd1B O5 1_555 1_555
O1A C1A 1_555 1_555
O2A Cd1A 1_555 1_555
H1A O2A 1_555 1_555
H2A O2A 1_555 1_555
O3A Cd1 1_555 1_555
O3_2 Cd1A 1_555 1_555
O4B Cd1B 1_555 1_555
O4A Cd1A 1_555 1_555
O5B Cd1 1_555 1_555
O5C Cd1A 1_555 1_555
N1A Cd1 1_555 1_555
N1_2 Cd1A 1_555 1_555
N2A H3A 1_555 1_555
C1A O3A 1_555 1_555
C2A N1A 1_555 1_555
C3A N2A 1_555 1_555
H4A C3A 1_555 1_555
C4A N1A 1_555 1_555
H5A C4A 1_555 1_555
C5B C5 1_555 1_555
N1 Cd1A_2 1_555 1_555
N2 C4 1_555 1_555
O4B C5B 1_555 1_555
O5B C5B 1_555 1_555
N2A C4A 1_555 1_555
C1A C2A 1_555 1_555
C2A C3A 1_555 1_555

#END
