
#######################################################################
#
#                 Cambridge Crystallographic Data Centre
#                                CCDC 
#
#######################################################################
#
# If this CIF has been generated from an entry in the Cambridge 
# Structural Database, then it will include bibliographic, chemical, 
# crystal, experimental, refinement or atomic coordinate data resulting 
# from the CCDC's data processing and validation procedures.
#
#######################################################################

data_GAZTAE
_symmetry_cell_setting           monoclinic
_symmetry_space_group_name_H-M   'C 2/c'
_symmetry_Int_Tables_number      15
_space_group_name_Hall           '-C 2yn'
loop_
_symmetry_equiv_pos_site_id
_symmetry_equiv_pos_as_xyz
1 x,y,z
2 -x,y,1/2-z
3 1/2+x,1/2+y,z
4 1/2-x,1/2+y,1/2-z
5 -x,-y,-z
6 x,-y,1/2+z
7 1/2-x,1/2-y,-z
8 1/2+x,1/2-y,1/2+z
_cell_length_a                   17.700(4)
_cell_length_b                   14.604(3)
_cell_length_c                   13.757(3)
_cell_angle_alpha                90
_cell_angle_beta                 109.53(3)
_cell_angle_gamma                90
_cell_volume                     3351.47
loop_
_atom_site_label
_atom_site_type_symbol
_atom_site_fract_x
_atom_site_fract_y
_atom_site_fract_z
Cu1 Cu 0.10953(3) 0.86540(4) 0.29705(4)
I1 I 0.0000 0.72585(3) 0.2500
I2 I 0.0000 1.00533(2) 0.2500
N1 N 0.1660(2) 0.8730(2) 0.4512(3)
C1 C 0.2453(3) 0.8665(4) 0.4956(4)
H1 H 0.2764 0.8571 0.4529
C2 C 0.2843(3) 0.8727(4) 0.6002(4)
H2 H 0.3405 0.8680 0.6265
C3 C 0.2421(2) 0.8856(3) 0.6666(3)
C4 C 0.1604(3) 0.8928(4) 0.6214(4)
H3 H 0.1280 0.9017 0.6626
C5 C 0.1258(3) 0.8870(4) 0.5160(3)
H4 H 0.0699 0.8934 0.4878
C6 C 0.2859(3) 0.8911(3) 0.7811(3)
H5 H 0.3175 0.9477 0.7953
H6 H 0.3235 0.8398 0.8009
C7 C 0.2335(3) 0.8896(3) 0.8497(3)
H7 H 0.2004 0.9449 0.8376
H8 H 0.1977 0.8364 0.8321
C8 C 0.2856(3) 0.8847(3) 0.9629(3)
H9 H 0.3211 0.8315 0.9722
H10 H 0.3196 0.9394 0.9794
C12 C 0.2412(3) 0.8776(3) 1.0401(3)
C13 C 0.1592(3) 0.8817(4) 1.0146(3)
H13 H 0.1266 0.8886 0.9454
C14 C 0.2845(3) 0.8666(3) 1.1438(4)
H14 H 0.3407 0.8633 1.1655
C15 C 0.1250(3) 0.8755(4) 1.0911(4)
H15 H 0.0689 0.8787 1.0714
N2 N 0.1666(2) 0.8653(2) 1.1913(3)
C16 C 0.2460(3) 0.8606(3) 1.2149(3)
H16 H 0.2773 0.8526 1.2845
Cu1A Cu -0.10953(3) 0.86540(4) 0.20295(4)
Cu1_2 Cu 0.10953(3) 0.86540(4) 1.29705(4)
Cu1A_2 Cu -0.10953(3) 0.86540(4) -0.79705(4)
N1A N -0.1660(2) 0.8730(2) 0.0488(3)
C1A C -0.2453(3) 0.8665(4) 0.0044(4)
H1A H -0.2764 0.8571 0.0471
C2A C -0.2843(3) 0.8727(4) -0.1002(4)
H2A H -0.3405 0.8680 -0.1265
C3A C -0.2421(2) 0.8856(3) -0.1666(3)
C4A C -0.1604(3) 0.8928(4) -0.1214(4)
H3A H -0.1280 0.9017 -0.1626
C5A C -0.1258(3) 0.8870(4) -0.0160(3)
H4A H -0.0699 0.8934 0.0122
C6A C -0.2859(3) 0.8911(3) -0.2811(3)
H5A H -0.3175 0.9477 -0.2953
H6A H -0.3235 0.8398 -0.3009
C7A C -0.2335(3) 0.8896(3) -0.3497(3)
H7A H -0.2004 0.9449 -0.3376
H8A H -0.1977 0.8364 -0.3321
C8A C -0.2856(3) 0.8847(3) -0.4629(3)
H9A H -0.3211 0.8315 -0.4722
H10A H -0.3196 0.9394 -0.4794
C12A C -0.2412(3) 0.8776(3) -0.5401(3)
C13A C -0.1592(3) 0.8817(4) -0.5146(3)
H13A H -0.1266 0.8886 -0.4454
C14A C -0.2845(3) 0.8666(3) -0.6438(4)
H14A H -0.3407 0.8633 -0.6655
C15A C -0.1250(3) 0.8755(4) -0.5911(4)
H15A H -0.0689 0.8787 -0.5714
N2_2 N 0.1666(2) 0.8653(2) 0.1913(3)
N2A N -0.1666(2) 0.8653(2) 0.3087(3)
N2A_2 N -0.1666(2) 0.8653(2) -0.6913(3)
C16A C -0.2460(3) 0.8606(3) -0.7149(3)
H16A H -0.2773 0.8526 -0.7845
I3 I 0.02316(2) 0.34964(2) 0.00902(2)
C9 C 0.0102(3) 0.3565(3) 0.1554(3)
C10 C 0.0055(3) 0.4391(3) 0.2027(3)
H11 H 0.0096 0.4948 0.1705
C11 C 0.0053(3) 0.2745(3) 0.2030(4)
H12 H 0.0093 0.2188 0.1708
I3A I -0.02316(2) 0.34964(2) 0.49098(2)
C9A C -0.0102(3) 0.3565(3) 0.3446(3)
C10A C -0.0055(3) 0.4391(3) 0.2973(3)
H11A H -0.0096 0.4948 0.3295
C11A C -0.0053(3) 0.2745(3) 0.2970(4)
H12A H -0.0093 0.2188 0.3292
loop_
_geom_bond_atom_site_label_1
_geom_bond_atom_site_label_2
_geom_bond_site_symmetry_1
_geom_bond_site_symmetry_2
Cu1 I1 1_555 1_555
I1 Cu1A 1_555 1_555
I2 Cu1 1_555 1_555
I3 C9 1_555 1_555
N1 Cu1 1_555 1_555
C1 N1 1_555 1_555
H1 C1 1_555 1_555
C2 C1 1_555 1_555
H2 C2 1_555 1_555
C3 C2 1_555 1_555
C4 C3 1_555 1_555
H3 C4 1_555 1_555
C5 N1 1_555 1_555
H4 C5 1_555 1_555
C6 C3 1_555 1_555
H5 C6 1_555 1_555
H6 C6 1_555 1_555
C7 C6 1_555 1_555
H7 C7 1_555 1_555
H8 C7 1_555 1_555
C8 C7 1_555 1_555
H9 C8 1_555 1_555
H10 C8 1_555 1_555
C9 C10 1_555 1_555
C10 H11 1_555 1_555
C11 C9 1_555 1_555
H12 C11 1_555 1_555
C12 C8 1_555 1_555
C13 C12 1_555 1_555
H13 C13 1_555 1_555
C14 C12 1_555 1_555
H14 C14 1_555 1_555
C15 C13 1_555 1_555
H15 C15 1_555 1_555
N2 C15 1_555 1_555
C16 C14 1_555 1_555
H16 C16 1_555 1_555
Cu1A I2 1_555 1_555
Cu1_2 N2 1_555 1_555
Cu1A_2 N2A_2 1_555 1_555
I3A C9A 1_555 1_555
N1A Cu1A 1_555 1_555
C1A N1A 1_555 1_555
H1A C1A 1_555 1_555
C2A C1A 1_555 1_555
H2A C2A 1_555 1_555
C3A C2A 1_555 1_555
C4A C3A 1_555 1_555
H3A C4A 1_555 1_555
C5A N1A 1_555 1_555
H4A C5A 1_555 1_555
C6A C3A 1_555 1_555
H5A C6A 1_555 1_555
H6A C6A 1_555 1_555
C7A C6A 1_555 1_555
H7A C7A 1_555 1_555
H8A C7A 1_555 1_555
C8A C7A 1_555 1_555
H9A C8A 1_555 1_555
H10A C8A 1_555 1_555
C9A C10A 1_555 1_555
C10A C10 1_555 1_555
H11A C10A 1_555 1_555
C11A C11 1_555 1_555
H12A C11A 1_555 1_555
C12A C8A 1_555 1_555
C13A C12A 1_555 1_555
H13A C13A 1_555 1_555
C14A C12A 1_555 1_555
H14A C14A 1_555 1_555
C15A C13A 1_555 1_555
H15A C15A 1_555 1_555
N2_2 Cu1 1_555 1_555
N2A Cu1A 1_555 1_555
N2A_2 C15A 1_555 1_555
C16A C14A 1_555 1_555
H16A C16A 1_555 1_555
C4 C5 1_555 1_555
N2 C16 1_555 1_555
C4A C5A 1_555 1_555
C9A C11A 1_555 1_555
N2A_2 C16A 1_555 1_555

#END
