
#######################################################################
#
#                 Cambridge Crystallographic Data Centre
#                                CCDC 
#
#######################################################################
#
# If this CIF has been generated from an entry in the Cambridge 
# Structural Database, then it will include bibliographic, chemical, 
# crystal, experimental, refinement or atomic coordinate data resulting 
# from the CCDC's data processing and validation procedures.
#
#######################################################################

data_GAZTOS
_symmetry_cell_setting           monoclinic
_symmetry_space_group_name_H-M   'C 2/c'
_symmetry_Int_Tables_number      15
_space_group_name_Hall           '-C 2yn'
loop_
_symmetry_equiv_pos_site_id
_symmetry_equiv_pos_as_xyz
1 x,y,z
2 -x,y,1/2-z
3 1/2+x,1/2+y,z
4 1/2-x,1/2+y,1/2-z
5 -x,-y,-z
6 x,-y,1/2+z
7 1/2-x,1/2-y,-z
8 1/2+x,1/2-y,1/2+z
_cell_length_a                   12.4823(19)
_cell_length_b                   11.8834(18)
_cell_length_c                   8.7986(13)
_cell_angle_alpha                90
_cell_angle_beta                 129.467(2)
_cell_angle_gamma                90
_cell_volume                     1007.54
loop_
_atom_site_label
_atom_site_type_symbol
_atom_site_fract_x
_atom_site_fract_y
_atom_site_fract_z
Cu1 Cu 0.81651(3) 0.90261(3) 0.58978(4)
Cu2 Cu 0.5000 1.44509(4) 0.2500
N1 N 0.6132(2) 0.85232(18) 0.3714(3)
N2 N 0.5675(2) 0.74555(17) 0.3216(3)
N3 N 0.5000 1.2753(3) 0.2500
N4 N 0.3265(2) 1.4495(2) -0.1828(3)
C1 C 0.4296(3) 1.2158(2) 0.0814(4)
H1 H 0.3805 1.2551 -0.0368
C2 C 0.4266(3) 1.0998(2) 0.0749(4)
H2 H 0.3761 1.0623 -0.0451
C3 C 0.5000 1.0397(3) 0.2500
C4 C 0.5000 0.9158(3) 0.2500
C5 C 0.3501(3) 1.4868(2) -0.0436(4)
Cu1A Cu 0.18349(3) 0.90261(3) -0.08978(4)
Cu1F Cu 0.68349(3) 0.59739(3) 0.41022(4)
Cu1B Cu 0.31651(3) 1.40261(3) -0.41022(4)
Cu1G Cu 0.31651(3) 1.59739(3) 0.08978(4)
Cu1G_2 Cu 0.31651(3) 0.59739(3) 0.08978(4)
Cu1C Cu 0.68349(3) 1.40261(3) 0.91022(4)
Cu1F_2 Cu 0.68349(3) 1.59739(3) 0.41022(4)
N1A N 0.3868(2) 0.85232(18) 0.1286(3)
N2A N 0.4325(2) 0.74555(17) 0.1784(3)
N2F N 0.9325(2) 0.75445(17) 0.6784(3)
N2G N 0.0675(2) 0.75445(17) -0.1784(3)
N4A N 0.6735(2) 1.4495(2) 0.6828(3)
N4B N 0.8265(2) 0.9495(2) 0.8172(3)
N4C N 0.1735(2) 0.9495(2) -0.3172(3)
C1A C 0.5704(3) 1.2158(2) 0.4186(4)
H1A H 0.6195 1.2551 0.5368
C2A C 0.5734(3) 1.0998(2) 0.4251(4)
H2A H 0.6239 1.0623 0.5451
C5A C 0.6499(3) 1.4868(2) 0.5436(4)
C5G C 0.8501(3) 1.0132(2) 0.4564(4)
C5F C 0.1499(3) 1.0132(2) 0.0436(4)
loop_
_geom_bond_atom_site_label_1
_geom_bond_atom_site_label_2
_geom_bond_site_symmetry_1
_geom_bond_site_symmetry_2
Cu1 N1 1_555 1_555
Cu2 N3 1_555 1_555
N1 N2 1_555 1_555
N2 Cu1F 1_555 1_555
N3 C1 1_555 1_555
N4 C5 1_555 1_555
C1 H1 1_555 1_555
C2 C1 1_555 1_555
H2 C2 1_555 1_555
C3 C2 1_555 1_555
C4 N1 1_555 1_555
C5 Cu2 1_555 1_555
Cu1A N1A 1_555 1_555
Cu1B N4 1_555 1_555
Cu1G C5 1_555 1_555
Cu1G_2 N2A 1_555 1_555
Cu1C N4A 1_555 1_555
Cu1F_2 C5A 1_555 1_555
N1A C4 1_555 1_555
N2A N2 1_555 1_555
N2F Cu1 1_555 1_555
N2G Cu1A 1_555 1_555
N4A C5A 1_555 1_555
N4B Cu1 1_555 1_555
N4C Cu1A 1_555 1_555
C1A N3 1_555 1_555
H1A C1A 1_555 1_555
C2A C3 1_555 1_555
H2A C2A 1_555 1_555
C5A Cu2 1_555 1_555
C5G Cu1 1_555 1_555
C5F Cu1A 1_555 1_555
C3 C4 1_555 1_555
N1A N2A 1_555 1_555
C1A C2A 1_555 1_555

#END
