
#######################################################################
#
#                 Cambridge Crystallographic Data Centre
#                                CCDC 
#
#######################################################################
#
# If this CIF has been generated from an entry in the Cambridge 
# Structural Database, then it will include bibliographic, chemical, 
# crystal, experimental, refinement or atomic coordinate data resulting 
# from the CCDC's data processing and validation procedures.
#
#######################################################################

data_GEBHOK
_symmetry_cell_setting           triclinic
_symmetry_space_group_name_H-M   'P -1'
_symmetry_Int_Tables_number      2
_space_group_name_Hall           '-P 1'
loop_
_symmetry_equiv_pos_site_id
_symmetry_equiv_pos_as_xyz
1 x,y,z
2 -x,-y,-z
_cell_length_a                   15.421(5)
_cell_length_b                   16.594(4)
_cell_length_c                   10.537(1)
_cell_angle_alpha                115.08(1)
_cell_angle_beta                 103.21(2)
_cell_angle_gamma                57.48(2)
_cell_volume                     2059.23
loop_
_atom_site_label
_atom_site_type_symbol
_atom_site_fract_x
_atom_site_fract_y
_atom_site_fract_z
Cu1 Cu 0.0311(1) 0.0749(1) -0.5853(1)
O1 O -0.0338(4) 0.1827(4) -0.4099(5)
N1 N -0.0965(5) 0.0706(5) -0.6622(7)
N2 N 0.1232(4) -0.0642(4) -0.7336(5)
N3 N 0.1669(4) 0.0453(4) -0.4937(6)
N4 N 0.3105(4) 0.0151(4) -0.3639(6)
C1 C -0.1314(6) 0.2412(6) -0.3836(8)
C2 C -0.1636(7) 0.3244(7) -0.2519(10)
C3 C -0.2646(8) 0.3893(8) -0.2170(13)
C4 C -0.3393(8) 0.3759(8) -0.3134(16)
C5 C -0.3126(7) 0.2956(7) -0.4397(13)
C6 C -0.2074(6) 0.2258(6) -0.4779(9)
C7 C -0.1857(6) 0.1398(6) -0.6076(8)
C8 C -0.0936(8) -0.0146(9) -0.7940(11)
C9 C -0.0251(11) -0.0485(11) -0.8924(11)
C10 C 0.0912(6) -0.1184(6) -0.8695(7)
C11 C 0.2177(6) -0.1052(6) -0.7000(7)
C12 C 0.2457(5) -0.0489(5) -0.5664(6)
C13 C 0.3340(6) -0.0679(6) -0.4862(7)
C14 C 0.2083(5) 0.0821(5) -0.3720(7)
Cu2 Cu 0.3940(1) 0.0312(1) -0.1602(1)
O2 O 0.3513(4) -0.0339(4) -0.0922(5)
N5 N 0.5256(4) -0.0962(5) -0.2331(6)
N6 N 0.4411(4) 0.1227(4) -0.1694(5)
N7 N 0.2880(4) 0.1669(4) -0.0384(5)
N8 N 0.1749(4) 0.3100(4) 0.1205(6)
C15 C 0.3905(6) -0.1317(5) -0.1257(8)
C16 C 0.3393(7) -0.1631(7) -0.0756(10)
C17 C 0.3748(8) -0.2641(8) -0.1061(14)
C18 C 0.4638(9) -0.3398(8) -0.1876(16)
C19 C 0.5170(8) -0.3124(7) -0.2350(12)
C20 C 0.4808(6) -0.2066(5) -0.2029(8)
C21 C 0.5457(6) -0.1855(6) -0.2476(8)
C22 C 0.6081(7) -0.0930(8) -0.2782(13)
C23 C 0.5748(9) -0.0270(10) -0.3447(12)
C24 C 0.5272(6) 0.0913(6) -0.2522(8)
C25 C 0.3878(5) 0.2178(6) -0.0946(7)
C26 C 0.3032(5) 0.2462(5) -0.0174(7)
C27 C 0.2340(5) 0.3339(5) 0.0821(7)
C28 C 0.2094(5) 0.2089(5) 0.0458(7)
Cu3 Cu 0.0750(1) 0.3939(1) 0.3086(1)
O3 O 0.1826(4) 0.3515(4) 0.4416(5)
N9 N 0.0698(5) 0.5262(4) 0.3631(6)
N10 N -0.0644(4) 0.4411(4) 0.2073(6)
N11 N 0.0453(4) 0.2873(4) 0.2935(6)
N12 N 0.0152(4) 0.1746(4) 0.3106(6)
C29 C 0.2418(6) 0.3899(6) 0.5069(8)
C30 C 0.3235(6) 0.3397(7) 0.5871(9)
C31 C 0.3903(8) 0.3753(8) 0.6572(13)
C32 C 0.3769(9) 0.4642(9) 0.6518(15)
C33 C 0.2961(8) 0.5166(8) 0.5768(12)
C34 C 0.2256(6) 0.4813(6) 0.5035(8)
C35 C 0.1402(6) 0.5459(6) 0.4384(8)
C36 C -0.0144(9) 0.6086(7) 0.3162(12)
C37 C -0.0465(11) 0.5737(9) 0.1819(13)
C38 C -0.1189(7) 0.5273(6) 0.1570(8)
C39 C -0.1059(6) 0.3877(5) 0.1879(7)
C40 C -0.0498(5) 0.3038(5) 0.2371(6)
C41 C -0.0685(6) 0.2343(5) 0.2480(7)
C42 C 0.0816(5) 0.2098(5) 0.3372(7)
H1 H -0.107 0.336 -0.178
H2 H -0.286 0.451 -0.114
H3 H -0.419 0.431 -0.286
H4 H -0.375 0.290 -0.506
H5 H -0.260 0.150 -0.668
H6 H 0.274 -0.176 -0.755
H7 H 0.404 -0.128 -0.504
H8 H 0.272 -0.107 -0.012
H9 H 0.333 -0.283 -0.064
H10 H 0.491 -0.420 -0.213
H11 H 0.584 -0.373 -0.296
H12 H 0.610 -0.260 -0.300
H13 H 0.404 0.273 -0.083
H14 H 0.217 0.408 0.123
H15 H 0.178 0.160 0.045
H16 H 0.334 0.272 0.594
H17 H 0.452 0.333 0.717
H18 H 0.428 0.493 0.708
H19 H 0.289 0.584 0.575
H20 H 0.124 0.622 0.456
H21 H -0.178 0.414 0.153
H22 H -0.129 0.224 0.212
H23 H 0.152 0.185 0.394
N12_2 N 0.0152(4) 0.1746(4) -0.6894(6)
Cu1_2 Cu 0.0311(1) 0.0749(1) 0.4147(1)
loop_
_geom_bond_atom_site_label_1
_geom_bond_atom_site_label_2
_geom_bond_site_symmetry_1
_geom_bond_site_symmetry_2
Cu1 O1 1_555 1_555
O1 C1 1_555 1_555
N1 Cu1 1_555 1_555
N2 Cu1 1_555 1_555
N3 Cu1 1_555 1_555
N4 C13 1_555 1_555
C1 C2 1_555 1_555
C2 C3 1_555 1_555
C3 C4 1_555 1_555
C4 C5 1_555 1_555
C5 C6 1_555 1_555
C6 C1 1_555 1_555
C7 N1 1_555 1_555
C8 N1 1_555 1_555
C9 C8 1_555 1_555
C10 N2 1_555 1_555
C11 N2 1_555 1_555
C12 N3 1_555 1_555
C13 C12 1_555 1_555
C14 N3 1_555 1_555
Cu2 N4 1_555 1_555
O2 Cu2 1_555 1_555
N5 Cu2 1_555 1_555
N6 Cu2 1_555 1_555
N7 Cu2 1_555 1_555
N8 C27 1_555 1_555
C15 O2 1_555 1_555
C16 C15 1_555 1_555
C17 C16 1_555 1_555
C18 C17 1_555 1_555
C19 C18 1_555 1_555
C20 C15 1_555 1_555
C21 N5 1_555 1_555
C22 N5 1_555 1_555
C23 C22 1_555 1_555
C24 N6 1_555 1_555
C25 N6 1_555 1_555
C26 N7 1_555 1_555
C27 C26 1_555 1_555
C28 N7 1_555 1_555
Cu3 N8 1_555 1_555
O3 Cu3 1_555 1_555
N9 Cu3 1_555 1_555
N10 Cu3 1_555 1_555
N11 Cu3 1_555 1_555
N12 C41 1_555 1_555
C29 O3 1_555 1_555
C30 C29 1_555 1_555
C31 C30 1_555 1_555
C32 C31 1_555 1_555
C33 C32 1_555 1_555
C34 C29 1_555 1_555
C35 N9 1_555 1_555
C36 N9 1_555 1_555
C37 C36 1_555 1_555
C38 N10 1_555 1_555
C39 N10 1_555 1_555
C40 N11 1_555 1_555
C41 C40 1_555 1_555
C42 N11 1_555 1_555
H1 C2 1_555 1_555
H2 C3 1_555 1_555
H3 C4 1_555 1_555
H4 C5 1_555 1_555
H5 C7 1_555 1_555
H6 C11 1_555 1_555
H7 C13 1_555 1_555
H8 C16 1_555 1_555
H9 C17 1_555 1_555
H10 C18 1_555 1_555
H11 C19 1_555 1_555
H12 C21 1_555 1_555
H13 C25 1_555 1_555
H14 C27 1_555 1_555
H15 C28 1_555 1_555
H16 C30 1_555 1_555
H17 C31 1_555 1_555
H18 C32 1_555 1_555
H19 C33 1_555 1_555
H20 C35 1_555 1_555
H21 C39 1_555 1_555
H22 C41 1_555 1_555
H23 C42 1_555 1_555
N12_2 Cu1 1_555 1_555
Cu1_2 N12 1_555 1_555
N4 C14 1_555 1_555
C6 C7 1_555 1_555
C9 C10 1_555 1_555
C11 C12 1_555 1_555
N8 C28 1_555 1_555
C19 C20 1_555 1_555
C20 C21 1_555 1_555
C23 C24 1_555 1_555
C25 C26 1_555 1_555
N12 C42 1_555 1_555
C33 C34 1_555 1_555
C34 C35 1_555 1_555
C37 C38 1_555 1_555
C39 C40 1_555 1_555

#END
