
#######################################################################
#
#                 Cambridge Crystallographic Data Centre
#                                CCDC 
#
#######################################################################
#
# If this CIF has been generated from an entry in the Cambridge 
# Structural Database, then it will include bibliographic, chemical, 
# crystal, experimental, refinement or atomic coordinate data resulting 
# from the CCDC's data processing and validation procedures.
#
#######################################################################

data_GEBHOK01
_symmetry_cell_setting           rhombohedral
_symmetry_space_group_name_H-M   'R -3'
_symmetry_Int_Tables_number      148
_space_group_name_Hall           '-P 3*'
loop_
_symmetry_equiv_pos_site_id
_symmetry_equiv_pos_as_xyz
1 x,y,z
2 z,x,y
3 y,z,x
4 -x,-y,-z
5 -z,-x,-y
6 -y,-z,-x
_cell_length_a                   15.427
_cell_length_b                   15.427
_cell_length_c                   15.427
_cell_angle_alpha                114.98
_cell_angle_beta                 114.98
_cell_angle_gamma                114.98
_cell_volume                     2058.53
loop_
_atom_site_label
_atom_site_type_symbol
_atom_site_fract_x
_atom_site_fract_y
_atom_site_fract_z
Cu1 Cu 0.4147 0.3086 0.8398
N1 N 0.3374 0.3633 0.7671
N2 N 0.5064 0.2941 0.9612
C1 C 0.6163 0.5065 0.8749
C2 C 0.7827 0.6578 0.8931
C3 C 0.5603 0.5772 0.7646
C4 C 0.3924 0.4382 0.7524
C5 C 0.1078 0.1818 0.6554
C6 C 0.3000 0.1877 0.9056
C7 C 0.5139 0.2480 1.0820
O1 O 0.5902 0.4415 0.9076
N3 N 0.2665 0.2075 0.8306
N4 N 0.3105 0.1208 0.6359
C8 C 0.7479 0.5873 0.9240
C9 C 0.6875 0.6513 0.8113
C10 C 0.5224 0.5036 0.7967
C11 C 0.2068 0.3151 0.7215
C12 C 0.1298 0.1571 0.7484
C13 C 0.4334 0.2368 0.9827
C14 C 0.6277 0.3372 1.0458
N4A N 0.6359 0.3105 1.1208
Cu1A Cu 0.8398 0.4147 1.3086
loop_
_geom_bond_atom_site_label_1
_geom_bond_atom_site_label_2
_geom_bond_site_symmetry_1
_geom_bond_site_symmetry_2
Cu1 N1 1_555 1_555
N1 C4 1_555 1_555
N2 Cu1 1_555 1_555
C1 O1 1_555 1_555
C2 C8 1_555 1_555
C3 C9 1_555 1_555
C4 C10 1_555 1_555
C5 C11 1_555 1_555
C6 N3 1_555 1_555
C7 C13 1_555 1_555
O1 Cu1 1_555 1_555
N3 Cu1 1_555 1_555
N4 Cu1 1_555 1_555
C8 C1 1_555 1_555
C9 C2 1_555 1_555
C10 C1 1_555 1_555
C11 N1 1_555 1_555
C12 C5 1_555 1_555
C13 N2 1_555 1_555
C14 N2 1_555 1_555
N4A C7 1_555 1_555
Cu1A N4A 1_555 1_555
C3 C10 1_555 1_555
C6 C13 1_555 1_555
N3 C12 1_555 1_555
C14 N4A 1_555 1_555

#END
