
#######################################################################
#
#                 Cambridge Crystallographic Data Centre
#                                CCDC 
#
#######################################################################
#
# If this CIF has been generated from an entry in the Cambridge 
# Structural Database, then it will include bibliographic, chemical, 
# crystal, experimental, refinement or atomic coordinate data resulting 
# from the CCDC's data processing and validation procedures.
#
#######################################################################

data_GEBLUW
_symmetry_cell_setting           monoclinic
_symmetry_space_group_name_H-M   'P 21/c'
_symmetry_Int_Tables_number      14
_space_group_name_Hall           '-P 2ybc'
loop_
_symmetry_equiv_pos_site_id
_symmetry_equiv_pos_as_xyz
1 x,y,z
2 -x,1/2+y,1/2-z
3 -x,-y,-z
4 x,1/2-y,1/2+z
_cell_length_a                   10.7374(2)
_cell_length_b                   10.7328(2)
_cell_length_c                   19.7910(4)
_cell_angle_alpha                90
_cell_angle_beta                 101.8520(10)
_cell_angle_gamma                90
_cell_volume                     2232.14
loop_
_atom_site_label
_atom_site_type_symbol
_atom_site_fract_x
_atom_site_fract_y
_atom_site_fract_z
Y1 Y 0.37497(4) -0.06170(4) 0.68376(2)
Y2 Y 0.63874(4) 0.19037(4) 0.68463(2)
Y3 Y 0.06692(4) -0.23108(4) 0.67960(2)
Y4 Y 0.80371(4) -0.50286(4) 0.67533(2)
Y5 Y 0.71010(4) -0.15332(4) 0.65161(2)
O1 O -0.0028(3) -0.0972(3) 0.58374(17)
O2 O -0.2099(3) -0.0515(3) 0.57054(18)
O3 O 0.6362(3) -0.4659(3) 0.57859(17)
O4 O 0.5809(3) -0.2637(3) 0.56785(17)
O5 O 0.2872(3) 0.1128(3) 0.61795(18)
O6 O 0.4399(3) 0.2565(3) 0.61775(18)
O7 O 0.5526(3) -0.1935(3) 0.71804(16)
O8 O 0.5205(3) -0.3853(3) 0.75530(16)
O9 O 0.6987(3) -0.3351(3) 0.71892(16)
O10 O 0.7730(3) 0.0231(3) 0.72489(16)
O11 O 0.9128(3) -0.1242(3) 0.72634(16)
O12 O 0.9737(3) 0.0560(3) 0.78241(16)
O13 O 0.3096(3) -0.1335(3) 0.57528(17)
O14 O 0.0932(3) -0.3418(3) 0.57899(17)
O15 O 0.1204(3) -0.4313(3) 0.42327(17)
O16 O 0.3303(3) -0.2161(3) 0.42379(16)
O17 O 0.2849(3) -0.2617(3) 0.69759(15)
O18 O 0.3787(3) -0.0969(3) 0.80173(15)
O19 O 0.5526(3) -0.0003(3) 0.63644(15)
O20 O 0.1678(3) -0.0379(3) 0.70478(15)
O21 O 0.8459(3) 0.2835(3) 0.70028(15)
O22 O -0.1408(3) -0.3071(3) 0.63189(15)
C1 C -0.1042(4) -0.0512(4) 0.5519(2)
C2 C 0.5753(5) -0.3757(4) 0.5478(2)
C3 C 0.3327(5) 0.2100(5) 0.5973(3)
C4 C 0.5890(4) -0.3070(4) 0.7319(2)
C5 C 0.8896(4) -0.0133(4) 0.7459(2)
C6 C 0.2561(4) -0.2146(4) 0.5345(2)
C7 C 0.1576(4) -0.3097(4) 0.5355(2)
C8 C 0.1705(4) -0.3500(4) 0.4656(2)
C9 C 0.2659(4) -0.2526(4) 0.4655(2)
H1 H -0.1010 -0.0197 0.5081
H2 H 0.4978 -0.3919 0.5067
H3 H 0.2881 0.2488 0.5554
H4 H 0.3092 -0.3349 0.6754
H5 H 0.3102 -0.1159 0.8216
H6 H 0.5198 0.0155 0.5881
H7 H 0.1527 -0.1061 0.6819
H8 H 0.8940 0.2220 0.6835
H9 H -0.1490 -0.3169 0.5866
Y1A Y 0.62503(4) -0.56170(4) 0.81624(2)
Y2A Y 0.36126(4) -0.30963(4) 0.81537(2)
Y2B Y 0.36126(4) -0.19037(4) 0.31537(2)
Y3_2 Y 1.06692(4) -0.23108(4) 0.67960(2)
Y3A Y 0.93308(4) 0.26892(4) 0.82040(2)
Y4A Y 1.19629(4) -0.00286(4) 0.82467(2)
Y4B Y 0.19629(4) -0.49714(4) 0.32467(2)
Y4A_2 Y 0.19629(4) -0.00286(4) 0.82467(2)
Y4_2 Y 0.80371(4) 0.49714(4) 0.67533(2)
Y4_3 Y -0.19629(4) -0.50286(4) 0.67533(2)
Y5_2 Y -0.28990(4) -0.15332(4) 0.65161(2)
O2_2 O 0.7901(3) -0.0515(3) 0.57054(18)
O8A O 0.4795(3) 0.1147(3) 0.74470(16)
O11_2 O -0.0872(3) -0.1242(3) 0.72634(16)
O12A O 0.0263(3) -0.4440(3) 0.71759(16)
O12A_2 O 1.0263(3) -0.4440(3) 0.71759(16)
O15B O 0.8796(3) -0.5687(3) 0.57673(17)
O16B O 0.6697(3) 0.2161(3) 0.57621(16)
O17A O 0.7151(3) 0.2383(3) 0.80241(15)
O18A O 0.6213(3) 0.4031(3) 0.69827(15)
O18A_2 O 0.6213(3) -0.5969(3) 0.69827(15)
O20A O 0.8322(3) -0.5379(3) 0.79522(15)
O21A O 0.1541(3) -0.2165(3) 0.79972(15)
O21_2 O 0.8459(3) -0.7165(3) 0.70028(15)
O22_2 O 0.8592(3) -0.3071(3) 0.63189(15)
H4A H 0.6908 0.1651 0.8246
H5A H 0.6898 -0.6159 0.6784
H5A_2 H 0.6898 0.3841 0.6784
H8A H 0.1060 -0.2780 0.8165
H8_2 H 0.8940 -0.7780 0.6835
H9_2 H 0.8510 -0.3169 0.5866
O23 O 1.0433(5) 0.3093(5) 0.1336(3)
O25 O -0.1166(8) 0.5940(7) 0.4622(5)
O26 O 0.3416(9) 0.9884(8) 0.1245(6)
O24? O 0.4716(6) 0.4685(6) 0.0033(3)
loop_
_geom_bond_atom_site_label_1
_geom_bond_atom_site_label_2
_geom_bond_site_symmetry_1
_geom_bond_site_symmetry_2
Y1 O5 1_555 1_555
Y2 O6 1_555 1_555
Y3 O1 1_555 1_555
Y4 O3 1_555 1_555
Y5 O4 1_555 1_555
O1 C1 1_555 1_555
O2 C1 1_555 1_555
O3 C2 1_555 1_555
O4 C2 1_555 1_555
O5 C3 1_555 1_555
O6 C3 1_555 1_555
O7 Y1 1_555 1_555
O8 C4 1_555 1_555
O9 Y4 1_555 1_555
O10 Y2 1_555 1_555
O11 Y5 1_555 1_555
O12 C5 1_555 1_555
O13 Y1 1_555 1_555
O14 Y3 1_555 1_555
O15 C8 1_555 1_555
O16 C9 1_555 1_555
O17 Y1 1_555 1_555
O18 Y1 1_555 1_555
O19 Y1 1_555 1_555
O20 Y1 1_555 1_555
O21 Y2 1_555 1_555
O22 Y3 1_555 1_555
C1 H1 1_555 1_555
C2 H2 1_555 1_555
C3 H3 1_555 1_555
C4 O7 1_555 1_555
C5 O10 1_555 1_555
C6 O13 1_555 1_555
C7 O14 1_555 1_555
C8 C7 1_555 1_555
C9 C6 1_555 1_555
H4 O17 1_555 1_555
H5 O18 1_555 1_555
H6 O19 1_555 1_555
H7 O20 1_555 1_555
H8 O21 1_555 1_555
H9 O22 1_555 1_555
Y1A O8 1_555 1_555
Y2A O8 1_555 1_555
Y2B O16 1_555 1_555
Y3_2 O11 1_555 1_555
Y3A O12 1_555 1_555
Y4A O12 1_555 1_555
Y4B O15 1_555 1_555
Y4A_2 O18 1_555 1_555
Y4_2 O21 1_555 1_555
Y4_3 O22 1_555 1_555
Y5_2 O2 1_555 1_555
O2_2 Y5 1_555 1_555
O8A Y1 1_555 1_555
O11_2 Y3 1_555 1_555
O12A Y3 1_555 1_555
O12A_2 Y4 1_555 1_555
O15B Y4 1_555 1_555
O16B Y2 1_555 1_555
O17A Y2 1_555 1_555
O18A Y2 1_555 1_555
O18A_2 Y4 1_555 1_555
O20A Y4 1_555 1_555
O21A Y3 1_555 1_555
O21_2 Y4 1_555 1_555
O22_2 Y4 1_555 1_555
H4A O17A 1_555 1_555
H5A O18A_2 1_555 1_555
H5A_2 O18A 1_555 1_555
H8A O21A 1_555 1_555
H8_2 O21_2 1_555 1_555
H9_2 O22_2 1_555 1_555
Y2 O19 1_555 1_555
Y2 O8A 1_555 1_555
Y3 O17 1_555 1_555
Y3 O20 1_555 1_555
Y5 O7 1_555 1_555
Y5 O9 1_555 1_555
Y5 O10 1_555 1_555
Y5 O19 1_555 1_555
Y5 O22_2 1_555 1_555
O9 C4 1_555 1_555
O11 C5 1_555 1_555
O17 Y2A 1_555 1_555
O18 Y2A 1_555 1_555
O20 Y4A_2 1_555 1_555
O21 Y3A 1_555 1_555
O22 Y5_2 1_555 1_555
C6 C7 1_555 1_555
C8 C9 1_555 1_555
Y1A O18A_2 1_555 1_555
Y1A O20A 1_555 1_555
Y2A O21A 1_555 1_555
Y3_2 O12A_2 1_555 1_555
Y3_2 O22_2 1_555 1_555
Y3A O17A 1_555 1_555
Y4A_2 O21A 1_555 1_555
Y4_2 O18A 1_555 1_555
Y4_3 O12A 1_555 1_555
Y5_2 O11_2 1_555 1_555

#END
