
#######################################################################
#
#                 Cambridge Crystallographic Data Centre
#                                CCDC 
#
#######################################################################
#
# If this CIF has been generated from an entry in the Cambridge 
# Structural Database, then it will include bibliographic, chemical, 
# crystal, experimental, refinement or atomic coordinate data resulting 
# from the CCDC's data processing and validation procedures.
#
#######################################################################

data_GEBQUB01
_symmetry_cell_setting           monoclinic
_symmetry_space_group_name_H-M   'P 21/n'
_symmetry_Int_Tables_number      14
_space_group_name_Hall           '-P 2yn'
loop_
_symmetry_equiv_pos_site_id
_symmetry_equiv_pos_as_xyz
1 x,y,z
2 1/2-x,1/2+y,1/2-z
3 -x,-y,-z
4 1/2+x,1/2-y,1/2+z
_cell_length_a                   10.5610(8)
_cell_length_b                   9.4941(7)
_cell_length_c                   13.2344(8)
_cell_angle_alpha                90
_cell_angle_beta                 107.394(3)
_cell_angle_gamma                90
_cell_volume                     1266.3
loop_
_atom_site_label
_atom_site_type_symbol
_atom_site_fract_x
_atom_site_fract_y
_atom_site_fract_z
O1 O 0.50919(6) 0.28471(6) 0.01149(5)
O2 O 0.46117(6) -0.15556(6) 0.17258(5)
O3 O 0.45847(6) 0.14004(6) 0.16308(5)
C1 C 0.50512(7) 0.15183(8) -0.00051(6)
C2 C 0.47748(7) -0.08064(8) 0.08710(6)
C3 C 0.47824(7) 0.06804(8) 0.08994(6)
C4 C 0.32482(8) -0.19129(10) 0.15901(7)
H1 H 0.3211(11) -0.2475(14) 0.2213(10)
H2 H 0.2881(10) -0.2456(13) 0.0964(9)
H3 H 0.2750(12) -0.1050(13) 0.1535(9)
O4 O 0.51836(6) 0.78237(6) 0.49939(5)
O5 O 0.45696(5) 0.65528(6) 0.67131(4)
O6 O 0.56410(6) 0.64153(6) 0.34558(5)
C5 C 0.50806(7) 0.65098(8) 0.50557(6)
C6 C 0.47697(7) 0.57899(8) 0.58769(6)
C7 C 0.53385(7) 0.56741(8) 0.41420(6)
C8 C 0.32057(8) 0.69860(10) 0.64856(7)
H4 H 0.2670(13) 0.6134(14) 0.6415(9)
H5 H 0.2910(11) 0.7506(14) 0.5827(10)
H6 H 0.3128(11) 0.7548(14) 0.7057(10)
O7 O 0.44593(6) 1.01932(6) 0.34698(5)
H7 H 0.4448(13) 1.0623(15) 0.2904(12)
H8 H 0.4591(13) 1.0901(15) 0.3891(11)
O8 O 0.27892(6) 0.42170(7) 0.09908(6)
H9 H 0.2177(13) 0.4394(14) 0.1222(10)
H10 H 0.2620(13) 0.4609(15) 0.0467(12)
O9 O 0.56905(6) 0.53282(7) 0.15989(5)
H11 H 0.5652(13) 0.5715(15) 0.2141(12)
H12 H 0.5407(13) 0.6007(14) 0.1141(10)
O10 O 0.74077(6) 0.91452(7) 0.40793(5)
H13 H 0.7824(14) 0.9619(16) 0.3775(11)
H14 H 0.8009(15) 0.8613(15) 0.4375(11)
Li1 Li 0.55742(15) 0.84985(15) 0.36410(13)
Li2 Li 0.45818(15) 0.35379(16) 0.15071(12)
O1B O 0.49081(6) -0.28471(6) -0.01149(5)
O2B O 0.53883(6) 0.15556(6) -0.17258(5)
O3B O 0.54153(6) -0.14004(6) -0.16308(5)
C1B C 0.49488(7) -0.15183(8) 0.00051(6)
C2B C 0.52252(7) 0.08064(8) -0.08710(6)
C3B C 0.52176(7) -0.06804(8) -0.08994(6)
C4B C 0.67518(8) 0.19129(10) -0.15901(7)
H1B H 0.6789(11) 0.2475(14) -0.2213(10)
H2B H 0.7119(10) 0.2456(13) -0.0964(9)
H3B H 0.7250(12) 0.1050(13) -0.1535(9)
O4B O 0.48164(6) 0.21763(6) 0.50061(5)
O5B O 0.54304(5) 0.34472(6) 0.32869(4)
O6B O 0.43590(6) 0.35847(6) 0.65442(5)
C5B C 0.49194(7) 0.34902(8) 0.49443(6)
C6B C 0.52303(7) 0.42101(8) 0.41231(6)
C7B C 0.46615(7) 0.43259(8) 0.58580(6)
C8B C 0.67943(8) 0.30140(10) 0.35144(7)
H4B H 0.7330(13) 0.3866(14) 0.3585(9)
H5B H 0.7090(11) 0.2494(14) 0.4173(10)
H6B H 0.6872(11) 0.2452(14) 0.2943(10)
O8B O 0.72108(6) -0.42170(7) -0.09908(6)
H9B H 0.7823(13) -0.4394(14) -0.1222(10)
H10B H 0.7380(13) -0.4609(15) -0.0467(12)
O9B O 0.43095(6) -0.53282(7) -0.15989(5)
H11B H 0.4348(13) -0.5715(15) -0.2141(12)
H12B H 0.4593(13) -0.6007(14) -0.1141(10)
Li2B Li 0.54182(15) -0.35379(16) -0.15071(12)
O7_2 O 0.44593(6) 0.01932(6) 0.34698(5)
H7_2 H 0.4448(13) 0.0623(15) 0.2904(12)
H8_2 H 0.4591(13) 0.0901(15) 0.3891(11)
O10_2 O 0.74077(6) -0.08548(7) 0.40793(5)
H13_2 H 0.7824(14) -0.0381(16) 0.3775(11)
H14_2 H 0.8009(15) -0.1387(15) 0.4375(11)
Li1_2 Li 0.55742(15) -0.15015(15) 0.36410(13)
O2_2 O 0.46117(6) 0.84444(6) 0.17258(5)
O4_2 O 0.51836(6) -0.21763(6) 0.49939(5)
O5_2 O 0.45696(5) -0.34472(6) -0.32869(4)
O6_2 O 0.56410(6) -0.35847(6) 0.34558(5)
Li1B Li 0.44258(15) 0.15015(15) -0.36410(13)
Li1B_2 Li 0.44258(15) 0.15015(15) 0.63590(13)
Li2B_2 Li 0.54182(15) 0.64621(16) 0.84929(12)
loop_
_geom_bond_atom_site_label_1
_geom_bond_atom_site_label_2
_geom_bond_site_symmetry_1
_geom_bond_site_symmetry_2
O1 C1 1_555 1_555
O2 C2 1_555 1_555
O3 C3 1_555 1_555
C1 C3 1_555 1_555
C2 C3 1_555 1_555
C4 O2 1_555 1_555
H1 C4 1_555 1_555
H2 C4 1_555 1_555
H3 C4 1_555 1_555
O4 C5 1_555 1_555
O5 C6 1_555 1_555
O6 C7 1_555 1_555
C5 C6 1_555 1_555
C6 C7B 1_555 1_555
C7 C5 1_555 1_555
C8 O5 1_555 1_555
H4 C8 1_555 1_555
H5 C8 1_555 1_555
H6 C8 1_555 1_555
O7 H7 1_555 1_555
H8 O7 1_555 1_555
O8 H9 1_555 1_555
H10 O8 1_555 1_555
O9 H11 1_555 1_555
H12 O9 1_555 1_555
O10 H13 1_555 1_555
H14 O10 1_555 1_555
Li1 O4 1_555 1_555
Li2 O1 1_555 1_555
O1B C1B 1_555 1_555
O2B C2B 1_555 1_555
O3B C3B 1_555 1_555
C1B C2 1_555 1_555
C2B C1 1_555 1_555
C3B C1B 1_555 1_555
C4B O2B 1_555 1_555
H1B C4B 1_555 1_555
H2B C4B 1_555 1_555
H3B C4B 1_555 1_555
O4B C5B 1_555 1_555
O5B Li2 1_555 1_555
O6B C7B 1_555 1_555
C5B C6B 1_555 1_555
C6B C7 1_555 1_555
C7B C5B 1_555 1_555
C8B O5B 1_555 1_555
H4B C8B 1_555 1_555
H5B C8B 1_555 1_555
H6B C8B 1_555 1_555
O8B H9B 1_555 1_555
H10B O8B 1_555 1_555
O9B H11B 1_555 1_555
H12B O9B 1_555 1_555
Li2B O1B 1_555 1_555
O7_2 H7_2 1_555 1_555
H8_2 O7_2 1_555 1_555
O10_2 H13_2 1_555 1_555
H14_2 O10_2 1_555 1_555
Li1_2 O2 1_555 1_555
O2_2 Li1 1_555 1_555
O4_2 Li1_2 1_555 1_555
O5_2 Li2B 1_555 1_555
O6_2 Li1_2 1_555 1_555
Li1B O2B 1_555 1_555
Li1B_2 O4B 1_555 1_555
Li2B_2 O5 1_555 1_555
O3 Li2 1_555 1_555
O6 Li1 1_555 1_555
O7 Li1 1_555 1_555
O8 Li2 1_555 1_555
O9 Li2 1_555 1_555
O10 Li1 1_555 1_555
O3B Li2B 1_555 1_555
C2B C3B 1_555 1_555
O5B C6B 1_555 1_555
O6B Li1B_2 1_555 1_555
O8B Li2B 1_555 1_555
O9B Li2B 1_555 1_555
O7_2 Li1_2 1_555 1_555
O10_2 Li1_2 1_555 1_555

#END
