
#######################################################################
#
#                 Cambridge Crystallographic Data Centre
#                                CCDC 
#
#######################################################################
#
# If this CIF has been generated from an entry in the Cambridge 
# Structural Database, then it will include bibliographic, chemical, 
# crystal, experimental, refinement or atomic coordinate data resulting 
# from the CCDC's data processing and validation procedures.
#
#######################################################################

data_GEBRUC
_symmetry_cell_setting           monoclinic
_symmetry_space_group_name_H-M   'P 21/c'
_symmetry_Int_Tables_number      14
_space_group_name_Hall           '-P 2ybc'
loop_
_symmetry_equiv_pos_site_id
_symmetry_equiv_pos_as_xyz
1 x,y,z
2 -x,1/2+y,1/2-z
3 -x,-y,-z
4 x,1/2-y,1/2+z
_cell_length_a                   9.9740(6)
_cell_length_b                   10.3740(6)
_cell_length_c                   8.0713(5)
_cell_angle_alpha                90
_cell_angle_beta                 91.6650(10)
_cell_angle_gamma                90
_cell_volume                     834.787
loop_
_atom_site_label
_atom_site_type_symbol
_atom_site_fract_x
_atom_site_fract_y
_atom_site_fract_z
Pb1 Pb 0.086055(14) 0.189271(14) 0.592571(17)
C1 C 0.3144(4) -0.0292(4) 0.2467(5)
C2 C 0.3213(4) -0.1147(4) 0.1142(5)
C3 C 0.4402(4) -0.1622(4) 0.0546(5)
H1 H 0.4398 -0.2219 -0.0347
C4 C 0.5601(4) -0.1209(4) 0.1282(5)
C5 C 0.5578(4) -0.0286(4) 0.2542(5)
H2 H 0.6396 0.0046 0.2999
C6 C 0.4373(4) 0.0145(4) 0.3124(5)
H3 H 0.4378 0.0758 0.3998
C7 C 0.1904(4) 0.0188(4) 0.3309(5)
C8 C 0.6916(4) -0.1731(4) 0.0727(5)
N1 N 0.1969(3) -0.1547(3) 0.0274(4)
O1 O 0.0909(3) -0.1489(3) 0.1038(4)
O2 O 0.2026(3) -0.1911(3) -0.1160(4)
O3 O 0.1719(3) -0.0280(3) 0.4727(3)
O4 O 0.1207(3) 0.1079(3) 0.2684(3)
O5 O 0.8001(3) -0.1287(3) 0.1343(3)
O6 O 0.6876(3) -0.2600(3) -0.0379(3)
Pb1C Pb 0.086055(14) 0.310729(14) 0.092571(17)
Pb1B Pb 0.913945(14) -0.189271(14) 0.407429(17)
Pb1A Pb 0.913945(14) -0.310729(14) -0.092571(17)
O4C O 0.1207(3) 0.3921(3) 0.7684(3)
O5B O 0.1999(3) 0.1287(3) 0.8657(3)
O6A O 0.3124(3) 0.2400(3) 0.5379(3)
loop_
_geom_bond_atom_site_label_1
_geom_bond_atom_site_label_2
_geom_bond_site_symmetry_1
_geom_bond_site_symmetry_2
Pb1 O3 1_555 1_555
C1 C2 1_555 1_555
C2 C3 1_555 1_555
C3 H1 1_555 1_555
C4 C3 1_555 1_555
C5 C4 1_555 1_555
H2 C5 1_555 1_555
C6 C1 1_555 1_555
H3 C6 1_555 1_555
C7 C1 1_555 1_555
C8 C4 1_555 1_555
N1 C2 1_555 1_555
O1 N1 1_555 1_555
O2 N1 1_555 1_555
O3 C7 1_555 1_555
O4 C7 1_555 1_555
O5 C8 1_555 1_555
O6 C8 1_555 1_555
Pb1C O4 1_555 1_555
Pb1B O5 1_555 1_555
Pb1A O6 1_555 1_555
O4C Pb1 1_555 1_555
O5B Pb1 1_555 1_555
O6A Pb1 1_555 1_555
C5 C6 1_555 1_555

#END
