
#######################################################################
#
#                 Cambridge Crystallographic Data Centre
#                                CCDC 
#
#######################################################################
#
# If this CIF has been generated from an entry in the Cambridge 
# Structural Database, then it will include bibliographic, chemical, 
# crystal, experimental, refinement or atomic coordinate data resulting 
# from the CCDC's data processing and validation procedures.
#
#######################################################################

data_GEBYUJ
_symmetry_cell_setting           monoclinic
_symmetry_space_group_name_H-M   'P 21/c'
_symmetry_Int_Tables_number      14
_space_group_name_Hall           '-P 2ybc'
loop_
_symmetry_equiv_pos_site_id
_symmetry_equiv_pos_as_xyz
1 x,y,z
2 -x,1/2+y,1/2-z
3 -x,-y,-z
4 x,1/2-y,1/2+z
_cell_length_a                   11.6568(12)
_cell_length_b                   19.834(2)
_cell_length_c                   11.6165(12)
_cell_angle_alpha                90
_cell_angle_beta                 108.671(2)
_cell_angle_gamma                90
_cell_volume                     2544.4
loop_
_atom_site_label
_atom_site_type_symbol
_atom_site_fract_x
_atom_site_fract_y
_atom_site_fract_z
Mn1 Mn 0.68559(4) 0.966232(19) 0.14665(3)
O1 O 0.84212(17) 1.01398(9) 0.29423(17)
H1 H 0.828(2) 1.0311(13) 0.3629(14)
H2 H 0.885(2) 0.9744(7) 0.321(2)
O2 O 0.55392(17) 0.91232(9) 0.01122(17)
O3 O 0.39201(18) 0.93686(10) -0.14352(18)
C1 C 0.4829(3) 0.90206(13) -0.0926(2)
C2 C 0.5060(2) 0.84258(12) -0.1621(2)
C3 C 0.6038(3) 0.80155(14) -0.1113(3)
H3 H 0.6538 0.8097 -0.0324
C4 C 0.6294(4) 0.74809(17) -0.1761(4)
H4 H 0.6965 0.7209 -0.1408
C5 C 0.5568(4) 0.73545(18) -0.2909(4)
H5 H 0.5743 0.6997 -0.3344
C6 C 0.4575(4) 0.7752(2) -0.3432(3)
H6 H 0.4071 0.7659 -0.4215
C7 C 0.4319(3) 0.82972(15) -0.2786(3)
H7 H 0.3652 0.8571 -0.3144
O4 O 0.80226(16) 0.87641(9) 0.18231(16)
O5 O 0.94991(16) 0.89378(9) 0.35664(16)
C8 C 0.9018(3) 0.86133(13) 0.2595(3)
C9 C 0.9700(2) 0.80184(12) 0.2322(2)
C10 C 1.0818(3) 0.78390(15) 0.3108(3)
H8 H 1.1141 0.8070 0.3837
C11 C 1.1461(3) 0.73167(18) 0.2817(4)
H9 H 1.2220 0.7202 0.3347
C12 C 1.0992(4) 0.69688(17) 0.1758(4)
H10 H 1.1426 0.6617 0.1565
C13 C 0.9893(3) 0.71388(17) 0.0994(3)
H11 H 0.9570 0.6900 0.0273
C14 C 0.9238(3) 0.76629(14) 0.1264(3)
H12 H 0.8481 0.7774 0.0725
N1 N 0.5979(2) 0.93489(11) 0.28614(19)
N2 N 0.8211(2) 0.92965(14) 0.6478(2)
H13 H 0.852(2) 0.9064(14) 0.605(3)
N3 N 0.77876(19) 1.00036(12) 1.01282(18)
C15 C 0.6644(2) 0.92340(13) 0.4015(2)
H14 H 0.7481 0.9221 0.4196
C16 C 0.6188(2) 0.91334(13) 0.4957(2)
C17 C 0.4944(3) 0.91422(15) 0.4657(3)
H15 H 0.4586 0.9083 0.5260
C18 C 0.4230(3) 0.92384(17) 0.3472(3)
H16 H 0.3390 0.9230 0.3260
C19 C 0.4785(3) 0.93471(15) 0.2609(3)
H17 H 0.4302 0.9423 0.1811
C20 C 0.6990(3) 0.90219(16) 0.6243(2)
H18 H 0.6622 0.9232 0.6792
H19 H 0.7048 0.8542 0.6411
C21 C 0.8954(2) 0.92225(15) 0.7759(2)
H20 H 0.9802 0.9266 0.7829
H21 H 0.8832 0.8776 0.8040
C22 C 0.8641(2) 0.97407(15) 0.8549(2)
C23 C 0.8922(3) 1.04123(17) 0.8489(3)
H22 H 0.9309 1.0553 0.7944
C24 C 0.8631(3) 1.08758(16) 0.9235(3)
H23 H 0.8808 1.1331 0.9196
C25 C 0.8073(2) 1.06471(16) 1.0036(2)
H24 H 0.7883 1.0959 1.0544
C26 C 0.8081(2) 0.95653(14) 0.9389(2)
H25 H 0.7896 0.9113 0.9446
Mn1B Mn 0.31441(4) 1.033768(19) -0.14665(3)
Mn1_2 Mn 0.68559(4) 0.966232(19) 1.14665(3)
Mn1B_2 Mn 0.31441(4) 1.033768(19) -1.14665(3)
O1B O 0.15788(17) 0.98602(9) -0.29423(17)
H1B H 0.172(2) 0.9689(13) -0.3629(14)
H2B H 0.115(2) 1.0256(7) -0.321(2)
O2B O 0.44608(17) 1.08768(9) -0.01122(17)
O3B O 0.60799(18) 1.06314(10) 0.14352(18)
C1B C 0.5171(3) 1.09794(13) 0.0926(2)
C2B C 0.4940(2) 1.15742(12) 0.1621(2)
C3B C 0.3962(3) 1.19845(14) 0.1113(3)
H3B H 0.3462 1.1903 0.0324
C4B C 0.3706(4) 1.25191(17) 0.1761(4)
H4B H 0.3035 1.2791 0.1408
C5B C 0.4432(4) 1.26455(18) 0.2909(4)
H5B H 0.4257 1.3003 0.3344
C6B C 0.5425(4) 1.2248(2) 0.3432(3)
H6B H 0.5929 1.2341 0.4215
C7B C 0.5681(3) 1.17028(15) 0.2786(3)
H7B H 0.6348 1.1429 0.3144
O4B O 0.19774(16) 1.12359(9) -0.18231(16)
O5B O 0.05009(16) 1.10622(9) -0.35664(16)
C8B C 0.0982(3) 1.13867(13) -0.2595(3)
C9B C 0.0300(2) 1.19816(12) -0.2322(2)
C10B C -0.0818(3) 1.21610(15) -0.3108(3)
H8B H -0.1141 1.1930 -0.3837
C11B C -0.1461(3) 1.26833(18) -0.2817(4)
H9B H -0.2220 1.2798 -0.3347
C12B C -0.0992(4) 1.30312(17) -0.1758(4)
H10B H -0.1426 1.3383 -0.1565
C13B C 0.0107(3) 1.28612(17) -0.0994(3)
H11B H 0.0430 1.3100 -0.0273
C14B C 0.0762(3) 1.23371(14) -0.1264(3)
H12B H 0.1519 1.2226 -0.0725
N1B N 0.4021(2) 1.06511(11) -0.28614(19)
N2B N 0.1789(2) 1.07035(14) -0.6478(2)
H13B H 0.148(2) 1.0936(14) -0.605(3)
N3B N 0.22124(19) 0.99964(12) -1.01282(18)
N3_2 N 0.77876(19) 1.00036(12) 0.01282(18)
N3B_2 N 0.22124(19) 0.99964(12) -0.01282(18)
C15B C 0.3356(2) 1.07660(13) -0.4015(2)
H14B H 0.2519 1.0779 -0.4196
C16B C 0.3812(2) 1.08666(13) -0.4957(2)
C17B C 0.5056(3) 1.08578(15) -0.4657(3)
H15B H 0.5414 1.0917 -0.5260
C18B C 0.5770(3) 1.07616(17) -0.3472(3)
H16B H 0.6610 1.0770 -0.3260
C19B C 0.5215(3) 1.06529(15) -0.2609(3)
H17B H 0.5698 1.0577 -0.1811
C20B C 0.3010(3) 1.09781(16) -0.6243(2)
H18B H 0.3378 1.0768 -0.6792
H19B H 0.2952 1.1458 -0.6411
C21B C 0.1046(2) 1.07775(15) -0.7759(2)
H20B H 0.0198 1.0734 -0.7829
H21B H 0.1168 1.1224 -0.8040
C22B C 0.1359(2) 1.02593(15) -0.8549(2)
C23B C 0.1078(3) 0.95877(17) -0.8489(3)
H22B H 0.0691 0.9447 -0.7944
C24B C 0.1369(3) 0.91242(16) -0.9235(3)
H23B H 0.1192 0.8669 -0.9196
C25B C 0.1927(2) 0.93529(16) -1.0036(2)
H24B H 0.2117 0.9041 -1.0544
C26B C 0.1919(2) 1.04347(14) -0.9389(2)
H25B H 0.2104 1.0887 -0.9446
O6 O 0.18168(18) 0.93851(11) 0.48604(18)
H26 H 0.182(2) 0.9796(8) 0.443(2)
H27 H 0.1061(12) 0.9174(13) 0.443(2)
loop_
_geom_bond_atom_site_label_1
_geom_bond_atom_site_label_2
_geom_bond_site_symmetry_1
_geom_bond_site_symmetry_2
Mn1 O1 1_555 1_555
O1 H1 1_555 1_555
H2 O1 1_555 1_555
O2 Mn1 1_555 1_555
O3 C1 1_555 1_555
C1 O2 1_555 1_555
C2 C1 1_555 1_555
C3 C2 1_555 1_555
H3 C3 1_555 1_555
C4 C3 1_555 1_555
H4 C4 1_555 1_555
C5 C4 1_555 1_555
H5 C5 1_555 1_555
C6 C5 1_555 1_555
H6 C6 1_555 1_555
C7 C2 1_555 1_555
H7 C7 1_555 1_555
O4 Mn1 1_555 1_555
O5 C8 1_555 1_555
C8 O4 1_555 1_555
C9 C8 1_555 1_555
C10 C9 1_555 1_555
H8 C10 1_555 1_555
C11 C10 1_555 1_555
H9 C11 1_555 1_555
C12 C11 1_555 1_555
H10 C12 1_555 1_555
C13 C12 1_555 1_555
H11 C13 1_555 1_555
C14 C9 1_555 1_555
H12 C14 1_555 1_555
N1 Mn1 1_555 1_555
N2 H13 1_555 1_555
N3 C25 1_555 1_555
C15 N1 1_555 1_555
H14 C15 1_555 1_555
C16 C15 1_555 1_555
C17 C16 1_555 1_555
H15 C17 1_555 1_555
C18 C17 1_555 1_555
H16 C18 1_555 1_555
C19 N1 1_555 1_555
H17 C19 1_555 1_555
C20 N2 1_555 1_555
H18 C20 1_555 1_555
H19 C20 1_555 1_555
C21 N2 1_555 1_555
H20 C21 1_555 1_555
H21 C21 1_555 1_555
C22 C21 1_555 1_555
C23 C22 1_555 1_555
H22 C23 1_555 1_555
C24 C23 1_555 1_555
H23 C24 1_555 1_555
C25 C24 1_555 1_555
H24 C25 1_555 1_555
C26 N3 1_555 1_555
H25 C26 1_555 1_555
O6 H26 1_555 1_555
H27 O6 1_555 1_555
Mn1B O3 1_555 1_555
Mn1_2 N3 1_555 1_555
Mn1B_2 N3B 1_555 1_555
O1B Mn1B 1_555 1_555
H1B O1B 1_555 1_555
H2B O1B 1_555 1_555
O2B Mn1B 1_555 1_555
O3B Mn1 1_555 1_555
C1B O2B 1_555 1_555
C2B C1B 1_555 1_555
C3B C2B 1_555 1_555
H3B C3B 1_555 1_555
C4B C3B 1_555 1_555
H4B C4B 1_555 1_555
C5B C4B 1_555 1_555
H5B C5B 1_555 1_555
C6B C5B 1_555 1_555
H6B C6B 1_555 1_555
C7B C2B 1_555 1_555
H7B C7B 1_555 1_555
O4B Mn1B 1_555 1_555
O5B C8B 1_555 1_555
C8B O4B 1_555 1_555
C9B C8B 1_555 1_555
C10B C9B 1_555 1_555
H8B C10B 1_555 1_555
C11B C10B 1_555 1_555
H9B C11B 1_555 1_555
C12B C11B 1_555 1_555
H10B C12B 1_555 1_555
C13B C12B 1_555 1_555
H11B C13B 1_555 1_555
C14B C9B 1_555 1_555
H12B C14B 1_555 1_555
N1B Mn1B 1_555 1_555
N2B H13B 1_555 1_555
N3B C25B 1_555 1_555
N3_2 Mn1 1_555 1_555
N3B_2 Mn1B 1_555 1_555
C15B N1B 1_555 1_555
H14B C15B 1_555 1_555
C16B C15B 1_555 1_555
C17B C16B 1_555 1_555
H15B C17B 1_555 1_555
C18B C17B 1_555 1_555
H16B C18B 1_555 1_555
C19B N1B 1_555 1_555
H17B C19B 1_555 1_555
C20B N2B 1_555 1_555
H18B C20B 1_555 1_555
H19B C20B 1_555 1_555
C21B N2B 1_555 1_555
H20B C21B 1_555 1_555
H21B C21B 1_555 1_555
C22B C21B 1_555 1_555
C23B C22B 1_555 1_555
H22B C23B 1_555 1_555
C24B C23B 1_555 1_555
H23B C24B 1_555 1_555
C25B C24B 1_555 1_555
H24B C25B 1_555 1_555
C26B N3B 1_555 1_555
H25B C26B 1_555 1_555
C6 C7 1_555 1_555
C13 C14 1_555 1_555
C16 C20 1_555 1_555
C18 C19 1_555 1_555
C22 C26 1_555 1_555
O3B C1B 1_555 1_555
C6B C7B 1_555 1_555
C13B C14B 1_555 1_555
C16B C20B 1_555 1_555
C18B C19B 1_555 1_555
C22B C26B 1_555 1_555

#END
