
#######################################################################
#
#                 Cambridge Crystallographic Data Centre
#                                CCDC 
#
#######################################################################
#
# If this CIF has been generated from an entry in the Cambridge 
# Structural Database, then it will include bibliographic, chemical, 
# crystal, experimental, refinement or atomic coordinate data resulting 
# from the CCDC's data processing and validation procedures.
#
#######################################################################

data_GECCIC
_symmetry_cell_setting           monoclinic
_symmetry_space_group_name_H-M   'P 21/n'
_symmetry_Int_Tables_number      14
_space_group_name_Hall           '-P 2yn'
loop_
_symmetry_equiv_pos_site_id
_symmetry_equiv_pos_as_xyz
1 x,y,z
2 1/2-x,1/2+y,1/2-z
3 -x,-y,-z
4 1/2+x,1/2-y,1/2+z
_cell_length_a                   19.424(5)
_cell_length_b                   8.505(2)
_cell_length_c                   26.331(7)
_cell_angle_alpha                90
_cell_angle_beta                 109.922(4)
_cell_angle_gamma                90
_cell_volume                     4089.6
loop_
_atom_site_label
_atom_site_type_symbol
_atom_site_fract_x
_atom_site_fract_y
_atom_site_fract_z
Ag1 Ag 0.71403(3) 0.27746(6) 0.534719(18)
Ag2 Ag 0.74809(4) -0.00601(6) 1.04504(2)
C2 C 0.5561(3) 0.3237(7) 0.4707(2)
C3 C 0.4756(3) 0.3656(8) 0.4403(3)
H4 H 0.4499 0.3795 0.4666
H5 H 0.4732 0.4665 0.4210
C4 C 0.4370(4) 0.2385(8) 0.3997(3)
H6 H 0.4364 0.1399 0.4196
H7 H 0.3856 0.2707 0.3812
C5 C 0.4719(4) 0.2062(11) 0.3579(3)
H8 H 0.5238 0.1775 0.3766
H9 H 0.4711 0.3041 0.3374
C6 C 0.4355(6) 0.0764(14) 0.3182(3)
H10 H 0.4394 -0.0211 0.3395
H11 H 0.3828 0.1026 0.3029
C7 C 0.4600(11) 0.036(3) 0.2711(7)
H12 H 0.4329 -0.0596 0.2537
H13 H 0.4443 0.1222 0.2445
C8 C 0.5388(10) 0.007(3) 0.2816(9)
H14 H 0.5668 0.0997 0.3006
H15 H 0.5545 -0.0843 0.3061
C9 C 0.5573(11) -0.022(2) 0.2334(8)
H16 H 0.6111 -0.0365 0.2464
H17 H 0.5477 0.0781 0.2131
C10 C 0.5270(9) -0.1504(16) 0.1908(5)
C11 C 0.6510(3) 0.3377(8) 0.6247(2)
H18 H 0.6121 0.2784 0.6005
C12 C 0.6429(3) 0.3966(8) 0.6709(2)
H19 H 0.5989 0.3775 0.6781
C13 C 0.6979(4) 0.4828(7) 0.7068(2)
C14 C 0.7613(4) 0.5027(7) 0.6944(3)
H20 H 0.8015 0.5592 0.7184
C15 C 0.7658(3) 0.4407(8) 0.6476(2)
H21 H 0.8098 0.4558 0.6400
C16 C 0.6904(4) 0.5508(8) 0.7576(2)
H22 H 0.6412 0.5983 0.7490
H23 H 0.7272 0.6351 0.7715
C17 C 0.7012(4) 0.4245(7) 0.8012(2)
H24 H 0.6634 0.3418 0.7876
H25 H 0.7498 0.3749 0.8091
C18 C 0.6919(5) 0.0798(12) 0.4370(3)
H26 H 0.6439 0.1196 0.4298
C19 C 0.7056(10) -0.0348(15) 0.4028(4)
H27 H 0.6653 -0.0729 0.3735
C20 C 0.7712(12) -0.0922(10) 0.4092(5)
C21 C 0.8260(8) -0.0344(12) 0.4524(5)
H28 H 0.8747 -0.0703 0.4594
C22 C 0.8121(5) 0.0762(10) 0.4863(3)
H29 H 0.8519 0.1135 0.5162
C23 C 0.7835(15) -0.2126(12) 0.3724(5)
H30 H 0.7480 -0.2992 0.3683
H31 H 0.8333 -0.2569 0.3891
C24 C 0.7884(4) 0.2344(9) 0.9739(3)
H32 H 0.8360 0.2206 0.9997
C25 C 0.7775(4) 0.3502(8) 0.9340(3)
H33 H 0.8175 0.4128 0.9329
C26 C 0.7098(4) 0.3724(7) 0.8971(2)
C27 C 0.6540(4) 0.2766(8) 0.9001(3)
H34 H 0.6061 0.2882 0.8745
C28 C 0.6672(4) 0.1654(9) 0.9395(3)
H35 H 0.6278 0.1013 0.9408
C29 C 0.6957(5) 0.4941(7) 0.8529(3)
H36 H 0.7318 0.5803 0.8654
H37 H 0.6463 0.5394 0.8453
C30 C 0.8255(4) -0.1074(10) 0.1625(3)
H38 H 0.8675 -0.0679 0.1560
C31 C 0.8329(6) -0.1598(11) 0.2134(3)
H39 H 0.8789 -0.1532 0.2416
C32 C 0.7737(7) -0.2217(8) 0.2236(4)
C33 C 0.7092(6) -0.2261(9) 0.1818(4)
H40 H 0.6669 -0.2681 0.1872
C34 C 0.7046(5) -0.1710(8) 0.1322(4)
H41 H 0.6588 -0.1763 0.1037
C35 C 0.7808(11) -0.2806(9) 0.2794(4)
H42 H 0.8284 -0.3351 0.2953
H43 H 0.7415 -0.3581 0.2763
C36 C 0.7759(7) -0.1497(9) 0.3169(3)
H44 H 0.8151 -0.0719 0.3203
H45 H 0.7282 -0.0955 0.3015
N1 N 0.7119(3) 0.3609(6) 0.61223(19)
N2 N 0.7467(3) 0.1313(6) 0.4792(2)
N3 N 0.7341(3) 0.1428(6) 0.9768(2)
N4 N 0.7619(3) -0.1097(7) 0.1219(2)
O3 O 0.6046(2) 0.4108(5) 0.46543(19)
O5 O 0.5695(2) 0.2006(5) 0.49893(18)
O8 O 0.5281(7) -0.2934(14) 0.1994(5)
O10 O 0.5119(5) -0.1018(11) 0.1425(4)
Ag1A Ag 0.78597(3) -0.22254(6) 0.965281(18)
Ag2A Ag 0.75191(4) 0.49399(6) 0.45496(2)
Ag2_2 Ag 0.74809(4) -0.00601(6) 0.04504(2)
N4_2 N 0.7619(3) -0.1097(7) 1.1219(2)
C1 C 0.9047(6) 0.5705(17) 0.4724(5)
H1 H 0.9399 0.6315 0.5012
H2 H 0.8561 0.6188 0.4629
H3 H 0.9200 0.5691 0.4406
O1 O 0.9017(6) 0.4060(14) 0.4914(4)
H46 H 0.9091 0.3783 0.5239
O2 O 0.5076(8) -0.2797(16) 0.0543(6)
O4 O 0.4953(10) -1.4610(19) -0.1202(7)
O6 O 0.4209(9) -1.173(2) -0.1171(7)
O7 O 0.5773(13) -1.1799(16) -0.1020(6)
O9 O -0.0385(3) 0.3834(6) 0.0426(2)
H47 H -0.0499 0.4769 0.0316
H48 H -0.0056 0.3514 0.0305
O11 O 0.0746(3) -0.1557(6) -0.1080(2)
H49 H 0.0846 -0.0752 -0.0876
H50 H 0.0630 -0.2301 -0.0909
O12 O 0.0008(4) -0.0538(11) -0.2153(3)
H51 H 0.0121 -0.1051 -0.2390
H52 H 0.0251 -0.0905 -0.1844
loop_
_geom_bond_atom_site_label_1
_geom_bond_atom_site_label_2
_geom_bond_site_symmetry_1
_geom_bond_site_symmetry_2
Ag1 N1 1_555 1_555
Ag2 N3 1_555 1_555
C1 H1 1_555 1_555
H2 C1 1_555 1_555
H3 C1 1_555 1_555
C2 C3 1_555 1_555
C3 H4 1_555 1_555
H5 C3 1_555 1_555
C4 C3 1_555 1_555
H6 C4 1_555 1_555
H7 C4 1_555 1_555
C5 C4 1_555 1_555
H8 C5 1_555 1_555
H9 C5 1_555 1_555
C6 C5 1_555 1_555
H10 C6 1_555 1_555
H11 C6 1_555 1_555
C7 C6 1_555 1_555
H12 C7 1_555 1_555
H13 C7 1_555 1_555
C8 C7 1_555 1_555
H14 C8 1_555 1_555
H15 C8 1_555 1_555
C9 C8 1_555 1_555
H16 C9 1_555 1_555
H17 C9 1_555 1_555
C10 C9 1_555 1_555
C11 H18 1_555 1_555
C12 C11 1_555 1_555
H19 C12 1_555 1_555
C13 C12 1_555 1_555
C14 C13 1_555 1_555
H20 C14 1_555 1_555
C15 C14 1_555 1_555
H21 C15 1_555 1_555
C16 C13 1_555 1_555
H22 C16 1_555 1_555
H23 C16 1_555 1_555
C17 C16 1_555 1_555
H24 C17 1_555 1_555
H25 C17 1_555 1_555
C18 H26 1_555 1_555
C19 C18 1_555 1_555
H27 C19 1_555 1_555
C20 C19 1_555 1_555
C21 C20 1_555 1_555
H28 C21 1_555 1_555
C22 C21 1_555 1_555
H29 C22 1_555 1_555
C23 C20 1_555 1_555
H30 C23 1_555 1_555
H31 C23 1_555 1_555
C24 H32 1_555 1_555
C25 C24 1_555 1_555
H33 C25 1_555 1_555
C26 C25 1_555 1_555
C27 C26 1_555 1_555
H34 C27 1_555 1_555
C28 C27 1_555 1_555
H35 C28 1_555 1_555
C29 C17 1_555 1_555
H36 C29 1_555 1_555
H37 C29 1_555 1_555
C30 H38 1_555 1_555
C31 C30 1_555 1_555
H39 C31 1_555 1_555
C32 C31 1_555 1_555
C33 C32 1_555 1_555
H40 C33 1_555 1_555
C34 C33 1_555 1_555
H41 C34 1_555 1_555
C35 C32 1_555 1_555
H42 C35 1_555 1_555
H43 C35 1_555 1_555
C36 C23 1_555 1_555
H44 C36 1_555 1_555
H45 C36 1_555 1_555
N1 C11 1_555 1_555
N2 Ag1 1_555 1_555
N3 C24 1_555 1_555
N4 C30 1_555 1_555
O1 C1 1_555 1_555
H46 O1 1_555 1_555
O3 Ag1 1_555 1_555
O5 Ag1 1_555 1_555
O8 C10 1_555 1_555
O9 H47 1_555 1_555
H48 O9 1_555 1_555
O10 C10 1_555 1_555
O11 H49 1_555 1_555
H50 O11 1_555 1_555
O12 H51 1_555 1_555
H52 O12 1_555 1_555
Ag1A Ag2 1_555 1_555
Ag2A Ag1 1_555 1_555
Ag2_2 N4 1_555 1_555
N4_2 Ag2 1_555 1_555
C2 O3 1_555 1_555
C2 O5 1_555 1_555
C15 N1 1_555 1_555
C18 N2 1_555 1_555
C22 N2 1_555 1_555
C26 C29 1_555 1_555
C28 N3 1_555 1_555
C34 N4 1_555 1_555
C35 C36 1_555 1_555

#END
