
#######################################################################
#
#                 Cambridge Crystallographic Data Centre
#                                CCDC 
#
#######################################################################
#
# If this CIF has been generated from an entry in the Cambridge 
# Structural Database, then it will include bibliographic, chemical, 
# crystal, experimental, refinement or atomic coordinate data resulting 
# from the CCDC's data processing and validation procedures.
#
#######################################################################

data_GECFUR
_symmetry_cell_setting           monoclinic
_symmetry_space_group_name_H-M   'P 21/n'
_symmetry_Int_Tables_number      14
_space_group_name_Hall           '-P 2yn'
loop_
_symmetry_equiv_pos_site_id
_symmetry_equiv_pos_as_xyz
1 x,y,z
2 1/2-x,1/2+y,1/2-z
3 -x,-y,-z
4 1/2+x,1/2-y,1/2+z
_cell_length_a                   9.2034(4)
_cell_length_b                   25.4652(11)
_cell_length_c                   16.9925(7)
_cell_angle_alpha                90
_cell_angle_beta                 95.5490(10)
_cell_angle_gamma                90
_cell_volume                     3963.81
loop_
_atom_site_label
_atom_site_type_symbol
_atom_site_fract_x
_atom_site_fract_y
_atom_site_fract_z
C1 C 0.6385(8) 0.2008(2) 0.3764(5)
C2 C 0.5432(8) 0.2407(3) 0.3500(5)
C3 C 0.4902(10) 0.2452(3) 0.2742(7)
H1 H 0.4250 0.2719 0.2580
C4 C 0.5349(12) 0.2094(4) 0.2207(6)
C5 C 0.6277(12) 0.1683(4) 0.2446(6)
H2 H 0.6537 0.1436 0.2082
C6 C 0.6817(11) 0.1646(3) 0.3243(5)
H3 H 0.7460 0.1379 0.3414
C7 C 0.8026(8) 0.1692(2) 0.4841(4)
H4 H 0.8455 0.1837 0.5338
H5 H 0.8755 0.1713 0.4466
C8 C 0.7673(6) 0.1122(2) 0.4967(3)
C19 C 1.1795(9) -0.0008(3) 0.8137(4)
C20 C 1.2770(8) -0.0050(3) 0.8812(4)
C21 C 1.3346(9) 0.0381(4) 0.9208(4)
H14 H 1.4035 0.0344 0.9643
C22 C 1.2884(9) 0.0873(4) 0.8950(5)
C23 C 1.1848(9) 0.0927(3) 0.8314(5)
H15 H 1.1493 0.1259 0.8169
C24 C 1.1336(9) 0.0492(3) 0.7893(4)
H16 H 1.0682 0.0532 0.7445
C25 C 1.0161(7) -0.0432(3) 0.7154(4)
H17 H 0.9451 -0.0182 0.7313
H18 H 0.9688 -0.0773 0.7106
C26 C 1.0595(6) -0.0273(2) 0.6350(3)
C27 C 0.6391(7) 0.0252(3) 0.8106(4)
C28 C 0.6110(8) -0.0273(3) 0.8015(4)
H19 H 0.5327 -0.0384 0.7668
C29 C 0.6990(8) -0.0643(3) 0.8440(4)
H20 H 0.6789 -0.0999 0.8382
C30 C 0.8149(8) -0.0475(3) 0.8941(4)
C31 C 0.8421(9) 0.0050(3) 0.9062(5)
H21 H 0.9197 0.0162 0.9413
C32 C 0.7512(8) 0.0412(3) 0.8647(4)
C33 C 0.4707(7) 0.0507(3) 0.7017(4)
H22 H 0.4100 0.0806 0.6852
H23 H 0.4065 0.0223 0.7143
C34 C 0.5521(6) 0.0340(2) 0.6345(3)
Cl1 Cl 0.4912(3) 0.28631(8) 0.41752(17)
Cl2 Cl 0.4671(5) 0.21329(14) 0.12169(19)
Cl3 Cl 1.3297(2) -0.06667(9) 0.91659(11)
Cl4 Cl 1.3605(3) 0.14236(11) 0.94450(17)
Cl5 Cl 0.7844(3) 0.10726(8) 0.87995(12)
Cl6 Cl 0.9308(3) -0.09337(10) 0.94319(13)
Eu1 Eu 0.73895(3) -0.000011(9) 0.508638(15)
O1 O 0.8714(4) 0.08468(15) 0.5277(2)
O2 O 0.6442(4) 0.09335(15) 0.4776(3)
O3 O 0.6809(6) 0.20073(17) 0.4559(3)
O4 O 0.9555(5) -0.01924(18) 0.5836(2)
O5 O 1.1911(4) -0.02633(17) 0.6219(2)
O6 O 1.1345(6) -0.0461(2) 0.7764(3)
O7 O 0.4774(4) 0.01923(17) 0.5726(2)
O8 O 0.6883(4) 0.03540(17) 0.6397(2)
O9 O 0.5607(5) 0.06445(19) 0.7711(2)
O10 O 0.8335(5) -0.07757(16) 0.4491(3)
H24 H 0.9247(14) -0.080(2) 0.457(5)
H25 H 0.794(6) -0.1065(13) 0.436(5)
O11 O 0.6452(5) -0.07671(16) 0.5734(3)
H26 H 0.5561(19) -0.082(2) 0.577(4)
H27 H 0.693(5) -0.1048(13) 0.574(5)
C1B C 0.3615(8) -0.2008(2) 0.6236(5)
C2B C 0.4568(8) -0.2407(3) 0.6500(5)
C3B C 0.5098(10) -0.2452(3) 0.7258(7)
H1B H 0.5750 -0.2719 0.7420
C4B C 0.4651(12) -0.2094(4) 0.7793(6)
C5B C 0.3723(12) -0.1683(4) 0.7554(6)
H2B H 0.3463 -0.1436 0.7918
C6B C 0.3183(11) -0.1646(3) 0.6757(5)
H3B H 0.2540 -0.1379 0.6586
C7B C 0.1974(8) -0.1692(2) 0.5159(4)
H4B H 0.1545 -0.1837 0.4662
H5B H 0.1245 -0.1713 0.5534
C8B C 0.2327(6) -0.1122(2) 0.5033(3)
C19B C -0.1795(9) 0.0008(3) 0.1863(4)
C20B C -0.2770(8) 0.0050(3) 0.1188(4)
C21B C -0.3346(9) -0.0381(4) 0.0792(4)
H14B H -0.4035 -0.0344 0.0357
C22B C -0.2884(9) -0.0873(4) 0.1050(5)
C23B C -0.1848(9) -0.0927(3) 0.1686(5)
H15B H -0.1493 -0.1259 0.1831
C24B C -0.1336(9) -0.0492(3) 0.2107(4)
H16B H -0.0682 -0.0532 0.2555
C25B C -0.0161(7) 0.0432(3) 0.2846(4)
H17B H 0.0549 0.0182 0.2687
H18B H 0.0312 0.0773 0.2894
C26B C -0.0595(6) 0.0273(2) 0.3650(3)
C27B C 0.3609(7) -0.0252(3) 0.1894(4)
C28B C 0.3890(8) 0.0273(3) 0.1985(4)
H19B H 0.4673 0.0384 0.2332
C29B C 0.3010(8) 0.0643(3) 0.1560(4)
H20B H 0.3211 0.0999 0.1618
C30B C 0.1851(8) 0.0475(3) 0.1059(4)
C31B C 0.1579(9) -0.0050(3) 0.0938(5)
H21B H 0.0803 -0.0162 0.0587
C32B C 0.2488(8) -0.0412(3) 0.1353(4)
C33B C 0.5293(7) -0.0507(3) 0.2983(4)
H22B H 0.5900 -0.0806 0.3148
H23B H 0.5935 -0.0223 0.2857
C34B C 0.4479(6) -0.0340(2) 0.3655(3)
Cl1B Cl 0.5088(3) -0.28631(8) 0.58248(17)
Cl2B Cl 0.5329(5) -0.21329(14) 0.87831(19)
Cl3B Cl -0.3297(2) 0.06667(9) 0.08341(11)
Cl4B Cl -0.3605(3) -0.14236(11) 0.05550(17)
Cl5B Cl 0.2156(3) -0.10726(8) 0.12005(12)
Cl6B Cl 0.0692(3) 0.09337(10) 0.05681(13)
Eu1B Eu 0.26105(3) 0.000011(9) 0.491362(15)
Eu1_2 Eu -0.26105(3) -0.000011(9) 0.508638(15)
Eu1B_2 Eu 1.26105(3) 0.000011(9) 0.491362(15)
O1B O 0.1286(4) -0.08468(15) 0.4723(2)
O2B O 0.3558(4) -0.09335(15) 0.5224(3)
O3B O 0.3191(6) -0.20073(17) 0.5441(3)
O4B O 0.0445(5) 0.01924(18) 0.4164(2)
O5B O -0.1911(4) 0.02633(17) 0.3781(2)
O5_2 O 0.1911(4) -0.02633(17) 0.6219(2)
O5B_2 O 0.8089(4) 0.02633(17) 0.3781(2)
O6B O -0.1345(6) 0.0461(2) 0.2236(3)
O7B O 0.5226(4) -0.01923(17) 0.4274(2)
O8B O 0.3117(4) -0.03540(17) 0.3603(2)
O9B O 0.4393(5) -0.06445(19) 0.2289(2)
O10B O 0.1665(5) 0.07757(16) 0.5509(3)
H24B H 0.0753(14) 0.080(2) 0.543(5)
H25B H 0.206(6) 0.1065(13) 0.564(5)
O11B O 0.3548(5) 0.07671(16) 0.4266(3)
H26B H 0.4439(19) 0.082(2) 0.423(4)
H27B H 0.307(5) 0.1048(13) 0.426(5)
C9 C -0.0713(9) 0.3112(3) 0.0833(4)
H6 H -0.0394 0.3184 0.0342
C10 C 0.0155(8) 0.2804(3) 0.1360(5)
H7 H 0.1035 0.2674 0.1215
C11 C -0.0257(7) 0.2690(3) 0.2082(4)
C12 C -0.1597(7) 0.2900(3) 0.2264(4)
H8 H -0.1926 0.2840 0.2757
C13 C -0.2417(8) 0.3194(3) 0.1706(5)
H9 H -0.3318 0.3320 0.1826
C14 C 0.0610(7) 0.2354(3) 0.2672(4)
C15 C 0.0750(9) 0.2472(3) 0.3481(4)
H10 H 0.0327 0.2774 0.3665
C16 C 0.1519(8) 0.2138(3) 0.3998(4)
H11 H 0.1571 0.2216 0.4535
C17 C 0.2094(9) 0.1613(3) 0.3006(5)
H12 H 0.2586 0.1321 0.2837
C18 C 0.1313(8) 0.1916(3) 0.2433(4)
H13 H 0.1267 0.1824 0.1902
N1 N -0.1978(7) 0.3306(2) 0.1000(4)
N2 N 0.2193(6) 0.1708(2) 0.3779(4)
O12 O 0.8664(11) 0.1349(3) 0.6920(4)
H28 H 0.872(11) 0.128(4) 0.7406(14)
H29 H 0.823(14) 0.111(3) 0.665(5)
loop_
_geom_bond_atom_site_label_1
_geom_bond_atom_site_label_2
_geom_bond_site_symmetry_1
_geom_bond_site_symmetry_2
C1 C2 1_555 1_555
C2 C3 1_555 1_555
C3 H1 1_555 1_555
C4 C3 1_555 1_555
C5 C4 1_555 1_555
H2 C5 1_555 1_555
C6 C1 1_555 1_555
H3 C6 1_555 1_555
C7 H4 1_555 1_555
H5 C7 1_555 1_555
C8 C7 1_555 1_555
C9 H6 1_555 1_555
C10 C9 1_555 1_555
H7 C10 1_555 1_555
C11 C10 1_555 1_555
C12 C11 1_555 1_555
H8 C12 1_555 1_555
C13 C12 1_555 1_555
H9 C13 1_555 1_555
C14 C11 1_555 1_555
C15 C14 1_555 1_555
H10 C15 1_555 1_555
C16 C15 1_555 1_555
H11 C16 1_555 1_555
C17 H12 1_555 1_555
C18 C14 1_555 1_555
H13 C18 1_555 1_555
C19 C20 1_555 1_555
C20 C21 1_555 1_555
C21 H14 1_555 1_555
C22 C21 1_555 1_555
C23 C22 1_555 1_555
H15 C23 1_555 1_555
C24 C19 1_555 1_555
H16 C24 1_555 1_555
C25 H17 1_555 1_555
H18 C25 1_555 1_555
C26 C25 1_555 1_555
C27 C28 1_555 1_555
C28 H19 1_555 1_555
C29 C28 1_555 1_555
H20 C29 1_555 1_555
C30 C29 1_555 1_555
C31 C30 1_555 1_555
H21 C31 1_555 1_555
C32 C27 1_555 1_555
C33 H22 1_555 1_555
H23 C33 1_555 1_555
C34 C33 1_555 1_555
Cl1 C2 1_555 1_555
Cl2 C4 1_555 1_555
Cl3 C20 1_555 1_555
Cl4 C22 1_555 1_555
Cl5 C32 1_555 1_555
Cl6 C30 1_555 1_555
Eu1 O1 1_555 1_555
N1 C9 1_555 1_555
N2 C16 1_555 1_555
O1 C8 1_555 1_555
O2 C8 1_555 1_555
O3 C1 1_555 1_555
O4 C26 1_555 1_555
O5 C26 1_555 1_555
O6 C19 1_555 1_555
O7 C34 1_555 1_555
O8 C34 1_555 1_555
O9 C27 1_555 1_555
O10 Eu1 1_555 1_555
H24 O10 1_555 1_555
H25 O10 1_555 1_555
O11 Eu1 1_555 1_555
H26 O11 1_555 1_555
H27 O11 1_555 1_555
O12 H28 1_555 1_555
H29 O12 1_555 1_555
C1B C2B 1_555 1_555
C2B C3B 1_555 1_555
C3B H1B 1_555 1_555
C4B C3B 1_555 1_555
C5B C4B 1_555 1_555
H2B C5B 1_555 1_555
C6B C1B 1_555 1_555
H3B C6B 1_555 1_555
C7B H4B 1_555 1_555
H5B C7B 1_555 1_555
C8B C7B 1_555 1_555
C19B C20B 1_555 1_555
C20B C21B 1_555 1_555
C21B H14B 1_555 1_555
C22B C21B 1_555 1_555
C23B C22B 1_555 1_555
H15B C23B 1_555 1_555
C24B C19B 1_555 1_555
H16B C24B 1_555 1_555
C25B H17B 1_555 1_555
H18B C25B 1_555 1_555
C26B C25B 1_555 1_555
C27B C28B 1_555 1_555
C28B H19B 1_555 1_555
C29B C28B 1_555 1_555
H20B C29B 1_555 1_555
C30B C29B 1_555 1_555
C31B C30B 1_555 1_555
H21B C31B 1_555 1_555
C32B C27B 1_555 1_555
C33B H22B 1_555 1_555
H23B C33B 1_555 1_555
C34B C33B 1_555 1_555
Cl1B C2B 1_555 1_555
Cl2B C4B 1_555 1_555
Cl3B C20B 1_555 1_555
Cl4B C22B 1_555 1_555
Cl5B C32B 1_555 1_555
Cl6B C30B 1_555 1_555
Eu1B O7 1_555 1_555
Eu1_2 O5B 1_555 1_555
Eu1B_2 O5 1_555 1_555
O1B C8B 1_555 1_555
O2B C8B 1_555 1_555
O3B C1B 1_555 1_555
O4B C26B 1_555 1_555
O5B C26B 1_555 1_555
O5_2 Eu1B 1_555 1_555
O5B_2 Eu1 1_555 1_555
O6B C19B 1_555 1_555
O7B Eu1 1_555 1_555
O8B C34B 1_555 1_555
O9B C27B 1_555 1_555
O10B Eu1B 1_555 1_555
H24B O10B 1_555 1_555
H25B O10B 1_555 1_555
O11B Eu1B 1_555 1_555
H26B O11B 1_555 1_555
H27B O11B 1_555 1_555
C5 C6 1_555 1_555
C7 O3 1_555 1_555
C13 N1 1_555 1_555
C17 C18 1_555 1_555
C17 N2 1_555 1_555
C23 C24 1_555 1_555
C25 O6 1_555 1_555
C31 C32 1_555 1_555
C33 O9 1_555 1_555
Eu1 O2 1_555 1_555
Eu1 O4 1_555 1_555
Eu1 O7 1_555 1_555
Eu1 O8 1_555 1_555
C5B C6B 1_555 1_555
C7B O3B 1_555 1_555
C23B C24B 1_555 1_555
C25B O6B 1_555 1_555
C31B C32B 1_555 1_555
C33B O9B 1_555 1_555
C34B O7B 1_555 1_555
Eu1B O1B 1_555 1_555
Eu1B O2B 1_555 1_555
Eu1B O4B 1_555 1_555
Eu1B O7B 1_555 1_555
Eu1B O8B 1_555 1_555

#END
