
#######################################################################
#
#                 Cambridge Crystallographic Data Centre
#                                CCDC 
#
#######################################################################
#
# If this CIF has been generated from an entry in the Cambridge 
# Structural Database, then it will include bibliographic, chemical, 
# crystal, experimental, refinement or atomic coordinate data resulting 
# from the CCDC's data processing and validation procedures.
#
#######################################################################

data_GECGAY
_symmetry_cell_setting           triclinic
_symmetry_space_group_name_H-M   'P -1'
_symmetry_Int_Tables_number      2
_space_group_name_Hall           '-P 1'
loop_
_symmetry_equiv_pos_site_id
_symmetry_equiv_pos_as_xyz
1 x,y,z
2 -x,-y,-z
_cell_length_a                   8.4427(7)
_cell_length_b                   16.0912(14)
_cell_length_c                   17.4500(15)
_cell_angle_alpha                72.548(2)
_cell_angle_beta                 82.930(2)
_cell_angle_gamma                88.411(2)
_cell_volume                     2244.21
loop_
_atom_site_label
_atom_site_type_symbol
_atom_site_fract_x
_atom_site_fract_y
_atom_site_fract_z
C1 C 0.6609(5) -0.0194(3) 0.6996(3)
C2 C 0.7697(5) -0.0228(3) 0.6348(3)
C3 C 0.8006(7) -0.0993(4) 0.6167(4)
H1 H 0.8733 -0.1011 0.5727
C4 C 0.7207(7) -0.1738(4) 0.6659(4)
C5 C 0.6172(7) -0.1732(3) 0.7317(4)
H2 H 0.5672 -0.2245 0.7647
C6 C 0.5871(6) -0.0958(3) 0.7488(3)
H3 H 0.5165 -0.0948 0.7938
C7 C 0.5214(5) 0.0659(3) 0.7769(2)
H4 H 0.4276 0.0305 0.7811
H5 H 0.4875 0.1257 0.7687
C8 C 0.5963(5) 0.0347(2) 0.8545(2)
C9 C 0.7413(6) 0.3432(3) 0.7202(3)
C10 C 0.6742(7) 0.4179(3) 0.6720(4)
C11 C 0.6175(8) 0.4183(4) 0.6012(4)
H6 H 0.5781 0.4695 0.5684
C12 C 0.6192(7) 0.3446(4) 0.5793(4)
C13 C 0.6827(8) 0.2697(3) 0.6261(4)
H7 H 0.6868 0.2195 0.6099
C14 C 0.7404(7) 0.2690(3) 0.6969(4)
H8 H 0.7793 0.2174 0.7293
C15 C 0.8551(6) 0.2719(3) 0.8421(3)
H9 H 0.9222 0.2881 0.8767
H10 H 0.9208 0.2409 0.8102
C16 C 0.7219(5) 0.2111(3) 0.8950(3)
C17 C 0.8027(5) 0.2425(3) 1.1674(3)
C18 C 0.7693(6) 0.2921(4) 1.2210(4)
C19 C 0.6772(7) 0.3662(4) 1.2006(4)
H11 H 0.6561 0.3991 1.2362
C20 C 0.6174(8) 0.3907(4) 1.1281(5)
C21 C 0.6481(8) 0.3438(4) 1.0739(4)
H12 H 0.6078 0.3614 1.0243
C22 C 0.7407(7) 0.2694(3) 1.0949(3)
H13 H 0.7612 0.2370 1.0588
C23 C 0.9871(6) 0.1383(3) 1.1354(3)
H14 H 1.0766 0.1074 1.1606
H15 H 1.0300 0.1879 1.0912
C24 C 0.9038(5) 0.0787(2) 1.1006(2)
Cl1 Cl 0.86459(17) 0.07247(9) 0.57384(8)
Cl2 Cl 0.7525(3) -0.27055(12) 0.63944(16)
Cl3 Cl 0.6740(4) 0.51288(11) 0.69825(13)
Cl4 Cl 0.5468(3) 0.34562(13) 0.48954(11)
Cl5 Cl 0.8476(3) 0.26220(14) 1.31167(13)
Cl6 Cl 0.5038(3) 0.48474(13) 1.10557(15)
O1 O 0.7406(3) 0.0171(2) 0.85438(17)
O2 O 0.5084(3) 0.02962(17) 0.92060(15)
O3 O 0.6299(4) 0.06085(18) 0.70939(17)
O4 O 0.5836(4) 0.2325(2) 0.8911(2)
O5 O 0.7728(4) 0.14285(19) 0.9417(2)
O6 O 0.7961(5) 0.3497(2) 0.7885(2)
O7 O 0.9930(3) 0.04577(17) 1.05264(16)
O8 O 0.7581(3) 0.06514(18) 1.11479(18)
O9 O 0.8902(5) 0.1699(2) 1.1936(2)
O10 O 0.8180(4) -0.12044(19) 1.11841(18)
H28 H 0.878(4) -0.110(3) 1.149(2)
H29 H 0.762(5) -0.165(2) 1.142(2)
O11 O 0.6480(4) -0.14447(18) 0.9936(2)
H30 H 0.570(3) -0.170(2) 1.026(2)
H31 H 0.710(4) -0.179(2) 0.978(3)
Eu1 Eu 0.75144(2) -0.008169(12) 1.003421(12)
C1A C 0.3391(5) 0.0194(3) 1.3004(3)
C2A C 0.2303(5) 0.0228(3) 1.3652(3)
C3A C 0.1994(7) 0.0993(4) 1.3833(4)
H1A H 0.1267 0.1011 1.4273
C4A C 0.2793(7) 0.1738(4) 1.3341(4)
C5A C 0.3828(7) 0.1732(3) 1.2683(4)
H2A H 0.4328 0.2245 1.2353
C6A C 0.4129(6) 0.0958(3) 1.2512(3)
H3A H 0.4835 0.0948 1.2062
C7A C 0.4786(5) -0.0659(3) 1.2231(2)
H4A H 0.5724 -0.0305 1.2189
H5A H 0.5125 -0.1257 1.2313
C8A C 0.4037(5) -0.0347(2) 1.1455(2)
C9A C 0.2587(6) -0.3432(3) 1.2798(3)
C10A C 0.3258(7) -0.4179(3) 1.3280(4)
C11A C 0.3825(8) -0.4183(4) 1.3988(4)
H6A H 0.4219 -0.4695 1.4316
C12A C 0.3808(7) -0.3446(4) 1.4207(4)
C13A C 0.3173(8) -0.2697(3) 1.3739(4)
H7A H 0.3132 -0.2195 1.3901
C14A C 0.2596(7) -0.2690(3) 1.3031(4)
H8A H 0.2207 -0.2174 1.2707
C15A C 0.1449(6) -0.2719(3) 1.1579(3)
H9A H 0.0778 -0.2881 1.1233
H10A H 0.0792 -0.2409 1.1898
C16A C 0.2781(5) -0.2111(3) 1.1050(3)
C17A C 0.1973(5) -0.2425(3) 0.8326(3)
C18A C 0.2307(6) -0.2921(4) 0.7790(4)
C19A C 0.3228(7) -0.3662(4) 0.7994(4)
H11A H 0.3439 -0.3991 0.7638
C20A C 0.3826(8) -0.3907(4) 0.8719(5)
C21A C 0.3519(8) -0.3438(4) 0.9261(4)
H12A H 0.3922 -0.3614 0.9757
C22A C 0.2593(7) -0.2694(3) 0.9051(3)
H13A H 0.2388 -0.2370 0.9412
C23A C 0.0129(6) -0.1383(3) 0.8646(3)
H14A H -0.0766 -0.1074 0.8394
H15A H -0.0300 -0.1879 0.9088
C24A C 0.0962(5) -0.0787(2) 0.8994(2)
Cl1A Cl 0.13541(17) -0.07247(9) 1.42616(8)
Cl2A Cl 0.2475(3) 0.27055(12) 1.36056(16)
Cl3A Cl 0.3260(4) -0.51288(11) 1.30175(13)
Cl4A Cl 0.4532(3) -0.34562(13) 1.51046(11)
Cl5A Cl 0.1524(3) -0.26220(14) 0.68833(13)
Cl6A Cl 0.4962(3) -0.48474(13) 0.89443(15)
O1A O 0.2594(3) -0.0171(2) 1.14562(17)
O2A O 0.4916(3) -0.02962(17) 1.07940(15)
O3A O 0.3701(4) -0.06085(18) 1.29061(17)
O4A O 0.4164(4) -0.2325(2) 1.1089(2)
O5A O 0.2272(4) -0.14285(19) 1.0583(2)
O6A O 0.2039(5) -0.3497(2) 1.2115(2)
O7A O 0.0070(3) -0.04577(17) 0.94736(16)
O7_2 O -0.0070(3) 0.04577(17) 1.05264(16)
O7A_2 O 1.0070(3) -0.04577(17) 0.94736(16)
O8A O 0.2419(3) -0.06514(18) 0.88521(18)
O9A O 0.1098(5) -0.1699(2) 0.8064(2)
O10A O 0.1820(4) 0.12044(19) 0.88159(18)
H28A H 0.122(4) 0.110(3) 0.851(2)
H29A H 0.238(5) 0.165(2) 0.858(2)
O11A O 0.3520(4) 0.14447(18) 1.0064(2)
H30A H 0.430(3) 0.170(2) 0.974(2)
H31A H 0.290(4) 0.179(2) 1.022(3)
Eu1A Eu 0.24856(2) 0.008169(12) 0.996579(12)
Eu1_2 Eu -0.24856(2) -0.008169(12) 1.003421(12)
Eu1A_2 Eu 1.24856(2) 0.008169(12) 0.996579(12)
C25 C 0.8216(10) 0.6545(5) 1.0385(6)
H16 H 0.7913 0.6778 1.0808
C26 C 0.9168(9) 0.5790(4) 1.0545(5)
H17 H 0.9545 0.5560 1.1044
C27 C 0.9518(6) 0.5407(3) 0.9943(4)
C28 C 0.8991(8) 0.5824(4) 0.9215(5)
H18 H 0.9224 0.5594 0.8785
C29 C 0.8116(9) 0.6580(4) 0.9110(6)
H19 H 0.7783 0.6848 0.8606
N1 N 0.7734(6) 0.6937(3) 0.9691(5)
C25A C 1.1784(10) 0.3455(5) 0.9615(6)
H16A H 1.2087 0.3222 0.9192
C26A C 1.0832(9) 0.4210(4) 0.9455(5)
H17A H 1.0455 0.4440 0.8956
C27A C 1.0482(6) 0.4593(3) 1.0057(4)
C28A C 1.1009(8) 0.4176(4) 1.0785(5)
H18A H 1.0776 0.4406 1.1215
C29A C 1.1884(9) 0.3420(4) 1.0890(6)
H19A H 1.2217 0.3152 1.1394
N1A N 1.2266(6) 0.3063(3) 1.0309(5)
C30 C 0.7615(9) 1.0110(6) 0.3581(4)
H20 H 0.8315 1.0502 0.3197
C31 C 0.6601(7) 1.0423(5) 0.4122(3)
H21 H 0.6634 1.1008 0.4097
C32 C 0.5538(6) 0.9851(4) 0.4702(3)
C33 C 0.5570(8) 0.9006(5) 0.4689(4)
H22 H 0.4879 0.8594 0.5056
C34 C 0.6650(9) 0.8766(6) 0.4119(5)
H23 H 0.6657 0.8185 0.4129
N2 N 0.7638(7) 0.9293(5) 0.3582(3)
C30A C 0.2385(9) 0.9890(6) 0.6419(4)
H20A H 0.1685 0.9498 0.6803
C31A C 0.3399(7) 0.9577(5) 0.5878(3)
H21A H 0.3366 0.8992 0.5903
C32A C 0.4462(6) 1.0149(4) 0.5298(3)
C33A C 0.4430(8) 1.0994(5) 0.5311(4)
H22A H 0.5121 1.1406 0.4944
C34A C 0.3350(9) 1.1234(6) 0.5881(5)
H23A H 0.3343 1.1815 0.5871
N2A N 0.2362(7) 1.0707(5) 0.6418(3)
C35 C 0.1572(13) 0.4704(8) 0.6546(7)
H24 H 0.1856 0.5009 0.6886
C36 C 0.0822(12) 0.5161(6) 0.5877(6)
H25 H 0.0602 0.5749 0.5792
C37 C 0.0411(8) 0.4761(5) 0.5351(4)
C38 C 0.0747(10) 0.3903(6) 0.5532(5)
H26 H 0.0501 0.3583 0.5198
C39 C 0.1478(12) 0.3499(7) 0.6236(6)
H27 H 0.1670 0.2905 0.6354
N3 N 0.1896(9) 0.3881(6) 0.6723(5)
C35A C -0.1572(13) 0.5296(8) 0.3454(7)
H24A H -0.1856 0.4991 0.3114
C36A C -0.0822(12) 0.4839(6) 0.4123(6)
H25A H -0.0602 0.4251 0.4208
C37A C -0.0411(8) 0.5239(5) 0.4649(4)
C38A C -0.0747(10) 0.6097(6) 0.4468(5)
H26A H -0.0501 0.6417 0.4802
C39A C -0.1478(12) 0.6501(7) 0.3764(6)
H27A H -0.1670 0.7095 0.3646
N3A N -0.1896(9) 0.6119(6) 0.3277(5)
O12 O 0.9800(4) 0.8944(2) 0.2372(2)
H32 H 0.920(4) 0.915(3) 0.269(3)
H33 H 1.070(3) 0.918(3) 0.225(3)
O13 O 0.6726(6) 0.7268(3) 0.1995(3)
H34 H 0.582(4) 0.723(5) 0.186(4)
H35 H 0.690(8) 0.686(3) 0.241(3)
loop_
_geom_bond_atom_site_label_1
_geom_bond_atom_site_label_2
_geom_bond_site_symmetry_1
_geom_bond_site_symmetry_2
C1 C2 1_555 1_555
C2 C3 1_555 1_555
C3 H1 1_555 1_555
C4 C3 1_555 1_555
C5 C4 1_555 1_555
H2 C5 1_555 1_555
C6 C1 1_555 1_555
H3 C6 1_555 1_555
C7 H4 1_555 1_555
H5 C7 1_555 1_555
C8 C7 1_555 1_555
C9 C10 1_555 1_555
C10 C11 1_555 1_555
C11 H6 1_555 1_555
C12 C11 1_555 1_555
C13 C12 1_555 1_555
H7 C13 1_555 1_555
C14 C9 1_555 1_555
H8 C14 1_555 1_555
C15 H9 1_555 1_555
H10 C15 1_555 1_555
C16 C15 1_555 1_555
C17 C18 1_555 1_555
C18 C19 1_555 1_555
C19 H11 1_555 1_555
C20 C19 1_555 1_555
C21 C20 1_555 1_555
H12 C21 1_555 1_555
C22 C17 1_555 1_555
H13 C22 1_555 1_555
C23 H14 1_555 1_555
H15 C23 1_555 1_555
C24 C23 1_555 1_555
C25 H16 1_555 1_555
C26 C25 1_555 1_555
H17 C26 1_555 1_555
C27 C26 1_555 1_555
C28 C27 1_555 1_555
H18 C28 1_555 1_555
C29 C28 1_555 1_555
H19 C29 1_555 1_555
C30 H20 1_555 1_555
C31 C30 1_555 1_555
H21 C31 1_555 1_555
C32 C31 1_555 1_555
C33 C32 1_555 1_555
H22 C33 1_555 1_555
C34 C33 1_555 1_555
H23 C34 1_555 1_555
C35 H24 1_555 1_555
C36 C35 1_555 1_555
H25 C36 1_555 1_555
C37 C36 1_555 1_555
C38 C37 1_555 1_555
H26 C38 1_555 1_555
C39 C38 1_555 1_555
H27 C39 1_555 1_555
Cl1 C2 1_555 1_555
Cl2 C4 1_555 1_555
Cl3 C10 1_555 1_555
Cl4 C12 1_555 1_555
Cl5 C18 1_555 1_555
Cl6 C20 1_555 1_555
N1 C25 1_555 1_555
N2 C30 1_555 1_555
N3 C35 1_555 1_555
O1 C8 1_555 1_555
O2 C8 1_555 1_555
O3 C1 1_555 1_555
O4 C16 1_555 1_555
O5 C16 1_555 1_555
O6 C9 1_555 1_555
O7 C24 1_555 1_555
O8 C24 1_555 1_555
O9 C17 1_555 1_555
O10 H28 1_555 1_555
H29 O10 1_555 1_555
O11 H30 1_555 1_555
H31 O11 1_555 1_555
O12 H32 1_555 1_555
H33 O12 1_555 1_555
O13 H34 1_555 1_555
H35 O13 1_555 1_555
Eu1 O1 1_555 1_555
C1A C2A 1_555 1_555
C2A C3A 1_555 1_555
C3A H1A 1_555 1_555
C4A C3A 1_555 1_555
C5A C4A 1_555 1_555
H2A C5A 1_555 1_555
C6A C1A 1_555 1_555
H3A C6A 1_555 1_555
C7A H4A 1_555 1_555
H5A C7A 1_555 1_555
C8A C7A 1_555 1_555
C9A C10A 1_555 1_555
C10A C11A 1_555 1_555
C11A H6A 1_555 1_555
C12A C11A 1_555 1_555
C13A C12A 1_555 1_555
H7A C13A 1_555 1_555
C14A C9A 1_555 1_555
H8A C14A 1_555 1_555
C15A H9A 1_555 1_555
H10A C15A 1_555 1_555
C16A C15A 1_555 1_555
C17A C18A 1_555 1_555
C18A C19A 1_555 1_555
C19A H11A 1_555 1_555
C20A C19A 1_555 1_555
C21A C20A 1_555 1_555
H12A C21A 1_555 1_555
C22A C17A 1_555 1_555
H13A C22A 1_555 1_555
C23A H14A 1_555 1_555
H15A C23A 1_555 1_555
C24A C23A 1_555 1_555
C25A H16A 1_555 1_555
C26A C25A 1_555 1_555
H17A C26A 1_555 1_555
C27A C27 1_555 1_555
C28A C27A 1_555 1_555
H18A C28A 1_555 1_555
C29A C28A 1_555 1_555
H19A C29A 1_555 1_555
C30A H20A 1_555 1_555
C31A C30A 1_555 1_555
H21A C31A 1_555 1_555
C32A C32 1_555 1_555
C33A C32A 1_555 1_555
H22A C33A 1_555 1_555
C34A C33A 1_555 1_555
H23A C34A 1_555 1_555
C35A H24A 1_555 1_555
C36A C35A 1_555 1_555
H25A C36A 1_555 1_555
C37A C37 1_555 1_555
C38A C37A 1_555 1_555
H26A C38A 1_555 1_555
C39A C38A 1_555 1_555
H27A C39A 1_555 1_555
Cl1A C2A 1_555 1_555
Cl2A C4A 1_555 1_555
Cl3A C10A 1_555 1_555
Cl4A C12A 1_555 1_555
Cl5A C18A 1_555 1_555
Cl6A C20A 1_555 1_555
N1A C25A 1_555 1_555
N2A C30A 1_555 1_555
N3A C35A 1_555 1_555
O1A C8A 1_555 1_555
O2A Eu1 1_555 1_555
O3A C1A 1_555 1_555
O4A C16A 1_555 1_555
O5A C16A 1_555 1_555
O6A C9A 1_555 1_555
O7A C24A 1_555 1_555
O7_2 Eu1A 1_555 1_555
O7A_2 Eu1 1_555 1_555
O8A C24A 1_555 1_555
O9A C17A 1_555 1_555
O10A H28A 1_555 1_555
H29A O10A 1_555 1_555
O11A H30A 1_555 1_555
H31A O11A 1_555 1_555
Eu1A O2 1_555 1_555
Eu1_2 O7A 1_555 1_555
Eu1A_2 O7 1_555 1_555
C5 C6 1_555 1_555
C7 O3 1_555 1_555
C13 C14 1_555 1_555
C15 O6 1_555 1_555
C21 C22 1_555 1_555
C23 O9 1_555 1_555
C29 N1 1_555 1_555
C34 N2 1_555 1_555
C39 N3 1_555 1_555
O2 Eu1 1_555 1_555
O5 Eu1 1_555 1_555
O7 Eu1 1_555 1_555
O8 Eu1 1_555 1_555
O10 Eu1 1_555 1_555
O11 Eu1 1_555 1_555
C5A C6A 1_555 1_555
C7A O3A 1_555 1_555
C8A O2A 1_555 1_555
C13A C14A 1_555 1_555
C15A O6A 1_555 1_555
C21A C22A 1_555 1_555
C23A O9A 1_555 1_555
C26A C27A 1_555 1_555
C29A N1A 1_555 1_555
C31A C32A 1_555 1_555
C34A N2A 1_555 1_555
C36A C37A 1_555 1_555
C39A N3A 1_555 1_555
O1A Eu1A 1_555 1_555
O2A Eu1A 1_555 1_555
O5A Eu1A 1_555 1_555
O7A Eu1A 1_555 1_555
O7_2 Eu1_2 1_555 1_555
O7A_2 Eu1A_2 1_555 1_555
O8A Eu1A 1_555 1_555
O10A Eu1A 1_555 1_555
O11A Eu1A 1_555 1_555

#END
