
#######################################################################
#
#                 Cambridge Crystallographic Data Centre
#                                CCDC 
#
#######################################################################
#
# If this CIF has been generated from an entry in the Cambridge 
# Structural Database, then it will include bibliographic, chemical, 
# crystal, experimental, refinement or atomic coordinate data resulting 
# from the CCDC's data processing and validation procedures.
#
#######################################################################

data_GECQOV
_symmetry_cell_setting           monoclinic
_symmetry_space_group_name_H-M   'P 2/c'
_symmetry_Int_Tables_number      13
_space_group_name_Hall           '-P 2yc'
loop_
_symmetry_equiv_pos_site_id
_symmetry_equiv_pos_as_xyz
1 x,y,z
2 -x,y,1/2-z
3 -x,-y,-z
4 x,-y,1/2+z
_cell_length_a                   12.330(2)
_cell_length_b                   10.1301(19)
_cell_length_c                   22.663(4)
_cell_angle_alpha                90
_cell_angle_beta                 97.882(3)
_cell_angle_gamma                90
_cell_volume                     2803.96
loop_
_atom_site_label
_atom_site_type_symbol
_atom_site_fract_x
_atom_site_fract_y
_atom_site_fract_z
Co1 Co 0.29777(5) 0.28522(5) 0.58874(3)
Co2 Co 0.18728(5) 0.24028(5) 0.39639(3)
N1 N 0.4391(3) 0.1995(3) 0.64096(15)
N2 N 0.2617(3) 0.0790(3) 0.58344(15)
N3 N 0.2472(3) 0.0461(3) 0.41531(15)
N4 N 0.0572(3) 0.1199(3) 0.35296(15)
O1 O 0.3880(3) 0.2987(3) 0.52001(13)
O2 O 0.3198(3) 0.3586(3) 0.42836(14)
O3 O 0.1571(3) 0.3720(3) 0.54818(14)
O4 O 0.1087(3) 0.2501(3) 0.46857(13)
O5 O 0.3342(3) 0.4779(3) 0.62935(14)
O6 O 0.2404(3) 0.3334(3) 0.67337(12)
O7 O 0.2324(3) 0.7216(3) 0.80859(13)
O8 O 0.1202(3) 0.5878(3) 0.84648(14)
C1 C 0.3876(4) 0.3675(4) 0.4737(2)
C2 C 0.4828(4) 0.4622(4) 0.47153(19)
H1 H 0.5452 0.4123 0.4619
H2 H 0.4628 0.5249 0.4396
C3 C 0.0980(4) 0.3486(4) 0.5011(2)
C4 C 0.0028(4) 0.4389(4) 0.4819(2)
H3 H 0.0056 0.4647 0.4409
H4 H -0.0643 0.3894 0.4827
C5 C 0.2815(4) 0.4463(4) 0.6706(2)
C6 C 0.2685(5) 0.5481(5) 0.7186(2)
H5 H 0.3376 0.5552 0.7447
H6 H 0.2537 0.6332 0.6996
C7 C 0.1808(4) 0.5198(4) 0.7558(2)
H7 H 0.1106 0.5218 0.7305
H8 H 0.1912 0.4312 0.7718
C8 C 0.1774(4) 0.6155(4) 0.8069(2)
C9 C 0.5242(4) 0.2595(5) 0.6712(2)
H9 H 0.5261 0.3513 0.6703
C10 C 0.6104(4) 0.1943(5) 0.7042(2)
H10 H 0.6668 0.2411 0.7263
C11 C 0.6108(4) 0.0586(5) 0.7035(2)
H11 H 0.6696 0.0127 0.7239
C12 C 0.5235(4) -0.0100(4) 0.6724(2)
C13 C 0.4377(4) 0.0648(4) 0.64242(18)
C14 C 0.3424(4) 0.0014(4) 0.61144(18)
C15 C 0.3370(4) -0.1377(4) 0.61193(19)
C16 C 0.2407(4) -0.1955(5) 0.5826(2)
H12 H 0.2332 -0.2869 0.5816
C17 C 0.1585(4) -0.1174(5) 0.5558(2)
H13 H 0.0938 -0.1548 0.5373
C18 C 0.1725(4) 0.0200(4) 0.5564(2)
H14 H 0.1166 0.0721 0.5369
C19 C 0.5156(4) -0.1514(5) 0.6698(2)
H15 H 0.5730 -0.2020 0.6887
C20 C 0.4281(4) -0.2115(5) 0.6411(2)
H16 H 0.4259 -0.3032 0.6399
C21 C 0.3430(4) 0.0116(5) 0.4454(2)
H17 H 0.3919 0.0776 0.4599
C22 C 0.3730(4) -0.1197(5) 0.4562(2)
H18 H 0.4410 -0.1403 0.4773
C23 C 0.3021(5) -0.2176(5) 0.4357(2)
H19 H 0.3216 -0.3055 0.4428
C24 C 0.1990(4) -0.1860(4) 0.4037(2)
C25 C 0.1761(4) -0.0505(4) 0.39419(19)
C26 C 0.0747(4) -0.0132(4) 0.36127(18)
C27 C -0.0014(4) -0.1085(4) 0.3378(2)
C28 C -0.0979(4) -0.0631(5) 0.3043(2)
H20 H -0.1514 -0.1227 0.2884
C29 C -0.1131(4) 0.0691(5) 0.2950(2)
H21 H -0.1757 0.1003 0.2717
C30 C -0.0347(4) 0.1554(5) 0.3206(2)
H22 H -0.0474 0.2452 0.3146
C31 C 0.1197(5) -0.2809(5) 0.3801(2)
H23 H 0.1346 -0.3701 0.3865
C32 C 0.0243(5) -0.2452(5) 0.3488(2)
H24 H -0.0260 -0.3096 0.3341
Co1B Co 0.70223(5) 0.71478(5) 0.41126(3)
Co1B_2 Co -0.29777(5) 0.71478(5) 0.41126(3)
Co1C Co 0.29777(5) 0.71478(5) 0.08874(3)
Co2B Co 0.81272(5) 0.75972(5) 0.60361(3)
Co2C Co 0.18728(5) 0.75972(5) 0.89639(3)
Co2B_2 Co -0.18728(5) 0.75972(5) 0.60361(3)
N1B N 0.5609(3) 0.8005(3) 0.35904(15)
N2B N 0.7383(3) 0.9210(3) 0.41656(15)
N3B N 0.7528(3) 0.9539(3) 0.58469(15)
N4B N 0.9428(3) 0.8801(3) 0.64704(15)
O1B O 0.6120(3) 0.7013(3) 0.47999(13)
O2B O 0.6802(3) 0.6414(3) 0.57164(14)
O3B O -0.1571(3) 0.6280(3) 0.45182(14)
O3B_2 O 0.8429(3) 0.6280(3) 0.45182(14)
O4B O -0.1087(3) 0.7499(3) 0.53143(13)
O4B_2 O 0.8913(3) 0.7499(3) 0.53143(13)
O5C O 0.3342(3) 0.5221(3) 0.12935(14)
O5B O 0.6658(3) 0.5221(3) 0.37065(14)
O6C O 0.2404(3) 0.6666(3) 0.17337(12)
O6B O 0.7596(3) 0.6666(3) 0.32663(12)
O7C O 0.2324(3) 0.2784(3) 0.30859(13)
O7A O 0.7676(3) 0.7216(3) 0.69141(13)
O8C O 0.1202(3) 0.4122(3) 0.34648(14)
O8A O 0.8798(3) 0.5878(3) 0.65352(14)
C1B C 0.6124(4) 0.6325(4) 0.5263(2)
C2B C 0.5172(4) 0.5378(4) 0.52847(19)
H1B H 0.4548 0.5877 0.5381
H2B H 0.5372 0.4751 0.5604
C3B C -0.0980(4) 0.6514(4) 0.4989(2)
C4B C -0.0028(4) 0.5611(4) 0.5181(2)
H3B H -0.0056 0.5353 0.5591
H4B H 0.0643 0.6106 0.5173
C5C C 0.2815(4) 0.5537(4) 0.1706(2)
C6C C 0.2685(5) 0.4519(5) 0.2186(2)
H5C H 0.3376 0.4448 0.2447
H6C H 0.2537 0.3668 0.1996
C7C C 0.1808(4) 0.4802(4) 0.2558(2)
H7C H 0.1106 0.4782 0.2305
H8C H 0.1912 0.5688 0.2718
C8C C 0.1774(4) 0.3845(4) 0.3069(2)
C9B C 0.4758(4) 0.7405(5) 0.3288(2)
H9B H 0.4739 0.6487 0.3297
C10B C 0.3896(4) 0.8057(5) 0.2958(2)
H10B H 0.3332 0.7589 0.2737
C11B C 0.3892(4) 0.9414(5) 0.2965(2)
H11B H 0.3304 0.9873 0.2761
C12B C 0.4765(4) 1.0100(4) 0.3276(2)
C13B C 0.5623(4) 0.9352(4) 0.35758(18)
C14B C 0.6576(4) 0.9986(4) 0.38856(18)
C15B C 0.6630(4) 1.1377(4) 0.38807(19)
C16B C 0.7593(4) 1.1955(5) 0.4174(2)
H12B H 0.7668 1.2869 0.4184
C17B C 0.8415(4) 1.1174(5) 0.4442(2)
H13B H 0.9062 1.1548 0.4627
C18B C 0.8275(4) 0.9800(4) 0.4436(2)
H14B H 0.8834 0.9279 0.4631
C19B C 0.4844(4) 1.1514(5) 0.3302(2)
H15B H 0.4270 1.2020 0.3113
C20B C 0.5719(4) 1.2115(5) 0.3589(2)
H16B H 0.5741 1.3032 0.3601
C21B C 0.6570(4) 0.9884(5) 0.5546(2)
H17B H 0.6081 0.9224 0.5401
C22B C 0.6270(4) 1.1197(5) 0.5438(2)
H18B H 0.5590 1.1403 0.5227
C23B C 0.6979(5) 1.2176(5) 0.5643(2)
H19B H 0.6784 1.3055 0.5572
C24B C 0.8010(4) 1.1860(4) 0.5963(2)
C25B C 0.8239(4) 1.0505(4) 0.60581(19)
C26B C 0.9253(4) 1.0132(4) 0.63873(18)
C27B C 1.0014(4) 1.1085(4) 0.6622(2)
C28B C 1.0979(4) 1.0631(5) 0.6957(2)
H20B H 1.1514 1.1227 0.7116
C29B C 1.1131(4) 0.9309(5) 0.7050(2)
H21B H 1.1757 0.8997 0.7283
C30B C 1.0347(4) 0.8446(5) 0.6794(2)
H22B H 1.0474 0.7548 0.6854
C31B C 0.8803(5) 1.2809(5) 0.6199(2)
H23B H 0.8654 1.3701 0.6135
C32B C 0.9757(5) 1.2452(5) 0.6512(2)
H24B H 1.0260 1.3096 0.6659
loop_
_geom_bond_atom_site_label_1
_geom_bond_atom_site_label_2
_geom_bond_site_symmetry_1
_geom_bond_site_symmetry_2
Co1 N1 1_555 1_555
Co2 N3 1_555 1_555
N1 C9 1_555 1_555
N2 Co1 1_555 1_555
N3 C21 1_555 1_555
N4 Co2 1_555 1_555
O1 Co1 1_555 1_555
O2 Co2 1_555 1_555
O3 Co1 1_555 1_555
O4 Co2 1_555 1_555
O5 Co1 1_555 1_555
O6 Co1 1_555 1_555
O7 C8 1_555 1_555
O8 C8 1_555 1_555
C1 O1 1_555 1_555
C2 C1 1_555 1_555
H1 C2 1_555 1_555
H2 C2 1_555 1_555
C3 O3 1_555 1_555
C4 C3 1_555 1_555
H3 C4 1_555 1_555
H4 C4 1_555 1_555
C5 O5 1_555 1_555
C6 C5 1_555 1_555
H5 C6 1_555 1_555
H6 C6 1_555 1_555
C7 C6 1_555 1_555
H7 C7 1_555 1_555
H8 C7 1_555 1_555
C8 C7 1_555 1_555
C9 H9 1_555 1_555
C10 C9 1_555 1_555
H10 C10 1_555 1_555
C11 C10 1_555 1_555
H11 C11 1_555 1_555
C12 C11 1_555 1_555
C13 N1 1_555 1_555
C14 N2 1_555 1_555
C15 C14 1_555 1_555
C16 C15 1_555 1_555
H12 C16 1_555 1_555
C17 C16 1_555 1_555
H13 C17 1_555 1_555
C18 N2 1_555 1_555
H14 C18 1_555 1_555
C19 C12 1_555 1_555
H15 C19 1_555 1_555
C20 C15 1_555 1_555
H16 C20 1_555 1_555
C21 H17 1_555 1_555
C22 C21 1_555 1_555
H18 C22 1_555 1_555
C23 C22 1_555 1_555
H19 C23 1_555 1_555
C24 C23 1_555 1_555
C25 N3 1_555 1_555
C26 N4 1_555 1_555
C27 C26 1_555 1_555
C28 C27 1_555 1_555
H20 C28 1_555 1_555
C29 C28 1_555 1_555
H21 C29 1_555 1_555
C30 N4 1_555 1_555
H22 C30 1_555 1_555
C31 C24 1_555 1_555
H23 C31 1_555 1_555
C32 C27 1_555 1_555
H24 C32 1_555 1_555
Co1B N1B 1_555 1_555
Co1B_2 O3B 1_555 1_555
Co1C O5C 1_555 1_555
Co2B N3B 1_555 1_555
Co2C O7 1_555 1_555
Co2B_2 O4B 1_555 1_555
N1B C9B 1_555 1_555
N2B Co1B 1_555 1_555
N3B C21B 1_555 1_555
N4B Co2B 1_555 1_555
O1B Co1B 1_555 1_555
O2B Co2B 1_555 1_555
O3B C3B 1_555 1_555
O3B_2 Co1B 1_555 1_555
O4B C3B 1_555 1_555
O4B_2 Co2B 1_555 1_555
O5C C5C 1_555 1_555
O5B Co1B 1_555 1_555
O6C Co1C 1_555 1_555
O6B Co1B 1_555 1_555
O7C Co2 1_555 1_555
O7A Co2B 1_555 1_555
O8C Co2 1_555 1_555
O8A Co2B 1_555 1_555
C1B O1B 1_555 1_555
C2B C2 1_555 1_555
H1B C2B 1_555 1_555
H2B C2B 1_555 1_555
C3B C4B 1_555 1_555
C4B C4 1_555 1_555
H3B C4B 1_555 1_555
H4B C4B 1_555 1_555
C5C O6C 1_555 1_555
C6C C5C 1_555 1_555
H5C C6C 1_555 1_555
H6C C6C 1_555 1_555
C7C C6C 1_555 1_555
H7C C7C 1_555 1_555
H8C C7C 1_555 1_555
C8C O7C 1_555 1_555
C9B H9B 1_555 1_555
C10B C9B 1_555 1_555
H10B C10B 1_555 1_555
C11B C10B 1_555 1_555
H11B C11B 1_555 1_555
C12B C11B 1_555 1_555
C13B N1B 1_555 1_555
C14B N2B 1_555 1_555
C15B C14B 1_555 1_555
C16B C15B 1_555 1_555
H12B C16B 1_555 1_555
C17B C16B 1_555 1_555
H13B C17B 1_555 1_555
C18B N2B 1_555 1_555
H14B C18B 1_555 1_555
C19B C12B 1_555 1_555
H15B C19B 1_555 1_555
C20B C15B 1_555 1_555
H16B C20B 1_555 1_555
C21B H17B 1_555 1_555
C22B C21B 1_555 1_555
H18B C22B 1_555 1_555
C23B C22B 1_555 1_555
H19B C23B 1_555 1_555
C24B C23B 1_555 1_555
C25B N3B 1_555 1_555
C26B N4B 1_555 1_555
C27B C26B 1_555 1_555
C28B C27B 1_555 1_555
H20B C28B 1_555 1_555
C29B C28B 1_555 1_555
H21B C29B 1_555 1_555
C30B N4B 1_555 1_555
H22B C30B 1_555 1_555
C31B C24B 1_555 1_555
H23B C31B 1_555 1_555
C32B C27B 1_555 1_555
H24B C32B 1_555 1_555
O2 C1 1_555 1_555
O4 C3 1_555 1_555
O6 C5 1_555 1_555
O8 Co2C 1_555 1_555
C12 C13 1_555 1_555
C13 C14 1_555 1_555
C17 C18 1_555 1_555
C19 C20 1_555 1_555
C24 C25 1_555 1_555
C25 C26 1_555 1_555
C29 C30 1_555 1_555
C31 C32 1_555 1_555
O2B C1B 1_555 1_555
O8C C8C 1_555 1_555
C1B C2B 1_555 1_555
C7C C8C 1_555 1_555
C12B C13B 1_555 1_555
C13B C14B 1_555 1_555
C17B C18B 1_555 1_555
C19B C20B 1_555 1_555
C24B C25B 1_555 1_555
C25B C26B 1_555 1_555
C29B C30B 1_555 1_555
C31B C32B 1_555 1_555

#END
