
#######################################################################
#
#                 Cambridge Crystallographic Data Centre
#                                CCDC 
#
#######################################################################
#
# If this CIF has been generated from an entry in the Cambridge 
# Structural Database, then it will include bibliographic, chemical, 
# crystal, experimental, refinement or atomic coordinate data resulting 
# from the CCDC's data processing and validation procedures.
#
#######################################################################

data_GECQOV01
_symmetry_cell_setting           monoclinic
_symmetry_space_group_name_H-M   'P 2/c'
_symmetry_Int_Tables_number      13
_space_group_name_Hall           '-P 2yc'
loop_
_symmetry_equiv_pos_site_id
_symmetry_equiv_pos_as_xyz
1 x,y,z
2 -x,y,1/2-z
3 -x,-y,-z
4 x,-y,1/2+z
_cell_length_a                   12.308(3)
_cell_length_b                   10.106(2)
_cell_length_c                   22.684(5)
_cell_angle_alpha                90
_cell_angle_beta                 97.62(3)
_cell_angle_gamma                90
_cell_volume                     2796.63
loop_
_atom_site_label
_atom_site_type_symbol
_atom_site_fract_x
_atom_site_fract_y
_atom_site_fract_z
Co1 Co 0.202011(19) 0.21473(2) 0.411279(10)
Co2 Co 0.312810(19) -0.25977(2) 0.103700(10)
O1 O 0.11164(11) 0.20148(14) 0.48002(5)
O2 O 0.26827(11) -0.22097(14) 0.19136(6)
O3 O 0.39122(11) 0.25073(13) 0.53134(5)
O4 O 0.25952(11) 0.16626(13) 0.32673(5)
N1 N 0.44271(12) -0.38088(15) 0.14693(6)
O5 O 0.16529(12) 0.02186(14) 0.37084(6)
O6 O 0.38081(12) -0.08809(14) 0.15321(6)
N2 N 0.25219(12) -0.45347(16) 0.08452(6)
N3 N 0.06074(12) 0.30035(16) 0.35868(6)
C1 C -0.11141(17) 0.3061(2) 0.29603(9)
H1 H -0.1688 0.2594 0.2747
O7 O 0.34232(12) 0.12706(16) 0.45141(6)
C2 C 0.15691(14) 0.49884(19) 0.38841(7)
N4 N 0.23781(12) 0.42081(16) 0.41643(6)
C3 C 0.21916(15) 0.05291(19) 0.32954(7)
C4 C 0.32307(15) -0.55090(19) 0.10546(7)
C5 C 0.42547(14) -0.51230(18) 0.13888(7)
C6 C 0.61412(17) -0.4316(2) 0.20548(9)
H2 H 0.6768 -0.4007 0.2288
C7 C 0.32733(16) 0.4800(2) 0.44328(8)
H3 H 0.3833 0.4277 0.4625
C8 C 0.06257(14) 0.43397(18) 0.35763(7)
C9 C 0.25896(18) 0.6957(2) 0.41720(9)
H4 H 0.2664 0.7872 0.4182
C10 C 0.40268(15) 0.15139(19) 0.49878(7)
C11 C 0.32270(15) -0.11577(18) 0.19312(7)
C12 C 0.16263(16) 0.6375(2) 0.38808(8)
C13 C 0.32013(18) -0.0195(2) 0.24425(9)
H5 H 0.3101 0.0694 0.2283
H6 H 0.3903 -0.0222 0.2693
C14 C 0.50130(16) -0.6085(2) 0.16205(8)
C15 C 0.15673(16) -0.4891(2) 0.05436(8)
H7 H 0.1078 -0.4233 0.0395
C16 C 0.34123(17) 0.6175(2) 0.44400(9)
H8 H 0.4058 0.6551 0.4625
O8 O 0.18045(13) 0.14117(17) 0.57203(6)
C17 C 0.07219(18) 0.7117(2) 0.35883(10)
H9 H 0.0748 0.8036 0.3599
C18 C -0.11131(17) 0.4406(3) 0.29596(9)
H10 H -0.1695 0.4867 0.2751
C19 C 0.12662(18) -0.6207(2) 0.04395(9)
H11 H 0.0585 -0.6416 0.0232
C20 C -0.02332(15) 0.5097(2) 0.32740(8)
C21 C 0.2313(2) -0.0480(2) 0.28160(10)
H12 H 0.2455 -0.1337 0.3003
H13 H 0.1622 -0.0542 0.2557
C22 C 0.53457(15) -0.3429(2) 0.17941(8)
H14 H 0.5470 -0.2527 0.1852
C23 C 0.11148(15) 0.13297(19) 0.52625(7)
C24 C 0.01648(15) 0.0378(2) 0.52857(7)
H15 H -0.0464 0.0874 0.5381
H16 H 0.0364 -0.0251 0.5605
C25 C -0.01648(17) 0.6513(2) 0.32980(9)
H17 H -0.0741 0.7020 0.3111
C26 C 0.29999(17) -0.6857(2) 0.09608(8)
C27 C 0.3802(2) -0.7813(2) 0.11942(11)
H18 H 0.3659 -0.8708 0.1128
C28 C -0.02356(16) 0.2388(2) 0.32884(9)
H19 H -0.0250 0.1468 0.3295
C29 C 0.49770(16) 0.0612(2) 0.51838(8)
H20 H 0.4944 0.0352 0.5593
H21 H 0.5651 0.1104 0.5176
C30 C 0.19771(19) -0.7179(2) 0.06439(10)
H22 H 0.1786 -0.8061 0.0574
C31 C 0.59862(17) -0.5637(2) 0.19636(9)
H23 H 0.6515 -0.6239 0.2125
C32 C 0.4760(2) -0.7442(2) 0.15089(10)
H24 H 0.5265 -0.8086 0.1656
Co1B Co -0.202011(19) -0.21473(2) 0.588721(10)
Co1B_2 Co 0.797989(19) -0.21473(2) 0.588721(10)
Co2C Co 0.312810(19) 0.25977(2) 0.603700(10)
Co2A Co -0.312810(19) -0.25977(2) 0.396300(10)
Co2A_2 Co 0.687190(19) -0.25977(2) 0.396300(10)
Co2B Co -0.312810(19) 0.25977(2) 0.896300(10)
O1B O -0.11164(11) -0.20148(14) 0.51998(5)
O2B O -0.26827(11) 0.22097(14) 0.80864(6)
O2C O 0.26827(11) 0.22097(14) 0.69136(6)
O3B O 0.60878(11) -0.25073(13) 0.46866(5)
O3C O 0.39122(11) -0.25073(13) 0.03134(5)
O4B O -0.25952(11) -0.16626(13) 0.67327(5)
N1C N 0.44271(12) 0.38088(15) 0.64693(6)
O5B O -0.16529(12) -0.02186(14) 0.62916(6)
O6B O -0.38081(12) 0.08809(14) 0.84679(6)
O6C O 0.38081(12) 0.08809(14) 0.65321(6)
N2C N 0.25219(12) 0.45347(16) 0.58452(6)
N3B N -0.06074(12) -0.30035(16) 0.64132(6)
C1B C 0.11141(17) -0.3061(2) 0.70397(9)
H1B H 0.1688 -0.2594 0.7253
O7B O 0.65768(12) -0.12706(16) 0.54859(6)
O7B_2 O -0.34232(12) -0.12706(16) 0.54859(6)
C2B C -0.15691(14) -0.49884(19) 0.61159(7)
N4B N -0.23781(12) -0.42081(16) 0.58357(6)
C3B C -0.21916(15) -0.05291(19) 0.67046(7)
C4C C 0.32307(15) 0.55090(19) 0.60546(7)
C5C C 0.42547(14) 0.51230(18) 0.63888(7)
C6C C 0.61412(17) 0.4316(2) 0.70548(9)
H2C H 0.6768 0.4007 0.7288
C7B C -0.32733(16) -0.4800(2) 0.55672(8)
H3B H -0.3833 -0.4277 0.5375
C8B C -0.06257(14) -0.43397(18) 0.64237(7)
C9B C -0.25896(18) -0.6957(2) 0.58280(9)
H4B H -0.2664 -0.7872 0.5818
C10B C 0.59732(15) -0.15139(19) 0.50122(7)
C11B C -0.32270(15) 0.11577(18) 0.80688(7)
C12B C -0.16263(16) -0.6375(2) 0.61192(8)
C13B C -0.32013(18) 0.0195(2) 0.75575(9)
H5B H -0.3101 -0.0694 0.7717
H6B H -0.3903 0.0222 0.7307
C14C C 0.50130(16) 0.6085(2) 0.66205(8)
C15C C 0.15673(16) 0.4891(2) 0.55436(8)
H7C H 0.1078 0.4233 0.5395
C16B C -0.34123(17) -0.6175(2) 0.55600(9)
H8B H -0.4058 -0.6551 0.5375
O8B O -0.18045(13) -0.14117(17) 0.42797(6)
O8C O 0.18045(13) -0.14117(17) 0.07203(6)
C17B C -0.07219(18) -0.7117(2) 0.64117(10)
H9B H -0.0748 -0.8036 0.6401
C18B C 0.11131(17) -0.4406(3) 0.70404(9)
H10B H 0.1695 -0.4867 0.7249
C19C C 0.12662(18) 0.6207(2) 0.54395(9)
H11C H 0.0585 0.6416 0.5232
C20B C 0.02332(15) -0.5097(2) 0.67260(8)
C21B C -0.2313(2) 0.0480(2) 0.71840(10)
H12B H -0.2455 0.1337 0.6997
H13B H -0.1622 0.0542 0.7443
C22C C 0.53457(15) 0.3429(2) 0.67941(8)
H14C H 0.5470 0.2527 0.6852
C23B C -0.11148(15) -0.13297(19) 0.47375(7)
C24B C -0.01648(15) -0.0378(2) 0.47143(7)
H15B H 0.0464 -0.0874 0.4619
H16B H -0.0364 0.0251 0.4395
C25B C 0.01648(17) -0.6513(2) 0.67020(9)
H17B H 0.0741 -0.7020 0.6889
C26C C 0.29999(17) 0.6857(2) 0.59608(8)
C27C C 0.3802(2) 0.7813(2) 0.61942(11)
H18C H 0.3659 0.8708 0.6128
C28B C 0.02356(16) -0.2388(2) 0.67116(9)
H19B H 0.0250 -0.1468 0.6705
C29B C 0.50230(16) -0.0612(2) 0.48162(8)
H20B H 0.5056 -0.0352 0.4407
H21B H 0.4349 -0.1104 0.4824
C30C C 0.19771(19) 0.7179(2) 0.56439(10)
H22C H 0.1786 0.8061 0.5574
C31C C 0.59862(17) 0.5637(2) 0.69636(9)
H23C H 0.6515 0.6239 0.7125
C32C C 0.4760(2) 0.7442(2) 0.65089(10)
H24C H 0.5265 0.8086 0.6656
loop_
_geom_bond_atom_site_label_1
_geom_bond_atom_site_label_2
_geom_bond_site_symmetry_1
_geom_bond_site_symmetry_2
Co1 O1 1_555 1_555
Co2 O2 1_555 1_555
O1 C23 1_555 1_555
O2 C11 1_555 1_555
O3 C10 1_555 1_555
O4 Co1 1_555 1_555
N1 Co2 1_555 1_555
O5 Co1 1_555 1_555
O6 Co2 1_555 1_555
N2 Co2 1_555 1_555
N3 Co1 1_555 1_555
C1 H1 1_555 1_555
O7 Co1 1_555 1_555
C2 N4 1_555 1_555
N4 Co1 1_555 1_555
C3 O4 1_555 1_555
C4 N2 1_555 1_555
C5 N1 1_555 1_555
C6 H2 1_555 1_555
C7 N4 1_555 1_555
H3 C7 1_555 1_555
C8 N3 1_555 1_555
C9 H4 1_555 1_555
C10 O7 1_555 1_555
C11 O6 1_555 1_555
C12 C2 1_555 1_555
C13 C11 1_555 1_555
H5 C13 1_555 1_555
H6 C13 1_555 1_555
C14 C5 1_555 1_555
C15 N2 1_555 1_555
H7 C15 1_555 1_555
C16 C7 1_555 1_555
H8 C16 1_555 1_555
O8 C23 1_555 1_555
C17 C12 1_555 1_555
H9 C17 1_555 1_555
C18 C1 1_555 1_555
H10 C18 1_555 1_555
C19 C15 1_555 1_555
H11 C19 1_555 1_555
C20 C8 1_555 1_555
C21 C3 1_555 1_555
H12 C21 1_555 1_555
H13 C21 1_555 1_555
C22 N1 1_555 1_555
H14 C22 1_555 1_555
C23 C24 1_555 1_555
C24 H15 1_555 1_555
H16 C24 1_555 1_555
C25 C17 1_555 1_555
H17 C25 1_555 1_555
C26 C4 1_555 1_555
C27 C26 1_555 1_555
H18 C27 1_555 1_555
C28 N3 1_555 1_555
H19 C28 1_555 1_555
C29 C10 1_555 1_555
H20 C29 1_555 1_555
H21 C29 1_555 1_555
C30 C19 1_555 1_555
H22 C30 1_555 1_555
C31 C6 1_555 1_555
H23 C31 1_555 1_555
C32 C14 1_555 1_555
H24 C32 1_555 1_555
Co1B O1B 1_555 1_555
Co1B_2 O7B 1_555 1_555
Co2C O3 1_555 1_555
Co2A O8B 1_555 1_555
Co2A_2 O3B 1_555 1_555
Co2B O2B 1_555 1_555
O1B C23B 1_555 1_555
O2B C11B 1_555 1_555
O2C Co2C 1_555 1_555
O3B C10B 1_555 1_555
O3C Co2 1_555 1_555
O4B Co1B 1_555 1_555
N1C Co2C 1_555 1_555
O5B Co1B 1_555 1_555
O6B Co2B 1_555 1_555
O6C Co2C 1_555 1_555
N2C Co2C 1_555 1_555
N3B Co1B 1_555 1_555
C1B H1B 1_555 1_555
O7B C10B 1_555 1_555
O7B_2 Co1B 1_555 1_555
C2B N4B 1_555 1_555
N4B Co1B 1_555 1_555
C3B O4B 1_555 1_555
C4C N2C 1_555 1_555
C5C N1C 1_555 1_555
C6C H2C 1_555 1_555
C7B N4B 1_555 1_555
H3B C7B 1_555 1_555
C8B N3B 1_555 1_555
C9B H4B 1_555 1_555
C10B C29B 1_555 1_555
C11B O6B 1_555 1_555
C12B C2B 1_555 1_555
C13B C11B 1_555 1_555
H5B C13B 1_555 1_555
H6B C13B 1_555 1_555
C14C C5C 1_555 1_555
C15C N2C 1_555 1_555
H7C C15C 1_555 1_555
C16B C7B 1_555 1_555
H8B C16B 1_555 1_555
O8B C23B 1_555 1_555
O8C Co2 1_555 1_555
C17B C12B 1_555 1_555
H9B C17B 1_555 1_555
C18B C1B 1_555 1_555
H10B C18B 1_555 1_555
C19C C15C 1_555 1_555
H11C C19C 1_555 1_555
C20B C8B 1_555 1_555
C21B C3B 1_555 1_555
H12B C21B 1_555 1_555
H13B C21B 1_555 1_555
C22C N1C 1_555 1_555
H14C C22C 1_555 1_555
C23B C24B 1_555 1_555
C24B C24 1_555 1_555
H15B C24B 1_555 1_555
H16B C24B 1_555 1_555
C25B C17B 1_555 1_555
H17B C25B 1_555 1_555
C26C C4C 1_555 1_555
C27C C26C 1_555 1_555
H18C C27C 1_555 1_555
C28B N3B 1_555 1_555
H19B C28B 1_555 1_555
C29B C29 1_555 1_555
H20B C29B 1_555 1_555
H21B C29B 1_555 1_555
C30C C19C 1_555 1_555
H22C C30C 1_555 1_555
C31C C6C 1_555 1_555
H23C C31C 1_555 1_555
C32C C14C 1_555 1_555
H24C C32C 1_555 1_555
O5 C3 1_555 1_555
C1 C28 1_555 1_555
C2 C8 1_555 1_555
C4 C5 1_555 1_555
C6 C22 1_555 1_555
C9 C12 1_555 1_555
C9 C16 1_555 1_555
C13 C21 1_555 1_555
C14 C31 1_555 1_555
O8 Co2C 1_555 1_555
C18 C20 1_555 1_555
C20 C25 1_555 1_555
C26 C30 1_555 1_555
C27 C32 1_555 1_555
O5B C3B 1_555 1_555
C1B C28B 1_555 1_555
C2B C8B 1_555 1_555
C4C C5C 1_555 1_555
C6C C22C 1_555 1_555
C9B C12B 1_555 1_555
C9B C16B 1_555 1_555
C13B C21B 1_555 1_555
C14C C31C 1_555 1_555
C18B C20B 1_555 1_555
C20B C25B 1_555 1_555
C26C C30C 1_555 1_555
C27C C32C 1_555 1_555

#END
