
#######################################################################
#
#                 Cambridge Crystallographic Data Centre
#                                CCDC 
#
#######################################################################
#
# If this CIF has been generated from an entry in the Cambridge 
# Structural Database, then it will include bibliographic, chemical, 
# crystal, experimental, refinement or atomic coordinate data resulting 
# from the CCDC's data processing and validation procedures.
#
#######################################################################

data_GECRAI
_symmetry_cell_setting           monoclinic
_symmetry_space_group_name_H-M   'C 2/c'
_symmetry_Int_Tables_number      15
_space_group_name_Hall           '-C 2yn'
loop_
_symmetry_equiv_pos_site_id
_symmetry_equiv_pos_as_xyz
1 x,y,z
2 1/2+x,1/2+y,z
3 -x,y,1/2-z
4 1/2-x,1/2+y,1/2-z
5 -x,-y,-z
6 1/2-x,1/2-y,-z
7 x,-y,1/2+z
8 1/2+x,1/2-y,1/2+z
_cell_length_a                   14.5794(11)
_cell_length_b                   10.2424(8)
_cell_length_c                   18.7815(14)
_cell_angle_alpha                90
_cell_angle_beta                 98.8370(10)
_cell_angle_gamma                90
_cell_volume                     2771.31
loop_
_atom_site_label
_atom_site_type_symbol
_atom_site_fract_x
_atom_site_fract_y
_atom_site_fract_z
V1 V 0.15469(3) 0.62181(4) 0.08849(2)
V2 V 0.22975(4) 0.56336(5) 0.28294(2)
P1 P 0.66015(5) 0.83944(6) 0.17148(3)
P2 P 0.28201(5) 0.88091(6) 0.07392(3)
O1 O 0.19108(13) 0.80720(18) 0.07557(10)
O2 O 0.29155(16) 0.92290(19) -0.00276(10)
O3 O 0.04484(16) 0.6341(2) 0.06918(14)
O4 O 0.1936(2) 0.6558(2) 0.19040(12)
O5 O 0.67126(14) 0.93479(18) 0.11024(10)
O6 O 0.65681(15) 0.91020(19) 0.24249(10)
O7 O 0.33253(17) 0.5100(2) 0.27584(13)
O8 O 0.73854(14) 0.73995(18) 0.17560(10)
O9 O 0.28529(14) 1.00492(17) 0.11925(10)
C1 C 0.55125(18) 0.7560(2) 0.14771(14)
H7 H 0.5563 0.6947 0.1077
H8 H 0.5386 0.7039 0.1895
C2 C 0.37743(19) 0.7756(2) 0.10803(14)
H9 H 0.3640 0.7323 0.1524
H10 H 0.3832 0.7067 0.0720
C3 C 0.46957(19) 0.8485(3) 0.12485(14)
H11 H 0.4658 0.9121 0.1640
H12 H 0.4806 0.8978 0.0816
H15 H 0.205(3) 0.706(5) 0.196(3)
V1E V 0.34531(3) 0.87819(4) -0.08849(2)
V1A V 0.65469(3) 1.12181(4) 0.08849(2)
V1D V -0.15469(3) 0.37819(4) -0.08849(2)
V2A V 0.72975(4) 1.06336(5) 0.28294(2)
V2B V 0.77025(4) 0.56336(5) 0.21706(2)
V2C V 0.27025(4) 1.06336(5) 0.21706(2)
V2D V -0.22975(4) 0.43664(5) -0.28294(2)
V2G V -0.27025(4) 0.93664(5) -0.21706(2)
V2F V 0.22975(4) 0.43664(5) -0.21706(2)
P1E P -0.16015(5) 0.66056(6) -0.17148(3)
P2E P 0.21799(5) 0.61909(6) -0.07392(3)
O1E O 0.30892(13) 0.69280(18) -0.07557(10)
O2E O 0.20845(16) 0.57710(19) 0.00276(10)
O3E O 0.45516(16) 0.8659(2) -0.06918(14)
O4E O 0.3064(2) 0.8442(2) -0.19040(12)
O4A O 0.6936(2) 1.1558(2) 0.19040(12)
O5E O -0.17126(14) 0.56521(18) -0.11024(10)
O5A O 0.17126(14) 0.43479(18) 0.11024(10)
O5D O 0.32874(14) 1.06521(18) -0.11024(10)
O6E O -0.15681(15) 0.58980(19) -0.24249(10)
O6A O 0.15681(15) 0.41020(19) 0.24249(10)
O7A O 0.83253(17) 1.0100(2) 0.27584(13)
O8E O -0.23854(14) 0.76005(18) -0.17560(10)
O8B O 0.26146(14) 0.73995(18) 0.32440(10)
O8C O 0.76146(14) 1.23995(18) 0.32440(10)
O9E O 0.21471(14) 0.49508(17) -0.11925(10)
O9C O 0.21471(14) 0.50492(17) 0.38075(10)
O9B O 0.71471(14) 1.00492(17) 0.38075(10)
C1E C -0.05125(18) 0.7440(2) -0.14771(14)
H7E H -0.0563 0.8053 -0.1077
H8E H -0.0386 0.7961 -0.1895
C2E C 0.12257(19) 0.7244(2) -0.10803(14)
H9E H 0.1360 0.7677 -0.1524
H10E H 0.1168 0.7933 -0.0720
C3E C 0.03043(19) 0.6515(3) -0.12485(14)
H11E H 0.0342 0.5879 -0.1640
H12E H 0.0194 0.6022 -0.0816
H15E H 0.295(3) 0.794(5) -0.196(3)
H15A H 0.705(3) 1.206(5) 0.196(3)
O10 O 0.0803(2) 0.6500(3) 0.30017(17)
O11 O 0.0083(2) 0.9200(3) 0.05864(19)
O12 O 0.0479(6) 0.9134(6) 0.3081(4)
N1 N 0.1337(3) 0.6924(3) 0.46749(19)
H1 H 0.0793 0.7358 0.4546
H2 H 0.1273 0.6339 0.5029
H3 H 0.1490 0.6493 0.4286
C4 C 0.2038(2) 0.7815(4) 0.49273(18)
H13 H 0.1897 0.8224 0.5376
H14 H 0.2051 0.8514 0.4565
N1E N 0.3663(3) 0.8076(3) 0.53251(19)
H1E H 0.4207 0.7642 0.5454
H2E H 0.3727 0.8661 0.4971
H3E H 0.3510 0.8507 0.5714
C4E C 0.2962(2) 0.7185(4) 0.50727(18)
H13E H 0.3103 0.6776 0.4624
H14E H 0.2949 0.6486 0.5435
N2? N 0.1616(7) 0.8431(9) 0.4308(5)
H4? H 0.1581 0.7870 0.3930
H5? H 0.1955 0.9144 0.4221
H6? H 0.1034 0.8686 0.4366
loop_
_geom_bond_atom_site_label_1
_geom_bond_atom_site_label_2
_geom_bond_site_symmetry_1
_geom_bond_site_symmetry_2
V1 O1 1_555 1_555
V2 O4 1_555 1_555
P1 O5 1_555 1_555
P2 O1 1_555 1_555
O2 P2 1_555 1_555
O3 V1 1_555 1_555
O4 V1 1_555 1_555
O5 V1A 1_555 1_555
O6 P1 1_555 1_555
O7 V2 1_555 1_555
O8 P1 1_555 1_555
O9 P2 1_555 1_555
N1 H1 1_555 1_555
H2 N1 1_555 1_555
H3 N1 1_555 1_555
C1 P1 1_555 1_555
H7 C1 1_555 1_555
H8 C1 1_555 1_555
C2 P2 1_555 1_555
H9 C2 1_555 1_555
H10 C2 1_555 1_555
C3 C1 1_555 1_555
H11 C3 1_555 1_555
H12 C3 1_555 1_555
C4 N1 1_555 1_555
H13 C4 1_555 1_555
H14 C4 1_555 1_555
H15 O4 1_555 1_555
V1E O2 1_555 1_555
V1A O4A 1_555 1_555
V1D O5E 1_555 1_555
V2A O6 1_555 1_555
V2B O8 1_555 1_555
V2C O9 1_555 1_555
V2D O6E 1_555 1_555
V2G O8E 1_555 1_555
V2F O9E 1_555 1_555
P1E O5E 1_555 1_555
P2E O1E 1_555 1_555
O1E V1E 1_555 1_555
O2E V1 1_555 1_555
O3E V1E 1_555 1_555
O4E V1E 1_555 1_555
O4A V2A 1_555 1_555
O5A V1 1_555 1_555
O5D V1E 1_555 1_555
O6E P1E 1_555 1_555
O6A V2 1_555 1_555
O7A V2A 1_555 1_555
O8E P1E 1_555 1_555
O8B V2 1_555 1_555
O8C V2A 1_555 1_555
O9E P2E 1_555 1_555
O9C V2 1_555 1_555
O9B V2A 1_555 1_555
N1E H1E 1_555 1_555
H2E N1E 1_555 1_555
H3E N1E 1_555 1_555
C1E P1E 1_555 1_555
H7E C1E 1_555 1_555
H8E C1E 1_555 1_555
C2E P2E 1_555 1_555
H9E C2E 1_555 1_555
H10E C2E 1_555 1_555
C3E C1E 1_555 1_555
H11E C3E 1_555 1_555
H12E C3E 1_555 1_555
C4E C4 1_555 1_555
H13E C4E 1_555 1_555
H14E C4E 1_555 1_555
H15E O4E 1_555 1_555
H15A O4A 1_555 1_555
C2 C3 1_555 1_555
P2E O2E 1_555 1_555
N1E C4E 1_555 1_555
C2E C3E 1_555 1_555

#END
