
#######################################################################
#
#                 Cambridge Crystallographic Data Centre
#                                CCDC 
#
#######################################################################
#
# If this CIF has been generated from an entry in the Cambridge 
# Structural Database, then it will include bibliographic, chemical, 
# crystal, experimental, refinement or atomic coordinate data resulting 
# from the CCDC's data processing and validation procedures.
#
#######################################################################

data_GECXUH01
_symmetry_cell_setting           monoclinic
_symmetry_space_group_name_H-M   'P 21/n'
_symmetry_Int_Tables_number      14
_space_group_name_Hall           '-P 2yn'
loop_
_symmetry_equiv_pos_site_id
_symmetry_equiv_pos_as_xyz
1 x,y,z
2 1/2-x,1/2+y,1/2-z
3 -x,-y,-z
4 1/2+x,1/2-y,1/2+z
_cell_length_a                   6.7334(3)
_cell_length_b                   15.5158(7)
_cell_length_c                   12.4532(6)
_cell_angle_alpha                90
_cell_angle_beta                 102.7950(10)
_cell_angle_gamma                90
_cell_volume                     1268.73
loop_
_atom_site_label
_atom_site_type_symbol
_atom_site_fract_x
_atom_site_fract_y
_atom_site_fract_z
Zn1 Zn 0.70004(7) 0.00501(3) 0.07703(3)
C1 C 0.3330(6) -0.1717(2) 0.2133(3)
C2 C 0.1284(6) -0.1957(2) 0.1891(3)
H1 H 0.0374 -0.1698 0.1309
C3 C 0.0615(7) -0.2580(2) 0.2517(3)
H2 H -0.0758 -0.2727 0.2363
C4 C 0.1934(6) -0.2989(2) 0.3366(3)
C5 C 0.3975(7) -0.2743(2) 0.3613(3)
H3 H 0.4884 -0.3007 0.4190
C6 C 0.4651(7) -0.2111(3) 0.3005(4)
H4 H 0.6012 -0.1947 0.3182
C7 C 0.4064(7) -0.1054(2) 0.1427(3)
O1 O 0.5868(5) -0.0800(2) 0.1721(3)
O2 O 0.2836(5) -0.0794(2) 0.0591(3)
C8 C 0.1190(7) -0.3708(2) 0.3980(3)
O3 O 0.2441(5) -0.40297(19) 0.4796(3)
O4 O -0.0603(5) -0.3950(2) 0.3665(3)
O5 O 0.9850(5) 0.02010(18) 0.1571(2)
H5 H 1.044(9) 0.012(3) 0.2355(12)
H6 H 1.075(12) 0.026(6) 0.105(6)
O2B O 0.7164(5) 0.0794(2) -0.0591(3)
O3C O 0.7441(5) -0.09703(19) -0.0204(3)
O4A O 0.5603(5) 0.1050(2) 0.1335(3)
Zn1B Zn 0.29996(7) -0.00501(3) -0.07703(3)
Zn1C Zn 0.20004(7) -0.50501(3) 0.57703(3)
Zn1A Zn -0.20004(7) -0.49499(3) 0.42297(3)
O6 O 1.1428(6) -0.0134(2) 0.3628(3)
C9 C 1.0637(8) -0.0708(3) 0.4069(4)
H7 H 0.9410 -0.0932 0.3676
N1 N 1.1382(7) -0.1029(3) 0.5049(3)
C10 C 1.0353(9) -0.1723(4) 0.5504(5)
H8 H 1.1126 -0.1870 0.6224
H9 H 1.0240 -0.2218 0.5032
H10 H 0.9018 -0.1535 0.5554
C11 C 1.3283(10) -0.0708(4) 0.5718(5)
H11 H 1.3597 -0.1014 0.6404
H12 H 1.3152 -0.0104 0.5857
H13 H 1.4358 -0.0793 0.5334
loop_
_geom_bond_atom_site_label_1
_geom_bond_atom_site_label_2
_geom_bond_site_symmetry_1
_geom_bond_site_symmetry_2
Zn1 O1 1_555 1_555
C1 C2 1_555 1_555
C2 H1 1_555 1_555
C3 C2 1_555 1_555
H2 C3 1_555 1_555
C4 C3 1_555 1_555
C5 C4 1_555 1_555
H3 C5 1_555 1_555
C6 C1 1_555 1_555
H4 C6 1_555 1_555
C7 C1 1_555 1_555
O1 C7 1_555 1_555
O2 C7 1_555 1_555
C8 C4 1_555 1_555
O3 C8 1_555 1_555
O4 C8 1_555 1_555
O5 Zn1 1_555 1_555
H5 O5 1_555 1_555
H6 O5 1_555 1_555
O6 C9 1_555 1_555
C9 H7 1_555 1_555
N1 C9 1_555 1_555
C10 N1 1_555 1_555
H8 C10 1_555 1_555
H9 C10 1_555 1_555
H10 C10 1_555 1_555
C11 N1 1_555 1_555
H11 C11 1_555 1_555
H12 C11 1_555 1_555
H13 C11 1_555 1_555
O2B Zn1 1_555 1_555
O3C Zn1 1_555 1_555
O4A Zn1 1_555 1_555
Zn1B O2 1_555 1_555
Zn1C O3 1_555 1_555
Zn1A O4 1_555 1_555
C5 C6 1_555 1_555

#END
