
#######################################################################
#
#                 Cambridge Crystallographic Data Centre
#                                CCDC 
#
#######################################################################
#
# If this CIF has been generated from an entry in the Cambridge 
# Structural Database, then it will include bibliographic, chemical, 
# crystal, experimental, refinement or atomic coordinate data resulting 
# from the CCDC's data processing and validation procedures.
#
#######################################################################

data_GECXUH
_symmetry_cell_setting           monoclinic
_symmetry_space_group_name_H-M   'P 21/n'
_symmetry_Int_Tables_number      14
_space_group_name_Hall           '-P 2yn'
loop_
_symmetry_equiv_pos_site_id
_symmetry_equiv_pos_as_xyz
1 x,y,z
2 1/2-x,1/2+y,1/2-z
3 -x,-y,-z
4 1/2+x,1/2-y,1/2+z
_cell_length_a                   6.718(3)
_cell_length_b                   15.488(7)
_cell_length_c                   12.430(8)
_cell_angle_alpha                90
_cell_angle_beta                 102.83(4)
_cell_angle_gamma                90
_cell_volume                     1261.03
loop_
_atom_site_label
_atom_site_type_symbol
_atom_site_fract_x
_atom_site_fract_y
_atom_site_fract_z
O1 O -0.0600(6) 0.3952(3) 0.3669(3)
O2 O 0.2442(6) 0.4030(3) 0.4791(3)
O3 O 0.2841(6) 0.0796(3) 0.0587(3)
O4 O 0.5876(6) 0.0805(3) 0.1715(3)
O5 O -0.4830(5) 0.4787(2) 0.3431(3)
C1 C 0.1948(8) 0.2990(3) 0.3372(4)
C2 C 0.0599(8) 0.2584(3) 0.2513(4)
C3 C 0.1280(8) 0.1960(3) 0.1895(4)
C4 C 0.3324(8) 0.1713(3) 0.2125(4)
C5 C 0.4671(8) 0.2112(3) 0.3003(4)
C6 C 0.3991(8) 0.2743(3) 0.3617(4)
C7 C 0.1213(8) 0.3706(3) 0.3998(4)
C8 C 0.4067(8) 0.1054(3) 0.1419(4)
Zn1 Zn -0.2003(1) 0.4950(1) 0.4229(1)
H1 H -0.5545(5) 0.5169(2) 0.3605(3)
H2 H -0.5456(5) 0.4932(2) 0.2795(3)
H3 H -0.0775(8) 0.2736(3) 0.2354(4)
H4 H 0.0363(8) 0.1699(3) 0.1315(4)
H5 H 0.6038(8) 0.1950(3) 0.3175(4)
H6 H 0.4903(8) 0.3005(3) 0.4198(4)
Zn1B Zn 0.2003(1) 0.5050(1) 0.5771(1)
Zn1C Zn 0.2997(1) 0.0050(1) -0.0771(1)
Zn1A Zn 0.7003(1) -0.0050(1) 0.0771(1)
O2B O -0.2442(6) 0.5970(3) 0.5209(3)
O3C O -0.2159(6) 0.4204(3) 0.5587(3)
O4A O -0.0876(6) 0.5805(3) 0.3285(3)
O6 O 0.6439(7) 0.4869(3) 0.8628(3)
N1 N 0.6382(9) 0.3967(4) 1.0052(4)
C9 C 0.5644(11) 0.4286(4) 0.9060(5)
C10 C 0.5375(13) 0.3279(5) 1.0506(7)
C11 C 0.8278(12) 0.4285(6) 1.0706(6)
H7 H 0.4432(11) 0.4053(4) 0.8655(5)
H8 H 0.6145(13) 0.3138(5) 1.1231(7)
H9 H 0.5282(13) 0.2779(5) 1.0040(7)
H10 H 0.4029(13) 0.3461(5) 1.0548(7)
H11 H 0.8592(12) 0.3986(6) 1.1400(6)
H12 H 0.8159(12) 0.4892(6) 1.0834(6)
H13 H 0.9350(12) 0.4189(6) 1.0322(6)
H14? H 0.4159(13) 0.3114(5) 0.9981(7)
H15? H 0.5022(13) 0.3473(5) 1.1173(7)
H16? H 0.6275(13) 0.2791(5) 1.0665(7)
H17? H 0.8809(12) 0.4725(6) 1.0304(6)
H18? H 0.9241(12) 0.3819(6) 1.0870(6)
H19? H 0.8051(12) 0.4522(6) 1.1382(6)
loop_
_geom_bond_atom_site_label_1
_geom_bond_atom_site_label_2
_geom_bond_site_symmetry_1
_geom_bond_site_symmetry_2
O1 C7 1_555 1_555
O2 C7 1_555 1_555
O3 C8 1_555 1_555
O4 C8 1_555 1_555
O5 Zn1 1_555 1_555
C1 C2 1_555 1_555
C2 C3 1_555 1_555
C3 C4 1_555 1_555
C4 C5 1_555 1_555
C5 C6 1_555 1_555
C6 C1 1_555 1_555
C7 C1 1_555 1_555
C8 C4 1_555 1_555
Zn1 O1 1_555 1_555
H1 O5 1_555 1_555
H2 O5 1_555 1_555
H3 C2 1_555 1_555
H4 C3 1_555 1_555
H5 C5 1_555 1_555
H6 C6 1_555 1_555
O6 C9 1_555 1_555
N1 C9 1_555 1_555
C9 H7 1_555 1_555
C10 N1 1_555 1_555
C11 N1 1_555 1_555
H8 C10 1_555 1_555
H9 C10 1_555 1_555
H10 C10 1_555 1_555
H11 C11 1_555 1_555
H12 C11 1_555 1_555
H13 C11 1_555 1_555
Zn1B O2 1_555 1_555
Zn1C O3 1_555 1_555
Zn1A O4 1_555 1_555
O2B Zn1 1_555 1_555
O3C Zn1 1_555 1_555
O4A Zn1 1_555 1_555

#END
