
#######################################################################
#
#                 Cambridge Crystallographic Data Centre
#                                CCDC 
#
#######################################################################
#
# If this CIF has been generated from an entry in the Cambridge 
# Structural Database, then it will include bibliographic, chemical, 
# crystal, experimental, refinement or atomic coordinate data resulting 
# from the CCDC's data processing and validation procedures.
#
#######################################################################

data_GECXUH03
_symmetry_cell_setting           monoclinic
_symmetry_space_group_name_H-M   'P 21/n'
_symmetry_Int_Tables_number      14
_space_group_name_Hall           '-P 2yn'
loop_
_symmetry_equiv_pos_site_id
_symmetry_equiv_pos_as_xyz
1 x,y,z
2 1/2-x,1/2+y,1/2-z
3 -x,-y,-z
4 1/2+x,1/2-y,1/2+z
_cell_length_a                   6.723(3)
_cell_length_b                   15.481(6)
_cell_length_c                   12.435(5)
_cell_angle_alpha                90
_cell_angle_beta                 102.825(5)
_cell_angle_gamma                90
_cell_volume                     1261.93
loop_
_atom_site_label
_atom_site_type_symbol
_atom_site_fract_x
_atom_site_fract_y
_atom_site_fract_z
Zn1 Zn 1.20028(5) 0.00508(2) 0.07717(3)
O1 O 1.0605(4) 0.10507(16) 0.1332(2)
O2 O 0.7566(4) 0.09709(15) 0.02082(19)
O3 O 0.7158(4) 0.42057(17) 0.44117(19)
O4 O 0.4124(4) 0.42002(17) 0.3278(2)
O5 O 1.4833(3) 0.02033(16) 0.1575(2)
H1 H 1.547(5) 0.010(2) 0.2218(17)
H2 H 1.563(5) 0.020(3) 0.116(3)
C1 C 0.8799(5) 0.12906(19) 0.1010(3)
C2 C 0.8054(5) 0.20112(19) 0.1624(2)
C3 C 0.9395(5) 0.2424(2) 0.2484(3)
H3 H 1.0771 0.2278 0.2640
C4 C 0.8717(5) 0.3044(2) 0.3106(3)
H4 H 0.9630 0.3306 0.3686
C5 C 0.6672(5) 0.32845(19) 0.2873(2)
C6 C 0.5336(5) 0.2891(2) 0.1994(3)
H5 H 0.3971 0.3055 0.1818
C7 C 0.6019(5) 0.2259(2) 0.1378(3)
H6 H 0.5109 0.1999 0.0796
C8 C 0.5920(5) 0.3944(2) 0.3570(3)
Zn1B Zn 0.79972(5) -0.00508(2) -0.07717(3)
Zn1A Zn 0.29972(5) 0.50508(2) 0.42283(3)
Zn1C Zn 0.70028(5) 0.49492(2) 0.57717(3)
O2B O 1.2434(4) -0.09709(15) -0.02082(19)
O3C O 1.2158(4) 0.07943(17) -0.05883(19)
O4A O 1.0876(4) -0.07998(17) 0.1722(2)
N1 N 0.6381(6) 0.8965(2) 0.5047(3)
O6 O 0.6433(5) 0.98688(19) 0.3624(2)
C9 C 0.5633(7) 0.9293(3) 0.4064(3)
H7 H 0.4401 0.9070 0.3669
C10 C 0.5337(8) 0.8284(3) 0.5503(4)
H8 H 0.4096 0.8138 0.4987
H9 H 0.5025 0.8478 0.6180
H10 H 0.6199 0.7783 0.5644
C11 C 0.8277(8) 0.9286(3) 0.5698(4)
H11 H 0.9358 0.8895 0.5644
H12 H 0.8181 0.9333 0.6454
H13 H 0.8557 0.9845 0.5430
loop_
_geom_bond_atom_site_label_1
_geom_bond_atom_site_label_2
_geom_bond_site_symmetry_1
_geom_bond_site_symmetry_2
Zn1 O1 1_555 1_555
O1 C1 1_555 1_555
O2 C1 1_555 1_555
O3 C8 1_555 1_555
O4 C8 1_555 1_555
O5 Zn1 1_555 1_555
H1 O5 1_555 1_555
H2 O5 1_555 1_555
C1 C2 1_555 1_555
C2 C3 1_555 1_555
C3 H3 1_555 1_555
C4 C3 1_555 1_555
H4 C4 1_555 1_555
C5 C4 1_555 1_555
C6 C5 1_555 1_555
H5 C6 1_555 1_555
C7 C2 1_555 1_555
H6 C7 1_555 1_555
C8 C5 1_555 1_555
N1 C9 1_555 1_555
O6 C9 1_555 1_555
C9 H7 1_555 1_555
C10 N1 1_555 1_555
H8 C10 1_555 1_555
H9 C10 1_555 1_555
H10 C10 1_555 1_555
C11 N1 1_555 1_555
H11 C11 1_555 1_555
H12 C11 1_555 1_555
H13 C11 1_555 1_555
Zn1B O2 1_555 1_555
Zn1A O4 1_555 1_555
Zn1C O3 1_555 1_555
O2B Zn1 1_555 1_555
O3C Zn1 1_555 1_555
O4A Zn1 1_555 1_555
C6 C7 1_555 1_555

#END
