
#######################################################################
#
#                 Cambridge Crystallographic Data Centre
#                                CCDC 
#
#######################################################################
#
# If this CIF has been generated from an entry in the Cambridge 
# Structural Database, then it will include bibliographic, chemical, 
# crystal, experimental, refinement or atomic coordinate data resulting 
# from the CCDC's data processing and validation procedures.
#
#######################################################################

data_GECYIW
_symmetry_cell_setting           monoclinic
_symmetry_space_group_name_H-M   'P 21/n'
_symmetry_Int_Tables_number      14
_space_group_name_Hall           '-P 2yn'
loop_
_symmetry_equiv_pos_site_id
_symmetry_equiv_pos_as_xyz
1 x,y,z
2 1/2-x,1/2+y,1/2-z
3 -x,-y,-z
4 1/2+x,1/2-y,1/2+z
_cell_length_a                   7.574(4)
_cell_length_b                   7.151(3)
_cell_length_c                   23.031(3)
_cell_angle_alpha                90
_cell_angle_beta                 93.65(3)
_cell_angle_gamma                90
_cell_volume                     1244.87
loop_
_atom_site_label
_atom_site_type_symbol
_atom_site_fract_x
_atom_site_fract_y
_atom_site_fract_z
Mn1 Mn 0.3377(3) 0.5845(3) -0.32390(8)
O1 O 0.5566(11) 0.3878(12) -0.3338(3)
O2 O 0.0808(11) 0.7328(11) -0.3176(3)
C1 C 0.1810(17) 0.3680(18) -0.4488(5)
C2 C 0.2684(17) 0.5192(17) -0.4702(5)
C3 C 0.2839(16) 0.5454(19) -0.5285(5)
C4 C 0.2090(15) 0.4079(21) -0.5672(5)
C5 C 0.1245(17) 0.2598(18) -0.5462(5)
C6 C 0.1084(17) 0.2343(19) -0.4875(5)
O4 O 0.1722(11) 0.3637(11) -0.3896(3)
C7 C 0.0829(17) 0.2132(18) -0.3649(5)
C8 C 0.1067(16) 0.2328(18) -0.2992(5)
O5 O 0.1986(11) 0.3671(12) -0.2786(3)
O6 O 0.0369(10) 0.1092(12) -0.2680(3)
O7 O 0.3334(11) 0.6444(12) -0.4270(3)
C9 C 0.4034(17) 0.8199(18) -0.4471(5)
C10 C 0.4783(16) 0.9188(2) -0.3918(5)
O8 O 0.4717(12) 0.8434(12) -0.3424(3)
O9 O 0.5438(13) 1.0777(13) -0.4005(4)
H1 H 0.3427 0.6531 -0.5430
H2 H 0.2193 0.4212 -0.6083
H3 H 0.0739 0.1686 -0.5729
H4 H 0.0483 0.1274 -0.4731
H5 H -0.0342 0.2037 -0.3771
H6 H 0.1310 0.0786 -0.3754
H7 H 0.5343 0.7663 -0.4644
H8 H 0.3258 0.8929 -0.4730
H9 H 0.6310 0.3998 -0.3041
H10 H 0.1429 0.6598 -0.2953
H11 H -0.0344 0.6995 -0.3015
O6A O 0.4631(10) 0.6092(12) -0.2320(3)
Mn1A Mn 0.1623(3) 0.0845(3) -0.17610(8)
O3 O 0.6722(11) -0.0151(13) -0.2478(4)
H12 H 0.6190 -0.0125 -0.2853
H13 H 0.6704 0.1540 -0.2475
loop_
_geom_bond_atom_site_label_1
_geom_bond_atom_site_label_2
_geom_bond_site_symmetry_1
_geom_bond_site_symmetry_2
Mn1 O1 1_555 1_555
O1 H9 1_555 1_555
O2 Mn1 1_555 1_555
O3 H12 1_555 1_555
C1 C2 1_555 1_555
C2 C3 1_555 1_555
C3 C4 1_555 1_555
C4 C5 1_555 1_555
C5 C6 1_555 1_555
C6 C1 1_555 1_555
O4 Mn1 1_555 1_555
C7 O4 1_555 1_555
C8 C7 1_555 1_555
O5 Mn1 1_555 1_555
O6 C8 1_555 1_555
O7 Mn1 1_555 1_555
C9 O7 1_555 1_555
C10 C9 1_555 1_555
O8 Mn1 1_555 1_555
O9 C10 1_555 1_555
H1 C3 1_555 1_555
H2 C4 1_555 1_555
H3 C5 1_555 1_555
H4 C6 1_555 1_555
H5 C7 1_555 1_555
H6 C7 1_555 1_555
H7 C9 1_555 1_555
H8 C9 1_555 1_555
H10 O2 1_555 1_555
H11 O2 1_555 1_555
H13 O3 1_555 1_555
O6A Mn1 1_555 1_555
Mn1A O6 1_555 1_555
C1 O4 1_555 1_555
C2 O7 1_555 1_555
C8 O5 1_555 1_555
C10 O8 1_555 1_555

#END
