
#######################################################################
#
#                 Cambridge Crystallographic Data Centre
#                                CCDC 
#
#######################################################################
#
# If this CIF has been generated from an entry in the Cambridge 
# Structural Database, then it will include bibliographic, chemical, 
# crystal, experimental, refinement or atomic coordinate data resulting 
# from the CCDC's data processing and validation procedures.
#
#######################################################################

data_GECYES
_symmetry_cell_setting           monoclinic
_symmetry_space_group_name_H-M   'P 21/n'
_symmetry_Int_Tables_number      14
_space_group_name_Hall           '-P 2yn'
loop_
_symmetry_equiv_pos_site_id
_symmetry_equiv_pos_as_xyz
1 x,y,z
2 1/2-x,1/2+y,1/2-z
3 -x,-y,-z
4 1/2+x,1/2-y,1/2+z
_cell_length_a                   7.758(4)
_cell_length_b                   7.135(1)
_cell_length_c                   23.240(9)
_cell_angle_alpha                90
_cell_angle_beta                 93.25(4)
_cell_angle_gamma                90
_cell_volume                     1284.34
loop_
_atom_site_label
_atom_site_type_symbol
_atom_site_fract_x
_atom_site_fract_y
_atom_site_fract_z
Ca1 Ca 0.3286(1) 0.5823(1) -0.31951(3)
O1 O 0.5583(4) 0.3738(4) -0.3228(1)
O2 O 0.0435(4) 0.7102(4) -0.3162(1)
C1 C 0.1836(6) 0.3688(6) -0.4484(2)
C2 C 0.2686(5) 0.5259(6) -0.4685(2)
C3 C 0.2848(6) 0.5497(6) -0.5271(2)
C4 C 0.2130(7) 0.4170(6) -0.5653(2)
C5 C 0.1263(6) 0.2642(6) -0.5455(2)
C6 C 0.1123(6) 0.2405(6) -0.4869(2)
O4 O 0.1740(4) 0.3594(4) -0.3890(1)
C7 C 0.0801(6) 0.2082(6) -0.3667(2)
C8 C 0.1010(5) 0.2097(6) -0.3020(2)
O5 O 0.1930(4) 0.3300(5) -0.2767(1)
O6 O 0.0226(4) 0.0829(4) -0.2764(1)
O7 O 0.3318(5) 0.6473(4) -0.4259(1)
C9 C 0.4093(6) 0.8173(5) -0.4446(2)
C10 C 0.4801(6) 0.9273(6) -0.3921(2)
O8 O 0.4646(5) 0.8570(5) -0.3433(1)
O9 O 0.5486(6) 1.0796(5) -0.4030(1)
H1 H 0.3453 0.6561 -0.5412
H2 H 0.2242 0.4326 -0.6059
H3 H 0.0755 0.1749 -0.5723
H4 H 0.0533 0.1327 -0.4729
H5 H -0.0398 0.2198 -0.3789
H6 H 0.1242 0.0922 -0.3808
H7 H 0.5012 0.7888 -0.4691
H8 H 0.3234 0.8912 -0.4655
H9 H 0.6675 0.3845 -0.3072
H10 H 0.5576 0.2582 -0.3526
H11 H 0.0372 0.8328 -0.3047
H12 H -0.0289 0.6347 -0.2927
O6A O 0.4774(4) 0.5829(4) -0.2236(1)
Ca1A Ca 0.1714(1) 0.0823(1) -0.18049(3)
O3 O 0.6756(4) -0.0048(5) -0.2506(1)
H13 H 0.5622 -0.0758 -0.2783
H14 H 0.7938 0.0422 -0.2619
loop_
_geom_bond_atom_site_label_1
_geom_bond_atom_site_label_2
_geom_bond_site_symmetry_1
_geom_bond_site_symmetry_2
Ca1 O1 1_555 1_555
O1 H9 1_555 1_555
O2 Ca1 1_555 1_555
O3 H13 1_555 1_555
C1 C2 1_555 1_555
C2 C3 1_555 1_555
C3 C4 1_555 1_555
C4 C5 1_555 1_555
C5 C6 1_555 1_555
C6 C1 1_555 1_555
O4 Ca1 1_555 1_555
C7 O4 1_555 1_555
C8 C7 1_555 1_555
O5 Ca1 1_555 1_555
O6 C8 1_555 1_555
O7 Ca1 1_555 1_555
C9 O7 1_555 1_555
C10 C9 1_555 1_555
O8 Ca1 1_555 1_555
O9 C10 1_555 1_555
H1 C3 1_555 1_555
H2 C4 1_555 1_555
H3 C5 1_555 1_555
H4 C6 1_555 1_555
H5 C7 1_555 1_555
H6 C7 1_555 1_555
H7 C9 1_555 1_555
H8 C9 1_555 1_555
H10 O1 1_555 1_555
H11 O2 1_555 1_555
H12 O2 1_555 1_555
H14 O3 1_555 1_555
O6A Ca1 1_555 1_555
Ca1A O6 1_555 1_555
C1 O4 1_555 1_555
C2 O7 1_555 1_555
C8 O5 1_555 1_555
C10 O8 1_555 1_555

#END
