
#######################################################################
#
#                 Cambridge Crystallographic Data Centre
#                                CCDC 
#
#######################################################################
#
# If this CIF has been generated from an entry in the Cambridge 
# Structural Database, then it will include bibliographic, chemical, 
# crystal, experimental, refinement or atomic coordinate data resulting 
# from the CCDC's data processing and validation procedures.
#
#######################################################################

data_GECZOD
_symmetry_cell_setting           triclinic
_symmetry_space_group_name_H-M   'P -1'
_symmetry_Int_Tables_number      2
_space_group_name_Hall           '-P 1'
loop_
_symmetry_equiv_pos_site_id
_symmetry_equiv_pos_as_xyz
1 x,y,z
2 -x,-y,-z
_cell_length_a                   8.968(2)
_cell_length_b                   11.596(3)
_cell_length_c                   18.887(5)
_cell_angle_alpha                95.67(2)
_cell_angle_beta                 91.33(2)
_cell_angle_gamma                90.25(2)
_cell_volume                     1953.93
loop_
_atom_site_label
_atom_site_type_symbol
_atom_site_fract_x
_atom_site_fract_y
_atom_site_fract_z
Cd1 Cd 0.2261(1) 0.7589(1) 0.4580(1)
Cd2 Cd 0.2081(1) 1.1744(1) 0.3994(1)
C1 C 0.0869(16) 0.6627(12) 0.2015(8)
C2 C 0.1402(23) 0.7316(17) 0.1500(11)
C3 C 0.0726(25) 0.7085(18) 0.0788(12)
C4 C -0.0261(24) 0.6217(17) 0.0611(11)
C5 C -0.0821(20) 0.5603(15) 0.1142(10)
O1 O 0.3614(12) 1.3488(9) 0.4403(6)
O2 O 0.3190(13) 1.1232(9) 0.4993(6)
C6 C 0.5152(17) 0.3993(13) 0.1937(9)
C7 C 0.6007(20) 0.3067(15) 0.1606(10)
C8 C 0.6033(26) 0.2811(19) 0.0858(13)
C9 C 0.5155(29) 0.3468(22) 0.0444(14)
C10 C 0.4305(27) 0.4338(20) 0.0738(13)
C11 C -0.0217(19) 0.5743(14) 0.1817(10)
C12 C 0.1507(16) 0.6791(13) 0.2764(9)
S1 S 0.0217(5) 0.7058(3) 0.3470(2)
C13 C -0.0426(16) 0.8503(12) 0.3364(8)
C14 C 0.0725(16) 0.9447(12) 0.3620(8)
O3 O 0.0423(11) 1.0440(8) 0.3414(6)
O4 O 0.1826(12) 0.9265(8) 0.3993(6)
C15 C -0.0008(17) 0.7893(12) 0.7975(8)
C16 C 0.0502(19) 0.9043(14) 0.8153(9)
C17 C 0.0016(23) 0.9673(17) 0.8783(11)
C18 C -0.0949(23) 0.9223(17) 0.9228(11)
C19 C -0.1479(23) 0.8083(17) 0.9026(11)
C20 C -0.1003(20) 0.7478(15) 0.8458(10)
C21 C 0.0516(18) 0.7229(13) 0.7314(9)
S2 S -0.1081(4) 0.6578(3) 0.6821(2)
C22 C -0.0187(16) 0.5775(11) 0.6083(8)
C23 C 0.0440(16) 0.6490(12) 0.5532(8)
O5 O 0.1460(11) 0.6092(8) 0.5154(5)
O6 O -0.0114(11) 0.7498(9) 0.5403(6)
C24 C 0.4325(21) 0.4627(15) 0.1480(11)
C25 C 0.5161(19) 0.4302(14) 0.2736(9)
S3 S 0.6466(5) 0.5502(3) 0.2928(3)
C26 C 0.6285(17) 0.5818(13) 0.3881(9)
C27 C 0.4781(16) 0.6382(12) 0.4027(8)
O7 O 0.4737(11) 0.7483(8) 0.4179(6)
O8 O 0.3633(12) 0.5791(9) 0.4041(6)
C28 C 0.5370(16) 1.0589(12) 0.8026(8)
C29 C 0.4606(18) 1.1605(13) 0.7853(9)
C30 C 0.3577(20) 1.2111(15) 0.8385(10)
C31 C 0.3292(22) 1.1656(16) 0.9017(11)
C32 C 0.4024(21) 1.0630(16) 0.9138(10)
C33 C 0.5083(18) 1.0119(14) 0.8654(9)
C34 C 0.6486(17) 1.0065(13) 0.7520(9)
S4 S 0.5729(4) 0.8818(3) 0.6952(2)
C35 C 0.4385(16) 0.9567(12) 0.6445(8)
C36 C 0.3667(15) 0.8713(11) 0.5883(8)
O9 O 0.2918(12) 0.9090(9) 0.5398(6)
O10 O 0.3789(12) 0.7628(9) 0.5919(6)
S2A S 0.1081(4) 1.3422(3) 0.3179(2)
O6A O 0.0114(11) 1.2502(9) 0.4597(6)
S4A S 0.4271(4) 1.1182(3) 0.3048(2)
Cd2A Cd -0.2081(1) 0.8256(1) 0.6006(1)
Cd2A_2 Cd 0.7919(1) 0.8256(1) 0.6006(1)
loop_
_geom_bond_atom_site_label_1
_geom_bond_atom_site_label_2
_geom_bond_site_symmetry_1
_geom_bond_site_symmetry_2
Cd1 S1 1_555 1_555
Cd2 O1 1_555 1_555
C1 C2 1_555 1_555
C2 C3 1_555 1_555
C3 C4 1_555 1_555
C4 C5 1_555 1_555
C5 C11 1_555 1_555
O2 Cd2 1_555 1_555
C6 C7 1_555 1_555
C7 C8 1_555 1_555
C8 C9 1_555 1_555
C9 C10 1_555 1_555
C10 C24 1_555 1_555
C11 C1 1_555 1_555
C12 C1 1_555 1_555
S1 C12 1_555 1_555
C13 S1 1_555 1_555
C14 C13 1_555 1_555
O3 Cd2 1_555 1_555
O4 Cd1 1_555 1_555
C15 C16 1_555 1_555
C16 C17 1_555 1_555
C17 C18 1_555 1_555
C18 C19 1_555 1_555
C19 C20 1_555 1_555
C20 C15 1_555 1_555
C21 C15 1_555 1_555
S2 C21 1_555 1_555
C22 S2 1_555 1_555
C23 C22 1_555 1_555
O5 Cd1 1_555 1_555
O6 Cd1 1_555 1_555
C24 C6 1_555 1_555
C25 C6 1_555 1_555
S3 C25 1_555 1_555
C26 S3 1_555 1_555
C27 C26 1_555 1_555
O7 Cd1 1_555 1_555
O8 Cd1 1_555 1_555
C28 C29 1_555 1_555
C29 C30 1_555 1_555
C30 C31 1_555 1_555
C31 C32 1_555 1_555
C32 C33 1_555 1_555
C33 C28 1_555 1_555
C34 C28 1_555 1_555
S4 C34 1_555 1_555
C35 S4 1_555 1_555
C36 C35 1_555 1_555
O9 Cd1 1_555 1_555
O10 C36 1_555 1_555
S2A Cd2 1_555 1_555
O6A Cd2 1_555 1_555
S4A Cd2 1_555 1_555
Cd2A S2 1_555 1_555
Cd2A_2 S4 1_555 1_555
C14 O3 1_555 1_555
C14 O4 1_555 1_555
C23 O5 1_555 1_555
C23 O6 1_555 1_555
O6 Cd2A 1_555 1_555
C27 O7 1_555 1_555
C27 O8 1_555 1_555
C36 O9 1_555 1_555

#END
