
#######################################################################
#
#                 Cambridge Crystallographic Data Centre
#                                CCDC 
#
#######################################################################
#
# If this CIF has been generated from an entry in the Cambridge 
# Structural Database, then it will include bibliographic, chemical, 
# crystal, experimental, refinement or atomic coordinate data resulting 
# from the CCDC's data processing and validation procedures.
#
#######################################################################

data_GEDCUP
_symmetry_cell_setting           triclinic
_symmetry_space_group_name_H-M   'P -1'
_symmetry_Int_Tables_number      2
_space_group_name_Hall           '-P 1'
loop_
_symmetry_equiv_pos_site_id
_symmetry_equiv_pos_as_xyz
1 x,y,z
2 -x,-y,-z
_cell_length_a                   7.1287(12)
_cell_length_b                   9.1313(15)
_cell_length_c                   11.6332(19)
_cell_angle_alpha                92.406(3)
_cell_angle_beta                 100.946(3)
_cell_angle_gamma                112.966(3)
_cell_volume                     678.881
loop_
_atom_site_label
_atom_site_type_symbol
_atom_site_fract_x
_atom_site_fract_y
_atom_site_fract_z
Na1 Na 0.24068(13) -0.50206(10) 0.96354(8)
O1 O 0.4485(3) -0.61524(18) 0.89262(14)
O2 O 0.1743(3) -1.3703(2) 0.81059(16)
O3 O 0.1307(3) -1.19798(19) 0.69269(14)
O4 O 0.0889(3) -1.30474(19) 1.02612(14)
O5 O 0.2204(3) -1.04426(19) 1.08927(14)
C1 C 0.5000(4) -0.6200(3) 0.7014(2)
C2 C 0.4257(3) -0.7070(3) 0.80324(19)
C3 C 0.3464(3) -0.8721(3) 0.7879(2)
C4 C 0.2897(3) -0.9549(3) 0.8828(2)
C5 C 0.2112(3) -1.1148(3) 0.89358(19)
C6 C 0.1712(4) -1.2414(3) 0.7988(2)
C7 C 0.0932(6) -1.3105(4) 0.5908(2)
C8 C 0.1101(9) -1.2216(5) 0.4886(3)
C9 C 0.1678(3) -1.1664(3) 1.0067(2)
C10 C 0.1864(4) -1.0774(3) 1.2052(2)
C11 C 0.2816(6) -0.9203(4) 1.2806(3)
F1 F 0.6966(4) -0.5219(3) 0.7329(2)
F2 F 0.3982(4) -0.5333(3) 0.66440(19)
F3 F 0.4854(5) -0.7120(3) 0.60850(18)
H1 H 0.339(4) -0.923(3) 0.714(2)
H2 H 0.314(3) -0.886(3) 0.9528(18)
H3 H -0.042(5) -1.382(4) 0.583(2)
H4 H 0.074(6) -1.297(5) 0.416(4)
H5 H 0.255(4) -1.145(3) 1.2314(18)
H6 H 0.442(7) -0.855(5) 1.288(3)
H7 H 0.205(5) -1.351(5) 0.606(4)
H8 H 0.248(8) -1.137(6) 0.504(4)
H9 H 0.039(4) -1.129(3) 1.1998(19)
H10 H 0.215(6) -0.852(4) 1.258(3)
H11 H 0.025(6) -1.163(5) 0.480(3)
H12 H 0.261(5) -0.934(4) 1.354(3)
Na1A Na 0.75932(13) -0.49794(10) 1.03646(8)
Na1_2 Na 0.24068(13) -1.50206(10) 0.96354(8)
Na1A_2 Na -0.24068(13) -1.49794(10) 1.03646(8)
O1A O 0.5515(3) -0.38476(18) 1.10738(14)
O2_2 O 0.1743(3) -0.3703(2) 0.81059(16)
O4_2 O 0.0889(3) -0.30474(19) 1.02612(14)
O4A O -0.0889(3) -0.69526(19) 0.97388(14)
loop_
_geom_bond_atom_site_label_1
_geom_bond_atom_site_label_2
_geom_bond_site_symmetry_1
_geom_bond_site_symmetry_2
Na1 O1 1_555 1_555
O1 C2 1_555 1_555
O2 C6 1_555 1_555
O3 C6 1_555 1_555
O4 C9 1_555 1_555
O5 C9 1_555 1_555
C1 C2 1_555 1_555
C2 C3 1_555 1_555
C3 C4 1_555 1_555
C4 C5 1_555 1_555
C5 C6 1_555 1_555
C7 O3 1_555 1_555
C8 C7 1_555 1_555
C9 C5 1_555 1_555
C10 O5 1_555 1_555
C11 C10 1_555 1_555
F1 C1 1_555 1_555
F2 C1 1_555 1_555
F3 C1 1_555 1_555
H1 C3 1_555 1_555
H2 C4 1_555 1_555
H3 C7 1_555 1_555
H4 C8 1_555 1_555
H5 C10 1_555 1_555
H6 C11 1_555 1_555
H7 C7 1_555 1_555
H8 C8 1_555 1_555
H9 C10 1_555 1_555
H10 C11 1_555 1_555
H11 C8 1_555 1_555
H12 C11 1_555 1_555
Na1A O1 1_555 1_555
Na1_2 O2 1_555 1_555
Na1A_2 O4 1_555 1_555
O1A Na1 1_555 1_555
O2_2 Na1 1_555 1_555
O4_2 Na1 1_555 1_555
O4A Na1 1_555 1_555
O4 Na1_2 1_555 1_555
Na1A O1A 1_555 1_555

#END
