
#######################################################################
#
#                 Cambridge Crystallographic Data Centre
#                                CCDC 
#
#######################################################################
#
# If this CIF has been generated from an entry in the Cambridge 
# Structural Database, then it will include bibliographic, chemical, 
# crystal, experimental, refinement or atomic coordinate data resulting 
# from the CCDC's data processing and validation procedures.
#
#######################################################################

data_GEDKUX
_symmetry_cell_setting           orthorhombic
_symmetry_space_group_name_H-M   'F d d 2'
_symmetry_Int_Tables_number      43
_space_group_name_Hall           'F 2 -2d'
loop_
_symmetry_equiv_pos_site_id
_symmetry_equiv_pos_as_xyz
1 x,y,z
2 -x,-y,z
3 1/4-x,1/4+y,1/4+z
4 3/4+x,3/4-y,1/4+z
5 x,1/2+y,1/2+z
6 -x,1/2-y,1/2+z
7 1/4-x,3/4+y,3/4+z
8 3/4+x,1/4-y,3/4+z
9 1/2+x,y,1/2+z
10 1/2-x,-y,1/2+z
11 3/4-x,1/4+y,3/4+z
12 1/4+x,3/4-y,3/4+z
13 1/2+x,1/2+y,z
14 1/2-x,1/2-y,z
15 3/4-x,3/4+y,1/4+z
16 1/4+x,1/4-y,1/4+z
_cell_length_a                   18.995(2)
_cell_length_b                   30.063(3)
_cell_length_c                   7.0904(6)
_cell_angle_alpha                90
_cell_angle_beta                 90
_cell_angle_gamma                90
_cell_volume                     4048.95
loop_
_atom_site_label
_atom_site_type_symbol
_atom_site_fract_x
_atom_site_fract_y
_atom_site_fract_z
C1 C 0.5654(3) 0.56039(18) 0.2626(8)
C2 C 0.5879(3) 0.59467(17) 0.4074(7)
C3 C 0.5736(3) 0.64002(18) 0.3797(8)
H1 H 0.5541 0.6497 0.2632
C4 C 0.5876(3) 0.67104(19) 0.5205(9)
H2 H 0.5787 0.7018 0.5006
C5 C 0.6148(3) 0.65604(18) 0.6905(8)
C6 C 0.6313(3) 0.6113(2) 0.7196(9)
H3 H 0.6509 0.6017 0.8360
C7 C 0.6186(3) 0.58096(18) 0.5757(9)
H4 H 0.6310 0.5506 0.5924
C8 C 0.4935(3) 0.6989(3) 0.9148(13)
H5 H 0.4662 0.7113 1.0196
H6 H 0.4850 0.6668 0.9064
H7 H 0.4791 0.7132 0.7967
C9 C 0.5702(3) 0.70715(17) 0.9478(8)
C10 C 0.6846(3) 0.7012(2) 0.9286(9)
H8 H 0.7305 0.6932 0.8877
N1 N 0.6712(2) 0.72697(17) 1.0727(9)
N2 N 0.5981(2) 0.73116(16) 1.0856(7)
N3 N 0.6233(2) 0.68711(16) 0.8439(7)
O1 O 0.5322(3) 0.57348(14) 0.1169(6)
O2 O 0.5771(2) 0.51999(13) 0.2977(11)
Cd1 Cd 0.5000 0.5000 0.04411(18)
C1A C 0.4346(3) 0.43961(18) 0.2626(8)
C2A C 0.4121(3) 0.40533(17) 0.4074(7)
C3A C 0.4264(3) 0.35998(18) 0.3797(8)
H1A H 0.4459 0.3503 0.2632
C4A C 0.4124(3) 0.32896(19) 0.5205(9)
H2A H 0.4213 0.2982 0.5006
C5A C 0.3852(3) 0.34396(18) 0.6905(8)
C6A C 0.3687(3) 0.3887(2) 0.7196(9)
H3A H 0.3491 0.3983 0.8360
C7A C 0.3814(3) 0.41904(18) 0.5757(9)
H4A H 0.3690 0.4494 0.5924
C8A C 0.5065(3) 0.3011(3) 0.9148(13)
H5A H 0.5338 0.2887 1.0196
H6A H 0.5150 0.3332 0.9064
H7A H 0.5209 0.2868 0.7967
C9A C 0.4298(3) 0.29285(17) 0.9478(8)
C10A C 0.3154(3) 0.2988(2) 0.9286(9)
H8A H 0.2695 0.3068 0.8877
N1A N 0.3288(2) 0.27303(17) 1.0727(9)
N1F N 0.5788(2) 0.47697(17) -0.1773(9)
N1G N 0.4212(2) 0.52303(17) -0.1773(9)
N2A N 0.4019(2) 0.26884(16) 1.0856(7)
N3A N 0.3767(2) 0.31289(16) 0.8439(7)
O1A O 0.4678(3) 0.42652(14) 0.1169(6)
O2A O 0.4229(2) 0.48001(13) 0.2977(11)
Cd1B Cd 0.7500 0.7500 1.29411(18)
Cd1C Cd 0.2500 0.2500 1.29411(18)
loop_
_geom_bond_atom_site_label_1
_geom_bond_atom_site_label_2
_geom_bond_site_symmetry_1
_geom_bond_site_symmetry_2
C1 C2 1_555 1_555
C2 C3 1_555 1_555
C3 H1 1_555 1_555
C4 C3 1_555 1_555
H2 C4 1_555 1_555
C5 C4 1_555 1_555
C6 C5 1_555 1_555
H3 C6 1_555 1_555
C7 C2 1_555 1_555
H4 C7 1_555 1_555
C8 H5 1_555 1_555
H6 C8 1_555 1_555
H7 C8 1_555 1_555
C9 C8 1_555 1_555
C10 H8 1_555 1_555
N1 C10 1_555 1_555
N2 C9 1_555 1_555
N3 C5 1_555 1_555
O1 C1 1_555 1_555
O2 C1 1_555 1_555
Cd1 O1 1_555 1_555
C1A C2A 1_555 1_555
C2A C3A 1_555 1_555
C3A H1A 1_555 1_555
C4A C3A 1_555 1_555
H2A C4A 1_555 1_555
C5A C4A 1_555 1_555
C6A C5A 1_555 1_555
H3A C6A 1_555 1_555
C7A C2A 1_555 1_555
H4A C7A 1_555 1_555
C8A H5A 1_555 1_555
H6A C8A 1_555 1_555
H7A C8A 1_555 1_555
C9A C8A 1_555 1_555
C10A H8A 1_555 1_555
N1A C10A 1_555 1_555
N1F Cd1 1_555 1_555
N1G Cd1 1_555 1_555
N2A C9A 1_555 1_555
N3A C5A 1_555 1_555
O1A Cd1 1_555 1_555
O2A Cd1 1_555 1_555
Cd1B N1 1_555 1_555
Cd1C N1A 1_555 1_555
C6 C7 1_555 1_555
C9 N3 1_555 1_555
C10 N3 1_555 1_555
N1 N2 1_555 1_555
O2 Cd1 1_555 1_555
C1A O1A 1_555 1_555
C1A O2A 1_555 1_555
C6A C7A 1_555 1_555
C9A N3A 1_555 1_555
C10A N3A 1_555 1_555
N1A N2A 1_555 1_555

#END
