
#######################################################################
#
#                 Cambridge Crystallographic Data Centre
#                                CCDC 
#
#######################################################################
#
# If this CIF has been generated from an entry in the Cambridge 
# Structural Database, then it will include bibliographic, chemical, 
# crystal, experimental, refinement or atomic coordinate data resulting 
# from the CCDC's data processing and validation procedures.
#
#######################################################################

data_GEDLAE
_symmetry_cell_setting           triclinic
_symmetry_space_group_name_H-M   'P -1'
_symmetry_Int_Tables_number      2
_space_group_name_Hall           '-P 1'
loop_
_symmetry_equiv_pos_site_id
_symmetry_equiv_pos_as_xyz
1 x,y,z
2 -x,-y,-z
_cell_length_a                   7.7924(13)
_cell_length_b                   9.3571(17)
_cell_length_c                   11.695(2)
_cell_angle_alpha                77.412(14)
_cell_angle_beta                 71.001(13)
_cell_angle_gamma                73.416(13)
_cell_volume                     765.351
loop_
_atom_site_label
_atom_site_type_symbol
_atom_site_fract_x
_atom_site_fract_y
_atom_site_fract_z
C1 C 0.6073(5) 0.6454(3) 0.0487(3)
C2 C 0.6222(5) 0.5105(3) 0.1463(3)
C3 C 0.7988(5) 0.4308(4) 0.1551(3)
H1 H 0.9053 0.4592 0.0991
C4 C 0.8185(5) 0.3101(4) 0.2455(3)
H2 H 0.9376 0.2581 0.2532
C5 C 0.6611(5) 0.2668(3) 0.3247(3)
C6 C 0.4848(5) 0.3436(4) 0.3174(3)
H3 H 0.3789 0.3129 0.3719
C7 C 0.4666(5) 0.4667(4) 0.2285(3)
H4 H 0.3469 0.5214 0.2237
C8 C 0.5580(7) 0.2661(4) 0.6021(3)
H5 H 0.5613 0.2399 0.6864
H6 H 0.4293 0.2979 0.5995
H7 H 0.6203 0.3475 0.5630
C9 C 0.6544(6) 0.1329(4) 0.5370(3)
C10 C 0.7802(5) -0.0081(3) 0.3918(3)
C11 C 0.8337(5) -0.0597(3) 0.2724(3)
C12 C 0.9994(6) -0.1621(4) 0.2304(3)
H8 H 1.0853 -0.1980 0.2767
C13 C 1.0372(6) -0.2110(4) 0.1199(4)
H9 H 1.1493 -0.2802 0.0896
C14 C 0.9079(5) -0.1565(4) 0.0549(3)
H10 H 0.9349 -0.1898 -0.0207
C15 C 0.7115(5) -0.0103(3) 0.1998(3)
H11 H 0.5996 0.0604 0.2274
Cd1 Cd 0.5000 0.0000 0.0000
N1 N 0.6871(4) 0.1362(3) 0.4145(2)
N2 N 0.7208(5) -0.0025(3) 0.5854(2)
N3 N 0.8013(5) -0.0928(3) 0.4933(3)
N4 N 0.7446(4) -0.0579(3) 0.0938(2)
O1 O 0.4748(4) 0.7577(2) 0.0779(2)
O2 O 0.7301(4) 0.6369(3) -0.0512(2)
O3 O 0.2805(4) 0.0915(3) 0.1697(2)
H12 H 0.275(9) 0.068(6) 0.243(2)
H13 H 0.278(9) 0.182(3) 0.153(5)
C1A C 0.3927(5) -0.6454(3) -0.0487(3)
C2A C 0.3778(5) -0.5105(3) -0.1463(3)
C3A C 0.2012(5) -0.4308(4) -0.1551(3)
H1A H 0.0947 -0.4592 -0.0991
C4A C 0.1815(5) -0.3101(4) -0.2455(3)
H2A H 0.0624 -0.2581 -0.2532
C5A C 0.3389(5) -0.2668(3) -0.3247(3)
C6A C 0.5152(5) -0.3436(4) -0.3174(3)
H3A H 0.6211 -0.3129 -0.3719
C7A C 0.5334(5) -0.4667(4) -0.2285(3)
H4A H 0.6531 -0.5214 -0.2237
C8A C 0.4420(7) -0.2661(4) -0.6021(3)
H5A H 0.4387 -0.2399 -0.6864
H6A H 0.5707 -0.2979 -0.5995
H7A H 0.3797 -0.3475 -0.5630
C9A C 0.3456(6) -0.1329(4) -0.5370(3)
C10A C 0.2198(5) 0.0081(3) -0.3918(3)
C11A C 0.1663(5) 0.0597(3) -0.2724(3)
C12A C 0.0006(6) 0.1621(4) -0.2304(3)
H8A H -0.0853 0.1980 -0.2767
C13A C -0.0372(6) 0.2110(4) -0.1199(4)
H9A H -0.1493 0.2802 -0.0896
C14A C 0.0921(5) 0.1565(4) -0.0549(3)
H10A H 0.0651 0.1898 0.0207
C15A C 0.2885(5) 0.0103(3) -0.1998(3)
H11A H 0.4004 -0.0604 -0.2274
Cd1_2 Cd 0.5000 -1.0000 0.0000
Cd1_3 Cd 0.5000 1.0000 0.0000
N1A N 0.3129(4) -0.1362(3) -0.4145(2)
N2A N 0.2792(5) 0.0025(3) -0.5854(2)
N3A N 0.1987(5) 0.0928(3) -0.4933(3)
N4A N 0.2554(4) 0.0579(3) -0.0938(2)
O1A O 0.5252(4) -0.7577(2) -0.0779(2)
O1_2 O 0.4748(4) -0.2423(2) 0.0779(2)
O1A_2 O 0.5252(4) 0.2423(2) -0.0779(2)
O2A O 0.2699(4) -0.6369(3) 0.0512(2)
O3A O 0.7195(4) -0.0915(3) -0.1697(2)
H12A H 0.725(9) -0.068(6) -0.243(2)
H13A H 0.722(9) -0.182(3) -0.153(5)
O4 O 0.9593(10) 0.3835(7) 0.4642(8)
loop_
_geom_bond_atom_site_label_1
_geom_bond_atom_site_label_2
_geom_bond_site_symmetry_1
_geom_bond_site_symmetry_2
C1 C2 1_555 1_555
C2 C3 1_555 1_555
C3 H1 1_555 1_555
C4 C3 1_555 1_555
H2 C4 1_555 1_555
C5 C4 1_555 1_555
C6 C5 1_555 1_555
H3 C6 1_555 1_555
C7 C2 1_555 1_555
H4 C7 1_555 1_555
C8 H5 1_555 1_555
H6 C8 1_555 1_555
H7 C8 1_555 1_555
C9 C8 1_555 1_555
C10 C11 1_555 1_555
C11 C12 1_555 1_555
C12 H8 1_555 1_555
C13 C12 1_555 1_555
H9 C13 1_555 1_555
C14 C13 1_555 1_555
H10 C14 1_555 1_555
C15 C11 1_555 1_555
H11 C15 1_555 1_555
Cd1 N4 1_555 1_555
N1 C5 1_555 1_555
N2 C9 1_555 1_555
N3 C10 1_555 1_555
N4 C14 1_555 1_555
O1 C1 1_555 1_555
O2 C1 1_555 1_555
O3 Cd1 1_555 1_555
H12 O3 1_555 1_555
H13 O3 1_555 1_555
C1A C2A 1_555 1_555
C2A C3A 1_555 1_555
C3A H1A 1_555 1_555
C4A C3A 1_555 1_555
H2A C4A 1_555 1_555
C5A C4A 1_555 1_555
C6A C5A 1_555 1_555
H3A C6A 1_555 1_555
C7A C2A 1_555 1_555
H4A C7A 1_555 1_555
C8A H5A 1_555 1_555
H6A C8A 1_555 1_555
H7A C8A 1_555 1_555
C9A C8A 1_555 1_555
C10A C11A 1_555 1_555
C11A C12A 1_555 1_555
C12A H8A 1_555 1_555
C13A C12A 1_555 1_555
H9A C13A 1_555 1_555
C14A C13A 1_555 1_555
H10A C14A 1_555 1_555
C15A C11A 1_555 1_555
H11A C15A 1_555 1_555
Cd1_2 O1A 1_555 1_555
Cd1_3 O1 1_555 1_555
N1A C5A 1_555 1_555
N2A C9A 1_555 1_555
N3A C10A 1_555 1_555
N4A Cd1 1_555 1_555
O1A C1A 1_555 1_555
O1_2 Cd1 1_555 1_555
O1A_2 Cd1 1_555 1_555
O2A C1A 1_555 1_555
O3A Cd1 1_555 1_555
H12A O3A 1_555 1_555
H13A O3A 1_555 1_555
C6 C7 1_555 1_555
C9 N1 1_555 1_555
C10 N1 1_555 1_555
C15 N4 1_555 1_555
N2 N3 1_555 1_555
C6A C7A 1_555 1_555
C9A N1A 1_555 1_555
C10A N1A 1_555 1_555
C14A N4A 1_555 1_555
C15A N4A 1_555 1_555
N2A N3A 1_555 1_555

#END
