
#######################################################################
#
#                 Cambridge Crystallographic Data Centre
#                                CCDC 
#
#######################################################################
#
# If this CIF has been generated from an entry in the Cambridge 
# Structural Database, then it will include bibliographic, chemical, 
# crystal, experimental, refinement or atomic coordinate data resulting 
# from the CCDC's data processing and validation procedures.
#
#######################################################################

data_GEDLOS
_symmetry_cell_setting           monoclinic
_symmetry_space_group_name_H-M   'C c'
_symmetry_Int_Tables_number      9
_space_group_name_Hall           'C -2yc'
loop_
_symmetry_equiv_pos_site_id
_symmetry_equiv_pos_as_xyz
1 x,y,z
2 x,-y,1/2+z
3 1/2+x,1/2+y,z
4 1/2+x,1/2-y,1/2+z
_cell_length_a                   6.6474(9)
_cell_length_b                   19.167(2)
_cell_length_c                   15.366(3)
_cell_angle_alpha                90
_cell_angle_beta                 98.544(12)
_cell_angle_gamma                90
_cell_volume                     1936.07
loop_
_atom_site_label
_atom_site_type_symbol
_atom_site_fract_x
_atom_site_fract_y
_atom_site_fract_z
C1 C 0.0922(5) 0.41818(14) 0.3584(2)
C2 C 0.2246(5) 0.45432(15) 0.2990(2)
C3 C 0.4217(6) 0.47585(15) 0.3306(2)
H1 H 0.4706 0.4731 0.3911
C4 C 0.5469(5) 0.50152(16) 0.2729(2)
H2 H 0.6811 0.5154 0.2937
C5 C 0.4692(5) 0.50621(14) 0.1838(2)
C6 C 0.2693(5) 0.48871(17) 0.1518(2)
H3 H 0.2176 0.4945 0.0919
C7 C 0.1464(5) 0.46230(17) 0.2102(2)
H4 H 0.0108 0.4499 0.1897
C8 C 0.6316(9) 0.40174(19) 0.0628(4)
H5 H 0.4948 0.3947 0.0321
H6 H 0.6408 0.3839 0.1224
H7 H 0.7277 0.3772 0.0322
C9 C 0.6799(5) 0.47757(15) 0.0657(2)
C10 C 0.6976(6) 0.58512(14) 0.1081(2)
H8 H 0.6790 0.6269 0.1380
C11 C 0.2971(5) 0.27622(16) 0.5960(2)
C12 C 0.4709(5) 0.26263(14) 0.66979(19)
C13 C 0.4729(5) 0.29268(16) 0.75294(19)
H9 H 0.3567 0.3162 0.7657
C14 C 0.6445(5) 0.28836(16) 0.8174(2)
H10 H 0.6431 0.3076 0.8736
C15 C 0.8177(5) 0.25504(14) 0.79685(19)
C16 C 0.8171(5) 0.22292(16) 0.7151(2)
H11 H 0.9337 0.1997 0.7024
C17 C 0.6432(5) 0.22560(15) 0.6528(2)
H12 H 0.6407 0.2024 0.5988
C18 C 1.0471(7) 0.38557(15) 0.8839(3)
H13 H 0.9349 0.3959 0.9156
H14 H 1.0047 0.3932 0.8215
H15 H 1.1610 0.4159 0.9047
C19 C 1.1099(5) 0.31120(14) 0.89921(19)
C20 C 1.1187(5) 0.19898(15) 0.8879(2)
H16 H 1.0859 0.1526 0.8718
N1 N 0.8154(5) 0.57803(12) 0.04816(19)
N2 N 0.8043(4) 0.50923(12) 0.02018(17)
N3 N 0.6053(4) 0.52343(12) 0.12143(18)
N4 N 1.2820(4) 0.21786(11) 0.94150(17)
N5 N 1.2767(4) 0.29063(11) 0.94903(16)
N6 N 1.0028(4) 0.25520(12) 0.85878(16)
O1 O 0.1844(4) 0.40132(13) 0.43602(17)
O2 O -0.0884(4) 0.40582(13) 0.33056(18)
O3 O 0.1586(4) 0.31802(12) 0.61360(15)
O4 O 0.2997(4) 0.24980(13) 0.52260(16)
Zn1 Zn 0.00000(3) 0.348070(13) 0.50000(2)
N1A N -0.1846(5) 0.42197(12) 0.54816(19)
N4C N -0.2180(4) 0.28214(11) 0.44150(17)
Zn1A Zn 1.00000(3) 0.651930(13) 0.00000(2)
Zn1C Zn 1.50000(3) 0.151930(13) 1.00000(2)
loop_
_geom_bond_atom_site_label_1
_geom_bond_atom_site_label_2
_geom_bond_site_symmetry_1
_geom_bond_site_symmetry_2
C1 C2 1_555 1_555
C2 C3 1_555 1_555
C3 H1 1_555 1_555
C4 C3 1_555 1_555
H2 C4 1_555 1_555
C5 C4 1_555 1_555
C6 C5 1_555 1_555
H3 C6 1_555 1_555
C7 C2 1_555 1_555
H4 C7 1_555 1_555
C8 H5 1_555 1_555
H6 C8 1_555 1_555
H7 C8 1_555 1_555
C9 C8 1_555 1_555
C10 H8 1_555 1_555
C11 C12 1_555 1_555
C12 C13 1_555 1_555
C13 H9 1_555 1_555
C14 C13 1_555 1_555
H10 C14 1_555 1_555
C15 C14 1_555 1_555
C16 C15 1_555 1_555
H11 C16 1_555 1_555
C17 C12 1_555 1_555
H12 C17 1_555 1_555
C18 H13 1_555 1_555
H14 C18 1_555 1_555
H15 C18 1_555 1_555
C19 C18 1_555 1_555
C20 H16 1_555 1_555
N1 C10 1_555 1_555
N2 C9 1_555 1_555
N3 C5 1_555 1_555
N4 C20 1_555 1_555
N5 C19 1_555 1_555
N6 C15 1_555 1_555
O1 C1 1_555 1_555
O2 C1 1_555 1_555
O3 C11 1_555 1_555
O4 C11 1_555 1_555
Zn1 O1 1_555 1_555
N1A Zn1 1_555 1_555
N4C Zn1 1_555 1_555
Zn1A N1 1_555 1_555
Zn1C N4 1_555 1_555
C6 C7 1_555 1_555
C9 N3 1_555 1_555
C10 N3 1_555 1_555
C16 C17 1_555 1_555
C19 N6 1_555 1_555
C20 N6 1_555 1_555
N1 N2 1_555 1_555
N4 N5 1_555 1_555
O3 Zn1 1_555 1_555

#END
