
#######################################################################
#
#                 Cambridge Crystallographic Data Centre
#                                CCDC 
#
#######################################################################
#
# If this CIF has been generated from an entry in the Cambridge 
# Structural Database, then it will include bibliographic, chemical, 
# crystal, experimental, refinement or atomic coordinate data resulting 
# from the CCDC's data processing and validation procedures.
#
#######################################################################

data_GEDLEI
_symmetry_cell_setting           monoclinic
_symmetry_space_group_name_H-M   'P c'
_symmetry_Int_Tables_number      7
_space_group_name_Hall           'P -2yc'
loop_
_symmetry_equiv_pos_site_id
_symmetry_equiv_pos_as_xyz
1 x,y,z
2 x,-y,1/2+z
_cell_length_a                   7.4000(12)
_cell_length_b                   14.615(3)
_cell_length_c                   14.175(3)
_cell_angle_alpha                90
_cell_angle_beta                 99.541(14)
_cell_angle_gamma                90
_cell_volume                     1511.83
loop_
_atom_site_label
_atom_site_type_symbol
_atom_site_fract_x
_atom_site_fract_y
_atom_site_fract_z
C1 C 0.2879(15) -0.3453(6) 0.4089(8)
C2 C 0.1597(14) -0.4180(5) 0.3652(7)
C3 C 0.2238(14) -0.5058(6) 0.3492(8)
H1 H 0.3508 -0.5191 0.3654
C4 C 0.1022(15) -0.5739(6) 0.3095(8)
H2 H 0.1462 -0.6333 0.2980
C5 C -0.0819(13) -0.5544(5) 0.2873(6)
C6 C -0.1477(15) -0.4667(6) 0.2993(8)
H3 H -0.2737 -0.4527 0.2798
C7 C -0.0247(15) -0.3997(6) 0.3406(7)
H4 H -0.0692 -0.3404 0.3519
C8 C -0.175(2) -0.5914(7) 0.0730(9)
H5 H -0.0499 -0.6121 0.0706
H6 H -0.2525 -0.6024 0.0110
H7 H -0.1738 -0.5258 0.0875
C9 C -0.2499(15) -0.6431(6) 0.1494(8)
C10 C -0.2986(14) -0.6918(6) 0.2885(8)
C11 C -0.2899(18) -0.7052(7) 0.3925(8)
C12 C -0.2803(17) -0.6325(8) 0.4577(7)
H8 H -0.2800 -0.5719 0.4336
C13 C -0.277(2) -0.7313(9) 0.5846(9)
H9 H -0.2688 -0.7410 0.6515
C14 C -0.295(2) -0.8053(9) 0.5271(10)
H10 H -0.3035 -0.8646 0.5536
C15 C -0.3015(16) -0.7950(7) 0.4276(8)
H11 H -0.3130 -0.8463 0.3859
C16 C 0.7088(18) -0.1155(7) 0.3969(9)
C17 C 0.8323(13) -0.0720(6) 0.3367(6)
C18 C 1.0220(13) -0.0744(6) 0.3645(7)
H12 H 1.0717 -0.0993 0.4252
C19 C 1.1389(16) -0.0419(7) 0.3066(8)
H13 H 1.2676 -0.0419 0.3279
C20 C 1.0653(13) -0.0085(5) 0.2149(7)
C21 C 0.8760(14) -0.0004(7) 0.1857(8)
H14 H 0.8273 0.0261 0.1256
C22 C 0.7585(13) -0.0327(6) 0.2479(7)
H15 H 0.6294 -0.0278 0.2296
C23 C 1.1666(16) 0.1888(6) 0.1738(9)
H16 H 1.2339 0.2432 0.1586
H17 H 1.0366 0.1956 0.1466
H18 H 1.1799 0.1820 0.2433
C24 C 1.2418(14) 0.1063(6) 0.1322(8)
C25 C 1.2796(13) -0.0400(5) 0.0959(6)
C26 C 1.2553(13) -0.1384(6) 0.0847(7)
C27 C 1.2789(17) -0.2013(6) 0.1597(8)
H19 H 1.3081 -0.1803 0.2238
C28 C 1.260(2) -0.2943(7) 0.1413(12)
H20 H 1.2749 -0.3380 0.1916
C29 C 1.218(2) -0.3214(8) 0.0445(11)
H21 H 1.2042 -0.3849 0.0310
C30 C 1.2168(18) -0.1722(7) -0.0093(8)
H22 H 1.2042 -0.1291 -0.0601
N1 N -0.3586(11) -0.7154(5) 0.1361(5)
N2 N -0.3899(11) -0.7473(5) 0.2240(6)
N3 N -0.2070(12) -0.6253(5) 0.2440(5)
N4 N -0.2712(17) -0.6444(8) 0.5535(8)
N5 N 1.3582(11) 0.1010(4) 0.0748(6)
N6 N 1.3861(11) 0.0095(4) 0.0499(6)
N7 N 1.1859(10) 0.0180(5) 0.1517(5)
N8 N 1.1966(16) -0.2609(6) -0.0324(8)
O1 O 0.2211(10) -0.2788(4) 0.4485(6)
O2 O 0.4592(11) -0.3545(4) 0.4122(6)
O3 O 0.7802(9) -0.1418(5) 0.4806(5)
O4 O 0.5419(9) -0.1282(4) 0.3627(5)
Cd1 Cd 0.50318(5) -0.21075(3) 0.50006(4)
N1A N 0.6414(11) -0.2846(5) 0.6361(5)
N5A N 0.3582(11) -0.1010(4) 0.5748(6)
Cd1A Cd 1.50318(5) 0.21075(3) 0.00006(4)
Cd1A_2 Cd -0.49682(5) -0.78925(3) 0.00006(4)
loop_
_geom_bond_atom_site_label_1
_geom_bond_atom_site_label_2
_geom_bond_site_symmetry_1
_geom_bond_site_symmetry_2
C1 C2 1_555 1_555
C2 C3 1_555 1_555
C3 H1 1_555 1_555
C4 C3 1_555 1_555
H2 C4 1_555 1_555
C5 C4 1_555 1_555
C6 C5 1_555 1_555
H3 C6 1_555 1_555
C7 C2 1_555 1_555
H4 C7 1_555 1_555
C8 H5 1_555 1_555
H6 C8 1_555 1_555
H7 C8 1_555 1_555
C9 C8 1_555 1_555
C10 C11 1_555 1_555
C11 C12 1_555 1_555
C12 H8 1_555 1_555
C13 H9 1_555 1_555
C14 C13 1_555 1_555
H10 C14 1_555 1_555
C15 C11 1_555 1_555
H11 C15 1_555 1_555
C16 C17 1_555 1_555
C17 C18 1_555 1_555
C18 H12 1_555 1_555
C19 C18 1_555 1_555
H13 C19 1_555 1_555
C20 C19 1_555 1_555
C21 C20 1_555 1_555
H14 C21 1_555 1_555
C22 C17 1_555 1_555
H15 C22 1_555 1_555
C23 H16 1_555 1_555
H17 C23 1_555 1_555
H18 C23 1_555 1_555
C24 C23 1_555 1_555
C25 C26 1_555 1_555
C26 C27 1_555 1_555
C27 H19 1_555 1_555
C28 C27 1_555 1_555
H20 C28 1_555 1_555
C29 C28 1_555 1_555
H21 C29 1_555 1_555
C30 C26 1_555 1_555
H22 C30 1_555 1_555
N1 C9 1_555 1_555
N2 C10 1_555 1_555
N3 C5 1_555 1_555
N4 C12 1_555 1_555
N5 C24 1_555 1_555
N6 C25 1_555 1_555
N7 C20 1_555 1_555
N8 C29 1_555 1_555
O1 C1 1_555 1_555
O2 C1 1_555 1_555
O3 C16 1_555 1_555
O4 C16 1_555 1_555
Cd1 O1 1_555 1_555
N1A Cd1 1_555 1_555
N5A Cd1 1_555 1_555
Cd1A N5 1_555 1_555
Cd1A_2 N1 1_555 1_555
C6 C7 1_555 1_555
C9 N3 1_555 1_555
C10 N3 1_555 1_555
C13 N4 1_555 1_555
C14 C15 1_555 1_555
C21 C22 1_555 1_555
C24 N7 1_555 1_555
C25 N7 1_555 1_555
C30 N8 1_555 1_555
N1 N2 1_555 1_555
N5 N6 1_555 1_555
O2 Cd1 1_555 1_555
O3 Cd1 1_555 1_555
O4 Cd1 1_555 1_555

#END
