
#######################################################################
#
#                 Cambridge Crystallographic Data Centre
#                                CCDC 
#
#######################################################################
#
# If this CIF has been generated from an entry in the Cambridge 
# Structural Database, then it will include bibliographic, chemical, 
# crystal, experimental, refinement or atomic coordinate data resulting 
# from the CCDC's data processing and validation procedures.
#
#######################################################################

data_GEDPEL
_symmetry_cell_setting           orthorhombic
_symmetry_space_group_name_H-M   'P n a 21'
_symmetry_Int_Tables_number      33
_space_group_name_Hall           'P 2c -2n'
loop_
_symmetry_equiv_pos_site_id
_symmetry_equiv_pos_as_xyz
1 x,y,z
2 -x,-y,1/2+z
3 1/2+x,1/2-y,z
4 1/2-x,1/2+y,1/2+z
_cell_length_a                   25.282(3)
_cell_length_b                   7.200(2)
_cell_length_c                   18.752(3)
_cell_angle_alpha                90
_cell_angle_beta                 90
_cell_angle_gamma                90
_cell_volume                     3413.43
loop_
_atom_site_label
_atom_site_type_symbol
_atom_site_fract_x
_atom_site_fract_y
_atom_site_fract_z
Na1 Na 0.63768(4) 0.83313(15) 0.47313(6)
Na2 Na 0.46356(4) 0.76592(15) 0.44801(6)
Na3 Na 0.46724(4) 0.26396(15) 0.44074(7)
Na4 Na 0.76717(4) 1.11796(16) 0.55642(7)
P1 P 0.45488(3) 0.19129(10) 0.72150(4)
O1 O 0.50233(7) 0.0684(3) 0.73687(11)
O2 O 0.43069(7) 0.1533(3) 0.64887(11)
O3 O 0.48197(7) 0.3963(2) 0.71859(11)
O4 O 0.41464(7) 0.1948(3) 0.78148(11)
O5 O 0.46433(7) 0.5025(3) 0.52938(11)
O6 O 0.54495(7) 0.4613(3) 0.57675(11)
N1 N 0.53032(10) 0.7479(4) 0.67015(14)
H1 H 0.5470(12) 0.662(4) 0.6916(16)
H2 H 0.5215(10) 0.846(4) 0.6995(16)
H3 H 0.5545(14) 0.823(5) 0.630(2)
C1 C 0.49895(11) 0.5295(4) 0.57637(15)
C2 C 0.48304(10) 0.6573(4) 0.63796(16)
H4 H 0.4607(12) 0.760(4) 0.6185(17)
C3 C 0.45026(11) 0.5512(4) 0.69342(16)
H5 H 0.4205(11) 0.486(4) 0.6640(15)
C4 C 0.43266(13) 0.6698(4) 0.75622(18)
H6 H 0.4138(10) 0.582(4) 0.7903(16)
H7 H 0.4615(12) 0.712(4) 0.7839(17)
H8 H 0.4133(13) 0.775(5) 0.743(2)
P2 P 0.65841(3) 0.68875(10) 0.74897(4)
O7 O 0.60782(7) 0.5731(3) 0.75421(11)
O8 O 0.69220(7) 0.6403(3) 0.68495(11)
O9 O 0.63343(7) 0.8960(3) 0.73622(10)
O10 O 0.68914(8) 0.6946(3) 0.81874(11)
O11 O 0.67807(7) 1.0238(3) 0.55928(11)
O12 O 0.59113(7) 0.9922(3) 0.57781(11)
N2 N 0.59261(10) 1.2475(4) 0.68544(15)
H9 H 0.5704(13) 1.166(5) 0.6963(17)
H10 H 0.5997(12) 1.343(5) 0.7117(19)
H11 H 0.5732(15) 1.304(5) 0.644(2)
C5 C 0.63712(11) 1.0511(4) 0.59430(15)
C6 C 0.64392(11) 1.1654(4) 0.66223(15)
H12 H 0.6662(13) 1.273(5) 0.6509(16)
C7 C 0.66853(11) 1.0513(4) 0.72269(17)
H13 H 0.7027(14) 0.998(5) 0.705(2)
C8 C 0.67646(12) 1.1615(4) 0.79144(16)
H14 H 0.6946(12) 1.084(4) 0.8308(18)
H15 H 0.6409(13) 1.197(5) 0.8134(17)
H16 H 0.6983(12) 1.279(5) 0.7831(18)
O13 O 0.45638(10) 0.5214(3) 0.36031(12)
H17 H 0.4831(13) 0.542(4) 0.3303(18)
H18 H 0.4316(13) 0.499(4) 0.3340(17)
O14 O 0.45855(11) 1.0088(3) 0.36321(12)
H19 H 0.4745(14) 0.997(5) 0.327(2)
H20 H 0.4289(16) 1.051(5) 0.355(2)
O15 O 0.37169(8) 0.8012(4) 0.47406(13)
H21 H 0.3526(18) 0.729(6) 0.453(2)
H22 H 0.3640(17) 0.903(7) 0.456(2)
O16 O 0.48499(10) 1.0250(3) 0.53062(13)
H23 H 0.5118(13) 1.029(5) 0.536(2)
H24 H 0.4628(13) 1.063(5) 0.570(2)
O17 O 0.56006(9) 0.3149(3) 0.43827(14)
H25 H 0.5832(14) 0.253(5) 0.424(2)
H26 H 0.5659(16) 0.350(6) 0.476(3)
O18 O 0.62759(9) 1.0564(3) 0.37860(13)
H27 H 0.6156(15) 1.006(6) 0.345(2)
H28 H 0.6533(17) 1.114(6) 0.350(2)
O19 O 0.76910(10) 1.3634(3) 0.65293(12)
H29 H 0.7428(17) 1.442(6) 0.662(2)
H30 H 0.7927(15) 1.430(5) 0.638(2)
O20 O 0.36932(9) 0.1691(3) 0.42915(14)
H31 H 0.3467(14) 0.204(5) 0.391(2)
H32 H 0.3629(15) 0.241(5) 0.465(2)
O21 O 0.65030(10) 0.5677(3) 0.55254(13)
H33 H 0.6225(14) 0.550(5) 0.559(2)
H34 H 0.6667(15) 0.616(5) 0.584(2)
O22 O 0.55892(8) 0.7032(3) 0.41847(12)
H35 H 0.5642(18) 0.731(6) 0.362(3)
H36 H 0.5590(13) 0.584(5) 0.4144(19)
O23 O 0.86208(8) 1.1521(3) 0.56075(12)
H37 H 0.8854(19) 1.206(7) 0.592(3)
H38 H 0.8801(14) 1.063(6) 0.547(2)
O25 O 0.79363(9) 0.9653(3) 0.43973(13)
H41 H 0.7734(13) 0.909(5) 0.4208(17)
H42 H 0.8022(13) 1.028(5) 0.399(2)
O26 O 0.71261(8) 0.7213(3) 0.41137(13)
H43 H 0.7198(13) 0.610(5) 0.4283(19)
H44 H 0.7060(15) 0.704(5) 0.362(2)
O28 O 0.77606(11) 0.8709(3) 0.63545(14)
H47 H 0.7488(16) 0.809(6) 0.650(2)
H48 H 0.7996(19) 0.814(7) 0.616(3)
O29 O 0.73179(9) 1.3712(3) 0.48025(14)
H49 H 0.7019(15) 1.411(5) 0.5042(18)
H50 H 0.7208(16) 1.321(6) 0.443(3)
Na3_2 Na 0.46724(4) 1.26396(15) 0.44074(7)
O14_2 O 0.45855(11) 0.0088(3) 0.36321(12)
H19_2 H 0.4745(14) -0.003(5) 0.327(2)
H20_2 H 0.4289(16) 0.051(5) 0.355(2)
O16_2 O 0.48499(10) 0.0250(3) 0.53062(13)
H23_2 H 0.5118(13) 0.029(5) 0.536(2)
H24_2 H 0.4628(13) 0.063(5) 0.570(2)
O24 O 0.81618(10) 0.1513(4) 0.77202(13)
H39 H 0.8549(15) 0.198(5) 0.7675(19)
H40 H 0.8040(15) 0.207(5) 0.750(2)
O27 O 0.79275(10) 0.7878(4) 0.83295(14)
H45 H 0.7616(16) 0.748(5) 0.830(2)
H46 H 0.7998(14) 0.867(5) 0.810(2)
O30 O 0.85538(10) 0.6011(3) 0.61767(14)
H51 H 0.8608(14) 0.622(5) 0.575(2)
H52 H 0.8828(18) 0.544(6) 0.629(2)
loop_
_geom_bond_atom_site_label_1
_geom_bond_atom_site_label_2
_geom_bond_site_symmetry_1
_geom_bond_site_symmetry_2
Na1 O11 1_555 1_555
Na2 O5 1_555 1_555
Na3 O5 1_555 1_555
Na4 O11 1_555 1_555
P1 O1 1_555 1_555
O2 P1 1_555 1_555
O3 P1 1_555 1_555
O4 P1 1_555 1_555
O5 C1 1_555 1_555
O6 C1 1_555 1_555
N1 H1 1_555 1_555
H2 N1 1_555 1_555
H3 N1 1_555 1_555
C1 C2 1_555 1_555
C2 N1 1_555 1_555
H4 C2 1_555 1_555
C3 O3 1_555 1_555
H5 C3 1_555 1_555
C4 C3 1_555 1_555
H6 C4 1_555 1_555
H7 C4 1_555 1_555
H8 C4 1_555 1_555
P2 O7 1_555 1_555
O8 P2 1_555 1_555
O9 P2 1_555 1_555
O10 P2 1_555 1_555
O11 C5 1_555 1_555
O12 Na1 1_555 1_555
N2 H9 1_555 1_555
H10 N2 1_555 1_555
H11 N2 1_555 1_555
C5 O12 1_555 1_555
C6 N2 1_555 1_555
H12 C6 1_555 1_555
C7 O9 1_555 1_555
H13 C7 1_555 1_555
C8 C7 1_555 1_555
H14 C8 1_555 1_555
H15 C8 1_555 1_555
H16 C8 1_555 1_555
O13 Na2 1_555 1_555
H17 O13 1_555 1_555
H18 O13 1_555 1_555
O14 Na2 1_555 1_555
H19 O14 1_555 1_555
H20 O14 1_555 1_555
O15 Na2 1_555 1_555
H21 O15 1_555 1_555
H22 O15 1_555 1_555
O16 Na2 1_555 1_555
H23 O16 1_555 1_555
H24 O16 1_555 1_555
O17 Na3 1_555 1_555
H25 O17 1_555 1_555
H26 O17 1_555 1_555
O18 Na1 1_555 1_555
H27 O18 1_555 1_555
H28 O18 1_555 1_555
O19 Na4 1_555 1_555
H29 O19 1_555 1_555
H30 O19 1_555 1_555
O20 Na3 1_555 1_555
H31 O20 1_555 1_555
H32 O20 1_555 1_555
O21 Na1 1_555 1_555
H33 O21 1_555 1_555
H34 O21 1_555 1_555
O22 Na1 1_555 1_555
H35 O22 1_555 1_555
H36 O22 1_555 1_555
O23 Na4 1_555 1_555
H37 O23 1_555 1_555
H38 O23 1_555 1_555
O24 H39 1_555 1_555
H40 O24 1_555 1_555
O25 Na4 1_555 1_555
H41 O25 1_555 1_555
H42 O25 1_555 1_555
O26 Na1 1_555 1_555
H43 O26 1_555 1_555
H44 O26 1_555 1_555
O27 H45 1_555 1_555
H46 O27 1_555 1_555
O28 Na4 1_555 1_555
H47 O28 1_555 1_555
H48 O28 1_555 1_555
O29 Na4 1_555 1_555
H49 O29 1_555 1_555
H50 O29 1_555 1_555
O30 H51 1_555 1_555
H52 O30 1_555 1_555
Na3_2 O14 1_555 1_555
O14_2 Na3 1_555 1_555
H19_2 O14_2 1_555 1_555
H20_2 O14_2 1_555 1_555
O16_2 Na3 1_555 1_555
H23_2 O16_2 1_555 1_555
H24_2 O16_2 1_555 1_555
Na2 O22 1_555 1_555
Na3 O13 1_555 1_555
C2 C3 1_555 1_555
C5 C6 1_555 1_555
C6 C7 1_555 1_555
O16 Na3_2 1_555 1_555

#END
