
#######################################################################
#
#                 Cambridge Crystallographic Data Centre
#                                CCDC 
#
#######################################################################
#
# If this CIF has been generated from an entry in the Cambridge 
# Structural Database, then it will include bibliographic, chemical, 
# crystal, experimental, refinement or atomic coordinate data resulting 
# from the CCDC's data processing and validation procedures.
#
#######################################################################

data_GEDQIR
_symmetry_cell_setting           monoclinic
_symmetry_space_group_name_H-M   'C 2/c'
_symmetry_Int_Tables_number      15
_space_group_name_Hall           '-C 2yn'
loop_
_symmetry_equiv_pos_site_id
_symmetry_equiv_pos_as_xyz
1 x,y,z
2 -x,y,1/2-z
3 1/2+x,1/2+y,z
4 1/2-x,1/2+y,1/2-z
5 -x,-y,-z
6 x,-y,1/2+z
7 1/2-x,1/2-y,-z
8 1/2+x,1/2-y,1/2+z
_cell_length_a                   28.2238(8)
_cell_length_b                   15.1581(5)
_cell_length_c                   13.5868(5)
_cell_angle_alpha                90
_cell_angle_beta                 100.014(3)
_cell_angle_gamma                90
_cell_volume                     5724.14
loop_
_atom_site_label
_atom_site_type_symbol
_atom_site_fract_x
_atom_site_fract_y
_atom_site_fract_z
Nd1 Nd 0.319489(9) 0.213217(18) 0.53874(2)
O1 O 0.38904(14) 0.1845(3) 0.4450(3)
O2 O 0.39102(15) 0.3079(3) 0.5309(4)
O3 O 0.79701(12) 0.5902(2) 0.4202(3)
O4 O 0.73336(12) 0.6672(3) 0.4380(3)
O5 O 0.69844(15) 0.2964(3) 0.1129(3)
O6 O 0.77147(13) 0.3607(3) 0.1466(3)
O7 O 0.35326(19) 0.2643(4) 0.7115(4)
O8 O 0.37040(16) 0.0922(3) 0.6274(4)
O9 O 0.3839(3) -0.0747(6) 0.7738(6)
H1 H 0.3798 -0.1012 0.8242
N1 N 0.59844(17) 0.4404(4) 0.3417(4)
N2 N 0.3519(6) 0.3386(12) 0.8674(11)
C1 C 0.4081(2) 0.2568(5) 0.4721(5)
C2 C 0.4523(2) 0.2856(4) 0.4323(5)
C3 C 0.4822(2) 0.2227(5) 0.3995(6)
H2 H 0.4735 0.1636 0.3969
C4 C 0.5247(3) 0.2487(5) 0.3711(6)
H3 H 0.5453 0.2067 0.3519
C5 C 0.5370(2) 0.3396(5) 0.3710(5)
C6 C 0.5065(2) 0.4003(5) 0.4008(6)
H4 H 0.5137 0.4600 0.3989
C7 C 0.4649(2) 0.3740(5) 0.4337(6)
H5 H 0.4454 0.4157 0.4568
C8 C 0.5835(2) 0.3614(5) 0.3435(5)
C9 C 0.75250(19) 0.5997(4) 0.4057(4)
C10 C 0.72119(18) 0.5303(4) 0.3502(4)
C11 C 0.67379(19) 0.5198(4) 0.3659(4)
H6 H 0.6614 0.5574 0.4090
C12 C 0.64548(19) 0.4533(4) 0.3170(4)
C13 C 0.6627(2) 0.4011(4) 0.2474(4)
H7 H 0.6427 0.3592 0.2115
C14 C 0.70990(19) 0.4111(4) 0.2308(4)
C15 C 0.73918(18) 0.4758(4) 0.2831(4)
H8 H 0.7707 0.4825 0.2731
C16 C 0.7281(2) 0.3527(4) 0.1572(4)
C17 C 0.3307(6) 0.2838(11) 0.7846(12)
C18 C 0.3103(10) 0.373(2) 0.918(2)
H9 H 0.3231 0.4116 0.9724
H10 H 0.2945 0.3243 0.9435
H11 H 0.2876 0.4048 0.8703
C19 C 0.4015(8) 0.3728(19) 0.870(2)
H12 H 0.4101 0.4107 0.9268
H13 H 0.4027 0.4054 0.8100
H14 H 0.4236 0.3244 0.8749
C20 C 0.3867(4) 0.0090(7) 0.5904(8)
H15 H 0.4185 -0.0043 0.6269
H16 H 0.3892 0.0161 0.5207
C21 C 0.3539(4) -0.0681(6) 0.6000(8)
C22 C 0.3525(3) -0.1066(6) 0.6929(7)
C23 C 0.3229(4) -0.1726(6) 0.7009(8)
H17 H 0.3223 -0.1976 0.7631
C24 C 0.2934(6) -0.2040(8) 0.6196(12)
H18 H 0.2726 -0.2503 0.6251
C25 C 0.2949(7) -0.1661(12) 0.5285(16)
H19 H 0.2746 -0.1869 0.4720
C26 C 0.3250(5) -0.0998(10) 0.5201(10)
H20 H 0.3258 -0.0755 0.4576
H21 H 0.592(5) 0.321(8) 0.290(8)
H22 H 0.373(5) 0.071(9) 0.698(4)
Nd1B Nd 0.819489(9) 0.713217(18) 0.53874(2)
Nd1D Nd 0.680511(9) 0.786783(18) 0.46126(2)
Nd1A Nd 0.680511(9) 0.213217(18) -0.03874(2)
Nd1G Nd 0.819489(9) 0.286783(18) 0.03874(2)
O3B O 0.29701(12) 0.0902(2) 0.4202(3)
O4B O 0.23336(12) 0.1672(3) 0.4380(3)
O4D O 0.26664(12) 0.3328(3) 0.5620(3)
O5A O 0.30156(15) 0.2964(3) 0.3871(3)
O6G O 0.27147(13) 0.1393(3) 0.6466(3)
loop_
_geom_bond_atom_site_label_1
_geom_bond_atom_site_label_2
_geom_bond_site_symmetry_1
_geom_bond_site_symmetry_2
Nd1 O1 1_555 1_555
O1 C1 1_555 1_555
O2 Nd1 1_555 1_555
O3 C9 1_555 1_555
O4 C9 1_555 1_555
O5 C16 1_555 1_555
O6 C16 1_555 1_555
O7 Nd1 1_555 1_555
O8 Nd1 1_555 1_555
O9 H1 1_555 1_555
N1 C8 1_555 1_555
N2 C17 1_555 1_555
C1 O2 1_555 1_555
C2 C1 1_555 1_555
C3 C2 1_555 1_555
H2 C3 1_555 1_555
C4 C3 1_555 1_555
H3 C4 1_555 1_555
C5 C4 1_555 1_555
C6 C5 1_555 1_555
H4 C6 1_555 1_555
C7 C2 1_555 1_555
H5 C7 1_555 1_555
C8 C5 1_555 1_555
C9 C10 1_555 1_555
C10 C11 1_555 1_555
C11 H6 1_555 1_555
C12 N1 1_555 1_555
C13 C12 1_555 1_555
H7 C13 1_555 1_555
C14 C13 1_555 1_555
C15 C10 1_555 1_555
H8 C15 1_555 1_555
C16 C14 1_555 1_555
C17 O7 1_555 1_555
C18 N2 1_555 1_555
H9 C18 1_555 1_555
H10 C18 1_555 1_555
H11 C18 1_555 1_555
C19 N2 1_555 1_555
H12 C19 1_555 1_555
H13 C19 1_555 1_555
H14 C19 1_555 1_555
C20 O8 1_555 1_555
H15 C20 1_555 1_555
H16 C20 1_555 1_555
C21 C20 1_555 1_555
C22 O9 1_555 1_555
C23 C22 1_555 1_555
H17 C23 1_555 1_555
C24 C23 1_555 1_555
H18 C24 1_555 1_555
C25 C24 1_555 1_555
H19 C25 1_555 1_555
C26 C21 1_555 1_555
H20 C26 1_555 1_555
H21 C8 1_555 1_555
H22 O8 1_555 1_555
Nd1B O3 1_555 1_555
Nd1D O4 1_555 1_555
Nd1A O5 1_555 1_555
Nd1G O6 1_555 1_555
O3B Nd1 1_555 1_555
O4B Nd1 1_555 1_555
O4D Nd1 1_555 1_555
O5A Nd1 1_555 1_555
O6G Nd1 1_555 1_555
O4 Nd1B 1_555 1_555
C6 C7 1_555 1_555
C11 C12 1_555 1_555
C14 C15 1_555 1_555
C21 C22 1_555 1_555
C25 C26 1_555 1_555

#END
