
#######################################################################
#
#                 Cambridge Crystallographic Data Centre
#                                CCDC 
#
#######################################################################
#
# If this CIF has been generated from an entry in the Cambridge 
# Structural Database, then it will include bibliographic, chemical, 
# crystal, experimental, refinement or atomic coordinate data resulting 
# from the CCDC's data processing and validation procedures.
#
#######################################################################

data_GEDREO
_symmetry_cell_setting           monoclinic
_symmetry_space_group_name_H-M   'C 2/c'
_symmetry_Int_Tables_number      15
_space_group_name_Hall           '-C 2yn'
loop_
_symmetry_equiv_pos_site_id
_symmetry_equiv_pos_as_xyz
1 x,y,z
2 -x,y,1/2-z
3 1/2+x,1/2+y,z
4 1/2-x,1/2+y,1/2-z
5 -x,-y,-z
6 x,-y,1/2+z
7 1/2-x,1/2-y,-z
8 1/2+x,1/2-y,1/2+z
_cell_length_a                   29.8458(10)
_cell_length_b                   12.5843(5)
_cell_length_c                   14.1180(5)
_cell_angle_alpha                90
_cell_angle_beta                 95.627(3)
_cell_angle_gamma                90
_cell_volume                     5277.01
loop_
_atom_site_label
_atom_site_type_symbol
_atom_site_fract_x
_atom_site_fract_y
_atom_site_fract_z
Nd1 Nd 0.314202(8) -0.198675(19) 0.538731(17)
O1 O 0.38470(12) -0.1387(3) 0.4702(3)
O2 O 0.37642(14) -0.3123(3) 0.4835(3)
O3 O 0.72860(11) -0.6376(3) 0.4809(2)
O4 O 0.78518(12) -0.5280(3) 0.4668(2)
O5 O 0.76710(12) -0.3098(2) 0.1701(2)
O6 O 0.70196(12) -0.2254(3) 0.1347(2)
O7 O 0.35998(13) -0.2785(3) 0.6748(3)
N1 N 0.59610(15) -0.3946(3) 0.3565(3)
N2 N 0.34562(15) -0.0399(3) 0.6410(3)
N3 N 0.34405(17) 0.0758(4) 0.7580(3)
C1 C 0.39926(19) -0.2319(4) 0.4626(4)
C2 C 0.44505(19) -0.2493(5) 0.4299(4)
C3 C 0.4584(2) -0.3497(5) 0.4062(5)
H1 H 0.4384 -0.4061 0.4076
C4 C 0.5010(2) -0.3677(5) 0.3803(5)
H2 H 0.5092 -0.4359 0.3633
C5 C 0.5320(2) -0.2855(5) 0.3793(4)
C6 C 0.5180(2) -0.1846(5) 0.4009(5)
H3 H 0.5379 -0.1282 0.3981
C7 C 0.47515(19) -0.1646(5) 0.4267(4)
H4 H 0.4666 -0.0960 0.4416
C8 C 0.5789(2) -0.3024(5) 0.3605(4)
C9 C 0.74437(17) -0.5528(4) 0.4485(3)
C10 C 0.71477(17) -0.4798(4) 0.3871(3)
C11 C 0.66890(17) -0.4743(4) 0.3968(3)
H5 H 0.6562 -0.5178 0.4403
C12 C 0.64192(17) -0.4027(4) 0.3404(3)
C13 C 0.66102(17) -0.3452(4) 0.2699(3)
H6 H 0.6428 -0.3015 0.2293
C14 C 0.70618(17) -0.3519(4) 0.2594(3)
C15 C 0.73381(17) -0.4180(4) 0.3195(3)
H7 H 0.7646 -0.4208 0.3145
C16 C 0.72718(19) -0.2921(4) 0.1825(4)
C17 C 0.3200(2) 0.0257(4) 0.6850(4)
H8 H 0.2894 0.0360 0.6681
C18 C 0.3873(2) 0.0403(4) 0.7599(4)
H9 H 0.4117 0.0603 0.8023
C19 C 0.38747(19) -0.0306(5) 0.6871(4)
H10 H 0.4127 -0.0675 0.6713
H12 H 0.597(2) -0.242(6) 0.355(5)
Nd1B Nd 0.814202(8) -0.698675(19) 0.538731(17)
Nd1D Nd 0.685798(8) -0.801325(19) 0.461269(17)
Nd1G Nd 0.814202(8) -0.301325(19) 0.038731(17)
Nd1A Nd 0.685798(8) -0.198675(19) -0.038731(17)
O3B O 0.22860(11) -0.1376(3) 0.4809(2)
O3D O 0.27140(11) -0.3624(3) 0.5191(2)
O4B O 0.28518(12) -0.0280(3) 0.4668(2)
O5G O 0.26710(12) -0.1902(2) 0.6701(2)
O6A O 0.29804(12) -0.2254(3) 0.3653(2)
O8 O 0.06464(17) 0.8981(4) 0.3482(5)
N4 N 0.20139(19) 0.7264(4) 0.0332(4)
N5 N 0.1557(2) 0.7842(4) 0.1340(4)
N6 N 0.1926(3) 0.8487(6) 0.1321(5)
N7 N 0.13457(19) 0.6248(4) 0.0448(4)
C20 C 0.2216(2) 0.8162(4) 0.0743(4)
H11 H 0.2491 0.8463 0.0636
C21 C 0.1633(2) 0.7077(5) 0.0706(4)
loop_
_geom_bond_atom_site_label_1
_geom_bond_atom_site_label_2
_geom_bond_site_symmetry_1
_geom_bond_site_symmetry_2
Nd1 O1 1_555 1_555
O1 C1 1_555 1_555
O2 Nd1 1_555 1_555
O3 C9 1_555 1_555
O4 C9 1_555 1_555
O5 C16 1_555 1_555
O6 C16 1_555 1_555
O7 Nd1 1_555 1_555
N1 C8 1_555 1_555
N2 Nd1 1_555 1_555
N3 C17 1_555 1_555
N4 C20 1_555 1_555
N5 N6 1_555 1_555
N6 C20 1_555 1_555
N7 C21 1_555 1_555
C1 O2 1_555 1_555
C2 C1 1_555 1_555
C3 C2 1_555 1_555
H1 C3 1_555 1_555
C4 C3 1_555 1_555
H2 C4 1_555 1_555
C5 C4 1_555 1_555
C6 C5 1_555 1_555
H3 C6 1_555 1_555
C7 C2 1_555 1_555
H4 C7 1_555 1_555
C8 C5 1_555 1_555
C9 C10 1_555 1_555
C10 C11 1_555 1_555
C11 H5 1_555 1_555
C12 N1 1_555 1_555
C13 C12 1_555 1_555
H6 C13 1_555 1_555
C14 C13 1_555 1_555
C15 C10 1_555 1_555
H7 C15 1_555 1_555
C16 C14 1_555 1_555
C17 N2 1_555 1_555
H8 C17 1_555 1_555
C18 N3 1_555 1_555
H9 C18 1_555 1_555
C19 N2 1_555 1_555
H10 C19 1_555 1_555
C20 H11 1_555 1_555
C21 N4 1_555 1_555
H12 C8 1_555 1_555
Nd1B O3 1_555 1_555
Nd1D O3 1_555 1_555
Nd1G O5 1_555 1_555
Nd1A O6 1_555 1_555
O3B Nd1 1_555 1_555
O3D Nd1 1_555 1_555
O4B Nd1 1_555 1_555
O5G Nd1 1_555 1_555
O6A Nd1 1_555 1_555
O4 Nd1B 1_555 1_555
N5 C21 1_555 1_555
C6 C7 1_555 1_555
C11 C12 1_555 1_555
C14 C15 1_555 1_555
C18 C19 1_555 1_555

#END
