
#######################################################################
#
#                 Cambridge Crystallographic Data Centre
#                                CCDC 
#
#######################################################################
#
# If this CIF has been generated from an entry in the Cambridge 
# Structural Database, then it will include bibliographic, chemical, 
# crystal, experimental, refinement or atomic coordinate data resulting 
# from the CCDC's data processing and validation procedures.
#
#######################################################################

data_GEDRAK
_symmetry_cell_setting           monoclinic
_symmetry_space_group_name_H-M   'C 2/c'
_symmetry_Int_Tables_number      15
_space_group_name_Hall           '-C 2yn'
loop_
_symmetry_equiv_pos_site_id
_symmetry_equiv_pos_as_xyz
1 x,y,z
2 -x,y,1/2-z
3 1/2+x,1/2+y,z
4 1/2-x,1/2+y,1/2-z
5 -x,-y,-z
6 x,-y,1/2+z
7 1/2-x,1/2-y,-z
8 1/2+x,1/2-y,1/2+z
_cell_length_a                   28.6605(11)
_cell_length_b                   14.8265(9)
_cell_length_c                   12.6284(9)
_cell_angle_alpha                90
_cell_angle_beta                 103.357(5)
_cell_angle_gamma                90
_cell_volume                     5221.09
loop_
_atom_site_label
_atom_site_type_symbol
_atom_site_fract_x
_atom_site_fract_y
_atom_site_fract_z
Nd1 Nd 0.320095(11) 0.28497(2) 0.55718(3)
O1 O 0.38438(16) 0.1795(3) 0.5278(4)
O2 O 0.39270(18) 0.3220(4) 0.4850(5)
O3 O 0.79546(15) -0.0723(3) 0.4586(4)
O4 O 0.73129(14) -0.1538(3) 0.4613(3)
O5 O 0.77351(15) 0.1771(4) 0.1875(4)
O6 O 0.70131(16) 0.2418(3) 0.1339(4)
O7 O 0.3628(3) 0.2091(4) 0.7289(5)
O8 O 0.3656(2) 0.4067(5) 0.6769(6)
N1 N 0.59584(17) 0.0765(4) 0.3477(5)
C1 C 0.4056(2) 0.2405(5) 0.4894(6)
C2 C 0.4495(2) 0.2175(5) 0.4475(6)
C3 C 0.4781(3) 0.2852(5) 0.4208(8)
H1 H 0.4688 0.3452 0.4227
C4 C 0.5203(3) 0.2639(5) 0.3911(7)
H2 H 0.5397 0.3097 0.3751
C5 C 0.5339(2) 0.1746(5) 0.3852(5)
C6 C 0.5041(2) 0.1062(5) 0.4076(5)
H3 H 0.5123 0.0460 0.4015
C7 C 0.4620(2) 0.1284(5) 0.4393(5)
H4 H 0.4422 0.0830 0.4548
C8 C 0.5803(2) 0.1552(5) 0.3589(5)
C9 C 0.7508(2) -0.0832(4) 0.4356(5)
C10 C 0.7191(2) -0.0088(4) 0.3755(5)
C11 C 0.6712(2) -0.0010(4) 0.3840(5)
H5 H 0.6584 -0.0424 0.4249
C12 C 0.6431(2) 0.0695(5) 0.3306(5)
C13 C 0.6620(2) 0.1285(5) 0.2670(5)
H6 H 0.6429 0.1744 0.2299
C14 C 0.7092(2) 0.1206(4) 0.2574(5)
C15 C 0.7378(2) 0.0528(4) 0.3144(5)
H7 H 0.7699 0.0489 0.3114
C16 C 0.7292(2) 0.1849(5) 0.1884(5)
C17 C 0.3620(5) 0.2157(9) 0.8395(10)
H8 H 0.3451 0.2699 0.8519
H9 H 0.3945 0.2189 0.8838
C18 C 0.3373(6) 0.1350(11) 0.8696(14)
H10 H 0.3352 0.1398 0.9442
H11 H 0.3551 0.0818 0.8606
H12 H 0.3057 0.1311 0.8236
C19 C 0.3595(8) 0.4308(18) 0.7841(11)
H13 H 0.3604 0.3697 0.8119
H14 H 0.3255 0.4438 0.7618
C20 C 0.3676(6) 0.4767(12) 0.8928(11)
H15 H 0.3945 0.5169 0.9013
H16 H 0.3740 0.4322 0.9496
H17 H 0.3395 0.5104 0.8971
H18 H 0.599(3) 0.204(5) 0.361(7)
Nd1A Nd 0.679905(11) 0.28497(2) -0.05718(3)
Nd1B Nd 0.820095(11) -0.21503(2) 0.55718(3)
Nd1D Nd 0.679905(11) -0.28497(2) 0.44282(3)
Nd1G Nd 0.820095(11) 0.21503(2) 0.05718(3)
O3B O 0.29546(15) 0.4277(3) 0.4586(4)
O4B O 0.23129(14) 0.3462(3) 0.4613(3)
O4D O 0.26871(14) 0.1538(3) 0.5387(3)
O5G O 0.27351(15) 0.3229(4) 0.6875(4)
O6A O 0.29869(16) 0.2418(3) 0.3661(4)
loop_
_geom_bond_atom_site_label_1
_geom_bond_atom_site_label_2
_geom_bond_site_symmetry_1
_geom_bond_site_symmetry_2
Nd1 O1 1_555 1_555
O1 C1 1_555 1_555
O2 Nd1 1_555 1_555
O3 C9 1_555 1_555
O4 C9 1_555 1_555
O5 C16 1_555 1_555
O6 C16 1_555 1_555
O7 Nd1 1_555 1_555
O8 Nd1 1_555 1_555
N1 C8 1_555 1_555
C1 O2 1_555 1_555
C2 C1 1_555 1_555
C3 C2 1_555 1_555
H1 C3 1_555 1_555
C4 C3 1_555 1_555
H2 C4 1_555 1_555
C5 C4 1_555 1_555
C6 C5 1_555 1_555
H3 C6 1_555 1_555
C7 C2 1_555 1_555
H4 C7 1_555 1_555
C8 C5 1_555 1_555
C9 C10 1_555 1_555
C10 C11 1_555 1_555
C11 H5 1_555 1_555
C12 N1 1_555 1_555
C13 C12 1_555 1_555
H6 C13 1_555 1_555
C14 C13 1_555 1_555
C15 C10 1_555 1_555
H7 C15 1_555 1_555
C16 C14 1_555 1_555
C17 O7 1_555 1_555
H8 C17 1_555 1_555
H9 C17 1_555 1_555
C18 C17 1_555 1_555
H10 C18 1_555 1_555
H11 C18 1_555 1_555
H12 C18 1_555 1_555
C19 O8 1_555 1_555
H13 C19 1_555 1_555
H14 C19 1_555 1_555
C20 C19 1_555 1_555
H15 C20 1_555 1_555
H16 C20 1_555 1_555
H17 C20 1_555 1_555
H18 C8 1_555 1_555
Nd1A O6 1_555 1_555
Nd1B O3 1_555 1_555
Nd1D O4 1_555 1_555
Nd1G O5 1_555 1_555
O3B Nd1 1_555 1_555
O4B Nd1 1_555 1_555
O4D Nd1 1_555 1_555
O5G Nd1 1_555 1_555
O6A Nd1 1_555 1_555
O4 Nd1B 1_555 1_555
C6 C7 1_555 1_555
C11 C12 1_555 1_555
C14 C15 1_555 1_555

#END
