
#######################################################################
#
#                 Cambridge Crystallographic Data Centre
#                                CCDC 
#
#######################################################################
#
# If this CIF has been generated from an entry in the Cambridge 
# Structural Database, then it will include bibliographic, chemical, 
# crystal, experimental, refinement or atomic coordinate data resulting 
# from the CCDC's data processing and validation procedures.
#
#######################################################################

data_GEDROY
_symmetry_cell_setting           monoclinic
_symmetry_space_group_name_H-M   'C 2/c'
_symmetry_Int_Tables_number      15
_space_group_name_Hall           '-C 2yn'
loop_
_symmetry_equiv_pos_site_id
_symmetry_equiv_pos_as_xyz
1 x,y,z
2 -x,y,1/2-z
3 1/2+x,1/2+y,z
4 1/2-x,1/2+y,1/2-z
5 -x,-y,-z
6 x,-y,1/2+z
7 1/2-x,1/2-y,-z
8 1/2+x,1/2-y,1/2+z
_cell_length_a                   28.483(3)
_cell_length_b                   14.5232(12)
_cell_length_c                   12.3002(15)
_cell_angle_alpha                90
_cell_angle_beta                 106.765(11)
_cell_angle_gamma                90
_cell_volume                     4871.89
loop_
_atom_site_label
_atom_site_type_symbol
_atom_site_fract_x
_atom_site_fract_y
_atom_site_fract_z
Nd1 Nd 0.322039(13) 0.21760(3) 0.07040(4)
O1 O 0.3945(2) 0.1682(5) 0.0034(6)
O2 O 0.3870(2) 0.3174(5) 0.0338(7)
O3 O 0.7980(2) 0.5651(5) -0.0176(6)
O4 O 0.73200(18) 0.6502(4) -0.0301(5)
O5 O 0.7756(2) 0.3095(5) -0.2977(5)
O6 O 0.7011(2) 0.2459(4) -0.3671(5)
O7 O 0.3651(3) 0.3099(6) 0.2406(7)
O8 O 0.3713(3) 0.1035(6) 0.2066(7)
N1 N 0.5960(2) 0.4093(6) -0.1490(6)
C1 C 0.4078(3) 0.2526(7) -0.0016(8)
C2 C 0.4508(3) 0.2704(7) -0.0454(9)
C3 C 0.4641(3) 0.3617(8) -0.0543(8)
H1 H 0.4452 0.4089 -0.0377
C4 C 0.5058(3) 0.3828(7) -0.0882(8)
H2 H 0.5142 0.4438 -0.0964
C5 C 0.5342(3) 0.3117(7) -0.1091(8)
C6 C 0.5203(4) 0.2196(8) -0.1027(11)
H3 H 0.5387 0.1720 -0.1205
C7 C 0.4787(4) 0.2010(8) -0.0691(11)
H4 H 0.4696 0.1402 -0.0628
C8 C 0.5810(3) 0.3282(7) -0.1357(8)
C9 C 0.7519(3) 0.5765(6) -0.0504(8)
C10 C 0.7204(3) 0.5002(6) -0.1123(7)
C11 C 0.6720(3) 0.4920(6) -0.1091(7)
H5 H 0.6587 0.5356 -0.0711
C12 C 0.6438(3) 0.4180(7) -0.1632(7)
C13 C 0.6621(3) 0.3572(7) -0.2282(7)
H6 H 0.6423 0.3103 -0.2683
C14 C 0.7103(3) 0.3666(6) -0.2331(7)
C15 C 0.7393(3) 0.4364(6) -0.1725(7)
H7 H 0.7719 0.4406 -0.1720
C16 C 0.7303(3) 0.3024(6) -0.3056(7)
C17 C 0.3564(11) 0.330(2) 0.3422(18)
H8 H 0.3823 0.3684 0.3868
H9 H 0.3550 0.2741 0.3825
H10 H 0.3257 0.3621 0.3281
H11 H 0.602(4) 0.278(7) -0.112(9)
Nd1B Nd 0.822039(13) 0.71760(3) 0.07040(4)
Nd1D Nd 0.677961(13) 0.78240(3) -0.07040(4)
Nd1G Nd 0.822039(13) 0.28240(3) -0.42960(4)
Nd1A Nd 0.677961(13) 0.21760(3) -0.57040(4)
O3B O 0.2980(2) 0.0651(5) -0.0176(6)
O4B O 0.23200(18) 0.1502(4) -0.0301(5)
O4D O 0.26800(18) 0.3498(4) 0.0301(5)
O5G O 0.2756(2) 0.1905(5) 0.2023(5)
O6A O 0.2989(2) 0.2459(4) -0.1329(5)
O9 O 0.4471(2) 0.4156(6) 0.2348(8)
loop_
_geom_bond_atom_site_label_1
_geom_bond_atom_site_label_2
_geom_bond_site_symmetry_1
_geom_bond_site_symmetry_2
Nd1 O1 1_555 1_555
O1 C1 1_555 1_555
O2 Nd1 1_555 1_555
O3 C9 1_555 1_555
O4 C9 1_555 1_555
O5 C16 1_555 1_555
O6 C16 1_555 1_555
O7 Nd1 1_555 1_555
O8 Nd1 1_555 1_555
N1 C8 1_555 1_555
C1 O2 1_555 1_555
C2 C1 1_555 1_555
C3 C2 1_555 1_555
H1 C3 1_555 1_555
C4 C3 1_555 1_555
H2 C4 1_555 1_555
C5 C4 1_555 1_555
C6 C5 1_555 1_555
H3 C6 1_555 1_555
C7 C2 1_555 1_555
H4 C7 1_555 1_555
C8 C5 1_555 1_555
C9 C10 1_555 1_555
C10 C11 1_555 1_555
C11 H5 1_555 1_555
C12 N1 1_555 1_555
C13 C12 1_555 1_555
H6 C13 1_555 1_555
C14 C13 1_555 1_555
C15 C10 1_555 1_555
H7 C15 1_555 1_555
C16 C14 1_555 1_555
C17 O7 1_555 1_555
H8 C17 1_555 1_555
H9 C17 1_555 1_555
H10 C17 1_555 1_555
H11 C8 1_555 1_555
Nd1B O3 1_555 1_555
Nd1D O4 1_555 1_555
Nd1G O5 1_555 1_555
Nd1A O6 1_555 1_555
O3B Nd1 1_555 1_555
O4B Nd1 1_555 1_555
O4D Nd1 1_555 1_555
O5G Nd1 1_555 1_555
O6A Nd1 1_555 1_555
O4 Nd1B 1_555 1_555
C6 C7 1_555 1_555
C11 C12 1_555 1_555
C14 C15 1_555 1_555

#END
