
#######################################################################
#
#                 Cambridge Crystallographic Data Centre
#                                CCDC 
#
#######################################################################
#
# If this CIF has been generated from an entry in the Cambridge 
# Structural Database, then it will include bibliographic, chemical, 
# crystal, experimental, refinement or atomic coordinate data resulting 
# from the CCDC's data processing and validation procedures.
#
#######################################################################

data_GEDRUE
_symmetry_cell_setting           monoclinic
_symmetry_space_group_name_H-M   'C 2/c'
_symmetry_Int_Tables_number      15
_space_group_name_Hall           '-C 2yn'
loop_
_symmetry_equiv_pos_site_id
_symmetry_equiv_pos_as_xyz
1 x,y,z
2 -x,y,1/2-z
3 1/2+x,1/2+y,z
4 1/2-x,1/2+y,1/2-z
5 -x,-y,-z
6 x,-y,1/2+z
7 1/2-x,1/2-y,-z
8 1/2+x,1/2-y,1/2+z
_cell_length_a                   28.8320(18)
_cell_length_b                   14.3769(10)
_cell_length_c                   13.2474(10)
_cell_angle_alpha                90
_cell_angle_beta                 100.622(7)
_cell_angle_gamma                90
_cell_volume                     5397.15
loop_
_atom_site_label
_atom_site_type_symbol
_atom_site_fract_x
_atom_site_fract_y
_atom_site_fract_z
Nd1 Nd 0.818565(11) 0.28727(2) 0.54668(3)
N1 N 1.09704(18) 0.0780(4) 0.3500(4)
O1 O 0.88136(16) 0.1773(4) 0.5114(4)
O2 O 0.89145(16) 0.3256(4) 0.4787(4)
O3 O 1.29412(15) -0.0662(3) 0.4543(4)
O4 O 1.23164(14) -0.1525(3) 0.4619(3)
O5 O 1.20142(15) 0.2408(3) 0.1314(3)
O6 O 1.27125(15) 0.1702(4) 0.1731(4)
O7 O 0.8657(2) 0.4068(5) 0.6620(5)
O8 O 0.8564(2) 0.2068(5) 0.7119(5)
C1 C 0.9041(2) 0.2409(5) 0.4793(6)
C2 C 0.9479(2) 0.2181(5) 0.4389(6)
C3 C 0.9765(3) 0.2886(5) 0.4120(7)
H1 H 0.9670 0.3503 0.4141
C4 C 1.0186(3) 0.2680(6) 0.3824(7)
H2 H 1.0377 0.3159 0.3662
C5 C 1.0329(2) 0.1768(5) 0.3764(6)
C6 C 1.0036(2) 0.1057(5) 0.3997(6)
H3 H 1.0123 0.0439 0.3936
C7 C 0.9621(2) 0.1263(5) 0.4314(6)
H4 H 0.9432 0.0784 0.4481
C8 C 1.0791(2) 0.1582(6) 0.3511(5)
H5 H 1.094(3) 0.212(6) 0.341(6)
C9 C 1.2498(2) -0.0801(5) 0.4335(5)
C10 C 1.2191(2) -0.0066(5) 0.3748(5)
C11 C 1.1720(2) 0.0010(5) 0.3841(5)
H6 H 1.1592 -0.0408 0.4250
C12 C 1.1439(2) 0.0713(5) 0.3320(5)
C13 C 1.1623(2) 0.1274(5) 0.2642(5)
H7 H 1.1432 0.1712 0.2252
C14 C 1.2091(2) 0.1188(5) 0.2538(5)
C15 C 1.2373(2) 0.0537(5) 0.3100(5)
H8 H 1.2690 0.0498 0.3048
C16 C 1.2288(2) 0.1822(5) 0.1799(5)
C17 C 0.9049(4) 0.1761(10) 0.7412(10)
H9 H 0.9107 0.1244 0.6981
H10 H 0.9261 0.2264 0.7314
C18 C 0.9141(7) 0.1476(13) 0.8474(12)
H11 H 0.9261 0.1990 0.8919
H12 H 0.9367 0.0969 0.8585
C19 C 0.8663(6) 0.1162(10) 0.8673(10)
H13 H 0.8643 0.1226 0.9392
H14 H 0.8598 0.0523 0.8461
C20 C 0.8317(5) 0.1859(9) 0.7979(8)
H15 H 0.8013 0.1571 0.7731
H16 H 0.8270 0.2420 0.8355
Nd1B Nd 1.318565(11) -0.21273(2) 0.54668(3)
Nd1D Nd 1.181435(11) -0.28727(2) 0.45332(3)
Nd1A Nd 1.181435(11) 0.28727(2) -0.04668(3)
Nd1G Nd 1.318565(11) 0.21273(2) 0.04668(3)
O3B O 0.79412(15) 0.4338(3) 0.4543(4)
O4B O 0.73164(14) 0.3475(3) 0.4619(3)
O4D O 0.76836(14) 0.1525(3) 0.5381(3)
O5A O 0.79858(15) 0.2408(3) 0.3686(3)
O6G O 0.77125(15) 0.3298(4) 0.6731(4)
O9 O 0.8696(6) 0.5909(13) 0.6356(16)
C21 C 0.8352(8) 0.607(2) 0.7010(17)
H17 H 0.8459 0.6554 0.7515
H18 H 0.8288 0.5511 0.7362
C22 C 0.7922(8) 0.639(2) 0.6257(19)
H19 H 0.7728 0.5848 0.6041
H20 H 0.7740 0.6801 0.6613
C23 C 0.8017(9) 0.6881(18) 0.531(2)
H21 H 0.7789 0.6740 0.4695
H22 H 0.8059 0.7548 0.5399
C24 C 0.8471(9) 0.635(2) 0.5399(18)
H23 H 0.8419 0.5866 0.4881
H24 H 0.8701 0.6774 0.5203
loop_
_geom_bond_atom_site_label_1
_geom_bond_atom_site_label_2
_geom_bond_site_symmetry_1
_geom_bond_site_symmetry_2
Nd1 O1 1_555 1_555
N1 C8 1_555 1_555
O1 C1 1_555 1_555
O2 Nd1 1_555 1_555
O3 C9 1_555 1_555
O4 C9 1_555 1_555
O5 C16 1_555 1_555
O6 C16 1_555 1_555
O7 Nd1 1_555 1_555
O8 Nd1 1_555 1_555
O9 C21 1_555 1_555
C1 O2 1_555 1_555
C2 C1 1_555 1_555
C3 C2 1_555 1_555
H1 C3 1_555 1_555
C4 C3 1_555 1_555
H2 C4 1_555 1_555
C5 C4 1_555 1_555
C6 C5 1_555 1_555
H3 C6 1_555 1_555
C7 C2 1_555 1_555
H4 C7 1_555 1_555
C8 C5 1_555 1_555
H5 C8 1_555 1_555
C9 C10 1_555 1_555
C10 C11 1_555 1_555
C11 H6 1_555 1_555
C12 N1 1_555 1_555
C13 C12 1_555 1_555
H7 C13 1_555 1_555
C14 C13 1_555 1_555
C15 C10 1_555 1_555
H8 C15 1_555 1_555
C16 C14 1_555 1_555
C17 O8 1_555 1_555
H9 C17 1_555 1_555
H10 C17 1_555 1_555
C18 C17 1_555 1_555
H11 C18 1_555 1_555
H12 C18 1_555 1_555
C19 C18 1_555 1_555
H13 C19 1_555 1_555
H14 C19 1_555 1_555
C20 O8 1_555 1_555
H15 C20 1_555 1_555
H16 C20 1_555 1_555
C21 H17 1_555 1_555
H18 C21 1_555 1_555
C22 C21 1_555 1_555
H19 C22 1_555 1_555
H20 C22 1_555 1_555
C23 C22 1_555 1_555
H21 C23 1_555 1_555
H22 C23 1_555 1_555
C24 O9 1_555 1_555
H23 C24 1_555 1_555
H24 C24 1_555 1_555
Nd1B O3 1_555 1_555
Nd1D O4 1_555 1_555
Nd1A O5 1_555 1_555
Nd1G O6 1_555 1_555
O3B Nd1 1_555 1_555
O4B Nd1 1_555 1_555
O4D Nd1 1_555 1_555
O5A Nd1 1_555 1_555
O6G Nd1 1_555 1_555
O4 Nd1B 1_555 1_555
C6 C7 1_555 1_555
C11 C12 1_555 1_555
C14 C15 1_555 1_555
C19 C20 1_555 1_555
C23 C24 1_555 1_555

#END
