
#######################################################################
#
#                 Cambridge Crystallographic Data Centre
#                                CCDC 
#
#######################################################################
#
# If this CIF has been generated from an entry in the Cambridge 
# Structural Database, then it will include bibliographic, chemical, 
# crystal, experimental, refinement or atomic coordinate data resulting 
# from the CCDC's data processing and validation procedures.
#
#######################################################################

data_GEDSAL
_symmetry_cell_setting           monoclinic
_symmetry_space_group_name_H-M   'C 2/c'
_symmetry_Int_Tables_number      15
_space_group_name_Hall           '-C 2yn'
loop_
_symmetry_equiv_pos_site_id
_symmetry_equiv_pos_as_xyz
1 x,y,z
2 -x,y,1/2-z
3 1/2+x,1/2+y,z
4 1/2-x,1/2+y,1/2-z
5 -x,-y,-z
6 x,-y,1/2+z
7 1/2-x,1/2-y,-z
8 1/2+x,1/2-y,1/2+z
_cell_length_a                   28.6181(18)
_cell_length_b                   14.4649(10)
_cell_length_c                   12.8273(10)
_cell_angle_alpha                90
_cell_angle_beta                 103.661(7)
_cell_angle_gamma                90
_cell_volume                     5159.74
loop_
_atom_site_label
_atom_site_type_symbol
_atom_site_fract_x
_atom_site_fract_y
_atom_site_fract_z
Nd1 Nd 0.819715(12) 0.28617(3) 0.55916(3)
O1 O 0.8939(2) 0.3271(4) 0.4988(6)
O2 O 0.88422(18) 0.1796(4) 0.5280(4)
O3 O 1.29466(16) -0.0654(3) 0.4649(4)
O4 O 1.23130(16) -0.1510(3) 0.4639(4)
O5 O 1.27158(17) 0.1775(4) 0.1849(4)
O6 O 1.19930(17) 0.2464(4) 0.1288(4)
O7 O 0.8560(3) 0.2017(5) 0.7282(5)
O8 O 0.8635(3) 0.4049(8) 0.6812(7)
N1 N 1.0960(2) 0.0869(5) 0.3522(5)
C1 C 0.9062(3) 0.2452(6) 0.4966(7)
C2 C 0.9498(3) 0.2230(5) 0.4530(7)
C3 C 0.9629(2) 0.1314(5) 0.4418(6)
H1 H 0.9439 0.0838 0.4579
C4 C 1.0042(3) 0.1103(6) 0.4070(6)
H2 H 1.0125 0.0491 0.3984
C5 C 1.0334(3) 0.1838(6) 0.3847(7)
C6 C 1.0201(4) 0.2754(6) 0.3962(10)
H3 H 1.0397 0.3235 0.3840
C7 C 0.9772(3) 0.2944(6) 0.4262(10)
H4 H 0.9669 0.3553 0.4283
C8 C 1.0791(3) 0.1676(7) 0.3566(7)
H5 H 1.097(3) 0.228(4) 0.353(7)
C9 C 1.2507(2) -0.0767(5) 0.4391(6)
C10 C 1.2190(2) -0.0041(5) 0.3788(5)
C11 C 1.1712(2) 0.0051(5) 0.3867(6)
H6 H 1.1580 -0.0373 0.4261
C12 C 1.1436(2) 0.0792(5) 0.3342(6)
C13 C 1.1612(2) 0.1364(5) 0.2673(5)
H7 H 1.1417 0.1822 0.2285
C14 C 1.2084(2) 0.1254(5) 0.2579(5)
C15 C 1.2366(2) 0.0574(5) 0.3156(5)
H8 H 1.2686 0.0528 0.3119
C16 C 1.2277(3) 0.1893(5) 0.1845(6)
C17 C 0.8867(5) 0.1516(9) 0.7881(9)
C18 C 0.8697(7) 0.0915(10) 0.8673(11)
H9 H 0.8390 0.1128 0.8750
H10 H 0.8925 0.0944 0.9355
H11 H 0.8669 0.0287 0.8421
C19 C 0.9354(4) 0.1209(13) 0.7741(13)
H12 H 0.9453 0.1604 0.7231
H13 H 0.9334 0.0582 0.7487
H14 H 0.9585 0.1246 0.8418
C20 C 0.8725(11) 0.4603(14) 0.7585(14)
C21 C 0.8612(10) 0.5600(17) 0.730(2)
H15 H 0.8551 0.5674 0.6533
H16 H 0.8880 0.5979 0.7637
H17 H 0.8333 0.5783 0.7538
C22 C 0.8812(9) 0.4620(17) 0.8788(14)
H18 H 0.8871 0.4003 0.9062
H19 H 0.8535 0.4867 0.8988
H20 H 0.9087 0.5001 0.9081
Nd1B Nd 1.319715(12) -0.21383(3) 0.55916(3)
Nd1D Nd 1.180285(12) -0.28617(3) 0.44084(3)
Nd1G Nd 1.319715(12) 0.21383(3) 0.05916(3)
Nd1A Nd 1.180285(12) 0.28617(3) -0.05916(3)
O3B O 0.79466(16) 0.4346(3) 0.4649(4)
O4B O 0.73130(16) 0.3490(3) 0.4639(4)
O4D O 0.76870(16) 0.1510(3) 0.5361(4)
O5G O 0.77158(17) 0.3225(4) 0.6849(4)
O6A O 0.80070(17) 0.2464(4) 0.3712(4)
loop_
_geom_bond_atom_site_label_1
_geom_bond_atom_site_label_2
_geom_bond_site_symmetry_1
_geom_bond_site_symmetry_2
Nd1 O1 1_555 1_555
O1 C1 1_555 1_555
O2 Nd1 1_555 1_555
O3 C9 1_555 1_555
O4 C9 1_555 1_555
O5 C16 1_555 1_555
O6 C16 1_555 1_555
O7 Nd1 1_555 1_555
O8 Nd1 1_555 1_555
N1 C8 1_555 1_555
C1 O2 1_555 1_555
C2 C1 1_555 1_555
C3 C2 1_555 1_555
H1 C3 1_555 1_555
C4 C3 1_555 1_555
H2 C4 1_555 1_555
C5 C4 1_555 1_555
C6 C5 1_555 1_555
H3 C6 1_555 1_555
C7 C2 1_555 1_555
H4 C7 1_555 1_555
C8 C5 1_555 1_555
H5 C8 1_555 1_555
C9 C10 1_555 1_555
C10 C11 1_555 1_555
C11 H6 1_555 1_555
C12 N1 1_555 1_555
C13 C12 1_555 1_555
H7 C13 1_555 1_555
C14 C13 1_555 1_555
C15 C10 1_555 1_555
H8 C15 1_555 1_555
C16 C14 1_555 1_555
C17 O7 1_555 1_555
C18 C17 1_555 1_555
H9 C18 1_555 1_555
H10 C18 1_555 1_555
H11 C18 1_555 1_555
C19 C17 1_555 1_555
H12 C19 1_555 1_555
H13 C19 1_555 1_555
H14 C19 1_555 1_555
C20 O8 1_555 1_555
C21 C20 1_555 1_555
H15 C21 1_555 1_555
H16 C21 1_555 1_555
H17 C21 1_555 1_555
C22 C20 1_555 1_555
H18 C22 1_555 1_555
H19 C22 1_555 1_555
H20 C22 1_555 1_555
Nd1B O3 1_555 1_555
Nd1D O4 1_555 1_555
Nd1G O5 1_555 1_555
Nd1A O6 1_555 1_555
O3B Nd1 1_555 1_555
O4B Nd1 1_555 1_555
O4D Nd1 1_555 1_555
O5G Nd1 1_555 1_555
O6A Nd1 1_555 1_555
O4 Nd1B 1_555 1_555
C6 C7 1_555 1_555
C11 C12 1_555 1_555
C14 C15 1_555 1_555

#END
