
#######################################################################
#
#                 Cambridge Crystallographic Data Centre
#                                CCDC 
#
#######################################################################
#
# If this CIF has been generated from an entry in the Cambridge 
# Structural Database, then it will include bibliographic, chemical, 
# crystal, experimental, refinement or atomic coordinate data resulting 
# from the CCDC's data processing and validation procedures.
#
#######################################################################

data_GEDSOZ
_symmetry_cell_setting           monoclinic
_symmetry_space_group_name_H-M   'C 2/c'
_symmetry_Int_Tables_number      15
_space_group_name_Hall           '-C 2yn'
loop_
_symmetry_equiv_pos_site_id
_symmetry_equiv_pos_as_xyz
1 x,y,z
2 -x,y,1/2-z
3 1/2+x,1/2+y,z
4 1/2-x,1/2+y,1/2-z
5 -x,-y,-z
6 x,-y,1/2+z
7 1/2-x,1/2-y,-z
8 1/2+x,1/2-y,1/2+z
_cell_length_a                   29.16760(11)
_cell_length_b                   14.4488(6)
_cell_length_c                   13.0926(5)
_cell_angle_alpha                90
_cell_angle_beta                 98.748(4)
_cell_angle_gamma                90
_cell_volume                     5453.52
loop_
_atom_site_label
_atom_site_type_symbol
_atom_site_fract_x
_atom_site_fract_y
_atom_site_fract_z
Nd1 Nd 0.316094(10) 0.29266(2) 0.54413(2)
S1 S 0.29113(17) 0.6627(3) 0.5831(3)
S2 S 0.3996(4) 0.0756(6) 0.8614(7)
N1 N 0.59556(19) 0.0786(5) 0.3577(4)
O1 O 0.38336(18) 0.1918(4) 0.5266(4)
O2 O 0.38706(16) 0.3314(4) 0.4604(4)
O3 O 0.72942(14) -0.1550(4) 0.4572(3)
O4 O 0.78958(14) -0.0649(4) 0.4527(4)
O5 O 0.76758(15) 0.1689(4) 0.1701(3)
O6 O 0.69925(15) 0.2391(4) 0.1316(3)
O7 O 0.35899(19) 0.4184(5) 0.6478(4)
O8 O 0.3547(2) 0.2281(5) 0.7168(4)
O9 O 0.3936(4) 0.5589(11) 0.7916(9)
H1 H 0.3759 0.5598 0.8348
O10 O 0.3814(8) 0.3786(13) 0.8537(9)
H2 H 0.3884 0.3756 0.7955
C1 C 0.4034(2) 0.2499(6) 0.4775(5)
C2 C 0.4473(2) 0.2243(6) 0.4417(5)
C3 C 0.4617(3) 0.1341(6) 0.4425(6)
H3 H 0.4431 0.0885 0.4649
C4 C 0.5030(2) 0.1085(6) 0.4113(6)
H4 H 0.5117 0.0465 0.4112
C5 C 0.5319(2) 0.1781(6) 0.3796(6)
C6 C 0.5175(3) 0.2694(7) 0.3801(8)
H5 H 0.5364 0.3158 0.3603
C7 C 0.4753(3) 0.2926(6) 0.4099(7)
H6 H 0.4658 0.3541 0.4085
C8 C 0.5781(3) 0.1556(7) 0.3547(6)
C9 C 0.7470(2) -0.0806(5) 0.4328(5)
C10 C 0.7163(2) -0.0045(5) 0.3784(5)
C11 C 0.6697(2) -0.0001(5) 0.3891(5)
H7 H 0.6571 -0.0434 0.4295
C12 C 0.6418(2) 0.0699(5) 0.3387(5)
C13 C 0.6607(2) 0.1282(5) 0.2693(5)
H8 H 0.6420 0.1721 0.2314
C14 C 0.7068(2) 0.1206(6) 0.2575(5)
C15 C 0.7346(2) 0.0547(5) 0.3133(5)
H9 H 0.7658 0.0506 0.3068
C16 C 0.7260(2) 0.1802(5) 0.1809(5)
C17 C 0.3761(5) 0.5079(12) 0.6189(12)
H10 H 0.4089 0.5035 0.6139
H11 H 0.3597 0.5265 0.5520
C18 C 0.3691(5) 0.5761(11) 0.6958(10)
H12 H 0.3813 0.6344 0.6728
C19 C 0.3201(5) 0.5932(10) 0.7007(10)
H13 H 0.3173 0.6271 0.7634
H14 H 0.3042 0.5345 0.7034
C20 C 0.3458(5) 0.2323(14) 0.8246(10)
H15 H 0.3151 0.2601 0.8237
C21 C 0.3789(8) 0.2877(12) 0.8945(11)
H16 H 0.3691 0.2908 0.9620
H17 H 0.4093 0.2589 0.9025
C22 C 0.3437(6) 0.1317(13) 0.8678(11)
H18 H 0.3189 0.0973 0.8269
H19 H 0.3378 0.1335 0.9387
H20 H 0.592(3) 0.204(5) 0.340(6)
Nd1B Nd 0.816094(10) -0.20734(2) 0.54413(2)
Nd1D Nd 0.683906(10) -0.29266(2) 0.45587(2)
Nd1G Nd 0.816094(10) 0.20734(2) 0.04413(2)
Nd1A Nd 0.683906(10) 0.29266(2) -0.04413(2)
O3B O 0.22942(14) 0.3450(4) 0.4572(3)
O3D O 0.27058(14) 0.1550(4) 0.5428(3)
O4B O 0.28958(14) 0.4351(4) 0.4527(4)
O5G O 0.26758(15) 0.3311(4) 0.6701(3)
O6A O 0.30075(15) 0.2391(4) 0.3684(3)
loop_
_geom_bond_atom_site_label_1
_geom_bond_atom_site_label_2
_geom_bond_site_symmetry_1
_geom_bond_site_symmetry_2
Nd1 O1 1_555 1_555
S1 C19 1_555 1_555
S2 C22 1_555 1_555
N1 C8 1_555 1_555
O1 C1 1_555 1_555
O2 Nd1 1_555 1_555
O3 C9 1_555 1_555
O4 C9 1_555 1_555
O5 C16 1_555 1_555
O6 C16 1_555 1_555
O7 Nd1 1_555 1_555
O8 Nd1 1_555 1_555
O9 H1 1_555 1_555
O10 H2 1_555 1_555
C1 O2 1_555 1_555
C2 C1 1_555 1_555
C3 C2 1_555 1_555
H3 C3 1_555 1_555
C4 C3 1_555 1_555
H4 C4 1_555 1_555
C5 C4 1_555 1_555
C6 C5 1_555 1_555
H5 C6 1_555 1_555
C7 C2 1_555 1_555
H6 C7 1_555 1_555
C8 C5 1_555 1_555
C9 C10 1_555 1_555
C10 C11 1_555 1_555
C11 H7 1_555 1_555
C12 N1 1_555 1_555
C13 C12 1_555 1_555
H8 C13 1_555 1_555
C14 C13 1_555 1_555
C15 C10 1_555 1_555
H9 C15 1_555 1_555
C16 C14 1_555 1_555
C17 O7 1_555 1_555
H10 C17 1_555 1_555
H11 C17 1_555 1_555
C18 O9 1_555 1_555
H12 C18 1_555 1_555
C19 C18 1_555 1_555
H13 C19 1_555 1_555
H14 C19 1_555 1_555
C20 O8 1_555 1_555
H15 C20 1_555 1_555
C21 O10 1_555 1_555
H16 C21 1_555 1_555
H17 C21 1_555 1_555
C22 C20 1_555 1_555
H18 C22 1_555 1_555
H19 C22 1_555 1_555
H20 C8 1_555 1_555
Nd1B O3 1_555 1_555
Nd1D O3 1_555 1_555
Nd1G O5 1_555 1_555
Nd1A O6 1_555 1_555
O3B Nd1 1_555 1_555
O3D Nd1 1_555 1_555
O4B Nd1 1_555 1_555
O5G Nd1 1_555 1_555
O6A Nd1 1_555 1_555
O4 Nd1B 1_555 1_555
C6 C7 1_555 1_555
C11 C12 1_555 1_555
C14 C15 1_555 1_555
C17 C18 1_555 1_555
C20 C21 1_555 1_555

#END
