
#######################################################################
#
#                 Cambridge Crystallographic Data Centre
#                                CCDC 
#
#######################################################################
#
# If this CIF has been generated from an entry in the Cambridge 
# Structural Database, then it will include bibliographic, chemical, 
# crystal, experimental, refinement or atomic coordinate data resulting 
# from the CCDC's data processing and validation procedures.
#
#######################################################################

data_GEDSIT
_symmetry_cell_setting           monoclinic
_symmetry_space_group_name_H-M   'C 2/c'
_symmetry_Int_Tables_number      15
_space_group_name_Hall           '-C 2yn'
loop_
_symmetry_equiv_pos_site_id
_symmetry_equiv_pos_as_xyz
1 x,y,z
2 -x,y,1/2-z
3 1/2+x,1/2+y,z
4 1/2-x,1/2+y,1/2-z
5 -x,-y,-z
6 x,-y,1/2+z
7 1/2-x,1/2-y,-z
8 1/2+x,1/2-y,1/2+z
_cell_length_a                   29.0425(10)
_cell_length_b                   13.7951(6)
_cell_length_c                   13.0814(6)
_cell_angle_alpha                90
_cell_angle_beta                 100.785(4)
_cell_angle_gamma                90
_cell_volume                     5148.41
loop_
_atom_site_label
_atom_site_type_symbol
_atom_site_fract_x
_atom_site_fract_y
_atom_site_fract_z
Nd1 Nd 0.316580(12) 0.29026(3) 0.55163(3)
O1 O 0.38929(18) 0.3324(4) 0.4875(5)
O2 O 0.37838(19) 0.1759(4) 0.5102(5)
O3 O 0.73097(15) -0.1461(3) 0.4728(4)
O4 O 0.79246(16) -0.0506(3) 0.4713(4)
O5 O 0.77089(19) 0.1973(5) 0.1879(5)
O6 O 0.69949(18) 0.2629(4) 0.1346(4)
O7 O 0.3664(3) 0.2235(5) 0.7141(6)
N1 N 0.5953(2) 0.0875(5) 0.3507(6)
N2 N 0.3521(3) 0.4221(6) 0.6829(7)
N3 N 0.3618(4) 0.5341(9) 0.8160(7)
C1 C 0.4019(3) 0.2446(6) 0.4840(6)
C2 C 0.4460(3) 0.2237(5) 0.4437(6)
C3 C 0.4720(3) 0.2987(6) 0.4130(7)
H1 H 0.4612 0.3621 0.4133
C4 C 0.5141(3) 0.2795(6) 0.3819(8)
H2 H 0.5312 0.3302 0.3606
C5 C 0.5309(3) 0.1862(6) 0.3822(7)
C6 C 0.5037(3) 0.1108(7) 0.4061(8)
H3 H 0.5139 0.0473 0.4016
C7 C 0.4608(3) 0.1285(7) 0.4369(8)
H4 H 0.4425 0.0773 0.4526
C8 C 0.5778(3) 0.1706(7) 0.3559(7)
C9 C 0.7487(2) -0.0663(5) 0.4462(6)
C10 C 0.7183(2) 0.0051(5) 0.3857(6)
C11 C 0.6706(3) 0.0100(5) 0.3891(7)
H5 H 0.6576 -0.0355 0.4279
C12 C 0.6419(3) 0.0825(6) 0.3349(6)
C13 C 0.6610(2) 0.1434(6) 0.2701(6)
H6 H 0.6419 0.1890 0.2306
C14 C 0.7082(2) 0.1385(6) 0.2621(6)
C15 C 0.7371(2) 0.0719(5) 0.3224(6)
H7 H 0.7691 0.0712 0.3212
C16 C 0.7273(3) 0.2055(6) 0.1909(6)
C17 C 0.3730(4) 0.3831(9) 0.7853(9)
C18 C 0.3795(4) 0.4507(8) 0.8636(9)
C19 C 0.3440(5) 0.5132(10) 0.7108(10)
H8 H 0.3280 0.5585 0.6647
C20 C 0.3991(5) 0.4466(10) 0.9707(11)
H9 H 0.3979 0.5098 1.0009
H10 H 0.4311 0.4258 0.9795
H11 H 0.3817 0.4016 1.0045
C21 C 0.3814(5) 0.2798(11) 0.7950(13)
H12 H 0.353(4) 0.162(7) 0.743(10)
H13 H 0.363(5) 0.593(7) 0.869(8)
H14 H 0.597(3) 0.231(6) 0.336(6)
Nd1B Nd 0.816580(12) -0.20974(3) 0.55163(3)
Nd1D Nd 0.683420(12) -0.29026(3) 0.44837(3)
Nd1G Nd 0.816580(12) 0.20974(3) 0.05163(3)
Nd1A Nd 0.683420(12) 0.29026(3) -0.05163(3)
O3B O 0.23097(15) 0.3539(3) 0.4728(4)
O3D O 0.26903(15) 0.1461(3) 0.5272(4)
O4B O 0.29246(16) 0.4494(3) 0.4713(4)
O5G O 0.27089(19) 0.3027(5) 0.6879(5)
O6A O 0.30051(18) 0.2629(4) 0.3654(4)
loop_
_geom_bond_atom_site_label_1
_geom_bond_atom_site_label_2
_geom_bond_site_symmetry_1
_geom_bond_site_symmetry_2
Nd1 O1 1_555 1_555
O1 C1 1_555 1_555
O2 Nd1 1_555 1_555
O3 C9 1_555 1_555
O4 C9 1_555 1_555
O5 C16 1_555 1_555
O6 C16 1_555 1_555
O7 Nd1 1_555 1_555
N1 C8 1_555 1_555
N2 Nd1 1_555 1_555
N3 C18 1_555 1_555
C1 O2 1_555 1_555
C2 C1 1_555 1_555
C3 C2 1_555 1_555
H1 C3 1_555 1_555
C4 C3 1_555 1_555
H2 C4 1_555 1_555
C5 C4 1_555 1_555
C6 C5 1_555 1_555
H3 C6 1_555 1_555
C7 C2 1_555 1_555
H4 C7 1_555 1_555
C8 C5 1_555 1_555
C9 C10 1_555 1_555
C10 C11 1_555 1_555
C11 H5 1_555 1_555
C12 N1 1_555 1_555
C13 C12 1_555 1_555
H6 C13 1_555 1_555
C14 C13 1_555 1_555
C15 C10 1_555 1_555
H7 C15 1_555 1_555
C16 C14 1_555 1_555
C17 N2 1_555 1_555
C18 C17 1_555 1_555
C19 N2 1_555 1_555
H8 C19 1_555 1_555
C20 C18 1_555 1_555
H9 C20 1_555 1_555
H10 C20 1_555 1_555
H11 C20 1_555 1_555
C21 O7 1_555 1_555
H12 O7 1_555 1_555
H13 N3 1_555 1_555
H14 C8 1_555 1_555
Nd1B O3 1_555 1_555
Nd1D O3 1_555 1_555
Nd1G O5 1_555 1_555
Nd1A O6 1_555 1_555
O3B Nd1 1_555 1_555
O3D Nd1 1_555 1_555
O4B Nd1 1_555 1_555
O5G Nd1 1_555 1_555
O6A Nd1 1_555 1_555
O4 Nd1B 1_555 1_555
N3 C19 1_555 1_555
C6 C7 1_555 1_555
C11 C12 1_555 1_555
C14 C15 1_555 1_555
C17 C21 1_555 1_555

#END
