
#######################################################################
#
#                 Cambridge Crystallographic Data Centre
#                                CCDC 
#
#######################################################################
#
# If this CIF has been generated from an entry in the Cambridge 
# Structural Database, then it will include bibliographic, chemical, 
# crystal, experimental, refinement or atomic coordinate data resulting 
# from the CCDC's data processing and validation procedures.
#
#######################################################################

data_GEDWIX
_symmetry_cell_setting           monoclinic
_symmetry_space_group_name_H-M   'P 21/c'
_symmetry_Int_Tables_number      14
_space_group_name_Hall           '-P 2ybc'
loop_
_symmetry_equiv_pos_site_id
_symmetry_equiv_pos_as_xyz
1 x,y,z
2 -x,1/2+y,1/2-z
3 -x,-y,-z
4 x,1/2-y,1/2+z
_cell_length_a                   10.4005(10)
_cell_length_b                   9.2090(7)
_cell_length_c                   23.2616(18)
_cell_angle_alpha                90
_cell_angle_beta                 100.273(8)
_cell_angle_gamma                90
_cell_volume                     2192.24
loop_
_atom_site_label
_atom_site_type_symbol
_atom_site_fract_x
_atom_site_fract_y
_atom_site_fract_z
C1 C 0.4634(14) 0.4018(17) 0.1639(6)
H1 H 0.5533 0.4277 0.1591
H2 H 0.4103 0.4916 0.16
C2 C 0.4050(15) 0.293(2) 0.1161(8)
C3 C 0.4987(14) 0.1725(16) 0.1111(7)
H3 H 0.5018 0.106 0.1442
H4 H 0.5859 0.2129 0.1112
H5 H 0.4696 0.1195 0.0745
C4 C 0.3741(16) 0.377(2) 0.0597(7)
H6 H 0.3642 0.3088 0.0267
H7 H 0.4454 0.4445 0.0571
H8 H 0.2926 0.4308 0.0585
C5 C 0.5544(13) 0.3938(19) 0.2647(7)
C6 C 0.5607(15) 0.3389(16) 0.3257(7)
C7 C 0.6791(15) 0.3595(16) 0.3611(7)
H9 H 0.7495 0.3986 0.345
C8 C 0.6987(15) 0.3243(15) 0.4203(7)
H10 H 0.7814 0.3374 0.4447
C9 C 0.5899(14) 0.2679(16) 0.4430(7)
H11 H 0.5996 0.2407 0.4829
C10 C 0.4709(15) 0.2532(16) 0.4066(7)
H12 H 0.3974 0.2248 0.423
C11 C 0.4540(14) 0.2782(16) 0.3471(7)
C12 C 0.1871(13) 0.1970(17) 0.1008(6)
H13 H 0.1895 0.2091 0.0604
C13 C 0.0667(13) 0.1418(16) 0.1147(7)
C14 C -0.0292(13) 0.0912(16) 0.0689(7)
H14 H -0.0108 0.0909 0.0303
C15 C -0.1463(15) 0.0431(17) 0.0777(8)
H15 H -0.2082 0.0071 0.0458
C16 C -0.1770(13) 0.0460(17) 0.1341(7)
H16 H -0.2604 0.0157 0.1408
C17 C -0.0819(13) 0.0947(17) 0.1802(7)
C18 C 0.0423(13) 0.1424(17) 0.1721(7)
C19 C -0.2340(12) 0.0870(17) 0.2429(7)
H17 H -0.2885 0.1642 0.2222
H18 H -0.2384 0.0909 0.2846
H19 H -0.2659 -0.0076 0.227
N1 N 0.4660(11) 0.3393(12) 0.2209(6)
N2 N 0.2888(11) 0.2310(14) 0.1356(5)
O1 O 0.3394(9) 0.2532(11) 0.3151(4)
O2 O 0.1247(9) 0.1928(12) 0.2189(4)
O3 O 0.6352(11) 0.4951(12) 0.2565(5)
O4 O -0.1084(9) 0.1055(14) 0.2356(5)
Co1 Co 0.31947(17) 0.2027(2) 0.22731(9)
O3A O 0.3648(11) -0.0049(12) 0.2435(5)
Co1A Co 0.68053(17) 0.7027(2) 0.27269(9)
C20 C 0.1329(15) -0.0211(18) 0.3382(8)
H20 H 0.1952 -0.0554 0.3136
H21 H 0.0485 -0.0715 0.3255
C21 C 0.1855(17) -0.056(2) 0.4020(8)
H22 H 0.1987 -0.1618 0.4067
H23 H 0.271 -0.0075 0.4142
C22 C 0.0935(18) -0.0057(19) 0.4393(8)
H24 H 0.128 -0.0301 0.4806
H25 H 0.0083 -0.0552 0.4276
C23 C 0.0748(18) 0.1629(19) 0.4325(7)
H26 H 0.0124 0.1972 0.4571
H27 H 0.1593 0.2127 0.4455
C24 C 0.0234(13) 0.1981(18) 0.3693(7)
H28 H -0.0641 0.1541 0.3573
H29 H 0.0143 0.3047 0.3644
N3 N 0.1137(12) 0.1417(15) 0.3311(6)
H30 H 0.1933 0.1875 0.3406
H31 H 0.0799 0.1625 0.2927
loop_
_geom_bond_atom_site_label_1
_geom_bond_atom_site_label_2
_geom_bond_site_symmetry_1
_geom_bond_site_symmetry_2
C1 H1 1_555 1_555
H2 C1 1_555 1_555
C2 C1 1_555 1_555
C3 C2 1_555 1_555
H3 C3 1_555 1_555
H4 C3 1_555 1_555
H5 C3 1_555 1_555
C4 C2 1_555 1_555
H6 C4 1_555 1_555
H7 C4 1_555 1_555
H8 C4 1_555 1_555
C5 C6 1_555 1_555
C6 C7 1_555 1_555
C7 H9 1_555 1_555
C8 C7 1_555 1_555
H10 C8 1_555 1_555
C9 C8 1_555 1_555
H11 C9 1_555 1_555
C10 C9 1_555 1_555
H12 C10 1_555 1_555
C11 C6 1_555 1_555
C12 H13 1_555 1_555
C13 C12 1_555 1_555
C14 C13 1_555 1_555
H14 C14 1_555 1_555
C15 C14 1_555 1_555
H15 C15 1_555 1_555
C16 C15 1_555 1_555
H16 C16 1_555 1_555
C17 C16 1_555 1_555
C18 C13 1_555 1_555
C19 H17 1_555 1_555
H18 C19 1_555 1_555
H19 C19 1_555 1_555
C20 H20 1_555 1_555
H21 C20 1_555 1_555
C21 C20 1_555 1_555
H22 C21 1_555 1_555
H23 C21 1_555 1_555
C22 C21 1_555 1_555
H24 C22 1_555 1_555
H25 C22 1_555 1_555
C23 C22 1_555 1_555
H26 C23 1_555 1_555
H27 C23 1_555 1_555
C24 C23 1_555 1_555
H28 C24 1_555 1_555
H29 C24 1_555 1_555
N1 C1 1_555 1_555
N2 C2 1_555 1_555
N3 C20 1_555 1_555
H30 N3 1_555 1_555
H31 N3 1_555 1_555
O1 C11 1_555 1_555
O2 C18 1_555 1_555
O3 C5 1_555 1_555
O4 C17 1_555 1_555
Co1 N1 1_555 1_555
O3A Co1 1_555 1_555
Co1A O3 1_555 1_555
C5 N1 1_555 1_555
C10 C11 1_555 1_555
C12 N2 1_555 1_555
C17 C18 1_555 1_555
C19 O4 1_555 1_555
C24 N3 1_555 1_555
N2 Co1 1_555 1_555
O1 Co1 1_555 1_555
O2 Co1 1_555 1_555

#END
