
#######################################################################
#
#                 Cambridge Crystallographic Data Centre
#                                CCDC 
#
#######################################################################
#
# If this CIF has been generated from an entry in the Cambridge 
# Structural Database, then it will include bibliographic, chemical, 
# crystal, experimental, refinement or atomic coordinate data resulting 
# from the CCDC's data processing and validation procedures.
#
#######################################################################

data_GEDXAP
_symmetry_cell_setting           monoclinic
_symmetry_space_group_name_H-M   'P 21/c'
_symmetry_Int_Tables_number      14
_space_group_name_Hall           '-P 2ybc'
loop_
_symmetry_equiv_pos_site_id
_symmetry_equiv_pos_as_xyz
1 x,y,z
2 -x,1/2+y,1/2-z
3 -x,-y,-z
4 x,1/2-y,1/2+z
_cell_length_a                   14.8052(3)
_cell_length_b                   3.7498(4)
_cell_length_c                   12.3495(12)
_cell_angle_alpha                90
_cell_angle_beta                 114.200(6)
_cell_angle_gamma                90
_cell_volume                     625.351
loop_
_atom_site_label
_atom_site_type_symbol
_atom_site_fract_x
_atom_site_fract_y
_atom_site_fract_z
Ag1 Ag 0.06998 0.40621 0.66641
N1 N 0.11063 0.30640 0.83877
N2 N 0.05432 0.18597 0.89272
N3 N 0.10087 0.21307 1.01033
C1 C 0.19809 0.41712 0.92562
C2 C 0.28359 0.56773 0.92180
C3 C 0.36110 0.64572 1.02940
C4 C 0.35436 0.58540 1.13923
C5 C 0.26982 0.44273 1.14369
C6 C 0.19160 0.35712 1.03500
H1 H 0.28839 0.61963 0.83761
H2 H 0.42933 0.75710 1.03020
H3 H 0.41723 0.65309 1.22146
H4 H 0.26321 0.39695 1.22722
Ag1A Ag -0.06998 -0.09379 0.83359
Ag1C Ag 0.06998 0.09379 1.16641
N2A N -0.05432 0.68597 0.60728
N3C N 0.10087 0.28693 0.51033
loop_
_geom_bond_atom_site_label_1
_geom_bond_atom_site_label_2
_geom_bond_site_symmetry_1
_geom_bond_site_symmetry_2
Ag1 N1 1_555 1_555
N1 N2 1_555 1_555
N2 N3 1_555 1_555
N3 C6 1_555 1_555
C1 N1 1_555 1_555
C2 C1 1_555 1_555
C3 C2 1_555 1_555
C4 C3 1_555 1_555
C5 C4 1_555 1_555
C6 C1 1_555 1_555
H1 C2 1_555 1_555
H2 C3 1_555 1_555
H3 C4 1_555 1_555
H4 C5 1_555 1_555
Ag1A N2 1_555 1_555
Ag1C N3 1_555 1_555
N2A Ag1 1_555 1_555
N3C Ag1 1_555 1_555
C5 C6 1_555 1_555

#END
