
#######################################################################
#
#                 Cambridge Crystallographic Data Centre
#                                CCDC 
#
#######################################################################
#
# If this CIF has been generated from an entry in the Cambridge 
# Structural Database, then it will include bibliographic, chemical, 
# crystal, experimental, refinement or atomic coordinate data resulting 
# from the CCDC's data processing and validation procedures.
#
#######################################################################

data_GEFBUP
_symmetry_cell_setting           orthorhombic
_symmetry_space_group_name_H-M   'P 21 21 21'
_symmetry_Int_Tables_number      19
_space_group_name_Hall           'P 2ac 2ab'
loop_
_symmetry_equiv_pos_site_id
_symmetry_equiv_pos_as_xyz
1 x,y,z
2 1/2+x,1/2-y,-z
3 -x,1/2+y,1/2-z
4 1/2-x,-y,1/2+z
_cell_length_a                   14.530(3)
_cell_length_b                   16.999(3)
_cell_length_c                   18.440(3)
_cell_angle_alpha                90
_cell_angle_beta                 90
_cell_angle_gamma                90
_cell_volume                     4554.6
loop_
_atom_site_label
_atom_site_type_symbol
_atom_site_fract_x
_atom_site_fract_y
_atom_site_fract_z
Mn1 Mn 0.20520(3) 0.23683(3) 0.39991(3)
Mn2 Mn 0.17182(3) 0.17101(3) 0.23709(3)
Mn3 Mn 0.34367(3) 0.28439(3) 0.26265(3)
Mn4 Mn 0.31368(3) 0.21908(3) 0.09986(3)
O1 O 0.19184(13) 0.27438(12) 0.28270(11)
O2 O 0.16903(14) 0.20523(12) 0.14017(11)
O3 O 0.18464(16) 0.13396(13) 0.33269(11)
O4 O 0.32283(14) 0.18100(12) 0.21732(11)
O5 O 0.34857(14) 0.24847(13) 0.35928(11)
O6 O 0.33154(16) 0.32137(12) 0.16783(11)
N1 N 0.1714(2) 0.36349(19) 0.39839(16)
N2 N 0.02181(19) 0.18158(17) 0.22027(13)
N3 N 0.15878(18) 0.05190(17) 0.21697(13)
N4 N 0.3423(2) 0.08967(17) 0.10212(16)
N5 N 0.49329(18) 0.27184(17) 0.27704(13)
N6 N 0.35309(19) 0.40219(17) 0.28386(13)
N7 N 0.2682(2) 0.2341(2) 0.50488(14)
N8 N 0.3962(2) 0.25186(18) 0.58972(14)
N9 N 0.5595(2) 0.2793(2) 0.56761(14)
N10 N 0.2527(2) 0.2497(2) -0.00054(14)
N11 N 0.12795(18) 0.28991(19) -0.08205(13)
N12 N -0.03922(19) 0.27298(19) -0.07086(13)
C1 C 0.1694(2) 0.4112(2) 0.45708(18)
C2 C 0.1312(3) 0.4843(2) 0.4590(2)
C3 C 0.0918(2) 0.5128(2) 0.3967(2)
C4 C 0.0959(2) 0.4688(2) 0.3332(2)
C5 C 0.1352(2) 0.3941(2) 0.33615(19)
C6 C 0.1363(2) 0.3418(2) 0.27048(19)
C7 C -0.0479(2) 0.1556(2) 0.26114(18)
C8 C -0.1379(2) 0.1601(2) 0.23870(19)
C9 C -0.1567(2) 0.1950(2) 0.17284(19)
C10 C -0.0852(2) 0.2226(2) 0.13079(19)
C11 C 0.0038(2) 0.2138(2) 0.15491(17)
C12 C 0.0868(2) 0.2352(2) 0.10984(18)
C13 C 0.1483(2) 0.0171(2) 0.15211(18)
C14 C 0.1357(2) -0.0623(2) 0.14529(19)
C15 C 0.1316(2) -0.1078(2) 0.20823(19)
C16 C 0.1410(2) -0.0720(2) 0.27505(19)
C17 C 0.1546(2) 0.0082(2) 0.27811(17)
C18 C 0.1629(2) 0.0546(2) 0.34704(17)
C19 C 0.3416(2) 0.0420(2) 0.04386(19)
C20 C 0.3684(2) -0.0357(2) 0.04572(19)
C21 C 0.3988(2) -0.0655(2) 0.1103(2)
C22 C 0.4000(2) -0.0191(2) 0.1715(2)
C23 C 0.3717(2) 0.0582(2) 0.16539(19)
C24 C 0.3765(2) 0.1123(2) 0.23042(18)
C25 C 0.5628(2) 0.2976(2) 0.23624(18)
C26 C 0.6541(2) 0.2878(2) 0.25594(18)
C27 C 0.6728(2) 0.2490(2) 0.32015(18)
C28 C 0.6020(2) 0.2218(2) 0.36366(19)
C29 C 0.5125(2) 0.2353(2) 0.34092(17)
C30 C 0.4299(2) 0.2128(2) 0.38539(18)
C31 C 0.3612(2) 0.4373(2) 0.34901(18)
C32 C 0.3680(2) 0.5165(2) 0.35681(19)
C33 C 0.3673(2) 0.5641(2) 0.2947(2)
C34 C 0.3603(2) 0.5287(2) 0.2274(2)
C35 C 0.3529(2) 0.4475(2) 0.22289(18)
C36 C 0.3446(2) 0.4024(2) 0.15336(17)
C37 C 0.3317(2) 0.2441(2) 0.54152(17)
C38 C 0.4820(2) 0.2672(2) 0.57357(17)
C39 C 0.1900(2) 0.2673(2) -0.03562(17)
C40 C 0.0393(2) 0.2792(2) -0.07223(17)
H1 H 0.1968 0.3922 0.5004
H2 H 0.1319 0.5147 0.5022
H3 H 0.0617 0.5624 0.3970
H4 H 0.0726 0.4893 0.2889
H5 H 0.0752 0.3254 0.2600
H6 H 0.1603 0.3703 0.2304
H7 H -0.0347 0.1332 0.3072
H8 H -0.1862 0.1397 0.2679
H9 H -0.2185 0.2001 0.1566
H10 H -0.0972 0.2474 0.0856
H11 H 0.0794 0.2140 0.0625
H12 H 0.0912 0.2908 0.1070
H13 H 0.1497 0.0487 0.1096
H14 H 0.1299 -0.0859 0.0988
H15 H 0.1223 -0.1630 0.2051
H16 H 0.1382 -0.1022 0.3183
H17 H 0.1061 0.0522 0.3725
H18 H 0.2102 0.0322 0.3761
H19 H 0.3216 0.0632 -0.0011
H20 H 0.3658 -0.0676 0.0035
H21 H 0.4192 -0.1185 0.1130
H22 H 0.4198 -0.0397 0.2167
H23 H 0.3532 0.0856 0.2718
H24 H 0.4386 0.1270 0.2388
H25 H 0.5493 0.3236 0.1920
H26 H 0.7024 0.3071 0.2262
H27 H 0.7349 0.2410 0.3346
H28 H 0.6143 0.1947 0.4077
H29 H 0.4226 0.1573 0.3837
H30 H 0.4396 0.2289 0.4341
H31 H 0.3623 0.4053 0.3912
H32 H 0.3731 0.5394 0.4037
H33 H 0.3717 0.6197 0.2987
H34 H 0.3605 0.5597 0.1845
H35 H 0.2935 0.4218 0.1266
H36 H 0.3992 0.4091 0.1258
Mn1A Mn 0.70520(3) 0.26317(3) 0.60009(3)
Mn4A Mn -0.18632(3) 0.28092(3) -0.09986(3)
N9A N 0.0595(2) 0.2207(2) 0.43239(14)
N12A N 0.46078(19) 0.22702(19) 0.07086(13)
Cl1 Cl 0.39348(6) -0.03965(6) 0.42502(5)
O7 O 0.4559(2) -0.0081(2) 0.3728(2)
O8 O 0.3228(2) -0.0838(2) 0.38811(18)
O9 O 0.4415(2) -0.09080(18) 0.47329(14)
O10 O 0.3511(2) 0.02324(18) 0.46437(13)
Cl2 Cl 0.87733(6) 0.01262(6) 0.42070(5)
O11 O 0.9414(2) -0.0076(2) 0.36450(18)
O12 O 0.80048(19) 0.05392(18) 0.38897(14)
O13 O 0.9211(2) 0.0624(2) 0.47224(18)
O14 O 0.8458(2) -0.05857(17) 0.45541(13)
loop_
_geom_bond_atom_site_label_1
_geom_bond_atom_site_label_2
_geom_bond_site_symmetry_1
_geom_bond_site_symmetry_2
Mn1 O1 1_555 1_555
Mn2 O1 1_555 1_555
Mn3 O1 1_555 1_555
Mn4 O2 1_555 1_555
Cl1 O7 1_555 1_555
Cl2 O11 1_555 1_555
O1 C6 1_555 1_555
O2 Mn2 1_555 1_555
O3 Mn1 1_555 1_555
O4 Mn2 1_555 1_555
O5 Mn1 1_555 1_555
O6 Mn3 1_555 1_555
O8 Cl1 1_555 1_555
O9 Cl1 1_555 1_555
O10 Cl1 1_555 1_555
O12 Cl2 1_555 1_555
O13 Cl2 1_555 1_555
O14 Cl2 1_555 1_555
N1 Mn1 1_555 1_555
N2 Mn2 1_555 1_555
N3 Mn2 1_555 1_555
N4 Mn4 1_555 1_555
N5 Mn3 1_555 1_555
N6 Mn3 1_555 1_555
N7 Mn1 1_555 1_555
N8 C37 1_555 1_555
N9 C38 1_555 1_555
N10 Mn4 1_555 1_555
N11 C39 1_555 1_555
N12 C40 1_555 1_555
C1 N1 1_555 1_555
C2 C1 1_555 1_555
C3 C2 1_555 1_555
C4 C3 1_555 1_555
C5 N1 1_555 1_555
C6 C5 1_555 1_555
C7 N2 1_555 1_555
C8 C7 1_555 1_555
C9 C8 1_555 1_555
C10 C9 1_555 1_555
C11 N2 1_555 1_555
C12 O2 1_555 1_555
C13 N3 1_555 1_555
C14 C13 1_555 1_555
C15 C14 1_555 1_555
C16 C15 1_555 1_555
C17 N3 1_555 1_555
C18 O3 1_555 1_555
C19 N4 1_555 1_555
C20 C19 1_555 1_555
C21 C20 1_555 1_555
C22 C21 1_555 1_555
C23 N4 1_555 1_555
C24 O4 1_555 1_555
C25 N5 1_555 1_555
C26 C25 1_555 1_555
C27 C26 1_555 1_555
C28 C27 1_555 1_555
C29 N5 1_555 1_555
C30 O5 1_555 1_555
C31 N6 1_555 1_555
C32 C31 1_555 1_555
C33 C32 1_555 1_555
C34 C33 1_555 1_555
C35 N6 1_555 1_555
C36 O6 1_555 1_555
C37 N7 1_555 1_555
C38 N8 1_555 1_555
C39 N10 1_555 1_555
C40 N11 1_555 1_555
H1 C1 1_555 1_555
H2 C2 1_555 1_555
H3 C3 1_555 1_555
H4 C4 1_555 1_555
H5 C6 1_555 1_555
H6 C6 1_555 1_555
H7 C7 1_555 1_555
H8 C8 1_555 1_555
H9 C9 1_555 1_555
H10 C10 1_555 1_555
H11 C12 1_555 1_555
H12 C12 1_555 1_555
H13 C13 1_555 1_555
H14 C14 1_555 1_555
H15 C15 1_555 1_555
H16 C16 1_555 1_555
H17 C18 1_555 1_555
H18 C18 1_555 1_555
H19 C19 1_555 1_555
H20 C20 1_555 1_555
H21 C21 1_555 1_555
H22 C22 1_555 1_555
H23 C24 1_555 1_555
H24 C24 1_555 1_555
H25 C25 1_555 1_555
H26 C26 1_555 1_555
H27 C27 1_555 1_555
H28 C28 1_555 1_555
H29 C30 1_555 1_555
H30 C30 1_555 1_555
H31 C31 1_555 1_555
H32 C32 1_555 1_555
H33 C33 1_555 1_555
H34 C34 1_555 1_555
H35 C36 1_555 1_555
H36 C36 1_555 1_555
Mn1A N9 1_555 1_555
Mn4A N12 1_555 1_555
N9A Mn1 1_555 1_555
N12A Mn4 1_555 1_555
Mn2 O3 1_555 1_555
Mn3 O4 1_555 1_555
Mn3 O5 1_555 1_555
Mn4 O4 1_555 1_555
Mn4 O6 1_555 1_555
C4 C5 1_555 1_555
C10 C11 1_555 1_555
C11 C12 1_555 1_555
C16 C17 1_555 1_555
C17 C18 1_555 1_555
C22 C23 1_555 1_555
C23 C24 1_555 1_555
C28 C29 1_555 1_555
C29 C30 1_555 1_555
C34 C35 1_555 1_555
C35 C36 1_555 1_555

#END
