
#######################################################################
#
#                 Cambridge Crystallographic Data Centre
#                                CCDC 
#
#######################################################################
#
# If this CIF has been generated from an entry in the Cambridge 
# Structural Database, then it will include bibliographic, chemical, 
# crystal, experimental, refinement or atomic coordinate data resulting 
# from the CCDC's data processing and validation procedures.
#
#######################################################################

data_GEFBID
_symmetry_cell_setting           monoclinic
_symmetry_space_group_name_H-M   'C 2/c'
_symmetry_Int_Tables_number      15
_space_group_name_Hall           '-C 2yn'
loop_
_symmetry_equiv_pos_site_id
_symmetry_equiv_pos_as_xyz
1 x,y,z
2 1/2+x,1/2+y,z
3 -x,y,1/2-z
4 1/2-x,1/2+y,1/2-z
5 -x,-y,-z
6 1/2-x,1/2-y,-z
7 x,-y,1/2+z
8 1/2+x,1/2-y,1/2+z
_cell_length_a                   28.322(8)
_cell_length_b                   11.093(3)
_cell_length_c                   20.207(6)
_cell_angle_alpha                90
_cell_angle_beta                 111.754(3)
_cell_angle_gamma                90
_cell_volume                     5896.43
loop_
_atom_site_label
_atom_site_type_symbol
_atom_site_fract_x
_atom_site_fract_y
_atom_site_fract_z
Mn1 Mn 0.29340(2) 0.61128(6) 0.41105(3)
Mn2 Mn 0.19537(2) 0.74825(5) 0.43471(3)
O1 O 0.24742(11) 0.6304(2) 0.48764(14)
O2 O 0.33741(11) 0.7327(2) 0.49974(14)
O3 O 0.22828(11) 0.7416(2) 0.37044(14)
O4 O 0.36550(13) 0.5095(2) 0.41760(19)
N1 N 0.30700(13) 0.4469(3) 0.48652(19)
N2 N 0.36821(13) 0.8822(3) 0.60891(19)
N3 N 0.15430(12) 0.8792(3) 0.36462(18)
N4 N 0.24499(16) 0.4833(3) 0.3296(2)
N5 N 0.17682(16) 0.3475(4) 0.2587(2)
N6 N 0.17822(14) 0.2162(3) 0.1606(2)
C1 C 0.23652(17) 0.5207(3) 0.5159(2)
C2 C 0.27852(17) 0.4290(3) 0.5262(2)
C3 C 0.28620(17) 0.3328(4) 0.5730(2)
C4 C 0.3243(2) 0.2518(4) 0.5778(2)
C5 C 0.35309(19) 0.2682(4) 0.5361(2)
C6 C 0.34426(19) 0.3661(4) 0.4924(2)
C7 C 0.3759(2) 0.3927(4) 0.4487(3)
C8 C 0.38139(18) 0.9495(4) 0.6682(2)
C9 C 0.42239(19) 1.0279(4) 0.6866(2)
C10 C 0.4509(2) 1.0341(4) 0.6441(2)
C11 C 0.43752(18) 0.9639(4) 0.5835(2)
C12 C 0.39571(17) 0.8890(4) 0.5672(2)
C13 C 0.37615(18) 0.8108(4) 0.5001(2)
C14 C 0.11505(17) 0.9443(4) 0.3685(2)
C15 C 0.09176(19) 1.0331(4) 0.3200(2)
C16 C 0.1093(2) 1.0551(4) 0.2647(2)
C17 C 0.14859(19) 0.9872(4) 0.2599(2)
C18 C 0.17006(17) 0.9000(3) 0.3105(2)
C19 C 0.21374(18) 0.8230(4) 0.3112(2)
C20 C 0.17969(17) 0.2780(4) 0.2075(2)
C21 C 0.21483(18) 0.4165(4) 0.2946(2)
H1 H 0.2053 0.4889 0.4839
H2 H 0.2338 0.5365 0.5606
H3 H 0.2658 0.3230 0.6008
H4 H 0.3307 0.1852 0.6095
H5 H 0.3788 0.2118 0.5380
H6 H 0.4109 0.3882 0.4786
H7 H 0.3687 0.3343 0.4119
H8 H 0.3623 0.9434 0.6980
H9 H 0.4308 1.0768 0.7280
H10 H 0.4795 1.0862 0.6565
H11 H 0.4567 0.9669 0.5537
H12 H 0.4036 0.7644 0.4976
H13 H 0.3635 0.8620 0.4596
H14 H 0.1032 0.9283 0.4059
H15 H 0.0644 1.0784 0.3238
H16 H 0.0942 1.1165 0.2307
H17 H 0.1606 1.0004 0.2224
H18 H 0.2039 0.7781 0.2682
H19 H 0.2418 0.8732 0.3150
H23 H 0.393(2) 0.551(5) 0.429(2)
Mn1C Mn 0.20660(2) 0.11128(6) 0.08895(3)
Mn2E Mn 0.30463(2) 0.75175(5) 0.56529(3)
O1E O 0.25258(11) 0.8696(2) 0.51236(14)
O2E O 0.16259(11) 0.7673(2) 0.50026(14)
N2E N 0.13179(13) 0.6178(3) 0.39109(19)
N6C N 0.32178(14) 0.7162(3) 0.3394(2)
Cl1 Cl 0.01836(5) 0.77968(12) 0.58307(6)
O5 O -0.01945(19) 0.8288(4) 0.6036(3)
O6 O -0.0027(2) 0.6939(4) 0.5266(2)
O7 O 0.04280(16) 0.8766(3) 0.5594(2)
O8 O 0.05496(17) 0.7214(4) 0.6432(2)
O9 O 0.0129(4) 0.8622(10) 0.1282(6)
N7 N 0.1859(3) 0.5966(5) 0.1418(3)
C22 C 0.1463(3) 0.5787(6) 0.1352(3)
C23 C 0.0903(3) 0.5604(11) 0.1221(4)
H20 H 0.0784 0.6263 0.1416
H21 H 0.0862 0.4878 0.1443
H22 H 0.0714 0.5556 0.0723
O10? O 0.0362(6) 0.7765(14) 0.1991(8)
loop_
_geom_bond_atom_site_label_1
_geom_bond_atom_site_label_2
_geom_bond_site_symmetry_1
_geom_bond_site_symmetry_2
Mn1 O1 1_555 1_555
Mn2 O1 1_555 1_555
Cl1 O5 1_555 1_555
O1 C1 1_555 1_555
O2 Mn1 1_555 1_555
O3 Mn1 1_555 1_555
O4 Mn1 1_555 1_555
O6 Cl1 1_555 1_555
O7 Cl1 1_555 1_555
O8 Cl1 1_555 1_555
N1 Mn1 1_555 1_555
N2 C8 1_555 1_555
N3 Mn2 1_555 1_555
N4 Mn1 1_555 1_555
N5 C20 1_555 1_555
N6 C20 1_555 1_555
N7 C22 1_555 1_555
C1 C2 1_555 1_555
C2 N1 1_555 1_555
C3 C2 1_555 1_555
C4 C3 1_555 1_555
C5 C4 1_555 1_555
C6 N1 1_555 1_555
C7 O4 1_555 1_555
C8 C9 1_555 1_555
C9 C10 1_555 1_555
C10 C11 1_555 1_555
C11 C12 1_555 1_555
C12 N2 1_555 1_555
C13 O2 1_555 1_555
C14 N3 1_555 1_555
C15 C14 1_555 1_555
C16 C15 1_555 1_555
C17 C16 1_555 1_555
C18 N3 1_555 1_555
C19 O3 1_555 1_555
C21 N4 1_555 1_555
C22 C23 1_555 1_555
C23 H20 1_555 1_555
H1 C1 1_555 1_555
H2 C1 1_555 1_555
H3 C3 1_555 1_555
H4 C4 1_555 1_555
H5 C5 1_555 1_555
H6 C7 1_555 1_555
H7 C7 1_555 1_555
H8 C8 1_555 1_555
H9 C9 1_555 1_555
H10 C10 1_555 1_555
H11 C11 1_555 1_555
H12 C13 1_555 1_555
H13 C13 1_555 1_555
H14 C14 1_555 1_555
H15 C15 1_555 1_555
H16 C16 1_555 1_555
H17 C17 1_555 1_555
H18 C19 1_555 1_555
H19 C19 1_555 1_555
H21 C23 1_555 1_555
H22 C23 1_555 1_555
H23 O4 1_555 1_555
Mn1C N6 1_555 1_555
Mn2E O1 1_555 1_555
O1E Mn2 1_555 1_555
O2E Mn2 1_555 1_555
N2E Mn2 1_555 1_555
N6C Mn1 1_555 1_555
Mn2 O3 1_555 1_555
O2 Mn2E 1_555 1_555
N2 Mn2E 1_555 1_555
N5 C21 1_555 1_555
C5 C6 1_555 1_555
C6 C7 1_555 1_555
C12 C13 1_555 1_555
C17 C18 1_555 1_555
C18 C19 1_555 1_555
Mn2E O1E 1_555 1_555

#END
