
#######################################################################
#
#                 Cambridge Crystallographic Data Centre
#                                CCDC 
#
#######################################################################
#
# If this CIF has been generated from an entry in the Cambridge 
# Structural Database, then it will include bibliographic, chemical, 
# crystal, experimental, refinement or atomic coordinate data resulting 
# from the CCDC's data processing and validation procedures.
#
#######################################################################

data_GEFBOJ
_symmetry_cell_setting           monoclinic
_symmetry_space_group_name_H-M   'C 2/c'
_symmetry_Int_Tables_number      15
_space_group_name_Hall           '-C 2yn'
loop_
_symmetry_equiv_pos_site_id
_symmetry_equiv_pos_as_xyz
1 x,y,z
2 1/2+x,1/2+y,z
3 -x,y,1/2-z
4 1/2-x,1/2+y,1/2-z
5 -x,-y,-z
6 1/2-x,1/2-y,-z
7 x,-y,1/2+z
8 1/2+x,1/2-y,1/2+z
_cell_length_a                   20.76(2)
_cell_length_b                   11.688(7)
_cell_length_c                   21.196(14)
_cell_angle_alpha                90
_cell_angle_beta                 107.884(9)
_cell_angle_gamma                90
_cell_volume                     4894.55
loop_
_atom_site_label
_atom_site_type_symbol
_atom_site_fract_x
_atom_site_fract_y
_atom_site_fract_z
Br1 Br 0.93975(3) 0.14853(6) 0.40675(3)
Mn1 Mn 0.81620(4) 0.17756(6) 0.40354(3)
Mn2 Mn 0.75016(3) 0.37753(6) 0.47530(3)
O1 O 0.72176(17) 0.2180(2) 0.43459(16)
O2 O 0.82614(17) 0.0920(2) 0.49829(14)
O3 O 0.82790(18) 0.3447(2) 0.45154(17)
N1 N 0.7697(2) 0.0219(4) 0.3516(2)
N2 N 0.8100(2) 0.0273(3) 0.6093(2)
N3 N 0.8077(2) 0.5242(3) 0.5141(2)
N4 N 0.7195(3) -0.2348(4) 0.1926(2)
N6 N 0.7512(7) -0.1752(7) 0.3093(4)
C1 C 0.8848(2) 0.0404(5) 0.5419(2)
C2 C 0.8721(2) 0.0057(4) 0.6057(2)
C3 C 0.9211(2) -0.0461(4) 0.6574(2)
C4 C 0.9045(3) -0.0788(5) 0.7136(2)
C5 C 0.8399(3) -0.0577(4) 0.7167(2)
C6 C 0.7944(2) -0.0052(4) 0.6634(2)
C7 C 0.8853(2) 0.4176(5) 0.4714(3)
C8 C 0.8708(2) 0.5199(5) 0.5075(2)
C9 C 0.9171(3) 0.6052(5) 0.5344(3)
C10 C 0.8982(3) 0.6963(6) 0.5664(3)
C11 C 0.8336(3) 0.7005(5) 0.5704(3)
C12 C 0.7898(2) 0.6135(4) 0.5435(2)
C13 C 0.6558(2) 0.2011(5) 0.3887(2)
C14 C 0.7363(7) -0.2036(9) 0.2471(4)
C17 C 0.7350(10) -0.0432(15) 0.3176(8)
H1 H 0.8971 -0.0279 0.5205
H2 H 0.9231 0.0950 0.5517
H3 H 0.9652 -0.0591 0.6545
H4 H 0.9371 -0.1152 0.7494
H5 H 0.8274 -0.0789 0.7546
H6 H 0.748(3) 0.006(5) 0.662(3)
H7 H 0.8973 0.4430 0.4319
H8 H 0.9244 0.3750 0.5006
H9 H 0.9615 0.6015 0.5308
H10 H 0.9296 0.7553 0.5854
H11 H 0.8194 0.7630 0.5916
H12 H 0.7450 0.6170 0.5461
H13 H 0.6409 0.2714 0.3632
H14 H 0.6240 0.1819 0.4130
H15 H 0.6572 0.1384 0.3584
Br1C Br 0.56025(3) 0.64853(6) 0.09325(3)
Mn1C Mn 0.68380(4) 0.67756(6) 0.09646(3)
Mn1C_2 Mn 0.68380(4) -0.32244(6) 0.09646(3)
Mn1E Mn 0.68380(4) 0.32244(6) 0.59646(3)
Mn2E Mn 0.74984(3) 0.12247(6) 0.52470(3)
Mn2C Mn 0.74984(3) 0.87753(6) 0.02470(3)
O1E O 0.77824(17) 0.2820(2) 0.56541(16)
O1C O 0.77824(17) 0.7180(2) 0.06541(16)
O2E O 0.67386(17) 0.4080(2) 0.50171(14)
O2C O 0.67386(17) 0.5920(2) 0.00171(14)
O3C O 0.67210(18) 0.8447(2) 0.04846(17)
O3E O 0.67210(18) 0.1553(2) 0.54846(17)
N1C N 0.7303(2) 0.5219(4) 0.1484(2)
N2E N 0.6900(2) 0.4727(3) 0.3907(2)
N3C N 0.6923(2) 1.0242(3) -0.0141(2)
N3E N 0.6923(2) -0.0242(3) 0.4859(2)
N4C N 0.7805(3) 0.2652(4) 0.3074(2)
N4_2 N 0.7195(3) 0.7652(4) 0.1926(2)
N6C N 0.7488(7) 0.3248(7) 0.1907(4)
C1E C 0.6152(2) 0.4596(5) 0.4581(2)
C2E C 0.6279(2) 0.4943(4) 0.3943(2)
C3E C 0.5789(2) 0.5461(4) 0.3426(2)
C4E C 0.5955(3) 0.5788(5) 0.2864(2)
C5E C 0.6601(3) 0.5577(4) 0.2833(2)
C6E C 0.7056(2) 0.5052(4) 0.3366(2)
C7C C 0.6147(2) 0.9176(5) 0.0286(3)
C8C C 0.6292(2) 1.0199(5) -0.0075(2)
C9C C 0.5829(3) 1.1052(5) -0.0344(3)
C10C C 0.6018(3) 1.1963(6) -0.0664(3)
C11C C 0.6664(3) 1.2005(5) -0.0704(3)
C12C C 0.7102(2) 1.1135(4) -0.0435(2)
C13E C 0.8442(2) 0.2989(5) 0.6113(2)
C14C C 0.7637(7) 0.2964(9) 0.2529(4)
C17C C 0.7650(10) 0.4568(15) 0.1824(8)
H1E H 0.6029 0.5279 0.4795
H2E H 0.5769 0.4050 0.4483
H3E H 0.5348 0.5591 0.3455
H4E H 0.5629 0.6152 0.2506
H5E H 0.6726 0.5789 0.2454
H6E H 0.752(3) 0.494(5) 0.338(3)
H7C H 0.6027 0.9430 0.0681
H8C H 0.5756 0.8750 -0.0006
H9C H 0.5385 1.1015 -0.0308
H10C H 0.5704 1.2553 -0.0854
H11C H 0.6806 1.2630 -0.0916
H12C H 0.7550 1.1170 -0.0461
H13E H 0.8591 0.2286 0.6368
H14E H 0.8760 0.3181 0.5870
H15E H 0.8428 0.3616 0.6416
O4 O 0.586(2) 0.125(4) 0.153(3)
C18 C 0.5745(16) 0.244(3) 0.2052(17)
C19 C 0.5529(10) 0.3222(18) 0.1581(11)
C20 C 0.5570(9) 0.2718(17) 0.0919(9)
C21 C 0.5375(9) 0.1552(15) 0.0980(9)
O5 O 0.5000 0.830(3) 0.2500
N5? N 0.8095(12) 0.382(2) 0.2185(10)
C15? C 0.7974(12) 0.324(2) 0.2692(11)
C16? C 0.7647(7) -0.0730(11) 0.3297(6)
loop_
_geom_bond_atom_site_label_1
_geom_bond_atom_site_label_2
_geom_bond_site_symmetry_1
_geom_bond_site_symmetry_2
Br1 Mn1 1_555 1_555
Mn1 O1 1_555 1_555
Mn2 O1 1_555 1_555
O1 C13 1_555 1_555
O2 Mn1 1_555 1_555
O3 Mn1 1_555 1_555
O4 C18 1_555 1_555
N1 Mn1 1_555 1_555
N2 C2 1_555 1_555
N3 Mn2 1_555 1_555
N4 C14 1_555 1_555
N6 C14 1_555 1_555
C1 O2 1_555 1_555
C2 C1 1_555 1_555
C3 C2 1_555 1_555
C4 C3 1_555 1_555
C5 C4 1_555 1_555
C6 N2 1_555 1_555
C7 O3 1_555 1_555
C8 N3 1_555 1_555
C9 C8 1_555 1_555
C10 C9 1_555 1_555
C11 C10 1_555 1_555
C12 N3 1_555 1_555
C13 H13 1_555 1_555
C17 N1 1_555 1_555
C18 C19 1_555 1_555
C19 C20 1_555 1_555
C20 C21 1_555 1_555
C21 O4 1_555 1_555
H1 C1 1_555 1_555
H2 C1 1_555 1_555
H3 C3 1_555 1_555
H4 C4 1_555 1_555
H5 C5 1_555 1_555
H6 C6 1_555 1_555
H7 C7 1_555 1_555
H8 C7 1_555 1_555
H9 C9 1_555 1_555
H10 C10 1_555 1_555
H11 C11 1_555 1_555
H12 C12 1_555 1_555
H14 C13 1_555 1_555
H15 C13 1_555 1_555
Br1C Mn1C 1_555 1_555
Mn1C O1C 1_555 1_555
Mn1C_2 N4 1_555 1_555
Mn1E O1E 1_555 1_555
Mn2E O1 1_555 1_555
Mn2C O1C 1_555 1_555
O1E Mn2 1_555 1_555
O2E Mn2 1_555 1_555
O2C Mn1C 1_555 1_555
O3C Mn1C 1_555 1_555
O3E Mn1E 1_555 1_555
N1C Mn1C 1_555 1_555
N2E Mn2 1_555 1_555
N3C Mn2C 1_555 1_555
N3E Mn2E 1_555 1_555
N4C Mn1 1_555 1_555
N4_2 Mn1C 1_555 1_555
N6C C14C 1_555 1_555
C1E O2E 1_555 1_555
C2E N2E 1_555 1_555
C3E C2E 1_555 1_555
C4E C3E 1_555 1_555
C5E C4E 1_555 1_555
C6E N2E 1_555 1_555
C7C O3C 1_555 1_555
C8C N3C 1_555 1_555
C9C C8C 1_555 1_555
C10C C9C 1_555 1_555
C11C C10C 1_555 1_555
C12C N3C 1_555 1_555
C13E O1E 1_555 1_555
C14C N4C 1_555 1_555
C17C N1C 1_555 1_555
H1E C1E 1_555 1_555
H2E C1E 1_555 1_555
H3E C3E 1_555 1_555
H4E C4E 1_555 1_555
H5E C5E 1_555 1_555
H6E C6E 1_555 1_555
H7C C7C 1_555 1_555
H8C C7C 1_555 1_555
H9C C9C 1_555 1_555
H10C C10C 1_555 1_555
H11C C11C 1_555 1_555
H12C C12C 1_555 1_555
H13E C13E 1_555 1_555
H14E C13E 1_555 1_555
H15E C13E 1_555 1_555
Mn2 O3 1_555 1_555
O2 Mn2E 1_555 1_555
N2 Mn2E 1_555 1_555
N6 C17 1_555 1_555
C5 C6 1_555 1_555
C7 C8 1_555 1_555
C11 C12 1_555 1_555
Mn1E O2E 1_555 1_555
Mn2E O1E 1_555 1_555
Mn2E O3E 1_555 1_555
Mn2C O3C 1_555 1_555
N6C C17C 1_555 1_555
C1E C2E 1_555 1_555
C5E C6E 1_555 1_555
C7C C8C 1_555 1_555
C11C C12C 1_555 1_555

#END
