
#######################################################################
#
#                 Cambridge Crystallographic Data Centre
#                                CCDC 
#
#######################################################################
#
# If this CIF has been generated from an entry in the Cambridge 
# Structural Database, then it will include bibliographic, chemical, 
# crystal, experimental, refinement or atomic coordinate data resulting 
# from the CCDC's data processing and validation procedures.
#
#######################################################################

data_GEFDEB
_symmetry_cell_setting           monoclinic
_symmetry_space_group_name_H-M   'C 2/c'
_symmetry_Int_Tables_number      15
_space_group_name_Hall           '-C 2yn'
loop_
_symmetry_equiv_pos_site_id
_symmetry_equiv_pos_as_xyz
1 x,y,z
2 1/2+x,1/2+y,z
3 -x,y,1/2-z
4 1/2-x,1/2+y,1/2-z
5 -x,-y,-z
6 1/2-x,1/2-y,-z
7 x,-y,1/2+z
8 1/2+x,1/2-y,1/2+z
_cell_length_a                   35.477(7)
_cell_length_b                   9.2003(18)
_cell_length_c                   24.119(5)
_cell_angle_alpha                90
_cell_angle_beta                 106.56(3)
_cell_angle_gamma                90
_cell_volume                     7545.88
loop_
_atom_site_label
_atom_site_type_symbol
_atom_site_fract_x
_atom_site_fract_y
_atom_site_fract_z
Ag1 Ag 0.01291(2) 0.25001(5) 0.005353(19)
N1 N 0.01319(14) 0.4131(5) -0.05586(16)
N2 N 0.00985(16) 0.0860(5) 0.06591(17)
C1 C -0.02062(16) 0.4607(6) -0.0895(2)
H14 H -0.0437 0.4253 -0.0835
C2 C -0.02335(14) 0.5596(6) -0.1326(2)
H15 H -0.0480 0.5908 -0.1547
C3 C 0.00997(14) 0.6139(5) -0.14403(18)
C4 C 0.04504(14) 0.5640(6) -0.1086(2)
H16 H 0.0686 0.5979 -0.1133
C5 C 0.04532(16) 0.4651(6) -0.0666(2)
H17 H 0.0696 0.4318 -0.0439
C6 C 0.00690(16) 0.7114(5) -0.19504(19)
H18 H 0.0310 0.7671 -0.1890
H19 H -0.0147 0.7790 -0.1991
C7 C 0.0000 0.6208(8) -0.2500
H20 H 0.0226 0.5586 -0.2465
H21 H -0.0226 0.5586 -0.2535
C8 C -0.02483(19) 0.0398(6) 0.0710(2)
H22 H -0.0479 0.0758 0.0458
C9 C -0.02730(16) -0.0567(6) 0.1114(2)
H23 H -0.0519 -0.0861 0.1137
C10 C 0.00655(17) -0.1136(5) 0.15017(19)
C11 C 0.04173(17) -0.0678(6) 0.1444(2)
H24 H 0.0650 -0.1036 0.1690
C12 C 0.04278(17) 0.0304(6) 0.1027(2)
H25 H 0.0671 0.0604 0.0994
C13 C 0.00362(17) -0.2127(5) 0.1991(2)
H26 H 0.0269 -0.2736 0.2112
H27 H -0.0192 -0.2754 0.1860
C14 C 0.0000 -0.1208(8) 0.2500
H28 H -0.0229 -0.0587 0.2372
H29 H 0.0229 -0.0587 0.2628
Ag1B Ag -0.01291(2) 0.25001(5) -0.505353(19)
Ag1B_2 Ag -0.01291(2) 0.25001(5) 0.494647(19)
N1B N -0.01319(14) 0.4131(5) -0.44414(16)
N2B N -0.00985(16) 0.0860(5) 0.43409(17)
N2B_2 N -0.00985(16) 0.0860(5) -0.56591(17)
C1B C 0.02062(16) 0.4607(6) -0.4105(2)
H14B H 0.0437 0.4253 -0.4165
C2B C 0.02335(14) 0.5596(6) -0.3674(2)
H15B H 0.0480 0.5908 -0.3453
C3B C -0.00997(14) 0.6139(5) -0.35597(18)
C4B C -0.04504(14) 0.5640(6) -0.3914(2)
H16B H -0.0686 0.5979 -0.3867
C5B C -0.04532(16) 0.4651(6) -0.4334(2)
H17B H -0.0696 0.4318 -0.4561
C6B C -0.00690(16) 0.7114(5) -0.30496(19)
H18B H -0.0310 0.7671 -0.3110
H19B H 0.0147 0.7790 -0.3009
C8B C 0.02483(19) 0.0398(6) 0.4290(2)
H22B H 0.0479 0.0758 0.4542
C9B C 0.02730(16) -0.0567(6) 0.3886(2)
H23B H 0.0519 -0.0861 0.3863
C10B C -0.00655(17) -0.1136(5) 0.34983(19)
C11B C -0.04173(17) -0.0678(6) 0.3556(2)
H24B H -0.0650 -0.1036 0.3310
C12B C -0.04278(17) 0.0304(6) 0.3973(2)
H25B H -0.0671 0.0604 0.4006
C13B C -0.00362(17) -0.2127(5) 0.3009(2)
H26B H -0.0269 -0.2736 0.2888
H27B H 0.0192 -0.2754 0.3140
Ag2 Ag 0.243204(14) 0.49139(4) 0.495097(15)
N3 N 0.24948(13) 0.3268(5) 0.43576(15)
N4 N 0.24942(13) 0.3413(4) 0.05866(15)
C15 C 0.21774(15) 0.2643(6) 0.3989(2)
H30 H 0.1929 0.2893 0.4016
C16 C 0.22040(15) 0.1670(6) 0.3581(2)
H31 H 0.1976 0.1268 0.3339
C17 C 0.25634(14) 0.1263(5) 0.35189(18)
C18 C 0.28912(14) 0.1884(6) 0.3908(2)
H32 H 0.3142 0.1626 0.3895
C19 C 0.28469(16) 0.2866(6) 0.4307(2)
H33 H 0.3071 0.3277 0.4556
C20 C 0.25959(15) 0.0298(5) 0.30298(19)
H34 H 0.2385 -0.0414 0.2944
H35 H 0.2845 -0.0218 0.3141
C21 C 0.25699(15) 0.1218(5) 0.24952(17)
H36 H 0.2322 0.1741 0.2394
H37 H 0.2780 0.1932 0.2589
C22 C 0.25988(15) 0.0347(5) 0.19701(19)
H38 H 0.2848 -0.0165 0.2062
H39 H 0.2389 -0.0367 0.1869
C23 C 0.21824(16) 0.2830(6) 0.0694(2)
H40 H 0.1935 0.3123 0.0470
C24 C 0.22024(15) 0.1821(6) 0.1116(2)
H41 H 0.1973 0.1443 0.1171
C25 C 0.25673(14) 0.1354(5) 0.14655(19)
C26 C 0.28903(15) 0.1952(6) 0.1342(2)
H42 H 0.3142 0.1667 0.1554
C27 C 0.28450(16) 0.2953(6) 0.0915(2)
H43 H 0.3070 0.3340 0.0846
Ag2F Ag 0.243204(14) 0.50861(4) 0.995097(15)
Ag2F_2 Ag 0.243204(14) 0.50861(4) -0.004903(15)
N3F N 0.24948(13) 0.6732(5) 0.93576(15)
N4F N 0.24942(13) 0.6587(4) 0.55866(15)
N4_2 N 0.24942(13) 0.3413(4) 1.05866(15)
C15F C 0.21774(15) 0.7357(6) 0.8989(2)
H30F H 0.1929 0.7107 0.9016
C16F C 0.22040(15) 0.8330(6) 0.8581(2)
H31F H 0.1976 0.8732 0.8339
C17F C 0.25634(14) 0.8737(5) 0.85189(18)
C18F C 0.28912(14) 0.8116(6) 0.8908(2)
H32F H 0.3142 0.8374 0.8895
C19F C 0.28469(16) 0.7134(6) 0.9307(2)
H33F H 0.3071 0.6723 0.9556
C20F C 0.25959(15) 0.9702(5) 0.80298(19)
H34F H 0.2385 1.0414 0.7944
H35F H 0.2845 1.0218 0.8141
C21F C 0.25699(15) 0.8782(5) 0.74952(17)
H36F H 0.2322 0.8259 0.7394
H37F H 0.2780 0.8068 0.7589
C22F C 0.25988(15) 0.9653(5) 0.69701(19)
H38F H 0.2848 1.0165 0.7062
H39F H 0.2389 1.0367 0.6869
C23F C 0.21824(16) 0.7170(6) 0.5694(2)
H40F H 0.1935 0.6877 0.5470
C24F C 0.22024(15) 0.8179(6) 0.6116(2)
H41F H 0.1973 0.8557 0.6171
C25F C 0.25673(14) 0.8646(5) 0.64655(19)
C26F C 0.28903(15) 0.8048(6) 0.6342(2)
H42F H 0.3142 0.8333 0.6554
C27F C 0.28450(16) 0.7047(6) 0.5915(2)
H43F H 0.3070 0.6660 0.5846
S1 S 0.12435(4) -0.72448(13) 0.19916(5)
O1 O 0.11995(11) -0.7727(4) 0.32038(14)
O2 O 0.12751(10) -0.5399(4) 0.34779(12)
O3 O 0.11876(12) -0.7655(4) 0.07420(15)
O4 O 0.12418(10) -0.5307(4) 0.05351(13)
C28 C 0.12389(14) -0.6403(6) 0.31119(19)
C29 C 0.12440(12) -0.5958(5) 0.25117(17)
C30 C 0.12444(14) -0.4589(5) 0.23040(19)
H44 H 0.1241 -0.3754 0.2520
C31 C 0.12508(13) -0.4579(6) 0.17144(18)
H45 H 0.1258 -0.3731 0.1508
C32 C 0.12457(12) -0.5930(5) 0.14850(17)
C33 C 0.12251(14) -0.6323(6) 0.0867(2)
O5 O 0.16174(10) 0.4604(5) 0.46731(15)
H1 H 0.1466 0.4927 0.4932
H2 H 0.1957 0.5120 0.4675
O6 O 0.10545(13) -0.2525(4) 0.35102(18)
H3 H 0.1190 -0.3275 0.3502
H4 H 0.1151 -0.2356 0.3928
O7 O 0.08968(16) -0.2497(5) 0.0328(2)
H5 H 0.1126 -0.2475 0.0348
H6 H 0.0947 -0.3638 0.0436
O8 O 0.12819(15) -0.8435(5) -0.03500(17)
H7 H 0.1429 -0.9337 -0.0311
H8 H 0.1213 -0.8289 0.0024
O9 O 0.12664(15) -0.8551(5) 0.43673(18)
H9 H 0.1398 -0.9176 0.4432
H10 H 0.1199 -0.8179 0.4031
O10 O 0.12091(18) -1.0528(5) 0.2747(2)
H11 H 0.0959 -0.9909 0.2787
H12 H 0.1357 -1.0786 0.2555
O11 O 0.13621(19) -1.0504(8) 0.1124(4)
H13 H 0.1412 -1.0670 0.1519
O12 O 0.1640(3) -0.1026(10) 0.2111(6)
loop_
_geom_bond_atom_site_label_1
_geom_bond_atom_site_label_2
_geom_bond_site_symmetry_1
_geom_bond_site_symmetry_2
Ag1 N1 1_555 1_555
Ag2 N3 1_555 1_555
S1 C29 1_555 1_555
O1 C28 1_555 1_555
O2 C28 1_555 1_555
O3 C33 1_555 1_555
O4 C33 1_555 1_555
O5 H1 1_555 1_555
H2 O5 1_555 1_555
O6 H3 1_555 1_555
H4 O6 1_555 1_555
O7 H5 1_555 1_555
H6 O7 1_555 1_555
O8 H7 1_555 1_555
H8 O8 1_555 1_555
O9 H9 1_555 1_555
H10 O9 1_555 1_555
O10 H11 1_555 1_555
H12 O10 1_555 1_555
O11 H13 1_555 1_555
N1 C1 1_555 1_555
N2 Ag1 1_555 1_555
N3 C15 1_555 1_555
N4 C23 1_555 1_555
C1 H14 1_555 1_555
C2 C1 1_555 1_555
H15 C2 1_555 1_555
C3 C2 1_555 1_555
C4 C3 1_555 1_555
H16 C4 1_555 1_555
C5 N1 1_555 1_555
H17 C5 1_555 1_555
C6 C3 1_555 1_555
H18 C6 1_555 1_555
H19 C6 1_555 1_555
C7 C6 1_555 1_555
H20 C7 1_555 1_555
H21 C7 1_555 1_555
C8 N2 1_555 1_555
H22 C8 1_555 1_555
C9 C8 1_555 1_555
H23 C9 1_555 1_555
C10 C9 1_555 1_555
C11 C10 1_555 1_555
H24 C11 1_555 1_555
C12 N2 1_555 1_555
H25 C12 1_555 1_555
C13 C10 1_555 1_555
H26 C13 1_555 1_555
H27 C13 1_555 1_555
C14 C13 1_555 1_555
H28 C14 1_555 1_555
H29 C14 1_555 1_555
C15 H30 1_555 1_555
C16 C15 1_555 1_555
H31 C16 1_555 1_555
C17 C16 1_555 1_555
C18 C17 1_555 1_555
H32 C18 1_555 1_555
C19 N3 1_555 1_555
H33 C19 1_555 1_555
C20 C17 1_555 1_555
H34 C20 1_555 1_555
H35 C20 1_555 1_555
C21 C20 1_555 1_555
H36 C21 1_555 1_555
H37 C21 1_555 1_555
C22 C21 1_555 1_555
H38 C22 1_555 1_555
H39 C22 1_555 1_555
C23 H40 1_555 1_555
C24 C23 1_555 1_555
H41 C24 1_555 1_555
C25 C22 1_555 1_555
C26 C25 1_555 1_555
H42 C26 1_555 1_555
C27 N4 1_555 1_555
H43 C27 1_555 1_555
C28 C29 1_555 1_555
C29 C30 1_555 1_555
C30 H44 1_555 1_555
C31 C30 1_555 1_555
H45 C31 1_555 1_555
C32 S1 1_555 1_555
C33 C32 1_555 1_555
Ag1B N1B 1_555 1_555
Ag1B_2 N2B 1_555 1_555
Ag2F N3F 1_555 1_555
Ag2F_2 N4 1_555 1_555
N1B C1B 1_555 1_555
N2B C8B 1_555 1_555
N2B_2 Ag1B 1_555 1_555
N3F C15F 1_555 1_555
N4F Ag2 1_555 1_555
N4_2 Ag2F 1_555 1_555
C1B H14B 1_555 1_555
C2B C1B 1_555 1_555
H15B C2B 1_555 1_555
C3B C2B 1_555 1_555
C4B C3B 1_555 1_555
H16B C4B 1_555 1_555
C5B N1B 1_555 1_555
H17B C5B 1_555 1_555
C6B C7 1_555 1_555
H18B C6B 1_555 1_555
H19B C6B 1_555 1_555
C8B H22B 1_555 1_555
C9B C8B 1_555 1_555
H23B C9B 1_555 1_555
C10B C9B 1_555 1_555
C11B C10B 1_555 1_555
H24B C11B 1_555 1_555
C12B N2B 1_555 1_555
H25B C12B 1_555 1_555
C13B C14 1_555 1_555
H26B C13B 1_555 1_555
H27B C13B 1_555 1_555
C15F H30F 1_555 1_555
C16F C15F 1_555 1_555
H31F C16F 1_555 1_555
C17F C16F 1_555 1_555
C18F C17F 1_555 1_555
H32F C18F 1_555 1_555
C19F N3F 1_555 1_555
H33F C19F 1_555 1_555
C20F C17F 1_555 1_555
H34F C20F 1_555 1_555
H35F C20F 1_555 1_555
C21F C20F 1_555 1_555
H36F C21F 1_555 1_555
H37F C21F 1_555 1_555
C22F C21F 1_555 1_555
H38F C22F 1_555 1_555
H39F C22F 1_555 1_555
C23F N4F 1_555 1_555
H40F C23F 1_555 1_555
C24F C23F 1_555 1_555
H41F C24F 1_555 1_555
C25F C22F 1_555 1_555
C26F C25F 1_555 1_555
H42F C26F 1_555 1_555
C27F N4F 1_555 1_555
H43F C27F 1_555 1_555
C4 C5 1_555 1_555
C11 C12 1_555 1_555
C18 C19 1_555 1_555
C24 C25 1_555 1_555
C26 C27 1_555 1_555
C31 C32 1_555 1_555
C3B C6B 1_555 1_555
C4B C5B 1_555 1_555
C10B C13B 1_555 1_555
C11B C12B 1_555 1_555
C18F C19F 1_555 1_555
C24F C25F 1_555 1_555
C26F C27F 1_555 1_555

#END
