
#######################################################################
#
#                 Cambridge Crystallographic Data Centre
#                                CCDC 
#
#######################################################################
#
# If this CIF has been generated from an entry in the Cambridge 
# Structural Database, then it will include bibliographic, chemical, 
# crystal, experimental, refinement or atomic coordinate data resulting 
# from the CCDC's data processing and validation procedures.
#
#######################################################################

data_GEFFUT
_symmetry_cell_setting           monoclinic
_symmetry_space_group_name_H-M   'C c'
_symmetry_Int_Tables_number      9
_space_group_name_Hall           'C -2yc'
loop_
_symmetry_equiv_pos_site_id
_symmetry_equiv_pos_as_xyz
1 x,y,z
2 x,-y,1/2+z
3 1/2+x,1/2+y,z
4 1/2+x,1/2-y,1/2+z
_cell_length_a                   17.5096(4)
_cell_length_b                   33.7329(7)
_cell_length_c                   15.2861(4)
_cell_angle_alpha                90
_cell_angle_beta                 98.1210(10)
_cell_angle_gamma                90
_cell_volume                     8938.19
loop_
_atom_site_label
_atom_site_type_symbol
_atom_site_fract_x
_atom_site_fract_y
_atom_site_fract_z
Co1 Co 1.28481(9) 0.60079(4) 1.06756(11)
Co2 Co 0.97908(8) 0.63625(4) 0.50082(10)
Co3 Co 1.16418(8) 0.85412(4) 0.78171(10)
Co4 Co 1.07508(9) 0.88234(4) 0.38907(11)
C1 C 1.1108(8) 0.5814(4) 1.1312(10)
C2 C 1.0715(11) 0.6174(5) 1.1365(12)
H1 H 1.097(6) 0.638(3) 1.141(7)
C3 C 0.9970(11) 0.6156(6) 1.1617(15)
H2 H 0.9688 0.6387 1.1657
C4 C 0.9673(11) 0.5805(7) 1.1798(14)
H3 H 0.9185 0.5807 1.1972
C5 C 1.0015(10) 0.5448(6) 1.1751(12)
H4 H 0.9782 0.5212 1.1883
C6 C 1.0757(8) 0.5462(4) 1.1485(10)
C7 C 1.3866(8) 0.5173(3) 1.0862(8)
C8 C 1.4642(8) 0.5260(4) 1.0840(10)
H5 H 1.4817 0.5520 1.0820
C9 C 1.5147(10) 0.4934(6) 1.0850(14)
H6 H 1.5672 0.4981 1.0866
C10 C 1.4889(11) 0.4543(6) 1.0836(15)
H7 H 1.5237 0.4339 1.0788
C11 C 1.4123(12) 0.4453(5) 1.0892(13)
H8 H 1.3950 0.4193 1.0916
C12 C 1.3630(8) 0.4778(4) 1.0909(11)
C13 C 1.1899(7) 0.5348(3) 1.1118(9)
C14 C 1.2641(7) 0.5178(3) 1.0979(8)
C15 C 1.2055(7) 0.6422(3) 0.9486(7)
C16 C 1.1634(6) 0.6684(3) 0.8794(7)
C17 C 1.1678(7) 0.7095(3) 0.8894(7)
H9 H 1.1941 0.7205 0.9408
C18 C 1.1323(6) 0.7341(3) 0.8216(8)
C19 C 1.1409(7) 0.7778(3) 0.8306(8)
C20 C 1.0909(6) 0.7173(3) 0.7453(7)
H10 H 1.0669 0.7337 0.7007
C21 C 1.0854(6) 0.6760(3) 0.7358(8)
C22 C 1.0410(6) 0.6593(3) 0.6532(8)
C23 C 1.1230(7) 0.6518(3) 0.8040(8)
H11 H 1.1205 0.6244 0.7982
C24 C 1.1303(6) 0.6861(3) 0.4393(8)
C25 C 1.1226(7) 0.7256(3) 0.4629(10)
H12 H 1.0813 0.7339 0.4903
C26 C 1.1785(10) 0.7521(4) 0.4442(12)
H13 H 1.1750 0.7786 0.4599
C27 C 1.2403(9) 0.7397(4) 0.4020(12)
H14 H 1.2770 0.7582 0.3904
C28 C 1.2479(7) 0.7005(4) 0.3772(10)
H15 H 1.2891 0.6924 0.3492
C29 C 1.1915(7) 0.6736(3) 0.3958(8)
C30 C 0.9982(7) 0.5407(3) 0.4453(8)
C31 C 0.9348(8) 0.5192(4) 0.4671(9)
H16 H 0.8946 0.5320 0.4893
C32 C 0.9335(9) 0.4788(4) 0.4547(11)
H17 H 0.8920 0.4642 0.4693
C33 C 0.9935(9) 0.4591(4) 0.4207(11)
H18 H 0.9905 0.4318 0.4123
C34 C 1.0558(8) 0.4791(3) 0.3995(10)
H19 H 1.0958 0.4659 0.3777
C35 C 1.0577(7) 0.5203(3) 0.4118(9)
C36 C 1.1180(6) 0.6231(3) 0.4173(8)
C37 C 1.0828(6) 0.5839(3) 0.4190(8)
C38 C 0.8382(7) 0.5995(3) 0.6032(8)
C39 C 0.8718(8) 0.5863(3) 0.6891(8)
H20 H 0.9247 0.5876 0.7072
C40 C 0.8220(9) 0.5714(4) 0.7440(9)
H21 H 0.8421 0.5637 0.8010
C41 C 0.7425(9) 0.5676(4) 0.7165(10)
H22 H 0.7114 0.5570 0.7552
C42 C 0.7093(8) 0.5795(3) 0.6324(10)
H23 H 0.6566 0.5769 0.6135
C43 C 0.7599(6) 0.5959(3) 0.5772(8)
C44 C 0.9008(7) 0.6772(3) 0.3139(7)
C45 C 0.9559(7) 0.7001(4) 0.2783(9)
H24 H 1.0057 0.7027 0.3083
C46 C 0.9351(9) 0.7185(4) 0.1984(10)
H25 H 0.9716 0.7335 0.1742
C47 C 0.8606(9) 0.7153(4) 0.1526(11)
H26 H 0.8485 0.7279 0.0983
C48 C 0.8048(9) 0.6940(4) 0.1861(10)
H27 H 0.7549 0.6923 0.1562
C49 C 0.8265(7) 0.6745(3) 0.2686(8)
C50 C 0.8144(6) 0.6233(3) 0.4713(7)
C51 C 0.8293(7) 0.6435(3) 0.3942(8)
C52 C 1.2007(7) 0.9129(3) 0.6462(9)
C53 C 1.2498(7) 0.9367(3) 0.7070(11)
H28 H 1.2589 0.9301 0.7666
C54 C 1.2831(9) 0.9692(4) 0.6761(12)
H29 H 1.3172 0.9845 0.7144
C55 C 1.2662(8) 0.9801(4) 0.5855(12)
H30 H 1.2879 1.0033 0.5670
C56 C 1.2187(8) 0.9579(3) 0.5233(10)
H31 H 1.2092 0.9651 0.4640
C57 C 1.1855(7) 0.9231(3) 0.5565(9)
C58 C 0.9723(7) 0.7948(3) 0.5520(8)
C59 C 0.9206(8) 0.7660(4) 0.5699(11)
H32 H 0.9200 0.7567 0.6271
C60 C 0.8705(8) 0.7519(4) 0.5004(12)
H33 H 0.8342 0.7330 0.5110
C61 C 0.8720(8) 0.7647(4) 0.4151(11)
H34 H 0.8366 0.7544 0.3697
C62 C 0.9246(8) 0.7923(3) 0.3955(11)
H35 H 0.9259 0.8006 0.3377
C63 C 0.9761(6) 0.8074(3) 0.4658(8)
C64 C 1.1204(6) 0.8708(3) 0.5787(8)
C65 C 1.0621(6) 0.8400(3) 0.5516(7)
C66 C 0.9448(9) 0.8560(4) 0.2164(10)
C67 C 0.8737(9) 0.8696(4) 0.2355(11)
H36 H 0.8693 0.8852 0.2847
C68 C 0.8091(10) 0.8581(4) 0.1756(13)
H37 H 0.7602 0.8659 0.1857
C69 C 0.8168(14) 0.8353(5) 0.1020(14)
H38 H 0.7723 0.8281 0.0647
C70 C 0.8888(13) 0.8224(5) 0.0803(14)
H39 H 0.8933 0.8077 0.0298
C71 C 0.9522(12) 0.8335(4) 0.1406(9)
C72 C 1.2494(9) 0.8486(4) 0.3532(10)
C73 C 1.3044(9) 0.8573(4) 0.4259(11)
H40 H 1.2901 0.8701 0.4750
C74 C 1.3784(9) 0.8470(5) 0.4242(15)
H41 H 1.4149 0.8526 0.4728
C75 C 1.4019(12) 0.8277(6) 0.350(2)
H42 H 1.4537 0.8214 0.3510
C76 C 1.3513(11) 0.8183(5) 0.2797(15)
H43 H 1.3661 0.8051 0.2315
C77 C 1.2748(10) 0.8294(4) 0.2821(12)
C78 C 1.0665(9) 0.8412(3) 0.2193(8)
C79 C 1.1493(9) 0.8398(3) 0.2574(9)
C80 C 1.0195(7) 1.0495(3) 0.8637(8)
C81 C 0.9890(6) 1.0074(3) 0.8534(8)
C82 C 1.0409(6) 0.9764(3) 0.8439(8)
H44 H 1.0931 0.9813 0.8433
C83 C 1.0118(6) 0.9381(3) 0.8354(7)
C84 C 1.0605(7) 0.9017(3) 0.8202(9)
C85 C 0.9329(6) 0.9306(3) 0.8357(8)
H45 H 0.9146 0.9047 0.8304
C86 C 0.8820(6) 0.9616(3) 0.8437(8)
C87 C 0.7978(6) 0.9520(3) 0.8406(8)
C88 C 0.9117(6) 1.0002(3) 0.8529(8)
H46 H 0.8786 1.0213 0.8588
N1 N 1.1839(5) 0.5739(3) 1.1090(7)
N2 N 1.3234(6) 0.5417(2) 1.0893(7)
N3 N 1.2844(6) 0.4785(3) 1.0979(8)
H47 H 1.2547 0.4585 1.1014
N4 N 1.1278(6) 0.5165(3) 1.1344(7)
H48 H 1.1213 0.4914 1.1392
N5 N 1.0839(5) 0.6532(2) 0.4524(7)
N6 N 1.0167(6) 0.5812(3) 0.4505(6)
N7 N 1.1119(5) 0.5491(2) 0.3959(7)
H49 H 1.1547 0.5453 0.3757
N8 N 1.1819(5) 0.6338(2) 0.3832(7)
H50 H 1.2112 0.6183 0.3581
N9 N 0.8715(5) 0.6171(2) 0.5370(6)
N10 N 0.9022(5) 0.6571(3) 0.3935(6)
N11 N 0.7795(5) 0.6533(2) 0.3196(6)
N12 N 0.7450(6) 0.6107(3) 0.4937(7)
H51 H 0.7008 0.6120 0.4613
N13 N 1.1586(5) 0.8790(2) 0.6597(6)
N14 N 1.0295(6) 0.8153(3) 0.6050(7)
H52 H 1.0419 0.8128 0.6612
N15 N 1.0342(5) 0.8370(2) 0.4686(6)
N16 N 1.1348(5) 0.8960(3) 0.5134(7)
N17 N 1.0193(7) 0.8610(3) 0.2654(7)
N18 N 1.1701(6) 0.8547(3) 0.3358(7)
N19 N 1.2079(8) 0.8242(3) 0.2205(10)
H53 H 1.2051 0.8133 0.1694
N20 N 1.0300(9) 0.8247(3) 0.1451(8)
H54 H 1.0511 0.8111 0.1072
O1 O 1.3204(7) 0.6257(3) 1.1893(6)
O2 O 1.2128(5) 0.6052(2) 0.9361(6)
O3 O 1.3849(5) 0.6135(2) 1.0057(7)
O4 O 1.2396(5) 0.6576(2) 1.0207(6)
O6 O 1.1274(4) 0.7985(2) 0.7598(6)
O8 O 1.1629(5) 0.7939(2) 0.9037(6)
O10 O 0.9996(4) 0.6815(2) 0.6005(5)
O12 O 1.0473(5) 0.62289(19) 0.6351(6)
O14 O 1.0849(5) 1.0572(2) 0.8445(6)
O15 O 0.9793(4) 1.0758(2) 0.8946(5)
O16 O 0.7523(5) 0.9785(2) 0.8602(7)
O17 O 0.7763(4) 0.9171(2) 0.8187(6)
O18 O 1.1324(5) 0.9036(2) 0.8496(6)
O19 O 1.0324(5) 0.8723(2) 0.7787(8)
Co3C Co 0.66418(8) 0.64588(4) 0.28171(10)
Co4A Co 1.07508(9) 1.11766(4) 0.88907(11)
N11C N 1.2795(5) 0.8467(2) 0.8196(6)
O14A O 1.0849(5) 0.9428(2) 0.3445(6)
O15A O 0.9793(4) 0.9242(2) 0.3946(5)
O5 O 0.6438(9) 0.7197(4) -0.4303(10)
O7 O 1.1972(10) 0.7122(4) 1.1401(12)
O9 O 0.4248(13) 0.6826(6) 0.2788(15)
O11 O 1.1553(6) 0.5648(2) 0.6452(7)
O13 O 1.2363(7) 0.5560(3) 0.8033(7)
loop_
_geom_bond_atom_site_label_1
_geom_bond_atom_site_label_2
_geom_bond_site_symmetry_1
_geom_bond_site_symmetry_2
Co1 N1 1_555 1_555
Co2 N5 1_555 1_555
Co3 N13 1_555 1_555
Co4 N15 1_555 1_555
C1 C2 1_555 1_555
C2 H1 1_555 1_555
C3 C2 1_555 1_555
H2 C3 1_555 1_555
C4 C3 1_555 1_555
H3 C4 1_555 1_555
C5 C4 1_555 1_555
H4 C5 1_555 1_555
C6 C1 1_555 1_555
C7 C8 1_555 1_555
C8 H5 1_555 1_555
C9 C8 1_555 1_555
H6 C9 1_555 1_555
C10 C9 1_555 1_555
H7 C10 1_555 1_555
C11 C10 1_555 1_555
H8 C11 1_555 1_555
C12 C7 1_555 1_555
C13 C14 1_555 1_555
C14 N2 1_555 1_555
C15 C16 1_555 1_555
C16 C17 1_555 1_555
C17 H9 1_555 1_555
C18 C17 1_555 1_555
C19 C18 1_555 1_555
C20 C18 1_555 1_555
H10 C20 1_555 1_555
C21 C20 1_555 1_555
C22 C21 1_555 1_555
C23 C16 1_555 1_555
H11 C23 1_555 1_555
C24 C25 1_555 1_555
C25 H12 1_555 1_555
C26 C25 1_555 1_555
H13 C26 1_555 1_555
C27 C26 1_555 1_555
H14 C27 1_555 1_555
C28 C27 1_555 1_555
H15 C28 1_555 1_555
C29 C24 1_555 1_555
C30 C31 1_555 1_555
C31 H16 1_555 1_555
C32 C31 1_555 1_555
H17 C32 1_555 1_555
C33 C32 1_555 1_555
H18 C33 1_555 1_555
C34 C33 1_555 1_555
H19 C34 1_555 1_555
C35 C30 1_555 1_555
C36 C37 1_555 1_555
C37 N6 1_555 1_555
C38 C39 1_555 1_555
C39 H20 1_555 1_555
C40 C39 1_555 1_555
H21 C40 1_555 1_555
C41 C40 1_555 1_555
H22 C41 1_555 1_555
C42 C41 1_555 1_555
H23 C42 1_555 1_555
C43 C38 1_555 1_555
C44 C45 1_555 1_555
C45 H24 1_555 1_555
C46 C45 1_555 1_555
H25 C46 1_555 1_555
C47 C46 1_555 1_555
H26 C47 1_555 1_555
C48 C47 1_555 1_555
H27 C48 1_555 1_555
C49 C44 1_555 1_555
C50 C51 1_555 1_555
C51 N10 1_555 1_555
C52 C53 1_555 1_555
C53 H28 1_555 1_555
C54 C53 1_555 1_555
H29 C54 1_555 1_555
C55 C54 1_555 1_555
H30 C55 1_555 1_555
C56 C55 1_555 1_555
H31 C56 1_555 1_555
C57 C52 1_555 1_555
C58 C59 1_555 1_555
C59 H32 1_555 1_555
C60 C59 1_555 1_555
H33 C60 1_555 1_555
C61 C60 1_555 1_555
H34 C61 1_555 1_555
C62 C61 1_555 1_555
H35 C62 1_555 1_555
C63 C58 1_555 1_555
C64 C65 1_555 1_555
C65 N14 1_555 1_555
C66 C67 1_555 1_555
C67 H36 1_555 1_555
C68 C67 1_555 1_555
H37 C68 1_555 1_555
C69 C68 1_555 1_555
H38 C69 1_555 1_555
C70 C69 1_555 1_555
H39 C70 1_555 1_555
C71 C66 1_555 1_555
C72 C73 1_555 1_555
C73 H40 1_555 1_555
C74 C73 1_555 1_555
H41 C74 1_555 1_555
C75 C74 1_555 1_555
H42 C75 1_555 1_555
C76 C75 1_555 1_555
H43 C76 1_555 1_555
C77 C72 1_555 1_555
C78 C79 1_555 1_555
C79 N18 1_555 1_555
C80 C81 1_555 1_555
C81 C82 1_555 1_555
C82 H44 1_555 1_555
C83 C82 1_555 1_555
C84 C83 1_555 1_555
C85 C83 1_555 1_555
H45 C85 1_555 1_555
C86 C85 1_555 1_555
C87 C86 1_555 1_555
C88 C81 1_555 1_555
H46 C88 1_555 1_555
N1 C1 1_555 1_555
N2 Co1 1_555 1_555
N3 C12 1_555 1_555
H47 N3 1_555 1_555
N4 C6 1_555 1_555
H48 N4 1_555 1_555
N5 C24 1_555 1_555
N6 Co2 1_555 1_555
N7 C35 1_555 1_555
H49 N7 1_555 1_555
N8 C29 1_555 1_555
H50 N8 1_555 1_555
N9 Co2 1_555 1_555
N10 Co2 1_555 1_555
N11 C49 1_555 1_555
N12 C43 1_555 1_555
H51 N12 1_555 1_555
N13 C52 1_555 1_555
N14 C58 1_555 1_555
H52 N14 1_555 1_555
N15 C63 1_555 1_555
N16 Co4 1_555 1_555
N17 Co4 1_555 1_555
N18 Co4 1_555 1_555
N19 C77 1_555 1_555
H53 N19 1_555 1_555
N20 C71 1_555 1_555
H54 N20 1_555 1_555
O1 Co1 1_555 1_555
O2 Co1 1_555 1_555
O3 Co1 1_555 1_555
O4 Co1 1_555 1_555
O6 Co3 1_555 1_555
O8 C19 1_555 1_555
O10 Co2 1_555 1_555
O12 Co2 1_555 1_555
O14 C80 1_555 1_555
O15 C80 1_555 1_555
O16 C87 1_555 1_555
O17 C87 1_555 1_555
O18 Co3 1_555 1_555
O19 Co3 1_555 1_555
Co3C N11 1_555 1_555
Co4A O14 1_555 1_555
N11C Co3 1_555 1_555
O14A Co4 1_555 1_555
O15A Co4 1_555 1_555
C5 C6 1_555 1_555
C7 N2 1_555 1_555
C11 C12 1_555 1_555
C13 N1 1_555 1_555
C13 N4 1_555 1_555
C14 N3 1_555 1_555
C15 O2 1_555 1_555
C15 O4 1_555 1_555
C19 O6 1_555 1_555
C21 C23 1_555 1_555
C22 O10 1_555 1_555
C22 O12 1_555 1_555
C28 C29 1_555 1_555
C30 N6 1_555 1_555
C34 C35 1_555 1_555
C36 N5 1_555 1_555
C36 N8 1_555 1_555
C37 N7 1_555 1_555
C38 N9 1_555 1_555
C42 C43 1_555 1_555
C44 N10 1_555 1_555
C48 C49 1_555 1_555
C50 N9 1_555 1_555
C50 N12 1_555 1_555
C51 N11 1_555 1_555
C56 C57 1_555 1_555
C57 N16 1_555 1_555
C62 C63 1_555 1_555
C64 N13 1_555 1_555
C64 N16 1_555 1_555
C65 N15 1_555 1_555
C66 N17 1_555 1_555
C70 C71 1_555 1_555
C72 N18 1_555 1_555
C76 C77 1_555 1_555
C78 N17 1_555 1_555
C78 N20 1_555 1_555
C79 N19 1_555 1_555
C84 O18 1_555 1_555
C84 O19 1_555 1_555
C86 C88 1_555 1_555
O15 Co4A 1_555 1_555

#END
