
#######################################################################
#
#                 Cambridge Crystallographic Data Centre
#                                CCDC 
#
#######################################################################
#
# If this CIF has been generated from an entry in the Cambridge 
# Structural Database, then it will include bibliographic, chemical, 
# crystal, experimental, refinement or atomic coordinate data resulting 
# from the CCDC's data processing and validation procedures.
#
#######################################################################

data_GEFFIH
_symmetry_cell_setting           monoclinic
_symmetry_space_group_name_H-M   'P 21/c'
_symmetry_Int_Tables_number      14
_space_group_name_Hall           '-P 2ybc'
loop_
_symmetry_equiv_pos_site_id
_symmetry_equiv_pos_as_xyz
1 x,y,z
2 -x,1/2+y,1/2-z
3 -x,-y,-z
4 x,1/2-y,1/2+z
_cell_length_a                   7.2779(11)
_cell_length_b                   21.675(3)
_cell_length_c                   11.786(2)
_cell_angle_alpha                90
_cell_angle_beta                 97.484(7)
_cell_angle_gamma                90
_cell_volume                     1843.39
loop_
_atom_site_label
_atom_site_type_symbol
_atom_site_fract_x
_atom_site_fract_y
_atom_site_fract_z
Ni1 Ni 0.27011(9) 0.38083(3) 0.10570(6)
C1 C 0.0554(7) 0.3003(2) 0.0299(4)
C2 C -0.0812(7) 0.2563(2) -0.0310(4)
C3 C -0.2651(7) 0.2592(2) -0.0115(4)
H1 H -0.3001 0.2855 0.0443
C4 C -0.3968(7) 0.2226(2) -0.0762(4)
H2 H -0.5195 0.2235 -0.0620
C5 C -0.3455(7) 0.1846(2) -0.1623(4)
C6 C -0.1587(7) 0.1805(2) -0.1779(4)
H3 H -0.1229 0.1540 -0.2331
C7 C -0.0276(7) 0.2154(2) -0.1120(5)
H4 H 0.0968 0.2118 -0.1215
C8 C -0.4910(8) 0.1526(2) -0.2423(4)
C9 C 0.3178(7) 0.4047(2) -0.1649(5)
C10 C 0.3365(8) 0.3474(2) -0.2164(5)
H5 H 0.3263 0.3109 -0.1763
C11 C 0.3704(9) 0.3470(3) -0.3288(6)
H6 H 0.3823 0.3095 -0.3657
C12 C 0.3872(8) 0.4020(3) -0.3875(5)
H7 H 0.4131 0.4000 -0.4626
C13 C 0.3672(8) 0.4590(3) -0.3398(5)
H8 H 0.3767 0.4953 -0.3805
C14 C 0.3316(7) 0.4587(2) -0.2262(4)
C15 C 0.2722(7) 0.4805(2) -0.0517(4)
C16 C 0.2387(7) 0.5083(2) 0.0547(4)
C17 C 0.1916(7) 0.5109(2) 0.2326(5)
C18 C 0.1687(8) 0.4978(3) 0.3456(5)
H9 H 0.1773 0.4578 0.3742
C19 C 0.1323(8) 0.5474(3) 0.4129(5)
H10 H 0.1160 0.5402 0.4887
C20 C 0.1191(8) 0.6082(3) 0.3718(5)
H11 H 0.0941 0.6401 0.4202
C21 C 0.1429(7) 0.6207(3) 0.2600(5)
H12 H 0.1353 0.6608 0.2319
C22 C 0.1784(7) 0.5717(2) 0.1912(5)
N1 N 0.2819(6) 0.41926(18) -0.0545(3)
N2 N 0.2312(6) 0.47192(18) 0.1448(4)
N3 N 0.2086(6) 0.56840(18) 0.0769(4)
H13 H 0.2083 0.5987 0.0298
N4 N 0.3011(6) 0.50673(18) -0.1523(4)
H14 H 0.3006 0.5455 -0.1676
O1 O 0.2272(5) 0.29042(15) 0.0363(3)
O2 O -0.0032(5) 0.35047(14) 0.0705(3)
O3 O -0.4443(5) 0.12523(14) -0.3309(3)
O4 O -0.6578(5) 0.15547(16) -0.2272(3)
Ni1C Ni -0.72989(9) 0.11917(3) -0.39430(6)
O3C O 0.5557(5) 0.37477(14) 0.1691(3)
O4C O 0.3422(5) 0.34453(16) 0.2728(3)
loop_
_geom_bond_atom_site_label_1
_geom_bond_atom_site_label_2
_geom_bond_site_symmetry_1
_geom_bond_site_symmetry_2
Ni1 N1 1_555 1_555
C1 C2 1_555 1_555
C2 C3 1_555 1_555
C3 H1 1_555 1_555
C4 C3 1_555 1_555
H2 C4 1_555 1_555
C5 C4 1_555 1_555
C6 C5 1_555 1_555
H3 C6 1_555 1_555
C7 C2 1_555 1_555
H4 C7 1_555 1_555
C8 C5 1_555 1_555
C9 C10 1_555 1_555
C10 H5 1_555 1_555
C11 C10 1_555 1_555
H6 C11 1_555 1_555
C12 C11 1_555 1_555
H7 C12 1_555 1_555
C13 C12 1_555 1_555
H8 C13 1_555 1_555
C14 C9 1_555 1_555
C15 C16 1_555 1_555
C16 N2 1_555 1_555
C17 C18 1_555 1_555
C18 H9 1_555 1_555
C19 C18 1_555 1_555
H10 C19 1_555 1_555
C20 C19 1_555 1_555
H11 C20 1_555 1_555
C21 C20 1_555 1_555
H12 C21 1_555 1_555
C22 C17 1_555 1_555
N1 C9 1_555 1_555
N2 Ni1 1_555 1_555
N3 C16 1_555 1_555
H13 N3 1_555 1_555
N4 C14 1_555 1_555
H14 N4 1_555 1_555
O1 Ni1 1_555 1_555
O2 Ni1 1_555 1_555
O3 C8 1_555 1_555
O4 C8 1_555 1_555
Ni1C O3 1_555 1_555
O3C Ni1 1_555 1_555
O4C Ni1 1_555 1_555
C1 O1 1_555 1_555
C1 O2 1_555 1_555
C6 C7 1_555 1_555
C13 C14 1_555 1_555
C15 N1 1_555 1_555
C15 N4 1_555 1_555
C17 N2 1_555 1_555
C21 C22 1_555 1_555
C22 N3 1_555 1_555
O4 Ni1C 1_555 1_555

#END
