
#######################################################################
#
#                 Cambridge Crystallographic Data Centre
#                                CCDC 
#
#######################################################################
#
# If this CIF has been generated from an entry in the Cambridge 
# Structural Database, then it will include bibliographic, chemical, 
# crystal, experimental, refinement or atomic coordinate data resulting 
# from the CCDC's data processing and validation procedures.
#
#######################################################################

data_GEFSUG
_symmetry_cell_setting           orthorhombic
_symmetry_space_group_name_H-M   'P c a 21'
_symmetry_Int_Tables_number      29
_space_group_name_Hall           'P 2c -2ac'
loop_
_symmetry_equiv_pos_site_id
_symmetry_equiv_pos_as_xyz
1 x,y,z
2 -x,-y,1/2+z
3 1/2+x,-y,z
4 1/2-x,y,1/2+z
_cell_length_a                   20.8760(6)
_cell_length_b                   12.3647(2)
_cell_length_c                   10.9125(2)
_cell_angle_alpha                90
_cell_angle_beta                 90
_cell_angle_gamma                90
_cell_volume                     2816.79
loop_
_atom_site_label
_atom_site_type_symbol
_atom_site_fract_x
_atom_site_fract_y
_atom_site_fract_z
Co1 Co 0.26041(4) 0.51708(8) 1.47444(9)
Co2 Co 0.37292(5) 0.26069(7) 1.20539(10)
Co3 Co 0.35014(5) 0.77025(7) 1.75414(9)
Co4 Co 0.52955(5) 0.02208(8) 1.44164(9)
S1 S 0.32094(11) 0.36679(15) 1.34544(19)
S2 S 0.29410(10) 0.68472(15) 1.60054(17)
S3 S 0.18790(10) 0.39066(15) 1.5455(2)
S4 S 0.41716(11) 0.11239(17) 1.0392(2)
N1 N 0.3266(3) 0.4183(5) 1.5684(6)
N2 N 0.3192(3) 0.6292(4) 1.3814(5)
N3 N 0.0726(3) 0.3691(4) 1.6099(5)
N4 N 0.3104(3) 0.1425(5) 1.1478(6)
O1 O 0.4302(3) 0.1906(4) 1.3328(4)
O2 O 0.4860(2) 0.1548(4) 1.4962(5)
O3 O 0.4033(2) 0.8577(4) 1.6376(4)
O4 O 0.4421(2) 0.9403(4) 1.4741(5)
O5 O 0.1830(2) 0.6022(4) 1.4011(4)
O6 O 0.0909(2) 0.6676(4) 1.3370(5)
O7 O 0.3871(3) -0.0999(4) 0.9003(5)
O8 O 0.2883(2) -0.1386(4) 0.8526(5)
O9 O 0.5124(3) 0.0121(4) 1.2590(4)
H1 H 0.4759(15) 0.036(6) 1.230(2)
H2 H 0.5431(14) 0.021(6) 1.2065(19)
C1 C 0.3539(3) 0.3477(5) 1.4870(7)
C2 C 0.4010(4) 0.2742(6) 1.5271(7)
C3 C 0.4145(4) 0.2666(6) 1.6539(8)
H3 H 0.4454 0.2164 1.6830
C4 C 0.3825(4) 0.3321(7) 1.7342(8)
H4 H 0.3896 0.3252 1.8198
C5 C 0.3401(4) 0.4080(7) 1.6908(7)
H5 H 0.3195 0.4548 1.7475
C6 C 0.4398(3) 0.2024(5) 1.4445(8)
C7 C 0.3367(3) 0.7040(5) 1.4647(7)
C8 C 0.3825(3) 0.7841(5) 1.4347(7)
C9 C 0.4050(5) 0.7873(6) 1.3152(7)
H6 H 0.4360 0.8401 1.2931
C10 C 0.3830(4) 0.7134(6) 1.2253(8)
H7 H 0.3950 0.7187 1.1415
C11 C 0.3424(4) 0.6321(6) 1.2687(8)
H8 H 0.3308 0.5756 1.2140
C12 C 0.4107(4) 0.8657(6) 1.5194(7)
C13 C 0.1104(3) 0.4349(5) 1.5403(7)
C14 C 0.0829(3) 0.5196(5) 1.4710(7)
C15 C 0.0178(4) 0.5273(6) 1.4687(9)
H9 H -0.0018 0.5804 1.4183
C16 C -0.0202(4) 0.4591(6) 1.5385(9)
H10 H -0.0656 0.4661 1.5373
C17 C 0.0082(4) 0.3822(6) 1.6086(7)
H11 H -0.0177 0.3365 1.6580
C18 C 0.1226(4) 0.5990(5) 1.3991(6)
C19 C 0.3382(4) 0.0760(6) 1.0637(7)
C20 C 0.3016(3) -0.0042(5) 1.0045(6)
C21 C 0.2366(4) -0.0097(6) 1.0366(8)
H12 H 0.2103 -0.0619 0.9974
C22 C 0.2102(4) 0.0567(6) 1.1211(8)
H13 H 0.1661 0.0513 1.1415
C23 C 0.2491(4) 0.1324(6) 1.1770(8)
H14 H 0.2314 0.1785 1.2379
C24 C 0.3273(4) -0.0846(6) 0.9149(7)
Co2C Co 0.12708(5) 0.26069(7) 1.70539(10)
Co3C Co 0.14986(5) 0.77025(7) 1.25414(9)
Co3_2 Co 0.35014(5) -0.22975(7) 0.75414(9)
Co4A Co 0.47045(5) -0.02208(8) 0.94164(9)
Co4_2 Co 0.52955(5) 1.02208(8) 1.44164(9)
S3C S 0.31210(10) 0.39066(15) 1.0455(2)
S4A S 0.58284(11) -0.11239(17) 1.5392(2)
N3C N 0.4274(3) 0.3691(4) 1.1099(5)
O4_2 O 0.4421(2) -0.0597(4) 1.4741(5)
O6C O 0.4091(2) 0.6676(4) 1.8370(5)
O7_2 O 0.3871(3) 0.9001(4) 1.9003(5)
O7A O 0.6129(3) 0.0999(4) 1.4003(5)
O8_2 O 0.2883(2) 0.8614(4) 1.8526(5)
loop_
_geom_bond_atom_site_label_1
_geom_bond_atom_site_label_2
_geom_bond_site_symmetry_1
_geom_bond_site_symmetry_2
Co1 S1 1_555 1_555
Co2 S1 1_555 1_555
Co3 S2 1_555 1_555
Co4 O2 1_555 1_555
S1 C1 1_555 1_555
S2 Co1 1_555 1_555
S3 Co1 1_555 1_555
S4 Co2 1_555 1_555
N1 Co1 1_555 1_555
N2 Co1 1_555 1_555
N3 C13 1_555 1_555
N4 Co2 1_555 1_555
O1 Co2 1_555 1_555
O2 C6 1_555 1_555
O3 Co3 1_555 1_555
O4 C12 1_555 1_555
O5 Co1 1_555 1_555
O6 C18 1_555 1_555
O7 C24 1_555 1_555
O8 C24 1_555 1_555
O9 Co4 1_555 1_555
H1 O9 1_555 1_555
H2 O9 1_555 1_555
C1 N1 1_555 1_555
C2 C1 1_555 1_555
C3 C2 1_555 1_555
H3 C3 1_555 1_555
C4 C3 1_555 1_555
H4 C4 1_555 1_555
C5 N1 1_555 1_555
H5 C5 1_555 1_555
C6 O1 1_555 1_555
C7 S2 1_555 1_555
C8 C7 1_555 1_555
C9 C8 1_555 1_555
H6 C9 1_555 1_555
C10 C9 1_555 1_555
H7 C10 1_555 1_555
C11 N2 1_555 1_555
H8 C11 1_555 1_555
C12 O3 1_555 1_555
C13 S3 1_555 1_555
C14 C13 1_555 1_555
C15 C14 1_555 1_555
H9 C15 1_555 1_555
C16 C15 1_555 1_555
H10 C16 1_555 1_555
C17 N3 1_555 1_555
H11 C17 1_555 1_555
C18 O5 1_555 1_555
C19 S4 1_555 1_555
C20 C19 1_555 1_555
C21 C20 1_555 1_555
H12 C21 1_555 1_555
C22 C21 1_555 1_555
H13 C22 1_555 1_555
C23 N4 1_555 1_555
H14 C23 1_555 1_555
C24 C20 1_555 1_555
Co2C S3 1_555 1_555
Co3C O6 1_555 1_555
Co3_2 O7 1_555 1_555
Co4A S4 1_555 1_555
Co4_2 O4 1_555 1_555
S3C Co2 1_555 1_555
S4A Co4 1_555 1_555
N3C Co2 1_555 1_555
O4_2 Co4 1_555 1_555
O6C Co3 1_555 1_555
O7_2 Co3 1_555 1_555
O7A Co4 1_555 1_555
O8_2 Co3 1_555 1_555
N2 C7 1_555 1_555
N3 Co2C 1_555 1_555
N4 C19 1_555 1_555
O7 Co4A 1_555 1_555
O8 Co3_2 1_555 1_555
C2 C6 1_555 1_555
C4 C5 1_555 1_555
C8 C12 1_555 1_555
C10 C11 1_555 1_555
C14 C18 1_555 1_555
C16 C17 1_555 1_555
C22 C23 1_555 1_555

#END
