
#######################################################################
#
#                 Cambridge Crystallographic Data Centre
#                                CCDC 
#
#######################################################################
#
# If this CIF has been generated from an entry in the Cambridge 
# Structural Database, then it will include bibliographic, chemical, 
# crystal, experimental, refinement or atomic coordinate data resulting 
# from the CCDC's data processing and validation procedures.
#
#######################################################################

data_GEFWOF
_symmetry_cell_setting           orthorhombic
_symmetry_space_group_name_H-M   'P n a 21'
_symmetry_Int_Tables_number      33
_space_group_name_Hall           'P 2c -2n'
loop_
_symmetry_equiv_pos_site_id
_symmetry_equiv_pos_as_xyz
1 x,y,z
2 -x,-y,1/2+z
3 1/2-x,1/2+y,1/2+z
4 1/2+x,1/2-y,z
_cell_length_a                   14.4247(13)
_cell_length_b                   10.0078(10)
_cell_length_c                   22.5297(18)
_cell_angle_alpha                90
_cell_angle_beta                 90
_cell_angle_gamma                90
_cell_volume                     3252.38
loop_
_atom_site_label
_atom_site_type_symbol
_atom_site_fract_x
_atom_site_fract_y
_atom_site_fract_z
C1 C 1.3398(6) 0.1142(8) 0.1466(3)
H1 H 1.3843 0.1403 0.1741
C2 C 0.5192(5) -0.0966(7) 0.2675(3)
C3 C 1.3653(5) 0.0780(7) 0.0890(3)
H2 H 1.4273 0.0777 0.0777
C4 C 0.3872(6) -0.3970(8) 0.1079(3)
C5 C 1.1391(6) 0.1192(11) 0.2417(3)
C6 C 1.3232(5) -0.0042(6) -0.0125(3)
C7 C 0.2277(5) -0.4608(7) 0.0448(3)
C8 C 0.5876(5) -0.1289(8) 0.2270(3)
H3 H 0.6467 -0.0925 0.2306
C9 C 0.8771(5) 0.0471(9) 0.3215(3)
C10 C 0.2582(6) -0.3314(8) 0.0500(3)
H4 H 0.2246 -0.2635 0.0317
C11 C 1.2955(4) 0.0419(7) 0.0486(3)
C12 C 1.2465(6) 0.1105(8) 0.1618(3)
C13 C 0.1454(5) -0.4955(8) 0.0082(3)
C14 C 1.2039(5) 0.0429(8) 0.0649(3)
H5 H 1.1585 0.0202 0.0374
C15 C 0.9680(5) 0.0735(8) 0.2916(3)
C16 C 0.5675(6) -0.2158(8) 0.1810(3)
H6 H 0.6131 -0.2362 0.1532
C17 C 1.0741(7) 0.2227(9) 0.2438(3)
H7 H 1.0882 0.3065 0.2284
C18 C 0.4309(5) -0.1468(7) 0.2605(3)
H8 H 0.3840 -0.1238 0.2869
C19 C 0.4809(5) -0.2726(7) 0.1758(3)
C20 C 1.0345(6) -0.0273(9) 0.2887(3)
H9 H 1.0204 -0.1116 0.3036
C21 C 1.1782(5) 0.0775(9) 0.1225(3)
H10 H 1.1162 0.0781 0.1339
C22 C 0.9894(6) 0.1983(9) 0.2689(3)
H11 H 0.9457 0.2664 0.2707
C23 C 0.3372(6) -0.2989(7) 0.0814(3)
H12 H 0.3560 -0.2103 0.0844
C24 C 0.5424(5) -0.0147(7) 0.3208(3)
C25 C 0.4126(5) -0.2338(8) 0.2124(3)
H13 H 0.3525 -0.2645 0.2061
C26 C 1.1212(6) -0.0046(10) 0.2643(3)
H14 H 1.1658 -0.0717 0.2633
C27 C 0.2793(6) -0.5604(8) 0.0726(4)
H15 H 0.2598 -0.6489 0.0711
C28 C 0.7405(5) 0.4083(6) 0.3789(4)
H16 H 0.7980 0.3976 0.3608
C29 C 0.6061(5) 0.3635(6) 0.4162(3)
C30 C 0.6160(5) 0.4989(7) 0.4233(3)
C31 C 0.5490(7) 0.5775(9) 0.4488(4)
C32 C 0.4666(6) 0.3836(7) 0.4574(4)
H17 H 0.4105 0.3468 0.4695
C33 C 0.3620(7) -0.5259(9) 0.1034(4)
H18 H 0.3985 -0.5923 0.1204
N1 N 0.5293(4) 0.2991(5) 0.4343(3)
N2 N 0.6818(4) 0.3068(5) 0.3887(2)
N3 N 0.5561(8) 0.7094(7) 0.4564(4)
H19 H 0.5113 0.7532 0.4724
H20 H 0.6055 0.7506 0.4454
N4 N 0.7082(5) 0.5279(7) 0.3978(3)
H21 H 0.7354 0.6042 0.3956
N5 N 0.4767(6) 0.5128(8) 0.4646(4)
O1 O 0.6269(4) 0.0149(5) 0.3274(2)
O3 O 0.4785(4) 0.0212(5) 0.35516(19)
O4 O 0.1164(5) -0.6116(6) 0.0041(3)
O5 O 0.1107(4) -0.3956(5) -0.0196(2)
O6 O 0.4741(4) -0.3708(6) 0.1332(2)
O7 O 0.8295(4) 0.1508(6) 0.3319(2)
O8 O 0.8539(5) -0.0639(7) 0.3351(3)
O9 O 1.2612(3) -0.0499(5) -0.04533(19)
O10 O 1.4075(3) 0.0026(5) -0.02583(19)
O11 O 1.2283(4) 0.1477(8) 0.2200(2)
Zn1 Zn 0.71579(5) 0.11465(7) 0.37398(3)
Zn2 Zn 0.49957(5) 0.10076(7) 0.43299(4)
O5B O 0.3893(4) 0.1044(5) 0.4804(2)
O9A O 0.7388(3) 0.0499(5) 0.45467(19)
O10A O 0.5925(3) -0.0026(5) 0.47417(19)
Zn1A Zn 1.28421(5) -0.11465(7) -0.12602(3)
Zn2B Zn 0.00043(5) -0.39924(7) -0.06701(4)
Zn2A Zn 1.50043(5) -0.10076(7) -0.06701(4)
O2 O 0.2763(5) 0.7346(6) 0.4161(3)
loop_
_geom_bond_atom_site_label_1
_geom_bond_atom_site_label_2
_geom_bond_site_symmetry_1
_geom_bond_site_symmetry_2
C1 H1 1_555 1_555
C2 C8 1_555 1_555
C3 C1 1_555 1_555
H2 C3 1_555 1_555
C4 C23 1_555 1_555
C5 C17 1_555 1_555
C6 C11 1_555 1_555
C7 C10 1_555 1_555
C8 H3 1_555 1_555
C9 C15 1_555 1_555
C10 H4 1_555 1_555
C11 C3 1_555 1_555
C12 C1 1_555 1_555
C13 C7 1_555 1_555
C14 C11 1_555 1_555
H5 C14 1_555 1_555
C15 C20 1_555 1_555
C16 C8 1_555 1_555
H6 C16 1_555 1_555
C17 H7 1_555 1_555
C18 C2 1_555 1_555
H8 C18 1_555 1_555
C19 C16 1_555 1_555
C20 H9 1_555 1_555
C21 C12 1_555 1_555
H10 C21 1_555 1_555
C22 C15 1_555 1_555
H11 C22 1_555 1_555
C23 C10 1_555 1_555
H12 C23 1_555 1_555
C24 C2 1_555 1_555
C25 C18 1_555 1_555
H13 C25 1_555 1_555
C26 C5 1_555 1_555
H14 C26 1_555 1_555
C27 C7 1_555 1_555
H15 C27 1_555 1_555
C28 H16 1_555 1_555
C29 C30 1_555 1_555
C30 C31 1_555 1_555
C31 N3 1_555 1_555
C32 H17 1_555 1_555
C33 C4 1_555 1_555
H18 C33 1_555 1_555
N1 C29 1_555 1_555
N2 C28 1_555 1_555
N3 H19 1_555 1_555
H20 N3 1_555 1_555
N4 C28 1_555 1_555
H21 N4 1_555 1_555
N5 C31 1_555 1_555
O1 C24 1_555 1_555
O3 C24 1_555 1_555
O4 C13 1_555 1_555
O5 C13 1_555 1_555
O6 C4 1_555 1_555
O7 C9 1_555 1_555
O8 C9 1_555 1_555
O9 C6 1_555 1_555
O10 C6 1_555 1_555
O11 C5 1_555 1_555
Zn1 N2 1_555 1_555
Zn2 N1 1_555 1_555
O5B Zn2 1_555 1_555
O9A Zn1 1_555 1_555
O10A Zn2 1_555 1_555
Zn1A O9 1_555 1_555
Zn2B O5 1_555 1_555
Zn2A O10 1_555 1_555
C12 O11 1_555 1_555
C14 C21 1_555 1_555
C17 C22 1_555 1_555
C19 C25 1_555 1_555
C19 O6 1_555 1_555
C20 C26 1_555 1_555
C27 C33 1_555 1_555
C29 N2 1_555 1_555
C30 N4 1_555 1_555
C32 N1 1_555 1_555
C32 N5 1_555 1_555
O1 Zn1 1_555 1_555
O3 Zn2 1_555 1_555
O7 Zn1 1_555 1_555

#END
