
#######################################################################
#
#                 Cambridge Crystallographic Data Centre
#                                CCDC 
#
#######################################################################
#
# If this CIF has been generated from an entry in the Cambridge 
# Structural Database, then it will include bibliographic, chemical, 
# crystal, experimental, refinement or atomic coordinate data resulting 
# from the CCDC's data processing and validation procedures.
#
#######################################################################

data_GEFXEW
_symmetry_cell_setting           monoclinic
_symmetry_space_group_name_H-M   'C 2/c'
_symmetry_Int_Tables_number      15
_space_group_name_Hall           '-C 2yn'
loop_
_symmetry_equiv_pos_site_id
_symmetry_equiv_pos_as_xyz
1 x,y,z
2 -x,y,1/2-z
3 1/2+x,1/2+y,z
4 1/2-x,1/2+y,1/2-z
5 -x,-y,-z
6 x,-y,1/2+z
7 1/2-x,1/2-y,-z
8 1/2+x,1/2-y,1/2+z
_cell_length_a                   23.3640(8)
_cell_length_b                   10.2211(4)
_cell_length_c                   13.5936(4)
_cell_angle_alpha                90
_cell_angle_beta                 118.576(2)
_cell_angle_gamma                90
_cell_volume                     2850.79
loop_
_atom_site_label
_atom_site_type_symbol
_atom_site_fract_x
_atom_site_fract_y
_atom_site_fract_z
C1 C 0.26972(10) 0.6829(2) -0.13520(16)
H1 H 0.2644 0.7324 -0.0828
C2 C 0.32815(9) 0.51571(19) -0.16420(15)
C3 C 0.40916(10) -0.07282(19) -0.30532(16)
H2 H 0.4029 -0.0671 -0.3781
C4 C 0.41685(9) -0.1948(2) -0.25554(16)
C5 C 0.41069(10) 0.0405(2) -0.24826(16)
C6 C 0.40040(10) 0.1706(2) -0.30384(16)
C7 C 0.29015(9) 0.5431(2) -0.27972(15)
C8 C 0.42602(12) -0.2024(2) -0.14649(17)
H3 H 0.4317 -0.2834 -0.1119
C9 C 0.41992(12) 0.0310(2) -0.13937(18)
H4 H 0.4215 0.1065 -0.0999
C10 C 0.24337(9) 0.6392(2) -0.31019(15)
C11 C 0.42669(15) -0.0899(2) -0.08996(19)
H5 H 0.4318 -0.0957 -0.0179
C12 C 0.24268(10) 0.5551(2) -0.45797(16)
H6 H 0.2308 0.5401 -0.5328
C13 C 0.41078(9) -0.3175(2) -0.31941(16)
Cd1 Cd 0.378040(6) 0.415770(14) -0.399540(11)
H7 H 0.1844(13) 0.693(3) -0.468(2)
H8 H 0.3789(11) 0.3710(18) -0.1701(15)
H9 H 0.3912(11) 0.400(2) -0.0528(10)
H10 H 0.4976(13) 0.352(2) -0.371(2)
H11 H 0.4973(14) 0.482(2) -0.372(2)
N1 N 0.37395(8) 0.42528(17) -0.12367(14)
N2 N 0.28938(8) 0.49071(17) -0.37528(12)
N3 N 0.21324(9) 0.6453(2) -0.42470(14)
N4 N 0.31643(8) 0.59016(16) -0.09275(13)
N5 N 0.23074(9) 0.71274(19) -0.24052(14)
O1 O 0.36991(8) 0.17866(16) -0.40816(11)
O2 O 0.42189(7) 0.27182(14) -0.24316(12)
O3 O 0.38462(8) -0.31197(15) -0.42481(12)
O4 O 0.42894(7) -0.42337(13) -0.26661(12)
O5 O 0.47502(8) 0.41687(17) -0.40838(14)
Cd1E Cd 0.378040(6) 0.584230(14) 0.100460(11)
Cd1_2 Cd 0.378040(6) -0.584230(14) -0.399540(11)
N4E N 0.31643(8) 0.40984(16) -0.59275(13)
O4_2 O 0.42894(7) 0.57663(13) -0.26661(12)
loop_
_geom_bond_atom_site_label_1
_geom_bond_atom_site_label_2
_geom_bond_site_symmetry_1
_geom_bond_site_symmetry_2
C1 H1 1_555 1_555
C2 C7 1_555 1_555
C3 H2 1_555 1_555
C4 C3 1_555 1_555
C5 C3 1_555 1_555
C6 C5 1_555 1_555
C7 C10 1_555 1_555
C8 C4 1_555 1_555
H3 C8 1_555 1_555
C9 C5 1_555 1_555
H4 C9 1_555 1_555
C10 N3 1_555 1_555
C11 C8 1_555 1_555
H5 C11 1_555 1_555
C12 H6 1_555 1_555
C13 C4 1_555 1_555
Cd1 N2 1_555 1_555
H7 N3 1_555 1_555
H8 N1 1_555 1_555
H9 N1 1_555 1_555
H10 O5 1_555 1_555
H11 O5 1_555 1_555
N1 C2 1_555 1_555
N2 C7 1_555 1_555
N3 C12 1_555 1_555
N4 C1 1_555 1_555
N5 C1 1_555 1_555
O1 C6 1_555 1_555
O2 C6 1_555 1_555
O3 C13 1_555 1_555
O4 C13 1_555 1_555
O5 Cd1 1_555 1_555
Cd1E N4 1_555 1_555
Cd1_2 O4 1_555 1_555
N4E Cd1 1_555 1_555
O4_2 Cd1 1_555 1_555
C2 N4 1_555 1_555
C9 C11 1_555 1_555
C10 N5 1_555 1_555
C12 N2 1_555 1_555
Cd1 O1 1_555 1_555
Cd1 O2 1_555 1_555

#END
