
#######################################################################
#
#                 Cambridge Crystallographic Data Centre
#                                CCDC 
#
#######################################################################
#
# If this CIF has been generated from an entry in the Cambridge 
# Structural Database, then it will include bibliographic, chemical, 
# crystal, experimental, refinement or atomic coordinate data resulting 
# from the CCDC's data processing and validation procedures.
#
#######################################################################

data_GEFZAU
_symmetry_cell_setting           trigonal
_symmetry_space_group_name_H-M   'P 32 2 1'
_symmetry_Int_Tables_number      154
_space_group_name_Hall           'P 32 2"'
loop_
_symmetry_equiv_pos_site_id
_symmetry_equiv_pos_as_xyz
1 x,y,z
2 -y,x-y,2/3+z
3 -x+y,-x,1/3+z
4 y,x,-z
5 x-y,-y,1/3-z
6 -x,-x+y,2/3-z
_cell_length_a                   18.410(4)
_cell_length_b                   18.410(4)
_cell_length_c                   21.321(2)
_cell_angle_alpha                90
_cell_angle_beta                 90
_cell_angle_gamma                120
_cell_volume                     6258.15
loop_
_atom_site_label
_atom_site_type_symbol
_atom_site_fract_x
_atom_site_fract_y
_atom_site_fract_z
C1 C 0.4080(12) 0.0025(11) 0.0649(7)
H1 H 0.3528 -0.0057 0.0645
C2 C 0.4697(14) 0.0699(13) 0.0987(6)
H2 H 0.4534 0.1042 0.1209
C3 C 0.5496(13) 0.0899(12) 0.1024(6)
C4 C 0.5720(13) 0.0395(13) 0.0666(6)
H3 H 0.6280 0.0499 0.0654
C5 C 0.5059(12) -0.0281(11) 0.0323(7)
H4 H 0.5213 -0.0603 0.0065
C6 C 0.6153(13) 0.1594(12) 0.1377(7)
C7 C 0.5939(12) 0.1812(11) 0.1948(6)
H5 H 0.5378 0.1497 0.2096
C8 C 0.6521(11) 0.2472(11) 0.2302(6)
C9 C 0.7359(13) 0.2929(12) 0.2081(6)
H6 H 0.7773 0.3357 0.2339
C10 C 0.7592(11) 0.2774(11) 0.1508(6)
C11 C 0.6969(14) 0.2054(12) 0.1167(6)
H7 H 0.7124 0.1894 0.0789
C12 C 0.6313(10) 0.3687(7) 0.2954(5)
C13 C 0.5615(7) 0.3732(8) 0.2764(5)
H8 H 0.5085 0.3235 0.2727
C14 C 0.5691(8) 0.4506(10) 0.2628(5)
H9 H 0.5213 0.4537 0.2498
C15 C 0.6465(10) 0.5234(7) 0.2682(5)
H10 H 0.6517 0.5763 0.2590
C16 C 0.7163(7) 0.5189(8) 0.2873(5)
H11 H 0.7693 0.5687 0.2910
C17 C 0.7088(8) 0.4416(10) 0.3009(5)
H12 H 0.7565 0.4385 0.3139
C18 C 0.7058(14) 0.2795(12) 0.3576(7)
C19 C 0.7236(14) 0.3324(13) 0.4130(6)
H13 H 0.6960 0.3635 0.4204
C20 C 0.7827(17) 0.3347(18) 0.4543(10)
H14 H 0.7952 0.3678 0.4911
C21 C 0.8205(16) 0.2947(17) 0.4450(9)
H15 H 0.8572 0.2960 0.4768
C22 C 0.8120(14) 0.2481(15) 0.3904(7)
H16 H 0.8471 0.2251 0.3822
C23 C 0.7476(14) 0.2375(14) 0.3481(8)
H17 H 0.7341 0.2009 0.3132
Cl1 Cl 0.3787(5) 0.1621(5) 0.2941(3)
Cu1 Cu 0.4926(2) 0.1561(2) 0.34181(9)
N1 N 0.4229(9) -0.0511(9) 0.0329(6)
P1 P 0.6197(4) 0.2653(4) 0.30675(16)
C26 C 0.9116(17) 0.2741(16) 0.1394(11)
C27 C 0.9048(16) 0.2434(15) 0.2044(11)
H20 H 0.8695 0.2507 0.2332
C28 C 0.9464(16) 0.2062(15) 0.2236(12)
H21 H 0.9388 0.1855 0.2654
C29 C 1.0028(17) 0.1965(16) 0.1827(10)
H22 H 1.0338 0.1708 0.1964
C30 C 1.0097(16) 0.2271(15) 0.1215(11)
H23 H 1.0444 0.2185 0.0930
C31 C 0.9714(16) 0.2672(15) 0.1002(12)
H24 H 0.9834 0.2911 0.0594
C32 C 0.9126(9) 0.4264(7) 0.1585(6)
C33 C 0.9696(9) 0.4437(8) 0.2068(6)
H25 H 0.9862 0.4040 0.2176
C34 C 1.0023(7) 0.5189(9) 0.2395(5)
H26 H 1.0412 0.5307 0.2726
C35 C 0.9779(8) 0.5769(7) 0.2238(6)
H27 H 1.0002 0.6283 0.2461
C36 C 0.9210(9) 0.5597(8) 0.1754(7)
H28 H 0.9043 0.5994 0.1647
C37 C 0.8883(8) 0.4845(10) 0.1428(5)
H29 H 0.8494 0.4727 0.1097
P2 P 0.8610(4) 0.3312(4) 0.11349(17)
Cu1D Cu 0.3365(3) -0.1561(2) -0.00848(9)
Cu1A Cu 0.8439(2) 0.3365(3) 0.00848(9)
N1D N 0.4740(13) 0.0511(9) 0.3004(6)
P2B P 0.4702(6) 0.1390(4) 0.44682(17)
C24 C 0.2915(10) 0.1515(10) 0.1366(11)
H18 H 0.3000 0.1363 0.1800
Cl2 Cl 0.3878(8) 0.2219(9) 0.1129(7)
Cl3 Cl 0.2479(9) 0.0610(7) 0.0979(7)
Cl4 Cl 0.2274(9) 0.1903(9) 0.1465(7)
C25 C 0.2259(11) 0.1994(9) 0.3504(7)
H19 H 0.2648 0.1796 0.3361
Cl5 Cl 0.2553(7) 0.2866(7) 0.3095(5)
Cl6 Cl 0.1306(7) 0.1209(7) 0.3316(5)
Cl7 Cl 0.2449(7) 0.2163(7) 0.4278(4)
loop_
_geom_bond_atom_site_label_1
_geom_bond_atom_site_label_2
_geom_bond_site_symmetry_1
_geom_bond_site_symmetry_2
C1 H1 1_555 1_555
C2 C1 1_555 1_555
H2 C2 1_555 1_555
C3 C2 1_555 1_555
C4 C3 1_555 1_555
H3 C4 1_555 1_555
C5 C4 1_555 1_555
H4 C5 1_555 1_555
C6 C3 1_555 1_555
C7 C6 1_555 1_555
H5 C7 1_555 1_555
C8 C7 1_555 1_555
C9 C8 1_555 1_555
H6 C9 1_555 1_555
C10 C9 1_555 1_555
C11 C6 1_555 1_555
H7 C11 1_555 1_555
C12 C13 1_555 1_555
C13 H8 1_555 1_555
C14 C13 1_555 1_555
H9 C14 1_555 1_555
C15 C14 1_555 1_555
H10 C15 1_555 1_555
C16 C15 1_555 1_555
H11 C16 1_555 1_555
C17 C12 1_555 1_555
H12 C17 1_555 1_555
C18 C19 1_555 1_555
C19 H13 1_555 1_555
C20 C19 1_555 1_555
H14 C20 1_555 1_555
C21 C20 1_555 1_555
H15 C21 1_555 1_555
C22 C21 1_555 1_555
H16 C22 1_555 1_555
C23 C18 1_555 1_555
H17 C23 1_555 1_555
C24 H18 1_555 1_555
C25 H19 1_555 1_555
Cl1 Cu1 1_555 1_555
Cl2 C24 1_555 1_555
Cl3 C24 1_555 1_555
Cl4 C24 1_555 1_555
Cl5 C25 1_555 1_555
Cl6 C25 1_555 1_555
Cl7 C25 1_555 1_555
Cu1 P1 1_555 1_555
N1 C1 1_555 1_555
P1 C8 1_555 1_555
C26 C27 1_555 1_555
C27 H20 1_555 1_555
C28 C27 1_555 1_555
H21 C28 1_555 1_555
C29 C28 1_555 1_555
H22 C29 1_555 1_555
C30 C29 1_555 1_555
H23 C30 1_555 1_555
C31 C26 1_555 1_555
H24 C31 1_555 1_555
C32 C33 1_555 1_555
C33 H25 1_555 1_555
C34 C33 1_555 1_555
H26 C34 1_555 1_555
C35 C34 1_555 1_555
H27 C35 1_555 1_555
C36 C35 1_555 1_555
H28 C36 1_555 1_555
C37 C32 1_555 1_555
H29 C37 1_555 1_555
P2 C10 1_555 1_555
Cu1D N1 1_555 1_555
Cu1A P2 1_555 1_555
N1D Cu1 1_555 1_555
P2B Cu1 1_555 1_555
C5 N1 1_555 1_555
C10 C11 1_555 1_555
C12 P1 1_555 1_555
C16 C17 1_555 1_555
C18 P1 1_555 1_555
C22 C23 1_555 1_555
C26 P2 1_555 1_555
C30 C31 1_555 1_555
C32 P2 1_555 1_555
C36 C37 1_555 1_555

#END
