
#######################################################################
#
#                 Cambridge Crystallographic Data Centre
#                                CCDC 
#
#######################################################################
#
# If this CIF has been generated from an entry in the Cambridge 
# Structural Database, then it will include bibliographic, chemical, 
# crystal, experimental, refinement or atomic coordinate data resulting 
# from the CCDC's data processing and validation procedures.
#
#######################################################################

data_GEGFIH
_symmetry_cell_setting           monoclinic
_symmetry_space_group_name_H-M   'P 21/c'
_symmetry_Int_Tables_number      14
_space_group_name_Hall           '-P 2ybc'
loop_
_symmetry_equiv_pos_site_id
_symmetry_equiv_pos_as_xyz
1 x,y,z
2 -x,1/2+y,1/2-z
3 -x,-y,-z
4 x,1/2-y,1/2+z
_cell_length_a                   13.684(4)
_cell_length_b                   9.537(2)
_cell_length_c                   18.531(3)
_cell_angle_alpha                90
_cell_angle_beta                 108.91(2)
_cell_angle_gamma                90
_cell_volume                     2287.85
loop_
_atom_site_label
_atom_site_type_symbol
_atom_site_fract_x
_atom_site_fract_y
_atom_site_fract_z
Cu1 Cu 0.66849(4) 0.02961(7) 0.46375(4)
Cu2 Cu 0.85433(4) 0.35950(5) 0.30687(3)
S1 S 0.9116(1) 0.5868(1) 0.2775(1)
C1 C 0.9572(4) 0.6725(5) 0.3697(3)
C2 C 0.8803(4) 0.6648(5) 0.4129(3)
S2 S 0.8692(1) 0.4894(1) 0.4464(1)
C3 C 1.0324(3) 0.5228(5) 0.2697(3)
N1 N 1.1604(3) 0.2470(4) 0.4024(2)
C4 C 1.0595(36) 0.2219(5) 0.3884(3)
N2 N 1.0029(2) 0.3158(4) 0.3409(2)
C5 C 1.0726(3) 0.4051(5) 0.3245(2)
C6 C 1.1701(3) 0.3645(5) 0.3625(2)
C7 C 1.2716(4) 0.4227(8) 0.3631(4)
C8 C 0.7305(4) 0.4723(7) 0.4218(3)
N3 N 0.5700(3) 0.5450(5) 0.2283(3)
C9 C 0.6482(4) 0.4738(6) 0.2187(3)
N4 N 0.7142(2) 0.4376(4) 0.2845(2)
C10 C 0.6754(3) 0.4900(5) 0.3395(3)
C11 C 0.5851(3) 0.5577(5) 0.3044(3)
C12 C 0.5111(5) 0.6306(8) 0.3352(5)
N5 N 0.8115(3) 0.1682(4) 0.3296(2)
C13 C 0.7606(3) 0.0781(5) 0.3374(2)
S3 S 0.6864(1) -0.0500(1) 0.3477(1)
N6 N 0.6084(3) -0.1128(4) 0.5139(2)
C14 C 0.5434(3) -0.1601(5) 0.5321(3)
S4 S 0.4509(1) -0.2282(1) 0.5599(1)
N7 N 0.8245(3) 0.1772(5) 0.6736(2)
C15 C 0.8254(3) 0.1513(5) 0.6133(3)
S5 S 0.8331(1) 0.1137(1) 0.5284(1)
H1 H 1.026 0.633 0.402
H2 H 0.971 0.780 0.362
H3 H 0.898 0.729 0.456
H4 H 0.813 0.698 0.379
H5 H 1.082 0.600 0.277
H6 H 1.014 0.499 0.217
H7 H 1.211 0.203 0.433
H8 H 1.029 0.160 0.409
H9 H 1.263 0.511 0.340
H10 H 1.306 0.371 0.333
H11 H 1.318 0.411 0.404
H12 H 0.726 0.387 0.438
H13 H 0.706 0.544 0.452
H14 H 0.529 0.576 0.193
H15 H 0.655 0.458 0.177
H16 H 0.543 0.653 0.390
H17 H 0.499 0.717 0.319
H18 H 0.448 0.599 0.311
S4B S 0.5491(1) 0.2282(1) 0.4401(1)
N7C N 0.8245(3) 0.3228(5) 0.1736(2)
Cu1B Cu 0.33151(4) -0.02961(7) 0.53625(4)
Cu2C Cu 0.85433(4) 0.14050(5) 0.80687(3)
loop_
_geom_bond_atom_site_label_1
_geom_bond_atom_site_label_2
_geom_bond_site_symmetry_1
_geom_bond_site_symmetry_2
Cu1 S3 1_555 1_555
Cu2 S1 1_555 1_555
S1 C1 1_555 1_555
C1 C2 1_555 1_555
C2 S2 1_555 1_555
S2 Cu2 1_555 1_555
C3 S1 1_555 1_555
N1 C4 1_555 1_555
C4 N2 1_555 1_555
N2 Cu2 1_555 1_555
C5 C3 1_555 1_555
C6 N1 1_555 1_555
C7 C6 1_555 1_555
C8 S2 1_555 1_555
N3 C9 1_555 1_555
C9 N4 1_555 1_555
N4 Cu2 1_555 1_555
C10 C8 1_555 1_555
C11 N3 1_555 1_555
C12 C11 1_555 1_555
N5 Cu2 1_555 1_555
C13 N5 1_555 1_555
S3 C13 1_555 1_555
N6 Cu1 1_555 1_555
C14 N6 1_555 1_555
S4 C14 1_555 1_555
N7 C15 1_555 1_555
C15 S5 1_555 1_555
S5 Cu1 1_555 1_555
H1 C1 1_555 1_555
H2 C1 1_555 1_555
H3 C2 1_555 1_555
H4 C2 1_555 1_555
H5 C3 1_555 1_555
H6 C3 1_555 1_555
H7 N1 1_555 1_555
H8 C4 1_555 1_555
H9 C7 1_555 1_555
H10 C7 1_555 1_555
H11 C7 1_555 1_555
H12 C8 1_555 1_555
H13 C8 1_555 1_555
H14 N3 1_555 1_555
H15 C9 1_555 1_555
H16 C12 1_555 1_555
H17 C12 1_555 1_555
H18 C12 1_555 1_555
S4B Cu1 1_555 1_555
N7C Cu2 1_555 1_555
Cu1B S4 1_555 1_555
Cu2C N7 1_555 1_555
N2 C5 1_555 1_555
C5 C6 1_555 1_555
N4 C10 1_555 1_555
C10 C11 1_555 1_555

#END
