
#######################################################################
#
#                 Cambridge Crystallographic Data Centre
#                                CCDC 
#
#######################################################################
#
# If this CIF has been generated from an entry in the Cambridge 
# Structural Database, then it will include bibliographic, chemical, 
# crystal, experimental, refinement or atomic coordinate data resulting 
# from the CCDC's data processing and validation procedures.
#
#######################################################################

data_GEGGEG01
_symmetry_cell_setting           monoclinic
_symmetry_space_group_name_H-M   'P 21/c'
_symmetry_Int_Tables_number      14
_space_group_name_Hall           '-P 2ybc'
loop_
_symmetry_equiv_pos_site_id
_symmetry_equiv_pos_as_xyz
1 x,y,z
2 -x,1/2+y,1/2-z
3 -x,-y,-z
4 x,1/2-y,1/2+z
_cell_length_a                   13.5820(4)
_cell_length_b                   10.8173(3)
_cell_length_c                   14.7037(5)
_cell_angle_alpha                90
_cell_angle_beta                 110.6280(10)
_cell_angle_gamma                90
_cell_volume                     2021.78
loop_
_atom_site_label
_atom_site_type_symbol
_atom_site_fract_x
_atom_site_fract_y
_atom_site_fract_z
Co1 Co 0.40941(2) 0.90254(3) 0.461141(19)
Co2 Co 0.50410(2) 1.01046(3) 0.292346(19)
O1 O 0.30172(12) 1.03083(14) 0.37160(11)
O2 O 0.49724(15) 0.73387(18) 0.54080(13)
H1 H 0.4545 0.6730 0.5332
H2 H 0.5255 0.7500 0.6017
O3 O 0.38877(12) 1.13630(14) 0.29235(12)
O4 O 0.48134(14) 1.09614(18) 0.15192(12)
H3 H 0.5402 1.1242 0.1507
H4 H 0.4375 1.1566 0.1422
O5 O 0.38447(13) 1.40418(15) 0.23928(13)
O6 O 0.31142(13) 1.28408(18) 0.10944(12)
O7 O -0.36636(11) 1.27725(14) 0.15496(10)
O8 O -0.37018(11) 1.39602(14) 0.27882(11)
O9 O -0.37858(12) 1.14716(16) 0.34224(11)
O10 O -0.28447(12) 1.15317(16) 0.50142(11)
O11 O 0.53886(10) 0.95816(13) 0.43238(10)
C1 C 0.31113(15) 1.11726(19) 0.31921(15)
C2 C 0.22301(16) 1.2096(2) 0.28510(15)
C3 C 0.13865(16) 1.1959(2) 0.31731(16)
H5 H 0.1388 1.1301 0.3580
C4 C 0.05419(16) 1.2777(2) 0.29054(16)
C5 C 0.05648(18) 1.3757(2) 0.22964(19)
H6 H 0.0012 1.4319 0.2106
C6 C 0.14014(18) 1.3906(2) 0.19701(19)
H7 H 0.1399 1.4567 0.1565
C7 C 0.22444(16) 1.3082(2) 0.22402(16)
C8 C 0.31480(16) 1.3317(2) 0.18789(17)
C9 C -0.03455(16) 1.2588(2) 0.32628(16)
C10 C -0.13718(16) 1.2938(2) 0.26968(16)
H8 H -0.1497 1.3328 0.2103
C11 C -0.22048(15) 1.27067(19) 0.30137(14)
C12 C -0.20311(16) 1.20917(19) 0.38915(15)
C13 C -0.10104(16) 1.1787(2) 0.44720(15)
H9 H -0.0885 1.1416 0.5073
C14 C -0.01772(16) 1.2030(2) 0.41637(16)
H10 H 0.0503 1.1820 0.4560
C15 C -0.32856(15) 1.31693(19) 0.24067(15)
C16 C -0.29655(16) 1.16676(19) 0.41314(15)
Co1A Co -0.40941(2) 1.40254(3) 0.038859(19)
Co1B Co -0.40941(2) 1.09746(3) 0.538859(19)
Co1B_2 Co 0.59059(2) 1.09746(3) 0.538859(19)
Co2_2 Co -0.49590(2) 1.01046(3) 0.292346(19)
Co2A Co -0.50410(2) 1.51046(3) 0.207654(19)
Co2A_2 Co 0.49590(2) 1.51046(3) 0.207654(19)
O5A O 0.61553(13) 0.90418(15) 0.26072(13)
O7A O 0.36636(11) 0.77725(14) 0.34504(10)
O8A O 0.37018(11) 0.89602(14) 0.22118(11)
O9_2 O 0.62142(12) 1.14716(16) 0.34224(11)
O10B O 0.28447(12) 0.84683(16) 0.49858(11)
O11B O 0.46114(10) 1.04184(13) 0.56762(10)
N1 N 0.2516(2) 0.0383(3) 0.05511(19)
H11 H 0.2891 -0.0085 0.1062
H12 H 0.2717 0.1174 0.0695
C17 C 0.1404(3) 0.0275(4) 0.0417(3)
H13 H 0.0998 0.0781 -0.0121
H14 H 0.1293 0.0543 0.0996
H15 H 0.1188 -0.0572 0.0286
C18 C 0.2772(4) -0.0002(4) -0.0319(3)
H16 H 0.2411 0.0528 -0.0858
H17 H 0.2553 -0.0841 -0.0484
H18 H 0.3517 0.0062 -0.0174
loop_
_geom_bond_atom_site_label_1
_geom_bond_atom_site_label_2
_geom_bond_site_symmetry_1
_geom_bond_site_symmetry_2
Co1 O1 1_555 1_555
Co2 O3 1_555 1_555
O1 C1 1_555 1_555
O2 Co1 1_555 1_555
H1 O2 1_555 1_555
H2 O2 1_555 1_555
O3 C1 1_555 1_555
O4 Co2 1_555 1_555
H3 O4 1_555 1_555
H4 O4 1_555 1_555
O5 C8 1_555 1_555
O6 C8 1_555 1_555
O7 C15 1_555 1_555
O8 C15 1_555 1_555
O9 C16 1_555 1_555
O10 C16 1_555 1_555
O11 Co1 1_555 1_555
C1 C2 1_555 1_555
C2 C3 1_555 1_555
C3 H5 1_555 1_555
C4 C3 1_555 1_555
C5 C4 1_555 1_555
H6 C5 1_555 1_555
C6 C5 1_555 1_555
H7 C6 1_555 1_555
C7 C2 1_555 1_555
C8 C7 1_555 1_555
C9 C4 1_555 1_555
C10 C9 1_555 1_555
H8 C10 1_555 1_555
C11 C10 1_555 1_555
C12 C11 1_555 1_555
C13 C12 1_555 1_555
H9 C13 1_555 1_555
C14 C9 1_555 1_555
H10 C14 1_555 1_555
C15 C11 1_555 1_555
C16 C12 1_555 1_555
N1 H11 1_555 1_555
H12 N1 1_555 1_555
C17 N1 1_555 1_555
H13 C17 1_555 1_555
H14 C17 1_555 1_555
H15 C17 1_555 1_555
C18 N1 1_555 1_555
H16 C18 1_555 1_555
H17 C18 1_555 1_555
H18 C18 1_555 1_555
Co1A O7 1_555 1_555
Co1B O10 1_555 1_555
Co1B_2 O11 1_555 1_555
Co2_2 O9 1_555 1_555
Co2A O8 1_555 1_555
Co2A_2 O5 1_555 1_555
O5A Co2 1_555 1_555
O7A Co1 1_555 1_555
O8A Co2 1_555 1_555
O9_2 Co2 1_555 1_555
O10B Co1 1_555 1_555
O11B Co1 1_555 1_555
Co2 O11 1_555 1_555
C6 C7 1_555 1_555
C13 C14 1_555 1_555
Co1B_2 O11B 1_555 1_555

#END
