
#######################################################################
#
#                 Cambridge Crystallographic Data Centre
#                                CCDC 
#
#######################################################################
#
# If this CIF has been generated from an entry in the Cambridge 
# Structural Database, then it will include bibliographic, chemical, 
# crystal, experimental, refinement or atomic coordinate data resulting 
# from the CCDC's data processing and validation procedures.
#
#######################################################################

data_GEGKIM
_symmetry_cell_setting           triclinic
_symmetry_space_group_name_H-M   'P -1'
_symmetry_Int_Tables_number      2
_space_group_name_Hall           '-P 1'
loop_
_symmetry_equiv_pos_site_id
_symmetry_equiv_pos_as_xyz
1 x,y,z
2 -x,-y,-z
_cell_length_a                   13.888(6)
_cell_length_b                   5.671(3)
_cell_length_c                   15.181(6)
_cell_angle_alpha                91.95(4)
_cell_angle_beta                 111.56(3)
_cell_angle_gamma                92.93(4)
_cell_volume                     1108.73
loop_
_atom_site_label
_atom_site_type_symbol
_atom_site_fract_x
_atom_site_fract_y
_atom_site_fract_z
Cu1 Cu 0.43453(2) -0.25973(5) 0.48694(3)
F1 F 0.5522(1) -0.1107(3) 0.5872(1)
F2 F 0.5271(1) -0.3805(3) 0.4314(1)
N1 N 0.3265(2) -0.5544(4) 0.3157(2)
N2 N 0.3166(2) -0.3681(4) 0.3686(2)
N3 N 0.3799(2) 0.0154(4) 0.6243(2)
N4 N 0.3474(2) -0.1738(4) 0.5611(2)
C1 C 0.2268(2) -0.2776(5) 0.3171(2)
C2 C 0.1785(2) -0.4065(5) 0.2311(2)
C3 C 0.2450(2) -0.5842(5) 0.2319(2)
C4 C 0.2684(2) -0.2807(5) 0.5776(2)
C5 C 0.2497(2) -0.1592(5) 0.6512(2)
C6 C 0.3234(2) 0.0299(5) 0.6803(2)
C7 C 0.1903(2) -0.0581(5) 0.3532(2)
C8 C 0.0740(2) -0.3557(6) 0.1594(2)
C9 C -0.0142(3) -0.4990(9) 0.1711(3)
C10 C 0.2432(2) -0.7739(5) 0.1615(2)
C11 C 0.1652(3) -0.7987(7) 0.0733(3)
C12 C 0.1661(3) -0.9725(8) 0.0076(3)
C13 C 0.2435(3) -1.1249(6) 0.0282(3)
C14 C 0.3209(3) -1.1053(7) 0.1157(3)
C15 C 0.3222(3) -0.9288(6) 0.1822(2)
C16 C 0.2153(3) -0.5083(6) 0.5234(2)
C17 C 0.1636(2) -0.2307(7) 0.6852(3)
C18 C 0.072(1) -0.072(1) 0.650(1)
C19 C 0.3500(2) 0.2159(5) 0.7560(2)
C20 C 0.3171(3) 0.1967(7) 0.8319(3)
C21 C 0.3414(4) 0.3757(7) 0.9034(3)
C22 C 0.4029(3) 0.5685(7) 0.9025(3)
C23 C 0.4406(3) 0.5878(6) 0.8304(2)
C24 C 0.4141(3) 0.4146(6) 0.7575(2)
H1 H 0.1086(3) -0.6924(7) 0.0567(3)
H2 H 0.1095(3) -0.9888(8) -0.0541(3)
H3 H 0.2441(3) -1.2443(6) -0.0193(3)
H4 H 0.3766(3) -1.2140(7) 0.1319(3)
H5 H 0.3786(3) -0.9146(6) 0.2441(2)
H6 H 0.2742(3) 0.0583(7) 0.8342(3)
H7 H 0.3168(4) 0.3600(7) 0.9554(3)
H8 H 0.4205(3) 0.6925(7) 0.9528(3)
H9 H 0.4849(3) 0.7248(6) 0.8294(2)
H10 H 0.4403(3) 0.4311(6) 0.7064(2)
H11 H 0.3849(2) -0.6558(4) 0.3352(2)
H12 H 0.4372(2) 0.1270(4) 0.6291(5)
H13 H 0.0635(2) -0.1880(6) 0.1658(2)
H14 H 0.0737(2) -0.3918(6) 0.0960(2)
H15 H 0.1388(2) -0.3930(7) 0.6622(3)
H16 H 0.1915(2) -0.2228(7) 0.7543(3)
F1A F 0.4478(1) 0.1107(3) 0.4128(1)
F2A F 0.4729(1) -0.6195(3) 0.5686(1)
Cu1A Cu 0.56547(2) 0.25973(5) 0.51306(3)
Cu1A_2 Cu 0.56547(2) -0.74027(5) 0.51306(3)
loop_
_geom_bond_atom_site_label_1
_geom_bond_atom_site_label_2
_geom_bond_site_symmetry_1
_geom_bond_site_symmetry_2
Cu1 F1 1_555 1_555
F1 Cu1A 1_555 1_555
F2 Cu1 1_555 1_555
N1 N2 1_555 1_555
N2 Cu1 1_555 1_555
N3 N4 1_555 1_555
N4 Cu1 1_555 1_555
C1 N2 1_555 1_555
C2 C1 1_555 1_555
C3 N1 1_555 1_555
C4 N4 1_555 1_555
C5 C4 1_555 1_555
C6 N3 1_555 1_555
C7 C1 1_555 1_555
C8 C2 1_555 1_555
C9 C8 1_555 1_555
C10 C3 1_555 1_555
C11 C10 1_555 1_555
C12 C11 1_555 1_555
C13 C12 1_555 1_555
C14 C13 1_555 1_555
C15 C10 1_555 1_555
C16 C4 1_555 1_555
C17 C5 1_555 1_555
C18 C17 1_555 1_555
C19 C6 1_555 1_555
C20 C19 1_555 1_555
C21 C20 1_555 1_555
C22 C21 1_555 1_555
C23 C22 1_555 1_555
C24 C19 1_555 1_555
H1 C11 1_555 1_555
H2 C12 1_555 1_555
H3 C13 1_555 1_555
H4 C14 1_555 1_555
H5 C15 1_555 1_555
H6 C20 1_555 1_555
H7 C21 1_555 1_555
H8 C22 1_555 1_555
H9 C23 1_555 1_555
H10 C24 1_555 1_555
H11 N1 1_555 1_555
H12 N3 1_555 1_555
H13 C8 1_555 1_555
H14 C8 1_555 1_555
H15 C17 1_555 1_555
H16 C17 1_555 1_555
F1A Cu1 1_555 1_555
F2A Cu1 1_555 1_555
Cu1A F1A 1_555 1_555
Cu1A_2 F2 1_555 1_555
C2 C3 1_555 1_555
C5 C6 1_555 1_555
C14 C15 1_555 1_555
C23 C24 1_555 1_555
F2A Cu1A_2 1_555 1_555

#END
