
#######################################################################
#
#                 Cambridge Crystallographic Data Centre
#                                CCDC 
#
#######################################################################
#
# If this CIF has been generated from an entry in the Cambridge 
# Structural Database, then it will include bibliographic, chemical, 
# crystal, experimental, refinement or atomic coordinate data resulting 
# from the CCDC's data processing and validation procedures.
#
#######################################################################

data_GEGLIO
_symmetry_cell_setting           monoclinic
_symmetry_space_group_name_H-M   'P 21/n'
_symmetry_Int_Tables_number      14
_space_group_name_Hall           '-P 2yn'
loop_
_symmetry_equiv_pos_site_id
_symmetry_equiv_pos_as_xyz
1 x,y,z
2 1/2-x,1/2+y,1/2-z
3 -x,-y,-z
4 1/2+x,1/2-y,1/2+z
_cell_length_a                   13.3886(5)
_cell_length_b                   13.6928(5)
_cell_length_c                   14.6443(5)
_cell_angle_alpha                90
_cell_angle_beta                 106.5160(10)
_cell_angle_gamma                90
_cell_volume                     2573.93
loop_
_atom_site_label
_atom_site_type_symbol
_atom_site_fract_x
_atom_site_fract_y
_atom_site_fract_z
Mn1 Mn 0.99860(2) 0.06303(2) 0.22180(2)
O1 O 0.88867(10) 0.14352(10) 0.23301(10)
O2 O 0.99774(11) -0.02047(9) 0.32387(10)
O3 O 0.88968(11) -0.02391(9) 0.11422(10)
O4 O 0.86096(11) -0.17653(10) 0.15154(10)
O5 O 0.67077(12) -0.17760(11) -0.26535(12)
O6 O 0.54070(12) -0.27282(11) -0.33681(11)
H1 H 0.4710(18) -0.2899(15) -0.3410(16)
O7 O 0.61654(11) 0.33837(10) -0.17343(11)
O8 O 0.71352(13) 0.20583(10) -0.16457(13)
H2 H 0.7559(18) 0.2436(15) -0.1817(17)
N1 N 1.02139(13) 0.14507(11) 0.11712(12)
N2 N 1.12365(13) -0.00306(11) 0.20600(12)
C1 C 0.65871(15) -0.03920(15) 0.01539(15)
C2 C 1.11717(16) 0.12209(15) 0.09082(16)
H3 H 1.1755 0.1632 0.1278
H4 H 1.1067 0.1347 0.0222
C3 C 0.62027(15) -0.11045(14) -0.05277(16)
H5 H 0.6340 -0.1772 -0.0361
C4 C 1.14131(17) 0.01500(15) 0.11296(15)
H6 H 1.0950 -0.0267 0.0635
H7 H 1.2145 0.0006 0.1155
C5 C 0.56213(15) -0.08693(14) -0.14487(16)
C6 C 0.54293(16) 0.01147(15) -0.16789(16)
H8 H 0.5034 0.0289 -0.2305
C7 C 0.58025(15) 0.08403(14) -0.10145(16)
C8 C 0.63774(14) 0.05835(15) -0.00983(15)
H9 H 0.6631 0.1080 0.0363
C9 C 0.95979(16) 0.21251(14) 0.07242(15)
H10 H 0.9757 0.2416 0.0193
C10 C 0.86924(16) 0.24756(15) 0.09579(15)
C11 C 0.71760(16) -0.06634(18) 0.11654(15)
H11 H 0.6838 -0.1239 0.1361
H12 H 0.7131 -0.0116 0.1593
C12 C 0.83885(16) 0.21283(14) 0.17482(15)
C13 C 0.83194(16) -0.08972(15) 0.12891(14)
C14 C 0.75257(16) 0.25636(15) 0.19445(15)
H13 H 0.7301 0.2336 0.2467
C15 C 0.70002(18) 0.33138(17) 0.13930(17)
H14 H 0.6425 0.3606 0.1547
C16 C 0.72934(19) 0.36557(17) 0.06136(18)
H15 H 0.6921 0.4174 0.0235
C17 C 0.81245(19) 0.32352(16) 0.03988(17)
H16 H 0.8322 0.3461 -0.0138
C18 C 1.19094(17) -0.04766(14) 0.27269(16)
H17 H 1.2546 -0.0663 0.2611
C19 C 1.17708(17) -0.07157(15) 0.36372(16)
C20 C 1.08088(16) -0.06041(14) 0.38429(15)
C21 C 1.07379(19) -0.09297(14) 0.47342(16)
H18 H 1.0090 -0.0888 0.4877
C22 C 1.1590(2) -0.13062(16) 0.54010(18)
H19 H 1.1526 -0.1503 0.6004
C23 C 1.2539(2) -0.14036(17) 0.52104(19)
H20 H 1.3127 -0.1655 0.5679
C24 C 1.2615(2) -0.11311(17) 0.43320(19)
H21 H 1.3257 -0.1225 0.4188
C25 C 0.51476(17) -0.16607(16) -0.21598(18)
H22 H 0.4497 -0.1401 -0.2599
H23 H 0.4951 -0.2211 -0.1808
C26 C 0.58133(18) -0.20617(15) -0.27532(16)
C27 C 0.55373(17) 0.19034(14) -0.12505(18)
H24 H 0.4868 0.1927 -0.1759
H25 H 0.5421 0.2216 -0.0680
C28 C 0.63106(17) 0.25162(15) -0.15663(15)
Mn1C Mn 0.49860(2) 0.43697(2) -0.27820(2)
O7C O 1.11654(11) 0.16163(10) 0.32657(11)
O9 O 0.4940(10) 0.0036(12) 0.4336(9)
loop_
_geom_bond_atom_site_label_1
_geom_bond_atom_site_label_2
_geom_bond_site_symmetry_1
_geom_bond_site_symmetry_2
Mn1 O1 1_555 1_555
O1 C12 1_555 1_555
O2 Mn1 1_555 1_555
O3 Mn1 1_555 1_555
O4 C13 1_555 1_555
O5 C26 1_555 1_555
O6 H1 1_555 1_555
O7 C28 1_555 1_555
O8 H2 1_555 1_555
N1 Mn1 1_555 1_555
N2 Mn1 1_555 1_555
C1 C3 1_555 1_555
C2 N1 1_555 1_555
H3 C2 1_555 1_555
H4 C2 1_555 1_555
C3 H5 1_555 1_555
C4 N2 1_555 1_555
H6 C4 1_555 1_555
H7 C4 1_555 1_555
C5 C3 1_555 1_555
C6 C5 1_555 1_555
H8 C6 1_555 1_555
C7 C6 1_555 1_555
C8 C1 1_555 1_555
H9 C8 1_555 1_555
C9 N1 1_555 1_555
H10 C9 1_555 1_555
C10 C9 1_555 1_555
C11 C1 1_555 1_555
H11 C11 1_555 1_555
H12 C11 1_555 1_555
C12 C10 1_555 1_555
C13 O3 1_555 1_555
C14 C12 1_555 1_555
H13 C14 1_555 1_555
C15 C14 1_555 1_555
H14 C15 1_555 1_555
C16 C15 1_555 1_555
H15 C16 1_555 1_555
C17 C10 1_555 1_555
H16 C17 1_555 1_555
C18 N2 1_555 1_555
H17 C18 1_555 1_555
C19 C18 1_555 1_555
C20 O2 1_555 1_555
C21 C20 1_555 1_555
H18 C21 1_555 1_555
C22 C21 1_555 1_555
H19 C22 1_555 1_555
C23 C22 1_555 1_555
H20 C23 1_555 1_555
C24 C19 1_555 1_555
H21 C24 1_555 1_555
C25 C5 1_555 1_555
H22 C25 1_555 1_555
H23 C25 1_555 1_555
C26 O6 1_555 1_555
C27 C7 1_555 1_555
H24 C27 1_555 1_555
H25 C27 1_555 1_555
C28 O8 1_555 1_555
Mn1C O7 1_555 1_555
O7C Mn1 1_555 1_555
C2 C4 1_555 1_555
C7 C8 1_555 1_555
C11 C13 1_555 1_555
C16 C17 1_555 1_555
C19 C20 1_555 1_555
C23 C24 1_555 1_555
C25 C26 1_555 1_555
C27 C28 1_555 1_555

#END
