
#######################################################################
#
#                 Cambridge Crystallographic Data Centre
#                                CCDC 
#
#######################################################################
#
# If this CIF has been generated from an entry in the Cambridge 
# Structural Database, then it will include bibliographic, chemical, 
# crystal, experimental, refinement or atomic coordinate data resulting 
# from the CCDC's data processing and validation procedures.
#
#######################################################################

data_GEGVOE
_symmetry_cell_setting           monoclinic
_symmetry_space_group_name_H-M   'C 2/c'
_symmetry_Int_Tables_number      15
_space_group_name_Hall           '-C 2yn'
loop_
_symmetry_equiv_pos_site_id
_symmetry_equiv_pos_as_xyz
1 x,y,z
2 1/2+x,1/2+y,z
3 -x,y,1/2-z
4 1/2-x,1/2+y,1/2-z
5 -x,-y,-z
6 1/2-x,1/2-y,-z
7 x,-y,1/2+z
8 1/2+x,1/2-y,1/2+z
_cell_length_a                   35.7790(8)
_cell_length_b                   15.0388(4)
_cell_length_c                   17.8896(6)
_cell_angle_alpha                90
_cell_angle_beta                 117.4508(11)
_cell_angle_gamma                90
_cell_volume                     8542.1
loop_
_atom_site_label
_atom_site_type_symbol
_atom_site_fract_x
_atom_site_fract_y
_atom_site_fract_z
Ag1 Ag 0.186204(13) 0.17903(2) 0.37646(2)
C1 C 0.04119(12) 0.4212(2) 0.0151(2)
C2 C 0.05679(13) 0.4406(3) 0.1013(2)
H1 H 0.0809 0.4777 0.1282
C3 C 0.03801(13) 0.4070(3) 0.1487(3)
C4 C 0.00263(14) 0.3527(3) 0.1071(3)
C5 C -0.01342(13) 0.3336(3) 0.0229(3)
H2 H -0.0377 0.2971 -0.0037
C6 C 0.00585(12) 0.3677(2) -0.0246(2)
C7 C -0.01410(13) 0.3400(3) -0.1170(3)
H3 H -0.0451 0.3398 -0.1402
H4 H -0.0067 0.3841 -0.1491
C8 C 0.00038(12) 0.2489(3) -0.1285(2)
C9 C -0.02179(13) 0.1739(3) -0.1222(3)
H5 H -0.0458 0.1829 -0.1134
C10 C -0.00982(13) 0.0879(3) -0.1283(3)
C11 C 0.02586(13) 0.0754(3) -0.1406(3)
C12 C 0.04715(13) 0.1480(3) -0.1494(2)
H6 H 0.0707 0.1385 -0.1596
C13 C 0.03490(13) 0.2351(3) -0.1437(2)
C14 C 0.06033(13) 0.3112(3) -0.1531(2)
H7 H 0.0421 0.3645 -0.1729
H8 H 0.0686 0.2952 -0.1970
C15 C 0.09975(13) 0.3350(2) -0.0729(3)
C16 C 0.13563(13) 0.2825(3) -0.0525(3)
H9 H 0.1340 0.2358 -0.0897
C17 C 0.17329(13) 0.2962(3) 0.0195(3)
C18 C 0.17544(13) 0.3684(3) 0.0713(3)
C19 C 0.14091(13) 0.4210(3) 0.0523(3)
H10 H 0.1431 0.4694 0.0882
C20 C 0.10205(13) 0.4046(3) -0.0196(3)
C21 C 0.06461(13) 0.4610(3) -0.0303(3)
H11 H 0.0449 0.4667 -0.0911
H12 H 0.0746 0.5214 -0.0080
C22 C 0.08491(14) 0.4882(3) 0.2812(3)
H13 H 0.0799 0.5120 0.3274
H14 H 0.0829 0.5387 0.2441
N1 N 0.05178(12) 0.4264(3) 0.2334(2)
H15 H 0.0394 0.3990 0.2594
O1 O -0.01559(11) 0.3249(2) 0.1569(2)
C23 C -0.0463(2) 0.2569(4) 0.1251(5)
H16 H -0.0533 0.2373 0.1693
H17 H -0.0352 0.2065 0.1067
H18 H -0.0717 0.2797 0.0771
C24 C -0.06620(15) 0.0183(3) -0.1046(3)
H19 H -0.0849 0.0686 -0.1351
H20 H -0.0548 0.0291 -0.0434
N2 N -0.03228(12) 0.0127(2) -0.1260(3)
H21 H -0.0254 -0.0396 -0.1380
O2 O 0.03655(9) -0.01260(18) -0.1436(2)
C25 C 0.07329(16) -0.0268(3) -0.1534(4)
H22 H 0.0972 0.0037 -0.1081
H23 H 0.0688 -0.0033 -0.2080
H24 H 0.0792 -0.0907 -0.1508
C26 C 0.21187(14) 0.1732(3) -0.0080(3)
H25 H 0.2419 0.1654 0.0062
H26 H 0.1967 0.1917 -0.0678
N3 N 0.20875(11) 0.2436(2) 0.0433(3)
H27 H 0.2306 0.2538 0.0925
O3 O 0.21464(10) 0.3787(2) 0.1405(2)
C27 C 0.2202(2) 0.4509(4) 0.1950(4)
H28 H 0.2179 0.5068 0.1650
H29 H 0.2481 0.4470 0.2439
H30 H 0.1985 0.4490 0.2138
N4 N 0.17730(12) 0.3276(2) 0.3666(2)
C28 C 0.13778(15) 0.3621(3) 0.3278(3)
H31 H 0.1147 0.3219 0.3053
C29 C 0.12901(15) 0.4523(3) 0.3189(3)
C30 C 0.16281(18) 0.5091(3) 0.3509(4)
H32 H 0.1583 0.5716 0.3472
C31 C 0.2026(2) 0.4763(4) 0.3879(5)
H33 H 0.2261 0.5154 0.4084
C32 C 0.20865(18) 0.3846(4) 0.3954(4)
H34 H 0.2366 0.3623 0.4225
N5 N -0.14981(13) -0.1482(2) -0.2326(2)
C33 C -0.12603(14) -0.0744(3) -0.2055(3)
H35 H -0.1338 -0.0242 -0.2419
C34 C -0.09103(13) -0.0672(3) -0.1281(3)
C35 C -0.07936(14) -0.1408(3) -0.0759(3)
H36 H -0.0551 -0.1387 -0.0225
C36 C -0.10310(15) -0.2173(3) -0.1016(3)
H37 H -0.0956 -0.2682 -0.0663
C37 C -0.13789(15) -0.2183(3) -0.1796(3)
H38 H -0.1543 -0.2710 -0.1969
N6 N 0.18350(12) -0.0700(2) -0.0417(2)
C38 C 0.19417(13) 0.0141(3) -0.0507(3)
H39 H 0.2018 0.0262 -0.0941
C39 C 0.19452(13) 0.0840(3) 0.0010(3)
C40 C 0.18270(16) 0.0649(3) 0.0623(3)
H40 H 0.1826 0.1107 0.0988
C41 C 0.17092(17) -0.0204(3) 0.0713(3)
H41 H 0.1621 -0.0337 0.1127
C42 C 0.17235(15) -0.0860(3) 0.0181(3)
H42 H 0.1650 -0.1450 0.0249
O4 O 0.26471(18) 0.1888(5) 0.4165(4)
Ag1D Ag -0.186204(13) -0.17903(2) -0.37646(2)
Ag1F Ag 0.186204(13) -0.17903(2) -0.12354(2)
N5D N 0.14981(13) 0.1482(2) 0.2326(2)
N6F N 0.18350(12) 0.0700(2) 0.4583(2)
Sb1 Sb 0.162469(10) 0.74406(2) 0.21042(2)
F1 F 0.12160(10) 0.7870(2) 0.10604(19)
F2 F 0.15835(17) 0.6330(3) 0.1651(3)
F3 F 0.20402(13) 0.7731(4) 0.1799(3)
F4 F 0.12193(11) 0.7183(4) 0.2415(3)
F5 F 0.16821(15) 0.8581(3) 0.2545(3)
F6 F 0.20367(9) 0.7026(2) 0.31484(19)
loop_
_geom_bond_atom_site_label_1
_geom_bond_atom_site_label_2
_geom_bond_site_symmetry_1
_geom_bond_site_symmetry_2
Ag1 N4 1_555 1_555
C1 C2 1_555 1_555
C2 H1 1_555 1_555
C3 C2 1_555 1_555
C4 C3 1_555 1_555
C5 C4 1_555 1_555
H2 C5 1_555 1_555
C6 C1 1_555 1_555
C7 C6 1_555 1_555
H3 C7 1_555 1_555
H4 C7 1_555 1_555
C8 C7 1_555 1_555
C9 C8 1_555 1_555
H5 C9 1_555 1_555
C10 C9 1_555 1_555
C11 C10 1_555 1_555
C12 C11 1_555 1_555
H6 C12 1_555 1_555
C13 C8 1_555 1_555
C14 C13 1_555 1_555
H7 C14 1_555 1_555
H8 C14 1_555 1_555
C15 C14 1_555 1_555
C16 C15 1_555 1_555
H9 C16 1_555 1_555
C17 C16 1_555 1_555
C18 C17 1_555 1_555
C19 C18 1_555 1_555
H10 C19 1_555 1_555
C20 C15 1_555 1_555
C21 C1 1_555 1_555
H11 C21 1_555 1_555
H12 C21 1_555 1_555
C22 H13 1_555 1_555
H14 C22 1_555 1_555
N1 C3 1_555 1_555
H15 N1 1_555 1_555
O1 C4 1_555 1_555
C23 O1 1_555 1_555
H16 C23 1_555 1_555
H17 C23 1_555 1_555
H18 C23 1_555 1_555
C24 H19 1_555 1_555
H20 C24 1_555 1_555
N2 C10 1_555 1_555
H21 N2 1_555 1_555
O2 C11 1_555 1_555
C25 O2 1_555 1_555
H22 C25 1_555 1_555
H23 C25 1_555 1_555
H24 C25 1_555 1_555
C26 H25 1_555 1_555
H26 C26 1_555 1_555
N3 C17 1_555 1_555
H27 N3 1_555 1_555
O3 C18 1_555 1_555
C27 O3 1_555 1_555
H28 C27 1_555 1_555
H29 C27 1_555 1_555
H30 C27 1_555 1_555
N4 C28 1_555 1_555
C28 H31 1_555 1_555
C29 C22 1_555 1_555
C30 C29 1_555 1_555
H32 C30 1_555 1_555
C31 C30 1_555 1_555
H33 C31 1_555 1_555
C32 N4 1_555 1_555
H34 C32 1_555 1_555
N5 C33 1_555 1_555
C33 H35 1_555 1_555
C34 C24 1_555 1_555
C35 C34 1_555 1_555
H36 C35 1_555 1_555
C36 C35 1_555 1_555
H37 C36 1_555 1_555
C37 N5 1_555 1_555
H38 C37 1_555 1_555
N6 C38 1_555 1_555
C38 H39 1_555 1_555
C39 C26 1_555 1_555
C40 C39 1_555 1_555
H40 C40 1_555 1_555
C41 C40 1_555 1_555
H41 C41 1_555 1_555
C42 N6 1_555 1_555
H42 C42 1_555 1_555
O4 Ag1 1_555 1_555
Sb1 F1 1_555 1_555
F2 Sb1 1_555 1_555
F3 Sb1 1_555 1_555
F4 Sb1 1_555 1_555
F5 Sb1 1_555 1_555
F6 Sb1 1_555 1_555
Ag1D N5 1_555 1_555
Ag1F N6 1_555 1_555
N5D Ag1 1_555 1_555
N6F Ag1 1_555 1_555
C5 C6 1_555 1_555
C12 C13 1_555 1_555
C19 C20 1_555 1_555
C20 C21 1_555 1_555
C22 N1 1_555 1_555
C24 N2 1_555 1_555
C26 N3 1_555 1_555
C28 C29 1_555 1_555
C31 C32 1_555 1_555
C33 C34 1_555 1_555
C36 C37 1_555 1_555
C38 C39 1_555 1_555
C41 C42 1_555 1_555

#END
