
#######################################################################
#
#                 Cambridge Crystallographic Data Centre
#                                CCDC 
#
#######################################################################
#
# If this CIF has been generated from an entry in the Cambridge 
# Structural Database, then it will include bibliographic, chemical, 
# crystal, experimental, refinement or atomic coordinate data resulting 
# from the CCDC's data processing and validation procedures.
#
#######################################################################

data_GEGWUK10
_symmetry_cell_setting           monoclinic
_symmetry_space_group_name_H-M   'P 21/c'
_symmetry_Int_Tables_number      14
_space_group_name_Hall           '-P 2ybc'
loop_
_symmetry_equiv_pos_site_id
_symmetry_equiv_pos_as_xyz
1 x,y,z
2 -x,1/2+y,1/2-z
3 -x,-y,-z
4 x,1/2-y,1/2+z
_cell_length_a                   11.833(4)
_cell_length_b                   13.070(2)
_cell_length_c                   14.435(3)
_cell_angle_alpha                90
_cell_angle_beta                 98.65(2)
_cell_angle_gamma                90
_cell_volume                     2207.08
loop_
_atom_site_label
_atom_site_type_symbol
_atom_site_fract_x
_atom_site_fract_y
_atom_site_fract_z
Hg1 Hg 0.0110(1) 0.5952(1) 0.8464(1)
Hg2 Hg 0.0000 0.0000 1.0000
Tb1 Tb 0.1714(1) 0.3059(1) 0.9201(1)
O1 O 0.2236(6) 0.4728(5) 0.9445(5)
O2 O 0.1985(6) 0.3105(6) 1.0791(5)
O3 O 0.1998(6) 0.1335(5) 0.9421(6)
N1 N 0.1816(7) 0.6233(6) 0.8708(6)
N2 N -0.1585(7) 0.5675(6) 0.8190(6)
N3 N 0.1707(7) 0.0076(6) 1.0415(6)
C1 C 0.2508(9) 0.5575(8) 0.9159(8)
C2 C 0.3707(10) 0.5990(10) 0.9304(10)
C3 C 0.3634(11) 0.6958(10) 0.8758(13)
C4 C 0.2381(10) 0.7197(8) 0.8485(11)
C5 C -0.2309(9) 0.6189(8) 0.8607(8)
C6 C -0.3477(10) 0.5848(10) 0.8326(9)
C7 C -0.3399(11) 0.5054(14) 0.7536(13)
C8 C -0.2147(10) 0.4900(9) 0.7559(9)
C9 C 0.2344(9) 0.0739(7) 1.0097(8)
C10 C 0.3552(10) 0.0707(9) 1.0619(10)
C11 C 0.3514(13) -0.0114(12) 1.1330(12)
C12 C 0.2340(11) -0.0519(9) 1.1199(9)
N4 N 0.3966(9) 0.2877(8) 0.8668(8)
O4 O 0.3830(7) 0.2955(6) 0.9513(5)
O5 O 0.3046(7) 0.2879(8) 0.8089(7)
O6 O 0.4877(9) 0.2767(11) 0.8402(9)
N5 N -0.0743(8) 0.3009(7) 0.9363(7)
O7 O -0.0159(7) 0.2202(5) 0.9445(6)
O8 O -0.0147(6) 0.3835(5) 0.9367(6)
O9 O -0.1768(7) 0.3043(7) 0.9260(7)
N6 N 0.0480(8) 0.3382(8) 0.7263(7)
O10 O 0.0515(8) 0.2559(6) 0.7719(6)
O11 O 0.0987(8) 0.4131(6) 0.7675(6)
O12 O -0.0055(8) 0.3441(7) 0.6469(6)
H1 H 0.3962 0.6121 0.9956
H2 H 0.4220 0.5518 0.9073
H3 H 0.3991 0.6874 0.8208
H4 H 0.4005 0.7501 0.9136
H5 H 0.2155 0.7758 0.8845
H6 H 0.2207 0.7355 0.7830
H7 H -0.3770 0.5536 0.8843
H8 H -0.3958 0.6411 0.8093
H9 H -0.3745 0.5316 0.6939
H10 H -0.3765 0.4425 0.7663
H11 H -0.1947 0.4985 0.6944
H12 H -0.1927 0.4229 0.7789
H13 H 0.4085 0.0537 1.0203
H14 H 0.3759 0.1351 1.0915
H15 H 0.4043 -0.0648 1.1241
H16 H 0.3705 0.0164 1.1950
H17 H 0.2003 -0.0425 1.1758
H18 H 0.2338 -0.1234 1.1045
C5B C 0.2309(9) 0.3811(8) 1.1393(8)
O2B O -0.1985(6) 0.6895(6) 0.9209(5)
N3B N -0.1707(7) -0.0076(6) 0.9585(6)
N2B N 0.1585(7) 0.4325(6) 1.1810(6)
C6B C 0.3477(10) 0.4152(10) 1.1674(9)
Tb1B Tb -0.1714(1) 0.6941(1) 1.0799(1)
Hg1B Hg -0.0110(1) 0.4048(1) 1.1536(1)
C8B C 0.2147(10) 0.5100(9) 1.2441(9)
C7B C 0.3399(11) 0.4946(14) 1.2464(13)
H7B H 0.3770 0.4464 1.1157
H8B H 0.3958 0.3589 1.1907
O1B O -0.2236(6) 0.5272(5) 1.0555(5)
O3B O -0.1998(6) 0.8665(5) 1.0579(6)
O4B O -0.3830(7) 0.7045(6) 1.0487(5)
O5B O -0.3046(7) 0.7121(8) 1.1911(7)
O7B O 0.0159(7) 0.7798(5) 1.0555(6)
O8B O 0.0147(6) 0.6165(5) 1.0633(6)
O10B O -0.0515(8) 0.7441(6) 1.2281(6)
O11B O -0.0987(8) 0.5869(6) 1.2325(6)
N1B N -0.1816(7) 0.3767(6) 1.1292(6)
H11B H 0.1947 0.5015 1.3056
H12B H 0.1927 0.5771 1.2211
H9B H 0.3745 0.4684 1.3061
H10B H 0.3765 0.5575 1.2337
C1B C -0.2508(9) 0.4425(8) 1.0841(8)
C9B C -0.2344(9) 0.9261(7) 0.9903(8)
N4B N -0.3966(9) 0.7123(8) 1.1332(8)
N5B N 0.0743(8) 0.6991(7) 1.0637(7)
N6B N -0.0480(8) 0.6618(8) 1.2737(7)
C4B C -0.2381(10) 0.2803(8) 1.1515(11)
C2B C -0.3707(10) 0.4010(10) 1.0696(10)
O6B O -0.4877(9) 0.7233(11) 1.1598(9)
O9B O 0.1768(7) 0.6957(7) 1.0740(7)
O12B O 0.0055(8) 0.6559(7) 1.3531(6)
C3B C -0.3634(11) 0.3042(10) 1.1242(13)
H5B H -0.2155 0.2242 1.1155
H6B H -0.2207 0.2645 1.2170
H1B H -0.3962 0.3879 1.0044
H2B H -0.4220 0.4482 1.0927
H3B H -0.3991 0.3126 1.1792
H4B H -0.4005 0.2499 1.0864
N3B_2 N -0.1707(7) 0.9924(6) 0.9585(6)
C10B C -0.3552(10) 0.9293(9) 0.9381(10)
Hg2_2 Hg 0.0000 1.0000 1.0000
C12B C -0.2340(11) 1.0519(9) 0.8801(9)
C11B C -0.3514(13) 1.0114(12) 0.8670(12)
H13B H -0.4085 0.9463 0.9797
H14B H -0.3759 0.8649 0.9085
H17B H -0.2003 1.0425 0.8242
H18B H -0.2338 1.1234 0.8955
H15B H -0.4043 1.0648 0.8759
H16B H -0.3705 0.9836 0.8050
loop_
_geom_bond_atom_site_label_1
_geom_bond_atom_site_label_2
_geom_bond_site_symmetry_1
_geom_bond_site_symmetry_2
Hg1 N1 1_555 1_555
Hg2 N3 1_555 1_555
Tb1 O1 1_555 1_555
O1 C1 1_555 1_555
O2 Tb1 1_555 1_555
O3 Tb1 1_555 1_555
N1 C1 1_555 1_555
N2 Hg1 1_555 1_555
N3 C9 1_555 1_555
C1 C2 1_555 1_555
C2 C3 1_555 1_555
C3 C4 1_555 1_555
C4 N1 1_555 1_555
C5 N2 1_555 1_555
C6 C5 1_555 1_555
C7 C6 1_555 1_555
C8 N2 1_555 1_555
C9 O3 1_555 1_555
C10 C9 1_555 1_555
C11 C10 1_555 1_555
C12 N3 1_555 1_555
N4 O4 1_555 1_555
O4 Tb1 1_555 1_555
O5 Tb1 1_555 1_555
O6 N4 1_555 1_555
N5 O7 1_555 1_555
O7 Tb1 1_555 1_555
O8 Tb1 1_555 1_555
O9 N5 1_555 1_555
N6 O10 1_555 1_555
O10 Tb1 1_555 1_555
O11 Tb1 1_555 1_555
O12 N6 1_555 1_555
H1 C2 1_555 1_555
H2 C2 1_555 1_555
H3 C3 1_555 1_555
H4 C3 1_555 1_555
H5 C4 1_555 1_555
H6 C4 1_555 1_555
H7 C6 1_555 1_555
H8 C6 1_555 1_555
H9 C7 1_555 1_555
H10 C7 1_555 1_555
H11 C8 1_555 1_555
H12 C8 1_555 1_555
H13 C10 1_555 1_555
H14 C10 1_555 1_555
H15 C11 1_555 1_555
H16 C11 1_555 1_555
H17 C12 1_555 1_555
H18 C12 1_555 1_555
C5B O2 1_555 1_555
O2B C5 1_555 1_555
N3B Hg2 1_555 1_555
N2B C5B 1_555 1_555
C6B C5B 1_555 1_555
Tb1B O2B 1_555 1_555
Hg1B N2B 1_555 1_555
C8B N2B 1_555 1_555
C7B C6B 1_555 1_555
H7B C6B 1_555 1_555
H8B C6B 1_555 1_555
O1B Tb1B 1_555 1_555
O3B Tb1B 1_555 1_555
O4B Tb1B 1_555 1_555
O5B Tb1B 1_555 1_555
O7B Tb1B 1_555 1_555
O8B Tb1B 1_555 1_555
O10B Tb1B 1_555 1_555
O11B Tb1B 1_555 1_555
N1B Hg1B 1_555 1_555
H11B C8B 1_555 1_555
H12B C8B 1_555 1_555
H9B C7B 1_555 1_555
H10B C7B 1_555 1_555
C1B O1B 1_555 1_555
C9B O3B 1_555 1_555
N4B O4B 1_555 1_555
N5B O7B 1_555 1_555
N6B O10B 1_555 1_555
C4B N1B 1_555 1_555
C2B C1B 1_555 1_555
O6B N4B 1_555 1_555
O9B N5B 1_555 1_555
O12B N6B 1_555 1_555
C3B C4B 1_555 1_555
H5B C4B 1_555 1_555
H6B C4B 1_555 1_555
H1B C2B 1_555 1_555
H2B C2B 1_555 1_555
H3B C3B 1_555 1_555
H4B C3B 1_555 1_555
N3B_2 C9B 1_555 1_555
C10B C9B 1_555 1_555
Hg2_2 N3B_2 1_555 1_555
C12B N3B_2 1_555 1_555
C11B C10B 1_555 1_555
H13B C10B 1_555 1_555
H14B C10B 1_555 1_555
H17B C12B 1_555 1_555
H18B C12B 1_555 1_555
H15B C11B 1_555 1_555
H16B C11B 1_555 1_555
C7 C8 1_555 1_555
C11 C12 1_555 1_555
N4 O5 1_555 1_555
N5 O8 1_555 1_555
N6 O11 1_555 1_555
C8B C7B 1_555 1_555
O5B N4B 1_555 1_555
O8B N5B 1_555 1_555
O11B N6B 1_555 1_555
N1B C1B 1_555 1_555
C2B C3B 1_555 1_555
C12B C11B 1_555 1_555

#END
