
#######################################################################
#
#                 Cambridge Crystallographic Data Centre
#                                CCDC 
#
#######################################################################
#
# If this CIF has been generated from an entry in the Cambridge 
# Structural Database, then it will include bibliographic, chemical, 
# crystal, experimental, refinement or atomic coordinate data resulting 
# from the CCDC's data processing and validation procedures.
#
#######################################################################

data_GEGWOE
_symmetry_cell_setting           monoclinic
_symmetry_space_group_name_H-M   'P 21/c'
_symmetry_Int_Tables_number      14
_space_group_name_Hall           '-P 2ybc'
loop_
_symmetry_equiv_pos_site_id
_symmetry_equiv_pos_as_xyz
1 x,y,z
2 -x,1/2+y,1/2-z
3 -x,-y,-z
4 x,1/2-y,1/2+z
_cell_length_a                   9.879(2)
_cell_length_b                   14.594(3)
_cell_length_c                   18.211(3)
_cell_angle_alpha                90
_cell_angle_beta                 93.58(2)
_cell_angle_gamma                90
_cell_volume                     2620.43
loop_
_atom_site_label
_atom_site_type_symbol
_atom_site_fract_x
_atom_site_fract_y
_atom_site_fract_z
Hg1 Hg -0.0600(1) 0.0589(1) 0.3747(1)
Hg2 Hg 0.0609(1) 0.4532(1) 0.3544(1)
Eu1 Eu 0.0194(1) 0.2426(1) 0.1902(1)
O1 O -0.1332(10) 0.3392(8) 0.2446(6)
O2 O 0.0728(9) 0.2394(8) 0.3179(5)
O3 O -0.1543(8) 0.1365(7) 0.2160(6)
O4 O -0.1544(10) -0.1255(7) 0.2932(6)
O5 O 0.1144(10) 0.0801(8) 0.2330(6)
O6 O 0.2619(11) 0.1762(8) 0.2048(7)
O7 O 0.3252(12) 0.0370(9) 0.2367(8)
O8 O 0.0358(11) 0.1220(9) 0.0880(6)
O9 O 0.1486(12) 0.2437(9) 0.0705(6)
O10 O 0.1606(14) 0.1267(11) -0.0035(7)
O11 O -0.1645(13) 0.2634(10) 0.0850(7)
O12 O -0.0464(14) 0.3821(10) 0.0882(10)
O13 O -0.1978(14) 0.3627(11) -0.0002(7)
N1 N -0.1211(11) 0.3897(9) 0.3613(7)
N2 N 0.1210(11) 0.1242(9) 0.4016(6)
N3 N -0.2430(10) 0.0203(8) 0.1444(7)
N4 N -0.2420(11) -0.0051(8) 0.3550(6)
N5 N 0.2340(12) 0.0969(10) 0.2260(7)
N6 N 0.1157(11) 0.1626(10) 0.0495(7)
N7 N -0.1378(13) 0.3388(11) 0.0574(9)
C1 C -0.1805(13) 0.3470(11) 0.3049(8)
C2 C -0.3091(16) 0.3063(14) 0.3268(9)
C3 C -0.3210(15) 0.3332(15) 0.4069(9)
C4 C -0.1961(22) 0.3890(17) 0.4289(11)
C5 C 0.1498(14) 0.1985(11) 0.3632(8)
C6 C 0.2954(16) 0.2262(14) 0.3854(9)
C7 C 0.3405(15) 0.1619(15) 0.4461(11)
C8 C 0.2303(15) 0.0923(13) 0.4500(9)
C9 C -0.2524(14) 0.0997(11) 0.1765(8)
C10 C -0.3892(14) 0.1426(13) 0.1629(10)
C11 C -0.4486(17) 0.0834(15) 0.1026(11)
C12 C -0.3681(15) -0.0022(13) 0.1042(10)
C13 C -0.2490(15) -0.0837(11) 0.3209(8)
C14 C -0.3936(14) -0.1195(13) 0.3186(11)
C15 C -0.4674(14) -0.0564(14) 0.3641(10)
C16 C -0.3727(15) 0.0278(12) 0.3776(9)
H1 H -0.3843 0.3303 0.2969
H2 H -0.3067 0.2409 0.3220
H3 H -0.3244 0.2794 0.4371
H4 H -0.4014 0.3691 0.4120
H5 H -0.1438 0.3605 0.4688
H6 H -0.2202 0.4501 0.4428
H7 H 0.2989 0.2884 0.4025
H8 H 0.3516 0.2197 0.3445
H9 H 0.3527 0.1943 0.4918
H10 H 0.4241 0.1327 0.4353
H11 H 0.2020 0.0876 0.4993
H12 H 0.2610 0.0335 0.4342
H13 H -0.3823 0.2052 0.1474
H14 H -0.4408 0.1397 0.2058
H15 H -0.4432 0.1135 0.0560
H16 H -0.5417 0.0700 0.1106
H17 H -0.3517 -0.0214 0.0552
H18 H -0.4146 -0.0500 0.1287
H19 H -0.3955 -0.1804 0.3384
H20 H -0.4328 -0.1198 0.2690
H21 H -0.5511 -0.0380 0.3388
H22 H -0.4859 -0.0848 0.4100
H23 H -0.3669 0.0449 0.4286
H24 H -0.4040 0.0791 0.3483
N3A N 0.2430(10) 0.5203(8) 0.3556(7)
O4A O 0.1544(10) 0.3745(7) 0.2068(6)
Eu1A Eu -0.0194(1) -0.2574(1) 0.3098(1)
Hg2A Hg -0.0609(1) -0.0468(1) 0.1456(1)
loop_
_geom_bond_atom_site_label_1
_geom_bond_atom_site_label_2
_geom_bond_site_symmetry_1
_geom_bond_site_symmetry_2
Hg1 N2 1_555 1_555
Hg2 N1 1_555 1_555
Eu1 O1 1_555 1_555
O1 C1 1_555 1_555
O2 Eu1 1_555 1_555
O3 Eu1 1_555 1_555
O4 C13 1_555 1_555
O5 Eu1 1_555 1_555
O6 Eu1 1_555 1_555
O7 N5 1_555 1_555
O8 Eu1 1_555 1_555
O9 Eu1 1_555 1_555
O10 N6 1_555 1_555
O11 Eu1 1_555 1_555
O12 N7 1_555 1_555
O13 N7 1_555 1_555
N1 C1 1_555 1_555
N2 C5 1_555 1_555
N3 C9 1_555 1_555
N4 Hg1 1_555 1_555
N5 O5 1_555 1_555
N6 O8 1_555 1_555
N7 O11 1_555 1_555
C1 C2 1_555 1_555
C2 C3 1_555 1_555
C3 C4 1_555 1_555
C4 N1 1_555 1_555
C5 O2 1_555 1_555
C6 C5 1_555 1_555
C7 C6 1_555 1_555
C8 N2 1_555 1_555
C9 O3 1_555 1_555
C10 C9 1_555 1_555
C11 C10 1_555 1_555
C12 N3 1_555 1_555
C13 N4 1_555 1_555
C14 C13 1_555 1_555
C15 C14 1_555 1_555
C16 N4 1_555 1_555
H1 C2 1_555 1_555
H2 C2 1_555 1_555
H3 C3 1_555 1_555
H4 C3 1_555 1_555
H5 C4 1_555 1_555
H6 C4 1_555 1_555
H7 C6 1_555 1_555
H8 C6 1_555 1_555
H9 C7 1_555 1_555
H10 C7 1_555 1_555
H11 C8 1_555 1_555
H12 C8 1_555 1_555
H13 C10 1_555 1_555
H14 C10 1_555 1_555
H15 C11 1_555 1_555
H16 C11 1_555 1_555
H17 C12 1_555 1_555
H18 C12 1_555 1_555
H19 C14 1_555 1_555
H20 C14 1_555 1_555
H21 C15 1_555 1_555
H22 C15 1_555 1_555
H23 C16 1_555 1_555
H24 C16 1_555 1_555
N3A Hg2 1_555 1_555
O4A Eu1 1_555 1_555
Eu1A O4 1_555 1_555
Hg2A N3 1_555 1_555
O6 N5 1_555 1_555
O9 N6 1_555 1_555
C7 C8 1_555 1_555
C11 C12 1_555 1_555
C15 C16 1_555 1_555

#END
