
#######################################################################
#
#                 Cambridge Crystallographic Data Centre
#                                CCDC 
#
#######################################################################
#
# If this CIF has been generated from an entry in the Cambridge 
# Structural Database, then it will include bibliographic, chemical, 
# crystal, experimental, refinement or atomic coordinate data resulting 
# from the CCDC's data processing and validation procedures.
#
#######################################################################

data_GEGWAS
_symmetry_cell_setting           monoclinic
_symmetry_space_group_name_H-M   'P 2/c'
_symmetry_Int_Tables_number      13
_space_group_name_Hall           '-P 2yc'
loop_
_symmetry_equiv_pos_site_id
_symmetry_equiv_pos_as_xyz
1 x,y,z
2 -x,y,1/2-z
3 -x,-y,-z
4 x,-y,1/2+z
_cell_length_a                   16.1890(15)
_cell_length_b                   9.4514(10)
_cell_length_c                   23.983(2)
_cell_angle_alpha                90
_cell_angle_beta                 108.098(2)
_cell_angle_gamma                90
_cell_volume                     3488.06
loop_
_atom_site_label
_atom_site_type_symbol
_atom_site_fract_x
_atom_site_fract_y
_atom_site_fract_z
Eu1 Eu 0.297445(14) 0.50442(2) 0.097250(10)
Ca1 Ca 0.5000 0.00269(12) 0.2500
Ca2 Ca 0.5000 -1.0000 0.0000
Ca3 Ca 0.0000 0.0000 0.0000
N1 N 0.2625(2) 0.4885(3) 0.19326(17)
N2 N 0.4540(2) -0.4909(3) 0.09775(16)
N3 N 0.1718(2) 0.5086(3) 0.00081(17)
O1 O 0.1930(2) 0.6792(3) 0.11210(14)
O2 O 0.1152(2) 0.7728(4) 0.16549(16)
O3 O 0.3730(2) 0.3213(3) 0.16585(14)
O4 O 0.4005(2) 0.2003(3) 0.24976(14)
O5 O 0.3377(2) -0.6686(3) 0.03439(14)
O6 O 0.4369(2) -0.7867(3) 0.00620(14)
O7 O 0.3910(2) -0.3157(3) 0.15770(14)
O8 O 0.5159(2) -0.1963(3) 0.19011(14)
O9 O 0.3023(2) 0.6857(3) 0.02360(14)
O10 O 0.2533(2) 0.7839(4) -0.06549(16)
O11 O 0.1820(2) 0.3257(3) 0.08458(14)
O12 O 0.0627(2) 0.2136(3) 0.03263(16)
O13 O 0.3486(2) -0.0818(3) 0.21124(15)
H1 H 0.3440 -0.1453 0.1854
H2 H 0.3143 -0.0141 0.1963
O14 O 0.4697(2) 0.1010(3) 0.14851(13)
H3 H 0.4306 0.1643 0.1421
H4 H 0.4525 0.0358 0.1231
O15 O 0.6135(2) -0.9363(4) 0.08652(16)
H5 H 0.6572 -0.9036 0.0783
H6 H 0.6293 -1.0062 0.1097
O16 O 0.4150(2) -1.0907(3) 0.05360(15)
H7 H 0.4468 -1.1202 0.0868
H8 H 0.3838 -1.1586 0.0353
O17 O 0.0105(3) 0.0526(5) -0.0933(2)
H9 H -0.0380 0.0759 -0.1179
H10 H 0.0347 -0.0124 -0.1072
O18 O 0.1389(2) -0.0965(4) 0.03458(18)
H11 H 0.1479 -0.1406 0.0668
H12 H 0.1790 -0.0367 0.0369
C1 C 0.1674(3) 0.6856(5) 0.1576(2)
C2 C 0.2019(3) 0.5720(5) 0.2033(2)
C3 C 0.1717(4) 0.5532(6) 0.2500(2)
H25 H 0.1301 0.6136 0.2562
C4 C 0.2048(4) 0.4422(7) 0.2877(3)
H26 H 0.1845 0.4256 0.3194
C5 C 0.2674(4) 0.3564(5) 0.2783(2)
H27 H 0.2905 0.2818 0.3036
C6 C 0.2957(3) 0.3827(5) 0.2307(2)
C7 C 0.3626(3) 0.2924(4) 0.2153(2)
C8 C 0.4143(3) -0.6892(4) 0.03243(19)
C9 C 0.4823(3) -0.5845(4) 0.06542(19)
C10 C 0.5655(3) -0.5816(5) 0.0620(2)
H28 H 0.5836 -0.6477 0.0395
C11 C 0.6211(3) -0.4788(5) 0.0926(3)
H29 H 0.6774 -0.4733 0.0905
C12 C 0.5934(3) -0.3836(5) 0.1266(2)
H30 H 0.6308 -0.3143 0.1479
C13 C 0.5092(3) -0.3926(4) 0.1286(2)
C14 C 0.4704(3) -0.2936(4) 0.16229(19)
C15 C 0.2467(3) 0.7008(5) -0.0266(2)
C16 C 0.1689(3) 0.6075(5) -0.0402(2)
C17 C 0.0985(3) 0.6184(5) -0.0903(2)
H31 H 0.0975 0.6870 -0.1183
C18 C 0.0294(4) 0.5256(6) -0.0985(3)
H32 H -0.0196 0.5333 -0.1312
C19 C 0.0346(3) 0.4215(5) -0.0571(2)
H33 H -0.0099 0.3559 -0.0622
C20 C 0.1067(3) 0.4168(4) -0.0082(2)
C21 C 0.1173(3) 0.3103(4) 0.0399(2)
Eu1A Eu 0.702555(14) 0.50442(2) 0.402750(10)
Eu1_2 Eu 0.297445(14) -0.49558(2) 0.097250(10)
Eu1A_2 Eu 0.702555(14) -0.49558(2) 0.402750(10)
Ca2A Ca 0.5000 -1.0000 0.5000
Ca3A Ca 1.0000 0.0000 0.5000
N1A N 0.7375(2) 0.4885(3) 0.30674(17)
N2A N 0.5460(2) -0.4909(3) 0.40225(16)
N2_2 N 0.4540(2) 0.5091(3) 0.09775(16)
N2A_2 N 0.5460(2) 0.5091(3) 0.40225(16)
N3A N 0.8282(2) 0.5086(3) 0.49919(17)
O1A O 0.8070(2) 0.6792(3) 0.38790(14)
O2A O 0.8848(2) 0.7728(4) 0.33451(16)
O3A O 0.6270(2) 0.3213(3) 0.33415(14)
O4A O 0.5995(2) 0.2003(3) 0.25024(14)
O5A O 0.6623(2) -0.6686(3) 0.46561(14)
O5_2 O 0.3377(2) 0.3314(3) 0.03439(14)
O5A_2 O 0.6623(2) 0.3314(3) 0.46561(14)
O6A O 0.5631(2) -0.7867(3) 0.49380(14)
O6B O 0.5631(2) -1.2133(3) -0.00620(14)
O7A O 0.6090(2) -0.3157(3) 0.34230(14)
O7_2 O 0.3910(2) 0.6843(3) 0.15770(14)
O7A_2 O 0.6090(2) 0.6843(3) 0.34230(14)
O8A O 0.4841(2) -0.1963(3) 0.30989(14)
O9A O 0.6977(2) 0.6857(3) 0.47640(14)
O10A O 0.7467(2) 0.7839(4) 0.56549(16)
O11A O 0.8180(2) 0.3257(3) 0.41542(14)
O12A O 0.9373(2) 0.2136(3) 0.46737(16)
O12B O -0.0627(2) -0.2136(3) -0.03263(16)
O13A O 0.6514(2) -0.0818(3) 0.28876(15)
H1A H 0.6560 -0.1453 0.3146
H2A H 0.6857 -0.0141 0.3037
O14A O 0.5303(2) 0.1010(3) 0.35149(13)
H3A H 0.5694 0.1643 0.3579
H4A H 0.5475 0.0358 0.3769
O15B O 0.3865(2) -1.0637(4) -0.08652(16)
H5B H 0.3428 -1.0964 -0.0783
H6B H 0.3707 -0.9938 -0.1097
O16B O 0.5850(2) -0.9093(3) -0.05360(15)
H7B H 0.5532 -0.8798 -0.0868
H8B H 0.6162 -0.8414 -0.0353
O17B O -0.0105(3) -0.0526(5) 0.0933(2)
H9B H 0.0380 -0.0759 0.1179
H10B H -0.0347 0.0124 0.1072
O18B O -0.1389(2) 0.0965(4) -0.03458(18)
H11B H -0.1479 0.1406 -0.0668
H12B H -0.1790 0.0367 -0.0369
C1A C 0.8326(3) 0.6856(5) 0.3424(2)
C2A C 0.7981(3) 0.5720(5) 0.2967(2)
C3A C 0.8283(4) 0.5532(6) 0.2500(2)
H25A H 0.8699 0.6136 0.2438
C4A C 0.7952(4) 0.4422(7) 0.2123(3)
H26A H 0.8155 0.4256 0.1806
C5A C 0.7326(4) 0.3564(5) 0.2217(2)
H27A H 0.7095 0.2818 0.1964
C6A C 0.7043(3) 0.3827(5) 0.2693(2)
C7A C 0.6374(3) 0.2924(4) 0.2847(2)
C8A C 0.5857(3) -0.6892(4) 0.46757(19)
C9A C 0.5177(3) -0.5845(4) 0.43458(19)
C10A C 0.4345(3) -0.5816(5) 0.4380(2)
H28A H 0.4164 -0.6477 0.4605
C11A C 0.3789(3) -0.4788(5) 0.4074(3)
H29A H 0.3226 -0.4733 0.4095
C12A C 0.4066(3) -0.3836(5) 0.3734(2)
H30A H 0.3692 -0.3143 0.3521
C13A C 0.4908(3) -0.3926(4) 0.3714(2)
C14A C 0.5296(3) -0.2936(4) 0.33771(19)
C15A C 0.7533(3) 0.7008(5) 0.5266(2)
C16A C 0.8311(3) 0.6075(5) 0.5402(2)
C17A C 0.9015(3) 0.6184(5) 0.5903(2)
H31A H 0.9025 0.6870 0.6183
C18A C 0.9706(4) 0.5256(6) 0.5985(3)
H32A H 1.0196 0.5333 0.6312
C19A C 0.9654(3) 0.4215(5) 0.5571(2)
H33A H 1.0099 0.3559 0.5622
C20A C 0.8933(3) 0.4168(4) 0.5082(2)
C21A C 0.8827(3) 0.3103(4) 0.4601(2)
O19 O 0.2006(3) 0.0829(5) 0.1543(2)
H13 H 0.1893 0.1622 0.1369
H14 H 0.1752 0.0789 0.1804
O20 O 0.2954(3) 0.9189(5) 0.3154(2)
H15 H 0.3187 0.9136 0.2882
H16 H 0.2435 0.9482 0.3004
O21 O 0.2381(3) 0.0865(5) 0.9899(2)
H17 H 0.2790 0.1467 1.0009
H18 H 0.2568 0.0139 0.9767
O22 O 0.1283(10) 0.0234(13) 0.2473(6)
H19 H 0.1231 -0.0571 0.2308
H20 H 0.1248 0.0130 0.2817
O23 O 0.1202(8) 0.9458(12) 0.8491(5)
H21 H 0.1573 0.8930 0.8729
H22 H 0.1374 1.0310 0.8554
O24 O 0.1912(8) 0.7446(14) 0.3791(6)
H23 H 0.2178 0.7879 0.3587
H24 H 0.2016 0.7871 0.4118
loop_
_geom_bond_atom_site_label_1
_geom_bond_atom_site_label_2
_geom_bond_site_symmetry_1
_geom_bond_site_symmetry_2
Eu1 N1 1_555 1_555
Ca1 O4 1_555 1_555
Ca2 O6 1_555 1_555
Ca3 O12 1_555 1_555
N1 C2 1_555 1_555
N2 C9 1_555 1_555
N3 Eu1 1_555 1_555
O1 Eu1 1_555 1_555
O2 C1 1_555 1_555
O3 Eu1 1_555 1_555
O4 C7 1_555 1_555
O5 C8 1_555 1_555
O6 C8 1_555 1_555
O7 C14 1_555 1_555
O8 Ca1 1_555 1_555
O9 Eu1 1_555 1_555
O10 C15 1_555 1_555
O11 Eu1 1_555 1_555
O12 C21 1_555 1_555
O13 Ca1 1_555 1_555
H1 O13 1_555 1_555
H2 O13 1_555 1_555
O14 Ca1 1_555 1_555
H3 O14 1_555 1_555
H4 O14 1_555 1_555
O15 Ca2 1_555 1_555
H5 O15 1_555 1_555
H6 O15 1_555 1_555
O16 Ca2 1_555 1_555
H7 O16 1_555 1_555
H8 O16 1_555 1_555
O17 Ca3 1_555 1_555
H9 O17 1_555 1_555
H10 O17 1_555 1_555
O18 Ca3 1_555 1_555
H11 O18 1_555 1_555
H12 O18 1_555 1_555
O19 H13 1_555 1_555
H14 O19 1_555 1_555
O20 H15 1_555 1_555
H16 O20 1_555 1_555
O21 H17 1_555 1_555
H18 O21 1_555 1_555
O22 H19 1_555 1_555
H20 O22 1_555 1_555
O23 H21 1_555 1_555
H22 O23 1_555 1_555
O24 H23 1_555 1_555
H24 O24 1_555 1_555
C1 O1 1_555 1_555
C2 C1 1_555 1_555
C3 C2 1_555 1_555
H25 C3 1_555 1_555
C4 C3 1_555 1_555
H26 C4 1_555 1_555
C5 C4 1_555 1_555
H27 C5 1_555 1_555
C6 N1 1_555 1_555
C7 O3 1_555 1_555
C8 C9 1_555 1_555
C9 C10 1_555 1_555
C10 H28 1_555 1_555
C11 C10 1_555 1_555
H29 C11 1_555 1_555
C12 C11 1_555 1_555
H30 C12 1_555 1_555
C13 N2 1_555 1_555
C14 O8 1_555 1_555
C15 O9 1_555 1_555
C16 N3 1_555 1_555
C17 C16 1_555 1_555
H31 C17 1_555 1_555
C18 C17 1_555 1_555
H32 C18 1_555 1_555
C19 C18 1_555 1_555
H33 C19 1_555 1_555
C20 N3 1_555 1_555
C21 O11 1_555 1_555
Eu1A N1A 1_555 1_555
Eu1_2 N2 1_555 1_555
Eu1A_2 N2A 1_555 1_555
Ca2A O6A 1_555 1_555
Ca3A O12A 1_555 1_555
N1A C2A 1_555 1_555
N2A C9A 1_555 1_555
N2_2 Eu1 1_555 1_555
N2A_2 Eu1A 1_555 1_555
N3A Eu1A 1_555 1_555
O1A Eu1A 1_555 1_555
O2A C1A 1_555 1_555
O3A Eu1A 1_555 1_555
O4A Ca1 1_555 1_555
O5A Eu1A_2 1_555 1_555
O5_2 Eu1 1_555 1_555
O5A_2 Eu1A 1_555 1_555
O6A C8A 1_555 1_555
O6B Ca2 1_555 1_555
O7A Eu1A_2 1_555 1_555
O7_2 Eu1 1_555 1_555
O7A_2 Eu1A 1_555 1_555
O8A Ca1 1_555 1_555
O9A Eu1A 1_555 1_555
O10A C15A 1_555 1_555
O11A Eu1A 1_555 1_555
O12A C21A 1_555 1_555
O12B Ca3 1_555 1_555
O13A Ca1 1_555 1_555
H1A O13A 1_555 1_555
H2A O13A 1_555 1_555
O14A Ca1 1_555 1_555
H3A O14A 1_555 1_555
H4A O14A 1_555 1_555
O15B Ca2 1_555 1_555
H5B O15B 1_555 1_555
H6B O15B 1_555 1_555
O16B Ca2 1_555 1_555
H7B O16B 1_555 1_555
H8B O16B 1_555 1_555
O17B Ca3 1_555 1_555
H9B O17B 1_555 1_555
H10B O17B 1_555 1_555
O18B Ca3 1_555 1_555
H11B O18B 1_555 1_555
H12B O18B 1_555 1_555
C1A O1A 1_555 1_555
C2A C1A 1_555 1_555
C3A C2A 1_555 1_555
H25A C3A 1_555 1_555
C4A C3A 1_555 1_555
H26A C4A 1_555 1_555
C5A C4A 1_555 1_555
H27A C5A 1_555 1_555
C6A N1A 1_555 1_555
C7A O3A 1_555 1_555
C8A O5A 1_555 1_555
C9A C8A 1_555 1_555
C10A C9A 1_555 1_555
H28A C10A 1_555 1_555
C11A C10A 1_555 1_555
H29A C11A 1_555 1_555
C12A C11A 1_555 1_555
H30A C12A 1_555 1_555
C13A N2A 1_555 1_555
C14A O7A 1_555 1_555
C15A O9A 1_555 1_555
C16A N3A 1_555 1_555
C17A C16A 1_555 1_555
H31A C17A 1_555 1_555
C18A C17A 1_555 1_555
H32A C18A 1_555 1_555
C19A C18A 1_555 1_555
H33A C19A 1_555 1_555
C20A N3A 1_555 1_555
C21A O11A 1_555 1_555
O5 Eu1_2 1_555 1_555
O7 Eu1_2 1_555 1_555
C5 C6 1_555 1_555
C6 C7 1_555 1_555
C12 C13 1_555 1_555
C13 C14 1_555 1_555
C15 C16 1_555 1_555
C19 C20 1_555 1_555
C20 C21 1_555 1_555
O4A C7A 1_555 1_555
O8A C14A 1_555 1_555
C5A C6A 1_555 1_555
C6A C7A 1_555 1_555
C12A C13A 1_555 1_555
C13A C14A 1_555 1_555
C15A C16A 1_555 1_555
C19A C20A 1_555 1_555
C20A C21A 1_555 1_555

#END
