
#######################################################################
#
#                 Cambridge Crystallographic Data Centre
#                                CCDC 
#
#######################################################################
#
# If this CIF has been generated from an entry in the Cambridge 
# Structural Database, then it will include bibliographic, chemical, 
# crystal, experimental, refinement or atomic coordinate data resulting 
# from the CCDC's data processing and validation procedures.
#
#######################################################################

data_GEHQUG
_symmetry_cell_setting           triclinic
_symmetry_space_group_name_H-M   'P -1'
_symmetry_Int_Tables_number      2
_space_group_name_Hall           '-P 1'
loop_
_symmetry_equiv_pos_site_id
_symmetry_equiv_pos_as_xyz
1 x,y,z
2 -x,-y,-z
_cell_length_a                   7.4592(17)
_cell_length_b                   10.251(2)
_cell_length_c                   11.624(3)
_cell_angle_alpha                78.603(5)
_cell_angle_beta                 85.529(7)
_cell_angle_gamma                83.151(8)
_cell_volume                     863.725
loop_
_atom_site_label
_atom_site_type_symbol
_atom_site_fract_x
_atom_site_fract_y
_atom_site_fract_z
Mo1 Mo -0.62650(2) 0.004640(17) -0.134910(16)
Mo2 Mo -1.05442(2) 0.048910(17) -0.138260(15)
Cu1 Cu -0.42867(4) 0.29045(3) -0.26368(2)
O1 O -0.85138(18) -0.04772(14) -0.02445(13)
O2 O -0.83971(19) 0.04949(16) -0.23338(13)
O3 O -0.5000 0.0000 0.0000
O4 O -0.7695(2) 0.19830(14) -0.08352(15)
O5 O -0.4991(2) 0.11217(15) -0.23704(14)
O6 O -0.5617(2) -0.14903(16) -0.16476(16)
O7 O -0.1629(2) 0.20567(15) -0.19410(14)
O8 O -1.1620(2) -0.06607(16) -0.18360(15)
O9 O -0.5796(2) 0.35610(15) -0.13658(15)
N1 N -0.3227(3) 0.25965(19) -0.42334(17)
N2 N -0.3645(2) 0.47719(19) -0.33041(18)
C1 C -0.2946(4) 0.1466(3) -0.4642(2)
H1 H -0.3306 0.0687 -0.4172
C2 C -0.2125(4) 0.1408(3) -0.5758(3)
H2 H -0.1964 0.0601 -0.6023
C3 C -0.1565(4) 0.2528(3) -0.6453(2)
H3 H -0.1023 0.2493 -0.7196
C4 C -0.1810(3) 0.3739(3) -0.6042(2)
C5 C -0.1220(4) 0.4981(3) -0.6680(2)
H4 H -0.0634 0.5007 -0.7419
C6 C -0.1504(4) 0.6112(3) -0.6223(2)
H5 H -0.1149 0.6908 -0.6666
C7 C -0.2340(3) 0.6100(2) -0.5076(2)
C8 C -0.2562(4) 0.7207(3) -0.4514(3)
H6 H -0.2235 0.8031 -0.4913
C9 C -0.3261(4) 0.7070(3) -0.3383(3)
H7 H -0.3373 0.7792 -0.2998
C10 C -0.3812(4) 0.5833(3) -0.2799(3)
H8 H -0.4310 0.5759 -0.2033
C11 C -0.2896(3) 0.4901(2) -0.4422(2)
C12 C -0.2648(3) 0.3717(2) -0.4924(2)
C13 C -0.7253(3) 0.3125(2) -0.08822(19)
C14 C -0.8641(3) 0.4095(2) -0.03754(19)
C15 C -0.8303(3) 0.5398(2) -0.0374(2)
H9 H -0.7165 0.5668 -0.0619
C16 C -1.0337(3) 0.3704(2) 0.0006(2)
H10 H -1.0567 0.2830 0.0015
Mo1A Mo -0.37350(2) -0.004640(17) 0.134910(16)
Mo1A_2 Mo -1.37350(2) 0.995360(17) 0.134910(16)
Mo1A_3 Mo -1.37350(2) -0.004640(17) 0.134910(16)
Mo2A Mo -0.94558(2) -0.048910(17) 0.138260(15)
Mo2_2 Mo -0.05442(2) 0.048910(17) -0.138260(15)
Mo2A_2 Mo 0.05442(2) -0.048910(17) 0.138260(15)
Cu1A Cu -1.57133(4) 0.70955(3) 0.26368(2)
Cu1A_2 Cu -0.57133(4) -0.29045(3) 0.26368(2)
O1A O -1.14862(18) 0.04772(14) 0.02445(13)
O1A_2 O -0.14862(18) 0.04772(14) 0.02445(13)
O2A O -0.16029(19) -0.04949(16) 0.23338(13)
O2A_2 O -1.16029(19) -0.04949(16) 0.23338(13)
O4A O -1.2305(2) 0.80170(14) 0.08352(15)
O4A_2 O -0.2305(2) -0.19830(14) 0.08352(15)
O5A O -0.5009(2) -0.11217(15) 0.23704(14)
O5A_2 O -1.5009(2) 0.88783(15) 0.23704(14)
O6A O -0.4383(2) 0.14903(16) 0.16476(16)
O7_2 O -1.1629(2) 0.20567(15) -0.19410(14)
O7A O -0.8371(2) -0.20567(15) 0.19410(14)
O7A_2 O -1.8371(2) 0.79433(15) 0.19410(14)
O8A O -0.8380(2) 0.06607(16) 0.18360(15)
O9A O -1.4204(2) 0.64390(15) 0.13658(15)
N1A N -1.6773(3) 0.74035(19) 0.42334(17)
N2A N -1.6355(2) 0.52281(19) 0.33041(18)
C1A C -1.7054(4) 0.8534(3) 0.4642(2)
H1A H -1.6694 0.9313 0.4172
C2A C -1.7875(4) 0.8592(3) 0.5758(3)
H2A H -1.8036 0.9399 0.6023
C3A C -1.8435(4) 0.7472(3) 0.6453(2)
H3A H -1.8977 0.7507 0.7196
C4A C -1.8190(3) 0.6261(3) 0.6042(2)
C5A C -1.8780(4) 0.5019(3) 0.6680(2)
H4A H -1.9366 0.4993 0.7419
C6A C -1.8496(4) 0.3888(3) 0.6223(2)
H5A H -1.8851 0.3092 0.6666
C7A C -1.7660(3) 0.3900(2) 0.5076(2)
C8A C -1.7438(4) 0.2793(3) 0.4514(3)
H6A H -1.7765 0.1969 0.4913
C9A C -1.6739(4) 0.2930(3) 0.3383(3)
H7A H -1.6627 0.2208 0.2998
C10A C -1.6188(4) 0.4167(3) 0.2799(3)
H8A H -1.5690 0.4241 0.2033
C11A C -1.7104(3) 0.5099(2) 0.4422(2)
C12A C -1.7352(3) 0.6283(2) 0.4924(2)
C13A C -1.2747(3) 0.6875(2) 0.08822(19)
C14A C -1.1359(3) 0.5905(2) 0.03754(19)
C15A C -1.1697(3) 0.4602(2) 0.0374(2)
H9A H -1.2835 0.4332 0.0619
C16A C -0.9663(3) 0.6296(2) -0.0006(2)
H10A H -0.9433 0.7170 -0.0015
loop_
_geom_bond_atom_site_label_1
_geom_bond_atom_site_label_2
_geom_bond_site_symmetry_1
_geom_bond_site_symmetry_2
Mo1 O1 1_555 1_555
Mo2 O1 1_555 1_555
Cu1 O5 1_555 1_555
O1 Mo2A 1_555 1_555
O2 Mo1 1_555 1_555
O3 Mo1 1_555 1_555
O4 Mo1 1_555 1_555
O5 Mo1 1_555 1_555
O6 Mo1 1_555 1_555
O7 Cu1 1_555 1_555
O8 Mo2 1_555 1_555
O9 Cu1 1_555 1_555
N1 Cu1 1_555 1_555
N2 Cu1 1_555 1_555
C1 N1 1_555 1_555
H1 C1 1_555 1_555
C2 C1 1_555 1_555
H2 C2 1_555 1_555
C3 C2 1_555 1_555
H3 C3 1_555 1_555
C4 C3 1_555 1_555
C5 C4 1_555 1_555
H4 C5 1_555 1_555
C6 C5 1_555 1_555
H5 C6 1_555 1_555
C7 C6 1_555 1_555
C8 C7 1_555 1_555
H6 C8 1_555 1_555
C9 C8 1_555 1_555
H7 C9 1_555 1_555
C10 N2 1_555 1_555
H8 C10 1_555 1_555
C11 N2 1_555 1_555
C12 N1 1_555 1_555
C13 O4 1_555 1_555
C14 C13 1_555 1_555
C15 C14 1_555 1_555
H9 C15 1_555 1_555
C16 C14 1_555 1_555
H10 C16 1_555 1_555
Mo1A O3 1_555 1_555
Mo1A_2 O4A 1_555 1_555
Mo1A_3 O1A 1_555 1_555
Mo2A O1A 1_555 1_555
Mo2_2 O7 1_555 1_555
Mo2A_2 O1A_2 1_555 1_555
Cu1A O5A_2 1_555 1_555
Cu1A_2 O5A 1_555 1_555
O1A Mo2 1_555 1_555
O1A_2 Mo1A 1_555 1_555
O2A Mo1A 1_555 1_555
O2A_2 Mo1A_3 1_555 1_555
O4A C13A 1_555 1_555
O4A_2 Mo1A 1_555 1_555
O5A Mo1A 1_555 1_555
O5A_2 Mo1A_2 1_555 1_555
O6A Mo1A 1_555 1_555
O7_2 Mo2 1_555 1_555
O7A Mo2A 1_555 1_555
O7A_2 Cu1A 1_555 1_555
O8A Mo2A 1_555 1_555
O9A Cu1A 1_555 1_555
N1A Cu1A 1_555 1_555
N2A Cu1A 1_555 1_555
C1A N1A 1_555 1_555
H1A C1A 1_555 1_555
C2A C1A 1_555 1_555
H2A C2A 1_555 1_555
C3A C2A 1_555 1_555
H3A C3A 1_555 1_555
C4A C3A 1_555 1_555
C5A C4A 1_555 1_555
H4A C5A 1_555 1_555
C6A C5A 1_555 1_555
H5A C6A 1_555 1_555
C7A C6A 1_555 1_555
C8A C7A 1_555 1_555
H6A C8A 1_555 1_555
C9A C8A 1_555 1_555
H7A C9A 1_555 1_555
C10A N2A 1_555 1_555
H8A C10A 1_555 1_555
C11A N2A 1_555 1_555
C12A N1A 1_555 1_555
C13A O9A 1_555 1_555
C14A C13A 1_555 1_555
C15A C16 1_555 1_555
H9A C15A 1_555 1_555
C16A C15 1_555 1_555
H10A C16A 1_555 1_555
Mo2 O2 1_555 1_555
O9 C13 1_555 1_555
C4 C12 1_555 1_555
C7 C11 1_555 1_555
C9 C10 1_555 1_555
C11 C12 1_555 1_555
Mo2A O2A_2 1_555 1_555
Mo2_2 O1A_2 1_555 1_555
Mo2A_2 O2A 1_555 1_555
Cu1A_2 O7A 1_555 1_555
C4A C12A 1_555 1_555
C7A C11A 1_555 1_555
C9A C10A 1_555 1_555
C11A C12A 1_555 1_555
C14A C15A 1_555 1_555
C14A C16A 1_555 1_555

#END
