
#######################################################################
#
#                 Cambridge Crystallographic Data Centre
#                                CCDC 
#
#######################################################################
#
# If this CIF has been generated from an entry in the Cambridge 
# Structural Database, then it will include bibliographic, chemical, 
# crystal, experimental, refinement or atomic coordinate data resulting 
# from the CCDC's data processing and validation procedures.
#
#######################################################################

data_GEHQIU
_symmetry_cell_setting           monoclinic
_symmetry_space_group_name_H-M   'C 2/c'
_symmetry_Int_Tables_number      15
_space_group_name_Hall           '-C 2yn'
loop_
_symmetry_equiv_pos_site_id
_symmetry_equiv_pos_as_xyz
1 x,y,z
2 1/2+x,1/2+y,z
3 -x,y,1/2-z
4 1/2-x,1/2+y,1/2-z
5 -x,-y,-z
6 1/2-x,1/2-y,-z
7 x,-y,1/2+z
8 1/2+x,1/2-y,1/2+z
_cell_length_a                   10.5886(15)
_cell_length_b                   14.0238(19)
_cell_length_c                   17.135(2)
_cell_angle_alpha                90
_cell_angle_beta                 106.838(2)
_cell_angle_gamma                90
_cell_volume                     2435.33
loop_
_atom_site_label
_atom_site_type_symbol
_atom_site_fract_x
_atom_site_fract_y
_atom_site_fract_z
Zn1 Zn 0.00251(5) -0.74253(4) -0.14543(3)
O1 O 0.0732(3) -0.6145(2) -0.1373(2)
O2 O -0.1140(4) -0.5940(3) -0.1111(3)
O3 O -0.3333(4) -0.2878(3) -0.2865(2)
O4 O -0.1546(3) 0.1850(3) -0.3383(2)
N1 N -0.5017(4) -0.3112(3) -0.4593(2)
C1 C -0.0110(5) -0.5617(3) -0.1180(3)
C2 C 0.0286(5) -0.4585(3) -0.0999(3)
H1 H 0.0800 -0.4384 -0.1355
H2 H 0.0847 -0.4537 -0.0442
C3 C -0.0879(5) -0.3909(4) -0.1110(3)
H3 H -0.1467 -0.4161 -0.0818
H4 H -0.0557 -0.3296 -0.0872
C4 C -0.1641(5) -0.3769(4) -0.1994(3)
H5 H -0.1069 -0.3451 -0.2262
H6 H -0.1844 -0.4394 -0.2242
C5 C -0.2906(5) -0.3214(3) -0.2170(3)
C6 C -0.3887(5) -0.3230(4) -0.4786(3)
H7 H -0.3113 -0.2982 -0.4438
C7 C -0.3826(5) -0.3702(4) -0.5477(3)
H8 H -0.3020 -0.3767 -0.5587
C8 C -0.4953(5) -0.4080(3) -0.6009(3)
C9 C -0.6119(5) -0.3943(4) -0.5816(3)
H9 H -0.6909 -0.4169 -0.6163
C10 C -0.6108(5) -0.3472(4) -0.5112(3)
H10 H -0.6903 -0.3400 -0.4990
C11 C -0.4913(6) -0.4619(4) -0.6760(3)
H11 H -0.5639 -0.5070 -0.6898
H12 H -0.4099 -0.4982 -0.6636
C12 C -0.5000 -0.3997(5) -0.7500
H13 H -0.4227 -0.3591 -0.7394
Zn1C Zn -0.50251(5) -0.24253(4) -0.35457(3)
Zn1_2 Zn 0.00251(5) 0.25747(4) -0.14543(3)
Zn1B Zn -0.00251(5) 0.25747(4) -0.35457(3)
Zn1A Zn -0.49749(5) -0.24253(4) -0.14543(3)
Zn1A_2 Zn -0.49749(5) -0.24253(4) -1.14543(3)
O1C O -0.5732(3) -0.1145(2) -0.3627(2)
O2C O -0.3860(4) -0.0940(3) -0.3889(3)
O3C O -0.1667(4) -0.7878(3) -0.2135(2)
O3C_2 O -0.1667(4) 0.2122(3) -0.2135(2)
O4B O 0.1546(3) -0.8150(3) -0.1617(2)
O4A O -0.6546(3) -0.3150(3) -0.3383(2)
O4C O -0.3454(3) -0.3150(3) -0.1617(2)
N1C N 0.0017(4) -0.8112(3) -0.0407(2)
N1B N -0.4983(4) -0.3112(3) -1.0407(2)
C1C C -0.4890(5) -0.0617(3) -0.3820(3)
C2C C -0.5286(5) 0.0415(3) -0.4001(3)
H1C H -0.5800 0.0616 -0.3645
H2C H -0.5847 0.0463 -0.4558
C3C C -0.4121(5) 0.1091(4) -0.3890(3)
H3C H -0.3533 0.0839 -0.4182
H4C H -0.4443 0.1704 -0.4128
C4C C -0.3359(5) 0.1231(4) -0.3006(3)
H5C H -0.3931 0.1549 -0.2738
H6C H -0.3156 0.0606 -0.2758
C5C C -0.2094(5) 0.1786(3) -0.2830(3)
C6B C -0.6113(5) -0.3230(4) -1.0214(3)
H7B H -0.6887 -0.2982 -1.0562
C7B C -0.6174(5) -0.3702(4) -0.9523(3)
H8B H -0.6980 -0.3767 -0.9413
C8B C -0.5047(5) -0.4080(3) -0.8991(3)
C9B C -0.3881(5) -0.3943(4) -0.9184(3)
H9B H -0.3091 -0.4169 -0.8837
C10B C -0.3892(5) -0.3472(4) -0.9888(3)
H10B H -0.3097 -0.3400 -1.0010
C11B C -0.5087(6) -0.4619(4) -0.8240(3)
H11B H -0.4361 -0.5070 -0.8102
H12B H -0.5901 -0.4982 -0.8364
H13B H -0.5773 -0.3591 -0.7606
loop_
_geom_bond_atom_site_label_1
_geom_bond_atom_site_label_2
_geom_bond_site_symmetry_1
_geom_bond_site_symmetry_2
Zn1 O1 1_555 1_555
O1 C1 1_555 1_555
O2 C1 1_555 1_555
O3 C5 1_555 1_555
O4 Zn1B 1_555 1_555
N1 C6 1_555 1_555
C1 C2 1_555 1_555
C2 H1 1_555 1_555
H2 C2 1_555 1_555
C3 C2 1_555 1_555
H3 C3 1_555 1_555
H4 C3 1_555 1_555
C4 C3 1_555 1_555
H5 C4 1_555 1_555
H6 C4 1_555 1_555
C5 C4 1_555 1_555
C6 H7 1_555 1_555
C7 C6 1_555 1_555
H8 C7 1_555 1_555
C8 C7 1_555 1_555
C9 C8 1_555 1_555
H9 C9 1_555 1_555
C10 N1 1_555 1_555
H10 C10 1_555 1_555
C11 C8 1_555 1_555
H11 C11 1_555 1_555
H12 C11 1_555 1_555
C12 C11 1_555 1_555
H13 C12 1_555 1_555
Zn1C O3 1_555 1_555
Zn1_2 O3C_2 1_555 1_555
Zn1A O4C 1_555 1_555
Zn1A_2 N1B 1_555 1_555
O1C Zn1C 1_555 1_555
O2C C1C 1_555 1_555
O3C Zn1 1_555 1_555
O3C_2 C5C 1_555 1_555
O4B Zn1 1_555 1_555
O4A Zn1C 1_555 1_555
O4C C5 1_555 1_555
N1C Zn1 1_555 1_555
N1B C6B 1_555 1_555
C1C O1C 1_555 1_555
C2C C1C 1_555 1_555
H1C C2C 1_555 1_555
H2C C2C 1_555 1_555
C3C C2C 1_555 1_555
H3C C3C 1_555 1_555
H4C C3C 1_555 1_555
C4C C3C 1_555 1_555
H5C C4C 1_555 1_555
H6C C4C 1_555 1_555
C5C O4 1_555 1_555
C6B H7B 1_555 1_555
C7B C6B 1_555 1_555
H8B C7B 1_555 1_555
C8B C7B 1_555 1_555
C9B C8B 1_555 1_555
H9B C9B 1_555 1_555
C10B N1B 1_555 1_555
H10B C10B 1_555 1_555
C11B C12 1_555 1_555
H11B C11B 1_555 1_555
H12B C11B 1_555 1_555
H13B C12 1_555 1_555
N1 Zn1C 1_555 1_555
C9 C10 1_555 1_555
C4C C5C 1_555 1_555
C8B C11B 1_555 1_555
C9B C10B 1_555 1_555

#END
