
#######################################################################
#
#                 Cambridge Crystallographic Data Centre
#                                CCDC 
#
#######################################################################
#
# If this CIF has been generated from an entry in the Cambridge 
# Structural Database, then it will include bibliographic, chemical, 
# crystal, experimental, refinement or atomic coordinate data resulting 
# from the CCDC's data processing and validation procedures.
#
#######################################################################

data_GEHQOZ
_symmetry_cell_setting           monoclinic
_symmetry_space_group_name_H-M   'C 2/c'
_symmetry_Int_Tables_number      15
_space_group_name_Hall           '-C 2yn'
loop_
_symmetry_equiv_pos_site_id
_symmetry_equiv_pos_as_xyz
1 x,y,z
2 1/2+x,1/2+y,z
3 x,-y,1/2+z
4 1/2+x,1/2-y,1/2+z
5 -x,-y,-z
6 1/2-x,1/2-y,-z
7 -x,y,1/2-z
8 1/2-x,1/2+y,1/2-z
_cell_length_a                   21.225(7)
_cell_length_b                   10.467(7)
_cell_length_c                   23.555(7)
_cell_angle_alpha                90
_cell_angle_beta                 94.36(2)
_cell_angle_gamma                90
_cell_volume                     5217.88
loop_
_atom_site_label
_atom_site_type_symbol
_atom_site_fract_x
_atom_site_fract_y
_atom_site_fract_z
Ag1 Ag 0.24699(12) -0.69488(18) 0.74710(9)
N1 N 0.2944(10) -0.579(2) 0.8209(8)
C1 C 1.1763(11) -0.005(2) 1.1647(9)
C2 C 1.1385(11) -0.114(3) 1.1429(10)
H1 H 1.1138 -0.1446 1.1731
H2 H 1.1672 -0.1821 1.1340
C3 C 1.0949(11) -0.090(2) 1.0916(9)
H3 H 1.1190 -0.0553 1.0619
H4 H 1.0643 -0.0262 1.1009
C4 C 1.0591(10) -0.208(2) 1.0680(9)
H5 H 1.0896 -0.2745 1.0616
H6 H 1.0325 -0.2390 1.0967
C5 C 1.0182(10) -0.188(2) 1.0133(8)
H7 H 0.9859 -0.1253 1.0201
H8 H 1.0442 -0.1528 0.9849
C6 C 0.9868(10) -0.306(2) 0.9897(9)
H9 H 0.9603 -0.3411 1.0176
H10 H 1.0188 -0.3689 0.9827
C7 C 0.9468(10) -0.280(2) 0.9349(9)
H11 H 0.9153 -0.2160 0.9419
H12 H 0.9735 -0.2459 0.9069
C8 C 0.9139(10) -0.399(2) 0.9109(9)
H13 H 0.8864 -0.4323 0.9383
H14 H 0.9451 -0.4635 0.9041
C9 C 0.8751(11) -0.369(2) 0.8554(10)
H15 H 0.8448 -0.3028 0.8625
H16 H 0.9031 -0.3357 0.8284
C10 C 0.8416(11) -0.476(2) 0.8299(9)
N2 N 0.1853(9) -0.557(2) 0.6916(8)
N3 N 0.6901(10) -0.807(2) 0.8053(9)
C11 C 0.6620(13) -0.857(3) 0.8336(12)
C12 C 0.6221(15) -0.924(3) 0.8750(13)
H17 H 0.5881 -0.8672 0.8844
H18 H 0.6479 -0.9417 0.9099
C13 C 0.5947(18) -1.045(4) 0.8512(15)
H19 H 0.5691 -1.0813 0.8797
H20 H 0.6296 -1.1038 0.8475
C14 C 0.5561(17) -1.047(4) 0.7968(15)
H21 H 0.5856 -1.0371 0.7677
H22 H 0.5314 -0.9690 0.7963
C15 C 0.5159(19) -1.138(4) 0.7776(13)
H23 H 0.4610 -1.2180 0.7189
H24 H 0.5166 -1.1426 0.6957
N4 N 0.1858(10) -0.846(2) 0.7888(9)
C16 C 0.8317(11) -0.909(2) 0.6785(10)
C17 C 0.8489(12) -0.992(2) 0.6326(10)
H25 H 0.8907 -1.0275 0.6417
H26 H 0.8191 -1.0621 0.6277
C18 C 0.8483(11) -0.913(2) 0.5773(9)
H27 H 0.8587 -0.9684 0.5462
H28 H 0.8803 -0.8470 0.5817
C19 C 0.7863(11) -0.855(2) 0.5634(10)
H29 H 0.7542 -0.9206 0.5634
H30 H 0.7781 -0.7940 0.5931
C20 C 0.7796(11) -0.786(3) 0.5062(11)
H31 H 0.7167 -0.6515 0.5237
H32 H 0.6853 -0.7732 0.4954
Ag1E Ag 1.25301(12) 0.19488(18) 1.25290(9)
N1E N 1.2056(10) 0.079(2) 1.1791(8)
N2F N 0.8147(9) -0.557(2) 0.8084(8)
Ag1F Ag 0.75301(12) -0.69488(18) 0.75290(9)
N1F N 0.7056(10) -0.579(2) 0.6791(8)
C1C C 0.6763(11) -0.495(2) 0.6647(9)
C2C C 0.6385(11) -0.386(3) 0.6429(10)
H1C H 0.6138 -0.3554 0.6731
H2C H 0.6672 -0.3179 0.6340
C3C C 0.5949(11) -0.410(2) 0.5916(9)
H3C H 0.6190 -0.4447 0.5619
H4C H 0.5643 -0.4738 0.6009
C4C C 0.5591(10) -0.292(2) 0.5680(9)
H5C H 0.5896 -0.2255 0.5616
H6C H 0.5325 -0.2610 0.5967
C5C C 0.5182(10) -0.312(2) 0.5133(8)
H7C H 0.4859 -0.3747 0.5201
H8C H 0.5442 -0.3472 0.4849
C6C C 0.4868(10) -0.194(2) 0.4897(9)
H9C H 0.4603 -0.1589 0.5176
H10C H 0.5188 -0.1311 0.4827
C7C C 0.4468(10) -0.220(2) 0.4349(9)
H11C H 0.4153 -0.2840 0.4419
H12C H 0.4735 -0.2541 0.4069
C8C C 0.4139(10) -0.101(2) 0.4109(9)
H13C H 0.3864 -0.0677 0.4383
H14C H 0.4451 -0.0365 0.4041
C9C C 0.3751(11) -0.131(2) 0.3554(10)
H15C H 0.3448 -0.1972 0.3625
H16C H 0.4031 -0.1643 0.3284
C10C C 0.3416(11) -0.024(2) 0.3299(9)
N2E N 0.3147(9) 0.057(2) 0.3084(8)
Ag1E_2 Ag 0.25301(12) 0.19488(18) 0.25290(9)
C15F C 0.4841(19) -1.138(4) 0.7224(13)
C14F C 0.4439(17) -1.047(4) 0.7032(15)
C13F C 0.4053(18) -1.045(4) 0.6488(15)
C12F C 0.3779(15) -0.924(3) 0.6250(13)
C11F C 0.3380(13) -0.857(3) 0.6664(12)
N3F N 0.3099(10) -0.807(2) 0.6947(9)
H17F H 0.4119 -0.8672 0.6156
H18F H 0.3521 -0.9417 0.5901
H19F H 0.4309 -1.0813 0.6203
H20F H 0.3704 -1.1038 0.6525
H21F H 0.4144 -1.0371 0.7323
H22F H 0.4686 -0.9690 0.7037
H23F H 0.5390 -1.2180 0.7811
H24F H 0.4834 -1.1426 0.8043
N4F N 0.8142(10) -0.846(2) 0.7112(9)
C20E C 0.7204(11) -0.714(3) 0.4938(11)
C19E C 0.7137(11) -0.645(2) 0.4366(10)
C18E C 0.6517(11) -0.587(2) 0.4227(9)
C17E C 0.6511(12) -0.508(2) 0.3674(10)
C16E C 0.6683(11) -0.591(2) 0.3215(10)
N4C N 0.6858(10) -0.654(2) 0.2888(9)
Ag1C Ag 0.74699(12) -0.80512(18) 0.24710(9)
H25E H 0.6093 -0.4725 0.3583
H26E H 0.6809 -0.4379 0.3723
H27E H 0.6413 -0.5316 0.4538
H28E H 0.6197 -0.6530 0.4183
H29E H 0.7458 -0.5794 0.4366
H30E H 0.7219 -0.7060 0.4069
H31E H 0.7833 -0.8485 0.4763
H32E H 0.8147 -0.7268 0.5046
As1 As 0.0000 0.1032(4) 0.2500
F1 F -0.0779(6) 0.104(2) 0.2536(8)
F2 F 0.0099(11) 0.203(2) 0.3045(9)
F3 F -0.0061(12) -0.004(2) 0.1981(10)
F1F F 0.0779(6) 0.104(2) 0.2464(8)
F2F F -0.0099(11) 0.203(2) 0.1955(9)
F3F F 0.0061(12) -0.004(2) 0.3019(10)
As2 As -0.2500 0.2500 0.0000
F4 F -0.1768(6) 0.2240(17) 0.0308(6)
F5 F -0.2443(7) 0.1143(15) -0.0372(6)
F6 F -0.2808(7) 0.1694(15) 0.0527(6)
F4E F -0.3232(6) 0.2760(17) -0.0308(6)
F5E F -0.2557(7) 0.3857(15) 0.0372(6)
F6E F -0.2192(7) 0.3306(15) -0.0527(6)
loop_
_geom_bond_atom_site_label_1
_geom_bond_atom_site_label_2
_geom_bond_site_symmetry_1
_geom_bond_site_symmetry_2
Ag1 N1 1_555 1_555
C1 C2 1_555 1_555
C2 H1 1_555 1_555
H2 C2 1_555 1_555
C3 C2 1_555 1_555
H3 C3 1_555 1_555
H4 C3 1_555 1_555
C4 C3 1_555 1_555
H5 C4 1_555 1_555
H6 C4 1_555 1_555
C5 C4 1_555 1_555
H7 C5 1_555 1_555
H8 C5 1_555 1_555
C6 C5 1_555 1_555
H9 C6 1_555 1_555
H10 C6 1_555 1_555
C7 C6 1_555 1_555
H11 C7 1_555 1_555
H12 C7 1_555 1_555
C8 C7 1_555 1_555
H13 C8 1_555 1_555
H14 C8 1_555 1_555
C9 C8 1_555 1_555
H15 C9 1_555 1_555
H16 C9 1_555 1_555
C10 C9 1_555 1_555
N2 Ag1 1_555 1_555
N3 C11 1_555 1_555
C11 C12 1_555 1_555
C12 H17 1_555 1_555
H18 C12 1_555 1_555
C13 C12 1_555 1_555
H19 C13 1_555 1_555
H20 C13 1_555 1_555
C14 C13 1_555 1_555
H21 C14 1_555 1_555
H22 C14 1_555 1_555
C15 C14 1_555 1_555
H23 C15F 1_555 1_555
H24 C15F 1_555 1_555
N4 Ag1 1_555 1_555
C16 C17 1_555 1_555
C17 H25 1_555 1_555
H26 C17 1_555 1_555
C18 C17 1_555 1_555
H27 C18 1_555 1_555
H28 C18 1_555 1_555
C19 C18 1_555 1_555
H29 C19 1_555 1_555
H30 C19 1_555 1_555
C20 C19 1_555 1_555
H31 C20E 1_555 1_555
H32 C20E 1_555 1_555
As1 F1 1_555 1_555
F2 As1 1_555 1_555
F3 As1 1_555 1_555
As2 F4 1_555 1_555
F5 As2 1_555 1_555
F6 As2 1_555 1_555
Ag1E N1E 1_555 1_555
N1E C1 1_555 1_555
N2F C10 1_555 1_555
Ag1F N3 1_555 1_555
N1F Ag1F 1_555 1_555
C1C N1F 1_555 1_555
C2C C1C 1_555 1_555
H1C C2C 1_555 1_555
H2C C2C 1_555 1_555
C3C C2C 1_555 1_555
H3C C3C 1_555 1_555
H4C C3C 1_555 1_555
C4C C3C 1_555 1_555
H5C C4C 1_555 1_555
H6C C4C 1_555 1_555
C5C C4C 1_555 1_555
H7C C5C 1_555 1_555
H8C C5C 1_555 1_555
C6C C5C 1_555 1_555
H9C C6C 1_555 1_555
H10C C6C 1_555 1_555
C7C C6C 1_555 1_555
H11C C7C 1_555 1_555
H12C C7C 1_555 1_555
C8C C7C 1_555 1_555
H13C C8C 1_555 1_555
H14C C8C 1_555 1_555
C9C C8C 1_555 1_555
H15C C9C 1_555 1_555
H16C C9C 1_555 1_555
C10C C9C 1_555 1_555
N2E C10C 1_555 1_555
Ag1E_2 N2E 1_555 1_555
C15F C15 1_555 1_555
C14F C15F 1_555 1_555
C13F C14F 1_555 1_555
C12F C13F 1_555 1_555
C11F C12F 1_555 1_555
N3F Ag1 1_555 1_555
H17F C12F 1_555 1_555
H18F C12F 1_555 1_555
H19F C13F 1_555 1_555
H20F C13F 1_555 1_555
H21F C14F 1_555 1_555
H22F C14F 1_555 1_555
H23F C15 1_555 1_555
H24F C15 1_555 1_555
N4F C16 1_555 1_555
C20E C20 1_555 1_555
C19E C20E 1_555 1_555
C18E C19E 1_555 1_555
C17E C18E 1_555 1_555
C16E C17E 1_555 1_555
N4C C16E 1_555 1_555
Ag1C N4C 1_555 1_555
H25E C17E 1_555 1_555
H26E C17E 1_555 1_555
H27E C18E 1_555 1_555
H28E C18E 1_555 1_555
H29E C19E 1_555 1_555
H30E C19E 1_555 1_555
H31E C20 1_555 1_555
H32E C20 1_555 1_555
F1F As1 1_555 1_555
F2F As1 1_555 1_555
F3F As1 1_555 1_555
F4E As2 1_555 1_555
F5E As2 1_555 1_555
F6E As2 1_555 1_555
N2F Ag1F 1_555 1_555
Ag1F N4F 1_555 1_555
C11F N3F 1_555 1_555

#END
