
#######################################################################
#
#                 Cambridge Crystallographic Data Centre
#                                CCDC 
#
#######################################################################
#
# If this CIF has been generated from an entry in the Cambridge 
# Structural Database, then it will include bibliographic, chemical, 
# crystal, experimental, refinement or atomic coordinate data resulting 
# from the CCDC's data processing and validation procedures.
#
#######################################################################

data_GEHSER
_symmetry_cell_setting           monoclinic
_symmetry_space_group_name_H-M   'C 2/m'
_symmetry_Int_Tables_number      12
_space_group_name_Hall           '-C 2y'
loop_
_symmetry_equiv_pos_site_id
_symmetry_equiv_pos_as_xyz
1 x,y,z
2 1/2+x,1/2+y,z
3 -x,y,-z
4 1/2-x,1/2+y,-z
5 -x,-y,-z
6 1/2-x,1/2-y,-z
7 x,-y,z
8 1/2+x,1/2-y,z
_cell_length_a                   7.928(2)
_cell_length_b                   13.272(1)
_cell_length_c                   10.523(2)
_cell_angle_alpha                90
_cell_angle_beta                 107.82(2)
_cell_angle_gamma                90
_cell_volume                     1054.11
loop_
_atom_site_label
_atom_site_type_symbol
_atom_site_fract_x
_atom_site_fract_y
_atom_site_fract_z
I1 I 0.2195(1) 0.00000 0.3878(1)
Cu1 Cu 0.4582(1) 0.00000 0.6230(1)
S1 S 0.1767(2) 0.1107(1) 0.9516(1)
S2 S 0.3984(2) 0.1257(1) 0.7656(1)
C1 C 0.0739(9) 0.00000 0.9808(7)
C2 C 0.2887(6) 0.0506(3) 0.8529(4)
C3 C 0.2201(8) 0.2038(4) 0.6692(6)
H1 H 0.26720(84) 0.24821(40) 0.61645(62)
H2 H 0.19811(84) 0.24103(40) 0.74073(62)
H3 H 0.11115(84) 0.17495(40) 0.61410(62)
I1B I 0.7805(1) 0.00000 0.6122(1)
Cu1B Cu 0.5418(1) 0.00000 0.3770(1)
S1F S 0.1767(2) -0.1107(1) 0.9516(1)
C2F C 0.2887(6) -0.0506(3) 0.8529(4)
S2F S 0.3984(2) -0.1257(1) 0.7656(1)
C3F C 0.2201(8) -0.2038(4) 0.6692(6)
H1F H 0.26720(84) -0.24821(40) 0.61645(62)
H2F H 0.19811(84) -0.24103(40) 0.74073(62)
H3F H 0.11115(84) -0.17495(40) 0.61410(62)
C1B C -0.0739(9) 0.00000 1.0192(7)
S1B S -0.1767(2) 0.1107(1) 1.0484(1)
C2B C -0.2887(6) 0.0506(3) 1.1471(4)
S2B S -0.3984(2) 0.1257(1) 1.2344(1)
Cu1B_2 Cu -0.4582(1) 0.00000 1.3770(1)
S2D S -0.3984(2) -0.1257(1) 1.2344(1)
C2D C -0.2887(6) -0.0506(3) 1.1471(4)
S1D S -0.1767(2) -0.1107(1) 1.0484(1)
C3D C -0.2201(8) -0.2038(4) 1.3308(6)
H1D H -0.26720(84) -0.24821(40) 1.38355(62)
H2D H -0.19811(84) -0.24103(40) 1.25927(62)
H3D H -0.11115(84) -0.17495(40) 1.38590(62)
C3B C -0.2201(8) 0.2038(4) 1.3308(6)
H1B H -0.26720(84) 0.24821(40) 1.38355(62)
H2B H -0.19811(84) 0.24103(40) 1.25927(62)
H3B H -0.11115(84) 0.17495(40) 1.38590(62)
S2B_2 S 0.6016(2) 0.1257(1) 0.2344(1)
S2D_2 S 0.6016(2) -0.1257(1) 0.2344(1)
loop_
_geom_bond_atom_site_label_1
_geom_bond_atom_site_label_2
_geom_bond_site_symmetry_1
_geom_bond_site_symmetry_2
I1 Cu1 1_555 1_555
Cu1 S2 1_555 1_555
S1 C1 1_555 1_555
S2 C2 1_555 1_555
C1 S1F 1_555 1_555
C2 S1 1_555 1_555
C3 S2 1_555 1_555
H1 C3 1_555 1_555
H2 C3 1_555 1_555
H3 C3 1_555 1_555
I1B Cu1 1_555 1_555
Cu1B I1 1_555 1_555
S1F C2F 1_555 1_555
C2F C2 1_555 1_555
S2F Cu1 1_555 1_555
C3F S2F 1_555 1_555
H1F C3F 1_555 1_555
H2F C3F 1_555 1_555
H3F C3F 1_555 1_555
C1B C1 1_555 1_555
S1B C1B 1_555 1_555
C2B S1B 1_555 1_555
S2B C2B 1_555 1_555
Cu1B_2 S2B 1_555 1_555
S2D Cu1B_2 1_555 1_555
C2D C2B 1_555 1_555
S1D C1B 1_555 1_555
C3D S2D 1_555 1_555
H1D C3D 1_555 1_555
H2D C3D 1_555 1_555
H3D C3D 1_555 1_555
C3B S2B 1_555 1_555
H1B C3B 1_555 1_555
H2B C3B 1_555 1_555
H3B C3B 1_555 1_555
S2B_2 Cu1B 1_555 1_555
S2D_2 Cu1B 1_555 1_555
Cu1 Cu1B 1_555 1_555
I1B Cu1B 1_555 1_555
C2F S2F 1_555 1_555
S2D C2D 1_555 1_555
C2D S1D 1_555 1_555

#END
