
#######################################################################
#
#                 Cambridge Crystallographic Data Centre
#                                CCDC 
#
#######################################################################
#
# If this CIF has been generated from an entry in the Cambridge 
# Structural Database, then it will include bibliographic, chemical, 
# crystal, experimental, refinement or atomic coordinate data resulting 
# from the CCDC's data processing and validation procedures.
#
#######################################################################

data_GEHSER01
_symmetry_cell_setting           monoclinic
_symmetry_space_group_name_H-M   'C 2/m'
_symmetry_Int_Tables_number      12
_space_group_name_Hall           '-C 2y'
loop_
_symmetry_equiv_pos_site_id
_symmetry_equiv_pos_as_xyz
1 x,y,z
2 -x,y,-z
3 1/2+x,1/2+y,z
4 1/2-x,1/2+y,-z
5 -x,-y,-z
6 x,-y,z
7 1/2-x,1/2-y,-z
8 1/2+x,1/2-y,z
_cell_length_a                   7.921(3)
_cell_length_b                   13.266(6)
_cell_length_c                   10.498(6)
_cell_angle_alpha                90
_cell_angle_beta                 107.79(4)
_cell_angle_gamma                90
_cell_volume                     1050.38
loop_
_atom_site_label
_atom_site_type_symbol
_atom_site_fract_x
_atom_site_fract_y
_atom_site_fract_z
I1 I 0.71948(5) 0.00000 0.38773(4)
Cu1 Cu 1.0419(1) 0.00000 0.37711(8)
S1 S 1.1014(1) 0.12573(8) 0.2343(1)
S2 S 1.3230(2) 0.11089(8) 0.0484(1)
C1 C 1.4279(8) 0.00000 0.0200(5)
C2 C 1.2115(5) 0.0504(3) 0.1481(4)
C3 C 1.2798(8) 0.2052(4) 0.3283(6)
H1 H 1.3738 0.1645 0.3880
H2 H 1.3304 0.2423 0.2722
H3 H 1.2407 0.2511 0.3841
S2E S 1.3230(2) -0.11089(8) 0.0484(1)
C2E C 1.2115(5) -0.0504(3) 0.1481(4)
S1E S 1.1014(1) -0.12573(8) 0.2343(1)
C3E C 1.2798(8) -0.2052(4) 0.3283(6)
H1E H 1.3738 -0.1645 0.3880
H2E H 1.3304 -0.2423 0.2722
H3E H 1.2407 -0.2511 0.3841
C1A C 1.5721(8) 0.00000 -0.0200(5)
S2A S 1.6770(2) 0.11089(8) -0.0484(1)
C2A C 1.7885(5) 0.0504(3) -0.1481(4)
S1A S 1.8986(1) 0.12573(8) -0.2343(1)
C3A C 1.7202(8) 0.2052(4) -0.3283(6)
H1A H 1.6262 0.1645 -0.3880
H2A H 1.6696 0.2423 -0.2722
H3A H 1.7593 0.2511 -0.3841
C2D C 1.7885(5) -0.0504(3) -0.1481(4)
S1D S 1.8986(1) -0.12573(8) -0.2343(1)
C3D C 1.7202(8) -0.2052(4) -0.3283(6)
H1D H 1.6262 -0.1645 -0.3880
H2D H 1.6696 -0.2423 -0.2722
H3D H 1.7593 -0.2511 -0.3841
S2D S 1.6770(2) -0.11089(8) -0.0484(1)
I1A I 1.28052(5) 0.00000 0.61227(4)
Cu1A Cu 0.9581(1) 0.00000 0.62289(8)
Cu1A_2 Cu 1.9581(1) 0.00000 -0.37711(8)
S1A_2 S 0.8986(1) 0.12573(8) 0.7657(1)
S1D_2 S 0.8986(1) -0.12573(8) 0.7657(1)
loop_
_geom_bond_atom_site_label_1
_geom_bond_atom_site_label_2
_geom_bond_site_symmetry_1
_geom_bond_site_symmetry_2
I1 Cu1 1_555 1_555
Cu1 S1 1_555 1_555
S1 C2 1_555 1_555
S2 C1 1_555 1_555
C1 S2E 1_555 1_555
C2 S2 1_555 1_555
C3 S1 1_555 1_555
H1 C3 1_555 1_555
H2 C3 1_555 1_555
H3 C3 1_555 1_555
S2E C2E 1_555 1_555
C2E C2 1_555 1_555
S1E Cu1 1_555 1_555
C3E S1E 1_555 1_555
H1E C3E 1_555 1_555
H2E C3E 1_555 1_555
H3E C3E 1_555 1_555
C1A C1 1_555 1_555
S2A C1A 1_555 1_555
C2A S2A 1_555 1_555
S1A C2A 1_555 1_555
C3A S1A 1_555 1_555
H1A C3A 1_555 1_555
H2A C3A 1_555 1_555
H3A C3A 1_555 1_555
C2D C2A 1_555 1_555
S1D C2D 1_555 1_555
C3D S1D 1_555 1_555
H1D C3D 1_555 1_555
H2D C3D 1_555 1_555
H3D C3D 1_555 1_555
S2D C1A 1_555 1_555
I1A Cu1 1_555 1_555
Cu1A I1 1_555 1_555
Cu1A_2 S1A 1_555 1_555
S1A_2 Cu1A 1_555 1_555
S1D_2 Cu1A 1_555 1_555
Cu1 Cu1A 1_555 1_555
C2E S1E 1_555 1_555
C2D S2D 1_555 1_555
S1D Cu1A_2 1_555 1_555
I1A Cu1A 1_555 1_555

#END
