
#######################################################################
#
#                 Cambridge Crystallographic Data Centre
#                                CCDC 
#
#######################################################################
#
# If this CIF has been generated from an entry in the Cambridge 
# Structural Database, then it will include bibliographic, chemical, 
# crystal, experimental, refinement or atomic coordinate data resulting 
# from the CCDC's data processing and validation procedures.
#
#######################################################################

data_GEHTAO
_symmetry_cell_setting           monoclinic
_symmetry_space_group_name_H-M   'P 2/c'
_symmetry_Int_Tables_number      13
_space_group_name_Hall           '-P 2yc'
loop_
_symmetry_equiv_pos_site_id
_symmetry_equiv_pos_as_xyz
1 x,y,z
2 x,-y,1/2+z
3 -x,-y,-z
4 -x,y,1/2-z
_cell_length_a                   11.481(3)
_cell_length_b                   10.262(6)
_cell_length_c                   23.184(5)
_cell_angle_alpha                90
_cell_angle_beta                 93.66(2)
_cell_angle_gamma                90
_cell_volume                     2725.92
loop_
_atom_site_label
_atom_site_type_symbol
_atom_site_fract_x
_atom_site_fract_y
_atom_site_fract_z
C24 C 0.4609(6) 0.4434(7) 0.2757(4)
S1 S 0.5391(6) 0.4434(7) 0.2243(4)
O1 O 0.3767(13) 0.3434(14) 0.2560(9)
O2 O 0.427(2) 0.5815(13) 0.2642(10)
O3 O 0.5294(18) 0.4192(19) 0.3302(7)
F1 F 0.3606(12) 0.506(2) 0.2645(10)
F2 F 0.445(3) 0.3241(17) 0.2928(14)
F3 F 0.528(2) 0.511(3) 0.3134(15)
O1C O 0.6233(13) 0.3434(14) 0.2440(9)
F1C F 0.6394(12) 0.506(2) 0.2355(10)
O2C O 0.573(2) 0.5815(13) 0.2358(10)
O3C O 0.4706(18) 0.4192(19) 0.1698(7)
F2C F 0.555(3) 0.3241(17) 0.2072(14)
F3C F 0.472(2) 0.511(3) 0.1866(15)
C25 C -0.0054(8) -0.0780(10) 0.4903(4)
O4 O 0.0034(13) -0.1318(16) 0.5471(6)
O5 O 0.0789(11) -0.1060(14) 0.4550(6)
O6 O -0.1217(11) -0.0898(16) 0.4661(6)
C25B C 0.0054(8) 0.0780(10) 0.5097(4)
O4B O -0.0034(13) 0.1318(16) 0.4529(6)
O5B O -0.0789(11) 0.1060(14) 0.5450(6)
O6B O 0.1217(11) 0.0898(16) 0.5339(6)
Ag1 Ag 1.0000 0.64684(14) -0.2500
N1 N 0.1196(8) 0.7600(9) -0.3052(4)
C3 C 0.1911(13) 0.7981(18) -0.3305(7)
C4 C 0.2769(14) 0.8428(13) -0.3708(6)
H3 H 0.2396 0.8495 -0.4095
H4 H 0.3396 0.7796 -0.3718
C5 C 0.3257(8) 0.9716(12) -0.3528(4)
C6 C 0.3766(8) 0.9783(12) -0.2939(4)
H7 H 0.4000 0.8908 -0.2824
H8 H 0.3153 1.0044 -0.2693
C8 C 0.4773(9) 1.0639(17) -0.2809(3)
N2 N 0.8921(8) 0.5040(9) -0.3092(4)
C9 C 0.8451(9) 0.4193(9) -0.3295(5)
C10 C 0.7809(8) 0.3142(10) -0.3594(4)
H13 H 0.7389 0.2652 -0.3316
H14 H 0.8361 0.2555 -0.3759
C11 C 0.6962(8) 0.3610(9) -0.4064(4)
H15 H 0.6450 0.4249 -0.3903
H16 H 0.7391 0.4046 -0.4355
C12 C 0.6235(7) 0.2566(9) -0.4348(4)
H17 H 0.5813 0.2125 -0.4055
H18 H 0.6748 0.1932 -0.4510
C13 C 0.5380(7) 0.3027(9) -0.4814(4)
H19 H 0.4844 0.3628 -0.4646
H20 H 0.5800 0.3509 -0.5094
C14 C 0.4685(7) 0.1987(9) -0.5123(4)
H21 H 0.4304 0.1470 -0.4840
H22 H 0.5217 0.1417 -0.5312
C15 C 0.3781(7) 0.2451(9) -0.5564(4)
H23 H 0.4152 0.3019 -0.5831
H24 H 0.3216 0.2968 -0.5371
C16 C 0.3137(8) 0.1391(9) -0.5906(4)
H25 H 0.3694 0.0894 -0.6114
H26 H 0.2784 0.0804 -0.5640
C17 C 0.2215(8) 0.1898(10) -0.6325(4)
H27 H 0.1651 0.2381 -0.6116
H28 H 0.2566 0.2500 -0.6586
C18 C 0.1597(9) 0.0862(9) -0.6670(4)
N3 N 0.1177(8) 0.0050(9) -0.6923(4)
Ag2 Ag 0.0000 -0.12033(15) -0.7500
N4 N 0.1127(9) -0.2444(10) -0.8042(5)
C19 C 0.1620(13) -0.3121(14) -0.8280(7)
C20 C 0.2381(14) -0.4138(19) -0.8491(6)
H29 H 0.2280 -0.4931 -0.8271
H30 H 0.3188 -0.3866 -0.8428
C21 C 0.2124(9) -0.4410(18) -0.9109(5)
H31 H 0.2400 -0.3677 -0.9327
H32 H 0.2576 -0.5166 -0.9210
C22 C 0.0909(9) -0.465(2) -0.9301(4)
H33 H 0.0646 -0.5398 -0.9090
H34 H 0.0457 -0.3906 -0.9184
C23 C 0.0615(6) -0.487(2) -0.9910(4)
H35 H -0.1071 -0.4390 -0.9970
H36 H -0.0864 -0.5882 -0.9879
C8C C 0.5227(9) 1.0639(17) -0.2191(3)
C6C C 0.6234(8) 0.9783(12) -0.2061(4)
C5C C 0.6743(8) 0.9716(12) -0.1472(4)
C4C C 0.7231(14) 0.8428(13) -0.1292(6)
C3C C 0.8089(13) 0.7981(18) -0.1695(7)
N1C N 0.8804(8) 0.7600(9) -0.1948(4)
Ag1_2 Ag 0.0000 0.64684(14) -0.2500
N1_2 N 1.1196(8) 0.7600(9) -0.3052(4)
N3C N -0.1177(8) 0.0050(9) -0.8077(4)
C18C C -0.1597(9) 0.0862(9) -0.8330(4)
C17C C -0.2215(8) 0.1898(10) -0.8675(4)
C16C C -0.3137(8) 0.1391(9) -0.9094(4)
C15C C -0.3781(7) 0.2451(9) -0.9436(4)
C14C C -0.4685(7) 0.1987(9) -0.9877(4)
C13C C -0.5380(7) 0.3027(9) -1.0186(4)
C12C C -0.6235(7) 0.2566(9) -1.0652(4)
C11C C -0.6962(8) 0.3610(9) -1.0936(4)
C10C C -0.7809(8) 0.3142(10) -1.1406(4)
C9C C -0.8451(9) 0.4193(9) -1.1705(5)
N2C N -0.8921(8) 0.5040(9) -1.1908(4)
Ag1_3 Ag -1.0000 0.64684(14) -1.2500
H13C H -0.7389 0.2652 -1.1684
H14C H -0.8361 0.2555 -1.1241
H15C H -0.6450 0.4249 -1.1097
H16C H -0.7391 0.4046 -1.0645
H17C H -0.5813 0.2125 -1.0945
H18C H -0.6748 0.1932 -1.0490
H19C H -0.4844 0.3628 -1.0354
H20C H -0.5800 0.3509 -0.9906
H21C H -0.4304 0.1470 -1.0160
H22C H -0.5217 0.1417 -0.9688
H23C H -0.4152 0.3019 -0.9169
H24C H -0.3216 0.2968 -0.9629
H25C H -0.3694 0.0894 -0.8886
H26C H -0.2784 0.0804 -0.9360
H27C H -0.1651 0.2381 -0.8884
H28C H -0.2566 0.2500 -0.8414
C23B C -0.0615(6) -0.513(2) -1.0090(4)
C22B C -0.0909(9) -0.535(2) -1.0699(4)
C21B C -0.2124(9) -0.5590(18) -1.0891(5)
C20B C -0.2381(14) -0.5862(19) -1.1509(6)
C19B C -0.1620(13) -0.6879(14) -1.1720(7)
N4B N -0.1127(9) -0.7556(10) -1.1958(5)
Ag2A Ag 0.0000 -0.87967(15) -1.2500
H29B H -0.2280 -0.5069 -1.1729
H30B H -0.3188 -0.6134 -1.1572
H31B H -0.2400 -0.6323 -1.0673
H32B H -0.2576 -0.4834 -1.0790
H33B H -0.0646 -0.4602 -1.0910
H34B H -0.0457 -0.6094 -1.0816
H35B H 0.1071 -0.5610 -1.0030
H36B H 0.0864 -0.4118 -1.0121
N4C N -0.1127(9) -0.2444(10) -0.6958(5)
N2C_2 N 1.1079(8) 0.5040(9) -0.1908(4)
H3C H 0.7604 0.8495 -0.0905
H4C H 0.6604 0.7796 -0.1282
H7C H 0.6000 0.8908 -0.2176
H8C H 0.6847 1.0044 -0.2307
C1? C 0.153(3) 0.830(2) -0.3360(12)
C2? C 0.1985(11) 0.950(2) -0.3607(10)
H1? H 0.1597 1.0238 -0.3439
H2? H 0.1769 0.9507 -0.4019
H5? H 0.3642 0.9017 -0.3724
H6? H 0.3439 1.0522 -0.3721
C7? C 0.4772(9) 1.0648(17) -0.2808(3)
H9? H 0.4548 1.1530 -0.2916
H10? H 0.5398 1.0390 -0.3046
H11? H 0.4554 1.1522 -0.2918
H12? H 0.5398 1.0375 -0.3046
loop_
_geom_bond_atom_site_label_1
_geom_bond_atom_site_label_2
_geom_bond_site_symmetry_1
_geom_bond_site_symmetry_2
Ag1 N2 1_555 1_555
N1 C3 1_555 1_555
C3 C4 1_555 1_555
C4 H3 1_555 1_555
H4 C4 1_555 1_555
C5 C4 1_555 1_555
C6 C5 1_555 1_555
H7 C6 1_555 1_555
H8 C6 1_555 1_555
C8 C6 1_555 1_555
N2 C9 1_555 1_555
C9 C10 1_555 1_555
C10 H13 1_555 1_555
H14 C10 1_555 1_555
C11 C10 1_555 1_555
H15 C11 1_555 1_555
H16 C11 1_555 1_555
C12 C11 1_555 1_555
H17 C12 1_555 1_555
H18 C12 1_555 1_555
C13 C12 1_555 1_555
H19 C13 1_555 1_555
H20 C13 1_555 1_555
C14 C13 1_555 1_555
H21 C14 1_555 1_555
H22 C14 1_555 1_555
C15 C14 1_555 1_555
H23 C15 1_555 1_555
H24 C15 1_555 1_555
C16 C15 1_555 1_555
H25 C16 1_555 1_555
H26 C16 1_555 1_555
C17 C16 1_555 1_555
H27 C17 1_555 1_555
H28 C17 1_555 1_555
C18 C17 1_555 1_555
N3 C18 1_555 1_555
Ag2 N3 1_555 1_555
N4 Ag2 1_555 1_555
C19 N4 1_555 1_555
C20 C19 1_555 1_555
H29 C20 1_555 1_555
H30 C20 1_555 1_555
C21 C20 1_555 1_555
H31 C21 1_555 1_555
H32 C21 1_555 1_555
C22 C21 1_555 1_555
H33 C22 1_555 1_555
H34 C22 1_555 1_555
C23 C22 1_555 1_555
H35 C23B 1_555 1_555
H36 C23B 1_555 1_555
C24 S1 1_555 1_555
S1 O1C 1_555 1_555
O1 C24 1_555 1_555
O2 C24 1_555 1_555
O3 C24 1_555 1_555
F1 C24 1_555 1_555
F2 C24 1_555 1_555
F3 C24 1_555 1_555
C25 O4 1_555 1_555
O5 C25 1_555 1_555
O6 C25 1_555 1_555
C8C C8 1_555 1_555
C6C C8C 1_555 1_555
C5C C6C 1_555 1_555
C4C C5C 1_555 1_555
C3C C4C 1_555 1_555
N1C Ag1 1_555 1_555
Ag1_2 N1 1_555 1_555
N1_2 Ag1 1_555 1_555
N3C Ag2 1_555 1_555
C18C N3C 1_555 1_555
C17C C18C 1_555 1_555
C16C C17C 1_555 1_555
C15C C16C 1_555 1_555
C14C C15C 1_555 1_555
C13C C14C 1_555 1_555
C12C C13C 1_555 1_555
C11C C12C 1_555 1_555
C10C C11C 1_555 1_555
C9C C10C 1_555 1_555
N2C C9C 1_555 1_555
Ag1_3 N2C 1_555 1_555
H13C C10C 1_555 1_555
H14C C10C 1_555 1_555
H15C C11C 1_555 1_555
H16C C11C 1_555 1_555
H17C C12C 1_555 1_555
H18C C12C 1_555 1_555
H19C C13C 1_555 1_555
H20C C13C 1_555 1_555
H21C C14C 1_555 1_555
H22C C14C 1_555 1_555
H23C C15C 1_555 1_555
H24C C15C 1_555 1_555
H25C C16C 1_555 1_555
H26C C16C 1_555 1_555
H27C C17C 1_555 1_555
H28C C17C 1_555 1_555
C23B C23 1_555 1_555
C22B C23B 1_555 1_555
C21B C22B 1_555 1_555
C20B C21B 1_555 1_555
C19B C20B 1_555 1_555
N4B C19B 1_555 1_555
Ag2A N4B 1_555 1_555
H29B C20B 1_555 1_555
H30B C20B 1_555 1_555
H31B C21B 1_555 1_555
H32B C21B 1_555 1_555
H33B C22B 1_555 1_555
H34B C22B 1_555 1_555
H35B C23 1_555 1_555
H36B C23 1_555 1_555
N4C Ag2 1_555 1_555
N2C_2 Ag1 1_555 1_555
H3C C4C 1_555 1_555
H4C C4C 1_555 1_555
H7C C6C 1_555 1_555
H8C C6C 1_555 1_555
O1C F1C 1_555 1_555
F1C S1 1_555 1_555
O2C S1 1_555 1_555
O3C S1 1_555 1_555
F2C S1 1_555 1_555
F3C S1 1_555 1_555
C25B C25 1_555 1_555
O4B C25B 1_555 1_555
O5B C25B 1_555 1_555
O6B C25B 1_555 1_555
O1 F1 1_555 1_555
O1 F2 1_555 1_555
O2 F1 1_555 1_555
O3 F2 1_555 1_555
O3 F3 1_555 1_555
C3C N1C 1_555 1_555
O1C F2C 1_555 1_555
F1C O2C 1_555 1_555
O3C F2C 1_555 1_555
O3C F3C 1_555 1_555

#END
