
#######################################################################
#
#                 Cambridge Crystallographic Data Centre
#                                CCDC 
#
#######################################################################
#
# If this CIF has been generated from an entry in the Cambridge 
# Structural Database, then it will include bibliographic, chemical, 
# crystal, experimental, refinement or atomic coordinate data resulting 
# from the CCDC's data processing and validation procedures.
#
#######################################################################

data_GEHYOI
_symmetry_cell_setting           triclinic
_symmetry_space_group_name_H-M   'P -1'
_symmetry_Int_Tables_number      2
_space_group_name_Hall           '-P 1'
loop_
_symmetry_equiv_pos_site_id
_symmetry_equiv_pos_as_xyz
1 x,y,z
2 -x,-y,-z
_cell_length_a                   6.7148(5)
_cell_length_b                   10.5307(7)
_cell_length_c                   12.2614(9)
_cell_angle_alpha                64.580(3)
_cell_angle_beta                 89.405(4)
_cell_angle_gamma                80.336(5)
_cell_volume                     770.115
loop_
_atom_site_label
_atom_site_type_symbol
_atom_site_fract_x
_atom_site_fract_y
_atom_site_fract_z
K1 K 0.30484(10) 0.05784(7) 0.84773(5)
S1 S 0.30209(14) 0.22110(9) 1.02625(7)
S2 S 0.19758(12) -0.07014(8) 1.15529(7)
O1 O -0.0621(4) 0.1586(2) 1.0921(2)
N1 N 0.2568(4) 0.1077(3) 0.6022(2)
N2 N 0.2642(4) 0.3366(3) 0.6532(2)
C1 C 0.2500(5) -0.0017(3) 0.5752(3)
H1 H 0.2467 -0.0927 0.6399
C2 C 0.2476(5) 0.0098(4) 0.4573(3)
H2 H 0.2397 -0.0710 0.4428
C3 C 0.2567(5) 0.1388(3) 0.3635(3)
H3 H 0.2601 0.1483 0.2829
C4 C 0.2610(4) 0.2575(3) 0.3870(3)
C5 C 0.2604(5) 0.3980(3) 0.2914(3)
H4 H 0.2669 0.4106 0.2100
C6 C 0.2506(5) 0.5123(3) 0.3159(3)
H5 H 0.2435 0.6048 0.2512
C7 C 0.2508(4) 0.4959(3) 0.4384(3)
C8 C 0.2389(5) 0.6133(3) 0.4658(3)
H6 H 0.2293 0.7073 0.4028
C9 C 0.2411(5) 0.5906(3) 0.5848(3)
H7 H 0.2328 0.6685 0.6054
C10 C 0.2559(5) 0.4510(3) 0.6751(3)
H8 H 0.2603 0.4367 0.7571
C11 C 0.2589(4) 0.3596(3) 0.5350(2)
C12 C 0.2622(4) 0.2369(3) 0.5088(2)
C13 C 0.1384(5) 0.1085(3) 1.0897(2)
C14 C -0.1523(7) 0.3072(4) 1.0281(4)
H9 H -0.2604 0.3186 0.9687
H10 H -0.0484 0.3625 0.9834
C15 C -0.2372(8) 0.3624(4) 1.1119(4)
H11 H -0.2968 0.4638 1.0669
H12 H -0.1299 0.3516 1.1704
H13 H -0.3421 0.3091 1.1548
K1A K 0.69516(10) -0.05784(7) 1.15227(5)
K1A_2 K -0.30484(10) -0.05784(7) 1.15227(5)
S1A S 0.69791(14) -0.22110(9) 0.97375(7)
S2A S -0.19758(12) 0.07014(8) 0.84471(7)
S2A_2 S 0.80242(12) 0.07014(8) 0.84471(7)
O1A O 0.0621(4) -0.1586(2) 0.9079(2)
loop_
_geom_bond_atom_site_label_1
_geom_bond_atom_site_label_2
_geom_bond_site_symmetry_1
_geom_bond_site_symmetry_2
K1 S1 1_555 1_555
S1 C13 1_555 1_555
S2 C13 1_555 1_555
O1 C13 1_555 1_555
N1 K1 1_555 1_555
N2 K1 1_555 1_555
C1 N1 1_555 1_555
H1 C1 1_555 1_555
C2 C1 1_555 1_555
H2 C2 1_555 1_555
C3 C2 1_555 1_555
H3 C3 1_555 1_555
C4 C3 1_555 1_555
C5 C4 1_555 1_555
H4 C5 1_555 1_555
C6 C5 1_555 1_555
H5 C6 1_555 1_555
C7 C6 1_555 1_555
C8 C7 1_555 1_555
H6 C8 1_555 1_555
C9 C8 1_555 1_555
H7 C9 1_555 1_555
C10 N2 1_555 1_555
H8 C10 1_555 1_555
C11 N2 1_555 1_555
C12 N1 1_555 1_555
C14 O1 1_555 1_555
H9 C14 1_555 1_555
H10 C14 1_555 1_555
C15 C14 1_555 1_555
H11 C15 1_555 1_555
H12 C15 1_555 1_555
H13 C15 1_555 1_555
K1A S1 1_555 1_555
K1A_2 S2 1_555 1_555
S1A K1 1_555 1_555
S2A K1 1_555 1_555
S2A_2 K1 1_555 1_555
O1A K1 1_555 1_555
S2 K1A 1_555 1_555
O1 K1A_2 1_555 1_555
C4 C12 1_555 1_555
C7 C11 1_555 1_555
C9 C10 1_555 1_555
C11 C12 1_555 1_555
K1A S1A 1_555 1_555

#END
