
#######################################################################
#
#                 Cambridge Crystallographic Data Centre
#                                CCDC 
#
#######################################################################
#
# If this CIF has been generated from an entry in the Cambridge 
# Structural Database, then it will include bibliographic, chemical, 
# crystal, experimental, refinement or atomic coordinate data resulting 
# from the CCDC's data processing and validation procedures.
#
#######################################################################

data_GEIJAG10
_symmetry_cell_setting           monoclinic
_symmetry_space_group_name_H-M   'P 21/n'
_symmetry_Int_Tables_number      14
_space_group_name_Hall           '-P 2yn'
loop_
_symmetry_equiv_pos_site_id
_symmetry_equiv_pos_as_xyz
1 x,y,z
2 1/2-x,1/2+y,1/2-z
3 -x,-y,-z
4 1/2+x,1/2-y,1/2+z
_cell_length_a                   12.17(2)
_cell_length_b                   19.34(2)
_cell_length_c                   6.55(2)
_cell_angle_alpha                90
_cell_angle_beta                 93.0(3)
_cell_angle_gamma                90
_cell_volume                     1539.55
loop_
_atom_site_label
_atom_site_type_symbol
_atom_site_fract_x
_atom_site_fract_y
_atom_site_fract_z
Ag1 Ag 0.44100 0.48400 -0.22900
Ag2 Ag 0.12200 0.24200 0.06000
C1 C 0.27400 0.47400 -0.41200
C2 C 0.05000 0.38100 -0.28300
C3 C 0.10700 0.37300 0.08200
C4 C 0.00500 0.34700 0.13500
C5 C 0.30500 0.40700 -0.34900
C6 C 0.25200 0.37000 -0.17100
C7 C 0.14000 0.39900 -0.11300
C8 C 0.14800 0.47700 -0.10300
C9 C 0.17900 0.51100 -0.30300
C10 C 0.25300 0.28800 -0.20600
C11 C 0.30200 0.24600 -0.06800
C12 C 0.23100 0.26200 -0.41600
N1 N 0.49000 0.63200 -0.29000
N2 N 0.64300 0.38900 -0.20400
O1 O 0.55800 0.58900 -0.21100
O2 O -0.02400 0.19300 -0.18100
O3 O 0.39100 0.62100 -0.31500
O4 O 0.62100 0.45300 -0.14100
O5 O 0.74200 0.37700 -0.22200
O6 O 0.55700 0.35000 -0.22700
O2A O 0.52400 0.69300 -0.31900
N1A N 0.01000 0.13200 -0.21000
O6C O 0.05700 0.15000 0.27300
Ag2A Ag 0.37800 0.74200 -0.56000
O1A O -0.05800 0.08900 -0.28900
O3A O 0.10900 0.12100 -0.18500
Ag2C Ag 0.62200 0.25800 -0.44000
C11A C 0.19800 0.74600 -0.43200
O6B O 0.44300 0.65000 -0.77300
Ag1A Ag 0.05900 -0.01600 -0.27100
C10A C 0.24700 0.78800 -0.29400
N2B N 0.35700 0.61100 -0.79600
C6A C 0.24800 0.87000 -0.32900
C12A C 0.26900 0.76200 -0.08400
O4B O 0.37900 0.54700 -0.85900
O5B O 0.25800 0.62300 -0.77800
C5A C 0.19500 0.90700 -0.15100
C7A C 0.36000 0.89900 -0.38700
Ag1B Ag 0.55900 0.51600 -0.77100
C2A C 0.45000 0.88100 -0.21700
C3A C 0.39300 0.87300 -0.58200
C8A C 0.35200 0.97700 -0.39700
C4A C 0.49500 0.84700 -0.63500
Ag1A_2 Ag 0.05900 0.98400 -0.27100
C1A C 0.22600 0.97400 -0.08800
C9A C 0.32100 1.01100 -0.19700
O1A_2 O -0.05800 1.08900 -0.28900
O4A O -0.12100 0.95300 -0.35900
loop_
_geom_bond_atom_site_label_1
_geom_bond_atom_site_label_2
_geom_bond_site_symmetry_1
_geom_bond_site_symmetry_2
Ag1 C1 1_555 1_555
Ag2 C11 1_555 1_555
C1 C5 1_555 1_555
C2 C7 1_555 1_555
C3 C4 1_555 1_555
C5 Ag1 1_555 1_555
C6 C5 1_555 1_555
C7 C3 1_555 1_555
C8 C7 1_555 1_555
C9 C1 1_555 1_555
C10 C6 1_555 1_555
C11 C10 1_555 1_555
C12 C10 1_555 1_555
N1 O1 1_555 1_555
N2 O4 1_555 1_555
O1 Ag1 1_555 1_555
O2 Ag2 1_555 1_555
O3 N1 1_555 1_555
O4 Ag1 1_555 1_555
O5 N2 1_555 1_555
O6 N2 1_555 1_555
O2A N1 1_555 1_555
N1A O2 1_555 1_555
O6C Ag2 1_555 1_555
Ag2A O2A 1_555 1_555
O1A N1A 1_555 1_555
O3A N1A 1_555 1_555
Ag2C O6 1_555 1_555
C11A Ag2A 1_555 1_555
O6B Ag2A 1_555 1_555
Ag1A O1A 1_555 1_555
C10A C11A 1_555 1_555
N2B O6B 1_555 1_555
C6A C10A 1_555 1_555
C12A C10A 1_555 1_555
O4B N2B 1_555 1_555
O5B N2B 1_555 1_555
C5A C6A 1_555 1_555
C7A C6A 1_555 1_555
Ag1B O4B 1_555 1_555
C2A C7A 1_555 1_555
C3A C7A 1_555 1_555
C8A C7A 1_555 1_555
C4A C3A 1_555 1_555
Ag1A_2 C5A 1_555 1_555
C1A C5A 1_555 1_555
C9A C8A 1_555 1_555
O1A_2 Ag1A_2 1_555 1_555
O4A Ag1A_2 1_555 1_555
C6 C7 1_555 1_555
C8 C9 1_555 1_555
Ag1A_2 C1A 1_555 1_555
C1A C9A 1_555 1_555

#END
