
#######################################################################
#
#                 Cambridge Crystallographic Data Centre
#                                CCDC 
#
#######################################################################
#
# If this CIF has been generated from an entry in the Cambridge 
# Structural Database, then it will include bibliographic, chemical, 
# crystal, experimental, refinement or atomic coordinate data resulting 
# from the CCDC's data processing and validation procedures.
#
#######################################################################

data_GEJBOO
_symmetry_cell_setting           orthorhombic
_symmetry_space_group_name_H-M   'P 21 21 21'
_symmetry_Int_Tables_number      19
_space_group_name_Hall           'P 2ac 2ab'
loop_
_symmetry_equiv_pos_site_id
_symmetry_equiv_pos_as_xyz
1 x,y,z
2 1/2-x,-y,1/2+z
3 1/2+x,1/2-y,-z
4 -x,1/2+y,1/2-z
_cell_length_a                   5.5785(6)
_cell_length_b                   8.5311(7)
_cell_length_c                   15.4048(11)
_cell_angle_alpha                90
_cell_angle_beta                 90
_cell_angle_gamma                90
_cell_volume                     733.126
loop_
_atom_site_label
_atom_site_type_symbol
_atom_site_fract_x
_atom_site_fract_y
_atom_site_fract_z
Ag1 Ag -0.25304(8) 0.40443(3) 0.559750(17)
O1 O 0.0592(5) 0.4191(3) 0.68049(19)
O2 O 0.3231(5) 0.2290(3) 0.67285(19)
O3 O 0.7680(8) 0.9883(3) 0.63452(15)
O4 O 0.7506(8) 1.1358(3) 0.51811(15)
N1 N 0.3755(6) 0.6219(3) 0.6468(2)
N2 N 0.4734(6) 0.6971(4) 0.58063(19)
N3 N 0.3991(6) 0.8433(4) 0.5931(2)
N4 N 0.4727(6) 0.9586(4) 0.5345(2)
N5 N 0.6702(6) 1.0271(4) 0.5659(2)
N6 N 0.4543(6) 0.4664(4) 0.6559(2)
N7 N 0.2667(10) 0.3696(3) 0.66945(18)
C1 C 0.2455(11) 0.7152(4) 0.6996(2)
H1 H 0.1642 0.6862 0.7498
C2 C 0.2587(11) 0.8596(4) 0.6640(2)
H2 H 0.1864 0.9510 0.6840
Ag1_2 Ag 0.74696(8) 1.40443(3) 0.559750(17)
Ag1B Ag 0.24696(8) 1.09557(3) 0.440250(17)
Ag1_3 Ag 0.74696(8) 0.40443(3) 0.559750(17)
O4_2 O -0.2494(8) 0.1358(3) 0.51811(15)
N4B N -0.0273(6) 0.5414(4) 0.4655(2)
N6_2 N -0.5457(6) 0.4664(4) 0.6559(2)
loop_
_geom_bond_atom_site_label_1
_geom_bond_atom_site_label_2
_geom_bond_site_symmetry_1
_geom_bond_site_symmetry_2
Ag1 O1 1_555 1_555
O1 N7 1_555 1_555
O2 N7 1_555 1_555
O3 N5 1_555 1_555
O4 N5 1_555 1_555
N1 N2 1_555 1_555
N2 N3 1_555 1_555
N3 N4 1_555 1_555
N4 N5 1_555 1_555
N6 N1 1_555 1_555
N7 N6 1_555 1_555
C1 N1 1_555 1_555
H1 C1 1_555 1_555
C2 N3 1_555 1_555
H2 C2 1_555 1_555
Ag1_2 O4 1_555 1_555
Ag1B N4 1_555 1_555
Ag1_3 N6 1_555 1_555
O4_2 Ag1 1_555 1_555
N4B Ag1 1_555 1_555
N6_2 Ag1 1_555 1_555
C1 C2 1_555 1_555

#END
