
#######################################################################
#
#                 Cambridge Crystallographic Data Centre
#                                CCDC 
#
#######################################################################
#
# If this CIF has been generated from an entry in the Cambridge 
# Structural Database, then it will include bibliographic, chemical, 
# crystal, experimental, refinement or atomic coordinate data resulting 
# from the CCDC's data processing and validation procedures.
#
#######################################################################

data_GEJDEF
_symmetry_cell_setting           monoclinic
_symmetry_space_group_name_H-M   'C 2/c'
_symmetry_Int_Tables_number      15
_space_group_name_Hall           '-C 2yn'
loop_
_symmetry_equiv_pos_site_id
_symmetry_equiv_pos_as_xyz
1 x,y,z
2 1/2+x,1/2+y,z
3 -x,y,1/2-z
4 1/2-x,1/2+y,1/2-z
5 -x,-y,-z
6 1/2-x,1/2-y,-z
7 x,-y,1/2+z
8 1/2+x,1/2-y,1/2+z
_cell_length_a                   21.684(4)
_cell_length_b                   11.376(2)
_cell_length_c                   11.032(2)
_cell_angle_alpha                90
_cell_angle_beta                 92.828(3)
_cell_angle_gamma                90
_cell_volume                     2718.03
loop_
_atom_site_label
_atom_site_type_symbol
_atom_site_fract_x
_atom_site_fract_y
_atom_site_fract_z
Co1 Co 0.5000 0.45109(2) 0.2500
S1 S 0.64648(2) 0.29587(5) -0.05304(4)
N1 N 0.5000 0.63866(14) 0.2500
N2 N 0.5000 1.26286(14) 0.2500
O1 O 0.44224(6) 0.44102(10) 0.09099(10)
H1 H 0.4083(7) 0.4274(16) 0.1167(18)
H2 H 0.4357(8) 0.4869(15) 0.0357(15)
O2 O 0.65046(6) 0.38875(15) 0.27350(12)
O3 O 0.57711(5) 0.44678(8) 0.13841(10)
C1 C 0.66148(7) 0.15324(16) 0.00444(15)
C2 C 0.69033(9) 0.12703(19) 0.11662(16)
H3 H 0.7018 0.1873 0.1700
C3 C 0.70195(9) 0.0114(2) 0.14862(18)
H4 H 0.7222 -0.0044 0.2231
C4 C 0.68453(9) -0.08159(19) 0.07403(18)
C5 C 0.65512(9) -0.05479(18) -0.03670(18)
H5 H 0.6426 -0.1155 -0.0887
C6 C 0.64388(8) 0.06047(18) -0.07176(16)
H6 H 0.6244 0.0760 -0.1470
C7 C 0.69710(11) -0.2069(2) 0.1131(2)
H7 H 0.7409 -0.2191 0.1232
H8 H 0.6802 -0.2596 0.0522
H9 H 0.6783 -0.2216 0.1885
C8 C 0.67476(8) 0.39395(18) 0.06550(16)
H10 H 0.7138 0.3639 0.0993
H11 H 0.6827 0.4701 0.0299
C9 C 0.63101(7) 0.41077(15) 0.16875(15)
C10 C 0.52967(8) 0.70032(14) 0.16867(15)
H12 H 0.5509 0.6594 0.1108
C11 C 0.53074(8) 0.82137(13) 0.16535(14)
H13 H 0.5522 0.8598 0.1061
C12 C 0.5000 0.88602(16) 0.2500
C13 C 0.5000 1.01569(17) 0.2500
C14 C 0.52204(7) 1.08002(12) 0.15429(14)
H14 H 0.5378 1.0413 0.0883
C15 C 0.52064(7) 1.20133(13) 0.15689(13)
H15 H 0.5347 1.2423 0.0907
Co1_2 Co 0.5000 1.45109(2) 0.2500
S1B S 0.35352(2) 0.29587(5) 0.55304(4)
N2_2 N 0.5000 0.26286(14) 0.2500
O1B O 0.55776(6) 0.44102(10) 0.40901(10)
H1B H 0.5917(7) 0.4274(16) 0.3833(18)
H2B H 0.5643(8) 0.4869(15) 0.4643(15)
O2B O 0.34954(6) 0.38875(15) 0.22650(12)
O3B O 0.42289(5) 0.44678(8) 0.36159(10)
C1B C 0.33852(7) 0.15324(16) 0.49556(15)
C2B C 0.30967(9) 0.12703(19) 0.38338(16)
H3B H 0.2982 0.1873 0.3300
C3B C 0.29805(9) 0.0114(2) 0.35138(18)
H4B H 0.2778 -0.0044 0.2769
C4B C 0.31547(9) -0.08159(19) 0.42597(18)
C5B C 0.34488(9) -0.05479(18) 0.53670(18)
H5B H 0.3574 -0.1155 0.5887
C6B C 0.35612(8) 0.06047(18) 0.57176(16)
H6B H 0.3756 0.0760 0.6470
C7B C 0.30290(11) -0.2069(2) 0.3869(2)
H7B H 0.2591 -0.2191 0.3768
H8B H 0.3198 -0.2596 0.4478
H9B H 0.3217 -0.2216 0.3115
C8B C 0.32524(8) 0.39395(18) 0.43450(16)
H10B H 0.2862 0.3639 0.4007
H11B H 0.3173 0.4701 0.4701
C9B C 0.36899(7) 0.41077(15) 0.33125(15)
C10B C 0.47033(8) 0.70032(14) 0.33133(15)
H12B H 0.4491 0.6594 0.3892
C11B C 0.46926(8) 0.82137(13) 0.33465(14)
H13B H 0.4478 0.8598 0.3939
C14B C 0.47796(7) 1.08002(12) 0.34571(14)
H14B H 0.4622 1.0413 0.4117
C15B C 0.47936(7) 1.20133(13) 0.34311(13)
H15B H 0.4653 1.2423 0.4093
loop_
_geom_bond_atom_site_label_1
_geom_bond_atom_site_label_2
_geom_bond_site_symmetry_1
_geom_bond_site_symmetry_2
Co1 N1 1_555 1_555
S1 C1 1_555 1_555
N1 C10 1_555 1_555
N2 C15 1_555 1_555
O1 Co1 1_555 1_555
H1 O1 1_555 1_555
H2 O1 1_555 1_555
O2 C9 1_555 1_555
O3 Co1 1_555 1_555
C1 C2 1_555 1_555
C2 H3 1_555 1_555
C3 C2 1_555 1_555
H4 C3 1_555 1_555
C4 C3 1_555 1_555
C5 C4 1_555 1_555
H5 C5 1_555 1_555
C6 C1 1_555 1_555
H6 C6 1_555 1_555
C7 C4 1_555 1_555
H7 C7 1_555 1_555
H8 C7 1_555 1_555
H9 C7 1_555 1_555
C8 S1 1_555 1_555
H10 C8 1_555 1_555
H11 C8 1_555 1_555
C9 O3 1_555 1_555
C10 H12 1_555 1_555
C11 C10 1_555 1_555
H13 C11 1_555 1_555
C12 C11 1_555 1_555
C13 C12 1_555 1_555
C14 C13 1_555 1_555
H14 C14 1_555 1_555
C15 C14 1_555 1_555
H15 C15 1_555 1_555
Co1_2 N2 1_555 1_555
S1B C1B 1_555 1_555
N2_2 Co1 1_555 1_555
O1B Co1 1_555 1_555
H1B O1B 1_555 1_555
H2B O1B 1_555 1_555
O2B C9B 1_555 1_555
O3B Co1 1_555 1_555
C1B C2B 1_555 1_555
C2B H3B 1_555 1_555
C3B C2B 1_555 1_555
H4B C3B 1_555 1_555
C4B C3B 1_555 1_555
C5B C4B 1_555 1_555
H5B C5B 1_555 1_555
C6B C1B 1_555 1_555
H6B C6B 1_555 1_555
C7B C4B 1_555 1_555
H7B C7B 1_555 1_555
H8B C7B 1_555 1_555
H9B C7B 1_555 1_555
C8B S1B 1_555 1_555
H10B C8B 1_555 1_555
H11B C8B 1_555 1_555
C9B O3B 1_555 1_555
C10B N1 1_555 1_555
H12B C10B 1_555 1_555
C11B C12 1_555 1_555
H13B C11B 1_555 1_555
C14B C13 1_555 1_555
H14B C14B 1_555 1_555
C15B N2 1_555 1_555
H15B C15B 1_555 1_555
C5 C6 1_555 1_555
C8 C9 1_555 1_555
C5B C6B 1_555 1_555
C8B C9B 1_555 1_555
C10B C11B 1_555 1_555
C14B C15B 1_555 1_555

#END
