
#######################################################################
#
#                 Cambridge Crystallographic Data Centre
#                                CCDC 
#
#######################################################################
#
# If this CIF has been generated from an entry in the Cambridge 
# Structural Database, then it will include bibliographic, chemical, 
# crystal, experimental, refinement or atomic coordinate data resulting 
# from the CCDC's data processing and validation procedures.
#
#######################################################################

data_GEJFEI
_symmetry_cell_setting           triclinic
_symmetry_space_group_name_H-M   'P -1'
_symmetry_Int_Tables_number      2
_space_group_name_Hall           '-P 1'
loop_
_symmetry_equiv_pos_site_id
_symmetry_equiv_pos_as_xyz
1 x,y,z
2 -x,-y,-z
_cell_length_a                   8.589(4)
_cell_length_b                   10.585(3)
_cell_length_c                   13.094(1)
_cell_angle_alpha                84.91(4)
_cell_angle_beta                 79.210(1)
_cell_angle_gamma                83.76(4)
_cell_volume                     1159.61
loop_
_atom_site_label
_atom_site_type_symbol
_atom_site_fract_x
_atom_site_fract_y
_atom_site_fract_z
Cd1 Cd 0.16949(3) -0.19251(3) 0.38092(2)
Cd2 Cd 0.26383(3) -0.18255(3) 0.07960(2)
C1 C 0.2248(6) -0.1975(4) 0.5848(3)
C2 C 0.2569(6) -0.1940(5) 0.6925(3)
H1 H 0.3626 -0.2034 0.7013
C3 C 0.1478(6) -0.1786(4) 0.7752(3)
H2 H 0.0420 -0.1693 0.7666
C4 C 0.1809(5) -0.1750(4) 0.8835(3)
C5 C -0.0831(5) -0.1535(4) 0.2720(3)
C6 C -0.2114(5) -0.1497(5) 0.2085(3)
H3 H -0.1815 -0.1446 0.1363
C7 C -0.3591(5) -0.1529(5) 0.2465(3)
H4 H -0.3903 -0.1500 0.3182
C8 C -0.4858(5) -0.1610(4) 0.1834(3)
C9 C 0.0961(9) -0.4941(6) 0.3753(4)
C10 C 0.3321(9) -0.4781(6) 0.4084(5)
H5 H 0.4227 -0.4446 0.4195
C11 C 0.3107(12) -0.6016(7) 0.4128(6)
H6 H 0.3837 -0.6693 0.4271
C12 C -0.0593(10) -0.4682(7) 0.3505(5)
H7 H -0.1317 -0.5187 0.3976
H8 H -0.0569 -0.4890 0.2803
H9 H -0.0941 -0.3795 0.3569
C13 C 0.3644(9) -0.4886(5) 0.1228(3)
C14 C 0.1338(9) -0.4536(6) 0.0776(4)
H10 H 0.0435 -0.4095 0.0575
C15 C 0.1539(12) -0.5752(8) 0.0942(6)
H11 H 0.0842 -0.6339 0.0871
C16 C 0.5227(9) -0.4768(6) 0.1465(4)
H12 H 0.5740 -0.4135 0.0986
H13 H 0.5858 -0.5573 0.1399
H14 H 0.5117 -0.4519 0.2164
N1 N 0.1953(5) -0.4080(4) 0.3843(3)
N2 N 0.1637(10) -0.6103(5) 0.3928(4)
H15 H 0.1212 -0.6800 0.3916
N3 N 0.2639(6) -0.3967(4) 0.0937(3)
N4 N 0.2998(10) -0.6004(5) 0.1245(4)
H16 H 0.3429 -0.6746 0.1416
O1 O 0.0840(4) -0.1926(3) 0.5695(2)
O2 O 0.3421(4) -0.2063(4) 0.5115(3)
O3 O 0.3223(4) -0.1841(3) 0.8969(2)
O4 O 0.0651(4) -0.1657(3) 0.9565(2)
O5 O 0.0565(4) -0.1654(4) 0.2240(2)
O6 O -0.1143(4) -0.1490(3) 0.3679(2)
O7 O -0.4589(3) -0.1471(3) 0.0859(2)
O8 O -0.6193(3) -0.1851(3) 0.2336(2)
O9 O 0.2336(4) 0.0371(3) 0.0663(3)
H17 H 0.297(5) 0.081(5) 0.027(4)
H18 H 0.142(3) 0.071(5) 0.068(4)
O10 O 0.1861(6) 0.0202(4) 0.3735(5)
H19 H 0.107(6) 0.071(6) 0.387(7)
H20 H 0.266(6) 0.058(7) 0.356(7)
Cd1_2 Cd -0.83051(3) -0.19251(3) 0.38092(2)
Cd2_2 Cd 0.26383(3) -0.18255(3) 1.07960(2)
Cd2_3 Cd -0.73617(3) -0.18255(3) 0.07960(2)
C4_2 C 0.1809(5) -0.1750(4) -0.1165(3)
C8_2 C 0.5142(5) -0.1610(4) 0.1834(3)
O3_2 O 0.3223(4) -0.1841(3) -0.1031(2)
O4_2 O 0.0651(4) -0.1657(3) -0.0435(2)
O7_2 O 0.5411(3) -0.1471(3) 0.0859(2)
O8_2 O 0.3807(3) -0.1851(3) 0.2336(2)
O11 O 0.3669(12) -0.8901(14) 0.4787(8)
H21 H 0.278(10) -0.919(17) 0.486(15)
H22 H 0.39(2) -0.881(17) 0.538(6)
O12 O 0.3849(6) -0.8428(5) 0.2062(4)
H23 H 0.479(4) -0.830(8) 0.181(7)
H24 H 0.382(11) -0.919(2) 0.226(7)
loop_
_geom_bond_atom_site_label_1
_geom_bond_atom_site_label_2
_geom_bond_site_symmetry_1
_geom_bond_site_symmetry_2
Cd1 N1 1_555 1_555
Cd2 N3 1_555 1_555
C1 C2 1_555 1_555
C2 H1 1_555 1_555
C3 C2 1_555 1_555
H2 C3 1_555 1_555
C4 C3 1_555 1_555
C5 C6 1_555 1_555
C6 H3 1_555 1_555
C7 C6 1_555 1_555
H4 C7 1_555 1_555
C8 C7 1_555 1_555
C9 C12 1_555 1_555
C10 H5 1_555 1_555
C11 C10 1_555 1_555
H6 C11 1_555 1_555
C12 H7 1_555 1_555
H8 C12 1_555 1_555
H9 C12 1_555 1_555
C13 C16 1_555 1_555
C14 H10 1_555 1_555
C15 C14 1_555 1_555
H11 C15 1_555 1_555
C16 H12 1_555 1_555
H13 C16 1_555 1_555
H14 C16 1_555 1_555
N1 C9 1_555 1_555
N2 C9 1_555 1_555
H15 N2 1_555 1_555
N3 C13 1_555 1_555
N4 C13 1_555 1_555
H16 N4 1_555 1_555
O1 Cd1 1_555 1_555
O2 Cd1 1_555 1_555
O3 C4 1_555 1_555
O4 C4 1_555 1_555
O5 Cd1 1_555 1_555
O6 Cd1 1_555 1_555
O7 C8 1_555 1_555
O8 C8 1_555 1_555
O9 Cd2 1_555 1_555
H17 O9 1_555 1_555
H18 O9 1_555 1_555
O10 Cd1 1_555 1_555
H19 O10 1_555 1_555
H20 O10 1_555 1_555
O11 H21 1_555 1_555
H22 O11 1_555 1_555
O12 H23 1_555 1_555
H24 O12 1_555 1_555
Cd1_2 O8 1_555 1_555
Cd2_2 O3 1_555 1_555
Cd2_3 O7 1_555 1_555
C4_2 O3_2 1_555 1_555
C8_2 O7_2 1_555 1_555
O3_2 Cd2 1_555 1_555
O4_2 Cd2 1_555 1_555
O7_2 Cd2 1_555 1_555
O8_2 Cd1 1_555 1_555
Cd2 O5 1_555 1_555
Cd2 O8_2 1_555 1_555
C1 O1 1_555 1_555
C1 O2 1_555 1_555
C5 O5 1_555 1_555
C5 O6 1_555 1_555
C10 N1 1_555 1_555
C11 N2 1_555 1_555
C14 N3 1_555 1_555
C15 N4 1_555 1_555
O4 Cd2_2 1_555 1_555
O8 Cd2_3 1_555 1_555
C4_2 O4_2 1_555 1_555
C8_2 O8_2 1_555 1_555

#END
