
#######################################################################
#
#                 Cambridge Crystallographic Data Centre
#                                CCDC 
#
#######################################################################
#
# If this CIF has been generated from an entry in the Cambridge 
# Structural Database, then it will include bibliographic, chemical, 
# crystal, experimental, refinement or atomic coordinate data resulting 
# from the CCDC's data processing and validation procedures.
#
#######################################################################

data_GEJHIO
_symmetry_cell_setting           orthorhombic
_symmetry_space_group_name_H-M   'P 21 21 2'
_symmetry_Int_Tables_number      18
_space_group_name_Hall           'P 2 2ab'
loop_
_symmetry_equiv_pos_site_id
_symmetry_equiv_pos_as_xyz
1 x,y,z
2 -x,-y,z
3 1/2-x,1/2+y,-z
4 1/2+x,1/2-y,-z
_cell_length_a                   36.150(3)
_cell_length_b                   5.3476(4)
_cell_length_c                   7.3795(5)
_cell_angle_alpha                90
_cell_angle_beta                 90
_cell_angle_gamma                90
_cell_volume                     1426.57
loop_
_atom_site_label
_atom_site_type_symbol
_atom_site_fract_x
_atom_site_fract_y
_atom_site_fract_z
Ag1 Ag 0.841559(13) 0.15484(7) 0.25825(8)
Ag2 Ag 0.5000 0.5000 0.93803(9)
S1 S 0.64126(4) 0.6318(3) 0.1418(2)
N1 N 0.77153(12) 0.2370(8) 0.2533(7)
N2 N 0.54495(14) 0.5017(12) 0.6754(7)
C1 C 0.75416(17) 0.4271(11) 0.3312(8)
H1 H 0.7687 0.5470 0.3970
C2 C 0.71690(16) 0.4616(11) 0.3232(7)
H2 H 0.7058 0.6016 0.3838
C3 C 0.69525(14) 0.2963(9) 0.2285(8)
C4 C 0.71347(17) 0.0955(10) 0.1456(8)
H3 H 0.6997 -0.0259 0.0775
C5 C 0.75069(16) 0.0741(10) 0.1624(8)
H4 H 0.7627 -0.0658 0.1058
C6 C 0.65369(16) 0.3199(11) 0.2153(8)
H5 H 0.6428 0.2865 0.3313
H6 H 0.6443 0.1993 0.1305
C7 C 0.59044(16) 0.6013(13) 0.1426(8)
H7 H 0.5798 0.7482 0.0891
H8 H 0.5836 0.4606 0.0692
C8 C 0.57475(16) 0.5672(11) 0.3293(8)
C9 C 0.58069(18) 0.7370(12) 0.4645(9)
H9 H 0.5957 0.8816 0.4416
C10 C 0.56526(18) 0.7023(13) 0.6338(9)
H10 H 0.5693 0.8273 0.7251
C11 C 0.5393(2) 0.3388(14) 0.5430(10)
H11 H 0.5240 0.1962 0.5691
C12 C 0.55353(18) 0.3591(14) 0.3717(10)
H12 H 0.5489 0.2318 0.2828
C13 C 0.85059(14) 0.5532(8) 0.2839(8)
N3 N 0.84844(17) 0.7647(11) 0.2864(8)
C14 C 0.5001(2) 0.8928(10) 0.9940(7)
N4 N 0.4999(2) 1.1072(10) 0.9940(7)
Ag1A Ag 0.158441(13) 0.84516(7) 0.25825(8)
Ag1_2 Ag 0.841559(13) 1.15484(7) 0.25825(8)
Ag1_3 Ag 0.841559(13) -0.84516(7) 0.25825(8)
Ag2_2 Ag 0.5000 1.5000 0.93803(9)
Ag2_3 Ag 0.5000 -0.5000 0.93803(9)
S1A S 0.35874(4) 0.3682(3) 0.1418(2)
N1A N 0.22847(12) 0.7630(8) 0.2533(7)
N2A N 0.45505(14) 0.4983(12) 0.6754(7)
C1A C 0.24584(17) 0.5729(11) 0.3312(8)
H1A H 0.2313 0.4530 0.3970
C2A C 0.28310(16) 0.5384(11) 0.3232(7)
H2A H 0.2942 0.3984 0.3838
C3A C 0.30475(14) 0.7037(9) 0.2285(8)
C4A C 0.28653(17) 0.9045(10) 0.1456(8)
H3A H 0.3003 1.0259 0.0775
C5A C 0.24931(16) 0.9259(10) 0.1624(8)
H4A H 0.2373 1.0658 0.1058
C6A C 0.34631(16) 0.6801(11) 0.2153(8)
H5A H 0.3572 0.7135 0.3313
H6A H 0.3557 0.8007 0.1305
C7A C 0.40956(16) 0.3987(13) 0.1426(8)
H7A H 0.4202 0.2518 0.0891
H8A H 0.4164 0.5394 0.0692
C8A C 0.42525(16) 0.4328(11) 0.3293(8)
C9A C 0.41931(18) 0.2630(12) 0.4645(9)
H9A H 0.4043 0.1184 0.4416
C10A C 0.43474(18) 0.2977(13) 0.6338(9)
H10A H 0.4307 0.1727 0.7251
C11A C 0.4607(2) 0.6612(14) 0.5430(10)
H11A H 0.4760 0.8038 0.5691
C12A C 0.44647(18) 0.6409(14) 0.3717(10)
H12A H 0.4511 0.7682 0.2828
C13_2 C 0.85059(14) -0.4468(8) 0.2839(8)
C13A C 0.14941(14) 0.4468(8) 0.2839(8)
N3_2 N 0.84844(17) -0.2353(11) 0.2864(8)
N3A N 0.15156(17) 1.2353(11) 0.2864(8)
C14A C 0.4999(2) 0.1072(10) 0.9940(7)
N4A N 0.5001(2) -0.1072(10) 0.9940(7)
loop_
_geom_bond_atom_site_label_1
_geom_bond_atom_site_label_2
_geom_bond_site_symmetry_1
_geom_bond_site_symmetry_2
Ag1 N1 1_555 1_555
Ag2 N2 1_555 1_555
S1 C6 1_555 1_555
N1 C1 1_555 1_555
N2 C10 1_555 1_555
C1 H1 1_555 1_555
C2 C1 1_555 1_555
H2 C2 1_555 1_555
C3 C2 1_555 1_555
C4 C3 1_555 1_555
H3 C4 1_555 1_555
C5 N1 1_555 1_555
H4 C5 1_555 1_555
C6 C3 1_555 1_555
H5 C6 1_555 1_555
H6 C6 1_555 1_555
C7 S1 1_555 1_555
H7 C7 1_555 1_555
H8 C7 1_555 1_555
C8 C7 1_555 1_555
C9 C8 1_555 1_555
H9 C9 1_555 1_555
C10 C9 1_555 1_555
H10 C10 1_555 1_555
C11 N2 1_555 1_555
H11 C11 1_555 1_555
C12 C8 1_555 1_555
H12 C12 1_555 1_555
C13 Ag1 1_555 1_555
N3 C13 1_555 1_555
C14 Ag2 1_555 1_555
N4 C14 1_555 1_555
Ag1A N1A 1_555 1_555
Ag1_2 N3 1_555 1_555
Ag1_3 C13_2 1_555 1_555
Ag2_2 N4 1_555 1_555
Ag2_3 N4A 1_555 1_555
S1A C6A 1_555 1_555
N1A C1A 1_555 1_555
N2A Ag2 1_555 1_555
C1A H1A 1_555 1_555
C2A C1A 1_555 1_555
H2A C2A 1_555 1_555
C3A C2A 1_555 1_555
C4A C3A 1_555 1_555
H3A C4A 1_555 1_555
C5A N1A 1_555 1_555
H4A C5A 1_555 1_555
C6A C3A 1_555 1_555
H5A C6A 1_555 1_555
H6A C6A 1_555 1_555
C7A S1A 1_555 1_555
H7A C7A 1_555 1_555
H8A C7A 1_555 1_555
C8A C7A 1_555 1_555
C9A C8A 1_555 1_555
H9A C9A 1_555 1_555
C10A N2A 1_555 1_555
H10A C10A 1_555 1_555
C11A N2A 1_555 1_555
H11A C11A 1_555 1_555
C12A C8A 1_555 1_555
H12A C12A 1_555 1_555
C13_2 N3_2 1_555 1_555
C13A Ag1A 1_555 1_555
N3_2 Ag1 1_555 1_555
N3A Ag1A 1_555 1_555
C14A Ag2 1_555 1_555
N4A C14A 1_555 1_555
C4 C5 1_555 1_555
C11 C12 1_555 1_555
C4A C5A 1_555 1_555
C9A C10A 1_555 1_555
C11A C12A 1_555 1_555

#END
