
#######################################################################
#
#                 Cambridge Crystallographic Data Centre
#                                CCDC 
#
#######################################################################
#
# If this CIF has been generated from an entry in the Cambridge 
# Structural Database, then it will include bibliographic, chemical, 
# crystal, experimental, refinement or atomic coordinate data resulting 
# from the CCDC's data processing and validation procedures.
#
#######################################################################

data_GEJHIN
_symmetry_cell_setting           triclinic
_symmetry_space_group_name_H-M   'P -1'
_symmetry_Int_Tables_number      2
_space_group_name_Hall           '-P 1'
loop_
_symmetry_equiv_pos_site_id
_symmetry_equiv_pos_as_xyz
1 x,y,z
2 -x,-y,-z
_cell_length_a                   10.0666(12)
_cell_length_b                   10.2989(14)
_cell_length_c                   11.5496(15)
_cell_angle_alpha                111.146(13)
_cell_angle_beta                 96.060(11)
_cell_angle_gamma                111.332(14)
_cell_volume                     1000.87
loop_
_atom_site_label
_atom_site_type_symbol
_atom_site_fract_x
_atom_site_fract_y
_atom_site_fract_z
Mn1 Mn 0.80951(4) 0.83050(4) 0.29096(3)
S1 S 0.62415(8) 0.28207(7) 0.06335(8)
S2 S 0.29492(8) 0.71731(9) 0.24255(8)
O1 O 1.03142(17) 0.84315(18) 0.35006(16)
H1 H 1.0424 0.8455 0.4242
H2 H 1.1047 0.9135 0.3509
O2 O 0.8613(2) 0.8542(2) 0.11711(17)
H3 H 0.9145 0.9585 0.1502
H4 H 0.9091 0.8150 0.0730
O3 O 0.79805(18) 0.80890(19) 0.46814(16)
O4 O 0.7074(2) 0.92116(19) 0.62065(19)
O5 O 0.86469(18) 1.07902(18) 0.37370(16)
O6 O 0.9967(2) 1.1578(2) 0.24850(18)
N1 N 0.7034(2) 0.5741(2) 0.17317(19)
N2 N 0.5635(2) 0.7590(2) 0.2488(2)
N3 N 0.9013(3) 0.5102(3) 0.1421(3)
H9 H 0.9692 0.5968 0.1842
H10 H 0.9316 0.4440 0.1206
N4 N 0.5381(3) 0.9883(3) 0.3442(3)
H11 H 0.6275 1.0678 0.3662
H12 H 0.4786 1.0250 0.3677
C1 C 0.5503(3) 0.5013(3) 0.1465(2)
C2 C 0.4893(3) 0.3459(3) 0.0870(3)
H13 H 0.3883 0.2821 0.0621
C3 C 0.7579(3) 0.4726(3) 0.1329(2)
C4 C 0.4752(3) 0.6010(3) 0.1877(2)
C5 C 0.3288(3) 0.5577(3) 0.1753(3)
H14 H 0.2564 0.4561 0.1361
C6 C 0.4835(3) 0.8352(3) 0.2840(3)
C7 C 0.7097(3) 0.8034(3) 0.5370(2)
C8 C 0.6009(3) 0.6463(3) 0.5186(2)
C9 C 0.6110(3) 0.5141(3) 0.4380(2)
H15 H 0.6857 0.5231 0.3962
C10 C 0.4888(3) 0.6297(3) 0.5805(2)
H16 H 0.4811 0.7171 0.6351
C11 C 0.9427(3) 1.1833(3) 0.3425(2)
C12 C 0.9722(3) 1.3473(3) 0.4248(2)
C13 C 1.0768(3) 1.4680(3) 0.4095(2)
H17 H 1.1288 1.4469 0.3486
C14 C 0.8958(3) 1.3813(3) 0.5162(2)
H18 H 0.8254 1.3016 0.5273
Mn1A Mn 0.19049(4) 0.16950(4) 0.70904(3)
Mn1A_2 Mn 1.19049(4) 2.16950(4) 0.70904(3)
S1A S 0.37585(8) 0.71793(7) 0.93665(8)
S2A S 0.70508(8) 0.28269(9) 0.75745(8)
O1A O -0.03142(17) 0.15685(18) 0.64994(16)
H1A H -0.0424 0.1545 0.5758
H2A H -0.1047 0.0865 0.6491
O2A O 0.1387(2) 0.1458(2) 0.88289(17)
H3A H 0.0855 0.0415 0.8498
H4A H 0.0909 0.1850 0.9270
O3A O 0.20195(18) 0.19110(19) 0.53186(16)
O4A O 0.2926(2) 0.07884(19) 0.37935(19)
O5A O 1.13531(18) 1.92098(18) 0.62630(16)
O5A_2 O 0.13531(18) -0.07902(18) 0.62630(16)
O6A O 1.0033(2) 1.8422(2) 0.75150(18)
N1A N 0.2966(2) 0.4259(2) 0.82683(19)
N2A N 0.4365(2) 0.2410(2) 0.7512(2)
N3A N 0.0987(3) 0.4898(3) 0.8579(3)
H9A H 0.0308 0.4032 0.8158
H10A H 0.0684 0.5560 0.8794
N4A N 0.4619(3) 0.0117(3) 0.6558(3)
H11A H 0.3725 -0.0678 0.6338
H12A H 0.5214 -0.0250 0.6323
C1A C 0.4497(3) 0.4987(3) 0.8535(2)
C2A C 0.5107(3) 0.6541(3) 0.9130(3)
H13A H 0.6117 0.7179 0.9379
C3A C 0.2421(3) 0.5274(3) 0.8671(2)
C4A C 0.5248(3) 0.3990(3) 0.8123(2)
C5A C 0.6712(3) 0.4423(3) 0.8247(3)
H14A H 0.7436 0.5439 0.8639
C6A C 0.5165(3) 0.1648(3) 0.7160(3)
C7A C 0.2903(3) 0.1966(3) 0.4630(2)
C8A C 0.3991(3) 0.3537(3) 0.4814(2)
C9A C 0.3890(3) 0.4859(3) 0.5620(2)
H15A H 0.3143 0.4769 0.6038
C10A C 0.5112(3) 0.3703(3) 0.4195(2)
H16A H 0.5189 0.2829 0.3649
C11A C 1.0573(3) 1.8167(3) 0.6575(2)
C12A C 1.0278(3) 1.6527(3) 0.5752(2)
C13A C 0.9232(3) 1.5320(3) 0.5905(2)
H17A H 0.8712 1.5531 0.6514
C14A C 1.1042(3) 1.6187(3) 0.4838(2)
H18A H 1.1746 1.6984 0.4727
O7 O 0.9713(2) 1.2431(2) 0.0493(2)
H5 H 0.9859 1.2272 0.1182
H6 H 0.8938 1.1601 -0.0127
O8 O 0.7445(4) 0.9719(4) 0.8763(3)
H7 H 0.7537 0.9480 0.7921
H8 H 0.6522 0.9651 0.8729
loop_
_geom_bond_atom_site_label_1
_geom_bond_atom_site_label_2
_geom_bond_site_symmetry_1
_geom_bond_site_symmetry_2
Mn1 O1 1_555 1_555
S1 C2 1_555 1_555
S2 C5 1_555 1_555
O1 H1 1_555 1_555
H2 O1 1_555 1_555
O2 Mn1 1_555 1_555
H3 O2 1_555 1_555
H4 O2 1_555 1_555
O3 Mn1 1_555 1_555
O4 C7 1_555 1_555
O5 Mn1 1_555 1_555
O6 C11 1_555 1_555
O7 H5 1_555 1_555
H6 O7 1_555 1_555
O8 H7 1_555 1_555
H8 O8 1_555 1_555
N1 Mn1 1_555 1_555
N2 Mn1 1_555 1_555
N3 H9 1_555 1_555
H10 N3 1_555 1_555
N4 H11 1_555 1_555
H12 N4 1_555 1_555
C1 N1 1_555 1_555
C2 C1 1_555 1_555
H13 C2 1_555 1_555
C3 S1 1_555 1_555
C4 N2 1_555 1_555
C5 C4 1_555 1_555
H14 C5 1_555 1_555
C6 S2 1_555 1_555
C7 O3 1_555 1_555
C8 C7 1_555 1_555
C9 C8 1_555 1_555
H15 C9 1_555 1_555
C10 C8 1_555 1_555
H16 C10 1_555 1_555
C11 O5 1_555 1_555
C12 C11 1_555 1_555
C13 C12 1_555 1_555
H17 C13 1_555 1_555
C14 C12 1_555 1_555
H18 C14 1_555 1_555
Mn1A O1A 1_555 1_555
Mn1A_2 O5A 1_555 1_555
S1A C2A 1_555 1_555
S2A C5A 1_555 1_555
O1A H1A 1_555 1_555
H2A O1A 1_555 1_555
O2A Mn1A 1_555 1_555
H3A O2A 1_555 1_555
H4A O2A 1_555 1_555
O3A Mn1A 1_555 1_555
O4A C7A 1_555 1_555
O5A C11A 1_555 1_555
O5A_2 Mn1A 1_555 1_555
O6A C11A 1_555 1_555
N1A Mn1A 1_555 1_555
N2A Mn1A 1_555 1_555
N3A H9A 1_555 1_555
H10A N3A 1_555 1_555
N4A H11A 1_555 1_555
H12A N4A 1_555 1_555
C1A N1A 1_555 1_555
C2A C1A 1_555 1_555
H13A C2A 1_555 1_555
C3A S1A 1_555 1_555
C4A N2A 1_555 1_555
C5A C4A 1_555 1_555
H14A C5A 1_555 1_555
C6A S2A 1_555 1_555
C7A O3A 1_555 1_555
C8A C7A 1_555 1_555
C9A C10 1_555 1_555
H15A C9A 1_555 1_555
C10A C9 1_555 1_555
H16A C10A 1_555 1_555
C11A C12A 1_555 1_555
C12A C13A 1_555 1_555
C13A C14 1_555 1_555
H17A C13A 1_555 1_555
C14A C13 1_555 1_555
H18A C14A 1_555 1_555
N1 C3 1_555 1_555
N2 C6 1_555 1_555
N3 C3 1_555 1_555
N4 C6 1_555 1_555
C1 C4 1_555 1_555
N1A C3A 1_555 1_555
N2A C6A 1_555 1_555
N3A C3A 1_555 1_555
N4A C6A 1_555 1_555
C1A C4A 1_555 1_555
C8A C9A 1_555 1_555
C8A C10A 1_555 1_555
C12A C14A 1_555 1_555

#END
