
#######################################################################
#
#                 Cambridge Crystallographic Data Centre
#                                CCDC 
#
#######################################################################
#
# If this CIF has been generated from an entry in the Cambridge 
# Structural Database, then it will include bibliographic, chemical, 
# crystal, experimental, refinement or atomic coordinate data resulting 
# from the CCDC's data processing and validation procedures.
#
#######################################################################

data_GEJJEL
_symmetry_cell_setting           triclinic
_symmetry_space_group_name_H-M   'P -1'
_symmetry_Int_Tables_number      2
_space_group_name_Hall           '-P 1'
loop_
_symmetry_equiv_pos_site_id
_symmetry_equiv_pos_as_xyz
1 x,y,z
2 -x,-y,-z
_cell_length_a                   7.8430(10)
_cell_length_b                   8.1110(10)
_cell_length_c                   14.218(3)
_cell_angle_alpha                96.987(4)
_cell_angle_beta                 97.015(4)
_cell_angle_gamma                103.514(4)
_cell_volume                     862.212
loop_
_atom_site_label
_atom_site_type_symbol
_atom_site_fract_x
_atom_site_fract_y
_atom_site_fract_z
Nd1 Nd 0.629614(15) 0.569797(15) 0.789888(8)
Nd2 Nd 1.090618(15) 0.488763(15) 0.703383(8)
O1 O 0.8441(2) 0.6547(2) 0.68319(12)
O2 O 1.0579(2) 0.7117(2) 0.59868(12)
C1 C 0.9120(3) 0.7330(3) 0.61893(16)
C2 C 0.8224(3) 0.8533(3) 0.57211(17)
H1 H 0.8919 0.8997 0.5250
H2 H 0.8222 0.9485 0.6205
C3 C 0.6320(3) 0.7728(3) 0.52265(16)
H3 H 0.5655 0.7141 0.5673
H4 H 0.5776 0.8633 0.5061
C4 C 0.6188(3) 0.6465(3) 0.43261(16)
O3 O 0.7496(2) 0.5860(2) 0.42278(12)
O4 O 0.4762(2) 0.6082(2) 0.37366(12)
O5 O 1.1454(2) 0.6623(2) 0.86359(12)
O6 O 0.8961(2) 0.7234(2) 0.89717(13)
C5 C 1.0590(3) 0.7395(3) 0.91493(16)
C6 C 1.1584(3) 0.8606(3) 1.00510(16)
H5 H 1.1402 0.9742 1.0018
H6 H 1.2845 0.8691 1.0088
C7 C 1.0953(3) 0.7984(3) 1.09536(16)
H7 H 1.1074 0.8973 1.1437
H8 H 0.9703 0.7394 1.0801
C8 C 1.1950(3) 0.6801(3) 1.13650(16)
O7 O 1.1610(2) 0.6293(2) 1.21575(11)
O8 O 1.3121(3) 0.6321(3) 1.09621(14)
O9 O 0.3810(2) 0.7009(2) 0.72856(12)
O10 O 0.6416(2) 0.8776(2) 0.77715(15)
C9 C 0.4833(3) 0.8524(3) 0.74158(16)
C10 C 0.4117(3) 0.9994(3) 0.71278(18)
H9 H 0.3266 0.9598 0.6542
H10 H 0.5080 1.0895 0.7005
C11 C 0.3219(4) 1.0704(3) 0.79255(19)
H11 H 0.2271 0.9797 0.8057
H12 H 0.4076 1.1119 0.8508
C12 C 0.2474(3) 1.2148(3) 0.76312(17)
O11 O 0.1028(2) 1.1826(2) 0.70984(15)
O12 O 0.3344(2) 1.3719(2) 0.79327(12)
O13 O 0.5039(3) 0.6721(3) 0.93370(14)
O14 O 0.8451(2) 0.3148(2) 0.57946(12)
H13 H 0.3967 0.6612 0.9195
H14 H 0.5208 0.6459 0.9872
H15 H 0.8658 0.3022 0.5242
H16 H 0.7479 0.3327 0.5851
Nd1A Nd 0.370386(15) 0.430203(15) 0.210112(8)
Nd1A_2 Nd 1.370386(15) 0.430203(15) 1.210112(8)
Nd1_2 Nd 0.629614(15) 1.569797(15) 0.789888(8)
Nd2A Nd 0.909382(15) 0.511237(15) 0.296617(8)
Nd2A_2 Nd 0.909382(15) 0.511237(15) 1.296617(8)
Nd2_2 Nd 0.090618(15) 0.488763(15) 0.703383(8)
Nd2_3 Nd 0.090618(15) 1.488763(15) 0.703383(8)
O3A O 1.2504(2) 0.4140(2) 0.57722(12)
O4A O 0.5238(2) 0.3918(2) 0.62634(12)
O7A O 0.8390(2) 0.3707(2) 0.78425(11)
O8A O 0.6879(3) 0.3679(3) 0.90379(14)
O9_2 O 1.3810(2) 0.7009(2) 0.72856(12)
O11_2 O 1.1028(2) 0.1826(2) 0.70984(15)
O12_2 O 0.3344(2) 0.3719(2) 0.79327(12)
O12_3 O 1.3344(2) 0.3719(2) 0.79327(12)
loop_
_geom_bond_atom_site_label_1
_geom_bond_atom_site_label_2
_geom_bond_site_symmetry_1
_geom_bond_site_symmetry_2
Nd1 O1 1_555 1_555
Nd2 O1 1_555 1_555
O1 C1 1_555 1_555
O2 Nd2 1_555 1_555
C1 O2 1_555 1_555
C2 C1 1_555 1_555
H1 C2 1_555 1_555
H2 C2 1_555 1_555
C3 C2 1_555 1_555
H3 C3 1_555 1_555
H4 C3 1_555 1_555
C4 C3 1_555 1_555
O3 C4 1_555 1_555
O4 C4 1_555 1_555
O5 Nd2 1_555 1_555
O6 Nd1 1_555 1_555
C5 O5 1_555 1_555
C6 C5 1_555 1_555
H5 C6 1_555 1_555
H6 C6 1_555 1_555
C7 C6 1_555 1_555
H7 C7 1_555 1_555
H8 C7 1_555 1_555
C8 C7 1_555 1_555
O7 C8 1_555 1_555
O8 C8 1_555 1_555
O9 Nd1 1_555 1_555
O10 Nd1 1_555 1_555
C9 O9 1_555 1_555
C10 C9 1_555 1_555
H9 C10 1_555 1_555
H10 C10 1_555 1_555
C11 C10 1_555 1_555
H11 C11 1_555 1_555
H12 C11 1_555 1_555
C12 C11 1_555 1_555
O11 C12 1_555 1_555
O12 C12 1_555 1_555
O13 Nd1 1_555 1_555
O14 Nd2 1_555 1_555
H13 O13 1_555 1_555
H14 O13 1_555 1_555
H15 O14 1_555 1_555
H16 O14 1_555 1_555
Nd1A O4 1_555 1_555
Nd1A_2 O7 1_555 1_555
Nd1_2 O12 1_555 1_555
Nd2A O3 1_555 1_555
Nd2A_2 O7 1_555 1_555
Nd2_2 O9 1_555 1_555
Nd2_3 O11 1_555 1_555
O3A Nd2 1_555 1_555
O4A Nd1 1_555 1_555
O7A Nd1 1_555 1_555
O8A Nd1 1_555 1_555
O9_2 Nd2 1_555 1_555
O11_2 Nd2 1_555 1_555
O12_2 Nd1 1_555 1_555
O12_3 Nd2 1_555 1_555
Nd2 O7A 1_555 1_555
O6 C5 1_555 1_555
O8 Nd1A_2 1_555 1_555
O10 C9 1_555 1_555
O12 Nd2_3 1_555 1_555
Nd2_2 O12_2 1_555 1_555

#END
