
#######################################################################
#
#                 Cambridge Crystallographic Data Centre
#                                CCDC 
#
#######################################################################
#
# If this CIF has been generated from an entry in the Cambridge 
# Structural Database, then it will include bibliographic, chemical, 
# crystal, experimental, refinement or atomic coordinate data resulting 
# from the CCDC's data processing and validation procedures.
#
#######################################################################

data_GEJJEL02
_symmetry_cell_setting           triclinic
_symmetry_space_group_name_H-M   'P -1'
_symmetry_Int_Tables_number      2
_space_group_name_Hall           '-P 1'
loop_
_symmetry_equiv_pos_site_id
_symmetry_equiv_pos_as_xyz
1 x,y,z
2 -x,-y,-z
_cell_length_a                   7.8110(16)
_cell_length_b                   8.1000(16)
_cell_length_c                   14.188(3)
_cell_angle_alpha                96.75(3)
_cell_angle_beta                 96.67(3)
_cell_angle_gamma                103.63(3)
_cell_volume                     856.658
loop_
_atom_site_label
_atom_site_type_symbol
_atom_site_fract_x
_atom_site_fract_y
_atom_site_fract_z
Nd1 Nd 0.37185(3) 0.42816(4) 0.21007(2)
O1 O 0.3562(5) 0.1187(5) 0.2254(3)
O2 O 0.6190(4) 0.2967(5) 0.2716(2)
O3 O 0.6669(4) -0.3742(5) 0.2088(3)
O4 O 0.9004(5) -0.1835(5) 0.2916(3)
O5 O 0.5051(5) 0.3233(6) 0.0694(3)
C1 C 0.5157(7) 0.1454(8) 0.2597(3)
C2 C 0.5878(6) -0.0026(7) 0.2889(4)
H1 H 0.4910 -0.0936 0.3009
H2 H 0.6725 0.0364 0.3475
C3 C 0.6793(7) -0.0713(8) 0.2083(4)
H3 H 0.5940 -0.1122 0.1500
H4 H 0.7746 0.0204 0.1954
C4 C 0.7546(7) -0.2167(8) 0.2377(4)
Nd2 Nd -0.08984(3) 0.50923(4) 0.29722(2)
O6 O -0.2511(4) 0.5853(5) 0.4232(3)
O7 O -0.5245(5) 0.6052(6) 0.3737(3)
O8 O 0.0585(4) 0.7136(5) 0.5976(2)
O9 O -0.1545(4) 0.6579(5) 0.6841(2)
O10 O 0.1567(4) 0.6826(5) 0.4206(2)
C5 C -0.3817(6) 0.6456(7) 0.4333(3)
C6 C -0.3705(6) 0.7713(7) 0.5227(3)
H5 H -0.4363 0.7119 0.5680
H6 H -0.4266 0.8609 0.5061
C7 C -0.1789(6) 0.8538(8) 0.5709(3)
H7 H -0.1101 0.8997 0.5229
H8 H -0.1792 0.9497 0.6187
C8 C -0.0873(6) 0.7354(7) 0.6183(3)
O11 O -0.1419(5) 0.3365(6) 0.1391(3)
O12 O 0.1055(4) 0.2757(5) 0.1019(2)
O13 O -0.3178(5) 0.3673(6) -0.0959(3)
O14 O -0.1625(4) 0.3738(5) -0.2159(2)
C9 C -0.0593(6) 0.2594(7) 0.0843(3)
C10 C -0.1585(6) 0.1382(7) -0.0049(3)
H9 H -0.2852 0.1284 -0.0075
H10 H -0.1388 0.0250 -0.0014
C11 C -0.0979(6) 0.2003(7) -0.0971(3)
H11 H 0.0281 0.2574 -0.0838
H12 H -0.1136 0.1011 -0.1458
C12 C -0.1975(6) 0.3216(8) -0.1364(3)
Nd1_2 Nd -0.62815(3) 0.42816(4) 0.21007(2)
Nd1_3 Nd 0.37185(3) -0.57184(4) 0.21007(2)
Nd1A Nd -0.37185(3) 0.57184(4) -0.21007(2)
Nd1A_2 Nd -0.37185(3) 0.57184(4) 0.78993(2)
O2_2 O -0.3810(4) 0.2967(5) 0.2716(2)
O3_2 O -0.3331(4) 0.6258(5) 0.2088(3)
O3_3 O 0.6669(4) 0.6258(5) 0.2088(3)
O4_2 O -0.0996(5) 0.8165(5) 0.2916(3)
Nd2_2 Nd 0.91016(3) -0.49077(4) 0.29722(2)
Nd2_3 Nd 0.91016(3) 0.50923(4) 0.29722(2)
Nd2A Nd 0.08984(3) 0.49077(4) -0.29722(2)
Nd2A_2 Nd 0.08984(3) 0.49077(4) 0.70278(2)
O7_2 O 0.4755(5) 0.6052(6) 0.3737(3)
O8A O -0.0585(4) 0.2864(5) 0.4024(2)
O9A O 0.1545(4) 0.3421(5) 0.3159(2)
O13A O 0.3178(5) 0.6327(6) 0.0959(3)
O14A O 0.1625(4) 0.6262(5) 0.2159(2)
loop_
_geom_bond_atom_site_label_1
_geom_bond_atom_site_label_2
_geom_bond_site_symmetry_1
_geom_bond_site_symmetry_2
Nd1 O1 1_555 1_555
O1 C1 1_555 1_555
O2 Nd1 1_555 1_555
O3 C4 1_555 1_555
O4 C4 1_555 1_555
O5 Nd1 1_555 1_555
C1 O2 1_555 1_555
C2 C1 1_555 1_555
H1 C2 1_555 1_555
H2 C2 1_555 1_555
C3 C2 1_555 1_555
H3 C3 1_555 1_555
H4 C3 1_555 1_555
C4 C3 1_555 1_555
Nd2 O6 1_555 1_555
O6 C5 1_555 1_555
O7 C5 1_555 1_555
O8 C8 1_555 1_555
O9 C8 1_555 1_555
O10 Nd2 1_555 1_555
C5 C6 1_555 1_555
C6 H5 1_555 1_555
H6 C6 1_555 1_555
C7 C6 1_555 1_555
H7 C7 1_555 1_555
H8 C7 1_555 1_555
C8 C7 1_555 1_555
O11 Nd2 1_555 1_555
O12 Nd1 1_555 1_555
O13 C12 1_555 1_555
O14 C12 1_555 1_555
C9 O11 1_555 1_555
C10 C9 1_555 1_555
H9 C10 1_555 1_555
H10 C10 1_555 1_555
C11 C10 1_555 1_555
H11 C11 1_555 1_555
H12 C11 1_555 1_555
C12 C11 1_555 1_555
Nd1_2 O7 1_555 1_555
Nd1_3 O3 1_555 1_555
Nd1A O13 1_555 1_555
Nd1A_2 O9 1_555 1_555
O2_2 Nd2 1_555 1_555
O3_2 Nd2 1_555 1_555
O3_3 Nd1 1_555 1_555
O4_2 Nd2 1_555 1_555
Nd2_2 O3 1_555 1_555
Nd2_3 O2 1_555 1_555
Nd2A O14 1_555 1_555
Nd2A_2 O8 1_555 1_555
O7_2 Nd1 1_555 1_555
O8A Nd2 1_555 1_555
O9A Nd1 1_555 1_555
O13A Nd1 1_555 1_555
O14A Nd1 1_555 1_555
O4 Nd2_2 1_555 1_555
Nd2 O9A 1_555 1_555
Nd2 O14A 1_555 1_555
O9 Nd2A_2 1_555 1_555
O12 C9 1_555 1_555
O14 Nd1A 1_555 1_555
Nd1_2 O2_2 1_555 1_555
Nd1_2 O3_2 1_555 1_555
O3_3 Nd2_3 1_555 1_555

#END
