
#######################################################################
#
#                 Cambridge Crystallographic Data Centre
#                                CCDC 
#
#######################################################################
#
# If this CIF has been generated from an entry in the Cambridge 
# Structural Database, then it will include bibliographic, chemical, 
# crystal, experimental, refinement or atomic coordinate data resulting 
# from the CCDC's data processing and validation procedures.
#
#######################################################################

data_GEJLIQ
_symmetry_cell_setting           triclinic
_symmetry_space_group_name_H-M   'P -1'
_symmetry_Int_Tables_number      2
_space_group_name_Hall           '-P 1'
loop_
_symmetry_equiv_pos_site_id
_symmetry_equiv_pos_as_xyz
1 x,y,z
2 -x,-y,-z
_cell_length_a                   8.488(3)
_cell_length_b                   17.206(7)
_cell_length_c                   8.466(3)
_cell_angle_alpha                103.72(1)
_cell_angle_beta                 90.00(1)
_cell_angle_gamma                100.85(1)
_cell_volume                     1178.37
loop_
_atom_site_label
_atom_site_type_symbol
_atom_site_fract_x
_atom_site_fract_y
_atom_site_fract_z
Hg1 Hg 0.10896(5) 0.25132(3) -0.58517(5)
Co1 Co 0.6041(2) 0.2511(1) -0.0761(2)
S1 S 0.4082(3) 0.3134(2) -0.5572(3)
S2 S 0.0711(3) 0.1732(2) -0.8838(3)
S3 S 0.0626(4) 0.1778(2) -0.3582(4)
S4 S -0.0970(4) 0.3423(2) -0.5569(3)
N1 N 0.4929(10) 0.2512(6) -0.2991(10)
N2 N 0.3792(11) 0.2324(6) -0.9745(11)
N3 N -0.1728(10) 0.2547(6) -0.1945(11)
N4 N -0.2717(11) 0.2678(6) -0.8493(11)
C1 C 0.4553(11) 0.2749(6) -0.4052(12)
C2 C 0.2542(13) 0.2085(6) -0.9376(12)
C3 C -0.0774(11) 0.2250(7) -0.2638(12)
C4 C -0.2003(12) 0.2974(7) -0.7307(12)
O1 O 0.6026(10) 0.1262(5) -0.1276(11)
O2 O 0.6162(10) 0.3770(5) 0.0018(11)
N5 N 0.5958(12) -0.0054(6) -0.2333(12)
N6 N 0.7291(11) 0.5058(6) 0.1077(12)
C5 C 0.5220(14) 0.0585(7) -0.1946(13)
C6 C 0.3466(15) 0.0472(9) -0.2345(18)
C7 C 0.265(2) -0.0386(14) -0.314(4)
C8 C 0.346(3) -0.0982(11) -0.353(4)
C9 C 0.517(2) -0.0903(8) -0.3123(19)
C10 C 0.7739(16) 0.0088(9) -0.205(2)
C11 C 0.6849(12) 0.4436(7) -0.0208(13)
C12 C 0.7126(19) 0.4536(9) -0.1897(16)
C13 C 0.769(3) 0.5444(14) -0.194(2)
C14 C 0.862(3) 0.5933(11) -0.065(3)
C15 C 0.8064(18) 0.5893(8) 0.1003(19)
C16 C 0.7099(19) 0.4953(9) 0.2732(14)
N2_2 N 0.3792(11) 0.2324(6) 0.0255(11)
N3_2 N 0.8272(10) 0.2547(6) -0.1945(11)
N4_2 N 0.7283(11) 0.2678(6) 0.1507(11)
Co1_2 Co 0.6041(2) 0.2511(1) -1.0761(2)
Co1_3 Co -0.3959(2) 0.2511(1) -0.0761(2)
Co1_4 Co -0.3959(2) 0.2511(1) -1.0761(2)
loop_
_geom_bond_atom_site_label_1
_geom_bond_atom_site_label_2
_geom_bond_site_symmetry_1
_geom_bond_site_symmetry_2
Hg1 S1 1_555 1_555
Co1 N1 1_555 1_555
S1 C1 1_555 1_555
S2 Hg1 1_555 1_555
S3 Hg1 1_555 1_555
S4 Hg1 1_555 1_555
N1 C1 1_555 1_555
N2 C2 1_555 1_555
N3 C3 1_555 1_555
N4 C4 1_555 1_555
C2 S2 1_555 1_555
C3 S3 1_555 1_555
C4 S4 1_555 1_555
O1 Co1 1_555 1_555
O2 Co1 1_555 1_555
N5 C5 1_555 1_555
N6 C11 1_555 1_555
C5 O1 1_555 1_555
C6 C5 1_555 1_555
C7 C6 1_555 1_555
C8 C7 1_555 1_555
C9 N5 1_555 1_555
C10 N5 1_555 1_555
C11 O2 1_555 1_555
C12 C11 1_555 1_555
C13 C12 1_555 1_555
C14 C13 1_555 1_555
C15 N6 1_555 1_555
C16 N6 1_555 1_555
N2_2 Co1 1_555 1_555
N3_2 Co1 1_555 1_555
N4_2 Co1 1_555 1_555
Co1_2 N2 1_555 1_555
Co1_3 N3 1_555 1_555
Co1_4 N4 1_555 1_555
C8 C9 1_555 1_555
C14 C15 1_555 1_555

#END
