
#######################################################################
#
#                 Cambridge Crystallographic Data Centre
#                                CCDC 
#
#######################################################################
#
# If this CIF has been generated from an entry in the Cambridge 
# Structural Database, then it will include bibliographic, chemical, 
# crystal, experimental, refinement or atomic coordinate data resulting 
# from the CCDC's data processing and validation procedures.
#
#######################################################################

data_GEJRAP
_symmetry_cell_setting           monoclinic
_symmetry_space_group_name_H-M   'P 21/c'
_symmetry_Int_Tables_number      14
_space_group_name_Hall           '-P 2ybc'
loop_
_symmetry_equiv_pos_site_id
_symmetry_equiv_pos_as_xyz
1 x,y,z
2 -x,1/2+y,1/2-z
3 -x,-y,-z
4 x,1/2-y,1/2+z
_cell_length_a                   9.735(2)
_cell_length_b                   9.428(2)
_cell_length_c                   19.035(5)
_cell_angle_alpha                90
_cell_angle_beta                 94.797(7)
_cell_angle_gamma                90
_cell_volume                     1740.94
loop_
_atom_site_label
_atom_site_type_symbol
_atom_site_fract_x
_atom_site_fract_y
_atom_site_fract_z
Zn1 Zn 0.0000 0.0000 0.0000
S1 S 0.03870(5) -0.03684(5) 0.13207(2)
S2 S 0.19318(5) 0.18799(5) 0.03067(2)
P1 P 0.18003(5) 0.11526(5) 0.12806(3)
O1 O 0.32599(15) 0.06540(15) 0.16339(8)
O2 O 0.16020(15) 0.23877(15) 0.18281(7)
N1 N -0.15363(16) 0.15533(17) 0.01645(8)
C1 C 0.3904(2) -0.0603(2) 0.13715(12)
H1 H 0.4248 -0.0404 0.0906
H2 H 0.3224 -0.1384 0.1314
C2 C 0.5092(2) -0.1032(2) 0.18942(12)
H3 H 0.5744 -0.0214 0.1960
C3 C 0.5850(3) -0.2273(3) 0.15863(14)
H4 H 0.6625 -0.2558 0.1918
H5 H 0.6198 -0.1985 0.1139
H6 H 0.5215 -0.3074 0.1504
C4 C 0.4587(3) -0.1413(3) 0.26073(13)
H7 H 0.5376 -0.1666 0.2937
H8 H 0.3953 -0.2220 0.2552
H9 H 0.4107 -0.0597 0.2792
C5 C 0.0299(2) 0.3151(2) 0.18257(11)
H10 H 0.0018 0.3207 0.2313
H11 H -0.0424 0.2623 0.1537
C6 C 0.0417(2) 0.4638(2) 0.15316(11)
H12 H 0.0619 0.4567 0.1026
C7 C -0.0967(2) 0.5386(3) 0.15679(12)
H13 H -0.0911 0.6346 0.1375
H14 H -0.1189 0.5440 0.2060
H15 H -0.1688 0.4852 0.1292
C8 C 0.1575(2) 0.5471(2) 0.19329(12)
H16 H 0.2454 0.4983 0.1893
H17 H 0.1395 0.5538 0.2431
H18 H 0.1619 0.6426 0.1733
C9 C -0.2631(2) 0.1255(2) 0.05228(10)
H19 H -0.2650 0.0376 0.0766
C10 C -0.3732(2) 0.2174(2) 0.05522(11)
H20 H -0.4488 0.1925 0.0812
C11 C -0.37233(19) 0.3469(2) 0.01978(10)
C12 C -0.25504(19) 0.3801(2) -0.01474(10)
H21 H -0.2481 0.4688 -0.0378
C13 C -0.14986(19) 0.2826(2) -0.01481(10)
H22 H -0.0706 0.3067 -0.0382
C14 C -0.4919(2) 0.4410(2) 0.01901(11)
H23 H -0.5633 0.4159 0.0478
Zn1_2 Zn -1.0000 1.0000 0.0000
S1B S -0.03870(5) 0.03684(5) -0.13207(2)
S2B S -0.19318(5) -0.18799(5) -0.03067(2)
P1B P -0.18003(5) -0.11526(5) -0.12806(3)
O1B O -0.32599(15) -0.06540(15) -0.16339(8)
O2B O -0.16020(15) -0.23877(15) -0.18281(7)
N1B N -0.84637(16) 0.84467(17) -0.01645(8)
N1B_2 N 0.15363(16) -0.15533(17) -0.01645(8)
C1B C -0.3904(2) 0.0603(2) -0.13715(12)
H1B H -0.4248 0.0404 -0.0906
H2B H -0.3224 0.1384 -0.1314
C2B C -0.5092(2) 0.1032(2) -0.18942(12)
H3B H -0.5744 0.0214 -0.1960
C3B C -0.5850(3) 0.2273(3) -0.15863(14)
H4B H -0.6625 0.2558 -0.1918
H5B H -0.6198 0.1985 -0.1139
H6B H -0.5215 0.3074 -0.1504
C4B C -0.4587(3) 0.1413(3) -0.26073(13)
H7B H -0.5376 0.1666 -0.2937
H8B H -0.3953 0.2220 -0.2552
H9B H -0.4107 0.0597 -0.2792
C5B C -0.0299(2) -0.3151(2) -0.18257(11)
H10B H -0.0018 -0.3207 -0.2313
H11B H 0.0424 -0.2623 -0.1537
C6B C -0.0417(2) -0.4638(2) -0.15316(11)
H12B H -0.0619 -0.4567 -0.1026
C7B C 0.0967(2) -0.5386(3) -0.15679(12)
H13B H 0.0911 -0.6346 -0.1375
H14B H 0.1189 -0.5440 -0.2060
H15B H 0.1688 -0.4852 -0.1292
C8B C -0.1575(2) -0.5471(2) -0.19329(12)
H16B H -0.2454 -0.4983 -0.1893
H17B H -0.1395 -0.5538 -0.2431
H18B H -0.1619 -0.6426 -0.1733
C9B C -0.7369(2) 0.8745(2) -0.05228(10)
H19B H -0.7350 0.9624 -0.0766
C10B C -0.6268(2) 0.7826(2) -0.05522(11)
H20B H -0.5512 0.8075 -0.0812
C11B C -0.62767(19) 0.6531(2) -0.01978(10)
C12B C -0.74496(19) 0.6199(2) 0.01474(10)
H21B H -0.7519 0.5312 0.0378
C13B C -0.85014(19) 0.7174(2) 0.01481(10)
H22B H -0.9294 0.6933 0.0382
C14B C -0.5081(2) 0.5590(2) -0.01901(11)
H23B H -0.4367 0.5841 -0.0478
loop_
_geom_bond_atom_site_label_1
_geom_bond_atom_site_label_2
_geom_bond_site_symmetry_1
_geom_bond_site_symmetry_2
Zn1 S1 1_555 1_555
S1 P1 1_555 1_555
S2 Zn1 1_555 1_555
P1 S2 1_555 1_555
O1 P1 1_555 1_555
O2 P1 1_555 1_555
N1 Zn1 1_555 1_555
C1 O1 1_555 1_555
H1 C1 1_555 1_555
H2 C1 1_555 1_555
C2 C1 1_555 1_555
H3 C2 1_555 1_555
C3 C2 1_555 1_555
H4 C3 1_555 1_555
H5 C3 1_555 1_555
H6 C3 1_555 1_555
C4 C2 1_555 1_555
H7 C4 1_555 1_555
H8 C4 1_555 1_555
H9 C4 1_555 1_555
C5 O2 1_555 1_555
H10 C5 1_555 1_555
H11 C5 1_555 1_555
C6 C5 1_555 1_555
H12 C6 1_555 1_555
C7 C6 1_555 1_555
H13 C7 1_555 1_555
H14 C7 1_555 1_555
H15 C7 1_555 1_555
C8 C6 1_555 1_555
H16 C8 1_555 1_555
H17 C8 1_555 1_555
H18 C8 1_555 1_555
C9 N1 1_555 1_555
H19 C9 1_555 1_555
C10 C9 1_555 1_555
H20 C10 1_555 1_555
C11 C10 1_555 1_555
C12 C11 1_555 1_555
H21 C12 1_555 1_555
C13 N1 1_555 1_555
H22 C13 1_555 1_555
C14 C11 1_555 1_555
H23 C14 1_555 1_555
Zn1_2 N1B 1_555 1_555
S1B Zn1 1_555 1_555
S2B Zn1 1_555 1_555
P1B S1B 1_555 1_555
O1B P1B 1_555 1_555
O2B P1B 1_555 1_555
N1B C9B 1_555 1_555
N1B_2 Zn1 1_555 1_555
C1B O1B 1_555 1_555
H1B C1B 1_555 1_555
H2B C1B 1_555 1_555
C2B C1B 1_555 1_555
H3B C2B 1_555 1_555
C3B C2B 1_555 1_555
H4B C3B 1_555 1_555
H5B C3B 1_555 1_555
H6B C3B 1_555 1_555
C4B C2B 1_555 1_555
H7B C4B 1_555 1_555
H8B C4B 1_555 1_555
H9B C4B 1_555 1_555
C5B O2B 1_555 1_555
H10B C5B 1_555 1_555
H11B C5B 1_555 1_555
C6B C5B 1_555 1_555
H12B C6B 1_555 1_555
C7B C6B 1_555 1_555
H13B C7B 1_555 1_555
H14B C7B 1_555 1_555
H15B C7B 1_555 1_555
C8B C6B 1_555 1_555
H16B C8B 1_555 1_555
H17B C8B 1_555 1_555
H18B C8B 1_555 1_555
C9B H19B 1_555 1_555
C10B C9B 1_555 1_555
H20B C10B 1_555 1_555
C11B C10B 1_555 1_555
C12B C11B 1_555 1_555
H21B C12B 1_555 1_555
C13B N1B 1_555 1_555
H22B C13B 1_555 1_555
C14B C14 1_555 1_555
H23B C14B 1_555 1_555
C12 C13 1_555 1_555
S2B P1B 1_555 1_555
C11B C14B 1_555 1_555
C12B C13B 1_555 1_555

#END
