
#######################################################################
#
#                 Cambridge Crystallographic Data Centre
#                                CCDC 
#
#######################################################################
#
# If this CIF has been generated from an entry in the Cambridge 
# Structural Database, then it will include bibliographic, chemical, 
# crystal, experimental, refinement or atomic coordinate data resulting 
# from the CCDC's data processing and validation procedures.
#
#######################################################################

data_GEJSUL
_symmetry_cell_setting           orthorhombic
_symmetry_space_group_name_H-M   'P n a 21'
_symmetry_Int_Tables_number      33
_space_group_name_Hall           'P 2c -2n'
loop_
_symmetry_equiv_pos_site_id
_symmetry_equiv_pos_as_xyz
1 x,y,z
2 -x,-y,1/2+z
3 1/2-x,1/2+y,1/2+z
4 1/2+x,1/2-y,z
_cell_length_a                   8.1860(3)
_cell_length_b                   9.9093(4)
_cell_length_c                   23.6293(8)
_cell_angle_alpha                90
_cell_angle_beta                 90
_cell_angle_gamma                90
_cell_volume                     1916.75
loop_
_atom_site_label
_atom_site_type_symbol
_atom_site_fract_x
_atom_site_fract_y
_atom_site_fract_z
Li1 Li 0.9767(5) 0.3415(5) 0.1644(2)
O1 O 1.01737(19) 0.33399(19) 0.24860(8)
O2 O 1.2801(2) 0.4613(2) 0.23959(8)
H1 H 1.2521 0.4505 0.2066
O3 O 1.2682(2) 0.25200(19) 0.30070(9)
H2 H 1.3449 0.2364 0.2794
O4 O 0.8902(2) 0.56059(19) 0.31087(8)
O5 O 0.6421(2) 0.6237(2) 0.22727(9)
O6 O 0.4754(2) 0.62960(19) 0.12232(8)
O7 O 0.18995(18) 0.42531(18) 0.13932(7)
O8 O 0.2021(2) 0.2839(2) 0.05142(8)
H3 H 0.1247 0.2517 0.0689
O9 O 0.4573(2) 0.31407(18) 0.11058(7)
O10 O 0.7731(3) 0.4347(3) 0.15721(12)
H4 H 0.740(4) 0.488(4) 0.1830(13)
H5 H 0.691(3) 0.407(4) 0.1383(16)
P1 P 1.17125(6) 0.37456(6) 0.27848(3)
P2 P 0.30155(6) 0.38118(6) 0.09155(3)
C1 C 1.1420(2) 0.4728(2) 0.34158(10)
C2 C 1.2655(3) 0.4690(3) 0.38238(12)
H6 H 1.3559 0.4141 0.3763
C3 C 1.2575(3) 0.5444(3) 0.43161(12)
H7 H 1.3398 0.5380 0.4586
C4 C 1.1268(4) 0.6287(3) 0.44012(12)
H8 H 1.1211 0.6806 0.4729
C5 C 1.0022(3) 0.6371(3) 0.39986(12)
H9 H 0.9148 0.6954 0.4057
C6 C 1.0086(3) 0.5588(2) 0.35134(10)
C7 C 0.7399(3) 0.6291(3) 0.32430(12)
H10 H 0.7539 0.7259 0.3206
H11 H 0.7075 0.6093 0.3629
C8 C 0.6130(3) 0.5805(3) 0.28405(13)
H12 H 0.6100 0.4827 0.2850
H13 H 0.5071 0.6134 0.2962
C9 C 0.5433(3) 0.7318(3) 0.20934(13)
H14 H 0.5797 0.8147 0.2272
H15 H 0.4310 0.7157 0.2206
C10 C 0.5527(3) 0.7460(3) 0.14635(13)
H16 H 0.4971 0.8275 0.1343
H17 H 0.6658 0.7510 0.1343
C11 C 0.4404(3) 0.6312(3) 0.06575(11)
C12 C 0.4849(3) 0.7349(3) 0.02912(13)
H18 H 0.5472 0.8069 0.0423
C13 C 0.4362(3) 0.7307(3) -0.02680(13)
H19 H 0.4657 0.8004 -0.0510
C14 C 0.3448(3) 0.6251(3) -0.04725(12)
H20 H 0.3103 0.6243 -0.0847
C15 C 0.3045(3) 0.5194(3) -0.01102(11)
H21 H 0.2447 0.4468 -0.0249
C16 C 0.3518(3) 0.5202(2) 0.04555(10)
Li1_2 Li -0.0233(5) 0.3415(5) 0.1644(2)
Li1C Li 0.4767(5) 0.1585(5) 0.1644(2)
O7_2 O 1.18995(18) 0.42531(18) 0.13932(7)
O9C O 0.9573(2) 0.18593(18) 0.11058(7)
loop_
_geom_bond_atom_site_label_1
_geom_bond_atom_site_label_2
_geom_bond_site_symmetry_1
_geom_bond_site_symmetry_2
Li1 O1 1_555 1_555
O1 P1 1_555 1_555
O2 H1 1_555 1_555
O3 H2 1_555 1_555
O4 C6 1_555 1_555
O5 C8 1_555 1_555
O6 C10 1_555 1_555
O7 P2 1_555 1_555
O8 H3 1_555 1_555
O9 P2 1_555 1_555
O10 Li1 1_555 1_555
H4 O10 1_555 1_555
H5 O10 1_555 1_555
P1 O2 1_555 1_555
P2 O8 1_555 1_555
C1 P1 1_555 1_555
C2 C1 1_555 1_555
H6 C2 1_555 1_555
C3 C2 1_555 1_555
H7 C3 1_555 1_555
C4 C3 1_555 1_555
H8 C4 1_555 1_555
C5 C4 1_555 1_555
H9 C5 1_555 1_555
C6 C1 1_555 1_555
C7 O4 1_555 1_555
H10 C7 1_555 1_555
H11 C7 1_555 1_555
C8 C7 1_555 1_555
H12 C8 1_555 1_555
H13 C8 1_555 1_555
C9 O5 1_555 1_555
H14 C9 1_555 1_555
H15 C9 1_555 1_555
C10 C9 1_555 1_555
H16 C10 1_555 1_555
H17 C10 1_555 1_555
C11 O6 1_555 1_555
C12 C11 1_555 1_555
H18 C12 1_555 1_555
C13 C12 1_555 1_555
H19 C13 1_555 1_555
C14 C13 1_555 1_555
H20 C14 1_555 1_555
C15 C14 1_555 1_555
H21 C15 1_555 1_555
C16 P2 1_555 1_555
Li1_2 O7 1_555 1_555
Li1C O9 1_555 1_555
O7_2 Li1 1_555 1_555
O9C Li1 1_555 1_555
O3 P1 1_555 1_555
C5 C6 1_555 1_555
C11 C16 1_555 1_555
C15 C16 1_555 1_555

#END
