
#######################################################################
#
#                 Cambridge Crystallographic Data Centre
#                                CCDC 
#
#######################################################################
#
# If this CIF has been generated from an entry in the Cambridge 
# Structural Database, then it will include bibliographic, chemical, 
# crystal, experimental, refinement or atomic coordinate data resulting 
# from the CCDC's data processing and validation procedures.
#
#######################################################################

data_GEJSAQ
_symmetry_cell_setting           monoclinic
_symmetry_space_group_name_H-M   'P 21/c'
_symmetry_Int_Tables_number      14
_space_group_name_Hall           '-P 2ybc'
loop_
_symmetry_equiv_pos_site_id
_symmetry_equiv_pos_as_xyz
1 x,y,z
2 -x,1/2+y,1/2-z
3 -x,-y,-z
4 x,1/2-y,1/2+z
_cell_length_a                   8.6643(4)
_cell_length_b                   13.2722(6)
_cell_length_c                   15.1096(7)
_cell_angle_alpha                90
_cell_angle_beta                 98.948(1)
_cell_angle_gamma                90
_cell_volume                     1716.37
loop_
_atom_site_label
_atom_site_type_symbol
_atom_site_fract_x
_atom_site_fract_y
_atom_site_fract_z
Cd1 Cd 0.0000 0.0000 0.0000
S1 S -0.21675(6) 0.13192(4) 0.03486(3)
S2 S 0.09260(6) 0.04530(4) 0.17387(3)
P1 P -0.09268(6) 0.13526(4) 0.15771(3)
O1 O -0.04545(18) 0.24812(11) 0.18613(10)
O2 O -0.19359(17) 0.10779(13) 0.23302(10)
N1 N 0.15412(19) 0.13587(13) -0.04349(12)
N2 N 0.4767(2) 0.44971(15) 0.00587(14)
C1 C 0.0519(3) 0.30612(16) 0.13378(16)
H1 H 0.0752 0.2645 0.0831
C2 C -0.0412(5) 0.3972(2) 0.0975(2)
H2 H -0.1356 0.3755 0.0591
H3 H 0.0210 0.4381 0.0632
H4 H -0.0688 0.4365 0.1469
C3 C 0.2015(4) 0.3315(2) 0.1933(2)
H5 H 0.2555 0.2698 0.2139
H6 H 0.1789 0.3698 0.2444
H7 H 0.2670 0.3713 0.1601
C4 C -0.3511(3) 0.1487(2) 0.23156(17)
H8 H -0.3828 0.1859 0.1749
C5 C -0.4583(3) 0.0617(3) 0.2355(3)
H9 H -0.4563 0.0189 0.1836
H10 H -0.5637 0.0863 0.2356
H11 H -0.4247 0.0234 0.2897
C6 C -0.3468(4) 0.2201(4) 0.3094(3)
H12 H -0.2768 0.2756 0.3025
H13 H -0.3097 0.1847 0.3648
H14 H -0.4510 0.2460 0.3111
C7 C 0.0835(2) 0.20987(16) -0.09399(13)
H15 H -0.0165 0.1977 -0.1263
C8 C 0.1499(2) 0.30386(15) -0.10127(13)
H16 H 0.0963 0.3542 -0.1376
C9 C 0.2978(2) 0.32202(15) -0.05358(13)
C10 C 0.3755(2) 0.24349(16) -0.00437(16)
H17 H 0.4776 0.2524 0.0263
C11 C 0.3002(2) 0.15243(16) -0.00137(15)
H18 H 0.3534 0.0995 0.0316
C12 C 0.3652(2) 0.42360(15) -0.05425(15)
H19 H 0.3253 0.4694 -0.0995
Cd1_2 Cd 1.0000 1.0000 0.0000
S1B S 0.21675(6) -0.13192(4) -0.03486(3)
S2B S -0.09260(6) -0.04530(4) -0.17387(3)
P1B P 0.09268(6) -0.13526(4) -0.15771(3)
O1B O 0.04545(18) -0.24812(11) -0.18613(10)
O2B O 0.19359(17) -0.10779(13) -0.23302(10)
N1B N 0.84588(19) 0.86413(13) 0.04349(12)
N1B_2 N -0.15412(19) -0.13587(13) 0.04349(12)
N2B N 0.5233(2) 0.55029(15) -0.00587(14)
C1B C -0.0519(3) -0.30612(16) -0.13378(16)
H1B H -0.0752 -0.2645 -0.0831
C2B C 0.0412(5) -0.3972(2) -0.0975(2)
H2B H 0.1356 -0.3755 -0.0591
H3B H -0.0210 -0.4381 -0.0632
H4B H 0.0688 -0.4365 -0.1469
C3B C -0.2015(4) -0.3315(2) -0.1933(2)
H5B H -0.2555 -0.2698 -0.2139
H6B H -0.1789 -0.3698 -0.2444
H7B H -0.2670 -0.3713 -0.1601
C4B C 0.3511(3) -0.1487(2) -0.23156(17)
H8B H 0.3828 -0.1859 -0.1749
C5B C 0.4583(3) -0.0617(3) -0.2355(3)
H9B H 0.4563 -0.0189 -0.1836
H10B H 0.5637 -0.0863 -0.2356
H11B H 0.4247 -0.0234 -0.2897
C6B C 0.3468(4) -0.2201(4) -0.3094(3)
H12B H 0.2768 -0.2756 -0.3025
H13B H 0.3097 -0.1847 -0.3648
H14B H 0.4510 -0.2460 -0.3111
C7B C 0.9165(2) 0.79013(16) 0.09399(13)
H15B H 1.0165 0.8023 0.1263
C8B C 0.8501(2) 0.69614(15) 0.10127(13)
H16B H 0.9037 0.6458 0.1376
C9B C 0.7022(2) 0.67798(15) 0.05358(13)
C10B C 0.6245(2) 0.75651(16) 0.00437(16)
H17B H 0.5224 0.7476 -0.0263
C11B C 0.6998(2) 0.84757(16) 0.00137(15)
H18B H 0.6466 0.9005 -0.0316
C12B C 0.6348(2) 0.57640(15) 0.05425(15)
H19B H 0.6747 0.5306 0.0995
loop_
_geom_bond_atom_site_label_1
_geom_bond_atom_site_label_2
_geom_bond_site_symmetry_1
_geom_bond_site_symmetry_2
Cd1 S1 1_555 1_555
S1 P1 1_555 1_555
S2 Cd1 1_555 1_555
P1 S2 1_555 1_555
O1 P1 1_555 1_555
O2 P1 1_555 1_555
N1 Cd1 1_555 1_555
N2 C12 1_555 1_555
C1 O1 1_555 1_555
H1 C1 1_555 1_555
C2 C1 1_555 1_555
H2 C2 1_555 1_555
H3 C2 1_555 1_555
H4 C2 1_555 1_555
C3 C1 1_555 1_555
H5 C3 1_555 1_555
H6 C3 1_555 1_555
H7 C3 1_555 1_555
C4 O2 1_555 1_555
H8 C4 1_555 1_555
C5 C4 1_555 1_555
H9 C5 1_555 1_555
H10 C5 1_555 1_555
H11 C5 1_555 1_555
C6 C4 1_555 1_555
H12 C6 1_555 1_555
H13 C6 1_555 1_555
H14 C6 1_555 1_555
C7 N1 1_555 1_555
H15 C7 1_555 1_555
C8 C7 1_555 1_555
H16 C8 1_555 1_555
C9 C8 1_555 1_555
C10 C9 1_555 1_555
H17 C10 1_555 1_555
C11 N1 1_555 1_555
H18 C11 1_555 1_555
C12 C9 1_555 1_555
H19 C12 1_555 1_555
Cd1_2 N1B 1_555 1_555
S1B Cd1 1_555 1_555
S2B Cd1 1_555 1_555
P1B S1B 1_555 1_555
O1B P1B 1_555 1_555
O2B P1B 1_555 1_555
N1B C7B 1_555 1_555
N1B_2 Cd1 1_555 1_555
N2B N2 1_555 1_555
C1B O1B 1_555 1_555
H1B C1B 1_555 1_555
C2B C1B 1_555 1_555
H2B C2B 1_555 1_555
H3B C2B 1_555 1_555
H4B C2B 1_555 1_555
C3B C1B 1_555 1_555
H5B C3B 1_555 1_555
H6B C3B 1_555 1_555
H7B C3B 1_555 1_555
C4B O2B 1_555 1_555
H8B C4B 1_555 1_555
C5B C4B 1_555 1_555
H9B C5B 1_555 1_555
H10B C5B 1_555 1_555
H11B C5B 1_555 1_555
C6B C4B 1_555 1_555
H12B C6B 1_555 1_555
H13B C6B 1_555 1_555
H14B C6B 1_555 1_555
C7B H15B 1_555 1_555
C8B C7B 1_555 1_555
H16B C8B 1_555 1_555
C9B C8B 1_555 1_555
C10B C9B 1_555 1_555
H17B C10B 1_555 1_555
C11B N1B 1_555 1_555
H18B C11B 1_555 1_555
C12B N2B 1_555 1_555
H19B C12B 1_555 1_555
C10 C11 1_555 1_555
S2B P1B 1_555 1_555
C9B C12B 1_555 1_555
C10B C11B 1_555 1_555

#END
