
#######################################################################
#
#                 Cambridge Crystallographic Data Centre
#                                CCDC 
#
#######################################################################
#
# If this CIF has been generated from an entry in the Cambridge 
# Structural Database, then it will include bibliographic, chemical, 
# crystal, experimental, refinement or atomic coordinate data resulting 
# from the CCDC's data processing and validation procedures.
#
#######################################################################

data_GEJTUM
_symmetry_cell_setting           monoclinic
_symmetry_space_group_name_H-M   'C 2/c'
_symmetry_Int_Tables_number      15
_space_group_name_Hall           '-C 2yn'
loop_
_symmetry_equiv_pos_site_id
_symmetry_equiv_pos_as_xyz
1 x,y,z
2 -x,y,1/2-z
3 1/2+x,1/2+y,z
4 1/2-x,1/2+y,1/2-z
5 -x,-y,-z
6 x,-y,1/2+z
7 1/2-x,1/2-y,-z
8 1/2+x,1/2-y,1/2+z
_cell_length_a                   11.796(3)
_cell_length_b                   17.837(5)
_cell_length_c                   15.081(4)
_cell_angle_alpha                90
_cell_angle_beta                 101.804(5)
_cell_angle_gamma                90
_cell_volume                     3106.02
loop_
_atom_site_label
_atom_site_type_symbol
_atom_site_fract_x
_atom_site_fract_y
_atom_site_fract_z
Mn1 Mn 0.5000 0.2537 0.2500
C1 C 0.7019(4) 0.1361(3) 0.3328(4)
H1 H 0.6766 0.1461 0.3861
C2 C 0.7977(5) 0.0884(3) 0.3380(5)
H2 H 0.8342 0.0671 0.3927
C3 C 0.8352(4) 0.0745(3) 0.2597(5)
H3 H 0.8984 0.0432 0.2608
C4 C 0.7792(4) 0.1072(3) 0.1773(4)
C5 C 0.6830(4) 0.1535(2) 0.1798(3)
C6 C 0.8116(5) 0.0941(3) 0.0919(4)
H4 H 0.8751 0.0639 0.0896
C7 C 0.7517(5) 0.1248(3) 0.0154(4)
H5 H 0.7745 0.1156 -0.0391
C8 C 0.6544(4) 0.1710(2) 0.0160(3)
C9 C 0.6199(4) 0.1858(2) 0.0980(3)
C10 C 0.5904(5) 0.2029(3) -0.0615(4)
H6 H 0.6112 0.1947 -0.1169
C11 C 0.4957(6) 0.2469(3) -0.0571(4)
H7 H 0.4511 0.2681 -0.1090
C12 C 0.4688(5) 0.2587(3) 0.0283(4)
H8 H 0.4057 0.2889 0.0317
C13 C 0.2003(4) 0.4041(3) 0.0677(3)
H9 H 0.2577 0.3772 0.0475
C14 C 0.0424(4) 0.4796(2) 0.0354(3)
C15 C 0.0381(4) 0.4820(2) 0.1263(3)
H10 H -0.0191 0.5096 0.1455
C16 C 0.1178(4) 0.4438(2) 0.1872(3)
H11 H 0.1150 0.4450 0.2483
C17 C 0.2029(4) 0.4031(2) 0.1584(3)
C18 C 0.2938(4) 0.3613(3) 0.2234(4)
N1 N 0.5271(3) 0.2297(2) 0.1029(3)
N2 N 0.6458(3) 0.1675(2) 0.2583(3)
N3 N 0.1235(3) 0.4400(2) 0.0056(3)
O1 O 0.3738(3) 0.3321(2) 0.1898(2)
O2 O 0.2875(4) 0.3581(3) 0.3035(3)
Mn1D Mn -0.5000 0.7463 -0.2500
C1A C 0.2981(4) 0.1361(3) 0.1672(4)
H1A H 0.3234 0.1461 0.1139
C2A C 0.2023(5) 0.0884(3) 0.1620(5)
H2A H 0.1658 0.0671 0.1073
C3A C 0.1648(4) 0.0745(3) 0.2403(5)
H3A H 0.1016 0.0432 0.2392
C4A C 0.2208(4) 0.1072(3) 0.3227(4)
C5A C 0.3170(4) 0.1535(2) 0.3202(3)
C6A C 0.1884(5) 0.0941(3) 0.4081(4)
H4A H 0.1249 0.0639 0.4104
C7A C 0.2483(5) 0.1248(3) 0.4846(4)
H5A H 0.2255 0.1156 0.5391
C8A C 0.3456(4) 0.1710(2) 0.4840(3)
C9A C 0.3801(4) 0.1858(2) 0.4020(3)
C10A C 0.4096(5) 0.2029(3) 0.5615(4)
H6A H 0.3888 0.1947 0.6169
C11A C 0.5043(6) 0.2469(3) 0.5571(4)
H7A H 0.5489 0.2681 0.6090
C12A C 0.5312(5) 0.2587(3) 0.4717(4)
H8A H 0.5943 0.2889 0.4683
C13D C -0.2003(4) 0.5959(3) -0.0677(3)
H9D H -0.2577 0.6228 -0.0475
C14D C -0.0424(4) 0.5204(2) -0.0354(3)
C15D C -0.0381(4) 0.5180(2) -0.1263(3)
H10D H 0.0191 0.4904 -0.1455
C16D C -0.1178(4) 0.5562(2) -0.1872(3)
H11D H -0.1150 0.5550 -0.2483
C17D C -0.2029(4) 0.5969(2) -0.1584(3)
C18D C -0.2938(4) 0.6387(3) -0.2234(4)
N1A N 0.4729(3) 0.2297(2) 0.3971(3)
N2A N 0.3542(3) 0.1675(2) 0.2417(3)
N3D N -0.1235(3) 0.5600(2) -0.0056(3)
O1D O -0.3738(3) 0.6679(2) -0.1898(2)
O1A O 0.6262(3) 0.3321(2) 0.3102(2)
O2D O -0.2875(4) 0.6419(3) -0.3035(3)
O3 O 0.5045(4) 0.4412(3) 0.1036(4)
loop_
_geom_bond_atom_site_label_1
_geom_bond_atom_site_label_2
_geom_bond_site_symmetry_1
_geom_bond_site_symmetry_2
Mn1 N1 1_555 1_555
C1 H1 1_555 1_555
C2 C1 1_555 1_555
H2 C2 1_555 1_555
C3 C2 1_555 1_555
H3 C3 1_555 1_555
C4 C3 1_555 1_555
C5 C4 1_555 1_555
C6 C4 1_555 1_555
H4 C6 1_555 1_555
C7 C6 1_555 1_555
H5 C7 1_555 1_555
C8 C7 1_555 1_555
C9 C5 1_555 1_555
C10 C8 1_555 1_555
H6 C10 1_555 1_555
C11 C10 1_555 1_555
H7 C11 1_555 1_555
C12 C11 1_555 1_555
H8 C12 1_555 1_555
C13 H9 1_555 1_555
C14 C15 1_555 1_555
C15 H10 1_555 1_555
C16 C15 1_555 1_555
H11 C16 1_555 1_555
C17 C13 1_555 1_555
C18 C17 1_555 1_555
N1 C9 1_555 1_555
N2 Mn1 1_555 1_555
N3 C13 1_555 1_555
O1 Mn1 1_555 1_555
O2 C18 1_555 1_555
Mn1D O1D 1_555 1_555
C1A H1A 1_555 1_555
C2A C1A 1_555 1_555
H2A C2A 1_555 1_555
C3A C2A 1_555 1_555
H3A C3A 1_555 1_555
C4A C3A 1_555 1_555
C5A C4A 1_555 1_555
C6A C4A 1_555 1_555
H4A C6A 1_555 1_555
C7A C6A 1_555 1_555
H5A C7A 1_555 1_555
C8A C7A 1_555 1_555
C9A C5A 1_555 1_555
C10A C8A 1_555 1_555
H6A C10A 1_555 1_555
C11A C10A 1_555 1_555
H7A C11A 1_555 1_555
C12A C11A 1_555 1_555
H8A C12A 1_555 1_555
C13D H9D 1_555 1_555
C14D C14 1_555 1_555
C15D C14D 1_555 1_555
H10D C15D 1_555 1_555
C16D C15D 1_555 1_555
H11D C16D 1_555 1_555
C17D C13D 1_555 1_555
C18D C17D 1_555 1_555
N1A Mn1 1_555 1_555
N2A Mn1 1_555 1_555
N3D C13D 1_555 1_555
O1D C18D 1_555 1_555
O1A Mn1 1_555 1_555
O2D C18D 1_555 1_555
C1 N2 1_555 1_555
C5 N2 1_555 1_555
C8 C9 1_555 1_555
C12 N1 1_555 1_555
C14 N3 1_555 1_555
C16 C17 1_555 1_555
C18 O1 1_555 1_555
C1A N2A 1_555 1_555
C5A N2A 1_555 1_555
C8A C9A 1_555 1_555
C9A N1A 1_555 1_555
C12A N1A 1_555 1_555
C14D N3D 1_555 1_555
C16D C17D 1_555 1_555

#END
