
#######################################################################
#
#                 Cambridge Crystallographic Data Centre
#                                CCDC 
#
#######################################################################
#
# If this CIF has been generated from an entry in the Cambridge 
# Structural Database, then it will include bibliographic, chemical, 
# crystal, experimental, refinement or atomic coordinate data resulting 
# from the CCDC's data processing and validation procedures.
#
#######################################################################

data_GEJXUQ
_symmetry_cell_setting           triclinic
_symmetry_space_group_name_H-M   'P -1'
_symmetry_Int_Tables_number      2
_space_group_name_Hall           '-P 1'
loop_
_symmetry_equiv_pos_site_id
_symmetry_equiv_pos_as_xyz
1 x,y,z
2 -x,-y,-z
_cell_length_a                   13.5523(13)
_cell_length_b                   14.1859(13)
_cell_length_c                   14.3213(14)
_cell_angle_alpha                62.616(1)
_cell_angle_beta                 68.254(1)
_cell_angle_gamma                89.711(1)
_cell_volume                     2224.68
loop_
_atom_site_label
_atom_site_type_symbol
_atom_site_fract_x
_atom_site_fract_y
_atom_site_fract_z
Na3 Na -0.0974(1) 0.3854(2) 0.1254(2)
O9 O -0.1203(3) 0.1835(3) 0.2367(3)
H19 H -0.1694 0.1485 0.3034
H20 H -0.0608 0.1910 0.2386
O10 O -0.2405(2) 0.3690(3) 0.2923(3)
H21 H -0.2150 0.3979 0.3195
H22 H -0.2648 0.3032 0.3383
O11 O -0.1860(3) 0.4104(3) -0.0007(3)
H23 H -0.1749 0.3830 -0.0425
H24 H -0.2389 0.4399 0.0025
O12 O 0.0653(2) 0.4140(3) -0.0371(3)
H25 H 0.1151 0.3852 -0.0228
H26 H 0.0517 0.4007 -0.0819
O13 O 0.0274(3) 0.3939(3) 0.2099(3)
H27 H 0.0795 0.4453 0.1673
H28 H 0.0462 0.3349 0.2302
Na3A Na 0.0974(1) 0.6146(2) -0.1254(2)
O9A O 0.1203(3) 0.8165(3) -0.2367(3)
H19A H 0.1694 0.8515 -0.3034
H20A H 0.0608 0.8090 -0.2386
O10A O 0.2405(2) 0.6310(3) -0.2923(3)
H21A H 0.2150 0.6021 -0.3195
H22A H 0.2648 0.6968 -0.3383
O11A O 0.1860(3) 0.5896(3) 0.0007(3)
H23A H 0.1749 0.6170 0.0425
H24A H 0.2389 0.5601 -0.0025
O12A O -0.0653(2) 0.5860(3) 0.0371(3)
H25A H -0.1151 0.6148 0.0228
H26A H -0.0517 0.5993 0.0819
O13A O -0.0274(3) 0.6061(3) -0.2099(3)
H27A H -0.0795 0.5547 -0.1673
H28A H -0.0462 0.6651 -0.2302
Cu1 Cu 0.294 0.1345 0.4186
Cu2 Cu 0.2493 0.7554 0.1691
Mg1 Mg 0.5000 0.5000 0.0000
Na1 Na 0.5144(1) 1.5145(1) -0.3931(1)
Na2 Na 0.3325(1) 1.2835(2) -0.1288(2)
O2 O 0.5317(2) 1.7047(2) -0.5159(3)
H5 H 0.5882 1.7231 -0.5143
H6 H 0.4814 1.7301 -0.4892
O3 O 0.6568(3) 1.5363(3) -0.3436(3)
H7 H 0.6535 1.5862 -0.3288
H8 H 0.6622 1.4801 -0.2921
O4 O 0.6308(2) 1.5091(2) -0.5591(3)
H9 H 0.6724 1.5642 -0.6188
H10 H 0.6650 1.4601 -0.5384
O5 O 0.3706(3) 1.4811(3) -0.2140(3)
H11 H 0.3281 1.5197 -0.2310
H12 H 0.3932 1.4898 -0.1721
O6 O 0.4909(2) 1.3121(2) -0.2957(3)
H13 H 0.4686 1.2919 -0.3313
H14 H 0.5477 1.2930 -0.2934
O7 O 0.2228(3) 1.2949(4) 0.0347(3)
H15 H 0.2376 1.3310 0.0633
H16 H 0.1667 1.2457 0.0900
O8 O 0.2399(2) 1.2982(3) -0.2436(3)
H17 H 0.1828 1.3209 -0.2363
H18 H 0.2338 1.2383 -0.2399
O14 O 0.3059(3) 0.4326(4) 0.1275(4)
H29 H 0.2996 0.3996 0.0936
H30 H 0.3308 0.3922 0.1754
O15 O 0.2835(2) 0.1632(3) 0.5568(3)
O16 O 0.1661(3) 0.1330(3) 0.7302(3)
O17 O 0.2293(2) 0.1506(3) 0.2970(3)
O18 O 0.0796(3) 0.1710(3) 0.2651(3)
O19 O 0.2770(2) -0.0422(2) 0.5209(3)
O20 O 0.3761(2) -0.1711(2) 0.5453(3)
O21 O 0.3919(3) 0.2958(2) 0.2883(3)
O22 O 0.5556(3) 0.3812(2) 0.1422(3)
O23 O 0.2531(3) 0.6582(3) 0.4902(3)
O24 O 0.3069(2) 0.7354(3) 0.2993(2)
O25 O 0.1332(2) 0.6994(3) 0.1268(3)
O26 O -0.0448(3) 0.6411(3) 0.1930(3)
O27 O 0.2067(2) 0.9149(2) 0.1084(3)
O28 O 0.2736(3) 1.0887(3) -0.0249(3)
O29 O 0.3512(2) 0.6456(2) 0.1366(3)
O30 O 0.5237(3) 0.6434(3) 0.0437(3)
N1 N 0.1353(3) 0.1336(3) 0.4975(3)
N2 N 0.4446(2) 0.1086(3) 0.3521(3)
N3 N 0.1157(3) 0.6787(3) 0.3209(3)
N4 N 0.3834(2) 0.8548(3) 0.0257(3)
C2 C 0.1301(3) 0.1525(3) 0.3263(4)
C3 C 0.0685(3) 0.1326(3) 0.4493(3)
C4 C -0.0432(3) 0.1165(3) 0.5090(4)
H31 H -0.0898 0.1185 0.4744
C5 C -0.0823(3) 0.0975(4) 0.6202(4)
H32 H -0.1567 0.0819 0.6636
C6 C -0.0122(4) 0.1015(3) 0.6690(4)
H33 H -0.0386 0.0905 0.7438
C7 C 0.0980(3) 0.1221(3) 0.6032(3)
C8 C 0.1888(4) 0.1392(3) 0.6350(4)
C9 C 0.3629(3) -0.0770(3) 0.4952(3)
C10 C 0.4627(3) 0.0078(3) 0.3938(3)
C11 C 0.5637(3) -0.0134(4) 0.3467(4)
H34 H 0.5757 -0.0838 0.3763
C12 C 0.6465(3) 0.0722(4) 0.2549(4)
H35 H 0.7148 0.0597 0.2216
C13 C 0.6271(3) 0.1763(4) 0.2128(4)
H36 H 0.6821 0.2347 0.1516
C14 C 0.5242(3) 0.1918(3) 0.2637(3)
C15 C 0.4895(4) 0.2994(3) 0.2272(4)
C16 C 0.0362(4) 0.6667(4) 0.2037(4)
C17 C 0.0215(3) 0.6550(3) 0.3191(4)
C18 C -0.0745(3) 0.6193(3) 0.4166(4)
H37 H -0.1402 0.6039 0.4148
C19 C -0.0709(3) 0.6067(4) 0.5173(4)
H38 H -0.1348 0.5849 0.5831
C20 C 0.0280(4) 0.6267(3) 0.5196(4)
H39 H 0.0320 0.6155 0.5873
C21 C 0.1210(3) 0.6638(3) 0.4178(3)
C22 C 0.2366(3) 0.6882(3) 0.4028(4)
C23 C 0.2803(3) 0.9927(4) 0.0218(4)
C24 C 0.3863(3) 0.9609(3) -0.0304(3)
C25 C 0.4778(3) 1.0311(4) -0.1266(4)
H40 H 0.4793 1.1050 -0.1660
C26 C 0.5674(3) 0.9881(4) -0.1628(4)
H41 H 0.6301 1.0338 -0.2269
C27 C 0.5643(3) 0.8783(4) -0.1047(4)
H42 H 0.6239 0.8490 -0.1284
C28 C 0.4686(3) 0.8126(3) -0.0093(3)
C29 C 0.4484(3) 0.6913(4) 0.0616(4)
Cu1A Cu 0.706 0.8655 -0.4186
Cu2A Cu 0.7507 0.2446 -0.1691
Na1A Na 0.4856(1) -0.5145(1) 0.3931(1)
Na1A_2 Na 0.4856(1) 1.4855(1) -0.6069(1)
Na2A Na 0.6675(1) -0.2835(2) 0.1288(2)
O2A O 0.4683(2) -0.7047(2) 0.5159(3)
H5A H 0.4118 -0.7231 0.5143
H6A H 0.5186 -0.7301 0.4892
O3A O 0.3432(3) -0.5363(3) 0.3436(3)
H7A H 0.3465 -0.5862 0.3288
H8A H 0.3378 -0.4801 0.2921
O4A O 0.3692(2) 1.4909(2) -0.4409(3)
O4A_2 O 0.3692(2) -0.5091(2) 0.5591(3)
O4_2 O 0.6308(2) -0.4909(2) 0.4409(3)
H9A H 0.3276 1.4358 -0.3812
H9A_2 H 0.3276 -0.5642 0.6188
H9_2 H 0.6724 -0.4358 0.3812
H10A H 0.3350 1.5399 -0.4616
H10A_2 H 0.3350 -0.4601 0.5384
H10_2 H 0.6650 -0.5399 0.4616
O5A O 0.6294(3) -0.4811(3) 0.2140(3)
H11A H 0.6719 -0.5197 0.2310
H12A H 0.6068 -0.4898 0.1721
O6A O 0.5091(2) -0.3121(2) 0.2957(3)
H13A H 0.5314 -0.2919 0.3313
H14A H 0.4523 -0.2930 0.2934
O7A O 0.7772(3) -0.2949(4) -0.0347(3)
H15A H 0.7624 -0.3310 -0.0633
H16A H 0.8333 -0.2457 -0.0900
O8A O 0.7601(2) -0.2982(3) 0.2436(3)
H17A H 0.8172 -0.3209 0.2363
H18A H 0.7662 -0.2383 0.2399
O14A O 0.6941(3) 0.5674(4) -0.1275(4)
H29A H 0.7004 0.6004 -0.0936
H30A H 0.6692 0.6078 -0.1754
O15A O 0.7165(2) 0.8368(3) -0.5568(3)
O16A O 0.8339(3) 0.8670(3) -0.7302(3)
O17A O 0.7707(2) 0.8494(3) -0.2970(3)
O18A O 0.9204(3) 0.8290(3) -0.2651(3)
O19A O 0.7230(2) 1.0422(2) -0.5209(3)
O20A O 0.6239(2) 1.1711(2) -0.5453(3)
O21A O 0.6081(3) 0.7042(2) -0.2883(3)
O22A O 0.4444(3) 0.6188(2) -0.1422(3)
O23A O 0.7469(3) 0.3418(3) -0.4902(3)
O24A O 0.6931(2) 0.2646(3) -0.2993(2)
O25A O 0.8668(2) 0.3006(3) -0.1268(3)
O26A O 1.0448(3) 0.3589(3) -0.1930(3)
O27A O 0.7933(2) 0.0851(2) -0.1084(3)
O28A O 0.7264(3) -0.0887(3) 0.0249(3)
O29A O 0.6488(2) 0.3544(2) -0.1366(3)
O30A O 0.4763(3) 0.3566(3) -0.0437(3)
N1A N 0.8647(3) 0.8664(3) -0.4975(3)
N2A N 0.5554(2) 0.8914(3) -0.3521(3)
N3A N 0.8843(3) 0.3213(3) -0.3209(3)
N4A N 0.6166(2) 0.1452(3) -0.0257(3)
C2A C 0.8699(3) 0.8475(3) -0.3263(4)
C3A C 0.9315(3) 0.8674(3) -0.4493(3)
C4A C 1.0432(3) 0.8835(3) -0.5090(4)
H31A H 1.0898 0.8815 -0.4744
C5A C 1.0823(3) 0.9025(4) -0.6202(4)
H32A H 1.1567 0.9181 -0.6636
C6A C 1.0122(4) 0.8985(3) -0.6690(4)
H33A H 1.0386 0.9095 -0.7438
C7A C 0.9020(3) 0.8779(3) -0.6032(3)
C8A C 0.8112(4) 0.8608(3) -0.6350(4)
C9A C 0.6371(3) 1.0770(3) -0.4952(3)
C10A C 0.5373(3) 0.9922(3) -0.3938(3)
C11A C 0.4363(3) 1.0134(4) -0.3467(4)
H34A H 0.4243 1.0838 -0.3763
C12A C 0.3535(3) 0.9278(4) -0.2549(4)
H35A H 0.2852 0.9403 -0.2216
C13A C 0.3729(3) 0.8237(4) -0.2128(4)
H36A H 0.3179 0.7653 -0.1516
C14A C 0.4758(3) 0.8082(3) -0.2637(3)
C15A C 0.5105(4) 0.7006(3) -0.2272(4)
C16A C 0.9638(4) 0.3333(4) -0.2037(4)
C17A C 0.9785(3) 0.3450(3) -0.3191(4)
C18A C 1.0745(3) 0.3807(3) -0.4166(4)
H37A H 1.1402 0.3961 -0.4148
C19A C 1.0709(3) 0.3933(4) -0.5173(4)
H38A H 1.1348 0.4151 -0.5831
C20A C 0.9720(4) 0.3733(3) -0.5196(4)
H39A H 0.9680 0.3845 -0.5873
C21A C 0.8790(3) 0.3362(3) -0.4178(3)
C22A C 0.7634(3) 0.3118(3) -0.4028(4)
C23A C 0.7197(3) 0.0073(4) -0.0218(4)
C24A C 0.6137(3) 0.0391(3) 0.0304(3)
C25A C 0.5222(3) -0.0311(4) 0.1266(4)
H40A H 0.5207 -0.1050 0.1660
C26A C 0.4326(3) 0.0119(4) 0.1628(4)
H41A H 0.3699 -0.0338 0.2269
C27A C 0.4357(3) 0.1217(4) 0.1047(4)
H42A H 0.3761 0.1510 0.1284
C28A C 0.5314(3) 0.1874(3) 0.0093(3)
C29A C 0.5516(3) 0.3087(4) -0.0616(4)
O1? O 1.0090(8) 0.9179(8) 0.9886(8)
H1? H 0.9976 0.8965 0.9485
C1? C 0.9781(12) 1.0101(14) 0.9676(15)
H2? H 0.9075 0.9977 0.0261
H3? H 0.9754 1.0434 0.8933
H4? H 1.0287 1.0570 0.9678
loop_
_geom_bond_atom_site_label_1
_geom_bond_atom_site_label_2
_geom_bond_site_symmetry_1
_geom_bond_site_symmetry_2
Cu1 O15 1_555 1_555
Cu2 O24 1_555 1_555
Mg1 O14 1_555 1_555
Na1 O2 1_555 1_555
Na2 O5 1_555 1_555
Na3 O9 1_555 1_555
O2 H5 1_555 1_555
H6 O2 1_555 1_555
O3 Na1 1_555 1_555
H7 O3 1_555 1_555
H8 O3 1_555 1_555
O4 Na1 1_555 1_555
H9 O4 1_555 1_555
H10 O4 1_555 1_555
O5 Na1 1_555 1_555
H11 O5 1_555 1_555
H12 O5 1_555 1_555
O6 Na1 1_555 1_555
H13 O6 1_555 1_555
H14 O6 1_555 1_555
O7 Na2 1_555 1_555
H15 O7 1_555 1_555
H16 O7 1_555 1_555
O8 Na2 1_555 1_555
H17 O8 1_555 1_555
H18 O8 1_555 1_555
O9 H19 1_555 1_555
H20 O9 1_555 1_555
O10 Na3 1_555 1_555
H21 O10 1_555 1_555
H22 O10 1_555 1_555
O11 Na3 1_555 1_555
H23 O11 1_555 1_555
H24 O11 1_555 1_555
O12 Na3 1_555 1_555
H25 O12 1_555 1_555
H26 O12 1_555 1_555
O13 Na3 1_555 1_555
H27 O13 1_555 1_555
H28 O13 1_555 1_555
O14 H29 1_555 1_555
H30 O14 1_555 1_555
O15 C8 1_555 1_555
O16 C8 1_555 1_555
O17 Cu1 1_555 1_555
O18 C2 1_555 1_555
O19 Cu1 1_555 1_555
O20 C9 1_555 1_555
O21 Cu1 1_555 1_555
O22 Mg1 1_555 1_555
O23 C22 1_555 1_555
O24 C22 1_555 1_555
O25 Cu2 1_555 1_555
O26 C16 1_555 1_555
O27 Cu2 1_555 1_555
O28 Na2 1_555 1_555
O29 Cu2 1_555 1_555
O30 Mg1 1_555 1_555
N1 Cu1 1_555 1_555
N2 Cu1 1_555 1_555
N3 Cu2 1_555 1_555
N4 Cu2 1_555 1_555
C2 O17 1_555 1_555
C3 N1 1_555 1_555
C4 C3 1_555 1_555
H31 C4 1_555 1_555
C5 C4 1_555 1_555
H32 C5 1_555 1_555
C6 C5 1_555 1_555
H33 C6 1_555 1_555
C7 N1 1_555 1_555
C8 C7 1_555 1_555
C9 O19 1_555 1_555
C10 N2 1_555 1_555
C11 C10 1_555 1_555
H34 C11 1_555 1_555
C12 C11 1_555 1_555
H35 C12 1_555 1_555
C13 C12 1_555 1_555
H36 C13 1_555 1_555
C14 N2 1_555 1_555
C15 O21 1_555 1_555
C16 O25 1_555 1_555
C17 N3 1_555 1_555
C18 C17 1_555 1_555
H37 C18 1_555 1_555
C19 C18 1_555 1_555
H38 C19 1_555 1_555
C20 C19 1_555 1_555
H39 C20 1_555 1_555
C21 N3 1_555 1_555
C22 C21 1_555 1_555
C23 O27 1_555 1_555
C24 N4 1_555 1_555
C25 C24 1_555 1_555
H40 C25 1_555 1_555
C26 C25 1_555 1_555
H41 C26 1_555 1_555
C27 C26 1_555 1_555
H42 C27 1_555 1_555
C28 N4 1_555 1_555
C29 O29 1_555 1_555
Cu1A O15A 1_555 1_555
Cu2A O24A 1_555 1_555
Na1A O2A 1_555 1_555
Na1A_2 O4 1_555 1_555
Na2A O5A 1_555 1_555
Na3A O12 1_555 1_555
O2A H5A 1_555 1_555
H6A O2A 1_555 1_555
O3A Na1A 1_555 1_555
H7A O3A 1_555 1_555
H8A O3A 1_555 1_555
O4A Na1 1_555 1_555
O4A_2 Na1A 1_555 1_555
O4_2 Na1A 1_555 1_555
H9A O4A 1_555 1_555
H9A_2 O4A_2 1_555 1_555
H9_2 O4_2 1_555 1_555
H10A O4A 1_555 1_555
H10A_2 O4A_2 1_555 1_555
H10_2 O4_2 1_555 1_555
O5A Na1A 1_555 1_555
H11A O5A 1_555 1_555
H12A O5A 1_555 1_555
O6A Na1A 1_555 1_555
H13A O6A 1_555 1_555
H14A O6A 1_555 1_555
O7A Na2A 1_555 1_555
H15A O7A 1_555 1_555
H16A O7A 1_555 1_555
O8A Na2A 1_555 1_555
H17A O8A 1_555 1_555
H18A O8A 1_555 1_555
O9A Na3A 1_555 1_555
H19A O9A 1_555 1_555
H20A O9A 1_555 1_555
O10A Na3A 1_555 1_555
H21A O10A 1_555 1_555
H22A O10A 1_555 1_555
O11A Na3A 1_555 1_555
H23A O11A 1_555 1_555
H24A O11A 1_555 1_555
O12A Na3 1_555 1_555
H25A O12A 1_555 1_555
H26A O12A 1_555 1_555
O13A Na3A 1_555 1_555
H27A O13A 1_555 1_555
H28A O13A 1_555 1_555
O14A Mg1 1_555 1_555
H29A O14A 1_555 1_555
H30A O14A 1_555 1_555
O15A C8A 1_555 1_555
O16A C8A 1_555 1_555
O17A Cu1A 1_555 1_555
O18A C2A 1_555 1_555
O19A Cu1A 1_555 1_555
O20A C9A 1_555 1_555
O21A Cu1A 1_555 1_555
O22A Mg1 1_555 1_555
O23A C22A 1_555 1_555
O24A C22A 1_555 1_555
O25A Cu2A 1_555 1_555
O26A C16A 1_555 1_555
O27A Cu2A 1_555 1_555
O28A Na2A 1_555 1_555
O29A Cu2A 1_555 1_555
O30A Mg1 1_555 1_555
N1A Cu1A 1_555 1_555
N2A Cu1A 1_555 1_555
N3A Cu2A 1_555 1_555
N4A Cu2A 1_555 1_555
C2A O17A 1_555 1_555
C3A N1A 1_555 1_555
C4A C3A 1_555 1_555
H31A C4A 1_555 1_555
C5A C4A 1_555 1_555
H32A C5A 1_555 1_555
C6A C5A 1_555 1_555
H33A C6A 1_555 1_555
C7A N1A 1_555 1_555
C8A C7A 1_555 1_555
C9A O19A 1_555 1_555
C10A N2A 1_555 1_555
C11A C10A 1_555 1_555
H34A C11A 1_555 1_555
C12A C11A 1_555 1_555
H35A C12A 1_555 1_555
C13A C12A 1_555 1_555
H36A C13A 1_555 1_555
C14A N2A 1_555 1_555
C15A O21A 1_555 1_555
C16A O25A 1_555 1_555
C17A N3A 1_555 1_555
C18A C17A 1_555 1_555
H37A C18A 1_555 1_555
C19A C18A 1_555 1_555
H38A C19A 1_555 1_555
C20A C19A 1_555 1_555
H39A C20A 1_555 1_555
C21A N3A 1_555 1_555
C22A C21A 1_555 1_555
C23A O27A 1_555 1_555
C24A N4A 1_555 1_555
C25A C24A 1_555 1_555
H40A C25A 1_555 1_555
C26A C25A 1_555 1_555
H41A C26A 1_555 1_555
C27A C26A 1_555 1_555
H42A C27A 1_555 1_555
C28A N4A 1_555 1_555
C29A O29A 1_555 1_555
Na2 O6 1_555 1_555
O22 C15 1_555 1_555
O28 C23 1_555 1_555
O30 C29 1_555 1_555
C2 C3 1_555 1_555
C6 C7 1_555 1_555
C9 C10 1_555 1_555
C13 C14 1_555 1_555
C14 C15 1_555 1_555
C16 C17 1_555 1_555
C20 C21 1_555 1_555
C23 C24 1_555 1_555
C27 C28 1_555 1_555
C28 C29 1_555 1_555
Na1A_2 O4A 1_555 1_555
Na2A O6A 1_555 1_555
Na3A O12A 1_555 1_555
O22A C15A 1_555 1_555
O28A C23A 1_555 1_555
O30A C29A 1_555 1_555
C2A C3A 1_555 1_555
C6A C7A 1_555 1_555
C9A C10A 1_555 1_555
C13A C14A 1_555 1_555
C14A C15A 1_555 1_555
C16A C17A 1_555 1_555
C20A C21A 1_555 1_555
C23A C24A 1_555 1_555
C27A C28A 1_555 1_555
C28A C29A 1_555 1_555

#END
