
#######################################################################
#
#                 Cambridge Crystallographic Data Centre
#                                CCDC 
#
#######################################################################
#
# If this CIF has been generated from an entry in the Cambridge 
# Structural Database, then it will include bibliographic, chemical, 
# crystal, experimental, refinement or atomic coordinate data resulting 
# from the CCDC's data processing and validation procedures.
#
#######################################################################

data_GEKFEH
_symmetry_cell_setting           triclinic
_symmetry_space_group_name_H-M   'P -1'
_symmetry_Int_Tables_number      2
_space_group_name_Hall           '-P 1'
loop_
_symmetry_equiv_pos_site_id
_symmetry_equiv_pos_as_xyz
1 x,y,z
2 -x,-y,-z
_cell_length_a                   7.361(12)
_cell_length_b                   12.305(3)
_cell_length_c                   7.246(8)
_cell_angle_alpha                97.02(6)
_cell_angle_beta                 109.83(28)
_cell_angle_gamma                87.48(7)
_cell_volume                     612.773
loop_
_atom_site_label
_atom_site_type_symbol
_atom_site_fract_x
_atom_site_fract_y
_atom_site_fract_z
Sn1 Sn 0.2740(1) 0.2003(1) 0.0296(1)
K1 K -0.0771(1) 0.1142(1) 0.2805(1)
O1 O 0.2433(3) 0.0385(2) 0.1152(3)
O2 O 0.0410(3) -0.1953(2) 0.0427(3)
O3 O 0.2589(3) 0.2483(2) 0.3284(3)
O4 O 0.0192(3) -0.1053(2) 0.3194(3)
O5 O 0.5560(3) 0.0705(2) 0.2128(3)
O6 O 0.2533(5) 0.4148(2) 0.2474(4)
O7 O 0.2404(7) 0.6051(2) 0.4034(7)
O8 O 0.2310(6) 0.6814(3) 0.6876(7)
C1 C 0.4199(4) 0.0112(2) 0.2054(4)
C2 C 0.3314(4) -0.1669(2) 0.3091(4)
C3 C 0.4604(4) -0.0896(3) 0.3012(4)
C4 C 0.2572(4) 0.3515(2) 0.3693(4)
C5 C 0.1159(4) -0.1491(2) 0.2201(4)
C6 C 0.2633(6) 0.3909(3) 0.5745(5)
C7 C 0.2572(6) 0.4926(3) 0.6587(6)
C8 C 0.2413(6) 0.5999(3) 0.5823(8)
H1 H 0.5986(76) -0.0960(44) 0.3733(73)
H2 H 0.317(11) -0.2401(70) 0.341(11)
H3 H 0.244(16) 0.319(12) 0.609(19)
H4 H 0.295(10) 0.4916(67) 0.782(10)
H5 H 0.2249(90) 0.5441(58) 0.3174(88)
O2A O -0.0410(3) 0.1953(2) -0.0427(3)
O4A O -0.0192(3) 0.1053(2) 0.6806(3)
O5_2 O -0.4440(3) 0.0705(2) 0.2128(3)
O8A O -0.2310(6) 0.3186(3) 0.3124(7)
Sn1A Sn -0.2740(1) -0.2003(1) -0.0296(1)
K1A K 0.0771(1) -0.1142(1) -0.2805(1)
K1A_2 K 0.0771(1) -0.1142(1) 0.7195(1)
K1_2 K 0.9229(1) 0.1142(1) 0.2805(1)
K1A_3 K 0.0771(1) 0.8858(1) 0.7195(1)
loop_
_geom_bond_atom_site_label_1
_geom_bond_atom_site_label_2
_geom_bond_site_symmetry_1
_geom_bond_site_symmetry_2
Sn1 O1 1_555 1_555
K1 O1 1_555 1_555
O1 C1 1_555 1_555
O2 C5 1_555 1_555
O3 Sn1 1_555 1_555
O4 K1 1_555 1_555
O5 C1 1_555 1_555
O6 C4 1_555 1_555
O7 C8 1_555 1_555
O8 C8 1_555 1_555
C1 C3 1_555 1_555
C2 C3 1_555 1_555
C3 H1 1_555 1_555
C4 O3 1_555 1_555
C5 O4 1_555 1_555
C6 C4 1_555 1_555
C7 C6 1_555 1_555
C8 C7 1_555 1_555
H2 C2 1_555 1_555
H3 C6 1_555 1_555
H4 C7 1_555 1_555
H5 O7 1_555 1_555
O2A Sn1 1_555 1_555
O4A K1 1_555 1_555
O5_2 K1 1_555 1_555
O8A K1 1_555 1_555
Sn1A O2 1_555 1_555
K1A O2 1_555 1_555
K1A_2 O4 1_555 1_555
K1_2 O5 1_555 1_555
K1A_3 O8 1_555 1_555
K1 O3 1_555 1_555
K1 O2A 1_555 1_555
C2 C5 1_555 1_555
O4A K1A_2 1_555 1_555

#END
