
#######################################################################
#
#                 Cambridge Crystallographic Data Centre
#                                CCDC 
#
#######################################################################
#
# If this CIF has been generated from an entry in the Cambridge 
# Structural Database, then it will include bibliographic, chemical, 
# crystal, experimental, refinement or atomic coordinate data resulting 
# from the CCDC's data processing and validation procedures.
#
#######################################################################

data_GEKQUI
_symmetry_cell_setting           monoclinic
_symmetry_space_group_name_H-M   'C 2/c'
_symmetry_Int_Tables_number      15
_space_group_name_Hall           '-C 2yn'
loop_
_symmetry_equiv_pos_site_id
_symmetry_equiv_pos_as_xyz
1 x,y,z
2 -x,y,1/2-z
3 1/2+x,1/2+y,z
4 1/2-x,1/2+y,1/2-z
5 -x,-y,-z
6 x,-y,1/2+z
7 1/2-x,1/2-y,-z
8 1/2+x,1/2-y,1/2+z
_cell_length_a                   20.713(2)
_cell_length_b                   12.288(1)
_cell_length_c                   7.181(1)
_cell_angle_alpha                90
_cell_angle_beta                 109.58(1)
_cell_angle_gamma                90
_cell_volume                     1722.03
loop_
_atom_site_label
_atom_site_type_symbol
_atom_site_fract_x
_atom_site_fract_y
_atom_site_fract_z
K1 K 0.0000 0.35403(14) 0.2500
K2 K 0.0000 0.12872(12) 0.7500
O1 O 0.1321(2) 0.3941(3) 0.5168(6)
O2 O 0.1090(2) 0.2335(3) 0.5968(6)
O3 O 0.3598(2) 0.4968(3) 0.6264(5)
O4 O 0.4432(2) 0.4249(3) 0.8518(5)
O5 O 0.4257(2) 0.2238(3) 0.9707(5)
O6 O 0.0000 0.5672(5) 0.2500
N1 N 0.1503(2) 0.3060(4) 0.5991(5)
N2 N 0.3830(2) 0.4256(3) 0.7504(5)
C1 C 0.3636(2) 0.2439(4) 0.8818(6)
C2 C 0.3374(2) 0.3425(3) 0.7747(6)
C3 C 0.2686(2) 0.3610(4) 0.6844(6)
C4 C 0.2220(2) 0.2851(4) 0.6946(6)
C5 C 0.2440(2) 0.1855(4) 0.7895(6)
C6 C 0.3111(2) 0.1666(4) 0.8789(7)
H1 H 0.255(2) 0.419(3) 0.620(6)
H2 H 0.210(2) 0.135(3) 0.802(6)
H3 H 0.326(2) 0.092(4) 0.942(6)
H4 H -0.030(3) 0.605(5) 0.175(9)
H4A H 0.030(3) 0.605(5) 0.325(9)
O1A O -0.1321(2) 0.3941(3) -0.0168(6)
O2A O -0.1090(2) 0.2335(3) -0.0968(6)
O5F O 0.0743(2) 0.2762(3) 0.0293(5)
O5G O -0.0743(2) 0.2762(3) 0.4707(5)
O2A_2 O -0.1090(2) 0.2335(3) 0.9032(6)
O3B O -0.1402(2) -0.0032(3) 0.6264(5)
O3C O 0.1402(2) -0.0032(3) 0.8736(5)
O4B O -0.0568(2) -0.0751(3) 0.8518(5)
O4C O 0.0568(2) -0.0751(3) 0.6482(5)
O4F O 0.0568(2) 0.0751(3) 1.1482(5)
O4G O -0.0568(2) 0.0751(3) 0.3518(5)
O5F_2 O 0.0743(2) 0.2762(3) 1.0293(5)
K2B K 0.5000 0.62872(12) 0.7500
K2F K 0.5000 0.37128(12) 1.2500
K1F K 0.5000 0.14597(14) 0.7500
K1F_2 K -0.5000 0.14597(14) -0.2500
K2D K 0.0000 -0.12872(12) 0.2500
N2G N -0.1170(2) 0.0744(3) 0.2504(5)
C1G C -0.1364(2) 0.2561(4) 0.3818(6)
C2G C -0.1626(2) 0.1575(3) 0.2747(6)
C6G C -0.1889(2) 0.3334(4) 0.3789(7)
C3G C -0.2314(2) 0.1390(4) 0.1844(6)
C5G C -0.2560(2) 0.3145(4) 0.2895(6)
H3G H -0.174(2) 0.408(4) 0.442(6)
C4G C -0.2780(2) 0.2149(4) 0.1946(6)
H1G H -0.245(2) 0.081(3) 0.120(6)
H2G H -0.290(2) 0.365(3) 0.302(6)
N1G N -0.3497(2) 0.1940(4) 0.0991(5)
O1G O -0.3679(2) 0.1059(3) 0.0168(6)
O2G O -0.3910(2) 0.2665(3) 0.0968(6)
K2F_2 K -0.5000 0.37128(12) 0.2500
O3G O -0.1402(2) 0.0032(3) 0.1264(5)
loop_
_geom_bond_atom_site_label_1
_geom_bond_atom_site_label_2
_geom_bond_site_symmetry_1
_geom_bond_site_symmetry_2
K1 O1 1_555 1_555
K2 O2 1_555 1_555
O1 N1 1_555 1_555
O2 K1 1_555 1_555
O3 N2 1_555 1_555
O4 N2 1_555 1_555
O5 C1 1_555 1_555
O6 K1 1_555 1_555
N1 O2 1_555 1_555
N2 C2 1_555 1_555
C1 C2 1_555 1_555
C2 C3 1_555 1_555
C3 C4 1_555 1_555
C4 N1 1_555 1_555
C5 C4 1_555 1_555
C6 C1 1_555 1_555
H1 C3 1_555 1_555
H2 C5 1_555 1_555
H3 C6 1_555 1_555
H4 O6 1_555 1_555
H4A O6 1_555 1_555
O1A K1 1_555 1_555
O2A K1 1_555 1_555
O5F K1 1_555 1_555
O5G K1 1_555 1_555
O2A_2 K2 1_555 1_555
O3B K2 1_555 1_555
O3C K2 1_555 1_555
O4B K2 1_555 1_555
O4C K2 1_555 1_555
O4F K2 1_555 1_555
O4G K2 1_555 1_555
O5F_2 K2 1_555 1_555
K2B O3 1_555 1_555
K2F O4 1_555 1_555
K1F O5 1_555 1_555
K1F_2 O1G 1_555 1_555
K2D O4C 1_555 1_555
N2G O4G 1_555 1_555
C1G O5G 1_555 1_555
C2G N2G 1_555 1_555
C6G C1G 1_555 1_555
C3G C2G 1_555 1_555
C5G C6G 1_555 1_555
H3G C6G 1_555 1_555
C4G C3G 1_555 1_555
H1G C3G 1_555 1_555
H2G C5G 1_555 1_555
N1G C4G 1_555 1_555
O1G N1G 1_555 1_555
O2G K1F_2 1_555 1_555
K2F_2 O2G 1_555 1_555
O3G K2D 1_555 1_555
K2 O5G 1_555 1_555
O4 K2B 1_555 1_555
O5 K2F 1_555 1_555
C5 C6 1_555 1_555
O4G K2D 1_555 1_555
N2G O3G 1_555 1_555
C1G C2G 1_555 1_555
C5G C4G 1_555 1_555
N1G O2G 1_555 1_555

#END
