
#######################################################################
#
#                 Cambridge Crystallographic Data Centre
#                                CCDC 
#
#######################################################################
#
# If this CIF has been generated from an entry in the Cambridge 
# Structural Database, then it will include bibliographic, chemical, 
# crystal, experimental, refinement or atomic coordinate data resulting 
# from the CCDC's data processing and validation procedures.
#
#######################################################################

data_GEKTEV
_symmetry_cell_setting           monoclinic
_symmetry_space_group_name_H-M   'P 21/c'
_symmetry_Int_Tables_number      14
_space_group_name_Hall           '-P 2ybc'
loop_
_symmetry_equiv_pos_site_id
_symmetry_equiv_pos_as_xyz
1 x,y,z
2 -x,1/2+y,1/2-z
3 -x,-y,-z
4 x,1/2-y,1/2+z
_cell_length_a                   9.481(4)
_cell_length_b                   10.156(18)
_cell_length_c                   19.309(8)
_cell_angle_alpha                90
_cell_angle_beta                 98.52(4)
_cell_angle_gamma                90
_cell_volume                     1838.73
loop_
_atom_site_label
_atom_site_type_symbol
_atom_site_fract_x
_atom_site_fract_y
_atom_site_fract_z
Pb1 Pb 0.03364(2) -0.16933(2) 0.15702(1)
O1 O 0.1032(5) -0.1309(4) 0.0456(2)
O2 O 0.1661(6) -0.2116(5) -0.0521(2)
O3 O 0.0169(5) -0.3786(5) 0.2252(2)
O4 O 0.0598(6) -0.5957(5) 0.2341(3)
O5 O 0.0237(5) 0.0721(5) 0.1409(3)
N1 N 0.1077(5) -0.3700(5) 0.1017(3)
C1 C 0.1395(7) -0.2223(7) 0.0082(3)
C2 C 0.0570(6) -0.4889(7) 0.2041(3)
C3 C 0.1514(6) -0.3597(6) 0.0395(3)
C4 C 0.1957(7) -0.4676(7) 0.0061(3)
C5 C 0.1966(8) -0.5892(7) 0.0379(4)
C6 C 0.1496(7) -0.5997(6) 0.1007(4)
C7 C 0.1087(6) -0.4873(6) 0.1337(3)
C8 C -0.1850(7) -0.1900(6) 0.1101(3)
C9 C -0.2323(7) -0.1124(7) 0.0512(4)
C10 C -0.3704(8) -0.1258(8) 0.0188(5)
C11 C -0.4601(9) -0.212(1) 0.0421(6)
C12 C -0.4143(8) -0.287(1) 0.1019(6)
C13 C -0.2759(8) -0.2763(9) 0.1346(4)
C14 C 0.2416(8) -0.1356(7) 0.2143(4)
C15 C 0.276(1) -0.181(1) 0.2822(6)
C16 C 0.413(1) -0.156(1) 0.3163(7)
C17 C 0.510(1) -0.091(2) 0.2834(9)
C18 C 0.470(1) -0.044(2) 0.2185(8)
C19 C 0.3368(9) -0.065(1) 0.1827(5)
H1 H 0.225 -0.459 -0.038
H2 H 0.230 -0.665 0.016
H3 H 0.145 -0.683 0.122
H4 H -0.170 -0.052 0.034
H5 H -0.404 -0.073 -0.021
H6 H -0.554 -0.222 0.018
H7 H -0.478 -0.346 0.120
H8 H -0.243 -0.329 0.174
H9 H 0.208 -0.226 0.305
H10 H 0.440 -0.184 0.363
H11 H 0.605 -0.080 0.306
H12 H 0.536 0.006 0.197
H13 H 0.310 -0.032 0.137
O4A O -0.0598(6) -0.0957(5) 0.2659(3)
Pb1A Pb -0.03364(2) -0.66933(2) 0.34298(1)
loop_
_geom_bond_atom_site_label_1
_geom_bond_atom_site_label_2
_geom_bond_site_symmetry_1
_geom_bond_site_symmetry_2
Pb1 O1 1_555 1_555
O1 C1 1_555 1_555
O2 C1 1_555 1_555
O3 Pb1 1_555 1_555
O4 C2 1_555 1_555
O5 Pb1 1_555 1_555
N1 Pb1 1_555 1_555
C1 C3 1_555 1_555
C2 O3 1_555 1_555
C3 N1 1_555 1_555
C4 C3 1_555 1_555
C5 C4 1_555 1_555
C6 C5 1_555 1_555
C7 N1 1_555 1_555
C8 Pb1 1_555 1_555
C9 C8 1_555 1_555
C10 C9 1_555 1_555
C11 C10 1_555 1_555
C12 C11 1_555 1_555
C13 C8 1_555 1_555
C14 Pb1 1_555 1_555
C15 C14 1_555 1_555
C16 C15 1_555 1_555
C17 C16 1_555 1_555
C18 C17 1_555 1_555
C19 C14 1_555 1_555
H1 C4 1_555 1_555
H2 C5 1_555 1_555
H3 C6 1_555 1_555
H4 C9 1_555 1_555
H5 C10 1_555 1_555
H6 C11 1_555 1_555
H7 C12 1_555 1_555
H8 C13 1_555 1_555
H9 C15 1_555 1_555
H10 C16 1_555 1_555
H11 C17 1_555 1_555
H12 C18 1_555 1_555
H13 C19 1_555 1_555
O4A Pb1 1_555 1_555
Pb1A O4 1_555 1_555
C2 C7 1_555 1_555
C6 C7 1_555 1_555
C12 C13 1_555 1_555
C18 C19 1_555 1_555

#END
