
#######################################################################
#
#                 Cambridge Crystallographic Data Centre
#                                CCDC 
#
#######################################################################
#
# If this CIF has been generated from an entry in the Cambridge 
# Structural Database, then it will include bibliographic, chemical, 
# crystal, experimental, refinement or atomic coordinate data resulting 
# from the CCDC's data processing and validation procedures.
#
#######################################################################

data_GEKWUP
_symmetry_cell_setting           monoclinic
_symmetry_space_group_name_H-M   'P 21/n'
_symmetry_Int_Tables_number      14
_space_group_name_Hall           '-P 2yn'
loop_
_symmetry_equiv_pos_site_id
_symmetry_equiv_pos_as_xyz
1 x,y,z
2 1/2-x,1/2+y,1/2-z
3 -x,-y,-z
4 1/2+x,1/2-y,1/2+z
_cell_length_a                   10.3953(19)
_cell_length_b                   6.5823(12)
_cell_length_c                   43.283(8)
_cell_angle_alpha                90
_cell_angle_beta                 93.228(5)
_cell_angle_gamma                90
_cell_volume                     2956.94
loop_
_atom_site_label
_atom_site_type_symbol
_atom_site_fract_x
_atom_site_fract_y
_atom_site_fract_z
S1 S 0.22306(6) 0.00977(10) 0.365691(16)
S2 S 0.35722(6) 0.40354(10) 0.375565(16)
S3 S 0.20747(8) -0.03837(12) 0.440412(17)
S4 S 0.35175(8) 0.34780(12) 0.449151(18)
S5 S 0.18444(9) -0.08945(14) 0.509549(19)
S6 S 0.33390(8) 0.34326(12) 0.518244(18)
Na1 Na 0.48244(10) -0.20673(16) 0.27598(2)
Na2 Na 0.38273(10) 0.28045(16) 0.24798(3)
O1 O 0.30951(17) 0.0310(3) 0.28283(4)
O2 O 0.12099(17) -0.0554(3) 0.30107(5)
O3 O 0.29625(17) 0.4873(3) 0.28748(4)
O4 O 0.44472(17) 0.6015(3) 0.32241(4)
O5 O 0.4646(2) -0.0395(3) 0.22809(5)
O6 O 0.5775(2) -0.5260(3) 0.26129(6)
N1 N 0.6727(2) -0.0417(3) 0.30496(6)
N2 N 0.7901(2) -0.0391(4) 0.29522(6)
N3 N 0.8748(2) -0.0246(4) 0.31985(6)
C1 C 0.2275(2) 0.0350(4) 0.30275(6)
C2 C 0.3552(2) 0.4826(4) 0.31341(6)
C3 C 0.2591(2) 0.1489(4) 0.33260(6)
C4 C 0.3172(2) 0.3294(4) 0.33709(6)
C5 C 0.2871(2) 0.1899(4) 0.39243(6)
C6 C 0.2825(3) 0.1690(4) 0.42301(7)
C7 C 0.2318(3) 0.0546(4) 0.47836(6)
C8 C 0.2961(3) 0.2298(4) 0.48218(6)
C9 C 0.0851(3) -0.2816(5) 0.49139(8)
H1 H 0.0185 -0.2178 0.4777
H2 H 0.0441 -0.3612 0.5073
H3 H 0.1381 -0.3713 0.4793
C10 C 0.4756(3) 0.2025(5) 0.53113(8)
H4 H 0.4545 0.0577 0.5322
H5 H 0.5063 0.2505 0.5517
H6 H 0.5432 0.2228 0.5165
C11 C 0.6824(2) -0.0278(4) 0.33673(7)
C12 C 0.8124(2) -0.0174(4) 0.34655(7)
C13 C 0.8532(3) -0.0046(4) 0.37770(7)
H7 H 0.9419 0.0011 0.3842
C14 C 0.7582(3) -0.0007(4) 0.39845(7)
H8 H 0.7815 0.0082 0.4199
C15 C 0.6263(3) -0.0096(4) 0.38859(8)
H9 H 0.5635 -0.0055 0.4037
C16 C 0.5861(3) -0.0240(4) 0.35805(7)
H10 H 0.4973 -0.0310 0.3516
H15 H 0.956(3) -0.025(5) 0.3162(7)
H17 H 0.512(4) -0.041(6) 0.2115(9)
H18 H 0.393(4) -0.051(6) 0.2185(9)
H19 H 0.631(4) -0.544(6) 0.2776(10)
H20 H 0.618(3) -0.535(5) 0.2462(9)
Na1_2 Na 0.48244(10) 0.79327(16) 0.27598(2)
Na2A Na 0.11727(10) -0.21955(16) 0.25202(3)
Na2_2 Na 0.38273(10) -0.71955(16) 0.24798(3)
O2A O 0.37901(17) 0.4446(3) 0.19893(5)
O4_2 O 0.44472(17) -0.3985(3) 0.32241(4)
O6_2 O 0.5775(2) 0.4740(3) 0.26129(6)
H19_2 H 0.631(4) 0.456(6) 0.2776(10)
H20_2 H 0.618(3) 0.465(5) 0.2462(9)
N4 N 0.6854(2) 0.4830(3) 0.34461(5)
N5 N 0.7442(2) 0.4723(3) 0.31770(6)
N6 N 0.8690(2) 0.4705(3) 0.32368(6)
C17 C 0.7732(2) 0.4895(4) 0.36904(7)
C18 C 0.8917(3) 0.4817(4) 0.35512(7)
C19 C 1.0078(3) 0.4870(5) 0.37335(8)
H11 H 1.0890 0.4832 0.3643
C20 C 0.9990(3) 0.4978(5) 0.40460(8)
H12 H 1.0759 0.5017 0.4175
C21 C 0.8796(3) 0.5032(5) 0.41828(7)
H13 H 0.8783 0.5094 0.4402
C22 C 0.7649(3) 0.4999(4) 0.40103(7)
H14 H 0.6844 0.5045 0.4103
H16 H 0.602(3) 0.502(5) 0.3431(8)
loop_
_geom_bond_atom_site_label_1
_geom_bond_atom_site_label_2
_geom_bond_site_symmetry_1
_geom_bond_site_symmetry_2
S1 C3 1_555 1_555
S2 C4 1_555 1_555
S3 C6 1_555 1_555
S4 C6 1_555 1_555
S5 C7 1_555 1_555
S6 C8 1_555 1_555
Na1 O1 1_555 1_555
Na2 O1 1_555 1_555
O1 C1 1_555 1_555
O2 C1 1_555 1_555
O3 Na2 1_555 1_555
O4 C2 1_555 1_555
O5 Na1 1_555 1_555
O6 Na1 1_555 1_555
N1 Na1 1_555 1_555
N2 N1 1_555 1_555
N3 N2 1_555 1_555
N4 N5 1_555 1_555
N5 N6 1_555 1_555
N6 C18 1_555 1_555
C1 C3 1_555 1_555
C2 O3 1_555 1_555
C3 C4 1_555 1_555
C4 C2 1_555 1_555
C5 S1 1_555 1_555
C6 C5 1_555 1_555
C7 S3 1_555 1_555
C8 S4 1_555 1_555
C9 S5 1_555 1_555
H1 C9 1_555 1_555
H2 C9 1_555 1_555
H3 C9 1_555 1_555
C10 S6 1_555 1_555
H4 C10 1_555 1_555
H5 C10 1_555 1_555
H6 C10 1_555 1_555
C11 N1 1_555 1_555
C12 N3 1_555 1_555
C13 C12 1_555 1_555
H7 C13 1_555 1_555
C14 C13 1_555 1_555
H8 C14 1_555 1_555
C15 C14 1_555 1_555
H9 C15 1_555 1_555
C16 C11 1_555 1_555
H10 C16 1_555 1_555
C17 N4 1_555 1_555
C18 C17 1_555 1_555
C19 C18 1_555 1_555
H11 C19 1_555 1_555
C20 C19 1_555 1_555
H12 C20 1_555 1_555
C21 C20 1_555 1_555
H13 C21 1_555 1_555
C22 C17 1_555 1_555
H14 C22 1_555 1_555
H15 N3 1_555 1_555
H16 N4 1_555 1_555
H17 O5 1_555 1_555
H18 O5 1_555 1_555
H19 O6 1_555 1_555
H20 O6 1_555 1_555
Na1_2 O4 1_555 1_555
Na2A O2 1_555 1_555
Na2_2 O6 1_555 1_555
O2A Na2 1_555 1_555
O4_2 Na1 1_555 1_555
O6_2 Na2 1_555 1_555
H19_2 O6_2 1_555 1_555
H20_2 O6_2 1_555 1_555
S2 C5 1_555 1_555
Na2 O5 1_555 1_555
C7 C8 1_555 1_555
C11 C12 1_555 1_555
C15 C16 1_555 1_555
C21 C22 1_555 1_555
Na1_2 O6_2 1_555 1_555

#END
