
#######################################################################
#
#                 Cambridge Crystallographic Data Centre
#                                CCDC 
#
#######################################################################
#
# If this CIF has been generated from an entry in the Cambridge 
# Structural Database, then it will include bibliographic, chemical, 
# crystal, experimental, refinement or atomic coordinate data resulting 
# from the CCDC's data processing and validation procedures.
#
#######################################################################

data_GEKYEA
_symmetry_cell_setting           monoclinic
_symmetry_space_group_name_H-M   'P 21/c'
_symmetry_Int_Tables_number      14
_space_group_name_Hall           '-P 2ybc'
loop_
_symmetry_equiv_pos_site_id
_symmetry_equiv_pos_as_xyz
1 x,y,z
2 -x,1/2+y,1/2-z
3 -x,-y,-z
4 x,1/2-y,1/2+z
_cell_length_a                   10.588(2)
_cell_length_b                   13.395(3)
_cell_length_c                   9.540(5)
_cell_angle_alpha                90
_cell_angle_beta                 90.32(3)
_cell_angle_gamma                90
_cell_volume                     1353
loop_
_atom_site_label
_atom_site_type_symbol
_atom_site_fract_x
_atom_site_fract_y
_atom_site_fract_z
Cu1 Cu 0.0000 0.5000 0.5000
P1 P 0.1701(3) 0.3867(2) 0.2916(3)
O1 O -0.1039(7) 0.3983(5) 0.4098(8)
O2 O 0.1371(7) 0.4804(5) 0.3658(7)
O3 O 0.228(1) 0.3986(7) 0.144(1)
O4 O 0.2850(9) 0.3286(7) 0.364(1)
N1 N 0.082(1) 0.1422(7) 0.147(1)
C1 C 0.045(1) 0.3043(7) 0.280(1)
C2 C -0.0742(9) 0.3223(7) 0.338(1)
C3 C -0.178(1) 0.249(1) 0.321(2)
C4 C 0.065(1) 0.2147(7) 0.208(1)
C5 C 0.163(2) 0.445(1) 0.041(2)
C6 C 0.359(2) 0.370(2) 0.458(2)
C7 C 0.225(3) 0.492(2) -0.088(2)
C8 C 0.473(2) 0.306(2) 0.497(3)
C9 C 0.364(3) 0.512(3) -0.054(4)
C10 C 0.554(2) 0.356(3) 0.604(2)
P1B P -0.1701(3) 0.6133(2) 0.7084(3)
O1B O 0.1039(7) 0.6017(5) 0.5902(8)
O2B O -0.1371(7) 0.5196(5) 0.6342(7)
O3B O -0.228(1) 0.6014(7) 0.856(1)
O4B O -0.2850(9) 0.6714(7) 0.636(1)
N1B N -0.082(1) 0.8578(7) 0.853(1)
C1B C -0.045(1) 0.6957(7) 0.720(1)
C2B C 0.0742(9) 0.6777(7) 0.662(1)
C3B C 0.178(1) 0.751(1) 0.679(2)
C4B C -0.065(1) 0.7853(7) 0.792(1)
C5B C -0.163(2) 0.555(1) 0.959(2)
C6B C -0.359(2) 0.630(2) 0.542(2)
C7B C -0.225(3) 0.508(2) 1.088(2)
C8B C -0.473(2) 0.694(2) 0.503(3)
C9B C -0.364(3) 0.488(3) 1.054(4)
C10B C -0.554(2) 0.644(3) 0.396(2)
N1A N -0.082(1) 0.6422(7) 0.353(1)
N1C N 0.082(1) 0.3578(7) 0.647(1)
Cu1A Cu 0.0000 0.0000 0.0000
Cu1A_2 Cu 0.0000 1.0000 1.0000
loop_
_geom_bond_atom_site_label_1
_geom_bond_atom_site_label_2
_geom_bond_site_symmetry_1
_geom_bond_site_symmetry_2
Cu1 O1 1_555 1_555
P1 O2 1_555 1_555
O1 C2 1_555 1_555
O2 Cu1 1_555 1_555
O3 P1 1_555 1_555
O4 P1 1_555 1_555
N1 C4 1_555 1_555
C1 P1 1_555 1_555
C2 C1 1_555 1_555
C3 C2 1_555 1_555
C4 C1 1_555 1_555
C5 O3 1_555 1_555
C6 O4 1_555 1_555
C7 C5 1_555 1_555
C8 C6 1_555 1_555
C9 C7 1_555 1_555
C10 C8 1_555 1_555
P1B O2B 1_555 1_555
O1B Cu1 1_555 1_555
O2B Cu1 1_555 1_555
O3B P1B 1_555 1_555
O4B P1B 1_555 1_555
N1B C4B 1_555 1_555
C1B P1B 1_555 1_555
C2B O1B 1_555 1_555
C3B C2B 1_555 1_555
C4B C1B 1_555 1_555
C5B O3B 1_555 1_555
C6B O4B 1_555 1_555
C7B C5B 1_555 1_555
C8B C6B 1_555 1_555
C9B C7B 1_555 1_555
C10B C8B 1_555 1_555
N1A Cu1 1_555 1_555
N1C Cu1 1_555 1_555
Cu1A N1 1_555 1_555
Cu1A_2 N1B 1_555 1_555
C1B C2B 1_555 1_555

#END
