
#######################################################################
#
#                 Cambridge Crystallographic Data Centre
#                                CCDC 
#
#######################################################################
#
# If this CIF has been generated from an entry in the Cambridge 
# Structural Database, then it will include bibliographic, chemical, 
# crystal, experimental, refinement or atomic coordinate data resulting 
# from the CCDC's data processing and validation procedures.
#
#######################################################################

data_GEKZAZ
_symmetry_cell_setting           triclinic
_symmetry_space_group_name_H-M   'P -1'
_symmetry_Int_Tables_number      2
_space_group_name_Hall           '-P 1'
loop_
_symmetry_equiv_pos_site_id
_symmetry_equiv_pos_as_xyz
1 x,y,z
2 -x,-y,-z
_cell_length_a                   8.9670(2)
_cell_length_b                   9.4108(2)
_cell_length_c                   15.4476(3)
_cell_angle_alpha                96.609(1)
_cell_angle_beta                 100.6270(9)
_cell_angle_gamma                95.595(1)
_cell_volume                     1263.25
loop_
_atom_site_label
_atom_site_type_symbol
_atom_site_fract_x
_atom_site_fract_y
_atom_site_fract_z
C1 C 0.4864(4) 0.5159(4) 0.2934(2)
C2 C 0.6267(4) 0.6345(4) 0.4215(2)
C3 C 0.6797(4) 0.6861(4) 0.28960(19)
C4 C 1.0951(4) 0.8243(4) 0.6034(2)
C5 C 1.1458(5) 0.7164(4) 0.6633(2)
C6 C 1.0598(7) 0.5740(5) 0.6451(4)
H1 H 1.0914 0.5206 0.6933
H2 H 0.9527 0.5825 0.6391
H3 H 1.0784 0.5244 0.5910
C7 C 1.2680(6) 0.7582(5) 0.7310(3)
H4 H 1.3015 0.6935 0.7694
H5 H 1.3181 0.8514 0.7390
C8 C 0.8193(4) 1.0710(4) 0.6008(2)
C9 C 0.7121(4) 1.1118(5) 0.6604(2)
C10 C 0.7539(6) 1.2249(7) 0.7219(3)
H6 H 0.6886 1.2510 0.7597
H7 H 0.8487 1.2788 0.7276
C11 C 0.5662(5) 1.0219(7) 0.6470(4)
H8 H 0.5114 1.0540 0.6920
H9 H 0.5073 1.0287 0.5894
H10 H 0.5837 0.9235 0.6508
C12 C 0.2405(4) 0.5879(4) -0.0144(2)
C13 C 0.0923(4) 0.6502(4) -0.0251(3)
C14 C 0.0019(5) 0.6416(6) -0.1151(3)
H11 H -0.0893 0.6862 -0.1128
H12 H 0.0610 0.6905 -0.1511
H13 H -0.0252 0.5423 -0.1405
C15 C 0.0466(5) 0.7110(5) 0.0462(3)
H14 H -0.0456 0.7499 0.0397
H15 H 0.1070 0.7146 0.1024
C16 C 0.3876(4) 0.2460(4) 0.0117(2)
C17 C 0.3283(5) 0.0960(4) 0.0172(3)
C18 C 0.2724(8) 0.0012(5) -0.0604(4)
H16 H 0.2341 -0.0932 -0.0574
H17 H 0.2733 0.0321 -0.1154
C19 C 0.3298(8) 0.0545(6) 0.1033(4)
H18 H 0.3928 -0.0215 0.1116
H19 H 0.3700 0.1358 0.1478
H20 H 0.2275 0.0214 0.1085
N1 N 0.7664(4) 0.7597(4) 0.24452(19)
H21 H 0.8397 0.8237 0.2725
H22 H 0.7490 0.7434 0.1874
N2 N 0.6565(5) 0.6535(5) 0.50854(19)
H23 H 0.6032 0.6022 0.5371
H24 H 0.7295 0.7173 0.5371
N3 N 0.3704(5) 0.4178(5) 0.2518(2)
H25 H 0.3169 0.3701 0.2820
H26 H 0.3491 0.4022 0.1946
N4 N 0.5120(3) 0.5337(3) 0.38141(17)
N5 N 0.7130(3) 0.7169(3) 0.37865(16)
N6 N 0.5670(3) 0.5869(3) 0.24246(16)
O1 O 1.1637(3) 0.9494(3) 0.61950(16)
O2 O 0.9834(3) 0.7812(3) 0.54040(17)
O3 O 0.9510(3) 1.1394(3) 0.61722(16)
O4 O 0.7714(3) 0.9716(3) 0.53774(17)
O5 O 0.2806(3) 0.5380(3) -0.08398(16)
O6 O 0.3171(3) 0.5916(3) 0.06296(16)
O7 O 0.3938(3) 0.2778(3) -0.06416(15)
O8 O 0.4320(3) 0.3321(3) 0.08198(16)
Cu1 Cu 0.89200(4) 0.89862(4) 0.45255(2)
Cu2 Cu 0.52241(4) 0.53313(4) 0.08935(2)
O1A O 0.8363(3) 1.0506(3) 0.38050(16)
O3A O 1.0490(3) 0.8606(3) 0.38278(16)
O5A O 0.7194(3) 0.4620(3) 0.08398(16)
O7A O 0.6062(3) 0.7222(3) 0.06416(15)
Cu1A Cu 1.10800(4) 1.10138(4) 0.54745(2)
Cu2A Cu 0.47759(4) 0.46687(4) -0.08935(2)
loop_
_geom_bond_atom_site_label_1
_geom_bond_atom_site_label_2
_geom_bond_site_symmetry_1
_geom_bond_site_symmetry_2
C1 N3 1_555 1_555
C2 N2 1_555 1_555
C3 N1 1_555 1_555
C4 C5 1_555 1_555
C5 C6 1_555 1_555
C6 H1 1_555 1_555
H2 C6 1_555 1_555
H3 C6 1_555 1_555
C7 C5 1_555 1_555
H4 C7 1_555 1_555
H5 C7 1_555 1_555
C8 C9 1_555 1_555
C9 C10 1_555 1_555
C10 H6 1_555 1_555
H7 C10 1_555 1_555
C11 C9 1_555 1_555
H8 C11 1_555 1_555
H9 C11 1_555 1_555
H10 C11 1_555 1_555
C12 C13 1_555 1_555
C13 C14 1_555 1_555
C14 H11 1_555 1_555
H12 C14 1_555 1_555
H13 C14 1_555 1_555
C15 C13 1_555 1_555
H14 C15 1_555 1_555
H15 C15 1_555 1_555
C16 C17 1_555 1_555
C17 C18 1_555 1_555
C18 H16 1_555 1_555
H17 C18 1_555 1_555
C19 C17 1_555 1_555
H18 C19 1_555 1_555
H19 C19 1_555 1_555
H20 C19 1_555 1_555
N1 H21 1_555 1_555
H22 N1 1_555 1_555
N2 H23 1_555 1_555
H24 N2 1_555 1_555
N3 H25 1_555 1_555
H26 N3 1_555 1_555
N4 C1 1_555 1_555
N5 C2 1_555 1_555
N6 C1 1_555 1_555
O1 C4 1_555 1_555
O2 C4 1_555 1_555
O3 C8 1_555 1_555
O4 C8 1_555 1_555
O5 C12 1_555 1_555
O6 C12 1_555 1_555
O7 C16 1_555 1_555
O8 C16 1_555 1_555
Cu1 N5 1_555 1_555
Cu2 N6 1_555 1_555
O1A Cu1 1_555 1_555
O3A Cu1 1_555 1_555
O5A Cu2 1_555 1_555
O7A Cu2 1_555 1_555
Cu1A O1 1_555 1_555
Cu2A O5 1_555 1_555
C2 N4 1_555 1_555
C3 N5 1_555 1_555
C3 N6 1_555 1_555
O2 Cu1 1_555 1_555
O3 Cu1A 1_555 1_555
O4 Cu1 1_555 1_555
O6 Cu2 1_555 1_555
O7 Cu2A 1_555 1_555
O8 Cu2 1_555 1_555

#END
