
#######################################################################
#
#                 Cambridge Crystallographic Data Centre
#                                CCDC 
#
#######################################################################
#
# If this CIF has been generated from an entry in the Cambridge 
# Structural Database, then it will include bibliographic, chemical, 
# crystal, experimental, refinement or atomic coordinate data resulting 
# from the CCDC's data processing and validation procedures.
#
#######################################################################

data_GELBAB
_symmetry_cell_setting           monoclinic
_symmetry_space_group_name_H-M   'P 21/c'
_symmetry_Int_Tables_number      14
_space_group_name_Hall           '-P 2ybc'
loop_
_symmetry_equiv_pos_site_id
_symmetry_equiv_pos_as_xyz
1 x,y,z
2 -x,1/2+y,1/2-z
3 -x,-y,-z
4 x,1/2-y,1/2+z
_cell_length_a                   11.9906(8)
_cell_length_b                   21.2107(13)
_cell_length_c                   8.0731(5)
_cell_angle_alpha                90
_cell_angle_beta                 94.923(1)
_cell_angle_gamma                90
_cell_volume                     2045.65
loop_
_atom_site_label
_atom_site_type_symbol
_atom_site_fract_x
_atom_site_fract_y
_atom_site_fract_z
Ba1 Ba 0.184726(19) 0.222325(9) 0.04530(3)
O1 O 0.3181(2) 0.21804(13) 0.3421(3)
O2 O 0.1524(2) 0.33512(12) 0.2266(3)
O3 O 0.0680(2) 0.19823(12) 0.3260(3)
O4 O 0.3305(2) 0.12340(13) 0.0384(4)
N1 N 0.4338(3) 0.13352(15) 0.3401(4)
N2 N 0.1430(3) 0.40387(15) 0.0111(4)
N3 N -0.0340(3) 0.17219(14) 0.0865(4)
C1 C 0.4063(3) 0.18967(18) 0.4061(5)
C2 C 0.4749(4) 0.21435(19) 0.5431(5)
H1 H 0.4597 0.2548 0.5861
C3 C 0.5632(4) 0.1796(2) 0.6131(5)
H2 H 0.6082 0.1956 0.7061
C4 C 0.5868(4) 0.1207(2) 0.5477(5)
H3 H 0.6461 0.0955 0.5973
C5 C 0.5222(3) 0.10003(19) 0.4100(5)
C6 C 0.5460(4) 0.0394(2) 0.3224(6)
H4 H 0.4756 0.0170 0.2928
H5 H 0.5954 0.0129 0.3962
H6 H 0.5826 0.0488 0.2213
C7 C 0.1495(3) 0.39177(17) 0.1776(5)
C8 C 0.1512(4) 0.44591(18) 0.2818(5)
H7 H 0.1531 0.4409 0.3990
C9 C 0.1502(4) 0.50484(18) 0.2147(5)
H8 H 0.1517 0.5405 0.2860
C10 C 0.1469(3) 0.51388(18) 0.0420(5)
H9 H 0.1470 0.5552 -0.0035
C11 C 0.1436(3) 0.46247(17) -0.0591(5)
C12 C 0.1416(4) 0.46415(19) -0.2443(5)
H10 H 0.1290 0.5075 -0.2834
H11 H 0.0812 0.4370 -0.2928
H12 H 0.2135 0.4490 -0.2783
C13 C -0.0304(3) 0.18600(16) 0.2510(5)
C14 C -0.1300(4) 0.18756(18) 0.3324(5)
H13 H -0.1274 0.1961 0.4482
C15 C -0.2303(4) 0.17672(19) 0.2430(5)
H14 H -0.2978 0.1782 0.2965
C16 C -0.2336(4) 0.16345(19) 0.0738(5)
H15 H -0.3028 0.1562 0.0102
C17 C -0.1333(3) 0.16101(17) 0.0006(5)
C18 C -0.1291(4) 0.1478(2) -0.1817(5)
H16 H -0.0958 0.1839 -0.2349
H17 H -0.2052 0.1408 -0.2329
H18 H -0.0837 0.1101 -0.1961
C19 C 0.4091(4) 0.1118(2) -0.0791(6)
H19 H 0.3849 0.1330 -0.1839
H20 H 0.4144 0.0663 -0.0983
H21 H 0.4825 0.1280 -0.0364
H22 H 0.370(5) 0.123(3) 0.135(7)
H23 H 0.138(4) 0.374(2) -0.047(6)
Ba1C Ba 0.184726(19) 0.277675(9) 0.54530(3)
O1C O 0.3181(2) 0.28196(13) -0.1579(3)
O2C O 0.1524(2) 0.16488(12) -0.2734(3)
O3C O 0.0680(2) 0.30177(12) -0.1740(3)
loop_
_geom_bond_atom_site_label_1
_geom_bond_atom_site_label_2
_geom_bond_site_symmetry_1
_geom_bond_site_symmetry_2
Ba1 O1 1_555 1_555
O1 C1 1_555 1_555
O2 Ba1 1_555 1_555
O3 Ba1 1_555 1_555
O4 Ba1 1_555 1_555
N1 C1 1_555 1_555
N2 C7 1_555 1_555
N3 Ba1 1_555 1_555
C1 C2 1_555 1_555
C2 H1 1_555 1_555
C3 C2 1_555 1_555
H2 C3 1_555 1_555
C4 C3 1_555 1_555
H3 C4 1_555 1_555
C5 N1 1_555 1_555
C6 C5 1_555 1_555
H4 C6 1_555 1_555
H5 C6 1_555 1_555
H6 C6 1_555 1_555
C7 O2 1_555 1_555
C8 C7 1_555 1_555
H7 C8 1_555 1_555
C9 C8 1_555 1_555
H8 C9 1_555 1_555
C10 C9 1_555 1_555
H9 C10 1_555 1_555
C11 N2 1_555 1_555
C12 C11 1_555 1_555
H10 C12 1_555 1_555
H11 C12 1_555 1_555
H12 C12 1_555 1_555
C13 O3 1_555 1_555
C14 C13 1_555 1_555
H13 C14 1_555 1_555
C15 C14 1_555 1_555
H14 C15 1_555 1_555
C16 C15 1_555 1_555
H15 C16 1_555 1_555
C17 N3 1_555 1_555
C18 C17 1_555 1_555
H16 C18 1_555 1_555
H17 C18 1_555 1_555
H18 C18 1_555 1_555
C19 O4 1_555 1_555
H19 C19 1_555 1_555
H20 C19 1_555 1_555
H21 C19 1_555 1_555
H22 O4 1_555 1_555
H23 N2 1_555 1_555
Ba1C O1 1_555 1_555
O1C Ba1 1_555 1_555
O2C Ba1 1_555 1_555
O3C Ba1 1_555 1_555
O2 Ba1C 1_555 1_555
O3 Ba1C 1_555 1_555
N3 C13 1_555 1_555
C4 C5 1_555 1_555
C10 C11 1_555 1_555
C16 C17 1_555 1_555

#END
