
#######################################################################
#
#                 Cambridge Crystallographic Data Centre
#                                CCDC 
#
#######################################################################
#
# If this CIF has been generated from an entry in the Cambridge 
# Structural Database, then it will include bibliographic, chemical, 
# crystal, experimental, refinement or atomic coordinate data resulting 
# from the CCDC's data processing and validation procedures.
#
#######################################################################

data_GELBUV
_symmetry_cell_setting           monoclinic
_symmetry_space_group_name_H-M   'P 21'
_symmetry_Int_Tables_number      4
_space_group_name_Hall           'P 2yb'
loop_
_symmetry_equiv_pos_site_id
_symmetry_equiv_pos_as_xyz
1 x,y,z
2 -x,1/2+y,-z
_cell_length_a                   9.78970(10)
_cell_length_b                   13.2540(2)
_cell_length_c                   11.05280(10)
_cell_angle_alpha                90
_cell_angle_beta                 98.5020(10)
_cell_angle_gamma                90
_cell_volume                     1418.37
loop_
_atom_site_label
_atom_site_type_symbol
_atom_site_fract_x
_atom_site_fract_y
_atom_site_fract_z
Cu1 Cu 0.3962(5) 0.1775(3) 0.1282(4)
O1 O 0.271(3) 0.290(2) 0.097(3)
O2 O 0.512(3) 0.061(2) 0.173(3)
N1 N 0.270(4) 0.081(3) 0.032(3)
H1 H 0.29(5) 0.08(4) -0.04(4)
N2 N 0.515(6) -0.107(4) 0.170(5)
H2 H 0.48(7) -0.15(6) 0.14(6)
H3 H 0.59(6) -0.11(5) 0.20(5)
C1 C 0.168(4) 0.297(3) 0.001(4)
C2 C 0.139(4) 0.389(4) -0.059(4)
H4 H 0.19(5) 0.46(4) -0.03(4)
C3 C 0.035(5) 0.393(4) -0.160(4)
H5 H 0.03(5) 0.45(4) -0.21(5)
C4 C -0.040(5) 0.307(4) -0.200(4)
H6 H -0.11(6) 0.32(5) -0.27(5)
C5 C -0.010(5) 0.217(4) -0.140(4)
H7 H -0.06(5) 0.16(4) -0.17(5)
C6 C 0.093(4) 0.209(3) -0.039(4)
C7 C 0.122(5) 0.112(3) 0.027(4)
H8 H 0.10(5) 0.12(4) 0.11(5)
H9 H 0.06(5) 0.07(4) -0.01(5)
C8 C 0.301(4) -0.021(3) 0.086(4)
H10 H 0.24(4) -0.03(4) 0.15(4)
C9 C 0.452(5) -0.021(3) 0.145(4)
C10 C 0.263(5) -0.107(4) -0.005(4)
H11 H 0.16(5) -0.09(5) -0.04(4)
H12 H 0.32(5) -0.10(5) -0.05(5)
H13 H 0.26(6) -0.18(5) 0.03(5)
Cu2 Cu 0.3382(4) 0.3765(3) 0.2334(4)
O3 O 0.487(3) 0.280(2) 0.237(3)
O4 O 0.173(3) 0.454(2) 0.246(3)
N3 N 0.418(3) 0.447(3) 0.385(3)
H14 H 0.46(5) 0.49(4) 0.36(4)
N4 N 0.068(4) 0.544(3) 0.377(4)
H15 H 0.00(5) 0.54(4) 0.32(4)
H16 H 0.07(6) 0.57(6) 0.45(6)
C11 C 0.617(4) 0.292(3) 0.298(3)
C12 C 0.729(4) 0.253(3) 0.251(4)
H17 H 0.71(5) 0.22(4) 0.18(5)
C13 C 0.862(4) 0.267(4) 0.314(4)
H18 H 0.94(6) 0.24(5) 0.28(6)
C14 C 0.883(5) 0.320(4) 0.423(4)
H19 H 0.97(6) 0.33(5) 0.46(5)
C15 C 0.772(4) 0.359(3) 0.469(4)
H20 H 0.78(4) 0.40(4) 0.54(4)
C16 C 0.636(4) 0.346(3) 0.409(3)
C17 C 0.516(4) 0.382(3) 0.468(3)
H21 H 0.56(4) 0.42(4) 0.55(4)
H22 H 0.46(5) 0.32(5) 0.50(5)
C18 C 0.301(4) 0.484(3) 0.446(4)
H23 H 0.28(4) 0.43(3) 0.50(4)
C19 C 0.175(4) 0.496(3) 0.348(4)
C20 C 0.338(6) 0.580(5) 0.522(5)
H24 H 0.40(6) 0.57(5) 0.57(6)
H25 H 0.34(10) 0.68(11) 0.46(9)
H26 H 0.28(5) 0.60(4) 0.56(5)
Cl1 Cl 0.5990(11) 0.1172(7) -0.1138(9)
O5 O 0.502(3) 0.187(3) -0.069(3)
O6 O 0.728(4) 0.120(3) -0.031(3)
O7 O 0.542(4) 0.016(2) -0.117(3)
O8 O 0.620(4) 0.148(3) -0.234(3)
Cu2A Cu 0.6618(4) -0.1235(3) -0.2334(4)
O7A O 0.458(4) 0.516(2) 0.117(3)
Cl2 Cl 0.2310(11) 0.1411(8) 0.4211(9)
O9 O 0.300(4) 0.087(3) 0.335(4)
O10 O 0.216(4) 0.247(3) 0.384(4)
O11 O 0.317(5) 0.135(4) 0.538(3)
O12 O 0.100(4) 0.097(3) 0.426(4)
O13 O 0.754(5) -0.178(5) 0.331(4)
H27 H 0.84(3) -0.20(4) 0.30(4)
H28 H 0.70(4) -0.21(4) 0.26(4)
O14 O 0.216(4) 0.042(3) 0.752(3)
H29 H 0.25(6) 0.07(3) 0.69(3)
H30 H 0.24(6) -0.023(14) 0.74(5)
loop_
_geom_bond_atom_site_label_1
_geom_bond_atom_site_label_2
_geom_bond_site_symmetry_1
_geom_bond_site_symmetry_2
Cu1 O1 1_555 1_555
O1 C1 1_555 1_555
O2 Cu1 1_555 1_555
N1 Cu1 1_555 1_555
H1 N1 1_555 1_555
N2 H2 1_555 1_555
H3 N2 1_555 1_555
C1 C2 1_555 1_555
C2 H4 1_555 1_555
C3 C2 1_555 1_555
H5 C3 1_555 1_555
C4 C3 1_555 1_555
H6 C4 1_555 1_555
C5 C4 1_555 1_555
H7 C5 1_555 1_555
C6 C1 1_555 1_555
C7 N1 1_555 1_555
H8 C7 1_555 1_555
H9 C7 1_555 1_555
C8 N1 1_555 1_555
H10 C8 1_555 1_555
C9 O2 1_555 1_555
C10 C8 1_555 1_555
H11 C10 1_555 1_555
H12 C10 1_555 1_555
H13 C10 1_555 1_555
Cu2 O1 1_555 1_555
O3 Cu1 1_555 1_555
O4 Cu2 1_555 1_555
N3 Cu2 1_555 1_555
H14 N3 1_555 1_555
N4 H15 1_555 1_555
H16 N4 1_555 1_555
C11 O3 1_555 1_555
C12 C11 1_555 1_555
H17 C12 1_555 1_555
C13 C12 1_555 1_555
H18 C13 1_555 1_555
C14 C13 1_555 1_555
H19 C14 1_555 1_555
C15 C14 1_555 1_555
H20 C15 1_555 1_555
C16 C11 1_555 1_555
C17 N3 1_555 1_555
H21 C17 1_555 1_555
H22 C17 1_555 1_555
C18 N3 1_555 1_555
H23 C18 1_555 1_555
C19 O4 1_555 1_555
C20 C18 1_555 1_555
H24 C20 1_555 1_555
H25 C20 1_555 1_555
H26 C20 1_555 1_555
Cl1 O5 1_555 1_555
O5 Cu1 1_555 1_555
O6 Cl1 1_555 1_555
O7 Cl1 1_555 1_555
O8 Cl1 1_555 1_555
Cl2 O9 1_555 1_555
O10 Cl2 1_555 1_555
O11 Cl2 1_555 1_555
O12 Cl2 1_555 1_555
O13 H27 1_555 1_555
H28 O13 1_555 1_555
O14 H29 1_555 1_555
H30 O14 1_555 1_555
Cu2A O7 1_555 1_555
O7A Cu2 1_555 1_555
N2 C9 1_555 1_555
C5 C6 1_555 1_555
C6 C7 1_555 1_555
C8 C9 1_555 1_555
Cu2 O3 1_555 1_555
N4 C19 1_555 1_555
C15 C16 1_555 1_555
C16 C17 1_555 1_555
C18 C19 1_555 1_555

#END
