
#######################################################################
#
#                 Cambridge Crystallographic Data Centre
#                                CCDC 
#
#######################################################################
#
# If this CIF has been generated from an entry in the Cambridge 
# Structural Database, then it will include bibliographic, chemical, 
# crystal, experimental, refinement or atomic coordinate data resulting 
# from the CCDC's data processing and validation procedures.
#
#######################################################################

data_GELFAG
_symmetry_cell_setting           triclinic
_symmetry_space_group_name_H-M   'P -1'
_symmetry_Int_Tables_number      2
_space_group_name_Hall           '-P 1'
loop_
_symmetry_equiv_pos_site_id
_symmetry_equiv_pos_as_xyz
1 x,y,z
2 -x,-y,-z
_cell_length_a                   6.8435(2)
_cell_length_b                   6.8850(2)
_cell_length_c                   8.7154(3)
_cell_angle_alpha                88.605(1)
_cell_angle_beta                 70.943(1)
_cell_angle_gamma                88.916(1)
_cell_volume                     388.001
loop_
_atom_site_label
_atom_site_type_symbol
_atom_site_fract_x
_atom_site_fract_y
_atom_site_fract_z
Zn1 Zn 0.0000 0.5000 1.0000
O1 O 0.06286(9) 0.31245(9) 1.17133(7)
O2 O 0.26533(9) 0.66953(8) 0.97982(7)
O3 O 0.18467(9) 0.33088(8) 0.80755(7)
O4 O 0.22693(10) 0.05684(8) 0.93788(7)
C1 C 0.25241(11) 0.15947(10) 0.81308(8)
C2 C 0.37790(11) 0.07530(10) 0.65190(8)
C3 C 0.30978(11) 0.08304(10) 0.51792(9)
C4 C 0.57102(11) -0.00928(10) 0.63012(9)
F1 F 0.12362(8) 0.16019(8) 0.53106(7)
F2 F 0.64897(9) -0.01469(9) 0.75295(6)
H1 H 0.155(3) 0.353(2) 1.200(2)
H2 H 0.117(3) 0.222(3) 1.118(2)
H3 H 0.256(3) 0.793(2) 0.960(2)
H4 H 0.302(2) 0.658(2) 1.0664(19)
Zn1_2 Zn 1.0000 -0.5000 0.0000
O1A O -0.06286(9) 0.68755(9) 0.82867(7)
O2A O -0.26533(9) 0.33047(8) 1.02018(7)
O3A O 0.81533(9) -0.33088(8) 0.19245(7)
O3A_2 O -0.18467(9) 0.66912(8) 1.19245(7)
O4A O 0.77307(10) -0.05684(8) 0.06212(7)
C1A C 0.74759(11) -0.15947(10) 0.18692(8)
C2A C 0.62210(11) -0.07530(10) 0.34810(8)
C3A C 0.69022(11) -0.08304(10) 0.48208(9)
C4A C 0.42898(11) 0.00928(10) 0.36988(9)
F1A F 0.87638(8) -0.16019(8) 0.46894(7)
F2A F 0.35103(9) 0.01469(9) 0.24705(6)
H1A H -0.155(3) 0.647(2) 0.800(2)
H2A H -0.117(3) 0.778(3) 0.882(2)
H3A H -0.256(3) 0.207(2) 1.040(2)
H4A H -0.302(2) 0.342(2) 0.9336(19)
O5 O 0.36343(10) 0.50939(10) 0.23570(8)
H5 H 0.473(3) 0.466(2) 0.196(2)
H6 H 0.337(2) 0.542(2) 0.337(2)
O6 O 0.28663(12) 0.60051(11) 0.54780(8)
H7 H 0.195(3) 0.666(3) 0.595(2)
H8 H 0.273(3) 0.508(3) 0.603(2)
loop_
_geom_bond_atom_site_label_1
_geom_bond_atom_site_label_2
_geom_bond_site_symmetry_1
_geom_bond_site_symmetry_2
Zn1 O1 1_555 1_555
O1 H1 1_555 1_555
O2 Zn1 1_555 1_555
O3 Zn1 1_555 1_555
O4 C1 1_555 1_555
C1 O3 1_555 1_555
C2 C1 1_555 1_555
C3 C2 1_555 1_555
C4 C2 1_555 1_555
F1 C3 1_555 1_555
F2 C4 1_555 1_555
H2 O1 1_555 1_555
H3 O2 1_555 1_555
H4 O2 1_555 1_555
O5 H5 1_555 1_555
H6 O5 1_555 1_555
O6 H7 1_555 1_555
H8 O6 1_555 1_555
Zn1_2 O3A 1_555 1_555
O1A Zn1 1_555 1_555
O2A Zn1 1_555 1_555
O3A C1A 1_555 1_555
O3A_2 Zn1 1_555 1_555
O4A C1A 1_555 1_555
C1A C2A 1_555 1_555
C2A C3A 1_555 1_555
C3A C4 1_555 1_555
C4A C3 1_555 1_555
F1A C3A 1_555 1_555
F2A C4A 1_555 1_555
H1A O1A 1_555 1_555
H2A O1A 1_555 1_555
H3A O2A 1_555 1_555
H4A O2A 1_555 1_555
C2A C4A 1_555 1_555

#END
