
#######################################################################
#
#                 Cambridge Crystallographic Data Centre
#                                CCDC 
#
#######################################################################
#
# If this CIF has been generated from an entry in the Cambridge 
# Structural Database, then it will include bibliographic, chemical, 
# crystal, experimental, refinement or atomic coordinate data resulting 
# from the CCDC's data processing and validation procedures.
#
#######################################################################

data_GELJAJ
_symmetry_cell_setting           orthorhombic
_symmetry_space_group_name_H-M   'P b c a'
_symmetry_Int_Tables_number      61
_space_group_name_Hall           '-P 2ac 2ab'
loop_
_symmetry_equiv_pos_site_id
_symmetry_equiv_pos_as_xyz
1 x,y,z
2 1/2-x,-y,1/2+z
3 -x,1/2+y,1/2-z
4 1/2+x,1/2-y,-z
5 -x,-y,-z
6 1/2+x,y,1/2-z
7 x,1/2-y,1/2+z
8 1/2-x,1/2+y,z
_cell_length_a                   9.5232(16)
_cell_length_b                   15.846(3)
_cell_length_c                   22.369(4)
_cell_angle_alpha                90
_cell_angle_beta                 90
_cell_angle_gamma                90
_cell_volume                     3375.59
loop_
_atom_site_label
_atom_site_type_symbol
_atom_site_fract_x
_atom_site_fract_y
_atom_site_fract_z
Zn1 Zn 0.19047(4) 0.68826(2) 0.486336(17)
S1 S -0.06851(8) 0.67953(5) 0.55608(4)
O1 O 0.0498(2) 0.73746(15) 0.54027(12)
O2 O -0.1961(2) 0.70982(17) 0.52386(13)
O3 O -0.0928(3) 0.6839(2) 0.61955(13)
O4 O -0.0329(3) 0.59614(16) 0.53492(13)
N1 N 0.3098(3) 0.60054(18) 0.52610(12)
N2 N 0.3941(3) 0.33835(18) 0.90591(12)
C1 C 0.2762(4) 0.5191(3) 0.5288(2)
C2 C 0.3541(5) 0.4612(3) 0.56092(19)
C3 C 0.4719(4) 0.4860(2) 0.59126(14)
C4 C 0.5070(5) 0.5699(3) 0.5869(2)
C5 C 0.4261(4) 0.6242(3) 0.55425(19)
C6 C 0.5549(4) 0.4263(3) 0.62912(17)
C7 C 0.4956(5) 0.4218(3) 0.69261(17)
C8 C 0.5919(5) 0.3719(3) 0.73432(19)
C9 C 0.5241(4) 0.3602(2) 0.79510(15)
C10 C 0.5308(5) 0.4216(3) 0.83888(19)
C11 C 0.4663(5) 0.4085(2) 0.89331(18)
C12 C 0.3856(4) 0.2800(2) 0.86261(17)
C13 C 0.4497(4) 0.2880(3) 0.80797(17)
H4 H 0.200(4) 0.508(3) 0.5092(18)
H5 H 0.333(5) 0.410(3) 0.560(2)
H6 H 0.588(4) 0.586(3) 0.6046(19)
H7 H 0.443(5) 0.679(3) 0.555(2)
H8 H 0.556(4) 0.367(3) 0.6102(18)
H9 H 0.642(5) 0.448(2) 0.6333(18)
H10 H 0.411(5) 0.396(3) 0.687(2)
H11 H 0.485(5) 0.486(3) 0.710(2)
H12 H 0.614(6) 0.326(3) 0.714(2)
H13 H 0.691(4) 0.397(3) 0.7345(19)
H14 H 0.590(4) 0.470(3) 0.8333(17)
H15 H 0.477(4) 0.449(2) 0.9248(17)
H16 H 0.328(4) 0.232(3) 0.8734(17)
H17 H 0.448(4) 0.238(3) 0.7768(19)
Zn1C Zn -0.30953(4) 0.81174(2) 0.513664(17)
Zn1A Zn 0.30953(4) 0.31174(2) 0.986336(17)
O2C O 0.3039(2) 0.79018(17) 0.47614(13)
N2A N 0.1059(3) 0.66165(18) 0.40591(12)
O5 O 0.0852(7) 0.6294(3) 0.7089(2)
C14 C 0.2195(9) 0.6524(10) 0.6932(6)
H1 H 0.2850 0.6452 0.7254
H2 H 0.2255 0.7086 0.6774
H3 H 0.2483 0.6148 0.6618
loop_
_geom_bond_atom_site_label_1
_geom_bond_atom_site_label_2
_geom_bond_site_symmetry_1
_geom_bond_site_symmetry_2
Zn1 O1 1_555 1_555
S1 O1 1_555 1_555
O2 S1 1_555 1_555
O3 S1 1_555 1_555
O4 S1 1_555 1_555
N1 Zn1 1_555 1_555
N2 C11 1_555 1_555
C1 N1 1_555 1_555
C2 C1 1_555 1_555
C3 C2 1_555 1_555
C4 C3 1_555 1_555
C5 N1 1_555 1_555
C6 C3 1_555 1_555
C7 C6 1_555 1_555
C8 C7 1_555 1_555
C9 C8 1_555 1_555
C10 C9 1_555 1_555
C11 C10 1_555 1_555
C12 N2 1_555 1_555
C13 C9 1_555 1_555
O5 C14 1_555 1_555
C14 H1 1_555 1_555
H2 C14 1_555 1_555
H3 C14 1_555 1_555
H4 C1 1_555 1_555
H5 C2 1_555 1_555
H6 C4 1_555 1_555
H7 C5 1_555 1_555
H8 C6 1_555 1_555
H9 C6 1_555 1_555
H10 C7 1_555 1_555
H11 C7 1_555 1_555
H12 C8 1_555 1_555
H13 C8 1_555 1_555
H14 C10 1_555 1_555
H15 C11 1_555 1_555
H16 C12 1_555 1_555
H17 C13 1_555 1_555
Zn1C O2 1_555 1_555
Zn1A N2 1_555 1_555
O2C Zn1 1_555 1_555
N2A Zn1 1_555 1_555
C4 C5 1_555 1_555
C12 C13 1_555 1_555

#END
