
#######################################################################
#
#                 Cambridge Crystallographic Data Centre
#                                CCDC 
#
#######################################################################
#
# If this CIF has been generated from an entry in the Cambridge 
# Structural Database, then it will include bibliographic, chemical, 
# crystal, experimental, refinement or atomic coordinate data resulting 
# from the CCDC's data processing and validation procedures.
#
#######################################################################

data_GELJEN
_symmetry_cell_setting           orthorhombic
_symmetry_space_group_name_H-M   'I m m 2'
_symmetry_Int_Tables_number      44
_space_group_name_Hall           'I 2 -2'
loop_
_symmetry_equiv_pos_site_id
_symmetry_equiv_pos_as_xyz
1 x,y,z
2 -x,-y,z
3 x,-y,z
4 -x,y,z
5 1/2+x,1/2+y,1/2+z
6 1/2-x,1/2-y,1/2+z
7 1/2+x,1/2-y,1/2+z
8 1/2-x,1/2+y,1/2+z
_cell_length_a                   7.7795(8)
_cell_length_b                   12.4312(13)
_cell_length_c                   18.1072(19)
_cell_angle_alpha                90
_cell_angle_beta                 90
_cell_angle_gamma                90
_cell_volume                     1751.12
loop_
_atom_site_label
_atom_site_type_symbol
_atom_site_fract_x
_atom_site_fract_y
_atom_site_fract_z
Zn1 Zn 0.5000 0.5000 0.04279(9)
Si1 Si 0.0000 0.5000 0.0421(3)
F1 F 0.0000 0.36423(19) 0.0419(4)
F2 F 0.2231(3) 0.5000 0.0446(4)
F3 F 0.0000 0.5000 0.1356(3)
F4 F 0.0000 0.5000 -0.0475(3)
N1 N 0.5000 0.3755(6) 0.1248(3)
N2 N 0.5000 0.6253(5) -0.0405(3)
C1 C 0.6427(8) 0.6673(5) -0.0656(4)
H1 H 0.7461 0.6363 -0.0510
C2 C 0.6492(8) 0.7542(6) -0.1122(4)
H2 H 0.7547 0.7836 -0.1254
C3 C 0.5000 0.7975(6) -0.1391(3)
C4 C 0.5000 0.8972(6) -0.1879(5)
H3 H 0.3989 0.8971 -0.2192
C5 C 0.5000 1.0000 -0.1360(6)
H4 H 0.3989 1.0000 -0.1047
C6 C 0.3505(7) 0.3326(5) 0.1502(3)
H5 H 0.2470 0.3617 0.1341
C7 C 0.3465(9) 0.2459(5) 0.1999(4)
H6 H 0.2415 0.2203 0.2169
C8 C 0.5000 0.1975(6) 0.2241(4)
C9 C 0.5000 0.1029(6) 0.2735(4)
H7 H 0.3992 0.1053 0.3050
C10 C 0.5000 0.0000 0.2301(6)
H8 H 0.3997 0.0000 0.1983
Zn1_2 Zn -0.5000 0.5000 0.04279(9)
Zn1_3 Zn 0.5000 -0.5000 0.04279(9)
Zn1_4 Zn 0.5000 1.5000 0.04279(9)
F1A F 0.0000 0.63577(19) 0.0419(4)
F2A F -0.2231(3) 0.5000 0.0446(4)
F2A_2 F 0.7769(3) 0.5000 0.0446(4)
N1A N 0.5000 -0.3755(6) 0.1248(3)
N1A_2 N 0.5000 0.6245(6) 0.1248(3)
N2A N 0.5000 1.3747(5) -0.0405(3)
N2A_2 N 0.5000 0.3747(5) -0.0405(3)
C1C C 0.3573(8) 0.6673(5) -0.0656(4)
C1A C 0.3573(8) 1.3327(5) -0.0656(4)
C1B C 0.6427(8) 1.3327(5) -0.0656(4)
H1C H 0.2539 0.6363 -0.0510
H1B H 0.7461 1.3637 -0.0510
H1A H 0.2539 1.3637 -0.0510
C2C C 0.3508(8) 0.7542(6) -0.1122(4)
C2A C 0.3508(8) 1.2458(6) -0.1122(4)
C2B C 0.6492(8) 1.2458(6) -0.1122(4)
H2C H 0.2453 0.7836 -0.1254
H2B H 0.7547 1.2164 -0.1254
H2A H 0.2453 1.2164 -0.1254
C3A C 0.5000 1.2025(6) -0.1391(3)
C4A C 0.5000 1.1028(6) -0.1879(5)
H3C H 0.6011 0.8971 -0.2192
H3A H 0.6011 1.1029 -0.2192
H3B H 0.3989 1.1029 -0.2192
H4A H 0.6011 1.0000 -0.1047
C6C C 0.6495(7) 0.3326(5) 0.1502(3)
C6A C 0.6495(7) -0.3326(5) 0.1502(3)
C6B C 0.3505(7) -0.3326(5) 0.1502(3)
H5C H 0.7530 0.3617 0.1341
H5B H 0.2470 -0.3617 0.1341
H5A H 0.7530 -0.3617 0.1341
C7C C 0.6535(9) 0.2459(5) 0.1999(4)
C7A C 0.6535(9) -0.2459(5) 0.1999(4)
C7B C 0.3465(9) -0.2459(5) 0.1999(4)
H6C H 0.7585 0.2203 0.2169
H6B H 0.2415 -0.2203 0.2169
H6A H 0.7585 -0.2203 0.2169
C8A C 0.5000 -0.1975(6) 0.2241(4)
C9A C 0.5000 -0.1029(6) 0.2735(4)
H7C H 0.6008 0.1053 0.3050
H7A H 0.6008 -0.1053 0.3050
H7B H 0.3992 -0.1053 0.3050
H8A H 0.6003 0.0000 0.1983
O1 O 0.188(2) 0.0991(14) 0.0371(15)
O2 O 0.0000 0.0000 0.1909(17)
C11 C 0.0000 0.0000 0.2701(5)
O3 O 0.0000 0.1503(10) 0.0950(8)
O4 O 0.0000 1.0000 -0.1824(14)
C12 C 0.0000 1.0000 -0.1170(13)
loop_
_geom_bond_atom_site_label_1
_geom_bond_atom_site_label_2
_geom_bond_site_symmetry_1
_geom_bond_site_symmetry_2
Zn1 F2 1_555 1_555
Si1 F1 1_555 1_555
F2 Si1 1_555 1_555
F3 Si1 1_555 1_555
F4 Si1 1_555 1_555
N1 Zn1 1_555 1_555
N2 Zn1 1_555 1_555
C1 N2 1_555 1_555
H1 C1 1_555 1_555
C2 C1 1_555 1_555
H2 C2 1_555 1_555
C3 C2 1_555 1_555
C4 C3 1_555 1_555
H3 C4 1_555 1_555
C5 C4 1_555 1_555
H4 C5 1_555 1_555
C6 N1 1_555 1_555
H5 C6 1_555 1_555
C7 C6 1_555 1_555
H6 C7 1_555 1_555
C8 C7 1_555 1_555
C9 C8 1_555 1_555
H7 C9 1_555 1_555
C10 C9 1_555 1_555
H8 C10 1_555 1_555
O2 C11 1_555 1_555
O4 C12 1_555 1_555
Zn1_2 F2A 1_555 1_555
Zn1_3 N1A 1_555 1_555
Zn1_4 N2A 1_555 1_555
F1A Si1 1_555 1_555
F2A Si1 1_555 1_555
F2A_2 Zn1 1_555 1_555
N1A C6A 1_555 1_555
N1A_2 Zn1 1_555 1_555
N2A C1A 1_555 1_555
N2A_2 Zn1 1_555 1_555
C1C N2 1_555 1_555
C1A H1A 1_555 1_555
C1B N2A 1_555 1_555
H1C C1C 1_555 1_555
H1B C1B 1_555 1_555
C2C C3 1_555 1_555
C2A C1A 1_555 1_555
C2B C1B 1_555 1_555
H2C C2C 1_555 1_555
H2B C2B 1_555 1_555
H2A C2A 1_555 1_555
C3A C2A 1_555 1_555
C4A C5 1_555 1_555
H3C C4 1_555 1_555
H3A C4A 1_555 1_555
H3B C4A 1_555 1_555
H4A C5 1_555 1_555
C6C N1 1_555 1_555
C6A H5A 1_555 1_555
C6B N1A 1_555 1_555
H5C C6C 1_555 1_555
H5B C6B 1_555 1_555
C7C C8 1_555 1_555
C7A C6A 1_555 1_555
C7B C6B 1_555 1_555
H6C C7C 1_555 1_555
H6B C7B 1_555 1_555
H6A C7A 1_555 1_555
C8A C7A 1_555 1_555
C9A C10 1_555 1_555
H7C C9 1_555 1_555
H7A C9A 1_555 1_555
H7B C9A 1_555 1_555
H8A C10 1_555 1_555
C1C C2C 1_555 1_555
C2B C3A 1_555 1_555
C3A C4A 1_555 1_555
C6C C7C 1_555 1_555
C7B C8A 1_555 1_555
C8A C9A 1_555 1_555

#END
