
#######################################################################
#
#                 Cambridge Crystallographic Data Centre
#                                CCDC 
#
#######################################################################
#
# If this CIF has been generated from an entry in the Cambridge 
# Structural Database, then it will include bibliographic, chemical, 
# crystal, experimental, refinement or atomic coordinate data resulting 
# from the CCDC's data processing and validation procedures.
#
#######################################################################

data_GELJEO
_symmetry_cell_setting           monoclinic
_symmetry_space_group_name_H-M   'P 21/n'
_symmetry_Int_Tables_number      14
_space_group_name_Hall           '-P 2yn'
loop_
_symmetry_equiv_pos_site_id
_symmetry_equiv_pos_as_xyz
1 x,y,z
2 1/2-x,1/2+y,1/2-z
3 -x,-y,-z
4 1/2+x,1/2-y,1/2+z
_cell_length_a                   14.024(7)
_cell_length_b                   21.914(9)
_cell_length_c                   14.561(7)
_cell_angle_alpha                90
_cell_angle_beta                 101.840(4)
_cell_angle_gamma                90
_cell_volume                     4379.71
loop_
_atom_site_label
_atom_site_type_symbol
_atom_site_fract_x
_atom_site_fract_y
_atom_site_fract_z
N1 N 0.2004(3) 0.18623(17) 0.5024(3)
Eu1 Eu 0.175050(15) 0.133870(9) 0.347080(14)
Mo1 Mo 0.31334(3) 0.243785(16) 0.70788(2)
C1 C 0.5503(5) 0.2401(3) 0.4462(5)
H1 H 0.5160 0.2614 0.4870
H2 H 0.6112 0.2252 0.4817
H3 H 0.5623 0.2674 0.3982
O1 O 0.3469(3) 0.13728(16) 0.3864(3)
N2 N 0.0400(3) 0.05321(16) 0.3281(3)
N3 N 0.1950(3) 0.05089(17) 0.4752(3)
N4 N 0.0186(3) 0.19152(18) 0.3191(3)
C2 C 0.2379(3) 0.20604(19) 0.5749(3)
C3 C -0.0532(3) 0.2142(2) 0.2816(3)
C4 C 0.3562(4) 0.3005(2) 0.5998(3)
C5 C 0.2419(3) 0.3317(2) 0.7015(3)
C6 C 0.3038(4) 0.2576(2) 0.8544(4)
N5 N 0.2024(4) 0.3775(2) 0.6970(4)
C7 C 0.1357(3) 0.00133(19) 0.4603(3)
N6 N 0.4868(4) 0.1658(3) 0.6361(4)
C8 C 0.4281(4) 0.1933(2) 0.6610(3)
N7 N 0.3292(4) 0.1048(2) 0.8010(4)
C9 C 0.0076(5) -0.0999(2) 0.4294(4)
H4 H -0.0347 -0.1331 0.4194
C10 C -0.0380(4) 0.0547(2) 0.2579(4)
H5 H -0.0491 0.0897 0.2211
C11 C 0.0541(3) 0.00263(19) 0.3831(3)
C12 C 0.1508(4) -0.0514(2) 0.5195(3)
N8 N 0.4913(3) 0.1885(2) 0.4026(3)
C13 C 0.1644(4) 0.2233(3) 0.7182(4)
C14 C 0.3236(4) 0.1528(2) 0.7678(3)
C15 C -0.0108(4) -0.0478(2) 0.3667(4)
C16 C -0.0898(4) -0.0448(3) 0.2908(4)
H6 H -0.1325 -0.0776 0.2770
N9 N 0.3003(5) 0.2633(3) 0.9322(3)
N10 N 0.3764(4) 0.3312(2) 0.5435(3)
C17 C 0.2701(4) 0.0495(2) 0.5484(4)
H7 H 0.3109 0.0833 0.5597
C18 C 0.2312(5) -0.0507(3) 0.5943(4)
H8 H 0.2444 -0.0844 0.6337
C19 C 0.0837(5) -0.1012(2) 0.5009(4)
H9 H 0.0936 -0.1353 0.5397
C20 C -0.1035(4) 0.0065(3) 0.2371(4)
H10 H -0.1562 0.0094 0.1869
N11 N 0.2629(4) 0.3148(2) 0.2259(4)
N12 N 0.0860(4) 0.2130(3) 0.7235(5)
C21 C 0.4008(3) 0.1798(3) 0.4192(4)
H11 H 0.3778 0.2077 0.4577
C22 C 0.2018(5) 0.2698(3) 0.2452(5)
H12 H 0.1398 0.2673 0.2075
C23 C 0.2899(5) -0.0012(3) 0.6094(4)
H13 H 0.3430 -0.0005 0.6596
N13 N 0.3799(5) -0.0094(3) 0.2801(4)
C24 C 0.2920(5) 0.0182(3) 0.2485(5)
H14 H 0.2715 0.0200 0.1837
C25 C 0.2332(7) 0.3536(4) 0.1418(6)
H15 H 0.1658 0.3463 0.1145
H16 H 0.2420 0.3958 0.1594
H17 H 0.2723 0.3439 0.0969
C26 C 0.4179(8) -0.0124(5) 0.3815(5)
H18 H 0.3750 0.0093 0.4136
H19 H 0.4221 -0.0543 0.4013
H20 H 0.4815 0.0057 0.3961
C27 C 0.5294(7) 0.1462(4) 0.3432(8)
H21 H 0.4764 0.1272 0.3007
H22 H 0.5697 0.1678 0.3081
H23 H 0.5675 0.1156 0.3813
C28 C 0.4352(8) -0.0348(6) 0.2165(7)
H24 H 0.4927 -0.0107 0.2181
H25 H 0.4535 -0.0759 0.2348
H26 H 0.3963 -0.0347 0.1540
O2 O 0.1382(4) 0.1366(2) 0.1818(3)
N14 N 0.1342(5) 0.1131(3) 0.0295(3)
C29 C 0.0918(10) 0.1193(7) 0.1090(6)
H27 H 0.0264 0.1096 0.1042
C30 C 0.3638(8) 0.3161(9) 0.2757(11)
H28 H 0.4042 0.2976 0.2376
H29 H 0.3838 0.3576 0.2889
H30 H 0.3702 0.2939 0.3335
C31 C 0.2366(9) 0.1288(7) 0.0335(12)
H31 H 0.2594 0.1548 0.0866
H32 H 0.2750 0.0922 0.0396
H33 H 0.2425 0.1497 -0.0230
C32 C 0.0693(11) 0.0908(7) -0.0583(8)
H34 H 0.0692 0.1198 -0.1077
H35 H 0.0927 0.0522 -0.0757
H36 H 0.0043 0.0860 -0.0480
O3 O 0.2237(3) 0.23380(17) 0.3075(3)
O4 O 0.2384(3) 0.04020(19) 0.2918(3)
Mo1C Mo -0.18666(3) 0.256215(16) 0.20788(2)
C3C C 0.4468(3) 0.2858(2) 0.7816(3)
O5 O 0.1524(4) 0.4907(2) 0.6075(4)
O6 O 0.7232(8) 0.5497(4) 0.5225(6)
C34 C 0.5289(17) 0.8253(16) 1.028(2)
O7 O 0.4549(17) 0.8244(14) 1.0559(19)
C35 C 0.524(3) 0.8545(14) 0.931(2)
C37 C 0.499(4) 0.7765(14) 0.946(3)
O9 O 0.5332(10) 0.9337(9) 0.9707(10)
C33? C 0.4185(18) 0.833(2) 1.015(3)
C36? C 0.407(3) 0.828(2) 1.065(3)
O8? O 0.497(2) 0.8020(10) 0.967(2)
C38? C 0.603(3) 0.7674(12) 0.884(2)
C39? C 0.6760(19) 0.3824(11) 0.4460(12)
C40? C 0.5621(14) 0.4364(8) 0.5296(16)
C41? C 0.8389(15) 0.1587(11) 0.8009(13)
C42? C 0.6688(15) 0.3520(8) 0.6137(8)
H37? H 0.6252 0.3862 0.3910
H38? H 0.7076 0.3436 0.4453
H39? H 0.7227 0.4145 0.4466
H40? H 0.5763 0.4697 0.4918
H41? H 0.5654 0.4503 0.5927
H42? H 0.4978 0.4213 0.5044
H43? H 0.8086 0.1386 0.8461
H44? H 0.8807 0.1906 0.8313
H45? H 0.8766 0.1297 0.7741
H46? H 0.7144 0.3211 0.6145
loop_
_geom_bond_atom_site_label_1
_geom_bond_atom_site_label_2
_geom_bond_site_symmetry_1
_geom_bond_site_symmetry_2
N1 Eu1 1_555 1_555
Eu1 O1 1_555 1_555
Mo1 C2 1_555 1_555
C1 H1 1_555 1_555
H2 C1 1_555 1_555
H3 C1 1_555 1_555
O1 C21 1_555 1_555
N2 Eu1 1_555 1_555
N3 Eu1 1_555 1_555
N4 Eu1 1_555 1_555
C2 N1 1_555 1_555
C3 N4 1_555 1_555
C4 Mo1 1_555 1_555
C5 Mo1 1_555 1_555
C6 Mo1 1_555 1_555
N5 C5 1_555 1_555
C7 N3 1_555 1_555
N6 C8 1_555 1_555
C8 Mo1 1_555 1_555
N7 C14 1_555 1_555
C9 H4 1_555 1_555
C10 N2 1_555 1_555
H5 C10 1_555 1_555
C11 N2 1_555 1_555
C12 C7 1_555 1_555
N8 C1 1_555 1_555
C13 Mo1 1_555 1_555
C14 Mo1 1_555 1_555
C15 C9 1_555 1_555
C16 C15 1_555 1_555
H6 C16 1_555 1_555
N9 C6 1_555 1_555
N10 C4 1_555 1_555
C17 N3 1_555 1_555
H7 C17 1_555 1_555
C18 C12 1_555 1_555
H8 C18 1_555 1_555
C19 C9 1_555 1_555
H9 C19 1_555 1_555
C20 C10 1_555 1_555
H10 C20 1_555 1_555
N11 C22 1_555 1_555
N12 C13 1_555 1_555
C21 N8 1_555 1_555
H11 C21 1_555 1_555
C22 H12 1_555 1_555
C23 C17 1_555 1_555
H13 C23 1_555 1_555
N13 C24 1_555 1_555
C24 H14 1_555 1_555
C25 N11 1_555 1_555
H15 C25 1_555 1_555
H16 C25 1_555 1_555
H17 C25 1_555 1_555
C26 N13 1_555 1_555
H18 C26 1_555 1_555
H19 C26 1_555 1_555
H20 C26 1_555 1_555
C27 N8 1_555 1_555
H21 C27 1_555 1_555
H22 C27 1_555 1_555
H23 C27 1_555 1_555
C28 N13 1_555 1_555
H24 C28 1_555 1_555
H25 C28 1_555 1_555
H26 C28 1_555 1_555
O2 Eu1 1_555 1_555
N14 C29 1_555 1_555
C29 O2 1_555 1_555
H27 C29 1_555 1_555
C30 N11 1_555 1_555
H28 C30 1_555 1_555
H29 C30 1_555 1_555
H30 C30 1_555 1_555
C31 N14 1_555 1_555
H31 C31 1_555 1_555
H32 C31 1_555 1_555
H33 C31 1_555 1_555
C32 N14 1_555 1_555
H34 C32 1_555 1_555
H35 C32 1_555 1_555
H36 C32 1_555 1_555
O3 Eu1 1_555 1_555
O4 Eu1 1_555 1_555
C34 O7 1_555 1_555
C35 C34 1_555 1_555
C37 C34 1_555 1_555
Mo1C C3 1_555 1_555
C3C Mo1 1_555 1_555
C7 C11 1_555 1_555
C11 C15 1_555 1_555
C12 C19 1_555 1_555
C16 C20 1_555 1_555
C18 C23 1_555 1_555
C22 O3 1_555 1_555
C24 O4 1_555 1_555

#END
