
#######################################################################
#
#                 Cambridge Crystallographic Data Centre
#                                CCDC 
#
#######################################################################
#
# If this CIF has been generated from an entry in the Cambridge 
# Structural Database, then it will include bibliographic, chemical, 
# crystal, experimental, refinement or atomic coordinate data resulting 
# from the CCDC's data processing and validation procedures.
#
#######################################################################

data_GELJIR
_symmetry_cell_setting           orthorhombic
_symmetry_space_group_name_H-M   'P c c n'
_symmetry_Int_Tables_number      56
_space_group_name_Hall           '-P 2ab 2ac'
loop_
_symmetry_equiv_pos_site_id
_symmetry_equiv_pos_as_xyz
1 x,y,z
2 1/2-x,1/2-y,z
3 -x,1/2+y,1/2-z
4 1/2+x,-y,1/2-z
5 -x,-y,-z
6 1/2+x,1/2+y,-z
7 x,1/2-y,1/2+z
8 1/2-x,y,1/2+z
_cell_length_a                   22.247(2)
_cell_length_b                   11.9196(12)
_cell_length_c                   20.1679(19)
_cell_angle_alpha                90
_cell_angle_beta                 90
_cell_angle_gamma                90
_cell_volume                     5348.03
loop_
_atom_site_label
_atom_site_type_symbol
_atom_site_fract_x
_atom_site_fract_y
_atom_site_fract_z
Zn1 Zn 0.5000 0.5000 0.0000
Zn2 Zn 0.49810(5) 0.37951(8) 0.13027(6)
Zn3 Zn 0.39946(5) 0.31261(9) 0.02033(6)
Zn4 Zn 0.38957(5) 0.54765(9) 0.09365(6)
O1 O 0.4032(3) 0.1751(5) 0.0709(4)
O2 O 0.4748(3) 0.2189(5) 0.1452(4)
O3 O 0.3820(3) 0.5495(5) 0.1887(3)
O4 O 0.4604(3) 0.4384(5) 0.2162(3)
O5 O 0.3084(3) 0.5232(7) 0.0585(4)
O6 O 0.3150(4) 0.3568(7) 0.0090(5)
O7 O 0.4040(3) 0.7049(5) 0.0698(4)
O8 O 0.4481(3) 0.6511(5) -0.0236(3)
O9 O 0.4212(3) 0.2697(5) -0.0689(4)
O10 O 0.4615(3) 0.4364(5) -0.0903(3)
O11 O 0.4426(2) 0.4316(4) 0.0618(3)
N1 N 0.5796(3) 0.3607(6) 0.1752(4)
C1 C 0.6318(5) 0.3935(8) 0.1520(5)
H1 H 0.6335 0.4208 0.1088
C2 C 0.5797(4) 0.3176(6) 0.2358(5)
H2 H 0.5440 0.2884 0.2523
C3 C 0.6303(4) 0.3136(7) 0.2758(5)
H3 H 0.6272 0.2854 0.3186
C4 C 0.6848(4) 0.3507(6) 0.2531(5)
C5 C 0.6851(4) 0.3894(8) 0.1889(6)
H4 H 0.7209 0.4132 0.1698
C6 C 0.7402(4) 0.3501(7) 0.2950(5)
H5 H 0.7747 0.3586 0.2661
H6 H 0.7389 0.4153 0.3238
C7 C 0.7500 0.2500 0.3368(6)
H7 H 0.7847 0.2619 0.3651
C8 C 0.4157(5) 0.4993(8) 0.2313(6)
C9 C 0.4024(5) 0.5191(9) 0.3040(5)
H8 H 0.3681 0.5673 0.3081
H9 H 0.4366 0.5539 0.3246
H10 H 0.3943 0.4487 0.3253
C10 C 0.2874(5) 0.4407(13) 0.0262(7)
C11 C 0.2213(5) 0.4479(12) 0.0039(8)
H11 H 0.2108 0.3810 -0.0200
H12 H 0.2161 0.5119 -0.0244
H13 H 0.1959 0.4552 0.0421
C12 C 0.4417(5) 0.3418(8) -0.1086(6)
C13 C 0.4433(5) 0.3172(8) -0.1805(5)
H14 H 0.4600 0.3802 -0.2038
H15 H 0.4032 0.3035 -0.1961
H16 H 0.4676 0.2521 -0.1883
C14 C 0.4378(6) 0.1562(9) 0.1209(6)
C15 C 0.4304(6) 0.0385(8) 0.1510(6)
H17 H 0.4565 0.0310 0.1886
H18 H 0.4406 -0.0170 0.1184
H19 H 0.3895 0.0282 0.1648
C16 C 0.4270(5) 0.7230(8) 0.0141(7)
C17 C 0.4306(5) 0.8440(7) -0.0095(6)
H20 H 0.4493 0.8465 -0.0523
H21 H 0.4539 0.8871 0.0214
H22 H 0.3908 0.8748 -0.0124
Zn2D Zn 0.50190(5) 0.62049(8) -0.13027(6)
Zn2A Zn 1.00190(5) 0.12049(8) 0.13027(6)
Zn3D Zn 0.60054(5) 0.68739(9) -0.02033(6)
Zn4D Zn 0.61043(5) 0.45235(9) -0.09365(6)
O1D O 0.5968(3) 0.8249(5) -0.0709(4)
O2D O 0.5252(3) 0.7811(5) -0.1452(4)
O3D O 0.6180(3) 0.4505(5) -0.1887(3)
O4D O 0.5396(3) 0.5616(5) -0.2162(3)
O5D O 0.6916(3) 0.4768(7) -0.0585(4)
O6D O 0.6850(4) 0.6432(7) -0.0090(5)
O7D O 0.5960(3) 0.2951(5) -0.0698(4)
O8D O 0.5519(3) 0.3489(5) 0.0236(3)
O9D O 0.5788(3) 0.7303(5) 0.0689(4)
O10D O 0.5385(3) 0.5636(5) 0.0903(3)
O11D O 0.5574(2) 0.5684(4) -0.0618(3)
N1A N 0.9204(3) 0.1393(6) 0.1752(4)
N1D N 0.4204(3) 0.6393(6) -0.1752(4)
C1A C 0.8682(5) 0.1065(8) 0.1520(5)
H1A H 0.8665 0.0792 0.1088
C2A C 0.9203(4) 0.1824(6) 0.2358(5)
H2A H 0.9560 0.2116 0.2523
C3A C 0.8697(4) 0.1864(7) 0.2758(5)
H3A H 0.8728 0.2146 0.3186
C4A C 0.8152(4) 0.1493(6) 0.2531(5)
C5A C 0.8149(4) 0.1106(8) 0.1889(6)
H4A H 0.7791 0.0868 0.1698
C6A C 0.7598(4) 0.1499(7) 0.2950(5)
H5A H 0.7253 0.1414 0.2661
H6A H 0.7611 0.0847 0.3238
H7A H 0.7153 0.2381 0.3651
C8D C 0.5843(5) 0.5007(8) -0.2313(6)
C9D C 0.5976(5) 0.4809(9) -0.3040(5)
H8D H 0.6319 0.4327 -0.3081
H9D H 0.5634 0.4461 -0.3246
H10D H 0.6057 0.5513 -0.3253
C10D C 0.7126(5) 0.5593(13) -0.0262(7)
C11D C 0.7787(5) 0.5521(12) -0.0039(8)
H11D H 0.7892 0.6190 0.0200
H12D H 0.7839 0.4881 0.0244
H13D H 0.8041 0.5448 -0.0421
C12D C 0.5583(5) 0.6582(8) 0.1086(6)
C13D C 0.5567(5) 0.6828(8) 0.1805(5)
H14D H 0.5400 0.6198 0.2038
H15D H 0.5968 0.6965 0.1961
H16D H 0.5324 0.7479 0.1883
C14D C 0.5622(6) 0.8438(9) -0.1209(6)
C15D C 0.5696(6) 0.9615(8) -0.1510(6)
H17D H 0.5435 0.9690 -0.1886
H18D H 0.5594 1.0170 -0.1184
H19D H 0.6105 0.9718 -0.1648
C16D C 0.5730(5) 0.2770(8) -0.0141(7)
C17D C 0.5694(5) 0.1560(7) 0.0095(6)
H20D H 0.5507 0.1535 0.0523
H21D H 0.5461 0.1129 -0.0214
H22D H 0.6092 0.1252 0.0124
O12 O 0.2500 0.2500 0.1951(19)
O13 O 0.2500 0.7500 -0.0341(18)
O14 O 0.2500 0.2500 0.314(3)
loop_
_geom_bond_atom_site_label_1
_geom_bond_atom_site_label_2
_geom_bond_site_symmetry_1
_geom_bond_site_symmetry_2
Zn1 O8 1_555 1_555
Zn2 O2 1_555 1_555
Zn3 O1 1_555 1_555
Zn4 O3 1_555 1_555
O1 C14 1_555 1_555
O2 C14 1_555 1_555
O3 C8 1_555 1_555
O4 Zn2 1_555 1_555
O5 Zn4 1_555 1_555
O6 Zn3 1_555 1_555
O7 Zn4 1_555 1_555
O8 C16 1_555 1_555
O9 Zn3 1_555 1_555
O10 Zn1 1_555 1_555
O11 Zn1 1_555 1_555
N1 Zn2 1_555 1_555
C1 N1 1_555 1_555
H1 C1 1_555 1_555
C2 N1 1_555 1_555
H2 C2 1_555 1_555
C3 C2 1_555 1_555
H3 C3 1_555 1_555
C4 C3 1_555 1_555
C5 C1 1_555 1_555
H4 C5 1_555 1_555
C6 C4 1_555 1_555
H5 C6 1_555 1_555
H6 C6 1_555 1_555
C7 C6 1_555 1_555
H7 C7 1_555 1_555
C8 O4 1_555 1_555
C9 C8 1_555 1_555
H8 C9 1_555 1_555
H9 C9 1_555 1_555
H10 C9 1_555 1_555
C10 O5 1_555 1_555
C11 C10 1_555 1_555
H11 C11 1_555 1_555
H12 C11 1_555 1_555
H13 C11 1_555 1_555
C12 O9 1_555 1_555
C13 C12 1_555 1_555
H14 C13 1_555 1_555
H15 C13 1_555 1_555
H16 C13 1_555 1_555
C14 C15 1_555 1_555
C15 H17 1_555 1_555
H18 C15 1_555 1_555
H19 C15 1_555 1_555
C16 O7 1_555 1_555
C17 C16 1_555 1_555
H20 C17 1_555 1_555
H21 C17 1_555 1_555
H22 C17 1_555 1_555
Zn2D O2D 1_555 1_555
Zn2A N1A 1_555 1_555
Zn3D O1D 1_555 1_555
Zn4D O3D 1_555 1_555
O1D C14D 1_555 1_555
O2D C14D 1_555 1_555
O3D C8D 1_555 1_555
O4D Zn2D 1_555 1_555
O5D Zn4D 1_555 1_555
O6D Zn3D 1_555 1_555
O7D Zn4D 1_555 1_555
O8D Zn1 1_555 1_555
O9D Zn3D 1_555 1_555
O10D Zn1 1_555 1_555
O11D Zn1 1_555 1_555
N1A C1A 1_555 1_555
N1D Zn2D 1_555 1_555
C1A H1A 1_555 1_555
C2A N1A 1_555 1_555
H2A C2A 1_555 1_555
C3A C2A 1_555 1_555
H3A C3A 1_555 1_555
C4A C3A 1_555 1_555
C5A C1A 1_555 1_555
H4A C5A 1_555 1_555
C6A C7 1_555 1_555
H5A C6A 1_555 1_555
H6A C6A 1_555 1_555
H7A C7 1_555 1_555
C8D O4D 1_555 1_555
C9D C8D 1_555 1_555
H8D C9D 1_555 1_555
H9D C9D 1_555 1_555
H10D C9D 1_555 1_555
C10D O5D 1_555 1_555
C11D C10D 1_555 1_555
H11D C11D 1_555 1_555
H12D C11D 1_555 1_555
H13D C11D 1_555 1_555
C12D O9D 1_555 1_555
C13D C12D 1_555 1_555
H14D C13D 1_555 1_555
H15D C13D 1_555 1_555
H16D C13D 1_555 1_555
C14D C15D 1_555 1_555
C15D H17D 1_555 1_555
H18D C15D 1_555 1_555
H19D C15D 1_555 1_555
C16D O7D 1_555 1_555
C17D C16D 1_555 1_555
H20D C17D 1_555 1_555
H21D C17D 1_555 1_555
H22D C17D 1_555 1_555
Zn2 O11 1_555 1_555
Zn3 O11 1_555 1_555
Zn4 O11 1_555 1_555
O6 C10 1_555 1_555
O10 C12 1_555 1_555
C4 C5 1_555 1_555
Zn2D O11D 1_555 1_555
Zn3D O11D 1_555 1_555
Zn4D O11D 1_555 1_555
O6D C10D 1_555 1_555
O8D C16D 1_555 1_555
O10D C12D 1_555 1_555
C4A C5A 1_555 1_555
C4A C6A 1_555 1_555

#END
