
#######################################################################
#
#                 Cambridge Crystallographic Data Centre
#                                CCDC 
#
#######################################################################
#
# If this CIF has been generated from an entry in the Cambridge 
# Structural Database, then it will include bibliographic, chemical, 
# crystal, experimental, refinement or atomic coordinate data resulting 
# from the CCDC's data processing and validation procedures.
#
#######################################################################

data_GELMEQ
_symmetry_cell_setting           tetragonal
_symmetry_space_group_name_H-M   'I 41/a'
_symmetry_Int_Tables_number      88
_space_group_name_Hall           '-I 4ad'
loop_
_symmetry_equiv_pos_site_id
_symmetry_equiv_pos_as_xyz
1 x,y,z
2 3/4-y,1/4+x,1/4+z
3 1/4+y,1/4-x,1/4+z
4 1/2+x,1/2+y,1/2+z
5 1/4-y,3/4+x,3/4+z
6 -x,1/2-y,z
7 1/2-x,-y,1/2+z
8 3/4+y,3/4-x,3/4+z
9 -x,-y,-z
10 1/4+y,3/4-x,3/4-z
11 3/4-y,3/4+x,3/4-z
12 1/2-x,1/2-y,1/2-z
13 3/4+y,1/4-x,1/4-z
14 x,1/2+y,-z
15 1/2+x,y,1/2-z
16 1/4-y,1/4+x,1/4-z
_cell_length_a                   37.980(5)
_cell_length_b                   37.980(5)
_cell_length_c                   13.689(3)
_cell_angle_alpha                90
_cell_angle_beta                 90
_cell_angle_gamma                90
_cell_volume                     19746.1
loop_
_atom_site_label
_atom_site_type_symbol
_atom_site_fract_x
_atom_site_fract_y
_atom_site_fract_z
Ga1 Ga 0.229368(14) 0.839164(13) 0.03551(4)
Mn1 Mn 0.26656(2) 0.793263(19) -0.00477(5)
K1 K 0.29580(3) 0.81917(3) 0.35282(8)
O1 O 0.30965(11) 0.80637(10) 0.1682(3)
O2 O 0.21769(12) 0.74763(11) 0.1015(3)
N1 N 0.19499(11) 0.86526(10) -0.0349(3)
N2 N 0.21465(10) 0.86564(10) 0.1465(3)
N3 N 0.32616(13) 0.82376(12) 0.5432(3)
N4 N 0.37020(12) 0.81172(14) 0.3564(3)
C1 C 0.17844(14) 0.88952(13) 0.0254(4)
H1 H 0.1610 0.9052 0.0015
C2 C 0.18845(13) 0.88962(13) 0.1192(4)
H2 H 0.1782 0.9053 0.1652
C3 C 0.19062(12) 0.86795(13) -0.1377(3)
C4 C 0.17348(13) 0.84097(13) -0.1891(4)
C5 C 0.17082(14) 0.84384(15) -0.2911(4)
H3 H 0.1597 0.8256 -0.3272
C6 C 0.18416(15) 0.87275(16) -0.3396(4)
H4 H 0.1815 0.8746 -0.4084
C7 C 0.20117(15) 0.89882(15) -0.2890(4)
H5 H 0.2107 0.9183 -0.3235
C8 C 0.20478(13) 0.89720(14) -0.1883(4)
C9 C 0.15806(15) 0.80975(13) -0.1353(4)
H6 H 0.1766 0.8007 -0.0898
C10 C 0.14747(18) 0.77914(15) -0.2027(5)
H7 H 0.1291 0.7870 -0.2478
H8 H 0.1385 0.7596 -0.1631
H9 H 0.1681 0.7713 -0.2399
C11 C 0.12590(15) 0.82003(16) -0.0729(5)
H10 H 0.1323 0.8393 -0.0289
H11 H 0.1183 0.7997 -0.0343
H12 H 0.1067 0.8276 -0.1157
C12 C 0.22528(14) 0.92596(14) -0.1347(5)
H13 H 0.2201 0.9236 -0.0634
C13 C 0.21514(18) 0.96291(15) -0.1651(5)
H14 H 0.2206 0.9663 -0.2345
H15 H 0.2284 0.9800 -0.1261
H16 H 0.1899 0.9664 -0.1545
C14 C 0.2645(2) 0.9209(2) -0.1484(7)
H17 H 0.2719 0.8989 -0.1167
H18 H 0.2772 0.9407 -0.1191
H19 H 0.2700 0.9197 -0.2183
C15 C 0.22708(12) 0.86859(12) 0.2434(3)
C16 C 0.21143(13) 0.84860(13) 0.3181(4)
C17 C 0.22259(15) 0.85385(14) 0.4136(4)
H20 H 0.2123 0.8402 0.4643
C18 C 0.24807(15) 0.87810(15) 0.4371(4)
H21 H 0.2546 0.8818 0.5033
C19 C 0.26402(15) 0.89689(14) 0.3640(4)
H22 H 0.2822 0.9131 0.3802
C20 C 0.25424(14) 0.89281(13) 0.2659(4)
C21 C 0.18256(14) 0.82222(14) 0.2959(4)
H23 H 0.1816 0.8194 0.2234
C22 C 0.1891(2) 0.78662(19) 0.3384(7)
H24 H 0.2120 0.7779 0.3160
H25 H 0.1706 0.7704 0.3171
H26 H 0.1891 0.7882 0.4098
C23 C 0.1470(2) 0.8361(3) 0.3285(8)
H27 H 0.1452 0.8344 0.3997
H28 H 0.1283 0.8221 0.2982
H29 H 0.1446 0.8607 0.3086
C24 C 0.27187(15) 0.91443(14) 0.1869(4)
H30 H 0.2583 0.9110 0.1251
C25 C 0.30958(19) 0.90246(18) 0.1683(6)
H31 H 0.3232 0.9044 0.2288
H32 H 0.3202 0.9174 0.1179
H33 H 0.3095 0.8779 0.1461
C26 C 0.2717(2) 0.95392(15) 0.2106(5)
H34 H 0.2477 0.9613 0.2275
H35 H 0.2798 0.9672 0.1535
H36 H 0.2874 0.9585 0.2659
C27 C 0.29145(14) 0.80157(13) 0.1002(4)
C28 C 0.23687(16) 0.76642(14) 0.0589(4)
C29 C 0.30477(15) 0.81146(17) -0.1094(4)
C30 C 0.30984(15) 0.77460(16) -0.0893(4)
H37 H 0.3304 0.7643 -0.0621
C31 C 0.27911(15) 0.75658(16) -0.1168(4)
H38 H 0.2752 0.7320 -0.1109
C32 C 0.25520(15) 0.78132(16) -0.1548(4)
H39 H 0.2324 0.7762 -0.1794
C33 C 0.27081(15) 0.81515(16) -0.1503(4)
H40 H 0.2603 0.8366 -0.1711
C34 C 0.33227(19) 0.83861(19) -0.0924(5)
H41 H 0.3480 0.8397 -0.1491
H42 H 0.3459 0.8325 -0.0340
H43 H 0.3211 0.8616 -0.0829
C35 C 0.30294(18) 0.80366(18) 0.6079(4)
H44 H 0.3136 0.8020 0.6729
H45 H 0.2995 0.7800 0.5812
H46 H 0.2801 0.8156 0.6128
C36 C 0.33145(19) 0.85928(16) 0.5836(5)
H47 H 0.3085 0.8704 0.5953
H48 H 0.3449 0.8735 0.5372
H49 H 0.3444 0.8576 0.6454
C37 C 0.35994(17) 0.80489(16) 0.5349(4)
H50 H 0.3550 0.7796 0.5233
H51 H 0.3726 0.8068 0.5980
C38 C 0.38326(17) 0.81798(19) 0.4561(5)
H52 H 0.3867 0.8436 0.4650
H53 H 0.4066 0.8066 0.4629
C39 C 0.38766(19) 0.8356(2) 0.2863(5)
H54 H 0.4131 0.8314 0.2872
H55 H 0.3829 0.8601 0.3046
H56 H 0.3785 0.8312 0.2204
C40 C 0.37542(19) 0.77609(18) 0.3262(5)
H57 H 0.4005 0.7703 0.3294
H58 H 0.3670 0.7732 0.2589
H59 H 0.3622 0.7603 0.3694
K1K K 0.20420(3) 0.68083(3) 0.14718(8)
O2K O 0.28231(12) 0.75237(11) 0.3985(3)
loop_
_geom_bond_atom_site_label_1
_geom_bond_atom_site_label_2
_geom_bond_site_symmetry_1
_geom_bond_site_symmetry_2
Ga1 Mn1 1_555 1_555
Mn1 C27 1_555 1_555
K1 O1 1_555 1_555
O1 C27 1_555 1_555
O2 C28 1_555 1_555
N1 Ga1 1_555 1_555
N2 Ga1 1_555 1_555
N3 K1 1_555 1_555
N4 K1 1_555 1_555
C1 N1 1_555 1_555
H1 C1 1_555 1_555
C2 N2 1_555 1_555
H2 C2 1_555 1_555
C3 N1 1_555 1_555
C4 C3 1_555 1_555
C5 C4 1_555 1_555
H3 C5 1_555 1_555
C6 C5 1_555 1_555
H4 C6 1_555 1_555
C7 C6 1_555 1_555
H5 C7 1_555 1_555
C8 C3 1_555 1_555
C9 C4 1_555 1_555
H6 C9 1_555 1_555
C10 C9 1_555 1_555
H7 C10 1_555 1_555
H8 C10 1_555 1_555
H9 C10 1_555 1_555
C11 C9 1_555 1_555
H10 C11 1_555 1_555
H11 C11 1_555 1_555
H12 C11 1_555 1_555
C12 C8 1_555 1_555
H13 C12 1_555 1_555
C13 C12 1_555 1_555
H14 C13 1_555 1_555
H15 C13 1_555 1_555
H16 C13 1_555 1_555
C14 C12 1_555 1_555
H17 C14 1_555 1_555
H18 C14 1_555 1_555
H19 C14 1_555 1_555
C15 N2 1_555 1_555
C16 C15 1_555 1_555
C17 K1 1_555 1_555
H20 C17 1_555 1_555
C18 K1 1_555 1_555
H21 C18 1_555 1_555
C19 K1 1_555 1_555
H22 C19 1_555 1_555
C20 C15 1_555 1_555
C21 C16 1_555 1_555
H23 C21 1_555 1_555
C22 C21 1_555 1_555
H24 C22 1_555 1_555
H25 C22 1_555 1_555
H26 C22 1_555 1_555
C23 C21 1_555 1_555
H27 C23 1_555 1_555
H28 C23 1_555 1_555
H29 C23 1_555 1_555
C24 C20 1_555 1_555
H30 C24 1_555 1_555
C25 C24 1_555 1_555
H31 C25 1_555 1_555
H32 C25 1_555 1_555
H33 C25 1_555 1_555
C26 C24 1_555 1_555
H34 C26 1_555 1_555
H35 C26 1_555 1_555
H36 C26 1_555 1_555
C28 Mn1 1_555 1_555
C29 Mn1 1_555 1_555
C30 Mn1 1_555 1_555
H37 C30 1_555 1_555
C31 Mn1 1_555 1_555
H38 C31 1_555 1_555
C32 Mn1 1_555 1_555
H39 C32 1_555 1_555
C33 Mn1 1_555 1_555
H40 C33 1_555 1_555
C34 C29 1_555 1_555
H41 C34 1_555 1_555
H42 C34 1_555 1_555
H43 C34 1_555 1_555
C35 N3 1_555 1_555
H44 C35 1_555 1_555
H45 C35 1_555 1_555
H46 C35 1_555 1_555
C36 N3 1_555 1_555
H47 C36 1_555 1_555
H48 C36 1_555 1_555
H49 C36 1_555 1_555
C37 N3 1_555 1_555
H50 C37 1_555 1_555
H51 C37 1_555 1_555
C38 N4 1_555 1_555
H52 C38 1_555 1_555
H53 C38 1_555 1_555
C39 N4 1_555 1_555
H54 C39 1_555 1_555
H55 C39 1_555 1_555
H56 C39 1_555 1_555
C40 N4 1_555 1_555
H57 C40 1_555 1_555
H58 C40 1_555 1_555
H59 C40 1_555 1_555
K1K O2 1_555 1_555
O2K K1 1_555 1_555
C1 C2 1_555 1_555
C7 C8 1_555 1_555
C16 C17 1_555 1_555
C17 C18 1_555 1_555
C18 C19 1_555 1_555
C19 C20 1_555 1_555
C29 C30 1_555 1_555
C29 C33 1_555 1_555
C30 C31 1_555 1_555
C31 C32 1_555 1_555
C32 C33 1_555 1_555
C37 C38 1_555 1_555

#END
