
#######################################################################
#
#                 Cambridge Crystallographic Data Centre
#                                CCDC 
#
#######################################################################
#
# If this CIF has been generated from an entry in the Cambridge 
# Structural Database, then it will include bibliographic, chemical, 
# crystal, experimental, refinement or atomic coordinate data resulting 
# from the CCDC's data processing and validation procedures.
#
#######################################################################

data_GELNOC
_symmetry_cell_setting           triclinic
_symmetry_space_group_name_H-M   'P -1'
_symmetry_Int_Tables_number      2
_space_group_name_Hall           '-P 1'
loop_
_symmetry_equiv_pos_site_id
_symmetry_equiv_pos_as_xyz
1 x,y,z
2 -x,-y,-z
_cell_length_a                   7.1742(13)
_cell_length_b                   9.4913(17)
_cell_length_c                   13.208(2)
_cell_angle_alpha                71.020(2)
_cell_angle_beta                 87.308(2)
_cell_angle_gamma                70.503(2)
_cell_volume                     799.787
loop_
_atom_site_label
_atom_site_type_symbol
_atom_site_fract_x
_atom_site_fract_y
_atom_site_fract_z
Cd1 Cd 0.5000 0.5000 0.0000
O1 O 0.5715(2) 0.1069(2) 0.57676(13)
O2 O -0.0972(2) 0.3300(2) 0.47137(13)
N1 N 0.3895(3) 0.4369(2) 0.17447(14)
N2 N 0.3836(2) 0.1564(2) 0.57985(14)
N3 N 0.0662(2) 0.2529(2) 0.52846(14)
N4 N 0.6218(4) 0.6783(3) 0.03368(19)
N5 N 1.1934(3) 0.6957(3) -0.06284(19)
N6 N 0.8602(4) 0.8211(3) -0.0148(3)
C1 C 0.5081(3) 0.4094(3) 0.25842(17)
H1 H 0.6234 0.4348 0.2453
C2 C 0.4702(3) 0.3452(3) 0.36392(17)
H2 H 0.5575 0.3282 0.4200
C3 C 0.2970(3) 0.3065(2) 0.38434(16)
C4 C 0.1703(3) 0.3379(3) 0.29724(17)
H3 H 0.0527 0.3157 0.3077
C5 C 0.2217(3) 0.4024(3) 0.19545(17)
H4 H 0.1355 0.4233 0.1378
C6 C 0.2503(3) 0.2388(3) 0.49454(16)
C7 C 0.2826(3) 0.1430(3) 0.68320(16)
C8 C 0.0753(3) 0.1531(2) 0.64462(16)
C9 C 0.2787(4) 0.2866(3) 0.7119(2)
H5 H 0.4120 0.2825 0.7229
H6 H 0.2115 0.2866 0.7765
H7 H 0.2101 0.3813 0.6545
C10 C 0.3968(4) -0.0095(3) 0.77019(19)
H8 H 0.4183 -0.0972 0.7447
H9 H 0.3221 -0.0230 0.8327
H10 H 0.5222 -0.0048 0.7881
C11 C 0.0662(4) -0.0048(3) 0.6436(2)
H11 H -0.0558 0.0127 0.6067
H12 H 0.0727 -0.0737 0.7160
H13 H 0.1759 -0.0526 0.6074
C12 C -0.0985(4) 0.2326(3) 0.6997(2)
H14 H -0.1027 0.3385 0.6895
H15 H -0.0833 0.1739 0.7750
H16 H -0.2194 0.2358 0.6694
C13 C 1.0366(4) 0.7495(3) -0.0383(2)
C14 C 0.7382(4) 0.7413(3) 0.0096(2)
Cd1_2 Cd 1.5000 0.5000 0.0000
Cd1_3 Cd -0.5000 0.5000 0.0000
O1A O 0.4285(2) 0.8931(2) -0.57676(13)
O2A O 1.0972(2) 0.6700(2) -0.47137(13)
N1A N 0.6105(3) 0.5631(2) -0.17447(14)
N2A N 0.6164(2) 0.8436(2) -0.57985(14)
N3A N 0.9338(2) 0.7471(2) -0.52846(14)
N4A N 0.3782(4) 0.3217(3) -0.03368(19)
N5A N -0.1934(3) 0.3043(3) 0.06284(19)
N5_2 N 0.1934(3) 0.6957(3) -0.06284(19)
N5A_2 N 0.8066(3) 0.3043(3) 0.06284(19)
N6A N 0.1398(4) 0.1789(3) 0.0148(3)
C1A C 0.4919(3) 0.5906(3) -0.25842(17)
H1A H 0.3766 0.5652 -0.2453
C2A C 0.5298(3) 0.6548(3) -0.36392(17)
H2A H 0.4425 0.6718 -0.4200
C3A C 0.7030(3) 0.6935(2) -0.38434(16)
C4A C 0.8297(3) 0.6621(3) -0.29724(17)
H3A H 0.9473 0.6843 -0.3077
C5A C 0.7783(3) 0.5976(3) -0.19545(17)
H4A H 0.8645 0.5767 -0.1378
C6A C 0.7497(3) 0.7612(3) -0.49454(16)
C7A C 0.7174(3) 0.8570(3) -0.68320(16)
C8A C 0.9247(3) 0.8469(2) -0.64462(16)
C9A C 0.7213(4) 0.7134(3) -0.7119(2)
H5A H 0.5880 0.7175 -0.7229
H6A H 0.7885 0.7134 -0.7765
H7A H 0.7899 0.6187 -0.6545
C10A C 0.6032(4) 1.0095(3) -0.77019(19)
H8A H 0.5817 1.0972 -0.7447
H9A H 0.6779 1.0230 -0.8327
H10A H 0.4778 1.0048 -0.7881
C11A C 0.9338(4) 1.0048(3) -0.6436(2)
H11A H 1.0558 0.9873 -0.6067
H12A H 0.9273 1.0737 -0.7160
H13A H 0.8241 1.0526 -0.6074
C12A C 1.0985(4) 0.7674(3) -0.6997(2)
H14A H 1.1027 0.6615 -0.6895
H15A H 1.0833 0.8261 -0.7750
H16A H 1.2194 0.7642 -0.6694
C13A C -0.0366(4) 0.2505(3) 0.0383(2)
C14A C 0.2618(4) 0.2587(3) -0.0096(2)
loop_
_geom_bond_atom_site_label_1
_geom_bond_atom_site_label_2
_geom_bond_site_symmetry_1
_geom_bond_site_symmetry_2
Cd1 N1 1_555 1_555
O1 N2 1_555 1_555
O2 N3 1_555 1_555
N1 C1 1_555 1_555
N2 C6 1_555 1_555
N3 C6 1_555 1_555
N4 Cd1 1_555 1_555
N5 C13 1_555 1_555
N6 C13 1_555 1_555
C1 H1 1_555 1_555
C2 C1 1_555 1_555
H2 C2 1_555 1_555
C3 C2 1_555 1_555
C4 C3 1_555 1_555
H3 C4 1_555 1_555
C5 N1 1_555 1_555
H4 C5 1_555 1_555
C6 C3 1_555 1_555
C7 N2 1_555 1_555
C8 N3 1_555 1_555
C9 C7 1_555 1_555
H5 C9 1_555 1_555
H6 C9 1_555 1_555
H7 C9 1_555 1_555
C10 C7 1_555 1_555
H8 C10 1_555 1_555
H9 C10 1_555 1_555
H10 C10 1_555 1_555
C11 C8 1_555 1_555
H11 C11 1_555 1_555
H12 C11 1_555 1_555
H13 C11 1_555 1_555
C12 C8 1_555 1_555
H14 C12 1_555 1_555
H15 C12 1_555 1_555
H16 C12 1_555 1_555
C14 N4 1_555 1_555
Cd1_2 N5 1_555 1_555
Cd1_3 N5A 1_555 1_555
O1A N2A 1_555 1_555
O2A N3A 1_555 1_555
N1A Cd1 1_555 1_555
N2A C6A 1_555 1_555
N3A C6A 1_555 1_555
N4A Cd1 1_555 1_555
N5A C13A 1_555 1_555
N5_2 Cd1 1_555 1_555
N5A_2 Cd1 1_555 1_555
N6A C13A 1_555 1_555
C1A N1A 1_555 1_555
H1A C1A 1_555 1_555
C2A C1A 1_555 1_555
H2A C2A 1_555 1_555
C3A C2A 1_555 1_555
C4A C3A 1_555 1_555
H3A C4A 1_555 1_555
C5A N1A 1_555 1_555
H4A C5A 1_555 1_555
C6A C3A 1_555 1_555
C7A N2A 1_555 1_555
C8A N3A 1_555 1_555
C9A C7A 1_555 1_555
H5A C9A 1_555 1_555
H6A C9A 1_555 1_555
H7A C9A 1_555 1_555
C10A C7A 1_555 1_555
H8A C10A 1_555 1_555
H9A C10A 1_555 1_555
H10A C10A 1_555 1_555
C11A C8A 1_555 1_555
H11A C11A 1_555 1_555
H12A C11A 1_555 1_555
H13A C11A 1_555 1_555
C12A C8A 1_555 1_555
H14A C12A 1_555 1_555
H15A C12A 1_555 1_555
H16A C12A 1_555 1_555
C14A N4A 1_555 1_555
N6 C14 1_555 1_555
C4 C5 1_555 1_555
C7 C8 1_555 1_555
N6A C14A 1_555 1_555
C4A C5A 1_555 1_555
C7A C8A 1_555 1_555

#END
