
#######################################################################
#
#                 Cambridge Crystallographic Data Centre
#                                CCDC 
#
#######################################################################
#
# If this CIF has been generated from an entry in the Cambridge 
# Structural Database, then it will include bibliographic, chemical, 
# crystal, experimental, refinement or atomic coordinate data resulting 
# from the CCDC's data processing and validation procedures.
#
#######################################################################

data_GELPUJ
_symmetry_cell_setting           monoclinic
_symmetry_space_group_name_H-M   'P 21/c'
_symmetry_Int_Tables_number      14
_space_group_name_Hall           '-P 2ybc'
loop_
_symmetry_equiv_pos_site_id
_symmetry_equiv_pos_as_xyz
1 x,y,z
2 -x,1/2+y,1/2-z
3 -x,-y,-z
4 x,1/2-y,1/2+z
_cell_length_a                   7.9544(17)
_cell_length_b                   21.579(4)
_cell_length_c                   5.0243(10)
_cell_angle_alpha                90
_cell_angle_beta                 105.332(3)
_cell_angle_gamma                90
_cell_volume                     831.718
loop_
_atom_site_label
_atom_site_type_symbol
_atom_site_fract_x
_atom_site_fract_y
_atom_site_fract_z
Cu1 Cu 0.36535(11) 0.54476(4) 0.55941(17)
Cu2 Cu 0.0000 0.5000 0.5000
P1 P 0.2680(3) 0.44475(9) 1.0528(4)
O1 O 0.2175(7) 0.4852(2) 0.7953(10)
O2 O 0.1251(6) 0.41274(19) 1.1331(10)
O3 O 0.3871(7) 0.4847(2) 1.2809(11)
O4 O 0.1333(7) 0.5656(2) 0.3989(11)
H1 H 0.1135 0.5680 0.2244
N1 N 0.5903(10) 0.3905(3) 1.1529(14)
C1 C 0.4201(11) 0.3904(4) 0.9789(17)
C2 C 0.3798(10) 0.3514(3) 0.7450(15)
H2 H 0.2677 0.3511 0.6276
C3 C 0.5074(10) 0.3136(4) 0.6905(17)
H3 H 0.4812 0.2876 0.5375
C4 C 0.6748(11) 0.3148(3) 0.8658(16)
H4 H 0.7607 0.2896 0.8281
C5 C 0.7152(11) 0.3525(4) 1.094(2)
H5 H 0.8278 0.3525 1.2099
Cu1B Cu -0.36535(11) 0.45524(4) 0.44059(17)
Cu1_2 Cu 0.36535(11) 0.54476(4) 1.55941(17)
Cu1B_2 Cu 0.63465(11) 0.45524(4) 1.44059(17)
Cu1_3 Cu -0.63465(11) 0.54476(4) -0.44059(17)
Cu1B_3 Cu -0.36535(11) 0.45524(4) -0.55941(17)
P1B P -0.2680(3) 0.55525(9) -0.0528(4)
O1B O -0.2175(7) 0.5148(2) 0.2047(10)
O2B O -0.1251(6) 0.58726(19) -0.1331(10)
O3B O -0.3871(7) 0.5153(2) -0.2809(11)
O3_2 O 0.3871(7) 0.4847(2) 0.2809(11)
O3B_2 O 0.6129(7) 0.5153(2) 0.7191(11)
O3_3 O -0.6129(7) 0.4847(2) 0.2809(11)
O3B_3 O -0.3871(7) 0.5153(2) 0.7191(11)
O4B O -0.1333(7) 0.4344(2) 0.6011(11)
H1B H -0.1135 0.4320 0.7756
N1B N -0.5903(10) 0.6095(3) -0.1529(14)
N1B_2 N 0.4097(10) 0.6095(3) 0.8471(14)
N1_2 N -0.4097(10) 0.3905(3) 0.1529(14)
C1B C -0.4201(11) 0.6096(4) 0.0211(17)
C2B C -0.3798(10) 0.6486(3) 0.2550(15)
H2B H -0.2677 0.6489 0.3724
C3B C -0.5074(10) 0.6864(4) 0.3095(17)
H3B H -0.4812 0.7124 0.4625
C4B C -0.6748(11) 0.6852(3) 0.1342(16)
H4B H -0.7607 0.7104 0.1719
C5B C -0.7152(11) 0.6475(4) -0.094(2)
H5B H -0.8278 0.6475 -0.2099
O5 O 0.1185(7) 0.2834(2) 0.1633(11)
H6 H 0.0313 0.2649 0.1944
H7 H 0.0835 0.3090 0.0316
loop_
_geom_bond_atom_site_label_1
_geom_bond_atom_site_label_2
_geom_bond_site_symmetry_1
_geom_bond_site_symmetry_2
Cu1 O1 1_555 1_555
Cu2 O1 1_555 1_555
P1 O1 1_555 1_555
O2 P1 1_555 1_555
O3 P1 1_555 1_555
O4 Cu1 1_555 1_555
H1 O4 1_555 1_555
N1 C1 1_555 1_555
C1 P1 1_555 1_555
C2 C1 1_555 1_555
H2 C2 1_555 1_555
C3 C2 1_555 1_555
H3 C3 1_555 1_555
C4 C3 1_555 1_555
H4 C4 1_555 1_555
C5 N1 1_555 1_555
H5 C5 1_555 1_555
O5 H6 1_555 1_555
H7 O5 1_555 1_555
Cu1B O1B 1_555 1_555
Cu1_2 O3 1_555 1_555
Cu1B_2 O3 1_555 1_555
Cu1_3 O3B 1_555 1_555
Cu1B_3 O3B 1_555 1_555
P1B O1B 1_555 1_555
O1B Cu2 1_555 1_555
O2B P1B 1_555 1_555
O3B P1B 1_555 1_555
O3_2 Cu1 1_555 1_555
O3B_2 Cu1 1_555 1_555
O3_3 Cu1B 1_555 1_555
O3B_3 Cu1B 1_555 1_555
O4B Cu2 1_555 1_555
H1B O4B 1_555 1_555
N1B Cu1_3 1_555 1_555
N1B_2 Cu1 1_555 1_555
N1_2 Cu1B 1_555 1_555
C1B P1B 1_555 1_555
C2B C1B 1_555 1_555
H2B C2B 1_555 1_555
C3B C2B 1_555 1_555
H3B C3B 1_555 1_555
C4B C3B 1_555 1_555
H4B C4B 1_555 1_555
C5B N1B 1_555 1_555
H5B C5B 1_555 1_555
Cu2 O4 1_555 1_555
N1 Cu1B_2 1_555 1_555
C4 C5 1_555 1_555
Cu1B O4B 1_555 1_555
N1B C1B 1_555 1_555
C4B C5B 1_555 1_555

#END
