
#######################################################################
#
#                 Cambridge Crystallographic Data Centre
#                                CCDC 
#
#######################################################################
#
# If this CIF has been generated from an entry in the Cambridge 
# Structural Database, then it will include bibliographic, chemical, 
# crystal, experimental, refinement or atomic coordinate data resulting 
# from the CCDC's data processing and validation procedures.
#
#######################################################################

data_GELQAQ
_symmetry_cell_setting           monoclinic
_symmetry_space_group_name_H-M   'P 21/c'
_symmetry_Int_Tables_number      14
_space_group_name_Hall           '-P 2ybc'
loop_
_symmetry_equiv_pos_site_id
_symmetry_equiv_pos_as_xyz
1 x,y,z
2 -x,1/2+y,1/2-z
3 -x,-y,-z
4 x,1/2-y,1/2+z
_cell_length_a                   4.7793(11)
_cell_length_b                   15.319(3)
_cell_length_c                   8.6022(19)
_cell_angle_alpha                90
_cell_angle_beta                 97.156(4)
_cell_angle_gamma                90
_cell_volume                     624.897
loop_
_atom_site_label
_atom_site_type_symbol
_atom_site_fract_x
_atom_site_fract_y
_atom_site_fract_z
Cu1 Cu 0.5000 1.0000 1.0000
Cu2 Cu 0.5000 1.0000 0.5000
P1 P 0.93789(17) 1.01368(5) 0.76926(9)
N1 N 0.6102(5) 0.89201(15) 0.6197(3)
O1 O 0.8280(4) 1.05612(13) 0.6134(2)
O2 O 0.7984(4) 1.05117(12) 0.9044(2)
O3 O 1.2565(5) 1.01618(13) 0.8017(2)
C1 C 0.8216(6) 0.90054(18) 0.7386(3)
C2 C 0.9250(7) 0.8292(2) 0.8239(4)
H1 H 1.0719 0.8358 0.9047
C3 C 0.8108(8) 0.74770(19) 0.7896(4)
H2 H 0.8830 0.6988 0.8447
C4 C 0.5883(8) 0.74000(19) 0.6725(4)
H3 H 0.5031 0.6862 0.6495
C5 C 0.4943(7) 0.81322(19) 0.5901(4)
H4 H 0.3444 0.8079 0.5107
Cu1_2 Cu 1.5000 1.0000 1.0000
Cu1_3 Cu -0.5000 1.0000 1.0000
Cu2_2 Cu 0.5000 1.0000 1.5000
P1B P 0.06211(17) 0.98632(5) 1.23074(9)
N1B N 0.3898(5) 1.10799(15) 1.3803(3)
N1B_2 N 0.3898(5) 1.10799(15) 0.3803(3)
O1B O 0.1720(4) 0.94388(13) 1.3866(2)
O1B_2 O 0.1720(4) 0.94388(13) 0.3866(2)
O2B O 0.2016(4) 0.94883(12) 1.0956(2)
O3B O -0.2565(5) 0.98382(13) 1.1983(2)
O3_2 O 0.2565(5) 1.01618(13) 0.8017(2)
O3B_2 O 0.7435(5) 0.98382(13) 1.1983(2)
C1B C 0.1784(6) 1.09946(18) 1.2614(3)
C2B C 0.0750(7) 1.1708(2) 1.1761(4)
H1B H -0.0719 1.1642 1.0953
C3B C 0.1892(8) 1.25230(19) 1.2104(4)
H2B H 0.1170 1.3012 1.1553
C4B C 0.4117(8) 1.26000(19) 1.3275(4)
H3B H 0.4969 1.3138 1.3505
C5B C 0.5057(7) 1.18678(19) 1.4099(4)
H4B H 0.6556 1.1921 1.4893
loop_
_geom_bond_atom_site_label_1
_geom_bond_atom_site_label_2
_geom_bond_site_symmetry_1
_geom_bond_site_symmetry_2
Cu1 O2 1_555 1_555
Cu2 N1 1_555 1_555
P1 O1 1_555 1_555
N1 C1 1_555 1_555
O1 Cu2 1_555 1_555
O2 P1 1_555 1_555
O3 P1 1_555 1_555
C1 P1 1_555 1_555
C2 C1 1_555 1_555
H1 C2 1_555 1_555
C3 C2 1_555 1_555
H2 C3 1_555 1_555
C4 C3 1_555 1_555
H3 C4 1_555 1_555
C5 N1 1_555 1_555
H4 C5 1_555 1_555
Cu1_2 O3 1_555 1_555
Cu1_3 O3B 1_555 1_555
Cu2_2 N1B 1_555 1_555
P1B O1B 1_555 1_555
N1B C1B 1_555 1_555
N1B_2 Cu2 1_555 1_555
O1B Cu2_2 1_555 1_555
O1B_2 Cu2 1_555 1_555
O2B Cu1 1_555 1_555
O3B P1B 1_555 1_555
O3_2 Cu1 1_555 1_555
O3B_2 Cu1 1_555 1_555
C1B P1B 1_555 1_555
C2B C1B 1_555 1_555
H1B C2B 1_555 1_555
C3B C2B 1_555 1_555
H2B C3B 1_555 1_555
C4B C3B 1_555 1_555
H3B C4B 1_555 1_555
C5B N1B 1_555 1_555
H4B C5B 1_555 1_555
C4 C5 1_555 1_555
P1B O2B 1_555 1_555
C4B C5B 1_555 1_555

#END
