
#######################################################################
#
#                 Cambridge Crystallographic Data Centre
#                                CCDC 
#
#######################################################################
#
# If this CIF has been generated from an entry in the Cambridge 
# Structural Database, then it will include bibliographic, chemical, 
# crystal, experimental, refinement or atomic coordinate data resulting 
# from the CCDC's data processing and validation procedures.
#
#######################################################################

data_GELTUN
_symmetry_cell_setting           triclinic
_symmetry_space_group_name_H-M   'P -1'
_symmetry_Int_Tables_number      2
_space_group_name_Hall           '-P 1'
loop_
_symmetry_equiv_pos_site_id
_symmetry_equiv_pos_as_xyz
1 x,y,z
2 -x,-y,-z
_cell_length_a                   6.8271(6)
_cell_length_b                   7.1378(6)
_cell_length_c                   13.9815(12)
_cell_angle_alpha                96.329(7)
_cell_angle_beta                 89.947(7)
_cell_angle_gamma                92.983(7)
_cell_volume                     676.247
loop_
_atom_site_label
_atom_site_type_symbol
_atom_site_fract_x
_atom_site_fract_y
_atom_site_fract_z
C1 C 1.0318(3) 0.5185(4) 0.18515(17)
H1 H 1.1111 0.5887 0.2315
C2 C 1.0974(3) 0.3518(4) 0.14127(17)
H2 H 1.2187 0.3116 0.1583
C3 C 0.9844(3) 0.2440(3) 0.07217(14)
C4 C 0.8071(3) 0.3146(3) 0.04834(16)
H3 H 0.7272 0.2491 0.0007
C5 C 0.7511(3) 0.4819(3) 0.09569(16)
H4 H 0.6315 0.5265 0.0792
C6 C 1.0515(3) 0.0624(3) 0.02913(16)
C7 C 0.4463(3) 0.7963(3) 0.39246(16)
H5 H 0.4756 0.9258 0.3991
C8 C 0.2938(3) 0.7280(3) 0.44428(16)
H6 H 0.2228 0.8104 0.4853
C9 C 0.2448(3) 0.5349(3) 0.43557(15)
C10 C 0.3653(3) 0.4202(3) 0.37667(16)
H7 H 0.3434 0.2898 0.3709
C11 C 0.5160(3) 0.4994(3) 0.32731(16)
H8 H 0.5940 0.4199 0.2884
C12 C 0.0748(3) 0.4520(4) 0.48224(17)
N1 N 0.8591(2) 0.5843(3) 0.16429(12)
N2 N 0.5558(3) 0.6852(3) 0.33244(13)
N3 N 1.0451(3) 1.0191(3) 0.33483(19)
N4 N 0.5065(3) 1.0211(4) 0.15880(19)
O1 O 0.9008(3) 0.9552(4) 0.37645(16)
O2 O 1.0397(3) 0.9660(4) 0.24838(16)
O3 O 0.6004(4) 1.0693(3) 0.23419(18)
O4 O 0.5419(4) 0.8599(3) 0.12610(16)
Zn1 Zn 0.75322(3) 0.81619(3) 0.244670(17)
H9 H 1.161(4) 0.039(4) 0.045(2)
H10 H 0.074(4) 0.329(4) 0.4859(19)
C1A C 0.9682(3) -0.5185(4) -0.18515(17)
H1A H 0.8889 -0.5887 -0.2315
C2A C 0.9026(3) -0.3518(4) -0.14127(17)
H2A H 0.7813 -0.3116 -0.1583
C3A C 1.0156(3) -0.2440(3) -0.07217(14)
C4A C 1.1929(3) -0.3146(3) -0.04834(16)
H3A H 1.2728 -0.2491 -0.0007
C5A C 1.2489(3) -0.4819(3) -0.09569(16)
H4A H 1.3685 -0.5265 -0.0792
C6A C 0.9485(3) -0.0624(3) -0.02913(16)
C7A C -0.4463(3) 0.2037(3) 0.60754(16)
H5A H -0.4756 0.0742 0.6009
C8A C -0.2938(3) 0.2720(3) 0.55572(16)
H6A H -0.2228 0.1896 0.5147
C9A C -0.2448(3) 0.4651(3) 0.56443(15)
C10A C -0.3653(3) 0.5798(3) 0.62333(16)
H7A H -0.3434 0.7102 0.6291
C11A C -0.5160(3) 0.5006(3) 0.67269(16)
H8A H -0.5940 0.5801 0.7116
C12A C -0.0748(3) 0.5480(4) 0.51776(17)
N1A N 1.1409(2) -0.5843(3) -0.16429(12)
N2A N -0.5558(3) 0.3148(3) 0.66756(13)
N2A_2 N 1.4442(3) -0.6852(3) -0.33244(13)
N3A N 0.9549(3) -1.0191(3) -0.33483(19)
N4A N 1.4935(3) -1.0211(4) -0.15880(19)
O1A O 1.0992(3) -0.9552(4) -0.37645(16)
O2A O 0.9603(3) -0.9660(4) -0.24838(16)
O3A O 1.3996(4) -1.0693(3) -0.23419(18)
O4A O 1.4581(4) -0.8599(3) -0.12610(16)
Zn1A Zn 1.24678(3) -0.81619(3) -0.244670(17)
Zn1A_2 Zn -0.75322(3) 0.18381(3) 0.755330(17)
H9A H 0.839(4) -0.039(4) -0.045(2)
H10A H -0.074(4) 0.671(4) 0.5141(19)
loop_
_geom_bond_atom_site_label_1
_geom_bond_atom_site_label_2
_geom_bond_site_symmetry_1
_geom_bond_site_symmetry_2
C1 H1 1_555 1_555
C2 C1 1_555 1_555
H2 C2 1_555 1_555
C3 C2 1_555 1_555
C4 C3 1_555 1_555
H3 C4 1_555 1_555
C5 C4 1_555 1_555
H4 C5 1_555 1_555
C6 C3 1_555 1_555
C7 H5 1_555 1_555
C8 C7 1_555 1_555
H6 C8 1_555 1_555
C9 C8 1_555 1_555
C10 C9 1_555 1_555
H7 C10 1_555 1_555
C11 C10 1_555 1_555
H8 C11 1_555 1_555
C12 C9 1_555 1_555
N1 C1 1_555 1_555
N2 C7 1_555 1_555
N3 O1 1_555 1_555
N4 O3 1_555 1_555
O1 Zn1 1_555 1_555
O2 N3 1_555 1_555
O3 Zn1 1_555 1_555
O4 N4 1_555 1_555
Zn1 N1 1_555 1_555
H9 C6 1_555 1_555
H10 C12 1_555 1_555
C1A H1A 1_555 1_555
C2A C1A 1_555 1_555
H2A C2A 1_555 1_555
C3A C2A 1_555 1_555
C4A C3A 1_555 1_555
H3A C4A 1_555 1_555
C5A C4A 1_555 1_555
H4A C5A 1_555 1_555
C6A C6 1_555 1_555
C7A H5A 1_555 1_555
C8A C7A 1_555 1_555
H6A C8A 1_555 1_555
C9A C8A 1_555 1_555
C10A C9A 1_555 1_555
H7A C10A 1_555 1_555
C11A C10A 1_555 1_555
H8A C11A 1_555 1_555
C12A C12 1_555 1_555
N1A C1A 1_555 1_555
N2A C7A 1_555 1_555
N2A_2 Zn1A 1_555 1_555
N3A O1A 1_555 1_555
N4A O3A 1_555 1_555
O1A Zn1A 1_555 1_555
O2A N3A 1_555 1_555
O3A Zn1A 1_555 1_555
O4A N4A 1_555 1_555
Zn1A N1A 1_555 1_555
Zn1A_2 N2A 1_555 1_555
H9A C6A 1_555 1_555
H10A C12A 1_555 1_555
C5 N1 1_555 1_555
C11 N2 1_555 1_555
N2 Zn1 1_555 1_555
O2 Zn1 1_555 1_555
O4 Zn1 1_555 1_555
C3A C6A 1_555 1_555
C5A N1A 1_555 1_555
C9A C12A 1_555 1_555
C11A N2A 1_555 1_555
O2A Zn1A 1_555 1_555
O4A Zn1A 1_555 1_555

#END
