
#######################################################################
#
#                 Cambridge Crystallographic Data Centre
#                                CCDC 
#
#######################################################################
#
# If this CIF has been generated from an entry in the Cambridge 
# Structural Database, then it will include bibliographic, chemical, 
# crystal, experimental, refinement or atomic coordinate data resulting 
# from the CCDC's data processing and validation procedures.
#
#######################################################################

data_GELVIE
_symmetry_cell_setting           triclinic
_symmetry_space_group_name_H-M   'P -1'
_symmetry_Int_Tables_number      2
_space_group_name_Hall           '-P 1'
loop_
_symmetry_equiv_pos_site_id
_symmetry_equiv_pos_as_xyz
1 x,y,z
2 -x,-y,-z
_cell_length_a                   10.541(5)
_cell_length_b                   12.281(5)
_cell_length_c                   14.784(5)
_cell_angle_alpha                93.293(5)
_cell_angle_beta                 109.308(5)
_cell_angle_gamma                109.581(5)
_cell_volume                     1671
loop_
_atom_site_label
_atom_site_type_symbol
_atom_site_fract_x
_atom_site_fract_y
_atom_site_fract_z
Co1 Co 0.29165(10) 0.14666(9) 0.58046(7)
N1 N 0.4527(6) 0.2756(5) 0.5497(4)
C1 C 0.6982(10) 0.6208(9) 0.8269(7)
H1 H 0.7967 0.6382 0.8691
H2 H 0.6337 0.5734 0.8549
H3 H 0.6824 0.6929 0.8193
Br1 Br 0.10360(13) -0.30567(11) 0.04844(7)
Br2 Br 0.42811(19) 0.08428(12) 1.18270(8)
O1 O 0.4033(6) 0.1760(5) 0.7252(4)
N2 N 0.5865(6) 0.3649(6) 0.4654(4)
C2 C 0.8636(10) 0.7386(8) 0.7179(7)
H4 H 0.9324 0.7387 0.7797
H5 H 0.8152 0.7896 0.7272
H6 H 0.9133 0.7660 0.6748
O2 O 0.2080(6) 0.0121(6) 0.6840(4)
N3 N 0.9413(6) 0.2611(5) 0.5236(4)
C3 C 0.7547(8) 0.6166(7) 0.6745(6)
O3 O 0.3402(6) 0.0083(5) 0.5107(4)
N4 N 1.1431(6) 0.2218(5) 0.5809(4)
C4 C 0.6703(9) 0.5567(8) 0.7315(6)
O4 O 0.1662(6) 0.0659(5) 0.4350(4)
C5 C 0.5711(8) 0.4457(7) 0.6935(5)
H7 H 0.5165 0.4071 0.7285
C6 C 0.7343(8) 0.5598(7) 0.5860(6)
H8 H 0.7880 0.5968 0.5500
C7 C 0.6315(7) 0.4450(7) 0.5500(5)
C8 C 0.5502(8) 0.3888(7) 0.6024(6)
C9 C 0.4821(8) 0.2711(7) 0.4685(5)
H9 H 0.4321 0.2061 0.4177
C10 C 0.6509(8) 0.3760(7) 0.3902(5)
H10 H 0.6585 0.4507 0.3695
H11 H 0.5873 0.3137 0.3339
C11 C 0.8004(8) 0.3691(7) 0.4269(5)
H12 H 0.8652 0.4337 0.4813
H13 H 0.8386 0.3780 0.3753
C12 C 0.7969(7) 0.2519(6) 0.4601(5)
H14 H 0.7312 0.2300 0.4948
H15 H 0.7606 0.1906 0.4032
C13 C 1.0188(8) 0.2003(6) 0.5074(5)
H16 H 0.9881 0.1476 0.4497
C14 C 1.0185(7) 0.3263(6) 0.6179(5)
C15 C 1.1427(8) 0.3021(6) 0.6527(5)
C16 C 1.2402(8) 0.3526(6) 0.7487(5)
H17 H 1.3207 0.3326 0.7753
C17 C 0.9925(8) 0.4059(7) 0.6737(5)
H18 H 0.9093 0.4228 0.6491
C18 C 1.0921(9) 0.4579(7) 0.7649(6)
C19 C 1.0622(10) 0.5430(8) 0.8277(6)
H19 H 1.1309 0.6215 0.8373
H20 H 1.0712 0.5200 0.8898
H21 H 0.9657 0.5407 0.7952
C20 C 1.3220(11) 0.4809(9) 0.9071(6)
H22 H 1.3964 0.4489 0.9207
H23 H 1.2714 0.4603 0.9508
H24 H 1.3652 0.5650 0.9159
C21 C 1.2159(8) 0.4309(7) 0.8024(5)
C22 C 0.4958(11) 0.1647(9) 1.0229(7)
H25 H 0.5818 0.2173 1.0703
C23 C 0.4697(10) 0.1642(8) 0.9227(6)
H26 H 0.5393 0.2169 0.9044
C24 C 0.3437(9) 0.0874(7) 0.8523(6)
C25 C 0.2425(10) 0.0098(8) 0.8816(7)
H27 H 0.1571 -0.0437 0.8344
C26 C 0.2650(13) 0.0091(10) 0.9827(8)
H28 H 0.1954 -0.0422 1.0020
C27 C 0.3936(13) 0.0872(9) 1.0492(6)
C28 C 0.3146(9) 0.0894(8) 0.7485(6)
C29 C 0.2397(8) 0.0030(7) 0.4342(6)
C30 C 0.0761(8) -0.0968(7) 0.2646(6)
H29 H 0.0098 -0.0659 0.2716
C31 C 0.2043(8) -0.0762(6) 0.3437(5)
C32 C 0.3026(8) -0.1233(7) 0.3318(6)
H30 H 0.3909 -0.1062 0.3827
C33 C 0.2699(9) -0.1950(7) 0.2454(6)
H31 H 0.3328 -0.2302 0.2389
C34 C 0.1429(9) -0.2133(7) 0.1691(6)
C35 C 0.0464(9) -0.1639(8) 0.1748(6)
H32 H -0.0362 -0.1744 0.1208
Co1_2 Co 1.29165(10) 0.14666(9) 0.58046(7)
N4_2 N 0.1431(6) 0.2218(5) 0.5809(4)
loop_
_geom_bond_atom_site_label_1
_geom_bond_atom_site_label_2
_geom_bond_site_symmetry_1
_geom_bond_site_symmetry_2
Co1 N1 1_555 1_555
N1 C8 1_555 1_555
C1 H1 1_555 1_555
H2 C1 1_555 1_555
H3 C1 1_555 1_555
Br1 C34 1_555 1_555
Br2 C27 1_555 1_555
O1 Co1 1_555 1_555
N2 C7 1_555 1_555
C2 H4 1_555 1_555
H5 C2 1_555 1_555
H6 C2 1_555 1_555
O2 C28 1_555 1_555
N3 C12 1_555 1_555
C3 C2 1_555 1_555
O3 Co1 1_555 1_555
N4 C13 1_555 1_555
C4 C1 1_555 1_555
O4 Co1 1_555 1_555
C5 C4 1_555 1_555
H7 C5 1_555 1_555
C6 C3 1_555 1_555
H8 C6 1_555 1_555
C7 C6 1_555 1_555
C8 C5 1_555 1_555
C9 N1 1_555 1_555
H9 C9 1_555 1_555
C10 N2 1_555 1_555
H10 C10 1_555 1_555
H11 C10 1_555 1_555
C11 C10 1_555 1_555
H12 C11 1_555 1_555
H13 C11 1_555 1_555
C12 C11 1_555 1_555
H14 C12 1_555 1_555
H15 C12 1_555 1_555
C13 N3 1_555 1_555
H16 C13 1_555 1_555
C14 N3 1_555 1_555
C15 N4 1_555 1_555
C16 C15 1_555 1_555
H17 C16 1_555 1_555
C17 C14 1_555 1_555
H18 C17 1_555 1_555
C18 C17 1_555 1_555
C19 C18 1_555 1_555
H19 C19 1_555 1_555
H20 C19 1_555 1_555
H21 C19 1_555 1_555
C20 H22 1_555 1_555
H23 C20 1_555 1_555
H24 C20 1_555 1_555
C21 C16 1_555 1_555
C22 H25 1_555 1_555
C23 C22 1_555 1_555
H26 C23 1_555 1_555
C24 C23 1_555 1_555
C25 C24 1_555 1_555
H27 C25 1_555 1_555
C26 C25 1_555 1_555
H28 C26 1_555 1_555
C27 C22 1_555 1_555
C28 O1 1_555 1_555
C29 O3 1_555 1_555
C30 H29 1_555 1_555
C31 C29 1_555 1_555
C32 C31 1_555 1_555
H30 C32 1_555 1_555
C33 C32 1_555 1_555
H31 C33 1_555 1_555
C34 C33 1_555 1_555
C35 C30 1_555 1_555
H32 C35 1_555 1_555
Co1_2 N4 1_555 1_555
N4_2 Co1 1_555 1_555
N2 C9 1_555 1_555
C3 C4 1_555 1_555
O4 C29 1_555 1_555
C7 C8 1_555 1_555
C14 C15 1_555 1_555
C18 C21 1_555 1_555
C20 C21 1_555 1_555
C24 C28 1_555 1_555
C26 C27 1_555 1_555
C30 C31 1_555 1_555
C34 C35 1_555 1_555

#END
