
#######################################################################
#
#                 Cambridge Crystallographic Data Centre
#                                CCDC 
#
#######################################################################
#
# If this CIF has been generated from an entry in the Cambridge 
# Structural Database, then it will include bibliographic, chemical, 
# crystal, experimental, refinement or atomic coordinate data resulting 
# from the CCDC's data processing and validation procedures.
#
#######################################################################

data_GELVUQ
_symmetry_cell_setting           monoclinic
_symmetry_space_group_name_H-M   'P 21/n'
_symmetry_Int_Tables_number      14
_space_group_name_Hall           '-P 2yn'
loop_
_symmetry_equiv_pos_site_id
_symmetry_equiv_pos_as_xyz
1 x,y,z
2 1/2-x,1/2+y,1/2-z
3 -x,-y,-z
4 1/2+x,1/2-y,1/2+z
_cell_length_a                   7.591(2)
_cell_length_b                   20.927(2)
_cell_length_c                   16.1503(18)
_cell_angle_alpha                90
_cell_angle_beta                 97.178(17)
_cell_angle_gamma                90
_cell_volume                     2545.48
loop_
_atom_site_label
_atom_site_type_symbol
_atom_site_fract_x
_atom_site_fract_y
_atom_site_fract_z
Cd1 Cd 0.81233(8) 0.15622(3) 0.72432(3)
C1 C 1.0518(10) 0.1245(3) 0.8523(4)
C2 C 1.1941(8) 0.1063(3) 0.9199(4)
C3 C 1.1531(10) 0.0664(3) 0.9840(4)
H1 H 1.0385 0.0504 0.9824
C4 C 1.2781(10) 0.0506(3) 1.0490(4)
H2 H 1.2488 0.0235 1.0910
C5 C 1.4485(9) 0.0747(3) 1.0525(4)
C6 C 1.4952(11) 0.1125(4) 0.9873(5)
H3 H 1.6111 0.1271 0.9878
C7 C 1.3676(10) 0.1278(4) 0.9223(4)
H4 H 1.3982 0.1531 0.8790
C8 C 1.6945(10) 0.1050(3) 1.1479(4)
C9 C 1.8720(10) 0.0895(4) 1.1452(4)
H5 H 1.9040 0.0496 1.1265
C10 C 1.9997(10) 0.1348(4) 1.1711(5)
H6 H 2.1189 0.1250 1.1699
C11 C 1.9535(9) 0.1947(3) 1.1988(4)
C12 C 1.7739(10) 0.2073(4) 1.2044(4)
H7 H 1.7409 0.2463 1.2253
C13 C 1.6459(9) 0.1622(3) 1.1790(5)
H8 H 1.5271 0.1706 1.1830
C14 C 2.0905(9) 0.2453(4) 1.2173(4)
C15 C 0.6757(12) 0.0082(5) 0.7147(5)
H9 H 0.6624 0.0153 0.7704
C16 C 0.6310(14) -0.0520(5) 0.6794(6)
H10 H 0.5846 -0.0837 0.7108
C17 C 0.6567(11) -0.0633(5) 0.5984(5)
H11 H 0.6356 -0.1037 0.5753
C18 C 0.7143(11) -0.0142(4) 0.5506(5)
C19 C 0.7452(10) -0.0224(4) 0.4633(4)
C20 C 0.7226(14) -0.0834(5) 0.3465(6)
H12 H 0.6947 -0.1217 0.3186
C21 C 0.7872(13) -0.0336(5) 0.3035(5)
H13 H 0.8009 -0.0396 0.2476
C22 C 0.8089(10) 0.0284(4) 0.4199(4)
C23 C 0.8533(12) 0.0886(4) 0.4591(4)
C24 C 0.9170(18) 0.1398(5) 0.4184(6)
H14 H 0.9324 0.1362 0.3623
C25 C 0.9581(18) 0.1963(5) 0.4600(6)
H15 H 1.0049 0.2306 0.4334
C26 C 0.9275(17) 0.2006(5) 0.5435(6)
H16 H 0.9529 0.2390 0.5716
C27 C 0.8283(11) 0.0974(4) 0.5443(4)
C28 C 0.7563(10) 0.0444(4) 0.5895(4)
N1 N 0.7363(9) 0.0552(3) 0.6710(4)
N2 N 0.8646(12) 0.1530(3) 0.5842(4)
N3 N 0.6986(9) -0.0790(3) 0.4260(4)
N4 N 0.8307(10) 0.0224(3) 0.3381(4)
O1 O 0.8987(7) 0.1013(3) 0.8517(3)
O2 O 1.0892(8) 0.1621(2) 0.7959(3)
O3 O 1.5694(7) 0.0586(2) 1.1213(3)
O4 O 2.2478(7) 0.2333(3) 1.2071(4)
O5 O 2.0433(7) 0.2999(3) 1.2390(3)
Cd1C Cd 2.31233(8) 0.34378(3) 1.22432(3)
O4C O 0.7478(7) 0.2667(3) 0.7071(4)
O5C O 0.5433(7) 0.2001(3) 0.7390(3)
O6 O 0.943(6) 0.2758(14) 0.920(2)
H17 H 0.991(6) 0.291(2) 0.880(3)
H18 H 1.020(15) 0.274(14) 0.963(6)
loop_
_geom_bond_atom_site_label_1
_geom_bond_atom_site_label_2
_geom_bond_site_symmetry_1
_geom_bond_site_symmetry_2
Cd1 N1 1_555 1_555
C1 C2 1_555 1_555
C2 C3 1_555 1_555
C3 H1 1_555 1_555
C4 C3 1_555 1_555
H2 C4 1_555 1_555
C5 C4 1_555 1_555
C6 C5 1_555 1_555
H3 C6 1_555 1_555
C7 C2 1_555 1_555
H4 C7 1_555 1_555
C8 C9 1_555 1_555
C9 H5 1_555 1_555
C10 C9 1_555 1_555
H6 C10 1_555 1_555
C11 C10 1_555 1_555
C12 C11 1_555 1_555
H7 C12 1_555 1_555
C13 C8 1_555 1_555
H8 C13 1_555 1_555
C14 C11 1_555 1_555
C15 H9 1_555 1_555
C16 C15 1_555 1_555
H10 C16 1_555 1_555
C17 C16 1_555 1_555
H11 C17 1_555 1_555
C18 C17 1_555 1_555
C19 C18 1_555 1_555
C20 H12 1_555 1_555
C21 C20 1_555 1_555
H13 C21 1_555 1_555
C22 C19 1_555 1_555
C23 C22 1_555 1_555
C24 C23 1_555 1_555
H14 C24 1_555 1_555
C25 C24 1_555 1_555
H15 C25 1_555 1_555
C26 C25 1_555 1_555
H16 C26 1_555 1_555
C27 C23 1_555 1_555
C28 C18 1_555 1_555
N1 C15 1_555 1_555
N2 Cd1 1_555 1_555
N3 C19 1_555 1_555
N4 C21 1_555 1_555
O1 Cd1 1_555 1_555
O2 Cd1 1_555 1_555
O3 C5 1_555 1_555
O4 C14 1_555 1_555
O5 C14 1_555 1_555
O6 H17 1_555 1_555
H18 O6 1_555 1_555
Cd1C O4 1_555 1_555
O4C Cd1 1_555 1_555
O5C Cd1 1_555 1_555
C1 O1 1_555 1_555
C1 O2 1_555 1_555
C6 C7 1_555 1_555
C8 O3 1_555 1_555
C12 C13 1_555 1_555
C20 N3 1_555 1_555
C22 N4 1_555 1_555
C26 N2 1_555 1_555
C27 C28 1_555 1_555
C27 N2 1_555 1_555
C28 N1 1_555 1_555
O5 Cd1C 1_555 1_555

#END
