
#######################################################################
#
#                 Cambridge Crystallographic Data Centre
#                                CCDC 
#
#######################################################################
#
# If this CIF has been generated from an entry in the Cambridge 
# Structural Database, then it will include bibliographic, chemical, 
# crystal, experimental, refinement or atomic coordinate data resulting 
# from the CCDC's data processing and validation procedures.
#
#######################################################################

data_GELVAV
_symmetry_cell_setting           monoclinic
_symmetry_space_group_name_H-M   'P 21'
_symmetry_Int_Tables_number      4
_space_group_name_Hall           'P 2yb'
loop_
_symmetry_equiv_pos_site_id
_symmetry_equiv_pos_as_xyz
1 x,y,z
2 -x,1/2+y,-z
_cell_length_a                   11.7398(6)
_cell_length_b                   26.9211(12)
_cell_length_c                   13.2026(7)
_cell_angle_alpha                90
_cell_angle_beta                 90.678(4)
_cell_angle_gamma                90
_cell_volume                     4172.37
loop_
_atom_site_label
_atom_site_type_symbol
_atom_site_fract_x
_atom_site_fract_y
_atom_site_fract_z
C1 C -0.8794(9) 0.0032(4) -0.3060(7)
H1 H -0.9410 -0.0155 -0.3291
C2 C -0.8827(10) 0.0230(4) -0.2095(9)
H2 H -0.9453 0.0172 -0.1687
C3 C -0.7923(9) 0.0515(4) -0.1737(6)
C4 C -0.7029(8) 0.0556(4) -0.2357(7)
H3 H -0.6376 0.0720 -0.2133
C5 C -0.7068(9) 0.0363(4) -0.3298(7)
H4 H -0.6452 0.0419 -0.3721
C6 C -0.7917(10) 0.0828(4) -0.0708(8)
H5 H -0.7189 0.0992 -0.0610
H6 H -0.8511 0.1078 -0.0726
C7 C -0.8118(8) 0.0474(4) 0.0109(8)
H7 H -0.7643 0.0182 0.0030
H8 H -0.8910 0.0371 0.0110
C8 C -0.7799(8) 0.0759(4) 0.1132(7)
H9 H -0.8099 0.1095 0.1114
H10 H -0.8120 0.0588 0.1708
C9 C -0.6516(8) 0.0771(4) 0.1220(7)
C10 C -0.5947(7) 0.0360(4) 0.1576(6)
H11 H -0.6348 0.0088 0.1820
C11 C -0.4775(8) 0.0356(3) 0.1566(7)
H12 H -0.4408 0.0071 0.1798
C12 C -0.4695(7) 0.1140(3) 0.0941(6)
H13 H -0.4277 0.1411 0.0719
C13 C -0.5866(8) 0.1171(4) 0.0940(7)
H14 H -0.6220 0.1466 0.0748
C14 C -0.2316(10) 0.0881(4) 0.3355(8)
H15 H -0.2839 0.0623 0.3307
C15 C -0.2205(9) 0.1118(4) 0.4246(8)
H16 H -0.2653 0.1019 0.4786
C16 C -0.1457(10) 0.1498(4) 0.4382(9)
C17 C -0.0835(9) 0.1623(4) 0.3539(7)
H17 H -0.0308 0.1880 0.3577
C18 C -0.0986(9) 0.1372(4) 0.2651(8)
H18 H -0.0555 0.1469 0.2098
C19 C -0.1358(10) 0.1786(5) 0.5326(7)
H19 H -0.0595 0.1925 0.5337
H20 H -0.1875 0.2065 0.5251
C20 C -0.1546(10) 0.1586(4) 0.6334(8)
H21 H -0.2277 0.1418 0.6344
H22 H -0.1571 0.1856 0.6818
C21 C -0.0649(9) 0.1236(4) 0.6635(9)
H23 H -0.0547 0.0998 0.6092
H24 H -0.0901 0.1053 0.7225
C22 C 0.0549(9) 0.1482(4) 0.6893(10)
C23 C 0.0802(9) 0.1742(4) 0.7770(9)
H25 H 0.0252 0.1775 0.8266
C24 C 0.1899(9) 0.1962(4) 0.7924(8)
H26 H 0.2052 0.2137 0.8518
C25 C 0.2430(8) 0.1676(3) 0.6365(8)
H27 H 0.2965 0.1660 0.5852
C26 C 0.1406(9) 0.1454(4) 0.6214(9)
H28 H 0.1286 0.1274 0.5621
C27 C -0.2822(9) 0.2448(4) -0.1600(7)
H29 H -0.3108 0.2246 -0.1092
C28 C -0.1771(8) 0.2630(4) -0.1468(6)
H30 H -0.1347 0.2543 -0.0896
C29 C -0.1303(7) 0.2953(3) -0.2194(6)
C30 C -0.1983(7) 0.3035(3) -0.3022(7)
H31 H -0.1718 0.3236 -0.3542
C31 C -0.3046(8) 0.2828(4) -0.3106(7)
H32 H -0.3480 0.2894 -0.3684
C32 C -0.0168(7) 0.3193(4) -0.2010(6)
H33 H -0.0272 0.3473 -0.1557
H34 H 0.0326 0.2957 -0.1667
C33 C 0.0422(7) 0.3374(3) -0.2940(7)
H35 H 0.1072 0.3576 -0.2741
H36 H -0.0096 0.3581 -0.3331
C34 C 0.0831(7) 0.2939(3) -0.3606(6)
H37 H 0.1536 0.2813 -0.3314
H38 H 0.0272 0.2675 -0.3563
C35 C 0.1028(6) 0.3044(3) -0.4697(6)
C36 C 0.0854(7) 0.3491(3) -0.5172(7)
H39 H 0.0637 0.3766 -0.4794
C37 C 0.0993(8) 0.3538(3) -0.6174(7)
H40 H 0.0875 0.3850 -0.6455
C38 C 0.1483(8) 0.2735(3) -0.6334(7)
H41 H 0.1693 0.2464 -0.6726
C39 C 0.1393(8) 0.2664(3) -0.5308(6)
H42 H 0.1579 0.2358 -0.5026
C40 C -0.3477(8) -0.1425(4) -1.1839(7)
H43 H -0.3371 -0.1596 -1.2444
C41 C -0.4457(8) -0.1151(4) -1.1725(7)
H44 H -0.4981 -0.1133 -1.2257
C42 C -0.4677(8) -0.0903(4) -1.0844(8)
C43 C -0.3852(8) -0.0951(4) -1.0103(7)
H45 H -0.3955 -0.0798 -0.9479
C44 C -0.2885(7) -0.1219(4) -1.0263(8)
H46 H -0.2341 -0.1237 -0.9747
C45 C -0.5737(8) -0.0597(4) -1.0697(8)
H47 H -0.5781 -0.0345 -1.1223
H48 H -0.5684 -0.0427 -1.0050
C46 C -0.6830(7) -0.0908(4) -1.0727(7)
H49 H -0.7476 -0.0683 -1.0749
H50 H -0.6843 -0.1097 -1.1352
C47 C -0.6985(8) -0.1258(4) -0.9866(7)
H51 H -0.6323 -0.1473 -0.9821
H52 H -0.7642 -0.1466 -1.0009
C48 C -0.7147(7) -0.1011(3) -0.8852(6)
C49 C -0.8149(7) -0.0742(3) -0.8654(7)
H53 H -0.8700 -0.0702 -0.9159
C50 C -0.8309(7) -0.0542(3) -0.7719(7)
H54 H -0.8984 -0.0372 -0.7603
C51 C -0.6596(8) -0.0825(3) -0.7155(7)
H55 H -0.6055 -0.0857 -0.6640
C52 C -0.6369(7) -0.1038(3) -0.8076(7)
H56 H -0.5680 -0.1201 -0.8172
C53 C -0.1538(8) 0.3146(4) -0.7349(8)
H57 H -0.1174 0.3399 -0.6993
C54 C -0.2669(8) 0.3031(3) -0.7107(8)
H58 H -0.3033 0.3197 -0.6584
C55 C -0.3231(8) 0.2671(3) -0.7656(7)
C56 C -0.2663(8) 0.2452(3) -0.8409(8)
H59 H -0.3040 0.2227 -0.8828
C57 C -0.1522(8) 0.2557(3) -0.8574(7)
H60 H -0.1136 0.2375 -0.9060
C58 C -0.4461(8) 0.2568(3) -0.7432(8)
H61 H -0.4903 0.2593 -0.8055
H62 H -0.4738 0.2819 -0.6969
C59 C -0.4652(8) 0.2049(4) -0.6961(8)
H63 H -0.4362 0.1794 -0.7408
H64 H -0.4249 0.2025 -0.6317
C60 C -0.5910(9) 0.1974(4) -0.6805(9)
H65 H -0.6302 0.2054 -0.7435
H66 H -0.6159 0.2212 -0.6302
C61 C -0.6294(9) 0.1463(4) -0.6474(8)
C62 C -0.7431(7) 0.1340(3) -0.6580(7)
H67 H -0.7939 0.1568 -0.6864
C63 C -0.7812(7) 0.0891(3) -0.6272(6)
H68 H -0.8588 0.0826 -0.6324
C64 C -0.6026(7) 0.0642(3) -0.5833(6)
H69 H -0.5534 0.0398 -0.5591
C65 C -0.5563(7) 0.1098(3) -0.6104(7)
H70 H -0.4785 0.1157 -0.6039
C66 C -0.3412(8) 0.0561(4) -0.1324(7)
H71 H -0.3896 0.0792 -0.1032
C67 C -0.3530(8) 0.0467(3) -0.2334(8)
H72 H -0.4059 0.0646 -0.2717
C68 C -0.2098(8) -0.0119(3) -0.2190(7)
H73 H -0.1619 -0.0356 -0.2470
C69 C -0.2011(8) -0.0009(3) -0.1178(7)
H74 H -0.1487 -0.0185 -0.0785
C70 C -0.3645(7) -0.1607(3) -0.7198(7)
H75 H -0.3531 -0.1656 -0.7887
C71 C -0.3397(7) -0.1161(3) -0.6807(7)
H76 H -0.3114 -0.0913 -0.7224
C72 C -0.3557(7) -0.1064(3) -0.5785(6)
C73 C -0.3958(7) -0.1446(3) -0.5222(7)
H77 H -0.4073 -0.1403 -0.4532
C74 C -0.4196(6) -0.1899(3) -0.5670(6)
H78 H -0.4473 -0.2154 -0.5266
C75 C -0.3300(8) -0.0547(3) -0.5352(7)
H79 H -0.2571 -0.0439 -0.5613
H80 H -0.3874 -0.0319 -0.5610
C76 C -0.3259(8) -0.0501(3) -0.4208(7)
H81 H -0.3993 -0.0590 -0.3931
H82 H -0.2692 -0.0727 -0.3931
C77 C -0.2962(8) 0.0026(3) -0.3918(7)
H83 H -0.3534 0.0247 -0.4203
H84 H -0.2237 0.0112 -0.4217
C78 C -0.2882(7) 0.0117(3) -0.2785(6)
N1 N -1.0350(7) -0.0111(4) -0.5517(7)
N2 N -0.6394(10) -0.0914(4) -0.4427(8)
N3 N -0.7940(7) 0.0098(3) -0.3655(6)
N4 N -0.7129(6) 0.0535(3) -0.5898(5)
N5 N -0.7549(6) -0.0576(3) -0.6957(5)
N6 N -0.1367(9) -0.0319(4) 0.1660(7)
N7 N -0.1250(8) 0.1458(4) -0.0161(7)
N8 N -0.1710(7) 0.0997(3) 0.2524(6)
N9 N -0.2636(6) 0.0337(3) -0.0730(5)
N10 N -0.4133(6) 0.0727(3) 0.1253(5)
N11 N -0.5561(8) 0.2329(4) -0.0446(7)
N12 N -0.4544(7) 0.1573(4) -0.4009(9)
N13 N -0.3486(7) 0.2534(3) -0.2395(6)
N14 N -0.4049(6) -0.1989(2) -0.6656(5)
N15 N 0.2707(6) 0.1919(3) 0.7227(6)
N16 N 0.1489(8) 0.2224(4) -0.9426(6)
N17 N -0.0162(6) 0.4074(3) -0.9119(7)
N18 N -0.0958(6) 0.2908(3) -0.8066(6)
N19 N 0.1290(5) 0.3168(3) -0.6809(5)
N20 N -0.2689(6) -0.1456(3) -1.1132(6)
O1 O -0.9730(6) 0.0209(3) -0.5784(5)
O2 O -0.9814(6) -0.0462(3) -0.5226(6)
O3 O -0.7400(7) -0.1012(3) -0.4600(6)
O4 O -0.6073(6) -0.0502(3) -0.4778(6)
O5 O -0.2379(6) -0.0171(3) 0.1741(6)
O6 O -0.0773(6) -0.0013(3) 0.1205(6)
O7 O -0.0682(6) 0.1075(3) 0.0123(5)
O8 O -0.2226(6) 0.1451(2) 0.0155(6)
O9 O -0.5306(6) 0.1947(3) -0.0873(5)
O10 O -0.5814(6) 0.2686(3) -0.0971(5)
O11 O -0.4821(7) 0.2001(3) -0.4264(5)
O12 O -0.4759(6) 0.1478(3) -0.3136(6)
O13 O 0.1022(6) 0.2572(3) -0.9856(5)
O14 O 0.1628(5) 0.2307(3) -0.8499(5)
O15 O 0.0187(5) 0.4009(2) -0.8230(5)
O16 O 0.0040(5) 0.3713(3) -0.9701(5)
Cd1 Cd -0.79138(5) -0.02261(2) -0.53370(5)
Cd2 Cd -0.21579(5) 0.06249(2) 0.09329(5)
Cd3 Cd -0.54181(6) 0.22529(2) -0.25554(5)
Cd4 Cd 0.09086(5) 0.31597(2) -0.85476(4)
N14A N -0.5951(6) 0.3011(2) -0.3344(5)
N15_2 N -0.7293(6) 0.1919(3) -0.2773(6)
N20A N 0.2689(6) 0.3544(3) -0.8868(6)
Cd3A Cd -0.45819(6) -0.27471(2) -0.74446(5)
Cd3_2 Cd 0.45819(6) 0.22529(2) 0.74446(5)
Cd4A Cd -0.09086(5) -0.18403(2) -1.14524(4)
loop_
_geom_bond_atom_site_label_1
_geom_bond_atom_site_label_2
_geom_bond_site_symmetry_1
_geom_bond_site_symmetry_2
C1 H1 1_555 1_555
C2 C1 1_555 1_555
H2 C2 1_555 1_555
C3 C2 1_555 1_555
C4 C3 1_555 1_555
H3 C4 1_555 1_555
C5 C4 1_555 1_555
H4 C5 1_555 1_555
C6 C3 1_555 1_555
H5 C6 1_555 1_555
H6 C6 1_555 1_555
C7 C6 1_555 1_555
H7 C7 1_555 1_555
H8 C7 1_555 1_555
C8 C7 1_555 1_555
H9 C8 1_555 1_555
H10 C8 1_555 1_555
C9 C8 1_555 1_555
C10 C9 1_555 1_555
H11 C10 1_555 1_555
C11 C10 1_555 1_555
H12 C11 1_555 1_555
C12 H13 1_555 1_555
C13 C9 1_555 1_555
H14 C13 1_555 1_555
C14 H15 1_555 1_555
C15 C14 1_555 1_555
H16 C15 1_555 1_555
C16 C15 1_555 1_555
C17 C16 1_555 1_555
H17 C17 1_555 1_555
C18 C17 1_555 1_555
H18 C18 1_555 1_555
C19 C16 1_555 1_555
H19 C19 1_555 1_555
H20 C19 1_555 1_555
C20 C19 1_555 1_555
H21 C20 1_555 1_555
H22 C20 1_555 1_555
C21 C20 1_555 1_555
H23 C21 1_555 1_555
H24 C21 1_555 1_555
C22 C21 1_555 1_555
C23 C22 1_555 1_555
H25 C23 1_555 1_555
C24 C23 1_555 1_555
H26 C24 1_555 1_555
C25 H27 1_555 1_555
C26 C22 1_555 1_555
H28 C26 1_555 1_555
C27 H29 1_555 1_555
C28 C27 1_555 1_555
H30 C28 1_555 1_555
C29 C28 1_555 1_555
C30 C29 1_555 1_555
H31 C30 1_555 1_555
C31 C30 1_555 1_555
H32 C31 1_555 1_555
C32 C29 1_555 1_555
H33 C32 1_555 1_555
H34 C32 1_555 1_555
C33 C32 1_555 1_555
H35 C33 1_555 1_555
H36 C33 1_555 1_555
C34 C33 1_555 1_555
H37 C34 1_555 1_555
H38 C34 1_555 1_555
C35 C34 1_555 1_555
C36 C35 1_555 1_555
H39 C36 1_555 1_555
C37 C36 1_555 1_555
H40 C37 1_555 1_555
C38 H41 1_555 1_555
C39 C35 1_555 1_555
H42 C39 1_555 1_555
C40 H43 1_555 1_555
C41 C40 1_555 1_555
H44 C41 1_555 1_555
C42 C41 1_555 1_555
C43 C42 1_555 1_555
H45 C43 1_555 1_555
C44 C43 1_555 1_555
H46 C44 1_555 1_555
C45 C42 1_555 1_555
H47 C45 1_555 1_555
H48 C45 1_555 1_555
C46 C45 1_555 1_555
H49 C46 1_555 1_555
H50 C46 1_555 1_555
C47 C46 1_555 1_555
H51 C47 1_555 1_555
H52 C47 1_555 1_555
C48 C47 1_555 1_555
C49 C48 1_555 1_555
H53 C49 1_555 1_555
C50 C49 1_555 1_555
H54 C50 1_555 1_555
C51 H55 1_555 1_555
C52 C48 1_555 1_555
H56 C52 1_555 1_555
C53 H57 1_555 1_555
C54 C53 1_555 1_555
H58 C54 1_555 1_555
C55 C54 1_555 1_555
C56 C55 1_555 1_555
H59 C56 1_555 1_555
C57 C56 1_555 1_555
H60 C57 1_555 1_555
C58 C55 1_555 1_555
H61 C58 1_555 1_555
H62 C58 1_555 1_555
C59 C58 1_555 1_555
H63 C59 1_555 1_555
H64 C59 1_555 1_555
C60 C59 1_555 1_555
H65 C60 1_555 1_555
H66 C60 1_555 1_555
C61 C60 1_555 1_555
C62 C61 1_555 1_555
H67 C62 1_555 1_555
C63 C62 1_555 1_555
H68 C63 1_555 1_555
C64 H69 1_555 1_555
C65 C61 1_555 1_555
H70 C65 1_555 1_555
C66 H71 1_555 1_555
C67 C66 1_555 1_555
H72 C67 1_555 1_555
C68 H73 1_555 1_555
C69 C68 1_555 1_555
H74 C69 1_555 1_555
C70 H75 1_555 1_555
C71 C70 1_555 1_555
H76 C71 1_555 1_555
C72 C71 1_555 1_555
C73 C72 1_555 1_555
H77 C73 1_555 1_555
C74 C73 1_555 1_555
H78 C74 1_555 1_555
C75 C72 1_555 1_555
H79 C75 1_555 1_555
H80 C75 1_555 1_555
C76 C75 1_555 1_555
H81 C76 1_555 1_555
H82 C76 1_555 1_555
C77 C76 1_555 1_555
H83 C77 1_555 1_555
H84 C77 1_555 1_555
C78 C67 1_555 1_555
N1 O1 1_555 1_555
N2 O3 1_555 1_555
N3 C1 1_555 1_555
N4 C63 1_555 1_555
N5 C50 1_555 1_555
N6 O5 1_555 1_555
N7 O7 1_555 1_555
N8 C14 1_555 1_555
N9 C66 1_555 1_555
N10 C11 1_555 1_555
N11 O9 1_555 1_555
N12 O11 1_555 1_555
N13 C27 1_555 1_555
N14 C70 1_555 1_555
N15 C24 1_555 1_555
N16 O13 1_555 1_555
N17 O15 1_555 1_555
N18 C53 1_555 1_555
N19 C37 1_555 1_555
N20 C40 1_555 1_555
O1 Cd1 1_555 1_555
O2 N1 1_555 1_555
O3 Cd1 1_555 1_555
O4 N2 1_555 1_555
O5 Cd2 1_555 1_555
O6 N6 1_555 1_555
O7 Cd2 1_555 1_555
O8 N7 1_555 1_555
O9 Cd3 1_555 1_555
O10 N11 1_555 1_555
O11 Cd3 1_555 1_555
O12 N12 1_555 1_555
O13 Cd4 1_555 1_555
O14 N16 1_555 1_555
O15 Cd4 1_555 1_555
O16 N17 1_555 1_555
Cd1 N3 1_555 1_555
Cd2 N8 1_555 1_555
Cd3 N13 1_555 1_555
Cd4 N18 1_555 1_555
N14A Cd3 1_555 1_555
N15_2 Cd3 1_555 1_555
N20A Cd4 1_555 1_555
Cd3A N14 1_555 1_555
Cd3_2 N15 1_555 1_555
Cd4A N20 1_555 1_555
C5 N3 1_555 1_555
C12 C13 1_555 1_555
C12 N10 1_555 1_555
C18 N8 1_555 1_555
C25 C26 1_555 1_555
C25 N15 1_555 1_555
C31 N13 1_555 1_555
C38 C39 1_555 1_555
C38 N19 1_555 1_555
C44 N20 1_555 1_555
C51 C52 1_555 1_555
C51 N5 1_555 1_555
C57 N18 1_555 1_555
C64 C65 1_555 1_555
C64 N4 1_555 1_555
C68 C78 1_555 1_555
C69 N9 1_555 1_555
C74 N14 1_555 1_555
C77 C78 1_555 1_555
N4 Cd1 1_555 1_555
N5 Cd1 1_555 1_555
N9 Cd2 1_555 1_555
N10 Cd2 1_555 1_555
N19 Cd4 1_555 1_555
O2 Cd1 1_555 1_555
O4 Cd1 1_555 1_555
O6 Cd2 1_555 1_555
O8 Cd2 1_555 1_555
O10 Cd3 1_555 1_555
O12 Cd3 1_555 1_555
O14 Cd4 1_555 1_555
O16 Cd4 1_555 1_555

#END
