
#######################################################################
#
#                 Cambridge Crystallographic Data Centre
#                                CCDC 
#
#######################################################################
#
# If this CIF has been generated from an entry in the Cambridge 
# Structural Database, then it will include bibliographic, chemical, 
# crystal, experimental, refinement or atomic coordinate data resulting 
# from the CCDC's data processing and validation procedures.
#
#######################################################################

data_GELWIF
_symmetry_cell_setting           monoclinic
_symmetry_space_group_name_H-M   'P 21'
_symmetry_Int_Tables_number      4
_space_group_name_Hall           'P 2yb'
loop_
_symmetry_equiv_pos_site_id
_symmetry_equiv_pos_as_xyz
1 x,y,z
2 -x,1/2+y,-z
_cell_length_a                   8.527(5)
_cell_length_b                   10.296(6)
_cell_length_c                   9.697(6)
_cell_angle_alpha                90
_cell_angle_beta                 103.77(2)
_cell_angle_gamma                90
_cell_volume                     826.87
loop_
_atom_site_label
_atom_site_type_symbol
_atom_site_fract_x
_atom_site_fract_y
_atom_site_fract_z
Cu1 Cu 0.83620(12) 0.40819(12) 0.90170(11)
N1 N 0.7306(9) 0.2407(8) 0.8684(8)
N2 N 0.9661(9) 0.3433(8) 0.7548(8)
N3 N 0.8997(11) 0.5873(9) 0.8901(9)
N4 N 0.4503(9) 0.1181(11) 1.3731(10)
O1 O 0.4374(8) 0.0023(9) 1.3377(9)
O2 O 0.4166(10) 0.1610(10) 1.4803(9)
O3 O 0.7061(8) 0.4566(6) 1.0347(7)
S1 S 0.9263(4) 0.8526(3) 0.8508(3)
C1 C 0.6195(10) 0.2395(10) 1.0748(10)
C2 C 0.6486(10) 0.3742(11) 1.1123(10)
C3 C 0.6046(9) 0.4181(14) 1.2369(9)
H1 H 0.6194 0.5051 1.2624
C4 C 0.5409(11) 0.3354(10) 1.3209(11)
H2 H 0.5163 0.3658 1.4036
C5 C 0.5137(10) 0.2077(11) 1.2816(10)
C6 C 0.5509(10) 0.1586(10) 1.1618(10)
H3 H 0.5307 0.0717 1.1380
C7 C 0.6568(11) 0.1843(10) 0.9534(10)
H4 H 0.6249 0.0988 0.9327
C8 C 0.7603(11) 0.1744(10) 0.7441(10)
H5 H 0.6878 0.2071 0.6584
H6 H 0.7422 0.0818 0.7504
C9 C 0.9324(12) 0.2000(10) 0.7402(12)
H7 H 0.9516 0.1689 0.6512
H8 H 1.0043 0.1538 0.8171
C10 C 1.1422(10) 0.3671(11) 0.8023(10)
H9 H 1.1844 0.3163 0.8873
H10 H 1.1593 0.4580 0.8278
C11 C 1.2376(12) 0.3344(13) 0.6940(11)
H11 H 1.3501 0.3570 0.7316
H12 H 1.2316 0.2417 0.6757
C12 C 1.1741(10) 0.4057(19) 0.5592(10)
H13 H 1.2297 0.3766 0.4885
H14 H 1.1950 0.4978 0.5747
C13 C 0.9970(12) 0.3842(14) 0.5057(11)
H15 H 0.9787 0.2952 0.4730
H16 H 0.9569 0.4407 0.4250
C14 C 0.9039(9) 0.4094(14) 0.6153(9)
H17 H 0.9029 0.5023 0.6318
H18 H 0.7930 0.3823 0.5775
C15 C 0.9091(10) 0.6952(10) 0.8721(10)
Cu1A Cu 1.16380(12) 0.90819(12) 1.09830(11)
S1A S 1.0737(4) 0.3526(3) 1.1492(3)
loop_
_geom_bond_atom_site_label_1
_geom_bond_atom_site_label_2
_geom_bond_site_symmetry_1
_geom_bond_site_symmetry_2
Cu1 N1 1_555 1_555
N1 C7 1_555 1_555
N2 Cu1 1_555 1_555
N3 Cu1 1_555 1_555
N4 O1 1_555 1_555
O2 N4 1_555 1_555
O3 Cu1 1_555 1_555
S1 C15 1_555 1_555
C1 C2 1_555 1_555
C2 O3 1_555 1_555
C3 C2 1_555 1_555
H1 C3 1_555 1_555
C4 C3 1_555 1_555
H2 C4 1_555 1_555
C5 N4 1_555 1_555
C6 C1 1_555 1_555
H3 C6 1_555 1_555
C7 C1 1_555 1_555
H4 C7 1_555 1_555
C8 N1 1_555 1_555
H5 C8 1_555 1_555
H6 C8 1_555 1_555
C9 N2 1_555 1_555
H7 C9 1_555 1_555
H8 C9 1_555 1_555
C10 N2 1_555 1_555
H9 C10 1_555 1_555
H10 C10 1_555 1_555
C11 C10 1_555 1_555
H11 C11 1_555 1_555
H12 C11 1_555 1_555
C12 C11 1_555 1_555
H13 C12 1_555 1_555
H14 C12 1_555 1_555
C13 C12 1_555 1_555
H15 C13 1_555 1_555
H16 C13 1_555 1_555
C14 N2 1_555 1_555
H17 C14 1_555 1_555
H18 C14 1_555 1_555
C15 N3 1_555 1_555
Cu1A S1 1_555 1_555
S1A Cu1 1_555 1_555
C4 C5 1_555 1_555
C5 C6 1_555 1_555
C8 C9 1_555 1_555
C13 C14 1_555 1_555

#END
