
#######################################################################
#
#                 Cambridge Crystallographic Data Centre
#                                CCDC 
#
#######################################################################
#
# If this CIF has been generated from an entry in the Cambridge 
# Structural Database, then it will include bibliographic, chemical, 
# crystal, experimental, refinement or atomic coordinate data resulting 
# from the CCDC's data processing and validation procedures.
#
#######################################################################

data_GELWUR
_symmetry_cell_setting           triclinic
_symmetry_space_group_name_H-M   'P -1'
_symmetry_Int_Tables_number      2
_space_group_name_Hall           '-P 1'
loop_
_symmetry_equiv_pos_site_id
_symmetry_equiv_pos_as_xyz
1 x,y,z
2 -x,-y,-z
_cell_length_a                   6.5427(14)
_cell_length_b                   7.3163(16)
_cell_length_c                   9.487(3)
_cell_angle_alpha                106.252(19)
_cell_angle_beta                 89.97(2)
_cell_angle_gamma                94.327(17)
_cell_volume                     434.637
loop_
_atom_site_label
_atom_site_type_symbol
_atom_site_fract_x
_atom_site_fract_y
_atom_site_fract_z
Cu1 Cu 0.0000 0.5000 1.0000
Cl1 Cl -0.27906(7) 0.42438(7) 0.83716(6)
N1 N 0.2811(2) 0.0322(2) 0.75327(16)
N2 N 0.2566(3) 0.1264(2) 0.65149(19)
N3 N 0.1740(3) 0.2819(2) 0.7162(2)
N4 N 0.1454(2) 0.2922(2) 0.85967(17)
C1 C 0.2126(3) 0.1362(2) 0.88095(18)
H1 H 0.2122 0.1043 0.9692
C2 C 0.3703(3) -0.1560(2) 0.71290(19)
C3 C 0.3250(3) -0.2550(2) 0.8329(2)
H2 H 0.3739 -0.3818 0.8021
H3 H 0.4012 -0.1840 0.9215
O1 O 0.1130(2) -0.2718(2) 0.86684(16)
H4 H 0.0628 -0.3171 0.7786
C4 C 0.6041(3) -0.1251(3) 0.6993(2)
H5 H 0.6617 -0.2482 0.6716
H6 H 0.6326 -0.0646 0.6218
O2 O 0.7006(2) -0.0112(2) 0.83073(17)
H7 H 0.7119 0.1007 0.8293
C5 C 0.2812(3) -0.2730(3) 0.5633(2)
H8 H 0.3169 -0.2072 0.4900
H9 H 0.3387 -0.3962 0.5346
O3 O 0.0653(3) -0.2994(3) 0.5707(2)
H10 H 0.0149 -0.3294 0.4875
Cu1_2 Cu 0.0000 -0.5000 1.0000
Cu1_3 Cu 0.0000 1.5000 1.0000
Cl1A Cl 0.27906(7) 0.57562(7) 1.16284(6)
N1_2 N 0.2811(2) 1.0322(2) 0.75327(16)
N2_2 N 0.2566(3) 1.1264(2) 0.65149(19)
N3_2 N 0.1740(3) 1.2819(2) 0.7162(2)
N4_2 N 0.1454(2) 1.2922(2) 0.85967(17)
N4A N -0.1454(2) 0.7078(2) 1.14033(17)
C1_2 C 0.2126(3) 1.1362(2) 0.88095(18)
H1_2 H 0.2122 1.1043 0.9692
C2_2 C 0.3703(3) 0.8440(2) 0.71290(19)
C3_2 C 0.3250(3) 0.7450(2) 0.8329(2)
H2_2 H 0.3739 0.6182 0.8021
H3_2 H 0.4012 0.8160 0.9215
O1_2 O 0.1130(2) 0.7282(2) 0.86684(16)
O1A O -0.1130(2) 0.2718(2) 1.13316(16)
H4_2 H 0.0628 0.6829 0.7786
H4A H -0.0628 0.3171 1.2214
C4_2 C 0.6041(3) 0.8749(3) 0.6993(2)
H5_2 H 0.6617 0.7518 0.6716
H6_2 H 0.6326 0.9354 0.6218
O2_2 O 0.7006(2) 0.9888(2) 0.83073(17)
H7_2 H 0.7119 1.1007 0.8293
C5_2 C 0.2812(3) 0.7270(3) 0.5633(2)
H8_2 H 0.3169 0.7928 0.4900
H9_2 H 0.3387 0.6038 0.5346
O3_2 O 0.0653(3) 0.7006(3) 0.5707(2)
H10_2 H 0.0149 0.6706 0.4875
loop_
_geom_bond_atom_site_label_1
_geom_bond_atom_site_label_2
_geom_bond_site_symmetry_1
_geom_bond_site_symmetry_2
Cu1 Cl1 1_555 1_555
N1 N2 1_555 1_555
N2 N3 1_555 1_555
N3 N4 1_555 1_555
N4 Cu1 1_555 1_555
C1 N1 1_555 1_555
H1 C1 1_555 1_555
C2 N1 1_555 1_555
C3 C2 1_555 1_555
H2 C3 1_555 1_555
H3 C3 1_555 1_555
O1 C3 1_555 1_555
H4 O1 1_555 1_555
C4 C2 1_555 1_555
H5 C4 1_555 1_555
H6 C4 1_555 1_555
O2 C4 1_555 1_555
H7 O2 1_555 1_555
C5 C2 1_555 1_555
H8 C5 1_555 1_555
H9 C5 1_555 1_555
O3 C5 1_555 1_555
H10 O3 1_555 1_555
Cu1_2 O1 1_555 1_555
Cu1_3 N4_2 1_555 1_555
Cl1A Cu1 1_555 1_555
N1_2 N2_2 1_555 1_555
N2_2 N3_2 1_555 1_555
N3_2 N4_2 1_555 1_555
N4_2 C1_2 1_555 1_555
N4A Cu1 1_555 1_555
C1_2 N1_2 1_555 1_555
H1_2 C1_2 1_555 1_555
C2_2 N1_2 1_555 1_555
C3_2 C2_2 1_555 1_555
H2_2 C3_2 1_555 1_555
H3_2 C3_2 1_555 1_555
O1_2 Cu1 1_555 1_555
O1A Cu1 1_555 1_555
H4_2 O1_2 1_555 1_555
H4A O1A 1_555 1_555
C4_2 C2_2 1_555 1_555
H5_2 C4_2 1_555 1_555
H6_2 C4_2 1_555 1_555
O2_2 C4_2 1_555 1_555
H7_2 O2_2 1_555 1_555
C5_2 C2_2 1_555 1_555
H8_2 C5_2 1_555 1_555
H9_2 C5_2 1_555 1_555
O3_2 C5_2 1_555 1_555
H10_2 O3_2 1_555 1_555
N4 C1 1_555 1_555
C3_2 O1_2 1_555 1_555

#END
