
#######################################################################
#
#                 Cambridge Crystallographic Data Centre
#                                CCDC 
#
#######################################################################
#
# If this CIF has been generated from an entry in the Cambridge 
# Structural Database, then it will include bibliographic, chemical, 
# crystal, experimental, refinement or atomic coordinate data resulting 
# from the CCDC's data processing and validation procedures.
#
#######################################################################

data_GELXUS
_symmetry_cell_setting           monoclinic
_symmetry_space_group_name_H-M   'C 2/c'
_symmetry_Int_Tables_number      15
_space_group_name_Hall           '-C 2yn'
loop_
_symmetry_equiv_pos_site_id
_symmetry_equiv_pos_as_xyz
1 x,y,z
2 -x,y,1/2-z
3 1/2+x,1/2+y,z
4 1/2-x,1/2+y,1/2-z
5 -x,-y,-z
6 x,-y,1/2+z
7 1/2-x,1/2-y,-z
8 1/2+x,1/2-y,1/2+z
_cell_length_a                   21.052(3)
_cell_length_b                   18.415(3)
_cell_length_c                   13.071(3)
_cell_angle_alpha                90
_cell_angle_beta                 114.827(3)
_cell_angle_gamma                90
_cell_volume                     4598.95
loop_
_atom_site_label
_atom_site_type_symbol
_atom_site_fract_x
_atom_site_fract_y
_atom_site_fract_z
Mo1 Mo 0.096653(19) 0.31623(2) -0.00830(3)
N1 N 0.20421(19) 0.3448(2) 0.0146(3)
N2 N 0.21008(18) 0.3911(2) -0.0644(3)
N3 N 0.12128(19) 0.5688(2) -0.3892(3)
N4 N 0.2927(3) 0.1359(3) 0.4515(5)
O1 O 0.14617(17) 0.2785(2) 0.1413(3)
O2 O 0.09036(15) 0.38875(18) -0.1264(3)
O3 O 0.0900(2) 0.2393(2) -0.0832(3)
O4 O 0.01511(17) 0.3332(2) -0.0157(3)
C1 C 0.2684(2) 0.2747(3) 0.1829(4)
C2 C 0.2120(3) 0.2533(3) 0.2041(4)
C3 C 0.2197(3) 0.2068(3) 0.2912(5)
H2 H 0.1803 0.1917 0.3008
C4 C 0.2866(3) 0.1816(3) 0.3660(5)
C5 C 0.3440(3) 0.2045(3) 0.3477(4)
H3 H 0.3886 0.1887 0.3957
C6 C 0.3358(3) 0.2496(3) 0.2602(4)
H4 H 0.3752 0.2645 0.2506
C7 C 0.2631(2) 0.3205(2) 0.0918(4)
H5 H 0.3044 0.3340 0.0870
C8 C 0.1471(2) 0.4089(2) -0.1356(4)
C9 C 0.1382(2) 0.4600(2) -0.2277(4)
C10 C 0.1965(2) 0.4916(3) -0.2365(4)
H6 H 0.2417 0.4773 -0.1888
C11 C 0.1853(2) 0.5450(3) -0.3180(4)
H7 H 0.2241 0.5653 -0.3237
C12 C 0.0671(2) 0.5365(3) -0.3810(4)
H8 H 0.0223 0.5515 -0.4296
C13 C 0.0733(3) 0.4815(3) -0.3039(4)
H9 H 0.0334 0.4594 -0.3043
C14 C 0.3633(3) 0.1086(3) 0.5266(5)
H10 H 0.3906 0.1027 0.4830
H11 H 0.3588 0.0612 0.5553
C15 C 0.4021(4) 0.1587(5) 0.6248(6)
H12 H 0.4075 0.2054 0.5971
H13 H 0.4473 0.1387 0.6704
H14 H 0.3759 0.1637 0.6695
C16 C 0.2345(4) 0.1311(6) 0.4996(8)
H15 H 0.2538 0.1220 0.5801
H16 H 0.2036 0.1729 0.4802
C17 C 0.2026(8) 0.0673(6) 0.4320(12)
H17 H 0.1945 0.0760 0.3551
H18 H 0.1589 0.0572 0.4358
H19 H 0.2334 0.0264 0.4606
Mo1E Mo 0.096653(19) 0.68377(2) -0.50830(3)
N3E N 0.12128(19) 0.4312(2) 0.1108(3)
O5 O 0.0703(6) -0.0334(7) 0.6672(9)
H1 H 0.0984 -0.0482 0.6437
C18 C 0.0669(6) 0.0519(7) 0.6605(13)
H20 H 0.0423 0.0698 0.7028
H21 H 0.0428 0.0666 0.5832
H22 H 0.1135 0.0712 0.6915
loop_
_geom_bond_atom_site_label_1
_geom_bond_atom_site_label_2
_geom_bond_site_symmetry_1
_geom_bond_site_symmetry_2
Mo1 N1 1_555 1_555
N1 N2 1_555 1_555
N2 C8 1_555 1_555
N3 C11 1_555 1_555
N4 C4 1_555 1_555
O1 Mo1 1_555 1_555
O2 Mo1 1_555 1_555
O3 Mo1 1_555 1_555
O4 Mo1 1_555 1_555
O5 H1 1_555 1_555
C1 C2 1_555 1_555
C2 O1 1_555 1_555
C3 C2 1_555 1_555
H2 C3 1_555 1_555
C4 C3 1_555 1_555
C5 C4 1_555 1_555
H3 C5 1_555 1_555
C6 C1 1_555 1_555
H4 C6 1_555 1_555
C7 N1 1_555 1_555
H5 C7 1_555 1_555
C8 O2 1_555 1_555
C9 C8 1_555 1_555
C10 C9 1_555 1_555
H6 C10 1_555 1_555
C11 C10 1_555 1_555
H7 C11 1_555 1_555
C12 N3 1_555 1_555
H8 C12 1_555 1_555
C13 C9 1_555 1_555
H9 C13 1_555 1_555
C14 N4 1_555 1_555
H10 C14 1_555 1_555
H11 C14 1_555 1_555
C15 C14 1_555 1_555
H12 C15 1_555 1_555
H13 C15 1_555 1_555
H14 C15 1_555 1_555
C16 N4 1_555 1_555
H15 C16 1_555 1_555
H16 C16 1_555 1_555
C17 C16 1_555 1_555
H17 C17 1_555 1_555
H18 C17 1_555 1_555
H19 C17 1_555 1_555
C18 O5 1_555 1_555
H20 C18 1_555 1_555
H21 C18 1_555 1_555
H22 C18 1_555 1_555
Mo1E N3 1_555 1_555
N3E Mo1 1_555 1_555
C1 C7 1_555 1_555
C5 C6 1_555 1_555
C12 C13 1_555 1_555

#END
