
#######################################################################
#
#                 Cambridge Crystallographic Data Centre
#                                CCDC 
#
#######################################################################
#
# If this CIF has been generated from an entry in the Cambridge 
# Structural Database, then it will include bibliographic, chemical, 
# crystal, experimental, refinement or atomic coordinate data resulting 
# from the CCDC's data processing and validation procedures.
#
#######################################################################

data_GEMBAD
_symmetry_cell_setting           triclinic
_symmetry_space_group_name_H-M   'P -1'
_symmetry_Int_Tables_number      2
_space_group_name_Hall           '-P 1'
loop_
_symmetry_equiv_pos_site_id
_symmetry_equiv_pos_as_xyz
1 x,y,z
2 -x,-y,-z
_cell_length_a                   10.2388(17)
_cell_length_b                   11.249(2)
_cell_length_c                   11.971(2)
_cell_angle_alpha                82.013(13)
_cell_angle_beta                 65.032(6)
_cell_angle_gamma                84.32(2)
_cell_volume                     1236.55
loop_
_atom_site_label
_atom_site_type_symbol
_atom_site_fract_x
_atom_site_fract_y
_atom_site_fract_z
Cu1 Cu 1.0000 0.0000 -0.5000
Cu2 Cu 0.68750(3) 0.81804(2) -0.27746(3)
C1 C 1.2028(3) 0.5106(2) -0.4459(2)
C2 C 1.0692(3) 0.5637(2) -0.3754(2)
H1 H 1.0640 0.6428 -0.3590
C3 C 0.9437(2) 0.5006(2) -0.3292(2)
C4 C 0.9501(2) 0.3827(2) -0.3539(2)
H2 H 0.8664 0.3400 -0.3229
C5 C 1.0828(2) 0.32856(19) -0.4256(2)
C6 C 1.2080(2) 0.3921(2) -0.4694(2)
H3 H 1.2964 0.3548 -0.5151
C7 C 0.7994(2) 0.5651(2) -0.2653(2)
C8 C 1.0876(3) 0.2077(2) -0.4665(2)
C9 C 1.3352(3) 0.5844(3) -0.5028(3)
H4 H 1.4177 0.5348 -0.5479
H5 H 1.3500 0.6154 -0.4385
H6 H 1.3221 0.6499 -0.5582
C10 C 0.9908(3) -0.3126(2) 0.0009(2)
C11 C 0.9459(3) -0.2336(2) -0.0775(2)
H7 H 0.8484 -0.2114 -0.0511
C12 C 1.0418(3) -0.1867(2) -0.1938(2)
C13 C 1.1874(3) -0.2192(2) -0.2336(2)
H8 H 1.2529 -0.1874 -0.3109
C14 C 1.2355(3) -0.2992(2) -0.1581(2)
C15 C 1.1376(3) -0.3450(2) -0.0409(2)
H9 H 1.1705 -0.3977 0.0097
C16 C 0.9861(3) -0.1100(2) -0.2790(2)
C17 C 1.3920(3) -0.3370(2) -0.2071(2)
C18 C 0.8847(3) -0.3652(3) 0.1249(3)
H10 H 0.7894 -0.3332 0.1384
H11 H 0.9092 -0.3450 0.1888
H12 H 0.8877 -0.4510 0.1267
C19 C 0.5815(3) 1.0344(2) -0.3968(3)
H13 H 0.6678 1.0275 -0.4665
C20 C 0.4759(4) 1.1173(3) -0.4048(3)
H14 H 0.4914 1.1667 -0.4779
C21 C 0.3474(4) 1.1249(3) -0.3022(3)
H15 H 0.2730 1.1773 -0.3063
C22 C 0.3294(3) 1.0545(3) -0.1932(3)
H16 H 0.2435 1.0598 -0.1229
C23 C 0.4407(3) 0.9759(2) -0.1901(2)
C24 C 0.4363(3) 0.8975(2) -0.0787(2)
C25 C 0.3332(3) 0.9101(3) 0.0402(3)
H17 H 0.2592 0.9690 0.0538
C26 C 0.3417(4) 0.8346(3) 0.1381(3)
H18 H 0.2748 0.8431 0.2188
C27 C 0.4503(4) 0.7463(3) 0.1151(3)
H19 H 0.4564 0.6933 0.1799
C28 C 0.5503(3) 0.7377(3) -0.0053(3)
H20 H 0.6234 0.6778 -0.0209
N1 N 0.5446(2) 0.81295(19) -0.10006(19)
N2 N 0.5637(2) 0.96384(18) -0.2921(2)
O1 O 0.80360(19) 0.67617(15) -0.26111(18)
O2 O 0.68904(19) 0.50628(16) -0.2241(2)
O3 O 1.20688(19) 0.16442(16) -0.54162(16)
O4 O 0.97295(19) 0.15254(15) -0.42517(17)
O5 O 1.07957(19) -0.08232(16) -0.38867(16)
O6 O 0.85514(18) -0.08072(16) -0.24155(17)
O7 O 1.48121(19) -0.28647(18) -0.30163(18)
O8 O 1.4243(2) -0.42728(18) -0.13997(19)
Cu2A Cu 1.31250(3) -0.81804(2) -0.72254(3)
Cu2A_2 Cu 1.31250(3) 0.18196(2) -0.72254(3)
Cu2_2 Cu 0.68750(3) -0.18196(2) -0.27746(3)
C1A C 0.7972(3) -0.5106(2) -0.5541(2)
C2A C 0.9308(3) -0.5637(2) -0.6246(2)
H1A H 0.9360 -0.6428 -0.6410
C3A C 1.0563(2) -0.5006(2) -0.6708(2)
C4A C 1.0499(2) -0.3827(2) -0.6461(2)
H2A H 1.1336 -0.3400 -0.6771
C5A C 0.9172(2) -0.32856(19) -0.5744(2)
C6A C 0.7920(2) -0.3921(2) -0.5306(2)
H3A H 0.7036 -0.3548 -0.4849
C7A C 1.2006(2) -0.5651(2) -0.7347(2)
C8A C 0.9124(3) -0.2077(2) -0.5335(2)
C9A C 0.6648(3) -0.5844(3) -0.4972(3)
H4A H 0.5823 -0.5348 -0.4521
H5A H 0.6500 -0.6154 -0.5615
H6A H 0.6779 -0.6499 -0.4418
C10A C 1.0092(3) 0.3126(2) -1.0009(2)
C11A C 1.0541(3) 0.2336(2) -0.9225(2)
H7A H 1.1516 0.2114 -0.9489
C12A C 0.9582(3) 0.1867(2) -0.8062(2)
C13A C 0.8126(3) 0.2192(2) -0.7664(2)
H8A H 0.7471 0.1874 -0.6891
C14A C 0.7645(3) 0.2992(2) -0.8419(2)
C15A C 0.8624(3) 0.3450(2) -0.9591(2)
H9A H 0.8295 0.3977 -1.0097
C16A C 1.0139(3) 0.1100(2) -0.7210(2)
C17A C 0.6080(3) 0.3370(2) -0.7929(2)
C18A C 1.1153(3) 0.3652(3) -1.1249(3)
H10A H 1.2106 0.3332 -1.1384
H11A H 1.0908 0.3450 -1.1888
H12A H 1.1123 0.4510 -1.1267
C19A C 1.4185(3) -1.0344(2) -0.6032(3)
H13A H 1.3322 -1.0275 -0.5335
C20A C 1.5241(4) -1.1173(3) -0.5952(3)
H14A H 1.5086 -1.1667 -0.5221
C21A C 1.6526(4) -1.1249(3) -0.6978(3)
H15A H 1.7270 -1.1773 -0.6937
C22A C 1.6706(3) -1.0545(3) -0.8068(3)
H16A H 1.7565 -1.0598 -0.8771
C23A C 1.5593(3) -0.9759(2) -0.8099(2)
C24A C 1.5637(3) -0.8975(2) -0.9213(2)
C25A C 1.6668(3) -0.9101(3) -1.0402(3)
H17A H 1.7408 -0.9690 -1.0538
C26A C 1.6583(4) -0.8346(3) -1.1381(3)
H18A H 1.7252 -0.8431 -1.2188
C27A C 1.5497(4) -0.7463(3) -1.1151(3)
H19A H 1.5436 -0.6933 -1.1799
C28A C 1.4497(3) -0.7377(3) -0.9947(3)
H20A H 1.3766 -0.6778 -0.9791
N1A N 1.4554(2) -0.81295(19) -0.89994(19)
N2A N 1.4363(2) -0.96384(18) -0.7079(2)
O1A O 1.19640(19) -0.67617(15) -0.73889(18)
O2A O 1.31096(19) -0.50628(16) -0.7759(2)
O3A O 0.79312(19) -0.16442(16) -0.45838(16)
O3A_2 O 0.79312(19) 0.83558(16) -0.45838(16)
O3_2 O 1.20688(19) -0.83558(16) -0.54162(16)
O4A O 1.02705(19) -0.15254(15) -0.57483(17)
O5A O 0.92043(19) 0.08232(16) -0.61133(16)
O6A O 1.14486(18) 0.08072(16) -0.75845(17)
O6_2 O 0.85514(18) 0.91928(16) -0.24155(17)
O6A_2 O 1.14486(18) -0.91928(16) -0.75845(17)
O7A O 0.51879(19) 0.28647(18) -0.69837(18)
O8A O 0.5757(2) 0.42728(18) -0.86003(19)
loop_
_geom_bond_atom_site_label_1
_geom_bond_atom_site_label_2
_geom_bond_site_symmetry_1
_geom_bond_site_symmetry_2
Cu1 O4 1_555 1_555
Cu2 N1 1_555 1_555
C1 C2 1_555 1_555
C2 H1 1_555 1_555
C3 C2 1_555 1_555
C4 C3 1_555 1_555
H2 C4 1_555 1_555
C5 C4 1_555 1_555
C6 C1 1_555 1_555
H3 C6 1_555 1_555
C7 C3 1_555 1_555
C8 C5 1_555 1_555
C9 C1 1_555 1_555
H4 C9 1_555 1_555
H5 C9 1_555 1_555
H6 C9 1_555 1_555
C10 C11 1_555 1_555
C11 H7 1_555 1_555
C12 C11 1_555 1_555
C13 C12 1_555 1_555
H8 C13 1_555 1_555
C14 C13 1_555 1_555
C15 C10 1_555 1_555
H9 C15 1_555 1_555
C16 C12 1_555 1_555
C17 C14 1_555 1_555
C18 C10 1_555 1_555
H10 C18 1_555 1_555
H11 C18 1_555 1_555
H12 C18 1_555 1_555
C19 H13 1_555 1_555
C20 C19 1_555 1_555
H14 C20 1_555 1_555
C21 C20 1_555 1_555
H15 C21 1_555 1_555
C22 C21 1_555 1_555
H16 C22 1_555 1_555
C23 C22 1_555 1_555
C24 C23 1_555 1_555
C25 C24 1_555 1_555
H17 C25 1_555 1_555
C26 C25 1_555 1_555
H18 C26 1_555 1_555
C27 C26 1_555 1_555
H19 C27 1_555 1_555
C28 C27 1_555 1_555
H20 C28 1_555 1_555
N1 C24 1_555 1_555
N2 Cu2 1_555 1_555
O1 Cu2 1_555 1_555
O2 C7 1_555 1_555
O3 C8 1_555 1_555
O4 C8 1_555 1_555
O5 Cu1 1_555 1_555
O6 C16 1_555 1_555
O7 C17 1_555 1_555
O8 C17 1_555 1_555
Cu2A N1A 1_555 1_555
Cu2A_2 O3 1_555 1_555
Cu2_2 O6 1_555 1_555
C1A C2A 1_555 1_555
C2A H1A 1_555 1_555
C3A C2A 1_555 1_555
C4A C3A 1_555 1_555
H2A C4A 1_555 1_555
C5A C4A 1_555 1_555
C6A C1A 1_555 1_555
H3A C6A 1_555 1_555
C7A C3A 1_555 1_555
C8A C5A 1_555 1_555
C9A C1A 1_555 1_555
H4A C9A 1_555 1_555
H5A C9A 1_555 1_555
H6A C9A 1_555 1_555
C10A C11A 1_555 1_555
C11A H7A 1_555 1_555
C12A C11A 1_555 1_555
C13A C12A 1_555 1_555
H8A C13A 1_555 1_555
C14A C13A 1_555 1_555
C15A C10A 1_555 1_555
H9A C15A 1_555 1_555
C16A C12A 1_555 1_555
C17A C14A 1_555 1_555
C18A C10A 1_555 1_555
H10A C18A 1_555 1_555
H11A C18A 1_555 1_555
H12A C18A 1_555 1_555
C19A H13A 1_555 1_555
C20A C19A 1_555 1_555
H14A C20A 1_555 1_555
C21A C20A 1_555 1_555
H15A C21A 1_555 1_555
C22A C21A 1_555 1_555
H16A C22A 1_555 1_555
C23A C22A 1_555 1_555
C24A C23A 1_555 1_555
C25A C24A 1_555 1_555
H17A C25A 1_555 1_555
C26A C25A 1_555 1_555
H18A C26A 1_555 1_555
C27A C26A 1_555 1_555
H19A C27A 1_555 1_555
C28A C27A 1_555 1_555
H20A C28A 1_555 1_555
N1A C24A 1_555 1_555
N2A Cu2A 1_555 1_555
O1A Cu2A 1_555 1_555
O2A C7A 1_555 1_555
O3A Cu2_2 1_555 1_555
O3A_2 Cu2 1_555 1_555
O3_2 Cu2A 1_555 1_555
O4A Cu1 1_555 1_555
O5A Cu1 1_555 1_555
O6A Cu2A_2 1_555 1_555
O6_2 Cu2 1_555 1_555
O6A_2 Cu2A 1_555 1_555
O7A C17A 1_555 1_555
O8A C17A 1_555 1_555
C5 C6 1_555 1_555
C7 O1 1_555 1_555
C14 C15 1_555 1_555
C16 O5 1_555 1_555
C19 N2 1_555 1_555
C23 N2 1_555 1_555
C28 N1 1_555 1_555
C5A C6A 1_555 1_555
C7A O1A 1_555 1_555
C8A O3A 1_555 1_555
C8A O4A 1_555 1_555
C14A C15A 1_555 1_555
C16A O5A 1_555 1_555
C16A O6A 1_555 1_555
C19A N2A 1_555 1_555
C23A N2A 1_555 1_555
C28A N1A 1_555 1_555

#END
