
#######################################################################
#
#                 Cambridge Crystallographic Data Centre
#                                CCDC 
#
#######################################################################
#
# If this CIF has been generated from an entry in the Cambridge 
# Structural Database, then it will include bibliographic, chemical, 
# crystal, experimental, refinement or atomic coordinate data resulting 
# from the CCDC's data processing and validation procedures.
#
#######################################################################

data_GEMGUA
_symmetry_cell_setting           monoclinic
_symmetry_space_group_name_H-M   'P 21/c'
_symmetry_Int_Tables_number      14
_space_group_name_Hall           '-P 2ybc'
loop_
_symmetry_equiv_pos_site_id
_symmetry_equiv_pos_as_xyz
1 x,y,z
2 -x,1/2+y,1/2-z
3 -x,-y,-z
4 x,1/2-y,1/2+z
_cell_length_a                   11.078(7)
_cell_length_b                   9.869(7)
_cell_length_c                   17.945(8)
_cell_angle_alpha                90
_cell_angle_beta                 107.27(5)
_cell_angle_gamma                90
_cell_volume                     1873.46
loop_
_atom_site_label
_atom_site_type_symbol
_atom_site_fract_x
_atom_site_fract_y
_atom_site_fract_z
Bi1 Bi 0.97101(3) 0.20346(3) 0.76681(1)
O1 O 0.8408(7) -0.2356(8) 0.8391(4)
O2 O 1.0162(6) 0.0570(6) 0.8782(3)
O3 O 0.8989(6) 0.4041(6) 0.6817(3)
N1 N 0.9423(7) -0.1573(8) 0.9580(4)
C1 C 1.0572(8) -0.0604(9) 0.8722(5)
C2 C 1.0597(9) -0.1589(9) 0.9382(5)
C3 C 0.8367(9) -0.197(1) 0.9036(5)
C4 C 1.1010(8) 0.3525(9) 0.8466(5)
C5 C 1.2112(8) 0.392(1) 0.8312(5)
C6 C 1.2946(9) 0.480(1) 0.8802(7)
C7 C 1.270(1) 0.525(1) 0.9466(7)
C8 C 1.163(1) 0.487(1) 0.9637(6)
C9 C 1.0771(9) 0.402(1) 0.9140(5)
C10 C 0.8026(8) 0.253(1) 0.8071(5)
C11 C 0.734(1) 0.146(1) 0.8243(6)
C12 C 0.628(1) 0.170(1) 0.8478(7)
C13 C 0.5883(9) 0.301(1) 0.8515(6)
C14 C 0.653(1) 0.408(1) 0.8337(6)
C15 C 0.7602(9) 0.386(1) 0.8112(6)
C16 C 0.7143(9) -0.189(1) 0.9215(5)
C17 C 0.605(1) -0.210(1) 0.8607(6)
C18 C 0.487(1) -0.203(1) 0.8725(8)
C19 C 0.479(1) -0.175(1) 0.9461(8)
C20 C 0.587(1) -0.154(1) 1.0064(6)
C21 C 0.7033(9) -0.161(1) 0.9946(6)
H1 H 0.940 -0.129 1.008
H2 H 1.127 -0.134 0.983
H3 H 1.074 -0.248 0.922
H4 H 1.230 0.358 0.786
H5 H 1.369 0.509 0.868
H6 H 1.328 0.584 0.981
H7 H 1.148 0.519 1.010
H8 H 1.002 0.377 0.925
H9 H 0.760 0.056 0.820
H10 H 0.583 0.097 0.861
H11 H 0.514 0.317 0.867
H12 H 0.624 0.498 0.837
H13 H 0.805 0.460 0.798
H14 H 0.610 -0.230 0.810
H15 H 0.413 -0.218 0.830
H16 H 0.398 -0.170 0.955
H17 H 0.581 -0.134 1.057
H18 H 0.777 -0.147 1.037
C1A C 0.9428(8) 0.4396(9) 0.6278(5)
O3A O 1.1011(6) -0.0959(6) 0.8183(3)
O2A O 0.9838(6) 0.5570(6) 0.6218(3)
C2A C 0.9403(9) 0.3411(9) 0.5618(5)
Bi1A Bi 1.02899(3) -0.29654(3) 0.73319(1)
Bi1A_2 Bi 1.02899(3) 0.70346(3) 0.73319(1)
N1A N 1.0577(7) 0.3427(8) 0.5420(4)
H2A H 0.873 0.366 0.517
H3A H 0.926 0.252 0.578
O2A_2 O 0.9838(6) -0.4430(6) 0.6218(3)
C4A C 0.8990(8) -0.1475(9) 0.6534(5)
C10A C 1.1974(8) -0.247(1) 0.6929(5)
C3A C 1.1633(9) 0.303(1) 0.5964(5)
H1A H 1.060 0.371 0.492
C5A C 0.7888(8) -0.108(1) 0.6688(5)
C9A C 0.9229(9) -0.098(1) 0.5860(5)
C11A C 1.266(1) -0.354(1) 0.6757(6)
C15A C 1.2398(9) -0.114(1) 0.6888(6)
O1A O 1.1592(7) 0.2644(8) 0.6609(4)
C16A C 1.2857(9) 0.311(1) 0.5785(5)
C6A C 0.7054(9) -0.020(1) 0.6198(7)
H4A H 0.770 -0.142 0.714
C8A C 0.837(1) -0.013(1) 0.5363(6)
H8A H 0.998 -0.123 0.575
C12A C 1.372(1) -0.330(1) 0.6522(7)
H9A H 1.240 -0.444 0.680
C14A C 1.347(1) -0.092(1) 0.6663(6)
H13A H 1.195 -0.040 0.702
C17A C 1.395(1) 0.290(1) 0.6393(6)
C21A C 1.2967(9) 0.339(1) 0.5054(6)
C7A C 0.730(1) 0.025(1) 0.5534(7)
H5A H 0.631 0.009 0.632
H7A H 0.852 0.019 0.490
C13A C 1.4117(9) -0.199(1) 0.6485(6)
H10A H 1.417 -0.403 0.639
H12A H 1.376 -0.002 0.663
C18A C 1.513(1) 0.297(1) 0.6275(8)
H14A H 1.390 0.270 0.690
C20A C 1.413(1) 0.346(1) 0.4936(6)
H18A H 1.223 0.353 0.463
H6A H 0.672 0.084 0.519
H11A H 1.486 -0.183 0.633
C19A C 1.521(1) 0.325(1) 0.5539(8)
H15A H 1.587 0.282 0.670
H17A H 1.419 0.366 0.443
H16A H 1.602 0.330 0.545
loop_
_geom_bond_atom_site_label_1
_geom_bond_atom_site_label_2
_geom_bond_site_symmetry_1
_geom_bond_site_symmetry_2
Bi1 O2 1_555 1_555
O1 C3 1_555 1_555
O2 C1 1_555 1_555
O3 Bi1 1_555 1_555
N1 C2 1_555 1_555
C1 C2 1_555 1_555
C2 H2 1_555 1_555
C3 N1 1_555 1_555
C4 Bi1 1_555 1_555
C5 C4 1_555 1_555
C6 C5 1_555 1_555
C7 C6 1_555 1_555
C8 C7 1_555 1_555
C9 C4 1_555 1_555
C10 Bi1 1_555 1_555
C11 C10 1_555 1_555
C12 C11 1_555 1_555
C13 C12 1_555 1_555
C14 C13 1_555 1_555
C15 C10 1_555 1_555
C16 C3 1_555 1_555
C17 C16 1_555 1_555
C18 C17 1_555 1_555
C19 C18 1_555 1_555
C20 C19 1_555 1_555
C21 C16 1_555 1_555
H1 N1 1_555 1_555
H3 C2 1_555 1_555
H4 C5 1_555 1_555
H5 C6 1_555 1_555
H6 C7 1_555 1_555
H7 C8 1_555 1_555
H8 C9 1_555 1_555
H9 C11 1_555 1_555
H10 C12 1_555 1_555
H11 C13 1_555 1_555
H12 C14 1_555 1_555
H13 C15 1_555 1_555
H14 C17 1_555 1_555
H15 C18 1_555 1_555
H16 C19 1_555 1_555
H17 C20 1_555 1_555
H18 C21 1_555 1_555
C1A O3 1_555 1_555
O3A C1 1_555 1_555
O2A C1A 1_555 1_555
C2A C1A 1_555 1_555
Bi1A O3A 1_555 1_555
Bi1A_2 O2A 1_555 1_555
N1A C2A 1_555 1_555
H2A C2A 1_555 1_555
H3A C2A 1_555 1_555
O2A_2 Bi1A 1_555 1_555
C4A Bi1A 1_555 1_555
C10A Bi1A 1_555 1_555
C3A N1A 1_555 1_555
H1A N1A 1_555 1_555
C5A C4A 1_555 1_555
C9A C4A 1_555 1_555
C11A C10A 1_555 1_555
C15A C10A 1_555 1_555
O1A C3A 1_555 1_555
C16A C3A 1_555 1_555
C6A C5A 1_555 1_555
H4A C5A 1_555 1_555
C8A C9A 1_555 1_555
H8A C9A 1_555 1_555
C12A C11A 1_555 1_555
H9A C11A 1_555 1_555
C14A C15A 1_555 1_555
H13A C15A 1_555 1_555
C17A C16A 1_555 1_555
C21A C16A 1_555 1_555
C7A C6A 1_555 1_555
H5A C6A 1_555 1_555
H7A C8A 1_555 1_555
C13A C12A 1_555 1_555
H10A C12A 1_555 1_555
H12A C14A 1_555 1_555
C18A C17A 1_555 1_555
H14A C17A 1_555 1_555
C20A C21A 1_555 1_555
H18A C21A 1_555 1_555
H6A C7A 1_555 1_555
H11A C13A 1_555 1_555
C19A C18A 1_555 1_555
H15A C18A 1_555 1_555
H17A C20A 1_555 1_555
H16A C19A 1_555 1_555
C8 C9 1_555 1_555
C14 C15 1_555 1_555
C20 C21 1_555 1_555
C8A C7A 1_555 1_555
C14A C13A 1_555 1_555
C20A C19A 1_555 1_555

#END
