
#######################################################################
#
#                 Cambridge Crystallographic Data Centre
#                                CCDC 
#
#######################################################################
#
# If this CIF has been generated from an entry in the Cambridge 
# Structural Database, then it will include bibliographic, chemical, 
# crystal, experimental, refinement or atomic coordinate data resulting 
# from the CCDC's data processing and validation procedures.
#
#######################################################################

data_GEMKOA
_symmetry_cell_setting           triclinic
_symmetry_space_group_name_H-M   'P -1'
_symmetry_Int_Tables_number      2
_space_group_name_Hall           '-P 1'
loop_
_symmetry_equiv_pos_site_id
_symmetry_equiv_pos_as_xyz
1 x,y,z
2 -x,-y,-z
_cell_length_a                   9.465(2)
_cell_length_b                   9.703(2)
_cell_length_c                   12.060(2)
_cell_angle_alpha                77.26(3)
_cell_angle_beta                 70.37(3)
_cell_angle_gamma                67.14(3)
_cell_volume                     956.085
loop_
_atom_site_label
_atom_site_type_symbol
_atom_site_fract_x
_atom_site_fract_y
_atom_site_fract_z
Cu1 Cu 0.5000 1.0000 -0.5000
N1 N 0.50049(18) 0.82445(15) -0.15698(13)
N2 N 0.47223(18) 0.95764(16) -0.32519(13)
N3 N -0.02520(18) 0.72688(16) 0.42885(13)
N4 N -0.26433(17) 0.89593(16) 0.47629(13)
C1 C 0.2173(2) 0.63471(19) 0.26043(16)
C2 C 0.5143(2) 0.82126(19) -0.27035(15)
H1 H 0.5493 0.7336 -0.3060
C3 C 0.2776(2) 0.69405(19) 0.04832(16)
H2 H 0.2465 0.7166 -0.0208
C4 C 0.1719(2) 0.66971(19) 0.15584(16)
H3 H 0.0700 0.6767 0.1585
C5 C 0.4300(2) 0.68504(18) 0.04278(16)
C6 C 0.3671(2) 0.6291(2) 0.25509(17)
H4 H 0.3976 0.6083 0.3244
C7 C 0.4455(3) 0.9725(2) -0.13805(18)
H5 H 0.4242 1.0098 -0.0673
C8 C -0.1721(2) 0.7801(2) 0.41483(16)
H6 H -0.2050 0.7407 0.3681
C9 C 0.1072(2) 0.5957(2) 0.37660(17)
H7 H 0.0631 0.5272 0.3642
H8 H 0.1693 0.5435 0.4325
C10 C 0.4732(2) 0.6543(2) 0.14705(17)
H9 H 0.5738 0.6504 0.1448
C11 C 0.5535(2) 0.6935(2) -0.07400(17)
H10 H 0.6472 0.6951 -0.0589
H11 H 0.5849 0.6031 -0.1112
C12 C -0.0225(2) 0.8131(2) 0.50317(18)
H12 H 0.0639 0.8026 0.5288
C13 C 0.4280(3) 1.0539(2) -0.24186(17)
H13 H 0.3919 1.1583 -0.2549
C14 C -0.1705(2) 0.9168(2) 0.53199(18)
H14 H -0.2036 0.9908 0.5819
O3 O 0.4990(3) 0.7212(2) -0.50341(17)
H20 H 0.561(4) 0.654(4) -0.534(3)
H21 H 0.432(4) 0.685(3) -0.470(3)
Cu1_2 Cu -0.5000 1.0000 0.5000
N1A N -0.50049(18) 1.17555(15) 0.15698(13)
N2A N 0.52777(18) 1.04236(16) -0.67481(13)
N2A_2 N -0.47223(18) 1.04236(16) 0.32519(13)
N3A N 0.02520(18) 1.27312(16) -0.42885(13)
N4_2 N 0.73567(17) 0.89593(16) -0.52371(13)
N4A N 0.26433(17) 1.10407(16) -0.47629(13)
C1A C -0.2173(2) 1.36529(19) -0.26043(16)
C2A C -0.5143(2) 1.17874(19) 0.27035(15)
H1A H -0.5493 1.2664 0.3060
C3A C -0.2776(2) 1.30595(19) -0.04832(16)
H2A H -0.2465 1.2834 0.0208
C4A C -0.1719(2) 1.33029(19) -0.15584(16)
H3A H -0.0700 1.3233 -0.1585
C5A C -0.4300(2) 1.31496(18) -0.04278(16)
C6A C -0.3671(2) 1.3709(2) -0.25509(17)
H4A H -0.3976 1.3917 -0.3244
C7A C -0.4455(3) 1.0275(2) 0.13805(18)
H5A H -0.4242 0.9902 0.0673
C8A C 0.1721(2) 1.2199(2) -0.41483(16)
H6A H 0.2050 1.2593 -0.3681
C9A C -0.1072(2) 1.4043(2) -0.37660(17)
H7A H -0.0631 1.4728 -0.3642
H8A H -0.1693 1.4565 -0.4325
C10A C -0.4732(2) 1.3457(2) -0.14705(17)
H9A H -0.5738 1.3496 -0.1448
C11A C -0.5535(2) 1.3065(2) 0.07400(17)
H10A H -0.6472 1.3049 0.0589
H11A H -0.5849 1.3969 0.1112
C12A C 0.0225(2) 1.1869(2) -0.50317(18)
H12A H -0.0639 1.1974 -0.5288
C13A C -0.4280(3) 0.9461(2) 0.24186(17)
H13A H -0.3919 0.8417 0.2549
C14A C 0.1705(2) 1.0832(2) -0.53199(18)
H14A H 0.2036 1.0092 -0.5819
O3A O 0.5010(3) 1.2788(2) -0.49659(17)
H20A H 0.439(4) 1.346(4) -0.466(3)
H21A H 0.568(4) 1.315(3) -0.530(3)
O1 O 0.71143(19) 0.43813(18) 0.40161(14)
C15 C 0.7916(2) 0.4636(2) 0.29833(18)
C16 C 0.8854(2) 0.33290(19) 0.22381(16)
O2 O 0.8013(2) 0.58895(16) 0.25190(15)
C17 C 0.9966(2) 0.3501(2) 0.11797(18)
H15 H 1.0134 0.4417 0.0937
C18 C 0.8627(2) 0.1948(2) 0.25850(18)
H16 H 0.7885 0.1808 0.3295
C19 C 1.0835(3) 0.2334(2) 0.04716(19)
H17 H 1.1574 0.2470 -0.0242
C20 C 1.0599(3) 0.0973(2) 0.0831(2)
H18 H 1.1185 0.0182 0.0362
C21 C 0.9497(3) 0.0783(2) 0.1882(2)
H19 H 0.9336 -0.0136 0.2121
loop_
_geom_bond_atom_site_label_1
_geom_bond_atom_site_label_2
_geom_bond_site_symmetry_1
_geom_bond_site_symmetry_2
Cu1 N2 1_555 1_555
N1 C2 1_555 1_555
N2 C2 1_555 1_555
N3 C8 1_555 1_555
N4 C8 1_555 1_555
C1 C4 1_555 1_555
C2 H1 1_555 1_555
C3 H2 1_555 1_555
C4 C3 1_555 1_555
H3 C4 1_555 1_555
C5 C3 1_555 1_555
C6 C1 1_555 1_555
H4 C6 1_555 1_555
C7 N1 1_555 1_555
H5 C7 1_555 1_555
C8 H6 1_555 1_555
C9 N3 1_555 1_555
H7 C9 1_555 1_555
H8 C9 1_555 1_555
C10 C5 1_555 1_555
H9 C10 1_555 1_555
C11 N1 1_555 1_555
H10 C11 1_555 1_555
H11 C11 1_555 1_555
C12 N3 1_555 1_555
H12 C12 1_555 1_555
C13 N2 1_555 1_555
H13 C13 1_555 1_555
C14 N4 1_555 1_555
H14 C14 1_555 1_555
O1 C15 1_555 1_555
C15 C16 1_555 1_555
C16 C17 1_555 1_555
O2 C15 1_555 1_555
C17 H15 1_555 1_555
C18 C16 1_555 1_555
H16 C18 1_555 1_555
C19 C17 1_555 1_555
H17 C19 1_555 1_555
C20 C19 1_555 1_555
H18 C20 1_555 1_555
C21 C18 1_555 1_555
H19 C21 1_555 1_555
O3 Cu1 1_555 1_555
H20 O3 1_555 1_555
H21 O3 1_555 1_555
Cu1_2 N4 1_555 1_555
N1A C2A 1_555 1_555
N2A Cu1 1_555 1_555
N2A_2 Cu1_2 1_555 1_555
N3A C8A 1_555 1_555
N4_2 Cu1 1_555 1_555
N4A Cu1 1_555 1_555
C1A C4A 1_555 1_555
C2A N2A_2 1_555 1_555
H1A C2A 1_555 1_555
C3A H2A 1_555 1_555
C4A C3A 1_555 1_555
H3A C4A 1_555 1_555
C5A C3A 1_555 1_555
C6A C1A 1_555 1_555
H4A C6A 1_555 1_555
C7A N1A 1_555 1_555
H5A C7A 1_555 1_555
C8A N4A 1_555 1_555
H6A C8A 1_555 1_555
C9A N3A 1_555 1_555
H7A C9A 1_555 1_555
H8A C9A 1_555 1_555
C10A C5A 1_555 1_555
H9A C10A 1_555 1_555
C11A N1A 1_555 1_555
H10A C11A 1_555 1_555
H11A C11A 1_555 1_555
C12A N3A 1_555 1_555
H12A C12A 1_555 1_555
C13A N2A_2 1_555 1_555
H13A C13A 1_555 1_555
C14A N4A 1_555 1_555
H14A C14A 1_555 1_555
O3A Cu1 1_555 1_555
H20A O3A 1_555 1_555
H21A O3A 1_555 1_555
C1 C9 1_555 1_555
C5 C11 1_555 1_555
C6 C10 1_555 1_555
C7 C13 1_555 1_555
C12 C14 1_555 1_555
C20 C21 1_555 1_555
C1A C9A 1_555 1_555
C5A C11A 1_555 1_555
C6A C10A 1_555 1_555
C7A C13A 1_555 1_555
C12A C14A 1_555 1_555

#END
