
#######################################################################
#
#                 Cambridge Crystallographic Data Centre
#                                CCDC 
#
#######################################################################
#
# If this CIF has been generated from an entry in the Cambridge 
# Structural Database, then it will include bibliographic, chemical, 
# crystal, experimental, refinement or atomic coordinate data resulting 
# from the CCDC's data processing and validation procedures.
#
#######################################################################

data_GEMQAS
_symmetry_cell_setting           triclinic
_symmetry_space_group_name_H-M   'P -1'
_symmetry_Int_Tables_number      2
_space_group_name_Hall           '-P 1'
loop_
_symmetry_equiv_pos_site_id
_symmetry_equiv_pos_as_xyz
1 x,y,z
2 -x,-y,-z
_cell_length_a                   9.882(5)
_cell_length_b                   11.505(5)
_cell_length_c                   11.625(5)
_cell_angle_alpha                64.261(5)
_cell_angle_beta                 89.834(5)
_cell_angle_gamma                77.205(5)
_cell_volume                     1154.41
loop_
_atom_site_label
_atom_site_type_symbol
_atom_site_fract_x
_atom_site_fract_y
_atom_site_fract_z
Co1 Co 0.11574(4) 0.34565(3) 0.10828(3)
O1 O 0.3267(3) 0.3433(3) 0.1163(2)
O3 O 0.2083(2) 0.4647(3) 0.2009(3)
O4 O 0.9224(2) 0.4513(2) 0.1014(2)
O5 O 0.8312(3) 0.2896(2) 0.1064(2)
O6 O 0.4746(4) 0.6539(3) 0.4101(3)
O7 O 0.6931(5) 0.6261(6) 0.4024(6)
N1 N 0.1277(2) 0.2441(2) -0.0009(2)
N2 N 0.0482(3) 0.1721(2) -0.1306(2)
N3 N -0.1320(2) -0.1730(2) -0.2884(2)
N4 N -0.1210(3) 0.0389(2) -0.3985(2)
N5 N 0.5821(5) 0.6138(4) 0.3738(4)
C1 C 0.0305(3) 0.2683(3) -0.0917(3)
H3 H -0.0428 0.3442 -0.1253
C2 C 0.1668(3) 0.0755(3) -0.0589(3)
C3 C 0.2321(4) -0.0479(3) -0.0546(3)
H4 H 0.1983 -0.0791 -0.1075
C4 C 0.3481(4) -0.1200(3) 0.0316(4)
H5 H 0.3943 -0.2023 0.0373
C5 C 0.3994(4) -0.0735(4) 0.1115(4)
H6 H 0.4792 -0.1255 0.1681
C6 C 0.3349(3) 0.0471(3) 0.1088(3)
H7 H 0.3689 0.0771 0.1626
C7 C 0.2166(3) 0.1217(3) 0.0216(3)
C8 C -0.0493(3) 0.1671(3) -0.2222(3)
H8 H -0.1291 0.2429 -0.2483
H9 H -0.0827 0.0870 -0.1802
C9 C 0.0170(3) 0.1686(3) -0.3410(3)
H10 H 0.0526 0.2476 -0.3818
H11 H 0.0954 0.0916 -0.3152
C10 C -0.0846(3) 0.1671(3) -0.4372(3)
H12 H -0.1695 0.2351 -0.4514
H13 H -0.0446 0.1905 -0.5182
C11 C -0.0755(3) -0.0773(3) -0.2930(3)
H14 H -0.0101 -0.0893 -0.2289
C12 C -0.2212(3) -0.1150(3) -0.4022(3)
C13 C -0.3050(3) -0.1660(3) -0.4554(3)
H15 H -0.3102 -0.2542 -0.4123
C14 C -0.3797(4) -0.0825(3) -0.5729(3)
H16 H -0.4361 -0.1152 -0.6094
C15 C -0.3733(4) 0.0499(3) -0.6391(3)
H17 H -0.4262 0.1036 -0.7180
C16 C -0.2906(3) 0.1029(3) -0.5903(3)
H18 H -0.2853 0.1909 -0.6346
C17 C -0.2153(3) 0.0180(3) -0.4713(3)
C18 C 0.4516(3) 0.4522(3) 0.1971(3)
C19 C 0.4542(3) 0.5201(3) 0.2694(3)
H19 H 0.3742 0.5474 0.3025
C20 C 0.5787(4) 0.5466(3) 0.2917(3)
C21 C 0.6993(3) 0.5115(3) 0.2419(3)
H20 H 0.7805 0.5338 0.2560
C22 C 0.6958(3) 0.4421(3) 0.1701(3)
C23 C 0.5722(3) 0.4120(3) 0.1499(3)
H21 H 0.5705 0.3635 0.1036
C24 C 0.3191(3) 0.4182(4) 0.1696(3)
C25 C 0.8249(3) 0.3893(3) 0.1217(3)
Co1_2 Co 1.11574(4) 0.34565(3) 0.10828(3)
Co1A Co -0.11574(4) -0.34565(3) -0.10828(3)
O4_2 O -0.0776(2) 0.4513(2) 0.1014(2)
N3A N 0.1320(2) 0.1730(2) 0.2884(2)
O2 O 0.0341(9) 0.4786(8) 0.3939(8)
H1 H -0.0241 0.4312 0.4049
H2 H 0.1072 0.4629 0.3591
loop_
_geom_bond_atom_site_label_1
_geom_bond_atom_site_label_2
_geom_bond_site_symmetry_1
_geom_bond_site_symmetry_2
Co1 O1 1_555 1_555
O1 C24 1_555 1_555
O2 H1 1_555 1_555
H2 O2 1_555 1_555
O3 Co1 1_555 1_555
O4 C25 1_555 1_555
O5 C25 1_555 1_555
O6 N5 1_555 1_555
O7 N5 1_555 1_555
N1 Co1 1_555 1_555
N2 C1 1_555 1_555
N3 C11 1_555 1_555
N4 C10 1_555 1_555
N5 C20 1_555 1_555
C1 N1 1_555 1_555
H3 C1 1_555 1_555
C2 N2 1_555 1_555
C3 C2 1_555 1_555
H4 C3 1_555 1_555
C4 C3 1_555 1_555
H5 C4 1_555 1_555
C5 C4 1_555 1_555
H6 C5 1_555 1_555
C6 C5 1_555 1_555
H7 C6 1_555 1_555
C7 N1 1_555 1_555
C8 N2 1_555 1_555
H8 C8 1_555 1_555
H9 C8 1_555 1_555
C9 C8 1_555 1_555
H10 C9 1_555 1_555
H11 C9 1_555 1_555
C10 C9 1_555 1_555
H12 C10 1_555 1_555
H13 C10 1_555 1_555
C11 N4 1_555 1_555
H14 C11 1_555 1_555
C12 N3 1_555 1_555
C13 C12 1_555 1_555
H15 C13 1_555 1_555
C14 C13 1_555 1_555
H16 C14 1_555 1_555
C15 C14 1_555 1_555
H17 C15 1_555 1_555
C16 C15 1_555 1_555
H18 C16 1_555 1_555
C17 N4 1_555 1_555
C18 C19 1_555 1_555
C19 H19 1_555 1_555
C20 C19 1_555 1_555
C21 C20 1_555 1_555
H20 C21 1_555 1_555
C22 C21 1_555 1_555
C23 C18 1_555 1_555
H21 C23 1_555 1_555
C24 O3 1_555 1_555
C25 C22 1_555 1_555
Co1_2 O4 1_555 1_555
Co1A N3 1_555 1_555
O4_2 Co1 1_555 1_555
N3A Co1 1_555 1_555
C2 C7 1_555 1_555
C6 C7 1_555 1_555
C12 C17 1_555 1_555
C16 C17 1_555 1_555
C18 C24 1_555 1_555
C22 C23 1_555 1_555

#END
