
#######################################################################
#
#                 Cambridge Crystallographic Data Centre
#                                CCDC 
#
#######################################################################
#
# If this CIF has been generated from an entry in the Cambridge 
# Structural Database, then it will include bibliographic, chemical, 
# crystal, experimental, refinement or atomic coordinate data resulting 
# from the CCDC's data processing and validation procedures.
#
#######################################################################

data_GEMQEW
_symmetry_cell_setting           triclinic
_symmetry_space_group_name_H-M   'P -1'
_symmetry_Int_Tables_number      2
_space_group_name_Hall           '-P 1'
loop_
_symmetry_equiv_pos_site_id
_symmetry_equiv_pos_as_xyz
1 x,y,z
2 -x,-y,-z
_cell_length_a                   9.566(5)
_cell_length_b                   10.073(5)
_cell_length_c                   13.450(5)
_cell_angle_alpha                72.470(5)
_cell_angle_beta                 84.166(5)
_cell_angle_gamma                74.869(5)
_cell_volume                     1192.61
loop_
_atom_site_label
_atom_site_type_symbol
_atom_site_fract_x
_atom_site_fract_y
_atom_site_fract_z
Ni1 Ni 0.94518(2) 0.09791(2) 0.165319(16)
O1 O 0.90335(14) 0.24261(12) 0.24598(10)
O2 O 1.04492(15) 0.20667(15) 0.03187(11)
O3 O 0.9326(2) 0.42580(15) 0.10928(11)
O4 O 0.7761(3) 0.3595(2) 0.58590(15)
O5 O 0.7650(3) 0.5664(2) 0.59361(15)
O6 O 0.96383(14) 0.88024(13) 0.14379(9)
O7 O 0.87456(14) 0.94085(12) 0.28522(10)
N1 N 1.15570(16) 0.01840(16) 0.21746(12)
N2 N 1.39072(17) -0.08217(18) 0.20299(12)
N3 N 1.25228(16) -0.18424(16) -0.08720(12)
N4 N 1.40356(17) -0.30052(18) 0.04443(12)
N5 N 0.7838(2) 0.4808(2) 0.54530(14)
C1 C 1.2633(2) -0.0176(2) 0.15497(15)
H1 H 1.2529 -0.0003 0.0839
C2 C 1.2168(2) -0.02250(19) 0.31491(14)
C3 C 1.1561(2) -0.0032(2) 0.40922(16)
H2 H 1.0585 0.0408 0.4154
C4 C 1.2455(3) -0.0517(3) 0.49334(18)
H3 H 1.2078 -0.0402 0.5576
C5 C 1.3924(3) -0.1179(3) 0.48373(18)
H4 H 1.4494 -0.1506 0.5424
C6 C 1.4550(2) -0.1363(3) 0.39139(17)
H5 H 1.5528 -0.1794 0.3855
C7 C 1.3643(2) -0.0870(2) 0.30689(15)
C8 C 1.5266(2) -0.1414(2) 0.15496(16)
H6 H 1.6042 -0.1130 0.1780
H7 H 1.5209 -0.1007 0.0799
C9 C 1.5633(2) -0.3034(2) 0.18061(17)
H8 H 1.5800 -0.3435 0.2548
H9 H 1.6532 -0.3341 0.1443
C10 C 1.4494(2) -0.3658(2) 0.15279(16)
H10 H 1.4880 -0.4682 0.1643
H11 H 1.3655 -0.3524 0.1990
C11 C 1.2662(2) -0.2335(2) 0.01449(15)
H12 H 1.1887 -0.2232 0.0615
C12 C 1.4879(2) -0.2969(2) -0.04600(15)
C13 C 1.6353(2) -0.3496(2) -0.06433(18)
H13 H 1.6985 -0.4001 -0.0099
C14 C 1.6822(2) -0.3233(3) -0.16642(19)
H14 H 1.7798 -0.3563 -0.1816
C15 C 1.5876(2) -0.2481(3) -0.24867(18)
H15 H 1.6241 -0.2318 -0.3169
C16 C 1.4416(2) -0.1975(2) -0.23105(16)
H16 H 1.3788 -0.1486 -0.2859
C17 C 1.3922(2) -0.22275(19) -0.12791(15)
C18 C 0.9120(2) 0.37000(18) 0.20342(14)
C19 C 0.89579(19) 0.46468(18) 0.27475(14)
C20 C 0.8516(2) 0.42355(19) 0.37859(15)
H17 H 0.8361 0.3325 0.4096
C21 C 0.8311(2) 0.5224(2) 0.43479(14)
C22 C 0.8516(2) 0.65937(19) 0.39226(15)
H18 H 0.8356 0.7232 0.4321
C23 C 0.89673(19) 0.69898(18) 0.28850(14)
C24 C 0.92062(19) 0.60045(18) 0.23192(14)
H19 H 0.9543 0.6260 0.1632
C25 C 0.91351(19) 0.84856(18) 0.23647(14)
H20 H 1.014(3) 0.293(3) 0.034(2)
H21 H 1.040(3) 0.196(3) -0.027(2)
Ni1_2 Ni 0.94518(2) 1.09791(2) 0.165319(16)
Ni1A Ni 1.05482(2) -0.09791(2) -0.165319(16)
O6_2 O 0.96383(14) -0.11976(13) 0.14379(9)
O7_2 O 0.87456(14) -0.05915(12) 0.28522(10)
N3A N 0.74772(16) 0.18424(16) 0.08720(12)
loop_
_geom_bond_atom_site_label_1
_geom_bond_atom_site_label_2
_geom_bond_site_symmetry_1
_geom_bond_site_symmetry_2
Ni1 O1 1_555 1_555
O1 C18 1_555 1_555
O2 Ni1 1_555 1_555
O3 C18 1_555 1_555
O4 N5 1_555 1_555
O5 N5 1_555 1_555
O6 C25 1_555 1_555
O7 C25 1_555 1_555
N1 Ni1 1_555 1_555
N2 C1 1_555 1_555
N3 C11 1_555 1_555
N4 C10 1_555 1_555
N5 C21 1_555 1_555
C1 N1 1_555 1_555
H1 C1 1_555 1_555
C2 N1 1_555 1_555
C3 C2 1_555 1_555
H2 C3 1_555 1_555
C4 C3 1_555 1_555
H3 C4 1_555 1_555
C5 C4 1_555 1_555
H4 C5 1_555 1_555
C6 C5 1_555 1_555
H5 C6 1_555 1_555
C7 N2 1_555 1_555
C8 N2 1_555 1_555
H6 C8 1_555 1_555
H7 C8 1_555 1_555
C9 C8 1_555 1_555
H8 C9 1_555 1_555
H9 C9 1_555 1_555
C10 C9 1_555 1_555
H10 C10 1_555 1_555
H11 C10 1_555 1_555
C11 N4 1_555 1_555
H12 C11 1_555 1_555
C12 N4 1_555 1_555
C13 C12 1_555 1_555
H13 C13 1_555 1_555
C14 C13 1_555 1_555
H14 C14 1_555 1_555
C15 C14 1_555 1_555
H15 C15 1_555 1_555
C16 C15 1_555 1_555
H16 C16 1_555 1_555
C17 N3 1_555 1_555
C18 C19 1_555 1_555
C19 C20 1_555 1_555
C20 H17 1_555 1_555
C21 C20 1_555 1_555
C22 C21 1_555 1_555
H18 C22 1_555 1_555
C23 C22 1_555 1_555
C24 C19 1_555 1_555
H19 C24 1_555 1_555
C25 C23 1_555 1_555
H20 O2 1_555 1_555
H21 O2 1_555 1_555
Ni1_2 O6 1_555 1_555
Ni1A N3 1_555 1_555
O6_2 Ni1 1_555 1_555
O7_2 Ni1 1_555 1_555
N3A Ni1 1_555 1_555
O7 Ni1_2 1_555 1_555
C2 C7 1_555 1_555
C6 C7 1_555 1_555
C12 C17 1_555 1_555
C16 C17 1_555 1_555
C23 C24 1_555 1_555

#END
