
#######################################################################
#
#                 Cambridge Crystallographic Data Centre
#                                CCDC 
#
#######################################################################
#
# If this CIF has been generated from an entry in the Cambridge 
# Structural Database, then it will include bibliographic, chemical, 
# crystal, experimental, refinement or atomic coordinate data resulting 
# from the CCDC's data processing and validation procedures.
#
#######################################################################

data_GEMZAB
_symmetry_cell_setting           monoclinic
_symmetry_space_group_name_H-M   'C 2/c'
_symmetry_Int_Tables_number      15
_space_group_name_Hall           '-C 2yn'
loop_
_symmetry_equiv_pos_site_id
_symmetry_equiv_pos_as_xyz
1 x,y,z
2 -x,y,1/2-z
3 1/2+x,1/2+y,z
4 1/2-x,1/2+y,1/2-z
5 -x,-y,-z
6 x,-y,1/2+z
7 1/2-x,1/2-y,-z
8 1/2+x,1/2-y,1/2+z
_cell_length_a                   17.4758(13)
_cell_length_b                   22.170(2)
_cell_length_c                   14.0510(11)
_cell_angle_alpha                90
_cell_angle_beta                 97.660(8)
_cell_angle_gamma                90
_cell_volume                     5395.32
loop_
_atom_site_label
_atom_site_type_symbol
_atom_site_fract_x
_atom_site_fract_y
_atom_site_fract_z
Zn1 Zn 0.70071(6) 0.71762(5) 0.68990(8)
Zn2 Zn 0.77653(6) 0.59424(5) 0.64471(8)
Br1 Br 1.10462(5) 0.79772(5) 0.59288(7)
Br2 Br 0.37361(5) 0.49549(5) 0.61424(7)
O1 O 0.8022(3) 0.6827(3) 0.6534(4)
O2 O 0.6728(3) 0.6323(3) 0.6376(4)
O3 O 0.9237(3) 0.6141(3) 0.6433(5)
O4 O 0.6771(3) 0.5154(3) 0.6397(4)
N1 N 0.7443(4) 0.8017(3) 0.6658(5)
N2 N 0.5847(4) 0.7387(3) 0.6516(5)
N3 N 0.7131(5) 0.7038(4) 0.8309(5)
N4 N 0.7512(5) 0.6629(5) 0.9911(6)
N5 N 0.8791(6) 0.6405(6) 1.0807(9)
N6 N 0.8006(4) 0.5504(4) 0.5317(6)
N7 N 0.8639(5) 0.4909(4) 0.4187(6)
N8 N 0.8123(4) 0.4424(4) 0.2701(6)
C1 C 0.8677(4) 0.7100(4) 0.6423(6)
C2 C 0.9349(5) 0.6748(4) 0.6347(6)
C3 C 1.0036(5) 0.7003(4) 0.6206(6)
H1 H 1.0474 0.6759 0.6146
C4 C 1.0077(5) 0.7627(4) 0.6150(6)
C5 C 0.9457(5) 0.8002(5) 0.6207(6)
H2 H 0.9502 0.8427 0.6141
C6 C 0.8752(5) 0.7734(4) 0.6366(6)
C7 C 0.9836(6) 0.5738(5) 0.6223(7)
H3 H 0.9665 0.5320 0.6279
H4 H 1.0303 0.5809 0.6678
H5 H 0.9948 0.5811 0.5567
C8 C 0.8119(5) 0.8144(4) 0.6460(6)
H6 H 0.8219 0.8559 0.6363
C9 C 0.6932(5) 0.8536(4) 0.6786(6)
H7 H 0.7183 0.8913 0.6612
H8 H 0.6853 0.8564 0.7469
C10 C 0.6151(5) 0.8469(5) 0.6164(7)
H9 H 0.6234 0.8334 0.5514
H10 H 0.5893 0.8868 0.6099
C11 C 0.5622(5) 0.8017(4) 0.6587(7)
H11 H 0.5613 0.8116 0.7273
H12 H 0.5090 0.8066 0.6253
C12 C 0.5297(5) 0.7000(4) 0.6343(5)
H13 H 0.4790 0.7162 0.6227
C13 C 0.5351(5) 0.6347(4) 0.6303(6)
C14 C 0.4654(4) 0.6024(4) 0.6236(6)
H14 H 0.4175 0.6231 0.6202
C15 C 0.4674(5) 0.5408(4) 0.6221(6)
C16 C 0.5359(5) 0.5079(4) 0.6257(6)
H15 H 0.5354 0.4651 0.6235
C17 C 0.6046(5) 0.5398(4) 0.6326(6)
C18 C 0.6055(5) 0.6041(4) 0.6339(5)
C19 C 0.6826(6) 0.4508(4) 0.6350(7)
H16 H 0.6600 0.4328 0.6886
H17 H 0.7370 0.4390 0.6391
H18 H 0.6545 0.4365 0.5741
C20 C 0.7354(5) 0.6845(4) 0.9057(7)
C21 C 0.8204(7) 0.6513(5) 1.0340(8)
C22 C 0.8270(5) 0.5204(4) 0.4782(6)
C23 C 0.8324(5) 0.4656(4) 0.3413(6)
Zn2E Zn 0.77653(6) 0.40576(5) 0.14471(8)
N8E N 0.8123(4) 0.5576(4) 0.7701(6)
loop_
_geom_bond_atom_site_label_1
_geom_bond_atom_site_label_2
_geom_bond_site_symmetry_1
_geom_bond_site_symmetry_2
Zn1 O1 1_555 1_555
Zn2 O1 1_555 1_555
Br1 C4 1_555 1_555
Br2 C15 1_555 1_555
O1 C1 1_555 1_555
O2 Zn1 1_555 1_555
O3 C2 1_555 1_555
O4 Zn2 1_555 1_555
N1 Zn1 1_555 1_555
N2 Zn1 1_555 1_555
N3 Zn1 1_555 1_555
N4 C20 1_555 1_555
N5 C21 1_555 1_555
N6 Zn2 1_555 1_555
N7 C22 1_555 1_555
N8 C23 1_555 1_555
C1 C2 1_555 1_555
C2 C3 1_555 1_555
C3 H1 1_555 1_555
C4 C3 1_555 1_555
C5 C4 1_555 1_555
H2 C5 1_555 1_555
C6 C1 1_555 1_555
C7 O3 1_555 1_555
H3 C7 1_555 1_555
H4 C7 1_555 1_555
H5 C7 1_555 1_555
C8 N1 1_555 1_555
H6 C8 1_555 1_555
C9 N1 1_555 1_555
H7 C9 1_555 1_555
H8 C9 1_555 1_555
C10 C9 1_555 1_555
H9 C10 1_555 1_555
H10 C10 1_555 1_555
C11 N2 1_555 1_555
H11 C11 1_555 1_555
H12 C11 1_555 1_555
C12 N2 1_555 1_555
H13 C12 1_555 1_555
C13 C12 1_555 1_555
C14 C13 1_555 1_555
H14 C14 1_555 1_555
C15 C14 1_555 1_555
C16 C15 1_555 1_555
H15 C16 1_555 1_555
C17 O4 1_555 1_555
C18 O2 1_555 1_555
C19 O4 1_555 1_555
H16 C19 1_555 1_555
H17 C19 1_555 1_555
H18 C19 1_555 1_555
C20 N3 1_555 1_555
C21 N4 1_555 1_555
C22 N6 1_555 1_555
C23 N7 1_555 1_555
Zn2E N8 1_555 1_555
N8E Zn2 1_555 1_555
Zn2 O2 1_555 1_555
C5 C6 1_555 1_555
C6 C8 1_555 1_555
C10 C11 1_555 1_555
C13 C18 1_555 1_555
C16 C17 1_555 1_555
C17 C18 1_555 1_555

#END
