
#######################################################################
#
#                 Cambridge Crystallographic Data Centre
#                                CCDC 
#
#######################################################################
#
# If this CIF has been generated from an entry in the Cambridge 
# Structural Database, then it will include bibliographic, chemical, 
# crystal, experimental, refinement or atomic coordinate data resulting 
# from the CCDC's data processing and validation procedures.
#
#######################################################################

data_GEMZEF
_symmetry_cell_setting           orthorhombic
_symmetry_space_group_name_H-M   'F d d 2'
_symmetry_Int_Tables_number      43
_space_group_name_Hall           'F 2 -2d'
loop_
_symmetry_equiv_pos_site_id
_symmetry_equiv_pos_as_xyz
1 x,y,z
2 x,1/2+y,1/2+z
3 1/2+x,y,1/2+z
4 1/2+x,1/2+y,z
5 1/4-x,1/4+y,1/4+z
6 1/4-x,3/4+y,3/4+z
7 3/4-x,1/4+y,3/4+z
8 3/4-x,3/4+y,1/4+z
9 1/4+x,1/4-y,1/4+z
10 1/4+x,3/4-y,3/4+z
11 3/4+x,1/4-y,3/4+z
12 3/4+x,3/4-y,1/4+z
13 1/2-x,-y,1/2+z
14 1/2-x,1/2-y,z
15 -x,-y,z
16 -x,1/2-y,1/2+z
_cell_length_a                   32.349(5)
_cell_length_b                   27.916(5)
_cell_length_c                   18.025(5)
_cell_angle_alpha                90
_cell_angle_beta                 90
_cell_angle_gamma                90
_cell_volume                     16277.6
loop_
_atom_site_label
_atom_site_type_symbol
_atom_site_fract_x
_atom_site_fract_y
_atom_site_fract_z
O1 O 0.2621(2) 0.4395(3) 0.3497(4)
C1 C 0.2261(3) 0.4221(4) 0.3247(6)
C2 C 0.1892(3) 0.4461(4) 0.3402(7)
C3 C 0.1517(3) 0.4287(4) 0.3189(7)
C4 C 0.1500(3) 0.3855(4) 0.2837(6)
Br1 Br 0.09696(3) 0.35825(5) 0.25981(10)
C5 C 0.1847(3) 0.3608(4) 0.2652(7)
C6 C 0.2237(3) 0.3798(4) 0.2846(6)
C7 C 0.2588(3) 0.3529(4) 0.2579(6)
N1 N 0.2969(3) 0.3644(3) 0.2585(6)
C8 C 0.3256(3) 0.3322(4) 0.2214(7)
C9 C 0.3676(3) 0.3300(4) 0.2562(7)
C10 C 0.3937(3) 0.3735(4) 0.2477(7)
N2 N 0.3803(3) 0.4138(3) 0.2942(5)
C11 C 0.4084(3) 0.4418(4) 0.3184(6)
C12 C 0.4034(3) 0.4854(4) 0.3568(6)
C13 C 0.4405(3) 0.5127(4) 0.3677(6)
C14 C 0.4385(3) 0.5566(4) 0.3977(6)
Br2 Br 0.48810(3) 0.59304(4) 0.41253(9)
C15 C 0.4014(3) 0.5787(4) 0.4158(6)
C16 C 0.3651(3) 0.5520(4) 0.4051(6)
C17 C 0.3653(3) 0.5045(4) 0.3797(6)
O2 O 0.3308(2) 0.4804(3) 0.3756(4)
O3 O 0.3056(2) 0.5205(3) 0.5320(5)
C18 C 0.3049(3) 0.5668(4) 0.5477(7)
C19 C 0.2693(3) 0.5931(4) 0.5385(6)
C20 C 0.2683(3) 0.6414(5) 0.5502(7)
C21 C 0.3045(4) 0.6647(4) 0.5717(7)
Br3 Br 0.30461(4) 0.73159(5) 0.59069(10)
C22 C 0.3403(3) 0.6400(4) 0.5840(7)
C23 C 0.3412(3) 0.5904(4) 0.5738(7)
C24 C 0.3794(3) 0.5677(4) 0.5917(6)
N3 N 0.3872(3) 0.5230(4) 0.5974(6)
C25 C 0.4287(4) 0.5108(5) 0.6284(9)
C26 C 0.4490(5) 0.4699(5) 0.5834(12)
C27 C 0.4321(4) 0.4229(6) 0.5923(11)
N4 N 0.3910(3) 0.4179(4) 0.5549(7)
C28 C 0.3874(4) 0.3804(5) 0.5187(7)
C29 C 0.3498(3) 0.3613(4) 0.4863(6)
C30 C 0.3530(4) 0.3151(4) 0.4568(7)
C31 C 0.3185(3) 0.2941(4) 0.4281(7)
Br4 Br 0.32514(4) 0.23227(4) 0.38307(10)
C32 C 0.2804(4) 0.3140(4) 0.4320(7)
C33 C 0.2766(3) 0.3600(4) 0.4602(7)
C34 C 0.3115(3) 0.3866(4) 0.4854(7)
O4 O 0.3071(2) 0.4303(3) 0.5072(4)
N5 N 0.2549(3) 0.5454(4) 0.3799(6)
C35 C 0.2283(3) 0.5567(4) 0.3395(7)
N6 N 0.1971(3) 0.5725(4) 0.3026(6)
C36 C 0.1877(3) 0.5561(4) 0.2364(8)
N7 N 0.1753(3) 0.5456(4) 0.1788(6)
N8 N 0.2755(3) 0.5276(4) -0.0046(6)
C37 C 0.2853(3) 0.5320(4) 0.0564(8)
N9 N 0.2974(3) 0.5413(4) 0.1264(6)
C38 C 0.3032(3) 0.5042(4) 0.1664(7)
N10 N 0.3098(3) 0.4738(4) 0.2101(6)
Zn1 Zn 0.31739(3) 0.43074(5) 0.29724(9)
Zn2 Zn 0.27842(3) 0.48477(5) 0.43933(9)
Zn3 Zn 0.34392(4) 0.46897(5) 0.57548(10)
H1 H 0.1905 0.4750 0.3660
H2 H 0.1277 0.4459 0.3282
H3 H 0.1827 0.3318 0.2401
H4 H 0.2526 0.3232 0.2376
H5 H 0.3287 0.3423 0.1704
H6 H 0.3139 0.3003 0.2223
H7 H 0.3639 0.3242 0.3087
H8 H 0.3821 0.3033 0.2343
H9 H 0.4219 0.3653 0.2606
H10 H 0.3924 0.3838 0.1963
H11 H 0.4356 0.4324 0.3097
H12 H 0.4659 0.5000 0.3534
H13 H 0.4005 0.6099 0.4339
H14 H 0.3400 0.5667 0.4155
H15 H 0.2453 0.5775 0.5239
H16 H 0.2438 0.6584 0.5438
H17 H 0.3641 0.6561 0.5991
H18 H 0.4014 0.5882 0.6007
H19 H 0.4462 0.5391 0.6264
H20 H 0.4256 0.5006 0.6795
H21 H 0.4780 0.4686 0.5973
H22 H 0.4466 0.4781 0.5312
H23 H 0.4288 0.4167 0.6451
H24 H 0.4512 0.3999 0.5713
H25 H 0.4112 0.3625 0.5116
H26 H 0.3782 0.2991 0.4565
H27 H 0.2573 0.2972 0.4162
H28 H 0.2505 0.3739 0.4626
N7L N 0.3247(3) 0.4544(4) 0.6788(6)
N8L N 0.2245(3) 0.4724(4) 0.4954(6)
Zn2L Zn 0.22158(3) 0.51523(5) -0.06067(9)
Zn3L Zn 0.15608(4) 0.53103(5) 0.07548(10)
loop_
_geom_bond_atom_site_label_1
_geom_bond_atom_site_label_2
_geom_bond_site_symmetry_1
_geom_bond_site_symmetry_2
O1 C1 1_555 1_555
C1 C2 1_555 1_555
C2 C3 1_555 1_555
C3 C4 1_555 1_555
C4 Br1 1_555 1_555
C5 C4 1_555 1_555
C6 C1 1_555 1_555
C7 C6 1_555 1_555
N1 C7 1_555 1_555
C8 N1 1_555 1_555
C9 C8 1_555 1_555
C10 C9 1_555 1_555
N2 C10 1_555 1_555
C11 N2 1_555 1_555
C12 C11 1_555 1_555
C13 C12 1_555 1_555
C14 C13 1_555 1_555
Br2 C14 1_555 1_555
C15 C14 1_555 1_555
C16 C15 1_555 1_555
C17 C12 1_555 1_555
O2 C17 1_555 1_555
O3 C18 1_555 1_555
C18 C19 1_555 1_555
C19 C20 1_555 1_555
C20 C21 1_555 1_555
C21 Br3 1_555 1_555
C22 C21 1_555 1_555
C23 C18 1_555 1_555
C24 C23 1_555 1_555
N3 C24 1_555 1_555
C25 N3 1_555 1_555
C26 C25 1_555 1_555
C27 C26 1_555 1_555
N4 C27 1_555 1_555
C28 N4 1_555 1_555
C29 C28 1_555 1_555
C30 C29 1_555 1_555
C31 C30 1_555 1_555
Br4 C31 1_555 1_555
C32 C31 1_555 1_555
C33 C32 1_555 1_555
C34 C29 1_555 1_555
O4 C34 1_555 1_555
N5 C35 1_555 1_555
C35 N6 1_555 1_555
N6 C36 1_555 1_555
C36 N7 1_555 1_555
N7 Zn3L 1_555 1_555
N8 C37 1_555 1_555
C37 N9 1_555 1_555
N9 C38 1_555 1_555
C38 N10 1_555 1_555
N10 Zn1 1_555 1_555
Zn1 O1 1_555 1_555
Zn2 O1 1_555 1_555
Zn3 O3 1_555 1_555
H1 C2 1_555 1_555
H2 C3 1_555 1_555
H3 C5 1_555 1_555
H4 C7 1_555 1_555
H5 C8 1_555 1_555
H6 C8 1_555 1_555
H7 C9 1_555 1_555
H8 C9 1_555 1_555
H9 C10 1_555 1_555
H10 C10 1_555 1_555
H11 C11 1_555 1_555
H12 C13 1_555 1_555
H13 C15 1_555 1_555
H14 C16 1_555 1_555
H15 C19 1_555 1_555
H16 C20 1_555 1_555
H17 C22 1_555 1_555
H18 C24 1_555 1_555
H19 C25 1_555 1_555
H20 C25 1_555 1_555
H21 C26 1_555 1_555
H22 C26 1_555 1_555
H23 C27 1_555 1_555
H24 C27 1_555 1_555
H25 C28 1_555 1_555
H26 C30 1_555 1_555
H27 C32 1_555 1_555
H28 C33 1_555 1_555
N7L Zn3 1_555 1_555
N8L Zn2 1_555 1_555
Zn2L N8 1_555 1_555
C5 C6 1_555 1_555
N1 Zn1 1_555 1_555
N2 Zn1 1_555 1_555
C16 C17 1_555 1_555
O2 Zn1 1_555 1_555
O2 Zn2 1_555 1_555
O3 Zn2 1_555 1_555
C22 C23 1_555 1_555
N3 Zn3 1_555 1_555
N4 Zn3 1_555 1_555
C33 C34 1_555 1_555
O4 Zn2 1_555 1_555
O4 Zn3 1_555 1_555
N5 Zn2 1_555 1_555

#END
