
#######################################################################
#
#                 Cambridge Crystallographic Data Centre
#                                CCDC 
#
#######################################################################
#
# If this CIF has been generated from an entry in the Cambridge 
# Structural Database, then it will include bibliographic, chemical, 
# crystal, experimental, refinement or atomic coordinate data resulting 
# from the CCDC's data processing and validation procedures.
#
#######################################################################

data_GENCAE
_symmetry_cell_setting           cubic
_symmetry_space_group_name_H-M   'P 43 3 2'
_symmetry_Int_Tables_number      212
_space_group_name_Hall           'P 4acd 2ab 3'
loop_
_symmetry_equiv_pos_site_id
_symmetry_equiv_pos_as_xyz
1 x,y,z
2 3/4+x,3/4-z,1/4+y
3 1/4+x,3/4+z,3/4-y
4 1/4+z,3/4+y,3/4-x
5 1/2+y,1/2-z,-x
6 -z,1/2+x,1/2-y
7 3/4+z,3/4-y,1/4+x
8 3/4+y,3/4-x,1/4+z
9 1/2-z,-x,1/2+y
10 1/2+x,1/2-y,-z
11 3/4-y,1/4+x,3/4+z
12 3/4-x,1/4+z,3/4+y
13 -x,1/2+y,1/2-z
14 1/2-y,-z,1/2+x
15 1/2-x,-y,1/2+z
16 1/4-y,1/4-x,1/4-z
17 -y,1/2+z,1/2-x
18 1/4-x,1/4-z,1/4-y
19 1/4-z,1/4-y,1/4-x
20 1/2+z,1/2-x,-y
21 z,x,y
22 1/4+y,3/4+x,3/4-z
23 y,z,x
24 3/4-z,1/4+y,3/4+x
_cell_length_a                   15.492(2)
_cell_length_b                   15.492(2)
_cell_length_c                   15.492(2)
_cell_angle_alpha                90
_cell_angle_beta                 90
_cell_angle_gamma                90
_cell_volume                     3718.11
loop_
_atom_site_label
_atom_site_type_symbol
_atom_site_fract_x
_atom_site_fract_y
_atom_site_fract_z
Ru1 Ru 0.3750 0.1250 -0.1250
N1 N 0.2428(3) 0.1124(3) -0.1259(3)
C1 C 0.1857(4) 0.1758(4) -0.1293(5)
H1 H 0.2064 0.2322 -0.1289
C2 C 0.0980(4) 0.1638(6) -0.1334(5)
H2 H 0.0605 0.2106 -0.1363
C3 C 0.0670(4) 0.0805(6) -0.1330(5)
H3 H 0.0079 0.0699 -0.1356
C4 C 0.1252(5) 0.0124(4) -0.1287(4)
H4 H 0.1055 -0.0443 -0.1277
C5 C 0.2136(4) 0.0299(4) -0.1259(4)
N1U N 0.3624(3) -0.0072(3) -0.1241(3)
N1K N 0.5072(3) 0.1241(3) -0.1376(3)
N1M N 0.3876(3) 0.1259(3) -0.2572(3)
N1R N 0.3759(3) 0.1376(3) 0.0072(3)
N1S N 0.3741(3) 0.2572(3) -0.1124(3)
C1U C 0.4258(4) -0.0643(4) -0.1207(5)
C1K C 0.5643(4) 0.1207(5) -0.0742(4)
C1M C 0.3242(4) 0.1293(5) -0.3143(4)
C1R C 0.3793(5) 0.0742(4) 0.0643(4)
C1S C 0.3707(5) 0.3143(4) -0.1758(4)
H1U H 0.4822 -0.0436 -0.1211
H1K H 0.5436 0.1211 -0.0178
H1M H 0.2678 0.1289 -0.2936
H1R H 0.3789 0.0178 0.0436
H1S H 0.3711 0.2936 -0.2322
C2U C 0.4138(6) -0.1520(4) -0.1166(5)
C2K C 0.6520(4) 0.1166(5) -0.0862(6)
C2M C 0.3362(6) 0.1334(5) -0.4020(4)
C2R C 0.3834(5) 0.0862(6) 0.1520(4)
C2S C 0.3666(5) 0.4020(4) -0.1638(6)
H2U H 0.4606 -0.1895 -0.1137
H2K H 0.6895 0.1137 -0.0394
H2M H 0.2894 0.1363 -0.4395
H2R H 0.3863 0.0394 0.1895
H2S H 0.3637 0.4395 -0.2106
C3U C 0.3305(6) -0.1830(4) -0.1170(5)
C3K C 0.6830(4) 0.1170(5) -0.1695(6)
C3M C 0.4195(6) 0.1330(5) -0.4330(4)
C3R C 0.3830(5) 0.1695(6) 0.1830(4)
C3S C 0.3670(5) 0.4330(4) -0.0805(6)
H3U H 0.3199 -0.2421 -0.1144
H3K H 0.7421 0.1144 -0.1801
H3M H 0.4301 0.1356 -0.4921
H3R H 0.3856 0.1801 0.2421
H3S H 0.3644 0.4921 -0.0699
C4U C 0.2624(4) -0.1248(5) -0.1213(4)
C4K C 0.6248(5) 0.1213(4) -0.2376(4)
C4M C 0.4876(4) 0.1287(4) -0.3748(5)
C4R C 0.3787(4) 0.2376(4) 0.1248(5)
C4S C 0.3713(4) 0.3748(5) -0.0124(4)
H4U H 0.2057 -0.1445 -0.1223
H4K H 0.6445 0.1223 -0.2943
H4M H 0.5443 0.1277 -0.3945
H4R H 0.3777 0.2943 0.1445
H4S H 0.3723 0.3945 0.0443
C5U C 0.2799(4) -0.0364(4) -0.1241(4)
C5K C 0.5364(4) 0.1241(4) -0.2201(4)
C5M C 0.4701(4) 0.1259(4) -0.2864(4)
C5R C 0.3759(4) 0.2201(4) 0.0364(4)
C5S C 0.3741(4) 0.2864(4) -0.0299(4)
Mn1 Mn 0.1500 0.3500 -0.3500
O1 O 0.1359(3) 0.2109(3) -0.3556(3)
O2 O 0.0137(3) 0.3357(3) -0.3631(4)
C6 C 0.0620 0.1880 -0.3750
C7 C -0.0090 0.2590 -0.3750
Mn1A Mn -0.1000 0.1000 -0.4000
Mn1B Mn 0.4000 0.4000 -0.6000
Mn1G Mn 0.1000 0.6000 -0.1000
O1O O 0.0391(3) 0.1141(3) -0.3944(3)
O1M O 0.2891(3) 0.3556(3) -0.3641(3)
O1B O 0.3859(3) 0.3944(3) -0.4609(3)
O1S O 0.1444(3) 0.3641(3) -0.2109(3)
O1W O 0.1056(3) 0.4609(3) -0.1141(3)
O1A O -0.1141(3) 0.1056(3) -0.5391(3)
O1C O -0.1056(3) -0.0391(3) -0.3859(3)
O2O O -0.0857(3) 0.2363(3) -0.3869(4)
O2M O 0.1643(3) 0.3631(4) -0.4863(3)
O2B O 0.2637(3) 0.3869(4) -0.5857(3)
O2S O 0.1369(4) 0.4863(3) -0.3357(3)
O2W O 0.1131(4) 0.5857(3) -0.2363(3)
O2A O -0.2363(3) 0.1131(4) -0.4143(3)
O2C O -0.1131(4) 0.0857(3) -0.2637(3)
C6B C 0.3120 0.3750 -0.4380
C6S C 0.1250 0.4380 -0.1880
C7B C 0.2410 0.3750 -0.5090
C7S C 0.1250 0.5090 -0.2590
O3 O 0.1250 0.1250 0.1250
H5? H 0.11702(14) 0.0762(9) 0.1026(4)
H6? H 0.0810(8) 0.13172(12) 0.0985(5)
loop_
_geom_bond_atom_site_label_1
_geom_bond_atom_site_label_2
_geom_bond_site_symmetry_1
_geom_bond_site_symmetry_2
Ru1 N1 1_555 1_555
Mn1 O1 1_555 1_555
N1 C1 1_555 1_555
O1 C6 1_555 1_555
O2 Mn1 1_555 1_555
C1 H1 1_555 1_555
C2 C1 1_555 1_555
H2 C2 1_555 1_555
C3 C2 1_555 1_555
H3 C3 1_555 1_555
C4 C3 1_555 1_555
H4 C4 1_555 1_555
C5 N1 1_555 1_555
C6 C7 1_555 1_555
C7 O2 1_555 1_555
Mn1A O1O 1_555 1_555
Mn1B O1B 1_555 1_555
Mn1G O1W 1_555 1_555
N1U Ru1 1_555 1_555
N1K Ru1 1_555 1_555
N1M Ru1 1_555 1_555
N1R Ru1 1_555 1_555
N1S Ru1 1_555 1_555
O1O C6 1_555 1_555
O1M Mn1 1_555 1_555
O1B C6B 1_555 1_555
O1S Mn1 1_555 1_555
O1W C6S 1_555 1_555
O1A Mn1A 1_555 1_555
O1C Mn1A 1_555 1_555
O2O C7 1_555 1_555
O2M Mn1 1_555 1_555
O2B Mn1B 1_555 1_555
O2S Mn1 1_555 1_555
O2W Mn1G 1_555 1_555
O2A Mn1A 1_555 1_555
O2C Mn1A 1_555 1_555
C1U N1U 1_555 1_555
C1K N1K 1_555 1_555
C1M N1M 1_555 1_555
C1R N1R 1_555 1_555
C1S N1S 1_555 1_555
H1U C1U 1_555 1_555
H1K C1K 1_555 1_555
H1M C1M 1_555 1_555
H1R C1R 1_555 1_555
H1S C1S 1_555 1_555
C2U C1U 1_555 1_555
C2K C1K 1_555 1_555
C2M C1M 1_555 1_555
C2R C1R 1_555 1_555
C2S C1S 1_555 1_555
H2U C2U 1_555 1_555
H2K C2K 1_555 1_555
H2M C2M 1_555 1_555
H2R C2R 1_555 1_555
H2S C2S 1_555 1_555
C3U C2U 1_555 1_555
C3K C2K 1_555 1_555
C3M C2M 1_555 1_555
C3R C2R 1_555 1_555
C3S C2S 1_555 1_555
H3U C3U 1_555 1_555
H3K C3K 1_555 1_555
H3M C3M 1_555 1_555
H3R C3R 1_555 1_555
H3S C3S 1_555 1_555
C4U C3U 1_555 1_555
C4K C3K 1_555 1_555
C4M C3M 1_555 1_555
C4R C3R 1_555 1_555
C4S C3S 1_555 1_555
H4U C4U 1_555 1_555
H4K C4K 1_555 1_555
H4M C4M 1_555 1_555
H4R C4R 1_555 1_555
H4S C4S 1_555 1_555
C5U C5 1_555 1_555
C5K N1K 1_555 1_555
C5M N1M 1_555 1_555
C5R N1R 1_555 1_555
C5S N1S 1_555 1_555
C6B O1M 1_555 1_555
C6S O1S 1_555 1_555
C7B O2M 1_555 1_555
C7S O2S 1_555 1_555
C4 C5 1_555 1_555
Mn1A O2O 1_555 1_555
N1U C5U 1_555 1_555
O2B C7B 1_555 1_555
O2W C7S 1_555 1_555
C4U C5U 1_555 1_555
C4K C5K 1_555 1_555
C4M C5M 1_555 1_555
C4R C5R 1_555 1_555
C4S C5S 1_555 1_555
C5K C5M 1_555 1_555
C5R C5S 1_555 1_555
C6B C7B 1_555 1_555
C6S C7S 1_555 1_555

#END
