
#######################################################################
#
#                 Cambridge Crystallographic Data Centre
#                                CCDC 
#
#######################################################################
#
# If this CIF has been generated from an entry in the Cambridge 
# Structural Database, then it will include bibliographic, chemical, 
# crystal, experimental, refinement or atomic coordinate data resulting 
# from the CCDC's data processing and validation procedures.
#
#######################################################################

data_GENFOW
_symmetry_cell_setting           orthorhombic
_symmetry_space_group_name_H-M   'P b c n'
_symmetry_Int_Tables_number      60
_space_group_name_Hall           '-P 2n 2ab'
loop_
_symmetry_equiv_pos_site_id
_symmetry_equiv_pos_as_xyz
1 x,y,z
2 1/2-x,1/2-y,1/2+z
3 -x,y,1/2-z
4 1/2+x,1/2-y,-z
5 -x,-y,-z
6 1/2+x,1/2+y,1/2-z
7 x,-y,1/2+z
8 1/2-x,1/2+y,z
_cell_length_a                   13.3631(3)
_cell_length_b                   16.0393(2)
_cell_length_c                   24.0360(5)
_cell_angle_alpha                90
_cell_angle_beta                 90
_cell_angle_gamma                90
_cell_volume                     5151.75
loop_
_atom_site_label
_atom_site_type_symbol
_atom_site_fract_x
_atom_site_fract_y
_atom_site_fract_z
Tb1 Tb 0.755355(15) 0.555940(12) 0.378781(9)
Pt1 Pt 1.018140(13) 0.809250(9) 0.320044(7)
Cl1 Cl 0.92272(16) 0.72419(13) 0.63216(8)
C1 C 0.9084(4) 0.7318(3) 0.3418(2)
C2 C 0.5679(3) 0.4068(3) 0.3384(2)
C3 C 1.1307(4) 0.8847(3) 0.3011(2)
C4 C 1.1073(4) 0.7143(3) 0.3020(2)
C5 C 1.0005(4) 0.5025(3) 0.3624(3)
H1 H 0.9712 0.4739 0.3330
C6 C 1.1032(4) 0.5042(4) 0.3657(3)
H2 H 1.1423 0.4773 0.3392
C7 C 1.1457(4) 0.5459(4) 0.4084(3)
H3 H 1.2150 0.5478 0.4118
C8 C 1.0853(4) 0.5862(4) 0.4473(3)
H4 H 1.1141 0.6162 0.4763
C9 C 0.9831(3) 0.5812(3) 0.4427(2)
C10 C 0.9139(4) 0.6189(3) 0.4825(2)
C11 C 0.9487(4) 0.6539(3) 0.5321(2)
H5 H 1.0170 0.6568 0.5394
C12 C 0.8811(5) 0.6836(3) 0.5697(3)
C13 C 0.7808(5) 0.6787(3) 0.5590(2)
H6 H 0.7345 0.6985 0.5847
C14 C 0.7496(4) 0.6442(3) 0.5098(2)
C15 C 0.6420(4) 0.6345(3) 0.4960(2)
C16 C 0.5683(4) 0.6600(4) 0.5323(2)
H7 H 0.5854 0.6856 0.5657
C17 C 0.4684(4) 0.6473(4) 0.5189(3)
H8 H 0.4179 0.6641 0.5430
C18 C 0.4463(4) 0.6103(4) 0.4704(3)
H9 H 0.3801 0.5996 0.4609
C19 C 0.5233(4) 0.5882(3) 0.4344(3)
H10 H 0.5069 0.5648 0.4002
N1 N 0.8473(3) 0.6856(2) 0.35532(19)
N2 N 0.6171(3) 0.4623(2) 0.34929(18)
N3 N 1.1959(4) 0.9268(3) 0.2885(2)
N4 N 1.1615(4) 0.6620(3) 0.2901(2)
N5 N 0.9404(3) 0.5402(2) 0.39955(19)
N6 N 0.8154(3) 0.6148(2) 0.47149(16)
N7 N 0.6196(3) 0.5992(2) 0.44694(18)
N8 N 0.7851(3) 0.3857(2) 0.4199(2)
O1 O 0.8101(3) 0.4048(2) 0.37114(16)
O2 O 0.7506(2) 0.44409(19) 0.44956(16)
O3 O 0.7941(3) 0.3159(2) 0.4381(2)
O4 O 0.6420(3) 0.6395(2) 0.32704(16)
H11 H 0.6633 0.6621 0.2973
H12 H 0.5867 0.6563 0.3405
O5 O 0.8061(2) 0.53065(19) 0.28588(14)
H13 H 0.7792 0.4959 0.2638
H14 H 0.8229 0.5741 0.2679
Pt1G Pt 0.481860(13) 0.309250(9) 0.320044(7)
C2G C 0.9321(3) 0.9068(3) 0.3384(2)
O6 O 1.1655(4) 0.7109(3) 0.7191(2)
O7 O 0.5000 0.5784(6) 0.2500
O8 O 0.6251(12) 0.5884(7) 0.1799(6)
loop_
_geom_bond_atom_site_label_1
_geom_bond_atom_site_label_2
_geom_bond_site_symmetry_1
_geom_bond_site_symmetry_2
Tb1 N1 1_555 1_555
Pt1 C1 1_555 1_555
Cl1 C12 1_555 1_555
C1 N1 1_555 1_555
C2 N2 1_555 1_555
C3 Pt1 1_555 1_555
C4 Pt1 1_555 1_555
C5 H1 1_555 1_555
C6 C5 1_555 1_555
H2 C6 1_555 1_555
C7 C6 1_555 1_555
H3 C7 1_555 1_555
C8 C7 1_555 1_555
H4 C8 1_555 1_555
C9 C8 1_555 1_555
C10 C9 1_555 1_555
C11 C10 1_555 1_555
H5 C11 1_555 1_555
C12 C11 1_555 1_555
C13 C12 1_555 1_555
H6 C13 1_555 1_555
C14 C13 1_555 1_555
C15 C14 1_555 1_555
C16 C15 1_555 1_555
H7 C16 1_555 1_555
C17 C16 1_555 1_555
H8 C17 1_555 1_555
C18 C17 1_555 1_555
H9 C18 1_555 1_555
C19 C18 1_555 1_555
H10 C19 1_555 1_555
N2 Tb1 1_555 1_555
N3 C3 1_555 1_555
N4 C4 1_555 1_555
N5 Tb1 1_555 1_555
N6 Tb1 1_555 1_555
N7 Tb1 1_555 1_555
N8 O1 1_555 1_555
O1 Tb1 1_555 1_555
O2 Tb1 1_555 1_555
O3 N8 1_555 1_555
O4 Tb1 1_555 1_555
H11 O4 1_555 1_555
H12 O4 1_555 1_555
O5 Tb1 1_555 1_555
H13 O5 1_555 1_555
H14 O5 1_555 1_555
Pt1G C2 1_555 1_555
C2G Pt1 1_555 1_555
C5 N5 1_555 1_555
C9 N5 1_555 1_555
C10 N6 1_555 1_555
C14 N6 1_555 1_555
C15 N7 1_555 1_555
C19 N7 1_555 1_555
N8 O2 1_555 1_555

#END
