
#######################################################################
#
#                 Cambridge Crystallographic Data Centre
#                                CCDC 
#
#######################################################################
#
# If this CIF has been generated from an entry in the Cambridge 
# Structural Database, then it will include bibliographic, chemical, 
# crystal, experimental, refinement or atomic coordinate data resulting 
# from the CCDC's data processing and validation procedures.
#
#######################################################################

data_GENFIQ
_symmetry_cell_setting           orthorhombic
_symmetry_space_group_name_H-M   'P b c n'
_symmetry_Int_Tables_number      60
_space_group_name_Hall           '-P 2n 2ab'
loop_
_symmetry_equiv_pos_site_id
_symmetry_equiv_pos_as_xyz
1 x,y,z
2 1/2-x,1/2-y,1/2+z
3 -x,y,1/2-z
4 1/2+x,1/2-y,-z
5 -x,-y,-z
6 1/2+x,1/2+y,1/2-z
7 x,-y,1/2+z
8 1/2-x,1/2+y,z
_cell_length_a                   13.3306(2)
_cell_length_b                   15.9508(2)
_cell_length_c                   24.4272(4)
_cell_angle_alpha                90
_cell_angle_beta                 90
_cell_angle_gamma                90
_cell_volume                     5194.05
loop_
_atom_site_label
_atom_site_type_symbol
_atom_site_fract_x
_atom_site_fract_y
_atom_site_fract_z
Tb1 Tb 0.759798(13) 0.444262(11) 0.120252(8)
Pt1 Pt 0.482170(10) 0.687520(8) 0.180445(6)
O1 O 0.7515(2) 0.5575(2) 0.05115(15)
O2 O 0.8111(2) 0.59647(19) 0.12876(16)
O3 O 0.7925(3) 0.6885(2) 0.06433(19)
O4 O 0.8077(2) 0.46919(18) 0.21291(12)
H1 H 0.8288 0.4262 0.2293
H2 H 0.7627 0.4931 0.2316
O5 O 0.6457(2) 0.3593(2) 0.17112(15)
H3 H 0.6004 0.3779 0.1926
H4 H 0.6521 0.3071 0.1767
N1 N 0.6188(3) 0.5354(2) 0.14913(16)
N2 N 0.8500(3) 0.3134(2) 0.14348(15)
N3 N 0.3411(3) 0.8364(3) 0.21224(19)
N4 N 0.3087(3) 0.5670(3) 0.21501(18)
N5 N 0.7848(3) 0.6164(3) 0.0807(2)
N6 N 0.9455(3) 0.4620(2) 0.10296(18)
N7 N 0.8233(3) 0.3876(2) 0.03000(15)
N8 N 0.6269(3) 0.3989(2) 0.05271(15)
C1 C 0.5682(3) 0.5907(2) 0.16090(17)
C2 C 0.9099(3) 0.2666(2) 0.15750(17)
C3 C 0.3943(3) 0.7836(3) 0.19960(19)
C4 C 0.3718(3) 0.6105(3) 0.20161(18)
C5 C 1.0034(4) 0.5013(3) 0.1393(3)
H5 H 0.9725 0.5296 0.1680
C6 C 1.1066(4) 0.5020(4) 0.1367(3)
H6 H 1.1449 0.5295 0.1629
C7 C 1.1503(4) 0.4609(5) 0.0940(3)
H7 H 1.2198 0.4609 0.0906
C8 C 1.0931(4) 0.4196(4) 0.0559(3)
H8 H 1.1234 0.3905 0.0273
C9 C 0.9899(3) 0.4219(3) 0.0606(2)
C10 C 0.9234(4) 0.3829(3) 0.0204(2)
C11 C 0.9597(5) 0.3443(4) -0.0269(3)
H9 H 1.0284 0.3409 -0.0331
C12 C 0.8945(6) 0.3120(4) -0.0636(3)
H10 H 0.9186 0.2857 -0.0949
C13 C 0.7934(5) 0.3176(3) -0.0551(2)
H11 H 0.7484 0.2959 -0.0805
C14 C 0.7593(4) 0.3566(3) -0.0076(2)
C15 C 0.6509(4) 0.3672(3) 0.0038(2)
C16 C 0.5778(4) 0.3474(4) -0.0341(2)
H12 H 0.5961 0.3258 -0.0680
C17 C 0.4783(4) 0.3593(4) -0.0219(3)
H13 H 0.4288 0.3463 -0.0474
C18 C 0.4543(4) 0.3901(3) 0.0274(2)
H14 H 0.3875 0.3986 0.0369
C19 C 0.5299(3) 0.4089(3) 0.0637(2)
H15 H 0.5121 0.4298 0.0979
Pt1G Pt 1.017830(10) 0.187520(8) 0.180445(6)
C2G C 0.5901(3) 0.7666(2) 0.15750(17)
O6 O 0.3668(5) 0.3546(6) 0.1694(3)
O7 O 0.5000 0.4210(4) 0.2500
O8 O 0.4503(14) 0.2040(9) 0.2031(6)
O9 O 0.3254(4) 0.2057(3) 0.2835(2)
loop_
_geom_bond_atom_site_label_1
_geom_bond_atom_site_label_2
_geom_bond_site_symmetry_1
_geom_bond_site_symmetry_2
Tb1 O1 1_555 1_555
Pt1 C1 1_555 1_555
O1 N5 1_555 1_555
O2 Tb1 1_555 1_555
O3 N5 1_555 1_555
O4 Tb1 1_555 1_555
H1 O4 1_555 1_555
H2 O4 1_555 1_555
O5 Tb1 1_555 1_555
H3 O5 1_555 1_555
H4 O5 1_555 1_555
N1 Tb1 1_555 1_555
N2 Tb1 1_555 1_555
N3 C3 1_555 1_555
N4 C4 1_555 1_555
N5 O2 1_555 1_555
N6 Tb1 1_555 1_555
N7 Tb1 1_555 1_555
N8 Tb1 1_555 1_555
C1 N1 1_555 1_555
C2 N2 1_555 1_555
C3 Pt1 1_555 1_555
C4 Pt1 1_555 1_555
C5 N6 1_555 1_555
H5 C5 1_555 1_555
C6 C5 1_555 1_555
H6 C6 1_555 1_555
C7 C6 1_555 1_555
H7 C7 1_555 1_555
C8 C7 1_555 1_555
H8 C8 1_555 1_555
C9 N6 1_555 1_555
C10 N7 1_555 1_555
C11 C10 1_555 1_555
H9 C11 1_555 1_555
C12 C11 1_555 1_555
H10 C12 1_555 1_555
C13 C12 1_555 1_555
H11 C13 1_555 1_555
C14 N7 1_555 1_555
C15 N8 1_555 1_555
C16 C15 1_555 1_555
H12 C16 1_555 1_555
C17 C16 1_555 1_555
H13 C17 1_555 1_555
C18 C17 1_555 1_555
H14 C18 1_555 1_555
C19 N8 1_555 1_555
H15 C19 1_555 1_555
Pt1G C2 1_555 1_555
C2G Pt1 1_555 1_555
C8 C9 1_555 1_555
C9 C10 1_555 1_555
C13 C14 1_555 1_555
C14 C15 1_555 1_555
C18 C19 1_555 1_555

#END
