
#######################################################################
#
#                 Cambridge Crystallographic Data Centre
#                                CCDC 
#
#######################################################################
#
# If this CIF has been generated from an entry in the Cambridge 
# Structural Database, then it will include bibliographic, chemical, 
# crystal, experimental, refinement or atomic coordinate data resulting 
# from the CCDC's data processing and validation procedures.
#
#######################################################################

data_GENGEL
_symmetry_cell_setting           monoclinic
_symmetry_space_group_name_H-M   'P 21/a'
_symmetry_Int_Tables_number      14
_space_group_name_Hall           '-P 2yab'
loop_
_symmetry_equiv_pos_site_id
_symmetry_equiv_pos_as_xyz
1 x,y,z
2 1/2-x,1/2+y,-z
3 -x,-y,-z
4 1/2+x,1/2-y,z
_cell_length_a                   9.392(2)
_cell_length_b                   12.782(1)
_cell_length_c                   11.147(2)
_cell_angle_alpha                90
_cell_angle_beta                 93.34(2)
_cell_angle_gamma                90
_cell_volume                     1335.91
loop_
_atom_site_label
_atom_site_type_symbol
_atom_site_fract_x
_atom_site_fract_y
_atom_site_fract_z
K1 K 0.43446(8) 0.41853(6) 0.12108(6)
O1 O 0.3264(3) 0.200(2) 0.0726(2)
O2 O 0.6405(3) 0.2954(2) 0.2307(2)
O3 O 0.7095(3) 0.1317(2) 0.2592(2)
O4 O 0.7873(3) 0.4780(2) 0.6011(2)
O5 O 0.5718(2) 0.4496(2) 0.6607(2)
O6 O 0.8011(3) 0.1017(2) -0.3240(3)
O7 O 0.8196(3) 0.0684(3) -0.1300(3)
O8 O 0.1582(3) 0.1152(3) -0.0340(2)
C1 C 0.6362(3) 0.2100(3) 0.2861(3)
C2 C 0.5368(4) 0.2017(3) 0.3873(3)
C3 C 0.5254(4) 0.2994(3) 0.4630(3)
C4 C 0.6683(4) 0.3347(3) 0.5152(3)
C5 C 0.6686(3) 0.4274(3) 0.5987(3)
C6 C 0.7500(4) 0.0940(3) -0.2179(4)
C7 C 0.5974(4) 0.1272(5) -0.2227(4)
C8 C 0.5193(4) 0.1202(4) -0.1088(4)
C9 C 0.3725(5) 0.1485(6) -0.1243(4)
C10 C 0.2750(4) 0.1511(3) -0.0244(3)
H1 H 0.78232 0.53048 0.64831
H2 H 0.26257 0.19080 0.13333
H3 H 0.87903 0.09175 -0.34014
H4 H 0.57220 0.14601 0.43148
H5 H 0.44946 0.18143 0.35220
H6 H 0.49296 0.35187 0.41896
H7 H 0.45464 0.27957 0.52231
H8 H 0.72365 0.34395 0.46069
H9 H 0.71782 0.26547 0.56127
H10 H 0.55100 0.10450 -0.29140
H11 H 0.57520 0.05500 -0.20140
H12 H 0.54440 0.06180 -0.05990
H13 H 0.56840 0.14790 -0.03100
H14 H 0.32140 0.14540 -0.20580
H15 H 0.37450 0.23290 -0.15730
K1B K 0.56554(8) 0.58147(6) -0.12108(6)
O3C O 0.2095(3) 0.3683(2) 0.2592(2)
O5B O 0.4282(2) 0.5504(2) 0.3393(2)
O7A O 0.6804(3) 0.5684(3) 0.1300(3)
O7C O 0.3196(3) 0.4316(3) -0.1300(3)
O8A O 0.3418(3) 0.6152(3) 0.0340(2)
O8C O 0.6582(3) 0.3848(3) -0.0340(2)
K1C K 0.93446(8) 0.08147(6) 0.12108(6)
K1B_2 K 0.56554(8) 0.58147(6) 0.87892(6)
K1A K 1.06554(8) -0.08147(6) -0.12108(6)
K1A_2 K 0.06554(8) -0.08147(6) -0.12108(6)
K1C_2 K -0.06554(8) 0.08147(6) 0.12108(6)
loop_
_geom_bond_atom_site_label_1
_geom_bond_atom_site_label_2
_geom_bond_site_symmetry_1
_geom_bond_site_symmetry_2
K1 O1 1_555 1_555
O1 C10 1_555 1_555
O2 K1 1_555 1_555
O3 C1 1_555 1_555
O4 C5 1_555 1_555
O5 C5 1_555 1_555
O6 C6 1_555 1_555
O7 C6 1_555 1_555
O8 C10 1_555 1_555
C1 O2 1_555 1_555
C2 C1 1_555 1_555
C3 C2 1_555 1_555
C4 C3 1_555 1_555
C5 C4 1_555 1_555
C6 C7 1_555 1_555
C7 C8 1_555 1_555
C8 C9 1_555 1_555
C9 C10 1_555 1_555
H1 O4 1_555 1_555
H2 O1 1_555 1_555
H3 O6 1_555 1_555
H4 C2 1_555 1_555
H5 C2 1_555 1_555
H6 C3 1_555 1_555
H7 C3 1_555 1_555
H8 C4 1_555 1_555
H9 C4 1_555 1_555
H10 C7 1_555 1_555
H11 C7 1_555 1_555
H12 C8 1_555 1_555
H13 C8 1_555 1_555
H14 C9 1_555 1_555
H15 C9 1_555 1_555
K1B O7A 1_555 1_555
O3C K1 1_555 1_555
O5B K1 1_555 1_555
O7A K1 1_555 1_555
O7C K1 1_555 1_555
O8A K1 1_555 1_555
O8C K1 1_555 1_555
K1C O3 1_555 1_555
K1B_2 O5 1_555 1_555
K1A O7 1_555 1_555
K1A_2 O8 1_555 1_555
K1C_2 O8 1_555 1_555
O7 K1C 1_555 1_555
K1B O7C 1_555 1_555
K1B O8A 1_555 1_555
K1B O8C 1_555 1_555

#END
