
#######################################################################
#
#                 Cambridge Crystallographic Data Centre
#                                CCDC 
#
#######################################################################
#
# If this CIF has been generated from an entry in the Cambridge 
# Structural Database, then it will include bibliographic, chemical, 
# crystal, experimental, refinement or atomic coordinate data resulting 
# from the CCDC's data processing and validation procedures.
#
#######################################################################

data_GENQAT
_symmetry_cell_setting           monoclinic
_symmetry_space_group_name_H-M   'P 21/c'
_symmetry_Int_Tables_number      14
_space_group_name_Hall           '-P 2ybc'
loop_
_symmetry_equiv_pos_site_id
_symmetry_equiv_pos_as_xyz
1 x,y,z
2 -x,1/2+y,1/2-z
3 -x,-y,-z
4 x,1/2-y,1/2+z
_cell_length_a                   19.1754(3)
_cell_length_b                   19.2606(4)
_cell_length_c                   26.2796(5)
_cell_angle_alpha                90
_cell_angle_beta                 91.893(1)
_cell_angle_gamma                90
_cell_volume                     9700.54
loop_
_atom_site_label
_atom_site_type_symbol
_atom_site_fract_x
_atom_site_fract_y
_atom_site_fract_z
C1 C -0.0057(2) -0.2336(3) -0.3689(2)
C2 C -0.0141(3) -0.3048(3) -0.3565(2)
H1 H -0.0077 -0.3214 -0.3226
C3 C -0.0321(4) -0.3488(3) -0.3966(3)
H2 H -0.0388 -0.3967 -0.3898
C4 C -0.0408(4) -0.3250(4) -0.4465(3)
H3 H -0.0519 -0.3573 -0.4729
C5 C -0.0337(4) -0.2545(4) -0.4585(3)
H4 H -0.0411 -0.2380 -0.4923
C6 C -0.0152(3) -0.2097(3) -0.4188(2)
C7 C 0.0129(2) -0.1231(3) -0.3721(2)
C8 C 0.0318(2) -0.0563(3) -0.3493(2)
C9 C 0.0359(3) 0.0087(3) -0.3725(2)
H5 H 0.0271 0.0141 -0.4081
C10 C 0.0535(3) 0.0649(3) -0.3420(2)
H6 H 0.0555 0.1099 -0.3567
C11 C 0.0680(3) 0.0571(3) -0.2906(2)
H7 H 0.0807 0.0960 -0.2700
C12 C 0.0637(2) -0.0092(2) -0.2694(2)
C13 C 0.0729(2) -0.0313(2) -0.2166(2)
C14 C 0.0907(3) -0.0413(3) -0.1368(2)
C15 C 0.1056(3) -0.0322(3) -0.0848(2)
H8 H 0.1217 0.0111 -0.0717
C16 C 0.0961(3) -0.0889(3) -0.0528(3)
H9 H 0.1064 -0.0842 -0.0173
C17 C 0.0718(3) -0.1525(3) -0.0718(2)
H10 H 0.0650 -0.1897 -0.0488
C18 C 0.0573(3) -0.1627(3) -0.1228(2)
H11 H 0.0408 -0.2062 -0.1355
C19 C 0.0679(2) -0.1064(3) -0.1554(2)
C20 C -0.0667(2) -0.1369(2) -0.25953(19)
C21 C 0.1290(2) -0.1799(2) -0.27462(19)
C22 C 0.0176(2) -0.2405(3) -0.2361(2)
C23 C -0.3011(3) -0.1114(3) -0.3492(2)
H12 H -0.3178 -0.0655 -0.3613
H13 H -0.3424 -0.1421 -0.3469
C24 C -0.2522(3) -0.1417(3) -0.3884(2)
C25 C -0.2348(3) -0.2174(3) -0.3768(2)
H14 H -0.2790 -0.2429 -0.3724
H15 H -0.2120 -0.2375 -0.4067
C26 C -0.2928(4) -0.1402(4) -0.4395(3)
H16 H -0.2639 -0.1599 -0.4660
H17 H -0.3049 -0.0922 -0.4483
H18 H -0.3356 -0.1677 -0.4370
C27 C -0.1861(3) -0.0988(3) -0.3912(3)
H19 H -0.1617 -0.0987 -0.3578
H20 H -0.1982 -0.0510 -0.4009
H21 H -0.1558 -0.1188 -0.4166
C28 C -0.2634(3) -0.1936(3) -0.1461(2)
H22 H -0.3084 -0.2174 -0.1533
H23 H -0.2690 -0.1645 -0.1155
C29 C -0.2077(3) -0.2485(3) -0.1341(2)
C30 C -0.2039(3) -0.3017(3) -0.1767(2)
H24 H -0.1758 -0.3417 -0.1640
H25 H -0.2516 -0.3189 -0.1849
C31 C -0.2308(4) -0.2867(4) -0.0869(3)
H26 H -0.2738 -0.3126 -0.0950
H27 H -0.2394 -0.2531 -0.0598
H28 H -0.1941 -0.3190 -0.0754
C32 C -0.1363(3) -0.2143(4) -0.1231(3)
H29 H -0.1012 -0.2504 -0.1162
H30 H -0.1391 -0.1839 -0.0933
H31 H -0.1230 -0.1869 -0.1526
C33 C -0.3701(2) -0.2604(2) -0.26853(19)
C34 C -0.5007(2) -0.2030(3) -0.3662(2)
C35 C -0.5111(3) -0.1345(3) -0.3533(2)
H32 H -0.5063 -0.1187 -0.3191
C36 C -0.5289(3) -0.0900(3) -0.3929(2)
H33 H -0.5359 -0.0423 -0.3855
C37 C -0.5369(3) -0.1125(3) -0.4435(2)
H34 H -0.5488 -0.0798 -0.4694
C38 C -0.5280(3) -0.1802(3) -0.4560(2)
H35 H -0.5347 -0.1956 -0.4902
C39 C -0.5088(3) -0.2265(3) -0.4172(2)
C40 C -0.4792(2) -0.3141(3) -0.37166(19)
C41 C -0.4600(2) -0.3811(3) -0.3501(2)
C42 C -0.4515(3) -0.4449(3) -0.3741(2)
H36 H -0.4570 -0.4491 -0.4100
C43 C -0.4348(3) -0.5025(3) -0.3440(2)
H37 H -0.4302 -0.5467 -0.3596
C44 C -0.4248(3) -0.4963(3) -0.2919(2)
H38 H -0.4130 -0.5356 -0.2715
C45 C -0.4325(2) -0.4307(2) -0.26996(19)
C46 C -0.4268(2) -0.4106(2) -0.2170(2)
C47 C -0.4106(3) -0.4018(3) -0.1359(2)
C48 C -0.3970(3) -0.4113(3) -0.0839(2)
H39 H -0.3805 -0.4545 -0.0708
C49 C -0.4081(3) -0.3562(3) -0.0524(2)
H40 H -0.4002 -0.3620 -0.0168
C50 C -0.4310(3) -0.2911(3) -0.0709(2)
H41 H -0.4370 -0.2540 -0.0476
C51 C -0.4448(3) -0.2800(3) -0.1219(2)
H42 H -0.4604 -0.2361 -0.1343
C52 C -0.4349(2) -0.3359(3) -0.15486(19)
C53 C -0.4852(2) -0.2005(3) -0.23413(19)
C54 C -0.5678(2) -0.3065(2) -0.26476(19)
C55 C 0.1934(3) -0.3261(3) -0.3606(2)
H43 H 0.1535 -0.2943 -0.3564
H44 H 0.1745 -0.3709 -0.3734
C56 C 0.2401(3) -0.2962(4) -0.4001(3)
C57 C 0.2613(3) -0.2211(3) -0.3879(2)
H45 H 0.2840 -0.2012 -0.4179
H46 H 0.2186 -0.1937 -0.3821
C58 C 0.1951(5) -0.2940(5) -0.4500(3)
H47 H 0.1826 -0.3414 -0.4603
H48 H 0.2217 -0.2720 -0.4769
H49 H 0.1525 -0.2672 -0.4446
C59 C 0.3041(4) -0.3410(4) -0.4072(3)
H50 H 0.3303 -0.3452 -0.3747
H51 H 0.3338 -0.3195 -0.4324
H52 H 0.2896 -0.3872 -0.4190
C60 C 0.2935(3) -0.1412(3) -0.1880(2)
H53 H 0.2456 -0.1252 -0.1967
H54 H 0.3206 -0.1005 -0.1756
C61 C 0.2903(3) -0.1943(3) -0.1449(2)
C62 C 0.2352(3) -0.2500(3) -0.1570(2)
H55 H 0.2301 -0.2794 -0.1264
H56 H 0.1899 -0.2268 -0.1641
C63 C 0.2677(3) -0.1559(4) -0.0973(3)
H57 H 0.2992 -0.1168 -0.0904
H58 H 0.2693 -0.1878 -0.0682
H59 H 0.2199 -0.1386 -0.1028
C64 C 0.3623(3) -0.2268(4) -0.1340(3)
H60 H 0.3761 -0.2539 -0.1636
H61 H 0.3602 -0.2573 -0.1043
H62 H 0.3966 -0.1900 -0.1272
N1 N 0.01243(19) -0.1780(2) -0.33825(17)
N2 N -0.0030(2) -0.1379(2) -0.42020(18)
N3 N 0.04517(19) -0.0628(2) -0.29932(17)
N4 N 0.0938(2) 0.0059(2) -0.17624(17)
N5 N 0.05687(19) -0.0995(2) -0.20722(17)
N6 N -0.1263(2) -0.1360(2) -0.25655(17)
N7 N 0.0078(2) -0.2934(2) -0.2162(2)
N8 N -0.2682(2) -0.1034(2) -0.29796(18)
H90 H -0.3017 -0.0865 -0.2770
H91 H -0.2346 -0.0696 -0.3001
N9 N -0.1897(2) -0.2294(2) -0.33190(17)
H92 H -0.1466 -0.2110 -0.3383
H93 H -0.1840 -0.2766 -0.3283
N10 N -0.2485(2) -0.1478(2) -0.18957(17)
H94 H -0.2128 -0.1186 -0.1791
H95 H -0.2873 -0.1204 -0.1953
N11 N -0.1732(2) -0.2759(2) -0.22423(17)
H96 H -0.1733 -0.3120 -0.2472
H97 H -0.1273 -0.2646 -0.2170
N12 N -0.3133(2) -0.2422(2) -0.26732(17)
N13 N -0.48183(19) -0.2601(2) -0.33724(16)
N14 N -0.4942(2) -0.2977(2) -0.41958(17)
N15 N -0.45015(18) -0.37609(19) -0.29895(15)
N16 N -0.4057(2) -0.4478(2) -0.17666(17)
N17 N -0.44522(19) -0.3429(2) -0.20682(16)
N18 N -0.4964(2) -0.1484(2) -0.21506(18)
N19 N -0.6274(2) -0.3080(2) -0.26648(18)
N20 N 0.3091(2) -0.2135(2) -0.34303(17)
H98 H 0.3183 -0.1669 -0.3388
H99 H 0.3506 -0.2346 -0.3505
N21 N 0.2280(2) -0.3379(2) -0.30990(19)
H100 H 0.2610 -0.3720 -0.3136
H101 H 0.1950 -0.3554 -0.2888
N22 N 0.32514(19) -0.1673(2) -0.23449(17)
H102 H 0.3707 -0.1791 -0.2264
H103 H 0.3262 -0.1313 -0.2575
N23 N 0.2512(2) -0.2951(2) -0.20067(18)
H104 H 0.2131 -0.3234 -0.2064
H105 H 0.2876 -0.3235 -0.1902
N24 N 0.1854(2) -0.1991(2) -0.27714(17)
Fe1 Fe 0.03228(3) -0.15265(3) -0.26771(3)
Fe2 Fe -0.46728(3) -0.28828(3) -0.26673(3)
Ni1 Ni -0.22135(3) -0.18935(3) -0.26077(3)
Ni2 Ni 0.27729(3) -0.25336(3) -0.27166(3)
N19_2 N 0.3726(2) -0.3080(2) -0.26648(18)
Ni2_2 Ni -0.72271(3) -0.25336(3) -0.27166(3)
C65 C -0.2480(4) -0.5251(4) -0.1750(4)
H63 H -0.2450 -0.4864 -0.1990
H64 H -0.2107 -0.5585 -0.1811
H65 H -0.2431 -0.5075 -0.1401
O1 O -0.31172(19) -0.55731(19) -0.18163(16)
H111 H -0.3522 -0.5322 -0.1746
C66 C -0.2518(3) -0.4179(4) -0.3137(4)
H66 H -0.2540 -0.4521 -0.2862
H67 H -0.2579 -0.4415 -0.3466
H68 H -0.2888 -0.3834 -0.3100
O2 O -0.18595(19) -0.38430(19) -0.31118(17)
H119 H -0.1478 -0.4205 -0.3144
C67 C -0.1325(4) -0.9386(4) -0.3134(3)
H69 H -0.1118 -0.9244 -0.3454
H70 H -0.1820 -0.9491 -0.3196
H71 H -0.1084 -0.9800 -0.3001
O3 O -0.1254(2) -0.8830(2) -0.27672(19)
H115 H -0.1268 -0.9081 -0.2451
C68 C -0.3855(4) -0.9858(4) -0.2233(4)
H72 H -0.4049 -0.9707 -0.1910
H73 H -0.4174 -0.9727 -0.2515
H74 H -0.3402 -0.9634 -0.2276
O4 O -0.3767(2) -1.0595(2) -0.2227(2)
H110 H -0.3839 -1.0625 -0.1858
C69 C -0.5499(5) -0.3987(6) -0.5198(4)
H75 H -0.5551 -0.4488 -0.5254
H76 H -0.5565 -0.3743 -0.5524
H77 H -0.5850 -0.3828 -0.4962
O5 O -0.4842(3) -0.3849(3) -0.49960(19)
H117 H -0.4941 -0.3498 -0.4741
C70 C -0.5977(4) -0.4255(5) -0.1374(5)
H78 H -0.5757 -0.3796 -0.1383
H79 H -0.5767 -0.4558 -0.1626
H80 H -0.5907 -0.4457 -0.1034
O6 O -0.6715(2) -0.4187(3) -0.1490(2)
H113 H -0.6647 -0.4420 -0.1812
C71 C -0.1030(5) -0.9955(4) -0.1739(4)
H81 H -0.0897 -0.9491 -0.1619
H82 H -0.1010 -0.9972 -0.2111
H83 H -0.0708 -1.0300 -0.1590
O7 O -0.1736(3) -1.0108(3) -0.1589(2)
H112 H -0.1746 -1.0310 -0.1255
C72 C -0.0791(5) -1.0317(5) -0.0514(4)
H84 H -0.0501 -1.0069 -0.0754
H85 H -0.0778 -1.0816 -0.0587
H86 H -0.0613 -1.0233 -0.0166
O8 O -0.1504(3) -1.0071(4) -0.0566(3)
H114 H -0.1961 -1.0136 -0.0401
C73 C -0.3819(6) -0.0528(8) -0.0921(5)
H87 H -0.4146 -0.0139 -0.0893
H88 H -0.4029 -0.0888 -0.1140
H89 H -0.3387 -0.0363 -0.1069
O9 O -0.3678(5) -0.0788(7) -0.0463(3)
H122 H -0.3740 -0.0536 -0.0209
O10 O -0.7354(4) -0.4248(4) -0.0554(3)
H116 H -0.7834 -0.4120 -0.0572
H118 H -0.7132 -0.4209 -0.0865
O11 O -0.2409(6) -0.0909(9) 0.0052(6)
H109 H -0.2534 -0.1220 0.0332
H121 H -0.2788 -0.0764 -0.0170
O12 O -0.8799(6) -0.4262(7) -0.0527(4)
C74 C -0.9186(7) -0.3612(6) -0.0463(6)
H106 H -0.9688 -0.3710 -0.0471
H107 H -0.9081 -0.3293 -0.0740
H108 H -0.9049 -0.3400 -0.0136
H120 H -0.8659 -0.4273 -0.0175
O13 O -1.0618(4) -0.4522(4) 0.0046(3)
C75 C -1.1219(9) -0.4184(9) -0.0216(7)
loop_
_geom_bond_atom_site_label_1
_geom_bond_atom_site_label_2
_geom_bond_site_symmetry_1
_geom_bond_site_symmetry_2
C1 C2 1_555 1_555
C2 H1 1_555 1_555
C3 C2 1_555 1_555
H2 C3 1_555 1_555
C4 C3 1_555 1_555
H3 C4 1_555 1_555
C5 C4 1_555 1_555
H4 C5 1_555 1_555
C6 C1 1_555 1_555
C7 C8 1_555 1_555
C8 C9 1_555 1_555
C9 H5 1_555 1_555
C10 C9 1_555 1_555
H6 C10 1_555 1_555
C11 C10 1_555 1_555
H7 C11 1_555 1_555
C12 C11 1_555 1_555
C13 C12 1_555 1_555
C14 C15 1_555 1_555
C15 H8 1_555 1_555
C16 C15 1_555 1_555
H9 C16 1_555 1_555
C17 C16 1_555 1_555
H10 C17 1_555 1_555
C18 C17 1_555 1_555
H11 C18 1_555 1_555
C19 C14 1_555 1_555
C20 N6 1_555 1_555
C21 N24 1_555 1_555
C22 N7 1_555 1_555
C23 H12 1_555 1_555
H13 C23 1_555 1_555
C24 C23 1_555 1_555
C25 C24 1_555 1_555
H14 C25 1_555 1_555
H15 C25 1_555 1_555
C26 C24 1_555 1_555
H16 C26 1_555 1_555
H17 C26 1_555 1_555
H18 C26 1_555 1_555
C27 C24 1_555 1_555
H19 C27 1_555 1_555
H20 C27 1_555 1_555
H21 C27 1_555 1_555
C28 H22 1_555 1_555
H23 C28 1_555 1_555
C29 C28 1_555 1_555
C30 C29 1_555 1_555
H24 C30 1_555 1_555
H25 C30 1_555 1_555
C31 C29 1_555 1_555
H26 C31 1_555 1_555
H27 C31 1_555 1_555
H28 C31 1_555 1_555
C32 C29 1_555 1_555
H29 C32 1_555 1_555
H30 C32 1_555 1_555
H31 C32 1_555 1_555
C33 N12 1_555 1_555
C34 C35 1_555 1_555
C35 H32 1_555 1_555
C36 C35 1_555 1_555
H33 C36 1_555 1_555
C37 C36 1_555 1_555
H34 C37 1_555 1_555
C38 C37 1_555 1_555
H35 C38 1_555 1_555
C39 C34 1_555 1_555
C40 C41 1_555 1_555
C41 C42 1_555 1_555
C42 H36 1_555 1_555
C43 C42 1_555 1_555
H37 C43 1_555 1_555
C44 C43 1_555 1_555
H38 C44 1_555 1_555
C45 C44 1_555 1_555
C46 C45 1_555 1_555
C47 C48 1_555 1_555
C48 H39 1_555 1_555
C49 C48 1_555 1_555
H40 C49 1_555 1_555
C50 C49 1_555 1_555
H41 C50 1_555 1_555
C51 C50 1_555 1_555
H42 C51 1_555 1_555
C52 C47 1_555 1_555
C53 N18 1_555 1_555
C54 N19 1_555 1_555
C55 H43 1_555 1_555
H44 C55 1_555 1_555
C56 C55 1_555 1_555
C57 C56 1_555 1_555
H45 C57 1_555 1_555
H46 C57 1_555 1_555
C58 C56 1_555 1_555
H47 C58 1_555 1_555
H48 C58 1_555 1_555
H49 C58 1_555 1_555
C59 C56 1_555 1_555
H50 C59 1_555 1_555
H51 C59 1_555 1_555
H52 C59 1_555 1_555
C60 H53 1_555 1_555
H54 C60 1_555 1_555
C61 C60 1_555 1_555
C62 C61 1_555 1_555
H55 C62 1_555 1_555
H56 C62 1_555 1_555
C63 C61 1_555 1_555
H57 C63 1_555 1_555
H58 C63 1_555 1_555
H59 C63 1_555 1_555
C64 C61 1_555 1_555
H60 C64 1_555 1_555
H61 C64 1_555 1_555
H62 C64 1_555 1_555
C65 H63 1_555 1_555
H64 C65 1_555 1_555
H65 C65 1_555 1_555
C66 H66 1_555 1_555
H67 C66 1_555 1_555
H68 C66 1_555 1_555
C67 H69 1_555 1_555
H70 C67 1_555 1_555
H71 C67 1_555 1_555
C68 H72 1_555 1_555
H73 C68 1_555 1_555
H74 C68 1_555 1_555
C69 H75 1_555 1_555
H76 C69 1_555 1_555
H77 C69 1_555 1_555
C70 H78 1_555 1_555
H79 C70 1_555 1_555
H80 C70 1_555 1_555
C71 H81 1_555 1_555
H82 C71 1_555 1_555
H83 C71 1_555 1_555
C72 H84 1_555 1_555
H85 C72 1_555 1_555
H86 C72 1_555 1_555
C73 H87 1_555 1_555
H88 C73 1_555 1_555
H89 C73 1_555 1_555
N1 C1 1_555 1_555
N2 C6 1_555 1_555
N3 C8 1_555 1_555
N4 C13 1_555 1_555
N5 C13 1_555 1_555
N6 Ni1 1_555 1_555
N8 C23 1_555 1_555
H90 N8 1_555 1_555
H91 N8 1_555 1_555
N9 C25 1_555 1_555
H92 N9 1_555 1_555
H93 N9 1_555 1_555
N10 C28 1_555 1_555
H94 N10 1_555 1_555
H95 N10 1_555 1_555
N11 C30 1_555 1_555
H96 N11 1_555 1_555
H97 N11 1_555 1_555
N12 Ni1 1_555 1_555
N13 C34 1_555 1_555
N14 C39 1_555 1_555
N15 C41 1_555 1_555
N16 C46 1_555 1_555
N17 C46 1_555 1_555
N19 Ni2_2 1_555 1_555
N20 C57 1_555 1_555
H98 N20 1_555 1_555
H99 N20 1_555 1_555
N21 C55 1_555 1_555
H100 N21 1_555 1_555
H101 N21 1_555 1_555
N22 C60 1_555 1_555
H102 N22 1_555 1_555
H103 N22 1_555 1_555
N23 C62 1_555 1_555
H104 N23 1_555 1_555
H105 N23 1_555 1_555
N24 Ni2 1_555 1_555
O1 C65 1_555 1_555
O2 C66 1_555 1_555
O3 C67 1_555 1_555
O4 C68 1_555 1_555
O5 C69 1_555 1_555
O6 C70 1_555 1_555
O7 C71 1_555 1_555
O8 C72 1_555 1_555
O9 C73 1_555 1_555
O10 H116 1_555 1_555
O11 H109 1_555 1_555
Fe1 C20 1_555 1_555
Fe2 C33 1_555 1_555
Ni1 N8 1_555 1_555
Ni2 N20 1_555 1_555
O12 C74 1_555 1_555
C74 H106 1_555 1_555
H107 C74 1_555 1_555
H108 C74 1_555 1_555
O13 C75 1_555 1_555
H110 O4 1_555 1_555
H111 O1 1_555 1_555
H112 O7 1_555 1_555
H113 O6 1_555 1_555
H114 O8 1_555 1_555
H115 O3 1_555 1_555
H117 O5 1_555 1_555
H118 O10 1_555 1_555
H119 O2 1_555 1_555
H120 O12 1_555 1_555
H121 O11 1_555 1_555
H122 O9 1_555 1_555
N19_2 Ni2 1_555 1_555
C5 C6 1_555 1_555
C7 N1 1_555 1_555
C7 N2 1_555 1_555
C12 N3 1_555 1_555
C14 N4 1_555 1_555
C18 C19 1_555 1_555
C19 N5 1_555 1_555
C21 Fe1 1_555 1_555
C22 Fe1 1_555 1_555
C38 C39 1_555 1_555
C40 N13 1_555 1_555
C40 N14 1_555 1_555
C45 N15 1_555 1_555
C47 N16 1_555 1_555
C51 C52 1_555 1_555
C52 N17 1_555 1_555
C53 Fe2 1_555 1_555
C54 Fe2 1_555 1_555
N1 Fe1 1_555 1_555
N3 Fe1 1_555 1_555
N5 Fe1 1_555 1_555
N9 Ni1 1_555 1_555
N10 Ni1 1_555 1_555
N11 Ni1 1_555 1_555
N13 Fe2 1_555 1_555
N15 Fe2 1_555 1_555
N17 Fe2 1_555 1_555
N21 Ni2 1_555 1_555
N22 Ni2 1_555 1_555
N23 Ni2 1_555 1_555

#END
