
#######################################################################
#
#                 Cambridge Crystallographic Data Centre
#                                CCDC 
#
#######################################################################
#
# If this CIF has been generated from an entry in the Cambridge 
# Structural Database, then it will include bibliographic, chemical, 
# crystal, experimental, refinement or atomic coordinate data resulting 
# from the CCDC's data processing and validation procedures.
#
#######################################################################

data_GENQUN
_symmetry_cell_setting           triclinic
_symmetry_space_group_name_H-M   'P -1'
_symmetry_Int_Tables_number      2
_space_group_name_Hall           '-P 1'
loop_
_symmetry_equiv_pos_site_id
_symmetry_equiv_pos_as_xyz
1 x,y,z
2 -x,-y,-z
_cell_length_a                   7.5069(4)
_cell_length_b                   12.5901(7)
_cell_length_c                   16.6286(9)
_cell_angle_alpha                88.738(3)
_cell_angle_beta                 84.968(4)
_cell_angle_gamma                85.381(3)
_cell_volume                     1560.29
loop_
_atom_site_label
_atom_site_type_symbol
_atom_site_fract_x
_atom_site_fract_y
_atom_site_fract_z
Cu1 Cu 1.06172(13) 0.37193(8) 0.04841(6)
Cu2 Cu 0.45428(16) 0.12833(8) 0.35629(6)
Cu3 Cu 1.29845(14) 0.09936(8) -0.07339(6)
Cl1 Cl 1.0335(3) 0.26579(16) -0.05824(13)
Cl2 Cl 1.2238(3) 0.48426(16) -0.03111(13)
Cl3 Cl 0.3605(5) 0.2197(2) 0.46693(15)
Cl4 Cl 0.7493(4) 0.1412(2) 0.35754(15)
Cl5 Cl 1.1048(3) -0.00747(16) -0.12249(13)
O1 O 1.2589(8) 0.0255(4) 0.0285(3)
H1 H 1.3127 0.0601 0.0594
H2 H 1.1525 0.0209 0.0437
N1 N 0.6494(9) 0.2146(5) 0.1862(4)
H3 H 0.6763 0.2244 0.2346
N2 N 0.4500(9) 0.1488(5) 0.1020(4)
N3 N 0.6802(9) 0.2517(5) 0.0496(4)
H4 H 0.7300 0.2852 0.0091
N4 N 0.8989(9) 0.2997(5) 0.1300(4)
N5 N 0.4292(9) 0.1116(5) 0.2395(4)
N6 N 0.4801(8) 0.1901(5) -0.0340(4)
N7 N 1.1968(9) 0.3931(5) 0.1451(4)
N8 N 0.2752(9) 0.0230(5) 0.3693(4)
N9 N 0.3913(9) 0.1511(5) -0.1807(4)
C1 C 0.7508(11) 0.2565(6) 0.1234(5)
C2 C 0.5058(11) 0.1573(6) 0.1752(5)
C3 C 0.5354(11) 0.1963(6) 0.0375(5)
C4 C 0.9520(11) 0.3035(7) 0.2135(5)
H5 H 0.9651 0.2318 0.2358
H6 H 0.8589 0.3439 0.2469
C5 C 1.1250(12) 0.3543(6) 0.2146(6)
C6 C 1.2053(12) 0.3581(7) 0.2869(6)
H7 H 1.1512 0.3301 0.3343
C7 C 1.3654(13) 0.4037(7) 0.2871(6)
H8 H 1.4218 0.4074 0.3344
C8 C 1.4416(12) 0.4447(7) 0.2139(6)
H9 H 1.5495 0.4766 0.2120
C9 C 1.3552(12) 0.4371(6) 0.1457(6)
H10 H 1.4077 0.4634 0.0974
C10 C 0.2826(12) 0.0470(6) 0.2248(5)
H11 H 0.3233 -0.0048 0.1835
H12 H 0.1841 0.0924 0.2055
C11 C 0.2193(11) -0.0093(6) 0.3004(5)
C12 C 0.1025(11) -0.0904(7) 0.3013(5)
H13 H 0.0588 -0.1103 0.2537
C13 C 0.0530(11) -0.1406(7) 0.3727(6)
H14 H -0.0211 -0.1964 0.3734
C14 C 0.1123(12) -0.1086(7) 0.4432(5)
H15 H 0.0770 -0.1409 0.4922
C15 C 0.2240(12) -0.0286(7) 0.4397(5)
H16 H 0.2674 -0.0081 0.4872
C16 C 0.5690(11) 0.2492(6) -0.1000(5)
H17 H 0.6971 0.2299 -0.1024
H18 H 0.5498 0.3248 -0.0890
C17 C 0.5036(11) 0.2289(6) -0.1796(5)
C18 C 0.5619(12) 0.2809(7) -0.2493(5)
H19 H 0.6391 0.3347 -0.2473
C19 C 0.5064(12) 0.2535(7) -0.3214(5)
H20 H 0.5428 0.2897 -0.3686
C20 C 0.3959(11) 0.1717(7) -0.3236(5)
H21 H 0.3593 0.1496 -0.3721
C21 C 0.3417(12) 0.1240(7) -0.2518(5)
H22 H 0.2657 0.0694 -0.2528
Cu1A Cu 0.93828(13) 0.62807(8) -0.04841(6)
Cu3_2 Cu 0.29845(14) 0.09936(8) -0.07339(6)
Cl2A Cl 0.7762(3) 0.51574(16) 0.03111(13)
N6_2 N 1.4801(8) 0.1901(5) -0.0340(4)
N9_2 N 1.3913(9) 0.1511(5) -0.1807(4)
C22 C 0.0417(16) 0.3785(9) 0.7493(8)
H23 H 0.0683 0.3041 0.7604
H24 H 0.0527 0.3911 0.6920
H25 H -0.0786 0.3997 0.7706
O2 O 0.1632(10) 0.4384(6) 0.7858(5)
H26 H 0.0862 0.4419 0.8267
C23 C 0.199(4) 0.6328(19) 0.5313(12)
H27 H 0.0861 0.6725 0.5477
H28 H 0.2921 0.6823 0.5261
Cl6 Cl 0.1858(5) 0.5771(3) 0.4435(2)
Cl7 Cl 0.2511(5) 0.5307(3) 0.6097(2)
C24? C 0.347(4) 0.592(3) 0.5204(14)
H29? H 0.4635 0.5571 0.5034
H30? H 0.3607 0.6669 0.5292
loop_
_geom_bond_atom_site_label_1
_geom_bond_atom_site_label_2
_geom_bond_site_symmetry_1
_geom_bond_site_symmetry_2
Cu1 Cl1 1_555 1_555
Cu2 Cl3 1_555 1_555
Cu3 Cl1 1_555 1_555
Cl2 Cu1 1_555 1_555
Cl4 Cu2 1_555 1_555
Cl5 Cu3 1_555 1_555
O1 Cu3 1_555 1_555
H1 O1 1_555 1_555
H2 O1 1_555 1_555
N1 H3 1_555 1_555
N2 C2 1_555 1_555
N3 H4 1_555 1_555
N4 Cu1 1_555 1_555
N5 Cu2 1_555 1_555
N6 C3 1_555 1_555
N7 Cu1 1_555 1_555
N8 Cu2 1_555 1_555
N9 C17 1_555 1_555
C1 N1 1_555 1_555
C2 N1 1_555 1_555
C3 N2 1_555 1_555
C4 N4 1_555 1_555
H5 C4 1_555 1_555
H6 C4 1_555 1_555
C5 N7 1_555 1_555
C6 C5 1_555 1_555
H7 C6 1_555 1_555
C7 C6 1_555 1_555
H8 C7 1_555 1_555
C8 C7 1_555 1_555
H9 C8 1_555 1_555
C9 N7 1_555 1_555
H10 C9 1_555 1_555
C10 N5 1_555 1_555
H11 C10 1_555 1_555
H12 C10 1_555 1_555
C11 N8 1_555 1_555
C12 C11 1_555 1_555
H13 C12 1_555 1_555
C13 C12 1_555 1_555
H14 C13 1_555 1_555
C14 C13 1_555 1_555
H15 C14 1_555 1_555
C15 N8 1_555 1_555
H16 C15 1_555 1_555
C16 N6 1_555 1_555
H17 C16 1_555 1_555
H18 C16 1_555 1_555
C17 C16 1_555 1_555
C18 C17 1_555 1_555
H19 C18 1_555 1_555
C19 C18 1_555 1_555
H20 C19 1_555 1_555
C20 C19 1_555 1_555
H21 C20 1_555 1_555
C21 N9 1_555 1_555
H22 C21 1_555 1_555
C22 H23 1_555 1_555
H24 C22 1_555 1_555
H25 C22 1_555 1_555
O2 C22 1_555 1_555
H26 O2 1_555 1_555
C23 H27 1_555 1_555
H28 C23 1_555 1_555
Cl6 C23 1_555 1_555
Cl7 C23 1_555 1_555
Cu1A Cl2 1_555 1_555
Cu3_2 N6 1_555 1_555
Cl2A Cu1 1_555 1_555
N6_2 Cu3 1_555 1_555
N9_2 Cu3 1_555 1_555
N3 C1 1_555 1_555
N3 C3 1_555 1_555
N4 C1 1_555 1_555
N5 C2 1_555 1_555
N9 Cu3_2 1_555 1_555
C4 C5 1_555 1_555
C8 C9 1_555 1_555
C10 C11 1_555 1_555
C14 C15 1_555 1_555
C20 C21 1_555 1_555
Cu1A Cl2A 1_555 1_555

#END
