
#######################################################################
#
#                 Cambridge Crystallographic Data Centre
#                                CCDC 
#
#######################################################################
#
# If this CIF has been generated from an entry in the Cambridge 
# Structural Database, then it will include bibliographic, chemical, 
# crystal, experimental, refinement or atomic coordinate data resulting 
# from the CCDC's data processing and validation procedures.
#
#######################################################################

data_GENZEG
_symmetry_cell_setting           monoclinic
_symmetry_space_group_name_H-M   'P 21/n'
_symmetry_Int_Tables_number      14
_space_group_name_Hall           '-P 2yn'
loop_
_symmetry_equiv_pos_site_id
_symmetry_equiv_pos_as_xyz
1 x,y,z
2 1/2-x,1/2+y,1/2-z
3 -x,-y,-z
4 1/2+x,1/2-y,1/2+z
_cell_length_a                   13.754(4)
_cell_length_b                   7.102(2)
_cell_length_c                   13.492(4)
_cell_angle_alpha                90
_cell_angle_beta                 104.721(3)
_cell_angle_gamma                90
_cell_volume                     1274.65
loop_
_atom_site_label
_atom_site_type_symbol
_atom_site_fract_x
_atom_site_fract_y
_atom_site_fract_z
Cu1 Cu 0.7466 0.5377 0.7548
Cu2 Cu 0.7461 0.2906 0.9558
S1 S 1.2362 0.1881 1.0106
P1 P 0.9269 0.3322 0.8579
O1 O 0.9072 0.5204 0.8004
O2 O 0.8934 0.3349 0.9568
O3 O 0.8999 0.1793 0.7722
O4 O 1.2842 0.0251 1.0698
O5 O 1.2607 0.2128 0.9150
O6 O 1.2617 0.3547 1.0683
O7 O 0.6967 0.3068 0.7978
O8 O 0.5981 0.3291 0.9602
O9 O 0.7983 0.2646 1.1239
C1 C 1.0511 0.2272 0.8604
C2 C 1.1013 0.1437 0.9692
Cu1A Cu 0.7534 0.0377 0.7452
Cu1C Cu 1.2466 -0.0377 1.2548
Cu1B Cu 1.2534 0.4623 1.2452
Cu2B Cu 1.2539 -0.2906 1.0442
Cu2B_2 Cu 1.2539 0.7094 1.0442
O3A O 0.6001 0.6793 0.7278
O4C O 0.7842 0.4749 0.5698
O4B O 0.7158 -0.0251 0.9302
O6B O 0.7383 0.6453 0.9317
O7A O 0.8033 0.8068 0.7022
O10 O 0.3208 0.4674 0.7949
O11 O 0.4472 1.0534 0.8965
O12 O 0.4974 0.6184 0.8663
O13 O 0.5281 0.7689 0.2706
loop_
_geom_bond_atom_site_label_1
_geom_bond_atom_site_label_2
_geom_bond_site_symmetry_1
_geom_bond_site_symmetry_2
Cu1 O1 1_555 1_555
Cu2 O2 1_555 1_555
S1 O4 1_555 1_555
P1 O1 1_555 1_555
O2 P1 1_555 1_555
O3 P1 1_555 1_555
O4 Cu1C 1_555 1_555
O5 S1 1_555 1_555
O6 S1 1_555 1_555
O7 Cu1 1_555 1_555
O8 Cu2 1_555 1_555
O9 Cu2 1_555 1_555
C1 P1 1_555 1_555
C2 S1 1_555 1_555
Cu1A O3 1_555 1_555
Cu1B O6 1_555 1_555
Cu2B O4 1_555 1_555
Cu2B_2 O6 1_555 1_555
O3A Cu1 1_555 1_555
O4C Cu1 1_555 1_555
O4B Cu2 1_555 1_555
O6B Cu1 1_555 1_555
O7A Cu1 1_555 1_555
Cu2 O7 1_555 1_555
Cu2 O6B 1_555 1_555
O7 Cu1A 1_555 1_555
C1 C2 1_555 1_555
Cu1A O4B 1_555 1_555

#END
