
#######################################################################
#
#                 Cambridge Crystallographic Data Centre
#                                CCDC 
#
#######################################################################
#
# If this CIF has been generated from an entry in the Cambridge 
# Structural Database, then it will include bibliographic, chemical, 
# crystal, experimental, refinement or atomic coordinate data resulting 
# from the CCDC's data processing and validation procedures.
#
#######################################################################

data_GEPBOU
_symmetry_cell_setting           triclinic
_symmetry_space_group_name_H-M   'P -1'
_symmetry_Int_Tables_number      2
_space_group_name_Hall           '-P 1'
loop_
_symmetry_equiv_pos_site_id
_symmetry_equiv_pos_as_xyz
1 x,y,z
2 -x,-y,-z
_cell_length_a                   10.9271(18)
_cell_length_b                   11.955(2)
_cell_length_c                   15.258(3)
_cell_angle_alpha                68.430(2)
_cell_angle_beta                 81.203(2)
_cell_angle_gamma                65.178(2)
_cell_volume                     1682.37
loop_
_atom_site_label
_atom_site_type_symbol
_atom_site_fract_x
_atom_site_fract_y
_atom_site_fract_z
Co1 Co 0.27056(5) 0.47338(5) 0.37726(4)
Co2 Co 0.5000 0.5000 0.5000
Co3 Co 0.0000 0.5000 0.5000
O1 O 0.1513(2) 0.5869(2) 0.46339(19)
O2 O -0.1215(3) 1.4476(3) -0.2818(2)
O3 O 0.0647(3) 1.4290(3) -0.36810(18)
O4 O -0.1860(3) 0.6550(2) 0.52009(18)
O5 O -0.3669(3) 0.8011(3) 0.4328(2)
O6 O 0.3433(3) 0.6080(3) 0.2874(2)
O7 O 0.4558(4) 0.6461(3) 0.3754(2)
O8 O 0.3170(4) 1.1767(3) 0.0395(2)
O9 O 0.3059(3) 0.5854(3) 0.5440(2)
O10 O 0.3593(3) 0.3353(3) 0.3042(2)
H1 H 0.4268 0.3518 0.2772
H2 H 0.3148 0.3460 0.2586
O11 O 0.4532(3) 0.3727(3) 0.45483(19)
H3 H 0.5170 0.3398 0.4206
H4 H 0.4467 0.3104 0.5028
C1 C 0.3902(4) 0.6779(4) 0.3039(3)
C2 C 0.3687(4) 0.8096(4) 0.2325(3)
C3 C 0.4182(4) 0.8898(4) 0.2471(3)
H5 H 0.4658 0.8606 0.3022
C4 C 0.3993(4) 1.0117(4) 0.1829(3)
H6 H 0.4324 1.0649 0.1946
C5 C 0.3305(5) 1.0536(4) 0.1007(3)
C6 C 0.2821(5) 0.9747(5) 0.0825(3)
H7 H 0.2393 1.0016 0.0257
C7 C 0.2988(5) 0.8541(5) 0.1508(3)
H8 H 0.2617 0.8024 0.1409
C8 C 0.3000(4) 1.2562(4) -0.1264(3)
H9 H 0.3929 1.2320 -0.1300
C9 C 0.1008(6) 1.2692(6) -0.0341(4)
H10 H 0.0594 1.2548 0.0247
C10 C 0.2382(5) 1.2321(4) -0.0412(3)
C11 C 0.0243(5) 1.3285(6) -0.1163(3)
H11 H -0.0685 1.3520 -0.1125
C12 C 0.0865(4) 1.3526(4) -0.2038(3)
C13 C 0.2236(4) 1.3171(4) -0.2077(3)
H12 H 0.2656 1.3343 -0.2660
C14 C 0.0031(4) 1.4148(4) -0.2915(3)
C15 C 0.1878(4) 0.6170(4) 0.5238(3)
C16 C 0.0807(4) 0.6947(4) 0.5769(3)
C17 C 0.1023(5) 0.6599(5) 0.6722(3)
H13 H 0.1843 0.5963 0.6995
C18 C 0.0012(6) 0.7204(6) 0.7267(4)
H14 H 0.0144 0.6956 0.7910
C19 C -0.1185(6) 0.8169(6) 0.6856(5)
H15 H -0.1868 0.8568 0.7222
C20 C -0.1368(5) 0.8539(5) 0.5916(4)
H16 H -0.2175 0.9211 0.5647
C21 C -0.0409(4) 0.7961(4) 0.5345(3)
C22 C -0.0647(4) 0.8455(4) 0.4326(3)
C23 C 0.0105(5) 0.9128(5) 0.3717(4)
H17 H 0.0807 0.9180 0.3955
C24 C -0.0183(6) 0.9712(5) 0.2772(4)
H18 H 0.0329 1.0152 0.2376
C25 C -0.1216(6) 0.9659(5) 0.2401(4)
H19 H -0.1407 1.0064 0.1759
C26 C -0.1962(5) 0.9002(4) 0.2985(3)
H20 H -0.2674 0.8976 0.2739
C27 C -0.1668(4) 0.8374(4) 0.3942(3)
C28 C -0.2459(4) 0.7606(4) 0.4530(3)
Co1A Co 0.72944(5) 0.52662(5) 0.62274(4)
Co1A_2 Co -0.27056(5) 1.52662(5) -0.37726(4)
Co1A_3 Co -0.27056(5) 0.52662(5) 0.62274(4)
Co1_2 Co 1.27056(5) -0.52662(5) 1.37726(4)
Co1_3 Co 1.27056(5) 0.47338(5) 0.37726(4)
Co3_2 Co 0.0000 1.5000 -0.5000
Co3_3 Co 1.0000 -0.5000 1.5000
Co3_4 Co 1.0000 0.5000 0.5000
O1A O 0.8487(2) 0.4131(2) 0.53661(19)
O1A_2 O -0.1513(2) 0.4131(2) 0.53661(19)
O2A O 1.1215(3) -0.4476(3) 1.2818(2)
O2A_2 O 0.1215(3) 0.5524(3) 0.2818(2)
O2_2 O 0.8785(3) 0.4476(3) 0.7182(2)
O3A O 0.9353(3) -0.4290(3) 1.36810(18)
O3_2 O 0.0647(3) 0.4290(3) 0.63190(18)
O3A_2 O -0.0647(3) 0.5710(3) 0.36810(18)
O4A O 1.1860(3) 0.3450(2) 0.47991(18)
O4A_2 O 0.1860(3) 0.3450(2) 0.47991(18)
O4_2 O 0.8140(3) 0.6550(2) 0.52009(18)
O5A O 1.3669(3) 0.1989(3) 0.5672(2)
O6A O 0.6567(3) 0.3920(3) 0.7126(2)
O7A O 0.5442(4) 0.3539(3) 0.6246(2)
O8A O 0.6830(4) -0.1767(3) 0.9605(2)
O9A O 0.6941(3) 0.4146(3) 0.4560(2)
O10A O 0.6407(3) 0.6647(3) 0.6958(2)
H1A H 0.5732 0.6482 0.7228
H2A H 0.6852 0.6540 0.7414
O11A O 0.5468(3) 0.6273(3) 0.54517(19)
H3A H 0.4830 0.6602 0.5794
H4A H 0.5533 0.6896 0.4972
C1A C 0.6098(4) 0.3221(4) 0.6961(3)
C2A C 0.6313(4) 0.1904(4) 0.7675(3)
C3A C 0.5818(4) 0.1102(4) 0.7529(3)
H5A H 0.5342 0.1394 0.6978
C4A C 0.6007(4) -0.0117(4) 0.8171(3)
H6A H 0.5676 -0.0649 0.8054
C5A C 0.6695(5) -0.0536(4) 0.8993(3)
C6A C 0.7179(5) 0.0253(5) 0.9175(3)
H7A H 0.7607 -0.0016 0.9743
C7A C 0.7012(5) 0.1459(5) 0.8492(3)
H8A H 0.7383 0.1976 0.8591
C8A C 0.7000(4) -0.2562(4) 1.1264(3)
H9A H 0.6071 -0.2320 1.1300
C9A C 0.8992(6) -0.2692(6) 1.0341(4)
H10A H 0.9406 -0.2548 0.9753
C10A C 0.7618(5) -0.2321(4) 1.0412(3)
C11A C 0.9757(5) -0.3285(6) 1.1163(3)
H11A H 1.0685 -0.3520 1.1125
C12A C 0.9135(4) -0.3526(4) 1.2038(3)
C13A C 0.7764(4) -0.3171(4) 1.2077(3)
H12A H 0.7344 -0.3343 1.2660
C14A C 0.9969(4) -0.4148(4) 1.2915(3)
C15A C 0.8122(4) 0.3830(4) 0.4762(3)
C16A C 0.9193(4) 0.3053(4) 0.4231(3)
C17A C 0.8977(5) 0.3401(5) 0.3278(3)
H13A H 0.8157 0.4037 0.3005
C18A C 0.9988(6) 0.2796(6) 0.2733(4)
H14A H 0.9856 0.3044 0.2090
C19A C 1.1185(6) 0.1831(6) 0.3144(5)
H15A H 1.1868 0.1432 0.2778
C20A C 1.1368(5) 0.1461(5) 0.4084(4)
H16A H 1.2175 0.0789 0.4353
C21A C 1.0409(4) 0.2039(4) 0.4655(3)
C22A C 1.0647(4) 0.1545(4) 0.5674(3)
C23A C 0.9895(5) 0.0872(5) 0.6283(4)
H17A H 0.9193 0.0820 0.6045
C24A C 1.0183(6) 0.0288(5) 0.7228(4)
H18A H 0.9671 -0.0152 0.7624
C25A C 1.1216(6) 0.0341(5) 0.7599(4)
H19A H 1.1407 -0.0064 0.8241
C26A C 1.1962(5) 0.0998(4) 0.7015(3)
H20A H 1.2674 0.1024 0.7261
C27A C 1.1668(4) 0.1626(4) 0.6058(3)
C28A C 1.2459(4) 0.2394(4) 0.5470(3)
O12 O 0.5091(4) 0.0703(4) 0.3975(4)
H21 H 0.4367 0.1133 0.3654
H22 H 0.5511 -0.0034 0.3897
O13 O 0.6656(4) 0.2213(5) 0.3679(4)
H23 H 0.7400 0.1803 0.3977
H24 H 0.6313 0.1680 0.3708
O14 O 0.6496(11) 0.3475(12) 0.1685(7)
H25 H 0.7086 0.3784 0.1424
H26 H 0.6648 0.3123 0.2274
O15 O 0.4045(10) 0.5631(7) 0.1148(4)
H27 H 0.3792 0.5827 0.1646
H28 H 0.4797 0.4975 0.1259
O16 O 0.2981(13) 0.3886(10) 0.1148(7)
H29 H 0.3135 0.4507 0.1186
H30 H 0.3705 0.3368 0.0977
O17 O 0.5786(12) 0.2422(10) 0.0555(7)
H31 H 0.5999 0.2655 0.0954
H32 H 0.5812 0.2959 0.0009
O18 O 0.1822(17) 0.5460(14) 0.9410(10)
H33 H 0.2195 0.4985 0.9945
H34 H 0.1686 0.4995 0.9158
loop_
_geom_bond_atom_site_label_1
_geom_bond_atom_site_label_2
_geom_bond_site_symmetry_1
_geom_bond_site_symmetry_2
Co1 O1 1_555 1_555
Co2 O7 1_555 1_555
Co3 O1 1_555 1_555
O1 C15 1_555 1_555
O2 C14 1_555 1_555
O3 C14 1_555 1_555
O4 Co3 1_555 1_555
O5 C28 1_555 1_555
O6 Co1 1_555 1_555
O7 C1 1_555 1_555
O8 C5 1_555 1_555
O9 Co2 1_555 1_555
O10 Co1 1_555 1_555
H1 O10 1_555 1_555
H2 O10 1_555 1_555
O11 Co1 1_555 1_555
H3 O11 1_555 1_555
H4 O11 1_555 1_555
C1 O6 1_555 1_555
C2 C1 1_555 1_555
C3 C2 1_555 1_555
H5 C3 1_555 1_555
C4 C3 1_555 1_555
H6 C4 1_555 1_555
C5 C4 1_555 1_555
C6 C5 1_555 1_555
H7 C6 1_555 1_555
C7 C2 1_555 1_555
H8 C7 1_555 1_555
C8 H9 1_555 1_555
C9 H10 1_555 1_555
C10 O8 1_555 1_555
C11 C9 1_555 1_555
H11 C11 1_555 1_555
C12 C11 1_555 1_555
C13 C8 1_555 1_555
H12 C13 1_555 1_555
C14 C12 1_555 1_555
C15 O9 1_555 1_555
C16 C15 1_555 1_555
C17 C16 1_555 1_555
H13 C17 1_555 1_555
C18 C17 1_555 1_555
H14 C18 1_555 1_555
C19 C18 1_555 1_555
H15 C19 1_555 1_555
C20 C19 1_555 1_555
H16 C20 1_555 1_555
C21 C16 1_555 1_555
C22 C21 1_555 1_555
C23 C22 1_555 1_555
H17 C23 1_555 1_555
C24 C23 1_555 1_555
H18 C24 1_555 1_555
C25 C24 1_555 1_555
H19 C25 1_555 1_555
C26 C25 1_555 1_555
H20 C26 1_555 1_555
C27 C22 1_555 1_555
C28 O4 1_555 1_555
O12 H21 1_555 1_555
H22 O12 1_555 1_555
O13 H23 1_555 1_555
H24 O13 1_555 1_555
O14 H25 1_555 1_555
H26 O14 1_555 1_555
O15 H27 1_555 1_555
H28 O15 1_555 1_555
O16 H29 1_555 1_555
H30 O16 1_555 1_555
O17 H31 1_555 1_555
H32 O17 1_555 1_555
O18 H33 1_555 1_555
H34 O18 1_555 1_555
Co1A O1A 1_555 1_555
Co1A_2 O2 1_555 1_555
Co1A_3 O4 1_555 1_555
Co1_2 O2A 1_555 1_555
Co1_3 O4A 1_555 1_555
Co3_2 O3 1_555 1_555
Co3_3 O3A 1_555 1_555
Co3_4 O1A 1_555 1_555
O1A C15A 1_555 1_555
O1A_2 Co3 1_555 1_555
O2A C14A 1_555 1_555
O2A_2 Co1 1_555 1_555
O2_2 Co1A 1_555 1_555
O3A C14A 1_555 1_555
O3_2 Co3 1_555 1_555
O3A_2 Co3 1_555 1_555
O4A Co3_4 1_555 1_555
O4A_2 Co1 1_555 1_555
O4_2 Co1A 1_555 1_555
O5A C28A 1_555 1_555
O6A Co1A 1_555 1_555
O7A Co2 1_555 1_555
O8A C5A 1_555 1_555
O9A Co2 1_555 1_555
O10A Co1A 1_555 1_555
H1A O10A 1_555 1_555
H2A O10A 1_555 1_555
O11A Co2 1_555 1_555
H3A O11A 1_555 1_555
H4A O11A 1_555 1_555
C1A O6A 1_555 1_555
C2A C1A 1_555 1_555
C3A C2A 1_555 1_555
H5A C3A 1_555 1_555
C4A C3A 1_555 1_555
H6A C4A 1_555 1_555
C5A C4A 1_555 1_555
C6A C5A 1_555 1_555
H7A C6A 1_555 1_555
C7A C2A 1_555 1_555
H8A C7A 1_555 1_555
C8A H9A 1_555 1_555
C9A H10A 1_555 1_555
C10A O8A 1_555 1_555
C11A C9A 1_555 1_555
H11A C11A 1_555 1_555
C12A C11A 1_555 1_555
C13A C8A 1_555 1_555
H12A C13A 1_555 1_555
C14A C12A 1_555 1_555
C15A O9A 1_555 1_555
C16A C15A 1_555 1_555
C17A C16A 1_555 1_555
H13A C17A 1_555 1_555
C18A C17A 1_555 1_555
H14A C18A 1_555 1_555
C19A C18A 1_555 1_555
H15A C19A 1_555 1_555
C20A C19A 1_555 1_555
H16A C20A 1_555 1_555
C21A C16A 1_555 1_555
C22A C21A 1_555 1_555
C23A C22A 1_555 1_555
H17A C23A 1_555 1_555
C24A C23A 1_555 1_555
H18A C24A 1_555 1_555
C25A C24A 1_555 1_555
H19A C25A 1_555 1_555
C26A C25A 1_555 1_555
H20A C26A 1_555 1_555
C27A C22A 1_555 1_555
C28A O4A 1_555 1_555
Co2 O11 1_555 1_555
Co3 O4A_2 1_555 1_555
C6 C7 1_555 1_555
C8 C10 1_555 1_555
C9 C10 1_555 1_555
C12 C13 1_555 1_555
C20 C21 1_555 1_555
C26 C27 1_555 1_555
C27 C28 1_555 1_555
Co1A O11A 1_555 1_555
Co1A_3 O1A_2 1_555 1_555
Co3_4 O4_2 1_555 1_555
O7A C1A 1_555 1_555
C6A C7A 1_555 1_555
C8A C10A 1_555 1_555
C9A C10A 1_555 1_555
C12A C13A 1_555 1_555
C20A C21A 1_555 1_555
C26A C27A 1_555 1_555
C27A C28A 1_555 1_555

#END
