
#######################################################################
#
#                 Cambridge Crystallographic Data Centre
#                                CCDC 
#
#######################################################################
#
# If this CIF has been generated from an entry in the Cambridge 
# Structural Database, then it will include bibliographic, chemical, 
# crystal, experimental, refinement or atomic coordinate data resulting 
# from the CCDC's data processing and validation procedures.
#
#######################################################################

data_GEPDAI
_symmetry_cell_setting           triclinic
_symmetry_space_group_name_H-M   'P -1'
_symmetry_Int_Tables_number      2
_space_group_name_Hall           '-P 1'
loop_
_symmetry_equiv_pos_site_id
_symmetry_equiv_pos_as_xyz
1 x,y,z
2 -x,-y,-z
_cell_length_a                   9.6491(17)
_cell_length_b                   10.7245(17)
_cell_length_c                   10.9775(16)
_cell_angle_alpha                92.771(3)
_cell_angle_beta                 98.955(3)
_cell_angle_gamma                114.076(3)
_cell_volume                     1016.6
loop_
_atom_site_label
_atom_site_type_symbol
_atom_site_fract_x
_atom_site_fract_y
_atom_site_fract_z
Zn1 Zn 0.87088(5) 0.22589(4) 0.48741(4)
O1 O 0.7925(3) 0.3661(3) 0.4881(3)
O2 O 0.5726(3) 0.1897(3) 0.5005(3)
O3 O 0.9015(3) 0.6878(3) 0.4676(3)
O4 O 0.9078(3) 0.6231(3) 0.6557(3)
N1 N 0.7548(4) -0.0182(4) 0.1498(3)
N2 N 0.6545(5) -0.1112(4) 0.2103(4)
N3 N 0.7889(4) 0.0902(3) 0.3315(3)
N4 N 0.7311(4) -0.0511(4) -0.2581(3)
N5 N 0.8797(5) -0.0337(5) -0.2414(4)
N6 N 0.8373(4) 0.1036(3) -0.3756(3)
C1 C 0.7698(6) -0.0549(6) 0.0232(4)
H1 H 0.7941 -0.1361 0.0210
H2 H 0.8556 0.0225 -0.0017
C2 C 0.6208(6) -0.0869(5) -0.0661(4)
H3 H 0.6067 -0.0011 -0.0742
H4 H 0.5332 -0.1516 -0.0321
C3 C 0.6191(6) -0.1503(5) -0.1948(4)
H5 H 0.6436 -0.2309 -0.1858
H6 H 0.5141 -0.1830 -0.2461
C4 C 0.6777(5) -0.0416(4) 0.3193(4)
H7 H 0.6226 -0.0793 0.3830
C5 C 0.8335(5) 0.1009(4) 0.2226(4)
H8 H 0.9098 0.1811 0.2001
C6 C 0.9392(6) 0.0618(6) -0.3136(5)
H9 H 1.0448 0.0977 -0.3211
C7 C 0.7071(5) 0.0293(4) -0.3367(4)
H10 H 0.6109 0.0340 -0.3624
C8 C 0.5750(4) 0.4127(4) 0.5019(3)
C9 C 0.6619(4) 0.5555(4) 0.5225(3)
C10 C 0.4149(4) 0.3597(4) 0.4805(3)
H11 H 0.3563 0.2627 0.4677
C11 C 0.6499(4) 0.3139(4) 0.4976(3)
C12 C 0.8368(4) 0.6237(4) 0.5521(4)
Zn1A Zn 0.12912(5) 0.77411(4) 0.51259(4)
Zn1A_2 Zn 1.12912(5) 0.77411(4) 0.51259(4)
Zn1_2 Zn 0.87088(5) 0.22589(4) -0.51259(4)
Zn1_3 Zn -0.12912(5) 0.22589(4) 0.48741(4)
Zn1_4 Zn 0.87088(5) 0.22589(4) 1.48741(4)
O1A O 0.2075(3) 0.6339(3) 0.5119(3)
O2A O 0.4274(3) 0.8103(3) 0.4995(3)
O3A O 0.0985(3) 0.3122(3) 0.5324(3)
O3A_2 O 1.0985(3) 0.3122(3) 0.5324(3)
O3_2 O -0.0985(3) 0.6878(3) 0.4676(3)
O4A O 0.0922(3) 0.3769(3) 0.3443(3)
N1_2 N 0.7548(4) -0.0182(4) 1.1498(3)
N2_2 N 0.6545(5) -0.1112(4) 1.2103(4)
N3_2 N 0.7889(4) 0.0902(3) 1.3315(3)
N3A N 0.2111(4) 0.9098(3) 0.6685(3)
N4_2 N 0.7311(4) -0.0511(4) 0.7419(3)
N5_2 N 0.8797(5) -0.0337(5) 0.7586(4)
N6_2 N 0.8373(4) 0.1036(3) 0.6244(3)
N6A N 0.1627(4) 0.8964(3) 0.3756(3)
C1_2 C 0.7698(6) -0.0549(6) 1.0232(4)
H1_2 H 0.7941 -0.1361 1.0210
H2_2 H 0.8556 0.0225 0.9983
C2_2 C 0.6208(6) -0.0869(5) 0.9339(4)
H3_2 H 0.6067 -0.0011 0.9258
H4_2 H 0.5332 -0.1516 0.9679
C3_2 C 0.6191(6) -0.1503(5) 0.8052(4)
H5_2 H 0.6436 -0.2309 0.8142
H6_2 H 0.5141 -0.1830 0.7539
C4_2 C 0.6777(5) -0.0416(4) 1.3193(4)
H7_2 H 0.6226 -0.0793 1.3830
C5_2 C 0.8335(5) 0.1009(4) 1.2226(4)
H8_2 H 0.9098 0.1811 1.2001
C6_2 C 0.9392(6) 0.0618(6) 0.6864(5)
H9_2 H 1.0448 0.0977 0.6789
C7_2 C 0.7071(5) 0.0293(4) 0.6633(4)
H10_2 H 0.6109 0.0340 0.6376
C8A C 0.4250(4) 0.5873(4) 0.4981(3)
C9A C 0.3381(4) 0.4445(4) 0.4775(3)
C10A C 0.5851(4) 0.6403(4) 0.5195(3)
H11A H 0.6437 0.7373 0.5323
C11A C 0.3501(4) 0.6861(4) 0.5024(3)
C12A C 0.1632(4) 0.3763(4) 0.4479(4)
O5 O 1.2395(11) 0.3846(10) 0.7865(7)
O6 O 0.7681(9) 0.5097(9) 0.8431(7)
O7 O 0.9393(13) 0.7159(10) 1.0355(8)
O8 O 1.2274(11) 0.7235(9) 1.0502(9)
O9 O 1.2175(12) 0.6343(9) 0.8053(7)
O11 O 1.5323(16) 0.4401(14) 0.9325(14)
O10? O 1.082(2) 0.4753(16) 0.7518(11)
O12? O 1.4546(15) 0.4283(13) 0.8352(13)
O13? O 0.7983(16) 0.6322(16) 0.8786(11)
O14? O 1.2688(16) 0.6890(14) 0.9602(16)
O15? O 1.0405(19) 0.7088(14) 1.0738(13)
loop_
_geom_bond_atom_site_label_1
_geom_bond_atom_site_label_2
_geom_bond_site_symmetry_1
_geom_bond_site_symmetry_2
Zn1 O1 1_555 1_555
O1 C11 1_555 1_555
O2 C11 1_555 1_555
O3 C12 1_555 1_555
O4 C12 1_555 1_555
N1 N2 1_555 1_555
N2 C4 1_555 1_555
N3 Zn1 1_555 1_555
N4 N5 1_555 1_555
N5 C6 1_555 1_555
N6 C6 1_555 1_555
C1 N1 1_555 1_555
H1 C1 1_555 1_555
H2 C1 1_555 1_555
C2 C1 1_555 1_555
H3 C2 1_555 1_555
H4 C2 1_555 1_555
C3 N4 1_555 1_555
H5 C3 1_555 1_555
H6 C3 1_555 1_555
C4 N3 1_555 1_555
H7 C4 1_555 1_555
C5 N1 1_555 1_555
H8 C5 1_555 1_555
C6 H9 1_555 1_555
C7 N4 1_555 1_555
H10 C7 1_555 1_555
C8 C9 1_555 1_555
C9 C12 1_555 1_555
C10 C8 1_555 1_555
H11 C10 1_555 1_555
C11 C8 1_555 1_555
Zn1A O1A 1_555 1_555
Zn1A_2 O3 1_555 1_555
Zn1_2 N6 1_555 1_555
Zn1_3 O3A 1_555 1_555
Zn1_4 N3_2 1_555 1_555
O1A C11A 1_555 1_555
O2A C11A 1_555 1_555
O3A C12A 1_555 1_555
O3A_2 Zn1 1_555 1_555
O3_2 Zn1A 1_555 1_555
O4A C12A 1_555 1_555
N1_2 N2_2 1_555 1_555
N2_2 C4_2 1_555 1_555
N3_2 C4_2 1_555 1_555
N3A Zn1A 1_555 1_555
N4_2 N5_2 1_555 1_555
N5_2 C6_2 1_555 1_555
N6_2 Zn1 1_555 1_555
N6A Zn1A 1_555 1_555
C1_2 N1_2 1_555 1_555
H1_2 C1_2 1_555 1_555
H2_2 C1_2 1_555 1_555
C2_2 C1_2 1_555 1_555
H3_2 C2_2 1_555 1_555
H4_2 C2_2 1_555 1_555
C3_2 N4_2 1_555 1_555
H5_2 C3_2 1_555 1_555
H6_2 C3_2 1_555 1_555
C4_2 H7_2 1_555 1_555
C5_2 N1_2 1_555 1_555
H8_2 C5_2 1_555 1_555
C6_2 N6_2 1_555 1_555
H9_2 C6_2 1_555 1_555
C7_2 N4_2 1_555 1_555
H10_2 C7_2 1_555 1_555
C8A C9A 1_555 1_555
C9A C10 1_555 1_555
C10A C9 1_555 1_555
H11A C10A 1_555 1_555
C11A C8A 1_555 1_555
C12A C9A 1_555 1_555
N3 C5 1_555 1_555
N6 C7 1_555 1_555
C2 C3 1_555 1_555
N3_2 C5_2 1_555 1_555
N6_2 C7_2 1_555 1_555
C2_2 C3_2 1_555 1_555
C8A C10A 1_555 1_555

#END
