
#######################################################################
#
#                 Cambridge Crystallographic Data Centre
#                                CCDC 
#
#######################################################################
#
# If this CIF has been generated from an entry in the Cambridge 
# Structural Database, then it will include bibliographic, chemical, 
# crystal, experimental, refinement or atomic coordinate data resulting 
# from the CCDC's data processing and validation procedures.
#
#######################################################################

data_GEPDIQ
_symmetry_cell_setting           monoclinic
_symmetry_space_group_name_H-M   'P 21/c'
_symmetry_Int_Tables_number      14
_space_group_name_Hall           '-P 2ybc'
loop_
_symmetry_equiv_pos_site_id
_symmetry_equiv_pos_as_xyz
1 x,y,z
2 -x,1/2+y,1/2-z
3 -x,-y,-z
4 x,1/2-y,1/2+z
_cell_length_a                   15.048(5)
_cell_length_b                   26.948(5)
_cell_length_c                   13.701(5)
_cell_angle_alpha                90
_cell_angle_beta                 108.777(5)
_cell_angle_gamma                90
_cell_volume                     5260.25
loop_
_atom_site_label
_atom_site_type_symbol
_atom_site_fract_x
_atom_site_fract_y
_atom_site_fract_z
C1 C 0.1374(6) 0.7655(2) 0.3057(5)
C2 C 0.2204(4) 0.7291(2) 0.3326(5)
H1 H 0.2543 0.7343 0.2841
H2 H 0.2627 0.7376 0.4005
C3 C 0.1942(4) 0.6488(2) 0.2478(5)
C4 C 0.1761(3) 0.6670(2) 0.1505(5)
H3 H 0.1633 0.7005 0.1375
C5 C 0.1770(4) 0.6349(2) 0.0699(4)
H4 H 0.1671 0.6476 0.0042
C6 C 0.1921(3) 0.5853(2) 0.0873(4)
H5 H 0.1920 0.5644 0.0332
C7 C 0.2079(3) 0.5650(2) 0.1877(4)
C8 C 0.2106(3) 0.5975(2) 0.2703(4)
C9 C 0.2301(4) 0.5773(2) 0.3710(4)
H6 H 0.2320 0.5978 0.4263
C10 C 0.2461(4) 0.5276(2) 0.3859(5)
H7 H 0.2595 0.5149 0.4522
C11 C 0.2430(4) 0.4948(2) 0.3049(4)
H8 H 0.2534 0.4611 0.3172
C12 C 0.2244(3) 0.5136(2) 0.2080(4)
C13 C 0.2467(3) 0.43378(19) 0.1367(4)
H9 H 0.2227 0.4166 0.0712
H10 H 0.2194 0.4183 0.1842
C14 C 0.3528(4) 0.4275(2) 0.1779(4)
C15 C 0.7812(4) 0.8239(2) 0.1627(4)
C16 C 0.6754(3) 0.81835(18) 0.1352(4)
H11 H 0.6552 0.8347 0.1876
H12 H 0.6453 0.8351 0.0702
C17 C 0.6680(3) 0.7404(2) 0.2146(4)
C18 C 0.6818(4) 0.7594(2) 0.3116(4)
H13 H 0.6774 0.7934 0.3203
C19 C 0.7024(4) 0.7277(2) 0.3975(4)
H14 H 0.7097 0.7410 0.4622
C20 C 0.7118(3) 0.6781(2) 0.3876(4)
H15 H 0.7274 0.6579 0.4457
C21 C 0.6981(3) 0.6569(2) 0.2891(4)
C22 C 0.6754(3) 0.6881(2) 0.2002(4)
C23 C 0.6635(4) 0.6672(2) 0.1022(4)
H16 H 0.6487 0.6872 0.0438
C24 C 0.6739(4) 0.6173(2) 0.0948(4)
H17 H 0.6653 0.6036 0.0301
C25 C 0.6971(4) 0.5859(2) 0.1804(4)
H18 H 0.7043 0.5519 0.1730
C26 C 0.7090(4) 0.60578(19) 0.2745(4)
C27 C 0.7652(4) 0.52833(19) 0.3650(4)
H19 H 0.8060 0.5204 0.4339
H20 H 0.8025 0.5263 0.3191
C28 C 0.6877(4) 0.4896(2) 0.3325(4)
C29 C 0.5562(3) 0.29697(18) 0.2520(4)
H21 H 0.4976 0.2951 0.2015
C30 C 0.6819(3) 0.32490(19) 0.3573(4)
H22 H 0.7286 0.3468 0.3939
C31 C 0.6852(4) 0.27559(18) 0.3698(4)
H23 H 0.7329 0.2574 0.4163
C32 C 0.5798(3) 0.20618(17) 0.2860(4)
C33 C 0.5543(3) 0.18450(17) 0.1884(4)
H24 H 0.5483 0.2040 0.1306
C34 C 0.5381(3) 0.13451(18) 0.1780(4)
C35 C 0.5443(3) 0.10479(17) 0.2630(4)
H25 H 0.5327 0.0709 0.2553
C36 C 0.5684(3) 0.12701(17) 0.3600(4)
C37 C 0.5876(3) 0.17702(17) 0.3719(4)
H26 H 0.6058 0.1912 0.4372
C38 C 0.5922(3) 0.04790(17) 0.4613(4)
H27 H 0.6033 0.0261 0.4139
C39 C 0.5894(3) 0.03668(18) 0.5545(4)
H28 H 0.5983 0.0050 0.5828
C40 C 0.5637(4) 0.1133(2) 0.5372(4)
H29 H 0.5511 0.1460 0.5497
C41 C 0.5509(3) 0.12238(18) 0.0023(4)
H30 H 0.5909 0.1490 0.0044
C42 C 0.4651(4) 0.05916(18) -0.0463(4)
H31 H 0.4339 0.0327 -0.0863
C43 C 0.4602(4) 0.07038(18) 0.0466(4)
H32 H 0.4257 0.0538 0.0820
C44 C 1.0003(4) 0.9528(3) 0.2530(4)
H33 H 0.9367 0.9579 0.2192
C45 C 1.1311(4) 0.9178(2) 0.3186(4)
H34 H 1.1771 0.8935 0.3398
C46 C 1.1464(4) 0.9670(2) 0.3311(5)
H35 H 1.2038 0.9824 0.3628
C47 C 1.0481(4) 1.1361(2) 0.0089(4)
H36 H 1.0969 1.1141 0.0135
C48 C 0.9475(5) 1.1905(3) -0.0472(5)
H37 H 0.8974 1.2073 -0.0932
C49 C 0.9349(10) 1.1731(5) 0.0408(9)
H38 H 0.8857 1.1802 0.0657
C50 C 1.0308(3) 1.0664(2) 0.1848(4)
H39 H 1.0194 1.0479 0.1247
C51 C 1.0499(3) 1.0430(2) 0.2801(4)
C52 C 1.0622(3) 1.0704(2) 0.3703(4)
H40 H 1.0741 1.0545 0.4335
C53 C 1.0564(3) 1.1214(2) 0.3632(4)
C54 C 1.0412(3) 1.1454(2) 0.2701(4)
H41 H 1.0391 1.1799 0.2667
C55 C 1.0292(3) 1.1172(2) 0.1813(4)
C56 C 1.0973(4) 1.1981(2) 0.4736(4)
H42 H 1.1193 1.2183 0.4312
C57 C 1.0405(3) 1.1353(2) 0.5363(4)
H43 H 1.0173 1.1040 0.5432
C58 C 1.0898(4) 1.2102(2) 0.5660(5)
H44 H 1.1072 1.2406 0.5989
N1 N 1.0383(3) 0.90920(18) 0.2706(3)
N2 N 1.0618(3) 0.99019(17) 0.2883(3)
N3 N 1.0660(3) 1.14974(17) 0.4542(3)
N4 N 1.0524(3) 1.17106(19) 0.6048(3)
N5 N 1.0111(3) 1.14244(17) 0.0851(3)
N6 N 1.0100(3) 1.16327(17) -0.0715(3)
N7 N 0.6008(3) 0.33858(15) 0.2838(3)
N8 N 0.6044(3) 0.25703(14) 0.3006(3)
N9 N 0.5756(3) 0.09757(14) 0.4485(3)
N10 N 0.5718(3) 0.07737(15) 0.6030(3)
N11 N 0.5156(3) 0.11085(14) 0.0791(3)
N12 N 0.5215(3) 0.09134(14) -0.0752(3)
O1 O 0.6052(2) 0.50226(13) 0.2942(3)
O2 O 0.7327(3) 0.57815(14) 0.3646(3)
O4 O 0.6446(2) 0.76790(13) 0.1264(3)
O5 O 0.8322(2) 0.78613(14) 0.1754(3)
O6 O 0.0584(3) 0.75304(18) 0.2569(3)
O7 O 0.1984(3) 0.67808(15) 0.3323(3)
O8 O 0.2171(2) 0.48493(14) 0.1225(3)
O9 O 0.4050(2) 0.46434(13) 0.2065(3)
O10 O 0.7163(3) 0.44546(14) 0.3485(3)
O11 O 0.8127(3) 0.86759(14) 0.1707(3)
O12 O 0.1438(6) 0.8090(3) 0.3196(7)
O13 O 0.3835(2) 0.38407(13) 0.1808(3)
Cd1 Cd 0.54628(2) 0.419530(13) 0.26344(3)
Cd2 Cd 0.97313(3) 0.830140(16) 0.23519(3)
N4B N 0.9476(3) 0.82894(19) 0.3952(3)
N6B N 0.9900(3) 0.83673(17) 0.0715(3)
N10C N 0.5718(3) 0.42263(15) 0.1030(3)
N12C N 0.5215(3) 0.40866(14) 0.4248(3)
O6_2 O 1.0584(3) 0.75304(18) 0.2569(3)
O12_2 O 1.1438(6) 0.8090(3) 0.3196(7)
Cd1C Cd 0.54628(2) 0.080470(13) 0.76344(3)
Cd1C_2 Cd 0.54628(2) 0.080470(13) -0.23656(3)
Cd2B Cd 1.02687(3) 1.169860(16) 0.76481(3)
Cd2B_2 Cd 1.02687(3) 1.169860(16) -0.23519(3)
Cd2_2 Cd -0.02687(3) 0.830140(16) 0.23519(3)
O3 O -0.0880(5) 0.4471(3) 0.4367(6)
C59? C -0.0294(19) 1.1898(9) 0.0647(16)
O14? O 0.1867(9) 0.8057(5) 0.3619(10)
loop_
_geom_bond_atom_site_label_1
_geom_bond_atom_site_label_2
_geom_bond_site_symmetry_1
_geom_bond_site_symmetry_2
C1 C2 1_555 1_555
C2 H1 1_555 1_555
H2 C2 1_555 1_555
C3 C4 1_555 1_555
C4 H3 1_555 1_555
C5 C4 1_555 1_555
H4 C5 1_555 1_555
C6 C5 1_555 1_555
H5 C6 1_555 1_555
C7 C6 1_555 1_555
C8 C3 1_555 1_555
C9 C8 1_555 1_555
H6 C9 1_555 1_555
C10 C9 1_555 1_555
H7 C10 1_555 1_555
C11 C10 1_555 1_555
H8 C11 1_555 1_555
C12 C7 1_555 1_555
C13 H9 1_555 1_555
H10 C13 1_555 1_555
C14 C13 1_555 1_555
C15 C16 1_555 1_555
C16 H11 1_555 1_555
H12 C16 1_555 1_555
C17 C18 1_555 1_555
C18 H13 1_555 1_555
C19 C18 1_555 1_555
H14 C19 1_555 1_555
C20 C19 1_555 1_555
H15 C20 1_555 1_555
C21 C20 1_555 1_555
C22 C17 1_555 1_555
C23 C22 1_555 1_555
H16 C23 1_555 1_555
C24 C23 1_555 1_555
H17 C24 1_555 1_555
C25 C24 1_555 1_555
H18 C25 1_555 1_555
C26 C21 1_555 1_555
C27 H19 1_555 1_555
H20 C27 1_555 1_555
C28 C27 1_555 1_555
C29 H21 1_555 1_555
C30 H22 1_555 1_555
C31 C30 1_555 1_555
H23 C31 1_555 1_555
C32 C33 1_555 1_555
C33 H24 1_555 1_555
C34 C33 1_555 1_555
C35 C34 1_555 1_555
H25 C35 1_555 1_555
C36 C35 1_555 1_555
C37 C32 1_555 1_555
H26 C37 1_555 1_555
C38 H27 1_555 1_555
C39 C38 1_555 1_555
H28 C39 1_555 1_555
C40 H29 1_555 1_555
C41 H30 1_555 1_555
C42 H31 1_555 1_555
C43 C42 1_555 1_555
H32 C43 1_555 1_555
C44 H33 1_555 1_555
C45 H34 1_555 1_555
C46 C45 1_555 1_555
H35 C46 1_555 1_555
C47 H36 1_555 1_555
C48 H37 1_555 1_555
C49 C48 1_555 1_555
H38 C49 1_555 1_555
C50 H39 1_555 1_555
C51 C50 1_555 1_555
C52 C51 1_555 1_555
H40 C52 1_555 1_555
C53 C52 1_555 1_555
C54 C53 1_555 1_555
H41 C54 1_555 1_555
C55 C50 1_555 1_555
C56 H42 1_555 1_555
C57 H43 1_555 1_555
C58 C56 1_555 1_555
H44 C58 1_555 1_555
N1 C44 1_555 1_555
N2 C44 1_555 1_555
N3 C53 1_555 1_555
N4 C57 1_555 1_555
N5 C47 1_555 1_555
N6 C47 1_555 1_555
N7 C29 1_555 1_555
N8 C29 1_555 1_555
N9 C36 1_555 1_555
N10 C39 1_555 1_555
N11 C34 1_555 1_555
N12 C41 1_555 1_555
O1 C28 1_555 1_555
O2 C26 1_555 1_555
O4 C16 1_555 1_555
O5 C15 1_555 1_555
O6 C1 1_555 1_555
O7 C2 1_555 1_555
O8 C12 1_555 1_555
O9 C14 1_555 1_555
O10 C28 1_555 1_555
O11 C15 1_555 1_555
O12 C1 1_555 1_555
O13 C14 1_555 1_555
Cd1 N7 1_555 1_555
Cd2 N1 1_555 1_555
N4B Cd2 1_555 1_555
N6B Cd2 1_555 1_555
N10C Cd1 1_555 1_555
N12C Cd1 1_555 1_555
O6_2 Cd2 1_555 1_555
O12_2 Cd2 1_555 1_555
Cd1C N10 1_555 1_555
Cd1C_2 N12 1_555 1_555
Cd2B N4 1_555 1_555
Cd2B_2 N6 1_555 1_555
Cd2_2 O6 1_555 1_555
C3 O7 1_555 1_555
C7 C8 1_555 1_555
C11 C12 1_555 1_555
C13 O8 1_555 1_555
C17 O4 1_555 1_555
C21 C22 1_555 1_555
C25 C26 1_555 1_555
C27 O2 1_555 1_555
C30 N7 1_555 1_555
C31 N8 1_555 1_555
C32 N8 1_555 1_555
C36 C37 1_555 1_555
C38 N9 1_555 1_555
C40 N9 1_555 1_555
C40 N10 1_555 1_555
C41 N11 1_555 1_555
C42 N12 1_555 1_555
C43 N11 1_555 1_555
C45 N1 1_555 1_555
C46 N2 1_555 1_555
C48 N6 1_555 1_555
C49 N5 1_555 1_555
C51 N2 1_555 1_555
C54 C55 1_555 1_555
C55 N5 1_555 1_555
C56 N3 1_555 1_555
C57 N3 1_555 1_555
C58 N4 1_555 1_555
O1 Cd1 1_555 1_555
O5 Cd2 1_555 1_555
O9 Cd1 1_555 1_555
O10 Cd1 1_555 1_555
O11 Cd2 1_555 1_555
O12 Cd2_2 1_555 1_555
O13 Cd1 1_555 1_555

#END
