
#######################################################################
#
#                 Cambridge Crystallographic Data Centre
#                                CCDC 
#
#######################################################################
#
# If this CIF has been generated from an entry in the Cambridge 
# Structural Database, then it will include bibliographic, chemical, 
# crystal, experimental, refinement or atomic coordinate data resulting 
# from the CCDC's data processing and validation procedures.
#
#######################################################################

data_GEPFOY
_symmetry_cell_setting           triclinic
_symmetry_space_group_name_H-M   'P -1'
_symmetry_Int_Tables_number      2
_space_group_name_Hall           '-P 1'
loop_
_symmetry_equiv_pos_site_id
_symmetry_equiv_pos_as_xyz
1 x,y,z
2 -x,-y,-z
_cell_length_a                   7.0601(9)
_cell_length_b                   7.9403(10)
_cell_length_c                   11.1222(14)
_cell_angle_alpha                70.294(2)
_cell_angle_beta                 81.136(2)
_cell_angle_gamma                77.223(2)
_cell_volume                     570.302
loop_
_atom_site_label
_atom_site_type_symbol
_atom_site_fract_x
_atom_site_fract_y
_atom_site_fract_z
Cu1 Cu 0.5000 1.0000 0.5000
Cu2 Cu 0.0000 1.0000 0.5000
O1 O 0.2016(3) 1.2050(3) 0.5058(2)
O2 O 0.2289(4) 1.4788(3) 0.4912(2)
O3 O 0.2076(3) 1.4163(3) 0.3185(2)
N1 N 0.3501(3) 0.8512(3) 0.6543(2)
N2 N 0.1609(3) 0.8367(3) 0.6462(2)
N3 N 0.2457(3) 0.6728(3) 0.8368(2)
N4 N 0.2434(3) 0.5627(3) 0.9662(2)
H1 H 0.2481 0.4452 0.9745
H2 H 0.1348 0.6107 1.0060
N5 N 0.3974(3) 0.8989(3) 0.3879(2)
N6 N 0.2006(3) 0.9140(3) 0.3782(2)
N7 N 0.3673(3) 0.7827(3) 0.2434(2)
N8 N 0.4203(4) 0.7044(3) 0.1437(2)
H3 H 0.3531 0.6125 0.1687
H4 H 0.3828 0.7902 0.0704
N9 N 0.2112(4) 1.3712(3) 0.4378(2)
C1 C 0.1022(4) 0.7275(4) 0.7569(3)
H5 H -0.0220 0.6922 0.7777
C2 C 0.3963(4) 0.7531(4) 0.7705(3)
H6 H 0.5172 0.7405 0.8031
C3 C 0.1863(4) 0.8427(4) 0.2906(3)
H7 H 0.0678 0.8344 0.2643
C4 C 0.4943(4) 0.8175(4) 0.3059(3)
H8 H 0.6322 0.7882 0.2930
Cu2_2 Cu 1.0000 1.0000 0.5000
O1A O 0.7984(3) 0.7950(3) 0.4942(2)
O1A_2 O -0.2016(3) 0.7950(3) 0.4942(2)
O2A O 0.7711(4) 0.5212(3) 0.5088(2)
O3A O 0.7924(3) 0.5837(3) 0.6815(2)
N1A N 0.6499(3) 1.1488(3) 0.3457(2)
N2A N 0.8391(3) 1.1633(3) 0.3538(2)
N2A_2 N -0.1609(3) 1.1633(3) 0.3538(2)
N3A N 0.7543(3) 1.3272(3) 0.1632(2)
N4A N 0.7566(3) 1.4373(3) 0.0338(2)
H1A H 0.7519 1.5548 0.0255
H2A H 0.8652 1.3893 -0.0060
N5A N 0.6026(3) 1.1011(3) 0.6121(2)
N6A N 0.7994(3) 1.0860(3) 0.6218(2)
N6A_2 N -0.2006(3) 1.0860(3) 0.6218(2)
N7A N 0.6327(3) 1.2173(3) 0.7566(2)
N8A N 0.5797(4) 1.2956(3) 0.8563(2)
H3A H 0.6469 1.3875 0.8313
H4A H 0.6172 1.2098 0.9296
N9A N 0.7888(4) 0.6288(3) 0.5622(2)
C1A C 0.8978(4) 1.2725(4) 0.2431(3)
H5A H 1.0220 1.3078 0.2223
C2A C 0.6037(4) 1.2469(4) 0.2295(3)
H6A H 0.4828 1.2595 0.1969
C3A C 0.8137(4) 1.1573(4) 0.7094(3)
H7A H 0.9322 1.1656 0.7357
C4A C 0.5057(4) 1.1825(4) 0.6941(3)
H8A H 0.3678 1.2118 0.7070
O4 O 0.2063(3) 0.1564(3) 1.0527(2)
O5 O 0.2249(3) -0.0033(3) 0.9245(2)
O6 O 0.0844(3) 0.2809(3) 0.8681(2)
N10 N 0.1721(4) 0.1435(4) 0.9493(2)
loop_
_geom_bond_atom_site_label_1
_geom_bond_atom_site_label_2
_geom_bond_site_symmetry_1
_geom_bond_site_symmetry_2
Cu1 O1 1_555 1_555
Cu2 O1 1_555 1_555
O1 N9 1_555 1_555
O2 N9 1_555 1_555
O3 N9 1_555 1_555
O4 N10 1_555 1_555
O5 N10 1_555 1_555
O6 N10 1_555 1_555
N1 Cu1 1_555 1_555
N2 Cu2 1_555 1_555
N3 N4 1_555 1_555
N4 H1 1_555 1_555
H2 N4 1_555 1_555
N5 Cu1 1_555 1_555
N6 Cu2 1_555 1_555
N7 N8 1_555 1_555
N8 H3 1_555 1_555
H4 N8 1_555 1_555
C1 N2 1_555 1_555
H5 C1 1_555 1_555
C2 N1 1_555 1_555
H6 C2 1_555 1_555
C3 N6 1_555 1_555
H7 C3 1_555 1_555
C4 N5 1_555 1_555
H8 C4 1_555 1_555
Cu2_2 O1A 1_555 1_555
O1A Cu1 1_555 1_555
O1A_2 Cu2 1_555 1_555
O2A N9A 1_555 1_555
O3A N9A 1_555 1_555
N1A Cu1 1_555 1_555
N2A Cu2_2 1_555 1_555
N2A_2 Cu2 1_555 1_555
N3A N4A 1_555 1_555
N4A H1A 1_555 1_555
H2A N4A 1_555 1_555
N5A Cu1 1_555 1_555
N6A Cu2_2 1_555 1_555
N6A_2 Cu2 1_555 1_555
N7A N8A 1_555 1_555
N8A H3A 1_555 1_555
H4A N8A 1_555 1_555
N9A O1A 1_555 1_555
C1A N2A 1_555 1_555
H5A C1A 1_555 1_555
C2A N1A 1_555 1_555
H6A C2A 1_555 1_555
C3A N6A 1_555 1_555
H7A C3A 1_555 1_555
C4A N5A 1_555 1_555
H8A C4A 1_555 1_555
N1 N2 1_555 1_555
N3 C1 1_555 1_555
N3 C2 1_555 1_555
N5 N6 1_555 1_555
N7 C3 1_555 1_555
N7 C4 1_555 1_555
N1A N2A 1_555 1_555
N3A C1A 1_555 1_555
N3A C2A 1_555 1_555
N5A N6A 1_555 1_555
N7A C3A 1_555 1_555
N7A C4A 1_555 1_555

#END
