
#######################################################################
#
#                 Cambridge Crystallographic Data Centre
#                                CCDC 
#
#######################################################################
#
# If this CIF has been generated from an entry in the Cambridge 
# Structural Database, then it will include bibliographic, chemical, 
# crystal, experimental, refinement or atomic coordinate data resulting 
# from the CCDC's data processing and validation procedures.
#
#######################################################################

data_GEPFIS
_symmetry_cell_setting           triclinic
_symmetry_space_group_name_H-M   'P -1'
_symmetry_Int_Tables_number      2
_space_group_name_Hall           '-P 1'
loop_
_symmetry_equiv_pos_site_id
_symmetry_equiv_pos_as_xyz
1 x,y,z
2 -x,-y,-z
_cell_length_a                   6.3380(15)
_cell_length_b                   6.8309(16)
_cell_length_c                   7.8061(19)
_cell_angle_alpha                72.787(3)
_cell_angle_beta                 85.150(3)
_cell_angle_gamma                75.915(3)
_cell_volume                     313.088
loop_
_atom_site_label
_atom_site_type_symbol
_atom_site_fract_x
_atom_site_fract_y
_atom_site_fract_z
Cu1 Cu 0.5000 0.0000 1.0000
Cu2 Cu 0.5000 0.5000 1.0000
O1 O 0.7575(3) 0.0026(3) 0.7270(3)
O2 O 0.7501(3) -0.0348(3) 0.4606(3)
O3 O 0.6358(3) 0.2739(3) 0.5027(3)
O4 O 0.6239(3) 0.1966(3) 1.0733(3)
H1 H 0.6408 0.1463 1.1859
N1 N 0.2657(4) 0.4437(3) 0.8768(3)
N2 N 0.2590(4) 0.2407(3) 0.8856(3)
N3 N -0.0405(3) 0.4519(3) 0.7676(3)
N4 N -0.2623(4) 0.5265(4) 0.7160(3)
H2 H -0.2831 0.4361 0.6589
H3 H -0.2777 0.6589 0.6437
N5 N 0.7136(4) 0.0811(4) 0.5638(3)
C1 C 0.0716(4) 0.2491(4) 0.8205(3)
H4 H 0.0237 0.1340 0.8120
C2 C 0.0839(4) 0.5680(4) 0.8054(4)
H5 H 0.0465 0.7134 0.7841
Cu2_2 Cu -0.5000 0.5000 1.0000
Cu2_3 Cu 0.5000 -0.5000 1.0000
Cu2_4 Cu 1.5000 -0.5000 1.0000
O1A O 0.2425(3) -0.0026(3) 1.2730(3)
O2A O 0.2499(3) 0.0348(3) 1.5394(3)
O3A O 0.3642(3) -0.2739(3) 1.4973(3)
O4A O 0.3761(3) -0.1966(3) 0.9267(3)
O4A_2 O 0.3761(3) 0.8034(3) 0.9267(3)
H1A H 0.3592 -0.1463 0.8141
H1A_2 H 0.3592 0.8537 0.8141
N1A N 0.7343(4) -0.4437(3) 1.1232(3)
N1A_2 N 0.7343(4) 0.5563(3) 1.1232(3)
N2A N 0.7410(4) -0.2407(3) 1.1144(3)
N3A N 1.0405(3) -0.4519(3) 1.2324(3)
N4A N 1.2623(4) -0.5265(4) 1.2840(3)
N4_2 N 0.7377(4) 0.5265(4) 0.7160(3)
N4A_2 N 0.2623(4) 0.4735(4) 1.2840(3)
H2A H 1.2831 -0.4361 1.3411
H2_2 H 0.7169 0.4361 0.6589
H2A_2 H 0.2831 0.5639 1.3411
H3A H 1.2777 -0.6589 1.3563
H3_2 H 0.7223 0.6589 0.6437
H3A_2 H 0.2777 0.3411 1.3563
N5A N 0.2864(4) -0.0811(4) 1.4362(3)
C1A C 0.9284(4) -0.2491(4) 1.1795(3)
H4A H 0.9763 -0.1340 1.1880
C2A C 0.9161(4) -0.5680(4) 1.1946(4)
H5A H 0.9535 -0.7134 1.2159
loop_
_geom_bond_atom_site_label_1
_geom_bond_atom_site_label_2
_geom_bond_site_symmetry_1
_geom_bond_site_symmetry_2
Cu1 O1 1_555 1_555
Cu2 O4 1_555 1_555
O1 N5 1_555 1_555
O2 N5 1_555 1_555
O3 N5 1_555 1_555
O4 Cu1 1_555 1_555
H1 O4 1_555 1_555
N1 Cu2 1_555 1_555
N2 Cu1 1_555 1_555
N3 N4 1_555 1_555
N4 H2 1_555 1_555
H3 N4 1_555 1_555
C1 N2 1_555 1_555
H4 C1 1_555 1_555
C2 N1 1_555 1_555
H5 C2 1_555 1_555
Cu2_2 N4 1_555 1_555
Cu2_3 O4A 1_555 1_555
Cu2_4 N4A 1_555 1_555
O1A Cu1 1_555 1_555
O2A N5A 1_555 1_555
O3A N5A 1_555 1_555
O4A Cu1 1_555 1_555
O4A_2 Cu2 1_555 1_555
H1A O4A 1_555 1_555
H1A_2 O4A_2 1_555 1_555
N1A Cu2_3 1_555 1_555
N1A_2 Cu2 1_555 1_555
N2A Cu1 1_555 1_555
N3A N4A 1_555 1_555
N4A H2A 1_555 1_555
N4_2 Cu2 1_555 1_555
N4A_2 Cu2 1_555 1_555
H2_2 N4_2 1_555 1_555
H2A_2 N4A_2 1_555 1_555
H3A N4A 1_555 1_555
H3_2 N4_2 1_555 1_555
H3A_2 N4A_2 1_555 1_555
N5A O1A 1_555 1_555
C1A N2A 1_555 1_555
H4A C1A 1_555 1_555
C2A N1A 1_555 1_555
H5A C2A 1_555 1_555
N1 N2 1_555 1_555
N3 C1 1_555 1_555
N3 C2 1_555 1_555
N1A N2A 1_555 1_555
N3A C1A 1_555 1_555
N3A C2A 1_555 1_555

#END
