
#######################################################################
#
#                 Cambridge Crystallographic Data Centre
#                                CCDC 
#
#######################################################################
#
# If this CIF has been generated from an entry in the Cambridge 
# Structural Database, then it will include bibliographic, chemical, 
# crystal, experimental, refinement or atomic coordinate data resulting 
# from the CCDC's data processing and validation procedures.
#
#######################################################################

data_GEPFEO
_symmetry_cell_setting           triclinic
_symmetry_space_group_name_H-M   'P -1'
_symmetry_Int_Tables_number      2
_space_group_name_Hall           '-P 1'
loop_
_symmetry_equiv_pos_site_id
_symmetry_equiv_pos_as_xyz
1 x,y,z
2 -x,-y,-z
_cell_length_a                   6.1925(13)
_cell_length_b                   9.2427(19)
_cell_length_c                   9.845(2)
_cell_angle_alpha                108.222(3)
_cell_angle_beta                 107.484(3)
_cell_angle_gamma                90.664(3)
_cell_volume                     507.023
loop_
_atom_site_label
_atom_site_type_symbol
_atom_site_fract_x
_atom_site_fract_y
_atom_site_fract_z
Yb1 Yb 0.28975(6) 0.27255(4) 1.12190(4)
Br1 Br 0.66664(19) 0.21777(13) 1.65508(12)
O1 O 0.5697(12) 0.1546(8) 1.2513(8)
O2 O 0.5260(14) 0.1805(10) 0.9712(10)
H1 H 0.4882 0.0844 0.9237
H2 H 0.6653 0.1955 1.0276
O3 O 0.8409(14) 0.3435(9) 1.4123(9)
O4 O 0.5715(12) 0.4782(8) 1.2287(8)
H3 H 0.6780 0.4606 1.2924
O5 O 0.9023(14) -0.1260(9) 1.7963(9)
O6 O 0.2934(13) 0.4058(9) 1.3731(9)
O7 O 1.0662(15) 0.1149(9) 1.9013(8)
O8 O 0.2461(12) 0.4351(8) 0.9671(8)
O9 O 0.0456(12) 0.6149(9) 0.8987(9)
C1 C 0.7515(16) 0.2101(11) 1.3599(10)
C2 C 0.8784(17) 0.0993(11) 1.4311(12)
C3 C 0.8649(16) 0.0947(11) 1.5695(10)
C4 C 0.9894(17) -0.0018(12) 1.6406(12)
C5 C 0.9817(15) -0.0047(11) 1.7944(10)
C6 C 0.0852(17) 0.5146(11) 0.9621(11)
Yb1A Yb 1.71025(6) -0.27255(4) 1.87810(4)
Yb1A_2 Yb 0.71025(6) -0.27255(4) 1.87810(4)
Yb1_2 Yb 1.28975(6) 0.27255(4) 2.12190(4)
Yb1A_3 Yb -0.28975(6) 0.72745(4) 0.87810(4)
Yb1_3 Yb 1.28975(6) 0.27255(4) 1.12190(4)
Yb1A_4 Yb 0.71025(6) -0.27255(4) 0.87810(4)
Br1A Br 1.33336(19) -0.21777(13) 1.34492(12)
O1A O 1.4303(12) -0.1546(8) 1.7487(8)
O2A O 1.4740(14) -0.1805(10) 2.0288(10)
H1A H 1.5118 -0.0844 2.0763
H2A H 1.3347 -0.1955 1.9724
O3A O 1.1591(14) -0.3435(9) 1.5877(9)
O4A O 1.4285(12) -0.4782(8) 1.7713(8)
H3A H 1.3220 -0.4606 1.7076
O5A O 1.0977(14) 0.1260(9) 1.2037(9)
O5A_2 O 0.0977(14) 0.1260(9) 1.2037(9)
O5_2 O 1.9023(14) -0.1260(9) 1.7963(9)
O6A O 1.7066(13) -0.4058(9) 1.6269(9)
O7A O 0.9338(15) -0.1149(9) 1.0987(8)
O7_2 O 0.0662(15) 0.1149(9) 0.9013(8)
O7A_2 O 1.9338(15) -0.1149(9) 2.0987(8)
O8A O -0.2461(12) 0.5649(8) 1.0329(8)
O8A_2 O 1.7539(12) -0.4351(8) 2.0329(8)
O9A O -0.0456(12) 0.3851(9) 1.1013(9)
O9_2 O 2.0456(12) -0.3851(9) 1.8987(9)
C1A C 1.2485(16) -0.2101(11) 1.6401(10)
C2A C 1.1216(17) -0.0993(11) 1.5689(12)
C3A C 1.1351(16) -0.0947(11) 1.4305(10)
C4A C 1.0106(17) 0.0018(12) 1.3594(12)
C5A C 1.0183(15) 0.0047(11) 1.2056(10)
C6A C -0.0852(17) 0.4854(11) 1.0379(11)
loop_
_geom_bond_atom_site_label_1
_geom_bond_atom_site_label_2
_geom_bond_site_symmetry_1
_geom_bond_site_symmetry_2
Yb1 O1 1_555 1_555
Br1 C3 1_555 1_555
O1 C1 1_555 1_555
O2 Yb1 1_555 1_555
H1 O2 1_555 1_555
H2 O2 1_555 1_555
O3 C1 1_555 1_555
O4 Yb1 1_555 1_555
H3 O4 1_555 1_555
O5 C5 1_555 1_555
O6 Yb1 1_555 1_555
O7 C5 1_555 1_555
O8 Yb1 1_555 1_555
O9 C6 1_555 1_555
C1 C2 1_555 1_555
C2 C3 1_555 1_555
C3 C4 1_555 1_555
C4 C5 1_555 1_555
C6 O8 1_555 1_555
Yb1A O1A 1_555 1_555
Yb1A_2 O5 1_555 1_555
Yb1_2 O7 1_555 1_555
Yb1A_3 O9 1_555 1_555
Yb1_3 O5A 1_555 1_555
Yb1A_4 O7A 1_555 1_555
Br1A C3A 1_555 1_555
O1A C1A 1_555 1_555
O2A Yb1A 1_555 1_555
H1A O2A 1_555 1_555
H2A O2A 1_555 1_555
O3A C1A 1_555 1_555
O4A Yb1A 1_555 1_555
H3A O4A 1_555 1_555
O5A C5A 1_555 1_555
O5A_2 Yb1 1_555 1_555
O5_2 Yb1A 1_555 1_555
O6A Yb1A 1_555 1_555
O7A C5A 1_555 1_555
O7_2 Yb1 1_555 1_555
O7A_2 Yb1A 1_555 1_555
O8A Yb1A_3 1_555 1_555
O8A_2 Yb1A 1_555 1_555
O9A Yb1 1_555 1_555
O9_2 Yb1A 1_555 1_555
C1A C2A 1_555 1_555
C2A C4 1_555 1_555
C3A C2A 1_555 1_555
C4A C2 1_555 1_555
C5A C4A 1_555 1_555
C6A C6 1_555 1_555
O8A C6A 1_555 1_555
O9A C6A 1_555 1_555
C3A C4A 1_555 1_555

#END
