
#######################################################################
#
#                 Cambridge Crystallographic Data Centre
#                                CCDC 
#
#######################################################################
#
# If this CIF has been generated from an entry in the Cambridge 
# Structural Database, then it will include bibliographic, chemical, 
# crystal, experimental, refinement or atomic coordinate data resulting 
# from the CCDC's data processing and validation procedures.
#
#######################################################################

data_GEPTUR
_symmetry_cell_setting           cubic
_symmetry_space_group_name_H-M   'P 41 3 2'
_symmetry_Int_Tables_number      213
_space_group_name_Hall           'P 4bd 2ab 3'
loop_
_symmetry_equiv_pos_site_id
_symmetry_equiv_pos_as_xyz
1 x,y,z
2 1/4+x,1/4-z,3/4+y
3 3/4+x,1/4+z,1/4-y
4 3/4+z,1/4+y,1/4-x
5 1/2+y,1/2-z,-x
6 -z,1/2+x,1/2-y
7 1/4+z,1/4-y,3/4+x
8 1/4+y,1/4-x,3/4+z
9 1/2-z,-x,1/2+y
10 1/2+x,1/2-y,-z
11 1/4-y,3/4+x,1/4+z
12 1/4-x,3/4+z,1/4+y
13 -x,1/2+y,1/2-z
14 1/2-y,-z,1/2+x
15 1/2-x,-y,1/2+z
16 3/4-y,3/4-x,3/4-z
17 -y,1/2+z,1/2-x
18 3/4-x,3/4-z,3/4-y
19 3/4-z,3/4-y,3/4-x
20 1/2+z,1/2-x,-y
21 z,x,y
22 3/4+y,1/4+x,1/4-z
23 y,z,x
24 1/4-z,3/4+y,1/4+x
_cell_length_a                   15.507(2)
_cell_length_b                   15.507(2)
_cell_length_c                   15.507(2)
_cell_angle_alpha                90
_cell_angle_beta                 90
_cell_angle_gamma                90
_cell_volume                     3728.92
loop_
_atom_site_label
_atom_site_type_symbol
_atom_site_fract_x
_atom_site_fract_y
_atom_site_fract_z
Ru1 Ru 0.6250 0.1250 0.3750
N1 N 0.6376(4) -0.0073(3) 0.3766(4)
C1 C 0.5745(5) -0.0643(5) 0.3802(5)
H1 H 0.5182 -0.0437 0.3800
C2 C 0.5861(6) -0.1518(5) 0.3842(6)
H2 H 0.5393 -0.1891 0.3872
C3 C 0.6694(7) -0.1829(5) 0.3836(6)
H3 H 0.6799 -0.2419 0.3864
C4 C 0.7377(5) -0.1248(5) 0.3790(5)
H4 H 0.7944 -0.1442 0.3779
C5 C 0.7193(4) -0.0373(4) 0.3759(4)
N1O N 0.7573(3) 0.1124(4) 0.3734(4)
N1D N 0.4927(3) 0.1234(4) 0.3624(4)
N1K N 0.6124(4) 0.1266(4) 0.2427(3)
N1E N 0.6234(4) 0.1376(4) 0.5073(3)
N1F N 0.6266(4) 0.2573(3) 0.3876(4)
C1O C 0.8143(5) 0.1755(5) 0.3698(5)
C1D C 0.4357(5) 0.1198(5) 0.4255(5)
C1K C 0.6755(5) 0.1302(5) 0.1857(5)
C1E C 0.6198(5) 0.0745(5) 0.5643(5)
C1F C 0.6302(5) 0.3143(5) 0.3245(5)
H1O H 0.7937 0.2318 0.3700
H1D H 0.4563 0.1200 0.4818
H1K H 0.7318 0.1300 0.2063
H1E H 0.6200 0.0182 0.5437
H1F H 0.6300 0.2937 0.2682
C2O C 0.9018(5) 0.1639(6) 0.3658(6)
C2D C 0.3482(5) 0.1158(6) 0.4139(6)
C2K C 0.6639(6) 0.1342(6) 0.0982(5)
C2E C 0.6158(6) 0.0861(6) 0.6518(5)
C2F C 0.6342(6) 0.4018(5) 0.3361(6)
H2O H 0.9391 0.2107 0.3628
H2D H 0.3109 0.1128 0.4607
H2K H 0.7107 0.1372 0.0609
H2E H 0.6128 0.0393 0.6891
H2F H 0.6372 0.4391 0.2893
C3O C 0.9329(5) 0.0806(7) 0.3664(6)
C3D C 0.3171(5) 0.1164(6) 0.3306(7)
C3K C 0.5806(7) 0.1336(6) 0.0671(5)
C3E C 0.6164(6) 0.1694(7) 0.6829(5)
C3F C 0.6336(6) 0.4329(5) 0.4194(7)
H3O H 0.9919 0.0701 0.3636
H3D H 0.2581 0.1136 0.3201
H3K H 0.5701 0.1364 0.0081
H3E H 0.6136 0.1799 0.7419
H3F H 0.6364 0.4919 0.4299
C4O C 0.8748(5) 0.0123(5) 0.3710(5)
C4D C 0.3752(5) 0.1210(5) 0.2623(5)
C4K C 0.5123(5) 0.1290(5) 0.1252(5)
C4E C 0.6210(5) 0.2377(5) 0.6248(5)
C4F C 0.6290(5) 0.3748(5) 0.4877(5)
H4O H 0.8942 -0.0444 0.3721
H4D H 0.3558 0.1221 0.2056
H4K H 0.4556 0.1279 0.1058
H4E H 0.6221 0.2944 0.6442
H4F H 0.6279 0.3942 0.5444
C5O C 0.7873(4) 0.0307(4) 0.3741(4)
C5D C 0.4627(4) 0.1241(4) 0.2807(4)
C5K C 0.5307(4) 0.1259(4) 0.2127(4)
C5E C 0.6241(4) 0.2193(4) 0.5373(4)
C5F C 0.6259(4) 0.2873(4) 0.4693(4)
Mn1 Mn 0.4000 -0.1000 0.6000
O1 O 0.4145(3) -0.2362(3) 0.6132(4)
O2 O 0.6359(3) -0.2110(4) 0.6440(3)
C6 C 0.4910 -0.2590 0.6250
C7 C 0.5620 -0.1880 0.6250
Mn1A Mn 0.6500 -0.3500 0.6500
Mn1B Mn 0.1500 -0.1500 0.3500
Mn1C Mn 0.3500 0.1500 0.8500
O1U O 0.5138(3) -0.3355(3) 0.6368(4)
O1D O 0.2638(3) -0.1132(4) 0.5855(3)
O1B O 0.1645(3) -0.1368(4) 0.4862(3)
O1E O 0.3868(4) -0.0855(3) 0.7362(3)
O1C O 0.3632(4) 0.0138(3) 0.8355(3)
O1A O 0.6645(3) -0.3632(4) 0.5138(3)
O1W O 0.6368(4) -0.4862(3) 0.6645(3)
O2U O 0.5390(4) -0.1141(3) 0.6060(3)
O2D O 0.2890(4) -0.1440(3) 0.3641(3)
O2B O 0.3859(3) -0.1060(3) 0.4610(4)
O2E O 0.3560(3) 0.1359(3) 0.7110(4)
O2C O 0.3940(3) 0.0390(4) 0.6141(3)
O2T O 0.6440(3) -0.3641(3) 0.7890(4)
O2V O 0.7890(4) -0.3560(3) 0.6359(3)
C6B C 0.2410 -0.1250 0.5090
C6C C 0.3750 -0.0090 0.7590
C7B C 0.3120 -0.1250 0.4380
C7C C 0.3750 0.0620 0.6880
O3 O 0.6250 0.8750 0.1250
H5? H 0.6070(3) 0.9132(7) 0.1083(3)
H6? H 0.6364(2) 0.8920(3) 0.0709(10)
loop_
_geom_bond_atom_site_label_1
_geom_bond_atom_site_label_2
_geom_bond_site_symmetry_1
_geom_bond_site_symmetry_2
Ru1 N1 1_555 1_555
Mn1 O1 1_555 1_555
O1 C6 1_555 1_555
O2 C7 1_555 1_555
N1 C1 1_555 1_555
C1 H1 1_555 1_555
C2 C1 1_555 1_555
H2 C2 1_555 1_555
C3 C2 1_555 1_555
H3 C3 1_555 1_555
C4 C3 1_555 1_555
H4 C4 1_555 1_555
C5 N1 1_555 1_555
C6 C7 1_555 1_555
C7 O2U 1_555 1_555
Mn1A O2 1_555 1_555
Mn1B O1B 1_555 1_555
Mn1C O1C 1_555 1_555
O1U C6 1_555 1_555
O1D Mn1 1_555 1_555
O1B C6B 1_555 1_555
O1E Mn1 1_555 1_555
O1C C6C 1_555 1_555
O1A Mn1A 1_555 1_555
O1W Mn1A 1_555 1_555
O2U Mn1 1_555 1_555
O2D Mn1B 1_555 1_555
O2B Mn1 1_555 1_555
O2E Mn1C 1_555 1_555
O2C Mn1 1_555 1_555
O2T Mn1A 1_555 1_555
O2V Mn1A 1_555 1_555
N1O Ru1 1_555 1_555
N1D Ru1 1_555 1_555
N1K Ru1 1_555 1_555
N1E Ru1 1_555 1_555
N1F Ru1 1_555 1_555
C1O N1O 1_555 1_555
C1D N1D 1_555 1_555
C1K N1K 1_555 1_555
C1E N1E 1_555 1_555
C1F N1F 1_555 1_555
H1O C1O 1_555 1_555
H1D C1D 1_555 1_555
H1K C1K 1_555 1_555
H1E C1E 1_555 1_555
H1F C1F 1_555 1_555
C2O C1O 1_555 1_555
C2D C1D 1_555 1_555
C2K C1K 1_555 1_555
C2E C1E 1_555 1_555
C2F C1F 1_555 1_555
H2O C2O 1_555 1_555
H2D C2D 1_555 1_555
H2K C2K 1_555 1_555
H2E C2E 1_555 1_555
H2F C2F 1_555 1_555
C3O C2O 1_555 1_555
C3D C2D 1_555 1_555
C3K C2K 1_555 1_555
C3E C2E 1_555 1_555
C3F C2F 1_555 1_555
H3O C3O 1_555 1_555
H3D C3D 1_555 1_555
H3K C3K 1_555 1_555
H3E C3E 1_555 1_555
H3F C3F 1_555 1_555
C4O C3O 1_555 1_555
C4D C3D 1_555 1_555
C4K C3K 1_555 1_555
C4E C3E 1_555 1_555
C4F C3F 1_555 1_555
H4O C4O 1_555 1_555
H4D C4D 1_555 1_555
H4K C4K 1_555 1_555
H4E C4E 1_555 1_555
H4F C4F 1_555 1_555
C5O C5 1_555 1_555
C5D N1D 1_555 1_555
C5K N1K 1_555 1_555
C5E N1E 1_555 1_555
C5F N1F 1_555 1_555
C6B O1D 1_555 1_555
C6C O1E 1_555 1_555
C7B O2D 1_555 1_555
C7C O2E 1_555 1_555
C4 C5 1_555 1_555
Mn1A O1U 1_555 1_555
O2B C7B 1_555 1_555
O2C C7C 1_555 1_555
N1O C5O 1_555 1_555
C4O C5O 1_555 1_555
C4D C5D 1_555 1_555
C4K C5K 1_555 1_555
C4E C5E 1_555 1_555
C4F C5F 1_555 1_555
C5D C5K 1_555 1_555
C5E C5F 1_555 1_555
C6B C7B 1_555 1_555
C6C C7C 1_555 1_555

#END
