
#######################################################################
#
#                 Cambridge Crystallographic Data Centre
#                                CCDC 
#
#######################################################################
#
# If this CIF has been generated from an entry in the Cambridge 
# Structural Database, then it will include bibliographic, chemical, 
# crystal, experimental, refinement or atomic coordinate data resulting 
# from the CCDC's data processing and validation procedures.
#
#######################################################################

data_GEPVUT
_symmetry_cell_setting           monoclinic
_symmetry_space_group_name_H-M   'P 21/n'
_symmetry_Int_Tables_number      14
_space_group_name_Hall           '-P 2yn'
loop_
_symmetry_equiv_pos_site_id
_symmetry_equiv_pos_as_xyz
1 x,y,z
2 1/2-x,1/2+y,1/2-z
3 -x,-y,-z
4 1/2+x,1/2-y,1/2+z
_cell_length_a                   14.4014(19)
_cell_length_b                   11.5743(15)
_cell_length_c                   31.379(9)
_cell_angle_alpha                90
_cell_angle_beta                 97.15(3)
_cell_angle_gamma                90
_cell_volume                     5189.77
loop_
_atom_site_label
_atom_site_type_symbol
_atom_site_fract_x
_atom_site_fract_y
_atom_site_fract_z
C1 C 0.5330(5) 0.2427(6) 0.40646(18)
C2 C 0.6270(5) 0.2239(7) 0.4207(2)
H1 H 0.6717 0.2761 0.4135
C3 C 0.6545(7) 0.1281(9) 0.4454(2)
H2 H 0.7177 0.1146 0.4542
C4 C 0.5892(9) 0.0540(9) 0.4567(2)
H3 H 0.6082 -0.0091 0.4740
C5 C 0.4947(8) 0.0693(8) 0.4433(3)
H4 H 0.4509 0.0167 0.4510
C6 C 0.4667(6) 0.1652(7) 0.4183(2)
H5 H 0.4035 0.1777 0.4093
C7 C 0.4460(4) 0.5323(6) 0.40000(18)
C8 C 0.4505(5) 0.6435(7) 0.3827(2)
H6 H 0.4716 0.6537 0.3562
C9 C 0.4235(6) 0.7386(8) 0.4052(3)
H7 H 0.4256 0.8125 0.3938
C10 C 0.3930(6) 0.7213(8) 0.4452(3)
H8 H 0.3752 0.7848 0.4604
C11 C 0.3888(5) 0.6155(8) 0.4623(2)
H9 H 0.3682 0.6062 0.4890
C12 C 0.4153(4) 0.5202(7) 0.4401(2)
H10 H 0.4127 0.4471 0.4522
C13 C 0.3936(4) 0.3324(6) 0.31222(19)
C14 C 0.3132(4) 0.3929(7) 0.2980(2)
H11 H 0.2992 0.4597 0.3124
C15 C 0.2528(5) 0.3565(9) 0.2628(3)
H12 H 0.1991 0.3986 0.2537
C16 C 0.2727(6) 0.2580(9) 0.2415(3)
H13 H 0.2323 0.2338 0.2177
C17 C 0.3511(6) 0.1950(8) 0.2547(3)
H14 H 0.3635 0.1276 0.2403
C18 C 0.4120(5) 0.2316(7) 0.2896(2)
H15 H 0.4658 0.1891 0.2983
C19 C 1.0027(4) 0.5182(6) 0.39793(18)
C20 C 1.0035(5) 0.6108(7) 0.3703(2)
H16 H 0.9485 0.6510 0.3616
C21 C 1.0860(6) 0.6439(9) 0.3554(3)
H17 H 1.0861 0.7061 0.3366
C22 C 1.1664(6) 0.5865(10) 0.3680(3)
H18 H 1.2217 0.6101 0.3581
C23 C 1.1674(5) 0.4946(9) 0.3949(3)
H19 H 1.2230 0.4548 0.4029
C24 C 1.0859(4) 0.4600(7) 0.4106(2)
H20 H 1.0869 0.3979 0.4295
C25 C 0.8877(4) 0.3197(6) 0.46162(17)
C26 C 0.9192(5) 0.2131(7) 0.4485(2)
H21 H 0.9367 0.2053 0.4211
C27 C 0.9245(6) 0.1189(7) 0.4758(2)
H22 H 0.9461 0.0485 0.4668
C28 C 0.8980(6) 0.1289(8) 0.5163(2)
H23 H 0.9011 0.0650 0.5344
C29 C 0.8672(5) 0.2325(8) 0.5299(2)
H24 H 0.8497 0.2393 0.5574
C30 C 0.8621(5) 0.3261(7) 0.50317(18)
H25 H 0.8410 0.3961 0.5129
C31 C 0.8057(4) 0.6019(6) 0.45186(17)
C32 C 0.8554(5) 0.6824(7) 0.4774(2)
H26 H 0.9204 0.6827 0.4797
C33 C 0.8099(6) 0.7628(8) 0.4999(2)
H27 H 0.8441 0.8177 0.5169
C34 C 0.7138(6) 0.7615(8) 0.4970(2)
H28 H 0.6830 0.8138 0.5128
C35 C 0.6635(5) 0.6834(8) 0.4709(3)
H29 H 0.5985 0.6845 0.4681
C36 C 0.7092(5) 0.6029(7) 0.4487(2)
H30 H 0.6747 0.5488 0.4314
C37 C 0.8069(4) 0.7781(6) 0.30189(18)
C38 C 0.7663(5) 0.7754(7) 0.3402(2)
H31 H 0.7155 0.7273 0.3428
C39 C 0.8033(8) 0.8465(9) 0.3749(2)
H32 H 0.7748 0.8485 0.3999
C40 C 0.8811(9) 0.9121(10) 0.3717(3)
H33 H 0.9078 0.9545 0.3953
C41 C 0.9199(7) 0.9159(8) 0.3342(3)
H34 H 0.9713 0.9633 0.3320
C42 C 0.8835(5) 0.8497(6) 0.2993(2)
H35 H 0.9105 0.8532 0.2739
C43 C 0.6096(4) 0.6716(5) 0.22486(17)
C44 C 0.5762(4) 0.7227(6) 0.18529(18)
H36 H 0.6182 0.7568 0.1689
C45 C 0.4819(5) 0.7231(6) 0.1703(2)
H37 H 0.4612 0.7558 0.1438
C46 C 0.4178(5) 0.6751(7) 0.1948(2)
H38 H 0.3541 0.6776 0.1852
C47 C 0.4495(4) 0.6235(7) 0.2335(2)
H39 H 0.4068 0.5891 0.2494
C48 C 0.5435(4) 0.6223(6) 0.2488(2)
H40 H 0.5633 0.5884 0.2752
C49 C 0.8544(4) 0.5627(5) 0.22381(16)
C50 C 0.8599(4) 0.5524(6) 0.18005(19)
H41 H 0.8189 0.5940 0.1606
C51 C 0.9264(5) 0.4802(7) 0.1651(2)
H42 H 0.9298 0.4742 0.1358
C52 C 0.9865(5) 0.4184(7) 0.1935(3)
H43 H 1.0301 0.3695 0.1834
C53 C 0.9831(5) 0.4278(7) 0.2368(2)
H44 H 1.0251 0.3868 0.2561
C54 C 0.9167(4) 0.4987(6) 0.25170(19)
H45 H 0.9139 0.5036 0.2811
O1 O 0.5990(3) 0.4455(4) 0.34164(13)
O2 O 0.7911(3) 0.4156(4) 0.37133(12)
O3 O 0.7311(3) 0.5360(4) 0.29576(12)
O4 O 0.7149(3) 0.3033(4) 0.29841(12)
Sn1 Sn 0.48860(3) 0.38510(4) 0.365916(12)
Sn2 Sn 0.87641(3) 0.46868(4) 0.421616(12)
Sn3 Sn 0.75516(3) 0.67250(4) 0.248675(12)
V1 V 0.70961(6) 0.42473(8) 0.32577(2)
O4A O 0.7851(3) 0.8033(4) 0.20159(12)
Sn3A Sn 0.74484(3) 0.17250(4) 0.251325(12)
C55 C 0.2691(10) 0.5014(11) 0.1138(4)
N1 N 0.2709(13) 0.5464(16) 0.0841(5)
C56 C 0.2620(17) 0.4444(18) 0.1534(5)
loop_
_geom_bond_atom_site_label_1
_geom_bond_atom_site_label_2
_geom_bond_site_symmetry_1
_geom_bond_site_symmetry_2
C1 C2 1_555 1_555
C2 H1 1_555 1_555
C3 C2 1_555 1_555
H2 C3 1_555 1_555
C4 C3 1_555 1_555
H3 C4 1_555 1_555
C5 C4 1_555 1_555
H4 C5 1_555 1_555
C6 C1 1_555 1_555
H5 C6 1_555 1_555
C7 C8 1_555 1_555
C8 H6 1_555 1_555
C9 C8 1_555 1_555
H7 C9 1_555 1_555
C10 C9 1_555 1_555
H8 C10 1_555 1_555
C11 C10 1_555 1_555
H9 C11 1_555 1_555
C12 C7 1_555 1_555
H10 C12 1_555 1_555
C13 C14 1_555 1_555
C14 H11 1_555 1_555
C15 C14 1_555 1_555
H12 C15 1_555 1_555
C16 C15 1_555 1_555
H13 C16 1_555 1_555
C17 C16 1_555 1_555
H14 C17 1_555 1_555
C18 C13 1_555 1_555
H15 C18 1_555 1_555
C19 C20 1_555 1_555
C20 H16 1_555 1_555
C21 C20 1_555 1_555
H17 C21 1_555 1_555
C22 C21 1_555 1_555
H18 C22 1_555 1_555
C23 C22 1_555 1_555
H19 C23 1_555 1_555
C24 C19 1_555 1_555
H20 C24 1_555 1_555
C25 C26 1_555 1_555
C26 H21 1_555 1_555
C27 C26 1_555 1_555
H22 C27 1_555 1_555
C28 C27 1_555 1_555
H23 C28 1_555 1_555
C29 C28 1_555 1_555
H24 C29 1_555 1_555
C30 C25 1_555 1_555
H25 C30 1_555 1_555
C31 C32 1_555 1_555
C32 H26 1_555 1_555
C33 C32 1_555 1_555
H27 C33 1_555 1_555
C34 C33 1_555 1_555
H28 C34 1_555 1_555
C35 C34 1_555 1_555
H29 C35 1_555 1_555
C36 C31 1_555 1_555
H30 C36 1_555 1_555
C37 C38 1_555 1_555
C38 H31 1_555 1_555
C39 C38 1_555 1_555
H32 C39 1_555 1_555
C40 C39 1_555 1_555
H33 C40 1_555 1_555
C41 C40 1_555 1_555
H34 C41 1_555 1_555
C42 C37 1_555 1_555
H35 C42 1_555 1_555
C43 C44 1_555 1_555
C44 H36 1_555 1_555
C45 C44 1_555 1_555
H37 C45 1_555 1_555
C46 C45 1_555 1_555
H38 C46 1_555 1_555
C47 C46 1_555 1_555
H39 C47 1_555 1_555
C48 C43 1_555 1_555
H40 C48 1_555 1_555
C49 C50 1_555 1_555
C50 H41 1_555 1_555
C51 C50 1_555 1_555
H42 C51 1_555 1_555
C52 C51 1_555 1_555
H43 C52 1_555 1_555
C53 C52 1_555 1_555
H44 C53 1_555 1_555
C54 C49 1_555 1_555
H45 C54 1_555 1_555
C55 N1 1_555 1_555
O1 Sn1 1_555 1_555
O2 Sn2 1_555 1_555
O3 Sn3 1_555 1_555
O4 V1 1_555 1_555
Sn1 C1 1_555 1_555
Sn2 C19 1_555 1_555
Sn3 C37 1_555 1_555
V1 O1 1_555 1_555
C56 C55 1_555 1_555
O4A Sn3 1_555 1_555
Sn3A O4 1_555 1_555
C5 C6 1_555 1_555
C7 Sn1 1_555 1_555
C11 C12 1_555 1_555
C13 Sn1 1_555 1_555
C17 C18 1_555 1_555
C23 C24 1_555 1_555
C25 Sn2 1_555 1_555
C29 C30 1_555 1_555
C31 Sn2 1_555 1_555
C35 C36 1_555 1_555
C41 C42 1_555 1_555
C43 Sn3 1_555 1_555
C47 C48 1_555 1_555
C49 Sn3 1_555 1_555
C53 C54 1_555 1_555
O2 V1 1_555 1_555
O3 V1 1_555 1_555

#END
