
#######################################################################
#
#                 Cambridge Crystallographic Data Centre
#                                CCDC 
#
#######################################################################
#
# If this CIF has been generated from an entry in the Cambridge 
# Structural Database, then it will include bibliographic, chemical, 
# crystal, experimental, refinement or atomic coordinate data resulting 
# from the CCDC's data processing and validation procedures.
#
#######################################################################

data_GEPWAA
_symmetry_cell_setting           orthorhombic
_symmetry_space_group_name_H-M   'P n a 21'
_symmetry_Int_Tables_number      33
_space_group_name_Hall           'P 2c -2n'
loop_
_symmetry_equiv_pos_site_id
_symmetry_equiv_pos_as_xyz
1 x,y,z
2 -x,-y,1/2+z
3 1/2-x,1/2+y,1/2+z
4 1/2+x,1/2-y,z
_cell_length_a                   28.595(3)
_cell_length_b                   14.3564(17)
_cell_length_c                   13.4432(17)
_cell_angle_alpha                90
_cell_angle_beta                 90
_cell_angle_gamma                90
_cell_volume                     5518.72
loop_
_atom_site_label
_atom_site_type_symbol
_atom_site_fract_x
_atom_site_fract_y
_atom_site_fract_z
C1 C -0.13910(15) -1.2512(3) -0.4089(3)
C2 C -0.15489(17) -1.3369(4) -0.4454(4)
H1 H -0.1607 -1.3862 -0.4023
C3 C -0.16179(18) -1.3471(5) -0.5469(5)
H2 H -0.1724 -1.4038 -0.5715
C4 C -0.1534(2) -1.2760(5) -0.6112(4)
H3 H -0.1580 -1.2846 -0.6790
C5 C -0.1382(2) -1.1917(5) -0.5763(4)
H4 H -0.1331 -1.1427 -0.6203
C6 C -0.13036(16) -1.1793(4) -0.4743(4)
H5 H -0.1193 -1.1226 -0.4506
C7 C -0.09916(14) -1.3447(3) -0.1727(3)
C8 C -0.09294(15) -1.4316(3) -0.2160(4)
H6 H -0.0960 -1.4383 -0.2845
C9 C -0.08224(18) -1.5087(3) -0.1576(5)
H7 H -0.0781 -1.5667 -0.1872
C10 C -0.07779(18) -1.4993(4) -0.0567(5)
H8 H -0.0717 -1.5513 -0.0175
C11 C -0.08246(17) -1.4121(4) -0.0127(4)
H9 H -0.0780 -1.4050 0.0554
C12 C -0.09375(16) -1.3363(3) -0.0706(4)
H10 H -0.0978 -1.2784 -0.0407
C13 C -0.18847(14) -1.1840(3) -0.1754(3)
C14 C -0.20929(16) -1.2359(3) -0.0994(3)
H11 H -0.1956 -1.2917 -0.0798
C15 C -0.24950(16) -1.2067(4) -0.0529(4)
H12 H -0.2635 -1.2435 -0.0044
C16 C -0.2688(2) -1.1224(6) -0.0787(5)
H13 H -0.2959 -1.1021 -0.0475
C17 C -0.2482(3) -1.0679(7) -0.1502(6)
H14 H -0.2611 -1.0104 -0.1663
C18 C -0.2079(2) -1.0987(5) -0.1990(5)
H15 H -0.1941 -1.0616 -0.2475
C19 C -0.21567(14) -0.8896(3) -0.3481(3)
C20 C -0.26246(14) -0.8650(3) -0.3293(4)
H16 H -0.2692 -0.8134 -0.2900
C21 C -0.29846(17) -0.9175(4) -0.3690(4)
H17 H -0.3293 -0.9018 -0.3548
C22 C -0.28912(19) -0.9925(4) -0.4293(5)
H18 H -0.3135 -1.0272 -0.4562
C23 C -0.24272(19) -1.0163(4) -0.4497(4)
H19 H -0.2362 -1.0669 -0.4907
C24 C -0.20643(15) -0.9647(3) -0.4091(4)
H20 H -0.1756 -0.9808 -0.4232
C25 C -0.06265(15) -0.7367(3) -0.3109(4)
H21 H -0.0536 -0.7858 -0.2700
C26 C -0.02916(17) -0.6741(3) -0.3456(4)
H22 H 0.0020 -0.6811 -0.3270
C27 C -0.04202(17) -0.6022(3) -0.4070(4)
H23 H -0.0196 -0.5608 -0.4305
C28 C -0.08865(18) -0.5913(3) -0.4342(4)
H24 H -0.0975 -0.5427 -0.4758
C29 C -0.12174(16) -0.6534(3) -0.3989(4)
H25 H -0.1529 -0.6460 -0.4171
C30 C -0.10918(14) -0.7268(3) -0.3364(3)
C31 C -0.16673(15) -0.8022(3) -0.1145(3)
C32 C -0.21020(17) -0.7963(4) -0.0708(4)
H26 H -0.2368 -0.8073 -0.1089
C33 C -0.2150(2) -0.7740(4) 0.0296(4)
H27 H -0.2446 -0.7704 0.0580
C34 C -0.1769(2) -0.7577(4) 0.0856(4)
H28 H -0.1802 -0.7411 0.1521
C35 C -0.1327(2) -0.7655(5) 0.0443(5)
H29 H -0.1064 -0.7561 0.0836
C36 C -0.12772(17) -0.7870(4) -0.0548(4)
H30 H -0.0979 -0.7915 -0.0822
C37 C 0.05983(13) -1.0544(3) -0.0893(3)
C38 C 0.06830(14) -1.0411(3) -0.1906(3)
H31 H 0.0468 -1.0082 -0.2288
C39 C 0.10850(16) -1.0763(3) -0.2352(4)
H32 H 0.1139 -1.0667 -0.3027
C40 C 0.14050(16) -1.1258(3) -0.1788(4)
H33 H 0.1676 -1.1487 -0.2080
C41 C 0.13210(16) -1.1409(4) -0.0796(4)
H34 H 0.1533 -1.1754 -0.0424
C42 C 0.09235(14) -1.1054(3) -0.0341(3)
H35 H 0.0873 -1.1157 0.0334
C43 C 0.00561(12) -0.8419(2) -0.0091(3)
C44 C 0.00274(15) -0.7945(3) 0.0806(4)
H36 H -0.0050 -0.8265 0.1385
C45 C 0.01139(18) -0.6994(3) 0.0841(4)
H37 H 0.0096 -0.6680 0.1445
C46 C 0.02264(18) -0.6513(3) -0.0011(5)
H38 H 0.0280 -0.5875 0.0020
C47 C 0.02600(19) -0.6971(3) -0.0910(4)
H39 H 0.0342 -0.6648 -0.1484
C48 C 0.01697(16) -0.7924(3) -0.0946(4)
H40 H 0.0186 -0.8234 -0.1552
C49 C -0.05777(13) -1.0663(3) 0.0390(3)
C50 C -0.10260(13) -1.0483(3) 0.0033(3)
H41 H -0.1072 -1.0041 -0.0463
C51 C -0.14036(14) -1.0967(3) 0.0422(3)
H42 H -0.1703 -1.0840 0.0189
C52 C -0.13429(15) -1.1634(3) 0.1150(4)
H43 H -0.1600 -1.1953 0.1403
C53 C -0.08985(16) -1.1826(3) 0.1503(3)
H44 H -0.0855 -1.2278 0.1989
C54 C -0.05165(14) -1.1336(3) 0.1122(3)
H45 H -0.0218 -1.1461 0.1361
C55 C -0.20555(15) -0.6109(3) -0.2348(4)
H46 H -0.1818 -0.6092 -0.1875
C56 C -0.2670(2) -0.5315(5) -0.3198(6)
H47 H -0.2800 -0.4699 -0.3215
H48 H -0.2906 -0.5751 -0.3001
H49 H -0.2556 -0.5476 -0.3847
C57 C -0.22073(19) -0.4489(4) -0.1932(5)
H50 H -0.2412 -0.4006 -0.2166
H51 H -0.1888 -0.4297 -0.2018
H52 H -0.2267 -0.4603 -0.1240
Sn1 Sn -0.127121(8) -1.228850(16) -0.25339(2)
Sn2 Sn -0.159144(7) -0.821182(16) -0.27155(2)
Sn3 Sn 0.000798(11) -0.990690(14) -0.01895(2)
V1 V -0.066398(16) -1.00607(4) -0.26448(6)
O1 O -0.08373(9) -1.12198(17) -0.2492(2)
O2 O -0.11482(8) -0.93541(17) -0.2728(3)
O3 O -0.03370(10) -0.9749(2) -0.1660(2)
O4 O -0.03510(11) -0.99644(19) -0.3697(2)
O5 O -0.21235(9) -0.68613(18) -0.2788(3)
N1 N -0.22914(11) -0.5341(2) -0.2499(4)
Sn3A Sn -0.000798(11) -1.009310(14) -0.51895(2)
O4A O 0.03510(11) -1.00356(19) 0.1303(2)
C58 C -0.0486(2) -0.5202(4) -0.7295(5)
H53 H -0.0166 -0.5127 -0.7204
C59 C -0.1162(2) -0.6140(6) -0.7124(7)
H54 H -0.1245 -0.6752 -0.6895
H55 H -0.1247 -0.6076 -0.7811
H56 H -0.1325 -0.5682 -0.6737
C60 C -0.0396(3) -0.6784(5) -0.6633(5)
H57 H -0.0599 -0.7297 -0.6481
H58 H -0.0235 -0.6592 -0.6041
H59 H -0.0172 -0.6974 -0.7125
O6 O -0.07037(15) -0.4542(3) -0.7663(4)
N2 N -0.06717(16) -0.6009(3) -0.7018(3)
loop_
_geom_bond_atom_site_label_1
_geom_bond_atom_site_label_2
_geom_bond_site_symmetry_1
_geom_bond_site_symmetry_2
C1 C2 1_555 1_555
C2 H1 1_555 1_555
C3 C2 1_555 1_555
H2 C3 1_555 1_555
C4 C3 1_555 1_555
H3 C4 1_555 1_555
C5 C4 1_555 1_555
H4 C5 1_555 1_555
C6 C1 1_555 1_555
H5 C6 1_555 1_555
C7 C8 1_555 1_555
C8 H6 1_555 1_555
C9 C8 1_555 1_555
H7 C9 1_555 1_555
C10 C9 1_555 1_555
H8 C10 1_555 1_555
C11 C10 1_555 1_555
H9 C11 1_555 1_555
C12 C7 1_555 1_555
H10 C12 1_555 1_555
C13 C14 1_555 1_555
C14 H11 1_555 1_555
C15 C14 1_555 1_555
H12 C15 1_555 1_555
C16 C15 1_555 1_555
H13 C16 1_555 1_555
C17 C16 1_555 1_555
H14 C17 1_555 1_555
C18 C13 1_555 1_555
H15 C18 1_555 1_555
C19 C20 1_555 1_555
C20 H16 1_555 1_555
C21 C20 1_555 1_555
H17 C21 1_555 1_555
C22 C21 1_555 1_555
H18 C22 1_555 1_555
C23 C22 1_555 1_555
H19 C23 1_555 1_555
C24 C19 1_555 1_555
H20 C24 1_555 1_555
C25 H21 1_555 1_555
C26 C25 1_555 1_555
H22 C26 1_555 1_555
C27 C26 1_555 1_555
H23 C27 1_555 1_555
C28 C27 1_555 1_555
H24 C28 1_555 1_555
C29 C28 1_555 1_555
H25 C29 1_555 1_555
C30 C25 1_555 1_555
C31 C32 1_555 1_555
C32 H26 1_555 1_555
C33 C32 1_555 1_555
H27 C33 1_555 1_555
C34 C33 1_555 1_555
H28 C34 1_555 1_555
C35 C34 1_555 1_555
H29 C35 1_555 1_555
C36 C31 1_555 1_555
H30 C36 1_555 1_555
C37 C38 1_555 1_555
C38 H31 1_555 1_555
C39 C38 1_555 1_555
H32 C39 1_555 1_555
C40 C39 1_555 1_555
H33 C40 1_555 1_555
C41 C40 1_555 1_555
H34 C41 1_555 1_555
C42 C37 1_555 1_555
H35 C42 1_555 1_555
C43 C44 1_555 1_555
C44 H36 1_555 1_555
C45 C44 1_555 1_555
H37 C45 1_555 1_555
C46 C45 1_555 1_555
H38 C46 1_555 1_555
C47 C46 1_555 1_555
H39 C47 1_555 1_555
C48 C43 1_555 1_555
H40 C48 1_555 1_555
C49 C50 1_555 1_555
C50 H41 1_555 1_555
C51 C50 1_555 1_555
H42 C51 1_555 1_555
C52 C51 1_555 1_555
H43 C52 1_555 1_555
C53 C52 1_555 1_555
H44 C53 1_555 1_555
C54 C49 1_555 1_555
H45 C54 1_555 1_555
C55 H46 1_555 1_555
C56 H47 1_555 1_555
H48 C56 1_555 1_555
H49 C56 1_555 1_555
C57 H50 1_555 1_555
H51 C57 1_555 1_555
H52 C57 1_555 1_555
C58 H53 1_555 1_555
C59 H54 1_555 1_555
H55 C59 1_555 1_555
H56 C59 1_555 1_555
C60 H57 1_555 1_555
H58 C60 1_555 1_555
H59 C60 1_555 1_555
Sn1 C1 1_555 1_555
Sn2 C19 1_555 1_555
Sn3 C37 1_555 1_555
V1 O1 1_555 1_555
O1 Sn1 1_555 1_555
O2 Sn2 1_555 1_555
O3 Sn3 1_555 1_555
O4 V1 1_555 1_555
O5 C55 1_555 1_555
O6 C58 1_555 1_555
N1 C55 1_555 1_555
N2 C58 1_555 1_555
Sn3A O4 1_555 1_555
O4A Sn3 1_555 1_555
C5 C6 1_555 1_555
C7 Sn1 1_555 1_555
C11 C12 1_555 1_555
C13 Sn1 1_555 1_555
C17 C18 1_555 1_555
C23 C24 1_555 1_555
C29 C30 1_555 1_555
C30 Sn2 1_555 1_555
C31 Sn2 1_555 1_555
C35 C36 1_555 1_555
C41 C42 1_555 1_555
C43 Sn3 1_555 1_555
C47 C48 1_555 1_555
C49 Sn3 1_555 1_555
C53 C54 1_555 1_555
C56 N1 1_555 1_555
C57 N1 1_555 1_555
C59 N2 1_555 1_555
C60 N2 1_555 1_555
Sn2 O5 1_555 1_555
V1 O2 1_555 1_555
V1 O3 1_555 1_555

#END
