
#######################################################################
#
#                 Cambridge Crystallographic Data Centre
#                                CCDC 
#
#######################################################################
#
# If this CIF has been generated from an entry in the Cambridge 
# Structural Database, then it will include bibliographic, chemical, 
# crystal, experimental, refinement or atomic coordinate data resulting 
# from the CCDC's data processing and validation procedures.
#
#######################################################################

data_GEPXIJ
_symmetry_cell_setting           monoclinic
_symmetry_space_group_name_H-M   'P 21/n'
_symmetry_Int_Tables_number      14
_space_group_name_Hall           '-P 2yn'
loop_
_symmetry_equiv_pos_site_id
_symmetry_equiv_pos_as_xyz
1 x,y,z
2 1/2-x,1/2+y,1/2-z
3 -x,-y,-z
4 1/2+x,1/2-y,1/2+z
_cell_length_a                   10.125(2)
_cell_length_b                   13.684(3)
_cell_length_c                   15.227(3)
_cell_angle_alpha                90
_cell_angle_beta                 105.67(3)
_cell_angle_gamma                90
_cell_volume                     2031.3
loop_
_atom_site_label
_atom_site_type_symbol
_atom_site_fract_x
_atom_site_fract_y
_atom_site_fract_z
C1 C -0.4343(3) 0.4211(2) -0.62883(18)
C2 C -0.4677(3) 0.5134(2) -0.6173(2)
H1 H -0.5543 0.5414 -0.6374
C3 C -0.3446(2) 0.56072(18) -0.56788(15)
C4 C -0.5113(3) 0.3338(2) -0.6740(2)
C5 C -0.5920(3) 0.9730(2) -1.22121(19)
H2 H -0.6724 0.9998 -1.2132
C6 C -0.5814(4) 0.9596(3) -1.3089(2)
H3 H -0.652 0.9789 -1.3589
C7 C -0.4645(4) 0.9172(2) -1.3211(2)
H4 H -0.4555 0.9062 -1.3794
C8 C -0.3608(3) 0.8911(2) -1.2454(2)
H5 H -0.2808 0.8625 -1.2521
C9 C -0.3775(3) 0.9081(2) -1.1596(2)
H6 H -0.3072 0.8906 -1.1088
N1 N -0.2419(2) 0.49657(14) -0.55180(18)
N2 N -0.3150(2) 0.65433(16) -0.53738(14)
N3 N -0.4916(2) 0.94895(16) -1.14700(14)
O1 O -0.29852(19) 0.40711(13) -0.59046(13)
Cd1 Cd -0.50000 1.00000 -1.00000
S1 S -0.42931(7) 0.73556(5) -0.56406(4)
O2 O -0.5618(2) 0.70548(17) -0.55466(13)
C15 C -0.4994(2) 0.80341(17) -0.86677(16)
C16 C -0.3544(3) 0.73948(19) -0.72597(17)
H12 H -0.272 0.7111 -0.6938
C17 C -0.5783(3) 0.80069(19) -0.73087(17)
H13 H -0.6466 0.8133 -0.7021
C18 C -0.6001(3) 0.8225(2) -0.82208(17)
H14 H -0.6828 0.8504 -0.8542
C19 C -0.4547(3) 0.75991(17) -0.68189(16)
C20 C -0.3767(3) 0.76126(19) -0.81793(17)
H15 H -0.691 1.2525 -1.153
O3 O -0.6269(3) 1.17728(15) -1.48471(14)
N5 N -0.5227(2) 0.83085(14) -0.95992(13)
H16 H -0.3918 1.1883 -1.0106
H17 H -0.5352 1.2043 -1.017
C1B C -0.5657(3) 1.5789(2) -1.37117(18)
C2B C -0.5323(3) 1.4866(2) -1.3827(2)
H1B H -0.4457 1.4586 -1.3626
C3B C -0.6554(2) 1.43928(18) -1.43212(15)
C4B C -0.4887(3) 1.6662(2) -1.3260(2)
C5B C -0.4080(3) 1.0270(2) -0.77879(19)
H2B H -0.3276 1.0002 -0.7868
C6B C -0.4186(4) 1.0404(3) -0.6911(2)
H3B H -0.348 1.0211 -0.6411
C7B C -0.5355(4) 1.0828(2) -0.6789(2)
H4B H -0.5445 1.0938 -0.6206
C8B C -0.6392(3) 1.1089(2) -0.7546(2)
H5B H -0.7192 1.1375 -0.7479
C9B C -0.6225(3) 1.0919(2) -0.8404(2)
H6B H -0.6928 1.1094 -0.8912
N1C N -0.7419(2) 1.00343(14) -1.05180(18)
N1A N -0.2581(2) 0.99657(14) -0.94820(18)
N1B N -0.7581(2) 1.50343(14) -1.44820(18)
N2B N -0.6850(2) 1.34567(16) -1.46262(14)
N3B N -0.5084(2) 1.05105(16) -0.85300(14)
O1B O -0.70148(19) 1.59289(13) -1.40954(13)
Cd1C Cd 0.00000 0.50000 -0.50000
Cd1C_2 Cd -1.00000 1.50000 -1.50000
S1B S -0.57069(7) 1.26444(5) -1.43594(4)
O2B O -0.4382(2) 1.29452(17) -1.44534(13)
C15B C -0.5006(2) 1.19659(17) -1.13323(16)
C16B C -0.6456(3) 1.26052(19) -1.27403(17)
H12B H -0.728 1.2889 -1.3062
C17B C -0.4217(3) 1.19931(19) -1.26913(17)
H13B H -0.3534 1.1867 -1.2979
C18B C -0.3999(3) 1.1775(2) -1.17792(17)
H14B H -0.3172 1.1496 -1.1458
C19B C -0.5453(3) 1.24009(17) -1.31811(16)
C20B C -0.6233(3) 1.23874(19) -1.18207(17)
H15B H -0.309 0.7475 -0.847
O3B O -0.3731(3) 0.82272(15) -0.51529(14)
N5B N -0.4773(2) 1.16915(14) -1.04008(13)
H16B H -0.6082 0.8117 -0.9894
H17B H -0.4648 0.7957 -0.983
N4 N 0.4345(4) 0.3331(2) 0.0639(2)
C10 C 0.3068(4) 0.3648(3) 0.0499(2)
H7 H 0.2358 0.3209 0.0264
C11 C 0.2734(5) 0.4566(4) 0.0675(3)
H8 H 0.1818 0.4748 0.0553
C12 C 0.3735(6) 0.5224(3) 0.1030(4)
H9 H 0.3519 0.5862 0.115
C13 C 0.5087(6) 0.4924(3) 0.1209(4)
H10 H 0.5804 0.5348 0.147
C14 C 0.5338(4) 0.3983(3) 0.0991(3)
H11 H 0.6245 0.3785 0.1093
loop_
_geom_bond_atom_site_label_1
_geom_bond_atom_site_label_2
_geom_bond_site_symmetry_1
_geom_bond_site_symmetry_2
C1 C2 1_555 1_555
C2 H1 1_555 1_555
C3 C2 1_555 1_555
C4 C1 1_555 1_555
C5 H2 1_555 1_555
C6 C5 1_555 1_555
H3 C6 1_555 1_555
C7 C6 1_555 1_555
H4 C7 1_555 1_555
C8 C7 1_555 1_555
H5 C8 1_555 1_555
C9 C8 1_555 1_555
H6 C9 1_555 1_555
N1 C3 1_555 1_555
N2 C3 1_555 1_555
N3 C5 1_555 1_555
O1 C1 1_555 1_555
Cd1 N3 1_555 1_555
N4 C10 1_555 1_555
C10 H7 1_555 1_555
C11 C10 1_555 1_555
H8 C11 1_555 1_555
C12 C11 1_555 1_555
H9 C12 1_555 1_555
C13 C12 1_555 1_555
H10 C13 1_555 1_555
C14 N4 1_555 1_555
H11 C14 1_555 1_555
S1 N2 1_555 1_555
O2 S1 1_555 1_555
C15 C18 1_555 1_555
C16 H12 1_555 1_555
C17 H13 1_555 1_555
C18 C17 1_555 1_555
H14 C18 1_555 1_555
C19 S1 1_555 1_555
C20 C15 1_555 1_555
H15 C20B 1_555 1_555
O3 S1B 1_555 1_555
N5 Cd1 1_555 1_555
H16 N5B 1_555 1_555
H17 N5B 1_555 1_555
C1B C2B 1_555 1_555
C2B H1B 1_555 1_555
C3B C2B 1_555 1_555
C4B C1B 1_555 1_555
C5B H2B 1_555 1_555
C6B C5B 1_555 1_555
H3B C6B 1_555 1_555
C7B C6B 1_555 1_555
H4B C7B 1_555 1_555
C8B C7B 1_555 1_555
H5B C8B 1_555 1_555
C9B C8B 1_555 1_555
H6B C9B 1_555 1_555
N1C Cd1 1_555 1_555
N1A Cd1 1_555 1_555
N1B C3B 1_555 1_555
N2B C3B 1_555 1_555
N3B Cd1 1_555 1_555
O1B C1B 1_555 1_555
Cd1C N1 1_555 1_555
Cd1C_2 N1B 1_555 1_555
S1B N2B 1_555 1_555
O2B S1B 1_555 1_555
C15B C18B 1_555 1_555
C16B H12B 1_555 1_555
C17B H13B 1_555 1_555
C18B C17B 1_555 1_555
H14B C18B 1_555 1_555
C19B S1B 1_555 1_555
C20B C15B 1_555 1_555
H15B C20 1_555 1_555
O3B S1 1_555 1_555
N5B Cd1 1_555 1_555
H16B N5 1_555 1_555
H17B N5 1_555 1_555
C9 N3 1_555 1_555
N1 O1 1_555 1_555
C13 C14 1_555 1_555
C15 N5 1_555 1_555
C16 C19 1_555 1_555
C16 C20 1_555 1_555
C17 C19 1_555 1_555
C5B N3B 1_555 1_555
C9B N3B 1_555 1_555
N1B O1B 1_555 1_555
C15B N5B 1_555 1_555
C16B C19B 1_555 1_555
C16B C20B 1_555 1_555
C17B C19B 1_555 1_555

#END
