
#######################################################################
#
#                 Cambridge Crystallographic Data Centre
#                                CCDC 
#
#######################################################################
#
# If this CIF has been generated from an entry in the Cambridge 
# Structural Database, then it will include bibliographic, chemical, 
# crystal, experimental, refinement or atomic coordinate data resulting 
# from the CCDC's data processing and validation procedures.
#
#######################################################################

data_GEPZOS
_symmetry_cell_setting           triclinic
_symmetry_space_group_name_H-M   'P -1'
_symmetry_Int_Tables_number      2
_space_group_name_Hall           '-P 1'
loop_
_symmetry_equiv_pos_site_id
_symmetry_equiv_pos_as_xyz
1 x,y,z
2 -x,-y,-z
_cell_length_a                   8.0181(11)
_cell_length_b                   8.6432(11)
_cell_length_c                   12.3398(18)
_cell_angle_alpha                73.288(7)
_cell_angle_beta                 72.532(7)
_cell_angle_gamma                76.862(8)
_cell_volume                     771.924
loop_
_atom_site_label
_atom_site_type_symbol
_atom_site_fract_x
_atom_site_fract_y
_atom_site_fract_z
U1 U 0.35790(3) 0.34545(3) 0.23488(2)
Cl1 Cl 0.2633(2) 0.2794(2) -0.16712(16)
Cl2 Cl 0.1661(2) 0.7822(2) 0.51116(17)
O1 O 0.4878(6) 0.4847(6) 0.1273(4)
O2 O 0.2327(6) 0.2027(6) 0.3437(4)
O3 O 0.2780(6) 0.3044(5) 0.0697(4)
O4 O -0.0818(6) 0.4950(6) -0.1950(4)
O5 O 0.2861(6) 0.5336(5) 0.3601(4)
O6 O 0.4424(6) 0.6968(5) 0.6444(4)
O7 O 0.5678(6) 0.1202(6) 0.1948(4)
H1 H 0.6167 0.0695 0.2574
H2 H 0.6486 0.1291 0.1286
C1 C 0.1538(8) 0.3956(8) 0.0291(6)
C2 C -0.0315(9) 0.4917(8) -0.1052(6)
C3 C 0.1203(9) 0.3998(8) -0.0772(6)
C4 C 0.3779(9) 0.5286(8) 0.4298(6)
C5 C 0.4618(8) 0.6091(8) 0.5730(6)
C6 C 0.3492(9) 0.6303(8) 0.5014(6)
U1A U -0.35790(3) 0.65455(3) -0.23488(2)
U1A_2 U 0.64210(3) 0.65455(3) 0.76512(2)
Cl1A Cl -0.2633(2) 0.7206(2) 0.16712(16)
Cl2A Cl 0.8339(2) 0.2178(2) 0.48884(17)
O1A O -0.4878(6) 0.5153(6) -0.1273(4)
O2A O -0.2327(6) 0.7973(6) -0.3437(4)
O3A O -0.2780(6) 0.6956(5) -0.0697(4)
O4A O 0.0818(6) 0.5050(6) 0.1950(4)
O5A O 0.7139(6) 0.4664(5) 0.6399(4)
O5A_2 O -0.2861(6) 0.4664(5) -0.3601(4)
O6A O 0.5576(6) 0.3032(5) 0.3556(4)
O6_2 O -0.5576(6) 0.6968(5) -0.3556(4)
O7A O -0.5678(6) 0.8798(6) -0.1948(4)
H1A H -0.6167 0.9305 -0.2574
H2A H -0.6486 0.8709 -0.1286
C1A C -0.1538(8) 0.6044(8) -0.0291(6)
C2A C 0.0315(9) 0.5083(8) 0.1052(6)
C3A C -0.1203(9) 0.6002(8) 0.0772(6)
C4A C 0.6221(9) 0.4714(8) 0.5702(6)
C5A C 0.5382(8) 0.3909(8) 0.4270(6)
C6A C 0.6508(9) 0.3697(8) 0.4986(6)
O8 O -0.1041(6) 0.6650(6) 0.3940(4)
H3 H -0.1078 0.5948 0.3601
H4 H 0.0103 0.6527 0.3958
O9 O 0.6333(7) -0.0686(6) 0.3934(5)
H5 H 0.6326 0.0152 0.4278
H6 H 0.7282 -0.1513 0.4158
N1 N -0.0239(7) 1.0340(7) 0.1420(5)
N2 N 0.2158(7) 0.8991(7) 0.0165(5)
C7 C 0.0540(9) 0.9803(8) 0.0443(6)
C8 C 0.0762(9) 0.9981(8) 0.2172(7)
H7 H 0.0288 1.0320 0.2867
C9 C 0.2467(9) 0.9132(8) 0.1979(6)
H8 H 0.3130 0.8886 0.2525
C10 C 0.3125(9) 0.8673(8) 0.0935(6)
H9 H 0.4278 0.8124 0.0761
N1A N 0.0239(7) 0.9660(7) -0.1420(5)
N2A N -0.2158(7) 1.1009(7) -0.0165(5)
C7A C -0.0540(9) 1.0197(8) -0.0443(6)
C8A C -0.0762(9) 1.0019(8) -0.2172(7)
H7A H -0.0288 0.9680 -0.2867
C9A C -0.2467(9) 1.0868(8) -0.1979(6)
H8A H -0.3130 1.1114 -0.2525
C10A C -0.3125(9) 1.1327(8) -0.0935(6)
H9A H -0.4278 1.1876 -0.0761
loop_
_geom_bond_atom_site_label_1
_geom_bond_atom_site_label_2
_geom_bond_site_symmetry_1
_geom_bond_site_symmetry_2
U1 O1 1_555 1_555
Cl1 C3 1_555 1_555
Cl2 C6 1_555 1_555
O2 U1 1_555 1_555
O3 U1 1_555 1_555
O4 C2 1_555 1_555
O5 U1 1_555 1_555
O6 C5 1_555 1_555
O7 U1 1_555 1_555
H1 O7 1_555 1_555
H2 O7 1_555 1_555
O8 H3 1_555 1_555
H4 O8 1_555 1_555
O9 H5 1_555 1_555
H6 O9 1_555 1_555
N1 C7 1_555 1_555
N2 C7 1_555 1_555
C1 O3 1_555 1_555
C2 C3 1_555 1_555
C3 C1 1_555 1_555
C4 O5 1_555 1_555
C5 C6 1_555 1_555
C6 C4 1_555 1_555
C7 C7A 1_555 1_555
C8 N1 1_555 1_555
H7 C8 1_555 1_555
C9 C8 1_555 1_555
H8 C9 1_555 1_555
C10 N2 1_555 1_555
H9 C10 1_555 1_555
U1A O4 1_555 1_555
U1A_2 O6 1_555 1_555
Cl1A C3A 1_555 1_555
Cl2A C6A 1_555 1_555
O1A U1A 1_555 1_555
O2A U1A 1_555 1_555
O3A U1A 1_555 1_555
O4A U1 1_555 1_555
O5A U1A_2 1_555 1_555
O5A_2 U1A 1_555 1_555
O6A U1 1_555 1_555
O6_2 U1A 1_555 1_555
O7A U1A 1_555 1_555
H1A O7A 1_555 1_555
H2A O7A 1_555 1_555
N1A C7A 1_555 1_555
N2A C7A 1_555 1_555
C1A C2 1_555 1_555
C2A C1 1_555 1_555
C3A C1A 1_555 1_555
C4A C5 1_555 1_555
C5A C4 1_555 1_555
C6A C4A 1_555 1_555
C8A N1A 1_555 1_555
H7A C8A 1_555 1_555
C9A C8A 1_555 1_555
H8A C9A 1_555 1_555
C10A N2A 1_555 1_555
H9A C10A 1_555 1_555
C9 C10 1_555 1_555
O3A C1A 1_555 1_555
O4A C2A 1_555 1_555
O5A C4A 1_555 1_555
O6A C5A 1_555 1_555
C2A C3A 1_555 1_555
C5A C6A 1_555 1_555
C9A C10A 1_555 1_555

#END
