
#######################################################################
#
#                 Cambridge Crystallographic Data Centre
#                                CCDC 
#
#######################################################################
#
# If this CIF has been generated from an entry in the Cambridge 
# Structural Database, then it will include bibliographic, chemical, 
# crystal, experimental, refinement or atomic coordinate data resulting 
# from the CCDC's data processing and validation procedures.
#
#######################################################################

data_GEQBEL
_symmetry_cell_setting           monoclinic
_symmetry_space_group_name_H-M   'P 21/c'
_symmetry_Int_Tables_number      14
_space_group_name_Hall           '-P 2ybc'
loop_
_symmetry_equiv_pos_site_id
_symmetry_equiv_pos_as_xyz
1 x,y,z
2 -x,1/2+y,1/2-z
3 -x,-y,-z
4 x,1/2-y,1/2+z
_cell_length_a                   10.2484(8)
_cell_length_b                   24.2589(9)
_cell_length_c                   10.4005(7)
_cell_angle_alpha                90
_cell_angle_beta                 107.164(3)
_cell_angle_gamma                90
_cell_volume                     2470.56
loop_
_atom_site_label
_atom_site_type_symbol
_atom_site_fract_x
_atom_site_fract_y
_atom_site_fract_z
Eu1 Eu 0.069129(19) 0.604668(7) 0.863541(17)
Cl1 Cl 0.40051(10) 0.74070(4) 1.22553(10)
Cl2 Cl -0.24636(9) 0.72998(4) 1.08767(9)
Cl3 Cl 0.00566(9) 0.60873(4) 0.32981(8)
O1 O 0.2091(2) 0.65818(9) 1.0566(2)
O2 O -0.0563(2) 0.65062(9) 1.0054(2)
O3 O -0.0547(2) 0.81400(10) 1.2507(2)
O4 O 0.2090(2) 0.82171(9) 1.2967(2)
O5 O 0.0375(2) 0.50902(9) 0.7673(2)
O6 O 0.0457(2) 0.59789(9) 0.6267(2)
O7 O 0.2949(2) 0.56886(10) 0.8844(2)
H1 H 0.3337 0.5660 0.8222
H2 H 0.3430 0.5429 0.9378
O8 O 0.1116(2) 0.54295(9) 1.0583(2)
H3 H 0.0536 0.5406 1.1196
H4 H 0.1995 0.5306 1.0874
O9 O -0.1666(2) 0.57553(10) 0.7918(2)
H5 H -0.2032 0.5671 0.6974
H6 H -0.2321 0.5959 0.8063
C1 C 0.1541(4) 0.69491(14) 1.1071(3)
C2 C -0.0017(4) 0.69154(14) 1.0752(3)
C3 C -0.0700(4) 0.73265(14) 1.1237(3)
C4 C 0.0008(4) 0.77628(14) 1.2019(3)
C5 C 0.1552(4) 0.78024(14) 1.2323(3)
C6 C 0.2241(4) 0.73766(15) 1.1879(3)
C7 C 0.0192(3) 0.50112(15) 0.6441(3)
C8 C 0.0244(3) 0.55390(14) 0.5613(3)
C9 C 0.0027(3) 0.54921(14) 0.4220(3)
Eu1B Eu -0.069129(19) 0.395332(7) 0.136459(17)
Eu1A Eu -0.069129(19) 0.104668(7) -0.363541(17)
Eu1C Eu 0.069129(19) 0.895332(7) 1.363541(17)
Cl1B Cl -0.40051(10) 0.25930(4) -0.22553(10)
Cl2B Cl 0.24636(9) 0.27002(4) -0.08767(9)
Cl3B Cl -0.00566(9) 0.39127(4) 0.67019(8)
O1B O -0.2091(2) 0.34182(9) -0.0566(2)
O2B O 0.0563(2) 0.34938(9) -0.0054(2)
O3B O 0.0547(2) 0.18600(10) -0.2507(2)
O3A O 0.0547(2) 0.31400(10) 0.2493(2)
O3C O -0.0547(2) 0.68600(10) 0.7507(2)
O4B O -0.2090(2) 0.17829(9) -0.2967(2)
O4A O -0.2090(2) 0.32171(9) 0.2033(2)
O4C O 0.2090(2) 0.67829(9) 0.7967(2)
O5B O -0.0375(2) 0.49098(9) 0.2327(2)
O6B O -0.0457(2) 0.40211(9) 0.3733(2)
O7B O -0.2949(2) 0.43114(10) 0.1156(2)
H1B H -0.3337 0.4340 0.1778
H2B H -0.3430 0.4571 0.0622
O8B O -0.1116(2) 0.45705(9) -0.0583(2)
H3B H -0.0536 0.4594 -0.1196
H4B H -0.1995 0.4694 -0.0874
O9B O 0.1666(2) 0.42447(10) 0.2082(2)
H5B H 0.2032 0.4329 0.3026
H6B H 0.2321 0.4041 0.1937
C1B C -0.1541(4) 0.30509(14) -0.1071(3)
C2B C 0.0017(4) 0.30846(14) -0.0752(3)
C3B C 0.0700(4) 0.26735(14) -0.1237(3)
C4B C -0.0008(4) 0.22372(14) -0.2019(3)
C5B C -0.1552(4) 0.21976(14) -0.2323(3)
C6B C -0.2241(4) 0.26234(15) -0.1879(3)
C7B C -0.0192(3) 0.49888(15) 0.3559(3)
C8B C -0.0244(3) 0.44610(14) 0.4387(3)
C9B C -0.0027(3) 0.45079(14) 0.5780(3)
O10 O 0.3730(2) 0.49854(10) 1.0887(2)
H7 H 0.3643 0.4592 1.0656
H8 H 0.4413 0.5032 1.1752
O11 O -0.3303(3) 0.61237(11) 0.9360(2)
H9 H -0.2529 0.6367 0.9744
H10 H -0.4016 0.6355 0.9432
O12 O 0.4718(3) 0.82651(11) 1.4804(2)
H11 H 0.3994 0.8086 1.4129
H12 H 0.4338 0.8286 1.5564
N1 N 0.3768(3) 0.56495(13) 0.6445(3)
N2 N 0.3908(3) 0.45664(13) 0.7143(3)
N3 N 0.2897(3) 0.43360(13) 0.4836(3)
N4 N 0.3371(3) 0.53836(12) 0.4147(3)
C10 C 0.3545(3) 0.52819(15) 0.5454(3)
C11 C 0.3438(3) 0.46922(15) 0.5830(3)
C12 C 0.3783(4) 0.40377(16) 0.7466(4)
H13 H 0.4078 0.3936 0.8368
C13 C 0.3239(4) 0.36417(16) 0.6521(4)
H14 H 0.3165 0.3276 0.6760
C14 C 0.2807(4) 0.38127(16) 0.5200(4)
H15 H 0.2439 0.3553 0.4534
C15 C 0.3466(4) 0.59145(15) 0.3834(4)
H16 H 0.3343 0.6008 0.2939
C16 C 0.3737(4) 0.63289(16) 0.4785(4)
H17 H 0.3827 0.6694 0.4555
C17 C 0.3866(4) 0.61757(16) 0.6086(4)
H18 H 0.4028 0.6447 0.6745
loop_
_geom_bond_atom_site_label_1
_geom_bond_atom_site_label_2
_geom_bond_site_symmetry_1
_geom_bond_site_symmetry_2
Eu1 O1 1_555 1_555
Cl1 C6 1_555 1_555
Cl2 C3 1_555 1_555
Cl3 C9 1_555 1_555
O1 C1 1_555 1_555
O2 Eu1 1_555 1_555
O3 C4 1_555 1_555
O4 C5 1_555 1_555
O5 Eu1 1_555 1_555
O6 Eu1 1_555 1_555
O7 Eu1 1_555 1_555
H1 O7 1_555 1_555
H2 O7 1_555 1_555
O8 Eu1 1_555 1_555
H3 O8 1_555 1_555
H4 O8 1_555 1_555
O9 Eu1 1_555 1_555
H5 O9 1_555 1_555
H6 O9 1_555 1_555
O10 H7 1_555 1_555
H8 O10 1_555 1_555
O11 H9 1_555 1_555
H10 O11 1_555 1_555
O12 H11 1_555 1_555
H12 O12 1_555 1_555
N1 C10 1_555 1_555
N2 C11 1_555 1_555
N3 C11 1_555 1_555
N4 C10 1_555 1_555
C1 C2 1_555 1_555
C2 O2 1_555 1_555
C3 C2 1_555 1_555
C4 C3 1_555 1_555
C5 C4 1_555 1_555
C6 C1 1_555 1_555
C7 O5 1_555 1_555
C8 O6 1_555 1_555
C9 C8 1_555 1_555
C10 C11 1_555 1_555
C12 N2 1_555 1_555
H13 C12 1_555 1_555
C13 C12 1_555 1_555
H14 C13 1_555 1_555
C14 N3 1_555 1_555
H15 C14 1_555 1_555
C15 N4 1_555 1_555
H16 C15 1_555 1_555
C16 C15 1_555 1_555
H17 C16 1_555 1_555
C17 N1 1_555 1_555
H18 C17 1_555 1_555
Eu1B O1B 1_555 1_555
Eu1A O3B 1_555 1_555
Eu1C O3 1_555 1_555
Cl1B C6B 1_555 1_555
Cl2B C3B 1_555 1_555
Cl3B C9B 1_555 1_555
O1B C1B 1_555 1_555
O2B Eu1B 1_555 1_555
O3B C4B 1_555 1_555
O3A Eu1B 1_555 1_555
O3C Eu1 1_555 1_555
O4B Eu1A 1_555 1_555
O4A Eu1B 1_555 1_555
O4C Eu1 1_555 1_555
O5B Eu1B 1_555 1_555
O6B Eu1B 1_555 1_555
O7B Eu1B 1_555 1_555
H1B O7B 1_555 1_555
H2B O7B 1_555 1_555
O8B Eu1B 1_555 1_555
H3B O8B 1_555 1_555
H4B O8B 1_555 1_555
O9B Eu1B 1_555 1_555
H5B O9B 1_555 1_555
H6B O9B 1_555 1_555
C1B C2B 1_555 1_555
C2B O2B 1_555 1_555
C3B C2B 1_555 1_555
C4B C3B 1_555 1_555
C5B O4B 1_555 1_555
C6B C1B 1_555 1_555
C7B C9 1_555 1_555
C8B O6B 1_555 1_555
C9B C7 1_555 1_555
O4 Eu1C 1_555 1_555
C5 C6 1_555 1_555
C7 C8 1_555 1_555
C13 C14 1_555 1_555
C16 C17 1_555 1_555
O5B C7B 1_555 1_555
C4B C5B 1_555 1_555
C5B C6B 1_555 1_555
C7B C8B 1_555 1_555
C8B C9B 1_555 1_555

#END
