
#######################################################################
#
#                 Cambridge Crystallographic Data Centre
#                                CCDC 
#
#######################################################################
#
# If this CIF has been generated from an entry in the Cambridge 
# Structural Database, then it will include bibliographic, chemical, 
# crystal, experimental, refinement or atomic coordinate data resulting 
# from the CCDC's data processing and validation procedures.
#
#######################################################################

data_GEQBAG
_symmetry_cell_setting           orthorhombic
_symmetry_space_group_name_H-M   'P b a 2'
_symmetry_Int_Tables_number      32
_space_group_name_Hall           'P 2 -2ab'
loop_
_symmetry_equiv_pos_site_id
_symmetry_equiv_pos_as_xyz
1 x,y,z
2 -x,-y,z
3 1/2-x,1/2+y,z
4 1/2+x,1/2-y,z
_cell_length_a                   11.0192(9)
_cell_length_b                   16.8012(14)
_cell_length_c                   6.8717(6)
_cell_angle_alpha                90
_cell_angle_beta                 90
_cell_angle_gamma                90
_cell_volume                     1272.2
loop_
_atom_site_label
_atom_site_type_symbol
_atom_site_fract_x
_atom_site_fract_y
_atom_site_fract_z
Cd1 Cd 0.0000 0.0000 -0.10255(7)
Nb1 Nb -0.033310(16) 0.107720(10) -0.59688(3)
F1 F 0.13294(15) 0.13924(9) -0.5615(3)
F2 F -0.06533(15) 0.22303(7) -0.5836(4)
F3 F -0.03601(14) 0.11982(10) -0.2779(2)
F4 F -0.20828(14) 0.09673(9) -0.5598(3)
O1 O 0.0000 0.0000 -0.5173(4)
O2 O -0.03221(19) 0.09376(12) 0.1515(3)
N1 N 0.3774(4) 0.0656(2) -0.2040(6)
H3 H 0.4376 0.0765 -0.2792
N2 N 0.19720(16) 0.02839(11) -0.1068(6)
C1 C 0.2668(4) 0.0396(2) -0.2566(6)
H6 H 0.2432 0.0306 -0.3846
C2 C 0.3738(6) 0.0710(3) -0.0068(8)
H7 H 0.4371 0.0882 0.0721
C3 C 0.2670(5) 0.0483(3) 0.0538(7)
H8 H 0.2421 0.0459 0.1830
Nb1A Nb 0.033310(16) -0.107720(10) -0.59688(3)
Nb1_2 Nb -0.033310(16) 0.107720(10) 0.40312(3)
Nb1A_2 Nb 0.033310(16) -0.107720(10) 0.40312(3)
F1A F -0.13294(15) -0.13924(9) -0.5615(3)
F2A F 0.06533(15) -0.22303(7) -0.5836(4)
F3A F 0.03601(14) -0.11982(10) -0.2779(2)
F4A F 0.20828(14) -0.09673(9) -0.5598(3)
O2A O 0.03221(19) -0.09376(12) 0.1515(3)
O2_2 O -0.03221(19) 0.09376(12) -0.8485(3)
O2A_2 O 0.03221(19) -0.09376(12) -0.8485(3)
N1A N -0.3774(4) -0.0656(2) -0.2040(6)
H3A H -0.4376 -0.0765 -0.2792
N2A N -0.19720(16) -0.02839(11) -0.1068(6)
C1A C -0.2668(4) -0.0396(2) -0.2566(6)
H6A H -0.2432 -0.0306 -0.3846
C2A C -0.3738(6) -0.0710(3) -0.0068(8)
H7A H -0.4371 -0.0882 0.0721
C3A C -0.2670(5) -0.0483(3) 0.0538(7)
H8A H -0.2421 -0.0459 0.1830
H1 H 0.5263 0.1635 0.4255
H2 H 0.6108 0.1157 0.4944
O3 O 0.5337(2) 0.12411(16) 0.5034(5)
N3 N 0.2662(2) 0.31147(15) 0.8689(6)
H4 H 0.3287 0.3398 0.8401
N4 N 0.1270(3) 0.22589(15) 0.8502(4)
H5 H 0.0817 0.1880 0.8078
C4 C 0.2199(4) 0.2549(2) 0.7594(6)
H9 H 0.2487 0.2387 0.6385
C5 C 0.1118(4) 0.2642(2) 1.0221(6)
H10 H 0.0515 0.2548 1.1140
C6 C 0.2004(4) 0.3180(2) 1.0331(5)
H11 H 0.2142 0.3533 1.1349
loop_
_geom_bond_atom_site_label_1
_geom_bond_atom_site_label_2
_geom_bond_site_symmetry_1
_geom_bond_site_symmetry_2
Cd1 F3 1_555 1_555
Nb1 F1 1_555 1_555
F2 Nb1 1_555 1_555
F3 Nb1 1_555 1_555
F4 Nb1 1_555 1_555
O1 Nb1 1_555 1_555
H1 O3 1_555 1_555
H2 O3 1_555 1_555
O2 Cd1 1_555 1_555
N1 H3 1_555 1_555
N2 Cd1 1_555 1_555
N3 H4 1_555 1_555
N4 H5 1_555 1_555
C1 N1 1_555 1_555
H6 C1 1_555 1_555
C2 N1 1_555 1_555
H7 C2 1_555 1_555
C3 N2 1_555 1_555
H8 C3 1_555 1_555
C4 N3 1_555 1_555
H9 C4 1_555 1_555
C5 N4 1_555 1_555
H10 C5 1_555 1_555
C6 N3 1_555 1_555
H11 C6 1_555 1_555
Nb1A O1 1_555 1_555
Nb1_2 O2 1_555 1_555
Nb1A_2 O2A 1_555 1_555
F1A Nb1A 1_555 1_555
F2A Nb1A 1_555 1_555
F3A Cd1 1_555 1_555
F4A Nb1A 1_555 1_555
O2A Cd1 1_555 1_555
O2_2 Nb1 1_555 1_555
O2A_2 Nb1A 1_555 1_555
N1A H3A 1_555 1_555
N2A Cd1 1_555 1_555
C1A N1A 1_555 1_555
H6A C1A 1_555 1_555
C2A N1A 1_555 1_555
H7A C2A 1_555 1_555
C3A N2A 1_555 1_555
H8A C3A 1_555 1_555
N2 C1 1_555 1_555
N4 C4 1_555 1_555
C2 C3 1_555 1_555
C5 C6 1_555 1_555
Nb1A F3A 1_555 1_555
N2A C1A 1_555 1_555
C2A C3A 1_555 1_555

#END
