
#######################################################################
#
#                 Cambridge Crystallographic Data Centre
#                                CCDC 
#
#######################################################################
#
# If this CIF has been generated from an entry in the Cambridge 
# Structural Database, then it will include bibliographic, chemical, 
# crystal, experimental, refinement or atomic coordinate data resulting 
# from the CCDC's data processing and validation procedures.
#
#######################################################################

data_GEQBAH
_symmetry_cell_setting           monoclinic
_symmetry_space_group_name_H-M   'C 2/m'
_symmetry_Int_Tables_number      12
_space_group_name_Hall           '-C 2y'
loop_
_symmetry_equiv_pos_site_id
_symmetry_equiv_pos_as_xyz
1 x,y,z
2 -x,y,-z
3 1/2+x,1/2+y,z
4 1/2-x,1/2+y,-z
5 -x,-y,-z
6 x,-y,z
7 1/2-x,1/2-y,-z
8 1/2+x,1/2-y,z
_cell_length_a                   10.9420(13)
_cell_length_b                   16.519(2)
_cell_length_c                   10.9585(18)
_cell_angle_alpha                90
_cell_angle_beta                 96.019(10)
_cell_angle_gamma                90
_cell_volume                     1969.84
loop_
_atom_site_label
_atom_site_type_symbol
_atom_site_fract_x
_atom_site_fract_y
_atom_site_fract_z
Gd1 Gd 0.21987(6) 0.0000 0.85531(7)
Cl1 Cl 0.0000 0.1919(3) 0.5000
Cl2 Cl 0.4391(2) 0.29423(15) 0.8093(3)
O1 O 0.1300(7) 0.0788(4) 0.6863(8)
O2 O 0.1587(6) 0.0989(4) 1.0032(7)
O3 O 0.3237(6) 0.1333(4) 0.8560(7)
O4 O 0.3790(10) 0.0000 0.7240(11)
H1 H 0.4164 0.0429 0.7232
O5 O 0.3808(10) 0.0000 1.0285(11)
H2 H 0.3978 0.0397 1.0804
O6 O -0.0094(9) 0.0000 0.8548(10)
H3 H -0.0419 -0.0475 0.8615
C1 C 0.0670(10) 0.0467(7) 0.5949(12)
C2 C 0.0000 0.0859(8) 0.5000
C3 C 0.1971(9) 0.1704(6) 1.0077(10)
C4 C 0.2934(8) 0.1907(6) 0.9182(10)
C5 C 0.3356(9) 0.2699(6) 0.9144(10)
Gd1A Gd -0.21987(6) 0.0000 0.14469(7)
Gd1C Gd 0.28013(6) -0.5000 1.14469(7)
Gd1C_2 Gd 0.28013(6) 0.5000 1.14469(7)
Cl1D Cl 0.0000 -0.1919(3) 0.5000
Cl2F Cl 0.0609(2) 0.20577(15) 1.1907(3)
Cl2E Cl 0.4391(2) -0.29423(15) 0.8093(3)
Cl2C Cl 0.0609(2) -0.20577(15) 1.1907(3)
O1A O -0.1300(7) 0.0788(4) 0.3137(8)
O1D O -0.1300(7) -0.0788(4) 0.3137(8)
O1E O 0.1300(7) -0.0788(4) 0.6863(8)
O2F O 0.3413(6) 0.4011(4) 0.9968(7)
O2E O 0.1587(6) -0.0989(4) 1.0032(7)
O2C O 0.3413(6) -0.4011(4) 0.9968(7)
O2D O -0.1587(6) -0.0989(4) -0.0032(7)
O2A O -0.1587(6) 0.0989(4) -0.0032(7)
O3F O 0.1763(6) 0.3667(4) 1.1440(7)
O3E O 0.3237(6) -0.1333(4) 0.8560(7)
O3C O 0.1763(6) -0.3667(4) 1.1440(7)
O3D O -0.3237(6) -0.1333(4) 0.1440(7)
O3A O -0.3237(6) 0.1333(4) 0.1440(7)
O4A O -0.3790(10) 0.0000 0.2760(11)
H1E H 0.4164 -0.0429 0.7232
H1A H -0.4164 0.0429 0.2768
H1D H -0.4164 -0.0429 0.2768
O5A O -0.3808(10) 0.0000 -0.0285(11)
H2E H 0.3978 -0.0397 1.0804
H2A H -0.3978 0.0397 -0.0804
H2D H -0.3978 -0.0397 -0.0804
O6A O 0.0094(9) 0.0000 0.1452(10)
H3E H -0.0419 0.0475 0.8615
H3A H 0.0419 -0.0475 0.1385
H3D H 0.0419 0.0475 0.1385
C1A C -0.0670(10) 0.0467(7) 0.4051(12)
C1D C -0.0670(10) -0.0467(7) 0.4051(12)
C1E C 0.0670(10) -0.0467(7) 0.5949(12)
C2D C 0.0000 -0.0859(8) 0.5000
C3F C 0.3029(9) 0.3296(6) 0.9923(10)
C3E C 0.1971(9) -0.1704(6) 1.0077(10)
C3C C 0.3029(9) -0.3296(6) 0.9923(10)
C4F C 0.2066(8) 0.3093(6) 1.0818(10)
C4E C 0.2934(8) -0.1907(6) 0.9182(10)
C4C C 0.2066(8) -0.3093(6) 1.0818(10)
C5F C 0.1644(9) 0.2301(6) 1.0856(10)
C5E C 0.3356(9) -0.2699(6) 0.9144(10)
C5C C 0.1644(9) -0.2301(6) 1.0856(10)
O7 O 0.5768(12) 0.1129(9) 0.7807(16)
C6 C 0.621(4) 0.147(2) 0.675(3)
H4 H 0.6635 0.1966 0.6976
H5 H 0.5509 0.1599 0.6164
C7 C 0.706(6) 0.092(4) 0.612(5)
H6 H 0.6840 0.0938 0.5248
H7 H 0.6999 0.0379 0.6410
H8 H 0.7893 0.1110 0.6300
loop_
_geom_bond_atom_site_label_1
_geom_bond_atom_site_label_2
_geom_bond_site_symmetry_1
_geom_bond_site_symmetry_2
Gd1 O1 1_555 1_555
Cl1 C2 1_555 1_555
Cl2 C5 1_555 1_555
O1 C1 1_555 1_555
O2 Gd1 1_555 1_555
O3 Gd1 1_555 1_555
O4 Gd1 1_555 1_555
H1 O4 1_555 1_555
O5 Gd1 1_555 1_555
H2 O5 1_555 1_555
O6 Gd1 1_555 1_555
H3 O6 1_555 1_555
O7 C6 1_555 1_555
C1 C2 1_555 1_555
C2 C1A 1_555 1_555
C3 O2 1_555 1_555
C4 O3 1_555 1_555
C5 C4 1_555 1_555
C6 H4 1_555 1_555
H5 C6 1_555 1_555
C7 C6 1_555 1_555
H6 C7 1_555 1_555
H7 C7 1_555 1_555
H8 C7 1_555 1_555
Gd1A O1A 1_555 1_555
Gd1C O2C 1_555 1_555
Gd1C_2 O2F 1_555 1_555
Cl1D C2D 1_555 1_555
Cl2F C5F 1_555 1_555
Cl2E C5E 1_555 1_555
Cl2C C5C 1_555 1_555
O1A C1A 1_555 1_555
O1D Gd1A 1_555 1_555
O1E Gd1 1_555 1_555
O2F C3F 1_555 1_555
O2E Gd1 1_555 1_555
O2C C3C 1_555 1_555
O2D Gd1A 1_555 1_555
O2A Gd1A 1_555 1_555
O3F Gd1C_2 1_555 1_555
O3E Gd1 1_555 1_555
O3C Gd1C 1_555 1_555
O3D Gd1A 1_555 1_555
O3A Gd1A 1_555 1_555
O4A Gd1A 1_555 1_555
H1E O4 1_555 1_555
H1A O4A 1_555 1_555
H1D O4A 1_555 1_555
O5A Gd1A 1_555 1_555
H2E O5 1_555 1_555
H2A O5A 1_555 1_555
H2D O5A 1_555 1_555
O6A Gd1A 1_555 1_555
H3E O6 1_555 1_555
H3A O6A 1_555 1_555
H3D O6A 1_555 1_555
C1A C1D 1_555 1_555
C1D O1D 1_555 1_555
C1E C1 1_555 1_555
C2D C1D 1_555 1_555
C3F C5 1_555 1_555
C3E O2E 1_555 1_555
C3C C4C 1_555 1_555
C4F O3F 1_555 1_555
C4E O3E 1_555 1_555
C4C O3C 1_555 1_555
C5F C3 1_555 1_555
C5E C3C 1_555 1_555
C5C C3E 1_555 1_555
C3 C4 1_555 1_555
O1E C1E 1_555 1_555
C1E C2D 1_555 1_555
C3F C4F 1_555 1_555
C3E C4E 1_555 1_555
C4F C5F 1_555 1_555
C4E C5E 1_555 1_555
C4C C5C 1_555 1_555

#END
