
#######################################################################
#
#                 Cambridge Crystallographic Data Centre
#                                CCDC 
#
#######################################################################
#
# If this CIF has been generated from an entry in the Cambridge 
# Structural Database, then it will include bibliographic, chemical, 
# crystal, experimental, refinement or atomic coordinate data resulting 
# from the CCDC's data processing and validation procedures.
#
#######################################################################

data_GEQFOX
_symmetry_cell_setting           monoclinic
_symmetry_space_group_name_H-M   'P 21/n'
_symmetry_Int_Tables_number      14
_space_group_name_Hall           '-P 2yn'
loop_
_symmetry_equiv_pos_site_id
_symmetry_equiv_pos_as_xyz
1 x,y,z
2 1/2-x,1/2+y,1/2-z
3 -x,-y,-z
4 1/2+x,1/2-y,1/2+z
_cell_length_a                   8.942(1)
_cell_length_b                   15.784(1)
_cell_length_c                   13.700(1)
_cell_angle_alpha                90
_cell_angle_beta                 108.557(1)
_cell_angle_gamma                90
_cell_volume                     1833.09
loop_
_atom_site_label
_atom_site_type_symbol
_atom_site_fract_x
_atom_site_fract_y
_atom_site_fract_z
O1 O 0.4925(3) 0.0827(2) 0.5502(2)
O2 O 0.7002(3) 0.0094(2) 0.6467(2)
O3 O 0.0452(3) 0.0267(2) 0.5980(2)
O4 O 0.0342(4) -0.0483(2) 0.7299(3)
O5 O -0.0273(4) 0.1688(2) 0.4573(3)
O6 O -0.1480(4) 0.2898(2) 0.4699(3)
O7 O 0.2900(4) -0.0771(2) 0.5554(2)
H1 H 0.2220(59) -0.1159(32) 0.5531(37)
H2 H 0.3514(61) -0.0946(32) 0.5320(38)
N1 N 0.3465(4) 0.0826(3) 0.6951(3)
N2 N 0.2655(5) 0.2368(2) 0.5501(3)
N3 N 0.2849(4) 0.1851(2) 0.3596(3)
C1 C 0.3777(12) 0.1744(5) 0.7187(5)
H3 H 0.3628(12) 0.1832(5) 0.7851(5)
H4 H 0.4895(12) 0.1822(5) 0.7298(5)
C2 C 0.3088(13) 0.2373(4) 0.6624(5)
H5 H 0.3760(13) 0.2863(4) 0.6862(5)
H6 H 0.2125(13) 0.2480(4) 0.6787(5)
C3 C 0.4992(5) 0.0401(3) 0.7194(3)
H7 H 0.4866(5) -0.0189(3) 0.7350(3)
H8 H 0.5718(5) 0.0659(3) 0.7805(3)
C4 C 0.5698(5) 0.0447(3) 0.6322(3)
C5 C 0.2551(7) 0.0439(6) 0.7536(4)
H9 H 0.2314(7) 0.0869(6) 0.7971(4)
H10 H 0.3198(7) 0.0012(6) 0.7985(4)
C6 C 0.1020(5) 0.0030(3) 0.6904(3)
C7 C 0.1269(7) 0.2925(3) 0.5090(5)
H11 H 0.1365(7) 0.3222(3) 0.4493(5)
H12 H 0.1276(7) 0.3347(3) 0.5606(5)
C8 C -0.0285(6) 0.2472(3) 0.4786(3)
C9 C 0.3939(5) 0.2693(3) 0.5145(4)
H13 H 0.4910(5) 0.2397(3) 0.5502(4)
H14 H 0.4098(5) 0.3291(3) 0.5312(4)
C10 C 0.3570(5) 0.2578(3) 0.4003(4)
C11 C 0.4014(7) 0.3181(3) 0.3412(5)
H15 H 0.4493(7) 0.3682(3) 0.3707(5)
C12 C 0.3735(7) 0.3026(4) 0.2386(5)
H16 H 0.4025(7) 0.3423(4) 0.1979(5)
C13 C 0.3019(6) 0.2274(4) 0.1955(4)
H17 H 0.2831(6) 0.2156(4) 0.1261(4)
C14 C 0.2592(6) 0.1705(3) 0.2589(4)
H18 H 0.2108(6) 0.1200(3) 0.2306(4)
La1 La 0.19733(2) 0.070480(13) 0.47868(2)
La1B La 0.80267(2) -0.070480(13) 0.52132(2)
O2B O 0.2998(3) -0.0094(2) 0.3533(2)
La1B_2 La -0.19733(2) -0.070480(13) 0.52132(2)
O3B O -0.0452(3) -0.0267(2) 0.4020(2)
O4B O -0.0342(4) 0.0483(2) 0.2701(3)
O8 O -0.1076(8) 0.4603(3) 0.5313(4)
H19 H -0.2200 0.4646 0.5076
H20 H -0.1000 0.4043 0.5247
O9 O 0.1004(7) -0.0178(3) 0.9473(4)
H21 H -0.0200 -0.0162 0.9368
H22 H 0.0800 -0.0531 0.8766
loop_
_geom_bond_atom_site_label_1
_geom_bond_atom_site_label_2
_geom_bond_site_symmetry_1
_geom_bond_site_symmetry_2
O1 C4 1_555 1_555
O2 C4 1_555 1_555
O3 C6 1_555 1_555
O4 C6 1_555 1_555
O5 C8 1_555 1_555
O6 C8 1_555 1_555
O7 H1 1_555 1_555
H2 O7 1_555 1_555
N1 C1 1_555 1_555
N2 C2 1_555 1_555
N3 C10 1_555 1_555
C1 H3 1_555 1_555
H4 C1 1_555 1_555
C2 C1 1_555 1_555
H5 C2 1_555 1_555
H6 C2 1_555 1_555
C3 N1 1_555 1_555
H7 C3 1_555 1_555
H8 C3 1_555 1_555
C4 C3 1_555 1_555
C5 N1 1_555 1_555
H9 C5 1_555 1_555
H10 C5 1_555 1_555
C6 C5 1_555 1_555
C7 N2 1_555 1_555
H11 C7 1_555 1_555
H12 C7 1_555 1_555
C8 C7 1_555 1_555
C9 N2 1_555 1_555
H13 C9 1_555 1_555
H14 C9 1_555 1_555
C10 C9 1_555 1_555
C11 C10 1_555 1_555
H15 C11 1_555 1_555
C12 C11 1_555 1_555
H16 C12 1_555 1_555
C13 C12 1_555 1_555
H17 C13 1_555 1_555
C14 N3 1_555 1_555
H18 C14 1_555 1_555
La1 O1 1_555 1_555
O8 H19 1_555 1_555
H20 O8 1_555 1_555
O9 H21 1_555 1_555
H22 O9 1_555 1_555
La1B O2 1_555 1_555
O2B La1 1_555 1_555
La1B_2 O3 1_555 1_555
O3B La1 1_555 1_555
O4B La1 1_555 1_555
O3 La1 1_555 1_555
O4 La1B_2 1_555 1_555
O5 La1 1_555 1_555
O7 La1 1_555 1_555
N1 La1 1_555 1_555
N2 La1 1_555 1_555
N3 La1 1_555 1_555
C13 C14 1_555 1_555
La1B_2 O3B 1_555 1_555

#END
