
#######################################################################
#
#                 Cambridge Crystallographic Data Centre
#                                CCDC 
#
#######################################################################
#
# If this CIF has been generated from an entry in the Cambridge 
# Structural Database, then it will include bibliographic, chemical, 
# crystal, experimental, refinement or atomic coordinate data resulting 
# from the CCDC's data processing and validation procedures.
#
#######################################################################

data_GEQTUT
_symmetry_cell_setting           monoclinic
_symmetry_space_group_name_H-M   'P 21/c'
_symmetry_Int_Tables_number      14
_space_group_name_Hall           '-P 2ybc'
loop_
_symmetry_equiv_pos_site_id
_symmetry_equiv_pos_as_xyz
1 x,y,z
2 -x,1/2+y,1/2-z
3 -x,-y,-z
4 x,1/2-y,1/2+z
_cell_length_a                   24.0201(11)
_cell_length_b                   17.8559(8)
_cell_length_c                   18.0012(8)
_cell_angle_alpha                90
_cell_angle_beta                 90.1630(10)
_cell_angle_gamma                90
_cell_volume                     7720.69
loop_
_atom_site_label
_atom_site_type_symbol
_atom_site_fract_x
_atom_site_fract_y
_atom_site_fract_z
Zn1 Zn 0.61656(4) -0.05196(5) 0.44873(5)
Zn2 Zn 0.37714(4) -0.05598(5) 1.06328(5)
Cl1 Cl 0.53154(8) -0.10005(11) 0.44159(11)
Cl2 Cl 0.68901(8) -0.11043(12) 0.39900(12)
Cl3 Cl 0.46235(9) -0.10205(12) 1.05704(12)
Cl4 Cl 0.31333(8) -0.10847(12) 1.13815(11)
N1 N 0.6334(3) -0.0397(4) 0.5604(4)
C1 C 0.6738(4) -0.0790(5) 0.5927(5)
H1 H 0.6960 -0.1100 0.5637
C2 C 0.6837(4) -0.0748(5) 0.6690(5)
H2 H 0.7120 -0.1026 0.6911
C3 C 0.6503(4) -0.0282(5) 0.7109(5)
H3 H 0.6563 -0.0246 0.7619
C4 C 0.6079(3) 0.0133(4) 0.6780(4)
C5 C 0.6018(3) 0.0054(4) 0.6023(4)
H4 H 0.5741 0.0331 0.5788
C6 C 0.5691(3) 0.0603(5) 0.7228(4)
H5 H 0.5879 0.0783 0.7671
H6 H 0.5571 0.1033 0.6939
N2 N 0.5222(3) 0.0160(4) 0.7429(4)
H7 H 0.5267 -0.0315 0.7478
C7 C 0.4712(3) 0.0448(4) 0.7547(4)
O1 O 0.4622(2) 0.1144(3) 0.7540(3)
N3 N 0.4303(3) -0.0047(4) 0.7676(4)
H8 H 0.4389 -0.0508 0.7753
C8 C 0.3724(3) 0.0165(5) 0.7691(5)
H9 H 0.3547 0.0007 0.7232
H10 H 0.3697 0.0707 0.7719
C9 C 0.3418(3) -0.0169(4) 0.8332(4)
C10 C 0.2872(4) -0.0390(5) 0.8249(5)
H11 H 0.2700 -0.0363 0.7787
C11 C 0.2580(4) -0.0655(6) 0.8860(5)
H12 H 0.2210 -0.0803 0.8817
C12 C 0.2853(4) -0.0692(6) 0.9530(5)
H13 H 0.2656 -0.0858 0.9942
N4 N 0.3385(3) -0.0504(4) 0.9621(4)
C13 C 0.3655(3) -0.0238(4) 0.9034(4)
H14 H 0.4023 -0.0090 0.9097
N5 N 0.3821(2) 0.0562(4) 1.0848(3)
C14 C 0.3346(3) 0.0974(5) 1.0869(5)
H15 H 0.3005 0.0731 1.0818
C15 C 0.3353(4) 0.1731(5) 1.0964(5)
H16 H 0.3021 0.1999 1.0972
C16 C 0.3854(4) 0.2099(5) 1.1047(5)
H17 H 0.3862 0.2614 1.1118
C17 C 0.4345(3) 0.1695(4) 1.1023(4)
C18 C 0.4311(3) 0.0922(4) 1.0924(4)
H18 H 0.4638 0.0645 1.0910
C19 C 0.4897(3) 0.2081(4) 1.1122(4)
H19 H 0.5193 0.1713 1.1088
H20 H 0.4948 0.2440 1.0723
N6 N 0.4940(3) 0.2465(3) 1.1823(3)
H21 H 0.4929 0.2946 1.1834
C20 C 0.4998(3) 0.2081(4) 1.2465(5)
O2 O 0.5055(2) 0.1379(3) 1.2459(3)
N7 N 0.5011(3) 0.2458(3) 1.3111(3)
H22 H 0.4983 0.2938 1.3106
C21 C 0.5069(3) 0.2073(4) 1.3817(4)
H23 H 0.4777 0.1701 1.3861
H24 H 0.5023 0.2431 1.4217
C22 C 0.5624(3) 0.1695(4) 1.3896(4)
C23 C 0.5660(3) 0.0939(4) 1.4084(4)
H25 H 0.5331 0.0676 1.4167
N8 N 0.6142(3) 0.0572(4) 1.4151(3)
C24 C 0.6616(3) 0.0950(5) 1.4026(5)
H26 H 0.6954 0.0699 1.4065
C25 C 0.6615(4) 0.1704(5) 1.3841(5)
H27 H 0.6949 0.1956 1.3762
C26 C 0.6114(4) 0.2075(5) 1.3776(5)
H28 H 0.6108 0.2580 1.3652
Zn1_2 Zn 0.61656(4) -0.05196(5) 1.44873(5)
N8_2 N 0.6142(3) 0.0572(4) 0.4151(3)
C27 C 0.3480(6) 0.2729(9) 0.2912(8)
H29 H 0.3676 0.3041 0.3259
H30 H 0.3461 0.2976 0.2439
H31 H 0.3673 0.2262 0.2859
C28 C 0.2899(5) 0.2586(7) 0.3193(6)
C29 C 0.2457(5) 0.2388(9) 0.2720(8)
H32 H 0.2514 0.2386 0.2209
C30 C 0.1937(5) 0.2196(7) 0.2995(6)
H33 H 0.1652 0.2066 0.2669
C31 C 0.1843(4) 0.2197(7) 0.3752(6)
C32 C 0.1267(5) 0.1988(7) 0.4047(7)
H34 H 0.1274 0.1483 0.4230
H35 H 0.0998 0.2027 0.3654
H36 H 0.1167 0.2322 0.4443
C33 C 0.2273(5) 0.2383(7) 0.4222(8)
H37 H 0.2213 0.2385 0.4732
C34 C 0.2802(5) 0.2570(8) 0.3947(7)
H38 H 0.3089 0.2683 0.4276
Zn3 Zn 0.87712(4) 1.06018(5) 0.43561(5)
Zn4 Zn 1.11641(4) 1.05669(5) 0.05194(5)
Cl5 Cl 0.96278(9) 1.10501(11) 0.44134(12)
Cl6 Cl 0.81298(8) 1.11144(12) 0.36059(12)
Cl7 Cl 1.03085(8) 1.10351(11) 0.05811(11)
Cl8 Cl 1.18880(8) 1.11616(12) 0.10097(12)
N9 N 0.8820(2) 0.9466(4) 0.4136(3)
C35 C 0.8350(3) 0.9087(5) 0.4064(4)
H39 H 0.8013 0.9340 0.4104
C36 C 0.8346(4) 0.8322(5) 0.3930(5)
H40 H 0.8013 0.8062 0.3879
C37 C 0.8851(3) 0.7959(5) 0.3874(5)
H41 H 0.8857 0.7446 0.3784
C38 C 0.9341(3) 0.8336(4) 0.3949(4)
C39 C 0.9302(3) 0.9110(4) 0.4077(4)
H42 H 0.9629 0.9384 0.4123
C40 C 0.9898(3) 0.7951(4) 0.3877(4)
H43 H 1.0191 0.8322 0.3918
H44 H 0.9942 0.7599 0.4283
N10 N 0.9956(3) 0.7559(3) 0.3185(3)
H45 H 0.9952 0.7078 0.3176
C41 C 1.0017(3) 0.7954(4) 0.2549(4)
O3 O 1.0067(2) 0.8646(3) 0.2557(3)
N11 N 1.0037(3) 0.7568(3) 0.1904(3)
H46 H 1.0015 0.7087 0.1910
C42 C 1.0095(3) 0.7952(4) 0.1215(4)
H47 H 0.9796 0.8314 0.1166
H48 H 1.0059 0.7595 0.0812
C43 C 1.0647(3) 0.8352(4) 0.1145(4)
C44 C 1.1145(4) 0.7999(5) 0.1311(5)
H49 H 1.1144 0.7499 0.1457
C45 C 1.1644(4) 0.8384(5) 0.1260(5)
H50 H 1.1979 0.8149 0.1371
C46 C 1.1630(3) 0.9122(5) 0.1043(4)
H51 H 1.1963 0.9386 0.1012
N12 N 1.1155(2) 0.9475(4) 0.0875(3)
C47 C 1.0682(3) 0.9095(4) 0.0934(4)
H52 H 1.0352 0.9346 0.0826
N13 N 1.1331(3) 1.0422(3) -0.0594(3)
C48 C 1.1715(4) 1.0843(5) -0.0939(5)
H53 H 1.1930 1.1173 -0.0660
C49 C 1.1798(4) 1.0799(5) -0.1687(5)
H54 H 1.2066 1.1098 -0.1912
C50 C 1.1482(4) 1.0307(5) -0.2113(5)
H55 H 1.1542 1.0264 -0.2622
C51 C 1.1079(3) 0.9886(4) -0.1768(4)
C52 C 1.1009(3) 0.9969(4) -0.1010(4)
H56 H 1.0728 0.9700 -0.0778
C53 C 1.0693(3) 0.9379(4) -0.2205(4)
H57 H 1.0882 0.9188 -0.2641
H58 H 1.0579 0.8958 -0.1902
N14 N 1.0214(3) 0.9815(4) -0.2422(4)
H59 H 1.0253 1.0291 -0.2477
C54 C 0.9712(3) 0.9513(4) -0.2543(4)
O4 O 0.9631(2) 0.8815(3) -0.2530(3)
N15 N 0.9295(3) 1.0002(4) -0.2678(4)
H60 H 0.9375 1.0468 -0.2732
C55 C 0.8723(3) 0.9775(5) -0.2735(5)
H61 H 0.8537 0.9883 -0.2269
H62 H 0.8708 0.9237 -0.2812
C56 C 0.8419(3) 1.0153(4) -0.3349(4)
C57 C 0.8657(3) 1.0237(4) -0.4046(4)
H63 H 0.9021 1.0075 -0.4112
N16 N 0.8395(3) 1.0535(4) -0.4623(4)
C58 C 0.7876(4) 1.0782(5) -0.4525(5)
H64 H 0.7684 1.0984 -0.4929
C59 C 0.7613(4) 1.0748(5) -0.3843(5)
H65 H 0.7254 1.0933 -0.3786
C60 C 0.7891(4) 1.0437(5) -0.3254(5)
H66 H 0.7724 1.0417 -0.2790
Zn3_2 Zn 0.87712(4) 1.06018(5) -0.56439(5)
N16_2 N 0.8395(3) 1.0535(4) 0.5377(4)
C61 C 0.1298(5) 0.7747(8) 0.9263(8)
H67 H 0.1057 0.7724 0.8838
H68 H 0.1247 0.8217 0.9514
H69 H 0.1211 0.7344 0.9596
C62 C 0.1901(5) 0.7678(7) 0.9015(7)
C63 C 0.2339(5) 0.7618(7) 0.9516(7)
H70 H 0.2265 0.7610 1.0023
C64 C 0.2889(6) 0.7570(8) 0.9273(8)
H71 H 0.3178 0.7549 0.9617
C65 C 0.3003(5) 0.7553(8) 0.8516(8)
C66 C 0.3605(6) 0.7509(9) 0.8270(9)
H72 H 0.3642 0.7131 0.7895
H73 H 0.3836 0.7385 0.8687
H74 H 0.3717 0.7984 0.8071
C67 C 0.2573(5) 0.7604(8) 0.8006(8)
H75 H 0.2644 0.7591 0.7499
C68 C 0.2028(5) 0.7677(8) 0.8271(7)
H76 H 0.1740 0.7725 0.7928
C69? C 0.3727(11) 0.2975(18) 0.4074(17)
C70? C 0.1378(11) 0.751(2) 0.8246(19)
C71? C 0.3151(10) 0.2814(18) 0.3741(13)
C72? C 0.1971(10) 0.745(2) 0.8551(16)
C73? C 0.3071(14) 0.2806(19) 0.2980(14)
C74? C 0.2129(12) 0.7491(19) 0.9293(16)
C75? C 0.2556(12) 0.255(3) 0.274(2)
C76? C 0.2689(11) 0.7401(17) 0.9500(15)
C77? C 0.2099(11) 0.242(2) 0.3198(15)
C78? C 0.3100(10) 0.7362(19) 0.8964(15)
C79? C 0.1497(12) 0.228(2) 0.292(2)
C80? C 0.3700(11) 0.732(2) 0.928(2)
C81? C 0.2205(12) 0.239(2) 0.3946(17)
C82? C 0.2956(13) 0.734(2) 0.8226(17)
C83? C 0.2727(9) 0.2608(16) 0.4230(17)
C84? C 0.2391(12) 0.739(2) 0.8039(19)
H77? H 0.3704 0.3399 0.4400
H78? H 0.3985 0.3081 0.3681
H79? H 0.3853 0.2546 0.4348
H80? H 0.1347 0.7946 0.7940
H81? H 0.1120 0.7543 0.8651
H82? H 0.1293 0.7071 0.7955
H83? H 0.3345 0.2962 0.2651
H84? H 0.1862 0.7581 0.9655
H85? H 0.2512 0.2453 0.2236
H86? H 0.2784 0.7368 1.0000
H87? H 0.1347 0.1851 0.3182
H88? H 0.1501 0.2175 0.2400
H89? H 0.1271 0.2708 0.3019
H90? H 0.3960 0.7384 0.8877
H91? H 0.3758 0.6843 0.9506
H92? H 0.3753 0.7711 0.9635
H93? H 0.1930 0.2223 0.4269
H94? H 0.3226 0.7288 0.7860
H95? H 0.2790 0.2615 0.4740
H96? H 0.2295 0.7393 0.7538
loop_
_geom_bond_atom_site_label_1
_geom_bond_atom_site_label_2
_geom_bond_site_symmetry_1
_geom_bond_site_symmetry_2
Zn1 Cl1 1_555 1_555
Zn2 Cl3 1_555 1_555
Cl2 Zn1 1_555 1_555
Cl4 Zn2 1_555 1_555
N1 Zn1 1_555 1_555
C1 N1 1_555 1_555
H1 C1 1_555 1_555
C2 C1 1_555 1_555
H2 C2 1_555 1_555
C3 C2 1_555 1_555
H3 C3 1_555 1_555
C4 C3 1_555 1_555
C5 N1 1_555 1_555
H4 C5 1_555 1_555
C6 C4 1_555 1_555
H5 C6 1_555 1_555
H6 C6 1_555 1_555
N2 C6 1_555 1_555
H7 N2 1_555 1_555
C7 N2 1_555 1_555
O1 C7 1_555 1_555
N3 C7 1_555 1_555
H8 N3 1_555 1_555
C8 N3 1_555 1_555
H9 C8 1_555 1_555
H10 C8 1_555 1_555
C9 C8 1_555 1_555
C10 C9 1_555 1_555
H11 C10 1_555 1_555
C11 C10 1_555 1_555
H12 C11 1_555 1_555
C12 C11 1_555 1_555
H13 C12 1_555 1_555
N4 Zn2 1_555 1_555
C13 C9 1_555 1_555
H14 C13 1_555 1_555
N5 Zn2 1_555 1_555
C14 N5 1_555 1_555
H15 C14 1_555 1_555
C15 C14 1_555 1_555
H16 C15 1_555 1_555
C16 C15 1_555 1_555
H17 C16 1_555 1_555
C17 C16 1_555 1_555
C18 N5 1_555 1_555
H18 C18 1_555 1_555
C19 C17 1_555 1_555
H19 C19 1_555 1_555
H20 C19 1_555 1_555
N6 C19 1_555 1_555
H21 N6 1_555 1_555
C20 N6 1_555 1_555
O2 C20 1_555 1_555
N7 C20 1_555 1_555
H22 N7 1_555 1_555
C21 N7 1_555 1_555
H23 C21 1_555 1_555
H24 C21 1_555 1_555
C22 C21 1_555 1_555
C23 C22 1_555 1_555
H25 C23 1_555 1_555
N8 C23 1_555 1_555
C24 N8 1_555 1_555
H26 C24 1_555 1_555
C25 C24 1_555 1_555
H27 C25 1_555 1_555
C26 C22 1_555 1_555
H28 C26 1_555 1_555
C27 H29 1_555 1_555
H30 C27 1_555 1_555
H31 C27 1_555 1_555
C28 C27 1_555 1_555
C29 C28 1_555 1_555
H32 C29 1_555 1_555
C30 C29 1_555 1_555
H33 C30 1_555 1_555
C31 C30 1_555 1_555
C32 C31 1_555 1_555
H34 C32 1_555 1_555
H35 C32 1_555 1_555
H36 C32 1_555 1_555
C33 C31 1_555 1_555
H37 C33 1_555 1_555
C34 C28 1_555 1_555
H38 C34 1_555 1_555
Zn3 Cl5 1_555 1_555
Zn4 Cl7 1_555 1_555
Cl6 Zn3 1_555 1_555
Cl8 Zn4 1_555 1_555
N9 Zn3 1_555 1_555
C35 N9 1_555 1_555
H39 C35 1_555 1_555
C36 C35 1_555 1_555
H40 C36 1_555 1_555
C37 C36 1_555 1_555
H41 C37 1_555 1_555
C38 C37 1_555 1_555
C39 N9 1_555 1_555
H42 C39 1_555 1_555
C40 C38 1_555 1_555
H43 C40 1_555 1_555
H44 C40 1_555 1_555
N10 C40 1_555 1_555
H45 N10 1_555 1_555
C41 N10 1_555 1_555
O3 C41 1_555 1_555
N11 C41 1_555 1_555
H46 N11 1_555 1_555
C42 N11 1_555 1_555
H47 C42 1_555 1_555
H48 C42 1_555 1_555
C43 C42 1_555 1_555
C44 C43 1_555 1_555
H49 C44 1_555 1_555
C45 C44 1_555 1_555
H50 C45 1_555 1_555
C46 C45 1_555 1_555
H51 C46 1_555 1_555
N12 Zn4 1_555 1_555
C47 C43 1_555 1_555
H52 C47 1_555 1_555
N13 Zn4 1_555 1_555
C48 N13 1_555 1_555
H53 C48 1_555 1_555
C49 C48 1_555 1_555
H54 C49 1_555 1_555
C50 C49 1_555 1_555
H55 C50 1_555 1_555
C51 C50 1_555 1_555
C52 N13 1_555 1_555
H56 C52 1_555 1_555
C53 C51 1_555 1_555
H57 C53 1_555 1_555
H58 C53 1_555 1_555
N14 C53 1_555 1_555
H59 N14 1_555 1_555
C54 N14 1_555 1_555
O4 C54 1_555 1_555
N15 C54 1_555 1_555
H60 N15 1_555 1_555
C55 N15 1_555 1_555
H61 C55 1_555 1_555
H62 C55 1_555 1_555
C56 C55 1_555 1_555
C57 C56 1_555 1_555
H63 C57 1_555 1_555
N16 C57 1_555 1_555
C58 N16 1_555 1_555
H64 C58 1_555 1_555
C59 C58 1_555 1_555
H65 C59 1_555 1_555
C60 C56 1_555 1_555
H66 C60 1_555 1_555
C61 H67 1_555 1_555
H68 C61 1_555 1_555
H69 C61 1_555 1_555
C62 C61 1_555 1_555
C63 C62 1_555 1_555
H70 C63 1_555 1_555
C64 C63 1_555 1_555
H71 C64 1_555 1_555
C65 C64 1_555 1_555
C66 C65 1_555 1_555
H72 C66 1_555 1_555
H73 C66 1_555 1_555
H74 C66 1_555 1_555
C67 C65 1_555 1_555
H75 C67 1_555 1_555
C68 C62 1_555 1_555
H76 C68 1_555 1_555
Zn1_2 N8 1_555 1_555
N8_2 Zn1 1_555 1_555
Zn3_2 N16 1_555 1_555
N16_2 Zn3 1_555 1_555
C4 C5 1_555 1_555
C12 N4 1_555 1_555
N4 C13 1_555 1_555
C17 C18 1_555 1_555
C25 C26 1_555 1_555
C33 C34 1_555 1_555
C38 C39 1_555 1_555
C46 N12 1_555 1_555
N12 C47 1_555 1_555
C51 C52 1_555 1_555
C59 C60 1_555 1_555
C67 C68 1_555 1_555

#END
