
#######################################################################
#
#                 Cambridge Crystallographic Data Centre
#                                CCDC 
#
#######################################################################
#
# If this CIF has been generated from an entry in the Cambridge 
# Structural Database, then it will include bibliographic, chemical, 
# crystal, experimental, refinement or atomic coordinate data resulting 
# from the CCDC's data processing and validation procedures.
#
#######################################################################

data_GEQTIH
_symmetry_cell_setting           monoclinic
_symmetry_space_group_name_H-M   'P 2/c'
_symmetry_Int_Tables_number      13
_space_group_name_Hall           '-P 2yc'
loop_
_symmetry_equiv_pos_site_id
_symmetry_equiv_pos_as_xyz
1 x,y,z
2 -x,y,1/2-z
3 -x,-y,-z
4 x,-y,1/2+z
_cell_length_a                   12.1981(13)
_cell_length_b                   4.6782(5)
_cell_length_c                   15.3941(13)
_cell_angle_alpha                90
_cell_angle_beta                 122.302(6)
_cell_angle_gamma                90
_cell_volume                     742.518
loop_
_atom_site_label
_atom_site_type_symbol
_atom_site_fract_x
_atom_site_fract_y
_atom_site_fract_z
Zn1 Zn 0.0000 0.44253(6) 0.2500
Cl1 Cl 0.06172(5) 0.64351(11) 0.15084(4)
N1 N 0.15744(15) 0.2022(3) 0.35498(10)
C1 C 0.2413(2) 0.1058(5) 0.33084(14)
H1 H 0.2331 0.1692 0.2704
C2 C 0.3386(2) -0.0822(5) 0.39175(16)
H2 H 0.3944 -0.1479 0.3723
C3 C 0.3528(2) -0.1736(5) 0.48350(14)
H3 H 0.4178 -0.3027 0.5257
C4 C 0.26956(19) -0.0709(4) 0.51093(14)
C5 C 0.17301(18) 0.1157(4) 0.44415(13)
H4 H 0.1160 0.1848 0.4618
C6 C 0.27412(18) -0.1643(4) 0.60691(13)
H5 H 0.2600 0.0018 0.6375
H6 H 0.2033 -0.2963 0.5873
N2 N 0.39353(15) -0.2993(3) 0.68348(11)
H7 H 0.3972 -0.4829 0.6870
C7 C 0.5000 -0.1457(5) 0.7500
O1 O 0.5000 0.1190(4) 0.7500
Zn1_2 Zn 1.0000 0.44253(6) 1.2500
Cl1A Cl -0.06172(5) 0.64351(11) 0.34916(4)
N1A N 0.84256(15) 0.2022(3) 1.14502(10)
N1A_2 N -0.15744(15) 0.2022(3) 0.14502(10)
C1A C 0.7587(2) 0.1058(5) 1.16916(14)
H1A H 0.7669 0.1692 1.2296
C2A C 0.6614(2) -0.0822(5) 1.10825(16)
H2A H 0.6056 -0.1479 1.1277
C3A C 0.6472(2) -0.1736(5) 1.01650(14)
H3A H 0.5822 -0.3027 0.9743
C4A C 0.73044(19) -0.0709(4) 0.98907(14)
C5A C 0.82699(18) 0.1157(4) 1.05585(13)
H4A H 0.8840 0.1848 1.0382
C6A C 0.72588(18) -0.1643(4) 0.89309(13)
H5A H 0.7400 0.0018 0.8625
H6A H 0.7967 -0.2963 0.9127
N2A N 0.60647(15) -0.2993(3) 0.81652(11)
H7A H 0.6028 -0.4829 0.8130
loop_
_geom_bond_atom_site_label_1
_geom_bond_atom_site_label_2
_geom_bond_site_symmetry_1
_geom_bond_site_symmetry_2
Zn1 Cl1 1_555 1_555
N1 Zn1 1_555 1_555
C1 N1 1_555 1_555
H1 C1 1_555 1_555
C2 C1 1_555 1_555
H2 C2 1_555 1_555
C3 C2 1_555 1_555
H3 C3 1_555 1_555
C4 C3 1_555 1_555
C5 N1 1_555 1_555
H4 C5 1_555 1_555
C6 C4 1_555 1_555
H5 C6 1_555 1_555
H6 C6 1_555 1_555
N2 C6 1_555 1_555
H7 N2 1_555 1_555
C7 N2 1_555 1_555
O1 C7 1_555 1_555
Zn1_2 N1A 1_555 1_555
Cl1A Zn1 1_555 1_555
N1A C1A 1_555 1_555
N1A_2 Zn1 1_555 1_555
C1A H1A 1_555 1_555
C2A C1A 1_555 1_555
H2A C2A 1_555 1_555
C3A C2A 1_555 1_555
H3A C3A 1_555 1_555
C4A C3A 1_555 1_555
C5A N1A 1_555 1_555
H4A C5A 1_555 1_555
C6A C4A 1_555 1_555
H5A C6A 1_555 1_555
H6A C6A 1_555 1_555
N2A C7 1_555 1_555
H7A N2A 1_555 1_555
C4 C5 1_555 1_555
C4A C5A 1_555 1_555
C6A N2A 1_555 1_555

#END
