
#######################################################################
#
#                 Cambridge Crystallographic Data Centre
#                                CCDC 
#
#######################################################################
#
# If this CIF has been generated from an entry in the Cambridge 
# Structural Database, then it will include bibliographic, chemical, 
# crystal, experimental, refinement or atomic coordinate data resulting 
# from the CCDC's data processing and validation procedures.
#
#######################################################################

data_GEQTON
_symmetry_cell_setting           monoclinic
_symmetry_space_group_name_H-M   'C 2/c'
_symmetry_Int_Tables_number      15
_space_group_name_Hall           '-C 2yn'
loop_
_symmetry_equiv_pos_site_id
_symmetry_equiv_pos_as_xyz
1 x,y,z
2 -x,y,1/2-z
3 1/2+x,1/2+y,z
4 1/2-x,1/2+y,1/2-z
5 -x,-y,-z
6 x,-y,1/2+z
7 1/2-x,1/2-y,-z
8 1/2+x,1/2-y,1/2+z
_cell_length_a                   25.141(6)
_cell_length_b                   9.081(2)
_cell_length_c                   18.154(4)
_cell_angle_alpha                90
_cell_angle_beta                 103.459(3)
_cell_angle_gamma                90
_cell_volume                     4030.83
loop_
_atom_site_label
_atom_site_type_symbol
_atom_site_fract_x
_atom_site_fract_y
_atom_site_fract_z
Zn1 Zn 0.12064(3) 0.37870(9) 0.09254(4)
Cl1 Cl 0.03564(7) 0.2969(2) 0.06108(9)
Cl2 Cl 0.18802(7) 0.2610(2) 0.17318(9)
N1 N 0.1487(2) 0.4185(7) -0.0034(3)
C1 C 0.2016(3) 0.3956(9) -0.0038(4)
H1 H 0.2248 0.3584 0.0398
C2 C 0.2224(3) 0.4244(9) -0.0649(5)
H2 H 0.2589 0.4043 -0.0639
C3 C 0.1884(3) 0.4841(9) -0.1286(4)
H3 H 0.2022 0.5046 -0.1708
C4 C 0.1342(3) 0.5139(9) -0.1309(4)
C5 C 0.1157(3) 0.4786(9) -0.0661(3)
H4 H 0.0794 0.4970 -0.0660
C6 C 0.0982(4) 0.5903(10) -0.1967(4)
H5 H 0.0928 0.6915 -0.1829
H6 H 0.1161 0.5918 -0.2387
N2 N 0.0457(2) 0.5187(6) -0.2205(3)
H7 H 0.0432 0.4248 -0.2159
C7 C 0.0000 0.5991(10) -0.2500
O1 O 0.0000 0.7356(8) -0.2500
N3 N 0.1208(2) 0.5903(7) 0.1329(3)
C8 C 0.0755(3) 0.6719(8) 0.1213(3)
H8 H 0.0427 0.6283 0.0969
C9 C 0.0744(3) 0.8188(9) 0.1435(3)
C10 C 0.1238(3) 0.8821(8) 0.1798(4)
H9 H 0.1251 0.9793 0.1963
C11 C 0.1713(3) 0.7983(9) 0.1914(4)
H10 H 0.2047 0.8397 0.2149
C12 C 0.1687(3) 0.6574(10) 0.1685(4)
H11 H 0.2009 0.6029 0.1771
C13 C 0.0215(3) 0.9052(8) 0.1274(4)
H12 H 0.0220 0.9760 0.0876
H13 H -0.0087 0.8382 0.1091
N4 N 0.0124(2) 0.9820(6) 0.1926(3)
H14 H 0.0149 1.0764 0.1952
C14 C 0.0000 0.9040(12) 0.2500
O2 O 0.0000 0.7690(8) 0.2500
Zn1A Zn -0.12064(3) 0.37870(9) -0.59254(4)
Zn1A_2 Zn -0.12064(3) 0.37870(9) 0.40746(4)
Cl1A Cl -0.03564(7) 0.2969(2) -0.56108(9)
Cl2A Cl -0.18802(7) 0.2610(2) -0.67318(9)
N1A N -0.1487(2) 0.4185(7) -0.4966(3)
C1A C -0.2016(3) 0.3956(9) -0.4962(4)
H1A H -0.2248 0.3584 -0.5398
C2A C -0.2224(3) 0.4244(9) -0.4351(5)
H2A H -0.2589 0.4043 -0.4361
C3A C -0.1884(3) 0.4841(9) -0.3714(4)
H3A H -0.2022 0.5046 -0.3292
C4A C -0.1342(3) 0.5139(9) -0.3691(4)
C5A C -0.1157(3) 0.4786(9) -0.4339(3)
H4A H -0.0794 0.4970 -0.4340
C6A C -0.0982(4) 0.5903(10) -0.3033(4)
H5A H -0.0928 0.6915 -0.3171
H6A H -0.1161 0.5918 -0.2613
N2A N -0.0457(2) 0.5187(6) -0.2795(3)
H7A H -0.0432 0.4248 -0.2841
N3A N -0.1208(2) 0.5903(7) 0.3671(3)
N3A_2 N -0.1208(2) 0.5903(7) -0.6329(3)
C8A C -0.0755(3) 0.6719(8) 0.3787(3)
H8A H -0.0427 0.6283 0.4031
C9A C -0.0744(3) 0.8188(9) 0.3565(3)
C10A C -0.1238(3) 0.8821(8) 0.3202(4)
H9A H -0.1251 0.9793 0.3037
C11A C -0.1713(3) 0.7983(9) 0.3086(4)
H10A H -0.2047 0.8397 0.2851
C12A C -0.1687(3) 0.6574(10) 0.3315(4)
H11A H -0.2009 0.6029 0.3229
C13A C -0.0215(3) 0.9052(8) 0.3726(4)
H12A H -0.0220 0.9760 0.4124
H13A H 0.0087 0.8382 0.3909
N4A N -0.0124(2) 0.9820(6) 0.3074(3)
H14A H -0.0149 1.0764 0.3048
C15 C 0.3184(4) 0.5235(11) 0.1359(4)
H15 H 0.3037 0.5064 0.1777
C16 C 0.3027(4) 0.6473(10) 0.0941(5)
H16 H 0.2781 0.7118 0.1081
C17 C 0.3219(4) 0.6766(12) 0.0348(5)
H17 H 0.3097 0.7594 0.0055
C18 C 0.3606(4) 0.5835(14) 0.0153(5)
H18 H 0.3754 0.6063 -0.0258
C19 C 0.3773(4) 0.4555(15) 0.0577(6)
H19 H 0.4030 0.3923 0.0453
C20 C 0.3539(4) 0.4248(11) 0.1200(5)
H20 H 0.3628 0.3397 0.1487
loop_
_geom_bond_atom_site_label_1
_geom_bond_atom_site_label_2
_geom_bond_site_symmetry_1
_geom_bond_site_symmetry_2
Zn1 Cl1 1_555 1_555
Cl2 Zn1 1_555 1_555
N1 Zn1 1_555 1_555
C1 N1 1_555 1_555
H1 C1 1_555 1_555
C2 C1 1_555 1_555
H2 C2 1_555 1_555
C3 C2 1_555 1_555
H3 C3 1_555 1_555
C4 C3 1_555 1_555
C5 N1 1_555 1_555
H4 C5 1_555 1_555
C6 C4 1_555 1_555
H5 C6 1_555 1_555
H6 C6 1_555 1_555
N2 C6 1_555 1_555
H7 N2 1_555 1_555
C7 N2 1_555 1_555
O1 C7 1_555 1_555
N3 Zn1 1_555 1_555
C8 N3 1_555 1_555
H8 C8 1_555 1_555
C9 C8 1_555 1_555
C10 C9 1_555 1_555
H9 C10 1_555 1_555
C11 C10 1_555 1_555
H10 C11 1_555 1_555
C12 N3 1_555 1_555
H11 C12 1_555 1_555
C13 C9 1_555 1_555
H12 C13 1_555 1_555
H13 C13 1_555 1_555
N4 C13 1_555 1_555
H14 N4 1_555 1_555
C14 N4 1_555 1_555
O2 C14 1_555 1_555
C15 H15 1_555 1_555
C16 C15 1_555 1_555
H16 C16 1_555 1_555
C17 C16 1_555 1_555
H17 C17 1_555 1_555
C18 C17 1_555 1_555
H18 C18 1_555 1_555
C19 C18 1_555 1_555
H19 C19 1_555 1_555
C20 C15 1_555 1_555
H20 C20 1_555 1_555
Zn1A Cl1A 1_555 1_555
Zn1A_2 N3A 1_555 1_555
Cl2A Zn1A 1_555 1_555
N1A Zn1A 1_555 1_555
C1A N1A 1_555 1_555
H1A C1A 1_555 1_555
C2A C1A 1_555 1_555
H2A C2A 1_555 1_555
C3A C2A 1_555 1_555
H3A C3A 1_555 1_555
C4A C3A 1_555 1_555
C5A N1A 1_555 1_555
H4A C5A 1_555 1_555
C6A C4A 1_555 1_555
H5A C6A 1_555 1_555
H6A C6A 1_555 1_555
N2A C7 1_555 1_555
H7A N2A 1_555 1_555
N3A C8A 1_555 1_555
N3A_2 Zn1A 1_555 1_555
C8A H8A 1_555 1_555
C9A C8A 1_555 1_555
C10A C9A 1_555 1_555
H9A C10A 1_555 1_555
C11A C10A 1_555 1_555
H10A C11A 1_555 1_555
C12A N3A 1_555 1_555
H11A C12A 1_555 1_555
C13A C9A 1_555 1_555
H12A C13A 1_555 1_555
H13A C13A 1_555 1_555
N4A C14 1_555 1_555
H14A N4A 1_555 1_555
C4 C5 1_555 1_555
C11 C12 1_555 1_555
C19 C20 1_555 1_555
C4A C5A 1_555 1_555
C6A N2A 1_555 1_555
C11A C12A 1_555 1_555
C13A N4A 1_555 1_555

#END
