
#######################################################################
#
#                 Cambridge Crystallographic Data Centre
#                                CCDC 
#
#######################################################################
#
# If this CIF has been generated from an entry in the Cambridge 
# Structural Database, then it will include bibliographic, chemical, 
# crystal, experimental, refinement or atomic coordinate data resulting 
# from the CCDC's data processing and validation procedures.
#
#######################################################################

data_GEQVAB
_symmetry_cell_setting           monoclinic
_symmetry_space_group_name_H-M   'P 2'
_symmetry_Int_Tables_number      3
_space_group_name_Hall           'P 2y'
loop_
_symmetry_equiv_pos_site_id
_symmetry_equiv_pos_as_xyz
1 x,y,z
2 -x,y,-z
_cell_length_a                   13.0778(10)
_cell_length_b                   9.3016(7)
_cell_length_c                   16.7013(12)
_cell_angle_alpha                90
_cell_angle_beta                 107.963(2)
_cell_angle_gamma                90
_cell_volume                     1932.59
loop_
_atom_site_label
_atom_site_type_symbol
_atom_site_fract_x
_atom_site_fract_y
_atom_site_fract_z
Zn3 Zn -0.026522(19) 0.50560(3) 0.742327(16)
Cl3 Cl -0.12791(5) 0.61319(8) 0.62486(4)
Cl4 Cl 0.07189(5) 0.60729(8) 0.86232(4)
N5 N -0.12651(15) 0.3718(2) 0.77984(13)
C14 C -0.12884(19) 0.3748(3) 0.85942(15)
H15 H -0.0787 0.4311 0.8985
C15 C -0.2030(2) 0.2974(3) 0.88571(16)
H16 H -0.2036 0.3038 0.9411
C16 C -0.27659(19) 0.2100(3) 0.82835(15)
C17 C -0.2724(2) 0.2053(3) 0.74681(16)
H17 H -0.3199 0.1471 0.7071
C18 C -0.19740(19) 0.2873(3) 0.72447(16)
H18 H -0.1960 0.2839 0.6692
C19 C -0.35573(19) 0.1247(3) 0.85848(16)
H19 H -0.3167 0.0511 0.8970
H20 H -0.3882 0.1884 0.8898
N6 N -0.44095(14) 0.0560(2) 0.79219(13)
H21 H -0.4403 -0.0351 0.7835
C20 C -0.52155(19) 0.1403(3) 0.74439(15)
O2 O -0.51829(13) 0.2723(2) 0.74557(10)
N7 N -0.60680(15) 0.0677(2) 0.69216(13)
H22 H -0.6129 -0.0234 0.6979
C21 C -0.68674(19) 0.1447(3) 0.62709(16)
H23 H -0.7260 0.0761 0.5851
H24 H -0.6501 0.2100 0.5998
C22 C -0.76630(19) 0.2298(3) 0.65655(16)
C23 C -0.7827(2) 0.2078(3) 0.73328(16)
H25 H -0.7417 0.1402 0.7706
C24 C -0.8601(2) 0.2864(3) 0.75486(16)
H26 H -0.8699 0.2704 0.8070
N8 N -0.92162(15) 0.3853(2) 0.70312(12)
C25 C -0.90624(19) 0.4059(3) 0.62773(15)
H27 H -0.9494 0.4723 0.5908
C26 C -0.82966(19) 0.3332(3) 0.60320(16)
H28 H -0.8200 0.3526 0.5514
Zn3_2 Zn 0.973478(19) 0.50560(3) 0.742327(16)
Zn3_3 Zn -1.026522(19) 0.50560(3) 0.742327(16)
Cl3_2 Cl 0.87209(5) 0.61319(8) 0.62486(4)
Cl4_2 Cl 1.07189(5) 0.60729(8) 0.86232(4)
N5_2 N 0.87349(15) 0.3718(2) 0.77984(13)
C14_2 C 0.87116(19) 0.3748(3) 0.85942(15)
H15_2 H 0.9213 0.4311 0.8985
C15_2 C 0.7970(2) 0.2974(3) 0.88571(16)
H16_2 H 0.7964 0.3038 0.9411
C16_2 C 0.72341(19) 0.2100(3) 0.82835(15)
C17_2 C 0.7276(2) 0.2053(3) 0.74681(16)
H17_2 H 0.6801 0.1471 0.7071
C18_2 C 0.80260(19) 0.2873(3) 0.72447(16)
H18_2 H 0.8040 0.2839 0.6692
C19_2 C 0.64427(19) 0.1247(3) 0.85848(16)
H19_2 H 0.6833 0.0511 0.8970
H20_2 H 0.6118 0.1884 0.8898
N6_2 N 0.55905(14) 0.0560(2) 0.79219(13)
H21_2 H 0.5597 -0.0351 0.7835
C20_2 C 0.47845(19) 0.1403(3) 0.74439(15)
O2_2 O 0.48171(13) 0.2723(2) 0.74557(10)
N7_2 N 0.39320(15) 0.0677(2) 0.69216(13)
H22_2 H 0.3871 -0.0234 0.6979
C21_2 C 0.31326(19) 0.1447(3) 0.62709(16)
H23_2 H 0.2740 0.0761 0.5851
H24_2 H 0.3499 0.2100 0.5998
C22_2 C 0.23370(19) 0.2298(3) 0.65655(16)
C23_2 C 0.2173(2) 0.2078(3) 0.73328(16)
H25_2 H 0.2583 0.1402 0.7706
C24_2 C 0.1399(2) 0.2864(3) 0.75486(16)
H26_2 H 0.1301 0.2704 0.8070
N8_2 N 0.07838(15) 0.3853(2) 0.70312(12)
N8_3 N 1.07838(15) 0.3853(2) 0.70312(12)
C25_2 C 0.09376(19) 0.4059(3) 0.62773(15)
H27_2 H 0.0506 0.4723 0.5908
C26_2 C 0.17034(19) 0.3332(3) 0.60320(16)
H28_2 H 0.1800 0.3526 0.5514
C27 C 0.5000 0.4969(6) 1.0000
H29 H 0.4277 0.5313 0.9766
C28 C 0.5000 0.3352(5) 1.0000
C29 C 0.5860(3) 0.2571(4) 1.05030(18)
H32 H 0.6450 0.3058 1.0853
C30 C 0.5864(2) 0.1088(4) 1.04990(17)
H33 H 0.6459 0.0594 1.0838
C31 C 0.5000 0.0333(4) 1.0000
C32 C 0.5000 -0.1281(6) 1.0000
H36 H 0.5593 -0.1625 1.0457
H29A H 0.5723 0.5313 1.0234
C29A C 0.4140(3) 0.2571(4) 0.94970(18)
H32A H 0.3550 0.3058 0.9147
C30A C 0.4136(2) 0.1088(4) 0.95010(17)
H33A H 0.3541 0.0594 0.9162
H36A H 0.4407 -0.1625 0.9543
C33 C 0.5000 1.2234(6) 0.5000
H39 H 0.5450 1.2578 0.5534
C34 C 0.5000 1.0593(5) 0.5000
C35 C 0.4060(2) 0.9829(4) 0.47439(16)
H40 H 0.3411 1.0322 0.4562
C36 C 0.4053(2) 0.8349(4) 0.47492(17)
H41 H 0.3401 0.7861 0.4581
C37 C 0.5000 0.7581(5) 0.5000
C38 C 0.5000 0.5975(6) 0.5000
H44 H 0.4273 0.5631 0.4816
H39A H 0.4550 1.2578 0.4466
C35A C 0.5940(2) 0.9829(4) 0.52561(16)
H40A H 0.6589 1.0322 0.5438
C36A C 0.5947(2) 0.8349(4) 0.52508(17)
H41A H 0.6599 0.7861 0.5419
H44A H 0.5727 0.5631 0.5184
Zn1 Zn -1.0000 0.99580(5) 0.0000
Zn2 Zn 0.0000 1.00760(5) 0.5000
Cl1 Cl -1.09546(6) 1.10330(9) 0.07300(4)
Cl2 Cl 0.10198(5) 1.11400(8) 0.43162(4)
N1 N -0.89035(15) 0.8742(2) 0.08671(12)
C1 C -0.8260(2) 0.7793(3) 0.06431(16)
H1 H -0.8355 0.7655 0.0073
C2 C -0.7470(2) 0.7020(3) 0.12170(16)
H2 H -0.7045 0.6372 0.1038
C3 C -0.73201(19) 0.7223(3) 0.20700(16)
C4 C -0.79665(19) 0.8214(3) 0.23055(16)
H3 H -0.7873 0.8394 0.2872
C5 C -0.87500(19) 0.8930(3) 0.16896(15)
H4 H -0.9192 0.9574 0.1854
C6 C -0.64997(19) 0.6396(3) 0.27569(15)
H5 H -0.6138 0.7064 0.3199
H6 H -0.6879 0.5707 0.2997
N2 N -0.56938(15) 0.5633(2) 0.24937(13)
H7 H -0.5751 0.4724 0.2398
C7 C -0.48432(19) 0.6384(3) 0.24007(15)
O1 O -0.48155(14) 0.7700(2) 0.23939(11)
N3 N -0.40163(15) 0.5565(2) 0.23234(13)
H8 H -0.4020 0.4647 0.2387
C8 C -0.31310(19) 0.6264(3) 0.21319(15)
H9 H -0.3420 0.6869 0.1641
H10 H -0.2691 0.5532 0.1985
C9 C -0.24221(19) 0.7169(3) 0.28309(16)
C10 C -0.16929(19) 0.8112(3) 0.26502(16)
H11 H -0.1682 0.8220 0.2099
C11 C -0.09879(18) 0.8884(3) 0.32922(15)
H12 H -0.0491 0.9483 0.3163
N4 N -0.09893(15) 0.8807(2) 0.40948(12)
C12 C -0.17081(19) 0.7914(3) 0.42684(16)
H13 H -0.1729 0.7859 0.4819
C13 C -0.2413(2) 0.7078(3) 0.36607(16)
H14 H -0.2882 0.6455 0.3808
Zn2_2 Zn -2.0000 1.00760(5) -0.5000
Cl1A Cl -0.90454(6) 1.10330(9) -0.07300(4)
Cl2A Cl -0.10198(5) 1.11400(8) 0.56838(4)
N1A N -1.10965(15) 0.8742(2) -0.08671(12)
C1A C -1.1740(2) 0.7793(3) -0.06431(16)
H1A H -1.1645 0.7655 -0.0073
C2A C -1.2530(2) 0.7020(3) -0.12170(16)
H2A H -1.2955 0.6372 -0.1038
C3A C -1.26799(19) 0.7223(3) -0.20700(16)
C4A C -1.20335(19) 0.8214(3) -0.23055(16)
H3A H -1.2127 0.8394 -0.2872
C5A C -1.12500(19) 0.8930(3) -0.16896(15)
H4A H -1.0808 0.9574 -0.1854
C6A C -1.35003(19) 0.6396(3) -0.27569(15)
H5A H -1.3862 0.7064 -0.3199
H6A H -1.3121 0.5707 -0.2997
N2A N -1.43062(15) 0.5633(2) -0.24937(13)
H7A H -1.4249 0.4724 -0.2398
C7A C -1.51568(19) 0.6384(3) -0.24007(15)
O1A O -1.51845(14) 0.7700(2) -0.23939(11)
N3A N -1.59837(15) 0.5565(2) -0.23234(13)
H8A H -1.5980 0.4647 -0.2387
C8A C -1.68690(19) 0.6264(3) -0.21319(15)
H9A H -1.6580 0.6869 -0.1641
H10A H -1.7309 0.5532 -0.1985
C9A C -1.75779(19) 0.7169(3) -0.28309(16)
C10A C -1.83071(19) 0.8112(3) -0.26502(16)
H11A H -1.8318 0.8220 -0.2099
C11A C -1.90121(18) 0.8884(3) -0.32922(15)
H12A H -1.9509 0.9483 -0.3163
N4A N -1.90107(15) 0.8807(2) -0.40948(12)
N4A_2 N 0.09893(15) 0.8807(2) 0.59052(12)
C12A C -1.82919(19) 0.7914(3) -0.42684(16)
H13A H -1.8271 0.7859 -0.4819
C13A C -1.7587(2) 0.7078(3) -0.36607(16)
H14A H -1.7118 0.6455 -0.3808
H30? H 0.5430 0.5313 0.9667
H31? H 0.5293 0.5313 1.0567
H34? H 0.5068 -0.1625 0.9477
H35? H 0.4339 -0.1625 1.0066
H37? H 0.4280 1.2578 0.4904
H38? H 0.5270 1.2578 0.4562
H42? H 0.5354 0.5631 0.5559
H43? H 0.5374 0.5631 0.4625
loop_
_geom_bond_atom_site_label_1
_geom_bond_atom_site_label_2
_geom_bond_site_symmetry_1
_geom_bond_site_symmetry_2
Zn1 Cl1 1_555 1_555
Zn2 Cl2 1_555 1_555
Zn3 Cl3 1_555 1_555
Cl4 Zn3 1_555 1_555
N1 Zn1 1_555 1_555
C1 N1 1_555 1_555
H1 C1 1_555 1_555
C2 C1 1_555 1_555
H2 C2 1_555 1_555
C3 C2 1_555 1_555
C4 C3 1_555 1_555
H3 C4 1_555 1_555
C5 N1 1_555 1_555
H4 C5 1_555 1_555
C6 C3 1_555 1_555
H5 C6 1_555 1_555
H6 C6 1_555 1_555
N2 C6 1_555 1_555
H7 N2 1_555 1_555
C7 N2 1_555 1_555
O1 C7 1_555 1_555
N3 C7 1_555 1_555
H8 N3 1_555 1_555
C8 N3 1_555 1_555
H9 C8 1_555 1_555
H10 C8 1_555 1_555
C9 C8 1_555 1_555
C10 C9 1_555 1_555
H11 C10 1_555 1_555
C11 C10 1_555 1_555
H12 C11 1_555 1_555
N4 Zn2 1_555 1_555
C12 N4 1_555 1_555
H13 C12 1_555 1_555
C13 C9 1_555 1_555
H14 C13 1_555 1_555
N5 Zn3 1_555 1_555
C14 N5 1_555 1_555
H15 C14 1_555 1_555
C15 C14 1_555 1_555
H16 C15 1_555 1_555
C16 C15 1_555 1_555
C17 C16 1_555 1_555
H17 C17 1_555 1_555
C18 N5 1_555 1_555
H18 C18 1_555 1_555
C19 C16 1_555 1_555
H19 C19 1_555 1_555
H20 C19 1_555 1_555
N6 C19 1_555 1_555
H21 N6 1_555 1_555
C20 N6 1_555 1_555
O2 C20 1_555 1_555
N7 C20 1_555 1_555
H22 N7 1_555 1_555
C21 N7 1_555 1_555
H23 C21 1_555 1_555
H24 C21 1_555 1_555
C22 C21 1_555 1_555
C23 C22 1_555 1_555
H25 C23 1_555 1_555
C24 C23 1_555 1_555
H26 C24 1_555 1_555
N8 C24 1_555 1_555
C25 N8 1_555 1_555
H27 C25 1_555 1_555
C26 C22 1_555 1_555
H28 C26 1_555 1_555
C27 H29 1_555 1_555
C28 C27 1_555 1_555
C29 C28 1_555 1_555
H32 C29 1_555 1_555
C30 C29 1_555 1_555
H33 C30 1_555 1_555
C31 C30 1_555 1_555
C32 C31 1_555 1_555
H36 C32 1_555 1_555
C33 H39 1_555 1_555
C34 C33 1_555 1_555
C35 C34 1_555 1_555
H40 C35 1_555 1_555
C36 C35 1_555 1_555
H41 C36 1_555 1_555
C37 C36 1_555 1_555
C38 C37 1_555 1_555
H44 C38 1_555 1_555
Zn2_2 N4A 1_555 1_555
Zn3_2 Cl3_2 1_555 1_555
Zn3_3 N8 1_555 1_555
Cl1A Zn1 1_555 1_555
Cl2A Zn2 1_555 1_555
Cl4_2 Zn3_2 1_555 1_555
N1A Zn1 1_555 1_555
C1A N1A 1_555 1_555
H1A C1A 1_555 1_555
C2A C1A 1_555 1_555
H2A C2A 1_555 1_555
C3A C2A 1_555 1_555
C4A C3A 1_555 1_555
H3A C4A 1_555 1_555
C5A N1A 1_555 1_555
H4A C5A 1_555 1_555
C6A C3A 1_555 1_555
H5A C6A 1_555 1_555
H6A C6A 1_555 1_555
N2A C6A 1_555 1_555
H7A N2A 1_555 1_555
C7A N2A 1_555 1_555
O1A C7A 1_555 1_555
N3A C7A 1_555 1_555
H8A N3A 1_555 1_555
C8A N3A 1_555 1_555
H9A C8A 1_555 1_555
H10A C8A 1_555 1_555
C9A C8A 1_555 1_555
C10A C9A 1_555 1_555
H11A C10A 1_555 1_555
C11A C10A 1_555 1_555
H12A C11A 1_555 1_555
N4A C11A 1_555 1_555
N4A_2 Zn2 1_555 1_555
C12A N4A 1_555 1_555
H13A C12A 1_555 1_555
C13A C9A 1_555 1_555
H14A C13A 1_555 1_555
N5_2 Zn3_2 1_555 1_555
C14_2 N5_2 1_555 1_555
H15_2 C14_2 1_555 1_555
C15_2 C14_2 1_555 1_555
H16_2 C15_2 1_555 1_555
C16_2 C15_2 1_555 1_555
C17_2 C16_2 1_555 1_555
H17_2 C17_2 1_555 1_555
C18_2 N5_2 1_555 1_555
H18_2 C18_2 1_555 1_555
C19_2 C16_2 1_555 1_555
H19_2 C19_2 1_555 1_555
H20_2 C19_2 1_555 1_555
N6_2 C19_2 1_555 1_555
H21_2 N6_2 1_555 1_555
C20_2 N6_2 1_555 1_555
O2_2 C20_2 1_555 1_555
N7_2 C20_2 1_555 1_555
H22_2 N7_2 1_555 1_555
C21_2 N7_2 1_555 1_555
H23_2 C21_2 1_555 1_555
H24_2 C21_2 1_555 1_555
C22_2 C21_2 1_555 1_555
C23_2 C22_2 1_555 1_555
H25_2 C23_2 1_555 1_555
C24_2 C23_2 1_555 1_555
H26_2 C24_2 1_555 1_555
N8_2 Zn3 1_555 1_555
N8_3 Zn3_2 1_555 1_555
C25_2 N8_2 1_555 1_555
H27_2 C25_2 1_555 1_555
C26_2 C22_2 1_555 1_555
H28_2 C26_2 1_555 1_555
H29A C27 1_555 1_555
C29A C28 1_555 1_555
H32A C29A 1_555 1_555
C30A C31 1_555 1_555
H33A C30A 1_555 1_555
H36A C32 1_555 1_555
H39A C33 1_555 1_555
C35A C34 1_555 1_555
H40A C35A 1_555 1_555
C36A C37 1_555 1_555
H41A C36A 1_555 1_555
H44A C38 1_555 1_555
C4 C5 1_555 1_555
C11 N4 1_555 1_555
C12 C13 1_555 1_555
C17 C18 1_555 1_555
C25 C26 1_555 1_555
C4A C5A 1_555 1_555
C12A C13A 1_555 1_555
C17_2 C18_2 1_555 1_555
C24_2 N8_2 1_555 1_555
C25_2 C26_2 1_555 1_555
C29A C30A 1_555 1_555
C35A C36A 1_555 1_555

#END
