
#######################################################################
#
#                 Cambridge Crystallographic Data Centre
#                                CCDC 
#
#######################################################################
#
# If this CIF has been generated from an entry in the Cambridge 
# Structural Database, then it will include bibliographic, chemical, 
# crystal, experimental, refinement or atomic coordinate data resulting 
# from the CCDC's data processing and validation procedures.
#
#######################################################################

data_GEQVOP
_symmetry_cell_setting           orthorhombic
_symmetry_space_group_name_H-M   'P c c n'
_symmetry_Int_Tables_number      56
_space_group_name_Hall           '-P 2ab 2ac'
loop_
_symmetry_equiv_pos_site_id
_symmetry_equiv_pos_as_xyz
1 x,y,z
2 1/2-x,1/2-y,z
3 1/2+x,-y,1/2-z
4 -x,1/2+y,1/2-z
5 -x,-y,-z
6 1/2+x,1/2+y,-z
7 1/2-x,y,1/2+z
8 x,1/2-y,1/2+z
_cell_length_a                   19.4437(14)
_cell_length_b                   22.1871(9)
_cell_length_c                   14.9011(8)
_cell_angle_alpha                90
_cell_angle_beta                 90
_cell_angle_gamma                90
_cell_volume                     6428.32
loop_
_atom_site_label
_atom_site_type_symbol
_atom_site_fract_x
_atom_site_fract_y
_atom_site_fract_z
C1 C 0.9750(7) 0.0750(4) 0.1687(6)
H1 H 0.9935 0.0792 0.2260
C2 C 0.9092(7) 0.0578(4) 0.1614(8)
H2 H 0.8824 0.0520 0.2123
C3 C 0.8817(6) 0.0487(4) 0.0766(9)
H3 H 0.8366 0.0356 0.0693
C4 C 0.9231(5) 0.0597(4) 0.0037(7)
H4 H 0.9062 0.0536 -0.0540
C5 C 0.9892(5) 0.0796(3) 0.0156(6)
C6 C 1.0377(4) 0.0916(3) -0.0601(5)
C7 C 1.0214(4) 0.0835(3) -0.1488(5)
H5 H 0.9778 0.0706 -0.1657
C8 C 1.0723(5) 0.0951(3) -0.2133(5)
C9 C 1.1353(5) 0.1137(3) -0.1842(5)
H6 H 1.1702 0.1208 -0.2257
C10 C 1.1481(4) 0.1222(3) -0.0939(5)
C11 C 1.2124(4) 0.1458(3) -0.0548(6)
C12 C 1.2708(5) 0.1578(4) -0.1079(8)
H7 H 1.2707 0.1502 -0.1693
C13 C 1.3287(6) 0.1814(5) -0.0653(10)
H8 H 1.3680 0.1898 -0.0988
C14 C 1.3286(6) 0.1921(5) 0.0228(11)
H9 H 1.3671 0.2083 0.0510
C15 C 1.2694(6) 0.1785(4) 0.0716(8)
H10 H 1.2690 0.1853 0.1332
C16 C 1.0565(6) 0.0874(4) -0.3100(5)
C17 C 0.9943(6) 0.1071(5) -0.3453(6)
H11 H 0.9609 0.1235 -0.3079
C18 C 0.9826(7) 0.1021(5) -0.4365(7)
H12 H 0.9406 0.1148 -0.4599
C19 C 1.0309(9) 0.0791(5) -0.4928(7)
C20 C 1.0907(8) 0.0571(5) -0.4585(7)
H13 H 1.1224 0.0387 -0.4964
C21 C 1.1046(6) 0.0617(4) -0.3683(6)
H14 H 1.1463 0.0476 -0.3459
C22 C 1.0166(7) 0.0761(5) -0.5945(6)
H15 H 1.0555 0.0587 -0.6245
H16 H 1.0087 0.1160 -0.6171
H17 H 0.9767 0.0517 -0.6052
C23 C 1.0856(8) 0.2211(6) 0.2129(9)
C24 C 1.0145(8) 0.2380(4) 0.2651(11)
C25 C 0.9510(10) 0.2279(8) 0.2307(10)
H18 H 0.9437 0.2187 0.1705
C26 C 1.0210(6) 0.2572(5) 0.3534(9)
H19 H 1.0643 0.2674 0.3751
C27 C 0.9675(6) 0.2612(5) 0.4071(8)
H20 H 0.9743 0.2702 0.4674
C28 C 0.9044(7) 0.2528(6) 0.3770(11)
C29 C 0.8997(10) 0.2321(7) 0.2901(14)
H21 H 0.8565 0.2197 0.2707
C30 C 0.7984(7) 0.2440(7) 0.4272(11)
C31 C 0.6817(7) 0.5299(5) 0.8312(8)
C32 C 0.7039(6) 0.4398(6) 0.6179(8)
H22 H 0.6999 0.4457 0.5563
C33 C 0.6936(6) 0.4874(5) 0.6746(8)
H23 H 0.6830 0.5252 0.6511
C34 C 0.6986(5) 0.4802(4) 0.7651(7)
C35 C 0.7142(9) 0.4260(5) 0.7952(9)
H24 H 0.7198 0.4193 0.8563
C36 C 0.7224(10) 0.3770(5) 0.7314(11)
H25 H 0.7303 0.3379 0.7517
C37 C 0.7189(6) 0.3876(6) 0.6473(10)
C38 C 0.7417(9) 0.2933(7) 0.5942(12)
C39 C 0.7500 0.2500 0.5074(14)
N1 N 1.0159(4) 0.0866(3) 0.0980(5)
N2 N 1.0986(4) 0.1118(2) -0.0342(4)
N3 N 1.2124(4) 0.1554(3) 0.0318(5)
O1 O 1.0762(5) 0.2007(3) 0.1446(6)
O2 O 1.1389(5) 0.2453(4) 0.2424(6)
O3 O 0.8515(6) 0.2648(4) 0.4638(7)
O4 O 0.7280(5) 0.3419(5) 0.5729(7)
O5 O 0.6932(6) 0.5205(3) 0.9106(6)
O6 O 0.6597(4) 0.5786(3) 0.8000(4)
Zn1 Zn 1.12163(5) 0.12731(4) 0.10109(6)
C1A C 0.5250(7) 0.4250(4) 0.1687(6)
H1A H 0.5065 0.4208 0.2260
C2A C 0.5908(7) 0.4422(4) 0.1614(8)
H2A H 0.6176 0.4480 0.2123
C3A C 0.6183(6) 0.4513(4) 0.0766(9)
H3A H 0.6634 0.4644 0.0693
C4A C 0.5769(5) 0.4403(4) 0.0037(7)
H4A H 0.5938 0.4464 -0.0540
C5A C 0.5108(5) 0.4204(3) 0.0156(6)
C6A C 0.4623(4) 0.4084(3) -0.0601(5)
C7A C 0.4786(4) 0.4165(3) -0.1488(5)
H5A H 0.5222 0.4294 -0.1657
C8A C 0.4277(5) 0.4049(3) -0.2133(5)
C9A C 0.3647(5) 0.3863(3) -0.1842(5)
H6A H 0.3298 0.3792 -0.2257
C10A C 0.3519(4) 0.3778(3) -0.0939(5)
C11A C 0.2876(4) 0.3542(3) -0.0548(6)
C12A C 0.2292(5) 0.3422(4) -0.1079(8)
H7A H 0.2293 0.3498 -0.1693
C13A C 0.1713(6) 0.3186(5) -0.0653(10)
H8A H 0.1320 0.3102 -0.0988
C14A C 0.1714(6) 0.3079(5) 0.0228(11)
H9A H 0.1329 0.2917 0.0510
C15A C 0.2306(6) 0.3215(4) 0.0716(8)
H10A H 0.2310 0.3147 0.1332
C16A C 0.4435(6) 0.4126(4) -0.3100(5)
C17A C 0.5057(6) 0.3929(5) -0.3453(6)
H11A H 0.5391 0.3765 -0.3079
C18A C 0.5174(7) 0.3979(5) -0.4365(7)
H12A H 0.5594 0.3852 -0.4599
C19A C 0.4691(9) 0.4209(5) -0.4928(7)
C20A C 0.4093(8) 0.4429(5) -0.4585(7)
H13A H 0.3776 0.4613 -0.4964
C21A C 0.3954(6) 0.4383(4) -0.3683(6)
H14A H 0.3537 0.4524 -0.3459
C22A C 0.4834(7) 0.4239(5) -0.5945(6)
H15A H 0.4445 0.4413 -0.6245
H16A H 0.4913 0.3840 -0.6171
H17A H 0.5233 0.4483 -0.6052
C23A C 0.4144(8) 0.2789(6) 0.2129(9)
C24A C 0.4855(8) 0.2620(4) 0.2651(11)
C25A C 0.5490(10) 0.2721(8) 0.2307(10)
H18A H 0.5563 0.2813 0.1705
C26A C 0.4790(6) 0.2428(5) 0.3534(9)
H19A H 0.4357 0.2326 0.3751
C27A C 0.5325(6) 0.2388(5) 0.4071(8)
H20A H 0.5257 0.2298 0.4674
C28A C 0.5956(7) 0.2472(6) 0.3770(11)
C29A C 0.6003(10) 0.2679(7) 0.2901(14)
H21A H 0.6435 0.2803 0.2707
C30A C 0.7016(7) 0.2560(7) 0.4272(11)
C31A C 0.8183(7) -0.0299(5) 0.8312(8)
C32A C 0.7961(6) 0.0602(6) 0.6179(8)
H22A H 0.8001 0.0543 0.5563
C33A C 0.8064(6) 0.0126(5) 0.6746(8)
H23A H 0.8170 -0.0252 0.6511
C34A C 0.8014(5) 0.0198(4) 0.7651(7)
C35A C 0.7858(9) 0.0740(5) 0.7952(9)
H24A H 0.7802 0.0807 0.8563
C36A C 0.7776(10) 0.1230(5) 0.7314(11)
H25A H 0.7697 0.1621 0.7517
C37A C 0.7811(6) 0.1124(6) 0.6473(10)
C38A C 0.7583(9) 0.2067(7) 0.5942(12)
N1A N 0.4841(4) 0.4134(3) 0.0980(5)
N2A N 0.4014(4) 0.3882(2) -0.0342(4)
N3A N 0.2876(4) 0.3446(3) 0.0318(5)
O1A O 0.4238(5) 0.2993(3) 0.1446(6)
O2A O 0.3611(5) 0.2547(4) 0.2424(6)
O3A O 0.6485(6) 0.2352(4) 0.4638(7)
O4A O 0.7720(5) 0.1581(5) 0.5729(7)
O5A O 0.8068(6) -0.0205(3) 0.9106(6)
O6A O 0.8403(4) -0.0786(3) 0.8000(4)
O6D O 0.3403(4) 0.4214(3) 0.2000(4)
O6E O 1.1597(4) 0.0786(3) 0.2000(4)
Zn1A Zn 0.37837(5) 0.37269(4) 0.10109(6)
Zn1D Zn 0.87837(5) -0.12731(4) 0.89891(6)
Zn1E Zn 0.62163(5) 0.62731(4) 0.89891(6)
loop_
_geom_bond_atom_site_label_1
_geom_bond_atom_site_label_2
_geom_bond_site_symmetry_1
_geom_bond_site_symmetry_2
C1 H1 1_555 1_555
C2 C1 1_555 1_555
H2 C2 1_555 1_555
C3 C2 1_555 1_555
H3 C3 1_555 1_555
C4 C3 1_555 1_555
H4 C4 1_555 1_555
C5 C4 1_555 1_555
C6 C5 1_555 1_555
C7 C6 1_555 1_555
H5 C7 1_555 1_555
C8 C7 1_555 1_555
C9 C8 1_555 1_555
H6 C9 1_555 1_555
C10 C9 1_555 1_555
C11 C10 1_555 1_555
C12 C11 1_555 1_555
H7 C12 1_555 1_555
C13 C12 1_555 1_555
H8 C13 1_555 1_555
C14 C13 1_555 1_555
H9 C14 1_555 1_555
C15 C14 1_555 1_555
H10 C15 1_555 1_555
C16 C8 1_555 1_555
C17 C16 1_555 1_555
H11 C17 1_555 1_555
C18 C17 1_555 1_555
H12 C18 1_555 1_555
C19 C18 1_555 1_555
C20 C19 1_555 1_555
H13 C20 1_555 1_555
C21 C16 1_555 1_555
H14 C21 1_555 1_555
C22 C19 1_555 1_555
H15 C22 1_555 1_555
H16 C22 1_555 1_555
H17 C22 1_555 1_555
C23 C24 1_555 1_555
C24 C25 1_555 1_555
C25 H18 1_555 1_555
C26 C24 1_555 1_555
H19 C26 1_555 1_555
C27 C26 1_555 1_555
H20 C27 1_555 1_555
C28 C27 1_555 1_555
C29 C25 1_555 1_555
H21 C29 1_555 1_555
C30 C39 1_555 1_555
C31 C34 1_555 1_555
C32 H22 1_555 1_555
C33 C32 1_555 1_555
H23 C33 1_555 1_555
C34 C33 1_555 1_555
C35 C34 1_555 1_555
H24 C35 1_555 1_555
C36 C35 1_555 1_555
H25 C36 1_555 1_555
C37 C32 1_555 1_555
C38 C39 1_555 1_555
C39 C30A 1_555 1_555
N1 C1 1_555 1_555
N2 C6 1_555 1_555
N3 C11 1_555 1_555
O1 C23 1_555 1_555
O2 C23 1_555 1_555
O3 C28 1_555 1_555
O4 C37 1_555 1_555
O5 C31 1_555 1_555
O6 C31 1_555 1_555
Zn1 N1 1_555 1_555
C1A H1A 1_555 1_555
C2A C1A 1_555 1_555
H2A C2A 1_555 1_555
C3A C2A 1_555 1_555
H3A C3A 1_555 1_555
C4A C3A 1_555 1_555
H4A C4A 1_555 1_555
C5A C4A 1_555 1_555
C6A C5A 1_555 1_555
C7A C6A 1_555 1_555
H5A C7A 1_555 1_555
C8A C7A 1_555 1_555
C9A C8A 1_555 1_555
H6A C9A 1_555 1_555
C10A C9A 1_555 1_555
C11A C10A 1_555 1_555
C12A C11A 1_555 1_555
H7A C12A 1_555 1_555
C13A C12A 1_555 1_555
H8A C13A 1_555 1_555
C14A C13A 1_555 1_555
H9A C14A 1_555 1_555
C15A C14A 1_555 1_555
H10A C15A 1_555 1_555
C16A C8A 1_555 1_555
C17A C16A 1_555 1_555
H11A C17A 1_555 1_555
C18A C17A 1_555 1_555
H12A C18A 1_555 1_555
C19A C18A 1_555 1_555
C20A C19A 1_555 1_555
H13A C20A 1_555 1_555
C21A C16A 1_555 1_555
H14A C21A 1_555 1_555
C22A C19A 1_555 1_555
H15A C22A 1_555 1_555
H16A C22A 1_555 1_555
H17A C22A 1_555 1_555
C23A C24A 1_555 1_555
C24A C25A 1_555 1_555
C25A H18A 1_555 1_555
C26A C24A 1_555 1_555
H19A C26A 1_555 1_555
C27A C26A 1_555 1_555
H20A C27A 1_555 1_555
C28A C27A 1_555 1_555
C29A C25A 1_555 1_555
H21A C29A 1_555 1_555
C30A O3A 1_555 1_555
C31A C34A 1_555 1_555
C32A H22A 1_555 1_555
C33A C32A 1_555 1_555
H23A C33A 1_555 1_555
C34A C33A 1_555 1_555
C35A C34A 1_555 1_555
H24A C35A 1_555 1_555
C36A C35A 1_555 1_555
H25A C36A 1_555 1_555
C37A C32A 1_555 1_555
C38A C39 1_555 1_555
N1A C1A 1_555 1_555
N2A C6A 1_555 1_555
N3A C11A 1_555 1_555
O1A C23A 1_555 1_555
O2A C23A 1_555 1_555
O3A C28A 1_555 1_555
O4A C37A 1_555 1_555
O5A C31A 1_555 1_555
O6A C31A 1_555 1_555
O6D Zn1A 1_555 1_555
O6E Zn1 1_555 1_555
Zn1A N1A 1_555 1_555
Zn1D O6A 1_555 1_555
Zn1E O6 1_555 1_555
C5 N1 1_555 1_555
C10 N2 1_555 1_555
C15 N3 1_555 1_555
C20 C21 1_555 1_555
C28 C29 1_555 1_555
C30 O3 1_555 1_555
C36 C37 1_555 1_555
C38 O4 1_555 1_555
N2 Zn1 1_555 1_555
N3 Zn1 1_555 1_555
O1 Zn1 1_555 1_555
C5A N1A 1_555 1_555
C10A N2A 1_555 1_555
C15A N3A 1_555 1_555
C20A C21A 1_555 1_555
C28A C29A 1_555 1_555
C36A C37A 1_555 1_555
C38A O4A 1_555 1_555
N2A Zn1A 1_555 1_555
N3A Zn1A 1_555 1_555
O1A Zn1A 1_555 1_555

#END
