
#######################################################################
#
#                 Cambridge Crystallographic Data Centre
#                                CCDC 
#
#######################################################################
#
# If this CIF has been generated from an entry in the Cambridge 
# Structural Database, then it will include bibliographic, chemical, 
# crystal, experimental, refinement or atomic coordinate data resulting 
# from the CCDC's data processing and validation procedures.
#
#######################################################################

data_GERFUF
_symmetry_cell_setting           orthorhombic
_symmetry_space_group_name_H-M   'P 21 21 2'
_symmetry_Int_Tables_number      18
_space_group_name_Hall           'P 2 2ab'
loop_
_symmetry_equiv_pos_site_id
_symmetry_equiv_pos_as_xyz
1 x,y,z
2 -x,-y,z
3 1/2-x,1/2+y,-z
4 1/2+x,1/2-y,-z
_cell_length_a                   7.368(3)
_cell_length_b                   28.931(10)
_cell_length_c                   7.214(2)
_cell_angle_alpha                90
_cell_angle_beta                 90
_cell_angle_gamma                90
_cell_volume                     1537.76
loop_
_atom_site_label
_atom_site_type_symbol
_atom_site_fract_x
_atom_site_fract_y
_atom_site_fract_z
Ag1 Ag 0.50777(15) -0.08400(3) 0.2098(8)
N1 N 0.8103(6) -0.0849(2) 0.2744(9)
C1 C 0.9077(8) -0.0435(2) 0.2610(13)
C2 C 0.8083(8) -0.0008(3) 0.2615(8)
H1 H 0.6795 -0.0013 0.2589
C3 C 1.1014(8) -0.0408(2) 0.2657(15)
N2 N 1.2057(6) -0.0821(2) 0.2606(10)
C4 C 1.1112(8) -0.1194(2) 0.2757(15)
C5 C 0.9121(8) -0.1229(2) 0.2809(16)
C6 C 1.1738(8) -0.1696(2) 0.2856(16)
H2 H 1.2979 -0.1758 0.2354
C7 C 1.1436(9) -0.1830(3) 0.4936(12)
H3 H 1.1982 -0.1599 0.5780
H4 H 1.1946 -0.2138 0.5216
C8 C 0.9290(9) -0.1830(2) 0.5079(10)
H5 H 0.8841 -0.2134 0.5502
H6 H 0.8871 -0.1590 0.5960
C9 C 0.8617(8) -0.1726(2) 0.3129(14)
C10 C 1.0163(9) -0.19551(19) 0.1881(8)
C11 C 1.0252(8) -0.2487(2) 0.2057(10)
H7 H 1.1215 -0.2606 0.1251
H8 H 0.9085 -0.2620 0.1685
H9 H 1.0512 -0.2571 0.3345
C12 C 1.0067(12) -0.1834(2) -0.0170(8)
H10 H 1.1049 -0.1991 -0.0834
H11 H 1.0196 -0.1499 -0.0323
H12 H 0.8895 -0.1933 -0.0674
C13 C 0.6647(7) -0.1857(2) 0.2688(11)
H13 H 0.5828 -0.1694 0.3533
H14 H 0.6490 -0.2192 0.2842
H15 H 0.6365 -0.1771 0.1406
Ag1A Ag 1.49223(15) 0.08400(3) 0.2098(8)
Ag1_2 Ag 1.50777(15) -0.08400(3) 0.2098(8)
Ag1A_2 Ag 0.49223(15) 0.08400(3) 0.2098(8)
N1A N 1.1897(6) 0.0849(2) 0.2744(9)
C1A C 1.0923(8) 0.0435(2) 0.2610(13)
C2A C 1.1917(8) 0.0008(3) 0.2615(8)
H1A H 1.3205 0.0013 0.2589
C3A C 0.8986(8) 0.0408(2) 0.2657(15)
N2A N 0.7943(6) 0.0821(2) 0.2606(10)
N2_2 N 0.2057(6) -0.0821(2) 0.2606(10)
N2A_2 N 1.7943(6) 0.0821(2) 0.2606(10)
C4A C 0.8888(8) 0.1194(2) 0.2757(15)
C5A C 1.0879(8) 0.1229(2) 0.2809(16)
C6A C 0.8262(8) 0.1696(2) 0.2856(16)
H2A H 0.7021 0.1758 0.2354
C7A C 0.8564(9) 0.1830(3) 0.4936(12)
H3A H 0.8018 0.1599 0.5780
H4A H 0.8054 0.2138 0.5216
C8A C 1.0710(9) 0.1830(2) 0.5079(10)
H5A H 1.1159 0.2134 0.5502
H6A H 1.1129 0.1590 0.5960
C9A C 1.1383(8) 0.1726(2) 0.3129(14)
C10A C 0.9837(9) 0.19551(19) 0.1881(8)
C11A C 0.9748(8) 0.2487(2) 0.2057(10)
H7A H 0.8785 0.2606 0.1251
H8A H 1.0915 0.2620 0.1685
H9A H 0.9488 0.2571 0.3345
C12A C 0.9933(12) 0.1834(2) -0.0170(8)
H10A H 0.8951 0.1991 -0.0834
H11A H 0.9804 0.1499 -0.0323
H12A H 1.1105 0.1933 -0.0674
C13A C 1.3353(7) 0.1857(2) 0.2688(11)
H13A H 1.4172 0.1694 0.3533
H14A H 1.3510 0.2192 0.2842
H15A H 1.3635 0.1771 0.1406
N3 N 0.5204(15) -0.1166(3) 0.8015(11)
O1 O 0.5207(16) -0.1217(3) 0.6321(11)
O2 O 0.6651(17) -0.1070(5) 0.8714(17)
O3 O 0.4045(16) -0.1274(4) 0.9045(15)
O4 O 0.5000 0.0000 0.9781(18)
O5 O 1.023(2) -0.0664(5) 0.716(2)
Ag2? Ag 0.5063(11) -0.0831(3) 0.299(5)
loop_
_geom_bond_atom_site_label_1
_geom_bond_atom_site_label_2
_geom_bond_site_symmetry_1
_geom_bond_site_symmetry_2
Ag1 N1 1_555 1_555
N1 C1 1_555 1_555
C1 C2 1_555 1_555
C2 H1 1_555 1_555
C3 C1 1_555 1_555
N2 C3 1_555 1_555
C4 N2 1_555 1_555
C5 N1 1_555 1_555
C6 C4 1_555 1_555
H2 C6 1_555 1_555
C7 C6 1_555 1_555
H3 C7 1_555 1_555
H4 C7 1_555 1_555
C8 C7 1_555 1_555
H5 C8 1_555 1_555
H6 C8 1_555 1_555
C9 C5 1_555 1_555
C10 C6 1_555 1_555
C11 C10 1_555 1_555
H7 C11 1_555 1_555
H8 C11 1_555 1_555
H9 C11 1_555 1_555
C12 C10 1_555 1_555
H10 C12 1_555 1_555
H11 C12 1_555 1_555
H12 C12 1_555 1_555
C13 C9 1_555 1_555
H13 C13 1_555 1_555
H14 C13 1_555 1_555
H15 C13 1_555 1_555
N3 O1 1_555 1_555
O2 N3 1_555 1_555
O3 N3 1_555 1_555
Ag1A N1A 1_555 1_555
Ag1_2 N2 1_555 1_555
Ag1A_2 N2A 1_555 1_555
N1A C1A 1_555 1_555
C1A C2A 1_555 1_555
C2A C3 1_555 1_555
H1A C2A 1_555 1_555
C3A C2 1_555 1_555
N2A C3A 1_555 1_555
N2_2 Ag1 1_555 1_555
N2A_2 Ag1A 1_555 1_555
C4A N2A 1_555 1_555
C5A N1A 1_555 1_555
C6A C4A 1_555 1_555
H2A C6A 1_555 1_555
C7A C6A 1_555 1_555
H3A C7A 1_555 1_555
H4A C7A 1_555 1_555
C8A C7A 1_555 1_555
H5A C8A 1_555 1_555
H6A C8A 1_555 1_555
C9A C5A 1_555 1_555
C10A C6A 1_555 1_555
C11A C10A 1_555 1_555
H7A C11A 1_555 1_555
H8A C11A 1_555 1_555
H9A C11A 1_555 1_555
C12A C10A 1_555 1_555
H10A C12A 1_555 1_555
H11A C12A 1_555 1_555
H12A C12A 1_555 1_555
C13A C9A 1_555 1_555
H13A C13A 1_555 1_555
H14A C13A 1_555 1_555
H15A C13A 1_555 1_555
C4 C5 1_555 1_555
C8 C9 1_555 1_555
C9 C10 1_555 1_555
C1A C3A 1_555 1_555
C4A C5A 1_555 1_555
C8A C9A 1_555 1_555
C9A C10A 1_555 1_555

#END
