
#######################################################################
#
#                 Cambridge Crystallographic Data Centre
#                                CCDC 
#
#######################################################################
#
# If this CIF has been generated from an entry in the Cambridge 
# Structural Database, then it will include bibliographic, chemical, 
# crystal, experimental, refinement or atomic coordinate data resulting 
# from the CCDC's data processing and validation procedures.
#
#######################################################################

data_GERFOZ
_symmetry_cell_setting           orthorhombic
_symmetry_space_group_name_H-M   'P 21 21 21'
_symmetry_Int_Tables_number      19
_space_group_name_Hall           'P 2ac 2ab'
loop_
_symmetry_equiv_pos_site_id
_symmetry_equiv_pos_as_xyz
1 x,y,z
2 1/2-x,-y,1/2+z
3 -x,1/2+y,1/2-z
4 1/2+x,1/2-y,-z
_cell_length_a                   13.721(4)
_cell_length_b                   14.368(4)
_cell_length_c                   22.876(6)
_cell_angle_alpha                90
_cell_angle_beta                 90
_cell_angle_gamma                90
_cell_volume                     4509.85
loop_
_atom_site_label
_atom_site_type_symbol
_atom_site_fract_x
_atom_site_fract_y
_atom_site_fract_z
Ag1 Ag 0.65378(3) 0.28347(2) 0.002834(14)
Ag2 Ag 0.64583(3) 0.78330(3) -0.006714(17)
N1 N 0.6337(3) 0.4350(3) 0.00549(17)
C1 C 0.6706(4) 0.4876(3) 0.04869(18)
C2 C 0.7221(4) 0.4596(3) 0.10447(19)
H1 H 0.7077 0.3956 0.1192
C3 C 0.8321(4) 0.4822(3) 0.0933(2)
H2 H 0.8733 0.4602 0.1260
H3 H 0.8552 0.4536 0.0565
C4 C 0.8327(3) 0.5896(3) 0.0892(2)
H4 H 0.8539 0.6103 0.0500
H5 H 0.8768 0.6168 0.1189
C5 C 0.7240(3) 0.6186(3) 0.10114(18)
C6 C 0.6692(4) 0.5853(3) 0.04683(18)
C7 C 0.6912(3) 0.5418(3) 0.14560(18)
C8 C 0.7477(4) 0.5421(3) 0.20399(19)
H6 H 0.7269 0.5954 0.2276
H7 H 0.8178 0.5469 0.1961
H8 H 0.7344 0.4843 0.2253
C9 C 0.5826(4) 0.5428(4) 0.1594(2)
H9 H 0.5678 0.5958 0.1849
H10 H 0.5647 0.4848 0.1793
H11 H 0.5454 0.5484 0.1230
C10 C 0.7104(4) 0.7191(3) 0.11977(19)
H12 H 0.6411 0.7311 0.1268
H13 H 0.7341 0.7605 0.0888
H14 H 0.7472 0.7306 0.1558
N2 N 0.6296(2) 0.6332(2) 0.00254(17)
C11 C 0.5885(4) 0.5794(3) -0.03959(18)
C12 C 0.5920(4) 0.4830(3) -0.0378(2)
C13 C 0.5394(3) 0.4489(3) -0.0917(2)
H15 H 0.5564 0.3844 -0.1046
C14 C 0.4293(4) 0.4658(3) -0.0779(2)
H16 H 0.3869 0.4387 -0.1085
H17 H 0.4111 0.4395 -0.0394
C15 C 0.4232(4) 0.5743(3) -0.0777(2)
H18 H 0.4032 0.5977 -0.0387
H19 H 0.3761 0.5967 -0.1073
C16 C 0.5290(3) 0.6067(3) -0.09291(19)
C17 C 0.5632(3) 0.5271(3) -0.13584(19)
C18 C 0.5039(4) 0.5224(4) -0.1933(2)
H20 H 0.5292 0.4719 -0.2178
H21 H 0.5098 0.5816 -0.2142
H22 H 0.4353 0.5105 -0.1842
C19 C 0.6708(4) 0.5329(4) -0.1521(2)
H23 H 0.6872 0.4818 -0.1787
H24 H 0.7105 0.5280 -0.1166
H25 H 0.6838 0.5925 -0.1713
C20 C 0.5354(4) 0.7070(3) -0.1138(2)
H26 H 0.5115 0.7486 -0.0830
H27 H 0.4953 0.7147 -0.1490
H28 H 0.6033 0.7223 -0.1229
N3 N 0.6298(3) -0.0669(3) -0.00860(17)
C21 C 0.6571(4) -0.0151(3) -0.05468(19)
C22 C 0.6885(4) -0.0452(3) -0.11438(19)
H29 H 0.7137 -0.1103 -0.1174
C23 C 0.5999(4) -0.0213(3) -0.1545(2)
H30 H 0.6096 -0.0456 -0.1946
H31 H 0.5385 -0.0468 -0.1384
C24 C 0.5993(4) 0.0864(3) -0.1539(2)
H32 H 0.5378 0.1104 -0.1370
H33 H 0.6069 0.1116 -0.1939
C25 C 0.6880(3) 0.1135(3) -0.11492(19)
C26 C 0.6581(3) 0.0818(3) -0.05373(17)
C27 C 0.7625(4) 0.0327(3) -0.1294(2)
C28 C 0.7977(4) 0.0312(4) -0.1940(2)
H34 H 0.8436 -0.0203 -0.1996
H35 H 0.8301 0.0902 -0.2032
H36 H 0.7415 0.0228 -0.2199
C29 C 0.8519(4) 0.0317(4) -0.0900(2)
H37 H 0.8950 -0.0194 -0.1017
H38 H 0.8315 0.0228 -0.0494
H39 H 0.8867 0.0909 -0.0937
C30 C 0.7237(4) 0.2127(4) -0.12222(19)
H40 H 0.6716 0.2561 -0.1114
H41 H 0.7424 0.2232 -0.1630
H42 H 0.7803 0.2231 -0.0969
N4 N 0.6318(2) 0.1325(2) -0.00550(16)
C31 C 0.6022(3) 0.0804(3) 0.03916(19)
C32 C 0.6015(4) -0.0173(3) 0.0390(2)
C33 C 0.5668(3) -0.0508(3) 0.09728(19)
H43 H 0.5411 -0.1159 0.0985
C34 C 0.6510(4) -0.0283(3) 0.1405(2)
H44 H 0.6379 -0.0548 0.1797
H45 H 0.7139 -0.0529 0.1259
C35 C 0.6518(4) 0.0791(3) 0.14237(19)
H46 H 0.7150 0.1039 0.1284
H47 H 0.6399 0.1019 0.1826
C36 C 0.5668(3) 0.1089(3) 0.10047(18)
C37 C 0.4912(4) 0.0283(3) 0.1112(2)
C38 C 0.4531(4) 0.0259(4) 0.1746(2)
H48 H 0.4066 -0.0254 0.1789
H49 H 0.4205 0.0849 0.1836
H50 H 0.5078 0.0167 0.2015
C39 C 0.4051(4) 0.0281(4) 0.0694(3)
H51 H 0.3621 -0.0244 0.0787
H52 H 0.4288 0.0219 0.0292
H53 H 0.3689 0.0865 0.0734
C40 C 0.5318(4) 0.2076(3) 0.10791(19)
H54 H 0.4780 0.2195 0.0807
H55 H 0.5854 0.2507 0.0998
H56 H 0.5090 0.2167 0.1481
Ag2_2 Ag 0.64583(3) -0.21670(3) -0.006714(17)
N3_2 N 0.6298(3) 0.9331(3) -0.00860(17)
N5 N 0.3632(4) 0.7451(3) 0.0647(2)
O1 O 0.3399(4) 0.7342(4) 0.0122(2)
O2 O 0.2954(3) 0.7602(4) 0.0991(2)
O3 O 0.4476(3) 0.7366(4) 0.0819(2)
N6 N 0.8653(3) 0.2576(3) 0.0529(2)
O4 O 0.8483(3) 0.2660(4) -0.00060(16)
O5 O 0.7947(3) 0.2478(2) 0.08704(16)
O6 O 0.9503(3) 0.2603(3) 0.0724(2)
O7 O 0.5674(13) -0.2330(9) -0.2953(7)
O12 O 0.415(3) -0.2246(14) 0.2311(6)
O8? O 0.6323(13) -0.3006(8) -0.2959(5)
O9? O 0.6475(19) -0.2240(11) -0.2725(5)
O10? O 0.4754(19) -0.225(2) 0.1985(19)
O11? O 0.4124(12) -0.2970(11) 0.2159(5)
loop_
_geom_bond_atom_site_label_1
_geom_bond_atom_site_label_2
_geom_bond_site_symmetry_1
_geom_bond_site_symmetry_2
Ag1 N1 1_555 1_555
Ag2 N2 1_555 1_555
N1 C1 1_555 1_555
C1 C2 1_555 1_555
C2 H1 1_555 1_555
C3 C2 1_555 1_555
H2 C3 1_555 1_555
H3 C3 1_555 1_555
C4 C3 1_555 1_555
H4 C4 1_555 1_555
H5 C4 1_555 1_555
C5 C4 1_555 1_555
C6 C1 1_555 1_555
C7 C2 1_555 1_555
C8 C7 1_555 1_555
H6 C8 1_555 1_555
H7 C8 1_555 1_555
H8 C8 1_555 1_555
C9 C7 1_555 1_555
H9 C9 1_555 1_555
H10 C9 1_555 1_555
H11 C9 1_555 1_555
C10 C5 1_555 1_555
H12 C10 1_555 1_555
H13 C10 1_555 1_555
H14 C10 1_555 1_555
N2 C6 1_555 1_555
C11 N2 1_555 1_555
C12 N1 1_555 1_555
C13 C12 1_555 1_555
H15 C13 1_555 1_555
C14 C13 1_555 1_555
H16 C14 1_555 1_555
H17 C14 1_555 1_555
C15 C14 1_555 1_555
H18 C15 1_555 1_555
H19 C15 1_555 1_555
C16 C11 1_555 1_555
C17 C13 1_555 1_555
C18 C17 1_555 1_555
H20 C18 1_555 1_555
H21 C18 1_555 1_555
H22 C18 1_555 1_555
C19 C17 1_555 1_555
H23 C19 1_555 1_555
H24 C19 1_555 1_555
H25 C19 1_555 1_555
C20 C16 1_555 1_555
H26 C20 1_555 1_555
H27 C20 1_555 1_555
H28 C20 1_555 1_555
N3 C21 1_555 1_555
C21 C22 1_555 1_555
C22 H29 1_555 1_555
C23 C22 1_555 1_555
H30 C23 1_555 1_555
H31 C23 1_555 1_555
C24 C23 1_555 1_555
H32 C24 1_555 1_555
H33 C24 1_555 1_555
C25 C24 1_555 1_555
C26 C21 1_555 1_555
C27 C22 1_555 1_555
C28 C27 1_555 1_555
H34 C28 1_555 1_555
H35 C28 1_555 1_555
H36 C28 1_555 1_555
C29 C27 1_555 1_555
H37 C29 1_555 1_555
H38 C29 1_555 1_555
H39 C29 1_555 1_555
C30 C25 1_555 1_555
H40 C30 1_555 1_555
H41 C30 1_555 1_555
H42 C30 1_555 1_555
N4 Ag1 1_555 1_555
C31 N4 1_555 1_555
C32 N3 1_555 1_555
C33 C32 1_555 1_555
H43 C33 1_555 1_555
C34 C33 1_555 1_555
H44 C34 1_555 1_555
H45 C34 1_555 1_555
C35 C34 1_555 1_555
H46 C35 1_555 1_555
H47 C35 1_555 1_555
C36 C31 1_555 1_555
C37 C33 1_555 1_555
C38 C37 1_555 1_555
H48 C38 1_555 1_555
H49 C38 1_555 1_555
H50 C38 1_555 1_555
C39 C37 1_555 1_555
H51 C39 1_555 1_555
H52 C39 1_555 1_555
H53 C39 1_555 1_555
C40 C36 1_555 1_555
H54 C40 1_555 1_555
H55 C40 1_555 1_555
H56 C40 1_555 1_555
N5 O1 1_555 1_555
O2 N5 1_555 1_555
O3 N5 1_555 1_555
N6 O4 1_555 1_555
O5 N6 1_555 1_555
O6 N6 1_555 1_555
Ag2_2 N3 1_555 1_555
N3_2 Ag2 1_555 1_555
C5 C6 1_555 1_555
C5 C7 1_555 1_555
C11 C12 1_555 1_555
C15 C16 1_555 1_555
C16 C17 1_555 1_555
C25 C26 1_555 1_555
C25 C27 1_555 1_555
C26 N4 1_555 1_555
C31 C32 1_555 1_555
C35 C36 1_555 1_555
C36 C37 1_555 1_555

#END
