
#######################################################################
#
#                 Cambridge Crystallographic Data Centre
#                                CCDC 
#
#######################################################################
#
# If this CIF has been generated from an entry in the Cambridge 
# Structural Database, then it will include bibliographic, chemical, 
# crystal, experimental, refinement or atomic coordinate data resulting 
# from the CCDC's data processing and validation procedures.
#
#######################################################################

data_GERFEP
_symmetry_cell_setting           monoclinic
_symmetry_space_group_name_H-M   'P 21/c'
_symmetry_Int_Tables_number      14
_space_group_name_Hall           '-P 2ybc'
loop_
_symmetry_equiv_pos_site_id
_symmetry_equiv_pos_as_xyz
1 x,y,z
2 -x,1/2+y,1/2-z
3 -x,-y,-z
4 x,1/2-y,1/2+z
_cell_length_a                   5.4085(4)
_cell_length_b                   8.1350(7)
_cell_length_c                   54.718(4)
_cell_angle_alpha                90
_cell_angle_beta                 92.4900(10)
_cell_angle_gamma                90
_cell_volume                     2405.22
loop_
_atom_site_label
_atom_site_type_symbol
_atom_site_fract_x
_atom_site_fract_y
_atom_site_fract_z
Ca1 Ca 1.0000 1.0000 0.0000
S1 S 0.5075(2) 1.11062(15) 0.04149(2)
O1 O 0.7015(7) 1.0214(5) 0.02916(7)
O2 O 0.2892(6) 1.1370(4) 0.02520(6)
O3 O 0.5954(7) 1.2595(5) 0.05321(7)
C1 C 0.4141(9) 0.9796(7) 0.06524(9)
H1 H 0.3493 0.8756 0.0581
H2 H 0.5591 0.9530 0.0762
C2 C 0.2148(11) 1.0603(8) 0.08006(10)
H3 H 0.0626 1.0740 0.0695
H4 H 0.2717 1.1710 0.0853
C3 C 0.1542(13) 0.9597(8) 0.10260(11)
H5 H 0.3085 0.9391 0.1125
H6 H 0.0855 0.8520 0.0973
C4 C -0.0328(13) 1.0476(10) 0.11841(11)
H7 H 0.0307 1.1589 0.1225
H8 H -0.1904 1.0608 0.1087
C5 C -0.0840(15) 0.9583(11) 0.14199(13)
H9 H 0.0737 0.9449 0.1517
H10 H -0.1479 0.8471 0.1379
C6 C -0.2685(15) 1.0455(12) 0.15766(12)
H11 H -0.4286 1.0545 0.1483
H12 H -0.2083 1.1585 0.1611
C7 C -0.3113(17) 0.9592(13) 0.18187(14)
H13 H -0.3688 0.8457 0.1785
H14 H -0.1520 0.9522 0.1914
C8 C -0.4992(17) 1.0455(13) 0.19719(14)
H15 H -0.6595 1.0502 0.1878
H16 H -0.4437 1.1599 0.2003
C9 C -0.5382(18) 0.9612(13) 0.22178(14)
H17 H -0.5933 0.8467 0.2187
H18 H -0.3780 0.9567 0.2312
C10 C -0.7275(18) 1.0476(14) 0.23710(14)
H19 H -0.8872 1.0531 0.2276
H20 H -0.6715 1.1617 0.2403
C11 C -0.7679(18) 0.9623(14) 0.26146(14)
H21 H -0.8234 0.8481 0.2582
H22 H -0.6081 0.9570 0.2710
C12 C -0.9573(18) 1.0479(14) 0.27685(14)
H23 H -1.1171 1.0531 0.2674
H24 H -0.9019 1.1621 0.2801
C13 C -0.9979(17) 0.9633(13) 0.30117(14)
H25 H -1.0542 0.8492 0.2979
H26 H -0.8379 0.9575 0.3106
C14 C -1.1862(17) 1.0494(13) 0.31661(14)
H27 H -1.3465 1.0549 0.3072
H28 H -1.1303 1.1635 0.3199
C15 C -1.2250(16) 0.9637(12) 0.34097(13)
H29 H -1.2818 0.8498 0.3377
H30 H -1.0641 0.9573 0.3503
C16 C -1.4103(15) 1.0483(11) 0.35672(13)
H31 H -1.5723 1.0530 0.3476
H32 H -1.3551 1.1626 0.3599
C17 C -1.4433(15) 0.9629(11) 0.38097(12)
H33 H -1.2815 0.9593 0.3901
H34 H -1.4960 0.8481 0.3778
C18 C -1.6326(15) 1.0455(11) 0.39701(13)
H35 H -1.6426 0.9846 0.4124
H36 H -1.7952 1.0459 0.3884
H37 H -1.5810 1.1588 0.4005
S2 S 0.9270(2) 0.67481(16) 0.03969(2)
O4 O 1.0918(6) 0.7560(4) 0.02116(7)
C19 C 1.0805(10) 0.4906(7) 0.04903(11)
H38 H 1.1217 0.4269 0.0346
H39 H 0.9717 0.4255 0.0591
H40 H 1.2327 0.5178 0.0585
C20 C 0.6792(10) 0.5863(8) 0.02186(12)
H41 H 0.5696 0.6736 0.0154
H42 H 0.5857 0.5118 0.0321
H43 H 0.7456 0.5247 0.0082
Ca1_2 Ca 0.0000 1.0000 0.0000
Ca1_3 Ca 2.0000 1.0000 0.0000
S1B S 1.4925(2) 0.88938(15) -0.04149(2)
O1B O 1.2985(7) 0.9786(5) -0.02916(7)
O2B O 1.7108(6) 0.8630(4) -0.02520(6)
O2_2 O 1.2892(6) 1.1370(4) 0.02520(6)
O2B_2 O 0.7108(6) 0.8630(4) -0.02520(6)
O3B O 1.4046(7) 0.7405(5) -0.05321(7)
C1B C 1.5859(9) 1.0204(7) -0.06524(9)
H1B H 1.6507 1.1244 -0.0581
H2B H 1.4409 1.0470 -0.0762
C2B C 1.7852(11) 0.9397(8) -0.08006(10)
H3B H 1.9374 0.9260 -0.0695
H4B H 1.7283 0.8290 -0.0853
C3B C 1.8458(13) 1.0403(8) -0.10260(11)
H5B H 1.6915 1.0609 -0.1125
H6B H 1.9145 1.1480 -0.0973
C4B C 2.0328(13) 0.9524(10) -0.11841(11)
H7B H 1.9693 0.8411 -0.1225
H8B H 2.1904 0.9392 -0.1087
C5B C 2.0840(15) 1.0417(11) -0.14199(13)
H9B H 1.9263 1.0551 -0.1517
H10B H 2.1479 1.1529 -0.1379
C6B C 2.2685(15) 0.9545(12) -0.15766(12)
H11B H 2.4286 0.9455 -0.1483
H12B H 2.2083 0.8415 -0.1611
C7B C 2.3113(17) 1.0408(13) -0.18187(14)
H13B H 2.3688 1.1543 -0.1785
H14B H 2.1520 1.0478 -0.1914
C8B C 2.4992(17) 0.9545(13) -0.19719(14)
H15B H 2.6595 0.9498 -0.1878
H16B H 2.4437 0.8401 -0.2003
C9B C 2.5382(18) 1.0388(13) -0.22178(14)
H17B H 2.5933 1.1533 -0.2187
H18B H 2.3780 1.0433 -0.2312
C10B C 2.7275(18) 0.9524(14) -0.23710(14)
H19B H 2.8872 0.9469 -0.2276
H20B H 2.6715 0.8383 -0.2403
C11B C 2.7679(18) 1.0377(14) -0.26146(14)
H21B H 2.8234 1.1519 -0.2582
H22B H 2.6081 1.0430 -0.2710
C12B C 2.9573(18) 0.9521(14) -0.27685(14)
H23B H 3.1171 0.9469 -0.2674
H24B H 2.9019 0.8379 -0.2801
C13B C 2.9979(17) 1.0367(13) -0.30117(14)
H25B H 3.0542 1.1508 -0.2979
H26B H 2.8379 1.0425 -0.3106
C14B C 3.1862(17) 0.9506(13) -0.31661(14)
H27B H 3.3465 0.9451 -0.3072
H28B H 3.1303 0.8365 -0.3199
C15B C 3.2250(16) 1.0363(12) -0.34097(13)
H29B H 3.2818 1.1502 -0.3377
H30B H 3.0641 1.0427 -0.3503
C16B C 3.4103(15) 0.9517(11) -0.35672(13)
H31B H 3.5723 0.9470 -0.3476
H32B H 3.3551 0.8374 -0.3599
C17B C 3.4433(15) 1.0371(11) -0.38097(12)
H33B H 3.2815 1.0407 -0.3901
H34B H 3.4960 1.1519 -0.3778
C18B C 3.6326(15) 0.9545(11) -0.39701(13)
H35B H 3.6426 1.0154 -0.4124
H36B H 3.7952 0.9541 -0.3884
H37B H 3.5810 0.8412 -0.4005
S2B S 1.0730(2) 1.32519(16) -0.03969(2)
O4B O 0.9082(6) 1.2440(4) -0.02116(7)
C19B C 0.9195(10) 1.5094(7) -0.04903(11)
H38B H 0.8783 1.5731 -0.0346
H39B H 1.0283 1.5745 -0.0591
H40B H 0.7673 1.4822 -0.0585
C20B C 1.3208(10) 1.4137(8) -0.02186(12)
H41B H 1.4304 1.3264 -0.0154
H42B H 1.4143 1.4882 -0.0321
H43B H 1.2544 1.4753 -0.0082
loop_
_geom_bond_atom_site_label_1
_geom_bond_atom_site_label_2
_geom_bond_site_symmetry_1
_geom_bond_site_symmetry_2
Ca1 O1 1_555 1_555
S1 O1 1_555 1_555
O2 S1 1_555 1_555
O3 S1 1_555 1_555
C1 S1 1_555 1_555
H1 C1 1_555 1_555
H2 C1 1_555 1_555
C2 C1 1_555 1_555
H3 C2 1_555 1_555
H4 C2 1_555 1_555
C3 C2 1_555 1_555
H5 C3 1_555 1_555
H6 C3 1_555 1_555
C4 C3 1_555 1_555
H7 C4 1_555 1_555
H8 C4 1_555 1_555
C5 C4 1_555 1_555
H9 C5 1_555 1_555
H10 C5 1_555 1_555
C6 C5 1_555 1_555
H11 C6 1_555 1_555
H12 C6 1_555 1_555
C7 C6 1_555 1_555
H13 C7 1_555 1_555
H14 C7 1_555 1_555
C8 C7 1_555 1_555
H15 C8 1_555 1_555
H16 C8 1_555 1_555
C9 C8 1_555 1_555
H17 C9 1_555 1_555
H18 C9 1_555 1_555
C10 C9 1_555 1_555
H19 C10 1_555 1_555
H20 C10 1_555 1_555
C11 C10 1_555 1_555
H21 C11 1_555 1_555
H22 C11 1_555 1_555
C12 C11 1_555 1_555
H23 C12 1_555 1_555
H24 C12 1_555 1_555
C13 C12 1_555 1_555
H25 C13 1_555 1_555
H26 C13 1_555 1_555
C14 C13 1_555 1_555
H27 C14 1_555 1_555
H28 C14 1_555 1_555
C15 C14 1_555 1_555
H29 C15 1_555 1_555
H30 C15 1_555 1_555
C16 C15 1_555 1_555
H31 C16 1_555 1_555
H32 C16 1_555 1_555
C17 C16 1_555 1_555
H33 C17 1_555 1_555
H34 C17 1_555 1_555
C18 C17 1_555 1_555
H35 C18 1_555 1_555
H36 C18 1_555 1_555
H37 C18 1_555 1_555
S2 O4 1_555 1_555
O4 Ca1 1_555 1_555
C19 S2 1_555 1_555
H38 C19 1_555 1_555
H39 C19 1_555 1_555
H40 C19 1_555 1_555
C20 S2 1_555 1_555
H41 C20 1_555 1_555
H42 C20 1_555 1_555
H43 C20 1_555 1_555
Ca1_2 O2 1_555 1_555
Ca1_3 O2B 1_555 1_555
S1B O1B 1_555 1_555
O1B Ca1 1_555 1_555
O2B S1B 1_555 1_555
O2_2 Ca1 1_555 1_555
O2B_2 Ca1 1_555 1_555
O3B S1B 1_555 1_555
C1B S1B 1_555 1_555
H1B C1B 1_555 1_555
H2B C1B 1_555 1_555
C2B C1B 1_555 1_555
H3B C2B 1_555 1_555
H4B C2B 1_555 1_555
C3B C2B 1_555 1_555
H5B C3B 1_555 1_555
H6B C3B 1_555 1_555
C4B C3B 1_555 1_555
H7B C4B 1_555 1_555
H8B C4B 1_555 1_555
C5B C4B 1_555 1_555
H9B C5B 1_555 1_555
H10B C5B 1_555 1_555
C6B C5B 1_555 1_555
H11B C6B 1_555 1_555
H12B C6B 1_555 1_555
C7B C6B 1_555 1_555
H13B C7B 1_555 1_555
H14B C7B 1_555 1_555
C8B C7B 1_555 1_555
H15B C8B 1_555 1_555
H16B C8B 1_555 1_555
C9B C8B 1_555 1_555
H17B C9B 1_555 1_555
H18B C9B 1_555 1_555
C10B C9B 1_555 1_555
H19B C10B 1_555 1_555
H20B C10B 1_555 1_555
C11B C10B 1_555 1_555
H21B C11B 1_555 1_555
H22B C11B 1_555 1_555
C12B C11B 1_555 1_555
H23B C12B 1_555 1_555
H24B C12B 1_555 1_555
C13B C12B 1_555 1_555
H25B C13B 1_555 1_555
H26B C13B 1_555 1_555
C14B C13B 1_555 1_555
H27B C14B 1_555 1_555
H28B C14B 1_555 1_555
C15B C14B 1_555 1_555
H29B C15B 1_555 1_555
H30B C15B 1_555 1_555
C16B C15B 1_555 1_555
H31B C16B 1_555 1_555
H32B C16B 1_555 1_555
C17B C16B 1_555 1_555
H33B C17B 1_555 1_555
H34B C17B 1_555 1_555
C18B C17B 1_555 1_555
H35B C18B 1_555 1_555
H36B C18B 1_555 1_555
H37B C18B 1_555 1_555
S2B O4B 1_555 1_555
O4B Ca1 1_555 1_555
C19B S2B 1_555 1_555
H38B C19B 1_555 1_555
H39B C19B 1_555 1_555
H40B C19B 1_555 1_555
C20B S2B 1_555 1_555
H41B C20B 1_555 1_555
H42B C20B 1_555 1_555
H43B C20B 1_555 1_555

#END
