
#######################################################################
#
#                 Cambridge Crystallographic Data Centre
#                                CCDC 
#
#######################################################################
#
# If this CIF has been generated from an entry in the Cambridge 
# Structural Database, then it will include bibliographic, chemical, 
# crystal, experimental, refinement or atomic coordinate data resulting 
# from the CCDC's data processing and validation procedures.
#
#######################################################################

data_GERKOF
_symmetry_cell_setting           trigonal
_symmetry_space_group_name_H-M   'P 32'
_symmetry_Int_Tables_number      145
_space_group_name_Hall           'P 32'
loop_
_symmetry_equiv_pos_site_id
_symmetry_equiv_pos_as_xyz
1 x,y,z
2 -y,x-y,2/3+z
3 -x+y,-x,1/3+z
_cell_length_a                   11.1272(3)
_cell_length_b                   11.1272(3)
_cell_length_c                   10.5243(4)
_cell_angle_alpha                90
_cell_angle_beta                 90
_cell_angle_gamma                120
_cell_volume                     1128.48
loop_
_atom_site_label
_atom_site_type_symbol
_atom_site_fract_x
_atom_site_fract_y
_atom_site_fract_z
Te1 Te 0.99104(17) 0.14953(15) 0.4904(2)
Hg1 Hg 1.05845(8) -0.00515(9) 0.33188(7)
S1 S 1.2923(5) 0.1391(5) 0.2138(6)
S2 S 1.1404(5) 0.2890(6) 0.1329(6)
C1 C 1.292(2) 0.291(2) 0.1736(16)
N1 N 1.4104(17) 0.4084(18) 0.1702(17)
C2 C 1.540(2) 0.417(3) 0.198(2)
H1 H 1.5255 0.3469 0.2611
H2 H 1.603 0.5068 0.2344
C3 C 1.608(3) 0.395(5) 0.084(3)
H3 H 1.6938 0.4019 0.1081
H4 H 1.6248 0.4653 0.0217
H5 H 1.5472 0.3053 0.0484
C4 C 1.417(2) 0.5399(18) 0.137(2)
H6 H 1.3448 0.5214 0.0762
H7 H 1.5059 0.5999 0.0963
C5 C 1.402(5) 0.614(3) 0.248(3)
H8 H 1.4077 0.6989 0.22
H9 H 1.4753 0.6353 0.3081
H10 H 1.3141 0.5565 0.2881
C6 C 0.541(3) -0.028(5) 0.426(4)
H11 H 0.4636 -0.0652 0.4788
C7 C 0.528(4) -0.005(4) 0.305(5)
H12 H 0.4431 -0.0224 0.2728
C8 C 0.637(4) 0.043(4) 0.230(3)
H13 H 0.6218 0.0403 0.1427
C9 C 0.776(3) 0.099(3) 0.273(3)
H14 H 0.8535 0.152 0.2223
C10 C 0.664(6) 0.002(6) 0.474(4)
H15 H 0.668 -0.0199 0.5581
C11 C 0.783(3) 0.063(6) 0.407(4)
Te1A Te 0.85047(15) -0.15849(23) 0.1571(2)
Hg1A Hg 1.00515(9) 0.06360(12) -0.00145(7)
Hg1B Hg 0.93640(12) -0.05845(8) 0.66521(7)
S2B S 1.1486(8) -0.1404(5) 0.4662(6)
loop_
_geom_bond_atom_site_label_1
_geom_bond_atom_site_label_2
_geom_bond_site_symmetry_1
_geom_bond_site_symmetry_2
Te1 Hg1 1_555 1_555
Hg1 S1 1_555 1_555
S1 C1 1_555 1_555
S2 C1 1_555 1_555
C1 N1 1_555 1_555
N1 C2 1_555 1_555
C2 H1 1_555 1_555
H2 C2 1_555 1_555
C3 C2 1_555 1_555
H3 C3 1_555 1_555
H4 C3 1_555 1_555
H5 C3 1_555 1_555
C4 N1 1_555 1_555
H6 C4 1_555 1_555
H7 C4 1_555 1_555
C5 C4 1_555 1_555
H8 C5 1_555 1_555
H9 C5 1_555 1_555
H10 C5 1_555 1_555
C6 H11 1_555 1_555
C7 C6 1_555 1_555
H12 C7 1_555 1_555
C8 C7 1_555 1_555
H13 C8 1_555 1_555
C9 C8 1_555 1_555
H14 C9 1_555 1_555
C10 C6 1_555 1_555
H15 C10 1_555 1_555
C11 Te1 1_555 1_555
Te1A Hg1 1_555 1_555
Hg1A S2 1_555 1_555
Hg1B Te1 1_555 1_555
S2B Hg1 1_555 1_555
C9 C11 1_555 1_555
C10 C11 1_555 1_555
Te1A Hg1A 1_555 1_555

#END
