
#######################################################################
#
#                 Cambridge Crystallographic Data Centre
#                                CCDC 
#
#######################################################################
#
# If this CIF has been generated from an entry in the Cambridge 
# Structural Database, then it will include bibliographic, chemical, 
# crystal, experimental, refinement or atomic coordinate data resulting 
# from the CCDC's data processing and validation procedures.
#
#######################################################################

data_GERLIA
_symmetry_cell_setting           monoclinic
_symmetry_space_group_name_H-M   'C 2/c'
_symmetry_Int_Tables_number      15
_space_group_name_Hall           '-C 2yn'
loop_
_symmetry_equiv_pos_site_id
_symmetry_equiv_pos_as_xyz
1 x,y,z
2 -x,y,1/2-z
3 1/2+x,1/2+y,z
4 1/2-x,1/2+y,1/2-z
5 -x,-y,-z
6 x,-y,1/2+z
7 1/2-x,1/2-y,-z
8 1/2+x,1/2-y,1/2+z
_cell_length_a                   46.945(5)
_cell_length_b                   4.462(5)
_cell_length_c                   16.246(5)
_cell_angle_alpha                90
_cell_angle_beta                 95.795(5)
_cell_angle_gamma                90
_cell_volume                     3385.64
loop_
_atom_site_label
_atom_site_type_symbol
_atom_site_fract_x
_atom_site_fract_y
_atom_site_fract_z
Hg1 Hg 0.395873(5) -0.32755(5) 0.571076(16)
Te1 Te 0.378968(7) -0.75426(6) 0.66611(2)
S1 S 0.44595(3) -0.0212(3) 0.56523(8)
S2 S 0.39796(3) -0.1029(3) 0.43191(8)
C1 C 0.27822(12) -0.4260(13) 0.6420(4)
N1 N 0.44510(8) 0.1911(8) 0.4128(2)
C2 C 0.33511(10) -0.6229(10) 0.6563(3)
C3 C 0.47969(13) 0.4835(15) 0.3559(4)
H1 H 0.4768 0.6973 0.3617
H2 H 0.4994 0.4496 0.3448
C4 C 0.32482(11) -0.4604(11) 0.7203(3)
C5 C 0.28867(11) -0.5936(13) 0.5812(4)
H3 H 0.2763 -0.6415 0.5348
C6 C 0.47360(10) 0.3235(11) 0.4332(3)
H4 H 0.4878 0.1691 0.4476
H5 H 0.4735 0.4623 0.4791
C7 C 0.24776(13) -0.3097(17) 0.6337(5)
H6 H 0.2381 -0.3743 0.5818
H7 H 0.248 -0.0947 0.6358
H8 H 0.2379 -0.3863 0.6782
C8 C 0.43132(9) 0.0384(9) 0.4652(3)
C9 C 0.32642(12) -0.8793(14) 0.5155(4)
H9 H 0.3463 -0.9292 0.528
H10 H 0.3239 -0.7662 0.4651
H11 H 0.3153 -1.0601 0.5093
C10 C 0.31662(11) -0.6962(11) 0.5847(3)
C11 C 0.29650(12) -0.3640(13) 0.7112(4)
H12 H 0.2897 -0.2535 0.7537
C12 C 0.43414(11) 0.2486(12) 0.3261(3)
H13 H 0.419 0.3971 0.3225
H14 H 0.4269 0.0661 0.299
C13 C 0.34335(14) -0.3829(16) 0.7990(4)
H15 H 0.3622 -0.4631 0.7965
H16 H 0.3351 -0.4673 0.8455
H17 H 0.3445 -0.169 0.805
C14 C 0.45988(15) 0.3631(17) 0.2884(4)
H18 H 0.4689 0.2019 0.2605
H19 H 0.4543 0.5189 0.2482
Hg1_2 Hg 0.395873(5) -1.32755(5) 0.571076(16)
Te1_2 Te 0.378968(7) 0.24574(6) 0.66611(2)
loop_
_geom_bond_atom_site_label_1
_geom_bond_atom_site_label_2
_geom_bond_site_symmetry_1
_geom_bond_site_symmetry_2
Hg1 Te1 1_555 1_555
Te1 C2 1_555 1_555
S1 Hg1 1_555 1_555
S2 Hg1 1_555 1_555
C1 C5 1_555 1_555
N1 C6 1_555 1_555
C2 C4 1_555 1_555
C3 H1 1_555 1_555
H2 C3 1_555 1_555
C4 C11 1_555 1_555
C5 H3 1_555 1_555
C6 C3 1_555 1_555
H4 C6 1_555 1_555
H5 C6 1_555 1_555
C7 C1 1_555 1_555
H6 C7 1_555 1_555
H7 C7 1_555 1_555
H8 C7 1_555 1_555
C8 S1 1_555 1_555
C9 H9 1_555 1_555
H10 C9 1_555 1_555
H11 C9 1_555 1_555
C10 C2 1_555 1_555
C11 C1 1_555 1_555
H12 C11 1_555 1_555
C12 N1 1_555 1_555
H13 C12 1_555 1_555
H14 C12 1_555 1_555
C13 C4 1_555 1_555
H15 C13 1_555 1_555
H16 C13 1_555 1_555
H17 C13 1_555 1_555
C14 C3 1_555 1_555
H18 C14 1_555 1_555
H19 C14 1_555 1_555
Hg1_2 Te1 1_555 1_555
Te1_2 Hg1 1_555 1_555
S2 C8 1_555 1_555
N1 C8 1_555 1_555
C5 C10 1_555 1_555
C9 C10 1_555 1_555
C12 C14 1_555 1_555

#END
