
#######################################################################
#
#                 Cambridge Crystallographic Data Centre
#                                CCDC 
#
#######################################################################
#
# If this CIF has been generated from an entry in the Cambridge 
# Structural Database, then it will include bibliographic, chemical, 
# crystal, experimental, refinement or atomic coordinate data resulting 
# from the CCDC's data processing and validation procedures.
#
#######################################################################

data_GERLEW
_symmetry_cell_setting           triclinic
_symmetry_space_group_name_H-M   'P -1'
_symmetry_Int_Tables_number      2
_space_group_name_Hall           '-P 1'
loop_
_symmetry_equiv_pos_site_id
_symmetry_equiv_pos_as_xyz
1 x,y,z
2 -x,-y,-z
_cell_length_a                   7.3679(3)
_cell_length_b                   10.5031(4)
_cell_length_c                   22.0348(9)
_cell_angle_alpha                81.661(2)
_cell_angle_beta                 88.311(2)
_cell_angle_gamma                73.326(2)
_cell_volume                     1616.08
loop_
_atom_site_label
_atom_site_type_symbol
_atom_site_fract_x
_atom_site_fract_y
_atom_site_fract_z
C1 C 0.7536(7) 0.5726(6) 0.5240(3)
H1 H 0.7781 0.4854 0.5105
H2 H 0.8437 0.5666 0.5563
C2 C 0.7659(10) 0.6782(7) 0.4713(4)
H3 H 0.8813 0.7038 0.4747
H4 H 0.7677 0.6436 0.4327
C3 C 0.6027(9) 0.7930(8) 0.4732(4)
H5 H 0.555 0.831 0.432
H6 H 0.6369 0.8615 0.4917
C4 C 0.4556(8) 0.7474(6) 0.5101(3)
H7 H 0.3946 0.8116 0.5372
H8 H 0.36 0.736 0.4838
C5 C 1.1105(8) 0.9293(6) 0.6846(3)
H9 H 1.2176 0.8518 0.6972
H10 H 1.0729 0.9791 0.7189
C6 C 1.1598(10) 1.0168(7) 0.6302(3)
H11 H 1.1866 1.0943 0.6429
H12 H 1.2702 0.9669 0.6097
C7 C 0.9943(10) 1.0586(7) 0.5895(3)
H13 H 1.033 1.0688 0.547
H14 H 0.911 1.1439 0.5979
C8 C 0.8939(8) 0.9520(6) 0.6009(3)
H15 H 0.7576 0.991 0.5978
H16 H 0.9329 0.8881 0.5719
C9 C 0.4920(7) 0.5571(5) 0.5945(2)
C10 C 0.8860(7) 0.7959(5) 0.6956(2)
C11 C 0.1420(7) 0.2475(5) 0.8362(2)
C12 C 0.1008(7) 0.3313(6) 0.8804(2)
C13 C 0.1714(8) 0.2857(6) 0.9404(3)
H17 H 0.147 0.3432 0.9699
C14 C 0.2779(8) 0.1538(7) 0.9547(3)
H18 H 0.3259 0.1226 0.9944
C15 C 0.3147(8) 0.0677(6) 0.9119(3)
H19 H 0.384 -0.0216 0.9227
C16 C 0.2482(7) 0.1143(6) 0.8526(3)
C17 C 0.3760(9) -0.1027(6) 0.8231(3)
H20 H 0.39 -0.146 0.787
H21 H 0.303 -0.1427 0.8527
H22 H 0.4988 -0.1135 0.8402
C18 C -0.0608(9) 0.5493(6) 0.9066(3)
H23 H -0.1376 0.6349 0.8871
H24 H 0.0511 0.5601 0.9238
H25 H -0.1315 0.5137 0.9385
C19 C 0.6205(6) 0.2923(5) 0.8549(2)
C20 C 0.6604(7) 0.1916(5) 0.8182(2)
C21 C 0.7693(7) 0.0616(5) 0.8407(3)
H26 H 0.7985 -0.0054 0.8157
C22 C 0.8325(7) 0.0348(6) 0.9008(3)
H27 H 0.9075 -0.0509 0.9159
C23 C 0.7874(7) 0.1314(6) 0.9386(3)
H28 H 0.828 0.1106 0.9793
C24 C 0.6806(7) 0.2612(5) 0.9158(2)
C25 C 0.6584(10) 0.3281(7) 1.0152(3)
H29 H 0.6184 0.4081 1.0342
H30 H 0.7901 0.2845 1.0243
H31 H 0.585 0.2686 1.0306
C26 C 0.6161(9) 0.1257(6) 0.7216(3)
H32 H 0.5564 0.1652 0.6825
H33 H 0.5619 0.0564 0.7397
H34 H 0.7495 0.0877 0.7161
N1 N 0.5581(6) 0.6186(4) 0.5455(2)
N2 N 0.9525(6) 0.8880(4) 0.6634(2)
O1 O -0.0085(5) 0.4598(4) 0.86261(17)
O2 O 0.2817(5) 0.0360(4) 0.80735(18)
O3 O 0.5873(5) 0.2257(4) 0.76059(17)
O4 O 0.6314(5) 0.3625(4) 0.95074(17)
S1 S 0.2621(2) 0.62865(16) 0.61555(7)
S2 S 0.6271(2) 0.41331(15) 0.63435(7)
S3 S 0.9704(2) 0.72578(15) 0.76676(7)
S4 S 0.7089(2) 0.74798(15) 0.66330(7)
Te1 Te 0.05253(5) 0.31233(3) 0.742783(16)
Te2 Te 0.47020(4) 0.49479(3) 0.821545(16)
Hg1 Hg 0.28405(3) 0.47531(2) 0.715754(11)
Hg2 Hg 0.74997(3) 0.54466(2) 0.745380(11)
Te1_2 Te 1.05253(5) 0.31233(3) 0.742783(16)
Hg2_2 Hg -0.25003(3) 0.54466(2) 0.745380(11)
loop_
_geom_bond_atom_site_label_1
_geom_bond_atom_site_label_2
_geom_bond_site_symmetry_1
_geom_bond_site_symmetry_2
C1 H1 1_555 1_555
H2 C1 1_555 1_555
C2 C1 1_555 1_555
H3 C2 1_555 1_555
H4 C2 1_555 1_555
C3 C2 1_555 1_555
H5 C3 1_555 1_555
H6 C3 1_555 1_555
C4 C3 1_555 1_555
H7 C4 1_555 1_555
H8 C4 1_555 1_555
C5 H9 1_555 1_555
H10 C5 1_555 1_555
C6 C5 1_555 1_555
H11 C6 1_555 1_555
H12 C6 1_555 1_555
C7 C6 1_555 1_555
H13 C7 1_555 1_555
H14 C7 1_555 1_555
C8 C7 1_555 1_555
H15 C8 1_555 1_555
H16 C8 1_555 1_555
C9 N1 1_555 1_555
C10 N2 1_555 1_555
C11 C12 1_555 1_555
C12 C13 1_555 1_555
C13 H17 1_555 1_555
C14 C13 1_555 1_555
H18 C14 1_555 1_555
C15 C14 1_555 1_555
H19 C15 1_555 1_555
C16 C11 1_555 1_555
C17 H20 1_555 1_555
H21 C17 1_555 1_555
H22 C17 1_555 1_555
C18 H23 1_555 1_555
H24 C18 1_555 1_555
H25 C18 1_555 1_555
C19 C20 1_555 1_555
C20 C21 1_555 1_555
C21 H26 1_555 1_555
C22 C21 1_555 1_555
H27 C22 1_555 1_555
C23 C22 1_555 1_555
H28 C23 1_555 1_555
C24 C19 1_555 1_555
C25 H29 1_555 1_555
H30 C25 1_555 1_555
H31 C25 1_555 1_555
C26 H32 1_555 1_555
H33 C26 1_555 1_555
H34 C26 1_555 1_555
N1 C1 1_555 1_555
N2 C5 1_555 1_555
O1 C12 1_555 1_555
O2 C16 1_555 1_555
O3 C20 1_555 1_555
O4 C24 1_555 1_555
S1 C9 1_555 1_555
S2 C9 1_555 1_555
S3 C10 1_555 1_555
S4 C10 1_555 1_555
Te1 C11 1_555 1_555
Te2 C19 1_555 1_555
Hg1 S1 1_555 1_555
Hg2 S3 1_555 1_555
Te1_2 Hg2 1_555 1_555
Hg2_2 Te1 1_555 1_555
C4 N1 1_555 1_555
C8 N2 1_555 1_555
C15 C16 1_555 1_555
C17 O2 1_555 1_555
C18 O1 1_555 1_555
C23 C24 1_555 1_555
C25 O4 1_555 1_555
C26 O3 1_555 1_555
S2 Hg1 1_555 1_555
S4 Hg2 1_555 1_555
Te1 Hg1 1_555 1_555
Te2 Hg1 1_555 1_555
Te2 Hg2 1_555 1_555

#END
