
#######################################################################
#
#                 Cambridge Crystallographic Data Centre
#                                CCDC 
#
#######################################################################
#
# If this CIF has been generated from an entry in the Cambridge 
# Structural Database, then it will include bibliographic, chemical, 
# crystal, experimental, refinement or atomic coordinate data resulting 
# from the CCDC's data processing and validation procedures.
#
#######################################################################

data_GERMIB
_symmetry_cell_setting           triclinic
_symmetry_space_group_name_H-M   'P -1'
_symmetry_Int_Tables_number      2
_space_group_name_Hall           '-P 1'
loop_
_symmetry_equiv_pos_site_id
_symmetry_equiv_pos_as_xyz
1 x,y,z
2 -x,-y,-z
_cell_length_a                   9.1097(5)
_cell_length_b                   9.5613(5)
_cell_length_c                   14.6922(7)
_cell_angle_alpha                88.285(4)
_cell_angle_beta                 86.169(4)
_cell_angle_gamma                64.289(5)
_cell_volume                     1150.42
loop_
_atom_site_label
_atom_site_type_symbol
_atom_site_fract_x
_atom_site_fract_y
_atom_site_fract_z
Cd1 Cd -0.03843(2) 0.05727(2) 0.877836(14)
C1 C 0.0420(4) 0.2714(4) 0.7218(2)
H1 H -0.0190 0.3463 0.7653
C2 C 0.1083(4) 0.3163(4) 0.6458(2)
H2 H 0.0931 0.4187 0.6393
C3 C 0.1970(4) 0.2084(4) 0.57982(19)
C4 C 0.2134(4) 0.0589(4) 0.5930(2)
H3 H 0.2703 -0.0169 0.5493
C5 C 0.1451(4) 0.0228(4) 0.6712(2)
H4 H 0.1583 -0.0788 0.6791
C6 C 0.2699(4) 0.2540(4) 0.4989(2)
C7 C 0.3546(4) 0.3848(4) 0.4110(2)
C8 C 0.3994(4) 0.5073(4) 0.37432(19)
C9 C 0.3047(5) 0.6586(4) 0.4026(2)
H5 H 0.2143 0.6825 0.4432
C10 C 0.3474(5) 0.7732(5) 0.3692(3)
H6 H 0.2837 0.8742 0.3893
C11 C 0.5633(5) 0.6031(5) 0.2846(2)
H7 H 0.6525 0.5828 0.2437
C12 C 0.5332(4) 0.4793(4) 0.3147(2)
H8 H 0.6017 0.3789 0.2953
C13 C 0.4256(4) 0.2033(5) 0.2746(2)
H9 H 0.5202 0.1034 0.2714
H10 H 0.4541 0.2781 0.2414
C14 C 0.2831(4) 0.0652(4) 0.2063(2)
H11 H 0.3668 -0.0347 0.2089
C15 C 0.0614(4) 0.2580(4) 0.1858(2)
H12 H -0.0448 0.3171 0.1690
C16 C -0.1924(3) 0.3635(3) 0.91796(19)
C17 C -0.7249(3) 0.8363(3) 0.9186(2)
C18 C -0.5577(3) 0.7510(3) 0.95243(18)
C19 C -0.5023(3) 0.8204(3) 1.01410(19)
H13 H -0.5711 0.9187 1.0365
C20 C -0.3448(4) 0.7449(4) 1.0429(2)
C21 C -0.2436(3) 0.5968(4) 1.01118(19)
H14 H -0.1382 0.5453 1.0307
C22 C -0.2993(3) 0.5253(3) 0.95032(19)
C23 C -0.4561(3) 0.6021(3) 0.92110(18)
H15 H -0.4936 0.5539 0.8804
N1 N 0.0609(3) 0.1264(3) 0.73622(16)
N2 N 0.2846(3) 0.3895(3) 0.49355(17)
N3 N 0.3263(4) 0.1655(3) 0.42568(17)
N4 N 0.3806(3) 0.2512(3) 0.36926(16)
N5 N 0.4735(4) 0.7493(4) 0.3102(2)
N6 N 0.2909(3) 0.1923(3) 0.23336(16)
N7 N 0.1485(4) 0.3185(3) 0.2214(2)
N8 N 0.1392(3) 0.1016(3) 0.17535(17)
O1 O -0.0475(2) 0.2981(2) 0.94173(14)
O2 O -0.2515(2) 0.2979(2) 0.86850(14)
O3 O -0.7552(2) 0.8038(3) 0.84320(14)
O4 O -0.8315(2) 0.9447(2) 0.96870(13)
O5 O -0.2947(3) 0.8190(3) 1.10301(15)
H16 H -0.2004 0.7629 1.1152
Cd1A Cd 0.03843(2) -0.05727(2) 0.122164(14)
Cd1_2 Cd -1.03843(2) 1.05727(2) 0.877836(14)
Cd1A_2 Cd -0.96157(2) 0.94273(2) 1.122164(14)
N8A N -0.1392(3) -0.1016(3) 0.82465(17)
O3_2 O 0.2448(2) -0.1962(3) 0.84320(14)
O4_2 O 0.1685(2) -0.0553(2) 0.96870(13)
O4A O -0.1685(2) 0.0553(2) 1.03130(13)
loop_
_geom_bond_atom_site_label_1
_geom_bond_atom_site_label_2
_geom_bond_site_symmetry_1
_geom_bond_site_symmetry_2
Cd1 N1 1_555 1_555
C1 H1 1_555 1_555
C2 C1 1_555 1_555
H2 C2 1_555 1_555
C3 C2 1_555 1_555
C4 C3 1_555 1_555
H3 C4 1_555 1_555
C5 C4 1_555 1_555
H4 C5 1_555 1_555
C6 C3 1_555 1_555
C7 C8 1_555 1_555
C8 C9 1_555 1_555
C9 H5 1_555 1_555
C10 C9 1_555 1_555
H6 C10 1_555 1_555
C11 H7 1_555 1_555
C12 C8 1_555 1_555
H8 C12 1_555 1_555
C13 H9 1_555 1_555
H10 C13 1_555 1_555
C14 H11 1_555 1_555
C15 H12 1_555 1_555
C16 C22 1_555 1_555
C17 C18 1_555 1_555
C18 C19 1_555 1_555
C19 H13 1_555 1_555
C20 C19 1_555 1_555
C21 C20 1_555 1_555
H14 C21 1_555 1_555
C22 C21 1_555 1_555
C23 C18 1_555 1_555
H15 C23 1_555 1_555
N1 C1 1_555 1_555
N2 C6 1_555 1_555
N3 C6 1_555 1_555
N4 C7 1_555 1_555
N5 C10 1_555 1_555
N6 C13 1_555 1_555
N7 C15 1_555 1_555
N8 C14 1_555 1_555
O1 Cd1 1_555 1_555
O2 Cd1 1_555 1_555
O3 C17 1_555 1_555
O4 C17 1_555 1_555
O5 C20 1_555 1_555
H16 O5 1_555 1_555
Cd1A N8 1_555 1_555
Cd1_2 O3 1_555 1_555
Cd1A_2 O4 1_555 1_555
N8A Cd1 1_555 1_555
O3_2 Cd1 1_555 1_555
O4_2 Cd1 1_555 1_555
O4A Cd1 1_555 1_555
C5 N1 1_555 1_555
C7 N2 1_555 1_555
C11 C12 1_555 1_555
C11 N5 1_555 1_555
C13 N4 1_555 1_555
C14 N6 1_555 1_555
C15 N8 1_555 1_555
C16 O1 1_555 1_555
C16 O2 1_555 1_555
C22 C23 1_555 1_555
N3 N4 1_555 1_555
N6 N7 1_555 1_555
O4 Cd1_2 1_555 1_555

#END
