
#######################################################################
#
#                 Cambridge Crystallographic Data Centre
#                                CCDC 
#
#######################################################################
#
# If this CIF has been generated from an entry in the Cambridge 
# Structural Database, then it will include bibliographic, chemical, 
# crystal, experimental, refinement or atomic coordinate data resulting 
# from the CCDC's data processing and validation procedures.
#
#######################################################################

data_GERNEY
_symmetry_cell_setting           monoclinic
_symmetry_space_group_name_H-M   'C 2/c'
_symmetry_Int_Tables_number      15
_space_group_name_Hall           '-C 2yn'
loop_
_symmetry_equiv_pos_site_id
_symmetry_equiv_pos_as_xyz
1 x,y,z
2 -x,y,1/2-z
3 1/2+x,1/2+y,z
4 1/2-x,1/2+y,1/2-z
5 -x,-y,-z
6 x,-y,1/2+z
7 1/2-x,1/2-y,-z
8 1/2+x,1/2-y,1/2+z
_cell_length_a                   35.7465(14)
_cell_length_b                   11.2708(3)
_cell_length_c                   14.9426(6)
_cell_angle_alpha                90
_cell_angle_beta                 106.934(4)
_cell_angle_gamma                90
_cell_volume                     5759.22
loop_
_atom_site_label
_atom_site_type_symbol
_atom_site_fract_x
_atom_site_fract_y
_atom_site_fract_z
Zn1 Zn 0.154742(10) -0.34789(3) 0.42500(2)
Zn2 Zn 0.2500 -0.2500 0.5000
C1 C 0.09089(9) -0.5351(3) 0.3863(2)
H1 H 0.1108 -0.5863 0.3826
C2 C 0.05416(10) -0.5808(3) 0.3737(2)
H2 H 0.0493 -0.6610 0.3610
C3 C 0.02440(10) -0.5057(3) 0.3802(2)
C4 C 0.03276(10) -0.3873(3) 0.3976(3)
H3 H 0.0133 -0.3346 0.4017
C5 C 0.07026(10) -0.3483(3) 0.4089(3)
H4 H 0.0756 -0.2681 0.4207
C6 C -0.01549(9) -0.5526(3) 0.3685(2)
C7 C -0.07626(10) -0.5581(3) 0.3502(2)
C8 C -0.11714(10) -0.5225(4) 0.3402(2)
C9 C -0.12361(11) -0.4201(4) 0.3849(3)
H5 H -0.1028 -0.3747 0.4200
C10 C -0.16176(12) -0.3871(4) 0.3759(3)
H6 H -0.1658 -0.3187 0.4065
C11 C -0.18622(11) -0.5441(4) 0.2832(3)
H7 H -0.2077 -0.5871 0.2481
C12 C -0.14924(10) -0.5854(4) 0.2872(3)
H8 H -0.1461 -0.6536 0.2551
C13 C -0.08055(12) -0.7839(4) 0.3518(3)
H9 H -0.0644 -0.8324 0.4018
H10 H -0.1057 -0.7736 0.3631
C14 C -0.06435(18) -0.9272(5) 0.2420(6)
H11 H -0.0421 -0.9607 0.2829
C15 C -0.11017(19) -0.8868(6) 0.1248(5)
H12 H -0.1267 -0.8889 0.0639
C16 C 0.18207(9) -0.1959(3) 0.5768(2)
C17 C 0.17970(9) -0.0910(3) 0.6360(2)
C18 C 0.14607(9) -0.0220(3) 0.6164(2)
H13 H 0.1251 -0.0396 0.5645
C19 C 0.14346(9) 0.0720(3) 0.6728(2)
H14 H 0.1207 0.1171 0.6589
C20 C 0.17475(9) 0.1003(3) 0.7509(2)
C21 C 0.20877(9) 0.0334(3) 0.7684(2)
H15 H 0.2301 0.0523 0.8191
C22 C 0.21126(10) -0.0606(3) 0.7117(2)
H16 H 0.2343 -0.1042 0.7241
C23 C 0.17134(10) 0.1973(3) 0.8152(2)
C24 C 0.22099(9) -0.5095(3) 0.4713(2)
C25 C 0.23578(9) -0.6341(3) 0.4857(2)
C26 C 0.27521(10) -0.6556(3) 0.5281(3)
H17 H 0.2923 -0.5921 0.5470
C27 C 0.21081(10) -0.7305(3) 0.4577(2)
H18 H 0.1843 -0.7176 0.4291
N1 N 0.09948(7) -0.4200(2) 0.40383(18)
N2 N -0.04717(8) -0.4812(3) 0.3603(2)
N3 N -0.02298(8) -0.6671(3) 0.3637(2)
N4 N -0.06232(8) -0.6695(3) 0.3525(2)
N5 N -0.19294(9) -0.4466(4) 0.3266(2)
N6 N -0.08586(10) -0.8429(3) 0.2651(3)
N7 N -0.11602(12) -0.8156(4) 0.1874(3)
N8 N -0.07885(18) -0.9568(6) 0.1531(5)
O1 O 0.15032(6) -0.2299(2) 0.51905(16)
O2 O 0.21420(6) -0.2445(2) 0.58678(15)
O3 O 0.13892(7) 0.2484(2) 0.80417(16)
O4 O 0.19992(7) 0.2287(2) 0.88154(16)
O5 O 0.18415(6) -0.49472(18) 0.44173(15)
O6 O 0.24603(6) -0.42914(18) 0.49034(16)
Zn1F Zn 0.345258(10) -0.15211(3) 0.57500(2)
Zn1E Zn 0.154742(10) 0.34789(3) 0.92500(2)
Zn1F_2 Zn 0.345258(10) -1.15211(3) 0.57500(2)
Zn1C Zn 0.345258(10) -0.84789(3) 0.07500(2)
Zn2C Zn 0.2500 0.2500 1.0000
Zn2_2 Zn 0.2500 -1.2500 0.5000
Zn2C_2 Zn 0.2500 -0.7500 0.0000
C1F C 0.40911(9) 0.0351(3) 0.6137(2)
H1F H 0.3892 0.0863 0.6174
C2F C 0.44584(10) 0.0808(3) 0.6263(2)
H2F H 0.4507 0.1610 0.6390
C3F C 0.47560(10) 0.0057(3) 0.6198(2)
C4F C 0.46724(10) -0.1127(3) 0.6024(3)
H3F H 0.4867 -0.1654 0.5983
C5F C 0.42974(10) -0.1517(3) 0.5911(3)
H4F H 0.4244 -0.2319 0.5793
C6F C 0.51549(9) 0.0526(3) 0.6315(2)
C7F C 0.57626(10) 0.0581(3) 0.6498(2)
C8F C 0.61714(10) 0.0225(4) 0.6598(2)
C9F C 0.62361(11) -0.0799(4) 0.6151(3)
H5F H 0.6028 -0.1253 0.5800
C10F C 0.66176(12) -0.1129(4) 0.6241(3)
H6F H 0.6658 -0.1813 0.5935
C11F C 0.68622(11) 0.0441(4) 0.7168(3)
H7F H 0.7077 0.0871 0.7519
C12F C 0.64924(10) 0.0854(4) 0.7128(3)
H8F H 0.6461 0.1536 0.7449
C13F C 0.58055(12) 0.2839(4) 0.6482(3)
H9F H 0.5644 0.3324 0.5982
H10F H 0.6057 0.2736 0.6369
C14F C 0.56435(18) 0.4272(5) 0.7580(6)
H11F H 0.5421 0.4607 0.7171
C15F C 0.61017(19) 0.3868(6) 0.8752(5)
H12F H 0.6267 0.3889 0.9361
C16F C 0.31793(9) -0.3041(3) 0.4232(2)
C17F C 0.32030(9) -0.4090(3) 0.3640(2)
C18F C 0.35393(9) -0.4780(3) 0.3836(2)
H13F H 0.3749 -0.4604 0.4355
C19F C 0.35654(9) -0.5720(3) 0.3272(2)
H14F H 0.3793 -0.6171 0.3411
C20F C 0.32525(9) -0.6003(3) 0.2491(2)
C21F C 0.29123(9) -0.5334(3) 0.2316(2)
H15F H 0.2699 -0.5523 0.1809
C22F C 0.28874(10) -0.4394(3) 0.2883(2)
H16F H 0.2657 -0.3958 0.2759
C23F C 0.32866(10) -0.6973(3) 0.1848(2)
C24F C 0.27901(9) -0.9905(3) 0.5287(2)
C25F C 0.26422(9) -0.8659(3) 0.5143(2)
C26F C 0.22479(10) -0.8444(3) 0.4719(3)
H17F H 0.2077 -0.9079 0.4530
C27F C 0.28919(10) -0.7695(3) 0.5423(2)
H18F H 0.3157 -0.7824 0.5709
N1F N 0.40052(7) -0.0800(2) 0.59617(18)
N2F N 0.54717(8) -0.0188(3) 0.6397(2)
N3F N 0.52298(8) 0.1671(3) 0.6363(2)
N4F N 0.56232(8) 0.1695(3) 0.6475(2)
N5F N 0.69294(9) -0.0534(4) 0.6734(2)
N6F N 0.58586(10) 0.3429(3) 0.7349(3)
N7F N 0.61602(12) 0.3156(4) 0.8126(3)
N8F N 0.57885(18) 0.4568(6) 0.8469(5)
O1F O 0.34968(6) -0.2701(2) 0.48095(16)
O2F O 0.28580(6) -0.2555(2) 0.41322(15)
O3F O 0.36108(7) -0.7484(2) 0.19583(16)
O3E O 0.13892(7) -0.2484(2) 0.30417(16)
O3C O 0.36108(7) -0.2516(2) 0.69583(16)
O4F O 0.30008(7) -0.7287(2) 0.11846(16)
O4E O 0.19992(7) -0.2287(2) 0.38154(16)
O4C O 0.30008(7) -0.2713(2) 0.61846(16)
O5F O 0.31585(6) -1.00528(18) 0.55827(15)
O5F_2 O 0.31585(6) -0.00528(18) 0.55827(15)
O6F O 0.25397(6) -1.07086(18) 0.50966(16)
O6F_2 O 0.25397(6) -0.07086(18) 0.50966(16)
O7 O 0.05964(9) 0.2355(3) 0.6959(3)
H19 H 0.0821 0.2513 0.7329
H20 H 0.0472 0.3004 0.6823
O8 O -0.0363(2) -1.0632(6) 0.0334(5)
O9 O 0.0000 0.1258(7) 0.7500
O10 O 0.0459(5) 0.1687(16) 0.5192(12)
H21 H 0.0492 0.1930 0.5748
H22 H 0.0283 0.2115 0.4831
loop_
_geom_bond_atom_site_label_1
_geom_bond_atom_site_label_2
_geom_bond_site_symmetry_1
_geom_bond_site_symmetry_2
Zn1 N1 1_555 1_555
Zn2 O2 1_555 1_555
C1 H1 1_555 1_555
C2 C1 1_555 1_555
H2 C2 1_555 1_555
C3 C2 1_555 1_555
C4 C3 1_555 1_555
H3 C4 1_555 1_555
C5 C4 1_555 1_555
H4 C5 1_555 1_555
C6 C3 1_555 1_555
C7 C8 1_555 1_555
C8 C9 1_555 1_555
C9 H5 1_555 1_555
C10 C9 1_555 1_555
H6 C10 1_555 1_555
C11 H7 1_555 1_555
C12 C8 1_555 1_555
H8 C12 1_555 1_555
C13 H9 1_555 1_555
H10 C13 1_555 1_555
C14 H11 1_555 1_555
C15 H12 1_555 1_555
C16 C17 1_555 1_555
C17 C18 1_555 1_555
C18 H13 1_555 1_555
C19 C18 1_555 1_555
H14 C19 1_555 1_555
C20 C19 1_555 1_555
C21 C20 1_555 1_555
H15 C21 1_555 1_555
C22 C17 1_555 1_555
H16 C22 1_555 1_555
C23 C20 1_555 1_555
C24 C25 1_555 1_555
C25 C26 1_555 1_555
C26 H17 1_555 1_555
C27 C25 1_555 1_555
H18 C27 1_555 1_555
N1 C1 1_555 1_555
N2 C6 1_555 1_555
N3 C6 1_555 1_555
N4 C7 1_555 1_555
N5 C10 1_555 1_555
N6 C13 1_555 1_555
N7 C15 1_555 1_555
N8 C14 1_555 1_555
O1 Zn1 1_555 1_555
O2 C16 1_555 1_555
O3 C23 1_555 1_555
O4 C23 1_555 1_555
O5 Zn1 1_555 1_555
O6 Zn2 1_555 1_555
O7 H19 1_555 1_555
H20 O7 1_555 1_555
O10 H21 1_555 1_555
H22 O10 1_555 1_555
Zn1F N1F 1_555 1_555
Zn1E O3 1_555 1_555
Zn1F_2 O5F 1_555 1_555
Zn1C O3F 1_555 1_555
Zn2C O4 1_555 1_555
Zn2_2 O6F 1_555 1_555
Zn2C_2 O4F 1_555 1_555
C1F H1F 1_555 1_555
C2F C1F 1_555 1_555
H2F C2F 1_555 1_555
C3F C2F 1_555 1_555
C4F C3F 1_555 1_555
H3F C4F 1_555 1_555
C5F C4F 1_555 1_555
H4F C5F 1_555 1_555
C6F C3F 1_555 1_555
C7F C8F 1_555 1_555
C8F C9F 1_555 1_555
C9F H5F 1_555 1_555
C10F C9F 1_555 1_555
H6F C10F 1_555 1_555
C11F H7F 1_555 1_555
C12F C8F 1_555 1_555
H8F C12F 1_555 1_555
C13F H9F 1_555 1_555
H10F C13F 1_555 1_555
C14F H11F 1_555 1_555
C15F H12F 1_555 1_555
C16F C17F 1_555 1_555
C17F C18F 1_555 1_555
C18F H13F 1_555 1_555
C19F C18F 1_555 1_555
H14F C19F 1_555 1_555
C20F C19F 1_555 1_555
C21F C20F 1_555 1_555
H15F C21F 1_555 1_555
C22F C17F 1_555 1_555
H16F C22F 1_555 1_555
C23F C20F 1_555 1_555
C24F C25F 1_555 1_555
C25F C26F 1_555 1_555
C26F C27 1_555 1_555
H17F C26F 1_555 1_555
C27F C26 1_555 1_555
H18F C27F 1_555 1_555
N1F C1F 1_555 1_555
N2F C6F 1_555 1_555
N3F C6F 1_555 1_555
N4F C7F 1_555 1_555
N5F C10F 1_555 1_555
N6F C13F 1_555 1_555
N7F C15F 1_555 1_555
N8F C14F 1_555 1_555
O1F Zn1F 1_555 1_555
O2F Zn2 1_555 1_555
O3F C23F 1_555 1_555
O3E Zn1 1_555 1_555
O3C Zn1F 1_555 1_555
O4F Zn1C 1_555 1_555
O4E Zn1 1_555 1_555
O4C Zn2 1_555 1_555
O5F C24F 1_555 1_555
O5F_2 Zn1F 1_555 1_555
O6F C24F 1_555 1_555
O6F_2 Zn2 1_555 1_555
Zn2 O4E 1_555 1_555
C5 N1 1_555 1_555
C7 N2 1_555 1_555
C11 C12 1_555 1_555
C11 N5 1_555 1_555
C13 N4 1_555 1_555
C14 N6 1_555 1_555
C15 N8 1_555 1_555
C16 O1 1_555 1_555
C21 C22 1_555 1_555
C24 O5 1_555 1_555
C24 O6 1_555 1_555
N3 N4 1_555 1_555
N6 N7 1_555 1_555
O4 Zn1E 1_555 1_555
Zn1F O4C 1_555 1_555
C5F N1F 1_555 1_555
C7F N2F 1_555 1_555
C11F C12F 1_555 1_555
C11F N5F 1_555 1_555
C13F N4F 1_555 1_555
C14F N6F 1_555 1_555
C15F N8F 1_555 1_555
C16F O1F 1_555 1_555
C16F O2F 1_555 1_555
C21F C22F 1_555 1_555
C23F O4F 1_555 1_555
C25F C27F 1_555 1_555
N3F N4F 1_555 1_555
N6F N7F 1_555 1_555

#END
