
#######################################################################
#
#                 Cambridge Crystallographic Data Centre
#                                CCDC 
#
#######################################################################
#
# If this CIF has been generated from an entry in the Cambridge 
# Structural Database, then it will include bibliographic, chemical, 
# crystal, experimental, refinement or atomic coordinate data resulting 
# from the CCDC's data processing and validation procedures.
#
#######################################################################

data_GERNAU
_symmetry_cell_setting           monoclinic
_symmetry_space_group_name_H-M   'P 21/n'
_symmetry_Int_Tables_number      14
_space_group_name_Hall           '-P 2yn'
loop_
_symmetry_equiv_pos_site_id
_symmetry_equiv_pos_as_xyz
1 x,y,z
2 1/2-x,1/2+y,1/2-z
3 -x,-y,-z
4 1/2+x,1/2-y,1/2+z
_cell_length_a                   10.1516(4)
_cell_length_b                   16.5563(7)
_cell_length_c                   13.2469(5)
_cell_angle_alpha                90
_cell_angle_beta                 98.846(4)
_cell_angle_gamma                90
_cell_volume                     2199.96
loop_
_atom_site_label
_atom_site_type_symbol
_atom_site_fract_x
_atom_site_fract_y
_atom_site_fract_z
Zn1 Zn 0.42756(3) 0.11247(2) 0.51135(2)
C1 C 0.0490(3) -0.20951(19) 0.0329(2)
H1 H -0.0124 -0.2278 0.0730
C2 C 0.0856(3) -0.12925(18) 0.0397(2)
H2 H 0.0500 -0.0947 0.0838
C3 C 0.1762(3) -0.10099(17) -0.0201(2)
C4 C 0.2250(3) -0.15489(19) -0.0851(2)
H3 H 0.2852 -0.1379 -0.1270
C5 C 0.1832(3) -0.23394(19) -0.0869(2)
H4 H 0.2165 -0.2695 -0.1311
C6 C 0.2238(3) -0.01698(18) -0.0151(2)
C7 C 0.3241(3) 0.08719(18) -0.0533(2)
C8 C 0.4038(3) 0.14352(18) -0.1057(2)
C9 C 0.3774(3) 0.22516(18) -0.1167(2)
H5 H 0.3072 0.2485 -0.0896
C10 C 0.4585(3) 0.2715(2) -0.1695(2)
H6 H 0.4408 0.3265 -0.1760
C11 C 0.5817(3) 0.1635(2) -0.2004(3)
H7 H 0.6518 0.1415 -0.2289
C12 C 0.5071(3) 0.1121(2) -0.1497(2)
H8 H 0.5263 0.0571 -0.1453
C13 C 0.2828(3) 0.16921(18) 0.1024(2)
H9 H 0.3303 0.2128 0.0748
H10 H 0.1964 0.1895 0.1132
C14 C 0.3229(3) 0.14451(17) 0.2906(2)
H11 H 0.2430 0.1649 0.3059
C15 C 0.5122(3) 0.0913(2) 0.2993(2)
H12 H 0.5921 0.0665 0.3262
C16 C 0.6973(3) 0.10536(17) 0.5569(2)
C17 C 1.1842(3) 0.08674(18) 0.5485(2)
C18 C 0.8322(3) 0.07563(17) 0.6067(2)
C19 C 0.8485(3) 0.02892(18) 0.6946(2)
H13 H 0.7747 0.0153 0.7249
C20 C 0.9734(3) 0.00268(19) 0.7371(2)
H14 H 0.9839 -0.0274 0.7971
C21 C 1.0838(3) 0.02074(19) 0.6911(2)
H15 H 1.1677 0.0020 0.7196
C22 C 1.0687(3) 0.06681(17) 0.6026(2)
C23 C 0.9434(3) 0.09404(17) 0.5618(2)
H16 H 0.9331 0.1254 0.5029
N1 N 0.0974(2) -0.26252(15) -0.02866(17)
N2 N 0.2985(2) 0.01244(15) -0.08379(17)
N3 N 0.2006(2) 0.03483(15) 0.05591(18)
N4 N 0.2651(2) 0.10246(14) 0.03040(17)
N5 N 0.5599(3) 0.24244(19) -0.2111(2)
N6 N 0.3572(2) 0.14251(15) 0.19864(17)
N7 N 0.4801(3) 0.10830(18) 0.20196(19)
N8 N 0.4190(2) 0.11317(14) 0.35748(17)
O1 O 0.59621(17) 0.06681(13) 0.57947(14)
O2 O 0.68892(19) 0.16285(13) 0.49762(17)
O3 O 1.1654(2) 0.12477(14) 0.46821(16)
O4 O 1.30075(17) 0.06429(13) 0.59195(15)
Zn1_2 Zn 1.42756(3) 0.11247(2) 0.51135(2)
Zn1A Zn 0.07244(3) -0.38753(2) -0.01135(2)
N1A N 0.4026(2) 0.23748(15) 0.52866(17)
O4_2 O 0.30075(17) 0.06429(13) 0.59195(15)
loop_
_geom_bond_atom_site_label_1
_geom_bond_atom_site_label_2
_geom_bond_site_symmetry_1
_geom_bond_site_symmetry_2
Zn1 N8 1_555 1_555
C1 H1 1_555 1_555
C2 C1 1_555 1_555
H2 C2 1_555 1_555
C3 C2 1_555 1_555
C4 C3 1_555 1_555
H3 C4 1_555 1_555
C5 C4 1_555 1_555
H4 C5 1_555 1_555
C6 C3 1_555 1_555
C7 C8 1_555 1_555
C8 C9 1_555 1_555
C9 H5 1_555 1_555
C10 C9 1_555 1_555
H6 C10 1_555 1_555
C11 H7 1_555 1_555
C12 C8 1_555 1_555
H8 C12 1_555 1_555
C13 H9 1_555 1_555
H10 C13 1_555 1_555
C14 H11 1_555 1_555
C15 H12 1_555 1_555
C16 C18 1_555 1_555
C17 C22 1_555 1_555
C18 C19 1_555 1_555
C19 H13 1_555 1_555
C20 C19 1_555 1_555
H14 C20 1_555 1_555
C21 C20 1_555 1_555
H15 C21 1_555 1_555
C22 C21 1_555 1_555
C23 C18 1_555 1_555
H16 C23 1_555 1_555
N1 C1 1_555 1_555
N2 C6 1_555 1_555
N3 C6 1_555 1_555
N4 C7 1_555 1_555
N5 C10 1_555 1_555
N6 C13 1_555 1_555
N7 C15 1_555 1_555
N8 C14 1_555 1_555
O1 Zn1 1_555 1_555
O2 C16 1_555 1_555
O3 C17 1_555 1_555
O4 C17 1_555 1_555
Zn1_2 O4 1_555 1_555
Zn1A N1 1_555 1_555
N1A Zn1 1_555 1_555
O4_2 Zn1 1_555 1_555
C5 N1 1_555 1_555
C7 N2 1_555 1_555
C11 C12 1_555 1_555
C11 N5 1_555 1_555
C13 N4 1_555 1_555
C14 N6 1_555 1_555
C15 N8 1_555 1_555
C16 O1 1_555 1_555
C22 C23 1_555 1_555
N3 N4 1_555 1_555
N6 N7 1_555 1_555

#END
