
#######################################################################
#
#                 Cambridge Crystallographic Data Centre
#                                CCDC 
#
#######################################################################
#
# If this CIF has been generated from an entry in the Cambridge 
# Structural Database, then it will include bibliographic, chemical, 
# crystal, experimental, refinement or atomic coordinate data resulting 
# from the CCDC's data processing and validation procedures.
#
#######################################################################

data_GERPID02
_symmetry_cell_setting           triclinic
_symmetry_space_group_name_H-M   'P -1'
_symmetry_Int_Tables_number      2
_space_group_name_Hall           '-P 1'
loop_
_symmetry_equiv_pos_site_id
_symmetry_equiv_pos_as_xyz
1 x,y,z
2 -x,-y,-z
_cell_length_a                   7.7449(6)
_cell_length_b                   8.9286(8)
_cell_length_c                   10.7422(8)
_cell_angle_alpha                80.945(1)
_cell_angle_beta                 70.211(1)
_cell_angle_gamma                78.141(1)
_cell_volume                     680.932
loop_
_atom_site_label
_atom_site_type_symbol
_atom_site_fract_x
_atom_site_fract_y
_atom_site_fract_z
Zn1 Zn 0.18311(2) 0.632603(18) 0.282159(15)
O1 O -0.07100(15) 0.71292(13) 0.39635(11)
O2 O -0.1213(2) 0.85151(17) 0.21780(12)
O3 O -0.44427(18) 0.64094(15) 0.35929(16)
O4 O -0.69194(17) 0.79433(13) 0.32091(12)
O5 O 0.2703(2) 0.47473(17) 0.41734(16)
N1 N 0.14293(19) 0.44010(15) 0.20043(13)
N2 N 0.28884(17) 0.68740(14) 0.07731(12)
C1 C 0.0723(3) 0.3156(2) 0.26967(18)
H1 H 0.0328 0.3096 0.3620
C2 C 0.0562(3) 0.1958(2) 0.2090(2)
H2 H 0.0082 0.1103 0.2596
C3 C 0.1126(3) 0.2054(2) 0.07191(19)
H3 H 0.0997 0.1276 0.0290
C4 C 0.1886(2) 0.33162(19) -0.00100(17)
H4 H 0.2293 0.3393 -0.0934
C5 C 0.2029(2) 0.44739(17) 0.06672(15)
C6 C 0.2838(2) 0.58724(17) -0.00268(14)
C7 C 0.3495(2) 0.6158(2) -0.14040(16)
H5 H 0.3495 0.5441 -0.1945
C8 C 0.4149(3) 0.7521(2) -0.19568(17)
H6 H 0.4587 0.7733 -0.2875
C9 C 0.4148(3) 0.8567(2) -0.11341(18)
H7 H 0.4556 0.9500 -0.1486
C10 C 0.3524(2) 0.81905(19) 0.02246(17)
H8 H 0.3548 0.8880 0.0781
C11 C -0.32437(19) 1.01033(16) 0.50040(14)
H9 H -0.2066 1.0166 0.5016
C12 C -0.34337(19) 0.90313(15) 0.42644(13)
C13 C -0.52182(19) 0.89165(15) 0.42736(13)
C14 C -0.16812(19) 0.81506(16) 0.33709(14)
C15 C -0.5523(2) 0.76537(17) 0.36213(14)
H10 H 0.206(4) 0.416(3) 0.479(3)
H11 H 0.347(4) 0.491(3) 0.434(3)
Zn1A Zn -1.18311(2) 1.367397(18) 0.717841(15)
Zn1_2 Zn -0.81689(2) 0.632603(18) 0.282159(15)
Zn1A_2 Zn -0.18311(2) 1.367397(18) 0.717841(15)
O1A O -0.92900(15) 1.28708(13) 0.60365(11)
O2A O -0.8787(2) 1.14849(17) 0.78220(12)
O3A O -0.55573(18) 1.35906(15) 0.64071(16)
O4A O -0.30806(17) 1.20567(13) 0.67909(12)
O4_2 O 0.30806(17) 0.79433(13) 0.32091(12)
O4A_2 O -1.30806(17) 1.20567(13) 0.67909(12)
O5A O -1.2703(2) 1.52527(17) 0.58266(16)
N1A N -1.14293(19) 1.55990(15) 0.79957(13)
N2A N -1.28884(17) 1.31260(14) 0.92269(12)
C1A C -1.0723(3) 1.6844(2) 0.73033(18)
H1A H -1.0328 1.6904 0.6380
C2A C -1.0562(3) 1.8042(2) 0.7910(2)
H2A H -1.0082 1.8897 0.7404
C3A C -1.1126(3) 1.7946(2) 0.92809(19)
H3A H -1.0997 1.8724 0.9710
C4A C -1.1886(2) 1.66838(19) 1.00100(17)
H4A H -1.2293 1.6607 1.0934
C5A C -1.2029(2) 1.55261(17) 0.93328(15)
C6A C -1.2838(2) 1.41276(17) 1.00268(14)
C7A C -1.3495(2) 1.3842(2) 1.14040(16)
H5A H -1.3495 1.4559 1.1945
C8A C -1.4149(3) 1.2479(2) 1.19568(17)
H6A H -1.4587 1.2267 1.2875
C9A C -1.4148(3) 1.1433(2) 1.11341(18)
H7A H -1.4556 1.0500 1.1486
C10A C -1.3524(2) 1.18095(19) 0.97754(17)
H8A H -1.3548 1.1120 0.9219
C11A C -0.67563(19) 0.98967(16) 0.49960(14)
H9A H -0.7934 0.9834 0.4984
C12A C -0.65663(19) 1.09687(15) 0.57356(13)
C13A C -0.47818(19) 1.10835(15) 0.57264(13)
C14A C -0.83188(19) 1.18494(16) 0.66291(14)
C15A C -0.4477(2) 1.23463(17) 0.63787(14)
H10A H -1.206(4) 1.584(3) 0.521(3)
H11A H -1.347(4) 1.509(3) 0.566(3)
loop_
_geom_bond_atom_site_label_1
_geom_bond_atom_site_label_2
_geom_bond_site_symmetry_1
_geom_bond_site_symmetry_2
Zn1 O1 1_555 1_555
O1 C14 1_555 1_555
O2 C14 1_555 1_555
O3 C15 1_555 1_555
O4 C15 1_555 1_555
O5 Zn1 1_555 1_555
N1 Zn1 1_555 1_555
N2 Zn1 1_555 1_555
C1 N1 1_555 1_555
H1 C1 1_555 1_555
C2 C1 1_555 1_555
H2 C2 1_555 1_555
C3 C2 1_555 1_555
H3 C3 1_555 1_555
C4 C3 1_555 1_555
H4 C4 1_555 1_555
C5 N1 1_555 1_555
C6 N2 1_555 1_555
C7 C6 1_555 1_555
H5 C7 1_555 1_555
C8 C7 1_555 1_555
H6 C8 1_555 1_555
C9 C8 1_555 1_555
H7 C9 1_555 1_555
C10 N2 1_555 1_555
H8 C10 1_555 1_555
C11 H9 1_555 1_555
C12 C11 1_555 1_555
C13 C12 1_555 1_555
C14 C12 1_555 1_555
C15 C13 1_555 1_555
H10 O5 1_555 1_555
H11 O5 1_555 1_555
Zn1A O1A 1_555 1_555
Zn1_2 O4 1_555 1_555
Zn1A_2 O4A 1_555 1_555
O1A C14A 1_555 1_555
O2A C14A 1_555 1_555
O3A C15A 1_555 1_555
O4A C15A 1_555 1_555
O4_2 Zn1 1_555 1_555
O4A_2 Zn1A 1_555 1_555
O5A Zn1A 1_555 1_555
N1A Zn1A 1_555 1_555
N2A Zn1A 1_555 1_555
C1A N1A 1_555 1_555
H1A C1A 1_555 1_555
C2A C1A 1_555 1_555
H2A C2A 1_555 1_555
C3A C2A 1_555 1_555
H3A C3A 1_555 1_555
C4A C3A 1_555 1_555
H4A C4A 1_555 1_555
C5A N1A 1_555 1_555
C6A N2A 1_555 1_555
C7A C6A 1_555 1_555
H5A C7A 1_555 1_555
C8A C7A 1_555 1_555
H6A C8A 1_555 1_555
C9A C8A 1_555 1_555
H7A C9A 1_555 1_555
C10A N2A 1_555 1_555
H8A C10A 1_555 1_555
C11A C13 1_555 1_555
H9A C11A 1_555 1_555
C12A C11A 1_555 1_555
C13A C11 1_555 1_555
C14A C12A 1_555 1_555
C15A C13A 1_555 1_555
H10A O5A 1_555 1_555
H11A O5A 1_555 1_555
C4 C5 1_555 1_555
C5 C6 1_555 1_555
C9 C10 1_555 1_555
C4A C5A 1_555 1_555
C5A C6A 1_555 1_555
C9A C10A 1_555 1_555
C12A C13A 1_555 1_555

#END
