
#######################################################################
#
#                 Cambridge Crystallographic Data Centre
#                                CCDC 
#
#######################################################################
#
# If this CIF has been generated from an entry in the Cambridge 
# Structural Database, then it will include bibliographic, chemical, 
# crystal, experimental, refinement or atomic coordinate data resulting 
# from the CCDC's data processing and validation procedures.
#
#######################################################################

data_GERPID
_symmetry_cell_setting           triclinic
_symmetry_space_group_name_H-M   'P -1'
_symmetry_Int_Tables_number      2
_space_group_name_Hall           '-P 1'
loop_
_symmetry_equiv_pos_site_id
_symmetry_equiv_pos_as_xyz
1 x,y,z
2 -x,-y,-z
_cell_length_a                   7.7086(15)
_cell_length_b                   8.9113(18)
_cell_length_c                   10.698(2)
_cell_angle_alpha                80.70(3)
_cell_angle_beta                 70.60(3)
_cell_angle_gamma                77.94(3)
_cell_volume                     674.466
loop_
_atom_site_label
_atom_site_type_symbol
_atom_site_fract_x
_atom_site_fract_y
_atom_site_fract_z
Zn1 Zn 0.68166(3) -0.36680(2) -0.21803(2)
O1 O 0.4262(2) -0.2906(2) -0.10316(16)
O2 O -0.1983(3) -0.2038(2) -0.17705(18)
C1 C 0.1555(3) -0.0975(2) -0.07350(19)
C2 C 0.3308(3) -0.1859(2) -0.1618(2)
O3 O 0.7736(3) -0.5255(2) -0.0846(2)
C3 C -0.0235(3) -0.1071(2) -0.07320(19)
N1 N 0.7876(2) -0.3128(2) -0.42253(17)
C4 C 0.7830(3) -0.4128(2) -0.5023(2)
N2 N 0.6410(3) -0.5583(2) -0.29976(19)
C5 C 0.1769(3) 0.0089(2) 0.00100(19)
O4 O 0.3803(3) -0.1465(2) -0.28096(17)
C6 C 0.7025(3) -0.5520(2) -0.4335(2)
C7 C 0.8493(4) -0.3849(3) -0.6397(2)
H1 H 0.8503 -0.4574 -0.6937
C8 C 0.6893(3) -0.6682(3) -0.5010(2)
H2 H 0.7313 -0.6612 -0.5936
C9 C 0.6123(4) -0.7941(3) -0.4277(3)
H3 H 0.5990 -0.8721 -0.4703
C10 C 0.9139(4) -0.1434(3) -0.6128(2)
H4 H 0.9549 -0.0500 -0.6480
C11 C 0.5698(4) -0.6828(3) -0.2302(2)
H5 H 0.5284 -0.6885 -0.1377
C12 C 0.9138(4) -0.2487(3) -0.6956(2)
H6 H 0.9568 -0.2274 -0.7877
C13 C 0.5560(4) -0.8025(3) -0.2915(3)
H7 H 0.5089 -0.8885 -0.2407
O5 O 0.0544(3) -0.3571(2) -0.1438(2)
C14 C -0.0557(3) -0.2332(2) -0.1377(2)
C15 C 0.8512(4) -0.1817(3) -0.4765(2)
H8 H 0.8535 -0.1131 -0.4204
H9 H 0.720(4) -0.583(3) -0.028(2)
H10 H 0.856(4) -0.507(4) -0.064(4)
Zn1A Zn -0.68166(3) 0.36680(2) 0.21803(2)
Zn1_2 Zn -0.31834(3) -0.36680(2) -0.21803(2)
Zn1A_2 Zn 0.31834(3) 0.36680(2) 0.21803(2)
O1A O -0.4262(2) 0.2906(2) 0.10316(16)
O2A O 0.1983(3) 0.2038(2) 0.17705(18)
O2_2 O 0.8017(3) -0.2038(2) -0.17705(18)
O2A_2 O -0.8017(3) 0.2038(2) 0.17705(18)
C1A C -0.1555(3) 0.0975(2) 0.07350(19)
C2A C -0.3308(3) 0.1859(2) 0.1618(2)
O3A O -0.7736(3) 0.5255(2) 0.0846(2)
C3A C 0.0235(3) 0.1071(2) 0.07320(19)
N1A N -0.7876(2) 0.3128(2) 0.42253(17)
C4A C -0.7830(3) 0.4128(2) 0.5023(2)
N2A N -0.6410(3) 0.5583(2) 0.29976(19)
C5A C -0.1769(3) -0.0089(2) -0.00100(19)
O4A O -0.3803(3) 0.1465(2) 0.28096(17)
C6A C -0.7025(3) 0.5520(2) 0.4335(2)
C7A C -0.8493(4) 0.3849(3) 0.6397(2)
H1A H -0.8503 0.4574 0.6937
C8A C -0.6893(3) 0.6682(3) 0.5010(2)
H2A H -0.7313 0.6612 0.5936
C9A C -0.6123(4) 0.7941(3) 0.4277(3)
H3A H -0.5990 0.8721 0.4703
C10A C -0.9139(4) 0.1434(3) 0.6128(2)
H4A H -0.9549 0.0500 0.6480
C11A C -0.5698(4) 0.6828(3) 0.2302(2)
H5A H -0.5284 0.6885 0.1377
C12A C -0.9138(4) 0.2487(3) 0.6956(2)
H6A H -0.9568 0.2274 0.7877
C13A C -0.5560(4) 0.8025(3) 0.2915(3)
H7A H -0.5089 0.8885 0.2407
O5A O -0.0544(3) 0.3571(2) 0.1438(2)
C14A C 0.0557(3) 0.2332(2) 0.1377(2)
C15A C -0.8512(4) 0.1817(3) 0.4765(2)
H8A H -0.8535 0.1131 0.4204
H9A H -0.720(4) 0.583(3) 0.028(2)
H10A H -0.856(4) 0.507(4) 0.064(4)
loop_
_geom_bond_atom_site_label_1
_geom_bond_atom_site_label_2
_geom_bond_site_symmetry_1
_geom_bond_site_symmetry_2
Zn1 O1 1_555 1_555
O1 C2 1_555 1_555
O2 C14 1_555 1_555
C1 C2 1_555 1_555
C2 O4 1_555 1_555
O3 Zn1 1_555 1_555
C3 C1 1_555 1_555
N1 Zn1 1_555 1_555
C4 N1 1_555 1_555
N2 Zn1 1_555 1_555
C5 C1 1_555 1_555
C6 C4 1_555 1_555
C7 C4 1_555 1_555
H1 C7 1_555 1_555
C8 C6 1_555 1_555
H2 C8 1_555 1_555
C9 C8 1_555 1_555
H3 C9 1_555 1_555
C10 H4 1_555 1_555
C11 N2 1_555 1_555
H5 C11 1_555 1_555
C12 C7 1_555 1_555
H6 C12 1_555 1_555
C13 C9 1_555 1_555
H7 C13 1_555 1_555
O5 C14 1_555 1_555
C14 C3 1_555 1_555
C15 N1 1_555 1_555
H8 C15 1_555 1_555
H9 O3 1_555 1_555
H10 O3 1_555 1_555
Zn1A O1A 1_555 1_555
Zn1_2 O2 1_555 1_555
Zn1A_2 O2A 1_555 1_555
O1A C2A 1_555 1_555
O2A C14A 1_555 1_555
O2_2 Zn1 1_555 1_555
O2A_2 Zn1A 1_555 1_555
C1A C2A 1_555 1_555
C2A O4A 1_555 1_555
O3A Zn1A 1_555 1_555
C3A C5 1_555 1_555
N1A Zn1A 1_555 1_555
C4A N1A 1_555 1_555
N2A Zn1A 1_555 1_555
C5A C3 1_555 1_555
C6A C4A 1_555 1_555
C7A C4A 1_555 1_555
H1A C7A 1_555 1_555
C8A C6A 1_555 1_555
H2A C8A 1_555 1_555
C9A C8A 1_555 1_555
H3A C9A 1_555 1_555
C10A H4A 1_555 1_555
C11A N2A 1_555 1_555
H5A C11A 1_555 1_555
C12A C7A 1_555 1_555
H6A C12A 1_555 1_555
C13A C9A 1_555 1_555
H7A C13A 1_555 1_555
O5A C14A 1_555 1_555
C14A C3A 1_555 1_555
C15A N1A 1_555 1_555
H8A C15A 1_555 1_555
H9A O3A 1_555 1_555
H10A O3A 1_555 1_555
N2 C6 1_555 1_555
C10 C12 1_555 1_555
C10 C15 1_555 1_555
C11 C13 1_555 1_555
C1A C3A 1_555 1_555
C1A C5A 1_555 1_555
N2A C6A 1_555 1_555
C10A C12A 1_555 1_555
C10A C15A 1_555 1_555
C11A C13A 1_555 1_555

#END
