
#######################################################################
#
#                 Cambridge Crystallographic Data Centre
#                                CCDC 
#
#######################################################################
#
# If this CIF has been generated from an entry in the Cambridge 
# Structural Database, then it will include bibliographic, chemical, 
# crystal, experimental, refinement or atomic coordinate data resulting 
# from the CCDC's data processing and validation procedures.
#
#######################################################################

data_GERSIH
_symmetry_cell_setting           monoclinic
_symmetry_space_group_name_H-M   'P 21/c'
_symmetry_Int_Tables_number      14
_space_group_name_Hall           '-P 2ybc'
loop_
_symmetry_equiv_pos_site_id
_symmetry_equiv_pos_as_xyz
1 x,y,z
2 -x,1/2+y,1/2-z
3 -x,-y,-z
4 x,1/2-y,1/2+z
_cell_length_a                   9.5035(11)
_cell_length_b                   26.955(3)
_cell_length_c                   12.6529(14)
_cell_angle_alpha                90
_cell_angle_beta                 98.8220(10)
_cell_angle_gamma                90
_cell_volume                     3202.91
loop_
_atom_site_label
_atom_site_type_symbol
_atom_site_fract_x
_atom_site_fract_y
_atom_site_fract_z
C1 C 1.3771(4) 0.05285(13) 0.8768(3)
C2 C 1.5281(4) 0.06753(14) 1.1260(3)
C3 C 1.5465(4) 0.09858(13) 1.0287(3)
C4 C 1.6389(4) 0.13876(14) 1.0515(3)
H1 H 1.6798 0.1440 1.1222
C5 C 1.6726(4) 0.17086(14) 0.9752(3)
H2 H 1.7313 0.1980 0.9952
C6 C 1.6194(4) 0.16298(13) 0.8691(3)
C7 C 1.5285(4) 0.12282(12) 0.8438(3)
H3 H 1.4935 0.1168 0.7722
C8 C 1.4871(4) 0.09107(12) 0.9206(3)
C9 C 1.6515(4) 0.19631(13) 0.7760(3)
C10 C 1.7778(5) 0.23180(15) 0.8099(3)
C11 C 1.5165(4) 0.22771(15) 0.7421(3)
C12 C 1.6911(3) 0.16377(12) 0.6843(3)
C13 C 1.6419(4) 0.17217(13) 0.5763(3)
H4 H 1.5836 0.1993 0.5557
C14 C 1.6796(4) 0.14032(13) 0.4997(3)
H5 H 1.6462 0.1464 0.4279
C15 C 1.7661(4) 0.09954(13) 0.5281(3)
C16 C 1.8226(3) 0.09195(13) 0.6358(3)
C17 C 1.7845(4) 0.12450(12) 0.7120(3)
H6 H 1.8227 0.1199 0.7835
C18 C 1.9199(4) 0.04910(14) 0.6725(3)
C19 C 1.7878(4) 0.06300(13) 0.4421(3)
C20 C 1.0294(4) 0.41728(15) 0.6642(3)
H7 H 1.0706 0.4120 0.7349
C21 C 0.9014(4) 0.44218(16) 0.5267(3)
H8 H 0.8307 0.4594 0.4824
C22 C 1.1973(4) 0.36453(15) 0.5768(4)
H9 H 1.2588 0.3667 0.6453
H10 H 1.2500 0.3776 0.5231
C23 C 1.2181(4) 0.28855(15) 0.4683(4)
H11 H 1.2691 0.3072 0.4253
C24 C 1.1656(4) 0.31094(14) 0.5525(3)
C25 C 1.0886(5) 0.28209(16) 0.6127(4)
H12 H 1.0494 0.2965 0.6684
C26 C 1.0687(4) 0.23258(16) 0.5920(4)
H13 H 1.0185 0.2137 0.6351
C27 C 1.1211(4) 0.21030(13) 0.5090(3)
C28 C 1.1956(4) 0.23869(15) 0.4476(4)
H14 H 1.2319 0.2242 0.3908
C29 C 1.0894(4) 0.15583(15) 0.4861(4)
H15 H 1.0549 0.1413 0.5475
H16 H 1.0135 0.1533 0.4256
C30 C 1.3600(4) 0.09798(14) 0.3764(3)
H17 H 1.4143 0.0922 0.3225
C31 C 1.2813(5) 0.09228(14) 0.5211(3)
H18 H 1.2650 0.0829 0.5889
Cd1 Cd 0.82706(3) 0.489679(10) 0.76021(2)
Cd2 Cd 1.5000 0.0000 0.5000
F1 F 1.5344(3) 0.26406(9) 0.6731(2)
F2 F 1.4738(3) 0.24945(9) 0.8267(2)
F3 F 1.4085(2) 0.20012(9) 0.6960(2)
F4 F 1.8109(3) 0.25664(9) 0.7258(2)
F5 F 1.8925(2) 0.20712(9) 0.8527(2)
F6 F 1.7509(3) 0.26608(9) 0.8800(2)
N1 N 0.9203(3) 0.44646(11) 0.6344(2)
N2 N 0.9902(4) 0.41191(14) 0.4895(3)
N3 N 1.0735(3) 0.39624(11) 0.5804(3)
N4 N 1.2103(3) 0.12697(11) 0.4631(3)
N5 N 1.2595(4) 0.13112(12) 0.3685(3)
N6 N 1.3789(3) 0.07246(11) 0.4704(3)
O1 O 1.3516(3) 0.04631(10) 0.7786(2)
O2 O 1.3116(3) 0.02836(11) 0.9391(2)
O3 O 1.4203(3) 0.03771(11) 1.1217(2)
H19 H 1.3800 0.0356 1.0597
O4 O 1.6127(3) 0.07154(12) 1.2070(2)
O5 O 1.7094(3) 0.02502(9) 0.4299(2)
O6 O 1.8777(3) 0.07201(10) 0.3825(2)
O7 O 1.8710(3) 0.01209(12) 0.7085(3)
O8 O 2.0487(3) 0.05445(11) 0.6665(3)
O9 O 1.5860(3) 0.01854(11) 0.6733(2)
H20 H 1.6763 0.0162 0.6837
H21 H 1.5615 0.0479 0.6868
C1B C 1.6229(4) -0.05285(13) 0.1232(3)
C2B C 1.4719(4) -0.06753(14) -0.1260(3)
C3B C 1.4535(4) -0.09858(13) -0.0287(3)
C4B C 1.3611(4) -0.13876(14) -0.0515(3)
H1B H 1.3202 -0.1440 -0.1222
C5B C 1.3274(4) -0.17086(14) 0.0248(3)
H2B H 1.2687 -0.1980 0.0048
C6B C 1.3806(4) -0.16298(13) 0.1309(3)
C7B C 1.4715(4) -0.12282(12) 0.1562(3)
H3B H 1.5065 -0.1168 0.2278
C8B C 1.5129(4) -0.09107(12) 0.0794(3)
C9B C 1.3485(4) -0.19631(13) 0.2240(3)
C10B C 1.2222(5) -0.23180(15) 0.1901(3)
C11B C 1.4835(4) -0.22771(15) 0.2579(3)
C12B C 1.3089(3) -0.16377(12) 0.3157(3)
C13B C 1.3581(4) -0.17217(13) 0.4237(3)
H4B H 1.4164 -0.1993 0.4443
C14B C 1.3204(4) -0.14032(13) 0.5003(3)
H5B H 1.3538 -0.1464 0.5721
C15B C 1.2339(4) -0.09954(13) 0.4719(3)
C16B C 1.1774(3) -0.09195(13) 0.3642(3)
C17B C 1.2155(4) -0.12450(12) 0.2880(3)
H6B H 1.1773 -0.1199 0.2165
C18B C 1.0801(4) -0.04910(14) 0.3275(3)
C19B C 1.2122(4) -0.06300(13) 0.5579(3)
C20B C 1.9706(4) -0.41728(15) 0.3358(3)
H7B H 1.9294 -0.4120 0.2651
C21B C 2.0986(4) -0.44218(16) 0.4733(3)
H8B H 2.1693 -0.4594 0.5176
C22B C 1.8027(4) -0.36453(15) 0.4232(4)
H9B H 1.7412 -0.3667 0.3547
H10B H 1.7500 -0.3776 0.4769
C23B C 1.7819(4) -0.28855(15) 0.5317(4)
H11B H 1.7309 -0.3072 0.5747
C24B C 1.8344(4) -0.31094(14) 0.4475(3)
C25B C 1.9114(5) -0.28209(16) 0.3873(4)
H12B H 1.9506 -0.2965 0.3316
C26B C 1.9313(4) -0.23258(16) 0.4080(4)
H13B H 1.9815 -0.2137 0.3649
C27B C 1.8789(4) -0.21030(13) 0.4910(3)
C28B C 1.8044(4) -0.23869(15) 0.5524(4)
H14B H 1.7681 -0.2242 0.6092
C29B C 1.9106(4) -0.15583(15) 0.5139(4)
H15B H 1.9451 -0.1413 0.4525
H16B H 1.9865 -0.1533 0.5744
C30B C 1.6400(4) -0.09798(14) 0.6236(3)
H17B H 1.5857 -0.0922 0.6775
C31B C 1.7187(5) -0.09228(14) 0.4789(3)
H18B H 1.7350 -0.0829 0.4111
Cd1B Cd 2.17294(3) -0.489679(10) 0.23979(2)
Cd1A Cd 1.17294(3) -0.010321(10) 0.73979(2)
Cd1C Cd 1.82706(3) 0.010321(10) 1.26021(2)
Cd1C_2 Cd 1.82706(3) 0.010321(10) 0.26021(2)
Cd1A_2 Cd 2.17294(3) -0.010321(10) 0.73979(2)
Cd1A_3 Cd 1.17294(3) -0.010321(10) -0.26021(2)
Cd1C_3 Cd 0.82706(3) 0.010321(10) 0.26021(2)
F1B F 1.4656(3) -0.26406(9) 0.3269(2)
F2B F 1.5262(3) -0.24945(9) 0.1733(2)
F3B F 1.5915(2) -0.20012(9) 0.3040(2)
F4B F 1.1891(3) -0.25664(9) 0.2742(2)
F5B F 1.1075(2) -0.20712(9) 0.1473(2)
F6B F 1.2491(3) -0.26608(9) 0.1200(2)
N1B N 2.0797(3) -0.44646(11) 0.3656(2)
N2B N 2.0098(4) -0.41191(14) 0.5105(3)
N3B N 1.9265(3) -0.39624(11) 0.4196(3)
N4B N 1.7897(3) -0.12697(11) 0.5369(3)
N5B N 1.7405(4) -0.13112(12) 0.6315(3)
N6B N 1.6211(3) -0.07246(11) 0.5296(3)
O1B O 1.6484(3) -0.04631(10) 0.2214(2)
O1A O 0.6484(3) 0.54631(10) 0.7214(2)
O1C O 2.3516(3) -0.54631(10) 0.2786(2)
O2B O 1.6884(3) -0.02836(11) 0.0609(2)
O3B O 1.5797(3) -0.03771(11) -0.1217(2)
H19B H 1.6200 -0.0356 -0.0597
O4B O 1.3873(3) -0.07154(12) -0.2070(2)
O4C O 0.6127(3) 0.42846(12) 0.7070(2)
O4A O 2.3873(3) -0.42846(12) 0.2930(2)
O5B O 1.2906(3) -0.02502(9) 0.5701(2)
O5C O 0.7094(3) 0.47498(9) 0.9299(2)
O5A O 2.2906(3) -0.47498(9) 0.0701(2)
O6B O 1.1223(3) -0.07201(10) 0.6175(2)
O6C O 0.8777(3) 0.42799(10) 0.8825(2)
O6A O 2.1223(3) -0.42799(10) 0.1175(2)
O7B O 1.1290(3) -0.01209(12) 0.2915(3)
O8B O 0.9513(3) -0.05445(11) 0.3335(3)
O8A O 0.9513(3) 0.55445(11) 0.8335(3)
O8C O 2.0487(3) -0.55445(11) 0.1665(3)
O9B O 1.4140(3) -0.01854(11) 0.3267(2)
H20B H 1.3237 -0.0162 0.3163
H21B H 1.4385 -0.0479 0.3132
loop_
_geom_bond_atom_site_label_1
_geom_bond_atom_site_label_2
_geom_bond_site_symmetry_1
_geom_bond_site_symmetry_2
C1 C8 1_555 1_555
C2 C3 1_555 1_555
C3 C4 1_555 1_555
C4 H1 1_555 1_555
C5 C4 1_555 1_555
H2 C5 1_555 1_555
C6 C5 1_555 1_555
C7 C6 1_555 1_555
H3 C7 1_555 1_555
C8 C3 1_555 1_555
C9 C6 1_555 1_555
C10 C9 1_555 1_555
C11 C9 1_555 1_555
C12 C9 1_555 1_555
C13 C12 1_555 1_555
H4 C13 1_555 1_555
C14 C13 1_555 1_555
H5 C14 1_555 1_555
C15 C14 1_555 1_555
C16 C15 1_555 1_555
C17 C12 1_555 1_555
H6 C17 1_555 1_555
C18 C16 1_555 1_555
C19 C15 1_555 1_555
C20 H7 1_555 1_555
C21 H8 1_555 1_555
C22 H9 1_555 1_555
H10 C22 1_555 1_555
C23 H11 1_555 1_555
C24 C22 1_555 1_555
C25 C24 1_555 1_555
H12 C25 1_555 1_555
C26 C25 1_555 1_555
H13 C26 1_555 1_555
C27 C26 1_555 1_555
C28 C23 1_555 1_555
H14 C28 1_555 1_555
C29 C27 1_555 1_555
H15 C29 1_555 1_555
H16 C29 1_555 1_555
C30 H17 1_555 1_555
C31 H18 1_555 1_555
Cd1 N1 1_555 1_555
Cd2 N6 1_555 1_555
F1 C11 1_555 1_555
F2 C11 1_555 1_555
F3 C11 1_555 1_555
F4 C10 1_555 1_555
F5 C10 1_555 1_555
F6 C10 1_555 1_555
N1 C20 1_555 1_555
N2 C21 1_555 1_555
N3 C20 1_555 1_555
N4 C29 1_555 1_555
N5 C30 1_555 1_555
N6 C30 1_555 1_555
O1 C1 1_555 1_555
O2 C1 1_555 1_555
O3 C2 1_555 1_555
H19 O3 1_555 1_555
O4 C2 1_555 1_555
O5 C19 1_555 1_555
O6 C19 1_555 1_555
O7 C18 1_555 1_555
O8 C18 1_555 1_555
O9 Cd2 1_555 1_555
H20 O9 1_555 1_555
H21 O9 1_555 1_555
C1B C8B 1_555 1_555
C2B C3B 1_555 1_555
C3B C4B 1_555 1_555
C4B H1B 1_555 1_555
C5B C4B 1_555 1_555
H2B C5B 1_555 1_555
C6B C5B 1_555 1_555
C7B C6B 1_555 1_555
H3B C7B 1_555 1_555
C8B C3B 1_555 1_555
C9B C6B 1_555 1_555
C10B C9B 1_555 1_555
C11B C9B 1_555 1_555
C12B C9B 1_555 1_555
C13B C12B 1_555 1_555
H4B C13B 1_555 1_555
C14B C13B 1_555 1_555
H5B C14B 1_555 1_555
C15B C14B 1_555 1_555
C16B C15B 1_555 1_555
C17B C12B 1_555 1_555
H6B C17B 1_555 1_555
C18B C16B 1_555 1_555
C19B C15B 1_555 1_555
C20B H7B 1_555 1_555
C21B H8B 1_555 1_555
C22B H9B 1_555 1_555
H10B C22B 1_555 1_555
C23B H11B 1_555 1_555
C24B C22B 1_555 1_555
C25B C24B 1_555 1_555
H12B C25B 1_555 1_555
C26B C25B 1_555 1_555
H13B C26B 1_555 1_555
C27B C26B 1_555 1_555
C28B C23B 1_555 1_555
H14B C28B 1_555 1_555
C29B C27B 1_555 1_555
H15B C29B 1_555 1_555
H16B C29B 1_555 1_555
C30B H17B 1_555 1_555
C31B H18B 1_555 1_555
Cd1B N1B 1_555 1_555
Cd1A O1 1_555 1_555
Cd1C O4 1_555 1_555
Cd1C_2 O5 1_555 1_555
Cd1A_2 O8 1_555 1_555
Cd1A_3 O4B 1_555 1_555
Cd1C_3 O8B 1_555 1_555
F1B C11B 1_555 1_555
F2B C11B 1_555 1_555
F3B C11B 1_555 1_555
F4B C10B 1_555 1_555
F5B C10B 1_555 1_555
F6B C10B 1_555 1_555
N1B C20B 1_555 1_555
N2B C21B 1_555 1_555
N3B C20B 1_555 1_555
N4B C29B 1_555 1_555
N5B C30B 1_555 1_555
N6B Cd2 1_555 1_555
O1B C1B 1_555 1_555
O1A Cd1 1_555 1_555
O1C Cd1B 1_555 1_555
O2B C1B 1_555 1_555
O3B C2B 1_555 1_555
H19B O3B 1_555 1_555
O4B C2B 1_555 1_555
O4C Cd1 1_555 1_555
O4A Cd1B 1_555 1_555
O5B Cd2 1_555 1_555
O5C Cd1 1_555 1_555
O5A Cd1B 1_555 1_555
O6B C19B 1_555 1_555
O6C Cd1 1_555 1_555
O6A Cd1B 1_555 1_555
O7B C18B 1_555 1_555
O8B C18B 1_555 1_555
O8A Cd1 1_555 1_555
O8C Cd1B 1_555 1_555
O9B Cd2 1_555 1_555
H20B O9B 1_555 1_555
H21B O9B 1_555 1_555
C7 C8 1_555 1_555
C16 C17 1_555 1_555
C21 N1 1_555 1_555
C22 N3 1_555 1_555
C23 C24 1_555 1_555
C27 C28 1_555 1_555
C31 N4 1_555 1_555
C31 N6 1_555 1_555
Cd2 O5 1_555 1_555
N2 N3 1_555 1_555
N4 N5 1_555 1_555
O6 Cd1C_2 1_555 1_555
C7B C8B 1_555 1_555
C16B C17B 1_555 1_555
C19B O5B 1_555 1_555
C21B N1B 1_555 1_555
C22B N3B 1_555 1_555
C23B C24B 1_555 1_555
C27B C28B 1_555 1_555
C30B N6B 1_555 1_555
C31B N4B 1_555 1_555
C31B N6B 1_555 1_555
Cd1A O5B 1_555 1_555
Cd1A O6B 1_555 1_555
Cd1C_2 O1B 1_555 1_555
N2B N3B 1_555 1_555
N4B N5B 1_555 1_555

#END
