
#######################################################################
#
#                 Cambridge Crystallographic Data Centre
#                                CCDC 
#
#######################################################################
#
# If this CIF has been generated from an entry in the Cambridge 
# Structural Database, then it will include bibliographic, chemical, 
# crystal, experimental, refinement or atomic coordinate data resulting 
# from the CCDC's data processing and validation procedures.
#
#######################################################################

data_GERTUU
_symmetry_cell_setting           triclinic
_symmetry_space_group_name_H-M   'P -1'
_symmetry_Int_Tables_number      2
_space_group_name_Hall           '-P 1'
loop_
_symmetry_equiv_pos_site_id
_symmetry_equiv_pos_as_xyz
1 x,y,z
2 -x,-y,-z
_cell_length_a                   7.3773(4)
_cell_length_b                   13.5549(7)
_cell_length_c                   15.1553(8)
_cell_angle_alpha                72.6370(10)
_cell_angle_beta                 76.2820(10)
_cell_angle_gamma                80.2040(10)
_cell_volume                     1397.1
loop_
_atom_site_label
_atom_site_type_symbol
_atom_site_fract_x
_atom_site_fract_y
_atom_site_fract_z
Dy1 Dy 0.03621(2) 0.945440(11) 0.309642(10)
Cu1 Cu -0.05275(6) 0.61022(3) 0.65359(3)
Cu2 Cu 0.0000 1.5000 0.0000
C1 C 0.2669(5) 1.4900(3) -0.1574(3)
C2 C 0.2767(5) 1.3807(3) -0.0930(3)
C3 C 0.4050(6) 1.3015(3) -0.1162(3)
H1 H 0.4851 1.3115 -0.1749
C4 C 0.4102(6) 1.2054(3) -0.0482(3)
H2 H 0.4997 1.1512 -0.0598
C5 C 0.2818(5) 1.1913(3) 0.0364(3)
C6 C 0.2899(6) 1.0906(3) 0.1117(3)
C7 C 0.1522(5) 1.2759(3) 0.0516(3)
H3 H 0.0629 1.2671 0.1073
C8 C -0.3934(5) 1.0813(3) 0.2985(3)
C9 C -0.4874(5) 1.1866(3) 0.2527(3)
C10 C -0.6464(5) 1.2256(3) 0.3064(3)
H4 H -0.6945 1.1844 0.3658
C11 C -0.4212(5) 1.2485(3) 0.1631(3)
H5 H -0.3131 1.2251 0.1257
C12 C -0.5153(5) 1.3440(3) 0.1297(3)
H6 H -0.4764 1.3842 0.0685
C13 C -0.6687(5) 1.3792(3) 0.1890(3)
C14 C -0.7802(5) 1.4855(3) 0.1658(3)
C15 C 0.0591(5) 0.6959(3) 0.4626(2)
C16 C 0.1633(5) 0.5893(3) 0.4807(2)
C17 C 0.2822(5) 0.5491(3) 0.4117(3)
H7 H 0.3012 0.5880 0.3489
C18 C 0.3719(5) 0.4506(3) 0.4374(3)
H8 H 0.4510 0.4216 0.3918
C19 C 0.3444(5) 0.3941(3) 0.5320(3)
C20 C 0.2201(5) 0.4387(3) 0.5975(2)
H9 H 0.1976 0.4009 0.6605
C21 C 0.4506(5) 0.2878(3) 0.5654(3)
N1 N 0.1324(4) 0.5337(2) 0.5727(2)
N2 N 0.1531(4) 1.3677(2) -0.0107(2)
N3 N -0.7329(4) 1.3201(2) 0.2759(2)
O1 O 0.3708(4) 1.5102(2) -0.23494(19)
O2 O 0.1478(4) 1.55669(19) -0.12378(19)
O3 O 0.4398(4) 1.0320(2) 0.1052(2)
O4 O 0.1504(4) 1.0751(2) 0.1780(2)
O5 O -0.4828(4) 1.0301(2) 0.3745(2)
O6 O -0.2311(4) 1.0553(2) 0.2585(2)
O7 O -0.7475(4) 1.5443(2) 0.0859(2)
O8 O -0.9068(4) 1.50592(19) 0.23432(18)
O9 O 0.4122(4) 0.2436(2) 0.6508(2)
O10 O 0.5723(4) 0.2552(2) 0.50372(19)
O11 O -0.0572(4) 0.71707(18) 0.53370(17)
O12 O 0.0889(4) 0.75680(19) 0.38238(18)
O13 O 0.1782(4) 0.6992(2) 0.6733(2)
H10 H 0.2463 0.6579 0.7097
H11 H 0.2381 0.7055 0.6169
O14 O 0.3341(4) 0.8778(2) 0.2489(2)
H12 H 0.3974 0.9138 0.1987
H13 H 0.4028 0.8221 0.2685
O15 O -0.0837(4) 0.8569(2) 0.2276(2)
H14 H -0.1208 0.8984 0.1794
H15 H -0.1730 0.8212 0.2599
O16 O -0.0037(4) 1.0957(2) 0.3705(2)
H16 H 0.0684 1.1422 0.3389
H17 H -0.1101 1.1154 0.3549
O17 O -0.2065(4) 0.9087(2) 0.44092(19)
H18 H -0.2316 0.8523 0.4827
H19 H -0.3056 0.9511 0.4425
O18 O 0.2087(3) 0.91920(19) 0.43581(19)
H20 H 0.3254 0.9054 0.4360
H21 H 0.1595 0.9499 0.4786
Dy1A Dy -0.03621(2) 2.054560(11) -0.309642(10)
Cu1A Cu 0.05275(6) 2.38978(3) -0.65359(3)
Cu1A_2 Cu -0.94725(6) 1.38978(3) 0.34641(3)
Cu1_2 Cu 0.94725(6) 1.61022(3) -0.34641(3)
C1A C -0.2669(5) 1.5100(3) 0.1574(3)
C2A C -0.2767(5) 1.6193(3) 0.0930(3)
C3A C -0.4050(6) 1.6985(3) 0.1162(3)
H1A H -0.4851 1.6885 0.1749
C4A C -0.4102(6) 1.7946(3) 0.0482(3)
H2A H -0.4997 1.8488 0.0598
C5A C -0.2818(5) 1.8087(3) -0.0364(3)
C6A C -0.2899(6) 1.9094(3) -0.1117(3)
C7A C -0.1522(5) 1.7241(3) -0.0516(3)
H3A H -0.0629 1.7329 -0.1073
C8A C 0.3934(5) 1.9187(3) -0.2985(3)
C9A C 0.4874(5) 1.8134(3) -0.2527(3)
C10A C 0.6464(5) 1.7744(3) -0.3064(3)
H4A H 0.6945 1.8156 -0.3658
C11A C 0.4212(5) 1.7515(3) -0.1631(3)
H5A H 0.3131 1.7749 -0.1257
C12A C 0.5153(5) 1.6560(3) -0.1297(3)
H6A H 0.4764 1.6158 -0.0685
C13A C 0.6687(5) 1.6208(3) -0.1890(3)
C14A C 0.7802(5) 1.5145(3) -0.1658(3)
C15A C -0.0591(5) 2.3041(3) -0.4626(2)
C16A C -0.1633(5) 2.4107(3) -0.4807(2)
C17A C -0.2822(5) 2.4509(3) -0.4117(3)
H7A H -0.3012 2.4120 -0.3489
C18A C -0.3719(5) 2.5494(3) -0.4374(3)
H8A H -0.4510 2.5784 -0.3918
C19A C -0.3444(5) 2.6059(3) -0.5320(3)
C20A C -0.2201(5) 2.5613(3) -0.5975(2)
H9A H -0.1976 2.5991 -0.6605
C21A C -0.4506(5) 2.7122(3) -0.5654(3)
N1A N -0.1324(4) 2.4663(2) -0.5727(2)
N2A N -0.1531(4) 1.6323(2) 0.0107(2)
N3A N 0.7329(4) 1.6799(2) -0.2759(2)
N3A_2 N -0.2671(4) 0.6799(2) 0.7241(2)
N3_2 N 0.2671(4) 2.3201(2) -0.7241(2)
O1A O -0.3708(4) 1.4898(2) 0.23494(19)
O2A O -0.1478(4) 1.44331(19) 0.12378(19)
O3A O -0.4398(4) 1.9680(2) -0.1052(2)
O4A O -0.1504(4) 1.9249(2) -0.1780(2)
O5A O 0.4828(4) 1.9699(2) -0.3745(2)
O6A O 0.2311(4) 1.9447(2) -0.2585(2)
O7A O 0.7475(4) 1.4557(2) -0.0859(2)
O8A O 0.9068(4) 1.49408(19) -0.23432(18)
O8A_2 O -0.0932(4) 0.49408(19) 0.76568(18)
O8_2 O 0.0932(4) 2.50592(19) -0.76568(18)
O9A O -0.4122(4) 2.7564(2) -0.6508(2)
O10A O -0.5723(4) 2.7448(2) -0.50372(19)
O11A O 0.0572(4) 2.28293(18) -0.53370(17)
O12A O -0.0889(4) 2.24320(19) -0.38238(18)
O13A O -0.1782(4) 2.3008(2) -0.6733(2)
H10A H -0.2463 2.3421 -0.7097
H11A H -0.2381 2.2945 -0.6169
O14A O -0.3341(4) 2.1222(2) -0.2489(2)
H12A H -0.3974 2.0862 -0.1987
H13A H -0.4028 2.1779 -0.2685
O15A O 0.0837(4) 2.1431(2) -0.2276(2)
H14A H 0.1208 2.1016 -0.1794
H15A H 0.1730 2.1788 -0.2599
O16A O 0.0037(4) 1.9043(2) -0.3705(2)
H16A H -0.0684 1.8578 -0.3389
H17A H 0.1101 1.8846 -0.3549
O17A O 0.2065(4) 2.0913(2) -0.44092(19)
H18A H 0.2316 2.1477 -0.4827
H19A H 0.3056 2.0489 -0.4425
O18A O -0.2087(3) 2.08080(19) -0.43581(19)
H20A H -0.3254 2.0946 -0.4360
H21A H -0.1595 2.0501 -0.4786
O19 O 0.0967(6) 0.7537(3) 0.1059(3)
H22 H 0.1299 0.6950 0.0940
H23 H 0.1644 0.7586 0.1424
O20 O 0.8369(6) 0.0655(4) 0.0405(3)
H24 H 0.7221 0.0620 0.0423
H25 H 0.8409 0.1042 0.0749
loop_
_geom_bond_atom_site_label_1
_geom_bond_atom_site_label_2
_geom_bond_site_symmetry_1
_geom_bond_site_symmetry_2
Dy1 O4 1_555 1_555
Cu1 N1 1_555 1_555
Cu2 N2 1_555 1_555
C1 C2 1_555 1_555
C2 C3 1_555 1_555
C3 H1 1_555 1_555
C4 C3 1_555 1_555
H2 C4 1_555 1_555
C5 C4 1_555 1_555
C6 C5 1_555 1_555
C7 C5 1_555 1_555
H3 C7 1_555 1_555
C8 C9 1_555 1_555
C9 C10 1_555 1_555
C10 H4 1_555 1_555
C11 C9 1_555 1_555
H5 C11 1_555 1_555
C12 C11 1_555 1_555
H6 C12 1_555 1_555
C13 C12 1_555 1_555
C14 C13 1_555 1_555
C15 C16 1_555 1_555
C16 C17 1_555 1_555
C17 H7 1_555 1_555
C18 C17 1_555 1_555
H8 C18 1_555 1_555
C19 C18 1_555 1_555
C20 C19 1_555 1_555
H9 C20 1_555 1_555
C21 C19 1_555 1_555
N1 C16 1_555 1_555
N2 C2 1_555 1_555
N3 C10 1_555 1_555
O1 C1 1_555 1_555
O2 Cu2 1_555 1_555
O3 C6 1_555 1_555
O4 C6 1_555 1_555
O5 C8 1_555 1_555
O6 Dy1 1_555 1_555
O7 C14 1_555 1_555
O8 C14 1_555 1_555
O9 C21 1_555 1_555
O10 C21 1_555 1_555
O11 Cu1 1_555 1_555
O12 Dy1 1_555 1_555
O13 Cu1 1_555 1_555
H10 O13 1_555 1_555
H11 O13 1_555 1_555
O14 Dy1 1_555 1_555
H12 O14 1_555 1_555
H13 O14 1_555 1_555
O15 Dy1 1_555 1_555
H14 O15 1_555 1_555
H15 O15 1_555 1_555
O16 Dy1 1_555 1_555
H16 O16 1_555 1_555
H17 O16 1_555 1_555
O17 Dy1 1_555 1_555
H18 O17 1_555 1_555
H19 O17 1_555 1_555
O18 Dy1 1_555 1_555
H20 O18 1_555 1_555
H21 O18 1_555 1_555
O19 H22 1_555 1_555
H23 O19 1_555 1_555
O20 H24 1_555 1_555
H25 O20 1_555 1_555
Dy1A O4A 1_555 1_555
Cu1A N1A 1_555 1_555
Cu1A_2 N3 1_555 1_555
Cu1_2 N3A 1_555 1_555
C1A C2A 1_555 1_555
C2A C3A 1_555 1_555
C3A H1A 1_555 1_555
C4A C3A 1_555 1_555
H2A C4A 1_555 1_555
C5A C4A 1_555 1_555
C6A C5A 1_555 1_555
C7A C5A 1_555 1_555
H3A C7A 1_555 1_555
C8A C9A 1_555 1_555
C9A C10A 1_555 1_555
C10A H4A 1_555 1_555
C11A C9A 1_555 1_555
H5A C11A 1_555 1_555
C12A C11A 1_555 1_555
H6A C12A 1_555 1_555
C13A C12A 1_555 1_555
C14A C13A 1_555 1_555
C15A C16A 1_555 1_555
C16A C17A 1_555 1_555
C17A H7A 1_555 1_555
C18A C17A 1_555 1_555
H8A C18A 1_555 1_555
C19A C18A 1_555 1_555
C20A C19A 1_555 1_555
H9A C20A 1_555 1_555
C21A C19A 1_555 1_555
N1A C16A 1_555 1_555
N2A Cu2 1_555 1_555
N3A C10A 1_555 1_555
N3A_2 Cu1 1_555 1_555
N3_2 Cu1A 1_555 1_555
O1A C1A 1_555 1_555
O2A Cu2 1_555 1_555
O3A C6A 1_555 1_555
O4A C6A 1_555 1_555
O5A C8A 1_555 1_555
O6A Dy1A 1_555 1_555
O7A C14A 1_555 1_555
O8A Cu1_2 1_555 1_555
O8A_2 Cu1 1_555 1_555
O8_2 Cu1A 1_555 1_555
O9A C21A 1_555 1_555
O10A C21A 1_555 1_555
O11A Cu1A 1_555 1_555
O12A Dy1A 1_555 1_555
O13A Cu1A 1_555 1_555
H10A O13A 1_555 1_555
H11A O13A 1_555 1_555
O14A Dy1A 1_555 1_555
H12A O14A 1_555 1_555
H13A O14A 1_555 1_555
O15A Dy1A 1_555 1_555
H14A O15A 1_555 1_555
H15A O15A 1_555 1_555
O16A Dy1A 1_555 1_555
H16A O16A 1_555 1_555
H17A O16A 1_555 1_555
O17A Dy1A 1_555 1_555
H18A O17A 1_555 1_555
H19A O17A 1_555 1_555
O18A Dy1A 1_555 1_555
H20A O18A 1_555 1_555
H21A O18A 1_555 1_555
C1 O2 1_555 1_555
C7 N2 1_555 1_555
C8 O6 1_555 1_555
C13 N3 1_555 1_555
C15 O11 1_555 1_555
C15 O12 1_555 1_555
C20 N1 1_555 1_555
O8 Cu1A_2 1_555 1_555
C1A O2A 1_555 1_555
C2A N2A 1_555 1_555
C7A N2A 1_555 1_555
C8A O6A 1_555 1_555
C13A N3A 1_555 1_555
C14A O8A 1_555 1_555
C15A O11A 1_555 1_555
C15A O12A 1_555 1_555
C20A N1A 1_555 1_555

#END
