
#######################################################################
#
#                 Cambridge Crystallographic Data Centre
#                                CCDC 
#
#######################################################################
#
# If this CIF has been generated from an entry in the Cambridge 
# Structural Database, then it will include bibliographic, chemical, 
# crystal, experimental, refinement or atomic coordinate data resulting 
# from the CCDC's data processing and validation procedures.
#
#######################################################################

data_GERTII
_symmetry_cell_setting           triclinic
_symmetry_space_group_name_H-M   'P -1'
_symmetry_Int_Tables_number      2
_space_group_name_Hall           '-P 1'
loop_
_symmetry_equiv_pos_site_id
_symmetry_equiv_pos_as_xyz
1 x,y,z
2 -x,-y,-z
_cell_length_a                   7.3865(4)
_cell_length_b                   13.5657(8)
_cell_length_c                   15.1709(9)
_cell_angle_alpha                72.6190(10)
_cell_angle_beta                 76.2160(10)
_cell_angle_gamma                80.2090(10)
_cell_volume                     1400.94
loop_
_atom_site_label
_atom_site_type_symbol
_atom_site_fract_x
_atom_site_fract_y
_atom_site_fract_z
Tb1 Tb 0.46408(2) 1.054695(12) 0.190846(11)
Cu1 Cu 1.44755(5) 0.61031(3) 0.15361(3)
Cu2 Cu 0.5000 0.5000 0.5000
C1 C 1.2802(5) 0.5147(3) 0.3341(2)
C2 C 1.1704(4) 0.6206(3) 0.3108(2)
C3 C 1.0152(4) 0.6551(3) 0.3702(2)
H1 H 0.9749 0.6144 0.4310
C4 C 0.9219(5) 0.7516(3) 0.3364(2)
H2 H 0.8137 0.7750 0.3737
C5 C 0.9889(4) 0.8136(3) 0.2474(2)
C6 C 1.1470(4) 0.7743(3) 0.1939(2)
H3 H 1.1948 0.8154 0.1344
C7 C 0.8941(5) 0.9184(3) 0.2018(3)
C8 C 0.4406(4) 1.3038(2) 0.0380(2)
C9 C 0.3368(4) 1.4109(2) 0.0186(2)
C10 C 0.2184(4) 1.4506(2) 0.0887(2)
H4 H 0.1999 1.4120 0.1515
C11 C 0.1284(4) 1.5503(3) 0.0614(2)
H5 H 0.0490 1.5794 0.1068
C12 C 0.1554(4) 1.6067(2) -0.0321(2)
C13 C 0.2784(4) 1.5615(2) -0.0977(2)
H6 H 0.2991 1.5986 -0.1610
C14 C 0.0496(4) 1.7117(3) -0.0655(2)
C15 C 0.3480(5) 0.7241(3) 0.4481(2)
H7 H 0.4372 0.7333 0.3923
C16 C 0.2179(5) 0.8084(3) 0.4641(2)
C17 C 0.0891(5) 0.7941(3) 0.5485(3)
H8 H -0.0004 0.8483 0.5601
C18 C 0.0936(6) 0.6988(3) 0.6157(3)
H9 H 0.0130 0.6890 0.6742
C19 C 0.2216(5) 0.6192(3) 0.5928(2)
C20 C 0.2324(5) 0.5100(3) 0.6573(2)
C21 C 0.2096(5) 0.9090(3) 0.3891(3)
N1 N 0.3465(4) 0.6320(2) 0.51049(19)
N2 N 1.2340(4) 0.6799(2) 0.22397(19)
N3 N 0.3681(4) 1.4658(2) -0.07240(19)
O1 O 0.0874(4) 1.7567(2) -0.15120(18)
O2 O -0.0715(3) 1.74508(19) -0.00427(17)
O3 O 0.5565(3) 1.28261(17) -0.03333(16)
O4 O 0.4104(3) 1.24366(18) 0.11722(16)
O5 O 0.9828(3) 0.9695(2) 0.1256(2)
O6 O 0.7317(3) 0.9448(2) 0.24202(18)
O7 O 1.4081(3) 0.49430(18) 0.26569(16)
O8 O 1.2478(4) 0.4556(2) 0.41367(17)
O9 O 0.3484(4) 0.9247(2) 0.32266(19)
O10 O 0.0599(4) 0.9678(2) 0.3951(2)
O11 O 0.3528(3) 0.44314(18) 0.62360(16)
O12 O 0.1292(4) 0.4899(2) 0.73501(17)
O13 O 1.6794(3) 0.69937(19) 0.17288(18)
H10 H 1.7200 0.6510 0.2157
H11 H 1.7614 0.7024 0.1215
O14 O 0.7078(3) 1.09091(19) 0.05871(17)
H12 H 0.8131 1.0616 0.0736
H13 H 0.7136 1.1531 0.0232
O15 O 0.2917(3) 1.08049(18) 0.06330(16)
H14 H 0.2126 1.0358 0.0847
H15 H 0.2228 1.1380 0.0517
O16 O 0.5039(3) 0.90413(19) 0.12997(17)
H16 H 0.5635 0.9071 0.0609
H17 H 0.5593 0.8438 0.1518
O17 O 0.5878(4) 1.1429(2) 0.2727(2)
H18 H 0.5140 1.1760 0.3120
H19 H 0.6932 1.1658 0.2413
O18 O 0.1631(3) 1.1226(2) 0.25272(18)
H20 H 0.0908 1.1630 0.2209
H21 H 0.1054 1.0751 0.2943
Tb1A Tb 0.53592(2) -0.054695(12) 0.809154(11)
Cu1A Cu -0.44755(5) 0.38969(3) 0.84639(3)
Cu1A_2 Cu 0.55245(5) 1.38969(3) -0.15361(3)
Cu1_2 Cu 0.44755(5) -0.38969(3) 1.15361(3)
C1A C -0.2802(5) 0.4853(3) 0.6659(2)
C2A C -0.1704(4) 0.3794(3) 0.6892(2)
C3A C -0.0152(4) 0.3449(3) 0.6298(2)
H1A H 0.0251 0.3856 0.5690
C4A C 0.0781(5) 0.2484(3) 0.6636(2)
H2A H 0.1863 0.2250 0.6263
C5A C 0.0111(4) 0.1864(3) 0.7526(2)
C6A C -0.1470(4) 0.2257(3) 0.8061(2)
H3A H -0.1948 0.1846 0.8656
C7A C 0.1059(5) 0.0816(3) 0.7982(3)
C8A C 0.5594(4) -0.3038(2) 0.9620(2)
C9A C 0.6632(4) -0.4109(2) 0.9814(2)
C10A C 0.7816(4) -0.4506(2) 0.9113(2)
H4A H 0.8001 -0.4120 0.8485
C11A C 0.8716(4) -0.5503(3) 0.9386(2)
H5A H 0.9510 -0.5794 0.8932
C12A C 0.8446(4) -0.6067(2) 1.0321(2)
C13A C 0.7216(4) -0.5615(2) 1.0977(2)
H6A H 0.7009 -0.5986 1.1610
C14A C 0.9504(4) -0.7117(3) 1.0655(2)
C15A C 0.6520(5) 0.2759(3) 0.5519(2)
H7A H 0.5628 0.2667 0.6077
C16A C 0.7821(5) 0.1916(3) 0.5359(2)
C17A C 0.9109(5) 0.2059(3) 0.4515(3)
H8A H 1.0004 0.1517 0.4399
C18A C 0.9064(6) 0.3012(3) 0.3843(3)
H9A H 0.9870 0.3110 0.3258
C19A C 0.7784(5) 0.3808(3) 0.4072(2)
C20A C 0.7676(5) 0.4900(3) 0.3427(2)
C21A C 0.7904(5) 0.0910(3) 0.6109(3)
N1A N 0.6535(4) 0.3680(2) 0.48951(19)
N2A N -0.2340(4) 0.3201(2) 0.77603(19)
N3A N 0.6319(4) -0.4658(2) 1.07240(19)
N3A_2 N 1.6319(4) 0.5342(2) 0.07240(19)
N3_2 N -0.6319(4) 0.4658(2) 0.92760(19)
O1A O 0.9126(4) -0.7567(2) 1.15120(18)
O2A O 1.0715(3) -0.74508(19) 1.00427(17)
O3A O 0.4435(3) -0.28261(17) 1.03333(16)
O3A_2 O 1.4435(3) 0.71739(17) 0.03333(16)
O3_2 O -0.4435(3) 0.28261(17) 0.96667(16)
O4A O 0.5896(3) -0.24366(18) 0.88278(16)
O5A O 0.0172(3) 0.0305(2) 0.8744(2)
O6A O 0.2683(3) 0.0552(2) 0.75798(18)
O7A O -0.4081(3) 0.50570(18) 0.73431(16)
O8A O -0.2478(4) 0.5444(2) 0.58633(17)
O9A O 0.6516(4) 0.0753(2) 0.67734(19)
O10A O 0.9401(4) 0.0322(2) 0.6049(2)
O11A O 0.6472(3) 0.55686(18) 0.37640(16)
O12A O 0.8708(4) 0.5101(2) 0.26499(17)
O13A O -0.6794(3) 0.30063(19) 0.82712(18)
H10A H -0.7200 0.3490 0.7843
H11A H -0.7614 0.2976 0.8785
O14A O 0.2922(3) -0.09091(19) 0.94129(17)
H12A H 0.1869 -0.0616 0.9264
H13A H 0.2864 -0.1531 0.9768
O15A O 0.7083(3) -0.08049(18) 0.93670(16)
H14A H 0.7874 -0.0358 0.9153
H15A H 0.7772 -0.1380 0.9483
O16A O 0.4961(3) 0.09587(19) 0.87003(17)
H16A H 0.4365 0.0929 0.9391
H17A H 0.4407 0.1562 0.8482
O17A O 0.4122(4) -0.1429(2) 0.7273(2)
H18A H 0.4860 -0.1760 0.6880
H19A H 0.3068 -0.1658 0.7587
O18A O 0.8369(3) -0.1226(2) 0.74728(18)
H20A H 0.9092 -0.1630 0.7791
H21A H 0.8946 -0.0751 0.7057
O19 O 0.6634(6) 0.9330(3) 0.4585(3)
H22 H 0.6382 0.9549 0.5078
H23 H 0.7749 0.9477 0.4289
O20 O 0.5960(5) 0.7529(3) 0.6061(2)
H24 H 0.6452 0.6921 0.6065
H25 H 0.6522 0.7972 0.5610
loop_
_geom_bond_atom_site_label_1
_geom_bond_atom_site_label_2
_geom_bond_site_symmetry_1
_geom_bond_site_symmetry_2
Tb1 O4 1_555 1_555
Cu1 N2 1_555 1_555
Cu2 N1 1_555 1_555
C1 C2 1_555 1_555
C2 C3 1_555 1_555
C3 H1 1_555 1_555
C4 C3 1_555 1_555
H2 C4 1_555 1_555
C5 C4 1_555 1_555
C6 C5 1_555 1_555
H3 C6 1_555 1_555
C7 C5 1_555 1_555
C8 C9 1_555 1_555
C9 C10 1_555 1_555
C10 H4 1_555 1_555
C11 C10 1_555 1_555
H5 C11 1_555 1_555
C12 C11 1_555 1_555
C13 C12 1_555 1_555
H6 C13 1_555 1_555
C14 C12 1_555 1_555
C15 H7 1_555 1_555
C16 C15 1_555 1_555
C17 C16 1_555 1_555
H8 C17 1_555 1_555
C18 C17 1_555 1_555
H9 C18 1_555 1_555
C19 C18 1_555 1_555
C20 C19 1_555 1_555
C21 C16 1_555 1_555
N1 C15 1_555 1_555
N2 C2 1_555 1_555
N3 C9 1_555 1_555
O1 C14 1_555 1_555
O2 C14 1_555 1_555
O3 C8 1_555 1_555
O4 C8 1_555 1_555
O5 C7 1_555 1_555
O6 Tb1 1_555 1_555
O7 Cu1 1_555 1_555
O8 C1 1_555 1_555
O9 Tb1 1_555 1_555
O10 C21 1_555 1_555
O11 Cu2 1_555 1_555
O12 C20 1_555 1_555
O13 Cu1 1_555 1_555
H10 O13 1_555 1_555
H11 O13 1_555 1_555
O14 Tb1 1_555 1_555
H12 O14 1_555 1_555
H13 O14 1_555 1_555
O15 Tb1 1_555 1_555
H14 O15 1_555 1_555
H15 O15 1_555 1_555
O16 Tb1 1_555 1_555
H16 O16 1_555 1_555
H17 O16 1_555 1_555
O17 Tb1 1_555 1_555
H18 O17 1_555 1_555
H19 O17 1_555 1_555
O18 Tb1 1_555 1_555
H20 O18 1_555 1_555
H21 O18 1_555 1_555
O19 H22 1_555 1_555
H23 O19 1_555 1_555
O20 H24 1_555 1_555
H25 O20 1_555 1_555
Tb1A O4A 1_555 1_555
Cu1A N2A 1_555 1_555
Cu1A_2 N3 1_555 1_555
Cu1_2 N3A 1_555 1_555
C1A C2A 1_555 1_555
C2A C3A 1_555 1_555
C3A H1A 1_555 1_555
C4A C3A 1_555 1_555
H2A C4A 1_555 1_555
C5A C4A 1_555 1_555
C6A C5A 1_555 1_555
H3A C6A 1_555 1_555
C7A C5A 1_555 1_555
C8A C9A 1_555 1_555
C9A C10A 1_555 1_555
C10A H4A 1_555 1_555
C11A C10A 1_555 1_555
H5A C11A 1_555 1_555
C12A C11A 1_555 1_555
C13A C12A 1_555 1_555
H6A C13A 1_555 1_555
C14A C12A 1_555 1_555
C15A H7A 1_555 1_555
C16A C15A 1_555 1_555
C17A C16A 1_555 1_555
H8A C17A 1_555 1_555
C18A C17A 1_555 1_555
H9A C18A 1_555 1_555
C19A C18A 1_555 1_555
C20A C19A 1_555 1_555
C21A C16A 1_555 1_555
N1A Cu2 1_555 1_555
N2A C2A 1_555 1_555
N3A C9A 1_555 1_555
N3A_2 Cu1 1_555 1_555
N3_2 Cu1A 1_555 1_555
O1A C14A 1_555 1_555
O2A C14A 1_555 1_555
O3A Cu1_2 1_555 1_555
O3A_2 Cu1 1_555 1_555
O3_2 Cu1A 1_555 1_555
O4A C8A 1_555 1_555
O5A C7A 1_555 1_555
O6A Tb1A 1_555 1_555
O7A Cu1A 1_555 1_555
O8A C1A 1_555 1_555
O9A Tb1A 1_555 1_555
O10A C21A 1_555 1_555
O11A Cu2 1_555 1_555
O12A C20A 1_555 1_555
O13A Cu1A 1_555 1_555
H10A O13A 1_555 1_555
H11A O13A 1_555 1_555
O14A Tb1A 1_555 1_555
H12A O14A 1_555 1_555
H13A O14A 1_555 1_555
O15A Tb1A 1_555 1_555
H14A O15A 1_555 1_555
H15A O15A 1_555 1_555
O16A Tb1A 1_555 1_555
H16A O16A 1_555 1_555
H17A O16A 1_555 1_555
O17A Tb1A 1_555 1_555
H18A O17A 1_555 1_555
H19A O17A 1_555 1_555
O18A Tb1A 1_555 1_555
H20A O18A 1_555 1_555
H21A O18A 1_555 1_555
C1 O7 1_555 1_555
C6 N2 1_555 1_555
C7 O6 1_555 1_555
C13 N3 1_555 1_555
C19 N1 1_555 1_555
C20 O11 1_555 1_555
C21 O9 1_555 1_555
O3 Cu1A_2 1_555 1_555
C1A O7A 1_555 1_555
C6A N2A 1_555 1_555
C7A O6A 1_555 1_555
C8A O3A 1_555 1_555
C13A N3A 1_555 1_555
C15A N1A 1_555 1_555
C19A N1A 1_555 1_555
C20A O11A 1_555 1_555
C21A O9A 1_555 1_555

#END
