
#######################################################################
#
#                 Cambridge Crystallographic Data Centre
#                                CCDC 
#
#######################################################################
#
# If this CIF has been generated from an entry in the Cambridge 
# Structural Database, then it will include bibliographic, chemical, 
# crystal, experimental, refinement or atomic coordinate data resulting 
# from the CCDC's data processing and validation procedures.
#
#######################################################################

data_GERVAC
_symmetry_cell_setting           triclinic
_symmetry_space_group_name_H-M   'P -1'
_symmetry_Int_Tables_number      2
_space_group_name_Hall           '-P 1'
loop_
_symmetry_equiv_pos_site_id
_symmetry_equiv_pos_as_xyz
1 x,y,z
2 -x,-y,-z
_cell_length_a                   7.3742(7)
_cell_length_b                   13.5503(13)
_cell_length_c                   15.1504(14)
_cell_angle_alpha                72.6270(10)
_cell_angle_beta                 76.2730(10)
_cell_angle_gamma                80.177(2)
_cell_volume                     1395.39
loop_
_atom_site_label
_atom_site_type_symbol
_atom_site_fract_x
_atom_site_fract_y
_atom_site_fract_z
O1 O 0.6473(7) 1.0566(3) 0.3763(3)
C1 C 0.7678(10) 0.9899(5) 0.3428(4)
O2 O 0.2699(7) 0.5549(4) 0.7592(3)
Ho1 Ho 0.53676(4) 0.44563(2) 0.810093(18)
Cu1 Cu 0.5000 1.0000 0.5000
Cu2 Cu -0.44662(11) 0.88975(6) 0.84629(5)
O3 O -0.4046(6) 1.0057(3) 0.7339(3)
C2 C 0.5567(9) 0.1970(5) 0.9632(5)
O4 O 0.4410(6) 0.2174(3) 1.0338(3)
O5 O 0.5894(6) 0.2577(3) 0.8828(3)
N1 N 0.6320(7) 0.0344(4) 1.0725(4)
O6 O 0.9126(7) -0.2569(4) 1.1507(3)
N2 N 0.6513(8) 0.8676(4) 0.4902(4)
O7 O -0.6781(7) 0.8004(4) 0.8262(4)
H1 H -0.7383 0.7979 0.8819
H2 H -0.7389 0.8455 0.7883
N3 N -0.2329(7) 0.8206(4) 0.7758(4)
O8 O 1.0700(7) -0.2448(4) 1.0043(3)
O9 O -0.2475(7) 1.0448(4) 0.5858(3)
C3 C 0.6657(8) 0.0892(5) 0.9804(4)
C4 C 0.8450(9) -0.1063(5) 1.0320(4)
C5 C -0.1673(9) 0.8799(5) 0.6889(4)
C6 C -0.0137(9) 0.8442(5) 0.6296(4)
H3 H 0.0259 0.8843 0.5684
C7 C 0.7771(9) 0.8810(5) 0.4071(4)
C8 C -0.1477(9) 0.7258(5) 0.8065(5)
H4 H -0.1963 0.6846 0.8659
O10 O 0.6507(7) 0.5747(4) 0.6786(4)
C9 C 0.0792(9) 0.7479(5) 0.6631(5)
H5 H 0.1870 0.7239 0.6258
C10 C 0.6500(10) 0.7767(5) 0.5521(5)
H6 H 0.5605 0.7681 0.6078
C11 C 0.9485(9) -0.2121(5) 1.0654(5)
C12 C -0.2802(9) 0.9858(5) 0.6660(4)
C13 C 0.7842(8) 0.0493(5) 0.9108(4)
H7 H 0.8037 0.0881 0.8480
C14 C 0.8722(9) -0.0496(5) 0.9378(4)
H8 H 0.9510 -0.0790 0.8923
C15 C 0.7900(10) 0.5903(5) 0.6120(5)
C16 C 0.7224(9) -0.0620(5) 1.0973(4)
H9 H 0.7015 -0.0997 1.1605
C17 C 0.9064(11) 0.8006(6) 0.3849(5)
H10 H 0.9878 0.8107 0.3265
C18 C 0.7798(9) 0.6911(5) 0.5371(5)
C19 C 0.9116(11) 0.7048(6) 0.4517(5)
H11 H 1.0011 0.6505 0.4401
C20 C 0.1098(9) 0.5805(5) 0.7979(5)
C21 C 0.0122(9) 0.6867(5) 0.7523(5)
O11 O 0.0186(6) 0.5299(4) 0.8746(4)
O12 O 0.4975(6) 0.5958(4) 0.8701(3)
H12 H 0.5584 0.6454 0.8658
H13 H 0.3907 0.6221 0.8569
O13 O 0.7084(7) 0.4196(3) 0.9362(3)
H14 H 0.8255 0.4242 0.9254
H15 H 0.6584 0.4397 0.9854
O14 O 0.8356(7) 0.3772(4) 0.7485(4)
H16 H 0.9128 0.4119 0.7037
H17 H 0.8842 0.3144 0.7623
O15 O 0.2950(6) 0.4090(4) 0.9408(3)
H18 H 0.1810 0.4278 0.9620
H19 H 0.3202 0.3462 0.9709
O16 O 0.4165(8) 0.3586(4) 0.7287(4)
H20 H 0.3867 0.3939 0.6765
H21 H 0.3308 0.3194 0.7586
O17 O 0.9424(8) 0.5314(4) 0.6046(4)
O20 O 0.8717(7) 1.0092(4) 0.2649(3)
O1A O 0.3527(7) 0.9434(3) 0.6237(3)
C1A C 0.2322(10) 1.0101(5) 0.6572(4)
O2A O 0.7301(7) 1.4451(4) 0.2408(3)
Ho1A Ho 0.46324(4) 1.55437(2) 0.189907(18)
Cu2A Cu 1.44662(11) 1.11025(6) 0.15371(5)
Cu2A_2 Cu 0.44662(11) 0.11025(6) 1.15371(5)
Cu2_2 Cu 0.55338(11) 1.88975(6) -0.15371(5)
O3A O 1.4046(6) 0.9943(3) 0.2661(3)
C2A C 0.4433(9) 1.8030(5) 0.0368(5)
O4A O 0.5590(6) 1.7826(3) -0.0338(3)
O4A_2 O -0.4410(6) 0.7826(3) 0.9662(3)
O4_2 O 1.4410(6) 1.2174(3) 0.0338(3)
O5A O 0.4106(6) 1.7423(3) 0.1172(3)
N1A N 0.3680(7) 1.9656(4) -0.0725(4)
N1A_2 N -0.6320(7) 0.9656(4) 0.9275(4)
N1_2 N 1.6320(7) 1.0344(4) 0.0725(4)
O6A O 0.0874(7) 2.2569(4) -0.1507(3)
N2A N 0.3487(8) 1.1324(4) 0.5098(4)
O7A O 1.6781(7) 1.1996(4) 0.1738(4)
H1A H 1.7383 1.2021 0.1181
H2A H 1.7389 1.1545 0.2117
N3A N 1.2329(7) 1.1794(4) 0.2242(4)
O8A O -0.0700(7) 2.2448(4) -0.0043(3)
O9A O 1.2475(7) 0.9552(4) 0.4142(3)
C3A C 0.3343(8) 1.9108(5) 0.0196(4)
C4A C 0.1550(9) 2.1063(5) -0.0320(4)
C5A C 1.1673(9) 1.1201(5) 0.3111(4)
C6A C 1.0137(9) 1.1558(5) 0.3704(4)
H3A H 0.9741 1.1157 0.4316
C7A C 0.2229(9) 1.1190(5) 0.5929(4)
C8A C 1.1477(9) 1.2742(5) 0.1935(5)
H4A H 1.1963 1.3154 0.1341
O10A O 0.3493(7) 1.4253(4) 0.3214(4)
C9A C 0.9208(9) 1.2521(5) 0.3369(5)
H5A H 0.8130 1.2761 0.3742
C10A C 0.3500(10) 1.2233(5) 0.4479(5)
H6A H 0.4395 1.2319 0.3922
C11A C 0.0515(9) 2.2121(5) -0.0654(5)
C12A C 1.2802(9) 1.0142(5) 0.3340(4)
C13A C 0.2158(8) 1.9507(5) 0.0892(4)
H7A H 0.1963 1.9119 0.1520
C14A C 0.1278(9) 2.0496(5) 0.0622(4)
H8A H 0.0490 2.0790 0.1077
C15A C 0.2100(10) 1.4097(5) 0.3880(5)
C16A C 0.2776(9) 2.0620(5) -0.0973(4)
H9A H 0.2985 2.0997 -0.1605
C17A C 0.0936(11) 1.1994(6) 0.6151(5)
H10A H 0.0122 1.1893 0.6735
C18A C 0.2202(9) 1.3089(5) 0.4629(5)
C19A C 0.0884(11) 1.2952(6) 0.5483(5)
H11A H -0.0011 1.3495 0.5599
C20A C 0.8902(9) 1.4195(5) 0.2021(5)
C21A C 0.9878(9) 1.3133(5) 0.2477(5)
O11A O 0.9814(6) 1.4701(4) 0.1254(4)
O12A O 0.5025(6) 1.4042(4) 0.1299(3)
H12A H 0.4416 1.3546 0.1342
H13A H 0.6093 1.3779 0.1431
O13A O 0.2916(7) 1.5804(3) 0.0638(3)
H14A H 0.1745 1.5758 0.0746
H15A H 0.3416 1.5603 0.0146
O14A O 0.1644(7) 1.6228(4) 0.2515(4)
H16A H 0.0872 1.5881 0.2963
H17A H 0.1158 1.6856 0.2377
O15A O 0.7050(6) 1.5910(4) 0.0592(3)
H18A H 0.8190 1.5722 0.0380
H19A H 0.6798 1.6538 0.0291
O16A O 0.5835(8) 1.6414(4) 0.2713(4)
H20A H 0.6133 1.6061 0.3235
H21A H 0.6692 1.6806 0.2414
O17A O 0.0576(8) 1.4686(4) 0.3954(4)
O20A O 0.1283(7) 0.9908(4) 0.7351(3)
O18 O 0.6014(11) 0.2527(5) 0.6055(5)
H22 H 0.6069 0.1941 0.5947
H23 H 0.6827 0.2478 0.6385
O19 O 0.3352(11) 0.5665(6) 0.5413(6)
H24 H 0.2241 0.5580 0.5406
H25 H 0.3307 0.6238 0.5544
loop_
_geom_bond_atom_site_label_1
_geom_bond_atom_site_label_2
_geom_bond_site_symmetry_1
_geom_bond_site_symmetry_2
O1 C1 1_555 1_555
C1 C7 1_555 1_555
O2 Ho1 1_555 1_555
Ho1 O5 1_555 1_555
Cu1 O1 1_555 1_555
Cu2 O3 1_555 1_555
O3 C12 1_555 1_555
C2 O4 1_555 1_555
O4 Cu2A_2 1_555 1_555
O5 C2 1_555 1_555
N1 C3 1_555 1_555
O6 C11 1_555 1_555
N2 Cu1 1_555 1_555
O7 Cu2 1_555 1_555
H1 O7 1_555 1_555
H2 O7 1_555 1_555
N3 Cu2 1_555 1_555
O8 C11 1_555 1_555
O9 C12 1_555 1_555
C3 C2 1_555 1_555
C4 C11 1_555 1_555
C5 N3 1_555 1_555
C6 C5 1_555 1_555
H3 C6 1_555 1_555
C7 N2 1_555 1_555
C8 N3 1_555 1_555
H4 C8 1_555 1_555
O10 Ho1 1_555 1_555
C9 C6 1_555 1_555
H5 C9 1_555 1_555
C10 N2 1_555 1_555
H6 C10 1_555 1_555
C12 C5 1_555 1_555
C13 C3 1_555 1_555
H7 C13 1_555 1_555
C14 C4 1_555 1_555
H8 C14 1_555 1_555
C15 O10 1_555 1_555
C16 N1 1_555 1_555
H9 C16 1_555 1_555
C17 C7 1_555 1_555
H10 C17 1_555 1_555
C18 C10 1_555 1_555
C19 C17 1_555 1_555
H11 C19 1_555 1_555
C20 O2 1_555 1_555
C21 C8 1_555 1_555
O11 C20 1_555 1_555
O12 Ho1 1_555 1_555
H12 O12 1_555 1_555
H13 O12 1_555 1_555
O13 Ho1 1_555 1_555
H14 O13 1_555 1_555
H15 O13 1_555 1_555
O14 Ho1 1_555 1_555
H16 O14 1_555 1_555
H17 O14 1_555 1_555
O15 Ho1 1_555 1_555
H18 O15 1_555 1_555
H19 O15 1_555 1_555
O16 Ho1 1_555 1_555
H20 O16 1_555 1_555
H21 O16 1_555 1_555
O17 C15 1_555 1_555
O18 H22 1_555 1_555
H23 O18 1_555 1_555
O19 H24 1_555 1_555
H25 O19 1_555 1_555
O20 C1 1_555 1_555
O1A Cu1 1_555 1_555
C1A O1A 1_555 1_555
O2A Ho1A 1_555 1_555
Ho1A O5A 1_555 1_555
Cu2A O3A 1_555 1_555
Cu2A_2 N1 1_555 1_555
Cu2_2 O4A 1_555 1_555
O3A C12A 1_555 1_555
C2A O4A 1_555 1_555
O4A_2 Cu2 1_555 1_555
O4_2 Cu2A 1_555 1_555
O5A C2A 1_555 1_555
N1A Cu2_2 1_555 1_555
N1A_2 Cu2 1_555 1_555
N1_2 Cu2A 1_555 1_555
O6A C11A 1_555 1_555
N2A Cu1 1_555 1_555
O7A Cu2A 1_555 1_555
H1A O7A 1_555 1_555
H2A O7A 1_555 1_555
N3A Cu2A 1_555 1_555
O8A C11A 1_555 1_555
O9A C12A 1_555 1_555
C3A C2A 1_555 1_555
C4A C11A 1_555 1_555
C5A N3A 1_555 1_555
C6A C5A 1_555 1_555
H3A C6A 1_555 1_555
C7A C1A 1_555 1_555
C8A N3A 1_555 1_555
H4A C8A 1_555 1_555
O10A Ho1A 1_555 1_555
C9A C6A 1_555 1_555
H5A C9A 1_555 1_555
C10A N2A 1_555 1_555
H6A C10A 1_555 1_555
C12A C5A 1_555 1_555
C13A C3A 1_555 1_555
H7A C13A 1_555 1_555
C14A C4A 1_555 1_555
H8A C14A 1_555 1_555
C15A O10A 1_555 1_555
C16A N1A 1_555 1_555
H9A C16A 1_555 1_555
C17A C7A 1_555 1_555
H10A C17A 1_555 1_555
C18A C10A 1_555 1_555
C19A C17A 1_555 1_555
H11A C19A 1_555 1_555
C20A O2A 1_555 1_555
C21A C8A 1_555 1_555
O11A C20A 1_555 1_555
O12A Ho1A 1_555 1_555
H12A O12A 1_555 1_555
H13A O12A 1_555 1_555
O13A Ho1A 1_555 1_555
H14A O13A 1_555 1_555
H15A O13A 1_555 1_555
O14A Ho1A 1_555 1_555
H16A O14A 1_555 1_555
H17A O14A 1_555 1_555
O15A Ho1A 1_555 1_555
H18A O15A 1_555 1_555
H19A O15A 1_555 1_555
O16A Ho1A 1_555 1_555
H20A O16A 1_555 1_555
H21A O16A 1_555 1_555
O17A C15A 1_555 1_555
O20A C1A 1_555 1_555
C4 C16 1_555 1_555
C9 C21 1_555 1_555
C13 C14 1_555 1_555
C15 C18 1_555 1_555
C18 C19 1_555 1_555
C20 C21 1_555 1_555
N1A C3A 1_555 1_555
N2A C7A 1_555 1_555
C4A C16A 1_555 1_555
C9A C21A 1_555 1_555
C13A C14A 1_555 1_555
C15A C18A 1_555 1_555
C18A C19A 1_555 1_555
C20A C21A 1_555 1_555

#END
