
#######################################################################
#
#                 Cambridge Crystallographic Data Centre
#                                CCDC 
#
#######################################################################
#
# If this CIF has been generated from an entry in the Cambridge 
# Structural Database, then it will include bibliographic, chemical, 
# crystal, experimental, refinement or atomic coordinate data resulting 
# from the CCDC's data processing and validation procedures.
#
#######################################################################

data_GERVIK
_symmetry_cell_setting           monoclinic
_symmetry_space_group_name_H-M   'P 21/c'
_symmetry_Int_Tables_number      14
_space_group_name_Hall           '-P 2ybc'
loop_
_symmetry_equiv_pos_site_id
_symmetry_equiv_pos_as_xyz
1 x,y,z
2 -x,1/2+y,1/2-z
3 -x,-y,-z
4 x,1/2-y,1/2+z
_cell_length_a                   7.8379(6)
_cell_length_b                   25.635(2)
_cell_length_c                   9.3470(7)
_cell_angle_alpha                90
_cell_angle_beta                 97.1830(10)
_cell_angle_gamma                90
_cell_volume                     1863.3
loop_
_atom_site_label
_atom_site_type_symbol
_atom_site_fract_x
_atom_site_fract_y
_atom_site_fract_z
Cu1 Cu 0.5000 0.0000 0.0000
Nd1 Nd 0.98657(3) -0.150050(9) 0.91248(3)
C1 C 0.6199(6) -0.14317(19) 0.9955(6)
H1 H 0.6168 -0.1183 0.9229
C2 C 0.4915(7) -0.1583(2) 1.0533(6)
C3 C 0.4965(6) -0.1983(2) 1.1733(8)
H2 H 0.3926 -0.2064 1.2063
C4 C 0.6274(7) -0.2212(2) 1.2319(8)
H3 H 0.6345 -0.2453 1.3067
C5 C 0.7496(6) -0.20414(19) 1.1659(6)
C6 C 0.8975(6) -0.22719(19) 1.2241(6)
C7 C 0.3541(7) -0.1313(2) 0.9832(6)
C8 C 0.2811(6) -0.0072(2) 0.1964(7)
C9 C 0.4051(6) -0.0365(2) 0.2995(6)
C10 C 0.3959(7) -0.0636(2) 0.4469(7)
H4 H 0.2893 -0.0628 0.4809
C11 C 0.5187(7) -0.0876(2) 0.5294(7)
H5 H 0.5133 -0.1034 0.6183
C12 C 0.6479(6) -0.0840(2) 0.4589(6)
C13 C 0.6479(6) -0.0564(2) 0.3068(6)
H6 H 0.7526 -0.0576 0.2698
C14 C 0.7856(6) -0.1095(2) 0.5419(6)
N1 N 0.5298(5) -0.03318(17) 0.2280(5)
N2 N 0.7474(5) -0.16583(16) 1.0484(4)
O2 O 1.0987(5) -0.16439(19) 0.6460(5)
H9 H 1.0379 -0.1509 0.5583
H10 H 1.1362 -0.1874 0.5855
O3 O 1.0656(5) -0.06358(16) 0.8231(7)
H11 H 1.0212 -0.0382 0.7845
H12 H 1.0624 -0.0605 0.9009
O4 O 0.9778(5) -0.08964(15) 1.1532(5)
H13 H 0.9450 -0.1004 1.2396
H14 H 1.0357 -0.0612 1.1721
O5 O 1.0035(4) -0.20588(14) 1.1707(4)
O6 O 0.9028(4) -0.26497(15) 1.3250(5)
O7 O 0.1617(5) -0.00826(15) 0.2516(4)
O8 O 0.3107(4) 0.01622(16) 0.0638(5)
O9 O 0.7915(5) -0.12207(14) 0.6961(4)
O10 O 0.8831(5) -0.1162(2) 0.4491(5)
O11 O 0.3596(5) -0.08854(16) 0.9105(5)
O12 O 0.2379(5) -0.15617(16) 1.0050(5)
Nd1B Nd 0.01343(3) 0.150050(9) -0.91248(3)
Nd1C Nd 0.98657(3) -0.349950(9) 1.41248(3)
Nd1_2 Nd -0.01343(3) -0.150050(9) 0.91248(3)
Nd1C_2 Nd 0.98657(3) -0.349950(9) 0.41248(3)
Nd1C_3 Nd -0.01343(3) -0.349950(9) 0.41248(3)
C1C C 0.6199(6) -0.35683(19) 0.4955(6)
H1C H 0.6168 -0.3817 0.4229
C2C C 0.4915(7) -0.3417(2) 0.5533(6)
C3C C 0.4965(6) -0.3017(2) 0.6733(8)
H2C H 0.3926 -0.2936 0.7063
C4C C 0.6274(7) -0.2788(2) 0.7319(8)
H3C H 0.6345 -0.2547 0.8067
C5C C 0.7496(6) -0.29586(19) 0.6659(6)
C6C C 0.8975(6) -0.27281(19) 0.7241(6)
C7C C 0.3541(7) -0.3687(2) 0.4832(6)
C8B C 0.7189(6) 0.0072(2) -0.1964(7)
C9B C 0.5949(6) 0.0365(2) -0.2995(6)
C10B C 0.6041(7) 0.0636(2) -0.4469(7)
H4B H 0.7107 0.0628 -0.4809
C11B C 0.4813(7) 0.0876(2) -0.5294(7)
H5B H 0.4867 0.1034 -0.6183
C12B C 0.3521(6) 0.0840(2) -0.4589(6)
C13B C 0.3521(6) 0.0564(2) -0.3068(6)
H6B H 0.2474 0.0576 -0.2698
C14B C 0.2144(6) 0.1095(2) -0.5419(6)
N1B N 0.4702(5) 0.03318(17) -0.2280(5)
N2C N 0.7474(5) -0.33417(16) 0.5484(4)
N2B N 0.2526(5) 0.16583(16) -1.0484(4)
O2B O -0.0987(5) 0.16439(19) -0.6460(5)
H9B H -0.0379 0.1509 -0.5583
H10B H -0.1362 0.1874 -0.5855
O3B O -0.0656(5) 0.06358(16) -0.8231(7)
H11B H -0.0212 0.0382 -0.7845
H12B H -0.0624 0.0605 -0.9009
O4B O 0.0222(5) 0.08964(15) -1.1532(5)
H13B H 0.0550 0.1004 -1.2396
H14B H -0.0357 0.0612 -1.1721
O5C O 1.0035(4) -0.29412(14) 0.6707(4)
O5B O -0.0035(4) 0.20588(14) -1.1707(4)
O6C O 0.9028(4) -0.23503(15) 0.8250(5)
O6A O 0.0972(4) 0.23503(15) -0.8250(5)
O7B O 0.8383(5) 0.00826(15) -0.2516(4)
O8B O 0.6893(4) -0.01622(16) -0.0638(5)
O9B O 0.2085(5) 0.12207(14) -0.6961(4)
O10B O 0.1169(5) 0.1162(2) -0.4491(5)
O11C O 0.3596(5) -0.41146(16) 0.4105(5)
O12C O 0.2379(5) -0.34383(16) 0.5050(5)
O12_2 O 1.2379(5) -0.15617(16) 1.0050(5)
O12B O -0.2379(5) 0.15617(16) -1.0050(5)
O1 O 0.7579(5) 0.22813(19) 0.5666(6)
H7 H 0.8180 0.2257 0.6664
H8 H 0.8008 0.2647 0.5805
loop_
_geom_bond_atom_site_label_1
_geom_bond_atom_site_label_2
_geom_bond_site_symmetry_1
_geom_bond_site_symmetry_2
Cu1 N1 1_555 1_555
Nd1 N2 1_555 1_555
C1 H1 1_555 1_555
C2 C1 1_555 1_555
C3 C2 1_555 1_555
H2 C3 1_555 1_555
C4 C3 1_555 1_555
H3 C4 1_555 1_555
C5 C4 1_555 1_555
C6 C5 1_555 1_555
C7 C2 1_555 1_555
C8 C9 1_555 1_555
C9 C10 1_555 1_555
C10 H4 1_555 1_555
C11 C10 1_555 1_555
H5 C11 1_555 1_555
C12 C11 1_555 1_555
C13 C12 1_555 1_555
H6 C13 1_555 1_555
C14 C12 1_555 1_555
N1 C9 1_555 1_555
N2 C1 1_555 1_555
O1 H7 1_555 1_555
H8 O1 1_555 1_555
O2 Nd1 1_555 1_555
H9 O2 1_555 1_555
H10 O2 1_555 1_555
O3 Nd1 1_555 1_555
H11 O3 1_555 1_555
H12 O3 1_555 1_555
O4 Nd1 1_555 1_555
H13 O4 1_555 1_555
H14 O4 1_555 1_555
O5 Nd1 1_555 1_555
O6 C6 1_555 1_555
O7 C8 1_555 1_555
O8 Cu1 1_555 1_555
O9 Nd1 1_555 1_555
O10 C14 1_555 1_555
O11 C7 1_555 1_555
O12 C7 1_555 1_555
Nd1B N2B 1_555 1_555
Nd1C O6 1_555 1_555
Nd1_2 O12 1_555 1_555
Nd1C_2 N2C 1_555 1_555
Nd1C_3 O12C 1_555 1_555
C1C H1C 1_555 1_555
C2C C1C 1_555 1_555
C3C C2C 1_555 1_555
H2C C3C 1_555 1_555
C4C C3C 1_555 1_555
H3C C4C 1_555 1_555
C5C C4C 1_555 1_555
C6C C5C 1_555 1_555
C7C C2C 1_555 1_555
C8B C9B 1_555 1_555
C9B C10B 1_555 1_555
C10B H4B 1_555 1_555
C11B C10B 1_555 1_555
H5B C11B 1_555 1_555
C12B C11B 1_555 1_555
C13B C12B 1_555 1_555
H6B C13B 1_555 1_555
C14B C12B 1_555 1_555
N1B Cu1 1_555 1_555
N2C C1C 1_555 1_555
O2B Nd1B 1_555 1_555
H9B O2B 1_555 1_555
H10B O2B 1_555 1_555
O3B Nd1B 1_555 1_555
H11B O3B 1_555 1_555
H12B O3B 1_555 1_555
O4B Nd1B 1_555 1_555
H13B O4B 1_555 1_555
H14B O4B 1_555 1_555
O5C Nd1C_2 1_555 1_555
O5B Nd1B 1_555 1_555
O6C Nd1 1_555 1_555
O6A Nd1B 1_555 1_555
O7B C8B 1_555 1_555
O8B Cu1 1_555 1_555
O9B Nd1B 1_555 1_555
O10B C14B 1_555 1_555
O11C C7C 1_555 1_555
O12C C7C 1_555 1_555
O12_2 Nd1 1_555 1_555
O12B Nd1B 1_555 1_555
C5 N2 1_555 1_555
C6 O5 1_555 1_555
C8 O8 1_555 1_555
C13 N1 1_555 1_555
C14 O9 1_555 1_555
C5C N2C 1_555 1_555
C6C O5C 1_555 1_555
C6C O6C 1_555 1_555
C8B O8B 1_555 1_555
C9B N1B 1_555 1_555
C13B N1B 1_555 1_555
C14B O9B 1_555 1_555

#END
