
#######################################################################
#
#                 Cambridge Crystallographic Data Centre
#                                CCDC 
#
#######################################################################
#
# If this CIF has been generated from an entry in the Cambridge 
# Structural Database, then it will include bibliographic, chemical, 
# crystal, experimental, refinement or atomic coordinate data resulting 
# from the CCDC's data processing and validation procedures.
#
#######################################################################

data_GERVEG
_symmetry_cell_setting           triclinic
_symmetry_space_group_name_H-M   'P -1'
_symmetry_Int_Tables_number      2
_space_group_name_Hall           '-P 1'
loop_
_symmetry_equiv_pos_site_id
_symmetry_equiv_pos_as_xyz
1 x,y,z
2 -x,-y,-z
_cell_length_a                   7.359(2)
_cell_length_b                   13.569(4)
_cell_length_c                   15.148(4)
_cell_angle_alpha                72.674(4)
_cell_angle_beta                 76.370(4)
_cell_angle_gamma                80.122(4)
_cell_volume                     1394.89
loop_
_atom_site_label
_atom_site_type_symbol
_atom_site_fract_x
_atom_site_fract_y
_atom_site_fract_z
Lu1 Lu 0.96106(2) 0.053591(12) 0.688578(12)
Cu1 Cu 1.0000 -0.5000 1.0000
Cu2 Cu 1.05435(7) 0.38962(4) 0.34656(4)
C1 C 1.3894(6) -0.0801(3) 0.7003(3)
C2 C 1.4847(6) -0.1856(3) 0.7471(3)
C3 C 1.4192(6) -0.2475(4) 0.8368(3)
H1 H 1.3116 -0.2236 0.8744
C4 C 1.5123(6) -0.3436(4) 0.8704(3)
H2 H 1.4725 -0.3838 0.9314
C5 C 1.6667(6) -0.3792(3) 0.8111(3)
C6 C 1.7784(6) -0.4851(3) 0.8339(3)
C7 C 1.6431(6) -0.2246(3) 0.6929(3)
H3 H 1.6904 -0.1838 0.6333
C8 C 0.7118(7) -0.0891(3) 0.8863(3)
C9 C 0.7217(6) -0.1902(3) 0.9621(3)
C10 C 0.5949(7) -0.2028(4) 1.0478(4)
H4 H 0.5090 -0.1474 1.0602
C11 C 0.5973(7) -0.2983(4) 1.1147(4)
H5 H 0.5156 -0.3077 1.1729
C12 C 0.7236(6) -0.3787(3) 1.0925(3)
C13 C 0.7332(6) -0.4888(3) 1.1576(3)
C14 C 0.8503(6) -0.2742(3) 0.9459(3)
H6 H 0.9383 -0.2661 0.8897
C15 C 0.9408(6) 0.3015(3) 0.5375(3)
C16 C 0.8356(6) 0.4101(3) 0.5195(3)
C17 C 0.7181(6) 0.4495(3) 0.5887(3)
H7 H 0.6996 0.4103 0.6514
C18 C 0.6273(6) 0.5495(3) 0.5630(3)
H8 H 0.5479 0.5784 0.6086
C19 C 0.6561(6) 0.6062(3) 0.4684(3)
C20 C 0.5502(6) 0.7131(3) 0.4354(3)
C21 C 0.7794(6) 0.5612(3) 0.4031(3)
H9 H 0.8008 0.5989 0.3401
N1 N 0.8689(5) 0.4654(3) 0.4273(3)
N2 N 0.8486(5) -0.3675(3) 1.0108(3)
N3 N 1.7305(5) -0.3200(3) 0.7241(3)
O1 O 1.9051(4) -0.5055(2) 0.7655(2)
O2 O 1.7453(5) -0.5444(3) 0.9142(2)
O3 O 0.8525(5) -0.5562(2) 1.1243(2)
O4 O 0.6281(5) -0.5080(3) 1.2355(2)
O5 O 0.5879(5) 0.7578(3) 0.3493(3)
O6 O 0.4275(5) 0.7456(2) 0.4966(2)
O7 O 0.8234(5) 0.2994(3) 0.3254(3)
H10 H 0.7841 0.3566 0.2888
H11 H 0.7419 0.2947 0.3766
O8 O 1.0565(4) 0.2816(2) 0.4671(2)
O9 O 0.9082(4) 0.2407(2) 0.6182(2)
O10 O 0.8504(5) -0.0733(3) 0.8191(3)
O11 O 0.5617(6) -0.0301(3) 0.8931(3)
O12 O 1.4791(4) -0.0292(3) 0.6245(3)
O13 O 1.2254(4) -0.0542(3) 0.7404(2)
O14 O 0.6697(5) 0.1211(3) 0.7487(3)
H12 H 0.6064 0.0814 0.7962
H13 H 0.5965 0.1748 0.7289
O15 O 0.7927(4) 0.0806(2) 0.5642(2)
H14 H 0.6775 0.0967 0.5602
H15 H 0.8330 0.0281 0.5426
O16 O 0.9985(5) -0.0948(2) 0.6298(3)
H16 H 0.9550 -0.0884 0.6853
H17 H 1.1103 -0.1241 0.6293
O17 O 1.1999(4) 0.0894(2) 0.5616(2)
H18 H 1.2790 0.0744 0.5158
H19 H 1.1377 0.1358 0.5252
O18 O 1.0759(5) 0.1370(3) 0.7713(3)
H20 H 1.0644 0.1420 0.8271
H21 H 1.1581 0.1759 0.7357
Lu1A Lu 1.03894(2) -1.053591(12) 1.311422(12)
Cu2A Cu 0.94565(7) -1.38962(4) 1.65344(4)
Cu2A_2 Cu 1.94565(7) -0.38962(4) 0.65344(4)
Cu2_2 Cu 0.05435(7) -0.61038(4) 1.34656(4)
C1A C 0.6106(6) -0.9199(3) 1.2997(3)
C2A C 0.5153(6) -0.8144(3) 1.2529(3)
C3A C 0.5808(6) -0.7525(4) 1.1632(3)
H1A H 0.6884 -0.7764 1.1256
C4A C 0.4877(6) -0.6564(4) 1.1296(3)
H2A H 0.5275 -0.6162 1.0686
C5A C 0.3333(6) -0.6208(3) 1.1889(3)
C6A C 0.2216(6) -0.5149(3) 1.1661(3)
C7A C 0.3569(6) -0.7754(3) 1.3071(3)
H3A H 0.3096 -0.8162 1.3667
C8A C 1.2882(7) -0.9109(3) 1.1137(3)
C9A C 1.2783(6) -0.8098(3) 1.0379(3)
C10A C 1.4051(7) -0.7972(4) 0.9522(4)
H4A H 1.4910 -0.8526 0.9398
C11A C 1.4027(7) -0.7017(4) 0.8853(4)
H5A H 1.4844 -0.6923 0.8271
C12A C 1.2764(6) -0.6213(3) 0.9075(3)
C13A C 1.2668(6) -0.5112(3) 0.8424(3)
C14A C 1.1497(6) -0.7258(3) 1.0541(3)
H6A H 1.0617 -0.7339 1.1103
C15A C 1.0592(6) -1.3015(3) 1.4625(3)
C16A C 1.1644(6) -1.4101(3) 1.4805(3)
C17A C 1.2819(6) -1.4495(3) 1.4113(3)
H7A H 1.3004 -1.4103 1.3486
C18A C 1.3727(6) -1.5495(3) 1.4370(3)
H8A H 1.4521 -1.5784 1.3914
C19A C 1.3439(6) -1.6062(3) 1.5316(3)
C20A C 1.4498(6) -1.7131(3) 1.5646(3)
C21A C 1.2206(6) -1.5612(3) 1.5969(3)
H9A H 1.1992 -1.5989 1.6599
N1A N 1.1311(5) -1.4654(3) 1.5727(3)
N2A N 1.1514(5) -0.6325(3) 0.9892(3)
N3A N 0.2695(5) -0.6800(3) 1.2759(3)
N3A_2 N 1.2695(5) 0.3200(3) 0.2759(3)
N3_2 N 0.7305(5) -1.3200(3) 1.7241(3)
O1A O 0.0949(4) -0.4945(2) 1.2345(2)
O1A_2 O 1.0949(4) 0.5055(2) 0.2345(2)
O1_2 O 0.9051(4) -1.5055(2) 1.7655(2)
O2A O 0.2547(5) -0.4556(3) 1.0858(2)
O3A O 1.1475(5) -0.4438(2) 0.8757(2)
O4A O 1.3719(5) -0.4920(3) 0.7645(2)
O5A O 1.4121(5) -1.7578(3) 1.6507(3)
O6A O 1.5725(5) -1.7456(2) 1.5034(2)
O7A O 1.1766(5) -1.2994(3) 1.6746(3)
H10A H 1.2159 -1.3566 1.7112
H11A H 1.2581 -1.2947 1.6234
O8A O 0.9435(4) -1.2816(2) 1.5329(2)
O9A O 1.0918(4) -1.2407(2) 1.3818(2)
O10A O 1.1496(5) -0.9267(3) 1.1809(3)
O11A O 1.4383(6) -0.9699(3) 1.1069(3)
O12A O 0.5209(4) -0.9708(3) 1.3755(3)
O13A O 0.7746(4) -0.9458(3) 1.2596(2)
O14A O 1.3303(5) -1.1211(3) 1.2513(3)
H12A H 1.3936 -1.0814 1.2038
H13A H 1.4035 -1.1748 1.2711
O15A O 1.2073(4) -1.0806(2) 1.4358(2)
H14A H 1.3225 -1.0967 1.4398
H15A H 1.1670 -1.0281 1.4574
O16A O 1.0015(5) -0.9052(2) 1.3702(3)
H16A H 1.0450 -0.9116 1.3147
H17A H 0.8897 -0.8759 1.3707
O17A O 0.8001(4) -1.0894(2) 1.4384(2)
H18A H 0.7210 -1.0744 1.4842
H19A H 0.8623 -1.1358 1.4748
O18A O 0.9241(5) -1.1370(3) 1.2287(3)
H20A H 0.9356 -1.1420 1.1729
H21A H 0.8419 -1.1759 1.2643
O19 O 0.8999(8) 0.2454(4) 0.8919(4)
H22 H 0.8819 0.1913 0.9375
H23 H 0.8339 0.3041 0.8813
O20 O 0.1597(8) 0.9360(4) 0.9568(4)
H24 H 0.2724 0.9511 0.9397
H25 H 0.1200 0.9397 0.9074
loop_
_geom_bond_atom_site_label_1
_geom_bond_atom_site_label_2
_geom_bond_site_symmetry_1
_geom_bond_site_symmetry_2
Lu1 O9 1_555 1_555
Cu1 N2 1_555 1_555
Cu2 N1 1_555 1_555
C1 C2 1_555 1_555
C2 C3 1_555 1_555
C3 H1 1_555 1_555
C4 C3 1_555 1_555
H2 C4 1_555 1_555
C5 C4 1_555 1_555
C6 C5 1_555 1_555
C7 C2 1_555 1_555
H3 C7 1_555 1_555
C8 C9 1_555 1_555
C9 C10 1_555 1_555
C10 H4 1_555 1_555
C11 C10 1_555 1_555
H5 C11 1_555 1_555
C12 C11 1_555 1_555
C13 C12 1_555 1_555
C14 C9 1_555 1_555
H6 C14 1_555 1_555
C15 C16 1_555 1_555
C16 C17 1_555 1_555
C17 H7 1_555 1_555
C18 C17 1_555 1_555
H8 C18 1_555 1_555
C19 C18 1_555 1_555
C20 C19 1_555 1_555
C21 C19 1_555 1_555
H9 C21 1_555 1_555
N1 C16 1_555 1_555
N2 C12 1_555 1_555
N3 C5 1_555 1_555
O1 C6 1_555 1_555
O2 C6 1_555 1_555
O3 Cu1 1_555 1_555
O4 C13 1_555 1_555
O5 C20 1_555 1_555
O6 C20 1_555 1_555
O7 Cu2 1_555 1_555
H10 O7 1_555 1_555
H11 O7 1_555 1_555
O8 Cu2 1_555 1_555
O9 C15 1_555 1_555
O10 Lu1 1_555 1_555
O11 C8 1_555 1_555
O12 C1 1_555 1_555
O13 Lu1 1_555 1_555
O14 Lu1 1_555 1_555
H12 O14 1_555 1_555
H13 O14 1_555 1_555
O15 Lu1 1_555 1_555
H14 O15 1_555 1_555
H15 O15 1_555 1_555
O16 Lu1 1_555 1_555
H16 O16 1_555 1_555
H17 O16 1_555 1_555
O17 Lu1 1_555 1_555
H18 O17 1_555 1_555
H19 O17 1_555 1_555
O18 Lu1 1_555 1_555
H20 O18 1_555 1_555
H21 O18 1_555 1_555
O19 H22 1_555 1_555
H23 O19 1_555 1_555
O20 H24 1_555 1_555
H25 O20 1_555 1_555
Lu1A O9A 1_555 1_555
Cu2A N1A 1_555 1_555
Cu2A_2 N3 1_555 1_555
Cu2_2 N3A 1_555 1_555
C1A C2A 1_555 1_555
C2A C3A 1_555 1_555
C3A H1A 1_555 1_555
C4A C3A 1_555 1_555
H2A C4A 1_555 1_555
C5A C4A 1_555 1_555
C6A C5A 1_555 1_555
C7A C2A 1_555 1_555
H3A C7A 1_555 1_555
C8A C9A 1_555 1_555
C9A C10A 1_555 1_555
C10A H4A 1_555 1_555
C11A C10A 1_555 1_555
H5A C11A 1_555 1_555
C12A C11A 1_555 1_555
C13A C12A 1_555 1_555
C14A C9A 1_555 1_555
H6A C14A 1_555 1_555
C15A C16A 1_555 1_555
C16A C17A 1_555 1_555
C17A H7A 1_555 1_555
C18A C17A 1_555 1_555
H8A C18A 1_555 1_555
C19A C18A 1_555 1_555
C20A C19A 1_555 1_555
C21A C19A 1_555 1_555
H9A C21A 1_555 1_555
N1A C16A 1_555 1_555
N2A Cu1 1_555 1_555
N3A C5A 1_555 1_555
N3A_2 Cu2 1_555 1_555
N3_2 Cu2A 1_555 1_555
O1A Cu2_2 1_555 1_555
O1A_2 Cu2 1_555 1_555
O1_2 Cu2A 1_555 1_555
O2A C6A 1_555 1_555
O3A Cu1 1_555 1_555
O4A C13A 1_555 1_555
O5A C20A 1_555 1_555
O6A C20A 1_555 1_555
O7A Cu2A 1_555 1_555
H10A O7A 1_555 1_555
H11A O7A 1_555 1_555
O8A Cu2A 1_555 1_555
O9A C15A 1_555 1_555
O10A Lu1A 1_555 1_555
O11A C8A 1_555 1_555
O12A C1A 1_555 1_555
O13A Lu1A 1_555 1_555
O14A Lu1A 1_555 1_555
H12A O14A 1_555 1_555
H13A O14A 1_555 1_555
O15A Lu1A 1_555 1_555
H14A O15A 1_555 1_555
H15A O15A 1_555 1_555
O16A Lu1A 1_555 1_555
H16A O16A 1_555 1_555
H17A O16A 1_555 1_555
O17A Lu1A 1_555 1_555
H18A O17A 1_555 1_555
H19A O17A 1_555 1_555
O18A Lu1A 1_555 1_555
H20A O18A 1_555 1_555
H21A O18A 1_555 1_555
C1 O13 1_555 1_555
C7 N3 1_555 1_555
C8 O10 1_555 1_555
C13 O3 1_555 1_555
C14 N2 1_555 1_555
C15 O8 1_555 1_555
C21 N1 1_555 1_555
O1 Cu2A_2 1_555 1_555
C1A O13A 1_555 1_555
C6A O1A 1_555 1_555
C7A N3A 1_555 1_555
C8A O10A 1_555 1_555
C12A N2A 1_555 1_555
C13A O3A 1_555 1_555
C14A N2A 1_555 1_555
C15A O8A 1_555 1_555
C21A N1A 1_555 1_555

#END
