
#######################################################################
#
#                 Cambridge Crystallographic Data Centre
#                                CCDC 
#
#######################################################################
#
# If this CIF has been generated from an entry in the Cambridge 
# Structural Database, then it will include bibliographic, chemical, 
# crystal, experimental, refinement or atomic coordinate data resulting 
# from the CCDC's data processing and validation procedures.
#
#######################################################################

data_GERWIL
_symmetry_cell_setting           monoclinic
_symmetry_space_group_name_H-M   'C 2/c'
_symmetry_Int_Tables_number      15
_space_group_name_Hall           '-C 2yn'
loop_
_symmetry_equiv_pos_site_id
_symmetry_equiv_pos_as_xyz
1 x,y,z
2 -x,y,1/2-z
3 1/2+x,1/2+y,z
4 1/2-x,1/2+y,1/2-z
5 -x,-y,-z
6 x,-y,1/2+z
7 1/2-x,1/2-y,-z
8 1/2+x,1/2-y,1/2+z
_cell_length_a                   23.168(8)
_cell_length_b                   18.615(6)
_cell_length_c                   25.483(8)
_cell_angle_alpha                90
_cell_angle_beta                 101.768(4)
_cell_angle_gamma                90
_cell_volume                     10759.1
loop_
_atom_site_label
_atom_site_type_symbol
_atom_site_fract_x
_atom_site_fract_y
_atom_site_fract_z
C1 C 0.3997(2) 0.7115(3) 0.97030(19)
C2 C 0.38870(18) 0.6944(2) 0.91199(17)
C3 C 0.35415(18) 0.6355(3) 0.89170(18)
H1 H 0.3384 0.6066 0.9150
C4 C 0.34248(17) 0.6187(2) 0.83621(17)
C5 C 0.36928(17) 0.6611(2) 0.80292(17)
H2 H 0.3631 0.6507 0.7665
C6 C 0.40525(18) 0.7188(2) 0.82346(17)
C7 C 0.41411(19) 0.7356(2) 0.87730(18)
H3 H 0.4373 0.7750 0.8905
C8 C 0.43455(19) 0.7614(2) 0.7854(2)
C9 C 0.2912(3) 0.3227(3) 0.9501(2)
C10 C 0.3236(2) 0.3654(3) 0.91659(18)
C11 C 0.29583(19) 0.4208(2) 0.88454(17)
H4 H 0.2561 0.4298 0.8833
C12 C 0.32602(18) 0.4628(2) 0.85449(17)
C13 C 0.3860(2) 0.4485(3) 0.85682(19)
H5 H 0.4069 0.4766 0.8369
C14 C 0.4145(2) 0.3936(3) 0.8881(2)
C15 C 0.3839(2) 0.3519(3) 0.9179(2)
H6 H 0.4030 0.3148 0.9389
C16 C 0.4810(3) 0.3823(4) 0.8898(3)
C17 C 0.1447(2) 0.7038(3) 0.8939(2)
C18 C 0.15277(19) 0.6373(3) 0.8632(2)
C19 C 0.1074(2) 0.5885(3) 0.8484(2)
H7 H 0.0707 0.5979 0.8563
C20 C 0.11628(19) 0.5261(2) 0.82202(18)
C21 C 0.17064(18) 0.5126(2) 0.81003(17)
H8 H 0.1762 0.4705 0.7920
C22 C 0.21752(18) 0.5604(2) 0.82424(16)
C23 C 0.20717(19) 0.6222(2) 0.85124(18)
H9 H 0.2379 0.6547 0.8616
C24 C 0.0657(2) 0.4735(3) 0.8076(2)
C25 C 0.2330(2) 0.6196(3) 0.6071(2)
C26 C 0.2666(2) 0.5674(3) 0.64713(19)
C27 C 0.3005(2) 0.5138(3) 0.63130(19)
H10 H 0.3039 0.5106 0.5956
C28 C 0.3299(2) 0.4641(3) 0.66871(19)
C29 C 0.32632(18) 0.4711(2) 0.72234(18)
H11 H 0.3470 0.4391 0.7473
C30 C 0.29216(18) 0.5256(2) 0.73980(17)
C31 C 0.2629(2) 0.5719(3) 0.70082(19)
H12 H 0.2396 0.6079 0.7110
C32 C 0.3650(2) 0.4039(3) 0.6515(2)
O1 O 0.37953(14) 0.66786(17) 1.00053(12)
O2 O 0.42844(18) 0.7655(2) 0.98717(14)
O3 O 0.46995(12) 0.81173(15) 0.80755(12)
O4 O 0.42472(15) 0.74736(19) 0.73732(13)
O5 O 0.23678(17) 0.3350(2) 0.94552(14)
O6 O 0.32052(17) 0.27595(19) 0.98130(14)
O7 O 0.50282(17) 0.3321(2) 0.91374(17)
O8 O 0.5061(2) 0.4266(4) 0.8672(4)
O9 O 0.39537(19) 0.3664(3) 0.68579(16)
O10 O 0.36054(15) 0.39596(19) 0.60050(14)
O11 O 0.24777(18) 0.6189(2) 0.56072(15)
O12 O 0.1948(2) 0.6594(2) 0.61873(16)
O13 O 0.07084(13) 0.42368(17) 0.77522(14)
O14 O 0.02251(18) 0.4813(3) 0.8278(2)
O15 O 0.09299(13) 0.72958(17) 0.88625(13)
O16 O 0.18894(16) 0.7287(2) 0.92595(18)
O18 O 0.1157(2) 0.3633(3) 0.9826(3)
Si1 Si 0.29310(5) 0.54082(6) 0.81216(5)
Zn1 Zn 0.41170(2) 0.67763(3) 1.07913(2)
Zn2 Zn 0.5000 0.86275(4) 0.7500
Zn3 Zn 0.19734(3) 0.32425(3) 1.00712(3)
C1B C 0.8997(2) 1.2115(3) 0.97030(19)
C2B C 0.88870(18) 1.1944(2) 0.91199(17)
C3B C 0.85415(18) 1.1355(3) 0.89170(18)
H1B H 0.8384 1.1066 0.9150
C4B C 0.84248(17) 1.1187(2) 0.83621(17)
C5B C 0.86928(17) 1.1611(2) 0.80292(17)
H2B H 0.8631 1.1507 0.7665
C6B C 0.90525(18) 1.2188(2) 0.82346(17)
C7B C 0.91411(19) 1.2356(2) 0.87730(18)
H3B H 0.9373 1.2750 0.8905
C8B C 0.93455(19) 1.2614(2) 0.7854(2)
C9B C 0.7912(3) 0.8227(3) 0.9501(2)
C10B C 0.8236(2) 0.8654(3) 0.91659(18)
C11B C 0.79583(19) 0.9208(2) 0.88454(17)
H4B H 0.7561 0.9298 0.8833
C12B C 0.82602(18) 0.9628(2) 0.85449(17)
C13B C 0.8860(2) 0.9485(3) 0.85682(19)
H5B H 0.9069 0.9766 0.8369
C14B C 0.9145(2) 0.8936(3) 0.8881(2)
C15B C 0.8839(2) 0.8519(3) 0.9179(2)
H6B H 0.9030 0.8148 0.9389
C16B C 0.9810(3) 0.8823(4) 0.8898(3)
C17B C 0.6447(2) 1.2038(3) 0.8939(2)
C18B C 0.65277(19) 1.1373(3) 0.8632(2)
C19B C 0.6074(2) 1.0885(3) 0.8484(2)
H7B H 0.5707 1.0979 0.8563
C20B C 0.61628(19) 1.0261(2) 0.82202(18)
C21B C 0.67064(18) 1.0126(2) 0.81003(17)
H8B H 0.6762 0.9705 0.7920
C22B C 0.71752(18) 1.0604(2) 0.82424(16)
C23B C 0.70717(19) 1.1222(2) 0.85124(18)
H9B H 0.7379 1.1547 0.8616
C24B C 0.5657(2) 0.9735(3) 0.8076(2)
C25B C 0.7330(2) 1.1196(3) 0.6071(2)
C26B C 0.7666(2) 1.0674(3) 0.64713(19)
C27B C 0.8005(2) 1.0138(3) 0.63130(19)
H10B H 0.8039 1.0106 0.5956
C28B C 0.8299(2) 0.9641(3) 0.66871(19)
C29B C 0.82632(18) 0.9711(2) 0.72234(18)
H11B H 0.8470 0.9391 0.7473
C30B C 0.79216(18) 1.0256(2) 0.73980(17)
C31B C 0.7629(2) 1.0719(3) 0.70082(19)
H12B H 0.7396 1.1079 0.7110
C32B C 0.8650(2) 0.9039(3) 0.6515(2)
O1B O 0.87953(14) 1.16786(17) 1.00053(12)
O2B O 0.92844(18) 1.2655(2) 0.98717(14)
O3B O 0.96995(12) 1.31173(15) 0.80755(12)
O3A O 0.53005(12) 0.81173(15) 0.69245(12)
O4B O 0.92472(15) 1.24736(19) 0.73732(13)
O5B O 0.73678(17) 0.8350(2) 0.94552(14)
O6B O 0.82052(17) 0.77595(19) 0.98130(14)
O6F O 0.17948(17) 0.22405(19) 1.01870(14)
O6D O 0.67948(17) 0.72405(19) 1.01870(14)
O7B O 1.00282(17) 0.8321(2) 0.91374(17)
O7D O 0.49718(17) 0.6679(2) 1.08626(17)
O7F O 0.99718(17) 1.1679(2) 1.08626(17)
O8B O 1.0061(2) 0.9266(4) 0.8672(4)
O9B O 0.89537(19) 0.8664(3) 0.68579(16)
O10B O 0.86054(15) 0.89596(19) 0.60050(14)
O10E O 0.36054(15) 0.60404(19) 1.10050(14)
O10G O 0.86054(15) 1.10404(19) 1.10050(14)
O11B O 0.74777(18) 1.1189(2) 0.56072(15)
O11E O 0.24777(18) 0.3811(2) 1.06072(15)
O11G O 0.74777(18) 0.8811(2) 1.06072(15)
O12B O 0.6948(2) 1.1594(2) 0.61873(16)
O13B O 0.57084(13) 0.92368(17) 0.77522(14)
O13C O 0.42916(13) 0.92368(17) 0.72478(14)
O14B O 0.52251(18) 0.9813(3) 0.8278(2)
O15B O 0.59299(13) 1.22958(17) 0.88625(13)
O15F O 0.40701(13) 0.77042(17) 1.11375(13)
O15D O 0.90701(13) 1.27042(17) 1.11375(13)
O16B O 0.68894(16) 1.2287(2) 0.92595(18)
O18B O 0.6157(2) 0.8633(3) 0.9826(3)
Si1B Si 0.79310(5) 1.04082(6) 0.81216(5)
Zn1B Zn 0.91170(2) 1.17763(3) 1.07913(2)
Zn1D Zn 0.58830(2) 0.32237(3) 0.92087(2)
Zn1E Zn 0.41170(2) 0.32237(3) 0.57913(2)
Zn1F Zn 0.08830(2) 0.82237(3) 0.92087(2)
Zn1F_2 Zn 1.08830(2) 0.82237(3) 0.92087(2)
Zn1G Zn 0.91170(2) 0.82237(3) 0.57913(2)
Zn1D_2 Zn 0.58830(2) 1.32237(3) 0.92087(2)
Zn2B Zn 0.0000 0.36275(4) 0.7500
Zn2B_2 Zn 1.0000 1.36275(4) 0.7500
Zn3B Zn 0.69734(3) 0.82425(3) 1.00712(3)
Zn3F Zn 0.30266(3) 0.17575(3) 0.99288(3)
Zn3E Zn 0.19734(3) 0.67575(3) 0.50712(3)
Zn3D Zn 0.80266(3) 0.67575(3) 0.99288(3)
Zn3G Zn 0.69734(3) 1.17575(3) 0.50712(3)
C33 C 0.3715(4) 0.7045(6) 0.6187(3)
H13 H 0.3615 0.7526 0.6065
H14 H 0.3521 0.6931 0.6475
H15 H 0.3591 0.6714 0.5897
C34 C 0.4556(6) 0.6127(7) 0.6676(7)
H16 H 0.4977 0.6103 0.6791
H17 H 0.4427 0.5756 0.6417
H18 H 0.4374 0.6061 0.6978
N4 N 0.4353(3) 0.6990(6) 0.6376(3)
H42 H 0.4475 0.7337 0.6619
H43 H 0.4533 0.7056 0.6099
C35 C 0.2084(4) 0.6468(5) 0.0512(3)
H19 H 0.2115 0.6947 0.0654
H20 H 0.2188 0.6130 0.0800
H21 H 0.1686 0.6381 0.0326
C36 C 0.2457(4) 0.5636(5) -0.0106(3)
H22 H 0.2713 0.5608 -0.0357
H23 H 0.2059 0.5537 -0.0286
H24 H 0.2577 0.5290 0.0174
N3 N 0.2489(3) 0.6384(4) 0.0134(3)
H40 H 0.2861 0.6472 0.0309
H41 H 0.2396 0.6709 -0.0131
C37 C 0.8942(5) 0.5246(7) 0.8364(4)
H25 H 0.8827 0.5295 0.7982
H26 H 0.9245 0.5589 0.8500
H27 H 0.8607 0.5331 0.8524
C38 C 0.9369(4) 0.4391(6) 0.9078(4)
H28 H 0.9515 0.3909 0.9133
H29 H 0.9047 0.4457 0.9257
H30 H 0.9679 0.4723 0.9220
N2 N 0.9164(2) 0.4524(3) 0.8496(2)
H38 H 0.9466 0.4442 0.8330
H39 H 0.8877 0.4207 0.8366
C39 C 0.1947(5) 0.7727(6) 0.7425(5)
H31 H 0.1763 0.7768 0.7728
H32 H 0.1973 0.7229 0.7333
H33 H 0.1717 0.7980 0.7126
C40 C 0.2826(4) 0.7977(5) 0.7145(4)
H34 H 0.3222 0.8159 0.7239
H35 H 0.2610 0.8243 0.6846
H36 H 0.2836 0.7479 0.7050
C41 C 0.2638(6) 0.8248(7) 0.8023(5)
H37 H 0.2382 0.8158 0.8253
N1 N 0.2563(3) 0.8048(4) 0.7562(3)
O17 O 0.3190(2) 0.8654(3) 0.8166(3)
O19 O 0.5412(5) 0.7543(5) 0.9651(5)
H44 H 0.5197 0.7943 0.9683
H45 H 0.5153 0.7196 0.9701
loop_
_geom_bond_atom_site_label_1
_geom_bond_atom_site_label_2
_geom_bond_site_symmetry_1
_geom_bond_site_symmetry_2
C1 C2 1_555 1_555
C2 C3 1_555 1_555
C3 H1 1_555 1_555
C4 C3 1_555 1_555
C5 C4 1_555 1_555
H2 C5 1_555 1_555
C6 C5 1_555 1_555
C7 C2 1_555 1_555
H3 C7 1_555 1_555
C8 C6 1_555 1_555
C9 C10 1_555 1_555
C10 C11 1_555 1_555
C11 H4 1_555 1_555
C12 C11 1_555 1_555
C13 C12 1_555 1_555
H5 C13 1_555 1_555
C14 C13 1_555 1_555
C15 C10 1_555 1_555
H6 C15 1_555 1_555
C16 C14 1_555 1_555
C17 C18 1_555 1_555
C18 C19 1_555 1_555
C19 H7 1_555 1_555
C20 C19 1_555 1_555
C21 C20 1_555 1_555
H8 C21 1_555 1_555
C22 C21 1_555 1_555
C23 C18 1_555 1_555
H9 C23 1_555 1_555
C24 C20 1_555 1_555
C25 C26 1_555 1_555
C26 C27 1_555 1_555
C27 H10 1_555 1_555
C28 C27 1_555 1_555
C29 C28 1_555 1_555
H11 C29 1_555 1_555
C30 C29 1_555 1_555
C31 C26 1_555 1_555
H12 C31 1_555 1_555
C32 C28 1_555 1_555
C33 H13 1_555 1_555
H14 C33 1_555 1_555
H15 C33 1_555 1_555
C34 H16 1_555 1_555
H17 C34 1_555 1_555
H18 C34 1_555 1_555
C35 H19 1_555 1_555
H20 C35 1_555 1_555
H21 C35 1_555 1_555
C36 H22 1_555 1_555
H23 C36 1_555 1_555
H24 C36 1_555 1_555
C37 H25 1_555 1_555
H26 C37 1_555 1_555
H27 C37 1_555 1_555
C38 H28 1_555 1_555
H29 C38 1_555 1_555
H30 C38 1_555 1_555
C39 H31 1_555 1_555
H32 C39 1_555 1_555
H33 C39 1_555 1_555
C40 H34 1_555 1_555
H35 C40 1_555 1_555
H36 C40 1_555 1_555
C41 H37 1_555 1_555
N1 C39 1_555 1_555
N2 C37 1_555 1_555
H38 N2 1_555 1_555
H39 N2 1_555 1_555
N3 C35 1_555 1_555
H40 N3 1_555 1_555
H41 N3 1_555 1_555
N4 C33 1_555 1_555
H42 N4 1_555 1_555
H43 N4 1_555 1_555
O1 C1 1_555 1_555
O2 C1 1_555 1_555
O3 C8 1_555 1_555
O4 C8 1_555 1_555
O5 C9 1_555 1_555
O6 C9 1_555 1_555
O7 C16 1_555 1_555
O8 C16 1_555 1_555
O9 C32 1_555 1_555
O10 C32 1_555 1_555
O11 C25 1_555 1_555
O12 C25 1_555 1_555
O13 C24 1_555 1_555
O14 C24 1_555 1_555
O15 C17 1_555 1_555
O16 C17 1_555 1_555
O17 C41 1_555 1_555
O18 Zn3 1_555 1_555
O19 H44 1_555 1_555
H45 O19 1_555 1_555
Si1 C4 1_555 1_555
Zn1 O1 1_555 1_555
Zn2 O3 1_555 1_555
Zn3 O5 1_555 1_555
C1B C2B 1_555 1_555
C2B C3B 1_555 1_555
C3B H1B 1_555 1_555
C4B C3B 1_555 1_555
C5B C4B 1_555 1_555
H2B C5B 1_555 1_555
C6B C5B 1_555 1_555
C7B C2B 1_555 1_555
H3B C7B 1_555 1_555
C8B C6B 1_555 1_555
C9B C10B 1_555 1_555
C10B C11B 1_555 1_555
C11B H4B 1_555 1_555
C12B C11B 1_555 1_555
C13B C12B 1_555 1_555
H5B C13B 1_555 1_555
C14B C13B 1_555 1_555
C15B C10B 1_555 1_555
H6B C15B 1_555 1_555
C16B C14B 1_555 1_555
C17B C18B 1_555 1_555
C18B C19B 1_555 1_555
C19B H7B 1_555 1_555
C20B C19B 1_555 1_555
C21B C20B 1_555 1_555
H8B C21B 1_555 1_555
C22B C21B 1_555 1_555
C23B C18B 1_555 1_555
H9B C23B 1_555 1_555
C24B C20B 1_555 1_555
C25B C26B 1_555 1_555
C26B C27B 1_555 1_555
C27B H10B 1_555 1_555
C28B C27B 1_555 1_555
C29B C28B 1_555 1_555
H11B C29B 1_555 1_555
C30B C29B 1_555 1_555
C31B C26B 1_555 1_555
H12B C31B 1_555 1_555
C32B C28B 1_555 1_555
O1B C1B 1_555 1_555
O2B C1B 1_555 1_555
O3B C8B 1_555 1_555
O3A Zn2 1_555 1_555
O4B C8B 1_555 1_555
O5B C9B 1_555 1_555
O6B C9B 1_555 1_555
O6F Zn3 1_555 1_555
O6D Zn3B 1_555 1_555
O7B C16B 1_555 1_555
O7D Zn1 1_555 1_555
O7F Zn1B 1_555 1_555
O8B C16B 1_555 1_555
O9B C32B 1_555 1_555
O10B C32B 1_555 1_555
O10E Zn1 1_555 1_555
O10G Zn1B 1_555 1_555
O11B C25B 1_555 1_555
O11E Zn3 1_555 1_555
O11G Zn3B 1_555 1_555
O12B C25B 1_555 1_555
O13B Zn2 1_555 1_555
O13C Zn2 1_555 1_555
O14B C24B 1_555 1_555
O15B C17B 1_555 1_555
O15F Zn1 1_555 1_555
O15D Zn1B 1_555 1_555
O16B C17B 1_555 1_555
O18B Zn3B 1_555 1_555
Si1B C4B 1_555 1_555
Zn1B O1B 1_555 1_555
Zn1D O7 1_555 1_555
Zn1E O10 1_555 1_555
Zn1F O15 1_555 1_555
Zn1F_2 O7B 1_555 1_555
Zn1G O10B 1_555 1_555
Zn1D_2 O15B 1_555 1_555
Zn2B O13 1_555 1_555
Zn2B_2 O3B 1_555 1_555
Zn3B O5B 1_555 1_555
Zn3F O6 1_555 1_555
Zn3E O11 1_555 1_555
Zn3D O6B 1_555 1_555
Zn3G O11B 1_555 1_555
C6 C7 1_555 1_555
C12 Si1 1_555 1_555
C14 C15 1_555 1_555
C22 C23 1_555 1_555
C22 Si1 1_555 1_555
C30 C31 1_555 1_555
C30 Si1 1_555 1_555
C34 N4 1_555 1_555
C36 N3 1_555 1_555
C38 N2 1_555 1_555
C40 N1 1_555 1_555
C41 N1 1_555 1_555
C6B C7B 1_555 1_555
C12B Si1B 1_555 1_555
C14B C15B 1_555 1_555
C22B C23B 1_555 1_555
C22B Si1B 1_555 1_555
C24B O13B 1_555 1_555
C30B C31B 1_555 1_555
C30B Si1B 1_555 1_555

#END
