
#######################################################################
#
#                 Cambridge Crystallographic Data Centre
#                                CCDC 
#
#######################################################################
#
# If this CIF has been generated from an entry in the Cambridge 
# Structural Database, then it will include bibliographic, chemical, 
# crystal, experimental, refinement or atomic coordinate data resulting 
# from the CCDC's data processing and validation procedures.
#
#######################################################################

data_GERWOR
_symmetry_cell_setting           monoclinic
_symmetry_space_group_name_H-M   'C 2/c'
_symmetry_Int_Tables_number      15
_space_group_name_Hall           '-C 2yn'
loop_
_symmetry_equiv_pos_site_id
_symmetry_equiv_pos_as_xyz
1 x,y,z
2 -x,y,1/2-z
3 1/2+x,1/2+y,z
4 1/2-x,1/2+y,1/2-z
5 -x,-y,-z
6 x,-y,1/2+z
7 1/2-x,1/2-y,-z
8 1/2+x,1/2-y,1/2+z
_cell_length_a                   23.179(2)
_cell_length_b                   19.0074(19)
_cell_length_c                   26.112(3)
_cell_angle_alpha                90
_cell_angle_beta                 99.417(2)
_cell_angle_gamma                90
_cell_volume                     11349.2
loop_
_atom_site_label
_atom_site_type_symbol
_atom_site_fract_x
_atom_site_fract_y
_atom_site_fract_z
C33 C 0.6004(2) 1.0268(2) 0.1641(2)
H13 H 0.6177 1.0313 0.2000
H14 H 0.5638 1.0516 0.1581
H15 H 0.6262 1.0464 0.1426
C34 C 0.5501(3) 0.9315(3) 0.1014(2)
H16 H 0.5404 0.8824 0.0998
H17 H 0.5691 0.9436 0.0726
H18 H 0.5150 0.9588 0.0998
N2 N 0.58956(17) 0.9466(2) 0.15033(17)
H39 H 0.6243 0.9263 0.1489
H40 H 0.5748 0.9260 0.1764
C35 C 0.28215(17) 0.8063(2) 0.23169(19)
H19 H 0.3220 0.8217 0.2350
H20 H 0.2578 0.8361 0.2075
H21 H 0.2792 0.7586 0.2193
C36 C 0.20164(18) 0.7819(2) 0.25464(18)
H22 H 0.1721 0.7764 0.2761
H23 H 0.2103 0.7369 0.2410
H24 H 0.1878 0.8132 0.2265
N1 N 0.26538(14) 0.81953(15) 0.29555(18)
H37 H 0.2622 0.8645 0.3056
H38 H 0.2841 0.7916 0.3208
C39 C 0.1105(3) 0.0235(3) 0.4771(2)
H31 H 0.1399 -0.0028 0.4635
H32 H 0.0983 -0.0022 0.5051
H33 H 0.1262 0.0681 0.4896
C40 C 0.0157(4) 0.0414(5) 0.4646(3)
H34 H -0.0224 0.0422 0.4436
H35 H 0.0218 0.0842 0.4843
H36 H 0.0184 0.0020 0.4879
N4 N 0.0572(3) 0.0354(4) 0.4335(3)
H41 H 0.0607 0.0749 0.4153
H42 H 0.0507 -0.0016 0.4118
C1 C -0.06231(6) 0.25978(7) 0.30006(6)
C2 C -0.09262(6) 0.21375(7) 0.33462(5)
C3 C -0.08392(6) 0.22486(7) 0.38783(5)
H1 H -0.0603 0.2618 0.4020
C4 C -0.10995(6) 0.18169(8) 0.41997(5)
C5 C -0.14420(5) 0.12640(7) 0.39832(5)
H2 H -0.1604 0.0961 0.4201
C6 C -0.15535(5) 0.11456(7) 0.34498(5)
C7 C -0.12870(5) 0.15907(6) 0.31376(5)
H3 H -0.1352 0.1521 0.2780
C8 C -0.09907(7) 0.19278(9) 0.47847(6)
C9 C -0.03503(6) -0.14108(9) 0.39796(7)
C10 C -0.09881(6) -0.12031(7) 0.39226(6)
C11 C -0.13657(7) -0.15824(8) 0.41753(7)
H4 H -0.1229 -0.1977 0.4368
C12 C -0.19444(6) -0.13838(8) 0.41454(7)
C13 C -0.21402(6) -0.07988(7) 0.38486(6)
H5 H -0.2530 -0.0667 0.3825
C14 C -0.17782(5) -0.04002(7) 0.35851(5)
C15 C -0.11992(6) -0.06142(7) 0.36317(5)
H6 H -0.0944 -0.0357 0.3464
C16 C -0.23454(8) -0.17729(11) 0.44279(9)
C17 C -0.37322(6) 0.20027(8) 0.37888(6)
C18 C -0.35568(6) 0.13164(7) 0.35714(5)
C19 C -0.29768(5) 0.11972(7) 0.35166(5)
H7 H -0.2695 0.1533 0.3636
C20 C -0.28122(5) 0.05855(7) 0.32863(5)
C21 C -0.32530(5) 0.00882(7) 0.31200(5)
H8 H -0.3155 -0.0322 0.2960
C22 C -0.38258(6) 0.01909(7) 0.31865(6)
C23 C -0.39700(6) 0.08110(7) 0.34134(6)
H9 H -0.4355 0.0886 0.3460
C24 C -0.42898(7) -0.03580(8) 0.30150(7)
C25 C -0.28671(13) 0.10819(18) 0.12590(8)
C26 C -0.24372(9) 0.06169(11) 0.16046(7)
C27 C -0.24116(7) 0.06778(9) 0.21414(6)
H10 H -0.2649 0.1007 0.2268
C28 C -0.20438(6) 0.02646(7) 0.24908(5)
C29 C -0.17135(6) -0.02235(7) 0.22769(5)
H11 H -0.1471 -0.0521 0.2499
C30 C -0.17259(6) -0.02930(8) 0.17459(6)
C31 C -0.20811(7) 0.01285(10) 0.14176(7)
H12 H -0.2086 0.0090 0.1062
C32 C -0.13595(7) -0.08410(9) 0.15262(6)
Cd1 Cd 0.0000 0.355376(7) 0.2500
Cd2 Cd -0.081932(4) 0.176994(6) 0.588811(4)
O1 O -0.07065(5) 0.24957(6) 0.25276(4)
O2 O -0.03030(5) 0.30823(5) 0.32110(4)
O3 O -0.07797(8) 0.24744(9) 0.49614(5)
O4 O -0.11350(7) 0.14683(8) 0.50589(5)
O5 O 0.00024(5) -0.10041(9) 0.38768(7)
O6 O -0.01978(6) -0.19748(8) 0.41238(9)
O7 O -0.28612(7) -0.16039(10) 0.43749(7)
O8 O -0.21373(6) -0.22548(7) 0.47306(6)
O9 O -0.41527(5) -0.08622(5) 0.27525(5)
O10 O -0.47856(5) -0.02852(7) 0.31367(6)
O11 O -0.42540(4) 0.21756(6) 0.37086(5)
O12 O -0.33541(5) 0.23862(6) 0.40361(5)
O13 O -0.31502(9) 0.15404(11) 0.14283(8)
O14 O -0.28952(11) 0.09266(13) 0.07721(8)
O15 O -0.13999(5) -0.08655(7) 0.10424(5)
O16 O -0.10377(6) -0.12386(7) 0.18274(5)
Si1 Si -0.204317(14) 0.039327(18) 0.319905(14)
C1A C 0.06231(6) 0.25978(7) 0.19994(6)
C2A C 0.09262(6) 0.21375(7) 0.16538(5)
C3A C 0.08392(6) 0.22486(7) 0.11217(5)
H1A H 0.0603 0.2618 0.0980
C4A C 0.10995(6) 0.18169(8) 0.08003(5)
C5A C 0.14420(5) 0.12640(7) 0.10168(5)
H2A H 0.1604 0.0961 0.0799
C6A C 0.15535(5) 0.11456(7) 0.15502(5)
C7A C 0.12870(5) 0.15907(6) 0.18624(5)
H3A H 0.1352 0.1521 0.2220
C8A C 0.09907(7) 0.19278(9) 0.02153(6)
C9A C 0.03503(6) -0.14108(9) 0.10204(7)
C10A C 0.09881(6) -0.12031(7) 0.10774(6)
C11A C 0.13657(7) -0.15824(8) 0.08247(7)
H4A H 0.1229 -0.1977 0.0632
C12A C 0.19444(6) -0.13838(8) 0.08546(7)
C13A C 0.21402(6) -0.07988(7) 0.11514(6)
H5A H 0.2530 -0.0667 0.1175
C14A C 0.17782(5) -0.04002(7) 0.14149(5)
C15A C 0.11992(6) -0.06142(7) 0.13683(5)
H6A H 0.0944 -0.0357 0.1536
C16A C 0.23454(8) -0.17729(11) 0.05721(9)
C17A C 0.37322(6) 0.20027(8) 0.12112(6)
C18A C 0.35568(6) 0.13164(7) 0.14286(5)
C19A C 0.29768(5) 0.11972(7) 0.14834(5)
H7A H 0.2695 0.1533 0.1364
C20A C 0.28122(5) 0.05855(7) 0.17137(5)
C21A C 0.32530(5) 0.00882(7) 0.18800(5)
H8A H 0.3155 -0.0322 0.2040
C22A C 0.38258(6) 0.01909(7) 0.18135(6)
C23A C 0.39700(6) 0.08110(7) 0.15866(6)
H9A H 0.4355 0.0886 0.1540
C24A C 0.42898(7) -0.03580(8) 0.19850(7)
C25A C 0.28671(13) 0.10819(18) 0.37410(8)
C26A C 0.24372(9) 0.06169(11) 0.33954(7)
C27A C 0.24116(7) 0.06778(9) 0.28586(6)
H10A H 0.2649 0.1007 0.2732
C28A C 0.20438(6) 0.02646(7) 0.25092(5)
C29A C 0.17135(6) -0.02235(7) 0.27231(5)
H11A H 0.1471 -0.0521 0.2501
C30A C 0.17259(6) -0.02930(8) 0.32541(6)
C31A C 0.20811(7) 0.01285(10) 0.35824(7)
H12A H 0.2086 0.0090 0.3938
C32A C 0.13595(7) -0.08410(9) 0.34738(6)
Cd1B Cd -0.5000 -0.144624(7) 0.2500
Cd1B_2 Cd 0.5000 -0.144624(7) 0.2500
Cd2A Cd 0.081932(4) 0.176994(6) -0.088811(4)
Cd2D Cd 0.081932(4) -0.176994(6) 0.411189(4)
Cd2F Cd -0.418068(4) 0.323006(6) 0.411189(4)
Cd2E Cd -0.081932(4) -0.176994(6) 0.088811(4)
Cd2G Cd 0.418068(4) 0.323006(6) 0.088811(4)
O1A O 0.07065(5) 0.24957(6) 0.24724(4)
O2A O 0.03030(5) 0.30823(5) 0.17890(4)
O3A O 0.07797(8) 0.24744(9) 0.00386(5)
O4A O 0.11350(7) 0.14683(8) -0.00589(5)
O5A O -0.00024(5) -0.10041(9) 0.11232(7)
O5D O -0.00024(5) 0.10041(9) 0.61232(7)
O5E O 0.00024(5) 0.10041(9) -0.11232(7)
O6A O 0.01978(6) -0.19748(8) 0.08762(9)
O6D O 0.01978(6) 0.19748(8) 0.58762(9)
O6E O -0.01978(6) 0.19748(8) -0.08762(9)
O7A O 0.28612(7) -0.16039(10) 0.06251(7)
O8A O 0.21373(6) -0.22548(7) 0.02694(6)
O9A O 0.41527(5) -0.08622(5) 0.22475(5)
O9B O 0.08473(5) 0.41378(5) 0.27525(5)
O9C O -0.08473(5) 0.41378(5) 0.22475(5)
O10A O 0.47856(5) -0.02852(7) 0.18633(6)
O11A O 0.42540(4) 0.21756(6) 0.12914(5)
O11F O -0.07460(4) 0.28244(6) 0.62914(5)
O11G O 0.07460(4) 0.28244(6) -0.12914(5)
O12A O 0.33541(5) 0.23862(6) 0.09639(5)
O12F O -0.16459(5) 0.26138(6) 0.59639(5)
O12G O 0.16459(5) 0.26138(6) -0.09639(5)
O13A O 0.31502(9) 0.15404(11) 0.35717(8)
O14A O 0.28952(11) 0.09266(13) 0.42279(8)
O15A O 0.13999(5) -0.08655(7) 0.39576(5)
O15E O -0.13999(5) 0.08655(7) 0.60424(5)
O15D O 0.13999(5) 0.08655(7) -0.10424(5)
O16A O 0.10377(6) -0.12386(7) 0.31726(5)
Si1A Si 0.204317(14) 0.039327(18) 0.180095(14)
C37? C 0.0381(3) 0.0950(3) 0.3111(3)
H25? H 0.0402 0.1453 0.3145
H26? H 0.0769 0.0760 0.3151
H27? H 0.0181 0.0760 0.3375
C38? C 0.0000 -0.0243(3) 0.2500
H28? H -0.0205 -0.0412 0.2174
H29? H -0.0191 -0.0412 0.2776
H30? H 0.0396 -0.0412 0.2551
N3? N 0.0000 0.0729(3) 0.2500
loop_
_geom_bond_atom_site_label_1
_geom_bond_atom_site_label_2
_geom_bond_site_symmetry_1
_geom_bond_site_symmetry_2
C1 C2 1_555 1_555
C2 C3 1_555 1_555
C3 H1 1_555 1_555
C4 C3 1_555 1_555
C5 C4 1_555 1_555
H2 C5 1_555 1_555
C6 C5 1_555 1_555
C7 C2 1_555 1_555
H3 C7 1_555 1_555
C8 C4 1_555 1_555
C9 C10 1_555 1_555
C10 C11 1_555 1_555
C11 H4 1_555 1_555
C12 C11 1_555 1_555
C13 C12 1_555 1_555
H5 C13 1_555 1_555
C14 C13 1_555 1_555
C15 C10 1_555 1_555
H6 C15 1_555 1_555
C16 C12 1_555 1_555
C17 C18 1_555 1_555
C18 C19 1_555 1_555
C19 H7 1_555 1_555
C20 C19 1_555 1_555
C21 C20 1_555 1_555
H8 C21 1_555 1_555
C22 C21 1_555 1_555
C23 C18 1_555 1_555
H9 C23 1_555 1_555
C24 C22 1_555 1_555
C25 C26 1_555 1_555
C26 C27 1_555 1_555
C27 H10 1_555 1_555
C28 C27 1_555 1_555
C29 C28 1_555 1_555
H11 C29 1_555 1_555
C30 C29 1_555 1_555
C31 C26 1_555 1_555
H12 C31 1_555 1_555
C32 C30 1_555 1_555
C33 H13 1_555 1_555
H14 C33 1_555 1_555
H15 C33 1_555 1_555
C34 H16 1_555 1_555
H17 C34 1_555 1_555
H18 C34 1_555 1_555
C35 H19 1_555 1_555
H20 C35 1_555 1_555
H21 C35 1_555 1_555
C36 H22 1_555 1_555
H23 C36 1_555 1_555
H24 C36 1_555 1_555
C39 H31 1_555 1_555
H32 C39 1_555 1_555
H33 C39 1_555 1_555
C40 H34 1_555 1_555
H35 C40 1_555 1_555
H36 C40 1_555 1_555
Cd1 O1 1_555 1_555
Cd2 O4 1_555 1_555
N1 C35 1_555 1_555
H37 N1 1_555 1_555
H38 N1 1_555 1_555
N2 C33 1_555 1_555
H39 N2 1_555 1_555
H40 N2 1_555 1_555
N4 C39 1_555 1_555
H41 N4 1_555 1_555
H42 N4 1_555 1_555
O1 C1 1_555 1_555
O2 C1 1_555 1_555
O3 C8 1_555 1_555
O4 C8 1_555 1_555
O5 C9 1_555 1_555
O6 C9 1_555 1_555
O7 C16 1_555 1_555
O8 C16 1_555 1_555
O9 C24 1_555 1_555
O10 C24 1_555 1_555
O11 C17 1_555 1_555
O12 C17 1_555 1_555
O13 C25 1_555 1_555
O14 C25 1_555 1_555
O15 C32 1_555 1_555
O16 C32 1_555 1_555
Si1 C6 1_555 1_555
C1A C2A 1_555 1_555
C2A C3A 1_555 1_555
C3A H1A 1_555 1_555
C4A C3A 1_555 1_555
C5A C4A 1_555 1_555
H2A C5A 1_555 1_555
C6A C5A 1_555 1_555
C7A C2A 1_555 1_555
H3A C7A 1_555 1_555
C8A C4A 1_555 1_555
C9A C10A 1_555 1_555
C10A C11A 1_555 1_555
C11A H4A 1_555 1_555
C12A C11A 1_555 1_555
C13A C12A 1_555 1_555
H5A C13A 1_555 1_555
C14A C13A 1_555 1_555
C15A C10A 1_555 1_555
H6A C15A 1_555 1_555
C16A C12A 1_555 1_555
C17A C18A 1_555 1_555
C18A C19A 1_555 1_555
C19A H7A 1_555 1_555
C20A C19A 1_555 1_555
C21A C20A 1_555 1_555
H8A C21A 1_555 1_555
C22A C21A 1_555 1_555
C23A C18A 1_555 1_555
H9A C23A 1_555 1_555
C24A C22A 1_555 1_555
C25A C26A 1_555 1_555
C26A C27A 1_555 1_555
C27A H10A 1_555 1_555
C28A C27A 1_555 1_555
C29A C28A 1_555 1_555
H11A C29A 1_555 1_555
C30A C29A 1_555 1_555
C31A C26A 1_555 1_555
H12A C31A 1_555 1_555
C32A C30A 1_555 1_555
Cd1B O9 1_555 1_555
Cd1B_2 O9A 1_555 1_555
Cd2A O4A 1_555 1_555
Cd2D O5 1_555 1_555
Cd2F O11 1_555 1_555
Cd2E O15 1_555 1_555
Cd2G O11A 1_555 1_555
O1A Cd1 1_555 1_555
O2A Cd1 1_555 1_555
O3A C8A 1_555 1_555
O4A C8A 1_555 1_555
O5A C9A 1_555 1_555
O5D Cd2 1_555 1_555
O5E Cd2A 1_555 1_555
O6A C9A 1_555 1_555
O6D Cd2 1_555 1_555
O6E Cd2A 1_555 1_555
O7A C16A 1_555 1_555
O8A C16A 1_555 1_555
O9A C24A 1_555 1_555
O9B Cd1 1_555 1_555
O9C Cd1 1_555 1_555
O10A C24A 1_555 1_555
O11A C17A 1_555 1_555
O11F Cd2 1_555 1_555
O11G Cd2A 1_555 1_555
O12A C17A 1_555 1_555
O12F Cd2 1_555 1_555
O12G Cd2A 1_555 1_555
O13A C25A 1_555 1_555
O14A C25A 1_555 1_555
O15A C32A 1_555 1_555
O15E Cd2 1_555 1_555
O15D Cd2A 1_555 1_555
O16A C32A 1_555 1_555
Si1A C6A 1_555 1_555
C6 C7 1_555 1_555
C14 C15 1_555 1_555
C14 Si1 1_555 1_555
C20 Si1 1_555 1_555
C22 C23 1_555 1_555
C28 Si1 1_555 1_555
C30 C31 1_555 1_555
C34 N2 1_555 1_555
C36 N1 1_555 1_555
C40 N4 1_555 1_555
Cd1 O2 1_555 1_555
O6 Cd2D 1_555 1_555
O12 Cd2F 1_555 1_555
C1A O1A 1_555 1_555
C1A O2A 1_555 1_555
C6A C7A 1_555 1_555
C14A C15A 1_555 1_555
C14A Si1A 1_555 1_555
C20A Si1A 1_555 1_555
C22A C23A 1_555 1_555
C28A Si1A 1_555 1_555
C30A C31A 1_555 1_555
Cd2D O15A 1_555 1_555
Cd2E O5A 1_555 1_555
Cd2E O6A 1_555 1_555
Cd2G O12A 1_555 1_555

#END
