
#######################################################################
#
#                 Cambridge Crystallographic Data Centre
#                                CCDC 
#
#######################################################################
#
# If this CIF has been generated from an entry in the Cambridge 
# Structural Database, then it will include bibliographic, chemical, 
# crystal, experimental, refinement or atomic coordinate data resulting 
# from the CCDC's data processing and validation procedures.
#
#######################################################################

data_GESDEP
_symmetry_cell_setting           triclinic
_symmetry_space_group_name_H-M   'P -1'
_symmetry_Int_Tables_number      2
_space_group_name_Hall           '-P 1'
loop_
_symmetry_equiv_pos_site_id
_symmetry_equiv_pos_as_xyz
1 x,y,z
2 -x,-y,-z
_cell_length_a                   4.6472(14)
_cell_length_b                   11.672(3)
_cell_length_c                   13.456(4)
_cell_angle_alpha                90.036(4)
_cell_angle_beta                 97.870(5)
_cell_angle_gamma                97.971(4)
_cell_volume                     715.879
loop_
_atom_site_label
_atom_site_type_symbol
_atom_site_fract_x
_atom_site_fract_y
_atom_site_fract_z
Mn1 Mn 0.5000 0.5000 0.5000
O1 O 0.1977(3) 0.49147(12) 0.61483(10)
O2 O 0.1997(3) 0.35559(12) 0.42436(11)
H1 H 0.0324 0.3776 0.3989
H2 H 0.2700 0.3286 0.3714
O3 O -0.2433(3) 0.38319(13) 0.58405(11)
O4 O 0.5077(4) -0.20363(15) 0.66989(11)
O5 O 0.7738(4) -0.32495(15) 0.79991(12)
C1 C 0.0153(4) 0.40286(17) 0.62762(14)
C2 C 0.1125(4) 0.31701(17) 0.70389(14)
C3 C -0.0522(5) 0.20935(18) 0.70957(15)
H3 H -0.2232 0.1893 0.6649
C4 C 0.0354(5) 0.13162(18) 0.78085(16)
H4 H -0.0766 0.0594 0.7828
C5 C 0.2863(5) 0.15893(17) 0.84949(14)
C6 C 0.4501(5) 0.26820(18) 0.84399(15)
H5 H 0.6184 0.2892 0.8897
C7 C 0.3654(5) 0.34533(17) 0.77176(15)
H6 H 0.4792 0.4170 0.7686
C8 C 0.3820(8) -0.1373(2) 0.59115(18)
H7 H 0.1860 -0.1281 0.6014
H8 H 0.3767 -0.1765 0.5280
H9 H 0.4982 -0.0627 0.5908
C9 C 0.5283(5) -0.16336(19) 0.76559(15)
C10 C 0.4339(5) -0.06616(18) 0.79387(15)
H10 H 0.3462 -0.0209 0.7450
C11 C 0.4646(4) -0.03023(17) 0.89721(15)
C12 C 0.3851(4) 0.07517(17) 0.92663(15)
C13 C 0.4126(4) 0.10474(17) 1.02911(15)
C14 C 0.3041(5) 0.20489(18) 1.06244(15)
H11 H 0.2140 0.2515 1.0153
C15 C 0.6705(5) -0.23318(18) 0.83923(16)
C16 C 0.9392(6) -0.3923(2) 0.8672(2)
H12 H 1.0151 -0.4488 0.8300
H13 H 0.8155 -0.4310 0.9121
H14 H 1.0989 -0.3429 0.9052
Mn1_2 Mn -0.5000 0.5000 0.5000
Mn1_3 Mn 0.5000 -0.5000 1.5000
Mn1_4 Mn 1.5000 -0.5000 1.5000
O1A O 0.8023(3) -0.49147(12) 1.38517(10)
O1A_2 O 0.8023(3) 0.50853(12) 0.38517(10)
O2A O 0.8003(3) 0.64441(12) 0.57564(11)
H1A H 0.9676 0.6224 0.6011
H2A H 0.7300 0.6714 0.6286
O3A O 1.2433(3) -0.38319(13) 1.41595(11)
O3_2 O 0.7567(3) 0.38319(13) 0.58405(11)
O3A_2 O 0.2433(3) 0.61681(13) 0.41595(11)
O4A O 0.4923(4) 0.20363(15) 1.33011(11)
O5A O 0.2262(4) 0.32495(15) 1.20009(12)
C1A C 0.9847(4) -0.40286(17) 1.37238(14)
C2A C 0.8875(4) -0.31701(17) 1.29611(14)
C3A C 1.0522(5) -0.20935(18) 1.29043(15)
H3A H 1.2232 -0.1893 1.3351
C4A C 0.9646(5) -0.13162(18) 1.21915(16)
H4A H 1.0766 -0.0594 1.2172
C5A C 0.7137(5) -0.15893(17) 1.15051(14)
C6A C 0.5499(5) -0.26820(18) 1.15601(15)
H5A H 0.3816 -0.2892 1.1103
C7A C 0.6346(5) -0.34533(17) 1.22824(15)
H6A H 0.5208 -0.4170 1.2314
C8A C 0.6180(8) 0.1373(2) 1.40885(18)
H7A H 0.8140 0.1281 1.3986
H8A H 0.6233 0.1765 1.4720
H9A H 0.5018 0.0627 1.4092
C9A C 0.4717(5) 0.16336(19) 1.23441(15)
C10A C 0.5661(5) 0.06616(18) 1.20613(15)
H10A H 0.6538 0.0209 1.2550
C11A C 0.5354(4) 0.03023(17) 1.10279(15)
C12A C 0.6149(4) -0.07517(17) 1.07337(15)
C13A C 0.5874(4) -0.10474(17) 0.97089(15)
C14A C 0.6959(5) -0.20489(18) 0.93756(15)
H11A H 0.7860 -0.2515 0.9847
C15A C 0.3295(5) 0.23318(18) 1.16077(16)
C16A C 0.0608(6) 0.3923(2) 1.1328(2)
H12A H -0.0151 0.4488 1.1700
H13A H 0.1845 0.4310 1.0879
H14A H -0.0989 0.3429 1.0948
loop_
_geom_bond_atom_site_label_1
_geom_bond_atom_site_label_2
_geom_bond_site_symmetry_1
_geom_bond_site_symmetry_2
Mn1 O1 1_555 1_555
O1 C1 1_555 1_555
O2 Mn1 1_555 1_555
H1 O2 1_555 1_555
H2 O2 1_555 1_555
O3 C1 1_555 1_555
O4 C8 1_555 1_555
O5 C15 1_555 1_555
C1 C2 1_555 1_555
C2 C3 1_555 1_555
C3 H3 1_555 1_555
C4 C3 1_555 1_555
H4 C4 1_555 1_555
C5 C4 1_555 1_555
C6 C5 1_555 1_555
H5 C6 1_555 1_555
C7 C2 1_555 1_555
H6 C7 1_555 1_555
C8 H7 1_555 1_555
H8 C8 1_555 1_555
H9 C8 1_555 1_555
C9 O4 1_555 1_555
C10 C9 1_555 1_555
H10 C10 1_555 1_555
C11 C10 1_555 1_555
C12 C5 1_555 1_555
C13 C12 1_555 1_555
C14 C13 1_555 1_555
H11 C14 1_555 1_555
C15 C9 1_555 1_555
C16 O5 1_555 1_555
H12 C16 1_555 1_555
H13 C16 1_555 1_555
H14 C16 1_555 1_555
Mn1_2 O3 1_555 1_555
Mn1_3 O1A 1_555 1_555
Mn1_4 O3A 1_555 1_555
O1A C1A 1_555 1_555
O1A_2 Mn1 1_555 1_555
O2A Mn1 1_555 1_555
H1A O2A 1_555 1_555
H2A O2A 1_555 1_555
O3A C1A 1_555 1_555
O3_2 Mn1 1_555 1_555
O3A_2 Mn1 1_555 1_555
O4A C8A 1_555 1_555
O5A C15A 1_555 1_555
C1A C2A 1_555 1_555
C2A C3A 1_555 1_555
C3A H3A 1_555 1_555
C4A C3A 1_555 1_555
H4A C4A 1_555 1_555
C5A C4A 1_555 1_555
C6A C5A 1_555 1_555
H5A C6A 1_555 1_555
C7A C2A 1_555 1_555
H6A C7A 1_555 1_555
C8A H7A 1_555 1_555
H8A C8A 1_555 1_555
H9A C8A 1_555 1_555
C9A O4A 1_555 1_555
C10A C9A 1_555 1_555
H10A C10A 1_555 1_555
C11A C13 1_555 1_555
C12A C5A 1_555 1_555
C13A C11 1_555 1_555
C14A C15 1_555 1_555
H11A C14A 1_555 1_555
C15A C14 1_555 1_555
C16A O5A 1_555 1_555
H12A C16A 1_555 1_555
H13A C16A 1_555 1_555
H14A C16A 1_555 1_555
C6 C7 1_555 1_555
C11 C12 1_555 1_555
C6A C7A 1_555 1_555
C9A C15A 1_555 1_555
C10A C11A 1_555 1_555
C11A C12A 1_555 1_555
C12A C13A 1_555 1_555
C13A C14A 1_555 1_555

#END
