
#######################################################################
#
#                 Cambridge Crystallographic Data Centre
#                                CCDC 
#
#######################################################################
#
# If this CIF has been generated from an entry in the Cambridge 
# Structural Database, then it will include bibliographic, chemical, 
# crystal, experimental, refinement or atomic coordinate data resulting 
# from the CCDC's data processing and validation procedures.
#
#######################################################################

data_GESDUF
_symmetry_cell_setting           monoclinic
_symmetry_space_group_name_H-M   'C 2/c'
_symmetry_Int_Tables_number      15
_space_group_name_Hall           '-C 2yn'
loop_
_symmetry_equiv_pos_site_id
_symmetry_equiv_pos_as_xyz
1 x,y,z
2 -x,y,1/2-z
3 1/2+x,1/2+y,z
4 1/2-x,1/2+y,1/2-z
5 -x,-y,-z
6 x,-y,1/2+z
7 1/2-x,1/2-y,-z
8 1/2+x,1/2-y,1/2+z
_cell_length_a                   36.419(7)
_cell_length_b                   13.1869(19)
_cell_length_c                   8.1455(19)
_cell_angle_alpha                90
_cell_angle_beta                 100.045(4)
_cell_angle_gamma                90
_cell_volume                     3851.94
loop_
_atom_site_label
_atom_site_type_symbol
_atom_site_fract_x
_atom_site_fract_y
_atom_site_fract_z
Co1 Co 0.0000 1.0000 0.0000
O1 O 0.0000 1.0666(2) 0.2500
O2 O -0.03099(6) 0.88535(18) 0.0798(2)
H1 H -0.0498 0.8621 0.0044
H2 H -0.0372 0.8883 0.1702
O3 O 0.04758(5) 0.92713(17) 0.1076(2)
O4 O 0.06212(6) 0.8501(2) -0.1127(3)
O5 O 0.18167(7) 0.41795(18) 0.3910(3)
O6 O 0.24446(6) 0.37092(16) 0.5648(3)
C1 C 0.06994(7) 0.8784(2) 0.0339(3)
C2 C 0.10753(7) 0.8541(2) 0.1308(3)
C3 C 0.13177(7) 0.7932(2) 0.0627(3)
H3 H 0.1247 0.7684 -0.0450
C4 C 0.16616(7) 0.7689(2) 0.1515(3)
H4 H 0.1820 0.7276 0.1032
C5 C 0.17758(7) 0.8047(2) 0.3108(3)
C6 C 0.15344(8) 0.8673(3) 0.3790(4)
H5 H 0.1607 0.8927 0.4863
C7 C 0.11900(8) 0.8920(3) 0.2899(4)
H6 H 0.1033 0.9346 0.3369
C8 C 0.21477(7) 0.7767(2) 0.4070(3)
C9 C 0.22256(7) 0.6755(2) 0.4516(3)
C10 C 0.19633(7) 0.5960(2) 0.4028(4)
H7 H 0.1728 0.6123 0.3441
C11 C 0.20455(9) 0.4982(2) 0.4390(4)
C12 C 0.14814(12) 0.4380(3) 0.2815(6)
H8 H 0.1531 0.4794 0.1911
H9 H 0.1313 0.4729 0.3405
H10 H 0.1371 0.3752 0.2383
C13 C 0.23975(9) 0.4711(2) 0.5354(4)
C14 C 0.27974(9) 0.3400(2) 0.6540(4)
H11 H 0.2988 0.3576 0.5914
H12 H 0.2797 0.2679 0.6706
H13 H 0.2845 0.3735 0.7602
C15 C 0.26474(7) 0.5440(2) 0.5889(3)
H14 H 0.2871 0.5260 0.6560
C16 C 0.25809(7) 0.6485(2) 0.5460(3)
Co1B Co 0.5000 0.5000 1.0000
Co1A Co 0.0000 1.0000 0.5000
O1D O 0.0000 0.9334(2) -0.2500
O2D O 0.03099(6) 1.11465(18) -0.0798(2)
H1D H 0.0498 1.1379 -0.0044
H2D H 0.0372 1.1117 -0.1702
O3F O 0.45242(5) 0.57287(17) 0.8924(2)
O3D O -0.04758(5) 1.07287(17) -0.1076(2)
O4F O 0.43788(6) 0.6499(2) 1.1127(3)
O5F O 0.31833(7) 1.08205(18) 0.6090(3)
O6F O 0.25554(6) 1.12908(16) 0.4352(3)
C1F C 0.43006(7) 0.6216(2) 0.9661(3)
C2F C 0.39247(7) 0.6459(2) 0.8692(3)
C3F C 0.36823(7) 0.7068(2) 0.9373(3)
H3F H 0.3753 0.7316 1.0450
C4F C 0.33384(7) 0.7311(2) 0.8485(3)
H4F H 0.3180 0.7724 0.8968
C5F C 0.32242(7) 0.6953(2) 0.6892(3)
C6F C 0.34656(8) 0.6327(3) 0.6210(4)
H5F H 0.3393 0.6073 0.5137
C7F C 0.38100(8) 0.6080(3) 0.7101(4)
H6F H 0.3967 0.5654 0.6631
C8F C 0.28523(7) 0.7233(2) 0.5930(3)
C9F C 0.27744(7) 0.8245(2) 0.5484(3)
C10F C 0.30367(7) 0.9040(2) 0.5972(4)
H7F H 0.3272 0.8877 0.6559
C11F C 0.29545(9) 1.0018(2) 0.5610(4)
C12F C 0.35186(12) 1.0620(3) 0.7185(6)
H8F H 0.3469 1.0206 0.8089
H9F H 0.3687 1.0271 0.6595
H10F H 0.3629 1.1248 0.7617
C13F C 0.26025(9) 1.0289(2) 0.4646(4)
C14F C 0.22026(9) 1.1600(2) 0.3460(4)
H11F H 0.2012 1.1424 0.4086
H12F H 0.2203 1.2321 0.3294
H13F H 0.2155 1.1265 0.2398
C15F C 0.23526(7) 0.9560(2) 0.4111(3)
H14F H 0.2129 0.9740 0.3440
C16F C 0.24191(7) 0.8515(2) 0.4540(3)
O7 O -0.0794(4) 0.7670(9) -0.1127(7)
loop_
_geom_bond_atom_site_label_1
_geom_bond_atom_site_label_2
_geom_bond_site_symmetry_1
_geom_bond_site_symmetry_2
Co1 O1 1_555 1_555
O1 Co1A 1_555 1_555
O2 Co1 1_555 1_555
H1 O2 1_555 1_555
H2 O2 1_555 1_555
O3 Co1 1_555 1_555
O4 C1 1_555 1_555
O5 C11 1_555 1_555
O6 C13 1_555 1_555
C1 O3 1_555 1_555
C2 C1 1_555 1_555
C3 C2 1_555 1_555
H3 C3 1_555 1_555
C4 C3 1_555 1_555
H4 C4 1_555 1_555
C5 C4 1_555 1_555
C6 C5 1_555 1_555
H5 C6 1_555 1_555
C7 C2 1_555 1_555
H6 C7 1_555 1_555
C8 C5 1_555 1_555
C9 C8 1_555 1_555
C10 C9 1_555 1_555
H7 C10 1_555 1_555
C11 C10 1_555 1_555
C12 O5 1_555 1_555
H8 C12 1_555 1_555
H9 C12 1_555 1_555
H10 C12 1_555 1_555
C13 C11 1_555 1_555
C14 O6 1_555 1_555
H11 C14 1_555 1_555
H12 C14 1_555 1_555
H13 C14 1_555 1_555
C15 C13 1_555 1_555
H14 C15 1_555 1_555
C16 C9 1_555 1_555
Co1B O3F 1_555 1_555
O1D Co1 1_555 1_555
O2D Co1 1_555 1_555
H1D O2D 1_555 1_555
H2D O2D 1_555 1_555
O3F C1F 1_555 1_555
O3D Co1 1_555 1_555
O4F C1F 1_555 1_555
O5F C11F 1_555 1_555
O6F C13F 1_555 1_555
C1F C2F 1_555 1_555
C2F C3F 1_555 1_555
C3F H3F 1_555 1_555
C4F C3F 1_555 1_555
H4F C4F 1_555 1_555
C5F C4F 1_555 1_555
C6F C5F 1_555 1_555
H5F C6F 1_555 1_555
C7F C2F 1_555 1_555
H6F C7F 1_555 1_555
C8F C16 1_555 1_555
C9F C8F 1_555 1_555
C10F C9F 1_555 1_555
H7F C10F 1_555 1_555
C11F C10F 1_555 1_555
C12F O5F 1_555 1_555
H8F C12F 1_555 1_555
H9F C12F 1_555 1_555
H10F C12F 1_555 1_555
C13F C11F 1_555 1_555
C14F O6F 1_555 1_555
H11F C14F 1_555 1_555
H12F C14F 1_555 1_555
H13F C14F 1_555 1_555
C15F C13F 1_555 1_555
H14F C15F 1_555 1_555
C16F C8 1_555 1_555
C6 C7 1_555 1_555
C15 C16 1_555 1_555
C5F C8F 1_555 1_555
C6F C7F 1_555 1_555
C9F C16F 1_555 1_555
C15F C16F 1_555 1_555

#END
