
#######################################################################
#
#                 Cambridge Crystallographic Data Centre
#                                CCDC 
#
#######################################################################
#
# If this CIF has been generated from an entry in the Cambridge 
# Structural Database, then it will include bibliographic, chemical, 
# crystal, experimental, refinement or atomic coordinate data resulting 
# from the CCDC's data processing and validation procedures.
#
#######################################################################

data_GESDIT
_symmetry_cell_setting           triclinic
_symmetry_space_group_name_H-M   'P -1'
_symmetry_Int_Tables_number      2
_space_group_name_Hall           '-P 1'
loop_
_symmetry_equiv_pos_site_id
_symmetry_equiv_pos_as_xyz
1 x,y,z
2 -x,-y,-z
_cell_length_a                   15.489(2)
_cell_length_b                   16.205(2)
_cell_length_c                   16.439(2)
_cell_angle_alpha                72.801(2)
_cell_angle_beta                 70.522(2)
_cell_angle_gamma                68.048(2)
_cell_volume                     3538.3
loop_
_atom_site_label
_atom_site_type_symbol
_atom_site_fract_x
_atom_site_fract_y
_atom_site_fract_z
Cd1 Cd 0.5000 0.5000 0.5000
Cd2 Cd 0.40232(2) 0.37881(2) 0.41194(2)
O1 O 0.1795(3) 0.8973(3) 0.7369(3)
O2 O 0.0743(3) 1.0601(3) 0.7507(3)
O3 O 0.2559(2) 0.4828(2) 0.4759(3)
O4 O 0.3855(2) 0.5275(2) 0.4240(2)
O5 O 0.2067(3) 0.9517(3) -0.0258(3)
O6 O 0.2422(3) 0.8446(3) 0.1173(3)
O7 O 0.5666(3) 0.5987(2) 0.4004(2)
O8 O 0.5706(3) 0.7049(2) 0.4608(2)
O9 O 0.3528(3) 0.2599(3) 0.4171(3)
O10 O 0.5887(2) 0.3946(2) 0.4155(2)
O11 O 0.5379(2) 0.3780(3) 0.3114(2)
O12 O 0.8841(3) 0.7492(3) 0.1735(3)
O13 O 0.9680(3) 0.2233(3) -0.0557(3)
O16 O 0.3232(3) 0.4379(3) 0.2973(3)
N1 N 0.3063(4) 0.1391(4) 0.5036(4)
N2 N 0.1756(5) 0.4913(5) 0.2715(5)
C1 C 0.2950(3) 0.5434(3) 0.4559(3)
C2 C 0.2353(3) 0.6377(3) 0.4668(3)
C3 C 0.1376(4) 0.6568(3) 0.5076(4)
H1 H 0.1091 0.6092 0.5293
C4 C 0.0812(3) 0.7446(3) 0.5169(4)
H2 H 0.0148 0.7564 0.5460
C5 C 0.1209(3) 0.8157(3) 0.4840(3)
C6 C 0.2190(4) 0.7962(3) 0.4434(4)
H3 H 0.2475 0.8438 0.4207
C7 C 0.2753(3) 0.7077(3) 0.4361(3)
H4 H 0.3423 0.6952 0.4096
C8 C 0.1248(4) 0.9388(4) 0.6771(4)
C9 C 0.1226(4) 0.9004(3) 0.6153(3)
H5 H 0.1617 0.8399 0.6112
C10 C 0.0620(3) 0.9500(3) 0.5558(3)
C11 C 0.0591(3) 0.9102(3) 0.4922(3)
C12 C 0.0022(3) 1.0404(3) 0.5645(3)
C13 C 0.0054(3) 1.0771(3) 0.6316(3)
H6 H -0.0351 1.1366 0.6389
C14 C 0.0648(3) 1.0292(3) 0.6855(3)
C15 C 0.0038(4) 1.1416(4) 0.7738(4)
H7 H 0.0180 1.1572 0.8202
H8 H 0.0048 1.1908 0.7220
H9 H -0.0599 1.1330 0.7950
C16 C 0.2335(5) 0.8033(4) 0.7372(5)
H10 H 0.2705 0.7811 0.7816
H11 H 0.2776 0.7969 0.6791
H12 H 0.1893 0.7680 0.7511
C17 C 0.5955(3) 0.3977(3) 0.3366(3)
C18 C 0.6773(3) 0.4231(3) 0.2677(3)
C19 C 0.6728(4) 0.4560(4) 0.1810(3)
H13 H 0.6163 0.4633 0.1652
C20 C 0.7496(4) 0.4784(4) 0.1167(3)
H14 H 0.7440 0.5036 0.0579
C21 C 0.8349(4) 0.4642(4) 0.1375(3)
C22 C 0.8393(4) 0.4312(4) 0.2250(3)
H15 H 0.8967 0.4212 0.2407
C23 C 0.7610(4) 0.4129(4) 0.2890(3)
H16 H 0.7642 0.3930 0.3487
C24 C 0.9425(4) 0.3492(4) 0.0085(3)
H17 H 0.8897 0.3360 0.0541
C25 C 0.9698(4) 0.4258(4) 0.0051(3)
C26 C 0.9192(4) 0.4829(4) 0.0669(3)
C27 C 0.9486(4) 0.5575(4) 0.0622(3)
C28 C 0.8976(4) 0.6185(4) 0.1228(3)
H18 H 0.8419 0.6094 0.1667
C29 C 0.9274(4) 0.6883(4) 0.1182(3)
C30 C 0.7964(4) 0.7423(5) 0.2364(4)
H19 H 0.7723 0.7897 0.2713
H20 H 0.8081 0.6825 0.2755
H21 H 0.7487 0.7498 0.2058
C31 C 0.8837(5) 0.2053(5) 0.0074(4)
H22 H 0.8748 0.1525 -0.0024
H23 H 0.8917 0.1928 0.0670
H24 H 0.8273 0.2582 0.0006
C32 C 0.9903(4) 0.2956(4) -0.0517(3)
C33 C 0.5605(3) 0.7444(3) 0.3139(3)
C34 C 0.5372(4) 0.8360(3) 0.3119(3)
H25 H 0.5279 0.8561 0.3639
C35 C 0.5276(4) 0.8988(3) 0.2343(3)
H26 H 0.5108 0.9616 0.2337
C36 C 0.5423(4) 0.8699(3) 0.1574(3)
C37 C 0.5697(4) 0.7774(3) 0.1598(3)
H27 H 0.5835 0.7569 0.1070
C38 C 0.5773(4) 0.7143(3) 0.2373(3)
H28 H 0.5937 0.6514 0.2381
C39 C 0.5220(4) 0.9375(3) 0.0767(3)
C40 C 0.4418(4) 0.9439(3) 0.0503(3)
C41 C 0.3794(4) 0.8905(4) 0.1002(4)
H29 H 0.3913 0.8509 0.1536
C42 C 0.3034(4) 0.8947(4) 0.0736(4)
C43 C 0.2605(5) 0.7843(5) 0.1970(6)
H30 H 0.2127 0.7516 0.2228
H31 H 0.2563 0.8191 0.2386
H32 H 0.3250 0.7408 0.1845
C44 C 0.1872(6) 1.0068(5) -0.1084(5)
H33 H 0.1309 0.9988 -0.1161
H34 H 0.2430 0.9881 -0.1568
H35 H 0.1743 1.0707 -0.1082
C45 C 0.2829(4) 0.9554(4) -0.0057(4)
C46 C 0.3373(4) 1.0111(4) -0.0523(3)
H36 H 0.3207 1.0536 -0.1028
C47 C 0.4195(4) 1.0075(3) -0.0272(3)
C48 C 0.5664(3) 0.6766(3) 0.3988(3)
C49 C 0.3309(7) 0.0500(6) 0.5608(7)
H37 H 0.3875 0.0421 0.5809
H38 H 0.2764 0.0467 0.6133
C50 C 0.3530(8) -0.0258(6) 0.5144(9)
H39 H 0.3673 -0.0842 0.5553
H40 H 0.2973 -0.0180 0.4939
H41 H 0.4088 -0.0246 0.4640
C51 C 0.2108(5) 0.1798(6) 0.4858(6)
H42 H 0.2174 0.2099 0.4231
H43 H 0.1813 0.1315 0.4971
C52 C 0.1467(6) 0.2477(7) 0.5424(7)
H44 H 0.0837 0.2740 0.5290
H45 H 0.1390 0.2177 0.6045
H46 H 0.1755 0.2959 0.5309
C53 C 0.3676(5) 0.1856(5) 0.4682(5)
H47 H 0.4278 0.1606 0.4830
C54 C 0.2411(6) 0.4347(5) 0.3117(6)
H48 H 0.2239 0.3865 0.3562
C55 C 0.1960(10) 0.5720(9) 0.2069(10)
H49 H 0.2377 0.5940 0.2243
H50 H 0.1357 0.6218 0.2016
C56 C 0.0776(8) 0.4829(8) 0.2949(11)
H51 H 0.0593 0.4915 0.2401
H52 H 0.0792 0.4206 0.3280
C57 C 0.0017(9) 0.5495(11) 0.3492(12)
H53 H -0.0609 0.5407 0.3611
H54 H 0.0175 0.5397 0.4050
H55 H -0.0010 0.6115 0.3169
C58 C 0.2448(16) 0.539(2) 0.1253(15)
H56 H 0.2623 0.5886 0.0786
H57 H 0.3031 0.4889 0.1328
H58 H 0.2020 0.5183 0.1094
Cd1_2 Cd -0.5000 1.5000 0.5000
Cd1_3 Cd 0.5000 1.5000 -0.5000
Cd1_4 Cd 1.5000 0.5000 -0.5000
Cd2A Cd -0.40232(2) 1.62119(2) 0.58806(2)
Cd2A_2 Cd 0.59768(2) 0.62119(2) 0.58806(2)
Cd2_2 Cd 0.40232(2) 1.37881(2) -0.58806(2)
Cd2A_3 Cd 1.59768(2) 0.62119(2) -0.41194(2)
O1A O -0.1795(3) 1.1027(3) 0.2631(3)
O2A O -0.0743(3) 0.9399(3) 0.2493(3)
O3A O -0.2559(2) 1.5172(2) 0.5241(3)
O4A O -0.3855(2) 1.4725(2) 0.5760(2)
O4A_2 O 0.6145(2) 0.4725(2) 0.5760(2)
O5A O 0.7933(3) 1.0483(3) 0.0258(3)
O6A O 0.7578(3) 1.1554(3) -0.1173(3)
O7A O 0.4334(3) 1.4013(2) -0.4004(2)
O7A_2 O 0.4334(3) 0.4013(2) 0.5996(2)
O8A O 0.4294(3) 1.2951(2) -0.4608(2)
O8A_2 O 0.4294(3) 0.2951(2) 0.5392(2)
O8_2 O -0.4294(3) 1.7049(2) 0.4608(2)
O9A O -0.3528(3) 1.7401(3) 0.5829(3)
O10A O 1.4113(2) 0.6054(2) -0.4155(2)
O10A_2 O 0.4113(2) 0.6054(2) 0.5845(2)
O11A O 1.4621(2) 0.6220(3) -0.3114(2)
O11A_2 O -0.5379(2) 1.6220(3) 0.6886(2)
O12A O 1.1159(3) 0.2508(3) -0.1735(3)
O13A O 1.0320(3) 0.7767(3) 0.0557(3)
O16A O -0.3232(3) 1.5621(3) 0.7027(3)
N1A N -0.3063(4) 1.8609(4) 0.4964(4)
N2A N -0.1756(5) 1.5087(5) 0.7285(5)
C1A C -0.2950(3) 1.4566(3) 0.5441(3)
C2A C -0.2353(3) 1.3623(3) 0.5332(3)
C3A C -0.1376(4) 1.3432(3) 0.4924(4)
H1A H -0.1091 1.3908 0.4707
C4A C -0.0812(3) 1.2554(3) 0.4831(4)
H2A H -0.0148 1.2436 0.4540
C5A C -0.1209(3) 1.1843(3) 0.5160(3)
C6A C -0.2190(4) 1.2038(3) 0.5566(4)
H3A H -0.2475 1.1562 0.5793
C7A C -0.2753(3) 1.2923(3) 0.5639(3)
H4A H -0.3423 1.3048 0.5904
C8A C -0.1248(4) 1.0612(4) 0.3229(4)
C9A C -0.1226(4) 1.0996(3) 0.3847(3)
H5A H -0.1617 1.1601 0.3888
C10A C -0.0620(3) 1.0500(3) 0.4442(3)
C11A C -0.0591(3) 1.0898(3) 0.5078(3)
C12A C -0.0022(3) 0.9596(3) 0.4355(3)
C13A C -0.0054(3) 0.9229(3) 0.3684(3)
H6A H 0.0351 0.8634 0.3611
C14A C -0.0648(3) 0.9708(3) 0.3145(3)
C15A C -0.0038(4) 0.8584(4) 0.2262(4)
H7A H -0.0180 0.8428 0.1798
H8A H -0.0048 0.8092 0.2780
H9A H 0.0599 0.8670 0.2050
C16A C -0.2335(5) 1.1967(4) 0.2628(5)
H10A H -0.2705 1.2189 0.2184
H11A H -0.2776 1.2031 0.3209
H12A H -0.1893 1.2320 0.2489
C17A C 1.4045(3) 0.6023(3) -0.3366(3)
C18A C 1.3227(3) 0.5769(3) -0.2677(3)
C19A C 1.3272(4) 0.5440(4) -0.1810(3)
H13A H 1.3837 0.5367 -0.1652
C20A C 1.2504(4) 0.5216(4) -0.1167(3)
H14A H 1.2560 0.4964 -0.0579
C21A C 1.1651(4) 0.5358(4) -0.1375(3)
C22A C 1.1607(4) 0.5688(4) -0.2250(3)
H15A H 1.1033 0.5788 -0.2407
C23A C 1.2390(4) 0.5871(4) -0.2890(3)
H16A H 1.2358 0.6070 -0.3487
C24A C 1.0575(4) 0.6508(4) -0.0085(3)
H17A H 1.1103 0.6640 -0.0541
C25A C 1.0302(4) 0.5742(4) -0.0051(3)
C26A C 1.0808(4) 0.5171(4) -0.0669(3)
C27A C 1.0514(4) 0.4425(4) -0.0622(3)
C28A C 1.1024(4) 0.3815(4) -0.1228(3)
H18A H 1.1581 0.3906 -0.1667
C29A C 1.0726(4) 0.3117(4) -0.1182(3)
C30A C 1.2036(4) 0.2577(5) -0.2364(4)
H19A H 1.2277 0.2103 -0.2713
H20A H 1.1919 0.3175 -0.2755
H21A H 1.2513 0.2502 -0.2058
C31A C 1.1163(5) 0.7947(5) -0.0074(4)
H22A H 1.1252 0.8475 0.0024
H23A H 1.1083 0.8072 -0.0670
H24A H 1.1727 0.7418 -0.0006
C32A C 1.0097(4) 0.7044(4) 0.0517(3)
C33A C 0.4395(3) 1.2556(3) -0.3139(3)
C34A C 0.4628(4) 1.1640(3) -0.3119(3)
H25A H 0.4721 1.1439 -0.3639
C35A C 0.4724(4) 1.1012(3) -0.2343(3)
H26A H 0.4892 1.0384 -0.2337
C36A C 0.4577(4) 1.1301(3) -0.1574(3)
C37A C 0.4303(4) 1.2226(3) -0.1598(3)
H27A H 0.4165 1.2431 -0.1070
C38A C 0.4227(4) 1.2857(3) -0.2373(3)
H28A H 0.4063 1.3486 -0.2381
C39A C 0.4780(4) 1.0625(3) -0.0767(3)
C40A C 0.5582(4) 1.0561(3) -0.0503(3)
C41A C 0.6206(4) 1.1095(4) -0.1002(4)
H29A H 0.6087 1.1491 -0.1536
C42A C 0.6966(4) 1.1053(4) -0.0736(4)
C43A C 0.7395(5) 1.2157(5) -0.1970(6)
H30A H 0.7873 1.2484 -0.2228
H31A H 0.7437 1.1809 -0.2386
H32A H 0.6750 1.2592 -0.1845
C44A C 0.8128(6) 0.9932(5) 0.1084(5)
H33A H 0.8691 1.0012 0.1161
H34A H 0.7570 1.0119 0.1568
H35A H 0.8257 0.9293 0.1082
C45A C 0.7171(4) 1.0446(4) 0.0057(4)
C46A C 0.6627(4) 0.9889(4) 0.0523(3)
H36A H 0.6793 0.9464 0.1028
C47A C 0.5805(4) 0.9925(3) 0.0272(3)
C48A C 0.4336(3) 1.3234(3) -0.3988(3)
C49A C -0.3309(7) 1.9500(6) 0.4392(7)
H37A H -0.3875 1.9579 0.4191
H38A H -0.2764 1.9533 0.3867
C50A C -0.3530(8) 2.0258(6) 0.4856(9)
H39A H -0.3673 2.0842 0.4447
H40A H -0.2973 2.0180 0.5061
H41A H -0.4088 2.0246 0.5360
C51A C -0.2108(5) 1.8202(6) 0.5142(6)
H42A H -0.2174 1.7901 0.5769
H43A H -0.1813 1.8685 0.5029
C52A C -0.1467(6) 1.7523(7) 0.4576(7)
H44A H -0.0837 1.7260 0.4710
H45A H -0.1390 1.7823 0.3955
H46A H -0.1755 1.7041 0.4691
C53A C -0.3676(5) 1.8144(5) 0.5318(5)
H47A H -0.4278 1.8394 0.5170
C54A C -0.2411(6) 1.5653(5) 0.6883(6)
H48A H -0.2239 1.6135 0.6438
C55A C -0.1960(10) 1.4280(9) 0.7931(10)
H49A H -0.2377 1.4060 0.7757
H50A H -0.1357 1.3782 0.7984
C56A C -0.0776(8) 1.5171(8) 0.7051(11)
H51A H -0.0593 1.5085 0.7599
H52A H -0.0792 1.5794 0.6720
C57A C -0.0017(9) 1.4505(11) 0.6508(12)
H53A H 0.0609 1.4593 0.6389
H54A H -0.0175 1.4603 0.5950
H55A H 0.0010 1.3885 0.6831
C58A C -0.2448(16) 1.461(2) 0.8747(15)
H56A H -0.2623 1.4114 0.9214
H57A H -0.3031 1.5111 0.8672
H58A H -0.2020 1.4817 0.8906
O14 O 0.4994(10) 0.9031(8) 0.7028(8)
N3 N 0.5058(8) 0.7789(8) 0.8187(7)
C64 C 0.4883(14) 0.8275(12) 0.7437(10)
H70 H 0.4631 0.8015 0.7155
C65 C 0.5438(12) 0.8121(13) 0.8686(13)
H71 H 0.4991 0.8169 0.9276
H72 H 0.5483 0.8735 0.8381
C66 C 0.4861(11) 0.6892(11) 0.8618(10)
H73 H 0.4755 0.6655 0.8181
H74 H 0.5430 0.6450 0.8818
C67 C 0.4056(15) 0.6980(14) 0.9338(10)
H75 H 0.3942 0.6390 0.9593
H76 H 0.3492 0.7419 0.9142
H77 H 0.4170 0.7192 0.9782
C68 C 0.6396(15) 0.7512(17) 0.8786(19)
H78 H 0.6640 0.7760 0.9109
H79 H 0.6838 0.7460 0.8203
H80 H 0.6347 0.6911 0.9111
O15 O 0.8909(7) 0.7332(6) 0.6991(7)
N4 N 0.8578(6) 0.8305(7) 0.7895(7)
C59 C 0.8868(10) 0.7533(11) 0.7693(13)
H59 H 0.9086 0.7033 0.8131
C60 C 0.8362(12) 0.9136(12) 0.7126(10)
H60 H 0.8617 0.9609 0.7134
H61 H 0.8669 0.8943 0.6551
C61 C 0.8491(9) 0.8534(10) 0.8700(10)
H62 H 0.8558 0.7972 0.9157
H63 H 0.7834 0.8946 0.8884
C62 C 0.7349(12) 0.9481(13) 0.7253(14)
H64 H 0.7190 1.0000 0.6780
H65 H 0.7054 0.9674 0.7821
H66 H 0.7105 0.9006 0.7247
C63 C 0.9177(9) 0.8964(10) 0.8685(9)
H67 H 0.9046 0.9096 0.9267
H68 H 0.9111 0.9530 0.8246
H69 H 0.9833 0.8554 0.8532
loop_
_geom_bond_atom_site_label_1
_geom_bond_atom_site_label_2
_geom_bond_site_symmetry_1
_geom_bond_site_symmetry_2
Cd1 O4 1_555 1_555
Cd2 O3 1_555 1_555
O1 C8 1_555 1_555
O2 C14 1_555 1_555
O3 C1 1_555 1_555
O4 Cd2 1_555 1_555
O5 C44 1_555 1_555
O6 C42 1_555 1_555
O7 Cd1 1_555 1_555
O8 C48 1_555 1_555
O9 Cd2 1_555 1_555
O10 Cd1 1_555 1_555
O11 Cd2 1_555 1_555
O12 C29 1_555 1_555
O13 C31 1_555 1_555
O14 C64 1_555 1_555
O15 C59 1_555 1_555
O16 Cd2 1_555 1_555
N1 C49 1_555 1_555
N2 C54 1_555 1_555
N3 C64 1_555 1_555
N4 C59 1_555 1_555
C1 O4 1_555 1_555
C2 C1 1_555 1_555
C3 C2 1_555 1_555
H1 C3 1_555 1_555
C4 C3 1_555 1_555
H2 C4 1_555 1_555
C5 C4 1_555 1_555
C6 C5 1_555 1_555
H3 C6 1_555 1_555
C7 C2 1_555 1_555
H4 C7 1_555 1_555
C8 C9 1_555 1_555
C9 H5 1_555 1_555
C10 C9 1_555 1_555
C11 C5 1_555 1_555
C12 C10 1_555 1_555
C13 C12 1_555 1_555
H6 C13 1_555 1_555
C14 C8 1_555 1_555
C15 O2 1_555 1_555
H7 C15 1_555 1_555
H8 C15 1_555 1_555
H9 C15 1_555 1_555
C16 O1 1_555 1_555
H10 C16 1_555 1_555
H11 C16 1_555 1_555
H12 C16 1_555 1_555
C17 O10 1_555 1_555
C18 C17 1_555 1_555
C19 C18 1_555 1_555
H13 C19 1_555 1_555
C20 C19 1_555 1_555
H14 C20 1_555 1_555
C21 C20 1_555 1_555
C22 C21 1_555 1_555
H15 C22 1_555 1_555
C23 C18 1_555 1_555
H16 C23 1_555 1_555
C24 H17 1_555 1_555
C25 C24 1_555 1_555
C26 C21 1_555 1_555
C27 C26 1_555 1_555
C28 C27 1_555 1_555
H18 C28 1_555 1_555
C29 C28 1_555 1_555
C30 O12 1_555 1_555
H19 C30 1_555 1_555
H20 C30 1_555 1_555
H21 C30 1_555 1_555
C31 H22 1_555 1_555
H23 C31 1_555 1_555
H24 C31 1_555 1_555
C32 O13 1_555 1_555
C33 C34 1_555 1_555
C34 H25 1_555 1_555
C35 C34 1_555 1_555
H26 C35 1_555 1_555
C36 C35 1_555 1_555
C37 C36 1_555 1_555
H27 C37 1_555 1_555
C38 C33 1_555 1_555
H28 C38 1_555 1_555
C39 C36 1_555 1_555
C40 C39 1_555 1_555
C41 C40 1_555 1_555
H29 C41 1_555 1_555
C42 C41 1_555 1_555
C43 O6 1_555 1_555
H30 C43 1_555 1_555
H31 C43 1_555 1_555
H32 C43 1_555 1_555
C44 H33 1_555 1_555
H34 C44 1_555 1_555
H35 C44 1_555 1_555
C45 O5 1_555 1_555
C46 C45 1_555 1_555
H36 C46 1_555 1_555
C47 C40 1_555 1_555
C48 O7 1_555 1_555
C49 H37 1_555 1_555
H38 C49 1_555 1_555
C50 C49 1_555 1_555
H39 C50 1_555 1_555
H40 C50 1_555 1_555
H41 C50 1_555 1_555
C51 N1 1_555 1_555
H42 C51 1_555 1_555
H43 C51 1_555 1_555
C52 C51 1_555 1_555
H44 C52 1_555 1_555
H45 C52 1_555 1_555
H46 C52 1_555 1_555
C53 O9 1_555 1_555
H47 C53 1_555 1_555
C54 O16 1_555 1_555
H48 C54 1_555 1_555
C55 N2 1_555 1_555
H49 C55 1_555 1_555
H50 C55 1_555 1_555
C56 N2 1_555 1_555
H51 C56 1_555 1_555
H52 C56 1_555 1_555
C57 C56 1_555 1_555
H53 C57 1_555 1_555
H54 C57 1_555 1_555
H55 C57 1_555 1_555
C58 C55 1_555 1_555
H56 C58 1_555 1_555
H57 C58 1_555 1_555
H58 C58 1_555 1_555
C59 H59 1_555 1_555
C60 N4 1_555 1_555
H60 C60 1_555 1_555
H61 C60 1_555 1_555
C61 N4 1_555 1_555
H62 C61 1_555 1_555
H63 C61 1_555 1_555
C62 C60 1_555 1_555
H64 C62 1_555 1_555
H65 C62 1_555 1_555
H66 C62 1_555 1_555
C63 C61 1_555 1_555
H67 C63 1_555 1_555
H68 C63 1_555 1_555
H69 C63 1_555 1_555
C64 H70 1_555 1_555
C65 N3 1_555 1_555
H71 C65 1_555 1_555
H72 C65 1_555 1_555
C66 N3 1_555 1_555
H73 C66 1_555 1_555
H74 C66 1_555 1_555
C67 C66 1_555 1_555
H75 C67 1_555 1_555
H76 C67 1_555 1_555
H77 C67 1_555 1_555
C68 C65 1_555 1_555
H78 C68 1_555 1_555
H79 C68 1_555 1_555
H80 C68 1_555 1_555
Cd1_2 O4A 1_555 1_555
Cd1_3 O7A 1_555 1_555
Cd1_4 O10A 1_555 1_555
Cd2A O3A 1_555 1_555
Cd2A_2 O8 1_555 1_555
Cd2_2 O8A 1_555 1_555
Cd2A_3 O11A 1_555 1_555
O1A C8A 1_555 1_555
O2A C14A 1_555 1_555
O3A C1A 1_555 1_555
O4A Cd2A 1_555 1_555
O4A_2 Cd1 1_555 1_555
O5A C44A 1_555 1_555
O6A C42A 1_555 1_555
O7A C48A 1_555 1_555
O7A_2 Cd1 1_555 1_555
O8A C48A 1_555 1_555
O8A_2 Cd2 1_555 1_555
O8_2 Cd2A 1_555 1_555
O9A Cd2A 1_555 1_555
O10A C17A 1_555 1_555
O10A_2 Cd1 1_555 1_555
O11A C17A 1_555 1_555
O11A_2 Cd2A 1_555 1_555
O12A C29A 1_555 1_555
O13A C31A 1_555 1_555
O16A Cd2A 1_555 1_555
N1A C49A 1_555 1_555
N2A C54A 1_555 1_555
C1A O4A 1_555 1_555
C2A C1A 1_555 1_555
C3A C2A 1_555 1_555
H1A C3A 1_555 1_555
C4A C3A 1_555 1_555
H2A C4A 1_555 1_555
C5A C4A 1_555 1_555
C6A C5A 1_555 1_555
H3A C6A 1_555 1_555
C7A C2A 1_555 1_555
H4A C7A 1_555 1_555
C8A C9A 1_555 1_555
C9A H5A 1_555 1_555
C10A C9A 1_555 1_555
C11A C12 1_555 1_555
C12A C11 1_555 1_555
C13A C12A 1_555 1_555
H6A C13A 1_555 1_555
C14A C8A 1_555 1_555
C15A O2A 1_555 1_555
H7A C15A 1_555 1_555
H8A C15A 1_555 1_555
H9A C15A 1_555 1_555
C16A O1A 1_555 1_555
H10A C16A 1_555 1_555
H11A C16A 1_555 1_555
H12A C16A 1_555 1_555
C17A C18A 1_555 1_555
C18A C19A 1_555 1_555
C19A H13A 1_555 1_555
C20A C19A 1_555 1_555
H14A C20A 1_555 1_555
C21A C20A 1_555 1_555
C22A C21A 1_555 1_555
H15A C22A 1_555 1_555
C23A C18A 1_555 1_555
H16A C23A 1_555 1_555
C24A H17A 1_555 1_555
C25A C27 1_555 1_555
C26A C21A 1_555 1_555
C27A C25 1_555 1_555
C28A C27A 1_555 1_555
H18A C28A 1_555 1_555
C29A C32 1_555 1_555
C30A O12A 1_555 1_555
H19A C30A 1_555 1_555
H20A C30A 1_555 1_555
H21A C30A 1_555 1_555
C31A H22A 1_555 1_555
H23A C31A 1_555 1_555
H24A C31A 1_555 1_555
C32A C29 1_555 1_555
C33A C34A 1_555 1_555
C34A H25A 1_555 1_555
C35A C34A 1_555 1_555
H26A C35A 1_555 1_555
C36A C35A 1_555 1_555
C37A C36A 1_555 1_555
H27A C37A 1_555 1_555
C38A C33A 1_555 1_555
H28A C38A 1_555 1_555
C39A C47 1_555 1_555
C40A C39A 1_555 1_555
C41A C40A 1_555 1_555
H29A C41A 1_555 1_555
C42A C41A 1_555 1_555
C43A O6A 1_555 1_555
H30A C43A 1_555 1_555
H31A C43A 1_555 1_555
H32A C43A 1_555 1_555
C44A H33A 1_555 1_555
H34A C44A 1_555 1_555
H35A C44A 1_555 1_555
C45A O5A 1_555 1_555
C46A C45A 1_555 1_555
H36A C46A 1_555 1_555
C47A C39 1_555 1_555
C48A C33A 1_555 1_555
C49A H37A 1_555 1_555
H38A C49A 1_555 1_555
C50A C49A 1_555 1_555
H39A C50A 1_555 1_555
H40A C50A 1_555 1_555
H41A C50A 1_555 1_555
C51A N1A 1_555 1_555
H42A C51A 1_555 1_555
H43A C51A 1_555 1_555
C52A C51A 1_555 1_555
H44A C52A 1_555 1_555
H45A C52A 1_555 1_555
H46A C52A 1_555 1_555
C53A O9A 1_555 1_555
H47A C53A 1_555 1_555
C54A O16A 1_555 1_555
H48A C54A 1_555 1_555
C55A N2A 1_555 1_555
H49A C55A 1_555 1_555
H50A C55A 1_555 1_555
C56A N2A 1_555 1_555
H51A C56A 1_555 1_555
H52A C56A 1_555 1_555
C57A C56A 1_555 1_555
H53A C57A 1_555 1_555
H54A C57A 1_555 1_555
H55A C57A 1_555 1_555
C58A C55A 1_555 1_555
H56A C58A 1_555 1_555
H57A C58A 1_555 1_555
H58A C58A 1_555 1_555
O11 C17 1_555 1_555
N1 C53 1_555 1_555
C6 C7 1_555 1_555
C10 C11 1_555 1_555
C13 C14 1_555 1_555
C22 C23 1_555 1_555
C24 C32 1_555 1_555
C25 C26 1_555 1_555
C33 C48 1_555 1_555
C37 C38 1_555 1_555
C42 C45 1_555 1_555
C46 C47 1_555 1_555
Cd2A_2 O4A_2 1_555 1_555
O13A C32A 1_555 1_555
N1A C53A 1_555 1_555
C5A C11A 1_555 1_555
C6A C7A 1_555 1_555
C10A C11A 1_555 1_555
C10A C12A 1_555 1_555
C13A C14A 1_555 1_555
C22A C23A 1_555 1_555
C24A C25A 1_555 1_555
C24A C32A 1_555 1_555
C25A C26A 1_555 1_555
C26A C27A 1_555 1_555
C28A C29A 1_555 1_555
C36A C39A 1_555 1_555
C37A C38A 1_555 1_555
C40A C47A 1_555 1_555
C42A C45A 1_555 1_555
C46A C47A 1_555 1_555

#END
