
#######################################################################
#
#                 Cambridge Crystallographic Data Centre
#                                CCDC 
#
#######################################################################
#
# If this CIF has been generated from an entry in the Cambridge 
# Structural Database, then it will include bibliographic, chemical, 
# crystal, experimental, refinement or atomic coordinate data resulting 
# from the CCDC's data processing and validation procedures.
#
#######################################################################

data_GESFUG
_symmetry_cell_setting           monoclinic
_symmetry_space_group_name_H-M   'P 21/n'
_symmetry_Int_Tables_number      14
_space_group_name_Hall           '-P 2yn'
loop_
_symmetry_equiv_pos_site_id
_symmetry_equiv_pos_as_xyz
1 x,y,z
2 1/2-x,1/2+y,1/2-z
3 -x,-y,-z
4 1/2+x,1/2-y,1/2+z
_cell_length_a                   9.907(3)
_cell_length_b                   7.542(2)
_cell_length_c                   15.429(4)
_cell_angle_alpha                90
_cell_angle_beta                 105.236(4)
_cell_angle_gamma                90
_cell_volume                     1112.31
loop_
_atom_site_label
_atom_site_type_symbol
_atom_site_fract_x
_atom_site_fract_y
_atom_site_fract_z
Dy1 Dy 0.001099(13) 0.177700(17) 0.747020(7)
O1 O 0.2206(3) 0.3269(3) 0.76718(14)
O2 O -0.1580(2) 0.1384(3) 0.99391(13)
N1 N 0.1029(3) 0.2988(3) 0.89816(15)
O3 O -0.1319(2) 0.1288(3) 0.85552(13)
C1 C 0.2252(3) 0.3848(4) 0.91720(17)
C2 C -0.0915(3) 0.1704(4) 0.93775(19)
C3 C 0.2839(3) 0.4083(4) 0.83769(18)
C4 C 0.0459(3) 0.2667(4) 0.96623(18)
O4 O 0.3039(2) 0.4499(3) 1.15677(12)
O5 O -0.0031(3) 0.3373(4) 0.61162(17)
O6 O -0.1352(3) 0.4360(4) 0.74096(18)
O7 O 0.3907(2) 0.5010(3) 0.84552(13)
O8 O 0.1021(3) -0.0738(4) 0.82849(16)
C5 C 0.1079(3) 0.3169(4) 1.05380(18)
H1 H 0.0640 0.2928 1.0989
C6 C 0.2378(3) 0.4045(4) 1.07420(18)
C7 C 0.2947(3) 0.4394(4) 1.00167(18)
H2 H 0.3794 0.4992 1.0110
H3 H 0.022(5) 0.307(6) 0.583(3)
H5 H 0.116(5) -0.093(6) 0.885(3)
H6 H -0.179(5) 0.450(6) 0.785(3)
H8 H -0.009(5) 0.453(7) 0.605(3)
H9 H -0.177(5) 0.478(6) 0.706(3)
H10 H 0.155(5) -0.129(6) 0.811(3)
Dy1C Dy 0.501099(13) 0.322300(17) 1.247020(7)
Dy1A Dy 0.498901(13) 0.677700(17) 0.752980(7)
O4C O -0.1961(2) 0.0501(3) 0.65677(12)
O7A O 0.1093(2) 0.0010(3) 0.65448(13)
O9 O 0.5625(3) 0.1780(4) 0.9323(2)
H4 H 0.647(6) 0.169(6) 0.949(3)
H7 H 0.552(5) 0.242(7) 0.891(3)
loop_
_geom_bond_atom_site_label_1
_geom_bond_atom_site_label_2
_geom_bond_site_symmetry_1
_geom_bond_site_symmetry_2
Dy1 O1 1_555 1_555
O1 C3 1_555 1_555
O2 C2 1_555 1_555
N1 Dy1 1_555 1_555
O3 Dy1 1_555 1_555
C1 N1 1_555 1_555
C2 O3 1_555 1_555
C3 C1 1_555 1_555
C4 N1 1_555 1_555
O4 C6 1_555 1_555
O5 Dy1 1_555 1_555
O6 Dy1 1_555 1_555
O7 C3 1_555 1_555
O8 Dy1 1_555 1_555
C5 C4 1_555 1_555
H1 C5 1_555 1_555
C6 C5 1_555 1_555
C7 C1 1_555 1_555
H2 C7 1_555 1_555
O9 H4 1_555 1_555
H3 O5 1_555 1_555
H5 O8 1_555 1_555
H6 O6 1_555 1_555
H7 O9 1_555 1_555
H8 O5 1_555 1_555
H9 O6 1_555 1_555
H10 O8 1_555 1_555
Dy1C O4 1_555 1_555
Dy1A O7 1_555 1_555
O4C Dy1 1_555 1_555
O7A Dy1 1_555 1_555
C2 C4 1_555 1_555
C6 C7 1_555 1_555

#END
