
#######################################################################
#
#                 Cambridge Crystallographic Data Centre
#                                CCDC 
#
#######################################################################
#
# If this CIF has been generated from an entry in the Cambridge 
# Structural Database, then it will include bibliographic, chemical, 
# crystal, experimental, refinement or atomic coordinate data resulting 
# from the CCDC's data processing and validation procedures.
#
#######################################################################

data_GESFEQ
_symmetry_cell_setting           monoclinic
_symmetry_space_group_name_H-M   'P 21/c'
_symmetry_Int_Tables_number      14
_space_group_name_Hall           '-P 2ybc'
loop_
_symmetry_equiv_pos_site_id
_symmetry_equiv_pos_as_xyz
1 x,y,z
2 -x,1/2+y,1/2-z
3 -x,-y,-z
4 x,1/2-y,1/2+z
_cell_length_a                   10.906(3)
_cell_length_b                   17.443(5)
_cell_length_c                   13.201(4)
_cell_angle_alpha                90
_cell_angle_beta                 101.627(4)
_cell_angle_gamma                90
_cell_volume                     2459.74
loop_
_atom_site_label
_atom_site_type_symbol
_atom_site_fract_x
_atom_site_fract_y
_atom_site_fract_z
Gd1 Gd 0.328543(17) 0.043088(10) 0.411659(14)
Gd2 Gd -0.158486(17) 0.254659(10) 0.404663(14)
O1 O 0.4562(2) 0.00837(14) 0.5875(2)
O2 O 0.5058(3) 0.0239(2) 0.7586(2)
O3 O 0.1756(2) 0.14580(15) 0.3769(2)
O4 O 0.0534(3) 0.23552(15) 0.4249(2)
O5 O 0.6386(3) 0.21092(17) 0.3976(2)
O6 O 0.4841(2) 0.14950(15) 0.4487(2)
O7 O 0.2052(2) 0.00994(15) 0.2457(2)
O8 O 0.1385(3) 0.02807(18) 0.0763(2)
O9 O 0.1715(3) -0.20741(16) 0.9326(2)
O10 O 0.1747(3) -0.26141(15) 0.7798(2)
O11 O 0.1292(3) -0.13791(15) 0.4854(2)
O12 O 0.1563(2) -0.01126(14) 0.4738(2)
O13 O 0.3320(3) -0.09975(16) 0.3892(2)
O14 O -0.0439(3) 0.37914(16) 0.4233(2)
O15 O -0.2987(3) 0.35931(19) 0.3371(3)
N1 N 0.2895(3) 0.11935(17) 0.5681(2)
N2 N 0.3721(3) 0.11864(18) 0.2591(2)
N3 N 0.1465(3) -0.12918(18) 0.6856(2)
C1 C 0.4445(4) 0.0403(2) 0.6735(3)
C2 C 0.3486(4) 0.1035(2) 0.6646(3)
C3 C 0.3222(4) 0.1408(2) 0.7501(3)
H1 H 0.3672 0.1297 0.8161
C4 C 0.2283(4) 0.1946(3) 0.7357(3)
H2 H 0.2079 0.2202 0.7919
C5 C 0.1649(4) 0.2101(2) 0.6369(4)
H3 H 0.1002 0.2458 0.6256
C6 C 0.1983(3) 0.1723(2) 0.5547(3)
C7 C 0.1379(4) 0.1849(2) 0.4432(3)
C8 C 0.5358(4) 0.1769(2) 0.3804(3)
C9 C 0.4681(4) 0.1675(2) 0.2703(3)
C10 C 0.5018(4) 0.2045(3) 0.1870(3)
H4 H 0.5689 0.2385 0.1965
C11 C 0.4324(4) 0.1894(3) 0.0895(4)
H5 H 0.4523 0.2131 0.0319
C12 C 0.3333(4) 0.1387(3) 0.0780(3)
H6 H 0.2857 0.1283 0.0127
C13 C 0.3060(4) 0.1039(2) 0.1645(3)
C14 C 0.2070(4) 0.0428(2) 0.1612(3)
C15 C 0.1659(4) -0.2052(2) 0.8369(3)
C16 C 0.1456(4) -0.1283(2) 0.7866(3)
C17 C 0.1237(4) -0.0615(2) 0.8373(3)
H7 H 0.1247 -0.0621 0.9079
C18 C 0.1007(4) 0.0049(2) 0.7827(3)
H8 H 0.0840 0.0499 0.8153
C19 C 0.1024(4) 0.0047(2) 0.6781(3)
H9 H 0.0869 0.0494 0.6393
C20 C 0.1276(4) -0.0636(2) 0.6326(3)
C21 C 0.1373(3) -0.0710(2) 0.5215(3)
H10 H -0.079(5) 0.4274(15) 0.411(4)
H11 H 0.035(3) 0.392(4) 0.460(5)
H12 H -0.350(4) 0.376(3) 0.380(3)
H13 H 0.394(4) -0.129(3) 0.430(4)
H14 H 0.262(3) -0.129(2) 0.391(4)
H15 H -0.310(6) 0.379(4) 0.271(2)
Gd1B Gd 0.671457(17) -0.043088(10) 0.588341(14)
Gd2_2 Gd 0.841514(17) 0.254659(10) 0.404663(14)
Gd2A Gd 0.158486(17) -0.245341(10) 1.095337(14)
Gd2B Gd 0.158486(17) -0.254659(10) 0.595337(14)
O1B O 0.5438(2) -0.00837(14) 0.4125(2)
O5_2 O -0.3614(3) 0.21092(17) 0.3976(2)
O9A O -0.1715(3) 0.29259(16) 0.5674(2)
O10B O -0.1747(3) 0.26141(15) 0.2202(2)
O11B O -0.1292(3) 0.13791(15) 0.5146(2)
N3B N -0.1465(3) 0.12918(18) 0.3144(2)
O16 O 0.5732(10) 0.4429(5) 0.4740(8)
loop_
_geom_bond_atom_site_label_1
_geom_bond_atom_site_label_2
_geom_bond_site_symmetry_1
_geom_bond_site_symmetry_2
Gd1 O1 1_555 1_555
Gd2 O4 1_555 1_555
O1 C1 1_555 1_555
O2 C1 1_555 1_555
O3 Gd1 1_555 1_555
O4 C7 1_555 1_555
O5 C8 1_555 1_555
O6 Gd1 1_555 1_555
O7 Gd1 1_555 1_555
O8 C14 1_555 1_555
O9 C15 1_555 1_555
O10 C15 1_555 1_555
O11 C21 1_555 1_555
O12 Gd1 1_555 1_555
O13 Gd1 1_555 1_555
O14 Gd2 1_555 1_555
O15 Gd2 1_555 1_555
N1 Gd1 1_555 1_555
N2 Gd1 1_555 1_555
N3 C16 1_555 1_555
C1 C2 1_555 1_555
C2 N1 1_555 1_555
C3 C2 1_555 1_555
H1 C3 1_555 1_555
C4 C3 1_555 1_555
H2 C4 1_555 1_555
C5 C4 1_555 1_555
H3 C5 1_555 1_555
C6 N1 1_555 1_555
C7 O3 1_555 1_555
C8 O6 1_555 1_555
C9 N2 1_555 1_555
C10 C9 1_555 1_555
H4 C10 1_555 1_555
C11 C10 1_555 1_555
H5 C11 1_555 1_555
C12 C11 1_555 1_555
H6 C12 1_555 1_555
C13 N2 1_555 1_555
C14 O7 1_555 1_555
C15 C16 1_555 1_555
C16 C17 1_555 1_555
C17 H7 1_555 1_555
C18 C17 1_555 1_555
H8 C18 1_555 1_555
C19 C18 1_555 1_555
H9 C19 1_555 1_555
C20 N3 1_555 1_555
C21 O12 1_555 1_555
H10 O14 1_555 1_555
H11 O14 1_555 1_555
H12 O15 1_555 1_555
H13 O13 1_555 1_555
H14 O13 1_555 1_555
H15 O15 1_555 1_555
Gd1B O1 1_555 1_555
Gd2_2 O5 1_555 1_555
Gd2A O9 1_555 1_555
Gd2B O10 1_555 1_555
O1B Gd1 1_555 1_555
O5_2 Gd2 1_555 1_555
O9A Gd2 1_555 1_555
O10B Gd2 1_555 1_555
O11B Gd2 1_555 1_555
N3B Gd2 1_555 1_555
O11 Gd2B 1_555 1_555
N3 Gd2B 1_555 1_555
C5 C6 1_555 1_555
C6 C7 1_555 1_555
C8 C9 1_555 1_555
C12 C13 1_555 1_555
C13 C14 1_555 1_555
C19 C20 1_555 1_555
C20 C21 1_555 1_555
Gd1B O1B 1_555 1_555

#END
