
#######################################################################
#
#                 Cambridge Crystallographic Data Centre
#                                CCDC 
#
#######################################################################
#
# If this CIF has been generated from an entry in the Cambridge 
# Structural Database, then it will include bibliographic, chemical, 
# crystal, experimental, refinement or atomic coordinate data resulting 
# from the CCDC's data processing and validation procedures.
#
#######################################################################

data_GESFIU
_symmetry_cell_setting           monoclinic
_symmetry_space_group_name_H-M   'P 21/n'
_symmetry_Int_Tables_number      14
_space_group_name_Hall           '-P 2yn'
loop_
_symmetry_equiv_pos_site_id
_symmetry_equiv_pos_as_xyz
1 x,y,z
2 1/2-x,1/2+y,1/2-z
3 -x,-y,-z
4 1/2+x,1/2-y,1/2+z
_cell_length_a                   9.673(3)
_cell_length_b                   13.622(4)
_cell_length_c                   22.292(6)
_cell_angle_alpha                90
_cell_angle_beta                 93.103(4)
_cell_angle_gamma                90
_cell_volume                     2933.01
loop_
_atom_site_label
_atom_site_type_symbol
_atom_site_fract_x
_atom_site_fract_y
_atom_site_fract_z
Nd1 Nd 0.26636(2) 0.295017(16) 0.352835(10)
Nd2 Nd 0.73283(2) 0.061828(15) 0.222926(10)
N1 N 0.2559(4) 0.3234(3) 0.23975(15)
N2 N 0.2039(4) 0.1217(3) 0.39172(16)
N3 N 0.3089(4) 0.4406(2) 0.42363(15)
O1 O 0.4346(3) 0.2017(2) 0.29487(13)
O2 O 0.5427(3) 0.1785(2) 0.20988(13)
O3 O 0.1088(3) 0.4257(2) 0.31238(13)
O4 O -0.0412(3) 0.4722(2) 0.23803(14)
O5 O 0.1670(3) 0.3016(2) 0.05783(13)
H1 H 0.0941 0.3296 0.0482
O6 O 0.0704(3) 0.2027(2) 0.29691(15)
O7 O -0.0529(3) 0.0665(2) 0.27968(15)
O8 O 0.4119(3) 0.2216(2) 0.44097(14)
O9 O 0.4346(4) 0.1203(3) 0.51940(15)
O10 O 0.0416(4) -0.1269(2) 0.46791(16)
H2 H 0.0815 -0.1404 0.5002
O11 O 0.4687(3) 0.4048(2) 0.33491(13)
O12 O 0.5954(3) 0.5409(2) 0.35293(14)
O13 O 0.1023(3) 0.3158(2) 0.43325(14)
O14 O 0.0577(4) 0.3704(3) 0.52454(15)
O15 O 0.3682(3) 0.6700(2) 0.54303(13)
H3 H 0.4320 0.7062 0.5345
C1 C 0.4457(4) 0.2114(3) 0.23894(19)
C2 C 0.3327(4) 0.2678(3) 0.20454(19)
C3 C 0.3071(4) 0.2603(3) 0.14324(19)
H4 H 0.3636 0.2221 0.1202
C4 C 0.1944(4) 0.3114(3) 0.11645(19)
C5 C 0.1150(4) 0.3704(3) 0.15320(19)
H5 H 0.0406 0.4067 0.1370
C6 C 0.1502(4) 0.3732(3) 0.21377(19)
C7 C 0.0663(4) 0.4291(3) 0.2583(2)
C8 C 0.0331(4) 0.1168(3) 0.30983(19)
C9 C 0.0962(4) 0.0715(3) 0.36610(19)
C10 C 0.0421(4) -0.0117(3) 0.3905(2)
H6 H -0.0318 -0.0442 0.3709
C11 C 0.0993(5) -0.0465(3) 0.4449(2)
C12 C 0.2113(5) 0.0034(3) 0.4720(2)
H7 H 0.2529 -0.0183 0.5082
C13 C 0.2597(4) 0.0861(3) 0.44385(19)
C14 C 0.3788(4) 0.1465(3) 0.47068(19)
C15 C 0.4984(4) 0.4833(3) 0.36359(19)
C16 C 0.4097(4) 0.5070(3) 0.41519(18)
C17 C 0.4341(4) 0.5871(3) 0.45284(18)
H8 H 0.5041 0.6318 0.4457
C18 C 0.3517(4) 0.5988(3) 0.50116(19)
C19 C 0.2450(4) 0.5314(3) 0.50964(19)
H9 H 0.1866 0.5390 0.5411
C20 C 0.2286(4) 0.4539(3) 0.47045(19)
C21 C 0.1195(4) 0.3742(3) 0.4773(2)
O16 O 0.5933(3) 0.0207(2) 0.12976(13)
H10 H 0.5813 0.0618 0.1012
H11 H 0.5157 -0.0010 0.1406
O17 O 0.7981(4) -0.1116(2) 0.22634(18)
H12 H 0.8767 -0.1271 0.2139
H13 H 0.7666 -0.1576 0.2474
O18 O 0.6948(3) 0.1274(3) 0.32588(15)
H14 H 0.7506 0.1601 0.3491
H15 H 0.6573 0.0817 0.3453
O19 O 0.8314(3) 0.2323(2) 0.21112(16)
H16 H 0.8276 0.2723 0.2403
H17 H 0.8156 0.2613 0.1777
Nd2A Nd -0.23283(2) 0.561828(15) 0.277074(10)
Nd2_2 Nd -0.26717(2) 0.061828(15) 0.222926(10)
Nd2A_2 Nd 0.76717(2) 0.561828(15) 0.277074(10)
O4A O 0.5412(3) -0.0278(2) 0.26197(14)
O7_2 O 0.9471(3) 0.0665(2) 0.27968(15)
O12A O 0.9046(3) 0.0409(2) 0.14707(14)
O20 O 0.1436(3) 0.7918(2) 0.57148(15)
H18 H 0.2094 0.7569 0.5595
H19 H 0.0686 0.7594 0.5720
O21 O 0.7621(6) 0.7970(5) 0.3974(3)
H20 H 0.8360 0.7785 0.4165
H21 H 0.7157 0.8351 0.4189
loop_
_geom_bond_atom_site_label_1
_geom_bond_atom_site_label_2
_geom_bond_site_symmetry_1
_geom_bond_site_symmetry_2
Nd1 N1 1_555 1_555
Nd2 O2 1_555 1_555
N1 C2 1_555 1_555
N2 Nd1 1_555 1_555
N3 Nd1 1_555 1_555
O1 Nd1 1_555 1_555
O2 C1 1_555 1_555
O3 Nd1 1_555 1_555
O4 C7 1_555 1_555
O5 H1 1_555 1_555
O6 Nd1 1_555 1_555
O7 C8 1_555 1_555
O8 Nd1 1_555 1_555
O9 C14 1_555 1_555
O10 H2 1_555 1_555
O11 Nd1 1_555 1_555
O12 C15 1_555 1_555
O13 Nd1 1_555 1_555
O14 C21 1_555 1_555
O15 H3 1_555 1_555
C1 O1 1_555 1_555
C2 C1 1_555 1_555
C3 C2 1_555 1_555
H4 C3 1_555 1_555
C4 O5 1_555 1_555
C5 C4 1_555 1_555
H5 C5 1_555 1_555
C6 N1 1_555 1_555
C7 O3 1_555 1_555
C8 O6 1_555 1_555
C9 N2 1_555 1_555
C10 C9 1_555 1_555
H6 C10 1_555 1_555
C11 O10 1_555 1_555
C12 C11 1_555 1_555
H7 C12 1_555 1_555
C13 N2 1_555 1_555
C14 O8 1_555 1_555
C15 O11 1_555 1_555
C16 N3 1_555 1_555
C17 C16 1_555 1_555
H8 C17 1_555 1_555
C18 O15 1_555 1_555
C19 C18 1_555 1_555
H9 C19 1_555 1_555
C20 N3 1_555 1_555
C21 O13 1_555 1_555
O16 Nd2 1_555 1_555
H10 O16 1_555 1_555
H11 O16 1_555 1_555
O17 Nd2 1_555 1_555
H12 O17 1_555 1_555
H13 O17 1_555 1_555
O18 Nd2 1_555 1_555
H14 O18 1_555 1_555
H15 O18 1_555 1_555
O19 Nd2 1_555 1_555
H16 O19 1_555 1_555
H17 O19 1_555 1_555
O20 H18 1_555 1_555
H19 O20 1_555 1_555
O21 H20 1_555 1_555
H21 O21 1_555 1_555
Nd2A O4 1_555 1_555
Nd2_2 O7 1_555 1_555
Nd2A_2 O12 1_555 1_555
O4A Nd2 1_555 1_555
O7_2 Nd2 1_555 1_555
O12A Nd2 1_555 1_555
C3 C4 1_555 1_555
C5 C6 1_555 1_555
C6 C7 1_555 1_555
C8 C9 1_555 1_555
C10 C11 1_555 1_555
C12 C13 1_555 1_555
C13 C14 1_555 1_555
C15 C16 1_555 1_555
C17 C18 1_555 1_555
C19 C20 1_555 1_555
C20 C21 1_555 1_555

#END
