
#######################################################################
#
#                 Cambridge Crystallographic Data Centre
#                                CCDC 
#
#######################################################################
#
# If this CIF has been generated from an entry in the Cambridge 
# Structural Database, then it will include bibliographic, chemical, 
# crystal, experimental, refinement or atomic coordinate data resulting 
# from the CCDC's data processing and validation procedures.
#
#######################################################################

data_GESFOA
_symmetry_cell_setting           monoclinic
_symmetry_space_group_name_H-M   'C 2/c'
_symmetry_Int_Tables_number      15
_space_group_name_Hall           '-C 2yn'
loop_
_symmetry_equiv_pos_site_id
_symmetry_equiv_pos_as_xyz
1 x,y,z
2 1/2+x,1/2+y,z
3 -x,y,1/2-z
4 1/2-x,1/2+y,1/2-z
5 -x,-y,-z
6 1/2-x,1/2-y,-z
7 x,-y,1/2+z
8 1/2+x,1/2-y,1/2+z
_cell_length_a                   13.252(4)
_cell_length_b                   9.769(3)
_cell_length_c                   13.174(4)
_cell_angle_alpha                90
_cell_angle_beta                 96.259(6)
_cell_angle_gamma                90
_cell_volume                     1695.32
loop_
_atom_site_label
_atom_site_type_symbol
_atom_site_fract_x
_atom_site_fract_y
_atom_site_fract_z
Zn1 Zn 0.45368(6) 0.01946(9) 0.12666(6)
O1 O 0.5981(3) 0.0889(4) 0.2037(3)
O2 O 0.6632(4) 0.2545(5) 0.1139(3)
O3 O 0.5420(3) 0.1172(4) 0.5291(3)
O4 O 0.6006(5) 0.2897(5) 0.6323(4)
O5 O 0.3284(4) -0.1036(5) 0.0652(4)
H1 H 0.3479 -0.1597 0.0226
H2 H 0.2772 -0.1246 0.0950
O6 O 0.5000 -0.1385(6) 0.2500
H3 H 0.5363 -0.2002 0.2266
N1 N 0.6108(4) 0.2372(5) 0.3702(4)
C1 C 0.6327(4) 0.2090(6) 0.1931(5)
C2 C 0.6338(5) 0.3000(6) 0.2852(5)
C3 C 0.6505(5) 0.4403(7) 0.2810(5)
H4 H 0.6658 0.4813 0.2209
C4 C 0.6438(7) 0.5173(7) 0.3673(6)
H5 H 0.6529 0.6117 0.3658
C5 C 0.6236(6) 0.4533(7) 0.4561(5)
H6 H 0.6206 0.5031 0.5158
C6 C 0.6079(5) 0.3122(6) 0.4544(5)
C7 C 0.5820(5) 0.2342(6) 0.5472(5)
Zn1B Zn 0.54632(6) 0.01946(9) 0.37334(6)
Zn1F Zn 0.45368(6) -0.01946(9) 0.62666(6)
Zn1D Zn 0.54632(6) -0.01946(9) -0.12666(6)
O1B O 0.4019(3) 0.0889(4) 0.2963(3)
O2B O 0.3368(4) 0.2545(5) 0.3861(3)
O3B O 0.4580(3) 0.1172(4) -0.0291(3)
O3F O 0.5420(3) -0.1172(4) 0.0291(3)
O3D O 0.4580(3) -0.1172(4) 0.4709(3)
O4B O 0.3994(5) 0.2897(5) -0.1323(4)
O5B O 0.6716(4) -0.1036(5) 0.4348(4)
H1B H 0.6521 -0.1597 0.4774
H2B H 0.7228 -0.1246 0.4050
H3B H 0.4637 -0.2002 0.2734
N1B N 0.3892(4) 0.2372(5) 0.1298(4)
C1B C 0.3673(4) 0.2090(6) 0.3069(5)
C2B C 0.3662(5) 0.3000(6) 0.2148(5)
C3B C 0.3495(5) 0.4403(7) 0.2190(5)
H4B H 0.3342 0.4813 0.2791
C4B C 0.3562(7) 0.5173(7) 0.1327(6)
H5B H 0.3471 0.6117 0.1342
C5B C 0.3764(6) 0.4533(7) 0.0439(5)
H6B H 0.3794 0.5031 -0.0158
C6B C 0.3921(5) 0.3122(6) 0.0456(5)
C7B C 0.4180(5) 0.2342(6) -0.0472(5)
loop_
_geom_bond_atom_site_label_1
_geom_bond_atom_site_label_2
_geom_bond_site_symmetry_1
_geom_bond_site_symmetry_2
Zn1 O1 1_555 1_555
O1 C1 1_555 1_555
O2 C1 1_555 1_555
O3 C7 1_555 1_555
O4 C7 1_555 1_555
O5 Zn1 1_555 1_555
H1 O5 1_555 1_555
H2 O5 1_555 1_555
O6 Zn1 1_555 1_555
H3 O6 1_555 1_555
N1 C2 1_555 1_555
C1 C2 1_555 1_555
C2 C3 1_555 1_555
C3 H4 1_555 1_555
C4 C3 1_555 1_555
H5 C4 1_555 1_555
C5 C4 1_555 1_555
H6 C5 1_555 1_555
C6 N1 1_555 1_555
C7 C6 1_555 1_555
Zn1B O3 1_555 1_555
Zn1F O3 1_555 1_555
Zn1D O3B 1_555 1_555
O1B Zn1B 1_555 1_555
O2B C1B 1_555 1_555
O3B Zn1 1_555 1_555
O3F Zn1 1_555 1_555
O3D Zn1B 1_555 1_555
O4B C7B 1_555 1_555
O5B Zn1B 1_555 1_555
H1B O5B 1_555 1_555
H2B O5B 1_555 1_555
H3B O6 1_555 1_555
N1B Zn1 1_555 1_555
C1B O1B 1_555 1_555
C2B N1B 1_555 1_555
C3B C2B 1_555 1_555
H4B C3B 1_555 1_555
C4B C3B 1_555 1_555
H5B C4B 1_555 1_555
C5B C4B 1_555 1_555
H6B C5B 1_555 1_555
C6B N1B 1_555 1_555
C7B O3B 1_555 1_555
O6 Zn1B 1_555 1_555
N1 Zn1B 1_555 1_555
C5 C6 1_555 1_555
Zn1F O3D 1_555 1_555
Zn1D O3F 1_555 1_555
C1B C2B 1_555 1_555
C5B C6B 1_555 1_555
C6B C7B 1_555 1_555

#END
