
#######################################################################
#
#                 Cambridge Crystallographic Data Centre
#                                CCDC 
#
#######################################################################
#
# If this CIF has been generated from an entry in the Cambridge 
# Structural Database, then it will include bibliographic, chemical, 
# crystal, experimental, refinement or atomic coordinate data resulting 
# from the CCDC's data processing and validation procedures.
#
#######################################################################

data_GESGIV
_symmetry_cell_setting           monoclinic
_symmetry_space_group_name_H-M   'P 21/n'
_symmetry_Int_Tables_number      14
_space_group_name_Hall           '-P 2yn'
loop_
_symmetry_equiv_pos_site_id
_symmetry_equiv_pos_as_xyz
1 x,y,z
2 1/2-x,1/2+y,1/2-z
3 -x,-y,-z
4 1/2+x,1/2-y,1/2+z
_cell_length_a                   9.980(3)
_cell_length_b                   7.562(2)
_cell_length_c                   15.522(4)
_cell_angle_alpha                90
_cell_angle_beta                 104.967(5)
_cell_angle_gamma                90
_cell_volume                     1131.69
loop_
_atom_site_label
_atom_site_type_symbol
_atom_site_fract_x
_atom_site_fract_y
_atom_site_fract_z
Gd1 Gd 0.999448(11) 0.176231(16) 0.253609(7)
N1 N 0.8969(2) 0.2979(3) 0.10157(14)
O1 O 0.7777(2) 0.3244(3) 0.23196(13)
O2 O 1.1576(2) 0.1405(3) 0.00570(12)
O3 O 1.13148(19) 0.1289(3) 0.14359(11)
O4 O 1.0007(3) 0.3383(3) 0.38918(14)
C1 C 1.0915(3) 0.1714(3) 0.06209(16)
C2 C 0.7155(3) 0.4044(4) 0.16179(16)
C3 C 0.7741(3) 0.3827(3) 0.08255(16)
C4 C 0.9544(3) 0.2667(3) 0.03362(16)
O5 O 1.1361(2) 0.4390(3) 0.25989(16)
O6 O 0.8980(2) -0.0784(3) 0.17127(14)
H1 H 0.874(4) -0.092(5) 0.111(3)
H2 H 1.184(5) 0.479(5) 0.300(3)
H3 H 0.842(4) -0.126(5) 0.192(2)
H4 H 0.978(4) 0.309(5) 0.429(3)
H5 H 1.175(4) 0.460(5) 0.219(3)
H6 H 1.006(5) 0.460(6) 0.396(3)
C5 C 0.8935(3) 0.3173(3) -0.05318(17)
H9 H 0.9377 0.2942 -0.0979
O8 O 0.69884(19) 0.4500(3) -0.15548(11)
C6 C 0.7638(3) 0.4040(3) -0.07369(15)
C7 C 0.7064(3) 0.4366(3) -0.00112(16)
H10 H 0.6219 0.4952 -0.0104
O9 O 0.6082(2) 0.4961(3) 0.15343(11)
Gd1C Gd 0.499448(11) 0.323769(16) -0.246391(7)
Gd1A Gd 0.500552(11) 0.676231(16) 0.246391(7)
O8C O 1.19884(19) 0.0500(3) 0.34452(11)
O9A O 0.8918(2) -0.0039(3) 0.34657(11)
O7 O 0.0651(3) 0.6783(3) 0.43418(19)
H7 H 0.152(6) 0.665(5) 0.452(3)
H8 H 0.037(6) 0.753(7) 0.390(4)
loop_
_geom_bond_atom_site_label_1
_geom_bond_atom_site_label_2
_geom_bond_site_symmetry_1
_geom_bond_site_symmetry_2
Gd1 N1 1_555 1_555
N1 C3 1_555 1_555
O1 Gd1 1_555 1_555
O2 C1 1_555 1_555
O3 Gd1 1_555 1_555
O4 Gd1 1_555 1_555
C1 O3 1_555 1_555
C2 O1 1_555 1_555
C3 C2 1_555 1_555
C4 N1 1_555 1_555
O5 Gd1 1_555 1_555
O6 Gd1 1_555 1_555
O7 H7 1_555 1_555
H1 O6 1_555 1_555
H2 O5 1_555 1_555
H3 O6 1_555 1_555
H4 O4 1_555 1_555
H5 O5 1_555 1_555
H6 O4 1_555 1_555
H8 O7 1_555 1_555
C5 C4 1_555 1_555
H9 C5 1_555 1_555
O8 C6 1_555 1_555
C6 C5 1_555 1_555
C7 C3 1_555 1_555
H10 C7 1_555 1_555
O9 C2 1_555 1_555
Gd1C O8 1_555 1_555
Gd1A O9 1_555 1_555
O8C Gd1 1_555 1_555
O9A Gd1 1_555 1_555
C1 C4 1_555 1_555
C6 C7 1_555 1_555

#END
