
#######################################################################
#
#                 Cambridge Crystallographic Data Centre
#                                CCDC 
#
#######################################################################
#
# If this CIF has been generated from an entry in the Cambridge 
# Structural Database, then it will include bibliographic, chemical, 
# crystal, experimental, refinement or atomic coordinate data resulting 
# from the CCDC's data processing and validation procedures.
#
#######################################################################

data_GESGER
_symmetry_cell_setting           monoclinic
_symmetry_space_group_name_H-M   'P 21/n'
_symmetry_Int_Tables_number      14
_space_group_name_Hall           '-P 2yn'
loop_
_symmetry_equiv_pos_site_id
_symmetry_equiv_pos_as_xyz
1 x,y,z
2 1/2-x,1/2+y,1/2-z
3 -x,-y,-z
4 1/2+x,1/2-y,1/2+z
_cell_length_a                   8.9725(15)
_cell_length_b                   14.537(2)
_cell_length_c                   21.710(4)
_cell_angle_alpha                90
_cell_angle_beta                 90.903(3)
_cell_angle_gamma                90
_cell_volume                     2831.35
loop_
_atom_site_label
_atom_site_type_symbol
_atom_site_fract_x
_atom_site_fract_y
_atom_site_fract_z
Er1 Er 0.73932(2) 0.262028(14) 0.655580(10)
Er2 Er 1.24078(2) 0.000160(14) 0.734440(10)
O1 O 0.9101(4) 0.1501(2) 0.69296(16)
O2 O 1.0339(4) 0.0808(2) 0.77017(16)
O3 O 0.8298(5) 0.2599(3) 0.95420(16)
H1 H 0.8945 0.2228 0.9643
O4 O 0.4614(4) 0.4041(2) 0.79538(15)
O5 O 0.5691(4) 0.3552(2) 0.70937(16)
O6 O 0.9251(4) 0.3640(2) 0.70034(16)
O7 O 1.0468(4) 0.4984(2) 0.70251(17)
O8 O 0.8773(5) 0.6234(3) 0.48869(18)
H2 H 0.9417 0.6570 0.5038
O9 O 0.5207(5) 0.3558(3) 0.48319(19)
O10 O 0.5558(4) 0.2937(2) 0.57597(16)
O11 O 0.9241(4) 0.2554(2) 0.57775(16)
O12 O 0.9592(5) 0.2284(3) 0.47776(17)
O13 O 0.7249(5) -0.0985(2) 0.47272(18)
H3 H 0.7096 -0.1450 0.4930
O14 O 0.4344(4) 0.0168(2) 0.66288(16)
O15 O 0.5527(4) 0.1499(2) 0.67910(16)
O16 O 1.3127(4) 0.1562(2) 0.74949(19)
H4 H 1.3108 0.1797 0.7853
H5 H 1.3401 0.1885 0.7190
O17 O 1.1392(4) 0.0600(2) 0.64290(16)
H6 H 1.1475 0.1170 0.6350
H7 H 1.0939 0.0247 0.6176
O18 O 1.3338(4) -0.1499(2) 0.72141(18)
H8 H 1.4273 -0.1593 0.7213
H9 H 1.2738 -0.1947 0.7168
O19 O 1.1751(4) -0.0581(2) 0.83164(16)
H10 H 1.1803 -0.0236 0.8632
H11 H 1.1463 -0.1135 0.8351
N1 N 0.7461(4) 0.2447(3) 0.76722(19)
N2 N 0.7654(4) 0.4121(3) 0.60509(19)
N3 N 0.7221(4) 0.1288(3) 0.58550(19)
C1 C 0.9379(5) 0.1349(3) 0.7493(2)
C2 C 0.8499(5) 0.1911(3) 0.7947(2)
C3 C 0.8789(5) 0.1910(3) 0.8565(2)
H12 H 0.9497 0.1514 0.8736
C4 C 0.7998(6) 0.2516(3) 0.8935(2)
C5 C 0.6879(5) 0.3054(3) 0.8664(2)
H13 H 0.6298 0.3442 0.8902
C6 C 0.6656(5) 0.2998(3) 0.8036(2)
C7 C 0.5557(5) 0.3586(3) 0.7674(2)
C8 C 0.9543(5) 0.4439(3) 0.6797(2)
C9 C 0.8730(5) 0.4709(3) 0.6214(2)
C10 C 0.9132(6) 0.5445(3) 0.5859(3)
H14 H 0.9851 0.5858 0.6000
C11 C 0.8451(6) 0.5567(3) 0.5284(2)
C12 C 0.7341(6) 0.4941(3) 0.5103(2)
H15 H 0.6859 0.4998 0.4722
C13 C 0.6979(6) 0.4242(3) 0.5497(2)
C14 C 0.5813(6) 0.3527(4) 0.5351(2)
C15 C 0.9053(6) 0.2094(3) 0.5290(2)
C16 C 0.8078(6) 0.1253(3) 0.5351(2)
C17 C 0.8089(6) 0.0515(3) 0.4953(2)
H16 H 0.8671 0.0518 0.4602
C18 C 0.7188(6) -0.0240(3) 0.5097(2)
C19 C 0.6258(6) -0.0193(3) 0.5600(2)
H17 H 0.5619 -0.0676 0.5691
C20 C 0.6304(5) 0.0589(3) 0.5962(2)
C21 C 0.5314(5) 0.0749(3) 0.6502(2)
Er2A Er 0.25922(2) 0.500160(14) 0.765560(10)
Er2A_2 Er 1.25922(2) 0.500160(14) 0.765560(10)
Er2_2 Er 0.24078(2) 0.000160(14) 0.734440(10)
O4A O 1.0386(4) -0.0959(2) 0.70462(15)
O7A O 1.4532(4) -0.0016(2) 0.79749(17)
O14_2 O 1.4344(4) 0.0168(2) 0.66288(16)
O20 O 0.7373(5) 0.2291(3) 0.1242(2)
H18 H 0.6522 0.2091 0.1130
H19 H 0.8087 0.2196 0.0997
O21 O 0.7443(9) 0.7609(5) 0.1229(3)
H20 H 0.7885 0.7227 0.0993
H21 H 0.7090 0.8092 0.1067
loop_
_geom_bond_atom_site_label_1
_geom_bond_atom_site_label_2
_geom_bond_site_symmetry_1
_geom_bond_site_symmetry_2
Er1 O1 1_555 1_555
Er2 O2 1_555 1_555
O1 C1 1_555 1_555
O2 C1 1_555 1_555
O3 H1 1_555 1_555
O4 C7 1_555 1_555
O5 Er1 1_555 1_555
O6 Er1 1_555 1_555
O7 C8 1_555 1_555
O8 H2 1_555 1_555
O9 C14 1_555 1_555
O10 Er1 1_555 1_555
O11 Er1 1_555 1_555
O12 C15 1_555 1_555
O13 H3 1_555 1_555
O14 C21 1_555 1_555
O15 Er1 1_555 1_555
O16 Er2 1_555 1_555
H4 O16 1_555 1_555
H5 O16 1_555 1_555
O17 Er2 1_555 1_555
H6 O17 1_555 1_555
H7 O17 1_555 1_555
O18 Er2 1_555 1_555
H8 O18 1_555 1_555
H9 O18 1_555 1_555
O19 Er2 1_555 1_555
H10 O19 1_555 1_555
H11 O19 1_555 1_555
N1 Er1 1_555 1_555
N2 Er1 1_555 1_555
N3 Er1 1_555 1_555
C1 C2 1_555 1_555
C2 N1 1_555 1_555
C3 C2 1_555 1_555
H12 C3 1_555 1_555
C4 O3 1_555 1_555
C5 C4 1_555 1_555
H13 C5 1_555 1_555
C6 N1 1_555 1_555
C7 O5 1_555 1_555
C8 O6 1_555 1_555
C9 N2 1_555 1_555
C10 C9 1_555 1_555
H14 C10 1_555 1_555
C11 O8 1_555 1_555
C12 C11 1_555 1_555
H15 C12 1_555 1_555
C13 N2 1_555 1_555
C14 O10 1_555 1_555
C15 O11 1_555 1_555
C16 N3 1_555 1_555
C17 C16 1_555 1_555
H16 C17 1_555 1_555
C18 O13 1_555 1_555
C19 C18 1_555 1_555
H17 C19 1_555 1_555
C20 N3 1_555 1_555
C21 O15 1_555 1_555
O20 H18 1_555 1_555
H19 O20 1_555 1_555
O21 H20 1_555 1_555
H21 O21 1_555 1_555
Er2A O4 1_555 1_555
Er2A_2 O7 1_555 1_555
Er2_2 O14 1_555 1_555
O4A Er2 1_555 1_555
O7A Er2 1_555 1_555
O14_2 Er2 1_555 1_555
C3 C4 1_555 1_555
C5 C6 1_555 1_555
C6 C7 1_555 1_555
C8 C9 1_555 1_555
C10 C11 1_555 1_555
C12 C13 1_555 1_555
C13 C14 1_555 1_555
C15 C16 1_555 1_555
C17 C18 1_555 1_555
C19 C20 1_555 1_555
C20 C21 1_555 1_555

#END
