
#######################################################################
#
#                 Cambridge Crystallographic Data Centre
#                                CCDC 
#
#######################################################################
#
# If this CIF has been generated from an entry in the Cambridge 
# Structural Database, then it will include bibliographic, chemical, 
# crystal, experimental, refinement or atomic coordinate data resulting 
# from the CCDC's data processing and validation procedures.
#
#######################################################################

data_GESJUK
_symmetry_cell_setting           monoclinic
_symmetry_space_group_name_H-M   'P 21/n'
_symmetry_Int_Tables_number      14
_space_group_name_Hall           '-P 2yn'
loop_
_symmetry_equiv_pos_site_id
_symmetry_equiv_pos_as_xyz
1 x,y,z
2 1/2-x,1/2+y,1/2-z
3 -x,-y,-z
4 1/2+x,1/2-y,1/2+z
_cell_length_a                   9.2962(17)
_cell_length_b                   8.9052(17)
_cell_length_c                   21.031(3)
_cell_angle_alpha                90
_cell_angle_beta                 92.144(13)
_cell_angle_gamma                90
_cell_volume                     1739.82
loop_
_atom_site_label
_atom_site_type_symbol
_atom_site_fract_x
_atom_site_fract_y
_atom_site_fract_z
Cu1 Cu 0.50296(2) 0.44067(3) 0.252564(10)
P1 P 0.69440(5) 0.69803(5) 0.21634(2)
P2 P 0.30481(5) 0.18557(5) 0.28229(2)
N1 N 0.67599(18) 0.7526(2) 0.29291(8)
N2 N 0.31073(18) 0.1476(2) 0.20311(8)
O1 O 0.66871(13) 0.53142(14) 0.21502(6)
O2 O 0.57309(15) 0.78142(17) 0.17711(7)
O3 O 0.83783(13) 0.75104(15) 0.19722(6)
O4 O 0.51932(13) 0.57554(15) 0.32645(6)
O5 O 0.33764(13) 0.35031(14) 0.28985(6)
O6 O 0.16228(13) 0.13259(15) 0.30231(6)
O7 O 0.42698(16) 0.08948(17) 0.31452(7)
O8 O 0.48347(13) 0.31452(15) 0.17622(6)
C1 C 0.59685(18) 0.6878(2) 0.33737(8)
C2 C 0.60201(19) 0.7521(2) 0.40271(8)
C3 C 0.6992(2) 0.8636(2) 0.42140(9)
C4 C 0.7016(3) 0.9158(3) 0.48345(10)
C5 C 0.6086(2) 0.8592(3) 0.52687(10)
C6 C 0.5124(2) 0.7479(3) 0.50866(10)
C7 C 0.5094(2) 0.6941(3) 0.44680(9)
C8 C 0.39553(18) 0.2135(2) 0.16124(8)
C9 C 0.38236(18) 0.1660(2) 0.09352(8)
C10 C 0.3294(2) 0.0254(2) 0.07541(9)
C11 C 0.3126(2) -0.0086(3) 0.01095(9)
C12 C 0.3472(2) 0.0956(3) -0.03451(9)
C13 C 0.4031(2) 0.2334(3) -0.01642(9)
C14 C 0.4216(2) 0.2688(2) 0.04735(9)
H1 H 0.265(3) 0.079(3) 0.1903(11)
H2 H 0.503(3) 0.124(3) 0.3109(13)
H3 H 0.708(3) 0.826(3) 0.3031(12)
H4 H 0.501(4) 0.744(4) 0.1850(17)
H5 H 0.338(2) 0.076(2) -0.0766(11)
H6 H 0.308(2) -0.046(2) 0.1074(10)
H7 H 0.269(2) -0.105(3) -0.0010(10)
H8 H 0.609(2) 0.901(3) 0.5668(12)
H9 H 0.431(2) 0.308(3) -0.0486(11)
H10 H 0.449(3) 0.615(3) 0.4345(12)
H11 H 0.765(3) 0.905(3) 0.3916(11)
H12 H 0.449(3) 0.703(3) 0.5363(11)
H13 H 0.781(3) 0.994(3) 0.4957(13)
H14 H 0.453(2) 0.359(3) 0.0616(10)
Cu1A Cu 0.99704(2) 0.94067(3) 0.247436(10)
Cu1A_2 Cu -0.00296(2) -0.05933(3) 0.247436(10)
O3A O 0.66217(13) 0.25104(15) 0.30278(6)
O6A O 0.33772(13) 0.63259(15) 0.19769(6)
loop_
_geom_bond_atom_site_label_1
_geom_bond_atom_site_label_2
_geom_bond_site_symmetry_1
_geom_bond_site_symmetry_2
Cu1 O1 1_555 1_555
P1 N1 1_555 1_555
P2 N2 1_555 1_555
N1 C1 1_555 1_555
N2 C8 1_555 1_555
O1 P1 1_555 1_555
O2 P1 1_555 1_555
O3 P1 1_555 1_555
O4 Cu1 1_555 1_555
O5 Cu1 1_555 1_555
O6 P2 1_555 1_555
O7 P2 1_555 1_555
O8 Cu1 1_555 1_555
C1 O4 1_555 1_555
C2 C1 1_555 1_555
C3 C2 1_555 1_555
C4 C3 1_555 1_555
C5 C4 1_555 1_555
C6 C5 1_555 1_555
C7 C2 1_555 1_555
C8 O8 1_555 1_555
C9 C8 1_555 1_555
C10 C9 1_555 1_555
C11 C10 1_555 1_555
C12 C11 1_555 1_555
C13 C12 1_555 1_555
C14 C9 1_555 1_555
H1 N2 1_555 1_555
H2 O7 1_555 1_555
H3 N1 1_555 1_555
H4 O2 1_555 1_555
H5 C12 1_555 1_555
H6 C10 1_555 1_555
H7 C11 1_555 1_555
H8 C5 1_555 1_555
H9 C13 1_555 1_555
H10 C7 1_555 1_555
H11 C3 1_555 1_555
H12 C6 1_555 1_555
H13 C4 1_555 1_555
H14 C14 1_555 1_555
Cu1A O3 1_555 1_555
Cu1A_2 O6 1_555 1_555
O3A Cu1 1_555 1_555
O6A Cu1 1_555 1_555
P2 O5 1_555 1_555
C6 C7 1_555 1_555
C13 C14 1_555 1_555

#END
