
#######################################################################
#
#                 Cambridge Crystallographic Data Centre
#                                CCDC 
#
#######################################################################
#
# If this CIF has been generated from an entry in the Cambridge 
# Structural Database, then it will include bibliographic, chemical, 
# crystal, experimental, refinement or atomic coordinate data resulting 
# from the CCDC's data processing and validation procedures.
#
#######################################################################

data_GESMOG
_symmetry_cell_setting           orthorhombic
_symmetry_space_group_name_H-M   'P 21 21 21'
_symmetry_Int_Tables_number      19
_space_group_name_Hall           'P 2ac 2ab'
loop_
_symmetry_equiv_pos_site_id
_symmetry_equiv_pos_as_xyz
1 x,y,z
2 1/2+x,1/2-y,-z
3 -x,1/2+y,1/2-z
4 1/2-x,-y,1/2+z
_cell_length_a                   9.555(1)
_cell_length_b                   7.906(1)
_cell_length_c                   11.614(1)
_cell_angle_alpha                90
_cell_angle_beta                 90
_cell_angle_gamma                90
_cell_volume                     877.343
loop_
_atom_site_label
_atom_site_type_symbol
_atom_site_fract_x
_atom_site_fract_y
_atom_site_fract_z
Mn1 Mn 0.0450(1) 0.1381(1) 0.0918(1)
O1 O 0.3530(2) 0.2071(2) 0.3428(1)
O2 O 0.1556(2) 0.2466(2) 0.2446(1)
O3 O 0.2452(1) 0.1713(2) 0.0029(1)
O4 O 0.4652(1) 0.1189(2) -0.0470(1)
N1 N 0.1414(2) -0.0788(2) 0.1791(1)
C1 C 0.2604(2) 0.1601(2) 0.2732(1)
C2 C 0.2782(2) -0.0170(3) 0.2206(1)
C3 C 0.3863(2) -0.0143(3) 0.1232(2)
C4 C 0.3604(2) 0.1007(2) 0.0199(2)
O5 O -0.0352(2) 0.0194(2) -0.0633(1)
O6 O -0.1579(2) 0.0810(2) 0.1777(1)
H1 H 0.3190(20) -0.0903(26) 0.2859(16)
H2 H 0.0913(20) -0.1090(29) 0.2364(16)
H3 H 0.1565(25) -0.1760(29) 0.1398(19)
H4 H 0.4801(22) 0.0184(27) 0.1623(17)
H5 H 0.3989(22) -0.1265(30) 0.0916(18)
H6 H 0.0212(29) -0.0652(35) -0.0994(23)
H7 H -0.1144(29) -0.0025(36) -0.0606(22)
H8 H -0.1605(42) -0.0616(52) 0.2004(30)
H9 H -0.2195(31) 0.0861(43) 0.1391(25)
O4A O -0.0348(1) 0.3811(2) 0.0470(1)
Mn1A Mn 0.5450(1) 0.3619(1) -0.0918(1)
O7 O 0.1967(2) 0.6028(2) 0.0348(1)
H10 H 0.1403(27) 0.5332(33) 0.0441(21)
H11 H 0.1850(30) 0.6610(36) -0.0328(22)
loop_
_geom_bond_atom_site_label_1
_geom_bond_atom_site_label_2
_geom_bond_site_symmetry_1
_geom_bond_site_symmetry_2
Mn1 O2 1_555 1_555
O1 C1 1_555 1_555
O2 C1 1_555 1_555
O3 Mn1 1_555 1_555
O4 C4 1_555 1_555
N1 Mn1 1_555 1_555
C1 C2 1_555 1_555
C2 N1 1_555 1_555
C3 C2 1_555 1_555
C4 O3 1_555 1_555
O5 Mn1 1_555 1_555
O6 Mn1 1_555 1_555
H1 C2 1_555 1_555
H2 N1 1_555 1_555
H3 N1 1_555 1_555
H4 C3 1_555 1_555
H5 C3 1_555 1_555
H6 O5 1_555 1_555
H7 O5 1_555 1_555
H8 O6 1_555 1_555
H9 O6 1_555 1_555
O7 H10 1_555 1_555
H11 O7 1_555 1_555
O4A Mn1 1_555 1_555
Mn1A O4 1_555 1_555
C3 C4 1_555 1_555

#END
