
#######################################################################
#
#                 Cambridge Crystallographic Data Centre
#                                CCDC 
#
#######################################################################
#
# If this CIF has been generated from an entry in the Cambridge 
# Structural Database, then it will include bibliographic, chemical, 
# crystal, experimental, refinement or atomic coordinate data resulting 
# from the CCDC's data processing and validation procedures.
#
#######################################################################

data_GESVAC
_symmetry_cell_setting           triclinic
_symmetry_space_group_name_H-M   'P -1'
_symmetry_Int_Tables_number      2
_space_group_name_Hall           '-P 1'
loop_
_symmetry_equiv_pos_site_id
_symmetry_equiv_pos_as_xyz
1 x,y,z
2 -x,-y,-z
_cell_length_a                   18.026(6)
_cell_length_b                   29.133(5)
_cell_length_c                   30.927(8)
_cell_angle_alpha                63.44(2)
_cell_angle_beta                 78.13(3)
_cell_angle_gamma                72.37(3)
_cell_volume                     13797.9
loop_
_atom_site_label
_atom_site_type_symbol
_atom_site_fract_x
_atom_site_fract_y
_atom_site_fract_z
Cu1 Cu 0.48353(7) 0.51087(4) 1.17048(4)
O1 O 0.3758(4) 0.5150(3) 1.1414(3)
C1 C 0.3746(5) 0.5272(4) 1.0986(4)
C2 C 0.4223(7) 0.5546(5) 1.0598(4)
C3 C 0.4770(6) 0.5744(4) 1.0658(4)
O2 O 0.4935(4) 0.5735(3) 1.1031(3)
C4 C 0.3156(6) 0.5123(4) 1.0828(4)
C5 C 0.5231(6) 0.6021(4) 1.0181(4)
O3 O 0.4766(4) 0.4469(3) 1.2351(3)
C6 C 0.5139(8) 0.4314(5) 1.2696(5)
C7 C 0.5701(9) 0.4497(6) 1.2745(5)
C8 C 0.6021(7) 0.4889(4) 1.2371(5)
O4 O 0.5892(5) 0.5118(3) 1.1947(3)
C9 C 0.4932(8) 0.3870(6) 1.3133(5)
C10 C 0.6652(7) 0.5040(5) 1.2511(4)
Cu2 Cu -0.25730(7) 0.74903(5) 1.58835(5)
O5 O -0.3276(4) 0.7366(3) 1.5525(3)
C11 C -0.3383(6) 0.6927(4) 1.5599(4)
C12 C -0.3010(7) 0.6438(4) 1.5900(4)
C13 C -0.2406(6) 0.6299(4) 1.6201(4)
O6 O -0.2151(4) 0.6615(3) 1.6259(3)
C14 C -0.4026(6) 0.7003(3) 1.5317(3)
C15 C -0.2047(7) 0.5730(4) 1.6508(5)
O7 O -0.1866(4) 0.7617(3) 1.6240(2)
C16 C -0.1681(6) 0.8046(5) 1.6083(4)
C17 C -0.1990(7) 0.8547(4) 1.5729(4)
C18 C -0.2617(7) 0.8649(4) 1.5492(4)
O8 O -0.2987(4) 0.8357(3) 1.5512(3)
C19 C -0.0992(6) 0.7975(4) 1.6336(3)
C20 C -0.2895(7) 0.9204(5) 1.5161(5)
Cu3 Cu 0.50520(7) 1.00878(5) 1.33499(4)
O9 O 0.4798(4) 0.9727(3) 1.4143(3)
C21 C 0.5085(7) 0.9242(5) 1.4394(4)
C22 C 0.5697(6) 0.8884(4) 1.4263(4)
C23 C 0.6107(6) 0.9020(4) 1.3817(4)
O10 O 0.6014(4) 0.9460(3) 1.3451(3)
C24 C 0.4692(6) 0.9050(5) 1.4894(4)
C25 C 0.6759(5) 0.8599(4) 1.3726(3)
O11 O 0.4088(5) 1.0693(3) 1.3245(3)
C26 C 0.3902(7) 1.1066(4) 1.2853(4)
C27 C 0.4301(8) 1.1189(5) 1.2402(4)
C28 C 0.4964(7) 1.0882(5) 1.2279(4)
O12 O 0.5320(5) 1.0448(3) 1.2552(3)
C29 C 0.3183(7) 1.1452(5) 1.2920(4)
C30 C 0.5320(7) 1.1079(5) 1.1770(4)
C31 C 0.2463(2) 0.71948(14) 1.31990(14)
C32 C 0.1756(2) 0.71711(14) 1.34868(14)
C33 C 0.1481(2) 0.75342(14) 1.37049(14)
C34 C 0.1897(2) 0.78918(14) 1.36323(14)
C35 C 0.2592(2) 0.79091(14) 1.33469(14)
C36 C 0.2873(2) 0.75528(14) 1.31297(14)
N1 N 0.4210(2) 0.55953(13) 1.20118(14)
C37 C 0.3551(2) 0.54974(13) 1.23104(14)
C38 C 0.3151(2) 0.58043(13) 1.25581(14)
C39 C 0.3431(2) 0.62158(13) 1.25151(14)
C40 C 0.4100(2) 0.63141(13) 1.22080(14)
C41 C 0.4475(2) 0.59980(13) 1.19622(14)
C42 C 0.3050(6) 0.6544(4) 1.2769(4)
C43 C 0.2762(5) 0.6826(3) 1.2969(3)
N2 N -0.1709(2) 0.75036(14) 1.53490(15)
C44 C -0.1830(2) 0.77645(14) 1.48809(15)
C45 C -0.1230(2) 0.77770(14) 1.45221(15)
C46 C -0.0477(2) 0.75196(14) 1.46355(15)
C47 C -0.0337(2) 0.72639(14) 1.51292(15)
C48 C -0.0956(2) 0.72565(14) 1.54743(15)
C49 C 0.0186(6) 0.7534(4) 1.4276(4)
C50 C 0.0761(6) 0.7522(4) 1.4012(4)
N3 N 0.4429(2) 0.96716(15) 1.32698(15)
C51 C 0.3782(2) 0.95591(15) 1.35611(15)
C52 C 0.3384(2) 0.92285(15) 1.35541(15)
C53 C 0.3658(2) 0.89993(15) 1.32277(15)
C54 C 0.4312(2) 0.91275(15) 1.29097(15)
C55 C 0.4673(2) 0.94592(15) 1.29467(15)
C56 C 0.3288(6) 0.8628(4) 1.3233(4)
C57 C 0.2998(6) 0.8288(4) 1.3275(4)
C58 C 0.7535(3) 1.23255(15) 1.32315(14)
C59 C 0.8226(3) 1.23508(15) 1.29377(14)
C60 C 0.8641(3) 1.27187(15) 1.28689(14)
C61 C 0.8350(3) 1.30519(15) 1.31051(14)
C62 C 0.7645(3) 1.30382(15) 1.33899(14)
C63 C 0.7239(3) 1.26696(15) 1.34632(14)
N4 N 0.5695(3) 1.05127(17) 1.34111(17)
C64 C 0.5449(3) 1.07450(17) 1.37244(17)
C65 C 0.5838(3) 1.10850(17) 1.37254(17)
C66 C 0.6468(3) 1.11989(17) 1.34049(17)
C67 C 0.6710(3) 1.09522(17) 1.31002(17)
C68 C 0.6328(3) 1.06113(17) 1.30978(17)
C69 C 0.6834(7) 1.1601(5) 1.3369(4)
C70 C 0.7131(7) 1.1926(4) 1.3308(4)
N5 N 1.1788(2) 1.25635(15) 1.12340(16)
C71 C 1.1934(2) 1.23753(15) 1.17004(16)
C72 C 1.1339(2) 1.24065(15) 1.20557(16)
C73 C 1.0574(2) 1.26343(15) 1.19441(16)
C74 C 1.0429(2) 1.28233(15) 1.14603(16)
C75 C 1.1043(2) 1.27813(15) 1.11182(16)
C76 C 0.9937(7) 1.2676(4) 1.2297(4)
C77 C 0.9370(7) 1.2710(4) 1.2561(4)
N6 N 0.5664(2) 1.45662(15) 1.46384(14)
C78 C 0.6328(2) 1.46922(15) 1.43509(14)
C79 C 0.6776(2) 1.44132(15) 1.40872(14)
C80 C 0.6563(2) 1.39773(15) 1.41083(14)
C81 C 0.5886(2) 1.38521(15) 1.44023(14)
C82 C 0.5481(2) 1.41419(15) 1.46586(14)
C83 C 0.6987(6) 1.3667(4) 1.3848(4)
C84 C 0.7312(6) 1.3383(4) 1.3639(4)
N7 N 0.5472(2) 0.46021(12) 1.14112(12)
N8 N -0.3439(3) 0.74763(19) 1.6390(2)
Cu4 Cu 1.26389(7) 1.25108(4) 1.07127(4)
Cu5 Cu 0.5000 1.5000 1.5000
O13 O 0.5019(4) 1.5683(3) 1.4396(2)
C85 C 0.4720(6) 1.5831(4) 1.4019(4)
C86 C 0.4191(7) 1.5637(5) 1.3927(4)
C87 C 0.3860(6) 1.5216(4) 1.4286(5)
O14 O 0.3939(4) 1.4990(3) 1.4717(3)
C88 C 0.4971(6) 1.6291(4) 1.3598(3)
C89 C 0.3324(6) 1.5041(4) 1.4104(4)
Cu1A Cu 0.51647(7) 2.48913(4) 1.82952(4)
O1A O 0.6242(4) 2.4850(3) 1.8586(3)
C1A C 0.6254(5) 2.4728(4) 1.9014(4)
C2A C 0.5777(7) 2.4454(5) 1.9402(4)
C3A C 0.5230(6) 2.4256(4) 1.9342(4)
O2A O 0.5065(4) 2.4265(3) 1.8969(3)
C4A C 0.6844(6) 2.4877(4) 1.9172(4)
C5A C 0.4769(6) 2.3979(4) 1.9819(4)
O3A O 0.5234(4) 2.5531(3) 1.7649(3)
C6A C 0.4861(8) 2.5686(5) 1.7304(5)
C7A C 0.4299(9) 2.5503(6) 1.7255(5)
C8A C 0.3979(7) 2.5111(4) 1.7629(5)
O4A O 0.4108(5) 2.4882(3) 1.8053(3)
C9A C 0.5068(8) 2.6130(6) 1.6867(5)
C10A C 0.3348(7) 2.4960(5) 1.7489(4)
Cu2A Cu 1.25730(7) 2.25097(5) 1.41165(5)
O5A O 1.3276(4) 2.2634(3) 1.4475(3)
C11A C 1.3383(6) 2.3073(4) 1.4401(4)
C12A C 1.3010(7) 2.3562(4) 1.4100(4)
C13A C 1.2406(6) 2.3701(4) 1.3799(4)
O6A O 1.2151(4) 2.3385(3) 1.3741(3)
C14A C 1.4026(6) 2.2997(3) 1.4683(3)
C15A C 1.2047(7) 2.4270(4) 1.3492(5)
O7A O 1.1866(4) 2.2383(3) 1.3760(2)
C16A C 1.1681(6) 2.1954(5) 1.3917(4)
C17A C 1.1990(7) 2.1453(4) 1.4271(4)
C18A C 1.2617(7) 2.1351(4) 1.4508(4)
O8A O 1.2987(4) 2.1643(3) 1.4488(3)
C19A C 1.0992(6) 2.2025(4) 1.3664(3)
C20A C 1.2895(7) 2.0796(5) 1.4839(5)
Cu3A Cu 0.49480(7) 1.99122(5) 1.66501(4)
O9A O 0.5202(4) 2.0273(3) 1.5857(3)
C21A C 0.4915(7) 2.0758(5) 1.5606(4)
C22A C 0.4303(6) 2.1116(4) 1.5737(4)
C23A C 0.3893(6) 2.0980(4) 1.6183(4)
O10A O 0.3986(4) 2.0540(3) 1.6549(3)
C24A C 0.5308(6) 2.0950(5) 1.5106(4)
C25A C 0.3241(5) 2.1401(4) 1.6274(3)
O11A O 0.5912(5) 1.9307(3) 1.6755(3)
C26A C 0.6098(7) 1.8934(4) 1.7147(4)
C27A C 0.5699(8) 1.8811(5) 1.7598(4)
C28A C 0.5036(7) 1.9118(5) 1.7721(4)
O12A O 0.4680(5) 1.9552(3) 1.7448(3)
C29A C 0.6817(7) 1.8548(5) 1.7080(4)
C30A C 0.4680(7) 1.8921(5) 1.8230(4)
C31A C 0.7537(2) 2.28052(14) 1.68010(14)
C32A C 0.8244(2) 2.28289(14) 1.65132(14)
C33A C 0.8519(2) 2.24658(14) 1.62951(14)
C34A C 0.8103(2) 2.21082(14) 1.63677(14)
C35A C 0.7408(2) 2.20909(14) 1.66531(14)
C36A C 0.7127(2) 2.24472(14) 1.68703(14)
N1A N 0.5790(2) 2.44047(13) 1.79882(14)
C37A C 0.6449(2) 2.45026(13) 1.76896(14)
C38A C 0.6849(2) 2.41957(13) 1.74419(14)
C39A C 0.6569(2) 2.37842(13) 1.74849(14)
C40A C 0.5900(2) 2.36859(13) 1.77920(14)
C41A C 0.5525(2) 2.40020(13) 1.80378(14)
C42A C 0.6950(6) 2.3456(4) 1.7231(4)
C43A C 0.7238(5) 2.3174(3) 1.7031(3)
N2A N 1.1709(2) 2.24964(14) 1.46510(15)
C44A C 1.1830(2) 2.22355(14) 1.51191(15)
C45A C 1.1230(2) 2.22230(14) 1.54779(15)
C46A C 1.0477(2) 2.24804(14) 1.53645(15)
C47A C 1.0337(2) 2.27361(14) 1.48708(15)
C48A C 1.0956(2) 2.27435(14) 1.45257(15)
C49A C 0.9814(6) 2.2466(4) 1.5724(4)
C50A C 0.9239(6) 2.2478(4) 1.5988(4)
N3A N 0.5571(2) 2.03284(15) 1.67302(15)
C51A C 0.6218(2) 2.04409(15) 1.64389(15)
C52A C 0.6616(2) 2.07715(15) 1.64459(15)
C53A C 0.6342(2) 2.10007(15) 1.67723(15)
C54A C 0.5688(2) 2.08725(15) 1.70903(15)
C55A C 0.5327(2) 2.05408(15) 1.70533(15)
C56A C 0.6712(6) 2.1372(4) 1.6767(4)
C57A C 0.7002(6) 2.1712(4) 1.6725(4)
C58A C 0.2465(3) 1.76745(15) 1.67685(14)
C59A C 0.1774(3) 1.76492(15) 1.70623(14)
C60A C 0.1359(3) 1.72813(15) 1.71311(14)
C61A C 0.1650(3) 1.69481(15) 1.68949(14)
C62A C 0.2355(3) 1.69618(15) 1.66101(14)
C63A C 0.2761(3) 1.73304(15) 1.65368(14)
N4A N 0.4305(3) 1.94873(17) 1.65889(17)
C64A C 0.4551(3) 1.92550(17) 1.62756(17)
C65A C 0.4162(3) 1.89150(17) 1.62746(17)
C66A C 0.3532(3) 1.88011(17) 1.65951(17)
C67A C 0.3290(3) 1.90478(17) 1.68998(17)
C68A C 0.3672(3) 1.93887(17) 1.69022(17)
C69A C 0.3166(7) 1.8399(5) 1.6631(4)
C70A C 0.2869(7) 1.8074(4) 1.6692(4)
N5A N -0.1788(2) 1.74365(15) 1.87660(16)
C71A C -0.1934(2) 1.76247(15) 1.82996(16)
C72A C -0.1339(2) 1.75935(15) 1.79443(16)
C73A C -0.0574(2) 1.73657(15) 1.80559(16)
C74A C -0.0429(2) 1.71767(15) 1.85397(16)
C75A C -0.1043(2) 1.72187(15) 1.88818(16)
C76A C 0.0063(7) 1.7324(4) 1.7703(4)
C77A C 0.0630(7) 1.7290(4) 1.7439(4)
N6A N 0.4336(2) 1.54338(15) 1.53616(14)
C78A C 0.3672(2) 1.53078(15) 1.56491(14)
C79A C 0.3224(2) 1.55868(15) 1.59128(14)
C80A C 0.3437(2) 1.60227(15) 1.58917(14)
C81A C 0.4114(2) 1.61479(15) 1.55977(14)
C82A C 0.4519(2) 1.58581(15) 1.53414(14)
C83A C 0.3013(6) 1.6333(4) 1.6152(4)
C84A C 0.2688(6) 1.6617(4) 1.6361(4)
N7A N 0.4528(2) 2.53979(12) 1.85888(12)
N8A N 1.3439(3) 2.25237(19) 1.3610(2)
Cu4A Cu -0.26389(7) 1.74892(4) 1.92873(4)
O13A O 0.4981(4) 1.4317(3) 1.5604(2)
C85A C 0.5280(6) 1.4169(4) 1.5981(4)
C86A C 0.5809(7) 1.4363(5) 1.6073(4)
C87A C 0.6140(6) 1.4784(4) 1.5714(5)
O14A O 0.6061(4) 1.5010(3) 1.5283(3)
C88A C 0.5029(6) 1.3709(4) 1.6402(3)
C89A C 0.6676(6) 1.4959(4) 1.5896(4)
loop_
_geom_bond_atom_site_label_1
_geom_bond_atom_site_label_2
_geom_bond_site_symmetry_1
_geom_bond_site_symmetry_2
Cu1 O1 1_555 1_555
O1 C1 1_555 1_555
C1 C2 1_555 1_555
C2 C3 1_555 1_555
C3 O2 1_555 1_555
O2 Cu1 1_555 1_555
C4 C1 1_555 1_555
C5 C3 1_555 1_555
O3 Cu1 1_555 1_555
C6 O3 1_555 1_555
C7 C6 1_555 1_555
C8 C7 1_555 1_555
O4 Cu1 1_555 1_555
C9 C6 1_555 1_555
C10 C8 1_555 1_555
Cu2 O5 1_555 1_555
O5 C11 1_555 1_555
C11 C12 1_555 1_555
C12 C13 1_555 1_555
C13 O6 1_555 1_555
O6 Cu2 1_555 1_555
C14 C11 1_555 1_555
C15 C13 1_555 1_555
O7 Cu2 1_555 1_555
C16 O7 1_555 1_555
C17 C16 1_555 1_555
C18 C17 1_555 1_555
O8 Cu2 1_555 1_555
C19 C16 1_555 1_555
C20 C18 1_555 1_555
Cu3 O9 1_555 1_555
O9 C21 1_555 1_555
C21 C22 1_555 1_555
C22 C23 1_555 1_555
C23 O10 1_555 1_555
O10 Cu3 1_555 1_555
C24 C21 1_555 1_555
C25 C23 1_555 1_555
O11 Cu3 1_555 1_555
C26 O11 1_555 1_555
C27 C26 1_555 1_555
C28 C27 1_555 1_555
O12 Cu3 1_555 1_555
C29 C26 1_555 1_555
C30 C28 1_555 1_555
C31 C32 1_555 1_555
C32 C33 1_555 1_555
C33 C34 1_555 1_555
C34 C35 1_555 1_555
C35 C36 1_555 1_555
C36 C31 1_555 1_555
N1 Cu1 1_555 1_555
C37 N1 1_555 1_555
C38 C37 1_555 1_555
C39 C38 1_555 1_555
C40 C39 1_555 1_555
C41 N1 1_555 1_555
C42 C39 1_555 1_555
C43 C31 1_555 1_555
N2 Cu2 1_555 1_555
C44 N2 1_555 1_555
C45 C44 1_555 1_555
C46 C45 1_555 1_555
C47 C46 1_555 1_555
C48 N2 1_555 1_555
C49 C46 1_555 1_555
C50 C33 1_555 1_555
N3 Cu3 1_555 1_555
C51 N3 1_555 1_555
C52 C51 1_555 1_555
C53 C52 1_555 1_555
C54 C53 1_555 1_555
C55 N3 1_555 1_555
C56 C53 1_555 1_555
C57 C35 1_555 1_555
C58 C59 1_555 1_555
C59 C60 1_555 1_555
C60 C61 1_555 1_555
C61 C62 1_555 1_555
C62 C63 1_555 1_555
C63 C58 1_555 1_555
N4 Cu3 1_555 1_555
C64 N4 1_555 1_555
C65 C64 1_555 1_555
C66 C65 1_555 1_555
C67 C66 1_555 1_555
C68 N4 1_555 1_555
C69 C66 1_555 1_555
C70 C58 1_555 1_555
N5 C71 1_555 1_555
C71 C72 1_555 1_555
C72 C73 1_555 1_555
C73 C74 1_555 1_555
C74 C75 1_555 1_555
C75 N5 1_555 1_555
C76 C73 1_555 1_555
C77 C60 1_555 1_555
N6 C78 1_555 1_555
C78 C79 1_555 1_555
C79 C80 1_555 1_555
C80 C81 1_555 1_555
C81 C82 1_555 1_555
C82 N6 1_555 1_555
C83 C80 1_555 1_555
C84 C62 1_555 1_555
N7 Cu1 1_555 1_555
N8 Cu2 1_555 1_555
Cu4 N5 1_555 1_555
Cu5 N6 1_555 1_555
O13 Cu5 1_555 1_555
C85 O13 1_555 1_555
C86 C85 1_555 1_555
C87 C86 1_555 1_555
O14 Cu5 1_555 1_555
C88 C85 1_555 1_555
C89 C87 1_555 1_555
Cu1A O1A 1_555 1_555
O1A C1A 1_555 1_555
C1A C2A 1_555 1_555
C2A C3A 1_555 1_555
C3A O2A 1_555 1_555
O2A Cu1A 1_555 1_555
C4A C1A 1_555 1_555
C5A C3A 1_555 1_555
O3A Cu1A 1_555 1_555
C6A O3A 1_555 1_555
C7A C6A 1_555 1_555
C8A C7A 1_555 1_555
O4A Cu1A 1_555 1_555
C9A C6A 1_555 1_555
C10A C8A 1_555 1_555
Cu2A O5A 1_555 1_555
O5A C11A 1_555 1_555
C11A C12A 1_555 1_555
C12A C13A 1_555 1_555
C13A O6A 1_555 1_555
O6A Cu2A 1_555 1_555
C14A C11A 1_555 1_555
C15A C13A 1_555 1_555
O7A Cu2A 1_555 1_555
C16A O7A 1_555 1_555
C17A C16A 1_555 1_555
C18A C17A 1_555 1_555
O8A Cu2A 1_555 1_555
C19A C16A 1_555 1_555
C20A C18A 1_555 1_555
Cu3A O9A 1_555 1_555
O9A C21A 1_555 1_555
C21A C22A 1_555 1_555
C22A C23A 1_555 1_555
C23A O10A 1_555 1_555
O10A Cu3A 1_555 1_555
C24A C21A 1_555 1_555
C25A C23A 1_555 1_555
O11A Cu3A 1_555 1_555
C26A O11A 1_555 1_555
C27A C26A 1_555 1_555
C28A C27A 1_555 1_555
O12A Cu3A 1_555 1_555
C29A C26A 1_555 1_555
C30A C28A 1_555 1_555
C31A C32A 1_555 1_555
C32A C33A 1_555 1_555
C33A C34A 1_555 1_555
C34A C35A 1_555 1_555
C35A C36A 1_555 1_555
C36A C31A 1_555 1_555
N1A Cu1A 1_555 1_555
C37A N1A 1_555 1_555
C38A C37A 1_555 1_555
C39A C38A 1_555 1_555
C40A C39A 1_555 1_555
C41A N1A 1_555 1_555
C42A C39A 1_555 1_555
C43A C31A 1_555 1_555
N2A Cu2A 1_555 1_555
C44A N2A 1_555 1_555
C45A C44A 1_555 1_555
C46A C45A 1_555 1_555
C47A C46A 1_555 1_555
C48A N2A 1_555 1_555
C49A C46A 1_555 1_555
C50A C33A 1_555 1_555
N3A Cu3A 1_555 1_555
C51A N3A 1_555 1_555
C52A C51A 1_555 1_555
C53A C52A 1_555 1_555
C54A C53A 1_555 1_555
C55A N3A 1_555 1_555
C56A C53A 1_555 1_555
C57A C35A 1_555 1_555
C58A C59A 1_555 1_555
C59A C60A 1_555 1_555
C60A C61A 1_555 1_555
C61A C62A 1_555 1_555
C62A C63A 1_555 1_555
C63A C58A 1_555 1_555
N4A Cu3A 1_555 1_555
C64A N4A 1_555 1_555
C65A C64A 1_555 1_555
C66A C65A 1_555 1_555
C67A C66A 1_555 1_555
C68A N4A 1_555 1_555
C69A C66A 1_555 1_555
C70A C58A 1_555 1_555
N5A C71A 1_555 1_555
C71A C72A 1_555 1_555
C72A C73A 1_555 1_555
C73A C74A 1_555 1_555
C74A C75A 1_555 1_555
C75A N5A 1_555 1_555
C76A C73A 1_555 1_555
C77A C60A 1_555 1_555
N6A Cu5 1_555 1_555
C78A N6A 1_555 1_555
C79A C78A 1_555 1_555
C80A C79A 1_555 1_555
C81A C80A 1_555 1_555
C82A N6A 1_555 1_555
C83A C80A 1_555 1_555
C84A C62A 1_555 1_555
N7A Cu1A 1_555 1_555
N8A Cu2A 1_555 1_555
Cu4A N5A 1_555 1_555
O13A Cu5 1_555 1_555
C85A O13A 1_555 1_555
C86A C85A 1_555 1_555
C87A C86A 1_555 1_555
O14A Cu5 1_555 1_555
C88A C85A 1_555 1_555
C89A C87A 1_555 1_555
C8 O4 1_555 1_555
C18 O8 1_555 1_555
C28 O12 1_555 1_555
C40 C41 1_555 1_555
C42 C43 1_555 1_555
C47 C48 1_555 1_555
C49 C50 1_555 1_555
C54 C55 1_555 1_555
C56 C57 1_555 1_555
C67 C68 1_555 1_555
C69 C70 1_555 1_555
C76 C77 1_555 1_555
C83 C84 1_555 1_555
C87 O14 1_555 1_555
C8A O4A 1_555 1_555
C18A O8A 1_555 1_555
C28A O12A 1_555 1_555
C40A C41A 1_555 1_555
C42A C43A 1_555 1_555
C47A C48A 1_555 1_555
C49A C50A 1_555 1_555
C54A C55A 1_555 1_555
C56A C57A 1_555 1_555
C67A C68A 1_555 1_555
C69A C70A 1_555 1_555
C76A C77A 1_555 1_555
C81A C82A 1_555 1_555
C83A C84A 1_555 1_555
C87A O14A 1_555 1_555

#END
