
#######################################################################
#
#                 Cambridge Crystallographic Data Centre
#                                CCDC 
#
#######################################################################
#
# If this CIF has been generated from an entry in the Cambridge 
# Structural Database, then it will include bibliographic, chemical, 
# crystal, experimental, refinement or atomic coordinate data resulting 
# from the CCDC's data processing and validation procedures.
#
#######################################################################

data_GESVAD
_symmetry_cell_setting           monoclinic
_symmetry_space_group_name_H-M   'P 21/n'
_symmetry_Int_Tables_number      14
_space_group_name_Hall           '-P 2yn'
loop_
_symmetry_equiv_pos_site_id
_symmetry_equiv_pos_as_xyz
1 x,y,z
2 1/2-x,1/2+y,1/2-z
3 -x,-y,-z
4 1/2+x,1/2-y,1/2+z
_cell_length_a                   8.6200(11)
_cell_length_b                   11.0504(12)
_cell_length_c                   10.5916(14)
_cell_angle_alpha                90
_cell_angle_beta                 93.5320(10)
_cell_angle_gamma                90
_cell_volume                     1006.98
loop_
_atom_site_label
_atom_site_type_symbol
_atom_site_fract_x
_atom_site_fract_y
_atom_site_fract_z
Sn1 Sn 0.19995(9) 0.21816(7) 0.33431(7)
S1 S -0.0693(4) 0.1240(3) 0.3694(4)
N1 N 0.0725(11) -0.0561(8) 0.2547(9)
N2 N 0.0497(11) -0.1692(9) 0.2017(10)
S2 S -0.2106(4) -0.1056(4) 0.2626(4)
C1 C -0.0536(13) -0.0119(10) 0.2933(11)
C2 C -0.0896(15) -0.2038(12) 0.2013(13)
H1 H -0.1223 -0.2786 0.1693
C3 C 0.1473(19) 0.3739(13) 0.4476(15)
H2 H 0.1546 0.4460 0.3978
H3 H 0.2201 0.3783 0.5198
H4 H 0.0439 0.3665 0.4755
C4 C 0.3455(14) 0.0831(10) 0.4178(12)
H5 H 0.2830 0.0215 0.4536
H6 H 0.4130 0.1185 0.4833
H7 H 0.4067 0.0479 0.3547
C5 C 0.1735(18) 0.2235(12) 0.1385(12)
H8 H 0.2740 0.2271 0.1042
H9 H 0.1145 0.2939 0.1125
H10 H 0.1199 0.1522 0.1080
Sn1A Sn 0.30005(9) -0.28184(7) 0.16569(7)
N2A N 0.4503(11) 0.3308(9) 0.2983(10)
loop_
_geom_bond_atom_site_label_1
_geom_bond_atom_site_label_2
_geom_bond_site_symmetry_1
_geom_bond_site_symmetry_2
Sn1 S1 1_555 1_555
S1 C1 1_555 1_555
N1 N2 1_555 1_555
N2 C2 1_555 1_555
S2 C1 1_555 1_555
C1 N1 1_555 1_555
C2 S2 1_555 1_555
H1 C2 1_555 1_555
C3 Sn1 1_555 1_555
H2 C3 1_555 1_555
H3 C3 1_555 1_555
H4 C3 1_555 1_555
C4 Sn1 1_555 1_555
H5 C4 1_555 1_555
H6 C4 1_555 1_555
H7 C4 1_555 1_555
C5 Sn1 1_555 1_555
H8 C5 1_555 1_555
H9 C5 1_555 1_555
H10 C5 1_555 1_555
Sn1A N2 1_555 1_555
N2A Sn1 1_555 1_555

#END
