
#######################################################################
#
#                 Cambridge Crystallographic Data Centre
#                                CCDC 
#
#######################################################################
#
# If this CIF has been generated from an entry in the Cambridge 
# Structural Database, then it will include bibliographic, chemical, 
# crystal, experimental, refinement or atomic coordinate data resulting 
# from the CCDC's data processing and validation procedures.
#
#######################################################################

data_GETLAS10
_symmetry_cell_setting           monoclinic
_symmetry_space_group_name_H-M   'P 21/c'
_symmetry_Int_Tables_number      14
_space_group_name_Hall           '-P 2ybc'
loop_
_symmetry_equiv_pos_site_id
_symmetry_equiv_pos_as_xyz
1 x,y,z
2 -x,1/2+y,1/2-z
3 -x,-y,-z
4 x,1/2-y,1/2+z
_cell_length_a                   10.8392(27)
_cell_length_b                   19.1240(85)
_cell_length_c                   16.1580(59)
_cell_angle_alpha                90
_cell_angle_beta                 90.326(26)
_cell_angle_gamma                90
_cell_volume                     3349.32
loop_
_atom_site_label
_atom_site_type_symbol
_atom_site_fract_x
_atom_site_fract_y
_atom_site_fract_z
Zn1 Zn 0.1553(1) 0.1047(1) 0.3124(1)
N1 N 0.2699(6) 0.1711(3) 0.3785(4)
N2 N 0.3033(5) 0.0800(3) 0.2380(4)
N3 N 0.0629(5) 0.0178(3) 0.2672(4)
N4 N 0.0298(5) 0.1085(3) 0.4070(4)
C1 C 0.2388(7) 0.2083(4) 0.4469(5)
C2 C 0.3358(8) 0.2573(5) 0.4678(6)
C3 C 0.4225(8) 0.2491(5) 0.4087(6)
C4 C 0.3836(7) 0.1949(4) 0.3525(5)
C5 C 0.4470(7) 0.1719(5) 0.2832(5)
C6 C 0.4088(7) 0.1189(4) 0.2302(5)
C7 C 0.4739(8) 0.0977(5) 0.1574(6)
C8 C 0.4107(8) 0.0463(5) 0.1213(6)
C9 C 0.2996(7) 0.0361(4) 0.1717(5)
C10 C 0.2048(8) -0.0125(4) 0.1546(5)
C11 C 0.0955(8) -0.0218(4) 0.2004(5)
C12 C 0.0020(8) -0.0722(4) 0.1823(5)
C13 C -0.0874(8) -0.0631(4) 0.2383(5)
C14 C -0.0520(7) -0.0059(4) 0.2916(5)
C15 C -0.1196(7) 0.0189(4) 0.3575(5)
C16 C -0.0798(7) 0.0726(4) 0.4126(5)
C17 C -0.1497(8) 0.1000(5) 0.4810(5)
C18 C -0.0819(7) 0.1481(5) 0.5183(5)
C19 C 0.0322(7) 0.1544(4) 0.4719(5)
C20 C 0.1287(7) 0.2001(4) 0.4912(5)
C21 C 0.5676(7) 0.2076(4) 0.2649(5)
C22 C 0.5756(9) 0.2622(5) 0.2106(6)
C23 C 0.6887(8) 0.2943(5) 0.1952(6)
C24 C 0.7916(8) 0.2727(5) 0.2351(6)
C25 C 0.7863(8) 0.2186(4) 0.2892(5)
C26 C 0.6758(8) 0.1863(5) 0.3065(6)
C27 C 0.2175(7) -0.0550(4) 0.0768(5)
C28 C 0.2590(8) -0.1227(4) 0.0795(6)
C29 C 0.2657(8) -0.1617(5) 0.0051(6)
C30 C 0.2363(8) -0.1314(5) -0.0670(6)
C31 C 0.1977(8) -0.0649(5) -0.0708(7)
C32 C 0.1875(8) -0.0274(5) 0.0003(6)
C33 C -0.2459(7) -0.0109(4) 0.3713(5)
C34 C -0.3360(8) -0.0056(4) 0.3120(6)
C35 C -0.4551(9) -0.0325(5) 0.3270(7)
C36 C -0.4786(9) -0.0635(5) 0.4002(6)
C37 C -0.3928(8) -0.0698(5) 0.4598(6)
C38 C -0.2725(8) -0.0431(4) 0.4447(5)
C39 C 0.1184(7) 0.2404(4) 0.5690(5)
C40 C 0.0622(8) 0.3052(5) 0.5732(6)
C41 C 0.0562(9) 0.3412(5) 0.6468(6)
N5 N 0.0982(6) 0.3167(4) 0.7174(4)
C42 C 0.1526(8) 0.2539(5) 0.7166(6)
C43 C 0.1637(8) 0.2158(5) 0.6426(6)
N5C N 0.0982(6) 0.1833(4) 0.2174(4)
Zn1C Zn 0.1553(1) 0.3953(1) 0.8124(1)
loop_
_geom_bond_atom_site_label_1
_geom_bond_atom_site_label_2
_geom_bond_site_symmetry_1
_geom_bond_site_symmetry_2
Zn1 N1 1_555 1_555
N1 C1 1_555 1_555
N2 Zn1 1_555 1_555
N3 Zn1 1_555 1_555
N4 Zn1 1_555 1_555
C1 C2 1_555 1_555
C2 C3 1_555 1_555
C3 C4 1_555 1_555
C4 N1 1_555 1_555
C5 C4 1_555 1_555
C6 N2 1_555 1_555
C7 C6 1_555 1_555
C8 C7 1_555 1_555
C9 N2 1_555 1_555
C10 C9 1_555 1_555
C11 N3 1_555 1_555
C12 C11 1_555 1_555
C13 C12 1_555 1_555
C14 N3 1_555 1_555
C15 C14 1_555 1_555
C16 N4 1_555 1_555
C17 C16 1_555 1_555
C18 C17 1_555 1_555
C19 N4 1_555 1_555
C20 C1 1_555 1_555
C21 C5 1_555 1_555
C22 C21 1_555 1_555
C23 C22 1_555 1_555
C24 C23 1_555 1_555
C25 C24 1_555 1_555
C26 C21 1_555 1_555
C27 C10 1_555 1_555
C28 C27 1_555 1_555
C29 C28 1_555 1_555
C30 C29 1_555 1_555
C31 C30 1_555 1_555
C32 C27 1_555 1_555
C33 C15 1_555 1_555
C34 C33 1_555 1_555
C35 C34 1_555 1_555
C36 C35 1_555 1_555
C37 C36 1_555 1_555
C38 C33 1_555 1_555
C39 C20 1_555 1_555
C40 C39 1_555 1_555
C41 C40 1_555 1_555
N5 C41 1_555 1_555
C42 N5 1_555 1_555
C43 C39 1_555 1_555
N5C Zn1 1_555 1_555
Zn1C N5 1_555 1_555
C5 C6 1_555 1_555
C8 C9 1_555 1_555
C10 C11 1_555 1_555
C13 C14 1_555 1_555
C15 C16 1_555 1_555
C18 C19 1_555 1_555
C19 C20 1_555 1_555
C25 C26 1_555 1_555
C31 C32 1_555 1_555
C37 C38 1_555 1_555
C42 C43 1_555 1_555

#END
