
#######################################################################
#
#                 Cambridge Crystallographic Data Centre
#                                CCDC 
#
#######################################################################
#
# If this CIF has been generated from an entry in the Cambridge 
# Structural Database, then it will include bibliographic, chemical, 
# crystal, experimental, refinement or atomic coordinate data resulting 
# from the CCDC's data processing and validation procedures.
#
#######################################################################

data_GETQAZ
_symmetry_cell_setting           monoclinic
_symmetry_space_group_name_H-M   'P 2/c'
_symmetry_Int_Tables_number      13
_space_group_name_Hall           '-P 2yc'
loop_
_symmetry_equiv_pos_site_id
_symmetry_equiv_pos_as_xyz
1 x,y,z
2 -x,y,1/2-z
3 -x,-y,-z
4 x,-y,1/2+z
_cell_length_a                   7.411(2)
_cell_length_b                   7.848(3)
_cell_length_c                   25.048(8)
_cell_angle_alpha                90
_cell_angle_beta                 94.729(5)
_cell_angle_gamma                90
_cell_volume                     1451.87
loop_
_atom_site_label
_atom_site_type_symbol
_atom_site_fract_x
_atom_site_fract_y
_atom_site_fract_z
Zn1 Zn 1.0000 0.35820(9) 0.2500
Zn2 Zn 1.14757(7) 0.67316(6) 0.33022(2)
C1 C 0.8536(6) 0.8713(5) 0.34343(19)
O1 O 0.9477(4) 0.9236(4) 0.38290(13)
O2 O 0.8924(4) 1.1991(4) 0.29877(14)
O3 O 0.9055(4) 0.7613(4) 0.30951(12)
C2 C 1.3659(6) -0.0296(6) 0.53401(18)
H1 H 1.2758 -0.0499 0.5570
C3 C 1.1318(7) 0.3933(6) 0.4113(2)
H2 H 1.0820 0.3171 0.3857
O4 O 1.1994(5) 0.4990(5) 0.27927(16)
N1 N 1.1716(5) 0.3536(5) 0.46298(17)
C4 C 1.3382(6) 0.0929(6) 0.49395(18)
C5 C 1.1581(7) 0.1843(6) 0.4869(2)
H3 H 1.0738 0.1159 0.4643
H4 H 1.1099 0.1956 0.5216
O5 O 0.7215(5) 1.3825(5) 0.34009(19)
C6 C 0.6604(5) 0.9297(5) 0.33263(16)
N2 N 1.1718(5) 0.5541(5) 0.40104(16)
C7 C 0.7517(6) 1.2427(6) 0.3223(2)
C8 C 0.6134(6) 1.1011(5) 0.32528(17)
C9 C 0.5230(6) 0.8094(5) 0.33353(17)
H5 H 0.5544 0.6954 0.3383
C10 C 1.2424(8) 0.6185(7) 0.4495(2)
H6 H 1.2843 0.7293 0.4551
C11 C 1.2419(7) 0.4977(7) 0.4874(2)
H7 H 1.2817 0.5096 0.5234
N3 N 0.3455(5) 0.8517(4) 0.32770(15)
C12 C 0.3012(6) 1.0164(5) 0.31948(18)
H8 H 0.1794 1.0458 0.3143
C13 C 0.4303(6) 1.1440(5) 0.31840(18)
H9 H 0.3951 1.2569 0.3131
C14 C 1.5246(7) -0.1211(6) 0.54007(18)
H10 H 1.5189 -0.1988 0.5695
H11 H 1.231(9) 0.526(8) 0.258(2)
C2B C 1.6341(6) 0.0296(6) 0.46599(18)
H1B H 1.7242 0.0499 0.4430
C3B C 1.8682(7) -0.3933(6) 0.5887(2)
H2B H 1.9180 -0.3171 0.6143
N1B N 1.8284(5) -0.3536(5) 0.53702(17)
C4B C 1.6618(6) -0.0929(6) 0.50605(18)
C5B C 1.8419(7) -0.1843(6) 0.5131(2)
H3B H 1.9262 -0.1159 0.5357
H4B H 1.8901 -0.1956 0.4784
N2B N 1.8282(5) -0.5541(5) 0.59896(16)
C10B C 1.7576(8) -0.6185(7) 0.5505(2)
H6B H 1.7157 -0.7293 0.5449
C11B C 1.7581(7) -0.4977(7) 0.5126(2)
H7B H 1.7183 -0.5096 0.4766
C14B C 1.4754(7) 0.1211(6) 0.45993(18)
H10B H 1.4811 0.1988 0.4305
Zn2A Zn 0.85243(7) 0.67316(6) 0.16978(2)
C1A C 1.1464(6) 0.8713(5) 0.15657(19)
O1A O 1.0523(4) 0.9236(4) 0.11710(13)
O2A O 1.1076(4) 1.1991(4) 0.20123(14)
O3A O 1.0945(4) 0.7613(4) 0.19049(12)
O4A O 0.8006(5) 0.4990(5) 0.22073(16)
O5A O 1.2785(5) 1.3825(5) 0.15991(19)
C6A C 1.3396(5) 0.9297(5) 0.16737(16)
C7A C 1.2483(6) 1.2427(6) 0.1777(2)
C8A C 1.3866(6) 1.1011(5) 0.17472(17)
C9A C 1.4770(6) 0.8094(5) 0.16647(17)
H5A H 1.4456 0.6954 0.1617
N3A N 1.6545(5) 0.8517(4) 0.17230(15)
C12A C 1.6988(6) 1.0164(5) 0.18052(18)
H8A H 1.8206 1.0458 0.1857
C13A C 1.5697(6) 1.1440(5) 0.18160(18)
H9A H 1.6049 1.2569 0.1869
H11A H 0.769(9) 0.526(8) 0.242(2)
Zn1_2 Zn 1.0000 1.35820(9) 0.2500
Zn2_2 Zn 0.14757(7) 0.67316(6) 0.33022(2)
Zn2A_2 Zn 1.85243(7) 0.67316(6) 0.16978(2)
Zn2B Zn 1.85243(7) -0.67316(6) 0.66978(2)
O2_2 O 0.8924(4) 0.1991(4) 0.29877(14)
O2A_2 O 1.1076(4) 0.1991(4) 0.20123(14)
N2A N 0.8282(5) 0.5541(5) 0.09896(16)
N3_2 N 1.3455(5) 0.8517(4) 0.32770(15)
N3A_2 N 0.6545(5) 0.8517(4) 0.17230(15)
loop_
_geom_bond_atom_site_label_1
_geom_bond_atom_site_label_2
_geom_bond_site_symmetry_1
_geom_bond_site_symmetry_2
Zn1 O4 1_555 1_555
Zn2 O3 1_555 1_555
C1 O1 1_555 1_555
O2 C7 1_555 1_555
O3 C1 1_555 1_555
C2 H1 1_555 1_555
C3 H2 1_555 1_555
O4 Zn2 1_555 1_555
N1 C3 1_555 1_555
C4 C2 1_555 1_555
C5 N1 1_555 1_555
H3 C5 1_555 1_555
H4 C5 1_555 1_555
O5 C7 1_555 1_555
C6 C1 1_555 1_555
N2 Zn2 1_555 1_555
C7 C8 1_555 1_555
C8 C6 1_555 1_555
C9 C6 1_555 1_555
H5 C9 1_555 1_555
C10 N2 1_555 1_555
H6 C10 1_555 1_555
C11 N1 1_555 1_555
H7 C11 1_555 1_555
N3 C9 1_555 1_555
C12 N3 1_555 1_555
H8 C12 1_555 1_555
C13 C8 1_555 1_555
H9 C13 1_555 1_555
C14 C2 1_555 1_555
H10 C14 1_555 1_555
H11 O4 1_555 1_555
C2B H1B 1_555 1_555
C3B H2B 1_555 1_555
N1B C3B 1_555 1_555
C4B C14 1_555 1_555
C5B N1B 1_555 1_555
H3B C5B 1_555 1_555
H4B C5B 1_555 1_555
N2B C3B 1_555 1_555
C10B N2B 1_555 1_555
H6B C10B 1_555 1_555
C11B N1B 1_555 1_555
H7B C11B 1_555 1_555
C14B C4 1_555 1_555
H10B C14B 1_555 1_555
Zn2A O3A 1_555 1_555
C1A O1A 1_555 1_555
O2A C7A 1_555 1_555
O3A C1A 1_555 1_555
O4A Zn1 1_555 1_555
O5A C7A 1_555 1_555
C6A C1A 1_555 1_555
C7A C8A 1_555 1_555
C8A C6A 1_555 1_555
C9A C6A 1_555 1_555
H5A C9A 1_555 1_555
N3A C9A 1_555 1_555
C12A N3A 1_555 1_555
H8A C12A 1_555 1_555
C13A C8A 1_555 1_555
H9A C13A 1_555 1_555
H11A O4A 1_555 1_555
Zn1_2 O2 1_555 1_555
Zn2_2 N3 1_555 1_555
Zn2A_2 N3A 1_555 1_555
Zn2B N2B 1_555 1_555
O2_2 Zn1 1_555 1_555
O2A_2 Zn1 1_555 1_555
N2A Zn2A 1_555 1_555
N3_2 Zn2 1_555 1_555
N3A_2 Zn2A 1_555 1_555
C3 N2 1_555 1_555
C4 C5 1_555 1_555
C10 C11 1_555 1_555
C12 C13 1_555 1_555
C2B C4B 1_555 1_555
C2B C14B 1_555 1_555
C4B C5B 1_555 1_555
C10B C11B 1_555 1_555
Zn2A O4A 1_555 1_555
O2A Zn1_2 1_555 1_555
C12A C13A 1_555 1_555

#END
