
#######################################################################
#
#                 Cambridge Crystallographic Data Centre
#                                CCDC 
#
#######################################################################
#
# If this CIF has been generated from an entry in the Cambridge 
# Structural Database, then it will include bibliographic, chemical, 
# crystal, experimental, refinement or atomic coordinate data resulting 
# from the CCDC's data processing and validation procedures.
#
#######################################################################

data_GETRED
_symmetry_cell_setting           orthorhombic
_symmetry_space_group_name_H-M   'P c a 21'
_symmetry_Int_Tables_number      29
_space_group_name_Hall           'P 2c -2ac'
loop_
_symmetry_equiv_pos_site_id
_symmetry_equiv_pos_as_xyz
1 x,y,z
2 -x,-y,1/2+z
3 1/2-x,y,1/2+z
4 1/2+x,-y,z
_cell_length_a                   10.057(2)
_cell_length_b                   14.452(3)
_cell_length_c                   8.834(2)
_cell_angle_alpha                90
_cell_angle_beta                 90
_cell_angle_gamma                90
_cell_volume                     1283.97
loop_
_atom_site_label
_atom_site_type_symbol
_atom_site_fract_x
_atom_site_fract_y
_atom_site_fract_z
Bi1 Bi 0.7582(1) 0.1789(1) 0.3506(1)
O1 O 0.8867(16) 0.1591(10) 0.1371(14)
O2 O 1.0013(13) 0.1063(13) 0.3300(20)
C1 C 0.9921(18) 0.1205(17) 0.1940(20)
C2 C 1.0880(20) 0.0840(20) 0.0830(30)
Cl1 Cl 1.2330(7) 0.0392(5) 0.1540(10)
C3 C 0.8204(14) 0.3294(13) 0.3490(50)
C4 C 0.9364(19) 0.3571(19) 0.2800(30)
C5 C 0.9690(30) 0.4510(20) 0.3030(30)
C6 C 0.9070(20) 0.5081(18) 0.3890(40)
C7 C 0.7910(20) 0.4804(19) 0.4700(30)
C8 C 0.7460(20) 0.3859(14) 0.4500(20)
O3 O 0.5236(12) 0.2448(12) 0.3400(40)
O4 O 0.6252(14) 0.2010(11) 0.1340(19)
C9 C 0.5249(18) 0.2340(15) 0.2060(30)
C10 C 0.4103(17) 0.2594(18) 0.1020(40)
Cl2 Cl 0.2638(5) 0.2911(5) 0.1996(9)
Bi1B Bi 0.7418(1) 0.1789(1) -0.1494(1)
O1B O 0.6133(16) 0.1591(10) 0.6371(14)
O4B O 0.8748(14) 0.2010(11) 0.6340(19)
loop_
_geom_bond_atom_site_label_1
_geom_bond_atom_site_label_2
_geom_bond_site_symmetry_1
_geom_bond_site_symmetry_2
Bi1 O1 1_555 1_555
O1 C1 1_555 1_555
O2 Bi1 1_555 1_555
C1 O2 1_555 1_555
C2 C1 1_555 1_555
Cl1 C2 1_555 1_555
C3 Bi1 1_555 1_555
C4 C3 1_555 1_555
C5 C4 1_555 1_555
C6 C5 1_555 1_555
C7 C6 1_555 1_555
C8 C3 1_555 1_555
O3 Bi1 1_555 1_555
O4 Bi1 1_555 1_555
C9 O3 1_555 1_555
C10 C9 1_555 1_555
Cl2 C10 1_555 1_555
Bi1B O1 1_555 1_555
O1B Bi1 1_555 1_555
O4B Bi1 1_555 1_555
C7 C8 1_555 1_555
O4 C9 1_555 1_555
O4 Bi1B 1_555 1_555

#END
