
#######################################################################
#
#                 Cambridge Crystallographic Data Centre
#                                CCDC 
#
#######################################################################
#
# If this CIF has been generated from an entry in the Cambridge 
# Structural Database, then it will include bibliographic, chemical, 
# crystal, experimental, refinement or atomic coordinate data resulting 
# from the CCDC's data processing and validation procedures.
#
#######################################################################

data_GETTIJ
_symmetry_cell_setting           orthorhombic
_symmetry_space_group_name_H-M   'P b c a'
_symmetry_Int_Tables_number      61
_space_group_name_Hall           '-P 2ac 2ab'
loop_
_symmetry_equiv_pos_site_id
_symmetry_equiv_pos_as_xyz
1 x,y,z
2 1/2-x,-y,1/2+z
3 1/2+x,1/2-y,-z
4 -x,1/2+y,1/2-z
5 -x,-y,-z
6 1/2+x,y,1/2-z
7 1/2-x,1/2+y,z
8 x,1/2-y,1/2+z
_cell_length_a                   8.5919(7)
_cell_length_b                   17.807(2)
_cell_length_c                   18.941(2)
_cell_angle_alpha                90
_cell_angle_beta                 90
_cell_angle_gamma                90
_cell_volume                     2897.9
loop_
_atom_site_label
_atom_site_type_symbol
_atom_site_fract_x
_atom_site_fract_y
_atom_site_fract_z
Ca1 Ca 0.7760(1) 0.0835(1) 0.6430(1)
O1 O 0.9403(1) 0.2843(1) 0.7774(1)
O2 O 0.8652(1) 0.1931(1) 0.7027(1)
O3 O 0.9991(1) 0.0786(1) 0.9869(1)
O4 O 1.0698(1) 0.1573(1) 0.9004(1)
O5 O 0.9932(1) 0.3271(1) 0.9489(1)
O6 O 0.9289(1) 0.3966(1) 1.0432(1)
O7 O 1.0284(1) 0.4971(1) 0.8216(1)
O8 O 0.8825(1) 0.5539(1) 0.7395(1)
O9 O 0.6735(2) -0.0292(1) 0.5993(1)
N1 N 0.7943(1) 0.2240(1) 0.8913(1)
N2 N 0.7938(1) 0.3980(1) 0.8601(1)
C1 C 0.7752(2) 0.1861(1) 0.8208(1)
C2 C 0.8693(1) 0.2252(1) 0.7628(1)
C3 C 0.8145(2) 0.1680(1) 0.9495(1)
C4 C 0.9750(1) 0.1309(1) 0.9446(1)
C5 C 0.6658(1) 0.2784(1) 0.9090(1)
C6 C 0.6553(1) 0.3448(1) 0.8589(1)
C7 C 0.8225(2) 0.4319(1) 0.9322(1)
C8 C 0.9231(1) 0.3801(1) 0.9787(1)
C9 C 0.7651(2) 0.4559(1) 0.8037(1)
C10 C 0.9051(1) 0.5066(1) 0.7872(1)
H1 H 0.8785(19) 0.2484(9) 0.8908(8)
H2 H 0.8788(19) 0.3713(9) 0.8467(8)
Ca1E Ca 1.2760(1) 0.0835(1) 0.8570(1)
Ca1G Ca 0.7760(1) 0.4165(1) 1.1430(1)
Ca1C Ca 1.2240(1) 0.5835(1) 0.8570(1)
Ca1F Ca 0.7240(1) 0.5835(1) 0.6430(1)
O4E O 0.5698(1) 0.1573(1) 0.5996(1)
O6G O 0.9289(1) 0.1034(1) 0.5432(1)
O7C O 0.9716(1) -0.0029(1) 0.6784(1)
O8F O 0.6175(1) 0.0539(1) 0.7395(1)
O10 O 0.7273(1) -0.1786(1) 0.6240(1)
loop_
_geom_bond_atom_site_label_1
_geom_bond_atom_site_label_2
_geom_bond_site_symmetry_1
_geom_bond_site_symmetry_2
Ca1 O2 1_555 1_555
O1 C2 1_555 1_555
O2 C2 1_555 1_555
O3 C4 1_555 1_555
O4 C4 1_555 1_555
O5 C8 1_555 1_555
O6 C8 1_555 1_555
O7 C10 1_555 1_555
O8 C10 1_555 1_555
O9 Ca1 1_555 1_555
N1 C1 1_555 1_555
N2 C6 1_555 1_555
C1 C2 1_555 1_555
C3 N1 1_555 1_555
C4 C3 1_555 1_555
C5 N1 1_555 1_555
C6 C5 1_555 1_555
C7 N2 1_555 1_555
C8 C7 1_555 1_555
C9 N2 1_555 1_555
C10 C9 1_555 1_555
H1 N1 1_555 1_555
H2 N2 1_555 1_555
Ca1E O4 1_555 1_555
Ca1G O6 1_555 1_555
Ca1C O7 1_555 1_555
Ca1F O8 1_555 1_555
O4E Ca1 1_555 1_555
O6G Ca1 1_555 1_555
O7C Ca1 1_555 1_555
O8F Ca1 1_555 1_555

#END
