
#######################################################################
#
#                 Cambridge Crystallographic Data Centre
#                                CCDC 
#
#######################################################################
#
# If this CIF has been generated from an entry in the Cambridge 
# Structural Database, then it will include bibliographic, chemical, 
# crystal, experimental, refinement or atomic coordinate data resulting 
# from the CCDC's data processing and validation procedures.
#
#######################################################################

data_GETVUW
_symmetry_cell_setting           monoclinic
_symmetry_space_group_name_H-M   'P 21/a'
_symmetry_Int_Tables_number      14
_space_group_name_Hall           '-P 2yab'
loop_
_symmetry_equiv_pos_site_id
_symmetry_equiv_pos_as_xyz
1 x,y,z
2 1/2-x,1/2+y,-z
3 -x,-y,-z
4 1/2+x,1/2-y,z
_cell_length_a                   24.368(4)
_cell_length_b                   11.655(2)
_cell_length_c                   9.445(2)
_cell_angle_alpha                90
_cell_angle_beta                 101.13(2)
_cell_angle_gamma                90
_cell_volume                     2632.01
loop_
_atom_site_label
_atom_site_type_symbol
_atom_site_fract_x
_atom_site_fract_y
_atom_site_fract_z
Au1 Au 0.2450(1) 0.2980(1) 0.5425(2)
Tl1 Tl 0.2369(1) 0.0449(1) 0.5273(2)
P1 P 0.3706(4) 0.2357(7) 0.5256(10)
P2 P 0.1439(4) 0.2445(8) 0.2650(12)
S1 S 0.3425(4) 0.1008(9) 0.4111(13)
S2 S 0.1680(6) 0.0882(10) 0.2442(15)
C1 C 0.3299(10) 0.2781(22) 0.6627(28)
C2 C 0.1588(10) 0.3163(22) 0.4480(28)
C3 C 0.4115(8) 0.4486(19) 0.4623(21)
C4 C 0.4126(8) 0.5464(19) 0.3777(21)
C5 C 0.3782(8) 0.5532(19) 0.2416(21)
C6 C 0.3427(8) 0.4623(19) 0.1901(21)
C7 C 0.3416(8) 0.3645(19) 0.2747(21)
C8 C 0.3760(8) 0.3577(19) 0.4108(21)
C9 C 0.4617(10) 0.2460(22) 0.7560(27)
C10 C 0.5171(10) 0.2242(22) 0.8215(27)
C11 C 0.5524(10) 0.1669(22) 0.7453(27)
C12 C 0.5324(10) 0.1314(22) 0.6037(27)
C13 C 0.4770(10) 0.1532(22) 0.5383(27)
C14 C 0.4417(10) 0.2105(22) 0.6144(27)
C15 C 0.1937(11) 0.2867(16) 0.0312(29)
C16 C 0.2123(11) 0.3566(16) -0.0699(29)
C17 C 0.2069(11) 0.4755(16) -0.0626(29)
C18 C 0.1830(11) 0.5245(16) 0.0459(29)
C19 C 0.1644(11) 0.4546(16) 0.1469(29)
C20 C 0.1698(11) 0.3357(16) 0.1396(29)
C21 C 0.0389(13) 0.1495(22) 0.1800(33)
C22 C -0.0193(13) 0.1502(22) 0.1403(33)
C23 C -0.0484(13) 0.2539(22) 0.1303(33)
C24 C -0.0193(13) 0.3569(22) 0.1600(33)
C25 C 0.0389(13) 0.3562(22) 0.1997(33)
C26 C 0.0680(13) 0.2525(22) 0.2097(33)
Tl1A Tl 0.2631(1) 0.5449(1) 0.4727(2)
Au1A Au 0.2550(1) -0.2020(1) 0.4575(2)
Au1A_2 Au 0.2550(1) 0.7980(1) 0.4575(2)
S1A S 0.1575(4) 0.6008(9) 0.5889(13)
S2A S 0.3320(6) 0.5882(10) 0.7558(15)
P1A P 0.1294(4) 0.7357(7) 0.4744(10)
P2A P 0.3561(4) 0.7445(8) 0.7350(12)
C1A C 0.1701(10) 0.7781(22) 0.3373(28)
C8A C 0.1240(8) 0.8577(19) 0.5892(21)
C14A C 0.0583(10) 0.7105(22) 0.3856(27)
C2A C 0.3412(10) 0.8163(22) 0.5520(28)
C20A C 0.3302(11) 0.8357(16) 0.8604(29)
C26A C 0.4320(13) 0.7525(22) 0.7903(33)
C3A C 0.0885(8) 0.9486(19) 0.5377(21)
C7A C 0.1584(8) 0.8645(19) 0.7253(21)
C9A C 0.0383(10) 0.7460(22) 0.2440(27)
C13A C 0.0230(10) 0.6532(22) 0.4617(27)
C15A C 0.3063(11) 0.7867(16) 0.9688(29)
C19A C 0.3356(11) 0.9546(16) 0.8531(29)
C21A C 0.4611(13) 0.6495(22) 0.8200(33)
C25A C 0.4611(13) 0.8562(22) 0.8003(33)
C4A C 0.0874(8) 1.0464(19) 0.6223(21)
C6A C 0.1573(8) 0.9623(19) 0.8099(21)
C10A C -0.0171(10) 0.7242(22) 0.1785(27)
C12A C -0.0324(10) 0.6314(22) 0.3963(27)
C16A C 0.2877(11) 0.8566(16) 1.0699(29)
C18A C 0.3170(11) 1.0245(16) 0.9541(29)
C22A C 0.5193(13) 0.6502(22) 0.8597(33)
C24A C 0.5193(13) 0.8569(22) 0.8400(33)
C5A C 0.1218(8) 1.0532(19) 0.7584(21)
C11A C -0.0524(10) 0.6669(22) 0.2547(27)
C17A C 0.2931(11) 0.9755(16) 1.0626(29)
C23A C 0.5484(13) 0.7539(22) 0.8697(33)
Tl1_2 Tl 0.2369(1) 1.0449(1) 0.5273(2)
loop_
_geom_bond_atom_site_label_1
_geom_bond_atom_site_label_2
_geom_bond_site_symmetry_1
_geom_bond_site_symmetry_2
Au1 Tl1 1_555 1_555
Tl1 S1 1_555 1_555
P1 S1 1_555 1_555
P2 S2 1_555 1_555
S2 Tl1 1_555 1_555
C1 Au1 1_555 1_555
C2 Au1 1_555 1_555
C3 C4 1_555 1_555
C4 C5 1_555 1_555
C5 C6 1_555 1_555
C6 C7 1_555 1_555
C7 C8 1_555 1_555
C8 P1 1_555 1_555
C9 C10 1_555 1_555
C10 C11 1_555 1_555
C11 C12 1_555 1_555
C12 C13 1_555 1_555
C13 C14 1_555 1_555
C14 P1 1_555 1_555
C15 C16 1_555 1_555
C16 C17 1_555 1_555
C17 C18 1_555 1_555
C18 C19 1_555 1_555
C19 C20 1_555 1_555
C20 P2 1_555 1_555
C21 C22 1_555 1_555
C22 C23 1_555 1_555
C23 C24 1_555 1_555
C24 C25 1_555 1_555
C25 C26 1_555 1_555
C26 P2 1_555 1_555
Tl1A Au1 1_555 1_555
Au1A Tl1 1_555 1_555
Au1A_2 Tl1A 1_555 1_555
S1A Tl1A 1_555 1_555
S2A Tl1A 1_555 1_555
P1A S1A 1_555 1_555
P2A S2A 1_555 1_555
C1A Au1A_2 1_555 1_555
C8A P1A 1_555 1_555
C14A P1A 1_555 1_555
C2A Au1A_2 1_555 1_555
C20A P2A 1_555 1_555
C26A P2A 1_555 1_555
C3A C8A 1_555 1_555
C7A C8A 1_555 1_555
C9A C14A 1_555 1_555
C13A C14A 1_555 1_555
C15A C20A 1_555 1_555
C19A C20A 1_555 1_555
C21A C26A 1_555 1_555
C25A C26A 1_555 1_555
C4A C3A 1_555 1_555
C6A C7A 1_555 1_555
C10A C9A 1_555 1_555
C12A C13A 1_555 1_555
C16A C15A 1_555 1_555
C18A C19A 1_555 1_555
C22A C21A 1_555 1_555
C24A C25A 1_555 1_555
C5A C4A 1_555 1_555
C11A C10A 1_555 1_555
C17A C16A 1_555 1_555
C23A C22A 1_555 1_555
Tl1_2 Au1A_2 1_555 1_555
P1 C1 1_555 1_555
P2 C2 1_555 1_555
C3 C8 1_555 1_555
C9 C14 1_555 1_555
C15 C20 1_555 1_555
C21 C26 1_555 1_555
P1A C1A 1_555 1_555
P2A C2A 1_555 1_555
C6A C5A 1_555 1_555
C12A C11A 1_555 1_555
C18A C17A 1_555 1_555
C24A C23A 1_555 1_555

#END
