
#######################################################################
#
#                 Cambridge Crystallographic Data Centre
#                                CCDC 
#
#######################################################################
#
# If this CIF has been generated from an entry in the Cambridge 
# Structural Database, then it will include bibliographic, chemical, 
# crystal, experimental, refinement or atomic coordinate data resulting 
# from the CCDC's data processing and validation procedures.
#
#######################################################################

data_GETWEJ
_symmetry_cell_setting           orthorhombic
_symmetry_space_group_name_H-M   'C 2 2 21'
_symmetry_Int_Tables_number      20
_space_group_name_Hall           'C 2n 2'
loop_
_symmetry_equiv_pos_site_id
_symmetry_equiv_pos_as_xyz
1 x,y,z
2 -x,-y,1/2+z
3 x,-y,-z
4 -x,y,1/2-z
5 1/2+x,1/2+y,z
6 1/2-x,1/2-y,1/2+z
7 1/2+x,1/2-y,-z
8 1/2-x,1/2+y,1/2-z
_cell_length_a                   17.362(15)
_cell_length_b                   7.135(6)
_cell_length_c                   7.475(6)
_cell_angle_alpha                90
_cell_angle_beta                 90
_cell_angle_gamma                90
_cell_volume                     925.987
loop_
_atom_site_label
_atom_site_type_symbol
_atom_site_fract_x
_atom_site_fract_y
_atom_site_fract_z
Pb1 Pb 0.440808(18) 0.5000 1.0000
O1 O 0.5672(3) 0.5117(13) 1.1465(9)
N1 N 1.0568(4) 0.4077(13) 0.9831(19)
N2 N 0.9826(4) 0.3452(9) 0.9861(19)
C1 C 0.6055(6) 0.5000 1.0000
C2 C 0.6903(7) 0.5000 1.0000
C3 C 0.7314(5) 0.3950(13) 0.8698(13)
H1 H 0.7050 0.3246 0.7850
C4 C 0.8125(6) 0.3985(14) 0.8701(14)
H2 H 0.8395 0.3325 0.7829
C5 C 0.8534(6) 0.5000 1.0000
C6 C 0.9397(5) 0.5000 1.0000
O1B O 0.5672(3) 0.4883(13) 0.8535(9)
N1B N 1.0568(4) 0.5923(13) 1.0169(19)
N2B N 0.9826(4) 0.6548(9) 1.0139(19)
C3B C 0.7314(5) 0.6050(13) 1.1302(13)
H1B H 0.7050 0.6754 1.2150
C4B C 0.8125(6) 0.6015(14) 1.1299(14)
H2B H 0.8395 0.6675 1.2171
Pb1A Pb 0.559192(18) 0.5000 0.5000
Pb1A_2 Pb 0.559192(18) 0.5000 1.5000
Pb1D Pb 0.940808(18) 0.0000 1.0000
Pb1D_2 Pb 0.940808(18) 1.0000 1.0000
O1A O 0.4328(3) 0.4883(13) 0.6465(9)
O1C O 0.4328(3) 0.5117(13) 1.3535(9)
N2D N 0.4826(4) 0.8452(9) 0.9861(19)
N2F N 0.4826(4) 0.1548(9) 1.0139(19)
loop_
_geom_bond_atom_site_label_1
_geom_bond_atom_site_label_2
_geom_bond_site_symmetry_1
_geom_bond_site_symmetry_2
Pb1 O1 1_555 1_555
O1 C1 1_555 1_555
N1 N2 1_555 1_555
N2 C6 1_555 1_555
C1 C2 1_555 1_555
C2 C3 1_555 1_555
C3 H1 1_555 1_555
C4 C3 1_555 1_555
H2 C4 1_555 1_555
C5 C4 1_555 1_555
C6 C5 1_555 1_555
O1B Pb1 1_555 1_555
N1B N1 1_555 1_555
N2B C6 1_555 1_555
C3B C2 1_555 1_555
H1B C3B 1_555 1_555
C4B C5 1_555 1_555
H2B C4B 1_555 1_555
Pb1A O1B 1_555 1_555
Pb1A_2 O1 1_555 1_555
Pb1D N2 1_555 1_555
Pb1D_2 N2B 1_555 1_555
O1A Pb1 1_555 1_555
O1C Pb1 1_555 1_555
N2D Pb1 1_555 1_555
N2F Pb1 1_555 1_555
C1 O1B 1_555 1_555
N1B N2B 1_555 1_555
C3B C4B 1_555 1_555
Pb1A O1A 1_555 1_555
Pb1A_2 O1C 1_555 1_555

#END
