
#######################################################################
#
#                 Cambridge Crystallographic Data Centre
#                                CCDC 
#
#######################################################################
#
# If this CIF has been generated from an entry in the Cambridge 
# Structural Database, then it will include bibliographic, chemical, 
# crystal, experimental, refinement or atomic coordinate data resulting 
# from the CCDC's data processing and validation procedures.
#
#######################################################################

data_GETZOV
_symmetry_cell_setting           monoclinic
_symmetry_space_group_name_H-M   'P 21/c'
_symmetry_Int_Tables_number      14
_space_group_name_Hall           '-P 2ybc'
loop_
_symmetry_equiv_pos_site_id
_symmetry_equiv_pos_as_xyz
1 x,y,z
2 -x,1/2+y,1/2-z
3 -x,-y,-z
4 x,1/2-y,1/2+z
_cell_length_a                   18.474(2)
_cell_length_b                   28.718(4)
_cell_length_c                   19.019(2)
_cell_angle_alpha                90
_cell_angle_beta                 116.092(2)
_cell_angle_gamma                90
_cell_volume                     9061.96
loop_
_atom_site_label
_atom_site_type_symbol
_atom_site_fract_x
_atom_site_fract_y
_atom_site_fract_z
N1 N 1.3312(2) 0.88348(14) 0.58485(18)
N6 N 1.4723(2) 0.89842(14) 0.58319(19)
N8 N 1.4465(2) 1.06354(16) 0.6122(2)
N10 N 1.2971(2) 1.04622(16) 0.6159(2)
O5 O 1.36519(17) 0.81234(11) 0.47005(14)
O6 O 1.49010(17) 0.79209(11) 0.54126(17)
O7 O 1.37352(19) 0.71543(11) 0.13885(18)
O9 O 1.47900(17) 0.67293(13) 0.21024(16)
C10 C 1.4336(3) 0.93656(18) 0.5912(2)
C14 C 1.3556(3) 0.92763(17) 0.5921(2)
C16 C 1.4632(3) 0.98140(18) 0.5978(2)
C17 C 1.2604(3) 0.87410(17) 0.5844(2)
H6 H 1.2430 0.8434 0.5788
C20 C 1.5375(3) 0.98695(18) 0.5951(2)
H9 H 1.5597 1.0165 0.5989
C22 C 1.5422(3) 0.90480(19) 0.5807(2)
H11 H 1.5692 0.8789 0.5745
C23 C 1.5770(3) 0.9485(2) 0.5868(2)
H12 H 1.6264 0.9516 0.5854
C24 C 1.4283(3) 0.79147(17) 0.4774(3)
C27 C 1.4163(3) 1.02075(19) 0.6060(2)
C28 C 1.4912(3) 0.73907(17) 0.4151(3)
H13 H 1.5347 0.7348 0.4639
C29 C 1.4274(3) 0.76665(16) 0.4079(2)
C33 C 1.3114(3) 0.96467(16) 0.6004(2)
C37 C 1.3638(3) 0.77261(18) 0.3353(3)
H17 H 1.3200 0.7907 0.3304
C39 C 1.4025(3) 1.0982(2) 0.6205(3)
C40 C 1.3282(3) 1.0894(2) 0.6237(3)
C41 C 1.2846(4) 1.1274(2) 0.6342(3)
H19 H 1.2363 1.1222 0.6370
C42 C 1.3638(3) 0.75228(18) 0.2697(3)
H20 H 1.3209 0.7573 0.2208
C44 C 1.2371(3) 0.95343(18) 0.6003(2)
H21 H 1.2053 0.9768 0.6060
C47 C 1.2120(3) 0.90859(19) 0.5918(2)
H24 H 1.1627 0.9010 0.5911
C58 C 1.3412(3) 1.01178(18) 0.6076(2)
C61 C 1.3864(4) 1.1802(2) 0.6363(4)
H33 H 1.4045 1.2107 0.6399
C62 C 1.4306(4) 1.1444(2) 0.6272(4)
H34 H 1.4792 1.1506 0.6256
C63 C 1.3132(5) 1.1704(3) 0.6401(4)
H35 H 1.2841 1.1950 0.6470
C89 C 1.4274(3) 0.72455(17) 0.2763(3)
C94 C 1.4280(3) 0.70300(19) 0.2048(3)
C95 C 1.4906(3) 0.71774(16) 0.3494(3)
H51 H 1.5333 0.6986 0.3546
Zn2 Zn 1.41656(3) 0.83417(2) 0.58424(3)
O7C O 1.37352(19) 0.78457(11) 0.63885(18)
O9C O 1.47900(17) 0.82707(13) 0.71024(16)
Zn2C Zn 1.41656(3) 0.66583(2) 0.08424(3)
N2 N 0.1546(2) 0.61596(14) -0.11673(17)
N5 N 0.0161(2) 0.60120(14) -0.10990(18)
N7 N 0.0666(2) 0.43561(16) -0.0858(2)
N9 N 0.2150(2) 0.45260(16) -0.0919(2)
O3 O 0.00863(17) 0.67616(12) -0.24139(15)
O4 O 0.11760(19) 0.71691(12) -0.17106(18)
O8 O 0.12075(17) 0.81150(12) -0.50672(14)
O10 O -0.00543(17) 0.79144(11) -0.57533(16)
C5 C 0.0631(3) 0.70531(18) -0.2354(3)
C6 C 0.0607(3) 0.72575(16) -0.3097(3)
C7 C 0.1259(3) 0.75195(18) -0.3049(3)
H3 H 0.1701 0.7564 -0.2567
C8 C 0.0604(3) 0.56275(18) -0.1066(2)
C9 C -0.0046(3) 0.74002(16) -0.4471(2)
H4 H -0.0491 0.7360 -0.4953
C11 C 0.1359(3) 0.57130(18) -0.1113(2)
C12 C 0.0598(3) 0.76624(16) -0.4427(2)
C13 C -0.0041(3) 0.71952(16) -0.3810(3)
H5 H -0.0476 0.7016 -0.3850
C15 C 0.0370(3) 0.51826(19) -0.1003(2)
C18 C -0.0368(3) 0.51261(19) -0.0969(2)
H7 H -0.0550 0.4830 -0.0928
C19 C -0.0818(3) 0.5511(2) -0.0997(2)
H8 H -0.1309 0.5479 -0.0977
C21 C -0.0532(3) 0.59514(19) -0.1058(2)
H10 H -0.0837 0.6211 -0.1070
C25 C 0.1181(3) 0.4007(2) -0.0800(3)
C26 C 0.0887(3) 0.47864(19) -0.0956(2)
C30 C 0.1250(3) 0.77131(18) -0.3711(3)
H14 H 0.1694 0.7882 -0.3674
C31 C 0.2446(4) 0.3716(2) -0.0735(3)
H15 H 0.2933 0.3767 -0.0756
C32 C 0.1860(3) 0.53436(18) -0.1078(2)
C35 C 0.1927(3) 0.4094(2) -0.0823(3)
C36 C 0.2237(3) 0.62543(18) -0.1197(2)
H16 H 0.2369 0.6563 -0.1231
C38 C 0.0991(3) 0.3547(2) -0.0675(3)
H18 H 0.0504 0.3487 -0.0659
C45 C 0.2584(3) 0.54485(19) -0.1121(2)
H22 H 0.2932 0.5212 -0.1113
C46 C 0.2766(3) 0.5906(2) -0.1177(2)
H23 H 0.3244 0.5982 -0.1202
C54 C 0.2247(4) 0.3282(2) -0.0620(4)
H29 H 0.2599 0.3039 -0.0568
C56 C 0.1516(4) 0.3187(2) -0.0576(4)
H31 H 0.1395 0.2886 -0.0482
C57 C 0.1639(3) 0.48674(19) -0.0990(2)
C91 C 0.0579(3) 0.79099(17) -0.5125(3)
Zn3 Zn 0.06811(3) 0.66557(2) -0.11998(3)
O8C O 0.12075(17) 0.68850(12) -0.00672(14)
O10C O -0.00543(17) 0.70856(11) -0.07533(16)
Zn3C Zn 0.06811(3) 0.83443(2) -0.61998(3)
N3 N 0.6751(2) 0.60507(14) 0.48789(18)
N4 N 0.8184(2) 0.60605(14) 0.48764(18)
N11 N 0.8364(3) 0.43862(18) 0.5089(2)
N12 N 0.6854(3) 0.43802(18) 0.5136(2)
O1 O 0.68895(17) 0.68515(11) 0.37055(14)
O2 O 0.81431(18) 0.70788(12) 0.43465(16)
O11 O 0.79903(17) 0.81117(11) 0.09419(15)
O12 O 0.67249(18) 0.79147(11) 0.03134(17)
C1 C 0.7471(3) 0.72664(15) 0.2990(2)
C2 C 0.8138(3) 0.74998(16) 0.3012(2)
H1 H 0.8606 0.7519 0.3480
C3 C 0.7509(3) 0.70542(16) 0.3730(3)
C4 C 0.6778(2) 0.72349(16) 0.2293(2)
H2 H 0.6331 0.7075 0.2273
C34 C 0.7104(3) 0.56353(18) 0.4935(2)
C43 C 0.7896(3) 0.56384(19) 0.4930(2)
C48 C 0.5647(3) 0.5654(2) 0.4923(3)
H25 H 0.5140 0.5670 0.4913
C49 C 0.6026(3) 0.60613(19) 0.4878(2)
H26 H 0.5774 0.6346 0.4847
C50 C 0.9339(3) 0.5681(2) 0.4892(3)
H27 H 0.9833 0.5703 0.4873
C51 C 0.6762(3) 0.52102(19) 0.4988(2)
C52 C 0.6000(3) 0.5236(2) 0.4981(3)
H28 H 0.5740 0.4966 0.5017
C53 C 0.8304(3) 0.52262(19) 0.4974(2)
C55 C 0.9045(3) 0.5257(2) 0.4958(3)
H30 H 0.9341 0.4989 0.4992
C59 C 0.8896(3) 0.60796(19) 0.4852(2)
H32 H 0.9100 0.6368 0.4808
C60 C 0.7949(3) 0.4781(2) 0.5039(2)
C64 C 0.7272(4) 0.3984(2) 0.5196(3)
C65 C 0.6948(4) 0.3551(2) 0.5293(3)
H36 H 0.6461 0.3543 0.5326
C66 C 0.7192(4) 0.4774(2) 0.5062(2)
C67 C 0.8023(4) 0.3985(2) 0.5167(3)
C68 C 0.8421(4) 0.3559(2) 0.5199(3)
H37 H 0.8903 0.3558 0.5156
C69 C 0.8105(5) 0.3156(3) 0.5293(4)
H38 H 0.8379 0.2878 0.5331
C70 C 0.7358(5) 0.3149(3) 0.5336(4)
H39 H 0.7145 0.2867 0.5394
C90 C 0.7409(3) 0.76772(15) 0.1642(2)
C92 C 0.8109(3) 0.77036(15) 0.2341(2)
H50 H 0.8559 0.7858 0.2357
C93 C 0.7376(3) 0.79132(17) 0.0924(3)
C96 C 0.6751(3) 0.74402(16) 0.1629(2)
H52 H 0.6282 0.7419 0.1163
Zn1 Zn 0.74422(3) 0.663277(18) 0.48392(3)
O11C O 0.79903(17) 0.68883(11) 0.59419(15)
O12C O 0.67249(18) 0.70853(11) 0.53134(17)
Zn1C Zn 0.74422(3) 0.836723(18) -0.01608(3)
N13 N 1.5539(2) 0.45610(16) 0.3115(2)
N14 N 1.7504(2) 0.55535(16) 0.2855(2)
N15 N 1.6551(2) 0.37822(16) 0.3272(2)
N16 N 1.8486(3) 0.48184(16) 0.3052(2)
C71 C 1.6248(3) 0.46054(19) 0.3085(2)
C72 C 1.6745(3) 0.4215(2) 0.3162(2)
C73 C 1.6035(3) 0.5461(2) 0.2908(2)
H40 H 1.5545 0.5429 0.2930
C74 C 1.7242(3) 0.51326(19) 0.2960(2)
C75 C 1.6506(3) 0.50695(18) 0.2982(2)
C76 C 1.7523(3) 0.4284(2) 0.3145(2)
C77 C 1.7027(3) 0.59174(19) 0.2781(2)
H41 H 1.7203 0.6209 0.2711
C78 C 1.5334(3) 0.4120(2) 0.3235(3)
C79 C 1.6282(3) 0.58912(19) 0.2803(2)
H42 H 1.5969 0.6155 0.2747
C80 C 1.5631(3) 0.3289(2) 0.3471(3)
H43 H 1.5972 0.3037 0.3539
C81 C 1.4598(3) 0.4054(2) 0.3285(3)
H44 H 1.4251 0.4302 0.3218
C82 C 1.4919(4) 0.3230(2) 0.3527(3)
H45 H 1.4772 0.2936 0.3626
C83 C 1.4413(4) 0.3615(3) 0.3435(4)
H46 H 1.3935 0.3569 0.3477
C84 C 1.7764(3) 0.4732(2) 0.3055(2)
C85 C 1.8045(3) 0.39118(19) 0.3239(2)
H47 H 1.7904 0.3609 0.3302
C86 C 1.8965(3) 0.4459(2) 0.3145(3)
H48 H 1.9463 0.4515 0.3151
C87 C 1.5837(3) 0.3734(2) 0.3310(3)
C88 C 1.8776(3) 0.4005(2) 0.3234(3)
H49 H 1.9136 0.3765 0.3291
N17 N 1.2615(2) 0.43718(17) 0.3014(2)
N18 N 1.0468(2) 0.53491(15) 0.2929(2)
N19 N 1.3499(3) 0.51265(17) 0.3036(2)
N20 N 1.1353(3) 0.61417(16) 0.2839(2)
C97 C 1.1528(3) 0.48517(18) 0.2979(2)
C98 C 1.2289(3) 0.47932(19) 0.2990(2)
C99 C 1.1629(3) 0.5709(2) 0.2887(2)
C100 C 1.1194(3) 0.53158(18) 0.2933(2)
C101 C 1.1112(3) 0.4447(2) 0.3007(2)
H53 H 1.0612 0.4471 0.3012
C102 C 1.2434(3) 0.5647(2) 0.2921(2)
C103 C 1.2752(3) 0.5202(2) 0.2979(2)
C104 C 1.3657(3) 0.5952(2) 0.2977(3)
H54 H 1.3982 0.6198 0.2975
C105 C 1.1440(3) 0.40219(19) 0.3026(2)
H55 H 1.1169 0.3751 0.3039
C106 C 1.2192(3) 0.4001(2) 0.3025(2)
H56 H 1.2413 0.3709 0.3033
C107 C 1.2897(3) 0.6029(2) 0.2926(3)
H57 H 1.2701 0.6330 0.2896
C108 C 1.0620(3) 0.6182(2) 0.2845(3)
C109 C 1.3918(3) 0.5499(3) 0.3032(3)
H58 H 1.4431 0.5450 0.3069
C110 C 1.0182(3) 0.5785(2) 0.2893(3)
C111 C 0.9428(3) 0.5857(2) 0.2907(3)
H59 H 0.9127 0.5604 0.2935
C112 C 0.9594(4) 0.6688(3) 0.2843(4)
H60 H 0.9393 0.6986 0.2840
C113 C 0.9153(4) 0.6296(3) 0.2879(4)
H61 H 0.8657 0.6340 0.2883
C114 C 1.0314(4) 0.6632(3) 0.2814(4)
H62 H 1.0598 0.6890 0.2773
loop_
_geom_bond_atom_site_label_1
_geom_bond_atom_site_label_2
_geom_bond_site_symmetry_1
_geom_bond_site_symmetry_2
N1 C14 1_555 1_555
N2 C11 1_555 1_555
N3 C34 1_555 1_555
N4 C43 1_555 1_555
N5 C8 1_555 1_555
N6 C10 1_555 1_555
N7 C25 1_555 1_555
N8 C27 1_555 1_555
N9 C35 1_555 1_555
N10 C40 1_555 1_555
N11 C60 1_555 1_555
N12 C64 1_555 1_555
N13 C71 1_555 1_555
N14 C74 1_555 1_555
N15 C72 1_555 1_555
N16 C84 1_555 1_555
N17 C98 1_555 1_555
N18 C100 1_555 1_555
N19 C103 1_555 1_555
N20 C99 1_555 1_555
O1 C3 1_555 1_555
O2 C3 1_555 1_555
O3 C5 1_555 1_555
O4 C5 1_555 1_555
O5 C24 1_555 1_555
O6 C24 1_555 1_555
O7 C94 1_555 1_555
O8 C91 1_555 1_555
O9 C94 1_555 1_555
O10 C91 1_555 1_555
O11 C93 1_555 1_555
O12 C93 1_555 1_555
C1 C2 1_555 1_555
C2 H1 1_555 1_555
C3 C1 1_555 1_555
C4 C1 1_555 1_555
H2 C4 1_555 1_555
C5 C6 1_555 1_555
C6 C7 1_555 1_555
C7 H3 1_555 1_555
C8 C11 1_555 1_555
C9 H4 1_555 1_555
C10 C14 1_555 1_555
C11 C32 1_555 1_555
C12 C9 1_555 1_555
C13 C6 1_555 1_555
H5 C13 1_555 1_555
C14 C33 1_555 1_555
C15 C8 1_555 1_555
C16 C10 1_555 1_555
C17 N1 1_555 1_555
H6 C17 1_555 1_555
C18 C15 1_555 1_555
H7 C18 1_555 1_555
C19 C18 1_555 1_555
H8 C19 1_555 1_555
C20 C16 1_555 1_555
H9 C20 1_555 1_555
C21 N5 1_555 1_555
H10 C21 1_555 1_555
C22 N6 1_555 1_555
H11 C22 1_555 1_555
C23 C20 1_555 1_555
H12 C23 1_555 1_555
C24 C29 1_555 1_555
C25 C35 1_555 1_555
C26 N7 1_555 1_555
C27 C16 1_555 1_555
C28 H13 1_555 1_555
C29 C28 1_555 1_555
C30 C7 1_555 1_555
H14 C30 1_555 1_555
C31 H15 1_555 1_555
C32 C45 1_555 1_555
C33 C44 1_555 1_555
C34 C43 1_555 1_555
C35 C31 1_555 1_555
C36 N2 1_555 1_555
H16 C36 1_555 1_555
C37 C29 1_555 1_555
H17 C37 1_555 1_555
C38 C25 1_555 1_555
H18 C38 1_555 1_555
C39 N8 1_555 1_555
C40 C39 1_555 1_555
C41 C40 1_555 1_555
H19 C41 1_555 1_555
C42 C37 1_555 1_555
H20 C42 1_555 1_555
C43 C53 1_555 1_555
C44 H21 1_555 1_555
C45 H22 1_555 1_555
C46 C36 1_555 1_555
H23 C46 1_555 1_555
C47 C17 1_555 1_555
H24 C47 1_555 1_555
C48 H25 1_555 1_555
C49 N3 1_555 1_555
H26 C49 1_555 1_555
C50 H27 1_555 1_555
C51 C34 1_555 1_555
C52 C48 1_555 1_555
H28 C52 1_555 1_555
C53 C55 1_555 1_555
C54 C31 1_555 1_555
H29 C54 1_555 1_555
C55 C50 1_555 1_555
H30 C55 1_555 1_555
C56 C38 1_555 1_555
H31 C56 1_555 1_555
C57 N9 1_555 1_555
C58 N10 1_555 1_555
C59 N4 1_555 1_555
H32 C59 1_555 1_555
C60 C53 1_555 1_555
C61 H33 1_555 1_555
C62 C39 1_555 1_555
H34 C62 1_555 1_555
C63 C41 1_555 1_555
H35 C63 1_555 1_555
C64 C65 1_555 1_555
C65 H36 1_555 1_555
C66 N12 1_555 1_555
C67 N11 1_555 1_555
C68 C67 1_555 1_555
H37 C68 1_555 1_555
C69 C68 1_555 1_555
H38 C69 1_555 1_555
C70 C65 1_555 1_555
H39 C70 1_555 1_555
C71 C72 1_555 1_555
C72 C76 1_555 1_555
C73 H40 1_555 1_555
C74 C75 1_555 1_555
C75 C71 1_555 1_555
C76 C84 1_555 1_555
C77 N14 1_555 1_555
H41 C77 1_555 1_555
C78 N13 1_555 1_555
C79 C73 1_555 1_555
H42 C79 1_555 1_555
C80 H43 1_555 1_555
C81 C78 1_555 1_555
H44 C81 1_555 1_555
C82 C80 1_555 1_555
H45 C82 1_555 1_555
C83 C81 1_555 1_555
H46 C83 1_555 1_555
C84 C74 1_555 1_555
C85 C76 1_555 1_555
H47 C85 1_555 1_555
C86 N16 1_555 1_555
H48 C86 1_555 1_555
C87 N15 1_555 1_555
C88 C85 1_555 1_555
H49 C88 1_555 1_555
C89 C42 1_555 1_555
C90 C92 1_555 1_555
C91 C12 1_555 1_555
C92 C2 1_555 1_555
H50 C92 1_555 1_555
C93 C90 1_555 1_555
C94 C89 1_555 1_555
C95 C28 1_555 1_555
H51 C95 1_555 1_555
C96 C4 1_555 1_555
H52 C96 1_555 1_555
C97 C98 1_555 1_555
C98 C103 1_555 1_555
C99 C100 1_555 1_555
C100 C97 1_555 1_555
C101 C97 1_555 1_555
H53 C101 1_555 1_555
C102 C99 1_555 1_555
C103 C102 1_555 1_555
C104 H54 1_555 1_555
C105 C101 1_555 1_555
H55 C105 1_555 1_555
C106 N17 1_555 1_555
H56 C106 1_555 1_555
C107 C102 1_555 1_555
H57 C107 1_555 1_555
C108 N20 1_555 1_555
C109 N19 1_555 1_555
H58 C109 1_555 1_555
C110 N18 1_555 1_555
C111 C110 1_555 1_555
H59 C111 1_555 1_555
C112 H60 1_555 1_555
C113 C111 1_555 1_555
H61 C113 1_555 1_555
C114 C108 1_555 1_555
H62 C114 1_555 1_555
Zn1 N3 1_555 1_555
Zn2 N1 1_555 1_555
Zn3 N2 1_555 1_555
O7C Zn2 1_555 1_555
O8C Zn3 1_555 1_555
O9C Zn2 1_555 1_555
O10C Zn3 1_555 1_555
O11C Zn1 1_555 1_555
O12C Zn1 1_555 1_555
Zn1C O11 1_555 1_555
Zn2C O7 1_555 1_555
Zn3C O8 1_555 1_555
N4 Zn1 1_555 1_555
N5 Zn3 1_555 1_555
N6 Zn2 1_555 1_555
O1 Zn1 1_555 1_555
O2 Zn1 1_555 1_555
O3 Zn3 1_555 1_555
O4 Zn3 1_555 1_555
O5 Zn2 1_555 1_555
O6 Zn2 1_555 1_555
O9 Zn2C 1_555 1_555
O10 Zn3C 1_555 1_555
O12 Zn1C 1_555 1_555
C9 C13 1_555 1_555
C12 C30 1_555 1_555
C15 C26 1_555 1_555
C19 C21 1_555 1_555
C22 C23 1_555 1_555
C26 C57 1_555 1_555
C27 C58 1_555 1_555
C32 C57 1_555 1_555
C33 C58 1_555 1_555
C44 C47 1_555 1_555
C45 C46 1_555 1_555
C48 C49 1_555 1_555
C50 C59 1_555 1_555
C51 C52 1_555 1_555
C51 C66 1_555 1_555
C54 C56 1_555 1_555
C60 C66 1_555 1_555
C61 C62 1_555 1_555
C61 C63 1_555 1_555
C64 C67 1_555 1_555
C69 C70 1_555 1_555
C73 C75 1_555 1_555
C77 C79 1_555 1_555
C78 C87 1_555 1_555
C80 C87 1_555 1_555
C82 C83 1_555 1_555
C86 C88 1_555 1_555
C89 C95 1_555 1_555
C90 C96 1_555 1_555
C104 C107 1_555 1_555
C104 C109 1_555 1_555
C105 C106 1_555 1_555
C108 C110 1_555 1_555
C112 C113 1_555 1_555
C112 C114 1_555 1_555

#END
