
#######################################################################
#
#                 Cambridge Crystallographic Data Centre
#                                CCDC 
#
#######################################################################
#
# If this CIF has been generated from an entry in the Cambridge 
# Structural Database, then it will include bibliographic, chemical, 
# crystal, experimental, refinement or atomic coordinate data resulting 
# from the CCDC's data processing and validation procedures.
#
#######################################################################

data_GEVGUL
_symmetry_cell_setting           monoclinic
_symmetry_space_group_name_H-M   'P 21/n'
_symmetry_Int_Tables_number      14
_space_group_name_Hall           '-P 2yn'
loop_
_symmetry_equiv_pos_site_id
_symmetry_equiv_pos_as_xyz
1 x,y,z
2 1/2-x,1/2+y,1/2-z
3 -x,-y,-z
4 1/2+x,1/2-y,1/2+z
_cell_length_a                   14.8991(15)
_cell_length_b                   11.3688(12)
_cell_length_c                   17.9705(18)
_cell_angle_alpha                90
_cell_angle_beta                 90.782(2)
_cell_angle_gamma                90
_cell_volume                     3043.65
loop_
_atom_site_label
_atom_site_type_symbol
_atom_site_fract_x
_atom_site_fract_y
_atom_site_fract_z
Co1 Co 0.00188(5) 0.68401(6) 0.19163(4)
Co2 Co 0.24840(5) 0.00649(7) 0.50976(5)
O1 O -0.1019(3) 0.7311(4) 0.2663(2)
O2 O 0.0932(3) 0.6309(4) 0.1145(2)
O3 O 0.1127(3) 0.7234(4) 0.2596(3)
O4 O -0.0982(3) 0.6385(4) 0.1214(2)
O5 O -0.1477(4) 1.3960(5) 0.0388(3)
O6 O -0.2279(4) 1.2407(7) 0.0650(5)
O7 O 0.1645(7) 1.3906(6) 0.0246(8)
O8 O 0.2519(7) 1.2462(14) 0.0648(15)
O9 O 0.1547(3) 0.0595(5) 0.4422(3)
O10 O 0.2362(3) 0.1561(6) 0.3615(3)
O11 O -0.1679(3) 0.0491(4) 0.4150(3)
O12 O -0.2383(3) 0.1782(6) 0.3440(4)
N1 N 0.0022(3) 0.5366(4) 0.2688(2)
N2 N 0.0061(4) 0.8769(4) 0.1876(2)
C1 C -0.1131(6) 0.6541(7) 0.3282(5)
C2 C -0.0857(5) 0.5406(6) 0.3077(4)
C3 C 0.0776(5) 0.5519(6) 0.3232(4)
C4 C 0.1512(5) 0.6230(6) 0.2939(4)
C5 C 0.1520(7) 0.8303(8) 0.2495(7)
C6 C 0.0778(7) 0.9200(7) 0.2346(6)
C7 C -0.0857(8) 0.9153(7) 0.2160(5)
C8 C -0.1115(7) 0.8509(7) 0.2843(6)
C9 C 0.0127(5) 0.9123(5) 0.1078(3)
C10 C 0.0115(4) 1.0438(5) 0.0924(3)
C11 C -0.0681(4) 1.1046(5) 0.0842(3)
C12 C -0.0692(5) 1.2248(5) 0.0688(3)
C13 C -0.1563(5) 1.2894(7) 0.0583(4)
C14 C 0.0121(5) 1.2827(5) 0.0602(3)
C15 C 0.0918(4) 1.2240(5) 0.0669(3)
C16 C 0.1791(5) 1.2879(6) 0.0531(4)
C17 C 0.0917(4) 1.1038(5) 0.0832(3)
C18 C 0.0094(4) 0.4248(5) 0.2256(3)
C19 C 0.0056(4) 0.3157(4) 0.2719(3)
C20 C 0.0833(4) 0.2650(5) 0.3007(3)
C21 C 0.0803(4) 0.1738(5) 0.3521(3)
C22 C 0.1646(4) 0.1253(5) 0.3864(4)
C23 C -0.0025(4) 0.1299(5) 0.3740(3)
C24 C -0.0809(4) 0.1757(4) 0.3428(3)
C25 C -0.1707(4) 0.1320(5) 0.3683(4)
C26 C -0.0769(4) 0.2671(5) 0.2918(3)
H1 H -0.095(3) 0.607(6) 0.0705(15)
H2 H 0.05460 0.58990 0.36870
H3 H -0.08140 0.49130 0.35310
H4 H -0.1611(16) 0.658(6) 0.126(3)
H5 H 0.19250 0.64690 0.33480
H6 H 0.18550 0.57710 0.25720
H7 H 0.05250 0.94480 0.28280
H8 H 0.10440 0.99040 0.21110
H9 H 0.19320 0.82710 0.20680
H10 H 0.10120 0.47350 0.33740
H11 H 0.06900 0.87940 0.08780
H12 H 0.18710 0.85270 0.29440
H13 H -0.12330 1.06370 0.08900
H14 H -0.08430 1.00070 0.22670
H15 H -0.13160 0.90150 0.17660
H16 H 0.01230 1.36450 0.04940
H17 H 0.14710 1.06280 0.08810
H18 H -0.07160 0.87240 0.32660
H19 H -0.17430 0.86880 0.29760
H20 H 0.06680 0.42530 0.19840
H21 H -0.03990 0.42220 0.18820
H22 H 0.13990 0.29330 0.28480
H23 H -0.00530 0.06890 0.41000
H24 H -0.13070 0.29690 0.27010
H25 H -0.03780 0.87570 0.07980
H26 H 0.075(5) 0.598(8) 0.065(3)
H27 H -0.07660 0.68210 0.37100
H28 H -0.17680 0.65290 0.34300
H29 H 0.1606(15) 0.638(11) 0.118(5)
H30 H -0.13230 0.50570 0.27480
Co2A Co 0.25160(5) 1.50649(7) -0.00976(5)
Co2B Co -0.24840(5) -0.00649(7) 0.49024(5)
Co2C Co -0.25160(5) 1.49351(7) 0.00976(5)
O5C O 0.3523(4) 0.1040(5) 0.5388(3)
O7A O 0.3355(7) -0.1094(6) 0.4754(8)
O11B O 0.1679(3) -0.0491(4) 0.5850(3)
O15 O -0.4848(7) 1.1060(10) -0.0219(6)
O16 O 0.0690(5) 0.8003(7) 0.4522(4)
O19 O -0.2866(12) 1.0871(16) -0.0385(9)
O20 O -0.2472(10) 0.9209(14) 0.0813(8)
O13? O 0.240(2) 1.219(4) 0.048(5)
C27? C 0.1148(18) 0.842(2) 0.2842(13)
C28? C 0.111(2) 0.905(2) 0.2093(13)
C29? C -0.046(3) 0.925(4) 0.235(2)
C30? C -0.122(3) 0.866(4) 0.245(3)
O14? O 0.183(2) 1.4012(7) 0.050(2)
H31? H -0.15980 0.86910 0.19970
H32? H -0.15610 0.90310 0.28620
H33? H 0.17080 0.86010 0.31220
H34? H 0.06240 0.86110 0.31520
H35? H 0.15290 0.87050 0.17310
H36? H 0.12230 0.99040 0.21430
H37? H -0.06050 1.00550 0.21740
H38? H -0.01310 0.93210 0.28290
O17? O -0.321(3) 0.929(4) 0.028(2)
O18? O -0.328(3) 1.037(4) -0.014(2)
loop_
_geom_bond_atom_site_label_1
_geom_bond_atom_site_label_2
_geom_bond_site_symmetry_1
_geom_bond_site_symmetry_2
Co1 O1 1_555 1_555
Co2 O9 1_555 1_555
O1 C1 1_555 1_555
O2 Co1 1_555 1_555
O3 Co1 1_555 1_555
O4 Co1 1_555 1_555
O5 C13 1_555 1_555
O6 C13 1_555 1_555
O7 C16 1_555 1_555
O8 C16 1_555 1_555
O9 C22 1_555 1_555
O10 C22 1_555 1_555
O11 C25 1_555 1_555
O12 C25 1_555 1_555
N1 Co1 1_555 1_555
N2 Co1 1_555 1_555
C1 C2 1_555 1_555
C2 N1 1_555 1_555
C3 N1 1_555 1_555
C4 O3 1_555 1_555
C5 O3 1_555 1_555
C6 N2 1_555 1_555
C7 N2 1_555 1_555
C8 O1 1_555 1_555
C9 N2 1_555 1_555
C10 C9 1_555 1_555
C11 C10 1_555 1_555
C12 C11 1_555 1_555
C13 C12 1_555 1_555
C14 C12 1_555 1_555
C15 C14 1_555 1_555
C16 C15 1_555 1_555
C17 C10 1_555 1_555
C18 N1 1_555 1_555
C19 C18 1_555 1_555
C20 C19 1_555 1_555
C21 C20 1_555 1_555
C22 C21 1_555 1_555
C23 C21 1_555 1_555
C24 C23 1_555 1_555
C25 C24 1_555 1_555
C26 C19 1_555 1_555
H1 O4 1_555 1_555
H2 C3 1_555 1_555
H3 C2 1_555 1_555
H4 O4 1_555 1_555
H5 C4 1_555 1_555
H6 C4 1_555 1_555
H7 C6 1_555 1_555
H8 C6 1_555 1_555
H9 C5 1_555 1_555
H10 C3 1_555 1_555
H11 C9 1_555 1_555
H12 C5 1_555 1_555
H13 C11 1_555 1_555
H14 C7 1_555 1_555
H15 C7 1_555 1_555
H16 C14 1_555 1_555
H17 C17 1_555 1_555
H18 C8 1_555 1_555
H19 C8 1_555 1_555
H20 C18 1_555 1_555
H21 C18 1_555 1_555
H22 C20 1_555 1_555
H23 C23 1_555 1_555
H24 C26 1_555 1_555
H25 C9 1_555 1_555
H26 O2 1_555 1_555
H27 C1 1_555 1_555
H28 C1 1_555 1_555
H29 O2 1_555 1_555
H30 C2 1_555 1_555
Co2A O7 1_555 1_555
Co2B O11 1_555 1_555
Co2C O5 1_555 1_555
O5C Co2 1_555 1_555
O7A Co2 1_555 1_555
O11B Co2 1_555 1_555
C3 C4 1_555 1_555
C5 C6 1_555 1_555
C7 C8 1_555 1_555
C15 C17 1_555 1_555
C24 C26 1_555 1_555

#END
