
#######################################################################
#
#                 Cambridge Crystallographic Data Centre
#                                CCDC 
#
#######################################################################
#
# If this CIF has been generated from an entry in the Cambridge 
# Structural Database, then it will include bibliographic, chemical, 
# crystal, experimental, refinement or atomic coordinate data resulting 
# from the CCDC's data processing and validation procedures.
#
#######################################################################

data_GEVHOG
_symmetry_cell_setting           triclinic
_symmetry_space_group_name_H-M   'P -1'
_symmetry_Int_Tables_number      2
_space_group_name_Hall           '-P 1'
loop_
_symmetry_equiv_pos_site_id
_symmetry_equiv_pos_as_xyz
1 x,y,z
2 -x,-y,-z
_cell_length_a                   9.3760(10)
_cell_length_b                   9.4512(11)
_cell_length_c                   10.7168(12)
_cell_angle_alpha                66.045(2)
_cell_angle_beta                 67.047(2)
_cell_angle_gamma                88.791(2)
_cell_volume                     788.452
loop_
_atom_site_label
_atom_site_type_symbol
_atom_site_fract_x
_atom_site_fract_y
_atom_site_fract_z
Co1 Co 0.62039(3) 0.67499(2) 0.24270(2)
O1 O 0.61331(15) 0.42716(13) 0.31843(13)
O2 O 0.57146(14) 0.34751(13) 0.55715(13)
O3 O 0.39810(15) 0.08710(13) 0.82975(13)
O4 O 0.62583(17) 0.00073(16) 0.77907(15)
N1 N 0.44490(17) 0.64852(17) 0.16795(16)
N2 N 0.37059(19) 0.76579(18) 0.11565(19)
H1 H 0.3818 0.8558 0.1158
N3 N 0.80445(17) 0.72078(17) 0.03301(17)
N4 N 0.7998(2) 0.79793(18) -0.10153(17)
H2 H 0.7214 0.8401 -0.1144
N5 N 0.78496(18) 0.70537(17) 0.32596(17)
N6 N 0.78714(19) 0.60192(18) 0.45483(18)
H3 H 0.7253 0.5133 0.5118
C1 C 0.2776(2) 0.7269(2) 0.0635(2)
H4 H 0.2156 0.7904 0.0223
C2 C 0.2902(3) 0.5780(2) 0.0818(3)
H5 H 0.2395 0.5182 0.0559
C3 C 0.3949(2) 0.5338(2) 0.1475(2)
H6 H 0.4260 0.4356 0.1738
C4 C 0.9317(3) 0.8009(3) -0.2124(2)
H7 H 0.9544 0.8482 -0.3143
C5 C 1.0275(3) 0.7222(3) -0.1494(3)
H8 H 1.1276 0.7044 -0.1983
C6 C 0.9435(2) 0.6747(2) 0.0026(2)
H9 H 0.9798 0.6176 0.0748
C7 C 0.8965(3) 0.6524(3) 0.4845(3)
H10 H 0.9180 0.5996 0.5681
C8 C 0.9704(3) 0.7950(3) 0.3700(3)
H11 H 1.0529 0.8595 0.3580
C9 C 0.8964(3) 0.8238(2) 0.2746(2)
H12 H 0.9217 0.9147 0.1861
C10 C 0.53465(19) 0.15454(18) 0.47876(18)
C11 C 0.50530(19) 0.02758(18) 0.61740(18)
C12 C 0.5285(2) 0.12342(19) 0.36479(19)
C13 C 0.57535(19) 0.32195(18) 0.44898(18)
C14 C 0.5111(2) 0.04228(18) 0.75086(18)
H13 H 0.549(2) 0.209(2) 0.271(2)
O1A O 0.38669(15) -0.42716(13) 0.68157(13)
O2A O 0.42854(14) -0.34751(13) 0.44285(13)
O3A O 0.60190(15) -0.08710(13) 0.17025(13)
O4A O 0.37417(17) -0.00073(16) 0.22093(15)
C10A C 0.46535(19) -0.15454(18) 0.52124(18)
C11A C 0.49470(19) -0.02758(18) 0.38260(18)
C12A C 0.4715(2) -0.12342(19) 0.63521(19)
C13A C 0.42465(19) -0.32195(18) 0.55102(18)
C14A C 0.4889(2) -0.04228(18) 0.24914(18)
H13A H 0.451(2) -0.209(2) 0.729(2)
Co1A Co 0.37961(3) -0.67499(2) 0.75730(2)
N1A N 0.55510(17) -0.64852(17) 0.83205(16)
N2A N 0.62941(19) -0.76579(18) 0.88435(19)
H1A H 0.6182 -0.8558 0.8842
N3A N 0.19555(17) -0.72078(17) 0.96699(17)
N4A N 0.2002(2) -0.79793(18) 1.10153(17)
H2A H 0.2786 -0.8401 1.1144
N5A N 0.21504(18) -0.70537(17) 0.67404(17)
N6A N 0.21286(19) -0.60192(18) 0.54517(18)
H3A H 0.2747 -0.5133 0.4882
C1A C 0.7224(2) -0.7269(2) 0.9365(2)
H4A H 0.7844 -0.7904 0.9777
C2A C 0.7098(3) -0.5780(2) 0.9182(3)
H5A H 0.7605 -0.5182 0.9441
C3A C 0.6051(2) -0.5338(2) 0.8525(2)
H6A H 0.5740 -0.4356 0.8262
C4A C 0.0683(3) -0.8009(3) 1.2124(2)
H7A H 0.0456 -0.8482 1.3143
C5A C -0.0275(3) -0.7222(3) 1.1494(3)
H8A H -0.1276 -0.7044 1.1983
C6A C 0.0565(2) -0.6747(2) 0.9974(2)
H9A H 0.0202 -0.6176 0.9252
C7A C 0.1035(3) -0.6524(3) 0.5155(3)
H10A H 0.0820 -0.5996 0.4319
C8A C 0.0296(3) -0.7950(3) 0.6300(3)
H11A H -0.0529 -0.8595 0.6420
C9A C 0.1036(3) -0.8238(2) 0.7254(2)
H12A H 0.0783 -0.9147 0.8139
Co1_2 Co 0.62039(3) -0.32501(2) 0.24270(2)
Co1A_2 Co 0.37961(3) 0.32501(2) 0.75730(2)
O2_2 O 0.57146(14) -0.65249(13) 0.55715(13)
O2A_2 O 0.42854(14) 0.65249(13) 0.44285(13)
O3_2 O 0.39810(15) -0.91290(13) 0.82975(13)
O3A_2 O 0.60190(15) 0.91290(13) 0.17025(13)
loop_
_geom_bond_atom_site_label_1
_geom_bond_atom_site_label_2
_geom_bond_site_symmetry_1
_geom_bond_site_symmetry_2
Co1 O1 1_555 1_555
O1 C13 1_555 1_555
O2 C13 1_555 1_555
O3 C14 1_555 1_555
O4 C14 1_555 1_555
N1 Co1 1_555 1_555
N2 N1 1_555 1_555
H1 N2 1_555 1_555
N3 Co1 1_555 1_555
N4 N3 1_555 1_555
H2 N4 1_555 1_555
N5 Co1 1_555 1_555
N6 N5 1_555 1_555
H3 N6 1_555 1_555
C1 N2 1_555 1_555
H4 C1 1_555 1_555
C2 C1 1_555 1_555
H5 C2 1_555 1_555
C3 N1 1_555 1_555
H6 C3 1_555 1_555
C4 N4 1_555 1_555
H7 C4 1_555 1_555
C5 C4 1_555 1_555
H8 C5 1_555 1_555
C6 N3 1_555 1_555
H9 C6 1_555 1_555
C7 N6 1_555 1_555
H10 C7 1_555 1_555
C8 C7 1_555 1_555
H11 C8 1_555 1_555
C9 N5 1_555 1_555
H12 C9 1_555 1_555
C10 C11 1_555 1_555
C11 C14 1_555 1_555
C12 C10 1_555 1_555
C13 C10 1_555 1_555
H13 C12 1_555 1_555
O1A C13A 1_555 1_555
O2A C13A 1_555 1_555
O3A C14A 1_555 1_555
O4A C14A 1_555 1_555
C10A C11A 1_555 1_555
C11A C12 1_555 1_555
C12A C11 1_555 1_555
C13A C10A 1_555 1_555
C14A C11A 1_555 1_555
H13A C12A 1_555 1_555
Co1A O1A 1_555 1_555
N1A Co1A 1_555 1_555
N2A N1A 1_555 1_555
H1A N2A 1_555 1_555
N3A Co1A 1_555 1_555
N4A N3A 1_555 1_555
H2A N4A 1_555 1_555
N5A Co1A 1_555 1_555
N6A N5A 1_555 1_555
H3A N6A 1_555 1_555
C1A N2A 1_555 1_555
H4A C1A 1_555 1_555
C2A C1A 1_555 1_555
H5A C2A 1_555 1_555
C3A N1A 1_555 1_555
H6A C3A 1_555 1_555
C4A N4A 1_555 1_555
H7A C4A 1_555 1_555
C5A C4A 1_555 1_555
H8A C5A 1_555 1_555
C6A N3A 1_555 1_555
H9A C6A 1_555 1_555
C7A N6A 1_555 1_555
H10A C7A 1_555 1_555
C8A C7A 1_555 1_555
H11A C8A 1_555 1_555
C9A N5A 1_555 1_555
H12A C9A 1_555 1_555
Co1_2 O2A 1_555 1_555
Co1A_2 O2 1_555 1_555
O2_2 Co1A 1_555 1_555
O2A_2 Co1 1_555 1_555
O3_2 Co1A 1_555 1_555
O3A_2 Co1 1_555 1_555
O3 Co1A_2 1_555 1_555
C2 C3 1_555 1_555
C5 C6 1_555 1_555
C8 C9 1_555 1_555
O3A Co1_2 1_555 1_555
C10A C12A 1_555 1_555
C2A C3A 1_555 1_555
C5A C6A 1_555 1_555
C8A C9A 1_555 1_555

#END
