
#######################################################################
#
#                 Cambridge Crystallographic Data Centre
#                                CCDC 
#
#######################################################################
#
# If this CIF has been generated from an entry in the Cambridge 
# Structural Database, then it will include bibliographic, chemical, 
# crystal, experimental, refinement or atomic coordinate data resulting 
# from the CCDC's data processing and validation procedures.
#
#######################################################################

data_GEVHUM
_symmetry_cell_setting           monoclinic
_symmetry_space_group_name_H-M   'P 21/n'
_symmetry_Int_Tables_number      14
_space_group_name_Hall           '-P 2yn'
loop_
_symmetry_equiv_pos_site_id
_symmetry_equiv_pos_as_xyz
1 x,y,z
2 1/2-x,1/2+y,1/2-z
3 -x,-y,-z
4 1/2+x,1/2-y,1/2+z
_cell_length_a                   8.8381(12)
_cell_length_b                   15.262(2)
_cell_length_c                   10.3168(13)
_cell_angle_alpha                90
_cell_angle_beta                 106.170(2)
_cell_angle_gamma                90
_cell_volume                     1336.55
loop_
_atom_site_label
_atom_site_type_symbol
_atom_site_fract_x
_atom_site_fract_y
_atom_site_fract_z
Co1 Co 0.78208(7) 0.17889(4) 1.02219(5)
C1 C 1.2388(10) 0.2377(7) 1.0233(7)
H1 H 1.3459 0.2397 1.0675
C2 C 1.1760(9) 0.2577(6) 0.8992(8)
H2 H 1.2264 0.2774 0.8366
C3 C 1.0175(9) 0.2435(6) 0.8793(7)
H3 H 0.9420 0.2527 0.7975
C4 C 0.6388(8) -0.0089(6) 0.7282(8)
H4 H 0.6613 -0.0574 0.6822
C5 C 0.4972(9) 0.0322(6) 0.7065(9)
H5 H 0.4038 0.0184 0.6417
C6 C 0.5212(9) 0.0981(6) 0.8003(8)
H6 H 0.4435 0.1367 0.8096
C7 C 0.6233(6) 0.3312(3) 0.9530(5)
C8 C 0.5511(5) 0.4164(3) 0.9755(4)
C9 C 0.4698(5) 0.4697(3) 0.8668(4)
C10 C 0.5777(5) 0.4474(3) 1.1062(4)
H7 H 0.6290 0.4116 1.1779
N1 N 0.9846(6) 0.2153(3) 0.9892(4)
N2 N 1.1255(7) 0.2136(5) 1.0788(6)
H8 H 1.1418 0.1988 1.1620
N3 N 0.6677(5) 0.0996(3) 0.8750(5)
N4 N 0.7367(6) 0.0334(3) 0.8265(5)
H9 H 0.8349 0.0204 0.8569
O1 O 0.6432(4) 0.2742(2) 1.0466(3)
O2 O 0.6686(5) 0.3213(2) 0.8503(4)
C11 C 0.4215(5) 0.4368(3) 0.7240(4)
O3 O 0.3389(4) 0.3670(2) 0.7049(3)
O4 O 0.4547(4) 0.4782(2) 0.6333(3)
C7B C 0.3767(6) 0.6688(3) 1.0470(5)
C8B C 0.4489(5) 0.5836(3) 1.0245(4)
C9B C 0.5302(5) 0.5303(3) 1.1332(4)
C10B C 0.4223(5) 0.5526(3) 0.8938(4)
H7B H 0.3710 0.5884 0.8221
O1B O 0.3568(4) 0.7258(2) 0.9534(3)
O2B O 0.3314(5) 0.6787(2) 1.1497(4)
C11B C 0.5785(5) 0.5632(3) 1.2760(4)
O3B O 0.6611(4) 0.6330(2) 1.2951(3)
O4B O 0.5453(4) 0.5218(2) 1.3667(3)
Co1B Co 0.21792(7) 0.82111(4) 0.97781(5)
C1B C -0.2388(10) 0.7623(7) 0.9767(7)
H1B H -0.3459 0.7603 0.9325
C2B C -0.1760(9) 0.7423(6) 1.1008(8)
H2B H -0.2264 0.7226 1.1634
C3B C -0.0175(9) 0.7565(6) 1.1207(7)
H3B H 0.0580 0.7473 1.2025
C4B C 0.3612(8) 1.0089(6) 1.2718(8)
H4B H 0.3387 1.0574 1.3178
C5B C 0.5028(9) 0.9678(6) 1.2935(9)
H5B H 0.5962 0.9816 1.3583
C6B C 0.4788(9) 0.9019(6) 1.1997(8)
H6B H 0.5565 0.8633 1.1904
N1B N 0.0154(6) 0.7847(3) 1.0108(4)
N2B N -0.1255(7) 0.7864(5) 0.9212(6)
H8B H -0.1418 0.8012 0.8380
N3B N 0.3323(5) 0.9004(3) 1.1250(5)
N4B N 0.2633(6) 0.9666(3) 1.1735(5)
H9B H 0.1651 0.9796 1.1431
Co1A Co 0.71792(7) 0.67889(4) 1.47781(5)
Co1C Co 0.28208(7) 0.32111(4) 0.52219(5)
O3A O 0.1611(4) 0.8670(2) 0.7951(3)
O3C O 0.8389(4) 0.1330(2) 1.2049(3)
loop_
_geom_bond_atom_site_label_1
_geom_bond_atom_site_label_2
_geom_bond_site_symmetry_1
_geom_bond_site_symmetry_2
Co1 N1 1_555 1_555
C1 H1 1_555 1_555
C2 C1 1_555 1_555
H2 C2 1_555 1_555
C3 C2 1_555 1_555
H3 C3 1_555 1_555
C4 H4 1_555 1_555
C5 C4 1_555 1_555
H5 C5 1_555 1_555
C6 C5 1_555 1_555
H6 C6 1_555 1_555
C7 C8 1_555 1_555
C8 C9 1_555 1_555
C9 C11 1_555 1_555
C10 C8 1_555 1_555
H7 C10 1_555 1_555
N1 C3 1_555 1_555
N2 C1 1_555 1_555
H8 N2 1_555 1_555
N3 Co1 1_555 1_555
N4 C4 1_555 1_555
H9 N4 1_555 1_555
O1 Co1 1_555 1_555
O2 C7 1_555 1_555
C11 O3 1_555 1_555
O3 Co1C 1_555 1_555
O4 C11 1_555 1_555
C7B C8B 1_555 1_555
C8B C9B 1_555 1_555
C9B C10 1_555 1_555
C10B C9 1_555 1_555
H7B C10B 1_555 1_555
O1B C7B 1_555 1_555
O2B C7B 1_555 1_555
C11B C9B 1_555 1_555
O3B C11B 1_555 1_555
O4B C11B 1_555 1_555
Co1B O1B 1_555 1_555
C1B H1B 1_555 1_555
C2B C1B 1_555 1_555
H2B C2B 1_555 1_555
C3B C2B 1_555 1_555
H3B C3B 1_555 1_555
C4B H4B 1_555 1_555
C5B C4B 1_555 1_555
H5B C5B 1_555 1_555
C6B C5B 1_555 1_555
H6B C6B 1_555 1_555
N1B Co1B 1_555 1_555
N2B C1B 1_555 1_555
H8B N2B 1_555 1_555
N3B Co1B 1_555 1_555
N4B C4B 1_555 1_555
H9B N4B 1_555 1_555
Co1A O3B 1_555 1_555
O3A Co1B 1_555 1_555
O3C Co1 1_555 1_555
C6 N3 1_555 1_555
C7 O1 1_555 1_555
N1 N2 1_555 1_555
N3 N4 1_555 1_555
C8B C10B 1_555 1_555
C3B N1B 1_555 1_555
C6B N3B 1_555 1_555
N1B N2B 1_555 1_555
N3B N4B 1_555 1_555

#END
