
#######################################################################
#
#                 Cambridge Crystallographic Data Centre
#                                CCDC 
#
#######################################################################
#
# If this CIF has been generated from an entry in the Cambridge 
# Structural Database, then it will include bibliographic, chemical, 
# crystal, experimental, refinement or atomic coordinate data resulting 
# from the CCDC's data processing and validation procedures.
#
#######################################################################

data_GEVJEX
_symmetry_cell_setting           triclinic
_symmetry_space_group_name_H-M   'P -1'
_symmetry_Int_Tables_number      2
_space_group_name_Hall           '-P 1'
loop_
_symmetry_equiv_pos_site_id
_symmetry_equiv_pos_as_xyz
1 x,y,z
2 -x,-y,-z
_cell_length_a                   7.622(5)
_cell_length_b                   8.714(5)
_cell_length_c                   11.082(5)
_cell_angle_alpha                94.120(5)
_cell_angle_beta                 103.502(5)
_cell_angle_gamma                111.320(5)
_cell_volume                     656.667
loop_
_atom_site_label
_atom_site_type_symbol
_atom_site_fract_x
_atom_site_fract_y
_atom_site_fract_z
Cd1 Cd 0.0000 0.0000 0.0000
O1 O 0.2081(2) 0.0342(2) 0.19844(14)
O2 O -0.2438(3) 0.0440(2) 0.07786(17)
O3 O 0.4052(2) -0.0866(2) 0.15584(15)
N1 N -0.1281(3) -0.2802(2) 0.00180(18)
O4 O -0.2183(4) -0.5525(2) -0.28498(19)
N2 N -0.2735(3) -0.5555(2) -0.05820(19)
H1 H -0.3170 -0.6518 -0.1051
C1 C -0.1793(3) -0.4071(3) -0.0889(2)
C2 C -0.2880(3) -0.5250(3) 0.0625(2)
C3 C -0.3743(4) -0.6294(3) 0.1395(3)
H2 H -0.4383 -0.7445 0.1129
C4 C 0.4231(3) -0.0094(3) 0.3706(2)
C5 C -0.1427(4) -0.3930(3) -0.2150(2)
H3 H -0.2058 -0.3254 -0.2575
H4 H -0.0030 -0.3399 -0.2053
C6 C 0.3390(3) -0.0217(3) 0.2308(2)
C7 C -0.1946(3) -0.3517(3) 0.1003(2)
C8 C -0.1815(4) -0.2778(3) 0.2191(2)
H5 H -0.1183 -0.1627 0.2457
C9 C 0.3376(4) 0.0370(3) 0.4562(2)
H6 H 0.2283 0.0625 0.4275
C10 C -0.3608(4) -0.5552(3) 0.2564(3)
H7 H -0.4159 -0.6216 0.3108
C11 C -0.2657(4) -0.3816(3) 0.2961(3)
H8 H -0.2594 -0.3353 0.3761
C12 C -0.2059(6) -0.5525(4) -0.4080(3)
H9 H -0.2599 -0.6657 -0.4521
H10 H -0.0709 -0.4999 -0.4074
H11 H -0.2782 -0.4921 -0.4496
C13 C 0.5868(4) -0.0459(3) 0.4156(2)
H12 H 0.6464 -0.0767 0.3593
H13 H -0.308(4) 0.061(4) 0.0087(18)
H14 H -0.328(3) -0.004(4) 0.117(2)
Cd1_2 Cd 1.0000 0.0000 1.0000
O1A O 0.7919(2) -0.0342(2) 0.80156(14)
O1A_2 O -0.2081(2) -0.0342(2) -0.19844(14)
O2A O 0.2438(3) -0.0440(2) -0.07786(17)
O3A O 0.5948(2) 0.0866(2) 0.84416(15)
N1A N 0.1281(3) 0.2802(2) -0.00180(18)
O4A O 0.2183(4) 0.5525(2) 0.28498(19)
N2A N 0.2735(3) 0.5555(2) 0.05820(19)
H1A H 0.3170 0.6518 0.1051
C1A C 0.1793(3) 0.4071(3) 0.0889(2)
C2A C 0.2880(3) 0.5250(3) -0.0625(2)
C3A C 0.3743(4) 0.6294(3) -0.1395(3)
H2A H 0.4383 0.7445 -0.1129
C4A C 0.5769(3) 0.0094(3) 0.6294(2)
C5A C 0.1427(4) 0.3930(3) 0.2150(2)
H3A H 0.2058 0.3254 0.2575
H4A H 0.0030 0.3399 0.2053
C6A C 0.6610(3) 0.0217(3) 0.7692(2)
C7A C 0.1946(3) 0.3517(3) -0.1003(2)
C8A C 0.1815(4) 0.2778(3) -0.2191(2)
H5A H 0.1183 0.1627 -0.2457
C9A C 0.6624(4) -0.0370(3) 0.5438(2)
H6A H 0.7717 -0.0625 0.5725
C10A C 0.3608(4) 0.5552(3) -0.2564(3)
H7A H 0.4159 0.6216 -0.3108
C11A C 0.2657(4) 0.3816(3) -0.2961(3)
H8A H 0.2594 0.3353 -0.3761
C12A C 0.2059(6) 0.5525(4) 0.4080(3)
H9A H 0.2599 0.6657 0.4521
H10A H 0.0709 0.4999 0.4074
H11A H 0.2782 0.4921 0.4496
C13A C 0.4132(4) 0.0459(3) 0.5844(2)
H12A H 0.3536 0.0767 0.6407
H13A H 0.308(4) -0.061(4) -0.0087(18)
H14A H 0.328(3) 0.004(4) -0.117(2)
loop_
_geom_bond_atom_site_label_1
_geom_bond_atom_site_label_2
_geom_bond_site_symmetry_1
_geom_bond_site_symmetry_2
Cd1 O1 1_555 1_555
O1 C6 1_555 1_555
O2 Cd1 1_555 1_555
O3 C6 1_555 1_555
N1 Cd1 1_555 1_555
O4 C5 1_555 1_555
N2 H1 1_555 1_555
C1 N1 1_555 1_555
C2 N2 1_555 1_555
C3 C2 1_555 1_555
H2 C3 1_555 1_555
C4 C6 1_555 1_555
C5 C1 1_555 1_555
H3 C5 1_555 1_555
H4 C5 1_555 1_555
C7 N1 1_555 1_555
C8 C7 1_555 1_555
H5 C8 1_555 1_555
C9 C4 1_555 1_555
H6 C9 1_555 1_555
C10 C3 1_555 1_555
H7 C10 1_555 1_555
C11 C8 1_555 1_555
H8 C11 1_555 1_555
C12 O4 1_555 1_555
H9 C12 1_555 1_555
H10 C12 1_555 1_555
H11 C12 1_555 1_555
C13 C4 1_555 1_555
H12 C13 1_555 1_555
H13 O2 1_555 1_555
H14 O2 1_555 1_555
Cd1_2 O1A 1_555 1_555
O1A C6A 1_555 1_555
O1A_2 Cd1 1_555 1_555
O2A Cd1 1_555 1_555
O3A C6A 1_555 1_555
N1A Cd1 1_555 1_555
O4A C5A 1_555 1_555
N2A H1A 1_555 1_555
C1A N1A 1_555 1_555
C2A N2A 1_555 1_555
C3A C2A 1_555 1_555
H2A C3A 1_555 1_555
C4A C6A 1_555 1_555
C5A C1A 1_555 1_555
H3A C5A 1_555 1_555
H4A C5A 1_555 1_555
C7A N1A 1_555 1_555
C8A C7A 1_555 1_555
H5A C8A 1_555 1_555
C9A C13 1_555 1_555
H6A C9A 1_555 1_555
C10A C3A 1_555 1_555
H7A C10A 1_555 1_555
C11A C8A 1_555 1_555
H8A C11A 1_555 1_555
C12A O4A 1_555 1_555
H9A C12A 1_555 1_555
H10A C12A 1_555 1_555
H11A C12A 1_555 1_555
C13A C9 1_555 1_555
H12A C13A 1_555 1_555
H13A O2A 1_555 1_555
H14A O2A 1_555 1_555
N2 C1 1_555 1_555
C2 C7 1_555 1_555
C10 C11 1_555 1_555
N2A C1A 1_555 1_555
C2A C7A 1_555 1_555
C4A C9A 1_555 1_555
C4A C13A 1_555 1_555
C10A C11A 1_555 1_555

#END
