
#######################################################################
#
#                 Cambridge Crystallographic Data Centre
#                                CCDC 
#
#######################################################################
#
# If this CIF has been generated from an entry in the Cambridge 
# Structural Database, then it will include bibliographic, chemical, 
# crystal, experimental, refinement or atomic coordinate data resulting 
# from the CCDC's data processing and validation procedures.
#
#######################################################################

data_GEVJAU
_symmetry_cell_setting           monoclinic
_symmetry_space_group_name_H-M   'P 21/c'
_symmetry_Int_Tables_number      14
_space_group_name_Hall           '-P 2ybc'
loop_
_symmetry_equiv_pos_site_id
_symmetry_equiv_pos_as_xyz
1 x,y,z
2 -x,1/2+y,1/2-z
3 -x,-y,-z
4 x,1/2-y,1/2+z
_cell_length_a                   11.2984(2)
_cell_length_b                   15.6628(7)
_cell_length_c                   11.1118(2)
_cell_angle_alpha                90
_cell_angle_beta                 113.564(2)
_cell_angle_gamma                90
_cell_volume                     1802.43
loop_
_atom_site_label
_atom_site_type_symbol
_atom_site_fract_x
_atom_site_fract_y
_atom_site_fract_z
Pb1 Pb 0.44125(3) 0.358058(18) 0.47877(3)
S1 S 0.23920(19) 0.23144(14) 0.78365(19)
O1 O 0.1430(5) 0.4579(4) 0.7733(5)
O2 O 0.2945(5) 0.4576(3) 0.4905(5)
O3 O 0.2591(5) 0.4841(4) 0.1790(6)
O4 O 0.2942(6) 0.6046(4) 0.2790(6)
O5 O 0.4446(5) 0.5075(4) 0.3355(5)
N1 N 0.2782(6) 0.3853(4) 0.6568(6)
H1 H 0.2532 0.3843 0.7204
N2 N 0.3430(6) 0.3163(4) 0.6353(5)
N3 N 0.3948(6) 0.1730(4) 0.6785(6)
H2 H 0.3767 0.1258 0.7069
N4 N 0.3329(7) 0.5332(4) 0.2652(7)
C1 C 0.1771(6) 0.5241(5) 0.5971(7)
C2 C 0.1186(7) 0.5243(6) 0.6864(7)
C3 C 0.0364(8) 0.5899(7) 0.6850(9)
H3 H -0.0045 0.5880 0.7428
C4 C 0.0140(8) 0.6562(6) 0.6026(10)
H4 H -0.0409 0.6999 0.6048
C5 C 0.0726(9) 0.6598(5) 0.5140(10)
H5 H 0.0581 0.7060 0.4573
C6 C 0.1534(8) 0.5932(5) 0.5112(8)
H6 H 0.1921 0.5948 0.4514
C7 C 0.2546(6) 0.4530(5) 0.5798(7)
C8 C 0.3317(7) 0.2453(5) 0.6918(7)
C9 C 0.4874(7) 0.1699(5) 0.6216(7)
C10 C 0.6038(8) 0.2111(5) 0.6764(8)
H7 H 0.6246 0.2422 0.7535
C11 C 0.6889(8) 0.2067(5) 0.6180(8)
H8 H 0.7648 0.2383 0.6522
C12 C 0.6656(9) 0.1577(6) 0.5124(8)
H9 H 0.7273 0.1533 0.4770
C13 C 0.5498(9) 0.1132(6) 0.4551(9)
H10 H 0.5330 0.0801 0.3806
C14 C 0.4604(8) 0.1190(5) 0.5102(7)
H11 H 0.3828 0.0893 0.4737
Pb1B Pb 0.55875(3) 0.641942(18) 0.52123(3)
Pb1C Pb 0.44125(3) 0.141942(18) 0.97877(3)
S1C S 0.23920(19) 0.26856(14) 0.28365(19)
O5B O 0.5554(5) 0.4925(4) 0.6645(5)
O6 O -0.0053(6) 0.4249(9) 0.9060(7)
H12 H 0.0400 0.4311 0.8664
H13 H -0.0791 0.4488 0.8736
loop_
_geom_bond_atom_site_label_1
_geom_bond_atom_site_label_2
_geom_bond_site_symmetry_1
_geom_bond_site_symmetry_2
Pb1 O2 1_555 1_555
S1 C8 1_555 1_555
O1 C2 1_555 1_555
O2 C7 1_555 1_555
O3 N4 1_555 1_555
O4 N4 1_555 1_555
O5 Pb1 1_555 1_555
N1 H1 1_555 1_555
N2 Pb1 1_555 1_555
N3 H2 1_555 1_555
N4 O5 1_555 1_555
C1 C2 1_555 1_555
C2 C3 1_555 1_555
C3 H3 1_555 1_555
C4 C3 1_555 1_555
H4 C4 1_555 1_555
C5 C4 1_555 1_555
H5 C5 1_555 1_555
C6 C1 1_555 1_555
H6 C6 1_555 1_555
C7 N1 1_555 1_555
C8 N2 1_555 1_555
C9 N3 1_555 1_555
C10 C9 1_555 1_555
H7 C10 1_555 1_555
C11 C10 1_555 1_555
H8 C11 1_555 1_555
C12 C11 1_555 1_555
H9 C12 1_555 1_555
C13 C12 1_555 1_555
H10 C13 1_555 1_555
C14 C9 1_555 1_555
H11 C14 1_555 1_555
O6 H12 1_555 1_555
H13 O6 1_555 1_555
Pb1B O5 1_555 1_555
Pb1C S1 1_555 1_555
S1C Pb1 1_555 1_555
O5B Pb1 1_555 1_555
N1 N2 1_555 1_555
N3 C8 1_555 1_555
C1 C7 1_555 1_555
C5 C6 1_555 1_555
C13 C14 1_555 1_555
Pb1B O5B 1_555 1_555

#END
