
#######################################################################
#
#                 Cambridge Crystallographic Data Centre
#                                CCDC 
#
#######################################################################
#
# If this CIF has been generated from an entry in the Cambridge 
# Structural Database, then it will include bibliographic, chemical, 
# crystal, experimental, refinement or atomic coordinate data resulting 
# from the CCDC's data processing and validation procedures.
#
#######################################################################

data_GEVJIC
_symmetry_cell_setting           monoclinic
_symmetry_space_group_name_H-M   'P 21/c'
_symmetry_Int_Tables_number      14
_space_group_name_Hall           '-P 2ybc'
loop_
_symmetry_equiv_pos_site_id
_symmetry_equiv_pos_as_xyz
1 x,y,z
2 -x,1/2+y,1/2-z
3 -x,-y,-z
4 x,1/2-y,1/2+z
_cell_length_a                   11.0652(19)
_cell_length_b                   8.9504(16)
_cell_length_c                   23.013(4)
_cell_angle_alpha                90
_cell_angle_beta                 95.170(3)
_cell_angle_gamma                90
_cell_volume                     2269.89
loop_
_atom_site_label
_atom_site_type_symbol
_atom_site_fract_x
_atom_site_fract_y
_atom_site_fract_z
Dy1 Dy 0.702168(9) 0.664684(12) 0.265176(4)
O1 O 0.80073(17) 0.64210(18) 0.36170(8)
O2 O 0.74564(15) 0.42499(18) 0.32277(7)
O3 O 1.02013(16) 0.3816(2) 0.32791(8)
O4 O 0.98815(17) 0.13828(19) 0.34350(8)
O5 O 0.52160(16) 0.64694(18) 0.31615(7)
O6 O 0.63073(15) 0.85249(18) 0.33172(7)
O7 O 0.39393(15) 0.96922(18) 0.29136(7)
O8 O 0.29210(15) 1.12871(18) 0.34079(7)
O9 O 0.54800(17) 0.82213(19) 0.21256(8)
O10 O 0.81672(16) 0.87741(19) 0.25102(8)
O11 O 0.89483(17) 0.5714(2) 0.24867(9)
H1 H 0.935(2) 0.508(3) 0.2698(10)
H2 H 0.932(2) 0.598(3) 0.2198(9)
N1 N 0.8327(2) 0.4020(2) 0.57844(9)
N2 N 0.9714(2) 0.2304(2) 0.57437(9)
N3 N 0.46378(19) 0.6982(2) 0.54994(9)
N4 N 0.3310(2) 0.8867(2) 0.54967(9)
C1 C 0.8515(2) 0.4263(3) 0.41837(10)
C2 C 0.8103(2) 0.4679(3) 0.47105(10)
H3 H 0.7530 0.5463 0.4733
C3 C 0.8559(2) 0.3908(3) 0.52040(10)
C4 C 0.9439(2) 0.2798(3) 0.51777(10)
C5 C 0.9859(2) 0.2369(3) 0.46512(10)
H4 H 1.0445 0.1599 0.4634
C6 C 0.9385(2) 0.3115(3) 0.41512(10)
C7 C 0.9045(2) 0.3068(3) 0.60896(11)
H5 H 0.9077 0.2949 0.6501
C8 C 0.7965(2) 0.5015(3) 0.36385(10)
C9 C 0.9851(2) 0.2741(3) 0.35721(11)
C10 C 0.4743(2) 0.8065(3) 0.39445(10)
C11 C 0.5014(2) 0.7214(3) 0.44408(11)
H6 H 0.5554 0.6389 0.4438
C12 C 0.4478(2) 0.7594(3) 0.49437(10)
C13 C 0.3652(2) 0.8792(3) 0.49370(10)
C14 C 0.3346(2) 0.9629(3) 0.44386(10)
H7 H 0.2776 1.0423 0.4438
C15 C 0.3908(2) 0.9263(3) 0.39381(10)
C16 C 0.3923(2) 0.7789(3) 0.58068(10)
H8 H 0.3849 0.7624 0.6210
C17 C 0.5446(2) 0.7695(3) 0.34372(10)
C18 C 0.3579(2) 1.0132(3) 0.33925(10)
H9 H 0.504(3) 0.873(3) 0.2336(11)
H10 H 0.570(3) 0.875(3) 0.1847(10)
H11 H 0.784(2) 0.9644(18) 0.2493(13)
H12 H 0.876(2) 0.874(3) 0.2297(12)
H13 H 0.771(3) 0.465(4) 0.5919(15)
H14 H 1.033(3) 0.163(4) 0.5865(16)
H15 H 0.278(3) 0.945(4) 0.5615(14)
Dy1A Dy 0.297832(9) 1.164684(12) 0.234824(4)
O7A O 0.60607(15) 0.46922(18) 0.20864(7)
O8A O 0.70790(15) 0.62871(18) 0.15921(7)
O12 O 0.32988(17) 0.4054(2) 0.38914(8)
H16 H 0.303(2) 0.3198(17) 0.3769(12)
H17 H 0.3950(18) 0.391(3) 0.4120(11)
O13 O 0.84304(16) 0.95581(19) 0.39491(7)
H18 H 0.787(2) 0.911(4) 0.3732(12)
H19 H 0.883(3) 1.013(4) 0.3734(12)
O14 O 0.7381(2) 1.1624(2) 0.23535(11)
H20 H 0.753(3) 1.234(4) 0.2592(16)
H21 H 0.6646(16) 1.167(4) 0.2202(17)
loop_
_geom_bond_atom_site_label_1
_geom_bond_atom_site_label_2
_geom_bond_site_symmetry_1
_geom_bond_site_symmetry_2
Dy1 O1 1_555 1_555
O1 C8 1_555 1_555
O2 Dy1 1_555 1_555
O3 C9 1_555 1_555
O4 C9 1_555 1_555
O5 Dy1 1_555 1_555
O6 Dy1 1_555 1_555
O7 C18 1_555 1_555
O8 C18 1_555 1_555
O9 Dy1 1_555 1_555
O10 Dy1 1_555 1_555
O11 Dy1 1_555 1_555
H1 O11 1_555 1_555
H2 O11 1_555 1_555
N1 C3 1_555 1_555
N2 C4 1_555 1_555
N3 C12 1_555 1_555
N4 C13 1_555 1_555
C1 C2 1_555 1_555
C2 H3 1_555 1_555
C3 C2 1_555 1_555
C4 C3 1_555 1_555
C5 C4 1_555 1_555
H4 C5 1_555 1_555
C6 C1 1_555 1_555
C7 N1 1_555 1_555
H5 C7 1_555 1_555
C8 O2 1_555 1_555
C9 C6 1_555 1_555
C10 C11 1_555 1_555
C11 H6 1_555 1_555
C12 C11 1_555 1_555
C13 C12 1_555 1_555
C14 C13 1_555 1_555
H7 C14 1_555 1_555
C15 C10 1_555 1_555
C16 N3 1_555 1_555
H8 C16 1_555 1_555
C17 O5 1_555 1_555
C18 C15 1_555 1_555
H9 O9 1_555 1_555
H10 O9 1_555 1_555
H11 O10 1_555 1_555
H12 O10 1_555 1_555
H13 N1 1_555 1_555
H14 N2 1_555 1_555
H15 N4 1_555 1_555
O12 H16 1_555 1_555
H17 O12 1_555 1_555
O13 H18 1_555 1_555
H19 O13 1_555 1_555
O14 H20 1_555 1_555
H21 O14 1_555 1_555
Dy1A O7 1_555 1_555
O7A Dy1 1_555 1_555
O8A Dy1 1_555 1_555
O6 C17 1_555 1_555
O8 Dy1A 1_555 1_555
N2 C7 1_555 1_555
N4 C16 1_555 1_555
C1 C8 1_555 1_555
C5 C6 1_555 1_555
C10 C17 1_555 1_555
C14 C15 1_555 1_555

#END
