
#######################################################################
#
#                 Cambridge Crystallographic Data Centre
#                                CCDC 
#
#######################################################################
#
# If this CIF has been generated from an entry in the Cambridge 
# Structural Database, then it will include bibliographic, chemical, 
# crystal, experimental, refinement or atomic coordinate data resulting 
# from the CCDC's data processing and validation procedures.
#
#######################################################################

data_GEVKID
_symmetry_cell_setting           monoclinic
_symmetry_space_group_name_H-M   'C 2/c'
_symmetry_Int_Tables_number      15
_space_group_name_Hall           '-C 2yn'
loop_
_symmetry_equiv_pos_site_id
_symmetry_equiv_pos_as_xyz
1 x,y,z
2 -x,y,1/2-z
3 1/2+x,1/2+y,z
4 1/2-x,1/2+y,1/2-z
5 -x,-y,-z
6 x,-y,1/2+z
7 1/2-x,1/2-y,-z
8 1/2+x,1/2-y,1/2+z
_cell_length_a                   14.1318(4)
_cell_length_b                   18.6783(6)
_cell_length_c                   17.1962(5)
_cell_angle_alpha                90
_cell_angle_beta                 98.848(2)
_cell_angle_gamma                90
_cell_volume                     4485.06
loop_
_atom_site_label
_atom_site_type_symbol
_atom_site_fract_x
_atom_site_fract_y
_atom_site_fract_z
Cd1 Cd 0.0000 0.363195(16) 1.2500
Cd2 Cd 0.2500 0.2500 1.0000
Cd3 Cd 0.163424(17) 0.248993(11) 1.175443(13)
C1 C 0.0767(2) 0.36442(16) 1.06933(18)
C2 C 0.0162(2) 0.42921(16) 1.03957(18)
H1 H -0.0482 0.4231 1.0560
C3 C 0.0011(3) 0.43628(19) 0.9502(2)
H2 H -0.0307 0.3925 0.9264
H3 H 0.0640 0.4405 0.9322
C4 C 0.0602(3) 0.49826(19) 1.0778(2)
H4 H 0.0658 0.4942 1.1358
H5 H 0.1254 0.5046 1.0645
C5 C 0.3473(2) 0.29482(19) 1.16721(19)
C6 C 0.4539(2) 0.30085(19) 1.16607(19)
H6 H 0.4645 0.3010 1.1099
C7 C 0.4975(3) 0.36948(19) 1.2050(2)
H7 H 0.4588 0.4109 1.1828
H8 H 0.5630 0.3755 1.1922
C8 C 0.5031(3) 0.2339(2) 1.2063(2)
H9 H 0.4719 0.1903 1.1816
H10 H 0.5712 0.2331 1.1988
C9 C 0.0981(3) 0.1344(2) 1.0491(2)
C10 C 0.0348(3) 0.0740(2) 1.0116(2)
H11 H -0.0084 0.0951 0.9658
C11 C -0.0291(4) 0.0413(3) 1.0654(3)
H12 H -0.0688 0.0792 1.0845
H13 H 0.0110 0.0195 1.1116
C12 C 0.0944(3) 0.0161(2) 0.9784(3)
H14 H 0.1384 -0.0064 1.0220
H15 H 0.1337 0.0383 0.9419
C13 C 0.1725(3) 0.23857(19) 1.3333(2)
C14 C 0.1878(3) 0.2414(2) 1.4226(2)
H16 H 0.1240 0.2375 1.4406
C15 C 0.2322(3) 0.3140(2) 1.4499(2)
H17 H 0.2942 0.3197 1.4304
H18 H 0.1892 0.3531 1.4274
C16 C 0.2517(4) 0.1806(2) 1.4600(2)
H19 H 0.3142 0.1825 1.4409
H20 H 0.2214 0.1340 1.4438
C17 C 0.1805(3) 0.4559(2) 1.2782(2)
H21 H 0.2130 0.4149 1.2629
C18 C 0.3103(3) 0.5273(3) 1.2420(4)
H22 H 0.3352 0.4800 1.2314
H23 H 0.3569 0.5523 1.2808
H24 H 0.2991 0.5552 1.1932
C19 C 0.1716(5) 0.5834(3) 1.2933(5)
H25 H 0.1042 0.5724 1.2953
H26 H 0.1756 0.6203 1.2534
H27 H 0.2021 0.6009 1.3448
O1 O 0.0735(2) 0.34551(15) 1.14130(15)
O2 O 0.1253(2) 0.33171(17) 1.02714(17)
O3 O 0.30427(19) 0.24105(15) 1.12903(15)
O4 O 0.3028(2) 0.33613(19) 1.2048(2)
O5 O 0.0857(3) 0.15828(18) 1.1155(2)
O6 O 0.1592(2) 0.15652(18) 1.00911(19)
O7 O 0.1063(2) 0.2761(2) 1.29476(17)
O8 O 0.2268(3) 0.2020(2) 1.29850(18)
O9 O 0.1023(3) 0.44708(18) 1.3023(2)
N1 N 0.2202(2) 0.51920(17) 1.2730(2)
C1D C -0.0767(2) 0.63558(16) 0.93067(18)
C2D C -0.0162(2) 0.57079(16) 0.96043(18)
H1D H 0.0482 0.5769 0.9440
C3D C -0.0011(3) 0.56372(19) 1.0498(2)
H2D H 0.0307 0.6075 1.0736
H3D H -0.0640 0.5595 1.0678
C4D C -0.0602(3) 0.50174(19) 0.9222(2)
H4D H -0.0658 0.5058 0.8642
H5D H -0.1254 0.4954 0.9355
O1D O -0.0735(2) 0.65449(15) 0.85870(15)
O2D O -0.1253(2) 0.66829(17) 0.97286(17)
C5A C 0.6527(2) 0.29482(19) 1.33279(19)
C6A C 0.5461(2) 0.30085(19) 1.33393(19)
H6A H 0.5355 0.3010 1.3901
C7A C 0.5025(3) 0.36948(19) 1.2950(2)
H7A H 0.5412 0.4109 1.3172
H8A H 0.4370 0.3755 1.3078
C8A C 0.4969(3) 0.2339(2) 1.2937(2)
H9A H 0.5281 0.1903 1.3184
H10A H 0.4288 0.2331 1.3012
O3A O 0.69573(19) 0.24105(15) 1.37097(15)
O4A O 0.6972(2) 0.33613(19) 1.2952(2)
C9D C -0.0981(3) -0.1344(2) 0.9509(2)
C10D C -0.0348(3) -0.0740(2) 0.9884(2)
H11D H 0.0084 -0.0951 1.0342
C11D C 0.0291(4) -0.0413(3) 0.9346(3)
H12D H 0.0688 -0.0792 0.9155
H13D H -0.0110 -0.0195 0.8884
C12D C -0.0944(3) -0.0161(2) 1.0216(3)
H14D H -0.1384 0.0064 0.9780
H15D H -0.1337 -0.0383 1.0581
O5D O -0.0857(3) -0.15828(18) 0.8845(2)
O6D O -0.1592(2) -0.15652(18) 0.99089(19)
C13F C 0.3275(3) 0.26143(19) 1.6667(2)
C14F C 0.3122(3) 0.2586(2) 1.5774(2)
H16F H 0.3760 0.2625 1.5594
C15F C 0.2678(3) 0.1860(2) 1.5501(2)
H17F H 0.2058 0.1803 1.5696
H18F H 0.3108 0.1469 1.5726
C16F C 0.2483(4) 0.3194(2) 1.5400(2)
H19F H 0.1858 0.3175 1.5591
H20F H 0.2786 0.3660 1.5562
O7F O 0.3937(2) 0.2239(2) 1.70524(17)
O8F O 0.2732(3) 0.2980(2) 1.70150(18)
C17A C -0.1805(3) 0.4559(2) 1.2218(2)
H21A H -0.2130 0.4149 1.2371
C18A C -0.3103(3) 0.5273(3) 1.2580(4)
H22A H -0.3352 0.4800 1.2686
H23A H -0.3569 0.5523 1.2192
H24A H -0.2991 0.5552 1.3068
C19A C -0.1716(5) 0.5834(3) 1.2067(5)
H25A H -0.1042 0.5724 1.2047
H26A H -0.1756 0.6203 1.2466
H27A H -0.2021 0.6009 1.1552
O9A O -0.1023(3) 0.44708(18) 1.1977(2)
N1A N -0.2202(2) 0.51920(17) 1.2270(2)
Cd3D Cd -0.163424(17) 0.751007(11) 0.824557(13)
Cd1D Cd 0.0000 0.636805(16) 0.7500
Cd1F Cd 0.5000 0.136805(16) 1.7500
Cd2A Cd 0.7500 0.2500 1.5000
Cd2B Cd -0.2500 -0.2500 1.0000
Cd2B_2 Cd -0.2500 0.7500 1.0000
Cd3A Cd 0.836576(17) 0.248993(11) 1.324557(13)
Cd3D_2 Cd -0.163424(17) -0.248993(11) 0.824557(13)
Cd3F Cd 0.336576(17) 0.251007(11) 1.824557(13)
O1A O -0.0735(2) 0.34551(15) 1.35870(15)
O2F O 0.3747(2) 0.16829(17) 0.97286(17)
O3D O -0.30427(19) 0.75895(15) 0.87097(15)
O3F O 0.19573(19) 0.25895(15) 0.87097(15)
O4D O -0.3028(2) 0.66387(19) 0.7952(2)
O5D_2 O -0.0857(3) 0.84172(18) 0.8845(2)
O6F O 0.3408(2) 0.34348(18) 0.99089(19)
O7A O -0.1063(2) 0.2761(2) 1.20524(17)
O7D O -0.1063(2) 0.7239(2) 0.70524(17)
O8D O -0.2268(3) 0.7980(2) 0.70150(18)
loop_
_geom_bond_atom_site_label_1
_geom_bond_atom_site_label_2
_geom_bond_site_symmetry_1
_geom_bond_site_symmetry_2
Cd1 O1 1_555 1_555
Cd2 O2 1_555 1_555
Cd3 O1 1_555 1_555
C1 C2 1_555 1_555
C2 H1 1_555 1_555
C3 C2 1_555 1_555
H2 C3 1_555 1_555
H3 C3 1_555 1_555
C4 C2 1_555 1_555
H4 C4 1_555 1_555
H5 C4 1_555 1_555
C5 C6 1_555 1_555
C6 H6 1_555 1_555
C7 C6 1_555 1_555
H7 C7 1_555 1_555
H8 C7 1_555 1_555
C8 C6 1_555 1_555
H9 C8 1_555 1_555
H10 C8 1_555 1_555
C9 C10 1_555 1_555
C10 H11 1_555 1_555
C11 C10 1_555 1_555
H12 C11 1_555 1_555
H13 C11 1_555 1_555
C12 C10 1_555 1_555
H14 C12 1_555 1_555
H15 C12 1_555 1_555
C13 C14 1_555 1_555
C14 H16 1_555 1_555
C15 C14 1_555 1_555
H17 C15 1_555 1_555
H18 C15 1_555 1_555
C16 C14 1_555 1_555
H19 C16 1_555 1_555
H20 C16 1_555 1_555
C17 H21 1_555 1_555
C18 H22 1_555 1_555
H23 C18 1_555 1_555
H24 C18 1_555 1_555
C19 H25 1_555 1_555
H26 C19 1_555 1_555
H27 C19 1_555 1_555
O1 C1 1_555 1_555
O2 C1 1_555 1_555
O3 Cd2 1_555 1_555
O4 Cd3 1_555 1_555
O5 Cd3 1_555 1_555
O6 Cd2 1_555 1_555
O7 Cd1 1_555 1_555
O8 Cd3 1_555 1_555
O9 Cd1 1_555 1_555
N1 C17 1_555 1_555
C1D C2D 1_555 1_555
C2D H1D 1_555 1_555
C3D C4 1_555 1_555
H2D C3D 1_555 1_555
H3D C3D 1_555 1_555
C4D C3 1_555 1_555
H4D C4D 1_555 1_555
H5D C4D 1_555 1_555
O1D C1D 1_555 1_555
O2D C1D 1_555 1_555
C5A C6A 1_555 1_555
C6A H6A 1_555 1_555
C7A C7 1_555 1_555
H7A C7A 1_555 1_555
H8A C7A 1_555 1_555
C8A C8 1_555 1_555
H9A C8A 1_555 1_555
H10A C8A 1_555 1_555
O3A C5A 1_555 1_555
O4A C5A 1_555 1_555
C9D C10D 1_555 1_555
C10D H11D 1_555 1_555
C11D C12 1_555 1_555
H12D C11D 1_555 1_555
H13D C11D 1_555 1_555
C12D C11 1_555 1_555
H14D C12D 1_555 1_555
H15D C12D 1_555 1_555
O5D C9D 1_555 1_555
O6D C9D 1_555 1_555
C13F C14F 1_555 1_555
C14F H16F 1_555 1_555
C15F C16 1_555 1_555
H17F C15F 1_555 1_555
H18F C15F 1_555 1_555
C16F C15 1_555 1_555
H19F C16F 1_555 1_555
H20F C16F 1_555 1_555
O7F C13F 1_555 1_555
O8F C13F 1_555 1_555
C17A H21A 1_555 1_555
C18A H22A 1_555 1_555
H23A C18A 1_555 1_555
H24A C18A 1_555 1_555
C19A H25A 1_555 1_555
H26A C19A 1_555 1_555
H27A C19A 1_555 1_555
O9A Cd1 1_555 1_555
N1A C17A 1_555 1_555
Cd3D O1D 1_555 1_555
Cd1D O1D 1_555 1_555
Cd1F O7F 1_555 1_555
Cd2A O3A 1_555 1_555
Cd2B O6D 1_555 1_555
Cd2B_2 O2D 1_555 1_555
Cd3A O3A 1_555 1_555
Cd3D_2 O5D 1_555 1_555
Cd3F O7F 1_555 1_555
O1A Cd1 1_555 1_555
O2F Cd2 1_555 1_555
O3D Cd3D 1_555 1_555
O3F Cd2 1_555 1_555
O4D Cd3D 1_555 1_555
O5D_2 Cd3D 1_555 1_555
O6F Cd2 1_555 1_555
O7A Cd1 1_555 1_555
O7D Cd3D 1_555 1_555
O8D Cd3D 1_555 1_555
Cd3 O3 1_555 1_555
Cd3 O7 1_555 1_555
C5 O3 1_555 1_555
C5 O4 1_555 1_555
C9 O5 1_555 1_555
C9 O6 1_555 1_555
C13 O7 1_555 1_555
C13 O8 1_555 1_555
C17 O9 1_555 1_555
C18 N1 1_555 1_555
C19 N1 1_555 1_555
C2D C3D 1_555 1_555
C2D C4D 1_555 1_555
C6A C7A 1_555 1_555
C6A C8A 1_555 1_555
O4A Cd3A 1_555 1_555
C10D C11D 1_555 1_555
C10D C12D 1_555 1_555
C14F C15F 1_555 1_555
C14F C16F 1_555 1_555
O8F Cd3F 1_555 1_555
C17A O9A 1_555 1_555
C18A N1A 1_555 1_555
C19A N1A 1_555 1_555
Cd1D O7D 1_555 1_555
Cd2B_2 O3D 1_555 1_555

#END
