
#######################################################################
#
#                 Cambridge Crystallographic Data Centre
#                                CCDC 
#
#######################################################################
#
# If this CIF has been generated from an entry in the Cambridge 
# Structural Database, then it will include bibliographic, chemical, 
# crystal, experimental, refinement or atomic coordinate data resulting 
# from the CCDC's data processing and validation procedures.
#
#######################################################################

data_GEVMEA02
_symmetry_cell_setting           monoclinic
_symmetry_space_group_name_H-M   'P 21/c'
_symmetry_Int_Tables_number      14
_space_group_name_Hall           '-P 2ybc'
loop_
_symmetry_equiv_pos_site_id
_symmetry_equiv_pos_as_xyz
1 x,y,z
2 -x,1/2+y,1/2-z
3 -x,-y,-z
4 x,1/2-y,1/2+z
_cell_length_a                   10.9748(2)
_cell_length_b                   17.4692(2)
_cell_length_c                   13.3874(2)
_cell_angle_alpha                90
_cell_angle_beta                 101.2300(10)
_cell_angle_gamma                90
_cell_volume                     2517.5
loop_
_atom_site_label
_atom_site_type_symbol
_atom_site_fract_x
_atom_site_fract_y
_atom_site_fract_z
Nd1 Nd 0.67184(2) 0.04253(2) 0.59031(2)
Nd2 Nd 1.15705(2) 0.25813(2) 0.59362(2)
N1 N 0.6262(3) 0.12023(15) 0.7428(2)
N2 N 1.1438(3) 0.12972(15) 0.6840(2)
N3 N 0.7106(3) 0.12096(15) 0.4327(2)
O1 O 0.5462(2) 0.00970(13) 0.41427(18)
O2 O 1.1727(3) 0.26167(14) 0.77952(18)
O3 O 0.4930(3) 0.02688(17) 0.2469(2)
O4 O 0.8577(3) 0.03200(15) 0.9250(2)
C1 C 0.8005(3) 0.17361(19) 0.4456(3)
C2 C 0.8600(3) 0.1874(2) 0.5558(3)
C3 C 0.6530(3) 0.1046(2) 0.3378(3)
C4 C 0.5567(3) 0.0420(2) 0.3301(3)
C5 C 0.7729(4) 0.1956(2) 0.2677(3)
H1 H 0.7928 0.2212 0.2121
C6 C 0.8353(4) 0.2118(2) 0.3642(3)
H2 H 0.8995 0.2475 0.3752
C7 C 0.6805(4) 0.1411(2) 0.2536(3)
H3 H 0.6375 0.1292 0.1885
C8 C 0.7898(3) 0.04550(19) 0.8412(3)
C9 C 0.6895(4) 0.10552(19) 0.8368(3)
C10 C 0.4948(4) 0.2049(2) 0.8132(3)
H4 H 0.4275 0.2383 0.8035
C11 C 0.5297(3) 0.16895(19) 0.7315(3)
C12 C 0.5615(4) 0.1904(2) 0.9093(3)
H5 H 0.5401 0.2140 0.9657
C13 C 1.1427(3) 0.1284(2) 0.7833(3)
C14 C 1.1639(3) 0.2047(2) 0.8344(3)
C15 C 1.1015(3) -0.0039(2) 0.6751(3)
H6 H 1.0875 -0.0485 0.6366
C16 C 1.1253(3) 0.06395(19) 0.6312(3)
C17 C 1.1353(3) 0.0722(2) 0.5211(3)
O5 O 0.6673(2) -0.10333(14) 0.60874(19)
H7 H 0.5980 -0.1282 0.5646
H8 H 0.7429 -0.1286 0.5991
O6 O 0.5153(2) 0.15009(13) 0.55456(18)
O7 O 1.1540(2) 0.01255(13) 0.47410(18)
O8 O 1.0424(2) 0.38510(13) 0.5726(2)
H9 H 1.0880 0.4330 0.5815
H10 H 0.9626 0.3953 0.5290
O9 O 0.3641(3) 0.21398(16) 0.6057(2)
O10 O 1.1730(3) 0.20582(15) 0.92900(19)
O11 O 1.2977(4) 0.36471(19) 0.6619(3)
C18 C 1.0988(4) -0.0047(2) 0.7776(3)
H11 H 1.0815 -0.0499 0.8089
C19 C 0.6609(4) 0.1403(2) 0.9212(3)
H12 H 0.7078 0.1304 0.9856
C20 C 0.4647(3) 0.17851(19) 0.6221(3)
H13 H 1.351(6) 0.389(5) 0.638(7)
H14 H 1.280(6) 0.390(3) 0.707(4)
O12 O 0.9419(2) 0.23941(14) 0.5733(2)
O13 O 0.8238(2) 0.14850(14) 0.62152(19)
O14 O 0.7940(2) 0.01171(14) 0.75861(19)
C21 C 1.1218(4) 0.0619(2) 0.8337(3)
H15 H 1.1232 0.0621 0.9034
O15 O 1.1285(2) 0.13910(13) 0.48610(18)
Nd1B Nd 0.32816(2) -0.04253(2) 0.40969(2)
Nd1B_2 Nd 1.32816(2) -0.04253(2) 0.40969(2)
Nd2_2 Nd 0.15705(2) 0.25813(2) 0.59362(2)
Nd2C Nd 1.15705(2) 0.24187(2) 1.09362(2)
O1B O 0.4538(2) -0.00970(13) 0.58573(18)
O7B O 0.8460(2) -0.01255(13) 0.52590(18)
O9_2 O 1.3641(3) 0.21398(16) 0.6057(2)
O10C O 1.1730(3) 0.29418(15) 0.42900(19)
O16 O 0.4364(13) 0.0560(6) 0.0329(10)
loop_
_geom_bond_atom_site_label_1
_geom_bond_atom_site_label_2
_geom_bond_site_symmetry_1
_geom_bond_site_symmetry_2
Nd1 N1 1_555 1_555
Nd2 N2 1_555 1_555
N1 C9 1_555 1_555
N2 C13 1_555 1_555
N3 Nd1 1_555 1_555
O1 Nd1 1_555 1_555
O2 Nd2 1_555 1_555
O3 C4 1_555 1_555
O4 C8 1_555 1_555
C1 N3 1_555 1_555
C2 C1 1_555 1_555
C3 N3 1_555 1_555
C4 O1 1_555 1_555
C5 H1 1_555 1_555
C6 C1 1_555 1_555
H2 C6 1_555 1_555
C7 C3 1_555 1_555
H3 C7 1_555 1_555
C8 C9 1_555 1_555
C9 C19 1_555 1_555
C10 H4 1_555 1_555
C11 N1 1_555 1_555
C12 C10 1_555 1_555
H5 C12 1_555 1_555
C13 C14 1_555 1_555
C14 O2 1_555 1_555
C15 H6 1_555 1_555
C16 N2 1_555 1_555
C17 C16 1_555 1_555
O5 Nd1 1_555 1_555
H7 O5 1_555 1_555
H8 O5 1_555 1_555
O6 Nd1 1_555 1_555
O7 C17 1_555 1_555
O8 Nd2 1_555 1_555
H9 O8 1_555 1_555
H10 O8 1_555 1_555
O9 C20 1_555 1_555
O10 C14 1_555 1_555
O11 Nd2 1_555 1_555
C18 C15 1_555 1_555
H11 C18 1_555 1_555
C19 C12 1_555 1_555
H12 C19 1_555 1_555
C20 C11 1_555 1_555
H13 O11 1_555 1_555
H14 O11 1_555 1_555
O12 Nd2 1_555 1_555
O13 Nd1 1_555 1_555
O14 Nd1 1_555 1_555
C21 C13 1_555 1_555
H15 C21 1_555 1_555
O15 Nd2 1_555 1_555
Nd1B O1 1_555 1_555
Nd1B_2 O7 1_555 1_555
Nd2_2 O9 1_555 1_555
Nd2C O10 1_555 1_555
O1B Nd1 1_555 1_555
O7B Nd1 1_555 1_555
O9_2 Nd2 1_555 1_555
O10C Nd2 1_555 1_555
C2 O12 1_555 1_555
C2 O13 1_555 1_555
C3 C4 1_555 1_555
C5 C6 1_555 1_555
C5 C7 1_555 1_555
C8 O14 1_555 1_555
C10 C11 1_555 1_555
C15 C16 1_555 1_555
C17 O15 1_555 1_555
O6 C20 1_555 1_555
C18 C21 1_555 1_555
Nd1B O1B 1_555 1_555

#END
