
#######################################################################
#
#                 Cambridge Crystallographic Data Centre
#                                CCDC 
#
#######################################################################
#
# If this CIF has been generated from an entry in the Cambridge 
# Structural Database, then it will include bibliographic, chemical, 
# crystal, experimental, refinement or atomic coordinate data resulting 
# from the CCDC's data processing and validation procedures.
#
#######################################################################

data_GEVMEA
_symmetry_cell_setting           monoclinic
_symmetry_space_group_name_H-M   'P 21/c'
_symmetry_Int_Tables_number      14
_space_group_name_Hall           '-P 2ybc'
loop_
_symmetry_equiv_pos_site_id
_symmetry_equiv_pos_as_xyz
1 x,y,z
2 -x,1/2+y,1/2-z
3 -x,-y,-z
4 x,1/2-y,1/2+z
_cell_length_a                   11.026(14)
_cell_length_b                   17.54(2)
_cell_length_c                   13.472(18)
_cell_angle_alpha                90
_cell_angle_beta                 100.93(2)
_cell_angle_gamma                90
_cell_volume                     2558.17
loop_
_atom_site_label
_atom_site_type_symbol
_atom_site_fract_x
_atom_site_fract_y
_atom_site_fract_z
Nd1 Nd 0.67182(4) 0.04249(2) 0.59044(3)
Nd2 Nd 0.15704(4) 0.25847(2) 0.59330(3)
O1 O 0.7920(5) 0.0118(3) 0.7587(4)
O2 O 0.8561(6) 0.0319(3) 0.9246(4)
O3 O 0.5157(5) 0.1495(3) 0.5549(4)
O4 O 0.3656(5) 0.2145(3) 0.6062(4)
O5 O 0.5474(5) 0.0096(3) 0.4147(4)
O6 O 0.4942(6) 0.0269(4) 0.2471(4)
O7 O 0.8237(5) 0.1481(3) 0.6216(4)
O8 O 0.9413(5) 0.2401(3) 0.5727(4)
O9 O 0.8456(5) -0.0127(3) 0.5258(4)
O10 O 0.8714(5) -0.1394(3) 0.5141(4)
O11 O 0.8259(5) -0.2613(3) 0.2212(4)
O12 O 0.8261(6) -0.2058(3) 0.0715(4)
O13 O 0.6667(5) -0.1037(3) 0.6079(4)
O14 O 0.0412(5) 0.3865(3) 0.5712(4)
O15 O 0.2991(6) 0.3658(3) 0.6622(5)
N1 N 0.6248(5) 0.1205(3) 0.7423(4)
N2 N 0.7098(6) 0.1207(3) 0.4324(4)
N3 N 0.8558(6) -0.1294(3) 0.3157(4)
C1 C 0.7895(7) 0.0462(4) 0.8405(6)
C2 C 0.6893(7) 0.1063(4) 0.8362(5)
C3 C 0.6614(8) 0.1408(5) 0.9194(6)
H1 H 0.7079 0.1307 0.9832
C4 C 0.5618(9) 0.1919(5) 0.9081(7)
H2 H 0.5408 0.2159 0.9641
C5 C 0.4955(8) 0.2059(5) 0.8121(6)
H3 H 0.4286 0.2392 0.8023
C6 C 0.5301(7) 0.1695(4) 0.7312(5)
C7 C 0.4667(7) 0.1786(4) 0.6222(6)
C8 C 0.5563(7) 0.0418(4) 0.3317(6)
C9 C 0.6516(7) 0.1043(4) 0.3383(5)
C10 C 0.6780(8) 0.1404(4) 0.2540(6)
H4 H 0.6340 0.1289 0.1898
C11 C 0.7718(9) 0.1943(5) 0.2674(6)
H5 H 0.7934 0.2185 0.2118
C12 C 0.8326(8) 0.2115(4) 0.3640(6)
H6 H 0.8954 0.2477 0.3746
C13 C 0.7982(7) 0.1735(4) 0.4457(6)
C14 C 0.8576(7) 0.1869(4) 0.5559(6)
C15 C 0.8631(7) -0.0724(4) 0.4775(5)
C16 C 0.8731(7) -0.0645(4) 0.3684(5)
C17 C 0.8982(8) 0.0034(4) 0.3249(6)
H7 H 0.9122 0.0477 0.3633
C18 C 0.9020(9) 0.0041(5) 0.2226(6)
H8 H 0.9201 0.0490 0.1917
C19 C 0.8789(9) -0.0617(5) 0.1668(6)
H9 H 0.8784 -0.0619 0.0977
C20 C 0.8562(7) -0.1284(4) 0.2175(5)
C21 C 0.8343(8) -0.2041(4) 0.1660(5)
Nd1B Nd 0.32818(4) -0.04249(2) 0.40956(3)
Nd2_2 Nd 1.15704(4) 0.25847(2) 0.59330(3)
Nd2B Nd 0.84296(4) -0.25847(2) 0.40670(3)
Nd2A Nd 0.84296(4) -0.24153(2) -0.09330(3)
O5B O 0.4526(5) -0.0096(3) 0.5853(4)
O8_2 O -0.0587(5) 0.2401(3) 0.5727(4)
O10B O 0.1286(5) 0.1394(3) 0.4859(4)
O11B O 0.1741(5) 0.2613(3) 0.7788(4)
O12A O 0.1739(6) 0.2942(3) 0.4285(4)
N3B N 0.1442(6) 0.1294(3) 0.6843(4)
O16 O 0.442(2) 0.0544(12) 0.0313(19)
loop_
_geom_bond_atom_site_label_1
_geom_bond_atom_site_label_2
_geom_bond_site_symmetry_1
_geom_bond_site_symmetry_2
Nd1 O1 1_555 1_555
Nd2 O4 1_555 1_555
O1 C1 1_555 1_555
O2 C1 1_555 1_555
O3 Nd1 1_555 1_555
O4 C7 1_555 1_555
O5 Nd1 1_555 1_555
O6 C8 1_555 1_555
O7 Nd1 1_555 1_555
O8 C14 1_555 1_555
O9 Nd1 1_555 1_555
O10 C15 1_555 1_555
O11 C21 1_555 1_555
O12 C21 1_555 1_555
O13 Nd1 1_555 1_555
O14 Nd2 1_555 1_555
O15 Nd2 1_555 1_555
N1 Nd1 1_555 1_555
N2 Nd1 1_555 1_555
N3 C16 1_555 1_555
C1 C2 1_555 1_555
C2 N1 1_555 1_555
C3 C2 1_555 1_555
H1 C3 1_555 1_555
C4 C3 1_555 1_555
H2 C4 1_555 1_555
C5 C4 1_555 1_555
H3 C5 1_555 1_555
C6 N1 1_555 1_555
C7 O3 1_555 1_555
C8 O5 1_555 1_555
C9 N2 1_555 1_555
C10 C9 1_555 1_555
H4 C10 1_555 1_555
C11 C10 1_555 1_555
H5 C11 1_555 1_555
C12 C11 1_555 1_555
H6 C12 1_555 1_555
C13 N2 1_555 1_555
C14 O7 1_555 1_555
C15 O9 1_555 1_555
C16 C15 1_555 1_555
C17 C16 1_555 1_555
H7 C17 1_555 1_555
C18 C17 1_555 1_555
H8 C18 1_555 1_555
C19 C18 1_555 1_555
H9 C19 1_555 1_555
C20 N3 1_555 1_555
C21 C20 1_555 1_555
Nd1B O5 1_555 1_555
Nd2_2 O8 1_555 1_555
Nd2B O10 1_555 1_555
Nd2A O12 1_555 1_555
O5B Nd1 1_555 1_555
O8_2 Nd2 1_555 1_555
O10B Nd2 1_555 1_555
O11B Nd2 1_555 1_555
O12A Nd2 1_555 1_555
N3B Nd2 1_555 1_555
O11 Nd2B 1_555 1_555
N3 Nd2B 1_555 1_555
C5 C6 1_555 1_555
C6 C7 1_555 1_555
C8 C9 1_555 1_555
C12 C13 1_555 1_555
C13 C14 1_555 1_555
C19 C20 1_555 1_555
Nd1B O5B 1_555 1_555

#END
