
#######################################################################
#
#                 Cambridge Crystallographic Data Centre
#                                CCDC 
#
#######################################################################
#
# If this CIF has been generated from an entry in the Cambridge 
# Structural Database, then it will include bibliographic, chemical, 
# crystal, experimental, refinement or atomic coordinate data resulting 
# from the CCDC's data processing and validation procedures.
#
#######################################################################

data_GEVMEA01
_symmetry_cell_setting           monoclinic
_symmetry_space_group_name_H-M   'P 21/c'
_symmetry_Int_Tables_number      14
_space_group_name_Hall           '-P 2ybc'
loop_
_symmetry_equiv_pos_site_id
_symmetry_equiv_pos_as_xyz
1 x,y,z
2 -x,1/2+y,1/2-z
3 -x,-y,-z
4 x,1/2-y,1/2+z
_cell_length_a                   10.9808(5)
_cell_length_b                   17.4678(7)
_cell_length_c                   13.4036(6)
_cell_angle_alpha                90
_cell_angle_beta                 101.177(1)
_cell_angle_gamma                90
_cell_volume                     2522.19
loop_
_atom_site_label
_atom_site_type_symbol
_atom_site_fract_x
_atom_site_fract_y
_atom_site_fract_z
Nd1 Nd -0.156853(13) 0.241552(9) 0.406478(11)
Nd2 Nd -0.671810(13) 0.457520(9) 0.409550(11)
N1 N -0.6258(2) 0.37968(13) 0.25689(19)
N2 N 0.2889(2) 0.37898(13) 0.56733(19)
N3 N -0.1436(2) 0.37058(13) 0.31623(18)
O1 O -0.8579(2) 0.46767(14) 0.07548(17)
O2 O -0.79390(19) 0.48832(12) 0.24140(16)
O3 O -0.51499(18) 0.34985(12) 0.44513(16)
O4 O -0.3641(2) 0.28585(14) 0.39391(19)
O5 O 0.0585(2) 0.26031(12) 0.42690(19)
O6 O 0.17635(19) 0.35136(12) 0.37866(16)
O7 O 0.45344(18) 0.49021(11) 0.58566(15)
O8 O 0.5073(2) 0.47288(15) 0.75288(18)
O9 O -0.15375(18) 0.48729(11) 0.52588(15)
O10 O -0.1275(2) 0.36108(11) 0.51379(15)
O11 O -0.1726(2) 0.23856(12) 0.22066(16)
O12 O -0.1726(3) 0.29449(13) 0.07151(17)
O13 O -0.66724(19) 0.60359(12) 0.39126(16)
H1 H -0.6102 0.6236 0.4356
H2 H -0.7333 0.6291 0.3905
O14 O -0.0422(2) 0.11460(11) 0.42770(17)
H3 H 0.0298 0.1070 0.4630
H4 H -0.0786 0.0715 0.4183
O15 O -0.2961(2) 0.13463(14) 0.3382(2)
H5 H -0.3039 0.1172 0.2781
H6 H -0.3532 0.1150 0.3646
C1 C -0.7897(3) 0.45428(16) 0.1590(2)
C2 C -0.6891(3) 0.39434(17) 0.1637(2)
C3 C -0.6601(3) 0.3596(2) 0.0784(3)
H7 H -0.7064 0.3697 0.0140
C4 C -0.5608(4) 0.3095(2) 0.0910(3)
H8 H -0.5389 0.2859 0.0349
C5 C -0.4947(3) 0.2948(2) 0.1870(3)
H9 H -0.4277 0.2612 0.1970
C6 C -0.5304(3) 0.33131(16) 0.2690(2)
C7 C -0.4643(3) 0.32119(16) 0.3770(2)
C8 C 0.1397(3) 0.31232(17) 0.4441(2)
C9 C 0.1996(3) 0.32591(16) 0.5537(2)
C10 C 0.1649(3) 0.28823(18) 0.6352(3)
H10 H 0.1012 0.2523 0.6243
C11 C 0.2264(3) 0.3050(2) 0.7324(3)
H11 H 0.2051 0.2803 0.7881
C12 C 0.3196(3) 0.35877(19) 0.7461(3)
H12 H 0.3633 0.3703 0.8109
C13 C 0.3472(3) 0.39538(17) 0.6616(2)
C14 C 0.4432(3) 0.45755(17) 0.6701(2)
C15 C -0.1354(3) 0.42810(17) 0.4785(2)
C16 C -0.1251(3) 0.43570(17) 0.3691(2)
C17 C -0.1010(3) 0.50405(17) 0.3247(2)
H13 H -0.0869 0.5487 0.3631
C18 C -0.0981(3) 0.50477(19) 0.2224(3)
H14 H -0.0805 0.5498 0.1910
C19 C -0.1217(3) 0.43817(19) 0.1670(3)
H15 H -0.1236 0.4380 0.0973
C20 C -0.1423(3) 0.37186(17) 0.2168(2)
C21 C -0.1644(3) 0.29542(18) 0.1657(2)
Nd1C Nd -0.156853(13) 0.258448(9) -0.093522(11)
Nd2_2 Nd 0.328190(13) 0.457520(9) 0.409550(11)
Nd2B Nd 0.671810(13) 0.542480(9) 0.590450(11)
Nd2B_2 Nd -0.328190(13) 0.542480(9) 0.590450(11)
N2_2 N -0.7111(2) 0.37898(13) 0.56733(19)
O6_2 O -0.82365(19) 0.35136(12) 0.37866(16)
O7_2 O -0.54656(18) 0.49021(11) 0.58566(15)
O7B O -0.45344(18) 0.50979(11) 0.41434(15)
O9B O -0.84625(18) 0.51271(11) 0.47412(15)
O12C O -0.1726(3) 0.20551(13) 0.57151(17)
O16 O 0.5673(12) 0.4430(6) 0.9663(9)
H16 H 0.5595 0.4684 1.0187
H17 H 0.4968 0.4242 0.9407
loop_
_geom_bond_atom_site_label_1
_geom_bond_atom_site_label_2
_geom_bond_site_symmetry_1
_geom_bond_site_symmetry_2
Nd1 N3 1_555 1_555
Nd2 N1 1_555 1_555
N1 C2 1_555 1_555
N2 C9 1_555 1_555
N3 C16 1_555 1_555
O1 C1 1_555 1_555
O2 Nd2 1_555 1_555
O3 Nd2 1_555 1_555
O4 Nd1 1_555 1_555
O5 Nd1 1_555 1_555
O6 C8 1_555 1_555
O7 C14 1_555 1_555
O8 C14 1_555 1_555
O9 C15 1_555 1_555
O10 Nd1 1_555 1_555
O11 Nd1 1_555 1_555
O12 C21 1_555 1_555
O13 Nd2 1_555 1_555
H1 O13 1_555 1_555
H2 O13 1_555 1_555
O14 Nd1 1_555 1_555
H3 O14 1_555 1_555
H4 O14 1_555 1_555
O15 Nd1 1_555 1_555
H5 O15 1_555 1_555
H6 O15 1_555 1_555
C1 O2 1_555 1_555
C2 C1 1_555 1_555
C3 C2 1_555 1_555
H7 C3 1_555 1_555
C4 C3 1_555 1_555
H8 C4 1_555 1_555
C5 C4 1_555 1_555
H9 C5 1_555 1_555
C6 N1 1_555 1_555
C7 O3 1_555 1_555
C8 O5 1_555 1_555
C9 C8 1_555 1_555
C10 C9 1_555 1_555
H10 C10 1_555 1_555
C11 C10 1_555 1_555
H11 C11 1_555 1_555
C12 C11 1_555 1_555
H12 C12 1_555 1_555
C13 N2 1_555 1_555
C14 C13 1_555 1_555
C15 O10 1_555 1_555
C16 C15 1_555 1_555
C17 C16 1_555 1_555
H13 C17 1_555 1_555
C18 C17 1_555 1_555
H14 C18 1_555 1_555
C19 C18 1_555 1_555
H15 C19 1_555 1_555
C20 N3 1_555 1_555
C21 O11 1_555 1_555
O16 H16 1_555 1_555
H17 O16 1_555 1_555
Nd1C O12 1_555 1_555
Nd2_2 N2 1_555 1_555
Nd2B O7 1_555 1_555
Nd2B_2 O9 1_555 1_555
N2_2 Nd2 1_555 1_555
O6_2 Nd2 1_555 1_555
O7_2 Nd2 1_555 1_555
O7B Nd2 1_555 1_555
O9B Nd2 1_555 1_555
O12C Nd1 1_555 1_555
O4 C7 1_555 1_555
O6 Nd2_2 1_555 1_555
O7 Nd2_2 1_555 1_555
C5 C6 1_555 1_555
C6 C7 1_555 1_555
C12 C13 1_555 1_555
C19 C20 1_555 1_555
C20 C21 1_555 1_555
Nd2B_2 O7_2 1_555 1_555
Nd2B_2 O7B 1_555 1_555

#END
