
#######################################################################
#
#                 Cambridge Crystallographic Data Centre
#                                CCDC 
#
#######################################################################
#
# If this CIF has been generated from an entry in the Cambridge 
# Structural Database, then it will include bibliographic, chemical, 
# crystal, experimental, refinement or atomic coordinate data resulting 
# from the CCDC's data processing and validation procedures.
#
#######################################################################

data_GEVNIF
_symmetry_cell_setting           monoclinic
_symmetry_space_group_name_H-M   'C 2/c'
_symmetry_Int_Tables_number      15
_space_group_name_Hall           '-C 2yn'
loop_
_symmetry_equiv_pos_site_id
_symmetry_equiv_pos_as_xyz
1 x,y,z
2 1/2+x,1/2+y,z
3 -x,y,1/2-z
4 1/2-x,1/2+y,1/2-z
5 -x,-y,-z
6 1/2-x,1/2-y,-z
7 x,-y,1/2+z
8 1/2+x,1/2-y,1/2+z
_cell_length_a                   26.500(3)
_cell_length_b                   6.884(2)
_cell_length_c                   17.124(3)
_cell_angle_alpha                90
_cell_angle_beta                 125.609(3)
_cell_angle_gamma                90
_cell_volume                     2539.73
loop_
_atom_site_label
_atom_site_type_symbol
_atom_site_fract_x
_atom_site_fract_y
_atom_site_fract_z
Cu1 Cu 0.24280(2) 0.28673(7) 0.24010(4)
N1 N 0.20056(15) 0.4526(5) 0.1228(2)
N2 N 0.21193(15) 0.6457(5) 0.1327(2)
N3 N 0.18701(16) 0.7373(5) 0.0497(3)
N4 N 0.16883(14) 0.1196(5) 0.1921(2)
N5 N 0.17727(14) -0.0710(5) 0.2101(2)
N6 N 0.12680(15) -0.1661(5) 0.1880(3)
O1 O 0.22200(14) 0.5389(5) 0.3214(2)
H1 H 0.2370 0.4781 0.3738
H2 H 0.1894 0.5973 0.3070
C1 C 0.16533(18) 0.4168(6) 0.0267(3)
C2 C 0.15674(19) 0.5935(7) -0.0190(3)
C3 C 0.1211(2) 0.6054(8) -0.1199(3)
H3 H 0.1151 0.7228 -0.1511
C4 C 0.0958(2) 0.4371(8) -0.1697(3)
H4 H 0.0714 0.4407 -0.2364
C5 C 0.1055(2) 0.2568(7) -0.1232(3)
H5 H 0.0881 0.1452 -0.1602
C6 C 0.1398(2) 0.2419(7) -0.0250(3)
H6 H 0.1459 0.1237 0.0057
C7 C 0.10784(18) 0.1551(6) 0.1552(3)
C8 C 0.08220(18) -0.0240(6) 0.1536(3)
C9 C 0.01927(19) -0.0398(7) 0.1192(3)
H7 H 0.0019 -0.1581 0.1181
C10 C -0.0146(2) 0.1271(8) 0.0879(3)
H8 H -0.0562 0.1222 0.0646
C11 C 0.01133(19) 0.3070(7) 0.0896(3)
H9 H -0.0138 0.4169 0.0674
C12 C 0.07238(18) 0.3256(7) 0.1229(3)
H10 H 0.0893 0.4448 0.1240
Cu1C Cu 0.25720(2) 0.78673(7) 0.25990(4)
Cu1C_2 Cu 0.25720(2) -0.21327(7) 0.25990(4)
N2C N 0.28807(15) 0.1457(5) 0.3673(2)
N5C N 0.32273(14) 0.4290(5) 0.2899(2)
O1C O 0.27800(14) 0.0389(5) 0.1786(2)
H1C H 0.2630 -0.0219 0.1262
H2C H 0.3106 0.0973 0.1930
loop_
_geom_bond_atom_site_label_1
_geom_bond_atom_site_label_2
_geom_bond_site_symmetry_1
_geom_bond_site_symmetry_2
Cu1 N1 1_555 1_555
N1 N2 1_555 1_555
N2 N3 1_555 1_555
N3 C2 1_555 1_555
N4 Cu1 1_555 1_555
N5 N4 1_555 1_555
N6 N5 1_555 1_555
O1 Cu1 1_555 1_555
H1 O1 1_555 1_555
H2 O1 1_555 1_555
C1 N1 1_555 1_555
C2 C1 1_555 1_555
C3 C2 1_555 1_555
H3 C3 1_555 1_555
C4 C3 1_555 1_555
H4 C4 1_555 1_555
C5 C4 1_555 1_555
H5 C5 1_555 1_555
C6 C1 1_555 1_555
H6 C6 1_555 1_555
C7 N4 1_555 1_555
C8 N6 1_555 1_555
C9 C8 1_555 1_555
H7 C9 1_555 1_555
C10 C9 1_555 1_555
H8 C10 1_555 1_555
C11 C10 1_555 1_555
H9 C11 1_555 1_555
C12 C7 1_555 1_555
H10 C12 1_555 1_555
Cu1C N2 1_555 1_555
Cu1C_2 N5 1_555 1_555
N2C Cu1 1_555 1_555
N5C Cu1 1_555 1_555
O1C Cu1 1_555 1_555
H1C O1C 1_555 1_555
H2C O1C 1_555 1_555
O1 Cu1C 1_555 1_555
C5 C6 1_555 1_555
C7 C8 1_555 1_555
C11 C12 1_555 1_555
Cu1C_2 O1C 1_555 1_555

#END
