
#######################################################################
#
#                 Cambridge Crystallographic Data Centre
#                                CCDC 
#
#######################################################################
#
# If this CIF has been generated from an entry in the Cambridge 
# Structural Database, then it will include bibliographic, chemical, 
# crystal, experimental, refinement or atomic coordinate data resulting 
# from the CCDC's data processing and validation procedures.
#
#######################################################################

data_GEVNIG
_symmetry_cell_setting           monoclinic
_symmetry_space_group_name_H-M   'P 21/c'
_symmetry_Int_Tables_number      14
_space_group_name_Hall           '-P 2ybc'
loop_
_symmetry_equiv_pos_site_id
_symmetry_equiv_pos_as_xyz
1 x,y,z
2 -x,1/2+y,1/2-z
3 -x,-y,-z
4 x,1/2-y,1/2+z
_cell_length_a                   9.5237(4)
_cell_length_b                   9.8364(4)
_cell_length_c                   20.8937(8)
_cell_angle_alpha                90
_cell_angle_beta                 96.1810(10)
_cell_angle_gamma                90
_cell_volume                     1945.92
loop_
_atom_site_label
_atom_site_type_symbol
_atom_site_fract_x
_atom_site_fract_y
_atom_site_fract_z
Mo1 Mo 0.45992(2) 0.19884(2) 0.328520(11)
Cu1 Cu 0.19036(4) 0.12937(4) 0.104104(16)
P1 P 0.15781(7) 0.12529(7) 0.25329(3)
P2 P 0.40864(7) -0.00136(7) 0.20537(3)
O1 O 0.0939(2) 0.1347(2) 0.18423(10)
O2 O 0.3296(2) -0.0010(2) 0.13828(10)
O3 O 0.3685(2) 0.0208(2) 0.32545(9)
H1 H 0.3151 0.0177 0.3555
O4 O 0.0416(2) 0.1049(2) 0.29981(10)
O5 O 0.4852(2) 0.12937(19) 0.22547(9)
O6 O 0.2480(2) 0.2464(2) 0.27772(10)
O7 O 0.5094(2) -0.12387(19) 0.21367(10)
O8 O 0.4131(3) 0.2544(3) 0.40004(11)
O9 O 0.3416(3) 0.3073(2) 0.12948(12)
H2 H 0.3326 0.3345 0.1674
H3 H 0.4261 0.2812 0.1274
N1 N 0.0477(3) 0.2479(3) 0.05575(12)
N2 N 0.2107(3) 0.0644(3) 0.01453(12)
C1 C 0.2849(3) -0.0153(3) 0.26616(13)
O10 O 0.6310(2) 0.1525(2) 0.34801(11)
C2 C 0.3012(4) -0.0311(4) -0.00126(16)
H4 H 0.3666 -0.0700 0.0319
C3 C 0.0244(3) 0.2236(3) -0.00815(14)
C4 C 0.1186(3) 0.1198(3) -0.03185(14)
C5 C 0.1170(4) 0.0802(4) -0.09527(15)
H5 H 0.0513 0.1207 -0.1279
C6 C 0.2202(3) -0.1557(3) 0.27022(17)
H6 H 0.2943 -0.2220 0.2769
H7 H 0.1634 -0.1585 0.3055
H8 H 0.1623 -0.1754 0.2308
C7 C -0.0286(4) 0.3415(4) 0.08238(17)
H9 H -0.0080 0.3604 0.1275
C8 C 0.2101(4) -0.0188(4) -0.11124(17)
H10 H 0.2096 -0.0483 -0.1551
C9 C -0.0819(4) 0.2918(4) -0.04618(17)
H11 H -0.0984 0.2734 -0.0915
C10 C -0.1639(4) 0.3860(4) -0.01782(19)
H12 H -0.2393 0.4323 -0.0432
C11 C 0.3034(4) -0.0747(4) -0.06405(17)
H13 H 0.3694 -0.1428 -0.0745
C12 C -0.1366(4) 0.4130(4) 0.04698(19)
H14 H -0.1908 0.4795 0.0673
Mo1A Mo 0.54008(2) -0.30116(2) 0.171480(11)
O7A O 0.4906(2) 0.37613(19) 0.28633(10)
O11 O 0.8038(2) 0.9945(3) 0.27416(14)
H15 H 0.7663 1.0316 0.3049
H16 H 0.8873 0.9693 0.2874
O12 O 0.4622(6) 0.3730(5) 0.02051(19)
H17 H 0.4622 0.3512 -0.0189
H18 H 0.4360 0.4552 0.0231
loop_
_geom_bond_atom_site_label_1
_geom_bond_atom_site_label_2
_geom_bond_site_symmetry_1
_geom_bond_site_symmetry_2
Mo1 O3 1_555 1_555
Cu1 O1 1_555 1_555
P1 O1 1_555 1_555
P2 O2 1_555 1_555
O2 Cu1 1_555 1_555
O3 H1 1_555 1_555
O4 P1 1_555 1_555
O5 Mo1 1_555 1_555
O6 Mo1 1_555 1_555
O7 P2 1_555 1_555
O8 Mo1 1_555 1_555
O9 Cu1 1_555 1_555
H2 O9 1_555 1_555
H3 O9 1_555 1_555
N1 Cu1 1_555 1_555
N2 Cu1 1_555 1_555
C1 P1 1_555 1_555
O10 Mo1 1_555 1_555
C2 N2 1_555 1_555
H4 C2 1_555 1_555
C3 N1 1_555 1_555
C4 N2 1_555 1_555
C5 C4 1_555 1_555
H5 C5 1_555 1_555
C6 C1 1_555 1_555
H6 C6 1_555 1_555
H7 C6 1_555 1_555
H8 C6 1_555 1_555
C7 N1 1_555 1_555
H9 C7 1_555 1_555
C8 C5 1_555 1_555
H10 C8 1_555 1_555
C9 C3 1_555 1_555
H11 C9 1_555 1_555
C10 C9 1_555 1_555
H12 C10 1_555 1_555
C11 C2 1_555 1_555
H13 C11 1_555 1_555
C12 C7 1_555 1_555
H14 C12 1_555 1_555
O11 H15 1_555 1_555
H16 O11 1_555 1_555
O12 H17 1_555 1_555
H18 O12 1_555 1_555
Mo1A O7 1_555 1_555
O7A Mo1 1_555 1_555
P1 O6 1_555 1_555
P2 O5 1_555 1_555
P2 C1 1_555 1_555
O3 C1 1_555 1_555
C3 C4 1_555 1_555
C8 C11 1_555 1_555
C10 C12 1_555 1_555

#END
