
#######################################################################
#
#                 Cambridge Crystallographic Data Centre
#                                CCDC 
#
#######################################################################
#
# If this CIF has been generated from an entry in the Cambridge 
# Structural Database, then it will include bibliographic, chemical, 
# crystal, experimental, refinement or atomic coordinate data resulting 
# from the CCDC's data processing and validation procedures.
#
#######################################################################

data_GEVPAA
_symmetry_cell_setting           monoclinic
_symmetry_space_group_name_H-M   'P 21/c'
_symmetry_Int_Tables_number      14
_space_group_name_Hall           '-P 2ybc'
loop_
_symmetry_equiv_pos_site_id
_symmetry_equiv_pos_as_xyz
1 x,y,z
2 -x,1/2+y,1/2-z
3 -x,-y,-z
4 x,1/2-y,1/2+z
_cell_length_a                   14.8561(9)
_cell_length_b                   16.4350(10)
_cell_length_c                   8.8988(6)
_cell_angle_alpha                90
_cell_angle_beta                 93.3990(10)
_cell_angle_gamma                90
_cell_volume                     2168.91
loop_
_atom_site_label
_atom_site_type_symbol
_atom_site_fract_x
_atom_site_fract_y
_atom_site_fract_z
Mo1 Mo 0.261654(19) 0.141245(19) 0.05200(4)
Mo2 Mo 0.15523(2) -0.002009(18) -0.14780(4)
Cu1 Cu 0.22148(3) 0.01401(3) 0.42177(5)
P1 P 0.16633(6) 0.19334(5) 0.36383(10)
P2 P 0.06608(6) 0.06112(5) 0.19404(10)
O1 O 0.2036(2) 0.12754(15) 0.4675(3)
O2 O 0.21969(17) 0.20587(16) 0.2235(3)
O3 O 0.15741(16) 0.27506(14) 0.4409(3)
O4 O 0.10771(19) 0.00099(14) 0.3054(3)
O5 O 0.12323(15) 0.07599(14) 0.0581(3)
O6 O -0.02895(16) 0.03727(16) 0.1353(3)
O7 O 0.0207(2) 0.21989(19) 0.1744(4)
H1 H 0.0152 0.2658 0.2170
O8 O 0.30580(18) 0.06807(18) 0.1704(3)
O9 O 0.35068(18) 0.19891(19) 0.0103(3)
O10 O 0.24581(17) 0.07903(16) -0.1276(3)
O11 O 0.2008(2) -0.07507(17) -0.0341(4)
O12 O 0.0805(2) 0.10490(18) -0.2586(4)
H2 H 0.1089 0.1486 -0.2365
H3 H 0.0278 0.1075 -0.2265
O13 O 0.1732(2) -0.0364(2) -0.3240(3)
N1 N 0.3376(2) 0.0154(2) 0.5484(4)
N2 N 0.2562(2) -0.1015(2) 0.3870(4)
C1 C 0.0549(2) 0.1597(2) 0.2883(5)
C2 C 0.3777(3) -0.0594(3) 0.5539(5)
C3 C 0.3731(3) 0.0746(3) 0.6321(5)
H4 H 0.3441 0.1269 0.6288
C4 C 0.2132(3) -0.1581(3) 0.3058(6)
H5 H 0.1580 -0.1437 0.2506
C5 C 0.3347(3) -0.1217(2) 0.4659(5)
C6 C 0.4570(3) -0.0751(3) 0.6420(6)
C7 C 0.4515(3) 0.0633(4) 0.7253(6)
H6 H 0.4759 0.1074 0.7857
C8 C 0.3720(3) -0.2006(3) 0.4637(6)
C9 C -0.0059(4) 0.1498(4) 0.4139(7)
H7 H -0.0130 0.2006 0.4651
H8 H -0.0638 0.1303 0.3763
H9 H 0.0213 0.1107 0.4828
C10 C 0.4948(3) -0.1554(4) 0.6341(7)
H10 H 0.5499 -0.1671 0.6918
C11 C 0.2452(4) -0.2376(3) 0.2989(8)
H11 H 0.2119 -0.2776 0.2401
C12 C 0.3244(4) -0.2586(3) 0.3773(7)
H12 H 0.3473 -0.3131 0.3716
C13 C 0.4927(3) -0.0102(4) 0.7300(7)
H13 H 0.5465 -0.0184 0.7933
C14 C 0.4552(3) -0.2143(3) 0.5492(7)
H14 H 0.4833 -0.2667 0.5450
Mo1C Mo 0.261654(19) 0.358755(19) 0.55200(4)
Mo2B Mo -0.15523(2) 0.002009(18) 0.14780(4)
Cu1_2 Cu 0.22148(3) 0.01401(3) -0.57823(5)
O3C O 0.15741(16) 0.22494(14) -0.0591(3)
O6B O 0.02895(16) -0.03727(16) -0.1353(3)
O13_2 O 0.1732(2) -0.0364(2) 0.6760(3)
loop_
_geom_bond_atom_site_label_1
_geom_bond_atom_site_label_2
_geom_bond_site_symmetry_1
_geom_bond_site_symmetry_2
Mo1 O2 1_555 1_555
Mo2 O5 1_555 1_555
Cu1 O1 1_555 1_555
P1 O1 1_555 1_555
P2 O4 1_555 1_555
O2 P1 1_555 1_555
O3 P1 1_555 1_555
O4 Cu1 1_555 1_555
O5 Mo1 1_555 1_555
O6 P2 1_555 1_555
O7 H1 1_555 1_555
O8 Mo1 1_555 1_555
O9 Mo1 1_555 1_555
O10 Mo1 1_555 1_555
O11 Mo2 1_555 1_555
O12 Mo2 1_555 1_555
H2 O12 1_555 1_555
H3 O12 1_555 1_555
O13 Mo2 1_555 1_555
N1 Cu1 1_555 1_555
N2 Cu1 1_555 1_555
C1 P1 1_555 1_555
C2 N1 1_555 1_555
C3 N1 1_555 1_555
H4 C3 1_555 1_555
C4 N2 1_555 1_555
H5 C4 1_555 1_555
C5 N2 1_555 1_555
C6 C2 1_555 1_555
C7 C3 1_555 1_555
H6 C7 1_555 1_555
C8 C5 1_555 1_555
C9 C1 1_555 1_555
H7 C9 1_555 1_555
H8 C9 1_555 1_555
H9 C9 1_555 1_555
C10 C6 1_555 1_555
H10 C10 1_555 1_555
C11 C4 1_555 1_555
H11 C11 1_555 1_555
C12 C8 1_555 1_555
H12 C12 1_555 1_555
C13 C6 1_555 1_555
H13 C13 1_555 1_555
C14 C8 1_555 1_555
H14 C14 1_555 1_555
Mo1C O3 1_555 1_555
Mo2B O6 1_555 1_555
Cu1_2 O13 1_555 1_555
O3C Mo1 1_555 1_555
O6B Mo2 1_555 1_555
O13_2 Cu1 1_555 1_555
Mo2 O10 1_555 1_555
Cu1 O8 1_555 1_555
P2 O5 1_555 1_555
P2 C1 1_555 1_555
O7 C1 1_555 1_555
C2 C5 1_555 1_555
C7 C13 1_555 1_555
C10 C14 1_555 1_555
C11 C12 1_555 1_555

#END
