
#######################################################################
#
#                 Cambridge Crystallographic Data Centre
#                                CCDC 
#
#######################################################################
#
# If this CIF has been generated from an entry in the Cambridge 
# Structural Database, then it will include bibliographic, chemical, 
# crystal, experimental, refinement or atomic coordinate data resulting 
# from the CCDC's data processing and validation procedures.
#
#######################################################################

data_GEVPOM
_symmetry_cell_setting           triclinic
_symmetry_space_group_name_H-M   'P -1'
_symmetry_Int_Tables_number      2
_space_group_name_Hall           '-P 1'
loop_
_symmetry_equiv_pos_site_id
_symmetry_equiv_pos_as_xyz
1 x,y,z
2 -x,-y,-z
_cell_length_a                   5.038(1)
_cell_length_b                   5.970(1)
_cell_length_c                   15.774(6)
_cell_angle_alpha                80.77(2)
_cell_angle_beta                 86.42(2)
_cell_angle_gamma                84.38(2)
_cell_volume                     465.511
loop_
_atom_site_label
_atom_site_type_symbol
_atom_site_fract_x
_atom_site_fract_y
_atom_site_fract_z
Hg1 Hg 0.4628(8) 0.3036(7) 0.0385(3)
C1 C 0.3043(30) -0.3766(24) 0.2574(10)
C2 C 0.5088(32) -0.5382(28) 0.2826(12)
F1 F 0.5658(29) -0.7215(24) 0.2413(10)
C3 C 0.6548(37) -0.5275(31) 0.3536(13)
F2 F 0.8506(29) -0.6898(30) 0.3776(11)
C4 C 0.6044(37) -0.3519(38) 0.3990(12)
F3 F 0.7564(31) -0.3357(25) 0.4639(9)
C5 C 0.4113(44) -0.1831(36) 0.3723(12)
F4 F 0.3539(35) -0.0078(26) 0.4131(10)
C6 C 0.2637(32) -0.1977(30) 0.3032(11)
F5 F 0.0582(29) -0.0328(22) 0.2824(9)
O1 O 0.1711(26) -0.4094(20) 0.1885(9)
C7 C -0.0105(35) -0.2400(36) 0.1462(14)
C8 C 0.1088(25) -0.0291(24) 0.1022(9)
O2 O 0.3647(18) -0.0284(17) 0.0954(8)
O3 O -0.0464(24) 0.1444(25) 0.0766(9)
Hg1A Hg 0.5372(8) 0.6964(7) -0.0385(3)
O3_2 O 0.9536(24) 0.1444(25) 0.0766(9)
O2A O 0.6353(18) 1.0284(17) -0.0954(8)
O3A O 0.0464(24) 0.8556(25) -0.0766(9)
Hg1_2 Hg -0.5372(8) 0.3036(7) 0.0385(3)
C8A C 0.8912(25) 1.0291(24) -0.1022(9)
C7A C 1.0105(35) 1.2400(36) -0.1462(14)
O3A_2 O 1.0464(24) 0.8556(25) -0.0766(9)
O1A O 0.8289(26) 1.4094(20) -0.1885(9)
Hg1A_2 Hg 1.5372(8) 0.6964(7) -0.0385(3)
C1A C 0.6957(30) 1.3766(24) -0.2574(10)
C2A C 0.4912(32) 1.5382(28) -0.2826(12)
C6A C 0.7363(32) 1.1977(30) -0.3032(11)
F1A F 0.4342(29) 1.7215(24) -0.2413(10)
C3A C 0.3452(37) 1.5275(31) -0.3536(13)
C5A C 0.5887(44) 1.1831(36) -0.3723(12)
F5A F 0.9418(29) 1.0328(22) -0.2824(9)
F2A F 0.1494(29) 1.6898(30) -0.3776(11)
C4A C 0.3956(37) 1.3519(38) -0.3990(12)
F4A F 0.6461(35) 1.0078(26) -0.4131(10)
F3A F 0.2436(31) 1.3357(25) -0.4639(9)
loop_
_geom_bond_atom_site_label_1
_geom_bond_atom_site_label_2
_geom_bond_site_symmetry_1
_geom_bond_site_symmetry_2
Hg1 O2 1_555 1_555
C1 C2 1_555 1_555
C2 F1 1_555 1_555
C3 C2 1_555 1_555
F2 C3 1_555 1_555
C4 C3 1_555 1_555
F3 C4 1_555 1_555
C5 C4 1_555 1_555
F4 C5 1_555 1_555
C6 C1 1_555 1_555
F5 C6 1_555 1_555
O1 C1 1_555 1_555
C7 O1 1_555 1_555
C8 C7 1_555 1_555
O2 C8 1_555 1_555
O3 C8 1_555 1_555
Hg1A Hg1 1_555 1_555
O3_2 Hg1 1_555 1_555
O2A Hg1A 1_555 1_555
O3A Hg1A 1_555 1_555
Hg1_2 O3 1_555 1_555
C8A O2A 1_555 1_555
C7A C8A 1_555 1_555
O3A_2 C8A 1_555 1_555
O1A C7A 1_555 1_555
Hg1A_2 O3A_2 1_555 1_555
C1A O1A 1_555 1_555
C2A C1A 1_555 1_555
C6A C1A 1_555 1_555
F1A C2A 1_555 1_555
C3A C2A 1_555 1_555
C5A C6A 1_555 1_555
F5A C6A 1_555 1_555
F2A C3A 1_555 1_555
C4A C3A 1_555 1_555
F4A C5A 1_555 1_555
F3A C4A 1_555 1_555
C5 C6 1_555 1_555
C5A C4A 1_555 1_555

#END
