
#######################################################################
#
#                 Cambridge Crystallographic Data Centre
#                                CCDC 
#
#######################################################################
#
# If this CIF has been generated from an entry in the Cambridge 
# Structural Database, then it will include bibliographic, chemical, 
# crystal, experimental, refinement or atomic coordinate data resulting 
# from the CCDC's data processing and validation procedures.
#
#######################################################################

data_GEVQIH
_symmetry_cell_setting           monoclinic
_symmetry_space_group_name_H-M   'P 21/c'
_symmetry_Int_Tables_number      14
_space_group_name_Hall           '-P 2ybc'
loop_
_symmetry_equiv_pos_site_id
_symmetry_equiv_pos_as_xyz
1 x,y,z
2 -x,1/2+y,1/2-z
3 -x,-y,-z
4 x,1/2-y,1/2+z
_cell_length_a                   7.239(1)
_cell_length_b                   15.209(3)
_cell_length_c                   7.560(1)
_cell_angle_alpha                90
_cell_angle_beta                 98.89(1)
_cell_angle_gamma                90
_cell_volume                     822.341
loop_
_atom_site_label
_atom_site_type_symbol
_atom_site_fract_x
_atom_site_fract_y
_atom_site_fract_z
Na1 Na 0.7504(2) 0.5154(1) 0.4592(2)
N1 N 0.7903(5) 0.3637(2) 0.5906(4)
C1 C 0.9080(6) 0.3058(3) 0.6730(6)
N2 N 0.8623(5) 0.2190(2) 0.6429(5)
C2 C 0.7025(5) 0.2251(2) 0.5308(5)
N3 N 0.5910(5) 0.1606(2) 0.4508(4)
C3 C 0.4276(5) 0.1809(3) 0.3348(5)
O1 O 0.3308(4) 0.1173(2) 0.2665(4)
C4 C 0.3827(5) 0.2706(3) 0.3041(5)
C5 C 0.4957(5) 0.3390(2) 0.3806(5)
O2 O 0.4752(4) 0.4203(2) 0.3597(4)
N4 N 0.6552(4) 0.3099(2) 0.4979(4)
O3 O 0.9927(4) 0.4514(2) 0.2985(4)
O1A O 0.6692(4) 0.6173(2) 0.2335(4)
O2B O 0.5248(4) 0.5797(2) 0.6403(4)
O3B O 1.0073(4) 0.5486(2) 0.7015(4)
Na1A Na 0.2496(2) 0.0154(1) 0.0408(2)
Na1B Na 0.2496(2) 0.4846(1) 0.5408(2)
Na1B_2 Na 1.2496(2) 0.4846(1) 0.5408(2)
O4 O 0.2662(4) 0.4906(2) 0.0554(4)
loop_
_geom_bond_atom_site_label_1
_geom_bond_atom_site_label_2
_geom_bond_site_symmetry_1
_geom_bond_site_symmetry_2
Na1 N1 1_555 1_555
N1 C1 1_555 1_555
C1 N2 1_555 1_555
N2 C2 1_555 1_555
C2 N3 1_555 1_555
N3 C3 1_555 1_555
C3 O1 1_555 1_555
O1 Na1A 1_555 1_555
C4 C3 1_555 1_555
C5 C4 1_555 1_555
O2 Na1 1_555 1_555
N4 N1 1_555 1_555
O3 Na1 1_555 1_555
O1A Na1 1_555 1_555
O2B Na1 1_555 1_555
O3B Na1 1_555 1_555
Na1B O2 1_555 1_555
Na1B_2 O3 1_555 1_555
C2 N4 1_555 1_555
C5 O2 1_555 1_555
C5 N4 1_555 1_555
O2B Na1B 1_555 1_555
O3B Na1B_2 1_555 1_555

#END
