
#######################################################################
#
#                 Cambridge Crystallographic Data Centre
#                                CCDC 
#
#######################################################################
#
# If this CIF has been generated from an entry in the Cambridge 
# Structural Database, then it will include bibliographic, chemical, 
# crystal, experimental, refinement or atomic coordinate data resulting 
# from the CCDC's data processing and validation procedures.
#
#######################################################################

data_GEVRUW
_symmetry_cell_setting           monoclinic
_symmetry_space_group_name_H-M   'C 2/c'
_symmetry_Int_Tables_number      15
_space_group_name_Hall           '-C 2yn'
loop_
_symmetry_equiv_pos_site_id
_symmetry_equiv_pos_as_xyz
1 x,y,z
2 -x,y,1/2-z
3 1/2+x,1/2+y,z
4 1/2-x,1/2+y,1/2-z
5 -x,-y,-z
6 x,-y,1/2+z
7 1/2-x,1/2-y,-z
8 1/2+x,1/2-y,1/2+z
_cell_length_a                   17.746(5)
_cell_length_b                   12.105(4)
_cell_length_c                   15.306(5)
_cell_angle_alpha                90
_cell_angle_beta                 90.244(7)
_cell_angle_gamma                90
_cell_volume                     3287.93
loop_
_atom_site_label
_atom_site_type_symbol
_atom_site_fract_x
_atom_site_fract_y
_atom_site_fract_z
N3 N 0.7927(9) 0.2573(12) 0.0207(9)
O2 O 0.7327(7) 0.3153(6) 0.0414(3)
O3 O 0.8596(10) 0.2441(12) 0.0556(8)
N3F N 0.7073(9) 0.2427(12) -0.0207(9)
O2F O 0.7673(7) 0.1847(6) -0.0414(3)
O3F O 0.6404(10) 0.2559(12) -0.0556(8)
N4 N 1.0000 0.0208(7) 0.2500
O4 O 0.9485(3) -0.0295(4) 0.2896(5)
O5 O 0.9666(7) 0.1162(9) 0.2313(8)
O4A O 1.0515(3) -0.0295(4) 0.2104(5)
O5A O 1.0334(7) 0.1162(9) 0.2687(8)
C1 C 0.67443(19) 0.1875(3) 0.2245(2)
H1 H 0.6612 0.2526 0.1959
C2 C 0.7498(2) 0.1553(3) 0.2255(3)
H2 H 0.7859 0.1979 0.1974
C3 C 0.7702(2) 0.0607(4) 0.2681(3)
H3 H 0.8203 0.0381 0.2689
C4 C 0.7149(2) -0.0021(3) 0.3108(2)
H4 H 0.7273 -0.0664 0.3408
C5 C 0.64084(17) 0.0350(3) 0.3064(2)
C6 C 0.57889(17) -0.0276(3) 0.34857(19)
H5 H 0.5885 -0.0942 0.3769
C7 C 0.44992(17) -0.0505(3) 0.37903(19)
C8 C 0.39275(19) 0.0067(3) 0.4225(2)
H6 H 0.3980 0.0817 0.4341
C9 C 0.3278(2) -0.0491(3) 0.4483(2)
H7 H 0.2902 -0.0108 0.4777
C10 C 0.3183(2) -0.1607(3) 0.4310(2)
C11 C 0.3768(2) -0.2179(3) 0.3879(3)
H8 H 0.3717 -0.2930 0.3766
C12 C 0.4419(2) -0.1630(3) 0.3622(2)
H9 H 0.4800 -0.2014 0.3337
C13 C 0.2459(2) -0.2204(4) 0.4575(3)
H10 H 0.2054 -0.1670 0.4620
H11 H 0.2323 -0.2731 0.4124
C14 C 0.4739(4) 0.2691(5) 0.0758(4)
H12 H 0.4575 0.1951 0.0638
H13 H 0.5075 0.2931 0.0306
H14 H 0.4310 0.3174 0.0776
N1 N 0.62022(15) 0.1281(2) 0.26310(18)
N2 N 0.51174(14) 0.0121(2) 0.34513(16)
O1 O 0.51094(16) 0.2718(2) 0.15552(18)
Zn1 Zn 0.5000 0.14922(4) 0.2500
C1F C -0.17443(19) -0.6875(3) 0.7755(2)
H1F H -0.1612 -0.7526 0.8041
C2F C -0.2498(2) -0.6553(3) 0.7745(3)
H2F H -0.2859 -0.6979 0.8026
C3F C -0.2702(2) -0.5607(4) 0.7319(3)
H3F H -0.3203 -0.5381 0.7311
C4F C -0.2149(2) -0.4979(3) 0.6892(2)
H4F H -0.2273 -0.4336 0.6592
C5F C -0.14084(17) -0.5350(3) 0.6936(2)
C6F C -0.07889(17) -0.4724(3) 0.65143(19)
H5F H -0.0885 -0.4058 0.6231
C7F C 0.05008(17) -0.4495(3) 0.62097(19)
C8F C 0.10725(19) -0.5067(3) 0.5775(2)
H6F H 0.1020 -0.5817 0.5659
C9F C 0.1722(2) -0.4509(3) 0.5517(2)
H7F H 0.2098 -0.4892 0.5223
C10F C 0.1817(2) -0.3393(3) 0.5690(2)
C11F C 0.1232(2) -0.2821(3) 0.6121(3)
H8F H 0.1283 -0.2070 0.6234
C12F C 0.0581(2) -0.3370(3) 0.6378(2)
H9F H 0.0200 -0.2986 0.6663
C13F C 0.2541(2) -0.2796(4) 0.5425(3)
H10F H 0.2946 -0.3330 0.5380
H11F H 0.2677 -0.2269 0.5876
N1F N -0.12022(15) -0.6281(2) 0.73690(18)
N2F N -0.01174(14) -0.5121(2) 0.65487(16)
C14A C 0.5261(4) 0.2691(5) 0.4242(4)
H12A H 0.5425 0.1951 0.4362
H13A H 0.4925 0.2931 0.4694
H14A H 0.5690 0.3174 0.4224
O1A O 0.48906(16) 0.2718(2) 0.34448(18)
N1A N 0.37978(15) 0.1281(2) 0.23690(18)
N2A N 0.48826(14) 0.0121(2) 0.15487(16)
Zn1F Zn 0.0000 -0.64922(4) 0.7500
loop_
_geom_bond_atom_site_label_1
_geom_bond_atom_site_label_2
_geom_bond_site_symmetry_1
_geom_bond_site_symmetry_2
C1 H1 1_555 1_555
C2 C1 1_555 1_555
H2 C2 1_555 1_555
C3 C2 1_555 1_555
H3 C3 1_555 1_555
C4 C3 1_555 1_555
H4 C4 1_555 1_555
C5 C4 1_555 1_555
C6 C5 1_555 1_555
H5 C6 1_555 1_555
C7 C8 1_555 1_555
C8 H6 1_555 1_555
C9 C8 1_555 1_555
H7 C9 1_555 1_555
C10 C9 1_555 1_555
C11 C10 1_555 1_555
H8 C11 1_555 1_555
C12 C7 1_555 1_555
H9 C12 1_555 1_555
C13 C10 1_555 1_555
H10 C13 1_555 1_555
H11 C13 1_555 1_555
C14 H12 1_555 1_555
H13 C14 1_555 1_555
H14 C14 1_555 1_555
N1 C1 1_555 1_555
N2 C6 1_555 1_555
O1 C14 1_555 1_555
Zn1 N1 1_555 1_555
N3 O2 1_555 1_555
O2 N3F 1_555 1_555
O3 N3 1_555 1_555
N4 O4 1_555 1_555
O5 N4 1_555 1_555
C1F H1F 1_555 1_555
C2F C1F 1_555 1_555
H2F C2F 1_555 1_555
C3F C2F 1_555 1_555
H3F C3F 1_555 1_555
C4F C3F 1_555 1_555
H4F C4F 1_555 1_555
C5F C4F 1_555 1_555
C6F C5F 1_555 1_555
H5F C6F 1_555 1_555
C7F C8F 1_555 1_555
C8F H6F 1_555 1_555
C9F C8F 1_555 1_555
H7F C9F 1_555 1_555
C10F C9F 1_555 1_555
C11F C10F 1_555 1_555
H8F C11F 1_555 1_555
C12F C7F 1_555 1_555
H9F C12F 1_555 1_555
C13F C13 1_555 1_555
H10F C13F 1_555 1_555
H11F C13F 1_555 1_555
N1F C1F 1_555 1_555
N2F C6F 1_555 1_555
C14A H12A 1_555 1_555
H13A C14A 1_555 1_555
H14A C14A 1_555 1_555
O1A Zn1 1_555 1_555
N1A Zn1 1_555 1_555
N2A Zn1 1_555 1_555
Zn1F N1F 1_555 1_555
N3F N3 1_555 1_555
O2F N3 1_555 1_555
O3F N3F 1_555 1_555
O4A N4 1_555 1_555
O5A N4 1_555 1_555
C5 N1 1_555 1_555
C7 N2 1_555 1_555
C11 C12 1_555 1_555
N2 Zn1 1_555 1_555
O1 Zn1 1_555 1_555
O5 O5A 1_555 1_555
C5F N1F 1_555 1_555
C7F N2F 1_555 1_555
C10F C13F 1_555 1_555
C11F C12F 1_555 1_555
N2F Zn1F 1_555 1_555
C14A O1A 1_555 1_555
N3F O2F 1_555 1_555

#END
