
#######################################################################
#
#                 Cambridge Crystallographic Data Centre
#                                CCDC 
#
#######################################################################
#
# If this CIF has been generated from an entry in the Cambridge 
# Structural Database, then it will include bibliographic, chemical, 
# crystal, experimental, refinement or atomic coordinate data resulting 
# from the CCDC's data processing and validation procedures.
#
#######################################################################

data_GEVSAD
_symmetry_cell_setting           monoclinic
_symmetry_space_group_name_H-M   'P 21/n'
_symmetry_Int_Tables_number      14
_space_group_name_Hall           '-P 2yn'
loop_
_symmetry_equiv_pos_site_id
_symmetry_equiv_pos_as_xyz
1 x,y,z
2 1/2-x,1/2+y,1/2-z
3 -x,-y,-z
4 1/2+x,1/2-y,1/2+z
_cell_length_a                   15.305(4)
_cell_length_b                   10.611(3)
_cell_length_c                   18.043(5)
_cell_angle_alpha                90
_cell_angle_beta                 93.120(7)
_cell_angle_gamma                90
_cell_volume                     2925.86
loop_
_atom_site_label
_atom_site_type_symbol
_atom_site_fract_x
_atom_site_fract_y
_atom_site_fract_z
C1 C 0.26917(18) 0.7369(3) -0.14390(15)
H1 H 0.2990 0.8101 -0.1257
C2 C 0.27068(19) 0.7080(3) -0.21878(16)
H2 H 0.3017 0.7602 -0.2511
C3 C 0.22665(19) 0.6029(3) -0.24579(15)
H3 H 0.2269 0.5814 -0.2969
C4 C 0.18200(18) 0.5292(3) -0.19684(15)
H4 H 0.1500 0.4572 -0.2138
C5 C 0.18520(17) 0.5629(3) -0.12298(14)
C6 C 0.14032(17) 0.4847(3) -0.06942(14)
H5 H 0.1075 0.4131 -0.0860
C7 C 0.10538(16) 0.4344(3) 0.05161(14)
C8 C 0.0975(2) 0.3049(3) 0.04216(15)
H6 H 0.1195 0.2658 -0.0004
C9 C 0.0575(2) 0.2321(3) 0.09502(16)
H7 H 0.0520 0.1438 0.0878
C10 C 0.02564(17) 0.2867(3) 0.15810(15)
C11 C 0.03550(18) 0.4159(3) 0.16683(15)
H8 H 0.0149 0.4550 0.2099
C12 C 0.07442(18) 0.4892(3) 0.11462(14)
H9 H 0.0799 0.5776 0.1220
C13 C -0.02080(19) 0.2069(3) 0.21348(15)
H10 H 0.0003 0.1190 0.2103
H11 H -0.0843 0.2069 0.1996
C14 C -0.19056(16) -0.0416(2) 0.65304(14)
C15 C -0.17013(17) -0.0023(3) 0.72501(14)
H12 H -0.1323 0.0675 0.7347
C16 C -0.2061(2) -0.0672(3) 0.78283(15)
H13 H -0.1940 -0.0420 0.8329
C17 C -0.2598(2) -0.1693(3) 0.76629(16)
H14 H -0.2849 -0.2158 0.8048
C18 C -0.27626(19) -0.2025(3) 0.69262(15)
H15 H -0.3129 -0.2730 0.6816
C19 C -0.15258(16) 0.0227(3) 0.59012(14)
H16 H -0.1203 0.0985 0.5978
C20 C -0.12849(16) 0.0440(3) 0.46542(13)
C21 C -0.14155(18) 0.1733(3) 0.45786(15)
H17 H -0.1758 0.2173 0.4918
C22 C -0.10449(19) 0.2374(3) 0.40067(15)
H18 H -0.1135 0.3257 0.3961
C23 C -0.05460(17) 0.1763(3) 0.34987(15)
C24 C -0.04668(17) 0.0457(3) 0.35519(14)
H19 H -0.0160 0.0012 0.3190
C25 C -0.08292(17) -0.0211(3) 0.41265(14)
H20 H -0.0766 -0.1100 0.4158
C26 C -0.00727(19) 0.2518(3) 0.29324(15)
H21 H -0.0267 0.3406 0.2958
H22 H 0.0562 0.2499 0.3072
N1 N -0.16337(14) -0.0242(2) 0.52518(11)
N2 N -0.24317(14) -0.1402(2) 0.63652(12)
N3 N 0.14567(13) 0.5135(2) -0.00036(12)
N4 N 0.22718(14) 0.6651(2) -0.09655(12)
O1 O 0.31779(15) 0.8318(2) 0.02699(12)
H23 H 0.2904 0.8959 0.0112
O2 O 0.13407(16) 0.8031(2) 0.02948(13)
H24 H 0.1337 0.8535 -0.0064
Zn1 Zn 0.23509(2) 0.67647(3) 0.021212(16)
H25 H 0.104(3) 0.822(4) 0.065(2)
H26 H 0.376(2) 0.823(3) 0.0150(19)
N1C N 0.33663(14) 0.5242(2) 0.02518(11)
N2C N 0.25683(14) 0.6402(2) 0.13652(12)
Zn1C Zn -0.26491(2) -0.17647(3) 0.521212(16)
N5 N 0.17513(17) 0.0687(2) 0.92372(14)
O3 O 0.16522(15) 0.1668(2) 0.88702(12)
O4 O 0.11149(15) -0.0018(2) 0.93371(14)
O5 O 0.24827(17) 0.0375(3) 0.9487(2)
N6 N 0.50849(16) 0.1850(2) 0.21000(14)
O6 O 0.45612(15) 0.2588(2) 0.17862(13)
O7 O 0.54727(14) 0.1027(2) 0.17390(12)
O8 O 0.52450(15) 0.1913(2) 0.27873(12)
O9 O 0.96317(14) 0.1161(2) 0.86221(12)
H27 H 0.982(2) 0.191(4) 0.836(2)
H28 H 1.014(3) 0.079(4) 0.889(2)
O10 O 0.52334(17) 0.1259(3) 0.02390(14)
H29 H 0.522(10) 0.052(6) 0.004(8)
H30 H 0.530(3) 0.136(4) 0.0731(11)
loop_
_geom_bond_atom_site_label_1
_geom_bond_atom_site_label_2
_geom_bond_site_symmetry_1
_geom_bond_site_symmetry_2
C1 H1 1_555 1_555
C2 C1 1_555 1_555
H2 C2 1_555 1_555
C3 C2 1_555 1_555
H3 C3 1_555 1_555
C4 C3 1_555 1_555
H4 C4 1_555 1_555
C5 C4 1_555 1_555
C6 C5 1_555 1_555
H5 C6 1_555 1_555
C7 C8 1_555 1_555
C8 H6 1_555 1_555
C9 C8 1_555 1_555
H7 C9 1_555 1_555
C10 C9 1_555 1_555
C11 C10 1_555 1_555
H8 C11 1_555 1_555
C12 C7 1_555 1_555
H9 C12 1_555 1_555
C13 C10 1_555 1_555
H10 C13 1_555 1_555
H11 C13 1_555 1_555
C14 C15 1_555 1_555
C15 H12 1_555 1_555
C16 C15 1_555 1_555
H13 C16 1_555 1_555
C17 C16 1_555 1_555
H14 C17 1_555 1_555
C18 C17 1_555 1_555
H15 C18 1_555 1_555
C19 C14 1_555 1_555
H16 C19 1_555 1_555
C20 C21 1_555 1_555
C21 H17 1_555 1_555
C22 C21 1_555 1_555
H18 C22 1_555 1_555
C23 C22 1_555 1_555
C24 C23 1_555 1_555
H19 C24 1_555 1_555
C25 C20 1_555 1_555
H20 C25 1_555 1_555
C26 C13 1_555 1_555
H21 C26 1_555 1_555
H22 C26 1_555 1_555
N1 C19 1_555 1_555
N2 C14 1_555 1_555
N3 C6 1_555 1_555
N4 C1 1_555 1_555
O1 H23 1_555 1_555
O2 H24 1_555 1_555
Zn1 N3 1_555 1_555
H25 O2 1_555 1_555
H26 O1 1_555 1_555
N5 O3 1_555 1_555
O4 N5 1_555 1_555
O5 N5 1_555 1_555
N6 O6 1_555 1_555
O7 N6 1_555 1_555
O8 N6 1_555 1_555
O9 H27 1_555 1_555
H28 O9 1_555 1_555
O10 H29 1_555 1_555
H30 O10 1_555 1_555
N1C Zn1 1_555 1_555
N2C Zn1 1_555 1_555
Zn1C N1 1_555 1_555
C5 N4 1_555 1_555
C7 N3 1_555 1_555
C11 C12 1_555 1_555
C18 N2 1_555 1_555
C20 N1 1_555 1_555
C23 C26 1_555 1_555
C24 C25 1_555 1_555
N2 Zn1C 1_555 1_555
N4 Zn1 1_555 1_555
O1 Zn1 1_555 1_555
O2 Zn1 1_555 1_555

#END
