
#######################################################################
#
#                 Cambridge Crystallographic Data Centre
#                                CCDC 
#
#######################################################################
#
# If this CIF has been generated from an entry in the Cambridge 
# Structural Database, then it will include bibliographic, chemical, 
# crystal, experimental, refinement or atomic coordinate data resulting 
# from the CCDC's data processing and validation procedures.
#
#######################################################################

data_GEVXAI
_symmetry_cell_setting           monoclinic
_symmetry_space_group_name_H-M   'P 21/n'
_symmetry_Int_Tables_number      14
_space_group_name_Hall           '-P 2yn'
loop_
_symmetry_equiv_pos_site_id
_symmetry_equiv_pos_as_xyz
1 x,y,z
2 1/2-x,1/2+y,1/2-z
3 -x,-y,-z
4 1/2+x,1/2-y,1/2+z
_cell_length_a                   10.7329(5)
_cell_length_b                   7.1849(2)
_cell_length_c                   17.1753(8)
_cell_angle_alpha                90
_cell_angle_beta                 97.160(4)
_cell_angle_gamma                90
_cell_volume                     1314.14
loop_
_atom_site_label
_atom_site_type_symbol
_atom_site_fract_x
_atom_site_fract_y
_atom_site_fract_z
Gd1 Gd 0.174985(11) -0.020039(15) 0.246840(6)
C1 C 0.4056(2) -0.2517(3) 0.37443(14)
C2 C 0.4521(2) -0.1177(3) 0.43813(14)
C3 C 0.4577(2) 0.0742(3) 0.42663(14)
C4 C 0.4160(2) 0.1731(3) 0.35129(14)
C5 C 0.4944(2) -0.1899(4) 0.51182(14)
C6 C 0.1085(2) -0.3525(4) 0.36595(14)
C7 C 0.0473(2) -0.4284(4) 0.43345(14)
C8 C -0.0537(3) -0.3412(4) 0.46305(15)
C9 C -0.1220(3) -0.1814(4) 0.42079(16)
C10 C 0.0990(3) -0.5882(4) 0.47051(15)
O1 O 0.35572(16) -0.1894(2) 0.30777(9)
O2 O 0.4171(2) -0.4210(2) 0.38629(11)
O3 O 0.29724(16) 0.1919(2) 0.32957(10)
O4 O 0.49396(17) 0.2523(3) 0.31535(10)
O5 O 0.11243(18) -0.1789(2) 0.35712(11)
O6 O 0.15493(19) -0.4688(3) 0.32378(11)
O7 O -0.1535(2) -0.1824(3) 0.35008(12)
O8 O -0.1484(3) -0.0474(3) 0.46699(14)
O9 O -0.0096(2) 0.1166(4) 0.28315(16)
H1 H 0.493(3) -0.317(5) 0.5194(17)
H2 H -0.190(5) 0.034(6) 0.440(3)
H3 H 0.167(3) -0.651(4) 0.4482(16)
H4 H -0.034(4) 0.216(6) 0.277(2)
H5 H -0.054(5) 0.057(7) 0.305(3)
C1B C 0.5944(2) 0.2517(3) 0.62557(14)
C2B C 0.5479(2) 0.1177(3) 0.56187(14)
C3B C 0.5423(2) -0.0742(3) 0.57337(14)
C4B C 0.5840(2) -0.1731(3) 0.64871(14)
C5B C 0.5056(2) 0.1899(4) 0.48818(14)
O1B O 0.64428(16) 0.1894(2) 0.69223(9)
O2B O 0.5829(2) 0.4210(2) 0.61371(11)
O3B O 0.70276(16) -0.1919(2) 0.67043(10)
O4B O 0.50604(17) -0.2523(3) 0.68465(10)
H1B H 0.507(3) 0.317(5) 0.4806(17)
C6B C -0.1085(2) -0.6475(4) 0.63405(14)
C7B C -0.0473(2) -0.5716(4) 0.56655(14)
C8B C 0.0537(3) -0.6588(4) 0.53695(15)
C9B C 0.1220(3) -0.8186(4) 0.57921(16)
C10B C -0.0990(3) -0.4118(4) 0.52949(15)
O5B O -0.11243(18) -0.8211(2) 0.64288(11)
O6B O -0.15493(19) -0.5312(3) 0.67622(11)
O7B O 0.1535(2) -0.8176(3) 0.64992(12)
O8B O 0.1484(3) -0.9526(3) 0.53301(14)
H2B H 0.190(5) -1.034(6) 0.560(3)
H3B H -0.167(3) -0.349(4) 0.5518(16)
Gd1B Gd -0.174985(11) -0.979961(15) 0.753160(6)
O9B O 0.0096(2) -1.1166(4) 0.71685(16)
H4B H 0.034(4) -1.216(6) 0.723(2)
H5B H 0.054(5) -1.057(7) 0.695(3)
Gd1A Gd 0.325015(11) -0.520039(15) 0.253160(6)
Gd1A_2 Gd 0.325015(11) 0.479961(15) 0.253160(6)
Gd1B_2 Gd 0.825015(11) 0.020039(15) 0.753160(6)
Gd1C Gd -0.325015(11) -0.479961(15) 0.746840(6)
Gd1C_2 Gd 0.674985(11) -0.479961(15) 0.746840(6)
Gd1C_3 Gd 0.674985(11) 0.520039(15) 0.746840(6)
O1A O 0.14428(16) 0.3106(2) 0.19223(9)
O1B_2 O -0.35572(16) -0.8106(2) 0.69223(9)
O1C O -0.14428(16) -1.3106(2) 0.80777(9)
O2A O 0.0829(2) 0.0790(2) 0.11371(11)
O2C O -0.0829(2) -1.0790(2) 0.88629(11)
O3A O 0.20276(16) -0.3081(2) 0.17043(10)
O3B_2 O -0.29724(16) -1.1919(2) 0.67043(10)
O3C O -0.20276(16) -0.6919(2) 0.82957(10)
O4A O 0.00604(17) -0.2477(3) 0.18465(10)
O4C O -0.00604(17) -0.7523(3) 0.81535(10)
O6A O 0.34507(19) 0.0312(3) 0.17622(11)
O6C O -0.34507(19) -1.0312(3) 0.82378(11)
O10 O -0.1504(3) 0.4379(4) 0.26715(19)
H6 H -0.194(5) 0.428(8) 0.223(3)
H7 H -0.132(6) 0.533(8) 0.273(4)
O11 O -0.2527(3) 0.2373(4) 0.38679(19)
H8 H -0.335(6) 0.237(8) 0.368(3)
H9 H -0.220(4) 0.313(7) 0.365(3)
loop_
_geom_bond_atom_site_label_1
_geom_bond_atom_site_label_2
_geom_bond_site_symmetry_1
_geom_bond_site_symmetry_2
Gd1 O1 1_555 1_555
C1 C2 1_555 1_555
C2 C3 1_555 1_555
C3 C4 1_555 1_555
C4 O3 1_555 1_555
C5 C2 1_555 1_555
C6 C7 1_555 1_555
C7 C8 1_555 1_555
C8 C9 1_555 1_555
C9 O7 1_555 1_555
C10 C7 1_555 1_555
O1 C1 1_555 1_555
O2 C1 1_555 1_555
O3 Gd1 1_555 1_555
O4 C4 1_555 1_555
O5 Gd1 1_555 1_555
O6 C6 1_555 1_555
O8 C9 1_555 1_555
O9 Gd1 1_555 1_555
H1 C5 1_555 1_555
H2 O8 1_555 1_555
H3 C10 1_555 1_555
H4 O9 1_555 1_555
H5 O9 1_555 1_555
O10 H6 1_555 1_555
H7 O10 1_555 1_555
O11 H8 1_555 1_555
H9 O11 1_555 1_555
C1B C2B 1_555 1_555
C2B C3B 1_555 1_555
C3B C5 1_555 1_555
C4B C3B 1_555 1_555
C5B C3 1_555 1_555
O1B C1B 1_555 1_555
O2B C1B 1_555 1_555
O3B C4B 1_555 1_555
O4B C4B 1_555 1_555
H1B C5B 1_555 1_555
C6B C7B 1_555 1_555
C7B C8B 1_555 1_555
C8B C10 1_555 1_555
C9B C8B 1_555 1_555
C10B C8 1_555 1_555
O5B C6B 1_555 1_555
O6B C6B 1_555 1_555
O7B C9B 1_555 1_555
O8B C9B 1_555 1_555
H2B O8B 1_555 1_555
H3B C10B 1_555 1_555
Gd1B O5B 1_555 1_555
O9B Gd1B 1_555 1_555
H4B O9B 1_555 1_555
H5B O9B 1_555 1_555
Gd1A O1 1_555 1_555
Gd1A_2 O3 1_555 1_555
Gd1B_2 O1B 1_555 1_555
Gd1C O6B 1_555 1_555
Gd1C_2 O3B 1_555 1_555
Gd1C_3 O1B 1_555 1_555
O1A Gd1 1_555 1_555
O1B_2 Gd1B 1_555 1_555
O1C Gd1B 1_555 1_555
O2A Gd1 1_555 1_555
O2C Gd1B 1_555 1_555
O3A Gd1 1_555 1_555
O3B_2 Gd1B 1_555 1_555
O3C Gd1B 1_555 1_555
O4A Gd1 1_555 1_555
O4C Gd1B 1_555 1_555
O6A Gd1 1_555 1_555
O6C Gd1B 1_555 1_555
C6 O5 1_555 1_555
O2 Gd1A 1_555 1_555
O4 Gd1A_2 1_555 1_555
O6 Gd1A 1_555 1_555
C2B C5B 1_555 1_555
O2B Gd1C_3 1_555 1_555
O3B Gd1B_2 1_555 1_555
O4B Gd1C_2 1_555 1_555
C7B C10B 1_555 1_555
Gd1A O3A 1_555 1_555
Gd1A_2 O1A 1_555 1_555
Gd1C O1B_2 1_555 1_555
Gd1C O3C 1_555 1_555

#END
