
#######################################################################
#
#                 Cambridge Crystallographic Data Centre
#                                CCDC 
#
#######################################################################
#
# If this CIF has been generated from an entry in the Cambridge 
# Structural Database, then it will include bibliographic, chemical, 
# crystal, experimental, refinement or atomic coordinate data resulting 
# from the CCDC's data processing and validation procedures.
#
#######################################################################

data_GEVZUE01
_symmetry_cell_setting           tetragonal
_symmetry_space_group_name_H-M   'P 43 21 2'
_symmetry_Int_Tables_number      96
_space_group_name_Hall           'P 4nw 2abw'
loop_
_symmetry_equiv_pos_site_id
_symmetry_equiv_pos_as_xyz
1 x,y,z
2 1/2-y,1/2+x,3/4+z
3 -x,-y,1/2+z
4 1/2+y,1/2-x,1/4+z
5 1/2+x,1/2-y,1/4-z
6 y,x,-z
7 1/2-x,1/2+y,3/4-z
8 -y,-x,1/2-z
_cell_length_a                   10.317(9)
_cell_length_b                   10.317(9)
_cell_length_c                   23.56(4)
_cell_angle_alpha                90
_cell_angle_beta                 90
_cell_angle_gamma                90
_cell_volume                     2507.74
loop_
_atom_site_label
_atom_site_type_symbol
_atom_site_fract_x
_atom_site_fract_y
_atom_site_fract_z
Mn1 Mn 0.87963(7) 0.43839(8) 0.37050(3)
O1 O 0.9319(4) 0.3759(4) 0.28858(16)
O2 O 0.8935(4) 0.6301(4) 0.33879(17)
O3 O 0.6687(4) 0.4419(5) 0.35338(17)
O4 O 0.8448(5) 0.2309(4) 0.3835(2)
N1 N 1.0647(5) 0.5513(4) 0.17264(18)
O5 O 0.9889(4) 0.3165(4) 0.20391(16)
C1 C 0.9746(5) 0.4028(5) 0.2406(2)
C2 C 0.9501(5) 0.7020(5) 0.3043(2)
H1 H 0.6270 0.4060 0.3802
H2 H 0.6635 0.5236 0.3575
H3 H 0.8732 0.2094 0.4146
H4 H 0.7669 0.2183 0.3876
C3 C 1.0094(5) 0.5366(5) 0.2252(2)
O6 O 0.9621(4) 0.8225(4) 0.31250(17)
C4 C 1.0033(5) 0.6529(5) 0.2504(2)
Mn2 Mn 1.06635(8) 0.93365(8) 0.2500
N2 N 1.0553(5) 0.7435(4) 0.2148(2)
C5 C 1.0908(6) 0.6778(6) 0.1689(3)
O7 O 0.9567(19) 1.0865(12) 0.2750(12)
C6 C 1.1504(7) 0.7372(6) 0.1189(3)
H5 H 0.9619 1.1540 0.2545
H6 H 0.8771 1.0689 0.2802
H7 H 1.2023 0.6728 0.0993
H8 H 1.2078 0.8063 0.1310
C7 C 1.0514(10) 0.7916(9) 0.0782(3)
H9 H 1.0065 0.8634 0.0961
H10 H 0.9879 0.7253 0.0693
C8 C 1.1143(13) 0.8381(11) 0.0238(4)
H11 H 1.1721 0.9085 0.0321
H12 H 1.0485 0.8669 -0.0021
H13 H 1.1622 0.7682 0.0069
O7G O 0.9135(12) 1.0433(19) 0.2250(12)
H5G H 0.8460 1.0381 0.2455
H6G H 0.9311 1.1229 0.2198
Mn1G Mn 1.56161(8) 1.12037(7) 0.12950(3)
O1G O 1.6241(4) 1.0681(4) 0.21142(16)
O2G O 1.3699(4) 1.1065(4) 0.16121(17)
O3G O 1.5581(5) 1.3313(4) 0.14662(17)
O4G O 1.7691(4) 1.1552(5) 0.1165(2)
N1G N 1.4487(4) 0.9353(5) 0.32736(18)
O5G O 1.6835(4) 1.0111(4) 0.29609(16)
C1G C 1.5972(5) 1.0254(5) 0.2594(2)
C2G C 1.2980(5) 1.0499(5) 0.1957(2)
H1G H 1.5940 1.3730 0.1198
H2G H 1.4764 1.3365 0.1425
H3G H 1.7906 1.1268 0.0854
H4G H 1.7817 1.2331 0.1124
C3G C 1.4634(5) 0.9906(5) 0.2748(2)
O6G O 1.1775(4) 1.0379(4) 0.18750(17)
C4G C 1.3471(5) 0.9967(5) 0.2496(2)
N2G N 1.2565(4) 0.9447(5) 0.2852(2)
C5G C 1.3222(6) 0.9092(6) 0.3311(3)
C6G C 1.2628(6) 0.8496(7) 0.3811(3)
H7G H 1.3272 0.7977 0.4007
H8G H 1.1937 0.7922 0.3690
C7G C 1.2084(9) 0.9486(10) 0.4218(3)
H9G H 1.1366 0.9935 0.4039
H10G H 1.2747 1.0121 0.4307
C8G C 1.1619(11) 0.8857(13) 0.4762(4)
H11G H 1.0915 0.8279 0.4679
H12G H 1.1331 0.9515 0.5021
H13G H 1.2318 0.8378 0.4931
Mn1A Mn 1.06161(8) 0.37963(7) 0.12050(3)
Mn1F Mn 1.62037(7) 0.93839(8) 0.37950(3)
N1C N 1.0513(4) 0.4353(5) 0.42264(18)
N1D N 1.5647(5) 0.9487(4) 0.07736(18)
O5C O 0.8165(4) 0.5111(4) 0.45391(16)
O5D O 1.4889(4) 1.1835(4) 0.04609(16)
O8 O 0.6765(6) 0.3235(6) 0.2500
H14 H 0.6726 0.2408 0.2487
H15 H 0.6424 0.3523 0.2197
H14G H 0.7592 0.3274 0.2513
H15G H 0.6477 0.3576 0.2803
loop_
_geom_bond_atom_site_label_1
_geom_bond_atom_site_label_2
_geom_bond_site_symmetry_1
_geom_bond_site_symmetry_2
Mn1 O1 1_555 1_555
O1 C1 1_555 1_555
O2 Mn1 1_555 1_555
O3 Mn1 1_555 1_555
O4 Mn1 1_555 1_555
N1 C3 1_555 1_555
O5 C1 1_555 1_555
C1 C3 1_555 1_555
C2 O2 1_555 1_555
H1 O3 1_555 1_555
H2 O3 1_555 1_555
H3 O4 1_555 1_555
H4 O4 1_555 1_555
C3 C4 1_555 1_555
O6 C2 1_555 1_555
C4 C2 1_555 1_555
Mn2 O6 1_555 1_555
N2 C4 1_555 1_555
C5 N1 1_555 1_555
O7 Mn2 1_555 1_555
C6 C5 1_555 1_555
H5 O7 1_555 1_555
H6 O7 1_555 1_555
H7 C6 1_555 1_555
H8 C6 1_555 1_555
C7 C6 1_555 1_555
H9 C7 1_555 1_555
H10 C7 1_555 1_555
C8 C7 1_555 1_555
H11 C8 1_555 1_555
H12 C8 1_555 1_555
H13 C8 1_555 1_555
O8 H14 1_555 1_555
H15 O8 1_555 1_555
O7G Mn2 1_555 1_555
H5G O7G 1_555 1_555
H6G O7G 1_555 1_555
Mn1G O1G 1_555 1_555
O1G C1G 1_555 1_555
O2G Mn1G 1_555 1_555
O3G Mn1G 1_555 1_555
O4G Mn1G 1_555 1_555
N1G C3G 1_555 1_555
O5G C1G 1_555 1_555
C1G C3G 1_555 1_555
C2G O2G 1_555 1_555
H1G O3G 1_555 1_555
H2G O3G 1_555 1_555
H3G O4G 1_555 1_555
H4G O4G 1_555 1_555
C3G C4G 1_555 1_555
O6G Mn2 1_555 1_555
C4G C2G 1_555 1_555
N2G Mn2 1_555 1_555
C5G N1G 1_555 1_555
C6G C5G 1_555 1_555
H7G C6G 1_555 1_555
H8G C6G 1_555 1_555
C7G C6G 1_555 1_555
H9G C7G 1_555 1_555
H10G C7G 1_555 1_555
C8G C7G 1_555 1_555
H11G C8G 1_555 1_555
H12G C8G 1_555 1_555
H13G C8G 1_555 1_555
Mn1A N1 1_555 1_555
Mn1F N1G 1_555 1_555
N1C Mn1 1_555 1_555
N1D Mn1G 1_555 1_555
O5C Mn1 1_555 1_555
O5D Mn1G 1_555 1_555
H14G O8 1_555 1_555
H15G O8 1_555 1_555
O5 Mn1A 1_555 1_555
Mn2 N2 1_555 1_555
N2 C5 1_555 1_555
O7 O7G 1_555 1_555
O5G Mn1F 1_555 1_555
C2G O6G 1_555 1_555
C4G N2G 1_555 1_555
N2G C5G 1_555 1_555

#END
