
#######################################################################
#
#                 Cambridge Crystallographic Data Centre
#                                CCDC 
#
#######################################################################
#
# If this CIF has been generated from an entry in the Cambridge 
# Structural Database, then it will include bibliographic, chemical, 
# crystal, experimental, refinement or atomic coordinate data resulting 
# from the CCDC's data processing and validation procedures.
#
#######################################################################

data_GEVZOY
_symmetry_cell_setting           monoclinic
_symmetry_space_group_name_H-M   'P 21/n'
_symmetry_Int_Tables_number      14
_space_group_name_Hall           '-P 2yn'
loop_
_symmetry_equiv_pos_site_id
_symmetry_equiv_pos_as_xyz
1 x,y,z
2 1/2-x,1/2+y,1/2-z
3 -x,-y,-z
4 1/2+x,1/2-y,1/2+z
_cell_length_a                   14.254(3)
_cell_length_b                   10.179(4)
_cell_length_c                   18.630(2)
_cell_angle_alpha                90
_cell_angle_beta                 109.3420(10)
_cell_angle_gamma                90
_cell_volume                     2550.49
loop_
_atom_site_label
_atom_site_type_symbol
_atom_site_fract_x
_atom_site_fract_y
_atom_site_fract_z
Cd1 Cd 0.58299(4) 0.85442(5) 1.04728(3)
N1 N 0.4819(4) 0.7010(6) 1.0740(3)
N2 N 0.6722(4) 0.6463(6) 1.0774(3)
N3 N 0.4509(4) 0.4967(6) 1.1025(3)
H1 H 0.4600 0.4147 1.1136
O1 O 0.2015(4) 0.5542(7) 0.6547(3)
O2 O 0.2413(4) 0.5686(6) 0.5522(3)
O3 O 0.5332(4) 0.7692(5) 0.9154(3)
O4 O 0.5204(3) 0.9784(5) 0.9317(3)
S1 S 0.67707(16) 0.8992(2) 0.78712(15)
S2 S 0.78281(15) 0.4439(2) 1.10564(13)
C1 C 0.3866(5) 0.6956(8) 1.0784(4)
C2 C 0.3136(5) 0.7928(8) 1.0650(4)
H2 H 0.3251 0.8781 1.0521
C3 C 0.2252(6) 0.7568(9) 1.0718(5)
H3 H 0.1754 0.8197 1.0632
C4 C 0.2061(6) 0.6312(9) 1.0908(5)
H4 H 0.1441 0.6124 1.0947
C5 C 0.2764(6) 0.5321(8) 1.1044(5)
H5 H 0.2644 0.4474 1.1180
C6 C 0.3655(5) 0.5681(7) 1.0963(4)
C7 C 0.5180(5) 0.5795(7) 1.0878(4)
C8 C 0.6166(5) 0.5443(7) 1.0909(4)
C9 C 0.6647(5) 0.4281(8) 1.1064(4)
H6 H 0.6369 0.3503 1.1161
C10 C 0.7612(6) 0.6049(8) 1.0826(4)
H7 H 0.8089 0.6596 1.0744
C11 C 0.5105(4) 0.8817(7) 0.8882(4)
C12 C 0.4709(5) 0.9010(7) 0.8036(4)
H8 H 0.3994 0.9130 0.7881
H9 H 0.4993 0.9807 0.7909
C13 C 0.4927(5) 0.7893(7) 0.7594(4)
C14 C 0.5874(5) 0.7726(7) 0.7524(4)
C15 C 0.7878(5) 0.8142(8) 0.8375(5)
C16 C 0.8223(6) 0.8254(10) 0.9165(5)
H10 H 0.7857 0.8718 0.9412
C17 C 0.9125(8) 0.7662(12) 0.9584(6)
H11 H 0.9369 0.7738 1.0111
C18 C 0.9652(8) 0.6957(12) 0.9202(8)
H12 H 1.0243 0.6544 0.9480
C19 C 0.9322(7) 0.6860(10) 0.8436(7)
H13 H 0.9681 0.6392 0.8186
C20 C 0.8446(6) 0.7468(8) 0.8035(5)
H14 H 0.8229 0.7420 0.7507
C21 C 0.6047(5) 0.6644(8) 0.7135(5)
H15 H 0.6662 0.6548 0.7069
C22 C 0.5319(5) 0.5706(8) 0.6844(4)
H16 H 0.5459 0.4980 0.6594
C23 C 0.4405(5) 0.5823(8) 0.6914(4)
C24 C 0.3626(5) 0.4750(8) 0.6590(5)
H17 H 0.3822 0.4278 0.6204
C25 C 0.3606(7) 0.3797(10) 0.7163(6)
H18 H 0.3179 0.3079 0.6926
H19 H 0.3360 0.4207 0.7529
H20 H 0.4267 0.3474 0.7414
C26 C 0.2603(6) 0.5355(8) 0.6186(6)
C27 C 0.4219(5) 0.6922(8) 0.7279(4)
H21 H 0.3589 0.7021 0.7318
Cd1B Cd 0.41701(4) 1.14558(5) 0.95272(3)
Cd1C Cd 0.08299(4) 0.64558(5) 0.54728(3)
O1C O 0.7015(4) 0.9458(7) 1.1547(3)
O2C O 0.7413(4) 0.9314(6) 1.0522(3)
O4B O 0.4796(3) 1.0216(5) 1.0683(3)
loop_
_geom_bond_atom_site_label_1
_geom_bond_atom_site_label_2
_geom_bond_site_symmetry_1
_geom_bond_site_symmetry_2
Cd1 N1 1_555 1_555
N1 C1 1_555 1_555
N2 Cd1 1_555 1_555
N3 H1 1_555 1_555
O1 C26 1_555 1_555
O2 C26 1_555 1_555
O3 Cd1 1_555 1_555
O4 Cd1 1_555 1_555
S1 C14 1_555 1_555
S2 C9 1_555 1_555
C1 C2 1_555 1_555
C2 H2 1_555 1_555
C3 C2 1_555 1_555
H3 C3 1_555 1_555
C4 C3 1_555 1_555
H4 C4 1_555 1_555
C5 C4 1_555 1_555
H5 C5 1_555 1_555
C6 N3 1_555 1_555
C7 N1 1_555 1_555
C8 N2 1_555 1_555
C9 C8 1_555 1_555
H6 C9 1_555 1_555
C10 N2 1_555 1_555
H7 C10 1_555 1_555
C11 O3 1_555 1_555
C12 C11 1_555 1_555
H8 C12 1_555 1_555
H9 C12 1_555 1_555
C13 C12 1_555 1_555
C14 C13 1_555 1_555
C15 S1 1_555 1_555
C16 C15 1_555 1_555
H10 C16 1_555 1_555
C17 C16 1_555 1_555
H11 C17 1_555 1_555
C18 C17 1_555 1_555
H12 C18 1_555 1_555
C19 C18 1_555 1_555
H13 C19 1_555 1_555
C20 C15 1_555 1_555
H14 C20 1_555 1_555
C21 C14 1_555 1_555
H15 C21 1_555 1_555
C22 C21 1_555 1_555
H16 C22 1_555 1_555
C23 C22 1_555 1_555
C24 C23 1_555 1_555
H17 C24 1_555 1_555
C25 C24 1_555 1_555
H18 C25 1_555 1_555
H19 C25 1_555 1_555
H20 C25 1_555 1_555
C26 C24 1_555 1_555
C27 C13 1_555 1_555
H21 C27 1_555 1_555
Cd1B O4 1_555 1_555
Cd1C O1 1_555 1_555
O1C Cd1 1_555 1_555
O2C Cd1 1_555 1_555
O4B Cd1 1_555 1_555
N3 C7 1_555 1_555
O2 Cd1C 1_555 1_555
O4 C11 1_555 1_555
S2 C10 1_555 1_555
C1 C6 1_555 1_555
C5 C6 1_555 1_555
C7 C8 1_555 1_555
C19 C20 1_555 1_555
C23 C27 1_555 1_555
Cd1B O4B 1_555 1_555

#END
