
#######################################################################
#
#                 Cambridge Crystallographic Data Centre
#                                CCDC 
#
#######################################################################
#
# If this CIF has been generated from an entry in the Cambridge 
# Structural Database, then it will include bibliographic, chemical, 
# crystal, experimental, refinement or atomic coordinate data resulting 
# from the CCDC's data processing and validation procedures.
#
#######################################################################

data_GEVZIS
_symmetry_cell_setting           monoclinic
_symmetry_space_group_name_H-M   'P 21/c'
_symmetry_Int_Tables_number      14
_space_group_name_Hall           '-P 2ybc'
loop_
_symmetry_equiv_pos_site_id
_symmetry_equiv_pos_as_xyz
1 x,y,z
2 -x,1/2+y,1/2-z
3 -x,-y,-z
4 x,1/2-y,1/2+z
_cell_length_a                   9.386(3)
_cell_length_b                   24.029(3)
_cell_length_c                   11.343(3)
_cell_angle_alpha                90
_cell_angle_beta                 99.3820(10)
_cell_angle_gamma                90
_cell_volume                     2524.04
loop_
_atom_site_label
_atom_site_type_symbol
_atom_site_fract_x
_atom_site_fract_y
_atom_site_fract_z
Cd1 Cd 0.65044(3) 0.982277(11) 0.91665(2)
N1 N 0.7707(3) 0.96107(15) 0.7563(3)
N2 N 0.5718(3) 1.04404(14) 0.7558(3)
O1 O 0.8316(4) 0.99164(14) 1.0797(3)
O2 O 1.4483(3) 0.94554(11) 0.9787(3)
O3 O 1.4900(3) 0.90282(14) 0.8186(2)
O4 O 0.7829(4) 0.90605(14) 1.0362(3)
S1 S 1.09849(13) 0.82533(6) 1.37334(10)
C1 C 0.4750(5) 1.08455(19) 0.7551(4)
H1 H 0.4357 1.0908 0.8241
C2 C 0.4298(6) 1.1180(2) 0.6556(5)
H2 H 0.3611 1.1457 0.6583
C3 C 0.4875(6) 1.1097(2) 0.5540(5)
H3 H 0.4591 1.1319 0.4872
C4 C 0.5897(5) 1.0675(2) 0.5507(4)
C5 C 0.6520(6) 1.0548(3) 0.4465(4)
H4 H 0.6252 1.0757 0.3775
C6 C 0.7476(6) 1.0136(3) 0.4463(4)
H5 H 0.7859 1.0065 0.3772
C7 C 0.7924(5) 0.9800(2) 0.5504(4)
C8 C 0.8881(6) 0.9352(3) 0.5545(5)
H6 H 0.9291 0.9265 0.4875
C9 C 0.9216(6) 0.9043(3) 0.6553(5)
H7 H 0.9832 0.8738 0.6573
C10 C 0.8617(5) 0.9191(2) 0.7568(5)
H8 H 0.8869 0.8986 0.8266
C11 C 0.7331(4) 0.99127(19) 0.6552(3)
C12 C 0.6292(4) 1.03545(18) 0.6548(3)
C13 C 0.8545(5) 0.7849(2) 1.2219(4)
H9 H 0.8763 0.8092 1.1636
C14 C 0.7341(6) 0.7512(2) 1.1980(5)
H10 H 0.6753 0.7527 1.1237
C15 C 0.7010(7) 0.7151(2) 1.2850(6)
H11 H 0.6196 0.6925 1.2694
C16 C 0.7878(7) 0.7129(2) 1.3929(6)
H12 H 0.7653 0.6887 1.4511
C17 C 0.9082(6) 0.7460(2) 1.4174(5)
H13 H 0.9672 0.7439 1.4915
C18 C 0.9421(5) 0.78271(18) 1.3307(4)
C19 C 1.1476(4) 0.84269(17) 1.2324(4)
C20 C 1.0827(4) 0.88666(15) 1.1629(3)
C21 C 0.9674(4) 0.92272(17) 1.2022(3)
H14 H 1.0125 0.9553 1.2428
H15 H 0.9207 0.9021 1.2588
C22 C 0.8544(4) 0.94131(17) 1.0993(3)
C23 C 1.1282(4) 0.89744(16) 1.0543(3)
H16 H 1.0858 0.9267 1.0075
C24 C 1.2339(4) 0.86645(17) 1.0134(4)
C25 C 1.2706(5) 0.87934(19) 0.8896(4)
H17 H 1.1964 0.9054 0.8524
C26 C 1.2601(6) 0.8300(2) 0.8090(5)
H18 H 1.3362 0.8042 0.8377
H19 H 1.2691 0.8417 0.7297
H20 H 1.1684 0.8121 0.8078
C27 C 1.4144(4) 0.90999(15) 0.8967(3)
C28 C 1.2976(5) 0.8239(2) 1.0834(5)
H21 H 1.3698 0.8029 1.0577
C29 C 1.2556(5) 0.81201(19) 1.1924(5)
H22 H 1.3002 0.7831 1.2391
Cd1_2 Cd 1.65044(3) 0.982277(11) 0.91665(2)
Cd1B Cd 1.34956(3) 1.017723(11) 1.08335(2)
O2_2 O 0.4483(3) 0.94554(11) 0.9787(3)
O2B O 0.5517(3) 1.05446(11) 1.0213(3)
O3_2 O 0.4900(3) 0.90282(14) 0.8186(2)
loop_
_geom_bond_atom_site_label_1
_geom_bond_atom_site_label_2
_geom_bond_site_symmetry_1
_geom_bond_site_symmetry_2
Cd1 N1 1_555 1_555
N1 C10 1_555 1_555
N2 Cd1 1_555 1_555
O1 Cd1 1_555 1_555
O2 C27 1_555 1_555
O3 C27 1_555 1_555
O4 Cd1 1_555 1_555
S1 C18 1_555 1_555
C1 N2 1_555 1_555
H1 C1 1_555 1_555
C2 C1 1_555 1_555
H2 C2 1_555 1_555
C3 C2 1_555 1_555
H3 C3 1_555 1_555
C4 C3 1_555 1_555
C5 C4 1_555 1_555
H4 C5 1_555 1_555
C6 C5 1_555 1_555
H5 C6 1_555 1_555
C7 C6 1_555 1_555
C8 C7 1_555 1_555
H6 C8 1_555 1_555
C9 C8 1_555 1_555
H7 C9 1_555 1_555
C10 C9 1_555 1_555
H8 C10 1_555 1_555
C11 N1 1_555 1_555
C12 N2 1_555 1_555
C13 H9 1_555 1_555
C14 C13 1_555 1_555
H10 C14 1_555 1_555
C15 C14 1_555 1_555
H11 C15 1_555 1_555
C16 C15 1_555 1_555
H12 C16 1_555 1_555
C17 C16 1_555 1_555
H13 C17 1_555 1_555
C18 C13 1_555 1_555
C19 S1 1_555 1_555
C20 C19 1_555 1_555
C21 C20 1_555 1_555
H14 C21 1_555 1_555
H15 C21 1_555 1_555
C22 O1 1_555 1_555
C23 C20 1_555 1_555
H16 C23 1_555 1_555
C24 C23 1_555 1_555
C25 C24 1_555 1_555
H17 C25 1_555 1_555
C26 C25 1_555 1_555
H18 C26 1_555 1_555
H19 C26 1_555 1_555
H20 C26 1_555 1_555
C27 C25 1_555 1_555
C28 C24 1_555 1_555
H21 C28 1_555 1_555
C29 C19 1_555 1_555
H22 C29 1_555 1_555
Cd1_2 O2 1_555 1_555
Cd1B O2 1_555 1_555
O2_2 Cd1 1_555 1_555
O2B Cd1 1_555 1_555
O3_2 Cd1 1_555 1_555
O3 Cd1_2 1_555 1_555
O4 C22 1_555 1_555
C4 C12 1_555 1_555
C7 C11 1_555 1_555
C11 C12 1_555 1_555
C17 C18 1_555 1_555
C21 C22 1_555 1_555
C28 C29 1_555 1_555

#END
