
#######################################################################
#
#                 Cambridge Crystallographic Data Centre
#                                CCDC 
#
#######################################################################
#
# If this CIF has been generated from an entry in the Cambridge 
# Structural Database, then it will include bibliographic, chemical, 
# crystal, experimental, refinement or atomic coordinate data resulting 
# from the CCDC's data processing and validation procedures.
#
#######################################################################

data_GEWBOB
_symmetry_cell_setting           triclinic
_symmetry_space_group_name_H-M   'P -1'
_symmetry_Int_Tables_number      2
_space_group_name_Hall           '-P 1'
loop_
_symmetry_equiv_pos_site_id
_symmetry_equiv_pos_as_xyz
1 x,y,z
2 -x,-y,-z
_cell_length_a                   10.3211(10)
_cell_length_b                   10.5443(10)
_cell_length_c                   11.8324(11)
_cell_angle_alpha                80.0660(10)
_cell_angle_beta                 84.6510(10)
_cell_angle_gamma                71.5590(10)
_cell_volume                     1202.24
loop_
_atom_site_label
_atom_site_type_symbol
_atom_site_fract_x
_atom_site_fract_y
_atom_site_fract_z
O1 O -0.1234(10) 0.6499(10) 0.0225(6)
H1 H -0.1661 0.6589 0.0871
H2 H -0.0451 0.6335 0.0491
C1 C 0.3612(7) 0.9247(6) -0.0757(7)
H3 H 0.4543 0.9002 -0.0541
H4 H 0.3035 0.9862 -0.0274
H5 H 0.3538 0.9674 -0.1544
C2 C 0.1734(7) 0.8396(10) -0.1029(9)
H6 H 0.1143 0.8989 -0.0536
H7 H 0.1414 0.7633 -0.1024
H8 H 0.1732 0.8874 -0.1797
C3 C 0.4157(9) 0.7045(9) -0.1372(9)
H9 H 0.4054 0.7479 -0.2156
H10 H 0.3997 0.6185 -0.1298
H11 H 0.5067 0.6914 -0.1150
Cd1 Cd 0.855213(19) 0.55351(2) 0.386335(17)
O2 O 0.6253(2) 0.5445(2) 0.38571(19)
O3 O 0.7020(2) 0.6380(3) 0.2242(2)
O4 O 0.1321(3) 0.5435(3) 0.4154(2)
O5 O 0.0098(2) 0.6250(3) 0.2615(2)
N1 N 0.9428(3) 0.3397(3) 0.3493(3)
N2 N 1.0744(3) 0.1595(3) 0.2792(3)
N3 N 1.3193(3) 0.0890(3) 0.4404(3)
N4 N 1.2234(3) 0.2470(3) 0.5478(3)
C4 C 0.3634(3) 0.6015(3) 0.2964(2)
H12 H 0.3743 0.5610 0.3726
C5 C 0.4725(3) 0.6322(3) 0.2308(3)
C6 C 0.4547(3) 0.6931(4) 0.1169(3)
H13 H 0.5279 0.7133 0.0742
C7 C 0.3306(4) 0.7248(4) 0.0649(3)
C8 C 0.2233(3) 0.6934(4) 0.1319(3)
H14 H 0.1391 0.7139 0.0993
C9 C 0.2382(3) 0.6322(3) 0.2463(3)
C10 C 0.6087(3) 0.6024(3) 0.2829(3)
C11 C 0.1191(3) 0.5976(3) 0.3139(3)
C12 C 0.3143(4) 0.7919(5) -0.0611(3)
C13 C 0.9161(4) 0.2277(4) 0.4103(3)
H15 H 0.8527 0.2283 0.4716
C14 C 1.0379(4) 0.2947(4) 0.2702(3)
H16 H 1.0746 0.3497 0.2154
C15 C 0.9964(4) 0.1152(4) 0.3677(4)
H17 H 0.9980 0.0263 0.3936
C16 C 1.1808(5) 0.0746(5) 0.2097(4)
H18 H 1.2192 0.1323 0.1529
H19 H 1.1394 0.0259 0.1689
C17 C 1.2954(5) -0.0267(5) 0.2801(4)
H20 H 1.2547 -0.0817 0.3375
H21 H 1.3539 -0.0862 0.2294
C18 C 1.3843(5) 0.0250(6) 0.3401(5)
H22 H 1.4643 -0.0498 0.3647
H23 H 1.4156 0.0902 0.2856
C19 C 1.2853(4) 0.0252(4) 0.5441(4)
H24 H 1.2997 -0.0672 0.5653
C20 C 1.2266(4) 0.1229(4) 0.6095(3)
H25 H 1.1933 0.1085 0.6848
C21 C 1.2802(4) 0.2214(4) 0.4474(3)
H26 H 1.2921 0.2873 0.3878
Cd1_2 Cd -0.144787(19) 0.55351(2) 0.386335(17)
Cd1A Cd 0.144787(19) 0.44649(2) 0.613665(17)
Cd1A_2 Cd 1.144787(19) 0.44649(2) 0.613665(17)
O4A O 0.8679(3) 0.4565(3) 0.5846(2)
O5_2 O 1.0098(2) 0.6250(3) 0.2615(2)
N4A N 0.7766(3) 0.7530(3) 0.4522(3)
O6 O 0.5648(3) 0.2935(3) 0.4563(3)
H36 H 0.5041 0.3325 0.5034
H37 H 0.5928 0.3597 0.4258
C22? C 0.4219(13) 0.8363(16) -0.1274(17)
H27? H 0.4989 0.7590 -0.1385
H28? H 0.4491 0.8945 -0.0868
H29? H 0.3887 0.8848 -0.2006
C23? C 0.2868(17) 0.6796(14) -0.1210(16)
H30? H 0.2962 0.7022 -0.2029
H31? H 0.1959 0.6755 -0.1002
H32? H 0.3518 0.5933 -0.0962
C24? C 0.1745(10) 0.9057(12) -0.0734(13)
H33? H 0.1697 0.9701 -0.0236
H34? H 0.1015 0.8669 -0.0527
H35? H 0.1662 0.9503 -0.1515
loop_
_geom_bond_atom_site_label_1
_geom_bond_atom_site_label_2
_geom_bond_site_symmetry_1
_geom_bond_site_symmetry_2
O1 H1 1_555 1_555
H2 O1 1_555 1_555
C1 H3 1_555 1_555
H4 C1 1_555 1_555
H5 C1 1_555 1_555
C2 H6 1_555 1_555
H7 C2 1_555 1_555
H8 C2 1_555 1_555
C3 H9 1_555 1_555
H10 C3 1_555 1_555
H11 C3 1_555 1_555
Cd1 O2 1_555 1_555
O2 C10 1_555 1_555
O3 Cd1 1_555 1_555
O4 C11 1_555 1_555
O5 C11 1_555 1_555
N1 Cd1 1_555 1_555
N2 C14 1_555 1_555
N3 C18 1_555 1_555
N4 C20 1_555 1_555
C4 H12 1_555 1_555
C5 C4 1_555 1_555
C6 C5 1_555 1_555
H13 C6 1_555 1_555
C7 C6 1_555 1_555
C8 C7 1_555 1_555
H14 C8 1_555 1_555
C9 C4 1_555 1_555
C10 O3 1_555 1_555
C11 C9 1_555 1_555
C12 C1 1_555 1_555
C13 N1 1_555 1_555
H15 C13 1_555 1_555
C14 N1 1_555 1_555
H16 C14 1_555 1_555
C15 N2 1_555 1_555
H17 C15 1_555 1_555
C16 N2 1_555 1_555
H18 C16 1_555 1_555
H19 C16 1_555 1_555
C17 C16 1_555 1_555
H20 C17 1_555 1_555
H21 C17 1_555 1_555
C18 C17 1_555 1_555
H22 C18 1_555 1_555
H23 C18 1_555 1_555
C19 N3 1_555 1_555
H24 C19 1_555 1_555
C20 C19 1_555 1_555
H25 C20 1_555 1_555
C21 N3 1_555 1_555
H26 C21 1_555 1_555
O6 H36 1_555 1_555
H37 O6 1_555 1_555
Cd1_2 O5 1_555 1_555
Cd1A O4 1_555 1_555
Cd1A_2 N4 1_555 1_555
O4A Cd1 1_555 1_555
O5_2 Cd1 1_555 1_555
N4A Cd1 1_555 1_555
C2 C12 1_555 1_555
C3 C12 1_555 1_555
N4 C21 1_555 1_555
C5 C10 1_555 1_555
C7 C12 1_555 1_555
C8 C9 1_555 1_555
C13 C15 1_555 1_555

#END
