
#######################################################################
#
#                 Cambridge Crystallographic Data Centre
#                                CCDC 
#
#######################################################################
#
# If this CIF has been generated from an entry in the Cambridge 
# Structural Database, then it will include bibliographic, chemical, 
# crystal, experimental, refinement or atomic coordinate data resulting 
# from the CCDC's data processing and validation procedures.
#
#######################################################################

data_GEWCOC
_symmetry_cell_setting           tetragonal
_symmetry_space_group_name_H-M   'P 42/n n m'
_symmetry_Int_Tables_number      134
_space_group_name_Hall           '-P 4ac 2bc'
loop_
_symmetry_equiv_pos_site_id
_symmetry_equiv_pos_as_xyz
1 x,y,z
2 1/2-y,x,1/2+z
3 1/2-x,1/2-y,z
4 y,1/2-x,1/2+z
5 x,1/2-y,1/2-z
6 1/2-y,1/2-x,-z
7 1/2-x,y,1/2-z
8 y,x,-z
9 -x,-y,-z
10 1/2+y,-x,1/2-z
11 1/2+x,1/2+y,-z
12 -y,1/2+x,1/2-z
13 -x,1/2+y,1/2+z
14 1/2+y,1/2+x,z
15 1/2+x,-y,1/2+z
16 -y,-x,z
_cell_length_a                   10.620(9)
_cell_length_b                   10.620(9)
_cell_length_c                   22.99(2)
_cell_angle_alpha                90
_cell_angle_beta                 90
_cell_angle_gamma                90
_cell_volume                     2592.91
loop_
_atom_site_label
_atom_site_type_symbol
_atom_site_fract_x
_atom_site_fract_y
_atom_site_fract_z
N5 N 0.4943(14) 0.5057(14) 0.2822(5)
C8 C 0.4990(9) 0.5010(9) 0.3948(5)
C9 C 0.4968(9) 0.5032(9) 0.3319(5)
Zn1 Zn 0.2500 0.2500 0.5000
Mn1 Mn 0.7500 0.2500 0.50875(7)
N1 N 0.4534(4) 0.2491(5) 0.49813(18)
N2 N 0.7500 0.2500 0.5777(5)
N3 N 0.7500 0.2500 0.4055(4)
N4 N 0.2500 0.2500 0.4047(3)
C1 C 0.5621(5) 0.2497(6) 0.5000(2)
C2 C 0.6748(8) 0.1748(8) 0.3744(5)
C3 C 0.6704(9) 0.1704(9) 0.3141(5)
C4 C 0.7500 0.2500 0.2828(5)
C5 C 0.1924(8) 0.3417(7) 0.3743(3)
C6 C 0.1925(9) 0.3449(8) 0.3135(3)
C7 C 0.2500 0.2500 0.2826(3)
C2B C 0.8252(8) 0.3252(8) 0.3744(5)
C3B C 0.8296(9) 0.3296(9) 0.3141(5)
N3I N 0.7500 0.2500 0.0945(4)
C2I C 0.6748(8) 0.3252(8) 0.1256(5)
C3I C 0.6704(9) 0.3296(9) 0.1859(5)
C4I C 0.7500 0.2500 0.2172(5)
C2K C 0.8252(8) 0.1748(8) 0.1256(5)
C3K C 0.8296(9) 0.1704(9) 0.1859(5)
C5B C 0.3076(8) 0.1583(7) 0.3743(3)
C6B C 0.3075(9) 0.1551(8) 0.3135(3)
N4D N 0.2500 0.2500 0.0953(3)
C5D C 0.1924(8) 0.1583(7) 0.1257(3)
C6D C 0.1925(9) 0.1551(8) 0.1865(3)
C7D C 0.2500 0.2500 0.2174(3)
C5F C 0.3076(8) 0.3417(7) 0.1257(3)
C6F C 0.3075(9) 0.3449(8) 0.1865(3)
N1B N 0.0466(4) 0.2509(5) 0.49813(18)
C1B C -0.0621(5) 0.2503(6) 0.5000(2)
Zn1_2 Zn 1.2500 0.2500 0.5000
N1B_2 N 1.0466(4) 0.2509(5) 0.49813(18)
N4_2 N 1.2500 0.2500 0.4047(3)
C1B_2 C 0.9379(5) 0.2503(6) 0.5000(2)
C5B_2 C 1.3076(8) 0.1583(7) 0.3743(3)
C6B_2 C 1.3075(9) 0.1551(8) 0.3135(3)
C7_2 C 1.2500 0.2500 0.2826(3)
C5_2 C 1.1924(8) 0.3417(7) 0.3743(3)
C6_2 C 1.1925(9) 0.3449(8) 0.3135(3)
N4D_2 N 1.2500 0.2500 0.0953(3)
C5F_2 C 1.3076(8) 0.3417(7) 0.1257(3)
C6F_2 C 1.3075(9) 0.3449(8) 0.1865(3)
C7D_2 C 1.2500 0.2500 0.2174(3)
C5D_2 C 1.1924(8) 0.1583(7) 0.1257(3)
C6D_2 C 1.1925(9) 0.1551(8) 0.1865(3)
N1M N 0.7491(5) -0.0466(4) 0.49813(18)
C1M C 0.7497(6) 0.0621(5) 0.5000(2)
N1O N 0.7509(5) 0.5466(4) 0.49813(18)
C1O C 0.7503(6) 0.4379(5) 0.5000(2)
Mn1I Mn 0.7500 0.2500 -0.00875(7)
N1I N 0.7491(5) 0.5466(4) 0.00187(18)
N2I N 0.7500 0.2500 -0.0777(5)
C1I C 0.7497(6) 0.4379(5) 0.0000(2)
N1K N 0.7509(5) -0.0466(4) 0.00187(18)
C1K C 0.7503(6) 0.0621(5) 0.0000(2)
N1D N 0.4534(4) 0.2509(5) 0.00187(18)
C1D C 0.5621(5) 0.2503(6) 0.0000(2)
Zn1A Zn 0.2500 0.2500 0.0000
Zn1A_2 Zn 1.2500 0.2500 0.0000
Zn1L Zn 0.7500 -0.2500 0.0000
Zn1L_2 Zn 0.7500 0.7500 0.0000
Zn1M Zn 0.7500 -0.2500 0.5000
Zn1M_2 Zn 0.7500 0.7500 0.5000
Mn1_2 Mn -0.2500 0.2500 0.50875(7)
N1_2 N 1.4534(4) 0.2491(5) 0.49813(18)
N1E N 0.2509(5) 0.0466(4) 0.50187(18)
N1E_2 N 1.2509(5) 0.0466(4) 0.50187(18)
N1G N 0.2491(5) 0.4534(4) 0.50187(18)
N1G_2 N 1.2491(5) 0.4534(4) 0.50187(18)
N4E N 0.2500 0.2500 0.5953(3)
N4E_2 N 1.2500 0.2500 0.5953(3)
C1F C 0.9379(5) 0.2497(6) 0.0000(2)
loop_
_geom_bond_atom_site_label_1
_geom_bond_atom_site_label_2
_geom_bond_site_symmetry_1
_geom_bond_site_symmetry_2
Zn1 N1 1_555 1_555
Mn1 N2 1_555 1_555
N1 C1 1_555 1_555
N3 Mn1 1_555 1_555
N4 Zn1 1_555 1_555
C1 Mn1 1_555 1_555
C2 N3 1_555 1_555
C3 C2 1_555 1_555
C4 C3 1_555 1_555
C5 N4 1_555 1_555
C6 C5 1_555 1_555
C7 C6 1_555 1_555
N5 C9 1_555 1_555
C8 C9 1_555 1_555
C2B N3 1_555 1_555
C3B C4 1_555 1_555
N3I C2I 1_555 1_555
C2I C3I 1_555 1_555
C3I C4I 1_555 1_555
C4I C4 1_555 1_555
C2K N3I 1_555 1_555
C3K C4I 1_555 1_555
C5B N4 1_555 1_555
C6B C7 1_555 1_555
N4D C5D 1_555 1_555
C5D C6D 1_555 1_555
C6D C7D 1_555 1_555
C7D C7 1_555 1_555
C5F N4D 1_555 1_555
C6F C7D 1_555 1_555
N1B Zn1 1_555 1_555
C1B N1B 1_555 1_555
Zn1_2 N1B_2 1_555 1_555
N1B_2 C1B_2 1_555 1_555
N4_2 Zn1_2 1_555 1_555
C1B_2 Mn1 1_555 1_555
C5B_2 N4_2 1_555 1_555
C6B_2 C5B_2 1_555 1_555
C7_2 C6B_2 1_555 1_555
C5_2 N4_2 1_555 1_555
C6_2 C7_2 1_555 1_555
N4D_2 C5F_2 1_555 1_555
C5F_2 C6F_2 1_555 1_555
C6F_2 C7D_2 1_555 1_555
C7D_2 C7_2 1_555 1_555
C5D_2 N4D_2 1_555 1_555
C6D_2 C7D_2 1_555 1_555
N1M C1M 1_555 1_555
C1M Mn1 1_555 1_555
N1O C1O 1_555 1_555
C1O Mn1 1_555 1_555
Mn1I N3I 1_555 1_555
N1I C1I 1_555 1_555
N2I Mn1I 1_555 1_555
C1I Mn1I 1_555 1_555
N1K C1K 1_555 1_555
C1K Mn1I 1_555 1_555
N1D C1D 1_555 1_555
C1D Mn1I 1_555 1_555
Zn1A N4D 1_555 1_555
Zn1A_2 N4D_2 1_555 1_555
Zn1L N1K 1_555 1_555
Zn1L_2 N1I 1_555 1_555
Zn1M N1M 1_555 1_555
Zn1M_2 N1O 1_555 1_555
Mn1_2 C1B 1_555 1_555
N1_2 Zn1_2 1_555 1_555
N1E Zn1 1_555 1_555
N1E_2 Zn1_2 1_555 1_555
N1G Zn1 1_555 1_555
N1G_2 Zn1_2 1_555 1_555
N4E Zn1 1_555 1_555
N4E_2 Zn1_2 1_555 1_555
C1F Mn1I 1_555 1_555
C2B C3B 1_555 1_555
C2K C3K 1_555 1_555
C5B C6B 1_555 1_555
C5F C6F 1_555 1_555
C5_2 C6_2 1_555 1_555
C5D_2 C6D_2 1_555 1_555
N1D Zn1A 1_555 1_555

#END
