
#######################################################################
#
#                 Cambridge Crystallographic Data Centre
#                                CCDC 
#
#######################################################################
#
# If this CIF has been generated from an entry in the Cambridge 
# Structural Database, then it will include bibliographic, chemical, 
# crystal, experimental, refinement or atomic coordinate data resulting 
# from the CCDC's data processing and validation procedures.
#
#######################################################################

data_GEWGOG
_symmetry_cell_setting           monoclinic
_symmetry_space_group_name_H-M   'P 21/c'
_symmetry_Int_Tables_number      14
_space_group_name_Hall           '-P 2ybc'
loop_
_symmetry_equiv_pos_site_id
_symmetry_equiv_pos_as_xyz
1 x,y,z
2 -x,1/2+y,1/2-z
3 -x,-y,-z
4 x,1/2-y,1/2+z
_cell_length_a                   23.001(2)
_cell_length_b                   12.9425(12)
_cell_length_c                   25.023(2)
_cell_angle_alpha                90
_cell_angle_beta                 109.700(2)
_cell_angle_gamma                90
_cell_volume                     7013.12
loop_
_atom_site_label
_atom_site_type_symbol
_atom_site_fract_x
_atom_site_fract_y
_atom_site_fract_z
Mo1 Mo 0.27703(5) 1.10499(8) 0.89605(4)
Mo2 Mo 0.31189(5) 1.29567(10) 0.81749(4)
Mo3 Mo 0.18692(5) 1.31928(8) 0.86181(5)
Mo4 Mo 0.09313(5) 1.36617(9) 0.71326(5)
Mo5 Mo 0.21587(4) 1.33284(7) 0.66821(4)
Mo6 Mo 0.08595(6) 1.18655(8) 0.61138(4)
Mo7 Mo 0.31174(4) 1.09984(7) 0.70998(5)
Mo8 Mo 0.18284(5) 0.95504(10) 0.64899(5)
Mo9 Mo 0.04755(4) 0.98074(7) 0.69504(4)
Mo10 Mo 0.27256(6) 0.91118(7) 0.78655(5)
Mo11 Mo 0.13845(5) 0.94498(9) 0.83339(4)
Mo12 Mo 0.04941(6) 1.16252(8) 0.79423(6)
P1 P 0.18169(11) 1.13807(18) 0.75334(10)
O1 O 0.3188(3) 1.0650(5) 0.9624(3)
O2 O 0.0458(4) 1.0940(6) 0.6449(3)
O3 O 0.3329(3) 1.1870(6) 0.7747(3)
O4 O 0.0493(3) 1.2665(6) 0.7416(3)
O5 O 0.2227(3) 1.1926(5) 0.8083(3)
O6 O 0.2022(3) 1.0297(6) 0.8813(3)
O7 O 0.1683(4) 0.8722(8) 0.5948(4)
O8 O 0.2972(3) 1.0075(6) 0.8496(3)
O9 O 0.2003(4) 0.8933(6) 0.8049(3)
O10 O 0.1135(4) 0.9300(5) 0.6730(3)
O11 O 0.2455(3) 1.4185(5) 0.6343(3)
O12 O 0.0769(3) 0.9014(6) 0.7629(3)
O13 O 0.1504(3) 1.2778(6) 0.6053(3)
O14 O 0.3341(3) 1.2006(6) 0.8820(3)
O15 O 0.2629(4) 1.2135(5) 0.6706(3)
O16 O 0.1544(4) 1.4169(6) 0.6833(3)
O17 O 0.2210(3) 1.0593(5) 0.7335(3)
O18 O 0.2649(4) 1.3513(6) 0.7463(3)
O19 O -0.0137(4) 0.9132(6) 0.6550(3)
O20 O 0.1468(3) 1.3797(5) 0.7882(3)
O21 O 0.1550(3) 1.2206(5) 0.7058(3)
O22 O 0.3302(3) 0.9819(5) 0.7581(3)
O23 O 0.1279(3) 1.0808(5) 0.7644(3)
O24 O 0.2638(4) 1.3684(6) 0.8540(3)
O25 O 0.0794(4) 1.0418(6) 0.8406(3)
O26 O 0.0085(4) 1.0724(6) 0.7327(3)
O27 O 0.3755(4) 1.3688(8) 0.8361(4)
O28 O 0.3750(4) 1.1059(7) 0.6908(4)
O29 O 0.0504(4) 1.4723(7) 0.7035(4)
O30 O 0.1754(4) 1.4105(7) 0.9052(4)
O31 O 0.2608(4) 1.0098(6) 0.6513(3)
O32 O 0.1418(4) 1.0750(6) 0.6140(3)
O33 O 0.2310(4) 0.8656(6) 0.7115(3)
O34 O 0.2355(3) 1.2224(6) 0.9145(3)
O35 O 0.1174(3) 1.2363(5) 0.8464(3)
O36 O -0.0106(4) 1.1966(6) 0.8141(4)
O37 O 0.0534(4) 1.3024(7) 0.6375(4)
O38 O 0.3145(5) 0.8073(7) 0.8142(4)
O39 O 0.0392(5) 1.1805(9) 0.5433(4)
O40 O 0.1320(4) 0.8491(6) 0.8758(4)
Cu1 Cu 0.29440(5) 1.06099(8) 1.05142(5)
Cu2 Cu 0.37284(5) 0.83180(8) 1.10317(5)
Cu3 Cu 0.22590(5) 0.82385(8) 1.02678(5)
O41 O 0.3044(3) 0.9080(4) 1.0429(3)
O42 O 0.1466(3) 0.7470(5) 0.9963(3)
O43 O 0.4384(5) 0.8411(10) 1.0482(4)
N1 N 0.3708(3) 1.0561(6) 1.1179(3)
N2 N 0.3959(4) 1.1331(6) 1.1532(4)
N3 N 0.4517(4) 0.9909(6) 1.1815(4)
N4 N 0.4038(3) 0.9707(6) 1.1346(3)
N5 N 0.5679(3) 1.2525(6) 1.3318(3)
N6 N 0.2034(3) 1.0452(5) 1.0069(3)
N7 N 0.1584(3) 1.1132(6) 0.9871(3)
N8 N 0.1178(3) 0.9550(6) 0.9804(4)
N9 N 0.1789(3) 0.9508(6) 1.0027(3)
N10 N -0.0741(3) 1.1689(7) 0.9092(4)
H1 H -0.1123 1.1923 0.8979
N11 N 0.3339(4) 0.6980(6) 1.0646(3)
N12 N 0.3562(4) 0.6012(6) 1.0699(4)
N13 N 0.2550(4) 0.6015(6) 1.0211(3)
N14 N 0.2744(3) 0.6980(6) 1.0362(3)
N15 N 0.2974(3) 0.2155(6) 1.0463(3)
N16 N 0.2397(3) 0.8367(6) 1.1195(3)
N17 N 0.2013(4) 0.8449(6) 1.1490(3)
N18 N 0.2969(4) 0.8636(6) 1.2066(4)
N19 N 0.2972(3) 0.8485(6) 1.1541(3)
N20 N 0.1710(7) 0.8729(8) 1.3393(5)
H2 H 0.1571 0.8736 1.3680
C1 C 0.4453(4) 1.0910(7) 1.1917(4)
C2 C 0.4880(4) 1.1471(7) 1.2403(4)
C3 C 0.5511(5) 1.1277(7) 1.2581(4)
H3 H 0.5675 1.0774 1.2396
C4 C 0.5893(4) 1.1837(7) 1.3035(4)
H4 H 0.6326 1.1725 1.3150
C5 C 0.5073(4) 1.2700(7) 1.3149(5)
H5 H 0.4921 1.3201 1.3346
C6 C 0.4660(5) 1.2188(7) 1.2702(5)
H6 H 0.4230 1.2322 1.2597
C7 C 0.1064(4) 1.0558(7) 0.9709(4)
C8 C 0.0434(4) 1.0970(7) 0.9479(4)
C9 C 0.0326(5) 1.2032(7) 0.9448(4)
H7 H 0.0657 1.2513 0.9559
C10 C -0.0283(5) 1.2362(9) 0.9247(5)
H8 H -0.0371 1.3081 0.9221
C11 C -0.0650(4) 1.0668(9) 0.9101(4)
H9 H -0.0992 1.0211 0.8965
C12 C -0.0062(4) 1.0285(8) 0.9307(4)
H10 H 0.0007 0.9560 0.9332
C13 C 0.3066(4) 0.5439(7) 1.0426(4)
C14 C 0.3041(4) 0.4308(7) 1.0404(4)
C15 C 0.3541(4) 0.3694(7) 1.0426(5)
H11 H 0.3915 0.4001 1.0425
C16 C 0.3493(5) 0.2621(7) 1.0451(4)
H12 H 0.3837 0.2207 1.0459
C17 C 0.2482(4) 0.2761(6) 1.0432(4)
H13 H 0.2111 0.2442 1.0436
C18 C 0.2503(4) 0.3816(7) 1.0397(4)
H14 H 0.2146 0.4213 1.0367
C19 C 0.2367(5) 0.8608(7) 1.2015(4)
C20 C 0.2136(5) 0.8684(8) 1.2494(4)
C21 C 0.2515(8) 0.8970(10) 1.3031(5)
H15 H 0.2931 0.9159 1.3093
C22 C 0.2292(9) 0.8982(11) 1.3476(6)
H16 H 0.2556 0.9173 1.3844
C23 C 0.1340(7) 0.8469(12) 1.2890(6)
H17 H 0.0921 0.8318 1.2841
C24 C 0.1536(6) 0.8406(11) 1.2429(6)
H18 H 0.1264 0.8176 1.2072
Cu1_2 Cu 0.29440(5) 0.06099(8) 1.05142(5)
Cu2A Cu 0.62716(5) 1.33180(8) 1.39683(5)
N5A N 0.4321(3) 0.7525(6) 1.1682(3)
N15_2 N 0.2974(3) 1.2155(6) 1.0463(3)
O44 O 0.0991(7) 0.6075(16) 0.9111(6)
O45 O 0.4582(18) 0.795(4) 0.8841(18)
O46 O 0.4871(7) 0.132(2) 0.6581(10)
O47 O 0.2956(13) 0.6770(10) 0.4407(6)
O48 O 0.3840(8) 0.811(3) 0.4408(9)
O49 O 0.4020(7) 0.9258(18) 0.2942(8)
O50 O 0.5473(15) 0.943(4) 0.086(2)
O51 O 0.5452(7) 0.768(2) 0.0389(8)
O52 O 0.4832(6) 0.5439(13) 0.0993(9)
O53 O 0.5285(19) 0.567(2) 0.0325(15)
O54 O 0.6405(13) 0.4943(16) 0.0663(10)
O55 O 0.4697(11) 0.080(2) 0.0498(11)
loop_
_geom_bond_atom_site_label_1
_geom_bond_atom_site_label_2
_geom_bond_site_symmetry_1
_geom_bond_site_symmetry_2
Mo1 O1 1_555 1_555
Mo2 O3 1_555 1_555
Mo3 O5 1_555 1_555
Mo4 O4 1_555 1_555
Mo5 O11 1_555 1_555
Mo6 O2 1_555 1_555
Mo7 O3 1_555 1_555
Mo8 O7 1_555 1_555
Mo9 O2 1_555 1_555
Mo10 O8 1_555 1_555
Mo11 O6 1_555 1_555
Mo12 O4 1_555 1_555
P1 O5 1_555 1_555
O5 Mo1 1_555 1_555
O6 Mo1 1_555 1_555
O8 Mo1 1_555 1_555
O9 Mo10 1_555 1_555
O10 Mo8 1_555 1_555
O12 Mo9 1_555 1_555
O13 Mo5 1_555 1_555
O14 Mo1 1_555 1_555
O15 Mo5 1_555 1_555
O16 Mo4 1_555 1_555
O17 Mo7 1_555 1_555
O18 Mo2 1_555 1_555
O19 Mo9 1_555 1_555
O20 Mo3 1_555 1_555
O21 Mo4 1_555 1_555
O22 Mo7 1_555 1_555
O23 Mo9 1_555 1_555
O24 Mo2 1_555 1_555
O25 Mo11 1_555 1_555
O26 Mo9 1_555 1_555
O27 Mo2 1_555 1_555
O28 Mo7 1_555 1_555
O29 Mo4 1_555 1_555
O30 Mo3 1_555 1_555
O31 Mo7 1_555 1_555
O32 Mo6 1_555 1_555
O33 Mo8 1_555 1_555
O34 Mo1 1_555 1_555
O35 Mo3 1_555 1_555
O36 Mo12 1_555 1_555
O37 Mo4 1_555 1_555
O38 Mo10 1_555 1_555
O39 Mo6 1_555 1_555
O40 Mo11 1_555 1_555
Cu1 O41 1_555 1_555
Cu2 O41 1_555 1_555
Cu3 O41 1_555 1_555
O42 Cu3 1_555 1_555
O43 Cu2 1_555 1_555
N1 Cu1 1_555 1_555
N2 N1 1_555 1_555
N3 N4 1_555 1_555
N4 Cu2 1_555 1_555
N5 C4 1_555 1_555
N6 Cu1 1_555 1_555
N7 N6 1_555 1_555
N8 N9 1_555 1_555
N9 Cu3 1_555 1_555
N10 H1 1_555 1_555
N11 Cu2 1_555 1_555
N12 N11 1_555 1_555
N13 N14 1_555 1_555
N14 Cu3 1_555 1_555
N15 C16 1_555 1_555
N16 Cu3 1_555 1_555
N17 N16 1_555 1_555
N18 N19 1_555 1_555
N19 Cu2 1_555 1_555
N20 H2 1_555 1_555
C1 N2 1_555 1_555
C2 C1 1_555 1_555
C3 C2 1_555 1_555
H3 C3 1_555 1_555
C4 C3 1_555 1_555
H4 C4 1_555 1_555
C5 N5 1_555 1_555
H5 C5 1_555 1_555
C6 C2 1_555 1_555
H6 C6 1_555 1_555
C7 N7 1_555 1_555
C8 C7 1_555 1_555
C9 C8 1_555 1_555
H7 C9 1_555 1_555
C10 N10 1_555 1_555
H8 C10 1_555 1_555
C11 N10 1_555 1_555
H9 C11 1_555 1_555
C12 C8 1_555 1_555
H10 C12 1_555 1_555
C13 N12 1_555 1_555
C14 C13 1_555 1_555
C15 C14 1_555 1_555
H11 C15 1_555 1_555
C16 C15 1_555 1_555
H12 C16 1_555 1_555
C17 N15 1_555 1_555
H13 C17 1_555 1_555
C18 C14 1_555 1_555
H14 C18 1_555 1_555
C19 N17 1_555 1_555
C20 C19 1_555 1_555
C21 C20 1_555 1_555
H15 C21 1_555 1_555
C22 N20 1_555 1_555
H16 C22 1_555 1_555
C23 N20 1_555 1_555
H17 C23 1_555 1_555
C24 C20 1_555 1_555
H18 C24 1_555 1_555
Cu1_2 N15 1_555 1_555
Cu2A N5 1_555 1_555
N5A Cu2 1_555 1_555
N15_2 Cu1 1_555 1_555
Mo2 O5 1_555 1_555
Mo2 O14 1_555 1_555
Mo3 O24 1_555 1_555
Mo3 O34 1_555 1_555
Mo4 O20 1_555 1_555
Mo5 O16 1_555 1_555
Mo5 O18 1_555 1_555
Mo5 O21 1_555 1_555
Mo6 O13 1_555 1_555
Mo6 O21 1_555 1_555
Mo6 O37 1_555 1_555
Mo7 O15 1_555 1_555
Mo8 O17 1_555 1_555
Mo8 O31 1_555 1_555
Mo8 O32 1_555 1_555
Mo9 O10 1_555 1_555
Mo10 O17 1_555 1_555
Mo10 O22 1_555 1_555
Mo10 O33 1_555 1_555
Mo11 O9 1_555 1_555
Mo11 O12 1_555 1_555
Mo11 O23 1_555 1_555
Mo12 O23 1_555 1_555
Mo12 O25 1_555 1_555
Mo12 O26 1_555 1_555
Mo12 O35 1_555 1_555
P1 O17 1_555 1_555
P1 O21 1_555 1_555
P1 O23 1_555 1_555
N1 N4 1_555 1_555
N3 C1 1_555 1_555
N6 N9 1_555 1_555
N8 C7 1_555 1_555
N11 N14 1_555 1_555
N13 C13 1_555 1_555
N16 N19 1_555 1_555
N18 C19 1_555 1_555
C5 C6 1_555 1_555
C9 C10 1_555 1_555
C11 C12 1_555 1_555
C17 C18 1_555 1_555
C21 C22 1_555 1_555
C23 C24 1_555 1_555

#END
