
#######################################################################
#
#                 Cambridge Crystallographic Data Centre
#                                CCDC 
#
#######################################################################
#
# If this CIF has been generated from an entry in the Cambridge 
# Structural Database, then it will include bibliographic, chemical, 
# crystal, experimental, refinement or atomic coordinate data resulting 
# from the CCDC's data processing and validation procedures.
#
#######################################################################

data_GEWHOF
_symmetry_cell_setting           triclinic
_symmetry_space_group_name_H-M   'P -1'
_symmetry_Int_Tables_number      2
_space_group_name_Hall           '-P 1'
loop_
_symmetry_equiv_pos_site_id
_symmetry_equiv_pos_as_xyz
1 x,y,z
2 -x,-y,-z
_cell_length_a                   7.80(2)
_cell_length_b                   8.327(9)
_cell_length_c                   9.568(3)
_cell_angle_alpha                90.5(1)
_cell_angle_beta                 90.5(1)
_cell_angle_gamma                97.8(2)
_cell_volume                     615.643
loop_
_atom_site_label
_atom_site_type_symbol
_atom_site_fract_x
_atom_site_fract_y
_atom_site_fract_z
Co1 Co 0.00000 0.00000 0.00000
S1 S -0.3905(1) 0.2422(1) -0.3068(1)
S2 S 0.1164(2) -0.4021(1) -0.3340(1)
O1 O -0.0735(4) 0.1535(4) -0.1664(3)
O2 O -0.4437(4) 0.1164(3) -0.2086(3)
O3 O -0.4935(4) 0.2555(4) -0.4283(3)
N1 N 0.2687(4) 0.1181(4) 0.0179(4)
N2 N 0.0829(5) -0.1561(5) -0.1416(4)
N3 N -0.1994(4) 0.2110(4) -0.3700(3)
C1 C 0.0975(5) -0.2582(5) -0.2216(4)
C2 C -0.0619(5) 0.1755(5) -0.2929(4)
C3 C 0.3033(5) 0.2739(5) 0.0859(4)
C4 C 0.2685(5) 0.4123(5) 0.0156(4)
C5 C 0.2961(5) 0.5612(5) 0.0814(4)
C6 C -0.3552(5) 0.4284(5) -0.2188(4)
C7 C -0.3882(6) 0.5663(5) -0.2901(4)
C8 C 0.3624(6) 0.2854(5) 0.2221(4)
C9 C 0.1014(6) 0.1652(6) -0.3730(5)
N1A N -0.2687(4) -0.1181(4) -0.0179(4)
O1A O 0.0735(4) -0.1535(4) 0.1664(3)
C5A C -0.2961(5) 0.4388(5) -0.0814(4)
C8A C -0.3624(6) 0.7146(5) -0.2221(4)
C3A C -0.3033(5) 0.7261(5) -0.0859(4)
N1A_2 N -0.2687(4) 0.8819(4) -0.0179(4)
Co1A Co 0.00000 1.00000 0.00000
C4A C -0.2685(5) 0.5877(5) -0.0156(4)
C7A C 0.3882(6) 0.4337(5) 0.2901(4)
N2A N -0.0829(5) 0.1561(5) 0.1416(4)
C1A C -0.0975(5) 0.2582(5) 0.2216(4)
S2A S -0.1164(2) 0.4021(1) 0.3340(1)
C6A C 0.3552(5) 0.5716(5) 0.2188(4)
S1A S 0.3905(1) 0.7578(1) 0.3068(1)
O2A O 0.4437(4) 0.8836(3) 0.2086(3)
O3A O 0.4935(4) 0.7445(4) 0.4283(3)
N3A N 0.1994(4) 0.7890(4) 0.3700(3)
C2A C 0.0619(5) 0.8245(5) 0.2929(4)
O1A_2 O 0.0735(4) 0.8465(4) 0.1664(3)
C9A C -0.1014(6) 0.8348(6) 0.3730(5)
loop_
_geom_bond_atom_site_label_1
_geom_bond_atom_site_label_2
_geom_bond_site_symmetry_1
_geom_bond_site_symmetry_2
Co1 O1 1_555 1_555
S1 O2 1_555 1_555
S2 C1 1_555 1_555
O1 C2 1_555 1_555
O3 S1 1_555 1_555
N1 Co1 1_555 1_555
N2 Co1 1_555 1_555
N3 S1 1_555 1_555
C1 N2 1_555 1_555
C2 N3 1_555 1_555
C3 N1 1_555 1_555
C4 C3 1_555 1_555
C5 C4 1_555 1_555
C6 S1 1_555 1_555
C7 C6 1_555 1_555
C8 C3 1_555 1_555
C9 C2 1_555 1_555
N1A Co1 1_555 1_555
O1A Co1 1_555 1_555
C5A C6 1_555 1_555
C8A C7 1_555 1_555
C3A C8A 1_555 1_555
N1A_2 C3A 1_555 1_555
Co1A N1A_2 1_555 1_555
C4A C5A 1_555 1_555
C7A C8 1_555 1_555
N2A Co1 1_555 1_555
C1A N2A 1_555 1_555
S2A C1A 1_555 1_555
C6A C5 1_555 1_555
S1A C6A 1_555 1_555
O2A S1A 1_555 1_555
O3A S1A 1_555 1_555
N3A S1A 1_555 1_555
C2A N3A 1_555 1_555
O1A_2 Co1A 1_555 1_555
C9A C2A 1_555 1_555
C3A C4A 1_555 1_555
C7A C6A 1_555 1_555
C2A O1A_2 1_555 1_555

#END
