
#######################################################################
#
#                 Cambridge Crystallographic Data Centre
#                                CCDC 
#
#######################################################################
#
# If this CIF has been generated from an entry in the Cambridge 
# Structural Database, then it will include bibliographic, chemical, 
# crystal, experimental, refinement or atomic coordinate data resulting 
# from the CCDC's data processing and validation procedures.
#
#######################################################################

data_GEWKAW
_symmetry_cell_setting           orthorhombic
_symmetry_space_group_name_H-M   'P 21 21 2'
_symmetry_Int_Tables_number      18
_space_group_name_Hall           'P 2 2ab'
loop_
_symmetry_equiv_pos_site_id
_symmetry_equiv_pos_as_xyz
1 x,y,z
2 -x,-y,z
3 1/2+x,1/2-y,-z
4 1/2-x,1/2+y,-z
_cell_length_a                   13.9145(11)
_cell_length_b                   6.1891(7)
_cell_length_c                   8.3510(7)
_cell_angle_alpha                90
_cell_angle_beta                 90
_cell_angle_gamma                90
_cell_volume                     719.173
loop_
_atom_site_label
_atom_site_type_symbol
_atom_site_fract_x
_atom_site_fract_y
_atom_site_fract_z
Mg1 Mg 0.5000 0.0000 -0.03782(13)
O1 O 0.54918(12) 0.2252(3) 0.13107(18)
O2 O 0.65544(12) 0.4294(3) -0.00081(18)
O3 O 0.54442(13) 0.2127(3) -0.21653(19)
H1 H 0.5756 0.3111 -0.1682
H2 H 0.5251 0.2613 -0.3065
O4 O 0.36318(12) 0.1372(3) -0.0471(2)
H3 H 0.3601 0.2725 -0.0291
H4 H 0.3092 0.0813 -0.0228
N1 N 0.55865(15) 0.6902(4) 0.5081(2)
C1 C 0.60612(16) 0.3812(4) 0.1229(3)
C2 C 0.54708(17) 0.5572(3) 0.3829(3)
C3 C 0.61854(16) 0.5283(4) 0.2658(2)
C4 C 0.70159(18) 0.6505(4) 0.2818(3)
H5 H 0.7500 0.6379 0.2056
C5 C 0.71348(18) 0.7907(4) 0.4091(3)
H6 H 0.7692 0.8724 0.4201
C6 C 0.6404(2) 0.8051(4) 0.5184(3)
H7 H 0.6477 0.8994 0.6042
O1A O 0.45082(12) 0.7748(3) 0.13107(18)
O2A O 0.34456(12) 0.5706(3) -0.00081(18)
N1A N 0.44135(15) 0.3098(4) 0.5081(2)
C1A C 0.39388(16) 0.6188(4) 0.1229(3)
C2A C 0.45292(17) 0.4428(3) 0.3829(3)
C3A C 0.38146(16) 0.4717(4) 0.2658(2)
C4A C 0.29841(18) 0.3495(4) 0.2818(3)
H5A H 0.2500 0.3621 0.2056
C5A C 0.28652(18) 0.2093(4) 0.4091(3)
H6A H 0.2308 0.1276 0.4201
C6A C 0.3596(2) 0.1949(4) 0.5184(3)
H7A H 0.3523 0.1006 0.6042
O3A O 0.45558(13) -0.2127(3) -0.21653(19)
H1A H 0.4244 -0.3111 -0.1682
H2A H 0.4749 -0.2613 -0.3065
O4A O 0.63682(12) -0.1372(3) -0.0471(2)
H3A H 0.6399 -0.2725 -0.0291
H4A H 0.6908 -0.0813 -0.0228
Mg1_2 Mg 0.5000 1.0000 -0.03782(13)
O1A_2 O 0.45082(12) -0.2252(3) 0.13107(18)
loop_
_geom_bond_atom_site_label_1
_geom_bond_atom_site_label_2
_geom_bond_site_symmetry_1
_geom_bond_site_symmetry_2
Mg1 O1 1_555 1_555
O1 C1 1_555 1_555
O2 C1 1_555 1_555
O3 Mg1 1_555 1_555
H1 O3 1_555 1_555
H2 O3 1_555 1_555
O4 Mg1 1_555 1_555
H3 O4 1_555 1_555
H4 O4 1_555 1_555
N1 C2 1_555 1_555
C1 C3 1_555 1_555
C2 C3 1_555 1_555
C3 C4 1_555 1_555
C4 H5 1_555 1_555
C5 C4 1_555 1_555
H6 C5 1_555 1_555
C6 N1 1_555 1_555
H7 C6 1_555 1_555
O1A C1A 1_555 1_555
O2A C1A 1_555 1_555
N1A C2A 1_555 1_555
C1A C3A 1_555 1_555
C2A C2 1_555 1_555
C3A C2A 1_555 1_555
C4A C3A 1_555 1_555
H5A C4A 1_555 1_555
C5A C4A 1_555 1_555
H6A C5A 1_555 1_555
C6A N1A 1_555 1_555
H7A C6A 1_555 1_555
O3A Mg1 1_555 1_555
H1A O3A 1_555 1_555
H2A O3A 1_555 1_555
O4A Mg1 1_555 1_555
H3A O4A 1_555 1_555
H4A O4A 1_555 1_555
Mg1_2 O1A 1_555 1_555
O1A_2 Mg1 1_555 1_555
C5 C6 1_555 1_555
C5A C6A 1_555 1_555

#END
