
#######################################################################
#
#                 Cambridge Crystallographic Data Centre
#                                CCDC 
#
#######################################################################
#
# If this CIF has been generated from an entry in the Cambridge 
# Structural Database, then it will include bibliographic, chemical, 
# crystal, experimental, refinement or atomic coordinate data resulting 
# from the CCDC's data processing and validation procedures.
#
#######################################################################

data_GEWKEA
_symmetry_cell_setting           orthorhombic
_symmetry_space_group_name_H-M   'P 21 21 2'
_symmetry_Int_Tables_number      18
_space_group_name_Hall           'P 2 2ab'
loop_
_symmetry_equiv_pos_site_id
_symmetry_equiv_pos_as_xyz
1 x,y,z
2 -x,-y,z
3 1/2+x,1/2-y,-z
4 1/2-x,1/2+y,-z
_cell_length_a                   13.9023(13)
_cell_length_b                   6.1855(4)
_cell_length_c                   8.3476(7)
_cell_angle_alpha                90
_cell_angle_beta                 90
_cell_angle_gamma                90
_cell_volume                     717.832
loop_
_atom_site_label
_atom_site_type_symbol
_atom_site_fract_x
_atom_site_fract_y
_atom_site_fract_z
Mg1 Mg 0.5000 1.0000 1.03767(12)
N1 N 0.44122(15) 0.3097(3) 0.4916(2)
O1 O 0.45104(11) 0.7745(2) 0.86904(17)
O2 O 0.34462(12) 0.5708(3) 1.00061(16)
O3 O 0.45550(12) 0.7878(3) 1.21608(17)
H1 H 0.4236 0.6811 1.1799
H2 H 0.4800 0.7430 1.3033
O4 O 0.63683(11) 0.8623(3) 1.04717(19)
H3 H 0.6445 0.7267 1.0362
H4 H 0.6858 0.9136 0.9996
C1 C 0.39391(16) 0.6195(4) 0.8775(3)
C2 C 0.45262(16) 0.4422(3) 0.6173(2)
C3 C 0.38174(16) 0.4710(4) 0.7344(2)
C4 C 0.29845(17) 0.3502(4) 0.7187(3)
H5 H 0.2499 0.3637 0.7946
C5 C 0.28664(17) 0.2097(4) 0.5913(3)
H6 H 0.2308 0.1281 0.5802
C6 C 0.36007(19) 0.1945(4) 0.4817(3)
H7 H 0.3529 0.0993 0.3963
N1A N 0.55878(15) 0.6903(3) 0.4916(2)
O1A O 0.54896(11) 0.2255(2) 0.86904(17)
O2A O 0.65538(12) 0.4292(3) 1.00061(16)
C1A C 0.60609(16) 0.3805(4) 0.8775(3)
C2A C 0.54738(16) 0.5578(3) 0.6173(2)
C3A C 0.61826(16) 0.5290(4) 0.7344(2)
C4A C 0.70155(17) 0.6498(4) 0.7187(3)
H5A H 0.7501 0.6363 0.7946
C5A C 0.71336(17) 0.7903(4) 0.5913(3)
H6A H 0.7692 0.8719 0.5802
C6A C 0.63993(19) 0.8055(4) 0.4817(3)
H7A H 0.6471 0.9007 0.3963
O3A O 0.54450(12) 1.2122(3) 1.21608(17)
H1A H 0.5764 1.3189 1.1799
H2A H 0.5200 1.2570 1.3033
O4A O 0.36317(11) 1.1377(3) 1.04717(19)
H3A H 0.3555 1.2733 1.0362
H4A H 0.3142 1.0864 0.9996
Mg1_2 Mg 0.5000 0.0000 1.03767(12)
O1A_2 O 0.54896(11) 1.2255(2) 0.86904(17)
loop_
_geom_bond_atom_site_label_1
_geom_bond_atom_site_label_2
_geom_bond_site_symmetry_1
_geom_bond_site_symmetry_2
Mg1 O1 1_555 1_555
N1 C2 1_555 1_555
O1 C1 1_555 1_555
O2 C1 1_555 1_555
O3 Mg1 1_555 1_555
H1 O3 1_555 1_555
H2 O3 1_555 1_555
O4 Mg1 1_555 1_555
H3 O4 1_555 1_555
H4 O4 1_555 1_555
C1 C3 1_555 1_555
C2 C3 1_555 1_555
C3 C4 1_555 1_555
C4 H5 1_555 1_555
C5 C4 1_555 1_555
H6 C5 1_555 1_555
C6 N1 1_555 1_555
H7 C6 1_555 1_555
N1A C2A 1_555 1_555
O1A C1A 1_555 1_555
O2A C1A 1_555 1_555
C1A C3A 1_555 1_555
C2A C2 1_555 1_555
C3A C2A 1_555 1_555
C4A C3A 1_555 1_555
H5A C4A 1_555 1_555
C5A C4A 1_555 1_555
H6A C5A 1_555 1_555
C6A N1A 1_555 1_555
H7A C6A 1_555 1_555
O3A Mg1 1_555 1_555
H1A O3A 1_555 1_555
H2A O3A 1_555 1_555
O4A Mg1 1_555 1_555
H3A O4A 1_555 1_555
H4A O4A 1_555 1_555
Mg1_2 O1A 1_555 1_555
O1A_2 Mg1 1_555 1_555
C5 C6 1_555 1_555
C5A C6A 1_555 1_555

#END
