
#######################################################################
#
#                 Cambridge Crystallographic Data Centre
#                                CCDC 
#
#######################################################################
#
# If this CIF has been generated from an entry in the Cambridge 
# Structural Database, then it will include bibliographic, chemical, 
# crystal, experimental, refinement or atomic coordinate data resulting 
# from the CCDC's data processing and validation procedures.
#
#######################################################################

data_GEWMAY01
_symmetry_cell_setting           monoclinic
_symmetry_space_group_name_H-M   'P 21/n'
_symmetry_Int_Tables_number      14
_space_group_name_Hall           '-P 2yn'
loop_
_symmetry_equiv_pos_site_id
_symmetry_equiv_pos_as_xyz
1 x,y,z
2 1/2-x,1/2+y,1/2-z
3 -x,-y,-z
4 1/2+x,1/2-y,1/2+z
_cell_length_a                   15.7697(8)
_cell_length_b                   11.5582(5)
_cell_length_c                   26.4886(14)
_cell_angle_alpha                90
_cell_angle_beta                 106.294(5)
_cell_angle_gamma                90
_cell_volume                     4634.14
loop_
_atom_site_label
_atom_site_type_symbol
_atom_site_fract_x
_atom_site_fract_y
_atom_site_fract_z
Fe1 Fe -0.18381(7) 0.23905(11) -0.08831(5)
Fe2 Fe -0.32760(7) -0.26341(10) 0.09671(5)
N1 N -0.0550(4) 0.3168(6) -0.0465(3)
N2 N -0.1048(4) 0.1272(5) -0.1255(3)
N3 N -0.2893(4) 0.2114(6) -0.1606(3)
N4 N -0.1536(4) 0.3602(5) -0.1468(3)
N5 N -0.1829(5) 0.1153(6) -0.0331(3)
N6 N -0.1486(5) -0.0495(6) 0.0265(3)
N7 N -0.2471(4) -0.1494(6) 0.0692(3)
N8 N -0.4474(5) -0.1653(7) 0.0640(3)
N9 N -0.4016(4) -0.3675(6) 0.1359(3)
N10 N -0.2135(4) -0.3124(6) 0.1602(3)
N11 N -0.3354(4) -0.1462(5) 0.1613(3)
N12 N -0.3392(5) -0.3828(6) 0.0377(3)
N13 N -0.3683(5) -0.5425(6) -0.0251(3)
N14 N -0.2639(5) -0.6413(6) -0.0623(3)
C1 C 0.0050(6) 0.2708(9) -0.0071(4)
H1 H -0.0105 0.2057 0.0090
C2 C 0.0896(7) 0.3131(12) 0.0120(5)
H2 H 0.1296 0.2785 0.0406
C3 C 0.1130(7) 0.4063(13) -0.0120(5)
H3 H 0.1702 0.4355 -0.0004
C4 C 0.0511(6) 0.4585(8) -0.0543(4)
H4 H 0.0653 0.5238 -0.0708
C5 C -0.0324(6) 0.4093(8) -0.0709(4)
C6 C -0.1059(6) 0.4572(7) -0.1158(4)
H5 H -0.1460 0.5032 -0.1022
H6 H -0.0813 0.5065 -0.1379
C7 C -0.0808(5) 0.0181(7) -0.1127(4)
H7 H -0.1061 -0.0202 -0.0897
C8 C -0.0202(6) -0.0413(8) -0.1319(4)
H8 H -0.0060 -0.1180 -0.1227
C9 C 0.0182(6) 0.0160(9) -0.1649(4)
H9 H 0.0607 -0.0204 -0.1775
C10 C -0.0065(6) 0.1281(8) -0.1791(4)
H10 H 0.0188 0.1679 -0.2018
C11 C -0.0700(5) 0.1817(7) -0.1592(3)
C12 C -0.0996(5) 0.3005(7) -0.1775(4)
H11 H -0.1343 0.2964 -0.2141
H12 H -0.0479 0.3473 -0.1760
C13 C -0.3377(5) 0.1177(8) -0.1735(4)
H13 H -0.3346 0.0628 -0.1473
C14 C -0.3932(6) 0.0949(8) -0.2232(4)
H14 H -0.4248 0.0261 -0.2306
C15 C -0.3997(6) 0.1785(9) -0.2614(4)
H15 H -0.4370 0.1678 -0.2952
C16 C -0.3506(6) 0.2767(9) -0.2489(4)
H16 H -0.3533 0.3331 -0.2744
C17 C -0.2971(5) 0.2924(8) -0.1987(4)
C18 C -0.2399(6) 0.3982(7) -0.1811(4)
H17 H -0.2319 0.4389 -0.2115
H18 H -0.2681 0.4504 -0.1621
C19 C -0.1719(5) 0.0371(7) -0.0055(4)
C20 C -0.2034(5) -0.1022(8) 0.0480(3)
C21 C -0.5166(6) -0.1947(8) 0.0239(4)
H19 H -0.5145 -0.2612 0.0045
C22 C -0.5929(7) -0.1244(11) 0.0112(5)
H20 H -0.6420 -0.1471 -0.0156
C23 C -0.5958(7) -0.0248(11) 0.0373(5)
H21 H -0.6450 0.0231 0.0274
C24 C -0.5267(6) 0.0035(9) 0.0774(5)
H22 H -0.5279 0.0709 0.0963
C25 C -0.4525(6) -0.0683(8) 0.0911(4)
C26 C -0.3725(5) -0.0396(6) 0.1341(4)
H23 H -0.3292 -0.0022 0.1199
H24 H -0.3877 0.0132 0.1587
C27 C -0.4318(5) -0.4761(8) 0.1226(4)
H25 H -0.4175 -0.5116 0.0946
C28 C -0.4814(6) -0.5363(8) 0.1477(4)
H26 H -0.5019 -0.6100 0.1364
C29 C -0.5007(6) -0.4873(9) 0.1899(5)
H27 H -0.5352 -0.5266 0.2076
C30 C -0.4684(6) -0.3788(9) 0.2060(4)
H28 H -0.4782 -0.3453 0.2358
C31 C -0.4219(5) -0.3209(8) 0.1776(4)
C32 C -0.3926(6) -0.1983(7) 0.1910(4)
H29 H -0.4450 -0.1505 0.1856
H30 H -0.3613 -0.1951 0.2282
C33 C -0.1678(5) -0.4099(8) 0.1634(4)
H31 H -0.1800 -0.4586 0.1344
C34 C -0.1027(5) -0.4420(7) 0.2082(4)
H32 H -0.0721 -0.5111 0.2088
C35 C -0.0838(6) -0.3737(8) 0.2508(4)
H33 H -0.0395 -0.3939 0.2809
C36 C -0.1315(5) -0.2725(8) 0.2491(3)
H34 H -0.1214 -0.2248 0.2785
C37 C -0.1939(5) -0.2439(7) 0.2031(3)
C38 C -0.2441(5) -0.1322(7) 0.1945(4)
H35 H -0.2450 -0.1008 0.2283
H36 H -0.2138 -0.0772 0.1780
C39 C -0.3492(6) -0.4586(8) 0.0076(4)
C40 C -0.3100(6) -0.5935(8) -0.0434(4)
Fe1_2 Fe -0.18381(7) -0.76095(11) -0.08831(5)
N14_2 N -0.2639(5) 0.3587(6) -0.0623(3)
As1 As -0.22051(6) 0.25149(9) 0.13705(4)
F1 F -0.3315(3) 0.2253(5) 0.1167(2)
F2 F -0.2325(4) 0.3527(5) 0.0887(2)
F3 F -0.2034(4) 0.1464(5) 0.0956(2)
F4 F -0.2074(4) 0.1502(4) 0.1854(2)
F5 F -0.2383(4) 0.3554(4) 0.1794(2)
F6 F -0.1100(4) 0.2793(5) 0.1574(3)
As2 As -0.29902(6) -0.24445(9) -0.14865(4)
F7 F -0.4080(3) -0.2132(5) -0.1576(3)
F8 F -0.2930(4) -0.1366(4) -0.1919(2)
F9 F -0.3271(4) -0.3402(5) -0.2001(2)
F10 F -0.3037(4) -0.3524(5) -0.1062(2)
F11 F -0.2713(4) -0.1475(5) -0.0983(2)
F12 F -0.1904(3) -0.2738(5) -0.1408(2)
loop_
_geom_bond_atom_site_label_1
_geom_bond_atom_site_label_2
_geom_bond_site_symmetry_1
_geom_bond_site_symmetry_2
Fe1 N1 1_555 1_555
Fe2 N7 1_555 1_555
N1 C1 1_555 1_555
N2 Fe1 1_555 1_555
N3 Fe1 1_555 1_555
N4 Fe1 1_555 1_555
N5 Fe1 1_555 1_555
N6 C19 1_555 1_555
N7 C20 1_555 1_555
N8 Fe2 1_555 1_555
N9 Fe2 1_555 1_555
N10 Fe2 1_555 1_555
N11 Fe2 1_555 1_555
N12 Fe2 1_555 1_555
N13 C39 1_555 1_555
N14 C40 1_555 1_555
C1 H1 1_555 1_555
C2 C1 1_555 1_555
H2 C2 1_555 1_555
C3 C2 1_555 1_555
H3 C3 1_555 1_555
C4 C3 1_555 1_555
H4 C4 1_555 1_555
C5 N1 1_555 1_555
C6 N4 1_555 1_555
H5 C6 1_555 1_555
H6 C6 1_555 1_555
C7 N2 1_555 1_555
H7 C7 1_555 1_555
C8 C7 1_555 1_555
H8 C8 1_555 1_555
C9 C8 1_555 1_555
H9 C9 1_555 1_555
C10 C9 1_555 1_555
H10 C10 1_555 1_555
C11 N2 1_555 1_555
C12 N4 1_555 1_555
H11 C12 1_555 1_555
H12 C12 1_555 1_555
C13 N3 1_555 1_555
H13 C13 1_555 1_555
C14 C13 1_555 1_555
H14 C14 1_555 1_555
C15 C14 1_555 1_555
H15 C15 1_555 1_555
C16 C15 1_555 1_555
H16 C16 1_555 1_555
C17 N3 1_555 1_555
C18 N4 1_555 1_555
H17 C18 1_555 1_555
H18 C18 1_555 1_555
C19 N5 1_555 1_555
C20 N6 1_555 1_555
C21 N8 1_555 1_555
H19 C21 1_555 1_555
C22 C21 1_555 1_555
H20 C22 1_555 1_555
C23 C22 1_555 1_555
H21 C23 1_555 1_555
C24 C23 1_555 1_555
H22 C24 1_555 1_555
C25 N8 1_555 1_555
C26 N11 1_555 1_555
H23 C26 1_555 1_555
H24 C26 1_555 1_555
C27 N9 1_555 1_555
H25 C27 1_555 1_555
C28 C27 1_555 1_555
H26 C28 1_555 1_555
C29 C28 1_555 1_555
H27 C29 1_555 1_555
C30 C29 1_555 1_555
H28 C30 1_555 1_555
C31 N9 1_555 1_555
C32 N11 1_555 1_555
H29 C32 1_555 1_555
H30 C32 1_555 1_555
C33 N10 1_555 1_555
H31 C33 1_555 1_555
C34 C33 1_555 1_555
H32 C34 1_555 1_555
C35 C34 1_555 1_555
H33 C35 1_555 1_555
C36 C35 1_555 1_555
H34 C36 1_555 1_555
C37 N10 1_555 1_555
C38 N11 1_555 1_555
H35 C38 1_555 1_555
H36 C38 1_555 1_555
C39 N12 1_555 1_555
C40 N13 1_555 1_555
As1 F1 1_555 1_555
F2 As1 1_555 1_555
F3 As1 1_555 1_555
F4 As1 1_555 1_555
F5 As1 1_555 1_555
F6 As1 1_555 1_555
As2 F7 1_555 1_555
F8 As2 1_555 1_555
F9 As2 1_555 1_555
F10 As2 1_555 1_555
F11 As2 1_555 1_555
F12 As2 1_555 1_555
Fe1_2 N14 1_555 1_555
N14_2 Fe1 1_555 1_555
C4 C5 1_555 1_555
C5 C6 1_555 1_555
C10 C11 1_555 1_555
C11 C12 1_555 1_555
C16 C17 1_555 1_555
C17 C18 1_555 1_555
C24 C25 1_555 1_555
C25 C26 1_555 1_555
C30 C31 1_555 1_555
C31 C32 1_555 1_555
C36 C37 1_555 1_555
C37 C38 1_555 1_555

#END
