
#######################################################################
#
#                 Cambridge Crystallographic Data Centre
#                                CCDC 
#
#######################################################################
#
# If this CIF has been generated from an entry in the Cambridge 
# Structural Database, then it will include bibliographic, chemical, 
# crystal, experimental, refinement or atomic coordinate data resulting 
# from the CCDC's data processing and validation procedures.
#
#######################################################################

data_GEWMOM01
_symmetry_cell_setting           monoclinic
_symmetry_space_group_name_H-M   'P 21/c'
_symmetry_Int_Tables_number      14
_space_group_name_Hall           '-P 2ybc'
loop_
_symmetry_equiv_pos_site_id
_symmetry_equiv_pos_as_xyz
1 x,y,z
2 -x,1/2+y,1/2-z
3 -x,-y,-z
4 x,1/2-y,1/2+z
_cell_length_a                   25.958(3)
_cell_length_b                   10.9101(13)
_cell_length_c                   27.037(3)
_cell_angle_alpha                90
_cell_angle_beta                 102.141(3)
_cell_angle_gamma                90
_cell_volume                     7485.73
loop_
_atom_site_label
_atom_site_type_symbol
_atom_site_fract_x
_atom_site_fract_y
_atom_site_fract_z
Fe1 Fe 0.40212(3) 0.33568(7) 0.18829(3)
N1 N 0.35248(16) 0.3700(4) 0.23693(15)
N2 N 0.34158(15) 0.3672(4) 0.12764(14)
N3 N 0.43803(15) 0.2398(4) 0.13933(15)
N4 N 0.36376(16) 0.1635(3) 0.18634(15)
N5 N 0.56680(19) 0.0023(6) 0.31556(19)
N6 N 0.4605(2) 0.2855(5) 0.24802(19)
N7 N 0.5304(2) 0.2093(6) 0.3146(2)
C1 C 0.3396(2) 0.4799(5) 0.2524(2)
H1 H 0.3553 0.5495 0.2423
C2 C 0.3041(3) 0.4923(7) 0.2826(3)
H2 H 0.2960 0.5698 0.2931
C3 C 0.2805(3) 0.3908(7) 0.2974(3)
H3 H 0.2559 0.3980 0.3178
C4 C 0.2938(2) 0.2794(6) 0.2817(2)
H4 H 0.2781 0.2090 0.2912
C5 C 0.3302(2) 0.2703(5) 0.25207(19)
C6 C 0.3491(2) 0.1480(5) 0.2357(2)
H5 H 0.3793 0.1196 0.2606
H6 H 0.3213 0.0873 0.2330
C7 C 0.3341(2) 0.4702(5) 0.1004(2)
H7 H 0.3563 0.5364 0.1108
C8 C 0.2962(3) 0.4824(6) 0.0588(2)
H8 H 0.2915 0.5566 0.0415
C9 C 0.2646(3) 0.3850(7) 0.0422(2)
H9 H 0.2390 0.3904 0.0125
C10 C 0.2710(2) 0.2796(6) 0.0695(2)
H10 H 0.2493 0.2125 0.0591
C11 C 0.30958(18) 0.2732(5) 0.11267(18)
C12 C 0.3167(2) 0.1610(5) 0.1449(2)
H11 H 0.2858 0.1504 0.1593
H12 H 0.3190 0.0904 0.1237
C13 C 0.46276(19) 0.2882(6) 0.1058(2)
H13 H 0.4665 0.3729 0.1051
C14 C 0.4830(2) 0.2199(8) 0.0722(2)
H14 H 0.5003 0.2562 0.0492
C15 C 0.4766(3) 0.0944(8) 0.0738(3)
H15 H 0.4899 0.0444 0.0517
C16 C 0.4509(3) 0.0438(6) 0.1077(3)
H16 H 0.4467 -0.0408 0.1088
C17 C 0.4316(2) 0.1173(5) 0.1397(2)
C18 C 0.4029(2) 0.0708(4) 0.1786(2)
H17 H 0.3852 -0.0057 0.1672
H18 H 0.4277 0.0556 0.2102
C19 C 0.5472(2) 0.0989(7) 0.3132(2)
C20 C 0.4926(2) 0.2472(6) 0.2787(2)
Fe1A Fe 0.59788(3) -0.16432(7) 0.31171(3)
N5A N 0.43320(19) 0.5023(6) 0.18444(19)
Fe2 Fe 0.09139(3) 0.53240(7) 0.30154(3)
N8 N 0.05698(17) 0.6450(4) 0.34809(17)
N9 N 0.16284(17) 0.5283(4) 0.35547(17)
N10 N 0.13258(17) 0.4913(4) 0.24478(16)
N11 N 0.12290(17) 0.7105(4) 0.28725(17)
N12 N 0.0684(2) 0.3619(5) 0.3196(2)
N13 N -0.0243(2) 0.0577(5) 0.2568(2)
N14 N 0.0406(2) 0.1514(5) 0.3236(2)
C21 C 0.0327(2) 0.6066(6) 0.3840(2)
H19 H 0.0297 0.5227 0.3888
C22 C 0.0123(3) 0.6846(9) 0.4138(3)
H20 H -0.0052 0.6547 0.4380
C23 C 0.0178(3) 0.8073(9) 0.4077(3)
H21 H 0.0051 0.8627 0.4285
C24 C 0.0421(3) 0.8482(6) 0.3708(3)
H22 H 0.0459 0.9318 0.3659
C25 C 0.0606(2) 0.7654(5) 0.3413(2)
C26 C 0.0843(3) 0.8037(5) 0.2974(3)
H23 H 0.0565 0.8137 0.2675
H24 H 0.1019 0.8821 0.3049
C27 C 0.1800(3) 0.4367(6) 0.3876(2)
H25 H 0.1570 0.3733 0.3909
C28 C 0.2302(3) 0.4332(7) 0.4156(3)
H26 H 0.2416 0.3680 0.4373
C29 C 0.2636(3) 0.5281(7) 0.4111(3)
H27 H 0.2983 0.5266 0.4290
C30 C 0.2459(2) 0.6232(6) 0.3806(2)
H28 H 0.2679 0.6892 0.3780
C31 C 0.19544(19) 0.6215(5) 0.35341(19)
C32 C 0.1747(2) 0.7294(5) 0.3207(3)
H29 H 0.1723 0.7990 0.3425
H30 H 0.1998 0.7500 0.3001
C33 C 0.1439(3) 0.3794(6) 0.2312(2)
H31 H 0.1349 0.3127 0.2490
C34 C 0.1683(3) 0.3587(7) 0.1922(3)
H32 H 0.1761 0.2792 0.1836
C35 C 0.1811(3) 0.4571(8) 0.1656(3)
H33 H 0.1977 0.4453 0.1386
C36 C 0.1692(3) 0.5723(7) 0.1791(3)
H34 H 0.1775 0.6403 0.1616
C37 C 0.1448(2) 0.5862(5) 0.2187(2)
C38 C 0.1270(2) 0.7108(5) 0.2334(2)
H35 H 0.1521 0.7728 0.2281
H36 H 0.0930 0.7307 0.2122
C39 C 0.0534(2) 0.2639(6) 0.3198(2)
C40 C 0.0055(2) 0.1057(5) 0.2870(2)
Fe2A Fe -0.09139(3) 0.03240(7) 0.19846(3)
N13A N 0.0243(2) 0.5577(5) 0.2432(2)
C41 C 0.3608(2) 1.2084(5) 0.4538(2)
H37 H 0.3438 1.1756 0.4778
C42 C 0.3758(2) 1.3297(6) 0.4579(3)
H38 H 0.3687 1.3769 0.4844
C43 C 0.4009(3) 1.3815(6) 0.4234(3)
H39 H 0.4107 1.4637 0.4259
C44 C 0.4113(3) 1.3109(6) 0.3859(3)
H40 H 0.4288 1.3445 0.3624
C45 C 0.3965(2) 1.1895(6) 0.3818(2)
H41 H 0.4044 1.1436 0.3554
C46 C 0.37039(18) 1.1325(5) 0.41488(19)
C47 C 0.31468(19) 0.8914(4) 0.32016(18)
H42 H 0.2804 0.9034 0.3245
C48 C 0.3225(2) 0.8386(5) 0.2755(2)
H43 H 0.2935 0.8157 0.2508
C49 C 0.3715(3) 0.8198(5) 0.2673(2)
H44 H 0.3763 0.7843 0.2373
C50 C 0.4136(3) 0.8540(6) 0.3038(2)
H45 H 0.4476 0.8423 0.2988
C51 C 0.4058(2) 0.9055(6) 0.3479(2)
H46 H 0.4352 0.9276 0.3722
C52 C 0.35633(18) 0.9265(4) 0.35812(18)
C53 C 0.28819(19) 0.9863(5) 0.41585(18)
C54 C 0.2647(2) 0.8985(5) 0.4402(2)
H47 H 0.2857 0.8361 0.4572
C55 C 0.2114(2) 0.8983(6) 0.4409(2)
H48 H 0.1975 0.8362 0.4576
C56 C 0.1795(2) 0.9890(7) 0.4171(3)
H49 H 0.1438 0.9893 0.4177
C57 C 0.2003(2) 1.0796(7) 0.3924(2)
H50 H 0.1787 1.1416 0.3759
C58 C 0.2536(2) 1.0787(6) 0.3920(2)
H51 H 0.2671 1.1415 0.3753
C59 C 0.4240(2) 0.9579(5) 0.49677(19)
H52 H 0.4282 1.0426 0.4982
C60 C 0.38736(17) 0.9089(4) 0.45711(18)
C61 C 0.38393(19) 0.7817(5) 0.4587(2)
H53 H 0.3603 0.7428 0.4328
C62 C 0.4135(2) 0.7095(5) 0.4962(2)
H54 H 0.4092 0.6248 0.4955
C63 C 0.4491(2) 0.7638(6) 0.5344(2)
H55 H 0.4693 0.7166 0.5600
C64 C 0.4547(2) 0.8882(6) 0.5345(2)
H56 H 0.4791 0.9261 0.5600
B1 B 0.3507(2) 0.9894(5) 0.4119(2)
C65 C 0.0958(3) 1.0268(6) 0.0135(3)
H57 H 0.0848 0.9477 0.0038
C66 C 0.0740(4) 1.1239(8) -0.0173(3)
H58 H 0.0476 1.1089 -0.0458
C67 C 0.0910(4) 1.2415(7) -0.0060(3)
H59 H 0.0786 1.3063 -0.0276
C68 C 0.1256(3) 1.2595(6) 0.0367(3)
H60 H 0.1368 1.3386 0.0463
C69 C 0.1455(3) 1.1616(5) 0.0673(2)
H61 H 0.1694 1.1788 0.0973
C70 C 0.1326(2) 1.0420(5) 0.0570(2)
C71 C 0.2416(2) 0.9427(5) 0.0529(2)
H62 H 0.2228 0.9962 0.0290
C72 C 0.2915(3) 0.9067(7) 0.0481(3)
H63 H 0.3050 0.9346 0.0209
C73 C 0.3208(3) 0.8307(7) 0.0830(3)
H64 H 0.3544 0.8073 0.0801
C74 C 0.3004(2) 0.7899(6) 0.1218(3)
H65 H 0.3203 0.7387 0.1460
C75 C 0.2504(2) 0.8232(5) 0.1259(2)
H66 H 0.2370 0.7916 0.1526
C76 C 0.21854(19) 0.9029(4) 0.09154(19)
C77 C 0.1386(3) 0.7223(6) 0.0479(2)
H67 H 0.1688 0.7391 0.0356
C78 C 0.1110(3) 0.6156(6) 0.0319(3)
H68 H 0.1227 0.5638 0.0092
C79 C 0.0677(3) 0.5865(7) 0.0489(3)
H69 H 0.0487 0.5159 0.0379
C80 C 0.0524(3) 0.6639(7) 0.0829(3)
H70 H 0.0229 0.6447 0.0959
C81 C 0.0801(2) 0.7700(6) 0.0980(2)
H71 H 0.0685 0.8207 0.1211
C82 C 0.1239(2) 0.8043(5) 0.08066(19)
C83 C 0.1055(2) 1.0195(5) 0.1615(2)
H72 H 0.0765 1.0191 0.1346
C84 C 0.0985(2) 1.0587(6) 0.2077(2)
H73 H 0.0653 1.0837 0.2114
C85 C 0.1395(3) 1.0618(5) 0.2483(2)
H74 H 0.1345 1.0864 0.2799
C86 C 0.1877(2) 1.0282(5) 0.2417(2)
H75 H 0.2164 1.0315 0.2689
C87 C 0.1949(2) 0.9889(4) 0.1948(2)
H76 H 0.2287 0.9676 0.1914
C88 C 0.15394(19) 0.9800(4) 0.15267(18)
B2 B 0.1581(2) 0.9326(5) 0.0960(2)
loop_
_geom_bond_atom_site_label_1
_geom_bond_atom_site_label_2
_geom_bond_site_symmetry_1
_geom_bond_site_symmetry_2
Fe1 N1 1_555 1_555
N1 C1 1_555 1_555
N2 Fe1 1_555 1_555
N3 Fe1 1_555 1_555
N4 Fe1 1_555 1_555
N5 C19 1_555 1_555
N6 Fe1 1_555 1_555
N7 C19 1_555 1_555
C1 H1 1_555 1_555
C2 C1 1_555 1_555
H2 C2 1_555 1_555
C3 C2 1_555 1_555
H3 C3 1_555 1_555
C4 C3 1_555 1_555
H4 C4 1_555 1_555
C5 N1 1_555 1_555
C6 N4 1_555 1_555
H5 C6 1_555 1_555
H6 C6 1_555 1_555
C7 N2 1_555 1_555
H7 C7 1_555 1_555
C8 C7 1_555 1_555
H8 C8 1_555 1_555
C9 C8 1_555 1_555
H9 C9 1_555 1_555
C10 C9 1_555 1_555
H10 C10 1_555 1_555
C11 N2 1_555 1_555
C12 N4 1_555 1_555
H11 C12 1_555 1_555
H12 C12 1_555 1_555
C13 N3 1_555 1_555
H13 C13 1_555 1_555
C14 C13 1_555 1_555
H14 C14 1_555 1_555
C15 C14 1_555 1_555
H15 C15 1_555 1_555
C16 C15 1_555 1_555
H16 C16 1_555 1_555
C17 N3 1_555 1_555
C18 N4 1_555 1_555
H17 C18 1_555 1_555
H18 C18 1_555 1_555
C20 N6 1_555 1_555
Fe2 N8 1_555 1_555
N8 C21 1_555 1_555
N9 Fe2 1_555 1_555
N10 Fe2 1_555 1_555
N11 Fe2 1_555 1_555
N12 Fe2 1_555 1_555
N13 C40 1_555 1_555
N14 C39 1_555 1_555
C21 H19 1_555 1_555
C22 C21 1_555 1_555
H20 C22 1_555 1_555
C23 C22 1_555 1_555
H21 C23 1_555 1_555
C24 C23 1_555 1_555
H22 C24 1_555 1_555
C25 N8 1_555 1_555
C26 N11 1_555 1_555
H23 C26 1_555 1_555
H24 C26 1_555 1_555
C27 N9 1_555 1_555
H25 C27 1_555 1_555
C28 C27 1_555 1_555
H26 C28 1_555 1_555
C29 C28 1_555 1_555
H27 C29 1_555 1_555
C30 C29 1_555 1_555
H28 C30 1_555 1_555
C31 N9 1_555 1_555
C32 N11 1_555 1_555
H29 C32 1_555 1_555
H30 C32 1_555 1_555
C33 N10 1_555 1_555
H31 C33 1_555 1_555
C34 C33 1_555 1_555
H32 C34 1_555 1_555
C35 C34 1_555 1_555
H33 C35 1_555 1_555
C36 C35 1_555 1_555
H34 C36 1_555 1_555
C37 N10 1_555 1_555
C38 N11 1_555 1_555
H35 C38 1_555 1_555
H36 C38 1_555 1_555
C39 N12 1_555 1_555
C40 N14 1_555 1_555
C41 H37 1_555 1_555
C42 C41 1_555 1_555
H38 C42 1_555 1_555
C43 C42 1_555 1_555
H39 C43 1_555 1_555
C44 C43 1_555 1_555
H40 C44 1_555 1_555
C45 C44 1_555 1_555
H41 C45 1_555 1_555
C46 C41 1_555 1_555
C47 H42 1_555 1_555
C48 C47 1_555 1_555
H43 C48 1_555 1_555
C49 C48 1_555 1_555
H44 C49 1_555 1_555
C50 C49 1_555 1_555
H45 C50 1_555 1_555
C51 C50 1_555 1_555
H46 C51 1_555 1_555
C52 C47 1_555 1_555
C53 C54 1_555 1_555
C54 H47 1_555 1_555
C55 C54 1_555 1_555
H48 C55 1_555 1_555
C56 C55 1_555 1_555
H49 C56 1_555 1_555
C57 C56 1_555 1_555
H50 C57 1_555 1_555
C58 C53 1_555 1_555
H51 C58 1_555 1_555
C59 H52 1_555 1_555
C60 C59 1_555 1_555
C61 C60 1_555 1_555
H53 C61 1_555 1_555
C62 C61 1_555 1_555
H54 C62 1_555 1_555
C63 C62 1_555 1_555
H55 C63 1_555 1_555
C64 C59 1_555 1_555
H56 C64 1_555 1_555
B1 C46 1_555 1_555
C65 H57 1_555 1_555
C66 C65 1_555 1_555
H58 C66 1_555 1_555
C67 C66 1_555 1_555
H59 C67 1_555 1_555
C68 C67 1_555 1_555
H60 C68 1_555 1_555
C69 C68 1_555 1_555
H61 C69 1_555 1_555
C70 C65 1_555 1_555
C71 H62 1_555 1_555
C72 C71 1_555 1_555
H63 C72 1_555 1_555
C73 C72 1_555 1_555
H64 C73 1_555 1_555
C74 C73 1_555 1_555
H65 C74 1_555 1_555
C75 C74 1_555 1_555
H66 C75 1_555 1_555
C76 C71 1_555 1_555
C77 H67 1_555 1_555
C78 C77 1_555 1_555
H68 C78 1_555 1_555
C79 C78 1_555 1_555
H69 C79 1_555 1_555
C80 C79 1_555 1_555
H70 C80 1_555 1_555
C81 C80 1_555 1_555
H71 C81 1_555 1_555
C82 C77 1_555 1_555
C83 H72 1_555 1_555
C84 C83 1_555 1_555
H73 C84 1_555 1_555
C85 C84 1_555 1_555
H74 C85 1_555 1_555
C86 C85 1_555 1_555
H75 C86 1_555 1_555
C87 C86 1_555 1_555
H76 C87 1_555 1_555
C88 C83 1_555 1_555
B2 C70 1_555 1_555
Fe1A N5 1_555 1_555
N5A Fe1 1_555 1_555
Fe2A N13 1_555 1_555
N13A Fe2 1_555 1_555
N7 C20 1_555 1_555
C4 C5 1_555 1_555
C5 C6 1_555 1_555
C10 C11 1_555 1_555
C11 C12 1_555 1_555
C16 C17 1_555 1_555
C17 C18 1_555 1_555
C24 C25 1_555 1_555
C25 C26 1_555 1_555
C30 C31 1_555 1_555
C31 C32 1_555 1_555
C36 C37 1_555 1_555
C37 C38 1_555 1_555
C45 C46 1_555 1_555
C51 C52 1_555 1_555
C52 B1 1_555 1_555
C53 B1 1_555 1_555
C57 C58 1_555 1_555
C60 B1 1_555 1_555
C63 C64 1_555 1_555
C69 C70 1_555 1_555
C75 C76 1_555 1_555
C76 B2 1_555 1_555
C81 C82 1_555 1_555
C82 B2 1_555 1_555
C87 C88 1_555 1_555
C88 B2 1_555 1_555

#END
