
#######################################################################
#
#                 Cambridge Crystallographic Data Centre
#                                CCDC 
#
#######################################################################
#
# If this CIF has been generated from an entry in the Cambridge 
# Structural Database, then it will include bibliographic, chemical, 
# crystal, experimental, refinement or atomic coordinate data resulting 
# from the CCDC's data processing and validation procedures.
#
#######################################################################

data_GEWMAY
_symmetry_cell_setting           monoclinic
_symmetry_space_group_name_H-M   'P 21/n'
_symmetry_Int_Tables_number      14
_space_group_name_Hall           '-P 2yn'
loop_
_symmetry_equiv_pos_site_id
_symmetry_equiv_pos_as_xyz
1 x,y,z
2 1/2-x,1/2+y,1/2-z
3 -x,-y,-z
4 1/2+x,1/2-y,1/2+z
_cell_length_a                   15.6729(6)
_cell_length_b                   11.4801(4)
_cell_length_c                   26.1115(10)
_cell_angle_alpha                90
_cell_angle_beta                 105.828(4)
_cell_angle_gamma                90
_cell_volume                     4520.02
loop_
_atom_site_label
_atom_site_type_symbol
_atom_site_fract_x
_atom_site_fract_y
_atom_site_fract_z
Fe1 Fe 0.68762(5) 0.24005(7) 0.58563(3)
Fe2 Fe 0.82801(5) -0.26073(6) 0.39622(3)
N1 N 0.5570(3) 0.3127(4) 0.54294(18)
N2 N 0.6089(3) 0.1250(4) 0.62325(18)
N3 N 0.7926(3) 0.2173(4) 0.66036(18)
N4 N 0.6512(3) 0.3614(3) 0.64458(18)
N5 N 0.6883(3) 0.1142(4) 0.5301(2)
N6 N 0.6567(3) -0.0555(4) 0.47111(19)
N7 N 0.7548(3) -0.1572(3) 0.42682(18)
N8 N 0.7195(3) -0.3133(3) 0.34206(17)
N9 N 0.8980(3) -0.3624(4) 0.36205(18)
N10 N 0.9397(3) -0.1792(4) 0.43399(18)
N11 N 0.8330(3) -0.1460(3) 0.33864(18)
N12 N 0.8312(3) -0.3754(4) 0.45213(19)
N13 N 0.8659(3) -0.5262(4) 0.5213(2)
N14 N 0.7638(3) -0.6358(4) 0.55972(19)
C1 C 0.4991(3) 0.2614(5) 0.5028(2)
H1 H 0.5175 0.1972 0.4868
C2 C 0.4132(4) 0.2987(5) 0.4838(3)
H2 H 0.3743 0.2616 0.4551
C3 C 0.3860(4) 0.3918(6) 0.5079(3)
H3 H 0.3279 0.4185 0.4958
C4 C 0.4439(4) 0.4455(5) 0.5497(3)
H4 H 0.4263 0.5089 0.5665
C5 C 0.5301(3) 0.4030(5) 0.5666(2)
C6 C 0.6007(4) 0.4557(4) 0.6111(2)
H5 H 0.6402 0.5027 0.5968
H6 H 0.5739 0.5056 0.6324
C7 C 0.5869(4) 0.0137(4) 0.6105(2)
H7 H 0.6156 -0.0248 0.5886
C8 C 0.5252(4) -0.0463(5) 0.6278(2)
H8 H 0.5116 -0.1232 0.6176
C9 C 0.4834(4) 0.0101(5) 0.6607(3)
H9 H 0.4400 -0.0278 0.6727
C10 C 0.5066(4) 0.1230(5) 0.6756(3)
H10 H 0.4800 0.1620 0.6985
C11 C 0.5697(3) 0.1780(4) 0.6564(2)
C12 C 0.5989(3) 0.2994(4) 0.6754(2)
H11 H 0.5465 0.3453 0.6745
H12 H 0.6340 0.2949 0.7122
C13 C 0.8426(3) 0.1213(4) 0.6748(2)
H13 H 0.8417 0.0647 0.6491
C14 C 0.8945(4) 0.1034(5) 0.7252(3)
H14 H 0.9277 0.0354 0.7334
C15 C 0.8979(4) 0.1858(5) 0.7643(3)
H15 H 0.9324 0.1747 0.7990
C16 C 0.8467(3) 0.2873(5) 0.7491(2)
H16 H 0.8477 0.3457 0.7740
C17 C 0.7954(3) 0.2998(4) 0.6977(2)
C18 C 0.7367(3) 0.4025(4) 0.6787(2)
H17 H 0.7275 0.4448 0.7089
H18 H 0.7644 0.4547 0.6588
C19 C 0.6776(3) 0.0346(5) 0.5017(2)
C20 C 0.7126(3) -0.1055(4) 0.4487(2)
C21 C 0.6757(3) -0.4129(4) 0.3413(2)
H19 H 0.6917 -0.4616 0.3708
C22 C 0.6070(4) -0.4467(5) 0.2979(2)
H20 H 0.5770 -0.5162 0.2988
C23 C 0.5839(4) -0.3768(5) 0.2541(2)
H21 H 0.5387 -0.3988 0.2245
C24 C 0.6280(3) -0.2739(4) 0.2540(2)
H22 H 0.6136 -0.2259 0.2242
C25 C 0.6939(3) -0.2420(4) 0.2987(2)
C26 C 0.7404(3) -0.1284(4) 0.3055(2)
H23 H 0.7101 -0.0736 0.3228
H24 H 0.7405 -0.0970 0.2710
C27 C 0.9266(3) -0.4711(4) 0.3765(2)
H25 H 0.9113 -0.5052 0.4050
C28 C 0.9775(4) -0.5343(5) 0.3509(2)
H26 H 0.9976 -0.6084 0.3626
C29 C 0.9978(4) -0.4854(5) 0.3080(3)
H27 H 1.0322 -0.5261 0.2901
C30 C 0.9669(4) -0.3755(5) 0.2913(2)
H28 H 0.9780 -0.3422 0.2612
C31 C 0.9189(3) -0.3156(4) 0.3204(2)
C32 C 0.8898(3) -0.1930(4) 0.3059(2)
H29 H 0.9417 -0.1439 0.3107
H30 H 0.8569 -0.1902 0.2686
C33 C 1.0065(4) -0.2179(5) 0.4730(2)
H31 H 1.0008 -0.2898 0.4882
C34 C 1.0843(4) -0.1563(6) 0.4922(3)
H32 H 1.1298 -0.1864 0.5198
C35 C 1.0934(4) -0.0513(6) 0.4704(3)
H33 H 1.1453 -0.0084 0.4830
C36 C 1.0253(4) -0.0088(5) 0.4296(3)
H34 H 1.0298 0.0632 0.4143
C37 C 0.9501(4) -0.0759(5) 0.4121(2)
C38 C 0.8718(3) -0.0390(4) 0.3676(2)
H35 H 0.8284 0.0003 0.3817
H36 H 0.8906 0.0139 0.3438
C39 C 0.8426(4) -0.4457(5) 0.4845(3)
C40 C 0.8087(4) -0.5824(5) 0.5395(2)
Fe1_2 Fe 0.68762(5) -0.75995(7) 0.58563(3)
N14_2 N 0.7638(3) 0.3642(4) 0.55972(19)
As1 As 0.72693(4) 0.24858(5) 0.36068(2)
F1 F 0.7421(2) 0.3574(2) 0.31877(13)
F2 F 0.83868(19) 0.2248(3) 0.37925(14)
F3 F 0.7142(2) 0.1500(2) 0.30974(14)
F4 F 0.6152(2) 0.2734(3) 0.34088(15)
F5 F 0.7375(2) 0.3475(3) 0.41125(14)
F6 F 0.7121(2) 0.1386(3) 0.40179(15)
As2 As 0.80689(4) -0.24086(5) 0.64890(2)
F7 F 0.8372(2) -0.3370(3) 0.70100(15)
F8 F 0.9153(2) -0.2093(3) 0.65585(15)
F9 F 0.8103(2) -0.3492(3) 0.60518(15)
F10 F 0.6982(2) -0.2718(3) 0.64254(14)
F11 F 0.8027(2) -0.1326(2) 0.69322(14)
F12 F 0.7764(2) -0.1431(3) 0.59803(14)
loop_
_geom_bond_atom_site_label_1
_geom_bond_atom_site_label_2
_geom_bond_site_symmetry_1
_geom_bond_site_symmetry_2
Fe1 N1 1_555 1_555
Fe2 N7 1_555 1_555
N1 C1 1_555 1_555
N2 Fe1 1_555 1_555
N3 Fe1 1_555 1_555
N4 Fe1 1_555 1_555
N5 Fe1 1_555 1_555
N6 C19 1_555 1_555
N7 C20 1_555 1_555
N8 Fe2 1_555 1_555
N9 Fe2 1_555 1_555
N10 Fe2 1_555 1_555
N11 Fe2 1_555 1_555
N12 Fe2 1_555 1_555
N13 C39 1_555 1_555
N14 C40 1_555 1_555
C1 H1 1_555 1_555
C2 C1 1_555 1_555
H2 C2 1_555 1_555
C3 C2 1_555 1_555
H3 C3 1_555 1_555
C4 C3 1_555 1_555
H4 C4 1_555 1_555
C5 N1 1_555 1_555
C6 N4 1_555 1_555
H5 C6 1_555 1_555
H6 C6 1_555 1_555
C7 N2 1_555 1_555
H7 C7 1_555 1_555
C8 C7 1_555 1_555
H8 C8 1_555 1_555
C9 C8 1_555 1_555
H9 C9 1_555 1_555
C10 C9 1_555 1_555
H10 C10 1_555 1_555
C11 N2 1_555 1_555
C12 N4 1_555 1_555
H11 C12 1_555 1_555
H12 C12 1_555 1_555
C13 N3 1_555 1_555
H13 C13 1_555 1_555
C14 C13 1_555 1_555
H14 C14 1_555 1_555
C15 C14 1_555 1_555
H15 C15 1_555 1_555
C16 C15 1_555 1_555
H16 C16 1_555 1_555
C17 N3 1_555 1_555
C18 N4 1_555 1_555
H17 C18 1_555 1_555
H18 C18 1_555 1_555
C19 N5 1_555 1_555
C20 N6 1_555 1_555
C21 N8 1_555 1_555
H19 C21 1_555 1_555
C22 C21 1_555 1_555
H20 C22 1_555 1_555
C23 C22 1_555 1_555
H21 C23 1_555 1_555
C24 C23 1_555 1_555
H22 C24 1_555 1_555
C25 N8 1_555 1_555
C26 N11 1_555 1_555
H23 C26 1_555 1_555
H24 C26 1_555 1_555
C27 N9 1_555 1_555
H25 C27 1_555 1_555
C28 C27 1_555 1_555
H26 C28 1_555 1_555
C29 C28 1_555 1_555
H27 C29 1_555 1_555
C30 C29 1_555 1_555
H28 C30 1_555 1_555
C31 N9 1_555 1_555
C32 N11 1_555 1_555
H29 C32 1_555 1_555
H30 C32 1_555 1_555
C33 N10 1_555 1_555
H31 C33 1_555 1_555
C34 C33 1_555 1_555
H32 C34 1_555 1_555
C35 C34 1_555 1_555
H33 C35 1_555 1_555
C36 C35 1_555 1_555
H34 C36 1_555 1_555
C37 N10 1_555 1_555
C38 N11 1_555 1_555
H35 C38 1_555 1_555
H36 C38 1_555 1_555
C39 N12 1_555 1_555
C40 N13 1_555 1_555
As1 F1 1_555 1_555
F2 As1 1_555 1_555
F3 As1 1_555 1_555
F4 As1 1_555 1_555
F5 As1 1_555 1_555
F6 As1 1_555 1_555
As2 F7 1_555 1_555
F8 As2 1_555 1_555
F9 As2 1_555 1_555
F10 As2 1_555 1_555
F11 As2 1_555 1_555
F12 As2 1_555 1_555
Fe1_2 N14 1_555 1_555
N14_2 Fe1 1_555 1_555
C4 C5 1_555 1_555
C5 C6 1_555 1_555
C10 C11 1_555 1_555
C11 C12 1_555 1_555
C16 C17 1_555 1_555
C17 C18 1_555 1_555
C24 C25 1_555 1_555
C25 C26 1_555 1_555
C30 C31 1_555 1_555
C31 C32 1_555 1_555
C36 C37 1_555 1_555
C37 C38 1_555 1_555

#END
