
#######################################################################
#
#                 Cambridge Crystallographic Data Centre
#                                CCDC 
#
#######################################################################
#
# If this CIF has been generated from an entry in the Cambridge 
# Structural Database, then it will include bibliographic, chemical, 
# crystal, experimental, refinement or atomic coordinate data resulting 
# from the CCDC's data processing and validation procedures.
#
#######################################################################

data_GEWMAY02
_symmetry_cell_setting           monoclinic
_symmetry_space_group_name_H-M   'P 21/c'
_symmetry_Int_Tables_number      14
_space_group_name_Hall           '-P 2ybc'
loop_
_symmetry_equiv_pos_site_id
_symmetry_equiv_pos_as_xyz
1 x,y,z
2 -x,1/2+y,1/2-z
3 -x,-y,-z
4 x,1/2-y,1/2+z
_cell_length_a                   12.9495(12)
_cell_length_b                   11.5443(8)
_cell_length_c                   16.6774(15)
_cell_angle_alpha                90
_cell_angle_beta                 107.827(9)
_cell_angle_gamma                90
_cell_volume                     2373.44
loop_
_atom_site_label
_atom_site_type_symbol
_atom_site_fract_x
_atom_site_fract_y
_atom_site_fract_z
Fe1 Fe 0.31057(7) 0.24841(7) 0.32094(5)
N1 N 0.1581(5) 0.2329(5) 0.2193(3)
N2 N 0.2398(4) 0.1393(5) 0.3991(3)
N3 N 0.4080(5) 0.3178(5) 0.4425(3)
N4 N 0.1964(5) 0.3723(5) 0.3547(3)
N5 N 0.4150(5) 0.1192(5) 0.3124(4)
N6 N 0.5461(5) -0.0366(6) 0.3434(4)
N7 N 0.6359(5) -0.1305(5) 0.2517(4)
C1 C 0.1277(6) 0.1418(6) 0.1679(4)
H1 H 0.1765 0.0814 0.1720
C2 C 0.0272(7) 0.1342(8) 0.1093(5)
H2 H 0.0082 0.0704 0.0737
C3 C -0.0451(7) 0.2233(9) 0.1044(5)
H3 H -0.1143 0.2197 0.0659
C4 C -0.0151(6) 0.3163(8) 0.1557(5)
H4 H -0.0631 0.3774 0.1524
C5 C 0.0876(6) 0.3192(6) 0.2129(4)
C6 C 0.1285(6) 0.4184(6) 0.2745(4)
H5 H 0.1702 0.4719 0.2519
H6 H 0.0676 0.4601 0.2827
C7 C 0.2713(6) 0.0307(6) 0.4252(4)
H7 H 0.3162 -0.0078 0.3999
C8 C 0.2419(7) -0.0254(7) 0.4854(5)
H8 H 0.2681 -0.0992 0.5028
C9 C 0.1727(8) 0.0291(8) 0.5199(5)
H9 H 0.1494 -0.0077 0.5609
C10 C 0.1369(7) 0.1404(7) 0.4932(5)
H10 H 0.0896 0.1789 0.5163
C11 C 0.1724(5) 0.1926(6) 0.4327(4)
C12 C 0.1301(6) 0.3109(6) 0.3996(5)
H11 H 0.0570 0.3024 0.3616
H12 H 0.1262 0.3584 0.4465
C13 C 0.4929(7) 0.2650(7) 0.4954(5)
H13 H 0.5248 0.2043 0.4750
C14 C 0.5359(8) 0.2950(9) 0.5783(6)
H14 H 0.5963 0.2572 0.6134
C15 C 0.4872(9) 0.3818(9) 0.6071(5)
H15 H 0.5138 0.4031 0.6635
C16 C 0.4001(8) 0.4388(8) 0.5558(5)
H16 H 0.3678 0.4991 0.5763
C17 C 0.3604(7) 0.4047(6) 0.4718(4)
C18 C 0.2666(6) 0.4606(6) 0.4078(5)
H17 H 0.2251 0.5059 0.4361
H18 H 0.2932 0.5125 0.3729
C19 C 0.4771(6) 0.0465(6) 0.3222(4)
C20 C 0.5912(6) -0.0839(6) 0.2922(4)
Fe1A Fe 0.68943(7) -0.25159(7) 0.17906(5)
N7A N 0.3641(5) 0.3695(5) 0.2483(4)
As1 As 0.77795(7) 0.28475(8) 0.32846(6)
F1 F 0.8552(8) 0.3534(9) 0.2863(7)
F2 F 0.8330(11) 0.3842(9) 0.4054(6)
F3 F 0.7113(11) 0.1865(8) 0.2762(9)
F4 F 0.6801(5) 0.3831(6) 0.2891(5)
F5 F 0.8778(6) 0.1928(6) 0.3765(6)
F6 F 0.7227(11) 0.2543(10) 0.4035(8)
loop_
_geom_bond_atom_site_label_1
_geom_bond_atom_site_label_2
_geom_bond_site_symmetry_1
_geom_bond_site_symmetry_2
Fe1 N1 1_555 1_555
N1 C1 1_555 1_555
N2 Fe1 1_555 1_555
N3 Fe1 1_555 1_555
N4 Fe1 1_555 1_555
N5 Fe1 1_555 1_555
N6 C19 1_555 1_555
N7 C20 1_555 1_555
C1 H1 1_555 1_555
C2 C1 1_555 1_555
H2 C2 1_555 1_555
C3 C2 1_555 1_555
H3 C3 1_555 1_555
C4 C3 1_555 1_555
H4 C4 1_555 1_555
C5 N1 1_555 1_555
C6 N4 1_555 1_555
H5 C6 1_555 1_555
H6 C6 1_555 1_555
C7 N2 1_555 1_555
H7 C7 1_555 1_555
C8 C7 1_555 1_555
H8 C8 1_555 1_555
C9 C8 1_555 1_555
H9 C9 1_555 1_555
C10 C9 1_555 1_555
H10 C10 1_555 1_555
C11 N2 1_555 1_555
C12 N4 1_555 1_555
H11 C12 1_555 1_555
H12 C12 1_555 1_555
C13 N3 1_555 1_555
H13 C13 1_555 1_555
C14 C13 1_555 1_555
H14 C14 1_555 1_555
C15 C14 1_555 1_555
H15 C15 1_555 1_555
C16 C15 1_555 1_555
H16 C16 1_555 1_555
C17 N3 1_555 1_555
C18 N4 1_555 1_555
H17 C18 1_555 1_555
H18 C18 1_555 1_555
C19 N5 1_555 1_555
C20 N6 1_555 1_555
As1 F1 1_555 1_555
F2 As1 1_555 1_555
F3 As1 1_555 1_555
F4 As1 1_555 1_555
F5 As1 1_555 1_555
F6 As1 1_555 1_555
Fe1A N7 1_555 1_555
N7A Fe1 1_555 1_555
C4 C5 1_555 1_555
C5 C6 1_555 1_555
C10 C11 1_555 1_555
C11 C12 1_555 1_555
C16 C17 1_555 1_555
C17 C18 1_555 1_555

#END
