
#######################################################################
#
#                 Cambridge Crystallographic Data Centre
#                                CCDC 
#
#######################################################################
#
# If this CIF has been generated from an entry in the Cambridge 
# Structural Database, then it will include bibliographic, chemical, 
# crystal, experimental, refinement or atomic coordinate data resulting 
# from the CCDC's data processing and validation procedures.
#
#######################################################################

data_GEWNIH
_symmetry_cell_setting           monoclinic
_symmetry_space_group_name_H-M   'P 21/c'
_symmetry_Int_Tables_number      14
_space_group_name_Hall           '-P 2ybc'
loop_
_symmetry_equiv_pos_site_id
_symmetry_equiv_pos_as_xyz
1 x,y,z
2 -x,1/2+y,1/2-z
3 -x,-y,-z
4 x,1/2-y,1/2+z
_cell_length_a                   11.6605(9)
_cell_length_b                   12.1480(10)
_cell_length_c                   15.5343(12)
_cell_angle_alpha                90
_cell_angle_beta                 106.593(8)
_cell_angle_gamma                90
_cell_volume                     2108.83
loop_
_atom_site_label
_atom_site_type_symbol
_atom_site_fract_x
_atom_site_fract_y
_atom_site_fract_z
Fe1 Fe 0.18029(11) 0.72987(12) 0.14749(8)
N1 N 0.3398(5) 0.7164(6) 0.2495(4)
N2 N 0.2553(5) 0.6243(6) 0.0720(4)
N3 N 0.0657(6) 0.7814(6) 0.0256(5)
N4 N 0.2877(5) 0.8451(6) 0.1032(4)
N5 N 0.0799(8) 0.6071(8) 0.1736(5)
N6 N -0.1193(7) 0.3443(7) 0.2810(5)
N7 N -0.0606(7) 0.4551(9) 0.1687(5)
C1 C 0.3702(7) 0.6351(8) 0.3094(6)
H1 H 0.3145 0.5810 0.3113
C2 C 0.4849(7) 0.6306(8) 0.3691(5)
H2 H 0.5046 0.5738 0.4110
C3 C 0.5677(8) 0.7073(8) 0.3671(6)
H3 H 0.6445 0.7029 0.4064
C4 C 0.5374(7) 0.7927(8) 0.3059(5)
H4 H 0.5931 0.8464 0.3030
C5 C 0.4202(7) 0.7963(8) 0.2483(5)
C6 C 0.3756(7) 0.8899(7) 0.1850(5)
H5 H 0.4418 0.9244 0.1690
H6 H 0.3377 0.9448 0.2131
C7 C 0.2365(7) 0.5156(8) 0.0600(5)
H7 H 0.1930 0.4803 0.0936
C8 C 0.2773(7) 0.4538(8) 0.0017(6)
H8 H 0.2609 0.3789 -0.0049
C9 C 0.3436(7) 0.5051(8) -0.0473(6)
H9 H 0.3708 0.4658 -0.0890
C10 C 0.3681(7) 0.6133(8) -0.0337(6)
H10 H 0.4154 0.6483 -0.0646
C11 C 0.3237(6) 0.6727(7) 0.0255(5)
C12 C 0.3522(7) 0.7928(8) 0.0433(6)
H11 H 0.4377 0.8008 0.0705
H12 H 0.3317 0.8318 -0.0136
C13 C -0.0278(7) 0.7241(8) -0.0243(6)
H13 H -0.0515 0.6608 -0.0004
C14 C -0.0905(7) 0.7563(8) -0.1105(6)
H14 H -0.1549 0.7147 -0.1440
C15 C -0.0570(7) 0.8494(8) -0.1456(6)
H15 H -0.0996 0.8733 -0.2027
C16 C 0.0421(7) 0.9088(8) -0.0951(6)
H16 H 0.0691 0.9709 -0.1185
C17 C 0.0981(7) 0.8724(8) -0.0099(6)
C18 C 0.2043(7) 0.9316(7) 0.0534(6)
H17 H 0.2439 0.9777 0.0196
H18 H 0.1777 0.9778 0.0949
C19 C 0.0163(9) 0.5354(10) 0.1774(6)
C20 C -0.0855(8) 0.3996(9) 0.2329(7)
Fe1A Fe -0.18029(11) 0.22987(12) 0.35251(8)
N6A N 0.1193(7) 0.8443(7) 0.2190(5)
Cl1 Cl 0.27709(17) 0.3390(2) 0.37227(14)
O1 O 0.3265(8) 0.2350(7) 0.3544(6)
O2 O 0.3731(6) 0.4096(7) 0.4209(5)
O3 O 0.2146(6) 0.3926(6) 0.2909(4)
O4 O 0.1984(5) 0.3208(6) 0.4277(4)
loop_
_geom_bond_atom_site_label_1
_geom_bond_atom_site_label_2
_geom_bond_site_symmetry_1
_geom_bond_site_symmetry_2
Fe1 N1 1_555 1_555
N1 C1 1_555 1_555
N2 Fe1 1_555 1_555
N3 Fe1 1_555 1_555
N4 Fe1 1_555 1_555
N5 Fe1 1_555 1_555
N6 C20 1_555 1_555
N7 C19 1_555 1_555
C1 H1 1_555 1_555
C2 C1 1_555 1_555
H2 C2 1_555 1_555
C3 C2 1_555 1_555
H3 C3 1_555 1_555
C4 C3 1_555 1_555
H4 C4 1_555 1_555
C5 N1 1_555 1_555
C6 N4 1_555 1_555
H5 C6 1_555 1_555
H6 C6 1_555 1_555
C7 N2 1_555 1_555
H7 C7 1_555 1_555
C8 C7 1_555 1_555
H8 C8 1_555 1_555
C9 C8 1_555 1_555
H9 C9 1_555 1_555
C10 C9 1_555 1_555
H10 C10 1_555 1_555
C11 N2 1_555 1_555
C12 N4 1_555 1_555
H11 C12 1_555 1_555
H12 C12 1_555 1_555
C13 N3 1_555 1_555
H13 C13 1_555 1_555
C14 C13 1_555 1_555
H14 C14 1_555 1_555
C15 C14 1_555 1_555
H15 C15 1_555 1_555
C16 C15 1_555 1_555
H16 C16 1_555 1_555
C17 N3 1_555 1_555
C18 N4 1_555 1_555
H17 C18 1_555 1_555
H18 C18 1_555 1_555
C19 N5 1_555 1_555
C20 N7 1_555 1_555
Cl1 O1 1_555 1_555
O2 Cl1 1_555 1_555
O3 Cl1 1_555 1_555
O4 Cl1 1_555 1_555
Fe1A N6 1_555 1_555
N6A Fe1 1_555 1_555
C4 C5 1_555 1_555
C5 C6 1_555 1_555
C10 C11 1_555 1_555
C11 C12 1_555 1_555
C16 C17 1_555 1_555
C17 C18 1_555 1_555

#END
