
#######################################################################
#
#                 Cambridge Crystallographic Data Centre
#                                CCDC 
#
#######################################################################
#
# If this CIF has been generated from an entry in the Cambridge 
# Structural Database, then it will include bibliographic, chemical, 
# crystal, experimental, refinement or atomic coordinate data resulting 
# from the CCDC's data processing and validation procedures.
#
#######################################################################

data_GEWNAZ
_symmetry_cell_setting           monoclinic
_symmetry_space_group_name_H-M   'P 21/c'
_symmetry_Int_Tables_number      14
_space_group_name_Hall           '-P 2ybc'
loop_
_symmetry_equiv_pos_site_id
_symmetry_equiv_pos_as_xyz
1 x,y,z
2 -x,1/2+y,1/2-z
3 -x,-y,-z
4 x,1/2-y,1/2+z
_cell_length_a                   12.2910(7)
_cell_length_b                   11.8209(6)
_cell_length_c                   16.2532(9)
_cell_angle_alpha                90
_cell_angle_beta                 108.233(6)
_cell_angle_gamma                90
_cell_volume                     2242.88
loop_
_atom_site_label
_atom_site_type_symbol
_atom_site_fract_x
_atom_site_fract_y
_atom_site_fract_z
Fe1 Fe 0.17831(4) 0.74144(4) 0.15686(3)
N1 N 0.32834(18) 0.72778(19) 0.25977(14)
N2 N 0.25263(17) 0.63679(19) 0.08552(13)
N3 N 0.07029(18) 0.79236(19) 0.03677(14)
N4 N 0.28526(17) 0.86166(18) 0.12179(13)
N5 N 0.0814(2) 0.6154(2) 0.17704(16)
N6 N -0.1177(2) 0.3564(2) 0.27586(18)
N7 N -0.0585(2) 0.4638(3) 0.16812(17)
C1 C 0.3606(2) 0.6395(2) 0.31337(18)
H1 H 0.3083 0.5814 0.3100
C2 C 0.4683(2) 0.6307(3) 0.37349(18)
H2 H 0.4879 0.5683 0.4099
C3 C 0.5461(3) 0.7163(3) 0.37836(17)
H3 H 0.6194 0.7119 0.4178
C4 C 0.5142(2) 0.8093(3) 0.32387(16)
H4 H 0.5655 0.8679 0.3261
C5 C 0.4043(2) 0.8126(2) 0.26629(17)
C6 C 0.3589(2) 0.9090(2) 0.20477(16)
H5 H 0.3149 0.9601 0.2287
H6 H 0.4218 0.9511 0.1955
C7 C 0.2272(2) 0.5269(2) 0.06689(17)
H7 H 0.1800 0.4905 0.0934
C8 C 0.2679(2) 0.4657(2) 0.01044(17)
H8 H 0.2483 0.3900 -0.0008
C9 C 0.3382(2) 0.5192(2) -0.02904(18)
H9 H 0.3665 0.4805 -0.0679
C10 C 0.3654(2) 0.6308(2) -0.00961(17)
H10 H 0.4128 0.6685 -0.0353
C11 C 0.3227(2) 0.6870(2) 0.04777(16)
C12 C 0.3559(2) 0.8080(2) 0.07335(17)
H11 H 0.4357 0.8101 0.1089
H12 H 0.3487 0.8519 0.0215
C13 C -0.0174(2) 0.7325(2) -0.01489(17)
H13 H -0.0442 0.6705 0.0082
C14 C -0.0691(2) 0.7591(2) -0.10022(17)
H14 H -0.1303 0.7163 -0.1339
C15 C -0.0293(2) 0.8499(2) -0.13557(19)
H15 H -0.0620 0.8685 -0.1937
C16 C 0.0605(2) 0.9129(2) -0.08251(17)
H16 H 0.0885 0.9749 -0.1047
C17 C 0.1079(2) 0.8830(2) 0.00313(17)
C18 C 0.2047(2) 0.9458(2) 0.06659(17)
H17 H 0.2443 0.9922 0.0358
H18 H 0.1750 0.9949 0.1024
C19 C 0.0178(3) 0.5436(3) 0.17863(19)
C20 C -0.0845(3) 0.4095(3) 0.2292(2)
Fe1A Fe -0.17831(4) 0.24144(4) 0.34314(3)
N6A N 0.1177(2) 0.8564(2) 0.22414(18)
P1 P 0.71762(6) 0.81847(7) 0.13604(5)
F1 F 0.76859(18) 0.71563(17) 0.19553(14)
F2 F 0.81582(13) 0.89859(16) 0.19391(13)
F3 F 0.63929(14) 0.85373(16) 0.19284(11)
F4 F 0.61773(12) 0.73915(14) 0.07803(10)
F5 F 0.79251(15) 0.78985(18) 0.07464(15)
F6 F 0.66487(16) 0.92280(15) 0.07293(11)
loop_
_geom_bond_atom_site_label_1
_geom_bond_atom_site_label_2
_geom_bond_site_symmetry_1
_geom_bond_site_symmetry_2
Fe1 N1 1_555 1_555
N1 C1 1_555 1_555
N2 Fe1 1_555 1_555
N3 Fe1 1_555 1_555
N4 Fe1 1_555 1_555
N5 Fe1 1_555 1_555
N6 C20 1_555 1_555
N7 C19 1_555 1_555
C1 H1 1_555 1_555
C2 C1 1_555 1_555
H2 C2 1_555 1_555
C3 C2 1_555 1_555
H3 C3 1_555 1_555
C4 C3 1_555 1_555
H4 C4 1_555 1_555
C5 N1 1_555 1_555
C6 N4 1_555 1_555
H5 C6 1_555 1_555
H6 C6 1_555 1_555
C7 N2 1_555 1_555
H7 C7 1_555 1_555
C8 C7 1_555 1_555
H8 C8 1_555 1_555
C9 C8 1_555 1_555
H9 C9 1_555 1_555
C10 C9 1_555 1_555
H10 C10 1_555 1_555
C11 N2 1_555 1_555
C12 N4 1_555 1_555
H11 C12 1_555 1_555
H12 C12 1_555 1_555
C13 N3 1_555 1_555
H13 C13 1_555 1_555
C14 C13 1_555 1_555
H14 C14 1_555 1_555
C15 C14 1_555 1_555
H15 C15 1_555 1_555
C16 C15 1_555 1_555
H16 C16 1_555 1_555
C17 N3 1_555 1_555
C18 N4 1_555 1_555
H17 C18 1_555 1_555
H18 C18 1_555 1_555
C19 N5 1_555 1_555
C20 N7 1_555 1_555
P1 F1 1_555 1_555
F2 P1 1_555 1_555
F3 P1 1_555 1_555
F4 P1 1_555 1_555
F5 P1 1_555 1_555
F6 P1 1_555 1_555
Fe1A N6 1_555 1_555
N6A Fe1 1_555 1_555
C4 C5 1_555 1_555
C5 C6 1_555 1_555
C10 C11 1_555 1_555
C11 C12 1_555 1_555
C16 C17 1_555 1_555
C17 C18 1_555 1_555

#END
