
#######################################################################
#
#                 Cambridge Crystallographic Data Centre
#                                CCDC 
#
#######################################################################
#
# If this CIF has been generated from an entry in the Cambridge 
# Structural Database, then it will include bibliographic, chemical, 
# crystal, experimental, refinement or atomic coordinate data resulting 
# from the CCDC's data processing and validation procedures.
#
#######################################################################

data_GEWNAZ01
_symmetry_cell_setting           monoclinic
_symmetry_space_group_name_H-M   'P 21/c'
_symmetry_Int_Tables_number      14
_space_group_name_Hall           '-P 2ybc'
loop_
_symmetry_equiv_pos_site_id
_symmetry_equiv_pos_as_xyz
1 x,y,z
2 -x,1/2+y,1/2-z
3 -x,-y,-z
4 x,1/2-y,1/2+z
_cell_length_a                   12.5418(9)
_cell_length_b                   11.9957(7)
_cell_length_c                   16.4189(13)
_cell_angle_alpha                90
_cell_angle_beta                 108.513(9)
_cell_angle_gamma                90
_cell_volume                     2342.36
loop_
_atom_site_label
_atom_site_type_symbol
_atom_site_fract_x
_atom_site_fract_y
_atom_site_fract_z
Fe1 Fe 0.67217(5) 0.23574(5) 0.15647(4)
N1 N 0.8327(3) 0.2295(3) 0.2589(2)
N2 N 0.7497(3) 0.1318(3) 0.0801(2)
N3 N 0.5636(3) 0.2957(3) 0.0327(2)
N4 N 0.7829(3) 0.3582(3) 0.1163(2)
N5 N 0.4238(3) 0.6045(3) 0.3250(3)
N6 N 0.6150(3) 0.3539(3) 0.2288(3)
N7 N 0.5516(4) 0.4503(4) 0.3352(3)
C1 C 0.8684(4) 0.1453(4) 0.3147(3)
H1 H 0.8192 0.0872 0.3143
C2 C 0.9743(5) 0.1420(5) 0.3719(3)
H2 H 0.9968 0.0817 0.4089
C3 C 1.0471(4) 0.2272(5) 0.3747(3)
H3 H 1.1191 0.2265 0.4142
C4 C 1.0114(4) 0.3152(5) 0.3175(3)
H4 H 1.0597 0.3740 0.3173
C5 C 0.9027(4) 0.3138(4) 0.2605(3)
C6 C 0.8557(4) 0.4060(4) 0.1974(3)
H5 H 0.8127 0.4571 0.2206
H6 H 0.9166 0.4474 0.1870
C7 C 0.7251(4) 0.0238(4) 0.0605(3)
H7 H 0.6780 -0.0129 0.0854
C8 C 0.7671(4) -0.0345(4) 0.0050(3)
H8 H 0.7486 -0.1091 -0.0073
C9 C 0.8357(4) 0.0191(5) -0.0313(4)
H9 H 0.8650 -0.0182 -0.0691
C10 C 0.8615(4) 0.1285(4) -0.0118(3)
H10 H 0.9086 0.1661 -0.0363
C11 C 0.8179(4) 0.1831(3) 0.0440(3)
C12 C 0.8508(4) 0.3016(4) 0.0698(3)
H11 H 0.9288 0.3026 0.1058
H12 H 0.8455 0.3442 0.0185
C13 C 0.4743(4) 0.2425(4) -0.0184(3)
H13 H 0.4450 0.1835 0.0045
C14 C 0.4234(4) 0.2696(4) -0.1025(4)
H14 H 0.3600 0.2314 -0.1358
C15 C 0.4678(5) 0.3537(5) -0.1361(4)
H15 H 0.4363 0.3728 -0.1937
C16 C 0.5594(5) 0.4107(4) -0.0849(4)
H16 H 0.5895 0.4695 -0.1074
C17 C 0.6065(4) 0.3809(4) -0.0007(3)
C18 C 0.7041(4) 0.4390(4) 0.0622(3)
H17 H 0.7427 0.4841 0.0312
H18 H 0.6768 0.4882 0.0981
C19 C 0.4823(4) 0.5323(4) 0.3241(3)
C20 C 0.5806(4) 0.4022(4) 0.2746(3)
Fe1A Fe 0.32783(5) 0.73574(5) 0.34353(4)
N5A N 0.5762(3) 0.1045(3) 0.1750(3)
P1 P 1.21425(12) 0.32037(12) 0.13682(10)
F1 F 1.2758(5) 0.2231(4) 0.1836(4)
F2 F 1.2732(4) 0.3020(4) 0.0664(3)
F3 F 1.3071(3) 0.4025(3) 0.1875(3)
F4 F 1.1190(3) 0.2400(3) 0.0812(2)
F5 F 1.1441(4) 0.3537(4) 0.1913(4)
F6 F 1.1549(5) 0.4213(4) 0.0783(3)
loop_
_geom_bond_atom_site_label_1
_geom_bond_atom_site_label_2
_geom_bond_site_symmetry_1
_geom_bond_site_symmetry_2
Fe1 N1 1_555 1_555
N1 C1 1_555 1_555
N2 Fe1 1_555 1_555
N3 Fe1 1_555 1_555
N4 Fe1 1_555 1_555
N5 C19 1_555 1_555
N6 Fe1 1_555 1_555
N7 C19 1_555 1_555
C1 H1 1_555 1_555
C2 C1 1_555 1_555
H2 C2 1_555 1_555
C3 C2 1_555 1_555
H3 C3 1_555 1_555
C4 C3 1_555 1_555
H4 C4 1_555 1_555
C5 N1 1_555 1_555
C6 N4 1_555 1_555
H5 C6 1_555 1_555
H6 C6 1_555 1_555
C7 N2 1_555 1_555
H7 C7 1_555 1_555
C8 C7 1_555 1_555
H8 C8 1_555 1_555
C9 C8 1_555 1_555
H9 C9 1_555 1_555
C10 C9 1_555 1_555
H10 C10 1_555 1_555
C11 N2 1_555 1_555
C12 N4 1_555 1_555
H11 C12 1_555 1_555
H12 C12 1_555 1_555
C13 N3 1_555 1_555
H13 C13 1_555 1_555
C14 C13 1_555 1_555
H14 C14 1_555 1_555
C15 C14 1_555 1_555
H15 C15 1_555 1_555
C16 C15 1_555 1_555
H16 C16 1_555 1_555
C17 N3 1_555 1_555
C18 N4 1_555 1_555
H17 C18 1_555 1_555
H18 C18 1_555 1_555
C20 N6 1_555 1_555
P1 F1 1_555 1_555
F2 P1 1_555 1_555
F3 P1 1_555 1_555
F4 P1 1_555 1_555
F5 P1 1_555 1_555
F6 P1 1_555 1_555
Fe1A N5 1_555 1_555
N5A Fe1 1_555 1_555
N7 C20 1_555 1_555
C4 C5 1_555 1_555
C5 C6 1_555 1_555
C10 C11 1_555 1_555
C11 C12 1_555 1_555
C16 C17 1_555 1_555
C17 C18 1_555 1_555

#END
