
#######################################################################
#
#                 Cambridge Crystallographic Data Centre
#                                CCDC 
#
#######################################################################
#
# If this CIF has been generated from an entry in the Cambridge 
# Structural Database, then it will include bibliographic, chemical, 
# crystal, experimental, refinement or atomic coordinate data resulting 
# from the CCDC's data processing and validation procedures.
#
#######################################################################

data_GEWNIH01
_symmetry_cell_setting           monoclinic
_symmetry_space_group_name_H-M   'P 21/c'
_symmetry_Int_Tables_number      14
_space_group_name_Hall           '-P 2ybc'
loop_
_symmetry_equiv_pos_site_id
_symmetry_equiv_pos_as_xyz
1 x,y,z
2 -x,1/2+y,1/2-z
3 -x,-y,-z
4 x,1/2-y,1/2+z
_cell_length_a                   11.8968(7)
_cell_length_b                   12.2573(7)
_cell_length_c                   15.6197(10)
_cell_angle_alpha                90
_cell_angle_beta                 107.408(6)
_cell_angle_gamma                90
_cell_volume                     2173.38
loop_
_atom_site_label
_atom_site_type_symbol
_atom_site_fract_x
_atom_site_fract_y
_atom_site_fract_z
Fe1 Fe 0.32710(4) 0.77570(4) 0.85425(3)
N1 N 0.4405(2) 0.7133(2) 0.97984(19)
N2 N 0.2457(2) 0.8809(2) 0.93334(18)
N3 N 0.1576(2) 0.7843(2) 0.75034(19)
N4 N 0.2125(2) 0.6573(2) 0.90098(18)
N5 N 0.4292(3) 0.9028(3) 0.8332(2)
N6 N 0.6172(2) 1.1590(3) 0.7244(2)
N7 N 0.5552(3) 1.0602(3) 0.8383(2)
C1 C 0.5370(3) 0.7626(3) 1.0311(2)
H1 H 0.5653 0.8228 1.0078
C2 C 0.5970(3) 0.7289(3) 1.1167(3)
H2 H 0.6639 0.7657 1.1506
C3 C 0.5553(3) 0.6397(4) 1.1507(3)
H3 H 0.5932 0.6155 1.2086
C4 C 0.4562(3) 0.5857(3) 1.0980(3)
H4 H 0.4275 0.5242 1.1194
C5 C 0.4014(3) 0.6251(3) 1.0134(2)
C6 C 0.2938(3) 0.5725(3) 0.9501(2)
H5 H 0.3170 0.5261 0.9080
H6 H 0.2548 0.5275 0.9837
C7 C 0.2644(3) 0.9882(3) 0.9475(2)
H7 H 0.3093 1.0238 0.9165
C8 C 0.2218(3) 1.0485(3) 1.0041(3)
H8 H 0.2376 1.1227 1.0119
C9 C 0.1546(3) 0.9960(3) 1.0496(3)
H9 H 0.1239 1.0343 1.0889
C10 C 0.1337(3) 0.8861(3) 1.0361(3)
H10 H 0.0890 0.8491 1.0665
C11 C 0.1797(3) 0.8312(3) 0.9769(2)
C12 C 0.1526(3) 0.7121(3) 0.9601(3)
H11 H 0.1741 0.6746 1.0174
H12 H 0.0682 0.7040 0.9335
C13 C 0.1241(3) 0.8641(3) 0.6898(2)
H13 H 0.1780 0.9184 0.6880
C14 C 0.0121(3) 0.8688(3) 0.6298(2)
H14 H -0.0085 0.9240 0.5871
C15 C -0.0682(3) 0.7901(3) 0.6346(3)
H15 H -0.1447 0.7922 0.5959
C16 C -0.0342(3) 0.7087(3) 0.6971(2)
H16 H -0.0879 0.6555 0.7017
C17 C 0.0797(3) 0.7060(3) 0.7531(2)
C18 C 0.1270(3) 0.6152(3) 0.8187(2)
H17 H 0.0624 0.5800 0.8339
H18 H 0.1648 0.5611 0.7913
C19 C 0.4868(3) 0.9766(3) 0.8296(2)
C20 C 0.5835(3) 1.1101(3) 0.7739(2)
Fe1A Fe 0.67290(4) 1.27570(4) 0.64575(3)
N6A N 0.3828(2) 0.6590(3) 0.7756(2)
Cl1 Cl 0.78113(8) 0.65987(8) 0.87112(7)
O1 O 0.7210(3) 0.6068(3) 0.7900(2)
O2 O 0.7053(2) 0.6776(3) 0.9255(2)
O3 O 0.8280(3) 0.7602(3) 0.8538(3)
O4 O 0.8755(2) 0.5909(3) 0.9193(2)
loop_
_geom_bond_atom_site_label_1
_geom_bond_atom_site_label_2
_geom_bond_site_symmetry_1
_geom_bond_site_symmetry_2
Fe1 N1 1_555 1_555
N1 C1 1_555 1_555
N2 Fe1 1_555 1_555
N3 Fe1 1_555 1_555
N4 Fe1 1_555 1_555
N5 Fe1 1_555 1_555
N6 C20 1_555 1_555
N7 C19 1_555 1_555
C1 H1 1_555 1_555
C2 C1 1_555 1_555
H2 C2 1_555 1_555
C3 C2 1_555 1_555
H3 C3 1_555 1_555
C4 C3 1_555 1_555
H4 C4 1_555 1_555
C5 N1 1_555 1_555
C6 N4 1_555 1_555
H5 C6 1_555 1_555
H6 C6 1_555 1_555
C7 N2 1_555 1_555
H7 C7 1_555 1_555
C8 C7 1_555 1_555
H8 C8 1_555 1_555
C9 C8 1_555 1_555
H9 C9 1_555 1_555
C10 C9 1_555 1_555
H10 C10 1_555 1_555
C11 N2 1_555 1_555
C12 N4 1_555 1_555
H11 C12 1_555 1_555
H12 C12 1_555 1_555
C13 N3 1_555 1_555
H13 C13 1_555 1_555
C14 C13 1_555 1_555
H14 C14 1_555 1_555
C15 C14 1_555 1_555
H15 C15 1_555 1_555
C16 C15 1_555 1_555
H16 C16 1_555 1_555
C17 N3 1_555 1_555
C18 N4 1_555 1_555
H17 C18 1_555 1_555
H18 C18 1_555 1_555
C19 N5 1_555 1_555
C20 N7 1_555 1_555
Cl1 O1 1_555 1_555
O2 Cl1 1_555 1_555
O3 Cl1 1_555 1_555
O4 Cl1 1_555 1_555
Fe1A N6 1_555 1_555
N6A Fe1 1_555 1_555
C4 C5 1_555 1_555
C5 C6 1_555 1_555
C10 C11 1_555 1_555
C11 C12 1_555 1_555
C16 C17 1_555 1_555
C17 C18 1_555 1_555

#END
