
#######################################################################
#
#                 Cambridge Crystallographic Data Centre
#                                CCDC 
#
#######################################################################
#
# If this CIF has been generated from an entry in the Cambridge 
# Structural Database, then it will include bibliographic, chemical, 
# crystal, experimental, refinement or atomic coordinate data resulting 
# from the CCDC's data processing and validation procedures.
#
#######################################################################

data_GEWPUV
_symmetry_cell_setting           monoclinic
_symmetry_space_group_name_H-M   'P 21/c'
_symmetry_Int_Tables_number      14
_space_group_name_Hall           '-P 2ybc'
loop_
_symmetry_equiv_pos_site_id
_symmetry_equiv_pos_as_xyz
1 x,y,z
2 -x,1/2+y,1/2-z
3 -x,-y,-z
4 x,1/2-y,1/2+z
_cell_length_a                   27.993(5)
_cell_length_b                   10.587(2)
_cell_length_c                   33.716(6)
_cell_angle_alpha                90
_cell_angle_beta                 107.199(3)
_cell_angle_gamma                90
_cell_volume                     9545.32
loop_
_atom_site_label
_atom_site_type_symbol
_atom_site_fract_x
_atom_site_fract_y
_atom_site_fract_z
Co1 Co 0.04066(4) 0.15745(11) -0.26979(4)
O1 O -0.0178(2) 0.2246(6) -0.25222(18)
N1 N 0.0883(3) 0.0523(7) -0.2225(2)
C1 C -0.0407(3) 0.1227(10) -0.2503(3)
Co2 Co 0.19235(4) 0.12261(12) 0.04823(4)
O2 O -0.0851(2) -0.1981(6) -0.2323(2)
N2 N 0.1145(3) -0.0865(7) -0.1710(2)
C2 C -0.0858(3) 0.1222(9) -0.2350(2)
Co3 Co 0.53402(4) 0.22825(12) 0.22478(4)
O3 O -0.0266(3) -0.1061(6) -0.1807(2)
N3 N 0.0927(3) -0.1606(7) -0.0136(2)
C3 C -0.0983(3) 0.0107(9) -0.2164(3)
Co4 Co 0.73572(5) 0.12898(12) 0.51552(4)
O4 O 0.1644(2) 0.2413(6) 0.0870(2)
N4 N 0.1400(3) -0.0204(7) 0.0287(2)
C4 C -0.1411(3) 0.0118(9) -0.2041(3)
H1 H -0.1497 -0.0597 -0.1918
N5 N 0.2423(3) 0.0167(7) 0.0942(2)
C5 C -0.1716(4) 0.1179(11) -0.2100(3)
H2 H -0.2007 0.1171 -0.2021
O5 O 0.2339(2) 0.6394(7) 0.02902(19)
N6 N 0.2952(3) -0.1434(8) 0.1187(3)
C6 C -0.1579(4) 0.2270(10) -0.2282(3)
H3 H -0.1779 0.2988 -0.2322
O6 O 0.1785(3) 0.4900(7) 0.0045(2)
N7 N 0.4785(3) -0.0451(8) 0.1330(3)
C7 C -0.1154(4) 0.2263(10) -0.2396(3)
H4 H -0.1063 0.2991 -0.2510
O7 O 0.2277(2) 0.3134(6) 0.0698(2)
N8 N 0.5124(3) 0.1237(7) 0.1720(2)
C8 C -0.0648(4) -0.1069(10) -0.2074(3)
O8 O 0.2316(2) 0.0815(5) 0.00831(18)
N9 N 0.5877(3) 0.1143(7) 0.2619(2)
C9 C 0.0751(4) -0.0348(9) -0.1995(3)
H5 H 0.0421 -0.0578 -0.2028
O9 O 0.3090(2) -0.2250(6) -0.0177(2)
N10 N 0.6185(3) -0.0478(8) 0.3027(2)
C10 C 0.1574(4) -0.0253(9) -0.1741(3)
O10 O 0.2310(3) -0.1615(6) -0.0394(2)
N11 N 0.6570(3) -0.1919(8) 0.4600(2)
C11 C 0.1404(3) 0.0621(9) -0.2064(3)
O11 O 0.1822(3) 0.1454(7) -0.0539(2)
N12 N 0.6860(3) -0.0128(7) 0.4941(2)
C12 C 0.1741(4) 0.1368(10) -0.2185(3)
H6 H 0.1640 0.1934 -0.2405
O12 O 0.1372(3) 0.2402(7) -0.0028(2)
N13 N 0.0335(3) 0.0480(7) -0.3204(2)
C13 C 0.2244(4) 0.1217(12) -0.1956(4)
H7 H 0.2482 0.1736 -0.2016
O13 O 0.5761(2) 0.3711(6) 0.21706(19)
N14 N 0.0101(3) -0.1310(7) -0.3559(2)
C14 C 0.2398(5) 0.0332(14) -0.1647(4)
H8 H 0.2739 0.0220 -0.1521
O14 O 0.5070(2) 0.8004(6) 0.2390(2)
N15 N -0.1812(3) -0.0611(9) -0.3779(3)
C15 C 0.2072(5) -0.0378(11) -0.1521(3)
H9 H 0.2178 -0.0927 -0.1297
O15 O 0.5238(2) 0.6003(6) 0.25385(17)
N16 N -0.2295(3) 0.0634(8) -0.4260(2)
C16 C 0.1116(4) -0.1906(9) -0.1435(3)
H10 H 0.1437 -0.2328 -0.1351
H11 H 0.0872 -0.2510 -0.1592
O16 O 0.5046(3) 0.4453(6) 0.1746(2)
C17 C 0.0980(4) -0.1560(10) -0.1058(3)
H12 H 0.0636 -0.1269 -0.1137
H13 H 0.1192 -0.0872 -0.0918
O17 O -0.0248(2) 0.0223(6) -0.25985(19)
C18 C 0.1039(4) -0.2679(9) -0.0763(3)
H14 H 0.1392 -0.2777 -0.0615
H15 H 0.0932 -0.3438 -0.0926
C19 C 0.0749(4) -0.2576(10) -0.0446(3)
H16 H 0.0401 -0.2410 -0.0593
H17 H 0.0765 -0.3384 -0.0307
C20 C 0.1356(3) -0.0972(8) -0.0026(3)
H18 H 0.1601 -0.1064 -0.0159
C21 C 0.0967(3) -0.0381(8) 0.0403(3)
C22 C 0.0667(4) -0.1243(9) 0.0141(3)
C23 C 0.0185(3) -0.1537(9) 0.0162(3)
H19 H -0.0024 -0.2092 -0.0025
C24 C 0.0040(4) -0.0971(9) 0.0467(3)
H20 H -0.0279 -0.1130 0.0486
C25 C 0.0354(4) -0.0157(9) 0.0753(3)
H21 H 0.0249 0.0173 0.0969
C26 C 0.0815(4) 0.0163(9) 0.0720(3)
H22 H 0.1020 0.0730 0.0904
C27 C 0.1802(3) 0.4603(9) 0.0942(3)
C28 C 0.1845(3) 0.5692(9) 0.0715(3)
C29 C 0.2007(4) 0.5629(10) 0.0332(3)
C30 C 0.1717(3) 0.6848(10) 0.0835(3)
H23 H 0.1756 0.7563 0.0687
C31 C 0.1530(4) 0.6981(10) 0.1168(3)
H24 H 0.1432 0.7769 0.1237
C32 C 0.1492(4) 0.5939(10) 0.1395(3)
H25 H 0.1378 0.6022 0.1626
C33 C 0.1619(3) 0.4777(9) 0.1283(3)
H26 H 0.1583 0.4076 0.1439
C34 C 0.2233(4) 0.1077(8) -0.0302(3)
C35 C 0.2674(4) 0.0939(10) -0.0471(3)
C36 C 0.2941(4) -0.0180(8) -0.0452(3)
C37 C 0.2755(5) -0.1401(10) -0.0336(3)
C38 C 0.3376(4) -0.0121(11) -0.0577(3)
H27 H 0.3571 -0.0844 -0.0555
C39 C 0.3529(5) 0.0993(12) -0.0735(3)
H28 H 0.3804 0.1005 -0.0836
C40 C 0.3261(5) 0.2013(12) -0.0732(3)
H29 H 0.3368 0.2765 -0.0820
C41 C 0.2840(5) 0.2051(11) -0.0609(3)
H30 H 0.2666 0.2804 -0.0617
C42 C 0.2623(4) -0.0875(10) 0.0852(3)
H31 H 0.2549 -0.1201 0.0584
C43 C 0.2956(3) -0.0682(10) 0.1521(3)
C44 C 0.2622(3) 0.0296(9) 0.1379(3)
C45 C 0.2526(4) 0.1197(10) 0.1627(3)
H32 H 0.2298 0.1843 0.1526
C46 C 0.2794(4) 0.1096(11) 0.2049(3)
H33 H 0.2742 0.1689 0.2236
C47 C 0.3137(5) 0.0123(12) 0.2194(3)
H34 H 0.3313 0.0090 0.2475
C48 C 0.3221(4) -0.0775(11) 0.1938(4)
H35 H 0.3448 -0.1427 0.2037
C49 C 0.3207(4) -0.2638(11) 0.1200(4)
H36 H 0.2977 -0.3236 0.1025
H37 H 0.3298 -0.2960 0.1482
C50 C 0.3661(5) -0.2567(12) 0.1064(5)
H38 H 0.3559 -0.2426 0.0766
H39 H 0.3829 -0.3379 0.1115
C51 C 0.4023(5) -0.1585(13) 0.1262(5)
H40 H 0.3880 -0.0775 0.1154
H41 H 0.4056 -0.1592 0.1556
C52 C 0.4507(4) -0.1638(11) 0.1220(3)
H42 H 0.4484 -0.1848 0.0934
H43 H 0.4692 -0.2308 0.1395
C53 C 0.4862(4) 0.0172(10) 0.1687(3)
H44 H 0.4741 -0.0119 0.1899
C54 C 0.5226(4) 0.1289(10) 0.1337(3)
C55 C 0.5033(4) 0.0244(10) 0.1100(3)
C56 C 0.5074(4) 0.0016(12) 0.0710(3)
H45 H 0.4934 -0.0688 0.0554
C57 C 0.5340(4) 0.0924(13) 0.0569(3)
H46 H 0.5383 0.0821 0.0307
C58 C 0.5549(4) 0.1992(12) 0.0802(4)
H47 H 0.5726 0.2576 0.0694
C59 C 0.5493(4) 0.2180(9) 0.1193(3)
H48 H 0.5631 0.2880 0.1352
C60 C 0.5496(4) 0.4579(10) 0.1947(3)
C61 C 0.5753(3) 0.5832(8) 0.1922(3)
C62 C 0.5634(3) 0.6935(9) 0.2084(3)
C63 C 0.5284(4) 0.6990(11) 0.2348(3)
C64 C 0.5861(4) 0.8063(9) 0.2015(3)
H49 H 0.5763 0.8818 0.2109
C65 C 0.6228(4) 0.8091(11) 0.1812(3)
H50 H 0.6389 0.8839 0.1784
C66 C 0.6341(4) 0.6979(12) 0.1653(3)
H51 H 0.6574 0.6973 0.1506
C67 C 0.6111(4) 0.5858(10) 0.1710(3)
H52 H 0.6198 0.5111 0.1603
C68 C 0.5788(4) 0.0244(9) 0.2863(3)
H53 H 0.5482 0.0132 0.2914
C69 C 0.6569(4) -0.0053(10) 0.2885(3)
C70 C 0.6371(3) 0.0954(8) 0.2627(3)
C71 C 0.6654(4) 0.1552(9) 0.2409(3)
H54 H 0.6522 0.2210 0.2227
C72 C 0.7137(4) 0.1148(11) 0.2468(3)
H55 H 0.7330 0.1528 0.2320
C73 C 0.7340(4) 0.0197(11) 0.2742(4)
H56 H 0.7672 -0.0022 0.2783
C74 C 0.7069(4) -0.0439(9) 0.2955(3)
H57 H 0.7208 -0.1093 0.3137
C75 C 0.6173(4) -0.1694(10) 0.3249(3)
H58 H 0.5827 -0.1960 0.3191
H59 H 0.6345 -0.2333 0.3137
C76 C 0.6398(4) -0.1652(10) 0.3699(3)
H60 H 0.6290 -0.0892 0.3808
H61 H 0.6759 -0.1623 0.3763
C77 C 0.6246(4) -0.2810(9) 0.3904(3)
H62 H 0.5901 -0.2713 0.3903
H63 H 0.6265 -0.3551 0.3740
C78 C 0.6561(3) -0.3026(8) 0.4339(3)
H64 H 0.6432 -0.3743 0.4453
H65 H 0.6900 -0.3226 0.4340
C79 C 0.6935(4) -0.1056(10) 0.4704(3)
H66 H 0.7220 -0.1106 0.4617
C80 C 0.6402(4) -0.0476(11) 0.5016(3)
C81 C 0.6224(4) -0.1577(10) 0.4795(3)
C82 C 0.5788(4) -0.2154(12) 0.4812(3)
H67 H 0.5664 -0.2884 0.4663
C83 C 0.5550(4) -0.1560(15) 0.5066(4)
H68 H 0.5255 -0.1920 0.5086
C84 C 0.5717(5) -0.0458(14) 0.5296(4)
H69 H 0.5547 -0.0113 0.5468
C85 C 0.6153(4) 0.0100(11) 0.5252(4)
H70 H 0.6270 0.0858 0.5385
C86 C 0.0178(4) -0.0684(10) -0.3197(3)
H71 H 0.0125 -0.1046 -0.2962
C87 C 0.0212(3) -0.0462(9) -0.3832(3)
C88 C 0.0357(3) 0.0661(9) -0.3615(3)
C89 C 0.0520(3) 0.1667(9) -0.3804(3)
H72 H 0.0617 0.2417 -0.3659
C90 C 0.0536(3) 0.1561(10) -0.4201(3)
H73 H 0.0643 0.2235 -0.4330
C91 C 0.0390(4) 0.0421(11) -0.4413(3)
H74 H 0.0417 0.0342 -0.4680
C92 C 0.0210(4) -0.0579(10) -0.4246(3)
H75 H 0.0091 -0.1304 -0.4399
C93 C -0.0135(4) -0.2524(9) -0.3653(3)
H76 H 0.0093 -0.3169 -0.3502
H77 H -0.0200 -0.2690 -0.3948
C94 C -0.0615(4) -0.2617(10) -0.3545(3)
H78 H -0.0762 -0.3440 -0.3629
H79 H -0.0542 -0.2556 -0.3246
C95 C -0.0987(4) -0.1620(10) -0.3744(3)
H80 H -0.1092 -0.1750 -0.4042
H81 H -0.0826 -0.0801 -0.3690
C96 C -0.1443(4) -0.1607(10) -0.3595(3)
H82 H -0.1607 -0.2422 -0.3655
H83 H -0.1336 -0.1502 -0.3296
C97 C -0.1930(4) -0.0186(10) -0.4176(3)
H84 H -0.1769 -0.0449 -0.4366
C98 C -0.2428(4) 0.0731(10) -0.3900(3)
C99 C -0.2129(4) -0.0026(10) -0.3594(3)
C100 C -0.2170(5) -0.0091(12) -0.3201(3)
H85 H -0.1963 -0.0593 -0.2994
C101 C -0.2550(5) 0.0660(14) -0.3134(4)
H86 H -0.2600 0.0643 -0.2873
C102 C -0.2860(5) 0.1441(13) -0.3442(4)
H87 H -0.3107 0.1923 -0.3382
C103 C -0.2798(4) 0.1491(11) -0.3825(4)
H88 H -0.2996 0.2012 -0.4031
C104 C 0.1909(3) 0.3336(8) 0.0832(3)
Co1A Co -0.04066(4) -0.34255(11) -0.23021(4)
O2A O 0.0851(2) 0.3019(6) -0.2677(2)
Co3A Co 0.46598(4) 0.72825(12) 0.27522(4)
Co4_2 Co -0.26428(5) 0.12898(12) -0.48448(4)
Co4A Co 0.26428(5) -0.37102(12) -0.01552(4)
Co4A_2 Co 0.26428(5) 0.62898(12) -0.01552(4)
O5A O 0.7661(2) 0.1394(7) 0.47098(19)
O9A O 0.6910(2) 0.2750(6) 0.5177(2)
O10A O 0.7690(3) 0.3385(6) 0.5394(2)
O14A O 0.4930(2) 0.3004(6) 0.2610(2)
O15A O 0.4762(2) 0.1003(6) 0.24615(17)
N16_2 N 0.7705(3) 0.0634(8) 0.5740(2)
O18 O 0.4634(4) 0.5357(9) 0.0891(3)
H89 H 0.4456 0.4769 0.0944
H90 H 0.4933 0.5246 0.1043
O19 O 0.4223(5) 0.7593(12) 0.0218(3)
H91 H 0.4332 0.6942 0.0125
H92 H 0.3908 0.7618 0.0108
loop_
_geom_bond_atom_site_label_1
_geom_bond_atom_site_label_2
_geom_bond_site_symmetry_1
_geom_bond_site_symmetry_2
Co1 O1 1_555 1_555
O1 C1 1_555 1_555
N1 Co1 1_555 1_555
C1 C2 1_555 1_555
Co2 O4 1_555 1_555
O2 C8 1_555 1_555
N2 C9 1_555 1_555
C2 C3 1_555 1_555
Co3 N8 1_555 1_555
O3 C8 1_555 1_555
N3 C19 1_555 1_555
C3 C4 1_555 1_555
Co4 N12 1_555 1_555
O4 C104 1_555 1_555
N4 Co2 1_555 1_555
C4 H1 1_555 1_555
N5 Co2 1_555 1_555
C5 C4 1_555 1_555
H2 C5 1_555 1_555
O5 C29 1_555 1_555
N6 C42 1_555 1_555
C6 C5 1_555 1_555
H3 C6 1_555 1_555
O6 C29 1_555 1_555
N7 C52 1_555 1_555
C7 C2 1_555 1_555
H4 C7 1_555 1_555
O7 Co2 1_555 1_555
N8 C53 1_555 1_555
C8 C3 1_555 1_555
O8 Co2 1_555 1_555
N9 Co3 1_555 1_555
C9 N1 1_555 1_555
H5 C9 1_555 1_555
O9 C37 1_555 1_555
N10 C68 1_555 1_555
C10 N2 1_555 1_555
O10 C37 1_555 1_555
N11 C78 1_555 1_555
C11 N1 1_555 1_555
O11 C34 1_555 1_555
N12 C79 1_555 1_555
C12 C11 1_555 1_555
H6 C12 1_555 1_555
O12 Co2 1_555 1_555
N13 Co1 1_555 1_555
C13 C12 1_555 1_555
H7 C13 1_555 1_555
O13 Co3 1_555 1_555
N14 C86 1_555 1_555
C14 C13 1_555 1_555
H8 C14 1_555 1_555
O14 C63 1_555 1_555
N15 C96 1_555 1_555
C15 C10 1_555 1_555
H9 C15 1_555 1_555
O15 C63 1_555 1_555
N16 C97 1_555 1_555
C16 N2 1_555 1_555
H10 C16 1_555 1_555
H11 C16 1_555 1_555
O16 C60 1_555 1_555
C17 C16 1_555 1_555
H12 C17 1_555 1_555
H13 C17 1_555 1_555
O17 Co1 1_555 1_555
C18 C17 1_555 1_555
H14 C18 1_555 1_555
H15 C18 1_555 1_555
C19 C18 1_555 1_555
H16 C19 1_555 1_555
H17 C19 1_555 1_555
C20 N3 1_555 1_555
H18 C20 1_555 1_555
C21 N4 1_555 1_555
C22 N3 1_555 1_555
C23 C22 1_555 1_555
H19 C23 1_555 1_555
C24 C23 1_555 1_555
H20 C24 1_555 1_555
C25 C24 1_555 1_555
H21 C25 1_555 1_555
C26 C21 1_555 1_555
H22 C26 1_555 1_555
C27 C28 1_555 1_555
C28 C29 1_555 1_555
C30 C28 1_555 1_555
H23 C30 1_555 1_555
C31 C30 1_555 1_555
H24 C31 1_555 1_555
C32 C31 1_555 1_555
H25 C32 1_555 1_555
C33 C27 1_555 1_555
H26 C33 1_555 1_555
C34 O8 1_555 1_555
C35 C34 1_555 1_555
C36 C35 1_555 1_555
C37 C36 1_555 1_555
C38 C36 1_555 1_555
H27 C38 1_555 1_555
C39 C38 1_555 1_555
H28 C39 1_555 1_555
C40 C39 1_555 1_555
H29 C40 1_555 1_555
C41 C35 1_555 1_555
H30 C41 1_555 1_555
C42 N5 1_555 1_555
H31 C42 1_555 1_555
C43 N6 1_555 1_555
C44 N5 1_555 1_555
C45 C44 1_555 1_555
H32 C45 1_555 1_555
C46 C45 1_555 1_555
H33 C46 1_555 1_555
C47 C46 1_555 1_555
H34 C47 1_555 1_555
C48 C43 1_555 1_555
H35 C48 1_555 1_555
C49 N6 1_555 1_555
H36 C49 1_555 1_555
H37 C49 1_555 1_555
C50 C49 1_555 1_555
H38 C50 1_555 1_555
H39 C50 1_555 1_555
C51 C50 1_555 1_555
H40 C51 1_555 1_555
H41 C51 1_555 1_555
C52 C51 1_555 1_555
H42 C52 1_555 1_555
H43 C52 1_555 1_555
C53 N7 1_555 1_555
H44 C53 1_555 1_555
C54 N8 1_555 1_555
C55 N7 1_555 1_555
C56 C55 1_555 1_555
H45 C56 1_555 1_555
C57 C56 1_555 1_555
H46 C57 1_555 1_555
C58 C57 1_555 1_555
H47 C58 1_555 1_555
C59 C54 1_555 1_555
H48 C59 1_555 1_555
C60 O13 1_555 1_555
C61 C60 1_555 1_555
C62 C61 1_555 1_555
C63 C62 1_555 1_555
C64 C62 1_555 1_555
H49 C64 1_555 1_555
C65 C64 1_555 1_555
H50 C65 1_555 1_555
C66 C65 1_555 1_555
H51 C66 1_555 1_555
C67 C61 1_555 1_555
H52 C67 1_555 1_555
C68 N9 1_555 1_555
H53 C68 1_555 1_555
C69 N10 1_555 1_555
C70 N9 1_555 1_555
C71 C70 1_555 1_555
H54 C71 1_555 1_555
C72 C71 1_555 1_555
H55 C72 1_555 1_555
C73 C72 1_555 1_555
H56 C73 1_555 1_555
C74 C69 1_555 1_555
H57 C74 1_555 1_555
C75 N10 1_555 1_555
H58 C75 1_555 1_555
H59 C75 1_555 1_555
C76 C75 1_555 1_555
H60 C76 1_555 1_555
H61 C76 1_555 1_555
C77 C76 1_555 1_555
H62 C77 1_555 1_555
H63 C77 1_555 1_555
C78 C77 1_555 1_555
H64 C78 1_555 1_555
H65 C78 1_555 1_555
C79 N11 1_555 1_555
H66 C79 1_555 1_555
C80 N12 1_555 1_555
C81 N11 1_555 1_555
C82 C81 1_555 1_555
H67 C82 1_555 1_555
C83 C82 1_555 1_555
H68 C83 1_555 1_555
C84 C83 1_555 1_555
H69 C84 1_555 1_555
C85 C80 1_555 1_555
H70 C85 1_555 1_555
C86 N13 1_555 1_555
H71 C86 1_555 1_555
C87 N14 1_555 1_555
C88 N13 1_555 1_555
C89 C88 1_555 1_555
H72 C89 1_555 1_555
C90 C89 1_555 1_555
H73 C90 1_555 1_555
C91 C90 1_555 1_555
H74 C91 1_555 1_555
C92 C87 1_555 1_555
H75 C92 1_555 1_555
C93 N14 1_555 1_555
H76 C93 1_555 1_555
H77 C93 1_555 1_555
C94 C93 1_555 1_555
H78 C94 1_555 1_555
H79 C94 1_555 1_555
C95 C94 1_555 1_555
H80 C95 1_555 1_555
H81 C95 1_555 1_555
C96 C95 1_555 1_555
H82 C96 1_555 1_555
H83 C96 1_555 1_555
C97 N15 1_555 1_555
H84 C97 1_555 1_555
C98 N16 1_555 1_555
C99 N15 1_555 1_555
C100 C99 1_555 1_555
H85 C100 1_555 1_555
C101 C100 1_555 1_555
H86 C101 1_555 1_555
C102 C101 1_555 1_555
H87 C102 1_555 1_555
C103 C98 1_555 1_555
H88 C103 1_555 1_555
C104 O7 1_555 1_555
O18 H89 1_555 1_555
H90 O18 1_555 1_555
O19 H91 1_555 1_555
H92 O19 1_555 1_555
Co1A O2 1_555 1_555
O2A Co1 1_555 1_555
Co3A O14 1_555 1_555
Co4_2 N16 1_555 1_555
Co4A O9 1_555 1_555
Co4A_2 O5 1_555 1_555
O5A Co4 1_555 1_555
O9A Co4 1_555 1_555
O10A Co4 1_555 1_555
O14A Co3 1_555 1_555
O15A Co3 1_555 1_555
N16_2 Co4 1_555 1_555
C1 O17 1_555 1_555
N4 C20 1_555 1_555
C6 C7 1_555 1_555
C10 C11 1_555 1_555
O10 Co4A 1_555 1_555
C14 C15 1_555 1_555
O15 Co3A 1_555 1_555
C21 C22 1_555 1_555
C25 C26 1_555 1_555
C27 C104 1_555 1_555
C32 C33 1_555 1_555
C40 C41 1_555 1_555
C43 C44 1_555 1_555
C47 C48 1_555 1_555
C54 C55 1_555 1_555
C58 C59 1_555 1_555
C66 C67 1_555 1_555
C69 C70 1_555 1_555
C73 C74 1_555 1_555
C80 C81 1_555 1_555
C84 C85 1_555 1_555
C87 C88 1_555 1_555
C91 C92 1_555 1_555
C98 C99 1_555 1_555
C102 C103 1_555 1_555

#END
