
#######################################################################
#
#                 Cambridge Crystallographic Data Centre
#                                CCDC 
#
#######################################################################
#
# If this CIF has been generated from an entry in the Cambridge 
# Structural Database, then it will include bibliographic, chemical, 
# crystal, experimental, refinement or atomic coordinate data resulting 
# from the CCDC's data processing and validation procedures.
#
#######################################################################

data_GEWPIJ
_symmetry_cell_setting           orthorhombic
_symmetry_space_group_name_H-M   'P b c n'
_symmetry_Int_Tables_number      60
_space_group_name_Hall           '-P 2n 2ab'
loop_
_symmetry_equiv_pos_site_id
_symmetry_equiv_pos_as_xyz
1 x,y,z
2 1/2-x,1/2-y,1/2+z
3 -x,y,1/2-z
4 1/2+x,1/2-y,-z
5 -x,-y,-z
6 1/2+x,1/2+y,1/2-z
7 x,-y,1/2+z
8 1/2-x,1/2+y,z
_cell_length_a                   27.5471(15)
_cell_length_b                   16.6291(9)
_cell_length_c                   24.9173(13)
_cell_angle_alpha                90
_cell_angle_beta                 90
_cell_angle_gamma                90
_cell_volume                     11414.2
loop_
_atom_site_label
_atom_site_type_symbol
_atom_site_fract_x
_atom_site_fract_y
_atom_site_fract_z
C1 C 0.3999(10) 0.9262(17) 0.4323(11)
H1 H 0.4280 0.9485 0.4141
H2 H 0.3730 0.9621 0.4250
C2 C 0.4001(8) 0.5210(15) 0.4291(9)
H3 H 0.3695 0.4945 0.4367
H4 H 0.4159 0.4948 0.3991
C3 C 0.3940(9) 0.6074(16) 0.4202(10)
H5 H 0.3648 0.6153 0.3990
H6 H 0.3887 0.6329 0.4547
C4 C 0.3617(13) 0.3438(19) 0.4899(12)
H7 H 0.3833 0.3104 0.4719
C5 C 0.3350(13) 0.428(2) 0.5283(12)
H8 H 0.3298 0.4752 0.5476
C6 C 0.4286(12) 0.4474(17) 0.4996(12)
H9 H 0.4389 0.4098 0.4721
H10 H 0.4503 0.4410 0.5300
N1 N 0.2389(5) 0.6317(9) 0.4203(7)
N2 N 0.2601(5) 0.5561(10) 0.3462(8)
C7 C 0.2408(8) 0.6233(16) 0.3662(10)
H11 H 0.2289 0.6632 0.3437
N3 N 0.3169(9) 0.3268(12) 0.4945(6)
C8 C 0.2687(8) 0.5206(16) 0.3934(10)
H12 H 0.2824 0.4696 0.3954
C9 C 0.2646(8) 0.5336(14) 0.2931(9)
H13 H 0.2328 0.5215 0.2786
H14 H 0.2843 0.4853 0.2908
C10 C 0.2884(8) 0.6011(13) 0.2597(8)
H15 H 0.2659 0.6458 0.2569
H16 H 0.3171 0.6202 0.2784
C11 C 0.4082(10) 0.9303(16) 0.4817(10)
H17 H 0.4302 0.8876 0.4922
H18 H 0.3782 0.9239 0.5016
W1 W 0.02560(2) 0.55822(3) 0.15108(2)
W2 W -0.02815(2) 0.92483(3) 0.34607(2)
W3 W 0.09421(2) 0.55929(3) 0.27707(2)
W4 W 0.08950(2) 0.92584(3) 0.27043(2)
W5 W 0.00156(2) 0.73275(4) 0.41098(2)
W6 W 0.11975(2) 0.73575(4) 0.33621(2)
W7 W 0.15508(2) 0.62170(4) 0.15178(2)
W8 W 0.12619(2) 0.80017(4) 0.09508(2)
W9 W 0.18621(2) 0.79630(4) 0.21355(2)
P1 P -0.06257(12) 0.73969(19) 0.28928(12)
O1 O 0.1405(4) 0.5857(6) 0.2232(4)
O2 O 0.1670(3) 0.7498(5) 0.2790(4)
O3 O 0.0992(3) 0.8396(6) 0.3195(3)
O4 O 0.0076(4) 0.6198(6) 0.0889(3)
O5 O -0.0489(3) 0.8278(5) 0.2807(3)
O6 O 0.0655(4) 0.7496(5) 0.0774(4)
O7 O -0.0264(3) 0.6950(5) 0.3240(3)
O8 O -0.1127(3) 0.7399(5) 0.3201(4)
O9 O 0.1553(4) 0.6946(6) 0.0918(4)
O10 O 0.1438(3) 0.8829(5) 0.2336(4)
O11 O 0.0925(4) 0.5847(5) 0.1335(4)
O12 O 0.0876(3) 0.8852(5) 0.1217(4)
O13 O 0.0019(3) 0.8377(5) 0.3821(3)
O14 O -0.0384(4) 0.5627(5) 0.1773(4)
O15 O 0.0496(4) 0.5393(6) 0.2214(4)
O16 O 0.1784(4) 0.8324(6) 0.1404(4)
O17 O 0.0272(3) 0.9384(5) 0.3021(4)
O18 O 0.0679(3) 0.9779(5) 0.2073(4)
O19 O 0.0631(4) 0.7186(6) 0.3771(4)
O20 O 0.1278(4) 0.6221(6) 0.3292(4)
O21 O -0.0714(3) 0.6966(5) 0.2355(3)
O22 O 0.1598(4) 0.7530(6) 0.3879(4)
O23 O 0.1187(4) 1.0046(6) 0.3010(4)
O24 O 0.0221(4) 0.7470(6) 0.4749(4)
O25 O 0.2422(4) 0.8322(7) 0.2280(4)
O26 O 0.2018(3) 0.6933(6) 0.1854(4)
O27 O 0.1452(4) 0.8358(6) 0.0344(4)
O28 O -0.0200(4) 1.0043(6) 0.3884(4)
O29 O 0.1150(4) 0.4665(6) 0.2932(4)
O30 O 0.0239(4) 0.4633(6) 0.1257(4)
O31 O 0.1928(4) 0.5468(6) 0.1294(4)
Cu1 Cu 0.5000 0.72176(17) 0.2500
Cu2 Cu 0.21482(9) 0.72765(18) 0.46003(9)
N4 N 0.4311(5) 0.7234(8) 0.2268(7)
N5 N 0.2670(6) 0.7919(10) 0.4260(6)
N6 N 0.4780(6) 0.7018(11) 0.3269(7)
N7 N 0.3594(5) 0.6897(8) 0.1948(6)
N8 N 0.3387(6) 0.8359(10) 0.4046(7)
C12 C 0.3115(10) 0.8037(16) 0.4422(10)
H19 H 0.3227 0.7907 0.4764
C13 C 0.4059(8) 0.6676(14) 0.2013(8)
H20 H 0.4187 0.6191 0.1894
C14 C 0.3124(9) 0.8451(16) 0.3608(10)
H21 H 0.3234 0.8635 0.3277
C15 C 0.3548(8) 0.7642(13) 0.2171(8)
H22 H 0.3264 0.7943 0.2189
C16 C 0.3659(10) 1.1170(16) 0.4731(11)
H23 H 0.3682 1.1119 0.4360
C17 C 0.3025(7) 0.5746(13) 0.2047(8)
H24 H 0.2747 0.5497 0.1876
H25 H 0.3278 0.5343 0.2076
C18 C 0.4403(9) 0.6596(15) 0.3393(10)
H26 H 0.4193 0.6380 0.3138
N9 N 0.4343(8) 0.6497(13) 0.3931(9)
N10 N 0.3351(8) 1.1621(12) 0.4956(6)
C19 C 0.3200(7) 0.6411(13) 0.1708(8)
H27 H 0.3314 0.6190 0.1371
H28 H 0.2928 0.6763 0.1628
C20 C 0.2668(9) 0.8229(15) 0.3729(9)
H29 H 0.2399 0.8270 0.3505
C21 C 0.3984(8) 0.7864(14) 0.2360(9)
H30 H 0.4057 0.8352 0.2523
C22 C 0.3895(9) 0.8547(17) 0.4075(10)
H31 H 0.4059 0.8118 0.4265
H32 H 0.4025 0.8562 0.3713
C23 C 0.4985(9) 0.7255(15) 0.3756(10)
H33 H 0.5255 0.7584 0.3802
N11 N 0.3955(6) 1.0766(9) 0.5074(7)
C24 C 0.4320(10) 1.0160(15) 0.4952(10)
H34 H 0.4512 1.0337 0.4648
H35 H 0.4537 1.0103 0.5257
C25 C 0.4726(9) 0.6928(16) 0.4133(11)
H36 H 0.4792 0.6981 0.4497
C26 C 0.3428(10) 1.1534(16) 0.5487(11)
H37 H 0.3263 1.1807 0.5756
C27 C 0.3795(10) 1.0973(16) 0.5569(11)
H38 H 0.3907 1.0779 0.5896
C28 C 0.2958(13) 0.3940(18) 0.5245(11)
H39 H 0.2646 0.4060 0.5362
N12 N 0.3785(12) 0.426(2) 0.5169(9)
C29 C 0.4337(9) 0.5247(16) 0.4798(10)
H40 H 0.4671 0.5362 0.4701
H41 H 0.4225 0.5646 0.5053
C30 C 0.2570(8) 0.5609(15) 0.4365(10)
H42 H 0.2605 0.5437 0.4718
C1B C -0.3999(10) 0.9262(17) 0.0677(11)
H1B H -0.4280 0.9485 0.0859
H2B H -0.3730 0.9621 0.0750
N1B N -0.2389(5) 0.6317(9) 0.0797(7)
N2B N -0.2601(5) 0.5561(10) 0.1538(8)
C7B C -0.2408(8) 0.6233(16) 0.1338(10)
H11B H -0.2289 0.6632 0.1563
C8B C -0.2687(8) 0.5206(16) 0.1066(10)
H12B H -0.2824 0.4696 0.1046
C9B C -0.2646(8) 0.5336(14) 0.2069(9)
H13B H -0.2328 0.5215 0.2214
H14B H -0.2843 0.4853 0.2092
C10B C -0.2884(8) 0.6011(13) 0.2403(8)
H15B H -0.2659 0.6458 0.2431
H16B H -0.3171 0.6202 0.2216
C11B C -0.4082(10) 0.9303(16) 0.0183(10)
H17B H -0.4302 0.8876 0.0078
H18B H -0.3782 0.9239 -0.0016
W1B W -0.02560(2) 0.55822(3) 0.34892(2)
W2B W 0.02815(2) 0.92483(3) 0.15393(2)
W3B W -0.09421(2) 0.55929(3) 0.22293(2)
W4B W -0.08950(2) 0.92584(3) 0.22957(2)
W5B W -0.00156(2) 0.73275(4) 0.08902(2)
W6B W -0.11975(2) 0.73575(4) 0.16379(2)
W7B W -0.15508(2) 0.62170(4) 0.34822(2)
W8B W -0.12619(2) 0.80017(4) 0.40492(2)
W9B W -0.18621(2) 0.79630(4) 0.28645(2)
P1B P 0.06257(12) 0.73969(19) 0.21072(12)
O1B O -0.1405(4) 0.5857(6) 0.2768(4)
O2B O -0.1670(3) 0.7498(5) 0.2210(4)
O3B O -0.0992(3) 0.8396(6) 0.1805(3)
O4B O -0.0076(4) 0.6198(6) 0.4111(3)
O5B O 0.0489(3) 0.8278(5) 0.2193(3)
O6B O -0.0655(4) 0.7496(5) 0.4226(4)
O7B O 0.0264(3) 0.6950(5) 0.1760(3)
O8B O 0.1127(3) 0.7399(5) 0.1799(4)
O9B O -0.1553(4) 0.6946(6) 0.4082(4)
O10B O -0.1438(3) 0.8829(5) 0.2664(4)
O11B O -0.0925(4) 0.5847(5) 0.3665(4)
O12B O -0.0876(3) 0.8852(5) 0.3783(4)
O13B O -0.0019(3) 0.8377(5) 0.1179(3)
O14B O 0.0384(4) 0.5627(5) 0.3227(4)
O15B O -0.0496(4) 0.5393(6) 0.2786(4)
O16B O -0.1784(4) 0.8324(6) 0.3596(4)
O17B O -0.0272(3) 0.9384(5) 0.1979(4)
O18B O -0.0679(3) 0.9779(5) 0.2927(4)
O19B O -0.0631(4) 0.7186(6) 0.1229(4)
O20B O -0.1278(4) 0.6221(6) 0.1708(4)
O21B O 0.0714(3) 0.6966(5) 0.2645(3)
O22B O -0.1598(4) 0.7530(6) 0.1121(4)
O23B O -0.1187(4) 1.0046(6) 0.1990(4)
O24B O -0.0221(4) 0.7470(6) 0.0251(4)
O25B O -0.2422(4) 0.8322(7) 0.2720(4)
O26B O -0.2018(3) 0.6933(6) 0.3146(4)
O27B O -0.1452(4) 0.8358(6) 0.4656(4)
O28B O 0.0200(4) 1.0043(6) 0.1116(4)
O29B O -0.1150(4) 0.4665(6) 0.2068(4)
O30B O -0.0239(4) 0.4633(6) 0.3743(4)
O31B O -0.1928(4) 0.5468(6) 0.3706(4)
Cu2B Cu -0.21482(9) 0.72765(18) 0.03997(9)
N4B N -0.4311(5) 0.7234(8) 0.2732(7)
N5B N -0.2670(6) 0.7919(10) 0.0740(6)
N7B N -0.3594(5) 0.6897(8) 0.3052(6)
N8B N -0.3387(6) 0.8359(10) 0.0954(7)
C12B C -0.3115(10) 0.8037(16) 0.0578(10)
H19B H -0.3227 0.7907 0.0236
C13B C -0.4059(8) 0.6676(14) 0.2987(8)
H20B H -0.4187 0.6191 0.3106
C14B C -0.3124(9) 0.8451(16) 0.1392(10)
H21B H -0.3234 0.8635 0.1723
C15B C -0.3548(8) 0.7642(13) 0.2829(8)
H22B H -0.3264 0.7943 0.2811
C16B C -0.3659(10) 1.1170(16) 0.0269(11)
H23B H -0.3682 1.1119 0.0640
C17B C -0.3025(7) 0.5746(13) 0.2953(8)
H24B H -0.2747 0.5497 0.3124
H25B H -0.3278 0.5343 0.2924
N10B N -0.3351(8) 1.1621(12) 0.0044(6)
C19B C -0.3200(7) 0.6411(13) 0.3292(8)
H27B H -0.3314 0.6190 0.3629
H28B H -0.2928 0.6763 0.3372
C20B C -0.2668(9) 0.8229(15) 0.1271(9)
H29B H -0.2399 0.8270 0.1495
C21B C -0.3984(8) 0.7864(14) 0.2640(9)
H30B H -0.4057 0.8352 0.2477
C22B C -0.3895(9) 0.8547(17) 0.0925(10)
H31B H -0.4059 0.8118 0.0735
H32B H -0.4025 0.8562 0.1287
N11B N -0.3955(6) 1.0766(9) -0.0074(7)
C24B C -0.4320(10) 1.0160(15) 0.0048(10)
H34B H -0.4512 1.0337 0.0352
H35B H -0.4537 1.0103 -0.0257
C26B C -0.3428(10) 1.1534(16) -0.0487(11)
H37B H -0.3263 1.1807 -0.0756
C27B C -0.3795(10) 1.0973(16) -0.0569(11)
H38B H -0.3907 1.0779 -0.0896
C30B C -0.2570(8) 0.5609(15) 0.0635(10)
H42B H -0.2605 0.5437 0.0282
C2B C 0.5999(8) 0.5210(15) 0.0709(9)
H3B H 0.6305 0.4945 0.0633
H4B H 0.5841 0.4948 0.1009
C3B C 0.6060(9) 0.6074(16) 0.0798(10)
H5B H 0.6352 0.6153 0.1010
H6B H 0.6113 0.6329 0.0453
C4B C 0.6383(13) 0.3438(19) 0.0101(12)
H7B H 0.6167 0.3104 0.0281
C5B C 0.6650(13) 0.428(2) -0.0283(12)
H8B H 0.6702 0.4752 -0.0476
C6B C 0.5714(12) 0.4474(17) 0.0004(12)
H9B H 0.5611 0.4098 0.0279
H10B H 0.5497 0.4410 -0.0300
N3B N 0.6831(9) 0.3268(12) 0.0055(6)
N6B N 0.5220(6) 0.7018(11) 0.1731(7)
C18B C 0.5597(9) 0.6596(15) 0.1607(10)
H26B H 0.5807 0.6380 0.1862
N9B N 0.5657(8) 0.6497(13) 0.1069(9)
C23B C 0.5015(9) 0.7255(15) 0.1244(10)
H33B H 0.4745 0.7584 0.1198
C25B C 0.5274(9) 0.6928(16) 0.0867(11)
H36B H 0.5208 0.6981 0.0503
C28B C 0.7042(13) 0.3940(18) -0.0245(11)
H39B H 0.7354 0.4060 -0.0362
N12B N 0.6215(12) 0.426(2) -0.0169(9)
C29B C 0.5663(9) 0.5247(16) 0.0202(10)
H40B H 0.5329 0.5362 0.0299
H41B H 0.5775 0.5646 -0.0053
N3E N -0.1831(9) 0.8268(12) 0.0055(6)
N3G N 0.1831(9) 0.8268(12) 0.4945(6)
Cu1_2 Cu -0.5000 0.72176(17) 0.2500
Cu2E Cu -0.28518(9) 1.22765(18) 0.03997(9)
Cu2E_2 Cu 0.71482(9) 0.22765(18) 0.03997(9)
Cu2G Cu 0.28518(9) 0.22765(18) 0.46003(9)
Cu2G_2 Cu 0.28518(9) 1.22765(18) 0.46003(9)
N4B_2 N 0.5689(5) 0.7234(8) 0.2732(7)
N10E N -0.1649(8) 0.6621(12) 0.0044(6)
N10G N 0.1649(8) 0.6621(12) 0.4956(6)
loop_
_geom_bond_atom_site_label_1
_geom_bond_atom_site_label_2
_geom_bond_site_symmetry_1
_geom_bond_site_symmetry_2
C1 H1 1_555 1_555
H2 C1 1_555 1_555
C2 H3 1_555 1_555
H4 C2 1_555 1_555
C3 C2 1_555 1_555
H5 C3 1_555 1_555
H6 C3 1_555 1_555
C4 H7 1_555 1_555
C5 H8 1_555 1_555
C6 H9 1_555 1_555
H10 C6 1_555 1_555
N1 C7 1_555 1_555
N2 C7 1_555 1_555
C7 H11 1_555 1_555
N3 C4 1_555 1_555
C8 N2 1_555 1_555
H12 C8 1_555 1_555
C9 N2 1_555 1_555
H13 C9 1_555 1_555
H14 C9 1_555 1_555
C10 C9 1_555 1_555
H15 C10 1_555 1_555
H16 C10 1_555 1_555
C11 C1 1_555 1_555
H17 C11 1_555 1_555
H18 C11 1_555 1_555
W1 O4 1_555 1_555
W2 O5 1_555 1_555
W3 O1 1_555 1_555
W4 O3 1_555 1_555
W5 O7 1_555 1_555
W6 O2 1_555 1_555
W7 O1 1_555 1_555
W8 O6 1_555 1_555
W9 O2 1_555 1_555
P1 O5 1_555 1_555
O3 W6 1_555 1_555
O4 W5B 1_555 1_555
O5 W4B 1_555 1_555
O6 W5B 1_555 1_555
O7 P1 1_555 1_555
O8 P1 1_555 1_555
O9 W7 1_555 1_555
O10 W4 1_555 1_555
O11 W1 1_555 1_555
O12 W8 1_555 1_555
O13 W2 1_555 1_555
O14 W1 1_555 1_555
O15 W1 1_555 1_555
O16 W8 1_555 1_555
O17 W2 1_555 1_555
O18 W4 1_555 1_555
O19 W5 1_555 1_555
O20 W3 1_555 1_555
O21 P1 1_555 1_555
O22 W6 1_555 1_555
O23 W4 1_555 1_555
O24 W5 1_555 1_555
O25 W9 1_555 1_555
O26 W7 1_555 1_555
O27 W8 1_555 1_555
O28 W2 1_555 1_555
O29 W3 1_555 1_555
O30 W1 1_555 1_555
O31 W7 1_555 1_555
Cu1 N4 1_555 1_555
Cu2 N1 1_555 1_555
N4 C13 1_555 1_555
N5 Cu2 1_555 1_555
N6 Cu1 1_555 1_555
N7 C13 1_555 1_555
N8 C12 1_555 1_555
C12 N5 1_555 1_555
H19 C12 1_555 1_555
C13 H20 1_555 1_555
C14 N8 1_555 1_555
H21 C14 1_555 1_555
C15 N7 1_555 1_555
H22 C15 1_555 1_555
C16 H23 1_555 1_555
C17 C10 1_555 1_555
H24 C17 1_555 1_555
H25 C17 1_555 1_555
C18 N6 1_555 1_555
H26 C18 1_555 1_555
N9 C3 1_555 1_555
N10 C16 1_555 1_555
C19 N7 1_555 1_555
H27 C19 1_555 1_555
H28 C19 1_555 1_555
C20 N5 1_555 1_555
H29 C20 1_555 1_555
C21 N4 1_555 1_555
H30 C21 1_555 1_555
C22 C1 1_555 1_555
H31 C22 1_555 1_555
H32 C22 1_555 1_555
C23 N6 1_555 1_555
H33 C23 1_555 1_555
N11 C16 1_555 1_555
C24 C11 1_555 1_555
H34 C24 1_555 1_555
H35 C24 1_555 1_555
C25 N9 1_555 1_555
H36 C25 1_555 1_555
C26 N10 1_555 1_555
H37 C26 1_555 1_555
C27 N11 1_555 1_555
H38 C27 1_555 1_555
C28 C5 1_555 1_555
H39 C28 1_555 1_555
N12 C4 1_555 1_555
C29 C2 1_555 1_555
H40 C29 1_555 1_555
H41 C29 1_555 1_555
C30 N1 1_555 1_555
H42 C30 1_555 1_555
C1B H1B 1_555 1_555
H2B C1B 1_555 1_555
N1B C7B 1_555 1_555
N2B C7B 1_555 1_555
C7B H11B 1_555 1_555
C8B N2B 1_555 1_555
H12B C8B 1_555 1_555
C9B N2B 1_555 1_555
H13B C9B 1_555 1_555
H14B C9B 1_555 1_555
C10B C9B 1_555 1_555
H15B C10B 1_555 1_555
H16B C10B 1_555 1_555
C11B C1B 1_555 1_555
H17B C11B 1_555 1_555
H18B C11B 1_555 1_555
W1B O7 1_555 1_555
W2B O12 1_555 1_555
W3B O14 1_555 1_555
W4B O3B 1_555 1_555
W5B O7B 1_555 1_555
W6B O21 1_555 1_555
W7B O8 1_555 1_555
W8B O8 1_555 1_555
W9B O8 1_555 1_555
P1B O5B 1_555 1_555
O1B W3B 1_555 1_555
O2B W6B 1_555 1_555
O3B W6B 1_555 1_555
O4B W5 1_555 1_555
O5B W4 1_555 1_555
O6B W5 1_555 1_555
O7B W1 1_555 1_555
O8B W7 1_555 1_555
O9B W7B 1_555 1_555
O10B W4B 1_555 1_555
O11B W1B 1_555 1_555
O12B W2 1_555 1_555
O13B W2B 1_555 1_555
O14B W3 1_555 1_555
O15B W1B 1_555 1_555
O16B W8B 1_555 1_555
O17B W2B 1_555 1_555
O18B W2 1_555 1_555
O19B W5B 1_555 1_555
O20B W3B 1_555 1_555
O21B W3 1_555 1_555
O22B W6B 1_555 1_555
O23B W4B 1_555 1_555
O24B W5B 1_555 1_555
O25B W9B 1_555 1_555
O26B W7B 1_555 1_555
O27B W8B 1_555 1_555
O28B W2B 1_555 1_555
O29B W3B 1_555 1_555
O30B W1B 1_555 1_555
O31B W7B 1_555 1_555
Cu2B N1B 1_555 1_555
N4B C13B 1_555 1_555
N5B Cu2B 1_555 1_555
N7B C13B 1_555 1_555
N8B C12B 1_555 1_555
C12B N5B 1_555 1_555
H19B C12B 1_555 1_555
C13B H20B 1_555 1_555
C14B N8B 1_555 1_555
H21B C14B 1_555 1_555
C15B N7B 1_555 1_555
H22B C15B 1_555 1_555
C16B H23B 1_555 1_555
C17B C10B 1_555 1_555
H24B C17B 1_555 1_555
H25B C17B 1_555 1_555
N10B C16B 1_555 1_555
C19B N7B 1_555 1_555
H27B C19B 1_555 1_555
H28B C19B 1_555 1_555
C20B N5B 1_555 1_555
H29B C20B 1_555 1_555
C21B N4B 1_555 1_555
H30B C21B 1_555 1_555
C22B C1B 1_555 1_555
H31B C22B 1_555 1_555
H32B C22B 1_555 1_555
N11B C16B 1_555 1_555
C24B C11B 1_555 1_555
H34B C24B 1_555 1_555
H35B C24B 1_555 1_555
C26B N10B 1_555 1_555
H37B C26B 1_555 1_555
C27B N11B 1_555 1_555
H38B C27B 1_555 1_555
C30B N1B 1_555 1_555
H42B C30B 1_555 1_555
C2B H3B 1_555 1_555
H4B C2B 1_555 1_555
C3B C2B 1_555 1_555
H5B C3B 1_555 1_555
H6B C3B 1_555 1_555
C4B H7B 1_555 1_555
C5B H8B 1_555 1_555
C6B H9B 1_555 1_555
H10B C6B 1_555 1_555
N3B C4B 1_555 1_555
N6B Cu1 1_555 1_555
C18B N6B 1_555 1_555
H26B C18B 1_555 1_555
N9B C3B 1_555 1_555
C23B N6B 1_555 1_555
H33B C23B 1_555 1_555
C25B N9B 1_555 1_555
H36B C25B 1_555 1_555
C28B C5B 1_555 1_555
H39B C28B 1_555 1_555
N12B C4B 1_555 1_555
C29B C2B 1_555 1_555
H40B C29B 1_555 1_555
H41B C29B 1_555 1_555
N3E Cu2B 1_555 1_555
N3G Cu2 1_555 1_555
Cu1_2 N4B 1_555 1_555
Cu2E N10B 1_555 1_555
Cu2E_2 N3B 1_555 1_555
Cu2G N3 1_555 1_555
Cu2G_2 N10 1_555 1_555
N4B_2 Cu1 1_555 1_555
N10E Cu2B 1_555 1_555
N10G Cu2 1_555 1_555
C5 N12 1_555 1_555
C6 N12 1_555 1_555
C6 C29 1_555 1_555
N3 C28 1_555 1_555
C8 C30 1_555 1_555
W3 O15 1_555 1_555
W4 O17 1_555 1_555
W5 O13 1_555 1_555
W6 O19 1_555 1_555
W6 O20 1_555 1_555
W6 O21B 1_555 1_555
W7 O11 1_555 1_555
W8 O9 1_555 1_555
W8 O8B 1_555 1_555
W9 O10 1_555 1_555
W9 O16 1_555 1_555
W9 O26 1_555 1_555
W9 O8B 1_555 1_555
O18 W2B 1_555 1_555
O21 W3B 1_555 1_555
O22 Cu2 1_555 1_555
N8 C22 1_555 1_555
C14 C20 1_555 1_555
C15 C21 1_555 1_555
C17 C19 1_555 1_555
C18 N9 1_555 1_555
C23 C25 1_555 1_555
N11 C24 1_555 1_555
C26 C27 1_555 1_555
C8B C30B 1_555 1_555
W1B O4B 1_555 1_555
W1B O14B 1_555 1_555
W2B O5B 1_555 1_555
W3B O15B 1_555 1_555
W4B O17B 1_555 1_555
W4B O18B 1_555 1_555
W5B O13B 1_555 1_555
W6B O19B 1_555 1_555
W6B O20B 1_555 1_555
W7B O1B 1_555 1_555
W7B O11B 1_555 1_555
W8B O6B 1_555 1_555
W8B O9B 1_555 1_555
W8B O12B 1_555 1_555
W9B O2B 1_555 1_555
W9B O10B 1_555 1_555
W9B O16B 1_555 1_555
W9B O26B 1_555 1_555
P1B O7B 1_555 1_555
P1B O8B 1_555 1_555
P1B O21B 1_555 1_555
O22B Cu2B 1_555 1_555
N8B C22B 1_555 1_555
C14B C20B 1_555 1_555
C15B C21B 1_555 1_555
C17B C19B 1_555 1_555
N11B C24B 1_555 1_555
C26B C27B 1_555 1_555
C5B N12B 1_555 1_555
C6B N12B 1_555 1_555
C6B C29B 1_555 1_555
N3B C28B 1_555 1_555
C18B N9B 1_555 1_555
C23B C25B 1_555 1_555

#END
