
#######################################################################
#
#                 Cambridge Crystallographic Data Centre
#                                CCDC 
#
#######################################################################
#
# If this CIF has been generated from an entry in the Cambridge 
# Structural Database, then it will include bibliographic, chemical, 
# crystal, experimental, refinement or atomic coordinate data resulting 
# from the CCDC's data processing and validation procedures.
#
#######################################################################

data_GEWPOP
_symmetry_cell_setting           monoclinic
_symmetry_space_group_name_H-M   'C 2/c'
_symmetry_Int_Tables_number      15
_space_group_name_Hall           '-C 2yn'
loop_
_symmetry_equiv_pos_site_id
_symmetry_equiv_pos_as_xyz
1 x,y,z
2 -x,y,1/2-z
3 1/2+x,1/2+y,z
4 1/2-x,1/2+y,1/2-z
5 -x,-y,-z
6 x,-y,1/2+z
7 1/2-x,1/2-y,-z
8 1/2+x,1/2-y,1/2+z
_cell_length_a                   16.225(5)
_cell_length_b                   18.445(5)
_cell_length_c                   16.083(5)
_cell_angle_alpha                90
_cell_angle_beta                 108.718(5)
_cell_angle_gamma                90
_cell_volume                     4558.59
loop_
_atom_site_label
_atom_site_type_symbol
_atom_site_fract_x
_atom_site_fract_y
_atom_site_fract_z
C1 C 0.4669(5) 0.2616(4) 0.0932(6)
H1 H 0.4522 0.2381 0.1376
N1 N 0.5428(4) 0.2537(3) 0.0800(4)
O1 O 0.5859(3) 0.0977(3) 0.0645(4)
Co1 Co 0.64828(7) 0.19239(5) 0.14955(7)
C2 C 0.4560(5) 0.3325(4) -0.0204(6)
N2 N 0.4128(4) 0.3073(3) 0.0353(5)
O2 O 0.6996(3) 0.1542(3) 0.0541(3)
C3 C 0.5379(5) 0.2986(4) 0.0091(5)
O3 O 0.6028(3) -0.1572(3) -0.2512(3)
C4 C 0.6000(5) 0.3143(4) -0.0313(5)
H2 H 0.6549 0.2933 -0.0116
O4 O 0.7304(3) -0.1142(3) -0.2488(4)
C5 C 0.5779(6) 0.3617(5) -0.1010(6)
H3 H 0.6185 0.3734 -0.1285
N3 N 0.7299(4) 0.2761(3) 0.2112(4)
C6 C 0.4945(6) 0.3923(5) -0.1308(6)
H4 H 0.4799 0.4225 -0.1797
N4 N 0.8547(4) 0.3248(3) 0.2958(4)
C7 C 0.4336(6) 0.3788(5) -0.0896(6)
H5 H 0.3791 0.4007 -0.1085
C8 C 0.3277(5) 0.3324(4) 0.0373(6)
H6 H 0.3189 0.3820 0.0161
H7 H 0.3279 0.3325 0.0977
C9 C 0.2520(5) 0.2866(4) -0.0173(7)
H8 H 0.1982 0.3117 -0.0217
H9 H 0.2555 0.2824 -0.0762
C10 C 0.8145(5) 0.2688(4) 0.2458(6)
H10 H 0.8442 0.2281 0.2365
C11 C 0.7118(5) 0.3432(4) 0.2440(5)
C12 C 0.7910(5) 0.3743(4) 0.2973(5)
C13 C 0.7926(5) 0.4389(4) 0.3384(5)
H11 H 0.8450 0.4589 0.3731
C14 C 0.7146(6) 0.4741(4) 0.3274(6)
H12 H 0.7136 0.5179 0.3557
C15 C 0.6388(6) 0.4441(4) 0.2743(6)
H13 H 0.5872 0.4692 0.2670
C16 C 0.6341(5) 0.3791(4) 0.2313(6)
H14 H 0.5814 0.3604 0.1956
C17 C 0.9490(5) 0.3346(5) 0.3440(6)
H15 H 0.9567 0.3790 0.3779
H16 H 0.9686 0.2948 0.3850
C18 C 1.0022(7) 0.3377(7) 0.2896(6)
H17 H 1.0358 0.3813 0.3110
H18 H 1.0424 0.2982 0.3128
C19 C 0.6497(5) 0.0495(4) -0.0372(5)
C20 C 0.5847(5) -0.0023(4) -0.0670(6)
H19 H 0.5372 -0.0022 -0.0465
C21 C 0.5905(5) -0.0532(4) -0.1263(5)
H20 H 0.5467 -0.0877 -0.1454
C22 C 0.6594(5) -0.0552(4) -0.1588(5)
C23 C 0.7236(5) -0.0025(4) -0.1298(5)
H21 H 0.7710 -0.0026 -0.1504
C24 C 0.7177(5) 0.0501(4) -0.0705(5)
H22 H 0.7600 0.0860 -0.0531
C25 C 0.6434(5) 0.1035(4) 0.0293(5)
C26 C 0.6653(5) -0.1123(4) -0.2223(5)
C1F C 0.0331(5) 0.2384(4) -0.0932(6)
H1F H 0.0478 0.2619 -0.1376
N1F N -0.0428(4) 0.2463(3) -0.0800(4)
C2F C 0.0440(5) 0.1675(4) 0.0204(6)
N2F N 0.0872(4) 0.1927(3) -0.0353(5)
C3F C -0.0379(5) 0.2014(4) -0.0091(5)
C4F C -0.1000(5) 0.1857(4) 0.0313(5)
H2F H -0.1549 0.2067 0.0116
C5F C -0.0779(6) 0.1383(5) 0.1010(6)
H3F H -0.1185 0.1266 0.1285
C6F C 0.0055(6) 0.1077(5) 0.1308(6)
H4F H 0.0201 0.0775 0.1797
C7F C 0.0664(6) 0.1212(5) 0.0896(6)
H5F H 0.1209 0.0993 0.1085
C8F C 0.1723(5) 0.1676(4) -0.0373(6)
H6F H 0.1811 0.1180 -0.0161
H7F H 0.1721 0.1675 -0.0977
C9F C 0.2480(5) 0.2134(4) 0.0173(7)
H8F H 0.3018 0.1883 0.0217
H9F H 0.2445 0.2176 0.0762
N3A N 1.2701(4) 0.2761(3) 0.2888(4)
N4A N 1.1453(4) 0.3248(3) 0.2042(4)
C10A C 1.1855(5) 0.2688(4) 0.2542(6)
H10A H 1.1558 0.2281 0.2635
C11A C 1.2882(5) 0.3432(4) 0.2560(5)
C12A C 1.2090(5) 0.3743(4) 0.2027(5)
C13A C 1.2074(5) 0.4389(4) 0.1616(5)
H11A H 1.1550 0.4589 0.1269
C14A C 1.2854(6) 0.4741(4) 0.1726(6)
H12A H 1.2864 0.5179 0.1443
C15A C 1.3612(6) 0.4441(4) 0.2257(6)
H13A H 1.4128 0.4692 0.2330
C16A C 1.3659(5) 0.3791(4) 0.2687(6)
H14A H 1.4186 0.3604 0.3044
C17A C 1.0510(5) 0.3346(5) 0.1560(6)
H15A H 1.0433 0.3790 0.1221
H16A H 1.0314 0.2948 0.1150
C18A C 0.9978(7) 0.3377(7) 0.2104(6)
H17A H 0.9642 0.3813 0.1890
H18A H 0.9576 0.2982 0.1872
O1A O 1.4141(3) 0.0977(3) 0.4355(4)
Co1A Co 1.35172(7) 0.19239(5) 0.35045(7)
O2A O 1.3004(3) 0.1542(3) 0.4459(3)
O3A O 1.3972(3) -0.1572(3) 0.7512(3)
O4A O 1.2696(3) -0.1142(3) 0.7488(4)
C19A C 1.3503(5) 0.0495(4) 0.5372(5)
C20A C 1.4153(5) -0.0023(4) 0.5670(6)
H19A H 1.4628 -0.0022 0.5465
C21A C 1.4095(5) -0.0532(4) 0.6263(5)
H20A H 1.4533 -0.0877 0.6454
C22A C 1.3406(5) -0.0552(4) 0.6588(5)
C23A C 1.2764(5) -0.0025(4) 0.6298(5)
H21A H 1.2290 -0.0026 0.6504
C24A C 1.2823(5) 0.0501(4) 0.5705(5)
H22A H 1.2400 0.0860 0.5531
C25A C 1.3566(5) 0.1035(4) 0.4707(5)
C26A C 1.3347(5) -0.1123(4) 0.7223(5)
N1A N 1.4572(4) 0.2537(3) 0.4200(4)
Co1D Co 1.35172(7) -0.19239(5) 0.85045(7)
Co1E Co 0.64828(7) -0.19239(5) -0.35045(7)
Co1F Co -0.14828(7) 0.30761(5) -0.14955(7)
O3D O 1.3972(3) 0.1572(3) 0.2512(3)
O3E O 0.6028(3) 0.1572(3) 0.2488(3)
O4D O 1.2696(3) 0.1142(3) 0.2488(4)
O4E O 0.7304(3) 0.1142(3) 0.2512(4)
loop_
_geom_bond_atom_site_label_1
_geom_bond_atom_site_label_2
_geom_bond_site_symmetry_1
_geom_bond_site_symmetry_2
C1 H1 1_555 1_555
N1 C1 1_555 1_555
O1 Co1 1_555 1_555
Co1 N1 1_555 1_555
C2 N2 1_555 1_555
N2 C1 1_555 1_555
O2 Co1 1_555 1_555
C3 N1 1_555 1_555
O3 C26 1_555 1_555
C4 C3 1_555 1_555
H2 C4 1_555 1_555
O4 C26 1_555 1_555
C5 C4 1_555 1_555
H3 C5 1_555 1_555
N3 Co1 1_555 1_555
C6 C5 1_555 1_555
H4 C6 1_555 1_555
N4 C10 1_555 1_555
C7 C2 1_555 1_555
H5 C7 1_555 1_555
C8 N2 1_555 1_555
H6 C8 1_555 1_555
H7 C8 1_555 1_555
C9 C8 1_555 1_555
H8 C9 1_555 1_555
H9 C9 1_555 1_555
C10 N3 1_555 1_555
H10 C10 1_555 1_555
C11 N3 1_555 1_555
C12 N4 1_555 1_555
C13 C12 1_555 1_555
H11 C13 1_555 1_555
C14 C13 1_555 1_555
H12 C14 1_555 1_555
C15 C14 1_555 1_555
H13 C15 1_555 1_555
C16 C11 1_555 1_555
H14 C16 1_555 1_555
C17 N4 1_555 1_555
H15 C17 1_555 1_555
H16 C17 1_555 1_555
C18 C17 1_555 1_555
H17 C18 1_555 1_555
H18 C18 1_555 1_555
C19 C20 1_555 1_555
C20 H19 1_555 1_555
C21 C20 1_555 1_555
H20 C21 1_555 1_555
C22 C21 1_555 1_555
C23 C22 1_555 1_555
H21 C23 1_555 1_555
C24 C19 1_555 1_555
H22 C24 1_555 1_555
C25 O1 1_555 1_555
C26 C22 1_555 1_555
C1F H1F 1_555 1_555
N1F C1F 1_555 1_555
C2F N2F 1_555 1_555
N2F C1F 1_555 1_555
C3F N1F 1_555 1_555
C4F C3F 1_555 1_555
H2F C4F 1_555 1_555
C5F C4F 1_555 1_555
H3F C5F 1_555 1_555
C6F C5F 1_555 1_555
H4F C6F 1_555 1_555
C7F C2F 1_555 1_555
H5F C7F 1_555 1_555
C8F N2F 1_555 1_555
H6F C8F 1_555 1_555
H7F C8F 1_555 1_555
C9F C9 1_555 1_555
H8F C9F 1_555 1_555
H9F C9F 1_555 1_555
N3A C10A 1_555 1_555
N4A C10A 1_555 1_555
C10A H10A 1_555 1_555
C11A N3A 1_555 1_555
C12A N4A 1_555 1_555
C13A C12A 1_555 1_555
H11A C13A 1_555 1_555
C14A C13A 1_555 1_555
H12A C14A 1_555 1_555
C15A C14A 1_555 1_555
H13A C15A 1_555 1_555
C16A C11A 1_555 1_555
H14A C16A 1_555 1_555
C17A N4A 1_555 1_555
H15A C17A 1_555 1_555
H16A C17A 1_555 1_555
C18A C18 1_555 1_555
H17A C18A 1_555 1_555
H18A C18A 1_555 1_555
O1A Co1A 1_555 1_555
Co1A N3A 1_555 1_555
O2A Co1A 1_555 1_555
O3A C26A 1_555 1_555
O4A C26A 1_555 1_555
C19A C20A 1_555 1_555
C20A H19A 1_555 1_555
C21A C20A 1_555 1_555
H20A C21A 1_555 1_555
C22A C21A 1_555 1_555
C23A C22A 1_555 1_555
H21A C23A 1_555 1_555
C24A C19A 1_555 1_555
H22A C24A 1_555 1_555
C25A O1A 1_555 1_555
C26A C22A 1_555 1_555
N1A Co1A 1_555 1_555
Co1D O3A 1_555 1_555
Co1E O3 1_555 1_555
Co1F N1F 1_555 1_555
O3D Co1A 1_555 1_555
O3E Co1 1_555 1_555
O4D Co1A 1_555 1_555
O4E Co1 1_555 1_555
C2 C3 1_555 1_555
O2 C25 1_555 1_555
O4 Co1E 1_555 1_555
C6 C7 1_555 1_555
C11 C12 1_555 1_555
C15 C16 1_555 1_555
C19 C25 1_555 1_555
C23 C24 1_555 1_555
C2F C3F 1_555 1_555
C6F C7F 1_555 1_555
C8F C9F 1_555 1_555
C11A C12A 1_555 1_555
C15A C16A 1_555 1_555
C17A C18A 1_555 1_555
O2A C25A 1_555 1_555
O4A Co1D 1_555 1_555
C19A C25A 1_555 1_555
C23A C24A 1_555 1_555

#END
