
#######################################################################
#
#                 Cambridge Crystallographic Data Centre
#                                CCDC 
#
#######################################################################
#
# If this CIF has been generated from an entry in the Cambridge 
# Structural Database, then it will include bibliographic, chemical, 
# crystal, experimental, refinement or atomic coordinate data resulting 
# from the CCDC's data processing and validation procedures.
#
#######################################################################

data_GEWQAA
_symmetry_cell_setting           monoclinic
_symmetry_space_group_name_H-M   'P 21/n'
_symmetry_Int_Tables_number      14
_space_group_name_Hall           '-P 2yn'
loop_
_symmetry_equiv_pos_site_id
_symmetry_equiv_pos_as_xyz
1 x,y,z
2 1/2-x,1/2+y,1/2-z
3 -x,-y,-z
4 1/2+x,1/2-y,1/2+z
_cell_length_a                   8.942(2)
_cell_length_b                   12.835(5)
_cell_length_c                   12.222(3)
_cell_angle_alpha                90
_cell_angle_beta                 92.33(2)
_cell_angle_gamma                90
_cell_volume                     1401.57
loop_
_atom_site_label
_atom_site_type_symbol
_atom_site_fract_x
_atom_site_fract_y
_atom_site_fract_z
Cd1 Cd 1.00356(3) 0.27063(2) -0.36674(2)
Cd2 Cd 0.5000 0.5000 -0.5000
N1 N 1.0075(4) 0.1167(3) -0.1466(3)
C1 C 1.0086(5) 0.1706(3) -0.2202(3)
N2 N 0.6819(4) 0.4028(3) -0.3988(3)
C2 C 0.7904(5) 0.3603(3) -0.3834(3)
N3 N 0.1909(4) 0.9046(3) -0.0746(3)
C3 C 0.2929(5) 0.8598(4) -0.0994(3)
N4 N 0.5184(4) 0.6679(3) 0.0148(3)
C4 C 0.6378(6) 0.6025(5) 0.0406(5)
N5 N 0.6186(7) 0.5594(5) 0.1417(5)
C5 C 0.4902(6) 0.5979(5) 0.1755(4)
C6 C 0.4306(6) 0.6636(5) 0.0988(4)
Cd2A Cd 1.0000 0.0000 0.0000
N1A N 0.4925(4) 0.6167(3) -0.3534(3)
C1A C 0.4914(5) 0.6706(3) -0.2798(3)
Cd1A Cd 0.49644(3) 0.77063(2) -0.13326(2)
C2A C 0.7096(5) 0.8603(3) -0.1166(3)
Cd2A_2 Cd 0.0000 1.0000 0.0000
Cd1B Cd -0.00356(3) 0.72937(2) -0.63326(2)
C2B C 0.2096(5) 0.6397(3) -0.6166(3)
N2B N 0.3181(4) 0.5972(3) -0.6012(3)
N1C N 0.5075(4) 0.3833(3) -0.6466(3)
C1C C 0.5086(5) 0.3294(3) -0.7202(3)
Cd1C Cd 0.50356(3) 0.22937(2) -0.86674(2)
N3A N 0.3091(4) 0.4046(3) -0.4254(3)
N3C N 0.6909(4) 0.5954(3) -0.5746(3)
C3A C 1.2071(5) 0.3598(4) -0.4006(3)
N4A N 0.9816(4) 0.1679(3) -0.5148(3)
C4A C 0.8622(6) 0.1025(5) -0.5406(5)
N5A N 0.8814(7) 0.0594(5) -0.6417(5)
C5A C 1.0098(6) 0.0979(5) -0.6755(4)
C6A C 1.0694(6) 0.1636(5) -0.5988(4)
C7 C 0.0045(7) -0.5545(5) -0.8988(6)
C8 C 0.0414(8) -0.4482(6) -0.9051(6)
C9 C -0.0356(7) -0.6052(5) -0.9969(6)
C10 C 0.009(1) -0.6126(8) -0.7899(7)
C9B C 0.0356(7) -0.3948(5) -1.0031(6)
C7B C -0.0045(7) -0.4455(5) -1.1012(6)
C8B C -0.0414(8) -0.5518(6) -1.0949(6)
C10B C -0.009(1) -0.3874(8) -1.2101(7)
loop_
_geom_bond_atom_site_label_1
_geom_bond_atom_site_label_2
_geom_bond_site_symmetry_1
_geom_bond_site_symmetry_2
Cd1 C1 1_555 1_555
Cd2 N2 1_555 1_555
N1 C1 1_555 1_555
N2 C2 1_555 1_555
C2 Cd1 1_555 1_555
N3 C3 1_555 1_555
C3 Cd1A 1_555 1_555
N4 C4 1_555 1_555
C4 N5 1_555 1_555
N5 C5 1_555 1_555
C5 C6 1_555 1_555
C6 N4 1_555 1_555
C7 C8 1_555 1_555
C8 C9B 1_555 1_555
C9 C7 1_555 1_555
C10 C7 1_555 1_555
Cd2A N1 1_555 1_555
N1A Cd2 1_555 1_555
C1A N1A 1_555 1_555
Cd1A N4 1_555 1_555
C2A Cd1A 1_555 1_555
Cd2A_2 N3 1_555 1_555
Cd1B C2B 1_555 1_555
C2B N2B 1_555 1_555
N2B Cd2 1_555 1_555
N1C Cd2 1_555 1_555
C1C N1C 1_555 1_555
Cd1C C1C 1_555 1_555
N3A Cd2 1_555 1_555
N3C Cd2 1_555 1_555
C3A Cd1 1_555 1_555
N4A Cd1 1_555 1_555
C4A N4A 1_555 1_555
N5A C4A 1_555 1_555
C5A N5A 1_555 1_555
C6A N4A 1_555 1_555
C9B C7B 1_555 1_555
C7B C8B 1_555 1_555
C8B C9 1_555 1_555
C10B C7B 1_555 1_555
C1A Cd1A 1_555 1_555
C5A C6A 1_555 1_555

#END
