
#######################################################################
#
#                 Cambridge Crystallographic Data Centre
#                                CCDC 
#
#######################################################################
#
# If this CIF has been generated from an entry in the Cambridge 
# Structural Database, then it will include bibliographic, chemical, 
# crystal, experimental, refinement or atomic coordinate data resulting 
# from the CCDC's data processing and validation procedures.
#
#######################################################################

data_GEWTEJ
_symmetry_cell_setting           triclinic
_symmetry_space_group_name_H-M   'P -1'
_symmetry_Int_Tables_number      2
_space_group_name_Hall           '-P 1'
loop_
_symmetry_equiv_pos_site_id
_symmetry_equiv_pos_as_xyz
1 x,y,z
2 -x,-y,-z
_cell_length_a                   5.8945(3)
_cell_length_b                   10.3129(5)
_cell_length_c                   11.2226(5)
_cell_angle_alpha                95.1430(10)
_cell_angle_beta                 97.9020(10)
_cell_angle_gamma                90.5910(10)
_cell_volume                     672.839
loop_
_atom_site_label
_atom_site_type_symbol
_atom_site_fract_x
_atom_site_fract_y
_atom_site_fract_z
Cd1 Cd 0.69121(3) 0.040034(15) 0.151046(17)
S1 S 0.72757(9) -0.46011(5) 0.14957(6)
C1 C 0.4665(6) 0.1984(3) 0.3600(3)
H1 H 0.3589 0.2276 0.3004
C2 C 0.7367(10) 0.0965(5) 0.4483(4)
H2 H 0.8570 0.0398 0.4624
C3 C 0.6532(11) 0.1746(5) 0.5339(4)
H3 H 0.7048 0.1821 0.6164
C4 C 0.3431(9) 0.3408(4) 0.5306(4)
H4 H 0.3228 0.3202 0.6112
H5 H 0.1927 0.3398 0.4829
C5 C 0.4449(14) 0.4725(5) 0.5385(7)
H6 H 0.3203 0.5305 0.5515
H7 H 0.5492 0.4805 0.6137
C6 C 0.8581(4) -0.2021(2) 0.1715(2)
C7 C 0.9320(4) -0.3387(2) 0.1632(2)
C8 C 1.1463(4) -0.3871(2) 0.1590(2)
H8 H 1.2777 -0.3354 0.1625
C9 C 1.1450(4) -0.5247(2) 0.1485(2)
H9 H 1.2759 -0.5738 0.1459
C10 C 0.9303(4) -0.5773(2) 0.1428(2)
C11 C 0.8540(4) -0.7160(2) 0.1313(2)
N1 N 0.6194(5) 0.1131(2) 0.3388(2)
N2 N 0.4807(6) 0.2395(3) 0.4767(2)
O1 O 0.6496(3) -0.18117(17) 0.17349(19)
O2 O 1.0039(3) -0.11097(16) 0.17616(18)
O3 O 0.6433(3) -0.74134(17) 0.11300(19)
O4 O 1.0032(3) -0.80245(16) 0.14407(18)
O5 O 0.2989(3) 0.01778(15) 0.06430(15)
H10 H 0.2174 0.0872 0.0797
H11 H 0.2289 -0.0412 0.1002
C1A C 0.5335(6) 0.8016(3) 0.6400(3)
H1A H 0.6411 0.7724 0.6996
C2A C 0.2633(10) 0.9035(5) 0.5517(4)
H2A H 0.1430 0.9602 0.5376
C3A C 0.3468(11) 0.8254(5) 0.4661(4)
H3A H 0.2952 0.8179 0.3836
C4A C 0.6569(9) 0.6592(4) 0.4694(4)
H4A H 0.6772 0.6798 0.3888
H5A H 0.8073 0.6602 0.5171
C5A C 0.5551(14) 0.5275(5) 0.4615(7)
H6A H 0.6797 0.4695 0.4485
H7A H 0.4508 0.5195 0.3863
N1A N 0.3806(5) 0.8869(2) 0.6612(2)
N2A N 0.5193(6) 0.7605(3) 0.5233(2)
Cd1A Cd 0.30879(3) -0.040034(15) -0.151046(17)
S1A S 0.27243(9) 0.46011(5) -0.14957(6)
C6A C 0.1419(4) 0.2021(2) -0.1715(2)
C7A C 0.0680(4) 0.3387(2) -0.1632(2)
C8A C -0.1463(4) 0.3871(2) -0.1590(2)
H8A H -0.2777 0.3354 -0.1625
C9A C -0.1450(4) 0.5247(2) -0.1485(2)
H9A H -0.2759 0.5738 -0.1459
C10A C 0.0697(4) 0.5773(2) -0.1428(2)
C11A C 0.1460(4) 0.7160(2) -0.1313(2)
O1A O 0.3504(3) 0.18117(17) -0.17349(19)
O2A O -0.0039(3) 0.11097(16) -0.17616(18)
O3A O 0.3567(3) 0.74134(17) -0.11300(19)
O4A O -0.0032(3) 0.80245(16) -0.14407(18)
O5A O 0.7011(3) -0.01778(15) -0.06430(15)
H10A H 0.7826 -0.0872 -0.0797
H11A H 0.7711 0.0412 -0.1002
Cd1_2 Cd 0.69121(3) -0.959966(15) 0.151046(17)
Cd1A_2 Cd 0.30879(3) 0.959966(15) -0.151046(17)
Cd1A_3 Cd 0.30879(3) 0.959966(15) 0.848954(17)
N1A_2 N 0.3806(5) -0.1131(2) -0.3388(2)
O3_2 O 0.6433(3) 0.25866(17) 0.11300(19)
O3A_2 O 0.3567(3) -0.25866(17) -0.11300(19)
O4_2 O 1.0032(3) 0.19755(16) 0.14407(18)
O4A_2 O -0.0032(3) -0.19755(16) -0.14407(18)
loop_
_geom_bond_atom_site_label_1
_geom_bond_atom_site_label_2
_geom_bond_site_symmetry_1
_geom_bond_site_symmetry_2
Cd1 N1 1_555 1_555
S1 C7 1_555 1_555
C1 H1 1_555 1_555
C2 H2 1_555 1_555
C3 C2 1_555 1_555
H3 C3 1_555 1_555
C4 H4 1_555 1_555
H5 C4 1_555 1_555
C5 C4 1_555 1_555
H6 C5 1_555 1_555
H7 C5 1_555 1_555
C6 C7 1_555 1_555
C7 C8 1_555 1_555
C8 H8 1_555 1_555
C9 C8 1_555 1_555
H9 C9 1_555 1_555
C10 S1 1_555 1_555
C11 C10 1_555 1_555
N1 C1 1_555 1_555
N2 C1 1_555 1_555
O1 Cd1 1_555 1_555
O2 Cd1 1_555 1_555
O3 C11 1_555 1_555
O4 C11 1_555 1_555
O5 Cd1 1_555 1_555
H10 O5 1_555 1_555
H11 O5 1_555 1_555
C1A H1A 1_555 1_555
C2A H2A 1_555 1_555
C3A C2A 1_555 1_555
H3A C3A 1_555 1_555
C4A H4A 1_555 1_555
H5A C4A 1_555 1_555
C5A C5 1_555 1_555
H6A C5A 1_555 1_555
H7A C5A 1_555 1_555
N1A C1A 1_555 1_555
N2A C1A 1_555 1_555
Cd1A O5 1_555 1_555
S1A C7A 1_555 1_555
C6A C7A 1_555 1_555
C7A C8A 1_555 1_555
C8A H8A 1_555 1_555
C9A C8A 1_555 1_555
H9A C9A 1_555 1_555
C10A S1A 1_555 1_555
C11A C10A 1_555 1_555
O1A Cd1A 1_555 1_555
O2A Cd1A 1_555 1_555
O3A C11A 1_555 1_555
O4A C11A 1_555 1_555
O5A Cd1 1_555 1_555
H10A O5A 1_555 1_555
H11A O5A 1_555 1_555
Cd1_2 O3 1_555 1_555
Cd1A_2 O3A 1_555 1_555
Cd1A_3 N1A 1_555 1_555
N1A_2 Cd1A 1_555 1_555
O3_2 Cd1 1_555 1_555
O3A_2 Cd1A 1_555 1_555
O4_2 Cd1 1_555 1_555
O4A_2 Cd1A 1_555 1_555
C2 N1 1_555 1_555
C3 N2 1_555 1_555
C4 N2 1_555 1_555
C6 O1 1_555 1_555
C6 O2 1_555 1_555
C9 C10 1_555 1_555
O4 Cd1_2 1_555 1_555
C2A N1A 1_555 1_555
C3A N2A 1_555 1_555
C4A C5A 1_555 1_555
C4A N2A 1_555 1_555
Cd1A O5A 1_555 1_555
C6A O1A 1_555 1_555
C6A O2A 1_555 1_555
C9A C10A 1_555 1_555
O4A Cd1A_2 1_555 1_555

#END
