
#######################################################################
#
#                 Cambridge Crystallographic Data Centre
#                                CCDC 
#
#######################################################################
#
# If this CIF has been generated from an entry in the Cambridge 
# Structural Database, then it will include bibliographic, chemical, 
# crystal, experimental, refinement or atomic coordinate data resulting 
# from the CCDC's data processing and validation procedures.
#
#######################################################################

data_GEWWUA
_symmetry_cell_setting           tetragonal
_symmetry_space_group_name_H-M   'P 41'
_symmetry_Int_Tables_number      76
_space_group_name_Hall           'P 4w'
loop_
_symmetry_equiv_pos_site_id
_symmetry_equiv_pos_as_xyz
1 x,y,z
2 -y,x,1/4+z
3 -x,-y,1/2+z
4 y,-x,3/4+z
_cell_length_a                   8.071(5)
_cell_length_b                   8.071(5)
_cell_length_c                   21.291(8)
_cell_angle_alpha                90
_cell_angle_beta                 90
_cell_angle_gamma                90
_cell_volume                     1386.92
loop_
_atom_site_label
_atom_site_type_symbol
_atom_site_fract_x
_atom_site_fract_y
_atom_site_fract_z
Cu1 Cu -0.0306(1) -0.0105(2) 0.2621(10)
O1 O 0.0827(8) -0.1430(9) 0.0845(3)
N1 N 0.0745(1) -0.2314(10) 0.2481(4)
C1 C 0.1963(4) -0.4949(14) 0.2738(6)
C2 C 0.1106(11) -0.2590(11) 0.1862(5)
C3 C -0.0702(11) 0.1395(10) 0.1441(4)
C4 C 0.2310(14) -0.5215(13) 0.2096(7)
C5 C 0.0628(11) -0.1265(10) 0.1409(5)
N2 N -0.1302(9) 0.2159(10) 0.2518(3)
O2 O -0.0858(8) 0.1676(10) 0.0875(3)
C6 C -0.1380(12) 0.2613(10) 0.1909(4)
C7 C 0.1177(15) -0.3456(15) 0.2897(6)
N3 N -0.0015(8) 0.0082(8) 0.1717(3)
C8 C -0.2711(15) 0.5156(13) 0.2182(7)
C9 C -0.2101(14) 0.4100(14) 0.1709(6)
C10 C 0.1855(14) -0.4041(14) 0.1660(6)
C11 C -0.2591(16) 0.4689(16) 0.2792(6)
C12 C -0.1862(15) 0.3154(15) 0.2952(6)
H1 H -0.319(11) 0.527(12) 0.3161(46)
H2 H 0.211(11) -0.420(12) 0.1380(51)
H3 H 0.272(12) -0.611(12) 0.1894(48)
H4 H -0.191(12) 0.248(13) 0.3493(50)
H5 H 0.087(12) -0.319(12) 0.3300(53)
H6 H -0.188(15) 0.447(16) 0.1463(68)
H7 H -0.262(27) 0.620(24) 0.1925(96)
O1A O 0.1430(9) 0.0827(8) 0.3345(3)
O2A O -0.1676(10) -0.0858(8) 0.3375(3)
Cu1C Cu -0.0105(2) 0.0306(1) 0.0121(10)
Cl1 Cl -0.4956(3) 0.0237(3) 0.7238(1)
O3 O -0.4457(10) 0.1500(13) 0.7660(5)
O4 O -0.5065(12) -0.1296(14) 0.7573(7)
O5 O -0.6581(9) 0.0619(10) 0.6987(4)
O6 O -0.3813(13) 0.0150(17) 0.6726(6)
loop_
_geom_bond_atom_site_label_1
_geom_bond_atom_site_label_2
_geom_bond_site_symmetry_1
_geom_bond_site_symmetry_2
Cu1 N1 1_555 1_555
O1 C5 1_555 1_555
N1 C2 1_555 1_555
C1 C4 1_555 1_555
C2 C5 1_555 1_555
C3 O2 1_555 1_555
C4 C10 1_555 1_555
C5 N3 1_555 1_555
N2 Cu1 1_555 1_555
O2 Cu1C 1_555 1_555
C6 C3 1_555 1_555
C7 N1 1_555 1_555
N3 Cu1 1_555 1_555
C8 C9 1_555 1_555
C9 C6 1_555 1_555
C10 C2 1_555 1_555
C11 C8 1_555 1_555
C12 N2 1_555 1_555
Cl1 O3 1_555 1_555
O4 Cl1 1_555 1_555
O5 Cl1 1_555 1_555
O6 Cl1 1_555 1_555
H1 C11 1_555 1_555
H2 C10 1_555 1_555
H3 C4 1_555 1_555
H4 C12 1_555 1_555
H5 C7 1_555 1_555
H6 C9 1_555 1_555
H7 C8 1_555 1_555
O1A Cu1 1_555 1_555
O2A Cu1 1_555 1_555
Cu1C O1 1_555 1_555
C1 C7 1_555 1_555
C3 N3 1_555 1_555
N2 C6 1_555 1_555
C11 C12 1_555 1_555

#END
