
#######################################################################
#
#                 Cambridge Crystallographic Data Centre
#                                CCDC 
#
#######################################################################
#
# If this CIF has been generated from an entry in the Cambridge 
# Structural Database, then it will include bibliographic, chemical, 
# crystal, experimental, refinement or atomic coordinate data resulting 
# from the CCDC's data processing and validation procedures.
#
#######################################################################

data_GEWWOW
_symmetry_cell_setting           monoclinic
_symmetry_space_group_name_H-M   'P 21/c'
_symmetry_Int_Tables_number      14
_space_group_name_Hall           '-P 2ybc'
loop_
_symmetry_equiv_pos_site_id
_symmetry_equiv_pos_as_xyz
1 x,y,z
2 -x,1/2+y,1/2-z
3 -x,-y,-z
4 x,1/2-y,1/2+z
_cell_length_a                   9.341(7)
_cell_length_b                   11.677(9)
_cell_length_c                   8.195(6)
_cell_angle_alpha                90
_cell_angle_beta                 93.925(13)
_cell_angle_gamma                90
_cell_volume                     891.772
loop_
_atom_site_label
_atom_site_type_symbol
_atom_site_fract_x
_atom_site_fract_y
_atom_site_fract_z
Cd1 Cd 0.67057(2) 0.062318(18) 0.04838(3)
N1 N 0.7125(3) 0.3177(2) 0.1953(3)
N2 N 0.9017(3) -0.0225(2) 0.1283(3)
N3 N 0.5723(3) -0.1155(2) -0.0277(4)
N4 N 0.6531(3) 0.0285(3) 0.3252(3)
N5 N 0.5949(3) -0.2107(3) 0.0148(4)
C1 C 0.8755(4) -0.0760(3) 0.2877(4)
H1 H 0.9667 -0.0976 0.3428
H2 H 0.8193 -0.1451 0.2684
N6 N 0.6681(4) 0.3924(3) 0.2728(4)
C2 C 0.9480(4) -0.1127(3) 0.0161(4)
H3 H 0.8728 -0.1697 0.0002
H4 H 1.0330 -0.1504 0.0651
N7 N 0.7583(4) 0.2479(3) 0.1111(4)
C3 C 0.7968(4) 0.0035(4) 0.3981(4)
H5 H 0.7898 -0.0323 0.5041
H6 H 0.8503 0.0742 0.4142
N8 N 0.6156(6) -0.3040(3) 0.0522(7)
C4 C 0.9808(4) -0.0635(3) -0.1474(4)
H7 H 1.0088 -0.1248 -0.2186
H8 H 0.8952 -0.0276 -0.1980
N2B N 1.0983(3) 0.0225(2) -0.1283(3)
N4B N 1.3469(3) -0.0285(3) -0.3252(3)
C1B C 1.1245(4) 0.0760(3) -0.2877(4)
H1B H 1.0333 0.0976 -0.3428
H2B H 1.1807 0.1451 -0.2684
C2B C 1.0520(4) 0.1127(3) -0.0161(4)
H3B H 1.1272 0.1697 -0.0002
H4B H 0.9670 0.1504 -0.0651
C3B C 1.2032(4) -0.0035(4) -0.3981(4)
H5B H 1.2102 0.0323 -0.5041
H6B H 1.1497 -0.0742 -0.4142
C4B C 1.0192(4) 0.0635(3) 0.1474(4)
H7B H 0.9912 0.1248 0.2186
H8B H 1.1048 0.0276 0.1980
Cd1B Cd 0.32943(2) -0.062318(18) -0.04838(3)
N1B N 0.2875(3) -0.3177(2) -0.1953(3)
N3B N 0.4277(3) 0.1155(2) 0.0277(4)
N5B N 0.4051(3) 0.2107(3) -0.0148(4)
N6B N 0.3319(4) -0.3924(3) -0.2728(4)
N7B N 0.2417(4) -0.2479(3) -0.1111(4)
N8B N 0.3844(6) 0.3040(3) -0.0522(7)
Cd1A Cd 0.32943(2) -0.437682(18) -0.54838(3)
Cd1B_2 Cd 1.32943(2) -0.062318(18) -0.04838(3)
Cd1C Cd 0.67057(2) 0.437682(18) 0.54838(3)
N2B_2 N 0.0983(3) 0.0225(2) -0.1283(3)
N4B_2 N 0.3469(3) -0.0285(3) -0.3252(3)
N6A N 0.3319(4) -0.1076(3) 0.2272(4)
N6C N 0.6681(4) 0.1076(3) -0.2272(4)
loop_
_geom_bond_atom_site_label_1
_geom_bond_atom_site_label_2
_geom_bond_site_symmetry_1
_geom_bond_site_symmetry_2
Cd1 N2 1_555 1_555
N1 N6 1_555 1_555
N2 C1 1_555 1_555
N3 Cd1 1_555 1_555
N4 Cd1 1_555 1_555
N5 N3 1_555 1_555
C1 H1 1_555 1_555
H2 C1 1_555 1_555
N6 Cd1C 1_555 1_555
C2 N2 1_555 1_555
H3 C2 1_555 1_555
H4 C2 1_555 1_555
N7 Cd1 1_555 1_555
C3 N4 1_555 1_555
H5 C3 1_555 1_555
H6 C3 1_555 1_555
N8 N5 1_555 1_555
C4 C2 1_555 1_555
H7 C4 1_555 1_555
H8 C4 1_555 1_555
N2B C4 1_555 1_555
N4B C3B 1_555 1_555
C1B N2B 1_555 1_555
H1B C1B 1_555 1_555
H2B C1B 1_555 1_555
C2B N2B 1_555 1_555
H3B C2B 1_555 1_555
H4B C2B 1_555 1_555
C3B C1B 1_555 1_555
H5B C3B 1_555 1_555
H6B C3B 1_555 1_555
C4B N2 1_555 1_555
H7B C4B 1_555 1_555
H8B C4B 1_555 1_555
Cd1B N3 1_555 1_555
N1B N6B 1_555 1_555
N3B Cd1 1_555 1_555
N5B N3B 1_555 1_555
N6B Cd1A 1_555 1_555
N7B Cd1B 1_555 1_555
N8B N5B 1_555 1_555
Cd1B_2 N2B 1_555 1_555
N2B_2 Cd1B 1_555 1_555
N4B_2 Cd1B 1_555 1_555
N6A Cd1B 1_555 1_555
N6C Cd1 1_555 1_555
N1 N7 1_555 1_555
C1 C3 1_555 1_555
N4B Cd1B_2 1_555 1_555
C2B C4B 1_555 1_555
Cd1B N3B 1_555 1_555
N1B N7B 1_555 1_555

#END
