
#######################################################################
#
#                 Cambridge Crystallographic Data Centre
#                                CCDC 
#
#######################################################################
#
# If this CIF has been generated from an entry in the Cambridge 
# Structural Database, then it will include bibliographic, chemical, 
# crystal, experimental, refinement or atomic coordinate data resulting 
# from the CCDC's data processing and validation procedures.
#
#######################################################################

data_GEWWIQ
_symmetry_cell_setting           triclinic
_symmetry_space_group_name_H-M   'P -1'
_symmetry_Int_Tables_number      2
_space_group_name_Hall           '-P 1'
loop_
_symmetry_equiv_pos_site_id
_symmetry_equiv_pos_as_xyz
1 x,y,z
2 -x,-y,-z
_cell_length_a                   9.121(5)
_cell_length_b                   9.666(5)
_cell_length_c                   10.250(6)
_cell_angle_alpha                72.91(2)
_cell_angle_beta                 77.10(2)
_cell_angle_gamma                73.95(2)
_cell_volume                     820.127
loop_
_atom_site_label
_atom_site_type_symbol
_atom_site_fract_x
_atom_site_fract_y
_atom_site_fract_z
Cd1 Cd 0.70208(3) 0.01627(3) 0.98096(3)
Cd2 Cd 0.62296(3) -0.25613(3) 0.83858(3)
N1 N 0.7687(4) -0.2320(4) 0.9783(4)
N2 N 0.4780(4) -0.0124(4) 1.1572(3)
O1 O 0.8166(4) -0.2365(3) 0.6499(3)
N3 N 0.5046(4) -0.1057(4) 1.2645(4)
N4 N 1.0369(4) 0.0437(4) 0.8275(3)
N5 N 0.5902(4) 0.2670(4) 0.9700(4)
N6 N 0.9051(4) -0.2852(4) 0.9706(4)
N7 N 0.9075(4) 0.0739(5) 0.8125(4)
N8 N 0.4397(4) -0.2182(4) 0.7010(4)
C1 C 0.2440(5) -0.3202(5) 0.6405(5)
H1 H 0.2776 -0.2845 0.5424
H2 H 0.1592 -0.2446 0.6705
C2 C 0.3771(5) -0.3507(5) 0.7200(5)
H3 H 0.3418 -0.3875 0.8175
H4 H 0.4597 -0.4282 0.6903
C3 C 0.8256(7) -0.0991(6) 0.5575(6)
H5 H 0.9126 -0.1122 0.4860
H6 H 0.8377 -0.0327 0.6059
H7 H 0.7327 -0.0580 0.5171
N9 N 0.5304(6) -0.1906(6) 1.3660(5)
N10 N 1.0347(5) -0.3357(6) 0.9681(6)
N11 N 0.6369(3) 0.3768(3) 0.9186(3)
N12 N 0.0633(4) -0.4482(3) 0.5912(3)
C4 C 0.1172(5) -0.4196(4) 0.4394(4)
H8 H 0.2049 -0.4985 0.4202
H9 H 0.1507 -0.3267 0.4070
C5 C 0.1907(5) -0.4642(4) 0.6675(4)
H10 H 0.2779 -0.5399 0.6409
H11 H 0.1564 -0.4978 0.7657
C6 C 0.0092(5) -0.5884(4) 0.6372(4)
H12 H -0.0289 -0.6074 0.7355
H13 H 0.0952 -0.6701 0.6213
N13 N 0.6803(4) 0.4852(4) 0.8688(4)
N14 N 1.1691(4) 0.0166(5) 0.8355(4)
N8A N -0.4397(4) -0.7818(4) 0.2990(4)
C1A C -0.2440(5) -0.6798(5) 0.3595(5)
H1A H -0.2776 -0.7155 0.4576
H2A H -0.1592 -0.7554 0.3295
C2A C -0.3771(5) -0.6493(5) 0.2800(5)
H3A H -0.3418 -0.6125 0.1825
H4A H -0.4597 -0.5718 0.3097
N12A N -0.0633(4) -0.5518(3) 0.4088(3)
C4A C -0.1172(5) -0.5804(4) 0.5606(4)
H8A H -0.2049 -0.5015 0.5798
H9A H -0.1507 -0.6733 0.5930
C5A C -0.1907(5) -0.5358(4) 0.3325(4)
H10A H -0.2779 -0.4601 0.3591
H11A H -0.1564 -0.5022 0.2343
C6A C -0.0092(5) -0.4116(4) 0.3628(4)
H12A H 0.0289 -0.3926 0.2645
H13A H -0.0952 -0.3299 0.3787
Cd1A Cd -0.70208(3) -1.01627(3) 0.01904(3)
Cd2A Cd -0.62296(3) -0.74387(3) 0.16142(3)
N1A N -0.7687(4) -0.7680(4) 0.0217(4)
N2A N -0.4780(4) -0.9876(4) -0.1572(3)
O1A O -0.8166(4) -0.7635(3) 0.3501(3)
N3A N -0.5046(4) -0.8943(4) -0.2645(4)
N4A N -1.0369(4) -1.0437(4) 0.1725(3)
N5A N -0.5902(4) -1.2670(4) 0.0300(4)
N6A N -0.9051(4) -0.7148(4) 0.0294(4)
N7A N -0.9075(4) -1.0739(5) 0.1875(4)
C3A C -0.8256(7) -0.9009(6) 0.4425(6)
H5A H -0.9126 -0.8878 0.5140
H6A H -0.8377 -0.9673 0.3941
H7A H -0.7327 -0.9420 0.4829
N9A N -0.5304(6) -0.8094(6) -0.3660(5)
N10A N -1.0347(5) -0.6643(6) 0.0319(6)
N11A N -0.6369(3) -1.3768(3) 0.0814(3)
N13A N -0.6803(4) -1.4852(4) 0.1312(4)
N14A N -1.1691(4) -1.0166(5) 0.1645(4)
Cd1_2 Cd -1.29792(3) -0.98373(3) -0.01904(3)
Cd1_3 Cd -0.29792(3) -0.98373(3) -0.01904(3)
Cd1A_2 Cd 0.29792(3) -0.01627(3) 1.01904(3)
Cd1A_3 Cd 1.29792(3) -0.01627(3) 1.01904(3)
Cd2_2 Cd -0.37704(3) -1.25613(3) -0.16142(3)
Cd2_3 Cd 0.62296(3) 0.74387(3) 0.83858(3)
Cd2A_2 Cd -0.62296(3) -1.74387(3) 0.16142(3)
Cd2A_3 Cd 0.37704(3) 0.25613(3) 1.16142(3)
N2_2 N -0.5220(4) -1.0124(4) 0.1572(3)
N2A_2 N 0.5220(4) 0.0124(4) 0.8428(3)
N5_2 N -0.4098(4) -0.7330(4) -0.0300(4)
N5A_2 N 0.4098(4) -0.2670(4) 1.0300(4)
N13_2 N 0.6803(4) -0.5148(4) 0.8688(4)
N13A_2 N -0.6803(4) -0.4852(4) 0.1312(4)
N14_2 N -0.8309(4) -0.9834(5) -0.1645(4)
N14A_2 N 0.8309(4) -0.0166(5) 1.1645(4)
loop_
_geom_bond_atom_site_label_1
_geom_bond_atom_site_label_2
_geom_bond_site_symmetry_1
_geom_bond_site_symmetry_2
Cd1 N1 1_555 1_555
Cd2 N1 1_555 1_555
N1 N6 1_555 1_555
N2 Cd1 1_555 1_555
O1 Cd2 1_555 1_555
N3 N2 1_555 1_555
N4 N7 1_555 1_555
N5 Cd1 1_555 1_555
N6 N10 1_555 1_555
N7 Cd1 1_555 1_555
N8 Cd2 1_555 1_555
C1 H1 1_555 1_555
H2 C1 1_555 1_555
C2 N8 1_555 1_555
H3 C2 1_555 1_555
H4 C2 1_555 1_555
C3 O1 1_555 1_555
H5 C3 1_555 1_555
H6 C3 1_555 1_555
H7 C3 1_555 1_555
N9 N3 1_555 1_555
N11 N5 1_555 1_555
N12 C4 1_555 1_555
C4 H8 1_555 1_555
H9 C4 1_555 1_555
C5 C1 1_555 1_555
H10 C5 1_555 1_555
H11 C5 1_555 1_555
C6 N12 1_555 1_555
H12 C6 1_555 1_555
H13 C6 1_555 1_555
N13 N11 1_555 1_555
N14 N4 1_555 1_555
N8A C2A 1_555 1_555
C1A H1A 1_555 1_555
H2A C1A 1_555 1_555
C2A C1A 1_555 1_555
H3A C2A 1_555 1_555
H4A C2A 1_555 1_555
N12A C4A 1_555 1_555
C4A C6 1_555 1_555
H8A C4A 1_555 1_555
H9A C4A 1_555 1_555
C5A C1A 1_555 1_555
H10A C5A 1_555 1_555
H11A C5A 1_555 1_555
C6A C4 1_555 1_555
H12A C6A 1_555 1_555
H13A C6A 1_555 1_555
Cd1A N1A 1_555 1_555
Cd2A N8A 1_555 1_555
N1A Cd2A 1_555 1_555
N2A Cd1A 1_555 1_555
O1A Cd2A 1_555 1_555
N3A N2A 1_555 1_555
N4A N7A 1_555 1_555
N5A Cd1A 1_555 1_555
N6A N1A 1_555 1_555
N7A Cd1A 1_555 1_555
C3A O1A 1_555 1_555
H5A C3A 1_555 1_555
H6A C3A 1_555 1_555
H7A C3A 1_555 1_555
N9A N3A 1_555 1_555
N10A N6A 1_555 1_555
N11A N5A 1_555 1_555
N13A N11A 1_555 1_555
N14A N4A 1_555 1_555
Cd1_2 N14A 1_555 1_555
Cd1_3 N2A 1_555 1_555
Cd1A_2 N2 1_555 1_555
Cd1A_3 N14 1_555 1_555
Cd2_2 N2A 1_555 1_555
Cd2_3 N13 1_555 1_555
Cd2A_2 N13A 1_555 1_555
Cd2A_3 N2 1_555 1_555
N2_2 Cd1A 1_555 1_555
N2A_2 Cd1 1_555 1_555
N5_2 Cd2A 1_555 1_555
N5A_2 Cd2 1_555 1_555
N13_2 Cd2 1_555 1_555
N13A_2 Cd2A 1_555 1_555
N14_2 Cd1A 1_555 1_555
N14A_2 Cd1 1_555 1_555
Cd2 N2A_2 1_555 1_555
N5 Cd2A_3 1_555 1_555
C1 C2 1_555 1_555
N12 C5 1_555 1_555
N12A C5A 1_555 1_555
N12A C6A 1_555 1_555
Cd2A N2_2 1_555 1_555
N5A Cd2_2 1_555 1_555
Cd1_3 N2_2 1_555 1_555
Cd1_3 N5_2 1_555 1_555
Cd1A_2 N2A_2 1_555 1_555
Cd1A_2 N5A_2 1_555 1_555

#END
