
#######################################################################
#
#                 Cambridge Crystallographic Data Centre
#                                CCDC 
#
#######################################################################
#
# If this CIF has been generated from an entry in the Cambridge 
# Structural Database, then it will include bibliographic, chemical, 
# crystal, experimental, refinement or atomic coordinate data resulting 
# from the CCDC's data processing and validation procedures.
#
#######################################################################

data_GEWYUE
_symmetry_cell_setting           monoclinic
_symmetry_space_group_name_H-M   'C 2/c'
_symmetry_Int_Tables_number      15
_space_group_name_Hall           '-C 2yn'
loop_
_symmetry_equiv_pos_site_id
_symmetry_equiv_pos_as_xyz
1 x,y,z
2 -x,y,1/2-z
3 1/2+x,1/2+y,z
4 1/2-x,1/2+y,1/2-z
5 -x,-y,-z
6 x,-y,1/2+z
7 1/2-x,1/2-y,-z
8 1/2+x,1/2-y,1/2+z
_cell_length_a                   17.8523(15)
_cell_length_b                   10.4915(9)
_cell_length_c                   15.9219(14)
_cell_angle_alpha                90
_cell_angle_beta                 114.2297(13)
_cell_angle_gamma                90
_cell_volume                     2719.43
loop_
_atom_site_label
_atom_site_type_symbol
_atom_site_fract_x
_atom_site_fract_y
_atom_site_fract_z
Cu1 Cu 0.18895(3) 0.56266(5) 0.46999(3)
Cu2 Cu 0.5000 0.65304(7) 0.7500
Cu3 Cu 0.5000 0.37755(9) 0.7500
S1 S 0.07921(9) 0.41266(13) 0.49177(10)
S2 S 0.39795(7) 0.51564(12) 0.76715(8)
O1 O 0.1529(2) 0.7154(3) 0.5168(2)
N1 N 0.2100(2) 0.4502(4) 0.3794(2)
N2 N 0.1143(2) 0.6402(3) 0.3570(2)
N3 N 0.0699(2) 0.7444(3) 0.3636(2)
N4 N 0.2809(2) 0.5241(4) 0.5846(3)
N5 N 0.0511(3) 0.2194(5) 0.3630(3)
C1 C 0.2584(3) 0.3486(5) 0.3952(3)
H1 H 0.2939 0.3298 0.4556
C2 C 0.2579(3) 0.2700(5) 0.3255(3)
H2 H 0.2925 0.1996 0.3390
C3 C 0.2057(3) 0.2970(5) 0.2360(3)
H3 H 0.2045 0.2452 0.1881
C4 C 0.1551(3) 0.4019(4) 0.2185(3)
H4 H 0.1193 0.4221 0.1584
C5 C 0.1581(3) 0.4761(4) 0.2904(3)
C6 C 0.1063(3) 0.5883(4) 0.2806(3)
H5 H 0.0704 0.6196 0.2235
C7 C 0.0963(3) 0.7750(4) 0.4526(3)
C8 C 0.0570(3) 0.8841(5) 0.4779(3)
H6 H -0.0007 0.8678 0.4576
H7 H 0.0648 0.9601 0.4488
H8 H 0.0815 0.8951 0.5435
C9 C 0.3287(3) 0.5193(4) 0.6593(3)
C10 C 0.0633(3) 0.3002(5) 0.4159(4)
Cu1A Cu 0.81105(3) 0.56266(5) 1.03001(3)
S1A S 0.92079(9) 0.41266(13) 1.00823(10)
S2A S 0.60205(7) 0.51564(12) 0.73285(8)
O1A O 0.8471(2) 0.7154(3) 0.9832(2)
N1A N 0.7900(2) 0.4502(4) 1.1206(2)
N2A N 0.8857(2) 0.6402(3) 1.1430(2)
N3A N 0.9301(2) 0.7444(3) 1.1364(2)
N4A N 0.7191(2) 0.5241(4) 0.9154(3)
N5A N 0.9489(3) 0.2194(5) 1.1370(3)
C1A C 0.7416(3) 0.3486(5) 1.1048(3)
H1A H 0.7061 0.3298 1.0444
C2A C 0.7421(3) 0.2700(5) 1.1745(3)
H2A H 0.7075 0.1996 1.1610
C3A C 0.7943(3) 0.2970(5) 1.2640(3)
H3A H 0.7955 0.2452 1.3119
C4A C 0.8449(3) 0.4019(4) 1.2815(3)
H4A H 0.8807 0.4221 1.3416
C5A C 0.8419(3) 0.4761(4) 1.2096(3)
C6A C 0.8937(3) 0.5883(4) 1.2194(3)
H5A H 0.9296 0.6196 1.2765
C7A C 0.9037(3) 0.7750(4) 1.0474(3)
C8A C 0.9430(3) 0.8841(5) 1.0221(3)
H6A H 1.0007 0.8678 1.0424
H7A H 0.9352 0.9601 1.0512
H8A H 0.9185 0.8951 0.9565
C9A C 0.6713(3) 0.5193(4) 0.8407(3)
C10A C 0.9367(3) 0.3002(5) 1.0841(4)
Cu2F Cu 0.0000 0.84696(7) 0.2500
Cu2F_2 Cu 1.0000 0.84696(7) 1.2500
Cu3F Cu 0.0000 0.12245(9) 0.2500
Cu3F_2 Cu 1.0000 0.12245(9) 1.2500
N3F N 0.4301(2) 0.7556(3) 0.6364(2)
N3G N 0.5699(2) 0.7556(3) 0.8636(2)
N5F N 0.4489(3) 0.2806(5) 0.6370(3)
N5G N 0.5511(3) 0.2806(5) 0.8630(3)
loop_
_geom_bond_atom_site_label_1
_geom_bond_atom_site_label_2
_geom_bond_site_symmetry_1
_geom_bond_site_symmetry_2
Cu1 S1 1_555 1_555
Cu2 S2 1_555 1_555
Cu3 S2 1_555 1_555
S1 C10 1_555 1_555
S2 C9 1_555 1_555
O1 Cu1 1_555 1_555
N1 Cu1 1_555 1_555
N2 Cu1 1_555 1_555
N3 N2 1_555 1_555
N4 Cu1 1_555 1_555
N5 C10 1_555 1_555
C1 N1 1_555 1_555
H1 C1 1_555 1_555
C2 C1 1_555 1_555
H2 C2 1_555 1_555
C3 C2 1_555 1_555
H3 C3 1_555 1_555
C4 C3 1_555 1_555
H4 C4 1_555 1_555
C5 N1 1_555 1_555
C6 N2 1_555 1_555
H5 C6 1_555 1_555
C7 O1 1_555 1_555
C8 C7 1_555 1_555
H6 C8 1_555 1_555
H7 C8 1_555 1_555
H8 C8 1_555 1_555
C9 N4 1_555 1_555
Cu1A S1A 1_555 1_555
S1A C10A 1_555 1_555
S2A Cu2 1_555 1_555
O1A Cu1A 1_555 1_555
N1A Cu1A 1_555 1_555
N2A Cu1A 1_555 1_555
N3A N2A 1_555 1_555
N4A Cu1A 1_555 1_555
N5A C10A 1_555 1_555
C1A N1A 1_555 1_555
H1A C1A 1_555 1_555
C2A C1A 1_555 1_555
H2A C2A 1_555 1_555
C3A C2A 1_555 1_555
H3A C3A 1_555 1_555
C4A C3A 1_555 1_555
H4A C4A 1_555 1_555
C5A N1A 1_555 1_555
C6A N2A 1_555 1_555
H5A C6A 1_555 1_555
C7A O1A 1_555 1_555
C8A C7A 1_555 1_555
H6A C8A 1_555 1_555
H7A C8A 1_555 1_555
H8A C8A 1_555 1_555
C9A S2A 1_555 1_555
Cu2F N3 1_555 1_555
Cu2F_2 N3A 1_555 1_555
Cu3F N5 1_555 1_555
Cu3F_2 N5A 1_555 1_555
N3F Cu2 1_555 1_555
N3G Cu2 1_555 1_555
N5F Cu3 1_555 1_555
N5G Cu3 1_555 1_555
Cu3 S2A 1_555 1_555
N3 C7 1_555 1_555
C4 C5 1_555 1_555
C5 C6 1_555 1_555
N3A C7A 1_555 1_555
N4A C9A 1_555 1_555
C4A C5A 1_555 1_555
C5A C6A 1_555 1_555

#END
