
#######################################################################
#
#                 Cambridge Crystallographic Data Centre
#                                CCDC 
#
#######################################################################
#
# If this CIF has been generated from an entry in the Cambridge 
# Structural Database, then it will include bibliographic, chemical, 
# crystal, experimental, refinement or atomic coordinate data resulting 
# from the CCDC's data processing and validation procedures.
#
#######################################################################

data_GEXBOC
_symmetry_cell_setting           monoclinic
_symmetry_space_group_name_H-M   'P 21/c'
_symmetry_Int_Tables_number      14
_space_group_name_Hall           '-P 2ybc'
loop_
_symmetry_equiv_pos_site_id
_symmetry_equiv_pos_as_xyz
1 x,y,z
2 -x,1/2+y,1/2-z
3 -x,-y,-z
4 x,1/2-y,1/2+z
_cell_length_a                   9.958(2)
_cell_length_b                   18.743(4)
_cell_length_c                   17.891(4)
_cell_angle_alpha                90
_cell_angle_beta                 96.34(3)
_cell_angle_gamma                90
_cell_volume                     3318.8
loop_
_atom_site_label
_atom_site_type_symbol
_atom_site_fract_x
_atom_site_fract_y
_atom_site_fract_z
Ni1 Ni 0.45853(4) 0.22097(2) 0.25396(2)
N1 N -0.2926(3) 0.65835(17) 0.23096(17)
N2 N -0.1692(3) 0.56418(17) 0.22091(17)
N3 N -0.1287(4) 0.6107(2) 0.1702(2)
N4 N -0.4474(3) 0.32261(18) -0.14567(17)
N5 N -0.3447(3) 0.33182(17) -0.03277(17)
N6 N -0.3918(4) 0.39792(19) -0.0497(2)
N7 N 0.3778(3) 0.27033(17) 0.15455(16)
N8 N 0.2791(3) 0.34773(17) 0.07633(16)
N9 N 0.3341(3) 0.2993(2) 0.03309(18)
C1 C -0.2052(5) 0.6661(2) 0.1782(3)
H1 H -0.2003 0.7076 0.1501
C2 C -0.2656(4) 0.5937(2) 0.2555(2)
H2 H -0.3088 0.5714 0.2927
C3 C -0.1048(4) 0.4945(2) 0.2334(2)
H3 H -0.1593 0.4656 0.2634
H4 H -0.0173 0.5012 0.2621
C4 C -0.0854(4) 0.4542(2) 0.1620(2)
C5 C -0.1914(4) 0.41128(19) 0.12900(19)
C6 C -0.3311(4) 0.4159(2) 0.1555(2)
H5 H -0.3982 0.4176 0.1126
H6 H -0.3371 0.4582 0.1851
H7 H -0.3462 0.3747 0.1854
C7 C 0.3055(4) 0.3299(2) 0.1478(2)
H8 H 0.2773 0.3555 0.1878
C8 C 0.3927(4) 0.2539(2) 0.0823(2)
H9 H 0.4402 0.2141 0.0687
C9 C 0.1972(4) 0.4082(2) 0.0431(2)
H10 H 0.1845 0.4033 -0.0111
H11 H 0.2448 0.4526 0.0551
C10 C 0.0607(3) 0.4105(2) 0.0731(2)
C11 C -0.0419(4) 0.36466(19) 0.04196(19)
C12 C -0.1670(3) 0.36596(19) 0.07054(19)
C13 C 0.0384(4) 0.4558(2) 0.1330(2)
C14 C 0.1491(4) 0.5064(3) 0.1662(3)
H12 H 0.1090 0.5460 0.1895
H13 H 0.1991 0.5234 0.1269
H14 H 0.2089 0.4815 0.2031
C15 C -0.0162(4) 0.3140(2) -0.0207(2)
H15 H -0.0827 0.2767 -0.0242
H16 H 0.0722 0.2935 -0.0103
H17 H -0.0219 0.3396 -0.0674
C16 C -0.4524(5) 0.3901(2) -0.1182(2)
H18 H -0.4950 0.4275 -0.1455
C17 C -0.3784(4) 0.2879(2) -0.0904(2)
H19 H -0.3562 0.2398 -0.0914
C18 C -0.2757(4) 0.3129(2) 0.0411(2)
H20 H -0.3421 0.3097 0.0768
H21 H -0.2348 0.2662 0.0379
C19 C -0.3391(3) 0.3174(2) 0.69376(19)
C20 C -0.2187(3) 0.34669(19) 0.66049(19)
C21 C -0.2236(4) 0.4153(2) 0.6307(2)
H22 H -0.3028 0.4417 0.6295
C22 C -0.1007(4) 0.3077(2) 0.6605(2)
H23 H -0.0963 0.2617 0.6802
C23 C 0.4263(4) 0.3477(2) 0.3555(2)
C24 C 0.3411(4) 0.37315(19) 0.4151(2)
C25 C 0.2055(4) 0.3532(2) 0.4128(2)
H24 H 0.1661 0.3259 0.3728
C26 C 0.1286(4) 0.3736(2) 0.4697(2)
H25 H 0.0385 0.3600 0.4680
C27 C 0.1880(4) 0.41411(19) 0.5284(2)
C28 C 0.3225(4) 0.4354(2) 0.5311(2)
H26 H 0.3613 0.4633 0.5707
C29 C 0.3974(4) 0.4148(2) 0.4746(2)
H27 H 0.4872 0.4290 0.4763
C30 C 0.0040(4) 0.4053(2) 0.6039(2)
C31 C -0.1121(4) 0.4445(2) 0.6029(2)
H28 H -0.1158 0.4906 0.5835
C32 C 0.0109(4) 0.3364(2) 0.6317(2)
H29 H 0.0895 0.3096 0.6310
O1 O -0.4447(2) 0.35570(14) 0.69238(14)
O2 O -0.3354(2) 0.25680(14) 0.72323(15)
O3 O 0.3760(3) 0.29953(16) 0.31272(14)
O4 O 0.5402(3) 0.37507(17) 0.35346(17)
O5 O 0.1180(3) 0.44067(16) 0.58469(15)
Ni1A Ni -0.45853(4) 0.72097(2) 0.24604(2)
Ni1C Ni -0.54147(4) 0.27903(2) -0.24604(2)
Ni1C_2 Ni -0.54147(4) 0.27903(2) 0.75396(2)
N1A N 0.2926(3) 0.15835(17) 0.26904(17)
N4C N 0.5526(3) 0.17739(18) 0.35433(17)
O1C O 0.5553(2) 0.14430(14) 0.19238(14)
O2C O 0.6646(2) 0.24320(14) 0.22323(15)
O6 O 0.4740(4) 0.4973(2) 0.2635(2)
H30 H 0.4748 0.4624 0.2938
H31 H 0.4476 0.5347 0.2844
O7 O 0.7817(8) 0.3806(5) 0.4290(3)
H32 H 0.6984 0.3771 0.4131
H33 H 0.8242 0.3449 0.4141
O8 O 0.8521(5) 0.3252(3) 0.3255(4)
H34 H 0.9198 0.2989 0.3199
H35 H 0.7822 0.3082 0.3001
loop_
_geom_bond_atom_site_label_1
_geom_bond_atom_site_label_2
_geom_bond_site_symmetry_1
_geom_bond_site_symmetry_2
Ni1 N7 1_555 1_555
N1 C1 1_555 1_555
N2 N3 1_555 1_555
N3 C1 1_555 1_555
N4 C16 1_555 1_555
N5 N6 1_555 1_555
N6 C16 1_555 1_555
N7 C7 1_555 1_555
N8 N9 1_555 1_555
N9 C8 1_555 1_555
C1 H1 1_555 1_555
C2 N1 1_555 1_555
H2 C2 1_555 1_555
C3 N2 1_555 1_555
H3 C3 1_555 1_555
H4 C3 1_555 1_555
C4 C3 1_555 1_555
C5 C4 1_555 1_555
C6 C5 1_555 1_555
H5 C6 1_555 1_555
H6 C6 1_555 1_555
H7 C6 1_555 1_555
C7 N8 1_555 1_555
H8 C7 1_555 1_555
C8 N7 1_555 1_555
H9 C8 1_555 1_555
C9 N8 1_555 1_555
H10 C9 1_555 1_555
H11 C9 1_555 1_555
C10 C9 1_555 1_555
C11 C10 1_555 1_555
C12 C5 1_555 1_555
C13 C4 1_555 1_555
C14 C13 1_555 1_555
H12 C14 1_555 1_555
H13 C14 1_555 1_555
H14 C14 1_555 1_555
C15 C11 1_555 1_555
H15 C15 1_555 1_555
H16 C15 1_555 1_555
H17 C15 1_555 1_555
C16 H18 1_555 1_555
C17 N4 1_555 1_555
H19 C17 1_555 1_555
C18 N5 1_555 1_555
H20 C18 1_555 1_555
H21 C18 1_555 1_555
C19 C20 1_555 1_555
C20 C21 1_555 1_555
C21 H22 1_555 1_555
C22 C20 1_555 1_555
H23 C22 1_555 1_555
C23 C24 1_555 1_555
C24 C25 1_555 1_555
C25 H24 1_555 1_555
C26 C25 1_555 1_555
H25 C26 1_555 1_555
C27 C26 1_555 1_555
C28 C27 1_555 1_555
H26 C28 1_555 1_555
C29 C24 1_555 1_555
H27 C29 1_555 1_555
C30 C31 1_555 1_555
C31 C21 1_555 1_555
H28 C31 1_555 1_555
C32 C22 1_555 1_555
H29 C32 1_555 1_555
O1 C19 1_555 1_555
O2 C19 1_555 1_555
O3 Ni1 1_555 1_555
O4 C23 1_555 1_555
O5 C27 1_555 1_555
O6 H30 1_555 1_555
H31 O6 1_555 1_555
O7 H32 1_555 1_555
H33 O7 1_555 1_555
O8 H34 1_555 1_555
H35 O8 1_555 1_555
Ni1A N1 1_555 1_555
Ni1C N4 1_555 1_555
Ni1C_2 O1 1_555 1_555
N1A Ni1 1_555 1_555
N4C Ni1 1_555 1_555
O1C Ni1 1_555 1_555
O2C Ni1 1_555 1_555
N2 C2 1_555 1_555
N5 C17 1_555 1_555
C10 C13 1_555 1_555
C11 C12 1_555 1_555
C12 C18 1_555 1_555
C23 O3 1_555 1_555
C28 C29 1_555 1_555
C30 C32 1_555 1_555
C30 O5 1_555 1_555
O2 Ni1C_2 1_555 1_555

#END
