
#######################################################################
#
#                 Cambridge Crystallographic Data Centre
#                                CCDC 
#
#######################################################################
#
# If this CIF has been generated from an entry in the Cambridge 
# Structural Database, then it will include bibliographic, chemical, 
# crystal, experimental, refinement or atomic coordinate data resulting 
# from the CCDC's data processing and validation procedures.
#
#######################################################################

data_GEXCOD
_symmetry_cell_setting           triclinic
_symmetry_space_group_name_H-M   'P -1'
_symmetry_Int_Tables_number      2
_space_group_name_Hall           '-P 1'
loop_
_symmetry_equiv_pos_site_id
_symmetry_equiv_pos_as_xyz
1 x,y,z
2 -x,-y,-z
_cell_length_a                   13.2372(16)
_cell_length_b                   16.1349(17)
_cell_length_c                   27.301(3)
_cell_angle_alpha                101.212(7)
_cell_angle_beta                 90.012(7)
_cell_angle_gamma                114.199(8)
_cell_volume                     5196.23
loop_
_atom_site_label
_atom_site_type_symbol
_atom_site_fract_x
_atom_site_fract_y
_atom_site_fract_z
Mn1 Mn 0.42859(19) 0.60850(15) 0.77747(8)
Mn2 Mn -0.1797(2) 0.39156(15) 0.72256(8)
Mn3 Mn 0.6256(2) 0.50657(16) 0.73311(7)
Mn4 Mn 0.1193(2) 0.49327(17) 0.76717(8)
O1 O 0.0897(10) 0.3879(7) 0.6993(4)
O2 O -0.0562(9) 0.4042(7) 0.6701(3)
O3 O -0.1293(9) 0.3003(7) 0.7508(4)
O4 O 0.0242(9) 0.3864(7) 0.8049(4)
O5 O -0.0501(9) 0.5257(7) 0.7735(3)
O6 O -0.1749(9) 0.5338(7) 0.7246(4)
O7 O 0.7042(12) 0.3653(9) 0.7735(5)
O8 O 0.7012(9) 0.3281(7) 0.6607(4)
O9 O 0.1893(10) 0.5832(8) 0.8379(4)
O10 O 0.3687(10) 0.6726(7) 0.8385(4)
O11 O 0.2871(9) 0.4654(6) 0.7761(3)
O12 O 0.4243(10) 0.4764(7) 0.7275(3)
O13 O 0.1571(10) 0.5999(7) 0.7265(4)
O14 O 0.3353(11) 0.6365(9) 0.7263(4)
O15 O 0.5720(9) 0.6997(7) 0.7482(4)
O16 O 0.6358(8) 0.6110(7) 0.6952(3)
O17 O 0.5410(9) 0.5955(7) 0.8301(3)
O18 O 0.7038(8) 0.6108(7) 0.8001(3)
O19 O 0.5582(9) 0.3992(7) 0.7736(4)
O20 O 0.6072(8) 0.4167(7) 0.6618(3)
C1 C 0.0021(16) 0.3627(11) 0.6675(5)
C2 C -0.0095(14) 0.2895(10) 0.6242(6)
C3 C 0.0705(15) 0.2550(10) 0.6131(5)
H1 H 0.1343 0.2754 0.6346
C4 C 0.0514(18) 0.1864(12) 0.5668(7)
H2 H 0.1048 0.1634 0.5593
C5 C -0.037(2) 0.1548(11) 0.5348(6)
C6 C -0.1173(18) 0.1878(13) 0.5489(7)
H3 H -0.1833 0.1653 0.5285
C7 C -0.1007(15) 0.2536(12) 0.5927(6)
H4 H -0.1564 0.2738 0.6004
C8 C -0.0614(16) 0.3104(12) 0.7864(6)
C9 C -0.0774(15) 0.2299(11) 0.8077(5)
C10 C -0.1750(17) 0.1512(13) 0.7938(6)
H5 H -0.2297 0.1493 0.7717
C11 C -0.1905(19) 0.0708(14) 0.8148(8)
H6 H -0.2556 0.0168 0.8053
C12 C -0.112(2) 0.0728(13) 0.8479(7)
C13 C -0.0243(17) 0.1492(14) 0.8623(6)
H7 H 0.0279 0.1510 0.8858
C14 C -0.0040(15) 0.2289(12) 0.8443(5)
H8 H 0.0597 0.2828 0.8568
C15 C -0.0882(15) 0.5732(12) 0.7560(6)
C16 C -0.0340(14) 0.6761(11) 0.7708(5)
C17 C 0.0569(14) 0.7169(11) 0.8069(6)
H9 H 0.0833 0.6813 0.8216
C18 C 0.1017(15) 0.8052(15) 0.8187(7)
H10 H 0.1638 0.8336 0.8419
C19 C 0.0636(17) 0.8641(12) 0.7987(8)
C20 C -0.0257(16) 0.8225(15) 0.7635(6)
H11 H -0.0528 0.8577 0.7489
C21 C -0.0722(14) 0.7310(12) 0.7508(6)
H12 H -0.1337 0.7021 0.7273
C22 C 0.2760(19) 0.6520(13) 0.8547(5)
C23 C 0.2726(15) 0.7180(11) 0.9013(6)
C24 C 0.3622(18) 0.7901(14) 0.9245(7)
H13 H 0.4295 0.7965 0.9117
C25 C 0.3670(18) 0.8568(14) 0.9653(8)
H14 H 0.4337 0.9060 0.9794
C26 C 0.265(2) 0.8463(16) 0.9847(6)
C27 C 0.1690(17) 0.7696(14) 0.9617(7)
H15 H 0.1010 0.7605 0.9745
C28 C 0.1734(15) 0.7066(11) 0.9203(5)
H16 H 0.1084 0.6563 0.9053
C29 C 0.2502(17) 0.6468(12) 0.7158(5)
C30 C 0.2648(16) 0.7183(11) 0.6852(5)
C31 C 0.1780(15) 0.7416(11) 0.6741(5)
H17 H 0.1111 0.7165 0.6882
C32 C 0.1907(19) 0.8009(13) 0.6426(6)
H18 H 0.1305 0.8108 0.6321
C33 C 0.299(2) 0.8479(14) 0.6260(7)
C34 C 0.3842(15) 0.8244(12) 0.6369(7)
H19 H 0.4523 0.8504 0.6238
C35 C 0.3681(16) 0.7631(12) 0.6667(6)
H20 H 0.4272 0.7501 0.6752
C36 C 0.3363(15) 0.4261(11) 0.7457(6)
C37 C 0.2864(14) 0.3219(11) 0.7285(5)
C38 C 0.1926(16) 0.2689(13) 0.7495(6)
H21 H 0.1590 0.2981 0.7723
C39 C 0.1499(15) 0.1750(12) 0.7369(6)
H22 H 0.0905 0.1386 0.7525
C40 C 0.200(2) 0.1336(13) 0.6984(8)
C41 C 0.2959(17) 0.1879(14) 0.6782(7)
H23 H 0.3313 0.1610 0.6552
C42 C 0.3337(14) 0.2790(12) 0.6935(6)
H24 H 0.3961 0.3163 0.6798
C43 C 0.6456(16) 0.6357(11) 0.8311(6)
C44 C 0.7096(16) 0.7142(11) 0.8767(5)
C45 C 0.6470(14) 0.7489(11) 0.9100(6)
H25 H 0.5708 0.7278 0.9027
C46 C 0.7009(18) 0.8156(13) 0.9540(6)
H26 H 0.6589 0.8383 0.9752
C47 C 0.812(2) 0.8484(14) 0.9669(7)
C48 C 0.8703(17) 0.8151(12) 0.9341(8)
H27 H 0.9466 0.8371 0.9418
C49 C 0.8224(15) 0.7495(12) 0.8894(7)
H28 H 0.8667 0.7296 0.8682
C50 C 0.6281(14) 0.6858(12) 0.7118(5)
C51 C 0.6910(9) 0.7714(7) 0.6909(4)
C52 C 0.7672(11) 0.7682(8) 0.6564(4)
H29 H 0.7774 0.7139 0.6462
C53 C 0.8281(9) 0.8460(12) 0.6371(4)
H30 H 0.8790 0.8439 0.6140
C54 C 0.8128(11) 0.9272(9) 0.6523(5)
C55 C 0.7366(13) 0.9304(7) 0.6869(5)
H31 H 0.7264 0.9847 0.6971
C56 C 0.6757(10) 0.8525(9) 0.7061(4)
H32 H 0.6248 0.8547 0.7292
C57 C 0.6091(19) 0.3525(12) 0.7823(5)
C58 C 0.5521(15) 0.2824(11) 0.8148(6)
C59 C 0.4389(14) 0.2579(11) 0.8268(6)
H33 H 0.3972 0.2849 0.8143
C60 C 0.3935(16) 0.1969(13) 0.8558(7)
H34 H 0.3210 0.1826 0.8642
C61 C 0.6059(16) 0.2364(12) 0.8323(6)
H35 H 0.6778 0.2488 0.8236
C62 C 0.6285(14) 0.3489(11) 0.6444(5)
C63 C 0.5582(12) 0.2829(11) 0.5990(5)
C64 C 0.5745(15) 0.2047(12) 0.5741(6)
H36 H 0.6344 0.1955 0.5857
C65 C 0.5053(18) 0.1411(12) 0.5335(8)
H37 H 0.5165 0.0888 0.5189
C66 C 0.420(2) 0.1569(15) 0.5152(7)
C67 C 0.4664(15) 0.2914(12) 0.5786(6)
H38 H 0.4514 0.3413 0.5941
C68 C 0.3966(15) 0.2306(14) 0.5370(6)
H39 H 0.3371 0.2394 0.5246
C69 C 0.458(3) 0.1527(14) 0.8741(7)
C70 C 0.5615(18) 0.1747(14) 0.8610(8)
H40 H 0.6033 0.1465 0.8720
C71 C -0.0429(19) 0.0903(13) 0.4862(6)
H41 H 0.0219 0.0776 0.4855
H42 H -0.0460 0.1188 0.4588
H43 H -0.1083 0.0332 0.4832
C72 C -0.1268(19) -0.0100(12) 0.8692(7)
H44 H -0.0638 0.0056 0.8922
H45 H -0.1327 -0.0607 0.8425
H46 H -0.1931 -0.0280 0.8864
C73 C 0.8757(18) 1.0085(15) 0.6315(9)
H47 H 0.9235 0.9944 0.6081
H48 H 0.9199 1.0597 0.6580
H49 H 0.8252 1.0248 0.6146
C74 C 0.248(2) 0.9093(17) 1.0333(7)
H50 H 0.1706 0.8877 1.0381
H51 H 0.2770 0.9725 1.0294
H52 H 0.2876 0.9058 1.0619
C75 C 0.335(2) 0.0872(15) 0.4685(8)
H53 H 0.2831 0.1111 0.4608
H54 H 0.2960 0.0274 0.4765
H55 H 0.3761 0.0811 0.4399
C76 C 0.1428(16) 0.0201(12) 0.6814(8)
H56 H 0.1821 0.0008 0.6553
H57 H 0.0665 -0.0009 0.6693
H58 H 0.1466 -0.0061 0.7097
C77 C 0.1325(19) 0.9807(12) 0.8145(9)
H59 H 0.0960 1.0085 0.7971
H60 H 0.2075 0.9987 0.8055
H61 H 0.1334 1.0012 0.8500
C78 C 0.308(2) 0.9106(15) 0.5925(7)
H62 H 0.2396 0.9172 0.5899
H63 H 0.3231 0.8854 0.5599
H64 H 0.3676 0.9704 0.6056
C79 C 0.402(2) 0.0854(16) 0.9086(8)
H65 H 0.4519 0.0605 0.9180
H66 H 0.3352 0.0355 0.8912
H67 H 0.3838 0.1179 0.9381
C80 C 0.8667(19) 0.9083(14) 1.0155(6)
H68 H 0.8141 0.9252 1.0342
H69 H 0.9276 0.9635 1.0104
H70 H 0.8941 0.8755 1.0338
Mn2_2 Mn 0.8203(2) 0.39156(15) 0.72256(8)
O7_2 O -0.2958(12) 0.3653(9) 0.7735(5)
O8_2 O -0.2988(9) 0.3281(7) 0.6607(4)
N1 N 0.5274(12) 0.4747(8) 0.8997(4)
H71 H 0.5361 0.5067 0.8770
N2 N 0.8903(12) 0.4846(10) 0.8759(4)
H72 H 0.8983 0.5161 0.8531
H73 H 0.9422 0.4691 0.8836
N3 N 0.1588(11) 0.4604(9) 0.9127(5)
H74 H 0.1660 0.4929 0.8903
H75 H 0.0974 0.4402 0.9265
C81 C 0.4268(15) 0.4471(10) 0.9204(5)
C82 C 0.3431(15) 0.4705(10) 0.9062(5)
H76 H 0.3558 0.5072 0.8825
C83 C 0.2426(16) 0.4416(11) 0.9260(5)
C84 C 0.2290(14) 0.3874(10) 0.9653(5)
C85 C 0.3119(14) 0.3661(11) 0.9801(6)
H77 H 0.3000 0.3314 1.0048
C86 C 0.4177(15) 0.3954(10) 0.9590(5)
C87 C 0.5039(14) 0.3765(10) 0.9721(5)
H78 H 0.4964 0.3447 0.9978
C88 C 0.5979(14) 0.4012(10) 0.9502(5)
C89 C 0.6926(17) 0.3831(13) 0.9628(6)
H79 H 0.6888 0.3530 0.9890
C90 C 0.7888(16) 0.4083(12) 0.9375(6)
C91 C 0.7976(14) 0.4598(11) 0.8995(5)
C92 C 0.7119(15) 0.4825(10) 0.8889(5)
H80 H 0.7205 0.5179 0.8648
C93 C 0.6129(14) 0.4560(10) 0.9119(5)
C94 C 0.1166(13) 0.3550(12) 0.9878(5)
H81 H 0.1177 0.3213 1.0130
H82 H 0.0586 0.3153 0.9619
H83 H 0.1030 0.4081 1.0026
C95 C 0.8805(15) 0.3808(13) 0.9488(6)
H84 H 0.8613 0.3464 0.9750
H85 H 0.9483 0.4356 0.9595
H86 H 0.8905 0.3427 0.9192
N4 N 0.9503(11) 0.4771(9) 0.3998(4)
H87 H 0.9751 0.5108 0.3780
N5 N 1.2950(13) 0.4613(9) 0.4136(4)
H88 H 1.3208 0.4939 0.3914
H89 H 1.3362 0.4420 0.4281
N6 N 0.5948(12) 0.4867(10) 0.3763(4)
H90 H 0.6175 0.5186 0.3535
H91 H 0.5277 0.4711 0.3845
C96 C 0.8467(17) 0.4571(11) 0.4118(5)
C97 C 0.7749(15) 0.4836(11) 0.3885(5)
H92 H 0.8007 0.5184 0.3640
C98 C 0.6672(16) 0.4603(12) 0.4002(5)
C99 C 0.6236(14) 0.4080(11) 0.4383(6)
C100 C 0.6960(15) 0.3839(11) 0.4617(5)
H93 H 0.6702 0.3510 0.4869
C101 C 0.8055(14) 0.4050(11) 0.4506(6)
C102 C 0.8731(13) 0.3764(10) 0.4711(5)
H94 H 0.8464 0.3413 0.4954
C103 C 0.9781(15) 0.3950(11) 0.4591(6)
C104 C 1.0521(14) 0.3664(11) 0.4807(5)
H95 H 1.0300 0.3340 0.5063
C105 C 1.1510(16) 0.3848(11) 0.4654(5)
C106 C 1.1878(14) 0.4402(11) 0.4261(6)
C107 C 1.1215(14) 0.4668(11) 0.4059(5)
H96 H 1.1454 0.5004 0.3808
C108 C 1.0183(14) 0.4471(12) 0.4203(6)
C109 C 0.5012(15) 0.3789(14) 0.4501(6)
H97 H 0.4869 0.3447 0.4764
H98 H 0.4531 0.3404 0.4206
H99 H 0.4874 0.4334 0.4607
C110 C 1.2326(14) 0.3524(11) 0.4885(6)
H100 H 1.1974 0.3180 0.5133
H101 H 1.2985 0.4058 0.5038
H102 H 1.2522 0.3136 0.4625
loop_
_geom_bond_atom_site_label_1
_geom_bond_atom_site_label_2
_geom_bond_site_symmetry_1
_geom_bond_site_symmetry_2
Mn1 O10 1_555 1_555
Mn2 O2 1_555 1_555
Mn3 O16 1_555 1_555
Mn4 O1 1_555 1_555
O1 C1 1_555 1_555
O2 C1 1_555 1_555
O3 Mn2 1_555 1_555
O4 Mn4 1_555 1_555
O5 Mn2 1_555 1_555
O6 Mn2 1_555 1_555
O7 C57 1_555 1_555
O8 C62 1_555 1_555
O9 Mn4 1_555 1_555
O10 C22 1_555 1_555
O11 Mn1 1_555 1_555
O12 Mn1 1_555 1_555
O13 Mn4 1_555 1_555
O14 Mn1 1_555 1_555
O15 Mn1 1_555 1_555
O16 C50 1_555 1_555
O17 Mn1 1_555 1_555
O18 Mn3 1_555 1_555
O19 Mn3 1_555 1_555
O20 Mn3 1_555 1_555
C1 C2 1_555 1_555
C2 C3 1_555 1_555
C3 H1 1_555 1_555
C4 C3 1_555 1_555
H2 C4 1_555 1_555
C5 C4 1_555 1_555
C6 C5 1_555 1_555
H3 C6 1_555 1_555
C7 C2 1_555 1_555
H4 C7 1_555 1_555
C8 O3 1_555 1_555
C9 C8 1_555 1_555
C10 C9 1_555 1_555
H5 C10 1_555 1_555
C11 C10 1_555 1_555
H6 C11 1_555 1_555
C12 C11 1_555 1_555
C13 C12 1_555 1_555
H7 C13 1_555 1_555
C14 C9 1_555 1_555
H8 C14 1_555 1_555
C15 O5 1_555 1_555
C16 C15 1_555 1_555
C17 C16 1_555 1_555
H9 C17 1_555 1_555
C18 C17 1_555 1_555
H10 C18 1_555 1_555
C19 C18 1_555 1_555
C20 C19 1_555 1_555
H11 C20 1_555 1_555
C21 C16 1_555 1_555
H12 C21 1_555 1_555
C22 O9 1_555 1_555
C23 C22 1_555 1_555
C24 C23 1_555 1_555
H13 C24 1_555 1_555
C25 C24 1_555 1_555
H14 C25 1_555 1_555
C26 C25 1_555 1_555
C27 C26 1_555 1_555
H15 C27 1_555 1_555
C28 C23 1_555 1_555
H16 C28 1_555 1_555
C29 O13 1_555 1_555
C30 C29 1_555 1_555
C31 C30 1_555 1_555
H17 C31 1_555 1_555
C32 C31 1_555 1_555
H18 C32 1_555 1_555
C33 C32 1_555 1_555
C34 C33 1_555 1_555
H19 C34 1_555 1_555
C35 C30 1_555 1_555
H20 C35 1_555 1_555
C36 O11 1_555 1_555
C37 C36 1_555 1_555
C38 C37 1_555 1_555
H21 C38 1_555 1_555
C39 C38 1_555 1_555
H22 C39 1_555 1_555
C40 C39 1_555 1_555
C41 C40 1_555 1_555
H23 C41 1_555 1_555
C42 C37 1_555 1_555
H24 C42 1_555 1_555
C43 O17 1_555 1_555
C44 C43 1_555 1_555
C45 C44 1_555 1_555
H25 C45 1_555 1_555
C46 C45 1_555 1_555
H26 C46 1_555 1_555
C47 C46 1_555 1_555
C48 C47 1_555 1_555
H27 C48 1_555 1_555
C49 C44 1_555 1_555
H28 C49 1_555 1_555
C50 O15 1_555 1_555
C51 C50 1_555 1_555
C52 C51 1_555 1_555
H29 C52 1_555 1_555
C53 C52 1_555 1_555
H30 C53 1_555 1_555
C54 C53 1_555 1_555
C55 C54 1_555 1_555
H31 C55 1_555 1_555
C56 C51 1_555 1_555
H32 C56 1_555 1_555
C57 O19 1_555 1_555
C58 C57 1_555 1_555
C59 C58 1_555 1_555
H33 C59 1_555 1_555
C60 C59 1_555 1_555
H34 C60 1_555 1_555
C61 C58 1_555 1_555
H35 C61 1_555 1_555
C62 O20 1_555 1_555
C63 C62 1_555 1_555
C64 C63 1_555 1_555
H36 C64 1_555 1_555
C65 C64 1_555 1_555
H37 C65 1_555 1_555
C66 C65 1_555 1_555
C67 C63 1_555 1_555
H38 C67 1_555 1_555
C68 C66 1_555 1_555
H39 C68 1_555 1_555
C69 C60 1_555 1_555
C70 C61 1_555 1_555
H40 C70 1_555 1_555
C71 C5 1_555 1_555
H41 C71 1_555 1_555
H42 C71 1_555 1_555
H43 C71 1_555 1_555
C72 C12 1_555 1_555
H44 C72 1_555 1_555
H45 C72 1_555 1_555
H46 C72 1_555 1_555
C73 C54 1_555 1_555
H47 C73 1_555 1_555
H48 C73 1_555 1_555
H49 C73 1_555 1_555
C74 C26 1_555 1_555
H50 C74 1_555 1_555
H51 C74 1_555 1_555
H52 C74 1_555 1_555
C75 C66 1_555 1_555
H53 C75 1_555 1_555
H54 C75 1_555 1_555
H55 C75 1_555 1_555
C76 C40 1_555 1_555
H56 C76 1_555 1_555
H57 C76 1_555 1_555
H58 C76 1_555 1_555
C77 C19 1_555 1_555
H59 C77 1_555 1_555
H60 C77 1_555 1_555
H61 C77 1_555 1_555
C78 C33 1_555 1_555
H62 C78 1_555 1_555
H63 C78 1_555 1_555
H64 C78 1_555 1_555
C79 C69 1_555 1_555
H65 C79 1_555 1_555
H66 C79 1_555 1_555
H67 C79 1_555 1_555
C80 C47 1_555 1_555
H68 C80 1_555 1_555
H69 C80 1_555 1_555
H70 C80 1_555 1_555
N1 H71 1_555 1_555
N2 H72 1_555 1_555
H73 N2 1_555 1_555
N3 H74 1_555 1_555
H75 N3 1_555 1_555
C81 N1 1_555 1_555
C82 C81 1_555 1_555
H76 C82 1_555 1_555
C83 N3 1_555 1_555
C84 C83 1_555 1_555
C85 C84 1_555 1_555
H77 C85 1_555 1_555
C86 C81 1_555 1_555
C87 C86 1_555 1_555
H78 C87 1_555 1_555
C88 C87 1_555 1_555
C89 C88 1_555 1_555
H79 C89 1_555 1_555
C90 C89 1_555 1_555
C91 N2 1_555 1_555
C92 C91 1_555 1_555
H80 C92 1_555 1_555
C93 N1 1_555 1_555
C94 C84 1_555 1_555
H81 C94 1_555 1_555
H82 C94 1_555 1_555
H83 C94 1_555 1_555
C95 C90 1_555 1_555
H84 C95 1_555 1_555
H85 C95 1_555 1_555
H86 C95 1_555 1_555
N4 H87 1_555 1_555
N5 H88 1_555 1_555
H89 N5 1_555 1_555
N6 H90 1_555 1_555
H91 N6 1_555 1_555
C96 N4 1_555 1_555
C97 C96 1_555 1_555
H92 C97 1_555 1_555
C98 N6 1_555 1_555
C99 C98 1_555 1_555
C100 C99 1_555 1_555
H93 C100 1_555 1_555
C101 C96 1_555 1_555
C102 C101 1_555 1_555
H94 C102 1_555 1_555
C103 C102 1_555 1_555
C104 C103 1_555 1_555
H95 C104 1_555 1_555
C105 C104 1_555 1_555
C106 N5 1_555 1_555
C107 C106 1_555 1_555
H96 C107 1_555 1_555
C108 N4 1_555 1_555
C109 C99 1_555 1_555
H97 C109 1_555 1_555
H98 C109 1_555 1_555
H99 C109 1_555 1_555
C110 C105 1_555 1_555
H100 C110 1_555 1_555
H101 C110 1_555 1_555
H102 C110 1_555 1_555
Mn2_2 O7 1_555 1_555
O7_2 Mn2 1_555 1_555
O8_2 Mn2 1_555 1_555
Mn4 O11 1_555 1_555
O4 C8 1_555 1_555
O6 C15 1_555 1_555
O8 Mn2_2 1_555 1_555
O12 C36 1_555 1_555
O14 C29 1_555 1_555
O18 C43 1_555 1_555
C6 C7 1_555 1_555
C13 C14 1_555 1_555
C20 C21 1_555 1_555
C27 C28 1_555 1_555
C34 C35 1_555 1_555
C41 C42 1_555 1_555
C48 C49 1_555 1_555
C55 C56 1_555 1_555
C67 C68 1_555 1_555
C69 C70 1_555 1_555
C82 C83 1_555 1_555
C85 C86 1_555 1_555
C88 C93 1_555 1_555
C90 C91 1_555 1_555
C92 C93 1_555 1_555
C97 C98 1_555 1_555
C100 C101 1_555 1_555
C103 C108 1_555 1_555
C105 C106 1_555 1_555
C107 C108 1_555 1_555

#END
