
#######################################################################
#
#                 Cambridge Crystallographic Data Centre
#                                CCDC 
#
#######################################################################
#
# If this CIF has been generated from an entry in the Cambridge 
# Structural Database, then it will include bibliographic, chemical, 
# crystal, experimental, refinement or atomic coordinate data resulting 
# from the CCDC's data processing and validation procedures.
#
#######################################################################

data_GEXFOG
_symmetry_cell_setting           triclinic
_symmetry_space_group_name_H-M   'P -1'
_symmetry_Int_Tables_number      2
_space_group_name_Hall           '-P 1'
loop_
_symmetry_equiv_pos_site_id
_symmetry_equiv_pos_as_xyz
1 x,y,z
2 -x,-y,-z
_cell_length_a                   8.901(3)
_cell_length_b                   13.883(5)
_cell_length_c                   17.787(6)
_cell_angle_alpha                75.295(10)
_cell_angle_beta                 77.174(11)
_cell_angle_gamma                85.833(10)
_cell_volume                     2072.64
loop_
_atom_site_label
_atom_site_type_symbol
_atom_site_fract_x
_atom_site_fract_y
_atom_site_fract_z
Ag1 Ag -0.92370(12) 0.07433(9) 0.04630(8)
Ag2 Ag -2.43110(13) 0.51401(12) 0.58388(7)
O1 O -1.6385(10) 0.5601(7) 0.1486(6)
C1 C -1.6571(16) 0.4791(14) 0.2020(10)
C2 C -1.7747(14) 0.4596(13) 0.2762(8)
H1 H -1.7843 0.3973 0.3118
C3 C -1.5539(15) 0.3915(12) 0.1882(8)
H2 H -1.5648 0.3312 0.2263
N1 N -2.2371(8) 0.5170(10) 0.4865(5)
C4 C -2.1498(12) 0.4313(7) 0.4797(6)
H3 H -2.1755 0.3716 0.5174
C5 C -2.0242(11) 0.4347(7) 0.4168(7)
H4 H -1.9658 0.3773 0.4123
C6 C -1.9858(9) 0.5239(9) 0.3605(5)
C7 C -2.0730(13) 0.6097(7) 0.3672(6)
H5 H -2.0473 0.6693 0.3296
C8 C -2.1987(11) 0.6062(8) 0.4302(7)
H6 H -2.2570 0.6636 0.4347
C9 C -1.8622(15) 0.5322(14) 0.2888(7)
H7 H -1.8480 0.5931 0.2515
N2 N -1.0968(15) 0.1753(10) 0.0733(9)
C10 C -1.1249(14) 0.2550(14) 0.0178(10)
H8 H -1.0649 0.2609 -0.0331
C11 C -1.2329(14) 0.3291(11) 0.0274(7)
H9 H -1.2427 0.3836 -0.0144
C12 C -1.3298(13) 0.3187(11) 0.1049(10)
C13 C -1.3063(14) 0.2257(13) 0.1624(9)
H10 H -1.3711 0.2116 0.2125
C14 C -1.1953(17) 0.1610(11) 0.1451(10)
H11 H -1.1845 0.1032 0.1838
C15 C -1.4505(15) 0.4006(9) 0.1235(8)
H12 H -1.4479 0.4605 0.0852
O2 O -3.1989(10) 0.5793(7) 1.0028(6)
C16 C -3.2016(14) 0.6468(11) 0.9403(9)
C17 C -3.3035(12) 0.7306(8) 0.9455(7)
H13 H -3.2987 0.7820 0.8999
C18 C -3.0881(13) 0.6435(10) 0.8737(8)
H14 H -3.0799 0.6982 0.8302
N3 N -3.7500(15) 0.9653(10) 1.0333(10)
C19 C -3.6504(16) 0.9710(10) 0.9670(10)
H15 H -3.6553 1.0273 0.9259
C20 C -3.5344(12) 0.8982(9) 0.9519(8)
H16 H -3.4728 0.9031 0.9015
C21 C -3.5169(13) 0.8195(10) 1.0154(9)
C22 C -3.6140(14) 0.8174(9) 1.0896(9)
H17 H -3.6019 0.7686 1.1347
C23 C -3.7261(17) 0.8887(14) 1.0938(11)
H18 H -3.7926 0.8843 1.1428
C24 C -3.4027(12) 0.7404(9) 1.0094(9)
H19 H -3.3998 0.6916 1.0558
N4 N -2.6188(14) 0.5351(12) 0.6713(8)
C25 C -2.6676(16) 0.4567(13) 0.7379(12)
H20 H -2.6200 0.3944 0.7405
C26 C -2.7892(15) 0.4708(10) 0.8020(7)
H21 H -2.8192 0.4191 0.8469
C27 C -2.8608(15) 0.5629(14) 0.7956(12)
C28 C -2.8261(19) 0.6367(15) 0.7297(9)
H22 H -2.8859 0.6948 0.7231
C29 C -2.6999(15) 0.6244(12) 0.6719(7)
H23 H -2.6667 0.6795 0.6305
C30 C -2.9927(12) 0.5697(10) 0.8677(7)
H24 H -3.0044 0.5150 0.9113
Ag1_2 Ag -3.92370(12) 1.07433(9) 1.04630(8)
N3_2 N -0.7500(15) -0.0347(10) 0.0333(10)
Cl1 Cl 0.1538(7) 0.1792(5) -0.1830(4)
O3 O 0.0237(14) 0.2465(7) -0.1904(7)
O4 O 0.2677(18) 0.2023(11) -0.2489(10)
O5 O 0.207(2) 0.1963(12) -0.1221(13)
O6 O 0.1120(14) 0.0858(10) -0.1730(9)
loop_
_geom_bond_atom_site_label_1
_geom_bond_atom_site_label_2
_geom_bond_site_symmetry_1
_geom_bond_site_symmetry_2
Ag1 N2 1_555 1_555
Ag2 N1 1_555 1_555
O1 C1 1_555 1_555
C1 C2 1_555 1_555
C2 H1 1_555 1_555
C3 C1 1_555 1_555
H2 C3 1_555 1_555
N1 C4 1_555 1_555
C4 H3 1_555 1_555
C5 C4 1_555 1_555
H4 C5 1_555 1_555
C6 C5 1_555 1_555
C7 C6 1_555 1_555
H5 C7 1_555 1_555
C8 N1 1_555 1_555
H6 C8 1_555 1_555
C9 C2 1_555 1_555
H7 C9 1_555 1_555
N2 C10 1_555 1_555
C10 H8 1_555 1_555
C11 C10 1_555 1_555
H9 C11 1_555 1_555
C12 C11 1_555 1_555
C13 C12 1_555 1_555
H10 C13 1_555 1_555
C14 N2 1_555 1_555
H11 C14 1_555 1_555
C15 C3 1_555 1_555
H12 C15 1_555 1_555
O2 C16 1_555 1_555
C16 C17 1_555 1_555
C17 H13 1_555 1_555
C18 C16 1_555 1_555
H14 C18 1_555 1_555
N3 C19 1_555 1_555
C19 H15 1_555 1_555
C20 C19 1_555 1_555
H16 C20 1_555 1_555
C21 C20 1_555 1_555
C22 C21 1_555 1_555
H17 C22 1_555 1_555
C23 N3 1_555 1_555
H18 C23 1_555 1_555
C24 C17 1_555 1_555
H19 C24 1_555 1_555
N4 Ag2 1_555 1_555
C25 N4 1_555 1_555
H20 C25 1_555 1_555
C26 C25 1_555 1_555
H21 C26 1_555 1_555
C27 C26 1_555 1_555
C28 C27 1_555 1_555
H22 C28 1_555 1_555
C29 N4 1_555 1_555
H23 C29 1_555 1_555
C30 C18 1_555 1_555
H24 C30 1_555 1_555
Cl1 O3 1_555 1_555
O4 Cl1 1_555 1_555
O5 Cl1 1_555 1_555
O6 Cl1 1_555 1_555
Ag1_2 N3 1_555 1_555
N3_2 Ag1 1_555 1_555
C6 C9 1_555 1_555
C7 C8 1_555 1_555
C12 C15 1_555 1_555
C13 C14 1_555 1_555
C21 C24 1_555 1_555
C22 C23 1_555 1_555
C27 C30 1_555 1_555
C28 C29 1_555 1_555

#END
