
#######################################################################
#
#                 Cambridge Crystallographic Data Centre
#                                CCDC 
#
#######################################################################
#
# If this CIF has been generated from an entry in the Cambridge 
# Structural Database, then it will include bibliographic, chemical, 
# crystal, experimental, refinement or atomic coordinate data resulting 
# from the CCDC's data processing and validation procedures.
#
#######################################################################

data_GEXFUM
_symmetry_cell_setting           triclinic
_symmetry_space_group_name_H-M   'P -1'
_symmetry_Int_Tables_number      2
_space_group_name_Hall           '-P 1'
loop_
_symmetry_equiv_pos_site_id
_symmetry_equiv_pos_as_xyz
1 x,y,z
2 -x,-y,-z
_cell_length_a                   7.702(6)
_cell_length_b                   9.601(6)
_cell_length_c                   10.932(7)
_cell_angle_alpha                78.202(19)
_cell_angle_beta                 74.68(2)
_cell_angle_gamma                76.622(19)
_cell_volume                     749.603
loop_
_atom_site_label
_atom_site_type_symbol
_atom_site_fract_x
_atom_site_fract_y
_atom_site_fract_z
Ag1 Ag 0.34012(9) 0.94476(6) 0.65227(6)
C1 C 0.1501(10) 0.7651(7) -0.0482(7)
O1 O 0.0949(8) 0.8568(6) -0.1300(5)
N1 N 0.2828(8) 0.8637(7) 0.4942(6)
C2 C 0.3275(11) 0.7260(8) 0.4753(7)
H1 H 0.3786 0.6582 0.5363
C3 C 0.3039(10) 0.6770(7) 0.3739(7)
H2 H 0.3321 0.5785 0.3690
C4 C 0.2378(10) 0.7752(8) 0.2784(7)
C5 C 0.1900(11) 0.9195(8) 0.2956(7)
H3 H 0.1420 0.9894 0.2346
C6 C 0.2141(10) 0.9588(8) 0.4035(7)
H4 H 0.1810 1.0560 0.4136
C7 C 0.2216(11) 0.7255(9) 0.1637(7)
H5 H 0.2517 0.6265 0.1608
C8 C 0.1688(11) 0.8093(8) 0.0673(7)
H6 H 0.1395 0.9081 0.0714
N2 N 0.2865(8) 0.1548(6) -0.2770(5)
C9 C 0.3135(10) 0.1687(8) -0.1665(6)
H7 H 0.3593 0.0860 -0.1151
C10 C 0.2771(10) 0.3000(8) -0.1234(7)
H8 H 0.2995 0.3045 -0.0449
C11 C 0.2076(10) 0.4242(7) -0.1967(7)
C12 C 0.1715(10) 0.4100(7) -0.3100(7)
H9 H 0.1183 0.4899 -0.3608
C13 C 0.2170(11) 0.2726(8) -0.3467(7)
H10 H 0.1969 0.2640 -0.4248
C14 C 0.1650(10) 0.5721(7) -0.1630(6)
H11 H 0.1065 0.6448 -0.2170
C15 C 0.1997(11) 0.6120(8) -0.0667(7)
H12 H 0.2564 0.5434 -0.0090
N3 N 0.6316(10) 0.7187(7) 0.7600(7)
O2 O 0.5972(12) 0.7225(10) 0.6577(6)
O3 O 0.5414(11) 0.8114(9) 0.8264(8)
O4 O 0.7508(13) 0.6274(9) 0.8001(11)
Ag1_2 Ag 0.34012(9) -0.05524(6) -0.34773(6)
N2_2 N 0.2865(8) 1.1548(6) 0.7230(5)
loop_
_geom_bond_atom_site_label_1
_geom_bond_atom_site_label_2
_geom_bond_site_symmetry_1
_geom_bond_site_symmetry_2
Ag1 N1 1_555 1_555
C1 O1 1_555 1_555
N1 C2 1_555 1_555
C2 H1 1_555 1_555
C3 C2 1_555 1_555
H2 C3 1_555 1_555
C4 C3 1_555 1_555
C5 C4 1_555 1_555
H3 C5 1_555 1_555
C6 N1 1_555 1_555
H4 C6 1_555 1_555
C7 C4 1_555 1_555
H5 C7 1_555 1_555
C8 C1 1_555 1_555
H6 C8 1_555 1_555
N2 C9 1_555 1_555
C9 H7 1_555 1_555
C10 C9 1_555 1_555
H8 C10 1_555 1_555
C11 C10 1_555 1_555
C12 C11 1_555 1_555
H9 C12 1_555 1_555
C13 N2 1_555 1_555
H10 C13 1_555 1_555
C14 C11 1_555 1_555
H11 C14 1_555 1_555
C15 C1 1_555 1_555
H12 C15 1_555 1_555
N3 O2 1_555 1_555
O2 Ag1 1_555 1_555
O3 Ag1 1_555 1_555
O4 N3 1_555 1_555
Ag1_2 N2 1_555 1_555
N2_2 Ag1 1_555 1_555
C5 C6 1_555 1_555
C7 C8 1_555 1_555
C12 C13 1_555 1_555
C14 C15 1_555 1_555
N3 O3 1_555 1_555

#END
