
#######################################################################
#
#                 Cambridge Crystallographic Data Centre
#                                CCDC 
#
#######################################################################
#
# If this CIF has been generated from an entry in the Cambridge 
# Structural Database, then it will include bibliographic, chemical, 
# crystal, experimental, refinement or atomic coordinate data resulting 
# from the CCDC's data processing and validation procedures.
#
#######################################################################

data_GEXGOH
_symmetry_cell_setting           monoclinic
_symmetry_space_group_name_H-M   'P 21/c'
_symmetry_Int_Tables_number      14
_space_group_name_Hall           '-P 2ybc'
loop_
_symmetry_equiv_pos_site_id
_symmetry_equiv_pos_as_xyz
1 x,y,z
2 -x,1/2+y,1/2-z
3 -x,-y,-z
4 x,1/2-y,1/2+z
_cell_length_a                   9.817(4)
_cell_length_b                   20.687(9)
_cell_length_c                   13.830(6)
_cell_angle_alpha                90
_cell_angle_beta                 90.020
_cell_angle_gamma                90
_cell_volume                     2808.66
loop_
_atom_site_label
_atom_site_type_symbol
_atom_site_fract_x
_atom_site_fract_y
_atom_site_fract_z
Cd1 Cd 0.0313(1) 0.4769 0.1365
Cd2 Cd 0.0253(1) 0.5366 0.3713
O1 O 0.1153(6) 0.5313(3) 0.5318(4)
O2 O 0.2859(6) 0.4328(3) -0.1256(4)
O3 O 0.3063(6) 0.4303(3) 0.3812(4)
O4 O 0.1157(6) 0.4452(3) 0.2967(3)
O5 O 0.1164(6) 0.4703(3) -0.0304(4)
O6 O 0.2869(7) 0.5613(4) 0.6250(4)
C1 C 0.4651(8) 0.4199(4) 0.2093(6)
H1 H 0.5127 0.4148 0.2669
C2 C 0.2335(8) 0.5534(4) 0.5447(5)
O7 O 0.1077(6) 0.5743(3) 0.2058(4)
O8 O 0.2951(7) 0.6038(4) 0.1227(4)
C3 C 0.3213(8) 0.4364(4) 0.0424(5)
N1 N 0.2479(6) 0.5759(3) 0.3731(4)
C4 C 0.5277(9) 0.5926(5) 0.3738(6)
H2 H 0.6219 0.5973 0.3745
C5 C 0.2431(8) 0.4352(4) 0.3061(5)
N2 N 0.2549(6) 0.4404(3) 0.1287(4)
C6 C 0.3171(8) 0.5728(4) 0.4549(5)
C7 C 0.2345(9) 0.5909(4) 0.1977(6)
C8 C 0.4598(8) 0.4234(4) 0.0357(6)
H3 H 0.5018 0.4196 -0.0243
C9 C 0.2352(8) 0.4467(4) -0.0452(6)
C10 C 0.5344(9) 0.4162(5) 0.1205(6)
H4 H 0.6278 0.4090 0.1185
C11 C 0.4574(9) 0.5978(5) 0.2887(6)
H5 H 0.5024 0.6067 0.2311
C12 C 0.3261(8) 0.4312(4) 0.2109(6)
C13 C 0.3160(8) 0.5893(4) 0.2907(5)
C14 C 0.4572(8) 0.5803(4) 0.4598(6)
H6 H 0.5030 0.5772 0.5185
O9 O -0.1391(6) 0.5086(3) 0.2540(4)
N3 N -0.0735(8) 0.3792(4) 0.1234(6)
N4 N -0.9188(8) 0.1321(4) 0.0932(6)
C15 C -0.1048(9) 0.3519(5) 0.0405(7)
H7 H -0.0875 0.3704 -0.0195
N5 N -0.1650(9) 0.2941(4) 0.0528(7)
N6 N -0.8545(9) 0.2161(4) 0.0058(7)
C16 C -0.9003(9) 0.1552(4) 0.0039(7)
H8 H -0.9171 0.1320 -0.0524
C17 C -0.1184(12) 0.3362(6) 0.1938(8)
H9 H -0.1124 0.3427 0.2602
C18 C -0.8762(13) 0.1791(6) 0.1539(9)
H10 H -0.8731 0.1761 0.2210
C19 C -0.8383(14) 0.2319(6) 0.1002(10)
H11 H -0.8073 0.2712 0.1242
C20 C -0.8222(11) 0.2580(6) -0.0785(10)
H12 H -0.8727 0.2981 -0.0725
H13 H -0.8529 0.2366 -0.1370
C21 C -0.1712(13) 0.2843(6) 0.1514(9)
H14 H -0.2059 0.2480 0.1825
C22 C -0.5858(11) 0.2152(5) -0.1126(9)
H15 H -0.6146 0.1981 -0.1746
H16 H -0.6026 0.1822 -0.0643
C23 C -0.373(1) 0.2544(5) -0.0222(9)
H17 H -0.4052 0.2982 -0.0117
H18 H -0.4049 0.2278 0.0309
C24 C -0.2186(11) 0.2540(6) -0.0242(10)
H19 H -0.1857 0.2101 -0.0166
H20 H -0.1868 0.2701 -0.0861
C25 C -0.6716(12) 0.2738(6) -0.0889(10)
H21 H -0.6603 0.3057 -0.1396
H22 H -0.6391 0.2927 -0.0290
C26 C -0.4309(12) 0.2288(6) -0.1167(9)
H23 H -0.4132 0.2600 -0.1674
H24 H -0.3838 0.1891 -0.1335
H25 H -0.202(9) 0.537(4) 0.251(10)
H26 H -0.168(12) 0.472(3) 0.238(10)
Cd1B Cd -0.0313(1) 0.5231 -0.1365
Cd2A Cd -1.0253(1) 0.0366 0.1287
Cd2B Cd -0.0253(1) 0.4634 0.6287
O1B O -0.1153(6) 0.4687(3) 0.4682(4)
O5B O -0.1164(6) 0.5297(3) 0.0304(4)
N4A N -0.0812(8) 0.6321(4) 0.4068(6)
loop_
_geom_bond_atom_site_label_1
_geom_bond_atom_site_label_2
_geom_bond_site_symmetry_1
_geom_bond_site_symmetry_2
Cd1 O4 1_555 1_555
Cd2 O1 1_555 1_555
O1 C2 1_555 1_555
O2 C9 1_555 1_555
O3 C5 1_555 1_555
O4 Cd2 1_555 1_555
O5 Cd1 1_555 1_555
O6 C2 1_555 1_555
C1 H1 1_555 1_555
C2 C6 1_555 1_555
O7 Cd1 1_555 1_555
O8 C7 1_555 1_555
C3 N2 1_555 1_555
N1 Cd2 1_555 1_555
C4 H2 1_555 1_555
C5 O4 1_555 1_555
N2 Cd1 1_555 1_555
C6 N1 1_555 1_555
C7 O7 1_555 1_555
C8 C3 1_555 1_555
H3 C8 1_555 1_555
C9 O5 1_555 1_555
C10 C1 1_555 1_555
H4 C10 1_555 1_555
C11 C4 1_555 1_555
H5 C11 1_555 1_555
C12 C1 1_555 1_555
C13 N1 1_555 1_555
C14 C4 1_555 1_555
H6 C14 1_555 1_555
O9 Cd1 1_555 1_555
N3 Cd1 1_555 1_555
N4 C16 1_555 1_555
C15 N3 1_555 1_555
H7 C15 1_555 1_555
N5 C15 1_555 1_555
N6 C16 1_555 1_555
C16 H8 1_555 1_555
C17 N3 1_555 1_555
H9 C17 1_555 1_555
C18 N4 1_555 1_555
H10 C18 1_555 1_555
C19 N6 1_555 1_555
H11 C19 1_555 1_555
C20 N6 1_555 1_555
H12 C20 1_555 1_555
H13 C20 1_555 1_555
C21 N5 1_555 1_555
H14 C21 1_555 1_555
C22 H15 1_555 1_555
H16 C22 1_555 1_555
C23 H17 1_555 1_555
H18 C23 1_555 1_555
C24 N5 1_555 1_555
H19 C24 1_555 1_555
H20 C24 1_555 1_555
C25 C20 1_555 1_555
H21 C25 1_555 1_555
H22 C25 1_555 1_555
C26 C22 1_555 1_555
H23 C26 1_555 1_555
H24 C26 1_555 1_555
H25 O9 1_555 1_555
H26 O9 1_555 1_555
Cd1B O5 1_555 1_555
Cd2A N4 1_555 1_555
Cd2B O1 1_555 1_555
O1B Cd2 1_555 1_555
O5B Cd1 1_555 1_555
N4A Cd2 1_555 1_555
Cd2 O7 1_555 1_555
Cd2 O9 1_555 1_555
C3 C9 1_555 1_555
C5 C12 1_555 1_555
N2 C12 1_555 1_555
C6 C14 1_555 1_555
C7 C13 1_555 1_555
C8 C10 1_555 1_555
C11 C13 1_555 1_555
C17 C21 1_555 1_555
C18 C19 1_555 1_555
C22 C25 1_555 1_555
C23 C24 1_555 1_555
C23 C26 1_555 1_555
Cd1B O5B 1_555 1_555
Cd2B O1B 1_555 1_555

#END
