
#######################################################################
#
#                 Cambridge Crystallographic Data Centre
#                                CCDC 
#
#######################################################################
#
# If this CIF has been generated from an entry in the Cambridge 
# Structural Database, then it will include bibliographic, chemical, 
# crystal, experimental, refinement or atomic coordinate data resulting 
# from the CCDC's data processing and validation procedures.
#
#######################################################################

data_GEXPEE
_symmetry_cell_setting           monoclinic
_symmetry_space_group_name_H-M   'P 2/c'
_symmetry_Int_Tables_number      13
_space_group_name_Hall           '-P 2yc'
loop_
_symmetry_equiv_pos_site_id
_symmetry_equiv_pos_as_xyz
1 x,y,z
2 -x,y,1/2-z
3 -x,-y,-z
4 x,-y,1/2+z
_cell_length_a                   10.842(1)
_cell_length_b                   8.725(2)
_cell_length_c                   16.366(4)
_cell_angle_alpha                90
_cell_angle_beta                 93.50(1)
_cell_angle_gamma                90
_cell_volume                     1545.28
loop_
_atom_site_label
_atom_site_type_symbol
_atom_site_fract_x
_atom_site_fract_y
_atom_site_fract_z
Eu1 Eu -0.0256(1) 0.2949(1) 0.4471(1)
O1 O 0.2289(4) 0.8078(4) 0.2221(2)
O2 O 0.0870(3) 0.4179(3) 0.3301(2)
O3 O -0.0265(3) 0.4323(3) 0.5732(2)
O4 O -0.0600(3) -0.0824(3) 0.6159(2)
O5 O 0.0231(3) 0.1256(3) 0.5629(2)
O6 O 0.5640(3) 0.3947(5) 0.6340(3)
O7 O 0.1965(3) 0.3268(4) 0.4874(2)
O8 O -0.2162(3) 0.4475(4) 0.4478(3)
O9 O 0.3514(3) 0.1584(5) 0.4157(3)
O10 O 0.5499(3) 0.1111(5) 0.4264(3)
O11 O -0.1945(3) 0.1095(4) 0.4598(2)
O12 O -0.1436(4) 0.2800(5) 0.3133(2)
C1 C 0.1789(5) 0.9139(5) 0.2714(3)
C2 C 0.1159(4) 0.8470(5) 0.3304(3)
C3 C 0.1261(4) 0.6831(5) 0.3164(3)
C4 C 0.1944(5) 0.6689(5) 0.2506(3)
C5 C 0.0785(4) 0.5511(5) 0.3592(3)
C6 C -0.0465(4) 0.0607(5) 0.6114(3)
C7 C 0.5748(3) 0.2856(7) 0.5751(4)
C8 C 0.4701(4) 0.2747(6) 0.5264(3)
C9 C 0.3856(4) 0.3873(5) 0.5574(3)
C10 C 0.4478(5) 0.4541(7) 0.6202(4)
C11 C 0.2570(4) 0.4267(5) 0.5304(3)
C12 C 0.4607(5) 0.1753(5) 0.4546(4)
O3B O 0.0265(3) 0.5677(3) 0.4268(2)
Eu1B Eu 0.0256(1) 0.7051(1) 0.5529(1)
C5B C -0.0785(4) 0.4489(5) 0.6408(3)
C11B C -0.2570(4) 0.5733(5) 0.4696(3)
C6B C 0.0465(4) 0.9393(5) 0.3886(3)
O8B O 0.2162(3) 0.5525(4) 0.5522(3)
O2B O -0.0870(3) 0.5821(3) 0.6699(2)
O4_2 O -0.0600(3) 0.9176(3) 0.6159(2)
O5B O -0.0231(3) 0.8744(3) 0.4371(2)
O7B O -0.1965(3) 0.6732(4) 0.5126(2)
O11B O 0.1945(3) 0.8905(4) 0.5402(2)
O12B O 0.1436(4) 0.7200(5) 0.6867(2)
C3B C -0.1261(4) 0.3169(5) 0.6836(3)
O4B O 0.0600(3) 0.0824(3) 0.3841(2)
C2B C -0.1159(4) 0.1530(5) 0.6696(3)
C9B C -0.3856(4) 0.6127(5) 0.4426(3)
Eu1B_2 Eu 0.0256(1) -0.2949(1) 0.5529(1)
C4B C -0.1944(5) 0.3311(5) 0.7494(3)
C1B C -0.1789(5) 0.0861(5) 0.7286(3)
C8B C -0.4701(4) 0.7253(6) 0.4736(3)
C10B C -0.4478(5) 0.5459(7) 0.3798(4)
O1B O -0.2289(4) 0.1922(4) 0.7779(2)
C7B C -0.5748(3) 0.7144(7) 0.4249(4)
C12B C -0.4607(5) 0.8247(5) 0.5454(4)
O6B O -0.5640(3) 0.6053(5) 0.3660(3)
O9B O -0.3514(3) 0.8416(5) 0.5843(3)
O10B O -0.5499(3) 0.8889(5) 0.5736(3)
O4B_2 O 0.0600(3) 1.0824(3) 0.3841(2)
Eu1_2 Eu -0.0256(1) 1.2949(1) 0.4471(1)
O13 O -0.3799(7) 0.2251(13) 0.2613(5)
loop_
_geom_bond_atom_site_label_1
_geom_bond_atom_site_label_2
_geom_bond_site_symmetry_1
_geom_bond_site_symmetry_2
Eu1 O2 1_555 1_555
O1 C1 1_555 1_555
O2 C5 1_555 1_555
O3 Eu1 1_555 1_555
O4 C6 1_555 1_555
O5 Eu1 1_555 1_555
O6 C7 1_555 1_555
O7 Eu1 1_555 1_555
O8 Eu1 1_555 1_555
O9 C12 1_555 1_555
O10 C12 1_555 1_555
O11 Eu1 1_555 1_555
O12 Eu1 1_555 1_555
C1 C2 1_555 1_555
C2 C3 1_555 1_555
C3 C4 1_555 1_555
C4 O1 1_555 1_555
C5 C3 1_555 1_555
C6 O5 1_555 1_555
C7 C8 1_555 1_555
C8 C9 1_555 1_555
C9 C10 1_555 1_555
C10 O6 1_555 1_555
C11 O7 1_555 1_555
C12 C8 1_555 1_555
O3B Eu1 1_555 1_555
Eu1B O3 1_555 1_555
C5B O3 1_555 1_555
C11B O8 1_555 1_555
C6B C2 1_555 1_555
O8B C11 1_555 1_555
O2B Eu1B 1_555 1_555
O4_2 Eu1B 1_555 1_555
O5B Eu1B 1_555 1_555
O7B Eu1B 1_555 1_555
O11B Eu1B 1_555 1_555
O12B Eu1B 1_555 1_555
C3B C5B 1_555 1_555
O4B Eu1 1_555 1_555
C2B C6 1_555 1_555
C9B C11B 1_555 1_555
Eu1B_2 O4 1_555 1_555
C4B C3B 1_555 1_555
C1B C2B 1_555 1_555
C8B C9B 1_555 1_555
C10B C9B 1_555 1_555
O1B C4B 1_555 1_555
C7B C8B 1_555 1_555
C12B C8B 1_555 1_555
O6B C10B 1_555 1_555
O9B C12B 1_555 1_555
O10B C12B 1_555 1_555
O4B_2 C6B 1_555 1_555
Eu1_2 O4B_2 1_555 1_555
C5 O3B 1_555 1_555
C9 C11 1_555 1_555
O3B Eu1B 1_555 1_555
Eu1B O8B 1_555 1_555
C5B O2B 1_555 1_555
C11B O7B 1_555 1_555
C6B O5B 1_555 1_555
C3B C2B 1_555 1_555
C1B O1B 1_555 1_555
C7B O6B 1_555 1_555

#END
