
#######################################################################
#
#                 Cambridge Crystallographic Data Centre
#                                CCDC 
#
#######################################################################
#
# If this CIF has been generated from an entry in the Cambridge 
# Structural Database, then it will include bibliographic, chemical, 
# crystal, experimental, refinement or atomic coordinate data resulting 
# from the CCDC's data processing and validation procedures.
#
#######################################################################

data_GEXREI
_symmetry_cell_setting           monoclinic
_symmetry_space_group_name_H-M   'C 2/c'
_symmetry_Int_Tables_number      15
_space_group_name_Hall           '-C 2yn'
loop_
_symmetry_equiv_pos_site_id
_symmetry_equiv_pos_as_xyz
1 x,y,z
2 -x,y,1/2-z
3 1/2+x,1/2+y,z
4 1/2-x,1/2+y,1/2-z
5 -x,-y,-z
6 x,-y,1/2+z
7 1/2-x,1/2-y,-z
8 1/2+x,1/2-y,1/2+z
_cell_length_a                   17.844(4)
_cell_length_b                   9.4331(19)
_cell_length_c                   12.098(2)
_cell_angle_alpha                90
_cell_angle_beta                 121.73(3)
_cell_angle_gamma                90
_cell_volume                     1732.02
loop_
_atom_site_label
_atom_site_type_symbol
_atom_site_fract_x
_atom_site_fract_y
_atom_site_fract_z
Er1 Er 0.0000 0.33955(4) 0.2500
N1 N 0.0000 0.0762(8) 0.2500
N2 N 0.0860(4) 0.2359(7) 0.1682(6)
N3 N -0.1645(5) 0.3541(6) 0.0095(8)
O1 O -0.1504(4) 0.4247(7) 0.1085(6)
O2 O -0.2339(5) 0.3607(8) -0.0935(8)
O3 O -0.1007(4) 0.2760(7) 0.0270(6)
O4 O 0.0134(4) -0.4394(5) 0.1706(6)
C1 C 0.1878(6) 0.1220(10) 0.0801(10)
H1 H 0.2213 0.0841 0.0488
C2 C 0.0000 -0.2152(9) 0.2500
C3 C 0.1827(6) 0.2670(10) 0.0899(10)
H2 H 0.2142 0.3282 0.0689
C4 C 0.1434(5) 0.0338(8) 0.1165(8)
H3 H 0.1476 -0.0642 0.1127
C5 C 0.1296(6) 0.3184(8) 0.1317(10)
H4 H 0.1238 0.4161 0.1346
C6 C 0.0430(5) -0.1422(7) 0.1999(9)
H5 H 0.0706 -0.1906 0.1640
C7 C 0.0440(4) 0.0052(7) 0.2045(7)
C8 C 0.0919(5) 0.0932(8) 0.1593(7)
C9 C 0.0000 -0.3734(13) 0.2500
N2A N -0.0860(4) 0.2359(7) 0.3318(6)
O4A O -0.0134(4) -0.4394(5) 0.3294(6)
C1A C -0.1878(6) 0.1220(10) 0.4199(10)
H1A H -0.2213 0.0841 0.4512
C3A C -0.1827(6) 0.2670(10) 0.4101(10)
H2A H -0.2142 0.3282 0.4311
C4A C -0.1434(5) 0.0338(8) 0.3835(8)
H3A H -0.1476 -0.0642 0.3873
C5A C -0.1296(6) 0.3184(8) 0.3683(10)
H4A H -0.1238 0.4161 0.3654
C6A C -0.0430(5) -0.1422(7) 0.3001(9)
H5A H -0.0706 -0.1906 0.3360
C7A C -0.0440(4) 0.0052(7) 0.2955(7)
C8A C -0.0919(5) 0.0932(8) 0.3407(7)
N3A N 0.1645(5) 0.3541(6) 0.4905(8)
O1A O 0.1504(4) 0.4247(7) 0.3915(6)
O2A O 0.2339(5) 0.3607(8) 0.5935(8)
O3A O 0.1007(4) 0.2760(7) 0.4730(6)
Er1_2 Er 0.0000 -0.66045(4) 0.2500
O4_2 O 0.0134(4) 0.5606(5) 0.1706(6)
O4A_2 O -0.0134(4) 0.5606(5) 0.3294(6)
loop_
_geom_bond_atom_site_label_1
_geom_bond_atom_site_label_2
_geom_bond_site_symmetry_1
_geom_bond_site_symmetry_2
Er1 N1 1_555 1_555
N1 C7 1_555 1_555
N2 Er1 1_555 1_555
N3 O1 1_555 1_555
O1 Er1 1_555 1_555
O2 N3 1_555 1_555
O3 Er1 1_555 1_555
O4 C9 1_555 1_555
C1 H1 1_555 1_555
C2 C6 1_555 1_555
C3 C1 1_555 1_555
H2 C3 1_555 1_555
C4 C1 1_555 1_555
H3 C4 1_555 1_555
C5 N2 1_555 1_555
H4 C5 1_555 1_555
C6 H5 1_555 1_555
C7 C6 1_555 1_555
C8 N2 1_555 1_555
C9 C2 1_555 1_555
N2A Er1 1_555 1_555
O4A C9 1_555 1_555
C1A H1A 1_555 1_555
C3A C1A 1_555 1_555
H2A C3A 1_555 1_555
C4A C1A 1_555 1_555
H3A C4A 1_555 1_555
C5A N2A 1_555 1_555
H4A C5A 1_555 1_555
C6A C2 1_555 1_555
H5A C6A 1_555 1_555
C7A N1 1_555 1_555
C8A N2A 1_555 1_555
N3A O1A 1_555 1_555
O1A Er1 1_555 1_555
O2A N3A 1_555 1_555
O3A Er1 1_555 1_555
Er1_2 O4 1_555 1_555
O4_2 Er1 1_555 1_555
O4A_2 Er1 1_555 1_555
N3 O3 1_555 1_555
C3 C5 1_555 1_555
C4 C8 1_555 1_555
C7 C8 1_555 1_555
O4A Er1_2 1_555 1_555
C3A C5A 1_555 1_555
C4A C8A 1_555 1_555
C6A C7A 1_555 1_555
C7A C8A 1_555 1_555
N3A O3A 1_555 1_555

#END
