
#######################################################################
#
#                 Cambridge Crystallographic Data Centre
#                                CCDC 
#
#######################################################################
#
# If this CIF has been generated from an entry in the Cambridge 
# Structural Database, then it will include bibliographic, chemical, 
# crystal, experimental, refinement or atomic coordinate data resulting 
# from the CCDC's data processing and validation procedures.
#
#######################################################################

data_GEXRIM
_symmetry_cell_setting           monoclinic
_symmetry_space_group_name_H-M   'C 2/c'
_symmetry_Int_Tables_number      15
_space_group_name_Hall           '-C 2yn'
loop_
_symmetry_equiv_pos_site_id
_symmetry_equiv_pos_as_xyz
1 x,y,z
2 -x,y,1/2-z
3 1/2+x,1/2+y,z
4 1/2-x,1/2+y,1/2-z
5 -x,-y,-z
6 x,-y,1/2+z
7 1/2-x,1/2-y,-z
8 1/2+x,1/2-y,1/2+z
_cell_length_a                   17.911(4)
_cell_length_b                   9.4700(19)
_cell_length_c                   12.016(2)
_cell_angle_alpha                90
_cell_angle_beta                 121.64(3)
_cell_angle_gamma                90
_cell_volume                     1735.18
loop_
_atom_site_label
_atom_site_type_symbol
_atom_site_fract_x
_atom_site_fract_y
_atom_site_fract_z
Dy1 Dy 0.0000 0.658606(19) 0.2500
N1 N -0.16558(19) 0.6453(3) 0.0085(3)
N2 N 0.0000 0.9227(3) 0.2500
N3 N 0.08589(17) 0.7657(3) 0.1672(2)
O1 O 0.01435(15) 1.4363(2) 0.1705(2)
O2 O -0.15075(15) 0.5740(2) 0.1071(2)
O3 O -0.10278(16) 0.7226(2) 0.0238(2)
O4 O -0.23536(18) 0.6386(3) -0.0945(3)
C1 C 0.1299(2) 0.6821(3) 0.1308(3)
H1 H 0.1254 0.5847 0.1357
C2 C 0.1814(2) 0.7344(4) 0.0867(4)
H2 H 0.2114 0.6738 0.0625
C3 C 0.1876(2) 0.8795(3) 0.0790(4)
H3 H 0.2221 0.9177 0.0496
C4 C 0.1423(2) 0.9669(3) 0.1152(3)
H4 H 0.1453 1.0645 0.1098
C5 C 0.0921(2) 0.9065(3) 0.1598(3)
C6 C 0.04322(19) 0.9934(3) 0.2048(3)
C7 C 0.0426(2) 1.1407(3) 0.1999(3)
H5 H 0.0702 1.1886 0.1638
C8 C 0.0000 1.2132(4) 0.2500
C9 C 0.0000 1.3723(4) 0.2500
N3A N -0.08589(17) 0.7657(3) 0.3328(2)
O1A O -0.01435(15) 1.4363(2) 0.3295(2)
C1A C -0.1299(2) 0.6821(3) 0.3692(3)
H1A H -0.1254 0.5847 0.3643
C2A C -0.1814(2) 0.7344(4) 0.4133(4)
H2A H -0.2114 0.6738 0.4375
C3A C -0.1876(2) 0.8795(3) 0.4210(4)
H3A H -0.2221 0.9177 0.4504
C4A C -0.1423(2) 0.9669(3) 0.3848(3)
H4A H -0.1453 1.0645 0.3902
C5A C -0.0921(2) 0.9065(3) 0.3402(3)
C6A C -0.04322(19) 0.9934(3) 0.2952(3)
C7A C -0.0426(2) 1.1407(3) 0.3001(3)
H5A H -0.0702 1.1886 0.3362
N1A N 0.16558(19) 0.6453(3) 0.4915(3)
O2A O 0.15075(15) 0.5740(2) 0.3929(2)
O3A O 0.10278(16) 0.7226(2) 0.4762(2)
O4A O 0.23536(18) 0.6386(3) 0.5945(3)
Dy1_2 Dy 0.0000 1.658606(19) 0.2500
O1_2 O 0.01435(15) 0.4363(2) 0.1705(2)
O1A_2 O -0.01435(15) 0.4363(2) 0.3295(2)
loop_
_geom_bond_atom_site_label_1
_geom_bond_atom_site_label_2
_geom_bond_site_symmetry_1
_geom_bond_site_symmetry_2
Dy1 N2 1_555 1_555
N1 O2 1_555 1_555
N2 C6 1_555 1_555
N3 Dy1 1_555 1_555
O1 C9 1_555 1_555
O2 Dy1 1_555 1_555
O3 Dy1 1_555 1_555
O4 N1 1_555 1_555
C1 N3 1_555 1_555
H1 C1 1_555 1_555
C2 C1 1_555 1_555
H2 C2 1_555 1_555
C3 C2 1_555 1_555
H3 C3 1_555 1_555
C4 C3 1_555 1_555
H4 C4 1_555 1_555
C5 N3 1_555 1_555
C6 C5 1_555 1_555
C7 C6 1_555 1_555
H5 C7 1_555 1_555
C8 C7 1_555 1_555
C9 C8 1_555 1_555
N3A Dy1 1_555 1_555
O1A C9 1_555 1_555
C1A N3A 1_555 1_555
H1A C1A 1_555 1_555
C2A C1A 1_555 1_555
H2A C2A 1_555 1_555
C3A C2A 1_555 1_555
H3A C3A 1_555 1_555
C4A C3A 1_555 1_555
H4A C4A 1_555 1_555
C5A N3A 1_555 1_555
C6A N2 1_555 1_555
C7A C8 1_555 1_555
H5A C7A 1_555 1_555
N1A O2A 1_555 1_555
O2A Dy1 1_555 1_555
O3A Dy1 1_555 1_555
O4A N1A 1_555 1_555
Dy1_2 O1 1_555 1_555
O1_2 Dy1 1_555 1_555
O1A_2 Dy1 1_555 1_555
N1 O3 1_555 1_555
C4 C5 1_555 1_555
O1A Dy1_2 1_555 1_555
C4A C5A 1_555 1_555
C5A C6A 1_555 1_555
C6A C7A 1_555 1_555
N1A O3A 1_555 1_555

#END
