
#######################################################################
#
#                 Cambridge Crystallographic Data Centre
#                                CCDC 
#
#######################################################################
#
# If this CIF has been generated from an entry in the Cambridge 
# Structural Database, then it will include bibliographic, chemical, 
# crystal, experimental, refinement or atomic coordinate data resulting 
# from the CCDC's data processing and validation procedures.
#
#######################################################################

data_GEXREG
_symmetry_cell_setting           monoclinic
_symmetry_space_group_name_H-M   'P 21/a'
_symmetry_Int_Tables_number      14
_space_group_name_Hall           '-P 2yab'
loop_
_symmetry_equiv_pos_site_id
_symmetry_equiv_pos_as_xyz
1 x,y,z
2 1/2-x,1/2+y,-z
3 -x,-y,-z
4 1/2+x,1/2-y,z
_cell_length_a                   7.823(7)
_cell_length_b                   6.324(7)
_cell_length_c                   14.707(19)
_cell_angle_alpha                90
_cell_angle_beta                 95.18(9)
_cell_angle_gamma                90
_cell_volume                     724.623
loop_
_atom_site_label
_atom_site_type_symbol
_atom_site_fract_x
_atom_site_fract_y
_atom_site_fract_z
Ag1 Ag -0.3893(2) 0.1408(2) 0.0561(1)
S1 S -0.3739(4) -0.1298(5) -0.1546(2)
S2 S -0.3345(5) 0.3146(5) -0.0894(2)
C1 C -0.6879(16) -0.1280(20) 0.1678(8)
C2 C -0.7612(16) -0.1833(21) 0.2554(8)
C3 C -0.7716(18) -0.3841(22) 0.2846(9)
C4 C -0.8282(20) -0.4321(26) 0.3681(10)
C5 C -0.8828(19) -0.2759(24) 0.4217(10)
C6 C -0.8751(21) -0.0714(27) 0.3941(10)
C7 C -0.8161(20) -0.0185(23) 0.3113(10)
Ag1B Ag -0.6107(2) -0.1408(2) -0.0561(1)
S1C S -0.8739(4) -0.3702(5) -0.1546(2)
Ag1C Ag -0.8893(2) -0.6408(2) 0.0561(1)
Ag1A Ag -0.1107(2) -0.3592(2) -0.0561(1)
S1A S -0.1261(4) 0.3702(5) 0.1546(2)
S2B S -0.6655(5) -0.3146(5) 0.0894(2)
S1B S -0.6261(4) 0.1298(5) 0.1546(2)
Ag1C_2 Ag -0.8893(2) 0.3592(2) 0.0561(1)
S2C S -0.8345(5) 0.1854(5) -0.0894(2)
C1B C -0.3121(16) 0.1280(20) -0.1678(8)
S2A S -0.1655(5) -0.1854(5) 0.0894(2)
Ag1A_2 Ag -0.1107(2) 0.6408(2) -0.0561(1)
C2B C -0.2388(16) 0.1833(21) -0.2554(8)
C3B C -0.2284(18) 0.3841(22) -0.2846(9)
C4B C -0.1718(20) 0.4321(26) -0.3681(10)
C5B C -0.1172(19) 0.2759(24) -0.4217(10)
C6B C -0.1249(21) 0.0714(27) -0.3941(10)
C7B C -0.1839(20) 0.0185(23) -0.3113(10)
Ag1A_3 Ag -1.1107(2) 0.6408(2) -0.0561(1)
S1A_2 S -1.1261(4) 0.3702(5) 0.1546(2)
S2B_2 S -0.6655(5) 0.6854(5) 0.0894(2)
loop_
_geom_bond_atom_site_label_1
_geom_bond_atom_site_label_2
_geom_bond_site_symmetry_1
_geom_bond_site_symmetry_2
Ag1 S2 1_555 1_555
S1 Ag1B 1_555 1_555
S2 C1B 1_555 1_555
C1 C2 1_555 1_555
C2 C3 1_555 1_555
C3 C4 1_555 1_555
C4 C5 1_555 1_555
C5 C6 1_555 1_555
C6 C7 1_555 1_555
C7 C2 1_555 1_555
Ag1B Ag1 1_555 1_555
S1C Ag1B 1_555 1_555
Ag1C S2B 1_555 1_555
Ag1A S1 1_555 1_555
S1A Ag1 1_555 1_555
S2B C1 1_555 1_555
S1B Ag1 1_555 1_555
Ag1C_2 S1B 1_555 1_555
S2C Ag1B 1_555 1_555
C1B S1 1_555 1_555
S2A Ag1 1_555 1_555
Ag1A_2 S2 1_555 1_555
C2B C1B 1_555 1_555
C3B C2B 1_555 1_555
C4B C3B 1_555 1_555
C5B C4B 1_555 1_555
C6B C5B 1_555 1_555
C7B C2B 1_555 1_555
Ag1A_3 Ag1C_2 1_555 1_555
S1A_2 Ag1C_2 1_555 1_555
S2B_2 Ag1C_2 1_555 1_555
C1 S1B 1_555 1_555
Ag1B S2B 1_555 1_555
Ag1A S2A 1_555 1_555
Ag1C_2 S2C 1_555 1_555
C6B C7B 1_555 1_555

#END
