
#######################################################################
#
#                 Cambridge Crystallographic Data Centre
#                                CCDC 
#
#######################################################################
#
# If this CIF has been generated from an entry in the Cambridge 
# Structural Database, then it will include bibliographic, chemical, 
# crystal, experimental, refinement or atomic coordinate data resulting 
# from the CCDC's data processing and validation procedures.
#
#######################################################################

data_GEYGAU
_symmetry_cell_setting           monoclinic
_symmetry_space_group_name_H-M   'C 2/c'
_symmetry_Int_Tables_number      15
_space_group_name_Hall           '-C 2yn'
loop_
_symmetry_equiv_pos_site_id
_symmetry_equiv_pos_as_xyz
1 x,y,z
2 -x,y,1/2-z
3 1/2+x,1/2+y,z
4 1/2-x,1/2+y,1/2-z
5 -x,-y,-z
6 x,-y,1/2+z
7 1/2-x,1/2-y,-z
8 1/2+x,1/2-y,1/2+z
_cell_length_a                   25.349(6)
_cell_length_b                   11.761(4)
_cell_length_c                   21.405(5)
_cell_angle_alpha                90
_cell_angle_beta                 121.855(5)
_cell_angle_gamma                90
_cell_volume                     5420.33
loop_
_atom_site_label
_atom_site_type_symbol
_atom_site_fract_x
_atom_site_fract_y
_atom_site_fract_z
Zn1 Zn 0.680996(15) 0.14970(3) 0.694764(17)
O1 O 0.65146(11) 0.30409(18) 0.65872(12)
N1 N 0.75195(11) 0.1081(2) 0.68144(13)
O2 O 0.70383(9) 0.09875(17) 0.79508(11)
N2 N 0.61867(11) 0.0279(2) 0.62956(13)
C1 C 0.60282(16) 0.3326(3) 0.65976(16)
C2 C 0.74750(13) 0.1655(2) 0.84174(16)
O3 O 0.57570(12) 0.26844(19) 0.67924(12)
C3 C 0.57948(14) 0.4522(3) 0.63749(16)
C4 C 0.77324(14) 0.1444(2) 0.92181(16)
O4 O 0.76653(9) 0.24599(17) 0.82129(11)
C5 C 0.61794(14) 0.5391(2) 0.64156(16)
C6 C 0.51802(15) 0.4783(3) 0.61523(19)
C7 C 0.81456(14) 0.2206(3) 0.97416(16)
C8 C 0.75441(14) 0.0517(3) 0.94491(16)
H1 H 0.6579 0.5223 0.6530
C9 C 0.59778(15) 0.6503(2) 0.62887(18)
C10 C 0.49719(16) 0.5883(3) 0.6001(2)
H2 H 0.4912 0.4205 0.6107
H3 H 0.8280 0.2830 0.9595
C11 C 0.83601(14) 0.2053(3) 1.04731(17)
C12 C 0.77586(15) 0.0352(3) 1.01869(17)
H4 H 0.7269 -0.0004 0.9104
H5 H 0.6249 0.7081 0.6341
C13 C 0.53736(14) 0.6768(3) 0.60832(17)
H6 H 0.4560 0.6043 0.5843
C14 C 0.81632(14) 0.1139(2) 1.07082(16)
H7 H 0.8641 0.2570 1.0816
H8 H 0.7633 -0.0283 1.0334
C15 C 0.51312(15) 0.7968(3) 0.59835(19)
C16 C 0.83985(14) 0.1046(3) 1.15194(16)
N3 N 0.55210(12) 0.8836(2) 0.59445(14)
H9 H 0.4724 0.7999 0.5535
H10 H 0.5079 0.8149 0.6390
H11 H 0.8849 0.1020 1.1794
H12 H 0.8276 0.1721 1.1672
N4 N 0.81674(11) 0.0048(2) 1.17028(13)
C17 C 0.58751(14) 0.9604(2) 0.64722(16)
C18 C 0.56083(13) 0.9041(2) 0.53680(16)
C19 C 0.76519(14) -0.0026(2) 1.17341(15)
C20 C 0.83913(14) -0.1047(3) 1.17641(15)
H13 H 0.5895 0.9648 0.6918
C21 C 0.60280(13) 0.9939(2) 0.55892(15)
C22 C 0.53394(14) 0.8536(3) 0.46730(17)
H14 H 0.7414 0.0600 1.1703
C23 C 0.89096(16) -0.1446(3) 1.17677(18)
C24 C 0.79823(14) -0.1747(3) 1.18327(15)
C25 C 0.62102(14) 1.0360(3) 0.51222(16)
C26 C 0.55194(15) 0.8977(3) 0.42194(17)
H15 H 0.5057 0.7941 0.4528
H16 H 0.9182 -0.0959 1.1734
C27 C 0.89944(16) -0.2611(3) 1.18247(18)
C28 C 0.80715(15) -0.2921(3) 1.18881(16)
H17 H 0.6496 1.0949 0.5265
C29 C 0.59437(15) 0.9858(3) 0.44355(17)
H18 H 0.5350 0.8674 0.3750
C30 C 0.85768(16) -0.3329(3) 1.18733(17)
H19 H 0.9334 -0.2923 1.1831
H20 H 0.7804 -0.3407 1.1933
H21 H 0.6053 1.0120 0.4109
H22 H 0.8642 -0.4110 1.1897
N2_2 N 0.61867(11) 1.0279(2) 0.62956(13)
N1E N 0.75195(11) -0.1081(2) 1.18144(13)
Zn1_2 Zn 0.680996(15) 1.14970(3) 0.694764(17)
Zn1E Zn 0.680996(15) -0.14970(3) 1.194764(17)
O5 O 0.59130(12) 0.1236(2) 0.78901(14)
H23 H 0.5836 0.1655 0.7527
H24 H 0.6285(9) 0.119(4) 0.801(2)
O6 O 1.0000 0.4588(3) 0.7500
H25 H 0.9665(13) 0.507(3) 0.735(2)
H25A H 1.0335(13) 0.507(3) 0.765(2)
O7 O 0.5000 0.3697(10) 0.7500
H26 H 0.487(5) 0.315(5) 0.765(5)
H26A H 0.513(5) 0.315(5) 0.735(5)
O8 O 0.6525(3) 0.3229(6) 0.5226(4)
H27 H 0.6515 0.3283 0.5573
H28 H 0.6747 0.3646 0.5133
O9 O 0.7500 0.2500 0.5000
loop_
_geom_bond_atom_site_label_1
_geom_bond_atom_site_label_2
_geom_bond_site_symmetry_1
_geom_bond_site_symmetry_2
Zn1 O1 1_555 1_555
O1 C1 1_555 1_555
N1 Zn1 1_555 1_555
O2 Zn1 1_555 1_555
N2 Zn1 1_555 1_555
C1 O3 1_555 1_555
C2 O2 1_555 1_555
C3 C1 1_555 1_555
C4 C2 1_555 1_555
O4 C2 1_555 1_555
C5 C3 1_555 1_555
C6 C3 1_555 1_555
C7 C4 1_555 1_555
C8 C4 1_555 1_555
H1 C5 1_555 1_555
C9 C5 1_555 1_555
C10 C6 1_555 1_555
H2 C6 1_555 1_555
H3 C7 1_555 1_555
C11 C7 1_555 1_555
C12 C8 1_555 1_555
H4 C8 1_555 1_555
H5 C9 1_555 1_555
C13 C9 1_555 1_555
H6 C10 1_555 1_555
C14 C11 1_555 1_555
H7 C11 1_555 1_555
H8 C12 1_555 1_555
C15 C13 1_555 1_555
C16 C14 1_555 1_555
N3 C15 1_555 1_555
H9 C15 1_555 1_555
H10 C15 1_555 1_555
H11 C16 1_555 1_555
H12 C16 1_555 1_555
N4 C16 1_555 1_555
C17 N3 1_555 1_555
C18 N3 1_555 1_555
C19 N4 1_555 1_555
C20 N4 1_555 1_555
H13 C17 1_555 1_555
C21 C18 1_555 1_555
C22 C18 1_555 1_555
H14 C19 1_555 1_555
C23 C20 1_555 1_555
C24 C20 1_555 1_555
C25 C21 1_555 1_555
C26 C22 1_555 1_555
H15 C22 1_555 1_555
H16 C23 1_555 1_555
C27 C23 1_555 1_555
C28 C24 1_555 1_555
H17 C25 1_555 1_555
C29 C25 1_555 1_555
H18 C26 1_555 1_555
C30 C27 1_555 1_555
H19 C27 1_555 1_555
H20 C28 1_555 1_555
H21 C29 1_555 1_555
H22 C30 1_555 1_555
O5 H23 1_555 1_555
H24 O5 1_555 1_555
O6 H25 1_555 1_555
O7 H26 1_555 1_555
O8 H27 1_555 1_555
H28 O8 1_555 1_555
N2_2 C17 1_555 1_555
N1E C19 1_555 1_555
Zn1_2 N2_2 1_555 1_555
Zn1E N1E 1_555 1_555
H25A O6 1_555 1_555
H26A O7 1_555 1_555
C10 C13 1_555 1_555
C12 C14 1_555 1_555
C21 N2_2 1_555 1_555
C24 N1E 1_555 1_555
C26 C29 1_555 1_555
C28 C30 1_555 1_555

#END
