
#######################################################################
#
#                 Cambridge Crystallographic Data Centre
#                                CCDC 
#
#######################################################################
#
# If this CIF has been generated from an entry in the Cambridge 
# Structural Database, then it will include bibliographic, chemical, 
# crystal, experimental, refinement or atomic coordinate data resulting 
# from the CCDC's data processing and validation procedures.
#
#######################################################################

data_GEYJEB
_symmetry_cell_setting           monoclinic
_symmetry_space_group_name_H-M   'P 21'
_symmetry_Int_Tables_number      4
_space_group_name_Hall           'P 2yb'
loop_
_symmetry_equiv_pos_site_id
_symmetry_equiv_pos_as_xyz
1 x,y,z
2 -x,1/2+y,-z
_cell_length_a                   9.3283(8)
_cell_length_b                   23.1317(18)
_cell_length_c                   13.2040(11)
_cell_angle_alpha                90
_cell_angle_beta                 104.979(3)
_cell_angle_gamma                90
_cell_volume                     2752.34
loop_
_atom_site_label
_atom_site_type_symbol
_atom_site_fract_x
_atom_site_fract_y
_atom_site_fract_z
Ru1 Ru 0.27904(8) 0.37595(3) 0.04760(6)
P1 P 0.2925(3) 0.29716(11) -0.0529(3)
P2 P 0.1996(3) 0.43128(11) -0.0997(3)
O1 O 0.5084(8) 0.3929(3) 0.0778(6)
O2 O -0.0618(8) 0.3272(3) 0.1742(7)
O3 O 0.0644(8) 0.3658(3) 0.0662(6)
O4 O 0.6894(8) 0.4522(3) 0.1558(8)
O5 O 0.7268(9) 0.3514(4) 0.3102(8)
O6 O 0.9946(10) 0.4380(4) 0.3045(8)
N1 N 0.3156(10) 0.3219(4) 0.1864(8)
N2 N 0.3106(10) 0.4524(4) 0.1510(9)
C1 C 0.1335(16) 0.1560(5) 0.3334(11)
C2 C 0.4234(12) 0.2450(4) 0.0226(9)
C3 C 0.0662(10) 0.3984(5) -0.2106(9)
C4 C 0.1575(17) 0.1756(6) 0.4329(12)
C5 C 0.3515(15) 0.5148(6) -0.3261(11)
C6 C 0.4638(13) 0.5914(5) 0.1451(11)
C7 C 0.5101(12) 0.2997(5) -0.1668(10)
C8 C 0.0527(12) 0.3310(4) 0.1400(10)
C9 C 0.2708(11) 0.3376(4) -0.2566(9)
C10 C 0.6239(13) 0.1679(5) 0.1558(10)
C11 C 0.4843(12) 0.5380(5) 0.1942(9)
C12 C -0.1379(13) 0.3517(5) -0.3837(10)
C13 C 0.0819(13) 0.5972(5) -0.0429(11)
C14 C 1.0019(18) 0.4992(6) 0.2982(12)
C15 C 0.6654(13) 0.2237(4) 0.1406(9)
C16 C 0.1713(13) 0.2503(5) 0.2672(10)
C17 C 0.0057(13) 0.3321(5) -0.3575(9)
C18 C 0.1025(12) 0.4960(4) -0.0674(9)
C19 C 0.5682(13) 0.2614(5) 0.0791(10)
C20 C 0.4387(12) 0.4848(5) 0.1273(9)
C21 C 0.5671(14) 0.4835(5) -0.1980(11)
C22 C 0.4834(15) 0.1499(5) 0.1049(10)
C23 C 0.1509(12) 0.5511(4) -0.0757(10)
C24 C -0.0340(13) 0.5890(5) 0.0017(11)
C25 C 0.1771(12) 0.2874(4) 0.1750(9)
C26 C -0.1846(13) 0.3943(5) -0.3292(9)
C27 C 0.1950(13) 0.2704(5) 0.3706(10)
C28 C 0.5574(12) 0.4409(4) 0.1231(9)
C29 C 0.3248(12) 0.4643(5) -0.1733(10)
C30 C 0.2617(13) 0.4923(5) -0.2654(10)
C31 C 0.4748(13) 0.4563(5) -0.1384(10)
C32 C 0.3805(13) 0.1866(5) 0.0384(10)
C33 C 0.4987(13) 0.6426(5) 0.2048(11)
C34 C -0.1020(12) 0.1791(5) -0.2139(10)
C35 C 0.981(3) 0.5251(7) 0.3967(16)
C36 C -0.0034(12) 0.2573(5) -0.0944(9)
C37 C 0.4722(12) 0.3339(5) -0.3436(10)
C38 C 0.0324(13) 0.1730(5) -0.2376(11)
C39 C 0.3274(12) 0.3465(5) -0.3426(9)
C40 C 0.1339(11) 0.2518(4) -0.1146(9)
C41 C -0.1218(13) 0.2208(5) -0.1434(11)
C42 C 0.3635(12) 0.3130(5) -0.1652(9)
C43 C -0.0151(12) 0.4877(5) -0.0206(10)
C44 C 0.1908(16) 0.2344(5) 0.4523(11)
C45 C 0.5660(12) 0.3103(5) -0.2504(9)
C46 C 0.1417(15) 0.1923(6) 0.2517(11)
C47 C -0.0821(12) 0.4161(5) -0.2420(9)
C48 C 0.5013(14) 0.5094(6) -0.2918(11)
C49 C 0.5412(17) 0.5354(6) 0.2992(11)
C50 C 1.0399(17) 0.4245(6) 0.4091(13)
C51 C 0.577(2) 0.5861(6) 0.3582(12)
C52 C 0.5558(16) 0.6397(5) 0.3072(12)
C53 C -0.0838(12) 0.5342(5) 0.0129(9)
C54 C 0.1497(13) 0.2093(4) -0.1878(10)
C55 C 0.1121(12) 0.3547(4) -0.2736(10)
C56 C 0.962(2) 0.4710(8) 0.4593(13)
Li1 Li 0.830(3) 0.3906(8) 0.2155(18)
H1 H 0.1106 0.1164 0.3192
H2 H 0.3955 0.2978 0.1908
H3 H 0.3338 0.3443 0.2459
H4 H 0.1519 0.1502 0.4883
H5 H 0.3081 0.5336 -0.3907
H6 H 0.4262 0.5936 0.0711
H7 H 0.5734 0.2825 -0.1063
H8 H 0.6911 0.1423 0.2007
H9 H -0.2070 0.3348 -0.4419
H10 H 0.1149 0.6354 -0.0513
H11 H 0.9236 0.5133 0.2375
H12 H 1.0994 0.5109 0.2882
H13 H 0.7634 0.2361 0.1734
H14 H 0.0330 0.3022 -0.3981
H15 H 0.5989 0.3001 0.0740
H16 H 0.4009 0.4994 0.0539
H17 H 0.6720 0.4834 -0.1722
H18 H 0.4548 0.1113 0.1149
H19 H 0.2330 0.5576 -0.1044
H20 H -0.0798 0.6213 0.0249
H21 H 0.1705 0.2606 0.1145
H22 H -0.2833 0.4087 -0.3499
H23 H 0.2146 0.3103 0.3844
H24 H 0.1570 0.4966 -0.2881
H25 H 0.5168 0.4339 -0.0777
H26 H 0.2839 0.1730 0.0045
H27 H 0.4811 0.6792 0.1712
H28 H -0.1822 0.1545 -0.2463
H29 H 0.8920 0.5500 0.3828
H30 H 1.0690 0.5478 0.4336
H31 H -0.0182 0.2861 -0.0469
H32 H 0.5072 0.3407 -0.4040
H33 H 0.0454 0.1447 -0.2867
H34 H 0.2632 0.3621 -0.4044
H35 H -0.2154 0.2247 -0.1281
H36 H -0.0478 0.4496 -0.0119
H37 H 0.2102 0.2491 0.5216
H38 H 0.6670 0.3021 -0.2465
H39 H 0.1264 0.1767 0.1832
H40 H -0.1145 0.4447 -0.2012
H41 H 0.5619 0.5239 -0.3338
H42 H 0.5571 0.4989 0.3332
H43 H 1.1491 0.4272 0.4355
H44 H 1.0075 0.3852 0.4227
H45 H 0.2264 0.4749 0.1365
H46 H 0.3329 0.4415 0.2203
H47 H 0.6151 0.5841 0.4321
H48 H 0.5827 0.6742 0.3465
H49 H -0.1645 0.5283 0.0433
H50 H 0.2428 0.2052 -0.2038
H51 H 0.8556 0.4617 0.4503
H52 H 1.0105 0.4758 0.5349
O2_2 O 0.9382(8) 0.3272(3) 0.1742(7)
Li1_2 Li -0.170(3) 0.3906(8) 0.2155(18)
Br1 Br 0.45563(14) 0.40208(5) 0.40532(9)
O7 O 0.7200(11) 0.2461(4) 0.4138(9)
C57 C 0.803(3) 0.2040(10) 0.473(3)
C58 C 0.711(3) 0.1593(8) 0.489(3)
C59 C 0.565(3) 0.1720(8) 0.4353(17)
C60 C 0.5729(15) 0.2316(6) 0.4016(16)
H53 H 0.8579 0.2203 0.5412
H54 H 0.8754 0.1888 0.4368
H55 H 0.7416 0.1224 0.4637
H56 H 0.7180 0.1553 0.5651
H57 H 0.4972 0.1685 0.4818
H58 H 0.5298 0.1460 0.3744
H59 H 0.5174 0.2358 0.3272
H60 H 0.5279 0.2577 0.4441
loop_
_geom_bond_atom_site_label_1
_geom_bond_atom_site_label_2
_geom_bond_site_symmetry_1
_geom_bond_site_symmetry_2
Ru1 P1 1_555 1_555
P1 C2 1_555 1_555
P2 Ru1 1_555 1_555
O1 Ru1 1_555 1_555
O2 C8 1_555 1_555
O3 Ru1 1_555 1_555
O4 C28 1_555 1_555
O5 Li1 1_555 1_555
O6 C14 1_555 1_555
N1 Ru1 1_555 1_555
N2 Ru1 1_555 1_555
C1 C4 1_555 1_555
C2 C19 1_555 1_555
C3 P2 1_555 1_555
C4 C44 1_555 1_555
C5 C30 1_555 1_555
C6 C11 1_555 1_555
C7 C42 1_555 1_555
C8 O3 1_555 1_555
C9 C39 1_555 1_555
C10 C15 1_555 1_555
C11 C20 1_555 1_555
C12 C17 1_555 1_555
C13 C23 1_555 1_555
C14 C35 1_555 1_555
C15 C19 1_555 1_555
C16 C25 1_555 1_555
C17 C55 1_555 1_555
C18 P2 1_555 1_555
C19 H15 1_555 1_555
C20 N2 1_555 1_555
C21 C31 1_555 1_555
C22 C10 1_555 1_555
C23 C18 1_555 1_555
C24 C13 1_555 1_555
C25 N1 1_555 1_555
C26 C12 1_555 1_555
C27 C16 1_555 1_555
C28 O1 1_555 1_555
C29 P2 1_555 1_555
C30 C29 1_555 1_555
C31 C29 1_555 1_555
C32 C2 1_555 1_555
C33 C6 1_555 1_555
C34 C38 1_555 1_555
C35 C56 1_555 1_555
C36 C40 1_555 1_555
C37 C39 1_555 1_555
C38 C54 1_555 1_555
C39 H34 1_555 1_555
C40 P1 1_555 1_555
C41 C34 1_555 1_555
C42 P1 1_555 1_555
C43 C18 1_555 1_555
C44 C27 1_555 1_555
C45 C7 1_555 1_555
C46 C1 1_555 1_555
C47 C3 1_555 1_555
C48 C5 1_555 1_555
C49 C11 1_555 1_555
C50 O6 1_555 1_555
C51 C49 1_555 1_555
C52 C33 1_555 1_555
C53 C24 1_555 1_555
C54 C40 1_555 1_555
C55 C3 1_555 1_555
C56 C50 1_555 1_555
Li1 O4 1_555 1_555
H1 C1 1_555 1_555
H2 N1 1_555 1_555
H3 N1 1_555 1_555
H4 C4 1_555 1_555
H5 C5 1_555 1_555
H6 C6 1_555 1_555
H7 C7 1_555 1_555
H8 C10 1_555 1_555
H9 C12 1_555 1_555
H10 C13 1_555 1_555
H11 C14 1_555 1_555
H12 C14 1_555 1_555
H13 C15 1_555 1_555
H14 C17 1_555 1_555
H16 C20 1_555 1_555
H17 C21 1_555 1_555
H18 C22 1_555 1_555
H19 C23 1_555 1_555
H20 C24 1_555 1_555
H21 C25 1_555 1_555
H22 C26 1_555 1_555
H23 C27 1_555 1_555
H24 C30 1_555 1_555
H25 C31 1_555 1_555
H26 C32 1_555 1_555
H27 C33 1_555 1_555
H28 C34 1_555 1_555
H29 C35 1_555 1_555
H30 C35 1_555 1_555
H31 C36 1_555 1_555
H32 C37 1_555 1_555
H33 C38 1_555 1_555
H35 C41 1_555 1_555
H36 C43 1_555 1_555
H37 C44 1_555 1_555
H38 C45 1_555 1_555
H39 C46 1_555 1_555
H40 C47 1_555 1_555
H41 C48 1_555 1_555
H42 C49 1_555 1_555
H43 C50 1_555 1_555
H44 C50 1_555 1_555
H45 N2 1_555 1_555
H46 N2 1_555 1_555
H47 C51 1_555 1_555
H48 C52 1_555 1_555
H49 C53 1_555 1_555
H50 C54 1_555 1_555
H51 C56 1_555 1_555
H52 C56 1_555 1_555
O7 C57 1_555 1_555
C57 C58 1_555 1_555
C58 C59 1_555 1_555
C59 C60 1_555 1_555
C60 O7 1_555 1_555
H53 C57 1_555 1_555
H54 C57 1_555 1_555
H55 C58 1_555 1_555
H56 C58 1_555 1_555
H57 C59 1_555 1_555
H58 C59 1_555 1_555
H59 C60 1_555 1_555
H60 C60 1_555 1_555
O2_2 Li1 1_555 1_555
Li1_2 O2 1_555 1_555
O6 Li1 1_555 1_555
C8 C25 1_555 1_555
C9 C42 1_555 1_555
C9 C55 1_555 1_555
C16 C46 1_555 1_555
C20 C28 1_555 1_555
C21 C48 1_555 1_555
C22 C32 1_555 1_555
C26 C47 1_555 1_555
C36 C41 1_555 1_555
C37 C45 1_555 1_555
C43 C53 1_555 1_555
C51 C52 1_555 1_555

#END
