
#######################################################################
#
#                 Cambridge Crystallographic Data Centre
#                                CCDC 
#
#######################################################################
#
# If this CIF has been generated from an entry in the Cambridge 
# Structural Database, then it will include bibliographic, chemical, 
# crystal, experimental, refinement or atomic coordinate data resulting 
# from the CCDC's data processing and validation procedures.
#
#######################################################################

data_GEYSOU
_symmetry_cell_setting           monoclinic
_symmetry_space_group_name_H-M   'P 21/c'
_symmetry_Int_Tables_number      14
_space_group_name_Hall           '-P 2ybc'
loop_
_symmetry_equiv_pos_site_id
_symmetry_equiv_pos_as_xyz
1 x,y,z
2 -x,1/2+y,1/2-z
3 -x,-y,-z
4 x,1/2-y,1/2+z
_cell_length_a                   17.8687(18)
_cell_length_b                   18.2000(14)
_cell_length_c                   12.7837(13)
_cell_angle_alpha                90
_cell_angle_beta                 95.390(7)
_cell_angle_gamma                90
_cell_volume                     4139.01
loop_
_atom_site_label
_atom_site_type_symbol
_atom_site_fract_x
_atom_site_fract_y
_atom_site_fract_z
Zn1 Zn 0.44195(3) 0.62243(3) 0.70739(4)
Zn2 Zn 0.06279(3) 1.06703(3) 1.25932(4)
Cl1 Cl 0.56258(8) 0.63236(10) 0.77200(12)
Cl2 Cl -0.05437(8) 1.02970(10) 1.29328(11)
O1 O 0.3689(2) 0.69665(19) 0.7390(3)
O2 O 0.3791(3) 0.7936(2) 0.6355(3)
O3 O 0.0878(3) 0.1532(2) 0.3595(4)
O4 O 0.1829(3) 0.1347(2) 0.2685(3)
N1 N 0.4051(2) 0.5555(2) 0.8397(3)
N2 N 0.3936(2) 0.52811(19) 0.6390(3)
N3 N 0.4581(2) 0.6325(2) 0.5415(3)
N4 N 0.1258(2) 0.9836(2) 1.3514(3)
N5 N 0.1160(2) 1.0049(2) 1.1500(3)
N6 N 0.0296(2) 1.1180(2) 1.1065(4)
C1 C 0.3579(3) 0.7636(3) 0.7127(4)
C2 C 0.3143(2) 0.8059(2) 0.7883(3)
C3 C 0.3092(3) 0.7811(2) 0.8890(3)
H1 H 0.3320 0.7369 0.9104
C4 C 0.2708(3) 0.8209(2) 0.9590(3)
H2 H 0.2685 0.8031 1.0268
C5 C 0.2356(3) 0.8865(2) 0.9305(3)
C6 C 0.2416(3) 0.9125(3) 0.8283(4)
H3 H 0.2189 0.9567 0.8069
C7 C 0.2808(3) 0.8732(3) 0.7595(4)
H4 H 0.2851 0.8917 0.6925
C8 C 0.1949(3) 0.9288(2) 1.0066(3)
C9 C 0.2052(3) 0.9142(2) 1.1142(3)
H5 H 0.2393 0.8783 1.1394
C10 C 0.1652(2) 0.9527(2) 1.1835(3)
C11 C 0.1069(3) 1.0221(2) 1.0478(3)
C12 C 0.1440(3) 0.9837(2) 0.9741(3)
H6 H 0.1347 0.9948 0.9031
C13 C 0.1696(3) 0.9396(2) 1.2988(3)
C14 C 0.2151(3) 0.8868(3) 1.3492(4)
H7 H 0.2459 0.8574 1.3119
C15 C 0.2140(4) 0.8785(3) 1.4570(4)
H8 H 0.2448 0.8440 1.4932
C16 C 0.1670(4) 0.9216(4) 1.5098(4)
H9 H 0.1641 0.9155 1.5815
C17 C 0.1244(3) 0.9741(3) 1.4545(4)
H10 H 0.0935 1.0041 1.4905
C18 C 0.0544(3) 1.0843(2) 1.0226(4)
C19 C 0.0335(3) 1.1079(3) 0.9216(4)
H11 H 0.0508 1.0840 0.8643
C20 C -0.0142(4) 1.1684(3) 0.9075(5)
H12 H -0.0289 1.1856 0.8402
C21 C -0.0391(4) 1.2024(3) 0.9931(5)
H13 H -0.0711 1.2427 0.9850
C22 C -0.0160(3) 1.1757(3) 1.0906(5)
H14 H -0.0329 1.1989 1.1488
C23 C 0.1524(4) 0.1691(3) 0.3353(5)
C24 C 0.1937(3) 0.2313(3) 0.3920(4)
C25 C 0.2552(4) 0.2608(3) 0.3500(5)
H15 H 0.2704 0.2413 0.2881
C26 C 0.2950(4) 0.3189(3) 0.3977(5)
H16 H 0.3353 0.3389 0.3666
C27 C 0.2751(3) 0.3470(3) 0.4911(4)
C28 C 0.2149(3) 0.3157(3) 0.5358(5)
H17 H 0.2019 0.3328 0.6002
C29 C 0.1741(3) 0.2593(3) 0.4859(5)
H18 H 0.1329 0.2399 0.5159
C30 C 0.3180(3) 0.4096(2) 0.5426(4)
C31 C 0.3561(3) 0.4596(2) 0.4848(4)
H19 H 0.3564 0.4537 0.4126
C32 C 0.3934(3) 0.5181(2) 0.5347(3)
C33 C 0.3588(3) 0.4792(2) 0.6962(3)
C34 C 0.3199(3) 0.4204(2) 0.6507(4)
H20 H 0.2951 0.3880 0.6918
C35 C 0.3676(3) 0.4942(3) 0.8120(4)
C36 C 0.3401(4) 0.4478(3) 0.8855(4)
H21 H 0.3127 0.4060 0.8643
C37 C 0.3542(4) 0.4648(4) 0.9906(5)
H22 H 0.3381 0.4339 1.0418
C38 C 0.3926(4) 0.5285(4) 1.0184(5)
H23 H 0.4024 0.5415 1.0887
C39 C 0.4161(4) 0.5724(3) 0.9414(4)
H24 H 0.4408 0.6159 0.9607
C40 C 0.4348(3) 0.5753(2) 0.4810(4)
C41 C 0.4499(3) 0.5708(3) 0.3761(4)
H25 H 0.4344 0.5303 0.3353
C42 C 0.4882(3) 0.6274(3) 0.3344(4)
H26 H 0.4984 0.6258 0.2644
C43 C 0.5115(3) 0.6864(3) 0.3962(5)
H27 H 0.5379 0.7249 0.3692
C44 C 0.4946(3) 0.6872(3) 0.4991(4)
H28 H 0.5094 0.7275 0.5407
Zn2_2 Zn 0.06279(3) 0.06703(3) 0.25932(4)
O3_2 O 0.0878(3) 1.1532(2) 1.3595(4)
O4_2 O 0.1829(3) 1.1347(2) 1.2685(3)
O5 O 0.0315(15) 0.1428(8) 0.6119(17)
O6 O -0.1195(16) 1.2127(15) 1.290(2)
loop_
_geom_bond_atom_site_label_1
_geom_bond_atom_site_label_2
_geom_bond_site_symmetry_1
_geom_bond_site_symmetry_2
Zn1 Cl1 1_555 1_555
Zn2 Cl2 1_555 1_555
O1 Zn1 1_555 1_555
O2 C1 1_555 1_555
O3 C23 1_555 1_555
O4 C23 1_555 1_555
N1 Zn1 1_555 1_555
N2 Zn1 1_555 1_555
N3 Zn1 1_555 1_555
N4 Zn2 1_555 1_555
N5 Zn2 1_555 1_555
N6 Zn2 1_555 1_555
C1 O1 1_555 1_555
C2 C1 1_555 1_555
C3 C2 1_555 1_555
H1 C3 1_555 1_555
C4 C3 1_555 1_555
H2 C4 1_555 1_555
C5 C4 1_555 1_555
C6 C5 1_555 1_555
H3 C6 1_555 1_555
C7 C2 1_555 1_555
H4 C7 1_555 1_555
C8 C5 1_555 1_555
C9 C8 1_555 1_555
H5 C9 1_555 1_555
C10 N5 1_555 1_555
C11 N5 1_555 1_555
C12 C8 1_555 1_555
H6 C12 1_555 1_555
C13 N4 1_555 1_555
C14 C13 1_555 1_555
H7 C14 1_555 1_555
C15 C14 1_555 1_555
H8 C15 1_555 1_555
C16 C15 1_555 1_555
H9 C16 1_555 1_555
C17 N4 1_555 1_555
H10 C17 1_555 1_555
C18 N6 1_555 1_555
C19 C18 1_555 1_555
H11 C19 1_555 1_555
C20 C19 1_555 1_555
H12 C20 1_555 1_555
C21 C20 1_555 1_555
H13 C21 1_555 1_555
C22 N6 1_555 1_555
H14 C22 1_555 1_555
C23 C24 1_555 1_555
C24 C25 1_555 1_555
C25 H15 1_555 1_555
C26 C25 1_555 1_555
H16 C26 1_555 1_555
C27 C26 1_555 1_555
C28 C27 1_555 1_555
H17 C28 1_555 1_555
C29 C24 1_555 1_555
H18 C29 1_555 1_555
C30 C27 1_555 1_555
C31 C30 1_555 1_555
H19 C31 1_555 1_555
C32 N2 1_555 1_555
C33 N2 1_555 1_555
C34 C30 1_555 1_555
H20 C34 1_555 1_555
C35 N1 1_555 1_555
C36 C35 1_555 1_555
H21 C36 1_555 1_555
C37 C36 1_555 1_555
H22 C37 1_555 1_555
C38 C37 1_555 1_555
H23 C38 1_555 1_555
C39 N1 1_555 1_555
H24 C39 1_555 1_555
C40 N3 1_555 1_555
C41 C40 1_555 1_555
H25 C41 1_555 1_555
C42 C41 1_555 1_555
H26 C42 1_555 1_555
C43 C42 1_555 1_555
H27 C43 1_555 1_555
C44 N3 1_555 1_555
H28 C44 1_555 1_555
Zn2_2 O3 1_555 1_555
O3_2 Zn2 1_555 1_555
O4_2 Zn2 1_555 1_555
O4 Zn2_2 1_555 1_555
C6 C7 1_555 1_555
C9 C10 1_555 1_555
C10 C13 1_555 1_555
C11 C12 1_555 1_555
C11 C18 1_555 1_555
C16 C17 1_555 1_555
C21 C22 1_555 1_555
C28 C29 1_555 1_555
C31 C32 1_555 1_555
C32 C40 1_555 1_555
C33 C34 1_555 1_555
C33 C35 1_555 1_555
C38 C39 1_555 1_555
C43 C44 1_555 1_555

#END
