
#######################################################################
#
#                 Cambridge Crystallographic Data Centre
#                                CCDC 
#
#######################################################################
#
# If this CIF has been generated from an entry in the Cambridge 
# Structural Database, then it will include bibliographic, chemical, 
# crystal, experimental, refinement or atomic coordinate data resulting 
# from the CCDC's data processing and validation procedures.
#
#######################################################################

data_GEYSUA
_symmetry_cell_setting           monoclinic
_symmetry_space_group_name_H-M   'P 21/c'
_symmetry_Int_Tables_number      14
_space_group_name_Hall           '-P 2ybc'
loop_
_symmetry_equiv_pos_site_id
_symmetry_equiv_pos_as_xyz
1 x,y,z
2 -x,1/2+y,1/2-z
3 -x,-y,-z
4 x,1/2-y,1/2+z
_cell_length_a                   17.242(19)
_cell_length_b                   7.320(7)
_cell_length_c                   21.883(17)
_cell_angle_alpha                90
_cell_angle_beta                 122.10(3)
_cell_angle_gamma                90
_cell_volume                     2339.65
loop_
_atom_site_label
_atom_site_type_symbol
_atom_site_fract_x
_atom_site_fract_y
_atom_site_fract_z
Zn1 Zn 0.46869(3) 0.60518(9) 0.19846(3)
O1 O 0.5802(2) 0.5932(6) 0.29625(19)
N1 N 1.0411(4) 0.7720(9) 0.9436(3)
C1 C 0.5903(3) 0.7214(7) 0.3370(2)
O2 O 0.5290(2) 0.8393(5) 0.3207(2)
N2 N 1.0964(3) 0.8128(7) 0.7405(2)
C2 C 0.6779(3) 0.7326(7) 0.4083(2)
O3 O 0.5065(4) 0.7534(8) 0.1466(3)
N3 N 1.3485(3) 0.8734(6) 0.6938(2)
C3 C 0.6814(3) 0.8177(8) 0.4660(3)
H1 H 0.6285 0.8670 0.4609
O4 O 0.3691(4) 0.7331(9) 0.0543(3)
C4 C 0.7627(3) 0.8293(9) 0.5307(3)
H2 H 0.7644 0.8853 0.5695
C5 C 0.8423(3) 0.7596(8) 0.5396(2)
C6 C 0.8382(3) 0.6777(9) 0.4804(3)
H3 H 0.8914 0.6336 0.4847
C7 C 0.7563(3) 0.6616(9) 0.4161(3)
H4 H 0.7539 0.6024 0.3776
C8 C 0.9307(3) 0.7777(8) 0.6091(2)
C9 C 0.9348(3) 0.7720(8) 0.6737(3)
H5 H 0.8815 0.7557 0.6739
C10 C 1.0179(3) 0.7903(8) 0.7384(2)
C11 C 1.0929(3) 0.8166(8) 0.6782(2)
C12 C 1.0115(3) 0.8020(9) 0.6117(3)
H6 H 1.0116 0.8086 0.5693
C13 C 1.0247(4) 0.7853(9) 0.8087(3)
C14 C 0.9500(4) 0.8014(11) 0.8150(3)
H7 H 0.8920 0.8172 0.7741
C15 C 0.9615(5) 0.7941(13) 0.8821(3)
H8 H 0.9095 0.8055 0.8846
C16 C 1.1124(5) 0.7589(11) 0.9369(3)
H9 H 1.1699 0.7454 0.9787
C17 C 1.1068(4) 0.7641(10) 0.8717(3)
H10 H 1.1599 0.7531 0.8707
C18 C 1.1807(3) 0.8397(8) 0.6822(3)
C19 C 1.2581(4) 0.9089(14) 0.7437(3)
H11 H 1.2548 0.9482 0.7826
C20 C 1.3388(4) 0.9187(14) 0.7462(4)
H12 H 1.3902 0.9608 0.7886
C21 C 1.2754(4) 0.8134(12) 0.6351(3)
H13 H 1.2807 0.7799 0.5965
C22 C 1.1919(4) 0.7972(12) 0.6274(3)
H14 H 1.1421 0.7564 0.5839
C23 C 0.4459(6) 0.7866(11) 0.0845(4)
C24 C 0.4773(5) 0.8980(9) 0.0417(4)
C25 C 0.5658(5) 0.9234(11) 0.0630(4)
H15 H 0.6120 0.8728 0.1062
C26 C 0.4113(5) 0.9745(10) -0.0205(4)
H16 H 0.3502 0.9596 -0.0354
O3B O 0.4935(4) 1.2466(8) -0.1466(3)
O4B O 0.6309(4) 1.2669(9) -0.0543(3)
C23B C 0.5541(6) 1.2134(11) -0.0845(4)
C24B C 0.5227(5) 1.1020(9) -0.0417(4)
C25B C 0.4342(5) 1.0766(11) -0.0630(4)
H15B H 0.3880 1.1272 -0.1062
C26B C 0.5887(5) 1.0255(10) 0.0205(4)
H16B H 0.6498 1.0404 0.0354
Zn1B Zn 0.53131(3) 1.39482(9) -0.19846(3)
O1B O 0.4198(2) 1.4068(6) -0.29625(19)
N1B N -0.0411(4) 1.2280(9) -0.9436(3)
C1B C 0.4097(3) 1.2786(7) -0.3370(2)
O2B O 0.4710(2) 1.1607(5) -0.3207(2)
N2B N -0.0964(3) 1.1872(7) -0.7405(2)
C2B C 0.3221(3) 1.2674(7) -0.4083(2)
N3B N -0.3485(3) 1.1266(6) -0.6938(2)
C3B C 0.3186(3) 1.1823(8) -0.4660(3)
H1B H 0.3715 1.1330 -0.4609
C4B C 0.2373(3) 1.1707(9) -0.5307(3)
H2B H 0.2356 1.1147 -0.5695
C5B C 0.1577(3) 1.2404(8) -0.5396(2)
C6B C 0.1618(3) 1.3223(9) -0.4804(3)
H3B H 0.1086 1.3664 -0.4847
C7B C 0.2437(3) 1.3384(9) -0.4161(3)
H4B H 0.2461 1.3976 -0.3776
C8B C 0.0693(3) 1.2223(8) -0.6091(2)
C9B C 0.0652(3) 1.2280(8) -0.6737(3)
H5B H 0.1185 1.2443 -0.6739
C10B C -0.0179(3) 1.2097(8) -0.7384(2)
C11B C -0.0929(3) 1.1834(8) -0.6782(2)
C12B C -0.0115(3) 1.1980(9) -0.6117(3)
H6B H -0.0116 1.1914 -0.5693
C13B C -0.0247(4) 1.2147(9) -0.8087(3)
C14B C 0.0500(4) 1.1986(11) -0.8150(3)
H7B H 0.1080 1.1828 -0.7741
C15B C 0.0385(5) 1.2059(13) -0.8821(3)
H8B H 0.0905 1.1945 -0.8846
C16B C -0.1124(5) 1.2411(11) -0.9369(3)
H9B H -0.1699 1.2546 -0.9787
C17B C -0.1068(4) 1.2359(10) -0.8717(3)
H10B H -0.1599 1.2469 -0.8707
C18B C -0.1807(3) 1.1603(8) -0.6822(3)
C19B C -0.2581(4) 1.0911(14) -0.7437(3)
H11B H -0.2548 1.0518 -0.7826
C20B C -0.3388(4) 1.0813(14) -0.7462(4)
H12B H -0.3902 1.0392 -0.7886
C21B C -0.2754(4) 1.1866(12) -0.6351(3)
H13B H -0.2807 1.2201 -0.5965
C22B C -0.1919(4) 1.2028(12) -0.6274(3)
H14B H -0.1421 1.2436 -0.5839
Zn1A Zn -0.46869(3) 1.10518(9) -0.69846(3)
Zn1A_2 Zn 0.53131(3) 1.10518(9) 0.30154(3)
Zn1C Zn 0.46869(3) 0.89482(9) -0.30154(3)
Zn1C_2 Zn 1.46869(3) 0.89482(9) 0.69846(3)
O2A O 0.4710(2) 0.3393(5) 0.1793(2)
O2C O 0.5290(2) 1.6607(5) -0.1793(2)
N3A N 0.6515(3) 1.3734(6) -0.1938(2)
N3C N 0.3485(3) 0.6266(6) 0.1938(2)
N4 N 0.7329(5) 0.8920(10) 0.6991(4)
C27 C 0.6782(5) 0.9807(10) 0.6630(4)
C28 C 0.6040(5) 1.0925(10) 0.6088(4)
H17 H 0.6277 1.2086 0.6059
H18 H 0.5595 1.1107 0.6219
H19 H 0.5758 1.0322 0.5629
loop_
_geom_bond_atom_site_label_1
_geom_bond_atom_site_label_2
_geom_bond_site_symmetry_1
_geom_bond_site_symmetry_2
Zn1 O1 1_555 1_555
O1 C1 1_555 1_555
N1 C15 1_555 1_555
C1 O2 1_555 1_555
O2 Zn1A_2 1_555 1_555
N2 C10 1_555 1_555
C2 C1 1_555 1_555
O3 Zn1 1_555 1_555
N3 C20 1_555 1_555
C3 C2 1_555 1_555
H1 C3 1_555 1_555
O4 C23 1_555 1_555
C4 C3 1_555 1_555
H2 C4 1_555 1_555
C5 C4 1_555 1_555
C6 C5 1_555 1_555
H3 C6 1_555 1_555
C7 C2 1_555 1_555
H4 C7 1_555 1_555
C8 C5 1_555 1_555
C9 C8 1_555 1_555
H5 C9 1_555 1_555
C10 C9 1_555 1_555
C11 N2 1_555 1_555
C12 C8 1_555 1_555
H6 C12 1_555 1_555
C13 C10 1_555 1_555
C14 C13 1_555 1_555
H7 C14 1_555 1_555
C15 C14 1_555 1_555
H8 C15 1_555 1_555
C16 N1 1_555 1_555
H9 C16 1_555 1_555
C17 C13 1_555 1_555
H10 C17 1_555 1_555
C18 C11 1_555 1_555
C19 C18 1_555 1_555
H11 C19 1_555 1_555
C20 C19 1_555 1_555
H12 C20 1_555 1_555
C21 N3 1_555 1_555
H13 C21 1_555 1_555
C22 C18 1_555 1_555
H14 C22 1_555 1_555
C23 O3 1_555 1_555
C24 C23 1_555 1_555
C25 C24 1_555 1_555
H15 C25 1_555 1_555
C26 C24 1_555 1_555
H16 C26 1_555 1_555
N4 C27 1_555 1_555
C27 C28 1_555 1_555
C28 H17 1_555 1_555
H18 C28 1_555 1_555
H19 C28 1_555 1_555
O3B C23B 1_555 1_555
O4B C23B 1_555 1_555
C23B C24B 1_555 1_555
C24B C25B 1_555 1_555
C25B C26 1_555 1_555
H15B C25B 1_555 1_555
C26B C25 1_555 1_555
H16B C26B 1_555 1_555
Zn1B O3B 1_555 1_555
O1B Zn1B 1_555 1_555
N1B C15B 1_555 1_555
C1B O1B 1_555 1_555
O2B C1B 1_555 1_555
N2B C10B 1_555 1_555
C2B C1B 1_555 1_555
N3B C20B 1_555 1_555
C3B C2B 1_555 1_555
H1B C3B 1_555 1_555
C4B C3B 1_555 1_555
H2B C4B 1_555 1_555
C5B C4B 1_555 1_555
C6B C5B 1_555 1_555
H3B C6B 1_555 1_555
C7B C2B 1_555 1_555
H4B C7B 1_555 1_555
C8B C5B 1_555 1_555
C9B C8B 1_555 1_555
H5B C9B 1_555 1_555
C10B C9B 1_555 1_555
C11B N2B 1_555 1_555
C12B C8B 1_555 1_555
H6B C12B 1_555 1_555
C13B C10B 1_555 1_555
C14B C13B 1_555 1_555
H7B C14B 1_555 1_555
C15B C14B 1_555 1_555
H8B C15B 1_555 1_555
C16B N1B 1_555 1_555
H9B C16B 1_555 1_555
C17B C13B 1_555 1_555
H10B C17B 1_555 1_555
C18B C11B 1_555 1_555
C19B C18B 1_555 1_555
H11B C19B 1_555 1_555
C20B C19B 1_555 1_555
H12B C20B 1_555 1_555
C21B N3B 1_555 1_555
H13B C21B 1_555 1_555
C22B C18B 1_555 1_555
H14B C22B 1_555 1_555
Zn1A N3B 1_555 1_555
Zn1C O2B 1_555 1_555
Zn1C_2 N3 1_555 1_555
O2A Zn1 1_555 1_555
O2C Zn1B 1_555 1_555
N3A Zn1B 1_555 1_555
N3C Zn1 1_555 1_555
C6 C7 1_555 1_555
C11 C12 1_555 1_555
C16 C17 1_555 1_555
C21 C22 1_555 1_555
C24B C26B 1_555 1_555
C6B C7B 1_555 1_555
C11B C12B 1_555 1_555
C16B C17B 1_555 1_555
C21B C22B 1_555 1_555

#END
