
#######################################################################
#
#                 Cambridge Crystallographic Data Centre
#                                CCDC 
#
#######################################################################
#
# If this CIF has been generated from an entry in the Cambridge 
# Structural Database, then it will include bibliographic, chemical, 
# crystal, experimental, refinement or atomic coordinate data resulting 
# from the CCDC's data processing and validation procedures.
#
#######################################################################

data_GEYTIP
_symmetry_cell_setting           triclinic
_symmetry_space_group_name_H-M   'P -1'
_symmetry_Int_Tables_number      2
_space_group_name_Hall           '-P 1'
loop_
_symmetry_equiv_pos_site_id
_symmetry_equiv_pos_as_xyz
1 x,y,z
2 -x,-y,-z
_cell_length_a                   9.887(5)
_cell_length_b                   12.748(4)
_cell_length_c                   15.965(5)
_cell_angle_alpha                100.459(4)
_cell_angle_beta                 95.864(19)
_cell_angle_gamma                102.289(19)
_cell_volume                     1912.57
loop_
_atom_site_label
_atom_site_type_symbol
_atom_site_fract_x
_atom_site_fract_y
_atom_site_fract_z
Zn1 Zn 0.74883(4) -0.31651(2) 0.45334(2)
O1 O 0.8513(3) -0.2425(2) 0.37449(19)
O2 O 0.8991(4) -0.3909(2) 0.3027(2)
O3 O 0.6568(3) -1.20065(17) 0.49145(17)
O4 O 0.6988(3) -1.14221(18) 0.63272(16)
N1 N 1.4141(5) 0.0317(4) -0.1461(3)
N2 N 1.2516(3) 0.1082(3) -0.01930(19)
N3 N 1.2255(5) 0.3276(3) 0.0227(3)
N4 N 0.5650(3) -0.4177(2) 0.36557(17)
N5 N 0.7291(2) -0.47277(18) 0.47817(15)
N6 N 0.9146(3) -0.29638(19) 0.56027(18)
C1 C 0.8985(3) -0.2937(3) 0.3132(2)
C2 C 0.9588(3) -0.2252(3) 0.2525(2)
C3 C 1.0338(4) -0.2660(3) 0.1923(2)
H1 H 1.0438 -0.3377 0.1875
C4 C 1.0952(4) -0.2022(3) 0.1384(2)
H2 H 1.1465 -0.2312 0.0984
C5 C 1.0807(3) -0.0954(2) 0.14371(18)
C6 C 0.9444(4) -0.1186(3) 0.2580(2)
H3 H 0.8933 -0.0897 0.2984
C7 C 1.0052(4) -0.0541(3) 0.2041(2)
H4 H 0.9947 0.0174 0.2088
C8 C 1.1432(3) -0.0247(3) 0.08586(18)
C9 C 1.2222(3) -0.0622(3) 0.02611(19)
H5 H 1.2385 -0.1320 0.0219
C10 C 1.2770(3) 0.0037(3) -0.0272(2)
C11 C 1.1189(3) 0.0758(2) 0.09426(17)
H6 H 1.0651 0.0995 0.1350
C12 C 1.1729(3) 0.1422(3) 0.0434(2)
C13 C 1.1428(4) 0.2523(3) 0.0551(2)
C14 C 1.0341(4) 0.2755(4) 0.0970(3)
H7 H 0.9784 0.2210 0.1185
C15 C 1.0073(6) 0.3770(5) 0.1074(3)
H8 H 0.9348 0.3933 0.1362
C16 C 1.0907(8) 0.4543(5) 0.0739(3)
H9 H 1.0744 0.5243 0.0792
C17 C 1.1982(8) 0.4292(4) 0.0325(4)
H10 H 1.2541 0.4830 0.0104
C18 C 1.3622(3) -0.0356(3) -0.0931(2)
C19 C 1.3883(4) -0.1345(3) -0.0977(2)
H11 H 1.3506 -0.1795 -0.0619
C20 C 1.4692(5) -0.1693(5) -0.1543(3)
H12 H 1.4867 -0.2386 -0.1569
C21 C 1.5267(5) -0.1061(5) -0.2083(3)
H13 H 1.5831 -0.1312 -0.2467
C22 C 1.4992(6) -0.0063(6) -0.2042(3)
H14 H 1.5371 0.0380 -0.2403
C23 C 0.6831(3) -1.1257(2) 0.5604(2)
C24 C 0.6898(3) -1.0109(2) 0.54533(19)
C25 C 0.6566(3) -0.9925(2) 0.4636(2)
H15 H 0.6324 -1.0514 0.4166
C26 C 0.6589(3) -0.8879(2) 0.45123(19)
H16 H 0.6312 -0.8776 0.3964
C27 C 0.7022(3) -0.7972(2) 0.51945(19)
C28 C 0.7368(3) -0.8154(2) 0.6013(2)
H17 H 0.7656 -0.7562 0.6478
C29 C 0.7288(3) -0.9209(2) 0.6141(2)
H18 H 0.7497 -0.9319 0.6695
C30 C 0.7113(3) -0.6841(2) 0.50526(18)
C31 C 0.8169(3) -0.5957(2) 0.55224(19)
H19 H 0.8831 -0.6070 0.5933
C32 C 0.8225(3) -0.4910(2) 0.53748(18)
C33 C 0.6278(3) -0.5563(2) 0.43270(17)
C34 C 0.6159(3) -0.6631(2) 0.44472(19)
H20 H 0.5443 -0.7200 0.4123
C35 C 0.5301(3) -0.5238(2) 0.37036(18)
C36 C 0.4103(3) -0.5962(3) 0.3225(2)
H21 H 0.3862 -0.6691 0.3279
C37 C 0.3286(4) -0.5562(3) 0.2668(2)
H22 H 0.2474 -0.6021 0.2340
C38 C 0.3672(5) -0.4484(3) 0.2598(3)
H23 H 0.3145 -0.4215 0.2207
C39 C 0.4844(4) -0.3810(3) 0.3113(2)
H24 H 0.5083 -0.3073 0.3082
C40 C 0.9270(3) -0.3898(2) 0.58606(19)
C41 C 1.0258(4) -0.3898(3) 0.6522(2)
H25 H 1.0333 -0.4552 0.6682
C42 C 1.1153(4) -0.2909(3) 0.6955(3)
H26 H 1.1839 -0.2892 0.7405
C43 C 1.1009(4) -0.1956(3) 0.6707(3)
H27 H 1.1583 -0.1283 0.6993
C44 C 1.0004(4) -0.2016(3) 0.6029(3)
H28 H 0.9917 -0.1370 0.5858
Zn1_2 Zn 0.74883(4) -1.31651(2) 0.45334(2)
O3_2 O 0.6568(3) -0.20065(17) 0.49145(17)
O5 O 1.4320(7) 0.3419(6) -0.0968(5)
O6 O 1.3377(6) -0.3190(4) -0.0123(4)
O7 O 0.6731(8) -0.5159(5) 0.1617(4)
O8? O 0.725(3) -0.560(2) 0.1995(17)
loop_
_geom_bond_atom_site_label_1
_geom_bond_atom_site_label_2
_geom_bond_site_symmetry_1
_geom_bond_site_symmetry_2
Zn1 O1 1_555 1_555
O1 C1 1_555 1_555
O2 C1 1_555 1_555
O3 C23 1_555 1_555
O4 C23 1_555 1_555
N1 C18 1_555 1_555
N2 C10 1_555 1_555
N3 C13 1_555 1_555
N4 Zn1 1_555 1_555
N5 Zn1 1_555 1_555
N6 Zn1 1_555 1_555
C1 C2 1_555 1_555
C2 C3 1_555 1_555
C3 H1 1_555 1_555
C4 C3 1_555 1_555
H2 C4 1_555 1_555
C5 C4 1_555 1_555
C6 C2 1_555 1_555
H3 C6 1_555 1_555
C7 C5 1_555 1_555
H4 C7 1_555 1_555
C8 C5 1_555 1_555
C9 C8 1_555 1_555
H5 C9 1_555 1_555
C10 C9 1_555 1_555
C11 C8 1_555 1_555
H6 C11 1_555 1_555
C12 N2 1_555 1_555
C13 C12 1_555 1_555
C14 C13 1_555 1_555
H7 C14 1_555 1_555
C15 C14 1_555 1_555
H8 C15 1_555 1_555
C16 C15 1_555 1_555
H9 C16 1_555 1_555
C17 N3 1_555 1_555
H10 C17 1_555 1_555
C18 C10 1_555 1_555
C19 C18 1_555 1_555
H11 C19 1_555 1_555
C20 C19 1_555 1_555
H12 C20 1_555 1_555
C21 C20 1_555 1_555
H13 C21 1_555 1_555
C22 N1 1_555 1_555
H14 C22 1_555 1_555
C23 C24 1_555 1_555
C24 C25 1_555 1_555
C25 H15 1_555 1_555
C26 C25 1_555 1_555
H16 C26 1_555 1_555
C27 C26 1_555 1_555
C28 C27 1_555 1_555
H17 C28 1_555 1_555
C29 C24 1_555 1_555
H18 C29 1_555 1_555
C30 C27 1_555 1_555
C31 C30 1_555 1_555
H19 C31 1_555 1_555
C32 N5 1_555 1_555
C33 N5 1_555 1_555
C34 C30 1_555 1_555
H20 C34 1_555 1_555
C35 N4 1_555 1_555
C36 C35 1_555 1_555
H21 C36 1_555 1_555
C37 C36 1_555 1_555
H22 C37 1_555 1_555
C38 C37 1_555 1_555
H23 C38 1_555 1_555
C39 N4 1_555 1_555
H24 C39 1_555 1_555
C40 N6 1_555 1_555
C41 C40 1_555 1_555
H25 C41 1_555 1_555
C42 C41 1_555 1_555
H26 C42 1_555 1_555
C43 C42 1_555 1_555
H27 C43 1_555 1_555
C44 N6 1_555 1_555
H28 C44 1_555 1_555
Zn1_2 O3 1_555 1_555
O3_2 Zn1 1_555 1_555
C6 C7 1_555 1_555
C11 C12 1_555 1_555
C16 C17 1_555 1_555
C21 C22 1_555 1_555
C28 C29 1_555 1_555
C31 C32 1_555 1_555
C32 C40 1_555 1_555
C33 C34 1_555 1_555
C33 C35 1_555 1_555
C38 C39 1_555 1_555
C43 C44 1_555 1_555

#END
