
#######################################################################
#
#                 Cambridge Crystallographic Data Centre
#                                CCDC 
#
#######################################################################
#
# If this CIF has been generated from an entry in the Cambridge 
# Structural Database, then it will include bibliographic, chemical, 
# crystal, experimental, refinement or atomic coordinate data resulting 
# from the CCDC's data processing and validation procedures.
#
#######################################################################

data_GEYTEL
_symmetry_cell_setting           triclinic
_symmetry_space_group_name_H-M   'P -1'
_symmetry_Int_Tables_number      2
_space_group_name_Hall           '-P 1'
loop_
_symmetry_equiv_pos_site_id
_symmetry_equiv_pos_as_xyz
1 x,y,z
2 -x,-y,-z
_cell_length_a                   15.120(4)
_cell_length_b                   15.143(4)
_cell_length_c                   17.514(5)
_cell_angle_alpha                69.388(7)
_cell_angle_beta                 86.529(8)
_cell_angle_gamma                79.694(9)
_cell_volume                     3692.78
loop_
_atom_site_label
_atom_site_type_symbol
_atom_site_fract_x
_atom_site_fract_y
_atom_site_fract_z
Zn1 Zn 0.93068(4) 0.68106(4) 0.33031(3)
O1 O 0.0518(3) 0.6917(3) 0.2871(2)
O2 O -0.0029(3) 0.8331(4) 0.1969(3)
O3 O 0.8965(2) 1.5674(2) 0.4319(2)
O4 O 0.9477(2) 1.5317(2) 0.3270(2)
N1 N 0.8159(3) 0.7231(3) 0.2586(3)
N2 N 0.5863(3) 0.8549(3) 0.0347(3)
N3 N 0.5549(4) 1.0474(4) -0.2665(3)
N4 N 0.9058(3) 0.7749(3) 0.3958(3)
N5 N 0.8371(3) 0.9230(3) 0.6125(3)
N6 N 0.7819(4) 0.8237(5) 0.9114(4)
C1 C 0.8171(4) 0.7605(5) 0.1781(4)
H1 H 0.8720 0.7702 0.1524
C2 C 0.7406(4) 0.7859(5) 0.1299(4)
H2 H 0.7453 0.8117 0.0735
C3 C 0.6582(3) 0.7733(4) 0.1652(3)
C4 C 0.6577(4) 0.7322(6) 0.2493(4)
H3 H 0.6039 0.7205 0.2765
C5 C 0.7360(4) 0.7086(6) 0.2927(4)
H4 H 0.7333 0.6810 0.3492
C6 C 0.5757(3) 0.8014(4) 0.1128(3)
C7 C 0.4937(3) 0.7753(4) 0.1446(3)
H5 H 0.4893 0.7375 0.1991
C8 C 0.4185(3) 0.8060(4) 0.0943(3)
C9 C 0.4308(3) 0.8580(4) 0.0129(3)
H6 H 0.3827 0.8779 -0.0232
C10 C 0.5148(3) 0.8805(4) -0.0149(3)
C11 C 0.5284(3) 0.9389(4) -0.1022(3)
C12 C 0.5991(4) 0.9887(4) -0.1256(3)
H7 H 0.6398 0.9867 -0.0871
C13 C 0.6087(4) 1.0416(4) -0.2072(4)
H8 H 0.6563 1.0756 -0.2215
C14 C 0.4889(5) 0.9989(7) -0.2440(4)
H9 H 0.4505 1.0005 -0.2841
C15 C 0.4724(5) 0.9449(6) -0.1632(4)
H10 H 0.4235 0.9129 -0.1508
C16 C 0.3271(3) 0.7905(4) 0.1267(3)
C17 C 0.2522(3) 0.8542(4) 0.0881(3)
H11 H 0.2594 0.9042 0.0400
C18 C 0.1663(4) 0.8449(5) 0.1197(3)
H12 H 0.1170 0.8879 0.0918
C19 C 0.1533(3) 0.7728(4) 0.1919(3)
C20 C 0.2288(4) 0.7077(4) 0.2315(3)
H13 H 0.2215 0.6579 0.2798
C21 C 0.3145(3) 0.7168(4) 0.1994(3)
H14 H 0.3639 0.6732 0.2265
C22 C 0.0607(4) 0.7670(5) 0.2263(3)
C23 C 0.8704(4) 0.7485(4) 0.4710(3)
H15 H 0.8565 0.6871 0.4936
C24 C 0.8535(4) 0.8076(4) 0.5163(3)
H16 H 0.8284 0.7861 0.5680
C25 C 0.8741(3) 0.8998(3) 0.4846(3)
C26 C 0.9105(4) 0.9268(4) 0.4072(3)
H17 H 0.9254 0.9876 0.3835
C27 C 0.9248(4) 0.8639(4) 0.3653(3)
H18 H 0.9488 0.8842 0.3130
C28 C 0.8595(3) 0.9629(3) 0.5339(3)
C29 C 0.8705(3) 1.0580(3) 0.5004(3)
H19 H 0.8851 1.0837 0.4455
C30 C 0.8600(3) 1.1151(3) 0.5484(3)
C31 C 0.8386(3) 1.0727(4) 0.6298(3)
H20 H 0.8310 1.1082 0.6643
C32 C 0.8289(3) 0.9774(4) 0.6595(3)
C33 C 0.8102(4) 0.9268(4) 0.7474(3)
C34 C 0.8448(4) 0.9479(4) 0.8085(4)
H21 H 0.8778 0.9975 0.7959
C35 C 0.8296(5) 0.8940(5) 0.8897(4)
H22 H 0.8542 0.9081 0.9306
C36 C 0.7477(5) 0.8051(5) 0.8515(5)
H23 H 0.7129 0.7570 0.8657
C37 C 0.7607(4) 0.8520(4) 0.7707(4)
H24 H 0.7367 0.8345 0.7315
C38 C 0.8721(3) 1.2175(3) 0.5118(3)
C39 C 0.9029(6) 1.2520(4) 0.4336(4)
H25 H 0.9152 1.2114 0.4035
C40 C 0.9163(6) 1.3460(4) 0.3982(4)
H26 H 0.9367 1.3675 0.3447
C41 C 0.9002(3) 1.4072(4) 0.4401(3)
C42 C 0.8714(5) 1.3739(4) 0.5190(4)
H27 H 0.8612 1.4144 0.5492
C43 C 0.8575(5) 1.2798(4) 0.5543(3)
H28 H 0.8378 1.2584 0.6080
C44 C 0.9167(3) 1.5085(4) 0.3970(3)
Zn1_2 Zn -0.06932(4) 0.68106(4) 0.33031(3)
Zn1_3 Zn 0.93068(4) 1.68106(4) 0.33031(3)
O1_2 O 1.0518(3) 0.6917(3) 0.2871(2)
O3_2 O 0.8965(2) 0.5674(2) 0.4319(2)
O4_2 O 0.9477(2) 0.5317(2) 0.3270(2)
Zn2 Zn 1.42685(4) 0.42571(4) 0.30704(4)
O5 O 1.4337(5) -0.4745(4) 0.3494(5)
O6 O 1.3383(5) -0.5376(5) 0.4426(5)
O7 O 0.4895(4) 0.5361(5) 0.1680(4)
O8 O 0.5491(3) 0.4047(4) 0.2592(3)
N7 N 1.4152(3) 0.2854(3) 0.3766(3)
N8 N 1.3477(3) -0.0116(3) 0.5925(2)
N9 N 1.2453(5) -0.1115(9) 0.8821(4)
N10 N 1.3086(3) 0.4644(3) 0.2409(3)
N11 N 1.0728(3) 0.6192(4) 0.0235(3)
N12 N 1.0352(4) 0.8282(5) -0.2725(3)
C45 C 1.3964(4) 0.2585(4) 0.4557(3)
H29 H 1.3922 0.3033 0.4815
C46 C 1.3827(4) 0.1673(4) 0.5012(3)
H30 H 1.3694 0.1521 0.5564
C47 C 1.3885(3) 0.0979(3) 0.4656(3)
C48 C 1.4110(4) 0.1254(4) 0.3839(3)
H31 H 1.4172 0.0816 0.3569
C49 C 1.4241(4) 0.2183(4) 0.3423(3)
H32 H 1.4400 0.2350 0.2875
C50 C 1.3718(3) -0.0007(3) 0.5155(3)
C51 C 1.3818(3) -0.0741(3) 0.4849(3)
H33 H 1.3983 -0.0629 0.4307
C52 C 1.3673(3) -0.1648(3) 0.5345(3)
C53 C 1.3427(4) -0.1757(4) 0.6152(3)
H34 H 1.3330 -0.2350 0.6513
C54 C 1.3329(3) -0.0983(4) 0.6412(3)
C55 C 1.3037(4) -0.1055(4) 0.7255(3)
C56 C 1.3147(5) -0.1915(6) 0.7911(4)
H35 H 1.3423 -0.2485 0.7847
C57 C 1.2826(7) -0.1886(9) 0.8671(5)
H36 H 1.2883 -0.2464 0.9106
C58 C 1.2372(5) -0.0315(9) 0.8192(5)
H37 H 1.2111 0.0245 0.8281
C59 C 1.2639(4) -0.0240(6) 0.7419(4)
H38 H 1.2556 0.0353 0.7003
C60 C 1.3770(4) -0.2468(4) 0.5043(3)
C61 C 1.4074(6) -0.2380(5) 0.4265(4)
H39 H 1.4233 -0.1805 0.3924
C62 C 1.4145(6) -0.3148(6) 0.3986(5)
H40 H 1.4372 -0.3079 0.3466
C63 C 1.3892(5) -0.3991(5) 0.4450(5)
C64 C 1.3609(6) -0.4092(5) 0.5227(5)
H41 H 1.3445 -0.4667 0.5562
C65 C 1.3562(6) -0.3344(4) 0.5522(4)
H42 H 1.3384 -0.3439 0.6059
C66 C 1.3890(8) -0.4764(7) 0.4102(8)
C67 C 1.2282(3) 0.4631(4) 0.2788(3)
H43 H 1.2272 0.4398 0.3355
C68 C 1.1474(3) 0.4949(4) 0.2373(3)
H44 H 1.0935 0.4916 0.2659
C69 C 1.1467(3) 0.5315(4) 0.1531(3)
C70 C 1.2290(4) 0.5320(7) 0.1150(4)
H45 H 1.2319 0.5545 0.0583
C71 C 1.3072(4) 0.4994(7) 0.1602(4)
H46 H 1.3618 0.5021 0.1326
C72 C 1.0626(3) 0.5655(4) 0.1033(3)
C73 C 0.9811(3) 0.5399(4) 0.1348(3)
H47 H 0.9757 0.5063 0.1902
C74 C 0.9066(3) 0.5649(4) 0.0830(3)
C75 C 0.9190(3) 0.6176(4) 0.0015(3)
H48 H 0.8716 0.6344 -0.0352
C76 C 1.0008(4) 0.6453(4) -0.0257(3)
C77 C 1.0126(4) 0.7081(5) -0.1119(3)
C78 C 1.0671(5) 0.7748(7) -0.1305(4)
H49 H 1.0986 0.7815 -0.0894
C79 C 1.0758(5) 0.8329(7) -0.2108(4)
H50 H 1.1132 0.8784 -0.2215
C80 C 0.9822(4) 0.7618(5) -0.2551(4)
H51 H 0.9532 0.7556 -0.2978
C81 C 0.9686(4) 0.7017(4) -0.1759(3)
H52 H 0.9300 0.6575 -0.1662
C82 C 0.8193(3) 0.5393(4) 0.1102(3)
C83 C 0.8095(3) 0.4657(5) 0.1836(3)
H53 H 0.8604 0.4296 0.2138
C84 C 0.7247(3) 0.4451(6) 0.2127(4)
H54 H 0.7197 0.3997 0.2642
C85 C 0.6473(4) 0.4915(5) 0.1661(4)
C86 C 0.6566(4) 0.5719(5) 0.0973(4)
H55 H 0.6053 0.6103 0.0692
C87 C 0.7408(3) 0.5961(5) 0.0697(4)
H56 H 0.7447 0.6503 0.0241
C88 C 0.5593(5) 0.4680(6) 0.1979(5)
Zn2_2 Zn 0.42685(4) 0.42571(4) 0.30704(4)
Zn2_3 Zn 1.42685(4) -0.57429(4) 0.30704(4)
O5_2 O 1.4337(5) 0.5255(4) 0.3494(5)
O8_2 O 1.5491(3) 0.4047(4) 0.2592(3)
O9 O 0.0757(6) 1.0299(9) -0.0513(5)
O10 O 1.449(2) 0.308(2) 0.1223(18)
O11 O 1.446(3) -0.387(3) 0.987(2)
loop_
_geom_bond_atom_site_label_1
_geom_bond_atom_site_label_2
_geom_bond_site_symmetry_1
_geom_bond_site_symmetry_2
Zn1 N1 1_555 1_555
O1 C22 1_555 1_555
O2 C22 1_555 1_555
O3 C44 1_555 1_555
O4 C44 1_555 1_555
N1 C1 1_555 1_555
N2 C6 1_555 1_555
N3 C13 1_555 1_555
N4 Zn1 1_555 1_555
N5 C28 1_555 1_555
N6 C35 1_555 1_555
C1 H1 1_555 1_555
C2 C1 1_555 1_555
H2 C2 1_555 1_555
C3 C2 1_555 1_555
C4 C3 1_555 1_555
H3 C4 1_555 1_555
C5 N1 1_555 1_555
H4 C5 1_555 1_555
C6 C3 1_555 1_555
C7 C6 1_555 1_555
H5 C7 1_555 1_555
C8 C7 1_555 1_555
C9 C8 1_555 1_555
H6 C9 1_555 1_555
C10 N2 1_555 1_555
C11 C10 1_555 1_555
C12 C11 1_555 1_555
H7 C12 1_555 1_555
C13 C12 1_555 1_555
H8 C13 1_555 1_555
C14 N3 1_555 1_555
H9 C14 1_555 1_555
C15 C11 1_555 1_555
H10 C15 1_555 1_555
C16 C8 1_555 1_555
C17 C16 1_555 1_555
H11 C17 1_555 1_555
C18 C17 1_555 1_555
H12 C18 1_555 1_555
C19 C18 1_555 1_555
C20 C19 1_555 1_555
H13 C20 1_555 1_555
C21 C16 1_555 1_555
H14 C21 1_555 1_555
C22 C19 1_555 1_555
C23 N4 1_555 1_555
H15 C23 1_555 1_555
C24 C23 1_555 1_555
H16 C24 1_555 1_555
C25 C24 1_555 1_555
C26 C25 1_555 1_555
H17 C26 1_555 1_555
C27 N4 1_555 1_555
H18 C27 1_555 1_555
C28 C25 1_555 1_555
C29 C28 1_555 1_555
H19 C29 1_555 1_555
C30 C29 1_555 1_555
C31 C30 1_555 1_555
H20 C31 1_555 1_555
C32 N5 1_555 1_555
C33 C32 1_555 1_555
C34 C33 1_555 1_555
H21 C34 1_555 1_555
C35 C34 1_555 1_555
H22 C35 1_555 1_555
C36 N6 1_555 1_555
H23 C36 1_555 1_555
C37 C33 1_555 1_555
H24 C37 1_555 1_555
C38 C30 1_555 1_555
C39 C38 1_555 1_555
H25 C39 1_555 1_555
C40 C39 1_555 1_555
H26 C40 1_555 1_555
C41 C40 1_555 1_555
C42 C41 1_555 1_555
H27 C42 1_555 1_555
C43 C38 1_555 1_555
H28 C43 1_555 1_555
C44 C41 1_555 1_555
Zn2 N7 1_555 1_555
O5 C66 1_555 1_555
O6 C66 1_555 1_555
O7 C88 1_555 1_555
O8 C88 1_555 1_555
N7 C45 1_555 1_555
N8 C50 1_555 1_555
N9 C57 1_555 1_555
N10 Zn2 1_555 1_555
N11 C72 1_555 1_555
N12 C79 1_555 1_555
C45 H29 1_555 1_555
C46 C45 1_555 1_555
H30 C46 1_555 1_555
C47 C46 1_555 1_555
C48 C47 1_555 1_555
H31 C48 1_555 1_555
C49 N7 1_555 1_555
H32 C49 1_555 1_555
C50 C47 1_555 1_555
C51 C50 1_555 1_555
H33 C51 1_555 1_555
C52 C51 1_555 1_555
C53 C52 1_555 1_555
H34 C53 1_555 1_555
C54 N8 1_555 1_555
C55 C54 1_555 1_555
C56 C55 1_555 1_555
H35 C56 1_555 1_555
C57 C56 1_555 1_555
H36 C57 1_555 1_555
C58 N9 1_555 1_555
H37 C58 1_555 1_555
C59 C55 1_555 1_555
H38 C59 1_555 1_555
C60 C52 1_555 1_555
C61 C60 1_555 1_555
H39 C61 1_555 1_555
C62 C61 1_555 1_555
H40 C62 1_555 1_555
C63 C62 1_555 1_555
C64 C63 1_555 1_555
H41 C64 1_555 1_555
C65 C60 1_555 1_555
H42 C65 1_555 1_555
C66 C63 1_555 1_555
C67 N10 1_555 1_555
H43 C67 1_555 1_555
C68 C67 1_555 1_555
H44 C68 1_555 1_555
C69 C68 1_555 1_555
C70 C69 1_555 1_555
H45 C70 1_555 1_555
C71 N10 1_555 1_555
H46 C71 1_555 1_555
C72 C69 1_555 1_555
C73 C72 1_555 1_555
H47 C73 1_555 1_555
C74 C73 1_555 1_555
C75 C74 1_555 1_555
H48 C75 1_555 1_555
C76 N11 1_555 1_555
C77 C76 1_555 1_555
C78 C77 1_555 1_555
H49 C78 1_555 1_555
C79 C78 1_555 1_555
H50 C79 1_555 1_555
C80 N12 1_555 1_555
H51 C80 1_555 1_555
C81 C77 1_555 1_555
H52 C81 1_555 1_555
C82 C74 1_555 1_555
C83 C82 1_555 1_555
H53 C83 1_555 1_555
C84 C83 1_555 1_555
H54 C84 1_555 1_555
C85 C84 1_555 1_555
C86 C85 1_555 1_555
H55 C86 1_555 1_555
C87 C82 1_555 1_555
H56 C87 1_555 1_555
C88 C85 1_555 1_555
Zn1_2 O1 1_555 1_555
Zn1_3 O3 1_555 1_555
O1_2 Zn1 1_555 1_555
O3_2 Zn1 1_555 1_555
O4_2 Zn1 1_555 1_555
Zn2_2 O8 1_555 1_555
Zn2_3 O5 1_555 1_555
O5_2 Zn2 1_555 1_555
O8_2 Zn2 1_555 1_555
O4 Zn1_3 1_555 1_555
C4 C5 1_555 1_555
C9 C10 1_555 1_555
C14 C15 1_555 1_555
C20 C21 1_555 1_555
C26 C27 1_555 1_555
C31 C32 1_555 1_555
C36 C37 1_555 1_555
C42 C43 1_555 1_555
C48 C49 1_555 1_555
C53 C54 1_555 1_555
C58 C59 1_555 1_555
C64 C65 1_555 1_555
C70 C71 1_555 1_555
C75 C76 1_555 1_555
C80 C81 1_555 1_555
C86 C87 1_555 1_555

#END
