
#######################################################################
#
#                 Cambridge Crystallographic Data Centre
#                                CCDC 
#
#######################################################################
#
# If this CIF has been generated from an entry in the Cambridge 
# Structural Database, then it will include bibliographic, chemical, 
# crystal, experimental, refinement or atomic coordinate data resulting 
# from the CCDC's data processing and validation procedures.
#
#######################################################################

data_GEZBEU
_symmetry_cell_setting           monoclinic
_symmetry_space_group_name_H-M   'P 21/c'
_symmetry_Int_Tables_number      14
_space_group_name_Hall           '-P 2ybc'
loop_
_symmetry_equiv_pos_site_id
_symmetry_equiv_pos_as_xyz
1 x,y,z
2 -x,1/2+y,1/2-z
3 -x,-y,-z
4 x,1/2-y,1/2+z
_cell_length_a                   8.8187(3)
_cell_length_b                   24.1440(10)
_cell_length_c                   8.9808(3)
_cell_angle_alpha                90
_cell_angle_beta                 110.342(2)
_cell_angle_gamma                90
_cell_volume                     1792.93
loop_
_atom_site_label
_atom_site_type_symbol
_atom_site_fract_x
_atom_site_fract_y
_atom_site_fract_z
Cu1 Cu 1.00342(5) 0.197654(18) 0.67958(5)
O1 O 1.0264(3) 0.15226(10) 0.8652(3)
O2 O 1.2127(3) 0.09959(11) 1.0401(3)
O3 O 1.0218(3) 0.23422(10) 0.4931(3)
O4 O 1.1799(3) 0.23969(10) 0.3462(3)
N1 N 1.1562(3) 0.14213(12) 0.6388(3)
N2 N 0.5765(3) 0.23905(13) 0.7583(3)
N3 N 0.8051(3) 0.23816(12) 0.6731(3)
N4 N 0.4234(3) 0.31717(13) 0.7510(3)
H1 H 0.3600 0.2964 0.7824
H2 H 0.3934 0.3491 0.7039
N5 N 0.8676(3) 0.32762(12) 0.5855(3)
H3 H 0.9548 0.3185 0.5646
C1 C 0.6997(4) 0.21498(15) 0.7315(4)
H4 H 0.7150 0.1767 0.7567
C2 C 0.7788(4) 0.29282(14) 0.6415(4)
C3 C 0.6525(4) 0.32309(15) 0.6623(4)
C4 C 0.5488(4) 0.29358(15) 0.7235(4)
C5 C 0.6668(4) 0.37873(15) 0.6140(4)
H5 H 0.5984 0.4091 0.6146
C6 C 0.7982(4) 0.37963(16) 0.5667(4)
H6 H 0.8361 0.4112 0.5270
C7 C 1.2547(4) 0.12287(16) 0.8001(4)
H7 H 1.3506 0.1471 0.8437
H8 H 1.2932 0.0847 0.7936
C8 C 1.1574(4) 0.12360(15) 0.9113(4)
C9 C 1.2472(4) 0.17315(15) 0.5555(4)
H9 H 1.2810 0.1476 0.4866
H10 H 1.3458 0.1894 0.6341
C10 C 1.1428(4) 0.21891(14) 0.4555(4)
C11 C 1.0659(4) 0.09571(16) 0.5350(4)
H11 H 1.1440 0.0665 0.5329
H12 H 1.0149 0.1098 0.4253
C12 C 0.9371(5) 0.07028(15) 0.5878(4)
C13 C 0.9688(4) 0.02582(15) 0.6919(4)
H13 H 1.0730 0.0092 0.7264
C14 C 0.8502(5) 0.00507(15) 0.7466(4)
H14 H 0.8741 -0.0255 0.8176
C15 C 0.6974(4) 0.02884(15) 0.6980(4)
C16 C 0.6639(5) 0.07271(16) 0.5911(4)
H15 H 0.5591 0.0889 0.5552
C17 C 0.7821(5) 0.09309(16) 0.5363(4)
H16 H 0.7571 0.1230 0.4629
C18 C 0.5699(5) 0.00805(17) 0.7621(5)
H17 H 0.4652 0.0061 0.6755
H18 H 0.5622 0.0335 0.8442
H19 H 0.6000 -0.0289 0.8080
Cu1C Cu 1.00342(5) 0.302346(18) 0.17958(5)
O4C O 1.1799(3) 0.26031(10) 0.8462(3)
loop_
_geom_bond_atom_site_label_1
_geom_bond_atom_site_label_2
_geom_bond_site_symmetry_1
_geom_bond_site_symmetry_2
Cu1 O1 1_555 1_555
O1 C8 1_555 1_555
O2 C8 1_555 1_555
O3 Cu1 1_555 1_555
O4 C10 1_555 1_555
N1 Cu1 1_555 1_555
N2 C1 1_555 1_555
N3 Cu1 1_555 1_555
N4 H1 1_555 1_555
H2 N4 1_555 1_555
N5 H3 1_555 1_555
C1 N3 1_555 1_555
H4 C1 1_555 1_555
C2 N3 1_555 1_555
C3 C2 1_555 1_555
C4 N2 1_555 1_555
C5 C3 1_555 1_555
H5 C5 1_555 1_555
C6 N5 1_555 1_555
H6 C6 1_555 1_555
C7 N1 1_555 1_555
H7 C7 1_555 1_555
H8 C7 1_555 1_555
C8 C7 1_555 1_555
C9 N1 1_555 1_555
H9 C9 1_555 1_555
H10 C9 1_555 1_555
C10 O3 1_555 1_555
C11 N1 1_555 1_555
H11 C11 1_555 1_555
H12 C11 1_555 1_555
C12 C11 1_555 1_555
C13 C12 1_555 1_555
H13 C13 1_555 1_555
C14 C13 1_555 1_555
H14 C14 1_555 1_555
C15 C14 1_555 1_555
C16 C15 1_555 1_555
H15 C16 1_555 1_555
C17 C12 1_555 1_555
H16 C17 1_555 1_555
C18 C15 1_555 1_555
H17 C18 1_555 1_555
H18 C18 1_555 1_555
H19 C18 1_555 1_555
Cu1C O4 1_555 1_555
O4C Cu1 1_555 1_555
N4 C4 1_555 1_555
N5 C2 1_555 1_555
C3 C4 1_555 1_555
C5 C6 1_555 1_555
C9 C10 1_555 1_555
C16 C17 1_555 1_555

#END
