
#######################################################################
#
#                 Cambridge Crystallographic Data Centre
#                                CCDC 
#
#######################################################################
#
# If this CIF has been generated from an entry in the Cambridge 
# Structural Database, then it will include bibliographic, chemical, 
# crystal, experimental, refinement or atomic coordinate data resulting 
# from the CCDC's data processing and validation procedures.
#
#######################################################################

data_GEZCOF
_symmetry_cell_setting           monoclinic
_symmetry_space_group_name_H-M   'P 21/c'
_symmetry_Int_Tables_number      14
_space_group_name_Hall           '-P 2ybc'
loop_
_symmetry_equiv_pos_site_id
_symmetry_equiv_pos_as_xyz
1 x,y,z
2 -x,1/2+y,1/2-z
3 -x,-y,-z
4 x,1/2-y,1/2+z
_cell_length_a                   13.418(4)
_cell_length_b                   7.707(2)
_cell_length_c                   19.083(5)
_cell_angle_alpha                90
_cell_angle_beta                 106.648(13)
_cell_angle_gamma                90
_cell_volume                     1890.7
loop_
_atom_site_label
_atom_site_type_symbol
_atom_site_fract_x
_atom_site_fract_y
_atom_site_fract_z
Cu1 Cu 0.02567(5) 0.19919(7) 0.14603(3)
Cl1 Cl 0.33535(12) 0.38694(16) -0.07407(8)
O1 O 0.0867(3) 0.4251(4) 0.1378(2)
O2 O 0.2201(3) 0.5903(4) 0.1937(2)
O3 O -0.0070(3) -0.0414(4) 0.1638(2)
O4 O 0.0317(3) -0.2275(4) 0.2575(2)
N1 N 0.1624(3) 0.1448(5) 0.2165(2)
N2 N -0.3601(4) 0.2303(5) -0.0426(3)
N3 N -0.0941(3) 0.2399(5) 0.0618(2)
N4 N -0.1883(4) 0.3034(5) -0.0520(3)
H1 H -0.2036 0.3379 -0.0978
C1 C -0.3536(4) 0.1360(7) 0.0798(3)
H2 H -0.3919 0.0995 0.1120
C2 C -0.4066(5) 0.1721(7) 0.0062(4)
H3 H -0.4797 0.1542 -0.0097
C3 C -0.2567(4) 0.2471(6) -0.0152(3)
C4 C -0.1969(4) 0.2110(6) 0.0559(3)
C5 C -0.2484(4) 0.1525(6) 0.1055(3)
H4 H -0.2118 0.1256 0.1547
C6 C -0.0944(4) 0.2950(6) -0.0043(3)
H5 H -0.0328 0.3257 -0.0164
C7 C 0.2030(4) 0.3132(6) 0.2474(3)
H6 H 0.2799 0.3097 0.2644
H7 H 0.1771 0.3405 0.2898
C8 C 0.1675(4) 0.4498(7) 0.1894(3)
C9 C 0.1366(4) 0.0224(6) 0.2678(3)
H8 H 0.1155 0.0870 0.3061
H9 H 0.1984 -0.0488 0.2919
C10 C 0.0483(4) -0.0940(6) 0.2260(3)
C11 C 0.2355(5) 0.0564(6) 0.1821(3)
H10 H 0.2070 -0.0595 0.1649
H11 H 0.3026 0.0386 0.2200
C12 C 0.2560(4) 0.1530(6) 0.1183(3)
C13 C 0.3461(4) 0.2482(7) 0.1281(3)
H12 H 0.3924 0.2610 0.1759
C14 C 0.3702(5) 0.3253(6) 0.0693(3)
H13 H 0.4322 0.3910 0.0759
C15 C 0.3012(5) 0.3030(6) 0.0012(3)
C16 C 0.2084(5) 0.2141(6) -0.0105(3)
H14 H 0.1608 0.2043 -0.0580
C17 C 0.1877(5) 0.1403(7) 0.0498(3)
H15 H 0.1244 0.0789 0.0435
Cu1A Cu -0.02567(5) -0.30081(7) 0.35397(3)
O4A O -0.0317(3) 0.2725(4) 0.2425(2)
O5 O 0.4846(4) 0.2480(7) 0.3177(3)
H16 H 0.5420 0.2467 0.3515
H17 H 0.4722 0.3512 0.3013
O6 O 0.4269(4) 0.5747(7) 0.2714(3)
H18 H 0.4597 0.6499 0.2538
H19 H 0.3783 0.5307 0.2366
loop_
_geom_bond_atom_site_label_1
_geom_bond_atom_site_label_2
_geom_bond_site_symmetry_1
_geom_bond_site_symmetry_2
Cu1 O1 1_555 1_555
Cl1 C15 1_555 1_555
O1 C8 1_555 1_555
O2 C8 1_555 1_555
O3 Cu1 1_555 1_555
O4 C10 1_555 1_555
N1 Cu1 1_555 1_555
N2 C2 1_555 1_555
N3 Cu1 1_555 1_555
N4 H1 1_555 1_555
C1 H2 1_555 1_555
C2 C1 1_555 1_555
H3 C2 1_555 1_555
C3 N2 1_555 1_555
C4 N3 1_555 1_555
C5 C1 1_555 1_555
H4 C5 1_555 1_555
C6 N3 1_555 1_555
H5 C6 1_555 1_555
C7 N1 1_555 1_555
H6 C7 1_555 1_555
H7 C7 1_555 1_555
C8 C7 1_555 1_555
C9 N1 1_555 1_555
H8 C9 1_555 1_555
H9 C9 1_555 1_555
C10 O3 1_555 1_555
C11 N1 1_555 1_555
H10 C11 1_555 1_555
H11 C11 1_555 1_555
C12 C11 1_555 1_555
C13 C12 1_555 1_555
H12 C13 1_555 1_555
C14 C13 1_555 1_555
H13 C14 1_555 1_555
C15 C14 1_555 1_555
C16 C15 1_555 1_555
H14 C16 1_555 1_555
C17 C12 1_555 1_555
H15 C17 1_555 1_555
O5 H16 1_555 1_555
H17 O5 1_555 1_555
O6 H18 1_555 1_555
H19 O6 1_555 1_555
Cu1A O4 1_555 1_555
O4A Cu1 1_555 1_555
N4 C3 1_555 1_555
N4 C6 1_555 1_555
C3 C4 1_555 1_555
C4 C5 1_555 1_555
C9 C10 1_555 1_555
C16 C17 1_555 1_555

#END
