
#######################################################################
#
#                 Cambridge Crystallographic Data Centre
#                                CCDC 
#
#######################################################################
#
# If this CIF has been generated from an entry in the Cambridge 
# Structural Database, then it will include bibliographic, chemical, 
# crystal, experimental, refinement or atomic coordinate data resulting 
# from the CCDC's data processing and validation procedures.
#
#######################################################################

data_GEZKON
_symmetry_cell_setting           monoclinic
_symmetry_space_group_name_H-M   'P 21/c'
_symmetry_Int_Tables_number      14
_space_group_name_Hall           '-P 2ybc'
loop_
_symmetry_equiv_pos_site_id
_symmetry_equiv_pos_as_xyz
1 x,y,z
2 -x,1/2+y,1/2-z
3 -x,-y,-z
4 x,1/2-y,1/2+z
_cell_length_a                   7.72520(17)
_cell_length_b                   28.6099(6)
_cell_length_c                   7.49430(16)
_cell_angle_alpha                90
_cell_angle_beta                 110.017(3)
_cell_angle_gamma                90
_cell_volume                     1556.31
loop_
_atom_site_label
_atom_site_type_symbol
_atom_site_fract_x
_atom_site_fract_y
_atom_site_fract_z
Hg1 Hg 0.38031(3) 0.305779(7) 0.41115(3)
I1 I 0.02770(4) 0.336307(12) 0.24599(5)
I2 I 0.40466(4) 0.210902(11) 0.34657(5)
Br1 Br 0.16174(8) 0.50107(2) -0.28123(8)
S1 S 0.77425(16) 0.34332(4) 0.71867(18)
O1 O 0.5673(5) 0.42222(13) 0.6218(5)
C1 C 0.6239(6) 0.35307(17) 0.4826(6)
H1 H 0.6905 0.3490 0.3903
C2 C 0.5517(7) 0.40136(17) 0.4746(7)
C3 C 0.4559(7) 0.42365(16) 0.2870(7)
C4 C 0.4735(7) 0.40771(18) 0.1195(7)
H2 H 0.5449 0.3806 0.1215
C5 C 0.3891(7) 0.4306(2) -0.0505(7)
H3 H 0.4023 0.4198 -0.1650
C6 C 0.2847(7) 0.46983(18) -0.0491(7)
C7 C 0.2635(8) 0.48648(19) 0.1152(8)
H4 H 0.1903 0.5133 0.1124
C8 C 0.3511(7) 0.4632(2) 0.2839(7)
H5 H 0.3393 0.4744 0.3986
C9 C 0.8636(7) 0.28662(18) 0.6999(8)
H6 H 0.9178 0.2868 0.5993
H7 H 0.7636 0.2636 0.6692
H8 H 0.9583 0.2783 0.8210
C10 C 0.9697(7) 0.37915(19) 0.7371(8)
H9 H 0.9345 0.4122 0.7324
H10 H 1.0129 0.3722 0.6314
H11 H 1.0684 0.3727 0.8576
Hg1C Hg 0.38031(3) 0.194221(7) -0.08885(3)
I2C I 0.40466(4) 0.289098(11) 0.84657(5)
loop_
_geom_bond_atom_site_label_1
_geom_bond_atom_site_label_2
_geom_bond_site_symmetry_1
_geom_bond_site_symmetry_2
Hg1 I1 1_555 1_555
I2 Hg1 1_555 1_555
Br1 C6 1_555 1_555
S1 C1 1_555 1_555
O1 C2 1_555 1_555
C1 Hg1 1_555 1_555
H1 C1 1_555 1_555
C2 C1 1_555 1_555
C3 C2 1_555 1_555
C4 C3 1_555 1_555
H2 C4 1_555 1_555
C5 C4 1_555 1_555
H3 C5 1_555 1_555
C6 C5 1_555 1_555
C7 C6 1_555 1_555
H4 C7 1_555 1_555
C8 C3 1_555 1_555
H5 C8 1_555 1_555
C9 S1 1_555 1_555
H6 C9 1_555 1_555
H7 C9 1_555 1_555
H8 C9 1_555 1_555
C10 S1 1_555 1_555
H9 C10 1_555 1_555
H10 C10 1_555 1_555
H11 C10 1_555 1_555
Hg1C I2 1_555 1_555
I2C Hg1 1_555 1_555
C7 C8 1_555 1_555

#END
