
#######################################################################
#
#                 Cambridge Crystallographic Data Centre
#                                CCDC 
#
#######################################################################
#
# If this CIF has been generated from an entry in the Cambridge 
# Structural Database, then it will include bibliographic, chemical, 
# crystal, experimental, refinement or atomic coordinate data resulting 
# from the CCDC's data processing and validation procedures.
#
#######################################################################

data_GEZNAC
_symmetry_cell_setting           orthorhombic
_symmetry_space_group_name_H-M   'P n a 21'
_symmetry_Int_Tables_number      33
_space_group_name_Hall           'P 2c -2n'
loop_
_symmetry_equiv_pos_site_id
_symmetry_equiv_pos_as_xyz
1 x,y,z
2 -x,-y,1/2+z
3 1/2-x,1/2+y,1/2+z
4 1/2+x,1/2-y,z
_cell_length_a                   7.598(3)
_cell_length_b                   15.108(7)
_cell_length_c                   5.183(2)
_cell_angle_alpha                90
_cell_angle_beta                 90
_cell_angle_gamma                90
_cell_volume                     594.96
loop_
_atom_site_label
_atom_site_type_symbol
_atom_site_fract_x
_atom_site_fract_y
_atom_site_fract_z
Ag1 Ag 0.95579(3) 1.193155(17) 0.25515(12)
N1 N 0.7926(5) 0.6489(2) 0.3620(6)
H1 H 0.8526 0.6324 0.4943
H2 H 0.7395 0.6102 0.2686
N2 N 0.6942(5) 0.7606(2) 0.0738(6)
N3 N 0.5510(4) 0.9452(2) -0.262(2)
N4 N 0.8584(5) 0.80263(19) 0.4209(7)
C1 C 0.6230(5) 0.9042(3) -0.1119(8)
C2 C 0.8543(5) 0.9650(3) 0.3465(7)
C3 C 0.7093(5) 0.8510(3) 0.0749(7)
C4 C 0.8085(5) 0.8767(2) 0.2850(11)
C5 C 0.7848(4) 0.7359(2) 0.2837(14)
N5 N 0.8875(5) 1.0379(2) 0.3844(8)
Ag1A Ag 1.04421(3) 0.806845(17) 0.75515(12)
Ag1B Ag 0.54421(3) 0.693155(17) -0.24485(12)
N2B N 0.8058(5) 1.2606(2) 0.5738(6)
N4A N 1.1416(5) 1.19737(19) -0.0791(7)
loop_
_geom_bond_atom_site_label_1
_geom_bond_atom_site_label_2
_geom_bond_site_symmetry_1
_geom_bond_site_symmetry_2
Ag1 N5 1_555 1_555
N1 H1 1_555 1_555
H2 N1 1_555 1_555
N2 C3 1_555 1_555
N3 C1 1_555 1_555
N4 C4 1_555 1_555
C1 C3 1_555 1_555
C2 C4 1_555 1_555
C3 C4 1_555 1_555
C5 N1 1_555 1_555
N5 C2 1_555 1_555
Ag1A N4 1_555 1_555
Ag1B N2 1_555 1_555
N2B Ag1 1_555 1_555
N4A Ag1 1_555 1_555
N2 C5 1_555 1_555
N4 C5 1_555 1_555

#END
