
#######################################################################
#
#                 Cambridge Crystallographic Data Centre
#                                CCDC 
#
#######################################################################
#
# If this CIF has been generated from an entry in the Cambridge 
# Structural Database, then it will include bibliographic, chemical, 
# crystal, experimental, refinement or atomic coordinate data resulting 
# from the CCDC's data processing and validation procedures.
#
#######################################################################

data_GEZNEG
_symmetry_cell_setting           monoclinic
_symmetry_space_group_name_H-M   'C 2/c'
_symmetry_Int_Tables_number      15
_space_group_name_Hall           '-C 2yn'
loop_
_symmetry_equiv_pos_site_id
_symmetry_equiv_pos_as_xyz
1 x,y,z
2 -x,y,1/2-z
3 1/2+x,1/2+y,z
4 1/2-x,1/2+y,1/2-z
5 -x,-y,-z
6 x,-y,1/2+z
7 1/2-x,1/2-y,-z
8 1/2+x,1/2-y,1/2+z
_cell_length_a                   31.823(5)
_cell_length_b                   18.770(5)
_cell_length_c                   19.138(5)
_cell_angle_alpha                90
_cell_angle_beta                 103.989(5)
_cell_angle_gamma                90
_cell_volume                     11092.4
loop_
_atom_site_label
_atom_site_type_symbol
_atom_site_fract_x
_atom_site_fract_y
_atom_site_fract_z
O8 O 0.0347(5) 0.3215(12) 0.1597(15)
C1 C 0.16108(18) 0.2164(3) 0.2407(3)
C2 C 0.12203(18) 0.1832(3) 0.2466(3)
H1 H 0.0962 0.2086 0.2359
C3 C 0.12266(19) 0.1139(3) 0.2678(3)
C4 C 0.0805(2) 0.0762(4) 0.2691(4)
C5 C 0.16105(17) 0.0755(3) 0.2829(3)
H2 H 0.1613 0.0282 0.2975
C6 C 0.19916(17) 0.1080(4) 0.2763(3)
C7 C 0.24007(18) 0.0628(4) 0.2863(3)
C8 C 0.19856(17) 0.1779(3) 0.2562(3)
H3 H 0.2243 0.1997 0.2529
O1 O 0.1946(3) 0.3372(5) 0.2174(5)
O2 O 0.1271(3) 0.3040(4) 0.1431(4)
O3 O 0.1403(6) 0.3459(5) 0.2565(7)
O4 O 0.04620(16) 0.1087(3) 0.2406(4)
O5 O 0.08130(16) 0.0154(3) 0.2922(3)
O6 O 0.23641(14) -0.0040(3) 0.2896(3)
O7 O 0.27494(13) 0.0936(3) 0.2880(2)
S1 S 0.15652(7) 0.30370(11) 0.20591(13)
Cd1 Cd 0.192437(13) 0.47572(2) 0.22025(2)
Cd2 Cd 0.0000 0.01742(3) 0.2500
C9 C 0.2098(2) 0.4145(4) 0.3805(4)
H4 H 0.1953 0.3739 0.3595
C10 C 0.2456(2) 0.4862(4) 0.4628(3)
C11 C 0.2378(2) 0.5193(4) 0.3948(3)
C12 C 0.2514(2) 0.5881(5) 0.3880(3)
H5 H 0.2459 0.6099 0.3430
C13 C 0.2736(3) 0.6249(5) 0.4495(4)
C14 C 0.2804(3) 0.5898(6) 0.5175(4)
C15 C 0.2673(3) 0.5222(5) 0.5244(4)
H6 H 0.2728 0.5003 0.5693
C16 C 0.3034(4) 0.6297(7) 0.5858(5)
H7 H 0.3342 0.6261 0.5919
H8 H 0.2955 0.6091 0.6267
H9 H 0.2950 0.6790 0.5816
C17 C 0.2860(5) 0.6990(6) 0.4406(6)
H10 H 0.3150 0.7003 0.4342
H11 H 0.2847 0.7259 0.4827
H12 H 0.2665 0.7193 0.3992
C18 C 0.2269(3) 0.3644(5) 0.5064(4)
H13 H 0.2037 0.3310 0.4874
H14 H 0.2214 0.3860 0.5493
C19 C 0.2693(3) 0.3245(5) 0.5263(5)
C20 C 0.2829(6) 0.2907(8) 0.4621(8)
N1 N 0.21551(18) 0.4707(3) 0.3439(3)
N2 N 0.2270(2) 0.4210(4) 0.4517(3)
C21 C 0.1701(2) 0.4126(4) 0.0560(3)
H15 H 0.1835 0.3701 0.0737
C22 C 0.13592(19) 0.4931(4) -0.0201(3)
C23 C 0.1460(2) 0.5198(3) 0.0499(3)
C24 C 0.1341(2) 0.5884(4) 0.0621(4)
H16 H 0.1403 0.6066 0.1087
C25 C 0.1130(3) 0.6299(5) 0.0052(5)
C26 C 0.1045(3) 0.6011(5) -0.0675(4)
C27 C 0.1162(2) 0.5340(5) -0.0791(4)
H17 H 0.1111 0.5157 -0.1255
C28 C 0.0810(4) 0.6475(6) -0.1310(5)
H18 H 0.0519 0.6563 -0.1273
H19 H 0.0804 0.6232 -0.1754
H20 H 0.0960 0.6920 -0.1301
C29 C 0.0981(5) 0.7046(5) 0.0204(6)
H21 H 0.0674 0.7042 0.0163
H22 H 0.1046 0.7376 -0.0139
H23 H 0.1128 0.7189 0.0682
C30 C 0.1442(3) 0.3711(5) -0.0717(4)
H24 H 0.1623 0.3301 -0.0549
H25 H 0.1530 0.3908 -0.1128
C31 C 0.0989(3) 0.3477(5) -0.0949(5)
H26 H 0.0966 0.3151 -0.1350
H27 H 0.0813 0.3890 -0.1130
C32 C 0.0790(5) 0.3112(6) -0.0391(5)
H28 H 0.0946 0.3271 0.0083
H29 H 0.0493 0.3275 -0.0464
C33 C 0.0789(4) 0.2344(5) -0.0396(5)
H30 H 0.1083 0.2176 -0.0346
H31 H 0.0618 0.2180 -0.0858
C34 C 0.0607(4) 0.2011(5) 0.0203(5)
H32 H 0.0770 0.2186 0.0667
H33 H 0.0307 0.2155 0.0141
C35 C 0.0632(3) 0.1205(5) 0.0193(5)
H34 H 0.0920 0.1065 0.0157
H35 H 0.0589 0.1020 0.0644
C36 C 0.0371(2) 0.0630(3) -0.1024(4)
H36 H 0.0640 0.0617 -0.1135
C37 C -0.0311(2) 0.0512(3) -0.1092(4)
C38 C -0.0133(2) 0.0818(3) -0.0429(4)
C39 C -0.0375(3) 0.0987(4) 0.0068(4)
H37 H -0.0247 0.1186 0.0513
C40 C -0.0795(3) 0.0849(4) -0.0123(4)
C41 C -0.1010(3) 0.0558(4) -0.0804(5)
C42 C -0.0750(2) 0.0387(4) -0.1276(5)
H38 H -0.0877 0.0185 -0.1722
C43 C -0.1484(3) 0.0417(6) -0.1013(6)
H39 H -0.1553 0.0044 -0.0717
H40 H -0.1566 0.0274 -0.1509
H41 H -0.1638 0.0842 -0.0948
C44 C -0.1077(3) 0.1010(6) 0.0405(5)
H42 H -0.1179 0.0572 0.0564
H43 H -0.1321 0.1296 0.0169
H44 H -0.0909 0.1265 0.0813
N3 N 0.16734(16) 0.4685(3) 0.0971(2)
N4 N 0.15125(17) 0.4242(3) -0.0148(3)
N5 N 0.03094(18) 0.0884(3) -0.0407(3)
N6 N 0.00124(17) 0.0401(3) -0.1457(3)
C45 C 0.0904(2) 0.4830(4) 0.2053(4)
H45 H 0.0903 0.4338 0.1997
C46 C 0.0661(2) 0.5913(5) 0.2046(3)
C47 C 0.1117(2) 0.5917(4) 0.2256(3)
C48 C 0.1351(3) 0.6541(4) 0.2390(3)
H46 H 0.1652 0.6533 0.2534
C49 C 0.1122(4) 0.7195(5) 0.2304(4)
C50 C 0.0648(4) 0.7179(6) 0.2091(5)
C51 C 0.0448(3) 0.6575(7) 0.1959(5)
H47 H 0.0148 0.6579 0.1797
C52 C 0.0437(5) 0.7885(7) 0.1975(8)
H48 H 0.0579 0.8205 0.2350
H49 H 0.0138 0.7839 0.1984
H50 H 0.0457 0.8070 0.1517
C53 C 0.1384(5) 0.7875(5) 0.2398(7)
H51 H 0.1674 0.7777 0.2669
H52 H 0.1253 0.8219 0.2652
H53 H 0.1391 0.8061 0.1934
C54 C 0.0101(3) 0.4959(7) 0.1626(5)
H54 H -0.0096 0.5167 0.1886
H55 H 0.0098 0.4447 0.1692
C55 C -0.0061(5) 0.5135(14) 0.0811(7)
H56 H -0.0361 0.4986 0.0650
H57 H -0.0052 0.5648 0.0750
C56 C 0.0171(6) 0.4822(14) 0.0384(8)
H58 H 0.0166 0.4306 0.0400
H59 H 0.0466 0.4996 0.0470
N7 N 0.12558(17) 0.5210(3) 0.2258(3)
N8 N 0.05401(18) 0.5230(4) 0.1929(3)
C57 C 0.2511(6) 0.2688(8) 0.5743(8)
C9F C 0.2902(2) 0.0855(4) 0.6195(4)
H4F H 0.3047 0.1261 0.6405
C10F C 0.2544(2) 0.0138(4) 0.5372(3)
C11F C 0.2622(2) -0.0193(4) 0.6052(3)
C12F C 0.2486(2) -0.0881(5) 0.6120(3)
H5F H 0.2541 -0.1099 0.6570
C13F C 0.2264(3) -0.1249(5) 0.5505(4)
C14F C 0.2196(3) -0.0898(6) 0.4825(4)
C15F C 0.2327(3) -0.0222(5) 0.4756(4)
H6F H 0.2272 -0.0003 0.4307
C16F C 0.1966(4) -0.1297(7) 0.4142(5)
H7F H 0.1658 -0.1261 0.4081
H8F H 0.2045 -0.1091 0.3733
H9F H 0.2050 -0.1790 0.4184
C17F C 0.2140(5) -0.1990(6) 0.5594(6)
H10F H 0.1850 -0.2003 0.5658
H11F H 0.2153 -0.2259 0.5173
H12F H 0.2335 -0.2193 0.6008
C18F C 0.2731(3) 0.1356(5) 0.4936(4)
H13F H 0.2963 0.1690 0.5126
H14F H 0.2786 0.1140 0.4507
C19F C 0.2307(3) 0.1755(5) 0.4737(5)
C20F C 0.2171(6) 0.2093(8) 0.5379(8)
N1F N 0.28449(18) 0.0293(3) 0.6561(3)
N2F N 0.2730(2) 0.0790(4) 0.5483(3)
C57F C 0.2489(6) 0.2312(8) 0.4257(8)
C45D C -0.0904(2) 0.5170(4) -0.2053(4)
H45D H -0.0903 0.5662 -0.1997
C46D C -0.0661(2) 0.4087(5) -0.2046(3)
C47D C -0.1117(2) 0.4083(4) -0.2256(3)
C48D C -0.1351(3) 0.3459(4) -0.2390(3)
H46D H -0.1652 0.3467 -0.2534
C49D C -0.1122(4) 0.2805(5) -0.2304(4)
C50D C -0.0648(4) 0.2821(6) -0.2091(5)
C51D C -0.0448(3) 0.3425(7) -0.1959(5)
H47D H -0.0148 0.3421 -0.1797
C52D C -0.0437(5) 0.2115(7) -0.1975(8)
H48D H -0.0579 0.1795 -0.2350
H49D H -0.0138 0.2161 -0.1984
H50D H -0.0457 0.1930 -0.1517
C53D C -0.1384(5) 0.2125(5) -0.2398(7)
H51D H -0.1674 0.2223 -0.2669
H52D H -0.1253 0.1781 -0.2652
H53D H -0.1391 0.1939 -0.1934
C54D C -0.0101(3) 0.5041(7) -0.1626(5)
H54D H 0.0096 0.4833 -0.1886
H55D H -0.0098 0.5553 -0.1692
C55D C 0.0061(5) 0.4865(14) -0.0811(7)
H56D H 0.0361 0.5014 -0.0650
H57D H 0.0052 0.4352 -0.0750
C56D C -0.0171(6) 0.5178(14) -0.0384(8)
H58D H -0.0166 0.5694 -0.0400
H59D H -0.0466 0.5004 -0.0470
N7D N -0.12558(17) 0.4790(3) -0.2258(3)
N8D N -0.05401(18) 0.4770(4) -0.1929(3)
C1A C -0.16108(18) 0.2164(3) 0.2593(3)
C2A C -0.12203(18) 0.1832(3) 0.2534(3)
H1A H -0.0962 0.2086 0.2641
C3A C -0.12266(19) 0.1139(3) 0.2322(3)
C4A C -0.0805(2) 0.0762(4) 0.2309(4)
C5A C -0.16105(17) 0.0755(3) 0.2171(3)
H2A H -0.1613 0.0282 0.2025
C6A C -0.19916(17) 0.1080(4) 0.2237(3)
C7A C -0.24007(18) 0.0628(4) 0.2137(3)
C8A C -0.19856(17) 0.1779(3) 0.2438(3)
H3A H -0.2243 0.1997 0.2471
O1A O -0.1946(3) 0.3372(5) 0.2826(5)
O2A O -0.1271(3) 0.3040(4) 0.3569(4)
O3A O -0.1403(6) 0.3459(5) 0.2435(7)
O4A O -0.04620(16) 0.1087(3) 0.2594(4)
O5A O -0.08130(16) 0.0154(3) 0.2078(3)
O6A O -0.23641(14) -0.0040(3) 0.2104(3)
O7A O -0.27494(13) 0.0936(3) 0.2120(2)
S1A S -0.15652(7) 0.30370(11) 0.29409(13)
Cd1A Cd -0.192437(13) 0.47572(2) 0.27975(2)
C21A C -0.1701(2) 0.4126(4) 0.4440(3)
H15A H -0.1835 0.3701 0.4263
C22A C -0.13592(19) 0.4931(4) 0.5201(3)
C23A C -0.1460(2) 0.5198(3) 0.4501(3)
C24A C -0.1341(2) 0.5884(4) 0.4379(4)
H16A H -0.1403 0.6066 0.3913
C25A C -0.1130(3) 0.6299(5) 0.4948(5)
C26A C -0.1045(3) 0.6011(5) 0.5675(4)
C27A C -0.1162(2) 0.5340(5) 0.5791(4)
H17A H -0.1111 0.5157 0.6255
C28A C -0.0810(4) 0.6475(6) 0.6310(5)
H18A H -0.0519 0.6563 0.6273
H19A H -0.0804 0.6232 0.6754
H20A H -0.0960 0.6920 0.6301
C29A C -0.0981(5) 0.7046(5) 0.4796(6)
H21A H -0.0674 0.7042 0.4837
H22A H -0.1046 0.7376 0.5139
H23A H -0.1128 0.7189 0.4318
C30A C -0.1442(3) 0.3711(5) 0.5717(4)
H24A H -0.1623 0.3301 0.5549
H25A H -0.1530 0.3908 0.6128
C31A C -0.0989(3) 0.3477(5) 0.5949(5)
H26A H -0.0966 0.3151 0.6350
H27A H -0.0813 0.3890 0.6130
C32A C -0.0790(5) 0.3112(6) 0.5391(5)
H28A H -0.0946 0.3271 0.4917
H29A H -0.0493 0.3275 0.5464
C33A C -0.0789(4) 0.2344(5) 0.5396(5)
H30A H -0.1083 0.2176 0.5346
H31A H -0.0618 0.2180 0.5858
C34A C -0.0607(4) 0.2011(5) 0.4797(5)
H32A H -0.0770 0.2186 0.4333
H33A H -0.0307 0.2155 0.4859
C35A C -0.0632(3) 0.1205(5) 0.4807(5)
H34A H -0.0920 0.1065 0.4843
H35A H -0.0589 0.1020 0.4356
C36A C -0.0371(2) 0.0630(3) 0.6024(4)
H36A H -0.0640 0.0617 0.6135
C37A C 0.0311(2) 0.0512(3) 0.6092(4)
C38A C 0.0133(2) 0.0818(3) 0.5429(4)
C39A C 0.0375(3) 0.0987(4) 0.4932(4)
H37A H 0.0247 0.1186 0.4487
C40A C 0.0795(3) 0.0849(4) 0.5123(4)
C41A C 0.1010(3) 0.0558(4) 0.5804(5)
C42A C 0.0750(2) 0.0387(4) 0.6276(5)
H38A H 0.0877 0.0185 0.6722
C43A C 0.1484(3) 0.0417(6) 0.6013(6)
H39A H 0.1553 0.0044 0.5717
H40A H 0.1566 0.0274 0.6509
H41A H 0.1638 0.0842 0.5948
C44A C 0.1077(3) 0.1010(6) 0.4595(5)
H42A H 0.1179 0.0572 0.4436
H43A H 0.1321 0.1296 0.4831
H44A H 0.0909 0.1265 0.4187
N3A N -0.16734(16) 0.4685(3) 0.4029(2)
N4A N -0.15125(17) 0.4242(3) 0.5148(3)
N5A N -0.03094(18) 0.0884(3) 0.5407(3)
N6A N -0.00124(17) 0.0401(3) 0.6457(3)
O6B O -0.26359(14) 0.4960(3) 0.2896(3)
O6C O 0.26359(14) 0.4960(3) 0.2104(3)
O7B O -0.22506(13) 0.5936(3) 0.2880(2)
O7C O 0.22506(13) 0.5936(3) 0.2120(2)
Cd1B Cd -0.307563(13) -0.02428(2) 0.22025(2)
Cd1C Cd 0.307563(13) -0.02428(2) 0.27975(2)
Cd1D Cd -0.192437(13) 0.52428(2) -0.22025(2)
Cd1F Cd 0.307563(13) 0.02428(2) 0.77975(2)
Cd2D Cd 0.0000 -0.01742(3) -0.2500
Cd2D_2 Cd 0.0000 -0.01742(3) 0.7500
N1A N -0.21551(18) 0.4707(3) 0.1561(3)
N6D N -0.00124(17) -0.0401(3) 0.1457(3)
N6E N 0.00124(17) -0.0401(3) 0.3543(3)
N7A N -0.12558(17) 0.5210(3) 0.2742(3)
loop_
_geom_bond_atom_site_label_1
_geom_bond_atom_site_label_2
_geom_bond_site_symmetry_1
_geom_bond_site_symmetry_2
C1 C2 1_555 1_555
C2 H1 1_555 1_555
C3 C2 1_555 1_555
C4 C3 1_555 1_555
C5 C3 1_555 1_555
H2 C5 1_555 1_555
C6 C5 1_555 1_555
C7 C6 1_555 1_555
C8 C1 1_555 1_555
H3 C8 1_555 1_555
O1 S1 1_555 1_555
O2 S1 1_555 1_555
O3 S1 1_555 1_555
O4 C4 1_555 1_555
O5 C4 1_555 1_555
O6 C7 1_555 1_555
O7 C7 1_555 1_555
S1 C1 1_555 1_555
Cd1 O1 1_555 1_555
Cd2 O4 1_555 1_555
C9 H4 1_555 1_555
C10 C11 1_555 1_555
C11 C12 1_555 1_555
C12 H5 1_555 1_555
C13 C12 1_555 1_555
C14 C13 1_555 1_555
C15 C10 1_555 1_555
H6 C15 1_555 1_555
C16 C14 1_555 1_555
H7 C16 1_555 1_555
H8 C16 1_555 1_555
H9 C16 1_555 1_555
C17 C13 1_555 1_555
H10 C17 1_555 1_555
H11 C17 1_555 1_555
H12 C17 1_555 1_555
C18 H13 1_555 1_555
H14 C18 1_555 1_555
C19 C18 1_555 1_555
C20 C19 1_555 1_555
N1 Cd1 1_555 1_555
N2 C9 1_555 1_555
C21 H15 1_555 1_555
C22 C23 1_555 1_555
C23 C24 1_555 1_555
C24 H16 1_555 1_555
C25 C24 1_555 1_555
C26 C25 1_555 1_555
C27 C22 1_555 1_555
H17 C27 1_555 1_555
C28 C26 1_555 1_555
H18 C28 1_555 1_555
H19 C28 1_555 1_555
H20 C28 1_555 1_555
C29 C25 1_555 1_555
H21 C29 1_555 1_555
H22 C29 1_555 1_555
H23 C29 1_555 1_555
C30 H24 1_555 1_555
H25 C30 1_555 1_555
C31 C30 1_555 1_555
H26 C31 1_555 1_555
H27 C31 1_555 1_555
C32 C31 1_555 1_555
H28 C32 1_555 1_555
H29 C32 1_555 1_555
C33 C32 1_555 1_555
H30 C33 1_555 1_555
H31 C33 1_555 1_555
C34 C33 1_555 1_555
H32 C34 1_555 1_555
H33 C34 1_555 1_555
C35 C34 1_555 1_555
H34 C35 1_555 1_555
H35 C35 1_555 1_555
C36 H36 1_555 1_555
C37 C38 1_555 1_555
C38 C39 1_555 1_555
C39 H37 1_555 1_555
C40 C39 1_555 1_555
C41 C40 1_555 1_555
C42 C37 1_555 1_555
H38 C42 1_555 1_555
C43 C41 1_555 1_555
H39 C43 1_555 1_555
H40 C43 1_555 1_555
H41 C43 1_555 1_555
C44 C40 1_555 1_555
H42 C44 1_555 1_555
H43 C44 1_555 1_555
H44 C44 1_555 1_555
N3 Cd1 1_555 1_555
N4 C21 1_555 1_555
N5 C35 1_555 1_555
N6 C36 1_555 1_555
C45 H45 1_555 1_555
C46 C47 1_555 1_555
C47 C48 1_555 1_555
C48 H46 1_555 1_555
C49 C48 1_555 1_555
C50 C49 1_555 1_555
C51 C46 1_555 1_555
H47 C51 1_555 1_555
C52 C50 1_555 1_555
H48 C52 1_555 1_555
H49 C52 1_555 1_555
H50 C52 1_555 1_555
C53 C49 1_555 1_555
H51 C53 1_555 1_555
H52 C53 1_555 1_555
H53 C53 1_555 1_555
C54 H54 1_555 1_555
H55 C54 1_555 1_555
C55 C54 1_555 1_555
H56 C55 1_555 1_555
H57 C55 1_555 1_555
C56 C55 1_555 1_555
H58 C56 1_555 1_555
H59 C56 1_555 1_555
N7 Cd1 1_555 1_555
N8 C45 1_555 1_555
C57 C19 1_555 1_555
C9F H4F 1_555 1_555
C10F C11F 1_555 1_555
C11F C12F 1_555 1_555
C12F H5F 1_555 1_555
C13F C12F 1_555 1_555
C14F C13F 1_555 1_555
C15F C10F 1_555 1_555
H6F C15F 1_555 1_555
C16F C14F 1_555 1_555
H7F C16F 1_555 1_555
H8F C16F 1_555 1_555
H9F C16F 1_555 1_555
C17F C13F 1_555 1_555
H10F C17F 1_555 1_555
H11F C17F 1_555 1_555
H12F C17F 1_555 1_555
C18F H13F 1_555 1_555
H14F C18F 1_555 1_555
C19F C18F 1_555 1_555
C20F C57 1_555 1_555
N1F C9F 1_555 1_555
N2F C9F 1_555 1_555
C57F C20 1_555 1_555
C45D H45D 1_555 1_555
C46D C47D 1_555 1_555
C47D C48D 1_555 1_555
C48D H46D 1_555 1_555
C49D C48D 1_555 1_555
C50D C49D 1_555 1_555
C51D C46D 1_555 1_555
H47D C51D 1_555 1_555
C52D C50D 1_555 1_555
H48D C52D 1_555 1_555
H49D C52D 1_555 1_555
H50D C52D 1_555 1_555
C53D C49D 1_555 1_555
H51D C53D 1_555 1_555
H52D C53D 1_555 1_555
H53D C53D 1_555 1_555
C54D H54D 1_555 1_555
H55D C54D 1_555 1_555
C55D C54D 1_555 1_555
H56D C55D 1_555 1_555
H57D C55D 1_555 1_555
C56D C56 1_555 1_555
H58D C56D 1_555 1_555
H59D C56D 1_555 1_555
N7D C45D 1_555 1_555
N8D C45D 1_555 1_555
C1A C2A 1_555 1_555
C2A H1A 1_555 1_555
C3A C2A 1_555 1_555
C4A C3A 1_555 1_555
C5A C3A 1_555 1_555
H2A C5A 1_555 1_555
C6A C5A 1_555 1_555
C7A C6A 1_555 1_555
C8A C1A 1_555 1_555
H3A C8A 1_555 1_555
O1A S1A 1_555 1_555
O2A S1A 1_555 1_555
O3A S1A 1_555 1_555
O4A Cd2 1_555 1_555
O5A Cd2 1_555 1_555
O6A C7A 1_555 1_555
O7A C7A 1_555 1_555
S1A C1A 1_555 1_555
Cd1A O1A 1_555 1_555
C21A H15A 1_555 1_555
C22A C23A 1_555 1_555
C23A C24A 1_555 1_555
C24A H16A 1_555 1_555
C25A C24A 1_555 1_555
C26A C25A 1_555 1_555
C27A C22A 1_555 1_555
H17A C27A 1_555 1_555
C28A C26A 1_555 1_555
H18A C28A 1_555 1_555
H19A C28A 1_555 1_555
H20A C28A 1_555 1_555
C29A C25A 1_555 1_555
H21A C29A 1_555 1_555
H22A C29A 1_555 1_555
H23A C29A 1_555 1_555
C30A H24A 1_555 1_555
H25A C30A 1_555 1_555
C31A C30A 1_555 1_555
H26A C31A 1_555 1_555
H27A C31A 1_555 1_555
C32A C31A 1_555 1_555
H28A C32A 1_555 1_555
H29A C32A 1_555 1_555
C33A C32A 1_555 1_555
H30A C33A 1_555 1_555
H31A C33A 1_555 1_555
C34A C33A 1_555 1_555
H32A C34A 1_555 1_555
H33A C34A 1_555 1_555
C35A C34A 1_555 1_555
H34A C35A 1_555 1_555
H35A C35A 1_555 1_555
C36A H36A 1_555 1_555
C37A C38A 1_555 1_555
C38A C39A 1_555 1_555
C39A H37A 1_555 1_555
C40A C39A 1_555 1_555
C41A C40A 1_555 1_555
C42A C37A 1_555 1_555
H38A C42A 1_555 1_555
C43A C41A 1_555 1_555
H39A C43A 1_555 1_555
H40A C43A 1_555 1_555
H41A C43A 1_555 1_555
C44A C40A 1_555 1_555
H42A C44A 1_555 1_555
H43A C44A 1_555 1_555
H44A C44A 1_555 1_555
N3A Cd1A 1_555 1_555
N4A C21A 1_555 1_555
N5A C35A 1_555 1_555
N6A C36A 1_555 1_555
O6B Cd1A 1_555 1_555
O6C Cd1 1_555 1_555
O7B Cd1A 1_555 1_555
O7C Cd1 1_555 1_555
Cd1B O6A 1_555 1_555
Cd1C O6 1_555 1_555
Cd1D N7D 1_555 1_555
Cd1F N1F 1_555 1_555
Cd2D N6 1_555 1_555
Cd2D_2 N6A 1_555 1_555
N1A Cd1A 1_555 1_555
N6D Cd2 1_555 1_555
N6E Cd2 1_555 1_555
N7A Cd1A 1_555 1_555
C6 C8 1_555 1_555
O5 Cd2 1_555 1_555
O7 Cd1C 1_555 1_555
C9 N1 1_555 1_555
C10 N2 1_555 1_555
C11 N1 1_555 1_555
C14 C15 1_555 1_555
C18 N2 1_555 1_555
C21 N3 1_555 1_555
C22 N4 1_555 1_555
C23 N3 1_555 1_555
C26 C27 1_555 1_555
C30 N4 1_555 1_555
C36 N5 1_555 1_555
C37 N6 1_555 1_555
C38 N5 1_555 1_555
C41 C42 1_555 1_555
C45 N7 1_555 1_555
C46 N8 1_555 1_555
C47 N7 1_555 1_555
C50 C51 1_555 1_555
C54 N8 1_555 1_555
C10F N2F 1_555 1_555
C11F N1F 1_555 1_555
C14F C15F 1_555 1_555
C18F N2F 1_555 1_555
C19F C20F 1_555 1_555
C19F C57F 1_555 1_555
C46D N8D 1_555 1_555
C47D N7D 1_555 1_555
C50D C51D 1_555 1_555
C54D N8D 1_555 1_555
C55D C56D 1_555 1_555
C4A O4A 1_555 1_555
C4A O5A 1_555 1_555
C6A C8A 1_555 1_555
O7A Cd1B 1_555 1_555
C21A N3A 1_555 1_555
C22A N4A 1_555 1_555
C23A N3A 1_555 1_555
C26A C27A 1_555 1_555
C30A N4A 1_555 1_555
C36A N5A 1_555 1_555
C37A N6A 1_555 1_555
C38A N5A 1_555 1_555
C41A C42A 1_555 1_555

#END
