
#######################################################################
#
#                 Cambridge Crystallographic Data Centre
#                                CCDC 
#
#######################################################################
#
# If this CIF has been generated from an entry in the Cambridge 
# Structural Database, then it will include bibliographic, chemical, 
# crystal, experimental, refinement or atomic coordinate data resulting 
# from the CCDC's data processing and validation procedures.
#
#######################################################################

data_GEZTEM
_symmetry_cell_setting           triclinic
_symmetry_space_group_name_H-M   'P -1'
_symmetry_Int_Tables_number      2
_space_group_name_Hall           '-P 1'
loop_
_symmetry_equiv_pos_site_id
_symmetry_equiv_pos_as_xyz
1 x,y,z
2 -x,-y,-z
_cell_length_a                   10.959(2)
_cell_length_b                   11.028(2)
_cell_length_c                   11.353(2)
_cell_angle_alpha                75.62(3)
_cell_angle_beta                 83.96(3)
_cell_angle_gamma                62.63(3)
_cell_volume                     1180.24
loop_
_atom_site_label
_atom_site_type_symbol
_atom_site_fract_x
_atom_site_fract_y
_atom_site_fract_z
Co1 Co 0.18931(4) 0.80898(5) 0.01956(4)
P1 P 0.02502(9) 0.61363(11) 0.12040(8)
P2 P 0.95458(9) -0.06540(10) 0.82287(8)
O1 O 0.0768(2) 0.7173(3) 0.1226(2)
O2 O -0.1010(2) 0.6663(3) 0.0422(2)
O3 O 0.1455(3) 0.4857(3) 0.0790(3)
O4 O 1.1038(2) -0.1462(3) 0.8576(2)
O5 O 0.8699(3) 0.0402(3) 0.8928(2)
O6 O 0.8906(3) -0.1678(3) 0.8278(3)
N1 N 0.3864(3) 0.6503(3) 0.0815(2)
N2 N 0.3269(3) 0.8916(3) -0.0731(3)
C1 C 0.5214(3) 0.2370(4) 0.5215(3)
C2 C -0.0114(4) 0.5465(4) 0.2753(3)
H1 H -0.0758 0.6240 0.3102
H2 H -0.0541 0.4865 0.2753
C3 C 0.3784(4) 0.3142(4) 0.4709(3)
C4 C 0.7513(4) 0.0439(4) 0.5338(3)
H3 H 0.8119 -0.0383 0.5103
C5 C 0.6451(4) 0.4707(4) 0.1823(3)
H4 H 0.7318 0.4104 0.2167
C6 C 0.7957(4) 0.0937(4) 0.6129(3)
C7 C 0.7005(4) 0.2160(4) 0.6453(3)
H5 H 0.7274 0.2519 0.6980
C8 C 0.5663(4) 0.2869(4) 0.6018(3)
H6 H 0.5053 0.3686 0.6261
C9 C 0.9408(4) 0.0157(4) 0.6635(3)
H7 H 0.9802 0.0808 0.6494
H8 H 0.9950 -0.0561 0.6188
C10 C 0.1175(4) 0.4643(4) 0.3527(3)
C11 C 0.4917(3) 0.6856(4) 0.0542(3)
C12 C 0.6170(4) 0.1160(4) 0.4896(3)
H9 H 0.5907 0.0806 0.4359
C13 C 0.6205(4) 0.5995(4) 0.1069(3)
H10 H 0.6897 0.6277 0.0917
C14 C 0.5401(4) 0.4324(4) 0.2061(3)
H11 H 0.5553 0.3453 0.2548
C15 C 0.2923(4) 0.4526(4) 0.4744(3)
H12 H 0.3209 0.4976 0.5164
C16 C 0.4584(3) 0.8184(4) -0.0375(3)
C17 C 0.4125(4) 0.5259(4) 0.1562(3)
H13 H 0.3408 0.5016 0.1752
C18 C 0.3814(5) 1.0641(5) -0.2094(4)
H14 H 0.3522 1.1482 -0.2674
C19 C 0.1653(4) 0.5254(4) 0.4174(3)
H15 H 0.1104 0.6180 0.4226
C20 C 0.1997(4) 0.3237(4) 0.3546(4)
H16 H 0.1682 0.2775 0.3167
C21 C 0.3265(4) 0.2506(4) 0.4109(4)
H17 H 0.3790 0.1566 0.4093
C22 C 0.5162(5) 0.9874(5) -0.1741(4)
H18 H 0.5806 1.0185 -0.2084
C23 C 0.5560(4) 0.8642(4) -0.0879(4)
H19 H 0.6475 0.8114 -0.0631
C24 C 0.2886(4) 1.0129(4) -0.1562(4)
H20 H 0.1965 1.0649 -0.1795
H21 H 0.881(5) -0.210(6) 0.903(5)
H22 H 0.131(6) 0.439(6) 0.048(5)
Co1_2 Co 1.18931(4) -0.19102(5) 1.01956(4)
Co1A Co 0.81069(4) 0.19102(5) 0.98044(4)
O4_2 O 0.1038(2) 0.8538(3) -0.1424(2)
O5A O 0.1301(3) 0.9598(3) 0.1072(2)
loop_
_geom_bond_atom_site_label_1
_geom_bond_atom_site_label_2
_geom_bond_site_symmetry_1
_geom_bond_site_symmetry_2
Co1 O1 1_555 1_555
P1 O1 1_555 1_555
P2 O4 1_555 1_555
O2 P1 1_555 1_555
O3 P1 1_555 1_555
O4 Co1_2 1_555 1_555
O5 P2 1_555 1_555
O6 P2 1_555 1_555
N1 Co1 1_555 1_555
N2 Co1 1_555 1_555
C1 C3 1_555 1_555
C2 P1 1_555 1_555
H1 C2 1_555 1_555
H2 C2 1_555 1_555
C3 C15 1_555 1_555
C4 H3 1_555 1_555
C5 H4 1_555 1_555
C6 C4 1_555 1_555
C7 C6 1_555 1_555
H5 C7 1_555 1_555
C8 C1 1_555 1_555
H6 C8 1_555 1_555
C9 P2 1_555 1_555
H7 C9 1_555 1_555
H8 C9 1_555 1_555
C10 C2 1_555 1_555
C11 N1 1_555 1_555
C12 C1 1_555 1_555
H9 C12 1_555 1_555
C13 C5 1_555 1_555
H10 C13 1_555 1_555
C14 C5 1_555 1_555
H11 C14 1_555 1_555
C15 H12 1_555 1_555
C16 N2 1_555 1_555
C17 N1 1_555 1_555
H13 C17 1_555 1_555
C18 H14 1_555 1_555
C19 C10 1_555 1_555
H15 C19 1_555 1_555
C20 C10 1_555 1_555
H16 C20 1_555 1_555
C21 C3 1_555 1_555
H17 C21 1_555 1_555
C22 C18 1_555 1_555
H18 C22 1_555 1_555
C23 C16 1_555 1_555
H19 C23 1_555 1_555
C24 N2 1_555 1_555
H20 C24 1_555 1_555
H21 O6 1_555 1_555
H22 O3 1_555 1_555
Co1A O5 1_555 1_555
O4_2 Co1 1_555 1_555
O5A Co1 1_555 1_555
C4 C12 1_555 1_555
C6 C9 1_555 1_555
C7 C8 1_555 1_555
C11 C13 1_555 1_555
C11 C16 1_555 1_555
C14 C17 1_555 1_555
C15 C19 1_555 1_555
C18 C24 1_555 1_555
C20 C21 1_555 1_555
C22 C23 1_555 1_555

#END
