
#######################################################################
#
#                 Cambridge Crystallographic Data Centre
#                                CCDC 
#
#######################################################################
#
# If this CIF has been generated from an entry in the Cambridge 
# Structural Database, then it will include bibliographic, chemical, 
# crystal, experimental, refinement or atomic coordinate data resulting 
# from the CCDC's data processing and validation procedures.
#
#######################################################################

data_GEZTOW
_symmetry_cell_setting           tetragonal
_symmetry_space_group_name_H-M   'P 4/n c c'
_symmetry_Int_Tables_number      130
_space_group_name_Hall           '-P 4a 2ac'
loop_
_symmetry_equiv_pos_site_id
_symmetry_equiv_pos_as_xyz
1 x,y,z
2 1/2-y,x,z
3 1/2-x,1/2-y,z
4 y,1/2-x,z
5 1/2+x,-y,1/2-z
6 1/2+y,1/2+x,1/2-z
7 -x,1/2+y,1/2-z
8 -y,-x,1/2-z
9 -x,-y,-z
10 1/2+y,-x,-z
11 1/2+x,1/2+y,-z
12 -y,1/2+x,-z
13 1/2-x,y,1/2+z
14 1/2-y,1/2-x,1/2+z
15 x,1/2-y,1/2+z
16 y,x,1/2+z
_cell_length_a                   14.7300(4)
_cell_length_b                   14.7300(4)
_cell_length_c                   16.7816(7)
_cell_angle_alpha                90
_cell_angle_beta                 90
_cell_angle_gamma                90
_cell_volume                     3641.15
loop_
_atom_site_label
_atom_site_type_symbol
_atom_site_fract_x
_atom_site_fract_y
_atom_site_fract_z
Ru1 Ru 0.959054(9) 0.040946(9) 0.2500
Mn1 Mn 1.2500 0.2500 0.29598(3)
O1 O 0.90306(8) 0.11367(8) 0.16050(8)
N1 N 1.04527(10) -0.01842(11) 0.17361(10)
N2 N 1.12026(11) 0.18529(11) 0.27421(10)
N3 N 1.2500 0.2500 0.42591(19)
C1 C 0.94768(12) 0.13582(12) 0.09548(11)
C2 C 0.91061(13) 0.20502(12) 0.04634(11)
H1 H 0.8574 0.2339 0.0621
C3 C 0.95141(13) 0.23060(12) -0.02418(12)
H2 H 0.9254 0.2762 -0.0550
C4 C 1.03169(13) 0.18860(13) -0.05002(12)
H3 H 1.0602 0.2073 -0.0967
C5 C 1.06735(13) 0.11935(13) -0.00511(11)
H4 H 1.1193 0.0899 -0.0232
C6 C 1.02789(12) 0.09124(12) 0.06764(11)
C7 C 1.06811(13) 0.01294(13) 0.10493(11)
H5 H 1.1139 -0.0171 0.0774
C8 C 1.08644(14) -0.10212(13) 0.20544(12)
H6 H 1.1436 -0.1146 0.1788
H7 H 1.0461 -0.1534 0.1973
C9 C 1.05940(12) 0.13709(12) 0.26561(11)
C10 C 1.2500 0.2500 0.4940(2)
C11 C 1.2500 0.2500 0.5818(3)
O1G O 0.88633(8) 0.09694(8) 0.33950(8)
N1G N 1.01842(11) -0.04527(10) 0.32639(10)
C1G C 0.86418(12) 0.05232(12) 0.40452(11)
C2G C 0.79498(12) 0.08939(13) 0.45366(11)
H1G H 0.7661 0.1426 0.4379
C3G C 0.76940(12) 0.04859(13) 0.52418(12)
H2G H 0.7238 0.0746 0.5550
C4G C 0.81140(13) -0.03169(13) 0.55002(12)
H3G H 0.7927 -0.0602 0.5967
C5G C 0.88065(13) -0.06735(13) 0.50511(11)
H4G H 0.9101 -0.1193 0.5232
C6G C 0.90876(12) -0.02789(12) 0.43236(11)
C7G C 0.98706(13) -0.06811(13) 0.39507(11)
H5G H 1.0171 -0.1139 0.4226
C8G C 1.10212(13) -0.08644(14) 0.29456(12)
H6G H 1.1146 -0.1436 0.3212
H7G H 1.1534 -0.0461 0.3027
Ru1A Ru 1.459054(9) -0.040946(9) 0.2500
O1A O 1.38633(8) -0.09694(8) 0.16050(8)
N1A N 1.51842(11) 0.04527(10) 0.17361(10)
N2A N 1.31471(11) 0.12026(11) 0.27421(10)
C1A C 1.36418(12) -0.05232(12) 0.09548(11)
C2A C 1.29498(12) -0.08939(13) 0.04634(11)
H1A H 1.2661 -0.1426 0.0621
C3A C 1.26940(12) -0.04859(13) -0.02418(12)
H2A H 1.2238 -0.0746 -0.0550
C4A C 1.31140(13) 0.03169(13) -0.05002(12)
H3A H 1.2927 0.0602 -0.0967
C5A C 1.38065(13) 0.06735(13) -0.00511(11)
H4A H 1.4101 0.1193 -0.0232
C6A C 1.40876(12) 0.02789(12) 0.06764(11)
C7A C 1.48706(13) 0.06811(13) 0.10493(11)
H5A H 1.5171 0.1139 0.0774
C8A C 1.60212(13) 0.08644(14) 0.20544(12)
H6A H 1.6146 0.1436 0.1788
H7A H 1.6534 0.0461 0.1973
C9A C 1.36291(12) 0.05940(12) 0.26561(11)
O1D O 1.40306(8) -0.11367(8) 0.33950(8)
N1D N 1.54527(10) 0.01842(11) 0.32639(10)
C1D C 1.44768(12) -0.13582(12) 0.40452(11)
C2D C 1.41061(13) -0.20502(12) 0.45366(11)
H1D H 1.3574 -0.2339 0.4379
C3D C 1.45141(13) -0.23060(12) 0.52418(12)
H2D H 1.4254 -0.2762 0.5550
C4D C 1.53169(13) -0.18860(13) 0.55002(12)
H3D H 1.5602 -0.2073 0.5967
C5D C 1.56735(13) -0.11935(13) 0.50511(11)
H4D H 1.6193 -0.0899 0.5232
C6D C 1.52789(12) -0.09124(12) 0.43236(11)
C7D C 1.56811(13) -0.01294(13) 0.39507(11)
H5D H 1.6139 0.0171 0.4226
C8D C 1.58644(14) 0.10212(13) 0.29456(12)
H6D H 1.6436 0.1146 0.3212
H7D H 1.5461 0.1534 0.3027
N2B N 1.37974(11) 0.31471(11) 0.27421(10)
C9B C 1.44060(12) 0.36291(12) 0.26561(11)
N2C N 1.18529(11) 0.37974(11) 0.27421(10)
C9C C 1.13709(12) 0.44060(12) 0.26561(11)
Ru1B Ru 1.540946(9) 0.459054(9) 0.2500
Ru1C Ru 1.040946(9) 0.540946(9) 0.2500
C9D C 1.55940(12) -0.13709(12) 0.23439(11)
C9G C 0.86291(12) -0.05940(12) 0.23439(11)
O2 O 1.2500 -0.2500 0.2039(8)
loop_
_geom_bond_atom_site_label_1
_geom_bond_atom_site_label_2
_geom_bond_site_symmetry_1
_geom_bond_site_symmetry_2
Ru1 O1 1_555 1_555
Mn1 N2 1_555 1_555
O1 C1 1_555 1_555
N1 Ru1 1_555 1_555
N2 C9 1_555 1_555
N3 Mn1 1_555 1_555
C1 C2 1_555 1_555
C2 H1 1_555 1_555
C3 C2 1_555 1_555
H2 C3 1_555 1_555
C4 C3 1_555 1_555
H3 C4 1_555 1_555
C5 C4 1_555 1_555
H4 C5 1_555 1_555
C6 C1 1_555 1_555
C7 N1 1_555 1_555
H5 C7 1_555 1_555
C8 N1 1_555 1_555
H6 C8 1_555 1_555
H7 C8 1_555 1_555
C9 Ru1 1_555 1_555
C10 N3 1_555 1_555
C11 C10 1_555 1_555
O1G Ru1 1_555 1_555
N1G Ru1 1_555 1_555
C1G O1G 1_555 1_555
C2G C1G 1_555 1_555
H1G C2G 1_555 1_555
C3G C2G 1_555 1_555
H2G C3G 1_555 1_555
C4G C3G 1_555 1_555
H3G C4G 1_555 1_555
C5G C4G 1_555 1_555
H4G C5G 1_555 1_555
C6G C1G 1_555 1_555
C7G N1G 1_555 1_555
H5G C7G 1_555 1_555
C8G C8 1_555 1_555
H6G C8G 1_555 1_555
H7G C8G 1_555 1_555
Ru1A O1A 1_555 1_555
O1A C1A 1_555 1_555
N1A Ru1A 1_555 1_555
N2A Mn1 1_555 1_555
C1A C2A 1_555 1_555
C2A H1A 1_555 1_555
C3A C2A 1_555 1_555
H2A C3A 1_555 1_555
C4A C3A 1_555 1_555
H3A C4A 1_555 1_555
C5A C4A 1_555 1_555
H4A C5A 1_555 1_555
C6A C1A 1_555 1_555
C7A N1A 1_555 1_555
H5A C7A 1_555 1_555
C8A N1A 1_555 1_555
H6A C8A 1_555 1_555
H7A C8A 1_555 1_555
C9A Ru1A 1_555 1_555
O1D Ru1A 1_555 1_555
N1D Ru1A 1_555 1_555
C1D O1D 1_555 1_555
C2D C1D 1_555 1_555
H1D C2D 1_555 1_555
C3D C2D 1_555 1_555
H2D C3D 1_555 1_555
C4D C3D 1_555 1_555
H3D C4D 1_555 1_555
C5D C4D 1_555 1_555
H4D C5D 1_555 1_555
C6D C1D 1_555 1_555
C7D N1D 1_555 1_555
H5D C7D 1_555 1_555
C8D C8A 1_555 1_555
H6D C8D 1_555 1_555
H7D C8D 1_555 1_555
N2B Mn1 1_555 1_555
C9B N2B 1_555 1_555
N2C Mn1 1_555 1_555
C9C N2C 1_555 1_555
Ru1B C9B 1_555 1_555
Ru1C C9C 1_555 1_555
C9D Ru1A 1_555 1_555
C9G Ru1 1_555 1_555
C5 C6 1_555 1_555
C6 C7 1_555 1_555
N1G C8G 1_555 1_555
C5G C6G 1_555 1_555
C6G C7G 1_555 1_555
N2A C9A 1_555 1_555
C5A C6A 1_555 1_555
C6A C7A 1_555 1_555
N1D C8D 1_555 1_555
C5D C6D 1_555 1_555
C6D C7D 1_555 1_555

#END
