
#######################################################################
#
#                 Cambridge Crystallographic Data Centre
#                                CCDC 
#
#######################################################################
#
# If this CIF has been generated from an entry in the Cambridge 
# Structural Database, then it will include bibliographic, chemical, 
# crystal, experimental, refinement or atomic coordinate data resulting 
# from the CCDC's data processing and validation procedures.
#
#######################################################################

data_GEZVEO
_symmetry_cell_setting           monoclinic
_symmetry_space_group_name_H-M   'C 2/c'
_symmetry_Int_Tables_number      15
_space_group_name_Hall           '-C 2yn'
loop_
_symmetry_equiv_pos_site_id
_symmetry_equiv_pos_as_xyz
1 x,y,z
2 -x,y,1/2-z
3 1/2+x,1/2+y,z
4 1/2-x,1/2+y,1/2-z
5 -x,-y,-z
6 x,-y,1/2+z
7 1/2-x,1/2-y,-z
8 1/2+x,1/2-y,1/2+z
_cell_length_a                   7.8308(3)
_cell_length_b                   31.6394(14)
_cell_length_c                   12.6258(5)
_cell_angle_alpha                90
_cell_angle_beta                 102.043(3)
_cell_angle_gamma                90
_cell_volume                     3059.34
loop_
_atom_site_label
_atom_site_type_symbol
_atom_site_fract_x
_atom_site_fract_y
_atom_site_fract_z
Ag1 Ag 0.26428(3) 0.497196(7) 0.538016(17)
F1 F 0.0669(2) 0.35251(6) 0.12419(13)
F2 F 0.0606(3) 0.26960(6) 0.12725(15)
F3 F 0.5226(3) 0.27051(5) 0.43800(14)
F4 F 0.5120(2) 0.35325(5) 0.44031(13)
O1 O -0.0094(4) 0.45889(9) 0.5556(3)
O2 O 0.1590(5) 0.40836(9) 0.6125(2)
O3 O -0.1277(5) 0.40275(9) 0.5850(3)
N1 N 0.2929(3) 0.46795(8) 0.38422(18)
N2 N 0.3027(4) 0.53157(10) 0.2957(2)
H1 H 0.268(4) 0.5430(10) 0.348(3)
H2 H 0.284(5) 0.5459(14) 0.240(3)
N3 N 0.2893(3) 0.47003(7) 0.19475(18)
N4 N 0.2903(4) 0.22185(9) 0.2876(2)
N5 N 0.0055(5) 0.42202(9) 0.5857(2)
C1 C 0.2937(4) 0.48941(11) 0.2917(2)
C2 C 0.2855(4) 0.42780(9) 0.1934(2)
H3 H 0.2816 0.4140 0.1271
C3 C 0.2869(4) 0.40334(9) 0.2845(2)
C4 C 0.2875(4) 0.42579(9) 0.3791(2)
H4 H 0.2840 0.4106 0.4426
C5 C 0.2868(4) 0.35670(9) 0.2827(2)
C6 C 0.1832(4) 0.33262(10) 0.2036(2)
C7 C 0.1807(4) 0.28908(11) 0.2042(2)
C8 C 0.2887(4) 0.26528(11) 0.2841(2)
C9 C 0.3999(4) 0.28970(10) 0.3615(2)
C10 C 0.3960(4) 0.33303(9) 0.3624(2)
C11 C 0.2490(5) 0.19598(12) 0.1912(3)
H5 H 0.1263 0.1884 0.1772
H6 H 0.3196 0.1705 0.2017
H7 H 0.2732 0.2117 0.1300
C12 C 0.3037(5) 0.19942(11) 0.3894(3)
H8 H 0.4188 0.1869 0.4105
H9 H 0.2158 0.1774 0.3808
H10 H 0.2853 0.2190 0.4450
Ag1D Ag -0.26428(3) 0.502804(7) 0.461984(17)
Ag1E Ag 0.26428(3) 0.502804(7) 0.038016(17)
O1D O 0.0094(4) 0.54111(9) 0.4444(3)
N3E N 0.2893(3) 0.52997(7) 0.69475(18)
loop_
_geom_bond_atom_site_label_1
_geom_bond_atom_site_label_2
_geom_bond_site_symmetry_1
_geom_bond_site_symmetry_2
Ag1 O1 1_555 1_555
F1 C6 1_555 1_555
F2 C7 1_555 1_555
F3 C9 1_555 1_555
F4 C10 1_555 1_555
O1 N5 1_555 1_555
O2 N5 1_555 1_555
O3 N5 1_555 1_555
N1 Ag1 1_555 1_555
N2 H1 1_555 1_555
H2 N2 1_555 1_555
N3 C1 1_555 1_555
N4 C8 1_555 1_555
C1 N1 1_555 1_555
C2 N3 1_555 1_555
H3 C2 1_555 1_555
C3 C2 1_555 1_555
C4 N1 1_555 1_555
H4 C4 1_555 1_555
C5 C3 1_555 1_555
C6 C5 1_555 1_555
C7 C6 1_555 1_555
C8 C7 1_555 1_555
C9 C8 1_555 1_555
C10 C5 1_555 1_555
C11 N4 1_555 1_555
H5 C11 1_555 1_555
H6 C11 1_555 1_555
H7 C11 1_555 1_555
C12 N4 1_555 1_555
H8 C12 1_555 1_555
H9 C12 1_555 1_555
H10 C12 1_555 1_555
Ag1D O1 1_555 1_555
Ag1E N3 1_555 1_555
O1D Ag1 1_555 1_555
N3E Ag1 1_555 1_555
N2 C1 1_555 1_555
C3 C4 1_555 1_555
C9 C10 1_555 1_555
Ag1D O1D 1_555 1_555

#END
