
#######################################################################
#
#                 Cambridge Crystallographic Data Centre
#                                CCDC 
#
#######################################################################
#
# If this CIF has been generated from an entry in the Cambridge 
# Structural Database, then it will include bibliographic, chemical, 
# crystal, experimental, refinement or atomic coordinate data resulting 
# from the CCDC's data processing and validation procedures.
#
#######################################################################

data_GEZVIS
_symmetry_cell_setting           monoclinic
_symmetry_space_group_name_H-M   'P 21/c'
_symmetry_Int_Tables_number      14
_space_group_name_Hall           '-P 2ybc'
loop_
_symmetry_equiv_pos_site_id
_symmetry_equiv_pos_as_xyz
1 x,y,z
2 -x,1/2+y,1/2-z
3 -x,-y,-z
4 x,1/2-y,1/2+z
_cell_length_a                   6.32870(10)
_cell_length_b                   25.1946(8)
_cell_length_c                   9.1130(3)
_cell_angle_alpha                90
_cell_angle_beta                 100.5912(17)
_cell_angle_gamma                90
_cell_volume                     1428.3
loop_
_atom_site_label
_atom_site_type_symbol
_atom_site_fract_x
_atom_site_fract_y
_atom_site_fract_z
Ag1 Ag 0.133740(19) 0.335901(6) 0.507394(17)
F1 F -0.78991(15) 0.47944(5) 0.16218(13)
F2 F -0.82211(16) 0.56159(5) -0.01808(12)
F3 F -0.09497(16) 0.60688(5) 0.17635(13)
F4 F -0.06388(15) 0.52410(5) 0.35118(12)
O1 O 0.3290(2) 0.27077(6) 0.39764(16)
O2 O 0.29546(19) 0.20705(6) 0.23543(16)
O3 O 0.0192(2) 0.25549(7) 0.25785(18)
N1 N -0.1833(2) 0.37576(7) 0.46706(18)
N2 N -0.3131(3) 0.32169(8) 0.6353(2)
H1 H -0.409(4) 0.3097(11) 0.669(3)
H2 H -0.189(3) 0.3048(10) 0.652(2)
N3 N -0.5401(2) 0.38617(7) 0.51542(18)
N4 N -0.4832(3) 0.63005(7) -0.0325(2)
N5 N 0.2125(2) 0.24448(7) 0.29657(18)
C1 C -0.3450(3) 0.36142(8) 0.5383(2)
C2 C -0.5599(3) 0.42986(8) 0.4310(2)
H3 H -0.6914 0.4489 0.4196
C3 C -0.3999(3) 0.44928(8) 0.3587(2)
C4 C -0.2145(3) 0.41810(8) 0.3780(2)
H4 H -0.1044 0.4276 0.3247
C5 C -0.4234(3) 0.49694(8) 0.2640(2)
C6 C -0.6158(3) 0.51152(8) 0.1706(2)
C7 C -0.6339(3) 0.55451(8) 0.0781(2)
C8 C -0.4625(3) 0.58907(8) 0.0691(2)
C9 C -0.2701(3) 0.57549(8) 0.1664(2)
C10 C -0.2539(3) 0.53155(8) 0.2568(2)
C11 C -0.6663(3) 0.66659(9) -0.0465(3)
H5 H -0.7650 0.6545 0.0179
H6 H -0.7419 0.6673 -0.1505
H7 H -0.6145 0.7023 -0.0163
C12 C -0.3009(3) 0.64947(9) -0.0925(3)
H8 H -0.2326 0.6787 -0.0304
H9 H -0.3500 0.6621 -0.1948
H10 H -0.1969 0.6207 -0.0929
Ag1_2 Ag -0.866260(19) 0.335901(6) 0.507394(17)
Ag1C Ag 0.133740(19) 0.164099(6) 0.007394(17)
O2C O 0.29546(19) 0.29295(6) 0.73543(16)
N3_2 N 0.4599(2) 0.38617(7) 0.51542(18)
loop_
_geom_bond_atom_site_label_1
_geom_bond_atom_site_label_2
_geom_bond_site_symmetry_1
_geom_bond_site_symmetry_2
Ag1 O1 1_555 1_555
F1 C6 1_555 1_555
F2 C7 1_555 1_555
F3 C9 1_555 1_555
F4 C10 1_555 1_555
O1 N5 1_555 1_555
O2 N5 1_555 1_555
O3 N5 1_555 1_555
N1 Ag1 1_555 1_555
N2 H1 1_555 1_555
H2 N2 1_555 1_555
N3 C1 1_555 1_555
N4 C8 1_555 1_555
C1 N1 1_555 1_555
C2 N3 1_555 1_555
H3 C2 1_555 1_555
C3 C2 1_555 1_555
C4 N1 1_555 1_555
H4 C4 1_555 1_555
C5 C3 1_555 1_555
C6 C5 1_555 1_555
C7 C6 1_555 1_555
C8 C7 1_555 1_555
C9 C8 1_555 1_555
C10 C5 1_555 1_555
C11 N4 1_555 1_555
H5 C11 1_555 1_555
H6 C11 1_555 1_555
H7 C11 1_555 1_555
C12 N4 1_555 1_555
H8 C12 1_555 1_555
H9 C12 1_555 1_555
H10 C12 1_555 1_555
Ag1_2 N3 1_555 1_555
Ag1C O2 1_555 1_555
O2C Ag1 1_555 1_555
N3_2 Ag1 1_555 1_555
N2 C1 1_555 1_555
C3 C4 1_555 1_555
C9 C10 1_555 1_555

#END
