
#######################################################################
#
#                 Cambridge Crystallographic Data Centre
#                                CCDC 
#
#######################################################################
#
# If this CIF has been generated from an entry in the Cambridge 
# Structural Database, then it will include bibliographic, chemical, 
# crystal, experimental, refinement or atomic coordinate data resulting 
# from the CCDC's data processing and validation procedures.
#
#######################################################################

data_GEZVUE
_symmetry_cell_setting           monoclinic
_symmetry_space_group_name_H-M   'P 21/c'
_symmetry_Int_Tables_number      14
_space_group_name_Hall           '-P 2ybc'
loop_
_symmetry_equiv_pos_site_id
_symmetry_equiv_pos_as_xyz
1 x,y,z
2 -x,1/2+y,1/2-z
3 -x,-y,-z
4 x,1/2-y,1/2+z
_cell_length_a                   13.6509(5)
_cell_length_b                   10.3996(3)
_cell_length_c                   15.5497(6)
_cell_angle_alpha                90
_cell_angle_beta                 110.8880(19)
_cell_angle_gamma                90
_cell_volume                     2062.42
loop_
_atom_site_label
_atom_site_type_symbol
_atom_site_fract_x
_atom_site_fract_y
_atom_site_fract_z
Ag1 Ag 0.633157(15) 0.259829(17) 0.771501(14)
F1 F 0.13630(11) 0.43929(15) 0.45738(10)
F2 F 0.03804(11) 0.38149(15) 0.28196(11)
F3 F 0.36407(12) 0.28674(16) 0.25259(11)
F4 F 0.46215(11) 0.35782(14) 0.42406(11)
O1 O 0.77691(15) 0.36658(18) 0.75643(16)
H1 H 0.771(3) 0.347(4) 0.704(3)
N1 N 0.49594(16) 0.38702(19) 0.69214(15)
N2 N 0.4974(2) 0.5007(2) 0.82037(17)
H2 H 0.541(2) 0.455(3) 0.854(2)
H3 H 0.469(3) 0.555(4) 0.851(3)
N3 N 0.37628(15) 0.55945(19) 0.67996(15)
N4 N 0.1422(2) 0.2976(3) 0.16848(18)
C1 C 0.45607(19) 0.4817(2) 0.73003(18)
C2 C 0.32885(19) 0.5324(2) 0.59088(18)
H4 H 0.2717 0.5849 0.5555
C3 C 0.35870(19) 0.4313(2) 0.54721(18)
C4 C 0.44697(19) 0.3638(2) 0.60285(19)
H5 H 0.4736 0.2974 0.5754
C5 C 0.30414(19) 0.3997(2) 0.44949(18)
C6 C 0.19500(19) 0.4020(2) 0.40743(18)
C7 C 0.14343(19) 0.3693(2) 0.3177(2)
C8 C 0.1966(2) 0.3277(2) 0.26009(19)
C9 C 0.3045(2) 0.3269(2) 0.30097(19)
C10 C 0.35642(19) 0.3622(2) 0.39155(19)
C11 C 0.0602(2) 0.2009(3) 0.1448(2)
H6 H 0.0832 0.1248 0.1200
H7 H -0.0035 0.2357 0.0984
H8 H 0.0455 0.1771 0.2000
C12 C 0.1810(2) 0.3355(3) 0.0976(2)
H9 H 0.2287 0.4087 0.1190
H10 H 0.1220 0.3602 0.0422
H11 H 0.2187 0.2634 0.0831
C13 C 0.8834(2) 0.3440(3) 0.8158(2)
H12 H 0.9136 0.4249 0.8479
H13 H 0.9252 0.3177 0.7782
C14 C 0.8907(2) 0.2420(3) 0.8856(2)
H14 H 0.8511 0.2688 0.9241
H15 H 0.9644 0.2288 0.9243
H16 H 0.8615 0.1615 0.8541
Ag1A Ag 0.366843(15) 0.759829(17) 0.728499(14)
N3A N 0.62372(15) 0.05945(19) 0.82004(15)
S1 S 0.69768(5) 0.16613(6) 0.54776(5)
F5 F 0.72591(16) -0.08207(16) 0.56466(14)
F6 F 0.86685(14) 0.0252(2) 0.58417(14)
F7 F 0.79922(17) 0.02424(19) 0.68992(13)
O2 O 0.61035(15) 0.15613(18) 0.57891(14)
O3 O 0.67275(14) 0.14793(17) 0.45010(13)
O4 O 0.76711(17) 0.27314(18) 0.58626(14)
C15 C 0.7768(2) 0.0259(3) 0.5996(2)
loop_
_geom_bond_atom_site_label_1
_geom_bond_atom_site_label_2
_geom_bond_site_symmetry_1
_geom_bond_site_symmetry_2
Ag1 O1 1_555 1_555
F1 C6 1_555 1_555
F2 C7 1_555 1_555
F3 C9 1_555 1_555
F4 C10 1_555 1_555
O1 H1 1_555 1_555
N1 Ag1 1_555 1_555
N2 H2 1_555 1_555
H3 N2 1_555 1_555
N3 C1 1_555 1_555
N4 C8 1_555 1_555
C1 N1 1_555 1_555
C2 N3 1_555 1_555
H4 C2 1_555 1_555
C3 C2 1_555 1_555
C4 N1 1_555 1_555
H5 C4 1_555 1_555
C5 C3 1_555 1_555
C6 C5 1_555 1_555
C7 C6 1_555 1_555
C8 C7 1_555 1_555
C9 C8 1_555 1_555
C10 C5 1_555 1_555
C11 N4 1_555 1_555
H6 C11 1_555 1_555
H7 C11 1_555 1_555
H8 C11 1_555 1_555
C12 N4 1_555 1_555
H9 C12 1_555 1_555
H10 C12 1_555 1_555
H11 C12 1_555 1_555
C13 O1 1_555 1_555
H12 C13 1_555 1_555
H13 C13 1_555 1_555
C14 C13 1_555 1_555
H14 C14 1_555 1_555
H15 C14 1_555 1_555
H16 C14 1_555 1_555
S1 O2 1_555 1_555
F5 C15 1_555 1_555
F6 C15 1_555 1_555
F7 C15 1_555 1_555
O3 S1 1_555 1_555
O4 S1 1_555 1_555
C15 S1 1_555 1_555
Ag1A N3 1_555 1_555
N3A Ag1 1_555 1_555
N2 C1 1_555 1_555
C3 C4 1_555 1_555
C9 C10 1_555 1_555

#END
