
#######################################################################
#
#                 Cambridge Crystallographic Data Centre
#                                CCDC 
#
#######################################################################
#
# If this CIF has been generated from an entry in the Cambridge 
# Structural Database, then it will include bibliographic, chemical, 
# crystal, experimental, refinement or atomic coordinate data resulting 
# from the CCDC's data processing and validation procedures.
#
#######################################################################

data_GEZWIT
_symmetry_cell_setting           monoclinic
_symmetry_space_group_name_H-M   'P 21/c'
_symmetry_Int_Tables_number      14
_space_group_name_Hall           '-P 2ybc'
loop_
_symmetry_equiv_pos_site_id
_symmetry_equiv_pos_as_xyz
1 x,y,z
2 -x,1/2+y,1/2-z
3 -x,-y,-z
4 x,1/2-y,1/2+z
_cell_length_a                   18.417(7)
_cell_length_b                   6.3990(8)
_cell_length_c                   11.262(4)
_cell_angle_alpha                90
_cell_angle_beta                 95.79(3)
_cell_angle_gamma                90
_cell_volume                     1320.46
loop_
_atom_site_label
_atom_site_type_symbol
_atom_site_fract_x
_atom_site_fract_y
_atom_site_fract_z
Ag1 Ag 0.395864(9) 1.32433(2) 0.424420(13)
F1 F 0.16574(7) 0.4951(2) 0.15230(12)
F2 F 0.06975(7) 0.5078(2) -0.03921(12)
F3 F 0.15192(8) 1.1832(2) -0.13089(12)
F4 F 0.25041(8) 1.1686(2) 0.05596(12)
O1 O 0.05869(9) 0.8539(3) -0.19038(15)
O2 O 0.47510(9) 1.1135(3) 0.29456(14)
O3 O 0.39546(8) 1.2827(3) 0.17557(14)
O4 O 0.47531(9) 1.0825(3) 0.10178(13)
N1 N 0.32706(10) 1.0114(3) 0.39040(16)
N2 N 0.40096(11) 0.8233(3) 0.52810(18)
H1 H 0.4083(13) 0.932(4) 0.566(2)
H2 H 0.4213(16) 0.719(5) 0.545(3)
N3 N 0.34532(10) 0.6431(3) 0.36544(16)
N4 N 0.44888(10) 1.1613(3) 0.19169(16)
C1 C 0.35750(12) 0.8256(3) 0.42643(19)
C2 C 0.30066(12) 0.6501(4) 0.2649(2)
H3 H 0.2953(13) 0.528(4) 0.220(2)
C3 C 0.26391(12) 0.8305(3) 0.22429(19)
C4 C 0.27991(12) 1.0092(4) 0.29263(19)
H4 H 0.2570(14) 1.140(4) 0.271(2)
C5 C 0.21167(12) 0.8340(3) 0.11496(19)
C6 C 0.16417(13) 0.6683(3) 0.0842(2)
C7 C 0.11370(13) 0.6739(4) -0.0155(2)
C8 C 0.10705(13) 0.8465(4) -0.0901(2)
C9 C 0.15449(12) 1.0123(4) -0.06140(19)
C10 C 0.20547(12) 1.0033(4) 0.03746(19)
C11 C -0.01676(15) 0.8712(5) -0.1676(3)
H5 H -0.031(2) 0.769(7) -0.117(4)
H6 H -0.0452(19) 0.870(5) -0.243(3)
H7 H -0.022(2) 1.015(7) -0.131(4)
Ag1_2 Ag 0.395864(9) 0.32433(2) 0.424420(13)
Ag1C Ag 0.395864(9) 1.17567(2) -0.075580(13)
O4C O 0.47531(9) 1.4175(3) 0.60178(13)
N3_2 N 0.34532(10) 1.6431(3) 0.36544(16)
loop_
_geom_bond_atom_site_label_1
_geom_bond_atom_site_label_2
_geom_bond_site_symmetry_1
_geom_bond_site_symmetry_2
Ag1 O2 1_555 1_555
F1 C6 1_555 1_555
F2 C7 1_555 1_555
F3 C9 1_555 1_555
F4 C10 1_555 1_555
O1 C8 1_555 1_555
O2 N4 1_555 1_555
O3 N4 1_555 1_555
O4 N4 1_555 1_555
N1 Ag1 1_555 1_555
N2 H1 1_555 1_555
H2 N2 1_555 1_555
N3 C1 1_555 1_555
C1 N1 1_555 1_555
C2 N3 1_555 1_555
H3 C2 1_555 1_555
C3 C2 1_555 1_555
C4 N1 1_555 1_555
H4 C4 1_555 1_555
C5 C3 1_555 1_555
C6 C5 1_555 1_555
C7 C6 1_555 1_555
C8 C7 1_555 1_555
C9 C8 1_555 1_555
C10 C5 1_555 1_555
C11 O1 1_555 1_555
H5 C11 1_555 1_555
H6 C11 1_555 1_555
H7 C11 1_555 1_555
Ag1_2 N3 1_555 1_555
Ag1C O4 1_555 1_555
O4C Ag1 1_555 1_555
N3_2 Ag1 1_555 1_555
N2 C1 1_555 1_555
C3 C4 1_555 1_555
C9 C10 1_555 1_555

#END
