
#######################################################################
#
#                 Cambridge Crystallographic Data Centre
#                                CCDC 
#
#######################################################################
#
# If this CIF has been generated from an entry in the Cambridge 
# Structural Database, then it will include bibliographic, chemical, 
# crystal, experimental, refinement or atomic coordinate data resulting 
# from the CCDC's data processing and validation procedures.
#
#######################################################################

data_GEZWOZ
_symmetry_cell_setting           orthorhombic
_symmetry_space_group_name_H-M   'P b c a'
_symmetry_Int_Tables_number      61
_space_group_name_Hall           '-P 2ac 2ab'
loop_
_symmetry_equiv_pos_site_id
_symmetry_equiv_pos_as_xyz
1 x,y,z
2 1/2-x,-y,1/2+z
3 1/2+x,1/2-y,-z
4 -x,1/2+y,1/2-z
5 -x,-y,-z
6 1/2+x,y,1/2-z
7 1/2-x,1/2+y,z
8 x,1/2-y,1/2+z
_cell_length_a                   7.31770(10)
_cell_length_b                   12.76150(10)
_cell_length_c                   29.9513(4)
_cell_angle_alpha                90
_cell_angle_beta                 90
_cell_angle_gamma                90
_cell_volume                     2797
loop_
_atom_site_label
_atom_site_type_symbol
_atom_site_fract_x
_atom_site_fract_y
_atom_site_fract_z
Ag1 Ag 0.191509(18) 0.222301(9) 0.046992(4)
Cl1 Cl 0.23488(6) 0.22718(3) -0.064279(14)
F1 F 0.22179(14) 0.63145(7) 0.20118(3)
F2 F 0.24302(16) 0.62777(8) 0.28860(3)
F3 F 0.53303(15) 0.29547(8) 0.28122(4)
F4 F 0.51373(15) 0.30194(8) 0.19200(3)
O1 O 0.41211(19) 0.44666(10) 0.33256(4)
O2 O 0.35176(19) 0.23672(12) -0.02451(4)
O3 O 0.0910(2) 0.30362(11) -0.06045(5)
O4 O 0.34385(18) 0.24612(11) -0.10310(4)
O5 O 0.15959(19) 0.12336(10) -0.06483(5)
N1 N 0.2446(2) 0.38101(10) 0.07709(5)
N2 N 0.2440(2) 0.47266(13) 0.01065(5)
H1 H 0.267(3) 0.522(2) -0.0055(9)
H2 H 0.204(3) 0.4238(19) -0.0025(7)
N3 N 0.3366(2) 0.56054(10) 0.07422(5)
C1 C 0.2767(2) 0.47140(13) 0.05452(6)
C2 C 0.3722(2) 0.55642(12) 0.11810(6)
H3 H 0.418(3) 0.6209(16) 0.1301(7)
C3 C 0.3419(2) 0.46810(12) 0.14395(6)
C4 C 0.2748(2) 0.38163(13) 0.12109(6)
H4 H 0.244(3) 0.3194(16) 0.1366(7)
C5 C 0.3673(2) 0.46711(12) 0.19285(6)
C6 C 0.3054(2) 0.54833(13) 0.22001(6)
C7 C 0.3151(2) 0.54630(13) 0.26610(6)
C8 C 0.3915(2) 0.46085(13) 0.28832(6)
C9 C 0.4551(2) 0.37875(12) 0.26133(6)
C10 C 0.4444(2) 0.38243(12) 0.21558(6)
C11 C 0.3799(3) 0.53185(16) 0.36320(6)
H5 H 0.450(3) 0.5944(17) 0.3547(7)
H6 H 0.416(3) 0.5063(19) 0.3904(8)
H7 H 0.250(3) 0.5470(18) 0.3647(8)
Ag1B Ag 0.691509(18) 0.277699(9) -0.046992(4)
Ag1F Ag 0.308491(18) 0.722301(9) 0.046992(4)
O2B O -0.14824(19) 0.26328(12) 0.02451(4)
N3F N 0.1634(2) 0.06054(10) 0.07422(5)
loop_
_geom_bond_atom_site_label_1
_geom_bond_atom_site_label_2
_geom_bond_site_symmetry_1
_geom_bond_site_symmetry_2
Ag1 O2 1_555 1_555
Cl1 O2 1_555 1_555
F1 C6 1_555 1_555
F2 C7 1_555 1_555
F3 C9 1_555 1_555
F4 C10 1_555 1_555
O1 C8 1_555 1_555
O2 Ag1B 1_555 1_555
O3 Cl1 1_555 1_555
O4 Cl1 1_555 1_555
O5 Cl1 1_555 1_555
N1 Ag1 1_555 1_555
N2 H1 1_555 1_555
H2 N2 1_555 1_555
N3 C1 1_555 1_555
C1 N1 1_555 1_555
C2 N3 1_555 1_555
H3 C2 1_555 1_555
C3 C2 1_555 1_555
C4 N1 1_555 1_555
H4 C4 1_555 1_555
C5 C3 1_555 1_555
C6 C5 1_555 1_555
C7 C6 1_555 1_555
C8 C7 1_555 1_555
C9 C8 1_555 1_555
C10 C5 1_555 1_555
C11 O1 1_555 1_555
H5 C11 1_555 1_555
H6 C11 1_555 1_555
H7 C11 1_555 1_555
Ag1F N3 1_555 1_555
O2B Ag1 1_555 1_555
N3F Ag1 1_555 1_555
N2 C1 1_555 1_555
C3 C4 1_555 1_555
C9 C10 1_555 1_555

#END
