
#######################################################################
#
#                 Cambridge Crystallographic Data Centre
#                                CCDC 
#
#######################################################################
#
# If this CIF has been generated from an entry in the Cambridge 
# Structural Database, then it will include bibliographic, chemical, 
# crystal, experimental, refinement or atomic coordinate data resulting 
# from the CCDC's data processing and validation procedures.
#
#######################################################################

data_GEZXAM
_symmetry_cell_setting           orthorhombic
_symmetry_space_group_name_H-M   'P b c a'
_symmetry_Int_Tables_number      61
_space_group_name_Hall           '-P 2ac 2ab'
loop_
_symmetry_equiv_pos_site_id
_symmetry_equiv_pos_as_xyz
1 x,y,z
2 1/2-x,-y,1/2+z
3 1/2+x,1/2-y,-z
4 -x,1/2+y,1/2-z
5 -x,-y,-z
6 1/2+x,y,1/2-z
7 1/2-x,1/2+y,z
8 x,1/2-y,1/2+z
_cell_length_a                   8.22210(10)
_cell_length_b                   11.5994(2)
_cell_length_c                   31.6633(4)
_cell_angle_alpha                90
_cell_angle_beta                 90
_cell_angle_gamma                90
_cell_volume                     3019.77
loop_
_atom_site_label
_atom_site_type_symbol
_atom_site_fract_x
_atom_site_fract_y
_atom_site_fract_z
Ag1 Ag 0.10590(2) 0.383067(13) 0.514813(5)
F1 F 0.40947(14) 0.68891(10) 0.66999(4)
F2 F 0.55157(16) 0.64532(10) 0.74460(4)
F3 F 0.82046(15) 0.32561(10) 0.68475(4)
F4 F 0.67449(16) 0.36628(10) 0.61080(4)
F5 F -0.11918(14) 0.28129(11) 0.37403(4)
F6 F 0.10692(15) 0.35471(12) 0.35266(4)
F7 F -0.10898(16) 0.45992(11) 0.35572(4)
O1 O 0.77274(19) 0.47052(12) 0.75353(4)
O2 O 0.0230(2) 0.32948(12) 0.44719(4)
O3 O 0.04904(19) 0.51427(13) 0.42711(4)
N1 N 0.3136(2) 0.50129(14) 0.53505(5)
N2 N 0.2887(2) 0.63062(15) 0.48011(5)
H1 H 0.237(3) 0.5840(16) 0.4650(6)
H2 H 0.330(3) 0.6848(16) 0.4682(6)
N3 N 0.4197(2) 0.69331(14) 0.53999(5)
C1 C 0.3419(3) 0.60807(16) 0.51877(6)
C2 C 0.4811(3) 0.66745(17) 0.57788(6)
H3 H 0.543(3) 0.7323(19) 0.5921(6)
C3 C 0.4673(2) 0.55846(17) 0.59604(6)
C4 C 0.3788(2) 0.47851(18) 0.57282(6)
H4 H 0.358(3) 0.403(2) 0.5831(7)
C5 C 0.5393(2) 0.53057(17) 0.63794(6)
C6 C 0.5119(2) 0.59864(16) 0.67315(6)
C7 C 0.5839(2) 0.57702(19) 0.71177(7)
C8 C 0.6910(2) 0.48538(17) 0.71651(6)
C9 C 0.7165(3) 0.41488(17) 0.68169(6)
C10 C 0.6419(2) 0.43657(17) 0.64379(6)
C11 C 0.7183(3) 0.37405(16) 0.77828(7)
H5 H 0.6015 0.3816 0.7838
H6 H 0.7775 0.3724 0.8051
H7 H 0.7387 0.3024 0.7628
C12 C 0.0195(2) 0.41056(18) 0.42116(6)
C13 C -0.0268(3) 0.37648(17) 0.37560(6)
Ag1D Ag -0.10590(2) 0.616933(13) 0.485187(5)
Ag1F Ag 0.39410(2) 0.883067(13) 0.514813(5)
O3D O -0.04904(19) 0.48573(13) 0.57289(4)
N3F N 0.0803(2) 0.19331(14) 0.53999(5)
loop_
_geom_bond_atom_site_label_1
_geom_bond_atom_site_label_2
_geom_bond_site_symmetry_1
_geom_bond_site_symmetry_2
Ag1 O2 1_555 1_555
F1 C6 1_555 1_555
F2 C7 1_555 1_555
F3 C9 1_555 1_555
F4 C10 1_555 1_555
F5 C13 1_555 1_555
F6 C13 1_555 1_555
F7 C13 1_555 1_555
O1 C8 1_555 1_555
O2 C12 1_555 1_555
O3 C12 1_555 1_555
N1 Ag1 1_555 1_555
N2 H1 1_555 1_555
H2 N2 1_555 1_555
N3 C1 1_555 1_555
C1 N1 1_555 1_555
C2 N3 1_555 1_555
H3 C2 1_555 1_555
C3 C2 1_555 1_555
C4 N1 1_555 1_555
H4 C4 1_555 1_555
C5 C3 1_555 1_555
C6 C5 1_555 1_555
C7 C6 1_555 1_555
C8 C7 1_555 1_555
C9 C8 1_555 1_555
C10 C5 1_555 1_555
C11 O1 1_555 1_555
H5 C11 1_555 1_555
H6 C11 1_555 1_555
H7 C11 1_555 1_555
C12 C13 1_555 1_555
Ag1D O3 1_555 1_555
Ag1F N3 1_555 1_555
O3D Ag1 1_555 1_555
N3F Ag1 1_555 1_555
N2 C1 1_555 1_555
C3 C4 1_555 1_555
C9 C10 1_555 1_555

#END
