
#######################################################################
#
#                 Cambridge Crystallographic Data Centre
#                                CCDC 
#
#######################################################################
#
# If this CIF has been generated from an entry in the Cambridge 
# Structural Database, then it will include bibliographic, chemical, 
# crystal, experimental, refinement or atomic coordinate data resulting 
# from the CCDC's data processing and validation procedures.
#
#######################################################################

data_GEZYOZ
_symmetry_cell_setting           monoclinic
_symmetry_space_group_name_H-M   'P 21/n'
_symmetry_Int_Tables_number      14
_space_group_name_Hall           '-P 2yn'
loop_
_symmetry_equiv_pos_site_id
_symmetry_equiv_pos_as_xyz
1 x,y,z
2 1/2-x,1/2+y,1/2-z
3 -x,-y,-z
4 1/2+x,1/2-y,1/2+z
_cell_length_a                   14.778(7)
_cell_length_b                   8.183(3)
_cell_length_c                   19.556(7)
_cell_angle_alpha                90
_cell_angle_beta                 115.15(3)
_cell_angle_gamma                90
_cell_volume                     2140.68
loop_
_atom_site_label
_atom_site_type_symbol
_atom_site_fract_x
_atom_site_fract_y
_atom_site_fract_z
Ca1 Ca 1.0000 0.0000 1.0000
Ca2 Ca 1.2077(1) 0.0215(2) 1.2252(1)
C1 C 1.1467(6) -0.2288(12) 1.3263(4)
C2 C 1.0969(6) -0.2300(11) 1.3792(4)
C3 C 1.1248(6) -0.3442(12) 1.4382(4)
C4 C 1.0727(8) -0.3466(15) 1.4839(5)
C5 C 0.9985(8) -0.2395(17) 1.4722(6)
C6 C 0.9723(8) -0.1232(16) 1.4154(6)
C7 C 1.0222(7) -0.1193(13) 1.3683(5)
O1 O 1.1112(4) -0.1390(8) 1.2691(3)
O2 O 1.2217(5) -0.3211(9) 1.3410(3)
O3 O 1.1997(5) -0.4518(9) 1.4534(4)
C8 C 0.9681(6) 0.1299(1) 1.1409(4)
C9 C 0.9196(6) 0.1918(11) 1.1884(4)
C10 C 0.8188(7) 0.1625(13) 1.1695(5)
C11 C 0.7759(8) 0.2246(15) 1.2169(6)
C12 C 0.8340(9) 0.3130(15) 1.2803(6)
C13 C 0.9338(9) 0.3432(15) 1.2999(6)
C14 C 0.9760(7) 0.2790(13) 1.2542(5)
O4 O 0.9173(4) 0.0513(9) 1.0820(3)
O5 O 1.0597(4) 0.1605(8) 1.1603(3)
O6 O 0.7591(5) 0.0793(10) 1.1074(4)
O7 O 0.8564(4) 0.1104(8) 0.9014(3)
O8 O 0.7406(4) 0.2478(8) 0.8105(3)
C15 C 0.7954(6) 0.2278(11) 0.8806(4)
C16 C 0.7835(8) 0.3367(13) 0.9382(5)
O11 O 1.3684(4) -0.0313(8) 1.3232(3)
O12 O 1.0669(6) 0.2665(10) 1.0188(3)
H1 H 1.090(7) -0.435(12) 1.518(5)
H2 H 0.966(9) -0.221(16) 1.515(7)
H3 H 0.929(7) -0.008(13) 1.410(6)
H4 H 0.999(7) -0.036(13) 1.335(6)
H5 H 0.701(8) 0.185(13) 1.204(6)
H6 H 0.796(7) 0.371(13) 1.307(5)
H7 H 0.987(8) 0.402(14) 1.355(6)
H8 H 1.048(6) 0.308(10) 1.270(4)
H9 H 1.401(5) -0.146(10) 1.326(4)
H10 H 1.425(6) 0.026(11) 1.336(4)
C8B C 1.0319(6) -0.1299(1) 0.8591(4)
C9B C 1.0804(6) -0.1918(11) 0.8116(4)
C10B C 1.1812(7) -0.1625(13) 0.8305(5)
C11B C 1.2241(8) -0.2246(15) 0.7831(6)
C12B C 1.1660(9) -0.3130(15) 0.7197(6)
C13B C 1.0662(9) -0.3432(15) 0.7001(6)
C14B C 1.0240(7) -0.2790(13) 0.7458(5)
O4B O 1.0827(4) -0.0513(9) 0.9180(3)
O5B O 0.9403(4) -0.1605(8) 0.8397(3)
O6B O 1.2409(5) -0.0793(10) 0.8926(4)
H5B H 1.299(8) -0.185(13) 0.796(6)
H6B H 1.204(7) -0.371(13) 0.693(5)
H7B H 1.013(8) -0.402(14) 0.645(6)
H8B H 0.952(6) -0.308(10) 0.730(4)
O7B O 1.1436(4) -0.1104(8) 1.0986(3)
O8B O 1.2594(4) -0.2478(8) 1.1895(3)
C15B C 1.2046(6) -0.2278(11) 1.1194(4)
C16B C 1.2165(8) -0.3367(13) 1.0618(5)
O12B O 0.9331(6) -0.2665(10) 0.9812(3)
Ca2B Ca 0.7923(1) -0.0215(2) 0.7748(1)
C1A C 1.3533(6) 0.2712(12) 1.1737(4)
C2A C 1.4031(6) 0.2700(11) 1.1208(4)
C3A C 1.3752(6) 0.1558(12) 1.0618(4)
C4A C 1.4273(8) 0.1534(15) 1.0161(5)
C5A C 1.5015(8) 0.2605(17) 1.0278(6)
C6A C 1.5277(8) 0.3768(16) 1.0846(6)
C7A C 1.4778(7) 0.3807(13) 1.1317(5)
O1A O 1.3888(4) 0.3610(8) 1.2309(3)
O2A O 1.2783(5) 0.1789(9) 1.1590(3)
O3A O 1.3003(5) 0.0482(9) 1.0466(4)
H1A H 1.410(7) 0.065(12) 0.982(5)
H2A H 1.534(9) 0.279(16) 0.985(7)
H3A H 1.571(7) 0.492(13) 1.090(6)
H4A H 1.501(7) 0.464(13) 1.165(6)
O11B O 0.6316(4) 0.0313(8) 0.6768(3)
H9B H 0.599(5) 0.146(10) 0.674(4)
H10B H 0.575(6) -0.026(11) 0.664(4)
O8C O 1.2406(4) 0.2522(8) 1.3105(3)
Ca2A Ca 1.2923(1) -0.4785(2) 1.2748(1)
Ca2C Ca 0.7077(1) 0.4785(2) 0.7252(1)
O1B O 0.8888(4) 0.1390(8) 0.7309(3)
O2C O 0.7217(5) -0.1789(9) 0.8410(3)
O8A O 0.7594(4) -0.2522(8) 0.6895(3)
Ca2A_2 Ca 1.2923(1) 0.5215(2) 1.2748(1)
O9 O 0.5487(5) 0.1257(12) 0.3827(4)
O10 O 0.5856(5) 0.2598(11) 0.2993(4)
C17 C 0.6096(8) 0.1630(15) 0.3594(6)
C18 C 0.7170(8) 0.1007(18) 0.3915(6)
loop_
_geom_bond_atom_site_label_1
_geom_bond_atom_site_label_2
_geom_bond_site_symmetry_1
_geom_bond_site_symmetry_2
Ca1 O4 1_555 1_555
Ca2 O1 1_555 1_555
C1 C2 1_555 1_555
C2 C3 1_555 1_555
C3 C4 1_555 1_555
C4 C5 1_555 1_555
C5 C6 1_555 1_555
C6 C7 1_555 1_555
C7 C2 1_555 1_555
O1 C1 1_555 1_555
O2 C1 1_555 1_555
O3 C3 1_555 1_555
C8 C9 1_555 1_555
C9 C10 1_555 1_555
C10 C11 1_555 1_555
C11 C12 1_555 1_555
C12 C13 1_555 1_555
C13 C14 1_555 1_555
C14 C9 1_555 1_555
O4 C8 1_555 1_555
O5 Ca2 1_555 1_555
O6 C10 1_555 1_555
O7 Ca1 1_555 1_555
O8 C15 1_555 1_555
C15 O7 1_555 1_555
C16 C15 1_555 1_555
O9 C17 1_555 1_555
O10 C17 1_555 1_555
C17 C18 1_555 1_555
O11 Ca2 1_555 1_555
O12 Ca1 1_555 1_555
H1 C4 1_555 1_555
H2 C5 1_555 1_555
H3 C6 1_555 1_555
H4 C7 1_555 1_555
H5 C11 1_555 1_555
H6 C12 1_555 1_555
H7 C13 1_555 1_555
H8 C14 1_555 1_555
H9 O11 1_555 1_555
H10 O11 1_555 1_555
C8B C9B 1_555 1_555
C9B C10B 1_555 1_555
C10B C11B 1_555 1_555
C11B C12B 1_555 1_555
C12B C13B 1_555 1_555
C13B C14B 1_555 1_555
C14B C9B 1_555 1_555
O4B Ca1 1_555 1_555
O5B C8B 1_555 1_555
O6B C10B 1_555 1_555
H5B C11B 1_555 1_555
H6B C12B 1_555 1_555
H7B C13B 1_555 1_555
H8B C14B 1_555 1_555
O7B Ca1 1_555 1_555
O8B Ca2 1_555 1_555
C15B O7B 1_555 1_555
C16B C15B 1_555 1_555
O12B Ca1 1_555 1_555
Ca2B O7 1_555 1_555
C1A C2A 1_555 1_555
C2A C3A 1_555 1_555
C3A C4A 1_555 1_555
C4A C5A 1_555 1_555
C5A C6A 1_555 1_555
C6A C7A 1_555 1_555
C7A C2A 1_555 1_555
O1A C1A 1_555 1_555
O2A Ca2 1_555 1_555
O3A C3A 1_555 1_555
H1A C4A 1_555 1_555
H2A C5A 1_555 1_555
H3A C6A 1_555 1_555
H4A C7A 1_555 1_555
O11B Ca2B 1_555 1_555
H9B O11B 1_555 1_555
H10B O11B 1_555 1_555
O8C Ca2 1_555 1_555
Ca2A O2 1_555 1_555
Ca2C O8 1_555 1_555
O1B Ca2B 1_555 1_555
O2C Ca2B 1_555 1_555
O8A Ca2B 1_555 1_555
Ca2A_2 O1A 1_555 1_555
Ca2 O7B 1_555 1_555
C8 O5 1_555 1_555
O8 Ca2B 1_555 1_555
C8B O4B 1_555 1_555
O5B Ca2B 1_555 1_555
O8B C15B 1_555 1_555
O8B Ca2A 1_555 1_555
C1A O2A 1_555 1_555
O8C Ca2A_2 1_555 1_555

#END
