
#######################################################################
#
#                 Cambridge Crystallographic Data Centre
#                                CCDC 
#
#######################################################################
#
# If this CIF has been generated from an entry in the Cambridge 
# Structural Database, then it will include bibliographic, chemical, 
# crystal, experimental, refinement or atomic coordinate data resulting 
# from the CCDC's data processing and validation procedures.
#
#######################################################################

data_GGGCUC
_symmetry_cell_setting           monoclinic
_symmetry_space_group_name_H-M   'C 2/c'
_symmetry_Int_Tables_number      15
_space_group_name_Hall           '-C 2yn'
loop_
_symmetry_equiv_pos_site_id
_symmetry_equiv_pos_as_xyz
1 x,y,z
2 1/2+x,1/2+y,z
3 -x,y,1/2-z
4 1/2-x,1/2+y,1/2-z
5 -x,-y,-z
6 1/2-x,1/2-y,-z
7 x,-y,1/2+z
8 1/2+x,1/2-y,1/2+z
_cell_length_a                   21.360
_cell_length_b                   6.720
_cell_length_c                   15.640
_cell_angle_alpha                90
_cell_angle_beta                 98.25
_cell_angle_gamma                90
_cell_volume                     2221.72
loop_
_atom_site_label
_atom_site_type_symbol
_atom_site_fract_x
_atom_site_fract_y
_atom_site_fract_z
Cl1 Cl 0.23099 -0.11087 -0.15595
Cu1 Cu 0.16424 -0.05413 -0.27781
C1 C 0.21077 -0.05071 -0.43975
C2 C 0.14973 0.07428 -0.44369
C3 C 0.07001 0.26045 -0.53431
C4 C 0.07828 0.48602 -0.54539
C5 C 0.04280 0.77080 -0.63376
C6 C 0.09400 0.80975 -0.68902
N1 N 0.23238 -0.09675 -0.35044
N2 N 0.13085 0.16103 -0.51747
N3 N 0.04070 0.55828 -0.61148
O1 O 0.11953 0.07956 -0.38253
O2 O 0.11303 0.58224 -0.49520
O3 O 0.09461 0.00541 -0.21580
O4 O 0.13230 0.68964 -0.70612
O5 O 0.12147 -0.36168 -0.31661
O3F O 0.09461 0.99459 -0.71580
C6F C 0.09400 0.19025 -0.18902
Cu1F Cu 0.16424 1.05413 -0.77781
C5F C 0.04280 0.22920 -0.13376
O4F O 0.13230 0.31036 -0.20612
Cl1F Cl 0.23099 1.11087 -0.65595
N1F N 0.23238 1.09675 -0.85044
O1F O 0.11953 0.92044 -0.88253
O5F O 0.12147 1.36168 -0.81661
N3F N 0.04070 0.44172 -0.11148
C4F C 0.07828 0.51398 -0.04539
C3F C 0.07001 0.73955 -0.03431
O2F O 0.11303 0.41776 0.00480
N2F N 0.13085 0.83897 -0.01747
C2F C 0.14973 0.92572 0.05631
C1F C 0.21077 1.05071 0.06025
O1F_2 O 0.11953 0.92044 0.11747
N1F_2 N 0.23238 1.09675 0.14956
Cu1F_2 Cu 0.16424 1.05413 0.22219
O6 O 0.00000 0.29531 0.25000
loop_
_geom_bond_atom_site_label_1
_geom_bond_atom_site_label_2
_geom_bond_site_symmetry_1
_geom_bond_site_symmetry_2
Cl1 Cu1 1_555 1_555
Cu1 N1 1_555 1_555
C1 C2 1_555 1_555
C2 N2 1_555 1_555
C3 C4 1_555 1_555
C4 N3 1_555 1_555
C5 C6 1_555 1_555
C6 O4 1_555 1_555
N1 C1 1_555 1_555
N2 C3 1_555 1_555
N3 C5 1_555 1_555
O1 Cu1 1_555 1_555
O2 C4 1_555 1_555
O3 Cu1 1_555 1_555
O5 Cu1 1_555 1_555
O3F C6 1_555 1_555
C6F O3 1_555 1_555
Cu1F O3F 1_555 1_555
C5F C6F 1_555 1_555
O4F C6F 1_555 1_555
Cl1F Cu1F 1_555 1_555
N1F Cu1F 1_555 1_555
O1F Cu1F 1_555 1_555
O5F Cu1F 1_555 1_555
N3F C5F 1_555 1_555
C4F N3F 1_555 1_555
C3F C4F 1_555 1_555
O2F C4F 1_555 1_555
N2F C3F 1_555 1_555
C2F N2F 1_555 1_555
C1F C2F 1_555 1_555
O1F_2 C2F 1_555 1_555
N1F_2 C1F 1_555 1_555
Cu1F_2 O1F_2 1_555 1_555
C2 O1 1_555 1_555
N1F_2 Cu1F_2 1_555 1_555

#END
