
#######################################################################
#
#                 Cambridge Crystallographic Data Centre
#                                CCDC 
#
#######################################################################
#
# If this CIF has been generated from an entry in the Cambridge 
# Structural Database, then it will include bibliographic, chemical, 
# crystal, experimental, refinement or atomic coordinate data resulting 
# from the CCDC's data processing and validation procedures.
#
#######################################################################

data_GIBBAW
_symmetry_cell_setting           monoclinic
_symmetry_space_group_name_H-M   'P 21/c'
_symmetry_Int_Tables_number      14
_space_group_name_Hall           '-P 2ybc'
loop_
_symmetry_equiv_pos_site_id
_symmetry_equiv_pos_as_xyz
1 x,y,z
2 -x,1/2+y,1/2-z
3 -x,-y,-z
4 x,1/2-y,1/2+z
_cell_length_a                   9.488(2)
_cell_length_b                   13.247(3)
_cell_length_c                   12.959(4)
_cell_angle_alpha                90
_cell_angle_beta                 126.716(19)
_cell_angle_gamma                90
_cell_volume                     1305.65
loop_
_atom_site_label
_atom_site_type_symbol
_atom_site_fract_x
_atom_site_fract_y
_atom_site_fract_z
Zn1 Zn 0.20409(5) 0.73704(3) 0.31694(4)
O1 O 0.2396(4) 0.57901(19) 0.2935(2)
O2 O 0.2141(4) 0.47365(19) 0.1501(3)
O3 O 0.1778(4) 0.48363(18) -0.0539(3)
O4 O 0.1433(3) 0.60389(19) -0.1872(2)
O5 O 0.3270(5) 1.2196(2) 0.1304(4)
O6 O -0.0663(4) 0.7000(2) 0.1965(3)
H1 H -0.0734 0.6388 0.2127
H2 H -0.0979 0.7014 0.1198
O7 O 0.4758(4) 0.7647(2) 0.4457(3)
H3 H 0.5193 0.7311 0.5145
H4 H 0.5250 0.7475 0.4111
N1 N 0.2198(4) 0.7451(2) 0.1598(3)
N2 N 0.1958(4) 0.7540(2) -0.0226(3)
N3 N 0.2946(4) 1.1214(2) 0.1188(3)
C1 C 0.2187(5) 0.5634(3) 0.1910(3)
C2 C 0.2052(4) 0.6499(2) 0.1149(3)
C3 C 0.1895(4) 0.6554(3) 0.0025(3)
C4 C 0.1683(4) 0.5768(3) -0.0861(3)
C5 C 0.2160(4) 0.8050(3) 0.0749(3)
C6 C 0.2391(4) 0.9152(2) 0.0894(3)
C7 C 0.1639(5) 0.9786(3) -0.0166(3)
H5 H 0.0938 0.9516 -0.0992
C8 C 0.1926(5) 1.0816(3) 0.0002(4)
H6 H 0.1408 1.1236 -0.0713
C9 C 0.3649(5) 1.0624(3) 0.2229(4)
H7 H 0.4316 1.0915 0.3044
C10 C 0.3396(5) 0.9587(3) 0.2109(4)
H8 H 0.3898 0.9186 0.2839
Zn1C Zn 0.20409(5) 0.76296(3) -0.18306(4)
O4C O 0.1433(3) 0.89611(19) 0.3128(2)
N2C N 0.1958(4) 0.7460(2) 0.4774(3)
O8 O 0.6839(4) 0.6975(2) 0.6942(3)
H9 H 0.7890 0.7167 0.7297
H10 H 0.6474 0.7216 0.7351
H11 H 0.6805 0.6335 0.6951
loop_
_geom_bond_atom_site_label_1
_geom_bond_atom_site_label_2
_geom_bond_site_symmetry_1
_geom_bond_site_symmetry_2
Zn1 O1 1_555 1_555
O1 C1 1_555 1_555
O2 C1 1_555 1_555
O3 C4 1_555 1_555
O4 C4 1_555 1_555
O5 N3 1_555 1_555
O6 Zn1 1_555 1_555
H1 O6 1_555 1_555
H2 O6 1_555 1_555
O7 Zn1 1_555 1_555
H3 O7 1_555 1_555
H4 O7 1_555 1_555
N1 Zn1 1_555 1_555
N2 C3 1_555 1_555
N3 C8 1_555 1_555
C1 C2 1_555 1_555
C2 N1 1_555 1_555
C3 C2 1_555 1_555
C4 C3 1_555 1_555
C5 N1 1_555 1_555
C6 C5 1_555 1_555
C7 C6 1_555 1_555
H5 C7 1_555 1_555
C8 C7 1_555 1_555
H6 C8 1_555 1_555
C9 N3 1_555 1_555
H7 C9 1_555 1_555
C10 C6 1_555 1_555
H8 C10 1_555 1_555
O8 H9 1_555 1_555
H10 O8 1_555 1_555
H11 O8 1_555 1_555
Zn1C O4 1_555 1_555
O4C Zn1 1_555 1_555
N2C Zn1 1_555 1_555
N2 C5 1_555 1_555
N2 Zn1C 1_555 1_555
C9 C10 1_555 1_555

#END
