
#######################################################################
#
#                 Cambridge Crystallographic Data Centre
#                                CCDC 
#
#######################################################################
#
# If this CIF has been generated from an entry in the Cambridge 
# Structural Database, then it will include bibliographic, chemical, 
# crystal, experimental, refinement or atomic coordinate data resulting 
# from the CCDC's data processing and validation procedures.
#
#######################################################################

data_GIBCEB
_symmetry_cell_setting           monoclinic
_symmetry_space_group_name_H-M   'C 2'
_symmetry_Int_Tables_number      5
_space_group_name_Hall           'C 2y'
loop_
_symmetry_equiv_pos_site_id
_symmetry_equiv_pos_as_xyz
1 x,y,z
2 -x,y,-z
3 1/2+x,1/2+y,z
4 1/2-x,1/2+y,-z
_cell_length_a                   12.6657(15)
_cell_length_b                   7.5091(9)
_cell_length_c                   12.9366(16)
_cell_angle_alpha                90
_cell_angle_beta                 100.570(2)
_cell_angle_gamma                90
_cell_volume                     1209.5
loop_
_atom_site_label
_atom_site_type_symbol
_atom_site_fract_x
_atom_site_fract_y
_atom_site_fract_z
C1 C 0.2610(2) 1.0267(3) 0.37866(19)
C2 C 0.18642(18) 0.8825(3) 0.40919(18)
H1 H 0.2012 0.8719 0.4876
C3 C 0.21104(17) 0.7027(4) 0.36348(17)
H2 H 0.1644 0.6109 0.3867
H3 H 0.2865 0.6704 0.3923
C4 C 0.19451(19) 0.7006(4) 0.24310(18)
H4 H 0.1265 0.7617 0.2132
H5 H 0.2542 0.7646 0.2195
C5 C 0.1907(2) 0.5090(4) 0.20463(19)
H6 H 0.2612 0.4518 0.2298
H7 H 0.1358 0.4426 0.2345
C6 C 0.1451(2) 0.3447(4) 0.0399(2)
N1 N 0.07201(16) 0.9311(3) 0.37574(16)
H8 H 0.0625 0.9727 0.3078
H9 H 0.0569 1.0236 0.4174
N2 N 0.16520(19) 0.4992(3) 0.09005(16)
H10 H 0.1631 0.5981 0.0532
N3 N 0.15728(19) 0.1920(3) 0.09184(18)
H11 H 0.1790 0.1917 0.1605
H12 H 0.1437 0.0907 0.0577
N4 N 0.11296(19) 0.3447(3) -0.06469(18)
H13 H 0.1000 0.2433 -0.0988
H14 H 0.1048 0.4461 -0.0993
O1 O 0.36154(14) 1.0021(3) 0.41675(15)
O2 O 0.22522(17) 1.1537(3) 0.32346(17)
Ag1 Ag -0.042875(11) 0.72215(5) 0.382125(11)
O1B O -0.13846(14) 0.5021(3) 0.41675(15)
Ag1A Ag 0.042875(11) 0.72215(5) 0.617875(11)
Ag1B Ag 0.457125(11) 1.22215(5) 0.382125(11)
N5 N -0.08097(17) 0.8429(3) 0.10820(17)
O3 O -0.05153(17) 0.9885(3) 0.15299(15)
O4 O -0.11995(15) 0.8426(3) 0.01124(14)
O5 O -0.07089(17) 0.7013(4) 0.15937(14)
O6 O 0.0000 0.2305(6) 0.5000
H15 H 0.048(2) 0.284(4) 0.531(2)
H15A H -0.048(2) 0.284(4) 0.469(2)
loop_
_geom_bond_atom_site_label_1
_geom_bond_atom_site_label_2
_geom_bond_site_symmetry_1
_geom_bond_site_symmetry_2
C1 C2 1_555 1_555
C2 H1 1_555 1_555
C3 C2 1_555 1_555
H2 C3 1_555 1_555
H3 C3 1_555 1_555
C4 C3 1_555 1_555
H4 C4 1_555 1_555
H5 C4 1_555 1_555
C5 C4 1_555 1_555
H6 C5 1_555 1_555
H7 C5 1_555 1_555
C6 N2 1_555 1_555
N1 C2 1_555 1_555
H8 N1 1_555 1_555
H9 N1 1_555 1_555
N2 C5 1_555 1_555
H10 N2 1_555 1_555
N3 C6 1_555 1_555
H11 N3 1_555 1_555
H12 N3 1_555 1_555
N4 C6 1_555 1_555
H13 N4 1_555 1_555
H14 N4 1_555 1_555
O1 C1 1_555 1_555
O2 C1 1_555 1_555
Ag1 N1 1_555 1_555
N5 O3 1_555 1_555
O4 N5 1_555 1_555
O5 N5 1_555 1_555
O6 H15 1_555 1_555
O1B Ag1 1_555 1_555
Ag1A Ag1 1_555 1_555
Ag1B O1 1_555 1_555
H15A O6 1_555 1_555

#END
