
#######################################################################
#
#                 Cambridge Crystallographic Data Centre
#                                CCDC 
#
#######################################################################
#
# If this CIF has been generated from an entry in the Cambridge 
# Structural Database, then it will include bibliographic, chemical, 
# crystal, experimental, refinement or atomic coordinate data resulting 
# from the CCDC's data processing and validation procedures.
#
#######################################################################

data_GIBHUW
_symmetry_cell_setting           monoclinic
_symmetry_space_group_name_H-M   'P 21'
_symmetry_Int_Tables_number      4
_space_group_name_Hall           'P 2yb'
loop_
_symmetry_equiv_pos_site_id
_symmetry_equiv_pos_as_xyz
1 x,y,z
2 -x,1/2+y,-z
_cell_length_a                   13.4262(18)
_cell_length_b                   22.803(4)
_cell_length_c                   13.4399(16)
_cell_angle_alpha                90
_cell_angle_beta                 118.344(13)
_cell_angle_gamma                90
_cell_volume                     3621.43
loop_
_atom_site_label
_atom_site_type_symbol
_atom_site_fract_x
_atom_site_fract_y
_atom_site_fract_z
C1 C 0.9665(6) 0.3053(3) 0.5026(6)
C2 C 1.0581(7) 0.2792(4) 0.5038(7)
H1 H 1.0541 0.2686 0.4352
C3 C 1.1562(8) 0.2675(5) 0.6012(8)
H2 H 1.2140 0.2459 0.5992
C4 C 1.1674(9) 0.2888(5) 0.7033(9)
H3 H 1.2357 0.2849 0.7694
C5 C 1.0758(8) 0.3158(6) 0.7051(7)
H4 H 1.0808 0.3279 0.7735
C6 C 0.9769(7) 0.3247(6) 0.6055(6)
H5 H 0.9165 0.3439 0.6071
C7 C 0.7301(7) 0.4052(4) 0.3334(6)
C8 C 0.6102(7) 0.4063(4) 0.2929(6)
H6 H 0.5685 0.3717 0.2726
C9 C 0.5573(9) 0.4601(5) 0.2845(9)
H7 H 0.4794 0.4613 0.2575
C10 C 0.6175(11) 0.5108(5) 0.3150(10)
H8 H 0.5801 0.5460 0.3093
C11 C 0.7323(10) 0.5112(4) 0.3543(9)
H9 H 0.7725 0.5462 0.3746
C12 C 0.7881(8) 0.4579(4) 0.3632(8)
H10 H 0.8659 0.4579 0.3898
C13 C 0.7524(7) 0.2547(4) 0.2205(7)
C14 C 0.6431(9) 0.2335(4) 0.1750(7)
H11 H 0.5918 0.2507 0.1944
C15 C 0.6094(9) 0.1859(5) 0.0990(8)
H12 H 0.5353 0.1723 0.0674
C16 C 0.6825(12) 0.1602(5) 0.0720(8)
H13 H 0.6585 0.1289 0.0217
C17 C 0.7908(11) 0.1788(4) 0.1160(8)
H14 H 0.8406 0.1598 0.0969
C18 C 0.8286(8) 0.2270(4) 0.1910(7)
H15 H 0.9027 0.2403 0.2205
C19 C 0.2993(7) 0.3473(4) 0.1965(7)
C20 C 0.3613(7) 0.3149(5) 0.1543(6)
H16 H 0.4078 0.2844 0.1970
C21 C 0.3539(8) 0.3281(6) 0.0502(7)
H17 H 0.3948 0.3065 0.0233
C22 C 0.2858(10) 0.3733(6) -0.0125(9)
H18 H 0.2805 0.3824 -0.0823
C23 C 0.2241(9) 0.4057(5) 0.0277(8)
H19 H 0.1780 0.4362 -0.0159
C24 C 0.2304(8) 0.3932(5) 0.1320(7)
H20 H 0.1892 0.4151 0.1582
C25 C 0.2796(7) 0.2372(5) 0.3848(7)
C26 C 0.3648(9) 0.2000(4) 0.4627(7)
H21 H 0.4380 0.2141 0.5065
C27 C 0.3385(11) 0.1421(5) 0.4734(9)
H22 H 0.3955 0.1173 0.5230
C28 C 0.2302(12) 0.1207(5) 0.4123(10)
H23 H 0.2136 0.0820 0.4213
C29 C 0.1455(11) 0.1578(5) 0.3366(11)
H24 H 0.0719 0.1439 0.2952
C30 C 0.1702(9) 0.2157(5) 0.3223(9)
H25 H 0.1133 0.2400 0.2709
C31 C 0.3741(7) 0.3895(4) 0.4925(7)
C32 C 0.3265(8) 0.3905(5) 0.5657(6)
H26 H 0.2683 0.3649 0.5549
C33 C 0.3691(10) 0.4318(5) 0.6574(8)
H27 H 0.3389 0.4329 0.7070
C34 C 0.4545(10) 0.4696(5) 0.6717(7)
H28 H 0.4814 0.4965 0.7308
C35 C 0.4995(9) 0.4681(4) 0.6016(8)
H29 H 0.5571 0.4942 0.6124
C36 C 0.4611(8) 0.4280(4) 0.5124(8)
H30 H 0.4946 0.4271 0.4657
O1 O 0.1430(5) 0.3509(3) 0.3065(5)
O2 O 0.0764(5) 0.4356(3) 0.4222(5)
O3 O 0.0021(6) 0.4510(3) 0.1945(5)
O4 O -0.0899(5) 0.3567(3) 0.2679(4)
O5 O 0.7108(5) 0.2831(2) 0.4192(5)
O6 O 0.7004(5) 0.3608(3) 0.5857(5)
O7 O 0.6756(6) 0.2400(3) 0.6008(5)
O8 O 0.4967(4) 0.3039(2) 0.4207(4)
Mo1 Mo 0.03291(6) 0.39899(3) 0.29777(6)
Mo2 Mo 0.64650(6) 0.29740(3) 0.50751(6)
Sn1 Sn 0.81277(5) 0.32266(3) 0.34840(4)
Sn2 Sn 0.31820(5) 0.32575(3) 0.36014(4)
O4_2 O 0.9101(5) 0.3567(3) 0.2679(4)
Sn1_2 Sn -0.18723(5) 0.32266(3) 0.34840(4)
C37 C 0.7899(9) 0.0594(4) 0.5972(8)
H31 H 0.7253 0.0365 0.5446
H32 H 0.8503 0.0319 0.6409
C38 C 0.7578(10) 0.0901(4) 0.6768(8)
H33 H 0.8206 0.1144 0.7285
H34 H 0.6937 0.1157 0.6339
C39 C 0.7283(10) 0.0480(5) 0.7426(9)
H35 H 0.7916 0.0217 0.7829
H36 H 0.6642 0.0247 0.6906
C40 C 0.6991(11) 0.0771(6) 0.8266(10)
H37 H 0.7573 0.1046 0.8714
H38 H 0.6935 0.0478 0.8750
H39 H 0.6281 0.0972 0.7868
C41 C 0.7357(10) 0.1420(4) 0.4544(8)
H40 H 0.7196 0.1669 0.5036
H41 H 0.7649 0.1669 0.4157
C42 C 0.6263(10) 0.1148(4) 0.3675(9)
H42 H 0.6349 0.1023 0.3030
H43 H 0.6103 0.0803 0.3998
C43 C 0.5278(10) 0.1566(5) 0.3278(9)
H44 H 0.5454 0.1917 0.2985
H45 H 0.5179 0.1680 0.3921
C44 C 0.4170(11) 0.1311(6) 0.2368(10)
H46 H 0.4265 0.1187 0.1736
H47 H 0.3588 0.1604 0.2126
H48 H 0.3958 0.0980 0.2669
C45 C 0.9328(9) 0.1338(4) 0.6061(8)
H49 H 0.9106 0.1625 0.6450
H50 H 0.9582 0.1550 0.5598
C46 C 1.0326(10) 0.0985(5) 0.6946(11)
H51 H 1.0088 0.0784 0.7434
H52 H 1.0540 0.0689 0.6564
C47 C 1.1335(13) 0.1357(7) 0.7656(14)
H53 H 1.1090 0.1698 0.7912
H54 H 1.1665 0.1493 0.7194
C48 C 1.2235(15) 0.1037(9) 0.8676(14)
H55 H 1.1884 0.0822 0.9041
H56 H 1.2759 0.1316 0.9197
H57 H 1.2632 0.0770 0.8437
C49 C 0.8538(9) 0.0567(4) 0.4534(8)
H58 H 0.9103 0.0286 0.5018
H59 H 0.7854 0.0349 0.4058
C50 C 0.8950(11) 0.0846(4) 0.3786(9)
H60 H 0.9722 0.0981 0.4237
H61 H 0.8480 0.1182 0.3401
C51 C 0.8893(18) 0.0379(7) 0.2889(15)
H62 H 0.8099 0.0299 0.2391
H63 H 0.9184 0.0569 0.2434
C52 C 0.9425(19) -0.0147(8) 0.3222(16)
H64 H 1.0170 -0.0090 0.3844
H65 H 0.9483 -0.0324 0.2603
H66 H 0.8999 -0.0399 0.3452
N1 N 0.8285(7) 0.0978(3) 0.5282(7)
C53 C 0.7250(9) 0.3872(6) 0.9962(8)
H67 H 0.7056 0.3536 1.0278
H68 H 0.7929 0.4047 1.0562
C54 C 0.6294(11) 0.4317(7) 0.9577(10)
H69 H 0.6519 0.4659 0.9303
H70 H 0.5641 0.4149 0.8935
C55 C 0.5945(14) 0.4508(8) 1.0313(10)
H71 H 0.6601 0.4661 1.0972
H72 H 0.5680 0.4171 1.0559
C56 C 0.5030(12) 0.4971(7) 0.9917(10)
H73 H 0.5244 0.5298 0.9609
H74 H 0.4934 0.5101 1.0546
H75 H 0.4332 0.4808 0.9347
C57 C 0.6502(8) 0.3313(5) 0.8127(7)
H76 H 0.5895 0.3588 0.7705
H77 H 0.6730 0.3145 0.7602
C58 C 0.6048(9) 0.2835(5) 0.8545(8)
H78 H 0.5766 0.2997 0.9031
H79 H 0.6646 0.2559 0.8984
C59 C 0.5082(10) 0.2518(5) 0.7537(9)
H80 H 0.4515 0.2806 0.7086
H81 H 0.5384 0.2355 0.7069
C60 C 0.4518(10) 0.2040(6) 0.7832(9)
H82 H 0.5055 0.1735 0.8225
H83 H 0.3907 0.1884 0.7153
H84 H 0.4226 0.2193 0.8308
C61 C 0.8551(8) 0.3264(6) 0.9622(8)
H85 H 0.9164 0.3500 1.0177
H86 H 0.8381 0.2966 1.0034
C62 C 0.8985(11) 0.2956(6) 0.8903(11)
H87 H 0.9101 0.3234 0.8422
H88 H 0.8452 0.2659 0.8431
C63 C 0.982(4) 0.2049(14) 0.968(4)
C64 C 0.7763(9) 0.4149(5) 0.8443(8)
H89 H 0.7094 0.4394 0.8082
H90 H 0.7888 0.3980 0.7849
C65 C 0.8769(10) 0.4540(5) 0.9169(9)
H91 H 0.8750 0.4635 0.9863
H92 H 0.9464 0.4326 0.9370
C66 C 0.8779(12) 0.5095(6) 0.8587(10)
H93 H 0.8076 0.5304 0.8370
H94 H 0.8814 0.4999 0.7901
C67 C 0.9747(13) 0.5490(7) 0.9298(13)
H95 H 0.9707 0.5838 0.8880
H96 H 1.0447 0.5290 0.9501
H97 H 0.9709 0.5594 0.9971
N2 N 0.7517(7) 0.3658(4) 0.9038(6)
C68 C 1.0156(16) 0.2662(10) 0.978(2)
C69? C 1.060(3) 0.2171(16) 0.941(3)
loop_
_geom_bond_atom_site_label_1
_geom_bond_atom_site_label_2
_geom_bond_site_symmetry_1
_geom_bond_site_symmetry_2
C1 C2 1_555 1_555
C2 H1 1_555 1_555
C3 C2 1_555 1_555
H2 C3 1_555 1_555
C4 C3 1_555 1_555
H3 C4 1_555 1_555
C5 C4 1_555 1_555
H4 C5 1_555 1_555
C6 C1 1_555 1_555
H5 C6 1_555 1_555
C7 C8 1_555 1_555
C8 H6 1_555 1_555
C9 C8 1_555 1_555
H7 C9 1_555 1_555
C10 C9 1_555 1_555
H8 C10 1_555 1_555
C11 C10 1_555 1_555
H9 C11 1_555 1_555
C12 C7 1_555 1_555
H10 C12 1_555 1_555
C13 C14 1_555 1_555
C14 H11 1_555 1_555
C15 C14 1_555 1_555
H12 C15 1_555 1_555
C16 C15 1_555 1_555
H13 C16 1_555 1_555
C17 C16 1_555 1_555
H14 C17 1_555 1_555
C18 C13 1_555 1_555
H15 C18 1_555 1_555
C19 C20 1_555 1_555
C20 H16 1_555 1_555
C21 C20 1_555 1_555
H17 C21 1_555 1_555
C22 C21 1_555 1_555
H18 C22 1_555 1_555
C23 C22 1_555 1_555
H19 C23 1_555 1_555
C24 C19 1_555 1_555
H20 C24 1_555 1_555
C25 C26 1_555 1_555
C26 H21 1_555 1_555
C27 C26 1_555 1_555
H22 C27 1_555 1_555
C28 C27 1_555 1_555
H23 C28 1_555 1_555
C29 C28 1_555 1_555
H24 C29 1_555 1_555
C30 C25 1_555 1_555
H25 C30 1_555 1_555
C31 C32 1_555 1_555
C32 H26 1_555 1_555
C33 C32 1_555 1_555
H27 C33 1_555 1_555
C34 C33 1_555 1_555
H28 C34 1_555 1_555
C35 C34 1_555 1_555
H29 C35 1_555 1_555
C36 C31 1_555 1_555
H30 C36 1_555 1_555
O1 Mo1 1_555 1_555
O2 Mo1 1_555 1_555
O3 Mo1 1_555 1_555
O4 Mo1 1_555 1_555
O5 Mo2 1_555 1_555
O6 Mo2 1_555 1_555
O7 Mo2 1_555 1_555
O8 Mo2 1_555 1_555
Sn1 C1 1_555 1_555
Sn2 C19 1_555 1_555
C37 H31 1_555 1_555
H32 C37 1_555 1_555
C38 C37 1_555 1_555
H33 C38 1_555 1_555
H34 C38 1_555 1_555
C39 C38 1_555 1_555
H35 C39 1_555 1_555
H36 C39 1_555 1_555
C40 C39 1_555 1_555
H37 C40 1_555 1_555
H38 C40 1_555 1_555
H39 C40 1_555 1_555
C41 H40 1_555 1_555
H41 C41 1_555 1_555
C42 C41 1_555 1_555
H42 C42 1_555 1_555
H43 C42 1_555 1_555
C43 C42 1_555 1_555
H44 C43 1_555 1_555
H45 C43 1_555 1_555
C44 C43 1_555 1_555
H46 C44 1_555 1_555
H47 C44 1_555 1_555
H48 C44 1_555 1_555
C45 H49 1_555 1_555
H50 C45 1_555 1_555
C46 C45 1_555 1_555
H51 C46 1_555 1_555
H52 C46 1_555 1_555
C47 C46 1_555 1_555
H53 C47 1_555 1_555
H54 C47 1_555 1_555
C48 C47 1_555 1_555
H55 C48 1_555 1_555
H56 C48 1_555 1_555
H57 C48 1_555 1_555
C49 H58 1_555 1_555
H59 C49 1_555 1_555
C50 C49 1_555 1_555
H60 C50 1_555 1_555
H61 C50 1_555 1_555
C51 C50 1_555 1_555
H62 C51 1_555 1_555
H63 C51 1_555 1_555
C52 C51 1_555 1_555
H64 C52 1_555 1_555
H65 C52 1_555 1_555
H66 C52 1_555 1_555
N1 C37 1_555 1_555
C53 H67 1_555 1_555
H68 C53 1_555 1_555
C54 C53 1_555 1_555
H69 C54 1_555 1_555
H70 C54 1_555 1_555
C55 C54 1_555 1_555
H71 C55 1_555 1_555
H72 C55 1_555 1_555
C56 C55 1_555 1_555
H73 C56 1_555 1_555
H74 C56 1_555 1_555
H75 C56 1_555 1_555
C57 H76 1_555 1_555
H77 C57 1_555 1_555
C58 C57 1_555 1_555
H78 C58 1_555 1_555
H79 C58 1_555 1_555
C59 C58 1_555 1_555
H80 C59 1_555 1_555
H81 C59 1_555 1_555
C60 C59 1_555 1_555
H82 C60 1_555 1_555
H83 C60 1_555 1_555
H84 C60 1_555 1_555
C61 H85 1_555 1_555
H86 C61 1_555 1_555
C62 C61 1_555 1_555
H87 C62 1_555 1_555
H88 C62 1_555 1_555
C63 C68 1_555 1_555
C64 H89 1_555 1_555
H90 C64 1_555 1_555
C65 C64 1_555 1_555
H91 C65 1_555 1_555
H92 C65 1_555 1_555
C66 C65 1_555 1_555
H93 C66 1_555 1_555
H94 C66 1_555 1_555
C67 C66 1_555 1_555
H95 C67 1_555 1_555
H96 C67 1_555 1_555
H97 C67 1_555 1_555
N2 C53 1_555 1_555
C68 C62 1_555 1_555
O4_2 Sn1 1_555 1_555
Sn1_2 O4 1_555 1_555
C5 C6 1_555 1_555
C7 Sn1 1_555 1_555
C11 C12 1_555 1_555
C13 Sn1 1_555 1_555
C17 C18 1_555 1_555
C23 C24 1_555 1_555
C25 Sn2 1_555 1_555
C29 C30 1_555 1_555
C31 Sn2 1_555 1_555
C35 C36 1_555 1_555
O1 Sn2 1_555 1_555
O5 Sn1 1_555 1_555
O8 Sn2 1_555 1_555
C41 N1 1_555 1_555
C45 N1 1_555 1_555
C49 N1 1_555 1_555
C57 N2 1_555 1_555
C61 N2 1_555 1_555
C64 N2 1_555 1_555

#END
