
#######################################################################
#
#                 Cambridge Crystallographic Data Centre
#                                CCDC 
#
#######################################################################
#
# If this CIF has been generated from an entry in the Cambridge 
# Structural Database, then it will include bibliographic, chemical, 
# crystal, experimental, refinement or atomic coordinate data resulting 
# from the CCDC's data processing and validation procedures.
#
#######################################################################

data_GIBJAE
_symmetry_cell_setting           orthorhombic
_symmetry_space_group_name_H-M   'P 21 21 21'
_symmetry_Int_Tables_number      19
_space_group_name_Hall           'P 2ac 2ab'
loop_
_symmetry_equiv_pos_site_id
_symmetry_equiv_pos_as_xyz
1 x,y,z
2 1/2-x,-y,1/2+z
3 1/2+x,1/2-y,-z
4 -x,1/2+y,1/2-z
_cell_length_a                   13.3991(17)
_cell_length_b                   15.0889(19)
_cell_length_c                   17.332(3)
_cell_angle_alpha                90
_cell_angle_beta                 90
_cell_angle_gamma                90
_cell_volume                     3504.14
loop_
_atom_site_label
_atom_site_type_symbol
_atom_site_fract_x
_atom_site_fract_y
_atom_site_fract_z
C1 C -0.4891(2) -0.1056(3) 0.01841(19)
C2 C -0.4126(3) -0.0952(4) 0.0741(3)
H1 H -0.393(3) -0.143(3) 0.099(2)
C3 C -0.3699(4) -0.0134(5) 0.0868(3)
H2 H -0.321(4) -0.003(4) 0.126(3)
C4 C -0.3994(4) 0.0583(5) 0.0444(4)
H3 H -0.379(4) 0.116(4) 0.045(3)
C5 C -0.4724(4) 0.0504(4) -0.0113(4)
H4 H -0.501(3) 0.086(4) -0.042(3)
C6 C -0.5181(3) -0.0312(3) -0.0224(2)
H5 H -0.555(3) -0.035(2) -0.058(2)
C7 C -0.6260(2) -0.3096(3) 0.0880(2)
C8 C -0.7252(2) -0.3379(3) 0.0794(2)
H6 H -0.755(2) -0.319(2) 0.0362(18)
C9 C -0.7716(3) -0.3893(3) 0.1345(3)
H7 H -0.832(4) -0.411(3) 0.124(3)
C10 C -0.7207(3) -0.4134(4) 0.2008(3)
H8 H -0.752(3) -0.445(3) 0.243(2)
C11 C -0.6227(3) -0.3863(4) 0.2109(3)
H9 H -0.587(3) -0.401(3) 0.256(3)
C12 C -0.5762(3) -0.3349(3) 0.1562(2)
H10 H -0.512(3) -0.315(3) 0.163(2)
C13 C -0.5487(3) -0.2926(3) -0.1142(2)
C14 C -0.6356(4) -0.3235(3) -0.1510(3)
H11 H -0.700(3) -0.320(3) -0.121(2)
C15 C -0.6311(7) -0.3618(5) -0.2240(4)
H12 H -0.681(4) -0.375(4) -0.238(3)
C16 C -0.5422(8) -0.3684(5) -0.2627(3)
H13 H -0.537(4) -0.394(4) -0.315(3)
C17 C -0.4552(6) -0.3385(4) -0.2275(3)
H14 H -0.393(4) -0.341(4) -0.252(3)
C18 C -0.4588(4) -0.3025(3) -0.1537(2)
H15 H -0.399(3) -0.283(3) -0.133(2)
O1 O -0.8184(2) -0.1503(4) -0.16237(16)
O2 O -0.91066(17) -0.2059(2) -0.02616(14)
O3 O -0.69641(19) -0.1709(2) -0.02854(14)
O4 O -0.8398(3) -0.0316(3) -0.0417(4)
Mo1 Mo -0.81616(2) -0.13863(2) -0.065019(19)
Sn1 Sn -0.554454(13) -0.233929(15) -0.00117(2)
O2B O -0.41066(17) -0.2941(2) 0.02616(14)
Sn1B Sn -1.054454(13) -0.266071(15) 0.00117(2)
C19 C -0.8173(3) -0.0567(3) -0.3347(2)
H16 H -0.8865 -0.0625 -0.3505
H17 H -0.8150 -0.0654 -0.2793
C20 C -0.7842(4) 0.0368(4) -0.3518(3)
H18 H -0.7975 0.0510 -0.4054
H19 H -0.7129 0.0423 -0.3430
C21 C -0.8399(4) 0.1000(4) -0.2999(3)
H20 H -0.8193 0.1596 -0.3108
H21 H -0.8257 0.0862 -0.2470
H22 H -0.9103 0.0944 -0.3091
C22 C -0.7751(3) -0.1282(3) -0.45955(19)
H23 H -0.8462 -0.1345 -0.4686
H24 H -0.7557 -0.0701 -0.4781
C23 C -0.7215(3) -0.1970(3) -0.5076(3)
H25 H -0.7427 -0.2559 -0.4922
H26 H -0.6501 -0.1925 -0.4992
C24 C -0.7451(4) -0.1822(4) -0.5928(2)
H27 H -0.7108 -0.2256 -0.6233
H28 H -0.7237 -0.1239 -0.6078
H29 H -0.8157 -0.1876 -0.6009
C25 C -0.7903(3) -0.2190(3) -0.3383(2)
H30 H -0.7719 -0.2193 -0.2842
H31 H -0.7531 -0.2660 -0.3634
C26 C -0.9008(3) -0.2410(4) -0.3441(3)
H32 H -0.9392 -0.1979 -0.3150
H33 H -0.9219 -0.2379 -0.3976
C27 C -0.9206(4) -0.3332(5) -0.3128(3)
H34 H -0.9906 -0.3460 -0.3161
H35 H -0.8997 -0.3361 -0.2599
H36 H -0.8839 -0.3758 -0.3425
C28 C -0.6460(3) -0.1203(3) -0.3567(2)
H37 H -0.6119 -0.1729 -0.3750
H38 H -0.6217 -0.0706 -0.3869
C29 C -0.6165(3) -0.1053(4) -0.2732(2)
H39 H -0.6464 -0.0509 -0.2543
H40 H -0.6405 -0.1539 -0.2416
C30 C -0.5037(3) -0.0993(4) -0.2675(3)
H41 H -0.4848 -0.0897 -0.2147
H42 H -0.4804 -0.0509 -0.2986
H43 H -0.4745 -0.1536 -0.2856
N1 N -0.7574(2) -0.1312(3) -0.37293(17)
C31 C -0.9320(4) -0.3936(5) -0.5194(3)
C32 C -0.9236(4) -0.4869(4) -0.5056(5)
H44 H -0.9783 -0.5062 -0.4740
H45 H -0.8618 -0.4991 -0.4797
H46 H -0.9252 -0.5181 -0.5539
N2 N -0.9406(4) -0.3195(4) -0.5309(3)
loop_
_geom_bond_atom_site_label_1
_geom_bond_atom_site_label_2
_geom_bond_site_symmetry_1
_geom_bond_site_symmetry_2
C1 C2 1_555 1_555
C2 H1 1_555 1_555
C3 C2 1_555 1_555
H2 C3 1_555 1_555
C4 C3 1_555 1_555
H3 C4 1_555 1_555
C5 C4 1_555 1_555
H4 C5 1_555 1_555
C6 C1 1_555 1_555
H5 C6 1_555 1_555
C7 C8 1_555 1_555
C8 H6 1_555 1_555
C9 C8 1_555 1_555
H7 C9 1_555 1_555
C10 C9 1_555 1_555
H8 C10 1_555 1_555
C11 C10 1_555 1_555
H9 C11 1_555 1_555
C12 C7 1_555 1_555
H10 C12 1_555 1_555
C13 C14 1_555 1_555
C14 H11 1_555 1_555
C15 C14 1_555 1_555
H12 C15 1_555 1_555
C16 C15 1_555 1_555
H13 C16 1_555 1_555
C17 C16 1_555 1_555
H14 C17 1_555 1_555
C18 C13 1_555 1_555
H15 C18 1_555 1_555
O1 Mo1 1_555 1_555
O2 Mo1 1_555 1_555
O3 Mo1 1_555 1_555
O4 Mo1 1_555 1_555
Sn1 C1 1_555 1_555
C19 H16 1_555 1_555
H17 C19 1_555 1_555
C20 C19 1_555 1_555
H18 C20 1_555 1_555
H19 C20 1_555 1_555
C21 C20 1_555 1_555
H20 C21 1_555 1_555
H21 C21 1_555 1_555
H22 C21 1_555 1_555
C22 H23 1_555 1_555
H24 C22 1_555 1_555
C23 C22 1_555 1_555
H25 C23 1_555 1_555
H26 C23 1_555 1_555
C24 C23 1_555 1_555
H27 C24 1_555 1_555
H28 C24 1_555 1_555
H29 C24 1_555 1_555
C25 H30 1_555 1_555
H31 C25 1_555 1_555
C26 C25 1_555 1_555
H32 C26 1_555 1_555
H33 C26 1_555 1_555
C27 C26 1_555 1_555
H34 C27 1_555 1_555
H35 C27 1_555 1_555
H36 C27 1_555 1_555
C28 H37 1_555 1_555
H38 C28 1_555 1_555
C29 C28 1_555 1_555
H39 C29 1_555 1_555
H40 C29 1_555 1_555
C30 C29 1_555 1_555
H41 C30 1_555 1_555
H42 C30 1_555 1_555
H43 C30 1_555 1_555
N1 C19 1_555 1_555
C31 C32 1_555 1_555
C32 H44 1_555 1_555
H45 C32 1_555 1_555
H46 C32 1_555 1_555
N2 C31 1_555 1_555
O2B Sn1 1_555 1_555
Sn1B O2 1_555 1_555
C5 C6 1_555 1_555
C7 Sn1 1_555 1_555
C11 C12 1_555 1_555
C13 Sn1 1_555 1_555
C17 C18 1_555 1_555
O3 Sn1 1_555 1_555
C22 N1 1_555 1_555
C25 N1 1_555 1_555
C28 N1 1_555 1_555

#END
