
#######################################################################
#
#                 Cambridge Crystallographic Data Centre
#                                CCDC 
#
#######################################################################
#
# If this CIF has been generated from an entry in the Cambridge 
# Structural Database, then it will include bibliographic, chemical, 
# crystal, experimental, refinement or atomic coordinate data resulting 
# from the CCDC's data processing and validation procedures.
#
#######################################################################

data_GIBLAE
_symmetry_cell_setting           orthorhombic
_symmetry_space_group_name_H-M   'P m n 21'
_symmetry_Int_Tables_number      31
_space_group_name_Hall           'P 2ac -2'
loop_
_symmetry_equiv_pos_site_id
_symmetry_equiv_pos_as_xyz
1 x,y,z
2 -x,y,z
3 1/2+x,-y,1/2+z
4 1/2-x,-y,1/2+z
_cell_length_a                   5.734(5)
_cell_length_b                   14.334(26)
_cell_length_c                   4.945(4)
_cell_angle_alpha                90
_cell_angle_beta                 90
_cell_angle_gamma                90
_cell_volume                     406.435
loop_
_atom_site_label
_atom_site_type_symbol
_atom_site_fract_x
_atom_site_fract_y
_atom_site_fract_z
Mn1 Mn 0.0000 -0.01647(12) 0.0000
P1 P 0.0000 0.1191(2) 0.5624(8)
O1 O 0.0000 0.0999(6) 0.262(2)
O2 O 0.2136(11) 0.0778(4) 0.7082(12)
O3 O 0.0000 -0.1276(6) -0.312(2)
C1 C 0.0000 0.2424(9) 0.608(3)
C2 C 0.0000 0.433(2) 0.673(5)
C3 C 0.211(4) 0.2905(14) 0.630(4)
C4 C 0.206(5) 0.3899(15) 0.662(4)
H1 H -0.126 -0.1393 -0.4247
H2 H 0.361(4) 0.2556(14) 0.619(4)
H3 H 0.355(5) 0.4255(15) 0.676(4)
H4 H 0.0000 0.502(2) 0.699(5)
O2A O -0.2136(11) 0.0778(4) 0.7082(12)
C4A C -0.206(5) 0.3899(15) 0.662(4)
C3A C -0.211(4) 0.2905(14) 0.630(4)
H2A H -0.361(4) 0.2556(14) 0.619(4)
H3A H -0.355(5) 0.4255(15) 0.676(4)
H1A H 0.126 -0.1393 -0.4247
O2_2 O 0.2136(11) 0.0778(4) -0.2918(12)
O2A_2 O -0.2136(11) 0.0778(4) -0.2918(12)
O2B O -0.2864(11) -0.0778(4) 0.2082(12)
O2C O 0.2864(11) -0.0778(4) 0.2082(12)
Mn1_2 Mn 0.0000 -0.01647(12) 1.0000
Mn1B Mn 0.5000 0.01647(12) 0.5000
Mn1B_2 Mn -0.5000 0.01647(12) 0.5000
loop_
_geom_bond_atom_site_label_1
_geom_bond_atom_site_label_2
_geom_bond_site_symmetry_1
_geom_bond_site_symmetry_2
Mn1 O1 1_555 1_555
P1 O1 1_555 1_555
O2 P1 1_555 1_555
O3 Mn1 1_555 1_555
C1 P1 1_555 1_555
C2 C4 1_555 1_555
C3 C1 1_555 1_555
C4 C3 1_555 1_555
H1 O3 1_555 1_555
H2 C3 1_555 1_555
H3 C4 1_555 1_555
H4 C2 1_555 1_555
O2A P1 1_555 1_555
C4A C2 1_555 1_555
C3A C1 1_555 1_555
H2A C3A 1_555 1_555
H3A C4A 1_555 1_555
H1A O3 1_555 1_555
O2_2 Mn1 1_555 1_555
O2A_2 Mn1 1_555 1_555
O2B Mn1 1_555 1_555
O2C Mn1 1_555 1_555
Mn1_2 O2 1_555 1_555
Mn1B O2 1_555 1_555
Mn1B_2 O2A 1_555 1_555
O2A Mn1_2 1_555 1_555
C4A C3A 1_555 1_555
O2B Mn1B_2 1_555 1_555
O2C Mn1B 1_555 1_555

#END
