
#######################################################################
#
#                 Cambridge Crystallographic Data Centre
#                                CCDC 
#
#######################################################################
#
# If this CIF has been generated from an entry in the Cambridge 
# Structural Database, then it will include bibliographic, chemical, 
# crystal, experimental, refinement or atomic coordinate data resulting 
# from the CCDC's data processing and validation procedures.
#
#######################################################################

data_GIBQUF
_symmetry_cell_setting           monoclinic
_symmetry_space_group_name_H-M   'C 2/c'
_symmetry_Int_Tables_number      15
_space_group_name_Hall           '-C 2yn'
loop_
_symmetry_equiv_pos_site_id
_symmetry_equiv_pos_as_xyz
1 x,y,z
2 -x,y,1/2-z
3 1/2+x,1/2+y,z
4 1/2-x,1/2+y,1/2-z
5 -x,-y,-z
6 x,-y,1/2+z
7 1/2-x,1/2-y,-z
8 1/2+x,1/2-y,1/2+z
_cell_length_a                   14.571(5)
_cell_length_b                   32.389(6)
_cell_length_c                   10.948(5)
_cell_angle_alpha                90
_cell_angle_beta                 115.186(5)
_cell_angle_gamma                90
_cell_volume                     4675.6
loop_
_atom_site_label
_atom_site_type_symbol
_atom_site_fract_x
_atom_site_fract_y
_atom_site_fract_z
C1 C 0.3297(2) 0.11973(8) 0.8217(3)
C2 C 0.4336(2) 0.11814(9) 0.8231(3)
H1 H 0.4844 0.1185 0.9172
C3 C 0.4485(3) 0.15657(9) 0.7523(4)
H2 H 0.3955 0.1577 0.6609
H3 H 0.4426 0.1810 0.7996
C4 C 0.4495(3) 0.07948(9) 0.7560(4)
H4 H 0.3944 0.0770 0.6665
H5 H 0.4471 0.0555 0.8079
O1 O -0.02324(17) 0.10490(7) 0.8743(2)
O2 O 0.31431(16) 0.14378(7) 0.9031(2)
O3 O 0.25704(16) 0.09971(7) 0.7363(2)
C5 C 0.1172(2) 0.18777(9) 1.0029(3)
H6 H 0.1138 0.1634 1.0459
C6 C 0.1152(2) 0.22510(10) 1.0639(3)
H7 H 0.1110 0.2254 1.1464
C7 C 0.1193(2) 0.26148(9) 1.0028(3)
H8 H 0.1181 0.2866 1.0430
C8 C 0.1253(2) 0.26011(8) 0.8785(3)
C9 C 0.1273(2) 0.22103(8) 0.8232(3)
C10 C 0.1347(2) 0.21720(8) 0.6952(3)
C11 C 0.1405(3) 0.17343(10) 0.5334(3)
H9 H 0.1429 0.1468 0.5035
C12 C 0.1394(3) 0.20615(10) 0.4518(4)
H10 H 0.1401 0.2013 0.3685
C13 C 0.1373(3) 0.24597(10) 0.4948(3)
H11 H 0.1365 0.2683 0.4409
C14 C 0.1365(2) 0.25223(9) 0.6208(3)
C15 C 0.1373(2) 0.29165(8) 0.6805(3)
C16 C 0.1319(2) 0.29501(9) 0.8029(3)
C17 C 0.1484(2) 0.35587(9) 0.7270(3)
C18 C 0.1623(3) 0.40072(9) 0.7204(3)
C19 C 0.2027(3) 0.41540(10) 0.6339(4)
H12 H 0.2209 0.3968 0.5833
C20 C 0.2159(3) 0.45742(12) 0.6225(5)
H13 H 0.2432 0.4668 0.5646
C21 C 0.1891(3) 0.48521(11) 0.6958(5)
H14 H 0.1979 0.5133 0.6873
C22 C 0.1491(3) 0.47160(11) 0.7825(4)
H15 H 0.1306 0.4902 0.8327
C23 C 0.1372(3) 0.42980(10) 0.7928(4)
C24 C 0.0499(2) 0.08059(9) 0.9252(3)
C25 C 0.0381(3) 0.04200(10) 0.9947(4)
H16 H 0.0777 0.0465 1.0918
C26 C 0.0812(4) 0.00530(12) 0.9597(6)
H17 H 0.1530 0.0099 0.9865
H18 H 0.0491 0.0018 0.8625
C27 C -0.0680(4) 0.03414(13) 0.9744(7)
H19 H -0.1110 0.0327 0.8782
H20 H -0.0908 0.0573 1.0104
N1 N 0.12368(17) 0.18525(7) 0.8858(2)
N2 N 0.13817(19) 0.17831(7) 0.6525(2)
N3 N 0.1479(2) 0.32988(7) 0.6336(3)
N4 N 0.13729(19) 0.33647(7) 0.8306(2)
H21 H 0.1343 0.3480 0.8996
O4 O 0.13454(17) 0.08725(7) 0.9245(3)
F1 F 0.0978(2) 0.41728(6) 0.8777(2)
Fe1 Fe 0.14431(3) 0.128644(12) 0.78864(4)
C1A C 0.6703(2) 0.11973(8) 0.6783(3)
C2A C 0.5664(2) 0.11814(9) 0.6769(3)
H1A H 0.5156 0.1185 0.5828
C3A C 0.5515(3) 0.15657(9) 0.7477(4)
H2A H 0.6045 0.1577 0.8391
H3A H 0.5574 0.1810 0.7004
C4A C 0.5505(3) 0.07948(9) 0.7440(4)
H4A H 0.6056 0.0770 0.8335
H5A H 0.5529 0.0555 0.6921
O2A O 0.68569(16) 0.14378(7) 0.5969(2)
O3A O 0.74296(16) 0.09971(7) 0.7637(2)
O1D O 0.02324(17) -0.10490(7) 1.1257(2)
C24D C -0.0499(2) -0.08059(9) 1.0748(3)
C25D C -0.0381(3) -0.04200(10) 1.0053(4)
H16D H -0.0777 -0.0465 0.9082
C26D C -0.0812(4) -0.00530(12) 1.0403(6)
H17D H -0.1530 -0.0099 1.0135
H18D H -0.0491 -0.0018 1.1375
C27D C 0.0680(4) -0.03414(13) 1.0256(7)
H19D H 0.1110 -0.0327 1.1218
H20D H 0.0908 -0.0573 0.9896
O4D O -0.13454(17) -0.08725(7) 1.0755(3)
C5A C -0.1172(2) 0.18777(9) 0.4971(3)
H6A H -0.1138 0.1634 0.4541
C6A C -0.1152(2) 0.22510(10) 0.4361(3)
H7A H -0.1110 0.2254 0.3536
C7A C -0.1193(2) 0.26148(9) 0.4972(3)
H8A H -0.1181 0.2866 0.4570
C8A C -0.1253(2) 0.26011(8) 0.6215(3)
C9A C -0.1273(2) 0.22103(8) 0.6768(3)
C10A C -0.1347(2) 0.21720(8) 0.8048(3)
C11A C -0.1405(3) 0.17343(10) 0.9666(3)
H9A H -0.1429 0.1468 0.9965
C12A C -0.1394(3) 0.20615(10) 1.0482(4)
H10A H -0.1401 0.2013 1.1315
C13A C -0.1373(3) 0.24597(10) 1.0052(3)
H11A H -0.1365 0.2683 1.0591
C14A C -0.1365(2) 0.25223(9) 0.8792(3)
C15A C -0.1373(2) 0.29165(8) 0.8195(3)
C16A C -0.1319(2) 0.29501(9) 0.6971(3)
C17A C -0.1484(2) 0.35587(9) 0.7730(3)
C18A C -0.1623(3) 0.40072(9) 0.7796(3)
C19A C -0.2027(3) 0.41540(10) 0.8661(4)
H12A H -0.2209 0.3968 0.9167
C20A C -0.2159(3) 0.45742(12) 0.8775(5)
H13A H -0.2432 0.4668 0.9354
C21A C -0.1891(3) 0.48521(11) 0.8042(5)
H14A H -0.1979 0.5133 0.8127
C22A C -0.1491(3) 0.47160(11) 0.7175(4)
H15A H -0.1306 0.4902 0.6673
C23A C -0.1372(3) 0.42980(10) 0.7072(4)
N1A N -0.12368(17) 0.18525(7) 0.6142(2)
N2A N -0.13817(19) 0.17831(7) 0.8475(2)
N3A N -0.1479(2) 0.32988(7) 0.8664(3)
N4A N -0.13729(19) 0.33647(7) 0.6694(2)
H21A H -0.1343 0.3480 0.6004
F1A F -0.0978(2) 0.41728(6) 0.6223(2)
Fe1A Fe -0.14431(3) 0.128644(12) 0.71136(4)
O1A O 0.02324(17) 0.10490(7) 0.6257(2)
O2A_2 O -0.31431(16) 0.14378(7) 0.5969(2)
O3A_2 O -0.25704(16) 0.09971(7) 0.7637(2)
O4A O -0.13454(17) 0.08725(7) 0.5755(3)
Fe1A_2 Fe 0.85569(3) 0.128644(12) 0.71136(4)
Fe1D Fe -0.14431(3) -0.128644(12) 1.21136(4)
Fe1E Fe 0.14431(3) -0.128644(12) 1.28864(4)
loop_
_geom_bond_atom_site_label_1
_geom_bond_atom_site_label_2
_geom_bond_site_symmetry_1
_geom_bond_site_symmetry_2
C1 C2 1_555 1_555
C2 H1 1_555 1_555
C3 C2 1_555 1_555
H2 C3 1_555 1_555
H3 C3 1_555 1_555
C4 C2 1_555 1_555
H4 C4 1_555 1_555
H5 C4 1_555 1_555
O1 C24 1_555 1_555
O2 C1 1_555 1_555
O3 C1 1_555 1_555
C5 H6 1_555 1_555
C6 C5 1_555 1_555
H7 C6 1_555 1_555
C7 C6 1_555 1_555
H8 C7 1_555 1_555
C8 C7 1_555 1_555
C9 C8 1_555 1_555
C10 C9 1_555 1_555
C11 H9 1_555 1_555
C12 C11 1_555 1_555
H10 C12 1_555 1_555
C13 C12 1_555 1_555
H11 C13 1_555 1_555
C14 C10 1_555 1_555
C15 C14 1_555 1_555
C16 C8 1_555 1_555
C17 C18 1_555 1_555
C18 C19 1_555 1_555
C19 H12 1_555 1_555
C20 C19 1_555 1_555
H13 C20 1_555 1_555
C21 C20 1_555 1_555
H14 C21 1_555 1_555
C22 C21 1_555 1_555
H15 C22 1_555 1_555
C23 C18 1_555 1_555
C24 C25 1_555 1_555
C25 H16 1_555 1_555
C26 C25 1_555 1_555
H17 C26 1_555 1_555
H18 C26 1_555 1_555
C27 C25 1_555 1_555
H19 C27 1_555 1_555
H20 C27 1_555 1_555
N1 C5 1_555 1_555
N2 C10 1_555 1_555
N3 C15 1_555 1_555
N4 C16 1_555 1_555
H21 N4 1_555 1_555
O4 C24 1_555 1_555
F1 C23 1_555 1_555
Fe1 O2 1_555 1_555
C1A C2A 1_555 1_555
C2A H1A 1_555 1_555
C3A C3 1_555 1_555
H2A C3A 1_555 1_555
H3A C3A 1_555 1_555
C4A C4 1_555 1_555
H4A C4A 1_555 1_555
H5A C4A 1_555 1_555
O2A C1A 1_555 1_555
O3A C1A 1_555 1_555
O1D C24D 1_555 1_555
C24D C25D 1_555 1_555
C25D H16D 1_555 1_555
C26D C27 1_555 1_555
H17D C26D 1_555 1_555
H18D C26D 1_555 1_555
C27D C26 1_555 1_555
H19D C27D 1_555 1_555
H20D C27D 1_555 1_555
O4D C24D 1_555 1_555
C5A H6A 1_555 1_555
C6A C5A 1_555 1_555
H7A C6A 1_555 1_555
C7A C6A 1_555 1_555
H8A C7A 1_555 1_555
C8A C7A 1_555 1_555
C9A C8A 1_555 1_555
C10A C9A 1_555 1_555
C11A H9A 1_555 1_555
C12A C11A 1_555 1_555
H10A C12A 1_555 1_555
C13A C12A 1_555 1_555
H11A C13A 1_555 1_555
C14A C10A 1_555 1_555
C15A C14A 1_555 1_555
C16A C8A 1_555 1_555
C17A C18A 1_555 1_555
C18A C19A 1_555 1_555
C19A H12A 1_555 1_555
C20A C19A 1_555 1_555
H13A C20A 1_555 1_555
C21A C20A 1_555 1_555
H14A C21A 1_555 1_555
C22A C21A 1_555 1_555
H15A C22A 1_555 1_555
C23A C18A 1_555 1_555
N1A C5A 1_555 1_555
N2A C10A 1_555 1_555
N3A C15A 1_555 1_555
N4A C16A 1_555 1_555
H21A N4A 1_555 1_555
F1A C23A 1_555 1_555
Fe1A O1 1_555 1_555
O1A Fe1 1_555 1_555
O2A_2 Fe1A 1_555 1_555
O3A_2 Fe1A 1_555 1_555
O4A Fe1A 1_555 1_555
Fe1A_2 O2A 1_555 1_555
Fe1D O4D 1_555 1_555
Fe1E O1D 1_555 1_555
O3 Fe1 1_555 1_555
C9 N1 1_555 1_555
C11 N2 1_555 1_555
C13 C14 1_555 1_555
C15 C16 1_555 1_555
C17 N3 1_555 1_555
C17 N4 1_555 1_555
C22 C23 1_555 1_555
N1 Fe1 1_555 1_555
N2 Fe1 1_555 1_555
O4 Fe1 1_555 1_555
C2A C3A 1_555 1_555
C2A C4A 1_555 1_555
O3A Fe1A_2 1_555 1_555
C25D C26D 1_555 1_555
C25D C27D 1_555 1_555
C9A N1A 1_555 1_555
C11A N2A 1_555 1_555
C13A C14A 1_555 1_555
C15A C16A 1_555 1_555
C17A N3A 1_555 1_555
C17A N4A 1_555 1_555
C22A C23A 1_555 1_555
N1A Fe1A 1_555 1_555
N2A Fe1A 1_555 1_555

#END
