
#######################################################################
#
#                 Cambridge Crystallographic Data Centre
#                                CCDC 
#
#######################################################################
#
# If this CIF has been generated from an entry in the Cambridge 
# Structural Database, then it will include bibliographic, chemical, 
# crystal, experimental, refinement or atomic coordinate data resulting 
# from the CCDC's data processing and validation procedures.
#
#######################################################################

data_GIBROZ
_symmetry_cell_setting           triclinic
_symmetry_space_group_name_H-M   'P -1'
_symmetry_Int_Tables_number      2
_space_group_name_Hall           '-P 1'
loop_
_symmetry_equiv_pos_site_id
_symmetry_equiv_pos_as_xyz
1 x,y,z
2 -x,-y,-z
_cell_length_a                   6.876(2)
_cell_length_b                   10.4820(7)
_cell_length_c                   12.390(3)
_cell_angle_alpha                85.40(3)
_cell_angle_beta                 82.72(2)
_cell_angle_gamma                73.77(3)
_cell_volume                     849.559
loop_
_atom_site_label
_atom_site_type_symbol
_atom_site_fract_x
_atom_site_fract_y
_atom_site_fract_z
Cu1 Cu -0.22185(5) 0.23747(3) 0.29144(2)
O1 O -0.5734(4) 0.2944(2) 0.27164(19)
H1 H -0.640(7) 0.256(4) 0.259(3)
H2 H -0.576(7) 0.351(4) 0.234(4)
N1 N -0.2338(3) 0.0584(2) 0.35805(17)
N2 N -0.2462(4) 0.2739(2) 0.45074(18)
O2 O -0.1087(3) 0.16527(18) 0.14680(14)
O3 O 0.1669(3) 0.13570(19) 0.23080(14)
O4 O 1.1950(3) -0.41283(19) -0.24651(15)
O5 O 1.4368(3) -0.4718(2) -0.13457(16)
C1 C -0.2347(5) -0.0466(3) 0.3035(2)
H3 H -0.2281 -0.0386 0.2279
C2 C -0.2448(5) -0.1659(3) 0.3557(3)
H4 H -0.2469 -0.2368 0.3157
C3 C -0.2518(4) -0.1795(3) 0.4664(3)
H5 H -0.2571 -0.2599 0.5026
C4 C -0.2509(4) -0.0720(3) 0.5243(2)
H6 H -0.2542 -0.0793 0.5998
C5 C -0.2449(4) 0.0461(3) 0.4679(2)
C6 C -0.2511(4) 0.1698(3) 0.5204(2)
C7 C -0.2637(4) 0.1794(3) 0.6325(2)
H7 H -0.2672 0.1060 0.6793
C8 C -0.2708(5) 0.2997(4) 0.6730(2)
H8 H -0.2785 0.3083 0.7477
C9 C -0.2665(6) 0.4076(3) 0.6011(3)
H9 H -0.2740 0.4901 0.6266
C10 C -0.2506(5) 0.3899(3) 0.4911(2)
H10 H -0.2427 0.4613 0.4427
C11 C 0.0836(4) 0.1266(2) 0.14929(19)
C12 C 0.2116(4) 0.0651(3) 0.0476(2)
H11 H 0.1740 -0.0145 0.0347
H12 H 0.1785 0.1272 -0.0141
C13 C 0.4387(4) 0.0290(3) 0.0524(2)
H13 H 0.4733 -0.0354 0.1125
H14 H 0.4768 0.1079 0.0669
C14 C 1.2837(5) -0.4858(3) -0.1698(2)
C15 C 1.1885(5) -0.5934(3) -0.1184(2)
H15 H 1.0855 -0.6017 -0.1620
H16 H 1.2923 -0.6779 -0.1171
C16 C 1.0912(5) -0.5611(3) -0.0019(2)
H17 H 0.8075 -0.4535 -0.0399
H18 H 0.9519 -0.3632 -0.0320
Cu1A Cu 1.22185(5) -0.23747(3) -0.29144(2)
Cu1_2 Cu 0.77815(5) -0.76253(3) 0.29144(2)
O1A O 1.5734(4) -0.2944(2) -0.27164(19)
H1A H 1.640(7) -0.256(4) -0.259(3)
H2A H 1.576(7) -0.351(4) -0.234(4)
N1A N 1.2338(3) -0.0584(2) -0.35805(17)
N2A N 1.2462(4) -0.2739(2) -0.45074(18)
O2A O 1.1087(3) -0.16527(18) -0.14680(14)
O3A O 0.8331(3) -0.13570(19) -0.23080(14)
O4A O -0.1950(3) 0.41283(19) 0.24651(15)
O4A_2 O 0.8050(3) -0.58717(19) 0.24651(15)
O5A O 0.5632(3) -0.5282(2) 0.13457(16)
C1A C 1.2347(5) 0.0466(3) -0.3035(2)
H3A H 1.2281 0.0386 -0.2279
C2A C 1.2448(5) 0.1659(3) -0.3557(3)
H4A H 1.2469 0.2368 -0.3157
C3A C 1.2518(4) 0.1795(3) -0.4664(3)
H5A H 1.2571 0.2599 -0.5026
C4A C 1.2509(4) 0.0720(3) -0.5243(2)
H6A H 1.2542 0.0793 -0.5998
C5A C 1.2449(4) -0.0461(3) -0.4679(2)
C6A C 1.2511(4) -0.1698(3) -0.5204(2)
C7A C 1.2637(4) -0.1794(3) -0.6325(2)
H7A H 1.2672 -0.1060 -0.6793
C8A C 1.2708(5) -0.2997(4) -0.6730(2)
H8A H 1.2785 -0.3083 -0.7477
C9A C 1.2665(6) -0.4076(3) -0.6011(3)
H9A H 1.2740 -0.4901 -0.6266
C10A C 1.2506(5) -0.3899(3) -0.4911(2)
H10A H 1.2427 -0.4613 -0.4427
C11A C 0.9164(4) -0.1266(2) -0.14929(19)
C12A C 0.7884(4) -0.0651(3) -0.0476(2)
H11A H 0.8260 0.0145 -0.0347
H12A H 0.8215 -0.1272 0.0141
C13A C 0.5613(4) -0.0290(3) -0.0524(2)
H13A H 0.5267 0.0354 -0.1125
H14A H 0.5232 -0.1079 -0.0669
C14A C 0.7163(5) -0.5142(3) 0.1698(2)
C15A C 0.8115(5) -0.4066(3) 0.1184(2)
H15A H 0.9145 -0.3983 0.1620
H16A H 0.7077 -0.3221 0.1171
C16A C 0.9088(5) -0.4389(3) 0.0019(2)
H17A H 1.1925 -0.5465 0.0399
H18A H 1.0481 -0.6368 0.0320
O6 O -0.2865(5) 0.2779(3) -0.0599(2)
H19 H -0.261(7) 0.256(5) 0.000(4)
H20 H -0.371(8) 0.354(5) -0.059(4)
loop_
_geom_bond_atom_site_label_1
_geom_bond_atom_site_label_2
_geom_bond_site_symmetry_1
_geom_bond_site_symmetry_2
Cu1 O1 1_555 1_555
O1 H1 1_555 1_555
H2 O1 1_555 1_555
N1 Cu1 1_555 1_555
N2 Cu1 1_555 1_555
O2 Cu1 1_555 1_555
O3 C11 1_555 1_555
O4 C14 1_555 1_555
O5 C14 1_555 1_555
C1 N1 1_555 1_555
H3 C1 1_555 1_555
C2 C1 1_555 1_555
H4 C2 1_555 1_555
C3 C2 1_555 1_555
H5 C3 1_555 1_555
C4 C3 1_555 1_555
H6 C4 1_555 1_555
C5 N1 1_555 1_555
C6 N2 1_555 1_555
C7 C6 1_555 1_555
H7 C7 1_555 1_555
C8 C7 1_555 1_555
H8 C8 1_555 1_555
C9 C8 1_555 1_555
H9 C9 1_555 1_555
C10 N2 1_555 1_555
H10 C10 1_555 1_555
C11 O2 1_555 1_555
C12 C11 1_555 1_555
H11 C12 1_555 1_555
H12 C12 1_555 1_555
C13 C12 1_555 1_555
H13 C13 1_555 1_555
H14 C13 1_555 1_555
C14 C15 1_555 1_555
C15 H15 1_555 1_555
H16 C15 1_555 1_555
C16 C15 1_555 1_555
H17 C16A 1_555 1_555
H18 C16A 1_555 1_555
O6 H19 1_555 1_555
H20 O6 1_555 1_555
Cu1A O4 1_555 1_555
Cu1_2 O4A_2 1_555 1_555
O1A Cu1A 1_555 1_555
H1A O1A 1_555 1_555
H2A O1A 1_555 1_555
N1A Cu1A 1_555 1_555
N2A Cu1A 1_555 1_555
O2A Cu1A 1_555 1_555
O3A C11A 1_555 1_555
O4A Cu1 1_555 1_555
O4A_2 C14A 1_555 1_555
O5A C14A 1_555 1_555
C1A N1A 1_555 1_555
H3A C1A 1_555 1_555
C2A C1A 1_555 1_555
H4A C2A 1_555 1_555
C3A C2A 1_555 1_555
H5A C3A 1_555 1_555
C4A C3A 1_555 1_555
H6A C4A 1_555 1_555
C5A N1A 1_555 1_555
C6A N2A 1_555 1_555
C7A C6A 1_555 1_555
H7A C7A 1_555 1_555
C8A C7A 1_555 1_555
H8A C8A 1_555 1_555
C9A C8A 1_555 1_555
H9A C9A 1_555 1_555
C10A N2A 1_555 1_555
H10A C10A 1_555 1_555
C11A O2A 1_555 1_555
C12A C11A 1_555 1_555
H11A C12A 1_555 1_555
H12A C12A 1_555 1_555
C13A C13 1_555 1_555
H13A C13A 1_555 1_555
H14A C13A 1_555 1_555
C14A C15A 1_555 1_555
C15A H15A 1_555 1_555
H16A C15A 1_555 1_555
C16A C16 1_555 1_555
H17A C16 1_555 1_555
H18A C16 1_555 1_555
C4 C5 1_555 1_555
C5 C6 1_555 1_555
C9 C10 1_555 1_555
C4A C5A 1_555 1_555
C5A C6A 1_555 1_555
C9A C10A 1_555 1_555
C12A C13A 1_555 1_555
C15A C16A 1_555 1_555

#END
