
#######################################################################
#
#                 Cambridge Crystallographic Data Centre
#                                CCDC 
#
#######################################################################
#
# If this CIF has been generated from an entry in the Cambridge 
# Structural Database, then it will include bibliographic, chemical, 
# crystal, experimental, refinement or atomic coordinate data resulting 
# from the CCDC's data processing and validation procedures.
#
#######################################################################

data_GIBRUF01
_symmetry_cell_setting           monoclinic
_symmetry_space_group_name_H-M   'P 21/c'
_symmetry_Int_Tables_number      14
_space_group_name_Hall           '-P 2ybc'
loop_
_symmetry_equiv_pos_site_id
_symmetry_equiv_pos_as_xyz
1 x,y,z
2 -x,1/2+y,1/2-z
3 -x,-y,-z
4 x,1/2-y,1/2+z
_cell_length_a                   15.032(3)
_cell_length_b                   11.726(2)
_cell_length_c                   18.443(4)
_cell_angle_alpha                90
_cell_angle_beta                 95.47(3)
_cell_angle_gamma                90
_cell_volume                     3236.06
loop_
_atom_site_label
_atom_site_type_symbol
_atom_site_fract_x
_atom_site_fract_y
_atom_site_fract_z
Cu1 Cu 0.25403(3) 0.40206(4) 0.07754(2)
Cu2 Cu 0.41055(3) 0.41223(4) -0.00936(2)
N1 N 0.1759(2) 0.5246(3) 0.03210(17)
N2 N 0.1873(2) 0.3100(3) -0.00055(17)
C1 C 0.1728(3) 0.6337(4) 0.0545(3)
H1 H 0.2090 0.6559 0.0958
C2 C 0.1182(4) 0.7130(5) 0.0185(3)
H2 H 0.1169 0.7877 0.0352
C3 C 0.0649(4) 0.6800(5) -0.0431(3)
H3 H 0.0281 0.7329 -0.0688
C4 C 0.0666(3) 0.5689(4) -0.0663(3)
H4 H 0.0303 0.5454 -0.1072
C5 C 0.1233(3) 0.4922(4) -0.0278(2)
C6 C 0.1292(3) 0.3701(4) -0.0455(2)
C7 C 0.0794(3) 0.3176(5) -0.1033(2)
H5 H 0.0401 0.3598 -0.1347
C8 C 0.0888(3) 0.2024(5) -0.1135(3)
H6 H 0.0561 0.1662 -0.1522
C9 C 0.1466(4) 0.1406(5) -0.0664(3)
H7 H 0.1526 0.0622 -0.0720
C10 C 0.1953(3) 0.1975(4) -0.0107(2)
H8 H 0.2351 0.1564 0.0210
N3 N 0.3397(2) 0.5077(3) -0.08232(15)
N4 N 0.3750(2) 0.2901(3) -0.08035(15)
C11 C 0.3227(3) 0.6203(3) -0.0772(2)
H9 H 0.3482 0.6602 -0.0368
C12 C 0.2695(3) 0.6778(4) -0.1291(3)
H10 H 0.2578 0.7550 -0.1237
C13 C 0.2334(4) 0.6191(5) -0.1897(3)
H11 H 0.1981 0.6569 -0.2263
C14 C 0.2501(3) 0.5038(4) -0.1958(2)
H12 H 0.2259 0.4634 -0.2364
C15 C 0.3028(3) 0.4489(4) -0.14128(19)
C16 C 0.3239(3) 0.3262(3) -0.14068(18)
C17 C 0.2969(3) 0.2524(4) -0.1964(2)
H13 H 0.2626 0.2784 -0.2376
C18 C 0.3216(4) 0.1393(4) -0.1902(3)
H14 H 0.3039 0.0882 -0.2274
C19 C 0.3727(4) 0.1024(4) -0.1285(3)
H15 H 0.3891 0.0262 -0.1232
C20 C 0.3990(3) 0.1808(3) -0.0748(2)
H16 H 0.4344 0.1566 -0.0335
O1 O 0.1618(3) 0.3604(4) 0.1604(2)
H17 H 0.1564 0.2910 0.1620
H18 H 0.1126 0.3912 0.1656
O2 O 0.3301(2) 0.2765(3) 0.11504(16)
O3 O 0.4582(2) 0.3077(2) 0.06541(14)
C21 C 0.4122(3) 0.2614(3) 0.11136(19)
C22 C 0.4621(3) 0.1838(4) 0.1666(2)
H19 H 0.4889 0.1220 0.1414
H20 H 0.4203 0.1509 0.1976
C23 C 0.5343(3) 0.2471(4) 0.2131(2)
H21 H 0.5067 0.3047 0.2413
H22 H 0.5727 0.2857 0.1816
O4 O 0.66467(18) 0.0106(3) 0.36957(14)
O5 O 0.55603(19) 0.0393(2) 0.44307(13)
C24 C 0.5921(3) 0.0536(3) 0.38352(19)
C25 C 0.5413(3) 0.1274(4) 0.3265(2)
H23 H 0.4899 0.0845 0.3057
H24 H 0.5189 0.1934 0.3508
C26 C 0.5917(3) 0.1689(5) 0.2653(2)
H25 H 0.6113 0.1039 0.2384
H26 H 0.6444 0.2102 0.2852
Cu1A Cu 0.74597(3) -0.09794(4) 0.42246(2)
Cu2C Cu 0.41055(3) 0.08777(4) 0.49064(2)
Cu2A Cu 0.58945(3) -0.08777(4) 0.50936(2)
O4A O 0.33533(18) 0.5106(3) 0.13043(14)
O5C O 0.55603(19) 0.4607(2) -0.05693(13)
O5A O 0.44397(19) 0.5393(2) 0.05693(13)
Cl1 Cl 0.32807(14) 0.91457(13) 0.06945(15)
O6 O 0.2347(12) 0.9467(15) 0.0802(10)
O8 O 0.3736(10) 0.9230(12) 0.1555(8)
O10 O 0.3818(7) 0.9954(6) 0.0483(4)
O11 O 0.3450(5) 0.8028(4) 0.0643(4)
Cl2 Cl 0.08641(12) 0.59869(12) 0.27513(8)
O13 O 0.1817(16) 0.5978(17) 0.2545(14)
O14 O 0.0426(6) 0.7079(8) 0.2665(5)
O16 O 0.0439(5) 0.5119(5) 0.2351(4)
O17 O 0.1101(12) 0.6064(12) 0.3452(8)
O19 O 0.1375(4) 0.1232(5) 0.1554(3)
H27 H 0.0877 0.1212 0.1430
H28 H 0.1814 0.0770 0.1488
O7? O 0.2776(10) 0.9154(11) -0.0112(8)
O9? O 0.2690(17) 0.941(2) 0.1149(13)
O12? O 0.1764(8) 0.5767(10) 0.3016(8)
O15? O 0.0786(8) 0.6998(10) 0.2350(7)
O18? O 0.0451(9) 0.5793(9) 0.3460(6)
loop_
_geom_bond_atom_site_label_1
_geom_bond_atom_site_label_2
_geom_bond_site_symmetry_1
_geom_bond_site_symmetry_2
Cu1 N1 1_555 1_555
Cu2 N3 1_555 1_555
N1 C1 1_555 1_555
N2 Cu1 1_555 1_555
C1 H1 1_555 1_555
C2 C1 1_555 1_555
H2 C2 1_555 1_555
C3 C2 1_555 1_555
H3 C3 1_555 1_555
C4 C3 1_555 1_555
H4 C4 1_555 1_555
C5 N1 1_555 1_555
C6 N2 1_555 1_555
C7 C6 1_555 1_555
H5 C7 1_555 1_555
C8 C7 1_555 1_555
H6 C8 1_555 1_555
C9 C8 1_555 1_555
H7 C9 1_555 1_555
C10 N2 1_555 1_555
H8 C10 1_555 1_555
N3 C11 1_555 1_555
N4 Cu2 1_555 1_555
C11 H9 1_555 1_555
C12 C11 1_555 1_555
H10 C12 1_555 1_555
C13 C12 1_555 1_555
H11 C13 1_555 1_555
C14 C13 1_555 1_555
H12 C14 1_555 1_555
C15 N3 1_555 1_555
C16 N4 1_555 1_555
C17 C16 1_555 1_555
H13 C17 1_555 1_555
C18 C17 1_555 1_555
H14 C18 1_555 1_555
C19 C18 1_555 1_555
H15 C19 1_555 1_555
C20 N4 1_555 1_555
H16 C20 1_555 1_555
O1 Cu1 1_555 1_555
H17 O1 1_555 1_555
H18 O1 1_555 1_555
O2 Cu1 1_555 1_555
O3 Cu2 1_555 1_555
C21 O2 1_555 1_555
C22 C21 1_555 1_555
H19 C22 1_555 1_555
H20 C22 1_555 1_555
C23 C22 1_555 1_555
H21 C23 1_555 1_555
H22 C23 1_555 1_555
O4 C24 1_555 1_555
O5 C24 1_555 1_555
C24 C25 1_555 1_555
C25 H23 1_555 1_555
H24 C25 1_555 1_555
C26 C23 1_555 1_555
H25 C26 1_555 1_555
H26 C26 1_555 1_555
Cl1 O6 1_555 1_555
O8 Cl1 1_555 1_555
O10 Cl1 1_555 1_555
O11 Cl1 1_555 1_555
Cl2 O13 1_555 1_555
O14 Cl2 1_555 1_555
O16 Cl2 1_555 1_555
O17 Cl2 1_555 1_555
O19 H27 1_555 1_555
H28 O19 1_555 1_555
Cu1A O4 1_555 1_555
Cu2C O5 1_555 1_555
Cu2A O5 1_555 1_555
O4A Cu1 1_555 1_555
O5C Cu2 1_555 1_555
O5A Cu2 1_555 1_555
C4 C5 1_555 1_555
C5 C6 1_555 1_555
C9 C10 1_555 1_555
C14 C15 1_555 1_555
C15 C16 1_555 1_555
C19 C20 1_555 1_555
O3 C21 1_555 1_555
C25 C26 1_555 1_555

#END
