
#######################################################################
#
#                 Cambridge Crystallographic Data Centre
#                                CCDC 
#
#######################################################################
#
# If this CIF has been generated from an entry in the Cambridge 
# Structural Database, then it will include bibliographic, chemical, 
# crystal, experimental, refinement or atomic coordinate data resulting 
# from the CCDC's data processing and validation procedures.
#
#######################################################################

data_GIBRUF
_symmetry_cell_setting           monoclinic
_symmetry_space_group_name_H-M   'P 21/c'
_symmetry_Int_Tables_number      14
_space_group_name_Hall           '-P 2ybc'
loop_
_symmetry_equiv_pos_site_id
_symmetry_equiv_pos_as_xyz
1 x,y,z
2 -x,1/2+y,1/2-z
3 -x,-y,-z
4 x,1/2-y,1/2+z
_cell_length_a                   15.010(3)
_cell_length_b                   11.733(1)
_cell_length_c                   18.454(3)
_cell_angle_alpha                90
_cell_angle_beta                 95.374(2)
_cell_angle_gamma                90
_cell_volume                     3235.69
loop_
_atom_site_label
_atom_site_type_symbol
_atom_site_fract_x
_atom_site_fract_y
_atom_site_fract_z
Cu1 Cu 0.25395(5) 0.09764(8) 0.57771(4)
Cu2 Cu 0.58951(5) -0.41223(7) 1.00929(4)
O1 O 0.5423(3) -0.3079(4) 0.9347(2)
O2 O 0.4437(3) -0.0383(3) 0.5570(2)
O3 O 0.3361(3) -0.0105(4) 0.6305(2)
O4 O 0.6688(3) -0.2771(4) 0.8850(2)
O5 O 0.1608(3) 0.1375(4) 0.6586(2)
H1 H 0.1605 0.1142 0.7033
H2 H 0.1439 0.2088 0.6604
N1 N 0.1872(4) 0.1898(5) 0.4995(3)
N2 N 0.1763(4) -0.0237(5) 0.5314(3)
N3 N 0.6598(3) -0.5083(4) 1.0823(3)
N4 N 0.6250(3) -0.2909(4) 1.0803(3)
C1 C 0.1954(5) 0.3013(6) 0.4891(4)
H3 H 0.2355 0.3428 0.5203
C2 C 0.1456(5) 0.3569(6) 0.4330(4)
H4 H 0.1512 0.4353 0.4274
C3 C 0.0879(5) 0.2959(7) 0.3857(4)
H5 H 0.0548 0.3315 0.3470
C4 C 0.0804(5) 0.1832(7) 0.3969(4)
H6 H 0.0420 0.1404 0.3651
C5 C 0.1286(5) 0.1299(6) 0.4546(4)
C6 C 0.1219(5) 0.0095(6) 0.4719(4)
C7 C 0.0656(5) -0.0666(7) 0.4340(4)
H7 H 0.0288 -0.0431 0.3934
C8 C 0.0643(5) -0.1786(8) 0.4572(4)
H8 H 0.0277 -0.2315 0.4314
C9 C 0.1180(5) -0.2123(6) 0.5193(5)
H9 H 0.1161 -0.2865 0.5369
C10 C 0.1735(5) -0.1322(7) 0.5535(4)
H10 H 0.2111 -0.1543 0.5940
C11 C 0.6017(4) -0.1834(6) 1.0747(3)
H11 H 0.5668 -0.1595 1.0332
C12 C 0.6271(5) -0.1040(7) 1.1282(4)
H12 H 0.6098 -0.0281 1.1229
C13 C 0.6785(5) -0.1405(7) 1.1898(4)
H13 H 0.6969 -0.0893 1.2267
C14 C 0.7018(5) -0.2518(6) 1.1955(3)
H14 H 0.7357 -0.2778 1.2370
C15 C 0.6753(4) -0.3267(6) 1.1401(3)
C16 C 0.6978(4) -0.4490(6) 1.1402(3)
C17 C 0.7488(5) -0.5039(6) 1.1951(3)
H15 H 0.7715 -0.4640 1.2363
C18 C 0.7662(5) -0.6179(7) 1.1888(4)
H16 H 0.8024 -0.6554 1.2249
C19 C 0.7303(5) -0.6753(6) 1.1297(4)
H17 H 0.7416 -0.7527 1.1246
C20 C 0.6774(5) -0.6184(6) 1.0774(3)
H18 H 0.6529 -0.6584 1.0369
C21 C 0.5882(5) -0.2608(5) 0.8891(4)
C22 C 0.5382(4) -0.1821(5) 0.8337(3)
H19 H 0.5119 -0.1200 0.8591
H20 H 0.5802 -0.1497 0.8025
C23 C 0.4652(4) -0.2445(6) 0.7873(3)
H21 H 0.4267 -0.2826 0.8191
H22 H 0.4926 -0.3026 0.7593
C24 C 0.4076(4) -0.1669(6) 0.7348(3)
H23 H 0.3549 -0.2084 0.7152
H24 H 0.3879 -0.1016 0.7613
C25 C 0.4587(4) -0.1260(5) 0.6729(3)
H25 H 0.5100 -0.0827 0.6935
H26 H 0.4814 -0.1924 0.6492
C26 C 0.4082(5) -0.0541(5) 0.6158(4)
Cu1A Cu 0.74605(5) -0.40236(8) 0.92229(4)
Cu2A Cu 0.41049(5) 0.08777(7) 0.49071(4)
Cu2C Cu 0.58951(5) -0.08777(7) 0.50929(4)
O2C O 0.4437(3) -0.4617(3) 1.0570(2)
O2A O 0.5563(3) -0.5383(3) 0.9430(2)
O4A O 0.3312(3) 0.2229(4) 0.6150(2)
Cl1 Cl 0.08592(18) 0.5986(2) 0.27519(13)
O6 O 0.0577(6) 0.7028(5) 0.2532(4)
O7 O 0.0413(5) 0.5143(6) 0.2383(4)
O8 O 0.1760(6) 0.5824(8) 0.2879(6)
O9 O 0.0637(8) 0.5884(7) 0.3454(5)
Cl2 Cl 0.3282(2) 0.5856(3) 0.56917(19)
O10 O 0.2622(9) 0.5684(12) 0.5292(14)
O11 O 0.3805(6) 0.5046(6) 0.5487(4)
O12 O 0.3156(18) 0.5677(11) 0.6306(8)
O13 O 0.3430(5) 0.6969(5) 0.5646(4)
O14 O 0.1389(4) 0.1225(5) 0.1538(3)
H27 H 0.1051 0.0632 0.1323
H28 H 0.1041 0.1563 0.1851
loop_
_geom_bond_atom_site_label_1
_geom_bond_atom_site_label_2
_geom_bond_site_symmetry_1
_geom_bond_site_symmetry_2
Cu1 O3 1_555 1_555
Cu2 O1 1_555 1_555
O1 C21 1_555 1_555
O2 C26 1_555 1_555
O3 C26 1_555 1_555
O4 C21 1_555 1_555
O5 Cu1 1_555 1_555
H1 O5 1_555 1_555
H2 O5 1_555 1_555
N1 Cu1 1_555 1_555
N2 Cu1 1_555 1_555
N3 Cu2 1_555 1_555
N4 Cu2 1_555 1_555
C1 N1 1_555 1_555
H3 C1 1_555 1_555
C2 C1 1_555 1_555
H4 C2 1_555 1_555
C3 C2 1_555 1_555
H5 C3 1_555 1_555
C4 C3 1_555 1_555
H6 C4 1_555 1_555
C5 N1 1_555 1_555
C6 N2 1_555 1_555
C7 C6 1_555 1_555
H7 C7 1_555 1_555
C8 C7 1_555 1_555
H8 C8 1_555 1_555
C9 C8 1_555 1_555
H9 C9 1_555 1_555
C10 N2 1_555 1_555
H10 C10 1_555 1_555
C11 N4 1_555 1_555
H11 C11 1_555 1_555
C12 C11 1_555 1_555
H12 C12 1_555 1_555
C13 C12 1_555 1_555
H13 C13 1_555 1_555
C14 C13 1_555 1_555
H14 C14 1_555 1_555
C15 N4 1_555 1_555
C16 N3 1_555 1_555
C17 C16 1_555 1_555
H15 C17 1_555 1_555
C18 C17 1_555 1_555
H16 C18 1_555 1_555
C19 C18 1_555 1_555
H17 C19 1_555 1_555
C20 N3 1_555 1_555
H18 C20 1_555 1_555
C21 C22 1_555 1_555
C22 H19 1_555 1_555
H20 C22 1_555 1_555
C23 C22 1_555 1_555
H21 C23 1_555 1_555
H22 C23 1_555 1_555
C24 C23 1_555 1_555
H23 C24 1_555 1_555
H24 C24 1_555 1_555
C25 C24 1_555 1_555
H25 C25 1_555 1_555
H26 C25 1_555 1_555
C26 C25 1_555 1_555
Cl1 O6 1_555 1_555
O7 Cl1 1_555 1_555
O8 Cl1 1_555 1_555
O9 Cl1 1_555 1_555
Cl2 O10 1_555 1_555
O11 Cl2 1_555 1_555
O12 Cl2 1_555 1_555
O13 Cl2 1_555 1_555
O14 H27 1_555 1_555
H28 O14 1_555 1_555
Cu1A O4 1_555 1_555
Cu2A O2 1_555 1_555
Cu2C O2 1_555 1_555
O2C Cu2 1_555 1_555
O2A Cu2 1_555 1_555
O4A Cu1 1_555 1_555
C4 C5 1_555 1_555
C5 C6 1_555 1_555
C9 C10 1_555 1_555
C14 C15 1_555 1_555
C15 C16 1_555 1_555
C19 C20 1_555 1_555

#END
