
#######################################################################
#
#                 Cambridge Crystallographic Data Centre
#                                CCDC 
#
#######################################################################
#
# If this CIF has been generated from an entry in the Cambridge 
# Structural Database, then it will include bibliographic, chemical, 
# crystal, experimental, refinement or atomic coordinate data resulting 
# from the CCDC's data processing and validation procedures.
#
#######################################################################

data_GIBSUG
_symmetry_cell_setting           monoclinic
_symmetry_space_group_name_H-M   'P 21/m'
_symmetry_Int_Tables_number      11
_space_group_name_Hall           '-P 2yb'
loop_
_symmetry_equiv_pos_site_id
_symmetry_equiv_pos_as_xyz
1 x,y,z
2 -x,1/2+y,-z
3 -x,-y,-z
4 x,1/2-y,z
_cell_length_a                   10.177(7)
_cell_length_b                   11.416(12)
_cell_length_c                   11.033(3)
_cell_angle_alpha                90
_cell_angle_beta                 110.72(5)
_cell_angle_gamma                90
_cell_volume                     1198.91
loop_
_atom_site_label
_atom_site_type_symbol
_atom_site_fract_x
_atom_site_fract_y
_atom_site_fract_z
N5 N 0.9513(16) 0.0435(11) -0.1016(12)
O4 O 0.908(2) 0.097(2) -0.2073(16)
O5 O 0.9166(16) 0.0946(14) -0.0173(14)
O6 O 1.0123(16) -0.0530(11) -0.0719(16)
N5B N 1.0487(16) -0.0435(11) 0.1016(12)
O4B O 1.092(2) -0.097(2) 0.2073(16)
O5B O 1.0834(16) -0.0946(14) 0.0173(14)
O6B O 0.9877(16) 0.0530(11) 0.0719(16)
C11 C 0.811(2) 0.7500 0.344(2)
O8 O 0.9553(15) 0.7500 0.3375(14)
K1 K 0.7011(3) 0.2500 -0.1865(3)
Cu1 Cu 0.5000 0.0000 0.0000
Cu2 Cu 0.5000 0.0000 -0.5000
N1 N 0.3741(8) -0.0307(6) -0.1827(7)
C1 C 0.4419(10) -0.0067(7) -0.2687(8)
N2 N 0.3765(8) -0.0349(6) -0.3981(7)
C2 C 0.2477(10) -0.0786(9) -0.4379(9)
H1 H 0.2052 -0.0970 -0.5252
C3 C 0.1732(9) -0.0986(10) -0.3574(9)
H2 H 0.0814 -0.1265 -0.3879
C4 C 0.2446(10) -0.0741(9) -0.2276(9)
H3 H 0.1997 -0.0888 -0.1690
O1 O 0.5606(7) 0.0385(6) -0.2309(6)
N3 N 0.3913(8) 0.1462(6) -0.5666(7)
C5 C 0.4614(12) 0.2500 -0.5205(11)
C6 C 0.2593(10) 0.1483(8) -0.6508(9)
H4 H 0.2155 0.0773 -0.6820
C7 C 0.1850(14) 0.2500 -0.6937(13)
H5 H 0.0912 0.2500 -0.7479
O2 O 0.5831(9) 0.2500 -0.4425(8)
N4 N 0.3984(7) 0.1467(6) 0.0046(6)
C8 C 0.4666(11) 0.2500 0.0019(10)
C9 C 0.2699(8) 0.1495(7) 0.0105(8)
H6 H 0.2254 0.0788 0.0128
C10 C 0.2015(13) 0.2500 0.0132(13)
H7 H 0.1116 0.2500 0.0167
O3 O 0.5867(9) 0.2500 -0.0041(9)
Cu1C Cu 0.5000 0.5000 0.0000
Cu2C Cu 0.5000 0.5000 -0.5000
N1C N 0.3741(8) 0.5307(6) -0.1827(7)
N1B N 0.6259(8) 0.0307(6) 0.1827(7)
C1C C 0.4419(10) 0.5067(7) -0.2687(8)
N2C N 0.3765(8) 0.5349(6) -0.3981(7)
N2B N 0.6235(8) 0.0349(6) -0.6019(7)
C2C C 0.2477(10) 0.5786(9) -0.4379(9)
H1C H 0.2052 0.5970 -0.5252
C3C C 0.1732(9) 0.5986(10) -0.3574(9)
H2C H 0.0814 0.6265 -0.3879
C4C C 0.2446(10) 0.5741(9) -0.2276(9)
H3C H 0.1997 0.5888 -0.1690
O1C O 0.5606(7) 0.4615(6) -0.2309(6)
N3C N 0.3913(8) 0.3538(6) -0.5666(7)
N3B N 0.6087(8) -0.1462(6) -0.4334(7)
C6C C 0.2593(10) 0.3517(8) -0.6508(9)
H4C H 0.2155 0.4227 -0.6820
N4C N 0.3984(7) 0.3533(6) 0.0046(6)
N4B N 0.6016(7) -0.1467(6) -0.0046(6)
C9C C 0.2699(8) 0.3505(7) 0.0105(8)
H6C H 0.2254 0.4212 0.0128
O7? O 0.933(2) 0.084(2) -0.214(2)
loop_
_geom_bond_atom_site_label_1
_geom_bond_atom_site_label_2
_geom_bond_site_symmetry_1
_geom_bond_site_symmetry_2
K1 O1 1_555 1_555
Cu1 N1 1_555 1_555
Cu2 N2 1_555 1_555
N1 C1 1_555 1_555
C1 N2 1_555 1_555
N2 C2 1_555 1_555
C2 H1 1_555 1_555
C3 C2 1_555 1_555
H2 C3 1_555 1_555
C4 N1 1_555 1_555
H3 C4 1_555 1_555
O1 C1 1_555 1_555
N3 Cu2 1_555 1_555
C5 N3 1_555 1_555
C6 N3 1_555 1_555
H4 C6 1_555 1_555
C7 C6 1_555 1_555
H5 C7 1_555 1_555
O2 K1 1_555 1_555
N4 Cu1 1_555 1_555
C8 N4 1_555 1_555
C9 N4 1_555 1_555
H6 C9 1_555 1_555
C10 C9 1_555 1_555
H7 C10 1_555 1_555
O3 K1 1_555 1_555
N5 O4 1_555 1_555
O5 N5 1_555 1_555
O6 N5 1_555 1_555
C11 O8 1_555 1_555
Cu1C N1C 1_555 1_555
Cu2C N2C 1_555 1_555
N1C C1C 1_555 1_555
N1B Cu1 1_555 1_555
C1C N2C 1_555 1_555
N2C C2C 1_555 1_555
N2B Cu2 1_555 1_555
C2C H1C 1_555 1_555
C3C C2C 1_555 1_555
H2C C3C 1_555 1_555
C4C N1C 1_555 1_555
H3C C4C 1_555 1_555
O1C K1 1_555 1_555
N3C C5 1_555 1_555
N3B Cu2 1_555 1_555
C6C C7 1_555 1_555
H4C C6C 1_555 1_555
N4C C8 1_555 1_555
N4B Cu1 1_555 1_555
C9C C10 1_555 1_555
H6C C9C 1_555 1_555
N5B O4B 1_555 1_555
O5B O6 1_555 1_555
O6B O5 1_555 1_555
C3 C4 1_555 1_555
C5 O2 1_555 1_555
C8 O3 1_555 1_555
Cu1C N4C 1_555 1_555
Cu2C N3C 1_555 1_555
C1C O1C 1_555 1_555
C3C C4C 1_555 1_555
N3C C6C 1_555 1_555
N4C C9C 1_555 1_555
N5B O5B 1_555 1_555
N5B O6B 1_555 1_555

#END
