
#######################################################################
#
#                 Cambridge Crystallographic Data Centre
#                                CCDC 
#
#######################################################################
#
# If this CIF has been generated from an entry in the Cambridge 
# Structural Database, then it will include bibliographic, chemical, 
# crystal, experimental, refinement or atomic coordinate data resulting 
# from the CCDC's data processing and validation procedures.
#
#######################################################################

data_GIBSAM
_symmetry_cell_setting           monoclinic
_symmetry_space_group_name_H-M   'C 2'
_symmetry_Int_Tables_number      5
_space_group_name_Hall           'C 2y'
loop_
_symmetry_equiv_pos_site_id
_symmetry_equiv_pos_as_xyz
1 x,y,z
2 -x,y,-z
3 1/2+x,1/2+y,z
4 1/2-x,1/2+y,-z
_cell_length_a                   12.122(3)
_cell_length_b                   14.368(3)
_cell_length_c                   21.533(4)
_cell_angle_alpha                90
_cell_angle_beta                 100.20(3)
_cell_angle_gamma                90
_cell_volume                     3691.11
loop_
_atom_site_label
_atom_site_type_symbol
_atom_site_fract_x
_atom_site_fract_y
_atom_site_fract_z
Cu1 Cu -0.39413(5) 0.02319(4) 0.47268(3)
N1 N -0.3147(4) -0.0772(3) 0.5262(2)
N2 N -0.4480(4) -0.0867(3) 0.4181(2)
C1 C -0.2466(4) -0.0652(4) 0.5808(2)
H1 H -0.2328 -0.0053 0.5966
C2 C -0.1953(5) -0.1405(5) 0.6151(3)
H2 H -0.1487 -0.1306 0.6537
C3 C -0.2133(5) -0.2296(4) 0.5920(3)
H3 H -0.1799 -0.2806 0.6144
C4 C -0.2818(5) -0.2404(4) 0.5350(3)
H4 H -0.2942 -0.2996 0.5178
C5 C -0.3332(4) -0.1647(4) 0.5025(2)
C6 C -0.4080(5) -0.1693(4) 0.4400(2)
C7 C -0.4332(5) -0.2498(4) 0.4056(3)
H5 H -0.4020 -0.3063 0.4210
C8 C -0.5046(6) -0.2461(6) 0.3485(3)
H6 H -0.5241 -0.3000 0.3253
C9 C -0.5464(6) -0.1621(6) 0.3265(3)
H7 H -0.5939 -0.1581 0.2876
C10 C -0.5184(5) -0.0835(5) 0.3616(2)
H8 H -0.5483 -0.0266 0.3464
O1 O -0.5127(3) 0.1111(3) 0.58134(15)
O2 O -0.3592(3) 0.1190(3) 0.53828(15)
O3 O -0.2452(3) 0.5358(3) 0.58430(14)
O4 O -0.3978(3) 0.5426(3) 0.51097(14)
C21 C -0.4190(4) 0.1448(3) 0.5769(2)
C22 C -0.3763(4) 0.2229(4) 0.6213(2)
H17 H -0.2955 0.2182 0.6328
H18 H -0.4077 0.2168 0.6595
C23 C -0.4072(4) 0.3195(3) 0.59180(19)
H19 H -0.3656 0.3302 0.5579
H20 H -0.4865 0.3209 0.5740
C24 C -0.3806(4) 0.3958(4) 0.6406(2)
H21 H -0.3005 0.3957 0.6565
H22 H -0.4180 0.3817 0.6758
C25 C -0.4152(4) 0.4935(4) 0.6164(2)
H23 H -0.4939 0.4932 0.5973
H24 H -0.4056 0.5366 0.6516
C26 C -0.3465(4) 0.5266(4) 0.56837(19)
Cu1A Cu -0.60587(5) 0.02319(4) 0.52732(3)
Cu1C Cu -0.10587(5) 0.52319(4) 0.52732(3)
O1A O -0.4873(3) 0.1111(3) 0.41866(15)
O3C O -0.2548(3) 0.0358(3) 0.41570(14)
Cu2 Cu -0.11043(5) 0.11526(4) 0.02176(3)
N3 N -0.0637(3) 0.2318(3) 0.07096(17)
N4 N -0.1924(3) 0.2097(3) -0.03830(18)
C11 C -0.0015(4) 0.2343(4) 0.1287(2)
H9 H 0.0299 0.1795 0.1468
C12 C 0.0174(5) 0.3173(4) 0.1625(2)
H10 H 0.0630 0.3187 0.2020
C13 C -0.0331(5) 0.3973(4) 0.1358(3)
H11 H -0.0228 0.4531 0.1579
C14 C -0.0982(5) 0.3951(4) 0.0770(2)
H12 H -0.1323 0.4489 0.0588
C15 C -0.1119(4) 0.3106(3) 0.0453(2)
C16 C -0.1825(4) 0.2977(4) -0.0180(2)
C17 C -0.2313(5) 0.3704(4) -0.0547(3)
H13 H -0.2219 0.4315 -0.0405
C18 C -0.2944(5) 0.3507(5) -0.1129(3)
H14 H -0.3294 0.3987 -0.1380
C19 C -0.3056(4) 0.2599(5) -0.1342(2)
H15 H -0.3458 0.2461 -0.1741
C20 C -0.2562(4) 0.1902(5) -0.0952(2)
H16 H -0.2667 0.1286 -0.1080
O5 O 0.0151(3) 0.0333(3) -0.08155(15)
O6 O -0.1395(3) 0.0142(3) -0.03908(15)
O7 O -0.2569(2) -0.3975(3) -0.08108(13)
O8 O -0.1033(3) -0.4057(3) -0.01024(14)
C27 C -0.0755(4) -0.0072(3) -0.07686(19)
C28 C -0.1113(4) -0.0869(4) -0.1220(2)
H25 H -0.0709 -0.0828 -0.1569
H26 H -0.1906 -0.0807 -0.1389
C29 C -0.0905(4) -0.1821(3) -0.09138(19)
H27 H -0.0122 -0.1879 -0.0722
H28 H -0.1352 -0.1889 -0.0585
C30 C -0.1214(4) -0.2578(3) -0.14059(19)
H29 H -0.0852 -0.2447 -0.1764
H30 H -0.2017 -0.2567 -0.1554
C31 C -0.0866(4) -0.3562(3) -0.1150(2)
H31 H -0.0973 -0.4001 -0.1498
H32 H -0.0076 -0.3559 -0.0965
C32 C -0.1540(3) -0.3874(4) -0.06601(18)
Cu2A Cu 0.11043(5) 0.11526(4) -0.02176(3)
Cu2C Cu -0.38957(5) -0.38474(4) -0.02176(3)
O5A O -0.0151(3) 0.0333(3) 0.08155(15)
O7C O -0.2431(2) 0.1025(3) 0.08108(13)
B1 B -0.8376(7) 0.0625(8) 0.2667(3)
F1 F -0.8476(6) 0.0949(5) 0.3258(3)
F2 F -0.7447(4) 0.0147(6) 0.2783(3)
F3 F -0.8324(6) 0.1097(9) 0.2165(4)
F4 F -0.9323(4) 0.0048(6) 0.2567(3)
O9 O -0.3433(5) 0.0602(8) 0.2828(2)
H33 H -0.304(5) 0.079(15) 0.3240(17)
H34 H -0.287(3) 0.049(17) 0.260(2)
O10 O -0.1591(4) 0.0724(6) 0.2144(2)
H35 H -0.161(8) 0.101(9) 0.177(3)
H36 H -0.088(5) 0.053(10) 0.220(5)
O11 O -0.5616(5) 0.0959(6) 0.2239(2)
H37 H -0.595(8) 0.090(11) 0.258(3)
H38 H -0.493(3) 0.113(3) 0.245(4)
loop_
_geom_bond_atom_site_label_1
_geom_bond_atom_site_label_2
_geom_bond_site_symmetry_1
_geom_bond_site_symmetry_2
Cu1 N1 1_555 1_555
Cu2 N3 1_555 1_555
N1 C1 1_555 1_555
N2 Cu1 1_555 1_555
N3 C11 1_555 1_555
N4 Cu2 1_555 1_555
C1 H1 1_555 1_555
C2 C1 1_555 1_555
H2 C2 1_555 1_555
C3 C2 1_555 1_555
H3 C3 1_555 1_555
C4 C3 1_555 1_555
H4 C4 1_555 1_555
C5 N1 1_555 1_555
C6 N2 1_555 1_555
C7 C6 1_555 1_555
H5 C7 1_555 1_555
C8 C7 1_555 1_555
H6 C8 1_555 1_555
C9 C8 1_555 1_555
H7 C9 1_555 1_555
C10 N2 1_555 1_555
H8 C10 1_555 1_555
C11 H9 1_555 1_555
C12 C11 1_555 1_555
H10 C12 1_555 1_555
C13 C12 1_555 1_555
H11 C13 1_555 1_555
C14 C13 1_555 1_555
H12 C14 1_555 1_555
C15 N3 1_555 1_555
C16 N4 1_555 1_555
C17 C16 1_555 1_555
H13 C17 1_555 1_555
C18 C17 1_555 1_555
H14 C18 1_555 1_555
C19 C18 1_555 1_555
H15 C19 1_555 1_555
C20 N4 1_555 1_555
H16 C20 1_555 1_555
O1 C21 1_555 1_555
O2 Cu1 1_555 1_555
O3 C26 1_555 1_555
O4 C26 1_555 1_555
C21 O2 1_555 1_555
C22 C21 1_555 1_555
H17 C22 1_555 1_555
H18 C22 1_555 1_555
C23 C22 1_555 1_555
H19 C23 1_555 1_555
H20 C23 1_555 1_555
C24 C23 1_555 1_555
H21 C24 1_555 1_555
H22 C24 1_555 1_555
C25 C24 1_555 1_555
H23 C25 1_555 1_555
H24 C25 1_555 1_555
C26 C25 1_555 1_555
O5 C27 1_555 1_555
O6 Cu2 1_555 1_555
O7 C32 1_555 1_555
O8 C32 1_555 1_555
C27 O6 1_555 1_555
C28 C27 1_555 1_555
H25 C28 1_555 1_555
H26 C28 1_555 1_555
C29 C28 1_555 1_555
H27 C29 1_555 1_555
H28 C29 1_555 1_555
C30 C29 1_555 1_555
H29 C30 1_555 1_555
H30 C30 1_555 1_555
C31 C30 1_555 1_555
H31 C31 1_555 1_555
H32 C31 1_555 1_555
C32 C31 1_555 1_555
B1 F1 1_555 1_555
F2 B1 1_555 1_555
F3 B1 1_555 1_555
F4 B1 1_555 1_555
O9 H33 1_555 1_555
H34 O9 1_555 1_555
O10 H35 1_555 1_555
H36 O10 1_555 1_555
O11 H37 1_555 1_555
H38 O11 1_555 1_555
Cu1A O1 1_555 1_555
Cu1C O3 1_555 1_555
Cu2A O5 1_555 1_555
Cu2C O7 1_555 1_555
O1A Cu1 1_555 1_555
O3C Cu1 1_555 1_555
O5A Cu2 1_555 1_555
O7C Cu2 1_555 1_555
C4 C5 1_555 1_555
C5 C6 1_555 1_555
C9 C10 1_555 1_555
C14 C15 1_555 1_555
C15 C16 1_555 1_555
C19 C20 1_555 1_555

#END
