
#######################################################################
#
#                 Cambridge Crystallographic Data Centre
#                                CCDC 
#
#######################################################################
#
# If this CIF has been generated from an entry in the Cambridge 
# Structural Database, then it will include bibliographic, chemical, 
# crystal, experimental, refinement or atomic coordinate data resulting 
# from the CCDC's data processing and validation procedures.
#
#######################################################################

data_GIBTAN
_symmetry_cell_setting           orthorhombic
_symmetry_space_group_name_H-M   'P n a m'
_symmetry_Int_Tables_number      62
_space_group_name_Hall           '-P 2c 2n'
loop_
_symmetry_equiv_pos_site_id
_symmetry_equiv_pos_as_xyz
1 x,y,z
2 -x,-y,1/2+z
3 1/2+x,1/2-y,1/2-z
4 1/2-x,1/2+y,-z
5 -x,-y,-z
6 x,y,1/2-z
7 1/2-x,1/2+y,1/2+z
8 1/2+x,1/2-y,z
_cell_length_a                   19.044(2)
_cell_length_b                   11.0370(10)
_cell_length_c                   11.451(3)
_cell_angle_alpha                90
_cell_angle_beta                 90
_cell_angle_gamma                90
_cell_volume                     2406.87
loop_
_atom_site_label
_atom_site_type_symbol
_atom_site_fract_x
_atom_site_fract_y
_atom_site_fract_z
N5 N 0.5157(4) 0.5862(3) 0.9681(15)
O4 O 0.5284(10) 0.4845(10) 0.9249(18)
O5 O 0.5281(10) 0.6864(11) 0.9215(17)
O6 O 0.4878(10) 0.5690(19) 1.0655(14)
N5D N 0.4843(4) 0.4138(3) 1.0319(15)
O4D O 0.4716(10) 0.5155(10) 1.0751(18)
O5D O 0.4719(10) 0.3136(11) 1.0785(17)
O6D O 0.5122(10) 0.4310(19) 0.9345(14)
C11 C 0.023(2) 0.353(3) 0.2500
O7 O 0.0921(13) 0.408(2) 0.2500
Tl1 Tl 0.35679(5) 0.42266(8) 0.2500
Cu1 Cu 0.25525(7) 0.16792(12) 0.50109(14)
N1 N 0.1909(5) 0.3073(8) 0.5349(9)
C1 C 0.2219(7) 0.4176(11) 0.5066(9)
N2 N 0.1851(5) 0.5215(9) 0.5300(9)
C2 C 0.1207(7) 0.5175(12) 0.5751(12)
H1 H 0.0969 0.5890 0.5916
C3 C 0.1266(7) 0.3040(11) 0.5773(12)
H2 H 0.1059 0.2298 0.5941
C4 C 0.0900(7) 0.4089(12) 0.5970(12)
H3 H 0.0443 0.4056 0.6252
O1 O 0.2814(5) 0.4214(8) 0.4639(7)
N3 N 0.1903(5) 0.7023(8) 0.1463(9)
C5 C 0.2242(10) 0.6790(13) 0.2500
C6 C 0.1246(6) 0.7410(12) 0.1472(11)
H4 H 0.1020 0.7555 0.0765
C7 C 0.0887(9) 0.7603(19) 0.2500
H5 H 0.0421 0.7854 0.2500
O2 O 0.2850(7) 0.6389(11) 0.2500
N4 N 0.2038(5) 0.1339(9) 0.3533(8)
C8 C 0.2370(9) 0.1583(14) 0.2500
C9 C 0.1397(7) 0.0872(12) 0.3524(11)
H6 H 0.1180 0.0704 0.4233
C10 C 0.1038(10) 0.0623(16) 0.2500
H7 H 0.0585 0.0309 0.2500
O3 O 0.2971(7) 0.2002(11) 0.2500
Cu1E Cu 0.25525(7) 0.16792(12) -0.00109(14)
Cu1C Cu 0.24475(7) 0.66792(12) 0.49891(14)
Cu1F Cu 0.24475(7) 0.66792(12) 0.00109(14)
N1E N 0.1909(5) 0.3073(8) -0.0349(9)
C1E C 0.2219(7) 0.4176(11) -0.0066(9)
N2E N 0.1851(5) 0.5215(9) -0.0300(9)
N2C N 0.3149(5) 0.0215(9) 0.4700(9)
N2F N 0.3149(5) 0.0215(9) 0.0300(9)
C2E C 0.1207(7) 0.5175(12) -0.0751(12)
H1E H 0.0969 0.5890 -0.0916
C3E C 0.1266(7) 0.3040(11) -0.0773(12)
H2E H 0.1059 0.2298 -0.0941
C4E C 0.0900(7) 0.4089(12) -0.0970(12)
H3E H 0.0443 0.4056 -0.1252
O1E O 0.2814(5) 0.4214(8) 0.0361(7)
N3E N 0.1903(5) 0.7023(8) 0.3537(9)
N3F N 0.3097(5) 0.2023(8) 0.6463(9)
N3C N 0.3097(5) 0.2023(8) -0.1463(9)
C6E C 0.1246(6) 0.7410(12) 0.3528(11)
H4E H 0.1020 0.7555 0.4235
N4E N 0.2038(5) 0.1339(9) 0.1467(8)
C9E C 0.1397(7) 0.0872(12) 0.1476(11)
H6E H 0.1180 0.0704 0.0767
loop_
_geom_bond_atom_site_label_1
_geom_bond_atom_site_label_2
_geom_bond_site_symmetry_1
_geom_bond_site_symmetry_2
Tl1 O1 1_555 1_555
Cu1 N1 1_555 1_555
N1 C1 1_555 1_555
C1 N2 1_555 1_555
N2 C2 1_555 1_555
C2 H1 1_555 1_555
C3 N1 1_555 1_555
H2 C3 1_555 1_555
C4 C2 1_555 1_555
H3 C4 1_555 1_555
O1 C1 1_555 1_555
N3 C5 1_555 1_555
C5 O2 1_555 1_555
C6 N3 1_555 1_555
H4 C6 1_555 1_555
C7 C6 1_555 1_555
H5 C7 1_555 1_555
O2 Tl1 1_555 1_555
N4 Cu1 1_555 1_555
C8 N4 1_555 1_555
C9 N4 1_555 1_555
H6 C9 1_555 1_555
C10 C9 1_555 1_555
H7 C10 1_555 1_555
O3 Tl1 1_555 1_555
N5 O4 1_555 1_555
O4 N5D 1_555 1_555
O5 N5 1_555 1_555
O6 N5 1_555 1_555
C11 O7 1_555 1_555
Cu1E N1E 1_555 1_555
Cu1C N2 1_555 1_555
Cu1F N3 1_555 1_555
N1E C1E 1_555 1_555
C1E N2E 1_555 1_555
N2E Cu1F 1_555 1_555
N2C Cu1 1_555 1_555
N2F Cu1E 1_555 1_555
C2E N2E 1_555 1_555
H1E C2E 1_555 1_555
C3E N1E 1_555 1_555
H2E C3E 1_555 1_555
C4E C2E 1_555 1_555
H3E C4E 1_555 1_555
O1E Tl1 1_555 1_555
N3E C5 1_555 1_555
N3F Cu1 1_555 1_555
N3C Cu1E 1_555 1_555
C6E C7 1_555 1_555
H4E C6E 1_555 1_555
N4E C8 1_555 1_555
C9E C10 1_555 1_555
H6E C9E 1_555 1_555
N5D O6 1_555 1_555
O4D N5 1_555 1_555
O5D N5D 1_555 1_555
O6D N5 1_555 1_555
C3 C4 1_555 1_555
C8 O3 1_555 1_555
O4 O6D 1_555 1_555
O6 O4D 1_555 1_555
Cu1E N4E 1_555 1_555
Cu1C N3E 1_555 1_555
C1E O1E 1_555 1_555
C3E C4E 1_555 1_555
N3E C6E 1_555 1_555
N4E C9E 1_555 1_555
N5D O4D 1_555 1_555
N5D O6D 1_555 1_555

#END
