
#######################################################################
#
#                 Cambridge Crystallographic Data Centre
#                                CCDC 
#
#######################################################################
#
# If this CIF has been generated from an entry in the Cambridge 
# Structural Database, then it will include bibliographic, chemical, 
# crystal, experimental, refinement or atomic coordinate data resulting 
# from the CCDC's data processing and validation procedures.
#
#######################################################################

data_GICCUS
_symmetry_cell_setting           triclinic
_symmetry_space_group_name_H-M   'P -1'
_symmetry_Int_Tables_number      2
_space_group_name_Hall           '-P 1'
loop_
_symmetry_equiv_pos_site_id
_symmetry_equiv_pos_as_xyz
1 x,y,z
2 -x,-y,-z
_cell_length_a                   9.6199(9)
_cell_length_b                   10.1033(9)
_cell_length_c                   10.9391(10)
_cell_angle_alpha                103.169(2)
_cell_angle_beta                 96.954(2)
_cell_angle_gamma                109.183(2)
_cell_volume                     955.309
loop_
_atom_site_label
_atom_site_type_symbol
_atom_site_fract_x
_atom_site_fract_y
_atom_site_fract_z
Mn1 Mn 0.5000 0.5000 0.5000
C1 C 0.2809(9) 0.1778(9) 0.4477(8)
C2 C 0.1353(9) 0.0807(9) 0.4698(8)
C3 C 0.1399(9) 0.0024(9) 0.5611(8)
C4 C 0.0044(9) -0.0734(8) 0.5930(8)
C5 C 0.7879(15) 0.3889(15) 0.5044(16)
H1 H 0.8237 0.3474 0.4326
H2 H 0.7997 0.3437 0.5712
H3 H 0.8448 0.4921 0.5362
C6 C 0.404(2) 0.5393(17) 0.2195(13)
H4 H 0.4182 0.6333 0.2748
H5 H 0.3065 0.4990 0.1631
H6 H 0.4804 0.5495 0.1695
I1 I 0.34899(7) 0.02163(7) 0.65717(7)
I2 I 0.00298(7) -0.18417(7) 0.73371(6)
O1 O 0.3224(7) 0.3070(7) 0.5061(6)
O2 O 0.3476(7) 0.1184(7) 0.3724(6)
O3 O 0.6310(8) 0.3641(8) 0.4641(9)
H7 H 0.5952 0.2956 0.3982
O4 O 0.4145(10) 0.4454(8) 0.2942(7)
H8 H 0.3868 0.3599 0.2511
C1A C -0.2809(9) -0.1778(9) 0.5523(8)
C2A C -0.1353(9) -0.0807(9) 0.5302(8)
C3A C -0.1399(9) -0.0024(9) 0.4389(8)
C4A C -0.0044(9) 0.0734(8) 0.4070(8)
I1A I -0.34899(7) -0.02163(7) 0.34283(7)
I2A I -0.00298(7) 0.18417(7) 0.26629(6)
O1A O -0.3224(7) -0.3070(7) 0.4939(6)
O2A O -0.3476(7) -0.1184(7) 0.6276(6)
C5A C 0.2121(15) 0.6111(15) 0.4956(16)
H1A H 0.1763 0.6526 0.5674
H2A H 0.2003 0.6563 0.4288
H3A H 0.1552 0.5079 0.4638
O3A O 0.3690(8) 0.6359(8) 0.5359(9)
H7A H 0.4048 0.7044 0.6018
C6A C 0.596(2) 0.4607(17) 0.7805(13)
H4A H 0.5818 0.3667 0.7252
H5A H 0.6935 0.5010 0.8369
H6A H 0.5196 0.4505 0.8305
O4A O 0.5855(10) 0.5546(8) 0.7058(7)
H8A H 0.6132 0.6401 0.7489
Mn1_2 Mn -0.5000 -0.5000 0.5000
O1A_2 O 0.6776(7) 0.6930(7) 0.4939(6)
C7 C 0.8522(11) 0.1945(9) -0.1482(9)
C8 C 0.9240(11) 0.3563(10) -0.0728(9)
C9 C 0.8727(10) 0.4085(10) 0.0272(9)
C10 C 0.9426(10) 0.5584(10) 0.1035(8)
I3 I 0.66620(7) 0.27880(7) 0.06174(7)
I4 I 0.86536(8) 0.64439(8) 0.26159(6)
O5 O 0.8777(10) 0.1019(8) -0.1040(8)
O6 O 0.7587(8) 0.1660(7) -0.2571(7)
H9 H 0.6960 0.0827 -0.2755
C7A C 1.1478(11) 0.8055(9) 0.1482(9)
C8A C 1.0760(11) 0.6437(10) 0.0728(9)
C9A C 1.1273(10) 0.5915(10) -0.0272(9)
C10A C 1.0574(10) 0.4416(10) -0.1035(8)
I3A I 1.33380(7) 0.72120(7) -0.06174(7)
I4A I 1.13464(8) 0.35561(8) -0.26159(6)
O5A O 1.1223(10) 0.8981(8) 0.1040(8)
O6A O 1.2413(8) 0.8340(7) 0.2571(7)
H9A H 1.3040 0.9173 0.2755
C11 C 0.2574(17) 0.175(2) 0.0013(12)
H10 H 0.1734 0.2028 0.0175
H11 H 0.2213 0.0769 -0.0535
H12 H 0.3184 0.2401 -0.0400
O7 O 0.3446(9) 0.1849(9) 0.1187(8)
H13 H 0.3051 0.1154 0.1458
loop_
_geom_bond_atom_site_label_1
_geom_bond_atom_site_label_2
_geom_bond_site_symmetry_1
_geom_bond_site_symmetry_2
Mn1 O1 1_555 1_555
C1 C2 1_555 1_555
C2 C3 1_555 1_555
C3 C4 1_555 1_555
C4 I2 1_555 1_555
C5 H1 1_555 1_555
H2 C5 1_555 1_555
H3 C5 1_555 1_555
C6 H4 1_555 1_555
H5 C6 1_555 1_555
H6 C6 1_555 1_555
I1 C3 1_555 1_555
O1 C1 1_555 1_555
O2 C1 1_555 1_555
O3 Mn1 1_555 1_555
H7 O3 1_555 1_555
O4 Mn1 1_555 1_555
H8 O4 1_555 1_555
C7 C8 1_555 1_555
C8 C9 1_555 1_555
C9 C10 1_555 1_555
C10 I4 1_555 1_555
I3 C9 1_555 1_555
O5 C7 1_555 1_555
O6 C7 1_555 1_555
H9 O6 1_555 1_555
C11 H10 1_555 1_555
H11 C11 1_555 1_555
H12 C11 1_555 1_555
O7 C11 1_555 1_555
H13 O7 1_555 1_555
C1A C2A 1_555 1_555
C2A C4 1_555 1_555
C3A C2A 1_555 1_555
C4A C2 1_555 1_555
I1A C3A 1_555 1_555
I2A C4A 1_555 1_555
O1A C1A 1_555 1_555
O2A C1A 1_555 1_555
C5A H1A 1_555 1_555
H2A C5A 1_555 1_555
H3A C5A 1_555 1_555
O3A Mn1 1_555 1_555
H7A O3A 1_555 1_555
C6A H4A 1_555 1_555
H5A C6A 1_555 1_555
H6A C6A 1_555 1_555
O4A Mn1 1_555 1_555
H8A O4A 1_555 1_555
Mn1_2 O1A 1_555 1_555
O1A_2 Mn1 1_555 1_555
C7A C8A 1_555 1_555
C8A C10 1_555 1_555
C9A C8A 1_555 1_555
C10A C8 1_555 1_555
I3A C9A 1_555 1_555
I4A C10A 1_555 1_555
O5A C7A 1_555 1_555
O6A C7A 1_555 1_555
H9A O6A 1_555 1_555
C5 O3 1_555 1_555
C6 O4 1_555 1_555
C3A C4A 1_555 1_555
C5A O3A 1_555 1_555
C6A O4A 1_555 1_555
C9A C10A 1_555 1_555

#END
