
#######################################################################
#
#                 Cambridge Crystallographic Data Centre
#                                CCDC 
#
#######################################################################
#
# If this CIF has been generated from an entry in the Cambridge 
# Structural Database, then it will include bibliographic, chemical, 
# crystal, experimental, refinement or atomic coordinate data resulting 
# from the CCDC's data processing and validation procedures.
#
#######################################################################

data_GICCOM
_symmetry_cell_setting           monoclinic
_symmetry_space_group_name_H-M   'P 21/c'
_symmetry_Int_Tables_number      14
_space_group_name_Hall           '-P 2ybc'
loop_
_symmetry_equiv_pos_site_id
_symmetry_equiv_pos_as_xyz
1 x,y,z
2 -x,1/2+y,1/2-z
3 -x,-y,-z
4 x,1/2-y,1/2+z
_cell_length_a                   13.6417(15)
_cell_length_b                   8.7166(10)
_cell_length_c                   25.4373(19)
_cell_angle_alpha                90
_cell_angle_beta                 122.062(4)
_cell_angle_gamma                90
_cell_volume                     2563.38
loop_
_atom_site_label
_atom_site_type_symbol
_atom_site_fract_x
_atom_site_fract_y
_atom_site_fract_z
Mn1 Mn 0.5000 0.5000 0.5000
Mn2 Mn 0.0000 0.5000 0.0000
C1 C 0.3255(6) 0.3281(7) 0.3813(3)
C2 C 0.2460(5) 0.3299(7) 0.3104(3)
C3 C 0.1400(5) 0.4026(7) 0.2824(3)
C4 C 0.0671(5) 0.4015(7) 0.2178(3)
C5 C 0.0999(5) 0.3237(7) 0.1821(3)
C6 C 0.2052(6) 0.2511(7) 0.2106(3)
C7 C 0.2801(5) 0.2545(7) 0.2746(3)
C8 C 0.0240(5) 0.3286(7) 0.1122(3)
C9 C 0.5735(10) 0.1629(12) 0.5621(5)
H1 H 0.5972 0.1092 0.5377
H2 H 0.5452 0.0907 0.5795
H3 H 0.6383 0.2174 0.5950
C10 C 0.6823(11) 0.442(2) 0.4556(6)
H4 H 0.6112 0.4337 0.4160
H5 H 0.7313 0.3563 0.4610
H6 H 0.7208 0.5356 0.4572
C11 C 0.0246(9) 0.1615(10) -0.0404(5)
H7 H 0.0468 0.2196 -0.0644
H8 H -0.0217 0.0755 -0.0642
H9 H 0.0926 0.1253 -0.0032
C12 C 0.2559(9) 0.4708(18) 0.0190(5)
H10 H 0.2854 0.5727 0.0225
H11 H 0.2124 0.4407 -0.0238
H12 H 0.3192 0.4010 0.0421
I1 I 0.09138(4) 0.51579(5) 0.33835(2)
I2 I -0.09296(4) 0.51551(5) 0.17252(2)
I3 I 0.25182(4) 0.13471(7) 0.15467(2)
I4 I 0.44634(4) 0.16051(6) 0.31745(2)
O1 O 0.3894(4) 0.4427(6) 0.4049(2)
O2 O 0.3188(4) 0.2162(6) 0.4086(2)
O3 O 0.0320(4) 0.4500(5) 0.0876(2)
O4 O -0.0347(4) 0.2150(6) 0.0839(2)
O5 O 0.4854(6) 0.2673(7) 0.5243(3)
H13 H 0.4373 0.2722 0.5343
O6 O 0.6596(6) 0.4413(11) 0.5008(3)
H14 H 0.7085 0.4819 0.5335
O7 O -0.0396(5) 0.2550(6) -0.0246(2)
H15 H -0.0370 0.2214 0.0063
O8 O 0.1859(4) 0.4679(7) 0.0422(2)
H16 H 0.2139 0.5181 0.0743
C1B C -0.3255(6) 0.6719(7) -0.3813(3)
C2B C -0.2460(5) 0.6701(7) -0.3104(3)
C3B C -0.1400(5) 0.5974(7) -0.2824(3)
C4B C -0.0671(5) 0.5985(7) -0.2178(3)
C5B C -0.0999(5) 0.6763(7) -0.1821(3)
C6B C -0.2052(6) 0.7489(7) -0.2106(3)
C7B C -0.2801(5) 0.7455(7) -0.2746(3)
C8B C -0.0240(5) 0.6714(7) -0.1122(3)
C11B C -0.0246(9) 0.8385(10) 0.0404(5)
H7B H -0.0468 0.7804 0.0644
H8B H 0.0217 0.9245 0.0642
H9B H -0.0926 0.8747 0.0032
C12B C -0.2559(9) 0.5292(18) -0.0190(5)
H10B H -0.2854 0.4273 -0.0225
H11B H -0.2124 0.5593 0.0238
H12B H -0.3192 0.5990 -0.0421
I1B I -0.09138(4) 0.48421(5) -0.33835(2)
I2B I 0.09296(4) 0.48449(5) -0.17252(2)
I3B I -0.25182(4) 0.86529(7) -0.15467(2)
I4B I -0.44634(4) 0.83949(6) -0.31745(2)
O1B O -0.3894(4) 0.5573(6) -0.4049(2)
O2B O -0.3188(4) 0.7838(6) -0.4086(2)
O3B O -0.0320(4) 0.5500(5) -0.0876(2)
O4B O 0.0347(4) 0.7850(6) -0.0839(2)
O7B O 0.0396(5) 0.7450(6) 0.0246(2)
H15B H 0.0370 0.7786 -0.0063
O8B O -0.1859(4) 0.5321(7) -0.0422(2)
H16B H -0.2139 0.4819 -0.0743
C9B C 0.4265(10) 0.8371(12) 0.4379(5)
H1B H 0.4028 0.8908 0.4623
H2B H 0.4548 0.9093 0.4205
H3B H 0.3617 0.7826 0.4050
O5B O 0.5146(6) 0.7327(7) 0.4757(3)
H13B H 0.5627 0.7278 0.4657
C10B C 0.3177(11) 0.558(2) 0.5444(6)
H4B H 0.3888 0.5663 0.5840
H5B H 0.2687 0.6437 0.5390
H6B H 0.2792 0.4644 0.5428
O6B O 0.3404(6) 0.5587(11) 0.4992(3)
H14B H 0.2915 0.5181 0.4665
Mn1_2 Mn -0.5000 0.5000 -0.5000
O1B_2 O 0.6106(4) 0.5573(6) 0.5951(2)
C13 C 0.7731(9) 0.2688(12) 0.2517(5)
H17 H 0.8499 0.2774 0.2876
H18 H 0.7403 0.3693 0.2384
H19 H 0.7760 0.2191 0.2189
C14 C 0.5890(8) 0.1391(13) 0.2166(4)
H20 H 0.5487 0.0863 0.2327
H21 H 0.5951 0.0733 0.1882
H22 H 0.5472 0.2302 0.1953
C15 C 0.7426(7) 0.1378(10) 0.3248(4)
N1 N 0.7032(6) 0.1802(8) 0.2669(3)
O9 O 0.6875(5) 0.0631(9) 0.3417(3)
H23? H 0.6373 -0.0029 0.3303
loop_
_geom_bond_atom_site_label_1
_geom_bond_atom_site_label_2
_geom_bond_site_symmetry_1
_geom_bond_site_symmetry_2
Mn1 O1 1_555 1_555
Mn2 O3 1_555 1_555
C1 C2 1_555 1_555
C2 C3 1_555 1_555
C3 C4 1_555 1_555
C4 C5 1_555 1_555
C5 C6 1_555 1_555
C6 C7 1_555 1_555
C7 C2 1_555 1_555
C8 C5 1_555 1_555
C9 H1 1_555 1_555
H2 C9 1_555 1_555
H3 C9 1_555 1_555
C10 H4 1_555 1_555
H5 C10 1_555 1_555
H6 C10 1_555 1_555
C11 H7 1_555 1_555
H8 C11 1_555 1_555
H9 C11 1_555 1_555
C12 H10 1_555 1_555
H11 C12 1_555 1_555
H12 C12 1_555 1_555
I1 C3 1_555 1_555
I2 C4 1_555 1_555
I3 C6 1_555 1_555
I4 C7 1_555 1_555
O1 C1 1_555 1_555
O2 C1 1_555 1_555
O3 C8 1_555 1_555
O4 C8 1_555 1_555
O5 Mn1 1_555 1_555
H13 O5 1_555 1_555
O6 Mn1 1_555 1_555
H14 O6 1_555 1_555
O7 Mn2 1_555 1_555
H15 O7 1_555 1_555
O8 Mn2 1_555 1_555
H16 O8 1_555 1_555
C13 H17 1_555 1_555
H18 C13 1_555 1_555
H19 C13 1_555 1_555
C14 H20 1_555 1_555
H21 C14 1_555 1_555
H22 C14 1_555 1_555
C15 N1 1_555 1_555
N1 C13 1_555 1_555
O9 C15 1_555 1_555
C1B C2B 1_555 1_555
C2B C3B 1_555 1_555
C3B C4B 1_555 1_555
C4B C5B 1_555 1_555
C5B C6B 1_555 1_555
C6B C7B 1_555 1_555
C7B C2B 1_555 1_555
C8B C5B 1_555 1_555
C11B H7B 1_555 1_555
H8B C11B 1_555 1_555
H9B C11B 1_555 1_555
C12B H10B 1_555 1_555
H11B C12B 1_555 1_555
H12B C12B 1_555 1_555
I1B C3B 1_555 1_555
I2B C4B 1_555 1_555
I3B C6B 1_555 1_555
I4B C7B 1_555 1_555
O1B C1B 1_555 1_555
O2B C1B 1_555 1_555
O3B Mn2 1_555 1_555
O4B C8B 1_555 1_555
O7B Mn2 1_555 1_555
H15B O7B 1_555 1_555
O8B Mn2 1_555 1_555
H16B O8B 1_555 1_555
C9B H1B 1_555 1_555
H2B C9B 1_555 1_555
H3B C9B 1_555 1_555
O5B Mn1 1_555 1_555
H13B O5B 1_555 1_555
C10B H4B 1_555 1_555
H5B C10B 1_555 1_555
H6B C10B 1_555 1_555
O6B Mn1 1_555 1_555
H14B O6B 1_555 1_555
Mn1_2 O1B 1_555 1_555
O1B_2 Mn1 1_555 1_555
C9 O5 1_555 1_555
C10 O6 1_555 1_555
C11 O7 1_555 1_555
C12 O8 1_555 1_555
C14 N1 1_555 1_555
C8B O3B 1_555 1_555
C11B O7B 1_555 1_555
C12B O8B 1_555 1_555
C9B O5B 1_555 1_555
C10B O6B 1_555 1_555

#END
