
#######################################################################
#
#                 Cambridge Crystallographic Data Centre
#                                CCDC 
#
#######################################################################
#
# If this CIF has been generated from an entry in the Cambridge 
# Structural Database, then it will include bibliographic, chemical, 
# crystal, experimental, refinement or atomic coordinate data resulting 
# from the CCDC's data processing and validation procedures.
#
#######################################################################

data_GICCUR
_symmetry_cell_setting           triclinic
_symmetry_space_group_name_H-M   'P -1'
_symmetry_Int_Tables_number      2
_space_group_name_Hall           '-P 1'
loop_
_symmetry_equiv_pos_site_id
_symmetry_equiv_pos_as_xyz
1 x,y,z
2 -x,-y,-z
_cell_length_a                   11.6875(8)
_cell_length_b                   12.3498(7)
_cell_length_c                   13.1759(8)
_cell_angle_alpha                64.995(9)
_cell_angle_beta                 65.952(9)
_cell_angle_gamma                65.296(8)
_cell_volume                     1502.99
loop_
_atom_site_label
_atom_site_type_symbol
_atom_site_fract_x
_atom_site_fract_y
_atom_site_fract_z
Zn1 Zn 0.43849(4) 0.70313(3) -0.00337(3)
Zn2 Zn 0.42207(4) 0.81711(3) -0.45267(3)
P1 P 0.42749(8) 1.09410(8) -0.63951(8)
P2 P 0.68973(8) 0.52347(8) -0.14938(7)
P3 P 0.30385(8) 0.71442(8) -0.18475(7)
O1 O 0.3773(3) 0.9940(2) -0.5397(2)
O2 O 0.4318(2) 1.1995(2) -0.6123(2)
O3 O 0.5692(2) 1.0312(2) -0.7087(3)
H1 H 0.6015 1.0856 -0.7602
O4 O 0.3375(3) 1.1509(2) -0.7230(2)
H2 H 0.352(7) 1.218(7) -0.769(7)
O5 O 0.6181(2) 0.6447(2) -0.1163(2)
O6 O 0.5888(2) 0.4542(2) -0.1122(2)
O7 O 0.7384(3) 0.5645(2) -0.2882(2)
H3 H 0.688(4) 0.614(4) -0.315(4)
O8 O 0.8074(2) 0.4414(2) -0.1059(2)
O9 O 0.3501(2) 0.7676(2) -0.1287(2)
O10 O 0.2822(2) 0.8016(2) -0.3006(2)
O11 O 0.4034(3) 0.5887(3) -0.2044(3)
H4 H 0.449(5) 0.555(5) -0.174(5)
O12 O 0.1720(3) 0.6875(3) -0.1024(3)
H5 H 0.184(6) 0.650(6) -0.037(6)
N1 N 0.5351(3) 0.7711(3) 0.0518(3)
N2 N 0.2809(3) 0.8293(3) 0.0890(3)
N3 N 0.5686(3) 0.7017(3) -0.5550(2)
N4 N 0.3126(3) 0.7592(3) -0.5111(3)
C1 C 0.6664(4) 0.7344(4) 0.0314(4)
H6 H 0.711(4) 0.677(4) -0.009(3)
C2 C 0.7293(4) 0.7786(4) 0.0672(3)
C3 C 0.6508(4) 0.8647(4) 0.1281(4)
H7 H 0.685(4) 0.904(4) 0.151(4)
C4 C 0.5157(4) 0.9031(4) 0.1504(3)
H8 H 0.465(4) 0.964(4) 0.187(4)
C5 C 0.4600(3) 0.8546(3) 0.1110(3)
C6 C 0.3164(3) 0.8884(3) 0.1317(3)
C7 C 0.2237(4) 0.9714(4) 0.1922(4)
H9 H 0.248(4) 1.017(4) 0.219(4)
C8 C 0.0927(4) 0.9929(4) 0.2092(4)
H10 H 0.031(4) 1.046(4) 0.248(4)
C9 C 0.0540(4) 0.9292(4) 0.1693(4)
C10 C 0.1531(4) 0.8493(4) 0.1084(4)
H11 H 0.127(4) 0.809(4) 0.084(4)
C11 C 0.8763(4) 0.7328(5) 0.0410(5)
H12 H 0.9114 0.6736 -0.0013
H13 H 0.9002 0.6932 0.1128
H14 H 0.9112 0.8022 -0.0051
C12 C -0.0882(4) 0.9466(4) 0.1883(5)
H15 H -0.0936 0.8945 0.1542
H16 H -0.1301 1.0326 0.1523
H17 H -0.1314 0.9239 0.2705
C13 C 0.6980(3) 0.6759(4) -0.5744(3)
H18 H 0.724(4) 0.716(4) -0.544(4)
C14 C 0.7928(4) 0.5958(4) -0.6363(3)
C15 C 0.7500(4) 0.5404(4) -0.6793(4)
H19 H 0.798(4) 0.491(4) -0.711(4)
C16 C 0.6181(4) 0.5663(4) -0.6628(3)
H20 H 0.587(4) 0.533(4) -0.692(4)
C17 C 0.5280(3) 0.6490(3) -0.6007(3)
C18 C 0.3836(3) 0.6839(3) -0.5778(3)
C19 C 0.3244(4) 0.6417(4) -0.6205(3)
H21 H 0.373(4) 0.593(4) -0.672(4)
C20 C 0.1892(4) 0.6797(4) -0.5928(4)
H22 H 0.151(4) 0.654(4) -0.624(4)
C21 C 0.1138(4) 0.7569(4) -0.5225(4)
C22 C 0.1819(4) 0.7941(4) -0.4846(4)
H23 H 0.138(4) 0.842(4) -0.438(4)
C23 C 0.9363(4) 0.5697(5) -0.6508(4)
H24 H 0.9892 0.5127 -0.6959
H25 H 0.9518 0.5333 -0.5755
H26 H 0.9589 0.6466 -0.6903
C24 C -0.0348(4) 0.7993(5) -0.4874(5)
H27 H -0.0673 0.8519 -0.4389
H28 H -0.0665 0.7275 -0.4451
H29 H -0.0648 0.8453 -0.5561
Zn1A Zn 0.56151(4) 0.29687(3) 0.00337(3)
Zn2A Zn 0.57793(4) 1.18289(3) -0.54733(3)
O2A O 0.5682(2) 0.8005(2) -0.3877(2)
O6A O 0.4112(2) 0.5458(2) 0.1122(2)
loop_
_geom_bond_atom_site_label_1
_geom_bond_atom_site_label_2
_geom_bond_site_symmetry_1
_geom_bond_site_symmetry_2
Zn1 O5 1_555 1_555
Zn2 O1 1_555 1_555
P1 O1 1_555 1_555
P2 O5 1_555 1_555
P3 O9 1_555 1_555
O2 P1 1_555 1_555
O3 P1 1_555 1_555
H1 O3 1_555 1_555
O4 P1 1_555 1_555
H2 O4 1_555 1_555
O6 P2 1_555 1_555
O7 P2 1_555 1_555
H3 O7 1_555 1_555
O8 P2 1_555 1_555
O9 Zn1 1_555 1_555
O10 Zn2 1_555 1_555
O11 P3 1_555 1_555
H4 O11 1_555 1_555
O12 P3 1_555 1_555
H5 O12 1_555 1_555
N1 Zn1 1_555 1_555
N2 Zn1 1_555 1_555
N3 Zn2 1_555 1_555
N4 Zn2 1_555 1_555
C1 N1 1_555 1_555
H6 C1 1_555 1_555
C2 C1 1_555 1_555
C3 C2 1_555 1_555
H7 C3 1_555 1_555
C4 C3 1_555 1_555
H8 C4 1_555 1_555
C5 N1 1_555 1_555
C6 N2 1_555 1_555
C7 C6 1_555 1_555
H9 C7 1_555 1_555
C8 C7 1_555 1_555
H10 C8 1_555 1_555
C9 C8 1_555 1_555
C10 N2 1_555 1_555
H11 C10 1_555 1_555
C11 C2 1_555 1_555
H12 C11 1_555 1_555
H13 C11 1_555 1_555
H14 C11 1_555 1_555
C12 C9 1_555 1_555
H15 C12 1_555 1_555
H16 C12 1_555 1_555
H17 C12 1_555 1_555
C13 N3 1_555 1_555
H18 C13 1_555 1_555
C14 C13 1_555 1_555
C15 C14 1_555 1_555
H19 C15 1_555 1_555
C16 C15 1_555 1_555
H20 C16 1_555 1_555
C17 N3 1_555 1_555
C18 N4 1_555 1_555
C19 C18 1_555 1_555
H21 C19 1_555 1_555
C20 C19 1_555 1_555
H22 C20 1_555 1_555
C21 C20 1_555 1_555
C22 N4 1_555 1_555
H23 C22 1_555 1_555
C23 C14 1_555 1_555
H24 C23 1_555 1_555
H25 C23 1_555 1_555
H26 C23 1_555 1_555
C24 C21 1_555 1_555
H27 C24 1_555 1_555
H28 C24 1_555 1_555
H29 C24 1_555 1_555
Zn1A O6 1_555 1_555
Zn2A O2 1_555 1_555
O2A Zn2 1_555 1_555
O6A Zn1 1_555 1_555
P3 O10 1_555 1_555
C4 C5 1_555 1_555
C5 C6 1_555 1_555
C9 C10 1_555 1_555
C16 C17 1_555 1_555
C17 C18 1_555 1_555
C21 C22 1_555 1_555

#END
