
#######################################################################
#
#                 Cambridge Crystallographic Data Centre
#                                CCDC 
#
#######################################################################
#
# If this CIF has been generated from an entry in the Cambridge 
# Structural Database, then it will include bibliographic, chemical, 
# crystal, experimental, refinement or atomic coordinate data resulting 
# from the CCDC's data processing and validation procedures.
#
#######################################################################

data_GICDED
_symmetry_cell_setting           triclinic
_symmetry_space_group_name_H-M   'P -1'
_symmetry_Int_Tables_number      2
_space_group_name_Hall           '-P 1'
loop_
_symmetry_equiv_pos_site_id
_symmetry_equiv_pos_as_xyz
1 x,y,z
2 -x,-y,-z
_cell_length_a                   9.6553(8)
_cell_length_b                   10.2252(8)
_cell_length_c                   10.9908(9)
_cell_angle_alpha                103.7990(10)
_cell_angle_beta                 97.002(2)
_cell_angle_gamma                108.9370(10)
_cell_volume                     972.995
loop_
_atom_site_label
_atom_site_type_symbol
_atom_site_fract_x
_atom_site_fract_y
_atom_site_fract_z
Cd1 Cd 0.0000 0.0000 0.5000
C1 C 0.2215(8) 0.3256(8) 0.5527(7)
C2 C 0.3677(8) 0.4229(7) 0.5284(7)
C3 C 0.3639(8) 0.4952(7) 0.4363(7)
C4 C 0.4957(8) 0.5730(7) 0.4086(7)
C5 C -0.1020(17) 0.0338(13) 0.2100(11)
H1 H -0.2042 0.0261 0.1879
H2 H -0.0677 0.0056 0.1330
H3 H -0.0403 0.1320 0.2574
C6 C 0.2876(14) -0.1157(15) 0.5096(15)
H4 H 0.3507 -0.0246 0.5028
H5 H 0.3173 -0.1914 0.4646
H6 H 0.2973 -0.1123 0.5984
I1 I 0.15109(6) 0.47691(6) 0.34282(6)
I2 I 0.49641(6) 0.68303(6) 0.26935(5)
O1 O 0.1829(6) 0.1948(5) 0.4904(6)
O2 O 0.1536(6) 0.3808(6) 0.6262(6)
O3 O -0.0928(10) -0.0577(7) 0.2854(7)
H7 H -0.0768 -0.1276 0.2444
O4 O 0.1379(8) -0.1433(7) 0.4557(9)
H8 H 0.0969 -0.2239 0.4035
C1A C 0.7785(8) 0.6744(8) 0.4473(7)
C2A C 0.6323(8) 0.5771(7) 0.4716(7)
C3A C 0.6361(8) 0.5048(7) 0.5637(7)
C4A C 0.5043(8) 0.4270(7) 0.5914(7)
I1A I 0.84891(6) 0.52309(6) 0.65718(6)
I2A I 0.50359(6) 0.31697(6) 0.73065(5)
O1A O 0.8171(6) 0.8052(5) 0.5096(6)
O2A O 0.8464(6) 0.6192(6) 0.3738(6)
C5A C 0.1020(17) -0.0338(13) 0.7900(11)
H1A H 0.2042 -0.0261 0.8121
H2A H 0.0677 -0.0056 0.8670
H3A H 0.0403 -0.1320 0.7426
C6A C -0.2876(14) 0.1157(15) 0.4904(15)
H4A H -0.3507 0.0246 0.4972
H5A H -0.3173 0.1914 0.5354
H6A H -0.2973 0.1123 0.4016
O3A O 0.0928(10) 0.0577(7) 0.7146(7)
H7A H 0.0768 0.1276 0.7556
O4A O -0.1379(8) 0.1433(7) 0.5443(9)
H8A H -0.0969 0.2239 0.5965
Cd1_2 Cd 1.0000 1.0000 0.5000
O1A_2 O -0.1829(6) -0.1948(5) 0.5096(6)
C7 C 0.3530(10) 0.6957(9) 0.8503(8)
C8 C 0.4264(9) 0.8557(8) 0.9253(7)
C9 C 0.5559(9) 0.9427(9) 0.8967(8)
C10 C 0.6294(9) 1.0874(8) 0.9737(8)
I3 I 0.63625(7) 0.85640(7) 0.73946(6)
I4 I 0.82973(7) 1.22070(6) 0.93851(6)
O5 O 0.3819(9) 0.6057(7) 0.8964(7)
O6 O 0.2613(7) 0.6663(7) 0.7437(6)
H9 H 0.1737 0.6247 0.7457
C7A C 0.6470(10) 1.3043(9) 1.1497(8)
C8A C 0.5736(9) 1.1443(8) 1.0747(7)
C9A C 0.4441(9) 1.0573(9) 1.1033(8)
C10A C 0.3706(9) 0.9126(8) 1.0263(8)
I3A I 0.36375(7) 1.14360(7) 1.26054(6)
I4A I 0.17027(7) 0.77930(6) 1.06149(6)
O5A O 0.6181(9) 1.3943(7) 1.1036(7)
O6A O 0.7387(7) 1.3337(7) 1.2563(6)
H9A H 0.8263 1.3753 1.2543
C11 C 0.2445(16) 0.331(2) 0.9995(14)
H10 H 0.3393 0.3261 0.9856
H11 H 0.1937 0.2521 1.0309
H12 H 0.2608 0.4210 1.0615
O7 O 0.1544(9) 0.3196(8) 0.8808(8)
H13 H 0.2063 0.3697 0.8430
loop_
_geom_bond_atom_site_label_1
_geom_bond_atom_site_label_2
_geom_bond_site_symmetry_1
_geom_bond_site_symmetry_2
Cd1 O1 1_555 1_555
C1 C2 1_555 1_555
C2 C3 1_555 1_555
C3 C4 1_555 1_555
C4 I2 1_555 1_555
C5 H1 1_555 1_555
H2 C5 1_555 1_555
H3 C5 1_555 1_555
C6 H4 1_555 1_555
H5 C6 1_555 1_555
H6 C6 1_555 1_555
I1 C3 1_555 1_555
O1 C1 1_555 1_555
O2 C1 1_555 1_555
O3 Cd1 1_555 1_555
H7 O3 1_555 1_555
O4 Cd1 1_555 1_555
H8 O4 1_555 1_555
C7 C8 1_555 1_555
C8 C9 1_555 1_555
C9 C10 1_555 1_555
C10 I4 1_555 1_555
I3 C9 1_555 1_555
O5 C7 1_555 1_555
O6 C7 1_555 1_555
H9 O6 1_555 1_555
C11 H10 1_555 1_555
H11 C11 1_555 1_555
H12 C11 1_555 1_555
O7 C11 1_555 1_555
H13 O7 1_555 1_555
C1A C2A 1_555 1_555
C2A C4 1_555 1_555
C3A C2A 1_555 1_555
C4A C2 1_555 1_555
I1A C3A 1_555 1_555
I2A C4A 1_555 1_555
O1A C1A 1_555 1_555
O2A C1A 1_555 1_555
C5A H1A 1_555 1_555
H2A C5A 1_555 1_555
H3A C5A 1_555 1_555
C6A H4A 1_555 1_555
H5A C6A 1_555 1_555
H6A C6A 1_555 1_555
O3A Cd1 1_555 1_555
H7A O3A 1_555 1_555
O4A Cd1 1_555 1_555
H8A O4A 1_555 1_555
Cd1_2 O1A 1_555 1_555
O1A_2 Cd1 1_555 1_555
C7A C8A 1_555 1_555
C8A C10 1_555 1_555
C9A C8A 1_555 1_555
C10A C8 1_555 1_555
I3A C9A 1_555 1_555
I4A C10A 1_555 1_555
O5A C7A 1_555 1_555
O6A C7A 1_555 1_555
H9A O6A 1_555 1_555
C5 O3 1_555 1_555
C6 O4 1_555 1_555
C3A C4A 1_555 1_555
C5A O3A 1_555 1_555
C6A O4A 1_555 1_555
C9A C10A 1_555 1_555

#END
