
#######################################################################
#
#                 Cambridge Crystallographic Data Centre
#                                CCDC 
#
#######################################################################
#
# If this CIF has been generated from an entry in the Cambridge 
# Structural Database, then it will include bibliographic, chemical, 
# crystal, experimental, refinement or atomic coordinate data resulting 
# from the CCDC's data processing and validation procedures.
#
#######################################################################

data_GICDIH
_symmetry_cell_setting           triclinic
_symmetry_space_group_name_H-M   'P -1'
_symmetry_Int_Tables_number      2
_space_group_name_Hall           '-P 1'
loop_
_symmetry_equiv_pos_site_id
_symmetry_equiv_pos_as_xyz
1 x,y,z
2 -x,-y,-z
_cell_length_a                   9.6011(16)
_cell_length_b                   9.9893(17)
_cell_length_c                   10.9192(18)
_cell_angle_alpha                102.779(3)
_cell_angle_beta                 97.358(3)
_cell_angle_gamma                109.478(3)
_cell_volume                     939.368
loop_
_atom_site_label
_atom_site_type_symbol
_atom_site_fract_x
_atom_site_fract_y
_atom_site_fract_z
Zn1 Zn 0.5000 0.5000 0.5000
C1 C 0.2817(9) 0.1816(9) 0.4487(7)
C2 C 0.1344(8) 0.0823(8) 0.4724(7)
C3 C 0.1386(9) 0.0066(8) 0.5629(7)
C4 C -0.0049(9) 0.0756(8) 0.4070(8)
C5 C 0.7737(12) 0.3920(12) 0.5029(14)
H1 H 0.8274 0.4951 0.5470
H2 H 0.8170 0.3645 0.4314
H3 H 0.7812 0.3341 0.5610
C6 C 0.4062(16) 0.5445(14) 0.2289(12)
H4 H 0.3053 0.5440 0.2123
H5 H 0.4333 0.5136 0.1487
H6 H 0.4757 0.6427 0.2754
I1 I 0.35046(6) 0.02355(7) 0.65919(6)
I2 I -0.00431(6) 0.18619(6) 0.26563(6)
O1 O 0.3245(6) 0.3144(6) 0.5080(6)
O2 O 0.3491(6) 0.1260(6) 0.3763(6)
O3 O 0.6231(8) 0.3666(7) 0.4584(8)
H7 H 0.5703 0.2795 0.4222
O4 O 0.4125(9) 0.4464(7) 0.3028(6)
H8 H 0.3611 0.3607 0.2610
C1A C -0.2817(9) -0.1816(9) 0.5513(7)
C2A C -0.1344(8) -0.0823(8) 0.5276(7)
C3A C -0.1386(9) -0.0066(8) 0.4371(7)
C4A C 0.0049(9) -0.0756(8) 0.5930(8)
I1A I -0.35046(6) -0.02355(7) 0.34081(6)
I2A I 0.00431(6) -0.18619(6) 0.73437(6)
O1A O -0.3245(6) -0.3144(6) 0.4920(6)
O2A O -0.3491(6) -0.1260(6) 0.6237(6)
C5A C 0.2263(12) 0.6080(12) 0.4971(14)
H1A H 0.1726 0.5049 0.4530
H2A H 0.1830 0.6355 0.5686
H3A H 0.2188 0.6659 0.4390
O3A O 0.3769(8) 0.6334(7) 0.5416(8)
H7A H 0.4297 0.7205 0.5778
C6A C 0.5938(16) 0.4555(14) 0.7711(12)
H4A H 0.6947 0.4560 0.7877
H5A H 0.5667 0.4864 0.8513
H6A H 0.5243 0.3573 0.7246
O4A O 0.5875(9) 0.5536(7) 0.6972(6)
H8A H 0.6389 0.6393 0.7390
Zn1_2 Zn -0.5000 -0.5000 0.5000
O1A_2 O 0.6755(6) 0.6856(6) 0.4920(6)
C7 C 0.1528(10) 0.8074(9) 0.1478(9)
C8 C 0.0765(9) 0.6451(9) 0.0766(8)
C9 C -0.0556(10) 0.5563(9) 0.1043(8)
C10 C -0.1305(9) 0.4082(9) 0.0273(8)
I3 I -0.13172(7) 0.64309(7) 0.26253(6)
I4 I -0.33668(7) 0.27670(7) 0.05964(6)
O5 O 0.1251(9) 0.9008(7) 0.1059(8)
O6 O 0.2445(7) 0.8367(7) 0.2585(6)
H9 H 0.2930 0.9258 0.2886
C7A C -0.1528(10) 0.1926(9) -0.1478(9)
C8A C -0.0765(9) 0.3549(9) -0.0766(8)
C9A C 0.0556(10) 0.4437(9) -0.1043(8)
C10A C 0.1305(9) 0.5918(9) -0.0273(8)
I3A I 0.13172(7) 0.35691(7) -0.26253(6)
I4A I 0.33668(7) 0.72330(7) -0.05964(6)
O5A O -0.1251(9) 0.0992(7) -0.1059(8)
O6A O -0.2445(7) 0.1633(7) -0.2585(6)
H9A H -0.2930 0.0742 -0.2886
C11 C 0.2543(15) 0.1889(18) 0.0040(12)
H10 H 0.2807 0.2884 -0.0021
H11 H 0.1485 0.1480 0.0040
H12 H 0.2749 0.1298 -0.0682
O7 O 0.3415(8) 0.1896(8) 0.1203(7)
H13 H 0.3967 0.1440 0.1028
loop_
_geom_bond_atom_site_label_1
_geom_bond_atom_site_label_2
_geom_bond_site_symmetry_1
_geom_bond_site_symmetry_2
Zn1 O1 1_555 1_555
C1 C2 1_555 1_555
C2 C3 1_555 1_555
C3 I1 1_555 1_555
C4 C2 1_555 1_555
C5 H1 1_555 1_555
H2 C5 1_555 1_555
H3 C5 1_555 1_555
C6 H4 1_555 1_555
H5 C6 1_555 1_555
H6 C6 1_555 1_555
I2 C4 1_555 1_555
O1 C1 1_555 1_555
O2 C1 1_555 1_555
O3 Zn1 1_555 1_555
H7 O3 1_555 1_555
O4 Zn1 1_555 1_555
H8 O4 1_555 1_555
C7 C8 1_555 1_555
C8 C9 1_555 1_555
C9 C10 1_555 1_555
C10 I4 1_555 1_555
I3 C9 1_555 1_555
O5 C7 1_555 1_555
O6 C7 1_555 1_555
H9 O6 1_555 1_555
C11 H10 1_555 1_555
H11 C11 1_555 1_555
H12 C11 1_555 1_555
O7 C11 1_555 1_555
H13 O7 1_555 1_555
C1A C2A 1_555 1_555
C2A C3A 1_555 1_555
C3A C4 1_555 1_555
C4A C3 1_555 1_555
I1A C3A 1_555 1_555
I2A C4A 1_555 1_555
O1A C1A 1_555 1_555
O2A C1A 1_555 1_555
C5A H1A 1_555 1_555
H2A C5A 1_555 1_555
H3A C5A 1_555 1_555
O3A Zn1 1_555 1_555
H7A O3A 1_555 1_555
C6A H4A 1_555 1_555
H5A C6A 1_555 1_555
H6A C6A 1_555 1_555
O4A Zn1 1_555 1_555
H8A O4A 1_555 1_555
Zn1_2 O1A 1_555 1_555
O1A_2 Zn1 1_555 1_555
C7A C8A 1_555 1_555
C8A C10 1_555 1_555
C9A C8A 1_555 1_555
C10A C8 1_555 1_555
I3A C9A 1_555 1_555
I4A C10A 1_555 1_555
O5A C7A 1_555 1_555
O6A C7A 1_555 1_555
H9A O6A 1_555 1_555
C5 O3 1_555 1_555
C6 O4 1_555 1_555
C2A C4A 1_555 1_555
C5A O3A 1_555 1_555
C6A O4A 1_555 1_555
C9A C10A 1_555 1_555

#END
