
#######################################################################
#
#                 Cambridge Crystallographic Data Centre
#                                CCDC 
#
#######################################################################
#
# If this CIF has been generated from an entry in the Cambridge 
# Structural Database, then it will include bibliographic, chemical, 
# crystal, experimental, refinement or atomic coordinate data resulting 
# from the CCDC's data processing and validation procedures.
#
#######################################################################

data_GICDAY
_symmetry_cell_setting           triclinic
_symmetry_space_group_name_H-M   'P -1'
_symmetry_Int_Tables_number      2
_space_group_name_Hall           '-P 1'
loop_
_symmetry_equiv_pos_site_id
_symmetry_equiv_pos_as_xyz
1 x,y,z
2 -x,-y,-z
_cell_length_a                   8.556(2)
_cell_length_b                   9.117(2)
_cell_length_c                   12.619(3)
_cell_angle_alpha                71.05(2)
_cell_angle_beta                 83.479(19)
_cell_angle_gamma                61.32(3)
_cell_volume                     815.715
loop_
_atom_site_label
_atom_site_type_symbol
_atom_site_fract_x
_atom_site_fract_y
_atom_site_fract_z
Ni1 Ni 1.00000 1.00000 0.00000
Ni2 Ni 0.84410(5) 0.31091(5) 0.33131(3)
V1 V 0.90702(6) -0.11990(6) 0.42298(4)
V2 V 1.18351(6) 0.96352(6) 0.24370(4)
V3 V 0.61919(6) 1.30616(6) 0.11380(4)
V4 V 1.51060(6) 1.02168(7) 0.30240(4)
O1 O 0.7330(2) -0.1277(3) 0.35640(17)
O2 O 0.8346(2) 0.0825(3) 0.42486(17)
O3 O 1.0986(3) 0.8272(3) 0.33835(16)
O4 O 1.0221(3) 0.2645(3) 0.45014(16)
O5 O 1.4097(3) 0.9006(3) 0.28460(18)
O6 O 1.1855(3) 0.9397(3) 0.11826(16)
O7 O 0.8074(3) 1.1730(3) 0.07166(18)
O8 O 0.5015(3) 1.1781(3) 0.17120(18)
O9 O 1.4033(3) 1.1277(3) 0.38834(19)
O10 O 1.0489(3) 0.1683(3) 0.24120(17)
O11 O 0.6629(3) 0.3595(3) 0.21644(16)
O12 O 0.50000 1.50000 0.00000
N1 N 0.8770(3) 0.5266(3) 0.23507(19)
N2 N 0.9450(3) 0.7982(3) 0.1001(2)
N3 N 0.6330(3) 0.4371(3) 0.42633(19)
C1 C 1.0384(4) 0.5155(4) 0.2362(3)
H1 H 1.1296 0.4151 0.2831
C2 C 1.0738(4) 0.6501(4) 0.1690(3)
H2 H 1.1878 0.6378 0.1716
C3 C 0.7843(4) 0.8076(4) 0.0988(2)
H3 H 0.6932 0.9074 0.0514
C4 C 0.7487(4) 0.6745(4) 0.1653(3)
H4 H 0.6349 0.6867 0.1621
C5 C 0.4963(4) 0.4018(4) 0.4438(3)
H5 H 0.49 0.3325 0.406
C6 C 0.6370(4) 0.5362(4) 0.4842(3)
H6 H 0.7303 0.5634 0.4758
Ni2A Ni 1.15590(5) 1.68909(5) -0.33131(3)
Ni2A_2 Ni 0.15590(5) 0.68909(5) 0.66869(3)
Ni2_2 Ni 0.84410(5) 1.31091(5) 0.33131(3)
V1A V 1.09298(6) 2.11990(6) -0.42298(4)
V1_2 V 0.90702(6) 0.88010(6) 0.42298(4)
V1A_2 V 1.09298(6) 0.11990(6) 0.57702(4)
V1_3 V 0.90702(6) 1.88010(6) -0.57702(4)
V1A_3 V 1.09298(6) 1.11990(6) -0.42298(4)
V1_4 V 1.90702(6) 0.88010(6) 0.42298(4)
V2A V 0.81649(6) 1.03648(6) -0.24370(4)
V2_2 V 1.18351(6) -0.03648(6) 0.24370(4)
V3A V 1.38081(6) 0.69384(6) -0.11380(4)
V3_2 V 0.61919(6) 0.30616(6) 0.11380(4)
V3A_2 V 0.38081(6) 1.69384(6) -0.11380(4)
V4A V 0.48940(6) 0.97832(7) -0.30240(4)
V4_2 V 0.51060(6) 0.02168(7) 0.30240(4)
V4_3 V 0.51060(6) 1.02168(7) 0.30240(4)
V4A_2 V 1.48940(6) 0.97832(7) -0.30240(4)
O1_2 O 1.7330(2) 0.8723(3) 0.35640(17)
O1A O 1.2670(2) 2.1277(3) -0.35640(17)
O1A_2 O 0.2670(2) 1.1277(3) -0.35640(17)
O2A O 1.1654(2) 1.9175(3) -0.42486(17)
O3A O 0.9014(3) 1.1728(3) -0.33835(16)
O3_2 O 1.0986(3) -0.1728(3) 0.33835(16)
O3A_2 O 0.9014(3) 2.1728(3) -0.33835(16)
O4A O 0.9779(3) 1.7355(3) -0.45014(16)
O4A_2 O 0.9779(3) -0.2645(3) 0.54986(16)
O4_2 O 1.0221(3) 2.2645(3) -0.54986(16)
O5A O 0.5903(3) 1.0994(3) -0.28460(18)
O6A O 0.8145(3) 1.0603(3) -0.11826(16)
O7A O 1.1926(3) 0.8270(3) -0.07166(18)
O8A O 1.4985(3) 0.8219(3) -0.17120(18)
O8_2 O 1.5015(3) 1.1781(3) 0.17120(18)
O8A_2 O 0.4985(3) 0.8219(3) -0.17120(18)
O9A O 0.5967(3) 0.8723(3) -0.38834(19)
O10_2 O 1.0489(3) 1.1683(3) 0.24120(17)
O10A O 0.9511(3) 1.8317(3) -0.24120(17)
O10A_2 O 0.9511(3) 0.8317(3) -0.24120(17)
O11_2 O 0.6629(3) 1.3595(3) 0.21644(16)
O11A O 1.3371(3) 1.6405(3) -0.21644(16)
O11A_2 O 1.3371(3) 0.6405(3) -0.21644(16)
O12_2 O 1.50000 0.50000 0.00000
N1A N 1.1230(3) 1.4734(3) -0.23507(19)
N2A N 1.0550(3) 1.2018(3) -0.1001(2)
N3A N 0.3670(3) 0.5629(3) 0.57367(19)
N3A_2 N 1.3670(3) 1.5629(3) -0.42633(19)
C1A C 0.9616(4) 1.4845(4) -0.2362(3)
H1A H 0.8704 1.5849 -0.2831
C2A C 0.9262(4) 1.3499(4) -0.1690(3)
H2A H 0.8122 1.3622 -0.1716
C3A C 1.2157(4) 1.1924(4) -0.0988(2)
H3A H 1.3068 1.0926 -0.0514
C4A C 1.2513(4) 1.3255(4) -0.1653(3)
H4A H 1.3651 1.3133 -0.1621
C5A C 0.5037(4) 0.5982(4) 0.5562(3)
H5A H 0.51 0.6675 0.594
C6A C 0.3630(4) 0.4638(4) 0.5158(3)
H6A H 0.2697 0.4366 0.5242
loop_
_geom_bond_atom_site_label_1
_geom_bond_atom_site_label_2
_geom_bond_site_symmetry_1
_geom_bond_site_symmetry_2
Ni1 O6 1_555 1_555
Ni2 O2 1_555 1_555
V1 O1 1_555 1_555
V2 O3 1_555 1_555
V3 O7 1_555 1_555
V4 O5 1_555 1_555
O1 V4_2 1_555 1_555
O2 V1 1_555 1_555
O3 V1_2 1_555 1_555
O4 Ni2 1_555 1_555
O5 V2 1_555 1_555
O6 V2 1_555 1_555
O7 Ni1 1_555 1_555
O8 V3 1_555 1_555
O9 V4 1_555 1_555
O10 Ni2 1_555 1_555
O11 Ni2 1_555 1_555
O12 V3 1_555 1_555
N1 Ni2 1_555 1_555
N2 Ni1 1_555 1_555
N3 Ni2 1_555 1_555
C1 N1 1_555 1_555
H1 C1 1_555 1_555
C2 N2 1_555 1_555
H2 C2 1_555 1_555
C3 N2 1_555 1_555
H3 C3 1_555 1_555
C4 N1 1_555 1_555
H4 C4 1_555 1_555
C5 N3 1_555 1_555
H5 C5 1_555 1_555
C6 N3 1_555 1_555
H6 C6 1_555 1_555
Ni2A O2A 1_555 1_555
Ni2A_2 N3A 1_555 1_555
Ni2_2 O10_2 1_555 1_555
V1A O1A 1_555 1_555
V1A_2 O4 1_555 1_555
V1_3 O4A 1_555 1_555
V1A_3 O3A 1_555 1_555
V1_4 O1_2 1_555 1_555
V2A O3A 1_555 1_555
V2_2 O10 1_555 1_555
V3A O7A 1_555 1_555
V3_2 O11 1_555 1_555
V3A_2 O12 1_555 1_555
V4A O1A_2 1_555 1_555
V4_3 O8 1_555 1_555
V4A_2 O8A 1_555 1_555
O1_2 V4 1_555 1_555
O2A V1A 1_555 1_555
O3_2 V1 1_555 1_555
O3A_2 V1A 1_555 1_555
O4A Ni2A 1_555 1_555
O4A_2 V1 1_555 1_555
O4_2 V1A 1_555 1_555
O5A V2A 1_555 1_555
O6A Ni1 1_555 1_555
O7A Ni1 1_555 1_555
O8A V3A 1_555 1_555
O8_2 V4 1_555 1_555
O8A_2 V4A 1_555 1_555
O9A V4A 1_555 1_555
O10_2 V2 1_555 1_555
O10A Ni2A 1_555 1_555
O10A_2 V2A 1_555 1_555
O11_2 V3 1_555 1_555
O11A Ni2A 1_555 1_555
O11A_2 V3A 1_555 1_555
O12_2 V3A 1_555 1_555
N1A Ni2A 1_555 1_555
N2A Ni1 1_555 1_555
N3A C5A 1_555 1_555
N3A_2 Ni2A 1_555 1_555
C1A N1A 1_555 1_555
H1A C1A 1_555 1_555
C2A N2A 1_555 1_555
H2A C2A 1_555 1_555
C3A N2A 1_555 1_555
H3A C3A 1_555 1_555
C4A N1A 1_555 1_555
H4A C4A 1_555 1_555
C5A C6 1_555 1_555
H5A C5A 1_555 1_555
C6A C5 1_555 1_555
H6A C6A 1_555 1_555
C1 C2 1_555 1_555
C3 C4 1_555 1_555
Ni2_2 O11_2 1_555 1_555
V2A O6A 1_555 1_555
V2_2 O3_2 1_555 1_555
V4A O5A 1_555 1_555
N3A C6A 1_555 1_555
C1A C2A 1_555 1_555
C3A C4A 1_555 1_555

#END
