
#######################################################################
#
#                 Cambridge Crystallographic Data Centre
#                                CCDC 
#
#######################################################################
#
# If this CIF has been generated from an entry in the Cambridge 
# Structural Database, then it will include bibliographic, chemical, 
# crystal, experimental, refinement or atomic coordinate data resulting 
# from the CCDC's data processing and validation procedures.
#
#######################################################################

data_GICDUT
_symmetry_cell_setting           monoclinic
_symmetry_space_group_name_H-M   'P 21/n'
_symmetry_Int_Tables_number      14
_space_group_name_Hall           '-P 2yn'
loop_
_symmetry_equiv_pos_site_id
_symmetry_equiv_pos_as_xyz
1 x,y,z
2 1/2-x,1/2+y,1/2-z
3 -x,-y,-z
4 1/2+x,1/2-y,1/2+z
_cell_length_a                   8.7283(19)
_cell_length_b                   13.662(3)
_cell_length_c                   11.414(3)
_cell_angle_alpha                90
_cell_angle_beta                 100.087(4)
_cell_angle_gamma                90
_cell_volume                     1340.04
loop_
_atom_site_label
_atom_site_type_symbol
_atom_site_fract_x
_atom_site_fract_y
_atom_site_fract_z
Zn1 Zn 0.0000 0.5000 0.5000
C1 C -0.0956(10) 0.4798(6) 0.7394(6)
C2 C -0.0464(8) 0.4895(6) 0.8758(6)
C3 C 0.0389(9) 0.4164(5) 0.9432(6)
C4 C 0.0861(9) 0.4258(5) 1.0655(6)
C5 C 0.3538(13) 0.5039(11) 0.6064(11)
H1 H 0.3204 0.4877 0.6798
H2 H 0.4438 0.5454 0.6224
H3 H 0.3794 0.4450 0.5682
C6 C 0.0325(12) 0.2902(7) 0.4545(9)
H4 H -0.0417 0.3072 0.3888
C7 C 0.0162(19) 0.1255(9) 0.3727(13)
H5 H -0.0687 0.0911 0.3972
H6 H 0.0967 0.0799 0.3630
H7 H -0.0199 0.1581 0.2984
C8 C 0.192(2) 0.1666(13) 0.5680(16)
H8 H 0.2373 0.2233 0.6102
H9 H 0.2717 0.1281 0.5425
H10 H 0.1397 0.1281 0.6196
I1 I 0.08073(9) 0.28832(5) 0.85378(6)
I2 I 0.21911(10) 0.31806(6) 1.16640(6)
N1 N 0.0780(11) 0.1979(6) 0.4631(9)
O1 O 0.0041(7) 0.5115(5) 0.6827(5)
O2 O -0.2217(8) 0.4420(7) 0.7024(5)
O3 O 0.2336(7) 0.5530(5) 0.5317(5)
H11 H 0.2500 0.5532 0.4631
O4 O 0.0795(9) 0.3550(5) 0.5251(5)
C1B C 0.0956(10) 0.5202(6) 1.2606(6)
C2B C 0.0464(8) 0.5105(6) 1.1242(6)
C3B C -0.0389(9) 0.5836(5) 1.0568(6)
C4B C -0.0861(9) 0.5742(5) 0.9345(6)
I1B I -0.08073(9) 0.71168(5) 1.14622(6)
I2B I -0.21911(10) 0.68194(6) 0.83360(6)
O1B O -0.0041(7) 0.4885(5) 1.3173(5)
O2B O 0.2217(8) 0.5580(7) 1.2976(5)
C5B C -0.3538(13) 0.4961(11) 0.3936(11)
H1B H -0.3204 0.5123 0.3202
H2B H -0.4438 0.4546 0.3776
H3B H -0.3794 0.5550 0.4318
C6B C -0.0325(12) 0.7098(7) 0.5455(9)
H4B H 0.0417 0.6928 0.6112
C7B C -0.0162(19) 0.8745(9) 0.6273(13)
H5B H 0.0687 0.9089 0.6028
H6B H -0.0967 0.9201 0.6370
H7B H 0.0199 0.8419 0.7016
C8B C -0.192(2) 0.8334(13) 0.4320(16)
H8B H -0.2373 0.7767 0.3898
H9B H -0.2717 0.8719 0.4575
H10B H -0.1397 0.8719 0.3804
N1B N -0.0780(11) 0.8021(6) 0.5369(9)
O3B O -0.2336(7) 0.4470(5) 0.4683(5)
H11B H -0.2500 0.4468 0.5369
O4B O -0.0795(9) 0.6450(5) 0.4749(5)
Zn1_2 Zn 0.0000 0.5000 1.5000
O1B_2 O -0.0041(7) 0.4885(5) 0.3173(5)
loop_
_geom_bond_atom_site_label_1
_geom_bond_atom_site_label_2
_geom_bond_site_symmetry_1
_geom_bond_site_symmetry_2
Zn1 O1 1_555 1_555
C1 C2 1_555 1_555
C2 C3 1_555 1_555
C3 C4 1_555 1_555
C4 I2 1_555 1_555
C5 H1 1_555 1_555
H2 C5 1_555 1_555
H3 C5 1_555 1_555
C6 H4 1_555 1_555
C7 H5 1_555 1_555
H6 C7 1_555 1_555
H7 C7 1_555 1_555
C8 H8 1_555 1_555
H9 C8 1_555 1_555
H10 C8 1_555 1_555
I1 C3 1_555 1_555
N1 C6 1_555 1_555
O1 C1 1_555 1_555
O2 C1 1_555 1_555
O3 Zn1 1_555 1_555
H11 O3 1_555 1_555
O4 Zn1 1_555 1_555
C1B C2B 1_555 1_555
C2B C4 1_555 1_555
C3B C2B 1_555 1_555
C4B C2 1_555 1_555
I1B C3B 1_555 1_555
I2B C4B 1_555 1_555
O1B C1B 1_555 1_555
O2B C1B 1_555 1_555
C5B H1B 1_555 1_555
H2B C5B 1_555 1_555
H3B C5B 1_555 1_555
C6B H4B 1_555 1_555
C7B H5B 1_555 1_555
H6B C7B 1_555 1_555
H7B C7B 1_555 1_555
C8B H8B 1_555 1_555
H9B C8B 1_555 1_555
H10B C8B 1_555 1_555
N1B C6B 1_555 1_555
O3B Zn1 1_555 1_555
H11B O3B 1_555 1_555
O4B Zn1 1_555 1_555
Zn1_2 O1B 1_555 1_555
O1B_2 Zn1 1_555 1_555
C5 O3 1_555 1_555
C6 O4 1_555 1_555
C7 N1 1_555 1_555
C8 N1 1_555 1_555
C3B C4B 1_555 1_555
C5B O3B 1_555 1_555
C6B O4B 1_555 1_555
C7B N1B 1_555 1_555
C8B N1B 1_555 1_555

#END
