
#######################################################################
#
#                 Cambridge Crystallographic Data Centre
#                                CCDC 
#
#######################################################################
#
# If this CIF has been generated from an entry in the Cambridge 
# Structural Database, then it will include bibliographic, chemical, 
# crystal, experimental, refinement or atomic coordinate data resulting 
# from the CCDC's data processing and validation procedures.
#
#######################################################################

data_GICDAZ
_symmetry_cell_setting           triclinic
_symmetry_space_group_name_H-M   'P -1'
_symmetry_Int_Tables_number      2
_space_group_name_Hall           '-P 1'
loop_
_symmetry_equiv_pos_site_id
_symmetry_equiv_pos_as_xyz
1 x,y,z
2 -x,-y,-z
_cell_length_a                   9.6110(5)
_cell_length_b                   10.0099(5)
_cell_length_c                   10.9078(5)
_cell_angle_alpha                102.8110(10)
_cell_angle_beta                 97.3020(10)
_cell_angle_gamma                109.3990(10)
_cell_volume                     941.901
loop_
_atom_site_label
_atom_site_type_symbol
_atom_site_fract_x
_atom_site_fract_y
_atom_site_fract_z
Co1 Co 0.5000 0.5000 0.5000
I1 I -0.00426(4) 0.18622(4) 0.26502(3)
I2 I -0.35018(4) -0.02200(4) 0.34115(4)
O1 O 0.3238(4) 0.3142(3) 0.5078(3)
O2 O 0.3490(4) 0.1213(4) 0.3749(3)
O3 O 0.6232(4) 0.3649(4) 0.4608(4)
H1 H 0.5727 0.2774 0.4250
O4 O 0.5864(5) 0.5536(4) 0.6951(4)
H2 H 0.6009 0.6347 0.7434
C1 C 0.2800(5) 0.1779(5) 0.4470(4)
C2 C 0.1355(5) 0.0831(5) 0.4719(4)
C3 C -0.0043(5) 0.0761(5) 0.4066(4)
C4 C -0.1380(5) -0.0066(5) 0.4358(5)
C5 C 0.7759(7) 0.3911(7) 0.5031(8)
H3 H 0.8306 0.4948 0.5425
H4 H 0.8161 0.3583 0.4310
H5 H 0.7859 0.3380 0.5649
C6 C 0.5920(10) 0.4535(8) 0.7688(7)
H6 H 0.6054 0.3699 0.7165
H7 H 0.4993 0.4209 0.7975
H8 H 0.6751 0.5024 0.8421
I1A I 0.00426(4) -0.18622(4) 0.73498(3)
I2A I 0.35018(4) 0.02200(4) 0.65885(4)
O1A O -0.3238(4) -0.3142(3) 0.4922(3)
O2A O -0.3490(4) -0.1213(4) 0.6251(3)
C1A C -0.2800(5) -0.1779(5) 0.5530(4)
C2A C -0.1355(5) -0.0831(5) 0.5281(4)
C3A C 0.0043(5) -0.0761(5) 0.5934(4)
C4A C 0.1380(5) 0.0066(5) 0.5642(5)
O3A O 0.3768(4) 0.6351(4) 0.5392(4)
H1A H 0.4273 0.7226 0.5750
C5A C 0.2241(7) 0.6089(7) 0.4969(8)
H3A H 0.1694 0.5052 0.4575
H4A H 0.1839 0.6417 0.5690
H5A H 0.2141 0.6620 0.4351
O4A O 0.4136(5) 0.4464(4) 0.3049(4)
H2A H 0.3991 0.3653 0.2566
C6A C 0.4080(10) 0.5465(8) 0.2312(7)
H6A H 0.3946 0.6301 0.2835
H7A H 0.5007 0.5791 0.2025
H8A H 0.3249 0.4976 0.1579
Co1_2 Co -0.5000 -0.5000 0.5000
O1A_2 O 0.6762(4) 0.6858(3) 0.4922(3)
I3 I 0.33655(4) 0.72186(4) -0.06040(4)
I4 I 0.13135(4) 0.35583(4) -0.26342(4)
O5 O 0.1271(5) 0.8996(4) 0.1045(4)
O6 O 0.2430(4) 0.8364(4) 0.2594(4)
H9 H 0.2811 0.9257 0.2937
C7 C 0.1521(6) 0.8090(6) 0.1488(5)
C8 C 0.0776(6) 0.6470(6) 0.0773(5)
C9 C 0.1307(6) 0.5895(5) -0.0285(5)
C10 C 0.0533(6) 0.4412(6) -0.1051(5)
I3A I -0.33655(4) 0.27814(4) 0.06040(4)
I4A I -0.13135(4) 0.64417(4) 0.26342(4)
O5A O -0.1271(5) 0.1004(4) -0.1045(4)
O6A O -0.2430(4) 0.1636(4) -0.2594(4)
H9A H -0.2811 0.0743 -0.2937
C7A C -0.1521(6) 0.1910(6) -0.1488(5)
C8A C -0.0776(6) 0.3530(6) -0.0773(5)
C9A C -0.1307(6) 0.4105(5) 0.0285(5)
C10A C -0.0533(6) 0.5588(6) 0.1051(5)
O7 O 0.6582(5) 0.8109(4) 0.8800(4)
H10 H 0.7038 0.8816 0.8554
C11 C 0.7438(8) 0.8122(9) 0.9965(7)
H11 H 0.8479 0.8375 0.9913
H12 H 0.7060 0.7162 1.0100
H13 H 0.7354 0.8837 1.0671
loop_
_geom_bond_atom_site_label_1
_geom_bond_atom_site_label_2
_geom_bond_site_symmetry_1
_geom_bond_site_symmetry_2
Co1 O1 1_555 1_555
I1 C3 1_555 1_555
I2 C4 1_555 1_555
O1 C1 1_555 1_555
O2 C1 1_555 1_555
O3 Co1 1_555 1_555
H1 O3 1_555 1_555
O4 Co1 1_555 1_555
H2 O4 1_555 1_555
C1 C2 1_555 1_555
C2 C3 1_555 1_555
C3 C4 1_555 1_555
C4 C2A 1_555 1_555
C5 O3 1_555 1_555
H3 C5 1_555 1_555
H4 C5 1_555 1_555
H5 C5 1_555 1_555
C6 O4 1_555 1_555
H6 C6 1_555 1_555
H7 C6 1_555 1_555
H8 C6 1_555 1_555
I3 C9 1_555 1_555
I4 C10 1_555 1_555
O5 C7 1_555 1_555
O6 H9 1_555 1_555
C7 O6 1_555 1_555
C8 C7 1_555 1_555
C9 C8 1_555 1_555
C10 C9 1_555 1_555
O7 H10 1_555 1_555
C11 O7 1_555 1_555
H11 C11 1_555 1_555
H12 C11 1_555 1_555
H13 C11 1_555 1_555
I1A C3A 1_555 1_555
I2A C4A 1_555 1_555
O1A C1A 1_555 1_555
O2A C1A 1_555 1_555
C1A C2A 1_555 1_555
C2A C3A 1_555 1_555
C3A C4A 1_555 1_555
C4A C2 1_555 1_555
O3A Co1 1_555 1_555
H1A O3A 1_555 1_555
C5A O3A 1_555 1_555
H3A C5A 1_555 1_555
H4A C5A 1_555 1_555
H5A C5A 1_555 1_555
O4A Co1 1_555 1_555
H2A O4A 1_555 1_555
C6A O4A 1_555 1_555
H6A C6A 1_555 1_555
H7A C6A 1_555 1_555
H8A C6A 1_555 1_555
Co1_2 O1A 1_555 1_555
O1A_2 Co1 1_555 1_555
I3A C9A 1_555 1_555
I4A C10A 1_555 1_555
O5A C7A 1_555 1_555
O6A H9A 1_555 1_555
C7A O6A 1_555 1_555
C8A C10 1_555 1_555
C9A C8A 1_555 1_555
C10A C8 1_555 1_555
C7A C8A 1_555 1_555
C9A C10A 1_555 1_555

#END
