
#######################################################################
#
#                 Cambridge Crystallographic Data Centre
#                                CCDC 
#
#######################################################################
#
# If this CIF has been generated from an entry in the Cambridge 
# Structural Database, then it will include bibliographic, chemical, 
# crystal, experimental, refinement or atomic coordinate data resulting 
# from the CCDC's data processing and validation procedures.
#
#######################################################################

data_GICDON
_symmetry_cell_setting           monoclinic
_symmetry_space_group_name_H-M   'P 21/n'
_symmetry_Int_Tables_number      14
_space_group_name_Hall           '-P 2yn'
loop_
_symmetry_equiv_pos_site_id
_symmetry_equiv_pos_as_xyz
1 x,y,z
2 1/2-x,1/2+y,1/2-z
3 -x,-y,-z
4 1/2+x,1/2-y,1/2+z
_cell_length_a                   8.6995(19)
_cell_length_b                   13.801(3)
_cell_length_c                   11.539(2)
_cell_angle_alpha                90
_cell_angle_beta                 101.913(4)
_cell_angle_gamma                90
_cell_volume                     1355.55
loop_
_atom_site_label
_atom_site_type_symbol
_atom_site_fract_x
_atom_site_fract_y
_atom_site_fract_z
Mn1 Mn 0.5000 0.0000 1.0000
C1 C 0.5958(14) 0.0182(9) 0.7591(10)
C2 C 0.5466(12) 0.0096(8) 0.6228(9)
C3 C 0.4608(12) 0.0818(8) 0.5550(9)
C4 C 0.4115(12) 0.0724(8) 0.4342(10)
C5 C 0.4603(15) 0.2145(10) 1.0441(12)
H1 H 0.5334 0.1997 1.1127
C6 C 0.301(3) 0.3344(17) 0.922(2)
H2 H 0.3571 0.3445 0.8593
H3 H 0.2511 0.3936 0.9371
H4 H 0.2234 0.2850 0.8989
C7 C 0.467(3) 0.3820(14) 1.115(2)
H5 H 0.5297 0.3558 1.1861
H6 H 0.3769 0.4144 1.1335
H7 H 0.5276 0.4274 1.0804
C8 C 0.868(2) 0.0005(19) 1.1086(16)
H8 H 0.8844 0.0263 1.1875
H9 H 0.9624 0.0063 1.0789
H10 H 0.8386 -0.0666 1.1099
I1 I 0.41319(12) 0.20718(7) 0.64459(9)
I2 I 0.27687(13) 0.17979(8) 0.33191(8)
N1 N 0.4137(15) 0.3036(9) 1.0311(13)
O1 O 0.4944(10) -0.0128(7) 0.8130(7)
O2 O 0.7227(11) 0.0553(9) 0.7987(7)
O3 O 0.7429(10) 0.0538(7) 1.0328(8)
H11 H 0.7536 0.0509 0.9639
O4 O 0.4177(12) 0.1475(7) 0.9750(8)
C1B C 0.4042(14) -0.0182(9) 0.2409(10)
C2B C 0.4534(12) -0.0096(8) 0.3772(9)
C3B C 0.5392(12) -0.0818(8) 0.4450(9)
C4B C 0.5885(12) -0.0724(8) 0.5658(10)
I1B I 0.58681(12) -0.20718(7) 0.35541(9)
I2B I 0.72313(13) -0.17979(8) 0.66809(8)
O1B O 0.5056(10) 0.0128(7) 0.1870(7)
O2B O 0.2773(11) -0.0553(9) 0.2013(7)
C5B C 0.5397(15) -0.2145(10) 0.9559(12)
H1B H 0.4666 -0.1997 0.8873
C6B C 0.699(3) -0.3344(17) 1.078(2)
H2B H 0.6429 -0.3445 1.1407
H3B H 0.7489 -0.3936 1.0629
H4B H 0.7766 -0.2850 1.1011
C7B C 0.533(3) -0.3820(14) 0.885(2)
H5B H 0.4703 -0.3558 0.8139
H6B H 0.6231 -0.4144 0.8665
H7B H 0.4724 -0.4274 0.9196
N1B N 0.5863(15) -0.3036(9) 0.9689(13)
O4B O 0.5823(12) -0.1475(7) 1.0250(8)
C8B C 0.132(2) -0.0005(19) 0.8914(16)
H8B H 0.1156 -0.0263 0.8125
H9B H 0.0376 -0.0063 0.9211
H10B H 0.1614 0.0666 0.8901
O3B O 0.2571(10) -0.0538(7) 0.9672(8)
H11B H 0.2464 -0.0509 1.0361
Mn1_2 Mn 0.5000 0.0000 0.0000
O1B_2 O 0.5056(10) 0.0128(7) 1.1870(7)
loop_
_geom_bond_atom_site_label_1
_geom_bond_atom_site_label_2
_geom_bond_site_symmetry_1
_geom_bond_site_symmetry_2
Mn1 O1 1_555 1_555
C1 C2 1_555 1_555
C2 C3 1_555 1_555
C3 C4 1_555 1_555
C4 I2 1_555 1_555
C5 H1 1_555 1_555
C6 H2 1_555 1_555
H3 C6 1_555 1_555
H4 C6 1_555 1_555
C7 H5 1_555 1_555
H6 C7 1_555 1_555
H7 C7 1_555 1_555
C8 H8 1_555 1_555
H9 C8 1_555 1_555
H10 C8 1_555 1_555
I1 C3 1_555 1_555
N1 C5 1_555 1_555
O1 C1 1_555 1_555
O2 C1 1_555 1_555
O3 Mn1 1_555 1_555
H11 O3 1_555 1_555
O4 Mn1 1_555 1_555
C1B C2B 1_555 1_555
C2B C4 1_555 1_555
C3B C2B 1_555 1_555
C4B C2 1_555 1_555
I1B C3B 1_555 1_555
I2B C4B 1_555 1_555
O1B C1B 1_555 1_555
O2B C1B 1_555 1_555
C5B H1B 1_555 1_555
C6B H2B 1_555 1_555
H3B C6B 1_555 1_555
H4B C6B 1_555 1_555
C7B H5B 1_555 1_555
H6B C7B 1_555 1_555
H7B C7B 1_555 1_555
N1B C5B 1_555 1_555
O4B Mn1 1_555 1_555
C8B H8B 1_555 1_555
H9B C8B 1_555 1_555
H10B C8B 1_555 1_555
O3B Mn1 1_555 1_555
H11B O3B 1_555 1_555
Mn1_2 O1B 1_555 1_555
O1B_2 Mn1 1_555 1_555
C5 O4 1_555 1_555
C6 N1 1_555 1_555
C7 N1 1_555 1_555
C8 O3 1_555 1_555
C3B C4B 1_555 1_555
C5B O4B 1_555 1_555
C6B N1B 1_555 1_555
C7B N1B 1_555 1_555
C8B O3B 1_555 1_555

#END
