
#######################################################################
#
#                 Cambridge Crystallographic Data Centre
#                                CCDC 
#
#######################################################################
#
# If this CIF has been generated from an entry in the Cambridge 
# Structural Database, then it will include bibliographic, chemical, 
# crystal, experimental, refinement or atomic coordinate data resulting 
# from the CCDC's data processing and validation procedures.
#
#######################################################################

data_GICHIL
_symmetry_cell_setting           monoclinic
_symmetry_space_group_name_H-M   'P 21'
_symmetry_Int_Tables_number      4
_space_group_name_Hall           'P 2yb'
loop_
_symmetry_equiv_pos_site_id
_symmetry_equiv_pos_as_xyz
1 x,y,z
2 -x,1/2+y,-z
_cell_length_a                   9.9316(10)
_cell_length_b                   17.0639(17)
_cell_length_c                   10.3409(11)
_cell_angle_alpha                90
_cell_angle_beta                 101.872(2)
_cell_angle_gamma                90
_cell_volume                     1715
loop_
_atom_site_label
_atom_site_type_symbol
_atom_site_fract_x
_atom_site_fract_y
_atom_site_fract_z
Co1 Co 0.91841(3) 0.376501(16) 0.09724(3)
K1 K 0.51280(5) 0.31567(3) 0.50649(5)
N1 N 0.89992(19) 0.49909(11) 0.05568(19)
C1 C 0.7555(2) 0.51495(13) 0.0527(2)
C2 C 0.6893(2) 0.46580(13) 0.1291(2)
C3 C 0.5515(3) 0.48023(15) 0.1325(2)
H1 H 0.5049 0.4478 0.1838
C4 C 0.4829(3) 0.54253(16) 0.0601(3)
H2 H 0.3893 0.5523 0.0626
C5 C 0.5485(3) 0.59015(15) -0.0150(3)
H3 H 0.5004 0.6324 -0.0635
C6 C 0.6848(3) 0.57629(14) -0.0195(2)
H4 H 0.7299 0.6087 -0.0719
N2 N 0.7669(2) 0.40033(11) 0.18911(19)
O1 O 0.6589(2) 0.38995(13) 0.36702(19)
C7 C 0.7400(2) 0.36981(17) 0.2979(2)
C8 C 0.8246(3) 0.29593(17) 0.3489(3)
F1 F 0.90582(18) 0.26908(9) 0.27120(16)
F2 F 0.7454(2) 0.23831(13) 0.3666(3)
F3 F 0.9087(3) 0.30992(15) 0.46274(19)
C9 C 0.9935(2) 0.53500(14) 0.1671(2)
C10 C 1.0999(2) 0.48870(14) 0.2389(2)
C11 C 1.1881(3) 0.52236(16) 0.3469(3)
H5 H 1.2613 0.4924 0.3969
C12 C 1.1696(3) 0.59920(18) 0.3815(3)
H6 H 1.2311 0.6215 0.4548
C13 C 1.0635(3) 0.64433(17) 0.3118(3)
H7 H 1.0517 0.6970 0.3369
C14 C 0.9753(3) 0.61155(15) 0.2054(3)
H8 H 0.9010 0.6417 0.1576
N3 N 1.10339(19) 0.40881(12) 0.19660(19)
O2 O 1.32477(17) 0.37935(14) 0.31189(18)
C15 C 1.2135(2) 0.36492(15) 0.2394(2)
C16 C 1.2014(3) 0.27919(15) 0.1889(3)
F4 F 1.31006(16) 0.26025(10) 0.13852(17)
F5 F 1.08902(15) 0.26419(9) 0.09433(15)
F6 F 1.19691(18) 0.22998(10) 0.28773(18)
C17 C 0.9402(2) 0.50398(13) -0.0709(2)
C18 C 0.9081(2) 0.43886(14) -0.1544(2)
C19 C 0.9378(3) 0.44162(16) -0.2801(3)
H9 H 0.9132 0.3989 -0.3392
C20 C 1.0032(3) 0.50652(17) -0.3190(3)
H10 H 1.0230 0.5082 -0.4051
C21 C 1.0400(3) 0.56873(17) -0.2340(3)
H11 H 1.0879 0.6121 -0.2604
C22 C 1.0074(3) 0.56814(15) -0.1104(3)
H12 H 1.0309 0.6116 -0.0526
N4 N 0.85560(17) 0.37204(13) -0.09830(17)
O3 O 0.7136(2) 0.33086(12) -0.29210(17)
C23 C 0.7643(2) 0.32609(14) -0.1744(2)
C24 C 0.7100(3) 0.25894(15) -0.0996(2)
F7 F 0.79837(17) 0.23509(9) 0.00939(18)
F8 F 0.59866(18) 0.28122(12) -0.0566(2)
F9 F 0.6768(3) 0.19713(12) -0.1736(2)
O4 O 0.4908(2) 0.16068(12) 0.49785(19)
C25 C 0.4330(3) 0.1219(2) 0.5964(3)
H13 H 0.4057 0.1605 0.6578
H14 H 0.5001 0.0849 0.6479
C26 C 0.3104(4) 0.0792(2) 0.5222(3)
H15 H 0.2289 0.1139 0.5017
H16 H 0.2885 0.0331 0.5724
C27 C 0.3570(5) 0.0545(3) 0.3977(4)
H17 H 0.3882 -0.0007 0.4042
H18 H 0.2811 0.0601 0.3195
C28 C 0.4738(3) 0.1086(2) 0.3875(3)
H19 H 0.5592 0.0782 0.3897
H20 H 0.4524 0.1385 0.3037
O5 O 0.3576(2) 0.36328(17) 0.6683(2)
C29 C 0.3737(3) 0.41623(19) 0.7771(3)
H21 H 0.3367 0.4685 0.7468
H22 H 0.4723 0.4220 0.8187
C30 C 0.2945(3) 0.3820(2) 0.8755(3)
H23 H 0.2260 0.4199 0.8951
H24 H 0.3578 0.3674 0.9590
C31 C 0.2232(3) 0.3088(2) 0.8047(3)
H25 H 0.2733 0.2603 0.8381
H26 H 0.1269 0.3047 0.8161
C32 C 0.2291(3) 0.3233(2) 0.6640(4)
H27 H 0.2267 0.2733 0.6151
H28 H 0.1508 0.3562 0.6204
K1_2 K 0.51280(5) 0.31567(3) -0.49351(5)
K1_3 K 1.51280(5) 0.31567(3) 0.50649(5)
O2_2 O 0.32477(17) 0.37935(14) 0.31189(18)
O3_2 O 0.7136(2) 0.33086(12) 0.70790(17)
loop_
_geom_bond_atom_site_label_1
_geom_bond_atom_site_label_2
_geom_bond_site_symmetry_1
_geom_bond_site_symmetry_2
Co1 N1 1_555 1_555
K1 O1 1_555 1_555
N1 C1 1_555 1_555
C1 C2 1_555 1_555
C2 C3 1_555 1_555
C3 H1 1_555 1_555
C4 C3 1_555 1_555
H2 C4 1_555 1_555
C5 C4 1_555 1_555
H3 C5 1_555 1_555
C6 C1 1_555 1_555
H4 C6 1_555 1_555
N2 Co1 1_555 1_555
O1 C7 1_555 1_555
C7 N2 1_555 1_555
C8 C7 1_555 1_555
F1 C8 1_555 1_555
F2 C8 1_555 1_555
F3 C8 1_555 1_555
C9 N1 1_555 1_555
C10 C9 1_555 1_555
C11 C10 1_555 1_555
H5 C11 1_555 1_555
C12 C11 1_555 1_555
H6 C12 1_555 1_555
C13 C12 1_555 1_555
H7 C13 1_555 1_555
C14 C9 1_555 1_555
H8 C14 1_555 1_555
N3 Co1 1_555 1_555
O2 C15 1_555 1_555
C15 N3 1_555 1_555
C16 C15 1_555 1_555
F4 C16 1_555 1_555
F5 C16 1_555 1_555
F6 C16 1_555 1_555
C17 N1 1_555 1_555
C18 C17 1_555 1_555
C19 C18 1_555 1_555
H9 C19 1_555 1_555
C20 C19 1_555 1_555
H10 C20 1_555 1_555
C21 C20 1_555 1_555
H11 C21 1_555 1_555
C22 C17 1_555 1_555
H12 C22 1_555 1_555
N4 Co1 1_555 1_555
O3 C23 1_555 1_555
C23 N4 1_555 1_555
C24 C23 1_555 1_555
F7 C24 1_555 1_555
F8 C24 1_555 1_555
F9 C24 1_555 1_555
O4 K1 1_555 1_555
C25 O4 1_555 1_555
H13 C25 1_555 1_555
H14 C25 1_555 1_555
C26 C25 1_555 1_555
H15 C26 1_555 1_555
H16 C26 1_555 1_555
C27 C26 1_555 1_555
H17 C27 1_555 1_555
H18 C27 1_555 1_555
C28 O4 1_555 1_555
H19 C28 1_555 1_555
H20 C28 1_555 1_555
O5 K1 1_555 1_555
C29 O5 1_555 1_555
H21 C29 1_555 1_555
H22 C29 1_555 1_555
C30 C29 1_555 1_555
H23 C30 1_555 1_555
H24 C30 1_555 1_555
C31 C30 1_555 1_555
H25 C31 1_555 1_555
H26 C31 1_555 1_555
C32 O5 1_555 1_555
H27 C32 1_555 1_555
H28 C32 1_555 1_555
K1_2 O3 1_555 1_555
K1_3 O2 1_555 1_555
O2_2 K1 1_555 1_555
O3_2 K1 1_555 1_555
C2 N2 1_555 1_555
C5 C6 1_555 1_555
C10 N3 1_555 1_555
C13 C14 1_555 1_555
C18 N4 1_555 1_555
C21 C22 1_555 1_555
C27 C28 1_555 1_555
C31 C32 1_555 1_555

#END
