
#######################################################################
#
#                 Cambridge Crystallographic Data Centre
#                                CCDC 
#
#######################################################################
#
# If this CIF has been generated from an entry in the Cambridge 
# Structural Database, then it will include bibliographic, chemical, 
# crystal, experimental, refinement or atomic coordinate data resulting 
# from the CCDC's data processing and validation procedures.
#
#######################################################################

data_GICJEI
_symmetry_cell_setting           monoclinic
_symmetry_space_group_name_H-M   'C 2/c'
_symmetry_Int_Tables_number      15
_space_group_name_Hall           '-C 2yn'
loop_
_symmetry_equiv_pos_site_id
_symmetry_equiv_pos_as_xyz
1 x,y,z
2 1/2+x,1/2+y,z
3 -x,y,1/2-z
4 1/2-x,1/2+y,1/2-z
5 -x,-y,-z
6 1/2-x,1/2-y,-z
7 x,-y,1/2+z
8 1/2+x,1/2-y,1/2+z
_cell_length_a                   10.356(13)
_cell_length_b                   15.39(2)
_cell_length_c                   20.85(3)
_cell_angle_alpha                90
_cell_angle_beta                 91.26(2)
_cell_angle_gamma                90
_cell_volume                     3322.25
loop_
_atom_site_label
_atom_site_type_symbol
_atom_site_fract_x
_atom_site_fract_y
_atom_site_fract_z
Ni1 Ni 0.2500 0.7500 0.5000
F1 F 0.8202(3) 0.73721(19) 0.76107(13)
F2 F 0.8453(5) 0.4515(2) 0.6833(2)
N1 N 0.5259(3) 0.7926(2) 0.64422(15)
N2 N 0.4851(4) 0.7141(3) 0.6668(2)
N3 N 0.3736(3) 0.7516(2) 0.57667(16)
N4 N 0.9795(3) 0.8688(2) 0.61500(17)
N5 N 0.9891(4) 0.9348(3) 0.5722(2)
N6 N 1.1231(3) 0.8241(2) 0.54822(16)
N7 N 0.3567(3) 0.9454(2) 0.43344(18)
O1 O 0.7425(3) 0.82371(19) 0.57071(13)
H1 H 0.7262 0.8749 0.5633
O2 O 0.3619(4) 0.8765(2) 0.4595(2)
O3 O 0.3549(5) 1.0135(3) 0.4637(2)
O4 O 0.3498(6) 0.9502(3) 0.3748(2)
C1 C 0.3936(4) 0.6928(4) 0.6251(2)
H3 H 0.3461 0.6418 0.6282
C2 C 0.4591(4) 0.8132(3) 0.5913(2)
H4 H 0.4706 0.8638 0.5677
C3 C 0.6361(4) 0.8384(3) 0.6732(2)
H5 H 0.6444 0.8236 0.7183
H6 H 0.6231 0.9006 0.6697
C4 C 0.7616(4) 0.8118(3) 0.63791(19)
C5 C 0.8754(4) 0.8707(3) 0.6619(2)
H7 H 0.9079 0.8500 0.7032
H8 H 0.8452 0.9298 0.6673
C6 C 1.0778(5) 0.9045(3) 0.5337(3)
H9 H 1.1073 0.9362 0.4989
C7 C 1.0588(4) 0.8046(3) 0.6002(2)
H10 H 1.0679 0.7531 0.6232
C8 C 0.7905(4) 0.7152(3) 0.6495(2)
C9 C 0.8150(4) 0.6804(3) 0.7102(2)
C10 C 0.8345(5) 0.5934(4) 0.7230(2)
H11 H 0.8516 0.5735 0.7644
C11 C 0.8275(6) 0.5375(3) 0.6718(3)
C12 C 0.8066(6) 0.5662(3) 0.6100(3)
H12 H 0.8052 0.5273 0.5758
C13 C 0.7874(5) 0.6551(3) 0.5995(2)
H13 H 0.7722 0.6747 0.5578
Ni1_2 Ni 1.2500 0.7500 0.5000
Ni1_3 Ni -0.7500 0.7500 0.5000
F1E F -0.3202(3) 0.76279(19) 0.23893(13)
F2E F -0.3453(5) 1.0485(2) 0.3167(2)
N1E N -0.0259(3) 0.7074(2) 0.35578(15)
N2E N 0.0149(4) 0.7859(3) 0.3332(2)
N3E N 0.1264(3) 0.7484(2) 0.42333(16)
N4E N -0.4795(3) 0.6312(2) 0.38500(17)
N5E N -0.4891(4) 0.5652(3) 0.4278(2)
N6E N -0.6231(3) 0.6759(2) 0.45178(16)
N6_2 N 0.1231(3) 0.8241(2) 0.54822(16)
N6E_2 N 0.3769(3) 0.6759(2) 0.45178(16)
N7E N 0.1433(3) 0.5546(2) 0.56656(18)
O1E O -0.2425(3) 0.67629(19) 0.42929(13)
H1E H -0.2262 0.6251 0.4367
O2E O 0.1381(4) 0.6235(2) 0.5405(2)
O3E O 0.1451(5) 0.4865(3) 0.5363(2)
O4E O 0.1502(6) 0.5498(3) 0.6252(2)
C1E C 0.1064(4) 0.8072(4) 0.3749(2)
H3E H 0.1539 0.8582 0.3718
C2E C 0.0409(4) 0.6868(3) 0.4087(2)
H4E H 0.0294 0.6362 0.4323
C3E C -0.1361(4) 0.6616(3) 0.3268(2)
H5E H -0.1444 0.6764 0.2817
H6E H -0.1231 0.5994 0.3303
C4E C -0.2616(4) 0.6882(3) 0.36209(19)
C5E C -0.3754(4) 0.6293(3) 0.3381(2)
H7E H -0.4079 0.6500 0.2968
H8E H -0.3452 0.5702 0.3327
C6E C -0.5778(5) 0.5955(3) 0.4663(3)
H9E H -0.6073 0.5638 0.5011
C7E C -0.5588(4) 0.6954(3) 0.3998(2)
H10E H -0.5679 0.7469 0.3768
C8E C -0.2905(4) 0.7848(3) 0.3505(2)
C9E C -0.3150(4) 0.8196(3) 0.2898(2)
C10E C -0.3345(5) 0.9066(4) 0.2770(2)
H11E H -0.3516 0.9265 0.2356
C11E C -0.3275(6) 0.9625(3) 0.3282(3)
C12E C -0.3066(6) 0.9338(3) 0.3900(3)
H12E H -0.3052 0.9727 0.4242
C13E C -0.2874(5) 0.8449(3) 0.4005(2)
H13E H -0.2722 0.8253 0.4422
O5 O 0.5000 0.5379(4) 0.7500
H2 H 0.4901 0.5715 0.7179
H2B H 0.5099 0.5715 0.7821
loop_
_geom_bond_atom_site_label_1
_geom_bond_atom_site_label_2
_geom_bond_site_symmetry_1
_geom_bond_site_symmetry_2
Ni1 N3 1_555 1_555
F1 C9 1_555 1_555
F2 C11 1_555 1_555
N1 N2 1_555 1_555
N2 C1 1_555 1_555
N3 C1 1_555 1_555
N4 N5 1_555 1_555
N5 C6 1_555 1_555
N6 C6 1_555 1_555
N7 O2 1_555 1_555
O1 H1 1_555 1_555
O2 Ni1 1_555 1_555
O3 N7 1_555 1_555
O4 N7 1_555 1_555
O5 H2 1_555 1_555
C1 H3 1_555 1_555
C2 N1 1_555 1_555
H4 C2 1_555 1_555
C3 N1 1_555 1_555
H5 C3 1_555 1_555
H6 C3 1_555 1_555
C4 O1 1_555 1_555
C5 N4 1_555 1_555
H7 C5 1_555 1_555
H8 C5 1_555 1_555
C6 H9 1_555 1_555
C7 N4 1_555 1_555
H10 C7 1_555 1_555
C8 C4 1_555 1_555
C9 C8 1_555 1_555
C10 C9 1_555 1_555
H11 C10 1_555 1_555
C11 C10 1_555 1_555
C12 C11 1_555 1_555
H12 C12 1_555 1_555
C13 C8 1_555 1_555
H13 C13 1_555 1_555
Ni1_2 N6 1_555 1_555
Ni1_3 N6E 1_555 1_555
F1E C9E 1_555 1_555
F2E C11E 1_555 1_555
N1E N2E 1_555 1_555
N2E C1E 1_555 1_555
N3E Ni1 1_555 1_555
N4E N5E 1_555 1_555
N5E C6E 1_555 1_555
N6E C6E 1_555 1_555
N6_2 Ni1 1_555 1_555
N6E_2 Ni1 1_555 1_555
N7E O2E 1_555 1_555
O1E H1E 1_555 1_555
O2E Ni1 1_555 1_555
O3E N7E 1_555 1_555
O4E N7E 1_555 1_555
H2B O5 1_555 1_555
C1E N3E 1_555 1_555
H3E C1E 1_555 1_555
C2E N1E 1_555 1_555
H4E C2E 1_555 1_555
C3E N1E 1_555 1_555
H5E C3E 1_555 1_555
H6E C3E 1_555 1_555
C4E O1E 1_555 1_555
C5E N4E 1_555 1_555
H7E C5E 1_555 1_555
H8E C5E 1_555 1_555
C6E H9E 1_555 1_555
C7E N4E 1_555 1_555
H10E C7E 1_555 1_555
C8E C4E 1_555 1_555
C9E C8E 1_555 1_555
C10E C9E 1_555 1_555
H11E C10E 1_555 1_555
C11E C10E 1_555 1_555
C12E C11E 1_555 1_555
H12E C12E 1_555 1_555
C13E C8E 1_555 1_555
H13E C13E 1_555 1_555
N3 C2 1_555 1_555
N6 C7 1_555 1_555
C3 C4 1_555 1_555
C4 C5 1_555 1_555
C12 C13 1_555 1_555
N3E C2E 1_555 1_555
N6E C7E 1_555 1_555
C3E C4E 1_555 1_555
C4E C5E 1_555 1_555
C12E C13E 1_555 1_555

#END
