
#######################################################################
#
#                 Cambridge Crystallographic Data Centre
#                                CCDC 
#
#######################################################################
#
# If this CIF has been generated from an entry in the Cambridge 
# Structural Database, then it will include bibliographic, chemical, 
# crystal, experimental, refinement or atomic coordinate data resulting 
# from the CCDC's data processing and validation procedures.
#
#######################################################################

data_GICJIN
_symmetry_cell_setting           triclinic
_symmetry_space_group_name_H-M   'P -1'
_symmetry_Int_Tables_number      2
_space_group_name_Hall           '-P 1'
loop_
_symmetry_equiv_pos_site_id
_symmetry_equiv_pos_as_xyz
1 x,y,z
2 -x,-y,-z
_cell_length_a                   9.0281(18)
_cell_length_b                   9.2297(18)
_cell_length_c                   9.812(2)
_cell_angle_alpha                99.65(3)
_cell_angle_beta                 106.33(3)
_cell_angle_gamma                119.24(3)
_cell_volume                     637.623
loop_
_atom_site_label
_atom_site_type_symbol
_atom_site_fract_x
_atom_site_fract_y
_atom_site_fract_z
C1 C 0.2475(4) 0.0771(4) 0.3164(3)
C2 C 0.3787(4) 0.0383(3) 0.4143(3)
C3 C 0.5512(4) 0.0986(4) 0.4105(3)
C4 C 0.6714(4) 0.0603(3) 0.4938(3)
C5 C 0.2526(4) 0.2102(4) -0.1235(3)
H1 H 0.1597 0.2297 -0.1605
C6 C 0.5540(4) 0.2692(4) -0.0965(4)
H2 H 0.6514 0.3403 -0.1252
H3 H 0.5057 0.1457 -0.1416
H4 H 0.6038 0.3047 0.0125
C7 C 0.4209(5) 0.4078(4) -0.2399(3)
H5 H 0.5390 0.4575 -0.2465
H6 H 0.4138 0.5025 -0.1921
H7 H 0.3210 0.3380 -0.3405
C8 C -0.0241(4) 0.3126(4) 0.1217(4)
H8 H -0.1380 0.2210 0.1238
H9 H -0.0576 0.3290 0.0253
C9 C 0.0670(5) 0.4852(4) 0.2513(4)
H10 H -0.0183 0.5205 0.2412
H11 H 0.1788 0.5763 0.2484
H12 H 0.0983 0.4685 0.3467
N1 N 0.4042(3) 0.2947(3) -0.1496(3)
O1 O 0.1523(3) -0.0290(3) 0.1793(2)
O2 O 0.2483(3) 0.2065(3) 0.3786(2)
O3 O 0.2275(3) 0.1069(3) -0.0527(2)
O4 O 0.1001(3) 0.2557(3) 0.1332(2)
Ni1 Ni 0.0000 0.0000 0.0000
Br1 Br 0.61968(4) 0.23446(4) 0.28829(3)
Br2 Br 0.90215(4) 0.13559(4) 0.48162(3)
C1A C 0.7525(4) -0.0771(4) 0.6836(3)
C2A C 0.6213(4) -0.0383(3) 0.5857(3)
C3A C 0.4488(4) -0.0986(4) 0.5895(3)
C4A C 0.3286(4) -0.0603(3) 0.5062(3)
O1A O 0.8477(3) 0.0290(3) 0.8207(2)
O2A O 0.7517(3) -0.2065(3) 0.6214(2)
Br1A Br 0.38032(4) -0.23446(4) 0.71171(3)
Br2A Br 0.09785(4) -0.13559(4) 0.51838(3)
C5A C -0.2526(4) -0.2102(4) 0.1235(3)
H1A H -0.1597 -0.2297 0.1605
C6A C -0.5540(4) -0.2692(4) 0.0965(4)
H2A H -0.6514 -0.3403 0.1252
H3A H -0.5057 -0.1457 0.1416
H4A H -0.6038 -0.3047 -0.0125
C7A C -0.4209(5) -0.4078(4) 0.2399(3)
H5A H -0.5390 -0.4575 0.2465
H6A H -0.4138 -0.5025 0.1921
H7A H -0.3210 -0.3380 0.3405
C8A C 0.0241(4) -0.3126(4) -0.1217(4)
H8A H 0.1380 -0.2210 -0.1238
H9A H 0.0576 -0.3290 -0.0253
C9A C -0.0670(5) -0.4852(4) -0.2513(4)
H10A H 0.0183 -0.5205 -0.2412
H11A H -0.1788 -0.5763 -0.2484
H12A H -0.0983 -0.4685 -0.3467
N1A N -0.4042(3) -0.2947(3) 0.1496(3)
O3A O -0.2275(3) -0.1069(3) 0.0527(2)
O4A O -0.1001(3) -0.2557(3) -0.1332(2)
O1A_2 O -0.1523(3) 0.0290(3) -0.1793(2)
Ni1_2 Ni 1.0000 0.0000 1.0000
loop_
_geom_bond_atom_site_label_1
_geom_bond_atom_site_label_2
_geom_bond_site_symmetry_1
_geom_bond_site_symmetry_2
C1 C2 1_555 1_555
C2 C3 1_555 1_555
C3 C4 1_555 1_555
C4 Br2 1_555 1_555
C5 H1 1_555 1_555
C6 H2 1_555 1_555
H3 C6 1_555 1_555
H4 C6 1_555 1_555
C7 H5 1_555 1_555
H6 C7 1_555 1_555
H7 C7 1_555 1_555
C8 H8 1_555 1_555
H9 C8 1_555 1_555
C9 C8 1_555 1_555
H10 C9 1_555 1_555
H11 C9 1_555 1_555
H12 C9 1_555 1_555
N1 C5 1_555 1_555
O1 C1 1_555 1_555
O2 C1 1_555 1_555
O3 C5 1_555 1_555
O4 C8 1_555 1_555
Ni1 O1 1_555 1_555
Br1 C3 1_555 1_555
C1A C2A 1_555 1_555
C2A C4 1_555 1_555
C3A C2A 1_555 1_555
C4A C2 1_555 1_555
O1A C1A 1_555 1_555
O2A C1A 1_555 1_555
Br1A C3A 1_555 1_555
Br2A C4A 1_555 1_555
C5A H1A 1_555 1_555
C6A H2A 1_555 1_555
H3A C6A 1_555 1_555
H4A C6A 1_555 1_555
C7A H5A 1_555 1_555
H6A C7A 1_555 1_555
H7A C7A 1_555 1_555
C8A H8A 1_555 1_555
H9A C8A 1_555 1_555
C9A C8A 1_555 1_555
H10A C9A 1_555 1_555
H11A C9A 1_555 1_555
H12A C9A 1_555 1_555
N1A C5A 1_555 1_555
O3A Ni1 1_555 1_555
O4A Ni1 1_555 1_555
O1A_2 Ni1 1_555 1_555
Ni1_2 O1A 1_555 1_555
C6 N1 1_555 1_555
C7 N1 1_555 1_555
O3 Ni1 1_555 1_555
O4 Ni1 1_555 1_555
C3A C4A 1_555 1_555
C5A O3A 1_555 1_555
C6A N1A 1_555 1_555
C7A N1A 1_555 1_555
C8A O4A 1_555 1_555

#END
