
#######################################################################
#
#                 Cambridge Crystallographic Data Centre
#                                CCDC 
#
#######################################################################
#
# If this CIF has been generated from an entry in the Cambridge 
# Structural Database, then it will include bibliographic, chemical, 
# crystal, experimental, refinement or atomic coordinate data resulting 
# from the CCDC's data processing and validation procedures.
#
#######################################################################

data_GICJIM
_symmetry_cell_setting           monoclinic
_symmetry_space_group_name_H-M   'C 2/c'
_symmetry_Int_Tables_number      15
_space_group_name_Hall           '-C 2yn'
loop_
_symmetry_equiv_pos_site_id
_symmetry_equiv_pos_as_xyz
1 x,y,z
2 1/2+x,1/2+y,z
3 -x,y,1/2-z
4 1/2-x,1/2+y,1/2-z
5 -x,-y,-z
6 1/2-x,1/2-y,-z
7 x,-y,1/2+z
8 1/2+x,1/2-y,1/2+z
_cell_length_a                   22.818(5)
_cell_length_b                   9.288(2)
_cell_length_c                   20.156(4)
_cell_angle_alpha                90
_cell_angle_beta                 122.317(3)
_cell_angle_gamma                90
_cell_volume                     3610.06
loop_
_atom_site_label
_atom_site_type_symbol
_atom_site_fract_x
_atom_site_fract_y
_atom_site_fract_z
Ni1 Ni 0.2500 0.7500 0.0000
Cl1 Cl 0.31362(5) 0.52679(10) 0.00102(6)
F1 F -0.00298(11) 0.2035(3) 0.06828(16)
F2 F 0.02900(16) -0.2788(3) 0.14212(18)
N1 N 0.13997(15) 0.4457(3) 0.05183(16)
N2 N 0.10370(17) 0.5648(4) 0.0480(2)
N3 N 0.19055(14) 0.6230(3) 0.03231(16)
N4 N 0.12855(15) 0.3346(3) 0.25579(16)
N5 N 0.07487(16) 0.2886(5) 0.26089(19)
N6 N 0.17418(14) 0.2806(3) 0.37834(16)
O1 O 0.21397(12) 0.2679(3) 0.19444(14)
H1 H 0.2305 0.2091 0.1785
C1 C 0.1183(2) 0.3032(4) 0.0604(2)
H3 H 0.1373 0.2320 0.0418
H4 H 0.0681 0.2971 0.0274
C2 C 0.14102(18) 0.2659(4) 0.14543(19)
C3 C 0.1171(2) 0.3804(4) 0.1806(2)
H5 H 0.1423 0.4692 0.1877
H6 H 0.0681 0.3995 0.1443
C4 C 0.13648(19) 0.6672(4) 0.0371(2)
H7 H 0.1238 0.7635 0.0330
C5 C 0.19111(19) 0.4830(4) 0.0426(2)
H8 H 0.2229 0.4194 0.0433
C6 C 0.1054(2) 0.2590(5) 0.3355(2)
H9 H 0.0811 0.2253 0.3575
C7 C 0.18638(18) 0.3282(4) 0.3256(2)
H10 H 0.2299 0.3540 0.3359
C8 C 0.11144(17) 0.1180(4) 0.14444(19)
C9 C 0.04100(19) 0.0918(4) 0.1062(2)
C10 C 0.0118(2) -0.0378(5) 0.1045(2)
H11 H -0.0360 -0.0495 0.0784
C11 C 0.0563(2) -0.1485(4) 0.1428(2)
C12 C 0.1262(2) -0.1318(5) 0.1816(2)
H12 H 0.1555 -0.2096 0.2070
C13 C 0.1531(2) 0.0014(4) 0.1829(2)
H13 H 0.2010 0.0130 0.2106
Ni1F Ni 0.2500 0.2500 0.5000
Ni1F_2 Ni 0.2500 1.2500 -0.5000
Cl1E Cl 0.18638(5) 0.97321(10) -0.00102(6)
F1E F 0.50298(11) 1.2965(3) -0.06828(16)
F2E F 0.47100(16) 1.7788(3) -0.14212(18)
N1E N 0.36003(15) 1.0543(3) -0.05183(16)
N2E N 0.39630(17) 0.9352(4) -0.0480(2)
N3E N 0.30945(14) 0.8770(3) -0.03231(16)
N4E N 0.37145(15) 1.1654(3) -0.25579(16)
N5E N 0.42513(16) 1.2114(5) -0.26089(19)
N6E N 0.32582(14) 1.2194(3) -0.37834(16)
N6F N 0.17418(14) 0.7194(3) -0.12166(16)
N6C N 0.32582(14) 0.7806(3) 0.12166(16)
O1E O 0.28603(12) 1.2321(3) -0.19444(14)
H1E H 0.2695 1.2909 -0.1785
C1E C 0.3817(2) 1.1968(4) -0.0604(2)
H3E H 0.3627 1.2680 -0.0418
H4E H 0.4319 1.2029 -0.0274
C2E C 0.35898(18) 1.2341(4) -0.14543(19)
C3E C 0.3829(2) 1.1196(4) -0.1806(2)
H5E H 0.3577 1.0308 -0.1877
H6E H 0.4319 1.1005 -0.1443
C4E C 0.36352(19) 0.8328(4) -0.0371(2)
H7E H 0.3762 0.7365 -0.0330
C5E C 0.30889(19) 1.0170(4) -0.0426(2)
H8E H 0.2771 1.0806 -0.0433
C6E C 0.3946(2) 1.2410(5) -0.3355(2)
H9E H 0.4189 1.2747 -0.3575
C7E C 0.31362(18) 1.1718(4) -0.3256(2)
H10E H 0.2701 1.1460 -0.3359
C8E C 0.38856(17) 1.3820(4) -0.14444(19)
C9E C 0.45900(19) 1.4082(4) -0.1062(2)
C10E C 0.4882(2) 1.5378(5) -0.1045(2)
H11E H 0.5360 1.5495 -0.0784
C11E C 0.4437(2) 1.6485(4) -0.1428(2)
C12E C 0.3738(2) 1.6318(5) -0.1816(2)
H12E H 0.3445 1.7096 -0.2070
C13E C 0.3469(2) 1.4986(4) -0.1829(2)
H13E H 0.2990 1.4870 -0.2106
O2 O 0.28690(18) 0.1728(4) 0.1310(2)
H2 H 0.2630 0.1265 0.0906
C14 C 0.3531(3) 0.1965(7) 0.1429(3)
H14 H 0.3623 0.2980 0.1467
H15 H 0.3542 0.1575 0.0995
H16 H 0.3877 0.1500 0.1905
loop_
_geom_bond_atom_site_label_1
_geom_bond_atom_site_label_2
_geom_bond_site_symmetry_1
_geom_bond_site_symmetry_2
Ni1 Cl1 1_555 1_555
F1 C9 1_555 1_555
F2 C11 1_555 1_555
N1 N2 1_555 1_555
N2 C4 1_555 1_555
N3 Ni1 1_555 1_555
N4 N5 1_555 1_555
N5 C6 1_555 1_555
N6 C6 1_555 1_555
O1 H1 1_555 1_555
O2 H2 1_555 1_555
C1 N1 1_555 1_555
H3 C1 1_555 1_555
H4 C1 1_555 1_555
C2 O1 1_555 1_555
C3 N4 1_555 1_555
H5 C3 1_555 1_555
H6 C3 1_555 1_555
C4 N3 1_555 1_555
H7 C4 1_555 1_555
C5 N1 1_555 1_555
H8 C5 1_555 1_555
C6 H9 1_555 1_555
C7 N4 1_555 1_555
H10 C7 1_555 1_555
C8 C2 1_555 1_555
C9 C8 1_555 1_555
C10 C9 1_555 1_555
H11 C10 1_555 1_555
C11 C10 1_555 1_555
C12 C11 1_555 1_555
H12 C12 1_555 1_555
C13 C8 1_555 1_555
H13 C13 1_555 1_555
C14 O2 1_555 1_555
H14 C14 1_555 1_555
H15 C14 1_555 1_555
H16 C14 1_555 1_555
Ni1F N6 1_555 1_555
Ni1F_2 N6E 1_555 1_555
Cl1E Ni1 1_555 1_555
F1E C9E 1_555 1_555
F2E C11E 1_555 1_555
N1E N2E 1_555 1_555
N2E C4E 1_555 1_555
N3E Ni1 1_555 1_555
N4E N5E 1_555 1_555
N5E C6E 1_555 1_555
N6E C6E 1_555 1_555
N6F Ni1 1_555 1_555
N6C Ni1 1_555 1_555
O1E H1E 1_555 1_555
C1E N1E 1_555 1_555
H3E C1E 1_555 1_555
H4E C1E 1_555 1_555
C2E O1E 1_555 1_555
C3E N4E 1_555 1_555
H5E C3E 1_555 1_555
H6E C3E 1_555 1_555
C4E N3E 1_555 1_555
H7E C4E 1_555 1_555
C5E N1E 1_555 1_555
H8E C5E 1_555 1_555
C6E H9E 1_555 1_555
C7E N4E 1_555 1_555
H10E C7E 1_555 1_555
C8E C2E 1_555 1_555
C9E C8E 1_555 1_555
C10E C9E 1_555 1_555
H11E C10E 1_555 1_555
C11E C10E 1_555 1_555
C12E C11E 1_555 1_555
H12E C12E 1_555 1_555
C13E C8E 1_555 1_555
H13E C13E 1_555 1_555
N3 C5 1_555 1_555
N6 C7 1_555 1_555
C1 C2 1_555 1_555
C2 C3 1_555 1_555
C12 C13 1_555 1_555
N3E C5E 1_555 1_555
N6E C7E 1_555 1_555
C1E C2E 1_555 1_555
C2E C3E 1_555 1_555
C12E C13E 1_555 1_555

#END
