
#######################################################################
#
#                 Cambridge Crystallographic Data Centre
#                                CCDC 
#
#######################################################################
#
# If this CIF has been generated from an entry in the Cambridge 
# Structural Database, then it will include bibliographic, chemical, 
# crystal, experimental, refinement or atomic coordinate data resulting 
# from the CCDC's data processing and validation procedures.
#
#######################################################################

data_GICJUY
_symmetry_cell_setting           monoclinic
_symmetry_space_group_name_H-M   'P 21/c'
_symmetry_Int_Tables_number      14
_space_group_name_Hall           '-P 2ybc'
loop_
_symmetry_equiv_pos_site_id
_symmetry_equiv_pos_as_xyz
1 x,y,z
2 -x,1/2+y,1/2-z
3 -x,-y,-z
4 x,1/2-y,1/2+z
_cell_length_a                   13.010(3)
_cell_length_b                   14.128(4)
_cell_length_c                   14.865(4)
_cell_angle_alpha                90
_cell_angle_beta                 96.801(4)
_cell_angle_gamma                90
_cell_volume                     2713.04
loop_
_atom_site_label
_atom_site_type_symbol
_atom_site_fract_x
_atom_site_fract_y
_atom_site_fract_z
Ni1 Ni 0.09150(5) 0.49856(5) 0.15525(4)
F1 F 0.3562(2) 0.6804(3) 0.5868(3)
F2 F 0.4174(4) 0.3605(3) 0.5446(4)
N1 N 0.1766(3) 0.6843(3) 0.3743(3)
N2 N 0.2729(3) 0.6610(4) 0.3558(3)
N3 N 0.1517(3) 0.5862(3) 0.2611(3)
N4 N 0.1069(3) 0.6555(3) 0.6908(3)
N5 N 0.1788(3) 0.6123(3) 0.7507(3)
N6 N 0.0178(3) 0.5672(3) 0.7729(3)
N7 N 0.2608(5) 0.2568(4) 0.2474(4)
O1 O 0.0377(3) 0.6293(3) 0.5049(2)
H1 H -0.0045 0.6726 0.5005
O2 O -0.0150(2) 0.6028(2) 0.1141(2)
O3 O -0.0418(3) 0.5934(2) -0.0489(2)
O4 O -0.0977(3) 0.7307(2) 0.0276(2)
O5 O -0.1873(3) 0.5834(3) 0.0380(2)
O6 O 0.2050(3) 0.4023(3) 0.2072(3)
O7 O 0.1977(3) 0.5604(3) 0.0778(2)
H2 H 0.1933 0.5219 0.0335
H3 H 0.2605 0.5572 0.1009
S1 S -0.08618(10) 0.62742(9) 0.03220(8)
C1 C 0.1640(4) 0.7370(4) 0.4575(3)
H4 H 0.1085 0.7827 0.4457
H5 H 0.2273 0.7709 0.4781
C2 C 0.1386(4) 0.6666(4) 0.5310(3)
C3 C 0.1400(4) 0.7188(4) 0.6215(3)
H6 H 0.2094 0.7416 0.6408
H7 H 0.0941 0.7730 0.6139
C4 C 0.2541(4) 0.6028(4) 0.2875(4)
H8 H 0.3064 0.5749 0.2592
C5 C 0.1059(4) 0.6383(4) 0.3187(3)
H9 H 0.0348 0.6423 0.3202
C6 C 0.1209(4) 0.5610(4) 0.7983(4)
H10 H 0.1487 0.5229 0.8461
C7 C 0.0125(4) 0.6283(4) 0.7049(3)
H11 H -0.0484 0.6491 0.6718
C8 C 0.2130(4) 0.5832(4) 0.5381(3)
C9 C 0.3169(5) 0.5933(4) 0.5639(4)
C10 C 0.3881(5) 0.5209(5) 0.5675(5)
H12 H 0.4582 0.5305 0.5859
C11 C 0.3484(6) 0.4334(5) 0.5420(5)
C12 C 0.2467(5) 0.4171(5) 0.5151(5)
H13 H 0.2231 0.3567 0.4982
C13 C 0.1798(5) 0.4921(4) 0.5134(4)
H14 H 0.1098 0.4818 0.4952
C14 C 0.1996(5) 0.3166(5) 0.2011(4)
H15 H 0.1472 0.2916 0.1599
C15 C 0.2431(9) 0.1562(6) 0.2426(6)
H16 H 0.2963 0.1243 0.2816
H17 H 0.2443 0.1350 0.1814
H18 H 0.1768 0.1422 0.2618
C16 C 0.3422(8) 0.2888(8) 0.3127(7)
H19 H 0.3794 0.2352 0.3398
H20 H 0.3136 0.3244 0.3588
H21 H 0.3886 0.3282 0.2837
Ni1B Ni -0.09150(5) 0.50144(5) 0.84475(4)
Ni1B_2 Ni -0.09150(5) 0.50144(5) -0.15525(4)
N6B N -0.0178(3) 0.4328(3) 0.2271(3)
O3B O 0.0418(3) 0.4066(2) 0.0489(2)
N8 N 0.5078(5) 0.4146(5) 0.1027(5)
O8 O 0.4041(4) 0.5324(5) 0.1357(4)
C17 C 0.4204(6) 0.4533(8) 0.0971(7)
H22 H 0.3648 0.4233 0.0636
C18 C 0.5326(10) 0.3305(9) 0.0553(10)
H23 H 0.6041 0.3146 0.0722
H24 H 0.5208 0.3415 -0.0088
H25 H 0.4897 0.2793 0.0710
C19 C 0.5961(9) 0.4568(12) 0.1477(9)
H26 H 0.6544 0.4158 0.1451
H27 H 0.5861 0.4676 0.2099
H28 H 0.6085 0.5160 0.1193
loop_
_geom_bond_atom_site_label_1
_geom_bond_atom_site_label_2
_geom_bond_site_symmetry_1
_geom_bond_site_symmetry_2
Ni1 N3 1_555 1_555
F1 C9 1_555 1_555
F2 C11 1_555 1_555
N1 N2 1_555 1_555
N2 C4 1_555 1_555
N3 C4 1_555 1_555
N4 N5 1_555 1_555
N5 C6 1_555 1_555
N6 C6 1_555 1_555
N7 C14 1_555 1_555
N8 C17 1_555 1_555
O1 H1 1_555 1_555
O2 Ni1 1_555 1_555
O3 S1 1_555 1_555
O4 S1 1_555 1_555
O5 S1 1_555 1_555
O6 Ni1 1_555 1_555
O7 Ni1 1_555 1_555
H2 O7 1_555 1_555
H3 O7 1_555 1_555
O8 C17 1_555 1_555
S1 O2 1_555 1_555
C1 N1 1_555 1_555
H4 C1 1_555 1_555
H5 C1 1_555 1_555
C2 O1 1_555 1_555
C3 N4 1_555 1_555
H6 C3 1_555 1_555
H7 C3 1_555 1_555
C4 H8 1_555 1_555
C5 N1 1_555 1_555
H9 C5 1_555 1_555
C6 H10 1_555 1_555
C7 N4 1_555 1_555
H11 C7 1_555 1_555
C8 C2 1_555 1_555
C9 C8 1_555 1_555
C10 C9 1_555 1_555
H12 C10 1_555 1_555
C11 C10 1_555 1_555
C12 C11 1_555 1_555
H13 C12 1_555 1_555
C13 C8 1_555 1_555
H14 C13 1_555 1_555
C14 O6 1_555 1_555
H15 C14 1_555 1_555
C15 N7 1_555 1_555
H16 C15 1_555 1_555
H17 C15 1_555 1_555
H18 C15 1_555 1_555
C16 N7 1_555 1_555
H19 C16 1_555 1_555
H20 C16 1_555 1_555
H21 C16 1_555 1_555
C17 H22 1_555 1_555
C18 N8 1_555 1_555
H23 C18 1_555 1_555
H24 C18 1_555 1_555
H25 C18 1_555 1_555
C19 N8 1_555 1_555
H26 C19 1_555 1_555
H27 C19 1_555 1_555
H28 C19 1_555 1_555
Ni1B N6 1_555 1_555
Ni1B_2 O3 1_555 1_555
N6B Ni1 1_555 1_555
O3B Ni1 1_555 1_555
N3 C5 1_555 1_555
N6 C7 1_555 1_555
C1 C2 1_555 1_555
C2 C3 1_555 1_555
C12 C13 1_555 1_555

#END
