
#######################################################################
#
#                 Cambridge Crystallographic Data Centre
#                                CCDC 
#
#######################################################################
#
# If this CIF has been generated from an entry in the Cambridge 
# Structural Database, then it will include bibliographic, chemical, 
# crystal, experimental, refinement or atomic coordinate data resulting 
# from the CCDC's data processing and validation procedures.
#
#######################################################################

data_GICKAF
_symmetry_cell_setting           monoclinic
_symmetry_space_group_name_H-M   'P 21/c'
_symmetry_Int_Tables_number      14
_space_group_name_Hall           '-P 2ybc'
loop_
_symmetry_equiv_pos_site_id
_symmetry_equiv_pos_as_xyz
1 x,y,z
2 -x,1/2+y,1/2-z
3 -x,-y,-z
4 x,1/2-y,1/2+z
_cell_length_a                   15.896(2)
_cell_length_b                   17.992(3)
_cell_length_c                   12.928(2)
_cell_angle_alpha                90
_cell_angle_beta                 96.206(2)
_cell_angle_gamma                90
_cell_volume                     3675.75
loop_
_atom_site_label
_atom_site_type_symbol
_atom_site_fract_x
_atom_site_fract_y
_atom_site_fract_z
Ni1 Ni 1.0000 0.5000 0.5000
F1 F 0.88272(12) 0.57671(11) 1.00167(15)
F2 F 0.65714(13) 0.63302(16) 0.7527(2)
N1 N 1.02376(14) 0.53858(12) 0.81738(17)
N2 N 0.96896(17) 0.48085(13) 0.81865(19)
N3 N 1.00122(14) 0.50134(12) 0.65676(17)
N4 N 0.98584(16) 0.77123(13) 1.00940(18)
N5 N 0.90303(17) 0.78574(14) 1.0173(2)
N6 N 0.97473(15) 0.89072(13) 0.99872(17)
O1 O 1.03988(13) 0.70420(11) 0.82624(15)
H1 H 1.0906 0.7092 0.8444
O2 O 1.14818(13) 0.52614(13) 0.51702(17)
H2 H 1.1750 0.5365 0.5757
H3 H 1.1739 0.5497 0.4730
C1 C 1.04687(18) 0.58381(15) 0.9095(2)
H15 H 1.1078 0.5906 0.9188
H16 H 1.0306 0.5582 0.9703
C2 C 1.00318(18) 0.66026(15) 0.9000(2)
C3 C 1.0178(2) 0.69568(15) 1.0087(2)
H17 H 0.9898 0.6659 1.0574
H18 H 1.0779 0.6959 1.0318
C4 C 0.9581(2) 0.45990(17) 0.7214(2)
H19 H 0.9239 0.4200 0.6983
C5 C 1.04161(18) 0.54968(15) 0.7211(2)
H20 H 1.0777 0.5865 0.7013
C6 C 0.8999(2) 0.85825(17) 1.0103(2)
H21 H 0.8502 0.8851 1.0130
C7 C 1.0274(2) 0.83381(15) 0.9984(2)
H22 H 1.0849 0.8373 0.9914
C8 C 0.90969(18) 0.65353(15) 0.8610(2)
C9 C 0.85372(19) 0.61250(17) 0.9122(2)
C10 C 0.7695(2) 0.6045(2) 0.8781(3)
H23 H 0.7338 0.5764 0.9149
C11 C 0.7403(2) 0.6399(2) 0.7874(3)
C12 C 0.7916(2) 0.6809(2) 0.7314(3)
H24 H 0.7705 0.7036 0.6692
C13 C 0.8758(2) 0.68774(17) 0.7699(2)
H25 H 0.9111 0.7165 0.7332
Ni1C Ni 1.0000 1.0000 1.0000
Ni1C_2 Ni 1.0000 0.0000 0.0000
F1B F 1.11728(12) 0.42329(11) -0.00167(15)
F2B F 1.34286(13) 0.36698(16) 0.2473(2)
N1B N 0.97624(14) 0.46142(12) 0.18262(17)
N2B N 1.03104(17) 0.51915(13) 0.18135(19)
N3B N 0.99878(14) 0.49866(12) 0.34324(17)
N4B N 1.01416(16) 0.22877(13) -0.00940(18)
N5B N 1.09697(17) 0.21426(14) -0.0173(2)
N6B N 1.02527(15) 0.10928(13) 0.00128(17)
N6C N 0.97473(15) 0.60928(13) 0.49872(17)
N6A N 1.02527(15) 0.39072(13) 0.50128(17)
O1B O 0.96012(13) 0.29580(11) 0.17376(15)
H1B H 0.9094 0.2908 0.1556
O2B O 0.85182(13) 0.47386(13) 0.48298(17)
H2B H 0.8250 0.4635 0.4243
H3B H 0.8261 0.4503 0.5270
C1B C 0.95313(18) 0.41619(15) 0.0905(2)
H15B H 0.8922 0.4094 0.0812
H16B H 0.9694 0.4418 0.0297
C2B C 0.99682(18) 0.33974(15) 0.1000(2)
C3B C 0.9822(2) 0.30432(15) -0.0087(2)
H17B H 1.0102 0.3341 -0.0574
H18B H 0.9221 0.3041 -0.0318
C4B C 1.0419(2) 0.54010(17) 0.2786(2)
H19B H 1.0761 0.5800 0.3017
C5B C 0.95839(18) 0.45032(15) 0.2789(2)
H20B H 0.9223 0.4135 0.2987
C6B C 1.1001(2) 0.14175(17) -0.0103(2)
H21B H 1.1498 0.1149 -0.0130
C7B C 0.9726(2) 0.16619(15) 0.0016(2)
H22B H 0.9151 0.1627 0.0086
C8B C 1.09031(18) 0.34647(15) 0.1390(2)
C9B C 1.14628(19) 0.38750(17) 0.0878(2)
C10B C 1.2305(2) 0.3955(2) 0.1219(3)
H23B H 1.2662 0.4236 0.0851
C11B C 1.2597(2) 0.3601(2) 0.2126(3)
C12B C 1.2084(2) 0.3191(2) 0.2686(3)
H24B H 1.2295 0.2964 0.3308
C13B C 1.1242(2) 0.31226(17) 0.2301(2)
H25B H 1.0889 0.2835 0.2668
Ni2 Ni 0.5000 0.5000 0.5000
F3 F 0.61267(11) 0.56141(10) 0.01694(14)
F4 F 0.83158(13) 0.59381(16) 0.28359(18)
N7 N 0.46043(14) 0.54298(12) 0.18320(17)
N8 N 0.50459(16) 0.47819(13) 0.17864(19)
N9 N 0.48151(15) 0.50412(12) 0.34291(17)
N10 N 0.52845(15) 0.77164(12) -0.00246(17)
N11 N 0.61188(16) 0.78878(14) 0.0105(2)
N12 N 0.53274(15) 0.89160(12) 0.00514(17)
O3 O 0.46658(13) 0.71172(11) 0.17324(15)
H4 H 0.4178 0.7223 0.1507
O4 O 0.35503(13) 0.53267(12) 0.51018(17)
H5 H 0.3376 0.5374 0.5697
H6 H 0.3175 0.5538 0.4684
C14 C 0.44540(18) 0.59092(15) 0.0922(2)
H26 H 0.3861 0.6049 0.0823
H27 H 0.4582 0.5639 0.0309
C15 C 0.50035(18) 0.66169(15) 0.1044(2)
C16 C 0.4971(2) 0.69567(15) -0.0060(2)
H28 H 0.5310 0.6657 -0.0480
H29 H 0.4392 0.6950 -0.0386
C17 C 0.51486(19) 0.45708(16) 0.2755(2)
H30 H 0.5427 0.4134 0.2969
C18 C 0.44762(18) 0.55746(15) 0.2805(2)
H31 H 0.4191 0.5988 0.3021
C19 C 0.61052(19) 0.86166(17) 0.0147(2)
H32 H 0.6595 0.8902 0.0235
C20 C 0.48247(19) 0.83292(15) -0.0044(2)
H33 H 0.4237 0.8345 -0.0113
C21 C 0.59026(18) 0.64509(15) 0.1520(2)
C22 C 0.64191(19) 0.59517(16) 0.1080(2)
C23 C 0.7222(2) 0.57645(19) 0.1499(3)
H34 H 0.7548 0.5422 0.1179
C24 C 0.7518(2) 0.6106(2) 0.2408(3)
C25 C 0.7048(2) 0.6604(2) 0.2897(3)
H35 H 0.7266 0.6826 0.3518
C26 C 0.6239(2) 0.67702(17) 0.2450(2)
H36 H 0.5913 0.7105 0.2781
Ni2C Ni 0.5000 1.0000 0.0000
Ni2C_2 Ni 0.5000 0.0000 1.0000
F3B F 0.38733(11) 0.43859(10) 0.98306(14)
F4B F 0.16842(13) 0.40619(16) 0.71641(18)
N7B N 0.53957(14) 0.45702(12) 0.81680(17)
N8B N 0.49541(16) 0.52181(13) 0.82136(19)
N9B N 0.51849(15) 0.49588(12) 0.65709(17)
N10B N 0.47155(15) 0.22836(12) 1.00246(17)
N11B N 0.38812(16) 0.21122(14) 0.9895(2)
N12B N 0.46726(15) 0.10840(12) 0.99486(17)
N12C N 0.53274(15) 0.60840(12) 0.50514(17)
N12A N 0.46726(15) 0.39160(12) 0.49486(17)
O3B O 0.53342(13) 0.28828(11) 0.82676(15)
H4B H 0.5822 0.2777 0.8493
O4B O 0.64497(13) 0.46733(12) 0.48982(17)
H5B H 0.6624 0.4626 0.4303
H6B H 0.6825 0.4462 0.5316
C14B C 0.55460(18) 0.40908(15) 0.9078(2)
H26B H 0.6139 0.3951 0.9177
H27B H 0.5418 0.4361 0.9691
C15B C 0.49965(18) 0.33831(15) 0.8956(2)
C16B C 0.5029(2) 0.30433(15) 1.0060(2)
H28B H 0.4690 0.3343 1.0480
H29B H 0.5608 0.3050 1.0386
C17B C 0.48514(19) 0.54292(16) 0.7245(2)
H30B H 0.4573 0.5866 0.7031
C18B C 0.55238(18) 0.44254(15) 0.7195(2)
H31B H 0.5809 0.4012 0.6979
C19B C 0.38948(19) 0.13834(17) 0.9853(2)
H32B H 0.3405 0.1098 0.9765
C20B C 0.51753(19) 0.16708(15) 1.0044(2)
H33B H 0.5763 0.1655 1.0113
C21B C 0.40974(18) 0.35491(15) 0.8480(2)
C22B C 0.35809(19) 0.40483(16) 0.8920(2)
C23B C 0.2778(2) 0.42355(19) 0.8501(3)
H34B H 0.2452 0.4578 0.8821
C24B C 0.2482(2) 0.3894(2) 0.7592(3)
C25B C 0.2952(2) 0.3396(2) 0.7103(3)
H35B H 0.2734 0.3174 0.6482
C26B C 0.3761(2) 0.32298(17) 0.7550(2)
H36B H 0.4087 0.2895 0.7219
O5 O 0.23216(17) 0.60962(13) 0.3832(2)
O6 O 0.19416(16) 0.73583(15) 0.41334(19)
O7 O 0.19589(16) 0.69176(14) 0.24067(17)
O8 O 0.32433(15) 0.70704(17) 0.3499(2)
S1 S 0.23732(5) 0.68563(4) 0.34643(6)
O9 O 0.30062(15) 0.76540(14) 0.11174(18)
H7 H 0.2718 0.7624 0.0526
H8 H 0.2691 0.7478 0.1549
O10 O 0.26537(16) 0.58619(14) 0.68078(19)
H9 H 0.2703 0.6319 0.6662
H10 H 0.2737 0.5863 0.7468
O11 O 0.27226(19) 0.88485(15) 0.3996(2)
H11 H 0.2620 0.8385 0.3966
H12 H 0.2690 0.8957 0.4630
O12 O 0.21359(19) 0.58018(15) 0.0984(2)
H13 H 0.2071 0.6106 0.1471
H14 H 0.2224 0.6067 0.0462
loop_
_geom_bond_atom_site_label_1
_geom_bond_atom_site_label_2
_geom_bond_site_symmetry_1
_geom_bond_site_symmetry_2
Ni1 N3 1_555 1_555
Ni2 N9 1_555 1_555
F1 C9 1_555 1_555
F2 C11 1_555 1_555
F3 C22 1_555 1_555
F4 C24 1_555 1_555
N1 N2 1_555 1_555
N2 C4 1_555 1_555
N3 C4 1_555 1_555
N4 N5 1_555 1_555
N5 C6 1_555 1_555
N6 C6 1_555 1_555
N7 N8 1_555 1_555
N8 C17 1_555 1_555
N9 C17 1_555 1_555
N10 N11 1_555 1_555
N11 C19 1_555 1_555
N12 C19 1_555 1_555
O1 H1 1_555 1_555
O2 Ni1 1_555 1_555
H2 O2 1_555 1_555
H3 O2 1_555 1_555
O3 H4 1_555 1_555
O4 Ni2 1_555 1_555
H5 O4 1_555 1_555
H6 O4 1_555 1_555
O5 S1 1_555 1_555
O6 S1 1_555 1_555
O7 S1 1_555 1_555
O8 S1 1_555 1_555
O9 H7 1_555 1_555
H8 O9 1_555 1_555
O10 H9 1_555 1_555
H10 O10 1_555 1_555
O11 H11 1_555 1_555
H12 O11 1_555 1_555
O12 H13 1_555 1_555
H14 O12 1_555 1_555
C1 N1 1_555 1_555
H15 C1 1_555 1_555
H16 C1 1_555 1_555
C2 O1 1_555 1_555
C3 N4 1_555 1_555
H17 C3 1_555 1_555
H18 C3 1_555 1_555
C4 H19 1_555 1_555
C5 N1 1_555 1_555
H20 C5 1_555 1_555
C6 H21 1_555 1_555
C7 N4 1_555 1_555
H22 C7 1_555 1_555
C8 C2 1_555 1_555
C9 C8 1_555 1_555
C10 C9 1_555 1_555
H23 C10 1_555 1_555
C11 C10 1_555 1_555
C12 C11 1_555 1_555
H24 C12 1_555 1_555
C13 C8 1_555 1_555
H25 C13 1_555 1_555
C14 N7 1_555 1_555
H26 C14 1_555 1_555
H27 C14 1_555 1_555
C15 O3 1_555 1_555
C16 N10 1_555 1_555
H28 C16 1_555 1_555
H29 C16 1_555 1_555
C17 H30 1_555 1_555
C18 N7 1_555 1_555
H31 C18 1_555 1_555
C19 H32 1_555 1_555
C20 N10 1_555 1_555
H33 C20 1_555 1_555
C21 C15 1_555 1_555
C22 C21 1_555 1_555
C23 C22 1_555 1_555
H34 C23 1_555 1_555
C24 C23 1_555 1_555
C25 C24 1_555 1_555
H35 C25 1_555 1_555
C26 C21 1_555 1_555
H36 C26 1_555 1_555
Ni1C N6 1_555 1_555
Ni1C_2 N6B 1_555 1_555
Ni2C N12 1_555 1_555
Ni2C_2 N12B 1_555 1_555
F1B C9B 1_555 1_555
F2B C11B 1_555 1_555
F3B C22B 1_555 1_555
F4B C24B 1_555 1_555
N1B N2B 1_555 1_555
N2B C4B 1_555 1_555
N3B Ni1 1_555 1_555
N4B N5B 1_555 1_555
N5B C6B 1_555 1_555
N6B C6B 1_555 1_555
N6C Ni1 1_555 1_555
N6A Ni1 1_555 1_555
N7B N8B 1_555 1_555
N8B C17B 1_555 1_555
N9B Ni2 1_555 1_555
N10B N11B 1_555 1_555
N11B C19B 1_555 1_555
N12B C19B 1_555 1_555
N12C Ni2 1_555 1_555
N12A Ni2 1_555 1_555
O1B H1B 1_555 1_555
O2B Ni1 1_555 1_555
H2B O2B 1_555 1_555
H3B O2B 1_555 1_555
O3B H4B 1_555 1_555
O4B Ni2 1_555 1_555
H5B O4B 1_555 1_555
H6B O4B 1_555 1_555
C1B N1B 1_555 1_555
H15B C1B 1_555 1_555
H16B C1B 1_555 1_555
C2B O1B 1_555 1_555
C3B N4B 1_555 1_555
H17B C3B 1_555 1_555
H18B C3B 1_555 1_555
C4B N3B 1_555 1_555
H19B C4B 1_555 1_555
C5B N1B 1_555 1_555
H20B C5B 1_555 1_555
C6B H21B 1_555 1_555
C7B N4B 1_555 1_555
H22B C7B 1_555 1_555
C8B C2B 1_555 1_555
C9B C8B 1_555 1_555
C10B C9B 1_555 1_555
H23B C10B 1_555 1_555
C11B C10B 1_555 1_555
C12B C11B 1_555 1_555
H24B C12B 1_555 1_555
C13B C8B 1_555 1_555
H25B C13B 1_555 1_555
C14B N7B 1_555 1_555
H26B C14B 1_555 1_555
H27B C14B 1_555 1_555
C15B O3B 1_555 1_555
C16B N10B 1_555 1_555
H28B C16B 1_555 1_555
H29B C16B 1_555 1_555
C17B N9B 1_555 1_555
H30B C17B 1_555 1_555
C18B N7B 1_555 1_555
H31B C18B 1_555 1_555
C19B H32B 1_555 1_555
C20B N10B 1_555 1_555
H33B C20B 1_555 1_555
C21B C15B 1_555 1_555
C22B C21B 1_555 1_555
C23B C22B 1_555 1_555
H34B C23B 1_555 1_555
C24B C23B 1_555 1_555
C25B C24B 1_555 1_555
H35B C25B 1_555 1_555
C26B C21B 1_555 1_555
H36B C26B 1_555 1_555
N3 C5 1_555 1_555
N6 C7 1_555 1_555
N9 C18 1_555 1_555
N12 C20 1_555 1_555
C1 C2 1_555 1_555
C2 C3 1_555 1_555
C12 C13 1_555 1_555
C14 C15 1_555 1_555
C15 C16 1_555 1_555
C25 C26 1_555 1_555
N3B C5B 1_555 1_555
N6B C7B 1_555 1_555
N9B C18B 1_555 1_555
N12B C20B 1_555 1_555
C1B C2B 1_555 1_555
C2B C3B 1_555 1_555
C12B C13B 1_555 1_555
C14B C15B 1_555 1_555
C15B C16B 1_555 1_555
C25B C26B 1_555 1_555

#END
