
#######################################################################
#
#                 Cambridge Crystallographic Data Centre
#                                CCDC 
#
#######################################################################
#
# If this CIF has been generated from an entry in the Cambridge 
# Structural Database, then it will include bibliographic, chemical, 
# crystal, experimental, refinement or atomic coordinate data resulting 
# from the CCDC's data processing and validation procedures.
#
#######################################################################

data_GICLIP
_symmetry_cell_setting           monoclinic
_symmetry_space_group_name_H-M   'P 21/n'
_symmetry_Int_Tables_number      14
_space_group_name_Hall           '-P 2yn'
loop_
_symmetry_equiv_pos_site_id
_symmetry_equiv_pos_as_xyz
1 x,y,z
2 1/2-x,1/2+y,1/2-z
3 -x,-y,-z
4 1/2+x,1/2-y,1/2+z
_cell_length_a                   9.724(3)
_cell_length_b                   18.516(5)
_cell_length_c                   17.637(6)
_cell_angle_alpha                90
_cell_angle_beta                 99.769(5)
_cell_angle_gamma                90
_cell_volume                     3129.49
loop_
_atom_site_label
_atom_site_type_symbol
_atom_site_fract_x
_atom_site_fract_y
_atom_site_fract_z
Cu1 Cu -0.40965(4) -0.05333(2) 0.00376(2)
Cu2 Cu -1.0000 0.0000 0.0000
Na1 Na -0.99775(14) -0.00879(7) 0.18287(7)
C1 C -0.8486(4) -0.20318(19) 0.2609(2)
H1 H -0.8747 -0.1924 0.2066
H2 H -0.8045 -0.2503 0.2659
C2 C -1.0852(4) -0.15638(19) 0.2749(2)
C3 C -0.9780(4) -0.20385(19) 0.2988(2)
C4 C -0.9887(4) -0.24781(19) 0.3614(2)
H3 H -0.9193 -0.2815 0.3781
C5 C -1.1017(4) -0.2417(2) 0.3990(2)
H4 H -1.1110 -0.2733 0.4388
C6 C -1.2001(4) -0.1895(2) 0.3780(2)
H5 H -1.2728 -0.1843 0.4057
C7 C -1.1934(4) -0.1439(2) 0.3162(2)
C8 C -1.2889(4) -0.0789(2) 0.2990(2)
H6 H -1.3800 -0.0903 0.3113
H7 H -1.3004 -0.0675 0.2446
C9 C -1.1795(4) 0.0479(2) 0.3127(2)
C10 C -1.2280(4) -0.0136(2) 0.3462(2)
C11 C -1.2174(4) -0.0141(2) 0.4253(2)
H8 H -1.2489 -0.0544 0.4488
C12 C -1.1624(4) 0.0425(3) 0.4700(2)
H9 H -1.1576 0.0408 0.5230
C13 C -1.1144(4) 0.1016(2) 0.4365(2)
H10 H -1.0774 0.1401 0.4673
C14 C -1.1193(4) 0.1058(2) 0.3570(2)
C15 C -1.0529(4) 0.1702(2) 0.3234(2)
H11 H -1.0864 0.1725 0.2685
H12 H -1.0808 0.2143 0.3463
C16 C -0.8262(4) 0.12476(19) 0.2904(2)
C17 C -0.8953(4) 0.1650(2) 0.3379(2)
C18 C -0.8127(5) 0.1969(2) 0.4024(2)
H13 H -0.8550 0.2259 0.4348
C19 C -0.6722(5) 0.1862(2) 0.4183(2)
H14 H -0.6191 0.2099 0.4597
C20 C -0.6089(5) 0.1406(2) 0.3737(2)
H15 H -0.5134 0.1323 0.3864
C21 C -0.6849(4) 0.1063(2) 0.3094(2)
C22 C -0.6232(4) 0.0476(2) 0.2673(2)
H16 H -0.5242 0.0562 0.2696
H17 H -0.6673 0.0474 0.2137
C23 C -0.7204(3) -0.08152(19) 0.26348(19)
C24 C -0.6452(4) -0.0257(2) 0.3038(2)
C25 C -0.5886(4) -0.0377(2) 0.3801(2)
H18 H -0.5387 -0.0008 0.4083
C26 C -0.6041(4) -0.1023(2) 0.4151(2)
H19 H -0.5608 -0.1101 0.4656
C27 C -0.6840(4) -0.1560(2) 0.3754(2)
H20 H -0.6959 -0.1995 0.3999
C28 C -0.7469(4) -0.14625(19) 0.2994(2)
C29 C -1.1602(4) -0.1555(2) 0.1409(2)
H21 H -1.2578 -0.1588 0.1460
H22 H -1.1240 -0.2042 0.1393
C30 C -1.1477(4) -0.11698(19) 0.0672(2)
C31 C -1.2854(4) 0.0931(2) 0.1893(2)
H23 H -1.2390 0.1348 0.1719
H24 H -1.3495 0.1103 0.2219
C32 C -1.3667(3) 0.0550(2) 0.12065(18)
C33 C -0.9069(4) 0.1549(2) 0.1604(2)
H25 H -0.8138 0.1626 0.1490
H26 H -0.9387 0.2002 0.1791
C34 C -1.0025(4) 0.1335(2) 0.0883(2)
C35 C -0.7202(4) -0.11512(18) 0.13243(19)
H27 H -0.7959 -0.1403 0.1002
H28 H -0.6591 -0.1511 0.1605
C36 C -0.6400(4) -0.0722(2) 0.0824(2)
O1 O -1.0842(2) -0.11806(12) 0.20677(12)
O2 O -1.1835(2) 0.04727(13) 0.23334(12)
O3 O -0.9011(3) 0.10025(13) 0.22045(13)
O4 O -0.7768(2) -0.07033(12) 0.18634(12)
O5 O -1.0443(2) -0.07446(13) 0.07052(13)
O6 O -1.2400(2) -0.12934(13) 0.01070(13)
O7 O -1.3216(2) -0.00312(13) 0.09937(13)
O8 O -1.4739(3) 0.08739(13) 0.08958(14)
O9 O -1.0206(3) 0.06537(13) 0.08004(13)
O10 O -1.0529(3) 0.18026(15) 0.04438(16)
O11 O -0.6867(2) -0.01184(13) 0.05913(13)
O12 O -0.5323(3) -0.10234(14) 0.06577(14)
Cu1B Cu -1.59035(4) 0.05333(2) -0.00376(2)
Na1B Na -1.00225(14) 0.00879(7) -0.18287(7)
C1B C -1.1514(4) 0.20318(19) -0.2609(2)
H1B H -1.1253 0.1924 -0.2066
H2B H -1.1955 0.2503 -0.2659
C2B C -0.9148(4) 0.15638(19) -0.2749(2)
C3B C -1.0220(4) 0.20385(19) -0.2988(2)
C4B C -1.0113(4) 0.24781(19) -0.3614(2)
H3B H -1.0807 0.2815 -0.3781
C5B C -0.8983(4) 0.2417(2) -0.3990(2)
H4B H -0.8890 0.2733 -0.4388
C6B C -0.7999(4) 0.1895(2) -0.3780(2)
H5B H -0.7272 0.1843 -0.4057
C7B C -0.8066(4) 0.1439(2) -0.3162(2)
C8B C -0.7111(4) 0.0789(2) -0.2990(2)
H6B H -0.6200 0.0903 -0.3113
H7B H -0.6996 0.0675 -0.2446
C9B C -0.8205(4) -0.0479(2) -0.3127(2)
C10B C -0.7720(4) 0.0136(2) -0.3462(2)
C11B C -0.7826(4) 0.0141(2) -0.4253(2)
H8B H -0.7511 0.0544 -0.4488
C12B C -0.8376(4) -0.0425(3) -0.4700(2)
H9B H -0.8424 -0.0408 -0.5230
C13B C -0.8856(4) -0.1016(2) -0.4365(2)
H10B H -0.9226 -0.1401 -0.4673
C14B C -0.8807(4) -0.1058(2) -0.3570(2)
C15B C -0.9471(4) -0.1702(2) -0.3234(2)
H11B H -0.9136 -0.1725 -0.2685
H12B H -0.9192 -0.2143 -0.3463
C16B C -1.1738(4) -0.12476(19) -0.2904(2)
C17B C -1.1047(4) -0.1650(2) -0.3379(2)
C18B C -1.1873(5) -0.1969(2) -0.4024(2)
H13B H -1.1450 -0.2259 -0.4348
C19B C -1.3278(5) -0.1862(2) -0.4183(2)
H14B H -1.3809 -0.2099 -0.4597
C20B C -1.3911(5) -0.1406(2) -0.3737(2)
H15B H -1.4866 -0.1323 -0.3864
C21B C -1.3151(4) -0.1063(2) -0.3094(2)
C22B C -1.3768(4) -0.0476(2) -0.2673(2)
H16B H -1.4758 -0.0562 -0.2696
H17B H -1.3327 -0.0474 -0.2137
C23B C -1.2796(3) 0.08152(19) -0.26348(19)
C24B C -1.3548(4) 0.0257(2) -0.3038(2)
C25B C -1.4114(4) 0.0377(2) -0.3801(2)
H18B H -1.4613 0.0008 -0.4083
C26B C -1.3959(4) 0.1023(2) -0.4151(2)
H19B H -1.4392 0.1101 -0.4656
C27B C -1.3160(4) 0.1560(2) -0.3754(2)
H20B H -1.3041 0.1995 -0.3999
C28B C -1.2531(4) 0.14625(19) -0.2994(2)
C29B C -0.8398(4) 0.1555(2) -0.1409(2)
H21B H -0.7422 0.1588 -0.1460
H22B H -0.8760 0.2042 -0.1393
C30B C -0.8523(4) 0.11698(19) -0.0672(2)
C31B C -0.7146(4) -0.0931(2) -0.1893(2)
H23B H -0.7610 -0.1348 -0.1719
H24B H -0.6505 -0.1103 -0.2219
C32B C -0.6333(3) -0.0550(2) -0.12065(18)
C33B C -1.0931(4) -0.1549(2) -0.1604(2)
H25B H -1.1862 -0.1626 -0.1490
H26B H -1.0613 -0.2002 -0.1791
C34B C -0.9975(4) -0.1335(2) -0.0883(2)
C35B C -1.2798(4) 0.11512(18) -0.13243(19)
H27B H -1.2041 0.1403 -0.1002
H28B H -1.3409 0.1511 -0.1605
C36B C -1.3600(4) 0.0722(2) -0.0824(2)
O1B O -0.9158(2) 0.11806(12) -0.20677(12)
O2B O -0.8165(2) -0.04727(13) -0.23334(12)
O3B O -1.0989(3) -0.10025(13) -0.22045(13)
O4B O -1.2232(2) 0.07033(12) -0.18634(12)
O5B O -0.9557(2) 0.07446(13) -0.07052(13)
O6B O -0.7600(2) 0.12934(13) -0.01070(13)
O7B O -0.6784(2) 0.00312(13) -0.09937(13)
O8B O -0.5261(3) -0.08739(13) -0.08958(14)
O9B O -0.9794(3) -0.06537(13) -0.08004(13)
O10B O -0.9471(3) -0.18026(15) -0.04438(16)
O11B O -1.3133(2) 0.01184(13) -0.05913(13)
O12B O -1.4677(3) 0.10234(14) -0.06577(14)
Cu1_2 Cu -1.40965(4) -0.05333(2) 0.00376(2)
Cu1B_2 Cu -0.59035(4) 0.05333(2) -0.00376(2)
O6_2 O -0.2400(2) -0.12934(13) 0.01070(13)
O6B_2 O -1.7600(2) 0.12934(13) -0.01070(13)
O7_2 O -0.3216(2) -0.00312(13) 0.09937(13)
O7B_2 O -1.6784(2) 0.00312(13) -0.09937(13)
O11_2 O -1.6867(2) -0.01184(13) 0.05913(13)
O11B_2 O -0.3133(2) 0.01184(13) -0.05913(13)
loop_
_geom_bond_atom_site_label_1
_geom_bond_atom_site_label_2
_geom_bond_site_symmetry_1
_geom_bond_site_symmetry_2
Cu1 O12 1_555 1_555
Cu2 O5 1_555 1_555
Na1 O1 1_555 1_555
C1 H1 1_555 1_555
H2 C1 1_555 1_555
C2 C3 1_555 1_555
C3 C1 1_555 1_555
C4 C3 1_555 1_555
H3 C4 1_555 1_555
C5 C4 1_555 1_555
H4 C5 1_555 1_555
C6 C5 1_555 1_555
H5 C6 1_555 1_555
C7 C2 1_555 1_555
C8 C7 1_555 1_555
H6 C8 1_555 1_555
H7 C8 1_555 1_555
C9 C10 1_555 1_555
C10 C8 1_555 1_555
C11 C10 1_555 1_555
H8 C11 1_555 1_555
C12 C11 1_555 1_555
H9 C12 1_555 1_555
C13 C12 1_555 1_555
H10 C13 1_555 1_555
C14 C9 1_555 1_555
C15 C14 1_555 1_555
H11 C15 1_555 1_555
H12 C15 1_555 1_555
C16 C17 1_555 1_555
C17 C15 1_555 1_555
C18 C17 1_555 1_555
H13 C18 1_555 1_555
C19 C18 1_555 1_555
H14 C19 1_555 1_555
C20 C19 1_555 1_555
H15 C20 1_555 1_555
C21 C16 1_555 1_555
C22 C21 1_555 1_555
H16 C22 1_555 1_555
H17 C22 1_555 1_555
C23 C24 1_555 1_555
C24 C22 1_555 1_555
C25 C24 1_555 1_555
H18 C25 1_555 1_555
C26 C25 1_555 1_555
H19 C26 1_555 1_555
C27 C26 1_555 1_555
H20 C27 1_555 1_555
C28 C1 1_555 1_555
C29 H21 1_555 1_555
H22 C29 1_555 1_555
C30 C29 1_555 1_555
C31 H23 1_555 1_555
H24 C31 1_555 1_555
C32 C31 1_555 1_555
C33 H25 1_555 1_555
H26 C33 1_555 1_555
C34 C33 1_555 1_555
C35 H27 1_555 1_555
H28 C35 1_555 1_555
C36 C35 1_555 1_555
O1 C2 1_555 1_555
O2 Na1 1_555 1_555
O3 Na1 1_555 1_555
O4 Na1 1_555 1_555
O5 Na1 1_555 1_555
O6 C30 1_555 1_555
O7 C32 1_555 1_555
O8 C32 1_555 1_555
O9 Cu2 1_555 1_555
O10 C34 1_555 1_555
O11 C36 1_555 1_555
O12 C36 1_555 1_555
Cu1B O8 1_555 1_555
Na1B O1B 1_555 1_555
C1B H1B 1_555 1_555
H2B C1B 1_555 1_555
C2B C3B 1_555 1_555
C3B C1B 1_555 1_555
C4B C3B 1_555 1_555
H3B C4B 1_555 1_555
C5B C4B 1_555 1_555
H4B C5B 1_555 1_555
C6B C5B 1_555 1_555
H5B C6B 1_555 1_555
C7B C2B 1_555 1_555
C8B C7B 1_555 1_555
H6B C8B 1_555 1_555
H7B C8B 1_555 1_555
C9B C10B 1_555 1_555
C10B C8B 1_555 1_555
C11B C10B 1_555 1_555
H8B C11B 1_555 1_555
C12B C11B 1_555 1_555
H9B C12B 1_555 1_555
C13B C12B 1_555 1_555
H10B C13B 1_555 1_555
C14B C9B 1_555 1_555
C15B C14B 1_555 1_555
H11B C15B 1_555 1_555
H12B C15B 1_555 1_555
C16B C17B 1_555 1_555
C17B C15B 1_555 1_555
C18B C17B 1_555 1_555
H13B C18B 1_555 1_555
C19B C18B 1_555 1_555
H14B C19B 1_555 1_555
C20B C19B 1_555 1_555
H15B C20B 1_555 1_555
C21B C16B 1_555 1_555
C22B C21B 1_555 1_555
H16B C22B 1_555 1_555
H17B C22B 1_555 1_555
C23B C24B 1_555 1_555
C24B C22B 1_555 1_555
C25B C24B 1_555 1_555
H18B C25B 1_555 1_555
C26B C25B 1_555 1_555
H19B C26B 1_555 1_555
C27B C26B 1_555 1_555
H20B C27B 1_555 1_555
C28B C1B 1_555 1_555
C29B H21B 1_555 1_555
H22B C29B 1_555 1_555
C30B C29B 1_555 1_555
C31B H23B 1_555 1_555
H24B C31B 1_555 1_555
C32B C31B 1_555 1_555
C33B H25B 1_555 1_555
H26B C33B 1_555 1_555
C34B C33B 1_555 1_555
C35B H27B 1_555 1_555
H28B C35B 1_555 1_555
C36B C35B 1_555 1_555
O1B C2B 1_555 1_555
O2B Na1B 1_555 1_555
O3B Na1B 1_555 1_555
O4B Na1B 1_555 1_555
O5B Cu2 1_555 1_555
O6B C30B 1_555 1_555
O7B C32B 1_555 1_555
O8B Cu1 1_555 1_555
O9B Cu2 1_555 1_555
O10B C34B 1_555 1_555
O11B C36B 1_555 1_555
O12B Cu1B 1_555 1_555
Cu1_2 O6 1_555 1_555
Cu1B_2 Cu1 1_555 1_555
O6_2 Cu1 1_555 1_555
O6B_2 Cu1B 1_555 1_555
O7_2 Cu1 1_555 1_555
O7B_2 Cu1B 1_555 1_555
O11_2 Cu1B 1_555 1_555
O11B_2 Cu1 1_555 1_555
Na1 O9 1_555 1_555
C6 C7 1_555 1_555
C9 O2 1_555 1_555
C13 C14 1_555 1_555
C16 O3 1_555 1_555
C20 C21 1_555 1_555
C23 C28 1_555 1_555
C23 O4 1_555 1_555
C27 C28 1_555 1_555
C29 O1 1_555 1_555
C30 O5 1_555 1_555
C31 O2 1_555 1_555
C33 O3 1_555 1_555
C34 O9 1_555 1_555
C35 O4 1_555 1_555
O7 Cu1_2 1_555 1_555
O11 Cu1B_2 1_555 1_555
Cu1B Cu1_2 1_555 1_555
Na1B O5B 1_555 1_555
Na1B O9B 1_555 1_555
C6B C7B 1_555 1_555
C9B O2B 1_555 1_555
C13B C14B 1_555 1_555
C16B O3B 1_555 1_555
C20B C21B 1_555 1_555
C23B C28B 1_555 1_555
C23B O4B 1_555 1_555
C27B C28B 1_555 1_555
C29B O1B 1_555 1_555
C30B O5B 1_555 1_555
C31B O2B 1_555 1_555
C32B O8B 1_555 1_555
C33B O3B 1_555 1_555
C34B O9B 1_555 1_555
C35B O4B 1_555 1_555
C36B O12B 1_555 1_555
O6B Cu1B_2 1_555 1_555
O7B Cu1B_2 1_555 1_555
O11B Cu1_2 1_555 1_555

#END
