
#######################################################################
#
#                 Cambridge Crystallographic Data Centre
#                                CCDC 
#
#######################################################################
#
# If this CIF has been generated from an entry in the Cambridge 
# Structural Database, then it will include bibliographic, chemical, 
# crystal, experimental, refinement or atomic coordinate data resulting 
# from the CCDC's data processing and validation procedures.
#
#######################################################################

data_GICPIT
_symmetry_cell_setting           triclinic
_symmetry_space_group_name_H-M   'P -1'
_symmetry_Int_Tables_number      2
_space_group_name_Hall           '-P 1'
loop_
_symmetry_equiv_pos_site_id
_symmetry_equiv_pos_as_xyz
1 x,y,z
2 -x,-y,-z
_cell_length_a                   11.640(5)
_cell_length_b                   15.256(6)
_cell_length_c                   17.666(7)
_cell_angle_alpha                109.284(6)
_cell_angle_beta                 107.937(6)
_cell_angle_gamma                93.879(7)
_cell_volume                     2766.64
loop_
_atom_site_label
_atom_site_type_symbol
_atom_site_fract_x
_atom_site_fract_y
_atom_site_fract_z
Mn1 Mn -0.00071(10) -0.44499(9) -0.09021(8)
Mn2 Mn -0.41151(10) -0.06257(8) 0.08039(7)
O1 O 0.0689(5) -0.3545(4) 0.0386(4)
O2 O 0.0197(5) -0.4091(4) 0.1274(4)
O3 O -0.3467(5) -0.0685(4) 0.2142(4)
O4 O -0.3713(5) -0.1953(4) 0.1036(4)
O5 O -0.4780(5) -0.1406(4) -0.0515(4)
O6 O -0.6189(5) -0.0846(4) -0.1273(4)
O7 O -1.0619(5) -0.4557(4) -0.2312(4)
O8 O -1.0049(5) -0.3173(4) -0.1273(4)
N1 N -0.1976(6) -0.4547(5) -0.0958(4)
N2 N -0.8036(6) -0.4448(5) -0.0885(5)
N3 N -0.6051(6) -0.0674(5) 0.0849(4)
N4 N -1.2191(6) -0.0504(5) 0.0724(4)
C1 C 0.0510(7) -0.2107(6) 0.2488(5)
C2 C -0.0879(7) -0.2236(6) 0.2112(5)
H1 H -0.1223 -0.2902 0.1789
H2 H -0.1093 -0.1905 0.1719
C3 C -0.1444(8) -0.1865(6) 0.2803(5)
C4 C -0.0884(8) -0.0811(6) 0.3311(6)
H3 H -0.1102 -0.0461 0.2935
H4 H -0.1217 -0.0569 0.3764
C5 C 0.0503(8) -0.0670(7) 0.3697(6)
H5 H 0.0845 0.0007 0.4009
C6 C 0.0843(9) -0.1191(7) 0.4315(6)
H6 H 0.0507 -0.0951 0.4766
H7 H 0.1730 -0.1091 0.4576
C7 C 0.0320(8) -0.2252(7) 0.3817(5)
H8 H 0.0535 -0.2593 0.4209
C8 C 0.0836(7) -0.2631(6) 0.3108(5)
H9 H 0.0502 -0.3301 0.2799
H10 H 0.1723 -0.2553 0.3354
C9 C 0.1016(8) -0.1047(6) 0.2999(6)
H11 H 0.1905 -0.0945 0.3248
H12 H 0.0811 -0.0705 0.2616
C10 C -0.1069(8) -0.2386(7) 0.3431(5)
H13 H -0.1399 -0.2145 0.3885
H14 H -0.1414 -0.3055 0.3130
C11 C 0.1077(7) -0.2439(6) 0.1776(5)
H15 H 0.0976 -0.2000 0.1480
H16 H 0.1953 -0.2383 0.2054
C12 C 0.0588(7) -0.3433(6) 0.1104(5)
C13 C -0.2849(7) -0.2058(6) 0.2422(5)
H17 H -0.3134 -0.2731 0.2099
H18 H -0.3166 -0.1890 0.2888
C14 C -0.3390(7) -0.1530(6) 0.1838(6)
C15 C -0.7120(7) -0.2762(6) -0.2657(5)
C16 C -0.8176(7) -0.2799(6) -0.2314(5)
H19 H -0.8042 -0.3193 -0.1974
H20 H -0.8174 -0.2167 -0.1943
C17 C -0.9425(7) -0.3189(6) -0.3031(5)
C18 C -0.9603(8) -0.2542(6) -0.3556(5)
H21 H -1.0396 -0.2770 -0.4017
H22 H -0.9593 -0.1905 -0.3190
C19 C -0.8578(8) -0.2526(7) -0.3933(5)
H23 H -0.8710 -0.2121 -0.4271
C20 C -0.8608(9) -0.3515(6) -0.4497(6)
H24 H -0.7980 -0.3511 -0.4751
H25 H -0.9401 -0.3757 -0.4956
C21 C -0.8393(8) -0.4151(6) -0.3993(5)
H26 H -0.8397 -0.4791 -0.4368
C22 C -0.7156(8) -0.3758(6) -0.3263(5)
H27 H -0.6507 -0.3740 -0.3497
H28 H -0.7009 -0.4174 -0.2944
C23 C -0.9435(8) -0.4174(6) -0.3616(6)
H29 H -1.0224 -0.4418 -0.4078
H30 H -0.9317 -0.4590 -0.3297
C24 C -0.7328(8) -0.2132(6) -0.3192(5)
H31 H -0.6673 -0.2114 -0.3421
H32 H -0.7316 -0.1492 -0.2831
C25 C -0.5869(7) -0.2422(6) -0.1932(5)
H33 H -0.5733 -0.2911 -0.1694
H34 H -0.5249 -0.2384 -0.2187
C26 C -0.5621(7) -0.1491(6) -0.1189(5)
C27 C -1.0497(8) -0.3176(6) -0.2689(6)
H35 H -1.0557 -0.2523 -0.2420
H36 H -1.1255 -0.3479 -0.3172
C28 C -1.0393(7) -0.3658(6) -0.2054(6)
C29 C -0.2301(8) -0.3782(6) -0.0462(6)
H37 H -0.1689 -0.3254 -0.0104
C30 C -0.3480(8) -0.3739(6) -0.0457(6)
H38 H -0.3657 -0.3184 -0.0132
C31 C -0.4378(7) -0.4520(6) -0.0937(5)
C32 C -0.4068(7) -0.5305(6) -0.1439(6)
H39 H -0.4664 -0.5845 -0.1790
C33 C -0.2895(7) -0.5287(7) -0.1420(6)
H40 H -0.2717 -0.5834 -0.1757
C34 C -0.5653(7) -0.4497(6) -0.0924(5)
C35 C -0.6664(7) -0.5097(6) -0.1592(6)
H41 H -0.6568 -0.5530 -0.2071
C36 C -0.7823(8) -0.5049(6) -0.1543(6)
H42 H -0.8492 -0.5463 -0.1998
C37 C -0.5877(7) -0.3862(6) -0.0230(5)
H43 H -0.5223 -0.3443 0.0236
C38 C -0.7059(7) -0.3855(6) -0.0232(5)
H44 H -0.7186 -0.3425 0.0235
C39 C -0.6316(8) -0.0016(7) 0.1464(6)
H45 H -0.5663 0.0412 0.1924
C40 C -0.7474(8) 0.0064(6) 0.1458(6)
H46 H -0.7597 0.0559 0.1885
C41 C -0.8469(7) -0.0588(6) 0.0817(5)
C42 C -0.8185(7) -0.1286(6) 0.0207(5)
H47 H -0.8816 -0.1746 -0.0241
C43 C -0.6999(7) -0.1311(6) 0.0252(6)
H48 H -0.6851 -0.1806 -0.0162
C44 C -0.9739(7) -0.0536(6) 0.0787(5)
C45 C -1.0055(7) 0.0164(6) 0.1379(6)
H49 H -0.9441 0.0651 0.1814
C46 C -1.1249(7) 0.0156(6) 0.1339(6)
H50 H -1.1414 0.0632 0.1759
C47 C -1.0730(7) -0.1215(6) 0.0141(5)
H51 H -1.0596 -0.1696 -0.0290
C48 C -1.1888(7) -0.1170(6) 0.0146(5)
H52 H -1.2522 -0.1641 -0.0289
Mn1_2 Mn -1.00071(10) -0.44499(9) -0.09021(8)
Mn1A Mn 0.00071(10) -0.55501(9) 0.09021(8)
Mn2_2 Mn -1.41151(10) -0.06257(8) 0.08039(7)
Mn2A Mn -0.58849(10) 0.06257(8) -0.08039(7)
O2A O -0.0197(5) -0.5909(4) -0.1274(4)
O6A O -0.3811(5) 0.0846(4) 0.1273(4)
O7_2 O -0.0619(5) -0.4557(4) -0.2312(4)
O8_2 O -0.0049(5) -0.3173(4) -0.1273(4)
N2_2 N 0.1964(6) -0.4448(5) -0.0885(5)
N4_2 N -0.2191(6) -0.0504(5) 0.0724(4)
O9 O 0.5566(8) -0.8076(6) -0.2540(5)
O10 O 0.4375(8) -0.9489(5) -0.3394(5)
H53 H 0.4127 -0.9403 -0.2992
O11 O 0.7144(8) -0.5414(7) -0.3351(8)
H54 H 0.7763 -0.5008 -0.3047
O12 O 0.6835(15) -0.4941(14) -0.4206(15)
C49 C 0.4828(9) -0.8207(7) -0.4513(7)
C50 C 0.5240(9) -0.7144(7) -0.3979(7)
H55 H 0.5034 -0.7001 -0.3465
H56 H 0.6126 -0.6972 -0.3807
C51 C 0.4614(9) -0.6560(7) -0.4494(7)
C52 C 0.4906(11) -0.6805(8) -0.5305(8)
H57 H 0.5786 -0.6637 -0.5160
H58 H 0.4507 -0.6439 -0.5631
C53 C 0.4480(11) -0.7845(8) -0.5847(8)
H59 H 0.4688 -0.7982 -0.6366
C54 C 0.3128(11) -0.8128(8) -0.6090(7)
H60 H 0.2870 -0.8799 -0.6434
H61 H 0.2699 -0.7783 -0.6427
C55 C 0.2813(10) -0.7910(7) -0.5277(7)
H62 H 0.1922 -0.8081 -0.5430
C56 C 0.3457(9) -0.8469(7) -0.4777(7)
H63 H 0.3191 -0.9138 -0.5123
H64 H 0.3235 -0.8351 -0.4270
C57 C 0.3239(9) -0.6857(7) -0.4754(7)
H65 H 0.2820 -0.6506 -0.5089
H66 H 0.3019 -0.6703 -0.4245
C58 C 0.5161(11) -0.8399(8) -0.5316(7)
H67 H 0.4936 -0.9070 -0.5659
H68 H 0.6041 -0.8209 -0.5155
C59 C 0.5522(10) -0.8767(8) -0.3990(7)
H69 H 0.5359 -0.9425 -0.4367
H70 H 0.6397 -0.8533 -0.3806
C60 C 0.5214(11) -0.8726(9) -0.3220(8)
C61 C 0.4988(10) -0.5515(7) -0.3967(9)
H71 H 0.4575 -0.5194 -0.4333
H72 H 0.4642 -0.5399 -0.3516
C62 C 0.6273(12) -0.5034(10) -0.3558(12)
O14 O -1.265(3) -0.243(2) -0.196(2)
H73 H -1.3091 -0.2654 -0.2487
H74 H -1.2879 -0.2018 -0.1604
O13? O 0.6536(17) -0.4134(13) -0.3006(15)
loop_
_geom_bond_atom_site_label_1
_geom_bond_atom_site_label_2
_geom_bond_site_symmetry_1
_geom_bond_site_symmetry_2
Mn1 O1 1_555 1_555
Mn2 O3 1_555 1_555
O1 C12 1_555 1_555
O2 C12 1_555 1_555
O3 C14 1_555 1_555
O4 Mn2 1_555 1_555
O5 Mn2 1_555 1_555
O6 C26 1_555 1_555
O7 C28 1_555 1_555
O8 C28 1_555 1_555
N1 Mn1 1_555 1_555
N2 C36 1_555 1_555
N3 Mn2 1_555 1_555
N4 C46 1_555 1_555
C1 C2 1_555 1_555
C2 H1 1_555 1_555
H2 C2 1_555 1_555
C3 C2 1_555 1_555
C4 C3 1_555 1_555
H3 C4 1_555 1_555
H4 C4 1_555 1_555
C5 C4 1_555 1_555
H5 C5 1_555 1_555
C6 C5 1_555 1_555
H6 C6 1_555 1_555
H7 C6 1_555 1_555
C7 C6 1_555 1_555
H8 C7 1_555 1_555
C8 C1 1_555 1_555
H9 C8 1_555 1_555
H10 C8 1_555 1_555
C9 C1 1_555 1_555
H11 C9 1_555 1_555
H12 C9 1_555 1_555
C10 C3 1_555 1_555
H13 C10 1_555 1_555
H14 C10 1_555 1_555
C11 C1 1_555 1_555
H15 C11 1_555 1_555
H16 C11 1_555 1_555
C12 C11 1_555 1_555
C13 C3 1_555 1_555
H17 C13 1_555 1_555
H18 C13 1_555 1_555
C14 O4 1_555 1_555
C15 C16 1_555 1_555
C16 H19 1_555 1_555
H20 C16 1_555 1_555
C17 C16 1_555 1_555
C18 C17 1_555 1_555
H21 C18 1_555 1_555
H22 C18 1_555 1_555
C19 C18 1_555 1_555
H23 C19 1_555 1_555
C20 C19 1_555 1_555
H24 C20 1_555 1_555
H25 C20 1_555 1_555
C21 C20 1_555 1_555
H26 C21 1_555 1_555
C22 C15 1_555 1_555
H27 C22 1_555 1_555
H28 C22 1_555 1_555
C23 C17 1_555 1_555
H29 C23 1_555 1_555
H30 C23 1_555 1_555
C24 C15 1_555 1_555
H31 C24 1_555 1_555
H32 C24 1_555 1_555
C25 C15 1_555 1_555
H33 C25 1_555 1_555
H34 C25 1_555 1_555
C26 O5 1_555 1_555
C27 C17 1_555 1_555
H35 C27 1_555 1_555
H36 C27 1_555 1_555
C28 C27 1_555 1_555
C29 N1 1_555 1_555
H37 C29 1_555 1_555
C30 C29 1_555 1_555
H38 C30 1_555 1_555
C31 C30 1_555 1_555
C32 C31 1_555 1_555
H39 C32 1_555 1_555
C33 N1 1_555 1_555
H40 C33 1_555 1_555
C34 C31 1_555 1_555
C35 C34 1_555 1_555
H41 C35 1_555 1_555
C36 C35 1_555 1_555
H42 C36 1_555 1_555
C37 C34 1_555 1_555
H43 C37 1_555 1_555
C38 N2 1_555 1_555
H44 C38 1_555 1_555
C39 N3 1_555 1_555
H45 C39 1_555 1_555
C40 C39 1_555 1_555
H46 C40 1_555 1_555
C41 C40 1_555 1_555
C42 C41 1_555 1_555
H47 C42 1_555 1_555
C43 N3 1_555 1_555
H48 C43 1_555 1_555
C44 C41 1_555 1_555
C45 C44 1_555 1_555
H49 C45 1_555 1_555
C46 C45 1_555 1_555
H50 C46 1_555 1_555
C47 C44 1_555 1_555
H51 C47 1_555 1_555
C48 N4 1_555 1_555
H52 C48 1_555 1_555
O9 C60 1_555 1_555
O10 H53 1_555 1_555
O11 H54 1_555 1_555
O12 C62 1_555 1_555
C49 C50 1_555 1_555
C50 H55 1_555 1_555
H56 C50 1_555 1_555
C51 C50 1_555 1_555
C52 C51 1_555 1_555
H57 C52 1_555 1_555
H58 C52 1_555 1_555
C53 C52 1_555 1_555
H59 C53 1_555 1_555
C54 C53 1_555 1_555
H60 C54 1_555 1_555
H61 C54 1_555 1_555
C55 C54 1_555 1_555
H62 C55 1_555 1_555
C56 C49 1_555 1_555
H63 C56 1_555 1_555
H64 C56 1_555 1_555
C57 C51 1_555 1_555
H65 C57 1_555 1_555
H66 C57 1_555 1_555
C58 C49 1_555 1_555
H67 C58 1_555 1_555
H68 C58 1_555 1_555
C59 C49 1_555 1_555
H69 C59 1_555 1_555
H70 C59 1_555 1_555
C60 O10 1_555 1_555
C61 C51 1_555 1_555
H71 C61 1_555 1_555
H72 C61 1_555 1_555
C62 O11 1_555 1_555
O14 H73 1_555 1_555
H74 O14 1_555 1_555
Mn1_2 O7 1_555 1_555
Mn1A O2 1_555 1_555
Mn2_2 N4 1_555 1_555
Mn2A O6 1_555 1_555
O2A Mn1 1_555 1_555
O6A Mn2 1_555 1_555
O7_2 Mn1 1_555 1_555
O8_2 Mn1 1_555 1_555
N2_2 Mn1 1_555 1_555
N4_2 Mn2 1_555 1_555
O8 Mn1_2 1_555 1_555
N2 Mn1_2 1_555 1_555
C5 C9 1_555 1_555
C7 C8 1_555 1_555
C7 C10 1_555 1_555
C13 C14 1_555 1_555
C19 C24 1_555 1_555
C21 C22 1_555 1_555
C21 C23 1_555 1_555
C25 C26 1_555 1_555
C32 C33 1_555 1_555
C37 C38 1_555 1_555
C42 C43 1_555 1_555
C47 C48 1_555 1_555
C53 C58 1_555 1_555
C55 C56 1_555 1_555
C55 C57 1_555 1_555
C59 C60 1_555 1_555
C61 C62 1_555 1_555

#END
