
#######################################################################
#
#                 Cambridge Crystallographic Data Centre
#                                CCDC 
#
#######################################################################
#
# If this CIF has been generated from an entry in the Cambridge 
# Structural Database, then it will include bibliographic, chemical, 
# crystal, experimental, refinement or atomic coordinate data resulting 
# from the CCDC's data processing and validation procedures.
#
#######################################################################

data_GICQAM
_symmetry_cell_setting           monoclinic
_symmetry_space_group_name_H-M   'C 2/c'
_symmetry_Int_Tables_number      15
_space_group_name_Hall           '-C 2yn'
loop_
_symmetry_equiv_pos_site_id
_symmetry_equiv_pos_as_xyz
1 x,y,z
2 1/2+x,1/2+y,z
3 -x,y,1/2-z
4 1/2-x,1/2+y,1/2-z
5 -x,-y,-z
6 1/2-x,1/2-y,-z
7 x,-y,1/2+z
8 1/2+x,1/2-y,1/2+z
_cell_length_a                   22.4143(13)
_cell_length_b                   14.0441(8)
_cell_length_c                   11.2699(7)
_cell_angle_alpha                90
_cell_angle_beta                 113.7200(10)
_cell_angle_gamma                90
_cell_volume                     3247.94
loop_
_atom_site_label
_atom_site_type_symbol
_atom_site_fract_x
_atom_site_fract_y
_atom_site_fract_z
Cu1 Cu 0.0000 0.29669(2) 0.2500
Cu2 Cu 0.0000 0.10706(2) 0.2500
O1 O 0.07142(8) 0.29230(10) 0.42064(15)
O2 O 0.08202(7) 0.13463(11) 0.40930(15)
O3 O 0.44886(7) 0.38765(10) 0.85224(15)
O4 O 0.43410(7) 0.23030(11) 0.83192(15)
N1 N 0.0000 0.45124(17) 0.2500
N2 N 0.0000 0.95373(16) 0.2500
C1 C 0.10195(10) 0.21461(14) 0.4585(2)
C2 C 0.16897(11) 0.21460(15) 0.5683(2)
H1 H 0.1994 0.1964 0.5307
H2 H 0.1691 0.1634 0.6262
C3 C 0.19860(10) 0.30162(14) 0.6541(2)
C4 C 0.26920(10) 0.27377(15) 0.7424(2)
H3 H 0.2686 0.2175 0.7919
H4 H 0.2927 0.2580 0.6891
C5 C 0.30500(9) 0.35414(14) 0.83595(19)
C6 C 0.26705(11) 0.37827(17) 0.9187(2)
H5 H 0.2886 0.4300 0.9773
H6 H 0.2666 0.3233 0.9705
C7 C 0.19691(11) 0.40731(17) 0.8333(2)
H7 H 0.1734 0.4216 0.8880
C8 C 0.16253(10) 0.32589(16) 0.7401(2)
H8 H 0.1609 0.2701 0.7894
H9 H 0.1181 0.3445 0.6862
C9 C 0.20084(11) 0.39118(15) 0.5777(2)
H10 H 0.2240 0.3773 0.5232
H11 H 0.1568 0.4104 0.5221
C10 C 0.23527(11) 0.47252(16) 0.6713(2)
H12 H 0.2360 0.5292 0.6213
C11 C 0.19787(12) 0.49503(16) 0.7555(3)
H13 H 0.2187 0.5473 0.8136
H14 H 0.1536 0.5139 0.7009
C12 C 0.30536(10) 0.44284(15) 0.7563(2)
H15 H 0.3276 0.4946 0.8142
H16 H 0.3287 0.4291 0.7021
C13 C 0.37421(10) 0.32216(16) 0.9278(2)
H17 H 0.3915 0.3681 0.9976
H18 H 0.3708 0.2616 0.9661
C14 C 0.42263(10) 0.31125(14) 0.86541(19)
C15 C -0.02111(11) 0.50023(15) 0.1393(2)
H19 H -0.0363 0.4667 0.0616
C16 C -0.02142(11) 0.59849(14) 0.1347(2)
H20 H -0.0358 0.6300 0.0555
C17 C 0.0000 0.64966(19) 0.2500
C18 C 0.0000 0.75520(19) 0.2500
C19 C -0.02065(10) 0.80658(13) 0.3321(2)
H21 H -0.0343 0.7750 0.3893
C20 C -0.02068(10) 0.90484(14) 0.3280(2)
H22 H -0.0357 0.9384 0.3817
C15B C 0.02111(11) 0.50023(15) 0.3607(2)
H19B H 0.0363 0.4667 0.4384
C16B C 0.02142(11) 0.59849(14) 0.3653(2)
H20B H 0.0358 0.6300 0.4445
C19B C 0.02065(10) 0.80658(13) 0.1679(2)
H21B H 0.0343 0.7750 0.1107
C20B C 0.02068(10) 0.90484(14) 0.1720(2)
H22B H 0.0357 0.9384 0.1183
O1B O -0.07142(8) 0.29230(10) 0.07936(15)
O2B O -0.08202(7) 0.13463(11) 0.09070(15)
O3B O -0.44886(7) 0.38765(10) -0.35224(15)
O4B O -0.43410(7) 0.23030(11) -0.33192(15)
C1B C -0.10195(10) 0.21461(14) 0.0415(2)
C2B C -0.16897(11) 0.21460(15) -0.0683(2)
H1B H -0.1994 0.1964 -0.0307
H2B H -0.1691 0.1634 -0.1262
C3B C -0.19860(10) 0.30162(14) -0.1541(2)
C4B C -0.26920(10) 0.27377(15) -0.2424(2)
H3B H -0.2686 0.2175 -0.2919
H4B H -0.2927 0.2580 -0.1891
C5B C -0.30500(9) 0.35414(14) -0.33595(19)
C6B C -0.26705(11) 0.37827(17) -0.4187(2)
H5B H -0.2886 0.4300 -0.4773
H6B H -0.2666 0.3233 -0.4705
C7B C -0.19691(11) 0.40731(17) -0.3333(2)
H7B H -0.1734 0.4216 -0.3880
C8B C -0.16253(10) 0.32589(16) -0.2401(2)
H8B H -0.1609 0.2701 -0.2894
H9B H -0.1181 0.3445 -0.1862
C9B C -0.20084(11) 0.39118(15) -0.0777(2)
H10B H -0.2240 0.3773 -0.0232
H11B H -0.1568 0.4104 -0.0221
C10B C -0.23527(11) 0.47252(16) -0.1713(2)
H12B H -0.2360 0.5292 -0.1213
C11B C -0.19787(12) 0.49503(16) -0.2555(3)
H13B H -0.2187 0.5473 -0.3136
H14B H -0.1536 0.5139 -0.2009
C12B C -0.30536(10) 0.44284(15) -0.2563(2)
H15B H -0.3276 0.4946 -0.3142
H16B H -0.3287 0.4291 -0.2021
C13B C -0.37421(10) 0.32216(16) -0.4278(2)
H17B H -0.3915 0.3681 -0.4976
H18B H -0.3708 0.2616 -0.4661
C14B C -0.42263(10) 0.31125(14) -0.36541(19)
Cu1G Cu -0.5000 0.20331(2) -0.2500
Cu1G_2 Cu 0.5000 0.20331(2) 0.7500
Cu2_2 Cu 0.0000 1.10706(2) 0.2500
Cu2G Cu -0.5000 0.39294(2) -0.2500
Cu2G_2 Cu 0.5000 0.39294(2) 0.7500
O3G O -0.05114(7) 0.11235(10) 0.35224(15)
O3E O 0.05114(7) 0.11235(10) 0.14776(15)
O4G O -0.06590(7) 0.26970(11) 0.33192(15)
O4E O 0.06590(7) 0.26970(11) 0.16808(15)
N2_2 N 0.0000 -0.04627(16) 0.2500
loop_
_geom_bond_atom_site_label_1
_geom_bond_atom_site_label_2
_geom_bond_site_symmetry_1
_geom_bond_site_symmetry_2
Cu1 O1 1_555 1_555
Cu2 O2 1_555 1_555
O1 C1 1_555 1_555
O2 C1 1_555 1_555
O3 C14 1_555 1_555
O4 C14 1_555 1_555
N1 Cu1 1_555 1_555
N2 C20 1_555 1_555
C1 C2 1_555 1_555
C2 H1 1_555 1_555
H2 C2 1_555 1_555
C3 C2 1_555 1_555
C4 C3 1_555 1_555
H3 C4 1_555 1_555
H4 C4 1_555 1_555
C5 C4 1_555 1_555
C6 C5 1_555 1_555
H5 C6 1_555 1_555
H6 C6 1_555 1_555
C7 C6 1_555 1_555
H7 C7 1_555 1_555
C8 C3 1_555 1_555
H8 C8 1_555 1_555
H9 C8 1_555 1_555
C9 C3 1_555 1_555
H10 C9 1_555 1_555
H11 C9 1_555 1_555
C10 C9 1_555 1_555
H12 C10 1_555 1_555
C11 C7 1_555 1_555
H13 C11 1_555 1_555
H14 C11 1_555 1_555
C12 C5 1_555 1_555
H15 C12 1_555 1_555
H16 C12 1_555 1_555
C13 C5 1_555 1_555
H17 C13 1_555 1_555
H18 C13 1_555 1_555
C14 C13 1_555 1_555
C15 N1 1_555 1_555
H19 C15 1_555 1_555
C16 C15 1_555 1_555
H20 C16 1_555 1_555
C17 C16 1_555 1_555
C18 C17 1_555 1_555
C19 C18 1_555 1_555
H21 C19 1_555 1_555
C20 C19 1_555 1_555
H22 C20 1_555 1_555
C15B N1 1_555 1_555
H19B C15B 1_555 1_555
C16B C17 1_555 1_555
H20B C16B 1_555 1_555
C19B C18 1_555 1_555
H21B C19B 1_555 1_555
C20B N2 1_555 1_555
H22B C20B 1_555 1_555
O1B Cu1 1_555 1_555
O2B Cu2 1_555 1_555
O3B C14B 1_555 1_555
O4B C14B 1_555 1_555
C1B O1B 1_555 1_555
C2B C1B 1_555 1_555
H1B C2B 1_555 1_555
H2B C2B 1_555 1_555
C3B C2B 1_555 1_555
C4B C3B 1_555 1_555
H3B C4B 1_555 1_555
H4B C4B 1_555 1_555
C5B C4B 1_555 1_555
C6B C5B 1_555 1_555
H5B C6B 1_555 1_555
H6B C6B 1_555 1_555
C7B C6B 1_555 1_555
H7B C7B 1_555 1_555
C8B C3B 1_555 1_555
H8B C8B 1_555 1_555
H9B C8B 1_555 1_555
C9B C3B 1_555 1_555
H10B C9B 1_555 1_555
H11B C9B 1_555 1_555
C10B C9B 1_555 1_555
H12B C10B 1_555 1_555
C11B C7B 1_555 1_555
H13B C11B 1_555 1_555
H14B C11B 1_555 1_555
C12B C5B 1_555 1_555
H15B C12B 1_555 1_555
H16B C12B 1_555 1_555
C13B C5B 1_555 1_555
H17B C13B 1_555 1_555
H18B C13B 1_555 1_555
C14B C13B 1_555 1_555
Cu1G O4B 1_555 1_555
Cu1G_2 O4 1_555 1_555
Cu2_2 N2 1_555 1_555
Cu2G O3B 1_555 1_555
Cu2G_2 O3 1_555 1_555
O3G Cu2 1_555 1_555
O3E Cu2 1_555 1_555
O4G Cu1 1_555 1_555
O4E Cu1 1_555 1_555
N2_2 Cu2 1_555 1_555
C7 C8 1_555 1_555
C10 C11 1_555 1_555
C10 C12 1_555 1_555
C15B C16B 1_555 1_555
C19B C20B 1_555 1_555
O2B C1B 1_555 1_555
C7B C8B 1_555 1_555
C10B C11B 1_555 1_555
C10B C12B 1_555 1_555

#END
