
#######################################################################
#
#                 Cambridge Crystallographic Data Centre
#                                CCDC 
#
#######################################################################
#
# If this CIF has been generated from an entry in the Cambridge 
# Structural Database, then it will include bibliographic, chemical, 
# crystal, experimental, refinement or atomic coordinate data resulting 
# from the CCDC's data processing and validation procedures.
#
#######################################################################

data_GICRIU
_symmetry_cell_setting           monoclinic
_symmetry_space_group_name_H-M   'P 21'
_symmetry_Int_Tables_number      4
_space_group_name_Hall           'P 2yb'
loop_
_symmetry_equiv_pos_site_id
_symmetry_equiv_pos_as_xyz
1 x,y,z
2 -x,1/2+y,-z
_cell_length_a                   7.6909(9)
_cell_length_b                   9.2333(11)
_cell_length_c                   19.728(2)
_cell_angle_alpha                90
_cell_angle_beta                 90.122(2)
_cell_angle_gamma                90
_cell_volume                     1400.93
loop_
_atom_site_label
_atom_site_type_symbol
_atom_site_fract_x
_atom_site_fract_y
_atom_site_fract_z
Cd1 Cd 0.15454(3) 0.03489(2) -0.074200(11)
O1 O 0.1643(3) 0.1706(3) 0.02098(11)
H1 H 0.0656 0.2076 0.0296
H2 H 0.2481 0.2299 0.0167
O3 O -0.1423(3) 0.0137(3) -0.06115(13)
O4 O -0.5525(3) 0.0602(2) -0.09614(11)
O5 O -0.5618(3) 0.3393(3) -0.00144(14)
O6 O -0.1509(3) 0.3023(2) 0.03337(12)
N1 N 0.1406(4) -0.0387(3) -0.18659(14)
N2 N 0.0761(4) 0.2381(3) -0.14249(14)
C1 C 0.0939(4) 0.0631(3) -0.23269(15)
C2 C 0.0571(4) 0.2081(3) -0.20926(16)
C3 C 0.0427(5) 0.3728(4) -0.12179(19)
H5 H 0.0550 0.3940 -0.0759
C4 C -0.0092(5) 0.4825(4) -0.1649(2)
H6 H -0.0311 0.5748 -0.1482
C5 C -0.0277(5) 0.4540(4) -0.2320(2)
H7 H -0.0621 0.5270 -0.2616
C6 C 0.0054(5) 0.3130(3) -0.25661(18)
C7 C -0.0100(5) 0.2749(5) -0.32676(19)
H8 H -0.0482 0.3441 -0.3576
C8 C 0.0293(5) 0.1424(5) -0.34878(17)
H9 H 0.0211 0.1215 -0.3948
C9 C 0.0839(4) 0.0322(4) -0.30269(16)
C10 C 0.1302(5) -0.1086(4) -0.32327(19)
H10 H 0.1265 -0.1331 -0.3690
C11 C 0.1797(5) -0.2080(4) -0.27718(19)
H11 H 0.2117 -0.3007 -0.2907
C12 C 0.1822(5) -0.1699(4) -0.20885(19)
H12 H 0.2146 -0.2397 -0.1773
C13 C -0.2553(5) 0.1039(3) -0.04458(17)
C14 C -0.4412(4) 0.1230(3) -0.06019(16)
C15 C -0.4448(4) 0.2523(3) -0.01762(17)
C16 C -0.2627(4) 0.2341(3) -0.00250(17)
Cd1_2 Cd -0.84546(3) 0.03489(2) -0.074200(11)
Cd1A Cd -0.15454(3) 0.53489(2) 0.074200(11)
O4_2 O 0.4475(3) 0.0602(2) -0.09614(11)
O6A O 0.1509(3) -0.1977(2) -0.03337(12)
Cd2 Cd -0.34480(3) 0.65639(2) -0.425880(11)
O2 O -0.3360(3) 0.5203(3) -0.52105(11)
H3 H -0.4342 0.4805 -0.5278
H4 H -0.2496 0.4636 -0.5170
O7 O -0.6416(3) 0.6776(3) -0.43893(13)
O8 O -0.6511(3) 0.3891(2) -0.53344(12)
O9 O -1.0619(3) 0.3522(3) -0.49878(14)
O10 O -1.0525(3) 0.6304(2) -0.40351(11)
N3 N -0.4225(4) 0.4526(3) -0.35771(14)
N4 N -0.3587(4) 0.7292(3) -0.31336(14)
C17 C -0.4422(4) 0.4829(3) -0.29066(17)
C18 C -0.4054(4) 0.6284(3) -0.26744(16)
C19 C -0.3180(5) 0.8607(4) -0.29130(19)
H13 H -0.2865 0.9307 -0.3229
C20 C -0.3202(5) 0.8986(4) -0.2230(2)
H14 H -0.2874 0.9912 -0.2095
C21 C -0.3707(5) 0.7994(4) -0.17637(19)
H15 H -0.3754 0.8241 -0.1307
C22 C -0.4157(4) 0.6596(4) -0.19740(16)
C23 C -0.4715(5) 0.5484(5) -0.15160(18)
H16 H -0.4809 0.5693 -0.1056
C24 C -0.5102(5) 0.4159(5) -0.17346(19)
H17 H -0.5477 0.3466 -0.1426
C25 C -0.4954(4) 0.3778(4) -0.24354(18)
C26 C -0.5270(5) 0.2371(4) -0.2682(2)
H18 H -0.5604 0.1640 -0.2385
C27 C -0.5088(5) 0.2083(4) -0.3353(2)
H19 H -0.5307 0.1160 -0.3521
C28 C -0.4567(5) 0.3194(4) -0.37855(19)
H20 H -0.4453 0.2989 -0.4245
C29 C -0.7550(4) 0.5867(3) -0.45510(16)
C30 C -0.7627(4) 0.4567(3) -0.49722(16)
C31 C -0.9452(4) 0.4380(3) -0.48231(17)
C32 C -0.9399(4) 0.5680(3) -0.43999(16)
Cd2A Cd -0.65520(3) 0.15639(2) -0.574120(11)
Cd2_2 Cd -1.34480(3) 0.65639(2) -0.425880(11)
O8A O -0.3489(3) 0.8891(2) -0.46656(12)
O10_2 O -0.0525(3) 0.6304(2) -0.40351(11)
loop_
_geom_bond_atom_site_label_1
_geom_bond_atom_site_label_2
_geom_bond_site_symmetry_1
_geom_bond_site_symmetry_2
Cd1 O1 1_555 1_555
Cd2 O2 1_555 1_555
O1 H1 1_555 1_555
H2 O1 1_555 1_555
O2 H3 1_555 1_555
H4 O2 1_555 1_555
O3 Cd1 1_555 1_555
O4 C14 1_555 1_555
O5 C15 1_555 1_555
O6 C16 1_555 1_555
O7 Cd2 1_555 1_555
O8 C30 1_555 1_555
O9 C31 1_555 1_555
O10 C32 1_555 1_555
N1 Cd1 1_555 1_555
N2 Cd1 1_555 1_555
N3 Cd2 1_555 1_555
N4 Cd2 1_555 1_555
C1 N1 1_555 1_555
C2 N2 1_555 1_555
C3 N2 1_555 1_555
H5 C3 1_555 1_555
C4 C3 1_555 1_555
H6 C4 1_555 1_555
C5 C4 1_555 1_555
H7 C5 1_555 1_555
C6 C2 1_555 1_555
C7 C6 1_555 1_555
H8 C7 1_555 1_555
C8 C7 1_555 1_555
H9 C8 1_555 1_555
C9 C1 1_555 1_555
C10 C9 1_555 1_555
H10 C10 1_555 1_555
C11 C10 1_555 1_555
H11 C11 1_555 1_555
C12 N1 1_555 1_555
H12 C12 1_555 1_555
C13 O3 1_555 1_555
C14 C13 1_555 1_555
C15 C14 1_555 1_555
C16 C13 1_555 1_555
C17 N3 1_555 1_555
C18 N4 1_555 1_555
C19 N4 1_555 1_555
H13 C19 1_555 1_555
C20 C19 1_555 1_555
H14 C20 1_555 1_555
C21 C20 1_555 1_555
H15 C21 1_555 1_555
C22 C18 1_555 1_555
C23 C22 1_555 1_555
H16 C23 1_555 1_555
C24 C23 1_555 1_555
H17 C24 1_555 1_555
C25 C17 1_555 1_555
C26 C25 1_555 1_555
H18 C26 1_555 1_555
C27 C26 1_555 1_555
H19 C27 1_555 1_555
C28 N3 1_555 1_555
H20 C28 1_555 1_555
C29 O7 1_555 1_555
C30 C29 1_555 1_555
C31 C30 1_555 1_555
C32 C29 1_555 1_555
Cd1_2 O4 1_555 1_555
Cd1A O6 1_555 1_555
Cd2A O8 1_555 1_555
Cd2_2 O10 1_555 1_555
O4_2 Cd1 1_555 1_555
O6A Cd1 1_555 1_555
O8A Cd2 1_555 1_555
O10_2 Cd2 1_555 1_555
C1 C2 1_555 1_555
C5 C6 1_555 1_555
C8 C9 1_555 1_555
C11 C12 1_555 1_555
C15 C16 1_555 1_555
C17 C18 1_555 1_555
C21 C22 1_555 1_555
C24 C25 1_555 1_555
C27 C28 1_555 1_555
C31 C32 1_555 1_555

#END
