
#######################################################################
#
#                 Cambridge Crystallographic Data Centre
#                                CCDC 
#
#######################################################################
#
# If this CIF has been generated from an entry in the Cambridge 
# Structural Database, then it will include bibliographic, chemical, 
# crystal, experimental, refinement or atomic coordinate data resulting 
# from the CCDC's data processing and validation procedures.
#
#######################################################################

data_GICRUH
_symmetry_cell_setting           orthorhombic
_symmetry_space_group_name_H-M   'P 21 21 21'
_symmetry_Int_Tables_number      19
_space_group_name_Hall           'P 2ac 2ab'
loop_
_symmetry_equiv_pos_site_id
_symmetry_equiv_pos_as_xyz
1 x,y,z
2 1/2+x,1/2-y,-z
3 -x,1/2+y,1/2-z
4 1/2-x,-y,1/2+z
_cell_length_a                   18.2706(4)
_cell_length_b                   24.9868(6)
_cell_length_c                   28.9140(6)
_cell_angle_alpha                90
_cell_angle_beta                 90
_cell_angle_gamma                90
_cell_volume                     13199.9
loop_
_atom_site_label
_atom_site_type_symbol
_atom_site_fract_x
_atom_site_fract_y
_atom_site_fract_z
O21 O 0.2324(11) 0.3978(7) 0.2944(7)
N29 N 0.2133(6) 0.3104(4) 0.2738(3)
C89 C 0.2303(10) 0.3612(6) 0.2635(6)
H99 H 0.2410 0.3703 0.2323
C90 C 0.1879(7) 0.2986(5) 0.3201(4)
H100 H 0.1883 0.3314 0.3386
H101 H 0.2202 0.2720 0.3343
H102 H 0.1380 0.2844 0.3186
C91 C 0.2176(8) 0.2691(5) 0.2392(4)
H103 H 0.2353 0.2844 0.2101
H104 H 0.1689 0.2536 0.2344
H105 H 0.2514 0.2411 0.2496
O22 O 0.0842(12) 0.4460(9) 0.0745(8)
N30 N 0.0606(10) 0.3903(7) 0.1378(6)
C92 C 0.1033(15) 0.4186(13) 0.1089(10)
H106 H 0.1543 0.4178 0.1153
C93 C -0.0164(11) 0.3992(11) 0.1375(10)
H107 H -0.0272 0.4320 0.1202
H108 H -0.0340 0.4029 0.1693
H109 H -0.0409 0.3688 0.1227
C94 C 0.0884(19) 0.3409(12) 0.1584(14)
H110 H 0.1418 0.3398 0.1555
H111 H 0.0671 0.3100 0.1424
H112 H 0.0749 0.3397 0.1912
O23 O 0.7784(13) 0.5121(14) 0.4693(13)
N31 N 0.8834(9) 0.4686(7) 0.4863(6)
C95 C 0.8471(12) 0.5120(8) 0.4696(8)
H113 H 0.8735 0.5421 0.4584
C96 C 0.842(2) 0.431(2) 0.511(2)
H114 H 0.7926 0.4283 0.4981
H115 H 0.8386 0.4419 0.5438
H116 H 0.8658 0.3956 0.5096
C97 C 0.9584(12) 0.4833(12) 0.4987(11)
H117 H 0.9741 0.5139 0.4799
H118 H 0.9910 0.4529 0.4930
H119 H 0.9603 0.4931 0.5315
O24 O 0.2744(5) 0.5476(3) 0.0697(3)
N32 N 0.2899(10) 0.4670(6) 0.0359(6)
C98 C 0.2685(9) 0.5001(5) 0.0710(6)
H120 H 0.2477 0.4844 0.0979
C99 C 0.3692(13) 0.4604(18) 0.0402(16)
H121 H 0.3926 0.4957 0.0415
H122 H 0.3878 0.4407 0.0133
H123 H 0.3804 0.4405 0.0685
C100 C 0.251(3) 0.4149(13) 0.035(2)
H124 H 0.1986 0.4209 0.0321
H125 H 0.2608 0.3959 0.0645
H126 H 0.2691 0.3933 0.0094
O25 O 0.3053(11) 0.4113(9) 0.1615(8)
N33 N 0.4234(10) 0.4397(8) 0.1693(7)
C101 C 0.3519(11) 0.4420(10) 0.1795(9)
H127 H 0.3356 0.4680 0.2012
C102 C 0.4517(13) 0.4046(10) 0.1348(8)
H128 H 0.4116 0.3921 0.1150
H129 H 0.4751 0.3738 0.1497
H130 H 0.4877 0.4237 0.1159
C103 C 0.4712(14) 0.4639(12) 0.2047(9)
H131 H 0.4419 0.4867 0.2251
H132 H 0.5090 0.4855 0.1895
H133 H 0.4945 0.4355 0.2229
O26 O 0.6391(17) 0.3974(12) 0.2034(9)
N34 N 0.6965(11) 0.4277(8) 0.1331(7)
C104 C 0.6770(15) 0.3954(10) 0.1678(8)
H134 H 0.6982 0.3609 0.1641
C105 C 0.7554(14) 0.4104(11) 0.1044(9)
H135 H 0.7606 0.3715 0.1068
H136 H 0.8008 0.4277 0.1144
H137 H 0.7451 0.4202 0.0722
C106 C 0.675(2) 0.4836(10) 0.1375(14)
H138 H 0.6327 0.4864 0.1581
H139 H 0.6623 0.4977 0.1069
H140 H 0.7159 0.5042 0.1503
O27 O 0.628(2) 0.4510(19) 0.4104(17)
N35 N 0.6881(16) 0.3931(15) 0.3646(13)
C107 C 0.6901(19) 0.4334(14) 0.3962(13)
H141 H 0.7350 0.4478 0.4072
C108 C 0.6182(18) 0.3884(19) 0.3421(16)
H142 H 0.5822 0.4106 0.3584
H143 H 0.6024 0.3509 0.3428
H144 H 0.6224 0.4004 0.3100
C109 C 0.7549(13) 0.3677(10) 0.3502(9)
H145 H 0.7947 0.3784 0.3710
H146 H 0.7667 0.3786 0.3185
H147 H 0.7489 0.3287 0.3515
N36 N 0.0314(17) 0.3847(12) 0.3413(10)
C110 C 0.0726(17) 0.4080(12) 0.3670(11)
C111 C -0.015(2) 0.3513(16) 0.2969(14)
C112 C -0.021(2) 0.3698(13) 0.3631(12)
O28 O -0.1343(12) 0.5213(9) 0.0423(8)
O29 O 0.3291(14) 0.4923(9) 0.2860(8)
O30 O 0.3086(18) 0.4473(12) 0.3896(11)
O31 O 0.5419(6) 0.5591(4) 0.4251(3)
O32 O 0.548(2) 0.5172(15) 0.4956(13)
Ni1 Ni 0.60609(7) 0.67133(8) 0.23593(5)
O1 O 0.6367(3) 0.6944(3) 0.5541(2)
O2 O 0.2957(3) 0.6611(3) 0.4457(2)
O3 O 0.3062(3) 0.7908(3) 0.4273(2)
O4 O 0.6794(3) 0.7924(3) 0.48196(19)
O5 O 0.9121(3) 0.6564(3) 0.3766(2)
O6 O 0.8787(3) 0.6749(3) 0.1350(2)
O7 O 0.6632(3) 0.7134(3) 0.10795(19)
O8 O 0.5373(3) 0.7770(3) 0.3297(2)
O9 O 0.6002(3) 0.6018(3) 0.2507(2)
O10 O 0.7196(3) 0.5908(3) 0.2630(2)
N1 N 0.7046(4) 0.6667(4) 0.4015(3)
C1 C 0.7362(4) 0.6702(4) 0.4466(3)
H1 H 0.7318 0.7075 0.4579
H2 H 0.7889 0.6614 0.4446
C2 C 0.6996(5) 0.6325(5) 0.4815(3)
H3 H 0.7038 0.5952 0.4702
H4 H 0.7257 0.6349 0.5114
N2 N 0.6228(4) 0.6454(4) 0.4885(3)
H5 H 0.5911 0.6331 0.4681
C3 C 0.5972(5) 0.6739(4) 0.5228(4)
C4 C 0.5160(4) 0.6859(4) 0.5234(3)
N3 N 0.4768(4) 0.6619(3) 0.4912(2)
C5 C 0.4870(4) 0.7207(4) 0.5571(3)
H6 H 0.5173 0.7370 0.5798
C6 C 0.4116(5) 0.7301(4) 0.5555(3)
H7 H 0.3897 0.7534 0.5774
C7 C 0.3695(4) 0.7060(4) 0.5229(3)
H8 H 0.3182 0.7118 0.5215
C8 C 0.4049(4) 0.6725(4) 0.4915(3)
C9 C 0.3601(4) 0.6467(4) 0.4525(3)
N4 N 0.3930(4) 0.6082(3) 0.4300(3)
H9 H 0.4359 0.5971 0.4401
C10 C 0.3619(5) 0.5824(4) 0.3888(4)
H10 H 0.3157 0.5644 0.3976
H11 H 0.3963 0.5545 0.3779
C11 C 0.3463(5) 0.6211(4) 0.3489(3)
H12 H 0.3367 0.6002 0.3205
H13 H 0.3016 0.6419 0.3562
N5 N 0.4068(4) 0.6584(3) 0.3402(3)
C12 C 0.3823(5) 0.7028(4) 0.3131(3)
H14 H 0.3483 0.6896 0.2890
H15 H 0.4249 0.7191 0.2973
C13 C 0.3437(5) 0.7456(5) 0.3419(4)
H16 H 0.3245 0.7738 0.3213
H17 H 0.3017 0.7293 0.3585
N6 N 0.3942(3) 0.7693(3) 0.3755(3)
H18 H 0.4411 0.7707 0.3686
C14 C 0.3727(4) 0.7882(4) 0.4146(3)
C15 C 0.4310(4) 0.8077(4) 0.4469(3)
N7 N 0.4997(3) 0.7922(3) 0.4369(2)
C16 C 0.4149(5) 0.8396(4) 0.4857(3)
H19 H 0.3664 0.8514 0.4916
C17 C 0.4715(5) 0.8533(4) 0.5152(3)
H20 H 0.4618 0.8747 0.5416
C18 C 0.5416(5) 0.8361(4) 0.5064(3)
H21 H 0.5806 0.8443 0.5269
C19 C 0.5534(4) 0.8065(4) 0.4666(3)
C20 C 0.6300(5) 0.7893(4) 0.4535(3)
N8 N 0.6380(4) 0.7736(4) 0.4104(2)
H22 H 0.5982 0.7685 0.3938
C21 C 0.7085(5) 0.7640(5) 0.3883(3)
H23 H 0.7131 0.7889 0.3619
H24 H 0.7474 0.7732 0.4108
C22 C 0.7225(5) 0.7102(4) 0.3715(3)
H25 H 0.6949 0.7054 0.3423
H26 H 0.7752 0.7075 0.3638
C23 C 0.7117(5) 0.6117(5) 0.3807(4)
H27 H 0.6875 0.6125 0.3501
H28 H 0.6832 0.5868 0.4004
C24 C 0.7871(5) 0.5876(5) 0.3741(3)
H29 H 0.8164 0.5935 0.4024
H30 H 0.7823 0.5485 0.3695
N9 N 0.8257(4) 0.6105(3) 0.3349(2)
H31 H 0.8099 0.6028 0.3069
C25 C 0.8841(4) 0.6428(4) 0.3390(3)
C26 C 0.9130(4) 0.6642(4) 0.2942(3)
N10 N 0.8770(3) 0.6513(3) 0.2564(3)
C27 C 0.9737(6) 0.6972(5) 0.2948(4)
H32 H 0.9983 0.7057 0.3228
C28 C 0.9970(5) 0.7173(5) 0.2524(4)
H33 H 1.0387 0.7399 0.2507
C29 C 0.9599(5) 0.7044(5) 0.2141(4)
H34 H 0.9745 0.7190 0.1852
C30 C 0.9016(4) 0.6708(4) 0.2162(3)
C31 C 0.8572(5) 0.6587(5) 0.1728(3)
N11 N 0.7976(4) 0.6294(4) 0.1792(3)
H35 H 0.7860 0.6182 0.2071
C32 C 0.7505(5) 0.6154(6) 0.1392(3)
H36 H 0.7647 0.5797 0.1273
H37 H 0.7582 0.6418 0.1142
C33 C 0.6694(6) 0.6147(5) 0.1527(3)
H38 H 0.6395 0.6081 0.1247
H39 H 0.6607 0.5848 0.1745
N12 N 0.6457(4) 0.6644(4) 0.1741(3)
C34 C 0.6476(4) 0.7079(5) 0.1496(3)
C35 C 0.6251(4) 0.7554(5) 0.1780(3)
N13 N 0.6050(3) 0.7391(3) 0.2219(3)
C36 C 0.6217(5) 0.8097(5) 0.1642(3)
H40 H 0.6336 0.8209 0.1337
C37 C 0.6001(6) 0.8452(5) 0.1980(4)
H41 H 0.5998 0.8822 0.1905
C38 C 0.5788(5) 0.8305(5) 0.2416(4)
H42 H 0.5628 0.8561 0.2637
C39 C 0.5819(4) 0.7780(5) 0.2514(3)
C40 C 0.5602(4) 0.7504(4) 0.2951(3)
N14 N 0.5654(3) 0.6963(4) 0.2926(3)
C41 C 0.5406(5) 0.6640(5) 0.3308(4)
H43 H 0.5323 0.6878 0.3577
H44 H 0.5803 0.6389 0.3393
C42 C 0.4709(4) 0.6315(4) 0.3228(3)
H45 H 0.4649 0.6250 0.2892
H46 H 0.4758 0.5963 0.3383
C43 C 0.6567(6) 0.5725(5) 0.2652(4)
C44 C 0.6405(7) 0.5175(6) 0.2830(5)
H47 H 0.6862 0.5003 0.2927
H48 H 0.6174 0.4963 0.2586
H49 H 0.6073 0.5200 0.3096
Ni2 Ni 0.19607(7) 0.64516(6) 0.26615(5)
Na1 Na 0.21201(15) 0.73098(14) 0.44488(10)
Na2 Na 0.58316(17) 0.74160(17) 0.05432(12)
O11 O 0.1624(4) 0.6812(4) -0.0507(3)
O12 O 0.5095(3) 0.6604(3) 0.0538(2)
O13 O 0.4816(3) 0.7894(3) 0.0746(2)
O14 O 0.1076(3) 0.7778(3) 0.02045(18)
O15 O -0.1250(4) 0.5132(3) 0.1450(3)
O16 O -0.0491(4) 0.5142(3) 0.3828(3)
O17 O 0.1338(3) 0.6924(3) 0.39126(19)
O18 O 0.2472(3) 0.7474(3) 0.1649(2)
O19 O 0.2070(3) 0.5729(3) 0.2548(2)
O20 O 0.0900(3) 0.5789(3) 0.2365(3)
N15 N 0.0899(5) 0.6290(5) 0.0837(4)
C45 C 0.0829(8) 0.5892(9) 0.0443(5)
H50 H 0.1061 0.5553 0.0541
H51 H 0.0303 0.5819 0.0394
C46 C 0.1112(7) 0.6031(9) 0.0048(6)
H52 H 0.0810 0.6322 -0.0084
H53 H 0.1077 0.5722 -0.0165
N16 N 0.1885(5) 0.6212(5) 0.0059(4)
H54 H 0.2211 0.6069 0.0245
C47 C 0.2047(6) 0.6598(5) -0.0229(4)
C48 C 0.2860(4) 0.6747(4) -0.0247(3)
N17 N 0.3306(4) 0.6510(3) 0.0082(2)
C49 C 0.3098(5) 0.7101(4) -0.0563(3)
H55 H 0.2769 0.7253 -0.0781
C50 C 0.3830(5) 0.7241(4) -0.0565(3)
H56 H 0.4012 0.7488 -0.0788
C51 C 0.4293(5) 0.7019(4) -0.0239(3)
H57 H 0.4800 0.7104 -0.0238
C52 C 0.4004(4) 0.6667(4) 0.0089(3)
C53 C 0.4471(5) 0.6422(4) 0.0458(3)
N18 N 0.4194(4) 0.6013(3) 0.0676(3)
H58 H 0.3770 0.5893 0.0576
C54 C 0.4518(5) 0.5735(4) 0.1070(3)
H59 H 0.5004 0.5594 0.0981
H60 H 0.4205 0.5426 0.1154
C55 C 0.4604(5) 0.6109(4) 0.1499(3)
H61 H 0.4702 0.5887 0.1776
H62 H 0.5032 0.6346 0.1450
N19 N 0.3956(3) 0.6440(3) 0.1585(2)
C56 C 0.4134(4) 0.6902(4) 0.1867(3)
H63 H 0.4481 0.6797 0.2114
H64 H 0.3684 0.7041 0.2016
C57 C 0.4473(4) 0.7335(4) 0.1570(3)
H65 H 0.4623 0.7638 0.1769
H66 H 0.4918 0.7192 0.1418
N20 N 0.3965(4) 0.7526(3) 0.1218(2)
H67 H 0.3495 0.7464 0.1256
C58 C 0.4176(4) 0.7788(4) 0.0846(3)
C59 C 0.3561(4) 0.7960(3) 0.0519(3)
N21 N 0.2894(3) 0.7772(3) 0.0624(2)
C60 C 0.3717(4) 0.8288(5) 0.0154(3)
H68 H 0.4200 0.8416 0.0103
C61 C 0.3140(5) 0.8432(5) -0.0146(3)
H69 H 0.3217 0.8659 -0.0405
C62 C 0.2452(5) 0.8225(4) -0.0040(3)
H70 H 0.2047 0.8305 -0.0234
C63 C 0.2356(4) 0.7909(4) 0.0338(3)
C64 C 0.1600(4) 0.7701(4) 0.0464(3)
N22 N 0.1551(4) 0.7428(4) 0.0863(3)
H71 H 0.1950 0.7355 0.1021
C65 C 0.0834(5) 0.7250(5) 0.1039(4)
H72 H 0.0490 0.7556 0.1027
H73 H 0.0890 0.7144 0.1367
C66 C 0.0496(5) 0.6776(6) 0.0768(4)
H74 H -0.0016 0.6723 0.0871
H75 H 0.0487 0.6864 0.0435
C67 C 0.0724(6) 0.5997(5) 0.1271(4)
H76 H 0.0739 0.6253 0.1532
H77 H 0.1110 0.5726 0.1326
C68 C -0.0016(5) 0.5718(4) 0.1272(4)
H78 H -0.0391 0.5968 0.1152
H79 H 0.0004 0.5406 0.1061
N23 N -0.0231(5) 0.5541(4) 0.1718(3)
H80 H 0.0040 0.5625 0.1959
C69 C -0.0847(5) 0.5245(4) 0.1782(4)
C70 C -0.1036(6) 0.5067(4) 0.2260(5)
N24 N -0.0599(4) 0.5231(3) 0.2610(3)
C71 C -0.1612(6) 0.4731(4) 0.2335(5)
H81 H -0.1897 0.4617 0.2079
C72 C -0.1793(5) 0.4552(4) 0.2773(4)
H82 H -0.2195 0.4319 0.2828
C73 C -0.1348(6) 0.4736(4) 0.3125(4)
H83 H -0.1452 0.4636 0.3435
C74 C -0.0765(6) 0.5056(4) 0.3035(4)
C75 C -0.0299(6) 0.5252(5) 0.3431(4)
N25 N 0.0262(4) 0.5568(3) 0.3318(3)
H84 H 0.0362 0.5642 0.3028
C76 C 0.0717(5) 0.5794(5) 0.3705(3)
H85 H 0.0724 0.5535 0.3964
H86 H 0.0486 0.6128 0.3817
C77 C 0.1501(5) 0.5914(4) 0.3561(4)
H87 H 0.1804 0.5951 0.3843
H88 H 0.1692 0.5605 0.3384
N26 N 0.1584(3) 0.6395(3) 0.3282(3)
C78 C 0.1505(4) 0.6860(4) 0.3500(2)
C79 C 0.1616(4) 0.7321(4) 0.3182(3)
N27 N 0.1864(3) 0.7146(3) 0.27695(19)
C80 C 0.1507(4) 0.7852(4) 0.3254(3)
H89 H 0.1334 0.7971 0.3546
C81 C 0.1642(5) 0.8220(5) 0.2912(4)
H90 H 0.1568 0.8592 0.2965
C82 C 0.1890(4) 0.8034(4) 0.2486(3)
H91 H 0.1984 0.8277 0.2241
C83 C 0.1998(4) 0.7498(4) 0.2424(3)
C84 C 0.2303(4) 0.7209(4) 0.1999(3)
N28 N 0.2339(4) 0.6683(4) 0.2081(2)
C85 C 0.2603(4) 0.6349(5) 0.1708(3)
H92 H 0.2616 0.6563 0.1420
H93 H 0.2254 0.6051 0.1660
C86 C 0.3375(5) 0.6112(4) 0.1795(3)
H94 H 0.3461 0.6086 0.2132
H95 H 0.3397 0.5746 0.1665
C87 C 0.1474(5) 0.5505(4) 0.2399(4)
C88 C 0.1490(7) 0.4950(5) 0.2248(6)
H96 H 0.0999 0.4842 0.2149
H97 H 0.1649 0.4722 0.2505
H98 H 0.1832 0.4912 0.1989
O1A O 0.1367(3) 0.8056(3) 0.4459(2)
O4A O 0.1794(3) 0.7076(3) 0.51804(19)
Na1A Na 0.71201(15) 0.76902(14) 0.55512(10)
Na2A Na 0.08316(17) 0.75840(17) -0.05432(12)
O11A O 0.6624(4) 0.8188(4) 0.0507(3)
O14A O 0.6076(3) 0.7222(3) -0.02045(18)
O33? O 0.409(2) 0.4791(17) 0.3142(15)
loop_
_geom_bond_atom_site_label_1
_geom_bond_atom_site_label_2
_geom_bond_site_symmetry_1
_geom_bond_site_symmetry_2
Ni1 O9 1_555 1_555
O1 C3 1_555 1_555
O2 C9 1_555 1_555
O3 C14 1_555 1_555
O4 C20 1_555 1_555
O5 C25 1_555 1_555
O6 C31 1_555 1_555
O7 C34 1_555 1_555
O8 C40 1_555 1_555
O9 C43 1_555 1_555
O10 C43 1_555 1_555
N1 C1 1_555 1_555
C1 H1 1_555 1_555
H2 C1 1_555 1_555
C2 C1 1_555 1_555
H3 C2 1_555 1_555
H4 C2 1_555 1_555
N2 C2 1_555 1_555
H5 N2 1_555 1_555
C3 N2 1_555 1_555
C4 C3 1_555 1_555
N3 C4 1_555 1_555
C5 C4 1_555 1_555
H6 C5 1_555 1_555
C6 C5 1_555 1_555
H7 C6 1_555 1_555
C7 C6 1_555 1_555
H8 C7 1_555 1_555
C8 N3 1_555 1_555
C9 C8 1_555 1_555
N4 C9 1_555 1_555
H9 N4 1_555 1_555
C10 N4 1_555 1_555
H10 C10 1_555 1_555
H11 C10 1_555 1_555
C11 C10 1_555 1_555
H12 C11 1_555 1_555
H13 C11 1_555 1_555
N5 C11 1_555 1_555
C12 N5 1_555 1_555
H14 C12 1_555 1_555
H15 C12 1_555 1_555
C13 C12 1_555 1_555
H16 C13 1_555 1_555
H17 C13 1_555 1_555
N6 C13 1_555 1_555
H18 N6 1_555 1_555
C14 N6 1_555 1_555
C15 C14 1_555 1_555
N7 C15 1_555 1_555
C16 C15 1_555 1_555
H19 C16 1_555 1_555
C17 C16 1_555 1_555
H20 C17 1_555 1_555
C18 C17 1_555 1_555
H21 C18 1_555 1_555
C19 N7 1_555 1_555
C20 C19 1_555 1_555
N8 C20 1_555 1_555
H22 N8 1_555 1_555
C21 N8 1_555 1_555
H23 C21 1_555 1_555
H24 C21 1_555 1_555
C22 N1 1_555 1_555
H25 C22 1_555 1_555
H26 C22 1_555 1_555
C23 N1 1_555 1_555
H27 C23 1_555 1_555
H28 C23 1_555 1_555
C24 C23 1_555 1_555
H29 C24 1_555 1_555
H30 C24 1_555 1_555
N9 C24 1_555 1_555
H31 N9 1_555 1_555
C25 N9 1_555 1_555
C26 C25 1_555 1_555
N10 C26 1_555 1_555
C27 C26 1_555 1_555
H32 C27 1_555 1_555
C28 C27 1_555 1_555
H33 C28 1_555 1_555
C29 C28 1_555 1_555
H34 C29 1_555 1_555
C30 N10 1_555 1_555
C31 C30 1_555 1_555
N11 C31 1_555 1_555
H35 N11 1_555 1_555
C32 N11 1_555 1_555
H36 C32 1_555 1_555
H37 C32 1_555 1_555
C33 C32 1_555 1_555
H38 C33 1_555 1_555
H39 C33 1_555 1_555
N12 Ni1 1_555 1_555
C34 N12 1_555 1_555
C35 C34 1_555 1_555
N13 Ni1 1_555 1_555
C36 C35 1_555 1_555
H40 C36 1_555 1_555
C37 C36 1_555 1_555
H41 C37 1_555 1_555
C38 C37 1_555 1_555
H42 C38 1_555 1_555
C39 N13 1_555 1_555
C40 C39 1_555 1_555
N14 Ni1 1_555 1_555
C41 N14 1_555 1_555
H43 C41 1_555 1_555
H44 C41 1_555 1_555
C42 N5 1_555 1_555
H45 C42 1_555 1_555
H46 C42 1_555 1_555
C43 C44 1_555 1_555
C44 H47 1_555 1_555
H48 C44 1_555 1_555
H49 C44 1_555 1_555
Ni2 O19 1_555 1_555
Na1 O2 1_555 1_555
Na2 O7 1_555 1_555
O11 C47 1_555 1_555
O12 Na2 1_555 1_555
O13 Na2 1_555 1_555
O14 C64 1_555 1_555
O15 C69 1_555 1_555
O16 C75 1_555 1_555
O17 Na1 1_555 1_555
O18 C84 1_555 1_555
O19 C87 1_555 1_555
O20 C87 1_555 1_555
N15 C45 1_555 1_555
C45 H50 1_555 1_555
H51 C45 1_555 1_555
C46 C45 1_555 1_555
H52 C46 1_555 1_555
H53 C46 1_555 1_555
N16 C46 1_555 1_555
H54 N16 1_555 1_555
C47 N16 1_555 1_555
C48 C47 1_555 1_555
N17 C48 1_555 1_555
C49 C48 1_555 1_555
H55 C49 1_555 1_555
C50 C49 1_555 1_555
H56 C50 1_555 1_555
C51 C50 1_555 1_555
H57 C51 1_555 1_555
C52 N17 1_555 1_555
C53 O12 1_555 1_555
N18 C53 1_555 1_555
H58 N18 1_555 1_555
C54 N18 1_555 1_555
H59 C54 1_555 1_555
H60 C54 1_555 1_555
C55 C54 1_555 1_555
H61 C55 1_555 1_555
H62 C55 1_555 1_555
N19 C55 1_555 1_555
C56 N19 1_555 1_555
H63 C56 1_555 1_555
H64 C56 1_555 1_555
C57 C56 1_555 1_555
H65 C57 1_555 1_555
H66 C57 1_555 1_555
N20 C57 1_555 1_555
H67 N20 1_555 1_555
C58 O13 1_555 1_555
C59 C58 1_555 1_555
N21 C59 1_555 1_555
C60 C59 1_555 1_555
H68 C60 1_555 1_555
C61 C60 1_555 1_555
H69 C61 1_555 1_555
C62 C61 1_555 1_555
H70 C62 1_555 1_555
C63 N21 1_555 1_555
C64 C63 1_555 1_555
N22 C64 1_555 1_555
H71 N22 1_555 1_555
C65 N22 1_555 1_555
H72 C65 1_555 1_555
H73 C65 1_555 1_555
C66 N15 1_555 1_555
H74 C66 1_555 1_555
H75 C66 1_555 1_555
C67 N15 1_555 1_555
H76 C67 1_555 1_555
H77 C67 1_555 1_555
C68 C67 1_555 1_555
H78 C68 1_555 1_555
H79 C68 1_555 1_555
N23 C68 1_555 1_555
H80 N23 1_555 1_555
C69 N23 1_555 1_555
C70 C69 1_555 1_555
N24 C70 1_555 1_555
C71 C70 1_555 1_555
H81 C71 1_555 1_555
C72 C71 1_555 1_555
H82 C72 1_555 1_555
C73 C72 1_555 1_555
H83 C73 1_555 1_555
C74 N24 1_555 1_555
C75 C74 1_555 1_555
N25 C75 1_555 1_555
H84 N25 1_555 1_555
C76 N25 1_555 1_555
H85 C76 1_555 1_555
H86 C76 1_555 1_555
C77 C76 1_555 1_555
H87 C77 1_555 1_555
H88 C77 1_555 1_555
N26 Ni2 1_555 1_555
C78 O17 1_555 1_555
C79 C78 1_555 1_555
N27 Ni2 1_555 1_555
C80 C79 1_555 1_555
H89 C80 1_555 1_555
C81 C80 1_555 1_555
H90 C81 1_555 1_555
C82 C81 1_555 1_555
H91 C82 1_555 1_555
C83 N27 1_555 1_555
C84 C83 1_555 1_555
N28 Ni2 1_555 1_555
C85 N28 1_555 1_555
H92 C85 1_555 1_555
H93 C85 1_555 1_555
C86 N19 1_555 1_555
H94 C86 1_555 1_555
H95 C86 1_555 1_555
C87 C88 1_555 1_555
C88 H96 1_555 1_555
H97 C88 1_555 1_555
H98 C88 1_555 1_555
O21 C89 1_555 1_555
N29 C89 1_555 1_555
C89 H99 1_555 1_555
C90 N29 1_555 1_555
H100 C90 1_555 1_555
H101 C90 1_555 1_555
H102 C90 1_555 1_555
C91 N29 1_555 1_555
H103 C91 1_555 1_555
H104 C91 1_555 1_555
H105 C91 1_555 1_555
O22 C92 1_555 1_555
N30 C92 1_555 1_555
C92 H106 1_555 1_555
C93 N30 1_555 1_555
H107 C93 1_555 1_555
H108 C93 1_555 1_555
H109 C93 1_555 1_555
C94 N30 1_555 1_555
H110 C94 1_555 1_555
H111 C94 1_555 1_555
H112 C94 1_555 1_555
O23 C95 1_555 1_555
N31 C95 1_555 1_555
C95 H113 1_555 1_555
C96 N31 1_555 1_555
H114 C96 1_555 1_555
H115 C96 1_555 1_555
H116 C96 1_555 1_555
C97 N31 1_555 1_555
H117 C97 1_555 1_555
H118 C97 1_555 1_555
H119 C97 1_555 1_555
O24 C98 1_555 1_555
N32 C98 1_555 1_555
C98 H120 1_555 1_555
C99 N32 1_555 1_555
H121 C99 1_555 1_555
H122 C99 1_555 1_555
H123 C99 1_555 1_555
C100 N32 1_555 1_555
H124 C100 1_555 1_555
H125 C100 1_555 1_555
H126 C100 1_555 1_555
O25 C101 1_555 1_555
N33 C101 1_555 1_555
C101 H127 1_555 1_555
C102 N33 1_555 1_555
H128 C102 1_555 1_555
H129 C102 1_555 1_555
H130 C102 1_555 1_555
C103 N33 1_555 1_555
H131 C103 1_555 1_555
H132 C103 1_555 1_555
H133 C103 1_555 1_555
O26 C104 1_555 1_555
N34 C104 1_555 1_555
C104 H134 1_555 1_555
C105 N34 1_555 1_555
H135 C105 1_555 1_555
H136 C105 1_555 1_555
H137 C105 1_555 1_555
C106 N34 1_555 1_555
H138 C106 1_555 1_555
H139 C106 1_555 1_555
H140 C106 1_555 1_555
O27 C107 1_555 1_555
N35 C107 1_555 1_555
C107 H141 1_555 1_555
C108 N35 1_555 1_555
H142 C108 1_555 1_555
H143 C108 1_555 1_555
H144 C108 1_555 1_555
C109 N35 1_555 1_555
H145 C109 1_555 1_555
H146 C109 1_555 1_555
H147 C109 1_555 1_555
N36 C110 1_555 1_555
C111 N36 1_555 1_555
C112 N36 1_555 1_555
O1A Na1 1_555 1_555
O4A Na1 1_555 1_555
Na1A O1 1_555 1_555
Na2A O11 1_555 1_555
O11A Na2 1_555 1_555
O14A Na2 1_555 1_555
O3 Na1 1_555 1_555
O4 Na1A 1_555 1_555
C7 C8 1_555 1_555
C18 C19 1_555 1_555
C21 C22 1_555 1_555
C29 C30 1_555 1_555
C33 N12 1_555 1_555
C35 N13 1_555 1_555
C38 C39 1_555 1_555
C40 N14 1_555 1_555
C41 C42 1_555 1_555
O14 Na2A 1_555 1_555
C51 C52 1_555 1_555
C52 C53 1_555 1_555
N20 C58 1_555 1_555
C62 C63 1_555 1_555
C65 C66 1_555 1_555
C73 C74 1_555 1_555
C77 N26 1_555 1_555
N26 C78 1_555 1_555
C79 N27 1_555 1_555
C82 C83 1_555 1_555
C84 N28 1_555 1_555
C85 C86 1_555 1_555

#END
