
#######################################################################
#
#                 Cambridge Crystallographic Data Centre
#                                CCDC 
#
#######################################################################
#
# If this CIF has been generated from an entry in the Cambridge 
# Structural Database, then it will include bibliographic, chemical, 
# crystal, experimental, refinement or atomic coordinate data resulting 
# from the CCDC's data processing and validation procedures.
#
#######################################################################

data_GICSUH
_symmetry_cell_setting           monoclinic
_symmetry_space_group_name_H-M   'P 21/c'
_symmetry_Int_Tables_number      14
_space_group_name_Hall           '-P 2ybc'
loop_
_symmetry_equiv_pos_site_id
_symmetry_equiv_pos_as_xyz
1 x,y,z
2 -x,1/2+y,1/2-z
3 -x,-y,-z
4 x,1/2-y,1/2+z
_cell_length_a                   10.761(2)
_cell_length_b                   18.922(4)
_cell_length_c                   10.913(2)
_cell_angle_alpha                90
_cell_angle_beta                 105.83(3)
_cell_angle_gamma                90
_cell_volume                     2137.83
loop_
_atom_site_label
_atom_site_type_symbol
_atom_site_fract_x
_atom_site_fract_y
_atom_site_fract_z
Zn1 Zn -0.5000 0.0000 -0.5000
Eu1 Eu -0.19806(3) 0.004500(16) -0.57602(3)
O1 O -0.0906(5) 0.0294(3) -0.7394(5)
O2 O 0.1662(4) 0.1204(3) -0.3804(5)
O3 O -0.0206(4) 0.0725(2) -0.4659(4)
O4 O -0.3775(4) -0.0418(2) -0.3426(4)
O5 O -0.1784(4) -0.0362(3) -0.3623(4)
O6 O -0.2865(5) 0.1211(3) -0.6626(5)
O7 O -0.3572(4) 0.0776(2) -0.5056(4)
O8 O -0.4116(4) -0.0535(2) -0.6225(4)
O9 O -0.6559(4) 0.0196(3) -0.2127(4)
C1 C 0.0475(6) 0.1221(3) -0.4046(6)
C2 C -0.0104(6) 0.1819(3) -0.3554(7)
C3 C 0.0506(11) 0.2383(4) -0.2960(9)
H1 H 0.1379 0.2493 -0.2797
C4 C -0.048(2) 0.2783(6) -0.2625(14)
H2 H -0.0378 0.3223 -0.2231
C5 C -0.1484(17) 0.2442(7) -0.2951(16)
H3 H -0.2249 0.2585 -0.2785
O10 O -0.1374(6) 0.1812(4) -0.3601(7)
C6 C -0.2602(6) -0.0481(3) -0.3000(6)
C7 C -0.2140(6) -0.0699(3) -0.1654(6)
C8 C -0.2747(7) -0.0836(4) -0.0752(7)
H4 H -0.358(7) -0.080(4) -0.088(7)
C9 C -0.1834(8) -0.1013(4) 0.0389(7)
H5 H -0.1987 -0.1139 0.1158
C10 C -0.0714(8) -0.0960(6) 0.0136(7)
H6 H 0.0078 -0.1043 0.0726
O11 O -0.0855(5) -0.0765(4) -0.1117(5)
C11 C -0.3621(6) 0.1239(3) -0.5948(6)
C12 C -0.4609(7) 0.1787(3) -0.6171(7)
C13 C -0.4963(7) 0.2192(3) -0.7210(7)
H7 H -0.4594 0.2207 -0.7888
C14 C -0.5992(10) 0.2584(5) -0.7065(12)
H8 H -0.6469 0.2904 -0.7655
C15 C -0.6192(10) 0.2433(6) -0.5962(13)
H9 H -0.6818 0.2644 -0.5640
O12 O -0.5321(7) 0.1905(4) -0.5332(7)
C16 C -0.5725(6) 0.0494(3) -0.2552(6)
C17 C -0.4611(6) 0.0807(4) -0.1692(6)
C18 C -0.3614(7) 0.1149(4) -0.1906(8)
H10 H -0.346(7) 0.119(4) -0.256(7)
C19 C -0.2857(8) 0.1380(5) -0.0691(8)
H11 H -0.224(8) 0.171(4) -0.062(8)
C20 C -0.3434(8) 0.1169(5) 0.0170(7)
H12 H -0.3132 0.1251 0.1041
O13 O -0.4539(5) 0.0813(3) -0.0411(5)
H13 H -0.116(10) 0.028(6) -0.820(11)
H14 H -0.023(8) 0.035(4) -0.726(7)
Eu1B Eu 0.19806(3) -0.004500(16) -0.42398(3)
Eu1B_2 Eu -0.80194(3) -0.004500(16) -0.42398(3)
O1B O -0.9094(5) -0.0294(3) -0.2606(5)
O2B O -0.1662(4) -0.1204(3) -0.6196(5)
O2_2 O -0.8338(4) 0.1204(3) -0.3804(5)
O3B O 0.0206(4) -0.0725(2) -0.5341(4)
O3_2 O -1.0206(4) 0.0725(2) -0.4659(4)
O3B_2 O -0.9794(4) -0.0725(2) -0.5341(4)
O4B O -0.6225(4) 0.0418(2) -0.6574(4)
O5B O -0.8216(4) 0.0362(3) -0.6377(4)
O6B O -0.7135(5) -0.1211(3) -0.3374(5)
O7B O -0.6428(4) -0.0776(2) -0.4944(4)
O8B O -0.5884(4) 0.0535(2) -0.3775(4)
O9B O -0.3441(4) -0.0196(3) -0.7873(4)
C1B C -0.0475(6) -0.1221(3) -0.5954(6)
C2B C 0.0104(6) -0.1819(3) -0.6446(7)
C3B C -0.0506(11) -0.2383(4) -0.7040(9)
H1B H -0.1379 -0.2493 -0.7203
C4B C 0.048(2) -0.2783(6) -0.7375(14)
H2B H 0.0378 -0.3223 -0.7769
C5B C 0.1484(17) -0.2442(7) -0.7049(16)
H3B H 0.2249 -0.2585 -0.7215
O10B O 0.1374(6) -0.1812(4) -0.6399(7)
C6B C -0.7398(6) 0.0481(3) -0.7000(6)
C7B C -0.7860(6) 0.0699(3) -0.8346(6)
C8B C -0.7253(7) 0.0836(4) -0.9248(7)
H4B H -0.642(7) 0.080(4) -0.912(7)
C9B C -0.8166(8) 0.1013(4) -1.0389(7)
H5B H -0.8013 0.1139 -1.1158
C10B C -0.9286(8) 0.0960(6) -1.0136(7)
H6B H -1.0078 0.1043 -1.0726
O11B O -0.9145(5) 0.0765(4) -0.8883(5)
C11B C -0.6379(6) -0.1239(3) -0.4052(6)
C12B C -0.5391(7) -0.1787(3) -0.3829(7)
C13B C -0.5037(7) -0.2192(3) -0.2790(7)
H7B H -0.5406 -0.2207 -0.2112
C14B C -0.4008(10) -0.2584(5) -0.2935(12)
H8B H -0.3531 -0.2904 -0.2345
C15B C -0.3808(10) -0.2433(6) -0.4038(13)
H9B H -0.3182 -0.2644 -0.4360
O12B O -0.4679(7) -0.1905(4) -0.4668(7)
C16B C -0.4275(6) -0.0494(3) -0.7448(6)
C17B C -0.5389(6) -0.0807(4) -0.8308(6)
C18B C -0.6386(7) -0.1149(4) -0.8094(8)
H10B H -0.654(7) -0.119(4) -0.744(7)
C19B C -0.7143(8) -0.1380(5) -0.9309(8)
H11B H -0.776(8) -0.171(4) -0.938(8)
C20B C -0.6566(8) -0.1169(5) -1.0170(7)
H12B H -0.6868 -0.1251 -1.1041
O13B O -0.5461(5) -0.0813(3) -0.9589(5)
H13B H -0.884(10) -0.028(6) -0.180(11)
H14B H -0.977(8) -0.035(4) -0.274(7)
loop_
_geom_bond_atom_site_label_1
_geom_bond_atom_site_label_2
_geom_bond_site_symmetry_1
_geom_bond_site_symmetry_2
Zn1 O4 1_555 1_555
Eu1 O1 1_555 1_555
O1 H13 1_555 1_555
O2 C1 1_555 1_555
O3 Eu1 1_555 1_555
O4 C6 1_555 1_555
O5 Eu1 1_555 1_555
O6 Eu1 1_555 1_555
O7 Zn1 1_555 1_555
O8 Zn1 1_555 1_555
O9 C16 1_555 1_555
C1 O3 1_555 1_555
C2 C1 1_555 1_555
C3 C2 1_555 1_555
H1 C3 1_555 1_555
C4 C3 1_555 1_555
H2 C4 1_555 1_555
C5 C4 1_555 1_555
H3 C5 1_555 1_555
O10 C2 1_555 1_555
C6 O5 1_555 1_555
C7 C6 1_555 1_555
C8 C7 1_555 1_555
H4 C8 1_555 1_555
C9 C8 1_555 1_555
H5 C9 1_555 1_555
C10 C9 1_555 1_555
H6 C10 1_555 1_555
O11 C7 1_555 1_555
C11 O6 1_555 1_555
C12 C11 1_555 1_555
C13 C12 1_555 1_555
H7 C13 1_555 1_555
C14 C13 1_555 1_555
H8 C14 1_555 1_555
C15 C14 1_555 1_555
H9 C15 1_555 1_555
O12 C12 1_555 1_555
C16 C17 1_555 1_555
C17 C18 1_555 1_555
C18 H10 1_555 1_555
C19 C18 1_555 1_555
H11 C19 1_555 1_555
C20 C19 1_555 1_555
H12 C20 1_555 1_555
O13 C17 1_555 1_555
H14 O1 1_555 1_555
Eu1B O2 1_555 1_555
Eu1B_2 O9 1_555 1_555
O1B Eu1B_2 1_555 1_555
O2B Eu1 1_555 1_555
O2_2 Eu1B_2 1_555 1_555
O3B Eu1 1_555 1_555
O3_2 Eu1B_2 1_555 1_555
O3B_2 Eu1B_2 1_555 1_555
O4B Zn1 1_555 1_555
O5B Eu1B_2 1_555 1_555
O6B Eu1B_2 1_555 1_555
O7B Zn1 1_555 1_555
O8B Zn1 1_555 1_555
O9B Eu1 1_555 1_555
C1B O2B 1_555 1_555
C2B C1B 1_555 1_555
C3B C2B 1_555 1_555
H1B C3B 1_555 1_555
C4B C3B 1_555 1_555
H2B C4B 1_555 1_555
C5B C4B 1_555 1_555
H3B C5B 1_555 1_555
O10B C2B 1_555 1_555
C6B O4B 1_555 1_555
C7B C6B 1_555 1_555
C8B C7B 1_555 1_555
H4B C8B 1_555 1_555
C9B C8B 1_555 1_555
H5B C9B 1_555 1_555
C10B C9B 1_555 1_555
H6B C10B 1_555 1_555
O11B C7B 1_555 1_555
C11B O6B 1_555 1_555
C12B C11B 1_555 1_555
C13B C12B 1_555 1_555
H7B C13B 1_555 1_555
C14B C13B 1_555 1_555
H8B C14B 1_555 1_555
C15B C14B 1_555 1_555
H9B C15B 1_555 1_555
O12B C12B 1_555 1_555
C16B O8 1_555 1_555
C17B C16B 1_555 1_555
C18B C17B 1_555 1_555
H10B C18B 1_555 1_555
C19B C18B 1_555 1_555
H11B C19B 1_555 1_555
C20B C19B 1_555 1_555
H12B C20B 1_555 1_555
O13B C17B 1_555 1_555
H13B O1B 1_555 1_555
H14B O1B 1_555 1_555
Eu1 O7 1_555 1_555
Eu1 O8 1_555 1_555
O3 Eu1B 1_555 1_555
O7 C11 1_555 1_555
C5 O10 1_555 1_555
C10 O11 1_555 1_555
C15 O12 1_555 1_555
C16 O8B 1_555 1_555
C20 O13 1_555 1_555
Eu1B O3B 1_555 1_555
Eu1B_2 O7B 1_555 1_555
Eu1B_2 O8B 1_555 1_555
O3B C1B 1_555 1_555
O5B C6B 1_555 1_555
O7B C11B 1_555 1_555
O9B C16B 1_555 1_555
C5B O10B 1_555 1_555
C10B O11B 1_555 1_555
C15B O12B 1_555 1_555
C20B O13B 1_555 1_555

#END
