
#######################################################################
#
#                 Cambridge Crystallographic Data Centre
#                                CCDC 
#
#######################################################################
#
# If this CIF has been generated from an entry in the Cambridge 
# Structural Database, then it will include bibliographic, chemical, 
# crystal, experimental, refinement or atomic coordinate data resulting 
# from the CCDC's data processing and validation procedures.
#
#######################################################################

data_GICTOB01
_symmetry_cell_setting           monoclinic
_symmetry_space_group_name_H-M   'C c'
_symmetry_Int_Tables_number      9
_space_group_name_Hall           'C -2yc'
loop_
_symmetry_equiv_pos_site_id
_symmetry_equiv_pos_as_xyz
1 x,y,z
2 x,-y,1/2+z
3 1/2+x,1/2+y,z
4 1/2+x,1/2-y,1/2+z
_cell_length_a                   8.4361(4)
_cell_length_b                   18.1161(8)
_cell_length_c                   7.4377(4)
_cell_angle_alpha                90
_cell_angle_beta                 114.399(3)
_cell_angle_gamma                90
_cell_volume                     1035.18
loop_
_atom_site_label
_atom_site_type_symbol
_atom_site_fract_x
_atom_site_fract_y
_atom_site_fract_z
Zn1 Zn 0.37854(4) 0.381496(15) 0.07783(4)
O1 O 0.4663(3) 0.27356(13) 0.0890(4)
O2 O 0.3961(4) 0.15541(12) 0.0931(6)
O3 O 0.0238(3) 0.09073(15) -0.1244(4)
O4 O 0.1225(3) 0.07116(14) 0.1950(3)
O5 O 0.2546(4) 0.48184(13) 0.0631(5)
H1 H 0.149(2) 0.491(3) 0.000(6)
H2 H 0.310(5) 0.508(2) 0.162(5)
O6 O 0.5858(3) 0.42653(14) 0.0366(3)
H3 H 0.599(6) 0.4243(19) -0.070(4)
H4 H 0.582(7) 0.4697(10) 0.078(5)
O7 O 0.2410(3) 0.37735(12) -0.2395(4)
H5 H 0.292(4) 0.356(2) -0.300(5)
H6 H 0.1339(16) 0.372(2) -0.280(6)
N1 N 0.1708(4) 0.31730(14) 0.1082(4)
N2 N -0.0778(3) 0.21734(15) 0.1042(4)
C1 C 0.3669(6) 0.22219(16) 0.0888(6)
C2 C 0.1925(4) 0.24530(17) 0.0896(4)
C3 C 0.0640(4) 0.19490(16) 0.0819(4)
C4 C 0.0730(4) 0.11250(16) 0.0467(5)
C5 C -0.0950(5) 0.2890(2) 0.1266(5)
H9 H -0.1920 0.3056 0.1440
C6 C 0.0263(4) 0.33990(18) 0.1249(5)
H10 H 0.0076 0.3900 0.1354
Zn1C Zn -0.12146(4) 0.118504(15) -0.42217(4)
O3C O 0.5238(3) 0.40927(15) 0.3756(4)
O8 O 0.9221(4) 0.51866(19) 0.9046(6)
H7 H 0.909(8) 0.5626(15) 0.930(11)
H8 H 0.834(6) 0.496(3) 0.826(9)
loop_
_geom_bond_atom_site_label_1
_geom_bond_atom_site_label_2
_geom_bond_site_symmetry_1
_geom_bond_site_symmetry_2
Zn1 O1 1_555 1_555
O1 C1 1_555 1_555
O2 C1 1_555 1_555
O3 C4 1_555 1_555
O4 C4 1_555 1_555
O5 Zn1 1_555 1_555
H1 O5 1_555 1_555
H2 O5 1_555 1_555
O6 Zn1 1_555 1_555
H3 O6 1_555 1_555
H4 O6 1_555 1_555
O7 Zn1 1_555 1_555
H5 O7 1_555 1_555
H6 O7 1_555 1_555
O8 H7 1_555 1_555
H8 O8 1_555 1_555
N1 Zn1 1_555 1_555
N2 C3 1_555 1_555
C1 C2 1_555 1_555
C2 N1 1_555 1_555
C3 C2 1_555 1_555
C4 C3 1_555 1_555
C5 N2 1_555 1_555
H9 C5 1_555 1_555
C6 N1 1_555 1_555
H10 C6 1_555 1_555
Zn1C O3 1_555 1_555
O3C Zn1 1_555 1_555
C5 C6 1_555 1_555

#END
