
#######################################################################
#
#                 Cambridge Crystallographic Data Centre
#                                CCDC 
#
#######################################################################
#
# If this CIF has been generated from an entry in the Cambridge 
# Structural Database, then it will include bibliographic, chemical, 
# crystal, experimental, refinement or atomic coordinate data resulting 
# from the CCDC's data processing and validation procedures.
#
#######################################################################

data_GICTOB
_symmetry_cell_setting           monoclinic
_symmetry_space_group_name_H-M   'C c'
_symmetry_Int_Tables_number      9
_space_group_name_Hall           'C -2yc'
loop_
_symmetry_equiv_pos_site_id
_symmetry_equiv_pos_as_xyz
1 x,y,z
2 x,-y,1/2+z
3 1/2+x,1/2+y,z
4 1/2+x,1/2-y,1/2+z
_cell_length_a                   8.435(2)
_cell_length_b                   18.087(4)
_cell_length_c                   7.422(1)
_cell_angle_alpha                90
_cell_angle_beta                 114.44(3)
_cell_angle_gamma                90
_cell_volume                     1030.87
loop_
_atom_site_label
_atom_site_type_symbol
_atom_site_fract_x
_atom_site_fract_y
_atom_site_fract_z
Zn1 Zn 0.40440(4) 0.11852(2) 0.09238(4)
O1 O 0.3152(3) 0.2256(1) 0.0799(5)
O2 O 0.3859(4) 0.3449(1) 0.0775(8)
O3 O 0.7602(4) 0.4096(1) 0.2946(4)
O4 O 0.6598(4) 0.4289(1) -0.0266(4)
O5 O 0.1980(4) 0.0737(2) 0.1319(4)
O6 O 0.5274(4) 0.0180(1) 0.1082(6)
O7 O 0.5411(3) 0.1229(1) 0.4109(4)
N1 N 0.6109(3) 0.1817(1) 0.0625(4)
N2 N 0.8611(4) 0.2817(2) 0.0661(5)
C1 C 0.5901(4) 0.2543(1) 0.0798(4)
C2 C 0.7181(4) 0.3050(1) 0.0874(4)
C3 C 0.8787(5) 0.2090(2) 0.0436(6)
C4 C 0.7544(5) 0.1587(2) 0.0442(6)
C5 C 0.4168(5) 0.2774(1) 0.0812(7)
C6 C 0.7107(4) 0.3872(1) 0.1217(4)
H1 H 0.977(7) 0.197(3) 0.034(9)
H2 H 0.75(1) 0.105(4) -0.02(1)
H3 H 0.186(8) 0.085(4) 0.246(9)
H4 H 0.172(7) 0.041(3) 0.101(8)
H5 H 0.469(8) -0.013(3) 0.038(9)
H6 H 0.637(9) 0.017(4) 0.15(1)
H7 H 0.65(1) 0.127(3) 0.47(1)
H8 H 0.483(8) 0.153(3) 0.452(8)
O3C O 0.2602(4) 0.0904(1) -0.2054(4)
Zn1C Zn 0.90440(4) 0.38148(2) 0.59238(4)
O8 O 0.8598(6) -0.0182(3) 0.2641(10)
H9 H 0.86(2) -0.06(1) 0.20(3)
H10 H 0.94(1) 0.005(5) 0.32(1)
loop_
_geom_bond_atom_site_label_1
_geom_bond_atom_site_label_2
_geom_bond_site_symmetry_1
_geom_bond_site_symmetry_2
Zn1 O1 1_555 1_555
O1 C5 1_555 1_555
O2 C5 1_555 1_555
O3 C6 1_555 1_555
O4 C6 1_555 1_555
O5 Zn1 1_555 1_555
O6 Zn1 1_555 1_555
O7 Zn1 1_555 1_555
O8 H9 1_555 1_555
N1 Zn1 1_555 1_555
N2 C2 1_555 1_555
C1 N1 1_555 1_555
C2 C1 1_555 1_555
C3 N2 1_555 1_555
C4 N1 1_555 1_555
C5 C1 1_555 1_555
C6 C2 1_555 1_555
H1 C3 1_555 1_555
H2 C4 1_555 1_555
H3 O5 1_555 1_555
H4 O5 1_555 1_555
H5 O6 1_555 1_555
H6 O6 1_555 1_555
H7 O7 1_555 1_555
H8 O7 1_555 1_555
H10 O8 1_555 1_555
O3C Zn1 1_555 1_555
Zn1C O3 1_555 1_555
C3 C4 1_555 1_555

#END
