
#######################################################################
#
#                 Cambridge Crystallographic Data Centre
#                                CCDC 
#
#######################################################################
#
# If this CIF has been generated from an entry in the Cambridge 
# Structural Database, then it will include bibliographic, chemical, 
# crystal, experimental, refinement or atomic coordinate data resulting 
# from the CCDC's data processing and validation procedures.
#
#######################################################################

data_GICYUN01
_symmetry_cell_setting           monoclinic
_symmetry_space_group_name_H-M   'C 2/c'
_symmetry_Int_Tables_number      15
_space_group_name_Hall           '-C 2yn'
loop_
_symmetry_equiv_pos_site_id
_symmetry_equiv_pos_as_xyz
1 x,y,z
2 -x,y,1/2-z
3 1/2+x,1/2+y,z
4 1/2-x,1/2+y,1/2-z
5 -x,-y,-z
6 x,-y,1/2+z
7 1/2-x,1/2-y,-z
8 1/2+x,1/2-y,1/2+z
_cell_length_a                   38.847(11)
_cell_length_b                   7.821(2)
_cell_length_c                   5.5742(15)
_cell_angle_alpha                90
_cell_angle_beta                 94.822(6)
_cell_angle_gamma                90
_cell_volume                     1687.57
loop_
_atom_site_label
_atom_site_type_symbol
_atom_site_fract_x
_atom_site_fract_y
_atom_site_fract_z
Sr1 Sr 1.0000 0.17086(6) 0.7500
P1 P 0.94871(3) 0.24952(12) 1.26322(19)
O1 O 0.95432(7) 0.3021(3) 1.0101(5)
O2 O 0.96494(7) 0.0852(3) 1.3498(5)
O3 O 0.96507(7) 0.3830(3) 1.4518(5)
H1 H 0.9496 0.4366 1.5207
O4 O 0.78805(10) 0.1717(6) 1.6113(9)
O5 O 0.77637(10) 0.3206(6) 1.2749(9)
H2 H 0.7568 0.3186 1.3197
C1 C 0.90335(10) 0.2468(5) 1.3020(8)
C2 C 0.87962(11) 0.3213(6) 1.1368(9)
H3 H 0.8869 0.3736 1.0001
C3 C 0.84471(12) 0.3184(7) 1.1748(10)
H4 H 0.8286 0.3664 1.0612
C4 C 0.83375(12) 0.2446(7) 1.3801(9)
C5 C 0.85759(12) 0.1687(6) 1.5454(9)
H5 H 0.8503 0.1160 1.6819
C6 C 0.89219(11) 0.1716(6) 1.5064(9)
H6 H 0.9082 0.1225 1.6191
C7 C 0.79710(14) 0.2438(8) 1.4292(12)
Sr1_2 Sr 1.0000 0.17086(6) 1.7500
Sr1D Sr 1.0000 -0.17086(6) 1.2500
Sr1_3 Sr 1.0000 0.17086(6) -0.2500
Sr1D_2 Sr 1.0000 -0.17086(6) 0.2500
P1_2 P 0.94871(3) 0.24952(12) 0.26322(19)
O1_2 O 0.95432(7) 0.3021(3) 0.0101(5)
O1A O 1.04568(7) 0.3021(3) 0.4899(5)
O2_2 O 0.96494(7) 0.0852(3) 0.3498(5)
O2A O 1.03506(7) 0.0852(3) 1.1502(5)
O2D O 1.03506(7) -0.0852(3) 0.6502(5)
O2E O 0.96494(7) -0.0852(3) 0.8498(5)
O3_2 O 0.96507(7) 0.3830(3) 0.4518(5)
O3A O 1.03493(7) 0.3830(3) 1.0482(5)
H1_2 H 0.9496 0.4366 0.5207
H1A H 1.0504 0.4366 0.9793
O4_2 O 0.78805(10) 0.1717(6) 0.6113(9)
O5_2 O 0.77637(10) 0.3206(6) 0.2749(9)
H2_2 H 0.7568 0.3186 0.3197
C1_2 C 0.90335(10) 0.2468(5) 0.3020(8)
C2_2 C 0.87962(11) 0.3213(6) 0.1368(9)
H3_2 H 0.8869 0.3736 0.0001
C3_2 C 0.84471(12) 0.3184(7) 0.1748(10)
H4_2 H 0.8286 0.3664 0.0612
C4_2 C 0.83375(12) 0.2446(7) 0.3801(9)
C5_2 C 0.85759(12) 0.1687(6) 0.5454(9)
H5_2 H 0.8503 0.1160 0.6819
C6_2 C 0.89219(11) 0.1716(6) 0.5064(9)
H6_2 H 0.9082 0.1225 0.6191
C7_2 C 0.79710(14) 0.2438(8) 0.4292(12)
loop_
_geom_bond_atom_site_label_1
_geom_bond_atom_site_label_2
_geom_bond_site_symmetry_1
_geom_bond_site_symmetry_2
Sr1 O1 1_555 1_555
P1 O1 1_555 1_555
O2 P1 1_555 1_555
O3 P1 1_555 1_555
H1 O3 1_555 1_555
O4 C7 1_555 1_555
O5 H2 1_555 1_555
C1 P1 1_555 1_555
C2 C1 1_555 1_555
H3 C2 1_555 1_555
C3 C2 1_555 1_555
H4 C3 1_555 1_555
C4 C3 1_555 1_555
C5 C4 1_555 1_555
H5 C5 1_555 1_555
C6 C1 1_555 1_555
H6 C6 1_555 1_555
C7 O5 1_555 1_555
Sr1_2 O2 1_555 1_555
Sr1D O2 1_555 1_555
Sr1_3 O1_2 1_555 1_555
Sr1D_2 O2_2 1_555 1_555
P1_2 O1_2 1_555 1_555
O1A Sr1 1_555 1_555
O2_2 Sr1 1_555 1_555
O2A Sr1 1_555 1_555
O2D Sr1 1_555 1_555
O2E Sr1 1_555 1_555
O3_2 Sr1 1_555 1_555
O3A Sr1 1_555 1_555
H1_2 O3_2 1_555 1_555
H1A O3A 1_555 1_555
O4_2 C7_2 1_555 1_555
O5_2 H2_2 1_555 1_555
C1_2 P1_2 1_555 1_555
C2_2 C1_2 1_555 1_555
H3_2 C2_2 1_555 1_555
C3_2 C2_2 1_555 1_555
H4_2 C3_2 1_555 1_555
C4_2 C3_2 1_555 1_555
C5_2 C4_2 1_555 1_555
H5_2 C5_2 1_555 1_555
C6_2 C1_2 1_555 1_555
H6_2 C6_2 1_555 1_555
C7_2 O5_2 1_555 1_555
O3 Sr1_2 1_555 1_555
C4 C7 1_555 1_555
C5 C6 1_555 1_555
Sr1D O2A 1_555 1_555
Sr1D O2E 1_555 1_555
Sr1D_2 O2D 1_555 1_555
P1_2 O2_2 1_555 1_555
P1_2 O3_2 1_555 1_555
C4_2 C7_2 1_555 1_555
C5_2 C6_2 1_555 1_555

#END
