
#######################################################################
#
#                 Cambridge Crystallographic Data Centre
#                                CCDC 
#
#######################################################################
#
# If this CIF has been generated from an entry in the Cambridge 
# Structural Database, then it will include bibliographic, chemical, 
# crystal, experimental, refinement or atomic coordinate data resulting 
# from the CCDC's data processing and validation procedures.
#
#######################################################################

data_GICYIC
_symmetry_cell_setting           monoclinic
_symmetry_space_group_name_H-M   'C 2/c'
_symmetry_Int_Tables_number      15
_space_group_name_Hall           '-C 2yn'
loop_
_symmetry_equiv_pos_site_id
_symmetry_equiv_pos_as_xyz
1 x,y,z
2 -x,y,1/2-z
3 1/2+x,1/2+y,z
4 1/2-x,1/2+y,1/2-z
5 -x,-y,-z
6 x,-y,1/2+z
7 1/2-x,1/2-y,-z
8 1/2+x,1/2-y,1/2+z
_cell_length_a                   26.745(3)
_cell_length_b                   14.5124(14)
_cell_length_c                   18.6197(18)
_cell_angle_alpha                90
_cell_angle_beta                 129.068(2)
_cell_angle_gamma                90
_cell_volume                     5610.99
loop_
_atom_site_label
_atom_site_type_symbol
_atom_site_fract_x
_atom_site_fract_y
_atom_site_fract_z
La1 La 0.204541(15) 0.04546(2) 0.91115(2)
La2 La 0.142853(15) 0.02582(2) 0.64483(2)
C1 C 0.3266(3) -0.0978(4) 0.8491(4)
C2 C 0.3869(3) -0.0595(5) 0.8938(5)
H1 H 0.4005 -0.0116 0.9356
C3 C 0.4267(3) -0.0921(5) 0.8767(6)
H2 H 0.4669 -0.0653 0.9061
C4 C 0.4074(3) -0.1640(5) 0.8163(5)
H3 H 0.4341 -0.1842 0.8036
C5 C 0.3488(3) -0.2063(4) 0.7744(4)
C6 C 0.3067(2) -0.1728(4) 0.7888(3)
C7 C 0.2423(3) -0.2177(4) 0.7398(4)
C8 C 0.1941(3) -0.2037(4) 0.6454(4)
C9 C 0.1366(3) -0.2510(4) 0.5991(4)
H4 H 0.1049 -0.2428 0.5358
C10 C 0.1258(3) -0.3101(5) 0.6456(5)
H5 H 0.0869 -0.3415 0.6140
C11 C 0.1731(3) -0.3227(4) 0.7399(4)
H6 H 0.1654 -0.3614 0.7718
C12 C 0.2316(3) -0.2783(4) 0.7869(4)
C13 C 0.2835(3) -0.0532(4) 0.8644(4)
C14 C 0.3322(3) -0.2885(4) 0.7140(4)
C15 C 0.2052(3) -0.1333(4) 0.5974(4)
C16 C 0.2847(3) -0.2957(4) 0.8881(4)
C17 C 0.0000 0.2491(7) 0.2500
H7 H 0.0000 0.3132 0.2500
C18 C 0.0304(4) 0.2013(4) 0.2234(6)
H8 H 0.0503 0.2336 0.2045
C19 C 0.0316(3) 0.1073(4) 0.2244(4)
C20 C 0.0000 0.0577(5) 0.2500
C21 C 0.0000 -0.0454(5) 0.2500
C22 C 0.0369(2) -0.0937(4) 0.3329(4)
C23 C 0.0363(3) -0.1892(4) 0.3325(4)
H9 H 0.0605 -0.2213 0.3882
C24 C 0.0000 -0.2367(5) 0.2500
H10 H 0.0000 -0.3008 0.2500
C25 C 0.0690(3) 0.0604(4) 0.2002(4)
C26 C 0.0818(2) -0.0407(4) 0.4227(3)
O1 O 0.22321(19) -0.0463(3) 0.7980(3)
O2 O 0.3070(2) -0.0224(3) 0.9419(3)
O3 O 0.3412(2) -0.2873(3) 0.6568(3)
O4 O 0.30921(19) -0.3601(3) 0.7244(3)
O5 O 0.21781(19) -0.0524(3) 0.6294(3)
O6 O 0.2009(2) -0.1560(3) 0.5287(3)
O7 O 0.2829(3) -0.2583(4) 0.9456(3)
O8 O 0.3290(2) -0.3501(3) 0.9080(3)
O9 O 0.0666(2) 0.0922(3) 0.1354(3)
O10 O 0.10257(18) -0.0109(3) 0.2443(3)
O11 O 0.07282(18) -0.0450(3) 0.4812(3)
O12 O 0.12604(18) 0.0038(3) 0.4333(3)
O13 O 0.1930(2) -0.1307(3) 0.9084(3)
H11 H 0.1725 -0.0924 0.9157
H12 H 0.2020 -0.1583 0.9556
O14 O 0.2850(2) -0.0069(4) 1.0772(3)
H13 H 0.3053 -0.0383 1.0851
H14 H 0.2829 0.0139 1.1179
O15 O 0.2992(2) 0.1603(3) 1.0028(3)
H15 H 0.3123 0.1869 0.9767
H16 H 0.3172 0.1718 1.0591
O16 O 0.0389(2) 0.1166(3) 0.5587(3)
H17 H 0.0561 0.0880 0.6092
H18 H 0.0154 0.1238 0.5005
C18A C -0.0304(4) 0.2013(4) 0.2766(6)
H8A H -0.0503 0.2336 0.2955
C19A C -0.0316(3) 0.1073(4) 0.2756(4)
C22A C -0.0369(2) -0.0937(4) 0.1671(4)
C23A C -0.0363(3) -0.1892(4) 0.1675(4)
H9A H -0.0605 -0.2213 0.1118
C25A C -0.0690(3) 0.0604(4) 0.2998(4)
C26A C -0.0818(2) -0.0407(4) 0.0773(3)
O9A O -0.0666(2) 0.0922(3) 0.3646(3)
O10A O -0.10257(18) -0.0109(3) 0.2557(3)
O11A O -0.07282(18) -0.0450(3) 0.0188(3)
O12A O -0.12604(18) 0.0038(3) 0.0667(3)
La1A La -0.204541(15) 0.04546(2) -0.41115(2)
La2A La -0.142853(15) 0.02582(2) -0.14483(2)
C1A C -0.3266(3) -0.0978(4) -0.3491(4)
C2A C -0.3869(3) -0.0595(5) -0.3938(5)
H1A H -0.4005 -0.0116 -0.4356
C3A C -0.4267(3) -0.0921(5) -0.3767(6)
H2A H -0.4669 -0.0653 -0.4061
C4A C -0.4074(3) -0.1640(5) -0.3163(5)
H3A H -0.4341 -0.1842 -0.3036
C5A C -0.3488(3) -0.2063(4) -0.2744(4)
C6A C -0.3067(2) -0.1728(4) -0.2888(3)
C7A C -0.2423(3) -0.2177(4) -0.2398(4)
C8A C -0.1941(3) -0.2037(4) -0.1454(4)
C9A C -0.1366(3) -0.2510(4) -0.0991(4)
H4A H -0.1049 -0.2428 -0.0358
C10A C -0.1258(3) -0.3101(5) -0.1456(5)
H5A H -0.0869 -0.3415 -0.1140
C11A C -0.1731(3) -0.3227(4) -0.2399(4)
H6A H -0.1654 -0.3614 -0.2718
C12A C -0.2316(3) -0.2783(4) -0.2869(4)
C13A C -0.2835(3) -0.0532(4) -0.3644(4)
C14A C -0.3322(3) -0.2885(4) -0.2140(4)
C15A C -0.2052(3) -0.1333(4) -0.0974(4)
C16A C -0.2847(3) -0.2957(4) -0.3881(4)
O1A O -0.22321(19) -0.0463(3) -0.2980(3)
O2A O -0.3070(2) -0.0224(3) -0.4419(3)
O3A O -0.3412(2) -0.2873(3) -0.1568(3)
O4A O -0.30921(19) -0.3601(3) -0.2244(3)
O5A O -0.21781(19) -0.0524(3) -0.1294(3)
O6A O -0.2009(2) -0.1560(3) -0.0287(3)
O7A O -0.2829(3) -0.2583(4) -0.4456(3)
O8A O -0.3290(2) -0.3501(3) -0.4080(3)
O13A O -0.1930(2) -0.1307(3) -0.4084(3)
H11A H -0.1725 -0.0924 -0.4157
H12A H -0.2020 -0.1583 -0.4556
O14A O -0.2850(2) -0.0069(4) -0.5772(3)
H13A H -0.3053 -0.0383 -0.5851
H14A H -0.2829 0.0139 -0.6179
O15A O -0.2992(2) 0.1603(3) -0.5028(3)
H15A H -0.3123 0.1869 -0.4767
H16A H -0.3172 0.1718 -0.5591
O16A O -0.0389(2) 0.1166(3) -0.0587(3)
H17A H -0.0561 0.0880 -0.1092
H18A H -0.0154 0.1238 -0.0005
La1B La -0.295459(15) -0.45454(2) -0.08885(2)
La1C La 0.295459(15) -0.45454(2) 0.58885(2)
La1D La -0.204541(15) -0.04546(2) 0.08885(2)
La1E La 0.204541(15) -0.04546(2) 0.41115(2)
La2B La -0.357147(15) -0.47418(2) -0.35517(2)
La2C La 0.357147(15) -0.47418(2) 0.85517(2)
La2D La -0.142853(15) -0.02582(2) 0.35517(2)
La2E La 0.142853(15) -0.02582(2) 0.14483(2)
O3B O -0.1588(2) 0.2127(3) -0.3432(3)
O3C O 0.1588(2) 0.2127(3) 0.8432(3)
O4B O -0.19079(19) 0.1399(3) -0.2756(3)
O4C O 0.19079(19) 0.1399(3) 0.7756(3)
O6D O -0.2009(2) 0.1560(3) -0.5287(3)
O6E O 0.2009(2) 0.1560(3) 1.0287(3)
O8B O -0.1710(2) 0.1499(3) -0.0920(3)
O8C O 0.1710(2) 0.1499(3) 0.5920(3)
O9D O -0.0666(2) -0.0922(3) -0.1354(3)
O9E O 0.0666(2) -0.0922(3) 0.6354(3)
O10D O -0.10257(18) 0.0109(3) -0.2443(3)
O10E O 0.10257(18) 0.0109(3) 0.7443(3)
O12D O -0.12604(18) -0.0038(3) -0.4333(3)
O12E O 0.12604(18) -0.0038(3) 0.9333(3)
O17 O 0.3685(5) -0.1386(7) 1.1098(6)
H19 H 0.3483 -0.1001 1.0546
H20 H 0.3521 -0.1898 1.0824
O18 O 0.4289(7) 0.0682(14) 1.0994(15)
H21 H 0.3978 0.0370 1.0882
H22 H 0.4298 0.1252 1.0896
loop_
_geom_bond_atom_site_label_1
_geom_bond_atom_site_label_2
_geom_bond_site_symmetry_1
_geom_bond_site_symmetry_2
La1 O1 1_555 1_555
La2 O1 1_555 1_555
C1 C2 1_555 1_555
C2 H1 1_555 1_555
C3 C2 1_555 1_555
H2 C3 1_555 1_555
C4 C3 1_555 1_555
H3 C4 1_555 1_555
C5 C4 1_555 1_555
C6 C1 1_555 1_555
C7 C6 1_555 1_555
C8 C7 1_555 1_555
C9 C8 1_555 1_555
H4 C9 1_555 1_555
C10 C9 1_555 1_555
H5 C10 1_555 1_555
C11 C10 1_555 1_555
H6 C11 1_555 1_555
C12 C7 1_555 1_555
C13 C1 1_555 1_555
C14 C5 1_555 1_555
C15 C8 1_555 1_555
C16 C12 1_555 1_555
C17 H7 1_555 1_555
C18 C17 1_555 1_555
H8 C18 1_555 1_555
C19 C18 1_555 1_555
C20 C19 1_555 1_555
C21 C20 1_555 1_555
C22 C21 1_555 1_555
C23 C22 1_555 1_555
H9 C23 1_555 1_555
C24 C23 1_555 1_555
H10 C24 1_555 1_555
C25 C19 1_555 1_555
C26 C22 1_555 1_555
O1 C13 1_555 1_555
O2 La1 1_555 1_555
O3 C14 1_555 1_555
O4 C14 1_555 1_555
O5 La2 1_555 1_555
O6 C15 1_555 1_555
O7 C16 1_555 1_555
O8 C16 1_555 1_555
O9 C25 1_555 1_555
O10 C25 1_555 1_555
O11 La2 1_555 1_555
O12 C26 1_555 1_555
O13 La1 1_555 1_555
H11 O13 1_555 1_555
H12 O13 1_555 1_555
O14 La1 1_555 1_555
H13 O14 1_555 1_555
H14 O14 1_555 1_555
O15 La1 1_555 1_555
H15 O15 1_555 1_555
H16 O15 1_555 1_555
O16 La2 1_555 1_555
H17 O16 1_555 1_555
H18 O16 1_555 1_555
O17 H19 1_555 1_555
H20 O17 1_555 1_555
O18 H21 1_555 1_555
H22 O18 1_555 1_555
C18A C17 1_555 1_555
H8A C18A 1_555 1_555
C19A C20 1_555 1_555
C22A C21 1_555 1_555
C23A C24 1_555 1_555
H9A C23A 1_555 1_555
C25A C19A 1_555 1_555
C26A C22A 1_555 1_555
O9A C25A 1_555 1_555
O10A C25A 1_555 1_555
O11A C26A 1_555 1_555
O12A C26A 1_555 1_555
La1A O1A 1_555 1_555
La2A O11A 1_555 1_555
C1A C2A 1_555 1_555
C2A H1A 1_555 1_555
C3A C2A 1_555 1_555
H2A C3A 1_555 1_555
C4A C3A 1_555 1_555
H3A C4A 1_555 1_555
C5A C4A 1_555 1_555
C6A C1A 1_555 1_555
C7A C6A 1_555 1_555
C8A C7A 1_555 1_555
C9A C8A 1_555 1_555
H4A C9A 1_555 1_555
C10A C9A 1_555 1_555
H5A C10A 1_555 1_555
C11A C10A 1_555 1_555
H6A C11A 1_555 1_555
C12A C7A 1_555 1_555
C13A C1A 1_555 1_555
C14A C5A 1_555 1_555
C15A C8A 1_555 1_555
C16A C12A 1_555 1_555
O1A La2A 1_555 1_555
O2A La1A 1_555 1_555
O3A C14A 1_555 1_555
O4A C14A 1_555 1_555
O5A La2A 1_555 1_555
O6A C15A 1_555 1_555
O7A C16A 1_555 1_555
O8A C16A 1_555 1_555
O13A La1A 1_555 1_555
H11A O13A 1_555 1_555
H12A O13A 1_555 1_555
O14A La1A 1_555 1_555
H13A O14A 1_555 1_555
H14A O14A 1_555 1_555
O15A La1A 1_555 1_555
H15A O15A 1_555 1_555
H16A O15A 1_555 1_555
O16A La2A 1_555 1_555
H17A O16A 1_555 1_555
H18A O16A 1_555 1_555
La1B O3A 1_555 1_555
La1C O3 1_555 1_555
La1D O10A 1_555 1_555
La1E O6 1_555 1_555
La2B O4A 1_555 1_555
La2C O4 1_555 1_555
La2D O9A 1_555 1_555
La2E O9 1_555 1_555
O3B La1A 1_555 1_555
O3C La1 1_555 1_555
O4B La1A 1_555 1_555
O4C La1 1_555 1_555
O6D La1A 1_555 1_555
O6E La1 1_555 1_555
O8B La2A 1_555 1_555
O8C La2 1_555 1_555
O9D La2A 1_555 1_555
O9E La2 1_555 1_555
O10D La1A 1_555 1_555
O10E La1 1_555 1_555
O12D La1A 1_555 1_555
O12E La1 1_555 1_555
La2 O4C 1_555 1_555
La2 O10E 1_555 1_555
C5 C6 1_555 1_555
C11 C12 1_555 1_555
C13 O2 1_555 1_555
C15 O5 1_555 1_555
C26 O11 1_555 1_555
O4 La1C 1_555 1_555
O8 La2C 1_555 1_555
O10 La1E 1_555 1_555
O10 La2E 1_555 1_555
O12 La1E 1_555 1_555
C18A C19A 1_555 1_555
C22A C23A 1_555 1_555
O10A La2D 1_555 1_555
O12A La1D 1_555 1_555
La2A O4B 1_555 1_555
La2A O10D 1_555 1_555
C5A C6A 1_555 1_555
C11A C12A 1_555 1_555
C13A O1A 1_555 1_555
C13A O2A 1_555 1_555
C15A O5A 1_555 1_555
O4A La1B 1_555 1_555
O6A La1D 1_555 1_555
O8A La2B 1_555 1_555

#END
