
#######################################################################
#
#                 Cambridge Crystallographic Data Centre
#                                CCDC 
#
#######################################################################
#
# If this CIF has been generated from an entry in the Cambridge 
# Structural Database, then it will include bibliographic, chemical, 
# crystal, experimental, refinement or atomic coordinate data resulting 
# from the CCDC's data processing and validation procedures.
#
#######################################################################

data_GICYUN
_symmetry_cell_setting           monoclinic
_symmetry_space_group_name_H-M   'P 21/c'
_symmetry_Int_Tables_number      14
_space_group_name_Hall           '-P 2ybc'
loop_
_symmetry_equiv_pos_site_id
_symmetry_equiv_pos_as_xyz
1 x,y,z
2 -x,1/2+y,1/2-z
3 -x,-y,-z
4 x,1/2-y,1/2+z
_cell_length_a                   46.55044
_cell_length_b                   7.86920
_cell_length_c                   5.59859
_cell_angle_alpha                90
_cell_angle_beta                 123.27415
_cell_angle_gamma                90
_cell_volume                     1714.62
loop_
_atom_site_label
_atom_site_type_symbol
_atom_site_fract_x
_atom_site_fract_y
_atom_site_fract_z
C1 C 0.1282(3) 0.583(9) 0.188(10)
C2 C 0.0932(7) 0.582(20) 0.09(2)
C3 C 0.080359 0.495447(8) 0.240629(2)
C4 C 0.10591(18) 0.396(4) 0.477(6)
C5 C 0.14100(16) 0.401(5) 0.575(6)
C6 C 0.154503 0.49321(4) 0.43585(4)
C7 C 0.042222 0.49278(5) 0.11787(7)
P1 P 0.2005(4) 0.502(8) 0.567(12)
O1 O 0.03707(8) 0.383(5) 0.272(12)
O2 O 0.0214(5) 0.581(9) -0.082(7)
O3 O 0.2086(18) 0.537(10) 0.35(2)
O4 O 0.218(2) 0.629(13) 0.83(2)
O5 O 0.2259(18) 0.353(10) 0.784(17)
Sr1 Sr 0.2520(5) 0.4231(12) 0.257(5)
C8 C 0.359(3) 0.051(14) 0.43(2)
C9 C 0.395(3) 0.049(13) 0.55(2)
C10 C 0.419(3) 0.000(15) 0.85(3)
C11 C 0.405(3) -0.057(14) 0.992(19)
C12 C 0.369(3) -0.052(15) 0.87(2)
C13 C 0.344(3) 0.000(13) 0.58(3)
C14 C 0.4571(18) -0.005(12) 0.950(17)
P2 P 0.2991(10) 0.003(8) 0.440(12)
O6 O 0.4602(14) 0.037(8) 0.734(9)
O7 O 0.4798(19) -0.037(7) 1.198(13)
O8 O 0.2903(18) 0.181(12) 0.311(15)
O9 O 0.286(2) -0.149(14) 0.19(3)
O10 O 0.2967(19) -0.071(11) 0.68(2)
O4_2 O 0.218(2) 0.629(13) -0.17(2)
O5_2 O 0.2259(18) 0.353(10) -0.216(17)
O5C O 0.2259(18) 0.147(10) 0.284(17)
Sr1_2 Sr 0.2520(5) 0.4231(12) 1.257(5)
Sr1C Sr 0.2520(5) 0.0769(12) 0.757(5)
Sr1C_2 Sr 0.2520(5) 0.0769(12) -0.243(5)
O8C O 0.2903(18) 0.319(12) 0.811(15)
O9C O 0.286(2) 0.649(14) 0.69(3)
O10C O 0.2967(19) 0.571(11) 0.18(2)
loop_
_geom_bond_atom_site_label_1
_geom_bond_atom_site_label_2
_geom_bond_site_symmetry_1
_geom_bond_site_symmetry_2
C1 C2 1_555 1_555
C2 C3 1_555 1_555
C3 C4 1_555 1_555
C4 C5 1_555 1_555
C5 C6 1_555 1_555
C6 C1 1_555 1_555
C7 C3 1_555 1_555
P1 C6 1_555 1_555
O1 C7 1_555 1_555
O2 C7 1_555 1_555
O3 P1 1_555 1_555
O4 P1 1_555 1_555
O5 P1 1_555 1_555
Sr1 O3 1_555 1_555
C8 C9 1_555 1_555
C9 C10 1_555 1_555
C10 C11 1_555 1_555
C11 C12 1_555 1_555
C12 C13 1_555 1_555
C13 C8 1_555 1_555
C14 C10 1_555 1_555
P2 C13 1_555 1_555
O6 C14 1_555 1_555
O7 C14 1_555 1_555
O8 Sr1 1_555 1_555
O9 P2 1_555 1_555
O10 P2 1_555 1_555
O4_2 Sr1 1_555 1_555
O5_2 Sr1 1_555 1_555
O5C Sr1 1_555 1_555
Sr1_2 O4 1_555 1_555
Sr1C O5 1_555 1_555
Sr1C_2 O8 1_555 1_555
O8C Sr1 1_555 1_555
O9C Sr1 1_555 1_555
O10C Sr1 1_555 1_555
O5 Sr1_2 1_555 1_555
P2 O8 1_555 1_555
O9 Sr1C_2 1_555 1_555
O10 Sr1C 1_555 1_555
O5_2 Sr1C_2 1_555 1_555
O5C Sr1C 1_555 1_555
Sr1C O8C 1_555 1_555

#END
