
#######################################################################
#
#                 Cambridge Crystallographic Data Centre
#                                CCDC 
#
#######################################################################
#
# If this CIF has been generated from an entry in the Cambridge 
# Structural Database, then it will include bibliographic, chemical, 
# crystal, experimental, refinement or atomic coordinate data resulting 
# from the CCDC's data processing and validation procedures.
#
#######################################################################

data_GICZOJ
_symmetry_cell_setting           monoclinic
_symmetry_space_group_name_H-M   'P 21/n'
_symmetry_Int_Tables_number      14
_space_group_name_Hall           '-P 2yn'
loop_
_symmetry_equiv_pos_site_id
_symmetry_equiv_pos_as_xyz
1 x,y,z
2 1/2-x,1/2+y,1/2-z
3 -x,-y,-z
4 1/2+x,1/2-y,1/2+z
_cell_length_a                   6.8518(3)
_cell_length_b                   22.7230(12)
_cell_length_c                   10.5244(6)
_cell_angle_alpha                90
_cell_angle_beta                 98.435(2)
_cell_angle_gamma                90
_cell_volume                     1620.86
loop_
_atom_site_label
_atom_site_type_symbol
_atom_site_fract_x
_atom_site_fract_y
_atom_site_fract_z
Cu1 Cu 0.77790(3) 0.256812(8) 0.927401(19)
N1 N 1.0565(2) 0.24822(6) 0.98764(13)
N2 N 0.82647(18) 0.34492(6) 0.98150(12)
N3 N 0.5192(2) 0.27504(7) 0.82841(15)
O1 O 0.74810(17) 0.17794(5) 0.86847(12)
O2 O 1.3138(3) 0.00499(8) 0.87140(19)
O3 O 0.7218(2) 0.46783(6) 0.93411(14)
S1 S 0.15980(6) 0.27762(2) 0.66718(4)
C1 C 1.0870(2) 0.14696(7) 0.92333(16)
C2 C 0.8851(2) 0.13739(7) 0.87616(15)
C3 C 0.8320(3) 0.07990(8) 0.83543(18)
H1 H 0.6998 0.0716 0.8075
C4 C 0.9682(3) 0.03569(8) 0.83550(18)
H2 H 0.9269 -0.0018 0.8082
C5 C 1.1671(3) 0.04631(9) 0.87581(19)
C6 C 1.2248(3) 0.10101(9) 0.92017(19)
H3 H 1.3576 0.1081 0.9489
C7 C 1.2559(4) -0.05347(10) 0.8425(3)
H4 H 1.1628 -0.0656 0.8971
H5 H 1.3695 -0.0787 0.8562
H6 H 1.1957 -0.0560 0.7543
C8 C 1.1600(2) 0.20218(8) 0.97628(16)
H7 H 1.2947 0.2048 1.0050
C9 C 1.1562(2) 0.30194(8) 1.04023(18)
H8 H 1.2222 0.3208 0.9756
H9 H 1.2545 0.2923 1.1133
C10 C 1.0038(2) 0.34293(7) 1.08123(15)
H10 H 0.9668 0.3294 1.1618
H11 H 1.0591 0.3821 1.0945
C11 C 0.8600(3) 0.37762(8) 0.86360(16)
H12 H 0.7485 0.3712 0.7969
H13 H 0.9765 0.3620 0.8332
C12 C 0.8869(3) 0.44299(8) 0.8864(2)
H14 H 1.0050 0.4498 0.9476
H15 H 0.9041 0.4622 0.8065
C13 C 0.6915(3) 0.43985(8) 1.05064(19)
H16 H 0.5775 0.4571 1.0812
H17 H 0.8055 0.4465 1.1154
C14 C 0.6592(2) 0.37439(8) 1.03175(17)
H18 H 0.6418 0.3566 1.1132
H19 H 0.5390 0.3680 0.9722
C15 C 0.3712(2) 0.27631(7) 0.76048(15)
Cu1C Cu 0.27790(3) 0.243188(8) 0.427401(19)
S1C S 0.65980(6) 0.22238(2) 1.16718(4)
loop_
_geom_bond_atom_site_label_1
_geom_bond_atom_site_label_2
_geom_bond_site_symmetry_1
_geom_bond_site_symmetry_2
Cu1 N1 1_555 1_555
N1 C8 1_555 1_555
N2 Cu1 1_555 1_555
N3 Cu1 1_555 1_555
O1 Cu1 1_555 1_555
O2 C5 1_555 1_555
O3 C12 1_555 1_555
S1 C15 1_555 1_555
C1 C2 1_555 1_555
C2 O1 1_555 1_555
C3 C2 1_555 1_555
H1 C3 1_555 1_555
C4 C3 1_555 1_555
H2 C4 1_555 1_555
C5 C4 1_555 1_555
C6 C1 1_555 1_555
H3 C6 1_555 1_555
C7 O2 1_555 1_555
H4 C7 1_555 1_555
H5 C7 1_555 1_555
H6 C7 1_555 1_555
C8 C1 1_555 1_555
H7 C8 1_555 1_555
C9 N1 1_555 1_555
H8 C9 1_555 1_555
H9 C9 1_555 1_555
C10 N2 1_555 1_555
H10 C10 1_555 1_555
H11 C10 1_555 1_555
C11 N2 1_555 1_555
H12 C11 1_555 1_555
H13 C11 1_555 1_555
C12 C11 1_555 1_555
H14 C12 1_555 1_555
H15 C12 1_555 1_555
C13 O3 1_555 1_555
H16 C13 1_555 1_555
H17 C13 1_555 1_555
C14 N2 1_555 1_555
H18 C14 1_555 1_555
H19 C14 1_555 1_555
C15 N3 1_555 1_555
Cu1C S1 1_555 1_555
S1C Cu1 1_555 1_555
C5 C6 1_555 1_555
C9 C10 1_555 1_555
C13 C14 1_555 1_555

#END
