
#######################################################################
#
#                 Cambridge Crystallographic Data Centre
#                                CCDC 
#
#######################################################################
#
# If this CIF has been generated from an entry in the Cambridge 
# Structural Database, then it will include bibliographic, chemical, 
# crystal, experimental, refinement or atomic coordinate data resulting 
# from the CCDC's data processing and validation procedures.
#
#######################################################################

data_GIDBUS
_symmetry_cell_setting           monoclinic
_symmetry_space_group_name_H-M   'C 2/c'
_symmetry_Int_Tables_number      15
_space_group_name_Hall           '-C 2yn'
loop_
_symmetry_equiv_pos_site_id
_symmetry_equiv_pos_as_xyz
1 x,y,z
2 -x,y,1/2-z
3 1/2+x,1/2+y,z
4 1/2-x,1/2+y,1/2-z
5 -x,-y,-z
6 x,-y,1/2+z
7 1/2-x,1/2-y,-z
8 1/2+x,1/2-y,1/2+z
_cell_length_a                   27.7526(6)
_cell_length_b                   13.9818(3)
_cell_length_c                   20.9735(4)
_cell_angle_alpha                90
_cell_angle_beta                 130.3965(7)
_cell_angle_gamma                90
_cell_volume                     6198.01
loop_
_atom_site_label
_atom_site_type_symbol
_atom_site_fract_x
_atom_site_fract_y
_atom_site_fract_z
Nb1 Nb 1.0000 1.13144(2) 0.7500
Mn1 Mn 0.7500 1.2500 0.5000
Mn2 Mn 1.0000 1.0000 1.0000
O1 O 0.59394(17) 1.1000(4) 0.1385(3)
O2 O 0.56014(15) 0.8907(3) 0.32168(19)
O3 O 1.2447(3) 0.7985(3) 1.0870(5)
O4 O 0.87186(17) 0.5600(3) 0.8955(3)
N1 N 0.74665(12) 1.2107(2) 0.38904(17)
N2 N 0.71650(12) 1.09962(19) 0.50024(16)
N3 N 0.84967(11) 1.20377(18) 0.59089(15)
N4 N 1.00819(14) 1.05591(19) 0.91042(16)
N5 N 1.10700(14) 0.9651(2) 1.09186(17)
N6 N 0.97967(13) 0.84781(19) 0.94312(16)
N7 N 0.90457(15) 0.9368(2) 0.67686(19)
N8 N 1.02270(15) 1.3268(2) 0.6762(2)
C1 C 1.00604(14) 1.0830(2) 0.85664(18)
C2 C 0.90075(12) 1.18000(19) 0.64406(16)
C3 C 0.75742(16) 1.0385(3) 0.5623(2)
C4 C 0.74002(19) 0.9497(3) 0.5690(3)
C5 C 0.6778(2) 0.9216(3) 0.5110(3)
C6 C 0.63497(17) 0.9822(3) 0.4455(3)
C7 C 0.65650(17) 1.0704(3) 0.4428(3)
C8 C 0.5672(2) 0.9543(4) 0.3781(4)
C9 C 0.69012(18) 1.1879(3) 0.2416(3)
C10 C 0.69334(16) 1.2034(3) 0.3097(3)
C11 C 0.6273(3) 1.1842(5) 0.1534(3)
C12 C 0.7466(2) 1.1783(3) 0.2582(3)
C13 C 0.80204(19) 1.1857(4) 0.3387(3)
C14 C 0.80042(17) 1.2009(3) 0.4016(3)
C15 C 0.96666(16) 0.7742(3) 0.97008(19)
C16 C 0.94556(18) 0.6858(3) 0.9317(3)
C17 C 0.9393(3) 0.6716(3) 0.8612(3)
C18 C 0.9532(3) 0.7464(4) 0.8329(3)
C19 C 0.9735(3) 0.8322(3) 0.8753(3)
C20 C 0.9282(3) 0.6076(3) 0.9639(3)
C21 C 1.13777(17) 0.9439(3) 1.0642(2)
C22 C 1.20080(18) 0.9195(3) 1.1147(3)
C23 C 1.2317(3) 0.8952(4) 1.0791(3)
C24 C 1.23416(18) 0.9167(3) 1.1998(3)
C25 C 1.20478(19) 0.9384(3) 1.2308(3)
C26 C 1.14151(18) 0.9616(3) 1.1756(2)
C27 C 1.01483(13) 1.2605(2) 0.70052(17)
C28 C 0.93645(13) 1.0023(2) 0.70124(17)
H1 H 0.7995 1.0571 0.6025
H2 H 0.7700 0.9089 0.6124
H3 H 0.6648 0.8628 0.5160
H4 H 0.6277 1.1114 0.3987
H5 H 0.5514 0.9250 0.4034
H6 H 0.5422 1.0112 0.3484
H7 H 0.6553 1.2091 0.2991
H8 H 0.6020 1.2390 0.1442
H9 H 0.6346 1.1882 0.1141
H10 H 0.7471 1.1669 0.2149
H11 H 0.8406 1.1805 0.3506
H12 H 0.8387 1.2046 0.4562
H13 H 0.9722 0.7830 1.0184
H14 H 0.9261 0.6129 0.8338
H15 H 0.9489 0.7392 0.7853
H16 H 0.9834 0.8816 0.8558
H17 H 0.9625 0.5619 0.9965
H18 H 0.9216 0.6354 1.0002
H19 H 1.1149 0.9457 1.0067
H20 H 1.2040 0.9130 1.0204
H21 H 1.2707 0.9312 1.1082
H22 H 1.2768 0.9000 1.2362
H23 H 1.2272 0.9376 1.2881
H24 H 1.1216 0.9755 1.1970
H25 H 0.5640 1.1124 0.1362
H26 H 0.5804 0.8419 0.3464
H27 H 1.2616 0.7862 1.0673
H28 H 0.8628 0.5181 0.9134
N3A N 1.15033(11) 1.20377(18) 0.90911(15)
N4A N 0.99181(14) 1.05591(19) 0.58958(16)
N7A N 1.09543(15) 0.9368(2) 0.82314(19)
N8A N 0.97730(15) 1.3268(2) 0.8238(2)
C1A C 0.99396(14) 1.0830(2) 0.64336(18)
C2A C 1.09925(12) 1.18000(19) 0.85594(16)
C27A C 0.98517(13) 1.2605(2) 0.79948(17)
C28A C 1.06355(13) 1.0023(2) 0.79876(17)
O1F O 0.90606(17) 1.4000(4) 0.8615(3)
N1F N 0.75335(12) 1.2893(2) 0.61096(17)
C9F C 0.80988(18) 1.3121(3) 0.7584(3)
C10F C 0.80666(16) 1.2966(3) 0.6903(3)
C11F C 0.8727(3) 1.3158(5) 0.8466(3)
C12F C 0.7534(2) 1.3217(3) 0.7418(3)
C13F C 0.69796(19) 1.3143(4) 0.6613(3)
C14F C 0.69958(17) 1.2991(3) 0.5984(3)
H7F H 0.8447 1.2909 0.7009
H8F H 0.8980 1.2610 0.8558
H9F H 0.8654 1.3118 0.8859
H10F H 0.7529 1.3331 0.7851
H11F H 0.6594 1.3195 0.6494
H12F H 0.6613 1.2954 0.5438
H25F H 0.9360 1.3876 0.8638
O2F O 0.93986(15) 1.6093(3) 0.67832(19)
N2F N 0.78350(12) 1.40038(19) 0.49976(16)
C3F C 0.74258(16) 1.4615(3) 0.4377(2)
C4F C 0.75998(19) 1.5503(3) 0.4310(3)
C5F C 0.8222(2) 1.5784(3) 0.4890(3)
C6F C 0.86503(17) 1.5178(3) 0.5545(3)
C7F C 0.84350(17) 1.4296(3) 0.5572(3)
C8F C 0.9328(2) 1.5457(4) 0.6219(4)
H1F H 0.7005 1.4429 0.3975
H2F H 0.7300 1.5911 0.3876
H3F H 0.8352 1.6372 0.4840
H4F H 0.8723 1.3886 0.6013
H5F H 0.9486 1.5750 0.5966
H6F H 0.9578 1.4888 0.6516
H26F H 0.9196 1.6581 0.6536
O3D O 0.7553(3) 1.2015(3) 0.9130(5)
N5D N 0.89300(14) 1.0349(2) 0.90814(17)
C21D C 0.86223(17) 1.0561(3) 0.9358(2)
C22D C 0.79920(18) 1.0805(3) 0.8853(3)
C23D C 0.7683(3) 1.1048(4) 0.9209(3)
C24D C 0.76584(18) 1.0833(3) 0.8002(3)
C25D C 0.79522(19) 1.0616(3) 0.7692(3)
C26D C 0.85849(18) 1.0384(3) 0.8244(2)
H19D H 0.8851 1.0543 0.9933
H20D H 0.7960 1.0870 0.9796
H21D H 0.7293 1.0688 0.8918
H22D H 0.7232 1.1000 0.7638
H23D H 0.7728 1.0624 0.7119
H24D H 0.8784 1.0245 0.8030
H27D H 0.7384 1.2138 0.9327
O4D O 1.12814(17) 1.4400(3) 1.1045(3)
N6D N 1.02033(13) 1.15219(19) 1.05688(16)
C15D C 1.03334(16) 1.2258(3) 1.02992(19)
C16D C 1.05444(18) 1.3142(3) 1.0683(3)
C17D C 1.0607(3) 1.3284(3) 1.1388(3)
C18D C 1.0468(3) 1.2536(4) 1.1671(3)
C19D C 1.0265(3) 1.1678(3) 1.1247(3)
C20D C 1.0718(3) 1.3924(3) 1.0361(3)
H13D H 1.0278 1.2170 0.9816
H14D H 1.0739 1.3871 1.1662
H15D H 1.0511 1.2608 1.2147
H16D H 1.0166 1.1184 1.1442
H17D H 1.0375 1.4381 1.0035
H18D H 1.0784 1.3646 0.9998
H28D H 1.1372 1.4819 1.0866
Mn1A Mn 1.2500 1.2500 1.0000
Mn2A Mn 1.0000 1.0000 0.5000
N3F N 0.65033(11) 1.29623(18) 0.40911(15)
N4D N 0.99181(14) 0.94409(19) 1.08958(16)
O5 O 1.35198(16) 0.7442(2) 1.1081(3)
loop_
_geom_bond_atom_site_label_1
_geom_bond_atom_site_label_2
_geom_bond_site_symmetry_1
_geom_bond_site_symmetry_2
Nb1 C1 1_555 1_555
Mn1 N1 1_555 1_555
Mn2 N4 1_555 1_555
O1 C11 1_555 1_555
O2 C8 1_555 1_555
O3 C23 1_555 1_555
O4 C20 1_555 1_555
N1 C10 1_555 1_555
N2 Mn1 1_555 1_555
N3 Mn1 1_555 1_555
N4 C1 1_555 1_555
N5 Mn2 1_555 1_555
N6 Mn2 1_555 1_555
N7 C28 1_555 1_555
N8 C27 1_555 1_555
C2 Nb1 1_555 1_555
C3 N2 1_555 1_555
C4 C3 1_555 1_555
C5 C4 1_555 1_555
C6 C5 1_555 1_555
C7 N2 1_555 1_555
C8 C6 1_555 1_555
C9 C10 1_555 1_555
C10 H7 1_555 1_555
C11 C9 1_555 1_555
C12 C9 1_555 1_555
C13 C12 1_555 1_555
C14 N1 1_555 1_555
C15 N6 1_555 1_555
C16 C15 1_555 1_555
C17 C16 1_555 1_555
C18 C17 1_555 1_555
C19 N6 1_555 1_555
C20 C16 1_555 1_555
C21 N5 1_555 1_555
C22 C21 1_555 1_555
C23 C22 1_555 1_555
C24 C22 1_555 1_555
C25 C24 1_555 1_555
C26 N5 1_555 1_555
C27 Nb1 1_555 1_555
C28 Nb1 1_555 1_555
H1 C3 1_555 1_555
H2 C4 1_555 1_555
H3 C5 1_555 1_555
H4 C7 1_555 1_555
H5 C8 1_555 1_555
H6 C8 1_555 1_555
H8 C11 1_555 1_555
H9 C11 1_555 1_555
H10 C12 1_555 1_555
H11 C13 1_555 1_555
H12 C14 1_555 1_555
H13 C15 1_555 1_555
H14 C17 1_555 1_555
H15 C18 1_555 1_555
H16 C19 1_555 1_555
H17 C20 1_555 1_555
H18 C20 1_555 1_555
H19 C21 1_555 1_555
H20 C23 1_555 1_555
H21 C23 1_555 1_555
H22 C24 1_555 1_555
H23 C25 1_555 1_555
H24 C26 1_555 1_555
H25 O1 1_555 1_555
H26 O2 1_555 1_555
H27 O3 1_555 1_555
H28 O4 1_555 1_555
N3A C2A 1_555 1_555
N4A C1A 1_555 1_555
N7A C28A 1_555 1_555
N8A C27A 1_555 1_555
C1A Nb1 1_555 1_555
C2A Nb1 1_555 1_555
C27A Nb1 1_555 1_555
C28A Nb1 1_555 1_555
O1F C11F 1_555 1_555
N1F Mn1 1_555 1_555
C9F C10F 1_555 1_555
C10F N1F 1_555 1_555
C11F C9F 1_555 1_555
C12F C9F 1_555 1_555
C13F C12F 1_555 1_555
C14F N1F 1_555 1_555
H7F C10F 1_555 1_555
H8F C11F 1_555 1_555
H9F C11F 1_555 1_555
H10F C12F 1_555 1_555
H11F C13F 1_555 1_555
H12F C14F 1_555 1_555
H25F O1F 1_555 1_555
O2F C8F 1_555 1_555
N2F Mn1 1_555 1_555
C3F N2F 1_555 1_555
C4F C3F 1_555 1_555
C5F C4F 1_555 1_555
C6F C5F 1_555 1_555
C7F N2F 1_555 1_555
C8F C6F 1_555 1_555
H1F C3F 1_555 1_555
H2F C4F 1_555 1_555
H3F C5F 1_555 1_555
H4F C7F 1_555 1_555
H5F C8F 1_555 1_555
H6F C8F 1_555 1_555
H26F O2F 1_555 1_555
O3D C23D 1_555 1_555
N5D Mn2 1_555 1_555
C21D N5D 1_555 1_555
C22D C21D 1_555 1_555
C23D C22D 1_555 1_555
C24D C22D 1_555 1_555
C25D C24D 1_555 1_555
C26D N5D 1_555 1_555
H19D C21D 1_555 1_555
H20D C23D 1_555 1_555
H21D C23D 1_555 1_555
H22D C24D 1_555 1_555
H23D C25D 1_555 1_555
H24D C26D 1_555 1_555
H27D O3D 1_555 1_555
O4D C20D 1_555 1_555
N6D Mn2 1_555 1_555
C15D N6D 1_555 1_555
C16D C15D 1_555 1_555
C17D C16D 1_555 1_555
C18D C17D 1_555 1_555
C19D N6D 1_555 1_555
C20D C16D 1_555 1_555
H13D C15D 1_555 1_555
H14D C17D 1_555 1_555
H15D C18D 1_555 1_555
H16D C19D 1_555 1_555
H17D C20D 1_555 1_555
H18D C20D 1_555 1_555
H28D O4D 1_555 1_555
Mn1A N3A 1_555 1_555
Mn2A N4A 1_555 1_555
N3F Mn1 1_555 1_555
N4D Mn2 1_555 1_555
N3 C2 1_555 1_555
C6 C7 1_555 1_555
C13 C14 1_555 1_555
C18 C19 1_555 1_555
C25 C26 1_555 1_555
C13F C14F 1_555 1_555
C6F C7F 1_555 1_555
C25D C26D 1_555 1_555
C18D C19D 1_555 1_555

#END
