
#######################################################################
#
#                 Cambridge Crystallographic Data Centre
#                                CCDC 
#
#######################################################################
#
# If this CIF has been generated from an entry in the Cambridge 
# Structural Database, then it will include bibliographic, chemical, 
# crystal, experimental, refinement or atomic coordinate data resulting 
# from the CCDC's data processing and validation procedures.
#
#######################################################################

data_GIDBEA
_symmetry_cell_setting           monoclinic
_symmetry_space_group_name_H-M   'C 2/c'
_symmetry_Int_Tables_number      15
_space_group_name_Hall           '-C 2yn'
loop_
_symmetry_equiv_pos_site_id
_symmetry_equiv_pos_as_xyz
1 x,y,z
2 1/2+x,1/2+y,z
3 -x,y,1/2-z
4 1/2-x,1/2+y,1/2-z
5 -x,-y,-z
6 1/2-x,1/2-y,-z
7 x,-y,1/2+z
8 1/2+x,1/2-y,1/2+z
_cell_length_a                   17.040(4)
_cell_length_b                   9.362(1)
_cell_length_c                   10.833(5)
_cell_angle_alpha                90
_cell_angle_beta                 98.64(2)
_cell_angle_gamma                90
_cell_volume                     1708.56
loop_
_atom_site_label
_atom_site_type_symbol
_atom_site_fract_x
_atom_site_fract_y
_atom_site_fract_z
Mg1 Mg 0.5000 0.23672(9) 0.25000
O1 O 0.4920(1) 0.0749(2) 0.1101(1)
C1 C 0.4248(1) 0.0488(2) 0.0157(2)
C2 C 0.5499(1) -0.0365(3) 0.1083(2)
C3 C 0.6190(1) 0.3148(2) 0.2822(2)
C4 C 0.6507(1) 0.4149(2) 0.1899(2)
C5 C 0.6035(2) 0.5521(3) 0.1770(3)
C6 C 0.7384(2) 0.4510(4) 0.2363(4)
C7 C 0.6453(2) 0.3443(4) 0.0633(3)
H1 H 0.389(1) 0.125(3) 0.019(2)
H2 H 0.403(1) -0.034(3) 0.039(2)
H3 H 0.594(1) -0.016(2) 0.176(2)
H4 H 0.525(1) -0.126(3) 0.124(2)
H5 H 0.629(1) 0.362(3) 0.363(2)
H6 H 0.654(1) 0.230(2) 0.285(2)
H7 H 0.621(1) 0.616(3) 0.112(2)
H8 H 0.546(1) 0.541(2) 0.134(2)
H9 H 0.602(1) 0.596(2) 0.253(2)
H10 H 0.755(1) 0.503(2) 0.188(2)
H11 H 0.748(1) 0.491(2) 0.342(2)
H12 H 0.778(1) 0.356(2) 0.257(2)
H13 H 0.671(1) 0.260(3) 0.076(2)
H14 H 0.590(1) 0.330(3) 0.030(2)
H15 H 0.666(1) 0.404(3) -0.001(2)
O1B O 0.5080(1) 0.0749(2) 0.3899(1)
C3B C 0.3810(1) 0.3148(2) 0.2178(2)
C2D C 0.4501(1) 0.0365(3) -0.1083(2)
C1D C 0.5752(1) -0.0488(2) -0.0157(2)
C1B C 0.5752(1) 0.0488(2) 0.4843(2)
C2B C 0.4501(1) -0.0365(3) 0.3917(2)
C4B C 0.3493(1) 0.4149(2) 0.3101(2)
H5B H 0.371(1) 0.362(3) 0.137(2)
H6B H 0.346(1) 0.230(2) 0.215(2)
O1D O 0.5080(1) -0.0749(2) -0.1101(1)
H3D H 0.406(1) 0.016(2) -0.176(2)
H4D H 0.475(1) 0.126(3) -0.124(2)
H1D H 0.611(1) -0.125(3) -0.019(2)
H2D H 0.597(1) 0.034(3) -0.039(2)
C2F C 0.5499(1) 0.0365(3) 0.6083(2)
H1B H 0.611(1) 0.125(3) 0.481(2)
H2B H 0.597(1) -0.034(3) 0.461(2)
C1F C 0.4248(1) -0.0488(2) 0.5157(2)
H3B H 0.406(1) -0.016(2) 0.324(2)
H4B H 0.475(1) -0.126(3) 0.376(2)
C5B C 0.3965(2) 0.5521(3) 0.3230(3)
C6B C 0.2616(2) 0.4510(4) 0.2637(4)
C7B C 0.3547(2) 0.3443(4) 0.4367(3)
Mg1D Mg 0.5000 -0.23672(9) -0.25000
O1F O 0.4920(1) -0.0749(2) 0.6101(1)
H3F H 0.594(1) 0.016(2) 0.676(2)
H4F H 0.525(1) 0.126(3) 0.624(2)
H1F H 0.389(1) -0.125(3) 0.519(2)
H2F H 0.403(1) 0.034(3) 0.539(2)
H7B H 0.379(1) 0.616(3) 0.388(2)
H8B H 0.454(1) 0.541(2) 0.366(2)
H9B H 0.398(1) 0.596(2) 0.247(2)
H10B H 0.245(1) 0.503(2) 0.312(2)
H11B H 0.252(1) 0.491(2) 0.158(2)
H12B H 0.222(1) 0.356(2) 0.243(2)
H13B H 0.329(1) 0.260(3) 0.424(2)
H14B H 0.410(1) 0.330(3) 0.470(2)
H15B H 0.334(1) 0.404(3) 0.501(2)
O1F_2 O 0.4920(1) -0.0749(2) -0.3899(1)
C3D C 0.3810(1) -0.3148(2) -0.2822(2)
C3F C 0.6190(1) -0.3148(2) -0.2178(2)
Mg1D_2 Mg 0.5000 -0.23672(9) 0.75000
C4D C 0.3493(1) -0.4149(2) -0.1899(2)
H5D H 0.371(1) -0.362(3) -0.363(2)
H6D H 0.346(1) -0.230(2) -0.285(2)
C4F C 0.6507(1) -0.4149(2) -0.3101(2)
H5F H 0.629(1) -0.362(3) -0.137(2)
H6F H 0.654(1) -0.230(2) -0.215(2)
C5D C 0.3965(2) -0.5521(3) -0.1770(3)
C6D C 0.2616(2) -0.4510(4) -0.2363(4)
C7D C 0.3547(2) -0.3443(4) -0.0633(3)
C5F C 0.6035(2) -0.5521(3) -0.3230(3)
C6F C 0.7384(2) -0.4510(4) -0.2637(4)
C7F C 0.6453(2) -0.3443(4) -0.4367(3)
H7D H 0.379(1) -0.616(3) -0.112(2)
H8D H 0.454(1) -0.541(2) -0.134(2)
H9D H 0.398(1) -0.596(2) -0.253(2)
H10D H 0.245(1) -0.503(2) -0.188(2)
H11D H 0.252(1) -0.491(2) -0.342(2)
H12D H 0.222(1) -0.356(2) -0.257(2)
H13D H 0.329(1) -0.260(3) -0.076(2)
H14D H 0.410(1) -0.330(3) -0.030(2)
H15D H 0.334(1) -0.404(3) 0.001(2)
H7F H 0.621(1) -0.616(3) -0.388(2)
H8F H 0.546(1) -0.541(2) -0.366(2)
H9F H 0.602(1) -0.596(2) -0.247(2)
H10F H 0.755(1) -0.503(2) -0.312(2)
H11F H 0.748(1) -0.491(2) -0.158(2)
H12F H 0.778(1) -0.356(2) -0.243(2)
H13F H 0.671(1) -0.260(3) -0.424(2)
H14F H 0.590(1) -0.330(3) -0.470(2)
H15F H 0.666(1) -0.404(3) -0.501(2)
loop_
_geom_bond_atom_site_label_1
_geom_bond_atom_site_label_2
_geom_bond_site_symmetry_1
_geom_bond_site_symmetry_2
Mg1 O1 1_555 1_555
O1 C1 1_555 1_555
C1 H1 1_555 1_555
C2 O1 1_555 1_555
C3 Mg1 1_555 1_555
C4 C3 1_555 1_555
C5 C4 1_555 1_555
C6 C4 1_555 1_555
C7 C4 1_555 1_555
H2 C1 1_555 1_555
H3 C2 1_555 1_555
H4 C2 1_555 1_555
H5 C3 1_555 1_555
H6 C3 1_555 1_555
H7 C5 1_555 1_555
H8 C5 1_555 1_555
H9 C5 1_555 1_555
H10 C6 1_555 1_555
H11 C6 1_555 1_555
H12 C6 1_555 1_555
H13 C7 1_555 1_555
H14 C7 1_555 1_555
H15 C7 1_555 1_555
O1B Mg1 1_555 1_555
C3B Mg1 1_555 1_555
C2D C1 1_555 1_555
C1D C2 1_555 1_555
C1B O1B 1_555 1_555
C2B O1B 1_555 1_555
C4B C3B 1_555 1_555
H5B C3B 1_555 1_555
H6B C3B 1_555 1_555
O1D C2D 1_555 1_555
H3D C2D 1_555 1_555
H4D C2D 1_555 1_555
H1D C1D 1_555 1_555
H2D C1D 1_555 1_555
C2F C1B 1_555 1_555
H1B C1B 1_555 1_555
H2B C1B 1_555 1_555
C1F C2B 1_555 1_555
H3B C2B 1_555 1_555
H4B C2B 1_555 1_555
C5B C4B 1_555 1_555
C6B C4B 1_555 1_555
C7B C4B 1_555 1_555
Mg1D O1D 1_555 1_555
O1F C2F 1_555 1_555
H3F C2F 1_555 1_555
H4F C2F 1_555 1_555
H1F C1F 1_555 1_555
H2F C1F 1_555 1_555
H7B C5B 1_555 1_555
H8B C5B 1_555 1_555
H9B C5B 1_555 1_555
H10B C6B 1_555 1_555
H11B C6B 1_555 1_555
H12B C6B 1_555 1_555
H13B C7B 1_555 1_555
H14B C7B 1_555 1_555
H15B C7B 1_555 1_555
O1F_2 Mg1D 1_555 1_555
C3D Mg1D 1_555 1_555
C3F Mg1D 1_555 1_555
Mg1D_2 O1F 1_555 1_555
C4D C3D 1_555 1_555
H5D C3D 1_555 1_555
H6D C3D 1_555 1_555
C4F C3F 1_555 1_555
H5F C3F 1_555 1_555
H6F C3F 1_555 1_555
C5D C4D 1_555 1_555
C6D C4D 1_555 1_555
C7D C4D 1_555 1_555
C5F C4F 1_555 1_555
C6F C4F 1_555 1_555
C7F C4F 1_555 1_555
H7D C5D 1_555 1_555
H8D C5D 1_555 1_555
H9D C5D 1_555 1_555
H10D C6D 1_555 1_555
H11D C6D 1_555 1_555
H12D C6D 1_555 1_555
H13D C7D 1_555 1_555
H14D C7D 1_555 1_555
H15D C7D 1_555 1_555
H7F C5F 1_555 1_555
H8F C5F 1_555 1_555
H9F C5F 1_555 1_555
H10F C6F 1_555 1_555
H11F C6F 1_555 1_555
H12F C6F 1_555 1_555
H13F C7F 1_555 1_555
H14F C7F 1_555 1_555
H15F C7F 1_555 1_555
C1D O1D 1_555 1_555
C1F O1F 1_555 1_555

#END
