
#######################################################################
#
#                 Cambridge Crystallographic Data Centre
#                                CCDC 
#
#######################################################################
#
# If this CIF has been generated from an entry in the Cambridge 
# Structural Database, then it will include bibliographic, chemical, 
# crystal, experimental, refinement or atomic coordinate data resulting 
# from the CCDC's data processing and validation procedures.
#
#######################################################################

data_GIDCIF
_symmetry_cell_setting           monoclinic
_symmetry_space_group_name_H-M   'C 2/c'
_symmetry_Int_Tables_number      15
_space_group_name_Hall           '-C 2yn'
loop_
_symmetry_equiv_pos_site_id
_symmetry_equiv_pos_as_xyz
1 x,y,z
2 1/2+x,1/2+y,z
3 -x,y,1/2-z
4 1/2-x,1/2+y,1/2-z
5 -x,-y,-z
6 1/2-x,1/2-y,-z
7 x,-y,1/2+z
8 1/2+x,1/2-y,1/2+z
_cell_length_a                   16.966(4)
_cell_length_b                   9.287(2)
_cell_length_c                   7.490(2)
_cell_angle_alpha                90
_cell_angle_beta                 111.60(2)
_cell_angle_gamma                90
_cell_volume                     1097.27
loop_
_atom_site_label
_atom_site_type_symbol
_atom_site_fract_x
_atom_site_fract_y
_atom_site_fract_z
Br1 Br 0.90825(8) -0.1095(1) 0.0491(2)
Cu1 Cu 1.00000 0.0726(2) 0.2500
N1 N 0.9270(5) 0.240(1) 0.106(1)
C1 C 0.8534(7) 0.234(1) -0.038(2)
C2 C 0.8050(8) 0.350(2) -0.124(2)
C3 C 0.8370(9) 0.484(2) -0.056(2)
C4 C 0.9147(8) 0.495(1) 0.092(2)
C5 C 0.9587(7) 0.370(1) 0.170(1)
H1 H 0.8316 0.1413 -0.0863
H2 H 0.7519 0.3391 -0.2270
H3 H 0.8051 0.5683 -0.1104
H4 H 0.9386 0.5872 0.1412
Cu1D Cu 1.00000 -0.0726(2) -0.2500
N1B N 1.0730(5) 0.240(1) 0.394(1)
Br1B Br 1.09175(8) -0.1095(1) 0.4509(2)
Br1D Br 1.09175(8) 0.1095(1) -0.0491(2)
Br1F Br 0.90825(8) 0.1095(1) 0.5491(2)
C5B C 1.0413(7) 0.370(1) 0.330(1)
Br1B_2 Br 1.09175(8) -0.1095(1) -0.5491(2)
Br1F_2 Br 0.90825(8) 0.1095(1) -0.4509(2)
N1D N 1.0730(5) -0.240(1) -0.106(1)
N1F N 0.9270(5) -0.240(1) -0.394(1)
C1B C 1.1466(7) 0.234(1) 0.538(2)
Cu1D_2 Cu 1.00000 -0.0726(2) 0.7500
C4B C 1.0853(8) 0.495(1) 0.408(2)
C1D C 1.1466(7) -0.234(1) 0.038(2)
C5D C 1.0413(7) -0.370(1) -0.170(1)
C1F C 0.8534(7) -0.234(1) -0.538(2)
C5F C 0.9587(7) -0.370(1) -0.330(1)
C2B C 1.1950(8) 0.350(2) 0.624(2)
H1B H 1.1684 0.1413 0.5863
C3B C 1.1630(9) 0.484(2) 0.556(2)
H4B H 1.0614 0.5872 0.3588
C2D C 1.1950(8) -0.350(2) 0.124(2)
H1D H 1.1684 -0.1413 0.0863
C4D C 1.0853(8) -0.495(1) -0.092(2)
C2F C 0.8050(8) -0.350(2) -0.624(2)
H1F H 0.8316 -0.1413 -0.5863
C4F C 0.9147(8) -0.495(1) -0.408(2)
H2B H 1.2481 0.3391 0.7270
H3B H 1.1949 0.5683 0.6104
C3D C 1.1630(9) -0.484(2) 0.056(2)
H2D H 1.2481 -0.3391 0.2270
H4D H 1.0614 -0.5872 -0.1412
C3F C 0.8370(9) -0.484(2) -0.556(2)
H2F H 0.7519 -0.3391 -0.7270
H4F H 0.9386 -0.5872 -0.3588
H3D H 1.1949 -0.5683 0.1104
H3F H 0.8051 -0.5683 -0.6104
loop_
_geom_bond_atom_site_label_1
_geom_bond_atom_site_label_2
_geom_bond_site_symmetry_1
_geom_bond_site_symmetry_2
Br1 Cu1 1_555 1_555
Cu1 N1 1_555 1_555
N1 C1 1_555 1_555
C1 C2 1_555 1_555
C2 C3 1_555 1_555
C3 C4 1_555 1_555
C4 C5 1_555 1_555
C5 N1 1_555 1_555
H1 C1 1_555 1_555
H2 C2 1_555 1_555
H3 C3 1_555 1_555
H4 C4 1_555 1_555
Cu1D Br1 1_555 1_555
N1B Cu1 1_555 1_555
Br1B Cu1 1_555 1_555
Br1D Cu1 1_555 1_555
Br1F Cu1 1_555 1_555
C5B C5 1_555 1_555
Br1B_2 Cu1D 1_555 1_555
Br1F_2 Cu1D 1_555 1_555
N1D Cu1D 1_555 1_555
N1F Cu1D 1_555 1_555
C1B N1B 1_555 1_555
Cu1D_2 Br1B 1_555 1_555
C4B C5B 1_555 1_555
C1D N1D 1_555 1_555
C5D N1D 1_555 1_555
C1F N1F 1_555 1_555
C5F N1F 1_555 1_555
C2B C1B 1_555 1_555
H1B C1B 1_555 1_555
C3B C4B 1_555 1_555
H4B C4B 1_555 1_555
C2D C1D 1_555 1_555
H1D C1D 1_555 1_555
C4D C5D 1_555 1_555
C2F C1F 1_555 1_555
H1F C1F 1_555 1_555
C4F C5F 1_555 1_555
H2B C2B 1_555 1_555
H3B C3B 1_555 1_555
C3D C2D 1_555 1_555
H2D C2D 1_555 1_555
H4D C4D 1_555 1_555
C3F C2F 1_555 1_555
H2F C2F 1_555 1_555
H4F C4F 1_555 1_555
H3D C3D 1_555 1_555
H3F C3F 1_555 1_555
Cu1D Br1D 1_555 1_555
N1B C5B 1_555 1_555
Br1F Cu1D_2 1_555 1_555
C5D C5F 1_555 1_555
C2B C3B 1_555 1_555
C4D C3D 1_555 1_555
C4F C3F 1_555 1_555

#END
