
#######################################################################
#
#                 Cambridge Crystallographic Data Centre
#                                CCDC 
#
#######################################################################
#
# If this CIF has been generated from an entry in the Cambridge 
# Structural Database, then it will include bibliographic, chemical, 
# crystal, experimental, refinement or atomic coordinate data resulting 
# from the CCDC's data processing and validation procedures.
#
#######################################################################

data_GIDCEB01
_symmetry_cell_setting           monoclinic
_symmetry_space_group_name_H-M   'C 2/c'
_symmetry_Int_Tables_number      15
_space_group_name_Hall           '-C 2yn'
loop_
_symmetry_equiv_pos_site_id
_symmetry_equiv_pos_as_xyz
1 x,y,z
2 1/2+x,1/2+y,z
3 -x,y,1/2-z
4 1/2-x,1/2+y,1/2-z
5 -x,-y,-z
6 1/2-x,1/2-y,-z
7 x,-y,1/2+z
8 1/2+x,1/2-y,1/2+z
_cell_length_a                   17.08(5)
_cell_length_b                   8.95(2)
_cell_length_c                   7.23(2)
_cell_angle_alpha                90
_cell_angle_beta                 112.52(3)
_cell_angle_gamma                90
_cell_volume                     1020.94
loop_
_atom_site_label
_atom_site_type_symbol
_atom_site_fract_x
_atom_site_fract_y
_atom_site_fract_z
Cu1 Cu 0.0000 0.43287(11) 0.2500
Cl1 Cl -0.08604(10) 0.60623(18) 0.0461(2)
N1 N -0.0739(3) 0.2602(5) 0.1011(7)
C1 C -0.0424(4) 0.1256(7) 0.1678(9)
C2 C -0.1495(4) 0.2694(8) -0.0470(10)
H1 H -0.1712 0.3653 -0.0972
C3 C -0.1972(4) 0.1461(9) -0.1300(10)
H2 H -0.2514 0.1561 -0.2351
C4 C -0.0869(5) -0.0019(8) 0.0913(10)
H3 H -0.0635 -0.0968 0.1418
C5 C -0.1656(5) 0.0083(9) -0.0588(11)
H4 H -0.1977 -0.0793 -0.1126
C1B C 0.0424(4) 0.1256(7) 0.3322(9)
N1B N 0.0739(3) 0.2602(5) 0.3989(7)
C2B C 0.1495(4) 0.2694(8) 0.5470(10)
H1B H 0.1712 0.3653 0.5972
C3B C 0.1972(4) 0.1461(9) 0.6300(10)
H2B H 0.2514 0.1561 0.7351
C5B C 0.1656(5) 0.0083(9) 0.5588(11)
C4B C 0.0869(5) -0.0019(8) 0.4087(10)
H3B H 0.0635 -0.0968 0.3582
H4B H 0.1977 -0.0793 0.6126
Cl1F Cl -0.08604(10) 0.39377(18) 0.5461(2)
Cl1D Cl 0.08604(10) 0.39377(18) -0.0461(2)
Cl1B Cl 0.08604(10) 0.60623(18) 0.4539(2)
Cu1F Cu 0.0000 0.56713(11) -0.2500
loop_
_geom_bond_atom_site_label_1
_geom_bond_atom_site_label_2
_geom_bond_site_symmetry_1
_geom_bond_site_symmetry_2
Cu1 Cl1 1_555 1_555
Cl1 Cu1F 1_555 1_555
N1 Cu1 1_555 1_555
C1 N1 1_555 1_555
C2 N1 1_555 1_555
H1 C2 1_555 1_555
C3 C2 1_555 1_555
H2 C3 1_555 1_555
C4 C1 1_555 1_555
H3 C4 1_555 1_555
C5 C3 1_555 1_555
H4 C5 1_555 1_555
C1B C1 1_555 1_555
N1B Cu1 1_555 1_555
C2B N1B 1_555 1_555
H1B C2B 1_555 1_555
C3B C2B 1_555 1_555
H2B C3B 1_555 1_555
C5B C3B 1_555 1_555
C4B C1B 1_555 1_555
H3B C4B 1_555 1_555
H4B C5B 1_555 1_555
Cl1F Cu1 1_555 1_555
Cl1D Cu1 1_555 1_555
Cl1B Cu1 1_555 1_555
Cu1F Cl1D 1_555 1_555
C4 C5 1_555 1_555
C1B N1B 1_555 1_555
C5B C4B 1_555 1_555

#END
