
#######################################################################
#
#                 Cambridge Crystallographic Data Centre
#                                CCDC 
#
#######################################################################
#
# If this CIF has been generated from an entry in the Cambridge 
# Structural Database, then it will include bibliographic, chemical, 
# crystal, experimental, refinement or atomic coordinate data resulting 
# from the CCDC's data processing and validation procedures.
#
#######################################################################

data_GIDCEB
_symmetry_cell_setting           triclinic
_symmetry_space_group_name_H-M   'P -1'
_symmetry_Int_Tables_number      2
_space_group_name_Hall           '-P 1'
loop_
_symmetry_equiv_pos_site_id
_symmetry_equiv_pos_as_xyz
1 x,y,z
2 -x,-y,-z
_cell_length_a                   7.288(2)
_cell_length_b                   9.640(2)
_cell_length_c                   9.771(2)
_cell_angle_alpha                55.36(3)
_cell_angle_beta                 69.29(2)
_cell_angle_gamma                70.48(3)
_cell_volume                     520.331
loop_
_atom_site_label
_atom_site_type_symbol
_atom_site_fract_x
_atom_site_fract_y
_atom_site_fract_z
Cu1 Cu 0.75485(9) 0.06697(6) 0.93296(6)
Cl1 Cl 0.9541(2) -0.1934(1) 1.0210(1)
Cl2 Cl 0.5455(2) -0.0202(1) 1.1917(1)
N1 N 0.9056(5) 0.1643(4) 0.6872(4)
N2 N 0.6085(5) 0.3123(4) 0.8323(4)
C1 C 0.8379(6) 0.3288(5) 0.5819(5)
C2 C 0.9161(7) 0.4096(6) 0.4086(5)
C3 C 1.0643(8) 0.3198(7) 0.3424(6)
C4 C 1.1364(8) 0.1524(6) 0.4497(6)
C5 C 1.0549(8) 0.0781(5) 0.6210(5)
C6 C 0.4605(8) 0.3802(6) 0.9173(5)
C7 C 0.3773(8) 0.5514(6) 0.8388(6)
C8 C 0.4459(8) 0.6549(6) 0.6701(7)
C9 C 0.5951(7) 0.5859(6) 0.5803(6)
C10 C 0.6739(6) 0.4144(5) 0.6656(5)
H1 H 0.4113 0.3080 1.0353
H2 H 0.2728 0.5966 0.9021
H3 H 0.3915 0.7735 0.6144
H4 H 0.6433 0.6553 0.4614
H5 H 0.8669 0.5267 0.3366
H6 H 1.1167 0.3723 0.2231
H7 H 1.2421 0.0884 0.4059
H8 H 1.1054 -0.0378 0.6948
Cl1A Cl 1.0459(2) 0.1934(1) 0.9790(1)
Cl2A Cl 0.4545(2) 0.0202(1) 0.8083(1)
Cu1A Cu 1.24515(9) -0.06697(6) 1.06704(6)
Cu1A_2 Cu 0.24515(9) -0.06697(6) 1.06704(6)
Cl2_2 Cl 1.5455(2) -0.0202(1) 1.1917(1)
Cl2A_2 Cl 1.4545(2) 0.0202(1) 0.8083(1)
N1A N 1.0944(5) -0.1643(4) 1.3128(4)
N2A N 1.3915(5) -0.3123(4) 1.1677(4)
C1A C 1.1621(6) -0.3288(5) 1.4181(5)
C5A C 0.9451(8) -0.0781(5) 1.3790(5)
C6A C 1.5395(8) -0.3802(6) 1.0827(5)
C10A C 1.3261(6) -0.4144(5) 1.3344(5)
C2A C 1.0839(7) -0.4096(6) 1.5914(5)
C4A C 0.8636(8) -0.1524(6) 1.5503(6)
H8A H 0.8946 0.0378 1.3052
C7A C 1.6227(8) -0.5514(6) 1.1612(6)
H1A H 1.5887 -0.3080 0.9647
C9A C 1.4049(7) -0.5859(6) 1.4197(6)
C3A C 0.9357(8) -0.3198(7) 1.6576(6)
H5A H 1.1331 -0.5267 1.6634
H7A H 0.7579 -0.0884 1.5941
C8A C 1.5541(8) -0.6549(6) 1.3299(7)
H2A H 1.7272 -0.5966 1.0979
H4A H 1.3567 -0.6553 1.5386
H6A H 0.8833 -0.3723 1.7769
H3A H 1.6085 -0.7735 1.3856
loop_
_geom_bond_atom_site_label_1
_geom_bond_atom_site_label_2
_geom_bond_site_symmetry_1
_geom_bond_site_symmetry_2
Cu1 Cl1 1_555 1_555
Cl1 Cu1A 1_555 1_555
Cl2 Cu1 1_555 1_555
N1 Cu1 1_555 1_555
N2 Cu1 1_555 1_555
C1 N1 1_555 1_555
C2 C1 1_555 1_555
C3 C2 1_555 1_555
C4 C3 1_555 1_555
C5 N1 1_555 1_555
C6 N2 1_555 1_555
C7 C6 1_555 1_555
C8 C7 1_555 1_555
C9 C8 1_555 1_555
C10 N2 1_555 1_555
H1 C6 1_555 1_555
H2 C7 1_555 1_555
H3 C8 1_555 1_555
H4 C9 1_555 1_555
H5 C2 1_555 1_555
H6 C3 1_555 1_555
H7 C4 1_555 1_555
H8 C5 1_555 1_555
Cl1A Cu1 1_555 1_555
Cl2A Cu1 1_555 1_555
Cu1A Cl1A 1_555 1_555
Cu1A_2 Cl2 1_555 1_555
Cl2_2 Cu1A 1_555 1_555
Cl2A_2 Cu1A 1_555 1_555
N1A Cu1A 1_555 1_555
N2A Cu1A 1_555 1_555
C1A N1A 1_555 1_555
C5A N1A 1_555 1_555
C6A N2A 1_555 1_555
C10A N2A 1_555 1_555
C2A C1A 1_555 1_555
C4A C5A 1_555 1_555
H8A C5A 1_555 1_555
C7A C6A 1_555 1_555
H1A C6A 1_555 1_555
C9A C10A 1_555 1_555
C3A C2A 1_555 1_555
H5A C2A 1_555 1_555
H7A C4A 1_555 1_555
C8A C7A 1_555 1_555
H2A C7A 1_555 1_555
H4A C9A 1_555 1_555
H6A C3A 1_555 1_555
H3A C8A 1_555 1_555
C1 C10 1_555 1_555
C4 C5 1_555 1_555
C9 C10 1_555 1_555
Cl2A Cu1A_2 1_555 1_555
C1A C10A 1_555 1_555
C4A C3A 1_555 1_555
C9A C8A 1_555 1_555

#END
