
#######################################################################
#
#                 Cambridge Crystallographic Data Centre
#                                CCDC 
#
#######################################################################
#
# If this CIF has been generated from an entry in the Cambridge 
# Structural Database, then it will include bibliographic, chemical, 
# crystal, experimental, refinement or atomic coordinate data resulting 
# from the CCDC's data processing and validation procedures.
#
#######################################################################

data_GIDKOU
_symmetry_cell_setting           orthorhombic
_symmetry_space_group_name_H-M   'P b c a'
_symmetry_Int_Tables_number      61
_space_group_name_Hall           '-P 2ac 2ab'
loop_
_symmetry_equiv_pos_site_id
_symmetry_equiv_pos_as_xyz
1 x,y,z
2 1/2-x,-y,1/2+z
3 -x,1/2+y,1/2-z
4 1/2+x,1/2-y,-z
5 -x,-y,-z
6 1/2+x,y,1/2-z
7 x,1/2-y,1/2+z
8 1/2-x,1/2+y,z
_cell_length_a                   14.1613(8)
_cell_length_b                   15.6764(9)
_cell_length_c                   16.1345(9)
_cell_angle_alpha                90
_cell_angle_beta                 90
_cell_angle_gamma                90
_cell_volume                     3581.83
loop_
_atom_site_label
_atom_site_type_symbol
_atom_site_fract_x
_atom_site_fract_y
_atom_site_fract_z
Zn1 Zn 0.37958(3) 0.48519(2) 0.68771(2)
Zn2 Zn 0.35403(2) 0.43061(2) 0.27817(2)
Zn3 Zn 0.0000 0.5000 0.5000
C1 C 0.4752(4) 0.2378(3) 0.7805(3)
C2 C 0.4787(4) 0.3235(3) 0.7590(3)
C3 C 0.3455(4) 0.2733(4) 0.7225(3)
H1 H 0.2847 0.2699 0.7009
C4 C 0.5464(4) 0.1815(3) 0.8181(3)
C5 C 0.5556(4) 0.3871(3) 0.7664(3)
C6 C 0.2575(4) 0.5021(3) 0.5269(3)
C7 C 0.2491(4) 0.4882(3) 0.4423(3)
C8 C 0.3859(4) 0.4481(3) 0.4820(3)
H2 H 0.4470 0.4263 0.4808
C9 C 0.1929(3) 0.5374(3) 0.5923(3)
C10 C 0.1731(4) 0.5038(3) 0.3787(3)
C11 C -0.0664(8) 0.6895(7) 0.5297(7)
H3 H -0.0072 0.7018 0.5516
C12 C -0.1181(13) 0.8288(11) 0.5862(13)
H4 H -0.1417 0.8762 0.5548
H5 H -0.0515 0.8358 0.5952
H6 H -0.1500 0.8263 0.6387
C13 C -0.2232(7) 0.7376(6) 0.5066(8)
H7 H -0.2287 0.7713 0.4571
H8 H -0.2698 0.7557 0.5460
H9 H -0.2329 0.6786 0.4934
N1 N 0.3892(3) 0.2072(3) 0.7567(3)
N2 N 0.3956(3) 0.3445(3) 0.7216(3)
N3 N 0.3455(3) 0.4757(3) 0.5507(3)
N4 N 0.3318(3) 0.4539(3) 0.4144(3)
N5 N -0.1352(7) 0.7481(6) 0.5396(6)
O1 O 0.5261(3) 0.1049(2) 0.8261(3)
O2 O 0.6247(3) 0.2140(3) 0.8400(4)
H10 H 0.6553 0.1787 0.8662
O3 O 0.6319(3) 0.3655(3) 0.8019(4)
O4 O 0.5424(3) 0.4581(2) 0.7350(2)
O5 O 0.2311(3) 0.5463(3) 0.6625(2)
O6 O 0.1098(3) 0.5582(3) 0.5793(3)
O7 O 0.0973(3) 0.5387(3) 0.3963(3)
O8 O 0.1939(3) 0.4788(3) 0.3070(2)
O9 O -0.0756(6) 0.6270(5) 0.4970(5)
Zn1D Zn -0.37958(3) 0.51481(2) 0.31229(2)
Zn1B Zn 0.62042(3) -0.01481(2) 0.81229(2)
Zn1A Zn 0.12042(3) 0.51481(2) 0.18771(2)
Zn1E Zn -0.12042(3) 0.48519(2) 0.81229(2)
Zn1B_2 Zn 0.62042(3) 0.98519(2) 0.81229(2)
Zn2D Zn -0.35403(2) 0.56939(2) 0.72183(2)
Zn2F Zn 0.35403(2) 0.06939(2) 0.77817(2)
Zn2D_2 Zn 0.64597(2) 0.56939(2) 0.72183(2)
Zn2A Zn 0.14597(2) 0.56939(2) 0.77817(2)
Zn2E Zn -0.14597(2) 0.43061(2) 0.22183(2)
Zn2F_2 Zn 0.35403(2) 1.06939(2) 0.77817(2)
C1B C 0.5248(4) 0.7378(3) 0.7195(3)
C2B C 0.5213(4) 0.8235(3) 0.7410(3)
C3B C 0.6545(4) 0.7733(4) 0.7775(3)
H1B H 0.7153 0.7699 0.7991
C4B C 0.4536(4) 0.6815(3) 0.6819(3)
C5B C 0.4444(4) 0.8871(3) 0.7336(3)
C6D C -0.2575(4) 0.4979(3) 0.4731(3)
C7D C -0.2491(4) 0.5118(3) 0.5577(3)
C8D C -0.3859(4) 0.5519(3) 0.5180(3)
H2D H -0.4470 0.5737 0.5192
C9D C -0.1929(3) 0.4626(3) 0.4077(3)
C10D C -0.1731(4) 0.4962(3) 0.6213(3)
C11D C 0.0664(8) 0.3105(7) 0.4703(7)
H3D H 0.0072 0.2982 0.4484
C12D C 0.1181(13) 0.1712(11) 0.4138(13)
H4D H 0.1417 0.1238 0.4452
H5D H 0.0515 0.1642 0.4048
H6D H 0.1500 0.1737 0.3613
C13D C 0.2232(7) 0.2624(6) 0.4934(8)
H7D H 0.2287 0.2287 0.5429
H8D H 0.2698 0.2443 0.4540
H9D H 0.2329 0.3214 0.5066
N1B N 0.6108(3) 0.7072(3) 0.7433(3)
N1F N 0.3892(3) 0.2928(3) 0.2567(3)
N1B_2 N -0.3892(3) 0.7072(3) 0.7433(3)
N2B N 0.6044(3) 0.8445(3) 0.7784(3)
N2D N -0.3956(3) 0.6555(3) 0.2784(3)
N3D N -0.3455(3) 0.5243(3) 0.4493(3)
N4D N -0.3318(3) 0.5461(3) 0.5856(3)
N5D N 0.1352(7) 0.2519(6) 0.4604(6)
O1B O 0.4739(3) 0.6049(2) 0.6739(3)
O1F O -0.4739(3) 0.3951(2) 0.3261(3)
O2B O 0.3753(3) 0.7140(3) 0.6600(4)
H10B H 0.3447 0.6787 0.6338
O3B O 0.3681(3) 0.8655(3) 0.6981(4)
O4B O 0.4576(3) 0.9581(2) 0.7650(2)
O4D O 0.4576(3) 0.5419(2) 0.2650(2)
O4D_2 O -0.5424(3) 0.5419(2) 0.2650(2)
O4_2 O -0.4576(3) 0.4581(2) 0.7350(2)
O5D O -0.2311(3) 0.4537(3) 0.3375(2)
O5A O 0.2689(3) 0.4537(3) 0.1625(2)
O5E O -0.2689(3) 0.5463(3) 0.8375(2)
O6D O -0.1098(3) 0.4418(3) 0.4207(3)
O7D O -0.0973(3) 0.4613(3) 0.6037(3)
O8D O -0.1939(3) 0.5212(3) 0.6930(2)
O8A O 0.3061(3) 0.5212(3) 0.8070(2)
O8E O -0.3061(3) 0.4788(3) 0.1930(2)
O9D O 0.0756(6) 0.3730(5) 0.5030(5)
loop_
_geom_bond_atom_site_label_1
_geom_bond_atom_site_label_2
_geom_bond_site_symmetry_1
_geom_bond_site_symmetry_2
Zn1 N2 1_555 1_555
Zn2 N4 1_555 1_555
Zn3 O6 1_555 1_555
C1 C2 1_555 1_555
C2 C5 1_555 1_555
C3 H1 1_555 1_555
C4 C1 1_555 1_555
C5 O3 1_555 1_555
C6 C7 1_555 1_555
C7 C10 1_555 1_555
C8 H2 1_555 1_555
C9 C6 1_555 1_555
C10 O7 1_555 1_555
C11 H3 1_555 1_555
C12 H4 1_555 1_555
H5 C12 1_555 1_555
H6 C12 1_555 1_555
C13 H7 1_555 1_555
H8 C13 1_555 1_555
H9 C13 1_555 1_555
N1 C1 1_555 1_555
N2 C2 1_555 1_555
N3 Zn1 1_555 1_555
N4 C7 1_555 1_555
N5 C11 1_555 1_555
O1 C4 1_555 1_555
O2 C4 1_555 1_555
H10 O2 1_555 1_555
O4 Zn1 1_555 1_555
O5 Zn1 1_555 1_555
O6 C9 1_555 1_555
O7 Zn3 1_555 1_555
O8 Zn2 1_555 1_555
O9 Zn3 1_555 1_555
Zn1D N2D 1_555 1_555
Zn1B O1 1_555 1_555
Zn1A O8 1_555 1_555
Zn1E O5E 1_555 1_555
Zn1B_2 N2B 1_555 1_555
Zn2D N1B_2 1_555 1_555
Zn2F N1 1_555 1_555
Zn2D_2 O4 1_555 1_555
Zn2A O5 1_555 1_555
Zn2E O5D 1_555 1_555
Zn2F_2 O4B 1_555 1_555
C1B C2B 1_555 1_555
C2B C5B 1_555 1_555
C3B H1B 1_555 1_555
C4B C1B 1_555 1_555
C5B O3B 1_555 1_555
C6D C7D 1_555 1_555
C7D C10D 1_555 1_555
C8D H2D 1_555 1_555
C9D C6D 1_555 1_555
C10D O7D 1_555 1_555
C11D H3D 1_555 1_555
C12D H4D 1_555 1_555
H5D C12D 1_555 1_555
H6D C12D 1_555 1_555
C13D H7D 1_555 1_555
H8D C13D 1_555 1_555
H9D C13D 1_555 1_555
N1B Zn2D_2 1_555 1_555
N1F Zn2 1_555 1_555
N2B C2B 1_555 1_555
N3D Zn1D 1_555 1_555
N4D Zn2D 1_555 1_555
N5D C11D 1_555 1_555
O1B Zn1 1_555 1_555
O1F Zn1D 1_555 1_555
O2B C4B 1_555 1_555
H10B O2B 1_555 1_555
O4B Zn1B_2 1_555 1_555
O4D Zn2 1_555 1_555
O4D_2 Zn1D 1_555 1_555
O4_2 Zn2D 1_555 1_555
O5D Zn1D 1_555 1_555
O5A Zn2 1_555 1_555
O5E Zn2D 1_555 1_555
O6D Zn3 1_555 1_555
O7D Zn3 1_555 1_555
O8D Zn1E 1_555 1_555
O8A Zn1 1_555 1_555
O8E Zn1D 1_555 1_555
O9D Zn3 1_555 1_555
C3 N1 1_555 1_555
C3 N2 1_555 1_555
C5 O4 1_555 1_555
C6 N3 1_555 1_555
C8 N3 1_555 1_555
C8 N4 1_555 1_555
C9 O5 1_555 1_555
C10 O8 1_555 1_555
C11 O9 1_555 1_555
C12 N5 1_555 1_555
C13 N5 1_555 1_555
Zn1A O5A 1_555 1_555
Zn2D O8D 1_555 1_555
Zn2A O8A 1_555 1_555
Zn2E O8E 1_555 1_555
C1B N1B 1_555 1_555
C3B N1B 1_555 1_555
C3B N2B 1_555 1_555
C4B O1B 1_555 1_555
C5B O4B 1_555 1_555
C6D N3D 1_555 1_555
C7D N4D 1_555 1_555
C8D N3D 1_555 1_555
C8D N4D 1_555 1_555
C9D O5D 1_555 1_555
C9D O6D 1_555 1_555
C10D O8D 1_555 1_555
C11D O9D 1_555 1_555
C12D N5D 1_555 1_555
C13D N5D 1_555 1_555

#END
