
#######################################################################
#
#                 Cambridge Crystallographic Data Centre
#                                CCDC 
#
#######################################################################
#
# If this CIF has been generated from an entry in the Cambridge 
# Structural Database, then it will include bibliographic, chemical, 
# crystal, experimental, refinement or atomic coordinate data resulting 
# from the CCDC's data processing and validation procedures.
#
#######################################################################

data_GIDLOV
_symmetry_cell_setting           orthorhombic
_symmetry_space_group_name_H-M   'P c a 21'
_symmetry_Int_Tables_number      29
_space_group_name_Hall           'P 2c -2ac'
loop_
_symmetry_equiv_pos_site_id
_symmetry_equiv_pos_as_xyz
1 x,y,z
2 -x,-y,1/2+z
3 1/2+x,-y,z
4 1/2-x,y,1/2+z
_cell_length_a                   16.5938(7)
_cell_length_b                   15.1034(6)
_cell_length_c                   18.0112(4)
_cell_angle_alpha                90
_cell_angle_beta                 90
_cell_angle_gamma                90
_cell_volume                     4514.02
loop_
_atom_site_label
_atom_site_type_symbol
_atom_site_fract_x
_atom_site_fract_y
_atom_site_fract_z
U1 U 0.83229(2) 0.32499(2) -0.00121(2)
U2 U 0.64106(2) 0.17746(2) 0.00384(2)
O1 O 0.8243(6) 0.2997(6) -0.0984(5)
O2 O 0.8404(5) 0.3564(7) 0.0934(5)
O3 O 0.6501(6) 0.1907(6) -0.0959(5)
O4 O 0.6306(6) 0.1575(6) 0.0998(5)
O5 O 0.7811(4) 0.1802(4) 0.0217(4)
O6 O 0.9342(5) 0.2210(5) 0.0107(8)
O7 O 0.9777(6) 0.0859(6) 0.0396(6)
O8 O 0.6825(5) 0.0308(5) -0.0141(6)
O9 O 0.7523(6) -0.0897(6) -0.0414(6)
O10 O 0.8699(6) 0.1820(7) 0.1758(6)
H1 H 0.8552 0.2220 0.2034
O11 O 0.7582(7) 0.1149(7) 0.2166(6)
O12 O 0.6909(5) 0.3238(4) 0.0155(4)
O13 O 0.5375(4) 0.2822(5) 0.0048(7)
O14 O 0.4916(5) 0.4193(6) 0.0296(6)
O15 O 0.7894(5) 0.4692(5) -0.0314(6)
O16 O 0.7227(5) 0.5902(6) -0.0580(5)
O17 O 0.7077(6) 0.4006(7) 0.2094(5)
H2 H 0.7387 0.3501 0.2094
O18 O 0.5957(6) 0.3345(6) 0.1665(5)
O19 O 0.9544(5) 0.4115(5) -0.0238(5)
H3 H 0.9534 0.4664 -0.0049
H4 H 1.0016 0.3901 -0.0164
O20 O 0.5189(5) 0.0877(5) -0.0137(5)
H5 H 0.4727 0.1066 0.0067
H6 H 0.5222 0.0353 0.0025
C1 C 0.8355(8) 0.1073(8) 0.0316(8)
C2 C 0.9238(9) 0.1392(9) 0.0303(7)
C3 C 0.8250(7) 0.0435(9) -0.0340(8)
H13 H 0.8243 0.0774 -0.0797
H14 H 0.8711 0.0040 -0.0358
C4 C 0.7513(7) -0.0096(8) -0.0297(7)
C5 C 0.8207(9) 0.0602(8) 0.1061(8)
H15 H 0.7714 0.0260 0.1024
H16 H 0.8645 0.0192 0.1151
C6 C 0.8140(8) 0.1222(8) 0.1714(7)
C7 C 0.6372(7) 0.3978(8) 0.0228(6)
C8 C 0.5477(7) 0.3635(8) 0.0218(7)
C9 C 0.6431(9) 0.4560(10) -0.0481(8)
H17 H 0.5977 0.4963 -0.0503
H18 H 0.6418 0.4187 -0.0919
C10 C 0.7255(8) 0.5109(9) -0.0461(7)
C11 C 0.6516(8) 0.4497(8) 0.0930(7)
H19 H 0.6091 0.4931 0.0989
H20 H 0.7023 0.4813 0.0888
C12 C 0.6542(6) 0.3908(7) 0.1615(6)
Cu1 Cu 0.76270(8) 0.75044(8) 0.75024(13)
O21 O 0.7649(6) 0.7423(6) 0.6245(6)
H7 H 0.7327 0.7172 0.5859
H8 H 0.8093 0.7571 0.6019
O22 O 0.7594(5) 0.7539(5) 0.8801(7)
H9 H 0.7273 0.7876 0.9039
H10 H 0.7842 0.7234 0.9105
N1 N 0.8486(8) 0.8458(9) 0.7555(8)
N2 N 0.8534(6) 0.6569(7) 0.7519(6)
N3 N 1.1785(6) 0.3458(7) 0.7573(6)
N4 N 1.1705(7) 1.1550(8) 0.7460(7)
C13 C 0.8532(8) 0.9114(9) 0.7046(9)
H21 H 0.8134 0.9123 0.6682
C14 C 0.9089(10) 0.9750(10) 0.7010(9)
H22 H 0.9055 1.0196 0.6655
C15 C 0.9729(8) 0.9731(8) 0.7523(8)
C16 C 0.9695(10) 0.9073(10) 0.8058(8)
H23 H 1.0090 0.9041 0.8424
C17 C 0.9072(9) 0.8462(11) 0.8049(8)
H24 H 0.9067 0.8027 0.8415
C18 C 0.9150(9) 0.6635(9) 0.7026(8)
H25 H 0.9138 0.7077 0.6667
C19 C 0.9805(8) 0.6048(10) 0.7050(7)
H26 H 1.0221 0.6110 0.6708
C20 C 0.9843(7) 0.5377(7) 0.7573(7)
C21 C 0.9209(8) 0.5349(9) 0.8084(8)
H27 H 0.9208 0.4924 0.8457
C22 C 0.8600(8) 0.5938(8) 0.8037(8)
H28 H 0.8194 0.5903 0.8392
C23 C 1.1806(7) 0.4190(8) 0.7146(7)
H29 H 1.2250 0.4271 0.6838
C24 C 1.1197(9) 0.4839(9) 0.7138(8)
H30 H 1.1257 0.5340 0.6842
C25 C 1.0508(6) 0.4737(7) 0.7569(6)
C26 C 1.0486(7) 0.3969(9) 0.8019(7)
H31 H 1.0051 0.3865 0.8334
C27 C 1.1109(9) 0.3383(9) 0.7986(8)
H32 H 1.1065 0.2879 0.8280
C28 C 1.1075(8) 1.1655(8) 0.7013(7)
H33 H 1.1075 1.2125 0.6679
C29 C 1.0418(7) 1.1087(8) 0.7028(7)
H34 H 0.9978 1.1192 0.6720
C30 C 1.0418(8) 1.0383(8) 0.7488(8)
C31 C 1.1096(10) 1.0285(11) 0.7948(9)
H35 H 1.1106 0.9826 0.8292
C32 C 1.1732(8) 1.0837(10) 0.7905(8)
H36 H 1.2191 1.0724 0.8184
Cu1B Cu 1.26270(8) 0.24956(8) 0.75024(13)
Cu1B_2 Cu 1.26270(8) 1.24956(8) 0.75024(13)
N3B N 0.6785(6) 0.6542(7) 0.7573(6)
N4B N 0.6705(7) 0.8450(8) 0.7460(7)
O23 O 0.8330(8) 0.3049(8) 0.2792(7)
O24 O 0.6533(5) 0.6575(6) 0.5350(5)
H11 H 0.6680 0.6209 0.5002
H12 H 0.6053 0.6429 0.5391
O25 O 0.3858(6) 0.1675(5) 0.0185(6)
O26 O 1.1227(6) 0.1664(6) 0.0354(5)
O27 O 0.5888(6) 0.6648(7) 0.0055(11)
loop_
_geom_bond_atom_site_label_1
_geom_bond_atom_site_label_2
_geom_bond_site_symmetry_1
_geom_bond_site_symmetry_2
U1 O1 1_555 1_555
U2 O3 1_555 1_555
Cu1 O21 1_555 1_555
O2 U1 1_555 1_555
O4 U2 1_555 1_555
O5 U1 1_555 1_555
O6 U1 1_555 1_555
O7 C2 1_555 1_555
O8 U2 1_555 1_555
O9 C4 1_555 1_555
O10 H1 1_555 1_555
O11 C6 1_555 1_555
O12 U1 1_555 1_555
O13 U2 1_555 1_555
O14 C8 1_555 1_555
O15 U1 1_555 1_555
O16 C10 1_555 1_555
O17 H2 1_555 1_555
O18 C12 1_555 1_555
O19 U1 1_555 1_555
H3 O19 1_555 1_555
H4 O19 1_555 1_555
O20 U2 1_555 1_555
H5 O20 1_555 1_555
H6 O20 1_555 1_555
O21 H7 1_555 1_555
H8 O21 1_555 1_555
O22 Cu1 1_555 1_555
H9 O22 1_555 1_555
H10 O22 1_555 1_555
O24 H11 1_555 1_555
H12 O24 1_555 1_555
N1 Cu1 1_555 1_555
N2 Cu1 1_555 1_555
N3 C23 1_555 1_555
N4 C28 1_555 1_555
C1 O5 1_555 1_555
C2 O6 1_555 1_555
C3 C1 1_555 1_555
H13 C3 1_555 1_555
H14 C3 1_555 1_555
C4 O8 1_555 1_555
C5 C1 1_555 1_555
H15 C5 1_555 1_555
H16 C5 1_555 1_555
C6 O10 1_555 1_555
C7 O12 1_555 1_555
C8 O13 1_555 1_555
C9 C7 1_555 1_555
H17 C9 1_555 1_555
H18 C9 1_555 1_555
C10 O15 1_555 1_555
C11 C7 1_555 1_555
H19 C11 1_555 1_555
H20 C11 1_555 1_555
C12 O17 1_555 1_555
C13 N1 1_555 1_555
H21 C13 1_555 1_555
C14 C13 1_555 1_555
H22 C14 1_555 1_555
C15 C14 1_555 1_555
C16 C15 1_555 1_555
H23 C16 1_555 1_555
C17 N1 1_555 1_555
H24 C17 1_555 1_555
C18 N2 1_555 1_555
H25 C18 1_555 1_555
C19 C18 1_555 1_555
H26 C19 1_555 1_555
C20 C19 1_555 1_555
C21 C20 1_555 1_555
H27 C21 1_555 1_555
C22 N2 1_555 1_555
H28 C22 1_555 1_555
C23 H29 1_555 1_555
C24 C23 1_555 1_555
H30 C24 1_555 1_555
C25 C20 1_555 1_555
C26 C25 1_555 1_555
H31 C26 1_555 1_555
C27 N3 1_555 1_555
H32 C27 1_555 1_555
C28 H33 1_555 1_555
C29 C28 1_555 1_555
H34 C29 1_555 1_555
C30 C15 1_555 1_555
C31 C30 1_555 1_555
H35 C31 1_555 1_555
C32 N4 1_555 1_555
H36 C32 1_555 1_555
Cu1B N3 1_555 1_555
Cu1B_2 N4 1_555 1_555
N3B Cu1 1_555 1_555
N4B Cu1 1_555 1_555
U2 O5 1_555 1_555
U2 O12 1_555 1_555
C1 C2 1_555 1_555
C3 C4 1_555 1_555
C5 C6 1_555 1_555
C7 C8 1_555 1_555
C9 C10 1_555 1_555
C11 C12 1_555 1_555
C16 C17 1_555 1_555
C21 C22 1_555 1_555
C24 C25 1_555 1_555
C26 C27 1_555 1_555
C29 C30 1_555 1_555
C31 C32 1_555 1_555

#END
