
#######################################################################
#
#                 Cambridge Crystallographic Data Centre
#                                CCDC 
#
#######################################################################
#
# If this CIF has been generated from an entry in the Cambridge 
# Structural Database, then it will include bibliographic, chemical, 
# crystal, experimental, refinement or atomic coordinate data resulting 
# from the CCDC's data processing and validation procedures.
#
#######################################################################

data_GIDNAJ
_symmetry_cell_setting           triclinic
_symmetry_space_group_name_H-M   'P -1'
_symmetry_Int_Tables_number      2
_space_group_name_Hall           '-P 1'
loop_
_symmetry_equiv_pos_site_id
_symmetry_equiv_pos_as_xyz
1 x,y,z
2 -x,-y,-z
_cell_length_a                   10.497(3)
_cell_length_b                   14.594(4)
_cell_length_c                   19.106(5)
_cell_angle_alpha                89.927(8)
_cell_angle_beta                 83.212(7)
_cell_angle_gamma                73.564(4)
_cell_volume                     2786.04
loop_
_atom_site_label
_atom_site_type_symbol
_atom_site_fract_x
_atom_site_fract_y
_atom_site_fract_z
Zn1 Zn 0.58194(5) 0.63865(4) -0.15078(3)
Zn2 Zn 0.64107(5) 0.86196(4) -0.11579(3)
Zn3 Zn 0.07910(5) 0.62742(4) 0.34419(3)
Zn4 Zn 0.15273(6) 0.84026(4) 0.38631(3)
O1 O 0.5627(3) 0.8098(3) -0.03291(16)
O2 O 0.4462(3) 0.7253(3) -0.08275(15)
O3 O 0.1322(3) 0.6724(3) 0.25222(16)
O4 O 0.7206(4) 0.8009(3) -0.20741(16)
O5 O 0.7276(4) 0.9539(3) -0.08244(19)
O6 O 0.2323(4) 0.7712(3) 0.29517(17)
O7 O 0.9440(4) 0.6954(3) -0.58075(17)
O8 O 0.9934(4) 0.8281(3) -0.55111(18)
O9 O 0.6185(3) 0.6964(3) -0.24221(16)
O10 O 0.7581(3) 0.6049(3) -0.12010(17)
O11 O 0.8734(5) 0.8152(3) -0.0751(2)
O12 O 0.2369(4) 0.5561(3) 0.3849(2)
O13 O 0.2547(4) 0.8915(3) 0.44384(19)
O14 O 0.2460(5) 0.6929(3) 0.4319(2)
O15 O 0.3480(5) 0.9431(4) 0.3478(2)
O16 O 0.6521(4) 0.5403(3) -0.03560(18)
N1 N 0.4993(4) 0.5389(3) -0.17935(19)
N2 N 0.4788(4) -0.0375(3) -0.1491(2)
N3 N -0.0109(4) 0.5286(3) 0.3185(2)
N4 N 0.0262(4) -0.0489(3) 0.3330(2)
C1 C 0.4406(7) 0.9309(5) 0.5236(3)
H1 H 0.4016 0.8838 0.5399
C2 C 1.0374(5) 0.9013(4) -0.0045(3)
H2 H 1.0626 0.8349 -0.0072
C3 C 0.4823(7) 1.0357(5) 0.4345(3)
H3 H 0.4713 1.0598 0.3898
C4 C 0.8869(5) 1.0511(4) -0.0275(3)
H4 H 0.8103 1.0861 -0.0459
C5 C 0.4769(5) 0.7632(3) -0.0298(2)
C6 C 0.4243(5) 0.8043(3) 0.0992(2)
H5 H 0.4786 0.8449 0.0935
C7 C 0.3591(4) 0.7952(3) 0.1650(2)
H6 H 0.3695 0.8298 0.2037
C8 C 0.7533(5) 0.5592(4) -0.0629(2)
C9 C 0.6942(5) 0.7495(4) -0.2530(2)
C10 C 0.2083(5) 0.7254(4) 0.2456(2)
C11 C 0.9231(5) 0.9535(4) -0.0325(2)
C12 C 0.9091(5) 0.4480(4) 0.0095(3)
H7 H 0.8473 0.4130 0.0161
C13 C 0.3285(5) 0.6915(4) 0.0503(2)
H8 H 0.3189 0.6560 0.0118
C14 C 0.2782(5) 0.7342(4) 0.1734(2)
C15 C 0.8826(5) 0.5284(4) -0.0305(2)
C16 C 0.8383(5) 0.9019(4) -0.0657(3)
C17 C 0.8750(6) 0.8269(4) -0.4148(2)
H9 H 0.9132 0.8756 -0.4277
C18 C 0.9432(5) 0.7614(4) -0.5376(2)
C19 C 0.8176(6) 0.8236(4) -0.3459(2)
H10 H 0.8197 0.8691 -0.3123
C20 C 0.8754(5) 0.7583(4) -0.4640(2)
C21 C 0.3715(5) 0.4303(4) -0.1453(3)
H11 H 0.3249 0.4055 -0.1093
C22 C 0.2622(5) 0.6829(4) 0.1168(2)
H12 H 0.2076 0.6425 0.1226
C23 C 0.5087(6) 0.5072(4) -0.2455(3)
H13 H 0.5549 0.5336 -0.2808
C24 C 0.4079(4) 0.7523(3) 0.0415(2)
C25 C 0.7578(5) 0.7536(4) -0.3272(2)
C26 C 0.4834(6) -0.0048(4) -0.2145(3)
H14 H 0.5551 -0.0357 -0.2476
C27 C 0.3972(5) 0.5500(4) 0.4626(3)
C28 C 0.2854(6) 0.6050(5) 0.4236(3)
C29 C 0.3386(6) 0.9306(4) 0.4121(3)
C30 C 0.3797(5) 0.3976(4) -0.2136(3)
C31 C 0.4308(5) 0.4985(4) -0.1295(3)
H15 H 0.4240 0.5183 -0.0826
C32 C 0.3859(6) 0.0734(4) -0.2355(3)
H16 H 0.3938 0.0932 -0.2817
C33 C 0.4364(6) 0.4521(5) 0.4615(3)
H17 H 0.3941 0.4188 0.4350
C34 C 0.9726(5) 0.5811(4) -0.0399(3)
H18 H 0.9545 0.6358 -0.0663
C35 C 0.0721(7) -0.0221(5) 0.2702(3)
H19 H 0.1612 -0.0501 0.2527
C36 C 0.4213(5) 0.9668(4) 0.4580(3)
C37 C 0.2729(6) 0.0866(5) -0.1213(3)
H20 H 0.2009 0.1159 -0.0880
C38 C 0.4529(6) 0.4367(4) -0.2645(3)
H21 H 0.4645 0.4155 -0.3113
C39 C 0.2799(6) 0.1208(4) -0.1891(3)
C40 C 0.1772(6) 0.2091(4) -0.2081(4)
H22 H 0.0897 0.2096 -0.1849
H23 H 0.1740 0.2082 -0.2587
C41 C 0.4618(6) 0.5989(4) 0.5009(3)
H24 H 0.4376 0.6654 0.5017
C42 C -0.1011(7) -0.0048(5) 0.3551(4)
H25 H -0.1363 -0.0201 0.3990
C43 C -0.1044(7) 0.5061(5) 0.3664(3)
H26 H -0.1307 0.5408 0.4090
C44 C -0.1604(7) 0.4347(5) 0.3540(3)
H27 H -0.2252 0.4233 0.3877
C45 C -0.1855(6) 0.0625(5) 0.3176(4)
H28 H -0.2745 0.0894 0.3358
C46 C -0.0049(7) 0.0443(5) 0.2307(3)
H29 H 0.0328 0.0595 0.1874
C47 C -0.2219(8) 0.1681(5) 0.2137(4)
H30 H -0.3137 0.1855 0.2362
H31 H -0.2209 0.1454 0.1659
C48 C -0.1696(7) 0.2566(4) 0.2118(3)
H32 H -0.0764 0.2387 0.1916
H33 H -0.2203 0.3040 0.1823
C49 C 0.3723(6) 0.0095(4) -0.1035(3)
H34 H 0.3657 -0.0114 -0.0575
C50 C 0.8201(6) 0.6863(5) -0.4448(3)
H35 H 0.8230 0.6385 -0.4776
C51 C -0.1828(7) 0.2979(5) 0.2842(3)
H36 H -0.1417 0.2470 0.3141
H37 H -0.2774 0.3200 0.3017
C52 C 0.2106(6) 0.3000(4) -0.1860(4)
H38 H 0.1322 0.3545 -0.1865
H39 H 0.2334 0.2941 -0.1381
C53 C -0.0296(6) 0.4024(4) 0.2442(3)
H40 H -0.0026 0.3686 0.2012
C54 C 0.7592(6) 0.6844(4) -0.3758(3)
H41 H 0.7197 0.6363 -0.3630
C55 C -0.1371(7) 0.0890(4) 0.2536(3)
C56 C -0.1229(6) 0.3796(4) 0.2930(3)
C57 C 0.3263(6) 0.3176(4) -0.2344(3)
H42 H 0.3995 0.2590 -0.2385
H43 H 0.2981 0.3300 -0.2809
C58 C 0.0234(6) 0.4756(4) 0.2592(3)
H44 H 0.0873 0.4884 0.2257
Zn1A Zn 1.41806(5) 0.36135(4) 0.15078(3)
Zn1_2 Zn 0.58194(5) 1.63865(4) -0.15078(3)
Zn1_3 Zn -0.41806(5) 0.63865(4) 0.84922(3)
Zn2_2 Zn 0.64107(5) -0.13804(4) -0.11579(3)
Zn2A Zn 1.35893(5) 1.13804(4) 0.11579(3)
Zn2_3 Zn -0.35893(5) 0.86196(4) 0.88421(3)
Zn2A_2 Zn 1.35893(5) 0.13804(4) 0.11579(3)
Zn3_2 Zn 1.07910(5) 0.62742(4) -0.65581(3)
Zn3A Zn 0.92090(5) 0.37258(4) 0.65581(3)
Zn3_3 Zn 0.07910(5) 1.62742(4) 0.34419(3)
Zn3A_2 Zn 1.92090(5) 0.37258(4) -0.34419(3)
Zn4_2 Zn 1.15273(6) 0.84026(4) -0.61369(3)
Zn4_3 Zn 0.15273(6) -0.15974(4) 0.38631(3)
Zn4A Zn 0.84727(6) 1.15974(4) 0.61369(3)
Zn4A_2 Zn 1.84727(6) 0.15974(4) -0.38631(3)
O1A O 1.4373(3) 0.1902(3) 0.03291(16)
O1_2 O 0.5627(3) -0.1902(3) -0.03291(16)
O2A O 1.5538(3) 0.2747(3) 0.08275(15)
O3A O 1.8678(3) 0.3276(3) -0.25222(16)
O3_2 O 1.1322(3) 0.6724(3) -0.74778(16)
O4_2 O -0.2794(4) 0.8009(3) 0.79259(16)
O4_3 O 0.7206(4) -0.1991(3) -0.20741(16)
O5A O 1.2724(4) 1.0461(3) 0.08244(19)
O5_2 O 0.7276(4) -0.0461(3) -0.08244(19)
O6A O 1.7677(4) 0.2288(3) -0.29517(17)
O6_2 O 1.2323(4) 0.7712(3) -0.70483(17)
O7_2 O -0.0560(4) 0.6954(3) 0.41925(17)
O8_2 O -0.0066(4) 0.8281(3) 0.44889(18)
O9_2 O -0.3815(3) 0.6964(3) 0.75779(16)
O9A O 1.3815(3) 0.3036(3) 0.24221(16)
O10A O 1.2419(3) 0.3951(3) 0.12010(17)
O11A O 1.1266(5) 1.1848(3) 0.0751(2)
O12A O 0.7631(4) 0.4439(3) 0.6151(2)
O12_2 O 1.2369(4) 0.5561(3) -0.6151(2)
O13A O 0.7453(4) 1.1085(3) 0.55616(19)
O13_2 O 1.2547(4) 0.8915(3) -0.55616(19)
O14A O 0.7540(5) 0.3071(3) 0.5681(2)
O15A O 0.6520(5) 1.0569(4) 0.6522(2)
O16A O 1.3479(4) 0.4597(3) 0.03560(18)
N1_2 N 0.4993(4) 1.5389(3) -0.17935(19)
N1A N 1.5007(4) 0.4611(3) 0.17935(19)
N2_2 N 0.4788(4) 0.9625(3) -0.1491(2)
N3_2 N -0.0109(4) 1.5286(3) 0.3185(2)
N3_3 N 0.9891(4) 0.5286(3) -0.6815(2)
N4_2 N 0.0262(4) 0.9511(3) 0.3330(2)
N4_3 N 1.0262(4) 0.9511(3) -0.6670(2)
C1A C 0.5594(7) 1.0691(5) 0.4764(3)
H1A H 0.5984 1.1162 0.4601
C2A C 0.9626(5) 1.0987(4) 0.0045(3)
H2A H 0.9374 1.1651 0.0072
C3A C 0.5177(7) 0.9643(5) 0.5655(3)
H3A H 0.5287 0.9402 0.6102
C4A C 1.1131(5) 0.9489(4) 0.0275(3)
H4A H 1.1897 0.9139 0.0459
C5A C 1.5231(5) 0.2368(3) 0.0298(2)
C6A C 1.5757(5) 0.1957(3) -0.0992(2)
H5A H 1.5214 0.1551 -0.0935
C7A C 1.6409(4) 0.2048(3) -0.1650(2)
H6A H 1.6305 0.1702 -0.2037
C8A C 1.2467(5) 0.4408(4) 0.0629(2)
C9_2 C -0.3058(5) 0.7495(4) 0.7470(2)
C10A C 1.7917(5) 0.2746(4) -0.2456(2)
C11A C 1.0769(5) 1.0465(4) 0.0325(2)
C12A C 1.0909(5) 0.5520(4) -0.0095(3)
H7A H 1.1527 0.5870 -0.0161
C13A C 1.6715(5) 0.3085(4) -0.0503(2)
H8A H 1.6811 0.3440 -0.0118
C14A C 1.7218(5) 0.2658(4) -0.1734(2)
C15A C 1.1174(5) 0.4716(4) 0.0305(2)
C16A C 1.1617(5) 1.0981(4) 0.0657(3)
C17_2 C -0.1250(6) 0.8269(4) 0.5852(2)
H9_2 H -0.0868 0.8756 0.5723
C18_2 C -0.0568(5) 0.7614(4) 0.4624(2)
C19_2 C -0.1824(6) 0.8236(4) 0.6541(2)
H10_2 H -0.1803 0.8691 0.6877
C20_2 C -0.1246(5) 0.7583(4) 0.5360(2)
C21_2 C 0.3715(5) 1.4303(4) -0.1453(3)
H11_2 H 0.3249 1.4055 -0.1093
C22A C 1.7378(5) 0.3171(4) -0.1168(2)
H12A H 1.7924 0.3575 -0.1226
C23_2 C 0.5087(6) 1.5072(4) -0.2455(3)
H13_2 H 0.5549 1.5336 -0.2808
C24A C 1.5921(4) 0.2477(3) -0.0415(2)
C25_2 C -0.2422(5) 0.7536(4) 0.6728(2)
C26_2 C 0.4834(6) 0.9952(4) -0.2145(3)
H14_2 H 0.5551 0.9643 -0.2476
C27A C 0.6028(5) 0.4500(4) 0.5374(3)
C28A C 0.7146(6) 0.3950(5) 0.5764(3)
C29A C 0.6614(6) 1.0694(4) 0.5879(3)
C30_2 C 0.3797(5) 1.3976(4) -0.2136(3)
C31_2 C 0.4308(5) 1.4985(4) -0.1295(3)
H15_2 H 0.4240 1.5183 -0.0826
C32_2 C 0.3859(6) 1.0734(4) -0.2355(3)
H16_2 H 0.3938 1.0932 -0.2817
C33A C 0.5636(6) 0.5479(5) 0.5385(3)
H17A H 0.6059 0.5812 0.5650
C34A C 1.0274(5) 0.4189(4) 0.0399(3)
H18A H 1.0455 0.3642 0.0663
C35_2 C 0.0721(7) 0.9779(5) 0.2702(3)
H19_2 H 0.1612 0.9499 0.2527
C36A C 0.5787(5) 1.0332(4) 0.5420(3)
C37_2 C 0.2729(6) 1.0866(5) -0.1213(3)
H20_2 H 0.2009 1.1159 -0.0880
C38_2 C 0.4529(6) 1.4367(4) -0.2645(3)
H21_2 H 0.4645 1.4155 -0.3113
C39_2 C 0.2799(6) 1.1208(4) -0.1891(3)
C40_2 C 0.1772(6) 1.2091(4) -0.2081(4)
H22_2 H 0.0897 1.2096 -0.1849
H23_2 H 0.1740 1.2082 -0.2587
C41A C 0.5382(6) 0.4011(4) 0.4991(3)
H24A H 0.5624 0.3346 0.4983
C42_2 C -0.1011(7) 0.9952(5) 0.3551(4)
H25_2 H -0.1363 0.9799 0.3990
C43_2 C -0.1044(7) 1.5061(5) 0.3664(3)
H26_2 H -0.1307 1.5408 0.4090
C44_2 C -0.1604(7) 1.4347(5) 0.3540(3)
H27_2 H -0.2252 1.4233 0.3877
C45_2 C -0.1855(6) 1.0625(5) 0.3176(4)
H28_2 H -0.2745 1.0894 0.3358
C46_2 C -0.0049(7) 1.0443(5) 0.2307(3)
H29_2 H 0.0328 1.0595 0.1874
C47_2 C -0.2219(8) 1.1681(5) 0.2137(4)
H30_2 H -0.3137 1.1855 0.2362
H31_2 H -0.2209 1.1454 0.1659
C48_2 C -0.1696(7) 1.2566(4) 0.2118(3)
H32_2 H -0.0764 1.2387 0.1916
H33_2 H -0.2203 1.3040 0.1823
C49_2 C 0.3723(6) 1.0095(4) -0.1035(3)
H34_2 H 0.3657 0.9886 -0.0575
C50_2 C -0.1799(6) 0.6863(5) 0.5552(3)
H35_2 H -0.1770 0.6385 0.5224
C51_2 C -0.1828(7) 1.2979(5) 0.2842(3)
H36_2 H -0.1417 1.2470 0.3141
H37_2 H -0.2774 1.3200 0.3017
C52_2 C 0.2106(6) 1.3000(4) -0.1860(4)
H38_2 H 0.1322 1.3545 -0.1865
H39_2 H 0.2334 1.2941 -0.1381
C53_2 C -0.0296(6) 1.4024(4) 0.2442(3)
H40_2 H -0.0026 1.3686 0.2012
C54_2 C -0.2408(6) 0.6844(4) 0.6242(3)
H41_2 H -0.2803 0.6363 0.6370
C55_2 C -0.1371(7) 1.0890(4) 0.2536(3)
C56_2 C -0.1229(6) 1.3796(4) 0.2930(3)
C57_2 C 0.3263(6) 1.3176(4) -0.2344(3)
H42_2 H 0.3995 1.2590 -0.2385
H43_2 H 0.2981 1.3300 -0.2809
C58_2 C 0.0234(6) 1.4756(4) 0.2592(3)
H44_2 H 0.0873 1.4884 0.2257
loop_
_geom_bond_atom_site_label_1
_geom_bond_atom_site_label_2
_geom_bond_site_symmetry_1
_geom_bond_site_symmetry_2
Zn1 O2 1_555 1_555
Zn2 O1 1_555 1_555
Zn3 O3 1_555 1_555
Zn4 O6 1_555 1_555
O1 C5 1_555 1_555
O2 C5 1_555 1_555
O3 C10 1_555 1_555
O4 Zn2 1_555 1_555
O5 Zn2 1_555 1_555
O6 C10 1_555 1_555
O7 C18 1_555 1_555
O8 C18 1_555 1_555
O9 Zn1 1_555 1_555
O10 Zn1 1_555 1_555
O11 C16 1_555 1_555
O12 Zn3 1_555 1_555
O13 Zn4 1_555 1_555
O14 C28 1_555 1_555
O15 C29 1_555 1_555
O16 C8 1_555 1_555
N1 Zn1 1_555 1_555
N2 C26 1_555 1_555
N3 Zn3 1_555 1_555
N4 C35 1_555 1_555
C1 H1 1_555 1_555
C2 H2 1_555 1_555
C3 H3 1_555 1_555
C4 H4 1_555 1_555
C5 C24 1_555 1_555
C6 H5 1_555 1_555
C7 C6 1_555 1_555
H6 C7 1_555 1_555
C8 O10 1_555 1_555
C9 O4 1_555 1_555
C10 C14 1_555 1_555
C11 C2 1_555 1_555
C12 H7 1_555 1_555
C13 H8 1_555 1_555
C14 C7 1_555 1_555
C15 C8 1_555 1_555
C16 O5 1_555 1_555
C17 H9 1_555 1_555
C18 C20 1_555 1_555
C19 C17 1_555 1_555
H10 C19 1_555 1_555
C20 C17 1_555 1_555
C21 H11 1_555 1_555
C22 C13 1_555 1_555
H12 C22 1_555 1_555
C23 N1 1_555 1_555
H13 C23 1_555 1_555
C24 C6 1_555 1_555
C25 C9 1_555 1_555
C26 H14 1_555 1_555
C27 C28 1_555 1_555
C28 O12 1_555 1_555
C29 O13 1_555 1_555
C30 C21 1_555 1_555
C31 N1 1_555 1_555
H15 C31 1_555 1_555
C32 C26 1_555 1_555
H16 C32 1_555 1_555
C33 C27 1_555 1_555
H17 C33 1_555 1_555
C34 C15 1_555 1_555
H18 C34 1_555 1_555
C35 H19 1_555 1_555
C36 C1 1_555 1_555
C37 H20 1_555 1_555
C38 C23 1_555 1_555
H21 C38 1_555 1_555
C39 C32 1_555 1_555
C40 C39 1_555 1_555
H22 C40 1_555 1_555
H23 C40 1_555 1_555
C41 C27 1_555 1_555
H24 C41 1_555 1_555
C42 N4 1_555 1_555
H25 C42 1_555 1_555
C43 N3 1_555 1_555
H26 C43 1_555 1_555
C44 C43 1_555 1_555
H27 C44 1_555 1_555
C45 C42 1_555 1_555
H28 C45 1_555 1_555
C46 C35 1_555 1_555
H29 C46 1_555 1_555
C47 H30 1_555 1_555
H31 C47 1_555 1_555
C48 C47 1_555 1_555
H32 C48 1_555 1_555
H33 C48 1_555 1_555
C49 N2 1_555 1_555
H34 C49 1_555 1_555
C50 C20 1_555 1_555
H35 C50 1_555 1_555
C51 C48 1_555 1_555
H36 C51 1_555 1_555
H37 C51 1_555 1_555
C52 C40 1_555 1_555
H38 C52 1_555 1_555
H39 C52 1_555 1_555
C53 H40 1_555 1_555
C54 C25 1_555 1_555
H41 C54 1_555 1_555
C55 C45 1_555 1_555
C56 C44 1_555 1_555
C57 C30 1_555 1_555
H42 C57 1_555 1_555
H43 C57 1_555 1_555
C58 N3 1_555 1_555
H44 C58 1_555 1_555
Zn1A O2A 1_555 1_555
Zn1_2 N1_2 1_555 1_555
Zn1_3 O9_2 1_555 1_555
Zn2_2 N2 1_555 1_555
Zn2A O5A 1_555 1_555
Zn2_3 O4_2 1_555 1_555
Zn2A_2 O1A 1_555 1_555
Zn3_2 O7 1_555 1_555
Zn3A O12A 1_555 1_555
Zn3_3 N3_2 1_555 1_555
Zn3A_2 O3A 1_555 1_555
Zn4_2 O8 1_555 1_555
Zn4_3 N4 1_555 1_555
Zn4A O13A 1_555 1_555
Zn4A_2 O6A 1_555 1_555
O1A C5A 1_555 1_555
O1_2 Zn2_2 1_555 1_555
O2A C5A 1_555 1_555
O3A C10A 1_555 1_555
O3_2 Zn3_2 1_555 1_555
O4_2 C9_2 1_555 1_555
O4_3 Zn2_2 1_555 1_555
O5A C16A 1_555 1_555
O5_2 Zn2_2 1_555 1_555
O6A C10A 1_555 1_555
O6_2 Zn4_2 1_555 1_555
O7_2 Zn3 1_555 1_555
O8_2 Zn4 1_555 1_555
O9_2 C9_2 1_555 1_555
O9A Zn1A 1_555 1_555
O10A Zn1A 1_555 1_555
O11A C16A 1_555 1_555
O12A C28A 1_555 1_555
O12_2 Zn3_2 1_555 1_555
O13A C29A 1_555 1_555
O13_2 Zn4_2 1_555 1_555
O14A C28A 1_555 1_555
O15A C29A 1_555 1_555
O16A C8A 1_555 1_555
N1_2 C23_2 1_555 1_555
N1A Zn1A 1_555 1_555
N2_2 Zn2 1_555 1_555
N3_2 C43_2 1_555 1_555
N3_3 Zn3_2 1_555 1_555
N4_2 Zn4 1_555 1_555
N4_3 Zn4_2 1_555 1_555
C1A C3 1_555 1_555
H1A C1A 1_555 1_555
C2A C4 1_555 1_555
H2A C2A 1_555 1_555
C3A C1 1_555 1_555
H3A C3A 1_555 1_555
C4A C2 1_555 1_555
H4A C4A 1_555 1_555
C5A C24A 1_555 1_555
C6A H5A 1_555 1_555
C7A C6A 1_555 1_555
H6A C7A 1_555 1_555
C8A O10A 1_555 1_555
C9_2 C25_2 1_555 1_555
C10A C14A 1_555 1_555
C11A C2A 1_555 1_555
C12A C34 1_555 1_555
H7A C12A 1_555 1_555
C13A H8A 1_555 1_555
C14A C7A 1_555 1_555
C15A C8A 1_555 1_555
C16A C11A 1_555 1_555
C17_2 H9_2 1_555 1_555
C18_2 O7_2 1_555 1_555
C19_2 C17_2 1_555 1_555
H10_2 C19_2 1_555 1_555
C20_2 C17_2 1_555 1_555
C21_2 H11_2 1_555 1_555
C22A C13A 1_555 1_555
H12A C22A 1_555 1_555
C23_2 H13_2 1_555 1_555
C24A C6A 1_555 1_555
C25_2 C19_2 1_555 1_555
C26_2 N2_2 1_555 1_555
H14_2 C26_2 1_555 1_555
C27A C28A 1_555 1_555
C29A C36A 1_555 1_555
C30_2 C21_2 1_555 1_555
C31_2 N1_2 1_555 1_555
H15_2 C31_2 1_555 1_555
C32_2 C26_2 1_555 1_555
H16_2 C32_2 1_555 1_555
C33A C41 1_555 1_555
H17A C33A 1_555 1_555
C34A C12 1_555 1_555
H18A C34A 1_555 1_555
C35_2 N4_2 1_555 1_555
H19_2 C35_2 1_555 1_555
C36A C1A 1_555 1_555
C37_2 H20_2 1_555 1_555
C38_2 C23_2 1_555 1_555
H21_2 C38_2 1_555 1_555
C39_2 C32_2 1_555 1_555
C40_2 C39_2 1_555 1_555
H22_2 C40_2 1_555 1_555
H23_2 C40_2 1_555 1_555
C41A C33 1_555 1_555
H24A C41A 1_555 1_555
C42_2 N4_2 1_555 1_555
H25_2 C42_2 1_555 1_555
C43_2 H26_2 1_555 1_555
C44_2 C43_2 1_555 1_555
H27_2 C44_2 1_555 1_555
C45_2 C42_2 1_555 1_555
H28_2 C45_2 1_555 1_555
C46_2 C35_2 1_555 1_555
H29_2 C46_2 1_555 1_555
C47_2 H30_2 1_555 1_555
H31_2 C47_2 1_555 1_555
C48_2 C47_2 1_555 1_555
H32_2 C48_2 1_555 1_555
H33_2 C48_2 1_555 1_555
C49_2 N2_2 1_555 1_555
H34_2 C49_2 1_555 1_555
C50_2 C20_2 1_555 1_555
H35_2 C50_2 1_555 1_555
C51_2 C48_2 1_555 1_555
H36_2 C51_2 1_555 1_555
H37_2 C51_2 1_555 1_555
C52_2 C40_2 1_555 1_555
H38_2 C52_2 1_555 1_555
H39_2 C52_2 1_555 1_555
C53_2 H40_2 1_555 1_555
C54_2 C25_2 1_555 1_555
H41_2 C54_2 1_555 1_555
C55_2 C45_2 1_555 1_555
C56_2 C44_2 1_555 1_555
C57_2 C30_2 1_555 1_555
H42_2 C57_2 1_555 1_555
H43_2 C57_2 1_555 1_555
C58_2 N3_2 1_555 1_555
H44_2 C58_2 1_555 1_555
O9 C9 1_555 1_555
C3 C36 1_555 1_555
C4 C11 1_555 1_555
C11 C16 1_555 1_555
C12 C15 1_555 1_555
C13 C24 1_555 1_555
C14 C22 1_555 1_555
C19 C25 1_555 1_555
C21 C31 1_555 1_555
C29 C36 1_555 1_555
C30 C38 1_555 1_555
C37 C39 1_555 1_555
C37 C49 1_555 1_555
C46 C55 1_555 1_555
C47 C55 1_555 1_555
C50 C54 1_555 1_555
C51 C56 1_555 1_555
C52 C57 1_555 1_555
C53 C56 1_555 1_555
C53 C58 1_555 1_555
O8_2 C18_2 1_555 1_555
C3A C36A 1_555 1_555
C4A C11A 1_555 1_555
C12A C15A 1_555 1_555
C13A C24A 1_555 1_555
C14A C22A 1_555 1_555
C15A C34A 1_555 1_555
C18_2 C20_2 1_555 1_555
C21_2 C31_2 1_555 1_555
C27A C33A 1_555 1_555
C27A C41A 1_555 1_555
C30_2 C38_2 1_555 1_555
C37_2 C39_2 1_555 1_555
C37_2 C49_2 1_555 1_555
C46_2 C55_2 1_555 1_555
C47_2 C55_2 1_555 1_555
C50_2 C54_2 1_555 1_555
C51_2 C56_2 1_555 1_555
C52_2 C57_2 1_555 1_555
C53_2 C56_2 1_555 1_555
C53_2 C58_2 1_555 1_555

#END
