
#######################################################################
#
#                 Cambridge Crystallographic Data Centre
#                                CCDC 
#
#######################################################################
#
# If this CIF has been generated from an entry in the Cambridge 
# Structural Database, then it will include bibliographic, chemical, 
# crystal, experimental, refinement or atomic coordinate data resulting 
# from the CCDC's data processing and validation procedures.
#
#######################################################################

data_GIDQOZ01
_symmetry_cell_setting           monoclinic
_symmetry_space_group_name_H-M   'P 21/n'
_symmetry_Int_Tables_number      14
_space_group_name_Hall           '-P 2yn'
loop_
_symmetry_equiv_pos_site_id
_symmetry_equiv_pos_as_xyz
1 x,y,z
2 1/2+x,1/2-y,1/2+z
3 -x,-y,-z
4 1/2-x,1/2+y,1/2-z
_cell_length_a                   7.3339(4)
_cell_length_b                   16.7917(11)
_cell_length_c                   8.7861(5)
_cell_angle_alpha                90
_cell_angle_beta                 90.040(4)
_cell_angle_gamma                90
_cell_volume                     1082
loop_
_atom_site_label
_atom_site_type_symbol
_atom_site_fract_x
_atom_site_fract_y
_atom_site_fract_z
Mn1 Mn 0.26345(5) 0.137149(17) 0.13203(4)
N1 N 0.2570(5) 0.12831(11) -0.11410(19)
N2 N 0.1704(3) 0.08594(13) -0.3707(2)
N3 N 0.2618(4) 0.14116(11) -0.61609(19)
N4 N 0.2654(4) 0.00628(10) 0.1680(2)
N5 N 0.3329(3) -0.09244(12) 0.3664(3)
N6 N 0.2386(4) -0.23209(10) 0.3808(2)
N7 N -0.0478(2) 0.13722(13) 0.1345(5)
N8 N -0.4268(3) 0.13709(14) 0.1346(5)
C1 C 0.2214(5) 0.11191(14) -0.2378(3)
C2 C 0.2258(5) 0.11782(13) -0.4974(2)
C3 C 0.2901(3) -0.04304(14) 0.2563(3)
C4 C 0.2771(3) -0.16604(14) 0.3669(3)
C5 C -0.1427(4) 0.09444(18) 0.2342(3)
H1 H -0.0792 0.0627 0.3062
C6 C -0.3295(4) 0.09491(18) 0.2358(3)
H2 H -0.3918 0.0645 0.3106
C7 C -0.3330(4) 0.18005(17) 0.0343(3)
H3 H -0.3969 0.2118 -0.0376
C8 C -0.1451(4) 0.17943(18) 0.0325(3)
H4 H -0.0826 0.2096 -0.0427
N3_2 N 0.2618(4) 0.14116(11) 0.38391(19)
N6C N 0.2614(4) 0.26791(10) 0.1192(2)
N8_2 N 0.5732(3) 0.13709(14) 0.1346(5)
Mn1_2 Mn 0.26345(5) 0.137149(17) -0.86797(4)
Mn1C Mn 0.23655(5) -0.362851(17) 0.36797(4)
Mn1_3 Mn -0.73655(5) 0.137149(17) 0.13203(4)
loop_
_geom_bond_atom_site_label_1
_geom_bond_atom_site_label_2
_geom_bond_site_symmetry_1
_geom_bond_site_symmetry_2
Mn1 N1 1_555 1_555
N1 C1 1_555 1_555
N2 C1 1_555 1_555
N3 C2 1_555 1_555
N4 Mn1 1_555 1_555
N5 C3 1_555 1_555
N6 C4 1_555 1_555
N7 Mn1 1_555 1_555
N8 C6 1_555 1_555
C2 N2 1_555 1_555
C3 N4 1_555 1_555
C4 N5 1_555 1_555
C5 N7 1_555 1_555
H1 C5 1_555 1_555
C6 C5 1_555 1_555
H2 C6 1_555 1_555
C7 N8 1_555 1_555
H3 C7 1_555 1_555
C8 N7 1_555 1_555
H4 C8 1_555 1_555
N3_2 Mn1 1_555 1_555
N6C Mn1 1_555 1_555
N8_2 Mn1 1_555 1_555
Mn1_2 N3 1_555 1_555
Mn1C N6 1_555 1_555
Mn1_3 N8 1_555 1_555
C7 C8 1_555 1_555

#END
