
#######################################################################
#
#                 Cambridge Crystallographic Data Centre
#                                CCDC 
#
#######################################################################
#
# If this CIF has been generated from an entry in the Cambridge 
# Structural Database, then it will include bibliographic, chemical, 
# crystal, experimental, refinement or atomic coordinate data resulting 
# from the CCDC's data processing and validation procedures.
#
#######################################################################

data_GIDQOZ02
_symmetry_cell_setting           monoclinic
_symmetry_space_group_name_H-M   'P 21/n'
_symmetry_Int_Tables_number      14
_space_group_name_Hall           '-P 2yn'
loop_
_symmetry_equiv_pos_site_id
_symmetry_equiv_pos_as_xyz
1 x,y,z
2 1/2+x,1/2-y,1/2+z
3 -x,-y,-z
4 1/2-x,1/2+y,1/2-z
_cell_length_a                   7.3378(3)
_cell_length_b                   16.8403(9)
_cell_length_c                   8.7887(5)
_cell_angle_alpha                90
_cell_angle_beta                 90.006(4)
_cell_angle_gamma                90
_cell_volume                     1086.03
loop_
_atom_site_label
_atom_site_type_symbol
_atom_site_fract_x
_atom_site_fract_y
_atom_site_fract_z
Mn1 Mn 0.26069(6) 0.137522(16) 0.13460(4)
N1 N 0.2546(6) 0.12961(11) -0.11171(19)
N2 N 0.1759(4) 0.08555(15) -0.3677(3)
N3 N 0.2597(5) 0.14067(11) -0.61413(19)
N4 N 0.2617(4) 0.00705(10) 0.1690(2)
N5 N 0.3263(4) -0.09242(14) 0.3655(3)
N6 N 0.2414(4) -0.23213(10) 0.3765(2)
N7 N -0.0503(3) 0.13748(13) 0.1357(6)
N8 N -0.4296(3) 0.13749(13) 0.1376(5)
C1 C 0.2256(5) 0.11254(15) -0.2345(3)
C2 C 0.2273(6) 0.11753(14) -0.4949(3)
C3 C 0.2854(4) -0.04275(14) 0.2564(3)
C4 C 0.2739(4) -0.16622(14) 0.3643(3)
C5 C -0.1457(4) 0.09522(18) 0.2361(4)
H1 H -0.0822 0.0639 0.3087
C6 C -0.3317(4) 0.09546(19) 0.2382(4)
H2 H -0.3936 0.0650 0.3131
C7 C -0.3347(4) 0.17997(18) 0.0364(4)
H3 H -0.3982 0.2111 -0.0365
C8 C -0.1479(4) 0.17969(18) 0.0353(4)
H4 H -0.0856 0.2104 -0.0389
N3_2 N 0.2597(5) 0.14067(11) 0.38587(19)
N6C N 0.2586(4) 0.26787(10) 0.1235(2)
N8_2 N 0.5704(3) 0.13749(13) 0.1376(5)
Mn1_2 Mn 0.26069(6) 0.137522(16) -0.86540(4)
Mn1C Mn 0.23931(6) -0.362478(16) 0.36540(4)
Mn1_3 Mn -0.73931(6) 0.137522(16) 0.13460(4)
loop_
_geom_bond_atom_site_label_1
_geom_bond_atom_site_label_2
_geom_bond_site_symmetry_1
_geom_bond_site_symmetry_2
Mn1 N1 1_555 1_555
N1 C1 1_555 1_555
N2 C1 1_555 1_555
N3 C2 1_555 1_555
N4 Mn1 1_555 1_555
N5 C3 1_555 1_555
N6 C4 1_555 1_555
N7 Mn1 1_555 1_555
N8 C6 1_555 1_555
C2 N2 1_555 1_555
C3 N4 1_555 1_555
C4 N5 1_555 1_555
C5 N7 1_555 1_555
H1 C5 1_555 1_555
C6 C5 1_555 1_555
H2 C6 1_555 1_555
C7 N8 1_555 1_555
H3 C7 1_555 1_555
C8 N7 1_555 1_555
H4 C8 1_555 1_555
N3_2 Mn1 1_555 1_555
N6C Mn1 1_555 1_555
N8_2 Mn1 1_555 1_555
Mn1_2 N3 1_555 1_555
Mn1C N6 1_555 1_555
Mn1_3 N8 1_555 1_555
C7 C8 1_555 1_555

#END
