
#######################################################################
#
#                 Cambridge Crystallographic Data Centre
#                                CCDC 
#
#######################################################################
#
# If this CIF has been generated from an entry in the Cambridge 
# Structural Database, then it will include bibliographic, chemical, 
# crystal, experimental, refinement or atomic coordinate data resulting 
# from the CCDC's data processing and validation procedures.
#
#######################################################################

data_GIDVEV
_symmetry_cell_setting           monoclinic
_symmetry_space_group_name_H-M   'P 21/n'
_symmetry_Int_Tables_number      14
_space_group_name_Hall           '-P 2yn'
loop_
_symmetry_equiv_pos_site_id
_symmetry_equiv_pos_as_xyz
1 x,y,z
2 1/2-x,1/2+y,1/2-z
3 -x,-y,-z
4 1/2+x,1/2-y,1/2+z
_cell_length_a                   15.47(1)
_cell_length_b                   11.611(8)
_cell_length_c                   17.05(1)
_cell_angle_alpha                90
_cell_angle_beta                 110.892(7)
_cell_angle_gamma                90
_cell_volume                     2861.21
loop_
_atom_site_label
_atom_site_type_symbol
_atom_site_fract_x
_atom_site_fract_y
_atom_site_fract_z
Zn1 Zn 0.69015(6) 0.46857(8) 0.73629(6)
S1 S 0.6470(1) 0.7468(2) 0.9326(1)
S2 S 0.3748(1) 0.7908(2) 1.1177(1)
F1 F 0.6653(4) 0.6535(5) 1.3427(3)
F2 F 0.6851(4) 0.8371(5) 1.3588(3)
F3 F 0.8461(4) 0.6677(5) 1.3952(3)
F4 F 0.8417(4) 0.8312(5) 1.3345(3)
F5 F 0.8689(3) 0.6936(6) 1.2255(3)
F6 F 0.7901(4) 0.5547(5) 1.2522(3)
O1 O 0.6966(4) 0.5617(4) 0.8385(3)
O2 O 0.7729(4) 0.4492(5) 0.9483(3)
O3 O 0.2807(3) 0.9634(5) 1.1896(3)
O4 O 0.4080(4) 1.0624(5) 1.2645(4)
O5 O 0.7789(4) 0.3448(5) 0.8122(3)
N1 N 0.5688(4) 0.5613(5) 0.6725(4)
N2 N 0.6079(4) 0.3390(5) 0.6583(4)
C1 C 0.6487(5) 0.7578(7) 1.2189(5)
C2 C 0.6965(6) 0.7473(7) 1.3139(5)
C3 C 0.7977(6) 0.7284(8) 1.3270(5)
C4 C 0.7932(6) 0.6735(9) 1.2449(5)
C5 C 0.7048(5) 0.7164(7) 1.1799(5)
C6 C 0.6475(5) 0.7902(7) 1.0298(5)
C7 C 0.6902(5) 0.7095(7) 1.0897(5)
C8 C 0.7246(5) 0.6128(7) 1.0566(5)
C9 C 0.7050(5) 0.6217(7) 0.9720(5)
C10 C 0.6085(7) 0.9037(7) 1.0386(6)
C11 C 0.7271(5) 0.5363(8) 0.9165(5)
C12 C 0.4808(6) 0.7307(7) 1.1305(5)
C13 C 0.5515(5) 0.7932(7) 1.1882(5)
C14 C 0.5180(5) 0.8885(7) 1.2198(5)
C15 C 0.4241(5) 0.8989(7) 1.1881(5)
C16 C 0.4859(6) 0.6240(9) 1.0842(7)
C17 C 0.3673(5) 0.9827(7) 1.2155(5)
C18 C 0.5511(6) 0.6722(7) 0.6793(5)
C19 C 0.4699(6) 0.7251(7) 0.6277(5)
C20 C 0.4036(5) 0.6623(7) 0.5692(5)
C21 C 0.5027(5) 0.4975(6) 0.6123(5)
C22 C 0.4181(5) 0.5446(7) 0.5602(5)
C23 C 0.3533(5) 0.4693(8) 0.4993(5)
C24 C 0.3724(6) 0.3583(8) 0.4945(5)
C25 C 0.5228(5) 0.3777(7) 0.6057(5)
C26 C 0.4581(5) 0.3072(7) 0.5488(5)
C27 C 0.4799(6) 0.1899(8) 0.5459(5)
C28 C 0.5665(6) 0.1525(7) 0.5979(5)
C29 C 0.6284(6) 0.2292(7) 0.6521(5)
H1 H 0.7571 0.5500 1.0898
H2 H 0.6559 0.9510 1.0751
H3 H 0.5611 0.8936 1.0613
H4 H 0.5833 0.9394 0.9851
H5 H 0.5573 0.9408 1.2596
H6 H 0.5130 0.5640 1.1231
H7 H 0.5226 0.6378 1.0508
H8 H 0.4253 0.6019 1.0490
H9 H 0.5956 0.7172 0.7210
H10 H 0.4608 0.8051 0.6333
H11 H 0.3477 0.6979 0.5347
H12 H 0.2963 0.4997 0.4622
H13 H 0.3284 0.3112 0.4541
H14 H 0.4365 0.1379 0.5095
H15 H 0.5836 0.0742 0.5965
H16 H 0.6879 0.2019 0.6860
H17 H 0.8183 0.3692 0.7968
H18 H 0.7936 0.3714 0.8683
Zn1C Zn 0.19015(6) 1.03143(8) 1.23629(6)
O3C O 0.7807(3) 0.5366(5) 0.6896(3)
loop_
_geom_bond_atom_site_label_1
_geom_bond_atom_site_label_2
_geom_bond_site_symmetry_1
_geom_bond_site_symmetry_2
Zn1 O1 1_555 1_555
S1 C6 1_555 1_555
S2 C12 1_555 1_555
F1 C2 1_555 1_555
F2 C2 1_555 1_555
F3 C3 1_555 1_555
F4 C3 1_555 1_555
F5 C4 1_555 1_555
F6 C4 1_555 1_555
O1 C11 1_555 1_555
O2 C11 1_555 1_555
O3 C17 1_555 1_555
O4 C17 1_555 1_555
O5 Zn1 1_555 1_555
N1 Zn1 1_555 1_555
N2 Zn1 1_555 1_555
C1 C2 1_555 1_555
C2 C3 1_555 1_555
C3 C4 1_555 1_555
C4 C5 1_555 1_555
C5 C1 1_555 1_555
C6 C7 1_555 1_555
C7 C5 1_555 1_555
C8 C7 1_555 1_555
C9 S1 1_555 1_555
C10 C6 1_555 1_555
C11 C9 1_555 1_555
C12 C13 1_555 1_555
C13 C1 1_555 1_555
C14 C13 1_555 1_555
C15 S2 1_555 1_555
C16 C12 1_555 1_555
C17 C15 1_555 1_555
C18 N1 1_555 1_555
C19 C18 1_555 1_555
C20 C19 1_555 1_555
C21 N1 1_555 1_555
C22 C20 1_555 1_555
C23 C22 1_555 1_555
C24 C23 1_555 1_555
C25 N2 1_555 1_555
C26 C24 1_555 1_555
C27 C26 1_555 1_555
C28 C27 1_555 1_555
C29 N2 1_555 1_555
H1 C8 1_555 1_555
H2 C10 1_555 1_555
H3 C10 1_555 1_555
H4 C10 1_555 1_555
H5 C14 1_555 1_555
H6 C16 1_555 1_555
H7 C16 1_555 1_555
H8 C16 1_555 1_555
H9 C18 1_555 1_555
H10 C19 1_555 1_555
H11 C20 1_555 1_555
H12 C23 1_555 1_555
H13 C24 1_555 1_555
H14 C27 1_555 1_555
H15 C28 1_555 1_555
H16 C29 1_555 1_555
H17 O5 1_555 1_555
H18 O5 1_555 1_555
Zn1C O3 1_555 1_555
O3C Zn1 1_555 1_555
C8 C9 1_555 1_555
C14 C15 1_555 1_555
C21 C22 1_555 1_555
C21 C25 1_555 1_555
C25 C26 1_555 1_555
C28 C29 1_555 1_555

#END
