
#######################################################################
#
#                 Cambridge Crystallographic Data Centre
#                                CCDC 
#
#######################################################################
#
# If this CIF has been generated from an entry in the Cambridge 
# Structural Database, then it will include bibliographic, chemical, 
# crystal, experimental, refinement or atomic coordinate data resulting 
# from the CCDC's data processing and validation procedures.
#
#######################################################################

data_GIDWEX
_symmetry_cell_setting           triclinic
_symmetry_space_group_name_H-M   'P -1'
_symmetry_Int_Tables_number      2
_space_group_name_Hall           '-P 1'
loop_
_symmetry_equiv_pos_site_id
_symmetry_equiv_pos_as_xyz
1 x,y,z
2 -x,-y,-z
_cell_length_a                   10.2991(2)
_cell_length_b                   10.5483(3)
_cell_length_c                   14.7108(5)
_cell_angle_alpha                99.006(3)
_cell_angle_beta                 104.622(2)
_cell_angle_gamma                112.801(3)
_cell_volume                     1366.36
loop_
_atom_site_label
_atom_site_type_symbol
_atom_site_fract_x
_atom_site_fract_y
_atom_site_fract_z
Co1 Co 0.00000 0.00000 0.00000
S1 S 0.48393(5) -0.28260(5) -0.04738(4)
N1 N 0.12030(17) -0.82752(15) -0.05573(11)
N2 N -0.14182(18) -0.12008(16) -0.14155(12)
N3 N 0.15521(17) -0.09981(15) -0.01856(12)
C1 C 0.2800(2) -0.59786(18) -0.11767(14)
C2 C 0.3496(2) -0.21894(18) -0.04112(15)
C3 C 0.1485(2) -0.84884(19) -0.13966(14)
H1 H 0.1129 -0.9427 -0.1773
C4 C 0.2869(2) -0.0596(2) 0.05166(14)
H2 H 0.313 0.0102 0.1091
C5 C 0.2274(2) -0.7389(2) -0.17270(14)
H3 H 0.2454 -0.7583 -0.2309
C6 C 0.2501(3) -0.5755(2) -0.03253(15)
H4 H 0.2829 -0.4828 0.0059
C7 C 0.3863(2) -0.1150(2) 0.04422(15)
H5 H 0.4762 -0.0834 0.0954
C8 C 0.1710(3) -0.6920(2) -0.00472(15)
H6 H 0.1518 -0.675 0.0533
C9 C 0.2149(2) -0.2617(2) -0.11428(17)
H7 H 0.186 -0.3316 -0.1723
C10 C 0.1230(2) -0.1988(2) -0.10003(16)
H8 H 0.0332 -0.2275 -0.1506
O1 O -0.3502(3) -0.2461(2) -0.28994(16)
C11 C -0.2425(2) -0.1823(2) -0.21311(16)
S2 S 0.37838(6) -0.45945(5) -0.16444(4)
S1A S -0.48393(5) -0.71740(5) 0.04738(4)
N1A N -0.12030(17) -0.17248(15) 0.05573(11)
N3A N -0.15521(17) -0.90019(15) 0.01856(12)
C1A C -0.2800(2) -0.40214(18) 0.11767(14)
C2A C -0.3496(2) -0.78106(18) 0.04112(15)
C3A C -0.1485(2) -0.15116(19) 0.13966(14)
H1A H -0.1129 -0.0573 0.1773
C4A C -0.2869(2) -0.9404(2) -0.05166(14)
H2A H -0.313 -1.0102 -0.1091
C5A C -0.2274(2) -0.2611(2) 0.17270(14)
H3A H -0.2454 -0.2417 0.2309
C6A C -0.2501(3) -0.4245(2) 0.03253(15)
H4A H -0.2829 -0.5172 -0.0059
C7A C -0.3863(2) -0.8850(2) -0.04422(15)
H5A H -0.4762 -0.9166 -0.0954
C8A C -0.1710(3) -0.3080(2) 0.00472(15)
H6A H -0.1518 -0.325 -0.0533
C9A C -0.2149(2) -0.7383(2) 0.11428(17)
H7A H -0.186 -0.6684 0.1723
C10A C -0.1230(2) -0.8012(2) 0.10003(16)
H8A H -0.0332 -0.7725 0.1506
S2A S -0.37838(6) -0.54055(5) 0.16444(4)
N2A N 0.14182(18) 0.12008(16) 0.14155(12)
O1A O 0.3502(3) 0.2461(2) 0.28994(16)
C11A C 0.2425(2) 0.1823(2) 0.21311(16)
Co1_2 Co 0.00000 -1.00000 0.00000
N1_2 N 0.12030(17) 0.17248(15) -0.05573(11)
N3A_2 N -0.15521(17) 0.09981(15) 0.01856(12)
Co2 Co 0.00000 0.00000 0.50000
C12 C 0.0603(3) -0.3468(2) 0.32755(17)
H9 H 0.0337 -0.4429 0.3235
C13 C 0.5526(3) -0.3900(2) 0.38192(19)
H10 H 0.5177 -0.4834 0.3867
S3 S 0.17500(7) -0.37856(7) 0.17860(4)
S4 S 0.27348(6) -0.48093(6) 0.25551(5)
N4 N 0.06334(19) -0.12666(17) 0.40243(12)
N5 N 0.75751(19) -0.15432(18) 0.43040(13)
C14 C 0.1329(2) -0.2831(2) 0.26865(14)
C15 C 0.0275(3) -0.2662(2) 0.39248(17)
H11 H -0.0223 -0.3106 0.4318
C16 C 0.6643(2) -0.1162(2) 0.37394(18)
H12 H 0.7015 -0.0216 0.3714
C17 C 0.5168(3) -0.2070(2) 0.31920(18)
H13 H 0.4569 -0.1745 0.2809
C18 C 0.1356(2) -0.0655(2) 0.34624(16)
H14 H 0.1624 0.0312 0.3524
C19 C 0.4593(2) -0.3478(2) 0.32211(16)
C20 C 0.6988(3) -0.2895(2) 0.43426(18)
H15 H 0.7605 -0.318 0.4749
C21 C 0.1730(3) -0.1392(2) 0.27872(17)
H16 H 0.2243 -0.0926 0.2408
N6 N -0.0205(2) 0.1170(2) 0.40142(14)
C22 C -0.0407(3) 0.2035(3) 0.36880(18)
O2 O -0.0625(4) 0.2968(3) 0.3411(2)
C12A C -0.0603(3) 0.3468(2) 0.67245(17)
H9A H -0.0337 0.4429 0.6765
C13A C -0.5526(3) 0.3900(2) 0.61808(19)
H10A H -0.5177 0.4834 0.6133
S3A S -0.17500(7) 0.37856(7) 0.82140(4)
S4A S -0.27348(6) 0.48093(6) 0.74449(5)
N4A N -0.06334(19) 0.12666(17) 0.59757(12)
N5A N -0.75751(19) 0.15432(18) 0.56960(13)
C14A C -0.1329(2) 0.2831(2) 0.73135(14)
C15A C -0.0275(3) 0.2662(2) 0.60752(17)
H11A H 0.0223 0.3106 0.5682
C16A C -0.6643(2) 0.1162(2) 0.62606(18)
H12A H -0.7015 0.0216 0.6286
C17A C -0.5168(3) 0.2070(2) 0.68080(18)
H13A H -0.4569 0.1745 0.7191
C18A C -0.1356(2) 0.0655(2) 0.65376(16)
H14A H -0.1624 -0.0312 0.6476
C19A C -0.4593(2) 0.3478(2) 0.67789(16)
C20A C -0.6988(3) 0.2895(2) 0.56574(18)
H15A H -0.7605 0.318 0.5251
C21A C -0.1730(3) 0.1392(2) 0.72128(17)
H16A H -0.2243 0.0926 0.7592
N6A N 0.0205(2) -0.1170(2) 0.59858(14)
C22A C 0.0407(3) -0.2035(3) 0.63120(18)
O2A O 0.0625(4) -0.2968(3) 0.6589(2)
Co2_2 Co -1.00000 0.00000 0.50000
Co2_3 Co 1.00000 0.00000 0.50000
N5_2 N -0.24249(19) -0.15432(18) 0.43040(13)
N5A_2 N 0.24249(19) 0.15432(18) 0.56960(13)
O3 O 0.5741(5) 0.1296(4) 0.2771(4)
H17 H 0.565(6) 0.196(6) 0.312(3)
H18 H 0.667(2) 0.160(6) 0.284(6)
O4 O -0.186(2) -0.5529(11) 0.4641(11)
H19 H -0.13(2) -0.477(15) 0.512(13)
H20 H -0.139(10) -0.604(9) 0.466(4)
loop_
_geom_bond_atom_site_label_1
_geom_bond_atom_site_label_2
_geom_bond_site_symmetry_1
_geom_bond_site_symmetry_2
Co1 N2 1_555 1_555
S1 C2 1_555 1_555
N1 C3 1_555 1_555
N2 C11 1_555 1_555
N3 Co1 1_555 1_555
C1 C5 1_555 1_555
C2 C7 1_555 1_555
C3 H1 1_555 1_555
C4 N3 1_555 1_555
H2 C4 1_555 1_555
C5 C3 1_555 1_555
H3 C5 1_555 1_555
C6 C1 1_555 1_555
H4 C6 1_555 1_555
C7 C4 1_555 1_555
H5 C7 1_555 1_555
C8 N1 1_555 1_555
H6 C8 1_555 1_555
C9 C2 1_555 1_555
H7 C9 1_555 1_555
C10 N3 1_555 1_555
H8 C10 1_555 1_555
O1 C11 1_555 1_555
S2 S1 1_555 1_555
Co2 N4 1_555 1_555
C12 H9 1_555 1_555
C13 H10 1_555 1_555
S3 S4 1_555 1_555
S4 C19 1_555 1_555
N4 C15 1_555 1_555
N5 C16 1_555 1_555
C14 C12 1_555 1_555
C15 C12 1_555 1_555
H11 C15 1_555 1_555
C16 H12 1_555 1_555
C17 C16 1_555 1_555
H13 C17 1_555 1_555
C18 N4 1_555 1_555
H14 C18 1_555 1_555
C19 C13 1_555 1_555
C20 C13 1_555 1_555
H15 C20 1_555 1_555
C21 C14 1_555 1_555
H16 C21 1_555 1_555
N6 Co2 1_555 1_555
C22 N6 1_555 1_555
O2 C22 1_555 1_555
O3 H17 1_555 1_555
H18 O3 1_555 1_555
O4 H19 1_555 1_555
H20 O4 1_555 1_555
S1A C2A 1_555 1_555
N1A Co1 1_555 1_555
N3A C4A 1_555 1_555
C1A C5A 1_555 1_555
C2A C7A 1_555 1_555
C3A N1A 1_555 1_555
H1A C3A 1_555 1_555
C4A H2A 1_555 1_555
C5A C3A 1_555 1_555
H3A C5A 1_555 1_555
C6A C1A 1_555 1_555
H4A C6A 1_555 1_555
C7A C4A 1_555 1_555
H5A C7A 1_555 1_555
C8A N1A 1_555 1_555
H6A C8A 1_555 1_555
C9A C2A 1_555 1_555
H7A C9A 1_555 1_555
C10A N3A 1_555 1_555
H8A C10A 1_555 1_555
S2A S1A 1_555 1_555
N2A Co1 1_555 1_555
O1A C11A 1_555 1_555
C11A N2A 1_555 1_555
Co1_2 N1 1_555 1_555
N1_2 Co1 1_555 1_555
N3A_2 Co1 1_555 1_555
C12A H9A 1_555 1_555
C13A H10A 1_555 1_555
S3A S4A 1_555 1_555
S4A C19A 1_555 1_555
N4A Co2 1_555 1_555
N5A C16A 1_555 1_555
C14A C12A 1_555 1_555
C15A C12A 1_555 1_555
H11A C15A 1_555 1_555
C16A H12A 1_555 1_555
C17A C16A 1_555 1_555
H13A C17A 1_555 1_555
C18A N4A 1_555 1_555
H14A C18A 1_555 1_555
C19A C13A 1_555 1_555
C20A C13A 1_555 1_555
H15A C20A 1_555 1_555
C21A C14A 1_555 1_555
H16A C21A 1_555 1_555
N6A Co2 1_555 1_555
C22A N6A 1_555 1_555
O2A C22A 1_555 1_555
Co2_2 N5A 1_555 1_555
Co2_3 N5 1_555 1_555
N5_2 Co2 1_555 1_555
N5A_2 Co2 1_555 1_555
C1 S2 1_555 1_555
C6 C8 1_555 1_555
C9 C10 1_555 1_555
S3 C14 1_555 1_555
N5 C20 1_555 1_555
C17 C19 1_555 1_555
C18 C21 1_555 1_555
N3A Co1_2 1_555 1_555
C1A S2A 1_555 1_555
C6A C8A 1_555 1_555
C9A C10A 1_555 1_555
S3A C14A 1_555 1_555
N4A C15A 1_555 1_555
N5A C20A 1_555 1_555
C17A C19A 1_555 1_555
C18A C21A 1_555 1_555

#END
