
#######################################################################
#
#                 Cambridge Crystallographic Data Centre
#                                CCDC 
#
#######################################################################
#
# If this CIF has been generated from an entry in the Cambridge 
# Structural Database, then it will include bibliographic, chemical, 
# crystal, experimental, refinement or atomic coordinate data resulting 
# from the CCDC's data processing and validation procedures.
#
#######################################################################

data_GIFFAE
_symmetry_cell_setting           orthorhombic
_symmetry_space_group_name_H-M   'P 21 21 21'
_symmetry_Int_Tables_number      19
_space_group_name_Hall           'P 2ac 2ab'
loop_
_symmetry_equiv_pos_site_id
_symmetry_equiv_pos_as_xyz
1 x,y,z
2 1/2-x,-y,1/2+z
3 1/2+x,1/2-y,-z
4 -x,1/2+y,1/2-z
_cell_length_a                   13.3317(10)
_cell_length_b                   12.7976(10)
_cell_length_c                   12.7748(10)
_cell_angle_alpha                90
_cell_angle_beta                 90
_cell_angle_gamma                90
_cell_volume                     2179.56
loop_
_atom_site_label
_atom_site_type_symbol
_atom_site_fract_x
_atom_site_fract_y
_atom_site_fract_z
C1 C 1.053(6) 0.750(7) 0.300(6)
C2 C 0.990(6) 0.746(6) 0.381(6)
C3 C 1.164(10) 0.736(9) 0.286(10)
C4 C 0.989(6) 0.736(6) 0.498(6)
C5 C 0.657(6) 1.248(7) 0.508(6)
C6 C 0.822(6) 1.035(7) 0.474(7)
C7 C 0.713(5) 1.053(6) 0.491(6)
C8 C 0.649(5) 1.136(6) 0.504(6)
Sm1 Sm 0.7458(2) 0.7893(3) 0.4574(3)
Sm2 Sm 0.9052(3) 1.2919(3) 0.4603(3)
N1 N 1.003(5) 0.769(5) 0.207(6)
N2 N 0.902(5) 0.772(7) 0.235(5)
N3 N 0.893(5) 0.759(5) 0.337(5)
N4 N 0.655(5) 0.962(6) 0.492(6)
N5 N 0.561(5) 0.986(5) 0.506(6)
N6 N 0.559(5) 1.091(5) 0.509(6)
O1 O 0.731(6) 0.603(6) 0.538(7)
O2 O 0.698(6) 0.650(6) 0.328(7)
O3 O 1.200(7) 0.757(6) 0.196(7)
O4 O 1.215(6) 0.710(7) 0.363(6)
O5 O 0.712(6) 0.860(9) 0.282(7)
O6 O 0.905(4) 0.733(4) 0.541(4)
O7 O 1.072(4) 0.745(4) 0.547(4)
O8 O 0.853(4) 0.943(4) 0.468(6)
O9 O 0.879(5) 1.114(5) 0.473(6)
O10 O 0.569(5) 1.296(4) 0.508(4)
O11 O 0.922(5) 1.275(9) 0.652(5)
O12 O 0.863(6) 1.461(6) 0.555(7)
O13 O 0.860(6) 1.474(7) 0.428(7)
O14 O 0.738(4) 1.294(5) 0.514(4)
Sm1B Sm 1.2458(2) 0.7107(3) 0.5426(3)
Sm2B Sm 0.4052(3) 1.2081(3) 0.5397(3)
Sm2C Sm 1.0948(3) 0.7919(3) 0.0397(3)
N1C N 0.997(5) 1.269(5) 0.293(6)
N6B N 1.059(5) 1.409(5) 0.491(6)
O3C O 0.800(7) 1.257(6) 0.304(7)
O4B O 0.715(6) 0.790(7) 0.637(6)
O7B O 0.572(4) 0.755(4) 0.453(4)
O10B O 1.069(5) 1.204(4) 0.492(4)
loop_
_geom_bond_atom_site_label_1
_geom_bond_atom_site_label_2
_geom_bond_site_symmetry_1
_geom_bond_site_symmetry_2
C1 C2 1_555 1_555
C2 C4 1_555 1_555
C3 C1 1_555 1_555
C4 O6 1_555 1_555
C5 C8 1_555 1_555
C6 C7 1_555 1_555
C7 C8 1_555 1_555
C8 N6 1_555 1_555
Sm1 N3 1_555 1_555
Sm2 O9 1_555 1_555
N1 C1 1_555 1_555
N2 N1 1_555 1_555
N3 C2 1_555 1_555
N4 C7 1_555 1_555
N5 N4 1_555 1_555
N6 N5 1_555 1_555
O1 Sm1 1_555 1_555
O2 Sm1 1_555 1_555
O3 C3 1_555 1_555
O4 C3 1_555 1_555
O5 Sm1 1_555 1_555
O6 Sm1 1_555 1_555
O7 C4 1_555 1_555
O8 C6 1_555 1_555
O9 C6 1_555 1_555
O10 C5 1_555 1_555
O11 Sm2 1_555 1_555
O12 Sm2 1_555 1_555
O13 Sm2 1_555 1_555
O14 C5 1_555 1_555
Sm1B O4 1_555 1_555
Sm2B N6 1_555 1_555
Sm2C N1 1_555 1_555
N1C Sm2 1_555 1_555
N6B Sm2 1_555 1_555
O3C Sm2 1_555 1_555
O4B Sm1 1_555 1_555
O7B Sm1 1_555 1_555
O10B Sm2 1_555 1_555
Sm1 N4 1_555 1_555
Sm1 O8 1_555 1_555
Sm2 O14 1_555 1_555
N2 N3 1_555 1_555
O3 Sm2C 1_555 1_555
O7 Sm1B 1_555 1_555
O10 Sm2B 1_555 1_555

#END
