
#######################################################################
#
#                 Cambridge Crystallographic Data Centre
#                                CCDC 
#
#######################################################################
#
# If this CIF has been generated from an entry in the Cambridge 
# Structural Database, then it will include bibliographic, chemical, 
# crystal, experimental, refinement or atomic coordinate data resulting 
# from the CCDC's data processing and validation procedures.
#
#######################################################################

data_GIFGOT
_symmetry_cell_setting           monoclinic
_symmetry_space_group_name_H-M   'P 21/c'
_symmetry_Int_Tables_number      14
_space_group_name_Hall           '-P 2ybc'
loop_
_symmetry_equiv_pos_site_id
_symmetry_equiv_pos_as_xyz
1 x,y,z
2 -x,1/2+y,1/2-z
3 -x,-y,-z
4 x,1/2-y,1/2+z
_cell_length_a                   13.9781(6)
_cell_length_b                   13.5067(5)
_cell_length_c                   11.2133(6)
_cell_angle_alpha                90
_cell_angle_beta                 110.9166(5)
_cell_angle_gamma                90
_cell_volume                     1977.54
loop_
_atom_site_label
_atom_site_type_symbol
_atom_site_fract_x
_atom_site_fract_y
_atom_site_fract_z
Hg1 Hg 0.26916(3) 0.21438(2) 0.12364(4)
Cu1 Cu 0.63694(7) 0.32794(7) 0.56689(10)
S1 S 0.7560(2) 0.65878(19) 0.6097(3)
S2 S 0.36427(17) 0.37285(17) 0.1360(2)
N1 N 0.7300(5) 0.2611(5) 0.4952(7)
N2 N 0.7839(7) 0.1229(6) 0.4352(10)
H1 H 0.7910 0.0605 0.4254
N3 N 0.6049(6) 0.1834(5) 0.5944(9)
H2 H 0.6175 0.1744 0.6781
H3 H 0.5375 0.1731 0.5528
N4 N 0.6976(5) 0.4611(5) 0.5821(8)
N5 N 0.5155(6) 0.3492(6) 0.3787(9)
C1 C 0.7961(7) 0.2872(6) 0.4296(9)
C2 C 0.8314(7) 0.3772(8) 0.4047(10)
H4 H 0.8118 0.4367 0.4309
C3 C 0.8967(9) 0.3733(10) 0.3394(12)
H5 H 0.9199 0.4331 0.3186
C4 C 0.9297(10) 0.2909(12) 0.3033(13)
H6 H 0.9756 0.2946 0.2605
C5 C 0.8973(10) 0.2008(11) 0.3278(15)
H7 H 0.9196 0.1425 0.3019
C6 C 0.8306(8) 0.1993(8) 0.3923(11)
C7 C 0.7260(6) 0.1645(6) 0.4943(9)
C8 C 0.6601(7) 0.1106(6) 0.5537(10)
H8 H 0.6131 0.0665 0.4919
H9 H 0.7023 0.0715 0.6259
S3 S 0.10319(17) 0.1638(2) 0.1364(3)
C9 C 0.1459(7) 0.1259(7) 0.2853(11)
N6 N 0.1714(8) 0.0975(8) 0.3886(11)
N7 N 0.5547(6) 0.3669(5) 0.6711(8)
S4 S 0.40515(17) 0.40993(17) 0.7759(3)
C10 C 0.4925(6) 0.3852(6) 0.7133(9)
C11 C 0.7191(6) 0.5420(6) 0.5907(8)
C12 C 0.4532(7) 0.3580(6) 0.2816(10)
Hg1A Hg 0.73084(3) 0.71438(2) 0.37636(4)
Hg1C Hg 0.26916(3) 0.28562(2) 0.62364(4)
S1A S 0.2440(2) 0.15878(19) -0.1097(3)
S4C S 0.40515(17) 0.09007(17) 0.2759(3)
loop_
_geom_bond_atom_site_label_1
_geom_bond_atom_site_label_2
_geom_bond_site_symmetry_1
_geom_bond_site_symmetry_2
Hg1 S2 1_555 1_555
Cu1 N1 1_555 1_555
S1 C11 1_555 1_555
S2 C12 1_555 1_555
N1 C1 1_555 1_555
N2 H1 1_555 1_555
N3 Cu1 1_555 1_555
H2 N3 1_555 1_555
H3 N3 1_555 1_555
N4 Cu1 1_555 1_555
N5 Cu1 1_555 1_555
C1 C2 1_555 1_555
C2 H4 1_555 1_555
C3 C2 1_555 1_555
H5 C3 1_555 1_555
C4 C3 1_555 1_555
H6 C4 1_555 1_555
C5 C4 1_555 1_555
H7 C5 1_555 1_555
C6 N2 1_555 1_555
C7 N1 1_555 1_555
C8 N3 1_555 1_555
H8 C8 1_555 1_555
H9 C8 1_555 1_555
S3 Hg1 1_555 1_555
C9 S3 1_555 1_555
N6 C9 1_555 1_555
N7 Cu1 1_555 1_555
S4 C10 1_555 1_555
C10 N7 1_555 1_555
C11 N4 1_555 1_555
C12 N5 1_555 1_555
Hg1A S1 1_555 1_555
Hg1C S4 1_555 1_555
S1A Hg1 1_555 1_555
S4C Hg1 1_555 1_555
N2 C7 1_555 1_555
C1 C6 1_555 1_555
C5 C6 1_555 1_555
C7 C8 1_555 1_555

#END
