
#######################################################################
#
#                 Cambridge Crystallographic Data Centre
#                                CCDC 
#
#######################################################################
#
# If this CIF has been generated from an entry in the Cambridge 
# Structural Database, then it will include bibliographic, chemical, 
# crystal, experimental, refinement or atomic coordinate data resulting 
# from the CCDC's data processing and validation procedures.
#
#######################################################################

data_GIFHAG
_symmetry_cell_setting           triclinic
_symmetry_space_group_name_H-M   'P -1'
_symmetry_Int_Tables_number      2
_space_group_name_Hall           '-P 1'
loop_
_symmetry_equiv_pos_site_id
_symmetry_equiv_pos_as_xyz
1 x,y,z
2 -x,-y,-z
_cell_length_a                   8.4360(7)
_cell_length_b                   8.5445(7)
_cell_length_c                   17.5406(7)
_cell_angle_alpha                99.374(14)
_cell_angle_beta                 94.664(6)
_cell_angle_gamma                108.179(6)
_cell_volume                     1173.37
loop_
_atom_site_label
_atom_site_type_symbol
_atom_site_fract_x
_atom_site_fract_y
_atom_site_fract_z
Cu1 Cu 0.5000 1.5000 0.5000
N1 N 0.6819(14) 1.4017(14) 0.4745(7)
N2 N 0.5219(15) 1.5526(15) 0.3933(7)
H1 H 0.4197 1.5411 0.3688
H2 H 0.5884 1.6598 0.3975
C1 C 0.7772(19) 1.348(2) 0.5223(10)
H3 H 0.7602 1.3557 0.5743
C2 C 0.896(2) 1.284(2) 0.4987(14)
H4 H 0.9568 1.2456 0.5337
C3 C 0.928(2) 1.276(2) 0.4243(14)
H5 H 1.0126 1.2359 0.4079
C4 C 0.832(2) 1.328(2) 0.3729(11)
H6 H 0.8498 1.3230 0.3210
C5 C 0.7102(18) 1.3878(18) 0.3993(9)
C6 C 0.594(2) 1.440(2) 0.3473(9)
H7 H 0.6560 1.4961 0.3097
H8 H 0.5044 1.3407 0.3187
Cu2 Cu -0.5000 0.5000 0.0000
N3 N -0.4446(15) 0.3336(14) 0.0564(7)
N4 N -0.3596(16) 0.4304(16) -0.0756(7)
H9 H -0.4255 0.3756 -0.1212
H10 H -0.2819 0.5226 -0.0846
C7 C -0.504(2) 0.280(2) 0.1190(10)
H11 H -0.5785 0.3268 0.1424
C8 C -0.463(2) 0.159(2) 0.1506(10)
H12 H -0.5080 0.1248 0.1942
C9 C -0.355(2) 0.089(2) 0.1176(11)
H13 H -0.3234 0.0085 0.1388
C10 C -0.291(2) 0.139(2) 0.0518(11)
H14 H -0.2173 0.0933 0.0275
C11 C -0.343(2) 0.2619(18) 0.0235(9)
C12 C -0.275(2) 0.322(2) -0.0470(11)
H15 H -0.1551 0.3828 -0.0338
H16 H -0.2897 0.2253 -0.0880
Hg1 Hg 0.08359(9) 0.83992(9) 0.25304(4)
N5 N 0.218(2) 0.430(2) 0.2690(10)
N6 N 0.2962(18) 1.1880(19) 0.4502(9)
N7 N -0.416(2) 0.765(2) 0.2209(10)
N8 N -0.187(3) 0.731(2) 0.0438(12)
S1 S -0.0140(6) 0.5325(5) 0.1862(3)
S2 S 0.3628(5) 0.9476(5) 0.3380(3)
S3 S -0.1429(6) 0.8691(6) 0.3392(3)
S4 S 0.0577(6) 1.0007(6) 0.1448(3)
C13 C 0.127(2) 0.473(2) 0.2347(10)
C14 C 0.3174(18) 1.087(2) 0.4058(10)
C15 C -0.301(2) 0.809(2) 0.2673(10)
C16 C -0.085(3) 0.840(2) 0.0845(11)
N3A N -0.5554(15) 0.6664(14) -0.0564(7)
N4A N -0.6404(16) 0.5696(16) 0.0756(7)
H9A H -0.5745 0.6244 0.1212
H10A H -0.7181 0.4774 0.0846
C7A C -0.496(2) 0.720(2) -0.1190(10)
H11A H -0.4215 0.6732 -0.1424
C8A C -0.537(2) 0.841(2) -0.1506(10)
H12A H -0.4920 0.8752 -0.1942
C9A C -0.645(2) 0.911(2) -0.1176(11)
H13A H -0.6766 0.9915 -0.1388
C10A C -0.709(2) 0.861(2) -0.0518(11)
H14A H -0.7827 0.9067 -0.0275
C11A C -0.657(2) 0.7381(18) -0.0235(9)
C12A C -0.725(2) 0.678(2) 0.0470(11)
H15A H -0.8449 0.6172 0.0338
H16A H -0.7103 0.7747 0.0880
Hg1A Hg -1.08359(9) 0.16008(9) -0.25304(4)
N5A N -1.218(2) 0.570(2) -0.2690(10)
N6A N -1.2962(18) -0.1880(19) -0.4502(9)
N7A N -0.584(2) 0.235(2) -0.2209(10)
N8A N -0.813(3) 0.269(2) -0.0438(12)
S1A S -0.9860(6) 0.4675(5) -0.1862(3)
S2A S -1.3628(5) 0.0524(5) -0.3380(3)
S3A S -0.8571(6) 0.1309(6) -0.3392(3)
S4A S -1.0577(6) -0.0007(6) -0.1448(3)
C13A C -1.127(2) 0.527(2) -0.2347(10)
C14A C -1.3174(18) -0.087(2) -0.4058(10)
C15A C -0.699(2) 0.191(2) -0.2673(10)
C16A C -0.915(3) 0.160(2) -0.0845(11)
N1A N 0.3181(14) 1.5983(14) 0.5255(7)
N2A N 0.4781(15) 1.4474(15) 0.6067(7)
H1A H 0.5803 1.4589 0.6312
H2A H 0.4116 1.3402 0.6025
C1A C 0.2228(19) 1.652(2) 0.4777(10)
H3A H 0.2398 1.6443 0.4257
C2A C 0.104(2) 1.716(2) 0.5013(14)
H4A H 0.0432 1.7544 0.4663
C3A C 0.072(2) 1.724(2) 0.5757(14)
H5A H -0.0126 1.7641 0.5921
C4A C 0.168(2) 1.672(2) 0.6271(11)
H6A H 0.1502 1.6770 0.6790
C5A C 0.2898(18) 1.6122(18) 0.6007(9)
C6A C 0.406(2) 1.560(2) 0.6527(9)
H7A H 0.3440 1.5039 0.6903
H8A H 0.4956 1.6593 0.6813
Cu1_2 Cu -1.5000 -0.5000 -0.5000
N6A_2 N 0.7038(18) 1.8120(19) 0.5498(9)
loop_
_geom_bond_atom_site_label_1
_geom_bond_atom_site_label_2
_geom_bond_site_symmetry_1
_geom_bond_site_symmetry_2
Cu1 N1 1_555 1_555
N1 C1 1_555 1_555
N2 Cu1 1_555 1_555
H1 N2 1_555 1_555
H2 N2 1_555 1_555
C1 H3 1_555 1_555
C2 C1 1_555 1_555
H4 C2 1_555 1_555
C3 C2 1_555 1_555
H5 C3 1_555 1_555
C4 C3 1_555 1_555
H6 C4 1_555 1_555
C5 N1 1_555 1_555
C6 N2 1_555 1_555
H7 C6 1_555 1_555
H8 C6 1_555 1_555
Cu2 N3 1_555 1_555
N3 C7 1_555 1_555
N4 Cu2 1_555 1_555
H9 N4 1_555 1_555
H10 N4 1_555 1_555
C7 H11 1_555 1_555
C8 C7 1_555 1_555
H12 C8 1_555 1_555
C9 C8 1_555 1_555
H13 C9 1_555 1_555
C10 C9 1_555 1_555
H14 C10 1_555 1_555
C11 N3 1_555 1_555
C12 N4 1_555 1_555
H15 C12 1_555 1_555
H16 C12 1_555 1_555
Hg1 S1 1_555 1_555
N5 C13 1_555 1_555
N6 Cu1 1_555 1_555
N7 C15 1_555 1_555
N8 Cu2 1_555 1_555
S1 C13 1_555 1_555
S2 Hg1 1_555 1_555
S3 Hg1 1_555 1_555
S4 Hg1 1_555 1_555
C14 N6 1_555 1_555
C15 S3 1_555 1_555
C16 N8 1_555 1_555
N3A Cu2 1_555 1_555
N4A Cu2 1_555 1_555
H9A N4A 1_555 1_555
H10A N4A 1_555 1_555
C7A N3A 1_555 1_555
H11A C7A 1_555 1_555
C8A C7A 1_555 1_555
H12A C8A 1_555 1_555
C9A C8A 1_555 1_555
H13A C9A 1_555 1_555
C10A C9A 1_555 1_555
H14A C10A 1_555 1_555
C11A N3A 1_555 1_555
C12A N4A 1_555 1_555
H15A C12A 1_555 1_555
H16A C12A 1_555 1_555
Hg1A S1A 1_555 1_555
N5A C13A 1_555 1_555
N6A C14A 1_555 1_555
N7A C15A 1_555 1_555
N8A Cu2 1_555 1_555
S1A C13A 1_555 1_555
S2A Hg1A 1_555 1_555
S3A Hg1A 1_555 1_555
S4A Hg1A 1_555 1_555
C14A S2A 1_555 1_555
C15A S3A 1_555 1_555
C16A N8A 1_555 1_555
N1A Cu1 1_555 1_555
N2A Cu1 1_555 1_555
H1A N2A 1_555 1_555
H2A N2A 1_555 1_555
C1A N1A 1_555 1_555
H3A C1A 1_555 1_555
C2A C1A 1_555 1_555
H4A C2A 1_555 1_555
C3A C2A 1_555 1_555
H5A C3A 1_555 1_555
C4A C3A 1_555 1_555
H6A C4A 1_555 1_555
C5A N1A 1_555 1_555
C6A N2A 1_555 1_555
H7A C6A 1_555 1_555
H8A C6A 1_555 1_555
Cu1_2 N6A 1_555 1_555
N6A_2 Cu1 1_555 1_555
C4 C5 1_555 1_555
C5 C6 1_555 1_555
C10 C11 1_555 1_555
C11 C12 1_555 1_555
S2 C14 1_555 1_555
S4 C16 1_555 1_555
C10A C11A 1_555 1_555
C11A C12A 1_555 1_555
S4A C16A 1_555 1_555
C4A C5A 1_555 1_555
C5A C6A 1_555 1_555

#END
