
#######################################################################
#
#                 Cambridge Crystallographic Data Centre
#                                CCDC 
#
#######################################################################
#
# If this CIF has been generated from an entry in the Cambridge 
# Structural Database, then it will include bibliographic, chemical, 
# crystal, experimental, refinement or atomic coordinate data resulting 
# from the CCDC's data processing and validation procedures.
#
#######################################################################

data_GIFHEK
_symmetry_cell_setting           tetragonal
_symmetry_space_group_name_H-M   'I 41/a'
_symmetry_Int_Tables_number      88
_space_group_name_Hall           '-I 4ad'
loop_
_symmetry_equiv_pos_site_id
_symmetry_equiv_pos_as_xyz
1 x,y,z
2 1/2-x,-y,1/2+z
3 3/4-y,1/4+x,1/4+z
4 3/4+y,3/4-x,3/4+z
5 1/2+x,1/2+y,1/2+z
6 -x,1/2-y,z
7 1/4-y,3/4+x,3/4+z
8 1/4+y,1/4-x,1/4+z
9 -x,-y,-z
10 1/2+x,y,1/2-z
11 1/4+y,3/4-x,3/4-z
12 1/4-y,1/4+x,1/4-z
13 1/2-x,1/2-y,1/2-z
14 x,1/2+y,-z
15 3/4+y,1/4-x,1/4-z
16 3/4-y,3/4+x,3/4-z
_cell_length_a                   12.7155(18)
_cell_length_b                   12.7155(18)
_cell_length_c                   44.493(9)
_cell_angle_alpha                90
_cell_angle_beta                 90
_cell_angle_gamma                90
_cell_volume                     7193.8
loop_
_atom_site_label
_atom_site_type_symbol
_atom_site_fract_x
_atom_site_fract_y
_atom_site_fract_z
Cu1 Cu 0.0000 -0.2500 0.078706(16)
N1 N 0.1101(3) -0.2644(3) 0.04643(7)
N2 N 0.1871(3) -0.3373(3) 0.04658(8)
H1 H 0.1939 -0.3856 0.0600
N3 N 0.1084(3) -0.2727(3) 0.11091(7)
N4 N 0.1066(3) -0.3596(3) 0.12823(8)
H2 H 0.0596 -0.4081 0.1270
C1 C 0.2149(4) -0.2369(4) 0.00679(10)
C2 C 0.2671(4) -0.2040(4) -0.01924(11)
H3 H 0.2438 -0.1460 -0.0301
C3 C 0.3519(5) -0.2587(6) -0.02805(13)
H4 H 0.3867 -0.2386 -0.0455
C4 C 0.3897(5) -0.3450(6) -0.01181(15)
H5 H 0.4496 -0.3797 -0.0185
C5 C 0.3407(4) -0.3796(5) 0.01371(13)
H6 H 0.3653 -0.4374 0.0244
C6 C 0.2524(4) -0.3241(4) 0.02285(10)
C7 C 0.1263(4) -0.2049(3) 0.02252(10)
H7 H 0.0837 -0.1488 0.0169
C8 C 0.1878(4) -0.3612(3) 0.14777(10)
C9 C 0.2170(4) -0.4360(4) 0.16922(11)
H8 H 0.1797 -0.4982 0.1719
C10 C 0.3030(5) -0.4124(5) 0.18574(13)
H9 H 0.3244 -0.4597 0.2005
C11 C 0.3605(5) -0.3215(5) 0.18180(14)
H10 H 0.4193 -0.3096 0.1937
C12 C 0.3329(5) -0.2487(5) 0.16080(14)
H11 H 0.3720 -0.1875 0.1583
C13 C 0.2442(4) -0.2687(4) 0.14316(11)
C14 C 0.1903(4) -0.2174(4) 0.11981(11)
H12 H 0.2099 -0.1529 0.1117
Hg1 Hg 0.0000 0.2500 0.073573(6)
C15 C 0.2015(3) 0.4022(4) 0.09129(10)
C16 C 0.0341(3) 0.0033(3) 0.06269(10)
N5 N 0.2312(4) 0.4802(4) 0.08196(10)
N6 N 0.0286(3) -0.0658(3) 0.07888(9)
S1 S 0.15980(9) 0.28953(10) 0.10597(3)
S2 S 0.04561(12) 0.09988(9) 0.03811(3)
N1E N -0.1101(3) -0.2356(3) 0.04643(7)
N2E N -0.1871(3) -0.1627(3) 0.04658(8)
H1E H -0.1939 -0.1144 0.0600
N3E N -0.1084(3) -0.2273(3) 0.11091(7)
N4E N -0.1066(3) -0.1404(3) 0.12823(8)
H2E H -0.0596 -0.0919 0.1270
C1E C -0.2149(4) -0.2631(4) 0.00679(10)
C2E C -0.2671(4) -0.2960(4) -0.01924(11)
H3E H -0.2438 -0.3540 -0.0301
C3E C -0.3519(5) -0.2413(6) -0.02805(13)
H4E H -0.3867 -0.2614 -0.0455
C4E C -0.3897(5) -0.1550(6) -0.01181(15)
H5E H -0.4496 -0.1203 -0.0185
C5E C -0.3407(4) -0.1204(5) 0.01371(13)
H6E H -0.3653 -0.0626 0.0244
C6E C -0.2524(4) -0.1759(4) 0.02285(10)
C7E C -0.1263(4) -0.2951(3) 0.02252(10)
H7E H -0.0837 -0.3512 0.0169
C8E C -0.1878(4) -0.1388(3) 0.14777(10)
C9E C -0.2170(4) -0.0640(4) 0.16922(11)
H8E H -0.1797 -0.0018 0.1719
C10E C -0.3030(5) -0.0876(5) 0.18574(13)
H9E H -0.3244 -0.0403 0.2005
C11E C -0.3605(5) -0.1785(5) 0.18180(14)
H10E H -0.4193 -0.1904 0.1937
C12E C -0.3329(5) -0.2513(5) 0.16080(14)
H11E H -0.3720 -0.3125 0.1583
C13E C -0.2442(4) -0.2313(4) 0.14316(11)
C14E C -0.1903(4) -0.2826(4) 0.11981(11)
H12E H -0.2099 -0.3471 0.1117
C16E C -0.0341(3) -0.5033(3) 0.06269(10)
N6E N -0.0286(3) -0.4342(3) 0.07888(9)
S2E S -0.04561(12) -0.59988(9) 0.03811(3)
C15E C -0.2015(3) 0.0978(4) 0.09129(10)
N5E N -0.2312(4) 0.0198(4) 0.08196(10)
S1E S -0.15980(9) 0.21047(10) 0.10597(3)
Hg1_2 Hg 0.0000 -0.7500 0.073573(6)
S2E_2 S -0.04561(12) 0.40012(9) 0.03811(3)
loop_
_geom_bond_atom_site_label_1
_geom_bond_atom_site_label_2
_geom_bond_site_symmetry_1
_geom_bond_site_symmetry_2
Cu1 N1 1_555 1_555
N1 N2 1_555 1_555
N2 H1 1_555 1_555
N3 Cu1 1_555 1_555
N4 N3 1_555 1_555
H2 N4 1_555 1_555
C1 C2 1_555 1_555
C2 H3 1_555 1_555
C3 C2 1_555 1_555
H4 C3 1_555 1_555
C4 C3 1_555 1_555
H5 C4 1_555 1_555
C5 C4 1_555 1_555
H6 C5 1_555 1_555
C6 N2 1_555 1_555
C7 N1 1_555 1_555
H7 C7 1_555 1_555
C8 N4 1_555 1_555
C9 C8 1_555 1_555
H8 C9 1_555 1_555
C10 C9 1_555 1_555
H9 C10 1_555 1_555
C11 C10 1_555 1_555
H10 C11 1_555 1_555
C12 C11 1_555 1_555
H11 C12 1_555 1_555
C13 C8 1_555 1_555
C14 N3 1_555 1_555
H12 C14 1_555 1_555
Hg1 S1 1_555 1_555
C15 N5 1_555 1_555
C16 N6 1_555 1_555
N6 Cu1 1_555 1_555
S1 C15 1_555 1_555
S2 Hg1 1_555 1_555
N1E Cu1 1_555 1_555
N2E N1E 1_555 1_555
H1E N2E 1_555 1_555
N3E Cu1 1_555 1_555
N4E N3E 1_555 1_555
H2E N4E 1_555 1_555
C1E C2E 1_555 1_555
C2E H3E 1_555 1_555
C3E C2E 1_555 1_555
H4E C3E 1_555 1_555
C4E C3E 1_555 1_555
H5E C4E 1_555 1_555
C5E C4E 1_555 1_555
H6E C5E 1_555 1_555
C6E N2E 1_555 1_555
C7E N1E 1_555 1_555
H7E C7E 1_555 1_555
C8E N4E 1_555 1_555
C9E C8E 1_555 1_555
H8E C9E 1_555 1_555
C10E C9E 1_555 1_555
H9E C10E 1_555 1_555
C11E C10E 1_555 1_555
H10E C11E 1_555 1_555
C12E C11E 1_555 1_555
H11E C12E 1_555 1_555
C13E C8E 1_555 1_555
C14E N3E 1_555 1_555
H12E C14E 1_555 1_555
C16E N6E 1_555 1_555
N6E Cu1 1_555 1_555
S2E C16E 1_555 1_555
C15E N5E 1_555 1_555
S1E Hg1 1_555 1_555
Hg1_2 S2E 1_555 1_555
S2E_2 Hg1 1_555 1_555
C1 C6 1_555 1_555
C1 C7 1_555 1_555
C5 C6 1_555 1_555
C12 C13 1_555 1_555
C13 C14 1_555 1_555
C16 S2 1_555 1_555
C1E C6E 1_555 1_555
C1E C7E 1_555 1_555
C5E C6E 1_555 1_555
C12E C13E 1_555 1_555
C13E C14E 1_555 1_555
C15E S1E 1_555 1_555

#END
