
#######################################################################
#
#                 Cambridge Crystallographic Data Centre
#                                CCDC 
#
#######################################################################
#
# If this CIF has been generated from an entry in the Cambridge 
# Structural Database, then it will include bibliographic, chemical, 
# crystal, experimental, refinement or atomic coordinate data resulting 
# from the CCDC's data processing and validation procedures.
#
#######################################################################

data_GIFKAI
_symmetry_cell_setting           monoclinic
_symmetry_space_group_name_H-M   'P 21/c'
_symmetry_Int_Tables_number      14
_space_group_name_Hall           '-P 2ybc'
loop_
_symmetry_equiv_pos_site_id
_symmetry_equiv_pos_as_xyz
1 x,y,z
2 -x,1/2+y,1/2-z
3 -x,-y,-z
4 x,1/2-y,1/2+z
_cell_length_a                   12.6949(5)
_cell_length_b                   8.1234(3)
_cell_length_c                   13.5201(6)
_cell_angle_alpha                90
_cell_angle_beta                 106.714(2)
_cell_angle_gamma                90
_cell_volume                     1335.37
loop_
_atom_site_label
_atom_site_type_symbol
_atom_site_fract_x
_atom_site_fract_y
_atom_site_fract_z
C1 C 0.2730(2) 0.0630(3) 0.0929(2)
C2 C 0.7297(3) -0.5326(4) -0.1057(3)
H1 H 0.7959 -0.5969 -0.0892
H2 H 0.7389 -0.4367 -0.1439
H3 H 0.6696 -0.5973 -0.1467
C3 C 0.52406(19) -0.2525(3) 0.0766(2)
C4 C 0.4510(2) -0.2026(3) -0.0202(2)
H4 H 0.4585 -0.2395 -0.083
C5 C 0.37141(19) -0.0994(3) -0.0143(2)
H5 H 0.3215 -0.0613 -0.0747
C6 C 0.36142(19) -0.0448(3) 0.0866(2)
C7 C 0.4349(2) -0.0963(3) 0.1820(2)
H6 H 0.4272 -0.0599 0.2448
C8 C 0.5152(2) -0.1990(3) 0.1778(2)
H7 H 0.5651 -0.2366 0.2382
N1 N 0.70525(17) -0.4798(3) -0.00604(18)
N2 N 0.62224(18) -0.3972(3) -0.01943(18)
N3 N 0.60734(19) -0.3531(3) 0.0768(2)
O1 O 0.76658(17) -0.5174(3) 0.08788(17)
O2 O 1.14008(19) -0.6880(3) 0.2738(2)
O3 O 0.8925(2) -0.8260(3) 0.11224(19)
H8 H 0.813 -0.8314 0.0957
H9 H 0.9177 -0.8743 0.0575
O4 O 0.9652(3) -0.2792(4) -0.0069(3)
O5 O 1.1079(3) -0.1308(4) 0.1900(3)
O6 O 0.20517(15) 0.0983(3) 0.00412(15)
O7 O 0.26917(15) 0.1086(3) 0.18572(15)
K1 K 0.99323(6) -0.45473(10) 0.18125(6)
H10 H 0.646(3) -0.377(4) 0.131(3)
H11 H 1.185(4) -0.664(6) 0.337(4)
H12 H 1.185(4) -0.739(6) 0.240(3)
H13 H 0.987(4) -0.237(5) -0.033(3)
H14 H 0.896(5) -0.220(8) -0.027(4)
H15 H 1.183(6) -0.053(8) 0.201(5)
H16 H 1.104(16) -0.17(2) 0.120(16)
O2A O 0.85992(19) -0.1880(3) 0.2262(2)
O3A O 1.1075(2) -0.3260(3) 0.38776(19)
H8A H 1.187 -0.3314 0.4043
H9A H 1.0823 -0.3743 0.4425
O5A O 0.8921(3) -0.6308(4) 0.3100(3)
K1A K 1.00677(6) -0.95473(10) 0.31875(6)
K1A_2 K 1.00677(6) 0.04527(10) 0.31875(6)
H11A H 0.815(4) -0.164(6) 0.163(4)
H12A H 0.815(4) -0.239(6) 0.260(3)
H15A H 0.817(6) -0.553(8) 0.299(5)
H16A H 0.896(16) -0.67(2) 0.380(16)
loop_
_geom_bond_atom_site_label_1
_geom_bond_atom_site_label_2
_geom_bond_site_symmetry_1
_geom_bond_site_symmetry_2
C1 C6 1_555 1_555
C2 H1 1_555 1_555
H2 C2 1_555 1_555
H3 C2 1_555 1_555
C3 C4 1_555 1_555
C4 H4 1_555 1_555
C5 C4 1_555 1_555
H5 C5 1_555 1_555
C6 C5 1_555 1_555
C7 C6 1_555 1_555
H6 C7 1_555 1_555
C8 C3 1_555 1_555
H7 C8 1_555 1_555
N1 C2 1_555 1_555
N2 N1 1_555 1_555
N3 C3 1_555 1_555
O1 N1 1_555 1_555
O2 K1 1_555 1_555
O3 H8 1_555 1_555
H9 O3 1_555 1_555
O4 K1 1_555 1_555
O5 K1 1_555 1_555
O6 C1 1_555 1_555
O7 C1 1_555 1_555
K1 O1 1_555 1_555
H10 N3 1_555 1_555
H11 O2 1_555 1_555
H12 O2 1_555 1_555
H13 O4 1_555 1_555
H14 O4 1_555 1_555
H15 O5 1_555 1_555
H16 O5 1_555 1_555
O2A K1 1_555 1_555
O3A K1 1_555 1_555
H8A O3A 1_555 1_555
H9A O3A 1_555 1_555
O5A K1 1_555 1_555
K1A O2 1_555 1_555
K1A_2 O5 1_555 1_555
H11A O2A 1_555 1_555
H12A O2A 1_555 1_555
H15A O5A 1_555 1_555
H16A O5A 1_555 1_555
C7 C8 1_555 1_555
N2 N3 1_555 1_555
O3 K1 1_555 1_555
O3 K1A 1_555 1_555
O2A K1A_2 1_555 1_555
O3A K1A_2 1_555 1_555
O5A K1A 1_555 1_555

#END
