
#######################################################################
#
#                 Cambridge Crystallographic Data Centre
#                                CCDC 
#
#######################################################################
#
# If this CIF has been generated from an entry in the Cambridge 
# Structural Database, then it will include bibliographic, chemical, 
# crystal, experimental, refinement or atomic coordinate data resulting 
# from the CCDC's data processing and validation procedures.
#
#######################################################################

data_GIFKUC
_symmetry_cell_setting           monoclinic
_symmetry_space_group_name_H-M   'P 21/c'
_symmetry_Int_Tables_number      14
_space_group_name_Hall           '-P 2ybc'
loop_
_symmetry_equiv_pos_site_id
_symmetry_equiv_pos_as_xyz
1 x,y,z
2 -x,1/2+y,1/2-z
3 -x,-y,-z
4 x,1/2-y,1/2+z
_cell_length_a                   7.8267(8)
_cell_length_b                   10.6504(10)
_cell_length_c                   14.9796(14)
_cell_angle_alpha                90
_cell_angle_beta                 90.702(2)
_cell_angle_gamma                90
_cell_volume                     1248.57
loop_
_atom_site_label
_atom_site_type_symbol
_atom_site_fract_x
_atom_site_fract_y
_atom_site_fract_z
Cu1 Cu -0.61620(4) -0.41099(3) -0.00350(2)
O1 O -0.2597(3) -0.0171(2) -0.41178(14)
O2 O -0.4617(3) -0.1651(2) -0.41380(14)
O3 O -0.4655(3) -0.3567(2) -0.10125(14)
O4 O -0.2634(3) -0.5051(2) -0.09389(14)
O5 O -0.7612(3) -0.2405(2) -0.02135(16)
N1 N 0.2188(4) -0.2559(3) -0.2473(2)
N2 N -0.7573(6) -0.0342(3) 0.0094(3)
H1 H 0.257(7) -0.185(3) -0.273(3)
H2 H 0.263(7) -0.277(5) -0.1939(18)
C1 C -0.3229(4) -0.1193(3) -0.38667(18)
C2 C -0.2260(4) -0.1927(3) -0.31770(19)
C3 C -0.3160(4) -0.2665(3) -0.25775(19)
H3 H -0.4347 -0.2696 -0.2606
C4 C -0.2278(4) -0.3351(3) -0.19402(19)
C5 C -0.3265(4) -0.4053(3) -0.12454(19)
C6 C -0.0502(4) -0.3337(3) -0.1908(2)
H4 H 0.0082 -0.3834 -0.1495
C7 C 0.0400(4) -0.2577(3) -0.2494(2)
C8 C -0.0494(4) -0.1859(3) -0.3125(2)
H5 H 0.0096 -0.1334 -0.3510
C9 C -0.7495(5) -0.1530(4) 0.0303(3)
H6 H -0.7335 -0.1725 0.0903
C10 C -0.7744(12) 0.0041(6) -0.0814(5)
H7 H -0.7972 -0.0679 -0.1181
H8 H -0.6705 0.0434 -0.1001
H9 H -0.8672 0.0627 -0.0871
C11 C -0.7436(12) 0.0643(6) 0.0763(6)
H10 H -0.8446 0.1154 0.0743
H11 H -0.6455 0.1154 0.0644
H12 H -0.7318 0.0271 0.1344
Cu1B Cu -0.38380(4) -0.58901(3) 0.00350(2)
Cu1A Cu -0.38380(4) 0.08901(3) -0.49650(2)
Cu1C Cu -0.61620(4) -0.08901(3) -0.50350(2)
O1A O -0.7403(3) -0.5171(2) -0.08822(14)
O2C O -0.4617(3) -0.3349(2) 0.08620(14)
O4B O -0.7366(3) -0.4949(2) 0.09389(14)
loop_
_geom_bond_atom_site_label_1
_geom_bond_atom_site_label_2
_geom_bond_site_symmetry_1
_geom_bond_site_symmetry_2
Cu1 O3 1_555 1_555
O1 C1 1_555 1_555
O2 C1 1_555 1_555
O3 C5 1_555 1_555
O4 C5 1_555 1_555
O5 Cu1 1_555 1_555
N1 H1 1_555 1_555
N2 C9 1_555 1_555
H2 N1 1_555 1_555
C1 C2 1_555 1_555
C2 C3 1_555 1_555
C3 H3 1_555 1_555
C4 C3 1_555 1_555
C5 C4 1_555 1_555
C6 C4 1_555 1_555
H4 C6 1_555 1_555
C7 N1 1_555 1_555
C8 C2 1_555 1_555
H5 C8 1_555 1_555
C9 O5 1_555 1_555
H6 C9 1_555 1_555
C10 N2 1_555 1_555
H7 C10 1_555 1_555
H8 C10 1_555 1_555
H9 C10 1_555 1_555
C11 N2 1_555 1_555
H10 C11 1_555 1_555
H11 C11 1_555 1_555
H12 C11 1_555 1_555
Cu1B Cu1 1_555 1_555
Cu1A O1 1_555 1_555
Cu1C O2 1_555 1_555
O1A Cu1 1_555 1_555
O2C Cu1 1_555 1_555
O4B Cu1 1_555 1_555
O4 Cu1B 1_555 1_555
C6 C7 1_555 1_555
C7 C8 1_555 1_555
Cu1A Cu1C 1_555 1_555

#END
