
#######################################################################
#
#                 Cambridge Crystallographic Data Centre
#                                CCDC 
#
#######################################################################
#
# If this CIF has been generated from an entry in the Cambridge 
# Structural Database, then it will include bibliographic, chemical, 
# crystal, experimental, refinement or atomic coordinate data resulting 
# from the CCDC's data processing and validation procedures.
#
#######################################################################

data_GIFSUL
_symmetry_cell_setting           triclinic
_symmetry_space_group_name_H-M   'P -1'
_symmetry_Int_Tables_number      2
_space_group_name_Hall           '-P 1'
loop_
_symmetry_equiv_pos_site_id
_symmetry_equiv_pos_as_xyz
1 x,y,z
2 -x,-y,-z
_cell_length_a                   7.8291(16)
_cell_length_b                   9.793(2)
_cell_length_c                   15.930(3)
_cell_angle_alpha                105.41(3)
_cell_angle_beta                 103.10(3)
_cell_angle_gamma                96.36(3)
_cell_volume                     1127.63
loop_
_atom_site_label
_atom_site_type_symbol
_atom_site_fract_x
_atom_site_fract_y
_atom_site_fract_z
Cd1 Cd -0.10761(2) 1.047388(16) 0.359654(10)
N1 N 0.0442(3) 0.8581(2) 0.35193(14)
N2 N 0.0893(3) 0.6301(2) 0.32982(16)
N3 N 0.2314(3) 0.7167(2) 0.32369(13)
N4 N 0.3816(3) 0.6544(2) 0.14083(14)
N5 N 0.2274(3) 0.4625(2) 0.15074(14)
H1 H 0.1799 0.4026 0.1735
O1 O -0.1769(2) 1.0605(2) 0.21873(11)
O2 O -0.4128(3) 0.9134(2) 0.21368(12)
H2 H -0.4653 0.8384 0.1744
O3 O -0.6270(2) 1.1512(2) 0.20512(12)
O4 O -0.8513(3) 0.9773(3) 0.11820(15)
O5 O 0.1275(2) 1.20962(17) 0.45900(11)
O6 O 0.2080(2) 1.17396(19) 0.33269(11)
H3 H 0.2831 1.2111 0.3130
O7 O 0.5391(2) 1.12425(18) 0.45331(14)
O8 O 0.7396(2) 1.22847(17) 0.39819(12)
O9 O -0.2862(2) 0.91544(17) 0.41551(11)
H4 H -0.2258 0.8879 0.4566
H5 H -0.3560 0.9678 0.4364
C1 C -0.3310(3) 0.9911(2) 0.18015(14)
C2 C -0.3229(3) 0.9862(2) 0.02387(14)
H6 H -0.2035 0.9782 0.0400
C3 C -0.4191(3) 1.0015(2) 0.08807(14)
C4 C -0.5970(3) 1.0173(2) 0.06437(14)
C5 C -0.7052(3) 1.0432(3) 0.13193(15)
C6 C 0.2293(3) 1.2420(2) 0.41319(14)
C7 C 0.3217(3) 1.5038(2) 0.49499(15)
H7 H 0.2021 1.5062 0.4920
C8 C 0.3728(3) 1.3734(2) 0.45973(14)
C9 C 0.5528(3) 1.3697(2) 0.46539(14)
C10 C 0.6141(3) 1.2285(2) 0.43600(15)
C11 C 0.2027(3) 0.8507(3) 0.33658(17)
H8 H 0.2818 0.9277 0.3351
C12 C -0.0186(3) 0.7201(3) 0.34721(18)
H9 H -0.1293 0.6921 0.3557
C13 C 0.3787(3) 0.6540(3) 0.29683(17)
H10 H 0.4048 0.5806 0.3259
H11 H 0.4846 0.7280 0.3159
C14 C 0.3303(3) 0.5891(2) 0.19693(16)
C15 C 0.3073(3) 0.5650(3) 0.05261(17)
C16 C 0.3183(4) 0.5792(3) -0.0305(2)
H12 H 0.3823 0.6612 -0.0354
C17 C 0.2292(4) 0.4653(4) -0.1053(2)
H13 H 0.2349 0.4699 -0.1622
C18 C 0.1310(4) 0.3434(4) -0.0983(2)
H14 H 0.0733 0.2690 -0.1507
C19 C 0.1163(4) 0.3292(3) -0.01627(19)
H15 H 0.0484 0.2485 -0.0119
C20 C 0.2091(3) 0.4430(3) 0.05957(17)
O1A O -0.8231(2) 0.9395(2) -0.21873(11)
O2A O -0.5872(3) 1.0866(2) -0.21368(12)
H2A H -0.5347 1.1616 -0.1744
O3A O -0.3730(2) 0.8488(2) -0.20512(12)
O4A O -0.1487(3) 1.0227(3) -0.11820(15)
C1A C -0.6690(3) 1.0089(2) -0.18015(14)
C2A C -0.6771(3) 1.0138(2) -0.02387(14)
H6A H -0.7965 1.0218 -0.0400
C3A C -0.5809(3) 0.9985(2) -0.08807(14)
C4A C -0.4030(3) 0.9827(2) -0.06437(14)
C5A C -0.2948(3) 0.9568(3) -0.13193(15)
O5A O 0.8725(2) 1.79038(17) 0.54100(11)
O6A O 0.7920(2) 1.82604(19) 0.66731(11)
H3A H 0.7169 1.7889 0.6870
O7A O 0.4609(2) 1.87575(18) 0.54669(14)
O8A O 0.2604(2) 1.77153(17) 0.60181(12)
C6A C 0.7707(3) 1.7580(2) 0.58681(14)
C7A C 0.6783(3) 1.4962(2) 0.50501(15)
H7A H 0.7979 1.4938 0.5080
C8A C 0.6272(3) 1.6266(2) 0.54027(14)
C9A C 0.4472(3) 1.6303(2) 0.53461(14)
C10A C 0.3859(3) 1.7715(2) 0.56400(15)
Cd1A Cd -0.89239(2) 0.952612(16) -0.359654(10)
N1A N -1.0442(3) 1.1419(2) -0.35193(14)
N2A N -1.0893(3) 1.3699(2) -0.32982(16)
N3A N -1.2314(3) 1.2833(2) -0.32369(13)
N4A N -1.3816(3) 1.3456(2) -0.14083(14)
N5A N -1.2274(3) 1.5375(2) -0.15074(14)
H1A H -1.1799 1.5974 -0.1735
O9A O -0.7138(2) 1.08456(17) -0.41551(11)
H4A H -0.7742 1.1121 -0.4566
H5A H -0.6440 1.0322 -0.4364
C11A C -1.2027(3) 1.1493(3) -0.33658(17)
H8A H -1.2818 1.0723 -0.3351
C12A C -0.9814(3) 1.2799(3) -0.34721(18)
H9A H -0.8707 1.3079 -0.3557
C13A C -1.3787(3) 1.3460(3) -0.29683(17)
H10A H -1.4048 1.4194 -0.3259
H11A H -1.4846 1.2720 -0.3159
C14A C -1.3303(3) 1.4109(2) -0.19693(16)
C15A C -1.3073(3) 1.4350(3) -0.05261(17)
C16A C -1.3183(4) 1.4208(3) 0.0305(2)
H12A H -1.3823 1.3388 0.0354
C17A C -1.2292(4) 1.5347(4) 0.1053(2)
H13A H -1.2349 1.5301 0.1622
C18A C -1.1310(4) 1.6566(4) 0.0983(2)
H14A H -1.0733 1.7310 0.1507
C19A C -1.1163(4) 1.6708(3) 0.01627(19)
H15A H -1.0484 1.7515 0.0119
C20A C -1.2091(3) 1.5570(3) -0.05957(17)
Cd1_2 Cd 0.89239(2) 1.047388(16) 0.359654(10)
Cd1A_2 Cd 0.10761(2) 1.952612(16) 0.640346(10)
Cd1A_3 Cd 1.10761(2) 1.952612(16) 0.640346(10)
O5A_2 O -1.1275(2) 0.79038(17) -0.45900(11)
O6A_2 O -1.2080(2) 0.82604(19) -0.33269(11)
O8_2 O -0.2604(2) 1.22847(17) 0.39819(12)
O8A_2 O -0.7396(2) 0.77153(17) -0.39819(12)
O10 O -0.0094(3) 0.3027(3) 0.19277(19)
H16 H -0.0280 0.2155 0.1927
H17 H -0.0726 0.3475 0.2237
O11 O 0.6863(4) 0.4000(3) 0.27380(18)
H18 H 0.5973 0.3317 0.2480
H19 H 0.7335 0.3797 0.3215
loop_
_geom_bond_atom_site_label_1
_geom_bond_atom_site_label_2
_geom_bond_site_symmetry_1
_geom_bond_site_symmetry_2
Cd1 N1 1_555 1_555
N1 C11 1_555 1_555
N2 N3 1_555 1_555
N3 C11 1_555 1_555
N4 C14 1_555 1_555
N5 H1 1_555 1_555
O1 Cd1 1_555 1_555
O2 H2 1_555 1_555
O3 C5 1_555 1_555
O4 C5 1_555 1_555
O5 Cd1 1_555 1_555
O6 Cd1 1_555 1_555
H3 O6 1_555 1_555
O7 C10 1_555 1_555
O8 C10 1_555 1_555
O9 Cd1 1_555 1_555
H4 O9 1_555 1_555
H5 O9 1_555 1_555
C1 O1 1_555 1_555
C2 H6 1_555 1_555
C3 C1 1_555 1_555
C4 C3 1_555 1_555
C5 C4 1_555 1_555
C6 O5 1_555 1_555
C7 H7 1_555 1_555
C8 C6 1_555 1_555
C9 C8 1_555 1_555
C10 C9 1_555 1_555
C11 H8 1_555 1_555
C12 N1 1_555 1_555
H9 C12 1_555 1_555
C13 N3 1_555 1_555
H10 C13 1_555 1_555
H11 C13 1_555 1_555
C14 N5 1_555 1_555
C15 N4 1_555 1_555
C16 C15 1_555 1_555
H12 C16 1_555 1_555
C17 C16 1_555 1_555
H13 C17 1_555 1_555
C18 C17 1_555 1_555
H14 C18 1_555 1_555
C19 C18 1_555 1_555
H15 C19 1_555 1_555
C20 N5 1_555 1_555
O10 H16 1_555 1_555
H17 O10 1_555 1_555
O11 H18 1_555 1_555
H19 O11 1_555 1_555
O1A C1A 1_555 1_555
O2A H2A 1_555 1_555
O3A C5A 1_555 1_555
O4A C5A 1_555 1_555
C1A O2A 1_555 1_555
C2A C4 1_555 1_555
H6A C2A 1_555 1_555
C3A C1A 1_555 1_555
C4A C2 1_555 1_555
C5A C4A 1_555 1_555
O5A C6A 1_555 1_555
O6A H3A 1_555 1_555
O7A C10A 1_555 1_555
O8A C10A 1_555 1_555
C6A O6A 1_555 1_555
C7A C9 1_555 1_555
H7A C7A 1_555 1_555
C8A C6A 1_555 1_555
C9A C7 1_555 1_555
C10A C9A 1_555 1_555
Cd1A O1A 1_555 1_555
N1A Cd1A 1_555 1_555
N2A N3A 1_555 1_555
N3A C11A 1_555 1_555
N4A C14A 1_555 1_555
N5A H1A 1_555 1_555
O9A Cd1A 1_555 1_555
H4A O9A 1_555 1_555
H5A O9A 1_555 1_555
C11A N1A 1_555 1_555
H8A C11A 1_555 1_555
C12A N1A 1_555 1_555
H9A C12A 1_555 1_555
C13A N3A 1_555 1_555
H10A C13A 1_555 1_555
H11A C13A 1_555 1_555
C14A N5A 1_555 1_555
C15A N4A 1_555 1_555
C16A C15A 1_555 1_555
H12A C16A 1_555 1_555
C17A C16A 1_555 1_555
H13A C17A 1_555 1_555
C18A C17A 1_555 1_555
H14A C18A 1_555 1_555
C19A C18A 1_555 1_555
H15A C19A 1_555 1_555
C20A N5A 1_555 1_555
Cd1_2 O8 1_555 1_555
Cd1A_2 O8A 1_555 1_555
Cd1A_3 O5A 1_555 1_555
O5A_2 Cd1A 1_555 1_555
O6A_2 Cd1A 1_555 1_555
O8_2 Cd1 1_555 1_555
O8A_2 Cd1A 1_555 1_555
N2 C12 1_555 1_555
O2 C1 1_555 1_555
O6 C6 1_555 1_555
C2 C3 1_555 1_555
C7 C8 1_555 1_555
C13 C14 1_555 1_555
C15 C20 1_555 1_555
C19 C20 1_555 1_555
C2A C3A 1_555 1_555
C3A C4A 1_555 1_555
O6A Cd1A_3 1_555 1_555
C7A C8A 1_555 1_555
C8A C9A 1_555 1_555
N2A C12A 1_555 1_555
C13A C14A 1_555 1_555
C15A C20A 1_555 1_555
C19A C20A 1_555 1_555

#END
