
#######################################################################
#
#                 Cambridge Crystallographic Data Centre
#                                CCDC 
#
#######################################################################
#
# If this CIF has been generated from an entry in the Cambridge 
# Structural Database, then it will include bibliographic, chemical, 
# crystal, experimental, refinement or atomic coordinate data resulting 
# from the CCDC's data processing and validation procedures.
#
#######################################################################

data_GIFVIC
_symmetry_cell_setting           monoclinic
_symmetry_space_group_name_H-M   'P 21/n'
_symmetry_Int_Tables_number      14
_space_group_name_Hall           '-P 2yn'
loop_
_symmetry_equiv_pos_site_id
_symmetry_equiv_pos_as_xyz
1 x,y,z
2 1/2-x,1/2+y,1/2-z
3 -x,-y,-z
4 1/2+x,1/2-y,1/2+z
_cell_length_a                   10.985(5)
_cell_length_b                   10.132(5)
_cell_length_c                   14.190(5)
_cell_angle_alpha                90
_cell_angle_beta                 93.051(5)
_cell_angle_gamma                90
_cell_volume                     1577.11
loop_
_atom_site_label
_atom_site_type_symbol
_atom_site_fract_x
_atom_site_fract_y
_atom_site_fract_z
C1 C 0.3679(2) 0.5728(2) 0.19134(15)
C2 C 0.3656(2) 0.6885(2) 0.13871(15)
H1 H 0.3716 0.7694 0.1695
C3 C 0.35444(19) 0.68477(19) 0.04040(15)
C4 C 0.34775(19) 0.56344(19) -0.00478(15)
H2 H 0.3413 0.5603 -0.0704
C5 C 0.3506(2) 0.44674(19) 0.04631(15)
C6 C 0.3611(2) 0.4520(2) 0.14443(15)
H3 H 0.3637 0.3740 0.1791
C7 C 0.3722(2) 0.5804(2) 0.29816(16)
H4 H 0.3860 0.6714 0.3170
H5 H 0.2934 0.5541 0.3197
C8 C 0.5880(2) 0.5166(2) 0.34688(16)
H6 H 0.6255 0.5825 0.3132
C9 C 0.5586(2) 0.3511(2) 0.43640(16)
H7 H 0.5729 0.2798 0.4767
C10 C 0.4470(2) 0.3922(2) 0.40302(17)
H8 H 0.3720 0.3561 0.4166
C11 C 0.4943(2) 0.9635(2) -0.19980(15)
H9 H 0.5250 0.9130 -0.1492
C12 C 0.5367(2) 0.9398(2) -0.28779(15)
H10 H 0.5958 0.8755 -0.2955
C13 C 0.4909(2) 1.0122(2) -0.36519(15)
C14 C 0.4065(2) 1.1107(2) -0.34801(15)
H11 H 0.3762 1.1642 -0.3971
C15 C 0.3683(2) 1.1286(2) -0.25835(15)
H12 H 0.3106 1.1936 -0.2486
C16 C 0.5287(2) 0.9805(2) -0.46002(15)
H13 H 0.5982 0.9290 -0.4646
C17 C 0.3437(2) 0.8095(2) -0.01705(16)
C18 C 0.3400(2) 0.3177(2) -0.00555(16)
Co1 Co 0.32961(3) 1.07215(3) -0.058473(19)
N1 N 0.64764(18) 0.43063(17) 0.40191(13)
N2 N 0.46686(18) 0.49758(19) 0.34529(12)
N3 N 0.41059(17) 1.05617(17) -0.18372(12)
O1 O 0.36839(17) 0.91826(14) 0.02498(11)
O2 O 0.30924(16) 0.80284(15) -0.10108(11)
O3 O 0.34937(16) 0.21128(14) 0.04197(11)
O4 O 0.32095(18) 0.31670(16) -0.09247(12)
C11B C 0.5057(2) 1.0365(2) -0.80020(15)
H9B H 0.4750 1.0870 -0.8508
C12B C 0.4633(2) 1.0602(2) -0.71221(15)
H10B H 0.4042 1.1245 -0.7045
C13B C 0.5091(2) 0.9878(2) -0.63481(15)
C14B C 0.5935(2) 0.8893(2) -0.65199(15)
H11B H 0.6238 0.8358 -0.6029
C15B C 0.6317(2) 0.8714(2) -0.74165(15)
H12B H 0.6894 0.8064 -0.7514
C16B C 0.4713(2) 1.0195(2) -0.53998(15)
H13B H 0.4018 1.0710 -0.5354
N3B N 0.58941(17) 0.94383(17) -0.81628(12)
C1B C 0.6321(2) 1.4272(2) -1.19134(15)
C2B C 0.6344(2) 1.3115(2) -1.13871(15)
H1B H 0.6284 1.2306 -1.1695
C3B C 0.64556(19) 1.31523(19) -1.04040(15)
C4B C 0.65225(19) 1.43656(19) -0.99522(15)
H2B H 0.6587 1.4397 -0.9296
C5B C 0.6494(2) 1.55326(19) -1.04631(15)
C6B C 0.6389(2) 1.5480(2) -1.14443(15)
H3B H 0.6363 1.6260 -1.1791
C7B C 0.6278(2) 1.4196(2) -1.29816(16)
H4B H 0.6140 1.3286 -1.3170
H5B H 0.7066 1.4459 -1.3197
C8B C 0.4120(2) 1.4834(2) -1.34688(16)
H6B H 0.3745 1.4175 -1.3132
C9B C 0.4414(2) 1.6489(2) -1.43640(16)
H7B H 0.4271 1.7202 -1.4767
C10B C 0.5530(2) 1.6078(2) -1.40302(17)
H8B H 0.6280 1.6439 -1.4166
C17B C 0.6563(2) 1.1905(2) -0.98295(16)
C18B C 0.6600(2) 1.6823(2) -0.99445(16)
Co1B Co 0.67039(3) 0.92785(3) -0.941527(19)
N1B N 0.35236(18) 1.56937(17) -1.40191(13)
N2B N 0.53314(18) 1.50242(19) -1.34529(12)
O1B O 0.63161(17) 1.08174(14) -1.02498(11)
O2B O 0.69076(16) 1.19716(15) -0.89892(11)
O3B O 0.65063(16) 1.78872(14) -1.04197(11)
O4B O 0.67905(18) 1.68330(16) -0.90753(12)
Co1_2 Co 0.32961(3) 0.07215(3) -0.058473(19)
Co1A Co 0.17039(3) 1.57215(3) -1.441527(19)
Co1B_2 Co 0.67039(3) 1.92785(3) -0.941527(19)
Co1C Co 0.82961(3) 0.42785(3) 0.441527(19)
N1A N 0.85236(18) 0.93063(17) -0.90191(13)
N1C N 0.14764(18) 1.06937(17) -0.09809(13)
O3_2 O 0.34937(16) 1.21128(14) 0.04197(11)
O3B_2 O 0.65063(16) 0.78872(14) -1.04197(11)
loop_
_geom_bond_atom_site_label_1
_geom_bond_atom_site_label_2
_geom_bond_site_symmetry_1
_geom_bond_site_symmetry_2
C1 C2 1_555 1_555
C2 H1 1_555 1_555
C3 C2 1_555 1_555
C4 C3 1_555 1_555
H2 C4 1_555 1_555
C5 C4 1_555 1_555
C6 C1 1_555 1_555
H3 C6 1_555 1_555
C7 C1 1_555 1_555
H4 C7 1_555 1_555
H5 C7 1_555 1_555
C8 H6 1_555 1_555
C9 H7 1_555 1_555
C10 C9 1_555 1_555
H8 C10 1_555 1_555
C11 H9 1_555 1_555
C12 C11 1_555 1_555
H10 C12 1_555 1_555
C13 C12 1_555 1_555
C14 C13 1_555 1_555
H11 C14 1_555 1_555
C15 C14 1_555 1_555
H12 C15 1_555 1_555
C16 C13 1_555 1_555
H13 C16 1_555 1_555
C17 C3 1_555 1_555
C18 C5 1_555 1_555
Co1 N3 1_555 1_555
N1 C8 1_555 1_555
N2 C7 1_555 1_555
N3 C11 1_555 1_555
O1 C17 1_555 1_555
O2 C17 1_555 1_555
O3 C18 1_555 1_555
O4 C18 1_555 1_555
C11B H9B 1_555 1_555
C12B C11B 1_555 1_555
H10B C12B 1_555 1_555
C13B C12B 1_555 1_555
C14B C13B 1_555 1_555
H11B C14B 1_555 1_555
C15B C14B 1_555 1_555
H12B C15B 1_555 1_555
C16B C16 1_555 1_555
H13B C16B 1_555 1_555
N3B C11B 1_555 1_555
C1B C2B 1_555 1_555
C2B H1B 1_555 1_555
C3B C2B 1_555 1_555
C4B C3B 1_555 1_555
H2B C4B 1_555 1_555
C5B C4B 1_555 1_555
C6B C1B 1_555 1_555
H3B C6B 1_555 1_555
C7B C1B 1_555 1_555
H4B C7B 1_555 1_555
H5B C7B 1_555 1_555
C8B H6B 1_555 1_555
C9B H7B 1_555 1_555
C10B C9B 1_555 1_555
H8B C10B 1_555 1_555
C17B C3B 1_555 1_555
C18B C5B 1_555 1_555
Co1B N3B 1_555 1_555
N1B C8B 1_555 1_555
N2B C7B 1_555 1_555
O1B C17B 1_555 1_555
O2B C17B 1_555 1_555
O3B C18B 1_555 1_555
O4B C18B 1_555 1_555
Co1_2 O3 1_555 1_555
Co1A N1B 1_555 1_555
Co1B_2 O3B 1_555 1_555
Co1C N1 1_555 1_555
N1A Co1B 1_555 1_555
N1C Co1 1_555 1_555
O3_2 Co1 1_555 1_555
O3B_2 Co1B 1_555 1_555
C5 C6 1_555 1_555
C8 N2 1_555 1_555
C9 N1 1_555 1_555
C10 N2 1_555 1_555
C15 N3 1_555 1_555
Co1 O1 1_555 1_555
C13B C16B 1_555 1_555
C15B N3B 1_555 1_555
C5B C6B 1_555 1_555
C8B N2B 1_555 1_555
C9B N1B 1_555 1_555
C10B N2B 1_555 1_555
Co1B O1B 1_555 1_555

#END
