
#######################################################################
#
#                 Cambridge Crystallographic Data Centre
#                                CCDC 
#
#######################################################################
#
# If this CIF has been generated from an entry in the Cambridge 
# Structural Database, then it will include bibliographic, chemical, 
# crystal, experimental, refinement or atomic coordinate data resulting 
# from the CCDC's data processing and validation procedures.
#
#######################################################################

data_GIFVOI
_symmetry_cell_setting           triclinic
_symmetry_space_group_name_H-M   'P -1'
_symmetry_Int_Tables_number      2
_space_group_name_Hall           '-P 1'
loop_
_symmetry_equiv_pos_site_id
_symmetry_equiv_pos_as_xyz
1 x,y,z
2 -x,-y,-z
_cell_length_a                   9.7385(19)
_cell_length_b                   9.8487(18)
_cell_length_c                   14.1656(14)
_cell_angle_alpha                87.555(2)
_cell_angle_beta                 79.562(3)
_cell_angle_gamma                64.531(2)
_cell_volume                     1205.36
loop_
_atom_site_label
_atom_site_type_symbol
_atom_site_fract_x
_atom_site_fract_y
_atom_site_fract_z
C1 C 0.8832(4) 0.6274(4) 0.9169(3)
C2 C 1.0371(5) 0.5950(5) 0.8846(3)
H1 H 1.0768 0.6598 0.9006
C3 C 1.1331(4) 0.4640(4) 0.8276(2)
C4 C 1.0717(4) 0.3708(4) 0.8055(3)
H2 H 1.1343 0.2857 0.7659
C5 C 0.9193(4) 0.3988(4) 0.8401(3)
C6 C 0.8224(4) 0.5306(4) 0.8946(3)
H3 H 0.7185 0.5536 0.9159
C7 C 0.7784(5) 0.7701(4) 0.9781(3)
H4 H 0.7127 0.7476 1.0303
H5 H 0.8411 0.8063 1.0060
C8 C 0.7071(4) 1.0091(4) 0.8891(3)
H6 H 0.7853 1.0313 0.9026
C9 C 0.5087(5) 1.0203(4) 0.8377(3)
H7 H 0.4235 1.0534 0.8073
C10 C 0.5554(4) 0.8964(4) 0.8891(3)
H8 H 0.5099 0.8300 0.9006
C11 C 1.2999(4) 0.4241(5) 0.7960(3)
C12 C 0.8500(5) 0.2978(4) 0.8161(3)
C13 C 0.5729(5) 1.5838(5) 0.6589(3)
H9 H 0.5336 1.6241 0.7214
C14 C 0.5773(4) 1.6785(4) 0.5870(3)
H10 H 0.5418 1.7810 0.6001
C15 C 0.6351(5) 1.6197(5) 0.4951(3)
H11 H 0.6381 1.6817 0.4441
C16 C 0.6896(5) 1.4644(5) 0.4788(3)
H12 H 0.7324 1.4210 0.4172
C17 C 0.6788(5) 1.3784(5) 0.5549(3)
C18 C 0.7355(4) 1.2126(5) 0.5504(3)
C19 C 0.8328(4) 0.9795(5) 0.4977(3)
C20 C 0.9042(4) 0.8428(5) 0.4423(3)
H13 H 0.9314 0.8392 0.3758
C21 C 0.9299(5) 0.7188(5) 0.4928(3)
H14 H 0.9724 0.6261 0.4598
C22 C 0.8949(4) 0.7230(4) 0.5950(3)
H15 H 0.9209 0.6335 0.6272
C23 C 0.8256(5) 0.8533(5) 0.6449(3)
H16 H 0.8001 0.8540 0.7115
C24 C 0.7904(4) 0.9894(4) 0.5988(3)
Co1 Co 0.60873(5) 1.26767(5) 0.75140(3)
N1 N 0.6238(4) 1.4310(4) 0.6439(2)
N2 N 0.7264(4) 1.1376(4) 0.6262(2)
N3 N 0.7951(4) 1.1231(4) 0.4672(3)
H17 H 0.8061 1.1512 0.4091
N4 N 0.6023(4) 1.0918(3) 0.8355(2)
N5 N 0.6824(4) 0.8870(3) 0.9211(2)
O1 O 1.3815(3) 0.3214(3) 0.7371(2)
O2 O 1.3656(3) 0.4763(3) 0.8340(2)
O3 O 0.7089(3) 0.3438(3) 0.83584(19)
O4 O 0.9387(4) 0.1727(4) 0.7807(2)
Co1_2 Co 0.60873(5) 0.26767(5) 0.75140(3)
Co1_3 Co 1.60873(5) 0.26767(5) 0.75140(3)
O1_2 O 0.3815(3) 1.3214(3) 0.7371(2)
O3_2 O 0.7089(3) 1.3438(3) 0.83584(19)
O5 O 0.5000 0.5000 0.0000
H18 H 0.5135 0.4404 0.0447
H18A H 0.4865 0.5596 -0.0447
O6 O 0.5000 0.0000 0.5000
O7? O 0.1751(8) 0.9154(8) 0.8856(4)
H19? H 0.1503 1.0038 0.8652
H20? H 0.2704 0.8772 0.8897
H21? H 0.4557 0.5798 0.0291
loop_
_geom_bond_atom_site_label_1
_geom_bond_atom_site_label_2
_geom_bond_site_symmetry_1
_geom_bond_site_symmetry_2
C1 C2 1_555 1_555
C2 H1 1_555 1_555
C3 C2 1_555 1_555
C4 C3 1_555 1_555
H2 C4 1_555 1_555
C5 C4 1_555 1_555
C6 C1 1_555 1_555
H3 C6 1_555 1_555
C7 C1 1_555 1_555
H4 C7 1_555 1_555
H5 C7 1_555 1_555
C8 H6 1_555 1_555
C9 H7 1_555 1_555
C10 C9 1_555 1_555
H8 C10 1_555 1_555
C11 C3 1_555 1_555
C12 C5 1_555 1_555
C13 H9 1_555 1_555
C14 C13 1_555 1_555
H10 C14 1_555 1_555
C15 C14 1_555 1_555
H11 C15 1_555 1_555
C16 C15 1_555 1_555
H12 C16 1_555 1_555
C17 C16 1_555 1_555
C18 C17 1_555 1_555
C19 C20 1_555 1_555
C20 H13 1_555 1_555
C21 C20 1_555 1_555
H14 C21 1_555 1_555
C22 C21 1_555 1_555
H15 C22 1_555 1_555
C23 C22 1_555 1_555
H16 C23 1_555 1_555
C24 C19 1_555 1_555
Co1 N1 1_555 1_555
N1 C13 1_555 1_555
N2 C18 1_555 1_555
N3 C18 1_555 1_555
H17 N3 1_555 1_555
N4 C8 1_555 1_555
N5 C7 1_555 1_555
O1 C11 1_555 1_555
O2 C11 1_555 1_555
O3 C12 1_555 1_555
O4 C12 1_555 1_555
O5 H18 1_555 1_555
Co1_2 O3 1_555 1_555
Co1_3 O1 1_555 1_555
O1_2 Co1 1_555 1_555
O3_2 Co1 1_555 1_555
H18A O5 1_555 1_555
C5 C6 1_555 1_555
C8 N5 1_555 1_555
C9 N4 1_555 1_555
C10 N5 1_555 1_555
C17 N1 1_555 1_555
C19 N3 1_555 1_555
C23 C24 1_555 1_555
C24 N2 1_555 1_555
Co1 N2 1_555 1_555
Co1 N4 1_555 1_555

#END
