
#######################################################################
#
#                 Cambridge Crystallographic Data Centre
#                                CCDC 
#
#######################################################################
#
# If this CIF has been generated from an entry in the Cambridge 
# Structural Database, then it will include bibliographic, chemical, 
# crystal, experimental, refinement or atomic coordinate data resulting 
# from the CCDC's data processing and validation procedures.
#
#######################################################################

data_GIFVUO
_symmetry_cell_setting           monoclinic
_symmetry_space_group_name_H-M   'P 21/c'
_symmetry_Int_Tables_number      14
_space_group_name_Hall           '-P 2ybc'
loop_
_symmetry_equiv_pos_site_id
_symmetry_equiv_pos_as_xyz
1 x,y,z
2 -x,1/2+y,1/2-z
3 -x,-y,-z
4 x,1/2-y,1/2+z
_cell_length_a                   13.353(2)
_cell_length_b                   11.0086(17)
_cell_length_c                   16.140(3)
_cell_angle_alpha                90
_cell_angle_beta                 93.408(7)
_cell_angle_gamma                90
_cell_volume                     2368.35
loop_
_atom_site_label
_atom_site_type_symbol
_atom_site_fract_x
_atom_site_fract_y
_atom_site_fract_z
C1 C 0.4151(2) 0.6989(3) 0.8788(2)
C2 C 0.3863(2) 0.5895(3) 0.91273(19)
H1 H 0.4025 0.5729 0.9684
C3 C 0.3331(2) 0.5046(3) 0.86381(19)
C4 C 0.3073(2) 0.5306(3) 0.78069(18)
H2 H 0.2710 0.4743 0.7481
C5 C 0.3355(2) 0.6402(3) 0.74631(18)
C6 C 0.3898(2) 0.7226(3) 0.7957(2)
H3 H 0.4099 0.7955 0.7727
C7 C 0.4741(3) 0.7881(3) 0.9338(2)
H4 H 0.4657 0.7677 0.9914
H5 H 0.5448 0.7807 0.9239
C8 C 0.3007(2) 0.3878(3) 0.9005(2)
C9 C 0.3066(2) 0.6696(3) 0.65600(19)
C10 C 0.4809(3) 0.9935(3) 0.8644(2)
H6 H 0.5340 0.9800 0.8307
C11 C 0.4261(3) 1.0965(3) 0.8691(2)
H7 H 0.4361 1.1671 0.8391
C12 C 0.3667(2) 0.9691(3) 0.9533(2)
H8 H 0.3278 0.9335 0.9926
C13 C 0.0974(3) 1.3817(4) 1.0620(3)
H9 H 0.1573 1.4205 1.0782
C14 C 0.0117(4) 1.4216(5) 1.0952(3)
H10 H 0.0128 1.4849 1.1334
C15 C -0.0799(4) 1.3620(5) 1.0687(3)
H11 H -0.1409 1.3857 1.0885
C16 C -0.0744(3) 1.2690(4) 1.0133(3)
H12 H -0.1330 1.2296 0.9944
C17 C 0.0145(3) 1.2326(4) 0.9852(2)
C18 C 0.0259(2) 1.1327(3) 0.9299(2)
C19 C -0.0072(3) 0.9788(3) 0.8432(2)
C20 C -0.0468(3) 0.8884(4) 0.7931(3)
H13 H -0.1155 0.8740 0.7882
C21 C 0.0176(4) 0.8208(5) 0.7510(3)
H14 H -0.0067 0.7578 0.7171
C22 C 0.1205(3) 0.8448(5) 0.7580(3)
H15 H 0.1623 0.7977 0.7270
C23 C 0.1636(3) 0.9340(4) 0.8080(3)
H16 H 0.2325 0.9475 0.8118
C24 C 0.0984(3) 1.0023(3) 0.8523(2)
Co1 Co 0.23582(3) 1.19484(4) 0.95997(3)
N1 N 0.1007(3) 1.2893(3) 1.0072(2)
N2 N 0.1163(2) 1.0963(3) 0.9072(2)
N3 N -0.0489(2) 1.0632(3) 0.8933(2)
H17 H -0.1119 1.0711 0.9004
N4 N 0.3532(2) 1.0806(3) 0.92513(17)
N5 N 0.4426(2) 0.9131(2) 0.91899(16)
O1 O 0.3175(2) 0.3665(2) 0.97684(15)
O2 O 0.2542(2) 0.3109(2) 0.85464(15)
O3 O 0.25039(17) 0.5940(2) 0.61607(14)
O4 O 0.3393(3) 0.7630(3) 0.62618(17)
O5 O 0.2628(2) 1.1376(2) 1.07898(16)
H18 H 0.2611 1.0676 1.0968
H19 H 0.2812 1.1814 1.1208
Co1_2 Co 0.23582(3) 0.19484(4) 0.95997(3)
O1_2 O 0.3175(2) 1.3665(2) 0.97684(15)
O2_2 O 0.2542(2) 1.3109(2) 0.85464(15)
O6 O 0.3521(4) 1.0140(3) 0.6362(2)
H20 H 0.3459 0.9369 0.6365
H21 H 0.3613 1.0363 0.5868
O7 O 0.2896(7) 0.2816(4) 0.2020(3)
H22 H 0.3131 0.3514 0.1965
H23 H 0.2760 0.2676 0.2518
loop_
_geom_bond_atom_site_label_1
_geom_bond_atom_site_label_2
_geom_bond_site_symmetry_1
_geom_bond_site_symmetry_2
C1 C2 1_555 1_555
C2 H1 1_555 1_555
C3 C2 1_555 1_555
C4 C3 1_555 1_555
H2 C4 1_555 1_555
C5 C4 1_555 1_555
C6 C1 1_555 1_555
H3 C6 1_555 1_555
C7 C1 1_555 1_555
H4 C7 1_555 1_555
H5 C7 1_555 1_555
C8 C3 1_555 1_555
C9 C5 1_555 1_555
C10 H6 1_555 1_555
C11 C10 1_555 1_555
H7 C11 1_555 1_555
C12 H8 1_555 1_555
C13 H9 1_555 1_555
C14 C13 1_555 1_555
H10 C14 1_555 1_555
C15 C14 1_555 1_555
H11 C15 1_555 1_555
C16 C15 1_555 1_555
H12 C16 1_555 1_555
C17 C16 1_555 1_555
C18 C17 1_555 1_555
C19 C20 1_555 1_555
C20 H13 1_555 1_555
C21 C20 1_555 1_555
H14 C21 1_555 1_555
C22 C21 1_555 1_555
H15 C22 1_555 1_555
C23 C22 1_555 1_555
H16 C23 1_555 1_555
C24 C19 1_555 1_555
Co1 N1 1_555 1_555
N1 C13 1_555 1_555
N2 C18 1_555 1_555
N3 C18 1_555 1_555
H17 N3 1_555 1_555
N4 C11 1_555 1_555
N5 C7 1_555 1_555
O1 C8 1_555 1_555
O2 C8 1_555 1_555
O3 C9 1_555 1_555
O4 C9 1_555 1_555
O5 Co1 1_555 1_555
H18 O5 1_555 1_555
H19 O5 1_555 1_555
O6 H20 1_555 1_555
H21 O6 1_555 1_555
O7 H22 1_555 1_555
H23 O7 1_555 1_555
Co1_2 O1 1_555 1_555
O1_2 Co1 1_555 1_555
O2_2 Co1 1_555 1_555
C5 C6 1_555 1_555
C10 N5 1_555 1_555
C12 N4 1_555 1_555
C12 N5 1_555 1_555
C17 N1 1_555 1_555
C19 N3 1_555 1_555
C23 C24 1_555 1_555
C24 N2 1_555 1_555
Co1 N2 1_555 1_555
Co1 N4 1_555 1_555
O2 Co1_2 1_555 1_555

#END
