
#######################################################################
#
#                 Cambridge Crystallographic Data Centre
#                                CCDC 
#
#######################################################################
#
# If this CIF has been generated from an entry in the Cambridge 
# Structural Database, then it will include bibliographic, chemical, 
# crystal, experimental, refinement or atomic coordinate data resulting 
# from the CCDC's data processing and validation procedures.
#
#######################################################################

data_GIFVEY
_symmetry_cell_setting           monoclinic
_symmetry_space_group_name_H-M   'P 21/c'
_symmetry_Int_Tables_number      14
_space_group_name_Hall           '-P 2ybc'
loop_
_symmetry_equiv_pos_site_id
_symmetry_equiv_pos_as_xyz
1 x,y,z
2 -x,1/2+y,1/2-z
3 -x,-y,-z
4 x,1/2-y,1/2+z
_cell_length_a                   8.7187(12)
_cell_length_b                   16.490(2)
_cell_length_c                   7.7481(11)
_cell_angle_alpha                90
_cell_angle_beta                 100.451(2)
_cell_angle_gamma                90
_cell_volume                     1095.47
loop_
_atom_site_label
_atom_site_type_symbol
_atom_site_fract_x
_atom_site_fract_y
_atom_site_fract_z
C1 C 0.2806(7) 0.0551(4) 0.7956(8)
C2 C 0.3420(7) 0.1177(4) 0.9044(8)
H1 H 0.3562 0.1684 0.8570
C3 C 0.3824(7) 0.1058(4) 1.0835(9)
C4 C 0.3593(8) 0.0301(4) 1.1544(8)
H2 H 0.3850 0.0219 1.2749
C5 C 0.2982(7) -0.0327(4) 1.0453(8)
C6 C 0.2594(8) -0.0196(4) 0.8662(8)
H3 H 0.2185 -0.0619 0.7927
C7 C 0.2551(8) 0.0665(4) 0.5979(9)
H4 H 0.3495 0.0885 0.5662
H5 H 0.2355 0.0141 0.5413
C8 C -0.0172(8) 0.1178(4) 0.5722(9)
H6 H -0.0495 0.0794 0.6458
C9 C -0.0135(9) 0.2204(5) 0.4029(10)
H7 H -0.0430 0.2668 0.3370
C10 C 0.1292(9) 0.1849(5) 0.4251(10)
H8 H 0.2134 0.2016 0.3756
C11 C 0.4709(8) 0.1708(4) 1.1994(9)
C12 C 0.2940(7) -0.1169(4) 1.1191(9)
Co1 Co 0.67165(11) 0.28893(5) 1.03517(11)
N1 N -0.1078(7) 0.1765(4) 0.4940(7)
N2 N 0.1260(7) 0.1202(3) 0.5334(7)
O1 O 0.4827(6) 0.2397(3) 1.1352(6)
O2 O 0.5282(6) 0.1492(3) 1.3523(6)
O3 O 0.3106(6) -0.1228(3) 1.2826(6)
O4 O 0.2759(6) -0.1739(3) 1.0125(7)
Co1A Co 0.32835(11) -0.21107(5) 1.46483(11)
Co1B Co 0.32835(11) -0.28893(5) 0.96483(11)
Co1C Co -0.32835(11) 0.21107(5) 0.53517(11)
Co1C_2 Co 0.67165(11) 0.21107(5) 1.53517(11)
N1C N 0.8922(7) 0.3235(4) 0.9940(7)
O2C O 0.5282(6) 0.3508(3) 0.8523(6)
O3A O 0.6894(6) 0.3772(3) 1.2174(6)
O4B O 0.7241(6) 0.1739(3) 0.9875(7)
loop_
_geom_bond_atom_site_label_1
_geom_bond_atom_site_label_2
_geom_bond_site_symmetry_1
_geom_bond_site_symmetry_2
C1 C2 1_555 1_555
C2 H1 1_555 1_555
C3 C2 1_555 1_555
C4 C3 1_555 1_555
H2 C4 1_555 1_555
C5 C4 1_555 1_555
C6 C1 1_555 1_555
H3 C6 1_555 1_555
C7 C1 1_555 1_555
H4 C7 1_555 1_555
H5 C7 1_555 1_555
C8 H6 1_555 1_555
C9 H7 1_555 1_555
C10 C9 1_555 1_555
H8 C10 1_555 1_555
C11 C3 1_555 1_555
C12 C5 1_555 1_555
Co1 O1 1_555 1_555
N1 C8 1_555 1_555
N2 C7 1_555 1_555
O1 C11 1_555 1_555
O2 C11 1_555 1_555
O3 C12 1_555 1_555
O4 C12 1_555 1_555
Co1A O3 1_555 1_555
Co1B O4 1_555 1_555
Co1C N1 1_555 1_555
Co1C_2 O2 1_555 1_555
N1C Co1 1_555 1_555
O2C Co1 1_555 1_555
O3A Co1 1_555 1_555
O4B Co1 1_555 1_555
C5 C6 1_555 1_555
C8 N2 1_555 1_555
C9 N1 1_555 1_555
C10 N2 1_555 1_555

#END
