
#######################################################################
#
#                 Cambridge Crystallographic Data Centre
#                                CCDC 
#
#######################################################################
#
# If this CIF has been generated from an entry in the Cambridge 
# Structural Database, then it will include bibliographic, chemical, 
# crystal, experimental, refinement or atomic coordinate data resulting 
# from the CCDC's data processing and validation procedures.
#
#######################################################################

data_GIFWAV
_symmetry_cell_setting           triclinic
_symmetry_space_group_name_H-M   'P -1'
_symmetry_Int_Tables_number      2
_space_group_name_Hall           '-P 1'
loop_
_symmetry_equiv_pos_site_id
_symmetry_equiv_pos_as_xyz
1 x,y,z
2 -x,-y,-z
_cell_length_a                   10.154(10)
_cell_length_b                   10.188(10)
_cell_length_c                   13.595(13)
_cell_angle_alpha                80.837(10)
_cell_angle_beta                 71.365(15)
_cell_angle_gamma                60.11
_cell_volume                     1155.39
loop_
_atom_site_label
_atom_site_type_symbol
_atom_site_fract_x
_atom_site_fract_y
_atom_site_fract_z
C1 C 1.0413(3) 0.6348(3) 0.5630(2)
C2 C 1.1818(3) 0.5078(3) 0.5136(2)
H1 H 1.2434 0.4331 0.5529
C3 C 1.2288(3) 0.4939(3) 0.4057(2)
C4 C 1.1366(3) 0.6072(3) 0.3456(2)
H2 H 1.1691 0.5979 0.2737
C5 C 0.9964(3) 0.7337(3) 0.3936(3)
C6 C 0.9514(4) 0.7458(3) 0.5023(3)
H3 H 0.8592 0.8302 0.5347
C7 C 0.9863(4) 0.6475(4) 0.6814(3)
H4 H 0.8816 0.7340 0.7023
H5 H 0.9789 0.5575 0.7110
C8 C 1.1441(4) 0.7699(4) 0.6948(2)
H6 H 1.1119 0.8455 0.6459
C9 C 1.2587(5) 0.6294(4) 0.8106(3)
H7 H 1.3217 0.5901 0.8558
C10 C 1.1653(5) 0.5736(4) 0.7984(3)
H8 H 1.1524 0.4927 0.8333
C11 C 1.3760(3) 0.3532(3) 0.3541(3)
C12 C 0.8935(4) 0.8504(4) 0.3295(3)
C13 C 0.7858(5) 1.0979(5) 0.0353(3)
H9 H 0.8153 1.1678 0.0431
C14 C 0.8345(5) 1.0392(6) -0.0661(3)
H10 H 0.8931 1.0704 -0.1226
C15 C 0.7919(5) 0.9345(5) -0.0774(3)
H11 H 0.8239 0.8927 -0.1423
C16 C 0.7000(5) 0.8904(4) 0.0088(3)
C17 C 0.6480(6) 0.7856(5) 0.0027(4)
H12 H 0.6758 0.7423 -0.0610
C18 C 0.5581(6) 0.7476(5) 0.0886(4)
H13 H 0.5235 0.6815 0.0816
C19 C 0.5157(5) 0.8083(5) 0.1902(4)
C20 C 0.4281(7) 0.7700(6) 0.2828(5)
H14 H 0.3880 0.7063 0.2807
C21 C 0.4034(6) 0.8263(6) 0.3736(4)
H15 H 0.3500 0.7978 0.4350
C22 C 0.4575(4) 0.9277(4) 0.3764(3)
H16 H 0.4394 0.9644 0.4405
C23 C 0.5661(4) 0.9122(4) 0.1985(3)
C24 C 0.6583(4) 0.9559(4) 0.1065(3)
Co1 Co 0.63786(5) 1.11772(4) 0.27904(3)
N1 N 0.7006(3) 1.0590(3) 0.1199(2)
N2 N 0.5337(3) 0.9740(3) 0.2914(2)
N3 N 1.0948(3) 0.6648(3) 0.7228(2)
N4 N 1.2446(3) 0.7522(3) 0.7457(2)
O1 O 1.4540(3) 0.2515(3) 0.4106(2)
O2 O 1.4177(3) 0.3387(3) 0.25661(19)
O3 O 0.7754(3) 0.9680(3) 0.3740(2)
O4 O 0.9272(4) 0.8289(4) 0.2351(3)
Co1_2 Co 1.63786(5) 0.11772(4) 0.27904(3)
Co1A Co 1.36214(5) 0.88228(4) 0.72096(3)
N4A N 0.7554(3) 1.2478(3) 0.2543(2)
O1_2 O 0.4540(3) 1.2515(3) 0.4106(2)
O2_2 O 0.4177(3) 1.3387(3) 0.25661(19)
O5 O 0.0495(6) 0.6094(6) 0.0853(4)
H17 H -0.0046 0.6621 0.1395
H18 H 0.1466 0.5756 0.0759
O6 O 0.3693(4) 0.5206(4) 0.0806(3)
loop_
_geom_bond_atom_site_label_1
_geom_bond_atom_site_label_2
_geom_bond_site_symmetry_1
_geom_bond_site_symmetry_2
C1 C2 1_555 1_555
C2 H1 1_555 1_555
C3 C2 1_555 1_555
C4 C3 1_555 1_555
H2 C4 1_555 1_555
C5 C4 1_555 1_555
C6 C1 1_555 1_555
H3 C6 1_555 1_555
C7 C1 1_555 1_555
H4 C7 1_555 1_555
H5 C7 1_555 1_555
C8 H6 1_555 1_555
C9 H7 1_555 1_555
C10 C9 1_555 1_555
H8 C10 1_555 1_555
C11 C3 1_555 1_555
C12 C5 1_555 1_555
C13 H9 1_555 1_555
C14 C13 1_555 1_555
H10 C14 1_555 1_555
C15 C14 1_555 1_555
H11 C15 1_555 1_555
C16 C15 1_555 1_555
C17 C16 1_555 1_555
H12 C17 1_555 1_555
C18 C17 1_555 1_555
H13 C18 1_555 1_555
C19 C18 1_555 1_555
C20 C19 1_555 1_555
H14 C20 1_555 1_555
C21 C20 1_555 1_555
H15 C21 1_555 1_555
C22 C21 1_555 1_555
H16 C22 1_555 1_555
C23 C19 1_555 1_555
C24 C16 1_555 1_555
Co1 N1 1_555 1_555
N1 C13 1_555 1_555
N2 C22 1_555 1_555
N3 C7 1_555 1_555
N4 C8 1_555 1_555
O1 C11 1_555 1_555
O2 C11 1_555 1_555
O3 C12 1_555 1_555
O4 C12 1_555 1_555
O5 H17 1_555 1_555
H18 O5 1_555 1_555
Co1_2 O1 1_555 1_555
Co1A N4 1_555 1_555
N4A Co1 1_555 1_555
O1_2 Co1 1_555 1_555
O2_2 Co1 1_555 1_555
C5 C6 1_555 1_555
C8 N3 1_555 1_555
C9 N4 1_555 1_555
C10 N3 1_555 1_555
C23 C24 1_555 1_555
C23 N2 1_555 1_555
C24 N1 1_555 1_555
Co1 N2 1_555 1_555
Co1 O3 1_555 1_555
O2 Co1_2 1_555 1_555

#END
