
#######################################################################
#
#                 Cambridge Crystallographic Data Centre
#                                CCDC 
#
#######################################################################
#
# If this CIF has been generated from an entry in the Cambridge 
# Structural Database, then it will include bibliographic, chemical, 
# crystal, experimental, refinement or atomic coordinate data resulting 
# from the CCDC's data processing and validation procedures.
#
#######################################################################

data_GIFWUP
_symmetry_cell_setting           monoclinic
_symmetry_space_group_name_H-M   'C c'
_symmetry_Int_Tables_number      9
_space_group_name_Hall           'C -2yc'
loop_
_symmetry_equiv_pos_site_id
_symmetry_equiv_pos_as_xyz
1 x,y,z
2 x,-y,1/2+z
3 1/2+x,1/2+y,z
4 1/2+x,1/2-y,1/2+z
_cell_length_a                   13.2155(9)
_cell_length_b                   23.7203(18)
_cell_length_c                   13.4430(9)
_cell_angle_alpha                90
_cell_angle_beta                 104.901(5)
_cell_angle_gamma                90
_cell_volume                     4072.34
loop_
_atom_site_label
_atom_site_type_symbol
_atom_site_fract_x
_atom_site_fract_y
_atom_site_fract_z
Sr1 Sr 0.61257(4) 0.81224(2) 0.84210(4)
C1 C 0.5216(5) 0.7683(3) 0.6239(5)
C2 C 0.4755(5) 0.7482(2) 0.5141(6)
H1 H 0.4031 0.7627 0.4895
H2 H 0.5171 0.7640 0.4692
C3 C 0.5611(5) 0.6602(3) 0.5053(5)
C4 C 0.5592(5) 0.5968(3) 0.5029(5)
C5 C 0.6567(4) 0.5695(3) 0.5277(5)
H3 H 0.7195 0.5910 0.5451
C6 C 0.6610(4) 0.5111(3) 0.5268(5)
C7 C 0.5694(5) 0.4795(3) 0.5021(5)
H4 H 0.5727 0.4395 0.5012
C8 C 0.4724(5) 0.5066(3) 0.4786(5)
C9 C 0.4680(5) 0.5656(3) 0.4791(5)
H5 H 0.4022 0.5842 0.4630
C10 C 0.7676(4) 0.4846(3) 0.5550(5)
C11 C 0.8747(5) 0.4070(3) 0.6462(6)
H6 H 0.9264 0.4186 0.6083
H7 H 0.8646 0.3658 0.6377
C12 C 0.9181(5) 0.4205(3) 0.7604(6)
C13 C 0.3697(5) 0.4756(3) 0.4518(5)
C14 C 0.2802(5) 0.3858(3) 0.4420(6)
H8 H 0.2977 0.3474 0.4229
H9 H 0.2290 0.4022 0.3819
C15 C 0.2305(5) 0.3820(3) 0.5316(5)
N1 N 0.4739(4) 0.6873(2) 0.5051(5)
H10 H 0.418(4) 0.669(3) 0.508(7)
N2 N 0.7759(4) 0.4352(2) 0.6019(5)
H11 H 0.726(5) 0.423(3) 0.625(7)
N3 N 0.3742(4) 0.4200(2) 0.4654(4)
H12 H 0.430(4) 0.401(3) 0.493(6)
O1 O 0.5591(4) 0.81841(18) 0.6368(4)
O2 O 0.5189(4) 0.7372(2) 0.6972(4)
O3 O 0.6442(4) 0.68500(19) 0.5077(5)
O4 O 0.8433(4) 0.5084(2) 0.5352(4)
O5 O 0.9655(4) 0.3825(2) 0.8172(4)
O6 O 0.9030(5) 0.4673(3) 0.7948(6)
O7 O 0.2865(3) 0.5010(2) 0.4190(4)
O8 O 0.2710(4) 0.3993(2) 0.6175(4)
O9 O 0.1404(4) 0.3566(2) 0.5023(4)
H13 H 0.1131 0.3545 0.5522
O10 O 0.7708(4) 0.7705(2) 0.7838(5)
H14 H 0.767(8) 0.774(4) 0.719(3)
H15 H 0.779(8) 0.7340(18) 0.792(8)
O11 O 0.4527(4) 0.7674(2) 0.8974(5)
H16 H 0.473(7) 0.764(4) 0.964(3)
H17 H 0.397(5) 0.787(4) 0.882(8)
O12 O 0.6782(5) 0.9120(3) 0.7817(5)
H18 H 0.725(7) 0.932(4) 0.830(7)
H19 H 0.720(7) 0.906(5) 0.742(8)
O13 O 0.6721(4) 0.7221(2) 0.9561(5)
H20 H 0.700(7) 0.696(3) 0.926(8)
H21 H 0.625(6) 0.704(4) 0.979(8)
Sr2 Sr 1.46616(4) 0.91779(3) 1.00442(5)
C16 C 0.7106(5) 0.8428(3) 1.0582(6)
C17 C 0.7585(5) 0.8240(3) 1.1684(6)
H22 H 0.7123 0.8358 1.2121
H23 H 0.7632 0.7823 1.1707
C18 C 0.8695(5) 0.9034(3) 1.2168(5)
C19 C 0.9770(5) 0.9300(3) 1.2437(5)
C20 C 0.9791(5) 0.9882(3) 1.2371(5)
H24 H 0.9154 1.0088 1.2197
C21 C 1.0745(5) 1.0167(3) 1.2561(5)
C22 C 1.1671(4) 0.9861(3) 1.2824(5)
H25 H 1.2323 1.0053 1.2961
C23 C 1.1651(4) 0.9276(3) 1.2890(5)
C24 C 1.0695(5) 0.8991(3) 1.2704(5)
H26 H 1.0678 0.8592 1.2760
C25 C 1.0825(5) 1.0792(3) 1.2487(5)
C26 C 1.0016(5) 1.1705(3) 1.2215(6)
H27 H 1.0555 1.1851 1.2814
H28 H 0.9335 1.1867 1.2246
C27 C 1.0269(5) 1.1908(3) 1.1240(6)
C28 C 1.2632(5) 0.8931(3) 1.3111(5)
C29 C 1.4476(5) 0.8853(3) 1.3215(6)
H29 H 1.4516 0.8609 1.3821
H30 H 1.5079 0.9116 1.3388
C30 C 1.4559(5) 0.8490(3) 1.2311(6)
N4 N 0.8622(4) 0.8477(2) 1.2096(4)
H31 H 0.916(5) 0.825(3) 1.219(7)
N5 N 0.9965(4) 1.1098(2) 1.2302(5)
H32 H 0.935(4) 1.095(3) 1.208(7)
N6 N 1.3507(4) 0.9178(2) 1.3008(5)
H33 H 1.360(7) 0.953(2) 1.282(7)
O14 O 0.6138(3) 0.85128(19) 1.0302(4)
O15 O 0.7684(3) 0.8457(2) 0.9973(4)
O16 O 0.7915(3) 0.9341(2) 1.1996(4)
O17 O 1.1704(3) 1.10098(19) 1.2587(4)
O18 O 1.0392(4) 1.1570(2) 1.0579(4)
O19 O 1.0336(5) 1.2438(2) 1.1145(4)
H34 H 1.0223 1.2598 1.1663
O20 O 1.2626(4) 0.84320(19) 1.3367(5)
O21 O 1.4080(4) 0.8590(2) 1.1421(4)
O22 O 1.5205(4) 0.8074(2) 1.2593(4)
O23 O 1.5871(6) 0.9923(3) 0.9597(7)
H35 H 1.6410 1.0132 0.9693
H36 H 1.5507 0.9976 0.8984
O24 O 1.5836(4) 0.9565(3) 1.1804(5)
H37 H 1.568(9) 0.989(3) 1.202(9)
H38 H 1.649(4) 0.949(5) 1.195(9)
O25 O 1.3061(3) 0.8517(2) 0.9234(4)
H39 H 1.2402 0.8525 0.9155
H40 H 1.3174 0.8538 0.8640
Sr1B Sr 1.11257(4) 0.31224(2) 0.84210(4)
O4C O 1.3433(4) 0.9916(2) 1.0352(4)
O5B O 0.4655(4) 0.8825(2) 0.8172(4)
O5B_2 O 1.4655(4) 0.8825(2) 0.8172(4)
O6B O 1.4030(5) 0.9673(3) 0.7948(6)
Sr2_2 Sr 0.46616(4) 0.91779(3) 1.00442(5)
Sr2B Sr 0.96616(4) 0.41779(3) 1.00442(5)
Sr2C Sr 0.96616(4) 0.58221(3) 0.50442(5)
O14_2 O 1.6138(3) 0.85128(19) 1.0302(4)
O26 O -0.2032(4) 1.2367(2) 1.0838(5)
H41 H -0.258(5) 1.255(4) 1.050(8)
H42 H -0.148(6) 1.259(4) 1.087(9)
loop_
_geom_bond_atom_site_label_1
_geom_bond_atom_site_label_2
_geom_bond_site_symmetry_1
_geom_bond_site_symmetry_2
Sr1 O1 1_555 1_555
C1 C2 1_555 1_555
C2 H1 1_555 1_555
H2 C2 1_555 1_555
C3 C4 1_555 1_555
C4 C5 1_555 1_555
C5 H3 1_555 1_555
C6 C5 1_555 1_555
C7 C6 1_555 1_555
H4 C7 1_555 1_555
C8 C7 1_555 1_555
C9 C4 1_555 1_555
H5 C9 1_555 1_555
C10 C6 1_555 1_555
C11 H6 1_555 1_555
H7 C11 1_555 1_555
C12 C11 1_555 1_555
C13 C8 1_555 1_555
C14 H8 1_555 1_555
H9 C14 1_555 1_555
C15 C14 1_555 1_555
N1 C2 1_555 1_555
H10 N1 1_555 1_555
N2 C10 1_555 1_555
H11 N2 1_555 1_555
N3 C13 1_555 1_555
H12 N3 1_555 1_555
O1 C1 1_555 1_555
O2 Sr1 1_555 1_555
O3 C3 1_555 1_555
O4 C10 1_555 1_555
O5 C12 1_555 1_555
O6 C12 1_555 1_555
O7 C13 1_555 1_555
O8 C15 1_555 1_555
O9 C15 1_555 1_555
H13 O9 1_555 1_555
O10 Sr1 1_555 1_555
H14 O10 1_555 1_555
H15 O10 1_555 1_555
O11 Sr1 1_555 1_555
H16 O11 1_555 1_555
H17 O11 1_555 1_555
O12 Sr1 1_555 1_555
H18 O12 1_555 1_555
H19 O12 1_555 1_555
O13 Sr1 1_555 1_555
H20 O13 1_555 1_555
H21 O13 1_555 1_555
Sr2 O21 1_555 1_555
C16 C17 1_555 1_555
C17 H22 1_555 1_555
H23 C17 1_555 1_555
C18 C19 1_555 1_555
C19 C20 1_555 1_555
C20 H24 1_555 1_555
C21 C20 1_555 1_555
C22 C21 1_555 1_555
H25 C22 1_555 1_555
C23 C22 1_555 1_555
C24 C19 1_555 1_555
H26 C24 1_555 1_555
C25 C21 1_555 1_555
C26 H27 1_555 1_555
H28 C26 1_555 1_555
C27 C26 1_555 1_555
C28 C23 1_555 1_555
C29 H29 1_555 1_555
H30 C29 1_555 1_555
C30 C29 1_555 1_555
N4 C17 1_555 1_555
H31 N4 1_555 1_555
N5 C25 1_555 1_555
H32 N5 1_555 1_555
N6 C28 1_555 1_555
H33 N6 1_555 1_555
O14 Sr1 1_555 1_555
O15 Sr1 1_555 1_555
O16 C18 1_555 1_555
O17 C25 1_555 1_555
O18 C27 1_555 1_555
O19 C27 1_555 1_555
H34 O19 1_555 1_555
O20 C28 1_555 1_555
O21 C30 1_555 1_555
O22 C30 1_555 1_555
O23 Sr2 1_555 1_555
H35 O23 1_555 1_555
H36 O23 1_555 1_555
O24 Sr2 1_555 1_555
H37 O24 1_555 1_555
H38 O24 1_555 1_555
O25 Sr2 1_555 1_555
H39 O25 1_555 1_555
H40 O25 1_555 1_555
O26 H41 1_555 1_555
H42 O26 1_555 1_555
Sr1B O5 1_555 1_555
O4C Sr2 1_555 1_555
O5B Sr1 1_555 1_555
O5B_2 Sr2 1_555 1_555
O6B Sr2 1_555 1_555
Sr2_2 O14 1_555 1_555
Sr2B O5 1_555 1_555
Sr2C O4 1_555 1_555
O14_2 Sr2 1_555 1_555
C1 O2 1_555 1_555
C3 N1 1_555 1_555
C8 C9 1_555 1_555
C11 N2 1_555 1_555
C14 N3 1_555 1_555
O6 Sr2B 1_555 1_555
C16 O14 1_555 1_555
C16 O15 1_555 1_555
C18 N4 1_555 1_555
C23 C24 1_555 1_555
C26 N5 1_555 1_555
C29 N6 1_555 1_555
O5B Sr2_2 1_555 1_555

#END
