
#######################################################################
#
#                 Cambridge Crystallographic Data Centre
#                                CCDC 
#
#######################################################################
#
# If this CIF has been generated from an entry in the Cambridge 
# Structural Database, then it will include bibliographic, chemical, 
# crystal, experimental, refinement or atomic coordinate data resulting 
# from the CCDC's data processing and validation procedures.
#
#######################################################################

data_GIFXEA
_symmetry_cell_setting           triclinic
_symmetry_space_group_name_H-M   'P -1'
_symmetry_Int_Tables_number      2
_space_group_name_Hall           '-P 1'
loop_
_symmetry_equiv_pos_site_id
_symmetry_equiv_pos_as_xyz
1 x,y,z
2 -x,-y,-z
_cell_length_a                   9.7482(7)
_cell_length_b                   10.2754(9)
_cell_length_c                   10.5529(9)
_cell_angle_alpha                114.473(8)
_cell_angle_beta                 108.182(7)
_cell_angle_gamma                95.313(7)
_cell_volume                     883.446
loop_
_atom_site_label
_atom_site_type_symbol
_atom_site_fract_x
_atom_site_fract_y
_atom_site_fract_z
K1 K 0.20164(7) -0.16093(7) 0.17274(8)
O1 O 0.5352(2) -1.0548(2) -0.3280(2)
O2 O 0.3569(2) -1.1957(2) -0.5550(2)
H1 H 0.419(5) -1.249(5) -0.571(5)
O3 O 0.3124(2) -0.3961(2) 0.0920(2)
H2 H 0.380(4) -0.408(4) 0.153(4)
O4 O 0.0458(2) -0.4182(2) -0.0887(2)
H3 H -0.038(4) -0.430(4) -0.151(4)
C1 C 0.4120(3) -1.0789(3) -0.4192(3)
C2 C 0.3067(3) -0.9855(3) -0.3979(3)
H4 H 0.2153 -1.0113 -0.4766
C3 C 0.3404(3) -0.8662(3) -0.2691(3)
H5 H 0.4313 -0.8485 -0.1933
C4 C 0.2536(3) -0.7567(3) -0.2286(3)
C5 C 0.3202(3) -0.6324(3) -0.0871(3)
H6 H 0.4143 -0.6237 -0.0216
C6 C 0.2484(3) -0.5221(3) -0.0428(3)
C7 C 0.1067(3) -0.5340(3) -0.1399(3)
C8 C 0.0390(3) -0.6577(3) -0.2785(3)
H7 H -0.0561 -0.6674 -0.3429
C9 C 0.1125(3) -0.7688(3) -0.3231(3)
H8 H 0.0659 -0.8518 -0.4172
O5 O -0.2891(2) 0.6497(2) 0.5103(2)
O6 O -0.5146(2) 0.5923(2) 0.3354(2)
O7 O 0.1114(2) 0.0788(2) 0.2986(2)
H9 H 0.171(4) 0.159(4) 0.366(4)
O8 O -0.0734(2) -0.1348(2) 0.0351(2)
H10 H -0.132(3) -0.190(3) -0.042(3)
C10 C -0.3922(3) 0.5628(3) 0.3873(3)
C11 C -0.3749(3) 0.4159(3) 0.2944(3)
H11 H -0.4563 0.3488 0.2079
C12 C -0.2497(3) 0.3761(3) 0.3286(3)
H12 H -0.1732 0.4450 0.4188
C13 C -0.2129(3) 0.2386(3) 0.2451(3)
C14 C -0.0718(3) 0.2222(3) 0.3095(3)
H13 H -0.0063 0.2974 0.4033
C15 C -0.0258(3) 0.0983(3) 0.2391(3)
C16 C -0.1252(3) -0.0154(3) 0.0983(3)
C17 C -0.2645(3) 0.0000(3) 0.0323(3)
H14 H -0.3298 -0.0744 -0.0620
C18 C -0.3084(3) 0.1255(3) 0.1051(3)
H15 H -0.4032 0.1339 0.0594
K1_2 K 0.20164(7) -1.16093(7) -0.82726(8)
K1A K -0.20164(7) 0.16093(7) -0.17274(8)
K1A_2 K 0.79836(7) -0.83907(7) -0.17274(8)
O1A O 0.4648(2) 0.0548(2) 0.3280(2)
O2_2 O 0.3569(2) -0.1957(2) 0.4450(2)
C17A C 0.2645(3) 0.0000(3) -0.0323(3)
O9 O -0.2198(3) -0.3844(3) -0.2370(3)
H16 H -0.288(4) -0.438(4) -0.254(4)
H17 H -0.235(4) -0.377(4) -0.321(5)
loop_
_geom_bond_atom_site_label_1
_geom_bond_atom_site_label_2
_geom_bond_site_symmetry_1
_geom_bond_site_symmetry_2
K1 O3 1_555 1_555
O1 C1 1_555 1_555
O2 H1 1_555 1_555
O3 H2 1_555 1_555
O4 K1 1_555 1_555
H3 O4 1_555 1_555
C1 O2 1_555 1_555
C2 C1 1_555 1_555
H4 C2 1_555 1_555
C3 C2 1_555 1_555
H5 C3 1_555 1_555
C4 C3 1_555 1_555
C5 C4 1_555 1_555
H6 C5 1_555 1_555
C6 O3 1_555 1_555
C7 O4 1_555 1_555
C8 C7 1_555 1_555
H7 C8 1_555 1_555
C9 C4 1_555 1_555
H8 C9 1_555 1_555
O5 C10 1_555 1_555
O6 C10 1_555 1_555
O7 K1 1_555 1_555
H9 O7 1_555 1_555
O8 K1 1_555 1_555
H10 O8 1_555 1_555
C10 C11 1_555 1_555
C11 H11 1_555 1_555
C12 C11 1_555 1_555
H12 C12 1_555 1_555
C13 C12 1_555 1_555
C14 C13 1_555 1_555
H13 C14 1_555 1_555
C15 O7 1_555 1_555
C16 O8 1_555 1_555
C17 C16 1_555 1_555
H14 C17 1_555 1_555
C18 C13 1_555 1_555
H15 C18 1_555 1_555
O9 H16 1_555 1_555
H17 O9 1_555 1_555
K1_2 O2 1_555 1_555
K1A C17 1_555 1_555
K1A_2 O1 1_555 1_555
O1A K1 1_555 1_555
O2_2 K1 1_555 1_555
C17A K1 1_555 1_555
C5 C6 1_555 1_555
C6 C7 1_555 1_555
C8 C9 1_555 1_555
C14 C15 1_555 1_555
C15 C16 1_555 1_555
C17 C18 1_555 1_555

#END
