
#######################################################################
#
#                 Cambridge Crystallographic Data Centre
#                                CCDC 
#
#######################################################################
#
# If this CIF has been generated from an entry in the Cambridge 
# Structural Database, then it will include bibliographic, chemical, 
# crystal, experimental, refinement or atomic coordinate data resulting 
# from the CCDC's data processing and validation procedures.
#
#######################################################################

data_GIFXAW
_symmetry_cell_setting           monoclinic
_symmetry_space_group_name_H-M   'C c'
_symmetry_Int_Tables_number      9
_space_group_name_Hall           'C -2yc'
loop_
_symmetry_equiv_pos_site_id
_symmetry_equiv_pos_as_xyz
1 x,y,z
2 x,-y,1/2+z
3 1/2+x,1/2+y,z
4 1/2+x,1/2-y,1/2+z
_cell_length_a                   13.9145(11)
_cell_length_b                   22.3842(19)
_cell_length_c                   13.5250(10)
_cell_angle_alpha                90
_cell_angle_beta                 100.144(6)
_cell_angle_gamma                90
_cell_volume                     4146.71
loop_
_atom_site_label
_atom_site_type_symbol
_atom_site_fract_x
_atom_site_fract_y
_atom_site_fract_z
Ca1 Ca 0.12586(4) 0.85273(3) 0.55744(5)
Ca2 Ca 0.22461(4) 0.80724(3) 0.33415(5)
C1 C 0.1626(2) 0.76071(15) 0.1389(3)
C2 C 0.1383(2) 0.73559(16) 0.0329(3)
H1 H 0.0742 0.7516 0.0001
H2 H 0.1878 0.7497 -0.0060
C3 C 0.2186(2) 0.64014(15) 0.0498(3)
C4 C 0.2135(2) 0.57263(15) 0.0461(3)
C5 C 0.1262(2) 0.54202(15) 0.0131(2)
H3 H 0.0681 0.5636 -0.0114
C6 C 0.1245(2) 0.47996(16) 0.0161(3)
C7 C 0.2093(2) 0.44775(15) 0.0495(3)
H4 H 0.2081 0.4053 0.0494
C8 C 0.2972(2) 0.47857(16) 0.0835(3)
C9 C 0.2979(2) 0.54087(15) 0.0808(3)
H5 H 0.3572 0.5618 0.1031
C10 C 0.0298(2) 0.44633(17) -0.0160(3)
C11 C -0.1476(2) 0.45046(18) -0.0428(3)
H6 H -0.1489 0.4266 -0.1047
H7 H -0.1977 0.4821 -0.0577
C12 C -0.1727(2) 0.41078(16) 0.0382(3)
C13 C 0.3908(2) 0.44746(16) 0.1294(3)
C14 C 0.4771(2) 0.35975(15) 0.1995(3)
H8 H 0.5333 0.3700 0.1668
H9 H 0.4674 0.3160 0.1940
C15 C 0.5018(2) 0.37646(15) 0.3101(3)
C16 C 1.0583(2) 0.87125(16) 0.7975(3)
C17 C 1.0272(2) 0.90820(17) 0.8803(3)
H10 H 1.0213 0.8818 0.9376
H11 H 1.0784 0.9382 0.9040
C18 C 0.8510(2) 0.91185(16) 0.8578(3)
C19 C 0.7593(2) 0.94636(15) 0.8216(3)
C20 C 0.6732(2) 0.91442(16) 0.7891(3)
H12 H 0.6737 0.8720 0.7904
C21 C 0.5870(2) 0.94514(15) 0.7548(3)
C22 C 0.5856(2) 1.00651(16) 0.7572(3)
H13 H 0.5259 1.0270 0.7352
C23 C 0.6701(2) 1.03919(15) 0.7914(3)
C24 C 0.7575(2) 1.00871(15) 0.8228(2)
H14 H 0.8160 1.0304 0.8451
C25 C 0.4928(2) 0.91489(16) 0.7113(3)
C26 C 0.4060(2) 0.82789(15) 0.6402(3)
H15 H 0.3544 0.8325 0.6815
H16 H 0.4186 0.7846 0.6341
C27 C 0.3694(2) 0.85385(16) 0.5352(3)
C28 C 0.6630(2) 1.10569(15) 0.7902(3)
C29 C 0.7404(2) 1.20256(15) 0.7990(3)
H17 H 0.8042 1.2190 0.8317
H18 H 0.6902 1.2171 0.8367
C30 C 0.7167(2) 1.22598(15) 0.6916(3)
N1 N 0.1347(2) 0.67089(13) 0.0291(2)
H19 H 0.080(2) 0.6547(15) 0.017(3)
N2 N -0.05246(18) 0.47798(14) -0.0152(2)
H20 H -0.053(2) 0.5157(14) 0.006(3)
N3 N 0.39010(19) 0.38937(13) 0.1454(2)
H21 H 0.340(2) 0.3683(16) 0.133(3)
N4 N 0.93538(19) 0.93845(13) 0.8477(2)
H22 H 0.929(2) 0.9690(15) 0.807(3)
N5 N 0.49427(18) 0.85662(13) 0.6908(2)
H23 H 0.552(2) 0.8348(15) 0.710(3)
N6 N 0.74441(19) 1.13731(13) 0.8047(2)
H24 H 0.802(2) 1.1200(15) 0.803(3)
O1 O 0.19960(17) 0.81332(11) 0.14912(19)
O2 O 0.14436(16) 0.73230(11) 0.21251(18)
O3 O 0.29727(16) 0.66604(11) 0.0728(2)
O4 O 0.02952(16) 0.39371(12) -0.0405(2)
O5 O -0.12121(17) 0.40351(13) 0.1204(2)
O6 O -0.25745(17) 0.38501(13) 0.0124(2)
H25 H -0.2679 0.3624 0.0589
O7 O 0.46697(16) 0.47773(11) 0.1538(2)
O8 O 0.58463(15) 0.35974(11) 0.35752(18)
O9 O 0.44097(16) 0.40419(12) 0.3482(2)
O10 O 1.11538(19) 0.82650(12) 0.8338(2)
H26 H 1.1373 0.8097 0.7869
O11 O 1.03565(16) 0.88265(11) 0.70898(19)
O12 O 0.84783(17) 0.86228(11) 0.8943(2)
O13 O 0.41714(16) 0.94475(12) 0.6916(2)
O14 O 0.27965(14) 0.84559(11) 0.50058(17)
O15 O 0.42795(16) 0.87857(12) 0.48882(19)
O16 O 0.58134(17) 1.12978(11) 0.7771(2)
O17 O 0.67719(16) 1.27827(11) 0.68331(19)
O18 O 0.73946(17) 1.19709(11) 0.62243(18)
O19 O 0.31149(17) 0.89666(12) 0.3062(2)
H27 H 0.361(2) 0.8973(19) 0.356(2)
H28 H 0.339(2) 0.9040(18) 0.252(2)
O20 O 0.37092(19) 0.75421(12) 0.3496(3)
H29 H 0.371(3) 0.7200(15) 0.366(3)
H30 H 0.409(3) 0.7618(18) 0.306(3)
O21 O 0.15317(17) 0.75047(12) 0.4496(2)
H31 H 0.180(2) 0.7330(18) 0.504(2)
H32 H 0.095(2) 0.7330(16) 0.430(3)
O22 O 0.04651(18) 0.94540(13) 0.5207(2)
H33 H 0.018(3) 0.9632(18) 0.566(2)
H34 H 0.007(3) 0.9407(19) 0.467(2)
O23 O 0.22596(17) 0.91686(12) 0.6713(2)
H35 H 0.289(2) 0.9274(17) 0.678(3)
H36 H 0.199(2) 0.9505(16) 0.688(3)
O24 O -0.02543(16) 0.79672(12) 0.5426(2)
H37 H -0.074(2) 0.8205(14) 0.559(3)
H38 H -0.018(2) 0.7732(15) 0.595(3)
Ca1_2 Ca 1.12586(4) 0.85273(3) 0.55744(5)
Ca1B Ca 0.62586(4) 0.35273(3) 0.55744(5)
Ca1B_2 Ca 0.62586(4) 1.35273(3) 0.55744(5)
Ca2B Ca 0.72461(4) 0.30724(3) 0.33415(5)
O8B O 0.08463(15) 0.85974(11) 0.35752(18)
O11_2 O 0.03565(16) 0.88265(11) 0.70898(19)
O17B O 0.17719(16) 0.77827(11) 0.68331(19)
O25 O -0.04190(19) 0.71716(13) 0.3787(2)
H39 H -0.037(3) 0.6770(13) 0.401(3)
H40 H -0.048(3) 0.7317(16) 0.441(3)
O26 O 0.15605(19) 1.00941(12) 0.7709(2)
H41 H 0.201(2) 1.0404(17) 0.770(3)
H42 H 0.103(2) 1.0275(18) 0.740(3)
O27 O -0.04054(18) 0.71353(12) 0.6890(2)
H43 H -0.072(3) 0.6887(17) 0.645(3)
H44 H 0.000(3) 0.6963(18) 0.729(3)
loop_
_geom_bond_atom_site_label_1
_geom_bond_atom_site_label_2
_geom_bond_site_symmetry_1
_geom_bond_site_symmetry_2
Ca1 O14 1_555 1_555
Ca2 O1 1_555 1_555
C1 C2 1_555 1_555
C2 H1 1_555 1_555
H2 C2 1_555 1_555
C3 C4 1_555 1_555
C4 C5 1_555 1_555
C5 H3 1_555 1_555
C6 C5 1_555 1_555
C7 C6 1_555 1_555
H4 C7 1_555 1_555
C8 C7 1_555 1_555
C9 C4 1_555 1_555
H5 C9 1_555 1_555
C10 C6 1_555 1_555
C11 H6 1_555 1_555
H7 C11 1_555 1_555
C12 C11 1_555 1_555
C13 C8 1_555 1_555
C14 H8 1_555 1_555
H9 C14 1_555 1_555
C15 C14 1_555 1_555
C16 C17 1_555 1_555
C17 H10 1_555 1_555
H11 C17 1_555 1_555
C18 C19 1_555 1_555
C19 C20 1_555 1_555
C20 H12 1_555 1_555
C21 C20 1_555 1_555
C22 C21 1_555 1_555
H13 C22 1_555 1_555
C23 C22 1_555 1_555
C24 C19 1_555 1_555
H14 C24 1_555 1_555
C25 C21 1_555 1_555
C26 H15 1_555 1_555
H16 C26 1_555 1_555
C27 C26 1_555 1_555
C28 C23 1_555 1_555
C29 H17 1_555 1_555
H18 C29 1_555 1_555
C30 C29 1_555 1_555
N1 C2 1_555 1_555
H19 N1 1_555 1_555
N2 C10 1_555 1_555
H20 N2 1_555 1_555
N3 C13 1_555 1_555
H21 N3 1_555 1_555
N4 C17 1_555 1_555
H22 N4 1_555 1_555
N5 C25 1_555 1_555
H23 N5 1_555 1_555
N6 C28 1_555 1_555
H24 N6 1_555 1_555
O1 C1 1_555 1_555
O2 Ca2 1_555 1_555
O3 C3 1_555 1_555
O4 C10 1_555 1_555
O5 C12 1_555 1_555
O6 C12 1_555 1_555
H25 O6 1_555 1_555
O7 C13 1_555 1_555
O8 C15 1_555 1_555
O9 C15 1_555 1_555
O10 C16 1_555 1_555
H26 O10 1_555 1_555
O11 C16 1_555 1_555
O12 C18 1_555 1_555
O13 C25 1_555 1_555
O14 Ca2 1_555 1_555
O15 C27 1_555 1_555
O16 C28 1_555 1_555
O17 C30 1_555 1_555
O18 C30 1_555 1_555
O19 Ca2 1_555 1_555
H27 O19 1_555 1_555
H28 O19 1_555 1_555
O20 Ca2 1_555 1_555
H29 O20 1_555 1_555
H30 O20 1_555 1_555
O21 Ca1 1_555 1_555
H31 O21 1_555 1_555
H32 O21 1_555 1_555
O22 Ca1 1_555 1_555
H33 O22 1_555 1_555
H34 O22 1_555 1_555
O23 Ca1 1_555 1_555
H35 O23 1_555 1_555
H36 O23 1_555 1_555
O24 Ca1 1_555 1_555
H37 O24 1_555 1_555
H38 O24 1_555 1_555
O25 H39 1_555 1_555
H40 O25 1_555 1_555
O26 H41 1_555 1_555
H42 O26 1_555 1_555
O27 H43 1_555 1_555
H44 O27 1_555 1_555
Ca1_2 O11 1_555 1_555
Ca1B O8 1_555 1_555
Ca1B_2 O17 1_555 1_555
Ca2B O8 1_555 1_555
O8B Ca1 1_555 1_555
O11_2 Ca1 1_555 1_555
O17B Ca1 1_555 1_555
Ca2 O21 1_555 1_555
Ca2 O8B 1_555 1_555
C1 O2 1_555 1_555
C3 N1 1_555 1_555
C8 C9 1_555 1_555
C11 N2 1_555 1_555
C14 N3 1_555 1_555
C18 N4 1_555 1_555
C23 C24 1_555 1_555
C26 N5 1_555 1_555
C27 O14 1_555 1_555
C29 N6 1_555 1_555

#END
