
#######################################################################
#
#                 Cambridge Crystallographic Data Centre
#                                CCDC 
#
#######################################################################
#
# If this CIF has been generated from an entry in the Cambridge 
# Structural Database, then it will include bibliographic, chemical, 
# crystal, experimental, refinement or atomic coordinate data resulting 
# from the CCDC's data processing and validation procedures.
#
#######################################################################

data_GIFZIG
_symmetry_cell_setting           triclinic
_symmetry_space_group_name_H-M   'P -1'
_symmetry_Int_Tables_number      2
_space_group_name_Hall           '-P 1'
loop_
_symmetry_equiv_pos_site_id
_symmetry_equiv_pos_as_xyz
1 x,y,z
2 -x,-y,-z
_cell_length_a                   8.6487(2)
_cell_length_b                   9.9098(2)
_cell_length_c                   12.4157(3)
_cell_angle_alpha                112.8310(10)
_cell_angle_beta                 91.449(2)
_cell_angle_gamma                95.4470(10)
_cell_volume                     974.073
loop_
_atom_site_label
_atom_site_type_symbol
_atom_site_fract_x
_atom_site_fract_y
_atom_site_fract_z
I1 I 0.83863(2) 0.33329(2) 0.753669(17)
I2 I 0.58999(2) 0.70588(2) 0.734809(18)
Cu1 Cu 0.58545(6) 0.45647(6) 0.75210(4)
Cu2 Cu 0.85146(6) 0.58562(6) 0.73831(5)
N1 N 0.4277(3) 0.2888(3) 0.6394(3)
N2 N 0.4226(3) 0.4425(3) 0.8831(3)
N3 N 1.0179(3) 0.7489(3) 0.8483(3)
N4 N 0.9916(3) 0.6314(3) 0.6048(3)
C1 C 0.3955(4) 0.5869(4) 0.9730(3)
H1 H 0.3046 0.5740 1.0164
H2 H 0.3718 0.6540 0.9345
C2 C 0.4615(4) 0.3450(4) 0.9415(3)
H3 H 0.4820 0.2488 0.8819
H4 H 0.3719 0.3275 0.9844
C3 C 0.2764(4) 0.3787(4) 0.8089(3)
H5 H 0.2277 0.4583 0.7962
H6 H 0.2035 0.3362 0.8507
C4 C 0.3009(4) 0.2603(4) 0.6913(3)
C5 C 0.1953(4) 0.1362(4) 0.6366(3)
H7 H 0.1088 0.1164 0.6760
C6 C 0.2180(4) 0.0411(4) 0.5233(3)
H8 H 0.1470 -0.0447 0.4838
C7 C 0.3460(4) 0.0732(4) 0.4685(3)
H9 H 0.3628 0.0115 0.3902
C8 C 0.4479(4) 0.1968(4) 0.5305(3)
H10 H 0.5370 0.2174 0.4939
C9 C 0.9018(4) 0.6041(4) 0.4944(3)
H11 H 0.9627 0.6495 0.4482
H12 H 0.8039 0.6503 0.5120
C10 C 1.1357(4) 0.5590(4) 0.5765(3)
H13 H 1.1963 0.5749 0.6499
H14 H 1.2003 0.6037 0.5316
C11 C 1.0326(4) 0.7914(4) 0.6696(3)
H15 H 0.9400 0.8426 0.6691
H16 H 1.1144 0.8272 0.6295
C12 C 1.0902(4) 0.8285(4) 0.7939(3)
C13 C 1.2082(5) 0.9418(4) 0.8523(4)
H17 H 1.2610 0.9946 0.8120
C14 C 1.2477(5) 0.9766(5) 0.9693(4)
H18 H 1.3261 1.0552 1.0108
C15 C 1.1717(5) 0.8954(5) 1.0253(3)
H19 H 1.1965 0.9172 1.1057
C16 C 1.0584(4) 0.7812(4) 0.9608(3)
H20 H 1.0076 0.7237 0.9983
N1A N 0.5723(3) 0.7112(3) 1.3606(3)
N2A N 0.5774(3) 0.5575(3) 1.1169(3)
C1A C 0.6045(4) 0.4131(4) 1.0270(3)
H1A H 0.6954 0.4260 0.9836
H2A H 0.6282 0.3460 1.0655
C2A C 0.5385(4) 0.6550(4) 1.0585(3)
H3A H 0.5180 0.7512 1.1181
H4A H 0.6281 0.6725 1.0156
C3A C 0.7236(4) 0.6213(4) 1.1911(3)
H5A H 0.7723 0.5417 1.2038
H6A H 0.7965 0.6638 1.1493
C4A C 0.6991(4) 0.7397(4) 1.3087(3)
C5A C 0.8047(4) 0.8638(4) 1.3634(3)
H7A H 0.8912 0.8836 1.3240
C6A C 0.7820(4) 0.9589(4) 1.4767(3)
H8A H 0.8530 1.0447 1.5162
C7A C 0.6540(4) 0.9268(4) 1.5315(3)
H9A H 0.6372 0.9885 1.6098
C8A C 0.5521(4) 0.8032(4) 1.4695(3)
H10A H 0.4630 0.7826 1.5061
N3A N 0.9821(3) 0.2511(3) 0.1517(3)
N4A N 1.0084(3) 0.3686(3) 0.3952(3)
C9A C 1.0982(4) 0.3959(4) 0.5056(3)
H11A H 1.0373 0.3505 0.5518
H12A H 1.1961 0.3497 0.4880
C10A C 0.8643(4) 0.4410(4) 0.4235(3)
H13A H 0.8037 0.4251 0.3501
H14A H 0.7997 0.3963 0.4684
C11A C 0.9674(4) 0.2086(4) 0.3304(3)
H15A H 1.0600 0.1574 0.3309
H16A H 0.8856 0.1728 0.3705
C12A C 0.9098(4) 0.1715(4) 0.2061(3)
C13A C 0.7918(5) 0.0582(4) 0.1477(4)
H17A H 0.7390 0.0054 0.1880
C14A C 0.7523(5) 0.0234(5) 0.0307(4)
H18A H 0.6739 -0.0552 -0.0108
C15A C 0.8283(5) 0.1046(5) -0.0253(3)
H19A H 0.8035 0.0828 -0.1057
C16A C 0.9416(4) 0.2188(4) 0.0392(3)
H20A H 0.9924 0.2763 0.0017
I1A I 0.16137(2) 0.66671(2) 1.246331(17)
I2A I 0.41001(2) 0.29412(2) 1.265191(18)
Cu1A Cu 0.41455(6) 0.54353(6) 1.24790(4)
Cu2A Cu 0.14854(6) 0.41438(6) 1.26169(5)
Cu2A_2 Cu 1.14854(6) 0.41438(6) 0.26169(5)
N3A_2 N -0.0179(3) 0.2511(3) 1.1517(3)
N4A_2 N 0.0084(3) 0.3686(3) 1.3952(3)
loop_
_geom_bond_atom_site_label_1
_geom_bond_atom_site_label_2
_geom_bond_site_symmetry_1
_geom_bond_site_symmetry_2
I1 Cu1 1_555 1_555
I2 Cu1 1_555 1_555
Cu1 Cu2 1_555 1_555
Cu2 I1 1_555 1_555
N1 Cu1 1_555 1_555
N2 Cu1 1_555 1_555
N3 Cu2 1_555 1_555
N4 Cu2 1_555 1_555
C1 N2 1_555 1_555
H1 C1 1_555 1_555
H2 C1 1_555 1_555
C2 N2 1_555 1_555
H3 C2 1_555 1_555
H4 C2 1_555 1_555
C3 N2 1_555 1_555
H5 C3 1_555 1_555
H6 C3 1_555 1_555
C4 N1 1_555 1_555
C5 C4 1_555 1_555
H7 C5 1_555 1_555
C6 C5 1_555 1_555
H8 C6 1_555 1_555
C7 C6 1_555 1_555
H9 C7 1_555 1_555
C8 N1 1_555 1_555
H10 C8 1_555 1_555
C9 N4 1_555 1_555
H11 C9 1_555 1_555
H12 C9 1_555 1_555
C10 N4 1_555 1_555
H13 C10 1_555 1_555
H14 C10 1_555 1_555
C11 N4 1_555 1_555
H15 C11 1_555 1_555
H16 C11 1_555 1_555
C12 N3 1_555 1_555
C13 C12 1_555 1_555
H17 C13 1_555 1_555
C14 C13 1_555 1_555
H18 C14 1_555 1_555
C15 C14 1_555 1_555
H19 C15 1_555 1_555
C16 N3 1_555 1_555
H20 C16 1_555 1_555
N1A C4A 1_555 1_555
N2A C1A 1_555 1_555
C1A C2 1_555 1_555
H1A C1A 1_555 1_555
H2A C1A 1_555 1_555
C2A C1 1_555 1_555
H3A C2A 1_555 1_555
H4A C2A 1_555 1_555
C3A N2A 1_555 1_555
H5A C3A 1_555 1_555
H6A C3A 1_555 1_555
C4A C3A 1_555 1_555
C5A C4A 1_555 1_555
H7A C5A 1_555 1_555
C6A C5A 1_555 1_555
H8A C6A 1_555 1_555
C7A C6A 1_555 1_555
H9A C7A 1_555 1_555
C8A N1A 1_555 1_555
H10A C8A 1_555 1_555
N3A C12A 1_555 1_555
N4A C9A 1_555 1_555
C9A C10 1_555 1_555
H11A C9A 1_555 1_555
H12A C9A 1_555 1_555
C10A C9 1_555 1_555
H13A C10A 1_555 1_555
H14A C10A 1_555 1_555
C11A N4A 1_555 1_555
H15A C11A 1_555 1_555
H16A C11A 1_555 1_555
C12A C11A 1_555 1_555
C13A C12A 1_555 1_555
H17A C13A 1_555 1_555
C14A C13A 1_555 1_555
H18A C14A 1_555 1_555
C15A C14A 1_555 1_555
H19A C15A 1_555 1_555
C16A N3A 1_555 1_555
H20A C16A 1_555 1_555
I1A Cu1A 1_555 1_555
I2A Cu1A 1_555 1_555
Cu1A N1A 1_555 1_555
Cu2A I1A 1_555 1_555
Cu2A_2 N3A 1_555 1_555
N3A_2 Cu2A 1_555 1_555
N4A_2 Cu2A 1_555 1_555
I2 Cu2 1_555 1_555
C3 C4 1_555 1_555
C7 C8 1_555 1_555
C11 C12 1_555 1_555
C15 C16 1_555 1_555
N2A C2A 1_555 1_555
N2A Cu1A 1_555 1_555
C7A C8A 1_555 1_555
N4A C10A 1_555 1_555
N4A Cu2A_2 1_555 1_555
C15A C16A 1_555 1_555
I2A Cu2A 1_555 1_555
Cu1A Cu2A 1_555 1_555

#END
