
#######################################################################
#
#                 Cambridge Crystallographic Data Centre
#                                CCDC 
#
#######################################################################
#
# If this CIF has been generated from an entry in the Cambridge 
# Structural Database, then it will include bibliographic, chemical, 
# crystal, experimental, refinement or atomic coordinate data resulting 
# from the CCDC's data processing and validation procedures.
#
#######################################################################

data_GIFZOK
_symmetry_cell_setting           monoclinic
_symmetry_space_group_name_H-M   'C 2/c'
_symmetry_Int_Tables_number      15
_space_group_name_Hall           '-C 2yn'
loop_
_symmetry_equiv_pos_site_id
_symmetry_equiv_pos_as_xyz
1 x,y,z
2 1/2+x,1/2+y,z
3 -x,y,1/2-z
4 1/2-x,1/2+y,1/2-z
5 -x,-y,-z
6 1/2-x,1/2-y,-z
7 x,-y,1/2+z
8 1/2+x,1/2-y,1/2+z
_cell_length_a                   10.855(2)
_cell_length_b                   16.927(11)
_cell_length_c                   6.197(5)
_cell_angle_alpha                90
_cell_angle_beta                 113.47(5)
_cell_angle_gamma                90
_cell_volume                     1044.45
loop_
_atom_site_label
_atom_site_type_symbol
_atom_site_fract_x
_atom_site_fract_y
_atom_site_fract_z
Zn1 Zn 0.0000 0.0337 0.2500
N1 N 0.1259(3) 0.0229(2) 0.0407(6)
N2 N 0.2138(4) 0.0654(2) 0.0456(6)
N3 N 0.2975(5) 0.1060(3) 0.0541(10)
N4 N 0.0000 0.1537(3) 0.2500
C1 C 0.0520(6) 0.1941(3) 0.4501(10)
C2 C 0.0519(8) 0.2757(3) 0.4515(14)
C3 C 0.0000 0.3170(4) 0.2500
C4 C 0.0000 0.4097(4) 0.2500
H1 H 0.0844(44) 0.1678(29) 0.6135(52)
H2 H 0.0876(58) 0.2980(32) 0.6185(51)
N1D N -0.1259(3) -0.0229(2) -0.0407(6)
N1B N -0.1259(3) 0.0229(2) 0.4593(6)
N1F N 0.1259(3) -0.0229(2) 0.5407(6)
Zn1D Zn 0.0000 -0.0337 -0.2500
C1B C -0.0520(6) 0.1941(3) 0.0499(10)
C2B C -0.0519(8) 0.2757(3) 0.0485(14)
N2D N -0.2138(4) -0.0654(2) -0.0456(6)
Zn1D_2 Zn 0.0000 -0.0337 0.7500
N2B N -0.2138(4) 0.0654(2) 0.4544(6)
N2F N 0.2138(4) -0.0654(2) 0.5456(6)
N1B_2 N -0.1259(3) 0.0229(2) -0.5407(6)
N1F_2 N 0.1259(3) -0.0229(2) -0.4593(6)
N4D N 0.0000 -0.1537(3) -0.2500
H1B H -0.0844(44) 0.1678(29) -0.1135(52)
H2B H -0.0876(58) 0.2980(32) -0.1185(51)
N3D N -0.2975(5) -0.1060(3) -0.0541(10)
N3B N -0.2975(5) 0.1060(3) 0.4459(10)
N3F N 0.2975(5) -0.1060(3) 0.5541(10)
C1D C -0.0520(6) -0.1941(3) -0.4501(10)
C1F C 0.0520(6) -0.1941(3) -0.0499(10)
C2D C -0.0519(8) -0.2757(3) -0.4515(14)
H1D H -0.0844(44) -0.1678(29) -0.6135(52)
C2F C 0.0519(8) -0.2757(3) -0.0485(14)
H1F H 0.0844(44) -0.1678(29) 0.1135(52)
C3D C 0.0000 -0.3170(4) -0.2500
H2D H -0.0876(58) -0.2980(32) -0.6185(51)
H2F H 0.0876(58) -0.2980(32) 0.1185(51)
C4D C 0.0000 -0.4097(4) -0.2500
loop_
_geom_bond_atom_site_label_1
_geom_bond_atom_site_label_2
_geom_bond_site_symmetry_1
_geom_bond_site_symmetry_2
Zn1 N1 1_555 1_555
N1 N2 1_555 1_555
N2 N3 1_555 1_555
N4 Zn1 1_555 1_555
C1 N4 1_555 1_555
C2 C1 1_555 1_555
C3 C2 1_555 1_555
C4 C3 1_555 1_555
H1 C1 1_555 1_555
H2 C2 1_555 1_555
N1D Zn1 1_555 1_555
N1B Zn1 1_555 1_555
N1F Zn1 1_555 1_555
Zn1D N1 1_555 1_555
C1B N4 1_555 1_555
C2B C3 1_555 1_555
N2D N1D 1_555 1_555
Zn1D_2 N1B 1_555 1_555
N2B N1B 1_555 1_555
N2F N1F 1_555 1_555
N1B_2 Zn1D 1_555 1_555
N1F_2 Zn1D 1_555 1_555
N4D Zn1D 1_555 1_555
H1B C1B 1_555 1_555
H2B C2B 1_555 1_555
N3D N2D 1_555 1_555
N3B N2B 1_555 1_555
N3F N2F 1_555 1_555
C1D N4D 1_555 1_555
C1F N4D 1_555 1_555
C2D C1D 1_555 1_555
H1D C1D 1_555 1_555
C2F C1F 1_555 1_555
H1F C1F 1_555 1_555
C3D C2D 1_555 1_555
H2D C2D 1_555 1_555
H2F C2F 1_555 1_555
C4D C3D 1_555 1_555
N1D Zn1D 1_555 1_555
N1F Zn1D_2 1_555 1_555
C1B C2B 1_555 1_555
C2F C3D 1_555 1_555

#END
