
#######################################################################
#
#                 Cambridge Crystallographic Data Centre
#                                CCDC 
#
#######################################################################
#
# If this CIF has been generated from an entry in the Cambridge 
# Structural Database, then it will include bibliographic, chemical, 
# crystal, experimental, refinement or atomic coordinate data resulting 
# from the CCDC's data processing and validation procedures.
#
#######################################################################

data_GIFZUS
_symmetry_cell_setting           monoclinic
_symmetry_space_group_name_H-M   'P 21/n'
_symmetry_Int_Tables_number      14
_space_group_name_Hall           '-P 2yn'
loop_
_symmetry_equiv_pos_site_id
_symmetry_equiv_pos_as_xyz
1 x,y,z
2 1/2-x,1/2+y,1/2-z
3 -x,-y,-z
4 1/2+x,1/2-y,1/2+z
_cell_length_a                   7.7387(3)
_cell_length_b                   16.7925(5)
_cell_length_c                   8.2424(3)
_cell_angle_alpha                90
_cell_angle_beta                 110.6170(10)
_cell_angle_gamma                90
_cell_volume                     1002.52
loop_
_atom_site_label
_atom_site_type_symbol
_atom_site_fract_x
_atom_site_fract_y
_atom_site_fract_z
I1 I 0.11695(3) 0.955743(13) 1.27584(3)
Cu1 Cu 0.13878(8) 0.97409(3) 0.97646(7)
N1 N 0.3596(4) 0.94105(18) 0.9103(4)
C1 C 0.4125(5) 1.0078(2) 0.8184(4)
H1 H 0.3052 1.0229 0.7151
H2 H 0.5128 0.9901 0.7783
C2 C 0.4766(5) 1.0797(2) 0.9354(4)
H3 H 0.5087 1.1234 0.8705
H4 H 0.3755 1.0984 0.9732
C3 C 0.3065(5) 0.8720(2) 0.7882(5)
H5 H 0.4141 0.8565 0.7567
H6 H 0.2067 0.8889 0.6807
C4 C 0.2418(5) 0.8001(2) 0.8619(4)
C5 C 0.0718(6) 0.8003(2) 0.8833(5)
H7 H -0.0046 0.8462 0.8522
C6 C 0.0123(6) 0.7342(2) 0.9495(5)
H8 H -0.1042 0.7350 0.9639
C7 C 0.1225(6) 0.6665(2) 0.9948(5)
H9 H 0.0820 0.6212 1.0405
C8 C 0.2917(6) 0.6658(2) 0.9730(5)
H10 H 0.3675 0.6197 1.0034
C9 C 0.3516(6) 0.7320(2) 0.9068(5)
H11 H 0.4679 0.7309 0.8921
N1B N 0.6404(4) 1.05895(18) 1.0897(4)
C1B C 0.5875(5) 0.9922(2) 1.1816(4)
H1B H 0.6948 0.9771 1.2849
H2B H 0.4872 1.0099 1.2217
C2B C 0.5234(5) 0.9203(2) 1.0646(4)
H3B H 0.4913 0.8766 1.1295
H4B H 0.6245 0.9016 1.0268
C3B C 0.6935(5) 1.1280(2) 1.2118(5)
H5B H 0.5859 1.1435 1.2433
H6B H 0.7933 1.1111 1.3193
C4B C 0.7582(5) 1.1999(2) 1.1381(4)
C5B C 0.9282(6) 1.1997(2) 1.1167(5)
H7B H 1.0046 1.1538 1.1478
C6B C 0.9877(6) 1.2658(2) 1.0505(5)
H8B H 1.1042 1.2650 1.0361
C7B C 0.8775(6) 1.3335(2) 1.0052(5)
H9B H 0.9180 1.3788 0.9595
C8B C 0.7083(6) 1.3342(2) 1.0270(5)
H10B H 0.6325 1.3803 0.9966
C9B C 0.6484(6) 1.2680(2) 1.0932(5)
H11B H 0.5321 1.2691 1.1079
I1B I -0.11695(3) 1.044257(13) 0.72416(3)
Cu1B Cu -0.13878(8) 1.02591(3) 1.02354(7)
Cu1B_2 Cu 0.86122(8) 1.02591(3) 1.02354(7)
N1B_2 N -0.3596(4) 1.05895(18) 1.0897(4)
loop_
_geom_bond_atom_site_label_1
_geom_bond_atom_site_label_2
_geom_bond_site_symmetry_1
_geom_bond_site_symmetry_2
I1 Cu1 1_555 1_555
Cu1 N1 1_555 1_555
N1 C1 1_555 1_555
C1 H1 1_555 1_555
H2 C1 1_555 1_555
C2 C1 1_555 1_555
H3 C2 1_555 1_555
H4 C2 1_555 1_555
C3 N1 1_555 1_555
H5 C3 1_555 1_555
H6 C3 1_555 1_555
C4 C3 1_555 1_555
C5 C4 1_555 1_555
H7 C5 1_555 1_555
C6 C5 1_555 1_555
H8 C6 1_555 1_555
C7 C6 1_555 1_555
H9 C7 1_555 1_555
C8 C7 1_555 1_555
H10 C8 1_555 1_555
C9 C4 1_555 1_555
H11 C9 1_555 1_555
N1B C2 1_555 1_555
C1B N1B 1_555 1_555
H1B C1B 1_555 1_555
H2B C1B 1_555 1_555
C2B N1 1_555 1_555
H3B C2B 1_555 1_555
H4B C2B 1_555 1_555
C3B N1B 1_555 1_555
H5B C3B 1_555 1_555
H6B C3B 1_555 1_555
C4B C3B 1_555 1_555
C5B C4B 1_555 1_555
H7B C5B 1_555 1_555
C6B C5B 1_555 1_555
H8B C6B 1_555 1_555
C7B C6B 1_555 1_555
H9B C7B 1_555 1_555
C8B C7B 1_555 1_555
H10B C8B 1_555 1_555
C9B C4B 1_555 1_555
H11B C9B 1_555 1_555
I1B Cu1 1_555 1_555
Cu1B I1 1_555 1_555
Cu1B_2 N1B 1_555 1_555
N1B_2 Cu1B 1_555 1_555
Cu1 Cu1B 1_555 1_555
C8 C9 1_555 1_555
C1B C2B 1_555 1_555
C8B C9B 1_555 1_555
I1B Cu1B 1_555 1_555

#END
