
#######################################################################
#
#                 Cambridge Crystallographic Data Centre
#                                CCDC 
#
#######################################################################
#
# If this CIF has been generated from an entry in the Cambridge 
# Structural Database, then it will include bibliographic, chemical, 
# crystal, experimental, refinement or atomic coordinate data resulting 
# from the CCDC's data processing and validation procedures.
#
#######################################################################

data_GIGBOP
_symmetry_cell_setting           monoclinic
_symmetry_space_group_name_H-M   'C 2/c'
_symmetry_Int_Tables_number      15
_space_group_name_Hall           '-C 2yn'
loop_
_symmetry_equiv_pos_site_id
_symmetry_equiv_pos_as_xyz
1 x,y,z
2 -x,y,1/2-z
3 1/2+x,1/2+y,z
4 1/2-x,1/2+y,1/2-z
5 -x,-y,-z
6 x,-y,1/2+z
7 1/2-x,1/2-y,-z
8 1/2+x,1/2-y,1/2+z
_cell_length_a                   26.2013(6)
_cell_length_b                   14.0499(3)
_cell_length_c                   13.9931(3)
_cell_angle_alpha                90
_cell_angle_beta                 121.9660(10)
_cell_angle_gamma                90
_cell_volume                     4370.1
loop_
_atom_site_label
_atom_site_type_symbol
_atom_site_fract_x
_atom_site_fract_y
_atom_site_fract_z
Br1 Br 0.077314(12) 0.251606(18) 0.24506(2)
Br2 Br 0.053139(12) 0.272896(19) -0.08571(2)
Br3 Br 0.169039(11) 0.081454(18) 0.16530(2)
Br4 Br 0.197591(12) 0.385909(18) 0.17779(2)
Cu1 Cu 0.070497(17) 0.16682(3) 0.07784(3)
Cu2 Cu 0.087733(17) 0.35147(3) 0.10005(3)
Cu3 Cu 0.176876(17) 0.23907(3) 0.26229(3)
Cu4 Cu 0.161685(18) 0.23674(3) 0.06021(3)
N1 N -0.01356(9) 0.09998(15) 0.00095(18)
N2 N 0.05084(10) 0.47885(15) 0.11380(18)
N3 N 0.26128(10) 0.22485(15) 0.41183(18)
N4 N 0.19895(10) 0.18731(16) -0.03095(18)
C1 C -0.01646(12) 0.03030(19) 0.0770(2)
H1 H -0.0578 0.0047 0.0408
H2 H -0.0067 0.0624 0.1477
C2 C 0.02702(12) -0.05045(18) 0.1038(2)
H3 H 0.0686 -0.0253 0.1433
H4 H 0.0242 -0.0963 0.1545
C3 C -0.06085(12) 0.1731(2) -0.0303(3)
H5 H -0.1002 0.1420 -0.0648
H6 H -0.0610 0.2179 -0.0840
H7 H -0.0526 0.2075 0.0374
C4 C -0.01248(12) 0.46713(19) 0.0821(2)
H8 H -0.0264 0.5263 0.0998
H9 H -0.0150 0.4148 0.1268
C5 C 0.05280(12) 0.55497(18) 0.0420(2)
H10 H 0.0947 0.5626 0.0607
H11 H 0.0401 0.6160 0.0585
C6 C 0.08718(14) 0.5099(2) 0.2327(2)
H12 H 0.0717 0.5707 0.2413
H13 H 0.1292 0.5176 0.2548
H14 H 0.0847 0.4618 0.2809
C7 C 0.25984(12) 0.15221(18) 0.4875(2)
H15 H 0.3010 0.1428 0.5537
H16 H 0.2458 0.0908 0.4470
C8 C 0.28146(12) 0.31738(18) 0.4733(2)
H17 H 0.2817 0.3667 0.4230
H18 H 0.3230 0.3108 0.5392
C9 C 0.30574(12) 0.1954(2) 0.3837(2)
H19 H 0.3453 0.1886 0.4531
H20 H 0.3079 0.2437 0.3354
H21 H 0.2936 0.1344 0.3439
C10 C 0.19736(12) 0.26103(19) -0.1089(2)
H22 H 0.1555 0.2838 -0.1587
H23 H 0.2106 0.2325 -0.1570
C11 C 0.26235(12) 0.1557(2) 0.0447(2)
H24 H 0.2767 0.1252 -0.0007
H25 H 0.2644 0.1079 0.0985
C12 C 0.16263(13) 0.1049(2) -0.0992(2)
H26 H 0.1208 0.1249 -0.1497
H27 H 0.1644 0.0545 -0.0492
H28 H 0.1787 0.0809 -0.1438
N1D N 0.01356(9) -0.09998(15) -0.00095(18)
C1D C 0.01646(12) -0.03030(19) -0.0770(2)
H1D H 0.0578 -0.0047 -0.0408
H2D H 0.0067 -0.0624 -0.1477
C2D C -0.02702(12) 0.05045(18) -0.1038(2)
H3D H -0.0686 0.0253 -0.1433
H4D H -0.0242 0.0963 -0.1545
C3D C 0.06085(12) -0.1731(2) 0.0303(3)
H5D H 0.1002 -0.1420 0.0648
H6D H 0.0610 -0.2179 0.0840
H7D H 0.0526 -0.2075 -0.0374
N2D N -0.05084(10) 0.52115(15) -0.11380(18)
C4D C 0.01248(12) 0.53287(19) -0.0821(2)
H8D H 0.0264 0.4737 -0.0998
H9D H 0.0150 0.5852 -0.1268
C5D C -0.05280(12) 0.44503(18) -0.0420(2)
H10D H -0.0947 0.4374 -0.0607
H11D H -0.0401 0.3840 -0.0585
C6D C -0.08718(14) 0.4901(2) -0.2327(2)
H12D H -0.0717 0.4293 -0.2413
H13D H -0.1292 0.4824 -0.2548
H14D H -0.0847 0.5382 -0.2809
N3F N 0.23872(10) 0.27515(15) 0.58817(18)
C7F C 0.24016(12) 0.34779(18) 0.5125(2)
H15F H 0.1990 0.3572 0.4463
H16F H 0.2542 0.4092 0.5530
C8F C 0.21854(12) 0.18262(18) 0.5267(2)
H17F H 0.2183 0.1333 0.5770
H18F H 0.1770 0.1892 0.4608
C9F C 0.19426(12) 0.3046(2) 0.6163(2)
H19F H 0.1547 0.3114 0.5469
H20F H 0.1921 0.2563 0.6646
H21F H 0.2064 0.3656 0.6561
N4F N 0.30105(10) 0.31269(16) 0.03095(18)
C10F C 0.30264(12) 0.23897(19) 0.1089(2)
H22F H 0.3445 0.2162 0.1587
H23F H 0.2894 0.2675 0.1570
C11F C 0.23765(12) 0.3443(2) -0.0447(2)
H24F H 0.2233 0.3748 0.0007
H25F H 0.2356 0.3921 -0.0985
C12F C 0.33737(13) 0.3951(2) 0.0992(2)
H26F H 0.3792 0.3751 0.1497
H27F H 0.3356 0.4455 0.0492
H28F H 0.3213 0.4191 0.1438
Br1D Br -0.077314(12) -0.251606(18) -0.24506(2)
Br2D Br -0.053139(12) -0.272896(19) 0.08571(2)
Br3D Br -0.169039(11) -0.081454(18) -0.16530(2)
Br4D Br -0.197591(12) -0.385909(18) -0.17779(2)
Cu1D Cu -0.070497(17) -0.16682(3) -0.07784(3)
Cu2D Cu -0.087733(17) -0.35147(3) -0.10005(3)
Cu3D Cu -0.176876(17) -0.23907(3) -0.26229(3)
Cu4D Cu -0.161685(18) -0.23674(3) -0.06021(3)
Cu2D_2 Cu -0.087733(17) 0.64853(3) -0.10005(3)
Cu3F Cu 0.323124(17) 0.26093(3) 0.73771(3)
Cu4F Cu 0.338315(18) 0.26326(3) -0.06021(3)
N2D_2 N -0.05084(10) -0.47885(15) -0.11380(18)
N3D N -0.26128(10) -0.22485(15) -0.41183(18)
N4D N -0.19895(10) -0.18731(16) 0.03095(18)
loop_
_geom_bond_atom_site_label_1
_geom_bond_atom_site_label_2
_geom_bond_site_symmetry_1
_geom_bond_site_symmetry_2
Br1 Cu1 1_555 1_555
Br2 Cu1 1_555 1_555
Br3 Cu1 1_555 1_555
Br4 Cu2 1_555 1_555
Cu1 Cu2 1_555 1_555
Cu2 Br1 1_555 1_555
Cu3 Br1 1_555 1_555
Cu4 Br2 1_555 1_555
N1 Cu1 1_555 1_555
N2 Cu2 1_555 1_555
N3 Cu3 1_555 1_555
N4 Cu4 1_555 1_555
C1 N1 1_555 1_555
H1 C1 1_555 1_555
H2 C1 1_555 1_555
C2 C1 1_555 1_555
H3 C2 1_555 1_555
H4 C2 1_555 1_555
C3 N1 1_555 1_555
H5 C3 1_555 1_555
H6 C3 1_555 1_555
H7 C3 1_555 1_555
C4 N2 1_555 1_555
H8 C4 1_555 1_555
H9 C4 1_555 1_555
C5 N2 1_555 1_555
H10 C5 1_555 1_555
H11 C5 1_555 1_555
C6 N2 1_555 1_555
H12 C6 1_555 1_555
H13 C6 1_555 1_555
H14 C6 1_555 1_555
C7 N3 1_555 1_555
H15 C7 1_555 1_555
H16 C7 1_555 1_555
C8 N3 1_555 1_555
H17 C8 1_555 1_555
H18 C8 1_555 1_555
C9 N3 1_555 1_555
H19 C9 1_555 1_555
H20 C9 1_555 1_555
H21 C9 1_555 1_555
C10 N4 1_555 1_555
H22 C10 1_555 1_555
H23 C10 1_555 1_555
C11 N4 1_555 1_555
H24 C11 1_555 1_555
H25 C11 1_555 1_555
C12 N4 1_555 1_555
H26 C12 1_555 1_555
H27 C12 1_555 1_555
H28 C12 1_555 1_555
N1D C2 1_555 1_555
C1D N1D 1_555 1_555
H1D C1D 1_555 1_555
H2D C1D 1_555 1_555
C2D N1 1_555 1_555
H3D C2D 1_555 1_555
H4D C2D 1_555 1_555
C3D N1D 1_555 1_555
H5D C3D 1_555 1_555
H6D C3D 1_555 1_555
H7D C3D 1_555 1_555
N2D C4D 1_555 1_555
C4D C5 1_555 1_555
H8D C4D 1_555 1_555
H9D C4D 1_555 1_555
C5D C4 1_555 1_555
H10D C5D 1_555 1_555
H11D C5D 1_555 1_555
C6D N2D 1_555 1_555
H12D C6D 1_555 1_555
H13D C6D 1_555 1_555
H14D C6D 1_555 1_555
N3F C7F 1_555 1_555
C7F C8 1_555 1_555
H15F C7F 1_555 1_555
H16F C7F 1_555 1_555
C8F C7 1_555 1_555
H17F C8F 1_555 1_555
H18F C8F 1_555 1_555
C9F N3F 1_555 1_555
H19F C9F 1_555 1_555
H20F C9F 1_555 1_555
H21F C9F 1_555 1_555
N4F C10F 1_555 1_555
C10F C11 1_555 1_555
H22F C10F 1_555 1_555
H23F C10F 1_555 1_555
C11F C10 1_555 1_555
H24F C11F 1_555 1_555
H25F C11F 1_555 1_555
C12F N4F 1_555 1_555
H26F C12F 1_555 1_555
H27F C12F 1_555 1_555
H28F C12F 1_555 1_555
Br1D Cu1D 1_555 1_555
Br2D Cu1D 1_555 1_555
Br3D Cu1D 1_555 1_555
Br4D Cu2D 1_555 1_555
Cu1D N1D 1_555 1_555
Cu2D Br1D 1_555 1_555
Cu3D Br1D 1_555 1_555
Cu4D Br2D 1_555 1_555
Cu2D_2 N2D 1_555 1_555
Cu3F N3F 1_555 1_555
Cu4F N4F 1_555 1_555
N2D_2 Cu2D 1_555 1_555
N3D Cu3D 1_555 1_555
N4D Cu4D 1_555 1_555
Br2 Cu2 1_555 1_555
Br3 Cu3 1_555 1_555
Br3 Cu4 1_555 1_555
Br4 Cu3 1_555 1_555
Br4 Cu4 1_555 1_555
Cu1 Cu3 1_555 1_555
Cu1 Cu4 1_555 1_555
Cu2 Cu3 1_555 1_555
Cu2 Cu4 1_555 1_555
Cu3 Cu4 1_555 1_555
C1D C2D 1_555 1_555
N2D C5D 1_555 1_555
N3F C8F 1_555 1_555
N4F C11F 1_555 1_555
Br2D Cu2D 1_555 1_555
Br3D Cu3D 1_555 1_555
Br3D Cu4D 1_555 1_555
Br4D Cu3D 1_555 1_555
Br4D Cu4D 1_555 1_555
Cu1D Cu2D 1_555 1_555
Cu1D Cu3D 1_555 1_555
Cu1D Cu4D 1_555 1_555
Cu2D Cu3D 1_555 1_555
Cu2D Cu4D 1_555 1_555
Cu3D Cu4D 1_555 1_555

#END
