
#######################################################################
#
#                 Cambridge Crystallographic Data Centre
#                                CCDC 
#
#######################################################################
#
# If this CIF has been generated from an entry in the Cambridge 
# Structural Database, then it will include bibliographic, chemical, 
# crystal, experimental, refinement or atomic coordinate data resulting 
# from the CCDC's data processing and validation procedures.
#
#######################################################################

data_GIGBON
_symmetry_cell_setting           monoclinic
_symmetry_space_group_name_H-M   'C 2/c'
_symmetry_Int_Tables_number      15
_space_group_name_Hall           '-C 2yn'
loop_
_symmetry_equiv_pos_site_id
_symmetry_equiv_pos_as_xyz
1 x,y,z
2 1/2+x,1/2+y,z
3 -x,y,1/2-z
4 1/2-x,1/2+y,1/2-z
5 -x,-y,-z
6 1/2-x,1/2-y,-z
7 x,-y,1/2+z
8 1/2+x,1/2-y,1/2+z
_cell_length_a                   9.613(1)
_cell_length_b                   13.579(1)
_cell_length_c                   16.052(2)
_cell_angle_alpha                90
_cell_angle_beta                 98.36(3)
_cell_angle_gamma                90
_cell_volume                     2073.08
loop_
_atom_site_label
_atom_site_type_symbol
_atom_site_fract_x
_atom_site_fract_y
_atom_site_fract_z
Pb1 Pb 0.5000 0.0896(1) 0.7500
Pb2 Pb 0.8293(1) 0.215(1) 0.8984(1)
S1 S 0.6468(3) 0.2654(2) 0.7288(2)
C1 C 0.5000 0.3317(11) 0.7500
C2 C 0.5000 0.4299(13) 0.7500
C3 C 0.3854(12) 0.4871(8) 0.7691(8)
N1 N 0.2916(12) 0.5361(8) 0.7821(8)
S2 S 0.5800(3) 0.1337(2) 0.9334(2)
S3 S 0.6651(3) 0.3972(3) 0.9419(2)
C4 C 0.7032(11) 0.0523(8) 0.9866(7)
C5 C 0.7003(12) -0.0468(8) 0.9694(7)
C6 C 0.5956(12) -0.0852(8) 0.9072(8)
C7 C 0.7967(14) -0.1170(10) 1.0157(9)
N2 N 0.5102(12) -0.1137(8) 0.8546(7)
N3 N 0.8713(13) -0.1715(9) 1.0505(9)
S1B S 0.3532(3) 0.2654(2) 0.7712(2)
S2B S 0.4200(3) 0.1337(2) 0.5666(2)
Pb2E Pb 0.6707(1) 0.285(1) 1.1016(1)
S3E S 0.8349(3) 0.1028(3) 1.0581(2)
C3B C 0.6146(12) 0.4871(8) 0.7309(8)
C4E C 0.7968(11) 0.4477(8) 1.0134(7)
Pb2B Pb 0.1707(1) 0.215(1) 0.6016(1)
C4B C 0.2968(11) 0.0523(8) 0.5134(7)
S1E S 0.8532(3) 0.2346(2) 1.2712(2)
S2E S 0.9200(3) 0.3663(2) 1.0666(2)
N1B N 0.7084(12) 0.5361(8) 0.7179(8)
C5E C 0.7997(12) 0.5468(8) 1.0306(7)
Pb2G Pb 0.3293(1) 0.285(1) 0.3984(1)
S3B S 0.3349(3) 0.3972(3) 0.5581(2)
S3G S 0.1651(3) 0.1028(3) 0.4419(2)
C5B C 0.2997(12) -0.0468(8) 0.5306(7)
Pb1E Pb 1.0000 0.4104(1) 1.2500
C1E C 1.0000 0.1683(11) 1.2500
C6E C 0.9044(12) 0.5852(8) 1.0928(8)
C7E C 0.7033(14) 0.6170(10) 0.9843(9)
S1G S 0.1468(3) 0.2346(2) 0.2288(2)
S2G S 0.0800(3) 0.3663(2) 0.4334(2)
C4G C 0.2032(11) 0.4477(8) 0.4866(7)
C6B C 0.4044(12) -0.0852(8) 0.5928(8)
C7B C 0.2033(14) -0.1170(10) 0.4843(9)
S1G_2 S 1.1468(3) 0.2346(2) 1.2288(2)
C2E C 1.0000 0.0701(13) 1.2500
N2E N 0.9898(12) 0.6137(8) 1.1454(7)
N3E N 0.6287(13) 0.6715(9) 0.9495(9)
Pb1E_2 Pb 0.0000 0.4104(1) 0.2500
C5G C 0.2003(12) 0.5468(8) 0.4694(7)
N2B N 0.4898(12) -0.1137(8) 0.6454(7)
N3B N 0.1287(13) -0.1715(9) 0.4495(9)
C3E C 1.1146(12) 0.0129(8) 1.2309(8)
C3G C 0.8854(12) 0.0129(8) 1.2691(8)
C6G C 0.0956(12) 0.5852(8) 0.4072(8)
C7G C 0.2967(14) 0.6170(10) 0.5157(9)
N1E N 1.2084(12) -0.0361(8) 1.2179(8)
N1G N 0.7916(12) -0.0361(8) 1.2821(8)
N2G N 0.0102(12) 0.6137(8) 0.3546(7)
N3G N 0.3713(13) 0.6715(9) 0.5505(9)
Pb2G_2 Pb 1.3293(1) 0.285(1) 1.3984(1)
S1E_2 S -0.1468(3) 0.2346(2) 0.2712(2)
S2E_2 S -0.0800(3) 0.3663(2) 0.0666(2)
loop_
_geom_bond_atom_site_label_1
_geom_bond_atom_site_label_2
_geom_bond_site_symmetry_1
_geom_bond_site_symmetry_2
Pb1 S1 1_555 1_555
Pb2 S1 1_555 1_555
S1 C1 1_555 1_555
C1 C2 1_555 1_555
C2 C3 1_555 1_555
C3 N1 1_555 1_555
S2 Pb1 1_555 1_555
S3 Pb2 1_555 1_555
C4 S2 1_555 1_555
C5 C4 1_555 1_555
C6 C5 1_555 1_555
C7 C5 1_555 1_555
N2 C6 1_555 1_555
N3 C7 1_555 1_555
S1B Pb1 1_555 1_555
S2B Pb1 1_555 1_555
Pb2E Pb2 1_555 1_555
S3E Pb2 1_555 1_555
C3B C2 1_555 1_555
C4E S3 1_555 1_555
Pb2B S1B 1_555 1_555
C4B S2B 1_555 1_555
S1E Pb2E 1_555 1_555
S2E Pb2E 1_555 1_555
N1B C3B 1_555 1_555
C5E C4E 1_555 1_555
Pb2G Pb2B 1_555 1_555
S3B Pb2B 1_555 1_555
S3G Pb2B 1_555 1_555
C5B C4B 1_555 1_555
Pb1E S1E 1_555 1_555
C1E S1E 1_555 1_555
C6E C5E 1_555 1_555
C7E C5E 1_555 1_555
S1G Pb2G 1_555 1_555
S2G Pb2G 1_555 1_555
C4G S3B 1_555 1_555
C6B C5B 1_555 1_555
C7B C5B 1_555 1_555
S1G_2 Pb1E 1_555 1_555
C2E C1E 1_555 1_555
N2E C6E 1_555 1_555
N3E C7E 1_555 1_555
Pb1E_2 S1G 1_555 1_555
C5G C4G 1_555 1_555
N2B C6B 1_555 1_555
N3B C7B 1_555 1_555
C3E C2E 1_555 1_555
C3G C2E 1_555 1_555
C6G C5G 1_555 1_555
C7G C5G 1_555 1_555
N1E C3E 1_555 1_555
N1G C3G 1_555 1_555
N2G C6G 1_555 1_555
N3G C7G 1_555 1_555
Pb2G_2 S1G_2 1_555 1_555
S1E_2 Pb1E_2 1_555 1_555
S2E_2 Pb1E_2 1_555 1_555
Pb2 S2 1_555 1_555
C1 S1B 1_555 1_555
S3 Pb2E 1_555 1_555
C4 S3E 1_555 1_555
S2B Pb2B 1_555 1_555
Pb2E S3E 1_555 1_555
C4E S2E 1_555 1_555
C4B S3G 1_555 1_555
S2E Pb1E 1_555 1_555
Pb2G S3B 1_555 1_555
Pb2G S3G 1_555 1_555
C1E S1G_2 1_555 1_555
S2G Pb1E_2 1_555 1_555
S2G C4G 1_555 1_555

#END
