
#######################################################################
#
#                 Cambridge Crystallographic Data Centre
#                                CCDC 
#
#######################################################################
#
# If this CIF has been generated from an entry in the Cambridge 
# Structural Database, then it will include bibliographic, chemical, 
# crystal, experimental, refinement or atomic coordinate data resulting 
# from the CCDC's data processing and validation procedures.
#
#######################################################################

data_GIGBUU
_symmetry_cell_setting           monoclinic
_symmetry_space_group_name_H-M   'C c'
_symmetry_Int_Tables_number      9
_space_group_name_Hall           'C -2yc'
loop_
_symmetry_equiv_pos_site_id
_symmetry_equiv_pos_as_xyz
1 x,y,z
2 x,-y,1/2+z
3 1/2+x,1/2+y,z
4 1/2+x,1/2-y,1/2+z
_cell_length_a                   15.6873(13)
_cell_length_b                   8.8288(7)
_cell_length_c                   18.3278(15)
_cell_angle_alpha                90
_cell_angle_beta                 98.4240(10)
_cell_angle_gamma                90
_cell_volume                     2511.01
loop_
_atom_site_label
_atom_site_type_symbol
_atom_site_fract_x
_atom_site_fract_y
_atom_site_fract_z
Pr1 Pr -0.046090(14) -0.45053(3) 0.142190(12)
Pr2 Pr 0.046150(14) -0.40939(3) 0.357830(12)
O1 O -0.0821(2) -0.3221(4) 0.26202(17)
O2 O -0.1731(2) -0.1912(4) 0.32143(19)
O3 O -0.4338(2) -0.0258(4) 0.06951(19)
O4 O -0.3735(2) -0.1324(4) -0.02131(19)
O5 O 0.3579(2) -0.0280(4) 0.03085(18)
O6 O 0.2466(3) -0.1566(5) -0.02846(19)
O7 O 0.0797(2) -0.3512(4) 0.22286(19)
O8 O 0.1836(3) -0.3072(5) 0.3136(2)
O9 O -0.0143(2) -1.2421(4) 0.06464(18)
O10 O -0.0229(3) -1.0659(4) -0.0222(2)
O11 O -0.0080(3) -0.6067(3) 0.26283(18)
O12 O -0.0014(4) -0.8306(4) 0.3207(2)
O13 O -0.0628(2) -0.3107(4) 0.43257(18)
H1 H -0.0879 -0.3859 0.4491
H2 H -0.0940 -0.2523 0.4029
O14 O 0.0511(4) -0.1244(4) 0.3672(3)
H3 H 0.0841 -0.0870 0.3390
H4 H 0.0656 -0.1115 0.4133
O15 O 0.1695(3) -0.6054(5) 0.3690(2)
H5 H 0.1852 -0.5543 0.3340
H6 H 0.1778 -0.7005 0.3683
O16 O 0.0079(3) -0.6249(4) 0.42640(18)
H7 H 0.0001 -0.6351 0.4710
H8 H 0.0026 -0.7041 0.3997
N1 N -0.1733(3) -0.2566(5) 0.1314(2)
N2 N -0.2332(3) -0.2168(5) 0.0759(2)
H9 H -0.2286 -0.2314 0.0302
N3 N 0.3090(3) -0.0848(5) 0.1616(2)
N4 N 0.2731(3) -0.1377(5) 0.2188(2)
H10 H 0.2920 -0.1197 0.2644
N5 N -0.0291(3) -0.8402(4) 0.0758(2)
H11 H -0.0372 -0.8132 0.0302
N6 N -0.0268(3) -0.7449(5) 0.1320(2)
C1 C -0.1509(3) -0.2435(5) 0.2643(3)
C2 C -0.2051(3) -0.2155(5) 0.1923(3)
C3 C -0.2862(4) -0.1479(6) 0.1749(3)
H12 H -0.3214 -0.1094 0.2071
C4 C -0.3016(3) -0.1516(6) 0.0988(3)
C5 C -0.3760(3) -0.0994(5) 0.0446(3)
C6 C 0.2889(4) -0.1074(6) 0.0281(3)
C7 C 0.2625(3) -0.1398(6) 0.1014(2)
C8 C 0.1938(3) -0.2272(6) 0.1189(3)
H13 H 0.1515 -0.2763 0.0864
C9 C 0.2027(3) -0.2241(6) 0.1944(3)
C10 C 0.1532(3) -0.2993(6) 0.2467(3)
C11 C -0.0176(3) -1.1056(5) 0.0421(3)
C12 C -0.0173(3) -0.9840(5) 0.0989(3)
C13 C -0.0072(4) -0.9820(6) 0.1741(3)
H14 H 0.0021 -1.0638 0.2062
C14 C -0.0142(4) -0.8303(5) 0.1917(3)
C15 C -0.0076(4) -0.7538(5) 0.2652(3)
Pr1B Pr 0.453910(14) 0.04947(3) 0.142190(12)
Pr1B_2 Pr -0.546090(14) 0.04947(3) 0.142190(12)
Pr1_2 Pr -0.046090(14) -1.45053(3) 0.142190(12)
Pr2C Pr -0.453850(14) -0.09061(3) -0.142170(12)
O3B O 0.0662(2) -0.5258(4) 0.06951(19)
O4C O 0.1265(2) -0.3676(4) 0.47869(19)
O5B O -0.1421(2) -0.5280(4) 0.03085(18)
O9_2 O -0.0143(2) -0.2421(4) 0.06464(18)
N3B N -0.1910(3) -0.5848(5) 0.1616(2)
O17 O 0.8160(3) 0.1953(5) 0.4339(2)
H15 H 0.8136 0.2643 0.4013
H16 H 0.8557 0.1295 0.4344
O18 O 0.2997(6) 0.9686(6) 0.3591(3)
loop_
_geom_bond_atom_site_label_1
_geom_bond_atom_site_label_2
_geom_bond_site_symmetry_1
_geom_bond_site_symmetry_2
Pr1 O1 1_555 1_555
Pr2 O1 1_555 1_555
O1 C1 1_555 1_555
O2 C1 1_555 1_555
O3 C5 1_555 1_555
O4 C5 1_555 1_555
O5 C6 1_555 1_555
O6 C6 1_555 1_555
O7 Pr1 1_555 1_555
O8 Pr2 1_555 1_555
O9 C11 1_555 1_555
O10 C11 1_555 1_555
O11 Pr1 1_555 1_555
O12 C15 1_555 1_555
O13 Pr2 1_555 1_555
H1 O13 1_555 1_555
H2 O13 1_555 1_555
O14 Pr2 1_555 1_555
H3 O14 1_555 1_555
H4 O14 1_555 1_555
O15 Pr2 1_555 1_555
H5 O15 1_555 1_555
H6 O15 1_555 1_555
O16 Pr2 1_555 1_555
H7 O16 1_555 1_555
H8 O16 1_555 1_555
N1 Pr1 1_555 1_555
N2 N1 1_555 1_555
H9 N2 1_555 1_555
N3 N4 1_555 1_555
N4 H10 1_555 1_555
N5 H11 1_555 1_555
N6 Pr1 1_555 1_555
C1 C2 1_555 1_555
C2 N1 1_555 1_555
C3 C2 1_555 1_555
H12 C3 1_555 1_555
C4 N2 1_555 1_555
C5 C4 1_555 1_555
C6 C7 1_555 1_555
C7 N3 1_555 1_555
C8 C7 1_555 1_555
H13 C8 1_555 1_555
C9 N4 1_555 1_555
C10 O7 1_555 1_555
C11 C12 1_555 1_555
C12 N5 1_555 1_555
C13 C12 1_555 1_555
H14 C13 1_555 1_555
C14 N6 1_555 1_555
C15 O11 1_555 1_555
O17 H15 1_555 1_555
H16 O17 1_555 1_555
Pr1B O5 1_555 1_555
Pr1B_2 O3 1_555 1_555
Pr1_2 O9 1_555 1_555
Pr2C O4 1_555 1_555
O3B Pr1 1_555 1_555
O4C Pr2 1_555 1_555
O5B Pr1 1_555 1_555
O9_2 Pr1 1_555 1_555
N3B Pr1 1_555 1_555
Pr2 O7 1_555 1_555
Pr2 O11 1_555 1_555
O8 C10 1_555 1_555
N3 Pr1B 1_555 1_555
N5 N6 1_555 1_555
C3 C4 1_555 1_555
C8 C9 1_555 1_555
C9 C10 1_555 1_555
C13 C14 1_555 1_555
C14 C15 1_555 1_555

#END
