
#######################################################################
#
#                 Cambridge Crystallographic Data Centre
#                                CCDC 
#
#######################################################################
#
# If this CIF has been generated from an entry in the Cambridge 
# Structural Database, then it will include bibliographic, chemical, 
# crystal, experimental, refinement or atomic coordinate data resulting 
# from the CCDC's data processing and validation procedures.
#
#######################################################################

data_GIGBAB
_symmetry_cell_setting           orthorhombic
_symmetry_space_group_name_H-M   'F d d 2'
_symmetry_Int_Tables_number      43
_space_group_name_Hall           'F 2 -2d'
loop_
_symmetry_equiv_pos_site_id
_symmetry_equiv_pos_as_xyz
1 x,y,z
2 -x,-y,z
3 1/4+x,1/4-y,1/4+z
4 1/4-x,1/4+y,1/4+z
5 x,1/2+y,1/2+z
6 -x,1/2-y,1/2+z
7 1/4+x,3/4-y,3/4+z
8 1/4-x,3/4+y,3/4+z
9 1/2+x,y,1/2+z
10 1/2-x,-y,1/2+z
11 3/4+x,1/4-y,3/4+z
12 3/4-x,1/4+y,3/4+z
13 1/2+x,1/2+y,z
14 1/2-x,1/2-y,z
15 3/4+x,3/4-y,1/4+z
16 3/4-x,3/4+y,1/4+z
_cell_length_a                   33.4094(14)
_cell_length_b                   37.0836(16)
_cell_length_c                   6.5516(3)
_cell_angle_alpha                90
_cell_angle_beta                 90
_cell_angle_gamma                90
_cell_volume                     8117.04
loop_
_atom_site_label
_atom_site_type_symbol
_atom_site_fract_x
_atom_site_fract_y
_atom_site_fract_z
Br1 Br 0.876421(14) 0.169087(12) 0.64007(8)
Br2 Br 0.949493(15) 0.183599(14) 0.13781(10)
Br3 Br 0.84655(3) 0.118900(14) 0.14166(12)
Br4 Br 0.838208(13) 0.228665(12) 0.14252(9)
Cu1 Cu 0.90787(2) 0.10187(2) 0.60097(18)
Cu2 Cu 0.89799(2) 0.214296(19) 0.35952(14)
Cu3 Cu 0.82520(2) 0.16924(2) 0.34355(15)
Cu4 Cu 0.88127(3) 0.17262(3) 0.02435(16)
N1 N 0.86643(13) 0.07097(10) 0.7164(7)
H1 H 0.8505 0.0857 0.7978
N2 N 0.82229(11) 0.00396(10) 0.7802(7)
N3 N 0.96048(12) 0.11430(12) 0.4915(8)
H2 H 0.9564 0.1308 0.3868
N4 N 1.01801(12) 0.07209(10) 0.7190(7)
C1 C 0.83981(16) 0.05539(13) 0.5587(9)
H3 H 0.8558 0.0399 0.4666
H4 H 0.8283 0.0751 0.4758
C2 C 0.80608(14) 0.03326(13) 0.6502(10)
H5 H 0.7886 0.0491 0.7332
H6 H 0.7897 0.0227 0.5394
C3 C 0.84703(16) 0.02038(13) 0.9415(8)
H7 H 0.8302 0.0365 1.0264
H8 H 0.8580 0.0012 1.0306
C4 C 0.88123(14) 0.04190(13) 0.8487(9)
H9 H 0.8977 0.0524 0.9595
H10 H 0.8985 0.0256 0.7681
C5 C 0.78772(15) -0.01423(14) 0.8784(11)
H11 H 0.7974 -0.0311 0.9822
H12 H 0.7705 0.0039 0.9428
H13 H 0.7724 -0.0274 0.7749
C6 C 0.98111(16) 0.08288(15) 0.4012(11)
H14 H 1.0058 0.0909 0.3312
H15 H 0.9635 0.0713 0.2989
C7 C 0.99152(15) 0.05617(12) 0.5670(10)
H16 H 0.9666 0.0479 0.6343
H17 H 1.0047 0.0349 0.5053
C8 C 0.99922(16) 0.10495(14) 0.8041(9)
H18 H 0.9750 0.0981 0.8819
H19 H 1.0181 0.1166 0.8999
C9 C 0.98781(14) 0.13141(12) 0.6399(12)
H20 H 0.9745 0.1526 0.7023
H21 H 1.0122 0.1399 0.5688
C10 C 1.02422(18) 0.04609(16) 0.8885(13)
H22 H 0.9982 0.0385 0.9429
H23 H 1.0387 0.0250 0.8376
H24 H 1.0398 0.0576 0.9971
Br1_2 Br 0.876421(14) 0.169087(12) -0.35993(8)
Cu2O Cu 0.85201(2) -0.035704(19) 0.60952(14)
Cu3B Cu 1.07520(2) 0.08076(2) 0.59355(15)
Cu4_2 Cu 0.88127(3) 0.17262(3) 1.02435(16)
N2K N 0.92771(11) 0.25396(10) 0.5302(7)
N4J N 0.76801(12) 0.17791(10) 0.4690(7)
loop_
_geom_bond_atom_site_label_1
_geom_bond_atom_site_label_2
_geom_bond_site_symmetry_1
_geom_bond_site_symmetry_2
Br1 Cu1 1_555 1_555
Br2 Cu2 1_555 1_555
Br3 Cu3 1_555 1_555
Br4 Cu2 1_555 1_555
Cu1 N1 1_555 1_555
Cu2 Br1 1_555 1_555
Cu3 Br1 1_555 1_555
Cu4 Br2 1_555 1_555
N1 H1 1_555 1_555
N2 C2 1_555 1_555
N3 Cu1 1_555 1_555
H2 N3 1_555 1_555
N4 C7 1_555 1_555
C1 N1 1_555 1_555
H3 C1 1_555 1_555
H4 C1 1_555 1_555
C2 C1 1_555 1_555
H5 C2 1_555 1_555
H6 C2 1_555 1_555
C3 N2 1_555 1_555
H7 C3 1_555 1_555
H8 C3 1_555 1_555
C4 N1 1_555 1_555
H9 C4 1_555 1_555
H10 C4 1_555 1_555
C5 N2 1_555 1_555
H11 C5 1_555 1_555
H12 C5 1_555 1_555
H13 C5 1_555 1_555
C6 N3 1_555 1_555
H14 C6 1_555 1_555
H15 C6 1_555 1_555
C7 C6 1_555 1_555
H16 C7 1_555 1_555
H17 C7 1_555 1_555
C8 N4 1_555 1_555
H18 C8 1_555 1_555
H19 C8 1_555 1_555
C9 N3 1_555 1_555
H20 C9 1_555 1_555
H21 C9 1_555 1_555
C10 N4 1_555 1_555
H22 C10 1_555 1_555
H23 C10 1_555 1_555
H24 C10 1_555 1_555
Br1_2 Cu4 1_555 1_555
Cu2O N2 1_555 1_555
Cu3B N4 1_555 1_555
Cu4_2 Br1 1_555 1_555
N2K Cu2 1_555 1_555
N4J Cu3 1_555 1_555
Br3 Cu4 1_555 1_555
Br4 Cu3 1_555 1_555
Br4 Cu4 1_555 1_555
Cu2 Cu4 1_555 1_555
Cu3 Cu4 1_555 1_555
C3 C4 1_555 1_555
C8 C9 1_555 1_555

#END
