
#######################################################################
#
#                 Cambridge Crystallographic Data Centre
#                                CCDC 
#
#######################################################################
#
# If this CIF has been generated from an entry in the Cambridge 
# Structural Database, then it will include bibliographic, chemical, 
# crystal, experimental, refinement or atomic coordinate data resulting 
# from the CCDC's data processing and validation procedures.
#
#######################################################################

data_GIGBIJ
_symmetry_cell_setting           monoclinic
_symmetry_space_group_name_H-M   'P 21/c'
_symmetry_Int_Tables_number      14
_space_group_name_Hall           '-P 2ybc'
loop_
_symmetry_equiv_pos_site_id
_symmetry_equiv_pos_as_xyz
1 x,y,z
2 -x,1/2+y,1/2-z
3 -x,-y,-z
4 x,1/2-y,1/2+z
_cell_length_a                   7.1527(2)
_cell_length_b                   12.5997(4)
_cell_length_c                   7.8483(3)
_cell_angle_alpha                90
_cell_angle_beta                 90.712(2)
_cell_angle_gamma                90
_cell_volume                     707.249
loop_
_atom_site_label
_atom_site_type_symbol
_atom_site_fract_x
_atom_site_fract_y
_atom_site_fract_z
I1 I 0.74454(4) 0.61107(2) -0.01407(4)
Cu1 Cu 0.54213(9) 0.47574(6) 0.14896(9)
N1 N 0.6421(5) 0.4511(3) 0.3905(5)
C1 C 0.6714(7) 0.5548(4) 0.4787(6)
H1 H 0.7560 0.5996 0.4105
H2 H 0.7319 0.5424 0.5911
C2 C 0.5119(7) 0.3876(4) 0.4966(7)
H3 H 0.5709 0.3736 0.6092
H4 H 0.4878 0.3184 0.4406
C3 C 0.8274(7) 0.3964(4) 0.3801(7)
H5 H 0.8751 0.3827 0.4969
H6 H 0.9172 0.4442 0.3233
C4 C 0.8182(7) 0.2920(4) 0.2831(7)
H7 H 0.7365 0.2424 0.3431
H8 H 0.9440 0.2617 0.2756
H9 H 0.7682 0.3047 0.1681
N1B N 0.3579(5) 0.5489(3) 0.6095(5)
C1B C 0.3286(7) 0.4452(4) 0.5213(6)
H1B H 0.2440 0.4004 0.5895
H2B H 0.2681 0.4576 0.4089
C2B C 0.4881(7) 0.6124(4) 0.5034(7)
H3B H 0.4291 0.6264 0.3908
H4B H 0.5122 0.6816 0.5594
C3B C 0.1726(7) 0.6036(4) 0.6199(7)
H5B H 0.1249 0.6173 0.5031
H6B H 0.0828 0.5558 0.6767
C4B C 0.1818(7) 0.7080(4) 0.7169(7)
H7B H 0.2635 0.7576 0.6569
H8B H 0.0560 0.7383 0.7244
H9B H 0.2318 0.6953 0.8319
I1B I 0.25546(4) 0.38893(2) 0.01407(4)
Cu1B Cu 0.45787(9) 0.52426(6) -0.14896(9)
Cu1B_2 Cu 0.45787(9) 0.52426(6) 0.85104(9)
N1B_2 N 0.3579(5) 0.5489(3) -0.3905(5)
loop_
_geom_bond_atom_site_label_1
_geom_bond_atom_site_label_2
_geom_bond_site_symmetry_1
_geom_bond_site_symmetry_2
I1 Cu1 1_555 1_555
Cu1 N1 1_555 1_555
N1 C1 1_555 1_555
C1 H1 1_555 1_555
H2 C1 1_555 1_555
C2 N1 1_555 1_555
H3 C2 1_555 1_555
H4 C2 1_555 1_555
C3 N1 1_555 1_555
H5 C3 1_555 1_555
H6 C3 1_555 1_555
C4 C3 1_555 1_555
H7 C4 1_555 1_555
H8 C4 1_555 1_555
H9 C4 1_555 1_555
N1B C1B 1_555 1_555
C1B C2 1_555 1_555
H1B C1B 1_555 1_555
H2B C1B 1_555 1_555
C2B C1 1_555 1_555
H3B C2B 1_555 1_555
H4B C2B 1_555 1_555
C3B N1B 1_555 1_555
H5B C3B 1_555 1_555
H6B C3B 1_555 1_555
C4B C3B 1_555 1_555
H7B C4B 1_555 1_555
H8B C4B 1_555 1_555
H9B C4B 1_555 1_555
I1B Cu1 1_555 1_555
Cu1B I1 1_555 1_555
Cu1B_2 N1B 1_555 1_555
N1B_2 Cu1B 1_555 1_555
Cu1 Cu1B 1_555 1_555
N1B C2B 1_555 1_555
I1B Cu1B 1_555 1_555

#END
