
#######################################################################
#
#                 Cambridge Crystallographic Data Centre
#                                CCDC 
#
#######################################################################
#
# If this CIF has been generated from an entry in the Cambridge 
# Structural Database, then it will include bibliographic, chemical, 
# crystal, experimental, refinement or atomic coordinate data resulting 
# from the CCDC's data processing and validation procedures.
#
#######################################################################

data_GIGBAA
_symmetry_cell_setting           monoclinic
_symmetry_space_group_name_H-M   'P 21/n'
_symmetry_Int_Tables_number      14
_space_group_name_Hall           '-P 2yn'
loop_
_symmetry_equiv_pos_site_id
_symmetry_equiv_pos_as_xyz
1 x,y,z
2 1/2-x,1/2+y,1/2-z
3 -x,-y,-z
4 1/2+x,1/2-y,1/2+z
_cell_length_a                   10.862(3)
_cell_length_b                   9.282(3)
_cell_length_c                   14.230(4)
_cell_angle_alpha                90
_cell_angle_beta                 104.968(4)
_cell_angle_gamma                90
_cell_volume                     1386.01
loop_
_atom_site_label
_atom_site_type_symbol
_atom_site_fract_x
_atom_site_fract_y
_atom_site_fract_z
Dy1 Dy 0.455239(18) 0.62789(2) 0.234838(16)
O1 O 0.2965(3) 0.7499(3) 0.2821(3)
O2 O 0.2098(3) 0.9611(3) 0.2966(3)
O3 O 0.3137(3) 0.7249(3) 0.0846(2)
O4 O 0.2362(3) 0.9235(3) -0.0001(3)
O5 O 0.6960(3) 1.2989(3) 0.1580(3)
O6 O 0.8206(3) 1.1185(3) 0.2309(3)
O7 O -0.2953(3) 0.6459(4) 0.0083(3)
O8 O -0.1492(3) 0.4706(3) 0.0252(3)
H1 H -0.2088 0.4234 -0.0075
N1 N -0.1085(4) 0.8310(4) 0.1134(3)
H2 H -0.1794 0.8740 0.0879
N2 N -0.0075(3) 0.8948(4) 0.1727(3)
N3 N 0.5160(4) 0.8603(4) 0.1844(3)
N4 N 0.6187(3) 0.9439(4) 0.2148(3)
H3 H 0.6850 0.9201 0.2598
C1 C 0.2054(4) 0.8362(5) 0.2631(4)
C2 C 0.0824(4) 0.7908(5) 0.1973(3)
C3 C 0.0366(5) 0.6614(5) 0.1520(4)
H4 H 0.0795 0.5738 0.1571
C4 C -0.0859(4) 0.6907(5) 0.0981(4)
C5 C -0.1886(5) 0.6002(5) 0.0383(4)
C6 C 0.3184(4) 0.8577(5) 0.0622(4)
C7 C 0.4345(4) 0.9368(5) 0.1152(4)
C8 C 0.4855(4) 1.0703(5) 0.1020(3)
H5 H 0.4477 1.1435 0.0597
C9 C 0.6060(4) 1.0695(5) 0.1666(3)
C10 C 0.7157(4) 1.1715(5) 0.1871(3)
O9 O 0.5261(3) 0.6963(4) 0.3984(3)
H6 H 0.5964 0.6656 0.4342
H7 H 0.5033 0.7804 0.4104
O10 O 0.5018(3) 0.4890(3) 0.1121(2)
H8 H 0.5640 0.4304 0.1236
H9 H 0.4363 0.4653 0.0677
Dy1A Dy 0.044761(18) 1.12789(2) 0.265162(16)
Dy1A_2 Dy 1.044761(18) 1.12789(2) 0.265162(16)
O2A O 0.2902(3) 0.4611(3) 0.2034(3)
O6A O 0.6794(3) 0.6185(3) 0.2691(3)
N2A N 0.5075(3) 0.3948(4) 0.3273(3)
loop_
_geom_bond_atom_site_label_1
_geom_bond_atom_site_label_2
_geom_bond_site_symmetry_1
_geom_bond_site_symmetry_2
Dy1 O1 1_555 1_555
O1 C1 1_555 1_555
O2 C1 1_555 1_555
O3 Dy1 1_555 1_555
O4 C6 1_555 1_555
O5 C10 1_555 1_555
O6 C10 1_555 1_555
O7 C5 1_555 1_555
O8 H1 1_555 1_555
N1 H2 1_555 1_555
N2 N1 1_555 1_555
N3 Dy1 1_555 1_555
N4 N3 1_555 1_555
H3 N4 1_555 1_555
C1 C2 1_555 1_555
C2 N2 1_555 1_555
C3 C2 1_555 1_555
H4 C3 1_555 1_555
C4 N1 1_555 1_555
C5 O8 1_555 1_555
C6 O3 1_555 1_555
C7 N3 1_555 1_555
C8 C7 1_555 1_555
H5 C8 1_555 1_555
C9 N4 1_555 1_555
C10 C9 1_555 1_555
O9 Dy1 1_555 1_555
H6 O9 1_555 1_555
H7 O9 1_555 1_555
O10 Dy1 1_555 1_555
H8 O10 1_555 1_555
H9 O10 1_555 1_555
Dy1A O2 1_555 1_555
Dy1A_2 O6 1_555 1_555
O2A Dy1 1_555 1_555
O6A Dy1 1_555 1_555
N2A Dy1 1_555 1_555
N2 Dy1A 1_555 1_555
C3 C4 1_555 1_555
C4 C5 1_555 1_555
C6 C7 1_555 1_555
C8 C9 1_555 1_555

#END
