
#######################################################################
#
#                 Cambridge Crystallographic Data Centre
#                                CCDC 
#
#######################################################################
#
# If this CIF has been generated from an entry in the Cambridge 
# Structural Database, then it will include bibliographic, chemical, 
# crystal, experimental, refinement or atomic coordinate data resulting 
# from the CCDC's data processing and validation procedures.
#
#######################################################################

data_GIGBEF
_symmetry_cell_setting           monoclinic
_symmetry_space_group_name_H-M   'C 2/c'
_symmetry_Int_Tables_number      15
_space_group_name_Hall           '-C 2yn'
loop_
_symmetry_equiv_pos_site_id
_symmetry_equiv_pos_as_xyz
1 x,y,z
2 -x,y,1/2-z
3 1/2+x,1/2+y,z
4 1/2-x,1/2+y,1/2-z
5 -x,-y,-z
6 x,-y,1/2+z
7 1/2-x,1/2-y,-z
8 1/2+x,1/2-y,1/2+z
_cell_length_a                   27.3307(15)
_cell_length_b                   14.3197(8)
_cell_length_c                   14.3175(8)
_cell_angle_alpha                90
_cell_angle_beta                 121.052(2)
_cell_angle_gamma                90
_cell_volume                     4800.43
loop_
_atom_site_label
_atom_site_type_symbol
_atom_site_fract_x
_atom_site_fract_y
_atom_site_fract_z
I1 I 0.196484(16) 0.10187(3) 0.17530(3)
I2 I 0.170233(15) 0.42370(3) 0.16960(3)
I3 I 0.054538(15) 0.22677(3) -0.09201(3)
I4 I 0.077520(15) 0.24900(3) 0.25317(3)
Cu1 Cu 0.16256(4) 0.26460(6) 0.06145(7)
Cu2 Cu 0.06993(4) 0.33140(6) 0.07612(6)
Cu3 Cu 0.08766(4) 0.14757(6) 0.10342(7)
Cu4 Cu 0.17873(4) 0.25539(6) 0.26220(7)
N1 N 0.2005(2) 0.3112(4) -0.0292(4)
N2 N -0.0116(2) 0.3998(3) 0.0011(4)
N3 N 0.0493(2) 0.0191(4) 0.1107(4)
N4 N 0.2600(2) 0.2672(4) 0.4097(4)
C1 C 0.2003(3) 0.2380(5) -0.1043(5)
H1 H 0.2128 0.2666 -0.1515
H2 H 0.1608 0.2149 -0.1519
C2 C 0.2389(3) 0.1565(4) -0.0437(5)
H3 H 0.2254 0.1254 0.0007
H4 H 0.2374 0.1104 -0.0968
C3 C 0.1663(3) 0.3925(5) -0.0968(5)
H5 H 0.1826 0.4157 -0.1394
H6 H 0.1672 0.4423 -0.0490
H7 H 0.1267 0.3729 -0.1462
C4 C -0.0245(3) 0.4498(4) -0.1008(5)
H8 H -0.0645 0.4723 -0.1389
H9 H -0.0206 0.4059 -0.1499
C5 C -0.0152(3) 0.4681(4) 0.0759(5)
H10 H -0.0054 0.4363 0.1449
H11 H -0.0550 0.4912 0.0421
C6 C -0.0564(3) 0.3271(5) -0.0284(6)
H12 H -0.0484 0.2927 0.0372
H13 H -0.0563 0.2837 -0.0813
H14 H -0.0939 0.3571 -0.0607
C7 C 0.0500(3) -0.0551(4) 0.0380(5)
H15 H 0.0381 -0.1150 0.0546
H16 H 0.0896 -0.0628 0.0538
C8 C -0.0109(3) 0.0332(4) 0.0827(5)
H17 H -0.0124 0.0853 0.1267
H18 H -0.0246 -0.0240 0.1011
C9 C 0.0832(3) -0.0143(5) 0.2253(5)
H19 H 0.0826 0.0330 0.2740
H20 H 0.1228 -0.0254 0.2446
H21 H 0.0667 -0.0726 0.2326
C10 C 0.2621(3) 0.3433(4) 0.4830(5)
H22 H 0.2504 0.4030 0.4423
H23 H 0.3018 0.3505 0.5450
C11 C 0.2770(3) 0.1784(4) 0.4744(5)
H24 H 0.3168 0.1842 0.5365
H25 H 0.2758 0.1263 0.4278
C12 C 0.3040(3) 0.2865(5) 0.3801(5)
H26 H 0.2938 0.3436 0.3361
H27 H 0.3057 0.2339 0.3380
H28 H 0.3414 0.2947 0.4466
N1F N 0.2995(2) 0.1888(4) 0.0292(4)
C1F C 0.2997(3) 0.2620(5) 0.1043(5)
H1F H 0.2872 0.2334 0.1515
H2F H 0.3392 0.2851 0.1519
C2F C 0.2611(3) 0.3435(4) 0.0437(5)
H3F H 0.2746 0.3746 -0.0007
H4F H 0.2626 0.3896 0.0968
C3F C 0.3337(3) 0.1075(5) 0.0968(5)
H5F H 0.3174 0.0843 0.1394
H6F H 0.3328 0.0577 0.0490
H7F H 0.3733 0.1271 0.1462
N2D N 0.0116(2) 0.6002(3) -0.0011(4)
C4D C 0.0245(3) 0.5502(4) 0.1008(5)
H8D H 0.0645 0.5277 0.1389
H9D H 0.0206 0.5941 0.1499
C5D C 0.0152(3) 0.5319(4) -0.0759(5)
H10D H 0.0054 0.5637 -0.1449
H11D H 0.0550 0.5088 -0.0421
C6D C 0.0564(3) 0.6729(5) 0.0284(6)
H12D H 0.0484 0.7073 -0.0372
H13D H 0.0563 0.7163 0.0813
H14D H 0.0939 0.6429 0.0607
N3D N -0.0493(2) -0.0191(4) -0.1107(4)
C7D C -0.0500(3) 0.0551(4) -0.0380(5)
H15D H -0.0381 0.1150 -0.0546
H16D H -0.0896 0.0628 -0.0538
C8D C 0.0109(3) -0.0332(4) -0.0827(5)
H17D H 0.0124 -0.0853 -0.1267
H18D H 0.0246 0.0240 -0.1011
C9D C -0.0832(3) 0.0143(5) -0.2253(5)
H19D H -0.0826 -0.0330 -0.2740
H20D H -0.1228 0.0254 -0.2446
H21D H -0.0667 0.0726 -0.2326
N4F N 0.2400(2) 0.2328(4) 0.5903(4)
C10F C 0.2379(3) 0.1567(4) 0.5170(5)
H22F H 0.2496 0.0970 0.5577
H23F H 0.1982 0.1495 0.4550
C11F C 0.2230(3) 0.3216(4) 0.5256(5)
H24F H 0.1832 0.3158 0.4635
H25F H 0.2242 0.3737 0.5722
C12F C 0.1960(3) 0.2135(5) 0.6199(5)
H26F H 0.2062 0.1564 0.6639
H27F H 0.1943 0.2661 0.6620
H28F H 0.1586 0.2053 0.5534
I1D I -0.196484(16) -0.10187(3) -0.17530(3)
I2D I -0.170233(15) -0.42370(3) -0.16960(3)
I3D I -0.054538(15) -0.22677(3) 0.09201(3)
I4D I -0.077520(15) -0.24900(3) -0.25317(3)
Cu1D Cu -0.16256(4) -0.26460(6) -0.06145(7)
Cu2D Cu -0.06993(4) -0.33140(6) -0.07612(6)
Cu3D Cu -0.08766(4) -0.14757(6) -0.10342(7)
Cu4D Cu -0.17873(4) -0.25539(6) -0.26220(7)
Cu1F Cu 0.33744(4) 0.23540(6) -0.06145(7)
Cu2D_2 Cu -0.06993(4) 0.66860(6) -0.07612(6)
Cu4F Cu 0.32127(4) 0.24461(6) 0.73780(7)
N1D N -0.2005(2) -0.3112(4) 0.0292(4)
N2D_2 N 0.0116(2) -0.3998(3) -0.0011(4)
N4D N -0.2600(2) -0.2672(4) -0.4097(4)
loop_
_geom_bond_atom_site_label_1
_geom_bond_atom_site_label_2
_geom_bond_site_symmetry_1
_geom_bond_site_symmetry_2
I1 Cu1 1_555 1_555
I2 Cu1 1_555 1_555
I3 Cu1 1_555 1_555
I4 Cu2 1_555 1_555
Cu1 Cu2 1_555 1_555
Cu2 I2 1_555 1_555
Cu3 I1 1_555 1_555
Cu4 I1 1_555 1_555
N1 Cu1 1_555 1_555
N2 Cu2 1_555 1_555
N3 Cu3 1_555 1_555
N4 Cu4 1_555 1_555
C1 N1 1_555 1_555
H1 C1 1_555 1_555
H2 C1 1_555 1_555
C2 C1 1_555 1_555
H3 C2 1_555 1_555
H4 C2 1_555 1_555
C3 N1 1_555 1_555
H5 C3 1_555 1_555
H6 C3 1_555 1_555
H7 C3 1_555 1_555
C4 N2 1_555 1_555
H8 C4 1_555 1_555
H9 C4 1_555 1_555
C5 N2 1_555 1_555
H10 C5 1_555 1_555
H11 C5 1_555 1_555
C6 N2 1_555 1_555
H12 C6 1_555 1_555
H13 C6 1_555 1_555
H14 C6 1_555 1_555
C7 N3 1_555 1_555
H15 C7 1_555 1_555
H16 C7 1_555 1_555
C8 N3 1_555 1_555
H17 C8 1_555 1_555
H18 C8 1_555 1_555
C9 N3 1_555 1_555
H19 C9 1_555 1_555
H20 C9 1_555 1_555
H21 C9 1_555 1_555
C10 N4 1_555 1_555
H22 C10 1_555 1_555
H23 C10 1_555 1_555
C11 N4 1_555 1_555
H24 C11 1_555 1_555
H25 C11 1_555 1_555
C12 N4 1_555 1_555
H26 C12 1_555 1_555
H27 C12 1_555 1_555
H28 C12 1_555 1_555
N1F C2 1_555 1_555
C1F N1F 1_555 1_555
H1F C1F 1_555 1_555
H2F C1F 1_555 1_555
C2F N1 1_555 1_555
H3F C2F 1_555 1_555
H4F C2F 1_555 1_555
C3F N1F 1_555 1_555
H5F C3F 1_555 1_555
H6F C3F 1_555 1_555
H7F C3F 1_555 1_555
N2D C4D 1_555 1_555
C4D C5 1_555 1_555
H8D C4D 1_555 1_555
H9D C4D 1_555 1_555
C5D C4 1_555 1_555
H10D C5D 1_555 1_555
H11D C5D 1_555 1_555
C6D N2D 1_555 1_555
H12D C6D 1_555 1_555
H13D C6D 1_555 1_555
H14D C6D 1_555 1_555
N3D C7D 1_555 1_555
C7D C8 1_555 1_555
H15D C7D 1_555 1_555
H16D C7D 1_555 1_555
C8D C7 1_555 1_555
H17D C8D 1_555 1_555
H18D C8D 1_555 1_555
C9D N3D 1_555 1_555
H19D C9D 1_555 1_555
H20D C9D 1_555 1_555
H21D C9D 1_555 1_555
N4F C10F 1_555 1_555
C10F C11 1_555 1_555
H22F C10F 1_555 1_555
H23F C10F 1_555 1_555
C11F C10 1_555 1_555
H24F C11F 1_555 1_555
H25F C11F 1_555 1_555
C12F N4F 1_555 1_555
H26F C12F 1_555 1_555
H27F C12F 1_555 1_555
H28F C12F 1_555 1_555
I1D Cu1D 1_555 1_555
I2D Cu1D 1_555 1_555
I3D Cu1D 1_555 1_555
I4D Cu2D 1_555 1_555
Cu1D Cu2D 1_555 1_555
Cu2D I2D 1_555 1_555
Cu3D N3D 1_555 1_555
Cu4D I1D 1_555 1_555
Cu1F N1F 1_555 1_555
Cu2D_2 N2D 1_555 1_555
Cu4F N4F 1_555 1_555
N1D Cu1D 1_555 1_555
N2D_2 Cu2D 1_555 1_555
N4D Cu4D 1_555 1_555
I2 Cu4 1_555 1_555
I3 Cu2 1_555 1_555
I3 Cu3 1_555 1_555
I4 Cu3 1_555 1_555
I4 Cu4 1_555 1_555
Cu1 Cu4 1_555 1_555
Cu2 Cu3 1_555 1_555
Cu3 Cu4 1_555 1_555
C1F C2F 1_555 1_555
N2D C5D 1_555 1_555
N3D C8D 1_555 1_555
N4F C11F 1_555 1_555
I1D Cu3D 1_555 1_555
I2D Cu4D 1_555 1_555
I3D Cu2D 1_555 1_555
I3D Cu3D 1_555 1_555
I4D Cu3D 1_555 1_555
I4D Cu4D 1_555 1_555
Cu1D Cu4D 1_555 1_555
Cu2D Cu3D 1_555 1_555
Cu3D Cu4D 1_555 1_555

#END
