
#######################################################################
#
#                 Cambridge Crystallographic Data Centre
#                                CCDC 
#
#######################################################################
#
# If this CIF has been generated from an entry in the Cambridge 
# Structural Database, then it will include bibliographic, chemical, 
# crystal, experimental, refinement or atomic coordinate data resulting 
# from the CCDC's data processing and validation procedures.
#
#######################################################################

data_GIGCIK
_symmetry_cell_setting           triclinic
_symmetry_space_group_name_H-M   'P -1'
_symmetry_Int_Tables_number      2
_space_group_name_Hall           '-P 1'
loop_
_symmetry_equiv_pos_site_id
_symmetry_equiv_pos_as_xyz
1 x,y,z
2 -x,-y,-z
_cell_length_a                   7.8450(16)
_cell_length_b                   8.6471(17)
_cell_length_c                   9.963(2)
_cell_angle_alpha                102.92(3)
_cell_angle_beta                 98.27(3)
_cell_angle_gamma                112.97(3)
_cell_volume                     586.057
loop_
_atom_site_label
_atom_site_type_symbol
_atom_site_fract_x
_atom_site_fract_y
_atom_site_fract_z
Cu1 Cu 0.78220(7) 0.89176(7) 0.47120(5)
O1 O 0.5907(4) 0.7743(4) 0.2894(3)
Co1 Co 0.5000 0.5000 0.5000
O2 O 0.2037(6) 0.4467(6) 0.4913(5)
O3 O 0.4394(5) 0.5003(4) 0.2944(3)
N1 N 0.9832(5) 0.9863(5) 0.3677(3)
N2 N 0.9468(5) 1.0393(5) 0.2705(4)
N3 N 0.4012(5) 0.2277(4) 0.4250(4)
N4 N 0.1191(5) 0.4852(5) -0.1754(4)
O4 O 0.0097(5) 0.4471(4) -0.3040(3)
N5 N 0.3752(5) 0.1490(5) 0.3001(4)
C1 C 0.3468(5) 0.5699(5) 0.0905(4)
C2 C 0.4693(6) 0.6180(6) 0.2378(4)
C3 C 0.3807(6) 0.6905(6) 0.0166(4)
H1 H 0.4821 0.8025 0.0571
C4 C 0.0821(6) 0.3646(6) -0.1054(4)
H2 H -0.0201 0.2534 -0.1479
C5 C 0.2665(6) 0.6472(6) -0.1159(5)
H3 H 0.2904 0.7296 -0.1653
C6 C 0.1932(6) 0.4036(5) 0.0279(4)
H4 H 0.1664 0.3199 0.0761
O5 O 0.7258(7) 1.1326(6) 0.5196(6)
N6 N 0.3511(7) 0.0756(6) 0.1852(5)
N7 N 0.9149(7) 1.0846(7) 0.1752(5)
H5 H 0.152(9) 0.446(8) 0.557(7)
H6 H 0.141(6) 0.447(6) 0.424(5)
H7 H 0.650(10) 1.148(9) 0.510(8)
H8 H 0.800(9) 1.223(9) 0.583(7)
Cu1A Cu 0.21780(7) 0.10824(7) 0.52880(5)
O1A O 0.4093(4) 0.2257(4) 0.7106(3)
O2A O 0.7963(6) 0.5533(6) 0.5087(5)
O3A O 0.5606(5) 0.4997(4) 0.7056(3)
N1A N 0.0168(5) 0.0137(5) 0.6323(3)
N2A N 0.0532(5) -0.0393(5) 0.7295(4)
N3A N 0.5988(5) 0.7723(4) 0.5750(4)
N4A N 0.8809(5) 0.5148(5) 1.1754(4)
O4A O 0.9903(5) 0.5529(4) 1.3040(3)
N5A N 0.6248(5) 0.8510(5) 0.6999(4)
C1A C 0.6532(5) 0.4301(5) 0.9095(4)
C2A C 0.5307(6) 0.3820(6) 0.7622(4)
C3A C 0.6193(6) 0.3095(6) 0.9834(4)
H1A H 0.5179 0.1975 0.9429
C4A C 0.9179(6) 0.6354(6) 1.1054(4)
H2A H 1.0201 0.7466 1.1479
C5A C 0.7335(6) 0.3528(6) 1.1159(5)
H3A H 0.7096 0.2704 1.1653
C6A C 0.8068(6) 0.5964(5) 0.9721(4)
H4A H 0.8336 0.6801 0.9239
O5A O 0.2742(7) -0.1326(6) 0.4804(6)
N6A N 0.6489(7) 0.9244(6) 0.8148(5)
N7A N 0.0851(7) -0.0846(7) 0.8248(5)
H5A H 0.848(9) 0.554(8) 0.443(7)
H6A H 0.859(6) 0.553(6) 0.576(5)
H7A H 0.350(10) -0.148(9) 0.490(8)
H8A H 0.200(9) -0.223(9) 0.417(7)
Cu1_2 Cu -0.21780(7) -0.10824(7) 0.47120(5)
Cu1A_2 Cu 1.21780(7) 1.10824(7) 0.52880(5)
N1_2 N -0.0168(5) -0.0137(5) 0.3677(3)
N1A_2 N 1.0168(5) 1.0137(5) 0.6323(3)
loop_
_geom_bond_atom_site_label_1
_geom_bond_atom_site_label_2
_geom_bond_site_symmetry_1
_geom_bond_site_symmetry_2
Cu1 O1 1_555 1_555
O1 C2 1_555 1_555
Co1 O2 1_555 1_555
O2 H5 1_555 1_555
O3 Co1 1_555 1_555
N1 Cu1 1_555 1_555
N2 N1 1_555 1_555
N3 Co1 1_555 1_555
N4 O4 1_555 1_555
N5 N3 1_555 1_555
C1 C2 1_555 1_555
C2 O3 1_555 1_555
C3 C1 1_555 1_555
H1 C3 1_555 1_555
C4 N4 1_555 1_555
H2 C4 1_555 1_555
C5 N4 1_555 1_555
H3 C5 1_555 1_555
C6 C1 1_555 1_555
H4 C6 1_555 1_555
O5 Cu1 1_555 1_555
N6 N5 1_555 1_555
N7 N2 1_555 1_555
H6 O2 1_555 1_555
H7 O5 1_555 1_555
H8 O5 1_555 1_555
Cu1A N3 1_555 1_555
O1A Cu1A 1_555 1_555
O2A Co1 1_555 1_555
O3A Co1 1_555 1_555
N1A Cu1A 1_555 1_555
N2A N1A 1_555 1_555
N3A Cu1 1_555 1_555
N4A O4A 1_555 1_555
N5A N3A 1_555 1_555
C1A C2A 1_555 1_555
C2A O1A 1_555 1_555
C3A C1A 1_555 1_555
H1A C3A 1_555 1_555
C4A N4A 1_555 1_555
H2A C4A 1_555 1_555
C5A N4A 1_555 1_555
H3A C5A 1_555 1_555
C6A C1A 1_555 1_555
H4A C6A 1_555 1_555
O5A Cu1A 1_555 1_555
N6A N5A 1_555 1_555
N7A N2A 1_555 1_555
H5A O2A 1_555 1_555
H6A O2A 1_555 1_555
H7A O5A 1_555 1_555
H8A O5A 1_555 1_555
Cu1_2 N1A 1_555 1_555
Cu1A_2 N1 1_555 1_555
N1_2 Cu1A 1_555 1_555
N1A_2 Cu1 1_555 1_555
Co1 N3A 1_555 1_555
C3 C5 1_555 1_555
C4 C6 1_555 1_555
O3A C2A 1_555 1_555
C3A C5A 1_555 1_555
C4A C6A 1_555 1_555
Cu1_2 N1_2 1_555 1_555
Cu1A_2 N1A_2 1_555 1_555

#END
