
#######################################################################
#
#                 Cambridge Crystallographic Data Centre
#                                CCDC 
#
#######################################################################
#
# If this CIF has been generated from an entry in the Cambridge 
# Structural Database, then it will include bibliographic, chemical, 
# crystal, experimental, refinement or atomic coordinate data resulting 
# from the CCDC's data processing and validation procedures.
#
#######################################################################

data_GIGCAB
_symmetry_cell_setting           monoclinic
_symmetry_space_group_name_H-M   'C c'
_symmetry_Int_Tables_number      9
_space_group_name_Hall           'C -2yc'
loop_
_symmetry_equiv_pos_site_id
_symmetry_equiv_pos_as_xyz
1 x,y,z
2 x,-y,1/2+z
3 1/2+x,1/2+y,z
4 1/2+x,1/2-y,1/2+z
_cell_length_a                   15.543(3)
_cell_length_b                   8.7650(15)
_cell_length_c                   18.219(3)
_cell_angle_alpha                90
_cell_angle_beta                 98.372(2)
_cell_angle_gamma                90
_cell_volume                     2455.6
loop_
_atom_site_label
_atom_site_type_symbol
_atom_site_fract_x
_atom_site_fract_y
_atom_site_fract_z
Sm1 Sm 0.393555(11) 0.41061(2) 0.568626(10)
Sm2 Sm 0.301225(12) 0.45312(2) 0.354330(10)
O1 O 0.2661(2) 0.3255(3) 0.47390(15)
O2 O 0.1743(2) 0.1922(4) 0.53348(16)
O3 O -0.0886(2) 0.0269(3) 0.27988(16)
O4 O -0.0260(2) 0.1304(4) 0.18866(16)
O5 O 0.7079(2) 0.0284(3) 0.24282(15)
O6 O 0.5966(2) 0.1599(4) 0.18295(16)
O7 O 0.4261(2) 0.3562(3) 0.43370(16)
O8 O 0.5308(2) 0.3126(4) 0.52545(17)
O9 O 0.3385(2) 0.6055(3) 0.47532(15)
O10 O 0.3420(3) 0.8306(4) 0.53407(18)
O11 O 0.3326(2) 1.2468(3) 0.27814(15)
O12 O 0.3275(3) 1.0698(3) 0.18985(17)
O13 O 0.2872(2) 0.3113(3) 0.64344(15)
H1 H 0.2680 0.4008 0.6489
H2 H 0.2543 0.2518 0.6151
O14 O 0.3530(2) 0.6199(3) 0.63745(16)
H3 H 0.3395 0.6195 0.6810
H4 H 0.3445 0.7029 0.6134
O15 O 0.5135(2) 0.6075(4) 0.5794(2)
H5 H 0.5358 0.5932 0.5400
H6 H 0.5279 0.6892 0.6032
O16 O 0.4035(3) 0.1290(3) 0.5754(2)
H7 H 0.4014 0.1239 0.6217
H8 H 0.3689 0.0715 0.5473
N1 N 0.1740(2) 0.2617(4) 0.3429(2)
N2 N 0.1141(2) 0.2218(4) 0.28643(19)
H9 H 0.1189 0.2370 0.2406
N3 N 0.6587(3) 0.0882(4) 0.3734(2)
N4 N 0.6207(2) 0.1410(4) 0.43062(18)
H10 H 0.6388 0.1218 0.4766
N5 N 0.3215(3) 0.7456(4) 0.3446(2)
N6 N 0.3197(2) 0.8412(4) 0.28786(18)
H11 H 0.3124 0.8137 0.2421
C1 C 0.1966(3) 0.2465(5) 0.4765(2)
C2 C 0.1419(3) 0.2186(5) 0.4042(2)
C3 C 0.0606(3) 0.1507(6) 0.3853(2)
H12 H 0.0248 0.1110 0.4173
C4 C 0.0452(3) 0.1550(5) 0.3097(2)
C5 C -0.0296(3) 0.1005(5) 0.2545(2)
C6 C 0.6384(3) 0.1083(5) 0.2399(2)
C7 C 0.6107(3) 0.1430(5) 0.3129(2)
C8 C 0.5417(3) 0.2305(5) 0.3300(2)
H13 H 0.4991 0.2798 0.2973
C9 C 0.5506(3) 0.2278(5) 0.4061(2)
C10 C 0.5001(3) 0.3032(5) 0.4581(3)
C11 C 0.3381(3) 0.7537(5) 0.4778(2)
C12 C 0.3323(3) 0.8311(4) 0.4049(2)
C13 C 0.3387(3) 0.9832(5) 0.3869(2)
H14 H 0.3468 1.0657 0.4193
C14 C 0.3306(3) 0.9866(5) 0.3111(2)
C15 C 0.3305(3) 1.1092(4) 0.2548(2)
Sm1C Sm -0.106445(11) 0.08939(2) 0.068626(10)
Sm2B Sm -0.198775(12) -0.04688(2) 0.354330(10)
Sm2B_2 Sm 0.801225(12) -0.04688(2) 0.354330(10)
Sm2_2 Sm 0.301225(12) 1.45312(2) 0.354330(10)
O3B O 0.4114(2) 0.5269(3) 0.27988(16)
O4C O 0.4740(2) 0.3696(4) 0.68866(16)
O5B O 0.2079(2) 0.5284(3) 0.24282(15)
O11_2 O 0.3326(2) 0.2468(3) 0.27814(15)
N3B N 0.1587(3) 0.5882(4) 0.3734(2)
O17 O 0.1644(2) 0.8044(5) 0.64458(18)
H15 H 0.1313 0.8335 0.6058
H16 H 0.2122 0.8521 0.6553
O18 O 0.102(3) 0.5318(12) 0.5701(5)
O19? O 0.1617(13) 0.5302(12) 0.5707(5)
loop_
_geom_bond_atom_site_label_1
_geom_bond_atom_site_label_2
_geom_bond_site_symmetry_1
_geom_bond_site_symmetry_2
Sm1 O1 1_555 1_555
Sm2 O1 1_555 1_555
O1 C1 1_555 1_555
O2 C1 1_555 1_555
O3 C5 1_555 1_555
O4 C5 1_555 1_555
O5 C6 1_555 1_555
O6 C6 1_555 1_555
O7 Sm1 1_555 1_555
O8 Sm1 1_555 1_555
O9 Sm1 1_555 1_555
O10 C11 1_555 1_555
O11 C15 1_555 1_555
O12 C15 1_555 1_555
O13 Sm1 1_555 1_555
H1 O13 1_555 1_555
H2 O13 1_555 1_555
O14 Sm1 1_555 1_555
H3 O14 1_555 1_555
H4 O14 1_555 1_555
O15 Sm1 1_555 1_555
H5 O15 1_555 1_555
H6 O15 1_555 1_555
O16 Sm1 1_555 1_555
H7 O16 1_555 1_555
H8 O16 1_555 1_555
N1 Sm2 1_555 1_555
N2 N1 1_555 1_555
H9 N2 1_555 1_555
N3 N4 1_555 1_555
N4 H10 1_555 1_555
N5 Sm2 1_555 1_555
N6 N5 1_555 1_555
H11 N6 1_555 1_555
C1 C2 1_555 1_555
C2 N1 1_555 1_555
C3 C2 1_555 1_555
H12 C3 1_555 1_555
C4 N2 1_555 1_555
C5 C4 1_555 1_555
C6 C7 1_555 1_555
C7 N3 1_555 1_555
C8 C7 1_555 1_555
H13 C8 1_555 1_555
C9 N4 1_555 1_555
C10 O7 1_555 1_555
C11 O9 1_555 1_555
C12 N5 1_555 1_555
C13 C12 1_555 1_555
H14 C13 1_555 1_555
C14 N6 1_555 1_555
C15 C14 1_555 1_555
O17 H15 1_555 1_555
H16 O17 1_555 1_555
Sm1C O4 1_555 1_555
Sm2B O3 1_555 1_555
Sm2B_2 O5 1_555 1_555
Sm2_2 O11 1_555 1_555
O3B Sm2 1_555 1_555
O4C Sm1 1_555 1_555
O5B Sm2 1_555 1_555
O11_2 Sm2 1_555 1_555
N3B Sm2 1_555 1_555
Sm2 O7 1_555 1_555
Sm2 O9 1_555 1_555
O8 C10 1_555 1_555
N3 Sm2B_2 1_555 1_555
C3 C4 1_555 1_555
C8 C9 1_555 1_555
C9 C10 1_555 1_555
C11 C12 1_555 1_555
C13 C14 1_555 1_555

#END
