
#######################################################################
#
#                 Cambridge Crystallographic Data Centre
#                                CCDC 
#
#######################################################################
#
# If this CIF has been generated from an entry in the Cambridge 
# Structural Database, then it will include bibliographic, chemical, 
# crystal, experimental, refinement or atomic coordinate data resulting 
# from the CCDC's data processing and validation procedures.
#
#######################################################################

data_GIGCEG
_symmetry_cell_setting           triclinic
_symmetry_space_group_name_H-M   'P -1'
_symmetry_Int_Tables_number      2
_space_group_name_Hall           '-P 1'
loop_
_symmetry_equiv_pos_site_id
_symmetry_equiv_pos_as_xyz
1 x,y,z
2 -x,-y,-z
_cell_length_a                   7.9369(16)
_cell_length_b                   8.5603(17)
_cell_length_c                   10.008(2)
_cell_angle_alpha                102.54(3)
_cell_angle_beta                 98.58(3)
_cell_angle_gamma                112.88(3)
_cell_volume                     590.532
loop_
_atom_site_label
_atom_site_type_symbol
_atom_site_fract_x
_atom_site_fract_y
_atom_site_fract_z
Ni1 Ni 0.5000 0.5000 0.0000
Cu1 Cu 0.21593(6) 0.11098(6) 0.02957(5)
N1 N 0.4015(5) 0.2283(4) -0.0723(3)
O1 O 0.4046(4) 0.2302(4) 0.2124(3)
N2 N -0.0162(4) -0.0151(4) -0.1332(3)
O2 O 0.9941(4) 0.5517(4) 0.8009(3)
O3 O 0.2764(6) -0.1306(5) -0.0165(5)
N3 N -0.0535(5) 0.0363(5) -0.2313(4)
O4 O 0.1986(6) 0.4407(6) -0.0039(4)
N4 N 0.8830(5) 0.5148(5) 0.6734(3)
N5 N 0.3748(5) 0.1518(5) -0.1967(4)
C1 C 0.6557(5) 0.4339(5) 0.4088(4)
C2 C 0.5337(5) 0.3852(5) 0.2611(4)
C3 C 0.6177(6) 0.3121(6) 0.4831(4)
H1 H 0.5145 0.2011 0.4436
C4 C 0.9223(6) 0.6362(5) 0.6031(4)
H2 H 1.0260 0.7466 0.6442
N6 N 0.3511(7) 0.0763(6) -0.3127(4)
C5 C 0.8097(6) 0.5983(5) 0.4704(4)
H3 H 0.8372 0.6831 0.4224
C6 C 0.7325(6) 0.3542(6) 0.6161(4)
H4 H 0.7060 0.2717 0.6663
N7 N -0.0881(6) 0.0808(6) -0.3280(5)
O5 O 0.5709(4) 0.5035(4) 0.2013(3)
H5 H 0.195(8) -0.215(7) -0.069(6)
H6 H 0.146(8) 0.441(7) -0.072(6)
H7 H 0.368(9) -0.150(8) -0.015(6)
H8 H 0.139(8) 0.438(8) 0.060(6)
Cu1A Cu -0.21593(6) -0.11098(6) -0.02957(5)
N1A N -0.4015(5) -0.2283(4) 0.0723(3)
O1A O -0.4046(4) -0.2302(4) -0.2124(3)
N2A N 0.0162(4) 0.0151(4) 0.1332(3)
O2A O -0.9941(4) -0.5517(4) -0.8009(3)
O3A O -0.2764(6) 0.1306(5) 0.0165(5)
N3A N 0.0535(5) -0.0363(5) 0.2313(4)
N4A N -0.8830(5) -0.5148(5) -0.6734(3)
N5A N -0.3748(5) -0.1518(5) 0.1967(4)
C1A C -0.6557(5) -0.4339(5) -0.4088(4)
C2A C -0.5337(5) -0.3852(5) -0.2611(4)
C3A C -0.6177(6) -0.3121(6) -0.4831(4)
H1A H -0.5145 -0.2011 -0.4436
C4A C -0.9223(6) -0.6362(5) -0.6031(4)
H2A H -1.0260 -0.7466 -0.6442
N6A N -0.3511(7) -0.0763(6) 0.3127(4)
C5A C -0.8097(6) -0.5983(5) -0.4704(4)
H3A H -0.8372 -0.6831 -0.4224
C6A C -0.7325(6) -0.3542(6) -0.6161(4)
H4A H -0.7060 -0.2717 -0.6663
N7A N 0.0881(6) -0.0808(6) 0.3280(5)
O5A O -0.5709(4) -0.5035(4) -0.2013(3)
H5A H -0.195(8) 0.215(7) 0.069(6)
H7A H -0.368(9) 0.150(8) 0.015(6)
O4A O 0.8014(6) 0.5593(6) 0.0039(4)
H6A H 0.854(8) 0.559(7) 0.072(6)
H8A H 0.861(8) 0.562(8) -0.060(6)
Ni1_2 Ni -0.5000 -0.5000 0.0000
N1A_2 N 0.5985(5) 0.7717(4) 0.0723(3)
O5A_2 O 0.4291(4) 0.4965(4) -0.2013(3)
loop_
_geom_bond_atom_site_label_1
_geom_bond_atom_site_label_2
_geom_bond_site_symmetry_1
_geom_bond_site_symmetry_2
Ni1 N1 1_555 1_555
Cu1 N1 1_555 1_555
N1 N5 1_555 1_555
O1 Cu1 1_555 1_555
N2 Cu1 1_555 1_555
O2 N4 1_555 1_555
O3 Cu1 1_555 1_555
N3 N2 1_555 1_555
O4 Ni1 1_555 1_555
N4 C4 1_555 1_555
N5 N6 1_555 1_555
C1 C2 1_555 1_555
C2 O1 1_555 1_555
C3 C1 1_555 1_555
H1 C3 1_555 1_555
C4 H2 1_555 1_555
C5 C1 1_555 1_555
H3 C5 1_555 1_555
C6 N4 1_555 1_555
H4 C6 1_555 1_555
N7 N3 1_555 1_555
O5 Ni1 1_555 1_555
H5 O3 1_555 1_555
H6 O4 1_555 1_555
H7 O3 1_555 1_555
H8 O4 1_555 1_555
Cu1A N2 1_555 1_555
N1A Cu1A 1_555 1_555
O1A Cu1A 1_555 1_555
N2A Cu1 1_555 1_555
O2A N4A 1_555 1_555
O3A Cu1A 1_555 1_555
N3A N2A 1_555 1_555
N4A C4A 1_555 1_555
N5A N1A 1_555 1_555
C1A C2A 1_555 1_555
C2A O1A 1_555 1_555
C3A C1A 1_555 1_555
H1A C3A 1_555 1_555
C4A H2A 1_555 1_555
N6A N5A 1_555 1_555
C5A C1A 1_555 1_555
H3A C5A 1_555 1_555
C6A N4A 1_555 1_555
H4A C6A 1_555 1_555
N7A N3A 1_555 1_555
O5A C2A 1_555 1_555
H5A O3A 1_555 1_555
H7A O3A 1_555 1_555
O4A Ni1 1_555 1_555
H6A O4A 1_555 1_555
H8A O4A 1_555 1_555
Ni1_2 N1A 1_555 1_555
N1A_2 Ni1 1_555 1_555
O5A_2 Ni1 1_555 1_555
C2 O5 1_555 1_555
C3 C6 1_555 1_555
C4 C5 1_555 1_555
Cu1A N2A 1_555 1_555
C3A C6A 1_555 1_555
C4A C5A 1_555 1_555
O5A Ni1_2 1_555 1_555

#END
