
#######################################################################
#
#                 Cambridge Crystallographic Data Centre
#                                CCDC 
#
#######################################################################
#
# If this CIF has been generated from an entry in the Cambridge 
# Structural Database, then it will include bibliographic, chemical, 
# crystal, experimental, refinement or atomic coordinate data resulting 
# from the CCDC's data processing and validation procedures.
#
#######################################################################

data_GIGGOU
_symmetry_cell_setting           triclinic
_symmetry_space_group_name_H-M   'P -1'
_symmetry_Int_Tables_number      2
_space_group_name_Hall           '-P 1'
loop_
_symmetry_equiv_pos_site_id
_symmetry_equiv_pos_as_xyz
1 x,y,z
2 -x,-y,-z
_cell_length_a                   9.5665(3)
_cell_length_b                   16.4803(5)
_cell_length_c                   20.9969(7)
_cell_angle_alpha                88.554(2)
_cell_angle_beta                 82.025(2)
_cell_angle_gamma                77.759(2)
_cell_volume                     3203.77
loop_
_atom_site_label
_atom_site_type_symbol
_atom_site_fract_x
_atom_site_fract_y
_atom_site_fract_z
C1 C 0.5659(11) 0.4690(6) 0.3559(5)
C2 C 0.6363(11) 0.4236(7) 0.4035(5)
H1 H 0.7367 0.4113 0.3981
C3 C 0.5623(12) 0.3961(7) 0.4582(5)
H2 H 0.6139 0.3652 0.4883
C4 C 0.4158(12) 0.4133(7) 0.4689(4)
C5 C 0.3344(10) 0.4634(6) 0.4217(5)
C6 C 0.4140(10) 0.4895(5) 0.3643(4)
C7 C 0.3388(11) 0.5355(6) 0.3164(5)
H3 H 0.3901 0.5517 0.2791
C8 C 0.1967(13) 0.5549(7) 0.3251(5)
H4 H 0.1490 0.5866 0.2942
C9 C 0.1148(12) 0.5289(7) 0.3799(5)
H5 H 0.0145 0.5417 0.3840
C10 C 0.1822(12) 0.4853(6) 0.4264(5)
H6 H 0.1268 0.4693 0.4626
C11 C 0.6508(10) 0.4901(7) 0.2956(4)
C12 C 0.3526(14) 0.3859(7) 0.5325(6)
C13 C 0.4597(10) 0.6858(5) 0.0970(4)
C14 C 0.4818(11) 0.7636(7) 0.0800(4)
H7 H 0.5742 0.7740 0.0774
C15 C 0.3676(12) 0.8278(6) 0.0664(4)
H8 H 0.3854 0.8804 0.0571
C16 C 0.2324(11) 0.8151(6) 0.0664(4)
C17 C 0.2018(11) 0.7395(6) 0.0854(4)
C18 C 0.3168(10) 0.6716(5) 0.1024(4)
C19 C 0.2781(11) 0.5954(6) 0.1221(4)
H9 H 0.3490 0.5522 0.1343
C20 C 0.1487(13) 0.5835(6) 0.1239(5)
H10 H 0.1308 0.5314 0.1353
C21 C 0.0337(13) 0.6465(7) 0.1092(6)
H11 H -0.0588 0.6362 0.1114
C22 C 0.0590(11) 0.7210(7) 0.0921(5)
H12 H -0.0183 0.7630 0.0840
C23 C 0.1259(12) 0.8841(6) 0.0429(4)
C24 C 0.5803(11) 0.6185(6) 0.1091(5)
C25 C 0.5310(14) 0.0636(10) 0.3144(7)
C26 C 0.5110(13) -0.0045(12) 0.2921(6)
H13 H 0.4506 -0.0331 0.3178
C27 C 0.5776 -0.0405 0.2281
H14 H 0.5644 -0.0918 0.2156
C28 C 0.6573(12) 0.0027(7) 0.1887(5)
C29 C 0.6793(11) 0.0806(6) 0.2098(5)
C30 C 0.6046(13) 0.1082(8) 0.2729(6)
C31 C 0.6171(16) 0.1838(10) 0.2942(7)
H15 H 0.5733 0.2039 0.3347
C32 C 0.7027 0.2326 0.2507
H16 H 0.7072 0.2855 0.2635
C33 C 0.7734(18) 0.2038(9) 0.1942(7)
H17 H 0.8328 0.2347 0.1703
C34 C 0.7614(14) 0.1321(8) 0.1711(6)
H18 H 0.8058 0.1150 0.1300
C35 C 0.464(2) 0.0778(12) 0.3798(7)
C36 C 0.7216(14) -0.0342(9) 0.1241(7)
C37 C -0.1261(10) 0.0296(6) 0.6370(4)
H19 H -0.2220 0.0503 0.6316
C38 C 0.0960(13) 0.0242(8) 0.6470(6)
H20 H 0.1844 0.0378 0.6500
C39 C 0.0698(14) -0.0524(7) 0.6468(7)
H21 H 0.1384 -0.1009 0.6506
C40 C 0.0313(10) 0.1481(6) 0.5129(5)
H22 H 0.0669 0.0914 0.5167
C41 C -0.0751(9) 0.2716(6) 0.5386(4)
H23 H -0.1244 0.3194 0.5610
C42 C -0.0229(10) 0.2659(7) 0.4748(4)
H24 H -0.0351 0.3100 0.4462
C43 C 0.1351(14) 0.2532(8) 0.6428(6)
H25 H 0.1418 0.2691 0.5999
C44 C 0.0826(13) 0.1898(8) 0.7287(5)
H26 H 0.0469 0.1539 0.7585
C45 C 0.1811(13) 0.2368(8) 0.7379(5)
H27 H 0.2195 0.2406 0.7758
C46 C 0.4737(10) 0.3733(6) 0.1634(4)
H28 H 0.4534 0.3773 0.2079
C47 C 0.4569(12) 0.3495(7) 0.0650(4)
H29 H 0.4248 0.3343 0.0281
C48 C 0.5694(12) 0.3871(7) 0.0659(4)
H30 H 0.6287 0.4004 0.0300
C49 C -0.3330(13) 0.2395(8) 0.6382(5)
H31 H -0.3343 0.2395 0.5940
C50 C -0.4063(12) 0.2509(8) 0.7364(5)
H32 H -0.4640 0.2628 0.7759
C51 C -0.2695(12) 0.2102(8) 0.7284(5)
H33 H -0.2177 0.1870 0.7611
C52 C 0.2159(10) 0.2146(6) 0.2490(5)
H34 H 0.2194 0.1652 0.2278
C53 C 0.1937(11) 0.3037(6) 0.3235(4)
H35 H 0.1817 0.3278 0.3640
C54 C 0.2192(10) 0.3430(6) 0.2673(4)
H36 H 0.2227 0.3988 0.2626
C55 C 0.1911(10) 0.1931(6) 0.0780(4)
H37 H 0.0985 0.2234 0.0749
C56 C 0.4058(10) 0.1582(6) 0.1046(4)
H38 H 0.4903 0.1583 0.1219
C57 C 0.3790(12) 0.0961(6) 0.0706(5)
H39 H 0.4434 0.0458 0.0611
C58 C -0.0006(9) 0.3882(5) 0.1613(4)
H40 H -0.0187 0.3770 0.2050
C59 C 0.1081(11) 0.3906(6) 0.0646(4)
H41 H 0.1780 0.3831 0.0285
C60 C -0.0308(11) 0.4333(6) 0.0665(4)
H42 H -0.0731 0.4585 0.0318
B1 B 0.2632(10) 0.3017(6) 0.1448(5)
B2 B -0.0634(12) 0.1703(6) 0.6342(5)
N1 N -0.0322(8) 0.0787(4) 0.6420(3)
N2 N -0.0706(9) -0.0499(5) 0.6404(3)
N3 N 0.0488(8) 0.1883(4) 0.4586(3)
N4 N -0.0422(7) 0.1958(4) 0.5627(3)
N5 N 0.0462(8) 0.2053(5) 0.6680(3)
N6 N 0.2121(8) 0.2763(4) 0.6826(4)
N7 N 0.3982(8) 0.3376(4) 0.1264(3)
N8 N 0.5815(8) 0.4022(4) 0.1283(3)
N9 N -0.4470(8) 0.2716(5) 0.6808(4)
N10 N -0.2183(8) 0.2079(4) 0.6661(3)
N11 N 0.2387(7) 0.2867(4) 0.2188(3)
N12 N 0.1881(8) 0.2248(5) 0.3124(4)
N13 N 0.2867(7) 0.2208(4) 0.1090(3)
N14 N 0.2435(9) 0.1172(5) 0.0520(4)
N15 N 0.1270(7) 0.3607(4) 0.1251(3)
N16 N -0.0976(7) 0.4327(4) 0.1287(3)
O1 O 0.6806(7) 0.4397(4) 0.2519(3)
O2 O 0.6873(7) 0.5609(4) 0.2914(3)
O3 O 0.4342(9) 0.3491(5) 0.5680(3)
O4 O 0.2200(11) 0.4074(7) 0.5504(4)
O5 O 0.5707(7) 0.5838(4) 0.1643(3)
O6 O 0.6807(8) 0.5944(6) 0.0676(4)
O7 O 0.0375(7) 0.8698(4) 0.0089(3)
O8 O 0.1289(8) 0.9584(4) 0.0583(3)
O9 O 0.5566(14) 0.0976(11) 0.4137(6)
O10 O 0.3459(9) 0.0837(5) 0.4000(4)
O11 O 0.7569(12) -0.1131(7) 0.1152(5)
O12 O 0.7419(9) 0.0110(5) 0.0751(4)
Zn1 Zn 0.69851(11) 0.47512(6) 0.16173(5)
Zn2 Zn 0.16080(12) 0.14021(7) 0.37878(5)
Zn3 Zn 0.63326(12) 0.66322(7) 0.34304(5)
Zn4 Zn 0.14762(13) 0.05381(7) -0.00022(5)
N2A N 0.0706(9) 0.0499(5) 0.3596(3)
N6A N 0.7879(8) 0.7237(4) 0.3174(4)
N9A N 0.4470(8) 0.7284(5) 0.3192(4)
N16_2 N 0.9024(7) 0.4327(4) 0.1287(3)
O3A O 0.5658(9) 0.6509(5) 0.4320(3)
O7A O -0.0375(7) 0.1302(4) -0.0089(3)
O8_2 O 0.1289(8) -0.0416(4) 0.0583(3)
O12A O 0.2581(9) -0.0110(5) -0.0751(4)
Zn1_2 Zn -0.30149(11) 0.47512(6) 0.16173(5)
Zn2A Zn -0.16080(12) -0.14021(7) 0.62122(5)
Zn3A Zn -0.63326(12) 0.33678(7) 0.65696(5)
Zn3A_2 Zn 0.36674(12) 0.33678(7) 0.65696(5)
Zn4_2 Zn 0.14762(13) 1.05381(7) -0.00022(5)
Zn4A Zn -0.14762(13) 0.94619(7) 0.00022(5)
Zn4A_2 Zn 0.85238(13) -0.05381(7) 0.00022(5)
O13 O 0.726(2) 0.0440(12) 0.5076(7)
O14 O 0.143(2) 0.0142(16) 0.2007(8)
loop_
_geom_bond_atom_site_label_1
_geom_bond_atom_site_label_2
_geom_bond_site_symmetry_1
_geom_bond_site_symmetry_2
C1 C2 1_555 1_555
C2 H1 1_555 1_555
C3 C2 1_555 1_555
H2 C3 1_555 1_555
C4 C3 1_555 1_555
C5 C4 1_555 1_555
C6 C1 1_555 1_555
C7 C6 1_555 1_555
H3 C7 1_555 1_555
C8 C7 1_555 1_555
H4 C8 1_555 1_555
C9 C8 1_555 1_555
H5 C9 1_555 1_555
C10 C5 1_555 1_555
H6 C10 1_555 1_555
C11 C1 1_555 1_555
C12 C4 1_555 1_555
C13 C14 1_555 1_555
C14 H7 1_555 1_555
C15 C14 1_555 1_555
H8 C15 1_555 1_555
C16 C15 1_555 1_555
C17 C16 1_555 1_555
C18 C13 1_555 1_555
C19 C18 1_555 1_555
H9 C19 1_555 1_555
C20 C19 1_555 1_555
H10 C20 1_555 1_555
C21 C20 1_555 1_555
H11 C21 1_555 1_555
C22 C17 1_555 1_555
H12 C22 1_555 1_555
C23 C16 1_555 1_555
C24 C13 1_555 1_555
C25 C26 1_555 1_555
C26 H13 1_555 1_555
C27 C26 1_555 1_555
H14 C27 1_555 1_555
C28 C27 1_555 1_555
C29 C28 1_555 1_555
C30 C25 1_555 1_555
C31 C30 1_555 1_555
H15 C31 1_555 1_555
C32 C31 1_555 1_555
H16 C32 1_555 1_555
C33 C32 1_555 1_555
H17 C33 1_555 1_555
C34 C29 1_555 1_555
H18 C34 1_555 1_555
C35 C25 1_555 1_555
C36 C28 1_555 1_555
C37 H19 1_555 1_555
C38 H20 1_555 1_555
C39 C38 1_555 1_555
H21 C39 1_555 1_555
C40 H22 1_555 1_555
C41 H23 1_555 1_555
C42 C41 1_555 1_555
H24 C42 1_555 1_555
C43 H25 1_555 1_555
C44 H26 1_555 1_555
C45 C44 1_555 1_555
H27 C45 1_555 1_555
C46 H28 1_555 1_555
C47 H29 1_555 1_555
C48 C47 1_555 1_555
H30 C48 1_555 1_555
C49 H31 1_555 1_555
C50 H32 1_555 1_555
C51 C50 1_555 1_555
H33 C51 1_555 1_555
C52 H34 1_555 1_555
C53 H35 1_555 1_555
C54 C53 1_555 1_555
H36 C54 1_555 1_555
C55 H37 1_555 1_555
C56 H38 1_555 1_555
C57 C56 1_555 1_555
H39 C57 1_555 1_555
C58 H40 1_555 1_555
C59 H41 1_555 1_555
C60 C59 1_555 1_555
H42 C60 1_555 1_555
B1 N7 1_555 1_555
B2 N1 1_555 1_555
N1 C37 1_555 1_555
N2 C37 1_555 1_555
N3 C40 1_555 1_555
N4 C40 1_555 1_555
N5 C43 1_555 1_555
N6 C43 1_555 1_555
N7 C46 1_555 1_555
N8 C46 1_555 1_555
N9 C49 1_555 1_555
N10 C49 1_555 1_555
N11 C52 1_555 1_555
N12 C52 1_555 1_555
N13 C55 1_555 1_555
N14 C55 1_555 1_555
N15 C58 1_555 1_555
N16 C58 1_555 1_555
O1 C11 1_555 1_555
O2 C11 1_555 1_555
O3 C12 1_555 1_555
O4 C12 1_555 1_555
O5 C24 1_555 1_555
O6 C24 1_555 1_555
O7 C23 1_555 1_555
O8 C23 1_555 1_555
O9 C35 1_555 1_555
O10 C35 1_555 1_555
O11 C36 1_555 1_555
O12 C36 1_555 1_555
Zn1 N8 1_555 1_555
Zn2 N3 1_555 1_555
Zn3 O2 1_555 1_555
Zn4 N14 1_555 1_555
N2A Zn2 1_555 1_555
N6A Zn3 1_555 1_555
N9A Zn3 1_555 1_555
N16_2 Zn1 1_555 1_555
O3A Zn3 1_555 1_555
O7A Zn4 1_555 1_555
O8_2 Zn4 1_555 1_555
O12A Zn4 1_555 1_555
Zn1_2 N16 1_555 1_555
Zn2A N2 1_555 1_555
Zn3A N9 1_555 1_555
Zn3A_2 N6 1_555 1_555
Zn4_2 O8 1_555 1_555
Zn4A O7 1_555 1_555
Zn4A_2 O12 1_555 1_555
C5 C6 1_555 1_555
C9 C10 1_555 1_555
C17 C18 1_555 1_555
C21 C22 1_555 1_555
C29 C30 1_555 1_555
C33 C34 1_555 1_555
C38 N1 1_555 1_555
C39 N2 1_555 1_555
C41 N4 1_555 1_555
C42 N3 1_555 1_555
C44 N5 1_555 1_555
C45 N6 1_555 1_555
C47 N7 1_555 1_555
C48 N8 1_555 1_555
C50 N9 1_555 1_555
C51 N10 1_555 1_555
C53 N12 1_555 1_555
C54 N11 1_555 1_555
C56 N13 1_555 1_555
C57 N14 1_555 1_555
C59 N15 1_555 1_555
C60 N16 1_555 1_555
B1 N11 1_555 1_555
B1 N13 1_555 1_555
B1 N15 1_555 1_555
B2 N4 1_555 1_555
B2 N5 1_555 1_555
B2 N10 1_555 1_555
N12 Zn2 1_555 1_555
O1 Zn1 1_555 1_555
O3 Zn3A_2 1_555 1_555
O5 Zn1 1_555 1_555
O10 Zn2 1_555 1_555

#END
