
#######################################################################
#
#                 Cambridge Crystallographic Data Centre
#                                CCDC 
#
#######################################################################
#
# If this CIF has been generated from an entry in the Cambridge 
# Structural Database, then it will include bibliographic, chemical, 
# crystal, experimental, refinement or atomic coordinate data resulting 
# from the CCDC's data processing and validation procedures.
#
#######################################################################

data_GIGSAR
_symmetry_cell_setting           monoclinic
_symmetry_space_group_name_H-M   'C 2/c'
_symmetry_Int_Tables_number      15
_space_group_name_Hall           '-C 2yn'
loop_
_symmetry_equiv_pos_site_id
_symmetry_equiv_pos_as_xyz
1 x,y,z
2 1/2+x,1/2+y,z
3 -x,y,1/2-z
4 1/2-x,1/2+y,1/2-z
5 -x,-y,-z
6 1/2-x,1/2-y,-z
7 x,-y,1/2+z
8 1/2+x,1/2-y,1/2+z
_cell_length_a                   21.332(6)
_cell_length_b                   12.063(3)
_cell_length_c                   14.246(4)
_cell_angle_alpha                90
_cell_angle_beta                 106.704(4)
_cell_angle_gamma                90
_cell_volume                     3511.2
loop_
_atom_site_label
_atom_site_type_symbol
_atom_site_fract_x
_atom_site_fract_y
_atom_site_fract_z
Cd1 Cd 0.0000 0.35327(3) 0.7500
O1 O 0.2088(2) 0.1232(3) 0.4630(2)
O2 O -0.10096(13) 0.3915(2) 0.6400(2)
O3 O -0.08076(13) 0.2124(2) 0.65696(19)
O4 O 0.0000 0.5437(3) 0.7500
H1 H 0.0329 0.5858 0.7707
N1 N 0.05135(16) 0.3213(3) 0.6276(2)
N2 N 0.17687(19) 0.1800(3) 0.3903(3)
N3 N 0.10716(17) 0.3075(3) 0.3078(2)
C1 C 0.06025(19) 0.4013(3) 0.5685(3)
H2 H 0.0479 0.4730 0.5794
C2 C 0.0867(2) 0.3842(3) 0.4923(3)
H3 H 0.0926 0.4430 0.4535
C3 C 0.10425(19) 0.2778(3) 0.4747(3)
C4 C 0.0954(3) 0.1942(4) 0.5358(3)
H4 H 0.1070 0.1216 0.5264
C5 C 0.0693(3) 0.2197(4) 0.6105(3)
H5 H 0.0639 0.1628 0.6515
C6 C 0.1290(2) 0.2569(3) 0.3894(3)
C7 C 0.1450(2) 0.2716(4) 0.2404(3)
C8 C 0.1892(3) 0.3708(5) 0.2358(5)
H6 H 0.1629 0.4362 0.2176
H7 H 0.2121 0.3565 0.1880
H8 H 0.2203 0.3818 0.2988
C9 C 0.0965(3) 0.2494(5) 0.1402(3)
H9 H 0.0657 0.1939 0.1464
H10 H 0.1198 0.2237 0.0958
H11 H 0.0736 0.3165 0.1153
C10 C 0.1853(2) 0.1690(4) 0.2901(3)
C11 C 0.1563(3) 0.0589(4) 0.2498(4)
H12 H 0.1796 0.0003 0.2907
H13 H 0.1596 0.0497 0.1845
H14 H 0.1111 0.0566 0.2486
C12 C 0.2574(3) 0.1701(6) 0.2980(4)
H15 H 0.2767 0.2375 0.3291
H16 H 0.2631 0.1656 0.2337
H17 H 0.2783 0.1078 0.3364
C13 C -0.11789(18) 0.2924(4) 0.6223(3)
C14 C -0.18658(17) 0.2700(3) 0.5587(2)
C15 C -0.22969(18) 0.3566(3) 0.5264(3)
H18 H -0.2161 0.4289 0.5439
C16 C -0.20725(18) 0.1630(3) 0.5315(3)
H19 H -0.1786 0.1040 0.5522
Cd1G Cd -0.5000 0.14673(3) 0.2500
O1B O -0.2088(2) 0.1232(3) 1.0370(2)
O2E O -0.39904(13) 0.1085(2) 0.3600(2)
O2B O 0.10096(13) 0.3915(2) 0.8600(2)
O3E O -0.41924(13) 0.2876(2) 0.34304(19)
O3B O 0.08076(13) 0.2124(2) 0.84304(19)
H1B H -0.0329 0.5858 0.7293
N1B N -0.05135(16) 0.3213(3) 0.8724(2)
N2B N -0.17687(19) 0.1800(3) 1.1097(3)
N3B N -0.10716(17) 0.3075(3) 1.1922(2)
C1B C -0.06025(19) 0.4013(3) 0.9315(3)
H2B H -0.0479 0.4730 0.9206
C2B C -0.0867(2) 0.3842(3) 1.0077(3)
H3B H -0.0926 0.4430 1.0465
C3B C -0.10425(19) 0.2778(3) 1.0253(3)
C4B C -0.0954(3) 0.1942(4) 0.9642(3)
H4B H -0.1070 0.1216 0.9736
C5B C -0.0693(3) 0.2197(4) 0.8895(3)
H5B H -0.0639 0.1628 0.8485
C6B C -0.1290(2) 0.2569(3) 1.1106(3)
C7B C -0.1450(2) 0.2716(4) 1.2596(3)
C8B C -0.1892(3) 0.3708(5) 1.2642(5)
H6B H -0.1629 0.4362 1.2824
H7B H -0.2121 0.3565 1.3120
H8B H -0.2203 0.3818 1.2012
C9B C -0.0965(3) 0.2494(5) 1.3598(3)
H9B H -0.0657 0.1939 1.3536
H10B H -0.1198 0.2237 1.4042
H11B H -0.0736 0.3165 1.3847
C10B C -0.1853(2) 0.1690(4) 1.2099(3)
C11B C -0.1563(3) 0.0589(4) 1.2502(4)
H12B H -0.1796 0.0003 1.2093
H13B H -0.1596 0.0497 1.3155
H14B H -0.1111 0.0566 1.2514
C12B C -0.2574(3) 0.1701(6) 1.2020(4)
H15B H -0.2767 0.2375 1.1709
H16B H -0.2631 0.1656 1.2663
H17B H -0.2783 0.1078 1.1636
C13E C -0.38211(18) 0.2076(4) 0.3777(3)
C14E C -0.31342(17) 0.2300(3) 0.4413(2)
C15E C -0.27031(18) 0.1434(3) 0.4736(3)
H18E H -0.2839 0.0711 0.4561
C16E C -0.29275(18) 0.3370(3) 0.4685(3)
H19E H -0.3214 0.3960 0.4478
O5 O 0.9657(4) 1.0071(7) 0.6200(8)
O6? O 1.0000 1.016(2) 0.7500
loop_
_geom_bond_atom_site_label_1
_geom_bond_atom_site_label_2
_geom_bond_site_symmetry_1
_geom_bond_site_symmetry_2
Cd1 O2 1_555 1_555
O1 N2 1_555 1_555
O2 C13 1_555 1_555
O3 Cd1 1_555 1_555
O4 Cd1 1_555 1_555
H1 O4 1_555 1_555
N1 Cd1 1_555 1_555
N2 C6 1_555 1_555
N3 C6 1_555 1_555
C1 N1 1_555 1_555
H2 C1 1_555 1_555
C2 C1 1_555 1_555
H3 C2 1_555 1_555
C3 C2 1_555 1_555
C4 C3 1_555 1_555
H4 C4 1_555 1_555
C5 N1 1_555 1_555
H5 C5 1_555 1_555
C6 C3 1_555 1_555
C7 N3 1_555 1_555
C8 C7 1_555 1_555
H6 C8 1_555 1_555
H7 C8 1_555 1_555
H8 C8 1_555 1_555
C9 C7 1_555 1_555
H9 C9 1_555 1_555
H10 C9 1_555 1_555
H11 C9 1_555 1_555
C10 N2 1_555 1_555
C11 C10 1_555 1_555
H12 C11 1_555 1_555
H13 C11 1_555 1_555
H14 C11 1_555 1_555
C12 C10 1_555 1_555
H15 C12 1_555 1_555
H16 C12 1_555 1_555
H17 C12 1_555 1_555
C13 O3 1_555 1_555
C14 C13 1_555 1_555
C15 C14 1_555 1_555
H18 C15 1_555 1_555
C16 C14 1_555 1_555
H19 C16 1_555 1_555
Cd1G O2E 1_555 1_555
O1B N2B 1_555 1_555
O2E C13E 1_555 1_555
O2B Cd1 1_555 1_555
O3E Cd1G 1_555 1_555
O3B Cd1 1_555 1_555
H1B O4 1_555 1_555
N1B Cd1 1_555 1_555
N2B C6B 1_555 1_555
N3B C6B 1_555 1_555
C1B N1B 1_555 1_555
H2B C1B 1_555 1_555
C2B C1B 1_555 1_555
H3B C2B 1_555 1_555
C3B C2B 1_555 1_555
C4B C3B 1_555 1_555
H4B C4B 1_555 1_555
C5B N1B 1_555 1_555
H5B C5B 1_555 1_555
C6B C3B 1_555 1_555
C7B N3B 1_555 1_555
C8B C7B 1_555 1_555
H6B C8B 1_555 1_555
H7B C8B 1_555 1_555
H8B C8B 1_555 1_555
C9B C7B 1_555 1_555
H9B C9B 1_555 1_555
H10B C9B 1_555 1_555
H11B C9B 1_555 1_555
C10B N2B 1_555 1_555
C11B C10B 1_555 1_555
H12B C11B 1_555 1_555
H13B C11B 1_555 1_555
H14B C11B 1_555 1_555
C12B C10B 1_555 1_555
H15B C12B 1_555 1_555
H16B C12B 1_555 1_555
H17B C12B 1_555 1_555
C13E O3E 1_555 1_555
C14E C13E 1_555 1_555
C15E C16 1_555 1_555
H18E C15E 1_555 1_555
C16E C15 1_555 1_555
H19E C16E 1_555 1_555
C4 C5 1_555 1_555
C7 C10 1_555 1_555
C4B C5B 1_555 1_555
C7B C10B 1_555 1_555
C14E C15E 1_555 1_555
C14E C16E 1_555 1_555

#END
