
#######################################################################
#
#                 Cambridge Crystallographic Data Centre
#                                CCDC 
#
#######################################################################
#
# If this CIF has been generated from an entry in the Cambridge 
# Structural Database, then it will include bibliographic, chemical, 
# crystal, experimental, refinement or atomic coordinate data resulting 
# from the CCDC's data processing and validation procedures.
#
#######################################################################

data_GIGVOI
_symmetry_cell_setting           monoclinic
_symmetry_space_group_name_H-M   'C 2/c'
_symmetry_Int_Tables_number      15
_space_group_name_Hall           '-C 2yn'
loop_
_symmetry_equiv_pos_site_id
_symmetry_equiv_pos_as_xyz
1 x,y,z
2 1/2+x,1/2+y,z
3 -x,y,1/2-z
4 1/2-x,1/2+y,1/2-z
5 -x,-y,-z
6 1/2-x,1/2-y,-z
7 x,-y,1/2+z
8 1/2+x,1/2-y,1/2+z
_cell_length_a                   11.033(2)
_cell_length_b                   6.7410(13)
_cell_length_c                   30.187(6)
_cell_angle_alpha                90
_cell_angle_beta                 98.51(3)
_cell_angle_gamma                90
_cell_volume                     2220.39
loop_
_atom_site_label
_atom_site_type_symbol
_atom_site_fract_x
_atom_site_fract_y
_atom_site_fract_z
C1 C -0.1734(2) -0.1848(3) 0.61865(8)
C2 C -0.0918(2) -0.1223(4) 0.59049(8)
C3 C -0.1349(3) -0.0487(4) 0.54803(9)
H1 H -0.0802 -0.0063 0.5293
C4 C -0.2589(3) -0.0393(4) 0.53402(9)
C5 C -0.3413(3) -0.0956(5) 0.56120(10)
H2 H -0.4251 -0.0854 0.5514
C6 C -0.2980(2) -0.1680(4) 0.60359(9)
H3 H -0.3537 -0.2061 0.6223
N1 N -0.03459(19) -0.4655(3) 0.66974(7)
O1 O -0.05566(16) -0.1414(3) 0.70026(6)
O2 O -0.24128(17) -0.3437(3) 0.68763(6)
S1 S -0.12729(5) -0.28858(9) 0.672850(19)
Cl1 Cl -0.10533(6) -0.65130(10) 0.63434(2)
Cl2 Cl 0.06526(6) -0.13237(12) 0.60616(3)
Cl3 Cl -0.31098(9) 0.03791(12) 0.47951(3)
Na1 Na 0.14565(9) -0.00688(16) 0.73657(3)
O3 O 0.00000 0.2632(4) 0.75000
H4 H -0.010(3) 0.339(3) 0.7290(7)
O4 O 0.28754(17) 0.1707(3) 0.79286(6)
H5 H 0.247(2) 0.196(4) 0.8128(6)
H6 H 0.3478(17) 0.111(4) 0.8039(8)
C1B C 0.1734(2) -0.1848(3) 0.88135(8)
C2B C 0.0918(2) -0.1223(4) 0.90951(8)
C3B C 0.1349(3) -0.0487(4) 0.95197(9)
H1B H 0.0802 -0.0063 0.9707
C4B C 0.2589(3) -0.0393(4) 0.96598(9)
C5B C 0.3413(3) -0.0956(5) 0.93880(10)
H2B H 0.4251 -0.0854 0.9486
C6B C 0.2980(2) -0.1680(4) 0.89641(9)
H3B H 0.3537 -0.2061 0.8777
N1B N 0.03459(19) -0.4655(3) 0.83026(7)
O1B O 0.05566(16) -0.1414(3) 0.79974(6)
O2B O 0.24128(17) -0.3437(3) 0.81237(6)
O2A O 0.25872(17) 0.1563(3) 0.68763(6)
O2C O -0.25872(17) 0.1563(3) 0.81237(6)
S1B S 0.12729(5) -0.28858(9) 0.827150(19)
Cl1B Cl 0.10533(6) -0.65130(10) 0.86566(2)
Cl2B Cl -0.06526(6) -0.13237(12) 0.89384(3)
Cl3B Cl 0.31098(9) 0.03791(12) 1.02049(3)
Na1B Na -0.14565(9) -0.00688(16) 0.76343(3)
Na1A Na -0.35435(9) -0.50688(16) 0.73657(3)
Na1C Na 0.35435(9) 0.49312(16) 0.76343(3)
Na1C_2 Na 0.35435(9) -0.50688(16) 0.76343(3)
H4B H 0.010(3) 0.339(3) 0.7710(7)
O4C O 0.21246(17) -0.3293(3) 0.70714(6)
O4A O -0.21246(17) -0.3293(3) 0.79286(6)
O4B O -0.28754(17) 0.1707(3) 0.70714(6)
H5C H 0.253(2) -0.304(4) 0.6872(6)
H5A H -0.253(2) -0.304(4) 0.8128(6)
H5B H -0.247(2) 0.196(4) 0.6872(6)
H6C H 0.1522(17) -0.389(4) 0.6961(8)
H6A H -0.1522(17) -0.389(4) 0.8039(8)
H6B H -0.3478(17) 0.111(4) 0.6961(8)
loop_
_geom_bond_atom_site_label_1
_geom_bond_atom_site_label_2
_geom_bond_site_symmetry_1
_geom_bond_site_symmetry_2
C1 C2 1_555 1_555
C2 C3 1_555 1_555
C3 H1 1_555 1_555
C4 C3 1_555 1_555
C5 C4 1_555 1_555
H2 C5 1_555 1_555
C6 C1 1_555 1_555
H3 C6 1_555 1_555
N1 S1 1_555 1_555
O1 S1 1_555 1_555
O2 S1 1_555 1_555
S1 C1 1_555 1_555
Cl1 N1 1_555 1_555
Cl2 C2 1_555 1_555
Cl3 C4 1_555 1_555
Na1 O1 1_555 1_555
O3 Na1 1_555 1_555
H4 O3 1_555 1_555
O4 Na1 1_555 1_555
H5 O4 1_555 1_555
H6 O4 1_555 1_555
C1B C2B 1_555 1_555
C2B C3B 1_555 1_555
C3B H1B 1_555 1_555
C4B C3B 1_555 1_555
C5B C4B 1_555 1_555
H2B C5B 1_555 1_555
C6B C1B 1_555 1_555
H3B C6B 1_555 1_555
N1B S1B 1_555 1_555
O1B Na1 1_555 1_555
O2B S1B 1_555 1_555
O2A Na1 1_555 1_555
O2C Na1B 1_555 1_555
S1B C1B 1_555 1_555
Cl1B N1B 1_555 1_555
Cl2B C2B 1_555 1_555
Cl3B C4B 1_555 1_555
Na1B O1 1_555 1_555
Na1A O2 1_555 1_555
Na1C O4 1_555 1_555
Na1C_2 O2B 1_555 1_555
H4B O3 1_555 1_555
O4C Na1 1_555 1_555
O4A Na1B 1_555 1_555
O4B Na1B 1_555 1_555
H5C O4C 1_555 1_555
H5A O4A 1_555 1_555
H5B O4B 1_555 1_555
H6C O4C 1_555 1_555
H6A O4A 1_555 1_555
H6B O4B 1_555 1_555
C5 C6 1_555 1_555
O3 Na1B 1_555 1_555
C5B C6B 1_555 1_555
O1B S1B 1_555 1_555
O1B Na1B 1_555 1_555
Na1A O4A 1_555 1_555
Na1C_2 O4C 1_555 1_555

#END
