
#######################################################################
#
#                 Cambridge Crystallographic Data Centre
#                                CCDC 
#
#######################################################################
#
# If this CIF has been generated from an entry in the Cambridge 
# Structural Database, then it will include bibliographic, chemical, 
# crystal, experimental, refinement or atomic coordinate data resulting 
# from the CCDC's data processing and validation procedures.
#
#######################################################################

data_GIGWID
_symmetry_cell_setting           monoclinic
_symmetry_space_group_name_H-M   'P 21/c'
_symmetry_Int_Tables_number      14
_space_group_name_Hall           '-P 2ybc'
loop_
_symmetry_equiv_pos_site_id
_symmetry_equiv_pos_as_xyz
1 x,y,z
2 -x,1/2+y,1/2-z
3 -x,-y,-z
4 x,1/2-y,1/2+z
_cell_length_a                   12.1685(3)
_cell_length_b                   16.9339(4)
_cell_length_c                   8.9299(2)
_cell_angle_alpha                90
_cell_angle_beta                 108.9560(10)
_cell_angle_gamma                90
_cell_volume                     1740.31
loop_
_atom_site_label
_atom_site_type_symbol
_atom_site_fract_x
_atom_site_fract_y
_atom_site_fract_z
C1 C 0.3882(3) 0.2982(2) 1.0544(4)
C2 C 0.2921(3) 0.2998(2) 0.8969(4)
H1 H 0.2219 0.3214 0.9097
H2 H 0.3144 0.3329 0.8229
C3 C 0.1633(3) 0.2069(2) 0.7228(4)
C4 C 0.1125(3) 0.2595(2) 0.6019(5)
H3 H 0.1479 0.3077 0.5967
C5 C 0.0081(3) 0.2397(2) 0.4888(5)
H4 H -0.0268 0.2749 0.4075
C6 C -0.0447(3) 0.1683(2) 0.4949(4)
C7 C 0.0062(3) 0.1167(2) 0.6184(4)
H5 H -0.0295 0.0687 0.6244
C8 C 0.1099(3) 0.1363(2) 0.7325(4)
H6 H 0.1437 0.1019 0.8159
C9 C -0.1944(3) 0.0758(2) 0.3755(4)
H7 H -0.2151 0.0695 0.4709
H8 H -0.1353 0.0369 0.3781
C10 C -0.3006(3) 0.0605(2) 0.2326(4)
C11 C 0.3538(3) 0.0272(2) 1.1574(4)
C12 C 0.3027(4) -0.0132(3) 1.2703(5)
H9 H 0.2934 -0.0690 1.2443
H10 H 0.3569 -0.0086 1.3770
C13 C 0.1003(4) 0.0075(3) 1.1304(5)
C14 C 0.0010(4) 0.0502(3) 1.1204(5)
H11 H 0.0016 0.0842 1.2024
C15 C 0.0980(4) -0.0433(3) 1.0079(5)
H12 H 0.1636 -0.0727 1.0126
O1 O 0.4518(3) 0.23847(17) 1.0882(3)
O2 O 0.3992(2) 0.35833(16) 1.1385(3)
O3 O 0.2716(2) 0.22057(15) 0.8373(3)
O4 O -0.1475(2) 0.15296(16) 0.3742(3)
O5 O -0.3176(2) -0.01103(16) 0.2027(3)
O6 O -0.3610(2) 0.11699(16) 0.1607(3)
O7 O 0.3150(2) 0.09148(16) 1.0965(3)
O8 O 0.4394(2) -0.00571(16) 1.1333(3)
O9 O 0.1936(3) 0.0180(2) 1.2671(3)
O10 O 0.6001(3) 0.2096(2) 0.8741(4)
Pr1 Pr 0.451486(16) 0.116370(11) 0.92970(2)
H13 H 0.6202 0.2263 0.7986
H14 H 0.5562 0.2409 0.8926
C1C C 0.3882(3) 0.2018(2) 0.5544(4)
C2C C 0.2921(3) 0.2002(2) 0.3969(4)
H1C H 0.2219 0.1786 0.4097
H2C H 0.3144 0.1671 0.3229
C3C C 0.1633(3) 0.2931(2) 0.2228(4)
C4C C 0.1125(3) 0.2405(2) 0.1019(5)
H3C H 0.1479 0.1923 0.0967
C5C C 0.0081(3) 0.2603(2) -0.0112(5)
H4C H -0.0268 0.2251 -0.0925
C6C C -0.0447(3) 0.3317(2) -0.0051(4)
C7C C 0.0062(3) 0.3833(2) 0.1184(4)
H5C H -0.0295 0.4313 0.1244
C8C C 0.1099(3) 0.3637(2) 0.2325(4)
H6C H 0.1437 0.3981 0.3159
C9C C -0.1944(3) 0.4242(2) -0.1245(4)
H7C H -0.2151 0.4305 -0.0291
H8C H -0.1353 0.4631 -0.1219
C10C C -0.3006(3) 0.4395(2) -0.2674(4)
C11B C -0.3538(3) -0.0272(2) 0.8426(4)
C12B C -0.3027(4) 0.0132(3) 0.7297(5)
H9B H -0.2934 0.0690 0.7557
H10B H -0.3569 0.0086 0.6230
C13B C -0.1003(4) -0.0075(3) 0.8696(5)
C14B C -0.0010(4) -0.0502(3) 0.8796(5)
H11B H -0.0016 -0.0842 0.7976
C15B C -0.0980(4) 0.0433(3) 0.9921(5)
H12B H -0.1636 0.0727 0.9874
O1C O 0.4518(3) 0.26153(17) 0.5882(3)
O2C O 0.3992(2) 0.14167(16) 0.6385(3)
O2_2 O 0.3992(2) 0.35833(16) 0.1385(3)
O3C O 0.2716(2) 0.27943(15) 0.3373(3)
O4C O -0.1475(2) 0.34704(16) -0.1258(3)
O5C O -0.3176(2) 0.51103(16) -0.2973(3)
O5B O 0.3176(2) 0.01103(16) 0.7973(3)
O5A O 0.3176(2) 0.48897(16) 0.2973(3)
O6C O -0.3610(2) 0.38301(16) -0.3393(3)
O6_2 O 0.6390(2) 0.11699(16) 1.1607(3)
O6C_2 O 0.6390(2) 0.38301(16) 0.6607(3)
O7B O -0.3150(2) -0.09148(16) 0.9035(3)
O7C O 0.3150(2) 0.40852(16) 0.5965(3)
O8B O -0.4394(2) 0.00571(16) 0.8667(3)
O8B_2 O 0.5606(2) 0.00571(16) 0.8667(3)
O8C O 0.4394(2) 0.50571(16) 0.6333(3)
O8A O 0.5606(2) 0.49429(16) 0.3667(3)
O9B O -0.1936(3) -0.0180(2) 0.7329(3)
O10C O 0.6001(3) 0.2904(2) 0.3741(4)
Pr1C Pr 0.451486(16) 0.383630(11) 0.42970(2)
Pr1C_2 Pr 0.451486(16) 0.383630(11) 1.42970(2)
Pr1B Pr -0.451486(16) -0.116370(11) 0.07030(2)
Pr1_2 Pr -0.548514(16) 0.116370(11) -0.07030(2)
Pr1B_2 Pr 0.548514(16) -0.116370(11) 1.07030(2)
Pr1B_3 Pr -0.451486(16) -0.116370(11) 1.07030(2)
Pr1_3 Pr -0.548514(16) 0.116370(11) 0.92970(2)
Pr1A Pr -0.451486(16) 0.616370(11) -0.42970(2)
Pr1C_3 Pr -0.548514(16) 0.383630(11) -0.57030(2)
H13C H 0.6202 0.2737 0.2986
H14C H 0.5562 0.2591 0.3926
O11 O 0.7480(3) 0.2822(2) 0.1433(4)
H15 H 0.7894 0.2456 0.1300
H16 H 0.6805 0.2807 0.0727
loop_
_geom_bond_atom_site_label_1
_geom_bond_atom_site_label_2
_geom_bond_site_symmetry_1
_geom_bond_site_symmetry_2
C1 C2 1_555 1_555
C2 H1 1_555 1_555
H2 C2 1_555 1_555
C3 C4 1_555 1_555
C4 H3 1_555 1_555
C5 C4 1_555 1_555
H4 C5 1_555 1_555
C6 C5 1_555 1_555
C7 C6 1_555 1_555
H5 C7 1_555 1_555
C8 C3 1_555 1_555
H6 C8 1_555 1_555
C9 H7 1_555 1_555
H8 C9 1_555 1_555
C10 C9 1_555 1_555
C11 C12 1_555 1_555
C12 H9 1_555 1_555
H10 C12 1_555 1_555
C13 C14 1_555 1_555
C14 H11 1_555 1_555
C15 C13 1_555 1_555
H12 C15 1_555 1_555
O1 C1 1_555 1_555
O2 C1 1_555 1_555
O3 C2 1_555 1_555
O4 C6 1_555 1_555
O5 C10 1_555 1_555
O6 C10 1_555 1_555
O7 C11 1_555 1_555
O8 C11 1_555 1_555
O9 C12 1_555 1_555
O10 Pr1 1_555 1_555
Pr1 O1 1_555 1_555
H13 O10 1_555 1_555
H14 O10 1_555 1_555
O11 H15 1_555 1_555
H16 O11 1_555 1_555
C1C C2C 1_555 1_555
C2C H1C 1_555 1_555
H2C C2C 1_555 1_555
C3C C4C 1_555 1_555
C4C H3C 1_555 1_555
C5C C4C 1_555 1_555
H4C C5C 1_555 1_555
C6C C5C 1_555 1_555
C7C C6C 1_555 1_555
H5C C7C 1_555 1_555
C8C C3C 1_555 1_555
H6C C8C 1_555 1_555
C9C H7C 1_555 1_555
H8C C9C 1_555 1_555
C10C C9C 1_555 1_555
C11B C12B 1_555 1_555
C12B H9B 1_555 1_555
H10B C12B 1_555 1_555
C13B C14B 1_555 1_555
C14B C15 1_555 1_555
H11B C14B 1_555 1_555
C15B C14 1_555 1_555
H12B C15B 1_555 1_555
O1C C1C 1_555 1_555
O2C Pr1 1_555 1_555
O2_2 Pr1C 1_555 1_555
O3C C2C 1_555 1_555
O4C C6C 1_555 1_555
O5C C10C 1_555 1_555
O5B Pr1 1_555 1_555
O5A Pr1C 1_555 1_555
O6C C10C 1_555 1_555
O6_2 Pr1 1_555 1_555
O6C_2 Pr1C 1_555 1_555
O7B C11B 1_555 1_555
O7C Pr1C 1_555 1_555
O8B C11B 1_555 1_555
O8B_2 Pr1 1_555 1_555
O8C Pr1C 1_555 1_555
O8A Pr1C 1_555 1_555
O9B C12B 1_555 1_555
O10C Pr1C 1_555 1_555
Pr1C O1C 1_555 1_555
Pr1C_2 O2 1_555 1_555
Pr1B O5 1_555 1_555
Pr1_2 O6 1_555 1_555
Pr1B_2 O8 1_555 1_555
Pr1B_3 O7B 1_555 1_555
Pr1_3 O8B 1_555 1_555
Pr1A O5C 1_555 1_555
Pr1C_3 O6C 1_555 1_555
H13C O10C 1_555 1_555
H14C O10C 1_555 1_555
C3 O3 1_555 1_555
C7 C8 1_555 1_555
C9 O4 1_555 1_555
C13 O9 1_555 1_555
O3 Pr1 1_555 1_555
O7 Pr1 1_555 1_555
O8 Pr1 1_555 1_555
C1C O2C 1_555 1_555
C3C O3C 1_555 1_555
C7C C8C 1_555 1_555
C9C O4C 1_555 1_555
C13B C15B 1_555 1_555
C13B O9B 1_555 1_555
O3C Pr1C 1_555 1_555
O8B Pr1B_3 1_555 1_555
O8B_2 Pr1B_2 1_555 1_555

#END
