
#######################################################################
#
#                 Cambridge Crystallographic Data Centre
#                                CCDC 
#
#######################################################################
#
# If this CIF has been generated from an entry in the Cambridge 
# Structural Database, then it will include bibliographic, chemical, 
# crystal, experimental, refinement or atomic coordinate data resulting 
# from the CCDC's data processing and validation procedures.
#
#######################################################################

data_GIGWID01
_symmetry_cell_setting           monoclinic
_symmetry_space_group_name_H-M   'P 21/c'
_symmetry_Int_Tables_number      14
_space_group_name_Hall           '-P 2ybc'
loop_
_symmetry_equiv_pos_site_id
_symmetry_equiv_pos_as_xyz
1 x,y,z
2 -x,1/2+y,1/2-z
3 -x,-y,-z
4 x,1/2-y,1/2+z
_cell_length_a                   12.1268(7)
_cell_length_b                   16.7341(10)
_cell_length_c                   8.9193(5)
_cell_angle_alpha                90
_cell_angle_beta                 109.1840(10)
_cell_angle_gamma                90
_cell_volume                     1709.49
loop_
_atom_site_label
_atom_site_type_symbol
_atom_site_fract_x
_atom_site_fract_y
_atom_site_fract_z
Pr1 Pr 0.951749(11) 0.383287(7) 0.931678(15)
O1 O 0.95373(17) 0.26282(11) 1.0913(2)
O2 O 0.77292(15) 0.27998(10) 0.8393(2)
O3 O 0.94156(16) 0.50731(11) 1.1314(2)
O4 O 0.81797(18) 0.40835(11) 1.0967(2)
O5 O 1.0965(2) 0.29031(14) 0.8780(3)
O6 O 0.81756(15) 0.48638(10) 0.7992(2)
O7 O 0.90010(17) 0.35773(11) 0.6440(2)
O8 O 1.13656(17) 0.38417(10) 1.1600(2)
C1 C 0.8896(2) 0.20185(15) 1.0578(3)
C2 C 0.7936(2) 0.20003(15) 0.9001(3)
C3 C 0.6644(2) 0.29365(15) 0.7240(3)
H1 H 1.1027 0.2448 0.9221
H2 H 1.0920 0.2801 0.7828
C4 C 1.1443(2) 0.52612(16) 0.8434(3)
H3 H 0.8161 0.1663 0.8266
H4 H 0.7230 0.1783 0.9126
C5 C 0.6097(2) 0.36420(15) 0.7346(3)
C6 C 0.6144(2) 0.24059(16) 0.6031(3)
C7 C 1.1951(3) 0.4851(2) 0.7307(4)
C8 C 0.5045(2) 0.38383(15) 0.6203(3)
H5 H 0.6433 0.3989 0.8187
H6 H 0.6509 0.1923 0.5977
C9 C 0.5085(2) 0.26011(16) 0.4890(3)
O9 O 1.30402(18) 0.51749(14) 0.7336(3)
H7 H 1.1402 0.4894 0.6238
H8 H 1.2053 0.4289 0.7576
H9 H 0.4675 0.4317 0.6274
C10 C 0.4548(2) 0.33205(15) 0.4957(3)
H10 H 0.4735 0.2243 0.4075
C11 C 1.3985(3) 0.50718(18) 0.8696(4)
O10 O 0.35139(15) 0.34777(11) 0.3745(2)
C12 C 1.4971(3) 0.55083(18) 0.8779(4)
C13 C 1.4016(3) 0.45623(18) 0.9936(4)
C14 C 0.3045(2) 0.42531(16) 0.3763(3)
H11 H 1.4953 0.5855 0.7956
H12 H 1.3357 0.4269 0.9903
H13 H 0.3640 0.4648 0.3809
H14 H 0.2827 0.4312 0.4711
C15 C 0.1989(2) 0.44105(15) 0.2321(3)
O3B O 1.05844(16) 0.49269(11) 0.8686(2)
Pr1B Pr 1.048251(11) 0.616713(7) 1.068322(15)
C1C C 0.8896(2) 0.29815(15) 0.5578(3)
O7C O 0.90010(17) 0.14227(11) 1.1440(2)
O4B O 1.18203(18) 0.59165(11) 0.9033(2)
O1C O 0.95373(17) 0.23718(11) 0.5913(2)
C2C C 0.7936(2) 0.29997(15) 0.4001(3)
Pr1C Pr 0.951749(11) 0.116713(7) 1.431678(15)
Pr1C_2 Pr 0.951749(11) 0.116713(7) 0.431678(15)
O2C O 0.77292(15) 0.22002(10) 0.3393(2)
H3C H 0.8161 0.3337 0.3266
H4C H 0.7230 0.3217 0.4126
O1C_2 O 0.95373(17) 0.23718(11) 1.5913(2)
O4C O 0.81797(18) 0.09165(11) 1.5967(2)
O2C_2 O 0.77292(15) 0.22002(10) 1.3393(2)
O5C O 1.0965(2) 0.20969(14) 1.3780(3)
O6C O 0.81756(15) 0.01362(10) 1.2992(2)
O3A O 1.05844(16) 0.00731(11) 1.3686(2)
O8C O 1.13656(17) 0.11583(10) 1.6600(2)
O3C O 0.94156(16) -0.00731(11) 1.6314(2)
C3C C 0.6644(2) 0.20635(15) 0.2240(3)
H1C H 1.1027 0.2552 1.4221
H2C H 1.0920 0.2199 1.2828
C6C C 0.6144(2) 0.25941(16) 0.1031(3)
C5C C 0.6097(2) 0.13580(15) 0.2346(3)
C9C C 0.5085(2) 0.23989(16) -0.0110(3)
H6C H 0.6509 0.3077 0.0977
H5C H 0.6433 0.1011 0.3187
C8C C 0.5045(2) 0.11617(15) 0.1203(3)
C13B C 1.5984(3) 0.54377(18) 1.0064(4)
C12B C 1.5029(3) 0.44917(18) 1.1221(4)
C10C C 0.4548(2) 0.16795(15) -0.0043(3)
H10C H 0.4735 0.2757 -0.0925
H9C H 0.4675 0.0683 0.1274
C11B C 1.6015(3) 0.49282(18) 1.1304(4)
H12B H 1.6643 0.5731 1.0097
H11B H 1.5047 0.4145 1.2044
O8_2 O 0.13656(17) 0.38417(10) 0.1600(2)
O6B O 0.18244(15) 0.51362(10) 0.2008(2)
O10C O 0.35139(15) 0.15223(11) -0.1255(2)
O9B O 1.69598(18) 0.48251(14) 1.2664(3)
Pr1_2 Pr -0.048251(11) 0.383287(7) -0.068322(15)
Pr1B_2 Pr 0.048251(11) 0.616713(7) 0.068322(15)
C14C C 0.3045(2) 0.07469(16) -0.1237(3)
C7B C 1.8049(3) 0.5149(2) 1.2693(4)
H14C H 0.2827 0.0688 -0.0289
C15C C 0.1989(2) 0.05895(15) -0.2679(3)
H13C H 0.3640 0.0352 -0.1191
H8B H 1.7947 0.5711 1.2424
H7B H 1.8598 0.5106 1.3762
C4B C 1.8557(2) 0.47388(16) 1.1566(3)
O6A O 0.18244(15) -0.01362(10) -0.2992(2)
O8C_2 O 0.13656(17) 0.11583(10) -0.3400(2)
O3_2 O 1.94156(16) 0.50731(11) 1.1314(2)
O4_2 O 1.81797(18) 0.40835(11) 1.0967(2)
Pr1A Pr 0.048251(11) -0.116713(7) -0.431678(15)
Pr1C_3 Pr -0.048251(11) 0.116713(7) -0.568322(15)
Pr1_3 Pr 1.951749(11) 0.383287(7) 0.931678(15)
Pr1B_3 Pr 2.048251(11) 0.616713(7) 1.068322(15)
O11 O 0.2466(2) 0.28175(16) 0.6429(3)
H15 H 0.2474 0.2348 0.6798
H16 H 0.3181 0.2952 0.6709
loop_
_geom_bond_atom_site_label_1
_geom_bond_atom_site_label_2
_geom_bond_site_symmetry_1
_geom_bond_site_symmetry_2
Pr1 O1 1_555 1_555
O1 C1 1_555 1_555
O2 Pr1 1_555 1_555
O3 Pr1 1_555 1_555
O4 Pr1 1_555 1_555
O5 Pr1 1_555 1_555
O6 Pr1 1_555 1_555
O7 Pr1 1_555 1_555
O8 Pr1 1_555 1_555
C1 C2 1_555 1_555
C2 O2 1_555 1_555
C3 O2 1_555 1_555
H1 O5 1_555 1_555
H2 O5 1_555 1_555
C4 C7 1_555 1_555
H3 C2 1_555 1_555
H4 C2 1_555 1_555
C5 C3 1_555 1_555
C6 C3 1_555 1_555
C7 O9 1_555 1_555
C8 C5 1_555 1_555
H5 C5 1_555 1_555
H6 C6 1_555 1_555
C9 C6 1_555 1_555
O9 C11 1_555 1_555
H7 C7 1_555 1_555
H8 C7 1_555 1_555
H9 C8 1_555 1_555
C10 C8 1_555 1_555
H10 C9 1_555 1_555
C11 C12 1_555 1_555
O10 C10 1_555 1_555
C12 H11 1_555 1_555
C13 C11 1_555 1_555
C14 O10 1_555 1_555
H12 C13 1_555 1_555
H13 C14 1_555 1_555
H14 C14 1_555 1_555
C15 C14 1_555 1_555
O11 H15 1_555 1_555
H16 O11 1_555 1_555
O3B Pr1 1_555 1_555
Pr1B O3 1_555 1_555
C1C O7 1_555 1_555
O7C C1 1_555 1_555
O4B C4 1_555 1_555
O1C C1C 1_555 1_555
C2C C1C 1_555 1_555
Pr1C O7C 1_555 1_555
Pr1C_2 O1C 1_555 1_555
O2C C2C 1_555 1_555
H3C C2C 1_555 1_555
H4C C2C 1_555 1_555
O1C_2 Pr1C 1_555 1_555
O4C Pr1C 1_555 1_555
O2C_2 Pr1C 1_555 1_555
O5C Pr1C 1_555 1_555
O6C Pr1C 1_555 1_555
O3A Pr1C 1_555 1_555
O8C Pr1C 1_555 1_555
O3C Pr1C 1_555 1_555
C3C O2C 1_555 1_555
H1C O5C 1_555 1_555
H2C O5C 1_555 1_555
C6C C3C 1_555 1_555
C5C C3C 1_555 1_555
C9C C6C 1_555 1_555
H6C C6C 1_555 1_555
H5C C5C 1_555 1_555
C8C C5C 1_555 1_555
C13B C12 1_555 1_555
C12B C13 1_555 1_555
C10C C9C 1_555 1_555
H10C C9C 1_555 1_555
H9C C8C 1_555 1_555
C11B C13B 1_555 1_555
H12B C13B 1_555 1_555
H11B C12B 1_555 1_555
O8_2 C15 1_555 1_555
O6B C15 1_555 1_555
O10C C10C 1_555 1_555
O9B C11B 1_555 1_555
Pr1_2 O8_2 1_555 1_555
Pr1B_2 O6B 1_555 1_555
C14C O10C 1_555 1_555
C7B O9B 1_555 1_555
H14C C14C 1_555 1_555
C15C C14C 1_555 1_555
H13C C14C 1_555 1_555
H8B C7B 1_555 1_555
H7B C7B 1_555 1_555
C4B C7B 1_555 1_555
O6A C15C 1_555 1_555
O8C_2 C15C 1_555 1_555
O3_2 C4B 1_555 1_555
O4_2 C4B 1_555 1_555
Pr1A O6A 1_555 1_555
Pr1C_3 O8C_2 1_555 1_555
Pr1_3 O3_2 1_555 1_555
Pr1B_3 O3_2 1_555 1_555
C4 O3B 1_555 1_555
C9 C10 1_555 1_555
O3B Pr1B 1_555 1_555
Pr1B O4B 1_555 1_555
Pr1C_2 O2C 1_555 1_555
C8C C10C 1_555 1_555
C12B C11B 1_555 1_555
O4_2 Pr1_3 1_555 1_555

#END
