
#######################################################################
#
#                 Cambridge Crystallographic Data Centre
#                                CCDC 
#
#######################################################################
#
# If this CIF has been generated from an entry in the Cambridge 
# Structural Database, then it will include bibliographic, chemical, 
# crystal, experimental, refinement or atomic coordinate data resulting 
# from the CCDC's data processing and validation procedures.
#
#######################################################################

data_GIGXIF
_symmetry_cell_setting           triclinic
_symmetry_space_group_name_H-M   'P -1'
_symmetry_Int_Tables_number      2
_space_group_name_Hall           '-P 1'
loop_
_symmetry_equiv_pos_site_id
_symmetry_equiv_pos_as_xyz
1 x,y,z
2 -x,-y,-z
_cell_length_a                   8.3461(2)
_cell_length_b                   8.7744(2)
_cell_length_c                   10.9103(2)
_cell_angle_alpha                76.0230(10)
_cell_angle_beta                 80.5840(10)
_cell_angle_gamma                77.7340(10)
_cell_volume                     752.298
loop_
_atom_site_label
_atom_site_type_symbol
_atom_site_fract_x
_atom_site_fract_y
_atom_site_fract_z
Pb1 Pb 0.431524(14) 0.464183(12) 0.167823(9)
N1 N 0.3119(3) 0.4853(3) 0.4006(2)
N2 N 0.5654(3) 0.2416(3) 0.3531(2)
C1 C 0.1876(4) 0.5999(4) 0.4256(3)
C2 C 0.1137(4) 0.6100(4) 0.5495(3)
C3 C 0.1726(4) 0.4996(4) 0.6499(3)
C4 C 0.3078(4) 0.3778(4) 0.6290(3)
C5 C 0.3776(5) 0.2600(4) 0.7310(3)
C6 C 0.5072(5) 0.1435(4) 0.7071(3)
C7 C 0.5760(4) 0.1350(3) 0.5796(3)
C8 C 0.7117(4) 0.0159(4) 0.5505(3)
C9 C 0.7700(4) 0.0138(4) 0.4270(3)
C10 C 0.6922(4) 0.1274(3) 0.3306(3)
C11 C 0.5084(4) 0.2477(3) 0.4766(3)
C12 C 0.3727(4) 0.3738(3) 0.5015(3)
S1 S 0.08099(10) 0.04372(8) 0.14883(7)
O1 O 0.2383(3) 0.4214(2) -0.0022(2)
O2 O 0.2123(3) 0.3293(2) 0.20717(19)
O3 O 0.2387(3) -0.2743(2) 0.1341(2)
O4 O 0.4147(3) -0.2254(3) -0.0429(2)
C13 C 0.1723(4) 0.3430(3) 0.0958(3)
C14 C 0.0343(4) 0.2584(4) 0.0877(3)
C15 C 0.2432(4) -0.0039(4) 0.0244(3)
C16 C 0.3036(4) -0.1824(3) 0.0396(3)
H1 H 0.145(4) 0.674(4) 0.352(3)
H2 H 0.022(4) 0.688(4) 0.565(3)
H3 H 0.126(4) 0.506(4) 0.725(3)
H4 H 0.338(4) 0.276(3) 0.810(3)
H5 H 0.546(4) 0.068(4) 0.772(3)
H6 H 0.752(4) -0.056(4) 0.610(3)
H7 H 0.853(4) -0.058(4) 0.402(3)
H8 H 0.731(4) 0.118(4) 0.251(3)
H9 H -0.070(5) 0.296(4) 0.139(3)
H10 H 0.005(5) 0.277(4) -0.001(4)
H11 H 0.329(5) 0.039(4) 0.022(3)
H12 H 0.192(5) 0.049(4) -0.058(3)
Pb1_2 Pb 0.431524(14) -0.535817(12) 0.167823(9)
Pb1A Pb 0.568476(14) -0.464183(12) -0.167823(9)
O3_2 O 0.2387(3) 0.7257(2) 0.1341(2)
O4A O 0.5853(3) 0.2254(3) 0.0429(2)
loop_
_geom_bond_atom_site_label_1
_geom_bond_atom_site_label_2
_geom_bond_site_symmetry_1
_geom_bond_site_symmetry_2
Pb1 N1 1_555 1_555
N1 C1 1_555 1_555
N2 Pb1 1_555 1_555
C1 C2 1_555 1_555
C2 C3 1_555 1_555
C3 C4 1_555 1_555
C4 C5 1_555 1_555
C5 C6 1_555 1_555
C6 C7 1_555 1_555
C7 C8 1_555 1_555
C8 C9 1_555 1_555
C9 C10 1_555 1_555
C10 N2 1_555 1_555
C11 N2 1_555 1_555
C12 N1 1_555 1_555
S1 C14 1_555 1_555
O1 Pb1 1_555 1_555
O2 Pb1 1_555 1_555
O3 C16 1_555 1_555
O4 C16 1_555 1_555
C13 O1 1_555 1_555
C14 C13 1_555 1_555
C15 S1 1_555 1_555
C16 C15 1_555 1_555
H1 C1 1_555 1_555
H2 C2 1_555 1_555
H3 C3 1_555 1_555
H4 C5 1_555 1_555
H5 C6 1_555 1_555
H6 C8 1_555 1_555
H7 C9 1_555 1_555
H8 C10 1_555 1_555
H9 C14 1_555 1_555
H10 C14 1_555 1_555
H11 C15 1_555 1_555
H12 C15 1_555 1_555
Pb1_2 O3 1_555 1_555
Pb1A O4 1_555 1_555
O3_2 Pb1 1_555 1_555
O4A Pb1 1_555 1_555
C4 C12 1_555 1_555
C7 C11 1_555 1_555
C11 C12 1_555 1_555
O2 C13 1_555 1_555

#END
