
#######################################################################
#
#                 Cambridge Crystallographic Data Centre
#                                CCDC 
#
#######################################################################
#
# If this CIF has been generated from an entry in the Cambridge 
# Structural Database, then it will include bibliographic, chemical, 
# crystal, experimental, refinement or atomic coordinate data resulting 
# from the CCDC's data processing and validation procedures.
#
#######################################################################

data_GIGXEA
_symmetry_cell_setting           triclinic
_symmetry_space_group_name_H-M   'P -1'
_symmetry_Int_Tables_number      2
_space_group_name_Hall           '-P 1'
loop_
_symmetry_equiv_pos_site_id
_symmetry_equiv_pos_as_xyz
1 x,y,z
2 -x,-y,-z
_cell_length_a                   7.0584(16)
_cell_length_b                   8.4025(19)
_cell_length_c                   9.875(2)
_cell_angle_alpha                102.633(3)
_cell_angle_beta                 96.050(3)
_cell_angle_gamma                103.510(3)
_cell_volume                     548.066
loop_
_atom_site_label
_atom_site_type_symbol
_atom_site_fract_x
_atom_site_fract_y
_atom_site_fract_z
Cd1 Cd 0.25296(6) 0.96122(5) 1.07178(4)
I1 I 0.12264(5) 1.25617(5) 1.10555(4)
I2 I 0.31135(7) 0.81337(6) 1.28439(4)
C1 C 0.1724(11) 0.2298(9) 0.5226(7)
H1 H 0.1267 0.2389 0.4302
H2 H 0.0671 0.1605 0.5548
H3 H 0.2813 0.1795 0.5192
N1 N 0.3549(6) 0.7153(6) 0.8070(5)
C2 C 0.2630(9) 0.4203(8) 0.7651(6)
H4 H 0.2387 0.3249 0.8005
O1 O 0.4163(6) 0.8687(5) 0.8971(4)
C3 C 0.3308(9) 0.7026(8) 0.6688(6)
H5 H 0.3538 0.7997 0.6357
C4 C 0.3229(9) 0.5765(8) 0.8557(6)
H6 H 0.3418 0.5869 0.9522
C5 C 0.2719(9) 0.5459(9) 0.5757(6)
H7 H 0.2549 0.5384 0.4796
C6 C 0.2378(9) 0.4012(8) 0.6209(6)
Cd1A Cd -0.25296(6) 1.03878(5) 0.92822(4)
Cd1A_2 Cd 0.74704(6) 1.03878(5) 0.92822(4)
I1A I -0.12264(5) 0.74383(5) 0.89445(4)
O1A O 0.5837(6) 1.1313(5) 1.1029(4)
loop_
_geom_bond_atom_site_label_1
_geom_bond_atom_site_label_2
_geom_bond_site_symmetry_1
_geom_bond_site_symmetry_2
Cd1 I1 1_555 1_555
I1 Cd1A 1_555 1_555
I2 Cd1 1_555 1_555
C1 H1 1_555 1_555
H2 C1 1_555 1_555
H3 C1 1_555 1_555
N1 O1 1_555 1_555
C2 H4 1_555 1_555
O1 Cd1 1_555 1_555
C3 N1 1_555 1_555
H5 C3 1_555 1_555
C4 N1 1_555 1_555
H6 C4 1_555 1_555
C5 C3 1_555 1_555
H7 C5 1_555 1_555
C6 C1 1_555 1_555
Cd1A I1A 1_555 1_555
Cd1A_2 O1 1_555 1_555
I1A Cd1 1_555 1_555
O1A Cd1 1_555 1_555
C2 C4 1_555 1_555
C2 C6 1_555 1_555
C5 C6 1_555 1_555
Cd1A_2 O1A 1_555 1_555

#END
