
#######################################################################
#
#                 Cambridge Crystallographic Data Centre
#                                CCDC 
#
#######################################################################
#
# If this CIF has been generated from an entry in the Cambridge 
# Structural Database, then it will include bibliographic, chemical, 
# crystal, experimental, refinement or atomic coordinate data resulting 
# from the CCDC's data processing and validation procedures.
#
#######################################################################

data_GIGYUR
_symmetry_cell_setting           monoclinic
_symmetry_space_group_name_H-M   'P 21/c'
_symmetry_Int_Tables_number      14
_space_group_name_Hall           '-P 2ybc'
loop_
_symmetry_equiv_pos_site_id
_symmetry_equiv_pos_as_xyz
1 x,y,z
2 -x,1/2+y,1/2-z
3 -x,-y,-z
4 x,1/2-y,1/2+z
_cell_length_a                   8.9232(9)
_cell_length_b                   10.6901(10)
_cell_length_c                   8.8887(9)
_cell_angle_alpha                90
_cell_angle_beta                 90.378(3)
_cell_angle_gamma                90
_cell_volume                     847.874
loop_
_atom_site_label
_atom_site_type_symbol
_atom_site_fract_x
_atom_site_fract_y
_atom_site_fract_z
Ni1 Ni 0.0000 0.0000 0.0000
S1 S -0.4314(2) -0.1649(2) 0.4472(2)
O1 O -0.1339(6) -0.0028(6) 0.1907(7)
O2 O -0.1949(7) -0.2052(6) 0.2088(7)
O3 O 0.0489(7) 0.1845(6) 0.0462(7)
N1 N -0.8107(8) -0.0633(7) 0.1246(8)
C1 C -0.6812(9) 0.0012(9) 0.1215(9)
H1 H -0.6737 0.0683 0.0555
C2 C -0.5567(10) -0.0276(9) 0.2126(11)
H2 H -0.4683 0.0179 0.2049
C3 C -0.5688(9) -0.1255(8) 0.3141(10)
C4 C -0.6986(10) -0.1952(9) 0.3123(10)
H3 H -0.7076 -0.2647 0.3745
C5 C -0.8153(10) -0.1616(9) 0.2178(10)
H4 H -0.9020 -0.2100 0.2189
C6 C -0.2782(10) -0.0638(9) 0.4016(10)
H5 H -0.3158 0.0212 0.3952
H6 H -0.2061 -0.0665 0.4838
C7 C -0.1959(9) -0.0940(8) 0.2550(9)
H7 H 0.110(7) 0.201(8) -0.025(6)
H8 H 0.100(11) 0.202(11) 0.124(8)
Ni1_2 Ni -1.0000 0.0000 0.0000
Ni1_3 Ni 1.0000 0.0000 0.0000
S1B S 0.4314(2) 0.1649(2) -0.4472(2)
O1B O 0.1339(6) 0.0028(6) -0.1907(7)
O2B O 0.1949(7) 0.2052(6) -0.2088(7)
O3B O -0.0489(7) -0.1845(6) -0.0462(7)
N1B N 0.8107(8) 0.0633(7) -0.1246(8)
N1_2 N 0.1893(8) -0.0633(7) 0.1246(8)
N1B_2 N -0.1893(8) 0.0633(7) -0.1246(8)
C1B C 0.6812(9) -0.0012(9) -0.1215(9)
H1B H 0.6737 -0.0683 -0.0555
C2B C 0.5567(10) 0.0276(9) -0.2126(11)
H2B H 0.4683 -0.0179 -0.2049
C3B C 0.5688(9) 0.1255(8) -0.3141(10)
C4B C 0.6986(10) 0.1952(9) -0.3123(10)
H3B H 0.7076 0.2647 -0.3745
C5B C 0.8153(10) 0.1616(9) -0.2178(10)
H4B H 0.9020 0.2100 -0.2189
C6B C 0.2782(10) 0.0638(9) -0.4016(10)
H5B H 0.3158 -0.0212 -0.3952
H6B H 0.2061 0.0665 -0.4838
C7B C 0.1959(9) 0.0940(8) -0.2550(9)
H7B H -0.110(7) -0.201(8) 0.025(6)
H8B H -0.100(11) -0.202(11) -0.124(8)
loop_
_geom_bond_atom_site_label_1
_geom_bond_atom_site_label_2
_geom_bond_site_symmetry_1
_geom_bond_site_symmetry_2
Ni1 O1 1_555 1_555
S1 C3 1_555 1_555
O1 C7 1_555 1_555
O2 C7 1_555 1_555
O3 Ni1 1_555 1_555
N1 C1 1_555 1_555
C1 H1 1_555 1_555
C2 C1 1_555 1_555
H2 C2 1_555 1_555
C3 C2 1_555 1_555
C4 C3 1_555 1_555
H3 C4 1_555 1_555
C5 N1 1_555 1_555
H4 C5 1_555 1_555
C6 S1 1_555 1_555
H5 C6 1_555 1_555
H6 C6 1_555 1_555
C7 C6 1_555 1_555
H7 O3 1_555 1_555
H8 O3 1_555 1_555
Ni1_2 N1 1_555 1_555
Ni1_3 N1B 1_555 1_555
S1B C3B 1_555 1_555
O1B Ni1 1_555 1_555
O2B C7B 1_555 1_555
O3B Ni1 1_555 1_555
N1B C1B 1_555 1_555
N1_2 Ni1 1_555 1_555
N1B_2 Ni1 1_555 1_555
C1B H1B 1_555 1_555
C2B C1B 1_555 1_555
H2B C2B 1_555 1_555
C3B C2B 1_555 1_555
C4B C3B 1_555 1_555
H3B C4B 1_555 1_555
C5B N1B 1_555 1_555
H4B C5B 1_555 1_555
C6B S1B 1_555 1_555
H5B C6B 1_555 1_555
H6B C6B 1_555 1_555
C7B O1B 1_555 1_555
H7B O3B 1_555 1_555
H8B O3B 1_555 1_555
C4 C5 1_555 1_555
C4B C5B 1_555 1_555
C6B C7B 1_555 1_555

#END
