
#######################################################################
#
#                 Cambridge Crystallographic Data Centre
#                                CCDC 
#
#######################################################################
#
# If this CIF has been generated from an entry in the Cambridge 
# Structural Database, then it will include bibliographic, chemical, 
# crystal, experimental, refinement or atomic coordinate data resulting 
# from the CCDC's data processing and validation procedures.
#
#######################################################################

data_GIGZEC
_symmetry_cell_setting           monoclinic
_symmetry_space_group_name_H-M   'C c'
_symmetry_Int_Tables_number      9
_space_group_name_Hall           'C -2yc'
loop_
_symmetry_equiv_pos_site_id
_symmetry_equiv_pos_as_xyz
1 x,y,z
2 x,-y,1/2+z
3 1/2+x,1/2+y,z
4 1/2+x,1/2-y,1/2+z
_cell_length_a                   13.179(3)
_cell_length_b                   11.897(2)
_cell_length_c                   12.314(3)
_cell_angle_alpha                90
_cell_angle_beta                 96.03(3)
_cell_angle_gamma                90
_cell_volume                     1920.04
loop_
_atom_site_label
_atom_site_type_symbol
_atom_site_fract_x
_atom_site_fract_y
_atom_site_fract_z
C1 C 0.19772(16) 0.23174(15) 0.28646(19)
C2 C 0.30024(17) 0.25386(14) 0.2433(2)
H1 H 0.2942 0.3261 0.2050
C3 C 0.38580(18) 0.26687(17) 0.3369(2)
H2 H 0.3637 0.3182 0.3909
H3 H 0.4453 0.2993 0.3086
C4 C 0.41519(17) 0.15402(17) 0.39159(18)
H4 H 0.4715 0.1651 0.4479
H5 H 0.3578 0.1247 0.4260
C5 C 0.44610(15) 0.06954(15) 0.30770(16)
H6 H 0.5051 0.1011 0.2762
C6 C 0.36148(17) 0.05469(16) 0.21444(17)
H7 H 0.3029 0.0197 0.2422
H8 H 0.3850 0.0052 0.1598
C7 C 0.32944(18) 0.16732(18) 0.16160(17)
H9 H 0.3853 0.1966 0.1246
H10 H 0.2718 0.1552 0.1071
C8 C 0.47826(14) -0.04401(15) 0.35574(16)
C9 C 0.10618(19) 0.22595(19) 0.6122(2)
H11 H 0.1056 0.3037 0.6201
C10 C 0.1344(2) 0.1525(2) 0.69177(18)
H12 H 0.1569 0.1691 0.7641
C11 C 0.09062(17) 0.06032(17) 0.54026(17)
C12 C 0.0745(3) -0.0340(2) 0.4619(2)
H13 H 0.0586 -0.1010 0.5002
H14 H 0.1354 -0.0458 0.4270
H15 H 0.0190 -0.0162 0.4078
C13 C -0.15859(19) 0.1245(2) 0.43684(19)
H16 H -0.1426 0.1338 0.5117
C14 C -0.23970(19) 0.0679(2) 0.3894(2)
H17 H -0.2896 0.0317 0.4246
C15 C -0.15176(16) 0.13368(17) 0.26216(17)
C16 C -0.1217(2) 0.1605(3) 0.15148(18)
H18 H -0.1682 0.1248 0.0969
H19 H -0.0538 0.1336 0.1459
H20 H -0.1238 0.2404 0.1405
N1 N 0.07791(14) 0.16816(14) 0.51644(14)
N2 N 0.12344(16) 0.04764(15) 0.64560(15)
H21 H 0.1356 -0.0153 0.6788
N3 N -0.10236(13) 0.16677(14) 0.35673(14)
N4 N -0.23445(14) 0.07396(16) 0.28022(16)
H22 H -0.2772 0.0444 0.2308
O1 O 0.13847(12) 0.15720(12) 0.24666(14)
O2 O 0.17380(11) 0.29511(12) 0.36217(13)
O4 O 0.48379(11) -0.12457(11) 0.28814(11)
O5 O 0.49861(13) -0.05853(13) 0.45594(12)
Cu1 Cu 0.03143(3) 0.246810(16) 0.37949(3)
O4B O -0.01621(11) 0.37543(11) 0.28814(11)
Cu1B Cu 0.53143(3) -0.253190(16) 0.37949(3)
O3 O 0.61751(13) 0.03906(15) 0.63232(14)
H23 H 0.5812(18) 0.015(2) 0.5807(15)
H24 H 0.5816(18) 0.0736(19) 0.6717(17)
loop_
_geom_bond_atom_site_label_1
_geom_bond_atom_site_label_2
_geom_bond_site_symmetry_1
_geom_bond_site_symmetry_2
C1 C2 1_555 1_555
C2 H1 1_555 1_555
C3 C2 1_555 1_555
H2 C3 1_555 1_555
H3 C3 1_555 1_555
C4 C3 1_555 1_555
H4 C4 1_555 1_555
H5 C4 1_555 1_555
C5 C4 1_555 1_555
H6 C5 1_555 1_555
C6 C5 1_555 1_555
H7 C6 1_555 1_555
H8 C6 1_555 1_555
C7 C2 1_555 1_555
H9 C7 1_555 1_555
H10 C7 1_555 1_555
C8 C5 1_555 1_555
C9 H11 1_555 1_555
C10 C9 1_555 1_555
H12 C10 1_555 1_555
C11 C12 1_555 1_555
C12 H13 1_555 1_555
H14 C12 1_555 1_555
H15 C12 1_555 1_555
C13 H16 1_555 1_555
C14 C13 1_555 1_555
H17 C14 1_555 1_555
C15 C16 1_555 1_555
C16 H18 1_555 1_555
H19 C16 1_555 1_555
H20 C16 1_555 1_555
N1 C9 1_555 1_555
N2 C10 1_555 1_555
H21 N2 1_555 1_555
N3 C13 1_555 1_555
N4 C14 1_555 1_555
H22 N4 1_555 1_555
O1 C1 1_555 1_555
O2 C1 1_555 1_555
O3 H23 1_555 1_555
O4 C8 1_555 1_555
O5 C8 1_555 1_555
Cu1 N1 1_555 1_555
H24 O3 1_555 1_555
O4B Cu1 1_555 1_555
Cu1B O4 1_555 1_555
C6 C7 1_555 1_555
C11 N1 1_555 1_555
C11 N2 1_555 1_555
C15 N3 1_555 1_555
C15 N4 1_555 1_555
N3 Cu1 1_555 1_555
O2 Cu1 1_555 1_555

#END
