
#######################################################################
#
#                 Cambridge Crystallographic Data Centre
#                                CCDC 
#
#######################################################################
#
# If this CIF has been generated from an entry in the Cambridge 
# Structural Database, then it will include bibliographic, chemical, 
# crystal, experimental, refinement or atomic coordinate data resulting 
# from the CCDC's data processing and validation procedures.
#
#######################################################################

data_GIHBEF
_symmetry_cell_setting           monoclinic
_symmetry_space_group_name_H-M   'P 2/n'
_symmetry_Int_Tables_number      13
_space_group_name_Hall           '-P 2yac'
loop_
_symmetry_equiv_pos_site_id
_symmetry_equiv_pos_as_xyz
1 x,y,z
2 1/2-x,y,1/2-z
3 -x,-y,-z
4 1/2+x,-y,1/2+z
_cell_length_a                   11.6900(3)
_cell_length_b                   6.1510(2)
_cell_length_c                   22.5184(6)
_cell_angle_alpha                90
_cell_angle_beta                 102.369(2)
_cell_angle_gamma                90
_cell_volume                     1581.61
loop_
_atom_site_label
_atom_site_type_symbol
_atom_site_fract_x
_atom_site_fract_y
_atom_site_fract_z
C1 C 0.7981(2) 0.7343(5) 0.86400(12)
C2 C 0.8244(2) 0.8210(5) 0.92758(12)
C3 C 0.7973(3) 1.0318(5) 0.93992(14)
H1 H 0.7643 1.1241 0.9081
C4 C 0.8186(3) 1.1078(6) 0.99910(15)
H2 H 0.7979 1.2489 1.0073
C5 C 0.8706(3) 0.9728(6) 1.04552(14)
C6 C 0.8995(3) 0.7654(6) 1.03456(14)
H3 H 0.9350 0.6756 1.0664
C7 C 0.8755(3) 0.6890(5) 0.97564(13)
H4 H 0.8942 0.5461 0.9681
C8 C 0.5015(2) 0.7563(5) 0.76962(13)
H5 H 0.5481 0.8737 0.7858
C9 C 0.3844(2) 0.7609(5) 0.77142(13)
H6 H 0.3534 0.8803 0.7878
C10 C 0.3131(2) 0.5870(5) 0.74867(12)
C11 C 0.3641(2) 0.4174(5) 0.72347(14)
H7 H 0.3195 0.2978 0.7072
C12 C 0.4821(2) 0.4272(5) 0.72261(14)
H8 H 0.5146 0.3127 0.7049
Cl1 Cl 0.90101(10) 1.0741(2) 1.11973(4)
Mn1 Mn 0.7500 0.58733(9) 0.7500
N1 N 0.55156(17) 0.5918(4) 0.74588(10)
O1 O 0.77094(16) 0.8643(3) 0.81989(8)
O2 O 0.80153(18) 0.5331(3) 0.85538(9)
O3 O 0.7500 0.2327(5) 0.7500
H13 H 0.739(3) 0.153(5) 0.7201(14)
C1A C 0.7019(2) 0.7343(5) 0.63600(12)
C2A C 0.6756(2) 0.8210(5) 0.57242(12)
C3A C 0.7027(3) 1.0318(5) 0.56008(14)
H1A H 0.7357 1.1241 0.5919
C4A C 0.6814(3) 1.1078(6) 0.50090(15)
H2A H 0.7021 1.2489 0.4927
C5A C 0.6294(3) 0.9728(6) 0.45448(14)
C6A C 0.6005(3) 0.7654(6) 0.46544(14)
H3A H 0.5650 0.6756 0.4336
C7A C 0.6245(3) 0.6890(5) 0.52436(13)
H4A H 0.6058 0.5461 0.5319
C8A C -0.0015(2) 0.7563(5) 0.73038(13)
H5A H -0.0481 0.8737 0.7142
C9A C 0.1156(2) 0.7609(5) 0.72858(13)
H6A H 0.1466 0.8803 0.7122
C10A C 0.1869(2) 0.5870(5) 0.75133(12)
C11A C 0.1359(2) 0.4174(5) 0.77653(14)
H7A H 0.1805 0.2978 0.7928
C12A C 0.0179(2) 0.4272(5) 0.77739(14)
H8A H -0.0146 0.3127 0.7951
Cl1A Cl 0.59899(10) 1.0741(2) 0.38027(4)
Mn1_2 Mn -0.2500 0.58733(9) 0.7500
N1A N -0.05156(17) 0.5918(4) 0.75412(10)
N1A_2 N 0.94844(17) 0.5918(4) 0.75412(10)
O1A O 0.72906(16) 0.8643(3) 0.68011(8)
O2A O 0.69847(18) 0.5331(3) 0.64462(9)
H13A H 0.761(3) 0.153(5) 0.7799(14)
C13 C 0.4107(5) 0.1163(10) 0.9169(3)
H9 H 0.3605 -0.0024 0.9138
C14 C 0.4212(5) 0.2464(10) 0.9674(3)
H10 H 0.3802 0.2129 0.9973
C15 C 0.4926(3) 0.4267(6) 0.97334(16)
C16 C 0.5512(3) 0.4561(6) 0.92726(16)
H11 H 0.6021 0.5732 0.9287
C17 C 0.5357(4) 0.3148(7) 0.87917(17)
H12 H 0.5775 0.3405 0.8491
N2 N 0.4661(3) 0.1464(6) 0.87269(16)
C13B C 0.5893(5) 0.8837(10) 1.0831(3)
H9B H 0.6395 1.0024 1.0862
C14B C 0.5788(5) 0.7536(10) 1.0326(3)
H10B H 0.6198 0.7871 1.0027
C15B C 0.5074(3) 0.5733(6) 1.02666(16)
C16B C 0.4488(3) 0.5439(6) 1.07274(16)
H11B H 0.3979 0.4268 1.0713
C17B C 0.4643(4) 0.6852(7) 1.12083(17)
H12B H 0.4225 0.6595 1.1509
N2B N 0.5339(3) 0.8536(6) 1.12731(16)
loop_
_geom_bond_atom_site_label_1
_geom_bond_atom_site_label_2
_geom_bond_site_symmetry_1
_geom_bond_site_symmetry_2
C1 C2 1_555 1_555
C2 C3 1_555 1_555
C3 H1 1_555 1_555
C4 C3 1_555 1_555
H2 C4 1_555 1_555
C5 C4 1_555 1_555
C6 C5 1_555 1_555
H3 C6 1_555 1_555
C7 C2 1_555 1_555
H4 C7 1_555 1_555
C8 H5 1_555 1_555
C9 C8 1_555 1_555
H6 C9 1_555 1_555
C10 C9 1_555 1_555
C11 C10 1_555 1_555
H7 C11 1_555 1_555
C12 C11 1_555 1_555
H8 C12 1_555 1_555
C13 H9 1_555 1_555
C14 C13 1_555 1_555
H10 C14 1_555 1_555
C15 C14 1_555 1_555
C16 C15 1_555 1_555
H11 C16 1_555 1_555
C17 C16 1_555 1_555
H12 C17 1_555 1_555
Cl1 C5 1_555 1_555
Mn1 N1 1_555 1_555
N1 C8 1_555 1_555
N2 C13 1_555 1_555
O1 C1 1_555 1_555
O2 C1 1_555 1_555
O3 Mn1 1_555 1_555
H13 O3 1_555 1_555
C1A C2A 1_555 1_555
C2A C3A 1_555 1_555
C3A H1A 1_555 1_555
C4A C3A 1_555 1_555
H2A C4A 1_555 1_555
C5A C4A 1_555 1_555
C6A C5A 1_555 1_555
H3A C6A 1_555 1_555
C7A C2A 1_555 1_555
H4A C7A 1_555 1_555
C8A H5A 1_555 1_555
C9A C8A 1_555 1_555
H6A C9A 1_555 1_555
C10A C10 1_555 1_555
C11A C10A 1_555 1_555
H7A C11A 1_555 1_555
C12A C11A 1_555 1_555
H8A C12A 1_555 1_555
C13B H9B 1_555 1_555
C14B C13B 1_555 1_555
H10B C14B 1_555 1_555
C15B C15 1_555 1_555
C16B C15B 1_555 1_555
H11B C16B 1_555 1_555
C17B C16B 1_555 1_555
H12B C17B 1_555 1_555
Cl1A C5A 1_555 1_555
Mn1_2 N1A 1_555 1_555
N1A C8A 1_555 1_555
N1A_2 Mn1 1_555 1_555
N2B C13B 1_555 1_555
O1A Mn1 1_555 1_555
O2A Mn1 1_555 1_555
H13A O3 1_555 1_555
C6 C7 1_555 1_555
C12 N1 1_555 1_555
C17 N2 1_555 1_555
Mn1 O1 1_555 1_555
Mn1 O2 1_555 1_555
C1A O1A 1_555 1_555
C1A O2A 1_555 1_555
C6A C7A 1_555 1_555
C9A C10A 1_555 1_555
C12A N1A 1_555 1_555
C14B C15B 1_555 1_555
C17B N2B 1_555 1_555

#END
