
#######################################################################
#
#                 Cambridge Crystallographic Data Centre
#                                CCDC 
#
#######################################################################
#
# If this CIF has been generated from an entry in the Cambridge 
# Structural Database, then it will include bibliographic, chemical, 
# crystal, experimental, refinement or atomic coordinate data resulting 
# from the CCDC's data processing and validation procedures.
#
#######################################################################

data_GIHKEO
_symmetry_cell_setting           monoclinic
_symmetry_space_group_name_H-M   'C 2'
_symmetry_Int_Tables_number      5
_space_group_name_Hall           'C 2y'
loop_
_symmetry_equiv_pos_site_id
_symmetry_equiv_pos_as_xyz
1 x,y,z
2 -x,y,-z
3 1/2+x,1/2+y,z
4 1/2-x,1/2+y,-z
_cell_length_a                   10.521(3)
_cell_length_b                   6.760(2)
_cell_length_c                   14.853(4)
_cell_angle_alpha                90
_cell_angle_beta                 103.97(2)
_cell_angle_gamma                90
_cell_volume                     1025.13
loop_
_atom_site_label
_atom_site_type_symbol
_atom_site_fract_x
_atom_site_fract_y
_atom_site_fract_z
C1 C 0.3171(4) -0.2946(7) 0.2212(3)
C2 C 0.4260(6) -0.3278(13) 0.1867(3)
H1 H 0.5085 -0.2909 0.2213
C3 C 0.4128(10) -0.4154(11) 0.1011(5)
H2 H 0.4862 -0.4355 0.0777
C4 C 0.2953(12) -0.4710(12) 0.0518(5)
H3 H 0.2869 -0.5257 -0.0068
C5 C 0.1873(11) -0.4492(15) 0.0859(6)
H4 H 0.107 -0.4974 0.0524
C6 C 0.1962(6) -0.3527(11) 0.1726(4)
H5 H 0.1222 -0.3305 0.1951
S1 S 0.34086(9) -0.18725(15) 0.33360(7)
O1 O 0.4150(3) -0.3297(6) 0.39966(19)
O2 O 0.2112(3) -0.1434(6) 0.3454(2)
O3 O 0.50000 -0.7381(7) 0.50000
H6 H 0.505(5) -0.822(6) 0.543(3)
O4 O 0.6974(3) -0.1462(5) 0.4176(2)
H7 H 0.742(4) -0.152(9) 0.377(2)
H8 H 0.630(3) -0.079(8) 0.393(3)
N1 N 0.4361(4) -0.0051(5) 0.3388(3)
Br1 Br 0.36056(5) 0.18675(6) 0.24930(3)
Na1 Na 0.63738(16) -0.4729(3) 0.46276(12)
C1A C 0.6829(4) -0.2946(7) 0.7788(3)
C2A C 0.5740(6) -0.3278(13) 0.8133(3)
H1A H 0.4915 -0.2909 0.7787
C3A C 0.5872(10) -0.4154(11) 0.8989(5)
H2A H 0.5138 -0.4355 0.9223
C4A C 0.7047(12) -0.4710(12) 0.9482(5)
H3A H 0.7131 -0.5257 1.0068
C5A C 0.8127(11) -0.4492(15) 0.9141(6)
H4A H 0.893 -0.4974 0.9476
C6A C 0.8038(6) -0.3527(11) 0.8274(4)
H5A H 0.8778 -0.3305 0.8049
S1A S 0.65914(9) -0.18725(15) 0.66640(7)
O1A O 0.5850(3) -0.3297(6) 0.60034(19)
O2A O 0.7888(3) -0.1434(6) 0.6546(2)
O2B O 0.7112(3) -0.6434(6) 0.3454(2)
O2C O 0.2888(3) -0.6434(6) 0.6546(2)
H6A H 0.495(5) -0.822(6) 0.457(3)
O4C O 0.8026(3) -0.6462(5) 0.5824(2)
O4B O 0.1974(3) -0.6462(5) 0.4176(2)
O4A O 0.3026(3) -0.1462(5) 0.5824(2)
H7C H 0.758(4) -0.652(9) 0.623(2)
H7B H 0.242(4) -0.652(9) 0.377(2)
H7A H 0.258(4) -0.152(9) 0.623(2)
H8C H 0.870(3) -0.579(8) 0.607(3)
H8B H 0.130(3) -0.579(8) 0.393(3)
H8A H 0.370(3) -0.079(8) 0.607(3)
N1A N 0.5639(4) -0.0051(5) 0.6612(3)
Br1A Br 0.63944(5) 0.18675(6) 0.75070(3)
Na1A Na 0.36262(16) -0.4729(3) 0.53724(12)
Na1B Na 0.13738(16) 0.0271(3) 0.46276(12)
Na1C Na 0.86262(16) 0.0271(3) 0.53724(12)
loop_
_geom_bond_atom_site_label_1
_geom_bond_atom_site_label_2
_geom_bond_site_symmetry_1
_geom_bond_site_symmetry_2
C1 C2 1_555 1_555
C2 H1 1_555 1_555
C3 C2 1_555 1_555
H2 C3 1_555 1_555
C4 C3 1_555 1_555
H3 C4 1_555 1_555
C5 C4 1_555 1_555
H4 C5 1_555 1_555
C6 C1 1_555 1_555
H5 C6 1_555 1_555
S1 C1 1_555 1_555
O1 S1 1_555 1_555
O2 S1 1_555 1_555
O3 H6 1_555 1_555
O4 H7 1_555 1_555
H8 O4 1_555 1_555
N1 S1 1_555 1_555
Br1 N1 1_555 1_555
Na1 O1 1_555 1_555
C1A C2A 1_555 1_555
C2A H1A 1_555 1_555
C3A C2A 1_555 1_555
H2A C3A 1_555 1_555
C4A C3A 1_555 1_555
H3A C4A 1_555 1_555
C5A C4A 1_555 1_555
H4A C5A 1_555 1_555
C6A C1A 1_555 1_555
H5A C6A 1_555 1_555
S1A C1A 1_555 1_555
O1A Na1 1_555 1_555
O2A S1A 1_555 1_555
O2B Na1 1_555 1_555
O2C Na1A 1_555 1_555
H6A O3 1_555 1_555
O4C Na1 1_555 1_555
O4B H7B 1_555 1_555
O4A H7A 1_555 1_555
H7C O4C 1_555 1_555
H8C O4C 1_555 1_555
H8B O4B 1_555 1_555
H8A O4A 1_555 1_555
N1A S1A 1_555 1_555
Br1A N1A 1_555 1_555
Na1A O1 1_555 1_555
Na1B O2 1_555 1_555
Na1C O4 1_555 1_555
C5 C6 1_555 1_555
O3 Na1 1_555 1_555
O3 Na1A 1_555 1_555
O4 Na1 1_555 1_555
C5A C6A 1_555 1_555
S1A O1A 1_555 1_555
O1A Na1A 1_555 1_555
O2A Na1C 1_555 1_555
O4B Na1A 1_555 1_555
O4A Na1A 1_555 1_555
O4A Na1B 1_555 1_555

#END
