
#######################################################################
#
#                 Cambridge Crystallographic Data Centre
#                                CCDC 
#
#######################################################################
#
# If this CIF has been generated from an entry in the Cambridge 
# Structural Database, then it will include bibliographic, chemical, 
# crystal, experimental, refinement or atomic coordinate data resulting 
# from the CCDC's data processing and validation procedures.
#
#######################################################################

data_GIHQOE
_symmetry_cell_setting           monoclinic
_symmetry_space_group_name_H-M   'C 2/c'
_symmetry_Int_Tables_number      15
_space_group_name_Hall           '-C 2yn'
loop_
_symmetry_equiv_pos_site_id
_symmetry_equiv_pos_as_xyz
1 x,y,z
2 1/2+x,1/2+y,z
3 -x,y,1/2-z
4 1/2-x,1/2+y,1/2-z
5 -x,-y,-z
6 1/2-x,1/2-y,-z
7 x,-y,1/2+z
8 1/2+x,1/2-y,1/2+z
_cell_length_a                   13.212(3)
_cell_length_b                   28.434(6)
_cell_length_c                   13.180(3)
_cell_angle_alpha                90
_cell_angle_beta                 98.92(3)
_cell_angle_gamma                90
_cell_volume                     4891.45
loop_
_atom_site_label
_atom_site_type_symbol
_atom_site_fract_x
_atom_site_fract_y
_atom_site_fract_z
W1 W 0.5000 -0.090357(4) 0.2500
Mn1 Mn 0.70963(3) -0.056990(12) 0.62101(3)
O1 O 0.74041(14) -0.07174(6) 0.79230(13)
H1 H 0.7749 -0.0957 0.8123
N1 N 0.36652(18) -0.18227(7) 0.14766(17)
N2 N 0.65353(17) -0.05657(7) 0.45883(16)
N3 N 0.35668(17) -0.12553(7) 0.42198(16)
N4 N 0.38121(17) 0.00151(7) 0.33297(16)
N5 N 0.66211(16) -0.13670(7) 0.60790(15)
N6 N 0.84839(16) -0.10157(7) 0.62258(15)
N7 N 0.85355(16) -0.00935(7) 0.61610(15)
N8 N 1.02707(16) -0.10782(7) 0.62976(15)
N9 N 0.92337(16) -0.17680(7) 0.62484(15)
N10 N 1.19570(16) -0.16208(7) 0.63657(16)
C1 C 0.41439(19) -0.15094(8) 0.18353(18)
C2 C 0.60205(19) -0.06781(8) 0.38442(18)
C3 C 0.40696(19) -0.11325(8) 0.36254(18)
C4 C 0.42135(19) -0.03031(8) 0.30218(18)
C5 C 0.5660(2) -0.15281(9) 0.58977(19)
H3 H 0.5112 -0.1309 0.5852
C6 C 0.5429(2) -0.20040(9) 0.5773(2)
H4 H 0.4736 -0.2105 0.5642
C7 C 0.6215(2) -0.23277(9) 0.58425(19)
H5 H 0.6070 -0.2654 0.5767
C8 C 0.72222(19) -0.21685(8) 0.60239(18)
H6 H 0.7780 -0.2383 0.6083
C9 C 0.73865(18) -0.16873(8) 0.61154(17)
C10 C 0.84260(19) -0.14848(8) 0.62102(17)
C11 C 0.9412(2) -0.08306(8) 0.62643(18)
C12 C 0.94585(19) -0.03072(8) 0.62432(17)
C13 C 1.0373(2) -0.00682(8) 0.62791(18)
H7 H 1.1007 -0.0232 0.6367
C14 C 1.0340(2) 0.04201(9) 0.61834(19)
H8 H 1.0951 0.0597 0.6193
C15 C 0.9398(2) 0.06409(9) 0.60742(19)
H9 H 0.9355 0.0973 0.5996
C16 C 0.8516(2) 0.03760(9) 0.60794(18)
H10 H 0.7876 0.0534 0.6023
C17 C 1.01355(18) -0.15472(8) 0.62897(17)
C18 C 1.10564(19) -0.18500(8) 0.63262(18)
C19 C 1.09738(19) -0.23363(9) 0.63256(19)
H11 H 1.0329 -0.2484 0.6324
C20 C 1.1857(2) -0.26023(9) 0.63279(19)
H12 H 1.1827 -0.2936 0.6321
C21 C 1.2776(2) -0.23720(9) 0.63403(19)
H13 H 1.3389 -0.2545 0.6332
C22 C 1.2794(2) -0.18831(9) 0.6365(2)
H14 H 1.3434 -0.1728 0.6381
C23 C 0.6713(2) -0.06120(10) 0.8633(2)
H15 H 0.6005 -0.0653 0.8291
H16 H 0.6846 -0.0825 0.9223
H17 H 0.6816 -0.0286 0.8870
Mn1B Mn 0.29037(3) -0.056990(12) -0.12101(3)
Mn1D Mn 0.29037(3) 0.056990(12) 0.37899(3)
Mn1F Mn 0.70963(3) 0.056990(12) 0.12101(3)
O1B O 0.25959(14) -0.07174(6) -0.29230(13)
H1B H 0.2251 -0.0957 -0.3123
N1B N 0.63348(18) -0.18227(7) 0.35234(17)
N2B N 0.34647(17) -0.05657(7) 0.04117(16)
N3B N 0.64332(17) -0.12553(7) 0.07802(16)
N4B N 0.61879(17) 0.00151(7) 0.16703(16)
N4D N 0.61879(17) -0.00151(7) 0.66703(16)
N4F N 0.38121(17) -0.00151(7) -0.16703(16)
N5B N 0.33789(16) -0.13670(7) -0.10790(15)
N6B N 0.15161(16) -0.10157(7) -0.12258(15)
N7B N 0.14645(16) -0.00935(7) -0.11610(15)
N8B N -0.02707(16) -0.10782(7) -0.12976(15)
N9B N 0.07663(16) -0.17680(7) -0.12484(15)
N10B N -0.19570(16) -0.16208(7) -0.13657(16)
C1B C 0.58561(19) -0.15094(8) 0.31647(18)
C2B C 0.39795(19) -0.06781(8) 0.11558(18)
C3B C 0.59304(19) -0.11325(8) 0.13746(18)
C4B C 0.57865(19) -0.03031(8) 0.19782(18)
C5B C 0.4340(2) -0.15281(9) -0.08977(19)
H3B H 0.4888 -0.1309 -0.0852
C6B C 0.4571(2) -0.20040(9) -0.0773(2)
H4B H 0.5264 -0.2105 -0.0642
C7B C 0.3785(2) -0.23277(9) -0.08425(19)
H5B H 0.3930 -0.2654 -0.0767
C8B C 0.27778(19) -0.21685(8) -0.10239(18)
H6B H 0.2220 -0.2383 -0.1083
C9B C 0.26135(18) -0.16873(8) -0.11154(17)
C10B C 0.15740(19) -0.14848(8) -0.12102(17)
C11B C 0.0588(2) -0.08306(8) -0.12643(18)
C12B C 0.05415(19) -0.03072(8) -0.12432(17)
C13B C -0.0373(2) -0.00682(8) -0.12791(18)
H7B H -0.1007 -0.0232 -0.1367
C14B C -0.0340(2) 0.04201(9) -0.11834(19)
H8B H -0.0951 0.0597 -0.1193
C15B C 0.0602(2) 0.06409(9) -0.10742(19)
H9B H 0.0645 0.0973 -0.0996
C16B C 0.1484(2) 0.03760(9) -0.10794(18)
H10B H 0.2124 0.0534 -0.1023
C17B C -0.01355(18) -0.15472(8) -0.12897(17)
C18B C -0.10564(19) -0.18500(8) -0.13262(18)
C19B C -0.09738(19) -0.23363(9) -0.13256(19)
H11B H -0.0329 -0.2484 -0.1324
C20B C -0.1857(2) -0.26023(9) -0.13279(19)
H12B H -0.1827 -0.2936 -0.1321
C21B C -0.2776(2) -0.23720(9) -0.13403(19)
H13B H -0.3389 -0.2545 -0.1332
C22B C -0.2794(2) -0.18831(9) -0.1365(2)
H14B H -0.3434 -0.1728 -0.1381
C23B C 0.3287(2) -0.06120(10) -0.3633(2)
H15B H 0.3995 -0.0653 -0.3291
H16B H 0.3154 -0.0825 -0.4223
H17B H 0.3184 -0.0286 -0.3870
O2 O 0.15532(16) 0.14718(8) 0.60668(15)
H2 H 0.2157 0.1549 0.6015
C24 C 0.1408(3) 0.15056(12) 0.7103(2)
H18 H 0.1942 0.1326 0.7536
H19 H 0.0734 0.1378 0.7177
H20 H 0.1446 0.1836 0.7316
loop_
_geom_bond_atom_site_label_1
_geom_bond_atom_site_label_2
_geom_bond_site_symmetry_1
_geom_bond_site_symmetry_2
W1 C1 1_555 1_555
Mn1 O1 1_555 1_555
O1 H1 1_555 1_555
O2 H2 1_555 1_555
N1 C1 1_555 1_555
N2 Mn1 1_555 1_555
N3 C3 1_555 1_555
N4 C4 1_555 1_555
N5 Mn1 1_555 1_555
N6 Mn1 1_555 1_555
N7 Mn1 1_555 1_555
N8 C11 1_555 1_555
N9 C10 1_555 1_555
N10 C18 1_555 1_555
C2 W1 1_555 1_555
C3 W1 1_555 1_555
C4 W1 1_555 1_555
C5 N5 1_555 1_555
H3 C5 1_555 1_555
C6 C5 1_555 1_555
H4 C6 1_555 1_555
C7 C6 1_555 1_555
H5 C7 1_555 1_555
C8 C7 1_555 1_555
H6 C8 1_555 1_555
C9 N5 1_555 1_555
C10 N6 1_555 1_555
C11 N6 1_555 1_555
C12 N7 1_555 1_555
C13 C12 1_555 1_555
H7 C13 1_555 1_555
C14 C13 1_555 1_555
H8 C14 1_555 1_555
C15 C14 1_555 1_555
H9 C15 1_555 1_555
C16 N7 1_555 1_555
H10 C16 1_555 1_555
C17 N8 1_555 1_555
C18 C17 1_555 1_555
C19 C18 1_555 1_555
H11 C19 1_555 1_555
C20 C19 1_555 1_555
H12 C20 1_555 1_555
C21 C20 1_555 1_555
H13 C21 1_555 1_555
C22 N10 1_555 1_555
H14 C22 1_555 1_555
C23 O1 1_555 1_555
H15 C23 1_555 1_555
H16 C23 1_555 1_555
H17 C23 1_555 1_555
C24 O2 1_555 1_555
H18 C24 1_555 1_555
H19 C24 1_555 1_555
H20 C24 1_555 1_555
Mn1B O1B 1_555 1_555
Mn1D N4 1_555 1_555
Mn1F N4B 1_555 1_555
O1B H1B 1_555 1_555
N1B C1B 1_555 1_555
N2B Mn1B 1_555 1_555
N3B C3B 1_555 1_555
N4B C4B 1_555 1_555
N4D Mn1 1_555 1_555
N4F Mn1B 1_555 1_555
N5B Mn1B 1_555 1_555
N6B Mn1B 1_555 1_555
N7B Mn1B 1_555 1_555
N8B C11B 1_555 1_555
N9B C10B 1_555 1_555
N10B C18B 1_555 1_555
C1B W1 1_555 1_555
C2B W1 1_555 1_555
C3B W1 1_555 1_555
C4B W1 1_555 1_555
C5B N5B 1_555 1_555
H3B C5B 1_555 1_555
C6B C5B 1_555 1_555
H4B C6B 1_555 1_555
C7B C6B 1_555 1_555
H5B C7B 1_555 1_555
C8B C7B 1_555 1_555
H6B C8B 1_555 1_555
C9B N5B 1_555 1_555
C10B N6B 1_555 1_555
C11B N6B 1_555 1_555
C12B N7B 1_555 1_555
C13B C12B 1_555 1_555
H7B C13B 1_555 1_555
C14B C13B 1_555 1_555
H8B C14B 1_555 1_555
C15B C14B 1_555 1_555
H9B C15B 1_555 1_555
C16B N7B 1_555 1_555
H10B C16B 1_555 1_555
C17B N8B 1_555 1_555
C18B C17B 1_555 1_555
C19B C18B 1_555 1_555
H11B C19B 1_555 1_555
C20B C19B 1_555 1_555
H12B C20B 1_555 1_555
C21B C20B 1_555 1_555
H13B C21B 1_555 1_555
C22B N10B 1_555 1_555
H14B C22B 1_555 1_555
C23B O1B 1_555 1_555
H15B C23B 1_555 1_555
H16B C23B 1_555 1_555
H17B C23B 1_555 1_555
N2 C2 1_555 1_555
N9 C17 1_555 1_555
C8 C9 1_555 1_555
C9 C10 1_555 1_555
C11 C12 1_555 1_555
C15 C16 1_555 1_555
C21 C22 1_555 1_555
N2B C2B 1_555 1_555
N9B C17B 1_555 1_555
C8B C9B 1_555 1_555
C9B C10B 1_555 1_555
C11B C12B 1_555 1_555
C15B C16B 1_555 1_555
C21B C22B 1_555 1_555

#END
