
#######################################################################
#
#                 Cambridge Crystallographic Data Centre
#                                CCDC 
#
#######################################################################
#
# If this CIF has been generated from an entry in the Cambridge 
# Structural Database, then it will include bibliographic, chemical, 
# crystal, experimental, refinement or atomic coordinate data resulting 
# from the CCDC's data processing and validation procedures.
#
#######################################################################

data_GIHREV
_symmetry_cell_setting           triclinic
_symmetry_space_group_name_H-M   'P 1'
_symmetry_Int_Tables_number      1
_space_group_name_Hall           'P 1'
loop_
_symmetry_equiv_pos_site_id
_symmetry_equiv_pos_as_xyz
1 x,y,z
_cell_length_a                   9.2660(7)
_cell_length_b                   11.7256(9)
_cell_length_c                   21.2812(16)
_cell_angle_alpha                96.007(3)
_cell_angle_beta                 98.903(3)
_cell_angle_gamma                111.258(3)
_cell_volume                     2096.2
loop_
_atom_site_label
_atom_site_type_symbol
_atom_site_fract_x
_atom_site_fract_y
_atom_site_fract_z
W1 W 0.767942(7) 0.631790(6) 0.342971(4)
Mn1 Mn 0.13126(8) 0.41402(6) 0.25276(3)
O1 O 0.2020(4) 0.3109(3) 0.17929(16)
H1 H 0.1779 0.3067 0.1392
N1 N 0.3792(5) 0.5306(4) 0.2890(2)
N2 N 0.6417(5) 0.3266(4) 0.3040(2)
N3 N 0.7111(5) 0.5850(4) 0.18336(16)
N4 N 1.0550(4) 0.5486(4) 0.30610(18)
N5 N 1.0032(5) 0.8929(4) 0.3041(2)
N6 N 1.0548(6) 0.7685(6) 0.4729(3)
N7 N 0.6654(6) 0.8572(5) 0.4030(2)
N8 N 0.6355(7) 0.5083(5) 0.4674(2)
N17 N -0.0265(4) 0.4266(3) 0.15944(19)
N18 N -0.1052(4) 0.2628(3) 0.23748(18)
N19 N 0.1288(5) 0.2913(4) 0.33288(19)
N20 N -0.3621(4) 0.1578(4) 0.17446(18)
N21 N -0.2794(4) 0.0880(3) 0.26916(18)
N22 N -0.5805(7) -0.1003(5) 0.2535(3)
C1 C 0.5152(4) 0.5704(4) 0.3090(2)
C2 C 0.6862(5) 0.4311(4) 0.3169(2)
C3 C 0.7283(5) 0.6017(4) 0.2387(2)
C4 C 0.9618(5) 0.5834(4) 0.3218(2)
C5 C 0.9199(5) 0.8017(4) 0.3173(2)
C6 C 0.9565(6) 0.7210(5) 0.4269(2)
C7 C 0.7019(6) 0.7793(5) 0.3820(2)
C8 C 0.6812(6) 0.5549(5) 0.4232(2)
C17 C 0.0174(5) 0.5096(4) 0.12097(19)
H6 H 0.1226 0.5701 0.1312
C18 C -0.0867(7) 0.5109(5) 0.0657(2)
H7 H -0.0514 0.5722 0.0396
C19 C -0.2413(6) 0.4227(5) 0.0490(2)
H8 H -0.3129 0.4216 0.0116
C20 C -0.2862(5) 0.3360(4) 0.0897(2)
H9 H -0.3906 0.2743 0.0804
C21 C -0.1786(5) 0.3402(4) 0.1434(2)
C22 C -0.2202(4) 0.2482(4) 0.1872(2)
C23 C -0.1398(5) 0.1823(4) 0.2775(2)
C24 C -0.0122(5) 0.1987(4) 0.3336(2)
C25 C -0.0328(5) 0.1262(4) 0.3797(2)
H10 H -0.1312 0.0596 0.3771
C26 C 0.0934(7) 0.1517(5) 0.4310(3)
H11 H 0.0800 0.1045 0.4648
C27 C 0.2350(6) 0.2431(5) 0.4330(2)
H12 H 0.3223 0.2600 0.4675
C28 C 0.2496(5) 0.3136(5) 0.3820(2)
H13 H 0.3485 0.3783 0.3829
C29 C -0.3866(5) 0.0819(4) 0.2163(2)
C30 C -0.5446(5) -0.0211(4) 0.2067(2)
C31 C -0.6474(5) -0.0310(4) 0.1533(2)
H14 H -0.6192 0.0218 0.1225
C32 C -0.7975(5) -0.1222(5) 0.1449(3)
H15 H -0.8713 -0.1331 0.1062
C33 C -0.8443(6) -0.1943(5) 0.1867(3)
H16 H -0.9512 -0.2514 0.1789
C34 C -0.7366(6) -0.1882(5) 0.2441(3)
H17 H -0.7690 -0.2411 0.2745
C71 C 0.3321(6) 0.2709(5) 0.1943(3)
H43 H 0.4239 0.3253 0.1795
H44 H 0.3006 0.1852 0.1724
H45 H 0.3598 0.2753 0.2410
Mn1_2 Mn 1.13126(8) 0.41402(6) 0.25276(3)
N4_2 N 0.0550(4) 0.5486(4) 0.30610(18)
W2 W 0.829408(7) 0.723640(7) 0.869089(4)
Mn2 Mn 0.46562(7) 0.93974(6) 0.95959(3)
Mn3 Mn 0.32763(5) 0.48540(5) 0.67029(2)
O2 O 0.3949(4) 1.0456(4) 1.03222(17)
H2 H 0.4027 1.0323 1.0704
O3 O 0.2618(3) 0.6416(3) 0.69375(12)
H3 H 0.3281 0.6944 0.6779
O4 O 0.4194(3) 0.3473(3) 0.63971(16)
H4 H 0.4683 0.3843 0.6130
N9 N 0.5429(4) 0.8087(4) 0.90578(18)
N10 N 0.5856(6) 0.4638(5) 0.9043(2)
N11 N 0.5446(5) 0.5887(4) 0.7384(2)
N12 N 0.9297(7) 0.4978(5) 0.8088(3)
N13 N 0.9674(5) 0.8473(4) 0.7470(2)
N14 N 1.2175(4) 0.8213(4) 0.92502(19)
N15 N 0.9555(5) 1.0317(4) 0.9083(2)
N16 N 0.8803(5) 0.7685(4) 1.0281(2)
N23 N 0.4675(4) 1.0575(4) 0.87860(19)
N24 N 0.7000(4) 1.0890(4) 0.97438(17)
N25 N 0.6265(4) 0.9286(4) 1.05286(16)
N26 N 0.8744(4) 1.2672(4) 0.94199(18)
N27 N 0.9595(4) 1.1968(4) 1.03772(19)
N28 N 1.2452(4) 1.3872(4) 1.0591(2)
N29 N 0.1698(4) 0.3522(3) 0.72809(15)
N30 N 0.0937(3) 0.3787(2) 0.60849(12)
N31 N 0.3242(3) 0.5451(3) 0.57095(12)
N32 N -0.0800(3) 0.3271(2) 0.50700(12)
N33 N -0.1600(3) 0.2210(3) 0.59307(13)
N34 N -0.4351(5) 0.0685(4) 0.5139(2)
C9 C 0.6345(6) 0.7736(5) 0.8895(2)
C10 C 0.6718(5) 0.5548(4) 0.8936(2)
C11 C 0.6458(5) 0.6350(4) 0.7834(2)
C12 C 0.8963(5) 0.5772(4) 0.8293(3)
C13 C 0.9218(7) 0.8034(6) 0.7876(3)
C14 C 1.0836(5) 0.7839(4) 0.9049(2)
C15 C 0.9131(5) 0.9226(4) 0.8941(2)
C16 C 0.8661(5) 0.7523(4) 0.9728(2)
C35 C 0.3463(6) 1.0365(5) 0.8290(2)
H18 H 0.2473 0.9722 0.8284
C36 C 0.3576(6) 1.1016(5) 0.7802(3)
H19 H 0.2689 1.0805 0.7457
C37 C 0.5008(6) 1.2011(5) 0.7797(2)
H20 H 0.5090 1.2494 0.7463
C38 C 0.6302(6) 1.2258(5) 0.8306(2)
H21 H 0.7304 1.2895 0.8322
C39 C 0.6052(5) 1.1520(4) 0.8796(2)
C40 C 0.7356(5) 1.1740(4) 0.9349(2)
C41 C 0.8145(5) 1.1042(4) 1.02501(19)
C42 C 0.7750(5) 1.0140(4) 1.06852(19)
C43 C 0.8871(6) 1.0209(5) 1.1228(2)
H22 H 0.9915 1.0826 1.1324
C44 C 0.8370(6) 0.9326(5) 1.1619(2)
H23 H 0.9091 0.9326 1.1989
C45 C 0.6840(6) 0.8449(5) 1.1478(2)
H24 H 0.6484 0.7857 1.1749
C46 C 0.5869(7) 0.8463(5) 1.0940(3)
H25 H 0.4822 0.7848 1.0839
C47 C 0.9818(5) 1.2745(4) 0.9938(2)
C48 C 1.1410(5) 1.3759(5) 1.0040(2)
C49 C 1.1768(4) 1.4510(4) 0.9594(2)
H26 H 1.0988 1.4433 0.9227
C50 C 1.3278(7) 1.5383(5) 0.9685(3)
H27 H 1.3542 1.5920 0.9379
C51 C 1.4406(6) 1.5490(5) 1.0206(3)
H28 H 1.5469 1.6061 1.0262
C52 C 1.3909(5) 1.4698(5) 1.0668(3)
H29 H 1.4660 1.4773 1.1044
C53 C 0.2217(6) 0.3442(5) 0.7893(2)
H30 H 0.3250 0.3982 0.8119
C54 C 0.1234(7) 0.2560(6) 0.8199(2)
H31 H 0.1610 0.2485 0.8628
C55 C -0.0269(7) 0.1807(6) 0.7878(3)
H32 H -0.0945 0.1208 0.8082
C56 C -0.0801(6) 0.1930(5) 0.7243(2)
H33 H -0.1849 0.1443 0.7012
C57 C 0.0240(6) 0.2769(5) 0.6976(2)
C58 C -0.0188(3) 0.2913(3) 0.62922(14)
C59 C 0.0605(3) 0.3977(3) 0.54776(13)
C60 C 0.1844(4) 0.4919(3) 0.52651(14)
C61 C 0.1645(4) 0.5271(3) 0.46669(15)
H34 H 0.0674 0.4868 0.4361
C62 C 0.2927(5) 0.6250(4) 0.4520(2)
H35 H 0.2817 0.6533 0.4120
C63 C 0.4311(4) 0.6772(3) 0.49644(16)
H36 H 0.5190 0.7417 0.4876
C64 C 0.4429(4) 0.6352(3) 0.55505(16)
H37 H 0.5407 0.6726 0.5854
C65 C -0.1836(3) 0.2414(3) 0.53234(14)
C66 C -0.3400(5) 0.1619(4) 0.4880(2)
C67 C -0.3750(5) 0.1844(5) 0.4268(2)
H38 H -0.3021 0.2500 0.4113
C68 C -0.5231(6) 0.1065(5) 0.3877(2)
H39 H -0.5535 0.1194 0.3452
C69 C -0.6214(6) 0.0127(5) 0.4121(2)
H40 H -0.7216 -0.0401 0.3862
C70 C -0.5793(4) -0.0068(3) 0.47237(14)
H41 H -0.6505 -0.0745 0.4872
C72 C 0.2702(7) 1.0877(6) 1.0171(3)
H46 H 0.2736 1.1177 0.9759
H47 H 0.2826 1.1555 1.0512
H48 H 0.1684 1.0190 1.0137
C73 C 0.2555(9) 0.6971(8) 0.7557(3)
H49 H 0.2036 0.6318 0.7794
H50 H 0.1953 0.7503 0.7503
H51 H 0.3633 0.7473 0.7799
C74 C 0.3277(13) 0.2242(7) 0.6114(6)
H52 H 0.3722 0.1695 0.6316
H53 H 0.3272 0.2131 0.5651
H54 H 0.2191 0.2033 0.6177
Mn2_2 Mn 1.46562(7) 0.93974(6) 0.95959(3)
N14_2 N 0.2175(4) 0.8213(4) 0.92502(19)
O7 O 0.5320(4) 0.0430(3) 0.64263(14)
O8 O 0.6761(4) 0.4334(3) 0.58983(14)
O9 O 1.0766(4) 0.6887(3) 0.60383(14)
H42 H 1.0790 0.7177 0.5694
C76 C 0.9105(12) 0.6225(10) 0.6085(5)
H58 H 0.9033 0.5546 0.6327
H59 H 0.8445 0.5884 0.5650
H60 H 0.8733 0.6804 0.6309
O5? O 0.4194(3) 0.3473(3) 0.63971(16)
H5? H 0.4247 0.3342 0.6779
O6? O 0.226(2) 0.0926(15) 0.6003(8)
C75? C 0.5680(12) 0.3721(12) 0.6230(7)
H55? H 0.5854 0.2946 0.6159
H56? H 0.6515 0.4310 0.6582
H57? H 0.5703 0.4079 0.5834
loop_
_geom_bond_atom_site_label_1
_geom_bond_atom_site_label_2
_geom_bond_site_symmetry_1
_geom_bond_site_symmetry_2
W1 C1 1_555 1_555
W2 C9 1_555 1_555
Mn1 O1 1_555 1_555
Mn2 O2 1_555 1_555
Mn3 O3 1_555 1_555
O1 H1 1_555 1_555
O2 H2 1_555 1_555
O3 H3 1_555 1_555
O4 Mn3 1_555 1_555
H4 O4 1_555 1_555
N1 Mn1 1_555 1_555
N2 C2 1_555 1_555
N3 C3 1_555 1_555
N4 C4 1_555 1_555
N5 C5 1_555 1_555
N6 C6 1_555 1_555
N7 C7 1_555 1_555
N8 C8 1_555 1_555
N9 Mn2 1_555 1_555
N10 C10 1_555 1_555
N11 Mn3 1_555 1_555
N12 C12 1_555 1_555
N13 C13 1_555 1_555
N14 C14 1_555 1_555
N15 C15 1_555 1_555
N16 C16 1_555 1_555
N17 Mn1 1_555 1_555
N18 Mn1 1_555 1_555
N19 Mn1 1_555 1_555
N20 C22 1_555 1_555
N21 C23 1_555 1_555
N22 C30 1_555 1_555
N23 Mn2 1_555 1_555
N24 Mn2 1_555 1_555
N25 Mn2 1_555 1_555
N26 C40 1_555 1_555
N27 C41 1_555 1_555
N28 C48 1_555 1_555
N29 Mn3 1_555 1_555
N30 Mn3 1_555 1_555
N31 Mn3 1_555 1_555
N32 C59 1_555 1_555
N33 C58 1_555 1_555
N34 C66 1_555 1_555
C1 N1 1_555 1_555
C2 W1 1_555 1_555
C3 W1 1_555 1_555
C4 W1 1_555 1_555
C5 W1 1_555 1_555
C6 W1 1_555 1_555
C7 W1 1_555 1_555
C8 W1 1_555 1_555
C9 N9 1_555 1_555
C10 W2 1_555 1_555
C11 W2 1_555 1_555
C12 W2 1_555 1_555
C13 W2 1_555 1_555
C14 W2 1_555 1_555
C15 W2 1_555 1_555
C16 W2 1_555 1_555
C17 N17 1_555 1_555
H6 C17 1_555 1_555
C18 C17 1_555 1_555
H7 C18 1_555 1_555
C19 C18 1_555 1_555
H8 C19 1_555 1_555
C20 C19 1_555 1_555
H9 C20 1_555 1_555
C21 N17 1_555 1_555
C22 N18 1_555 1_555
C23 N18 1_555 1_555
C24 N19 1_555 1_555
C25 C24 1_555 1_555
H10 C25 1_555 1_555
C26 C25 1_555 1_555
H11 C26 1_555 1_555
C27 C26 1_555 1_555
H12 C27 1_555 1_555
C28 N19 1_555 1_555
H13 C28 1_555 1_555
C29 N20 1_555 1_555
C30 C29 1_555 1_555
C31 C30 1_555 1_555
H14 C31 1_555 1_555
C32 C31 1_555 1_555
H15 C32 1_555 1_555
C33 C32 1_555 1_555
H16 C33 1_555 1_555
C34 N22 1_555 1_555
H17 C34 1_555 1_555
C35 N23 1_555 1_555
H18 C35 1_555 1_555
C36 C35 1_555 1_555
H19 C36 1_555 1_555
C37 C36 1_555 1_555
H20 C37 1_555 1_555
C38 C37 1_555 1_555
H21 C38 1_555 1_555
C39 N23 1_555 1_555
C40 N24 1_555 1_555
C41 N24 1_555 1_555
C42 N25 1_555 1_555
C43 C42 1_555 1_555
H22 C43 1_555 1_555
C44 C43 1_555 1_555
H23 C44 1_555 1_555
C45 C44 1_555 1_555
H24 C45 1_555 1_555
C46 N25 1_555 1_555
H25 C46 1_555 1_555
C47 N26 1_555 1_555
C48 C47 1_555 1_555
C49 C48 1_555 1_555
H26 C49 1_555 1_555
C50 C49 1_555 1_555
H27 C50 1_555 1_555
C51 C50 1_555 1_555
H28 C51 1_555 1_555
C52 N28 1_555 1_555
H29 C52 1_555 1_555
C53 N29 1_555 1_555
H30 C53 1_555 1_555
C54 C53 1_555 1_555
H31 C54 1_555 1_555
C55 C54 1_555 1_555
H32 C55 1_555 1_555
C56 C55 1_555 1_555
H33 C56 1_555 1_555
C57 N29 1_555 1_555
C58 N30 1_555 1_555
C59 N30 1_555 1_555
C60 N31 1_555 1_555
C61 C60 1_555 1_555
H34 C61 1_555 1_555
C62 C61 1_555 1_555
H35 C62 1_555 1_555
C63 C62 1_555 1_555
H36 C63 1_555 1_555
C64 N31 1_555 1_555
H37 C64 1_555 1_555
C65 N32 1_555 1_555
C66 C65 1_555 1_555
C67 C66 1_555 1_555
H38 C67 1_555 1_555
C68 C67 1_555 1_555
H39 C68 1_555 1_555
C69 C68 1_555 1_555
H40 C69 1_555 1_555
C70 N34 1_555 1_555
H41 C70 1_555 1_555
O9 H42 1_555 1_555
C71 O1 1_555 1_555
H43 C71 1_555 1_555
H44 C71 1_555 1_555
H45 C71 1_555 1_555
C72 O2 1_555 1_555
H46 C72 1_555 1_555
H47 C72 1_555 1_555
H48 C72 1_555 1_555
C73 O3 1_555 1_555
H49 C73 1_555 1_555
H50 C73 1_555 1_555
H51 C73 1_555 1_555
C74 O4 1_555 1_555
H52 C74 1_555 1_555
H53 C74 1_555 1_555
H54 C74 1_555 1_555
C76 O9 1_555 1_555
H58 C76 1_555 1_555
H59 C76 1_555 1_555
H60 C76 1_555 1_555
Mn1_2 N4 1_555 1_555
Mn2_2 N14 1_555 1_555
N4_2 Mn1 1_555 1_555
N14_2 Mn2 1_555 1_555
N11 C11 1_555 1_555
N21 C29 1_555 1_555
N27 C47 1_555 1_555
N33 C65 1_555 1_555
C20 C21 1_555 1_555
C21 C22 1_555 1_555
C23 C24 1_555 1_555
C27 C28 1_555 1_555
C33 C34 1_555 1_555
C38 C39 1_555 1_555
C39 C40 1_555 1_555
C41 C42 1_555 1_555
C45 C46 1_555 1_555
C51 C52 1_555 1_555
C56 C57 1_555 1_555
C57 C58 1_555 1_555
C59 C60 1_555 1_555
C63 C64 1_555 1_555
C69 C70 1_555 1_555

#END
