
#######################################################################
#
#                 Cambridge Crystallographic Data Centre
#                                CCDC 
#
#######################################################################
#
# If this CIF has been generated from an entry in the Cambridge 
# Structural Database, then it will include bibliographic, chemical, 
# crystal, experimental, refinement or atomic coordinate data resulting 
# from the CCDC's data processing and validation procedures.
#
#######################################################################

data_GIHWOJ01
_symmetry_cell_setting           triclinic
_symmetry_space_group_name_H-M   'P -1'
_symmetry_Int_Tables_number      2
_space_group_name_Hall           '-P 1'
loop_
_symmetry_equiv_pos_site_id
_symmetry_equiv_pos_as_xyz
1 x,y,z
2 -x,-y,-z
_cell_length_a                   5.5372(4)
_cell_length_b                   8.1487(6)
_cell_length_c                   9.7578(7)
_cell_angle_alpha                69.1590(10)
_cell_angle_beta                 84.305(2)
_cell_angle_gamma                89.329(2)
_cell_volume                     409.312
loop_
_atom_site_label
_atom_site_type_symbol
_atom_site_fract_x
_atom_site_fract_y
_atom_site_fract_z
Ca1 Ca 1.0000 0.5000 0.0000
S1 S 0.46696(4) 0.53055(3) 0.23925(3)
O1 O 0.39518(14) 0.65813(9) 0.30610(8)
O2 O 0.71997(12) 0.55429(9) 0.17559(8)
O3 O 0.30448(15) 0.52304(11) 0.13414(8)
O4 O 0.06178(14) -0.20198(9) 0.83520(8)
N1 N -0.01015(17) 0.07771(11) 0.69942(10)
H1 H -0.1087 0.1630 0.6866
C1 C 0.44992(19) 0.32245(13) 0.38187(11)
H2 H 0.4796 0.2327 0.3388
H3 H 0.5769 0.3165 0.4450
C2 C 0.20568(19) 0.28297(13) 0.47557(12)
H4 H 0.1742 0.3719 0.5193
H5 H 0.0776 0.2860 0.4138
C3 C 0.20577(19) 0.10418(14) 0.59580(12)
H6 H 0.2108 0.0138 0.5524
H7 H 0.3493 0.0946 0.6474
C4 C -0.0642(2) -0.07020(14) 0.81257(12)
C5 C -0.2877(2) -0.07026(17) 0.91136(14)
H8 H -0.2469 -0.0998 1.0105
H9 H -0.4034 -0.1553 0.9080
H10 H -0.3566 0.0442 0.8791
Ca1_2 Ca 0.0000 0.5000 0.0000
Ca1_3 Ca 0.0000 -0.5000 1.0000
Ca1_4 Ca 2.0000 0.5000 0.0000
Ca1_5 Ca 2.0000 1.5000 -1.0000
S1A S 1.53304(4) 0.46945(3) -0.23925(3)
O1A O 1.60482(14) 0.34187(9) -0.30610(8)
O2A O 1.28003(12) 0.44571(9) -0.17559(8)
O3A O 1.69552(15) 0.47696(11) -0.13414(8)
O3_2 O 1.30448(15) 0.52304(11) 0.13414(8)
O3A_2 O 0.69552(15) 0.47696(11) -0.13414(8)
O4A O 1.93822(14) 1.20198(9) -0.83520(8)
O4_2 O 1.06178(14) 0.79802(9) -0.16480(8)
O4A_2 O 0.93822(14) 0.20198(9) 0.16480(8)
N1A N 2.01015(17) 0.92229(11) -0.69942(10)
H1A H 2.1087 0.8370 -0.6866
C1A C 1.55008(19) 0.67755(13) -0.38187(11)
H2A H 1.5204 0.7673 -0.3388
H3A H 1.4231 0.6835 -0.4450
C2A C 1.79432(19) 0.71703(13) -0.47557(12)
H4A H 1.8258 0.6281 -0.5193
H5A H 1.9224 0.7140 -0.4138
C3A C 1.79423(19) 0.89582(14) -0.59580(12)
H6A H 1.7892 0.9862 -0.5524
H7A H 1.6507 0.9054 -0.6474
C4A C 2.0642(2) 1.07020(14) -0.81257(12)
C5A C 2.2877(2) 1.07026(17) -0.91136(14)
H8A H 2.2469 1.0998 -1.0105
H9A H 2.4034 1.1553 -0.9080
H10A H 2.3566 0.9558 -0.8791
loop_
_geom_bond_atom_site_label_1
_geom_bond_atom_site_label_2
_geom_bond_site_symmetry_1
_geom_bond_site_symmetry_2
Ca1 O2 1_555 1_555
S1 O1 1_555 1_555
O2 S1 1_555 1_555
O3 S1 1_555 1_555
O4 C4 1_555 1_555
N1 H1 1_555 1_555
C1 S1 1_555 1_555
H2 C1 1_555 1_555
H3 C1 1_555 1_555
C2 C1 1_555 1_555
H4 C2 1_555 1_555
H5 C2 1_555 1_555
C3 N1 1_555 1_555
H6 C3 1_555 1_555
H7 C3 1_555 1_555
C4 N1 1_555 1_555
C5 C4 1_555 1_555
H8 C5 1_555 1_555
H9 C5 1_555 1_555
H10 C5 1_555 1_555
Ca1_2 O3 1_555 1_555
Ca1_3 O4 1_555 1_555
Ca1_4 O3A 1_555 1_555
Ca1_5 O4A 1_555 1_555
S1A O1A 1_555 1_555
O2A Ca1 1_555 1_555
O3A S1A 1_555 1_555
O3_2 Ca1 1_555 1_555
O3A_2 Ca1 1_555 1_555
O4A C4A 1_555 1_555
O4_2 Ca1 1_555 1_555
O4A_2 Ca1 1_555 1_555
N1A H1A 1_555 1_555
C1A S1A 1_555 1_555
H2A C1A 1_555 1_555
H3A C1A 1_555 1_555
C2A C1A 1_555 1_555
H4A C2A 1_555 1_555
H5A C2A 1_555 1_555
C3A N1A 1_555 1_555
H6A C3A 1_555 1_555
H7A C3A 1_555 1_555
C4A N1A 1_555 1_555
C5A C4A 1_555 1_555
H8A C5A 1_555 1_555
H9A C5A 1_555 1_555
H10A C5A 1_555 1_555
C2 C3 1_555 1_555
S1A O2A 1_555 1_555
C2A C3A 1_555 1_555

#END
