
#######################################################################
#
#                 Cambridge Crystallographic Data Centre
#                                CCDC 
#
#######################################################################
#
# If this CIF has been generated from an entry in the Cambridge 
# Structural Database, then it will include bibliographic, chemical, 
# crystal, experimental, refinement or atomic coordinate data resulting 
# from the CCDC's data processing and validation procedures.
#
#######################################################################

data_GIHYUS
_symmetry_cell_setting           triclinic
_symmetry_space_group_name_H-M   'P -1'
_symmetry_Int_Tables_number      2
_space_group_name_Hall           '-P 1'
loop_
_symmetry_equiv_pos_site_id
_symmetry_equiv_pos_as_xyz
1 x,y,z
2 -x,-y,-z
_cell_length_a                   11.430(3)
_cell_length_b                   12.242(3)
_cell_length_c                   14.279(3)
_cell_angle_alpha                106.196(4)
_cell_angle_beta                 94.316(4)
_cell_angle_gamma                98.294(3)
_cell_volume                     1884.57
loop_
_atom_site_label
_atom_site_type_symbol
_atom_site_fract_x
_atom_site_fract_y
_atom_site_fract_z
Ni1 Ni 0.19952(12) -0.12989(10) -0.01886(10)
O33 O 0.3006(6) -0.1831(6) -0.1347(6)
H1 H 0.2876 -0.1449 -0.1746
H2 H 0.3756 -0.1758 -0.1217
O34 O 0.0899(6) -0.0723(5) 0.0865(5)
H3 H 0.0824 -0.1210 0.1189
H4 H 0.0202 -0.0609 0.0715
N1 N 0.0888(7) -0.0856(6) -0.1990(6)
N2 N 0.0470(7) -0.1930(7) -0.7087(6)
N3 N 0.1300(7) -0.3803(6) -0.0548(6)
N4 N 0.3003(6) -0.8802(6) 0.0149(6)
C1 C 0.1493(10) -0.0119(10) -0.2378(9)
H5 H 0.1935 0.0563 -0.1960
C2 C 0.1493(10) -0.0325(9) -0.3373(8)
H6 H 0.1949 0.0198 -0.3621
C3 C 0.0818(8) -0.1305(8) -0.3994(7)
C4 C 0.0190(8) -0.2064(8) -0.3587(7)
H7 H -0.0290 -0.2734 -0.3990
C5 C 0.0272(9) -0.1832(9) -0.2585(8)
H8 H -0.0116 -0.2374 -0.2318
C6 C 0.1019(10) -0.0895(9) -0.6485(8)
H9 H 0.1313 -0.0327 -0.6765
C7 C 0.1162(9) -0.0647(8) -0.5506(8)
H10 H 0.1538 0.0080 -0.5116
C8 C 0.0733(8) -0.1506(7) -0.5079(7)
C9 C 0.0234(9) -0.2594(8) -0.5703(8)
H11 H -0.0011 -0.3190 -0.5439
C10 C 0.0098(9) -0.2797(8) -0.6707(7)
H12 H -0.0246 -0.3524 -0.7120
C11 C 0.1694(8) -0.4552(8) -0.1306(7)
H13 H 0.1692 -0.4412 -0.1914
C12 C 0.2095(10) -0.5513(8) -0.1178(7)
H14 H 0.2397 -0.6006 -0.1687
C13 C 0.2043(9) -0.5738(7) -0.0287(8)
C14 C 0.1635(9) -0.4984(8) 0.0460(7)
H15 H 0.1608 -0.5126 0.1066
C15 C 0.1260(9) -0.4002(7) 0.0320(7)
H16 H 0.0983 -0.3488 0.0831
C16 C 0.2147(9) -0.8352(8) 0.0608(7)
H17 H 0.1763 -0.8705 0.1027
C17 C 0.1822(9) -0.7373(7) 0.0473(8)
H18 H 0.1207 -0.7073 0.0790
C18 C 0.2404(8) -0.6810(7) -0.0138(7)
C19 C 0.3283(9) -0.7301(8) -0.0607(8)
H19 H 0.3681 -0.6965 -0.1029
C20 C 0.3583(9) -0.8308(8) -0.0449(8)
H20 H 0.4188 -0.8637 -0.0761
O35 O 0.0867(5) -0.0603(5) -0.1004(5)
O36 O 0.0325(8) -0.2116(6) -0.8049(5)
O37 O 0.0912(6) -0.2888(5) -0.0711(5)
O38 O 0.3257(5) -0.9784(5) 0.0264(5)
N5 N 0.3038(8) -0.1803(8) 0.0861(7)
C21 C 0.3480(12) -0.1849(12) 0.1567(11)
C22 C 0.3977(16) -0.1916(16) 0.2508(14)
H23 H 0.4639 -0.1297 0.2777
H24 H 0.4243 -0.2642 0.2423
H25 H 0.3380 -0.1851 0.2949
Ni1_2 Ni 0.19952(12) 0.87011(10) -0.01886(10)
Ni1_3 Ni 0.19952(12) -1.12989(10) -0.01886(10)
O33_2 O 0.3006(6) 0.8169(6) -0.1347(6)
H1_2 H 0.2876 0.8551 -0.1746
H2_2 H 0.3756 0.8242 -0.1217
O34_2 O 0.0899(6) 0.9277(5) 0.0865(5)
H3_2 H 0.0824 0.8790 0.1189
H4_2 H 0.0202 0.9391 0.0715
N1_2 N 0.0888(7) 0.9144(6) -0.1990(6)
N2_2 N 0.0470(7) 0.8070(7) -0.7087(6)
N3_2 N 0.1300(7) 0.6197(6) -0.0548(6)
N4_2 N 0.3003(6) 0.1198(6) 0.0149(6)
C1_2 C 0.1493(10) 0.9881(10) -0.2378(9)
H5_2 H 0.1935 1.0563 -0.1960
C2_2 C 0.1493(10) 0.9675(9) -0.3373(8)
H6_2 H 0.1949 1.0198 -0.3621
C3_2 C 0.0818(8) 0.8695(8) -0.3994(7)
C4_2 C 0.0190(8) 0.7936(8) -0.3587(7)
H7_2 H -0.0290 0.7266 -0.3990
C5_2 C 0.0272(9) 0.8168(9) -0.2585(8)
H8_2 H -0.0116 0.7626 -0.2318
C6_2 C 0.1019(10) 0.9105(9) -0.6485(8)
H9_2 H 0.1313 0.9673 -0.6765
C7_2 C 0.1162(9) 0.9353(8) -0.5506(8)
H10_2 H 0.1538 1.0080 -0.5116
C8_2 C 0.0733(8) 0.8494(7) -0.5079(7)
C9_2 C 0.0234(9) 0.7406(8) -0.5703(8)
H11_2 H -0.0011 0.6810 -0.5439
C10_2 C 0.0098(9) 0.7203(8) -0.6707(7)
H12_2 H -0.0246 0.6476 -0.7120
C11_2 C 0.1694(8) 0.5448(8) -0.1306(7)
H13_2 H 0.1692 0.5588 -0.1914
C12_2 C 0.2095(10) 0.4487(8) -0.1178(7)
H14_2 H 0.2397 0.3994 -0.1687
C13_2 C 0.2043(9) 0.4262(7) -0.0287(8)
C14_2 C 0.1635(9) 0.5016(8) 0.0460(7)
H15_2 H 0.1608 0.4874 0.1066
C15_2 C 0.1260(9) 0.5998(7) 0.0320(7)
H16_2 H 0.0983 0.6512 0.0831
C16_2 C 0.2147(9) 0.1648(8) 0.0608(7)
H17_2 H 0.1763 0.1295 0.1027
C17_2 C 0.1822(9) 0.2627(7) 0.0473(8)
H18_2 H 0.1207 0.2927 0.0790
C18_2 C 0.2404(8) 0.3190(7) -0.0138(7)
C19_2 C 0.3283(9) 0.2699(8) -0.0607(8)
H19_2 H 0.3681 0.3035 -0.1029
C20_2 C 0.3583(9) 0.1692(8) -0.0449(8)
H20_2 H 0.4188 0.1363 -0.0761
O35_2 O 0.0867(5) 0.9397(5) -0.1004(5)
O36_2 O 0.0325(8) 0.7884(6) -0.8049(5)
O37_2 O 0.0912(6) 0.7112(5) -0.0711(5)
O38_2 O 0.3257(5) 0.0216(5) 0.0264(5)
O38_3 O 0.3257(5) 1.0216(5) 0.0264(5)
N5_2 N 0.3038(8) 0.8197(8) 0.0861(7)
C21_2 C 0.3480(12) 0.8151(12) 0.1567(11)
C22_2 C 0.3977(16) 0.8084(16) 0.2508(14)
H23_2 H 0.4639 0.8703 0.2777
H24_2 H 0.4243 0.7358 0.2423
H25_2 H 0.3380 0.8149 0.2949
O39 O -0.5153(6) 0.9472(6) 0.8251(5)
H21 H -0.5124 0.9204 0.7638
H22 H -0.4469 0.9613 0.8581
Si1 Si 0.5000 0.5000 0.5000
Mo1 Mo 0.49359(7) 0.57893(7) 0.75678(6)
Mo2 Mo 0.34931(8) 0.30335(7) 0.60793(7)
Mo3 Mo 0.23246(8) 0.55090(7) 0.59443(7)
Mo4 Mo 0.67722(8) 0.75676(8) 0.64975(8)
Mo5 Mo 0.74728(8) 0.48723(8) 0.65640(7)
Mo6 Mo 0.40608(10) 0.76661(8) 0.52117(7)
O1 O 0.3774(9) 0.5609(9) 0.4957(9)
O2 O 0.4459(10) 0.3628(10) 0.4908(9)
O3 O 0.2985(10) 0.2717(9) 0.4648(9)
O4 O 0.4903(10) 0.2664(10) 0.5733(10)
O5 O 0.7251(10) 0.3226(10) 0.6006(9)
O6 O 0.1457(10) 0.5219(10) 0.4652(9)
O7 O 0.5679(11) 0.7006(11) 0.7203(9)
O8 O 0.4332(11) 0.4131(10) 0.7041(10)
O9 O 0.2717(7) 0.2085(6) 0.6536(6)
O10 O 0.3616(6) 0.8883(5) 0.5203(5)
O11 O 0.4899(8) 0.6045(7) 0.8762(6)
O12 O 0.8717(5) 0.4921(6) 0.7277(5)
O13 O 0.1111(6) 0.5802(6) 0.6464(6)
O14 O 0.3473(6) 0.6035(5) 0.7171(6)
O15 O 0.7511(6) 0.8805(6) 0.7264(6)
O16 O 0.2324(6) 0.4026(5) 0.6005(6)
O17 O 0.7588(12) 0.6445(12) 0.6425(10)
O18 O 0.6305(11) 0.4999(11) 0.7184(10)
O19 O 0.5129(11) 0.7813(10) 0.6209(10)
O20 O 0.2654(10) 0.7182(11) 0.5917(10)
Mo1A Mo 0.50641(7) 0.42107(7) 0.24322(6)
Mo2A Mo 0.65069(8) 0.69665(7) 0.39207(7)
Mo3A Mo 0.76754(8) 0.44910(7) 0.40557(7)
Mo4A Mo 0.32278(8) 0.24324(8) 0.35025(8)
Mo5A Mo 0.25272(8) 0.51277(8) 0.34360(7)
Mo6A Mo 0.59392(10) 0.23339(8) 0.47883(7)
O1A O 0.6226(9) 0.4391(9) 0.5043(9)
O2A O 0.5541(10) 0.6372(10) 0.5092(9)
O3A O 0.7015(10) 0.7283(9) 0.5352(9)
O4A O 0.5097(10) 0.7336(10) 0.4267(10)
O5A O 0.2749(10) 0.6774(10) 0.3994(9)
O6A O 0.8543(10) 0.4781(10) 0.5348(9)
O7A O 0.4321(11) 0.2994(11) 0.2797(9)
O8A O 0.5668(11) 0.5869(10) 0.2959(10)
O9A O 0.7283(7) 0.7915(6) 0.3464(6)
O10A O 0.6384(6) 0.1117(5) 0.4797(5)
O11A O 0.5101(8) 0.3955(7) 0.1238(6)
O12A O 0.1283(5) 0.5079(6) 0.2723(5)
O13A O 0.8889(6) 0.4198(6) 0.3536(6)
O14A O 0.6527(6) 0.3965(5) 0.2829(6)
O15A O 0.2489(6) 0.1195(6) 0.2736(6)
O16A O 0.7676(6) 0.5974(5) 0.3995(6)
O17A O 0.2412(12) 0.3555(12) 0.3575(10)
O18A O 0.3695(11) 0.5001(11) 0.2816(10)
O19A O 0.4871(11) 0.2187(10) 0.3791(10)
O20A O 0.7346(10) 0.2818(11) 0.4083(10)
O21? O 0.5713(9) 0.5616(9) 0.6124(8)
O22? O 0.5743(9) 0.5114(9) 0.4148(8)
O23? O 0.2638(12) 0.2097(11) 0.4681(10)
O24? O 0.4648(11) 0.2061(10) 0.5767(10)
O25? O 0.6662(12) 0.3444(11) 0.6023(10)
O26? O 0.2113(11) 0.5002(9) 0.4654(9)
O27? O 0.5856(11) 0.7232(11) 0.7704(10)
O28? O 0.4108(16) 0.4066(15) 0.7325(11)
O29? O 0.7816(11) 0.6705(11) 0.6943(10)
O30? O 0.6458(11) 0.5195(12) 0.7694(10)
O31? O 0.4598(11) 0.1593(11) 0.3804(10)
O32? O 0.6732(12) 0.3038(10) 0.4131(10)
loop_
_geom_bond_atom_site_label_1
_geom_bond_atom_site_label_2
_geom_bond_site_symmetry_1
_geom_bond_site_symmetry_2
Si1 O1 1_555 1_555
Mo1 O7 1_555 1_555
Mo2 O2 1_555 1_555
Mo3 O1 1_555 1_555
Mo4 O7 1_555 1_555
Mo5 O5 1_555 1_555
Mo6 O1 1_555 1_555
O1 Mo5A 1_555 1_555
O2 Si1 1_555 1_555
O3 Mo2 1_555 1_555
O4 Mo2 1_555 1_555
O5 Mo6A 1_555 1_555
O6 Mo3 1_555 1_555
O8 Mo1 1_555 1_555
O9 Mo2 1_555 1_555
O10 Mo6 1_555 1_555
O11 Mo1 1_555 1_555
O12 Mo5 1_555 1_555
O13 Mo3 1_555 1_555
O14 Mo1 1_555 1_555
O15 Mo4 1_555 1_555
O16 Mo2 1_555 1_555
O17 Mo4 1_555 1_555
O18 Mo1 1_555 1_555
O19 Mo4 1_555 1_555
O20 Mo3 1_555 1_555
Ni1 O33 1_555 1_555
O33 H1 1_555 1_555
H2 O33 1_555 1_555
O34 Ni1 1_555 1_555
H3 O34 1_555 1_555
H4 O34 1_555 1_555
N1 C1 1_555 1_555
N2 C6 1_555 1_555
N3 C11 1_555 1_555
N4 C16 1_555 1_555
C1 H5 1_555 1_555
C2 C1 1_555 1_555
H6 C2 1_555 1_555
C3 C2 1_555 1_555
C4 C3 1_555 1_555
H7 C4 1_555 1_555
C5 N1 1_555 1_555
H8 C5 1_555 1_555
C6 H9 1_555 1_555
C7 C6 1_555 1_555
H10 C7 1_555 1_555
C8 C3 1_555 1_555
C9 C8 1_555 1_555
H11 C9 1_555 1_555
C10 N2 1_555 1_555
H12 C10 1_555 1_555
C11 H13 1_555 1_555
C12 C11 1_555 1_555
H14 C12 1_555 1_555
C13 C12 1_555 1_555
C14 C13 1_555 1_555
H15 C14 1_555 1_555
C15 N3 1_555 1_555
H16 C15 1_555 1_555
C16 H17 1_555 1_555
C17 C16 1_555 1_555
H18 C17 1_555 1_555
C18 C13 1_555 1_555
C19 C18 1_555 1_555
H19 C19 1_555 1_555
C20 N4 1_555 1_555
H20 C20 1_555 1_555
O35 Ni1 1_555 1_555
O36 N2 1_555 1_555
O37 Ni1 1_555 1_555
O38 N4 1_555 1_555
N5 Ni1 1_555 1_555
O39 H21 1_555 1_555
H22 O39 1_555 1_555
C21 N5 1_555 1_555
C22 C21 1_555 1_555
H23 C22 1_555 1_555
H24 C22 1_555 1_555
H25 C22 1_555 1_555
Mo1A O7A 1_555 1_555
Mo2A O2A 1_555 1_555
Mo3A O1A 1_555 1_555
Mo4A O2 1_555 1_555
Mo5A O6 1_555 1_555
Mo6A O2 1_555 1_555
O1A Si1 1_555 1_555
O2A Si1 1_555 1_555
O3A Mo4 1_555 1_555
O4A Mo6 1_555 1_555
O5A Mo6 1_555 1_555
O6A Mo5 1_555 1_555
O7A Mo4A 1_555 1_555
O8A Mo1A 1_555 1_555
O9A Mo2A 1_555 1_555
O10A Mo6A 1_555 1_555
O11A Mo1A 1_555 1_555
O12A Mo5A 1_555 1_555
O13A Mo3A 1_555 1_555
O14A Mo1A 1_555 1_555
O15A Mo4A 1_555 1_555
O16A Mo2A 1_555 1_555
O17A Mo4A 1_555 1_555
O18A Mo1A 1_555 1_555
O19A Mo4A 1_555 1_555
O20A Mo3A 1_555 1_555
Ni1_2 O33_2 1_555 1_555
Ni1_3 O38 1_555 1_555
O33_2 H1_2 1_555 1_555
H2_2 O33_2 1_555 1_555
O34_2 Ni1_2 1_555 1_555
H3_2 O34_2 1_555 1_555
H4_2 O34_2 1_555 1_555
N1_2 C1_2 1_555 1_555
N2_2 C6_2 1_555 1_555
N3_2 C11_2 1_555 1_555
N4_2 C16_2 1_555 1_555
C1_2 H5_2 1_555 1_555
C2_2 C1_2 1_555 1_555
H6_2 C2_2 1_555 1_555
C3_2 C2_2 1_555 1_555
C4_2 C3_2 1_555 1_555
H7_2 C4_2 1_555 1_555
C5_2 N1_2 1_555 1_555
H8_2 C5_2 1_555 1_555
C6_2 H9_2 1_555 1_555
C7_2 C6_2 1_555 1_555
H10_2 C7_2 1_555 1_555
C8_2 C3_2 1_555 1_555
C9_2 C8_2 1_555 1_555
H11_2 C9_2 1_555 1_555
C10_2 N2_2 1_555 1_555
H12_2 C10_2 1_555 1_555
C11_2 H13_2 1_555 1_555
C12_2 C11_2 1_555 1_555
H14_2 C12_2 1_555 1_555
C13_2 C12_2 1_555 1_555
C14_2 C13_2 1_555 1_555
H15_2 C14_2 1_555 1_555
C15_2 N3_2 1_555 1_555
H16_2 C15_2 1_555 1_555
C16_2 H17_2 1_555 1_555
C17_2 C16_2 1_555 1_555
H18_2 C17_2 1_555 1_555
C18_2 C13_2 1_555 1_555
C19_2 C18_2 1_555 1_555
H19_2 C19_2 1_555 1_555
C20_2 N4_2 1_555 1_555
H20_2 C20_2 1_555 1_555
O35_2 Ni1_2 1_555 1_555
O36_2 N2_2 1_555 1_555
O37_2 Ni1_2 1_555 1_555
O38_2 Ni1 1_555 1_555
O38_3 Ni1_2 1_555 1_555
N5_2 Ni1_2 1_555 1_555
C21_2 N5_2 1_555 1_555
C22_2 C21_2 1_555 1_555
H23_2 C22_2 1_555 1_555
H24_2 C22_2 1_555 1_555
H25_2 C22_2 1_555 1_555
Mo2 O8 1_555 1_555
Mo3 O14 1_555 1_555
Mo3 O16 1_555 1_555
Mo4 O2A 1_555 1_555
Mo5 O17 1_555 1_555
Mo5 O18 1_555 1_555
Mo5 O1A 1_555 1_555
Mo6 O19 1_555 1_555
Mo6 O20 1_555 1_555
Mo6 O2A 1_555 1_555
O3 Mo4A 1_555 1_555
O4 Mo6A 1_555 1_555
N1 O35 1_555 1_555
N3 O37 1_555 1_555
C4 C5 1_555 1_555
C7 C8 1_555 1_555
C9 C10 1_555 1_555
C14 C15 1_555 1_555
C17 C18 1_555 1_555
C19 C20 1_555 1_555
Mo2A O3A 1_555 1_555
Mo2A O4A 1_555 1_555
Mo2A O8A 1_555 1_555
Mo3A O6A 1_555 1_555
Mo3A O14A 1_555 1_555
Mo3A O16A 1_555 1_555
Mo5A O5A 1_555 1_555
Mo5A O17A 1_555 1_555
Mo5A O18A 1_555 1_555
Mo6A O1A 1_555 1_555
Mo6A O19A 1_555 1_555
Mo6A O20A 1_555 1_555
N1_2 O35_2 1_555 1_555
N3_2 O37_2 1_555 1_555
N4_2 O38_2 1_555 1_555
C4_2 C5_2 1_555 1_555
C7_2 C8_2 1_555 1_555
C9_2 C10_2 1_555 1_555
C14_2 C15_2 1_555 1_555
C17_2 C18_2 1_555 1_555
C19_2 C20_2 1_555 1_555

#END
