
#######################################################################
#
#                 Cambridge Crystallographic Data Centre
#                                CCDC 
#
#######################################################################
#
# If this CIF has been generated from an entry in the Cambridge 
# Structural Database, then it will include bibliographic, chemical, 
# crystal, experimental, refinement or atomic coordinate data resulting 
# from the CCDC's data processing and validation procedures.
#
#######################################################################

data_GIHYOM
_symmetry_cell_setting           triclinic
_symmetry_space_group_name_H-M   'P -1'
_symmetry_Int_Tables_number      2
_space_group_name_Hall           '-P 1'
loop_
_symmetry_equiv_pos_site_id
_symmetry_equiv_pos_as_xyz
1 x,y,z
2 -x,-y,-z
_cell_length_a                   13.210(3)
_cell_length_b                   16.532(3)
_cell_length_c                   18.518(4)
_cell_angle_alpha                88.736(4)
_cell_angle_beta                 81.983(4)
_cell_angle_gamma                83.310(4)
_cell_volume                     3977.24
loop_
_atom_site_label
_atom_site_type_symbol
_atom_site_fract_x
_atom_site_fract_y
_atom_site_fract_z
Si1 Si -0.51012(18) -0.66581(12) 0.23875(11)
Mo1 Mo -0.36613(8) -0.84846(5) 0.28112(5)
Mo2 Mo -0.43494(8) -0.82555(4) 0.11365(4)
Mo3 Mo -0.61186(7) -0.85387(4) 0.25755(5)
Mo4 Mo -0.76461(7) -0.66660(6) 0.20460(5)
Mo5 Mo -0.69506(7) -0.68973(5) 0.39061(4)
Mo6 Mo -0.45107(7) -0.68801(5) 0.41921(4)
Mo7 Mo -0.25300(7) -0.65471(6) 0.26494(5)
Mo8 Mo -0.31511(7) -0.63436(5) 0.09482(4)
Mo9 Mo -0.58460(8) -0.63460(6) 0.06406(4)
Mo10 Mo -0.66263(8) -0.48978(4) 0.18805(5)
Mo11 Mo -0.58860(8) -0.51622(4) 0.37239(4)
Mo12 Mo -0.39242(7) -0.48497(4) 0.21480(5)
O1 O -0.2839(5) -0.9238(3) 0.3114(3)
O2 O -0.3940(6) -0.8864(4) 0.0424(3)
O3 O -0.6864(6) -0.9309(4) 0.2734(4)
O4 O -0.8878(5) -0.6806(4) 0.2055(4)
O5 O -0.7944(5) -0.7158(4) 0.4520(3)
O6 O -0.3990(5) -0.7138(4) 0.4945(3)
O7 O -0.1352(5) -0.6656(4) 0.2878(4)
O8 O -0.2372(5) -0.6301(4) 0.0147(3)
O9 O -0.5950(5) -0.6347(4) -0.0257(3)
O10 O -0.7220(6) -0.3950(3) 0.1780(4)
O11 O -0.6225(6) -0.4298(3) 0.4195(3)
O12 O -0.3579(5) -0.3900(4) 0.2143(4)
O13 O -0.3483(5) -0.8779(3) 0.1804(3)
O14 O -0.5459(5) -0.8833(3) 0.1602(3)
O15 O -0.4913(5) -0.9036(3) 0.2932(3)
O16 O -0.4208(5) -0.7890(3) 0.3668(3)
O17 O -0.2803(5) -0.7660(3) 0.2580(3)
O18 O -0.3420(5) -0.7444(3) 0.0976(3)
O19 O -0.5306(5) -0.7473(3) 0.0772(3)
O20 O -0.7013(5) -0.7748(3) 0.2125(3)
O21 O -0.6499(5) -0.7918(3) 0.3422(3)
O22 O -0.5869(5) -0.7162(3) 0.4505(3)
O23 O -0.3375(5) -0.6523(3) 0.3562(3)
O24 O -0.2153(5) -0.6563(3) 0.1592(3)
O25 O -0.4498(5) -0.6111(3) 0.0650(3)
O26 O -0.7194(5) -0.6665(3) 0.1025(3)
O27 O -0.7614(5) -0.6603(3) 0.3083(3)
O28 O -0.6992(5) -0.5785(3) 0.4158(3)
O29 O -0.5037(5) -0.5756(3) 0.4376(3)
O30 O -0.2753(5) -0.5389(3) 0.2576(3)
O31 O -0.3241(5) -0.5201(3) 0.1228(3)
O32 O -0.6386(5) -0.5243(3) 0.0890(3)
O33 O -0.7803(5) -0.5486(3) 0.2010(3)
O34 O -0.6616(5) -0.4933(3) 0.2906(3)
O35 O -0.4705(4) -0.4909(3) 0.3110(3)
O36 O -0.5211(5) -0.4703(3) 0.1808(3)
O37 O -0.5488(4) -0.6468(3) 0.3249(3)
O38 O -0.4060(4) -0.6247(3) 0.2131(3)
O39 O -0.5991(5) -0.6286(3) 0.1918(3)
O40 O -0.4885(4) -0.7637(3) 0.2270(3)
Ho1 Ho -0.05099(3) -0.17282(2) 0.29478(2)
O41 O -0.0102(5) -0.1498(5) 0.1690(4)
H1 H -0.0505 -0.1262 0.1411
H2 H 0.0520 -0.1687 0.1556
O42 O -0.0817(6) -0.0301(3) 0.3035(4)
H3 H -0.1293 -0.0001 0.2861
H4 H -0.0379 -0.0132 0.3271
O43 O -0.0062(5) -0.1295(3) 0.4058(3)
H5 H -0.0335 -0.0869 0.4290
H6 H 0.0416 -0.1632 0.4188
O44 O -0.1963(5) -0.1181(4) 0.2343(3)
O45 O -0.8450(6) -0.1794(5) 0.0734(4)
O46 O -0.1930(5) -0.1871(3) 0.3821(3)
O47 O -0.8793(5) -0.1616(4) 0.2608(3)
O48 O -0.1057(5) -0.2906(3) 0.2542(3)
O49 O 0.1617(7) -0.7371(5) -0.0728(4)
O50 O 0.0487(5) -0.2840(3) 0.3427(3)
O51 O -0.1311(6) -0.8150(4) 0.5074(4)
N1 N -0.2773(6) -0.1297(4) 0.2034(4)
N2 N -0.7549(7) -0.1713(6) 0.0928(4)
N3 N -0.2892(5) -0.1856(4) 0.3748(4)
N4 N -0.7925(6) -0.1695(4) 0.2908(4)
N5 N -0.0621(6) -0.3532(4) 0.2129(4)
N6 N 0.1242(7) -0.6748(5) -0.0239(4)
N7 N 0.0193(6) -0.3564(4) 0.3646(4)
N8 N -0.1114(7) -0.7414(4) 0.4812(5)
C1 C -0.3320(8) -0.0644(5) 0.1790(5)
H7 H -0.3072 -0.0140 0.1788
C2 C -0.4238(8) -0.0702(5) 0.1543(5)
H8 H -0.4610 -0.0235 0.1384
C3 C -0.4626(7) -0.1451(5) 0.1526(4)
C4 C -0.4000(7) -0.2113(5) 0.1741(4)
H9 H -0.4203 -0.2630 0.1716
C5 C -0.3093(7) -0.2031(5) 0.1990(5)
H10 H -0.2692 -0.2492 0.2131
C6 C -0.7347(9) -0.0985(7) 0.1169(5)
H11 H -0.7864 -0.0550 0.1213
C7 C -0.6417(8) -0.0880(6) 0.1345(5)
H12 H -0.6298 -0.0371 0.1495
C8 C -0.5613(7) -0.1535(5) 0.1305(4)
C9 C -0.5862(8) -0.2273(5) 0.1059(5)
H13 H -0.5368 -0.2725 0.1023
C10 C -0.6819(8) -0.2345(6) 0.0871(5)
H14 H -0.6958 -0.2840 0.0701
C11 C -0.3442(7) -0.1140(5) 0.3611(4)
H15 H -0.3130 -0.0662 0.3591
C12 C -0.4462(7) -0.1106(5) 0.3499(4)
H16 H -0.4822 -0.0608 0.3398
C13 C -0.4952(7) -0.1808(5) 0.3535(4)
C14 C -0.4360(7) -0.2538(5) 0.3716(5)
H17 H -0.4661 -0.3021 0.3766
C15 C -0.3351(7) -0.2542(5) 0.3819(4)
H18 H -0.2980 -0.3027 0.3939
C16 C -0.7606(8) -0.1027(6) 0.3173(5)
H19 H -0.8035 -0.0537 0.3202
C17 C -0.6667(7) -0.1064(5) 0.3394(5)
H20 H -0.6457 -0.0595 0.3568
C18 C -0.6010(6) -0.1784(5) 0.3369(4)
C19 C -0.6396(8) -0.2471(5) 0.3130(5)
H21 H -0.6007 -0.2978 0.3133
C20 C -0.7329(7) -0.2406(5) 0.2895(5)
H22 H -0.7559 -0.2866 0.2721
C21 C -0.1085(8) -0.4215(5) 0.2178(5)
H23 H -0.1672 -0.4248 0.2514
C22 C -0.0695(8) -0.4868(5) 0.1733(5)
H24 H -0.1028 -0.5335 0.1766
C23 C 0.0183(7) -0.4834(5) 0.1242(5)
C24 C 0.0653(7) -0.4133(5) 0.1215(5)
H25 H 0.1248 -0.4088 0.0890
C25 C 0.0239(8) -0.3495(5) 0.1671(5)
H26 H 0.0570 -0.3028 0.1657
C26 C 0.0445(8) -0.6836(6) 0.0268(5)
H27 H 0.0122 -0.7309 0.0291
C27 C 0.0104(7) -0.6216(5) 0.0759(5)
H28 H -0.0443 -0.6276 0.1124
C28 C 0.0561(7) -0.5518(5) 0.0714(4)
C29 C 0.1395(7) -0.5462(6) 0.0185(5)
H29 H 0.1732 -0.4996 0.0154
C30 C 0.1734(8) -0.6086(6) -0.0297(5)
H30 H 0.2294 -0.6048 -0.0656
C31 C -0.0660(7) -0.3623(5) 0.4122(4)
H31 H -0.1057 -0.3154 0.4311
C32 C -0.0943(7) -0.4365(5) 0.4328(5)
H32 H -0.1552 -0.4395 0.4642
C33 C -0.0353(7) -0.5082(5) 0.4085(4)
C34 C 0.0541(9) -0.4991(5) 0.3619(5)
H33 H 0.0975 -0.5452 0.3450
C35 C 0.0802(8) -0.4236(5) 0.3402(5)
H34 H 0.1404 -0.4190 0.3084
C36 C -0.1730(8) -0.6744(6) 0.5050(6)
H35 H -0.2316 -0.6792 0.5383
C37 C -0.1506(8) -0.6002(5) 0.4810(5)
H36 H -0.1949 -0.5547 0.4980
C38 C -0.0657(7) -0.5894(5) 0.4329(5)
C39 C -0.0056(8) -0.6603(5) 0.4072(5)
H37 H 0.0513 -0.6572 0.3719
C40 C -0.0298(10) -0.7346(5) 0.4338(6)
H38 H 0.0129 -0.7813 0.4177
Ho1_2 Ho -1.05099(3) -0.17282(2) 0.29478(2)
O47_2 O 0.1207(5) -0.1616(4) 0.2608(3)
O52 O -0.1327(5) -0.0237(4) 0.5094(4)
N9 N -0.2336(6) -0.0168(5) 0.5085(4)
C41 C -0.2873(8) -0.0786(5) 0.5321(5)
H39 H -0.2536 -0.1258 0.5501
C42 C -0.3917(7) -0.0730(5) 0.5299(5)
H40 H -0.4277 -0.1164 0.5467
C43 C -0.4448(7) -0.0026(5) 0.5026(4)
C44 C -0.3870(8) 0.0604(5) 0.4817(4)
H41 H -0.4191 0.1091 0.4653
C45 C -0.2830(8) 0.0528(5) 0.4847(5)
H42 H -0.2459 0.0962 0.4701
O52A O -0.8673(5) 0.0237(4) 0.4906(4)
N9A N -0.7664(6) 0.0168(5) 0.4915(4)
C41A C -0.7127(8) 0.0786(5) 0.4679(5)
H39A H -0.7464 0.1258 0.4499
C42A C -0.6083(7) 0.0730(5) 0.4701(5)
H40A H -0.5723 0.1164 0.4533
C43A C -0.5552(7) 0.0026(5) 0.4974(4)
C44A C -0.6130(8) -0.0604(5) 0.5183(4)
H41A H -0.5809 -0.1091 0.5347
C45A C -0.7170(8) -0.0528(5) 0.5153(5)
H42A H -0.7541 -0.0962 0.5299
O53 O -0.0020(6) -0.9327(4) 0.3933(4)
O54 O -0.3343(6) -0.4453(4) 0.4189(4)
N10 N -0.858(2) -0.8955(15) 0.1352(15)
C46 C -0.933(3) -0.8800(19) 0.1832(18)
C47 C -0.9979(19) -0.8405(13) 0.2323(13)
O55 O -0.1261(13) -0.8415(9) 0.0695(8)
O56 O -0.086(2) -0.0211(14) 0.0627(13)
O57 O 0.2959(19) -0.8331(13) 0.0169(12)
O58 O 0.1854(19) -0.8724(13) -0.0179(12)
loop_
_geom_bond_atom_site_label_1
_geom_bond_atom_site_label_2
_geom_bond_site_symmetry_1
_geom_bond_site_symmetry_2
Si1 O37 1_555 1_555
Mo1 O1 1_555 1_555
Mo2 O2 1_555 1_555
Mo3 O3 1_555 1_555
Mo4 O4 1_555 1_555
Mo5 O5 1_555 1_555
Mo6 O6 1_555 1_555
Mo7 O7 1_555 1_555
Mo8 O8 1_555 1_555
Mo9 O9 1_555 1_555
Mo10 O10 1_555 1_555
Mo11 O11 1_555 1_555
Mo12 O12 1_555 1_555
O13 Mo1 1_555 1_555
O14 Mo2 1_555 1_555
O15 Mo1 1_555 1_555
O16 Mo1 1_555 1_555
O17 Mo1 1_555 1_555
O18 Mo2 1_555 1_555
O19 Mo2 1_555 1_555
O20 Mo3 1_555 1_555
O21 Mo3 1_555 1_555
O22 Mo5 1_555 1_555
O23 Mo6 1_555 1_555
O24 Mo7 1_555 1_555
O25 Mo8 1_555 1_555
O26 Mo4 1_555 1_555
O27 Mo4 1_555 1_555
O28 Mo5 1_555 1_555
O29 Mo6 1_555 1_555
O30 Mo7 1_555 1_555
O31 Mo8 1_555 1_555
O32 Mo9 1_555 1_555
O33 Mo4 1_555 1_555
O34 Mo10 1_555 1_555
O35 Mo11 1_555 1_555
O36 Mo10 1_555 1_555
O37 Mo5 1_555 1_555
O38 Si1 1_555 1_555
O39 Si1 1_555 1_555
O40 Si1 1_555 1_555
Ho1 O41 1_555 1_555
O41 H1 1_555 1_555
H2 O41 1_555 1_555
O42 Ho1 1_555 1_555
H3 O42 1_555 1_555
H4 O42 1_555 1_555
O43 Ho1 1_555 1_555
H5 O43 1_555 1_555
H6 O43 1_555 1_555
O44 Ho1 1_555 1_555
O45 N2 1_555 1_555
O46 Ho1 1_555 1_555
O47 N4 1_555 1_555
O48 Ho1 1_555 1_555
O49 N6 1_555 1_555
O50 Ho1 1_555 1_555
O51 N8 1_555 1_555
O52 N9 1_555 1_555
N1 O44 1_555 1_555
N2 C6 1_555 1_555
N3 O46 1_555 1_555
N4 C16 1_555 1_555
N5 O48 1_555 1_555
N6 C26 1_555 1_555
N7 O50 1_555 1_555
N8 C36 1_555 1_555
N9 C41 1_555 1_555
C1 N1 1_555 1_555
H7 C1 1_555 1_555
C2 C1 1_555 1_555
H8 C2 1_555 1_555
C3 C2 1_555 1_555
C4 C3 1_555 1_555
H9 C4 1_555 1_555
C5 N1 1_555 1_555
H10 C5 1_555 1_555
C6 H11 1_555 1_555
C7 C6 1_555 1_555
H12 C7 1_555 1_555
C8 C3 1_555 1_555
C9 C8 1_555 1_555
H13 C9 1_555 1_555
C10 N2 1_555 1_555
H14 C10 1_555 1_555
C11 N3 1_555 1_555
H15 C11 1_555 1_555
C12 C11 1_555 1_555
H16 C12 1_555 1_555
C13 C12 1_555 1_555
C14 C13 1_555 1_555
H17 C14 1_555 1_555
C15 N3 1_555 1_555
H18 C15 1_555 1_555
C16 H19 1_555 1_555
C17 C16 1_555 1_555
H20 C17 1_555 1_555
C18 C13 1_555 1_555
C19 C18 1_555 1_555
H21 C19 1_555 1_555
C20 N4 1_555 1_555
H22 C20 1_555 1_555
C21 N5 1_555 1_555
H23 C21 1_555 1_555
C22 C21 1_555 1_555
H24 C22 1_555 1_555
C23 C22 1_555 1_555
C24 C23 1_555 1_555
H25 C24 1_555 1_555
C25 N5 1_555 1_555
H26 C25 1_555 1_555
C26 H27 1_555 1_555
C27 C26 1_555 1_555
H28 C27 1_555 1_555
C28 C23 1_555 1_555
C29 C28 1_555 1_555
H29 C29 1_555 1_555
C30 N6 1_555 1_555
H30 C30 1_555 1_555
C31 N7 1_555 1_555
H31 C31 1_555 1_555
C32 C31 1_555 1_555
H32 C32 1_555 1_555
C33 C32 1_555 1_555
C34 C33 1_555 1_555
H33 C34 1_555 1_555
C35 N7 1_555 1_555
H34 C35 1_555 1_555
C36 H35 1_555 1_555
C37 C36 1_555 1_555
H36 C37 1_555 1_555
C38 C33 1_555 1_555
C39 C38 1_555 1_555
H37 C39 1_555 1_555
C40 N8 1_555 1_555
H38 C40 1_555 1_555
C41 H39 1_555 1_555
C42 C41 1_555 1_555
H40 C42 1_555 1_555
C43 C42 1_555 1_555
C44 C43 1_555 1_555
H41 C44 1_555 1_555
C45 N9 1_555 1_555
H42 C45 1_555 1_555
N10 C46 1_555 1_555
C46 C47 1_555 1_555
Ho1_2 O47 1_555 1_555
O47_2 Ho1 1_555 1_555
O52A N9A 1_555 1_555
N9A C41A 1_555 1_555
C41A H39A 1_555 1_555
C42A C41A 1_555 1_555
H40A C42A 1_555 1_555
C43A C43 1_555 1_555
C44A C43A 1_555 1_555
H41A C44A 1_555 1_555
C45A N9A 1_555 1_555
H42A C45A 1_555 1_555
Mo1 O40 1_555 1_555
Mo2 O13 1_555 1_555
Mo2 O40 1_555 1_555
Mo3 O14 1_555 1_555
Mo3 O15 1_555 1_555
Mo3 O40 1_555 1_555
Mo4 O20 1_555 1_555
Mo4 O39 1_555 1_555
Mo5 O21 1_555 1_555
Mo5 O27 1_555 1_555
Mo6 O16 1_555 1_555
Mo6 O22 1_555 1_555
Mo6 O37 1_555 1_555
Mo7 O17 1_555 1_555
Mo7 O23 1_555 1_555
Mo7 O38 1_555 1_555
Mo8 O18 1_555 1_555
Mo8 O24 1_555 1_555
Mo8 O38 1_555 1_555
Mo9 O19 1_555 1_555
Mo9 O25 1_555 1_555
Mo9 O26 1_555 1_555
Mo9 O39 1_555 1_555
Mo10 O32 1_555 1_555
Mo10 O33 1_555 1_555
Mo10 O39 1_555 1_555
Mo11 O28 1_555 1_555
Mo11 O29 1_555 1_555
Mo11 O34 1_555 1_555
Mo11 O37 1_555 1_555
Mo12 O30 1_555 1_555
Mo12 O31 1_555 1_555
Mo12 O35 1_555 1_555
Mo12 O36 1_555 1_555
Mo12 O38 1_555 1_555
C4 C5 1_555 1_555
C7 C8 1_555 1_555
C9 C10 1_555 1_555
C14 C15 1_555 1_555
C17 C18 1_555 1_555
C19 C20 1_555 1_555
C24 C25 1_555 1_555
C27 C28 1_555 1_555
C29 C30 1_555 1_555
C34 C35 1_555 1_555
C37 C38 1_555 1_555
C39 C40 1_555 1_555
C44 C45 1_555 1_555
C42A C43A 1_555 1_555
C44A C45A 1_555 1_555

#END
