
#######################################################################
#
#                 Cambridge Crystallographic Data Centre
#                                CCDC 
#
#######################################################################
#
# If this CIF has been generated from an entry in the Cambridge 
# Structural Database, then it will include bibliographic, chemical, 
# crystal, experimental, refinement or atomic coordinate data resulting 
# from the CCDC's data processing and validation procedures.
#
#######################################################################

data_GIHYIG
_symmetry_cell_setting           triclinic
_symmetry_space_group_name_H-M   'P -1'
_symmetry_Int_Tables_number      2
_space_group_name_Hall           '-P 1'
loop_
_symmetry_equiv_pos_site_id
_symmetry_equiv_pos_as_xyz
1 x,y,z
2 -x,-y,-z
_cell_length_a                   13.222(3)
_cell_length_b                   16.498(4)
_cell_length_c                   18.489(5)
_cell_angle_alpha                88.827(4)
_cell_angle_beta                 82.058(5)
_cell_angle_gamma                83.139(5)
_cell_volume                     3965.81
loop_
_atom_site_label
_atom_site_type_symbol
_atom_site_fract_x
_atom_site_fract_y
_atom_site_fract_z
Si1 Si -0.51003(15) -0.66557(11) 0.23846(11)
Mo1 Mo -0.36845(7) -0.84917(4) 0.28194(5)
Mo2 Mo -0.43274(7) -0.82555(4) 0.11316(4)
Mo3 Mo -0.61219(6) -0.85366(4) 0.25510(5)
Mo4 Mo -0.76516(6) -0.66493(5) 0.20523(5)
Mo5 Mo -0.69368(6) -0.69142(5) 0.39057(4)
Mo6 Mo -0.45069(6) -0.68665(5) 0.41879(4)
Mo7 Mo -0.25340(6) -0.65650(5) 0.26382(5)
Mo8 Mo -0.31749(6) -0.63259(6) 0.09447(4)
Mo9 Mo -0.58570(7) -0.63618(6) 0.06395(4)
Mo10 Mo -0.66074(7) -0.48940(4) 0.18660(5)
Mo11 Mo -0.59127(7) -0.51623(4) 0.37234(4)
Mo12 Mo -0.39287(6) -0.48524(4) 0.21701(5)
O1 O -0.2865(5) -0.9249(3) 0.3125(4)
O2 O -0.3926(6) -0.8860(4) 0.0411(3)
O3 O -0.6853(6) -0.9311(4) 0.2713(4)
O4 O -0.8897(5) -0.6788(4) 0.2057(4)
O5 O -0.7907(5) -0.7177(4) 0.4514(3)
O6 O -0.3984(5) -0.7133(4) 0.4945(3)
O7 O -0.1361(5) -0.6673(5) 0.2871(4)
O8 O -0.2386(5) -0.6285(4) 0.0147(3)
O9 O -0.5961(5) -0.6346(4) -0.0253(3)
O10 O -0.7211(5) -0.3955(3) 0.1780(4)
O11 O -0.6252(5) -0.4305(3) 0.4193(3)
O12 O -0.3599(5) -0.3902(4) 0.2164(4)
O13 O -0.3478(4) -0.8782(3) 0.1799(3)
O14 O -0.5441(4) -0.8834(3) 0.1594(3)
O15 O -0.4927(5) -0.9036(3) 0.2925(3)
O16 O -0.4208(4) -0.7892(3) 0.3667(3)
O17 O -0.2806(4) -0.7663(3) 0.2580(3)
O18 O -0.3417(4) -0.7436(3) 0.0976(3)
O19 O -0.5294(4) -0.7474(3) 0.0767(3)
O20 O -0.7010(4) -0.7742(3) 0.2119(3)
O21 O -0.6507(4) -0.7921(3) 0.3418(3)
O22 O -0.5864(4) -0.7159(3) 0.4501(3)
O23 O -0.3392(4) -0.6529(3) 0.3551(3)
O24 O -0.2165(4) -0.6559(3) 0.1587(3)
O25 O -0.4499(4) -0.6108(3) 0.0643(3)
O26 O -0.7203(4) -0.6654(3) 0.1023(3)
O27 O -0.7602(4) -0.6601(3) 0.3081(3)
O28 O -0.6987(4) -0.5785(3) 0.4156(3)
O29 O -0.5050(5) -0.5754(3) 0.4376(3)
O30 O -0.2758(4) -0.5404(3) 0.2584(3)
O31 O -0.3257(4) -0.5196(3) 0.1228(3)
O32 O -0.6380(5) -0.5256(3) 0.0885(3)
O33 O -0.7798(4) -0.5474(3) 0.2008(3)
O34 O -0.6624(4) -0.4931(3) 0.2901(3)
O35 O -0.4720(4) -0.4923(3) 0.3110(3)
O36 O -0.5219(4) -0.4702(3) 0.1814(3)
O37 O -0.5491(4) -0.6470(3) 0.3243(3)
O38 O -0.4063(4) -0.6247(3) 0.2133(3)
O39 O -0.5996(4) -0.6279(3) 0.1913(3)
O40 O -0.4889(4) -0.7633(3) 0.2269(3)
Gd1 Gd -0.05223(3) -0.17320(2) 0.29408(2)
O41 O -0.0087(5) -0.1529(6) 0.1653(4)
H1 H -0.0491 -0.1292 0.1374
H2 H 0.0534 -0.1718 0.1520
O42 O -0.0827(6) -0.0275(4) 0.3020(4)
H3 H -0.1303 0.0025 0.2847
H4 H -0.0389 -0.0106 0.3256
O43 O -0.0066(5) -0.1279(3) 0.4068(3)
H5 H -0.0339 -0.0853 0.4299
H6 H 0.0413 -0.1616 0.4198
O44 O -0.1983(4) -0.1202(4) 0.2338(3)
O45 O -0.8461(5) -0.1787(6) 0.0715(4)
O46 O -0.1930(4) -0.1880(3) 0.3839(3)
O47 O -0.8773(4) -0.1625(4) 0.2587(3)
O48 O -0.1041(5) -0.2942(4) 0.2521(4)
O49 O 0.1569(8) -0.7385(5) -0.0752(5)
O50 O 0.0474(4) -0.2852(3) 0.3452(4)
O51 O -0.1293(5) -0.8164(4) 0.5042(5)
N1 N -0.2796(5) -0.1310(4) 0.2032(4)
N2 N -0.7546(6) -0.1714(5) 0.0905(4)
N3 N -0.2923(5) -0.1863(4) 0.3757(3)
N4 N -0.7915(5) -0.1703(4) 0.2892(4)
N5 N -0.0619(5) -0.3570(4) 0.2120(4)
N6 N 0.1230(7) -0.6795(5) -0.0263(5)
N7 N 0.0194(5) -0.3562(4) 0.3651(4)
N8 N -0.1093(6) -0.7425(4) 0.4798(5)
C1 C -0.3345(7) -0.0654(5) 0.1792(5)
H7 H -0.3102 -0.0148 0.1791
C2 C -0.4269(7) -0.0716(5) 0.1545(5)
H8 H -0.4643 -0.0249 0.1385
C3 C -0.4654(6) -0.1462(4) 0.1528(4)
C4 C -0.4024(6) -0.2132(5) 0.1734(5)
H9 H -0.4223 -0.2650 0.1699
C5 C -0.3113(6) -0.2053(4) 0.1988(4)
H10 H -0.2712 -0.2514 0.2131
C6 C -0.7359(7) -0.0985(7) 0.1145(5)
H11 H -0.7874 -0.0546 0.1175
C7 C -0.6426(7) -0.0884(6) 0.1346(5)
H12 H -0.6306 -0.0378 0.1508
C8 C -0.5654(6) -0.1543(5) 0.1306(4)
C9 C -0.5884(7) -0.2280(5) 0.1058(5)
H13 H -0.5388 -0.2732 0.1023
C10 C -0.6836(7) -0.2350(6) 0.0863(5)
H14 H -0.6980 -0.2848 0.0701
C11 C -0.3466(6) -0.1147(4) 0.3618(4)
H15 H -0.3156 -0.0669 0.3603
C12 C -0.4478(6) -0.1112(5) 0.3496(4)
H16 H -0.4834 -0.0615 0.3385
C13 C -0.4962(6) -0.1808(5) 0.3536(4)
C14 C -0.4379(6) -0.2540(5) 0.3721(4)
H17 H -0.4679 -0.3024 0.3772
C15 C -0.3384(6) -0.2538(5) 0.3825(5)
H18 H -0.3013 -0.3025 0.3947
C16 C -0.7605(7) -0.1020(5) 0.3157(5)
H19 H -0.8034 -0.0530 0.3180
C17 C -0.6662(6) -0.1060(5) 0.3386(5)
H20 H -0.6452 -0.0594 0.3564
C18 C -0.6012(6) -0.1790(5) 0.3357(4)
C19 C -0.6405(6) -0.2470(5) 0.3125(5)
H21 H -0.6019 -0.2980 0.3130
C20 C -0.7340(6) -0.2406(5) 0.2891(5)
H22 H -0.7576 -0.2869 0.2728
C21 C -0.1075(7) -0.4249(5) 0.2167(5)
H23 H -0.1662 -0.4281 0.2502
C22 C -0.0683(7) -0.4910(5) 0.1721(5)
H24 H -0.1012 -0.5380 0.1758
C23 C 0.0186(6) -0.4879(5) 0.1223(5)
C24 C 0.0660(7) -0.4166(6) 0.1215(5)
H25 H 0.1265 -0.4127 0.0901
C25 C 0.0255(7) -0.3532(6) 0.1656(6)
H26 H 0.0585 -0.3063 0.1639
C26 C 0.0427(8) -0.6867(6) 0.0234(5)
H27 H 0.0099 -0.7337 0.0250
C27 C 0.0072(7) -0.6249(6) 0.0729(5)
H28 H -0.0494 -0.6300 0.1080
C28 C 0.0562(6) -0.5558(5) 0.0697(5)
C29 C 0.1393(7) -0.5509(6) 0.0166(5)
H29 H 0.1731 -0.5044 0.0132
C30 C 0.1721(7) -0.6127(6) -0.0305(5)
H30 H 0.2287 -0.6090 -0.0659
C31 C -0.0678(6) -0.3615(5) 0.4120(5)
H31 H -0.1089 -0.3144 0.4296
C32 C -0.0949(7) -0.4372(5) 0.4332(5)
H32 H -0.1549 -0.4404 0.4655
C33 C -0.0367(6) -0.5084(4) 0.4084(4)
C34 C 0.0540(7) -0.4994(5) 0.3618(6)
H33 H 0.0970 -0.5458 0.3445
C35 C 0.0805(7) -0.4261(5) 0.3415(5)
H34 H 0.1416 -0.4223 0.3107
C36 C -0.1738(7) -0.6746(6) 0.5032(6)
H35 H -0.2334 -0.6798 0.5352
C37 C -0.1521(7) -0.6022(5) 0.4809(6)
H36 H -0.1968 -0.5567 0.4981
C38 C -0.0646(6) -0.5906(5) 0.4322(5)
C39 C -0.0025(8) -0.6611(5) 0.4066(6)
H37 H 0.0550 -0.6579 0.3720
C40 C -0.0276(9) -0.7351(5) 0.4333(6)
H38 H 0.0154 -0.7820 0.4175
Gd1_2 Gd -1.05223(3) -0.17320(2) 0.29408(2)
O47_2 O 0.1227(4) -0.1625(4) 0.2587(3)
O52 O -0.1343(5) -0.0217(4) 0.5101(4)
N9 N -0.2350(5) -0.0159(4) 0.5094(4)
C41 C -0.2874(7) -0.0782(5) 0.5321(5)
H39 H -0.2533 -0.1258 0.5490
C42 C -0.3919(7) -0.0720(5) 0.5304(5)
H40 H -0.4278 -0.1151 0.5480
C43 C -0.4449(6) -0.0028(5) 0.5030(4)
C44 C -0.3863(7) 0.0609(5) 0.4824(4)
H41 H -0.4186 0.1095 0.4658
C45 C -0.2847(7) 0.0545(5) 0.4858(5)
H42 H -0.2483 0.0984 0.4720
O52A O -0.8657(5) 0.0217(4) 0.4899(4)
N9A N -0.7650(5) 0.0159(4) 0.4906(4)
C41A C -0.7126(7) 0.0782(5) 0.4679(5)
H39A H -0.7467 0.1258 0.4510
C42A C -0.6081(7) 0.0720(5) 0.4696(5)
H40A H -0.5722 0.1151 0.4520
C43A C -0.5551(6) 0.0028(5) 0.4970(4)
C44A C -0.6137(7) -0.0609(5) 0.5176(4)
H41A H -0.5814 -0.1095 0.5342
C45A C -0.7153(7) -0.0545(5) 0.5142(5)
H42A H -0.7517 -0.0984 0.5280
O53 O -0.0015(6) -0.9309(4) 0.3919(4)
O54 O -0.3350(6) -0.4451(5) 0.4194(4)
O55 O -0.8725(13) -0.1578(10) 0.9301(9)
N10 N -0.997(2) -0.8406(16) 0.2346(15)
C46 C -0.924(3) -0.883(2) 0.182(2)
C47 C -0.852(3) -0.890(2) 0.1317(19)
O56 O 0.294(2) -0.8387(17) 0.0198(15)
O57 O 0.181(3) -0.880(2) -0.0202(19)
O58 O -0.089(2) -0.0180(19) 0.0588(18)
loop_
_geom_bond_atom_site_label_1
_geom_bond_atom_site_label_2
_geom_bond_site_symmetry_1
_geom_bond_site_symmetry_2
Si1 O37 1_555 1_555
Mo1 O1 1_555 1_555
Mo2 O2 1_555 1_555
Mo3 O3 1_555 1_555
Mo4 O4 1_555 1_555
Mo5 O5 1_555 1_555
Mo6 O6 1_555 1_555
Mo7 O7 1_555 1_555
Mo8 O8 1_555 1_555
Mo9 O9 1_555 1_555
Mo10 O10 1_555 1_555
Mo11 O11 1_555 1_555
Mo12 O12 1_555 1_555
O13 Mo1 1_555 1_555
O14 Mo2 1_555 1_555
O15 Mo1 1_555 1_555
O16 Mo1 1_555 1_555
O17 Mo1 1_555 1_555
O18 Mo2 1_555 1_555
O19 Mo2 1_555 1_555
O20 Mo3 1_555 1_555
O21 Mo3 1_555 1_555
O22 Mo5 1_555 1_555
O23 Mo6 1_555 1_555
O24 Mo7 1_555 1_555
O25 Mo8 1_555 1_555
O26 Mo4 1_555 1_555
O27 Mo4 1_555 1_555
O28 Mo5 1_555 1_555
O29 Mo6 1_555 1_555
O30 Mo7 1_555 1_555
O31 Mo8 1_555 1_555
O32 Mo9 1_555 1_555
O33 Mo4 1_555 1_555
O34 Mo10 1_555 1_555
O35 Mo11 1_555 1_555
O36 Mo10 1_555 1_555
O37 Mo5 1_555 1_555
O38 Si1 1_555 1_555
O39 Si1 1_555 1_555
O40 Si1 1_555 1_555
Gd1 O41 1_555 1_555
O41 H1 1_555 1_555
H2 O41 1_555 1_555
O42 Gd1 1_555 1_555
H3 O42 1_555 1_555
H4 O42 1_555 1_555
O43 Gd1 1_555 1_555
H5 O43 1_555 1_555
H6 O43 1_555 1_555
O44 Gd1 1_555 1_555
O45 N2 1_555 1_555
O46 Gd1 1_555 1_555
O47 N4 1_555 1_555
O48 Gd1 1_555 1_555
O49 N6 1_555 1_555
O50 Gd1 1_555 1_555
O51 N8 1_555 1_555
O52 N9 1_555 1_555
N1 O44 1_555 1_555
N2 C6 1_555 1_555
N3 O46 1_555 1_555
N4 C16 1_555 1_555
N5 O48 1_555 1_555
N6 C26 1_555 1_555
N7 O50 1_555 1_555
N8 C36 1_555 1_555
N9 C41 1_555 1_555
C1 N1 1_555 1_555
H7 C1 1_555 1_555
C2 C1 1_555 1_555
H8 C2 1_555 1_555
C3 C2 1_555 1_555
C4 C3 1_555 1_555
H9 C4 1_555 1_555
C5 N1 1_555 1_555
H10 C5 1_555 1_555
C6 H11 1_555 1_555
C7 C6 1_555 1_555
H12 C7 1_555 1_555
C8 C3 1_555 1_555
C9 C8 1_555 1_555
H13 C9 1_555 1_555
C10 N2 1_555 1_555
H14 C10 1_555 1_555
C11 N3 1_555 1_555
H15 C11 1_555 1_555
C12 C11 1_555 1_555
H16 C12 1_555 1_555
C13 C12 1_555 1_555
C14 C13 1_555 1_555
H17 C14 1_555 1_555
C15 N3 1_555 1_555
H18 C15 1_555 1_555
C16 H19 1_555 1_555
C17 C16 1_555 1_555
H20 C17 1_555 1_555
C18 C13 1_555 1_555
C19 C18 1_555 1_555
H21 C19 1_555 1_555
C20 N4 1_555 1_555
H22 C20 1_555 1_555
C21 N5 1_555 1_555
H23 C21 1_555 1_555
C22 C21 1_555 1_555
H24 C22 1_555 1_555
C23 C22 1_555 1_555
C24 C23 1_555 1_555
H25 C24 1_555 1_555
C25 N5 1_555 1_555
H26 C25 1_555 1_555
C26 H27 1_555 1_555
C27 C26 1_555 1_555
H28 C27 1_555 1_555
C28 C23 1_555 1_555
C29 C28 1_555 1_555
H29 C29 1_555 1_555
C30 N6 1_555 1_555
H30 C30 1_555 1_555
C31 N7 1_555 1_555
H31 C31 1_555 1_555
C32 C31 1_555 1_555
H32 C32 1_555 1_555
C33 C32 1_555 1_555
C34 C33 1_555 1_555
H33 C34 1_555 1_555
C35 N7 1_555 1_555
H34 C35 1_555 1_555
C36 H35 1_555 1_555
C37 C36 1_555 1_555
H36 C37 1_555 1_555
C38 C33 1_555 1_555
C39 C38 1_555 1_555
H37 C39 1_555 1_555
C40 N8 1_555 1_555
H38 C40 1_555 1_555
C41 H39 1_555 1_555
C42 C41 1_555 1_555
H40 C42 1_555 1_555
C43 C42 1_555 1_555
C44 C43 1_555 1_555
H41 C44 1_555 1_555
C45 N9 1_555 1_555
H42 C45 1_555 1_555
N10 C46 1_555 1_555
C46 C47 1_555 1_555
Gd1_2 O47 1_555 1_555
O47_2 Gd1 1_555 1_555
O52A N9A 1_555 1_555
N9A C41A 1_555 1_555
C41A H39A 1_555 1_555
C42A C41A 1_555 1_555
H40A C42A 1_555 1_555
C43A C43 1_555 1_555
C44A C43A 1_555 1_555
H41A C44A 1_555 1_555
C45A N9A 1_555 1_555
H42A C45A 1_555 1_555
Mo1 O40 1_555 1_555
Mo2 O13 1_555 1_555
Mo2 O40 1_555 1_555
Mo3 O14 1_555 1_555
Mo3 O15 1_555 1_555
Mo3 O40 1_555 1_555
Mo4 O20 1_555 1_555
Mo4 O39 1_555 1_555
Mo5 O21 1_555 1_555
Mo5 O27 1_555 1_555
Mo6 O16 1_555 1_555
Mo6 O22 1_555 1_555
Mo6 O37 1_555 1_555
Mo7 O17 1_555 1_555
Mo7 O23 1_555 1_555
Mo7 O38 1_555 1_555
Mo8 O18 1_555 1_555
Mo8 O24 1_555 1_555
Mo8 O38 1_555 1_555
Mo9 O19 1_555 1_555
Mo9 O25 1_555 1_555
Mo9 O26 1_555 1_555
Mo9 O39 1_555 1_555
Mo10 O32 1_555 1_555
Mo10 O33 1_555 1_555
Mo10 O39 1_555 1_555
Mo11 O28 1_555 1_555
Mo11 O29 1_555 1_555
Mo11 O34 1_555 1_555
Mo11 O37 1_555 1_555
Mo12 O30 1_555 1_555
Mo12 O31 1_555 1_555
Mo12 O35 1_555 1_555
Mo12 O36 1_555 1_555
Mo12 O38 1_555 1_555
C4 C5 1_555 1_555
C7 C8 1_555 1_555
C9 C10 1_555 1_555
C14 C15 1_555 1_555
C17 C18 1_555 1_555
C19 C20 1_555 1_555
C24 C25 1_555 1_555
C27 C28 1_555 1_555
C29 C30 1_555 1_555
C34 C35 1_555 1_555
C37 C38 1_555 1_555
C39 C40 1_555 1_555
C44 C45 1_555 1_555
C42A C43A 1_555 1_555
C44A C45A 1_555 1_555

#END
