
#######################################################################
#
#                 Cambridge Crystallographic Data Centre
#                                CCDC 
#
#######################################################################
#
# If this CIF has been generated from an entry in the Cambridge 
# Structural Database, then it will include bibliographic, chemical, 
# crystal, experimental, refinement or atomic coordinate data resulting 
# from the CCDC's data processing and validation procedures.
#
#######################################################################

data_GIHZAZ
_symmetry_cell_setting           cubic
_symmetry_space_group_name_H-M   'I m -3'
_symmetry_Int_Tables_number      204
_space_group_name_Hall           '-I 2 2 3'
loop_
_symmetry_equiv_pos_site_id
_symmetry_equiv_pos_as_xyz
1 x,y,z
2 z,x,y
3 y,z,x
4 1/2+x,1/2+y,1/2+z
5 1/2+z,1/2+x,1/2+y
6 1/2+y,1/2+z,1/2+x
7 -x,-y,z
8 -x,y,-z
9 x,-y,-z
10 z,-x,-y
11 -z,-x,y
12 -z,x,-y
13 -y,z,-x
14 y,-z,-x
15 -y,-z,x
16 1/2-x,1/2-y,1/2+z
17 1/2-x,1/2+y,1/2-z
18 1/2+x,1/2-y,1/2-z
19 1/2+z,1/2-x,1/2-y
20 1/2-z,1/2-x,1/2+y
21 1/2-z,1/2+x,1/2-y
22 1/2-y,1/2+z,1/2-x
23 1/2+y,1/2-z,1/2-x
24 1/2-y,1/2-z,1/2+x
25 -x,-y,-z
26 -z,-x,-y
27 -y,-z,-x
28 1/2-x,1/2-y,1/2-z
29 1/2-z,1/2-x,1/2-y
30 1/2-y,1/2-z,1/2-x
31 x,y,-z
32 x,-y,z
33 -x,y,z
34 -z,x,y
35 z,x,-y
36 z,-x,y
37 y,-z,x
38 -y,z,x
39 y,z,-x
40 1/2+x,1/2+y,1/2-z
41 1/2+x,1/2-y,1/2+z
42 1/2-x,1/2+y,1/2+z
43 1/2-z,1/2+x,1/2+y
44 1/2+z,1/2+x,1/2-y
45 1/2+z,1/2-x,1/2+y
46 1/2+y,1/2-z,1/2+x
47 1/2-y,1/2+z,1/2+x
48 1/2+y,1/2+z,1/2-x
_cell_length_a                   23.1330(11)
_cell_length_b                   23.1330(11)
_cell_length_c                   23.1330(11)
_cell_angle_alpha                90
_cell_angle_beta                 90
_cell_angle_gamma                90
_cell_volume                     12379.3
loop_
_atom_site_label
_atom_site_type_symbol
_atom_site_fract_x
_atom_site_fract_y
_atom_site_fract_z
Ni1 Ni 0.2500 0.2500 0.2500
O12 O 0.2092(4) 0.2756(4) 0.1765(4)
N1 N 0.1508(5) 0.2773(5) 0.1764(5)
C1 C 0.1237(6) 0.2468(6) 0.1372(6)
H1 H 0.1442 0.2247 0.1107
C2 C 0.0646(6) 0.2483(6) 0.1358(6)
H2 H 0.0454 0.2245 0.1097
C3 C 0.0325(5) 0.2832(6) 0.1713(6)
C4 C 0.0639(5) 0.3169(6) 0.2097(6)
H3 H 0.0440 0.3414 0.2347
C5 C 0.1248(6) 0.3154(6) 0.2124(6)
H4 H 0.1458 0.3390 0.2373
Ni1FA Ni -0.2500 0.2500 0.2500
Ni1EA Ni 0.2500 -0.2500 0.2500
Ni1DA Ni 0.2500 0.2500 -0.2500
O12A O 0.1765(4) 0.2092(4) 0.2756(4)
O12B O 0.2756(4) 0.1765(4) 0.2092(4)
O12AA O 0.2908(4) 0.2244(4) 0.3235(4)
O12BA O 0.3235(4) 0.2908(4) 0.2244(4)
O12CA O 0.2244(4) 0.3235(4) 0.2908(4)
O12FA O -0.2092(4) 0.2756(4) 0.1765(4)
O12IA O 0.1765(4) -0.2092(4) 0.2756(4)
O12LA O 0.2756(4) 0.1765(4) -0.2092(4)
N1A N 0.1764(5) 0.1508(5) 0.2773(5)
N1B N 0.2773(5) 0.1764(5) 0.1508(5)
N1FA N -0.1508(5) 0.2773(5) 0.1764(5)
N1IA N 0.1764(5) -0.1508(5) 0.2773(5)
N1LA N 0.2773(5) 0.1764(5) -0.1508(5)
C1A C 0.1372(6) 0.1237(6) 0.2468(6)
C1B C 0.2468(6) 0.1372(6) 0.1237(6)
C1FA C -0.1237(6) 0.2468(6) 0.1372(6)
C1IA C 0.1372(6) -0.1237(6) 0.2468(6)
C1LA C 0.2468(6) 0.1372(6) -0.1237(6)
H1A H 0.1107 0.1442 0.2247
H1B H 0.2247 0.1107 0.1442
H1FA H -0.1442 0.2247 0.1107
H1IA H 0.1107 -0.1442 0.2247
H1LA H 0.2247 0.1107 -0.1442
C2FA C -0.0646(6) 0.2483(6) 0.1358(6)
C2A C 0.1358(6) 0.0646(6) 0.2483(6)
C2B C 0.2483(6) 0.1358(6) 0.0646(6)
C2IA C 0.1358(6) -0.0646(6) 0.2483(6)
C2LA C 0.2483(6) 0.1358(6) -0.0646(6)
H2FA H -0.0454 0.2245 0.1097
H2A H 0.1097 0.0454 0.2245
H2B H 0.2245 0.1097 0.0454
H2IA H 0.1097 -0.0454 0.2245
H2LA H 0.2245 0.1097 -0.0454
C3FA C -0.0325(5) 0.2832(6) 0.1713(6)
C3A C 0.1713(6) 0.0325(5) 0.2832(6)
C3B C 0.2832(6) 0.1713(6) 0.0325(5)
C3IA C 0.1713(6) -0.0325(5) 0.2832(6)
C3LA C 0.2832(6) 0.1713(6) -0.0325(5)
C4FA C -0.0639(5) 0.3169(6) 0.2097(6)
C4A C 0.2097(6) 0.0639(5) 0.3169(6)
C4B C 0.3169(6) 0.2097(6) 0.0639(5)
C4IA C 0.2097(6) -0.0639(5) 0.3169(6)
C4LA C 0.3169(6) 0.2097(6) -0.0639(5)
H3FA H -0.0440 0.3414 0.2347
H3A H 0.2347 0.0440 0.3414
H3B H 0.3414 0.2347 0.0440
H3IA H 0.2347 -0.0440 0.3414
H3LA H 0.3414 0.2347 -0.0440
C5A C 0.2124(6) 0.1248(6) 0.3154(6)
C5B C 0.3154(6) 0.2124(6) 0.1248(6)
C5FA C -0.1248(6) 0.3154(6) 0.2124(6)
C5IA C 0.2124(6) -0.1248(6) 0.3154(6)
C5LA C 0.3154(6) 0.2124(6) -0.1248(6)
H4A H 0.2373 0.1458 0.3390
H4B H 0.3390 0.2373 0.1458
H4FA H -0.1458 0.3390 0.2373
H4IA H 0.2373 -0.1458 0.3390
H4LA H 0.3390 0.2373 -0.1458
O13 O 0.6056(12) 0.3342(12) 0.5000
O15 O 0.5000 0.5000 0.5000
O16 O 0.6009(7) 0.3991(7) 0.3991(7)
C6 C 0.7530(11) 0.1552(14) 0.5000
H5 H 0.7768 0.1584 0.5339
H6 H 0.7339 0.1184 0.5000
C7 C 0.7116(11) 0.1981(11) 0.5000
N2 N 0.6743(14) 0.2362(10) 0.5000
H5DA H 0.7768 0.1584 0.4661
W1 W 0.39126(3) 0.07665(2) 0.42300(3)
W2 W 0.5000 0.15366(5) 0.5000
W3 W 0.5000 0.0000 0.34565(5)
P1 P 0.5000 0.0000 0.5000
O1 O 0.4676(11) 0.0519(12) 0.5000
O3 O 0.3646(7) 0.0801(6) 0.5000
O4 O 0.4432(5) 0.1380(5) 0.4436(4)
O5 O 0.5000 0.2238(9) 0.5000
O6 O 0.5000 0.0000 0.2721(9)
O7 O 0.3390(5) 0.1116(5) 0.3886(5)
O8 O 0.4569(9) 0.0562(9) 0.3747(9)
O9 O 0.3776(13) 0.0000 0.4314(12)
W1DA W 0.39126(3) 0.07665(2) 0.57700(3)
W1EA W 0.39126(3) -0.07665(2) 0.42300(3)
W1FA W 0.60874(3) 0.07665(2) 0.42300(3)
W1G W 0.60874(3) 0.07665(2) 0.57700(3)
W1F W 0.60874(3) -0.07665(2) 0.42300(3)
W1H W 0.39126(3) -0.07665(2) 0.57700(3)
W1X W 0.60874(3) -0.07665(2) 0.57700(3)
W2EA W 0.5000 -0.15366(5) 0.5000
W3DA W 0.5000 0.0000 0.65435(5)
O1FA O 0.5324(11) 0.0519(12) 0.5000
O1EA O 0.4676(11) -0.0519(12) 0.5000
O1X O 0.5324(11) -0.0519(12) 0.5000
O3EA O 0.3646(7) -0.0801(6) 0.5000
O3FA O 0.6354(7) 0.0801(6) 0.5000
O3X O 0.6354(7) -0.0801(6) 0.5000
O4DA O 0.4432(5) 0.1380(5) 0.5564(4)
O4FA O 0.5568(5) 0.1380(5) 0.4436(4)
O4G O 0.5568(5) 0.1380(5) 0.5564(4)
O4EA O 0.4432(5) -0.1380(5) 0.4436(4)
O4F O 0.5568(5) -0.1380(5) 0.4436(4)
O4H O 0.4432(5) -0.1380(5) 0.5564(4)
O4X O 0.5568(5) -0.1380(5) 0.5564(4)
O5EA O 0.5000 -0.2238(9) 0.5000
O6DA O 0.5000 0.0000 0.7279(9)
O7DA O 0.3390(5) 0.1116(5) 0.6114(5)
O7EA O 0.3390(5) -0.1116(5) 0.3886(5)
O7FA O 0.6610(5) 0.1116(5) 0.3886(5)
O7G O 0.6610(5) 0.1116(5) 0.6114(5)
O7F O 0.6610(5) -0.1116(5) 0.3886(5)
O7H O 0.3390(5) -0.1116(5) 0.6114(5)
O7X O 0.6610(5) -0.1116(5) 0.6114(5)
O8EA O 0.4569(9) -0.0562(9) 0.3747(9)
O8FA O 0.5431(9) 0.0562(9) 0.3747(9)
O8F O 0.5431(9) -0.0562(9) 0.3747(9)
O8DA O 0.4569(9) 0.0562(9) 0.6253(9)
O8G O 0.5431(9) 0.0562(9) 0.6253(9)
O8X O 0.5431(9) -0.0562(9) 0.6253(9)
O8H O 0.4569(9) -0.0562(9) 0.6253(9)
O9DA O 0.3776(13) 0.0000 0.5686(12)
O9FA O 0.6224(13) 0.0000 0.4314(12)
O9X O 0.6224(13) 0.0000 0.5686(12)
O2? O 0.4573(12) 0.0000 0.4459(11)
O10? O 0.4357(9) 0.0595(9) 0.3550(9)
O11? O 0.3507(12) 0.0000 0.4097(12)
O14? O 0.5000 0.353(3) 0.463(3)
loop_
_geom_bond_atom_site_label_1
_geom_bond_atom_site_label_2
_geom_bond_site_symmetry_1
_geom_bond_site_symmetry_2
W1 O3 1_555 1_555
W2 O1 1_555 1_555
W3 O6 1_555 1_555
P1 O1 1_555 1_555
O1 O1FA 1_555 1_555
O3 W1DA 1_555 1_555
O4 W1 1_555 1_555
O5 W2 1_555 1_555
O7 W1 1_555 1_555
O8 W1 1_555 1_555
O9 W1 1_555 1_555
Ni1 O12 1_555 1_555
O12 N1 1_555 1_555
N1 C1 1_555 1_555
C1 H1 1_555 1_555
C2 C1 1_555 1_555
H2 C2 1_555 1_555
C3 C2 1_555 1_555
C4 C3 1_555 1_555
H3 C4 1_555 1_555
C5 N1 1_555 1_555
H4 C5 1_555 1_555
C6 H5 1_555 1_555
H6 C6 1_555 1_555
C7 C6 1_555 1_555
N2 C7 1_555 1_555
W1DA O4DA 1_555 1_555
W1EA O9 1_555 1_555
W1FA O3FA 1_555 1_555
W1G O3FA 1_555 1_555
W1F O3X 1_555 1_555
W1H O3EA 1_555 1_555
W1X O3X 1_555 1_555
W2EA O4EA 1_555 1_555
W3DA O6DA 1_555 1_555
O1FA W2 1_555 1_555
O1EA P1 1_555 1_555
O1X P1 1_555 1_555
O3EA W1EA 1_555 1_555
O4DA W2 1_555 1_555
O4FA W2 1_555 1_555
O4G W2 1_555 1_555
O4EA W1EA 1_555 1_555
O4F W1F 1_555 1_555
O4H W1H 1_555 1_555
O4X W1X 1_555 1_555
O5EA W2EA 1_555 1_555
O7DA W1DA 1_555 1_555
O7EA W1EA 1_555 1_555
O7FA W1FA 1_555 1_555
O7G W1G 1_555 1_555
O7F W1F 1_555 1_555
O7H W1H 1_555 1_555
O7X W1X 1_555 1_555
O8EA W3 1_555 1_555
O8FA W3 1_555 1_555
O8F W3 1_555 1_555
O8DA W1DA 1_555 1_555
O8G W1G 1_555 1_555
O8X W1X 1_555 1_555
O8H W1H 1_555 1_555
O9DA W1DA 1_555 1_555
O9FA W1FA 1_555 1_555
O9X W1G 1_555 1_555
Ni1FA O12FA 1_555 1_555
Ni1EA O12IA 1_555 1_555
Ni1DA O12LA 1_555 1_555
O12A Ni1 1_555 1_555
O12B Ni1 1_555 1_555
O12AA Ni1 1_555 1_555
O12BA Ni1 1_555 1_555
O12CA Ni1 1_555 1_555
O12FA N1FA 1_555 1_555
O12IA N1IA 1_555 1_555
O12LA N1LA 1_555 1_555
N1A O12A 1_555 1_555
N1B O12B 1_555 1_555
N1FA C1FA 1_555 1_555
N1IA C1IA 1_555 1_555
N1LA C1LA 1_555 1_555
C1A N1A 1_555 1_555
C1B N1B 1_555 1_555
C1FA H1FA 1_555 1_555
C1IA H1IA 1_555 1_555
C1LA H1LA 1_555 1_555
H1A C1A 1_555 1_555
H1B C1B 1_555 1_555
C2FA C1FA 1_555 1_555
C2A C1A 1_555 1_555
C2B C1B 1_555 1_555
C2IA C1IA 1_555 1_555
C2LA C1LA 1_555 1_555
H2FA C2FA 1_555 1_555
H2A C2A 1_555 1_555
H2B C2B 1_555 1_555
H2IA C2IA 1_555 1_555
H2LA C2LA 1_555 1_555
C3FA C3 1_555 1_555
C3A C2A 1_555 1_555
C3B C2B 1_555 1_555
C3IA C2IA 1_555 1_555
C3LA C2LA 1_555 1_555
C4FA C3FA 1_555 1_555
C4A C3A 1_555 1_555
C4B C3B 1_555 1_555
C4IA C3IA 1_555 1_555
C4LA C3LA 1_555 1_555
H3FA C4FA 1_555 1_555
H3A C4A 1_555 1_555
H3B C4B 1_555 1_555
H3IA C4IA 1_555 1_555
H3LA C4LA 1_555 1_555
C5A N1A 1_555 1_555
C5B N1B 1_555 1_555
C5FA N1FA 1_555 1_555
C5IA N1IA 1_555 1_555
C5LA N1LA 1_555 1_555
H4A C5A 1_555 1_555
H4B C5B 1_555 1_555
H4FA C5FA 1_555 1_555
H4IA C5IA 1_555 1_555
H4LA C5LA 1_555 1_555
H5DA C6 1_555 1_555
W2 O4 1_555 1_555
W3 O8 1_555 1_555
P1 O1FA 1_555 1_555
C4 C5 1_555 1_555
W1EA O8EA 1_555 1_555
W1FA O4FA 1_555 1_555
W1FA O8FA 1_555 1_555
W1G O4G 1_555 1_555
W1F O8F 1_555 1_555
W1F O9FA 1_555 1_555
W1H O9DA 1_555 1_555
W1X O9X 1_555 1_555
W2EA O4F 1_555 1_555
W2EA O4H 1_555 1_555
W2EA O4X 1_555 1_555
W3DA O8DA 1_555 1_555
W3DA O8G 1_555 1_555
W3DA O8X 1_555 1_555
W3DA O8H 1_555 1_555
O1EA O1X 1_555 1_555
C2FA C3FA 1_555 1_555
C3A C3IA 1_555 1_555
C3B C3LA 1_555 1_555
C4FA C5FA 1_555 1_555
C4A C5A 1_555 1_555
C4B C5B 1_555 1_555
C4IA C5IA 1_555 1_555
C4LA C5LA 1_555 1_555

#END
