
#######################################################################
#
#                 Cambridge Crystallographic Data Centre
#                                CCDC 
#
#######################################################################
#
# If this CIF has been generated from an entry in the Cambridge 
# Structural Database, then it will include bibliographic, chemical, 
# crystal, experimental, refinement or atomic coordinate data resulting 
# from the CCDC's data processing and validation procedures.
#
#######################################################################

data_GIJBOQ
_symmetry_cell_setting           triclinic
_symmetry_space_group_name_H-M   'P -1'
_symmetry_Int_Tables_number      2
_space_group_name_Hall           '-P 1'
loop_
_symmetry_equiv_pos_site_id
_symmetry_equiv_pos_as_xyz
1 x,y,z
2 -x,-y,-z
_cell_length_a                   12.731(3)
_cell_length_b                   14.389(3)
_cell_length_c                   12.604(3)
_cell_angle_alpha                103.41(2)
_cell_angle_beta                 106.43(2)
_cell_angle_gamma                64.90(2)
_cell_volume                     1988.75
loop_
_atom_site_label
_atom_site_type_symbol
_atom_site_fract_x
_atom_site_fract_y
_atom_site_fract_z
O5 O 0.429(1) 0.7501(9) 0.140(1)
C1 C 0.521(2) 0.658(2) 0.108(2)
O6 O 0.389(2) 0.181(2) 0.374(2)
C2 C 0.463(4) 0.098(3) 0.440(3)
O7 O 0.123(4) 0.257(3) 0.313(4)
C3 C 0.178(3) 0.178(3) 0.368(3)
Ru1 Ru 0.08886(6) 0.00681(5) 0.04594(6)
Ru2 Ru 0.43890(6) 0.00376(5) 0.05382(6)
Cl1 Cl 0.2908(2) 0.0137(2) 0.1619(2)
Cl2 Cl -0.2589(3) 0.6484(2) -0.0728(4)
Cl3 Cl -0.2098(4) 0.1524(5) 0.6354(3)
Cl4 Cl 1.0840(5) -0.4413(4) 0.4032(4)
Cl5 Cl 0.3550(5) -0.5283(3) -0.3974(5)
O1 O 0.0209(5) 0.1604(5) 0.0287(6)
O2 O 0.0358(5) 0.0454(5) 0.1946(5)
O3 O 0.5781(5) -0.0979(5) 0.1509(5)
O4 O 0.4087(6) -0.1195(5) -0.0473(6)
N1 N 0.1552(6) -0.1457(6) 0.0605(6)
N2 N 0.1349(5) -0.0282(5) -0.1048(5)
N3 N 0.3020(6) 0.1028(5) -0.0455(6)
N4 N 0.4759(6) 0.1242(5) 0.1574(6)
C4 C -0.0889(8) 0.2019(7) -0.0217(7)
C5 C -0.1374(8) 0.3144(7) -0.0316(8)
C6 C -0.077(1) 0.3728(8) 0.037(1)
C7 C -0.119(1) 0.4764(8) 0.027(1)
C8 C -0.217(1) 0.5173(8) -0.056(1)
C9 C -0.2790(9) 0.4618(7) -0.125(1)
C10 C -0.2377(9) 0.3491(8) -0.1118(9)
C11 C -0.0652(7) 0.0474(7) 0.1955(7)
C12 C -0.1006(8) 0.0720(7) 0.3051(7)
C13 C -0.1902(9) 0.0483(9) 0.3153(8)
C14 C -0.228(1) 0.072(1) 0.416(1)
C15 C -0.166(1) 0.122(1) 0.5051(9)
C16 C -0.073(1) 0.148(1) 0.500(1)
C17 C -0.041(1) 0.118(1) 0.3960(9)
C18 C 0.6818(7) -0.1327(6) 0.1289(8)
C19 C 0.7818(9) -0.2074(8) 0.1985(8)
C20 C 0.9000(9) -0.2403(9) 0.1854(9)
C21 C 0.991(1) -0.3121(9) 0.247(1)
C22 C 0.968(1) -0.349(1) 0.325(1)
C23 C 0.853(1) -0.314(1) 0.345(1)
C24 C 0.763(1) -0.240(1) 0.281(1)
C25 C 0.4585(8) -0.1612(7) -0.1327(8)
C26 C 0.431(1) -0.2508(8) -0.201(1)
C27 C 0.477(1) -0.3001(9) -0.295(1)
C28 C 0.454(1) -0.388(1) -0.356(1)
C29 C 0.383(1) -0.420(1) -0.322(1)
C30 C 0.338(1) -0.3712(9) -0.227(1)
C31 C 0.359(1) -0.2856(9) -0.167(1)
Ru1A Ru -0.08886(6) -0.00681(5) -0.04594(6)
Ru2A Ru 0.56110(6) -0.00376(5) -0.05382(6)
C4A C 0.0889(8) -0.2019(7) 0.0217(7)
C11A C 0.0652(7) -0.0474(7) -0.1955(7)
C18A C 0.3182(7) 0.1327(6) -0.1289(8)
C25A C 0.5415(8) 0.1612(7) 0.1327(8)
N1A N -0.1552(6) 0.1457(6) -0.0605(6)
N2A N -0.1349(5) 0.0282(5) 0.1048(5)
N3A N 0.6980(6) -0.1028(5) 0.0455(6)
N4A N 0.5241(6) -0.1242(5) -0.1574(6)
Cl1A Cl -0.2908(2) -0.0137(2) -0.1619(2)
O1A O -0.0209(5) -0.1604(5) -0.0287(6)
O2A O -0.0358(5) -0.0454(5) -0.1946(5)
Cl1A_2 Cl 0.7092(2) -0.0137(2) -0.1619(2)
O3A O 0.4219(5) 0.0979(5) -0.1509(5)
O4A O 0.5913(6) 0.1195(5) 0.0473(6)
C5A C 0.1374(8) -0.3144(7) 0.0316(8)
C12A C 0.1006(8) -0.0720(7) -0.3051(7)
C19A C 0.2182(9) 0.2074(8) -0.1985(8)
C26A C 0.569(1) 0.2508(8) 0.201(1)
Ru2A_2 Ru -0.43890(6) -0.00376(5) -0.05382(6)
C6A C 0.077(1) -0.3728(8) -0.037(1)
C10A C 0.2377(9) -0.3491(8) 0.1118(9)
C13A C 0.1902(9) -0.0483(9) -0.3153(8)
C17A C 0.041(1) -0.118(1) -0.3960(9)
C20A C 0.1000(9) 0.2403(9) -0.1854(9)
C24A C 0.237(1) 0.240(1) -0.281(1)
C27A C 0.523(1) 0.3001(9) 0.295(1)
C31A C 0.641(1) 0.2856(9) 0.167(1)
C7A C 0.119(1) -0.4764(8) -0.027(1)
C9A C 0.2790(9) -0.4618(7) 0.125(1)
C14A C 0.228(1) -0.072(1) -0.416(1)
C16A C 0.073(1) -0.148(1) -0.500(1)
C21A C 0.009(1) 0.3121(9) -0.247(1)
C23A C 0.147(1) 0.314(1) -0.345(1)
C28A C 0.546(1) 0.388(1) 0.356(1)
C30A C 0.662(1) 0.3712(9) 0.227(1)
C8A C 0.217(1) -0.5173(8) 0.056(1)
C15A C 0.166(1) -0.122(1) -0.5051(9)
C22A C 0.032(1) 0.349(1) -0.325(1)
C29A C 0.617(1) 0.420(1) 0.322(1)
Cl2A Cl 0.2589(3) -0.6484(2) 0.0728(4)
Cl3A Cl 0.2098(4) -0.1524(5) -0.6354(3)
Cl4A Cl -0.0840(5) 0.4413(4) -0.4032(4)
Cl5A Cl 0.6450(5) 0.5283(3) 0.3974(5)
loop_
_geom_bond_atom_site_label_1
_geom_bond_atom_site_label_2
_geom_bond_site_symmetry_1
_geom_bond_site_symmetry_2
Ru1 Cl1 1_555 1_555
Ru2 Cl1 1_555 1_555
Cl2 C8 1_555 1_555
Cl3 C15 1_555 1_555
Cl4 C22 1_555 1_555
Cl5 C29 1_555 1_555
O1 Ru1 1_555 1_555
O2 Ru1 1_555 1_555
O3 Ru2 1_555 1_555
O4 Ru2 1_555 1_555
O5 C1 1_555 1_555
O6 C2 1_555 1_555
O7 C3 1_555 1_555
N1 Ru1 1_555 1_555
N2 Ru1 1_555 1_555
N3 Ru2 1_555 1_555
N4 Ru2 1_555 1_555
C4 O1 1_555 1_555
C5 C4 1_555 1_555
C6 C5 1_555 1_555
C7 C6 1_555 1_555
C8 C7 1_555 1_555
C9 C8 1_555 1_555
C10 C5 1_555 1_555
C11 O2 1_555 1_555
C12 C11 1_555 1_555
C13 C12 1_555 1_555
C14 C13 1_555 1_555
C15 C14 1_555 1_555
C16 C15 1_555 1_555
C17 C12 1_555 1_555
C18 O3 1_555 1_555
C19 C18 1_555 1_555
C20 C19 1_555 1_555
C21 C20 1_555 1_555
C22 C21 1_555 1_555
C23 C22 1_555 1_555
C24 C19 1_555 1_555
C25 O4 1_555 1_555
C26 C25 1_555 1_555
C27 C26 1_555 1_555
C28 C27 1_555 1_555
C29 C28 1_555 1_555
C30 C29 1_555 1_555
C31 C26 1_555 1_555
Ru1A Ru1 1_555 1_555
Ru2A Ru2 1_555 1_555
C4A N1 1_555 1_555
C11A N2 1_555 1_555
C18A N3 1_555 1_555
C25A N4 1_555 1_555
N1A C4 1_555 1_555
N2A C11 1_555 1_555
N3A C18 1_555 1_555
N4A C25 1_555 1_555
Cl1A Ru1A 1_555 1_555
O1A Ru1A 1_555 1_555
O2A Ru1A 1_555 1_555
Cl1A_2 Ru2A 1_555 1_555
O3A Ru2A 1_555 1_555
O4A Ru2A 1_555 1_555
C5A C4A 1_555 1_555
C12A C11A 1_555 1_555
C19A C18A 1_555 1_555
C26A C25A 1_555 1_555
Ru2A_2 Cl1A 1_555 1_555
C6A C5A 1_555 1_555
C10A C5A 1_555 1_555
C13A C12A 1_555 1_555
C17A C12A 1_555 1_555
C20A C19A 1_555 1_555
C24A C19A 1_555 1_555
C27A C26A 1_555 1_555
C31A C26A 1_555 1_555
C7A C6A 1_555 1_555
C9A C10A 1_555 1_555
C14A C13A 1_555 1_555
C16A C17A 1_555 1_555
C21A C20A 1_555 1_555
C23A C24A 1_555 1_555
C28A C27A 1_555 1_555
C30A C31A 1_555 1_555
C8A C7A 1_555 1_555
C15A C14A 1_555 1_555
C22A C21A 1_555 1_555
C29A C28A 1_555 1_555
Cl2A C8A 1_555 1_555
Cl3A C15A 1_555 1_555
Cl4A C22A 1_555 1_555
Cl5A C29A 1_555 1_555
C9 C10 1_555 1_555
C16 C17 1_555 1_555
C23 C24 1_555 1_555
C30 C31 1_555 1_555
Ru1A N1A 1_555 1_555
Ru1A N2A 1_555 1_555
Ru2A N3A 1_555 1_555
Ru2A N4A 1_555 1_555
C4A O1A 1_555 1_555
C11A O2A 1_555 1_555
C18A O3A 1_555 1_555
C25A O4A 1_555 1_555
C9A C8A 1_555 1_555
C16A C15A 1_555 1_555
C23A C22A 1_555 1_555
C30A C29A 1_555 1_555

#END
