
#######################################################################
#
#                 Cambridge Crystallographic Data Centre
#                                CCDC 
#
#######################################################################
#
# If this CIF has been generated from an entry in the Cambridge 
# Structural Database, then it will include bibliographic, chemical, 
# crystal, experimental, refinement or atomic coordinate data resulting 
# from the CCDC's data processing and validation procedures.
#
#######################################################################

data_GIJDEI
_symmetry_cell_setting           monoclinic
_symmetry_space_group_name_H-M   'C 2/c'
_symmetry_Int_Tables_number      15
_space_group_name_Hall           '-C 2yn'
loop_
_symmetry_equiv_pos_site_id
_symmetry_equiv_pos_as_xyz
1 x,y,z
2 1/2+x,1/2+y,z
3 -x,y,1/2-z
4 1/2-x,1/2+y,1/2-z
5 -x,-y,-z
6 1/2-x,1/2-y,-z
7 x,-y,1/2+z
8 1/2+x,1/2-y,1/2+z
_cell_length_a                   18.91(2)
_cell_length_b                   14.583(4)
_cell_length_c                   13.705(8)
_cell_angle_alpha                90
_cell_angle_beta                 118.82(6)
_cell_angle_gamma                90
_cell_volume                     3311.24
loop_
_atom_site_label
_atom_site_type_symbol
_atom_site_fract_x
_atom_site_fract_y
_atom_site_fract_z
Br1 Br -0.30746(8) 0.8370(1) 0.0461(1)
Cu1 Cu -0.1741(1) 0.7933(1) 0.0728(2)
Co1 Co 0.00000 0.8971(2) 0.2500
S1 S -0.0663(2) 0.7742(3) 0.2705(3)
C1 C 0.00000 0.7074(15) 0.2500
N1 N 0.00000 0.6162(13) 0.2500
C2 C 0.0636(10) 0.5636(12) 0.2396(18)
C3 C 0.0355(12) 0.5274(18) 0.1347(21)
S2 S -0.0952(2) 0.9178(2) 0.0674(3)
S3 S -0.0824(2) 1.0032(3) 0.2598(3)
C4 C -0.1356(7) 1.0015(9) 0.1156(11)
N2 N -0.1941(6) 1.0568(8) 0.0547(10)
C5 C -0.2193(9) 1.1277(1) 0.1075(13)
C6 C -0.2786(9) 1.0956(13) 0.1431(14)
C7 C -0.2335(9) 1.0504(11) -0.0665(13)
C8 C -0.2025(11) 1.1177(13) -0.1160(13)
H1 H 0.112 0.600 0.263
H2 H 0.084 0.511 0.294
H3 H -0.010 0.490 0.113
H4 H 0.019 0.580 0.082
H5 H 0.077 0.496 0.128
H6 H -0.172 1.150 0.173
H7 H -0.243 1.179 0.058
H8 H -0.327 1.074 0.081
H9 H -0.257 1.045 0.195
H10 H -0.295 1.141 0.180
H11 H -0.224 0.989 -0.088
H12 H -0.291 1.056 -0.101
H13 H -0.212 1.178 -0.098
H14 H -0.145 1.110 -0.085
H15 H -0.227 1.112 -0.195
Cu1E Cu -0.3259(1) 0.7067(1) -0.0728(2)
Br1E Br -0.19254(8) 0.6630(1) -0.0461(1)
S1B S 0.0663(2) 0.7742(3) 0.2295(3)
S2B S 0.0952(2) 0.9178(2) 0.4326(3)
S3B S 0.0824(2) 1.0032(3) 0.2402(3)
C2B C -0.0636(10) 0.5636(12) 0.2604(18)
S1E S -0.4337(2) 0.7258(3) -0.2705(3)
S2E S -0.4048(2) 0.5822(2) -0.0674(3)
Cu1B Cu 0.1741(1) 0.7933(1) 0.4272(2)
C4B C 0.1356(7) 1.0015(9) 0.3844(11)
C3B C -0.0355(12) 0.5274(18) 0.3653(21)
H1B H -0.112 0.600 0.237
H2B H -0.084 0.511 0.206
Co1E Co -0.50000 0.6029(2) -0.2500
C1E C -0.50000 0.7926(15) -0.2500
C4E C -0.3644(7) 0.4985(9) -0.1156(11)
Br1B Br 0.30746(8) 0.8370(1) 0.4539(1)
Br1G Br 0.19254(8) 0.6630(1) 0.5461(1)
N2B N 0.1941(6) 1.0568(8) 0.4453(10)
H3B H 0.010 0.490 0.387
H4B H -0.019 0.580 0.418
H5B H -0.077 0.496 0.372
S1G S -0.5663(2) 0.7258(3) -0.2295(3)
S2G S -0.5952(2) 0.5822(2) -0.4326(3)
S3E S -0.4176(2) 0.4968(3) -0.2598(3)
S3G S -0.5824(2) 0.4968(3) -0.2402(3)
N1E N -0.50000 0.8838(13) -0.2500
N2E N -0.3059(6) 0.4432(8) -0.0547(10)
Cu1G Cu 0.3259(1) 0.7067(1) 0.5728(2)
C5B C 0.2193(9) 1.1277(1) 0.3925(13)
C7B C 0.2335(9) 1.0504(11) 0.5665(13)
Cu1G_2 Cu -0.6741(1) 0.7067(1) -0.4272(2)
C4G C -0.6356(7) 0.4985(9) -0.3844(11)
C2E C -0.5636(10) 0.9364(12) -0.2396(18)
C2G C -0.4364(10) 0.9364(12) -0.2604(18)
C5E C -0.2807(9) 0.3723(1) -0.1075(13)
C7E C -0.2665(9) 0.4496(11) 0.0665(13)
C6B C 0.2786(9) 1.0956(13) 0.3569(14)
H6B H 0.172 1.150 0.327
H7B H 0.243 1.179 0.442
C8B C 0.2025(11) 1.1177(13) 0.6160(13)
H11B H 0.224 0.989 0.588
H12B H 0.291 1.056 0.601
N2G N -0.6941(6) 0.4432(8) -0.4453(10)
C3E C -0.5355(12) 0.9726(18) -0.1347(21)
H1E H -0.612 0.900 -0.263
H2E H -0.584 0.989 -0.294
C3G C -0.4645(12) 0.9726(18) -0.3653(21)
H1G H -0.388 0.900 -0.237
H2G H -0.416 0.989 -0.206
C6E C -0.2214(9) 0.4044(13) -0.1431(14)
H6E H -0.328 0.350 -0.173
H7E H -0.257 0.321 -0.058
C8E C -0.2975(11) 0.3823(13) 0.1160(13)
H11E H -0.276 0.511 0.088
H12E H -0.209 0.444 0.101
H8B H 0.327 1.074 0.419
H9B H 0.257 1.045 0.305
H10B H 0.295 1.141 0.320
H13B H 0.212 1.178 0.598
H14B H 0.145 1.110 0.585
H15B H 0.227 1.112 0.695
C5G C -0.7193(9) 0.3723(1) -0.3925(13)
C7G C -0.7335(9) 0.4496(11) -0.5665(13)
H3E H -0.490 1.010 -0.113
H4E H -0.519 0.920 -0.082
H5E H -0.577 1.004 -0.128
H3G H -0.510 1.010 -0.387
H4G H -0.481 0.920 -0.418
H5G H -0.423 1.004 -0.372
H8E H -0.173 0.426 -0.081
H9E H -0.243 0.455 -0.195
H10E H -0.205 0.359 -0.180
H13E H -0.288 0.322 0.098
H14E H -0.355 0.390 0.085
H15E H -0.273 0.388 0.195
C6G C -0.7786(9) 0.4044(13) -0.3569(14)
H6G H -0.672 0.350 -0.327
H7G H -0.743 0.321 -0.442
C8G C -0.7025(11) 0.3823(13) -0.6160(13)
H11G H -0.724 0.511 -0.588
H12G H -0.791 0.444 -0.601
H8G H -0.827 0.426 -0.419
H9G H -0.757 0.455 -0.305
H10G H -0.795 0.359 -0.320
H13G H -0.712 0.322 -0.598
H14G H -0.645 0.390 -0.585
H15G H -0.727 0.388 -0.695
Br1B_2 Br -0.69254(8) 0.8370(1) -0.5461(1)
Br1G_2 Br -0.80746(8) 0.6630(1) -0.4539(1)
N3 N 0.590(1) 0.807(2) 0.384(2)
C9 C 0.539(1) 0.776(2) 0.393(2)
C10 C 0.473(1) 0.739(1) 0.404(2)
H16 H 0.496 0.677 0.450
H17 H 0.426 0.724 0.334
H18 H 0.454 0.777 0.445
loop_
_geom_bond_atom_site_label_1
_geom_bond_atom_site_label_2
_geom_bond_site_symmetry_1
_geom_bond_site_symmetry_2
Br1 Cu1 1_555 1_555
Cu1 S1 1_555 1_555
Co1 S1 1_555 1_555
S1 C1 1_555 1_555
C1 N1 1_555 1_555
N1 C2 1_555 1_555
C2 C3 1_555 1_555
C3 H3 1_555 1_555
S2 Cu1 1_555 1_555
S3 Co1 1_555 1_555
C4 S2 1_555 1_555
N2 C4 1_555 1_555
C5 N2 1_555 1_555
C6 C5 1_555 1_555
C7 N2 1_555 1_555
C8 C7 1_555 1_555
N3 C9 1_555 1_555
C9 C10 1_555 1_555
C10 H16 1_555 1_555
H1 C2 1_555 1_555
H2 C2 1_555 1_555
H4 C3 1_555 1_555
H5 C3 1_555 1_555
H6 C5 1_555 1_555
H7 C5 1_555 1_555
H8 C6 1_555 1_555
H9 C6 1_555 1_555
H10 C6 1_555 1_555
H11 C7 1_555 1_555
H12 C7 1_555 1_555
H13 C8 1_555 1_555
H14 C8 1_555 1_555
H15 C8 1_555 1_555
H17 C10 1_555 1_555
H18 C10 1_555 1_555
Cu1E Br1 1_555 1_555
Br1E Cu1 1_555 1_555
S1B Co1 1_555 1_555
S2B Co1 1_555 1_555
S3B Co1 1_555 1_555
C2B N1 1_555 1_555
S1E Cu1E 1_555 1_555
S2E Cu1E 1_555 1_555
Cu1B S1B 1_555 1_555
C4B S2B 1_555 1_555
C3B C2B 1_555 1_555
H1B C2B 1_555 1_555
H2B C2B 1_555 1_555
Co1E S1E 1_555 1_555
C1E S1E 1_555 1_555
C4E S2E 1_555 1_555
Br1B Cu1B 1_555 1_555
Br1G Cu1B 1_555 1_555
N2B C4B 1_555 1_555
H3B C3B 1_555 1_555
H4B C3B 1_555 1_555
H5B C3B 1_555 1_555
S1G Co1E 1_555 1_555
S2G Co1E 1_555 1_555
S3E Co1E 1_555 1_555
S3G Co1E 1_555 1_555
N1E C1E 1_555 1_555
N2E C4E 1_555 1_555
Cu1G Br1B 1_555 1_555
C5B N2B 1_555 1_555
C7B N2B 1_555 1_555
Cu1G_2 S1G 1_555 1_555
C4G S2G 1_555 1_555
C2E N1E 1_555 1_555
C2G N1E 1_555 1_555
C5E N2E 1_555 1_555
C7E N2E 1_555 1_555
C6B C5B 1_555 1_555
H6B C5B 1_555 1_555
H7B C5B 1_555 1_555
C8B C7B 1_555 1_555
H11B C7B 1_555 1_555
H12B C7B 1_555 1_555
N2G C4G 1_555 1_555
C3E C2E 1_555 1_555
H1E C2E 1_555 1_555
H2E C2E 1_555 1_555
C3G C2G 1_555 1_555
H1G C2G 1_555 1_555
H2G C2G 1_555 1_555
C6E C5E 1_555 1_555
H6E C5E 1_555 1_555
H7E C5E 1_555 1_555
C8E C7E 1_555 1_555
H11E C7E 1_555 1_555
H12E C7E 1_555 1_555
H8B C6B 1_555 1_555
H9B C6B 1_555 1_555
H10B C6B 1_555 1_555
H13B C8B 1_555 1_555
H14B C8B 1_555 1_555
H15B C8B 1_555 1_555
C5G N2G 1_555 1_555
C7G N2G 1_555 1_555
H3E C3E 1_555 1_555
H4E C3E 1_555 1_555
H5E C3E 1_555 1_555
H3G C3G 1_555 1_555
H4G C3G 1_555 1_555
H5G C3G 1_555 1_555
H8E C6E 1_555 1_555
H9E C6E 1_555 1_555
H10E C6E 1_555 1_555
H13E C8E 1_555 1_555
H14E C8E 1_555 1_555
H15E C8E 1_555 1_555
C6G C5G 1_555 1_555
H6G C5G 1_555 1_555
H7G C5G 1_555 1_555
C8G C7G 1_555 1_555
H11G C7G 1_555 1_555
H12G C7G 1_555 1_555
H8G C6G 1_555 1_555
H9G C6G 1_555 1_555
H10G C6G 1_555 1_555
H13G C8G 1_555 1_555
H14G C8G 1_555 1_555
H15G C8G 1_555 1_555
Br1B_2 Cu1G_2 1_555 1_555
Br1G_2 Cu1G_2 1_555 1_555
Co1 S2 1_555 1_555
C1 S1B 1_555 1_555
S3 C4 1_555 1_555
Cu1E Br1E 1_555 1_555
S2B Cu1B 1_555 1_555
S3B C4B 1_555 1_555
S2E Co1E 1_555 1_555
C1E S1G 1_555 1_555
C4E S3E 1_555 1_555
Br1G Cu1G 1_555 1_555
S2G Cu1G_2 1_555 1_555
S3G C4G 1_555 1_555

#END
