
#######################################################################
#
#                 Cambridge Crystallographic Data Centre
#                                CCDC 
#
#######################################################################
#
# If this CIF has been generated from an entry in the Cambridge 
# Structural Database, then it will include bibliographic, chemical, 
# crystal, experimental, refinement or atomic coordinate data resulting 
# from the CCDC's data processing and validation procedures.
#
#######################################################################

data_GIJJOZ
_symmetry_cell_setting           monoclinic
_symmetry_space_group_name_H-M   'P n'
_symmetry_Int_Tables_number      7
_space_group_name_Hall           'P -2yn'
loop_
_symmetry_equiv_pos_site_id
_symmetry_equiv_pos_as_xyz
1 x,y,z
2 1/2+x,1/2-y,1/2+z
_cell_length_a                   16.419(8)
_cell_length_b                   7.373(3)
_cell_length_c                   16.462(8)
_cell_angle_alpha                90
_cell_angle_beta                 103.290(8)
_cell_angle_gamma                90
_cell_volume                     1939.47
loop_
_atom_site_label
_atom_site_type_symbol
_atom_site_fract_x
_atom_site_fract_y
_atom_site_fract_z
S1 S 0.2681(3) 0.7189(6) 0.5944(5)
K1 K 0.0961(3) 0.7042(5) 0.4277(4)
K2 K -0.0286(3) 1.2051(5) 0.5524(5)
S2 S 0.1367(3) 1.2239(6) 0.7238(5)
S3 S 0.0519(3) 0.2195(6) 0.3776(4)
K3 K 0.2174(4) 0.2051(6) 0.5509(5)
K4 K 0.0941(4) 0.7085(6) 0.6743(5)
K5 K -0.1265(3) 0.4965(7) 0.2716(5)
S4 S -0.0793(4) 0.7227(7) 0.5083(5)
N1 N 0.1394(11) 1.4908(19) 0.8326(17)
N2 N -0.1843(11) 1.001(2) 0.5038(17)
N3 N 0.0481(13) 0.511(2) 0.2732(19)
O1 O -0.0671(9) 0.5464(16) 0.5594(14)
O2 O -0.1141(11) 0.689(2) 0.4222(16)
O3 O -0.0055(9) 0.8436(16) 0.5168(13)
C1 C 0.2301(12) 0.179(4) 0.302(2)
H1 H 0.2152 0.0907 0.3395
H2 H 0.2837 0.2299 0.3275
H3 H 0.2326 0.1210 0.2507
O4 O 0.2230(11) 1.197(2) 0.7550(15)
O5 O 0.0899(10) 1.0534(19) 0.7066(15)
O6 O 0.1312(10) 1.3537(17) 0.6512(14)
C2 C -0.1512(14) 0.848(3) 0.550(2)
O7 O 0.0694(12) 0.3352(19) 0.4578(16)
O8 O 0.1043(13) 0.0685(17) 0.3957(17)
O9 O -0.0345(10) 0.188(2) 0.3412(17)
N4 N -0.2265(12) 0.970(3) 0.6186(17)
H4 H -0.2531 0.9936 0.6566
N5 N 0.1698(12) 0.442(3) 0.2331(18)
N6 N 0.0213(13) 1.480(2) 0.8761(19)
C3 C 0.149(2) 1.848(3) 0.900(3)
H5 H 0.1204 1.9625 0.8940
H6 H 0.1568 1.8084 0.8471
H7 H 0.2021 1.8599 0.9387
C4 C 0.0985(15) 1.344(2) 0.796(2)
C5 C 0.0914(15) 0.345(3) 0.305(2)
C6 C -0.1450(17) 0.703(5) 0.694(2)
H8 H -0.0859 0.6813 0.7026
H9 H -0.1745 0.5899 0.6833
H10 H -0.1563 0.7578 0.7433
C7 C 0.1642(14) 0.329(3) 0.285(2)
C8 C 0.0253(17) 1.330(3) 0.815(2)
C9 C -0.0559(15) 1.254(3) 0.794(2)
H11 H -0.0518 1.1259 0.7842
H12 H -0.0879 1.3107 0.7444
H13 H -0.0830 1.2723 0.8391
C10 C -0.2312(15) 1.060(3) 0.554(2)
C11 C 0.0748(18) 0.729(3) 0.181(2)
H14 H 0.0286 0.7772 0.2016
H15 H 0.0511 0.6888 0.1241
C12 C -0.2897(15) 1.240(3) 0.514(2)
H16 H -0.2791 1.2760 0.4611
H17 H -0.3488 1.2137 0.5070
C13 C 0.0989(15) 0.584(3) 0.224(2)
C14 C -0.1734(17) 0.828(4) 0.621(2)
C15 C 0.0958(17) 1.549(3) 0.879(2)
C16 C -0.2639(18) 1.382(3) 0.576(2)
H18 H -0.3071 1.4013 0.6060
H19 H -0.2541 1.4921 0.5490
H20 H -0.2133 1.3456 0.6149
O10 O 0.3011(11) 0.6826(17) 0.6822(16)
C17 C 0.3383(17) 0.847(3) 0.552(3)
O11 O 0.1953(10) 0.8140(16) 0.5801(15)
O12 O 0.2388(10) 0.582(2) 0.5404(16)
N7 N 0.3748(14) 0.9896(19) 0.596(2)
N8 N 0.4159(15) 0.989(3) 0.479(2)
H21 H 0.4367 1.0235 0.4379
C18 C 0.4205(18) 1.063(3) 0.552(3)
C19 C 0.3651(19) 0.832(3) 0.487(3)
C20 C 0.340(2) 0.708(4) 0.407(3)
H22 H 0.3243 0.7822 0.3580
H23 H 0.2928 0.6330 0.4114
H24 H 0.3860 0.6317 0.4028
C21 C 0.4775(17) 1.212(3) 0.564(3)
H25 H 0.4842 1.2593 0.5107
H26 H 0.5319 1.1770 0.5971
C22 C 0.1297(17) 0.889(3) 0.173(2)
H27 H 0.1101 0.9452 0.1194
H28 H 0.1863 0.8489 0.1787
H29 H 0.1275 0.9756 0.2161
C23 C 0.4328(19) 1.365(3) 0.613(3)
H30 H 0.4517 1.4838 0.6030
H31 H 0.4476 1.3405 0.6723
H32 H 0.3731 1.3582 0.5937
C24 C 0.102(2) 1.725(3) 0.930(3)
H33 H 0.0469 1.7736 0.9263
H34 H 0.1278 1.6997 0.9877
K6 K -0.1850(4) 1.0003(8) 0.3310(5)
K1_2 K 0.0961(3) -0.2958(5) 0.4277(4)
K2_2 K -0.0286(3) 0.2051(5) 0.5524(5)
K3_2 K 0.2174(4) 1.2051(6) 0.5509(5)
K4_2 K 0.0941(4) 1.7085(6) 0.6743(5)
K5A K 0.3735(3) 1.0035(7) 0.7716(5)
K5_2 K -0.1265(3) 1.4965(7) 0.2716(5)
N1_2 N 0.1394(11) 0.4908(19) 0.8326(17)
N1A N -0.3606(11) 1.0092(19) 0.3326(17)
O1_2 O -0.0671(9) 1.5464(16) 0.5594(14)
O4A O -0.2770(11) 0.303(2) 0.2550(15)
O4A_2 O -0.2770(11) 1.303(2) 0.2550(15)
O6_2 O 0.1312(10) 0.3537(17) 0.6512(14)
O7_2 O 0.0694(12) 1.3352(19) 0.4578(16)
O8_2 O 0.1043(13) 1.0685(17) 0.3957(17)
O9_2 O -0.0345(10) 1.188(2) 0.3412(17)
O10A O -0.1989(11) 0.8174(17) 0.1822(16)
O11_2 O 0.1953(10) -0.1860(16) 0.5801(15)
N7_2 N 0.3748(14) -0.0104(19) 0.596(2)
N7A N -0.1252(14) 0.5104(19) 0.096(2)
K6_2 K -0.1850(4) 0.0003(8) 0.3310(5)
K6A K 0.3150(4) 1.4997(8) 0.8310(5)
K6A_2 K 0.3150(4) 0.4997(8) 0.8310(5)
loop_
_geom_bond_atom_site_label_1
_geom_bond_atom_site_label_2
_geom_bond_site_symmetry_1
_geom_bond_site_symmetry_2
S1 O10 1_555 1_555
K1 N3 1_555 1_555
K2 N2 1_555 1_555
S2 O4 1_555 1_555
S3 O7 1_555 1_555
K3 O7 1_555 1_555
K4 O1 1_555 1_555
K5 N3 1_555 1_555
S4 O1 1_555 1_555
N1 C4 1_555 1_555
N2 C2 1_555 1_555
N3 C5 1_555 1_555
O1 K2_2 1_555 1_555
O2 K5 1_555 1_555
O3 K1 1_555 1_555
C1 H1 1_555 1_555
H2 C1 1_555 1_555
H3 C1 1_555 1_555
O4 K5A 1_555 1_555
O5 K2 1_555 1_555
O6 K2 1_555 1_555
C2 S4 1_555 1_555
O7 K1 1_555 1_555
O8 S3 1_555 1_555
O9 S3 1_555 1_555
N4 H4 1_555 1_555
N5 C7 1_555 1_555
N6 C8 1_555 1_555
C3 H5 1_555 1_555
H6 C3 1_555 1_555
H7 C3 1_555 1_555
C4 S2 1_555 1_555
C5 S3 1_555 1_555
C6 H8 1_555 1_555
H9 C6 1_555 1_555
H10 C6 1_555 1_555
C7 C1 1_555 1_555
C8 C4 1_555 1_555
C9 C8 1_555 1_555
H11 C9 1_555 1_555
H12 C9 1_555 1_555
H13 C9 1_555 1_555
C10 N2 1_555 1_555
C11 H14 1_555 1_555
H15 C11 1_555 1_555
C12 C10 1_555 1_555
H16 C12 1_555 1_555
H17 C12 1_555 1_555
C13 N3 1_555 1_555
C14 C2 1_555 1_555
C15 N1 1_555 1_555
C16 C12 1_555 1_555
H18 C16 1_555 1_555
H19 C16 1_555 1_555
H20 C16 1_555 1_555
O10 K5A 1_555 1_555
C17 S1 1_555 1_555
O11 S1 1_555 1_555
O12 S1 1_555 1_555
N7 C17 1_555 1_555
N8 H21 1_555 1_555
C18 N7 1_555 1_555
C19 C17 1_555 1_555
C20 C19 1_555 1_555
H22 C20 1_555 1_555
H23 C20 1_555 1_555
H24 C20 1_555 1_555
C21 C18 1_555 1_555
H25 C21 1_555 1_555
H26 C21 1_555 1_555
C22 C11 1_555 1_555
H27 C22 1_555 1_555
H28 C22 1_555 1_555
H29 C22 1_555 1_555
C23 C21 1_555 1_555
H30 C23 1_555 1_555
H31 C23 1_555 1_555
H32 C23 1_555 1_555
C24 C3 1_555 1_555
H33 C24 1_555 1_555
H34 C24 1_555 1_555
K6 N2 1_555 1_555
K1_2 O8 1_555 1_555
K2_2 O7 1_555 1_555
K3_2 O6 1_555 1_555
K4_2 N1 1_555 1_555
K5A N7 1_555 1_555
K5_2 O4A_2 1_555 1_555
N1_2 K4 1_555 1_555
N1A K6 1_555 1_555
O1_2 K2 1_555 1_555
O4A K5 1_555 1_555
O4A_2 K6 1_555 1_555
O6_2 K3 1_555 1_555
O7_2 K2 1_555 1_555
O8_2 K1 1_555 1_555
O9_2 K6 1_555 1_555
O10A K5 1_555 1_555
O11_2 K3 1_555 1_555
N7_2 K3 1_555 1_555
N7A K5 1_555 1_555
K6_2 O9 1_555 1_555
K6A N1 1_555 1_555
K6A_2 O10 1_555 1_555
K1 O11 1_555 1_555
K1 O12 1_555 1_555
K2 O3 1_555 1_555
S2 O5 1_555 1_555
S2 O6 1_555 1_555
K3 O8 1_555 1_555
K3 O12 1_555 1_555
K4 O3 1_555 1_555
K4 O5 1_555 1_555
K4 O11 1_555 1_555
K4 O6_2 1_555 1_555
K5 O9 1_555 1_555
S4 O2 1_555 1_555
S4 O3 1_555 1_555
O2 K6 1_555 1_555
O4 K6A 1_555 1_555
O6 K4_2 1_555 1_555
N4 C10 1_555 1_555
N4 C14 1_555 1_555
N5 C13 1_555 1_555
N6 C15 1_555 1_555
C5 C7 1_555 1_555
C6 C14 1_555 1_555
C11 C13 1_555 1_555
C15 C24 1_555 1_555
O11 K3_2 1_555 1_555
N7 K3_2 1_555 1_555
N8 C18 1_555 1_555
N8 C19 1_555 1_555
K6 O10A 1_555 1_555
K1_2 O11_2 1_555 1_555
K2_2 O6_2 1_555 1_555
K3_2 O7_2 1_555 1_555
K3_2 O8_2 1_555 1_555
K4_2 O1_2 1_555 1_555
K5_2 O9_2 1_555 1_555
N1_2 K6A_2 1_555 1_555
O4A K6_2 1_555 1_555

#END
