
#######################################################################
#
#                 Cambridge Crystallographic Data Centre
#                                CCDC 
#
#######################################################################
#
# If this CIF has been generated from an entry in the Cambridge 
# Structural Database, then it will include bibliographic, chemical, 
# crystal, experimental, refinement or atomic coordinate data resulting 
# from the CCDC's data processing and validation procedures.
#
#######################################################################

data_GIJJEP
_symmetry_cell_setting           triclinic
_symmetry_space_group_name_H-M   'P -1'
_symmetry_Int_Tables_number      2
_space_group_name_Hall           '-P 1'
loop_
_symmetry_equiv_pos_site_id
_symmetry_equiv_pos_as_xyz
1 x,y,z
2 -x,-y,-z
_cell_length_a                   9.361(3)
_cell_length_b                   10.899(3)
_cell_length_c                   11.172(3)
_cell_angle_alpha                62.203(5)
_cell_angle_beta                 68.015(5)
_cell_angle_gamma                66.857(5)
_cell_volume                     901.214
loop_
_atom_site_label
_atom_site_type_symbol
_atom_site_fract_x
_atom_site_fract_y
_atom_site_fract_z
Ag1 Ag 0.53671(5) 0.22515(4) 0.25796(4)
Ag2 Ag 0.77369(5) -0.03698(5) 0.01031(5)
S1 S 0.92166(16) -0.03844(15) 0.22711(13)
S2 S 0.39187(18) 0.21954(16) 0.01761(14)
O1 O 0.8582(6) -0.1353(5) 0.2183(5)
O2 O 0.8850(6) 0.1050(5) 0.1214(4)
O3 O 1.0902(5) -0.0950(5) 0.2282(4)
O4 O 0.5413(5) 0.1455(5) 0.0618(5)
O5 O 0.2659(6) 0.1469(5) 0.1135(4)
O6 O 0.4024(6) 0.2506(6) -0.1251(4)
N1 N 0.6775(6) 0.0829(5) 0.4024(5)
N2 N 0.7493(6) -0.0307(5) 0.6011(5)
H1 H 0.7474 -0.0548 0.6885
N3 N 0.3727(6) 0.3900(5) 0.1411(5)
N4 N 0.2226(6) 0.6007(5) 0.0358(5)
H2 H 0.1688 0.6919 0.0144
C1 C 0.6365(7) 0.0716(6) 0.5341(6)
C2 C 0.8688(7) -0.0920(6) 0.5109(6)
C3 C 0.8222(7) -0.0181(6) 0.3872(5)
C4 C 1.0083(8) -0.2098(7) 0.5564(6)
H3 H 1.0519 -0.1846 0.6067
H4 H 1.0904 -0.2243 0.4749
H5 H 0.9752 -0.2986 0.6179
C5 C 0.4945(7) 0.1659(6) 0.5968(6)
H6 H 0.4705 0.1163 0.6994
H7 H 0.4011 0.1821 0.5647
C6 C 0.5194(9) 0.3111(7) 0.5591(7)
H8 H 0.4184 0.3739 0.5915
H9 H 0.5557 0.3556 0.4578
H10 H 0.6001 0.2969 0.6036
C7 C 0.3030(7) 0.5236(6) 0.1380(6)
C8 C 0.2378(7) 0.5145(7) -0.0296(6)
C9 C 0.3327(7) 0.3838(6) 0.0373(6)
C10 C 0.1644(8) 0.5681(8) -0.1479(7)
H11 H 0.1766 0.4871 -0.1703
H12 H 0.2176 0.6374 -0.2292
H13 H 0.0505 0.6153 -0.1222
C11 C 0.3042(8) 0.5765(7) 0.2379(7)
H14 H 0.2752 0.6830 0.1988
H15 H 0.4130 0.5413 0.2537
C12 C 0.1853(10) 0.5236(8) 0.3767(7)
H16 H 0.1953 0.5509 0.4448
H17 H 0.2085 0.4187 0.4112
H18 H 0.0763 0.5676 0.3628
Ag2A Ag 1.22631(5) 0.03698(5) -0.01031(5)
Ag2A_2 Ag 0.22631(5) 0.03698(5) -0.01031(5)
O3A O 0.9098(5) 0.0950(5) -0.2282(4)
O5A O 0.7341(6) -0.1469(5) -0.1135(4)
loop_
_geom_bond_atom_site_label_1
_geom_bond_atom_site_label_2
_geom_bond_site_symmetry_1
_geom_bond_site_symmetry_2
Ag1 N1 1_555 1_555
Ag2 O1 1_555 1_555
S1 O1 1_555 1_555
S2 O4 1_555 1_555
O2 S1 1_555 1_555
O3 S1 1_555 1_555
O4 Ag2 1_555 1_555
O5 S2 1_555 1_555
O6 S2 1_555 1_555
N1 C1 1_555 1_555
N2 H1 1_555 1_555
N3 Ag1 1_555 1_555
N4 H2 1_555 1_555
C1 N2 1_555 1_555
C2 N2 1_555 1_555
C3 S1 1_555 1_555
C4 C2 1_555 1_555
H3 C4 1_555 1_555
H4 C4 1_555 1_555
H5 C4 1_555 1_555
C5 C1 1_555 1_555
H6 C5 1_555 1_555
H7 C5 1_555 1_555
C6 C5 1_555 1_555
H8 C6 1_555 1_555
H9 C6 1_555 1_555
H10 C6 1_555 1_555
C7 N3 1_555 1_555
C8 N4 1_555 1_555
C9 S2 1_555 1_555
C10 C8 1_555 1_555
H11 C10 1_555 1_555
H12 C10 1_555 1_555
H13 C10 1_555 1_555
C11 C7 1_555 1_555
H14 C11 1_555 1_555
H15 C11 1_555 1_555
C12 C11 1_555 1_555
H16 C12 1_555 1_555
H17 C12 1_555 1_555
H18 C12 1_555 1_555
Ag2A O3 1_555 1_555
Ag2A_2 O5 1_555 1_555
O3A Ag2 1_555 1_555
O5A Ag2 1_555 1_555
N1 C3 1_555 1_555
N3 C9 1_555 1_555
N4 C7 1_555 1_555
C2 C3 1_555 1_555
C8 C9 1_555 1_555

#END
