
#######################################################################
#
#                 Cambridge Crystallographic Data Centre
#                                CCDC 
#
#######################################################################
#
# If this CIF has been generated from an entry in the Cambridge 
# Structural Database, then it will include bibliographic, chemical, 
# crystal, experimental, refinement or atomic coordinate data resulting 
# from the CCDC's data processing and validation procedures.
#
#######################################################################

data_GIJMOB
_symmetry_cell_setting           orthorhombic
_symmetry_space_group_name_H-M   'P n a m'
_symmetry_Int_Tables_number      62
_space_group_name_Hall           '-P 2c 2n'
loop_
_symmetry_equiv_pos_site_id
_symmetry_equiv_pos_as_xyz
1 x,y,z
2 1/2-x,1/2+y,1/2+z
3 1/2+x,1/2-y,z
4 -x,-y,1/2+z
5 -x,-y,-z
6 1/2+x,1/2-y,1/2-z
7 1/2-x,1/2+y,-z
8 x,y,1/2-z
_cell_length_a                   10.842(6)
_cell_length_b                   12.042(6)
_cell_length_c                   6.910(1)
_cell_angle_alpha                90
_cell_angle_beta                 90
_cell_angle_gamma                90
_cell_volume                     902.165
loop_
_atom_site_label
_atom_site_type_symbol
_atom_site_fract_x
_atom_site_fract_y
_atom_site_fract_z
Na1 Na -0.0952(6) -0.3640(5) 0.25000
S1 S -0.3396(6) 0.0561(7) 0.25000
O1 O -0.3850(2) 0.1089(3) 0.0767(5)
N1 N -0.3666(2) -0.0748(2) 0.25000
C1 C -0.2604(3) -0.1346(3) 0.25000
O2 O -0.2580(3) -0.2374(3) 0.25000
C2 C -0.1469(3) -0.0627(3) 0.25000
C3 C -0.0226(3) -0.0931(3) 0.25000
O3 O 0.0099(3) -0.2006(3) 0.25000
C4 C 0.0655(3) -0.0068(3) 0.25000
C5 C 0.0309(3) 0.1042(3) 0.25000
C6 C -0.0934(3) 0.1356(3) 0.25000
C7 C -0.1776(3) 0.0491(3) 0.25000
O4 O -0.1437(4) -0.5661(4) 0.25000
H1 H -0.0996(7) -0.5893(5) 0.139(1)
H2 H 0.1010(6) -0.2116(6) 0.25000
H3 H 0.1629(6) -0.0296(7) 0.25000
H4 H 0.1039(7) 0.1653(7) 0.25000
H5 H -0.1215(8) 0.2214(6) 0.25000
O1F O -0.1150(2) -0.3911(3) -0.0767(5)
H1G H -0.0996(7) -0.5893(5) 0.361(1)
N1B N 0.1334(2) -0.4252(2) 0.25000
Na1B Na -0.5952(6) -0.1360(5) 0.25000
O1A O -0.1150(2) -0.3911(3) 0.5767(5)
O1G O -0.3850(2) 0.1089(3) 0.4233(5)
Na1A Na -0.4048(6) 0.1360(5) -0.25000
Na1A_2 Na -0.4048(6) 0.1360(5) 0.75000
loop_
_geom_bond_atom_site_label_1
_geom_bond_atom_site_label_2
_geom_bond_site_symmetry_1
_geom_bond_site_symmetry_2
Na1 O2 1_555 1_555
S1 O1 1_555 1_555
O1 Na1A 1_555 1_555
N1 S1 1_555 1_555
C1 N1 1_555 1_555
O2 C1 1_555 1_555
C2 C1 1_555 1_555
C3 C2 1_555 1_555
O3 Na1 1_555 1_555
C4 C3 1_555 1_555
C5 C4 1_555 1_555
C6 C5 1_555 1_555
C7 S1 1_555 1_555
O4 Na1 1_555 1_555
H1 O4 1_555 1_555
H2 O3 1_555 1_555
H3 C4 1_555 1_555
H4 C5 1_555 1_555
H5 C6 1_555 1_555
O1F Na1 1_555 1_555
H1G O4 1_555 1_555
N1B Na1 1_555 1_555
Na1B N1 1_555 1_555
O1A Na1 1_555 1_555
O1G S1 1_555 1_555
Na1A_2 O1G 1_555 1_555
C2 C7 1_555 1_555
C3 O3 1_555 1_555
C6 C7 1_555 1_555

#END
