
#######################################################################
#
#                 Cambridge Crystallographic Data Centre
#                                CCDC 
#
#######################################################################
#
# If this CIF has been generated from an entry in the Cambridge 
# Structural Database, then it will include bibliographic, chemical, 
# crystal, experimental, refinement or atomic coordinate data resulting 
# from the CCDC's data processing and validation procedures.
#
#######################################################################

data_GIJMUI
_symmetry_cell_setting           triclinic
_symmetry_space_group_name_H-M   'P -1'
_symmetry_Int_Tables_number      2
_space_group_name_Hall           '-P 1'
loop_
_symmetry_equiv_pos_site_id
_symmetry_equiv_pos_as_xyz
1 x,y,z
2 -x,-y,-z
_cell_length_a                   9.608(5)
_cell_length_b                   14.748(8)
_cell_length_c                   14.936(8)
_cell_angle_alpha                82.358(6)
_cell_angle_beta                 83.529(6)
_cell_angle_gamma                84.160(6)
_cell_volume                     2076.15
loop_
_atom_site_label
_atom_site_type_symbol
_atom_site_fract_x
_atom_site_fract_y
_atom_site_fract_z
C1 C 0.1200(6) 0.6516(4) -0.2039(4)
C2 C -0.0093(7) 0.6823(5) -0.2327(5)
H1 H -0.0666 0.7269 -0.2042
C3 C -0.0526(7) 0.6464(5) -0.3037(5)
H2 H -0.1391 0.6672 -0.3248
C4 C 0.0317(8) 0.5805(5) -0.3429(4)
H3 H 0.0027 0.5534 -0.3897
C5 C 0.1610(8) 0.5543(5) -0.3123(5)
H4 H 0.2213 0.5120 -0.3420
C6 C 0.2828(6) 0.7423(4) -0.1466(4)
C7 C 0.2658(7) 0.8326(4) -0.1310(4)
H5 H 0.1791 0.8584 -0.1078
C8 C 0.3778(8) 0.8836(5) -0.1501(5)
H6 H 0.3687 0.9449 -0.1398
C9 C 0.5039(8) 0.8444(5) -0.1846(5)
H7 H 0.5814 0.8785 -0.1980
C10 C 0.5148(7) 0.7552(5) -0.1989(5)
H8 H 0.6004 0.7291 -0.2235
C11 C 0.0978(6) 0.6713(4) -0.0409(4)
C12 C -0.0196(6) 0.6228(4) -0.0191(4)
H9 H -0.0601 0.5980 -0.0630
C13 C -0.0740(6) 0.6129(4) 0.0710(4)
H10 H -0.1533 0.5810 0.0883
C14 C -0.0130(7) 0.6494(4) 0.1353(4)
H11 H -0.0489 0.6427 0.1960
C15 C 0.1049(6) 0.6969(4) 0.1057(4)
C16 C 0.1299(6) 0.7341(4) 0.2584(4)
C17 C 0.1427(7) 0.6525(5) 0.3133(5)
H12 H 0.1818 0.5991 0.2901
C18 C 0.0960(8) 0.6515(5) 0.4041(5)
H13 H 0.1016 0.5969 0.4431
C19 C 0.0417(8) 0.7308(5) 0.4359(5)
H14 H 0.0105 0.7314 0.4970
C20 C 0.0337(8) 0.8096(5) 0.3771(5)
H15 H -0.0035 0.8638 0.3995
C21 C 0.2989(6) 0.7822(4) 0.1293(4)
C22 C 0.4166(6) 0.7335(5) 0.0918(4)
H16 H 0.4162 0.6713 0.0872
C23 C 0.5344(7) 0.7786(5) 0.0613(5)
H17 H 0.6149 0.7476 0.0353
C24 C 0.5311(7) 0.8706(5) 0.0700(5)
H18 H 0.6104 0.9022 0.0517
C25 C 0.4106(7) 0.9144(5) 0.1056(5)
H19 H 0.4085 0.9769 0.1100
C26 C 0.4599(8) 0.3583(6) -0.2891(6)
H20 H 0.5395 0.3847 -0.3181
C27 C 0.5282(11) 0.2364(8) -0.3824(8)
H21 H 0.6032 0.2745 -0.4044
H22 H 0.4752 0.2298 -0.4316
H23 H 0.5668 0.1770 -0.3575
C28 C 0.3108(11) 0.2361(7) -0.2760(7)
H24 H 0.2765 0.2577 -0.2191
H25 H 0.3314 0.1706 -0.2669
H26 H 0.2407 0.2515 -0.3178
C29 C -0.1453(8) 1.0614(6) 0.3143(5)
H27 H -0.0756 1.1020 0.3060
C30 C -0.2756(13) 1.1619(9) 0.4155(8)
H28 H -0.1941 1.1957 0.4002
H29 H -0.2866 1.1433 0.4798
H30 H -0.3574 1.2001 0.3980
C31 C -0.3700(11) 1.0217(8) 0.3855(7)
H31 H -0.3605 0.9810 0.3396
H32 H -0.4590 1.0576 0.3843
H33 H -0.3649 0.9864 0.4440
C32 C 0.6216(8) 0.5773(5) -0.4008(5)
C33 C 0.3355(6) 0.4902(4) 0.0304(5)
C34 C 0.2058(7) 1.0597(6) 0.3435(5)
C35 C -0.0830(7) 0.9032(4) 0.0138(5)
Cd1 Cd 0.43125(5) 0.54482(3) -0.19461(3)
Cd2 Cd 0.08304(5) 0.95106(3) 0.18908(3)
N1 N 0.2041(5) 0.5869(4) -0.2415(3)
N2 N 0.1686(5) 0.6853(3) -0.1288(3)
N3 N 0.4051(5) 0.7022(4) -0.1787(4)
N4 N 0.1591(5) 0.7083(3) 0.0195(3)
N5 N 0.0771(5) 0.8126(4) 0.2879(3)
N6 N 0.1748(5) 0.7388(3) 0.1637(3)
N7 N 0.2929(5) 0.8709(4) 0.1352(4)
N8 N 0.4366(7) 0.2786(5) -0.3125(5)
N9 N -0.2584(8) 1.0818(6) 0.3683(4)
N10 N 0.5488(7) 0.5698(5) -0.3359(5)
N11 N 0.2005(7) 1.0115(5) 0.2913(5)
N12 N 0.3528(6) 0.4988(4) -0.0468(4)
N13 N -0.0487(6) 0.9129(4) 0.0829(4)
O1 O 0.3883(5) 0.4012(3) -0.2335(3)
O2 O -0.1240(5) 0.9942(4) 0.2744(3)
S1 S 0.7306(2) 0.5900(2) -0.49197(15)
S2 S 0.30676(18) 0.47731(13) 0.14217(12)
S3 S 0.2232(3) 1.1320(2) 0.4132(2)
S4 S -0.13385(18) 0.88902(12) -0.08419(12)
Cd1A Cd 0.56875(5) 0.45518(3) 0.19461(3)
Cd2A Cd -0.08304(5) 1.04894(3) -0.18908(3)
S2A S 0.69324(18) 0.52269(13) -0.14217(12)
S4A S 0.13385(18) 1.11098(12) 0.08419(12)
loop_
_geom_bond_atom_site_label_1
_geom_bond_atom_site_label_2
_geom_bond_site_symmetry_1
_geom_bond_site_symmetry_2
C1 C2 1_555 1_555
C2 H1 1_555 1_555
C3 C2 1_555 1_555
H2 C3 1_555 1_555
C4 C3 1_555 1_555
H3 C4 1_555 1_555
C5 C4 1_555 1_555
H4 C5 1_555 1_555
C6 C7 1_555 1_555
C7 H5 1_555 1_555
C8 C7 1_555 1_555
H6 C8 1_555 1_555
C9 C8 1_555 1_555
H7 C9 1_555 1_555
C10 C9 1_555 1_555
H8 C10 1_555 1_555
C11 C12 1_555 1_555
C12 H9 1_555 1_555
C13 C12 1_555 1_555
H10 C13 1_555 1_555
C14 C13 1_555 1_555
H11 C14 1_555 1_555
C15 C14 1_555 1_555
C16 C17 1_555 1_555
C17 H12 1_555 1_555
C18 C17 1_555 1_555
H13 C18 1_555 1_555
C19 C18 1_555 1_555
H14 C19 1_555 1_555
C20 C19 1_555 1_555
H15 C20 1_555 1_555
C21 C22 1_555 1_555
C22 H16 1_555 1_555
C23 C22 1_555 1_555
H17 C23 1_555 1_555
C24 C23 1_555 1_555
H18 C24 1_555 1_555
C25 C24 1_555 1_555
H19 C25 1_555 1_555
C26 H20 1_555 1_555
C27 H21 1_555 1_555
H22 C27 1_555 1_555
H23 C27 1_555 1_555
C28 H24 1_555 1_555
H25 C28 1_555 1_555
H26 C28 1_555 1_555
C29 H27 1_555 1_555
C30 H28 1_555 1_555
H29 C30 1_555 1_555
H30 C30 1_555 1_555
C31 H31 1_555 1_555
H32 C31 1_555 1_555
H33 C31 1_555 1_555
C32 N10 1_555 1_555
C33 N12 1_555 1_555
C34 N11 1_555 1_555
C35 N13 1_555 1_555
Cd1 N1 1_555 1_555
Cd2 N5 1_555 1_555
N1 C1 1_555 1_555
N2 C1 1_555 1_555
N3 C6 1_555 1_555
N4 C11 1_555 1_555
N5 C16 1_555 1_555
N6 C15 1_555 1_555
N7 C21 1_555 1_555
N8 C26 1_555 1_555
N9 C29 1_555 1_555
N10 Cd1 1_555 1_555
N11 Cd2 1_555 1_555
N12 Cd1 1_555 1_555
N13 Cd2 1_555 1_555
O1 C26 1_555 1_555
O2 C29 1_555 1_555
S1 C32 1_555 1_555
S2 C33 1_555 1_555
S3 C34 1_555 1_555
S4 C35 1_555 1_555
Cd1A S2 1_555 1_555
Cd2A S4 1_555 1_555
S2A Cd1 1_555 1_555
S4A Cd2 1_555 1_555
C5 N1 1_555 1_555
C6 N2 1_555 1_555
C10 N3 1_555 1_555
C11 N2 1_555 1_555
C15 N4 1_555 1_555
C16 N6 1_555 1_555
C20 N5 1_555 1_555
C21 N6 1_555 1_555
C25 N7 1_555 1_555
C27 N8 1_555 1_555
C28 N8 1_555 1_555
C30 N9 1_555 1_555
C31 N9 1_555 1_555
Cd1 N3 1_555 1_555
Cd1 O1 1_555 1_555
Cd2 N7 1_555 1_555
Cd2 O2 1_555 1_555

#END
