
#######################################################################
#
#                 Cambridge Crystallographic Data Centre
#                                CCDC 
#
#######################################################################
#
# If this CIF has been generated from an entry in the Cambridge 
# Structural Database, then it will include bibliographic, chemical, 
# crystal, experimental, refinement or atomic coordinate data resulting 
# from the CCDC's data processing and validation procedures.
#
#######################################################################

data_GIJQAS
_symmetry_cell_setting           monoclinic
_symmetry_space_group_name_H-M   'P 21/c'
_symmetry_Int_Tables_number      14
_space_group_name_Hall           '-P 2ybc'
loop_
_symmetry_equiv_pos_site_id
_symmetry_equiv_pos_as_xyz
1 x,y,z
2 -x,1/2+y,1/2-z
3 -x,-y,-z
4 x,1/2-y,1/2+z
_cell_length_a                   11.9910(14)
_cell_length_b                   10.1874(9)
_cell_length_c                   13.8854(16)
_cell_angle_alpha                90
_cell_angle_beta                 108.825(9)
_cell_angle_gamma                90
_cell_volume                     1605.47
loop_
_atom_site_label
_atom_site_type_symbol
_atom_site_fract_x
_atom_site_fract_y
_atom_site_fract_z
Sn1 Sn 0.440718(12) 0.950803(14) 0.208723(11)
C1 C 0.5474(3) 0.8813(3) 0.1234(2)
H1 H 0.5750 0.9544 0.0937
H2 H 0.5018 0.8240 0.0704
H3 H 0.6136 0.8342 0.1675
C2 C 0.3054(2) 1.0896(3) 0.1419(2)
H4 H 0.3052 1.1103 0.0744
H5 H 0.3195 1.1681 0.1823
H6 H 0.2305 1.0531 0.1388
C3 C 0.4813(2) 0.9067(3) 0.36572(18)
H7 H 0.5575 0.8660 0.3903
H8 H 0.4231 0.8479 0.3749
H9 H 0.4818 0.9863 0.4029
C4 C 0.66440(19) 1.1764(2) 0.30900(16)
C5 C 0.76228(19) 1.0767(2) 0.33090(17)
C6 C 0.8193(2) 1.0555(2) 0.25850(17)
C7 C 0.7911(2) 1.1283(2) 0.16537(17)
H10 H 0.7304 1.1895 0.1501
C8 C 0.8521(2) 1.1089(3) 0.09879(19)
H11 H 0.8320 1.1560 0.0382
C9 C 0.9463(3) 1.0171(3) 0.1218(2)
H12 H 0.9890 1.0069 0.0770
C10 C 0.9748(3) 0.9441(2) 0.2082(2)
H13 H 1.0365 0.8842 0.2217
C11 C 0.9109(2) 0.9582(2) 0.27885(19)
C12 C 0.9371(2) 0.8828(2) 0.36712(18)
H14 H 0.9933 0.8167 0.3780
C13 C 0.8811(2) 0.9038(2) 0.43939(17)
C14 C 0.9085(2) 0.8280(2) 0.53064(18)
H15 H 0.9630 0.7601 0.5413
C15 C 0.8562(2) 0.8533(3) 0.60219(18)
H16 H 0.8740 0.8016 0.6604
C16 C 0.7746(2) 0.9582(3) 0.58839(19)
H17 H 0.7417 0.9770 0.6390
C17 C 0.7440(2) 1.0318(2) 0.50153(18)
H18 H 0.6896 1.0995 0.4932
C18 C 0.79455(19) 1.0059(2) 0.42316(16)
O1 O 0.56104(14) 1.14268(16) 0.26247(14)
O2 O 0.69388(14) 1.29309(16) 0.33879(13)
Sn1A Sn 0.559282(12) 1.450803(14) 0.291277(11)
O2A O 0.30612(14) 0.79309(16) 0.16121(13)
loop_
_geom_bond_atom_site_label_1
_geom_bond_atom_site_label_2
_geom_bond_site_symmetry_1
_geom_bond_site_symmetry_2
Sn1 C1 1_555 1_555
C1 H1 1_555 1_555
H2 C1 1_555 1_555
H3 C1 1_555 1_555
C2 Sn1 1_555 1_555
H4 C2 1_555 1_555
H5 C2 1_555 1_555
H6 C2 1_555 1_555
C3 Sn1 1_555 1_555
H7 C3 1_555 1_555
H8 C3 1_555 1_555
H9 C3 1_555 1_555
C4 C5 1_555 1_555
C5 C6 1_555 1_555
C6 C7 1_555 1_555
C7 H10 1_555 1_555
C8 C7 1_555 1_555
H11 C8 1_555 1_555
C9 C8 1_555 1_555
H12 C9 1_555 1_555
C10 C9 1_555 1_555
H13 C10 1_555 1_555
C11 C6 1_555 1_555
C12 C11 1_555 1_555
H14 C12 1_555 1_555
C13 C12 1_555 1_555
C14 C13 1_555 1_555
H15 C14 1_555 1_555
C15 C14 1_555 1_555
H16 C15 1_555 1_555
C16 C15 1_555 1_555
H17 C16 1_555 1_555
C17 C16 1_555 1_555
H18 C17 1_555 1_555
C18 C5 1_555 1_555
O1 Sn1 1_555 1_555
O2 C4 1_555 1_555
Sn1A O2 1_555 1_555
O2A Sn1 1_555 1_555
C4 O1 1_555 1_555
C10 C11 1_555 1_555
C13 C18 1_555 1_555
C17 C18 1_555 1_555

#END
