
#######################################################################
#
#                 Cambridge Crystallographic Data Centre
#                                CCDC 
#
#######################################################################
#
# If this CIF has been generated from an entry in the Cambridge 
# Structural Database, then it will include bibliographic, chemical, 
# crystal, experimental, refinement or atomic coordinate data resulting 
# from the CCDC's data processing and validation procedures.
#
#######################################################################

data_GIJWED01
_symmetry_cell_setting           monoclinic
_symmetry_space_group_name_H-M   'P 21/n'
_symmetry_Int_Tables_number      14
_space_group_name_Hall           '-P 2yn'
loop_
_symmetry_equiv_pos_site_id
_symmetry_equiv_pos_as_xyz
1 x,y,z
2 1/2-x,1/2+y,1/2-z
3 -x,-y,-z
4 1/2+x,1/2-y,1/2+z
_cell_length_a                   9.3080(10)
_cell_length_b                   14.858(2)
_cell_length_c                   13.1170(10)
_cell_angle_alpha                90
_cell_angle_beta                 99.320(10)
_cell_angle_gamma                90
_cell_volume                     1790.11
loop_
_atom_site_label
_atom_site_type_symbol
_atom_site_fract_x
_atom_site_fract_y
_atom_site_fract_z
Mn1 Mn 0.74041(3) 0.24281(2) 0.94788(2)
N1 N 0.54889(17) 0.18782(12) 0.87864(12)
N2 N 0.70940(18) 0.36008(12) 0.86513(13)
N3 N 0.6180(2) 0.30231(13) 1.06779(15)
N4 N 0.5507(3) 0.35986(18) 1.22671(18)
N5 N 0.3523(2) 0.31450(14) 1.31614(15)
O1 O 0.78337(15) 0.13472(9) 1.02225(11)
O2 O 0.91907(15) 0.28820(10) 1.01748(11)
C1 C 0.5254(2) 0.10222(15) 0.87577(16)
H1 H 0.4346 0.0837 0.8420
C2 C 0.6234(2) 0.03219(14) 0.91876(16)
C3 C 0.7486(2) 0.05179(13) 0.99074(16)
C4 C 0.8357(2) -0.02049(15) 1.03323(19)
H2 H 0.9177 -0.0093 1.0822
C5 C 0.8010(3) -0.10793(16) 1.0032(2)
H3 H 0.8621 -0.1545 1.0305
C6 C 0.6774(3) -0.12747(16) 0.9335(2)
H4 H 0.6550 -0.1866 0.9138
C7 C 0.5882(2) -0.05841(15) 0.89383(17)
H5 H 0.5024 -0.0715 0.8494
C8 C 0.8156(2) 0.41298(14) 0.85351(16)
H6 H 0.7930 0.4611 0.8084
C9 C 0.9649(2) 0.40592(14) 0.90233(16)
C10 C 1.0083(2) 0.34625(13) 0.98500(16)
C11 C 1.1524(2) 0.35177(14) 1.0364(2)
H7 H 1.1834 0.3142 1.0924
C12 C 1.2487(2) 0.41220(16) 1.0049(2)
H8 H 1.3443 0.4135 1.0390
C13 C 1.2070(3) 0.47047(17) 0.9244(2)
H9 H 1.2737 0.5104 0.9037
C14 C 1.0661(3) 0.46891(16) 0.87512(19)
H10 H 1.0361 0.5101 0.8226
C15 C 0.4266(2) 0.24612(15) 0.8342(2)
H11 H 0.3875 0.2754 0.8899
H12 H 0.3501 0.2092 0.7963
C16 C 0.4701(3) 0.31670(18) 0.76313(19)
H13 H 0.5231 0.2880 0.7142
H14 H 0.3827 0.3431 0.7243
C17 C 0.5626(3) 0.39052(17) 0.8173(2)
H15 H 0.5724 0.4379 0.7681
H16 H 0.5135 0.4158 0.8706
C18 C 0.5820(2) 0.32412(15) 1.14290(16)
C19 C 0.4436(2) 0.33080(16) 1.27103(16)
Mn1C Mn 0.24041(3) 0.25719(2) 1.44788(2)
N5C N 0.8523(2) 0.18550(14) 0.81614(15)
loop_
_geom_bond_atom_site_label_1
_geom_bond_atom_site_label_2
_geom_bond_site_symmetry_1
_geom_bond_site_symmetry_2
Mn1 N1 1_555 1_555
N1 C1 1_555 1_555
N2 Mn1 1_555 1_555
N3 Mn1 1_555 1_555
N4 C18 1_555 1_555
N5 C19 1_555 1_555
O1 Mn1 1_555 1_555
O2 Mn1 1_555 1_555
C1 H1 1_555 1_555
C2 C1 1_555 1_555
C3 O1 1_555 1_555
C4 C3 1_555 1_555
H2 C4 1_555 1_555
C5 C4 1_555 1_555
H3 C5 1_555 1_555
C6 C5 1_555 1_555
H4 C6 1_555 1_555
C7 C2 1_555 1_555
H5 C7 1_555 1_555
C8 N2 1_555 1_555
H6 C8 1_555 1_555
C9 C8 1_555 1_555
C10 O2 1_555 1_555
C11 C10 1_555 1_555
H7 C11 1_555 1_555
C12 C11 1_555 1_555
H8 C12 1_555 1_555
C13 C12 1_555 1_555
H9 C13 1_555 1_555
C14 C9 1_555 1_555
H10 C14 1_555 1_555
C15 N1 1_555 1_555
H11 C15 1_555 1_555
H12 C15 1_555 1_555
C16 C15 1_555 1_555
H13 C16 1_555 1_555
H14 C16 1_555 1_555
C17 N2 1_555 1_555
H15 C17 1_555 1_555
H16 C17 1_555 1_555
C18 N3 1_555 1_555
C19 N4 1_555 1_555
Mn1C N5 1_555 1_555
N5C Mn1 1_555 1_555
C2 C3 1_555 1_555
C6 C7 1_555 1_555
C9 C10 1_555 1_555
C13 C14 1_555 1_555
C16 C17 1_555 1_555

#END
