
#######################################################################
#
#                 Cambridge Crystallographic Data Centre
#                                CCDC 
#
#######################################################################
#
# If this CIF has been generated from an entry in the Cambridge 
# Structural Database, then it will include bibliographic, chemical, 
# crystal, experimental, refinement or atomic coordinate data resulting 
# from the CCDC's data processing and validation procedures.
#
#######################################################################

data_GIJWED
_symmetry_cell_setting           monoclinic
_symmetry_space_group_name_H-M   'P 21/c'
_symmetry_Int_Tables_number      14
_space_group_name_Hall           '-P 2ybc'
loop_
_symmetry_equiv_pos_site_id
_symmetry_equiv_pos_as_xyz
1 x,y,z
2 -x,1/2+y,1/2-z
3 -x,-y,-z
4 x,1/2-y,1/2+z
_cell_length_a                   7.2102(8)
_cell_length_b                   15.1770(10)
_cell_length_c                   16.511(2)
_cell_angle_alpha                90
_cell_angle_beta                 95.700(10)
_cell_angle_gamma                90
_cell_volume                     1797.85
loop_
_atom_site_label
_atom_site_type_symbol
_atom_site_fract_x
_atom_site_fract_y
_atom_site_fract_z
C1 C -0.0067(2) 0.03575(11) 0.14055(10)
H1 H -0.1328 0.0500 0.1351
C2 C 0.0466(3) -0.04294(10) 0.09983(10)
C3 C 0.2328(3) -0.06158(10) 0.08878(10)
C4 C 0.2715(3) -0.13633(13) 0.04342(12)
H2 H 0.3944 -0.1499 0.0358
C5 C 0.1294(3) -0.18991(13) 0.00997(13)
H3 H 0.1581 -0.2398 -0.0190
C6 C -0.0543(3) -0.17087(13) 0.01878(12)
H4 H -0.1489 -0.2071 -0.0046
C7 C -0.0961(3) -0.09764(12) 0.06266(11)
H5 H -0.2201 -0.0839 0.0679
C8 C 0.5038(3) 0.10891(12) 0.37928(12)
H6 H 0.4984 0.1418 0.4265
C9 C 0.6365(3) 0.03780(11) 0.38278(11)
C10 C 0.6941(2) 0.00053(10) 0.31105(11)
C11 C 0.8271(3) -0.06726(11) 0.31869(13)
H7 H 0.8711 -0.0911 0.2724
C12 C 0.8929(3) -0.09876(13) 0.39451(13)
H8 H 0.9785 -0.1448 0.3985
C13 C 0.8337(3) -0.06304(13) 0.46504(14)
H9 H 0.8765 -0.0859 0.5157
C14 C 0.7118(3) 0.00611(14) 0.45889(12)
H10 H 0.6781 0.0327 0.5060
C15 C 0.0198(3) 0.17072(12) 0.21168(12)
H11 H -0.1146 0.1676 0.2001
H12 H 0.0636 0.2199 0.1812
C16 C 0.0674(3) 0.18752(13) 0.30184(13)
H13 H -0.0083 0.2360 0.3181
H14 H 0.0346 0.1357 0.3317
C17 C 0.2705(3) 0.20903(12) 0.32568(13)
H15 H 0.3085 0.2564 0.2915
H16 H 0.2857 0.2292 0.3817
C18 C 0.5329(3) 0.25097(11) 0.13838(11)
C19 C 0.6673(2) 0.38241(11) 0.17416(11)
Mn1 Mn 0.37781(3) 0.061236(14) 0.210361(15)
N1 N 0.1033(2) 0.08833(9) 0.18380(9)
N2 N 0.3917(2) 0.13134(9) 0.31704(9)
N3 N 0.4535(3) 0.18723(10) 0.14850(11)
N4 N 0.6259(3) 0.32055(10) 0.11930(10)
N5 N 0.7123(2) 0.43965(9) 0.21688(11)
O1 O 0.37274(18) -0.00969(8) 0.11712(8)
O2 O 0.63013(17) 0.02900(8) 0.23776(7)
Mn1A Mn 0.62219(3) 0.561236(14) 0.289639(15)
N5A N 0.2877(2) -0.06035(9) 0.28312(11)
loop_
_geom_bond_atom_site_label_1
_geom_bond_atom_site_label_2
_geom_bond_site_symmetry_1
_geom_bond_site_symmetry_2
C1 H1 1_555 1_555
C2 C1 1_555 1_555
C3 C2 1_555 1_555
C4 C3 1_555 1_555
H2 C4 1_555 1_555
C5 C4 1_555 1_555
H3 C5 1_555 1_555
C6 C5 1_555 1_555
H4 C6 1_555 1_555
C7 C2 1_555 1_555
H5 C7 1_555 1_555
C8 H6 1_555 1_555
C9 C8 1_555 1_555
C10 C9 1_555 1_555
C11 C10 1_555 1_555
H7 C11 1_555 1_555
C12 C11 1_555 1_555
H8 C12 1_555 1_555
C13 C12 1_555 1_555
H9 C13 1_555 1_555
C14 C9 1_555 1_555
H10 C14 1_555 1_555
C15 H11 1_555 1_555
H12 C15 1_555 1_555
C16 C15 1_555 1_555
H13 C16 1_555 1_555
H14 C16 1_555 1_555
C17 C16 1_555 1_555
H15 C17 1_555 1_555
H16 C17 1_555 1_555
C18 N3 1_555 1_555
C19 N4 1_555 1_555
Mn1 N1 1_555 1_555
N1 C1 1_555 1_555
N2 C8 1_555 1_555
N3 Mn1 1_555 1_555
N4 C18 1_555 1_555
N5 C19 1_555 1_555
O1 C3 1_555 1_555
O2 C10 1_555 1_555
Mn1A N5 1_555 1_555
N5A Mn1 1_555 1_555
C6 C7 1_555 1_555
C13 C14 1_555 1_555
C15 N1 1_555 1_555
C17 N2 1_555 1_555
Mn1 N2 1_555 1_555
Mn1 O1 1_555 1_555
Mn1 O2 1_555 1_555

#END
