
#######################################################################
#
#                 Cambridge Crystallographic Data Centre
#                                CCDC 
#
#######################################################################
#
# If this CIF has been generated from an entry in the Cambridge 
# Structural Database, then it will include bibliographic, chemical, 
# crystal, experimental, refinement or atomic coordinate data resulting 
# from the CCDC's data processing and validation procedures.
#
#######################################################################

data_GIJXUT
_symmetry_cell_setting           monoclinic
_symmetry_space_group_name_H-M   'P 21/n'
_symmetry_Int_Tables_number      14
_space_group_name_Hall           '-P 2yn'
loop_
_symmetry_equiv_pos_site_id
_symmetry_equiv_pos_as_xyz
1 x,y,z
2 1/2-x,1/2+y,1/2-z
3 -x,-y,-z
4 1/2+x,1/2-y,1/2+z
_cell_length_a                   7.3716(6)
_cell_length_b                   15.6150(11)
_cell_length_c                   15.2953(6)
_cell_angle_alpha                90
_cell_angle_beta                 93.457(5)
_cell_angle_gamma                90
_cell_volume                     1757.4
loop_
_atom_site_label
_atom_site_type_symbol
_atom_site_fract_x
_atom_site_fract_y
_atom_site_fract_z
C1 C -0.3180(4) 0.0701(2) 0.61621(19)
C2 C 0.3087(4) 0.0778(2) 0.63006(19)
C3 C -0.2562(4) 0.1196(2) 0.7815(2)
C4 C -0.4711(4) 0.2159(2) 0.6650(2)
C5 C -0.6598(4) 0.2085(2) 0.8390(2)
H1 H -0.6394 0.2561 0.8043
C6 C -0.7379(5) 0.2203(3) 0.9193(2)
H2 H -0.7657 0.2750 0.9383
C7 C -0.7726(5) 0.1511(3) 0.9691(2)
H3 H -0.8269 0.1585 1.0220
C8 C -0.7275(4) 0.0688(3) 0.9418(2)
C9 C -0.6443(4) 0.0624(2) 0.86221(18)
C10 C -0.5846(4) -0.0178(2) 0.8321(2)
C11 C -0.6124(5) -0.0923(2) 0.8799(2)
C12 C -0.5521(6) -0.1690(3) 0.8450(3)
H4 H -0.5663 -0.2203 0.8746
C13 C -0.4716(6) -0.1678(3) 0.7666(3)
H5 H -0.4331 -0.2187 0.7421
C14 C -0.4473(5) -0.0910(2) 0.7237(2)
H6 H -0.3915 -0.0915 0.6708
C15 C -0.7538(5) -0.0085(3) 0.9898(2)
H7 H -0.8105 -0.0060 1.0425
C16 C -0.6988(5) -0.0839(3) 0.9606(2)
H8 H -0.7173 -0.1327 0.9938
Fe1 Fe -0.47578(6) 0.10081(3) 0.70696(3)
N1 N -0.2135(4) 0.05112(19) 0.56718(17)
N2 N 0.1871(4) 0.0593(2) 0.58450(17)
N3 N -0.1320(4) 0.1300(2) 0.8283(2)
N4 N -0.4779(5) 0.2857(2) 0.6426(2)
N5 N -0.6137(3) 0.13126(17) 0.81076(15)
N6 N -0.5007(3) -0.01667(17) 0.75526(16)
Ni1 Ni 0.0000 0.0000 0.5000
O1 O -0.0002(3) 0.10444(16) 0.41501(15)
C1B C 0.3180(4) -0.0701(2) 0.38379(19)
C2B C -0.3087(4) -0.0778(2) 0.36994(19)
C2_2 C -0.6913(4) 0.0778(2) 0.63006(19)
C2B_2 C 0.6913(4) -0.0778(2) 0.36994(19)
C3B C 0.2562(4) -0.1196(2) 0.2185(2)
C4B C 0.4711(4) -0.2159(2) 0.3350(2)
C5B C 0.6598(4) -0.2085(2) 0.1610(2)
H1B H 0.6394 -0.2561 0.1957
C6B C 0.7379(5) -0.2203(3) 0.0807(2)
H2B H 0.7657 -0.2750 0.0617
C7B C 0.7726(5) -0.1511(3) 0.0309(2)
H3B H 0.8269 -0.1585 -0.0220
C8B C 0.7275(4) -0.0688(3) 0.0582(2)
C9B C 0.6443(4) -0.0624(2) 0.13779(18)
C10B C 0.5846(4) 0.0178(2) 0.1679(2)
C11B C 0.6124(5) 0.0923(2) 0.1201(2)
C12B C 0.5521(6) 0.1690(3) 0.1550(3)
H4B H 0.5663 0.2203 0.1254
C13B C 0.4716(6) 0.1678(3) 0.2334(3)
H5B H 0.4331 0.2187 0.2579
C14B C 0.4473(5) 0.0910(2) 0.2763(2)
H6B H 0.3915 0.0915 0.3292
C15B C 0.7538(5) 0.0085(3) 0.0102(2)
H7B H 0.8105 0.0060 -0.0425
C16B C 0.6988(5) 0.0839(3) 0.0394(2)
H8B H 0.7173 0.1327 0.0062
Fe1B Fe 0.47578(6) -0.10081(3) 0.29304(3)
Fe1_2 Fe 0.52422(6) 0.10081(3) 0.70696(3)
Fe1B_2 Fe -0.52422(6) -0.10081(3) 0.29304(3)
N1B N 0.2135(4) -0.05112(19) 0.43282(17)
N2B N -0.1871(4) -0.0593(2) 0.41550(17)
N3B N 0.1320(4) -0.1300(2) 0.1717(2)
N4B N 0.4779(5) -0.2857(2) 0.3574(2)
N5B N 0.6137(3) -0.13126(17) 0.18924(15)
N6B N 0.5007(3) 0.01667(17) 0.24474(16)
O1B O 0.0002(3) -0.10444(16) 0.58499(15)
O2 O -0.0037(4) 0.0572(2) 0.24218(18)
O3 O 0.3080(5) 0.2125(2) 0.4435(2)
loop_
_geom_bond_atom_site_label_1
_geom_bond_atom_site_label_2
_geom_bond_site_symmetry_1
_geom_bond_site_symmetry_2
C1 Fe1 1_555 1_555
C2 N2 1_555 1_555
C3 Fe1 1_555 1_555
C4 Fe1 1_555 1_555
C5 H1 1_555 1_555
C6 C5 1_555 1_555
H2 C6 1_555 1_555
C7 C6 1_555 1_555
H3 C7 1_555 1_555
C8 C7 1_555 1_555
C9 C8 1_555 1_555
C10 C9 1_555 1_555
C11 C10 1_555 1_555
C12 C11 1_555 1_555
H4 C12 1_555 1_555
C13 C12 1_555 1_555
H5 C13 1_555 1_555
C14 C13 1_555 1_555
H6 C14 1_555 1_555
C15 C8 1_555 1_555
H7 C15 1_555 1_555
C16 C11 1_555 1_555
H8 C16 1_555 1_555
Fe1 N5 1_555 1_555
N1 C1 1_555 1_555
N2 Ni1 1_555 1_555
N3 C3 1_555 1_555
N4 C4 1_555 1_555
N5 C5 1_555 1_555
N6 C10 1_555 1_555
Ni1 N1 1_555 1_555
O1 Ni1 1_555 1_555
C1B Fe1B 1_555 1_555
C2B Fe1B_2 1_555 1_555
C2_2 Fe1 1_555 1_555
C2B_2 Fe1B 1_555 1_555
C3B Fe1B 1_555 1_555
C4B Fe1B 1_555 1_555
C5B H1B 1_555 1_555
C6B C5B 1_555 1_555
H2B C6B 1_555 1_555
C7B C6B 1_555 1_555
H3B C7B 1_555 1_555
C8B C7B 1_555 1_555
C9B C8B 1_555 1_555
C10B C9B 1_555 1_555
C11B C10B 1_555 1_555
C12B C11B 1_555 1_555
H4B C12B 1_555 1_555
C13B C12B 1_555 1_555
H5B C13B 1_555 1_555
C14B C13B 1_555 1_555
H6B C14B 1_555 1_555
C15B C8B 1_555 1_555
H7B C15B 1_555 1_555
C16B C11B 1_555 1_555
H8B C16B 1_555 1_555
Fe1B N5B 1_555 1_555
Fe1_2 C2 1_555 1_555
N1B Ni1 1_555 1_555
N2B Ni1 1_555 1_555
N3B C3B 1_555 1_555
N4B C4B 1_555 1_555
N5B C5B 1_555 1_555
N6B C10B 1_555 1_555
O1B Ni1 1_555 1_555
C9 N5 1_555 1_555
C14 N6 1_555 1_555
C15 C16 1_555 1_555
Fe1 N6 1_555 1_555
C1B N1B 1_555 1_555
C2B N2B 1_555 1_555
C9B N5B 1_555 1_555
C14B N6B 1_555 1_555
C15B C16B 1_555 1_555
Fe1B N6B 1_555 1_555

#END
