
#######################################################################
#
#                 Cambridge Crystallographic Data Centre
#                                CCDC 
#
#######################################################################
#
# If this CIF has been generated from an entry in the Cambridge 
# Structural Database, then it will include bibliographic, chemical, 
# crystal, experimental, refinement or atomic coordinate data resulting 
# from the CCDC's data processing and validation procedures.
#
#######################################################################

data_GIJXON
_symmetry_cell_setting           monoclinic
_symmetry_space_group_name_H-M   'P 21/n'
_symmetry_Int_Tables_number      14
_space_group_name_Hall           '-P 2yn'
loop_
_symmetry_equiv_pos_site_id
_symmetry_equiv_pos_as_xyz
1 x,y,z
2 1/2-x,1/2+y,1/2-z
3 -x,-y,-z
4 1/2+x,1/2-y,1/2+z
_cell_length_a                   7.5343(4)
_cell_length_b                   15.2390(9)
_cell_length_c                   14.7064(9)
_cell_angle_alpha                90
_cell_angle_beta                 92.8420(10)
_cell_angle_gamma                90
_cell_volume                     1686.44
loop_
_atom_site_label
_atom_site_type_symbol
_atom_site_fract_x
_atom_site_fract_y
_atom_site_fract_z
Ni1 Ni 0.0000 0.0000 1.0000
O1 O 0.0074(3) 0.11831(16) 1.07114(17)
H1 H -0.079(4) 0.151(2) 1.0647(19)
H2 H 0.014(6) 0.102(3) 1.125(3)
Fe1 Fe 0.47939(5) 0.07639(2) 0.77732(2)
C1 C 0.3138(4) 0.05255(18) 0.87039(17)
N1 N 0.2053(3) 0.04041(16) 0.91982(15)
C2 C -0.3115(4) 0.05950(18) 0.85947(17)
N2 N -0.1901(3) 0.04769(15) 0.90796(15)
C3 C 0.2739(4) 0.09456(18) 0.69343(19)
N3 N 0.1614(4) 0.1061(2) 0.64063(19)
C4 C 0.4723(4) 0.1948(2) 0.82009(18)
N4 N 0.4754(4) 0.26474(18) 0.84868(18)
N5 N 0.6247(3) 0.09950(14) 0.67084(14)
N6 N 0.5045(3) -0.04605(15) 0.73400(14)
C5 C 0.6739(4) 0.1786(2) 0.6412(2)
H7 H 0.6536 0.2275 0.6771
C6 C 0.7535(4) 0.1904(2) 0.5595(2)
H8 H 0.7829 0.2463 0.5397
C7 C 0.7880(4) 0.1176(3) 0.5083(2)
H9 H 0.8442 0.1236 0.4538
C8 C 0.7397(4) 0.0364(2) 0.53764(19)
H10 H 0.7629 -0.0130 0.5031
C9 C 0.6562(4) 0.02779(18) 0.61896(18)
C10 C 0.5907(4) -0.05504(19) 0.65586(18)
C11 C 0.6135(4) -0.1360(2) 0.6162(2)
H11 H 0.6717 -0.1409 0.5621
C12 C 0.5489(5) -0.2094(2) 0.6576(2)
H12 H 0.5615 -0.2644 0.6314
C13 C 0.4664(5) -0.2008(2) 0.7374(2)
H13 H 0.4251 -0.2501 0.7671
C14 C 0.4446(4) -0.1181(2) 0.7739(2)
H14 H 0.3864 -0.1125 0.8279
O1B O -0.0074(3) -0.11831(16) 0.92886(17)
H1B H 0.079(4) -0.151(2) 0.9353(19)
H2B H -0.014(6) -0.102(3) 0.875(3)
Fe1B Fe -0.47939(5) -0.07639(2) 1.22268(2)
Fe1_2 Fe -0.52061(5) 0.07639(2) 0.77732(2)
Fe1B_2 Fe 0.52061(5) -0.07639(2) 1.22268(2)
C1B C -0.3138(4) -0.05255(18) 1.12961(17)
N1B N -0.2053(3) -0.04041(16) 1.08018(15)
C2B C 0.3115(4) -0.05950(18) 1.14053(17)
C2_2 C 0.6885(4) 0.05950(18) 0.85947(17)
C2B_2 C -0.6885(4) -0.05950(18) 1.14053(17)
N2B N 0.1901(3) -0.04769(15) 1.09204(15)
C3B C -0.2739(4) -0.09456(18) 1.30657(19)
N3B N -0.1614(4) -0.1061(2) 1.35937(19)
C4B C -0.4723(4) -0.1948(2) 1.17991(18)
N4B N -0.4754(4) -0.26474(18) 1.15132(18)
N5B N -0.6247(3) -0.09950(14) 1.32916(14)
N6B N -0.5045(3) 0.04605(15) 1.26600(14)
C5B C -0.6739(4) -0.1786(2) 1.3588(2)
H7B H -0.6536 -0.2275 1.3229
C6B C -0.7535(4) -0.1904(2) 1.4405(2)
H8B H -0.7829 -0.2463 1.4603
C7B C -0.7880(4) -0.1176(3) 1.4917(2)
H9B H -0.8442 -0.1236 1.5462
C8B C -0.7397(4) -0.0364(2) 1.46236(19)
H10B H -0.7629 0.0130 1.4969
C9B C -0.6562(4) -0.02779(18) 1.38104(18)
C10B C -0.5907(4) 0.05504(19) 1.34414(18)
C11B C -0.6135(4) 0.1360(2) 1.3838(2)
H11B H -0.6717 0.1409 1.4379
C12B C -0.5489(5) 0.2094(2) 1.3424(2)
H12B H -0.5615 0.2644 1.3686
C13B C -0.4664(5) 0.2008(2) 1.2626(2)
H13B H -0.4251 0.2501 1.2329
C14B C -0.4446(4) 0.1181(2) 1.2261(2)
H14B H -0.3864 0.1125 1.1721
O2 O 0.0173(5) 0.0744(3) 1.2529(2)
H3 H -0.011(8) 0.121(4) 1.285(4)
H4 H -0.032(10) 0.047(5) 1.270(5)
O3 O -0.2992(4) 0.2234(2) 1.0392(2)
H5 H -0.308(6) 0.270(3) 1.056(3)
H6 H -0.371(6) 0.210(3) 1.000(3)
loop_
_geom_bond_atom_site_label_1
_geom_bond_atom_site_label_2
_geom_bond_site_symmetry_1
_geom_bond_site_symmetry_2
Ni1 O1 1_555 1_555
O1 H1 1_555 1_555
H2 O1 1_555 1_555
O2 H3 1_555 1_555
H4 O2 1_555 1_555
O3 H5 1_555 1_555
H6 O3 1_555 1_555
Fe1 C1 1_555 1_555
C1 N1 1_555 1_555
N1 Ni1 1_555 1_555
C2 N2 1_555 1_555
N2 Ni1 1_555 1_555
C3 Fe1 1_555 1_555
N3 C3 1_555 1_555
C4 Fe1 1_555 1_555
N4 C4 1_555 1_555
N5 Fe1 1_555 1_555
N6 Fe1 1_555 1_555
C5 N5 1_555 1_555
H7 C5 1_555 1_555
C6 C5 1_555 1_555
H8 C6 1_555 1_555
C7 C6 1_555 1_555
H9 C7 1_555 1_555
C8 C7 1_555 1_555
H10 C8 1_555 1_555
C9 N5 1_555 1_555
C10 N6 1_555 1_555
C11 C10 1_555 1_555
H11 C11 1_555 1_555
C12 C11 1_555 1_555
H12 C12 1_555 1_555
C13 C12 1_555 1_555
H13 C13 1_555 1_555
C14 N6 1_555 1_555
H14 C14 1_555 1_555
O1B Ni1 1_555 1_555
H1B O1B 1_555 1_555
H2B O1B 1_555 1_555
Fe1B C1B 1_555 1_555
Fe1_2 C2 1_555 1_555
Fe1B_2 C2B 1_555 1_555
C1B N1B 1_555 1_555
N1B Ni1 1_555 1_555
C2B N2B 1_555 1_555
C2_2 Fe1 1_555 1_555
C2B_2 Fe1B 1_555 1_555
N2B Ni1 1_555 1_555
C3B Fe1B 1_555 1_555
N3B C3B 1_555 1_555
C4B Fe1B 1_555 1_555
N4B C4B 1_555 1_555
N5B Fe1B 1_555 1_555
N6B Fe1B 1_555 1_555
C5B N5B 1_555 1_555
H7B C5B 1_555 1_555
C6B C5B 1_555 1_555
H8B C6B 1_555 1_555
C7B C6B 1_555 1_555
H9B C7B 1_555 1_555
C8B C7B 1_555 1_555
H10B C8B 1_555 1_555
C9B N5B 1_555 1_555
C10B N6B 1_555 1_555
C11B C10B 1_555 1_555
H11B C11B 1_555 1_555
C12B C11B 1_555 1_555
H12B C12B 1_555 1_555
C13B C12B 1_555 1_555
H13B C13B 1_555 1_555
C14B N6B 1_555 1_555
H14B C14B 1_555 1_555
C8 C9 1_555 1_555
C9 C10 1_555 1_555
C13 C14 1_555 1_555
C8B C9B 1_555 1_555
C9B C10B 1_555 1_555
C13B C14B 1_555 1_555

#END
