
#######################################################################
#
#                 Cambridge Crystallographic Data Centre
#                                CCDC 
#
#######################################################################
#
# If this CIF has been generated from an entry in the Cambridge 
# Structural Database, then it will include bibliographic, chemical, 
# crystal, experimental, refinement or atomic coordinate data resulting 
# from the CCDC's data processing and validation procedures.
#
#######################################################################

data_GIKBUY
_symmetry_cell_setting           monoclinic
_symmetry_space_group_name_H-M   'P 21/c'
_symmetry_Int_Tables_number      14
_space_group_name_Hall           '-P 2ybc'
loop_
_symmetry_equiv_pos_site_id
_symmetry_equiv_pos_as_xyz
1 x,y,z
2 -x,1/2+y,1/2-z
3 -x,-y,-z
4 x,1/2-y,1/2+z
_cell_length_a                   9.4691(6)
_cell_length_b                   13.4407(7)
_cell_length_c                   12.7749(10)
_cell_angle_alpha                90
_cell_angle_beta                 105.155(3)
_cell_angle_gamma                90
_cell_volume                     1569.33
loop_
_atom_site_label
_atom_site_type_symbol
_atom_site_fract_x
_atom_site_fract_y
_atom_site_fract_z
Gd1 Gd 0.921600(16) 0.221957(11) 0.202722(13)
Gd2 Gd 1.308830(17) 0.357030(12) 0.380190(14)
S1 S 1.01727(9) 0.24295(6) -0.01078(7)
S2 S 0.60639(8) 0.12606(6) 0.12339(7)
N1 N 0.7646(3) 0.3726(2) 0.1746(2)
N2 N 0.5948(3) 0.4882(2) 0.1313(2)
H1 H 0.501(5) 0.518(4) 0.104(4)
C1 C 0.6232(4) 0.3903(2) 0.1331(3)
H2 H 0.5530 0.3413 0.1085
C2 C 0.8288(3) 0.4646(2) 0.2025(3)
C3 C 0.7236(3) 0.5378(2) 0.1753(3)
C4 C 0.9900(3) 0.4686(2) 0.2508(3)
C5 C 0.7199(4) 0.6470(2) 0.1765(3)
O1 O 1.0566(2) 0.54981(17) 0.2621(2)
O2 O 1.0514(2) 0.38454(17) 0.27929(19)
O3 O 0.6062(2) 0.68624(18) 0.1172(2)
O4 O 0.8257(2) 0.70005(17) 0.23015(19)
O5 O 0.4638(2) 0.16378(18) 0.0621(2)
O6 O 0.7191(2) 0.15412(18) 0.0658(2)
O7 O 0.6565(3) 0.17437(18) 0.2310(2)
O8 O 0.6013(2) 0.01796(18) 0.1357(2)
O9 O 0.9886(2) 0.14669(17) 0.0369(2)
O10 O 0.9139(3) 0.26053(18) -0.1175(2)
O11 O 1.1690(2) 0.24547(18) -0.0197(2)
O12 O 0.9937(3) 0.32020(18) 0.0657(2)
O14 O 1.5594(3) 0.3438(2) 0.3524(2)
H5 H 1.622(6) 0.334(4) 0.404(5)
H6 H 1.568(6) 0.289(5) 0.313(5)
O15 O 1.2100(3) 0.4645(2) 0.4953(2)
H7 H 1.150(6) 0.450(5) 0.523(5)
H8 H 1.203(6) 0.516(5) 0.483(5)
O16 O 1.3036(3) 0.3707(2) 0.1885(2)
H9 H 1.258(5) 0.339(4) 0.146(4)
H10 H 1.291(6) 0.436(5) 0.166(5)
Gd1A Gd 1.078400(16) 0.721957(11) 0.297278(13)
Gd1C Gd 0.921600(16) 0.278043(11) -0.297278(13)
Gd2A Gd 0.691170(17) 0.857030(12) 0.119810(14)
Gd2C Gd 0.308830(17) 0.142970(12) -0.119810(14)
Gd2A_2 Gd 0.691170(17) -0.142970(12) 0.119810(14)
Gd2C_2 Gd 1.308830(17) 0.142970(12) -0.119810(14)
O1A O 0.9434(2) 0.04981(17) 0.2379(2)
O3A O 1.3938(2) 0.18624(18) 0.3828(2)
O4A O 1.1743(2) 0.20005(17) 0.26985(19)
O5C O 1.4638(2) 0.33622(18) 0.5621(2)
O8A O 1.3987(2) 0.51796(18) 0.3643(2)
O10C O 0.9139(3) 0.23947(18) 0.3825(2)
O11C O 1.1690(2) 0.25453(18) 0.4803(2)
O13 O 0.7122(3) 0.4465(2) -0.0876(3)
H3 H 0.706(5) 0.408(4) -0.134(4)
H4 H 0.777(6) 0.424(4) -0.044(5)
loop_
_geom_bond_atom_site_label_1
_geom_bond_atom_site_label_2
_geom_bond_site_symmetry_1
_geom_bond_site_symmetry_2
Gd1 N1 1_555 1_555
Gd2 O2 1_555 1_555
S1 O9 1_555 1_555
S2 O5 1_555 1_555
N1 C1 1_555 1_555
N2 H1 1_555 1_555
C1 N2 1_555 1_555
H2 C1 1_555 1_555
C2 N1 1_555 1_555
C3 N2 1_555 1_555
C4 C2 1_555 1_555
C5 C3 1_555 1_555
O1 C4 1_555 1_555
O2 Gd1 1_555 1_555
O3 C5 1_555 1_555
O4 C5 1_555 1_555
O5 Gd2C 1_555 1_555
O6 Gd1 1_555 1_555
O7 Gd1 1_555 1_555
O8 S2 1_555 1_555
O9 Gd1 1_555 1_555
O10 S1 1_555 1_555
O11 S1 1_555 1_555
O12 Gd1 1_555 1_555
O13 H3 1_555 1_555
H4 O13 1_555 1_555
O14 Gd2 1_555 1_555
H5 O14 1_555 1_555
H6 O14 1_555 1_555
O15 Gd2 1_555 1_555
H7 O15 1_555 1_555
H8 O15 1_555 1_555
O16 Gd2 1_555 1_555
H9 O16 1_555 1_555
H10 O16 1_555 1_555
Gd1A O1 1_555 1_555
Gd1C O10 1_555 1_555
Gd2A O3 1_555 1_555
Gd2A_2 O8 1_555 1_555
Gd2C_2 O11 1_555 1_555
O1A Gd1 1_555 1_555
O3A Gd2 1_555 1_555
O4A Gd1 1_555 1_555
O5C Gd2 1_555 1_555
O8A Gd2 1_555 1_555
O10C Gd1 1_555 1_555
O11C Gd2 1_555 1_555
Gd2 O4A 1_555 1_555
S1 O12 1_555 1_555
S2 O6 1_555 1_555
S2 O7 1_555 1_555
C2 C3 1_555 1_555
C4 O2 1_555 1_555
O4 Gd1A 1_555 1_555
O4 Gd2A 1_555 1_555

#END
