
#######################################################################
#
#                 Cambridge Crystallographic Data Centre
#                                CCDC 
#
#######################################################################
#
# If this CIF has been generated from an entry in the Cambridge 
# Structural Database, then it will include bibliographic, chemical, 
# crystal, experimental, refinement or atomic coordinate data resulting 
# from the CCDC's data processing and validation procedures.
#
#######################################################################

data_GIKBEI
_symmetry_cell_setting           monoclinic
_symmetry_space_group_name_H-M   'P 21/c'
_symmetry_Int_Tables_number      14
_space_group_name_Hall           '-P 2ybc'
loop_
_symmetry_equiv_pos_site_id
_symmetry_equiv_pos_as_xyz
1 x,y,z
2 -x,1/2+y,1/2-z
3 -x,-y,-z
4 x,1/2-y,1/2+z
_cell_length_a                   11.2069(3)
_cell_length_b                   6.5254(2)
_cell_length_c                   12.1824(4)
_cell_angle_alpha                90
_cell_angle_beta                 107.9100(10)
_cell_angle_gamma                90
_cell_volume                     847.721
loop_
_atom_site_label
_atom_site_type_symbol
_atom_site_fract_x
_atom_site_fract_y
_atom_site_fract_z
Gd1 Gd 0.16110(3) 0.14120(5) 0.60588(2)
S1 S 0.16302(15) 0.6788(3) 0.54443(15)
C1 C 0.5127(7) 0.2598(12) 0.5003(7)
H1 H 0.5470 0.2743 0.4402
C2 C 0.4944(7) 0.2291(14) 0.6735(7)
H2 H 0.5156 0.2194 0.7534
C3 C 0.3905(7) 0.2358(11) 0.4909(6)
C4 C 0.2749(6) 0.2226(11) 0.3922(6)
N1 N 0.5760(6) 0.2586(11) 0.6158(6)
H3 H 0.6556 0.2742 0.6461
N2 N 0.3763(6) 0.2153(11) 0.6007(5)
O1 O 0.2806(5) 0.2776(9) 0.2939(4)
O2 O 0.1778(5) 0.1592(8) 0.4126(4)
O3 O 0.1342(5) 0.4981(8) 0.6031(4)
O4 O 0.1980(6) 0.6236(8) 0.4436(5)
O5 O 0.2598(5) 0.8041(8) 0.6267(5)
O6 O 0.0523(5) 0.8182(8) 0.5106(4)
O7 O 0.0425(5) 0.0242(10) 0.7255(5)
H4 H 0.0721 -0.0346 0.7900
H5 H -0.0199 -0.0402 0.6856
Gd1C Gd 0.16110(3) 0.35880(5) 0.10588(2)
Gd1_2 Gd 0.16110(3) 1.14120(5) 0.60588(2)
Gd1B Gd -0.16110(3) 0.85880(5) 0.39412(2)
O1C O 0.2806(5) 0.2224(9) 0.7939(4)
O5_2 O 0.2598(5) -0.1959(8) 0.6267(5)
O6_2 O 0.0523(5) -0.1818(8) 0.5106(4)
O6B O -0.0523(5) 0.1818(8) 0.4894(4)
loop_
_geom_bond_atom_site_label_1
_geom_bond_atom_site_label_2
_geom_bond_site_symmetry_1
_geom_bond_site_symmetry_2
Gd1 N2 1_555 1_555
S1 O3 1_555 1_555
C1 H1 1_555 1_555
C2 H2 1_555 1_555
C3 C1 1_555 1_555
C4 C3 1_555 1_555
N1 C1 1_555 1_555
H3 N1 1_555 1_555
N2 C2 1_555 1_555
O1 C4 1_555 1_555
O2 Gd1 1_555 1_555
O3 Gd1 1_555 1_555
O4 S1 1_555 1_555
O5 S1 1_555 1_555
O6 S1 1_555 1_555
O7 Gd1 1_555 1_555
H4 O7 1_555 1_555
H5 O7 1_555 1_555
Gd1C O1 1_555 1_555
Gd1_2 O5 1_555 1_555
Gd1B O6 1_555 1_555
O1C Gd1 1_555 1_555
O5_2 Gd1 1_555 1_555
O6_2 Gd1 1_555 1_555
O6B Gd1 1_555 1_555
C2 N1 1_555 1_555
C3 N2 1_555 1_555
C4 O2 1_555 1_555
O6 Gd1_2 1_555 1_555

#END
