
#######################################################################
#
#                 Cambridge Crystallographic Data Centre
#                                CCDC 
#
#######################################################################
#
# If this CIF has been generated from an entry in the Cambridge 
# Structural Database, then it will include bibliographic, chemical, 
# crystal, experimental, refinement or atomic coordinate data resulting 
# from the CCDC's data processing and validation procedures.
#
#######################################################################

data_GIKBIM
_symmetry_cell_setting           monoclinic
_symmetry_space_group_name_H-M   'P 21/c'
_symmetry_Int_Tables_number      14
_space_group_name_Hall           '-P 2ybc'
loop_
_symmetry_equiv_pos_site_id
_symmetry_equiv_pos_as_xyz
1 x,y,z
2 -x,1/2+y,1/2-z
3 -x,-y,-z
4 x,1/2-y,1/2+z
_cell_length_a                   11.1469(3)
_cell_length_b                   6.447
_cell_length_c                   12.0387(2)
_cell_angle_alpha                90
_cell_angle_beta                 107.7710(10)
_cell_angle_gamma                90
_cell_volume                     823.868
loop_
_atom_site_label
_atom_site_type_symbol
_atom_site_fract_x
_atom_site_fract_y
_atom_site_fract_z
Er1 Er 0.15956(3) 0.14091(5) 0.60546(3)
S1 S 0.16234(17) 0.6796(3) 0.54441(17)
C1 C 0.5117(8) 0.2601(13) 0.5025(8)
H1 H 0.5474 0.2777 0.4426
C2 C 0.4857(7) 0.2300(15) 0.6748(7)
H2 H 0.5037 0.2234 0.7554
C3 C 0.3881(7) 0.2344(12) 0.4922(7)
C4 C 0.2728(7) 0.2243(12) 0.3912(7)
N1 N 0.5727(7) 0.2545(12) 0.6197(6)
H3 H 0.6527 0.2649 0.6523
N2 N 0.3725(6) 0.2165(11) 0.6009(6)
O1 O 0.2785(5) 0.2788(9) 0.2928(4)
O2 O 0.1738(5) 0.1593(8) 0.4136(5)
O3 O 0.1341(5) 0.4937(9) 0.6026(5)
O4 O 0.2004(6) 0.6260(9) 0.4431(5)
O5 O 0.2594(5) 0.8101(9) 0.6289(5)
O6 O 0.0496(5) 0.8196(8) 0.5102(5)
O7 O 0.0428(5) 0.0286(10) 0.7233(5)
H4 H 0.0724 -0.0302 0.7878
H5 H -0.0196 -0.0358 0.6834
Er1C Er 0.15956(3) 0.35909(5) 0.10546(3)
Er1_2 Er 0.15956(3) 1.14091(5) 0.60546(3)
Er1B Er -0.15956(3) 0.85909(5) 0.39454(3)
O1C O 0.2785(5) 0.2212(9) 0.7928(4)
O5_2 O 0.2594(5) -0.1899(9) 0.6289(5)
O6_2 O 0.0496(5) -0.1804(8) 0.5102(5)
O6B O -0.0496(5) 0.1804(8) 0.4898(5)
loop_
_geom_bond_atom_site_label_1
_geom_bond_atom_site_label_2
_geom_bond_site_symmetry_1
_geom_bond_site_symmetry_2
Er1 N2 1_555 1_555
S1 O3 1_555 1_555
C1 H1 1_555 1_555
C2 H2 1_555 1_555
C3 C1 1_555 1_555
C4 C3 1_555 1_555
N1 C1 1_555 1_555
H3 N1 1_555 1_555
N2 C2 1_555 1_555
O1 C4 1_555 1_555
O2 Er1 1_555 1_555
O3 Er1 1_555 1_555
O4 S1 1_555 1_555
O5 S1 1_555 1_555
O6 S1 1_555 1_555
O7 Er1 1_555 1_555
H4 O7 1_555 1_555
H5 O7 1_555 1_555
Er1C O1 1_555 1_555
Er1_2 O5 1_555 1_555
Er1B O6 1_555 1_555
O1C Er1 1_555 1_555
O5_2 Er1 1_555 1_555
O6_2 Er1 1_555 1_555
O6B Er1 1_555 1_555
C2 N1 1_555 1_555
C3 N2 1_555 1_555
C4 O2 1_555 1_555
O6 Er1_2 1_555 1_555

#END
