
#######################################################################
#
#                 Cambridge Crystallographic Data Centre
#                                CCDC 
#
#######################################################################
#
# If this CIF has been generated from an entry in the Cambridge 
# Structural Database, then it will include bibliographic, chemical, 
# crystal, experimental, refinement or atomic coordinate data resulting 
# from the CCDC's data processing and validation procedures.
#
#######################################################################

data_GIKCAF
_symmetry_cell_setting           monoclinic
_symmetry_space_group_name_H-M   'P 21/c'
_symmetry_Int_Tables_number      14
_space_group_name_Hall           '-P 2ybc'
loop_
_symmetry_equiv_pos_site_id
_symmetry_equiv_pos_as_xyz
1 x,y,z
2 -x,1/2+y,1/2-z
3 -x,-y,-z
4 x,1/2-y,1/2+z
_cell_length_a                   6.6022(5)
_cell_length_b                   13.3235(9)
_cell_length_c                   18.8797(12)
_cell_angle_alpha                90
_cell_angle_beta                 106.618(3)
_cell_angle_gamma                90
_cell_volume                     1591.38
loop_
_atom_site_label
_atom_site_type_symbol
_atom_site_fract_x
_atom_site_fract_y
_atom_site_fract_z
Eu1 Eu 0.45137(4) -0.304522(17) -0.290493(12)
Eu2 Eu 0.80463(3) -0.167000(17) -0.101470(12)
S1 S 0.02948(19) -0.28462(10) -0.24005(7)
S2 S 0.24717(17) -0.40069(8) -0.44357(6)
O1 O 0.5845(5) -0.1425(3) -0.23011(18)
O2 O 0.1604(7) -0.3753(3) -0.2332(2)
O3 O 0.0253(6) -0.2495(3) -0.16599(19)
O4 O -0.1858(6) -0.3031(3) -0.2867(2)
O5 O 0.1357(7) -0.2085(3) -0.2744(2)
O6 O 0.1509(5) -0.3515(3) -0.51506(18)
O7 O 0.4694(5) -0.3704(3) -0.41401(18)
O8 O 0.1428(5) -0.3643(3) -0.38778(18)
O9 O 0.2284(6) -0.5095(3) -0.45172(19)
N1 N 0.4040(7) -0.1531(3) -0.3754(2)
N2 N 0.2729(7) -0.0369(3) -0.4586(2)
H1 H 0.2148 -0.0098 -0.5009
C1 C 0.3209(9) -0.1346(4) -0.4462(3)
H2 H 0.2979 -0.1831 -0.4831
C2 C 0.3325(7) 0.0119(4) -0.3922(3)
C3 C 0.4143(7) -0.0611(4) -0.3407(2)
O11 O 0.4339(6) -0.1475(4) -0.1050(2)
O12 O 0.7570(6) -0.2007(3) 0.0214(2)
O13 O 0.9992(6) -0.0439(3) -0.1592(2)
H5 H 0.3233 -0.1825 -0.1312
H6 H 0.3941 -0.0860 -0.0944
H7 H 0.8717 -0.1832 0.0578
H8 H 0.6429 -0.1803 0.0292
H9 H 1.0013 0.0223 -0.1706
H10 H 1.0255 -0.0804 -0.1971
C4 C 0.2825(7) 0.1194(3) -0.3903(2)
O14 O 0.1353(6) 0.1541(3) -0.44151(19)
O15 O 0.3876(6) 0.1766(3) -0.33808(19)
C5 C 0.5057(7) -0.0586(3) -0.2592(3)
O16 O 0.5064(6) 0.0195(3) -0.22303(18)
Eu1_2 Eu -0.54863(4) -0.304522(17) -0.290493(12)
Eu1A Eu 0.54863(4) 0.195478(17) -0.209507(12)
Eu2_2 Eu -0.19537(3) -0.167000(17) -0.101470(12)
Eu2C Eu -0.19537(3) -0.333000(17) -0.601470(12)
Eu2A Eu 0.19537(3) -0.667000(17) -0.398530(12)
Eu2A_2 Eu 0.19537(3) 0.333000(17) -0.398530(12)
O3_2 O 1.0253(6) -0.2495(3) -0.16599(19)
O4_2 O 0.8142(6) -0.3031(3) -0.2867(2)
O6C O 1.1509(5) -0.1485(3) -0.01506(18)
O9A O 0.7716(6) -0.0095(3) -0.04828(19)
O14A O 0.8647(6) -0.3459(3) -0.05849(19)
O15A O 0.6124(6) -0.3234(3) -0.16192(19)
O16A O 0.4936(6) -0.4805(3) -0.27697(18)
O10 O -0.1429(9) -0.0338(5) -0.3897(3)
H3 H -0.2696 -0.0106 -0.3813
H4 H -0.1609 -0.0937 -0.4144
loop_
_geom_bond_atom_site_label_1
_geom_bond_atom_site_label_2
_geom_bond_site_symmetry_1
_geom_bond_site_symmetry_2
Eu1 O1 1_555 1_555
Eu2 O1 1_555 1_555
S1 O2 1_555 1_555
S2 O6 1_555 1_555
O1 C5 1_555 1_555
O2 Eu1 1_555 1_555
O3 S1 1_555 1_555
O4 S1 1_555 1_555
O5 Eu1 1_555 1_555
O6 Eu2C 1_555 1_555
O7 Eu1 1_555 1_555
O8 Eu1 1_555 1_555
O9 S2 1_555 1_555
N1 Eu1 1_555 1_555
N2 H1 1_555 1_555
C1 N1 1_555 1_555
H2 C1 1_555 1_555
C2 N2 1_555 1_555
C3 N1 1_555 1_555
O10 H3 1_555 1_555
O11 Eu2 1_555 1_555
O12 Eu2 1_555 1_555
O13 Eu2 1_555 1_555
H4 O10 1_555 1_555
H5 O11 1_555 1_555
H6 O11 1_555 1_555
H7 O12 1_555 1_555
H8 O12 1_555 1_555
H9 O13 1_555 1_555
H10 O13 1_555 1_555
C4 C2 1_555 1_555
O14 C4 1_555 1_555
O15 C4 1_555 1_555
C5 C3 1_555 1_555
O16 C5 1_555 1_555
Eu1_2 O4 1_555 1_555
Eu1A O15 1_555 1_555
Eu2_2 O3 1_555 1_555
Eu2A O9 1_555 1_555
Eu2A_2 O14 1_555 1_555
O3_2 Eu2 1_555 1_555
O4_2 Eu1 1_555 1_555
O6C Eu2 1_555 1_555
O9A Eu2 1_555 1_555
O14A Eu2 1_555 1_555
O15A Eu1 1_555 1_555
O16A Eu1 1_555 1_555
Eu2 O15A 1_555 1_555
S1 O5 1_555 1_555
S2 O7 1_555 1_555
S2 O8 1_555 1_555
N2 C1 1_555 1_555
C2 C3 1_555 1_555
O15 Eu2A_2 1_555 1_555
O16 Eu1A 1_555 1_555

#END
