
#######################################################################
#
#                 Cambridge Crystallographic Data Centre
#                                CCDC 
#
#######################################################################
#
# If this CIF has been generated from an entry in the Cambridge 
# Structural Database, then it will include bibliographic, chemical, 
# crystal, experimental, refinement or atomic coordinate data resulting 
# from the CCDC's data processing and validation procedures.
#
#######################################################################

data_GIKCEJ
_symmetry_cell_setting           triclinic
_symmetry_space_group_name_H-M   'P -1'
_symmetry_Int_Tables_number      2
_space_group_name_Hall           '-P 1'
loop_
_symmetry_equiv_pos_site_id
_symmetry_equiv_pos_as_xyz
1 x,y,z
2 -x,-y,-z
_cell_length_a                   6.6280(5)
_cell_length_b                   9.4648(7)
_cell_length_c                   21.5033(15)
_cell_angle_alpha                96.778(2)
_cell_angle_beta                 94.307(4)
_cell_angle_gamma                97.886(4)
_cell_volume                     1321.14
loop_
_atom_site_label
_atom_site_type_symbol
_atom_site_fract_x
_atom_site_fract_y
_atom_site_fract_z
Eu1 Eu 0.93626(4) 0.11837(3) 0.321871(11)
Eu2 Eu 0.65242(4) -0.29082(2) 0.422202(11)
Eu3 Eu 0.67536(4) -0.01347(3) 0.138760(12)
Cu1 Cu 1.0000 0.5000 0.0000
S1 S 1.2323(2) 0.06525(15) 0.18550(6)
S2 S 1.33150(19) 0.35751(13) 0.43562(5)
S3 S 1.15329(19) -0.18125(13) 0.37622(6)
C1 C 1.0796(9) 0.6167(6) 0.1493(3)
H1 H 1.1444 0.7105 0.1498
C2 C 0.9280(8) 0.4011(5) 0.1174(2)
C3 C 0.9421(8) 0.4170(6) 0.1822(2)
C4 C 0.8903(8) 0.3198(5) 0.2303(2)
C5 C 0.8214(8) 0.2886(5) 0.0675(2)
C6 C 0.4776(8) -0.5286(5) 0.2819(2)
H2 H 0.4311 -0.6049 0.3032
C7 C 0.5516(8) -0.4047(5) 0.2044(2)
C8 C 0.6018(8) -0.3187(5) 0.2612(2)
C9 C 0.5662(8) -0.3836(6) 0.1374(2)
C10 C 0.7015(7) -0.1688(5) 0.2806(2)
N1 N 1.0159(7) 0.5261(5) 0.0975(2)
N2 N 1.0379(7) 0.5548(5) 0.2008(2)
H3 H 1.0666 0.5950 0.2390
N3 N 0.4743(7) -0.5370(5) 0.2190(2)
H4 H 0.4311 -0.6125 0.1925
N4 N 0.5549(7) -0.3986(4) 0.30956(19)
O1 O 0.9510(6) 0.3646(4) 0.28647(18)
O2 O 0.7955(6) 0.1929(4) 0.21474(17)
O3 O 0.7257(7) 0.1748(4) 0.08115(19)
O4 O 0.8271(6) 0.3147(4) 0.01171(17)
O5 O 0.5301(7) -0.4940(4) 0.09811(18)
O6 O 0.6156(7) -0.2597(4) 0.12448(18)
O7 O 0.7708(6) -0.0866(4) 0.24256(16)
O8 O 0.7221(5) -0.1254(4) 0.33919(16)
O9 O 1.1905(6) 0.1247(4) 0.24923(18)
O10 O 1.3346(10) 0.1772(6) 0.1542(2)
O11 O 1.3701(7) -0.0432(6) 0.1923(2)
O12 O 1.0418(6) -0.0032(5) 0.14949(18)
O13 O 1.4908(6) 0.2846(4) 0.46372(19)
O14 O 1.4127(6) 0.4994(4) 0.42151(18)
O15 O 1.2281(6) 0.2709(4) 0.37810(16)
O16 O 1.1811(6) 0.3705(4) 0.48352(16)
O17 O 1.0088(6) -0.2047(5) 0.42445(19)
O18 O 1.1528(6) -0.0336(4) 0.3602(2)
O19 O 1.3586(6) -0.1873(4) 0.40534(19)
O20 O 1.0970(7) -0.2856(5) 0.3212(2)
O21 O 0.8425(6) -0.4977(4) 0.39729(18)
O22 O 0.5713(6) 0.1353(5) 0.32367(19)
O23 O 0.3964(7) -0.0690(4) 0.05513(19)
O24 O 1.2634(7) 0.3867(5) 0.00165(19)
O25 O 0.7250(7) -0.0579(4) 0.48745(19)
O26 O 0.8267(8) -0.0951(5) 0.0340(2)
O27 O 0.8475(6) 0.1856(4) 0.42874(18)
H5 H 0.9044 -0.5114 0.4314
H6 H 0.9193 -0.5131 0.3672
H7 H 0.4949 0.1209 0.2873
H8 H 0.4997 0.0817 0.3528
H9 H 0.2749 -0.0692 0.0757
H10 H 0.3996 0.0102 0.0321
H11 H 1.3419 0.4212 0.0382
H12 H 1.3437 0.3931 -0.0310
H13 H 0.7929 0.0180 0.4789
H14 H 0.6770 -0.0388 0.5227
H15 H 0.7687 -0.1800 0.0222
H16 H 0.9450 -0.0965 0.0488
H17 H 0.9254 0.2489 0.4575
H18 H 0.7201 0.2052 0.4280
Eu1A Eu 1.06374(4) 0.88163(3) -0.321871(11)
Eu2A Eu 1.34758(4) 1.29082(2) -0.422202(11)
Eu2A_2 Eu 1.34758(4) 0.29082(2) 0.577798(11)
Eu2_2 Eu 1.65242(4) 0.70918(2) 0.422202(11)
Eu2_3 Eu 1.65242(4) -0.29082(2) 0.422202(11)
Eu2_4 Eu 0.65242(4) 0.70918(2) -0.577798(11)
Eu2A_3 Eu 0.34758(4) 0.29082(2) -0.422202(11)
Eu2A_4 Eu 0.34758(4) 1.29082(2) -0.422202(11)
Eu3A Eu 1.32464(4) 1.01347(3) -0.138760(12)
Eu3_2 Eu 1.67536(4) -0.01347(3) 0.138760(12)
Eu3A_2 Eu 0.32464(4) 1.01347(3) -0.138760(12)
S1A S 0.7677(2) 0.93475(15) -0.18550(6)
S2A S 0.66850(19) 0.64249(13) -0.43562(5)
S3A S 0.84671(19) 1.18125(13) -0.37622(6)
C1A C 0.9204(9) 0.3833(6) -0.1493(3)
H1A H 0.8556 0.2895 -0.1498
C2A C 1.0720(8) 0.5989(5) -0.1174(2)
C3A C 1.0579(8) 0.5830(6) -0.1822(2)
C4A C 1.1097(8) 0.6802(5) -0.2303(2)
C5A C 1.1786(8) 0.7114(5) -0.0675(2)
C6A C 1.5224(8) 1.5286(5) -0.2819(2)
H2A H 1.5689 1.6049 -0.3032
C7A C 1.4484(8) 1.4047(5) -0.2044(2)
C8A C 1.3982(8) 1.3187(5) -0.2612(2)
C9A C 1.4338(8) 1.3836(6) -0.1374(2)
C10A C 1.2985(7) 1.1688(5) -0.2806(2)
N1A N 0.9841(7) 0.4739(5) -0.0975(2)
N2A N 0.9621(7) 0.4452(5) -0.2008(2)
H3A H 0.9334 0.4050 -0.2390
N3A N 1.5257(7) 1.5370(5) -0.2190(2)
H4A H 1.5689 1.6125 -0.1925
N4A N 1.4451(7) 1.3986(4) -0.30956(19)
O1A O 1.0490(6) 0.6354(4) -0.28647(18)
O2A O 1.2045(6) 0.8071(4) -0.21474(17)
O3A O 1.2743(7) 0.8252(4) -0.08115(19)
O4A O 1.1729(6) 0.6853(4) -0.01171(17)
O5A O 1.4699(7) 1.4940(4) -0.09811(18)
O6A O 1.3844(7) 1.2597(4) -0.12448(18)
O7A O 1.2292(6) 1.0866(4) -0.24256(16)
O8A O 1.2779(5) 1.1254(4) -0.33919(16)
O9A O 0.8095(6) 0.8753(4) -0.24923(18)
O10A O 0.6654(10) 0.8228(6) -0.1542(2)
O11_2 O 0.3701(7) -0.0432(6) 0.1923(2)
O11A O 1.6299(7) 1.0432(6) -0.1923(2)
O11A_2 O 0.6299(7) 1.0432(6) -0.1923(2)
O12A O 0.9582(6) 1.0032(5) -0.14949(18)
O13A O 0.5092(6) 0.7154(4) -0.46372(19)
O13A_2 O 0.5092(6) -0.2846(4) 0.53628(19)
O13_2 O 1.4908(6) 1.2846(4) -0.53628(19)
O14A O 0.5873(6) 0.5006(4) -0.42151(18)
O14_2 O 0.4127(6) -0.5006(4) 0.42151(18)
O14A_2 O 1.5873(6) 1.5006(4) -0.42151(18)
O15A O 0.7719(6) 0.7291(4) -0.37810(16)
O16A O 0.8189(6) 0.6295(4) -0.48352(16)
O16A_2 O 0.8189(6) -0.3705(4) 0.51648(16)
O16_2 O 1.1811(6) 1.3705(4) -0.51648(16)
O17A O 0.9912(6) 1.2047(5) -0.42445(19)
O18A O 0.8472(6) 1.0336(4) -0.3602(2)
O19A O 0.6414(6) 1.1873(4) -0.40534(19)
O19_2 O 0.3586(6) -0.1873(4) 0.40534(19)
O19A_2 O 1.6414(6) 1.1873(4) -0.40534(19)
O20A O 0.9030(7) 1.2856(5) -0.3212(2)
O21A O 1.1575(6) 1.4977(4) -0.39729(18)
O22A O 1.4287(6) 0.8647(5) -0.32367(19)
O23A O 1.6036(7) 1.0690(4) -0.05513(19)
O24A O 0.7366(7) 0.6133(5) -0.00165(19)
O25A O 1.2750(7) 1.0579(4) -0.48745(19)
O26A O 1.1733(8) 1.0951(5) -0.0340(2)
O27A O 1.1525(6) 0.8144(4) -0.42874(18)
H5A H 1.0956 1.5114 -0.4314
H6A H 1.0807 1.5131 -0.3672
H7A H 1.5051 0.8791 -0.2873
H8A H 1.5003 0.9183 -0.3528
H9A H 1.7251 1.0692 -0.0757
H10A H 1.6004 0.9898 -0.0321
H11A H 0.6581 0.5788 -0.0382
H12A H 0.6563 0.6069 0.0310
H13A H 1.2071 0.9820 -0.4789
H14A H 1.3230 1.0388 -0.5227
H15A H 1.2313 1.1800 -0.0222
H16A H 1.0550 1.0965 -0.0488
H17A H 1.0746 0.7511 -0.4575
H18A H 1.2799 0.7948 -0.4280
loop_
_geom_bond_atom_site_label_1
_geom_bond_atom_site_label_2
_geom_bond_site_symmetry_1
_geom_bond_site_symmetry_2
Eu1 O1 1_555 1_555
Eu2 N4 1_555 1_555
Eu3 O2 1_555 1_555
Cu1 N1 1_555 1_555
S1 O9 1_555 1_555
S2 O13 1_555 1_555
S3 O17 1_555 1_555
C1 H1 1_555 1_555
C2 C3 1_555 1_555
C3 C4 1_555 1_555
C4 O1 1_555 1_555
C5 C2 1_555 1_555
C6 H2 1_555 1_555
C7 C8 1_555 1_555
C8 C10 1_555 1_555
C9 C7 1_555 1_555
C10 O7 1_555 1_555
N1 C1 1_555 1_555
N2 C1 1_555 1_555
H3 N2 1_555 1_555
N3 C6 1_555 1_555
H4 N3 1_555 1_555
N4 C6 1_555 1_555
O2 Eu1 1_555 1_555
O3 Eu3 1_555 1_555
O4 Cu1 1_555 1_555
O5 C9 1_555 1_555
O6 Eu3 1_555 1_555
O7 Eu1 1_555 1_555
O8 Eu1 1_555 1_555
O9 Eu1 1_555 1_555
O10 S1 1_555 1_555
O11 S1 1_555 1_555
O12 Eu3 1_555 1_555
O13 Eu2A_2 1_555 1_555
O14 S2 1_555 1_555
O15 Eu1 1_555 1_555
O16 S2 1_555 1_555
O17 Eu2 1_555 1_555
O18 Eu1 1_555 1_555
O19 S3 1_555 1_555
O20 S3 1_555 1_555
O21 Eu2 1_555 1_555
O22 Eu1 1_555 1_555
O23 Eu3 1_555 1_555
O24 Cu1 1_555 1_555
O25 Eu2 1_555 1_555
O26 Eu3 1_555 1_555
O27 Eu1 1_555 1_555
H5 O21 1_555 1_555
H6 O21 1_555 1_555
H7 O22 1_555 1_555
H8 O22 1_555 1_555
H9 O23 1_555 1_555
H10 O23 1_555 1_555
H11 O24 1_555 1_555
H12 O24 1_555 1_555
H13 O25 1_555 1_555
H14 O25 1_555 1_555
H15 O26 1_555 1_555
H16 O26 1_555 1_555
H17 O27 1_555 1_555
H18 O27 1_555 1_555
Eu1A O1A 1_555 1_555
Eu2A N4A 1_555 1_555
Eu2A_2 O16 1_555 1_555
Eu2_2 O14 1_555 1_555
Eu2_3 O19 1_555 1_555
Eu2_4 O13A 1_555 1_555
Eu2A_3 O14A 1_555 1_555
Eu2A_4 O19A 1_555 1_555
Eu3A O2A 1_555 1_555
Eu3_2 O11 1_555 1_555
Eu3A_2 O11A_2 1_555 1_555
S1A O9A 1_555 1_555
S2A O13A 1_555 1_555
S3A O17A 1_555 1_555
C1A H1A 1_555 1_555
C2A C3A 1_555 1_555
C3A C4A 1_555 1_555
C4A O1A 1_555 1_555
C5A C2A 1_555 1_555
C6A H2A 1_555 1_555
C7A C8A 1_555 1_555
C8A C10A 1_555 1_555
C9A C7A 1_555 1_555
C10A O7A 1_555 1_555
N1A Cu1 1_555 1_555
N2A C1A 1_555 1_555
H3A N2A 1_555 1_555
N3A C6A 1_555 1_555
H4A N3A 1_555 1_555
N4A C6A 1_555 1_555
O2A Eu1A 1_555 1_555
O3A Eu3A 1_555 1_555
O4A Cu1 1_555 1_555
O5A C9A 1_555 1_555
O6A Eu3A 1_555 1_555
O7A Eu1A 1_555 1_555
O8A Eu1A 1_555 1_555
O9A Eu1A 1_555 1_555
O10A S1A 1_555 1_555
O11_2 Eu3 1_555 1_555
O11A Eu3A 1_555 1_555
O11A_2 S1A 1_555 1_555
O12A Eu3A 1_555 1_555
O13A_2 Eu2 1_555 1_555
O13_2 Eu2A 1_555 1_555
O14A S2A 1_555 1_555
O14_2 Eu2 1_555 1_555
O14A_2 Eu2A 1_555 1_555
O15A Eu1A 1_555 1_555
O16A Eu2_4 1_555 1_555
O16A_2 Eu2 1_555 1_555
O16_2 Eu2A 1_555 1_555
O17A Eu2A 1_555 1_555
O18A Eu1A 1_555 1_555
O19A S3A 1_555 1_555
O19_2 Eu2 1_555 1_555
O19A_2 Eu2A 1_555 1_555
O20A S3A 1_555 1_555
O21A Eu2A 1_555 1_555
O22A Eu1A 1_555 1_555
O23A Eu3A 1_555 1_555
O24A Cu1 1_555 1_555
O25A Eu2A 1_555 1_555
O26A Eu3A 1_555 1_555
O27A Eu1A 1_555 1_555
H5A O21A 1_555 1_555
H6A O21A 1_555 1_555
H7A O22A 1_555 1_555
H8A O22A 1_555 1_555
H9A O23A 1_555 1_555
H10A O23A 1_555 1_555
H11A O24A 1_555 1_555
H12A O24A 1_555 1_555
H13A O25A 1_555 1_555
H14A O25A 1_555 1_555
H15A O26A 1_555 1_555
H16A O26A 1_555 1_555
H17A O27A 1_555 1_555
H18A O27A 1_555 1_555
Eu2 O8 1_555 1_555
Eu3 O7 1_555 1_555
S1 O12 1_555 1_555
S2 O15 1_555 1_555
S3 O18 1_555 1_555
C2 N1 1_555 1_555
C3 N2 1_555 1_555
C4 O2 1_555 1_555
C5 O3 1_555 1_555
C5 O4 1_555 1_555
C7 N3 1_555 1_555
C8 N4 1_555 1_555
C9 O6 1_555 1_555
C10 O8 1_555 1_555
Eu2A O8A 1_555 1_555
Eu3A O7A 1_555 1_555
S1A O12A 1_555 1_555
S2A O15A 1_555 1_555
S2A O16A 1_555 1_555
S3A O18A 1_555 1_555
C1A N1A 1_555 1_555
C2A N1A 1_555 1_555
C3A N2A 1_555 1_555
C4A O2A 1_555 1_555
C5A O3A 1_555 1_555
C5A O4A 1_555 1_555
C7A N3A 1_555 1_555
C8A N4A 1_555 1_555
C9A O6A 1_555 1_555
C10A O8A 1_555 1_555

#END
