
#######################################################################
#
#                 Cambridge Crystallographic Data Centre
#                                CCDC 
#
#######################################################################
#
# If this CIF has been generated from an entry in the Cambridge 
# Structural Database, then it will include bibliographic, chemical, 
# crystal, experimental, refinement or atomic coordinate data resulting 
# from the CCDC's data processing and validation procedures.
#
#######################################################################

data_GIKJIV
_symmetry_cell_setting           monoclinic
_symmetry_space_group_name_H-M   'P 21/m'
_symmetry_Int_Tables_number      11
_space_group_name_Hall           '-P 2yb'
loop_
_symmetry_equiv_pos_site_id
_symmetry_equiv_pos_as_xyz
1 x,y,z
2 -x,1/2+y,-z
3 -x,-y,-z
4 x,1/2-y,z
_cell_length_a                   7.5370(7)
_cell_length_b                   17.2309(16)
_cell_length_c                   12.5131(11)
_cell_angle_alpha                90
_cell_angle_beta                 98.3780(10)
_cell_angle_gamma                90
_cell_volume                     1607.73
loop_
_atom_site_label
_atom_site_type_symbol
_atom_site_fract_x
_atom_site_fract_y
_atom_site_fract_z
Ag1 Ag 0.85330(5) 0.51498(3) 1.08945(3)
N1 N 0.6742(5) 0.5212(2) 0.9405(3)
N2 N 0.0116(5) 0.5077(2) 0.2450(3)
C1 C 0.6069(6) 0.5898(3) 0.9036(4)
H1 H 0.6349 0.6338 0.9456
C2 C 0.4986(7) 0.5975(3) 0.8064(4)
H2 H 0.4534 0.6461 0.7844
C3 C 0.4553(6) 0.5328(3) 0.7399(4)
C4 C 0.5229(7) 0.4625(3) 0.7808(4)
H3 H 0.4946 0.4172 0.7416
C5 C 0.6299(7) 0.4590(3) 0.8776(4)
H4 H 0.6751 0.4109 0.9017
C6 C 0.0535(6) 0.5711(3) 0.3060(4)
H5 H 0.0166 0.6194 0.2778
C7 C 0.1482(6) 0.5677(3) 0.4081(4)
H6 H 0.1741 0.6131 0.4474
C8 C 0.2058(6) 0.4965(3) 0.4533(4)
C9 C 0.1589(7) 0.4316(3) 0.3900(4)
H7 H 0.1917 0.3824 0.4163
C10 C 0.0643(7) 0.4401(3) 0.2889(4)
H8 H 0.0351 0.3955 0.2483
C11 C 0.3517(6) 0.5434(3) 0.6331(4)
H9 H 0.3137 0.5935 0.6137
C12 C 0.3071(6) 0.4875(3) 0.5612(4)
H10 H 0.3441 0.4375 0.5817
Ag1_2 Ag -0.14670(5) 0.51498(3) 0.08945(3)
N2_2 N 1.0116(5) 0.5077(2) 1.2450(3)
N3 N 0.5476(8) 0.7500 0.3851(5)
N4 N 0.4920(8) 0.7500 0.1601(5)
O1 O 0.8759(8) 0.7500 0.4964(4)
O2 O 0.9975(6) 0.7500 0.3450(4)
O3 O 0.8536(5) 0.6849(2) 0.1151(3)
C13 C 0.8694(9) 0.7500 0.3958(6)
C14 C 0.6867(9) 0.7500 0.3295(6)
C15 C 0.6592(9) 0.7500 0.2160(6)
C16 C 0.8045(9) 0.7500 0.1443(5)
C17 C 0.3566(10) 0.7500 0.2183(7)
H11 H 0.2396 0.7500 0.1822
C18 C 0.3827(10) 0.7500 0.3278(8)
H12 H 0.2835 0.7500 0.3642
O3C O 0.8536(5) 0.8151(2) 0.1151(3)
O4 O 0.0511(5) 0.6479(2) 0.9568(3)
H13 H -0.0049 0.6567 1.0098
H14 H 0.0064 0.6764 0.9043
O5 O 0.3383(8) 0.7500 0.9363(5)
H15 H 0.2486 0.7200 0.9355
H15C H 0.2486 0.7800 0.9355
O6 O 0.5778(9) 0.7500 0.6288(5)
H16 H 0.6882 0.7500 0.6217
H17 H 0.5178 0.7500 0.5658
O7 O 0.1902(8) 0.7500 0.6333(5)
H18 H 0.2931 0.7500 0.6131
H19 H 0.1105 0.7500 0.5777
O8 O 0.8762(10) 0.7500 0.7919(5)
H20 H 0.7797 0.7500 0.7472
H21 H 0.9640 0.7500 0.7562
H22? H 0.3916 0.7500 1.0009
loop_
_geom_bond_atom_site_label_1
_geom_bond_atom_site_label_2
_geom_bond_site_symmetry_1
_geom_bond_site_symmetry_2
Ag1 N1 1_555 1_555
N1 C1 1_555 1_555
N2 C6 1_555 1_555
C1 H1 1_555 1_555
C2 C1 1_555 1_555
H2 C2 1_555 1_555
C3 C2 1_555 1_555
C4 C3 1_555 1_555
H3 C4 1_555 1_555
C5 N1 1_555 1_555
H4 C5 1_555 1_555
C6 H5 1_555 1_555
C7 C6 1_555 1_555
H6 C7 1_555 1_555
C8 C7 1_555 1_555
C9 C8 1_555 1_555
H7 C9 1_555 1_555
C10 N2 1_555 1_555
H8 C10 1_555 1_555
C11 C3 1_555 1_555
H9 C11 1_555 1_555
C12 C8 1_555 1_555
H10 C12 1_555 1_555
N3 C14 1_555 1_555
N4 C15 1_555 1_555
O1 C13 1_555 1_555
O2 C13 1_555 1_555
O3 C16 1_555 1_555
C13 C14 1_555 1_555
C14 C15 1_555 1_555
C15 C16 1_555 1_555
C16 O3C 1_555 1_555
C17 N4 1_555 1_555
H11 C17 1_555 1_555
C18 N3 1_555 1_555
H12 C18 1_555 1_555
O4 H13 1_555 1_555
H14 O4 1_555 1_555
O5 H15 1_555 1_555
O6 H16 1_555 1_555
H17 O6 1_555 1_555
O7 H18 1_555 1_555
H19 O7 1_555 1_555
O8 H20 1_555 1_555
H21 O8 1_555 1_555
Ag1_2 N2 1_555 1_555
N2_2 Ag1 1_555 1_555
H15C O5 1_555 1_555
C4 C5 1_555 1_555
C9 C10 1_555 1_555
C11 C12 1_555 1_555
C17 C18 1_555 1_555

#END
