
#######################################################################
#
#                 Cambridge Crystallographic Data Centre
#                                CCDC 
#
#######################################################################
#
# If this CIF has been generated from an entry in the Cambridge 
# Structural Database, then it will include bibliographic, chemical, 
# crystal, experimental, refinement or atomic coordinate data resulting 
# from the CCDC's data processing and validation procedures.
#
#######################################################################

data_GIKKOB
_symmetry_cell_setting           monoclinic
_symmetry_space_group_name_H-M   'C 2/c'
_symmetry_Int_Tables_number      15
_space_group_name_Hall           '-C 2yn'
loop_
_symmetry_equiv_pos_site_id
_symmetry_equiv_pos_as_xyz
1 x,y,z
2 1/2+x,1/2+y,z
3 -x,y,1/2-z
4 1/2-x,1/2+y,1/2-z
5 -x,-y,-z
6 1/2-x,1/2-y,-z
7 x,-y,1/2+z
8 1/2+x,1/2-y,1/2+z
_cell_length_a                   22.541(6)
_cell_length_b                   5.7428(15)
_cell_length_c                   15.815(4)
_cell_angle_alpha                90
_cell_angle_beta                 119.112(4)
_cell_angle_gamma                90
_cell_volume                     1788.6
loop_
_atom_site_label
_atom_site_type_symbol
_atom_site_fract_x
_atom_site_fract_y
_atom_site_fract_z
O1 O 0.4285(2) -0.4078(8) 0.2421(3)
O2 O 0.3392(2) -0.1923(8) 0.0513(3)
C1 C 0.4064(4) -0.0425(14) 0.2857(6)
H1 H 0.3990 0.0385 0.2268
C2 C 0.4533(3) -0.2496(12) 0.3035(5)
C3 C 0.3399(4) -0.1013(15) 0.2776(6)
H2 H 0.3434 -0.2403 0.3146
H3 H 0.3060 -0.1273 0.2106
O3 O 0.4876(2) -0.2368(9) 0.1301(3)
C4 C 0.3890(3) 0.2172(12) 0.3853(5)
C5 C 0.3214(4) 0.1082(15) 0.3184(5)
H4 H 0.2927 0.2152 0.2673
H5 H 0.2981 0.0610 0.3535
O4 O 0.4005(2) 0.3850(9) 0.4410(3)
N1 N 0.4349(3) 0.1207(13) 0.3667(5)
H6 H 0.4776 0.1514 0.3994
O5 O 0.2886(2) -0.6411(9) -0.0628(3)
O6 O 0.3048(2) -0.6419(9) 0.1142(3)
O7 O 0.5713(2) -0.7187(8) 0.4058(3)
U1 U 0.384470(12) -0.45521(4) 0.074540(17)
C6 C 0.2452(3) -0.7489(11) -0.0505(4)
O1B O 0.5715(2) -0.4078(8) 0.2579(3)
O2B O 0.6608(2) -0.1923(8) 0.4487(3)
C1B C 0.5936(4) -0.0425(14) 0.2143(6)
H1B H 0.6010 0.0385 0.2732
C2B C 0.5467(3) -0.2496(12) 0.1965(5)
C3B C 0.6601(4) -0.1013(15) 0.2224(6)
H2B H 0.6566 -0.2403 0.1854
H3B H 0.6940 -0.1273 0.2894
O3B O 0.5124(2) -0.2368(9) 0.3699(3)
C4B C 0.6110(3) 0.2172(12) 0.1147(5)
C5B C 0.6786(4) 0.1082(15) 0.1816(5)
H4B H 0.7073 0.2152 0.2327
H5B H 0.7019 0.0610 0.1465
O4F O 0.4005(2) -0.3850(9) -0.0590(3)
O4D O 0.5995(2) -0.3850(9) 0.5590(3)
O4B O 0.5995(2) 0.3850(9) 0.0590(3)
N1B N 0.5651(3) 0.1207(13) 0.1333(5)
H6B H 0.5224 0.1514 0.1006
O5B O 0.7114(2) -0.6411(9) 0.5628(3)
O5E O 0.2114(2) -0.8589(9) 0.0628(3)
O6B O 0.6952(2) -0.6419(9) 0.3858(3)
O6E O 0.1952(2) -0.8581(9) -0.1142(3)
O7B O 0.4287(2) -0.7187(8) 0.0942(3)
U1B U 0.615530(12) -0.45521(4) 0.425460(17)
U1F U 0.384470(12) 0.45521(4) 0.574540(17)
U1D U 0.615530(12) 0.45521(4) -0.074540(17)
U1E U 0.115530(12) -1.04479(4) -0.074540(17)
C6E C 0.2548(3) -0.7511(11) 0.0505(4)
loop_
_geom_bond_atom_site_label_1
_geom_bond_atom_site_label_2
_geom_bond_site_symmetry_1
_geom_bond_site_symmetry_2
O1 C2 1_555 1_555
O2 U1 1_555 1_555
C1 H1 1_555 1_555
C2 C1 1_555 1_555
C3 C1 1_555 1_555
H2 C3 1_555 1_555
H3 C3 1_555 1_555
O3 U1 1_555 1_555
C4 C5 1_555 1_555
C5 C3 1_555 1_555
H4 C5 1_555 1_555
H5 C5 1_555 1_555
O4 C4 1_555 1_555
N1 C1 1_555 1_555
H6 N1 1_555 1_555
O5 U1 1_555 1_555
O6 U1 1_555 1_555
O7 U1B 1_555 1_555
U1 O1 1_555 1_555
C6 O5 1_555 1_555
O1B C2B 1_555 1_555
O2B U1B 1_555 1_555
C1B H1B 1_555 1_555
C2B O3 1_555 1_555
C3B C1B 1_555 1_555
H2B C3B 1_555 1_555
H3B C3B 1_555 1_555
O3B C2 1_555 1_555
C4B C5B 1_555 1_555
C5B C3B 1_555 1_555
H4B C5B 1_555 1_555
H5B C5B 1_555 1_555
O4F U1 1_555 1_555
O4D U1B 1_555 1_555
O4B C4B 1_555 1_555
N1B C1B 1_555 1_555
H6B N1B 1_555 1_555
O5B U1B 1_555 1_555
O5E U1E 1_555 1_555
O6B U1B 1_555 1_555
O6E C6 1_555 1_555
O7B U1 1_555 1_555
U1B O1B 1_555 1_555
U1F O4 1_555 1_555
U1D O4B 1_555 1_555
U1E O6E 1_555 1_555
C6E O6 1_555 1_555
C4 N1 1_555 1_555
C6 C6E 1_555 1_555
C1B C2B 1_555 1_555
O3B U1B 1_555 1_555
C4B N1B 1_555 1_555
O5E C6E 1_555 1_555

#END
