
#######################################################################
#
#                 Cambridge Crystallographic Data Centre
#                                CCDC 
#
#######################################################################
#
# If this CIF has been generated from an entry in the Cambridge 
# Structural Database, then it will include bibliographic, chemical, 
# crystal, experimental, refinement or atomic coordinate data resulting 
# from the CCDC's data processing and validation procedures.
#
#######################################################################

data_GIKKUH
_symmetry_cell_setting           orthorhombic
_symmetry_space_group_name_H-M   'P n n a'
_symmetry_Int_Tables_number      52
_space_group_name_Hall           '-P 2a 2bc'
loop_
_symmetry_equiv_pos_site_id
_symmetry_equiv_pos_as_xyz
1 x,y,z
2 1/2-x,-y,z
3 1/2-x,1/2+y,1/2-z
4 x,1/2-y,1/2-z
5 -x,-y,-z
6 1/2+x,y,-z
7 1/2+x,1/2-y,1/2+z
8 -x,1/2+y,1/2+z
_cell_length_a                   18.7085(11)
_cell_length_b                   19.5216(11)
_cell_length_c                   10.3967(6)
_cell_angle_alpha                90
_cell_angle_beta                 90
_cell_angle_gamma                90
_cell_volume                     3797.08
loop_
_atom_site_label
_atom_site_type_symbol
_atom_site_fract_x
_atom_site_fract_y
_atom_site_fract_z
Cu1 Cu 0.09414(3) 0.42623(3) -0.06092(5)
V1 V 0.01886(5) 0.2500 0.2500
V2 V -0.10374(4) 0.36016(4) 0.30771(7)
V3 V -0.22535(6) 0.2500 0.2500
P1 P -0.04283(6) 0.34186(5) 0.02021(10)
P2 P -0.16288(6) 0.26469(5) 0.53617(9)
F1 F -0.10262(17) 0.2500 0.2500
O1 O -0.00119(15) 0.39298(15) -0.0609(3)
O2 O 0.00669(15) 0.28766(15) 0.0778(3)
O3 O -0.08834(15) 0.37735(14) 0.1227(3)
O4 O 0.1050(2) 0.2500 0.2500
O5 O -0.00641(14) 0.33560(14) 0.3153(2)
O6 O -0.10366(18) 0.43897(15) 0.3506(3)
O7 O -0.19909(15) 0.34114(15) 0.2740(3)
O8 O -0.11813(16) 0.32301(15) 0.4808(3)
O9 O -0.21385(15) 0.26531(16) 0.0635(3)
O10 O -0.3108(2) 0.2500 0.2500
O11 O -0.20362(17) 0.28827(17) 0.6564(3)
O12 O 0.1590(2) 0.33668(18) 0.0205(4)
N1 N 0.09773(19) 0.46823(17) 0.1165(3)
N2 N 0.18457(18) 0.47589(17) -0.0758(3)
N3 N 0.11703(18) 0.41398(17) -0.2492(3)
C1 C 0.0455(2) 0.4732(2) 0.2039(4)
H1 H 0.0007 0.4525 0.1859
C2 C 0.0542(2) 0.5075(2) 0.3198(4)
H2 H 0.0168 0.5084 0.3817
C3 C 0.1183(2) 0.5405(2) 0.3436(4)
H3 H 0.1249 0.5658 0.4208
C4 C 0.1729(2) 0.5364(2) 0.2537(4)
H4 H 0.2170 0.5593 0.2677
C5 C 0.1618(2) 0.4983(2) 0.1434(4)
C6 C 0.2133(2) 0.4933(2) 0.0374(4)
C7 C 0.2172(2) 0.4811(2) -0.1895(4)
C8 C 0.1799(2) 0.4412(2) -0.2907(4)
C9 C 0.2068(2) 0.4261(2) -0.4114(4)
H5 H 0.2515 0.4442 -0.4384
C10 C 0.1670(2) 0.3840(2) -0.4926(4)
H6 H 0.1847 0.3728 -0.5757
C11 C 0.1020(2) 0.3586(2) -0.4520(4)
H7 H 0.0736 0.3309 -0.5070
C12 C 0.0792(2) 0.3747(2) -0.3289(4)
H8 H 0.0348 0.3570 -0.3001
C13 C -0.1025(2) 0.3012(2) -0.0911(4)
H9 H -0.0728 0.2810 -0.1603
H10 H -0.1318 0.3376 -0.1311
Cu1C Cu 0.09414(3) 0.07377(3) 0.56092(5)
Cu1A Cu 0.40586(3) 0.57377(3) -0.06092(5)
V2C V -0.10374(4) 0.13984(4) 0.19229(7)
P1C P -0.04283(6) 0.15814(5) 0.47979(10)
P2C P -0.16288(6) 0.23531(5) -0.03617(9)
O1C O -0.00119(15) 0.10702(15) 0.5609(3)
O2C O 0.00669(15) 0.21234(15) 0.4222(3)
O3C O -0.08834(15) 0.12265(14) 0.3773(3)
O5C O -0.00641(14) 0.16440(14) 0.1847(2)
O6C O -0.10366(18) 0.06103(15) 0.1494(3)
O7C O -0.19909(15) 0.15886(15) 0.2260(3)
O8C O -0.11813(16) 0.17699(15) 0.0192(3)
O9C O -0.21385(15) 0.23469(16) 0.4365(3)
O11C O -0.20362(17) 0.21173(17) -0.1564(3)
O12C O 0.1590(2) 0.16332(18) 0.4795(4)
N1C N 0.09773(19) 0.03177(17) 0.3835(3)
N1A N 0.40227(19) 0.53177(17) 0.1165(3)
N2C N 0.18457(18) 0.02411(17) 0.5758(3)
N2A N 0.31543(18) 0.52411(17) -0.0758(3)
N3C N 0.11703(18) 0.08602(17) 0.7492(3)
N3A N 0.38297(18) 0.58602(17) -0.2492(3)
C1A C 0.4545(2) 0.5268(2) 0.2039(4)
H1A H 0.4993 0.5475 0.1859
C2A C 0.4458(2) 0.4925(2) 0.3198(4)
H2A H 0.4832 0.4916 0.3817
C3A C 0.3817(2) 0.4595(2) 0.3436(4)
H3A H 0.3751 0.4342 0.4208
C4A C 0.3271(2) 0.4636(2) 0.2537(4)
H4A H 0.2830 0.4407 0.2677
C5A C 0.3382(2) 0.5017(2) 0.1434(4)
C6A C 0.2867(2) 0.5067(2) 0.0374(4)
C7A C 0.2828(2) 0.5189(2) -0.1895(4)
C8A C 0.3201(2) 0.5588(2) -0.2907(4)
C9A C 0.2932(2) 0.5739(2) -0.4114(4)
H5A H 0.2485 0.5558 -0.4384
C10A C 0.3330(2) 0.6160(2) -0.4926(4)
H6A H 0.3153 0.6272 -0.5757
C11A C 0.3980(2) 0.6414(2) -0.4520(4)
H7A H 0.4264 0.6691 -0.5070
C12A C 0.4208(2) 0.6253(2) -0.3289(4)
H8A H 0.4652 0.6430 -0.3001
C13C C -0.1025(2) 0.1988(2) 0.5911(4)
H9C H -0.0728 0.2190 0.6603
H10C H -0.1318 0.1624 0.6311
loop_
_geom_bond_atom_site_label_1
_geom_bond_atom_site_label_2
_geom_bond_site_symmetry_1
_geom_bond_site_symmetry_2
Cu1 O1 1_555 1_555
V1 F1 1_555 1_555
V2 F1 1_555 1_555
V3 F1 1_555 1_555
P1 O1 1_555 1_555
P2 O8 1_555 1_555
F1 V2C 1_555 1_555
O2 V1 1_555 1_555
O3 V2 1_555 1_555
O4 V1 1_555 1_555
O5 V1 1_555 1_555
O6 V2 1_555 1_555
O7 V2 1_555 1_555
O8 V2 1_555 1_555
O9 V3 1_555 1_555
O10 V3 1_555 1_555
O11 P2 1_555 1_555
O12 Cu1 1_555 1_555
N1 Cu1 1_555 1_555
N2 Cu1 1_555 1_555
N3 Cu1 1_555 1_555
C1 N1 1_555 1_555
H1 C1 1_555 1_555
C2 C1 1_555 1_555
H2 C2 1_555 1_555
C3 C2 1_555 1_555
H3 C3 1_555 1_555
C4 C3 1_555 1_555
H4 C4 1_555 1_555
C5 N1 1_555 1_555
C6 N2 1_555 1_555
C7 N2 1_555 1_555
C8 N3 1_555 1_555
C9 C8 1_555 1_555
H5 C9 1_555 1_555
C10 C9 1_555 1_555
H6 C10 1_555 1_555
C11 C10 1_555 1_555
H7 C11 1_555 1_555
C12 N3 1_555 1_555
H8 C12 1_555 1_555
C13 P1 1_555 1_555
H9 C13 1_555 1_555
H10 C13 1_555 1_555
Cu1C O1C 1_555 1_555
Cu1A N1A 1_555 1_555
V2C O3C 1_555 1_555
P1C O1C 1_555 1_555
P2C O9 1_555 1_555
O2C V1 1_555 1_555
O3C P1C 1_555 1_555
O5C V1 1_555 1_555
O6C V2C 1_555 1_555
O7C V3 1_555 1_555
O8C V2C 1_555 1_555
O9C V3 1_555 1_555
O11C P2C 1_555 1_555
O12C Cu1C 1_555 1_555
N1C Cu1C 1_555 1_555
N1A C1A 1_555 1_555
N2C Cu1C 1_555 1_555
N2A Cu1A 1_555 1_555
N3C Cu1C 1_555 1_555
N3A Cu1A 1_555 1_555
C1A H1A 1_555 1_555
C2A C1A 1_555 1_555
H2A C2A 1_555 1_555
C3A C2A 1_555 1_555
H3A C3A 1_555 1_555
C4A C3A 1_555 1_555
H4A C4A 1_555 1_555
C5A N1A 1_555 1_555
C6A C6 1_555 1_555
C7A C7 1_555 1_555
C8A N3A 1_555 1_555
C9A C8A 1_555 1_555
H5A C9A 1_555 1_555
C10A C9A 1_555 1_555
H6A C10A 1_555 1_555
C11A C10A 1_555 1_555
H7A C11A 1_555 1_555
C12A N3A 1_555 1_555
H8A C12A 1_555 1_555
C13C P2 1_555 1_555
H9C C13C 1_555 1_555
H10C C13C 1_555 1_555
V2 O5 1_555 1_555
V3 O7 1_555 1_555
P1 O2 1_555 1_555
P1 O3 1_555 1_555
P2 O9C 1_555 1_555
C4 C5 1_555 1_555
C5 C6 1_555 1_555
C7 C8 1_555 1_555
C11 C12 1_555 1_555
C13 P2C 1_555 1_555
V2C O5C 1_555 1_555
V2C O7C 1_555 1_555
P1C O2C 1_555 1_555
P1C C13C 1_555 1_555
P2C O8C 1_555 1_555
N2A C6A 1_555 1_555
N2A C7A 1_555 1_555
C4A C5A 1_555 1_555
C5A C6A 1_555 1_555
C7A C8A 1_555 1_555
C11A C12A 1_555 1_555

#END
