
#######################################################################
#
#                 Cambridge Crystallographic Data Centre
#                                CCDC 
#
#######################################################################
#
# If this CIF has been generated from an entry in the Cambridge 
# Structural Database, then it will include bibliographic, chemical, 
# crystal, experimental, refinement or atomic coordinate data resulting 
# from the CCDC's data processing and validation procedures.
#
#######################################################################

data_GIKLIW
_symmetry_cell_setting           monoclinic
_symmetry_space_group_name_H-M   'P 21/c'
_symmetry_Int_Tables_number      14
_space_group_name_Hall           '-P 2ybc'
loop_
_symmetry_equiv_pos_site_id
_symmetry_equiv_pos_as_xyz
1 x,y,z
2 -x,1/2+y,1/2-z
3 -x,-y,-z
4 x,1/2-y,1/2+z
_cell_length_a                   9.1100(18)
_cell_length_b                   7.4400(14)
_cell_length_c                   18.100(4)
_cell_angle_alpha                90
_cell_angle_beta                 98.260(2)
_cell_angle_gamma                90
_cell_volume                     1214.06
loop_
_atom_site_label
_atom_site_type_symbol
_atom_site_fract_x
_atom_site_fract_y
_atom_site_fract_z
In1 In 0.894999(16) 0.29604(2) 0.125523(8)
Se1 Se 0.92799(3) -0.06661(3) 0.202177(14)
N1 N 0.6669(2) 0.4126(3) 0.14155(11)
N2 N 0.7280(2) 0.2038(2) 0.02734(11)
C1 C 0.6422(3) 0.5080(3) 0.20154(13)
H1 H 0.7230 0.5487 0.2346
C2 C 0.5000(3) 0.5479(4) 0.21566(15)
H2 H 0.4856 0.6155 0.2572
C3 C 0.3800(3) 0.4854(4) 0.16685(16)
H3 H 0.2837 0.5083 0.1757
C4 C 0.4053(3) 0.3882(4) 0.10461(15)
H4 H 0.3262 0.3452 0.0711
C5 C 0.5504(3) 0.3558(3) 0.09292(13)
C6 C 0.5859(3) 0.2554(3) 0.02645(13)
C7 C 0.4774(3) 0.2150(3) -0.03393(14)
H5 H 0.3798 0.2521 -0.0342
C8 C 0.5176(3) 0.1186(3) -0.09362(14)
H6 H 0.4471 0.0897 -0.1343
C9 C 0.6632(3) 0.0661(4) -0.09189(14)
H7 H 0.6921 0.0013 -0.1313
C10 C 0.7657(3) 0.1111(3) -0.03072(14)
H8 H 0.8639 0.0759 -0.0298
C11 C 1.0553(3) 0.4230(3) -0.00307(13)
O1 O 1.0588(2) 0.2982(2) 0.04420(10)
O2 O 0.8664(2) 0.5665(2) 0.05386(10)
O3 O 0.7868(2) 0.0816(3) 0.19073(11)
O4 O 1.0379(2) 0.0586(3) 0.15463(12)
O5 O 0.9993(2) 0.4701(3) 0.20707(10)
In1B In 1.105001(16) 0.70396(2) -0.125523(8)
In1A In 1.105001(16) -0.20396(2) 0.374477(8)
In1A_2 In 1.105001(16) 0.79604(2) 0.374477(8)
Se1A Se 1.07201(3) 0.43339(3) 0.297823(14)
N1B N 1.3331(2) 0.5874(3) -0.14155(11)
N2B N 1.2720(2) 0.7962(2) -0.02734(11)
C1B C 1.3578(3) 0.4920(3) -0.20154(13)
H1B H 1.2770 0.4513 -0.2346
C2B C 1.5000(3) 0.4521(4) -0.21566(15)
H2B H 1.5144 0.3845 -0.2572
C3B C 1.6200(3) 0.5146(4) -0.16685(16)
H3B H 1.7163 0.4917 -0.1757
C4B C 1.5947(3) 0.6118(4) -0.10461(15)
H4B H 1.6738 0.6548 -0.0711
C5B C 1.4496(3) 0.6442(3) -0.09292(13)
C6B C 1.4141(3) 0.7446(3) -0.02645(13)
C7B C 1.5226(3) 0.7850(3) 0.03393(14)
H5B H 1.6202 0.7479 0.0342
C8B C 1.4824(3) 0.8814(3) 0.09362(14)
H6B H 1.5529 0.9103 0.1343
C9B C 1.3368(3) 0.9339(4) 0.09189(14)
H7B H 1.3079 0.9987 0.1313
C10B C 1.2343(3) 0.8889(3) 0.03072(14)
H8B H 1.1361 0.9241 0.0298
C11B C 0.9447(3) 0.5770(3) 0.00307(13)
O1B O 0.9412(2) 0.7018(2) -0.04420(10)
O2B O 1.1336(2) 0.4335(2) -0.05386(10)
O3B O 1.2132(2) 0.9184(3) -0.19073(11)
O3A O 1.2132(2) 0.5816(3) 0.30927(11)
O4B O 0.9621(2) 0.9414(3) -0.15463(12)
O4A O 0.9621(2) 0.5586(3) 0.34537(12)
O5B O 1.0007(2) 0.5299(3) -0.20707(10)
O5A O 1.0007(2) -0.0299(3) 0.29293(10)
loop_
_geom_bond_atom_site_label_1
_geom_bond_atom_site_label_2
_geom_bond_site_symmetry_1
_geom_bond_site_symmetry_2
In1 N1 1_555 1_555
Se1 O3 1_555 1_555
N1 C1 1_555 1_555
N2 In1 1_555 1_555
C1 H1 1_555 1_555
C2 C1 1_555 1_555
H2 C2 1_555 1_555
C3 C2 1_555 1_555
H3 C3 1_555 1_555
C4 C3 1_555 1_555
H4 C4 1_555 1_555
C5 N1 1_555 1_555
C6 N2 1_555 1_555
C7 C6 1_555 1_555
H5 C7 1_555 1_555
C8 C7 1_555 1_555
H6 C8 1_555 1_555
C9 C8 1_555 1_555
H7 C9 1_555 1_555
C10 N2 1_555 1_555
H8 C10 1_555 1_555
C11 O1 1_555 1_555
O1 In1 1_555 1_555
O2 In1 1_555 1_555
O3 In1 1_555 1_555
O4 In1 1_555 1_555
O5 In1 1_555 1_555
In1B N1B 1_555 1_555
In1A O5A 1_555 1_555
In1A_2 O3A 1_555 1_555
Se1A O5 1_555 1_555
N1B C1B 1_555 1_555
N2B In1B 1_555 1_555
C1B H1B 1_555 1_555
C2B C1B 1_555 1_555
H2B C2B 1_555 1_555
C3B C2B 1_555 1_555
H3B C3B 1_555 1_555
C4B C3B 1_555 1_555
H4B C4B 1_555 1_555
C5B N1B 1_555 1_555
C6B N2B 1_555 1_555
C7B C6B 1_555 1_555
H5B C7B 1_555 1_555
C8B C7B 1_555 1_555
H6B C8B 1_555 1_555
C9B C8B 1_555 1_555
H7B C9B 1_555 1_555
C10B N2B 1_555 1_555
H8B C10B 1_555 1_555
C11B C11 1_555 1_555
O1B In1B 1_555 1_555
O2B C11 1_555 1_555
O3B In1B 1_555 1_555
O3A Se1A 1_555 1_555
O4B In1B 1_555 1_555
O4A In1A_2 1_555 1_555
O5B In1B 1_555 1_555
O5A Se1 1_555 1_555
Se1 O4 1_555 1_555
C4 C5 1_555 1_555
C5 C6 1_555 1_555
C9 C10 1_555 1_555
O2 C11B 1_555 1_555
In1B O2B 1_555 1_555
Se1A O4A 1_555 1_555
C4B C5B 1_555 1_555
C5B C6B 1_555 1_555
C9B C10B 1_555 1_555
C11B O1B 1_555 1_555

#END
