
#######################################################################
#
#                 Cambridge Crystallographic Data Centre
#                                CCDC 
#
#######################################################################
#
# If this CIF has been generated from an entry in the Cambridge 
# Structural Database, then it will include bibliographic, chemical, 
# crystal, experimental, refinement or atomic coordinate data resulting 
# from the CCDC's data processing and validation procedures.
#
#######################################################################

data_GIKLOC
_symmetry_cell_setting           monoclinic
_symmetry_space_group_name_H-M   'C 2/c'
_symmetry_Int_Tables_number      15
_space_group_name_Hall           '-C 2yn'
loop_
_symmetry_equiv_pos_site_id
_symmetry_equiv_pos_as_xyz
1 x,y,z
2 1/2+x,1/2+y,z
3 -x,y,1/2-z
4 1/2-x,1/2+y,1/2-z
5 -x,-y,-z
6 1/2-x,1/2-y,-z
7 x,-y,1/2+z
8 1/2+x,1/2-y,1/2+z
_cell_length_a                   21.1553(4)
_cell_length_b                   9.8495(2)
_cell_length_c                   14.9434(4)
_cell_angle_alpha                90
_cell_angle_beta                 118.6590(10)
_cell_angle_gamma                90
_cell_volume                     2732.28
loop_
_atom_site_label
_atom_site_type_symbol
_atom_site_fract_x
_atom_site_fract_y
_atom_site_fract_z
In1 In -0.06779(2) 0.75022(4) 0.01575(3)
Se1 Se 0.0000 0.92444(8) 0.2500
O1 O 0.0287(2) 0.8313(4) 0.0177(3)
O2 O -0.0559(2) 0.8219(5) 0.1580(3)
O3 O -0.0645(2) 0.6014(4) -0.0964(3)
O4 O 0.0872(2) 1.0211(4) 0.0200(3)
O5 O 0.0478(2) 1.0126(5) 0.2130(3)
O6 O -0.0124(2) 0.4105(4) -0.1080(3)
C1 C 0.0330(3) 0.9579(6) 0.0100(4)
C2 C -0.2667(3) 0.5413(6) -0.0191(5)
H1 H -0.3147 0.5412 -0.0694
C3 C -0.1263(3) 0.5479(7) 0.1281(5)
H2 H -0.0784 0.5509 0.1788
C4 C -0.2159(3) 0.6140(5) -0.0322(4)
C5 C -0.2334(3) 0.6921(6) -0.1259(4)
C6 C -0.2450(4) 0.4689(7) 0.0701(6)
H3 H -0.2783 0.4176 0.0794
C7 C -0.3006(3) 0.6899(7) -0.2107(5)
H4 H -0.3378 0.6407 -0.2097
C8 C -0.3126(4) 0.7606(7) -0.2967(5)
H5 H -0.3579 0.7611 -0.3541
C9 C -0.0220(3) 0.5029(6) -0.0587(4)
C10 C -0.1901(3) 0.8308(7) -0.2090(5)
H6 H -0.1522 0.8791 -0.2086
C11 C -0.2557(4) 0.8313(7) -0.2962(5)
H7 H -0.2618 0.8782 -0.3538
C12 C -0.1748(4) 0.4724(7) 0.1444(6)
H8 H -0.1598 0.4249 0.2050
N1 N -0.1461(3) 0.6171(5) 0.0414(4)
N2 N -0.1787(2) 0.7642(5) -0.1250(4)
In1D In 0.06779(2) 1.24978(4) -0.01575(3)
In1D_2 In 0.06779(2) 0.24978(4) -0.01575(3)
In1B In 0.06779(2) 0.75022(4) 0.48425(3)
O1D O -0.0287(2) 1.1687(4) -0.0177(3)
O2B O 0.0559(2) 0.8219(5) 0.3420(3)
O2D O 0.0559(2) 1.1781(5) -0.1580(3)
O3D O 0.0645(2) 0.3986(4) 0.0964(3)
O3D_2 O 0.0645(2) 1.3986(4) 0.0964(3)
O4D O -0.0872(2) 0.9789(4) -0.0200(3)
O5B O -0.0478(2) 1.0126(5) 0.2870(3)
O6D O 0.0124(2) 0.5895(4) 0.1080(3)
O6_2 O -0.0124(2) 1.4105(4) -0.1080(3)
C1D C -0.0330(3) 1.0421(6) -0.0100(4)
C2D C 0.2667(3) 1.4587(6) 0.0191(5)
H1D H 0.3147 1.4588 0.0694
C3D C 0.1263(3) 1.4521(7) -0.1281(5)
H2D H 0.0784 1.4491 -0.1788
C4D C 0.2159(3) 1.3860(5) 0.0322(4)
C5D C 0.2334(3) 1.3079(6) 0.1259(4)
C6D C 0.2450(4) 1.5311(7) -0.0701(6)
H3D H 0.2783 1.5824 -0.0794
C7D C 0.3006(3) 1.3101(7) 0.2107(5)
H4D H 0.3378 1.3593 0.2097
C8D C 0.3126(4) 1.2394(7) 0.2967(5)
H5D H 0.3579 1.2389 0.3541
C9D C 0.0220(3) 0.4971(6) 0.0587(4)
C10D C 0.1901(3) 1.1692(7) 0.2090(5)
H6D H 0.1522 1.1209 0.2086
C11D C 0.2557(4) 1.1687(7) 0.2962(5)
H7D H 0.2618 1.1218 0.3538
C12D C 0.1748(4) 1.5276(7) -0.1444(6)
H8D H 0.1598 1.5751 -0.2050
N1D N 0.1461(3) 1.3829(5) -0.0414(4)
N2D N 0.1787(2) 1.2358(5) 0.1250(4)
O7 O 0.0000 0.3027(16) 0.2500
loop_
_geom_bond_atom_site_label_1
_geom_bond_atom_site_label_2
_geom_bond_site_symmetry_1
_geom_bond_site_symmetry_2
In1 O1 1_555 1_555
Se1 O2 1_555 1_555
O1 C1 1_555 1_555
O2 In1 1_555 1_555
O3 In1 1_555 1_555
O4 C1 1_555 1_555
O5 Se1 1_555 1_555
O6 C9 1_555 1_555
C1 C1D 1_555 1_555
C2 H1 1_555 1_555
C3 H2 1_555 1_555
C4 C2 1_555 1_555
C5 C4 1_555 1_555
C6 C2 1_555 1_555
H3 C6 1_555 1_555
C7 C5 1_555 1_555
H4 C7 1_555 1_555
C8 C7 1_555 1_555
H5 C8 1_555 1_555
C9 O3 1_555 1_555
C10 H6 1_555 1_555
C11 C8 1_555 1_555
H7 C11 1_555 1_555
C12 C3 1_555 1_555
H8 C12 1_555 1_555
N1 In1 1_555 1_555
N2 In1 1_555 1_555
In1D O4 1_555 1_555
In1D_2 O6 1_555 1_555
In1B O2B 1_555 1_555
O1D In1D 1_555 1_555
O2B Se1 1_555 1_555
O2D In1D 1_555 1_555
O3D In1D_2 1_555 1_555
O3D_2 In1D 1_555 1_555
O4D In1 1_555 1_555
O5B Se1 1_555 1_555
O6D In1 1_555 1_555
O6_2 In1D 1_555 1_555
C1D O1D 1_555 1_555
C2D H1D 1_555 1_555
C3D H2D 1_555 1_555
C4D C2D 1_555 1_555
C5D C4D 1_555 1_555
C6D C2D 1_555 1_555
H3D C6D 1_555 1_555
C7D C5D 1_555 1_555
H4D C7D 1_555 1_555
C8D C7D 1_555 1_555
H5D C8D 1_555 1_555
C9D C9 1_555 1_555
C10D H6D 1_555 1_555
C11D C8D 1_555 1_555
H7D C11D 1_555 1_555
C12D C3D 1_555 1_555
H8D C12D 1_555 1_555
N1D In1D 1_555 1_555
N2D In1D 1_555 1_555
C3 N1 1_555 1_555
C4 N1 1_555 1_555
C5 N2 1_555 1_555
C6 C12 1_555 1_555
C10 C11 1_555 1_555
C10 N2 1_555 1_555
O3D C9D 1_555 1_555
O4D C1D 1_555 1_555
O6D C9D 1_555 1_555
C3D N1D 1_555 1_555
C4D N1D 1_555 1_555
C5D N2D 1_555 1_555
C6D C12D 1_555 1_555
C10D C11D 1_555 1_555
C10D N2D 1_555 1_555

#END
