
#######################################################################
#
#                 Cambridge Crystallographic Data Centre
#                                CCDC 
#
#######################################################################
#
# If this CIF has been generated from an entry in the Cambridge 
# Structural Database, then it will include bibliographic, chemical, 
# crystal, experimental, refinement or atomic coordinate data resulting 
# from the CCDC's data processing and validation procedures.
#
#######################################################################

data_GIKLES
_symmetry_cell_setting           monoclinic
_symmetry_space_group_name_H-M   'C 2/c'
_symmetry_Int_Tables_number      15
_space_group_name_Hall           '-C 2yn'
loop_
_symmetry_equiv_pos_site_id
_symmetry_equiv_pos_as_xyz
1 x,y,z
2 1/2+x,1/2+y,z
3 -x,y,1/2-z
4 1/2-x,1/2+y,1/2-z
5 -x,-y,-z
6 1/2-x,1/2-y,-z
7 x,-y,1/2+z
8 1/2+x,1/2-y,1/2+z
_cell_length_a                   14.1395(7)
_cell_length_b                   12.3301(6)
_cell_length_c                   17.5892(8)
_cell_angle_alpha                90
_cell_angle_beta                 98.4780(10)
_cell_angle_gamma                90
_cell_volume                     3033.02
loop_
_atom_site_label
_atom_site_type_symbol
_atom_site_fract_x
_atom_site_fract_y
_atom_site_fract_z
Cu1 Cu 0.049420(13) -0.662670(15) 0.436400(10)
P1 P -0.05248(3) -0.42018(3) 0.39550(2)
O1 O -0.08040(8) -0.34121(9) 0.45489(6)
O2 O 0.03247(8) -0.49202(9) 0.41869(6)
O3 O 0.14073(8) -0.49597(10) 0.13473(7)
H1 H 0.1906 -0.4583 0.1435
N1 N 0.18459(9) -0.34474(10) -0.09349(7)
N2 N 0.02226(9) -0.30864(10) -0.17492(7)
N3 N -0.08110(9) -0.26479(11) -0.07254(7)
C1 C 0.26469(11) -0.37010(13) -0.04678(9)
C2 C 0.34965(11) -0.39483(13) -0.07411(9)
C3 C 0.34976(11) -0.39691(13) -0.15281(9)
C4 C 0.26644(11) -0.37169(13) -0.20230(9)
C5 C 0.18620(11) -0.34313(12) -0.17062(8)
C6 C 0.09380(10) -0.31427(12) -0.21646(8)
C7 C -0.06982(10) -0.29496(12) -0.20385(8)
C8 C -0.12661(11) -0.25346(12) -0.14572(8)
C9 C 0.20969(11) -0.19304(13) -0.33684(9)
C10 C 0.24724(12) -0.14192(13) -0.39667(9)
C11 C 0.11669(12) -0.21427(13) -0.48402(9)
C12 C 0.19943(12) -0.15152(13) -0.47096(9)
C13 C 0.03035(12) -0.34001(12) 0.18567(9)
C14 C 0.0000 -0.40941(18) 0.2500
H2 H -0.2590(15) -0.3683(17) -0.5066(12)
H3 H -0.4038(17) -0.4096(19) -0.4606(13)
H4 H -0.4073(16) -0.4184(18) -0.3277(13)
H5 H -0.2630(15) -0.3731(18) -0.2451(12)
H6 H 0.2361(16) -0.1842(17) -0.2876(13)
H7 H 0.3045(16) -0.1008(18) -0.3853(12)
H8 H 0.0820(15) -0.2225(17) -0.5331(12)
H9 H 0.2199(17) -0.1161(19) -0.5127(13)
H10 H -0.0890(16) -0.3000(18) 0.2959(13)
H11 H -0.0520(16) -0.4566(18) 0.2287(13)
H12 H 0.0192(16) -0.2870(19) 0.3326(13)
Cu1D Cu -0.049420(13) -0.337330(15) 0.563600(10)
Cu1B Cu -0.049420(13) -0.662670(15) 0.063600(10)
Cu1F Cu 0.049420(13) -0.337330(15) -0.063600(10)
Cu1D_2 Cu -0.049420(13) -0.337330(15) -0.436400(10)
P1B P 0.05248(3) -0.42018(3) 0.10450(2)
O1D O 0.08040(8) -0.65879(9) 0.54511(6)
O1B O 0.08040(8) -0.34121(9) 0.04511(6)
O2F O 0.03247(8) -0.50798(9) -0.08131(6)
O2B O -0.03247(8) -0.49202(9) 0.08131(6)
O3B O -0.14073(8) -0.49597(10) 0.36527(7)
H1B H -0.1906 -0.4583 0.3565
N1F N 0.18459(9) -0.65526(10) 0.40651(7)
N1B N -0.18459(9) -0.34474(10) -0.40651(7)
N2F N 0.02226(9) -0.69136(10) 0.32508(7)
N2B N -0.02226(9) -0.30864(10) -0.32508(7)
N3F N -0.08110(9) -0.73521(11) 0.42746(7)
N3B N 0.08110(9) -0.26479(11) -0.42746(7)
C1B C -0.26469(11) -0.37010(13) -0.45322(9)
C2B C -0.34965(11) -0.39483(13) -0.42589(9)
C3B C -0.34976(11) -0.39691(13) -0.34719(9)
C4B C -0.26644(11) -0.37169(13) -0.29770(9)
C5B C -0.18620(11) -0.34313(12) -0.32938(8)
C6B C -0.09380(10) -0.31427(12) -0.28354(8)
C7B C 0.06982(10) -0.29496(12) -0.29615(8)
C8B C 0.12661(11) -0.25346(12) -0.35428(8)
C9B C -0.20969(11) -0.19304(13) -0.16316(9)
C10B C -0.24724(12) -0.14192(13) -0.10333(9)
C11B C -0.11669(12) -0.21427(13) -0.01598(9)
C12B C -0.19943(12) -0.15152(13) -0.02904(9)
C13B C -0.03035(12) -0.34001(12) 0.31433(9)
H2B H 0.2590(15) -0.3683(17) 0.0066(12)
H3B H 0.4038(17) -0.4096(19) -0.0394(13)
H4B H 0.4073(16) -0.4184(18) -0.1723(13)
H5B H 0.2630(15) -0.3731(18) -0.2549(12)
H6B H -0.2361(16) -0.1842(17) -0.2124(13)
H7B H -0.3045(16) -0.1008(18) -0.1147(12)
H8B H -0.0820(15) -0.2225(17) 0.0331(12)
H9B H -0.2199(17) -0.1161(19) 0.0127(13)
H10B H 0.0890(16) -0.3000(18) 0.2041(13)
H11B H 0.0520(16) -0.4566(18) 0.2713(13)
H12B H -0.0192(16) -0.2870(19) 0.1674(13)
V1 V 0.083900(19) -0.97023(2) 0.332940(15)
F1 F 0.03357(9) -0.93090(11) 0.41606(6)
O4 O 0.18710(9) -0.90851(10) 0.33258(8)
O5 O 0.0000 -0.93187(14) 0.2500
O6 O 0.10208(9) -1.09992(10) 0.33595(7)
V1B V -0.083900(19) -0.97023(2) 0.167060(15)
F1B F -0.03357(9) -0.93090(11) 0.08394(6)
O4B O -0.18710(9) -0.90851(10) 0.16742(8)
O6B O -0.10208(9) -1.09992(10) 0.16405(7)
loop_
_geom_bond_atom_site_label_1
_geom_bond_atom_site_label_2
_geom_bond_site_symmetry_1
_geom_bond_site_symmetry_2
Cu1 O2 1_555 1_555
V1 F1 1_555 1_555
P1 O1 1_555 1_555
O1 Cu1D 1_555 1_555
O2 P1 1_555 1_555
O3 H1 1_555 1_555
O4 V1 1_555 1_555
O5 V1 1_555 1_555
O6 V1 1_555 1_555
N1 C1 1_555 1_555
N2 C6 1_555 1_555
N3 C8 1_555 1_555
C1 C2 1_555 1_555
C2 C3 1_555 1_555
C3 C4 1_555 1_555
C4 C5 1_555 1_555
C5 N1 1_555 1_555
C6 C5 1_555 1_555
C7 N2 1_555 1_555
C8 C7 1_555 1_555
C9 C10 1_555 1_555
C10 C12 1_555 1_555
C11 C12 1_555 1_555
C12 H9 1_555 1_555
C13 C14 1_555 1_555
C14 H11 1_555 1_555
H2 C1B 1_555 1_555
H3 C2B 1_555 1_555
H4 C3B 1_555 1_555
H5 C4B 1_555 1_555
H6 C9 1_555 1_555
H7 C10 1_555 1_555
H8 C11 1_555 1_555
H10 C13B 1_555 1_555
H12 C13B 1_555 1_555
Cu1B O2B 1_555 1_555
Cu1F N1 1_555 1_555
Cu1D_2 N1B 1_555 1_555
V1B O5 1_555 1_555
P1B O3 1_555 1_555
F1B V1B 1_555 1_555
O1D Cu1 1_555 1_555
O1B Cu1F 1_555 1_555
O2F Cu1F 1_555 1_555
O2B P1B 1_555 1_555
O3B P1 1_555 1_555
H1B O3B 1_555 1_555
O4B V1B 1_555 1_555
O6B V1B 1_555 1_555
N1F Cu1 1_555 1_555
N1B C1B 1_555 1_555
N2F Cu1 1_555 1_555
N2B Cu1D_2 1_555 1_555
N3F Cu1 1_555 1_555
N3B C11 1_555 1_555
C1B C2B 1_555 1_555
C2B C3B 1_555 1_555
C3B C4B 1_555 1_555
C4B C5B 1_555 1_555
C5B N1B 1_555 1_555
C6B C7 1_555 1_555
C7B C6 1_555 1_555
C8B C9 1_555 1_555
C9B C8 1_555 1_555
C10B C9B 1_555 1_555
C11B N3 1_555 1_555
C12B C10B 1_555 1_555
C13B P1 1_555 1_555
H2B C1 1_555 1_555
H3B C2 1_555 1_555
H4B C3 1_555 1_555
H5B C4 1_555 1_555
H6B C9B 1_555 1_555
H7B C10B 1_555 1_555
H8B C11B 1_555 1_555
H9B C12B 1_555 1_555
H10B C13 1_555 1_555
H11B C14 1_555 1_555
H12B C13 1_555 1_555
N2 Cu1F 1_555 1_555
N3 Cu1F 1_555 1_555
C13 P1B 1_555 1_555
C14 C13B 1_555 1_555
Cu1D_2 N3B 1_555 1_555
P1B O1B 1_555 1_555
N2B C6B 1_555 1_555
N2B C7B 1_555 1_555
N3B C8B 1_555 1_555
C5B C6B 1_555 1_555
C7B C8B 1_555 1_555
C11B C12B 1_555 1_555

#END
