
#######################################################################
#
#                 Cambridge Crystallographic Data Centre
#                                CCDC 
#
#######################################################################
#
# If this CIF has been generated from an entry in the Cambridge 
# Structural Database, then it will include bibliographic, chemical, 
# crystal, experimental, refinement or atomic coordinate data resulting 
# from the CCDC's data processing and validation procedures.
#
#######################################################################

data_GIKLAO
_symmetry_cell_setting           triclinic
_symmetry_space_group_name_H-M   'P -1'
_symmetry_Int_Tables_number      2
_space_group_name_Hall           '-P 1'
loop_
_symmetry_equiv_pos_site_id
_symmetry_equiv_pos_as_xyz
1 x,y,z
2 -x,-y,-z
_cell_length_a                   9.8529(10)
_cell_length_b                   10.1438(10)
_cell_length_c                   10.4442(10)
_cell_angle_alpha                78.814(2)
_cell_angle_beta                 66.044(2)
_cell_angle_gamma                64.306(2)
_cell_volume                     859.407
loop_
_atom_site_label
_atom_site_type_symbol
_atom_site_fract_x
_atom_site_fract_y
_atom_site_fract_z
Cu1 Cu 0.17954(3) 0.22670(3) 0.35288(3)
P1 P 0.37629(7) 0.43194(6) 0.21656(6)
F1 F 0.54288(16) 0.60001(15) 0.50660(14)
F2 F 0.65174(17) 0.11420(15) 0.40609(15)
F3 F 0.25218(18) 0.69457(17) 0.54394(16)
O1 O 0.2351(2) 0.38697(18) 0.26032(17)
O2 O 0.32418(19) 0.57116(18) 0.29483(17)
O3 O 0.8567(2) 0.2124(2) 0.19061(19)
O4 O 0.6344(2) 0.49178(18) 0.26431(17)
O5 O 0.4452(2) 0.76835(19) 0.29383(18)
O6 O 0.52606(19) 0.30855(18) 0.23519(17)
O7 O 0.4162(2) 0.0652(2) 0.36362(19)
N1 N 0.2046(2) 0.1419(2) 0.1824(2)
N2 N 0.0840(2) 0.0820(2) 0.4422(2)
N3 N -0.0930(2) -0.2814(2) 0.4470(2)
C1 C 0.2831(3) 0.1748(3) 0.0499(2)
C2 C 0.3442(3) 0.0832(3) -0.0593(3)
C3 C 0.3338(3) -0.0514(3) -0.0305(3)
C4 C 0.2528(3) -0.0870(3) 0.1065(2)
C5 C 0.1824(3) 0.0159(3) 0.2089(2)
C6 C 0.0830(3) -0.0012(2) 0.3578(2)
C7 C -0.0100(3) -0.0858(2) 0.4185(2)
C8 C -0.0418(3) -0.1830(2) 0.3542(2)
C9 C -0.0316(3) -0.1736(3) 0.2166(3)
C10 C -0.0577(3) -0.2777(3) 0.1699(3)
C11 C -0.1026(3) -0.3810(3) 0.2631(3)
C12 C -0.1234(3) -0.3766(3) 0.4023(3)
C13 C 0.4266(3) 0.4787(3) 0.0324(2)
H1 H 0.292(3) 0.259(3) 0.041(3)
H2 H 0.391(3) 0.114(3) -0.147(3)
H3 H 0.382(4) -0.117(3) -0.102(3)
H4 H 0.253(4) -0.181(4) 0.129(3)
H5 H -0.008(4) -0.106(3) 0.158(3)
H6 H -0.037(3) -0.277(3) 0.073(3)
H7 H -0.119(4) -0.458(3) 0.231(3)
H8 H -0.152(4) -0.440(3) 0.459(3)
H9 H 0.333(4) 0.553(3) 0.023(3)
H10 H 0.442(4) 0.393(4) -0.017(3)
H11 H 0.405(4) -0.002(4) 0.431(4)
H12 H 0.472(5) 0.093(4) 0.379(4)
V1 V 0.45040(5) 0.61461(4) 0.36822(4)
V2 V 0.68857(5) 0.28227(4) 0.31647(4)
Cu1A Cu 0.82046(3) 0.77330(3) -0.35288(3)
Cu1A_2 Cu -0.17954(3) -0.22670(3) 0.64712(3)
P1A P 0.62371(7) 0.56806(6) -0.21656(6)
F1A F 0.45712(16) 0.39999(15) 0.49340(14)
F2A F 0.34826(17) 0.88580(15) 0.59391(15)
F3A F 0.74782(18) 0.30543(17) 0.45606(16)
O1A O 0.7649(2) 0.61303(18) -0.26032(17)
O2A O 0.67582(19) 0.42884(18) -0.29483(17)
O2A_2 O 0.67582(19) 0.42884(18) 0.70517(17)
O3A O 0.1433(2) 0.7876(2) 0.80939(19)
O4A O 0.3656(2) 0.50822(18) 0.73569(17)
O5A O 0.5548(2) 0.23165(19) 0.70617(18)
O6A O 0.47394(19) 0.69145(18) -0.23519(17)
O6A_2 O 0.47394(19) 0.69145(18) 0.76481(17)
O7A O 0.5838(2) 0.9348(2) -0.36362(19)
N1A N -0.2046(2) -0.1419(2) 0.8176(2)
N1A_2 N 0.7954(2) 0.8581(2) -0.1824(2)
N2A N -0.0840(2) -0.0820(2) 0.5578(2)
N2A_2 N 0.9160(2) 0.9180(2) -0.4422(2)
N3A N 0.0930(2) 0.2814(2) 0.5530(2)
N3_2 N 0.9070(2) 0.7186(2) -0.5530(2)
C1A C -0.2831(3) -0.1748(3) 0.9501(2)
C2A C -0.3442(3) -0.0832(3) 1.0593(3)
C3A C -0.3338(3) 0.0514(3) 1.0305(3)
C4A C -0.2528(3) 0.0870(3) 0.8935(2)
C5A C -0.1824(3) -0.0159(3) 0.7911(2)
C6A C -0.0830(3) 0.0012(2) 0.6422(2)
C7A C 0.0100(3) 0.0858(2) 0.5815(2)
C8A C 0.0418(3) 0.1830(2) 0.6458(2)
C9A C 0.0316(3) 0.1736(3) 0.7834(3)
C10A C 0.0577(3) 0.2777(3) 0.8301(3)
C11A C 0.1026(3) 0.3810(3) 0.7369(3)
C12A C 0.1234(3) 0.3766(3) 0.5977(3)
C13A C 0.5734(3) 0.5213(3) -0.0324(2)
H1A H -0.292(3) -0.259(3) 0.959(3)
H2A H -0.391(3) -0.114(3) 1.147(3)
H3A H -0.382(4) 0.117(3) 1.102(3)
H4A H -0.253(4) 0.181(4) 0.871(3)
H5A H 0.008(4) 0.106(3) 0.842(3)
H6A H 0.037(3) 0.277(3) 0.927(3)
H7A H 0.119(4) 0.458(3) 0.769(3)
H8A H 0.152(4) 0.440(3) 0.541(3)
H9A H 0.667(4) 0.447(3) -0.023(3)
H10A H 0.558(4) 0.607(4) 0.017(3)
H11A H 0.595(4) 1.002(4) -0.431(4)
H12A H 0.528(5) 0.907(4) -0.379(4)
V1A V 0.54960(5) 0.38539(4) -0.36822(4)
V1A_2 V 0.54960(5) 0.38539(4) 0.63178(4)
V2A V 0.31143(5) 0.71773(4) -0.31647(4)
V2A_2 V 0.31143(5) 0.71773(4) 0.68353(4)
loop_
_geom_bond_atom_site_label_1
_geom_bond_atom_site_label_2
_geom_bond_site_symmetry_1
_geom_bond_site_symmetry_2
Cu1 O1 1_555 1_555
P1 O1 1_555 1_555
F1 V1 1_555 1_555
F2 V2 1_555 1_555
F3 V1 1_555 1_555
O2 P1 1_555 1_555
O3 V2 1_555 1_555
O4 V1 1_555 1_555
O5 V1 1_555 1_555
O6 P1 1_555 1_555
O7 Cu1 1_555 1_555
N1 Cu1 1_555 1_555
N2 Cu1 1_555 1_555
N3 C8 1_555 1_555
C1 N1 1_555 1_555
C2 C1 1_555 1_555
C3 C2 1_555 1_555
C4 C3 1_555 1_555
C5 N1 1_555 1_555
C6 N2 1_555 1_555
C7 C6 1_555 1_555
C8 C7 1_555 1_555
C9 C8 1_555 1_555
C10 C9 1_555 1_555
C11 C10 1_555 1_555
C12 N3 1_555 1_555
C13 P1 1_555 1_555
H1 C1 1_555 1_555
H2 C2 1_555 1_555
H3 C3 1_555 1_555
H4 C4 1_555 1_555
H5 C9 1_555 1_555
H6 C10 1_555 1_555
H7 C11 1_555 1_555
H8 C12 1_555 1_555
H9 C13 1_555 1_555
H10 C13 1_555 1_555
H11 O7 1_555 1_555
H12 O7 1_555 1_555
V1 O2 1_555 1_555
V2 O4 1_555 1_555
Cu1A O1A 1_555 1_555
Cu1A_2 N3 1_555 1_555
P1A O1A 1_555 1_555
F1A V1 1_555 1_555
F2A V2A_2 1_555 1_555
F3A V2 1_555 1_555
O2A P1A 1_555 1_555
O2A_2 V1A_2 1_555 1_555
O3A V2A_2 1_555 1_555
O4A V1A_2 1_555 1_555
O5A V1A_2 1_555 1_555
O6A P1A 1_555 1_555
O6A_2 V2A_2 1_555 1_555
O7A Cu1A 1_555 1_555
N1A Cu1A_2 1_555 1_555
N1A_2 Cu1A 1_555 1_555
N2A C7 1_555 1_555
N2A_2 Cu1A 1_555 1_555
N3A Cu1 1_555 1_555
N3_2 Cu1A 1_555 1_555
C1A N1A 1_555 1_555
C2A C1A 1_555 1_555
C3A C2A 1_555 1_555
C4A C3A 1_555 1_555
C5A N1A 1_555 1_555
C6A N2A 1_555 1_555
C7A N2 1_555 1_555
C8A N3A 1_555 1_555
C9A C8A 1_555 1_555
C10A C9A 1_555 1_555
C11A C10A 1_555 1_555
C12A N3A 1_555 1_555
C13A C13 1_555 1_555
H1A C1A 1_555 1_555
H2A C2A 1_555 1_555
H3A C3A 1_555 1_555
H4A C4A 1_555 1_555
H5A C9A 1_555 1_555
H6A C10A 1_555 1_555
H7A C11A 1_555 1_555
H8A C12A 1_555 1_555
H9A C13A 1_555 1_555
H10A C13A 1_555 1_555
H11A O7A 1_555 1_555
H12A O7A 1_555 1_555
V1A O2A 1_555 1_555
V1A_2 F1 1_555 1_555
V2A O6A 1_555 1_555
V2A_2 F1 1_555 1_555
F3 V2A_2 1_555 1_555
O6 V2 1_555 1_555
C4 C5 1_555 1_555
C5 C6 1_555 1_555
C11 C12 1_555 1_555
V2 F1A 1_555 1_555
Cu1A_2 N2A 1_555 1_555
P1A C13A 1_555 1_555
F1A V1A_2 1_555 1_555
F3A V1A_2 1_555 1_555
O4A V2A_2 1_555 1_555
C4A C5A 1_555 1_555
C5A C6A 1_555 1_555
C6A C7A 1_555 1_555
C7A C8A 1_555 1_555
C11A C12A 1_555 1_555

#END
