
#######################################################################
#
#                 Cambridge Crystallographic Data Centre
#                                CCDC 
#
#######################################################################
#
# If this CIF has been generated from an entry in the Cambridge 
# Structural Database, then it will include bibliographic, chemical, 
# crystal, experimental, refinement or atomic coordinate data resulting 
# from the CCDC's data processing and validation procedures.
#
#######################################################################

data_GIKMOE
_symmetry_cell_setting           orthorhombic
_symmetry_space_group_name_H-M   'P n a 21'
_symmetry_Int_Tables_number      33
_space_group_name_Hall           'P 2c -2n'
loop_
_symmetry_equiv_pos_site_id
_symmetry_equiv_pos_as_xyz
1 x,y,z
2 -x,-y,1/2+z
3 1/2-x,1/2+y,1/2+z
4 1/2+x,1/2-y,z
_cell_length_a                   17.211(2)
_cell_length_b                   22.975(3)
_cell_length_c                   7.2785(10)
_cell_angle_alpha                90
_cell_angle_beta                 90
_cell_angle_gamma                90
_cell_volume                     2878.08
loop_
_atom_site_label
_atom_site_type_symbol
_atom_site_fract_x
_atom_site_fract_y
_atom_site_fract_z
Cu1 Cu 0.86065(4) -0.04949(3) 0.45920(13)
Cu2 Cu 0.64581(4) 0.07409(3) 0.64120(13)
Cu3 Cu 0.94729(5) -0.25171(3) 0.45771(16)
C1 C 1.0344(3) -0.0293(3) 0.4245(10)
C2 C 1.1027(3) 0.0007(2) 0.4402(11)
C3 C 1.1040(3) 0.0596(2) 0.4831(9)
C4 C 1.0321(3) 0.0861(3) 0.5032(10)
C5 C 0.9654(3) 0.0532(3) 0.4865(11)
C6 C 1.1779(3) 0.0890(2) 0.5110(9)
C7 C 1.2689(3) 0.1534(2) 0.5587(9)
C8 C 1.3123(3) 0.2074(2) 0.5828(8)
C9 C 1.3914(4) 0.2082(3) 0.5452(10)
C10 C 1.4331(4) 0.2589(3) 0.5669(11)
C11 C 1.3276(5) 0.3082(3) 0.6619(12)
C12 C 1.2804(4) 0.2598(3) 0.6445(11)
C13 C 0.4829(4) 0.0267(3) 0.6892(10)
C14 C 0.4251(4) -0.0138(3) 0.7021(11)
C15 C 0.4414(3) -0.0721(3) 0.7096(8)
C16 C 0.5199(4) -0.0877(3) 0.7016(10)
C17 C 0.5745(4) -0.0453(3) 0.6868(11)
C18 C 0.3843(4) -0.1194(3) 0.7252(9)
C19 C 0.2805(4) -0.1721(2) 0.6999(9)
C20 C 0.2018(3) -0.1917(3) 0.6573(9)
C21 C 0.1374(4) -0.1565(3) 0.6755(10)
C22 C 0.0657(4) -0.1782(3) 0.6314(10)
C23 C 0.1161(5) -0.2662(3) 0.5543(10)
C24 C 0.1903(5) -0.2491(3) 0.5981(9)
C25 C 0.8922(3) -0.1799(2) 0.4660(12)
C26 C 0.7845(3) 0.0069(2) 0.4894(10)
C27 C 0.6076(4) 0.1398(3) 0.7504(9)
N1 N 0.9642(2) -0.00289(18) 0.4450(9)
N2 N 1.2439(3) 0.0608(2) 0.5329(8)
N3 N 1.3013(3) 0.1015(2) 0.5624(9)
N4 N 1.1914(2) 0.14679(18) 0.5266(6)
N5 N 1.1323(3) 0.1901(3) 0.5078(12)
N6 N 1.4025(3) 0.3097(2) 0.6240(10)
N7 N 0.5584(3) 0.0122(2) 0.6811(8)
N8 N 0.4015(3) -0.1703(2) 0.7896(8)
N9 N 0.3357(3) -0.2044(2) 0.7730(8)
N10 N 0.3083(3) -0.11753(19) 0.6681(8)
N11 N 0.2672(4) -0.0746(3) 0.5712(11)
N12 N 0.0533(3) -0.2319(2) 0.5658(8)
N13 N 0.8749(3) -0.1326(3) 0.4619(12)
N14 N 0.7342(4) 0.0358(3) 0.5408(10)
N15 N 0.5837(3) 0.1795(3) 0.8248(9)
H1 H 0.258(2) -0.035(2) 0.626(7)
H2 H 0.109(2) -0.301(2) 0.516(7)
H3 H 0.019(3) -0.156(2) 0.642(8)
H4 H 0.239(3) -0.272(2) 0.588(8)
H5 H 0.385(3) -0.006(2) 0.701(7)
H6 H 0.471(3) 0.066(2) 0.689(7)
H7 H 1.034(2) -0.070(2) 0.385(6)
H8 H 1.153(3) -0.020(3) 0.417(9)
H9 H 0.918(3) 0.068(2) 0.486(8)
H10 H 1.024(3) 0.121(2) 0.529(7)
H11 H 1.488(4) 0.259(2) 0.555(8)
H12 H 1.412(3) 0.172(2) 0.493(8)
H13 H 1.235(3) 0.2610(18) 0.664(7)
H14 H 1.309(3) 0.342(3) 0.700(10)
H15 H 0.535(3) -0.130(2) 0.704(8)
H16 H 0.635(4) -0.054(3) 0.697(12)
H17 H 0.147(3) -0.117(3) 0.723(10)
H18 H 0.289(3) -0.055(3) 0.522(8)
H19 H 1.134(8) 0.208(7) 0.66(3)
H20 H 1.148(3) 0.210(2) 0.475(10)
Cu3_2 Cu -0.05271(5) -0.25171(3) 0.45771(16)
Cu3B Cu 0.55271(5) 0.24829(3) 0.95771(16)
N12_2 N 1.0533(3) -0.2319(2) 0.5658(8)
N15B N 0.9163(3) -0.3205(3) 0.3248(9)
loop_
_geom_bond_atom_site_label_1
_geom_bond_atom_site_label_2
_geom_bond_site_symmetry_1
_geom_bond_site_symmetry_2
Cu1 C26 1_555 1_555
Cu2 C27 1_555 1_555
Cu3 C25 1_555 1_555
C1 C2 1_555 1_555
C2 C3 1_555 1_555
C3 C4 1_555 1_555
C4 C5 1_555 1_555
C5 N1 1_555 1_555
C6 C3 1_555 1_555
C7 C8 1_555 1_555
C8 C9 1_555 1_555
C9 C10 1_555 1_555
C10 N6 1_555 1_555
C11 C12 1_555 1_555
C12 C8 1_555 1_555
C13 C14 1_555 1_555
C14 C15 1_555 1_555
C15 C16 1_555 1_555
C16 C17 1_555 1_555
C17 N7 1_555 1_555
C18 C15 1_555 1_555
C19 C20 1_555 1_555
C20 C21 1_555 1_555
C21 C22 1_555 1_555
C22 N12 1_555 1_555
C23 C24 1_555 1_555
C24 C20 1_555 1_555
C25 N13 1_555 1_555
C26 N14 1_555 1_555
C27 N15 1_555 1_555
N1 Cu1 1_555 1_555
N2 C6 1_555 1_555
N3 C7 1_555 1_555
N4 C6 1_555 1_555
N5 N4 1_555 1_555
N6 C11 1_555 1_555
N7 Cu2 1_555 1_555
N8 C18 1_555 1_555
N9 C19 1_555 1_555
N10 C18 1_555 1_555
N11 N10 1_555 1_555
N12 C23 1_555 1_555
N13 Cu1 1_555 1_555
N14 Cu2 1_555 1_555
N15 Cu3B 1_555 1_555
H1 N11 1_555 1_555
H2 C23 1_555 1_555
H3 C22 1_555 1_555
H4 C24 1_555 1_555
H5 C14 1_555 1_555
H6 C13 1_555 1_555
H7 C1 1_555 1_555
H8 C2 1_555 1_555
H9 C5 1_555 1_555
H10 C4 1_555 1_555
H11 C10 1_555 1_555
H12 C9 1_555 1_555
H13 C12 1_555 1_555
H14 C11 1_555 1_555
H15 C16 1_555 1_555
H16 C17 1_555 1_555
H17 C21 1_555 1_555
H18 N11 1_555 1_555
H19 N5 1_555 1_555
H20 N5 1_555 1_555
Cu3_2 N12 1_555 1_555
N12_2 Cu3 1_555 1_555
N15B Cu3 1_555 1_555
C1 N1 1_555 1_555
C7 N4 1_555 1_555
C13 N7 1_555 1_555
C19 N10 1_555 1_555
N2 N3 1_555 1_555
N8 N9 1_555 1_555

#END
