
#######################################################################
#
#                 Cambridge Crystallographic Data Centre
#                                CCDC 
#
#######################################################################
#
# If this CIF has been generated from an entry in the Cambridge 
# Structural Database, then it will include bibliographic, chemical, 
# crystal, experimental, refinement or atomic coordinate data resulting 
# from the CCDC's data processing and validation procedures.
#
#######################################################################

data_GIKMUJ
_symmetry_cell_setting           monoclinic
_symmetry_space_group_name_H-M   'P 21/n'
_symmetry_Int_Tables_number      14
_space_group_name_Hall           '-P 2yn'
loop_
_symmetry_equiv_pos_site_id
_symmetry_equiv_pos_as_xyz
1 x,y,z
2 1/2-x,1/2+y,1/2-z
3 -x,-y,-z
4 1/2+x,1/2-y,1/2+z
_cell_length_a                   7.6861(13)
_cell_length_b                   17.984(2)
_cell_length_c                   14.580(2)
_cell_angle_alpha                90
_cell_angle_beta                 98.155(10)
_cell_angle_gamma                90
_cell_volume                     1994.97
loop_
_atom_site_label
_atom_site_type_symbol
_atom_site_fract_x
_atom_site_fract_y
_atom_site_fract_z
Cu1 Cu -0.16928(14) 0.41961(6) 0.24726(8)
Cu2 Cu -0.20742(14) 0.24904(6) 0.24910(8)
S1 S -0.2960(3) 0.17215(11) 0.69693(16)
O1 O -0.2069(8) 0.4029(3) 0.3775(4)
O2 O -0.2310(9) 0.2777(3) 0.3749(4)
O3 O 0.0161(9) 0.4999(3) 0.6984(5)
O4 O 0.0013(12) 0.4260(4) 0.8205(5)
O5 O -0.4445(7) 0.1837(3) 0.7473(5)
O6 O -0.1413(8) 0.1493(4) 0.7591(5)
O7 O -0.3382(10) 0.1246(3) 0.6170(5)
O8 O -0.3118(7) 0.3367(3) 0.1971(4)
H1 H -0.399(8) 0.345(5) 0.223(6)
O9 O -0.1641(10) 0.4557(4) 0.1181(5)
H2 H -0.0791 0.4377 0.0979
H3 H -0.182(9) 0.498(2) 0.135(9)
N1 N -0.1012(10) 0.1519(4) 0.2966(6)
C1 C -0.2154(11) 0.3361(5) 0.5185(6)
C2 C -0.1430(11) 0.3927(5) 0.5761(7)
H4 H -0.1096 0.4372 0.5510
C3 C -0.1204(11) 0.3826(5) 0.6718(7)
C4 C -0.1666(12) 0.3158(5) 0.7093(7)
H5 H -0.1465 0.3084 0.7730
C5 C -0.2429(11) 0.2601(4) 0.6513(6)
C6 C -0.2672(11) 0.2706(5) 0.5558(6)
H6 H -0.3187 0.2333 0.5169
C7 C -0.2236(11) 0.3391(5) 0.4147(6)
C8 C -0.0258(12) 0.4413(5) 0.7384(6)
C9 C -0.0420(15) 0.1370(5) 0.3842(7)
H7 H -0.0565 0.1723 0.4290
C10 C 0.0418(18) 0.0700(6) 0.4119(8)
H8 H 0.0807 0.0602 0.4740
C11 C 0.0643(17) 0.0201(6) 0.3455(10)
H9 H 0.1234 -0.0242 0.3613
C12 C -0.0011(14) 0.0351(5) 0.2538(8)
H10 H 0.0103 0.0003 0.2079
C13 C -0.0812(12) 0.1007(5) 0.2318(7)
C14 C -0.1508(12) 0.1246(5) 0.1370(7)
C15 C -0.1589(15) 0.0809(6) 0.0571(8)
H11 H -0.1232 0.0314 0.0615
C16 C -0.2193(16) 0.1110(7) -0.0274(8)
H12 H -0.2277 0.0815 -0.0802
C17 C -0.2679(15) 0.1845(6) -0.0353(8)
H13 H -0.3013 0.2063 -0.0930
C18 C -0.2652(12) 0.2250(5) 0.0460(6)
H14 H -0.3050 0.2739 0.0420
N2 N -0.2077(10) 0.1967(4) 0.1304(6)
Cu1B Cu 0.16928(14) 0.58039(6) 0.75274(8)
Cu2C Cu -0.70742(14) 0.25096(6) 0.74910(8)
O3B O -0.0161(9) 0.5001(3) 0.3016(5)
O5C O 0.0555(7) 0.3163(3) 0.2473(5)
loop_
_geom_bond_atom_site_label_1
_geom_bond_atom_site_label_2
_geom_bond_site_symmetry_1
_geom_bond_site_symmetry_2
Cu1 O1 1_555 1_555
Cu2 O2 1_555 1_555
S1 O5 1_555 1_555
O1 C7 1_555 1_555
O2 C7 1_555 1_555
O3 C8 1_555 1_555
O4 C8 1_555 1_555
O5 Cu2C 1_555 1_555
O6 S1 1_555 1_555
O7 S1 1_555 1_555
O8 Cu1 1_555 1_555
H1 O8 1_555 1_555
O9 Cu1 1_555 1_555
H2 O9 1_555 1_555
H3 O9 1_555 1_555
N1 Cu2 1_555 1_555
C1 C2 1_555 1_555
C2 H4 1_555 1_555
C3 C2 1_555 1_555
C4 C3 1_555 1_555
H5 C4 1_555 1_555
C5 S1 1_555 1_555
C6 C1 1_555 1_555
H6 C6 1_555 1_555
C7 C1 1_555 1_555
C8 C3 1_555 1_555
C9 N1 1_555 1_555
H7 C9 1_555 1_555
C10 C9 1_555 1_555
H8 C10 1_555 1_555
C11 C10 1_555 1_555
H9 C11 1_555 1_555
C12 C11 1_555 1_555
H10 C12 1_555 1_555
C13 N1 1_555 1_555
C14 C13 1_555 1_555
C15 C14 1_555 1_555
H11 C15 1_555 1_555
C16 C15 1_555 1_555
H12 C16 1_555 1_555
C17 C16 1_555 1_555
H13 C17 1_555 1_555
C18 C17 1_555 1_555
H14 C18 1_555 1_555
N2 Cu2 1_555 1_555
Cu1B O3 1_555 1_555
O3B Cu1 1_555 1_555
O5C Cu2 1_555 1_555
Cu2 O8 1_555 1_555
C4 C5 1_555 1_555
C5 C6 1_555 1_555
C12 C13 1_555 1_555
C14 N2 1_555 1_555
C18 N2 1_555 1_555

#END
