
#######################################################################
#
#                 Cambridge Crystallographic Data Centre
#                                CCDC 
#
#######################################################################
#
# If this CIF has been generated from an entry in the Cambridge 
# Structural Database, then it will include bibliographic, chemical, 
# crystal, experimental, refinement or atomic coordinate data resulting 
# from the CCDC's data processing and validation procedures.
#
#######################################################################

data_GIKMET
_symmetry_cell_setting           monoclinic
_symmetry_space_group_name_H-M   'P 21/n'
_symmetry_Int_Tables_number      14
_space_group_name_Hall           '-P 2yn'
loop_
_symmetry_equiv_pos_site_id
_symmetry_equiv_pos_as_xyz
1 x,y,z
2 1/2-x,1/2+y,1/2-z
3 -x,-y,-z
4 1/2+x,1/2-y,1/2+z
_cell_length_a                   6.9528(15)
_cell_length_b                   16.301(4)
_cell_length_c                   13.265(3)
_cell_angle_alpha                90
_cell_angle_beta                 101.835(2)
_cell_angle_gamma                90
_cell_volume                     1471.46
loop_
_atom_site_label
_atom_site_type_symbol
_atom_site_fract_x
_atom_site_fract_y
_atom_site_fract_z
Cu1 Cu 0.18285(3) -0.245240(10) 0.258970(12)
S1 S 0.14721(5) -0.011730(19) -0.28651(2)
O1 O 0.20288(16) -0.14968(6) 0.16627(8)
O2 O 0.16914(19) -0.21806(7) 0.01708(8)
O3 O 0.31169(16) 0.15764(6) 0.15152(8)
O4 O 0.16489(18) 0.71451(7) 0.49921(8)
O5 O 0.28664(15) -0.07046(6) -0.31453(8)
O6 O -0.05698(15) -0.03862(6) -0.31864(8)
O7 O 0.17987(15) 0.07082(6) -0.32207(8)
O8 O 0.20798(17) -0.32688(7) 0.15511(8)
H1 H 0.216(3) -0.3043(12) 0.1008(10)
H2 H 0.301(2) -0.3583(11) 0.1691(15)
O9 O 0.13838(15) -0.16851(6) 0.36648(8)
H3 H 0.0352(19) -0.1446(11) 0.3480(15)
H4 H 0.135(3) -0.1989(10) 0.4157(11)
O10 O 0.52655(15) -0.21366(7) 0.32557(8)
H5 H 0.570(3) -0.2373(11) 0.3792(11)
H6 H 0.610(2) -0.2199(13) 0.2917(14)
O11 O -0.18638(18) -0.25923(6) 0.20388(9)
H7 H -0.189(3) -0.3087(6) 0.2071(16)
H8 H -0.224(3) -0.2445(12) 0.1445(9)
C1 C 0.2139(2) -0.07482(8) 0.01265(10)
C2 C 0.2567(2) 0.00049(8) 0.06253(10)
H9 H 0.2742 0.0035 0.1338
C3 C 0.2733(2) 0.07135(8) 0.00572(10)
C4 C 0.2451(2) 0.06705(8) -0.10132(10)
H10 H 0.2586 0.1138 -0.1395
C5 C 0.19687(19) -0.00727(8) -0.15032(10)
C6 C 0.1833(2) -0.07848(8) -0.09458(10)
H11 H 0.1540 -0.1283 -0.1285
C7 C 0.1944(2) -0.15370(9) 0.06966(11)
C8 C 0.3108(2) 0.15463(9) 0.05603(11)
Cu1A Cu 0.31715(3) 0.254760(10) 0.241030(12)
Cu1_2 Cu 0.18285(3) 0.754760(10) 0.258970(12)
S1A S 0.35279(5) 0.488270(19) 0.78651(2)
O1A O 0.29712(16) 0.35032(6) 0.33373(8)
O2A O 0.33086(19) 0.28194(7) 0.48292(8)
O3A O 0.18831(16) -0.34236(6) 0.34848(8)
O3A_2 O 0.18831(16) 0.65764(6) 0.34848(8)
O4A O 0.33511(18) 0.21451(7) 0.00079(8)
O5A O 0.21336(15) 0.42954(6) 0.81453(8)
O6A O 0.55698(15) 0.46138(6) 0.81864(8)
O7A O 0.32013(15) 0.57082(6) 0.82207(8)
O8A O 0.29202(17) 0.17312(7) 0.34489(8)
H1A H 0.284(3) 0.1957(12) 0.3992(10)
H2A H 0.199(2) 0.1417(11) 0.3309(15)
O9A O 0.36162(15) 0.33149(6) 0.13352(8)
H3A H 0.4648(19) 0.3554(11) 0.1520(15)
H4A H 0.365(3) 0.3011(10) 0.0843(11)
O10A O -0.02655(15) 0.28634(7) 0.17443(8)
H5A H -0.070(3) 0.2627(11) 0.1208(11)
H6A H -0.110(2) 0.2801(13) 0.2083(14)
O11A O 0.68638(18) 0.24077(6) 0.29612(9)
H7A H 0.689(3) 0.1913(6) 0.2929(16)
H8A H 0.724(3) 0.2555(12) 0.3555(9)
C1A C 0.2861(2) 0.42518(8) 0.48735(10)
C2A C 0.2433(2) 0.50049(8) 0.43747(10)
H9A H 0.2258 0.5035 0.3662
C3A C 0.2267(2) 0.57135(8) 0.49428(10)
C4A C 0.2549(2) 0.56705(8) 0.60132(10)
H10A H 0.2414 0.6138 0.6395
C5A C 0.30313(19) 0.49273(8) 0.65032(10)
C6A C 0.3167(2) 0.42152(8) 0.59458(10)
H11A H 0.3460 0.3717 0.6285
C7A C 0.3056(2) 0.34630(9) 0.43034(11)
C8A C 0.1892(2) 0.65463(9) 0.44397(11)
C9 C 0.4891(2) 0.04244(9) -0.47785(11)
H12 H 0.5598 0.0824 -0.5105
H13 H 0.3515 0.0580 -0.4915
N1 N 0.56862(18) 0.04185(8) -0.36467(9)
H14 H 0.5556 0.0915 -0.3390
H15 H 0.6952 0.0281 -0.3525
H16 H 0.5025 0.0055 -0.3349
C9B C 0.5109(2) -0.04244(9) -0.52215(11)
H12B H 0.4402 -0.0824 -0.4895
H13B H 0.6485 -0.0580 -0.5085
N1B N 0.43138(18) -0.04185(8) -0.63533(9)
H14B H 0.4444 -0.0915 -0.6610
H15B H 0.3048 -0.0281 -0.6475
H16B H 0.4975 -0.0055 -0.6651
loop_
_geom_bond_atom_site_label_1
_geom_bond_atom_site_label_2
_geom_bond_site_symmetry_1
_geom_bond_site_symmetry_2
Cu1 O1 1_555 1_555
S1 O5 1_555 1_555
O1 C7 1_555 1_555
O2 C7 1_555 1_555
O3 C8 1_555 1_555
O4 C8A 1_555 1_555
O6 S1 1_555 1_555
O7 S1 1_555 1_555
O8 Cu1 1_555 1_555
H1 O8 1_555 1_555
H2 O8 1_555 1_555
O9 Cu1 1_555 1_555
H3 O9 1_555 1_555
H4 O9 1_555 1_555
O10 Cu1 1_555 1_555
H5 O10 1_555 1_555
H6 O10 1_555 1_555
O11 Cu1 1_555 1_555
H7 O11 1_555 1_555
H8 O11 1_555 1_555
C1 C2 1_555 1_555
C2 H9 1_555 1_555
C3 C2 1_555 1_555
C4 C3 1_555 1_555
H10 C4 1_555 1_555
C5 S1 1_555 1_555
C6 C1 1_555 1_555
H11 C6 1_555 1_555
C7 C1 1_555 1_555
C8 C3 1_555 1_555
C9 H12 1_555 1_555
H13 C9 1_555 1_555
N1 C9 1_555 1_555
H14 N1 1_555 1_555
H15 N1 1_555 1_555
H16 N1 1_555 1_555
Cu1A O3 1_555 1_555
Cu1_2 O3A_2 1_555 1_555
S1A O5A 1_555 1_555
O1A Cu1A 1_555 1_555
O2A C7A 1_555 1_555
O3A Cu1 1_555 1_555
O3A_2 C8A 1_555 1_555
O4A C8 1_555 1_555
O6A S1A 1_555 1_555
O7A S1A 1_555 1_555
O8A Cu1A 1_555 1_555
H1A O8A 1_555 1_555
H2A O8A 1_555 1_555
O9A Cu1A 1_555 1_555
H3A O9A 1_555 1_555
H4A O9A 1_555 1_555
O10A Cu1A 1_555 1_555
H5A O10A 1_555 1_555
H6A O10A 1_555 1_555
O11A Cu1A 1_555 1_555
H7A O11A 1_555 1_555
H8A O11A 1_555 1_555
C1A C2A 1_555 1_555
C2A H9A 1_555 1_555
C3A C2A 1_555 1_555
C4A C3A 1_555 1_555
H10A C4A 1_555 1_555
C5A S1A 1_555 1_555
C6A C1A 1_555 1_555
H11A C6A 1_555 1_555
C7A O1A 1_555 1_555
C8A C3A 1_555 1_555
C9B C9 1_555 1_555
H12B C9B 1_555 1_555
H13B C9B 1_555 1_555
N1B C9B 1_555 1_555
H14B N1B 1_555 1_555
H15B N1B 1_555 1_555
H16B N1B 1_555 1_555
C4 C5 1_555 1_555
C5 C6 1_555 1_555
C1A C7A 1_555 1_555
C4A C5A 1_555 1_555
C5A C6A 1_555 1_555

#END
