
#######################################################################
#
#                 Cambridge Crystallographic Data Centre
#                                CCDC 
#
#######################################################################
#
# If this CIF has been generated from an entry in the Cambridge 
# Structural Database, then it will include bibliographic, chemical, 
# crystal, experimental, refinement or atomic coordinate data resulting 
# from the CCDC's data processing and validation procedures.
#
#######################################################################

data_GIKMOD
_symmetry_cell_setting           monoclinic
_symmetry_space_group_name_H-M   'P 21/n'
_symmetry_Int_Tables_number      14
_space_group_name_Hall           '-P 2yn'
loop_
_symmetry_equiv_pos_site_id
_symmetry_equiv_pos_as_xyz
1 x,y,z
2 1/2-x,1/2+y,1/2-z
3 -x,-y,-z
4 1/2+x,1/2-y,1/2+z
_cell_length_a                   7.3336(7)
_cell_length_b                   18.1829(19)
_cell_length_c                   10.1252(9)
_cell_angle_alpha                90
_cell_angle_beta                 94.493(4)
_cell_angle_gamma                90
_cell_volume                     1346.01
loop_
_atom_site_label
_atom_site_type_symbol
_atom_site_fract_x
_atom_site_fract_y
_atom_site_fract_z
Cu1 Cu 1.13323(7) 0.09376(3) -0.21792(4)
Cu2 Cu 0.95252(6) 0.06842(2) 0.06664(4)
S1 S 1.11616(14) 0.43399(5) 0.30802(9)
O1 O 1.1155(4) 0.18544(15) -0.1251(3)
O3 O 1.0475(4) 0.16812(15) 0.0845(3)
O5 O 1.3408(4) 0.51144(15) -0.1632(3)
O6 O 1.3061(4) 0.40980(15) -0.2899(3)
O7 O 0.9493(4) 0.40467(19) 0.3564(3)
O8 O 1.2746(5) 0.4047(2) 0.3844(3)
O9 O 1.1179(6) 0.51287(18) 0.2963(3)
O10 O 1.1284(4) 0.03485(14) -0.0566(3)
H4 H 1.230(3) 0.036(3) -0.021(4)
O11 O 1.1128(6) 0.15269(18) -0.3785(3)
H5 H 1.092(6) 0.1968(12) -0.381(5)
H6 H 1.152(8) 0.140(4) -0.448(4)
C1 C 1.1275(5) 0.2870(2) 0.0141(4)
C2 C 1.1919(6) 0.3289(2) -0.0879(4)
H7 H 1.2136 0.3064 -0.1676
C3 C 1.2241(5) 0.4037(2) -0.0721(4)
C4 C 1.1956(6) 0.4371(2) 0.0485(4)
H8 H 1.2187 0.4870 0.0610
C5 C 1.1326(5) 0.3951(2) 0.1493(4)
C6 C 1.0980(5) 0.3205(2) 0.1327(4)
H9 H 1.0549 0.2932 0.2014
C7 C 1.0938(5) 0.2071(2) -0.0106(4)
C8 C 1.2957(5) 0.4453(2) -0.1826(4)
Cu1A Cu 1.36677(7) 0.59376(3) -0.28208(4)
Cu1C Cu 0.63323(7) 0.40624(3) 0.28208(4)
Cu1B Cu 0.86677(7) -0.09376(3) 0.21792(4)
Cu1A_2 Cu 1.36677(7) -0.40624(3) -0.28208(4)
Cu1C_2 Cu 0.63323(7) -0.59376(3) 0.28208(4)
Cu2C Cu 1.45252(6) 0.43158(2) -0.43336(4)
Cu2C_2 Cu 1.45252(6) 0.43158(2) 0.56664(4)
Cu2B Cu 1.04748(6) -0.06842(2) -0.06664(4)
Cu2A Cu 0.54748(6) -0.43158(2) 0.43336(4)
Cu2A_2 Cu 0.54748(6) -0.43158(2) -0.56664(4)
S1B S 0.88384(14) -0.43399(5) -0.30802(9)
O1B O 0.8845(4) -0.18544(15) 0.1251(3)
O3B O 0.9525(4) -0.16812(15) -0.0845(3)
O5A O 1.1592(4) 0.01144(15) -0.3368(3)
O5C O 0.8408(4) -0.01144(15) 0.3368(3)
O5B O 0.6592(4) -0.51144(15) 0.1632(3)
O6C O 0.8061(4) 0.09020(15) 0.2101(3)
O6A O 1.1939(4) -0.09020(15) -0.2101(3)
O6B O 0.6939(4) -0.40980(15) 0.2899(3)
O7C O 1.4493(4) 0.09533(19) -0.1436(3)
O7A O 0.5507(4) -0.09533(19) 0.1436(3)
O7B O 1.0507(4) -0.40467(19) -0.3564(3)
O8C O 0.7746(5) 0.0953(2) -0.1156(3)
O8A O 1.2254(5) -0.0953(2) 0.1156(3)
O8B O 0.7254(5) -0.4047(2) -0.3844(3)
O9B O 0.8821(6) -0.51287(18) -0.2963(3)
O10B O 0.8716(4) -0.03485(14) 0.0566(3)
H4B H 0.770(3) -0.036(3) 0.021(4)
O11B O 0.8872(6) -0.15269(18) 0.3785(3)
H5B H 0.908(6) -0.1968(12) 0.381(5)
H6B H 0.848(8) -0.140(4) 0.448(4)
C1B C 0.8725(5) -0.2870(2) -0.0141(4)
C2B C 0.8081(6) -0.3289(2) 0.0879(4)
H7B H 0.7864 -0.3064 0.1676
C3B C 0.7759(5) -0.4037(2) 0.0721(4)
C4B C 0.8044(6) -0.4371(2) -0.0485(4)
H8B H 0.7813 -0.4870 -0.0610
C5B C 0.8674(5) -0.3951(2) -0.1493(4)
C6B C 0.9020(5) -0.3205(2) -0.1327(4)
H9B H 0.9451 -0.2932 -0.2014
C7B C 0.9062(5) -0.2071(2) 0.0106(4)
C8B C 0.7043(5) -0.4453(2) 0.1826(4)
O2 O 1.0379(8) 0.2998(2) -0.4147(5)
H1 H 1.109(9) 0.330(4) -0.378(8)
H10 H 1.057(14) 0.303(6) -0.493(3)
O4 O 1.2110(7) 0.1312(3) -0.6375(4)
H2 H 1.288(9) 0.105(4) -0.667(8)
H3 H 1.160(8) 0.158(3) -0.695(5)
loop_
_geom_bond_atom_site_label_1
_geom_bond_atom_site_label_2
_geom_bond_site_symmetry_1
_geom_bond_site_symmetry_2
Cu1 O1 1_555 1_555
Cu2 O3 1_555 1_555
S1 O7 1_555 1_555
O1 C7 1_555 1_555
O2 H1 1_555 1_555
O3 C7 1_555 1_555
O4 H2 1_555 1_555
H3 O4 1_555 1_555
O5 C8 1_555 1_555
O6 C8 1_555 1_555
O7 Cu1C 1_555 1_555
O8 S1 1_555 1_555
O9 S1 1_555 1_555
O10 Cu1 1_555 1_555
H4 O10 1_555 1_555
O11 Cu1 1_555 1_555
H5 O11 1_555 1_555
H6 O11 1_555 1_555
C1 C2 1_555 1_555
C2 H7 1_555 1_555
C3 C2 1_555 1_555
C4 C3 1_555 1_555
H8 C4 1_555 1_555
C5 S1 1_555 1_555
C6 C1 1_555 1_555
H9 C6 1_555 1_555
C7 C1 1_555 1_555
C8 C3 1_555 1_555
H10 O2 1_555 1_555
Cu1A O5 1_555 1_555
Cu1B O1B 1_555 1_555
Cu1A_2 O7B 1_555 1_555
Cu1C_2 O5B 1_555 1_555
Cu2C O6 1_555 1_555
Cu2C_2 O8 1_555 1_555
Cu2B O10 1_555 1_555
Cu2A O6B 1_555 1_555
Cu2A_2 O8B 1_555 1_555
S1B O7B 1_555 1_555
O1B C7B 1_555 1_555
O3B Cu2B 1_555 1_555
O5A Cu1 1_555 1_555
O5C Cu1B 1_555 1_555
O5B C8B 1_555 1_555
O6C Cu2 1_555 1_555
O6A Cu2B 1_555 1_555
O6B C8B 1_555 1_555
O7C Cu1 1_555 1_555
O7A Cu1B 1_555 1_555
O8C Cu2 1_555 1_555
O8A Cu2B 1_555 1_555
O8B S1B 1_555 1_555
O9B S1B 1_555 1_555
O10B Cu2 1_555 1_555
H4B O10B 1_555 1_555
O11B Cu1B 1_555 1_555
H5B O11B 1_555 1_555
H6B O11B 1_555 1_555
C1B C2B 1_555 1_555
C2B H7B 1_555 1_555
C3B C2B 1_555 1_555
C4B C3B 1_555 1_555
H8B C4B 1_555 1_555
C5B S1B 1_555 1_555
C6B C1B 1_555 1_555
H9B C6B 1_555 1_555
C7B O3B 1_555 1_555
C8B C3B 1_555 1_555
Cu2 O10 1_555 1_555
C4 C5 1_555 1_555
C5 C6 1_555 1_555
Cu1B O10B 1_555 1_555
Cu2B O10B 1_555 1_555
C1B C7B 1_555 1_555
C4B C5B 1_555 1_555
C5B C6B 1_555 1_555

#END
