
#######################################################################
#
#                 Cambridge Crystallographic Data Centre
#                                CCDC 
#
#######################################################################
#
# If this CIF has been generated from an entry in the Cambridge 
# Structural Database, then it will include bibliographic, chemical, 
# crystal, experimental, refinement or atomic coordinate data resulting 
# from the CCDC's data processing and validation procedures.
#
#######################################################################

data_GIKNAQ
_symmetry_cell_setting           triclinic
_symmetry_space_group_name_H-M   'P -1'
_symmetry_Int_Tables_number      2
_space_group_name_Hall           '-P 1'
loop_
_symmetry_equiv_pos_site_id
_symmetry_equiv_pos_as_xyz
1 x,y,z
2 -x,-y,-z
_cell_length_a                   10.1864(16)
_cell_length_b                   10.6594(18)
_cell_length_c                   22.761(4)
_cell_angle_alpha                88.194(4)
_cell_angle_beta                 80.517(4)
_cell_angle_gamma                67.384(4)
_cell_volume                     2248.81
loop_
_atom_site_label
_atom_site_type_symbol
_atom_site_fract_x
_atom_site_fract_y
_atom_site_fract_z
Cu1 Cu -0.45347(3) 0.44421(3) 1.383375(14)
Cu2 Cu -1.22788(3) 0.21126(3) 1.273170(14)
Cu3 Cu -0.98514(3) 0.92976(3) 1.242370(14)
Cu4 Cu -2.01428(3) 0.10843(3) 1.112320(14)
S1 S -1.33700(8) -0.37803(7) 1.08850(4)
S2 S -1.17182(6) 0.90607(6) 1.37891(3)
C1 C -1.3659(2) -0.0491(2) 1.18336(11)
C2 C -1.5058(2) 0.0411(2) 1.17959(11)
H1 H -1.5421 0.1266 1.1984
C3 C -1.5913(2) 0.0039(2) 1.14784(11)
C4 C -1.5358(3) -0.1243(3) 1.11978(12)
H2 H -1.5917 -0.1488 1.0976
C5 C -1.3988(3) -0.2152(2) 1.12447(12)
C6 C -1.3136(3) -0.1783(2) 1.15659(12)
H3 H -1.2216 -0.2400 1.1602
C7 C -1.2711(2) -0.0068(2) 1.21493(11)
C8 C -1.7445(3) 0.0971(3) 1.14439(12)
C9 C -0.8775(2) 0.5205(2) 1.35113(11)
C10 C -0.9556(3) 0.4529(2) 1.33061(11)
H4 H -0.9115 0.3599 1.3218
C11 C -1.0981(2) 0.5227(2) 1.32329(11)
C12 C -1.1639(2) 0.6628(2) 1.33748(11)
H5 H -1.2594 0.7107 1.3330
C13 C -1.0873(2) 0.7294(2) 1.35801(11)
C14 C -0.9436(3) 0.6589(3) 1.36444(11)
H6 H -0.8921 0.7048 1.3777
C15 C -0.7219(3) 0.4417(3) 1.35912(12)
C16 C -1.1887(3) 0.4531(2) 1.30356(11)
C17 C -0.1793(3) 0.2521(3) 1.42180(12)
H7 H -0.1888 0.1865 1.3988
C18 C -0.0593(3) 0.2168(3) 1.44969(14)
H8 H 0.0104 0.1288 1.4457
C19 C -0.0458(3) 0.3147(3) 1.48331(14)
H9 H 0.0343 0.2939 1.5020
C20 C -0.1515(3) 0.4435(3) 1.48920(13)
H10 H -0.1437 0.5102 1.5121
C21 C -0.2695(3) 0.4730(3) 1.46081(11)
C22 C -0.3921(3) 0.6052(3) 1.46544(11)
C23 C -0.4067(3) 0.7141(3) 1.50125(13)
H11 H -0.3353 0.7076 1.5233
C24 C -0.5288(3) 0.8326(3) 1.50382(14)
H12 H -0.5413 0.9060 1.5283
C25 C -0.6311(3) 0.8405(3) 1.46983(14)
H13 H -0.7127 0.9199 1.4703
C26 C -0.6112(3) 0.7284(3) 1.43483(13)
H14 H -0.6807 0.7337 1.4120
C27 C -0.8136(3) 1.0440(3) 1.29979(13)
H15 H -0.8954 1.1242 1.3043
C28 C -0.6939(3) 1.0401(3) 1.32203(13)
H16 H -0.6949 1.1160 1.3414
C29 C -0.5726(3) 0.9205(3) 1.31475(14)
H17 H -0.4896 0.9158 1.3283
C30 C -0.5752(3) 0.8081(3) 1.28720(13)
H18 H -0.4948 0.7268 1.2825
C31 C -0.6993(3) 0.8184(3) 1.26661(11)
C32 C -0.7185(3) 0.7032(3) 1.23983(11)
C33 C -0.6130(3) 0.5738(3) 1.23041(13)
H19 H -0.5211 0.5552 1.2387
C34 C -0.6466(4) 0.4725(3) 1.20852(15)
H20 H -0.5774 0.3844 1.2022
C35 C -0.7833(4) 0.5024(3) 1.19605(14)
H21 H -0.8076 0.4350 1.1815
C36 C -0.8837(3) 0.6346(3) 1.20555(13)
H22 H -0.9756 0.6554 1.1968
C37 C -2.3180(3) 0.2663(3) 1.09484(14)
H23 H -2.3137 0.3369 1.1164
C38 C -2.4397(3) 0.2883(3) 1.07081(15)
H24 H -2.5161 0.3726 1.0758
C39 C -2.4473(3) 0.1842(3) 1.03920(14)
H25 H -2.5289 0.1974 1.0225
C40 C -2.3329(3) 0.0599(3) 1.03247(13)
H26 H -2.3366 -0.0118 1.0115
C41 C -2.2119(3) 0.0434(3) 1.05754(11)
C42 C -2.0842(3) -0.0842(3) 1.05369(11)
C43 C -2.0710(3) -0.2045(3) 1.02687(14)
H27 H -2.1454 -0.2078 1.0090
C44 C -1.9468(4) -0.3192(3) 1.02680(14)
H28 H -1.9369 -0.4004 1.0089
C45 C -1.8383(3) -0.3122(3) 1.05348(15)
H29 H -1.7535 -0.3881 1.0537
C46 C -1.8575(3) -0.1899(3) 1.08002(14)
H30 H -1.7843 -0.1853 1.0984
O1 O -1.14373(18) -0.09354(18) 1.21376(9)
O2 O -1.32404(18) 0.11076(18) 1.23834(8)
O3 O -1.81004(18) 0.04722(19) 1.11484(9)
O4 O -1.7984(2) 0.2095(2) 1.17053(11)
O5 O -1.2690(3) -0.3650(3) 1.02967(14)
O6 O -1.2404(4) -0.4673(3) 1.12571(18)
O7 O -1.4627(3) -0.4072(2) 1.08794(13)
O8 O -0.65327(18) 0.51387(18) 1.36992(9)
O9 O -0.6749(2) 0.3172(2) 1.35672(14)
O10 O -1.31796(18) 0.52094(18) 1.30297(9)
O11 O -1.12531(18) 0.32535(18) 1.29122(9)
O12 O -1.1028(2) 0.97494(19) 1.33498(9)
O13 O -1.3225(2) 0.9451(2) 1.37630(11)
O14 O -1.1405(3) 0.9178(2) 1.43734(9)
O15 O -1.38479(19) 0.28310(19) 1.33549(9)
H31 H -1.451(3) 0.260(3) 1.3335(15)
O16 O -1.05615(18) 0.11797(17) 1.21503(8)
H32 H -1.002(3) 0.154(3) 1.2210(14)
O17 O -2.0282(2) 0.2986(2) 1.11447(11)
H33 H -2.100(3) 0.369(2) 1.1222(17)
H34 H -1.969(3) 0.303(4) 1.1343(15)
N1 N -0.2816(2) 0.3776(2) 1.42691(9)
N2 N -0.4943(2) 0.6125(2) 1.43305(9)
N3 N -0.8155(2) 0.9361(2) 1.27192(10)
N4 N -0.8525(2) 0.7335(2) 1.22698(10)
N5 N -2.2050(2) 0.1468(2) 1.08836(10)
N6 N -1.9777(2) -0.0776(2) 1.08019(10)
Cu1_2 Cu -1.45347(3) 0.44421(3) 1.383375(14)
Cu3_2 Cu -0.98514(3) -0.07024(3) 1.242370(14)
Cu4_2 Cu -1.01428(3) 0.10843(3) 1.112320(14)
O1_2 O -1.14373(18) 0.90646(18) 1.21376(9)
O10_2 O -0.31796(18) 0.52094(18) 1.30297(9)
O15_2 O -0.38479(19) 0.28310(19) 1.33549(9)
H31_2 H -0.451(3) 0.260(3) 1.3335(15)
O16_2 O -1.05615(18) 1.11797(17) 1.21503(8)
O16_3 O -2.05615(18) 0.11797(17) 1.21503(8)
H32_2 H -1.002(3) 1.154(3) 1.2210(14)
H32_3 H -2.002(3) 0.154(3) 1.2210(14)
loop_
_geom_bond_atom_site_label_1
_geom_bond_atom_site_label_2
_geom_bond_site_symmetry_1
_geom_bond_site_symmetry_2
Cu1 O8 1_555 1_555
Cu2 O2 1_555 1_555
Cu3 O12 1_555 1_555
Cu4 O3 1_555 1_555
S1 C5 1_555 1_555
S2 C13 1_555 1_555
C1 C2 1_555 1_555
C2 H1 1_555 1_555
C3 C2 1_555 1_555
C4 C3 1_555 1_555
H2 C4 1_555 1_555
C5 C4 1_555 1_555
C6 C1 1_555 1_555
H3 C6 1_555 1_555
C7 C1 1_555 1_555
C8 C3 1_555 1_555
C9 C10 1_555 1_555
C10 H4 1_555 1_555
C11 C10 1_555 1_555
C12 C11 1_555 1_555
H5 C12 1_555 1_555
C13 C12 1_555 1_555
C14 C9 1_555 1_555
H6 C14 1_555 1_555
C15 C9 1_555 1_555
C16 C11 1_555 1_555
C17 H7 1_555 1_555
C18 C17 1_555 1_555
H8 C18 1_555 1_555
C19 C18 1_555 1_555
H9 C19 1_555 1_555
C20 C19 1_555 1_555
H10 C20 1_555 1_555
C21 C20 1_555 1_555
C22 C21 1_555 1_555
C23 C22 1_555 1_555
H11 C23 1_555 1_555
C24 C23 1_555 1_555
H12 C24 1_555 1_555
C25 C24 1_555 1_555
H13 C25 1_555 1_555
C26 C25 1_555 1_555
H14 C26 1_555 1_555
C27 H15 1_555 1_555
C28 C27 1_555 1_555
H16 C28 1_555 1_555
C29 C28 1_555 1_555
H17 C29 1_555 1_555
C30 C29 1_555 1_555
H18 C30 1_555 1_555
C31 C30 1_555 1_555
C32 C31 1_555 1_555
C33 C32 1_555 1_555
H19 C33 1_555 1_555
C34 C33 1_555 1_555
H20 C34 1_555 1_555
C35 C34 1_555 1_555
H21 C35 1_555 1_555
C36 C35 1_555 1_555
H22 C36 1_555 1_555
C37 H23 1_555 1_555
C38 C37 1_555 1_555
H24 C38 1_555 1_555
C39 C38 1_555 1_555
H25 C39 1_555 1_555
C40 C39 1_555 1_555
H26 C40 1_555 1_555
C41 C40 1_555 1_555
C42 C41 1_555 1_555
C43 C42 1_555 1_555
H27 C43 1_555 1_555
C44 C43 1_555 1_555
H28 C44 1_555 1_555
C45 C44 1_555 1_555
H29 C45 1_555 1_555
C46 C45 1_555 1_555
H30 C46 1_555 1_555
O1 C7 1_555 1_555
O2 C7 1_555 1_555
O3 C8 1_555 1_555
O4 C8 1_555 1_555
O5 S1 1_555 1_555
O6 S1 1_555 1_555
O7 S1 1_555 1_555
O8 C15 1_555 1_555
O9 C15 1_555 1_555
O10 C16 1_555 1_555
O11 Cu2 1_555 1_555
O12 S2 1_555 1_555
O13 S2 1_555 1_555
O14 S2 1_555 1_555
O15 Cu2 1_555 1_555
H31 O15 1_555 1_555
O16 Cu2 1_555 1_555
H32 O16 1_555 1_555
O17 Cu4 1_555 1_555
H33 O17 1_555 1_555
H34 O17 1_555 1_555
N1 Cu1 1_555 1_555
N2 Cu1 1_555 1_555
N3 Cu3 1_555 1_555
N4 Cu3 1_555 1_555
N5 Cu4 1_555 1_555
N6 Cu4 1_555 1_555
Cu1_2 O10 1_555 1_555
Cu3_2 O1 1_555 1_555
Cu4_2 O16 1_555 1_555
O1_2 Cu3 1_555 1_555
O10_2 Cu1 1_555 1_555
O15_2 Cu1 1_555 1_555
H31_2 O15_2 1_555 1_555
O16_2 Cu3 1_555 1_555
O16_3 Cu4 1_555 1_555
H32_2 O16_2 1_555 1_555
H32_3 O16_3 1_555 1_555
C5 C6 1_555 1_555
C13 C14 1_555 1_555
C16 O11 1_555 1_555
C17 N1 1_555 1_555
C21 N1 1_555 1_555
C22 N2 1_555 1_555
C26 N2 1_555 1_555
C27 N3 1_555 1_555
C31 N3 1_555 1_555
C32 N4 1_555 1_555
C36 N4 1_555 1_555
C37 N5 1_555 1_555
C41 N5 1_555 1_555
C42 N6 1_555 1_555
C46 N6 1_555 1_555
O15 Cu1_2 1_555 1_555
O16 Cu3_2 1_555 1_555

#END
