
#######################################################################
#
#                 Cambridge Crystallographic Data Centre
#                                CCDC 
#
#######################################################################
#
# If this CIF has been generated from an entry in the Cambridge 
# Structural Database, then it will include bibliographic, chemical, 
# crystal, experimental, refinement or atomic coordinate data resulting 
# from the CCDC's data processing and validation procedures.
#
#######################################################################

data_GIKPOH
_symmetry_cell_setting           monoclinic
_symmetry_space_group_name_H-M   'P 21/c'
_symmetry_Int_Tables_number      14
_space_group_name_Hall           '-P 2ybc'
loop_
_symmetry_equiv_pos_site_id
_symmetry_equiv_pos_as_xyz
1 x,y,z
2 -x,1/2+y,1/2-z
3 -x,-y,-z
4 x,1/2-y,1/2+z
_cell_length_a                   17.687(3)
_cell_length_b                   12.908(2)
_cell_length_c                   13.411(2)
_cell_angle_alpha                90
_cell_angle_beta                 111.402(2)
_cell_angle_gamma                90
_cell_volume                     2850.65
loop_
_atom_site_label
_atom_site_type_symbol
_atom_site_fract_x
_atom_site_fract_y
_atom_site_fract_z
C1 C -0.0852(17) -0.200(2) 0.0521(15)
H1 H -0.0975 -0.2702 0.0630
H2 H -0.0399 -0.1978 0.0291
H3 H -0.1316 -0.1684 -0.0016
C2 C 0.6069(5) 0.2287(6) 0.1508(7)
C3 C 0.0565(6) -0.2431(7) 0.2353(9)
C4 C 0.0573(12) -0.159(4) 0.1215(13)
H4 H 0.0335 -0.1106 0.0639
H5 H 0.0437 -0.2281 0.0957
H6 H 0.1152 -0.1505 0.1492
N1 N 0.3113(4) 0.6177(4) 0.5423(5)
Co1 Co 0.29055(6) -0.25493(7) 0.43820(9)
N2 N 0.3185(4) 0.2477(4) 0.5442(5)
C5 C 0.4602(4) 0.2393(5) 0.3444(6)
N3 N 0.2742(4) -0.1187(4) 0.5167(5)
C6 C 0.3071(5) 0.4347(6) 0.6520(6)
H7 H 0.3059 0.3742 0.6890
C7 C 0.3324(5) 0.1577(5) 0.5028(6)
C8 C 0.4112(5) 0.2436(5) 0.4108(6)
C9 C 0.3301(4) 0.4323(5) 0.5625(6)
C10 C 0.3769(5) 0.1541(5) 0.4359(6)
H8 H 0.3840 0.0909 0.4072
C11 C 0.3969(5) 0.3363(5) 0.4559(6)
H9 H 0.4188 0.3981 0.4431
C12 C 0.5016(5) 0.1510(6) 0.3360(7)
H10 H 0.4977 0.0922 0.3740
C13 C 0.3076(5) -0.0312(5) 0.4960(6)
H11 H 0.3400 -0.0366 0.4551
C14 C 0.2967(5) 0.0644(6) 0.5314(6)
C15 C 0.3507(4) 0.3356(5) 0.5185(6)
O1 O 0.2011(4) -0.2155(6) 0.2889(6)
O2 O -0.1016(5) 0.0243(5) 0.0766(6)
H12 H -0.1008 0.0833 0.0995
C16 C 0.4656(5) 0.3254(6) 0.2826(7)
H13 H 0.4380 0.3859 0.2854
C17 C 0.2861(5) 0.5293(6) 0.6844(7)
H14 H 0.2691 0.5327 0.7422
C18 C 0.2284(5) -0.1105(6) 0.5773(7)
H15 H 0.2052 -0.1700 0.5929
C19 C 0.2488(6) 0.0688(7) 0.5938(8)
H16 H 0.2401 0.1325 0.6201
C20 C 0.2148(6) -0.0171(6) 0.6171(8)
H17 H 0.1830 -0.0132 0.6590
O3 O 0.1605(4) -0.2908(5) 0.4030(6)
C21 C 0.1459(6) -0.2525(6) 0.3154(9)
C22 C -0.0655(6) -0.1432(7) 0.1507(8)
C23 C -0.1078(6) -0.0414(8) 0.1461(8)
O4 O -0.1430(7) -0.0199(8) 0.2012(9)
C24 C 0.0591(8) -0.0563(9) 0.2905(11)
H18 H 0.1105 -0.0329 0.2900
H19 H 0.0663 -0.0842 0.3597
H20 H 0.0220 0.0010 0.2754
C25 C 0.5528(5) 0.2340(5) 0.2127(7)
C26 C 0.5105(4) 0.3217(6) 0.2190(7)
H21 H 0.5125 0.3797 0.1789
C27 C 0.2908(5) 0.6177(6) 0.6297(7)
H22 H 0.2792 0.6808 0.6544
C28 C 0.5489(5) 0.1466(6) 0.2731(7)
H23 H 0.5775 0.0867 0.2709
C29 C 0.3314(5) 0.5268(5) 0.5120(7)
H24 H 0.3475 0.5261 0.4533
C30 C -0.0129(15) -0.257(3) 0.269(3)
H25 H -0.0262 -0.3297 0.2598
H26 H 0.0075 -0.2433 0.3450
O5 O 0.6111(3) 0.3042(4) 0.0919(4)
O6 O 0.6522(3) 0.1517(4) 0.1596(5)
C31 C 0.0258(11) -0.1381(14) 0.2074(14)
C32 C -0.090(2) -0.202(2) 0.2248(19)
H27 H -0.1356 -0.2476 0.1897
H28 H -0.1011 -0.1589 0.2773
N1_2 N 0.3113(4) -0.3823(4) 0.5423(5)
Co1_2 Co 0.29055(6) 0.74507(7) 0.43820(9)
Co1A Co 0.70945(6) 0.24507(7) 0.06180(9)
O5A O 0.3889(3) -0.1958(4) 0.4081(4)
O6A O 0.3478(3) -0.3483(4) 0.3404(5)
loop_
_geom_bond_atom_site_label_1
_geom_bond_atom_site_label_2
_geom_bond_site_symmetry_1
_geom_bond_site_symmetry_2
C1 H1 1_555 1_555
H2 C1 1_555 1_555
H3 C1 1_555 1_555
C2 C25 1_555 1_555
C3 C21 1_555 1_555
C4 H4 1_555 1_555
H5 C4 1_555 1_555
H6 C4 1_555 1_555
N1 C27 1_555 1_555
Co1 N3 1_555 1_555
N2 C7 1_555 1_555
C5 C8 1_555 1_555
N3 C13 1_555 1_555
C6 H7 1_555 1_555
C7 C10 1_555 1_555
C8 C10 1_555 1_555
C9 C6 1_555 1_555
C10 H8 1_555 1_555
C11 C8 1_555 1_555
H9 C11 1_555 1_555
C12 C5 1_555 1_555
H10 C12 1_555 1_555
C13 H11 1_555 1_555
C14 C7 1_555 1_555
C15 N2 1_555 1_555
O1 Co1 1_555 1_555
O2 H12 1_555 1_555
C16 C5 1_555 1_555
H13 C16 1_555 1_555
C17 C6 1_555 1_555
H14 C17 1_555 1_555
C18 N3 1_555 1_555
H15 C18 1_555 1_555
C19 C14 1_555 1_555
H16 C19 1_555 1_555
C20 C18 1_555 1_555
H17 C20 1_555 1_555
O3 Co1 1_555 1_555
C21 O1 1_555 1_555
C22 C1 1_555 1_555
C23 O2 1_555 1_555
O4 C23 1_555 1_555
C24 H18 1_555 1_555
H19 C24 1_555 1_555
H20 C24 1_555 1_555
C25 C26 1_555 1_555
C26 C16 1_555 1_555
H21 C26 1_555 1_555
C27 C17 1_555 1_555
H22 C27 1_555 1_555
C28 C12 1_555 1_555
H23 C28 1_555 1_555
C29 N1 1_555 1_555
H24 C29 1_555 1_555
C30 C3 1_555 1_555
H25 C30 1_555 1_555
H26 C30 1_555 1_555
O5 C2 1_555 1_555
O6 C2 1_555 1_555
C31 C3 1_555 1_555
C32 C22 1_555 1_555
H27 C32 1_555 1_555
H28 C32 1_555 1_555
N1_2 Co1 1_555 1_555
Co1_2 N1 1_555 1_555
Co1A O5 1_555 1_555
O5A Co1 1_555 1_555
O6A Co1 1_555 1_555
C4 C31 1_555 1_555
C9 C15 1_555 1_555
C9 C29 1_555 1_555
C11 C15 1_555 1_555
C13 C14 1_555 1_555
C19 C20 1_555 1_555
O3 C21 1_555 1_555
C22 C23 1_555 1_555
C22 C31 1_555 1_555
C24 C31 1_555 1_555
C25 C28 1_555 1_555
C30 C32 1_555 1_555
O6 Co1A 1_555 1_555

#END
