
#######################################################################
#
#                 Cambridge Crystallographic Data Centre
#                                CCDC 
#
#######################################################################
#
# If this CIF has been generated from an entry in the Cambridge 
# Structural Database, then it will include bibliographic, chemical, 
# crystal, experimental, refinement or atomic coordinate data resulting 
# from the CCDC's data processing and validation procedures.
#
#######################################################################

data_GIKPUM
_symmetry_cell_setting           monoclinic
_symmetry_space_group_name_H-M   'P 21/c'
_symmetry_Int_Tables_number      14
_space_group_name_Hall           '-P 2ybc'
loop_
_symmetry_equiv_pos_site_id
_symmetry_equiv_pos_as_xyz
1 x,y,z
2 -x,1/2+y,1/2-z
3 -x,-y,-z
4 x,1/2-y,1/2+z
_cell_length_a                   5.9653(4)
_cell_length_b                   15.6521(18)
_cell_length_c                   13.1982(16)
_cell_angle_alpha                90
_cell_angle_beta                 99.983(3)
_cell_angle_gamma                90
_cell_volume                     1213.65
loop_
_atom_site_label
_atom_site_type_symbol
_atom_site_fract_x
_atom_site_fract_y
_atom_site_fract_z
O1 O -0.2456(4) 0.42326(16) 0.40840(16)
O2 O 0.1289(4) 0.35637(18) 0.42024(18)
N1 N 0.0183(5) 0.45784(19) 0.2811(2)
N2 N -0.4724(5) 0.1023(2) 0.0893(2)
C1 C -0.3075(9) 0.6458(3) -0.0107(3)
H1 H -0.4695 0.6503 -0.0315
H2 H -0.241 0.6255 -0.0674
H3 H -0.2457 0.7009 0.0104
H4 H -0.6478 0.1108 0.0796
H5 H -0.4116 0.0982 0.056
Ag1 Ag -0.61486(4) 0.476990(19) 0.29653(2)
S1 S -0.07069(13) 0.38961(5) 0.35454(6)
C2 C -0.1314(6) 0.5011(2) 0.2077(2)
N3 N -0.3547(5) 0.4974(2) 0.1951(2)
C3 C -0.0808(6) 0.2724(2) 0.2021(3)
H6 H 0.0601 0.2949 0.1954
C4 C -0.4972(6) 0.2055(2) 0.2226(3)
H7 H -0.6372 0.1825 0.2299
C5 C -0.4084(6) 0.2724(2) 0.2856(3)
H8 H -0.4883 0.2945 0.3342
O3 O -0.4361(4) 0.55141(18) 0.11021(18)
C6 C -0.1705(6) 0.2063(3) 0.1401(3)
H9 H -0.0898 0.1841 0.0918
C7 C -0.2554(7) 0.5848(2) 0.0767(3)
C8 C -0.1984(5) 0.3061(2) 0.2750(2)
C9 C -0.3829(6) 0.1720(2) 0.1490(2)
C10 C -0.0633(7) 0.5566(3) 0.1337(3)
H10 H 0.0847 0.5705 0.1265
N1_2 N -0.9817(5) 0.45784(19) 0.2811(2)
N2A N -0.5276(5) 0.6023(2) 0.4107(2)
H4A H -0.3522 0.6108 0.4204
H5A H -0.5884 0.5982 0.444
Ag1_2 Ag 0.38514(4) 0.476990(19) 0.29653(2)
Ag1A Ag -0.38514(4) -0.023010(19) 0.20347(2)
loop_
_geom_bond_atom_site_label_1
_geom_bond_atom_site_label_2
_geom_bond_site_symmetry_1
_geom_bond_site_symmetry_2
O1 Ag1 1_555 1_555
O2 S1 1_555 1_555
N1 S1 1_555 1_555
N2 H4 1_555 1_555
C1 H1 1_555 1_555
H2 C1 1_555 1_555
H3 C1 1_555 1_555
H5 N2 1_555 1_555
Ag1 N3 1_555 1_555
S1 O1 1_555 1_555
C2 N1 1_555 1_555
N3 C2 1_555 1_555
C3 H6 1_555 1_555
C4 H7 1_555 1_555
C5 C4 1_555 1_555
H8 C5 1_555 1_555
O3 N3 1_555 1_555
C6 C3 1_555 1_555
H9 C6 1_555 1_555
C7 C1 1_555 1_555
C8 S1 1_555 1_555
C9 N2 1_555 1_555
C10 C2 1_555 1_555
H10 C10 1_555 1_555
N1_2 Ag1 1_555 1_555
N2A Ag1 1_555 1_555
H4A N2A 1_555 1_555
H5A N2A 1_555 1_555
Ag1_2 N1 1_555 1_555
Ag1A N2 1_555 1_555
C3 C8 1_555 1_555
C4 C9 1_555 1_555
C5 C8 1_555 1_555
O3 C7 1_555 1_555
C6 C9 1_555 1_555
C7 C10 1_555 1_555

#END
