
#######################################################################
#
#                 Cambridge Crystallographic Data Centre
#                                CCDC 
#
#######################################################################
#
# If this CIF has been generated from an entry in the Cambridge 
# Structural Database, then it will include bibliographic, chemical, 
# crystal, experimental, refinement or atomic coordinate data resulting 
# from the CCDC's data processing and validation procedures.
#
#######################################################################

data_GIKPEW
_symmetry_cell_setting           monoclinic
_symmetry_space_group_name_H-M   'P 21/c'
_symmetry_Int_Tables_number      14
_space_group_name_Hall           '-P 2ybc'
loop_
_symmetry_equiv_pos_site_id
_symmetry_equiv_pos_as_xyz
1 x,y,z
2 -x,1/2+y,1/2-z
3 -x,-y,-z
4 x,1/2-y,1/2+z
_cell_length_a                   5.6079(18)
_cell_length_b                   14.645(5)
_cell_length_c                   12.832(4)
_cell_angle_alpha                90
_cell_angle_beta                 107.369(12)
_cell_angle_gamma                90
_cell_volume                     1005.81
loop_
_atom_site_label
_atom_site_type_symbol
_atom_site_fract_x
_atom_site_fract_y
_atom_site_fract_z
C1 C 0.5710(10) -0.0288(4) 0.2376(5)
C2 C 0.3625(10) -0.0527(4) 0.1338(5)
H1 H 0.2039 -0.0452 0.1487
H2 H 0.3669 -0.0087 0.0780
C3 C 0.3676(11) -0.1469(4) 0.0874(5)
H3 H 0.3815 -0.1919 0.1444
H4 H 0.5133 -0.1526 0.0619
C4 C 0.1347(11) -0.1659(4) -0.0064(5)
H5 H -0.0116 -0.1511 0.0159
H6 H 0.1339 -0.1269 -0.0676
Mn1 Mn 1.09928(16) 0.02453(6) 0.38719(8)
N1 N 0.1206(10) -0.2615(4) -0.0411(4)
H7 H 0.1508 -0.3020 0.0226
H8 H 0.2318 -0.2810 -0.0634
H9 H -0.0452 -0.2740 -0.0864
O1 O 0.7966(7) 0.1223(3) 0.3463(4)
O2 O 0.3279(7) 0.1066(3) 0.3154(4)
O3 O 0.4972(8) 0.1409(3) 0.1588(4)
H10 H 0.4690 0.1968 0.1590
O4 O 0.8059(7) -0.0588(3) 0.4461(3)
O5 O 0.3339(7) -0.0848(3) 0.3876(4)
O6 O 0.6240(8) -0.1955(3) 0.3380(4)
O7 O 0.8165(7) -0.0380(3) 0.2241(4)
H11 H 0.8649 -0.0939 0.2071
P1 P 0.5440(3) 0.09286(10) 0.27120(14)
P2 P 0.5767(3) -0.09715(11) 0.36078(13)
Mn1B Mn 0.90072(16) -0.02453(6) 0.61281(8)
Mn1_2 Mn 0.09928(16) 0.02453(6) 0.38719(8)
O2_2 O 1.3279(7) 0.1066(3) 0.3154(4)
O4B O 1.1941(7) 0.0588(3) 0.5539(3)
O5_2 O 1.3339(7) -0.0848(3) 0.3876(4)
O8 O 0.9451(9) -0.2764(3) 0.7022(5)
H12 H 0.8344 -0.2334 0.7138
H13 H 1.0724 -0.2374 0.6978
loop_
_geom_bond_atom_site_label_1
_geom_bond_atom_site_label_2
_geom_bond_site_symmetry_1
_geom_bond_site_symmetry_2
C1 C2 1_555 1_555
C2 H1 1_555 1_555
H2 C2 1_555 1_555
C3 C2 1_555 1_555
H3 C3 1_555 1_555
H4 C3 1_555 1_555
C4 C3 1_555 1_555
H5 C4 1_555 1_555
H6 C4 1_555 1_555
Mn1 O1 1_555 1_555
N1 C4 1_555 1_555
H7 N1 1_555 1_555
H8 N1 1_555 1_555
H9 N1 1_555 1_555
O1 P1 1_555 1_555
O2 P1 1_555 1_555
O3 H10 1_555 1_555
O4 Mn1 1_555 1_555
O5 P2 1_555 1_555
O6 P2 1_555 1_555
O7 C1 1_555 1_555
H11 O7 1_555 1_555
O8 H12 1_555 1_555
H13 O8 1_555 1_555
P1 C1 1_555 1_555
P2 C1 1_555 1_555
Mn1B O4 1_555 1_555
Mn1_2 O2 1_555 1_555
O2_2 Mn1 1_555 1_555
O4B Mn1 1_555 1_555
O5_2 Mn1 1_555 1_555
Mn1 O7 1_555 1_555
O3 P1 1_555 1_555
O4 P2 1_555 1_555
O5 Mn1_2 1_555 1_555
Mn1B O4B 1_555 1_555

#END
