
#######################################################################
#
#                 Cambridge Crystallographic Data Centre
#                                CCDC 
#
#######################################################################
#
# If this CIF has been generated from an entry in the Cambridge 
# Structural Database, then it will include bibliographic, chemical, 
# crystal, experimental, refinement or atomic coordinate data resulting 
# from the CCDC's data processing and validation procedures.
#
#######################################################################

data_GIKQEY
_symmetry_cell_setting           monoclinic
_symmetry_space_group_name_H-M   'P 21'
_symmetry_Int_Tables_number      4
_space_group_name_Hall           'P 2yb'
loop_
_symmetry_equiv_pos_site_id
_symmetry_equiv_pos_as_xyz
1 x,y,z
2 -x,1/2+y,-z
_cell_length_a                   6.639(5)
_cell_length_b                   18.167(13)
_cell_length_c                   9.773(7)
_cell_angle_alpha                90
_cell_angle_beta                 96.891(8)
_cell_angle_gamma                90
_cell_volume                     1170.21
loop_
_atom_site_label
_atom_site_type_symbol
_atom_site_fract_x
_atom_site_fract_y
_atom_site_fract_z
Cd1 Cd 0.34487(6) 0.25733(9) 0.81175(4)
C1 C 0.1281(8) 0.2581(10) 1.0278(6)
C2 C 0.0252(8) 0.2544(8) 1.1597(5)
H1 H -0.0651 0.2115 1.1512
C3 C 0.1875(12) 0.2402(5) 1.2865(7)
C4 C 0.0531(10) 0.2585(11) 1.4059(6)
C5 C -0.077(2) 0.3138(8) 1.3491(8)
H2 H -0.0282 0.3605 1.3880
H3 H -0.2100 0.3054 1.3783
C6 C -0.1038(13) 0.3212(5) 1.1908(8)
H4 H -0.0488 0.3670 1.1605
H5 H -0.2443 0.3161 1.1514
C7 C 0.1592(10) 0.2540(10) 1.5519(6)
C8 C -0.101(2) 0.1880(9) 1.3937(11)
H6 H -0.0397 0.1480 1.4478
H7 H -0.1275 0.1731 1.2990
H8 H -0.2259 0.2016 1.4271
C9 C 0.3478(14) 0.3017(7) 1.2933(9)
H9 H 0.4404 0.2963 1.3761
H10 H 0.2820 0.3487 1.2935
H11 H 0.4211 0.2983 1.2147
C10 C 0.2922(19) 0.1644(6) 1.2920(11)
H12 H 0.3648 0.1589 1.2134
H13 H 0.1917 0.1263 1.2912
H14 H 0.3853 0.1607 1.3748
C11 C 0.6955(14) 0.4664(5) 0.8872(9)
H15 H 0.7221 0.5123 0.9274
C12 C 0.745(2) 0.3651(7) 0.7727(15)
H16 H 0.8088 0.3294 0.7247
C13 C 1.0050(19) 0.4605(7) 0.7633(11)
H17 H 1.0363 0.5042 0.8189
H18 H 1.1147 0.4256 0.7854
C14 C 0.9948(11) 0.4813(5) 0.6124(5)
C15 C 0.8131(10) 0.4983(5) 0.5326(6)
H19 H 0.6911 0.4940 0.5699
C16 C 0.8137(9) 0.5216(5) 0.3972(6)
H20 H 0.6921 0.5330 0.3439
C17 C 0.9960(10) 0.5279(4) 0.3416(5)
C18 C 1.1777(9) 0.5109(5) 0.4213(6)
H21 H 1.2996 0.5152 0.3840
C19 C 1.1771(10) 0.4876(5) 0.5567(5)
H22 H 1.2986 0.4762 0.6100
C20 C 0.9905(19) 0.5522(7) 0.1901(10)
H23 H 0.9562 0.5098 0.1316
H24 H 0.8828 0.5881 0.1703
C21 C 1.2884(17) 0.5570(6) 0.0660(10)
H25 H 1.2717 0.5134 0.0160
C22 C 1.268(2) 0.6511(7) 0.2076(13)
H26 H 1.2266 0.6791 0.2788
N1 N 0.5574(15) 0.3567(5) 0.8252(9)
N2 N 0.8114(13) 0.4272(6) 0.8009(7)
N3 N 0.5453(19) 0.4241(6) 0.8974(10)
N4 N 1.1739(15) 0.5832(5) 0.1545(8)
N5 N 1.4151(13) 0.6664(4) 0.1431(8)
N6 N 1.4334(16) 0.6067(5) 0.0639(10)
O1 O 0.1646(15) 0.1985(6) 0.9746(8)
O2 O 0.1797(18) 0.3192(6) 0.9776(8)
O3 O 0.3394(11) 0.2355(6) 1.5816(6)
O4 O 0.0646(9) 0.2734(8) 1.6423(5)
Cd1_2 Cd 0.34487(6) 0.25733(9) 1.81175(4)
Cd1A Cd 1.65513(6) 0.75733(9) 0.18825(4)
N5A N 0.5849(13) 0.1664(4) 0.8569(8)
O3_2 O 0.3394(11) 0.2355(6) 0.5816(6)
O4_2 O 0.0646(9) 0.2734(8) 0.6423(5)
loop_
_geom_bond_atom_site_label_1
_geom_bond_atom_site_label_2
_geom_bond_site_symmetry_1
_geom_bond_site_symmetry_2
Cd1 N1 1_555 1_555
C1 C2 1_555 1_555
C2 H1 1_555 1_555
C3 C2 1_555 1_555
C4 C3 1_555 1_555
C5 C4 1_555 1_555
H2 C5 1_555 1_555
H3 C5 1_555 1_555
C6 C2 1_555 1_555
H4 C6 1_555 1_555
H5 C6 1_555 1_555
C7 C4 1_555 1_555
C8 C4 1_555 1_555
H6 C8 1_555 1_555
H7 C8 1_555 1_555
H8 C8 1_555 1_555
C9 C3 1_555 1_555
H9 C9 1_555 1_555
H10 C9 1_555 1_555
H11 C9 1_555 1_555
C10 C3 1_555 1_555
H12 C10 1_555 1_555
H13 C10 1_555 1_555
H14 C10 1_555 1_555
C11 H15 1_555 1_555
C12 H16 1_555 1_555
C13 H17 1_555 1_555
H18 C13 1_555 1_555
C14 C13 1_555 1_555
C15 C14 1_555 1_555
H19 C15 1_555 1_555
C16 C15 1_555 1_555
H20 C16 1_555 1_555
C17 C16 1_555 1_555
C18 C17 1_555 1_555
H21 C18 1_555 1_555
C19 C14 1_555 1_555
H22 C19 1_555 1_555
C20 C17 1_555 1_555
H23 C20 1_555 1_555
H24 C20 1_555 1_555
C21 H25 1_555 1_555
C22 H26 1_555 1_555
N1 C12 1_555 1_555
N2 C11 1_555 1_555
N3 C11 1_555 1_555
N4 C20 1_555 1_555
N5 C22 1_555 1_555
N6 C21 1_555 1_555
O1 Cd1 1_555 1_555
O2 Cd1 1_555 1_555
O3 C7 1_555 1_555
O4 C7 1_555 1_555
Cd1_2 O3 1_555 1_555
Cd1A N5 1_555 1_555
N5A Cd1 1_555 1_555
O3_2 Cd1 1_555 1_555
O4_2 Cd1 1_555 1_555
C1 O1 1_555 1_555
C1 O2 1_555 1_555
C5 C6 1_555 1_555
C12 N2 1_555 1_555
C13 N2 1_555 1_555
C18 C19 1_555 1_555
C21 N4 1_555 1_555
C22 N4 1_555 1_555
N1 N3 1_555 1_555
N5 N6 1_555 1_555
O4 Cd1_2 1_555 1_555

#END
