
#######################################################################
#
#                 Cambridge Crystallographic Data Centre
#                                CCDC 
#
#######################################################################
#
# If this CIF has been generated from an entry in the Cambridge 
# Structural Database, then it will include bibliographic, chemical, 
# crystal, experimental, refinement or atomic coordinate data resulting 
# from the CCDC's data processing and validation procedures.
#
#######################################################################

data_GIKQUO
_symmetry_cell_setting           triclinic
_symmetry_space_group_name_H-M   'P -1'
_symmetry_Int_Tables_number      2
_space_group_name_Hall           '-P 1'
loop_
_symmetry_equiv_pos_site_id
_symmetry_equiv_pos_as_xyz
1 x,y,z
2 -x,-y,-z
_cell_length_a                   9.479(4)
_cell_length_b                   11.835(5)
_cell_length_c                   12.798(5)
_cell_angle_alpha                67.543(11)
_cell_angle_beta                 76.936(15)
_cell_angle_gamma                74.777(15)
_cell_volume                     1267.5
loop_
_atom_site_label
_atom_site_type_symbol
_atom_site_fract_x
_atom_site_fract_y
_atom_site_fract_z
Ni1 Ni 0.49564(5) 0.61428(4) 0.77085(4)
Cl1 Cl 0.56230(10) 0.88213(9) 0.91648(9)
Cl2 Cl 1.52836(12) 1.21542(10) 0.74004(10)
O1 O 0.6498(3) 0.6850(2) 0.7956(2)
O2 O 0.7818(3) 0.5376(2) 0.9287(2)
O3 O 1.4783(3) 1.4066(2) 0.8759(2)
O4 O 1.3287(3) 1.5432(2) 0.7564(2)
N1 N 1.0754(4) 1.0023(3) 0.8344(3)
N2 N 1.0109(4) 1.0919(3) 0.8641(3)
C1 C 0.7453(4) 0.6447(3) 0.8628(3)
C2 C 0.8252(4) 0.7445(3) 0.8562(3)
C3 C 0.7522(4) 0.8553(3) 0.8747(3)
C4 C 0.8284(4) 0.9438(3) 0.8676(3)
H1 H 0.7786 1.0173 0.8805
C5 C 0.9814(4) 0.9199(3) 0.8405(3)
C6 C 1.0565(4) 0.8121(4) 0.8204(3)
H2 H 1.1587 0.7991 0.8010
C7 C 0.9806(4) 0.7231(4) 0.8290(3)
H3 H 1.0318 0.6495 0.8170
C8 C 1.3714(4) 1.4336(3) 0.8236(3)
C9 C 1.2823(4) 1.3387(3) 0.8371(3)
C10 C 1.3444(4) 1.2350(3) 0.8038(3)
C11 C 1.2617(4) 1.1503(3) 0.8136(3)
H4 H 1.3056 1.0805 0.7927
C12 C 1.1123(4) 1.1706(3) 0.8550(3)
C13 C 1.0477(4) 1.2728(3) 0.8874(3)
H5 H 0.9475 1.2858 0.9152
C14 C 1.1320(4) 1.3568(3) 0.8785(3)
H6 H 1.0877 1.4258 0.9005
N3 N 0.6490(3) 0.5368(3) 0.6571(2)
N4 N 1.4151(3) -0.2121(3) 0.6541(2)
C15 C 0.8600(4) 0.3760(4) 0.6465(3)
H7 H 0.9300 0.3112 0.6852
C16 C 0.7558(4) 0.4450(4) 0.7045(3)
H8 H 0.7605 0.4263 0.7813
C17 C 0.6504(4) 0.5612(4) 0.5461(3)
H9 H 0.5778 0.6251 0.5098
C18 C 0.7519(4) 0.4981(4) 0.4816(3)
H10 H 0.7465 0.5204 0.4044
C19 C 0.8618(4) 0.4020(3) 0.5312(3)
C20 C 0.9752(4) 0.3320(3) 0.4627(3)
H11 H 1.0417 0.3866 0.4123
H12 H 0.9249 0.3132 0.4151
C21 C 1.0678(4) 0.2103(3) 0.5322(3)
H13 H 1.1249 0.2286 0.5758
H14 H 1.0025 0.1564 0.5858
C22 C 1.1725(4) 0.1423(3) 0.4557(3)
H15 H 1.1154 0.1279 0.4096
H16 H 1.2402 0.1951 0.4044
C23 C 1.2604(4) 0.0192(3) 0.5220(3)
C24 C 1.2535(4) -0.0923(3) 0.5135(3)
H17 H 1.1971 -0.0921 0.4626
C25 C 1.3295(4) -0.2036(3) 0.5798(3)
H18 H 1.3211 -0.2769 0.5727
C26 C 1.4263(4) -0.1041(3) 0.6599(3)
H19 H 1.4867 -0.1066 0.7092
C27 C 1.3530(4) 0.0103(3) 0.5968(3)
H20 H 1.3652 0.0823 0.6040
O5 O 0.3737(3) 0.6464(2) 0.9203(2)
H21 H 0.329(4) 0.587(3) 0.960(2)
H22 H 0.425(4) 0.652(3) 0.963(2)
Ni1_2 Ni 1.49564(5) -0.38572(4) 0.77085(4)
Ni1_3 Ni 1.49564(5) 1.61428(4) 0.77085(4)
O3_2 O 0.4783(3) 0.4066(2) 0.8759(2)
O4_2 O 0.3287(3) 0.5432(2) 0.7564(2)
N4_2 N 0.4151(3) 0.7879(3) 0.6541(2)
loop_
_geom_bond_atom_site_label_1
_geom_bond_atom_site_label_2
_geom_bond_site_symmetry_1
_geom_bond_site_symmetry_2
Ni1 O1 1_555 1_555
Cl1 C3 1_555 1_555
Cl2 C10 1_555 1_555
O1 C1 1_555 1_555
O2 C1 1_555 1_555
O3 C8 1_555 1_555
O4 C8 1_555 1_555
N1 N2 1_555 1_555
N2 C12 1_555 1_555
C1 C2 1_555 1_555
C2 C3 1_555 1_555
C3 C4 1_555 1_555
C4 H1 1_555 1_555
C5 N1 1_555 1_555
C6 C5 1_555 1_555
H2 C6 1_555 1_555
C7 C2 1_555 1_555
H3 C7 1_555 1_555
C8 C9 1_555 1_555
C9 C10 1_555 1_555
C10 C11 1_555 1_555
C11 H4 1_555 1_555
C12 C11 1_555 1_555
C13 C12 1_555 1_555
H5 C13 1_555 1_555
C14 C9 1_555 1_555
H6 C14 1_555 1_555
N3 Ni1 1_555 1_555
N4 C25 1_555 1_555
C15 H7 1_555 1_555
C16 N3 1_555 1_555
H8 C16 1_555 1_555
C17 N3 1_555 1_555
H9 C17 1_555 1_555
C18 C17 1_555 1_555
H10 C18 1_555 1_555
C19 C15 1_555 1_555
C20 C19 1_555 1_555
H11 C20 1_555 1_555
H12 C20 1_555 1_555
C21 C20 1_555 1_555
H13 C21 1_555 1_555
H14 C21 1_555 1_555
C22 C21 1_555 1_555
H15 C22 1_555 1_555
H16 C22 1_555 1_555
C23 C22 1_555 1_555
C24 C23 1_555 1_555
H17 C24 1_555 1_555
C25 C24 1_555 1_555
H18 C25 1_555 1_555
C26 N4 1_555 1_555
H19 C26 1_555 1_555
C27 C23 1_555 1_555
H20 C27 1_555 1_555
O5 Ni1 1_555 1_555
H21 O5 1_555 1_555
H22 O5 1_555 1_555
Ni1_2 N4 1_555 1_555
Ni1_3 O3 1_555 1_555
O3_2 Ni1 1_555 1_555
O4_2 Ni1 1_555 1_555
N4_2 Ni1 1_555 1_555
O4 Ni1_3 1_555 1_555
C4 C5 1_555 1_555
C6 C7 1_555 1_555
C13 C14 1_555 1_555
C15 C16 1_555 1_555
C18 C19 1_555 1_555
C26 C27 1_555 1_555

#END
