
#######################################################################
#
#                 Cambridge Crystallographic Data Centre
#                                CCDC 
#
#######################################################################
#
# If this CIF has been generated from an entry in the Cambridge 
# Structural Database, then it will include bibliographic, chemical, 
# crystal, experimental, refinement or atomic coordinate data resulting 
# from the CCDC's data processing and validation procedures.
#
#######################################################################

data_GIKQOI
_symmetry_cell_setting           triclinic
_symmetry_space_group_name_H-M   'P -1'
_symmetry_Int_Tables_number      2
_space_group_name_Hall           '-P 1'
loop_
_symmetry_equiv_pos_site_id
_symmetry_equiv_pos_as_xyz
1 x,y,z
2 -x,-y,-z
_cell_length_a                   9.503(3)
_cell_length_b                   11.880(3)
_cell_length_c                   12.818(3)
_cell_angle_alpha                67.556(9)
_cell_angle_beta                 76.977(9)
_cell_angle_gamma                74.837(8)
_cell_volume                     1278.08
loop_
_atom_site_label
_atom_site_type_symbol
_atom_site_fract_x
_atom_site_fract_y
_atom_site_fract_z
Co1 Co 0.49476(5) 0.11408(4) 0.27270(4)
Cl1 Cl 0.56350(9) 0.38217(8) 0.41592(8)
Cl2 Cl 1.52565(11) 0.71690(9) 0.23942(9)
O1 O 0.6490(2) 0.18485(19) 0.29811(19)
O2 O 0.7844(2) 0.0396(2) 0.4275(2)
O3 O 1.3243(2) 1.04366(19) 0.25681(19)
O4 O 1.4744(2) 0.9075(2) 0.37323(19)
N1 N 1.0753(3) 0.5022(3) 0.3351(3)
N2 N 1.0115(3) 0.5903(3) 0.3634(2)
C1 C 0.7455(3) 0.1457(3) 0.3641(3)
C2 C 0.8242(3) 0.2454(3) 0.3569(3)
C3 C 0.7512(3) 0.3555(3) 0.3752(3)
C4 C 0.8287(4) 0.4449(3) 0.3677(3)
H1 H 0.767(4) 0.509(3) 0.383(3)
C5 C 0.9817(4) 0.4204(3) 0.3403(3)
C6 C 1.0557(4) 0.3128(3) 0.3211(3)
H2 H 1.1577 0.2992 0.3025
C7 C 0.9800(4) 0.2246(3) 0.3290(3)
H3 H 1.0309 0.1517 0.3162
C8 C 1.3671(4) 0.9345(3) 0.3224(3)
C9 C 1.2795(3) 0.8390(3) 0.3358(3)
C10 C 1.3427(4) 0.7355(3) 0.3025(3)
C11 C 1.2606(4) 0.6508(3) 0.3128(3)
H4 H 1.3045 0.5813 0.2921
C12 C 1.1112(4) 0.6705(3) 0.3548(3)
C13 C 1.0466(4) 0.7724(3) 0.3865(3)
H5 H 0.9468 0.7854 0.4145
C14 C 1.1310(4) 0.8557(3) 0.3767(3)
H6 H 1.0866 0.9246 0.3982
N3 N 0.4128(3) 0.2904(2) 0.1525(2)
N4 N -0.3462(3) 1.0355(2) 0.1561(2)
C15 C 0.3506(3) 0.5115(3) 0.0957(3)
H7 H 0.3623 0.5831 0.1035
C16 C 0.4232(3) 0.3981(3) 0.1580(3)
H8 H 0.4834 0.3956 0.2072
C17 C 0.3292(3) 0.2990(3) 0.0768(3)
H9 H 0.3225 0.2264 0.0682
C18 C 0.2536(4) 0.4097(3) 0.0117(3)
H10 H 0.1974 0.4100 -0.0393
C19 C 0.2594(3) 0.5204(3) 0.0206(3)
C20 C 0.1730(4) 0.6437(3) -0.0458(3)
H11 H 0.1164 0.6301 -0.0927
H12 H 0.2411 0.6961 -0.0962
C21 C 0.0684(3) 0.7109(3) 0.0306(3)
H13 H 0.0036 0.6569 0.0840
H14 H 0.1252 0.7291 0.0743
C22 C -0.0239(3) 0.8314(3) -0.0380(3)
H15 H 0.0420 0.8859 -0.0887
H16 H -0.0747 0.8126 -0.0852
C23 C -0.1363(3) 0.9009(3) 0.0308(3)
C24 C -0.1387(4) 0.8739(3) 0.1454(3)
H17 H -0.0697 0.8085 0.1840
C25 C -0.2422(4) 0.9426(3) 0.2041(3)
H18 H -0.2387 0.9226 0.2811
C26 C -0.3449(4) 1.0611(3) 0.0452(3)
H19 H -0.4166 1.1256 0.0089
C27 C -0.2437(4) 0.9978(3) -0.0195(3)
H20 H -0.2481 1.0207 -0.0968
O5 O 0.3735(3) 0.1427(3) 0.4264(2)
H21 H 0.326(5) 0.091(4) 0.459(4)
H22 H 0.411(5) 0.159(4) 0.457(4)
Co1_2 Co -0.50524(5) 1.11408(4) 0.27270(4)
Co1_3 Co 1.49476(5) 1.11408(4) 0.27270(4)
O3_2 O 0.3243(2) 0.04366(19) 0.25681(19)
O4_2 O 0.4744(2) -0.0925(2) 0.37323(19)
N4_2 N 0.6538(3) 0.0355(2) 0.1561(2)
loop_
_geom_bond_atom_site_label_1
_geom_bond_atom_site_label_2
_geom_bond_site_symmetry_1
_geom_bond_site_symmetry_2
Co1 O1 1_555 1_555
Cl1 C3 1_555 1_555
Cl2 C10 1_555 1_555
O1 C1 1_555 1_555
O2 C1 1_555 1_555
O3 C8 1_555 1_555
O4 C8 1_555 1_555
N1 N2 1_555 1_555
N2 C12 1_555 1_555
C1 C2 1_555 1_555
C2 C3 1_555 1_555
C3 C4 1_555 1_555
C4 H1 1_555 1_555
C5 N1 1_555 1_555
C6 C5 1_555 1_555
H2 C6 1_555 1_555
C7 C2 1_555 1_555
H3 C7 1_555 1_555
C8 C9 1_555 1_555
C9 C10 1_555 1_555
C10 C11 1_555 1_555
C11 H4 1_555 1_555
C12 C11 1_555 1_555
C13 C12 1_555 1_555
H5 C13 1_555 1_555
C14 C9 1_555 1_555
H6 C14 1_555 1_555
N3 Co1 1_555 1_555
N4 C25 1_555 1_555
C15 H7 1_555 1_555
C16 N3 1_555 1_555
H8 C16 1_555 1_555
C17 N3 1_555 1_555
H9 C17 1_555 1_555
C18 C17 1_555 1_555
H10 C18 1_555 1_555
C19 C15 1_555 1_555
C20 C19 1_555 1_555
H11 C20 1_555 1_555
H12 C20 1_555 1_555
C21 C20 1_555 1_555
H13 C21 1_555 1_555
H14 C21 1_555 1_555
C22 C21 1_555 1_555
H15 C22 1_555 1_555
H16 C22 1_555 1_555
C23 C22 1_555 1_555
C24 C23 1_555 1_555
H17 C24 1_555 1_555
C25 C24 1_555 1_555
H18 C25 1_555 1_555
C26 N4 1_555 1_555
H19 C26 1_555 1_555
C27 C23 1_555 1_555
H20 C27 1_555 1_555
O5 Co1 1_555 1_555
H21 O5 1_555 1_555
H22 O5 1_555 1_555
Co1_2 N4 1_555 1_555
Co1_3 O3 1_555 1_555
O3_2 Co1 1_555 1_555
O4_2 Co1 1_555 1_555
N4_2 Co1 1_555 1_555
O4 Co1_3 1_555 1_555
C4 C5 1_555 1_555
C6 C7 1_555 1_555
C13 C14 1_555 1_555
C15 C16 1_555 1_555
C18 C19 1_555 1_555
C26 C27 1_555 1_555

#END
