
#######################################################################
#
#                 Cambridge Crystallographic Data Centre
#                                CCDC 
#
#######################################################################
#
# If this CIF has been generated from an entry in the Cambridge 
# Structural Database, then it will include bibliographic, chemical, 
# crystal, experimental, refinement or atomic coordinate data resulting 
# from the CCDC's data processing and validation procedures.
#
#######################################################################

data_GIKQAU
_symmetry_cell_setting           monoclinic
_symmetry_space_group_name_H-M   'P 21/c'
_symmetry_Int_Tables_number      14
_space_group_name_Hall           '-P 2ybc'
loop_
_symmetry_equiv_pos_site_id
_symmetry_equiv_pos_as_xyz
1 x,y,z
2 -x,1/2+y,1/2-z
3 -x,-y,-z
4 x,1/2-y,1/2+z
_cell_length_a                   10.5112(15)
_cell_length_b                   14.073(2)
_cell_length_c                   13.283(2)
_cell_angle_alpha                90
_cell_angle_beta                 97.940(2)
_cell_angle_gamma                90
_cell_volume                     1946.04
loop_
_atom_site_label
_atom_site_type_symbol
_atom_site_fract_x
_atom_site_fract_y
_atom_site_fract_z
C1 C 0.5650(12) -0.1015(12) -0.0565(11)
H1 H 0.5517 -0.0898 -0.1261
C2 C 0.6574(13) -0.1005(12) 0.0942(12)
H2 H 0.7154 -0.0886 0.1523
C3 C 0.4973(19) -0.1941(16) 0.1776(13)
H3 H 0.5468 -0.2516 0.1939
H4 H 0.4088 -0.2128 0.1564
C4 C 0.503(2) -0.1339(16) 0.2739(14)
C5 C 0.423(2) -0.061(2) 0.2787(14)
H5 H 0.3695 -0.0432 0.2202
C6 C 0.418(2) -0.011(2) 0.3657(16)
H6 H 0.3560 0.0361 0.3658
C7 C 0.4997(14) -0.0282(12) 0.4530(11)
C8 C 0.587(2) -0.0991(17) 0.4434(18)
H7 H 0.6492 -0.1112 0.4986
C9 C 0.587(3) -0.1531(16) 0.3580(19)
H8 H 0.6454 -0.2029 0.3577
C10 C 0.9903(12) 0.0509(8) 0.1992(9)
C11 C 0.9652(12) 0.0835(8) 0.3029(8)
H9 H 0.8944 0.0467 0.3240
C12 C 1.0775(18) 0.0815(14) 0.3851(13)
H10 H 1.1563 0.0956 0.3578
H11 H 1.0856 0.0196 0.4174
C13 C 1.0480(18) 0.1625(12) 0.4656(14)
H12 H 1.0369 0.1342 0.5304
H13 H 1.1177 0.2081 0.4764
C14 C 0.9294(12) 0.2082(8) 0.4193(8)
C15 C 0.932(2) 0.1913(10) 0.3032(11)
C16 C 0.825(2) 0.107(5) 0.404(5)
H14 H 0.7919 0.0952 0.4662
H15 H 0.8723 0.0530 0.3858
H16 H 0.7554 0.1200 0.3508
C17 C 1.001(3) 0.2506(12) 0.2507(16)
H17 H 0.9687 0.3142 0.2541
H18 H 0.9929 0.2307 0.1810
H19 H 1.0896 0.2489 0.2800
C18 C 0.781(2) 0.201(2) 0.2385(19)
H20 H 0.7518 0.2657 0.2421
H21 H 0.7238 0.1598 0.2682
H22 H 0.7817 0.1840 0.1686
C19 C 0.9198(15) 0.3150(9) 0.4389(9)
Cd1 Cd 0.85324(8) -0.00727(6) -0.02994(6)
N1 N 0.6722(10) -0.0749(9) 0.0034(8)
N2 N 0.4775(9) -0.1469(13) -0.0077(10)
N3 N 0.5454(12) -0.1470(10) 0.0922(9)
O1 O 0.8939(9) 0.0302(6) 0.1365(6)
O2 O 1.1043(9) 0.0492(7) 0.1802(6)
O3 O 0.8128(10) 0.3538(6) 0.4287(7)
O4 O 1.0265(10) 0.3580(6) 0.4724(8)
C1B C 0.4350(12) 0.1015(12) 1.0565(11)
H1B H 0.4483 0.0898 1.1261
C2B C 0.3426(13) 0.1005(12) 0.9058(12)
H2B H 0.2846 0.0886 0.8477
C3B C 0.5027(19) 0.1941(16) 0.8224(13)
H3B H 0.4532 0.2516 0.8061
H4B H 0.5912 0.2128 0.8436
C4B C 0.497(2) 0.1339(16) 0.7261(14)
C5B C 0.577(2) 0.061(2) 0.7213(14)
H5B H 0.6305 0.0432 0.7798
C6B C 0.582(2) 0.011(2) 0.6343(16)
H6B H 0.6440 -0.0361 0.6342
C7B C 0.5003(14) 0.0282(12) 0.5470(11)
C8B C 0.413(2) 0.0991(17) 0.5566(18)
H7B H 0.3508 0.1112 0.5014
C9B C 0.413(3) 0.1531(16) 0.6420(19)
H8B H 0.3546 0.2029 0.6423
N1B N 0.3278(10) 0.0749(9) 0.9966(8)
N2B N 0.5225(9) 0.1469(13) 1.0077(10)
N3B N 0.4546(12) 0.1470(10) 0.9078(9)
C10B C 0.0097(12) -0.0509(8) 0.8008(9)
C11B C 0.0348(12) -0.0835(8) 0.6971(8)
H9B H 0.1056 -0.0467 0.6760
C12B C -0.0775(18) -0.0815(14) 0.6149(13)
H10B H -0.1563 -0.0956 0.6422
H11B H -0.0856 -0.0196 0.5826
C13B C -0.0480(18) -0.1625(12) 0.5344(14)
H12B H -0.0369 -0.1342 0.4696
H13B H -0.1177 -0.2081 0.5236
C14B C 0.0706(12) -0.2082(8) 0.5807(8)
C15B C 0.068(2) -0.1913(10) 0.6968(11)
C16B C 0.175(2) -0.107(5) 0.596(5)
H14B H 0.2081 -0.0952 0.5338
H15B H 0.1277 -0.0530 0.6142
H16B H 0.2446 -0.1200 0.6492
C17B C -0.001(3) -0.2506(12) 0.7493(16)
H17B H 0.0313 -0.3142 0.7459
H18B H 0.0071 -0.2307 0.8190
H19B H -0.0896 -0.2489 0.7200
C18B C 0.219(2) -0.201(2) 0.7615(19)
H20B H 0.2482 -0.2657 0.7579
H21B H 0.2762 -0.1598 0.7318
H22B H 0.2183 -0.1840 0.8314
C19B C 0.0802(15) -0.3150(9) 0.5611(9)
Cd1B Cd 0.14676(8) 0.00727(6) 1.02994(6)
O1B O 0.1061(9) -0.0302(6) 0.8635(6)
O2B O -0.1043(9) -0.0492(7) 0.8198(6)
O3B O 0.1872(10) -0.3538(6) 0.5713(7)
O4B O -0.0265(10) -0.3580(6) 0.5276(8)
Cd1_2 Cd -0.14676(8) -0.00727(6) 0.97006(6)
Cd1A Cd 0.14676(8) -0.50727(6) 0.52994(6)
Cd1A_2 Cd 1.14676(8) 0.49273(6) 0.52994(6)
Cd1B_2 Cd 1.14676(8) 0.00727(6) 0.02994(6)
Cd1C Cd -0.14676(8) -0.49273(6) 0.47006(6)
Cd1C_2 Cd 0.85324(8) 0.50727(6) 0.47006(6)
O2_2 O 0.1043(9) 0.0492(7) 1.1802(6)
O2B_2 O 0.8957(9) -0.0492(7) -0.1802(6)
O3A O 0.1872(10) -0.1462(6) 1.0713(7)
O3C O 0.8128(10) 0.1462(6) -0.0713(7)
O4A O -0.0265(10) -0.1420(6) 1.0276(8)
O4A_2 O 0.9735(10) -0.1420(6) 0.0276(8)
O4C O 0.0265(10) 0.1420(6) 0.9724(8)
O4C_2 O 1.0265(10) 0.1420(6) -0.0276(8)
loop_
_geom_bond_atom_site_label_1
_geom_bond_atom_site_label_2
_geom_bond_site_symmetry_1
_geom_bond_site_symmetry_2
C1 H1 1_555 1_555
C2 H2 1_555 1_555
C3 H3 1_555 1_555
H4 C3 1_555 1_555
C4 C3 1_555 1_555
C5 C4 1_555 1_555
H5 C5 1_555 1_555
C6 C5 1_555 1_555
H6 C6 1_555 1_555
C7 C6 1_555 1_555
C8 C7 1_555 1_555
H7 C8 1_555 1_555
C9 C4 1_555 1_555
H8 C9 1_555 1_555
C10 C11 1_555 1_555
C11 H9 1_555 1_555
C12 C11 1_555 1_555
H10 C12 1_555 1_555
H11 C12 1_555 1_555
C13 C12 1_555 1_555
H12 C13 1_555 1_555
H13 C13 1_555 1_555
C14 C13 1_555 1_555
C15 C11 1_555 1_555
C16 C14 1_555 1_555
H14 C16 1_555 1_555
H15 C16 1_555 1_555
H16 C16 1_555 1_555
C17 C15 1_555 1_555
H17 C17 1_555 1_555
H18 C17 1_555 1_555
H19 C17 1_555 1_555
C18 C15 1_555 1_555
H20 C18 1_555 1_555
H21 C18 1_555 1_555
H22 C18 1_555 1_555
C19 C14 1_555 1_555
Cd1 N1 1_555 1_555
N1 C1 1_555 1_555
N2 C1 1_555 1_555
N3 C2 1_555 1_555
O1 C10 1_555 1_555
O2 C10 1_555 1_555
O3 C19 1_555 1_555
O4 C19 1_555 1_555
C1B H1B 1_555 1_555
C2B H2B 1_555 1_555
C3B H3B 1_555 1_555
H4B C3B 1_555 1_555
C4B C3B 1_555 1_555
C5B C4B 1_555 1_555
H5B C5B 1_555 1_555
C6B C5B 1_555 1_555
H6B C6B 1_555 1_555
C7B C7 1_555 1_555
C8B C7B 1_555 1_555
H7B C8B 1_555 1_555
C9B C4B 1_555 1_555
H8B C9B 1_555 1_555
N1B C1B 1_555 1_555
N2B C1B 1_555 1_555
N3B C2B 1_555 1_555
C10B C11B 1_555 1_555
C11B H9B 1_555 1_555
C12B C11B 1_555 1_555
H10B C12B 1_555 1_555
H11B C12B 1_555 1_555
C13B C12B 1_555 1_555
H12B C13B 1_555 1_555
H13B C13B 1_555 1_555
C14B C13B 1_555 1_555
C15B C11B 1_555 1_555
C16B C14B 1_555 1_555
H14B C16B 1_555 1_555
H15B C16B 1_555 1_555
H16B C16B 1_555 1_555
C17B C15B 1_555 1_555
H17B C17B 1_555 1_555
H18B C17B 1_555 1_555
H19B C17B 1_555 1_555
C18B C15B 1_555 1_555
H20B C18B 1_555 1_555
H21B C18B 1_555 1_555
H22B C18B 1_555 1_555
C19B C14B 1_555 1_555
Cd1B N1B 1_555 1_555
O1B C10B 1_555 1_555
O2B C10B 1_555 1_555
O3B C19B 1_555 1_555
O4B C19B 1_555 1_555
Cd1_2 O2B 1_555 1_555
Cd1A O3B 1_555 1_555
Cd1A_2 O4 1_555 1_555
Cd1B_2 O2 1_555 1_555
Cd1C O4B 1_555 1_555
Cd1C_2 O3 1_555 1_555
O2_2 Cd1B 1_555 1_555
O2B_2 Cd1 1_555 1_555
O3A Cd1B 1_555 1_555
O3C Cd1 1_555 1_555
O4A Cd1B 1_555 1_555
O4A_2 Cd1 1_555 1_555
O4C Cd1B 1_555 1_555
O4C_2 Cd1 1_555 1_555
C2 N1 1_555 1_555
C3 N3 1_555 1_555
C8 C9 1_555 1_555
C14 C15 1_555 1_555
Cd1 O1 1_555 1_555
N2 N3 1_555 1_555
O4 Cd1C_2 1_555 1_555
C2B N1B 1_555 1_555
C3B N3B 1_555 1_555
C6B C7B 1_555 1_555
C8B C9B 1_555 1_555
N2B N3B 1_555 1_555
C14B C15B 1_555 1_555
Cd1B O1B 1_555 1_555
O4B Cd1A 1_555 1_555
Cd1_2 O4A 1_555 1_555
Cd1_2 O4C 1_555 1_555
Cd1B_2 O4A_2 1_555 1_555
Cd1B_2 O4C_2 1_555 1_555

#END
