
#######################################################################
#
#                 Cambridge Crystallographic Data Centre
#                                CCDC 
#
#######################################################################
#
# If this CIF has been generated from an entry in the Cambridge 
# Structural Database, then it will include bibliographic, chemical, 
# crystal, experimental, refinement or atomic coordinate data resulting 
# from the CCDC's data processing and validation procedures.
#
#######################################################################

data_GIKRID
_symmetry_cell_setting           triclinic
_symmetry_space_group_name_H-M   'P -1'
_symmetry_Int_Tables_number      2
_space_group_name_Hall           '-P 1'
loop_
_symmetry_equiv_pos_site_id
_symmetry_equiv_pos_as_xyz
1 x,y,z
2 -x,-y,-z
_cell_length_a                   10.63410(10)
_cell_length_b                   10.76710(10)
_cell_length_c                   12.37710(10)
_cell_angle_alpha                67.066(8)
_cell_angle_beta                 83.639(12)
_cell_angle_gamma                73.758(10)
_cell_volume                     1253.05
loop_
_atom_site_label
_atom_site_type_symbol
_atom_site_fract_x
_atom_site_fract_y
_atom_site_fract_z
Co1 Co -0.50741(4) 1.10797(4) 1.28291(3)
O1 O -0.6412(2) 1.0080(2) 1.2707(2)
O2 O -0.4861(2) 0.8473(3) 1.3904(2)
O3 O -1.3778(2) 0.1973(2) 1.3132(2)
O4 O -1.2313(2) 0.0200(2) 1.4374(2)
N1 N -0.8657(3) 0.4812(3) 1.3779(3)
N2 N -0.9780(3) 0.5299(3) 1.3377(2)
C1 C -0.5914(3) 0.8830(4) 1.3383(3)
C2 C -0.6645(3) 0.7769(3) 1.3518(2)
C3 C -0.5994(3) 0.6387(3) 1.3755(3)
H1 H -0.5090 0.6096 1.3853
C4 C -0.6685(3) 0.5436(4) 1.3848(3)
H2 H -0.6243 0.4505 1.4013
C5 C -0.8028(3) 0.5859(3) 1.3696(3)
C6 C -0.8693(3) 0.7232(3) 1.3513(3)
H3 H -0.9602 0.7511 1.3459
C7 C -0.8002(3) 0.8185(3) 1.3411(3)
H4 H -0.8446 0.9110 1.3271
C8 C -1.2725(3) 0.1444(3) 1.3723(3)
C9 C -1.1913(3) 0.2440(3) 1.3602(2)
C10 C -1.0571(3) 0.1949(3) 1.3829(3)
H5 H -1.0170 0.1002 1.4038
C11 C -0.9830(3) 0.2853(3) 1.3747(3)
H6 H -0.8934 0.2516 1.3891
C12 C -1.0430(3) 0.4265(3) 1.3449(3)
C13 C -1.1753(3) 0.4759(3) 1.3208(3)
H7 H -1.2153 0.5707 1.2997
C14 C -1.2490(3) 0.3853(3) 1.3278(3)
H8 H -1.3380 0.4198 1.3106
N3 N -0.6092(2) 1.3019(3) 1.1575(2)
N4 N -1.3715(2) 2.0323(3) 1.1681(2)
C15 C -0.6689(5) 1.5473(4) 1.0768(5)
H9 H -0.6512 1.6284 1.0738
C16 C -0.5917(5) 1.4204(4) 1.1457(5)
H10 H -0.5229 1.4199 1.1863
C17 C -0.7029(5) 1.3114(4) 1.0937(6)
H11 H -0.7179 1.2289 1.0971
C18 C -0.7815(6) 1.4353(5) 1.0212(6)
H12 H -0.8449 1.4331 0.9764
C19 C -0.7695(3) 1.5580(3) 1.0134(3)
C20 C -0.8613(3) 1.6941(3) 0.9427(3)
H13 H -0.9047 1.6813 0.8843
H14 H -0.8120 1.7626 0.9021
C21 C -0.9637(3) 1.7476(3) 1.0217(3)
H15 H -0.9201 1.7686 1.0748
H16 H -1.0055 1.6742 1.0687
C22 C -1.0684(3) 1.8772(3) 0.9545(3)
H17 H -1.0267 1.9518 0.9110
H18 H -1.1079 1.8576 0.8979
C23 C -1.1757(3) 1.9279(3) 1.0298(3)
C24 C -1.1684(3) 1.8755(3) 1.1510(3)
H19 H -1.0973 1.8032 1.1892
C25 C -1.2661(3) 1.9299(4) 1.2152(3)
H20 H -1.2578 1.8928 1.2964
C26 C -1.3805(3) 2.0798(4) 1.0513(3)
H21 H -1.4543 2.1496 1.0155
C27 C -1.2870(3) 2.0315(4) 0.9811(3)
H22 H -1.2988 2.0689 0.9002
O5 O -0.6186(2) 1.1471(2) 1.42106(18)
H23 H -0.575(3) 1.159(3) 1.468(2)
H24 H -0.662(3) 1.092(3) 1.466(2)
Co1_2 Co -1.50741(4) 0.10797(4) 1.28291(3)
Co1_3 Co -1.50741(4) 2.10797(4) 1.28291(3)
O3_2 O -0.3778(2) 1.1973(2) 1.3132(2)
N4_2 N -0.3715(2) 1.0323(3) 1.1681(2)
loop_
_geom_bond_atom_site_label_1
_geom_bond_atom_site_label_2
_geom_bond_site_symmetry_1
_geom_bond_site_symmetry_2
Co1 O1 1_555 1_555
O1 C1 1_555 1_555
O2 C1 1_555 1_555
O3 C8 1_555 1_555
O4 C8 1_555 1_555
N1 N2 1_555 1_555
N2 C12 1_555 1_555
C1 C2 1_555 1_555
C2 C3 1_555 1_555
C3 H1 1_555 1_555
C4 C3 1_555 1_555
H2 C4 1_555 1_555
C5 N1 1_555 1_555
C6 C5 1_555 1_555
H3 C6 1_555 1_555
C7 C2 1_555 1_555
H4 C7 1_555 1_555
C8 C9 1_555 1_555
C9 C10 1_555 1_555
C10 H5 1_555 1_555
C11 C10 1_555 1_555
H6 C11 1_555 1_555
C12 C11 1_555 1_555
C13 C12 1_555 1_555
H7 C13 1_555 1_555
C14 C9 1_555 1_555
H8 C14 1_555 1_555
N3 Co1 1_555 1_555
N4 C25 1_555 1_555
C15 H9 1_555 1_555
C16 N3 1_555 1_555
H10 C16 1_555 1_555
C17 N3 1_555 1_555
H11 C17 1_555 1_555
C18 C17 1_555 1_555
H12 C18 1_555 1_555
C19 C15 1_555 1_555
C20 C19 1_555 1_555
H13 C20 1_555 1_555
H14 C20 1_555 1_555
C21 C20 1_555 1_555
H15 C21 1_555 1_555
H16 C21 1_555 1_555
C22 C21 1_555 1_555
H17 C22 1_555 1_555
H18 C22 1_555 1_555
C23 C22 1_555 1_555
C24 C23 1_555 1_555
H19 C24 1_555 1_555
C25 C24 1_555 1_555
H20 C25 1_555 1_555
C26 N4 1_555 1_555
H21 C26 1_555 1_555
C27 C23 1_555 1_555
H22 C27 1_555 1_555
O5 Co1 1_555 1_555
H23 O5 1_555 1_555
H24 O5 1_555 1_555
Co1_2 O3 1_555 1_555
Co1_3 N4 1_555 1_555
O3_2 Co1 1_555 1_555
N4_2 Co1 1_555 1_555
C4 C5 1_555 1_555
C6 C7 1_555 1_555
C13 C14 1_555 1_555
C15 C16 1_555 1_555
C18 C19 1_555 1_555
C26 C27 1_555 1_555

#END
