
#######################################################################
#
#                 Cambridge Crystallographic Data Centre
#                                CCDC 
#
#######################################################################
#
# If this CIF has been generated from an entry in the Cambridge 
# Structural Database, then it will include bibliographic, chemical, 
# crystal, experimental, refinement or atomic coordinate data resulting 
# from the CCDC's data processing and validation procedures.
#
#######################################################################

data_GIKROI
_symmetry_cell_setting           rhombohedral
_symmetry_space_group_name_H-M   'R -3 c'
_symmetry_Int_Tables_number      167
_space_group_name_Hall           '-R 3 2"c'
loop_
_symmetry_equiv_pos_site_id
_symmetry_equiv_pos_as_xyz
1 x,y,z
2 -y,x-y,z
3 -x+y,-x,z
4 y,x,1/2-z
5 2/3+x,1/3+y,1/3+z
6 2/3-y,1/3+x-y,1/3+z
7 2/3-x+y,1/3-x,1/3+z
8 2/3+y,1/3+x,5/6-z
9 1/3+x,2/3+y,2/3+z
10 1/3+y,2/3+x,1/6-z
11 x-y,-y,1/2-z
12 -x,-x+y,1/2-z
13 1/3-y,2/3+x-y,2/3+z
14 1/3-x+y,2/3-x,2/3+z
15 1/3+x-y,2/3-y,1/6-z
16 1/3-x,2/3-x+y,1/6-z
17 2/3+x-y,1/3-y,5/6-z
18 2/3-x,1/3-x+y,5/6-z
19 -x,-y,-z
20 y,-x+y,-z
21 x-y,x,-z
22 -y,-x,1/2+z
23 1/3-x,2/3-y,2/3-z
24 1/3+y,2/3-x+y,2/3-z
25 1/3+x-y,2/3+x,2/3-z
26 1/3-y,2/3-x,1/6+z
27 2/3-x,1/3-y,1/3-z
28 2/3-y,1/3-x,5/6+z
29 -x+y,y,1/2+z
30 x,x-y,1/2+z
31 2/3+y,1/3-x+y,1/3-z
32 2/3+x-y,1/3+x,1/3-z
33 2/3-x+y,1/3+y,5/6+z
34 2/3+x,1/3+x-y,5/6+z
35 1/3-x+y,2/3+y,1/6+z
36 1/3+x,2/3+x-y,1/6+z
_cell_length_a                   26.1209(8)
_cell_length_b                   26.1209(8)
_cell_length_c                   8.4032(3)
_cell_angle_alpha                90
_cell_angle_beta                 90
_cell_angle_gamma                120.00
_cell_volume                     4965.37
loop_
_atom_site_label
_atom_site_type_symbol
_atom_site_fract_x
_atom_site_fract_y
_atom_site_fract_z
C1 C 0.49369(16) 0.13128(17) 0.0444(5)
N1 N 0.30071(11) 0.0000 0.2500
Ni1 Ni 0.371857(16) 0.038524(16) 0.0833
C2 C 0.54883(13) 0.17251(15) -0.0468(4)
H1 H 0.5715 0.1529 -0.0647
H2 H 0.5374 0.1802 -0.1500
N2 N 0.25606(13) 0.0000 0.2500
C3 C 0.58741(18) 0.2299(2) 0.0332(7)
H3 H 0.6166 0.2256 0.0940
H4 H 0.6087 0.2588 -0.0495
N3 N 0.21227(17) 0.0000 0.2500
N4 N 0.40319(11) 0.0000 0.2500
N5 N 0.44878(13) 0.0000 0.2500
H5 H 0.4676(16) 0.0562(17) -0.048(4)
N6 N 0.49275(16) 0.0000 0.2500
H6 H 0.4470(19) 0.0849(19) -0.131(5)
N7 N 0.45169(10) 0.07765(11) -0.0389(3)
H7 H 0.4792(8) 0.1483(8) -0.0241(19)
C1I C 0.46461(17) 0.16036(16) 0.1223(5)
N1I N 0.3333 -0.03262(11) -0.0833
Ni1F Ni 0.333334(23) -0.038524(16) 0.4166
C2I C 0.50584(15) 0.21550(13) 0.2135(4)
H1I H 0.4862 0.2382 0.2314
H2I H 0.5135 0.2041 0.3167
C3I C 0.5632(2) 0.25408(18) 0.1335(7)
H3I H 0.5589 0.2833 0.0727
H4I H 0.5921 0.2754 0.2162
N4I N 0.3333 0.06986(11) -0.0833
H5I H 0.3895(17) 0.1343(16) 0.215(4)
H6I H 0.4182(19) 0.1137(19) 0.298(5)
N7I N 0.41098(11) 0.11836(10) 0.2056(3)
H7I H 0.4816(8) 0.1459(8) 0.1908(19)
loop_
_geom_bond_atom_site_label_1
_geom_bond_atom_site_label_2
_geom_bond_site_symmetry_1
_geom_bond_site_symmetry_2
C1 C2 1_555 1_555
N1 Ni1 1_555 1_555
Ni1 N4 1_555 1_555
C2 H1 1_555 1_555
H2 C2 1_555 1_555
N2 N1 1_555 1_555
C3 C2 1_555 1_555
H3 C3 1_555 1_555
H4 C3 1_555 1_555
N3 N2 1_555 1_555
N4 N5 1_555 1_555
N5 N6 1_555 1_555
H5 N7 1_555 1_555
H6 N7 1_555 1_555
N7 C1 1_555 1_555
H7 C1 1_555 1_555
C1I C1 1_555 1_555
N1I Ni1 1_555 1_555
Ni1F N1 1_555 1_555
C2I C1I 1_555 1_555
H1I C2I 1_555 1_555
H2I C2I 1_555 1_555
C3I C3 1_555 1_555
H3I C3I 1_555 1_555
H4I C3I 1_555 1_555
N4I Ni1 1_555 1_555
H5I N7I 1_555 1_555
H6I N7I 1_555 1_555
N7I Ni1 1_555 1_555
H7I C1I 1_555 1_555
Ni1 N7 1_555 1_555
N4 Ni1F 1_555 1_555
C1I N7I 1_555 1_555
C2I C3I 1_555 1_555

#END
