
#######################################################################
#
#                 Cambridge Crystallographic Data Centre
#                                CCDC 
#
#######################################################################
#
# If this CIF has been generated from an entry in the Cambridge 
# Structural Database, then it will include bibliographic, chemical, 
# crystal, experimental, refinement or atomic coordinate data resulting 
# from the CCDC's data processing and validation procedures.
#
#######################################################################

data_GIKREZ
_symmetry_cell_setting           orthorhombic
_symmetry_space_group_name_H-M   'P b c a'
_symmetry_Int_Tables_number      61
_space_group_name_Hall           '-P 2ac 2ab'
loop_
_symmetry_equiv_pos_site_id
_symmetry_equiv_pos_as_xyz
1 x,y,z
2 1/2-x,-y,1/2+z
3 -x,1/2+y,1/2-z
4 1/2+x,1/2-y,-z
5 -x,-y,-z
6 1/2+x,y,1/2-z
7 x,1/2-y,1/2+z
8 1/2-x,1/2+y,z
_cell_length_a                   19.708(2)
_cell_length_b                   24.955(3)
_cell_length_c                   35.224(4)
_cell_angle_alpha                90
_cell_angle_beta                 90
_cell_angle_gamma                90
_cell_volume                     17323.6
loop_
_atom_site_label
_atom_site_type_symbol
_atom_site_fract_x
_atom_site_fract_y
_atom_site_fract_z
Ni1 Ni 0.25672(2) 0.489876(17) 0.369456(12)
O1 O 0.26293(12) 0.49492(9) 0.42727(6)
O2 O 0.29448(13) 0.58040(9) 0.43694(7)
O3 O 0.24693(13) 0.51651(9) 0.81082(6)
O4 O 0.19491(12) 0.43942(9) 0.79428(7)
N1 N 0.26182(15) 0.49281(12) 0.60759(8)
N2 N 0.26363(14) 0.53247(11) 0.62954(8)
C1 C 0.27887(17) 0.53517(13) 0.44799(9)
C2 C 0.27512(17) 0.52439(13) 0.49036(9)
C3 C 0.26902(19) 0.47339(14) 0.50428(10)
H1 H 0.2671 0.4447 0.4875
C4 C 0.26560(19) 0.46372(14) 0.54323(10)
H2 H 0.2622 0.4289 0.5524
C5 C 0.26724(16) 0.50643(13) 0.56800(9)
C6 C 0.27353(18) 0.55843(14) 0.55451(10)
H3 H 0.2744 0.5872 0.5713
C7 C 0.27852(19) 0.56704(14) 0.51571(10)
H4 H 0.2842 0.6017 0.5065
C8 C 0.22336(17) 0.48286(13) 0.78661(9)
C9 C 0.23351(17) 0.49649(13) 0.74517(9)
C10 C 0.23966(18) 0.45496(14) 0.71937(10)
H5 H 0.2359 0.4198 0.7278
C11 C 0.25125(18) 0.46460(14) 0.68145(10)
H6 H 0.2563 0.4362 0.6646
C12 C 0.25528(17) 0.51750(14) 0.66856(9)
C13 C 0.24814(18) 0.55958(14) 0.69433(10)
H7 H 0.2497 0.5948 0.6858
C14 C 0.23866(18) 0.54908(14) 0.73262(10)
H8 H 0.2358 0.5772 0.7499
N3 N 0.33398(14) 0.42853(11) 0.36990(8)
N4 N 0.32413(15) 0.05072(11) 0.36826(9)
C15 C 0.40775(19) 0.36895(15) 0.40354(13)
H9 H 0.4278 0.3594 0.4265
C16 C 0.36449(19) 0.41249(14) 0.40199(11)
H10 H 0.3562 0.4315 0.4242
C17 C 0.34991(19) 0.40179(14) 0.33831(11)
H11 H 0.3311 0.4132 0.3155
C18 C 0.3930(2) 0.35784(15) 0.33773(13)
H12 H 0.4029 0.3408 0.3149
C19 C 0.42141(18) 0.33952(14) 0.37124(12)
C20 C 0.46371(19) 0.28882(14) 0.37130(16)
H13 H 0.4927 0.2883 0.3936
H14 H 0.4925 0.2882 0.3490
C21 C 0.41767(19) 0.23932(14) 0.37144(15)
H15 H 0.3858 0.2416 0.3505
H16 H 0.3919 0.2384 0.3949
C22 C 0.4594(2) 0.18772(15) 0.36774(18)
H17 H 0.4851 0.1887 0.3442
H18 H 0.4914 0.1856 0.3886
C23 C 0.41481(19) 0.13867(15) 0.36799(15)
C24 C 0.3881(2) 0.11723(16) 0.33498(14)
H19 H 0.4001 0.1320 0.3117
C25 C 0.3442(2) 0.07458(15) 0.33607(12)
H20 H 0.3275 0.0615 0.3132
C26 C 0.3522(2) 0.06965(18) 0.40013(13)
H21 H 0.3419 0.0528 0.4230
C27 C 0.3962(2) 0.11352(18) 0.40078(14)
H22 H 0.4130 0.1258 0.4239
N5 N 0.18286(14) 0.42896(11) 0.37510(8)
N6 N -0.0264(2) 0.2856(3) 0.53437(17)
C28 C 0.1203(2) 0.36881(16) 0.41477(13)
H23 H 0.1108 0.3569 0.4392
C29 C 0.1661(2) 0.40968(15) 0.40935(12)
H24 H 0.1865 0.4248 0.4306
C30 C 0.15166(18) 0.40617(14) 0.34558(11)
H25 H 0.1618 0.4190 0.3214
C31 C 0.08824(19) 0.34519(15) 0.38384(12)
C32 C 0.10539(19) 0.36485(15) 0.34853(12)
H26 H 0.0859 0.3503 0.3268
C33 C 0.0377(2) 0.29972(15) 0.39007(14)
H27 H 0.0144 0.2922 0.3664
H28 H 0.0041 0.3109 0.4086
C34 C 0.0725(2) 0.24871(15) 0.40406(13)
H29 H 0.1108 0.2584 0.4199
H30 H 0.0898 0.2290 0.3824
C35 C 0.0238(2) 0.21207(16) 0.42699(14)
H31 H -0.0170 0.2057 0.4122
H32 H 0.0455 0.1778 0.4314
C36 C 0.0049(2) 0.23671(18) 0.46426(15)
C37 C -0.0593(2) 0.2547(2) 0.47281(18)
H33 H -0.0939 0.2508 0.4551
C38 C -0.0724(3) 0.2777(3) 0.5063(2)
H34 H -0.1166 0.2892 0.5106
C39 C 0.0346(3) 0.2683(3) 0.52569(18)
H35 H 0.0686 0.2738 0.5436
C40 C 0.0525(3) 0.2433(2) 0.49334(16)
H36 H 0.0965 0.2305 0.4903
O5 O 0.33185(12) 0.54785(9) 0.36700(7)
H37 H 0.3206(14) 0.5611(9) 0.3457(3)
H38 H 0.3226(15) 0.5706(7) 0.3839(4)
Ni1A Ni 0.24328(2) 0.510124(17) 0.869456(12)
Ni1G Ni 0.24328(2) -0.010124(17) 0.369456(12)
O3A O 0.25307(13) 0.48349(9) 0.31082(6)
N4G N 0.17587(15) 0.55072(11) 0.36826(9)
Ni2 Ni 0.23730(2) 0.242003(17) 0.135977(12)
O6 O 0.23931(13) 0.24366(9) 0.07761(6)
O7 O 0.29436(13) 0.16752(9) 0.06246(7)
O8 O 0.28527(13) 0.33468(9) -0.29084(7)
O9 O 0.23785(12) 0.25560(9) -0.30609(7)
N7 N 0.24564(14) 0.27028(11) -0.10218(8)
N8 N 0.24256(14) 0.23229(12) -0.12611(8)
C41 C 0.26561(18) 0.21074(14) 0.05429(9)
C42 C 0.25890(17) 0.22572(13) 0.01286(9)
C43 C 0.27189(18) 0.18759(14) -0.01506(10)
H39 H 0.2844 0.1530 -0.0081
C44 C 0.26637(18) 0.20064(14) -0.05313(10)
H40 H 0.2736 0.1745 -0.0715
C45 C 0.25006(16) 0.25267(13) -0.06392(9)
C46 C 0.23880(18) 0.29132(14) -0.03653(10)
H41 H 0.2292 0.3264 -0.0436
C47 C 0.24195(18) 0.27755(13) 0.00166(10)
H42 H 0.2326 0.3033 0.0200
C48 C 0.25901(18) 0.29108(14) -0.28272(10)
C49 C 0.25075(18) 0.27616(14) -0.24133(10)
C50 C 0.24845(19) 0.31637(14) -0.21388(10)
H43 H 0.2503 0.3521 -0.2214
C51 C 0.24341(18) 0.30415(14) -0.17546(10)
H44 H 0.2410 0.3312 -0.1574
C52 C 0.24209(17) 0.25033(14) -0.16460(9)
C53 C 0.24286(17) 0.20983(13) -0.19187(10)
H45 H 0.2413 0.1741 -0.1844
C54 C 0.24595(17) 0.22275(14) -0.23007(10)
H46 H 0.2448 0.1957 -0.2483
N9 N 0.16367(15) 0.17819(11) 0.13691(9)
N10 N 0.18715(15) -0.19699(11) 0.13661(9)
C55 C 0.0919(2) 0.11849(19) 0.17152(16)
H47 H 0.0726 0.1098 0.1948
C56 C 0.1322(2) 0.16308(18) 0.16899(13)
H48 H 0.1382 0.1839 0.1906
C57 C 0.1503(2) 0.14796(18) 0.10692(14)
H49 H 0.1692 0.1577 0.0838
C58 C 0.1096(3) 0.10258(19) 0.10800(18)
H50 H 0.1027 0.0826 0.0860
C59 C 0.0793(2) 0.08694(16) 0.14147(19)
C60 C 0.0382(2) 0.03611(16) 0.1430(2)
H51 H 0.0094 0.0340 0.1207
H52 H 0.0093 0.0366 0.1652
C61 C 0.0840(2) -0.01263(15) 0.14445(19)
H53 H 0.1087 -0.0126 0.1683
H54 H 0.1169 -0.0105 0.1240
C62 C 0.0443(2) -0.06521(15) 0.14087(17)
H55 H 0.0139 -0.0689 0.1623
H56 H 0.0172 -0.0645 0.1179
C63 C 0.09214(19) -0.11250(15) 0.13961(14)
C64 C 0.0988(2) -0.14824(15) 0.16873(13)
H57 H 0.0714 -0.1450 0.1901
C65 C 0.14615(19) -0.18946(15) 0.16677(11)
H58 H 0.1497 -0.2129 0.1872
C66 C 0.1785(2) -0.16258(14) 0.10796(12)
H59 H 0.2055 -0.1670 0.0865
C67 C 0.1328(2) -0.12131(16) 0.10804(14)
H60 H 0.1289 -0.0992 0.0869
N11 N 0.16194(15) 0.30201(11) 0.13560(8)
N12 N 0.00596(19) 0.60026(15) -0.01317(12)
C68 C 0.09776(18) 0.36886(14) 0.10151(11)
H61 H 0.0816 0.3813 0.0783
C69 C 0.13708(18) 0.32234(14) 0.10325(10)
H62 H 0.1465 0.3045 0.0807
C70 C 0.14377(19) 0.32705(14) 0.16791(11)
H63 H 0.1578 0.3125 0.1909
C71 C 0.10522(19) 0.37342(14) 0.16852(11)
H64 H 0.0941 0.3894 0.1916
C72 C 0.08311(18) 0.39621(14) 0.13461(12)
C73 C 0.0462(2) 0.44969(15) 0.13550(12)
H65 H 0.0002 0.4438 0.1444
H66 H 0.0686 0.4729 0.1537
C74 C 0.0433(2) 0.47801(15) 0.09781(12)
H67 H 0.0152 0.4573 0.0806
H68 H 0.0887 0.4795 0.0872
C75 C 0.0154(2) 0.53425(15) 0.10032(13)
H69 H -0.0295 0.5334 0.1116
H70 H 0.0444 0.5559 0.1164
C76 C 0.01136(19) 0.55904(15) 0.06141(13)
C77 C 0.0621(2) 0.59166(16) 0.04731(15)
H71 H 0.0991 0.6008 0.0624
C78 C 0.0571(2) 0.61071(18) 0.01024(15)
H72 H 0.0920 0.6323 0.0013
C79 C -0.0434(2) 0.5691(2) 0.00110(14)
H73 H -0.0804 0.5612 -0.0143
C80 C -0.0423(2) 0.54859(18) 0.03670(14)
H74 H -0.0780 0.5271 0.0448
O10 O 0.31663(13) 0.18636(9) 0.13700(7)
H75 H 0.3133(13) 0.1674(7) 0.1172(4)
H76 H 0.3519(7) 0.2047(8) 0.1336(8)
Ni2F Ni 0.23730(2) 0.257997(17) -0.364023(12)
Ni2G Ni 0.26270(2) -0.257997(17) 0.135977(12)
O9F O 0.23785(12) 0.24440(9) 0.19391(7)
N10G N 0.31285(15) 0.30301(11) 0.13661(9)
N13 N -0.05003(19) -0.07069(15) 0.24255(10)
N14 N -0.0206(2) 0.28797(16) 0.23700(14)
C81 C 0.0408(2) -0.0139(2) 0.2626(2)
H77 H 0.0855 -0.0111 0.2708
C82 C 0.0141(3) -0.0637(2) 0.25243(18)
H78 H 0.0428 -0.0934 0.2526
C83 C -0.0870(2) -0.02674(19) 0.24181(13)
H79 H -0.1323 -0.0304 0.2349
C84 C -0.0653(2) 0.02300(19) 0.25009(13)
H80 H -0.0951 0.0519 0.2488
C85 C 0.0005(2) 0.03090(18) 0.26044(15)
C86 C 0.0267(3) 0.0870(2) 0.2710(2)
H81 H 0.0759 0.0864 0.2712
H82 H 0.0125 0.1122 0.2516
C87 C 0.0037(5) 0.1056(2) 0.30674(16)
H83 H 0.0190 0.0809 0.3262
H84 H -0.0455 0.1052 0.3068
C88 C 0.0282(4) 0.1625(2) 0.31697(16)
H85 H 0.0097 0.1720 0.3416
H86 H 0.0772 0.1618 0.3194
C89 C 0.0090(3) 0.20571(18) 0.28880(13)
C90 C 0.0558(2) 0.24489(16) 0.27951(12)
H87 H 0.0989 0.2441 0.2902
C91 C 0.0386(2) 0.28465(17) 0.25469(12)
H88 H 0.0706 0.3112 0.2499
C92 C -0.0650(2) 0.2488(2) 0.2456(2)
H89 H -0.1071 0.2494 0.2337
C93 C -0.0526(2) 0.2087(2) 0.27036(17)
H90 H -0.0857 0.1829 0.2750
loop_
_geom_bond_atom_site_label_1
_geom_bond_atom_site_label_2
_geom_bond_site_symmetry_1
_geom_bond_site_symmetry_2
Ni1 O1 1_555 1_555
O1 C1 1_555 1_555
O2 C1 1_555 1_555
O3 C8 1_555 1_555
O4 C8 1_555 1_555
N1 N2 1_555 1_555
N2 C12 1_555 1_555
C1 C2 1_555 1_555
C2 C3 1_555 1_555
C3 H1 1_555 1_555
C4 C3 1_555 1_555
H2 C4 1_555 1_555
C5 N1 1_555 1_555
C6 C5 1_555 1_555
H3 C6 1_555 1_555
C7 C2 1_555 1_555
H4 C7 1_555 1_555
C8 C9 1_555 1_555
C9 C10 1_555 1_555
C10 H5 1_555 1_555
C11 C10 1_555 1_555
H6 C11 1_555 1_555
C12 C11 1_555 1_555
C13 C12 1_555 1_555
H7 C13 1_555 1_555
C14 C9 1_555 1_555
H8 C14 1_555 1_555
N3 Ni1 1_555 1_555
N4 C25 1_555 1_555
C15 H9 1_555 1_555
C16 N3 1_555 1_555
H10 C16 1_555 1_555
C17 N3 1_555 1_555
H11 C17 1_555 1_555
C18 C17 1_555 1_555
H12 C18 1_555 1_555
C19 C15 1_555 1_555
C20 C19 1_555 1_555
H13 C20 1_555 1_555
H14 C20 1_555 1_555
C21 C20 1_555 1_555
H15 C21 1_555 1_555
H16 C21 1_555 1_555
C22 C21 1_555 1_555
H17 C22 1_555 1_555
H18 C22 1_555 1_555
C23 C22 1_555 1_555
C24 C23 1_555 1_555
H19 C24 1_555 1_555
C25 C24 1_555 1_555
H20 C25 1_555 1_555
C26 N4 1_555 1_555
H21 C26 1_555 1_555
C27 C23 1_555 1_555
H22 C27 1_555 1_555
N5 Ni1 1_555 1_555
N6 C38 1_555 1_555
C28 H23 1_555 1_555
C29 N5 1_555 1_555
H24 C29 1_555 1_555
C30 N5 1_555 1_555
H25 C30 1_555 1_555
C31 C28 1_555 1_555
C32 C30 1_555 1_555
H26 C32 1_555 1_555
C33 C31 1_555 1_555
H27 C33 1_555 1_555
H28 C33 1_555 1_555
C34 C33 1_555 1_555
H29 C34 1_555 1_555
H30 C34 1_555 1_555
C35 C34 1_555 1_555
H31 C35 1_555 1_555
H32 C35 1_555 1_555
C36 C35 1_555 1_555
C37 C36 1_555 1_555
H33 C37 1_555 1_555
C38 C37 1_555 1_555
H34 C38 1_555 1_555
C39 N6 1_555 1_555
H35 C39 1_555 1_555
C40 C36 1_555 1_555
H36 C40 1_555 1_555
O5 Ni1 1_555 1_555
H37 O5 1_555 1_555
H38 O5 1_555 1_555
Ni2 O6 1_555 1_555
O6 C41 1_555 1_555
O7 C41 1_555 1_555
O8 C48 1_555 1_555
O9 C48 1_555 1_555
N7 N8 1_555 1_555
N8 C52 1_555 1_555
C41 C42 1_555 1_555
C42 C43 1_555 1_555
C43 H39 1_555 1_555
C44 C43 1_555 1_555
H40 C44 1_555 1_555
C45 N7 1_555 1_555
C46 C45 1_555 1_555
H41 C46 1_555 1_555
C47 C42 1_555 1_555
H42 C47 1_555 1_555
C48 C49 1_555 1_555
C49 C50 1_555 1_555
C50 H43 1_555 1_555
C51 C50 1_555 1_555
H44 C51 1_555 1_555
C52 C51 1_555 1_555
C53 C52 1_555 1_555
H45 C53 1_555 1_555
C54 C49 1_555 1_555
H46 C54 1_555 1_555
N9 Ni2 1_555 1_555
N10 C65 1_555 1_555
C55 H47 1_555 1_555
C56 N9 1_555 1_555
H48 C56 1_555 1_555
C57 N9 1_555 1_555
H49 C57 1_555 1_555
C58 C57 1_555 1_555
H50 C58 1_555 1_555
C59 C55 1_555 1_555
C60 C59 1_555 1_555
H51 C60 1_555 1_555
H52 C60 1_555 1_555
C61 C60 1_555 1_555
H53 C61 1_555 1_555
H54 C61 1_555 1_555
C62 C61 1_555 1_555
H55 C62 1_555 1_555
H56 C62 1_555 1_555
C63 C62 1_555 1_555
C64 C63 1_555 1_555
H57 C64 1_555 1_555
C65 C64 1_555 1_555
H58 C65 1_555 1_555
C66 N10 1_555 1_555
H59 C66 1_555 1_555
C67 C63 1_555 1_555
H60 C67 1_555 1_555
N11 Ni2 1_555 1_555
N12 C78 1_555 1_555
C68 H61 1_555 1_555
C69 N11 1_555 1_555
H62 C69 1_555 1_555
C70 N11 1_555 1_555
H63 C70 1_555 1_555
C71 C70 1_555 1_555
H64 C71 1_555 1_555
C72 C68 1_555 1_555
C73 C72 1_555 1_555
H65 C73 1_555 1_555
H66 C73 1_555 1_555
C74 C73 1_555 1_555
H67 C74 1_555 1_555
H68 C74 1_555 1_555
C75 C74 1_555 1_555
H69 C75 1_555 1_555
H70 C75 1_555 1_555
C76 C75 1_555 1_555
C77 C76 1_555 1_555
H71 C77 1_555 1_555
C78 C77 1_555 1_555
H72 C78 1_555 1_555
C79 N12 1_555 1_555
H73 C79 1_555 1_555
C80 C76 1_555 1_555
H74 C80 1_555 1_555
O10 Ni2 1_555 1_555
H75 O10 1_555 1_555
H76 O10 1_555 1_555
N13 C82 1_555 1_555
N14 C91 1_555 1_555
C81 H77 1_555 1_555
C82 C81 1_555 1_555
H78 C82 1_555 1_555
C83 N13 1_555 1_555
H79 C83 1_555 1_555
C84 C83 1_555 1_555
H80 C84 1_555 1_555
C85 C81 1_555 1_555
C86 C85 1_555 1_555
H81 C86 1_555 1_555
H82 C86 1_555 1_555
C87 C86 1_555 1_555
H83 C87 1_555 1_555
H84 C87 1_555 1_555
C88 C87 1_555 1_555
H85 C88 1_555 1_555
H86 C88 1_555 1_555
C89 C88 1_555 1_555
C90 C89 1_555 1_555
H87 C90 1_555 1_555
C91 C90 1_555 1_555
H88 C91 1_555 1_555
C92 N14 1_555 1_555
H89 C92 1_555 1_555
C93 C89 1_555 1_555
H90 C93 1_555 1_555
Ni1A O3 1_555 1_555
Ni1G N4 1_555 1_555
O3A Ni1 1_555 1_555
N4G Ni1 1_555 1_555
Ni2F O9 1_555 1_555
Ni2G N10 1_555 1_555
O9F Ni2 1_555 1_555
N10G Ni2 1_555 1_555
C4 C5 1_555 1_555
C6 C7 1_555 1_555
C13 C14 1_555 1_555
C15 C16 1_555 1_555
C18 C19 1_555 1_555
C26 C27 1_555 1_555
C28 C29 1_555 1_555
C31 C32 1_555 1_555
C39 C40 1_555 1_555
C44 C45 1_555 1_555
C46 C47 1_555 1_555
C53 C54 1_555 1_555
C55 C56 1_555 1_555
C58 C59 1_555 1_555
C66 C67 1_555 1_555
C68 C69 1_555 1_555
C71 C72 1_555 1_555
C79 C80 1_555 1_555
C84 C85 1_555 1_555
C92 C93 1_555 1_555

#END
