
#######################################################################
#
#                 Cambridge Crystallographic Data Centre
#                                CCDC 
#
#######################################################################
#
# If this CIF has been generated from an entry in the Cambridge 
# Structural Database, then it will include bibliographic, chemical, 
# crystal, experimental, refinement or atomic coordinate data resulting 
# from the CCDC's data processing and validation procedures.
#
#######################################################################

data_GIKREY
_symmetry_cell_setting           monoclinic
_symmetry_space_group_name_H-M   'C 2/c'
_symmetry_Int_Tables_number      15
_space_group_name_Hall           '-C 2yn'
loop_
_symmetry_equiv_pos_site_id
_symmetry_equiv_pos_as_xyz
1 x,y,z
2 1/2+x,1/2+y,z
3 -x,y,1/2-z
4 1/2-x,1/2+y,1/2-z
5 -x,-y,-z
6 1/2-x,1/2-y,-z
7 x,-y,1/2+z
8 1/2+x,1/2-y,1/2+z
_cell_length_a                   20.914(4)
_cell_length_b                   5.7366(11)
_cell_length_c                   21.963(4)
_cell_angle_alpha                90
_cell_angle_beta                 93.365(3)
_cell_angle_gamma                90
_cell_volume                     2630.47
loop_
_atom_site_label
_atom_site_type_symbol
_atom_site_fract_x
_atom_site_fract_y
_atom_site_fract_z
Cd1 Cd -0.18964(3) 1.31122(10) 0.23998(3)
Cd2 Cd 0.00010(3) 0.80129(10) 0.06264(3)
P1 P -0.20205(10) 0.8082(3) 0.15813(10)
P2 P -0.40817(10) 0.2034(3) 0.56579(10)
O1 O -0.2190(3) 1.0613(10) 0.1632(3)
O2 O -0.2742(3) 0.1627(10) 0.2896(3)
O3 O -0.2751(3) 0.2100(11) 0.4048(3)
H1 H -0.2362 0.2261 0.4099
O4 O -0.0892(3) 0.9477(10) 0.1185(3)
H2 H -0.092(5) 1.067(19) 0.144(5)
O5 O -0.3897(3) -0.1323(11) 0.3277(3)
O6 O -0.4415(3) 0.0099(10) 0.4033(3)
O7 O -0.3404(3) 0.2828(10) 0.5577(3)
O8 O -0.4567(3) 0.3623(10) 0.5320(3)
O9 O -0.4190(3) -0.0498(9) 0.5482(3)
O10 O -0.3815(3) 0.9439(10) 0.1801(3)
H3 H -0.3957 1.0756 0.1742
O11 O -0.4398(3) 0.3650(10) 0.1529(3)
O12 O -0.3649(3) 0.5121(10) 0.2159(3)
C1 C -0.1148(4) 0.7807(13) 0.1580(4)
H7 H -0.4029 0.3127 0.3005
C2 C -0.4067(4) 0.0350(13) 0.3597(4)
C3 C -0.4224(4) 0.7777(13) 0.1480(4)
H8 H -0.4673 0.8159 0.1542
C4 C -0.4070(4) 0.5355(13) 0.1745(4)
Cd1C Cd -0.31036(3) 0.81122(10) 0.26002(3)
Cd1_2 Cd -0.18964(3) 0.31122(10) 0.23998(3)
Cd1C_2 Cd -0.31036(3) -0.18878(10) 0.26002(3)
Cd1E Cd -0.31036(3) 0.18878(10) 0.76002(3)
Cd2C Cd -0.50010(3) 0.30129(10) 0.43736(3)
Cd2G Cd -0.49990(3) 0.69871(10) 0.56264(3)
Cd2G_2 Cd -0.49990(3) -0.30129(10) 0.56264(3)
Cd2A Cd -0.49990(3) 0.30129(10) 0.06264(3)
Cd2E Cd -0.50010(3) 0.69871(10) -0.06264(3)
Cd2A_2 Cd -0.49990(3) 1.30129(10) 0.06264(3)
P1C P -0.29795(10) 0.3082(3) 0.34187(10)
P2F P -0.40817(10) 0.7966(3) 0.06579(10)
O1C O -0.2810(3) 0.5613(10) 0.3368(3)
O2_2 O -0.2742(3) 1.1627(10) 0.2896(3)
O2C O -0.2258(3) 0.6627(10) 0.2104(3)
O2C_2 O -0.2258(3) 1.6627(10) 0.2104(3)
O3C O -0.2249(3) 0.7100(11) 0.0952(3)
H1C H -0.2638 0.7261 0.0901
O4C O -0.4108(3) 0.4477(10) 0.3815(3)
H2C H -0.408(5) 0.567(19) 0.356(5)
O5_2 O -0.3897(3) 0.8677(11) 0.3277(3)
O5C O -0.1103(3) 1.3677(11) 0.1723(3)
O5C_2 O -0.1103(3) 0.3677(11) 0.1723(3)
O6C O -0.0585(3) 0.5099(10) 0.0967(3)
O7F O -0.3404(3) 0.7172(10) 0.0577(3)
O8C O -0.0433(3) 0.8623(10) -0.0320(3)
O8G O 0.0433(3) 1.1377(10) 0.0320(3)
O8D O -0.5433(3) 0.6377(10) 0.4680(3)
O8F O -0.4567(3) 0.6377(10) 0.0320(3)
O9D O -0.5810(3) 0.0498(9) 0.4518(3)
O9G O 0.0810(3) 0.5498(9) 0.0482(3)
O9F O -0.4190(3) 1.0498(9) 0.0482(3)
O10C O -0.1185(3) 1.4439(10) 0.3199(3)
O10F O -0.3815(3) 0.0561(10) 0.6801(3)
H3C H -0.1043 1.5756 0.3258
H3F H -0.3957 -0.0756 0.6742
O11B O -0.5602(3) 0.3650(10) 0.3471(3)
O11A O 0.0602(3) 0.8650(10) 0.1529(3)
O11F O -0.4398(3) 0.6350(10) 0.6529(3)
O12C O -0.1351(3) 1.0121(10) 0.2841(3)
O12F O -0.3649(3) 0.4879(10) 0.7159(3)
C1C C -0.3852(4) 0.2807(13) 0.3420(4)
H7C H -0.0971 0.8127 0.1995
C2C C -0.0933(4) 0.5350(13) 0.1403(4)
C3F C -0.4224(4) 0.2223(13) 0.6480(4)
H8F H -0.4673 0.1841 0.6542
C4F C -0.4070(4) 0.4645(13) 0.6745(4)
N1 N 0.3361(6) 0.3015(19) -0.4824(6)
H4 H 0.3707 0.2311 -0.4952
H5 H 0.3355 0.2882 -0.4420
H6 H 0.3368 0.4517 -0.4925
C5 C 0.2808(5) 0.1963(16) -0.5099(5)
H9 H 0.2811 0.0317 -0.4999
H10 H 0.2819 0.2100 -0.5539
N1E N 0.1639(6) 0.1985(19) -0.5176(6)
H4E H 0.1293 0.2689 -0.5048
H5E H 0.1645 0.2118 -0.5580
H6E H 0.1632 0.0483 -0.5075
C5E C 0.2192(5) 0.3037(16) -0.4901(5)
H9E H 0.2189 0.4683 -0.5001
H10E H 0.2181 0.2900 -0.4461
loop_
_geom_bond_atom_site_label_1
_geom_bond_atom_site_label_2
_geom_bond_site_symmetry_1
_geom_bond_site_symmetry_2
Cd1 O1 1_555 1_555
Cd2 O4 1_555 1_555
P1 O1 1_555 1_555
P2 O7 1_555 1_555
O2 Cd1_2 1_555 1_555
O3 H1 1_555 1_555
O4 H2 1_555 1_555
O5 C2 1_555 1_555
O6 C2 1_555 1_555
O8 P2 1_555 1_555
O9 P2 1_555 1_555
O10 H3 1_555 1_555
O11 C4 1_555 1_555
O12 C4 1_555 1_555
N1 H4 1_555 1_555
H5 N1 1_555 1_555
H6 N1 1_555 1_555
C1 P1 1_555 1_555
H7 C1C 1_555 1_555
C2 C1C 1_555 1_555
C3 O10 1_555 1_555
H8 C3 1_555 1_555
C4 C3 1_555 1_555
C5 N1 1_555 1_555
H9 C5 1_555 1_555
H10 C5 1_555 1_555
Cd1C O10 1_555 1_555
Cd1_2 O2C 1_555 1_555
Cd1C_2 O2 1_555 1_555
Cd1E O10F 1_555 1_555
Cd2C O6 1_555 1_555
Cd2G O8 1_555 1_555
Cd2G_2 O9 1_555 1_555
Cd2A O11 1_555 1_555
Cd2E O8F 1_555 1_555
Cd2A_2 O9F 1_555 1_555
P1C O2 1_555 1_555
P2F C3 1_555 1_555
O1C Cd1C 1_555 1_555
O2_2 Cd1 1_555 1_555
O2C P1 1_555 1_555
O2C_2 Cd1 1_555 1_555
O3C P1 1_555 1_555
H1C O3C 1_555 1_555
O4C Cd2C 1_555 1_555
H2C O4C 1_555 1_555
O5_2 Cd1C 1_555 1_555
O5C Cd1 1_555 1_555
O5C_2 Cd1_2 1_555 1_555
O6C Cd2 1_555 1_555
O7F P2F 1_555 1_555
O8C Cd2 1_555 1_555
O8G Cd2 1_555 1_555
O8D Cd2C 1_555 1_555
O8F Cd2A 1_555 1_555
O9D Cd2C 1_555 1_555
O9G Cd2 1_555 1_555
O9F P2F 1_555 1_555
O10C Cd1 1_555 1_555
O10F H3F 1_555 1_555
H3C O10C 1_555 1_555
O11B Cd2C 1_555 1_555
O11A Cd2 1_555 1_555
O11F Cd2G 1_555 1_555
O12C Cd1 1_555 1_555
O12F Cd1E 1_555 1_555
N1E H4E 1_555 1_555
H5E N1E 1_555 1_555
H6E N1E 1_555 1_555
C1C P1C 1_555 1_555
H7C C1 1_555 1_555
C2C C1 1_555 1_555
C3F P2 1_555 1_555
H8F C3F 1_555 1_555
C4F O11F 1_555 1_555
C5E C5 1_555 1_555
H9E C5E 1_555 1_555
H10E C5E 1_555 1_555
O3 P1C 1_555 1_555
O4 C1 1_555 1_555
O5 Cd1C_2 1_555 1_555
O8 Cd2C 1_555 1_555
O12 Cd1C 1_555 1_555
Cd1C O2_2 1_555 1_555
Cd1C O2C 1_555 1_555
Cd2G O8D 1_555 1_555
P1C O1C 1_555 1_555
P2F O8F 1_555 1_555
O4C C1C 1_555 1_555
O5C_2 C2C 1_555 1_555
O6C C2C 1_555 1_555
O10F C3F 1_555 1_555
O12F C4F 1_555 1_555
N1E C5E 1_555 1_555
C3F C4F 1_555 1_555

#END
