
#######################################################################
#
#                 Cambridge Crystallographic Data Centre
#                                CCDC 
#
#######################################################################
#
# If this CIF has been generated from an entry in the Cambridge 
# Structural Database, then it will include bibliographic, chemical, 
# crystal, experimental, refinement or atomic coordinate data resulting 
# from the CCDC's data processing and validation procedures.
#
#######################################################################

data_GIKRAV
_symmetry_cell_setting           monoclinic
_symmetry_space_group_name_H-M   'P 21/c'
_symmetry_Int_Tables_number      14
_space_group_name_Hall           '-P 2ybc'
loop_
_symmetry_equiv_pos_site_id
_symmetry_equiv_pos_as_xyz
1 x,y,z
2 -x,1/2+y,1/2-z
3 -x,-y,-z
4 x,1/2-y,1/2+z
_cell_length_a                   8.5216(6)
_cell_length_b                   30.4113(15)
_cell_length_c                   11.6223(9)
_cell_angle_alpha                90
_cell_angle_beta                 105.554(3)
_cell_angle_gamma                90
_cell_volume                     2901.65
loop_
_atom_site_label
_atom_site_type_symbol
_atom_site_fract_x
_atom_site_fract_y
_atom_site_fract_z
Zn1 Zn 0.91983(5) 0.065102(13) 0.65192(4)
O1 O 0.8110(3) 0.11800(8) 0.6827(2)
O2 O 0.9806(4) 0.13020(9) 0.8634(2)
O3 O 0.2255(4) 0.51295(9) 0.8940(3)
O4 O 0.1380(4) 0.50818(10) 0.6995(3)
N1 N 0.5300(5) 0.31080(14) 0.7493(3)
N2 N 0.5601(5) 0.32483(15) 0.8411(3)
C1 C 0.8704(5) 0.14147(12) 0.7771(3)
C2 C 0.7871(4) 0.18560(11) 0.7765(3)
C3 C 0.6720(6) 0.20054(14) 0.6768(4)
H1 H 0.6444 0.1833 0.6083
C4 C 0.5975(6) 0.24056(15) 0.6772(5)
H2 H 0.5214 0.2503 0.6086
C5 C 0.6344(5) 0.26635(13) 0.7776(5)
C6 C 0.7499(5) 0.25240(13) 0.8774(4)
H3 H 0.7777 0.2700 0.9454
C7 C 0.8253(5) 0.21200(12) 0.8765(4)
H4 H 0.9029 0.2026 0.9446
C8 C 0.2167(5) 0.49318(12) 0.7960(4)
C9 C 0.3036(4) 0.44997(12) 0.8034(3)
C10 C 0.4186(5) 0.43650(13) 0.9056(4)
H5 H 0.4456 0.4548 0.9721
C11 C 0.4932(5) 0.39611(13) 0.9093(4)
H6 H 0.5701 0.3875 0.9787
C12 C 0.4565(5) 0.36846(13) 0.8131(5)
C13 C 0.2649(5) 0.42200(14) 0.7026(4)
H7 H 0.1892 0.4305 0.6324
C14 C 0.3432(5) 0.38105(14) 0.7108(4)
H8 H 0.3178 0.3621 0.6456
N3 N 1.1613(3) 0.05944(9) 0.7406(3)
N4 N 1.9203(4) 0.08047(9) 1.4773(3)
C15 C 1.3628(5) 0.05260(14) 0.9277(4)
H9 H 1.3867 0.0460 1.0087
C16 C 1.2034(5) 0.05091(13) 0.8591(3)
H10 H 1.1222 0.0437 0.8956
C17 C 1.2857(5) 0.06856(13) 0.6931(4)
H11 H 1.2606 0.0733 0.6111
C18 C 1.4460(5) 0.07137(14) 0.7562(4)
H12 H 1.5254 0.0782 0.7175
C19 C 1.4886(5) 0.06399(13) 0.8778(4)
C20 C 1.6613(5) 0.06993(15) 0.9575(4)
H13 H 1.6880 0.0457 1.0137
H14 H 1.7377 0.0695 0.9088
C21 C 1.6773(5) 0.11303(16) 1.0254(4)
H15 H 1.5987 0.1133 1.0723
H16 H 1.6500 0.1370 0.9683
C22 C 1.8491(6) 0.12143(18) 1.1096(4)
H17 H 1.9283 0.1067 1.0767
H18 H 1.8713 0.1527 1.1101
C23 C 1.8750(4) 0.10621(14) 1.2387(3)
C24 C 1.8488(6) 0.06376(16) 1.2678(4)
H19 H 1.8164 0.0428 1.2079
C25 C 1.8706(6) 0.05184(14) 1.3871(4)
H20 H 1.8498 0.0229 1.4046
C26 C 1.9484(6) 0.12096(13) 1.4459(4)
H21 H 1.9822 0.1419 1.5058
C27 C 1.9306(6) 0.13371(15) 1.3306(4)
H22 H 1.9578 0.1623 1.3154
Zn1_2 Zn 1.91983(5) 0.065102(13) 1.65192(4)
Zn1A Zn 0.08017(5) 0.565102(13) 0.84808(4)
O3A O 0.7745(4) 0.01295(9) 0.6060(3)
N4_2 N 0.9203(4) 0.08047(9) 0.4773(3)
O5 O 1.1192(12) 0.2213(4) 0.6118(10)
N5 N 1.2197(5) 0.22117(15) 0.7789(4)
C28 C 1.2092(15) 0.1916(3) 0.6770(13)
H23 H 1.2492 0.1640 0.6649
C29 C 1.2973(12) 0.2068(5) 0.8909(9)
H24 H 1.2950 0.2294 0.9479
H25 H 1.4083 0.1997 0.8946
H26 H 1.2432 0.1810 0.9091
C30 C 1.1593(11) 0.2641(3) 0.7799(14)
H27 H 1.1035 0.2727 0.6999
H28 H 1.2482 0.2839 0.8114
H29 H 1.0850 0.2650 0.8290
loop_
_geom_bond_atom_site_label_1
_geom_bond_atom_site_label_2
_geom_bond_site_symmetry_1
_geom_bond_site_symmetry_2
Zn1 O1 1_555 1_555
O1 C1 1_555 1_555
O2 C1 1_555 1_555
O3 C8 1_555 1_555
O4 C8 1_555 1_555
N1 N2 1_555 1_555
N2 C12 1_555 1_555
C1 C2 1_555 1_555
C2 C3 1_555 1_555
C3 H1 1_555 1_555
C4 C3 1_555 1_555
H2 C4 1_555 1_555
C5 N1 1_555 1_555
C6 C5 1_555 1_555
H3 C6 1_555 1_555
C7 C2 1_555 1_555
H4 C7 1_555 1_555
C8 C9 1_555 1_555
C9 C10 1_555 1_555
C10 H5 1_555 1_555
C11 C10 1_555 1_555
H6 C11 1_555 1_555
C12 C11 1_555 1_555
C13 C9 1_555 1_555
H7 C13 1_555 1_555
C14 C12 1_555 1_555
H8 C14 1_555 1_555
N3 Zn1 1_555 1_555
N4 C25 1_555 1_555
C15 H9 1_555 1_555
C16 N3 1_555 1_555
H10 C16 1_555 1_555
C17 N3 1_555 1_555
H11 C17 1_555 1_555
C18 C17 1_555 1_555
H12 C18 1_555 1_555
C19 C15 1_555 1_555
C20 C19 1_555 1_555
H13 C20 1_555 1_555
H14 C20 1_555 1_555
C21 C20 1_555 1_555
H15 C21 1_555 1_555
H16 C21 1_555 1_555
C22 C21 1_555 1_555
H17 C22 1_555 1_555
H18 C22 1_555 1_555
C23 C22 1_555 1_555
C24 C23 1_555 1_555
H19 C24 1_555 1_555
C25 C24 1_555 1_555
H20 C25 1_555 1_555
C26 N4 1_555 1_555
H21 C26 1_555 1_555
C27 C23 1_555 1_555
H22 C27 1_555 1_555
O5 C28 1_555 1_555
N5 C28 1_555 1_555
C28 H23 1_555 1_555
C29 N5 1_555 1_555
H24 C29 1_555 1_555
H25 C29 1_555 1_555
H26 C29 1_555 1_555
C30 N5 1_555 1_555
H27 C30 1_555 1_555
H28 C30 1_555 1_555
H29 C30 1_555 1_555
Zn1_2 N4 1_555 1_555
Zn1A O3 1_555 1_555
O3A Zn1 1_555 1_555
N4_2 Zn1 1_555 1_555
C4 C5 1_555 1_555
C6 C7 1_555 1_555
C13 C14 1_555 1_555
C15 C16 1_555 1_555
C18 C19 1_555 1_555
C26 C27 1_555 1_555

#END
