
#######################################################################
#
#                 Cambridge Crystallographic Data Centre
#                                CCDC 
#
#######################################################################
#
# If this CIF has been generated from an entry in the Cambridge 
# Structural Database, then it will include bibliographic, chemical, 
# crystal, experimental, refinement or atomic coordinate data resulting 
# from the CCDC's data processing and validation procedures.
#
#######################################################################

data_GIKVUT
_symmetry_cell_setting           triclinic
_symmetry_space_group_name_H-M   'P -1'
_symmetry_Int_Tables_number      2
_space_group_name_Hall           '-P 1'
loop_
_symmetry_equiv_pos_site_id
_symmetry_equiv_pos_as_xyz
1 x,y,z
2 -x,-y,-z
_cell_length_a                   7.18980(10)
_cell_length_b                   10.04190(10)
_cell_length_c                   12.11000(10)
_cell_angle_alpha                98.042(13)
_cell_angle_beta                 103.190(8)
_cell_angle_gamma                110.599(9)
_cell_volume                     773.238
loop_
_atom_site_label
_atom_site_type_symbol
_atom_site_fract_x
_atom_site_fract_y
_atom_site_fract_z
Pr1 Pr -0.013504(14) 0.109331(11) 0.372909(8)
O1 O -0.3374(2) -0.10371(16) 0.32706(12)
O2 O -0.9121(2) -0.08129(15) 0.43256(12)
O3 O 0.1156(2) 0.38702(16) 0.42285(12)
H1 H 0.028(2) 0.424(2) 0.4040(19)
H2 H 0.178(3) 0.423(3) 0.4947(9)
O4 O -0.3178(2) -0.22916(16) 0.46518(12)
O5 O -0.7428(2) -0.19863(18) 0.52145(12)
C1 C -0.8069(3) -0.1606(2) 0.43274(16)
O6 O -0.2201(3) 0.18709(18) 0.22117(13)
H3 H -0.331(3) 0.130(2) 0.1678(18)
H4 H -0.232(3) 0.2680(14) 0.236(2)
O7 O -0.0772(2) -0.04777(19) 0.17049(13)
H5 H -0.160(3) -0.037(3) 0.1143(16)
H6 H 0.027(2) -0.041(3) 0.1479(18)
O8 O 0.3088(2) 0.1877(2) 0.30778(14)
H7 H 0.330(3) 0.157(3) 0.2455(13)
H8 H 0.426(2) 0.230(3) 0.3584(16)
C2 C -0.7752(3) -0.2098(2) 0.31726(17)
H9 H -0.7084 -0.1239 0.2902
H10 H -0.9102 -0.2673 0.2602
N1 N -0.6838(2) -0.38816(18) 0.20351(13)
C3 C -0.4100(3) -0.2027(2) 0.37637(16)
C4 C -0.6442(3) -0.3002(2) 0.32314(15)
H11 H -0.6852 -0.3679 0.3726
C5 C -0.6652(3) -0.3224(3) 0.11428(18)
H12 H -0.6272 -0.2216 0.1269
C6 C -0.7029(4) -0.4049(3) 0.00490(19)
H13 H -0.6905 -0.3601 -0.0568
C7 C -0.7364(4) -0.5329(2) 0.18683(19)
H14 H -0.7459 -0.5763 0.2495
C8 C -0.7763(4) -0.6178(3) 0.0782(2)
H15 H -0.8153 -0.7186 0.0668
C9 C -0.7585(4) -0.5529(3) -0.0133(2)
H16 H -0.7840 -0.6092 -0.0873
Pr1_2 Pr -1.013504(14) 0.109331(11) 0.372909(8)
Pr1A Pr -0.986496(14) -0.109331(11) 0.627091(8)
Pr1A_2 Pr 0.013504(14) -0.109331(11) 0.627091(8)
O2_2 O 0.0879(2) -0.08129(15) 0.43256(12)
O2A O -0.0879(2) 0.08129(15) 0.56744(12)
O4A O 0.3178(2) 0.22916(16) 0.53482(12)
O5A O -0.2572(2) 0.19863(18) 0.47855(12)
Cl1 Cl 0.30648(9) 0.01711(7) 0.07305(5)
Cl2 Cl -0.23808(10) 0.48272(7) 0.30552(5)
loop_
_geom_bond_atom_site_label_1
_geom_bond_atom_site_label_2
_geom_bond_site_symmetry_1
_geom_bond_site_symmetry_2
Pr1 O1 1_555 1_555
O1 C3 1_555 1_555
O2 C1 1_555 1_555
O3 Pr1 1_555 1_555
H1 O3 1_555 1_555
H2 O3 1_555 1_555
O4 C3 1_555 1_555
O5 C1 1_555 1_555
C1 C2 1_555 1_555
O6 Pr1 1_555 1_555
H3 O6 1_555 1_555
H4 O6 1_555 1_555
O7 Pr1 1_555 1_555
H5 O7 1_555 1_555
H6 O7 1_555 1_555
O8 Pr1 1_555 1_555
H7 O8 1_555 1_555
H8 O8 1_555 1_555
C2 H9 1_555 1_555
H10 C2 1_555 1_555
N1 C4 1_555 1_555
C3 C4 1_555 1_555
C4 C2 1_555 1_555
H11 C4 1_555 1_555
C5 N1 1_555 1_555
H12 C5 1_555 1_555
C6 C5 1_555 1_555
H13 C6 1_555 1_555
C7 N1 1_555 1_555
H14 C7 1_555 1_555
C8 C7 1_555 1_555
H15 C8 1_555 1_555
C9 C6 1_555 1_555
H16 C9 1_555 1_555
Pr1_2 O2 1_555 1_555
Pr1A O2 1_555 1_555
Pr1A_2 O4 1_555 1_555
O2_2 Pr1 1_555 1_555
O2A Pr1 1_555 1_555
O4A Pr1 1_555 1_555
O5A Pr1 1_555 1_555
O5 Pr1A 1_555 1_555
C8 C9 1_555 1_555
Pr1A_2 O2_2 1_555 1_555
Pr1A_2 O2A 1_555 1_555

#END
