
#######################################################################
#
#                 Cambridge Crystallographic Data Centre
#                                CCDC 
#
#######################################################################
#
# If this CIF has been generated from an entry in the Cambridge 
# Structural Database, then it will include bibliographic, chemical, 
# crystal, experimental, refinement or atomic coordinate data resulting 
# from the CCDC's data processing and validation procedures.
#
#######################################################################

data_GIKYIK
_symmetry_cell_setting           triclinic
_symmetry_space_group_name_H-M   'P -1'
_symmetry_Int_Tables_number      2
_space_group_name_Hall           '-P 1'
loop_
_symmetry_equiv_pos_site_id
_symmetry_equiv_pos_as_xyz
1 x,y,z
2 -x,-y,-z
_cell_length_a                   8.820
_cell_length_b                   8.95830(10)
_cell_length_c                   10.4738(5)
_cell_angle_alpha                77.724(17)
_cell_angle_beta                 80.631(17)
_cell_angle_gamma                62.901(11)
_cell_volume                     717.793
loop_
_atom_site_label
_atom_site_type_symbol
_atom_site_fract_x
_atom_site_fract_y
_atom_site_fract_z
Cu1 Cu 0.17717(5) 0.84362(6) 0.56019(5)
O1 O 0.4044(4) 0.8169(4) 0.5768(3)
O2 O 0.2467(4) 0.7541(4) 0.3924(3)
H1 H 0.324(5) 0.656(3) 0.383(5)
H2 H 0.249(7) 0.813(5) 0.318(3)
O3 O 0.1199(4) 0.8885(5) 0.7411(3)
H3 H 0.015(2) 0.922(7) 0.767(6)
H4 H 0.151(6) 0.954(6) 0.765(5)
O4 O 0.4813(4) 0.5422(4) 0.6458(4)
O5 O 0.9432(3) 0.8833(4) 0.5500(3)
O6 O 1.0159(5) 0.6152(5) 0.6276(4)
N1 N 0.7175(4) 0.5808(5) 0.7817(3)
C1 C 0.8388(6) 0.4248(6) 0.8205(5)
H5 H 0.9080 0.3564 0.7588
C2 C 0.8603(8) 0.3664(7) 0.9515(6)
H6 H 0.9435 0.2580 0.9788
C3 C 0.7584(8) 0.4686(8) 1.0425(6)
H7 H 0.7727 0.4303 1.1315
C4 C 0.6354(8) 0.6278(8) 1.0001(5)
H8 H 0.5650 0.6982 1.0603
C5 C 0.6174(6) 0.6816(7) 0.8701(5)
H9 H 0.5346 0.7898 0.8414
C6 C 0.5101(5) 0.6663(6) 0.6188(4)
C7 C 0.6903(5) 0.6427(6) 0.6383(4)
H10 H 0.7735 0.5522 0.5902
C8 C 0.7227(5) 0.7965(6) 0.5903(5)
H11 H 0.6540 0.8818 0.6457
H12 H 0.6866 0.8432 0.5021
C9 C 0.9076(5) 0.7590(5) 0.5898(5)
Cu1_2 Cu 1.17717(5) 0.84362(6) 0.56019(5)
Cu1A Cu 0.82283(5) 1.15638(6) 0.43981(5)
O5_2 O -0.0568(3) 0.8833(4) 0.5500(3)
O5A O 0.0568(3) 1.1167(4) 0.4500(3)
Cl1 Cl 0.25265(19) 0.9914(2) 0.13851(13)
O7 O 0.2634(7) 1.0445(7) 0.8313(4)
H13 H 0.262(11) 1.032(9) 0.9141(12)
H14 H 0.279(12) 1.133(7) 0.803(6)
O8 O 1.3020(6) 0.3232(6) 0.6897(5)
H15 H 1.381(6) 0.338(8) 0.713(7)
H16 H 1.221(7) 0.422(4) 0.676(9)
loop_
_geom_bond_atom_site_label_1
_geom_bond_atom_site_label_2
_geom_bond_site_symmetry_1
_geom_bond_site_symmetry_2
Cu1 O1 1_555 1_555
O1 C6 1_555 1_555
O2 Cu1 1_555 1_555
H1 O2 1_555 1_555
H2 O2 1_555 1_555
O3 Cu1 1_555 1_555
H3 O3 1_555 1_555
H4 O3 1_555 1_555
O4 C6 1_555 1_555
O5 C9 1_555 1_555
O6 C9 1_555 1_555
N1 C1 1_555 1_555
C1 H5 1_555 1_555
C2 C1 1_555 1_555
H6 C2 1_555 1_555
C3 C2 1_555 1_555
H7 C3 1_555 1_555
C4 C3 1_555 1_555
H8 C4 1_555 1_555
C5 N1 1_555 1_555
H9 C5 1_555 1_555
C6 C7 1_555 1_555
C7 N1 1_555 1_555
H10 C7 1_555 1_555
C8 C7 1_555 1_555
H11 C8 1_555 1_555
H12 C8 1_555 1_555
C9 C8 1_555 1_555
O7 H13 1_555 1_555
H14 O7 1_555 1_555
O8 H15 1_555 1_555
H16 O8 1_555 1_555
Cu1_2 O5 1_555 1_555
Cu1A O5 1_555 1_555
O5_2 Cu1 1_555 1_555
O5A Cu1 1_555 1_555
C4 C5 1_555 1_555

#END
