
#######################################################################
#
#                 Cambridge Crystallographic Data Centre
#                                CCDC 
#
#######################################################################
#
# If this CIF has been generated from an entry in the Cambridge 
# Structural Database, then it will include bibliographic, chemical, 
# crystal, experimental, refinement or atomic coordinate data resulting 
# from the CCDC's data processing and validation procedures.
#
#######################################################################

data_GIKYEG
_symmetry_cell_setting           monoclinic
_symmetry_space_group_name_H-M   'P 21/c'
_symmetry_Int_Tables_number      14
_space_group_name_Hall           '-P 2ybc'
loop_
_symmetry_equiv_pos_site_id
_symmetry_equiv_pos_as_xyz
1 x,y,z
2 -x,1/2+y,1/2-z
3 -x,-y,-z
4 x,1/2-y,1/2+z
_cell_length_a                   12.865(4)
_cell_length_b                   9.172(3)
_cell_length_c                   15.432(5)
_cell_angle_alpha                90
_cell_angle_beta                 113.897(5)
_cell_angle_gamma                90
_cell_volume                     1664.84
loop_
_atom_site_label
_atom_site_type_symbol
_atom_site_fract_x
_atom_site_fract_y
_atom_site_fract_z
Er1 Er 0.645081(8) 0.086476(10) 0.092132(7)
O1 O 0.54432(12) 0.86995(16) -0.00346(11)
O2 O 0.83523(14) 0.11010(18) 0.18936(15)
H1 H 0.8889(5) 0.0481(7) 0.206(2)
H2 H 0.8693(8) 0.1918(6) 0.203(2)
N1 N 0.81256(15) 0.6227(2) -0.00109(13)
O3 O 0.57741(13) -0.04603(18) 0.18947(11)
H3 H 0.5406(5) -0.0096(9) 0.2188(5)
H4 H 0.5708(13) -0.1373(5) 0.1933(12)
O4 O 0.71749(12) 0.83884(17) 0.10184(12)
O5 O 0.70021(15) 0.07317(17) -0.03225(13)
H5 H 0.7164(7) 0.0157(7) -0.0678(5)
H6 H 0.7214(9) 0.1571(6) -0.0419(10)
O6 O 0.63067(14) 0.2373(2) 0.20940(12)
H7 H 0.6881(5) 0.2007(13) 0.2537(7)
H8 H 0.5769(4) 0.228(3) 0.2276(5)
O7 O 0.67064(12) 0.32425(17) 0.05985(12)
O8 O 0.77059(14) 0.3365(2) -0.02932(13)
C1 C 0.72502(18) 0.3911(2) 0.02011(18)
C2 C 0.63014(16) 0.7881(2) 0.03756(15)
C3 C 0.62292(17) 0.6320(2) 0.00614(18)
H9 H 0.5876 0.6287 -0.0626
H10 H 0.5744 0.5790 0.0296
C4 C 0.73733(17) 0.5563(2) 0.04007(16)
H11 H 0.7745 0.5690 0.1090
C5 C 0.7833(2) 0.6193(3) -0.09574(19)
H12 H 0.7146 0.5775 -0.1355
C6 C 0.9544(2) 0.7365(4) -0.0740(2)
H13 H 1.0037 0.7744 -0.0988
C7 C 0.8536(2) 0.6767(4) -0.1331(2)
H14 H 0.8331 0.6752 -0.1982
C8 C 0.91041(19) 0.6831(3) 0.05629(18)
H15 H 0.9291 0.6859 0.1211
C9 C 0.9836(2) 0.7409(4) 0.0218(2)
H16 H 1.0520 0.7826 0.0624
Er1_2 Er 0.645081(8) 1.086476(10) 0.092132(7)
Er1B Er 0.354919(8) 0.913524(10) -0.092132(7)
O1_2 O 0.54432(12) -0.13005(16) -0.00346(11)
O1B O 0.45568(12) 0.13005(16) 0.00346(11)
O4_2 O 0.71749(12) -0.16116(17) 0.10184(12)
Cl1 Cl 1.04722(6) -0.08419(7) 0.24885(5)
O9 O 1.24979(19) -0.0230(3) 0.19380(17)
H17 H 1.2224(12) -0.0946(7) 0.1555(5)
H18 H 1.1967(4) -0.0095(18) 0.2131(5)
Cl2 Cl 0.48367(8) 0.12914(12) 0.31387(7)
Cl3? Cl 0.44252(18) 0.1236(3) 0.27808(16)
loop_
_geom_bond_atom_site_label_1
_geom_bond_atom_site_label_2
_geom_bond_site_symmetry_1
_geom_bond_site_symmetry_2
Er1 O2 1_555 1_555
O1 C2 1_555 1_555
O2 H1 1_555 1_555
H2 O2 1_555 1_555
N1 C4 1_555 1_555
O3 Er1 1_555 1_555
H3 O3 1_555 1_555
H4 O3 1_555 1_555
O4 C2 1_555 1_555
O5 Er1 1_555 1_555
H5 O5 1_555 1_555
H6 O5 1_555 1_555
O6 Er1 1_555 1_555
H7 O6 1_555 1_555
H8 O6 1_555 1_555
O7 Er1 1_555 1_555
O8 C1 1_555 1_555
C1 O7 1_555 1_555
C2 C3 1_555 1_555
C3 H9 1_555 1_555
H10 C3 1_555 1_555
C4 C1 1_555 1_555
H11 C4 1_555 1_555
C5 N1 1_555 1_555
H12 C5 1_555 1_555
C6 H13 1_555 1_555
C7 C5 1_555 1_555
H14 C7 1_555 1_555
C8 N1 1_555 1_555
H15 C8 1_555 1_555
C9 C6 1_555 1_555
H16 C9 1_555 1_555
O9 H17 1_555 1_555
H18 O9 1_555 1_555
Er1_2 O1 1_555 1_555
Er1B O1 1_555 1_555
O1_2 Er1 1_555 1_555
O1B Er1 1_555 1_555
O4_2 Er1 1_555 1_555
O4 Er1_2 1_555 1_555
C3 C4 1_555 1_555
C6 C7 1_555 1_555
C8 C9 1_555 1_555

#END
