
#######################################################################
#
#                 Cambridge Crystallographic Data Centre
#                                CCDC 
#
#######################################################################
#
# If this CIF has been generated from an entry in the Cambridge 
# Structural Database, then it will include bibliographic, chemical, 
# crystal, experimental, refinement or atomic coordinate data resulting 
# from the CCDC's data processing and validation procedures.
#
#######################################################################

data_GILNOG
_symmetry_cell_setting           monoclinic
_symmetry_space_group_name_H-M   'P 21/c'
_symmetry_Int_Tables_number      14
_space_group_name_Hall           '-P 2ybc'
loop_
_symmetry_equiv_pos_site_id
_symmetry_equiv_pos_as_xyz
1 x,y,z
2 -x,1/2+y,1/2-z
3 -x,-y,-z
4 x,1/2-y,1/2+z
_cell_length_a                   14.523(5)
_cell_length_b                   16.589(6)
_cell_length_c                   9.114(3)
_cell_angle_alpha                90
_cell_angle_beta                 107.907(10)
_cell_angle_gamma                90
_cell_volume                     2089.39
loop_
_atom_site_label
_atom_site_type_symbol
_atom_site_fract_x
_atom_site_fract_y
_atom_site_fract_z
Cu1 Cu 0.26096(2) 0.673847(19) 0.83271(4)
O1 O 0.27528(15) 0.72970(12) 1.0242(2)
O2 O 0.37228(14) 0.73896(11) 1.2678(2)
O3 O 0.26672(14) 0.60434(11) 0.6644(2)
O4 O 0.37147(19) 0.52245(16) 0.6064(3)
O5 O 0.1430(2) 0.52847(17) 0.8278(3)
N1 N 0.35651(15) 0.59680(13) 0.9689(3)
N2 N 0.01630(15) 0.75026(13) 0.4786(2)
N3 N 0.14651(16) 0.73766(13) 0.7140(3)
N4 N -0.05076(16) 0.87521(13) 0.3808(2)
H1 H -0.0558 0.9275 0.3952
N5 N 0.09392(16) 0.94834(13) 0.6709(3)
N6 N 0.19325(17) 0.86485(14) 0.8457(3)
H2 H 0.2379 0.8494 0.9304
C1 C 0.4138(2) 0.6471(2) 1.0983(4)
H3 H 0.4656 0.6747 1.0678
H4 H 0.4448 0.6126 1.1885
C2 C 0.3512(2) 0.70958(17) 1.1392(3)
C3 C 0.4079(3) 0.5630(2) 0.8642(4)
H5 H 0.4285 0.5073 0.8972
H6 H 0.4666 0.5952 0.8725
C4 C 0.3437(2) 0.56211(19) 0.6983(3)
C5 C 0.3031(3) 0.5310(2) 1.0314(4)
H7 H 0.3509 0.4918 1.0931
H8 H 0.2702 0.5561 1.1003
C6 C 0.2288(3) 0.4884(2) 0.9009(4)
C7 C 0.0877(2) 0.47854(19) 0.7113(4)
H9 H 0.0258 0.4912 0.6417
C8 C 0.1371(3) 0.4090(2) 0.7094(5)
H10 H 0.1142 0.3630 0.6467
C9 C 0.2276(3) 0.4183(3) 0.8184(5)
H11 H 0.2806 0.3822 0.8359
C10 C 0.08084(18) 0.70924(16) 0.5856(3)
H12 H 0.0811 0.6526 0.5707
C11 C 0.14090(17) 0.81871(15) 0.7282(3)
C12 C 0.07804(17) 0.86658(15) 0.6254(3)
C13 C 0.01365(18) 0.83247(14) 0.4925(3)
C14 C 0.1619(2) 0.94105(17) 0.8052(3)
H13 H 0.1868 0.9861 0.8695
C15 C -0.11359(17) 0.83838(15) 0.2355(3)
H14 H -0.0918 0.7826 0.2264
H15 H -0.1070 0.8695 0.1466
C16 C -0.2199(2) 0.83721(16) 0.2285(3)
C17 C -0.2898(2) 0.8675(2) 0.1004(4)
H16 H -0.2709 0.8900 0.0182
C18 C -0.3866(3) 0.8644(3) 0.0891(5)
H17 H -0.4341 0.8883 0.0043
C19 C -0.4123(3) 0.8254(2) 0.2072(5)
H18 H -0.4790 0.8169 0.1943
C20 C -0.3461(3) 0.8004(3) 0.3388(5)
H19 H -0.3653 0.7822 0.4238
C21 C -0.2474(3) 0.8018(2) 0.3490(5)
H20 H -0.2003 0.7783 0.4347
Cu1C Cu 0.26096(2) 0.826153(19) 1.33271(4)
O2C O 0.37228(14) 0.76104(11) 0.7678(2)
loop_
_geom_bond_atom_site_label_1
_geom_bond_atom_site_label_2
_geom_bond_site_symmetry_1
_geom_bond_site_symmetry_2
Cu1 O1 1_555 1_555
O1 C2 1_555 1_555
O2 C2 1_555 1_555
O3 Cu1 1_555 1_555
O4 C4 1_555 1_555
O5 C6 1_555 1_555
N1 Cu1 1_555 1_555
N2 C10 1_555 1_555
N3 Cu1 1_555 1_555
N4 H1 1_555 1_555
N5 C12 1_555 1_555
N6 H2 1_555 1_555
C1 N1 1_555 1_555
H3 C1 1_555 1_555
H4 C1 1_555 1_555
C2 C1 1_555 1_555
C3 N1 1_555 1_555
H5 C3 1_555 1_555
H6 C3 1_555 1_555
C4 O3 1_555 1_555
C5 N1 1_555 1_555
H7 C5 1_555 1_555
H8 C5 1_555 1_555
C6 C5 1_555 1_555
C7 O5 1_555 1_555
H9 C7 1_555 1_555
C8 C7 1_555 1_555
H10 C8 1_555 1_555
C9 C6 1_555 1_555
H11 C9 1_555 1_555
C10 N3 1_555 1_555
H12 C10 1_555 1_555
C11 N3 1_555 1_555
C12 C11 1_555 1_555
C13 N2 1_555 1_555
C14 N5 1_555 1_555
H13 C14 1_555 1_555
C15 N4 1_555 1_555
H14 C15 1_555 1_555
H15 C15 1_555 1_555
C16 C15 1_555 1_555
C17 C16 1_555 1_555
H16 C17 1_555 1_555
C18 C17 1_555 1_555
H17 C18 1_555 1_555
C19 C18 1_555 1_555
H18 C19 1_555 1_555
C20 C19 1_555 1_555
H19 C20 1_555 1_555
C21 C16 1_555 1_555
H20 C21 1_555 1_555
Cu1C O2 1_555 1_555
O2C Cu1 1_555 1_555
N4 C13 1_555 1_555
N6 C11 1_555 1_555
N6 C14 1_555 1_555
C3 C4 1_555 1_555
C8 C9 1_555 1_555
C12 C13 1_555 1_555
C20 C21 1_555 1_555

#END
