
#######################################################################
#
#                 Cambridge Crystallographic Data Centre
#                                CCDC 
#
#######################################################################
#
# If this CIF has been generated from an entry in the Cambridge 
# Structural Database, then it will include bibliographic, chemical, 
# crystal, experimental, refinement or atomic coordinate data resulting 
# from the CCDC's data processing and validation procedures.
#
#######################################################################

data_GILRID
_symmetry_cell_setting           orthorhombic
_symmetry_space_group_name_H-M   'P n a 21'
_symmetry_Int_Tables_number      33
_space_group_name_Hall           'P 2c -2n'
loop_
_symmetry_equiv_pos_site_id
_symmetry_equiv_pos_as_xyz
1 x,y,z
2 -x,-y,1/2+z
3 1/2+x,1/2-y,z
4 1/2-x,1/2+y,1/2+z
_cell_length_a                   15.6698(7)
_cell_length_b                   10.7097(5)
_cell_length_c                   17.2643(8)
_cell_angle_alpha                90
_cell_angle_beta                 90
_cell_angle_gamma                90
_cell_volume                     2897.28
loop_
_atom_site_label
_atom_site_type_symbol
_atom_site_fract_x
_atom_site_fract_y
_atom_site_fract_z
Fe1 Fe 0.77519(3) 0.52095(4) 0.69638(3)
Na1 Na 0.97124(8) 0.36066(11) 0.47317(7)
S1 S 0.72153(6) 0.70790(10) 0.65577(6)
N1 N 0.8165(2) 0.4403(3) 0.62192(17)
N2 N 0.69813(19) 0.4441(3) 0.74530(18)
N3 N 0.86217(16) 0.6162(2) 0.75677(14)
O1 O 0.8368(2) 0.3673(3) 0.57448(17)
O2 O 0.64808(19) 0.3690(3) 0.76427(18)
O3 O 0.93935(18) 0.6376(2) 0.86949(15)
O4 O 0.97426(18) 0.1183(2) 0.48553(18)
O5 O 0.85721(18) 0.2436(3) 0.39889(16)
O6 O 0.8467(2) 0.4975(3) 0.40156(17)
O7 O 0.97054(18) 0.5919(2) 0.49641(16)
O8 O 1.0219(2) 0.4346(3) 0.61182(19)
O9 O 1.1198(2) 0.2491(3) 0.53302(18)
C1 C 0.8171(2) 0.7872(3) 0.67581(18)
C2 C 0.8336(3) 0.9027(4) 0.6410(2)
H1 H 0.7935 0.9359 0.6052
C3 C 0.9063(3) 0.9690(3) 0.6573(3)
H2 H 0.9154 1.0482 0.6339
C4 C 0.9657(3) 0.9211(4) 0.7071(3)
H3 H 1.0163 0.9669 0.7177
C5 C 0.9527(2) 0.8052(3) 0.7429(2)
H4 H 0.9943 0.7726 0.7774
C6 C 0.8783(2) 0.7375(3) 0.72744(17)
C7 C 0.8968(2) 0.5757(3) 0.82354(18)
C8 C 0.8762(2) 0.4427(3) 0.84397(19)
C9 C 0.8429(2) 0.4158(4) 0.9163(2)
H5 H 0.8341 0.4815 0.9523
C10 C 0.8223(3) 0.2948(4) 0.9368(3)
H6 H 0.7984 0.2779 0.9864
C11 C 0.8363(3) 0.1993(4) 0.8856(3)
H7 H 0.8216 0.1163 0.8996
C12 C 0.8712(3) 0.2226(4) 0.8146(3)
H8 H 0.8816 0.1556 0.7798
C13 C 0.8915(2) 0.3448(3) 0.7932(2)
H9 H 0.9159 0.3609 0.7438
C14 C 0.9180(3) 0.0546(4) 0.4353(3)
H10 H 0.9056 -0.0295 0.4562
H11 H 0.9450 0.0445 0.3838
C15 C 0.8385(3) 0.1252(4) 0.4274(3)
H12 H 0.7994 0.0814 0.3915
H13 H 0.8100 0.1322 0.4784
C16 C 0.7851(3) 0.3072(5) 0.3704(3)
H14 H 0.7437 0.3220 0.4127
H15 H 0.7569 0.2572 0.3295
C17 C 0.8156(3) 0.4277(4) 0.3382(2)
H16 H 0.8615 0.4134 0.2998
H17 H 0.7682 0.4726 0.3125
C18 C 0.8890(3) 0.6051(4) 0.3801(3)
H18 H 0.8503 0.6595 0.3497
H19 H 0.9387 0.5840 0.3473
C19 C 0.9180(3) 0.6719(3) 0.4510(3)
H20 H 0.9505 0.7475 0.4362
H21 H 0.8678 0.6984 0.4818
C20 C 0.9885(3) 0.6406(3) 0.5688(3)
H22 H 0.9346 0.6499 0.5983
H23 H 1.0140 0.7246 0.5627
C21 C 1.0479(3) 0.5605(4) 0.6133(3)
H24 H 1.1059 0.5676 0.5911
H25 H 1.0502 0.5897 0.6677
C22 C 1.0811(3) 0.3536(5) 0.6502(3)
H26 H 1.0502 0.2795 0.6698
H27 H 1.1058 0.3979 0.6953
C23 C 1.1519(3) 0.3113(5) 0.5983(3)
H28 H 1.1857 0.3846 0.5815
H29 H 1.1902 0.2547 0.6274
C24 C 1.1089(3) 0.1198(4) 0.5454(3)
H30 H 1.0802 0.1056 0.5958
H31 H 1.1653 0.0781 0.5469
C25 C 1.0569(3) 0.0669(4) 0.4823(3)
H32 H 1.0835 0.0863 0.4317
H33 H 1.0538 -0.0250 0.4878
Na1A Na 1.02876(8) 0.63934(11) 0.97317(7)
O3A O 1.06065(18) 0.3624(2) 0.36949(15)
loop_
_geom_bond_atom_site_label_1
_geom_bond_atom_site_label_2
_geom_bond_site_symmetry_1
_geom_bond_site_symmetry_2
Fe1 S1 1_555 1_555
Na1 O1 1_555 1_555
S1 C1 1_555 1_555
N1 Fe1 1_555 1_555
N2 Fe1 1_555 1_555
N3 Fe1 1_555 1_555
O1 N1 1_555 1_555
O2 N2 1_555 1_555
O3 C7 1_555 1_555
O4 Na1 1_555 1_555
O5 Na1 1_555 1_555
O6 Na1 1_555 1_555
O7 Na1 1_555 1_555
O8 Na1 1_555 1_555
O9 Na1 1_555 1_555
C1 C2 1_555 1_555
C2 H1 1_555 1_555
C3 C2 1_555 1_555
H2 C3 1_555 1_555
C4 C3 1_555 1_555
H3 C4 1_555 1_555
C5 C4 1_555 1_555
H4 C5 1_555 1_555
C6 N3 1_555 1_555
C7 N3 1_555 1_555
C8 C7 1_555 1_555
C9 C8 1_555 1_555
H5 C9 1_555 1_555
C10 C9 1_555 1_555
H6 C10 1_555 1_555
C11 C10 1_555 1_555
H7 C11 1_555 1_555
C12 C11 1_555 1_555
H8 C12 1_555 1_555
C13 C8 1_555 1_555
H9 C13 1_555 1_555
C14 O4 1_555 1_555
H10 C14 1_555 1_555
H11 C14 1_555 1_555
C15 O5 1_555 1_555
H12 C15 1_555 1_555
H13 C15 1_555 1_555
C16 O5 1_555 1_555
H14 C16 1_555 1_555
H15 C16 1_555 1_555
C17 O6 1_555 1_555
H16 C17 1_555 1_555
H17 C17 1_555 1_555
C18 O6 1_555 1_555
H18 C18 1_555 1_555
H19 C18 1_555 1_555
C19 O7 1_555 1_555
H20 C19 1_555 1_555
H21 C19 1_555 1_555
C20 O7 1_555 1_555
H22 C20 1_555 1_555
H23 C20 1_555 1_555
C21 O8 1_555 1_555
H24 C21 1_555 1_555
H25 C21 1_555 1_555
C22 O8 1_555 1_555
H26 C22 1_555 1_555
H27 C22 1_555 1_555
C23 O9 1_555 1_555
H28 C23 1_555 1_555
H29 C23 1_555 1_555
C24 O9 1_555 1_555
H30 C24 1_555 1_555
H31 C24 1_555 1_555
C25 O4 1_555 1_555
H32 C25 1_555 1_555
H33 C25 1_555 1_555
Na1A O3 1_555 1_555
O3A Na1 1_555 1_555
C1 C6 1_555 1_555
C5 C6 1_555 1_555
C12 C13 1_555 1_555
C14 C15 1_555 1_555
C16 C17 1_555 1_555
C18 C19 1_555 1_555
C20 C21 1_555 1_555
C22 C23 1_555 1_555
C24 C25 1_555 1_555

#END
