
#######################################################################
#
#                 Cambridge Crystallographic Data Centre
#                                CCDC 
#
#######################################################################
#
# If this CIF has been generated from an entry in the Cambridge 
# Structural Database, then it will include bibliographic, chemical, 
# crystal, experimental, refinement or atomic coordinate data resulting 
# from the CCDC's data processing and validation procedures.
#
#######################################################################

data_GIMBUA
_symmetry_cell_setting           monoclinic
_symmetry_space_group_name_H-M   'P 21/n'
_symmetry_Int_Tables_number      14
_space_group_name_Hall           '-P 2yn'
loop_
_symmetry_equiv_pos_site_id
_symmetry_equiv_pos_as_xyz
1 x,y,z
2 1/2-x,1/2+y,1/2-z
3 -x,-y,-z
4 1/2+x,1/2-y,1/2+z
_cell_length_a                   17.5929(11)
_cell_length_b                   7.5729(5)
_cell_length_c                   18.2241(12)
_cell_angle_alpha                90
_cell_angle_beta                 105.211(2)
_cell_angle_gamma                90
_cell_volume                     2342.92
loop_
_atom_site_label
_atom_site_type_symbol
_atom_site_fract_x
_atom_site_fract_y
_atom_site_fract_z
Cd1 Cd 0.13287(2) 0.08899(5) 0.42654(2)
Cd2 Cd -0.13106(2) -0.11943(5) 0.33405(2)
O1 O 0.0084(2) -0.1038(4) 0.3956(2)
O2 O 0.1706(2) -0.2100(5) 0.4478(2)
O3 O 0.1721(2) -0.6073(4) 0.4436(2)
O4 O 0.0158(2) -0.7279(5) 0.4078(2)
O5 O -0.0919(2) -0.4087(5) 0.3704(2)
O6 O 0.2782(2) 0.0884(5) 0.4569(2)
O7 O 0.4428(3) 0.0991(7) 0.5526(3)
O8 O 0.4345(2) 0.1229(7) 0.7126(3)
O9 O 0.2670(2) 0.1483(5) 0.7095(2)
O10 O 0.1746(2) 0.1069(4) 0.5565(2)
O11 O -0.1397(2) 0.1776(5) 0.3380(2)
H1 H -0.0897 0.2155 0.3512
H2 H -0.1653 0.2356 0.2958
N1 N 0.1390(3) 0.0663(6) 0.3053(3)
N2 N 0.1235(3) 0.1311(6) -0.2118(3)
C1 C 0.0317(3) -0.2613(7) 0.4079(3)
C2 C 0.1139(3) -0.3128(7) 0.4326(3)
C3 C 0.1145(3) -0.5058(6) 0.4320(3)
C4 C 0.0336(3) -0.5673(7) 0.4118(3)
C5 C -0.0187(3) -0.4155(7) 0.3948(3)
C6 C 0.3008(3) 0.0970(6) 0.5271(3)
C7 C 0.3830(3) 0.1017(8) 0.5752(4)
C8 C 0.3789(3) 0.1162(8) 0.6559(3)
C9 C 0.2953(3) 0.1267(7) 0.6540(3)
C10 C 0.2507(3) 0.1074(6) 0.5775(3)
C11 C 0.1969(4) -0.0174(9) 0.2854(3)
H3 H 0.2346 -0.0764 0.3228
C12 C 0.2036(4) -0.0206(9) 0.2119(3)
H4 H 0.2451 -0.0811 0.2006
C13 C 0.1487(4) 0.0660(9) 0.1545(3)
C14 C 0.0903(4) 0.1505(10) 0.1759(4)
H5 H 0.0523 0.2124 0.1400
C15 C 0.0865(4) 0.1457(10) 0.2505(3)
H6 H 0.0445 0.2018 0.2627
C16 C 0.1553(4) 0.0624(9) 0.0759(3)
H7 H 0.1996 0.0076 0.0674
C17 C 0.1047(4) 0.1290(9) 0.0169(4)
H8 H 0.0599 0.1819 0.0249
C18 C 0.0572(4) 0.1756(10) -0.1945(4)
H9 H 0.0140 0.2076 -0.2338
C19 C 0.0491(4) 0.1769(10) -0.1210(4)
H10 H 0.0018 0.2105 -0.1114
C20 C 0.1131(4) 0.1271(8) -0.0617(3)
C21 C 0.1810(4) 0.0826(8) -0.0804(3)
H11 H 0.2254 0.0511 -0.0424
C22 C 0.1842(4) 0.0839(8) -0.1549(4)
H12 H 0.2308 0.0503 -0.1659
Cd1_2 Cd 0.13287(2) -0.91101(5) 0.42654(2)
Cd2B Cd 0.13106(2) 0.11943(5) 0.66595(2)
Cd2B_2 Cd 0.13106(2) 0.11943(5) -0.33405(2)
O3_2 O 0.1721(2) 0.3927(4) 0.4436(2)
O4_2 O 0.0158(2) 0.2721(5) 0.4078(2)
O9B O -0.2670(2) -0.1483(5) 0.2905(2)
O10B O -0.1746(2) -0.1069(4) 0.4435(2)
N2B N -0.1235(3) -0.1311(6) 0.2118(3)
O12 O 0.4079(5) 0.0745(11) 0.2319(4)
H13 H 0.3561 0.1011 0.2096
H14 H 0.4175 0.1115 0.2810
O13 O 0.3957(4) 0.0709(10) 0.3801(4)
H15 H 0.3667 0.0324 0.3337
H16 H 0.4291 -0.0174 0.4002
loop_
_geom_bond_atom_site_label_1
_geom_bond_atom_site_label_2
_geom_bond_site_symmetry_1
_geom_bond_site_symmetry_2
Cd1 O1 1_555 1_555
Cd2 O1 1_555 1_555
O1 C1 1_555 1_555
O2 Cd1 1_555 1_555
O3 C3 1_555 1_555
O4 C4 1_555 1_555
O5 Cd2 1_555 1_555
O6 Cd1 1_555 1_555
O7 C7 1_555 1_555
O8 C8 1_555 1_555
O9 C9 1_555 1_555
O10 Cd1 1_555 1_555
O11 Cd2 1_555 1_555
H1 O11 1_555 1_555
H2 O11 1_555 1_555
N1 Cd1 1_555 1_555
N2 C18 1_555 1_555
C1 C2 1_555 1_555
C2 O2 1_555 1_555
C3 C2 1_555 1_555
C4 C3 1_555 1_555
C5 O5 1_555 1_555
C6 O6 1_555 1_555
C7 C6 1_555 1_555
C8 C7 1_555 1_555
C9 C8 1_555 1_555
C10 O10 1_555 1_555
C11 N1 1_555 1_555
H3 C11 1_555 1_555
C12 C11 1_555 1_555
H4 C12 1_555 1_555
C13 C12 1_555 1_555
C14 C13 1_555 1_555
H5 C14 1_555 1_555
C15 N1 1_555 1_555
H6 C15 1_555 1_555
C16 C13 1_555 1_555
H7 C16 1_555 1_555
C17 C16 1_555 1_555
H8 C17 1_555 1_555
C18 H9 1_555 1_555
C19 C18 1_555 1_555
H10 C19 1_555 1_555
C20 C17 1_555 1_555
C21 C20 1_555 1_555
H11 C21 1_555 1_555
C22 N2 1_555 1_555
H12 C22 1_555 1_555
O12 H13 1_555 1_555
H14 O12 1_555 1_555
O13 H15 1_555 1_555
H16 O13 1_555 1_555
Cd1_2 O3 1_555 1_555
Cd2B O9 1_555 1_555
Cd2B_2 N2 1_555 1_555
O3_2 Cd1 1_555 1_555
O4_2 Cd1 1_555 1_555
O9B Cd2 1_555 1_555
O10B Cd2 1_555 1_555
N2B Cd2 1_555 1_555
O4 Cd1_2 1_555 1_555
O10 Cd2B 1_555 1_555
C1 C5 1_555 1_555
C4 C5 1_555 1_555
C6 C10 1_555 1_555
C9 C10 1_555 1_555
C14 C15 1_555 1_555
C19 C20 1_555 1_555
C21 C22 1_555 1_555

#END
