
#######################################################################
#
#                 Cambridge Crystallographic Data Centre
#                                CCDC 
#
#######################################################################
#
# If this CIF has been generated from an entry in the Cambridge 
# Structural Database, then it will include bibliographic, chemical, 
# crystal, experimental, refinement or atomic coordinate data resulting 
# from the CCDC's data processing and validation procedures.
#
#######################################################################

data_GIMBIN01
_symmetry_cell_setting           tetragonal
_symmetry_space_group_name_H-M   'P 41 21 2'
_symmetry_Int_Tables_number      92
_space_group_name_Hall           'P 4abw 2nw'
loop_
_symmetry_equiv_pos_site_id
_symmetry_equiv_pos_as_xyz
1 x,y,z
2 1/2-y,1/2+x,1/4+z
3 1/2+x,1/2-y,3/4-z
4 -x,-y,1/2+z
5 y,x,-z
6 1/2+y,1/2-x,3/4+z
7 1/2-x,1/2+y,1/4-z
8 -y,-x,1/2-z
_cell_length_a                   8.220(2)
_cell_length_b                   8.220(2)
_cell_length_c                   16.918(5)
_cell_angle_alpha                90
_cell_angle_beta                 90
_cell_angle_gamma                90
_cell_volume                     1143.12
loop_
_atom_site_label
_atom_site_type_symbol
_atom_site_fract_x
_atom_site_fract_y
_atom_site_fract_z
Mn1 Mn -0.2101(2) -0.2101(2) 0.0000
N1 N -0.0757(7) -0.3514(7) -0.0874(3)
N2 N 0.0420(6) -0.3844(5) -0.1216(2)
N3 N 0.1566(7) -0.4237(6) -0.1566(3)
N4 N -0.0162(10) -0.0162(10) 0.0000
N5 N 0.5919(9) 0.5919(9) 0.0000
C1 C 0.1410(6) -0.0548(6) -0.0010(3)
C2 C 0.2636(6) 0.0596(6) -0.0018(3)
C3 C 0.2235(12) 0.2235(12) 0.0000
C4 C 0.3516(11) 0.3516(11) 0.0000
C5 C 0.4997(6) 0.3277(7) -0.0375(3)
C6 C 0.6144(6) 0.4497(6) -0.0363(3)
H1 H 0.1672 -0.1649 -0.0074
H2 H 0.3569 0.0174 0.0050
H3 H 0.5336 0.2255 -0.0567
H4 H 0.4373 0.7098 0.0652
N3A N -0.0763(6) -0.3434(7) 0.0934(3)
Mn1E Mn 0.2899(2) -0.2899(2) -0.2500
Mn1B Mn -0.7101(2) -0.2899(2) -0.2500
N1B N -0.5757(7) -0.1486(7) -0.1626(3)
N2B N -0.4580(6) -0.1156(5) -0.1284(2)
N3B N -0.3434(7) -0.0763(6) -0.0934(3)
N1D N -0.3514(7) -0.0757(7) 0.0874(3)
C2D C 0.0596(6) 0.2636(6) 0.0018(3)
C1D C -0.0548(6) 0.1410(6) 0.0010(3)
H1D H -0.1649 0.1672 0.0074
H2D H 0.0174 0.3569 -0.0050
N5_2 N -0.4081(9) -0.4081(9) 0.0000
Mn1_2 Mn 0.7899(2) 0.7899(2) 0.0000
C6D C 0.4497(6) 0.6144(6) 0.0363(3)
C5D C 0.3277(7) 0.4997(6) 0.0375(3)
H3D H 0.2255 0.5336 0.0567
H4D H 0.7098 0.4373 -0.0652
loop_
_geom_bond_atom_site_label_1
_geom_bond_atom_site_label_2
_geom_bond_site_symmetry_1
_geom_bond_site_symmetry_2
Mn1 N1 1_555 1_555
N1 N2 1_555 1_555
N2 N3 1_555 1_555
N3 Mn1E 1_555 1_555
N4 Mn1 1_555 1_555
N5 C6 1_555 1_555
C1 N4 1_555 1_555
C2 C1 1_555 1_555
C3 C2 1_555 1_555
C4 C3 1_555 1_555
C5 C4 1_555 1_555
C6 C5 1_555 1_555
H1 C1 1_555 1_555
H2 C2 1_555 1_555
H3 C5 1_555 1_555
H4 C6D 1_555 1_555
N3A Mn1 1_555 1_555
Mn1B N1B 1_555 1_555
N1B N2B 1_555 1_555
N2B N3B 1_555 1_555
N3B Mn1 1_555 1_555
N1D Mn1 1_555 1_555
C2D C3 1_555 1_555
C1D N4 1_555 1_555
H1D C1D 1_555 1_555
H2D C2D 1_555 1_555
N5_2 Mn1 1_555 1_555
Mn1_2 N5 1_555 1_555
C6D N5 1_555 1_555
C5D C4 1_555 1_555
H3D C5D 1_555 1_555
H4D C6 1_555 1_555
C2D C1D 1_555 1_555
C6D C5D 1_555 1_555

#END
