
#######################################################################
#
#                 Cambridge Crystallographic Data Centre
#                                CCDC 
#
#######################################################################
#
# If this CIF has been generated from an entry in the Cambridge 
# Structural Database, then it will include bibliographic, chemical, 
# crystal, experimental, refinement or atomic coordinate data resulting 
# from the CCDC's data processing and validation procedures.
#
#######################################################################

data_GIMBIN05
_symmetry_cell_setting           tetragonal
_symmetry_space_group_name_H-M   'P 43 21 2'
_symmetry_Int_Tables_number      96
_space_group_name_Hall           'P 4nw 2abw'
loop_
_symmetry_equiv_pos_site_id
_symmetry_equiv_pos_as_xyz
1 x,y,z
2 -x,-y,1/2+z
3 1/2-y,1/2+x,3/4+z
4 1/2+y,1/2-x,1/4+z
5 1/2-x,1/2+y,3/4-z
6 1/2+x,1/2-y,1/4-z
7 y,x,-z
8 -y,-x,1/2-z
_cell_length_a                   8.229(2)
_cell_length_b                   8.229(2)
_cell_length_c                   16.915(7)
_cell_angle_alpha                90
_cell_angle_beta                 90
_cell_angle_gamma                90
_cell_volume                     1145.42
loop_
_atom_site_label
_atom_site_type_symbol
_atom_site_fract_x
_atom_site_fract_y
_atom_site_fract_z
Mn1 Mn -1.70953(6) -1.29047(6) -0.2500
N1 N -2.5160(3) -0.4840(3) -0.2500
N2 N -1.9074(3) -1.0926(3) -0.2500
N3 N -1.8519(5) -1.4246(5) -0.1618(2)
N4 N -1.8851(4) -1.5426(4) -0.12816(18)
N5 N -1.9223(5) -1.6579(5) -0.0938(2)
C1 C -2.3577(4) -0.4454(4) -0.2514(3)
H1 H -2.3290 -0.3361 -0.2527
C2 C -2.2350(4) -0.5604(4) -0.2509(2)
H2 H -2.1267 -0.5282 -0.2512
C3 C -2.2752(4) -0.7248(4) -0.2500
C4 C -2.1480(4) -0.8520(4) -0.2500
C5 C -2.1717(4) -1.0013(4) -0.2124(2)
H3 H -2.2691 -1.0234 -0.1868
C6 C -2.0509(4) -1.1141(4) -0.2138(2)
H4 H -1.7878 -0.9311 -0.3120
Mn1_2 Mn -2.70953(6) -0.29047(6) -0.2500
C2G C -2.4396(4) -0.7650(4) -0.2491(2)
C1G C -2.5546(4) -0.6423(4) -0.2486(3)
H1G H -2.6639 -0.6710 -0.2473
H2G H -2.4718 -0.8733 -0.2488
N1_2 N -1.5160(3) -1.4840(3) -0.2500
Mn1C Mn -1.79047(6) -1.79047(6) 0.0000
N3G N -1.5754(5) -1.1481(5) -0.3382(2)
N4G N -1.4574(4) -1.1149(4) -0.37184(18)
N5G N -1.3421(5) -1.0777(5) -0.4062(2)
Mn1B Mn -1.20953(6) -1.20953(6) -0.5000
N5D N -1.5777(5) -1.1579(5) -0.1562(2)
N5B N -1.8421(5) -1.4223(5) -0.3438(2)
C6G C -1.8859(4) -0.9491(4) -0.2862(2)
C5G C -1.9987(4) -0.8283(4) -0.2876(2)
H3G H -1.9766 -0.7309 -0.3132
H4G H -2.0689 -1.2122 -0.1880
loop_
_geom_bond_atom_site_label_1
_geom_bond_atom_site_label_2
_geom_bond_site_symmetry_1
_geom_bond_site_symmetry_2
Mn1 N2 1_555 1_555
N1 C1 1_555 1_555
N2 C6 1_555 1_555
N3 Mn1 1_555 1_555
N4 N3 1_555 1_555
N5 N4 1_555 1_555
C1 H1 1_555 1_555
C2 C1 1_555 1_555
H2 C2 1_555 1_555
C3 C2 1_555 1_555
C4 C3 1_555 1_555
C5 C4 1_555 1_555
H3 C5 1_555 1_555
C6 C5 1_555 1_555
H4 C6G 1_555 1_555
Mn1_2 N1 1_555 1_555
C2G C3 1_555 1_555
C1G N1 1_555 1_555
H1G C1G 1_555 1_555
H2G C2G 1_555 1_555
N1_2 Mn1 1_555 1_555
Mn1C N5 1_555 1_555
N3G Mn1 1_555 1_555
N4G N3G 1_555 1_555
N5G N4G 1_555 1_555
Mn1B N5G 1_555 1_555
N5D Mn1 1_555 1_555
N5B Mn1 1_555 1_555
C6G N2 1_555 1_555
C5G C4 1_555 1_555
H3G C5G 1_555 1_555
H4G C6 1_555 1_555
C2G C1G 1_555 1_555
C6G C5G 1_555 1_555

#END
