
#######################################################################
#
#                 Cambridge Crystallographic Data Centre
#                                CCDC 
#
#######################################################################
#
# If this CIF has been generated from an entry in the Cambridge 
# Structural Database, then it will include bibliographic, chemical, 
# crystal, experimental, refinement or atomic coordinate data resulting 
# from the CCDC's data processing and validation procedures.
#
#######################################################################

data_GIMCIP
_symmetry_cell_setting           triclinic
_symmetry_space_group_name_H-M   'P -1'
_symmetry_Int_Tables_number      2
_space_group_name_Hall           '-P 1'
loop_
_symmetry_equiv_pos_site_id
_symmetry_equiv_pos_as_xyz
1 x,y,z
2 -x,-y,-z
_cell_length_a                   10.727(3)
_cell_length_b                   16.014(4)
_cell_length_c                   23.426(6)
_cell_angle_alpha                98.86(5)
_cell_angle_beta                 92.60(5)
_cell_angle_gamma                94.44(5)
_cell_volume                     3957.51
loop_
_atom_site_label
_atom_site_type_symbol
_atom_site_fract_x
_atom_site_fract_y
_atom_site_fract_z
Zn1 Zn 0.5000 0.5000 1.0000
Zn2 Zn 0.24747(4) 0.00284(3) 0.49578(2)
Zn3 Zn 0.0000 0.5000 1.0000
P1 P 0.24942(10) 0.43982(7) 1.07349(5)
P2 P 0.26143(10) 0.57816(7) 0.92711(5)
P3 P 0.51397(10) 0.12501(7) 0.47563(5)
P4 P -0.00012(10) -0.12670(7) 0.52341(5)
O1 O 0.2988(3) 0.34657(18) 1.06748(13)
O2 O 0.2309(3) 0.67553(17) 0.92996(13)
O3 O 0.2769(3) 0.54421(19) 0.85936(12)
O4 O 0.2334(2) 0.46453(19) 1.14159(12)
O5 O 0.1472(2) 0.53525(17) 0.94545(12)
O6 O 0.1210(2) 0.43480(16) 1.04698(11)
O7 O 0.3867(2) 0.57439(17) 0.95404(12)
O8 O 0.3531(2) 0.49474(17) 1.05628(11)
O9 O 0.0331(3) -0.15934(18) 0.58338(12)
O10 O 0.1222(2) -0.10335(17) 0.50131(12)
O11 O 0.3820(2) 0.10450(17) 0.48603(12)
O12 O -0.0969(2) -0.06632(17) 0.53241(12)
O13 O 0.5731(3) 0.20161(18) 0.52338(14)
O14 O -0.0686(2) -0.20801(17) 0.48220(13)
O15 O 0.6061(2) 0.06118(17) 0.47245(13)
O16 O 0.5072(3) 0.1666(2) 0.41763(14)
O17 O -0.3965(6) -0.2568(4) 0.7388(3)
O18 O -0.2804(6) -0.1678(7) 0.7989(3)
O19 O 0.1596(4) -0.5598(2) 0.44079(17)
O20 O -0.0055(4) -0.5856(2) 0.38381(18)
O21 O 0.3472(4) 0.5535(2) 0.55643(17)
O22 O 0.5165(4) 0.5827(2) 0.61123(17)
O23 O 0.8931(6) 0.2613(4) 0.2428(3)
O24 O 0.8388(6) 0.1316(5) 0.2070(2)
O25 O -0.1370(6) 0.3537(4) 0.6821(2)
O26 O -0.1923(5) 0.4820(5) 0.6867(2)
O27 O 0.5245(6) 1.0227(3) 0.9167(3)
O28 O 0.5209(6) 0.9631(4) 0.8282(3)
O29 O -0.0346(7) 0.0226(4) 1.0996(4)
O30 O 0.1010(6) -0.0310(3) 1.0473(3)
O31 O 0.6605(5) 0.6539(4) 1.3146(2)
O32 O 0.6845(4) 0.5241(4) 1.32408(19)
N1 N -0.3019(7) -0.2063(6) 0.7523(3)
N2 N 0.0645(4) -0.5380(3) 0.41905(19)
N3 N 0.4433(4) 0.5331(3) 0.57817(18)
N4 N 0.8343(6) 0.1949(5) 0.2427(3)
N5 N -0.1236(6) 0.4292(6) 0.7000(2)
N6 N 0.5007(6) 0.9628(4) 0.8795(4)
N7 N 0.0542(8) 0.0292(4) 1.0731(3)
N8 N 0.6311(5) 0.5779(5) 1.3037(2)
N9 N 0.0440(3) -0.3834(2) 0.05823(15)
N10 N 0.2635(3) -0.0486(2) 0.40515(15)
N11 N 0.2340(3) 0.0646(2) 0.58367(14)
N12 N 0.4304(3) 0.3819(2) 0.94696(14)
C1 C 0.0923(4) -0.2289(3) 0.1339(2)
C2 C 0.0608(4) -0.3796(3) 0.11544(19)
H1 H 0.0532 -0.4303 0.1302
C3 C 0.2902(4) 0.0032(3) 0.3668(2)
H2 H 0.2982 0.0609 0.3802
C4 C 0.0776(4) -0.2323(3) 0.0742(2)
H3 H 0.0830 -0.1824 0.0588
C5 C 0.2715(4) -0.1636(3) 0.3270(2)
H4 H 0.2618 -0.2218 0.3149
C6 C 0.1131(5) -0.1432(3) 0.1742(2)
H5 H 0.0562 -0.1066 0.1691
H6 H 0.1052 -0.1605 0.2144
C7 C 0.2528(4) -0.1313(3) 0.3838(2)
H7 H 0.2332 -0.1683 0.4092
C8 C 0.0850(4) -0.3049(3) 0.1536(2)
H8 H 0.0977 -0.3057 0.1930
C9 C 0.3007(4) -0.1098(3) 0.2881(2)
C10 C 0.3270(5) -0.1412(4) 0.2258(2)
H9 H 0.4054 -0.1524 0.2184
H10 H 0.3043 -0.2100 0.2175
C11 C 0.2473(5) -0.1083(3) 0.1808(2)
H11 H 0.2801 -0.1090 0.1412
H12 H 0.2469 -0.0424 0.1944
C12 C 0.3092(4) -0.0247(3) 0.3095(2)
H13 H 0.3268 0.0141 0.2849
C13 C 0.0541(4) -0.3096(3) 0.0387(2)
H14 H 0.0371 -0.3111 0.0043
C14 C 0.2553(4) 0.2879(3) 0.90496(18)
H15 H 0.1699 0.2796 0.8953
C15 C 0.3389(4) 0.0970(3) 0.6152(2)
H16 H 0.4141 0.0952 0.5972
C16 C 0.4564(4) 0.2388(3) 0.90472(19)
H17 H 0.5096 0.1973 0.8944
C17 C 0.2690(5) 0.1345(3) 0.8655(2)
H18 H 0.1815 0.1306 0.8744
H19 H 0.3102 0.0932 0.8842
C18 C 0.5030(4) 0.3183(3) 0.93198(19)
H20 H 0.5884 0.3280 0.9417
C19 C 0.3408(4) 0.1340(3) 0.6720(2)
H21 H 0.4159 0.1547 0.6922
C20 C 0.3085(4) 0.3654(3) 0.93251(17)
H22 H 0.2569 0.4088 0.9424
C21 C 0.1224(5) 0.1072(3) 0.6674(2)
H23 H 0.0512 0.1204 0.6836
C22 C 0.3292(4) 0.2214(3) 0.89143(18)
C23 C 0.2785(5) 0.1113(3) 0.8013(2)
H24 H 0.2414 0.0544 0.7879
H25 H 0.3719 0.1074 0.7927
C24 C 0.2306(4) 0.1398(3) 0.7006(2)
C25 C 0.2320(5) 0.1740(3) 0.7640(2)
H26 H 0.2735 0.2314 0.7750
H27 H 0.1400 0.1817 0.7743
C26 C 0.1275(4) 0.0718(3) 0.61057(19)
H28 H 0.0532 0.0534 0.5887
C27 C -0.0548(4) -0.1711(3) 0.6234(2)
C28 C -0.1529(5) -0.2329(3) 0.6118(3)
H29 H -0.1623 -0.2665 0.5756
C29 C -0.2343(6) -0.2439(4) 0.6541(3)
H30 H -0.3087 -0.2844 0.6416
C30 C -0.2164(6) -0.1947(4) 0.7062(3)
C31 C -0.1192(6) -0.1337(4) 0.7197(3)
H31 H -0.0989 -0.1004 0.7566
C32 C -0.0385(5) -0.1210(4) 0.6767(2)
H32 H 0.0278 -0.0793 0.6839
C33 C -0.0254(4) -0.2872(3) 0.46680(18)
C34 C -0.1008(4) -0.3422(3) 0.42591(19)
H33 H -0.1709 -0.3229 0.4090
C35 C -0.0715(4) -0.4242(3) 0.4105(2)
H34 H -0.1126 -0.4581 0.3802
C36 C 0.1108(5) -0.3954(3) 0.4751(2)
H35 H 0.172(4) -0.411(3) 0.4887(19)
C37 C 0.0338(4) -0.4501(3) 0.43553(19)
C38 C 0.0824(4) -0.3129(3) 0.4911(2)
H36 H 0.1331 -0.2753 0.5183
C39 C 0.5319(4) 0.2817(3) 0.5368(2)
C40 C 0.6076(4) 0.3383(3) 0.5762(2)
H37 H 0.6784 0.3201 0.5931
C41 C 0.5793(4) 0.4208(3) 0.5899(2)
H38 H 0.6295 0.4594 0.6163
C42 C 0.4731(4) 0.4452(3) 0.5644(2)
C43 C 0.3949(5) 0.3888(3) 0.5259(2)
H39 H 0.332(4) 0.406(2) 0.5114(17)
C44 C 0.4232(4) 0.3062(3) 0.5120(2)
H40 H 0.3729 0.2680 0.4862
C45 C 0.5971(4) 0.1724(3) 0.3782(2)
C46 C 0.6639(5) 0.2479(3) 0.3762(3)
H41 H 0.6503 0.2937 0.4051
C47 C 0.7420(5) 0.2548(4) 0.3318(3)
H42 H 0.7898 0.3049 0.3299
C48 C 0.7513(5) 0.1860(4) 0.2909(2)
C49 C 0.6889(6) 0.1107(4) 0.2931(3)
H43 H 0.701(6) 0.064(4) 0.261(3)
C50 C 0.6111(5) 0.1035(3) 0.3376(2)
H44 H 0.5687 0.0518 0.3410
C51 C 0.1753(4) 0.5186(3) 0.82019(18)
C52 C 0.0888(5) 0.5733(4) 0.8077(2)
H45 H 0.0910 0.6243 0.8272
C53 C -0.0081(5) 0.5445(5) 0.7668(2)
H46 H -0.0670 0.5906 0.7602
C54 C -0.0156(5) 0.4636(5) 0.7408(2)
C55 C 0.0713(6) 0.4077(4) 0.7506(2)
H47 H 0.061(5) 0.348(3) 0.730(2)
C56 C 0.1687(5) 0.4362(4) 0.7916(2)
H48 H 0.2299 0.4015 0.8001
C57 C 0.3086(4) 0.7427(3) 0.9173(2)
C58 C 0.3083(6) 0.8170(3) 0.9537(3)
H49 H 0.2626 0.8195 0.9866
C59 C 0.3757(8) 0.8892(4) 0.9422(4)
H50 H 0.375(6) 0.936(4) 0.968(3)
C60 C 0.4367(5) 0.8848(4) 0.8936(3)
C61 C 0.4374(6) 0.8114(4) 0.8570(3)
H51 H 0.4926 0.8081 0.8289
C62 C 0.3763(6) 0.7389(3) 0.8702(3)
H52 H 0.3816 0.6872 0.8465
C63 C 0.2306(4) 0.2706(3) 1.06902(19)
C64 C 0.2825(6) 0.2001(3) 1.0420(2)
H53 H 0.3306 0.2086 1.0122
C65 C 0.2241(7) 0.1214(4) 1.0429(3)
H54 H 0.2289 0.0766 1.0163
C66 C 0.1152(7) 0.1143(3) 1.0709(3)
C67 C 0.0631(6) 0.1839(3) 1.0985(3)
H55 H 0.0062 0.1705 1.1214
C68 C 0.1227(5) 0.2635(3) 1.0976(2)
H56 H 0.0909 0.3112 1.1167
C69 C 0.3361(4) 0.4922(3) 1.18036(19)
C70 C 0.3921(5) 0.4345(4) 1.2079(2)
H57 H 0.3761 0.3814 1.1987
C71 C 0.4897(5) 0.4628(4) 1.2490(2)
H58 H 0.5313 0.4256 1.2682
C72 C 0.5267(5) 0.5476(4) 1.2600(2)
C73 C 0.4709(5) 0.6058(4) 1.2333(2)
H59 H 0.4986 0.6627 1.2425
C74 C 0.3745(5) 0.5768(4) 1.1917(2)
H60 H 0.3362 0.6147 1.1721
Zn2A Zn 0.75253(4) 0.99716(3) 1.50422(2)
Zn2A_2 Zn -0.24747(4) -0.00284(3) 0.50422(2)
Zn2A_3 Zn 0.75253(4) -0.00284(3) 0.50422(2)
Zn2_2 Zn 0.24747(4) 1.00284(3) 1.49578(2)
Zn3_2 Zn 0.0000 -0.5000 0.0000
Zn3_3 Zn 1.0000 0.5000 1.0000
P1A P 0.75058(10) 0.56018(7) 0.92651(5)
P2A P 0.73857(10) 0.42184(7) 1.07289(5)
P3A P 0.48603(10) -0.12501(7) 0.52437(5)
P4A P 0.00012(10) 0.12670(7) 0.47659(5)
O1A O 0.7012(3) 0.65343(18) 0.93252(13)
O2A O 0.7691(3) 0.32447(17) 1.07004(13)
O3A O 0.7231(3) 0.45579(19) 1.14064(12)
O4A O 0.7666(2) 0.53547(19) 0.85841(12)
O5A O 0.8528(2) 0.46475(17) 1.05455(12)
O5A_2 O -0.1472(2) 0.46475(17) 1.05455(12)
O6A O 0.8790(2) 0.56520(16) 0.95302(11)
O6A_2 O -0.1210(2) 0.56520(16) 0.95302(11)
O7A O 0.6133(2) 0.42561(17) 1.04596(12)
O8A O 0.6469(2) 0.50526(17) 0.94372(11)
O9A O -0.0331(3) 0.15934(18) 0.41662(12)
O10A O -0.1222(2) 0.10335(17) 0.49869(12)
O10A_2 O 0.8778(2) 1.10335(17) 1.49869(12)
O11A O 0.6180(2) -0.10450(17) 0.51397(12)
O11A_2 O 0.6180(2) 0.89550(17) 1.51397(12)
O12A O 0.0969(2) 0.06632(17) 0.46759(12)
O12_2 O 0.9031(2) 0.93368(17) 1.53241(12)
O13A O 0.4269(3) -0.20161(18) 0.47662(14)
O14A O 0.0686(2) 0.20801(17) 0.51780(13)
O15A O 0.3939(2) -0.06118(17) 0.52755(13)
O15_2 O 0.6061(2) 1.06118(17) 1.47245(13)
O16A O 0.4928(3) -0.1666(2) 0.58237(14)
O17A O 0.3965(6) 0.2568(4) 0.2612(3)
O18A O 0.2804(6) 0.1678(7) 0.2011(3)
O19A O -0.1596(4) 0.5598(2) 0.55921(17)
O20A O 0.0055(4) 0.5856(2) 0.61619(18)
O21A O 0.6528(4) -0.5535(2) 0.44357(17)
O22A O 0.4835(4) -0.5827(2) 0.38877(17)
O23A O 0.1069(6) -0.2613(4) 0.7572(3)
O24A O 0.1612(6) -0.1316(5) 0.7930(2)
O25A O 1.1370(6) 0.6463(4) 1.3179(2)
O26A O 1.1923(5) 0.5180(5) 1.3133(2)
O27A O 0.4755(6) -0.0227(3) 1.0833(3)
O28A O 0.4791(6) 0.0369(4) 1.1718(3)
O29A O 1.0346(7) 0.9774(4) 0.9004(4)
O30A O 0.8990(6) 1.0310(3) 0.9527(3)
O31A O 0.3395(5) 0.3461(4) 0.6854(2)
O32A O 0.3155(4) 0.4759(4) 0.67592(19)
N1A N 0.3019(7) 0.2063(6) 0.2477(3)
N2A N -0.0645(4) 0.5380(3) 0.58095(19)
N3A N 0.5567(4) -0.5331(3) 0.42183(18)
N4A N 0.1657(6) -0.1949(5) 0.7573(3)
N5A N 1.1236(6) 0.5708(6) 1.3000(2)
N6A N 0.4993(6) 0.0372(4) 1.1205(4)
N7A N 0.9458(8) 0.9708(4) 0.9269(3)
N8A N 0.3689(5) 0.4221(5) 0.6963(2)
N9_2 N 0.0440(3) 0.6166(2) 1.05823(15)
N9A N -0.0440(3) 0.3834(2) 0.94177(15)
N10_2 N 0.2635(3) 0.9514(2) 1.40515(15)
N10A N 0.7365(3) 1.0486(2) 1.59485(15)
N11A N 0.7660(3) 0.9354(2) 1.41633(14)
N12A N 0.5696(3) 0.6181(2) 1.05304(14)
C1_2 C 0.0923(4) 0.7711(3) 1.1339(2)
C2_2 C 0.0608(4) 0.6204(3) 1.11544(19)
H1_2 H 0.0532 0.5697 1.1302
C3_2 C 0.2902(4) 1.0032(3) 1.3668(2)
H2_2 H 0.2982 1.0609 1.3802
C4_2 C 0.0776(4) 0.7677(3) 1.0742(2)
H3_2 H 0.0830 0.8176 1.0588
C5_2 C 0.2715(4) 0.8364(3) 1.3270(2)
H4_2 H 0.2618 0.7782 1.3149
C6_2 C 0.1131(5) 0.8568(3) 1.1742(2)
H5_2 H 0.0562 0.8934 1.1691
H6_2 H 0.1052 0.8395 1.2144
C7_2 C 0.2528(4) 0.8687(3) 1.3838(2)
H7_2 H 0.2332 0.8317 1.4092
C8_2 C 0.0850(4) 0.6951(3) 1.1536(2)
H8_2 H 0.0977 0.6943 1.1930
C9_2 C 0.3007(4) 0.8902(3) 1.2881(2)
C10_2 C 0.3270(5) 0.8588(4) 1.2258(2)
H9_2 H 0.4054 0.8476 1.2184
H10_2 H 0.3043 0.7900 1.2175
C11_2 C 0.2473(5) 0.8917(3) 1.1808(2)
H11_2 H 0.2801 0.8910 1.1412
H12_2 H 0.2469 0.9576 1.1944
C12_2 C 0.3092(4) 0.9753(3) 1.3095(2)
H13_2 H 0.3268 1.0141 1.2849
C13_2 C 0.0541(4) 0.6904(3) 1.0387(2)
H14_2 H 0.0371 0.6889 1.0043
C14A C 0.7447(4) 0.7121(3) 1.09504(18)
H15A H 0.8301 0.7204 1.1047
C15A C 0.6611(4) 0.9030(3) 1.3848(2)
H16A H 0.5859 0.9048 1.4028
C16A C 0.5436(4) 0.7612(3) 1.09528(19)
H17A H 0.4904 0.8027 1.1056
C17A C 0.7310(5) 0.8655(3) 1.1345(2)
H18A H 0.8185 0.8694 1.1256
H19A H 0.6898 0.9068 1.1158
C18A C 0.4970(4) 0.6817(3) 1.06802(19)
H20A H 0.4116 0.6720 1.0583
C19A C 0.6592(4) 0.8660(3) 1.3280(2)
H21A H 0.5841 0.8453 1.3078
C20A C 0.6915(4) 0.6346(3) 1.06749(17)
H22A H 0.7431 0.5912 1.0576
C21A C 0.8776(5) 0.8928(3) 1.3326(2)
H23A H 0.9488 0.8796 1.3164
C22A C 0.6708(4) 0.7786(3) 1.10857(18)
C23A C 0.7215(5) 0.8887(3) 1.1987(2)
H24A H 0.7586 0.9456 1.2121
H25A H 0.6281 0.8926 1.2073
C24A C 0.7694(4) 0.8602(3) 1.2994(2)
C25A C 0.7680(5) 0.8260(3) 1.2360(2)
H26A H 0.7265 0.7686 1.2250
H27A H 0.8600 0.8183 1.2257
C26A C 0.8725(4) 0.9282(3) 1.38943(19)
H28A H 0.9468 0.9466 1.4113
C27A C 0.0548(4) 0.1711(3) 0.3766(2)
C28A C 0.1529(5) 0.2329(3) 0.3882(3)
H29A H 0.1623 0.2665 0.4244
C29A C 0.2343(6) 0.2439(4) 0.3459(3)
H30A H 0.3087 0.2844 0.3584
C30A C 0.2164(6) 0.1947(4) 0.2938(3)
C31A C 0.1192(6) 0.1337(4) 0.2803(3)
H31A H 0.0989 0.1004 0.2434
C32A C 0.0385(5) 0.1210(4) 0.3233(2)
H32A H -0.0278 0.0793 0.3161
C33A C 0.0254(4) 0.2872(3) 0.53320(18)
C34A C 0.1008(4) 0.3422(3) 0.57409(19)
H33A H 0.1709 0.3229 0.5910
C35A C 0.0715(4) 0.4242(3) 0.5895(2)
H34A H 0.1126 0.4581 0.6198
C36A C -0.1108(5) 0.3954(3) 0.5249(2)
H35A H -0.172(4) 0.411(3) 0.5113(19)
C37A C -0.0338(4) 0.4501(3) 0.56447(19)
C38A C -0.0824(4) 0.3129(3) 0.5089(2)
H36A H -0.1331 0.2753 0.4817
C39A C 0.4681(4) -0.2817(3) 0.4632(2)
C40A C 0.3924(4) -0.3383(3) 0.4238(2)
H37A H 0.3216 -0.3201 0.4069
C41A C 0.4207(4) -0.4208(3) 0.4101(2)
H38A H 0.3705 -0.4594 0.3837
C42A C 0.5269(4) -0.4452(3) 0.4356(2)
C43A C 0.6051(5) -0.3888(3) 0.4741(2)
H39A H 0.668(4) -0.406(2) 0.4886(17)
C44A C 0.5768(4) -0.3062(3) 0.4880(2)
H40A H 0.6271 -0.2680 0.5138
C45A C 0.4029(4) -0.1724(3) 0.6218(2)
C46A C 0.3361(5) -0.2479(3) 0.6238(3)
H41A H 0.3497 -0.2937 0.5949
C47A C 0.2580(5) -0.2548(4) 0.6682(3)
H42A H 0.2102 -0.3049 0.6701
C48A C 0.2487(5) -0.1860(4) 0.7091(2)
C49A C 0.3111(6) -0.1107(4) 0.7069(3)
H43A H 0.299(6) -0.064(4) 0.739(3)
C50A C 0.3889(5) -0.1035(3) 0.6624(2)
H44A H 0.4313 -0.0518 0.6590
C51A C 0.8247(4) 0.4814(3) 1.17981(18)
C52A C 0.9112(5) 0.4267(4) 1.1923(2)
H45A H 0.9090 0.3757 1.1728
C53A C 1.0081(5) 0.4555(5) 1.2332(2)
H46A H 1.0670 0.4094 1.2398
C54A C 1.0156(5) 0.5364(5) 1.2592(2)
C55A C 0.9287(6) 0.5923(4) 1.2494(2)
H47A H 0.939(5) 0.652(3) 1.270(2)
C56A C 0.8313(5) 0.5638(4) 1.2084(2)
H48A H 0.7701 0.5985 1.1999
C57A C 0.6914(4) 0.2573(3) 1.0827(2)
C58A C 0.6917(6) 0.1830(3) 1.0463(3)
H49A H 0.7374 0.1805 1.0134
C59A C 0.6243(8) 0.1108(4) 1.0578(4)
H50A H 0.625(6) 0.064(4) 1.032(3)
C60A C 0.5633(5) 0.1152(4) 1.1064(3)
C61A C 0.5626(6) 0.1886(4) 1.1430(3)
H51A H 0.5074 0.1919 1.1711
C62A C 0.6237(6) 0.2611(3) 1.1298(3)
H52A H 0.6184 0.3128 1.1535
C63A C 0.7694(4) 0.7294(3) 0.93098(19)
C64A C 0.7175(6) 0.7999(3) 0.9580(2)
H53A H 0.6694 0.7914 0.9878
C65A C 0.7759(7) 0.8786(4) 0.9571(3)
H54A H 0.7711 0.9234 0.9837
C66A C 0.8848(7) 0.8857(3) 0.9291(3)
C67A C 0.9369(6) 0.8161(3) 0.9015(3)
H55A H 0.9938 0.8295 0.8786
C68A C 0.8773(5) 0.7365(3) 0.9024(2)
H56A H 0.9091 0.6888 0.8833
C69A C 0.6639(4) 0.5078(3) 0.81964(19)
C70A C 0.6079(5) 0.5655(4) 0.7921(2)
H57A H 0.6239 0.6186 0.8013
C71A C 0.5103(5) 0.5372(4) 0.7510(2)
H58A H 0.4687 0.5744 0.7318
C72A C 0.4733(5) 0.4524(4) 0.7400(2)
C73A C 0.5291(5) 0.3942(4) 0.7667(2)
H59A H 0.5014 0.3373 0.7575
C74A C 0.6255(5) 0.4232(4) 0.8083(2)
H60A H 0.6638 0.3853 0.8279
loop_
_geom_bond_atom_site_label_1
_geom_bond_atom_site_label_2
_geom_bond_site_symmetry_1
_geom_bond_site_symmetry_2
Zn1 O7 1_555 1_555
Zn2 O10 1_555 1_555
Zn3 O5 1_555 1_555
P1 O1 1_555 1_555
P2 O2 1_555 1_555
P3 O11 1_555 1_555
P4 O9 1_555 1_555
O1 C63 1_555 1_555
O2 C57 1_555 1_555
O3 P2 1_555 1_555
O4 P1 1_555 1_555
O5 P2 1_555 1_555
O6 Zn3 1_555 1_555
O7 P2 1_555 1_555
O8 Zn1 1_555 1_555
O9 C27 1_555 1_555
O10 P4 1_555 1_555
O11 Zn2 1_555 1_555
O12 P4 1_555 1_555
O13 P3 1_555 1_555
O14 P4 1_555 1_555
O15 P3 1_555 1_555
O16 P3 1_555 1_555
O17 N1 1_555 1_555
O18 N1 1_555 1_555
O19 N2 1_555 1_555
O20 N2 1_555 1_555
O21 N3 1_555 1_555
O22 N3 1_555 1_555
O23 N4 1_555 1_555
O24 N4 1_555 1_555
O25 N5 1_555 1_555
O26 N5 1_555 1_555
O27 N6 1_555 1_555
O28 N6 1_555 1_555
O29 N7 1_555 1_555
O30 N7 1_555 1_555
O31 N8 1_555 1_555
O32 N8 1_555 1_555
N1 C30 1_555 1_555
N2 C37 1_555 1_555
N3 C42 1_555 1_555
N4 C48 1_555 1_555
N5 C54 1_555 1_555
N6 C60 1_555 1_555
N7 C66 1_555 1_555
N8 C72 1_555 1_555
N9 C2 1_555 1_555
N10 Zn2 1_555 1_555
N11 Zn2 1_555 1_555
N12 Zn1 1_555 1_555
C1 C4 1_555 1_555
C2 H1 1_555 1_555
C3 N10 1_555 1_555
H2 C3 1_555 1_555
C4 H3 1_555 1_555
C5 H4 1_555 1_555
C6 C1 1_555 1_555
H5 C6 1_555 1_555
H6 C6 1_555 1_555
C7 N10 1_555 1_555
H7 C7 1_555 1_555
C8 C1 1_555 1_555
H8 C8 1_555 1_555
C9 C5 1_555 1_555
C10 C9 1_555 1_555
H9 C10 1_555 1_555
H10 C10 1_555 1_555
C11 C6 1_555 1_555
H11 C11 1_555 1_555
H12 C11 1_555 1_555
C12 C3 1_555 1_555
H13 C12 1_555 1_555
C13 N9 1_555 1_555
H14 C13 1_555 1_555
C14 H15 1_555 1_555
C15 N11 1_555 1_555
H16 C15 1_555 1_555
C16 H17 1_555 1_555
C17 H18 1_555 1_555
H19 C17 1_555 1_555
C18 N12 1_555 1_555
H20 C18 1_555 1_555
C19 C15 1_555 1_555
H21 C19 1_555 1_555
C20 N12 1_555 1_555
H22 C20 1_555 1_555
C21 H23 1_555 1_555
C22 C14 1_555 1_555
C23 C17 1_555 1_555
H24 C23 1_555 1_555
H25 C23 1_555 1_555
C24 C19 1_555 1_555
C25 C23 1_555 1_555
H26 C25 1_555 1_555
H27 C25 1_555 1_555
C26 N11 1_555 1_555
H28 C26 1_555 1_555
C27 C28 1_555 1_555
C28 H29 1_555 1_555
C29 C28 1_555 1_555
H30 C29 1_555 1_555
C30 C29 1_555 1_555
C31 C30 1_555 1_555
H31 C31 1_555 1_555
C32 C27 1_555 1_555
H32 C32 1_555 1_555
C33 O14 1_555 1_555
C34 C33 1_555 1_555
H33 C34 1_555 1_555
C35 C34 1_555 1_555
H34 C35 1_555 1_555
C36 H35 1_555 1_555
C37 C35 1_555 1_555
C38 C33 1_555 1_555
H36 C38 1_555 1_555
C39 O13 1_555 1_555
C40 C39 1_555 1_555
H37 C40 1_555 1_555
C41 C40 1_555 1_555
H38 C41 1_555 1_555
C42 C41 1_555 1_555
C43 C42 1_555 1_555
H39 C43 1_555 1_555
C44 C39 1_555 1_555
H40 C44 1_555 1_555
C45 O16 1_555 1_555
C46 C45 1_555 1_555
H41 C46 1_555 1_555
C47 C46 1_555 1_555
H42 C47 1_555 1_555
C48 C47 1_555 1_555
C49 C48 1_555 1_555
H43 C49 1_555 1_555
C50 C45 1_555 1_555
H44 C50 1_555 1_555
C51 O3 1_555 1_555
C52 C51 1_555 1_555
H45 C52 1_555 1_555
C53 C52 1_555 1_555
H46 C53 1_555 1_555
C54 C53 1_555 1_555
C55 C54 1_555 1_555
H47 C55 1_555 1_555
C56 C51 1_555 1_555
H48 C56 1_555 1_555
C57 C58 1_555 1_555
C58 H49 1_555 1_555
C59 C58 1_555 1_555
H50 C59 1_555 1_555
C60 C59 1_555 1_555
C61 C60 1_555 1_555
H51 C61 1_555 1_555
C62 C57 1_555 1_555
H52 C62 1_555 1_555
C63 C64 1_555 1_555
C64 H53 1_555 1_555
C65 C64 1_555 1_555
H54 C65 1_555 1_555
C66 C65 1_555 1_555
C67 C66 1_555 1_555
H55 C67 1_555 1_555
C68 C63 1_555 1_555
H56 C68 1_555 1_555
C69 O4 1_555 1_555
C70 C69 1_555 1_555
H57 C70 1_555 1_555
C71 C70 1_555 1_555
H58 C71 1_555 1_555
C72 C71 1_555 1_555
C73 C72 1_555 1_555
H59 C73 1_555 1_555
C74 C69 1_555 1_555
H60 C74 1_555 1_555
Zn2A O10A_2 1_555 1_555
Zn2A_2 O12 1_555 1_555
Zn2A_3 O15 1_555 1_555
Zn2_2 N10_2 1_555 1_555
Zn3_2 N9 1_555 1_555
Zn3_3 O5A 1_555 1_555
P1A O1A 1_555 1_555
P2A O2A 1_555 1_555
P3A O11A 1_555 1_555
P4A O9A 1_555 1_555
O1A C63A 1_555 1_555
O2A C57A 1_555 1_555
O3A P2A 1_555 1_555
O4A P1A 1_555 1_555
O5A P2A 1_555 1_555
O5A_2 Zn3 1_555 1_555
O6A Zn3_3 1_555 1_555
O6A_2 Zn3 1_555 1_555
O7A Zn1 1_555 1_555
O8A Zn1 1_555 1_555
O9A C27A 1_555 1_555
O10A Zn2A_2 1_555 1_555
O11A Zn2A_3 1_555 1_555
O11A_2 Zn2A 1_555 1_555
O12A Zn2 1_555 1_555
O12_2 Zn2A 1_555 1_555
O13A P3A 1_555 1_555
O14A P4A 1_555 1_555
O15A Zn2 1_555 1_555
O15_2 Zn2A 1_555 1_555
O16A P3A 1_555 1_555
O17A N1A 1_555 1_555
O18A N1A 1_555 1_555
O19A N2A 1_555 1_555
O20A N2A 1_555 1_555
O21A N3A 1_555 1_555
O22A N3A 1_555 1_555
O23A N4A 1_555 1_555
O24A N4A 1_555 1_555
O25A N5A 1_555 1_555
O26A N5A 1_555 1_555
O27A N6A 1_555 1_555
O28A N6A 1_555 1_555
O29A N7A 1_555 1_555
O30A N7A 1_555 1_555
O31A N8A 1_555 1_555
O32A N8A 1_555 1_555
N1A C30A 1_555 1_555
N2A C37A 1_555 1_555
N3A C42A 1_555 1_555
N4A C48A 1_555 1_555
N5A C54A 1_555 1_555
N6A C60A 1_555 1_555
N7A C66A 1_555 1_555
N8A C72A 1_555 1_555
N9_2 Zn3 1_555 1_555
N9A Zn3 1_555 1_555
N10_2 C3_2 1_555 1_555
N10A Zn2A 1_555 1_555
N11A Zn2A 1_555 1_555
N12A Zn1 1_555 1_555
C1_2 C4_2 1_555 1_555
C2_2 N9_2 1_555 1_555
H1_2 C2_2 1_555 1_555
C3_2 H2_2 1_555 1_555
C4_2 H3_2 1_555 1_555
C5_2 H4_2 1_555 1_555
C6_2 C1_2 1_555 1_555
H5_2 C6_2 1_555 1_555
H6_2 C6_2 1_555 1_555
C7_2 N10_2 1_555 1_555
H7_2 C7_2 1_555 1_555
C8_2 C1_2 1_555 1_555
H8_2 C8_2 1_555 1_555
C9_2 C5_2 1_555 1_555
C10_2 C9_2 1_555 1_555
H9_2 C10_2 1_555 1_555
H10_2 C10_2 1_555 1_555
C11_2 C6_2 1_555 1_555
H11_2 C11_2 1_555 1_555
H12_2 C11_2 1_555 1_555
C12_2 C3_2 1_555 1_555
H13_2 C12_2 1_555 1_555
C13_2 N9_2 1_555 1_555
H14_2 C13_2 1_555 1_555
C14A H15A 1_555 1_555
C15A N11A 1_555 1_555
H16A C15A 1_555 1_555
C16A H17A 1_555 1_555
C17A H18A 1_555 1_555
H19A C17A 1_555 1_555
C18A N12A 1_555 1_555
H20A C18A 1_555 1_555
C19A C15A 1_555 1_555
H21A C19A 1_555 1_555
C20A N12A 1_555 1_555
H22A C20A 1_555 1_555
C21A H23A 1_555 1_555
C22A C14A 1_555 1_555
C23A C17A 1_555 1_555
H24A C23A 1_555 1_555
H25A C23A 1_555 1_555
C24A C19A 1_555 1_555
C25A C23A 1_555 1_555
H26A C25A 1_555 1_555
H27A C25A 1_555 1_555
C26A N11A 1_555 1_555
H28A C26A 1_555 1_555
C27A C28A 1_555 1_555
C28A H29A 1_555 1_555
C29A C28A 1_555 1_555
H30A C29A 1_555 1_555
C30A C29A 1_555 1_555
C31A C30A 1_555 1_555
H31A C31A 1_555 1_555
C32A C27A 1_555 1_555
H32A C32A 1_555 1_555
C33A O14A 1_555 1_555
C34A C33A 1_555 1_555
H33A C34A 1_555 1_555
C35A C34A 1_555 1_555
H34A C35A 1_555 1_555
C36A H35A 1_555 1_555
C37A C35A 1_555 1_555
C38A C33A 1_555 1_555
H36A C38A 1_555 1_555
C39A O13A 1_555 1_555
C40A C39A 1_555 1_555
H37A C40A 1_555 1_555
C41A C40A 1_555 1_555
H38A C41A 1_555 1_555
C42A C41A 1_555 1_555
C43A C42A 1_555 1_555
H39A C43A 1_555 1_555
C44A C39A 1_555 1_555
H40A C44A 1_555 1_555
C45A O16A 1_555 1_555
C46A C45A 1_555 1_555
H41A C46A 1_555 1_555
C47A C46A 1_555 1_555
H42A C47A 1_555 1_555
C48A C47A 1_555 1_555
C49A C48A 1_555 1_555
H43A C49A 1_555 1_555
C50A C45A 1_555 1_555
H44A C50A 1_555 1_555
C51A O3A 1_555 1_555
C52A C51A 1_555 1_555
H45A C52A 1_555 1_555
C53A C52A 1_555 1_555
H46A C53A 1_555 1_555
C54A C53A 1_555 1_555
C55A C54A 1_555 1_555
H47A C55A 1_555 1_555
C56A C51A 1_555 1_555
H48A C56A 1_555 1_555
C57A C58A 1_555 1_555
C58A H49A 1_555 1_555
C59A C58A 1_555 1_555
H50A C59A 1_555 1_555
C60A C59A 1_555 1_555
C61A C60A 1_555 1_555
H51A C61A 1_555 1_555
C62A C57A 1_555 1_555
H52A C62A 1_555 1_555
C63A C64A 1_555 1_555
C64A H53A 1_555 1_555
C65A C64A 1_555 1_555
H54A C65A 1_555 1_555
C66A C65A 1_555 1_555
C67A C66A 1_555 1_555
H55A C67A 1_555 1_555
C68A C63A 1_555 1_555
H56A C68A 1_555 1_555
C69A O4A 1_555 1_555
C70A C69A 1_555 1_555
H57A C70A 1_555 1_555
C71A C70A 1_555 1_555
H58A C71A 1_555 1_555
C72A C71A 1_555 1_555
C73A C72A 1_555 1_555
H59A C73A 1_555 1_555
C74A C69A 1_555 1_555
H60A C74A 1_555 1_555
P1 O6 1_555 1_555
P1 O8 1_555 1_555
C2 C8 1_555 1_555
C4 C13 1_555 1_555
C5 C7 1_555 1_555
C9 C12 1_555 1_555
C10 C11 1_555 1_555
C14 C20 1_555 1_555
C16 C18 1_555 1_555
C16 C22 1_555 1_555
C17 C22 1_555 1_555
C21 C24 1_555 1_555
C21 C26 1_555 1_555
C24 C25 1_555 1_555
C31 C32 1_555 1_555
C36 C37 1_555 1_555
C36 C38 1_555 1_555
C43 C44 1_555 1_555
C49 C50 1_555 1_555
C55 C56 1_555 1_555
C61 C62 1_555 1_555
C67 C68 1_555 1_555
C73 C74 1_555 1_555
P1A O6A 1_555 1_555
P1A O8A 1_555 1_555
P2A O7A 1_555 1_555
P3A O15A 1_555 1_555
P4A O10A 1_555 1_555
P4A O12A 1_555 1_555
C2_2 C8_2 1_555 1_555
C4_2 C13_2 1_555 1_555
C5_2 C7_2 1_555 1_555
C9_2 C12_2 1_555 1_555
C10_2 C11_2 1_555 1_555
C14A C20A 1_555 1_555
C16A C18A 1_555 1_555
C16A C22A 1_555 1_555
C17A C22A 1_555 1_555
C21A C24A 1_555 1_555
C21A C26A 1_555 1_555
C24A C25A 1_555 1_555
C31A C32A 1_555 1_555
C36A C37A 1_555 1_555
C36A C38A 1_555 1_555
C43A C44A 1_555 1_555
C49A C50A 1_555 1_555
C55A C56A 1_555 1_555
C61A C62A 1_555 1_555
C67A C68A 1_555 1_555
C73A C74A 1_555 1_555

#END
