
#######################################################################
#
#                 Cambridge Crystallographic Data Centre
#                                CCDC 
#
#######################################################################
#
# If this CIF has been generated from an entry in the Cambridge 
# Structural Database, then it will include bibliographic, chemical, 
# crystal, experimental, refinement or atomic coordinate data resulting 
# from the CCDC's data processing and validation procedures.
#
#######################################################################

data_GIMCUB
_symmetry_cell_setting           monoclinic
_symmetry_space_group_name_H-M   'P 21/c'
_symmetry_Int_Tables_number      14
_space_group_name_Hall           '-P 2ybc'
loop_
_symmetry_equiv_pos_site_id
_symmetry_equiv_pos_as_xyz
1 x,y,z
2 -x,1/2+y,1/2-z
3 -x,-y,-z
4 x,1/2-y,1/2+z
_cell_length_a                   8.5396(3)
_cell_length_b                   16.4589(6)
_cell_length_c                   16.1176(5)
_cell_angle_alpha                90.00
_cell_angle_beta                 97.415(2)
_cell_angle_gamma                90.00
_cell_volume                     2246.42
loop_
_atom_site_label
_atom_site_type_symbol
_atom_site_fract_x
_atom_site_fract_y
_atom_site_fract_z
Cu1 Cu 0.51913(4) 1.15610(2) 0.29686(2)
N1 N 0.3256(3) 1.11575(17) 0.34403(17)
N2 N -0.1045(3) 1.03545(16) 0.41135(17)
H1 H -0.1546 1.0735 0.4333
N3 N -0.1160(3) 0.89696(16) 0.37327(16)
N4 N -0.1346(3) 0.75676(18) 0.34132(19)
H2 H -0.1931 0.7145 0.3439
N5 N 0.2878(3) 0.69384(17) 0.25231(16)
O1 O 0.5321(3) 1.25015(14) 0.37141(14)
O2 O 0.6877(3) 1.16341(15) 0.44643(18)
O3 O 0.5100(3) 1.06117(16) 0.22550(16)
O4 O 0.3286(4) 1.11818(19) 0.1339(2)
C1 C 0.2208(4) 1.1662(2) 0.3729(2)
H3 H 0.2446 1.2213 0.3764
C2 C 0.0810(4) 1.1409(2) 0.3973(2)
H4 H 0.0136 1.1781 0.4178
C3 C 0.0401(3) 1.0585(2) 0.39123(19)
C4 C 0.1552(4) 1.0063(2) 0.3670(2)
H5 H 0.1395 0.9504 0.3668
C5 C 0.2885(4) 1.0373(2) 0.3439(2)
H6 H 0.3608 1.0009 0.3265
C6 C -0.1851(3) 0.96204(19) 0.40277(19)
C7 C -0.3373(4) 0.9615(2) 0.4260(2)
H7 H -0.3808 1.0081 0.4462
C8 C -0.4205(4) 0.8899(2) 0.4183(2)
H8 H -0.5220 0.8876 0.4333
C9 C -0.3542(4) 0.8221(2) 0.3884(2)
H9 H -0.4096 0.7733 0.3822
C10 C -0.2006(4) 0.82812(19) 0.3672(2)
C11 C 0.0069(4) 0.7412(2) 0.3124(2)
C12 C 0.0534(4) 0.6595(2) 0.3107(2)
H10 H -0.0088 0.6191 0.3302
C13 C 0.1908(4) 0.6396(2) 0.2802(2)
H11 H 0.2182 0.5849 0.2789
C14 C 0.2417(4) 0.7713(2) 0.2533(2)
H12 H 0.3058 0.8104 0.2332
C15 C 0.1048(4) 0.7969(2) 0.2823(2)
H13 H 0.0790 0.8518 0.2815
C16 C 0.6225(4) 1.2309(2) 0.4380(2)
C17 C 0.6479(5) 1.2935(2) 0.5056(2)
H14 H 0.6883 1.2679 0.5575
H15 H 0.5493 1.3196 0.5115
H16 H 0.7222 1.3333 0.4914
C18 C 0.4111(5) 1.0603(2) 0.1594(3)
C19 C 0.3982(7) 0.9827(3) 0.1133(3)
H17 H 0.2898 0.9657 0.1046
H18 H 0.4605 0.9421 0.1451
H19 H 0.4360 0.9897 0.0602
Cu1A Cu 0.48087(4) 0.65610(2) 0.20314(2)
N5A N 0.7122(3) 1.19384(17) 0.24769(16)
Cl1 Cl 0.0443(11) 0.3606(4) 0.4629(4)
Cl2 Cl 0.1949(9) 0.4140(5) 0.3464(5)
C20 C 0.087(3) 0.4510(9) 0.4229(12)
H20 H 0.1506 0.4849 0.4636
H21? H -0.0066 0.4803 0.3993
loop_
_geom_bond_atom_site_label_1
_geom_bond_atom_site_label_2
_geom_bond_site_symmetry_1
_geom_bond_site_symmetry_2
Cu1 N1 1_555 1_555
N1 C1 1_555 1_555
N2 H1 1_555 1_555
N3 C6 1_555 1_555
N4 H2 1_555 1_555
N5 C13 1_555 1_555
O1 Cu1 1_555 1_555
O2 C16 1_555 1_555
O3 Cu1 1_555 1_555
O4 C18 1_555 1_555
C1 H3 1_555 1_555
C2 C1 1_555 1_555
H4 C2 1_555 1_555
C3 N2 1_555 1_555
C4 C3 1_555 1_555
H5 C4 1_555 1_555
C5 N1 1_555 1_555
H6 C5 1_555 1_555
C6 N2 1_555 1_555
C7 C6 1_555 1_555
H7 C7 1_555 1_555
C8 C7 1_555 1_555
H8 C8 1_555 1_555
C9 C8 1_555 1_555
H9 C9 1_555 1_555
C10 N3 1_555 1_555
C11 N4 1_555 1_555
C12 C11 1_555 1_555
H10 C12 1_555 1_555
C13 C12 1_555 1_555
H11 C13 1_555 1_555
C14 N5 1_555 1_555
H12 C14 1_555 1_555
C15 C11 1_555 1_555
H13 C15 1_555 1_555
C16 O1 1_555 1_555
C17 C16 1_555 1_555
H14 C17 1_555 1_555
H15 C17 1_555 1_555
H16 C17 1_555 1_555
C18 O3 1_555 1_555
C19 C18 1_555 1_555
H17 C19 1_555 1_555
H18 C19 1_555 1_555
H19 C19 1_555 1_555
Cl1 C20 1_555 1_555
Cl2 C20 1_555 1_555
C20 H20 1_555 1_555
Cu1A N5 1_555 1_555
N5A Cu1 1_555 1_555
N4 C10 1_555 1_555
C2 C3 1_555 1_555
C4 C5 1_555 1_555
C9 C10 1_555 1_555
C14 C15 1_555 1_555

#END
