
#######################################################################
#
#                 Cambridge Crystallographic Data Centre
#                                CCDC 
#
#######################################################################
#
# If this CIF has been generated from an entry in the Cambridge 
# Structural Database, then it will include bibliographic, chemical, 
# crystal, experimental, refinement or atomic coordinate data resulting 
# from the CCDC's data processing and validation procedures.
#
#######################################################################

data_GIMCEL
_symmetry_cell_setting           orthorhombic
_symmetry_space_group_name_H-M   'P b c n'
_symmetry_Int_Tables_number      60
_space_group_name_Hall           '-P 2n 2ab'
loop_
_symmetry_equiv_pos_site_id
_symmetry_equiv_pos_as_xyz
1 x,y,z
2 1/2-x,1/2-y,1/2+z
3 1/2+x,1/2-y,-z
4 -x,y,1/2-z
5 -x,-y,-z
6 1/2+x,1/2+y,1/2-z
7 1/2-x,1/2+y,z
8 x,-y,1/2+z
_cell_length_a                   25.780(4)
_cell_length_b                   13.529(2)
_cell_length_c                   10.874(2)
_cell_angle_alpha                90
_cell_angle_beta                 90
_cell_angle_gamma                90
_cell_volume                     3792.61
loop_
_atom_site_label
_atom_site_type_symbol
_atom_site_fract_x
_atom_site_fract_y
_atom_site_fract_z
Zn1 Zn 0.0000 -0.01280(3) 0.7500
P1 P 0.08324(3) 0.02671(5) 0.51468(6)
O1 O 0.09981(8) 0.14007(14) 0.53900(18)
O2 O 0.13724(8) -0.02274(16) 0.47280(19)
O3 O 0.06777(7) -0.01123(14) 0.63644(18)
O4 O 0.04896(8) 0.01810(14) 0.40750(18)
O5 O 0.1385(2) 0.4153(3) 0.0933(4)
O6 O 0.13600(14) 0.5210(2) 0.2353(3)
O7 O 0.31408(13) -0.2393(3) 0.7526(3)
O8 O 0.28962(14) -0.1378(3) 0.8924(3)
N1 N 0.0000 -0.1668(3) 0.7500
N2 N 0.0000 -0.8584(3) 0.7500
N3 N 0.13746(14) 0.4363(3) 0.2002(4)
N4 N 0.28779(13) -0.1709(3) 0.7886(4)
C1 C -0.00669(12) -0.2179(3) 0.8541(4)
H1 H -0.0115 -0.1833 0.9271
C2 C -0.00672(16) -0.3199(3) 0.8569(6)
H2 H -0.0112 -0.3522 0.9315
C3 C 0.0000 -0.3745(5) 0.7500
C4 C 0.04139(14) -0.8073(2) 0.7867(3)
H3 H 0.0697 -0.8407 0.8091
C5 C 0.04274(18) -0.7064(3) 0.7875(6)
H4 H 0.0738 -0.6728 0.8182
C6 C 0.0000 -0.6542(4) 0.7500
C7 C 0.11378(11) 0.2086(2) 0.4516(3)
C8 C 0.12160(14) 0.3037(2) 0.4946(3)
H5 H 0.1201 0.3166 0.5785
C9 C 0.13147(13) 0.3787(2) 0.4132(3)
H6 H 0.1365 0.4431 0.4408
C10 C 0.13378(13) 0.3567(2) 0.2895(3)
C11 C 0.12875(14) 0.2622(2) 0.2467(3)
H7 H 0.1318 0.2492 0.1630
C12 C 0.11908(12) 0.1866(2) 0.3278(3)
H8 H 0.1161 0.1218 0.3001
C13 C 0.17601(11) -0.0517(2) 0.5528(3)
C14 C 0.20221(14) -0.1367(3) 0.5191(3)
H9 H 0.1943 -0.1684 0.4456
C15 C 0.24009(14) -0.1741(3) 0.5952(3)
H10 H 0.2582 -0.2309 0.5735
C16 C 0.25066(13) -0.1267(3) 0.7024(3)
C17 C 0.22588(14) -0.0399(3) 0.7348(3)
H11 H 0.2344 -0.0079 0.8077
C18 C 0.18832(13) -0.0016(3) 0.6585(3)
H12 H 0.1717 0.0573 0.6783
C19 C 0.0007(3) -0.4839(5) 0.6976(7)
C20 C -0.0026(3) -0.5428(6) 0.6808(7)
Zn1G Zn 0.0000 0.01280(3) 0.2500
Zn1_2 Zn 0.0000 -1.01280(3) 0.7500
Zn1G_2 Zn 0.0000 0.01280(3) 1.2500
P1C P -0.08324(3) 0.02671(5) 0.98532(6)
O1C O -0.09981(8) 0.14007(14) 0.96100(18)
O2C O -0.13724(8) -0.02274(16) 1.02720(19)
O3C O -0.06777(7) -0.01123(14) 0.86356(18)
O4C O -0.04896(8) 0.01810(14) 1.09250(18)
O4G O 0.04896(8) -0.01810(14) 0.90750(18)
O4D O -0.04896(8) -0.01810(14) 0.59250(18)
O5C O -0.1385(2) 0.4153(3) 1.4067(4)
O6C O -0.13600(14) 0.5210(2) 1.2647(3)
O7C O -0.31408(13) -0.2393(3) 0.7474(3)
O8C O -0.28962(14) -0.1378(3) 0.6076(3)
N2_2 N 0.0000 0.1416(3) 0.7500
N3C N -0.13746(14) 0.4363(3) 1.2998(4)
N4C N -0.28779(13) -0.1709(3) 0.7114(4)
C1C C 0.00669(12) -0.2179(3) 0.6459(4)
H1C H 0.0115 -0.1833 0.5729
C2C C 0.00672(16) -0.3199(3) 0.6431(6)
H2C H 0.0112 -0.3522 0.5685
C4C C -0.04139(14) -0.8073(2) 0.7133(3)
H3C H -0.0697 -0.8407 0.6909
C5C C -0.04274(18) -0.7064(3) 0.7125(6)
H4C H -0.0738 -0.6728 0.6818
C7C C -0.11378(11) 0.2086(2) 1.0484(3)
C8C C -0.12160(14) 0.3037(2) 1.0054(3)
H5C H -0.1201 0.3166 0.9215
C9C C -0.13147(13) 0.3787(2) 1.0868(3)
H6C H -0.1365 0.4431 1.0592
C10C C -0.13378(13) 0.3567(2) 1.2105(3)
C11C C -0.12875(14) 0.2622(2) 1.2533(3)
H7C H -0.1318 0.2492 1.3370
C12C C -0.11908(12) 0.1866(2) 1.1722(3)
H8C H -0.1161 0.1218 1.1999
C13C C -0.17601(11) -0.0517(2) 0.9472(3)
C14C C -0.20221(14) -0.1367(3) 0.9809(3)
H9C H -0.1943 -0.1684 1.0544
C15C C -0.24009(14) -0.1741(3) 0.9048(3)
H10C H -0.2582 -0.2309 0.9265
C16C C -0.25066(13) -0.1267(3) 0.7976(3)
C17C C -0.22588(14) -0.0399(3) 0.7652(3)
H11C H -0.2344 -0.0079 0.6923
C18C C -0.18832(13) -0.0016(3) 0.8415(3)
H12C H -0.1717 0.0573 0.8217
C19C C -0.0007(3) -0.4839(5) 0.8024(7)
C20C C 0.0026(3) -0.5428(6) 0.8192(7)
loop_
_geom_bond_atom_site_label_1
_geom_bond_atom_site_label_2
_geom_bond_site_symmetry_1
_geom_bond_site_symmetry_2
Zn1 O3 1_555 1_555
P1 O1 1_555 1_555
O1 C7 1_555 1_555
O2 P1 1_555 1_555
O3 P1 1_555 1_555
O4 P1 1_555 1_555
O5 N3 1_555 1_555
O6 N3 1_555 1_555
O7 N4 1_555 1_555
O8 N4 1_555 1_555
N1 Zn1 1_555 1_555
N2 C4 1_555 1_555
N3 C10 1_555 1_555
N4 C16 1_555 1_555
C1 N1 1_555 1_555
H1 C1 1_555 1_555
C2 C1 1_555 1_555
H2 C2 1_555 1_555
C3 C2 1_555 1_555
C4 H3 1_555 1_555
C5 C4 1_555 1_555
H4 C5 1_555 1_555
C6 C5 1_555 1_555
C7 C8 1_555 1_555
C8 H5 1_555 1_555
C9 C8 1_555 1_555
H6 C9 1_555 1_555
C10 C9 1_555 1_555
C11 C10 1_555 1_555
H7 C11 1_555 1_555
C12 C7 1_555 1_555
H8 C12 1_555 1_555
C13 O2 1_555 1_555
C14 C13 1_555 1_555
H9 C14 1_555 1_555
C15 C14 1_555 1_555
H10 C15 1_555 1_555
C16 C15 1_555 1_555
C17 C16 1_555 1_555
H11 C17 1_555 1_555
C18 C13 1_555 1_555
H12 C18 1_555 1_555
C19 C3 1_555 1_555
C20 C6 1_555 1_555
Zn1G O4 1_555 1_555
Zn1_2 N2 1_555 1_555
Zn1G_2 O4C 1_555 1_555
P1C O1C 1_555 1_555
O1C C7C 1_555 1_555
O2C P1C 1_555 1_555
O3C Zn1 1_555 1_555
O4C P1C 1_555 1_555
O4G Zn1 1_555 1_555
O4D Zn1 1_555 1_555
O5C N3C 1_555 1_555
O6C N3C 1_555 1_555
O7C N4C 1_555 1_555
O8C N4C 1_555 1_555
N2_2 Zn1 1_555 1_555
N3C C10C 1_555 1_555
N4C C16C 1_555 1_555
C1C N1 1_555 1_555
H1C C1C 1_555 1_555
C2C C3 1_555 1_555
H2C C2C 1_555 1_555
C4C N2 1_555 1_555
H3C C4C 1_555 1_555
C5C C6 1_555 1_555
H4C C5C 1_555 1_555
C7C C8C 1_555 1_555
C8C H5C 1_555 1_555
C9C C8C 1_555 1_555
H6C C9C 1_555 1_555
C10C C9C 1_555 1_555
C11C C10C 1_555 1_555
H7C C11C 1_555 1_555
C12C C7C 1_555 1_555
H8C C12C 1_555 1_555
C13C O2C 1_555 1_555
C14C C13C 1_555 1_555
H9C C14C 1_555 1_555
C15C C14C 1_555 1_555
H10C C15C 1_555 1_555
C16C C15C 1_555 1_555
C17C C16C 1_555 1_555
H11C C17C 1_555 1_555
C18C C13C 1_555 1_555
H12C C18C 1_555 1_555
C19C C3 1_555 1_555
C20C C6 1_555 1_555
C11 C12 1_555 1_555
C17 C18 1_555 1_555
C19 C20 1_555 1_555
C19 C19C 1_555 1_555
C19 C20C 1_555 1_555
C20 C19C 1_555 1_555
C20 C20C 1_555 1_555
P1C O3C 1_555 1_555
C1C C2C 1_555 1_555
C4C C5C 1_555 1_555
C11C C12C 1_555 1_555
C17C C18C 1_555 1_555
C19C C20C 1_555 1_555

#END
