
#######################################################################
#
#                 Cambridge Crystallographic Data Centre
#                                CCDC 
#
#######################################################################
#
# If this CIF has been generated from an entry in the Cambridge 
# Structural Database, then it will include bibliographic, chemical, 
# crystal, experimental, refinement or atomic coordinate data resulting 
# from the CCDC's data processing and validation procedures.
#
#######################################################################

data_GIMCOV
_symmetry_cell_setting           triclinic
_symmetry_space_group_name_H-M   'P -1'
_symmetry_Int_Tables_number      2
_space_group_name_Hall           '-P 1'
loop_
_symmetry_equiv_pos_site_id
_symmetry_equiv_pos_as_xyz
1 x,y,z
2 -x,-y,-z
_cell_length_a                   8.4716(10)
_cell_length_b                   8.7904(14)
_cell_length_c                   15.2105(18)
_cell_angle_alpha                88.106(10)
_cell_angle_beta                 87.745(9)
_cell_angle_gamma                82.924(9)
_cell_volume                     1122.75
loop_
_atom_site_label
_atom_site_type_symbol
_atom_site_fract_x
_atom_site_fract_y
_atom_site_fract_z
Cu1 Cu 0.0000 0.5000 0.5000
Cu2 Cu 0.0000 1.0000 0.0000
N1 N 0.1863(8) 0.6215(9) 0.4912(5)
N2 N 0.6053(8) 0.8293(8) 0.4685(4)
H1 H 0.6617 0.8092 0.5142
N3 N 0.5982(8) 0.9621(8) 0.3309(5)
N4 N 0.6036(8) 1.0978(8) 0.1938(4)
H2 H 0.6570 1.1589 0.1630
N5 N 0.1895(8) 1.0343(9) 0.0668(5)
O1 O 0.0048(7) 0.4921(8) 0.3719(4)
O2 O 0.1768(8) 0.2883(8) 0.4040(5)
O3 O 0.0265(7) 0.7858(7) 0.0417(4)
O4 O 0.1792(8) 0.7691(9) -0.0771(5)
C1 C 0.2965(12) 0.6130(11) 0.5521(6)
H3 H 0.2774 0.5568 0.6035
C2 C 0.4320(11) 0.6777(11) 0.5464(6)
H4 H 0.5045 0.6610 0.5911
C3 C 0.4637(10) 0.7697(10) 0.4735(6)
C4 C 0.3466(11) 0.7877(11) 0.4098(6)
H5 H 0.3582 0.8496 0.3598
C5 C 0.2147(11) 0.7123(12) 0.4227(6)
H6 H 0.1388 0.7261 0.3797
C6 C 0.6745(10) 0.9151(10) 0.4045(6)
C7 C 0.8275(11) 0.9467(11) 0.4204(6)
H7 H 0.8773 0.9103 0.4717
C8 C 0.9030(10) 1.0317(11) 0.3595(7)
H8 H 1.0042 1.0566 0.3697
C9 C 0.8291(10) 1.0809(11) 0.2829(6)
H9 H 0.8799 1.1368 0.2398
C10 C 0.6752(10) 1.0441(10) 0.2718(6)
C11 C 0.4645(11) 1.0722(11) 0.1567(6)
C12 C 0.3637(12) 0.9716(12) 0.1870(6)
H10 H 0.3846 0.9140 0.2385
C13 C 0.2305(11) 0.9559(12) 0.1406(7)
H11 H 0.1643 0.8855 0.1624
C14 C 0.4277(10) 1.1504(10) 0.0787(6)
H12 H 0.4952 1.2172 0.0540
C15 C 0.2914(11) 1.1292(10) 0.0377(6)
H13 H 0.2686 1.1852 -0.0141
C16 C 0.1083(13) 0.3798(15) 0.3497(7)
C17 C 0.1487(12) 0.3601(13) 0.2526(6)
H14 H 0.1711 0.2529 0.2408
H15 H 0.2405 0.4103 0.2366
H16 H 0.0603 0.4046 0.2190
C18 C 0.1327(12) 0.7133(14) -0.0064(8)
C19 C 0.2010(12) 0.5551(13) 0.0236(7)
H17 H 0.2922 0.5206 -0.0133
H18 H 0.1222 0.4861 0.0198
H19 H 0.2325 0.5574 0.0834
Cu2_2 Cu 0.0000 0.0000 1.0000
N1A N -0.1863(8) 0.3785(9) 0.5088(5)
N2A N -0.6053(8) 0.1707(8) 0.5315(4)
H1A H -0.6617 0.1908 0.4858
N3A N -0.5982(8) 0.0379(8) 0.6691(5)
N4A N -0.6036(8) -0.0978(8) 0.8062(4)
H2A H -0.6570 -0.1589 0.8370
N5A N -0.1895(8) -0.0343(9) 0.9332(5)
N5A_2 N -0.1895(8) 0.9657(9) -0.0668(5)
O1A O -0.0048(7) 0.5079(8) 0.6281(4)
O2A O -0.1768(8) 0.7117(8) 0.5960(5)
O3A O -0.0265(7) 1.2142(7) -0.0417(4)
O4A O -0.1792(8) 1.2309(9) 0.0771(5)
C1A C -0.2965(12) 0.3870(11) 0.4479(6)
H3A H -0.2774 0.4432 0.3965
C2A C -0.4320(11) 0.3223(11) 0.4536(6)
H4A H -0.5045 0.3390 0.4089
C3A C -0.4637(10) 0.2303(10) 0.5265(6)
C4A C -0.3466(11) 0.2123(11) 0.5902(6)
H5A H -0.3582 0.1504 0.6402
C5A C -0.2147(11) 0.2877(12) 0.5773(6)
H6A H -0.1388 0.2739 0.6203
C6A C -0.6745(10) 0.0849(10) 0.5955(6)
C7A C -0.8275(11) 0.0533(11) 0.5796(6)
H7A H -0.8773 0.0897 0.5283
C8A C -0.9030(10) -0.0317(11) 0.6405(7)
H8A H -1.0042 -0.0566 0.6303
C9A C -0.8291(10) -0.0809(11) 0.7171(6)
H9A H -0.8799 -0.1368 0.7602
C10A C -0.6752(10) -0.0441(10) 0.7282(6)
C11A C -0.4645(11) -0.0722(11) 0.8433(6)
C12A C -0.3637(12) 0.0284(12) 0.8130(6)
H10A H -0.3846 0.0860 0.7615
C13A C -0.2305(11) 0.0441(12) 0.8594(7)
H11A H -0.1643 0.1145 0.8376
C14A C -0.4277(10) -0.1504(10) 0.9213(6)
H12A H -0.4952 -0.2172 0.9460
C15A C -0.2914(11) -0.1292(10) 0.9623(6)
H13A H -0.2686 -0.1852 1.0141
C16A C -0.1083(13) 0.6202(15) 0.6503(7)
C17A C -0.1487(12) 0.6399(13) 0.7474(6)
H14A H -0.1711 0.7471 0.7592
H15A H -0.2405 0.5897 0.7634
H16A H -0.0603 0.5954 0.7810
C18A C -0.1327(12) 1.2867(14) 0.0064(8)
C19A C -0.2010(12) 1.4449(13) -0.0236(7)
H17A H -0.2922 1.4794 0.0133
H18A H -0.1222 1.5139 -0.0198
H19A H -0.2325 1.4426 -0.0834
C20 C 0.7797(13) 0.6594(14) 0.1998(7)
H20 H 0.7578 0.7578 0.1706
H21 H 0.8607 0.5970 0.1669
H22 H 0.8158 0.6726 0.2578
C21 C 0.628(3) 0.581(2) 0.2066(13)
N6 N 0.5206(19) 0.527(2) 0.2098(13)
loop_
_geom_bond_atom_site_label_1
_geom_bond_atom_site_label_2
_geom_bond_site_symmetry_1
_geom_bond_site_symmetry_2
Cu1 N1 1_555 1_555
Cu2 N5 1_555 1_555
N1 C1 1_555 1_555
N2 H1 1_555 1_555
N3 C6 1_555 1_555
N4 H2 1_555 1_555
N5 C13 1_555 1_555
O1 Cu1 1_555 1_555
O2 C16 1_555 1_555
O3 Cu2 1_555 1_555
O4 C18 1_555 1_555
C1 H3 1_555 1_555
C2 C1 1_555 1_555
H4 C2 1_555 1_555
C3 N2 1_555 1_555
C4 C3 1_555 1_555
H5 C4 1_555 1_555
C5 N1 1_555 1_555
H6 C5 1_555 1_555
C6 N2 1_555 1_555
C7 C6 1_555 1_555
H7 C7 1_555 1_555
C8 C7 1_555 1_555
H8 C8 1_555 1_555
C9 C8 1_555 1_555
H9 C9 1_555 1_555
C10 N3 1_555 1_555
C11 N4 1_555 1_555
C12 C11 1_555 1_555
H10 C12 1_555 1_555
C13 C12 1_555 1_555
H11 C13 1_555 1_555
C14 C11 1_555 1_555
H12 C14 1_555 1_555
C15 N5 1_555 1_555
H13 C15 1_555 1_555
C16 O1 1_555 1_555
C17 C16 1_555 1_555
H14 C17 1_555 1_555
H15 C17 1_555 1_555
H16 C17 1_555 1_555
C18 O3 1_555 1_555
C19 C18 1_555 1_555
H17 C19 1_555 1_555
H18 C19 1_555 1_555
H19 C19 1_555 1_555
C20 H20 1_555 1_555
H21 C20 1_555 1_555
H22 C20 1_555 1_555
C21 C20 1_555 1_555
N6 C21 1_555 1_555
Cu2_2 N5A 1_555 1_555
N1A Cu1 1_555 1_555
N2A H1A 1_555 1_555
N3A C6A 1_555 1_555
N4A H2A 1_555 1_555
N5A C13A 1_555 1_555
N5A_2 Cu2 1_555 1_555
O1A Cu1 1_555 1_555
O2A C16A 1_555 1_555
O3A Cu2 1_555 1_555
O4A C18A 1_555 1_555
C1A N1A 1_555 1_555
H3A C1A 1_555 1_555
C2A C1A 1_555 1_555
H4A C2A 1_555 1_555
C3A N2A 1_555 1_555
C4A C3A 1_555 1_555
H5A C4A 1_555 1_555
C5A N1A 1_555 1_555
H6A C5A 1_555 1_555
C6A N2A 1_555 1_555
C7A C6A 1_555 1_555
H7A C7A 1_555 1_555
C8A C7A 1_555 1_555
H8A C8A 1_555 1_555
C9A C8A 1_555 1_555
H9A C9A 1_555 1_555
C10A N3A 1_555 1_555
C11A N4A 1_555 1_555
C12A C11A 1_555 1_555
H10A C12A 1_555 1_555
C13A C12A 1_555 1_555
H11A C13A 1_555 1_555
C14A C11A 1_555 1_555
H12A C14A 1_555 1_555
C15A N5A 1_555 1_555
H13A C15A 1_555 1_555
C16A O1A 1_555 1_555
C17A C16A 1_555 1_555
H14A C17A 1_555 1_555
H15A C17A 1_555 1_555
H16A C17A 1_555 1_555
C18A O3A 1_555 1_555
C19A C18A 1_555 1_555
H17A C19A 1_555 1_555
H18A C19A 1_555 1_555
H19A C19A 1_555 1_555
N4 C10 1_555 1_555
C2 C3 1_555 1_555
C4 C5 1_555 1_555
C9 C10 1_555 1_555
C14 C15 1_555 1_555
N4A C10A 1_555 1_555
C2A C3A 1_555 1_555
C4A C5A 1_555 1_555
C9A C10A 1_555 1_555
C14A C15A 1_555 1_555

#END
