
#######################################################################
#
#                 Cambridge Crystallographic Data Centre
#                                CCDC 
#
#######################################################################
#
# If this CIF has been generated from an entry in the Cambridge 
# Structural Database, then it will include bibliographic, chemical, 
# crystal, experimental, refinement or atomic coordinate data resulting 
# from the CCDC's data processing and validation procedures.
#
#######################################################################

data_GIMDEM
_symmetry_cell_setting           monoclinic
_symmetry_space_group_name_H-M   'C 2/c'
_symmetry_Int_Tables_number      15
_space_group_name_Hall           '-C 2yn'
loop_
_symmetry_equiv_pos_site_id
_symmetry_equiv_pos_as_xyz
1 x,y,z
2 1/2+x,1/2+y,z
3 -x,y,1/2-z
4 1/2-x,1/2+y,1/2-z
5 -x,-y,-z
6 1/2-x,1/2-y,-z
7 x,-y,1/2+z
8 1/2+x,1/2-y,1/2+z
_cell_length_a                   20.212(7)
_cell_length_b                   8.517(3)
_cell_length_c                   18.456(9)
_cell_angle_alpha                90
_cell_angle_beta                 121.319(5)
_cell_angle_gamma                90
_cell_volume                     2714.17
loop_
_atom_site_label
_atom_site_type_symbol
_atom_site_fract_x
_atom_site_fract_y
_atom_site_fract_z
Cu1 Cu 0.2500 0.2500 0.5000
N1 N 0.19270(15) 0.4560(3) 0.46351(15)
N2 N 0.08570(15) 0.8960(3) 0.39763(15)
H1 H 0.0949 0.9485 0.4417
N3 N 0.0000 0.8938(4) 0.2500
O1 O 0.25038(13) 0.2419(2) 0.39406(13)
O2 O 0.35386(15) 0.3855(3) 0.47047(16)
C1 C 0.14858(18) 0.4997(4) 0.38145(19)
H2 H 0.1438 0.4296 0.3403
C2 C 0.11043(17) 0.6403(4) 0.35478(19)
H3 H 0.0802 0.6629 0.2972
C3 C 0.11735(17) 0.7485(4) 0.41434(19)
C4 C 0.1627(2) 0.7042(4) 0.4989(2)
H4 H 0.1696 0.7737 0.5411
C5 C 0.19721(19) 0.5612(4) 0.52064(19)
H5 H 0.2254 0.5342 0.5778
C6 C 0.04118(17) 0.9749(4) 0.32108(18)
C7 C 0.0428(2) 1.1373(4) 0.3245(2)
H6 H 0.0721 1.1899 0.3758
C8 C 0.0000 1.2181(6) 0.2500
H7 H 0.0000 1.3273 0.2500
C9 C 0.3065(2) 0.3207(4) 0.4020(2)
C10 C 0.3155(2) 0.3362(5) 0.3276(2)
C11 C 0.2614(4) 0.2641(7) 0.2528(3)
H8 H 0.2526 0.1589 0.2645
H9 H 0.2803 0.2614 0.2147
H10 H 0.2137 0.3220 0.2273
C12 C 0.3766(3) 0.4218(8) 0.3343(4)
H11 H 0.3822 0.4322 0.2876
H12 H 0.4121 0.4690 0.3855
Cu1G Cu -0.2500 0.2500 0.0000
N1B N -0.19270(15) 0.4560(3) 0.03649(15)
N1E N 0.30730(15) 0.0440(3) 0.53649(15)
N2B N -0.08570(15) 0.8960(3) 0.10237(15)
H1B H -0.0949 0.9485 0.0583
O1E O 0.24962(13) 0.2581(2) 0.60594(13)
O2E O 0.14614(15) 0.1145(3) 0.52953(16)
C1B C -0.14858(18) 0.4997(4) 0.11855(19)
H2B H -0.1438 0.4296 0.1597
C2B C -0.11043(17) 0.6403(4) 0.14522(19)
H3B H -0.0802 0.6629 0.2028
C3B C -0.11735(17) 0.7485(4) 0.08566(19)
C4B C -0.1627(2) 0.7042(4) 0.0011(2)
H4B H -0.1696 0.7737 -0.0411
C5B C -0.19721(19) 0.5612(4) -0.02064(19)
H5B H -0.2254 0.5342 -0.0778
C6B C -0.04118(17) 0.9749(4) 0.17892(18)
C7B C -0.0428(2) 1.1373(4) 0.1755(2)
H6B H -0.0721 1.1899 0.1242
C9E C 0.1935(2) 0.1793(4) 0.5980(2)
C10E C 0.1845(2) 0.1638(5) 0.6724(2)
C11E C 0.2386(4) 0.2359(7) 0.7472(3)
H8E H 0.2474 0.3411 0.7355
H9E H 0.2197 0.2386 0.7853
H10E H 0.2863 0.1780 0.7727
C12E C 0.1234(3) 0.0782(8) 0.6657(4)
H11E H 0.1178 0.0678 0.7124
H12E H 0.0879 0.0310 0.6145
O3 O 0.9529(2) 0.4760(6) 0.4045(3)
H13 H 0.9184 0.4136 0.3746
C13 C 1.0045(4) 0.4061(9) 0.4772(6)
H14 H 0.9937 0.4331 0.5206
H15 H 1.0557 0.4408 0.4939
H16 H 1.0011 0.2944 0.4694
loop_
_geom_bond_atom_site_label_1
_geom_bond_atom_site_label_2
_geom_bond_site_symmetry_1
_geom_bond_site_symmetry_2
Cu1 N1 1_555 1_555
N1 C1 1_555 1_555
N2 H1 1_555 1_555
N3 C6 1_555 1_555
O1 Cu1 1_555 1_555
O2 C9 1_555 1_555
C1 H2 1_555 1_555
C2 C1 1_555 1_555
H3 C2 1_555 1_555
C3 N2 1_555 1_555
C4 C3 1_555 1_555
H4 C4 1_555 1_555
C5 N1 1_555 1_555
H5 C5 1_555 1_555
C6 N2 1_555 1_555
C7 C6 1_555 1_555
H6 C7 1_555 1_555
C8 C7 1_555 1_555
H7 C8 1_555 1_555
C9 O1 1_555 1_555
C10 C9 1_555 1_555
C11 C10 1_555 1_555
H8 C11 1_555 1_555
H9 C11 1_555 1_555
H10 C11 1_555 1_555
C12 C10 1_555 1_555
H11 C12 1_555 1_555
H12 C12 1_555 1_555
O3 H13 1_555 1_555
C13 O3 1_555 1_555
H14 C13 1_555 1_555
H15 C13 1_555 1_555
H16 C13 1_555 1_555
Cu1G N1B 1_555 1_555
N1B C1B 1_555 1_555
N1E Cu1 1_555 1_555
N2B H1B 1_555 1_555
O1E Cu1 1_555 1_555
O2E C9E 1_555 1_555
C1B H2B 1_555 1_555
C2B C1B 1_555 1_555
H3B C2B 1_555 1_555
C3B N2B 1_555 1_555
C4B C3B 1_555 1_555
H4B C4B 1_555 1_555
C5B N1B 1_555 1_555
H5B C5B 1_555 1_555
C6B N3 1_555 1_555
C7B C8 1_555 1_555
H6B C7B 1_555 1_555
C9E O1E 1_555 1_555
C10E C9E 1_555 1_555
C11E C10E 1_555 1_555
H8E C11E 1_555 1_555
H9E C11E 1_555 1_555
H10E C11E 1_555 1_555
C12E C10E 1_555 1_555
H11E C12E 1_555 1_555
H12E C12E 1_555 1_555
C2 C3 1_555 1_555
C4 C5 1_555 1_555
N2B C6B 1_555 1_555
C2B C3B 1_555 1_555
C4B C5B 1_555 1_555
C6B C7B 1_555 1_555

#END
