
#######################################################################
#
#                 Cambridge Crystallographic Data Centre
#                                CCDC 
#
#######################################################################
#
# If this CIF has been generated from an entry in the Cambridge 
# Structural Database, then it will include bibliographic, chemical, 
# crystal, experimental, refinement or atomic coordinate data resulting 
# from the CCDC's data processing and validation procedures.
#
#######################################################################

data_GIMGIT01
_symmetry_cell_setting           orthorhombic
_symmetry_space_group_name_H-M   'P n a 21'
_symmetry_Int_Tables_number      33
_space_group_name_Hall           'P 2c -2n'
loop_
_symmetry_equiv_pos_site_id
_symmetry_equiv_pos_as_xyz
1 x,y,z
2 -x,-y,1/2+z
3 1/2+x,1/2-y,z
4 1/2-x,1/2+y,1/2+z
_cell_length_a                   13.2267(6)
_cell_length_b                   9.1717(4)
_cell_length_c                   17.4492(8)
_cell_angle_alpha                90
_cell_angle_beta                 90
_cell_angle_gamma                90
_cell_volume                     2116.79
loop_
_atom_site_label
_atom_site_type_symbol
_atom_site_fract_x
_atom_site_fract_y
_atom_site_fract_z
C1 C 0.40348(17) 0.8917(3) 0.79204(13)
C2 C 0.36099(17) 0.8086(2) 0.72487(12)
C3 C 0.40869(17) 0.8168(3) 0.65491(13)
H1 H 0.4693 0.8675 0.6507
C4 C 0.3682(2) 0.7514(3) 0.59154(14)
H2 H 0.4006 0.7601 0.5445
C5 C 0.27919(17) 0.6725(2) 0.59681(12)
C6 C 0.23325(18) 0.6583(3) 0.66740(14)
H3 H 0.1749 0.6025 0.6721
C7 C 0.27358(18) 0.7269(3) 0.73176(14)
H4 H 0.2419 0.7178 0.7791
C8 C 0.2332(2) 0.6079(3) 0.52553(14)
C9 C 0.9771(2) 0.7730(3) 1.36307(16)
H5 H 0.9247 0.7104 1.3495
C10 C 1.1141(2) 0.8526(3) 1.4048(2)
H6 H 1.1782 0.8572 1.4266
C11 C 1.0631(3) 0.9664(4) 1.3763(2)
H7 H 1.0844 1.0630 1.3755
C12 C 0.8955(2) 0.9987(3) 1.31121(18)
H8 H 0.8326 0.9864 1.3390
H9 H 0.9131 1.1014 1.3123
C13 C 0.60861(18) 0.8478(3) 0.9204(2)
H10 H 0.6115 0.8515 0.8672
C14 C 0.6723(2) 0.7734(4) 0.96535(19)
H11 H 0.7266 0.7169 0.9491
C15 C 0.56186(19) 0.8830(3) 1.03609(16)
H12 H 0.5265 0.9150 1.0790
C16 C 0.6937(2) 0.7428(3) 1.1093(2)
H13 H 0.7148 0.6425 1.1018
H14 H 0.6455 0.7442 1.1512
C17 C 0.7840(2) 0.8324(3) 1.13114(17)
C18 C 0.7980(2) 0.8744(3) 1.20651(14)
H15 H 0.7493 0.8497 1.2427
C19 C 0.8810(2) 0.9508(3) 1.22931(15)
C20 C 0.9543(2) 0.9872(3) 1.17540(19)
H16 H 1.0116 1.0390 1.1900
C21 C 0.9412(3) 0.9460(4) 1.10048(19)
H17 H 0.9902 0.9697 1.0644
C22 C 0.8567(2) 0.8702(4) 1.07809(17)
H18 H 0.8485 0.8442 1.0270
N1 N 0.53868(16) 0.9176(2) 0.96492(11)
N2 N 0.64306(18) 0.7955(2) 1.03857(14)
N3 N 1.05840(15) 0.7300(2) 1.39722(11)
N4 N 0.97562(17) 0.9141(2) 1.34927(12)
O1 O 0.48286(15) 0.9611(2) 0.78424(11)
O2 O 0.35185(13) 0.88896(18) 0.85420(9)
O3 O 0.15024(15) 0.5402(2) 0.53283(10)
O4 O 0.27594(15) 0.6249(2) 0.46315(9)
Zn1 Zn 0.412256(16) 1.02353(2) 0.92991(2)
N3C N 0.44160(15) 1.2300(2) 0.89722(11)
O3C O 0.34976(15) 1.0402(2) 1.03283(10)
Zn1C Zn 0.087744(16) 0.52353(2) 0.42991(2)
Zn1C_2 Zn 1.087744(16) 0.52353(2) 1.42991(2)
loop_
_geom_bond_atom_site_label_1
_geom_bond_atom_site_label_2
_geom_bond_site_symmetry_1
_geom_bond_site_symmetry_2
C1 C2 1_555 1_555
C2 C3 1_555 1_555
C3 H1 1_555 1_555
C4 C3 1_555 1_555
H2 C4 1_555 1_555
C5 C4 1_555 1_555
C6 C5 1_555 1_555
H3 C6 1_555 1_555
C7 C2 1_555 1_555
H4 C7 1_555 1_555
C8 C5 1_555 1_555
C9 H5 1_555 1_555
C10 H6 1_555 1_555
C11 C10 1_555 1_555
H7 C11 1_555 1_555
C12 H8 1_555 1_555
H9 C12 1_555 1_555
C13 H10 1_555 1_555
C14 C13 1_555 1_555
H11 C14 1_555 1_555
C15 H12 1_555 1_555
C16 H13 1_555 1_555
H14 C16 1_555 1_555
C17 C16 1_555 1_555
C18 C17 1_555 1_555
H15 C18 1_555 1_555
C19 C12 1_555 1_555
C20 C19 1_555 1_555
H16 C20 1_555 1_555
C21 C20 1_555 1_555
H17 C21 1_555 1_555
C22 C17 1_555 1_555
H18 C22 1_555 1_555
N1 C13 1_555 1_555
N2 C14 1_555 1_555
N3 C9 1_555 1_555
N4 C9 1_555 1_555
O1 C1 1_555 1_555
O2 C1 1_555 1_555
O3 C8 1_555 1_555
O4 C8 1_555 1_555
Zn1 N1 1_555 1_555
N3C Zn1 1_555 1_555
O3C Zn1 1_555 1_555
Zn1C O3 1_555 1_555
Zn1C_2 N3 1_555 1_555
C6 C7 1_555 1_555
C10 N3 1_555 1_555
C11 N4 1_555 1_555
C12 N4 1_555 1_555
C15 N1 1_555 1_555
C15 N2 1_555 1_555
C16 N2 1_555 1_555
C18 C19 1_555 1_555
C21 C22 1_555 1_555
O2 Zn1 1_555 1_555

#END
