
#######################################################################
#
#                 Cambridge Crystallographic Data Centre
#                                CCDC 
#
#######################################################################
#
# If this CIF has been generated from an entry in the Cambridge 
# Structural Database, then it will include bibliographic, chemical, 
# crystal, experimental, refinement or atomic coordinate data resulting 
# from the CCDC's data processing and validation procedures.
#
#######################################################################

data_GIMGEP
_symmetry_cell_setting           triclinic
_symmetry_space_group_name_H-M   'P -1'
_symmetry_Int_Tables_number      2
_space_group_name_Hall           '-P 1'
loop_
_symmetry_equiv_pos_site_id
_symmetry_equiv_pos_as_xyz
1 x,y,z
2 -x,-y,-z
_cell_length_a                   9.5840(10)
_cell_length_b                   12.5631(14)
_cell_length_c                   16.8097(18)
_cell_angle_alpha                76.777(2)
_cell_angle_beta                 87.428(3)
_cell_angle_gamma                68.209(2)
_cell_volume                     1827.72
loop_
_atom_site_label
_atom_site_type_symbol
_atom_site_fract_x
_atom_site_fract_y
_atom_site_fract_z
C23 C 0.5753(6) 0.6934(4) 0.2146(3)
H19 H 0.6459 0.6679 0.2578
C24 C 0.5293(6) 0.6230(4) 0.1825(3)
H20 H 0.5624 0.5413 0.1978
C25 C 0.4156(6) 0.8058(4) 0.1190(3)
H21 H 0.3553 0.8728 0.0816
C26 C 0.3140(5) 0.6654(4) 0.0726(3)
H22 H 0.2662 0.6184 0.1076
H23 H 0.2393 0.7340 0.0397
C27 C 0.429(8) 0.592(6) 0.026(4)
C28 C 0.4768(12) 0.4756(9) 0.0199(6)
H24 H 0.4375 0.4252 0.0580
C29 C 0.424(8) 0.570(6) 0.033(4)
C30 C 0.3624(11) 0.4940(9) 0.0914(6)
H25 H 0.2915 0.5254 0.1302
C31 C 0.4065(10) 0.3793(8) 0.0887(5)
H26 H 0.3669 0.3290 0.1267
C32 C 0.4877(10) 0.6685(8) -0.0332(5)
H27 H 0.4562 0.7503 -0.0325
C33 C 0.5402(7) 0.9332(5) 0.3450(3)
C34 C 0.5165(6) 0.9668(4) 0.4251(3)
C35 C 0.3885(6) 1.0563(4) 0.4392(3)
H28 H 0.3130 1.0972 0.3984
C36 C 0.6267(7) 0.9149(4) 0.4847(3)
H29 H 0.7161 0.8579 0.4745
C37 C 0.7471(6) 0.9547(5) 0.0770(3)
C38 C 0.8772(5) 0.9795(4) 0.0392(3)
C39 C 0.9384(6) 1.0488(5) 0.0633(3)
H30 H 0.8987 1.0817 0.1074
C40 C 0.9467(6) 0.9283(4) -0.0264(3)
H31 H 0.9113 0.8776 -0.0441
N5 N 0.5044(5) 0.8061(3) 0.1753(2)
N6 N 0.4222(4) 0.6974(3) 0.1217(2)
O5 O 0.4378(4) 0.9877(3) 0.2916(2)
O6 O 0.6479(4) 0.8518(3) 0.3341(2)
O7 O 0.7149(4) 0.9753(3) 0.14724(19)
O8 O 0.6714(4) 0.9179(3) 0.0393(2)
Zn2 Zn 0.53509(6) 0.94943(5) 0.18813(3)
C23A C 0.4247(6) 0.3066(4) -0.2146(3)
H19A H 0.3541 0.3321 -0.2578
C24A C 0.4707(6) 0.3770(4) -0.1825(3)
H20A H 0.4376 0.4587 -0.1978
C25A C 0.5844(6) 0.1942(4) -0.1190(3)
H21A H 0.6447 0.1272 -0.0816
C26A C 0.6860(5) 0.3346(4) -0.0726(3)
H22A H 0.7338 0.3816 -0.1076
H23A H 0.7607 0.2660 -0.0397
C27A C 0.571(8) 0.408(6) -0.026(4)
C28A C 0.5232(12) 0.5244(9) -0.0199(6)
H24A H 0.5625 0.5748 -0.0580
C29A C 0.576(8) 0.430(6) -0.033(4)
C30A C 0.6376(11) 0.5060(9) -0.0914(6)
H25A H 0.7085 0.4746 -0.1302
C31A C 0.5935(10) 0.6207(8) -0.0887(5)
H26A H 0.6331 0.6710 -0.1267
C32A C 0.5123(10) 0.3315(8) 0.0332(5)
H27A H 0.5438 0.2497 0.0325
C33A C 0.4598(7) 1.0668(5) 0.6550(3)
C34A C 0.4835(6) 1.0332(4) 0.5749(3)
C35A C 0.6115(6) 0.9437(4) 0.5608(3)
H28A H 0.6870 0.9028 0.6016
C36A C 0.3733(7) 1.0851(4) 0.5153(3)
H29A H 0.2839 1.1421 0.5255
C37A C 1.2529(6) 1.0453(5) -0.0770(3)
C38A C 1.1228(5) 1.0205(4) -0.0392(3)
C39A C 1.0616(6) 0.9512(5) -0.0633(3)
H30A H 1.1013 0.9183 -0.1074
C40A C 1.0533(6) 1.0717(4) 0.0264(3)
H31A H 1.0887 1.1224 0.0441
N5A N 0.4956(5) 0.1939(3) -0.1753(2)
N6A N 0.5778(4) 0.3026(3) -0.1217(2)
O5A O 0.5622(4) 1.0123(3) 0.7084(2)
O5A_2 O 0.5622(4) 0.0123(3) -0.2916(2)
O6A O 0.3521(4) 1.1482(3) 0.6659(2)
O7A O 1.2851(4) 1.0247(3) -0.14724(19)
O7A_2 O 0.2851(4) 0.0247(3) -0.14724(19)
O8A O 1.3286(4) 1.0821(3) -0.0393(2)
Zn2A Zn 0.46491(6) 0.05057(5) -0.18813(3)
Zn2A_2 Zn 0.46491(6) 1.05057(5) 0.81187(3)
Zn2A_3 Zn 1.46491(6) 1.05057(5) -0.18813(3)
O9 O 0.4656(8) 0.3909(7) 0.5409(4)
H32 H 0.4863 0.3661 0.4972
H33 H 0.4034 0.4617 0.5297
C1 C 0.5965(5) 0.2155(4) 0.2588(3)
H1 H 0.6479 0.1624 0.2272
C2 C 0.4532(6) 0.2376(4) 0.2837(3)
H2 H 0.3916 0.1987 0.2750
C3 C 0.5372(6) 0.3469(4) 0.3270(3)
H3 H 0.5423 0.4016 0.3546
C4 C 0.2681(5) 0.3912(4) 0.3508(3)
H4 H 0.1981 0.3544 0.3436
H5 H 0.2799 0.3838 0.4090
C5 C 0.1993(5) 0.5164(4) 0.3120(3)
C6 C 0.0787(6) 0.5598(4) 0.2527(3)
H6 H 0.0455 0.5058 0.2381
C7 C 0.0103(6) 0.6731(4) 0.2168(3)
H7 H -0.0652 0.6976 0.1763
C8 C 0.0558(6) 0.7539(5) 0.2422(3)
H8 H 0.0047 0.8339 0.2209
C9 C 0.1734(5) 0.7188(4) 0.2976(3)
C10 C 0.2404(5) 0.5967(4) 0.3334(3)
H9 H 0.3165 0.5714 0.3736
C11 C 0.2372(5) 0.7999(4) 0.3257(3)
H10 H 0.2961 0.7587 0.3765
H11 H 0.3031 0.8210 0.2849
C12 C 0.0829(7) 1.0163(5) 0.2971(4)
H12 H 0.1352 1.0388 0.2527
C13 C 0.0086(6) 0.9192(5) 0.3966(3)
H13 H -0.0036 0.8573 0.4350
C14 C -0.0706(5) 1.0276(4) 0.3904(3)
H14 H -0.1444 1.0575 0.4260
C15 C 0.8620(6) 0.4151(4) 0.3899(3)
C16 C 0.9325(5) 0.4601(4) 0.4477(3)
C17 C 1.0377(6) 0.3829(4) 0.5079(3)
H15 H 1.0655 0.3024 0.5128
C18 C 0.8968(6) 0.5783(4) 0.4387(3)
H16 H 0.8292 0.6321 0.3971
C19 C 1.0092(6) 0.3236(5) 0.1470(3)
C20 C 1.0068(6) 0.4125(4) 0.0720(3)
C21 C 0.8941(6) 0.5248(5) 0.0599(3)
H17 H 0.8174 0.5420 0.0963
C22 C 1.1002(7) 0.3897(5) 0.0082(3)
H18 H 1.1637 0.3121 0.0107
N1 N 0.6501(4) 0.2842(3) 0.2880(2)
N2 N 0.4182(4) 0.3219(3) 0.3214(2)
N3 N 0.1157(4) 0.9067(3) 0.3377(2)
N4 N -0.0324(5) 1.0904(4) 0.3264(2)
O1 O 0.9443(3) 0.3096(3) 0.38244(19)
O2 O 0.7427(4) 0.4769(3) 0.3579(2)
O3 O 0.8975(4) 0.3525(3) 0.1904(2)
O4 O 1.1196(4) 0.2288(3) 0.1624(2)
Zn1 Zn 0.86999(6) 0.26355(5) 0.29541(3)
C1_2 C 1.5965(5) -0.7845(4) 0.2588(3)
H1_2 H 1.6479 -0.8376 0.2272
C2_2 C 1.4532(6) -0.7624(4) 0.2837(3)
H2_2 H 1.3916 -0.8013 0.2750
C3_2 C 1.5372(6) -0.6531(4) 0.3270(3)
H3_2 H 1.5423 -0.5984 0.3546
C4_2 C 1.2681(5) -0.6088(4) 0.3508(3)
H4_2 H 1.1981 -0.6456 0.3436
H5_2 H 1.2799 -0.6162 0.4090
C5_2 C 1.1993(5) -0.4836(4) 0.3120(3)
C6_2 C 1.0787(6) -0.4402(4) 0.2527(3)
H6_2 H 1.0455 -0.4942 0.2381
C7_2 C 1.0103(6) -0.3269(4) 0.2168(3)
H7_2 H 0.9348 -0.3024 0.1763
C8_2 C 1.0558(6) -0.2461(5) 0.2422(3)
H8_2 H 1.0047 -0.1661 0.2209
C9_2 C 1.1734(5) -0.2812(4) 0.2976(3)
C10_2 C 1.2404(5) -0.4033(4) 0.3334(3)
H9_2 H 1.3165 -0.4286 0.3736
C11_2 C 1.2372(5) -0.2001(4) 0.3257(3)
H10_2 H 1.2961 -0.2413 0.3765
H11_2 H 1.3031 -0.1790 0.2849
C12_2 C 1.0829(7) 0.0163(5) 0.2971(4)
H12_2 H 1.1352 0.0388 0.2527
C13_2 C 1.0086(6) -0.0808(5) 0.3966(3)
H13_2 H 0.9964 -0.1427 0.4350
C14_2 C 0.9294(5) 0.0276(4) 0.3904(3)
H14_2 H 0.8556 0.0575 0.4260
C15A C 1.1380(6) 0.5849(4) 0.6101(3)
C16A C 1.0675(5) 0.5399(4) 0.5523(3)
C17A C 0.9623(6) 0.6171(4) 0.4921(3)
H15A H 0.9345 0.6976 0.4872
C18A C 1.1032(6) 0.4217(4) 0.5613(3)
H16A H 1.1708 0.3679 0.6029
C19A C 0.9908(6) 0.6764(5) -0.1470(3)
C20A C 0.9932(6) 0.5875(4) -0.0720(3)
C21A C 1.1059(6) 0.4752(5) -0.0599(3)
H17A H 1.1826 0.4580 -0.0963
C22A C 0.8998(7) 0.6103(5) -0.0082(3)
H18A H 0.8363 0.6879 -0.0107
N1_2 N 1.6501(4) -0.7158(3) 0.2880(2)
N2_2 N 1.4182(4) -0.6781(3) 0.3214(2)
N3_2 N 1.1157(4) -0.0933(3) 0.3377(2)
N4_2 N 0.9676(5) 0.0904(4) 0.3264(2)
N4_3 N 1.9676(5) -0.9096(4) 0.3264(2)
O1A O 1.0557(3) 0.6904(3) 0.61756(19)
O1_2 O 1.9443(3) -0.6904(3) 0.38244(19)
O2A O 1.2573(4) 0.5231(3) 0.6421(2)
O3A O 1.1025(4) 0.6475(3) -0.1904(2)
O3_2 O 1.8975(4) -0.6475(3) 0.1904(2)
O4A O 0.8804(4) 0.7712(3) -0.1624(2)
Zn1_2 Zn 1.86999(6) -0.73645(5) 0.29541(3)
Zn1_3 Zn -0.13001(6) 1.26355(5) 0.29541(3)
Zn1A Zn 1.13001(6) 0.73645(5) 0.70459(3)
Zn1A_2 Zn 1.13001(6) 0.73645(5) -0.29541(3)
loop_
_geom_bond_atom_site_label_1
_geom_bond_atom_site_label_2
_geom_bond_site_symmetry_1
_geom_bond_site_symmetry_2
C1 H1 1_555 1_555
C2 C1 1_555 1_555
H2 C2 1_555 1_555
C3 H3 1_555 1_555
C4 H4 1_555 1_555
H5 C4 1_555 1_555
C5 C4 1_555 1_555
C6 C5 1_555 1_555
H6 C6 1_555 1_555
C7 C6 1_555 1_555
H7 C7 1_555 1_555
C8 C7 1_555 1_555
H8 C8 1_555 1_555
C9 C8 1_555 1_555
C10 C5 1_555 1_555
H9 C10 1_555 1_555
C11 C9 1_555 1_555
H10 C11 1_555 1_555
H11 C11 1_555 1_555
C12 H12 1_555 1_555
C13 H13 1_555 1_555
C14 C13 1_555 1_555
H14 C14 1_555 1_555
C15 C16 1_555 1_555
C16 C17 1_555 1_555
C17 H15 1_555 1_555
C18 C16 1_555 1_555
H16 C18 1_555 1_555
C19 C20 1_555 1_555
C20 C21 1_555 1_555
C21 H17 1_555 1_555
C22 C20 1_555 1_555
H18 C22 1_555 1_555
C23 H19 1_555 1_555
C24 C23 1_555 1_555
H20 C24 1_555 1_555
C25 H21 1_555 1_555
C26 H22 1_555 1_555
H23 C26 1_555 1_555
C27 C26 1_555 1_555
C28 C27 1_555 1_555
H24 C28 1_555 1_555
C29 C26 1_555 1_555
C30 C27 1_555 1_555
H25 C30 1_555 1_555
C31 H24 1_555 1_555
H26 C31 1_555 1_555
C32 C27 1_555 1_555
H27 C32 1_555 1_555
C33 C34 1_555 1_555
C34 C35 1_555 1_555
C35 H28 1_555 1_555
C36 C34 1_555 1_555
H29 C36 1_555 1_555
C37 C38 1_555 1_555
C38 C39 1_555 1_555
C39 H30 1_555 1_555
C40 C38 1_555 1_555
H31 C40 1_555 1_555
N1 C1 1_555 1_555
N2 C2 1_555 1_555
N3 C11 1_555 1_555
N4 C12 1_555 1_555
N5 C23 1_555 1_555
N6 C24 1_555 1_555
O1 C15 1_555 1_555
O2 C15 1_555 1_555
O3 C19 1_555 1_555
O4 C19 1_555 1_555
O5 C33 1_555 1_555
O6 C33 1_555 1_555
O7 C37 1_555 1_555
O8 C37 1_555 1_555
O9 H32 1_555 1_555
H33 O9 1_555 1_555
Zn1 N1 1_555 1_555
Zn2 N5 1_555 1_555
C1_2 H1_2 1_555 1_555
C2_2 C1_2 1_555 1_555
H2_2 C2_2 1_555 1_555
C3_2 H3_2 1_555 1_555
C4_2 H4_2 1_555 1_555
H5_2 C4_2 1_555 1_555
C5_2 C4_2 1_555 1_555
C6_2 C5_2 1_555 1_555
H6_2 C6_2 1_555 1_555
C7_2 C6_2 1_555 1_555
H7_2 C7_2 1_555 1_555
C8_2 C7_2 1_555 1_555
H8_2 C8_2 1_555 1_555
C9_2 C8_2 1_555 1_555
C10_2 C5_2 1_555 1_555
H9_2 C10_2 1_555 1_555
C11_2 C9_2 1_555 1_555
H10_2 C11_2 1_555 1_555
H11_2 C11_2 1_555 1_555
C12_2 H12_2 1_555 1_555
C13_2 H13_2 1_555 1_555
C14_2 C13_2 1_555 1_555
H14_2 C14_2 1_555 1_555
C15A C16A 1_555 1_555
C16A C17A 1_555 1_555
C17A C18 1_555 1_555
H15A C17A 1_555 1_555
C18A C17 1_555 1_555
H16A C18A 1_555 1_555
C19A C20A 1_555 1_555
C20A C21A 1_555 1_555
C21A C22 1_555 1_555
H17A C21A 1_555 1_555
C22A C21 1_555 1_555
H18A C22A 1_555 1_555
C23A H19A 1_555 1_555
C24A C23A 1_555 1_555
H20A C24A 1_555 1_555
C25A H21A 1_555 1_555
C26A H22A 1_555 1_555
H23A C26A 1_555 1_555
C27A C28 1_555 1_555
C28A C27 1_555 1_555
H24A C32 1_555 1_555
C29A C28 1_555 1_555
C30A C27A 1_555 1_555
H25A C30A 1_555 1_555
C31A C32 1_555 1_555
H26A C31A 1_555 1_555
C32A C28 1_555 1_555
H27A C32A 1_555 1_555
C33A C34A 1_555 1_555
C34A C35A 1_555 1_555
C35A C36 1_555 1_555
H28A C35A 1_555 1_555
C36A C35 1_555 1_555
H29A C36A 1_555 1_555
C37A C38A 1_555 1_555
C38A C39A 1_555 1_555
C39A C40 1_555 1_555
H30A C39A 1_555 1_555
C40A C39 1_555 1_555
H31A C40A 1_555 1_555
N1_2 C1_2 1_555 1_555
N2_2 C2_2 1_555 1_555
N3_2 C11_2 1_555 1_555
N4_2 Zn1 1_555 1_555
N4_3 Zn1_2 1_555 1_555
N5A C23A 1_555 1_555
N6A C24A 1_555 1_555
O1A C15A 1_555 1_555
O1_2 Zn1_2 1_555 1_555
O2A C15A 1_555 1_555
O3A C19A 1_555 1_555
O3_2 Zn1_2 1_555 1_555
O4A C19A 1_555 1_555
O5A C33A 1_555 1_555
O5A_2 Zn2A 1_555 1_555
O6A C33A 1_555 1_555
O7A C37A 1_555 1_555
O7A_2 Zn2A 1_555 1_555
O8A C37A 1_555 1_555
Zn1_2 N1_2 1_555 1_555
Zn1_3 N4 1_555 1_555
Zn1A O1A 1_555 1_555
Zn1A_2 O3A 1_555 1_555
Zn2A N5A 1_555 1_555
Zn2A_2 O5A 1_555 1_555
Zn2A_3 O7A 1_555 1_555
C3 N1 1_555 1_555
C3 N2 1_555 1_555
C4 N2 1_555 1_555
C9 C10 1_555 1_555
C12 N3 1_555 1_555
C13 N3 1_555 1_555
C14 N4 1_555 1_555
C25 N5 1_555 1_555
C25 N6 1_555 1_555
C26 N6 1_555 1_555
C27 C29 1_555 1_555
C28 C29 1_555 1_555
C28 C30 1_555 1_555
C28 C28A 1_555 1_555
H24 C30 1_555 1_555
H24 C32A 1_555 1_555
C29 C30 1_555 1_555
C29 C32 1_555 1_555
C29 C28A 1_555 1_555
C30 C31 1_555 1_555
C31 C32A 1_555 1_555
C32 C28A 1_555 1_555
O1 Zn1 1_555 1_555
O3 Zn1 1_555 1_555
O5 Zn2 1_555 1_555
O7 Zn2 1_555 1_555
C3_2 N1_2 1_555 1_555
C3_2 N2_2 1_555 1_555
C4_2 N2_2 1_555 1_555
C9_2 C10_2 1_555 1_555
C12_2 N3_2 1_555 1_555
C12_2 N4_2 1_555 1_555
C13_2 N3_2 1_555 1_555
C14_2 N4_2 1_555 1_555
C16A C18A 1_555 1_555
C20A C22A 1_555 1_555
C25A N5A 1_555 1_555
C25A N6A 1_555 1_555
C26A C27A 1_555 1_555
C26A C29A 1_555 1_555
C26A N6A 1_555 1_555
C27A C28A 1_555 1_555
C27A C29A 1_555 1_555
C27A C32A 1_555 1_555
C28A H24A 1_555 1_555
C28A C29A 1_555 1_555
C28A C30A 1_555 1_555
H24A C30A 1_555 1_555
H24A C31A 1_555 1_555
C29A C30A 1_555 1_555
C29A C32A 1_555 1_555
C30A C31A 1_555 1_555
C34A C36A 1_555 1_555
C38A C40A 1_555 1_555

#END
