
#######################################################################
#
#                 Cambridge Crystallographic Data Centre
#                                CCDC 
#
#######################################################################
#
# If this CIF has been generated from an entry in the Cambridge 
# Structural Database, then it will include bibliographic, chemical, 
# crystal, experimental, refinement or atomic coordinate data resulting 
# from the CCDC's data processing and validation procedures.
#
#######################################################################

data_GIMGIT
_symmetry_cell_setting           triclinic
_symmetry_space_group_name_H-M   'P -1'
_symmetry_Int_Tables_number      2
_space_group_name_Hall           '-P 1'
loop_
_symmetry_equiv_pos_site_id
_symmetry_equiv_pos_as_xyz
1 x,y,z
2 -x,-y,-z
_cell_length_a                   9.601(3)
_cell_length_b                   9.690(3)
_cell_length_c                   11.815(3)
_cell_angle_alpha                108.367(5)
_cell_angle_beta                 103.743(5)
_cell_angle_gamma                91.988(5)
_cell_volume                     1006.15
loop_
_atom_site_label
_atom_site_type_symbol
_atom_site_fract_x
_atom_site_fract_y
_atom_site_fract_z
Zn1 Zn 0.47737(4) 0.10347(5) 0.24522(3)
C1 C 0.7482(4) 0.0030(4) 0.3076(3)
C2 C 0.8783(4) -0.0012(4) 0.4078(3)
C3 C 1.0123(4) -0.0059(4) 0.3860(3)
H1 H 1.0216 -0.0102 0.3084
C4 C 0.8662(4) 0.0045(4) 0.5232(3)
H2 H 0.7762 0.0073 0.5398
C5 C 0.4313(4) 0.2974(4) 0.1188(3)
C6 C 0.4674(4) 0.4003(4) 0.0561(3)
C7 C 0.6061(4) 0.4294(5) 0.0499(4)
H3 H 0.6793 0.3820 0.0832
C8 C 0.3626(4) 0.4727(5) 0.0050(4)
H4 H 0.2679 0.4545 0.0078
C9 C 0.3296(4) 0.3292(4) 0.4029(3)
H5 H 0.2763 0.3482 0.3338
C10 C 0.4722(5) 0.2362(5) 0.5185(3)
H6 H 0.5381 0.1773 0.5448
C11 C 0.4170(5) 0.3409(6) 0.5914(4)
H7 H 0.4370 0.3680 0.6769
C12 C 0.2496(5) 0.5287(5) 0.5559(4)
H8 H 0.1926 0.5436 0.4820
H9 H 0.3207 0.6141 0.5996
C13 C 0.1528(4) 0.5215(4) 0.6354(3)
C14 C 0.1253(4) 0.6520(4) 0.7125(3)
H10 H 0.1699 0.7393 0.7135
C15 C 0.0348(4) 0.6577(4) 0.7875(3)
C16 C -0.0303(4) 0.5279(4) 0.7866(3)
H11 H -0.0920 0.5293 0.8368
C17 C -0.0039(5) 0.3964(5) 0.7111(4)
H12 H -0.0478 0.3090 0.7106
C18 C 0.0880(5) 0.3934(5) 0.6356(4)
H13 H 0.1056 0.3041 0.5851
C19 C 0.0145(4) 0.8025(4) 0.8725(3)
H14 H 0.0230 0.8772 0.8351
H15 H -0.0817 0.7976 0.8849
C20 C 0.2421(4) 0.9372(4) 1.0288(3)
H16 H 0.2694 0.9886 0.9815
C21 C 0.1200(5) 0.7899(5) 1.0855(4)
H17 H 0.0498 0.7221 1.0866
C22 C 0.2401(5) 0.8553(5) 1.1755(3)
H18 H 0.2670 0.8396 1.2510
N1 N 0.4169(3) 0.2284(4) 0.3980(2)
N2 N 0.3257(4) 0.4017(4) 0.5184(3)
N3 N 0.1224(3) 0.8433(3) 0.9930(2)
N4 N 0.3160(3) 0.9467(3) 1.1408(2)
O1 O 0.6366(3) 0.0416(3) 0.3457(2)
O2 O 0.7567(3) -0.0272(3) 0.2020(2)
O3 O 0.5330(3) 0.2287(3) 0.1585(2)
O4 O 0.3093(3) 0.2854(3) 0.1336(2)
Zn1_2 Zn 0.47737(4) -0.89653(5) -0.75478(3)
Zn1_3 Zn 0.47737(4) 1.10347(5) 1.24522(3)
Zn1A Zn 1.52263(4) -0.10347(5) 0.75478(3)
Zn1A_2 Zn 0.52263(4) 0.89653(5) -0.24522(3)
C1A C 1.2518(4) -0.0030(4) 0.6924(3)
C2A C 1.1217(4) 0.0012(4) 0.5922(3)
C3A C 0.9877(4) 0.0059(4) 0.6140(3)
H1A H 0.9784 0.0102 0.6916
C4A C 1.1338(4) -0.0045(4) 0.4768(3)
H2A H 1.2238 -0.0073 0.4602
C5A C 0.5687(4) 0.7026(4) -0.1188(3)
C6A C 0.5326(4) 0.5997(4) -0.0561(3)
C7A C 0.3939(4) 0.5706(5) -0.0499(4)
H3A H 0.3207 0.6180 -0.0832
C8A C 0.6374(4) 0.5273(5) -0.0050(4)
H4A H 0.7321 0.5455 -0.0078
C9_2 C 0.3296(4) -0.6708(4) -0.5971(3)
H5_2 H 0.2763 -0.6518 -0.6662
C10_2 C 0.4722(5) -0.7638(5) -0.4815(3)
H6_2 H 0.5381 -0.8227 -0.4552
C11_2 C 0.4170(5) -0.6591(6) -0.4086(4)
H7_2 H 0.4370 -0.6320 -0.3231
C12_2 C 0.2496(5) -0.4713(5) -0.4441(4)
H8_2 H 0.1926 -0.4564 -0.5180
H9_2 H 0.3207 -0.3859 -0.4004
C13_2 C 0.1528(4) -0.4785(4) -0.3646(3)
C14_2 C 0.1253(4) -0.3480(4) -0.2875(3)
H10_2 H 0.1699 -0.2607 -0.2865
C15_2 C 0.0348(4) -0.3423(4) -0.2125(3)
C16_2 C -0.0303(4) -0.4721(4) -0.2134(3)
H11_2 H -0.0920 -0.4707 -0.1632
C17_2 C -0.0039(5) -0.6036(5) -0.2889(4)
H12_2 H -0.0478 -0.6910 -0.2894
C18_2 C 0.0880(5) -0.6066(5) -0.3644(4)
H13_2 H 0.1056 -0.6959 -0.4149
C19_2 C 0.0145(4) -0.1975(4) -0.1275(3)
H14_2 H 0.0230 -0.1228 -0.1649
H15_2 H -0.0817 -0.2024 -0.1151
C20_2 C 0.2421(4) -0.0628(4) 0.0288(3)
H16_2 H 0.2694 -0.0114 -0.0185
C21_2 C 0.1200(5) -0.2101(5) 0.0855(4)
H17_2 H 0.0498 -0.2779 0.0866
C22_2 C 0.2401(5) -0.1447(5) 0.1755(3)
H18_2 H 0.2670 -0.1604 0.2510
N1_2 N 0.4169(3) -0.7716(4) -0.6020(2)
N2_2 N 0.3257(4) -0.5983(4) -0.4816(3)
N3_2 N 0.1224(3) -0.1567(3) -0.0070(2)
N4_2 N 0.3160(3) -0.0533(3) 0.1408(2)
N4_3 N 0.3160(3) -1.0533(3) -0.8592(2)
O1A O 1.3634(3) -0.0416(3) 0.6543(2)
O1_2 O 0.6366(3) -0.9584(3) -0.6543(2)
O2A O 1.2433(3) 0.0272(3) 0.7980(2)
O3A O 0.4670(3) 0.7713(3) -0.1585(2)
O3_2 O 0.5330(3) -0.7713(3) -0.8415(2)
O4A O 0.6907(3) 0.7146(3) -0.1336(2)
loop_
_geom_bond_atom_site_label_1
_geom_bond_atom_site_label_2
_geom_bond_site_symmetry_1
_geom_bond_site_symmetry_2
Zn1 N1 1_555 1_555
C1 C2 1_555 1_555
C2 C3 1_555 1_555
C3 H1 1_555 1_555
C4 C2 1_555 1_555
H2 C4 1_555 1_555
C5 C6 1_555 1_555
C6 C7 1_555 1_555
C7 H3 1_555 1_555
C8 C6 1_555 1_555
H4 C8 1_555 1_555
C9 H5 1_555 1_555
C10 H6 1_555 1_555
C11 C10 1_555 1_555
H7 C11 1_555 1_555
C12 H8 1_555 1_555
H9 C12 1_555 1_555
C13 C12 1_555 1_555
C14 C13 1_555 1_555
H10 C14 1_555 1_555
C15 C14 1_555 1_555
C16 C15 1_555 1_555
H11 C16 1_555 1_555
C17 C16 1_555 1_555
H12 C17 1_555 1_555
C18 C13 1_555 1_555
H13 C18 1_555 1_555
C19 C15 1_555 1_555
H14 C19 1_555 1_555
H15 C19 1_555 1_555
C20 H16 1_555 1_555
C21 H17 1_555 1_555
C22 C21 1_555 1_555
H18 C22 1_555 1_555
N1 C9 1_555 1_555
N2 C9 1_555 1_555
N3 C19 1_555 1_555
N4 C20 1_555 1_555
O1 Zn1 1_555 1_555
O2 C1 1_555 1_555
O3 Zn1 1_555 1_555
O4 C5 1_555 1_555
Zn1_2 N1_2 1_555 1_555
Zn1_3 N4 1_555 1_555
Zn1A O1A 1_555 1_555
Zn1A_2 O3A 1_555 1_555
C1A C2A 1_555 1_555
C2A C3A 1_555 1_555
C3A C4 1_555 1_555
H1A C3A 1_555 1_555
C4A C3 1_555 1_555
H2A C4A 1_555 1_555
C5A C6A 1_555 1_555
C6A C7A 1_555 1_555
C7A C8 1_555 1_555
H3A C7A 1_555 1_555
C8A C7 1_555 1_555
H4A C8A 1_555 1_555
C9_2 H5_2 1_555 1_555
C10_2 H6_2 1_555 1_555
C11_2 C10_2 1_555 1_555
H7_2 C11_2 1_555 1_555
C12_2 H8_2 1_555 1_555
H9_2 C12_2 1_555 1_555
C13_2 C12_2 1_555 1_555
C14_2 C13_2 1_555 1_555
H10_2 C14_2 1_555 1_555
C15_2 C14_2 1_555 1_555
C16_2 C15_2 1_555 1_555
H11_2 C16_2 1_555 1_555
C17_2 C16_2 1_555 1_555
H12_2 C17_2 1_555 1_555
C18_2 C13_2 1_555 1_555
H13_2 C18_2 1_555 1_555
C19_2 C15_2 1_555 1_555
H14_2 C19_2 1_555 1_555
H15_2 C19_2 1_555 1_555
C20_2 H16_2 1_555 1_555
C21_2 H17_2 1_555 1_555
C22_2 C21_2 1_555 1_555
H18_2 C22_2 1_555 1_555
N1_2 C9_2 1_555 1_555
N2_2 C9_2 1_555 1_555
N3_2 C19_2 1_555 1_555
N4_2 Zn1 1_555 1_555
N4_3 Zn1_2 1_555 1_555
O1A C1A 1_555 1_555
O1_2 Zn1_2 1_555 1_555
O2A C1A 1_555 1_555
O3A C5A 1_555 1_555
O3_2 Zn1_2 1_555 1_555
O4A C5A 1_555 1_555
C1 O1 1_555 1_555
C5 O3 1_555 1_555
C10 N1 1_555 1_555
C11 N2 1_555 1_555
C12 N2 1_555 1_555
C17 C18 1_555 1_555
C20 N3 1_555 1_555
C21 N3 1_555 1_555
C22 N4 1_555 1_555
C2A C4A 1_555 1_555
C6A C8A 1_555 1_555
C10_2 N1_2 1_555 1_555
C11_2 N2_2 1_555 1_555
C12_2 N2_2 1_555 1_555
C17_2 C18_2 1_555 1_555
C20_2 N3_2 1_555 1_555
C20_2 N4_2 1_555 1_555
C21_2 N3_2 1_555 1_555
C22_2 N4_2 1_555 1_555

#END
