
#######################################################################
#
#                 Cambridge Crystallographic Data Centre
#                                CCDC 
#
#######################################################################
#
# If this CIF has been generated from an entry in the Cambridge 
# Structural Database, then it will include bibliographic, chemical, 
# crystal, experimental, refinement or atomic coordinate data resulting 
# from the CCDC's data processing and validation procedures.
#
#######################################################################

data_GIMGOZ
_symmetry_cell_setting           orthorhombic
_symmetry_space_group_name_H-M   'P n a 21'
_symmetry_Int_Tables_number      33
_space_group_name_Hall           'P 2c -2n'
loop_
_symmetry_equiv_pos_site_id
_symmetry_equiv_pos_as_xyz
1 x,y,z
2 -x,-y,1/2+z
3 1/2-x,1/2+y,1/2+z
4 1/2+x,1/2-y,z
_cell_length_a                   13.173(5)
_cell_length_b                   8.493(5)
_cell_length_c                   12.555(5)
_cell_angle_alpha                90
_cell_angle_beta                 90
_cell_angle_gamma                90
_cell_volume                     1404.63
loop_
_atom_site_label
_atom_site_type_symbol
_atom_site_fract_x
_atom_site_fract_y
_atom_site_fract_z
Ag1 Ag 0.459670(19) 0.43799(4) 0.59724(3)
C1 C 0.2947(3) 0.1243(5) 0.6248(3)
H1 H 0.3434 0.0781 0.6683
C2 C 0.1942(3) 0.0794(4) 0.6360(3)
H2 H 0.1773 0.0031 0.6860
C3 C 0.1495(3) 0.2503(4) 0.5030(3)
H3 H 0.1007 0.2956 0.4591
C4 C 0.2508(3) 0.2943(4) 0.4915(3)
C5 C 0.2841(3) 0.4078(5) 0.4073(3)
H4 H 0.2248 0.4471 0.3701
H5 H 0.3262 0.3527 0.3560
C6 C 0.2546(3) 0.6859(5) 0.5275(3)
H6 H 0.2117 0.6160 0.5688
H7 H 0.2840 0.7633 0.5752
C7 C 0.1931(3) 0.7665(4) 0.4425(3)
C8 C 0.0995(3) 0.7087(5) 0.4110(3)
H8 H 0.0696 0.6252 0.4473
C9 C 0.0507(3) 0.7776(5) 0.3239(4)
H9 H -0.0112 0.7364 0.3018
C10 C 0.1772(4) 0.9611(5) 0.3041(4)
H10 H 0.2025 1.0499 0.2697
C11 C 0.2323(3) 0.8970(5) 0.3875(3)
H11 H 0.2946 0.9400 0.4069
N1 N 0.3238(2) 0.2320(4) 0.5536(3)
N2 N 0.1209(2) 0.1437(4) 0.5761(2)
N3 N 0.0892(3) 0.9003(5) 0.2711(3)
S1 S 0.35514(8) 0.57357(11) 0.46111(9)
Ag1C Ag -0.040330(19) 0.06201(4) 0.59724(3)
Ag1B Ag 0.040330(19) 0.93799(4) 0.09724(3)
N2C N 0.6209(2) 0.3563(4) 0.5761(2)
N3B N 0.4108(3) 0.4003(5) 0.7711(3)
F1 F 0.5392(2) 0.9813(4) 0.6635(3)
F2 F 0.4135(2) 0.8239(4) 0.7284(3)
F3 F 0.5714(3) 0.7235(4) 0.6960(3)
F4 F 0.5446(2) 0.8901(5) 0.8349(3)
B1 B 0.5175(4) 0.8550(6) 0.7296(4)
loop_
_geom_bond_atom_site_label_1
_geom_bond_atom_site_label_2
_geom_bond_site_symmetry_1
_geom_bond_site_symmetry_2
Ag1 N1 1_555 1_555
C1 H1 1_555 1_555
C2 C1 1_555 1_555
H2 C2 1_555 1_555
C3 H3 1_555 1_555
C4 C3 1_555 1_555
C5 C4 1_555 1_555
H4 C5 1_555 1_555
H5 C5 1_555 1_555
C6 H6 1_555 1_555
H7 C6 1_555 1_555
C7 C6 1_555 1_555
C8 C7 1_555 1_555
H8 C8 1_555 1_555
C9 C8 1_555 1_555
H9 C9 1_555 1_555
C10 H10 1_555 1_555
C11 C7 1_555 1_555
H11 C11 1_555 1_555
N1 C1 1_555 1_555
N2 C2 1_555 1_555
N3 C9 1_555 1_555
S1 Ag1 1_555 1_555
F1 B1 1_555 1_555
F2 B1 1_555 1_555
F3 B1 1_555 1_555
F4 B1 1_555 1_555
Ag1C N2 1_555 1_555
Ag1B N3 1_555 1_555
N2C Ag1 1_555 1_555
N3B Ag1 1_555 1_555
C3 N2 1_555 1_555
C4 N1 1_555 1_555
C5 S1 1_555 1_555
C6 S1 1_555 1_555
C10 C11 1_555 1_555
C10 N3 1_555 1_555

#END
