
#######################################################################
#
#                 Cambridge Crystallographic Data Centre
#                                CCDC 
#
#######################################################################
#
# If this CIF has been generated from an entry in the Cambridge 
# Structural Database, then it will include bibliographic, chemical, 
# crystal, experimental, refinement or atomic coordinate data resulting 
# from the CCDC's data processing and validation procedures.
#
#######################################################################

data_GIMGUF
_symmetry_cell_setting           orthorhombic
_symmetry_space_group_name_H-M   'P n a 21'
_symmetry_Int_Tables_number      33
_space_group_name_Hall           'P 2c -2n'
loop_
_symmetry_equiv_pos_site_id
_symmetry_equiv_pos_as_xyz
1 x,y,z
2 -x,-y,1/2+z
3 1/2-x,1/2+y,1/2+z
4 1/2+x,1/2-y,z
_cell_length_a                   13.080(4)
_cell_length_b                   8.564(3)
_cell_length_c                   12.607(4)
_cell_angle_alpha                90
_cell_angle_beta                 90
_cell_angle_gamma                90
_cell_volume                     1412.2
loop_
_atom_site_label
_atom_site_type_symbol
_atom_site_fract_x
_atom_site_fract_y
_atom_site_fract_z
Ag1 Ag 0.459142(8) 0.440197(15) 0.597122(13)
C1 C 0.29255(12) 0.12998(18) 0.62715(14)
H1 H 0.3418 0.0846 0.6705
C2 C 0.19169(13) 0.08522(18) 0.63829(14)
H2 H 0.1743 0.0111 0.6891
C3 C 0.14790(12) 0.25310(18) 0.50417(14)
H3 H 0.0986 0.2978 0.4606
C4 C 0.24899(11) 0.29693(16) 0.49271(13)
C5 C 0.28221(13) 0.41009(19) 0.40853(14)
H4 H 0.2222 0.4491 0.3719
H5 H 0.3241 0.3554 0.3570
C6 C 0.25437(12) 0.68672(19) 0.52699(14)
H6 H 0.2106 0.6180 0.5680
H7 H 0.2847 0.7626 0.5747
C7 C 0.19319(12) 0.76828(17) 0.44255(14)
C8 C 0.09955(12) 0.71158(18) 0.41089(14)
H8 H 0.0691 0.6288 0.4467
C9 C 0.05114(12) 0.7805(2) 0.32427(15)
H9 H -0.0109 0.7389 0.3020
C10 C 0.17823(14) 0.96204(19) 0.30467(16)
H10 H 0.2047 1.0494 0.2705
C11 C 0.23294(13) 0.89773(19) 0.38833(15)
H11 H 0.2955 0.9402 0.4083
N1 N 0.32132(11) 0.23654(15) 0.55587(12)
N2 N 0.11934(10) 0.14667(15) 0.57747(11)
N3 N 0.08885(11) 0.90338(18) 0.27118(13)
S1 S 0.35403(3) 0.57424(4) 0.46081(4)
Ag1C Ag -0.040858(8) 0.059803(15) 0.597122(13)
Ag1B Ag 0.040858(8) 0.940197(15) 0.097122(13)
N2C N 0.61934(10) 0.35333(15) 0.57747(11)
N3B N 0.41115(11) 0.40338(18) 0.77118(13)
O1 O 0.56975(12) 0.71741(16) 0.68891(13)
O2 O 0.53879(11) 0.98637(18) 0.66213(15)
O3 O 0.54913(10) 0.8829(2) 0.83733(13)
O4 O 0.40915(9) 0.82403(16) 0.72929(13)
Cl1 Cl 0.51680(3) 0.85311(4) 0.72885(3)
loop_
_geom_bond_atom_site_label_1
_geom_bond_atom_site_label_2
_geom_bond_site_symmetry_1
_geom_bond_site_symmetry_2
Ag1 N1 1_555 1_555
C1 H1 1_555 1_555
C2 C1 1_555 1_555
H2 C2 1_555 1_555
C3 H3 1_555 1_555
C4 C3 1_555 1_555
C5 C4 1_555 1_555
H4 C5 1_555 1_555
H5 C5 1_555 1_555
C6 H6 1_555 1_555
H7 C6 1_555 1_555
C7 C6 1_555 1_555
C8 C7 1_555 1_555
H8 C8 1_555 1_555
C9 C8 1_555 1_555
H9 C9 1_555 1_555
C10 H10 1_555 1_555
C11 C7 1_555 1_555
H11 C11 1_555 1_555
N1 C1 1_555 1_555
N2 C2 1_555 1_555
N3 C9 1_555 1_555
S1 Ag1 1_555 1_555
O1 Cl1 1_555 1_555
O2 Cl1 1_555 1_555
O3 Cl1 1_555 1_555
O4 Cl1 1_555 1_555
Ag1C N2 1_555 1_555
Ag1B N3 1_555 1_555
N2C Ag1 1_555 1_555
N3B Ag1 1_555 1_555
C3 N2 1_555 1_555
C4 N1 1_555 1_555
C5 S1 1_555 1_555
C6 S1 1_555 1_555
C10 C11 1_555 1_555
C10 N3 1_555 1_555

#END
