
#######################################################################
#
#                 Cambridge Crystallographic Data Centre
#                                CCDC 
#
#######################################################################
#
# If this CIF has been generated from an entry in the Cambridge 
# Structural Database, then it will include bibliographic, chemical, 
# crystal, experimental, refinement or atomic coordinate data resulting 
# from the CCDC's data processing and validation procedures.
#
#######################################################################

data_GIMHAM
_symmetry_cell_setting           orthorhombic
_symmetry_space_group_name_H-M   'P n a 21'
_symmetry_Int_Tables_number      33
_space_group_name_Hall           'P 2c -2n'
loop_
_symmetry_equiv_pos_site_id
_symmetry_equiv_pos_as_xyz
1 x,y,z
2 -x,-y,1/2+z
3 1/2-x,1/2+y,1/2+z
4 1/2+x,1/2-y,z
_cell_length_a                   13.939(5)
_cell_length_b                   8.334(5)
_cell_length_c                   12.856(5)
_cell_angle_alpha                90
_cell_angle_beta                 90
_cell_angle_gamma                90
_cell_volume                     1493.45
loop_
_atom_site_label
_atom_site_type_symbol
_atom_site_fract_x
_atom_site_fract_y
_atom_site_fract_z
C1 C 0.23649(6) 0.88237(9) 0.16620(8)
H1 H 0.1940 0.9332 0.1212
C2 C 0.33424(6) 0.91393(10) 0.15736(7)
H2 H 0.3557 0.9856 0.1070
C3 C 0.36326(5) 0.74186(9) 0.29245(6)
H3 H 0.4057 0.6910 0.3374
C4 C 0.26513(4) 0.71148(8) 0.30182(6)
N1 N 0.20209(4) 0.78094(8) 0.23759(6)
N2 N 0.39777(4) 0.84251(8) 0.22030(5)
C5 C 0.22685(6) 0.60564(9) 0.38702(6)
H4 H 0.1943 0.6725 0.4377
H5 H 0.2806 0.5547 0.4218
C6 C 0.22649(7) 0.30813(11) 0.28183(7)
H6 H 0.1900 0.2278 0.2442
H7 H 0.2673 0.3640 0.2326
C7 C 0.28700(6) 0.22858(9) 0.36334(6)
C8 C 0.38034(6) 0.28022(10) 0.38258(7)
H8 H 0.4094 0.3549 0.3390
C9 C 0.42954(5) 0.21843(10) 0.46807(7)
H9 H 0.4914 0.2550 0.4810
C10 C 0.30417(6) 0.05187(10) 0.50966(7)
H10 H 0.2790 -0.0294 0.5511
C11 C 0.24934(6) 0.10842(9) 0.42730(8)
H11 H 0.1885 0.0670 0.4149
N3 N 0.39187(5) 0.10906(7) 0.53232(6)
S1 S 0.144502(12) 0.45084(2) 0.343831(16)
Ag1 Ag 0.056383(3) 0.603689(6) 0.202470(7)
N2C N -0.10223(4) 0.65749(8) 0.22030(5)
N3B N 0.10813(5) 0.60906(7) 0.03232(6)
Ag1C Ag 0.556383(3) 0.896311(6) 0.202470(7)
Ag1B Ag 0.443617(3) 0.103689(6) 0.702470(7)
F1 F 0.50336(9) 0.50007(11) 0.63413(8)
F2 F 0.52548(7) 0.56096(10) 0.46358(6)
F3 F 0.39844(5) 0.66526(10) 0.55147(7)
F4 F 0.49991(7) 0.76482(11) 0.67336(7)
F5 F 0.52166(5) 0.82405(8) 0.50237(7)
F6 F 0.62661(5) 0.66152(13) 0.58508(8)
P1 P 0.512340(15) 0.66176(2) 0.568999(18)
loop_
_geom_bond_atom_site_label_1
_geom_bond_atom_site_label_2
_geom_bond_site_symmetry_1
_geom_bond_site_symmetry_2
C1 H1 1_555 1_555
C2 C1 1_555 1_555
H2 C2 1_555 1_555
C3 H3 1_555 1_555
C4 C3 1_555 1_555
N1 C1 1_555 1_555
N2 C2 1_555 1_555
C5 C4 1_555 1_555
H4 C5 1_555 1_555
H5 C5 1_555 1_555
C6 H6 1_555 1_555
H7 C6 1_555 1_555
C7 C6 1_555 1_555
C8 C7 1_555 1_555
H8 C8 1_555 1_555
C9 C8 1_555 1_555
H9 C9 1_555 1_555
C10 H10 1_555 1_555
C11 C7 1_555 1_555
H11 C11 1_555 1_555
N3 C9 1_555 1_555
S1 C5 1_555 1_555
Ag1 N1 1_555 1_555
F1 P1 1_555 1_555
F2 P1 1_555 1_555
F3 P1 1_555 1_555
F4 P1 1_555 1_555
F5 P1 1_555 1_555
F6 P1 1_555 1_555
N2C Ag1 1_555 1_555
N3B Ag1 1_555 1_555
Ag1C N2 1_555 1_555
Ag1B N3 1_555 1_555
C3 N2 1_555 1_555
C4 N1 1_555 1_555
C6 S1 1_555 1_555
C10 C11 1_555 1_555
C10 N3 1_555 1_555
S1 Ag1 1_555 1_555

#END
