
#######################################################################
#
#                 Cambridge Crystallographic Data Centre
#                                CCDC 
#
#######################################################################
#
# If this CIF has been generated from an entry in the Cambridge 
# Structural Database, then it will include bibliographic, chemical, 
# crystal, experimental, refinement or atomic coordinate data resulting 
# from the CCDC's data processing and validation procedures.
#
#######################################################################

data_GIMHOA
_symmetry_cell_setting           triclinic
_symmetry_space_group_name_H-M   'P -1'
_symmetry_Int_Tables_number      2
_space_group_name_Hall           '-P 1'
loop_
_symmetry_equiv_pos_site_id
_symmetry_equiv_pos_as_xyz
1 x,y,z
2 -x,-y,-z
_cell_length_a                   4.9739(9)
_cell_length_b                   8.8459(15)
_cell_length_c                   9.1479(16)
_cell_angle_alpha                93.829(2)
_cell_angle_beta                 94.930(2)
_cell_angle_gamma                103.0610(10)
_cell_volume                     389.088
loop_
_atom_site_label
_atom_site_type_symbol
_atom_site_fract_x
_atom_site_fract_y
_atom_site_fract_z
Ag1 Ag 0.07636(14) 0.45104(8) 0.83487(7)
Ni1 Ni 0.5000 0.5000 0.5000
O1 O 0.4596(9) 0.5871(5) 0.6920(5)
O2 O 1.0107(11) 0.7018(6) 0.8727(7)
O3 O 0.7031(13) 0.6999(7) 1.0355(6)
O4 O 0.2281(10) 0.6074(5) 0.4127(5)
O5 O -0.0988(10) 0.7355(6) 0.4547(6)
N1 N 0.4793(10) 0.7438(6) 0.7063(5)
C1 C 0.6450(13) 0.8259(8) 0.8221(7)
C2 C 0.6588(14) 0.9841(8) 0.8478(8)
H1 H 0.7759 1.0426 0.9263
C3 C 0.4972(15) 1.0541(8) 0.7560(8)
H2 H 0.5047 1.1599 0.7721
C4 C 0.3244(14) 0.9649(8) 0.6400(7)
H3 H 0.2142 1.0113 0.5785
C5 C 0.3132(13) 0.8072(7) 0.6140(7)
C6 C 0.8002(14) 0.7321(8) 0.9180(7)
C7 C 0.1296(14) 0.7078(8) 0.4858(7)
Ag1A Ag 0.92364(14) 0.54896(8) 0.16513(7)
Ag1_2 Ag 1.07636(14) 0.45104(8) 0.83487(7)
Ag1A_2 Ag 0.92364(14) 0.54896(8) 1.16513(7)
Ag1A_3 Ag -0.07636(14) 0.54896(8) 0.16513(7)
Ag1_3 Ag 0.07636(14) 0.45104(8) -0.16513(7)
Ni1_2 Ni -0.5000 0.5000 0.5000
Ni1_3 Ni 1.5000 0.5000 0.5000
O1A O 0.5404(9) 0.4129(5) 0.3080(5)
O2A O -0.0107(11) 0.2982(6) 0.1273(7)
O2_2 O 0.0107(11) 0.7018(6) 0.8727(7)
O2A_2 O 0.9893(11) 0.2982(6) 0.1273(7)
O3A O 0.2969(13) 0.3001(7) -0.0355(6)
O3A_2 O 0.2969(13) 0.3001(7) 0.9645(6)
O3_2 O 0.7031(13) 0.6999(7) 0.0355(6)
O4A O 0.7719(10) 0.3926(5) 0.5873(5)
O4A_2 O -0.2281(10) 0.3926(5) 0.5873(5)
O4_2 O 1.2281(10) 0.6074(5) 0.4127(5)
O5A O 1.0988(10) 0.2645(6) 0.5453(6)
O5_2 O 0.9012(10) 0.7355(6) 0.4547(6)
O5A_2 O 0.0988(10) 0.2645(6) 0.5453(6)
N1A N 0.5207(10) 0.2562(6) 0.2937(5)
C1A C 0.3550(13) 0.1741(8) 0.1779(7)
C2A C 0.3412(14) 0.0159(8) 0.1522(8)
H1A H 0.2241 -0.0426 0.0737
C3A C 0.5028(15) -0.0541(8) 0.2440(8)
H2A H 0.4953 -0.1599 0.2279
C4A C 0.6756(14) 0.0351(8) 0.3600(7)
H3A H 0.7858 -0.0113 0.4215
C5A C 0.6868(13) 0.1928(7) 0.3860(7)
C6A C 0.1998(14) 0.2679(8) 0.0820(7)
C7A C 0.8704(14) 0.2922(8) 0.5142(7)
loop_
_geom_bond_atom_site_label_1
_geom_bond_atom_site_label_2
_geom_bond_site_symmetry_1
_geom_bond_site_symmetry_2
Ag1 O1 1_555 1_555
Ni1 O1 1_555 1_555
O1 N1 1_555 1_555
O2 C6 1_555 1_555
O3 C6 1_555 1_555
O4 Ni1 1_555 1_555
O5 C7 1_555 1_555
N1 C1 1_555 1_555
C1 C2 1_555 1_555
C2 H1 1_555 1_555
C3 C2 1_555 1_555
H2 C3 1_555 1_555
C4 C3 1_555 1_555
H3 C4 1_555 1_555
C5 N1 1_555 1_555
C6 C1 1_555 1_555
C7 O4 1_555 1_555
Ag1A O1A 1_555 1_555
Ag1_2 O2 1_555 1_555
Ag1A_2 O3 1_555 1_555
Ag1A_3 O4 1_555 1_555
Ag1_3 O3A 1_555 1_555
Ni1_2 O5 1_555 1_555
Ni1_3 O4_2 1_555 1_555
O1A Ni1 1_555 1_555
O2A Ag1A_3 1_555 1_555
O2_2 Ag1 1_555 1_555
O2A_2 Ag1A 1_555 1_555
O3A C6A 1_555 1_555
O3A_2 Ag1 1_555 1_555
O3_2 Ag1A 1_555 1_555
O4A Ni1 1_555 1_555
O4A_2 Ag1 1_555 1_555
O4_2 Ag1A 1_555 1_555
O5A Ni1_3 1_555 1_555
O5_2 Ni1 1_555 1_555
O5A_2 Ni1 1_555 1_555
N1A O1A 1_555 1_555
C1A N1A 1_555 1_555
C2A C1A 1_555 1_555
H1A C2A 1_555 1_555
C3A C2A 1_555 1_555
H2A C3A 1_555 1_555
C4A C3A 1_555 1_555
H3A C4A 1_555 1_555
C5A N1A 1_555 1_555
C6A O2A 1_555 1_555
C7A O4A 1_555 1_555
C4 C5 1_555 1_555
C5 C7 1_555 1_555
Ag1_2 O4A 1_555 1_555
Ni1_2 O4A_2 1_555 1_555
O5A C7A 1_555 1_555
C1A C6A 1_555 1_555
C4A C5A 1_555 1_555
C5A C7A 1_555 1_555

#END
