
#######################################################################
#
#                 Cambridge Crystallographic Data Centre
#                                CCDC 
#
#######################################################################
#
# If this CIF has been generated from an entry in the Cambridge 
# Structural Database, then it will include bibliographic, chemical, 
# crystal, experimental, refinement or atomic coordinate data resulting 
# from the CCDC's data processing and validation procedures.
#
#######################################################################

data_GIMHEQ
_symmetry_cell_setting           triclinic
_symmetry_space_group_name_H-M   'P -1'
_symmetry_Int_Tables_number      2
_space_group_name_Hall           '-P 1'
loop_
_symmetry_equiv_pos_site_id
_symmetry_equiv_pos_as_xyz
1 x,y,z
2 -x,-y,-z
_cell_length_a                   6.8792(4)
_cell_length_b                   7.6203(5)
_cell_length_c                   8.0401(5)
_cell_angle_alpha                102.281(2)
_cell_angle_beta                 104.1250(10)
_cell_angle_gamma                101.4220(10)
_cell_volume                     385.234
loop_
_atom_site_label
_atom_site_type_symbol
_atom_site_fract_x
_atom_site_fract_y
_atom_site_fract_z
Nd1 Nd 0.03773(3) 0.10965(3) 0.28857(3)
O1 O 0.2017(7) 0.1049(7) 0.5929(6)
O2 O -0.3237(7) -0.1005(7) 0.1324(6)
O3 O -0.8557(10) -0.1832(9) 0.2685(7)
O4 O -0.9428(7) -0.1762(8) -0.0093(7)
O5 O -0.1975(6) 0.2993(6) 0.3751(6)
O6 O 0.2128(7) 0.4363(7) 0.4486(7)
O7 O 0.3735(6) 0.1833(7) 0.2274(6)
H1 H 0.4916 0.2299 0.3059
H2 H 0.3546 0.1539 0.1155
C1 C 0.3427(8) 0.1700(8) 0.7425(8)
C2 C 0.5217(9) 0.3333(9) 0.7670(9)
H3 H 0.4735 0.4453 0.7820
H4 H 0.5629 0.3164 0.6588
C3 C 0.7104(10) 0.3626(10) 0.9223(9)
H5 H 0.7937 0.4901 0.9536
H6 H 0.6657 0.3445 1.0244
C4 C -0.8424(10) -0.2328(10) 0.1164(9)
C5 C -0.1183(10) 0.4613(10) 0.4791(9)
Nd1A Nd -0.03773(3) -0.10965(3) 0.71143(3)
Nd1_2 Nd -0.96227(3) 0.10965(3) 0.28857(3)
Nd1A_2 Nd -1.03773(3) -0.10965(3) -0.28857(3)
Nd1A_3 Nd -0.03773(3) 0.89035(3) 0.71143(3)
Nd1A_4 Nd 0.96227(3) -0.10965(3) 0.71143(3)
Nd1_3 Nd 1.03773(3) 0.10965(3) 1.28857(3)
O1A O -0.2017(7) -0.1049(7) 0.4071(6)
O2A O 0.3237(7) 0.1005(7) 0.8676(6)
O3_2 O 0.1443(10) -0.1832(9) 0.2685(7)
O3A O -0.1443(10) 0.1832(9) 0.7315(7)
O3A_2 O 0.8557(10) 0.1832(9) 0.7315(7)
O4_2 O 0.0572(7) -0.1762(8) -0.0093(7)
O4A O -0.0572(7) 0.1762(8) 0.0093(7)
O4_3 O 0.0572(7) -0.1762(8) 0.9907(7)
O4A_2 O -0.0572(7) 0.1762(8) 1.0093(7)
O4A_3 O 0.9428(7) 0.1762(8) 1.0093(7)
O5A O 0.1975(6) 0.7007(6) 0.6249(6)
O5A_2 O 0.1975(6) -0.2993(6) 0.6249(6)
O6A O -0.2128(7) 0.5637(7) 0.5514(7)
O6A_2 O -0.2128(7) -0.4363(7) 0.5514(7)
O7A O -0.3735(6) -0.1833(7) 0.7726(6)
H1A H -0.4916 -0.2299 0.6941
H2A H -0.3546 -0.1539 0.8845
C1A C -0.3427(8) -0.1700(8) 0.2575(8)
C2A C -0.5217(9) -0.3333(9) 0.2330(9)
H3A H -0.4735 -0.4453 0.2180
H4A H -0.5629 -0.3164 0.3412
C3A C -0.7104(10) -0.3626(10) 0.0777(9)
H5A H -0.7937 -0.4901 0.0464
H6A H -0.6657 -0.3445 -0.0244
C4A C 0.8424(10) 0.2328(10) 0.8836(9)
C5A C 0.1183(10) 0.5387(10) 0.5209(9)
loop_
_geom_bond_atom_site_label_1
_geom_bond_atom_site_label_2
_geom_bond_site_symmetry_1
_geom_bond_site_symmetry_2
Nd1 O1 1_555 1_555
O1 C1 1_555 1_555
O2 Nd1 1_555 1_555
O3 C4 1_555 1_555
O4 C4 1_555 1_555
O5 Nd1 1_555 1_555
O6 Nd1 1_555 1_555
O7 Nd1 1_555 1_555
H1 O7 1_555 1_555
H2 O7 1_555 1_555
C1 C2 1_555 1_555
C2 H3 1_555 1_555
H4 C2 1_555 1_555
C3 C2 1_555 1_555
H5 C3 1_555 1_555
H6 C3 1_555 1_555
C4 C3A 1_555 1_555
C5 O5 1_555 1_555
Nd1A O1 1_555 1_555
Nd1_2 O3 1_555 1_555
Nd1A_2 O4 1_555 1_555
Nd1A_3 O5A 1_555 1_555
Nd1A_4 O3A_2 1_555 1_555
Nd1_3 O4A_3 1_555 1_555
O1A Nd1 1_555 1_555
O2A C1 1_555 1_555
O3_2 Nd1 1_555 1_555
O3A Nd1A 1_555 1_555
O3A_2 C4A 1_555 1_555
O4_2 Nd1 1_555 1_555
O4A Nd1 1_555 1_555
O4_3 Nd1A 1_555 1_555
O4A_2 Nd1A 1_555 1_555
O4A_3 Nd1A_4 1_555 1_555
O5A C5A 1_555 1_555
O5A_2 Nd1A 1_555 1_555
O6A C5 1_555 1_555
O6A_2 Nd1A 1_555 1_555
O7A Nd1A 1_555 1_555
H1A O7A 1_555 1_555
H2A O7A 1_555 1_555
C1A O2 1_555 1_555
C2A C1A 1_555 1_555
H3A C2A 1_555 1_555
H4A C2A 1_555 1_555
C3A C2A 1_555 1_555
H5A C3A 1_555 1_555
H6A C3A 1_555 1_555
C4A C3 1_555 1_555
C5A O6 1_555 1_555
O4 Nd1_2 1_555 1_555
C5 C5A 1_555 1_555
Nd1A O1A 1_555 1_555
Nd1A O2A 1_555 1_555
Nd1A_3 O6A 1_555 1_555
O1A C1A 1_555 1_555
O4A_3 C4A 1_555 1_555

#END
