
#######################################################################
#
#                 Cambridge Crystallographic Data Centre
#                                CCDC 
#
#######################################################################
#
# If this CIF has been generated from an entry in the Cambridge 
# Structural Database, then it will include bibliographic, chemical, 
# crystal, experimental, refinement or atomic coordinate data resulting 
# from the CCDC's data processing and validation procedures.
#
#######################################################################

data_GIMJOC
_symmetry_cell_setting           triclinic
_symmetry_space_group_name_H-M   'P -1'
_symmetry_Int_Tables_number      2
_space_group_name_Hall           '-P 1'
loop_
_symmetry_equiv_pos_site_id
_symmetry_equiv_pos_as_xyz
1 x,y,z
2 -x,-y,-z
_cell_length_a                   9.1731(9)
_cell_length_b                   12.0358(12)
_cell_length_c                   12.7221(13)
_cell_angle_alpha                85.728(2)
_cell_angle_beta                 71.1810(10)
_cell_angle_gamma                69.0990(10)
_cell_volume                     1240.71
loop_
_atom_site_label
_atom_site_type_symbol
_atom_site_fract_x
_atom_site_fract_y
_atom_site_fract_z
Er1 Er 0.84952(2) 0.889230(18) 0.521512(16)
O1 O 0.7222(4) 1.0533(3) 0.4248(3)
O2 O 0.9138(4) 1.0965(4) 0.4560(3)
C1 C 0.8103(5) 1.1167(4) 0.4047(4)
C2 C 0.8064(10) 1.2089(6) 0.3260(6)
H1 H 0.8764 1.2505 0.3205
C3 C 0.7188(11) 1.2385(8) 0.2646(7)
H2 H 0.6493 1.1969 0.2682
C4 C 0.7182(15) 1.3397(10) 0.1828(10)
H3 H 0.7706 1.3884 0.2010
H4 H 0.6067 1.3874 0.1883
H5 H 0.7768 1.3063 0.1084
O3 O 1.0396(4) 0.8627(3) 0.3338(3)
O4 O 1.0650(4) 0.7024(3) 0.4287(3)
C5 C 1.1071(6) 0.7511(4) 0.3402(4)
C6 C 1.2422(7) 0.6788(5) 0.2444(5)
H6 H 1.2746 0.5964 0.2466
C7 C 1.3179(8) 0.7237(6) 0.1576(5)
H7 H 1.2767 0.8060 0.1533
C8 C 1.4652(10) 0.6560(8) 0.0638(6)
H8 H 1.5604 0.6692 0.0680
H9 H 1.4476 0.6827 -0.0056
H10 H 1.4821 0.5726 0.0687
O5 O 0.8454(4) 0.7488(3) 0.6498(3)
O6 O 0.6091(6) 0.8020(5) 0.7890(4)
C9 C 0.7531(7) 0.7342(6) 0.7441(5)
C10 C 0.8237(9) 0.6288(7) 0.8056(6)
H11 H 0.7601 0.6238 0.8781
C11 C 0.9626(9) 0.5452(6) 0.7685(6)
H12 H 1.0268 0.5525 0.6968
C12 C 1.0345(12) 0.4370(8) 0.8262(8)
H13 H 0.9563 0.4354 0.8973
H14 H 1.1328 0.4389 0.8365
H15 H 1.0608 0.3670 0.7820
O7 O 0.7417(4) 0.8064(3) 0.4151(3)
N1 N 0.6770(5) 0.7221(3) 0.4387(3)
C13 C 0.5455(6) 0.7335(4) 0.4091(4)
H16 H 0.5016 0.8000 0.3718
C14 C 0.4749(6) 0.6481(5) 0.4332(5)
H17 H 0.3817 0.6587 0.4135
C15 C 0.5390(6) 0.5457(4) 0.4864(4)
C16 C 0.6777(6) 0.5365(5) 0.5135(5)
H18 H 0.7261 0.4696 0.5487
C17 C 0.7447(6) 0.6241(5) 0.4894(5)
H19 H 0.8378 0.6159 0.5083
O9 O 0.5649(4) 0.9358(4) 0.6189(3)
H24 H 0.481(5) 0.939(5) 0.602(4)
H25 H 0.564(7) 0.894(5) 0.676(3)
O10 O 0.7644(4) 1.0099(4) 0.6826(3)
H26 H 0.808(5) 1.061(4) 0.684(4)
H27 H 0.672(3) 1.034(4) 0.733(4)
Er1A Er 1.15048(2) 1.110770(18) 0.478488(16)
Er1A_2 Er 0.15048(2) 0.110770(18) 0.478488(16)
O1A O 1.2778(4) 0.9467(3) 0.5752(3)
O2A O 1.0862(4) 0.9035(4) 0.5440(3)
C1A C 1.1897(5) 0.8833(4) 0.5953(4)
C2A C 1.1936(10) 0.7911(6) 0.6740(6)
H1A H 1.1236 0.7495 0.6795
C3A C 1.2812(11) 0.7615(8) 0.7354(7)
H2A H 1.3507 0.8031 0.7318
C4A C 1.2818(15) 0.6603(10) 0.8172(10)
H3A H 1.2294 0.6116 0.7990
H4A H 1.3933 0.6126 0.8117
H5A H 1.2232 0.6937 0.8916
O3A O 0.9604(4) 1.1373(3) 0.6662(3)
O4A O 0.9350(4) 1.2976(3) 0.5713(3)
C5A C 0.8929(6) 1.2489(4) 0.6598(4)
C6A C 0.7578(7) 1.3212(5) 0.7556(5)
H6A H 0.7254 1.4036 0.7534
C7A C 0.6821(8) 1.2763(6) 0.8424(5)
H7A H 0.7233 1.1940 0.8467
C8A C 0.5348(10) 1.3440(8) 0.9362(6)
H8A H 0.4396 1.3308 0.9320
H9A H 0.5524 1.3173 1.0056
H10A H 0.5179 1.4274 0.9313
O5A O 1.1546(4) 1.2512(3) 0.3502(3)
O6A O 1.3909(6) 1.1980(5) 0.2110(4)
C9A C 1.2469(7) 1.2658(6) 0.2559(5)
C10A C 1.1763(9) 1.3712(7) 0.1944(6)
H11A H 1.2399 1.3762 0.1219
C11A C 1.0374(9) 1.4548(6) 0.2315(6)
H12A H 0.9732 1.4475 0.3032
C12A C 0.9655(12) 1.5630(8) 0.1738(8)
H13A H 1.0437 1.5646 0.1027
H14A H 0.8672 1.5611 0.1635
H15A H 0.9392 1.6330 0.2180
O7A O 0.2583(4) 0.1936(3) 0.5849(3)
O7A_2 O 1.2583(4) 1.1936(3) 0.5849(3)
N1A N 0.3230(5) 0.2779(3) 0.5613(3)
C13A C 0.4545(6) 0.2665(4) 0.5909(4)
H16A H 0.4984 0.2000 0.6282
C14A C 0.5251(6) 0.3519(5) 0.5668(5)
H17A H 0.6183 0.3413 0.5865
C15A C 0.4610(6) 0.4543(4) 0.5136(4)
C16A C 0.3223(6) 0.4635(5) 0.4865(5)
H18A H 0.2739 0.5304 0.4513
C17A C 0.2553(6) 0.3759(5) 0.5106(5)
H19A H 0.1622 0.3841 0.4917
O9A O 1.4351(4) 1.0642(4) 0.3811(3)
H24A H 1.519(5) 1.061(5) 0.398(4)
H25A H 1.436(7) 1.106(5) 0.324(3)
O10A O 1.2356(4) 0.9901(4) 0.3174(3)
H26A H 1.192(5) 0.939(4) 0.316(4)
H27A H 1.328(3) 0.966(4) 0.267(4)
O8 O 0.5304(5) 0.8752(4) 0.1544(3)
N2 N 0.6594(5) 0.9064(4) 0.1121(4)
C18 C 0.7466(7) 0.9165(5) 0.1754(4)
H20 H 0.7155 0.8993 0.2501
C19 C 0.8791(6) 0.9513(5) 0.1334(4)
H21 H 0.9371 0.9564 0.1797
C20 C 0.9298(6) 0.9791(5) 0.0226(4)
C21 C 0.8420(7) 0.9625(6) -0.0418(4)
H22 H 0.8747 0.9757 -0.1174
C22 C 0.7081(7) 0.9271(6) 0.0024(5)
H23 H 0.6513 0.9175 -0.0429
O8A O 1.4696(5) 1.1248(4) -0.1544(3)
N2A N 1.3406(5) 1.0936(4) -0.1121(4)
C18A C 1.2534(7) 1.0835(5) -0.1754(4)
H20A H 1.2845 1.1007 -0.2501
C19A C 1.1209(6) 1.0487(5) -0.1334(4)
H21A H 1.0629 1.0436 -0.1797
C20A C 1.0702(6) 1.0209(5) -0.0226(4)
C21A C 1.1580(7) 1.0375(6) 0.0418(4)
H22A H 1.1253 1.0243 0.1174
C22A C 1.2919(7) 1.0729(6) -0.0024(5)
H23A H 1.3487 1.0825 0.0429
loop_
_geom_bond_atom_site_label_1
_geom_bond_atom_site_label_2
_geom_bond_site_symmetry_1
_geom_bond_site_symmetry_2
Er1 O1 1_555 1_555
O1 C1 1_555 1_555
O2 Er1 1_555 1_555
C1 O2 1_555 1_555
C2 C1 1_555 1_555
H1 C2 1_555 1_555
C3 C2 1_555 1_555
H2 C3 1_555 1_555
C4 C3 1_555 1_555
H3 C4 1_555 1_555
H4 C4 1_555 1_555
H5 C4 1_555 1_555
O3 Er1 1_555 1_555
O4 Er1 1_555 1_555
C5 O3 1_555 1_555
C6 C5 1_555 1_555
H6 C6 1_555 1_555
C7 C6 1_555 1_555
H7 C7 1_555 1_555
C8 C7 1_555 1_555
H8 C8 1_555 1_555
H9 C8 1_555 1_555
H10 C8 1_555 1_555
O5 Er1 1_555 1_555
O6 C9 1_555 1_555
C9 O5 1_555 1_555
C10 C9 1_555 1_555
H11 C10 1_555 1_555
C11 C10 1_555 1_555
H12 C11 1_555 1_555
C12 C11 1_555 1_555
H13 C12 1_555 1_555
H14 C12 1_555 1_555
H15 C12 1_555 1_555
O7 Er1 1_555 1_555
N1 O7 1_555 1_555
C13 N1 1_555 1_555
H16 C13 1_555 1_555
C14 C13 1_555 1_555
H17 C14 1_555 1_555
C15 C14 1_555 1_555
C16 C15 1_555 1_555
H18 C16 1_555 1_555
C17 N1 1_555 1_555
H19 C17 1_555 1_555
O8 N2 1_555 1_555
N2 C18 1_555 1_555
C18 H20 1_555 1_555
C19 C18 1_555 1_555
H21 C19 1_555 1_555
C20 C19 1_555 1_555
C21 C20 1_555 1_555
H22 C21 1_555 1_555
C22 N2 1_555 1_555
H23 C22 1_555 1_555
O9 Er1 1_555 1_555
H24 O9 1_555 1_555
H25 O9 1_555 1_555
O10 Er1 1_555 1_555
H26 O10 1_555 1_555
H27 O10 1_555 1_555
Er1A O2 1_555 1_555
Er1A_2 O7A 1_555 1_555
O1A Er1A 1_555 1_555
O2A Er1 1_555 1_555
C1A O1A 1_555 1_555
C2A C1A 1_555 1_555
H1A C2A 1_555 1_555
C3A C2A 1_555 1_555
H2A C3A 1_555 1_555
C4A C3A 1_555 1_555
H3A C4A 1_555 1_555
H4A C4A 1_555 1_555
H5A C4A 1_555 1_555
O3A Er1A 1_555 1_555
O4A Er1A 1_555 1_555
C5A O3A 1_555 1_555
C6A C5A 1_555 1_555
H6A C6A 1_555 1_555
C7A C6A 1_555 1_555
H7A C7A 1_555 1_555
C8A C7A 1_555 1_555
H8A C8A 1_555 1_555
H9A C8A 1_555 1_555
H10A C8A 1_555 1_555
O5A Er1A 1_555 1_555
O6A C9A 1_555 1_555
C9A O5A 1_555 1_555
C10A C9A 1_555 1_555
H11A C10A 1_555 1_555
C11A C10A 1_555 1_555
H12A C11A 1_555 1_555
C12A C11A 1_555 1_555
H13A C12A 1_555 1_555
H14A C12A 1_555 1_555
H15A C12A 1_555 1_555
O7A N1A 1_555 1_555
O7A_2 Er1A 1_555 1_555
N1A C13A 1_555 1_555
C13A H16A 1_555 1_555
C14A C13A 1_555 1_555
H17A C14A 1_555 1_555
C15A C15 1_555 1_555
C16A C15A 1_555 1_555
H18A C16A 1_555 1_555
C17A N1A 1_555 1_555
H19A C17A 1_555 1_555
O8A N2A 1_555 1_555
N2A C18A 1_555 1_555
C18A H20A 1_555 1_555
C19A C18A 1_555 1_555
H21A C19A 1_555 1_555
C20A C20 1_555 1_555
C21A C20A 1_555 1_555
H22A C21A 1_555 1_555
C22A N2A 1_555 1_555
H23A C22A 1_555 1_555
O9A Er1A 1_555 1_555
H24A O9A 1_555 1_555
H25A O9A 1_555 1_555
O10A Er1A 1_555 1_555
H26A O10A 1_555 1_555
H27A O10A 1_555 1_555
O4 C5 1_555 1_555
C16 C17 1_555 1_555
C21 C22 1_555 1_555
Er1A O2A 1_555 1_555
O2A C1A 1_555 1_555
O4A C5A 1_555 1_555
C14A C15A 1_555 1_555
C16A C17A 1_555 1_555
C19A C20A 1_555 1_555
C21A C22A 1_555 1_555

#END
