
#######################################################################
#
#                 Cambridge Crystallographic Data Centre
#                                CCDC 
#
#######################################################################
#
# If this CIF has been generated from an entry in the Cambridge 
# Structural Database, then it will include bibliographic, chemical, 
# crystal, experimental, refinement or atomic coordinate data resulting 
# from the CCDC's data processing and validation procedures.
#
#######################################################################

data_GIMJIW
_symmetry_cell_setting           triclinic
_symmetry_space_group_name_H-M   'P -1'
_symmetry_Int_Tables_number      2
_space_group_name_Hall           '-P 1'
loop_
_symmetry_equiv_pos_site_id
_symmetry_equiv_pos_as_xyz
1 x,y,z
2 -x,-y,-z
_cell_length_a                   9.3495(10)
_cell_length_b                   12.0160(13)
_cell_length_c                   12.8534(14)
_cell_angle_alpha                84.498(2)
_cell_angle_beta                 70.535(2)
_cell_angle_gamma                68.632(2)
_cell_volume                     1267.34
loop_
_atom_site_label
_atom_site_type_symbol
_atom_site_fract_x
_atom_site_fract_y
_atom_site_fract_z
Nd1 Nd -0.14800(2) -0.110270(17) 0.518790(15)
O1 O -0.2845(3) 0.0614(2) 0.4141(2)
O2 O -0.0953(3) 0.0936(2) 0.4560(2)
C1 C -0.1925(4) 0.1193(3) 0.4009(3)
C2 C -0.1912(6) 0.2156(4) 0.3221(4)
H1 H -0.1215 0.2561 0.3174
C3 C -0.2804(7) 0.2481(5) 0.2589(5)
H2 H -0.3494 0.2068 0.2642
C4 C -0.2832(12) 0.3468(8) 0.1773(7)
H3 H -0.2437 0.4018 0.1979
H4 H -0.3924 0.3881 0.1769
H5 H -0.2154 0.3133 0.1049
O3 O 0.0502(3) -0.1383(2) 0.3243(2)
O4 O 0.0724(3) -0.3013(2) 0.4205(2)
C5 C 0.1162(4) -0.2511(3) 0.3319(3)
C6 C 0.2501(5) -0.3215(4) 0.2373(4)
H6 H 0.2808 -0.4043 0.2392
C7 C 0.3271(6) -0.2768(5) 0.1525(4)
H7 H 0.2878 -0.1940 0.1486
C8 C 0.4737(7) -0.3430(6) 0.0587(5)
H8 H 0.5658 -0.3265 0.0608
H9 H 0.4544 -0.3175 -0.0101
H10 H 0.4948 -0.4273 0.0653
O5 O -0.1455(4) -0.2624(3) 0.6515(2)
O6 O -0.3803(4) -0.2140(4) 0.7873(3)
C9 C -0.2357(6) -0.2796(4) 0.7446(4)
C10 C -0.1653(7) -0.3839(5) 0.8070(4)
H11 H -0.2279 -0.3896 0.8793
C11 C -0.0279(7) -0.4658(5) 0.7709(4)
H12 H 0.0362 -0.4577 0.6997
C12 C 0.0426(9) -0.5750(6) 0.8310(6)
H13 H -0.0328 -0.5737 0.9034
H14 H 0.1423 -0.5754 0.8371
H15 H 0.0632 -0.6455 0.7908
O7 O 0.2605(3) 0.1937(2) 0.5893(2)
N1 N 0.3244(4) 0.2782(3) 0.5643(3)
C13 C 0.4548(5) 0.2649(4) 0.5927(4)
H16 H 0.4988 0.1969 0.6290
C14 C 0.5242(5) 0.3513(4) 0.5684(4)
H17 H 0.6149 0.3406 0.5887
C15 C 0.4623(4) 0.4537(3) 0.5145(3)
C16 C 0.6744(5) 0.5350(4) 0.5116(4)
H18 H 0.7218 0.4670 0.5466
C17 C 0.7410(5) 0.6231(4) 0.4864(4)
H19 H 0.8327 0.6140 0.5049
O9 O -0.4361(3) -0.0724(3) 0.6254(3)
H24 H -0.515(4) -0.073(4) 0.608(3)
H25 H -0.437(5) -0.114(4) 0.683(3)
O10 O -0.2406(4) 0.0102(3) 0.6894(2)
H26 H -0.193(4) 0.059(3) 0.688(4)
H27 H -0.330(3) 0.036(4) 0.741(3)
Nd1A Nd 0.14800(2) 0.110270(17) 0.481210(15)
Nd1_2 Nd 0.85200(2) 0.889730(17) 0.518790(15)
O1A O 0.2845(3) -0.0614(2) 0.5859(2)
O2A O 0.0953(3) -0.0936(2) 0.5440(2)
C1A C 0.1925(4) -0.1193(3) 0.5991(3)
C2A C 0.1912(6) -0.2156(4) 0.6779(4)
H1A H 0.1215 -0.2561 0.6826
C3A C 0.2804(7) -0.2481(5) 0.7411(5)
H2A H 0.3494 -0.2068 0.7358
C4A C 0.2832(12) -0.3468(8) 0.8227(7)
H3A H 0.2437 -0.4018 0.8021
H4A H 0.3924 -0.3881 0.8231
H5A H 0.2154 -0.3133 0.8951
O3A O -0.0502(3) 0.1383(2) 0.6757(2)
O4A O -0.0724(3) 0.3013(2) 0.5795(2)
C5A C -0.1162(4) 0.2511(3) 0.6681(3)
C6A C -0.2501(5) 0.3215(4) 0.7627(4)
H6A H -0.2808 0.4043 0.7608
C7A C -0.3271(6) 0.2768(5) 0.8475(4)
H7A H -0.2878 0.1940 0.8514
C8A C -0.4737(7) 0.3430(6) 0.9413(5)
H8A H -0.5658 0.3265 0.9392
H9A H -0.4544 0.3175 1.0101
H10A H -0.4948 0.4273 0.9347
O5A O 0.1455(4) 0.2624(3) 0.3485(2)
O6A O 0.3803(4) 0.2140(4) 0.2127(3)
C9A C 0.2357(6) 0.2796(4) 0.2554(4)
C10A C 0.1653(7) 0.3839(5) 0.1930(4)
H11A H 0.2279 0.3896 0.1207
C11A C 0.0279(7) 0.4658(5) 0.2291(4)
H12A H -0.0362 0.4577 0.3003
C12A C -0.0426(9) 0.5750(6) 0.1690(6)
H13A H 0.0328 0.5737 0.0966
H14A H -0.1423 0.5754 0.1629
H15A H -0.0632 0.6455 0.2092
O7A O -0.2605(3) -0.1937(2) 0.4107(2)
O7A_2 O 0.7395(3) 0.8063(2) 0.4107(2)
N1A N 0.6756(4) 0.7218(3) 0.4357(3)
C13A C 0.5452(5) 0.7351(4) 0.4073(4)
H16A H 0.5012 0.8031 0.3710
C14A C 0.4758(5) 0.6487(4) 0.4316(4)
H17A H 0.3851 0.6594 0.4113
C15A C 0.5377(4) 0.5463(3) 0.4855(3)
C16A C 0.3256(5) 0.4650(4) 0.4884(4)
H18A H 0.2782 0.5330 0.4534
C17A C 0.2590(5) 0.3769(4) 0.5136(4)
H19A H 0.1673 0.3860 0.4951
O9A O 0.4361(3) 0.0724(3) 0.3746(3)
H24A H 0.515(4) 0.073(4) 0.392(3)
H25A H 0.437(5) 0.114(4) 0.317(3)
O10A O 0.2406(4) -0.0102(3) 0.3106(2)
H26A H 0.193(4) -0.059(3) 0.312(4)
H27A H 0.330(3) -0.036(4) 0.259(3)
O8 O -0.4686(4) -0.1190(3) 0.1492(3)
N2 N -0.3403(4) -0.0886(3) 0.1090(3)
C18 C -0.2589(5) -0.0793(4) 0.1735(3)
H20 H -0.2937 -0.0955 0.2481
C19 C -0.1260(5) -0.0466(4) 0.1328(3)
H21 H -0.0713 -0.0420 0.1800
C20 C -0.0700(5) -0.0198(4) 0.0221(3)
C21 C -0.1535(6) -0.0360(5) -0.0433(4)
H22 H -0.1186 -0.0233 -0.1187
C22 C -0.2847(6) -0.0700(5) -0.0001(4)
H23 H -0.3372 -0.0806 -0.0464
O8A O 0.4686(4) 0.1190(3) -0.1492(3)
N2A N 0.3403(4) 0.0886(3) -0.1090(3)
C18A C 0.2589(5) 0.0793(4) -0.1735(3)
H20A H 0.2937 0.0955 -0.2481
C19A C 0.1260(5) 0.0466(4) -0.1328(3)
H21A H 0.0713 0.0420 -0.1800
C20A C 0.0700(5) 0.0198(4) -0.0221(3)
C21A C 0.1535(6) 0.0360(5) 0.0433(4)
H22A H 0.1186 0.0233 0.1187
C22A C 0.2847(6) 0.0700(5) 0.0001(4)
H23A H 0.3372 0.0806 0.0464
loop_
_geom_bond_atom_site_label_1
_geom_bond_atom_site_label_2
_geom_bond_site_symmetry_1
_geom_bond_site_symmetry_2
Nd1 O1 1_555 1_555
O1 C1 1_555 1_555
O2 Nd1 1_555 1_555
C1 O2 1_555 1_555
C2 C1 1_555 1_555
H1 C2 1_555 1_555
C3 C2 1_555 1_555
H2 C3 1_555 1_555
C4 C3 1_555 1_555
H3 C4 1_555 1_555
H4 C4 1_555 1_555
H5 C4 1_555 1_555
O3 Nd1 1_555 1_555
O4 Nd1 1_555 1_555
C5 O3 1_555 1_555
C6 C5 1_555 1_555
H6 C6 1_555 1_555
C7 C6 1_555 1_555
H7 C7 1_555 1_555
C8 C7 1_555 1_555
H8 C8 1_555 1_555
H9 C8 1_555 1_555
H10 C8 1_555 1_555
O5 Nd1 1_555 1_555
O6 C9 1_555 1_555
C9 O5 1_555 1_555
C10 C9 1_555 1_555
H11 C10 1_555 1_555
C11 C10 1_555 1_555
H12 C11 1_555 1_555
C12 C11 1_555 1_555
H13 C12 1_555 1_555
H14 C12 1_555 1_555
H15 C12 1_555 1_555
O7 N1 1_555 1_555
N1 C13 1_555 1_555
C13 H16 1_555 1_555
C14 C13 1_555 1_555
H17 C14 1_555 1_555
C15 C14 1_555 1_555
C16 H18 1_555 1_555
C17 C16 1_555 1_555
H19 C17 1_555 1_555
O8 N2 1_555 1_555
N2 C18 1_555 1_555
C18 H20 1_555 1_555
C19 C18 1_555 1_555
H21 C19 1_555 1_555
C20 C19 1_555 1_555
C21 C20 1_555 1_555
H22 C21 1_555 1_555
C22 N2 1_555 1_555
H23 C22 1_555 1_555
O9 Nd1 1_555 1_555
H24 O9 1_555 1_555
H25 O9 1_555 1_555
O10 Nd1 1_555 1_555
H26 O10 1_555 1_555
H27 O10 1_555 1_555
Nd1A O2 1_555 1_555
Nd1_2 O7A_2 1_555 1_555
O1A Nd1A 1_555 1_555
O2A Nd1 1_555 1_555
C1A O1A 1_555 1_555
C2A C1A 1_555 1_555
H1A C2A 1_555 1_555
C3A C2A 1_555 1_555
H2A C3A 1_555 1_555
C4A C3A 1_555 1_555
H3A C4A 1_555 1_555
H4A C4A 1_555 1_555
H5A C4A 1_555 1_555
O3A Nd1A 1_555 1_555
O4A Nd1A 1_555 1_555
C5A O3A 1_555 1_555
C6A C5A 1_555 1_555
H6A C6A 1_555 1_555
C7A C6A 1_555 1_555
H7A C7A 1_555 1_555
C8A C7A 1_555 1_555
H8A C8A 1_555 1_555
H9A C8A 1_555 1_555
H10A C8A 1_555 1_555
O5A Nd1A 1_555 1_555
O6A C9A 1_555 1_555
C9A O5A 1_555 1_555
C10A C9A 1_555 1_555
H11A C10A 1_555 1_555
C11A C10A 1_555 1_555
H12A C11A 1_555 1_555
C12A C11A 1_555 1_555
H13A C12A 1_555 1_555
H14A C12A 1_555 1_555
H15A C12A 1_555 1_555
O7A Nd1 1_555 1_555
O7A_2 N1A 1_555 1_555
N1A C17 1_555 1_555
C13A N1A 1_555 1_555
H16A C13A 1_555 1_555
C14A C13A 1_555 1_555
H17A C14A 1_555 1_555
C15A C15 1_555 1_555
C16A C15 1_555 1_555
H18A C16A 1_555 1_555
C17A N1 1_555 1_555
H19A C17A 1_555 1_555
O8A N2A 1_555 1_555
N2A C18A 1_555 1_555
C18A H20A 1_555 1_555
C19A C18A 1_555 1_555
H21A C19A 1_555 1_555
C20A C20 1_555 1_555
C21A C20A 1_555 1_555
H22A C21A 1_555 1_555
C22A N2A 1_555 1_555
H23A C22A 1_555 1_555
O9A Nd1A 1_555 1_555
H24A O9A 1_555 1_555
H25A O9A 1_555 1_555
O10A Nd1A 1_555 1_555
H26A O10A 1_555 1_555
H27A O10A 1_555 1_555
O4 C5 1_555 1_555
O7 Nd1A 1_555 1_555
C16 C15A 1_555 1_555
C21 C22 1_555 1_555
Nd1A O2A 1_555 1_555
O2A C1A 1_555 1_555
O4A C5A 1_555 1_555
C14A C15A 1_555 1_555
C16A C17A 1_555 1_555
C19A C20A 1_555 1_555
C21A C22A 1_555 1_555

#END
