
#######################################################################
#
#                 Cambridge Crystallographic Data Centre
#                                CCDC 
#
#######################################################################
#
# If this CIF has been generated from an entry in the Cambridge 
# Structural Database, then it will include bibliographic, chemical, 
# crystal, experimental, refinement or atomic coordinate data resulting 
# from the CCDC's data processing and validation procedures.
#
#######################################################################

data_GIMJUI
_symmetry_cell_setting           triclinic
_symmetry_space_group_name_H-M   'P -1'
_symmetry_Int_Tables_number      2
_space_group_name_Hall           '-P 1'
loop_
_symmetry_equiv_pos_site_id
_symmetry_equiv_pos_as_xyz
1 x,y,z
2 -x,-y,-z
_cell_length_a                   9.1865(13)
_cell_length_b                   12.0293(17)
_cell_length_c                   12.7275(18)
_cell_angle_alpha                85.710(2)
_cell_angle_beta                 71.079(2)
_cell_angle_gamma                69.175(2)
_cell_volume                     1242.26
loop_
_atom_site_label
_atom_site_type_symbol
_atom_site_fract_x
_atom_site_fract_y
_atom_site_fract_z
Y1 Y 0.84968(3) 0.88953(3) 0.52118(3)
O1 O 0.7217(3) 1.0538(2) 0.4236(2)
O2 O 0.9144(3) 1.0957(2) 0.4552(2)
C1 C 0.8109(4) 1.1162(3) 0.4046(3)
C2 C 0.8066(6) 1.2106(4) 0.3258(4)
H1 H 0.8759 1.2528 0.3204
C3 C 0.7175(7) 1.2397(5) 0.2646(5)
H2 H 0.6465 1.1990 0.2697
C4 C 0.7193(10) 1.3394(6) 0.1813(7)
H3 H 0.8010 1.3713 0.1824
H4 H 0.6133 1.4015 0.2017
H5 H 0.7448 1.3075 0.1079
O3 O 1.0404(3) 0.86271(19) 0.33308(18)
O4 O 1.0667(3) 0.7018(2) 0.4284(2)
C5 C 1.1092(4) 0.7511(3) 0.3392(3)
C6 C 1.2435(5) 0.6795(3) 0.2436(3)
H6 H 1.2758 0.5971 0.2463
C7 C 1.3186(5) 0.7226(4) 0.1577(3)
H7 H 1.2773 0.8049 0.1535
C8 C 1.4656(7) 0.6564(5) 0.0625(4)
H8 H 1.5618 0.6656 0.0692
H9 H 1.4499 0.6877 -0.0063
H10 H 1.4791 0.5734 0.0634
O5 O 0.8452(3) 0.7479(2) 0.6500(2)
O6 O 0.6093(4) 0.8018(3) 0.7882(3)
C9 C 0.7531(5) 0.7348(4) 0.7446(3)
C10 C 0.8244(6) 0.6293(4) 0.8060(4)
H11 H 0.7615 0.6243 0.8787
C11 C 0.9620(6) 0.5461(4) 0.7687(4)
H12 H 1.0262 0.5534 0.6970
C12 C 1.0330(7) 0.4375(5) 0.8265(5)
H13 H 0.9559 0.4374 0.8985
H14 H 1.1331 0.4378 0.8348
H15 H 1.0556 0.3677 0.7834
O7 O 0.7425(3) 0.8054(2) 0.41473(19)
N1 N 0.6777(3) 0.7215(2) 0.4384(2)
C13 C 0.5457(4) 0.7333(3) 0.4093(3)
H16 H 0.5015 0.8001 0.3726
C14 C 0.4751(4) 0.6476(3) 0.4333(3)
H17 H 0.3824 0.6580 0.4134
C15 C 0.5383(4) 0.5463(3) 0.4863(3)
C16 C 0.6777(4) 0.5363(3) 0.5128(3)
H18 H 0.7261 0.4690 0.5475
C17 C 0.7445(4) 0.6236(3) 0.4888(3)
H19 H 0.8375 0.6153 0.5076
O9 O 0.5639(3) 0.9353(3) 0.6192(2)
H24 H 0.483(3) 0.936(3) 0.601(3)
H25 H 0.568(5) 0.888(3) 0.671(3)
O10 O 0.7631(3) 1.0110(2) 0.6830(2)
H26 H 0.811(3) 1.057(3) 0.687(3)
H27 H 0.670(2) 1.034(3) 0.733(2)
Y1A Y 1.15032(3) 1.11047(3) 0.47882(3)
Y1A_2 Y 0.15032(3) 0.11047(3) 0.47882(3)
O1A O 1.2783(3) 0.9462(2) 0.5764(2)
O2A O 1.0856(3) 0.9043(2) 0.5448(2)
C1A C 1.1891(4) 0.8838(3) 0.5954(3)
C2A C 1.1934(6) 0.7894(4) 0.6742(4)
H1A H 1.1241 0.7472 0.6796
C3A C 1.2825(7) 0.7603(5) 0.7354(5)
H2A H 1.3535 0.8010 0.7303
C4A C 1.2807(10) 0.6606(6) 0.8187(7)
H3A H 1.1990 0.6287 0.8176
H4A H 1.3867 0.5985 0.7983
H5A H 1.2552 0.6925 0.8921
O3A O 0.9596(3) 1.13729(19) 0.66692(18)
O4A O 0.9333(3) 1.2982(2) 0.5716(2)
C5A C 0.8908(4) 1.2489(3) 0.6608(3)
C6A C 0.7565(5) 1.3205(3) 0.7564(3)
H6A H 0.7242 1.4029 0.7537
C7A C 0.6814(5) 1.2774(4) 0.8423(3)
H7A H 0.7227 1.1951 0.8465
C8A C 0.5344(7) 1.3436(5) 0.9375(4)
H8A H 0.4382 1.3344 0.9308
H9A H 0.5501 1.3123 1.0063
H10A H 0.5209 1.4266 0.9366
O5A O 1.1548(3) 1.2521(2) 0.3500(2)
O6A O 1.3907(4) 1.1982(3) 0.2118(3)
C9A C 1.2469(5) 1.2652(4) 0.2554(3)
C10A C 1.1756(6) 1.3707(4) 0.1940(4)
H11A H 1.2385 1.3757 0.1213
C11A C 1.0380(6) 1.4539(4) 0.2313(4)
H12A H 0.9738 1.4466 0.3030
C12A C 0.9670(7) 1.5625(5) 0.1735(5)
H13A H 1.0441 1.5626 0.1015
H14A H 0.8669 1.5622 0.1652
H15A H 0.9444 1.6323 0.2166
O7A O 0.2575(3) 0.1946(2) 0.58527(19)
O7A_2 O 1.2575(3) 1.1946(2) 0.58527(19)
N1A N 0.3223(3) 0.2785(2) 0.5616(2)
C13A C 0.4543(4) 0.2667(3) 0.5907(3)
H16A H 0.4985 0.1999 0.6274
C14A C 0.5249(4) 0.3524(3) 0.5667(3)
H17A H 0.6176 0.3420 0.5866
C15A C 0.4617(4) 0.4537(3) 0.5137(3)
C16A C 0.3223(4) 0.4637(3) 0.4872(3)
H18A H 0.2739 0.5310 0.4525
C17A C 0.2555(4) 0.3764(3) 0.5112(3)
H19A H 0.1625 0.3847 0.4924
O9A O 1.4361(3) 1.0647(3) 0.3808(2)
H24A H 1.517(3) 1.064(3) 0.399(3)
H25A H 1.432(5) 1.112(3) 0.329(3)
O10A O 1.2369(3) 0.9890(2) 0.3170(2)
H26A H 1.189(3) 0.943(3) 0.313(3)
H27A H 1.330(2) 0.966(3) 0.267(2)
O8 O 0.5306(3) 0.8759(3) 0.1537(2)
N2 N 0.6593(4) 0.9071(3) 0.1116(3)
C18 C 0.7472(5) 0.9154(3) 0.1744(3)
H20 H 0.7174 0.8961 0.2486
C19 C 0.8788(4) 0.9511(3) 0.1331(3)
H21 H 0.9358 0.9568 0.1797
C20 C 0.9297(4) 0.9793(3) 0.0231(3)
C21 C 0.8408(5) 0.9631(4) -0.0415(3)
H22 H 0.8723 0.9770 -0.1170
C22 C 0.7089(5) 0.9274(4) 0.0036(3)
H23 H 0.6526 0.9172 -0.0418
O8A O 1.4694(3) 1.1241(3) -0.1537(2)
N2A N 1.3407(4) 1.0929(3) -0.1116(3)
C18A C 1.2528(5) 1.0846(3) -0.1744(3)
H20A H 1.2826 1.1039 -0.2486
C19A C 1.1212(4) 1.0489(3) -0.1331(3)
H21A H 1.0642 1.0432 -0.1797
C20A C 1.0703(4) 1.0207(3) -0.0231(3)
C21A C 1.1592(5) 1.0369(4) 0.0415(3)
H22A H 1.1277 1.0230 0.1170
C22A C 1.2911(5) 1.0726(4) -0.0036(3)
H23A H 1.3474 1.0828 0.0418
loop_
_geom_bond_atom_site_label_1
_geom_bond_atom_site_label_2
_geom_bond_site_symmetry_1
_geom_bond_site_symmetry_2
Y1 O1 1_555 1_555
O1 C1 1_555 1_555
O2 Y1 1_555 1_555
C1 O2 1_555 1_555
C2 C1 1_555 1_555
H1 C2 1_555 1_555
C3 C2 1_555 1_555
H2 C3 1_555 1_555
C4 C3 1_555 1_555
H3 C4 1_555 1_555
H4 C4 1_555 1_555
H5 C4 1_555 1_555
O3 Y1 1_555 1_555
O4 Y1 1_555 1_555
C5 O3 1_555 1_555
C6 C5 1_555 1_555
H6 C6 1_555 1_555
C7 C6 1_555 1_555
H7 C7 1_555 1_555
C8 C7 1_555 1_555
H8 C8 1_555 1_555
H9 C8 1_555 1_555
H10 C8 1_555 1_555
O5 Y1 1_555 1_555
O6 C9 1_555 1_555
C9 O5 1_555 1_555
C10 C9 1_555 1_555
H11 C10 1_555 1_555
C11 C10 1_555 1_555
H12 C11 1_555 1_555
C12 C11 1_555 1_555
H13 C12 1_555 1_555
H14 C12 1_555 1_555
H15 C12 1_555 1_555
O7 Y1 1_555 1_555
N1 O7 1_555 1_555
C13 N1 1_555 1_555
H16 C13 1_555 1_555
C14 C13 1_555 1_555
H17 C14 1_555 1_555
C15 C14 1_555 1_555
C16 C15 1_555 1_555
H18 C16 1_555 1_555
C17 N1 1_555 1_555
H19 C17 1_555 1_555
O8 N2 1_555 1_555
N2 C18 1_555 1_555
C18 H20 1_555 1_555
C19 C18 1_555 1_555
H21 C19 1_555 1_555
C20 C19 1_555 1_555
C21 C20 1_555 1_555
H22 C21 1_555 1_555
C22 N2 1_555 1_555
H23 C22 1_555 1_555
O9 Y1 1_555 1_555
H24 O9 1_555 1_555
H25 O9 1_555 1_555
O10 Y1 1_555 1_555
H26 O10 1_555 1_555
H27 O10 1_555 1_555
Y1A O2 1_555 1_555
Y1A_2 O7A 1_555 1_555
O1A Y1A 1_555 1_555
O2A Y1 1_555 1_555
C1A O1A 1_555 1_555
C2A C1A 1_555 1_555
H1A C2A 1_555 1_555
C3A C2A 1_555 1_555
H2A C3A 1_555 1_555
C4A C3A 1_555 1_555
H3A C4A 1_555 1_555
H4A C4A 1_555 1_555
H5A C4A 1_555 1_555
O3A Y1A 1_555 1_555
O4A Y1A 1_555 1_555
C5A O3A 1_555 1_555
C6A C5A 1_555 1_555
H6A C6A 1_555 1_555
C7A C6A 1_555 1_555
H7A C7A 1_555 1_555
C8A C7A 1_555 1_555
H8A C8A 1_555 1_555
H9A C8A 1_555 1_555
H10A C8A 1_555 1_555
O5A Y1A 1_555 1_555
O6A C9A 1_555 1_555
C9A O5A 1_555 1_555
C10A C9A 1_555 1_555
H11A C10A 1_555 1_555
C11A C10A 1_555 1_555
H12A C11A 1_555 1_555
C12A C11A 1_555 1_555
H13A C12A 1_555 1_555
H14A C12A 1_555 1_555
H15A C12A 1_555 1_555
O7A N1A 1_555 1_555
O7A_2 Y1A 1_555 1_555
N1A C13A 1_555 1_555
C13A H16A 1_555 1_555
C14A C13A 1_555 1_555
H17A C14A 1_555 1_555
C15A C15 1_555 1_555
C16A C15A 1_555 1_555
H18A C16A 1_555 1_555
C17A N1A 1_555 1_555
H19A C17A 1_555 1_555
O8A N2A 1_555 1_555
N2A C18A 1_555 1_555
C18A H20A 1_555 1_555
C19A C18A 1_555 1_555
H21A C19A 1_555 1_555
C20A C20 1_555 1_555
C21A C20A 1_555 1_555
H22A C21A 1_555 1_555
C22A N2A 1_555 1_555
H23A C22A 1_555 1_555
O9A Y1A 1_555 1_555
H24A O9A 1_555 1_555
H25A O9A 1_555 1_555
O10A Y1A 1_555 1_555
H26A O10A 1_555 1_555
H27A O10A 1_555 1_555
O4 C5 1_555 1_555
C16 C17 1_555 1_555
C21 C22 1_555 1_555
Y1A O2A 1_555 1_555
O2A C1A 1_555 1_555
O4A C5A 1_555 1_555
C14A C15A 1_555 1_555
C16A C17A 1_555 1_555
C19A C20A 1_555 1_555
C21A C22A 1_555 1_555

#END
