
#######################################################################
#
#                 Cambridge Crystallographic Data Centre
#                                CCDC 
#
#######################################################################
#
# If this CIF has been generated from an entry in the Cambridge 
# Structural Database, then it will include bibliographic, chemical, 
# crystal, experimental, refinement or atomic coordinate data resulting 
# from the CCDC's data processing and validation procedures.
#
#######################################################################

data_GIMKUJ
_symmetry_cell_setting           monoclinic
_symmetry_space_group_name_H-M   'P 21/c'
_symmetry_Int_Tables_number      14
_space_group_name_Hall           '-P 2ybc'
loop_
_symmetry_equiv_pos_site_id
_symmetry_equiv_pos_as_xyz
1 x,y,z
2 -x,1/2+y,1/2-z
3 -x,-y,-z
4 x,1/2-y,1/2+z
_cell_length_a                   15.693(3)
_cell_length_b                   7.0491(14)
_cell_length_c                   9.752(2)
_cell_angle_alpha                90
_cell_angle_beta                 98.97(3)
_cell_angle_gamma                90
_cell_volume                     1065.59
loop_
_atom_site_label
_atom_site_type_symbol
_atom_site_fract_x
_atom_site_fract_y
_atom_site_fract_z
Zn1 Zn 0.500470(12) -1.60066(3) 0.240690(19)
O1 O 0.39530(8) -1.51324(19) 0.32467(13)
O2 O 0.40723(8) -1.20281(19) 0.37283(12)
O3 O 0.39336(8) -1.48856(19) 0.62463(12)
O4 O 0.40656(8) -1.79812(19) 0.58154(12)
O5 O 0.50023(9) -1.84354(17) 0.37479(12)
H1 H 0.4581(10) -1.835(3) 0.413(2)
H2 H 0.5428(11) -1.832(3) 0.440(2)
C1 C 0.22614(13) -1.2030(3) 0.3054(2)
H3 H 0.2554 -1.1019 0.2730
C2 C 0.13522(14) -1.2018(4) 0.2859(3)
H4 H 0.1049 -1.0997 0.2420
C3 C 0.09222(14) -1.3499(3) 0.3313(2)
H5 H 0.0322 -1.3507 0.3144
C4 C 0.13662(12) -1.5035(3) 0.4039(2)
C5 C 0.22870(11) -1.5019(3) 0.42978(17)
C6 C 0.27196(12) -1.3512(3) 0.37145(19)
C7 C 0.36592(11) -1.3577(2) 0.35823(17)
C8 C 0.09152(14) -1.6577(3) 0.4515(2)
H6 H 0.0316 -1.6590 0.4337
C9 C 0.13380(14) -1.8033(4) 0.5224(3)
H7 H 0.1031 -1.9054 0.5502
C10 C 0.22462(13) -1.8001(3) 0.5541(2)
H8 H 0.2533 -1.8998 0.6039
C11 C 0.27126(12) -1.6520(3) 0.51244(19)
C12 C 0.36469(11) -1.6445(2) 0.57542(17)
Zn1B Zn 0.499530(12) -1.39934(3) 0.759310(19)
Zn1C Zn 0.500470(12) -1.89934(3) 0.740690(19)
Zn1A Zn 0.499530(12) -2.10066(3) 0.259310(19)
Zn1A_2 Zn 0.499530(12) -1.10066(3) 0.259310(19)
O2A O 0.59277(8) -1.70281(19) 0.12717(12)
O3B O 0.60664(8) -1.51144(19) 0.37537(12)
O4C O 0.40656(8) -1.70188(19) 0.08154(12)
O5A O 0.49977(9) -1.34354(17) 0.12521(12)
H1A H 0.5419(10) -1.335(3) 0.087(2)
H2A H 0.4572(11) -1.332(3) 0.060(2)
loop_
_geom_bond_atom_site_label_1
_geom_bond_atom_site_label_2
_geom_bond_site_symmetry_1
_geom_bond_site_symmetry_2
Zn1 O1 1_555 1_555
O1 C7 1_555 1_555
O2 C7 1_555 1_555
O3 C12 1_555 1_555
O4 C12 1_555 1_555
O5 Zn1 1_555 1_555
H1 O5 1_555 1_555
H2 O5 1_555 1_555
C1 H3 1_555 1_555
C2 C1 1_555 1_555
H4 C2 1_555 1_555
C3 C2 1_555 1_555
H5 C3 1_555 1_555
C4 C3 1_555 1_555
C5 C4 1_555 1_555
C6 C1 1_555 1_555
C7 C6 1_555 1_555
C8 C4 1_555 1_555
H6 C8 1_555 1_555
C9 C8 1_555 1_555
H7 C9 1_555 1_555
C10 C9 1_555 1_555
H8 C10 1_555 1_555
C11 C5 1_555 1_555
C12 C11 1_555 1_555
Zn1B O3 1_555 1_555
Zn1C O4 1_555 1_555
Zn1A O5 1_555 1_555
Zn1A_2 O2 1_555 1_555
O2A Zn1 1_555 1_555
O3B Zn1 1_555 1_555
O4C Zn1 1_555 1_555
O5A Zn1 1_555 1_555
H1A O5A 1_555 1_555
H2A O5A 1_555 1_555
C5 C6 1_555 1_555
C10 C11 1_555 1_555
Zn1A_2 O5A 1_555 1_555

#END
