
#######################################################################
#
#                 Cambridge Crystallographic Data Centre
#                                CCDC 
#
#######################################################################
#
# If this CIF has been generated from an entry in the Cambridge 
# Structural Database, then it will include bibliographic, chemical, 
# crystal, experimental, refinement or atomic coordinate data resulting 
# from the CCDC's data processing and validation procedures.
#
#######################################################################

data_GIMLOE
_symmetry_cell_setting           monoclinic
_symmetry_space_group_name_H-M   'C 2/c'
_symmetry_Int_Tables_number      15
_space_group_name_Hall           '-C 2yn'
loop_
_symmetry_equiv_pos_site_id
_symmetry_equiv_pos_as_xyz
1 x,y,z
2 1/2+x,1/2+y,z
3 -x,y,1/2-z
4 1/2-x,1/2+y,1/2-z
5 -x,-y,-z
6 1/2-x,1/2-y,-z
7 x,-y,1/2+z
8 1/2+x,1/2-y,1/2+z
_cell_length_a                   11.090(2)
_cell_length_b                   13.293(2)
_cell_length_c                   18.989(3)
_cell_angle_alpha                90
_cell_angle_beta                 90.488(3)
_cell_angle_gamma                90
_cell_volume                     2799.24
loop_
_atom_site_label
_atom_site_type_symbol
_atom_site_fract_x
_atom_site_fract_y
_atom_site_fract_z
Ag1 Ag 0.0000 0.10567(6) 0.7500
Ag2 Ag 0.0000 0.32882(6) 0.7500
N1 N 0.2791(4) 0.1012(4) 0.5998(3)
N2 N 0.1159(5) 0.1067(4) 0.6625(3)
N3 N 0.6758(5) 0.3379(4) 0.6314(3)
N4 N -0.1420(5) 0.3250(4) 0.6750(3)
C1 C 0.4077(6) 0.0902(5) 0.5819(4)
H1 H 0.4140 0.0522 0.5385
H2 H 0.4477 0.0520 0.6188
C2 C 0.4727(6) 0.1905(5) 0.5731(4)
H3 H 0.5553 0.1775 0.5593
H4 H 0.4341 0.2278 0.5352
C3 C 0.4738(7) 0.2538(6) 0.6376(5)
H5 H 0.5079 0.2150 0.6762
H6 H 0.3913 0.2702 0.6498
C4 C 0.5448(6) 0.3510(6) 0.6304(5)
H7 H 0.5216 0.3833 0.5865
H8 H 0.5228 0.3958 0.6685
C5 C 0.2334(6) 0.0965(5) 0.6634(3)
H9 H 0.2791 0.0869 0.7041
C6 C 0.0866(6) 0.1214(6) 0.5939(4)
H10 H 0.0090 0.1326 0.5766
C7 C 0.1874(6) 0.1174(6) 0.5543(4)
H11 H 0.1923 0.1243 0.5056
C8 C -0.2554(7) 0.3283(6) 0.6901(4)
H12 H -0.2857 0.3245 0.7356
C9 C -0.1355(6) 0.3323(5) 0.6038(4)
H13 H -0.0647 0.3308 0.5779
C10 C 0.7533(6) 0.3418(5) 0.5766(4)
H14 H 0.7331 0.3496 0.5292
Ag1_2 Ag -1.0000 0.10567(6) 0.7500
Ag2_2 Ag 1.0000 0.32882(6) 0.7500
N1_2 N -0.7209(4) 0.1012(4) 0.5998(3)
N2_2 N -0.8841(5) 0.1067(4) 0.6625(3)
N2B N -0.1159(5) 0.1067(4) 0.8375(3)
N3_2 N -0.3242(5) 0.3379(4) 0.6314(3)
N4B N 0.1420(5) 0.3250(4) 0.8250(3)
N4_2 N 0.8580(5) 0.3250(4) 0.6750(3)
C1_2 C -0.5923(6) 0.0902(5) 0.5819(4)
H1_2 H -0.5860 0.0522 0.5385
H2_2 H -0.5523 0.0520 0.6188
C2_2 C -0.5273(6) 0.1905(5) 0.5731(4)
H3_2 H -0.4447 0.1775 0.5593
H4_2 H -0.5659 0.2278 0.5352
C3_2 C -0.5262(7) 0.2538(6) 0.6376(5)
H5_2 H -0.4921 0.2150 0.6762
H6_2 H -0.6087 0.2702 0.6498
C4_2 C -0.4552(6) 0.3510(6) 0.6304(5)
H7_2 H -0.4784 0.3833 0.5865
H8_2 H -0.4772 0.3958 0.6685
C5_2 C -0.7666(6) 0.0965(5) 0.6634(3)
H9_2 H -0.7209 0.0869 0.7041
C6_2 C -0.9134(6) 0.1214(6) 0.5939(4)
H10_2 H -0.9910 0.1326 0.5766
C7_2 C -0.8126(6) 0.1174(6) 0.5543(4)
H11_2 H -0.8077 0.1243 0.5056
C8_2 C 0.7446(7) 0.3283(6) 0.6901(4)
H12_2 H 0.7143 0.3245 0.7356
C9_2 C 0.8645(6) 0.3323(5) 0.6038(4)
H13_2 H 0.9353 0.3308 0.5779
C10_2 C -0.2467(6) 0.3418(5) 0.5766(4)
H14_2 H -0.2669 0.3496 0.5292
Cl1 Cl 0.28074(16) 0.99123(15) 0.85980(10)
O1 O 0.3670(5) 1.0303(6) 0.8122(3)
O2 O 0.3173(8) 0.8917(6) 0.8799(5)
O3 O 0.1705(5) 0.9784(6) 0.8220(4)
O4 O 0.2697(9) 1.0500(7) 0.9192(4)
loop_
_geom_bond_atom_site_label_1
_geom_bond_atom_site_label_2
_geom_bond_site_symmetry_1
_geom_bond_site_symmetry_2
Ag1 Ag2 1_555 1_555
Ag2 N4 1_555 1_555
N1 C1 1_555 1_555
N2 Ag1 1_555 1_555
N3 C4 1_555 1_555
N4 C8 1_555 1_555
C1 H1 1_555 1_555
H2 C1 1_555 1_555
C2 C1 1_555 1_555
H3 C2 1_555 1_555
H4 C2 1_555 1_555
C3 C2 1_555 1_555
H5 C3 1_555 1_555
H6 C3 1_555 1_555
C4 C3 1_555 1_555
H7 C4 1_555 1_555
H8 C4 1_555 1_555
C5 N1 1_555 1_555
H9 C5 1_555 1_555
C6 N2 1_555 1_555
H10 C6 1_555 1_555
C7 N1 1_555 1_555
H11 C7 1_555 1_555
C8 H12 1_555 1_555
C9 N4 1_555 1_555
H13 C9 1_555 1_555
C10 N3 1_555 1_555
H14 C10 1_555 1_555
Cl1 O1 1_555 1_555
O2 Cl1 1_555 1_555
O3 Cl1 1_555 1_555
O4 Cl1 1_555 1_555
Ag1_2 N2_2 1_555 1_555
Ag2_2 N4_2 1_555 1_555
N1_2 C1_2 1_555 1_555
N2_2 C5_2 1_555 1_555
N2B Ag1 1_555 1_555
N3_2 C8 1_555 1_555
N4B Ag2 1_555 1_555
N4_2 C8_2 1_555 1_555
C1_2 H1_2 1_555 1_555
H2_2 C1_2 1_555 1_555
C2_2 C1_2 1_555 1_555
H3_2 C2_2 1_555 1_555
H4_2 C2_2 1_555 1_555
C3_2 C2_2 1_555 1_555
H5_2 C3_2 1_555 1_555
H6_2 C3_2 1_555 1_555
C4_2 N3_2 1_555 1_555
H7_2 C4_2 1_555 1_555
H8_2 C4_2 1_555 1_555
C5_2 N1_2 1_555 1_555
H9_2 C5_2 1_555 1_555
C6_2 N2_2 1_555 1_555
H10_2 C6_2 1_555 1_555
C7_2 N1_2 1_555 1_555
H11_2 C7_2 1_555 1_555
C8_2 N3 1_555 1_555
H12_2 C8_2 1_555 1_555
C9_2 C10 1_555 1_555
H13_2 C9_2 1_555 1_555
C10_2 C9 1_555 1_555
H14_2 C10_2 1_555 1_555
N2 C5 1_555 1_555
C6 C7 1_555 1_555
N3_2 C10_2 1_555 1_555
N4_2 C9_2 1_555 1_555
C3_2 C4_2 1_555 1_555
C6_2 C7_2 1_555 1_555

#END
