
#######################################################################
#
#                 Cambridge Crystallographic Data Centre
#                                CCDC 
#
#######################################################################
#
# If this CIF has been generated from an entry in the Cambridge 
# Structural Database, then it will include bibliographic, chemical, 
# crystal, experimental, refinement or atomic coordinate data resulting 
# from the CCDC's data processing and validation procedures.
#
#######################################################################

data_GIMLIX
_symmetry_cell_setting           triclinic
_symmetry_space_group_name_H-M   'P -1'
_symmetry_Int_Tables_number      2
_space_group_name_Hall           '-P 1'
loop_
_symmetry_equiv_pos_site_id
_symmetry_equiv_pos_as_xyz
1 x,y,z
2 -x,-y,-z
_cell_length_a                   10.245(2)
_cell_length_b                   10.798(2)
_cell_length_c                   11.067(2)
_cell_angle_alpha                75.27(2)
_cell_angle_beta                 68.27(2)
_cell_angle_gamma                82.70(2)
_cell_volume                     1099.18
loop_
_atom_site_label
_atom_site_type_symbol
_atom_site_fract_x
_atom_site_fract_y
_atom_site_fract_z
Ag1 Ag 0.42162(7) 0.87640(5) 0.93605(6)
C1 C 0.6911(7) 1.1392(8) 0.3523(7)
C2 C 0.6486(8) 1.2691(7) 0.3419(8)
Cl1 Cl 0.5485(2) 1.3223(2) 0.4834(3)
C3 C 0.6878(11) 1.3497(9) 0.2145(12)
C4 C 0.7699(13) 1.3018(15) 0.1017(10)
C5 C 0.8086(11) 1.1805(14) 0.1162(8)
C6 C 0.7708(9) 1.0931(10) 0.2386(8)
O1 O 0.6492(5) 1.0635(4) 0.4798(4)
C7 C 0.6909(7) 0.9303(6) 0.4964(6)
C8 C 0.6401(7) 0.8670(6) 0.6439(7)
O2 O 0.5796(5) 0.9362(4) 0.7277(4)
O3 O 0.6627(5) 0.7504(4) 0.6704(5)
Ag2 Ag 0.57468(7) 0.64921(6) 0.88331(6)
C9 C 0.1284(7) 0.6010(7) 1.5300(7)
C10 C 0.0503(7) 0.6913(9) 1.6023(7)
Cl2 Cl 0.0449(2) 0.8486(2) 1.5198(3)
C11 C -0.0167(8) 0.6535(11) 1.7382(9)
C12 C -0.0092(11) 0.5333(14) 1.8032(9)
C13 C 0.0620(10) 0.4409(9) 1.7358(9)
C14 C 0.1360(8) 0.4735(8) 1.5950(8)
O4 O 0.1947(5) 0.6489(4) 1.3965(4)
C15 C 0.2762(7) 0.5639(6) 1.3156(6)
C16 C 0.3489(7) 0.6417(6) 1.1750(6)
O5 O 0.3395(5) 0.7604(4) 1.1512(4)
O6 O 0.4128(6) 0.5763(4) 1.0923(5)
Ag3 Ag 0.64810(8) 1.14112(6) 0.68987(6)
Cl3 Cl 0.2867(2) 1.1899(2) 0.9250(2)
O7 O 0.3633(8) 1.0902(7) 0.9849(7)
O8 O 0.2754(8) 1.2973(7) 0.9785(7)
O9 O 0.1547(9) 1.1545(8) 0.9419(8)
O10 O 0.3623(10) 1.2158(10) 0.7869(11)
H1 H 0.654 1.444 0.213
H2 H 0.797 1.344 -0.002
H3 H 0.870 1.152 0.032
H4 H 0.777 0.979 0.234
H5 H 0.637 0.891 0.456
H6 H 0.794 0.925 0.463
H7 H -0.062 0.712 1.796
H8 H -0.063 0.491 1.913
H9 H 0.077 0.351 1.774
H10 H 0.200 0.405 1.535
H11 H 0.206 0.510 1.312
H12 H 0.351 0.515 1.340
O6A O 0.5872(6) 0.4237(4) 0.9077(5)
Ag3A Ag 0.35190(8) 0.85888(6) 1.31013(6)
Ag2A Ag 0.42532(7) 0.35079(6) 1.11669(6)
O5A O 0.6605(5) 1.2396(4) 0.8488(4)
Ag1A Ag 0.57838(7) 1.12360(5) 1.06395(6)
C16A C 0.6511(7) 1.3583(6) 0.8250(6)
C15A C 0.7238(7) 1.4361(6) 0.6844(6)
O6A_2 O 0.5872(6) 1.4237(4) 0.9077(5)
O4A O 0.8053(5) 1.3511(4) 0.6035(4)
H11A H 0.794 1.490 0.688
H12A H 0.649 1.485 0.660
Ag2_2 Ag 0.57468(7) 1.64921(6) 0.88331(6)
Ag2A_2 Ag 0.42532(7) 1.35079(6) 1.11669(6)
C9A C 0.8716(7) 1.3990(7) 0.4700(7)
C10A C 0.9497(7) 1.3087(9) 0.3977(7)
C14A C 0.8640(8) 1.5265(8) 0.4050(8)
Cl2A Cl 0.9551(2) 1.1514(2) 0.4802(3)
C11A C 1.0167(8) 1.3465(11) 0.2618(9)
C13A C 0.9380(10) 1.5591(9) 0.2642(9)
H10A H 0.800 1.595 0.465
C12A C 1.0092(11) 1.4667(14) 0.1968(9)
H7A H 1.062 1.288 0.204
H9A H 0.923 1.649 0.226
H8A H 1.063 1.509 0.087
O1A O 0.3508(5) 0.9365(4) 1.5202(4)
O2A O 0.4204(5) 1.0638(4) 1.2723(4)
O7A O 0.6367(8) 0.9098(7) 1.0151(7)
O6_2 O 0.4128(6) 1.5763(4) 1.0923(5)
O3A O 0.3373(5) 1.2496(4) 1.3296(5)
C1A C 0.3089(7) 0.8608(8) 1.6477(7)
C7A C 0.3091(7) 1.0697(6) 1.5036(6)
C8A C 0.3599(7) 1.1330(6) 1.3561(7)
Cl3A Cl 0.7133(2) 0.8101(2) 1.0750(2)
C2A C 0.3514(8) 0.7309(7) 1.6581(8)
C6A C 0.2292(9) 0.9069(10) 1.7614(8)
H5A H 0.363 1.109 1.544
H6A H 0.206 1.075 1.537
O8A O 0.7246(8) 0.7027(7) 1.0215(7)
O9A O 0.8453(9) 0.8455(8) 1.0581(8)
O10A O 0.6377(10) 0.7842(10) 1.2131(11)
Cl1A Cl 0.4515(2) 0.6777(2) 1.5166(3)
C3A C 0.3122(11) 0.6503(9) 1.7855(12)
C5A C 0.1914(11) 0.8195(14) 1.8838(8)
H4A H 0.223 1.021 1.766
C4A C 0.2301(13) 0.6982(15) 1.8983(10)
H1A H 0.346 0.556 1.787
H3A H 0.130 0.848 1.968
H2A H 0.203 0.656 2.002
loop_
_geom_bond_atom_site_label_1
_geom_bond_atom_site_label_2
_geom_bond_site_symmetry_1
_geom_bond_site_symmetry_2
Ag1 O2 1_555 1_555
C1 C2 1_555 1_555
C2 Cl1 1_555 1_555
C3 C2 1_555 1_555
C4 C3 1_555 1_555
C5 C4 1_555 1_555
C6 C1 1_555 1_555
O1 C1 1_555 1_555
C7 O1 1_555 1_555
C8 C7 1_555 1_555
O2 C8 1_555 1_555
O3 C8 1_555 1_555
Ag2 Ag1 1_555 1_555
C9 C10 1_555 1_555
C10 Cl2 1_555 1_555
C11 C10 1_555 1_555
C12 C11 1_555 1_555
C13 C12 1_555 1_555
C14 C9 1_555 1_555
O4 C9 1_555 1_555
C15 O4 1_555 1_555
C16 C15 1_555 1_555
O5 Ag1 1_555 1_555
O6 Ag2 1_555 1_555
Ag3 O1 1_555 1_555
Cl3 O7 1_555 1_555
O7 Ag1 1_555 1_555
O8 Cl3 1_555 1_555
O9 Cl3 1_555 1_555
O10 Cl3 1_555 1_555
H1 C3 1_555 1_555
H2 C4 1_555 1_555
H3 C5 1_555 1_555
H4 C6 1_555 1_555
H5 C7 1_555 1_555
H6 C7 1_555 1_555
H7 C11 1_555 1_555
H8 C12 1_555 1_555
H9 C13 1_555 1_555
H10 C14 1_555 1_555
H11 C15 1_555 1_555
H12 C15 1_555 1_555
O6A Ag2 1_555 1_555
Ag3A O5 1_555 1_555
Ag2A O6 1_555 1_555
O5A Ag3 1_555 1_555
Ag1A O5A 1_555 1_555
C16A O5A 1_555 1_555
C15A C16A 1_555 1_555
O6A_2 C16A 1_555 1_555
O4A C15A 1_555 1_555
H11A C15A 1_555 1_555
H12A C15A 1_555 1_555
Ag2_2 O6A_2 1_555 1_555
Ag2A_2 Ag1A 1_555 1_555
C9A O4A 1_555 1_555
C10A C9A 1_555 1_555
C14A C9A 1_555 1_555
Cl2A C10A 1_555 1_555
C11A C10A 1_555 1_555
C13A C14A 1_555 1_555
H10A C14A 1_555 1_555
C12A C11A 1_555 1_555
H7A C11A 1_555 1_555
H9A C13A 1_555 1_555
H8A C12A 1_555 1_555
O1A Ag3A 1_555 1_555
O2A Ag3A 1_555 1_555
O7A Ag1A 1_555 1_555
O6_2 Ag2_2 1_555 1_555
O3A Ag2A_2 1_555 1_555
C1A O1A 1_555 1_555
C7A O1A 1_555 1_555
C8A O2A 1_555 1_555
Cl3A O7A 1_555 1_555
C2A C1A 1_555 1_555
C6A C1A 1_555 1_555
H5A C7A 1_555 1_555
H6A C7A 1_555 1_555
O8A Cl3A 1_555 1_555
O9A Cl3A 1_555 1_555
O10A Cl3A 1_555 1_555
Cl1A C2A 1_555 1_555
C3A C2A 1_555 1_555
C5A C6A 1_555 1_555
H4A C6A 1_555 1_555
C4A C3A 1_555 1_555
H1A C3A 1_555 1_555
H3A C5A 1_555 1_555
H2A C4A 1_555 1_555
C5 C6 1_555 1_555
O2 Ag3 1_555 1_555
O3 Ag2 1_555 1_555
C13 C14 1_555 1_555
C16 O5 1_555 1_555
C16 O6 1_555 1_555
O6A Ag2A 1_555 1_555
Ag1A O2A 1_555 1_555
O6A_2 Ag2A_2 1_555 1_555
Ag2A_2 O6_2 1_555 1_555
C13A C12A 1_555 1_555
O3A C8A 1_555 1_555
C7A C8A 1_555 1_555
C5A C4A 1_555 1_555

#END
