
#######################################################################
#
#                 Cambridge Crystallographic Data Centre
#                                CCDC 
#
#######################################################################
#
# If this CIF has been generated from an entry in the Cambridge 
# Structural Database, then it will include bibliographic, chemical, 
# crystal, experimental, refinement or atomic coordinate data resulting 
# from the CCDC's data processing and validation procedures.
#
#######################################################################

data_GIMMUL
_symmetry_cell_setting           monoclinic
_symmetry_space_group_name_H-M   'P 21/c'
_symmetry_Int_Tables_number      14
_space_group_name_Hall           '-P 2ybc'
loop_
_symmetry_equiv_pos_site_id
_symmetry_equiv_pos_as_xyz
1 x,y,z
2 -x,1/2+y,1/2-z
3 -x,-y,-z
4 x,1/2-y,1/2+z
_cell_length_a                   7.2434(2)
_cell_length_b                   24.2180(6)
_cell_length_c                   13.3606(4)
_cell_angle_alpha                90
_cell_angle_beta                 100.700(3)
_cell_angle_gamma                90
_cell_volume                     2302.97
loop_
_atom_site_label
_atom_site_type_symbol
_atom_site_fract_x
_atom_site_fract_y
_atom_site_fract_z
Tm1 Tm 0.59003(2) 0.454897(7) 0.399404(13)
Tm2 Tm 0.08157(2) 0.507460(7) 0.374340(13)
O1 O 0.1057(4) 0.52578(15) 0.1945(2)
O3 O 0.3689(4) 0.51172(13) 0.3029(2)
O4 O 0.6818(5) 0.60627(16) 0.3283(3)
O5 O 0.7650(4) 0.51876(13) 0.3111(2)
O6 O 0.6622(4) 0.52721(12) 0.5154(2)
H3 H 0.6798 0.5576 0.4863
O7 O 0.9153(4) 0.45201(11) 0.4675(2)
H4 H 0.9514 0.4181 0.4653
O8 O 0.7094(4) 0.39701(14) 0.2895(2)
H5 H 0.6624 0.3661 0.2651
H6 H 0.8242 0.4011 0.2814
O9 O 0.6154(5) 0.38747(14) 0.5187(3)
O10 O 0.8544(5) 0.39973(14) 0.6484(3)
O11 O 0.0726(4) 0.42349(13) 0.2920(2)
O12 O 0.3672(4) 0.39141(14) 0.3250(3)
C1 C 0.4036(9) 0.5674(3) -0.0361(4)
H7 H 0.3465 0.5677 -0.1045
C2 C 0.5870(9) 0.5844(3) -0.0072(5)
H8 H 0.6525 0.5970 -0.0564
C3 C 0.6752(8) 0.5829(2) 0.0935(4)
H9 H 0.7996 0.5942 0.1117
C4 C 0.5787(6) 0.5645(2) 0.1685(4)
C5 C 0.3912(6) 0.5475(2) 0.1394(4)
C6 C 0.3051(8) 0.5500(2) 0.0368(4)
H10 H 0.1798 0.5398 0.0176
C7 C 0.6795(6) 0.5645(2) 0.2774(4)
C8 C 0.2815(6) 0.52723(19) 0.2139(3)
C9 C -0.0001(10) 0.3032(3) 0.0566(6)
H11 H -0.0706 0.3092 -0.0081
C10 C 0.1614(10) 0.2449(3) 0.1733(7)
H12 H 0.2018 0.2094 0.1925
C11 C 0.2083(8) 0.2876(2) 0.2437(5)
H13 H 0.2817 0.2811 0.3074
C12 C 0.0335(8) 0.3471(3) 0.1215(5)
H14 H -0.0172 0.3816 0.1020
C13 C 0.1427(6) 0.3397(2) 0.2156(4)
C14 C 0.1989(6) 0.38845(19) 0.2843(3)
C15 C 0.7365(9) 0.2477(3) 0.7692(5)
H15 H 0.7858 0.2383 0.8364
C16 C 0.5699(9) 0.2247(2) 0.6158(5)
H16 H 0.5015 0.1985 0.5734
C17 C 0.7636(9) 0.3011(2) 0.7375(5)
H17 H 0.8314 0.3265 0.7821
C18 C 0.5864(8) 0.2770(2) 0.5766(5)
H18 H 0.5304 0.2857 0.5101
C19 C 0.6887(6) 0.31574(19) 0.6394(4)
C20 C 0.7218(7) 0.37263(19) 0.5994(4)
N1 N 0.0619(8) 0.2526(3) 0.0804(5)
N2 N 0.6451(7) 0.2096(2) 0.7099(5)
Tm1B Tm 0.40997(2) 0.545103(7) 0.600596(13)
Tm2_2 Tm 1.08157(2) 0.507460(7) 0.374340(13)
Tm2B Tm 0.91843(2) 0.492540(7) 0.625660(13)
O5_2 O -0.2350(4) 0.51876(13) 0.3111(2)
O6B O 0.3378(4) 0.47279(12) 0.4846(2)
H3B H 0.3202 0.4424 0.5137
O7B O 0.0847(4) 0.54799(11) 0.5325(2)
O7_2 O -0.0847(4) 0.45201(11) 0.4675(2)
H4B H 0.0486 0.5819 0.5347
H4_2 H -0.0486 0.4181 0.4653
O10B O 0.1456(5) 0.60027(14) 0.3516(3)
O2 O 0.9011(7) 0.84841(18) 1.0193(4)
H1 H 0.9435 0.8165 0.9930
H2 H 0.7784 0.8479 1.0047
loop_
_geom_bond_atom_site_label_1
_geom_bond_atom_site_label_2
_geom_bond_site_symmetry_1
_geom_bond_site_symmetry_2
Tm1 O3 1_555 1_555
Tm2 O1 1_555 1_555
O1 C8 1_555 1_555
O2 H1 1_555 1_555
H2 O2 1_555 1_555
O3 Tm2 1_555 1_555
O4 C7 1_555 1_555
O5 Tm1 1_555 1_555
O6 Tm1 1_555 1_555
H3 O6 1_555 1_555
O7 Tm1 1_555 1_555
H4 O7 1_555 1_555
O8 Tm1 1_555 1_555
H5 O8 1_555 1_555
H6 O8 1_555 1_555
O9 Tm1 1_555 1_555
O10 C20 1_555 1_555
O11 Tm2 1_555 1_555
O12 Tm1 1_555 1_555
C1 H7 1_555 1_555
C2 C1 1_555 1_555
H8 C2 1_555 1_555
C3 C2 1_555 1_555
H9 C3 1_555 1_555
C4 C3 1_555 1_555
C5 C4 1_555 1_555
C6 C1 1_555 1_555
H10 C6 1_555 1_555
C7 O5 1_555 1_555
C8 O3 1_555 1_555
C9 H11 1_555 1_555
C10 H12 1_555 1_555
C11 C10 1_555 1_555
H13 C11 1_555 1_555
C12 C9 1_555 1_555
H14 C12 1_555 1_555
C13 C11 1_555 1_555
C14 O11 1_555 1_555
C15 H15 1_555 1_555
C16 H16 1_555 1_555
C17 C15 1_555 1_555
H17 C17 1_555 1_555
C18 C16 1_555 1_555
H18 C18 1_555 1_555
C19 C17 1_555 1_555
C20 O9 1_555 1_555
N1 C9 1_555 1_555
N2 C15 1_555 1_555
Tm1B O6 1_555 1_555
Tm2_2 O5 1_555 1_555
Tm2B O6 1_555 1_555
O5_2 Tm2 1_555 1_555
O6B Tm1 1_555 1_555
H3B O6B 1_555 1_555
O7B Tm2 1_555 1_555
O7_2 Tm2 1_555 1_555
H4B O7B 1_555 1_555
H4_2 O7_2 1_555 1_555
O10B Tm2 1_555 1_555
Tm2 O6B 1_555 1_555
O7 Tm2_2 1_555 1_555
O7 Tm2B 1_555 1_555
O10 Tm2B 1_555 1_555
O12 C14 1_555 1_555
C4 C7 1_555 1_555
C5 C6 1_555 1_555
C5 C8 1_555 1_555
C10 N1 1_555 1_555
C12 C13 1_555 1_555
C13 C14 1_555 1_555
C16 N2 1_555 1_555
C18 C19 1_555 1_555
C19 C20 1_555 1_555
Tm1B O6B 1_555 1_555
Tm1B O7B 1_555 1_555

#END
