
#######################################################################
#
#                 Cambridge Crystallographic Data Centre
#                                CCDC 
#
#######################################################################
#
# If this CIF has been generated from an entry in the Cambridge 
# Structural Database, then it will include bibliographic, chemical, 
# crystal, experimental, refinement or atomic coordinate data resulting 
# from the CCDC's data processing and validation procedures.
#
#######################################################################

data_GIMMOF
_symmetry_cell_setting           monoclinic
_symmetry_space_group_name_H-M   'P 21/c'
_symmetry_Int_Tables_number      14
_space_group_name_Hall           '-P 2ybc'
loop_
_symmetry_equiv_pos_site_id
_symmetry_equiv_pos_as_xyz
1 x,y,z
2 -x,1/2+y,1/2-z
3 -x,-y,-z
4 x,1/2-y,1/2+z
_cell_length_a                   7.2706(5)
_cell_length_b                   24.2780(4)
_cell_length_c                   13.3668(2)
_cell_angle_alpha                90
_cell_angle_beta                 100.708(4)
_cell_angle_gamma                90
_cell_volume                     2318.36
loop_
_atom_site_label
_atom_site_type_symbol
_atom_site_fract_x
_atom_site_fract_y
_atom_site_fract_z
Er1 Er 0.58951(3) 0.454643(8) 0.398835(15)
Er2 Er 0.08089(3) 0.507490(8) 0.373750(15)
O1 O 0.1068(5) 0.52598(16) 0.1930(3)
O3 O 0.3687(5) 0.51179(15) 0.3019(3)
O4 O 0.6819(6) 0.60570(17) 0.3285(4)
O5 O 0.7641(5) 0.51853(14) 0.3102(3)
O6 O 0.6621(4) 0.52711(13) 0.5156(2)
H3 H 0.6796 0.5575 0.4866
O7 O 0.9148(4) 0.45157(13) 0.4673(2)
H4 H 0.9509 0.4176 0.4651
O8 O 0.7093(5) 0.39610(15) 0.2890(3)
H5 H 0.6623 0.3652 0.2646
H6 H 0.8241 0.4002 0.2809
O9 O 0.6144(5) 0.38738(16) 0.5195(3)
O10 O 0.8535(6) 0.39941(15) 0.6491(3)
O11 O 0.0725(5) 0.42319(14) 0.2910(3)
O12 O 0.3656(5) 0.39110(16) 0.3237(3)
C1 C 0.4039(9) 0.5679(3) -0.0365(4)
H7 H 0.3466 0.5686 -0.1048
C2 C 0.5869(10) 0.5846(3) -0.0078(5)
H8 H 0.6521 0.5974 -0.0568
C3 C 0.6754(8) 0.5825(3) 0.0935(5)
H9 H 0.8000 0.5931 0.1117
C4 C 0.5786(7) 0.5645(2) 0.1678(4)
C5 C 0.3910(7) 0.5478(2) 0.1389(4)
C6 C 0.3056(9) 0.5502(3) 0.0364(4)
H10 H 0.1810 0.5398 0.0171
C7 C 0.6792(7) 0.5645(2) 0.2771(4)
C8 C 0.2808(7) 0.5273(2) 0.2121(4)
C9 C -0.0018(11) 0.3026(4) 0.0559(6)
H11 H -0.0722 0.3083 -0.0088
C10 C 0.1601(11) 0.2452(3) 0.1732(7)
H12 H 0.2012 0.2098 0.1925
C11 C 0.2072(9) 0.2877(3) 0.2431(6)
H13 H 0.2809 0.2812 0.3066
C12 C 0.0323(9) 0.3465(3) 0.1206(5)
H14 H -0.0178 0.3809 0.1007
C13 C 0.1415(7) 0.3393(2) 0.2154(4)
C14 C 0.1978(7) 0.3881(2) 0.2831(4)
C15 C 0.7356(10) 0.2478(3) 0.7691(6)
H15 H 0.7844 0.2385 0.8363
C16 C 0.5696(10) 0.2249(3) 0.6147(6)
H16 H 0.5030 0.1987 0.5719
C17 C 0.7622(10) 0.3012(3) 0.7372(5)
H17 H 0.8299 0.3265 0.7816
C18 C 0.5846(9) 0.2772(2) 0.5766(5)
H18 H 0.5272 0.2861 0.5104
C19 C 0.6869(7) 0.3159(2) 0.6391(4)
C20 C 0.7213(8) 0.3727(2) 0.6000(4)
N1 N 0.0606(9) 0.2523(3) 0.0811(5)
N2 N 0.6447(8) 0.2097(2) 0.7091(5)
Er1B Er 0.41049(3) 0.545357(8) 0.601165(15)
Er2_2 Er 1.08089(3) 0.507490(8) 0.373750(15)
Er2B Er 0.91911(3) 0.492510(8) 0.626250(15)
O5_2 O -0.2359(5) 0.51853(14) 0.3102(3)
O6B O 0.3379(4) 0.47289(13) 0.4844(2)
H3B H 0.3204 0.4425 0.5134
O7B O 0.0852(4) 0.54843(13) 0.5327(2)
O7_2 O -0.0852(4) 0.45157(13) 0.4673(2)
H4B H 0.0491 0.5824 0.5349
H4_2 H -0.0491 0.4176 0.4651
O10B O 0.1465(6) 0.60059(15) 0.3509(3)
O2 O 0.9014(7) 0.8486(2) 1.0199(4)
H1 H 0.9439 0.8167 0.9936
H2 H 0.7788 0.8481 1.0053
loop_
_geom_bond_atom_site_label_1
_geom_bond_atom_site_label_2
_geom_bond_site_symmetry_1
_geom_bond_site_symmetry_2
Er1 O3 1_555 1_555
Er2 O1 1_555 1_555
O1 C8 1_555 1_555
O2 H1 1_555 1_555
H2 O2 1_555 1_555
O3 Er2 1_555 1_555
O4 C7 1_555 1_555
O5 Er1 1_555 1_555
O6 Er1 1_555 1_555
H3 O6 1_555 1_555
O7 Er1 1_555 1_555
H4 O7 1_555 1_555
O8 Er1 1_555 1_555
H5 O8 1_555 1_555
H6 O8 1_555 1_555
O9 Er1 1_555 1_555
O10 C20 1_555 1_555
O11 Er2 1_555 1_555
O12 Er1 1_555 1_555
C1 H7 1_555 1_555
C2 C1 1_555 1_555
H8 C2 1_555 1_555
C3 C2 1_555 1_555
H9 C3 1_555 1_555
C4 C3 1_555 1_555
C5 C4 1_555 1_555
C6 C1 1_555 1_555
H10 C6 1_555 1_555
C7 O5 1_555 1_555
C8 O3 1_555 1_555
C9 H11 1_555 1_555
C10 H12 1_555 1_555
C11 C10 1_555 1_555
H13 C11 1_555 1_555
C12 C9 1_555 1_555
H14 C12 1_555 1_555
C13 C11 1_555 1_555
C14 O11 1_555 1_555
C15 H15 1_555 1_555
C16 H16 1_555 1_555
C17 C15 1_555 1_555
H17 C17 1_555 1_555
C18 C16 1_555 1_555
H18 C18 1_555 1_555
C19 C17 1_555 1_555
C20 O9 1_555 1_555
N1 C9 1_555 1_555
N2 C15 1_555 1_555
Er1B O6 1_555 1_555
Er2_2 O5 1_555 1_555
Er2B O6 1_555 1_555
O5_2 Er2 1_555 1_555
O6B Er1 1_555 1_555
H3B O6B 1_555 1_555
O7B Er2 1_555 1_555
O7_2 Er2 1_555 1_555
H4B O7B 1_555 1_555
H4_2 O7_2 1_555 1_555
O10B Er2 1_555 1_555
Er2 O6B 1_555 1_555
O7 Er2_2 1_555 1_555
O7 Er2B 1_555 1_555
O10 Er2B 1_555 1_555
O12 C14 1_555 1_555
C4 C7 1_555 1_555
C5 C6 1_555 1_555
C5 C8 1_555 1_555
C10 N1 1_555 1_555
C12 C13 1_555 1_555
C13 C14 1_555 1_555
C16 N2 1_555 1_555
C18 C19 1_555 1_555
C19 C20 1_555 1_555
Er1B O6B 1_555 1_555
Er1B O7B 1_555 1_555

#END
