
#######################################################################
#
#                 Cambridge Crystallographic Data Centre
#                                CCDC 
#
#######################################################################
#
# If this CIF has been generated from an entry in the Cambridge 
# Structural Database, then it will include bibliographic, chemical, 
# crystal, experimental, refinement or atomic coordinate data resulting 
# from the CCDC's data processing and validation procedures.
#
#######################################################################

data_GIMMIZ
_symmetry_cell_setting           monoclinic
_symmetry_space_group_name_H-M   'C 2/c'
_symmetry_Int_Tables_number      15
_space_group_name_Hall           '-C 2yn'
loop_
_symmetry_equiv_pos_site_id
_symmetry_equiv_pos_as_xyz
1 x,y,z
2 1/2+x,1/2+y,z
3 -x,y,1/2-z
4 1/2-x,1/2+y,1/2-z
5 -x,-y,-z
6 1/2-x,1/2-y,-z
7 x,-y,1/2+z
8 1/2+x,1/2-y,1/2+z
_cell_length_a                   20.646(3)
_cell_length_b                   9.3893(13)
_cell_length_c                   13.4869(19)
_cell_angle_alpha                90
_cell_angle_beta                 128.152(3)
_cell_angle_gamma                90
_cell_volume                     2055.94
loop_
_atom_site_label
_atom_site_type_symbol
_atom_site_fract_x
_atom_site_fract_y
_atom_site_fract_z
Fe1 Fe 0.0000 0.18136(6) 0.2500
Cl1 Cl 0.05342(5) 0.01125(8) 0.18386(7)
N1 N 0.11058(14) 0.2288(3) 0.4396(2)
N2 N 0.06189(14) 0.3638(3) 0.2290(2)
C1 C 0.13654(18) 0.1586(3) 0.5444(3)
H1 H 0.1060 0.0783 0.5376
C2 C 0.2065(2) 0.1986(4) 0.6629(3)
H2 H 0.2236 0.1457 0.7355
C3 C 0.2509(2) 0.3155(4) 0.6744(3)
H3 H 0.2989 0.3445 0.7547
C4 C 0.22415(18) 0.3903(3) 0.5662(3)
H4 H 0.2533 0.4717 0.5711
C5 C 0.15458(17) 0.3440(3) 0.4519(3)
C6 C 0.12394(18) 0.4161(3) 0.3333(3)
H5 H 0.1499 0.5002 0.3342
C7 C 0.03157(16) 0.4355(3) 0.1139(2)
C8 C 0.01959(18) 0.5820(3) 0.1012(3)
H6 H 0.0326 0.6376 0.1703
C9 C 0.01138(18) 0.3532(3) 0.0124(3)
H7 H 0.0189 0.2529 0.0211
Fe1F Fe 0.0000 0.81864(6) -0.2500
Cl1B Cl -0.05342(5) 0.01125(8) 0.31614(7)
N1D N -0.11058(14) 0.7712(3) -0.4396(2)
N1B N -0.11058(14) 0.2288(3) 0.0604(2)
N2D N -0.06189(14) 0.6362(3) -0.2290(2)
N2B N -0.06189(14) 0.3638(3) 0.2710(2)
C1D C -0.13654(18) 0.8414(3) -0.5444(3)
H1D H -0.1060 0.9217 -0.5376
C2D C -0.2065(2) 0.8014(4) -0.6629(3)
H2D H -0.2236 0.8543 -0.7355
C3D C -0.2509(2) 0.6845(4) -0.6744(3)
H3D H -0.2989 0.6555 -0.7547
C4D C -0.22415(18) 0.6097(3) -0.5662(3)
H4D H -0.2533 0.5283 -0.5711
C5D C -0.15458(17) 0.6560(3) -0.4519(3)
C6D C -0.12394(18) 0.5839(3) -0.3333(3)
H5D H -0.1499 0.4998 -0.3342
C7D C -0.03157(16) 0.5645(3) -0.1139(2)
C8D C -0.01959(18) 0.4180(3) -0.1012(3)
H6D H -0.0326 0.3624 -0.1703
C9D C -0.01138(18) 0.6468(3) -0.0124(3)
H7D H -0.0189 0.7471 -0.0211
O1 O 0.1566(5) -0.2242(7) 0.3795(6)
H8 H 0.1032 -0.2030 0.3089
C10 C 0.1559(3) -0.2049(5) 0.4795(5)
H9 H 0.1488 -0.3051 0.4913
H10 H 0.1068 -0.1446 0.4379
H11 H 0.2106 -0.1632 0.5414
O2? O 0.1192(11) -0.2584(17) 0.3628(12)
H12? H 0.1573 -0.2724 0.5362
H13? H 0.1247 -0.1283 0.4819
H14? H 0.2121 -0.1670 0.5321
loop_
_geom_bond_atom_site_label_1
_geom_bond_atom_site_label_2
_geom_bond_site_symmetry_1
_geom_bond_site_symmetry_2
Fe1 Cl1 1_555 1_555
N1 Fe1 1_555 1_555
N2 Fe1 1_555 1_555
C1 N1 1_555 1_555
H1 C1 1_555 1_555
C2 C1 1_555 1_555
H2 C2 1_555 1_555
C3 C2 1_555 1_555
H3 C3 1_555 1_555
C4 C3 1_555 1_555
H4 C4 1_555 1_555
C5 N1 1_555 1_555
C6 N2 1_555 1_555
H5 C6 1_555 1_555
C7 N2 1_555 1_555
C8 C7 1_555 1_555
H6 C8 1_555 1_555
C9 C7 1_555 1_555
H7 C9 1_555 1_555
O1 H8 1_555 1_555
C10 O1 1_555 1_555
H9 C10 1_555 1_555
H10 C10 1_555 1_555
H11 C10 1_555 1_555
Fe1F N1D 1_555 1_555
Cl1B Fe1 1_555 1_555
N1D C1D 1_555 1_555
N1B Fe1 1_555 1_555
N2D Fe1F 1_555 1_555
N2B Fe1 1_555 1_555
C1D H1D 1_555 1_555
C2D C1D 1_555 1_555
H2D C2D 1_555 1_555
C3D C2D 1_555 1_555
H3D C3D 1_555 1_555
C4D C3D 1_555 1_555
H4D C4D 1_555 1_555
C5D N1D 1_555 1_555
C6D N2D 1_555 1_555
H5D C6D 1_555 1_555
C7D N2D 1_555 1_555
C8D C9 1_555 1_555
H6D C8D 1_555 1_555
C9D C8 1_555 1_555
H7D C9D 1_555 1_555
C4 C5 1_555 1_555
C5 C6 1_555 1_555
C4D C5D 1_555 1_555
C5D C6D 1_555 1_555
C7D C8D 1_555 1_555
C7D C9D 1_555 1_555

#END
