
#######################################################################
#
#                 Cambridge Crystallographic Data Centre
#                                CCDC 
#
#######################################################################
#
# If this CIF has been generated from an entry in the Cambridge 
# Structural Database, then it will include bibliographic, chemical, 
# crystal, experimental, refinement or atomic coordinate data resulting 
# from the CCDC's data processing and validation procedures.
#
#######################################################################

data_GIMSOM
_symmetry_cell_setting           triclinic
_symmetry_space_group_name_H-M   'P -1'
_symmetry_Int_Tables_number      2
_space_group_name_Hall           '-P 1'
loop_
_symmetry_equiv_pos_site_id
_symmetry_equiv_pos_as_xyz
1 x,y,z
2 -x,-y,-z
_cell_length_a                   9.522(1)
_cell_length_b                   10.354(1)
_cell_length_c                   12.014(1)
_cell_angle_alpha                108.742(1)
_cell_angle_beta                 109.761(1)
_cell_angle_gamma                96.696(1)
_cell_volume                     1021.34
loop_
_atom_site_label
_atom_site_type_symbol
_atom_site_fract_x
_atom_site_fract_y
_atom_site_fract_z
Cd1 Cd 0.0000 0.0000 0.0000
Cd2 Cd 0.83404(3) 0.79377(2) 0.381891(19)
O1 O 0.6352(3) 0.6083(2) 0.2015(2)
O2 O 0.6477(3) 0.6294(3) 0.3946(2)
C1 C 0.5881(4) 0.5679(4) 0.2744(3)
C2 C 0.4548(4) 0.4405(4) 0.2148(3)
C3 C 0.3623(4) 0.3854(4) 0.0829(3)
H1 H 0.3815 0.4295 0.0295
C4 C 0.2431(4) 0.2661(4) 0.0319(3)
H2 H 0.1804 0.2303 -0.0573
C5 C 0.3002(4) 0.2500(3) 0.2283(3)
H3 H 0.2802 0.2019 0.2788
C6 C 0.4199(4) 0.3705(3) 0.2874(3)
H4 H 0.4782 0.4056 0.3773
N1 N 0.2112(3) 0.1982(3) 0.1024(3)
S1 S 0.04904(9) -0.00957(8) 0.30155(7)
O3 O -0.0203(3) 0.0312(2) 0.1911(2)
O4 O 0.0244(3) 0.0863(2) 0.4114(2)
O5 O -0.0362(3) -0.1550(2) 0.2696(2)
O6 O 0.2124(3) -0.0006(3) 0.3321(2)
S2 S -0.31656(10) 0.12034(9) -0.11363(8)
O7 O -0.1544(3) 0.1551(3) -0.0120(3)
C7 C -0.3101(4) 0.2497(4) -0.1812(3)
H5 H -0.2502 0.2299 -0.2342
H6 H -0.2612 0.3433 -0.1123
H7 H -0.4152 0.2469 -0.2344
C8 C -0.4303(5) 0.1867(5) -0.0270(4)
H8 H -0.4465 0.1268 0.0185
H9 H -0.5302 0.1865 -0.0870
H10 H -0.3764 0.2832 0.0350
S3 S 0.73449(9) 1.09687(8) 0.43226(7)
O8 O 0.6715(3) 0.9383(3) 0.3519(2)
C9 C 0.5837(4) 1.1509(4) 0.4786(3)
H11 H 0.5781 1.1171 0.5447
H12 H 0.4851 1.1111 0.4038
H13 H 0.6056 1.2540 0.5125
C10 C 0.7123(4) 1.1727(4) 0.3154(3)
H14 H 0.7885 1.1535 0.2782
H15 H 0.7281 1.2748 0.3561
H16 H 0.6082 1.1315 0.2475
S4 S 0.92911(10) 0.48279(9) 0.28737(8)
O9 O 0.9829(3) 0.6290(3) 0.3939(2)
C11 C 1.0590(5) 0.3878(4) 0.3485(3)
H17 H 1.0379 0.3673 0.4163
H18 H 1.1653 0.4446 0.3836
H19 H 1.0454 0.2992 0.2791
C12 C 0.9960(6) 0.5009(4) 0.1697(4)
H20 H 0.9352 0.5526 0.1247
H21 H 0.9846 0.4073 0.1080
H22 H 1.1049 0.5527 0.2118
Cd2A Cd -0.83404(3) -0.79377(2) -0.381891(19)
O1A O -0.6352(3) -0.6083(2) -0.2015(2)
O2A O -0.6477(3) -0.6294(3) -0.3946(2)
C1A C -0.5881(4) -0.5679(4) -0.2744(3)
C2A C -0.4548(4) -0.4405(4) -0.2148(3)
C3A C -0.3623(4) -0.3854(4) -0.0829(3)
H1A H -0.3815 -0.4295 -0.0295
C4A C -0.2431(4) -0.2661(4) -0.0319(3)
H2A H -0.1804 -0.2303 0.0573
C5A C -0.3002(4) -0.2500(3) -0.2283(3)
H3A H -0.2802 -0.2019 -0.2788
C6A C -0.4199(4) -0.3705(3) -0.2874(3)
H4A H -0.4782 -0.4056 -0.3773
N1A N -0.2112(3) -0.1982(3) -0.1024(3)
S1A S -0.04904(9) 0.00957(8) -0.30155(7)
O3A O 0.0203(3) -0.0312(2) -0.1911(2)
O4A O -0.0244(3) -0.0863(2) -0.4114(2)
O5A O 0.0362(3) 0.1550(2) -0.2696(2)
O6A O -0.2124(3) 0.0006(3) -0.3321(2)
S2A S 0.31656(10) -0.12034(9) 0.11363(8)
O7A O 0.1544(3) -0.1551(3) 0.0120(3)
C7A C 0.3101(4) -0.2497(4) 0.1812(3)
H5A H 0.2502 -0.2299 0.2342
H6A H 0.2612 -0.3433 0.1123
H7A H 0.4152 -0.2469 0.2344
C8A C 0.4303(5) -0.1867(5) 0.0270(4)
H8A H 0.4465 -0.1268 -0.0185
H9A H 0.5302 -0.1865 0.0870
H10A H 0.3764 -0.2832 -0.0350
S3A S -0.73449(9) -1.09687(8) -0.43226(7)
O8A O -0.6715(3) -0.9383(3) -0.3519(2)
C9A C -0.5837(4) -1.1509(4) -0.4786(3)
H11A H -0.5781 -1.1171 -0.5447
H12A H -0.4851 -1.1111 -0.4038
H13A H -0.6056 -1.2540 -0.5125
C10A C -0.7123(4) -1.1727(4) -0.3154(3)
H14A H -0.7885 -1.1535 -0.2782
H15A H -0.7281 -1.2748 -0.3561
H16A H -0.6082 -1.1315 -0.2475
S4A S -0.92911(10) -0.48279(9) -0.28737(8)
O9A O -0.9829(3) -0.6290(3) -0.3939(2)
C11A C -1.0590(5) -0.3878(4) -0.3485(3)
H17A H -1.0379 -0.3673 -0.4163
H18A H -1.1653 -0.4446 -0.3836
H19A H -1.0454 -0.2992 -0.2791
C12A C -0.9960(6) -0.5009(4) -0.1697(4)
H20A H -0.9352 -0.5526 -0.1247
H21A H -0.9846 -0.4073 -0.1080
H22A H -1.1049 -0.5527 -0.2118
Cd2_2 Cd -0.16596(3) -0.20623(2) -0.618109(19)
Cd2_3 Cd -0.16596(3) -0.20623(2) 0.381891(19)
Cd2A_2 Cd 0.16596(3) 0.20623(2) -0.381891(19)
Cd2A_3 Cd 0.16596(3) 0.20623(2) 0.618109(19)
O4_2 O -0.9756(3) -0.9137(2) -0.5886(2)
O4A_2 O 0.9756(3) 0.9137(2) 0.5886(2)
O5_2 O 0.9638(3) 0.8450(2) 0.2696(2)
O5A_2 O -0.9638(3) -0.8450(2) -0.2696(2)
loop_
_geom_bond_atom_site_label_1
_geom_bond_atom_site_label_2
_geom_bond_site_symmetry_1
_geom_bond_site_symmetry_2
Cd1 N1 1_555 1_555
Cd2 O1 1_555 1_555
O1 C1 1_555 1_555
O2 Cd2 1_555 1_555
C1 O2 1_555 1_555
C2 C1 1_555 1_555
C3 C2 1_555 1_555
H1 C3 1_555 1_555
C4 C3 1_555 1_555
H2 C4 1_555 1_555
C5 H3 1_555 1_555
C6 C2 1_555 1_555
H4 C6 1_555 1_555
N1 C4 1_555 1_555
S1 O3 1_555 1_555
O3 Cd1 1_555 1_555
O4 S1 1_555 1_555
O5 S1 1_555 1_555
O6 S1 1_555 1_555
S2 O7 1_555 1_555
O7 Cd1 1_555 1_555
C7 S2 1_555 1_555
H5 C7 1_555 1_555
H6 C7 1_555 1_555
H7 C7 1_555 1_555
C8 S2 1_555 1_555
H8 C8 1_555 1_555
H9 C8 1_555 1_555
H10 C8 1_555 1_555
S3 O8 1_555 1_555
O8 Cd2 1_555 1_555
C9 S3 1_555 1_555
H11 C9 1_555 1_555
H12 C9 1_555 1_555
H13 C9 1_555 1_555
C10 S3 1_555 1_555
H14 C10 1_555 1_555
H15 C10 1_555 1_555
H16 C10 1_555 1_555
S4 O9 1_555 1_555
O9 Cd2 1_555 1_555
C11 S4 1_555 1_555
H17 C11 1_555 1_555
H18 C11 1_555 1_555
H19 C11 1_555 1_555
C12 S4 1_555 1_555
H20 C12 1_555 1_555
H21 C12 1_555 1_555
H22 C12 1_555 1_555
Cd2A O1A 1_555 1_555
O1A C1A 1_555 1_555
O2A Cd2A 1_555 1_555
C1A O2A 1_555 1_555
C2A C1A 1_555 1_555
C3A C2A 1_555 1_555
H1A C3A 1_555 1_555
C4A C3A 1_555 1_555
H2A C4A 1_555 1_555
C5A H3A 1_555 1_555
C6A C2A 1_555 1_555
H4A C6A 1_555 1_555
N1A Cd1 1_555 1_555
S1A O3A 1_555 1_555
O3A Cd1 1_555 1_555
O4A S1A 1_555 1_555
O5A S1A 1_555 1_555
O6A S1A 1_555 1_555
S2A O7A 1_555 1_555
O7A Cd1 1_555 1_555
C7A S2A 1_555 1_555
H5A C7A 1_555 1_555
H6A C7A 1_555 1_555
H7A C7A 1_555 1_555
C8A S2A 1_555 1_555
H8A C8A 1_555 1_555
H9A C8A 1_555 1_555
H10A C8A 1_555 1_555
S3A O8A 1_555 1_555
O8A Cd2A 1_555 1_555
C9A S3A 1_555 1_555
H11A C9A 1_555 1_555
H12A C9A 1_555 1_555
H13A C9A 1_555 1_555
C10A S3A 1_555 1_555
H14A C10A 1_555 1_555
H15A C10A 1_555 1_555
H16A C10A 1_555 1_555
S4A O9A 1_555 1_555
O9A Cd2A 1_555 1_555
C11A S4A 1_555 1_555
H17A C11A 1_555 1_555
H18A C11A 1_555 1_555
H19A C11A 1_555 1_555
C12A S4A 1_555 1_555
H20A C12A 1_555 1_555
H21A C12A 1_555 1_555
H22A C12A 1_555 1_555
Cd2_2 O4A 1_555 1_555
Cd2_3 O5 1_555 1_555
Cd2A_2 O5A 1_555 1_555
Cd2A_3 O4 1_555 1_555
O4_2 Cd2A 1_555 1_555
O4A_2 Cd2 1_555 1_555
O5_2 Cd2 1_555 1_555
O5A_2 Cd2A 1_555 1_555
C5 C6 1_555 1_555
C5 N1 1_555 1_555
C4A N1A 1_555 1_555
C5A C6A 1_555 1_555
C5A N1A 1_555 1_555

#END
