
#######################################################################
#
#                 Cambridge Crystallographic Data Centre
#                                CCDC 
#
#######################################################################
#
# If this CIF has been generated from an entry in the Cambridge 
# Structural Database, then it will include bibliographic, chemical, 
# crystal, experimental, refinement or atomic coordinate data resulting 
# from the CCDC's data processing and validation procedures.
#
#######################################################################

data_GIMSEC
_symmetry_cell_setting           monoclinic
_symmetry_space_group_name_H-M   'C 2/c'
_symmetry_Int_Tables_number      15
_space_group_name_Hall           '-C 2yn'
loop_
_symmetry_equiv_pos_site_id
_symmetry_equiv_pos_as_xyz
1 x,y,z
2 -x,y,1/2-z
3 1/2+x,1/2+y,z
4 1/2-x,1/2+y,1/2-z
5 -x,-y,-z
6 x,-y,1/2+z
7 1/2-x,1/2-y,-z
8 1/2+x,1/2-y,1/2+z
_cell_length_a                   23.1386(13)
_cell_length_b                   5.41575(15)
_cell_length_c                   19.7769(11)
_cell_angle_alpha                90
_cell_angle_beta                 125.285(8)
_cell_angle_gamma                90
_cell_volume                     2023.01
loop_
_atom_site_label
_atom_site_type_symbol
_atom_site_fract_x
_atom_site_fract_y
_atom_site_fract_z
U1 U 0.2500 0.2500 0.0000
O1 O 0.32909(8) 0.2211(3) 0.14485(9)
O2 O 0.29363(7) 0.5182(3) 0.00061(9)
O3 O 0.21108(8) 0.4805(3) 0.08010(9)
O4 O 0.13483(8) 0.4725(3) -0.05183(9)
O5 O 0.10864(9) 0.6571(3) 0.02526(11)
N1 N 0.38449(9) 0.4376(4) 0.26356(11)
H1 H 0.3475 0.4213 0.2636
N2 N 0.43752(9) 0.3805(3) 0.19496(10)
H2 H 0.4357 0.3055 0.1554
N3 N 0.14980(9) 0.5412(4) 0.01818(11)
C1 C 0.38250(10) 0.3459(4) 0.20040(12)
C2 C 0.5000 0.5337(5) 0.2500
C3 C 0.48325(11) 0.6969(4) 0.29984(13)
H3 H 0.4535 0.8324 0.2648
H4 H 0.5272 0.7673 0.3460
C4 C 0.44616(10) 0.5661(4) 0.33376(12)
C5 C 0.41875(12) 0.7570(4) 0.36544(14)
H5 H 0.3897 0.8751 0.3225
H6 H 0.4581 0.8403 0.4127
H7 H 0.3912 0.6760 0.3811
C6 C 0.49310(11) 0.3803(4) 0.40312(13)
H8 H 0.4694 0.3263 0.4274
H9 H 0.5371 0.4575 0.4447
H10 H 0.5021 0.2407 0.3806
O1A O 0.67091(8) 0.2211(3) 0.35515(9)
N1A N 0.61551(9) 0.4376(4) 0.23644(11)
H1A H 0.6525 0.4213 0.2364
N2A N 0.56248(9) 0.3805(3) 0.30504(10)
H2A H 0.5643 0.3055 0.3446
C1A C 0.61750(10) 0.3459(4) 0.29960(12)
C3A C 0.51675(11) 0.6969(4) 0.20016(13)
H3A H 0.5465 0.8324 0.2352
H4A H 0.4728 0.7673 0.1540
C4A C 0.55384(10) 0.5661(4) 0.16624(12)
C5A C 0.58125(12) 0.7570(4) 0.13456(14)
H5A H 0.6103 0.8751 0.1775
H6A H 0.5419 0.8403 0.0873
H7A H 0.6088 0.6760 0.1189
C6A C 0.50690(11) 0.3803(4) 0.09688(13)
H8A H 0.5306 0.3263 0.0726
H9A H 0.4629 0.4575 0.0553
H10A H 0.4979 0.2407 0.1194
O3F O 0.28892(8) 0.0195(3) -0.08010(9)
O4F O 0.36517(8) 0.0275(3) 0.05183(9)
O5F O 0.39136(9) -0.1571(3) -0.02526(11)
N3F N 0.35020(9) -0.0412(4) -0.01818(11)
O2F O 0.20637(7) -0.0182(3) -0.00061(9)
U1A U 0.7500 0.2500 0.5000
O1F O 0.17091(8) 0.2789(3) -0.14485(9)
O6 O 0.27394(9) 0.2918(3) 0.28245(11)
H11 H 0.2572 0.1635 0.2522
H12 H 0.2871 0.2567 0.3313
loop_
_geom_bond_atom_site_label_1
_geom_bond_atom_site_label_2
_geom_bond_site_symmetry_1
_geom_bond_site_symmetry_2
U1 O1 1_555 1_555
O1 C1 1_555 1_555
O2 U1 1_555 1_555
O3 U1 1_555 1_555
O4 U1 1_555 1_555
O5 N3 1_555 1_555
N1 H1 1_555 1_555
N2 H2 1_555 1_555
N3 O3 1_555 1_555
C1 N1 1_555 1_555
C2 N2 1_555 1_555
C3 C2 1_555 1_555
H3 C3 1_555 1_555
H4 C3 1_555 1_555
C4 N1 1_555 1_555
C5 C4 1_555 1_555
H5 C5 1_555 1_555
H6 C5 1_555 1_555
H7 C5 1_555 1_555
C6 C4 1_555 1_555
H8 C6 1_555 1_555
H9 C6 1_555 1_555
H10 C6 1_555 1_555
O6 H11 1_555 1_555
H12 O6 1_555 1_555
O1A C1A 1_555 1_555
N1A H1A 1_555 1_555
N2A C2 1_555 1_555
H2A N2A 1_555 1_555
C1A N1A 1_555 1_555
C3A C2 1_555 1_555
H3A C3A 1_555 1_555
H4A C3A 1_555 1_555
C4A N1A 1_555 1_555
C5A C4A 1_555 1_555
H5A C5A 1_555 1_555
H6A C5A 1_555 1_555
H7A C5A 1_555 1_555
C6A C4A 1_555 1_555
H8A C6A 1_555 1_555
H9A C6A 1_555 1_555
H10A C6A 1_555 1_555
O3F U1 1_555 1_555
O4F U1 1_555 1_555
O5F N3F 1_555 1_555
N3F O3F 1_555 1_555
O2F U1 1_555 1_555
U1A O1A 1_555 1_555
O1F U1 1_555 1_555
O4 N3 1_555 1_555
N2 C1 1_555 1_555
C3 C4 1_555 1_555
N2A C1A 1_555 1_555
C3A C4A 1_555 1_555
O4F N3F 1_555 1_555

#END
