
#######################################################################
#
#                 Cambridge Crystallographic Data Centre
#                                CCDC 
#
#######################################################################
#
# If this CIF has been generated from an entry in the Cambridge 
# Structural Database, then it will include bibliographic, chemical, 
# crystal, experimental, refinement or atomic coordinate data resulting 
# from the CCDC's data processing and validation procedures.
#
#######################################################################

data_GIMVEE
_symmetry_cell_setting           orthorhombic
_symmetry_space_group_name_H-M   'P 21 21 21'
_symmetry_Int_Tables_number      19
_space_group_name_Hall           'P 2ac 2ab'
loop_
_symmetry_equiv_pos_site_id
_symmetry_equiv_pos_as_xyz
1 x,y,z
2 1/2-x,-y,1/2+z
3 -x,1/2+y,1/2-z
4 1/2+x,1/2-y,-z
_cell_length_a                   7.9245(2)
_cell_length_b                   21.7051(5)
_cell_length_c                   22.8134(5)
_cell_angle_alpha                90
_cell_angle_beta                 90
_cell_angle_gamma                90
_cell_volume                     3923.95
loop_
_atom_site_label
_atom_site_type_symbol
_atom_site_fract_x
_atom_site_fract_y
_atom_site_fract_z
Co1 Co 0.72244(11) 0.50638(5) 0.98492(4)
Co2 Co 1.69707(13) 0.22248(6) 0.75735(5)
S1 S 0.3044(3) 0.36061(11) 1.04968(12)
S2 S 2.0888(6) 0.3757(2) 0.72905(16)
S3 S 1.1421(3) 0.63571(12) 0.89090(10)
S4 S 1.9974(3) 0.04166(18) 0.78237(18)
N1 N 1.5164(8) 0.2278(4) 0.8190(3)
N2 N 1.0726(9) 0.2531(3) 0.9131(3)
H1 H 1.023(9) 0.2168(19) 0.909(3)
N3 N 0.8455(7) 0.4207(3) 0.9616(2)
N4 N 0.6024(7) 0.5921(3) 1.0081(3)
N5 N 0.3715(8) 0.7490(3) 1.0815(3)
H2 H 0.4276 0.7837 1.0770
N6 N -0.0573(8) 0.7694(4) 1.1858(3)
N7 N 0.5961(6) 0.5045(3) 0.8987(2)
N8 N 0.3962(7) 0.4829(4) 0.7301(3)
H3 H 0.287(3) 0.491(4) 0.731(3)
N9 N 0.6494(7) 0.4914(3) 0.5685(2)
N10 N 0.9299(8) 0.5549(3) 0.9507(3)
N11 N 0.5209(8) 0.4570(3) 1.0222(3)
N12 N 1.8452(10) 0.2927(4) 0.7577(4)
N13 N 1.8002(10) 0.1444(4) 0.7636(3)
C1 C 1.3997(12) 0.1836(5) 0.8223(4)
H4 H 1.4220 0.1459 0.8026
C2 C 1.2493(11) 0.1886(4) 0.8523(3)
H5 H 1.1687 0.1562 0.8527
C3 C 1.2216(10) 0.2452(4) 0.8826(3)
C4 C 1.3462(10) 0.2899(4) 0.8809(3)
H6 H 1.3341 0.3273 0.9021
C5 C 1.4861(11) 0.2789(5) 0.8482(4)
H7 H 1.5686 0.3106 0.8463
C6 C 0.9431(10) 0.4146(4) 0.9130(3)
H8 H 0.9600 0.4506 0.8900
C7 C 1.0190(10) 0.3622(4) 0.8941(4)
H9 H 1.0827 0.3615 0.8589
C8 C 1.0000(9) 0.3095(4) 0.9282(3)
C9 C 0.8950(9) 0.3134(4) 0.9768(3)
H10 H 0.8728 0.2778 0.9997
C10 C 0.8250(9) 0.3675(4) 0.9915(3)
H11 H 0.7558 0.3684 1.0255
C11 C 0.6909(10) 0.6408(4) 1.0275(3)
H12 H 0.8104 0.6396 1.0243
C12 C 0.6186(10) 0.6920(4) 1.0517(3)
H13 H 0.6877 0.7248 1.0653
C13 C 0.4435(10) 0.6962(4) 1.0565(3)
C14 C 0.3538(11) 0.6476(4) 1.0330(4)
H14 H 0.2340 0.6489 1.0330
C15 C 0.4360(10) 0.5969(4) 1.0094(4)
H15 H 0.3702 0.5644 0.9935
C16 C 0.0310(10) 0.8176(4) 1.1639(3)
H16 H -0.0047 0.8580 1.1738
C17 C 0.1659(9) 0.8114(4) 1.1290(3)
H17 H 0.2243 0.8469 1.1154
C18 C 0.2204(11) 0.7526(4) 1.1128(3)
C19 C 0.1268(11) 0.7033(4) 1.1330(4)
H18 H 0.1571 0.6624 1.1224
C20 C -0.0092(12) 0.7135(5) 1.1683(4)
H19 H -0.0730 0.6790 1.1811
C21 C 0.4854(9) 0.5064(4) 0.5748(3)
H20 H 0.4260 0.5194 0.5408
C22 C 0.3991(9) 0.5044(4) 0.6259(3)
H21 H 0.2839 0.5164 0.6272
C23 C 0.4817(8) 0.4843(4) 0.6772(3)
C24 C 0.6493(9) 0.4671(4) 0.6714(3)
H22 H 0.7102 0.4514 0.7040
C25 C 0.7255(9) 0.4729(3) 0.6180(3)
H23 H 0.8421 0.4631 0.6157
C26 C 0.4431(9) 0.4811(4) 0.8876(3)
H24 H 0.3776 0.4683 0.9202
C27 C 0.3730(10) 0.4740(4) 0.8332(3)
H25 H 0.2634 0.4568 0.8290
C28 C 0.4634(9) 0.4922(4) 0.7844(3)
C29 C 0.6197(9) 0.5176(4) 0.7943(3)
H26 H 0.6863 0.5312 0.7622
C30 C 0.6785(9) 0.5234(3) 0.8494(3)
H27 H 0.7860 0.5421 0.8543
C31 C 1.0209(9) 0.5889(4) 0.9264(3)
C32 C 0.4329(9) 0.4177(4) 1.0336(3)
C33 C 1.9444(13) 0.3275(5) 0.7456(4)
C34 C 1.8839(11) 0.1018(5) 0.7716(4)
Co1A Co 0.77756(11) 0.49362(5) 0.48492(4)
Co2A Co -0.19707(13) 0.77752(6) 1.25735(5)
N6A N 1.5573(8) 0.2306(4) 0.6858(3)
N9A N 0.8506(7) 0.5086(3) 1.0685(2)
loop_
_geom_bond_atom_site_label_1
_geom_bond_atom_site_label_2
_geom_bond_site_symmetry_1
_geom_bond_site_symmetry_2
Co1 N3 1_555 1_555
Co2 N1 1_555 1_555
S1 C32 1_555 1_555
S2 C33 1_555 1_555
S3 C31 1_555 1_555
S4 C34 1_555 1_555
N1 C1 1_555 1_555
N2 H1 1_555 1_555
N3 C6 1_555 1_555
N4 Co1 1_555 1_555
N5 H2 1_555 1_555
N6 C16 1_555 1_555
N7 Co1 1_555 1_555
N8 H3 1_555 1_555
N9 C21 1_555 1_555
N10 Co1 1_555 1_555
N11 Co1 1_555 1_555
N12 Co2 1_555 1_555
N13 Co2 1_555 1_555
C1 H4 1_555 1_555
C2 C1 1_555 1_555
H5 C2 1_555 1_555
C3 N2 1_555 1_555
C4 C3 1_555 1_555
H6 C4 1_555 1_555
C5 N1 1_555 1_555
H7 C5 1_555 1_555
C6 H8 1_555 1_555
C7 C6 1_555 1_555
H9 C7 1_555 1_555
C8 N2 1_555 1_555
C9 C8 1_555 1_555
H10 C9 1_555 1_555
C10 N3 1_555 1_555
H11 C10 1_555 1_555
C11 N4 1_555 1_555
H12 C11 1_555 1_555
C12 C11 1_555 1_555
H13 C12 1_555 1_555
C13 N5 1_555 1_555
C14 C13 1_555 1_555
H14 C14 1_555 1_555
C15 N4 1_555 1_555
H15 C15 1_555 1_555
C16 H16 1_555 1_555
C17 C16 1_555 1_555
H17 C17 1_555 1_555
C18 N5 1_555 1_555
C19 C18 1_555 1_555
H18 C19 1_555 1_555
C20 N6 1_555 1_555
H19 C20 1_555 1_555
C21 H20 1_555 1_555
C22 C21 1_555 1_555
H21 C22 1_555 1_555
C23 N8 1_555 1_555
C24 C23 1_555 1_555
H22 C24 1_555 1_555
C25 N9 1_555 1_555
H23 C25 1_555 1_555
C26 N7 1_555 1_555
H24 C26 1_555 1_555
C27 C26 1_555 1_555
H25 C27 1_555 1_555
C28 N8 1_555 1_555
C29 C28 1_555 1_555
H26 C29 1_555 1_555
C30 N7 1_555 1_555
H27 C30 1_555 1_555
C31 N10 1_555 1_555
C32 N11 1_555 1_555
C33 N12 1_555 1_555
C34 N13 1_555 1_555
Co1A N9 1_555 1_555
Co2A N6 1_555 1_555
N6A Co2 1_555 1_555
N9A Co1 1_555 1_555
C2 C3 1_555 1_555
C4 C5 1_555 1_555
C7 C8 1_555 1_555
C9 C10 1_555 1_555
C12 C13 1_555 1_555
C14 C15 1_555 1_555
C17 C18 1_555 1_555
C19 C20 1_555 1_555
C22 C23 1_555 1_555
C24 C25 1_555 1_555
C27 C28 1_555 1_555
C29 C30 1_555 1_555

#END
