
#######################################################################
#
#                 Cambridge Crystallographic Data Centre
#                                CCDC 
#
#######################################################################
#
# If this CIF has been generated from an entry in the Cambridge 
# Structural Database, then it will include bibliographic, chemical, 
# crystal, experimental, refinement or atomic coordinate data resulting 
# from the CCDC's data processing and validation procedures.
#
#######################################################################

data_GIMXEG
_symmetry_cell_setting           monoclinic
_symmetry_space_group_name_H-M   'C 2/c'
_symmetry_Int_Tables_number      15
_space_group_name_Hall           '-C 2yn'
loop_
_symmetry_equiv_pos_site_id
_symmetry_equiv_pos_as_xyz
1 x,y,z
2 1/2+x,1/2+y,z
3 -x,y,1/2-z
4 1/2-x,1/2+y,1/2-z
5 -x,-y,-z
6 1/2-x,1/2-y,-z
7 x,-y,1/2+z
8 1/2+x,1/2-y,1/2+z
_cell_length_a                   21.214(4)
_cell_length_b                   10.506(2)
_cell_length_c                   19.775(4)
_cell_angle_alpha                90
_cell_angle_beta                 120.02(3)
_cell_angle_gamma                90
_cell_volume                     3816.1
loop_
_atom_site_label
_atom_site_type_symbol
_atom_site_fract_x
_atom_site_fract_y
_atom_site_fract_z
Cd1 Cd 0.097015(14) -0.03739(2) 0.521545(15)
O1 O -0.02629(17) -0.0381(3) 0.41531(19)
O2 O -0.13086(19) -0.1237(3) 0.3821(2)
O3 O -0.13576(18) -0.2592(2) 0.26273(15)
O4 O -0.15814(16) -0.8245(3) 0.36198(18)
O5 O -0.06814(15) -0.7552(3) 0.47229(16)
N1 N 0.21148(16) -0.0571(3) 0.52675(18)
N2 N 0.10454(16) 0.1131(3) 0.43895(18)
C1 C -0.0786(2) -0.1073(4) 0.3711(2)
C2 C -0.0826(3) -0.1625(4) 0.2984(3)
H1 H -0.0348 -0.1966 0.3116
C3 C -0.1034(3) -0.0580(4) 0.2384(3)
H2 H -0.1508 -0.0259 0.2243
H3 H -0.0684 0.0097 0.2598
H4 H -0.1042 -0.0914 0.1928
C4 C -0.1260(2) -0.3743(3) 0.2996(2)
C5 C -0.0629(2) -0.4110(4) 0.3660(2)
H5 H -0.0230 -0.3566 0.3892
C6 C -0.0600(2) -0.5306(4) 0.3976(2)
H6 H -0.0175 -0.5557 0.4422
C7 C -0.11833(19) -0.6129(3) 0.3644(2)
C8 C -0.1815(2) -0.5746(3) 0.2974(2)
H7 H -0.2212 -0.6294 0.2738
C9 C -0.1856(2) -0.4556(4) 0.2657(2)
H8 H -0.2284 -0.4299 0.2217
C10 C -0.1149(2) -0.7393(3) 0.4014(2)
C11 C 0.0535(2) 0.1983(4) 0.3986(2)
H9 H 0.0109 0.1962 0.4012
C12 C 0.0604(2) 0.2910(4) 0.3524(2)
H10 H 0.0231 0.3492 0.3248
C13 C 0.1224(2) 0.2952(4) 0.3481(2)
H11 H 0.1277 0.3561 0.3171
C14 C 0.1783(2) 0.2079(4) 0.3904(2)
C15 C 0.2456(2) 0.2076(4) 0.3900(3)
H12 H 0.2531 0.2669 0.3598
C16 C 0.2979(2) 0.1233(4) 0.4325(2)
H13 H 0.3411 0.1256 0.4313
C17 C 0.2891(2) 0.0296(4) 0.4796(2)
C18 C 0.3425(2) -0.0587(4) 0.5262(3)
H14 H 0.3862 -0.0611 0.5260
C19 C 0.3310(2) -0.1409(4) 0.5718(3)
H15 H 0.3669 -0.1986 0.6036
C20 C 0.2645(2) -0.1377(4) 0.5704(2)
H16 H 0.2571 -0.1949 0.6016
C21 C 0.22354(18) 0.0268(3) 0.4822(2)
C22 C 0.16690(19) 0.1176(3) 0.4360(2)
Cd1D Cd -0.097015(14) 0.03739(2) 0.478455(15)
Cd1D_2 Cd -0.097015(14) -0.96261(2) 0.478455(15)
O2D O 0.13086(19) 0.1237(3) 0.6179(2)
O4D O 0.15814(16) -0.1755(3) 0.63802(18)
O5D O 0.06814(15) -0.2448(3) 0.52771(16)
loop_
_geom_bond_atom_site_label_1
_geom_bond_atom_site_label_2
_geom_bond_site_symmetry_1
_geom_bond_site_symmetry_2
Cd1 O1 1_555 1_555
O1 C1 1_555 1_555
O2 C1 1_555 1_555
O3 C2 1_555 1_555
O4 C10 1_555 1_555
O5 C10 1_555 1_555
N1 Cd1 1_555 1_555
N2 Cd1 1_555 1_555
C1 C2 1_555 1_555
C2 H1 1_555 1_555
C3 C2 1_555 1_555
H2 C3 1_555 1_555
H3 C3 1_555 1_555
H4 C3 1_555 1_555
C4 O3 1_555 1_555
C5 C4 1_555 1_555
H5 C5 1_555 1_555
C6 C5 1_555 1_555
H6 C6 1_555 1_555
C7 C6 1_555 1_555
C8 C7 1_555 1_555
H7 C8 1_555 1_555
C9 C4 1_555 1_555
H8 C9 1_555 1_555
C10 C7 1_555 1_555
C11 N2 1_555 1_555
H9 C11 1_555 1_555
C12 C11 1_555 1_555
H10 C12 1_555 1_555
C13 C12 1_555 1_555
H11 C13 1_555 1_555
C14 C13 1_555 1_555
C15 C14 1_555 1_555
H12 C15 1_555 1_555
C16 C15 1_555 1_555
H13 C16 1_555 1_555
C17 C16 1_555 1_555
C18 C17 1_555 1_555
H14 C18 1_555 1_555
C19 C18 1_555 1_555
H15 C19 1_555 1_555
C20 N1 1_555 1_555
H16 C20 1_555 1_555
C21 N1 1_555 1_555
C22 N2 1_555 1_555
Cd1D O2 1_555 1_555
Cd1D_2 O4 1_555 1_555
O2D Cd1 1_555 1_555
O4D Cd1 1_555 1_555
O5D Cd1 1_555 1_555
O5 Cd1D_2 1_555 1_555
C8 C9 1_555 1_555
C14 C22 1_555 1_555
C17 C21 1_555 1_555
C19 C20 1_555 1_555
C21 C22 1_555 1_555

#END
