
#######################################################################
#
#                 Cambridge Crystallographic Data Centre
#                                CCDC 
#
#######################################################################
#
# If this CIF has been generated from an entry in the Cambridge 
# Structural Database, then it will include bibliographic, chemical, 
# crystal, experimental, refinement or atomic coordinate data resulting 
# from the CCDC's data processing and validation procedures.
#
#######################################################################

data_GIMXUX
_symmetry_cell_setting           triclinic
_symmetry_space_group_name_H-M   'P -1'
_symmetry_Int_Tables_number      2
_space_group_name_Hall           '-P 1'
loop_
_symmetry_equiv_pos_site_id
_symmetry_equiv_pos_as_xyz
1 x,y,z
2 -x,-y,-z
_cell_length_a                   5.2480(11)
_cell_length_b                   12.537(2)
_cell_length_c                   14.597(2)
_cell_angle_alpha                91.911(13)
_cell_angle_beta                 91.219(15)
_cell_angle_gamma                95.749(14)
_cell_volume                     954.743
loop_
_atom_site_label
_atom_site_type_symbol
_atom_site_fract_x
_atom_site_fract_y
_atom_site_fract_z
Zn1 Zn 0.59428(6) 0.97793(2) 0.85091(2)
C1 C -0.2351(5) 0.46895(19) 0.85284(17)
C2 C -0.0375(6) 0.4492(2) 0.70388(18)
C3 C -0.4194(6) 0.3308(2) 0.74131(17)
C4 C 0.1591(5) 0.5811(2) 0.8188(2)
H1 H 0.3087 0.5718 0.7826
H2 H 0.2051 0.5718 0.8825
C5 C 0.0854(5) 0.6943(2) 0.8080(2)
H3 H 0.0001 0.6987 0.7489
H4 H -0.0341 0.7102 0.8551
C6 C 0.3181(5) 0.7768(2) 0.81521(16)
C7 C -0.2231(6) 0.3141(2) 0.59164(18)
H5 H -0.2953 0.2400 0.5940
H6 H -0.0479 0.3148 0.5716
C8 C -0.3765(7) 0.3720(2) 0.52396(19)
H7 H -0.5507 0.3727 0.5447
H8 H -0.3020 0.4457 0.5206
C9 C -0.3794(6) 0.3177(2) 0.43039(18)
C10 C -0.6010(6) 0.3463(2) 0.89420(18)
H9 H -0.7458 0.3048 0.8633
H10 H -0.6642 0.4071 0.9261
C11 C -0.4813(6) 0.2769(2) 0.96358(18)
H11 H -0.3326 0.3176 0.9927
H12 H -0.6037 0.2585 1.0108
C12 C -0.4013(6) 0.1752(2) 0.91951(18)
C13 C 0.6208(6) 0.9386(2) 0.65207(19)
H13 H 0.4666 0.8977 0.6620
C14 C 0.7186(6) 0.9379(2) 0.56493(19)
H14 H 0.6321 0.8956 0.5183
C15 C 0.9443(5) 0.9996(2) 0.54648(17)
C16 C 1.0619(6) 1.0606(2) 0.6207(2)
H15 H 1.2123 1.1047 0.6122
C17 C 0.9566(6) 1.0559(2) 0.7060(2)
H16 H 1.0405 1.0964 0.7542
N1 N -0.0486(4) 0.49806(16) 0.78986(14)
N2 N -0.2252(5) 0.36598(17) 0.68366(14)
N3 N -0.4159(4) 0.38541(16) 0.82568(14)
N4 N 0.7383(4) 0.99547(17) 0.72294(15)
O1 O 0.2845(4) 0.87048(14) 0.84833(14)
O2 O 0.5275(3) 0.75463(15) 0.78766(12)
O3 O -0.5629(4) 0.34643(18) 0.37495(14)
O4 O -0.2320(5) 0.25484(18) 0.40869(14)
O5 O -0.1858(5) 0.1734(2) 0.88860(19)
O6 O -0.5681(4) 0.09292(14) 0.91452(14)
O7 O -0.2388(4) 0.51426(16) 0.92665(13)
O8 O 0.1260(5) 0.47676(18) 0.65036(15)
O9 O -0.5787(5) 0.25817(17) 0.71979(14)
O10 O 0.8583(4) 0.92313(18) 0.92901(14)
H17 H 1.0017 0.9113 0.9068
H18 H 0.8289 0.9111 0.9850
C13A C 1.3792(6) 1.0614(2) 0.34793(19)
H13A H 1.5334 1.1023 0.3380
C14A C 1.2814(6) 1.0621(2) 0.43507(19)
H14A H 1.3679 1.1044 0.4817
C15A C 1.0557(5) 1.0004(2) 0.45352(17)
C16A C 0.9381(6) 0.9394(2) 0.3793(2)
H15A H 0.7877 0.8953 0.3878
C17A C 1.0434(6) 0.9441(2) 0.2940(2)
H16A H 0.9595 0.9036 0.2458
N4A N 1.2617(4) 1.00453(17) 0.27706(15)
Zn1A Zn 1.40572(6) 1.02207(2) 0.14909(2)
C1A C 2.2351(5) 1.53105(19) 0.14716(17)
C2A C 2.0375(6) 1.5508(2) 0.29612(18)
C3A C 2.4194(6) 1.6692(2) 0.25869(17)
C4A C 1.8409(5) 1.4189(2) 0.1812(2)
H1A H 1.6913 1.4282 0.2174
H2A H 1.7949 1.4282 0.1175
C5A C 1.9146(5) 1.3057(2) 0.1920(2)
H3A H 1.9999 1.3013 0.2511
H4A H 2.0341 1.2898 0.1449
C6A C 1.6819(5) 1.2232(2) 0.18479(16)
C7A C 2.2231(6) 1.6859(2) 0.40836(18)
H5A H 2.2953 1.7600 0.4060
H6A H 2.0479 1.6852 0.4284
C8A C 2.3765(7) 1.6280(2) 0.47604(19)
H7A H 2.5507 1.6273 0.4553
H8A H 2.3020 1.5543 0.4794
C9A C 2.3794(6) 1.6823(2) 0.56961(18)
C10A C 2.6010(6) 1.6537(2) 0.10580(18)
H9A H 2.7458 1.6952 0.1367
H10A H 2.6642 1.5929 0.0739
C11A C 2.4813(6) 1.7231(2) 0.03642(18)
H11A H 2.3326 1.6824 0.0073
H12A H 2.6037 1.7415 -0.0108
C12A C 2.4013(6) 1.8248(2) 0.08049(18)
N1A N 2.0486(4) 1.50194(16) 0.21014(14)
N2A N 2.2252(5) 1.63402(17) 0.31634(14)
N3A N 2.4159(4) 1.61459(16) 0.17432(14)
O1A O 1.7155(4) 1.12952(14) 0.15167(14)
O2A O 1.4725(3) 1.24537(15) 0.21234(12)
O3A O 2.5629(4) 1.65357(18) 0.62505(14)
O4A O 2.2320(5) 1.74516(18) 0.59131(14)
O5A O 2.1858(5) 1.8266(2) 0.11140(19)
O6A O 2.5681(4) 1.90708(14) 0.08548(14)
O7A O 2.2388(4) 1.48574(16) 0.07335(13)
O8A O 1.8740(5) 1.52324(18) 0.34964(15)
O9A O 2.5787(5) 1.74183(17) 0.28021(14)
O10A O 1.1417(4) 1.07687(18) 0.07099(14)
H17A H 0.9983 1.0887 0.0932
H18A H 1.1711 1.0889 0.0150
Zn1_2 Zn -0.40572(6) -0.02207(2) 0.85091(2)
Zn1A_2 Zn 2.40572(6) 2.02207(2) 0.14909(2)
O6_2 O 0.4319(4) 1.09292(14) 0.91452(14)
O6A_2 O 1.5681(4) 0.90708(14) 0.08548(14)
loop_
_geom_bond_atom_site_label_1
_geom_bond_atom_site_label_2
_geom_bond_site_symmetry_1
_geom_bond_site_symmetry_2
Zn1 N4 1_555 1_555
C1 N1 1_555 1_555
C2 N1 1_555 1_555
C3 N2 1_555 1_555
C4 H1 1_555 1_555
H2 C4 1_555 1_555
C5 C4 1_555 1_555
H3 C5 1_555 1_555
H4 C5 1_555 1_555
C6 C5 1_555 1_555
C7 H5 1_555 1_555
H6 C7 1_555 1_555
C8 C7 1_555 1_555
H7 C8 1_555 1_555
H8 C8 1_555 1_555
C9 C8 1_555 1_555
C10 H9 1_555 1_555
H10 C10 1_555 1_555
C11 C10 1_555 1_555
H11 C11 1_555 1_555
H12 C11 1_555 1_555
C12 C11 1_555 1_555
C13 H13 1_555 1_555
C14 C13 1_555 1_555
H14 C14 1_555 1_555
C15 C14 1_555 1_555
C16 C15 1_555 1_555
H15 C16 1_555 1_555
C17 C16 1_555 1_555
H16 C17 1_555 1_555
N1 C4 1_555 1_555
N2 C2 1_555 1_555
N3 C1 1_555 1_555
N4 C13 1_555 1_555
O1 Zn1 1_555 1_555
O2 C6 1_555 1_555
O3 C9 1_555 1_555
O4 C9 1_555 1_555
O5 C12 1_555 1_555
O6 C12 1_555 1_555
O7 C1 1_555 1_555
O8 C2 1_555 1_555
O9 C3 1_555 1_555
O10 Zn1 1_555 1_555
H17 O10 1_555 1_555
H18 O10 1_555 1_555
C13A H13A 1_555 1_555
C14A C13A 1_555 1_555
H14A C14A 1_555 1_555
C15A C15 1_555 1_555
C16A C15A 1_555 1_555
H15A C16A 1_555 1_555
C17A C16A 1_555 1_555
H16A C17A 1_555 1_555
N4A C13A 1_555 1_555
Zn1A N4A 1_555 1_555
C1A N1A 1_555 1_555
C2A N1A 1_555 1_555
C3A N2A 1_555 1_555
C4A H1A 1_555 1_555
H2A C4A 1_555 1_555
C5A C4A 1_555 1_555
H3A C5A 1_555 1_555
H4A C5A 1_555 1_555
C6A C5A 1_555 1_555
C7A H5A 1_555 1_555
H6A C7A 1_555 1_555
C8A C7A 1_555 1_555
H7A C8A 1_555 1_555
H8A C8A 1_555 1_555
C9A C8A 1_555 1_555
C10A H9A 1_555 1_555
H10A C10A 1_555 1_555
C11A C10A 1_555 1_555
H11A C11A 1_555 1_555
H12A C11A 1_555 1_555
C12A C11A 1_555 1_555
N1A C4A 1_555 1_555
N2A C2A 1_555 1_555
N3A C1A 1_555 1_555
O1A Zn1A 1_555 1_555
O2A C6A 1_555 1_555
O3A C9A 1_555 1_555
O4A C9A 1_555 1_555
O5A C12A 1_555 1_555
O6A C12A 1_555 1_555
O7A C1A 1_555 1_555
O8A C2A 1_555 1_555
O9A C3A 1_555 1_555
O10A Zn1A 1_555 1_555
H17A O10A 1_555 1_555
H18A O10A 1_555 1_555
Zn1_2 O6 1_555 1_555
Zn1A_2 O6A 1_555 1_555
O6_2 Zn1 1_555 1_555
O6A_2 Zn1A 1_555 1_555
C3 N3 1_555 1_555
C6 O1 1_555 1_555
C7 N2 1_555 1_555
C10 N3 1_555 1_555
C17 N4 1_555 1_555
C14A C15A 1_555 1_555
C17A N4A 1_555 1_555
C3A N3A 1_555 1_555
C6A O1A 1_555 1_555
C7A N2A 1_555 1_555
C10A N3A 1_555 1_555

#END
