
#######################################################################
#
#                 Cambridge Crystallographic Data Centre
#                                CCDC 
#
#######################################################################
#
# If this CIF has been generated from an entry in the Cambridge 
# Structural Database, then it will include bibliographic, chemical, 
# crystal, experimental, refinement or atomic coordinate data resulting 
# from the CCDC's data processing and validation procedures.
#
#######################################################################

data_GIMXIL
_symmetry_cell_setting           triclinic
_symmetry_space_group_name_H-M   'P -1'
_symmetry_Int_Tables_number      2
_space_group_name_Hall           '-P 1'
loop_
_symmetry_equiv_pos_site_id
_symmetry_equiv_pos_as_xyz
1 x,y,z
2 -x,-y,-z
_cell_length_a                   10.4289(17)
_cell_length_b                   12.5198(9)
_cell_length_c                   12.6130(9)
_cell_angle_alpha                118.4260(10)
_cell_angle_beta                 95.1990(10)
_cell_angle_gamma                94.3820(10)
_cell_volume                     1428.84
loop_
_atom_site_label
_atom_site_type_symbol
_atom_site_fract_x
_atom_site_fract_y
_atom_site_fract_z
Cd1 Cd 0.76328(2) 0.829656(18) 0.70543(2)
N1 N 0.8816(3) 0.4607(2) 0.5721(2)
C1 C 0.5923(3) -0.1088(3) 0.0416(3)
N2 N 0.6542(3) 0.0064(2) 0.0710(3)
C2 C 0.7175(3) -0.0099(3) -0.0225(3)
H1 H 0.7666 0.0538 -0.0250
N3 N 0.8441(3) 0.6535(2) 0.6704(3)
C3 C 0.9662(3) 0.5166(3) 0.6816(3)
C4 C 0.8125(3) 0.5463(3) 0.5714(3)
H2 H 0.7489 0.5315 0.5076
N4 N 0.7036(3) -0.1239(2) -0.1098(3)
C5 C 0.4435(4) 0.7649(3) 0.4433(3)
C6 C 0.8701(4) 0.3304(3) 0.4804(3)
H3 H 0.8495 0.2808 0.5183
H4 H 0.9531 0.3128 0.4514
C7 C 0.9406(3) 0.6379(3) 0.7428(3)
O1 O 0.5841(3) 0.8884(3) 0.6295(3)
C8 C 0.9597(4) 1.0018(3) 0.7359(4)
C9 C 0.6237(3) -0.1886(3) -0.0713(3)
O2 O 0.6129(3) 0.6986(3) 0.5255(3)
C10 C 1.0097(4) 0.7195(3) 0.8576(3)
H5 H 0.9941 0.8005 0.8997
O3 O 0.9245(3) 0.9041(3) 0.6378(3)
C11 C 0.4030(4) 0.6486(4) 0.3458(4)
H6 H 0.4447 0.5831 0.3393
C12 C 0.7666(3) 0.2953(3) 0.3732(3)
H7 H 0.7860 0.3454 0.3355
H8 H 0.6829 0.3106 0.4013
C13 C 1.0686(4) 1.0904(3) 0.7401(3)
C14 C 0.3816(4) 0.8621(4) 0.4510(4)
H9 H 0.4086 0.9405 0.5161
C15 C 1.0587(4) 0.4717(3) 0.7300(4)
H10 H 1.0751 0.3909 0.6886
O4 O 0.9071(4) 1.0264(3) 0.8273(3)
C16 C 0.5529(4) 0.7846(4) 0.5388(3)
C17 C 0.5092(4) -0.1454(4) 0.1021(4)
H11 H 0.4877 -0.0910 0.1775
C18 C 0.6499(4) 0.1246(3) 0.1781(3)
H12 H 0.5683 0.1216 0.2085
H13 H 0.6517 0.1874 0.1539
C19 C 1.1211(4) 1.0683(4) 0.6366(4)
H14 H 1.0908 0.9971 0.5637
C20 C 0.2381(5) 0.7281(5) 0.2673(4)
H15 H 0.1684 0.7157 0.2093
C21 C 0.5738(4) -0.3129(3) -0.1304(4)
H16 H 0.5946 -0.3677 -0.2060
C22 C 1.2189(5) 1.1518(5) 0.6407(5)
H17 H 1.2528 1.1375 0.5702
C23 C 0.4927(5) -0.3500(4) -0.0708(5)
H18 H 0.4581 -0.4323 -0.1073
C24 C 1.1157(4) 1.1961(4) 0.8483(4)
H19 H 1.0804 1.2126 0.9188
C25 C 0.2999(5) 0.6292(5) 0.2571(4)
H20 H 0.2726 0.5511 0.1918
C26 C 1.1010(5) 0.6758(4) 0.9059(4)
H21 H 1.1483 0.7285 0.9822
C27 C 1.2661(4) 1.2558(4) 0.7487(5)
H22 H 1.3326 1.3112 0.7512
C28 C 1.2163(4) 1.2778(4) 0.8510(5)
H23 H 1.2492 1.3480 0.9240
C29 C 0.7602(3) 0.1603(3) 0.2797(3)
H24 H 0.8416 0.1460 0.2467
H25 H 0.7472 0.1104 0.3185
C30 C 1.1253(5) 0.5553(4) 0.8445(4)
H26 H 1.1880 0.5295 0.8811
C31 C 0.4605(5) -0.2699(4) 0.0412(5)
H27 H 0.4045 -0.2998 0.0772
C32 C 0.2802(5) 0.8436(5) 0.3628(5)
H28 H 0.2404 0.9096 0.3683
Cd1_2 Cd 0.76328(2) -0.170344(18) -0.29457(2)
N4_2 N 0.7036(3) 0.8761(2) 0.8902(3)
loop_
_geom_bond_atom_site_label_1
_geom_bond_atom_site_label_2
_geom_bond_site_symmetry_1
_geom_bond_site_symmetry_2
Cd1 N3 1_555 1_555
N1 C3 1_555 1_555
C1 N2 1_555 1_555
N2 C2 1_555 1_555
C2 H1 1_555 1_555
N3 C4 1_555 1_555
C3 C7 1_555 1_555
C4 N1 1_555 1_555
H2 C4 1_555 1_555
N4 C2 1_555 1_555
C5 C11 1_555 1_555
C6 N1 1_555 1_555
H3 C6 1_555 1_555
H4 C6 1_555 1_555
C7 N3 1_555 1_555
O1 Cd1 1_555 1_555
C8 O3 1_555 1_555
C9 C1 1_555 1_555
O2 Cd1 1_555 1_555
C10 C7 1_555 1_555
H5 C10 1_555 1_555
O3 Cd1 1_555 1_555
C11 H6 1_555 1_555
C12 C6 1_555 1_555
H7 C12 1_555 1_555
H8 C12 1_555 1_555
C13 C8 1_555 1_555
C14 C5 1_555 1_555
H9 C14 1_555 1_555
C15 C3 1_555 1_555
H10 C15 1_555 1_555
O4 Cd1 1_555 1_555
C16 C5 1_555 1_555
C17 C1 1_555 1_555
H11 C17 1_555 1_555
C18 N2 1_555 1_555
H12 C18 1_555 1_555
H13 C18 1_555 1_555
C19 C13 1_555 1_555
H14 C19 1_555 1_555
C20 H15 1_555 1_555
C21 C9 1_555 1_555
H16 C21 1_555 1_555
C22 C19 1_555 1_555
H17 C22 1_555 1_555
C23 C21 1_555 1_555
H18 C23 1_555 1_555
C24 C13 1_555 1_555
H19 C24 1_555 1_555
C25 C11 1_555 1_555
H20 C25 1_555 1_555
C26 C10 1_555 1_555
H21 C26 1_555 1_555
C27 C22 1_555 1_555
H22 C27 1_555 1_555
C28 C24 1_555 1_555
H23 C28 1_555 1_555
C29 C12 1_555 1_555
H24 C29 1_555 1_555
H25 C29 1_555 1_555
C30 C15 1_555 1_555
H26 C30 1_555 1_555
C31 C17 1_555 1_555
H27 C31 1_555 1_555
C32 C14 1_555 1_555
H28 C32 1_555 1_555
Cd1_2 N4 1_555 1_555
N4_2 Cd1 1_555 1_555
N4 C9 1_555 1_555
O1 C16 1_555 1_555
C8 O4 1_555 1_555
O2 C16 1_555 1_555
C18 C29 1_555 1_555
C20 C25 1_555 1_555
C20 C32 1_555 1_555
C23 C31 1_555 1_555
C26 C30 1_555 1_555
C27 C28 1_555 1_555

#END
