
#######################################################################
#
#                 Cambridge Crystallographic Data Centre
#                                CCDC 
#
#######################################################################
#
# If this CIF has been generated from an entry in the Cambridge 
# Structural Database, then it will include bibliographic, chemical, 
# crystal, experimental, refinement or atomic coordinate data resulting 
# from the CCDC's data processing and validation procedures.
#
#######################################################################

data_GIMXOQ
_symmetry_cell_setting           monoclinic
_symmetry_space_group_name_H-M   'P 21'
_symmetry_Int_Tables_number      4
_space_group_name_Hall           'P 2yb'
loop_
_symmetry_equiv_pos_site_id
_symmetry_equiv_pos_as_xyz
1 x,y,z
2 -x,1/2+y,-z
_cell_length_a                   7.063(3)
_cell_length_b                   14.602(5)
_cell_length_c                   14.526(5)
_cell_angle_alpha                90
_cell_angle_beta                 94.922(5)
_cell_angle_gamma                90
_cell_volume                     1492.6
loop_
_atom_site_label
_atom_site_type_symbol
_atom_site_fract_x
_atom_site_fract_y
_atom_site_fract_z
C1 C 0.8600(7) -0.3121(4) 0.8347(4)
C2 C 0.8383(7) -0.3959(3) 0.8940(4)
C3 C 0.6962(7) -0.3962(4) 0.9510(4)
H1 H 0.6189 -0.3448 0.9524
C4 C 0.6608(8) -0.4704(4) 1.0076(4)
H2 H 0.5589 -0.4686 1.0441
C5 C 0.7767(7) -0.5462(3) 1.0094(4)
C6 C 0.9682(7) -0.4729(3) 0.8950(3)
C7 C 1.1281(7) -0.4789(3) 0.8432(4)
H3 H 1.1488 -0.4335 0.8004
C8 C 1.2530(8) -0.5502(3) 0.8549(5)
H4 H 1.3593 -0.5514 0.8213
C9 C 1.2242(8) -0.6206(4) 0.9159(4)
H5 H 1.3119 -0.6681 0.9238
C10 C 1.0669(8) -0.6206(3) 0.9645(4)
H6 H 1.0460 -0.6695 1.0033
C11 C 0.3703(7) -0.1061(3) 0.6647(4)
C12 C 0.3748(6) -0.0248(3) 0.6024(3)
C13 C 0.4044(6) -0.0375(3) 0.5120(4)
H7 H 0.4243 -0.0962 0.4900
C14 C 0.4051(7) 0.0378(3) 0.4518(4)
H8 H 0.4309 0.0285 0.3908
C15 C 0.3689(6) 0.1242(3) 0.4810(4)
C16 C 0.3402(6) 0.1398(3) 0.5757(3)
C17 C 0.3427(6) 0.0644(3) 0.6368(4)
C18 C 0.3107(7) 0.0790(3) 0.7304(4)
H9 H 0.3109 0.0291 0.7702
C19 C 0.3103(7) 0.2291(3) 0.6133(4)
H10 H 0.3100 0.2802 0.5751
C20 C 0.2826(8) 0.2399(4) 0.7039(4)
H11 H 0.2652 0.2985 0.7268
C21 C 0.7904(8) 0.2644(4) 0.6450(6)
H12 H 0.7716 0.3260 0.6578
C22 C 0.8171(8) 0.2400(4) 0.5597(5)
H13 H 0.8174 0.2846 0.5140
C23 C 0.8455(7) 0.1461(4) 0.5359(5)
C24 C 0.8780(7) 0.1184(4) 0.4484(4)
H14 H 0.8808 0.1618 0.4017
C25 C 0.8420(6) 0.0786(3) 0.6056(4)
C26 C 0.8154(7) 0.1041(3) 0.6991(4)
C27 C 0.7991(8) 0.0630(4) 0.8511(4)
H15 H 0.8008 0.0178 0.8963
C28 C 0.8966(7) -0.0346(4) 0.4998(4)
H16 H 0.9139 -0.0962 0.4864
C29 C 0.3599(8) 0.1990(3) 0.4078(4)
C30 C 0.7893(8) 0.1983(4) 0.7199(5)
C31 C 0.7355(8) -0.6235(3) 1.0724(4)
C32 C 0.2796(8) 0.1646(4) 0.7639(4)
H17 H 0.2568 0.1729 0.8255
C33 C 0.7771(10) 0.1539(5) 0.8771(5)
H18 H 0.7673 0.1689 0.9388
C34 C 0.9371(7) -0.5482(3) 0.9567(4)
C35 C 0.9060(8) 0.0290(5) 0.4290(5)
H19 H 0.9309 0.0105 0.3700
C36 C 0.7700(10) 0.2208(4) 0.8114(6)
H20 H 0.7522 0.2815 0.8279
N1 N 0.8641(5) -0.0117(3) 0.5859(3)
N2 N 0.8177(6) 0.0382(3) 0.7636(3)
O1 O 0.9883(6) -0.3066(3) 0.7806(4)
O2 O 0.7379(5) -0.2472(2) 0.8418(3)
O3 O 0.5033(4) -0.1186(2) 0.7271(3)
O4 O 0.2304(4) -0.1607(2) 0.6549(2)
O5 O 0.4507(6) 0.1824(3) 0.3387(3)
O6 O 0.2628(6) 0.2688(2) 0.4181(3)
O7 O 0.8192(7) -0.6248(3) 1.1507(3)
O8 O 0.6205(9) -0.6829(4) 1.0446(4)
Pb1 Pb 0.38951(3) -0.256319(9) 0.794522(12)
Pb2 Pb 0.86603(2) -0.137997(11) 0.714247(12)
O5A O 0.5493(6) -0.3176(3) 0.6613(3)
O6A O 0.7372(6) -0.2312(2) 0.5819(3)
O7A O 0.1808(7) -0.1248(3) 0.8493(3)
O8A O 0.3795(9) -0.1829(4) 0.9554(4)
Pb1A Pb 0.61049(3) 0.243681(9) 0.205478(12)
Pb1A_2 Pb 0.61049(3) -0.756319(9) 1.205478(12)
Pb2A Pb 0.13397(2) 0.362003(11) 0.285753(12)
loop_
_geom_bond_atom_site_label_1
_geom_bond_atom_site_label_2
_geom_bond_site_symmetry_1
_geom_bond_site_symmetry_2
C1 C2 1_555 1_555
C2 C3 1_555 1_555
C3 H1 1_555 1_555
C4 C3 1_555 1_555
H2 C4 1_555 1_555
C5 C4 1_555 1_555
C6 C2 1_555 1_555
C7 C6 1_555 1_555
H3 C7 1_555 1_555
C8 C7 1_555 1_555
H4 C8 1_555 1_555
C9 C8 1_555 1_555
H5 C9 1_555 1_555
C10 C9 1_555 1_555
H6 C10 1_555 1_555
C11 C12 1_555 1_555
C12 C13 1_555 1_555
C13 H7 1_555 1_555
C14 C13 1_555 1_555
H8 C14 1_555 1_555
C15 C14 1_555 1_555
C16 C15 1_555 1_555
C17 C12 1_555 1_555
C18 C17 1_555 1_555
H9 C18 1_555 1_555
C19 C16 1_555 1_555
H10 C19 1_555 1_555
C20 C19 1_555 1_555
H11 C20 1_555 1_555
C21 H12 1_555 1_555
C22 C21 1_555 1_555
H13 C22 1_555 1_555
C23 C22 1_555 1_555
C24 C23 1_555 1_555
H14 C24 1_555 1_555
C25 C23 1_555 1_555
C26 C25 1_555 1_555
C27 H15 1_555 1_555
C28 H16 1_555 1_555
C29 C15 1_555 1_555
C30 C21 1_555 1_555
C31 C5 1_555 1_555
C32 C18 1_555 1_555
H17 C32 1_555 1_555
C33 C27 1_555 1_555
H18 C33 1_555 1_555
C34 C5 1_555 1_555
C35 C24 1_555 1_555
H19 C35 1_555 1_555
C36 C30 1_555 1_555
H20 C36 1_555 1_555
N1 C25 1_555 1_555
N2 C26 1_555 1_555
O1 C1 1_555 1_555
O2 C1 1_555 1_555
O3 C11 1_555 1_555
O4 C11 1_555 1_555
O5 C29 1_555 1_555
O6 C29 1_555 1_555
O7 C31 1_555 1_555
O8 C31 1_555 1_555
Pb1 O2 1_555 1_555
Pb2 N1 1_555 1_555
O5A Pb1 1_555 1_555
O6A Pb2 1_555 1_555
O7A Pb1 1_555 1_555
O8A Pb1 1_555 1_555
Pb1A O5 1_555 1_555
Pb1A_2 O7 1_555 1_555
Pb2A O6 1_555 1_555
C6 C34 1_555 1_555
C10 C34 1_555 1_555
C16 C17 1_555 1_555
C20 C32 1_555 1_555
C26 C30 1_555 1_555
C27 N2 1_555 1_555
C28 C35 1_555 1_555
C28 N1 1_555 1_555
C33 C36 1_555 1_555
N2 Pb2 1_555 1_555
O1 Pb2 1_555 1_555
O2 Pb2 1_555 1_555
O3 Pb1 1_555 1_555
O3 Pb2 1_555 1_555
O4 Pb1 1_555 1_555
O8 Pb1A_2 1_555 1_555

#END
