
#######################################################################
#
#                 Cambridge Crystallographic Data Centre
#                                CCDC 
#
#######################################################################
#
# If this CIF has been generated from an entry in the Cambridge 
# Structural Database, then it will include bibliographic, chemical, 
# crystal, experimental, refinement or atomic coordinate data resulting 
# from the CCDC's data processing and validation procedures.
#
#######################################################################

data_GIMXIL01
_symmetry_cell_setting           triclinic
_symmetry_space_group_name_H-M   'P -1'
_symmetry_Int_Tables_number      2
_space_group_name_Hall           '-P 1'
loop_
_symmetry_equiv_pos_site_id
_symmetry_equiv_pos_as_xyz
1 x,y,z
2 -x,-y,-z
_cell_length_a                   10.4124(7)
_cell_length_b                   12.4782(9)
_cell_length_c                   12.5531(8)
_cell_angle_alpha                118.346(7)
_cell_angle_beta                 95.206(6)
_cell_angle_gamma                94.474(6)
_cell_volume                     1415.81
loop_
_atom_site_label
_atom_site_type_symbol
_atom_site_fract_x
_atom_site_fract_y
_atom_site_fract_z
C1 C 0.5078(11) 1.8495(9) 0.5701(11)
H1 H 0.5395 1.9326 0.6046
Cd1 Cd 0.23690(6) 0.67063(6) -0.20556(6)
C2 C 0.1871(9) 0.9530(7) -0.0719(8)
H2 H 0.2492 0.9676 -0.0067
C3 C 0.0351(8) 0.9837(8) -0.1805(8)
C4 C 0.0624(8) 0.8655(8) -0.2412(7)
C5 C -0.0084(9) 0.7800(8) -0.3578(7)
H3 H 0.0065 0.6984 -0.3985
C6 C -0.0993(11) 0.8235(9) -0.4070(9)
H4 H -0.1464 0.7703 -0.4836
C7 C -0.1240(12) 0.9470(10) -0.3449(9)
H5 H -0.1860 0.9735 -0.3819
C8 C -0.0572(10) 1.0287(9) -0.2302(9)
H6 H -0.0731 1.1098 -0.1882
C9 C 0.1299(9) 1.1704(8) 0.0223(8)
H7 H 0.1485 1.2221 -0.0142
H8 H 0.0467 1.1860 0.0517
C10 C 0.2315(8) 1.2064(7) 0.1276(7)
H9 H 0.3151 1.1910 0.0991
H10 H 0.2128 1.1563 0.1658
C11 C 0.2390(8) 1.3411(7) 0.2215(7)
H11 H 0.2528 1.3915 0.1828
H12 H 0.1577 1.3559 0.2549
C12 C 0.3474(9) 1.3746(8) 0.3210(8)
H13 H 0.4292 1.3748 0.2897
H14 H 0.3431 1.3125 0.3466
C13 C 0.2834(9) 1.5119(8) 0.5227(8)
H15 H 0.2344 1.4476 0.5250
C14 C 0.4082(8) 1.6065(8) 0.4570(8)
C15 C 0.3767(8) 1.6888(7) 0.5720(7)
C16 C 0.4298(10) 1.8131(8) 0.6311(10)
H16 H 0.4123 1.8680 0.7085
C17 C 0.5423(11) 1.7683(10) 0.4590(11)
H17 H 0.6005 1.7972 0.4234
C18 C 0.4923(10) 1.6462(9) 0.4000(9)
H18 H 0.5142 1.5920 0.3244
C19 C 0.0394(9) 0.4992(8) -0.2370(8)
C20 C -0.0671(9) 0.4112(8) -0.2402(8)
C21 C -0.1221(10) 0.4327(9) -0.1385(10)
H19 H -0.0922 0.5038 -0.0648
C22 C -0.2203(11) 0.3508(10) -0.1439(10)
H20 H -0.2570 0.3673 -0.0738
C23 C -0.2651(11) 0.2474(11) -0.2478(11)
H21 H -0.3304 0.1916 -0.2488
C24 C -0.2159(11) 0.2234(10) -0.3518(11)
H22 H -0.2494 0.1529 -0.4249
C25 C -0.1156(10) 0.3044(10) -0.3484(9)
H23 H -0.0801 0.2873 -0.4192
C26 C 0.4449(8) 0.7132(8) -0.0394(8)
C27 C 0.5574(9) 0.7342(8) 0.0569(8)
C28 C 0.6171(9) 0.6370(8) 0.0487(9)
H24 H 0.5888 0.5581 -0.0157
C29 C 0.7210(11) 0.6575(10) 0.1383(11)
H25 H 0.7637 0.5924 0.1319
C30 C 0.7603(11) 0.7743(12) 0.2363(10)
H26 H 0.8283 0.7881 0.2967
C31 C 0.6983(10) 0.8677(10) 0.2426(9)
H27 H 0.7255 0.9465 0.3075
C32 C 0.5979(10) 0.8503(9) 0.1575(9)
H28 H 0.5555 0.9162 0.1661
O1 O 0.0744(7) 0.5972(6) -0.1390(6)
O2 O 0.0895(8) 0.4748(7) -0.3274(7)
O3 O 0.4161(7) 0.6102(6) -0.1293(6)
O4 O 0.3866(7) 0.8015(6) -0.0234(7)
N1 N 0.1572(7) 0.8458(6) -0.1715(6)
N2 N 0.1185(6) 1.0402(6) -0.0734(6)
N3 N 0.3458(7) 1.4966(7) 0.4289(6)
N4 N 0.2978(7) 1.6248(6) 0.6101(6)
Cd1_2 Cd 0.23690(6) 1.67063(6) 0.79444(6)
N4_2 N 0.2978(7) 0.6248(6) -0.3899(6)
loop_
_geom_bond_atom_site_label_1
_geom_bond_atom_site_label_2
_geom_bond_site_symmetry_1
_geom_bond_site_symmetry_2
C1 H1 1_555 1_555
Cd1 O1 1_555 1_555
C2 H2 1_555 1_555
C3 C4 1_555 1_555
C4 C5 1_555 1_555
C5 H3 1_555 1_555
C6 C5 1_555 1_555
H4 C6 1_555 1_555
C7 C6 1_555 1_555
H5 C7 1_555 1_555
C8 C3 1_555 1_555
H6 C8 1_555 1_555
C9 H7 1_555 1_555
H8 C9 1_555 1_555
C10 C9 1_555 1_555
H9 C10 1_555 1_555
H10 C10 1_555 1_555
C11 C10 1_555 1_555
H11 C11 1_555 1_555
H12 C11 1_555 1_555
C12 C11 1_555 1_555
H13 C12 1_555 1_555
H14 C12 1_555 1_555
C13 H15 1_555 1_555
C14 C15 1_555 1_555
C15 C16 1_555 1_555
C16 C1 1_555 1_555
H16 C16 1_555 1_555
C17 C1 1_555 1_555
H17 C17 1_555 1_555
C18 C14 1_555 1_555
H18 C18 1_555 1_555
C19 C20 1_555 1_555
C20 C21 1_555 1_555
C21 H19 1_555 1_555
C22 C21 1_555 1_555
H20 C22 1_555 1_555
C23 C22 1_555 1_555
H21 C23 1_555 1_555
C24 C23 1_555 1_555
H22 C24 1_555 1_555
C25 C20 1_555 1_555
H23 C25 1_555 1_555
C26 C27 1_555 1_555
C27 C28 1_555 1_555
C28 H24 1_555 1_555
C29 C28 1_555 1_555
H25 C29 1_555 1_555
C30 C29 1_555 1_555
H26 C30 1_555 1_555
C31 C30 1_555 1_555
H27 C31 1_555 1_555
C32 C27 1_555 1_555
H28 C32 1_555 1_555
O1 C19 1_555 1_555
O2 Cd1 1_555 1_555
O3 Cd1 1_555 1_555
O4 Cd1 1_555 1_555
N1 Cd1 1_555 1_555
N2 C2 1_555 1_555
N3 C12 1_555 1_555
N4 C13 1_555 1_555
Cd1_2 N4 1_555 1_555
N4_2 Cd1 1_555 1_555
C2 N1 1_555 1_555
C3 N2 1_555 1_555
C4 N1 1_555 1_555
C7 C8 1_555 1_555
C9 N2 1_555 1_555
C13 N3 1_555 1_555
C14 N3 1_555 1_555
C15 N4 1_555 1_555
C17 C18 1_555 1_555
C19 O2 1_555 1_555
C24 C25 1_555 1_555
C26 O3 1_555 1_555
C26 O4 1_555 1_555
C31 C32 1_555 1_555

#END
