
#######################################################################
#
#                 Cambridge Crystallographic Data Centre
#                                CCDC 
#
#######################################################################
#
# If this CIF has been generated from an entry in the Cambridge 
# Structural Database, then it will include bibliographic, chemical, 
# crystal, experimental, refinement or atomic coordinate data resulting 
# from the CCDC's data processing and validation procedures.
#
#######################################################################

data_GIMYUW01
_symmetry_cell_setting           triclinic
_symmetry_space_group_name_H-M   'P -1'
_symmetry_Int_Tables_number      2
_space_group_name_Hall           '-P 1'
loop_
_symmetry_equiv_pos_site_id
_symmetry_equiv_pos_as_xyz
1 x,y,z
2 -x,-y,-z
_cell_length_a                   7.2109(14)
_cell_length_b                   12.033(2)
_cell_length_c                   12.382(3)
_cell_angle_alpha                96.42(3)
_cell_angle_beta                 91.65(3)
_cell_angle_gamma                104.43(3)
_cell_volume                     1032.16
loop_
_atom_site_label
_atom_site_type_symbol
_atom_site_fract_x
_atom_site_fract_y
_atom_site_fract_z
Na1 Na 0.69368(9) 0.59562(5) 0.94820(5)
Na2 Na 0.72469(10) 0.94694(6) 0.98380(6)
O1 O 0.49203(19) 0.71281(11) 0.21884(10)
O2 O 0.4894(3) 0.89141(13) 0.28547(12)
O3 O 0.7028(3) 0.63072(18) 0.74999(14)
O4 O 0.7628(3) 0.81388(18) 0.79646(12)
N1 N 0.7106(2) 0.72731(19) 0.72970(14)
C1 C 0.5687(2) 0.77295(13) 0.40799(12)
C2 C 0.5948(2) 0.66727(14) 0.43014(14)
H1 H 0.5819 0.6071 0.3741
C3 C 0.6401(2) 0.65125(16) 0.53567(15)
H2 H 0.6572 0.5805 0.5514
C4 C 0.6595(2) 0.74212(16) 0.61699(13)
C5 C 0.6360(2) 0.84781(16) 0.59786(14)
H3 H 0.6505 0.9080 0.6541
C6 C 0.5901(2) 0.86179(14) 0.49247(14)
H4 H 0.5730 0.9328 0.4775
C7 C 0.5139(2) 0.79513(15) 0.29437(14)
O9 O 0.84028(18) 0.44451(10) 0.87466(10)
H9 H 0.7626 0.4023 0.8285
H10 H 0.9258 0.4773 0.8383
O10 O 0.38177(17) 0.47107(10) 0.88183(9)
H11 H 0.4023 0.4165 0.8424
H12 H 0.3166 0.4986 0.8422
O11 O 1.01423(18) 0.70102(11) 0.99965(10)
H13 H 1.0587 0.6596 1.0357
H14 H 1.0766 0.7006 0.9453
O12 O 0.54585(17) 0.75332(10) 1.00210(9)
H15 H 0.4527 0.7407 0.9588
H16 H 0.5056 0.7441 1.0626
O13 O 0.5470(2) 1.02537(11) 1.12174(10)
H17 H 0.6052 1.0892 1.1521
H18 H 0.5296 0.9878 1.1735
O14 O 1.00666(19) 0.92200(11) 1.08775(10)
H19 H 1.0029 0.9220 1.1539
H20 H 1.0080 0.8554 1.0657
Na1A Na 0.30632(9) 0.40438(5) 1.05180(5)
Na2A Na 0.27531(10) 1.05306(6) 1.01620(6)
Na2A_2 Na 1.27531(10) 1.05306(6) 1.01620(6)
O10A O 0.61823(17) 0.52893(10) 1.11817(9)
H11A H 0.5977 0.5835 1.1576
H12A H 0.6834 0.5014 1.1578
O13A O 0.4530(2) 0.97463(11) 0.87826(10)
H17A H 0.3948 0.9108 0.8479
H18A H 0.4704 1.0122 0.8265
O14A O 0.99334(19) 1.07800(11) 0.91225(10)
H19A H 0.9971 1.0780 0.8461
H20A H 0.9920 1.1446 0.9343
O5 O 0.15337(19) 0.56301(10) 0.75115(10)
O6 O 0.25891(19) 0.74437(11) 0.82924(10)
O7 O 0.0039(3) 0.74415(13) 0.25976(11)
O8 O 0.0233(2) 0.91540(11) 0.33707(11)
N2 N 0.0337(2) 0.81600(13) 0.33978(11)
C8 C 0.1593(2) 0.71196(13) 0.64145(12)
C9 C 0.1389(2) 0.63627(14) 0.54610(13)
H5 H 0.1516 0.5617 0.5493
C10 C 0.1001(2) 0.66977(14) 0.44674(13)
H6 H 0.0866 0.6190 0.3830
C11 C 0.0819(2) 0.78077(13) 0.44494(12)
C12 C 0.1038(2) 0.85898(13) 0.53730(13)
H7 H 0.0919 0.9337 0.5334
C13 C 0.1439(2) 0.82390(13) 0.63599(13)
H8 H 0.1607 0.8757 0.6992
C14 C 0.1944(2) 0.66972(14) 0.74896(13)
loop_
_geom_bond_atom_site_label_1
_geom_bond_atom_site_label_2
_geom_bond_site_symmetry_1
_geom_bond_site_symmetry_2
Na1 O3 1_555 1_555
Na2 O4 1_555 1_555
O1 C7 1_555 1_555
O2 C7 1_555 1_555
O3 N1 1_555 1_555
O4 N1 1_555 1_555
N1 C4 1_555 1_555
C1 C2 1_555 1_555
C2 H1 1_555 1_555
C3 C2 1_555 1_555
H2 C3 1_555 1_555
C4 C3 1_555 1_555
C5 C4 1_555 1_555
H3 C5 1_555 1_555
C6 C1 1_555 1_555
H4 C6 1_555 1_555
C7 C1 1_555 1_555
O5 C14 1_555 1_555
O6 C14 1_555 1_555
O7 N2 1_555 1_555
O8 N2 1_555 1_555
N2 C11 1_555 1_555
C8 C9 1_555 1_555
C9 H5 1_555 1_555
C10 C9 1_555 1_555
H6 C10 1_555 1_555
C11 C10 1_555 1_555
C12 C11 1_555 1_555
H7 C12 1_555 1_555
C13 C8 1_555 1_555
H8 C13 1_555 1_555
C14 C8 1_555 1_555
O9 Na1 1_555 1_555
H9 O9 1_555 1_555
H10 O9 1_555 1_555
O10 Na1 1_555 1_555
H11 O10 1_555 1_555
H12 O10 1_555 1_555
O11 Na1 1_555 1_555
H13 O11 1_555 1_555
H14 O11 1_555 1_555
O12 Na1 1_555 1_555
H15 O12 1_555 1_555
H16 O12 1_555 1_555
O13 Na2 1_555 1_555
H17 O13 1_555 1_555
H18 O13 1_555 1_555
O14 Na2 1_555 1_555
H19 O14 1_555 1_555
H20 O14 1_555 1_555
Na1A O10 1_555 1_555
Na2A O13 1_555 1_555
Na2A_2 O14 1_555 1_555
O10A Na1 1_555 1_555
H11A O10A 1_555 1_555
H12A O10A 1_555 1_555
O13A Na2 1_555 1_555
H17A O13A 1_555 1_555
H18A O13A 1_555 1_555
O14A Na2 1_555 1_555
H19A O14A 1_555 1_555
H20A O14A 1_555 1_555
Na2 O12 1_555 1_555
C5 C6 1_555 1_555
C12 C13 1_555 1_555
Na1A O10A 1_555 1_555
Na2A O13A 1_555 1_555
Na2A_2 O14A 1_555 1_555

#END
