
#######################################################################
#
#                 Cambridge Crystallographic Data Centre
#                                CCDC 
#
#######################################################################
#
# If this CIF has been generated from an entry in the Cambridge 
# Structural Database, then it will include bibliographic, chemical, 
# crystal, experimental, refinement or atomic coordinate data resulting 
# from the CCDC's data processing and validation procedures.
#
#######################################################################

data_GIMYIL
_symmetry_cell_setting           monoclinic
_symmetry_space_group_name_H-M   'P 21/c'
_symmetry_Int_Tables_number      14
_space_group_name_Hall           '-P 2ybc'
loop_
_symmetry_equiv_pos_site_id
_symmetry_equiv_pos_as_xyz
1 x,y,z
2 -x,1/2+y,1/2-z
3 -x,-y,-z
4 x,1/2-y,1/2+z
_cell_length_a                   10.9824(2)
_cell_length_b                   11.2924(3)
_cell_length_c                   15.1189(3)
_cell_angle_alpha                90
_cell_angle_beta                 110.3310(10)
_cell_angle_gamma                90
_cell_volume                     1758.2
loop_
_atom_site_label
_atom_site_type_symbol
_atom_site_fract_x
_atom_site_fract_y
_atom_site_fract_z
Cu1 Cu -0.25750(5) 0.30566(5) 0.18344(3)
P1 P -0.12583(11) 0.29056(10) 0.03360(7)
S1 S 0.33196(10) 0.04087(10) 0.19138(8)
N1 N -0.0778(3) 0.2833(3) 0.2746(2)
N2 N 0.5660(3) 0.2033(3) 0.5851(2)
C1 C 0.0481(4) 0.2855(4) 0.0959(3)
C2 C 0.1169(4) 0.1801(4) 0.1125(3)
H1 H 0.0747 0.1098 0.0877
C3 C 0.2487(4) 0.1789(4) 0.1661(3)
C4 C 0.3123(4) 0.2822(4) 0.2027(3)
H2 H 0.3997 0.2807 0.2400
C5 C 0.2458(5) 0.3879(4) 0.1837(4)
H3 H 0.2893 0.4582 0.2070
C6 C 0.1144(4) 0.3905(4) 0.1301(3)
H4 H 0.0705 0.4624 0.1170
C7 C -0.0052(4) 0.3733(4) 0.3224(3)
H5 H -0.0419 0.4484 0.3162
C8 C 0.1217(4) 0.3587(4) 0.3804(3)
H6 H 0.1693 0.4237 0.4118
C9 C 0.4058(4) 0.3201(4) 0.4718(3)
H7 H 0.3841 0.3917 0.4398
C10 C 0.5286(4) 0.3021(5) 0.5364(3)
H8 H 0.5887 0.3631 0.5463
C11 C 0.4804(4) 0.1147(4) 0.5676(3)
H9 H 0.5055 0.0437 0.6000
C12 C 0.3556(4) 0.1246(4) 0.5027(3)
H10 H 0.2994 0.0603 0.4913
C13 C 0.3146(4) 0.2293(4) 0.4552(3)
C14 C 0.1792(4) 0.2478(4) 0.3922(3)
C15 C 0.1028(4) 0.1546(4) 0.3436(3)
H11 H 0.1362 0.0781 0.3496
C16 C -0.0228(4) 0.1768(4) 0.2864(3)
H12 H -0.0725 0.1135 0.2539
O1 O -0.1830(3) 0.3664(3) 0.09164(19)
O2 O -0.1690(3) 0.1599(3) 0.0405(2)
H13 H -0.2074 0.1342 -0.0126
O3 O -0.1557(3) 0.3310(3) -0.0648(2)
O4 O 0.2841(3) -0.0182(3) 0.2586(2)
O5 O 0.4693(3) 0.0663(3) 0.2314(3)
O6 O 0.2960(4) -0.0212(3) 0.1014(2)
O7 O -0.3168(3) 0.2021(4) 0.2649(2)
H14 H -0.273(5) 0.185(5) 0.324(4)
H15 H -0.397(6) 0.170(5) 0.251(4)
Cu1C Cu 0.74250(5) 0.19434(5) 0.68344(3)
Cu1A Cu 0.25750(5) -0.19434(5) 0.31656(3)
N2C N -0.4340(3) 0.2967(3) 0.0851(2)
O4A O -0.2841(3) 0.4818(3) 0.2414(2)
loop_
_geom_bond_atom_site_label_1
_geom_bond_atom_site_label_2
_geom_bond_site_symmetry_1
_geom_bond_site_symmetry_2
Cu1 N1 1_555 1_555
P1 C1 1_555 1_555
S1 C3 1_555 1_555
N1 C7 1_555 1_555
N2 C10 1_555 1_555
C1 C2 1_555 1_555
C2 H1 1_555 1_555
C3 C2 1_555 1_555
C4 C3 1_555 1_555
H2 C4 1_555 1_555
C5 C4 1_555 1_555
H3 C5 1_555 1_555
C6 C1 1_555 1_555
H4 C6 1_555 1_555
C7 H5 1_555 1_555
C8 C7 1_555 1_555
H6 C8 1_555 1_555
C9 H7 1_555 1_555
C10 C9 1_555 1_555
H8 C10 1_555 1_555
C11 N2 1_555 1_555
H9 C11 1_555 1_555
C12 C11 1_555 1_555
H10 C12 1_555 1_555
C13 C9 1_555 1_555
C14 C8 1_555 1_555
C15 C14 1_555 1_555
H11 C15 1_555 1_555
C16 N1 1_555 1_555
H12 C16 1_555 1_555
O1 Cu1 1_555 1_555
O2 P1 1_555 1_555
H13 O2 1_555 1_555
O3 P1 1_555 1_555
O4 S1 1_555 1_555
O5 S1 1_555 1_555
O6 S1 1_555 1_555
O7 Cu1 1_555 1_555
H14 O7 1_555 1_555
H15 O7 1_555 1_555
Cu1C N2 1_555 1_555
Cu1A O4 1_555 1_555
N2C Cu1 1_555 1_555
O4A Cu1 1_555 1_555
P1 O1 1_555 1_555
C5 C6 1_555 1_555
C12 C13 1_555 1_555
C13 C14 1_555 1_555
C15 C16 1_555 1_555

#END
