
#######################################################################
#
#                 Cambridge Crystallographic Data Centre
#                                CCDC 
#
#######################################################################
#
# If this CIF has been generated from an entry in the Cambridge 
# Structural Database, then it will include bibliographic, chemical, 
# crystal, experimental, refinement or atomic coordinate data resulting 
# from the CCDC's data processing and validation procedures.
#
#######################################################################

data_GINDUE
_symmetry_cell_setting           triclinic
_symmetry_space_group_name_H-M   'P -1'
_symmetry_Int_Tables_number      2
_space_group_name_Hall           '-P 1'
loop_
_symmetry_equiv_pos_site_id
_symmetry_equiv_pos_as_xyz
1 x,y,z
2 -x,-y,-z
_cell_length_a                   8.7030(10)
_cell_length_b                   10.5200(12)
_cell_length_c                   11.8400(13)
_cell_angle_alpha                81.291(2)
_cell_angle_beta                 76.006(2)
_cell_angle_gamma                88.202(2)
_cell_volume                     1039.7
loop_
_atom_site_label
_atom_site_type_symbol
_atom_site_fract_x
_atom_site_fract_y
_atom_site_fract_z
Zn1 Zn 1.31423(8) 0.39679(6) 0.55075(6)
O1 O 0.6440(6) -0.7480(4) 0.8645(4)
O2 O 0.8349(5) -0.3485(4) 0.9487(4)
O3 O 0.4069(5) -0.6275(4) 1.3866(3)
O4 O 0.5149(5) -0.4359(4) 1.3734(3)
O5 O 1.1706(5) 0.2638(4) 0.6462(4)
N1 N 1.0545(6) 0.7378(5) 0.5667(4)
C1 C 1.0282(7) 0.8724(6) 0.5322(5)
O6 O 1.3823(5) 0.1409(4) 0.6280(4)
C2 C 0.7147(7) -0.5476(6) 0.9694(5)
H1 H 0.7624 -0.5493 0.8903
C3 C 1.1058(7) -0.1668(6) 0.8437(5)
H2 H 1.1457 -0.2497 0.8537
C4 C 0.5743(6) -0.5432(5) 1.2048(5)
C5 C 0.4947(7) -0.5348(5) 1.3298(5)
C6 C 0.7423(7) -0.4446(6) 1.0218(5)
C7 C 1.1966(7) -0.0718(6) 0.7654(5)
H3 H 1.2976 -0.0908 0.7237
C8 C 0.6163(7) -0.6494(5) 1.0335(5)
C9 C 0.8475(7) 1.0472(6) 0.5253(5)
H4 H 0.7451 1.0794 0.5431
C10 C 0.6726(7) -0.4427(5) 1.1395(5)
H5 H 0.6915 -0.3739 1.1753
C11 C 1.1385(7) 0.0517(5) 0.7486(5)
N2 N 1.1668(6) 0.5479(5) 0.5695(4)
C12 C 0.8956(7) -0.0180(6) 0.8884(5)
H6 H 0.7944 0.0005 0.9301
C13 C 1.2379(8) 0.1575(6) 0.6693(5)
C14 C 0.9567(7) -0.1406(6) 0.9073(5)
C15 C 0.5462(6) -0.6469(5) 1.1521(5)
H7 H 0.4809 -0.7143 1.1959
C16 C 0.9601(8) 0.6566(7) 0.6555(6)
H8 H 0.8654 0.6778 0.7048
C17 C 0.8749(8) 0.9179(6) 0.5569(5)
H9 H 0.7910 0.8622 0.5942
C18 C 1.1786(8) 0.6684(6) 0.5167(6)
H10 H 1.2610 0.7008 0.4538
C19 C 0.8630(8) -0.2395(6) 1.0009(5)
H11 H 0.9209 -0.2660 1.0609
H12 H 0.7628 -0.2033 1.0379
C20 C 0.9848(7) 0.0765(6) 0.8080(5)
H13 H 0.9416 0.1576 0.7934
C21 C 1.0291(8) 0.5404(6) 0.6584(6)
H14 H 0.9908 0.4672 0.7112
C22 C 0.5870(7) -0.7598(6) 0.9796(5)
O7 O 0.5089(6) -0.8534(4) 1.0358(4)
H15 H 0.632(9) -0.812(7) 0.824(6)
N1A N 0.9455(6) 1.2622(5) 0.4333(4)
C1A C 0.9718(7) 1.1276(6) 0.4678(5)
C9A C 1.1525(7) 0.9528(6) 0.4747(5)
H4A H 1.2549 0.9206 0.4569
N2A N 0.8332(6) 1.4521(5) 0.4305(4)
C16A C 1.0399(8) 1.3434(7) 0.3445(6)
H8A H 1.1346 1.3222 0.2952
C17A C 1.1251(8) 1.0821(6) 0.4431(5)
H9A H 1.2090 1.1378 0.4058
C18A C 0.8214(8) 1.3316(6) 0.4833(6)
H10A H 0.7390 1.2992 0.5462
C21A C 0.9709(8) 1.4596(6) 0.3416(6)
H14A H 1.0092 1.5328 0.2888
Zn1A Zn 0.68577(8) -0.39679(6) 1.44925(6)
O1A O 1.3560(6) 0.7480(4) 1.1355(4)
O2A O 1.1651(5) 0.3485(4) 1.0513(4)
O3A O 1.5931(5) 0.6275(4) 0.6134(3)
O4A O 1.4851(5) 0.4359(4) 0.6266(3)
O5A O 0.8294(5) -0.2638(4) 1.3538(4)
O6A O 0.6177(5) -0.1409(4) 1.3720(4)
C2A C 1.2853(7) 0.5476(6) 1.0306(5)
H1A H 1.2376 0.5493 1.1097
C3A C 0.8942(7) 0.1668(6) 1.1563(5)
H2A H 0.8543 0.2497 1.1463
C4A C 1.4257(6) 0.5432(5) 0.7952(5)
C5A C 1.5053(7) 0.5348(5) 0.6702(5)
C6A C 1.2577(7) 0.4446(6) 0.9782(5)
C7A C 0.8034(7) 0.0718(6) 1.2346(5)
H3A H 0.7024 0.0908 1.2763
C8A C 1.3837(7) 0.6494(5) 0.9665(5)
C10A C 1.3274(7) 0.4427(5) 0.8605(5)
H5A H 1.3085 0.3739 0.8247
C11A C 0.8615(7) -0.0517(5) 1.2514(5)
C12A C 1.1044(7) 0.0180(6) 1.1116(5)
H6A H 1.2056 -0.0005 1.0699
C13A C 0.7621(8) -0.1575(6) 1.3307(5)
C14A C 1.0433(7) 0.1406(6) 1.0927(5)
C15A C 1.4538(6) 0.6469(5) 0.8479(5)
H7A H 1.5191 0.7143 0.8041
C19A C 1.1370(8) 0.2395(6) 0.9991(5)
H11A H 1.0791 0.2660 0.9391
H12A H 1.2372 0.2033 0.9621
C20A C 1.0152(7) -0.0765(6) 1.1920(5)
H13A H 1.0584 -0.1576 1.2066
C22A C 1.4130(7) 0.7598(6) 1.0204(5)
O7A O 1.4911(6) 0.8534(4) 0.9642(4)
H15A H 1.368(9) 0.812(7) 1.176(6)
Zn1_2 Zn 0.31423(8) -0.60321(6) 1.55075(6)
Zn1A_2 Zn 0.68577(8) 1.60321(6) 0.44925(6)
Zn1A_3 Zn 1.68577(8) 0.60321(6) 0.44925(6)
O3_2 O 1.4069(5) 0.3725(4) 0.3866(3)
O3A_2 O 0.5931(5) -0.3725(4) 1.6134(3)
N2A_2 N 0.8332(6) -0.5479(5) 1.4305(4)
O8 O 0.5697(6) -0.9390(5) 0.7762(4)
H16 H 0.508(8) -0.925(8) 0.730(6)
H17 H 0.523(9) -1.010(4) 0.808(7)
loop_
_geom_bond_atom_site_label_1
_geom_bond_atom_site_label_2
_geom_bond_site_symmetry_1
_geom_bond_site_symmetry_2
Zn1 O5 1_555 1_555
O1 C22 1_555 1_555
O2 C6 1_555 1_555
O3 C5 1_555 1_555
O4 C5 1_555 1_555
O5 C13 1_555 1_555
N1 C1 1_555 1_555
C1 C17 1_555 1_555
O6 C13 1_555 1_555
C2 H1 1_555 1_555
C3 H2 1_555 1_555
C4 C5 1_555 1_555
C6 C2 1_555 1_555
C7 C3 1_555 1_555
H3 C7 1_555 1_555
C8 C2 1_555 1_555
C9 H4 1_555 1_555
C10 C4 1_555 1_555
H5 C10 1_555 1_555
C11 C7 1_555 1_555
N2 Zn1 1_555 1_555
C12 H6 1_555 1_555
C13 C11 1_555 1_555
C14 C3 1_555 1_555
C15 C4 1_555 1_555
H7 C15 1_555 1_555
C16 N1 1_555 1_555
H8 C16 1_555 1_555
C17 C9 1_555 1_555
H9 C17 1_555 1_555
C18 N1 1_555 1_555
H10 C18 1_555 1_555
C19 O2 1_555 1_555
H11 C19 1_555 1_555
H12 C19 1_555 1_555
C20 C11 1_555 1_555
H13 C20 1_555 1_555
C21 N2 1_555 1_555
H14 C21 1_555 1_555
C22 C8 1_555 1_555
O7 C22 1_555 1_555
H15 O1 1_555 1_555
O8 H16 1_555 1_555
H17 O8 1_555 1_555
N1A C1A 1_555 1_555
C1A C9 1_555 1_555
C9A C1 1_555 1_555
H4A C9A 1_555 1_555
N2A C18A 1_555 1_555
C16A N1A 1_555 1_555
H8A C16A 1_555 1_555
C17A C1A 1_555 1_555
H9A C17A 1_555 1_555
C18A N1A 1_555 1_555
H10A C18A 1_555 1_555
C21A N2A 1_555 1_555
H14A C21A 1_555 1_555
Zn1A O4 1_555 1_555
O1A C22A 1_555 1_555
O2A C6A 1_555 1_555
O3A C5A 1_555 1_555
O4A Zn1 1_555 1_555
O5A Zn1A 1_555 1_555
O6A C13A 1_555 1_555
C2A H1A 1_555 1_555
C3A H2A 1_555 1_555
C4A C5A 1_555 1_555
C5A O4A 1_555 1_555
C6A C2A 1_555 1_555
C7A C3A 1_555 1_555
H3A C7A 1_555 1_555
C8A C2A 1_555 1_555
C10A C4A 1_555 1_555
H5A C10A 1_555 1_555
C11A C7A 1_555 1_555
C12A H6A 1_555 1_555
C13A O5A 1_555 1_555
C14A C3A 1_555 1_555
C15A C4A 1_555 1_555
H7A C15A 1_555 1_555
C19A O2A 1_555 1_555
H11A C19A 1_555 1_555
H12A C19A 1_555 1_555
C20A C11A 1_555 1_555
H13A C20A 1_555 1_555
C22A C8A 1_555 1_555
O7A C22A 1_555 1_555
H15A O1A 1_555 1_555
Zn1_2 O3 1_555 1_555
Zn1A_2 N2A 1_555 1_555
Zn1A_3 O3A 1_555 1_555
O3_2 Zn1 1_555 1_555
O3A_2 Zn1A 1_555 1_555
N2A_2 Zn1A 1_555 1_555
C6 C10 1_555 1_555
C8 C15 1_555 1_555
N2 C18 1_555 1_555
C12 C14 1_555 1_555
C12 C20 1_555 1_555
C14 C19 1_555 1_555
C16 C21 1_555 1_555
C9A C17A 1_555 1_555
C16A C21A 1_555 1_555
C6A C10A 1_555 1_555
C8A C15A 1_555 1_555
C11A C13A 1_555 1_555
C12A C14A 1_555 1_555
C12A C20A 1_555 1_555
C14A C19A 1_555 1_555

#END
