
#######################################################################
#
#                 Cambridge Crystallographic Data Centre
#                                CCDC 
#
#######################################################################
#
# If this CIF has been generated from an entry in the Cambridge 
# Structural Database, then it will include bibliographic, chemical, 
# crystal, experimental, refinement or atomic coordinate data resulting 
# from the CCDC's data processing and validation procedures.
#
#######################################################################

data_GINNIC
_symmetry_cell_setting           triclinic
_symmetry_space_group_name_H-M   'P -1'
_symmetry_Int_Tables_number      2
_space_group_name_Hall           '-P 1'
loop_
_symmetry_equiv_pos_site_id
_symmetry_equiv_pos_as_xyz
1 x,y,z
2 -x,-y,-z
_cell_length_a                   9.083(3)
_cell_length_b                   23.902(9)
_cell_length_c                   25.234(9)
_cell_angle_alpha                62.720(4)
_cell_angle_beta                 81.535(5)
_cell_angle_gamma                88.771(5)
_cell_volume                     4809.38
loop_
_atom_site_label
_atom_site_type_symbol
_atom_site_fract_x
_atom_site_fract_y
_atom_site_fract_z
O1 O 0.8355(6) 0.1353(3) 0.5541(3)
O2 O 1.0993(6) 0.1673(2) 0.5334(3)
O3 O 1.0028(7) 0.0702(3) 0.6244(3)
S1 S 0.9883(2) 0.11468(10) 0.56405(10)
C1 C 1.0249(10) 0.0710(4) 0.5202(5)
F1 F 1.1680(6) 0.0563(3) 0.5175(3)
F2 F 0.9408(7) 0.0180(3) 0.5456(3)
F3 F 0.9981(6) 0.1053(3) 0.4641(3)
O4 O 0.9668(6) 0.3886(3) 0.4352(3)
O5 O 0.7391(6) 0.3541(3) 0.4150(3)
O6 O 0.7577(7) 0.4575(3) 0.4131(3)
S2 S 0.8337(2) 0.40789(10) 0.40519(11)
C2 C 0.9128(12) 0.4409(5) 0.3258(5)
F4 F 0.8052(8) 0.4525(3) 0.2914(3)
F5 F 0.9911(8) 0.4945(3) 0.3078(3)
F6 F 1.0023(7) 0.3994(3) 0.3171(3)
In1 In 0.77388(6) 0.23871(3) 0.49014(3)
N1 N 0.6433(7) 0.2094(3) 0.4377(3)
N2 N 0.5614(7) 0.2347(3) 0.5342(3)
C3 C 0.5030(9) 0.2146(4) 0.4519(4)
H1 H 0.4333 0.2064 0.4313
C4 C 0.4480(8) 0.2335(4) 0.5001(4)
H2 H 0.3679 0.2016 0.5290
C5 C 0.6945(8) 0.1822(4) 0.3973(3)
C6 C 0.6751(9) 0.1163(4) 0.4207(4)
C7 C 0.7285(11) 0.0898(5) 0.3834(5)
H3 H 0.7148 0.0455 0.3984
C8 C 0.8014(11) 0.1255(5) 0.3248(5)
C9 C 0.8199(11) 0.1901(5) 0.3042(4)
H4 H 0.8721 0.2149 0.2647
C10 C 0.7652(10) 0.2207(4) 0.3388(4)
C11 C 0.6027(11) 0.0754(4) 0.4851(4)
H5 H 0.5721 0.1020 0.5045
H6 H 0.6740 0.0456 0.5072
H7 H 0.5150 0.0520 0.4854
C12 C 0.8621(14) 0.0942(6) 0.2863(5)
H8 H 0.8380 0.0487 0.3089
H9 H 0.9706 0.1019 0.2758
H10 H 0.8171 0.1117 0.2493
C13 C 0.7822(13) 0.2917(4) 0.3134(4)
H11 H 0.8338 0.3101 0.2716
H12 H 0.8404 0.3020 0.3378
H13 H 0.6835 0.3089 0.3142
C14 C 0.5286(9) 0.2151(4) 0.5970(4)
C15 C 0.5780(10) 0.2579(5) 0.6172(4)
C16 C 0.5513(12) 0.2367(6) 0.6804(5)
H14 H 0.5830 0.2640 0.6949
C17 C 0.4836(13) 0.1802(6) 0.7218(5)
C18 C 0.4348(12) 0.1399(5) 0.6996(5)
H15 H 0.3852 0.1004 0.7275
C19 C 0.4573(10) 0.1564(5) 0.6381(4)
C20 C 0.6607(10) 0.3196(5) 0.5749(5)
H16 H 0.6672 0.3262 0.5333
H17 H 0.7613 0.3191 0.5847
H18 H 0.6076 0.3539 0.5790
C21 C 0.4662(17) 0.1577(7) 0.7895(5)
H19 H 0.4137 0.1161 0.8109
H20 H 0.4088 0.1876 0.7996
H21 H 0.5648 0.1549 0.8016
C22 C 0.4175(11) 0.1066(4) 0.6210(5)
H22 H 0.3689 0.0698 0.6570
H23 H 0.5083 0.0942 0.6038
H24 H 0.3494 0.1235 0.5912
In2 In 1.04955(6) 0.28500(3) 0.47344(3)
N3 N 0.1604(7) 0.3086(3) 0.5348(3)
N4 N 0.2663(7) 0.3000(3) 0.4303(3)
C23 C 0.3045(9) 0.3122(4) 0.5198(4)
H25 H 0.3666 0.3233 0.5410
C24 C 0.3733(8) 0.2991(4) 0.4693(3)
H26 H 0.4542 0.3323 0.4439
C25 C 0.0934(9) 0.3239(4) 0.5822(4)
C26 C 0.0164(9) 0.2746(4) 0.6353(4)
C27 C -0.0544(10) 0.2906(4) 0.6798(4)
H27 H -0.1038 0.2579 0.7166
C28 C -0.0555(11) 0.3505(5) 0.6727(4)
C29 C 0.0222(11) 0.3985(5) 0.6185(5)
H28 H 0.0246 0.4405 0.6132
C30 C 0.0952(10) 0.3864(4) 0.5727(4)
C31 C 0.0091(13) 0.2083(4) 0.6458(4)
H29 H -0.0499 0.1820 0.6853
H30 H 0.1102 0.1933 0.6447
H31 H -0.0377 0.2060 0.6142
C32 C -0.1322(13) 0.3658(6) 0.7210(5)
H32 H -0.1210 0.4113 0.7072
H33 H -0.0874 0.3431 0.7577
H34 H -0.2383 0.3530 0.7296
C33 C 0.1758(11) 0.4398(4) 0.5146(4)
H35 H 0.2212 0.4229 0.4877
H36 H 0.2536 0.4600 0.5241
H37 H 0.1043 0.4710 0.4947
C34 C 0.3127(8) 0.3277(4) 0.3673(4)
C35 C 0.3789(9) 0.3903(4) 0.3345(4)
C36 C 0.4278(10) 0.4142(4) 0.2726(4)
H38 H 0.4761 0.4551 0.2513
C37 C 0.4089(11) 0.3810(5) 0.2405(4)
C38 C 0.3384(10) 0.3209(5) 0.2730(4)
H39 H 0.3238 0.2973 0.2523
C39 C 0.2888(10) 0.2947(4) 0.3349(4)
C40 C 0.3822(10) 0.4334(4) 0.3635(4)
H40 H 0.3431 0.4100 0.4066
H41 H 0.3206 0.4692 0.3443
H42 H 0.4851 0.4488 0.3583
C41 C 0.4674(14) 0.4075(5) 0.1738(4)
H43 H 0.4427 0.3774 0.1597
H44 H 0.5759 0.4147 0.1671
H45 H 0.4217 0.4474 0.1515
C42 C 0.2006(10) 0.2306(4) 0.3659(4)
H46 H 0.1727 0.2179 0.4091
H47 H 0.2625 0.1989 0.3607
H48 H 0.1103 0.2342 0.3478
In2_2 In 0.04955(6) 0.28500(3) 0.47344(3)
N3_2 N 1.1604(7) 0.3086(3) 0.5348(3)
N4_2 N 1.2663(7) 0.3000(3) 0.4303(3)
O7 O 0.4335(7) 0.1984(3) 0.9224(3)
O8 O 0.6465(7) 0.1803(3) 0.9763(3)
O9 O 0.6855(8) 0.1895(4) 0.8756(4)
S3 S 0.5832(3) 0.17348(11) 0.92918(12)
C43 C 0.5461(16) 0.0892(6) 0.9614(6)
F7 F 0.6610(11) 0.0573(3) 0.9782(5)
F8 F 0.4835(9) 0.0740(3) 0.9251(3)
F9 F 0.4432(10) 0.0697(3) 1.0132(4)
O10 O 0.4338(7) 0.3125(3) 1.0645(3)
O11 O 0.2211(6) 0.3268(3) 1.0115(3)
O12 O 0.1973(7) 0.3415(3) 1.1011(3)
S4 S 0.2928(2) 0.34387(11) 1.05062(11)
C44 C 0.3524(13) 0.4258(5) 1.0047(5)
F10 F 0.2443(9) 0.4606(3) 0.9789(4)
F11 F 0.4099(9) 0.4492(3) 1.0355(3)
F12 F 0.4597(7) 0.4321(3) 0.9580(3)
In3 In 0.29843(6) 0.24214(3) 0.98354(3)
N5 N 0.1638(7) 0.2825(3) 0.9092(3)
N6 N 0.0959(7) 0.1929(3) 1.0282(3)
C45 C 0.0224(10) 0.2658(4) 0.9300(4)
H49 H -0.0486 0.2817 0.9031
C46 C -0.0297(9) 0.2217(4) 0.9957(4)
H50 H -0.0960 0.1873 0.9985
C47 C 0.2116(9) 0.3161(4) 0.8439(4)
C48 C 0.2019(10) 0.2848(4) 0.8097(4)
C49 C 0.2642(10) 0.3159(4) 0.7484(4)
H51 H 0.2550 0.2962 0.7237
C50 C 0.3401(10) 0.3755(4) 0.7226(4)
C51 C 0.3404(10) 0.4050(4) 0.7584(4)
H52 H 0.3836 0.4467 0.7404
C52 C 0.2816(9) 0.3777(4) 0.8189(4)
C53 C 0.1267(12) 0.2194(5) 0.8349(4)
H53 H 0.1331 0.2068 0.8028
H54 H 0.0218 0.2202 0.8506
H55 H 0.1769 0.1891 0.8676
C54 C 0.4113(12) 0.4059(5) 0.6565(4)
H56 H 0.3983 0.3771 0.6396
H57 H 0.5178 0.4150 0.6533
H58 H 0.3634 0.4453 0.6341
C55 C 0.2814(12) 0.4117(4) 0.8571(4)
H59 H 0.2337 0.3841 0.8984
H60 H 0.2261 0.4501 0.8400
H61 H 0.3842 0.4230 0.8574
C56 C 0.0801(10) 0.1292(4) 1.0753(4)
C57 C 0.1133(10) 0.1163(4) 1.1317(4)
C58 C 0.0982(12) 0.0543(5) 1.1776(5)
H62 H 0.1220 0.0457 1.2159
C59 C 0.0492(17) 0.0046(5) 1.1691(6)
C60 C 0.0258(16) 0.0177(5) 1.1112(6)
H63 H 0.0017 -0.0162 1.1036
C61 C 0.0367(12) 0.0793(5) 1.0639(5)
C62 C 0.1668(10) 0.1677(4) 1.1445(4)
H64 H 0.1711 0.2084 1.1083
H65 H 0.2664 0.1589 1.1561
H66 H 0.0977 0.1691 1.1775
C63 C 0.036(2) -0.0631(6) 1.2200(7)
H67 H 0.0587 -0.0633 1.2568
H68 H 0.1058 -0.0888 1.2084
H69 H -0.0662 -0.0806 1.2273
C64 C 0.0284(14) 0.0904(5) 0.9998(5)
H70 H 0.0393 0.1357 0.9722
H71 H -0.0682 0.0736 0.9988
H72 H 0.1086 0.0689 0.9872
In4 In 0.55682(6) 0.25679(3) 1.01504(3)
N7 N -0.3389(7) 0.1993(3) 1.0984(3)
N8 N -0.2320(7) 0.2982(3) 0.9880(3)
C65 C -0.1970(8) 0.2123(4) 1.0853(4)
H73 H -0.1366 0.1904 1.1156
C66 C -0.1243(9) 0.2600(4) 1.0251(3)
H74 H -0.0547 0.2882 1.0304
C67 C -0.4117(10) 0.1579(4) 1.1599(4)
C68 C -0.4394(11) 0.1820(5) 1.2002(4)
C69 C -0.5219(11) 0.1419(5) 1.2585(4)
H75 H -0.5436 0.1575 1.2872
C70 C -0.5700(12) 0.0819(6) 1.2738(5)
C71 C -0.5360(11) 0.0568(5) 1.2327(5)
H76 H -0.5664 0.0145 1.2441
C72 C -0.4548(11) 0.0959(5) 1.1734(4)
C73 C -0.3905(12) 0.2483(5) 1.1858(5)
H77 H -0.4221 0.2552 1.2211
H78 H -0.4360 0.2788 1.1517
H79 H -0.2817 0.2538 1.1753
C74 C -0.6595(15) 0.0407(6) 1.3358(5)
H80 H -0.6844 -0.0005 1.3391
H81 H -0.7514 0.0610 1.3411
H82 H -0.6001 0.0352 1.3672
C75 C -0.4188(13) 0.0706(5) 1.1292(5)
H83 H -0.4585 0.0269 1.1474
H84 H -0.3104 0.0721 1.1181
H85 H -0.4638 0.0962 1.0931
C76 C -0.1933(9) 0.3648(4) 0.9509(4)
C77 C -0.2133(10) 0.3935(4) 0.8889(4)
C78 C -0.1662(11) 0.4564(5) 0.8531(4)
H86 H -0.1788 0.4755 0.8118
C79 C -0.1018(11) 0.4928(4) 0.8743(4)
C80 C -0.0923(10) 0.4659(4) 0.9356(4)
H87 H -0.0511 0.4904 0.9512
C81 C -0.1430(10) 0.4025(4) 0.9751(4)
C82 C -0.2946(10) 0.3583(4) 0.8648(4)
H88 H -0.3181 0.3147 0.8962
H89 H -0.2316 0.3583 0.8297
H90 H -0.3872 0.3787 0.8528
C83 C -0.0442(14) 0.5616(5) 0.8331(5)
H91 H -0.0586 0.5735 0.7916
H92 H 0.0622 0.5658 0.8344
H93 H -0.0994 0.5893 0.8470
C84 C -0.1503(10) 0.3797(4) 1.0420(4)
H94 H -0.1090 0.4129 1.0489
H95 H -0.0923 0.3421 1.0589
H96 H -0.2543 0.3692 1.0617
In4_2 In -0.44318(6) 0.25679(3) 1.01504(3)
N7_2 N 0.6611(7) 0.1993(3) 1.0984(3)
N8_2 N 0.7680(7) 0.2982(3) 0.9880(3)
loop_
_geom_bond_atom_site_label_1
_geom_bond_atom_site_label_2
_geom_bond_site_symmetry_1
_geom_bond_site_symmetry_2
O1 S1 1_555 1_555
O2 S1 1_555 1_555
O3 S1 1_555 1_555
S1 C1 1_555 1_555
C1 F1 1_555 1_555
F2 C1 1_555 1_555
F3 C1 1_555 1_555
O4 S2 1_555 1_555
O5 S2 1_555 1_555
O6 S2 1_555 1_555
S2 C2 1_555 1_555
C2 F4 1_555 1_555
F5 C2 1_555 1_555
F6 C2 1_555 1_555
In1 O1 1_555 1_555
N1 In1 1_555 1_555
N2 In1 1_555 1_555
C3 N1 1_555 1_555
H1 C3 1_555 1_555
C4 N2 1_555 1_555
H2 C4 1_555 1_555
C5 N1 1_555 1_555
C6 C5 1_555 1_555
C7 C6 1_555 1_555
H3 C7 1_555 1_555
C8 C7 1_555 1_555
C9 C8 1_555 1_555
H4 C9 1_555 1_555
C10 C5 1_555 1_555
C11 C6 1_555 1_555
H5 C11 1_555 1_555
H6 C11 1_555 1_555
H7 C11 1_555 1_555
C12 C8 1_555 1_555
H8 C12 1_555 1_555
H9 C12 1_555 1_555
H10 C12 1_555 1_555
C13 C10 1_555 1_555
H11 C13 1_555 1_555
H12 C13 1_555 1_555
H13 C13 1_555 1_555
C14 N2 1_555 1_555
C15 C14 1_555 1_555
C16 C15 1_555 1_555
H14 C16 1_555 1_555
C17 C16 1_555 1_555
C18 C17 1_555 1_555
H15 C18 1_555 1_555
C19 C14 1_555 1_555
C20 C15 1_555 1_555
H16 C20 1_555 1_555
H17 C20 1_555 1_555
H18 C20 1_555 1_555
C21 C17 1_555 1_555
H19 C21 1_555 1_555
H20 C21 1_555 1_555
H21 C21 1_555 1_555
C22 C19 1_555 1_555
H22 C22 1_555 1_555
H23 C22 1_555 1_555
H24 C22 1_555 1_555
In2 O2 1_555 1_555
N3 C23 1_555 1_555
N4 C24 1_555 1_555
C23 H25 1_555 1_555
C24 C4 1_555 1_555
H26 C24 1_555 1_555
C25 N3 1_555 1_555
C26 C25 1_555 1_555
C27 C26 1_555 1_555
H27 C27 1_555 1_555
C28 C27 1_555 1_555
C29 C28 1_555 1_555
H28 C29 1_555 1_555
C30 C25 1_555 1_555
C31 C26 1_555 1_555
H29 C31 1_555 1_555
H30 C31 1_555 1_555
H31 C31 1_555 1_555
C32 C28 1_555 1_555
H32 C32 1_555 1_555
H33 C32 1_555 1_555
H34 C32 1_555 1_555
C33 C30 1_555 1_555
H35 C33 1_555 1_555
H36 C33 1_555 1_555
H37 C33 1_555 1_555
C34 N4 1_555 1_555
C35 C34 1_555 1_555
C36 C35 1_555 1_555
H38 C36 1_555 1_555
C37 C36 1_555 1_555
C38 C37 1_555 1_555
H39 C38 1_555 1_555
C39 C34 1_555 1_555
C40 C35 1_555 1_555
H40 C40 1_555 1_555
H41 C40 1_555 1_555
H42 C40 1_555 1_555
C41 C37 1_555 1_555
H43 C41 1_555 1_555
H44 C41 1_555 1_555
H45 C41 1_555 1_555
C42 C39 1_555 1_555
H46 C42 1_555 1_555
H47 C42 1_555 1_555
H48 C42 1_555 1_555
O7 S3 1_555 1_555
O8 S3 1_555 1_555
O9 S3 1_555 1_555
S3 C43 1_555 1_555
C43 F7 1_555 1_555
F8 C43 1_555 1_555
F9 C43 1_555 1_555
O10 S4 1_555 1_555
O11 S4 1_555 1_555
O12 S4 1_555 1_555
S4 C44 1_555 1_555
C44 F10 1_555 1_555
F11 C44 1_555 1_555
F12 C44 1_555 1_555
In3 O7 1_555 1_555
N5 In3 1_555 1_555
N6 In3 1_555 1_555
C45 N5 1_555 1_555
H49 C45 1_555 1_555
C46 N6 1_555 1_555
H50 C46 1_555 1_555
C47 N5 1_555 1_555
C48 C47 1_555 1_555
C49 C48 1_555 1_555
H51 C49 1_555 1_555
C50 C49 1_555 1_555
C51 C50 1_555 1_555
H52 C51 1_555 1_555
C52 C47 1_555 1_555
C53 C48 1_555 1_555
H53 C53 1_555 1_555
H54 C53 1_555 1_555
H55 C53 1_555 1_555
C54 C50 1_555 1_555
H56 C54 1_555 1_555
H57 C54 1_555 1_555
H58 C54 1_555 1_555
C55 C52 1_555 1_555
H59 C55 1_555 1_555
H60 C55 1_555 1_555
H61 C55 1_555 1_555
C56 N6 1_555 1_555
C57 C56 1_555 1_555
C58 C57 1_555 1_555
H62 C58 1_555 1_555
C59 C58 1_555 1_555
C60 C59 1_555 1_555
H63 C60 1_555 1_555
C61 C56 1_555 1_555
C62 C57 1_555 1_555
H64 C62 1_555 1_555
H65 C62 1_555 1_555
H66 C62 1_555 1_555
C63 C59 1_555 1_555
H67 C63 1_555 1_555
H68 C63 1_555 1_555
H69 C63 1_555 1_555
C64 C61 1_555 1_555
H70 C64 1_555 1_555
H71 C64 1_555 1_555
H72 C64 1_555 1_555
In4 O8 1_555 1_555
N7 C65 1_555 1_555
N8 C66 1_555 1_555
C65 H73 1_555 1_555
C66 C46 1_555 1_555
H74 C66 1_555 1_555
C67 N7 1_555 1_555
C68 C67 1_555 1_555
C69 C68 1_555 1_555
H75 C69 1_555 1_555
C70 C69 1_555 1_555
C71 C70 1_555 1_555
H76 C71 1_555 1_555
C72 C67 1_555 1_555
C73 C68 1_555 1_555
H77 C73 1_555 1_555
H78 C73 1_555 1_555
H79 C73 1_555 1_555
C74 C70 1_555 1_555
H80 C74 1_555 1_555
H81 C74 1_555 1_555
H82 C74 1_555 1_555
C75 C72 1_555 1_555
H83 C75 1_555 1_555
H84 C75 1_555 1_555
H85 C75 1_555 1_555
C76 N8 1_555 1_555
C77 C76 1_555 1_555
C78 C77 1_555 1_555
H86 C78 1_555 1_555
C79 C78 1_555 1_555
C80 C79 1_555 1_555
H87 C80 1_555 1_555
C81 C76 1_555 1_555
C82 C77 1_555 1_555
H88 C82 1_555 1_555
H89 C82 1_555 1_555
H90 C82 1_555 1_555
C83 C79 1_555 1_555
H91 C83 1_555 1_555
H92 C83 1_555 1_555
H93 C83 1_555 1_555
C84 C81 1_555 1_555
H94 C84 1_555 1_555
H95 C84 1_555 1_555
H96 C84 1_555 1_555
In2_2 N3 1_555 1_555
N3_2 In2 1_555 1_555
N4_2 In2 1_555 1_555
In4_2 N7 1_555 1_555
N7_2 In4 1_555 1_555
N8_2 In4 1_555 1_555
O4 In2 1_555 1_555
O5 In1 1_555 1_555
In1 In2 1_555 1_555
C3 C4 1_555 1_555
C9 C10 1_555 1_555
C18 C19 1_555 1_555
N4 In2_2 1_555 1_555
C23 C24 1_555 1_555
C29 C30 1_555 1_555
C38 C39 1_555 1_555
O10 In4 1_555 1_555
O11 In3 1_555 1_555
In3 In4 1_555 1_555
C45 C46 1_555 1_555
C51 C52 1_555 1_555
C60 C61 1_555 1_555
N8 In4_2 1_555 1_555
C65 C66 1_555 1_555
C71 C72 1_555 1_555
C80 C81 1_555 1_555

#END
