
#######################################################################
#
#                 Cambridge Crystallographic Data Centre
#                                CCDC 
#
#######################################################################
#
# If this CIF has been generated from an entry in the Cambridge 
# Structural Database, then it will include bibliographic, chemical, 
# crystal, experimental, refinement or atomic coordinate data resulting 
# from the CCDC's data processing and validation procedures.
#
#######################################################################

data_GINQOK
_symmetry_cell_setting           monoclinic
_symmetry_space_group_name_H-M   'P 21/n'
_symmetry_Int_Tables_number      14
_space_group_name_Hall           '-P 2yn'
loop_
_symmetry_equiv_pos_site_id
_symmetry_equiv_pos_as_xyz
1 x,y,z
2 1/2-x,1/2+y,1/2-z
3 -x,-y,-z
4 1/2+x,1/2-y,1/2+z
_cell_length_a                   10.1536(7)
_cell_length_b                   18.4953(11)
_cell_length_c                   10.3710(8)
_cell_angle_alpha                90
_cell_angle_beta                 105.270(3)
_cell_angle_gamma                90
_cell_volume                     1878.85
loop_
_atom_site_label
_atom_site_type_symbol
_atom_site_fract_x
_atom_site_fract_y
_atom_site_fract_z
Cu1 Cu 0.40927(4) -0.85882(2) 0.57751(4)
Cu2 Cu 0.42440(4) -0.98168(2) 0.34389(4)
S1 S -0.25692(8) -1.10068(5) 0.16799(8)
O1 O 0.6131(2) -0.84530(13) 0.6465(3)
O2 O 0.2724(2) -1.04960(13) 0.3206(3)
O3 O 0.1058(3) -1.37731(13) 0.1776(3)
O4 O -0.1077(3) -1.37713(15) 0.1916(4)
O5 O -0.3568(2) -1.14490(13) 0.2105(3)
O6 O -0.2333(3) -1.03159(13) 0.2373(3)
O7 O -0.2876(3) -1.09433(19) 0.0238(3)
O8 O 0.4140(2) -0.96295(13) 0.5666(2)
H1 H 0.347(4) -0.974(3) 0.591(5)
O9 O 0.4507(3) -0.99772(17) 0.1474(3)
H2 H 0.534(3) -0.990(4) 0.162(7)
N1 N 0.7948(3) -1.14299(15) 0.5066(3)
N2 N 0.6187(3) -1.24817(15) 0.4367(3)
C1 C 0.1441(3) -1.15608(17) 0.2794(3)
C2 C 0.1373(3) -1.23089(17) 0.2611(3)
H3 H 0.2173 -1.2578 0.2762
C3 C 0.0109(3) -1.26544(16) 0.2203(3)
C4 C -0.1075(3) -1.22470(17) 0.1976(3)
H4 H -0.1920 -1.2475 0.1719
C5 C -0.1011(3) -1.15024(17) 0.2129(3)
C6 C 0.0244(3) -1.11543(17) 0.2535(3)
H5 H 0.0284 -1.0654 0.2633
C7 C 0.2799(3) -1.11740(18) 0.3219(3)
C8 C -0.0007(4) -1.34599(18) 0.1961(3)
C9 C 0.1240(4) -0.9137(2) 0.4528(4)
H6 H 0.1636 -0.9592 0.4550
C10 C -0.0166(4) -0.9081(2) 0.4074(4)
H7 H -0.0706 -0.9487 0.3789
C11 C -0.0736(4) -0.8409(2) 0.4060(4)
H8 H -0.1680 -0.8354 0.3791
C12 C 0.0095(4) -0.7810(2) 0.4445(4)
H9 H -0.0283 -0.7351 0.4420
C13 C 0.1498(3) -0.79037(19) 0.4869(3)
C14 C 0.2493(4) -0.73057(19) 0.5229(3)
C15 C 0.2129(4) -0.6583(2) 0.5109(4)
H10 H 0.1215 -0.6448 0.4848
C16 C 0.3149(5) -0.6065(2) 0.5383(4)
H11 H 0.2927 -0.5576 0.5317
C17 C 0.4497(5) -0.6281(2) 0.5756(4)
H12 H 0.5196 -0.5941 0.5921
C18 C 0.4790(4) -0.7012(2) 0.5880(4)
H13 H 0.5698 -0.7157 0.6146
H14 H 0.401(6) -0.969(3) 0.095(5)
Cu1B Cu 0.59073(4) -1.14118(2) 0.42249(4)
Cu1B_2 Cu -0.40927(4) -1.14118(2) 0.42249(4)
Cu1_2 Cu 1.40927(4) -0.85882(2) 0.57751(4)
Cu2B Cu 0.57560(4) -1.01832(2) 0.65611(4)
Cu2A Cu 0.07560(4) -1.48168(2) 0.15611(4)
Cu2C Cu 0.92440(4) -0.51832(2) 0.84389(4)
S1B S 1.25692(8) -0.89932(5) 0.83201(8)
O1B O 0.3869(2) -1.15470(13) 0.3535(3)
O2B O 0.7276(2) -0.95040(13) 0.6794(3)
O3A O 0.3942(3) -0.87731(13) 0.3224(3)
O3C O 0.6058(3) -1.12269(13) 0.6776(3)
O3B O 0.8942(3) -0.62269(13) 0.8224(3)
O4B O 1.1077(3) -0.62287(15) 0.8084(4)
O5B O 0.3568(2) -0.85510(13) 0.7895(3)
O5_2 O 0.6432(2) -1.14490(13) 0.2105(3)
O5B_2 O 1.3568(2) -0.85510(13) 0.7895(3)
O6B O 1.2333(3) -0.96841(13) 0.7627(3)
O7B O 1.2876(3) -0.90567(19) 0.9762(3)
O8B O 0.5860(2) -1.03705(13) 0.4334(2)
H1B H 0.653(4) -1.026(3) 0.409(5)
O9B O 0.5493(3) -1.00228(17) 0.8526(3)
H2B H 0.466(3) -1.010(4) 0.838(7)
N1B N 0.2052(3) -0.85701(15) 0.4934(3)
N2B N 0.3813(3) -0.75183(15) 0.5633(3)
C1B C 0.8559(3) -0.84392(17) 0.7206(3)
C2B C 0.8627(3) -0.76911(17) 0.7389(3)
H3B H 0.7827 -0.7422 0.7238
C3B C 0.9891(3) -0.73456(16) 0.7797(3)
C4B C 1.1075(3) -0.77530(17) 0.8024(3)
H4B H 1.1920 -0.7525 0.8281
C5B C 1.1011(3) -0.84976(17) 0.7871(3)
C6B C 0.9756(3) -0.88457(17) 0.7465(3)
H5B H 0.9716 -0.9346 0.7367
C7B C 0.7201(3) -0.88260(18) 0.6781(3)
C8B C 1.0007(4) -0.65401(18) 0.8039(3)
C9B C 0.8760(4) -1.0863(2) 0.5472(4)
H6B H 0.8364 -1.0408 0.5450
C10B C 1.0166(4) -1.0919(2) 0.5926(4)
H7B H 1.0706 -1.0513 0.6211
C11B C 1.0736(4) -1.1591(2) 0.5940(4)
H8B H 1.1680 -1.1646 0.6209
C12B C 0.9905(4) -1.2190(2) 0.5555(4)
H9B H 1.0283 -1.2649 0.5580
C13B C 0.8502(3) -1.20963(19) 0.5131(3)
C14B C 0.7507(4) -1.26943(19) 0.4771(3)
C15B C 0.7871(4) -1.3417(2) 0.4891(4)
H10B H 0.8785 -1.3552 0.5152
C16B C 0.6851(5) -1.3935(2) 0.4617(4)
H11B H 0.7073 -1.4424 0.4683
C17B C 0.5503(5) -1.3719(2) 0.4244(4)
H12B H 0.4804 -1.4059 0.4079
C18B C 0.5210(4) -1.2988(2) 0.4120(4)
H13B H 0.4302 -1.2843 0.3854
H14B H 0.599(6) -1.031(3) 0.905(5)
loop_
_geom_bond_atom_site_label_1
_geom_bond_atom_site_label_2
_geom_bond_site_symmetry_1
_geom_bond_site_symmetry_2
Cu1 O1 1_555 1_555
Cu2 O2 1_555 1_555
S1 O5 1_555 1_555
O1 C7B 1_555 1_555
O2 C7 1_555 1_555
O3 C8 1_555 1_555
O4 C8 1_555 1_555
O5 Cu1B_2 1_555 1_555
O6 S1 1_555 1_555
O7 S1 1_555 1_555
O8 Cu1 1_555 1_555
H1 O8 1_555 1_555
O9 Cu2 1_555 1_555
H2 O9 1_555 1_555
N1 Cu1B 1_555 1_555
N2 Cu1B 1_555 1_555
C1 C2 1_555 1_555
C2 H3 1_555 1_555
C3 C2 1_555 1_555
C4 C3 1_555 1_555
H4 C4 1_555 1_555
C5 S1 1_555 1_555
C6 C1 1_555 1_555
H5 C6 1_555 1_555
C7 C1 1_555 1_555
C8 C3 1_555 1_555
C9 H6 1_555 1_555
C10 C9 1_555 1_555
H7 C10 1_555 1_555
C11 C10 1_555 1_555
H8 C11 1_555 1_555
C12 C11 1_555 1_555
H9 C12 1_555 1_555
C13 C12 1_555 1_555
C14 C13 1_555 1_555
C15 C14 1_555 1_555
H10 C15 1_555 1_555
C16 C15 1_555 1_555
H11 C16 1_555 1_555
C17 C16 1_555 1_555
H12 C17 1_555 1_555
C18 C17 1_555 1_555
H13 C18 1_555 1_555
H14 O9 1_555 1_555
Cu1B O1B 1_555 1_555
Cu1_2 O5B_2 1_555 1_555
Cu2B O8 1_555 1_555
Cu2A O3 1_555 1_555
Cu2C O3B 1_555 1_555
S1B O5B_2 1_555 1_555
O1B C7 1_555 1_555
O2B Cu2B 1_555 1_555
O3A Cu2 1_555 1_555
O3C Cu2B 1_555 1_555
O3B C8B 1_555 1_555
O4B C8B 1_555 1_555
O5B Cu1 1_555 1_555
O5_2 Cu1B 1_555 1_555
O6B S1B 1_555 1_555
O7B S1B 1_555 1_555
O8B Cu2 1_555 1_555
H1B O8B 1_555 1_555
O9B Cu2B 1_555 1_555
H2B O9B 1_555 1_555
N1B Cu1 1_555 1_555
N2B Cu1 1_555 1_555
C1B C2B 1_555 1_555
C2B H3B 1_555 1_555
C3B C2B 1_555 1_555
C4B C3B 1_555 1_555
H4B C4B 1_555 1_555
C5B S1B 1_555 1_555
C6B C1B 1_555 1_555
H5B C6B 1_555 1_555
C7B O2B 1_555 1_555
C8B C3B 1_555 1_555
C9B N1 1_555 1_555
H6B C9B 1_555 1_555
C10B C9B 1_555 1_555
H7B C10B 1_555 1_555
C11B C10B 1_555 1_555
H8B C11B 1_555 1_555
C12B C11B 1_555 1_555
H9B C12B 1_555 1_555
C13B N1 1_555 1_555
C14B N2 1_555 1_555
C15B C14B 1_555 1_555
H10B C15B 1_555 1_555
C16B C15B 1_555 1_555
H11B C16B 1_555 1_555
C17B C16B 1_555 1_555
H12B C17B 1_555 1_555
C18B N2 1_555 1_555
H13B C18B 1_555 1_555
H14B O9B 1_555 1_555
Cu2 O8 1_555 1_555
C4 C5 1_555 1_555
C5 C6 1_555 1_555
C9 N1B 1_555 1_555
C13 N1B 1_555 1_555
C14 N2B 1_555 1_555
C18 N2B 1_555 1_555
Cu1B O8B 1_555 1_555
Cu2B O8B 1_555 1_555
C1B C7B 1_555 1_555
C4B C5B 1_555 1_555
C5B C6B 1_555 1_555
C12B C13B 1_555 1_555
C13B C14B 1_555 1_555
C17B C18B 1_555 1_555

#END
