
#######################################################################
#
#                 Cambridge Crystallographic Data Centre
#                                CCDC 
#
#######################################################################
#
# If this CIF has been generated from an entry in the Cambridge 
# Structural Database, then it will include bibliographic, chemical, 
# crystal, experimental, refinement or atomic coordinate data resulting 
# from the CCDC's data processing and validation procedures.
#
#######################################################################

data_GINRUR
_symmetry_cell_setting           monoclinic
_symmetry_space_group_name_H-M   'P 21/c'
_symmetry_Int_Tables_number      14
_space_group_name_Hall           '-P 2ybc'
loop_
_symmetry_equiv_pos_site_id
_symmetry_equiv_pos_as_xyz
1 x,y,z
2 -x,1/2+y,1/2-z
3 -x,-y,-z
4 x,1/2-y,1/2+z
_cell_length_a                   8.4903(19)
_cell_length_b                   16.417(4)
_cell_length_c                   16.134(4)
_cell_angle_alpha                90.00
_cell_angle_beta                 97.919(3)
_cell_angle_gamma                90.00
_cell_volume                     2227.4
loop_
_atom_site_label
_atom_site_type_symbol
_atom_site_fract_x
_atom_site_fract_y
_atom_site_fract_z
Cu1 Cu 1.02157(6) 0.34231(3) 0.79741(3)
N1 N 0.8267(4) 0.3817(2) 0.8433(2)
N2 N 0.3953(4) 0.46255(19) 0.9124(2)
H1 H 0.3461 0.4245 0.9351
N3 N 0.3798(4) 0.60172(19) 0.8740(2)
N4 N 0.3607(4) 0.7427(2) 0.8414(3)
H2 H 0.3023 0.7850 0.8449
N5 N 0.7832(4) 0.8051(2) 0.7512(2)
O1 O 1.0354(3) 0.24713(17) 0.87135(19)
O2 O 1.1890(4) 0.33474(18) 0.9479(2)
O3 O 1.0123(4) 0.4382(2) 0.7260(2)
O4 O 0.8304(5) 0.3808(2) 0.6323(3)
C1 C 0.7232(5) 0.3310(2) 0.8748(3)
H3 H 0.7484 0.2759 0.8799
C2 C 0.5833(5) 0.3570(2) 0.8994(3)
H4 H 0.5169 0.3198 0.9210
C3 C 0.5398(4) 0.4399(2) 0.8923(2)
C4 C 0.6526(4) 0.4931(2) 0.8661(3)
H5 H 0.6356 0.5490 0.8656
C5 C 0.7880(5) 0.4615(2) 0.8413(3)
H6 H 0.8585 0.4978 0.8217
C6 C 0.3123(4) 0.5364(2) 0.9030(2)
C7 C 0.1609(5) 0.5365(2) 0.9265(3)
H7 H 0.1186 0.4897 0.9473
C8 C 0.0753(5) 0.6080(2) 0.9182(3)
H8 H -0.0267 0.6100 0.9330
C9 C 0.1414(5) 0.6762(3) 0.8881(3)
H9 H 0.0855 0.7250 0.8816
C10 C 0.2951(5) 0.6701(2) 0.8673(3)
C11 C 0.5006(5) 0.7582(3) 0.8115(3)
C12 C 0.5499(5) 0.8405(2) 0.8104(3)
H10 H 0.4886 0.8811 0.8304
C13 C 0.6857(5) 0.8603(3) 0.7805(3)
H11 H 0.7140 0.9150 0.7798
C14 C 0.7372(5) 0.7272(3) 0.7515(3)
H12 H 0.8014 0.6882 0.7310
C15 C 0.5991(5) 0.7009(2) 0.7807(3)
H13 H 0.5728 0.6459 0.7796
C16 C 1.1260(5) 0.2668(2) 0.9378(3)
C17 C 1.1540(6) 0.2034(3) 1.0060(3)
H14 H 1.2430 0.1700 0.9971
H15 H 1.0610 0.1700 1.0049
H16 H 1.1760 0.2299 1.0594
C18 C 0.9151(6) 0.4381(3) 0.6590(3)
C19 C 0.9049(9) 0.5168(4) 0.6114(5)
H17 H 0.9674 0.5130 0.5663
H18 H 0.9445 0.5603 0.6482
H19 H 0.7960 0.5274 0.5891
Cu1A Cu 0.97843(6) 0.84231(3) 0.70259(3)
N5A N 1.2168(4) 0.3051(2) 0.7488(2)
O5 O 0.403(2) 0.5692(11) 0.5961(9)
H20 H 0.3951 0.5202 0.5867
C20 C 0.412(2) 0.6099(14) 0.5230(12)
H21 H 0.3228 0.6458 0.5113
H22 H 0.4118 0.5714 0.4782
H23 H 0.5089 0.6411 0.5283
loop_
_geom_bond_atom_site_label_1
_geom_bond_atom_site_label_2
_geom_bond_site_symmetry_1
_geom_bond_site_symmetry_2
Cu1 N1 1_555 1_555
N1 C1 1_555 1_555
N2 H1 1_555 1_555
N3 C6 1_555 1_555
N4 H2 1_555 1_555
N5 C13 1_555 1_555
O1 Cu1 1_555 1_555
O2 C16 1_555 1_555
O3 Cu1 1_555 1_555
O4 C18 1_555 1_555
C1 H3 1_555 1_555
C2 C1 1_555 1_555
H4 C2 1_555 1_555
C3 N2 1_555 1_555
C4 C3 1_555 1_555
H5 C4 1_555 1_555
C5 N1 1_555 1_555
H6 C5 1_555 1_555
C6 N2 1_555 1_555
C7 C6 1_555 1_555
H7 C7 1_555 1_555
C8 C7 1_555 1_555
H8 C8 1_555 1_555
C9 C8 1_555 1_555
H9 C9 1_555 1_555
C10 N3 1_555 1_555
C11 N4 1_555 1_555
C12 C11 1_555 1_555
H10 C12 1_555 1_555
C13 C12 1_555 1_555
H11 C13 1_555 1_555
C14 N5 1_555 1_555
H12 C14 1_555 1_555
C15 C11 1_555 1_555
H13 C15 1_555 1_555
C16 O1 1_555 1_555
C17 C16 1_555 1_555
H14 C17 1_555 1_555
H15 C17 1_555 1_555
H16 C17 1_555 1_555
C18 O3 1_555 1_555
C19 C18 1_555 1_555
H17 C19 1_555 1_555
H18 C19 1_555 1_555
H19 C19 1_555 1_555
O5 H20 1_555 1_555
C20 O5 1_555 1_555
H21 C20 1_555 1_555
H22 C20 1_555 1_555
H23 C20 1_555 1_555
Cu1A N5 1_555 1_555
N5A Cu1 1_555 1_555
N4 C10 1_555 1_555
C2 C3 1_555 1_555
C4 C5 1_555 1_555
C9 C10 1_555 1_555
C14 C15 1_555 1_555

#END
