
#######################################################################
#
#                 Cambridge Crystallographic Data Centre
#                                CCDC 
#
#######################################################################
#
# If this CIF has been generated from an entry in the Cambridge 
# Structural Database, then it will include bibliographic, chemical, 
# crystal, experimental, refinement or atomic coordinate data resulting 
# from the CCDC's data processing and validation procedures.
#
#######################################################################

data_GINREB
_symmetry_cell_setting           monoclinic
_symmetry_space_group_name_H-M   'P 21/c'
_symmetry_Int_Tables_number      14
_space_group_name_Hall           '-P 2ybc'
loop_
_symmetry_equiv_pos_site_id
_symmetry_equiv_pos_as_xyz
1 x,y,z
2 -x,1/2+y,1/2-z
3 -x,-y,-z
4 x,1/2-y,1/2+z
_cell_length_a                   12.034(4)
_cell_length_b                   6.9900(19)
_cell_length_c                   13.295(4)
_cell_angle_alpha                90
_cell_angle_beta                 94.019(3)
_cell_angle_gamma                90
_cell_volume                     1115.59
loop_
_atom_site_label
_atom_site_type_symbol
_atom_site_fract_x
_atom_site_fract_y
_atom_site_fract_z
Cu1 Cu -0.03091(6) 0.15182(9) -0.09671(4)
C1 C -0.2438(6) 0.3271(11) -0.1251(11)
H1 H -0.2452 0.3196 -0.1988
C2 C -0.2674(7) 0.1378(11) -0.1044(11)
H2 H -0.2631 0.1472 -0.0307
C3 C -0.3807(7) 0.0615(13) -0.1187(9)
H3 H -0.3896 -0.0430 -0.0731
H4 H -0.3921 0.0140 -0.1864
C4 C -0.4640(9) 0.206(2) -0.1013(15)
H5 H -0.4701 0.2171 -0.0300
H6 H -0.5350 0.1643 -0.1306
C5 C -0.4422(10) 0.390(2) -0.1447(17)
H7 H -0.4961 0.4772 -0.1204
H8 H -0.4538 0.3866 -0.2169
C6 C -0.3327(8) 0.4699(13) -0.1159(8)
H9 H -0.3188 0.5747 -0.1600
H10 H -0.3293 0.5179 -0.0481
N1 N -0.1296(4) 0.3846(7) -0.1041(4)
H11 H -0.1225 0.4484 -0.0452
H12 H -0.1090 0.4633 -0.1531
N2 N -0.1751(4) 0.0055(7) -0.1135(3)
H13 H -0.1812 -0.0515 -0.1743
H14 H -0.1764 -0.0858 -0.0659
N3 N 0.0581(4) -0.0921(7) -0.0951(4)
N4 N 0.0358(4) -0.2112(6) -0.1575(3)
N5 N 0.0144(5) -0.3286(7) -0.2167(4)
N6 N 0.1069(4) 0.3034(7) -0.0610(4)
N7 N 0.1767(5) 0.3120(8) -0.1190(4)
N8 N 0.2464(6) 0.3228(12) -0.1746(6)
N3B N -0.0581(4) 0.0921(7) 0.0951(4)
N5A N -0.0144(5) 0.1714(7) -0.2833(4)
Cu1B Cu 0.03091(6) -0.15182(9) 0.09671(4)
Cu1A Cu 0.03091(6) -0.34818(9) -0.40329(4)
loop_
_geom_bond_atom_site_label_1
_geom_bond_atom_site_label_2
_geom_bond_site_symmetry_1
_geom_bond_site_symmetry_2
Cu1 N1 1_555 1_555
C1 H1 1_555 1_555
C2 C1 1_555 1_555
H2 C2 1_555 1_555
C3 C2 1_555 1_555
H3 C3 1_555 1_555
H4 C3 1_555 1_555
C4 C3 1_555 1_555
H5 C4 1_555 1_555
H6 C4 1_555 1_555
C5 C4 1_555 1_555
H7 C5 1_555 1_555
H8 C5 1_555 1_555
C6 C1 1_555 1_555
H9 C6 1_555 1_555
H10 C6 1_555 1_555
N1 C1 1_555 1_555
H11 N1 1_555 1_555
H12 N1 1_555 1_555
N2 Cu1 1_555 1_555
H13 N2 1_555 1_555
H14 N2 1_555 1_555
N3 Cu1 1_555 1_555
N4 N3 1_555 1_555
N5 N4 1_555 1_555
N6 Cu1 1_555 1_555
N7 N6 1_555 1_555
N8 N7 1_555 1_555
N3B Cu1 1_555 1_555
N5A Cu1 1_555 1_555
Cu1B N3 1_555 1_555
Cu1A N5 1_555 1_555
C2 N2 1_555 1_555
C5 C6 1_555 1_555
N3B Cu1B 1_555 1_555

#END
