
#######################################################################
#
#                 Cambridge Crystallographic Data Centre
#                                CCDC 
#
#######################################################################
#
# If this CIF has been generated from an entry in the Cambridge 
# Structural Database, then it will include bibliographic, chemical, 
# crystal, experimental, refinement or atomic coordinate data resulting 
# from the CCDC's data processing and validation procedures.
#
#######################################################################

data_GINTAA01
_symmetry_cell_setting           monoclinic
_symmetry_space_group_name_H-M   'P 21/c'
_symmetry_Int_Tables_number      14
_space_group_name_Hall           '-P 2ybc'
loop_
_symmetry_equiv_pos_site_id
_symmetry_equiv_pos_as_xyz
1 x,y,z
2 -x,1/2+y,1/2-z
3 -x,-y,-z
4 x,1/2-y,1/2+z
_cell_length_a                   10.3002(6)
_cell_length_b                   14.1298(11)
_cell_length_c                   14.8628(13)
_cell_angle_alpha                90
_cell_angle_beta                 101.989(6)
_cell_angle_gamma                90
_cell_volume                     2115.95
loop_
_atom_site_label
_atom_site_type_symbol
_atom_site_fract_x
_atom_site_fract_y
_atom_site_fract_z
Zn1 Zn 1.75091(5) 0.67740(4) 0.01914(5)
C1 C 1.5013(4) 0.7216(4) 0.0356(4)
C2 C 1.3785(4) 0.7807(4) 0.0322(4)
H1 H 1.3692 0.8244 -0.0191
H2 H 1.3894 0.8178 0.0882
C3 C 1.2528(3) 0.7221(4) 0.0219(3)
H3 H 1.2598 0.6813 0.0752
H4 H 1.2451 0.6819 -0.0319
C4 C 1.1273(4) 0.7820(4) 0.0122(4)
H5 H 1.1174 0.8203 -0.0429
H6 H 1.1366 0.8245 0.0644
C5 C 1.0023(4) 0.7219(4) 0.0070(4)
C6 C 1.7698(5) 0.5993(5) 0.2113(4)
H7 H 1.7233 0.6498 0.2295
C7 C 1.8180(5) 0.5258(5) 0.2651(4)
H8 H 1.8122 0.5160 0.3260
C8 C 1.8640(4) 0.5090(4) 0.1284(3)
H9 H 1.8962 0.4839 0.0795
C9 C 1.9361(5) 0.3749(4) 0.2378(4)
H10 H 1.9890 0.3790 0.2998
H11 H 1.9955 0.3589 0.1973
C10 C 1.8372(5) 0.2957(4) 0.2346(3)
C11 C 1.8844(5) 0.2056(5) 0.2533(4)
H12 H 1.9756 0.1954 0.2669
C12 C 1.7997(5) 0.1296(5) 0.2525(4)
H13 H 1.8344 0.0692 0.2657
C13 C 1.6618(5) 0.1429(5) 0.2319(4)
C14 C 1.6154(5) 0.2330(4) 0.2119(4)
H14 H 1.5242 0.2433 0.1977
C15 C 1.6992(5) 0.3081(4) 0.2121(4)
H15 H 1.6642 0.3681 0.1972
C16 C 1.5649(6) 0.0637(5) 0.2322(5)
H16 H 1.4938 0.0863 0.2603
H17 H 1.5261 0.0471 0.1690
C17 C 1.7296(5) -0.1542(5) 0.3168(4)
H18 H 1.7746 -0.2106 0.3130
C18 C 1.6842(5) -0.0953(5) 0.2464(4)
H19 H 1.6934 -0.1028 0.1859
C19 C 1.6326(4) -0.0388(4) 0.3700(4)
H20 H 1.5980 0.0001 0.4098
O1 O 1.6099(3) 0.7674(3) 0.0346(3)
O2 O 1.4985(3) 0.6352(3) 0.0387(3)
O3 O 1.0025(3) 0.6371(3) -0.0081(3)
O4 O 0.8982(3) 0.7671(3) 0.0192(3)
N1 N 1.7986(4) 0.5894(3) 0.1257(3)
N2 N 1.8779(4) 0.4681(3) 0.2114(3)
N3 N 1.6987(4) -0.1175(3) 0.3951(3)
N4 N 1.6216(4) -0.0217(4) 0.2806(3)
Zn1_2 Zn 0.75091(5) 0.67740(4) 0.01914(5)
Zn1C Zn 1.75091(5) -0.17740(4) 0.51914(5)
O4_2 O 1.8982(3) 0.7671(3) 0.0192(3)
N3C N 1.6987(4) 0.6175(3) -0.1049(3)
O5 O 1.6211(4) 0.9575(3) -0.0009(4)
H21 H 1.5996 0.9177 -0.0218
H22 H 1.5873 1.0114 -0.0164
O6 O 1.8934(4) 0.9621(3) 0.0277(4)
H23 H 1.8098 0.9651 0.0086
H24 H 1.9139 0.9067 0.0130
loop_
_geom_bond_atom_site_label_1
_geom_bond_atom_site_label_2
_geom_bond_site_symmetry_1
_geom_bond_site_symmetry_2
Zn1 O1 1_555 1_555
C1 C2 1_555 1_555
C2 H1 1_555 1_555
H2 C2 1_555 1_555
C3 C2 1_555 1_555
H3 C3 1_555 1_555
H4 C3 1_555 1_555
C4 C3 1_555 1_555
H5 C4 1_555 1_555
H6 C4 1_555 1_555
C5 C4 1_555 1_555
C6 H7 1_555 1_555
C7 C6 1_555 1_555
H8 C7 1_555 1_555
C8 H9 1_555 1_555
C9 H10 1_555 1_555
H11 C9 1_555 1_555
C10 C9 1_555 1_555
C11 C10 1_555 1_555
H12 C11 1_555 1_555
C12 C11 1_555 1_555
H13 C12 1_555 1_555
C13 C12 1_555 1_555
C14 C13 1_555 1_555
H14 C14 1_555 1_555
C15 C10 1_555 1_555
H15 C15 1_555 1_555
C16 C13 1_555 1_555
H16 C16 1_555 1_555
H17 C16 1_555 1_555
C17 H18 1_555 1_555
C18 C17 1_555 1_555
H19 C18 1_555 1_555
C19 H20 1_555 1_555
O1 C1 1_555 1_555
O2 C1 1_555 1_555
O3 C5 1_555 1_555
O4 C5 1_555 1_555
N1 Zn1 1_555 1_555
N2 C7 1_555 1_555
N3 C17 1_555 1_555
N4 C16 1_555 1_555
O5 H21 1_555 1_555
H22 O5 1_555 1_555
O6 H23 1_555 1_555
H24 O6 1_555 1_555
Zn1_2 O4 1_555 1_555
Zn1C N3 1_555 1_555
O4_2 Zn1 1_555 1_555
N3C Zn1 1_555 1_555
C6 N1 1_555 1_555
C8 N1 1_555 1_555
C8 N2 1_555 1_555
C9 N2 1_555 1_555
C14 C15 1_555 1_555
C18 N4 1_555 1_555
C19 N3 1_555 1_555
C19 N4 1_555 1_555

#END
