
#######################################################################
#
#                 Cambridge Crystallographic Data Centre
#                                CCDC 
#
#######################################################################
#
# If this CIF has been generated from an entry in the Cambridge 
# Structural Database, then it will include bibliographic, chemical, 
# crystal, experimental, refinement or atomic coordinate data resulting 
# from the CCDC's data processing and validation procedures.
#
#######################################################################

data_GINTAA
_symmetry_cell_setting           monoclinic
_symmetry_space_group_name_H-M   'P 21/c'
_symmetry_Int_Tables_number      14
_space_group_name_Hall           '-P 2ybc'
loop_
_symmetry_equiv_pos_site_id
_symmetry_equiv_pos_as_xyz
1 x,y,z
2 -x,1/2+y,1/2-z
3 -x,-y,-z
4 x,1/2-y,1/2+z
_cell_length_a                   9.3372(4)
_cell_length_b                   27.6573(12)
_cell_length_c                   9.0717(4)
_cell_angle_alpha                90
_cell_angle_beta                 116.2180(10)
_cell_angle_gamma                90
_cell_volume                     2101.67
loop_
_atom_site_label
_atom_site_type_symbol
_atom_site_fract_x
_atom_site_fract_y
_atom_site_fract_z
Zn1 Zn 0.67671(3) 1.077120(9) 0.68113(3)
N1 N 0.8264(2) 1.02355(7) 0.6720(2)
N2 N 0.9127(3) 0.95929(7) 0.5940(3)
N3 N 1.1802(2) 0.63539(7) 0.7507(3)
N4 N 1.0351(3) 0.69598(8) 0.7617(3)
O1 O 0.4988(2) 1.06623(6) 0.4669(2)
O2 O 0.5545(3) 1.12960(8) 0.3561(2)
O3 O 0.6560(2) 1.05432(7) -0.1217(2)
O4 O 0.4774(3) 1.11142(8) -0.2088(3)
C1 C 0.4770(3) 1.09281(9) 0.3459(3)
C2 C 0.3445(3) 1.07752(10) 0.1828(3)
H1 H 0.2453 1.0916 0.1721
H2 H 0.3335 1.0426 0.1830
C3 C 0.3691(3) 1.09188(10) 0.0334(3)
H3 H 0.2774 1.0816 -0.0657
H4 H 0.3767 1.1268 0.0299
C4 C 0.5172(4) 1.06961(10) 0.0375(4)
H5 H 0.5111 1.0349 0.0484
H6 H 0.6081 1.0811 0.1350
C5 C 0.5484(3) 1.07954(8) -0.1096(3)
C6 C 0.7938(3) 0.99080(8) 0.5551(3)
H7 H 0.6996 0.9899 0.4580
C7 C 0.9739(3) 1.01143(9) 0.7915(3)
H8 H 1.0288 1.0281 0.8897
C8 C 1.0280(3) 0.97191(9) 0.7459(4)
H9 H 1.1247 0.9562 0.8059
C9 C 0.9167(4) 0.91814(8) 0.4921(4)
H10 H 1.0051 0.9224 0.4645
H11 H 0.8189 0.9178 0.3904
C10 C 0.9346(3) 0.87046(8) 0.5786(3)
C11 C 1.0832(3) 0.85077(10) 0.6737(4)
H12 H 1.1744 0.8669 0.6833
C12 C 1.0980(4) 0.80720(11) 0.7550(4)
H13 H 1.1987 0.7944 0.8195
C13 C 0.9637(3) 0.78279(9) 0.7406(3)
C14 C 0.8167(3) 0.80219(9) 0.6447(3)
H14 H 0.7255 0.7858 0.6339
C15 C 0.8013(3) 0.84561(8) 0.5638(3)
H15 H 0.7003 0.8581 0.4990
C16 C 0.9782(5) 0.73556(11) 0.8305(4)
H16 H 1.0518 0.7398 0.9455
H17 H 0.8749 0.7270 0.8241
C17 C 1.1668(4) 0.66961(9) 0.8443(3)
H18 H 1.2392 0.6748 0.9533
C18 C 1.0511(3) 0.64094(9) 0.6005(3)
H19 H 1.0293 0.6218 0.5087
C19 C 0.9605(3) 0.67821(10) 0.6058(4)
H20 H 0.8665 0.6895 0.5206
Zn1_2 Zn 0.67671(3) 1.077120(9) -0.31887(3)
Zn1A Zn 1.32329(3) 0.577120(9) 0.81887(3)
N3A N 0.8198(2) 1.13539(7) 0.7493(3)
O3_2 O 0.6560(2) 1.05432(7) 0.8783(2)
O5 O 0.5330(6) 0.78243(10) 0.8165(5)
H21 H 0.480(5) 0.8054(14) 0.758(5)
H22 H 0.529(4) 0.7841(13) 0.907(3)
O6 O 0.5225(6) 0.70895(12) 0.6112(5)
H23 H 0.500(6) 0.7269(15) 0.671(5)
H24 H 0.523(6) 0.6812(9) 0.644(6)
loop_
_geom_bond_atom_site_label_1
_geom_bond_atom_site_label_2
_geom_bond_site_symmetry_1
_geom_bond_site_symmetry_2
Zn1 N1 1_555 1_555
N1 C6 1_555 1_555
N2 C6 1_555 1_555
N3 C17 1_555 1_555
N4 C16 1_555 1_555
O1 Zn1 1_555 1_555
O2 C1 1_555 1_555
O3 C5 1_555 1_555
O4 C5 1_555 1_555
C1 O1 1_555 1_555
C2 C1 1_555 1_555
H1 C2 1_555 1_555
H2 C2 1_555 1_555
C3 C2 1_555 1_555
H3 C3 1_555 1_555
H4 C3 1_555 1_555
C4 C3 1_555 1_555
H5 C4 1_555 1_555
H6 C4 1_555 1_555
C5 C4 1_555 1_555
C6 H7 1_555 1_555
C7 N1 1_555 1_555
H8 C7 1_555 1_555
C8 N2 1_555 1_555
H9 C8 1_555 1_555
C9 N2 1_555 1_555
H10 C9 1_555 1_555
H11 C9 1_555 1_555
C10 C9 1_555 1_555
C11 C10 1_555 1_555
H12 C11 1_555 1_555
C12 C11 1_555 1_555
H13 C12 1_555 1_555
C13 C12 1_555 1_555
C14 C13 1_555 1_555
H14 C14 1_555 1_555
C15 C10 1_555 1_555
H15 C15 1_555 1_555
C16 C13 1_555 1_555
H16 C16 1_555 1_555
H17 C16 1_555 1_555
C17 N4 1_555 1_555
H18 C17 1_555 1_555
C18 N3 1_555 1_555
H19 C18 1_555 1_555
C19 N4 1_555 1_555
H20 C19 1_555 1_555
O5 H21 1_555 1_555
H22 O5 1_555 1_555
O6 H23 1_555 1_555
H24 O6 1_555 1_555
Zn1_2 O3 1_555 1_555
Zn1A N3 1_555 1_555
N3A Zn1 1_555 1_555
O3_2 Zn1 1_555 1_555
C7 C8 1_555 1_555
C14 C15 1_555 1_555
C18 C19 1_555 1_555

#END
