
#######################################################################
#
#                 Cambridge Crystallographic Data Centre
#                                CCDC 
#
#######################################################################
#
# If this CIF has been generated from an entry in the Cambridge 
# Structural Database, then it will include bibliographic, chemical, 
# crystal, experimental, refinement or atomic coordinate data resulting 
# from the CCDC's data processing and validation procedures.
#
#######################################################################

data_GINTUT
_symmetry_cell_setting           monoclinic
_symmetry_space_group_name_H-M   'I 2/a'
_symmetry_Int_Tables_number      15
_space_group_name_Hall           '-I 2ya'
loop_
_symmetry_equiv_pos_site_id
_symmetry_equiv_pos_as_xyz
1 x,y,z
2 1/2+x,1/2+y,1/2+z
3 1/2-x,y,-z
4 -x,1/2+y,1/2-z
5 -x,-y,-z
6 1/2-x,1/2-y,1/2-z
7 1/2+x,-y,z
8 x,1/2-y,1/2+z
_cell_length_a                   9.6461(10)
_cell_length_b                   17.2736(13)
_cell_length_c                   13.0344(13)
_cell_angle_alpha                90
_cell_angle_beta                 110.808(11)
_cell_angle_gamma                90
_cell_volume                     2030.17
loop_
_atom_site_label
_atom_site_type_symbol
_atom_site_fract_x
_atom_site_fract_y
_atom_site_fract_z
Cu1 Cu 0.7500 0.18122(2) 0.0000
Cu2 Cu 0.77859(3) 0.006817(15) 0.11919(2)
P1 P 0.47036(6) 0.10138(3) 0.03421(5)
O1 O 0.63281(18) 0.08739(9) 0.04207(13)
O2 O 0.44321(19) 0.06248(9) 0.12995(13)
O3 O 0.35962(19) 0.07719(9) -0.07729(13)
O4 O 0.2817(3) 0.34242(11) -0.22818(15)
H1 H 0.248(4) 0.368(2) -0.274(3)
O5 O 0.3212(2) 0.45220(11) -0.13259(16)
O6 O 0.5926(2) 0.42704(9) 0.27421(13)
O7 O 0.6302(2) 0.30795(10) 0.34850(13)
O8 O 0.7500 0.29461(14) 0.0000
H2 H 0.791(5) 0.320(2) 0.052(3)
C1 C 0.4568(2) 0.20513(12) 0.04426(18)
C2 C 0.3969(3) 0.25190(13) -0.04820(18)
H5 H 0.355(3) 0.2312(16) -0.115(2)
C3 C 0.3977(3) 0.33237(13) -0.03727(18)
C4 C 0.5174(3) 0.31953(12) 0.15758(18)
C5 C 0.4599(3) 0.36665(13) 0.06556(18)
H6 H 0.461(3) 0.4181(19) 0.072(2)
C6 C 0.5159(3) 0.23938(13) 0.14738(18)
H7 H 0.551(4) 0.2122(17) 0.205(3)
C7 C 0.3313(3) 0.38274(14) -0.13553(19)
C8 C 0.5860(3) 0.35438(13) 0.26905(18)
Cu1G Cu 0.7500 0.31878(2) 0.5000
Cu1G_2 Cu 0.7500 0.31878(2) -0.5000
Cu2B Cu 0.72141(3) 0.006817(15) -0.11919(2)
Cu2F Cu 0.27859(3) -0.006817(15) 0.11919(2)
Cu2D Cu 0.22141(3) -0.006817(15) -0.11919(2)
Cu2E Cu 0.72141(3) 0.493183(15) 0.38081(2)
Cu2D_2 Cu 1.22141(3) -0.006817(15) -0.11919(2)
Cu2F_2 Cu 1.27859(3) -0.006817(15) 0.11919(2)
Cu2G Cu 0.77859(3) 0.493183(15) -0.38081(2)
P1B P 1.02964(6) 0.10138(3) -0.03421(5)
O1B O 0.86719(18) 0.08739(9) -0.04207(13)
O2B O 1.05679(19) 0.06248(9) -0.12995(13)
O2F O 0.94321(19) -0.06248(9) 0.12995(13)
O2D O 0.55679(19) -0.06248(9) -0.12995(13)
O3B O 1.14038(19) 0.07719(9) 0.07729(13)
O3D O 0.64038(19) -0.07719(9) 0.07729(13)
O3F O 0.85962(19) -0.07719(9) -0.07729(13)
O4B O 1.2183(3) 0.34242(11) 0.22818(15)
H1B H 1.252(4) 0.368(2) 0.274(3)
O5B O 1.1788(2) 0.45220(11) 0.13259(16)
O6B O 0.9074(2) 0.42704(9) -0.27421(13)
O6E O 0.9074(2) 0.07296(9) 0.22579(13)
O6G O 0.5926(2) 0.07296(9) -0.22579(13)
O7B O 0.8698(2) 0.30795(10) -0.34850(13)
O7G O 0.6302(2) 0.19205(10) -0.15150(13)
O7E O 0.8698(2) 0.19205(10) 0.15150(13)
H2B H 0.709(5) 0.320(2) -0.052(3)
C1B C 1.0432(2) 0.20513(12) -0.04426(18)
C2B C 1.1031(3) 0.25190(13) 0.04820(18)
H5B H 1.145(3) 0.2312(16) 0.115(2)
C3B C 1.1023(3) 0.33237(13) 0.03727(18)
C4B C 0.9826(3) 0.31953(12) -0.15758(18)
C5B C 1.0401(3) 0.36665(13) -0.06556(18)
H6B H 1.039(3) 0.4181(19) -0.072(2)
C6B C 0.9841(3) 0.23938(13) -0.14738(18)
H7B H 0.949(4) 0.2122(17) -0.205(3)
C7B C 1.1687(3) 0.38274(14) 0.13553(19)
C8B C 0.9140(3) 0.35438(13) -0.26905(18)
O9 O 0.8466(3) 0.40740(13) 0.15439(19)
H3 H 0.915(6) 0.418(3) 0.207(4)
H4 H 0.793(6) 0.444(3) 0.139(4)
loop_
_geom_bond_atom_site_label_1
_geom_bond_atom_site_label_2
_geom_bond_site_symmetry_1
_geom_bond_site_symmetry_2
Cu1 O1 1_555 1_555
Cu2 O1 1_555 1_555
P1 O1 1_555 1_555
O2 P1 1_555 1_555
O3 P1 1_555 1_555
O4 H1 1_555 1_555
O5 C7 1_555 1_555
O6 C8 1_555 1_555
O7 C8 1_555 1_555
O8 Cu1 1_555 1_555
H2 O8 1_555 1_555
O9 H3 1_555 1_555
H4 O9 1_555 1_555
C1 P1 1_555 1_555
C2 C1 1_555 1_555
H5 C2 1_555 1_555
C3 C2 1_555 1_555
C4 C5 1_555 1_555
C5 C3 1_555 1_555
H6 C5 1_555 1_555
C6 C1 1_555 1_555
H7 C6 1_555 1_555
C7 O4 1_555 1_555
C8 C4 1_555 1_555
Cu1G O7 1_555 1_555
Cu1G_2 O7B 1_555 1_555
Cu2B O1B 1_555 1_555
Cu2F O2 1_555 1_555
Cu2D O3 1_555 1_555
Cu2E O6 1_555 1_555
Cu2D_2 O2B 1_555 1_555
Cu2F_2 O3B 1_555 1_555
Cu2G O6B 1_555 1_555
P1B O1B 1_555 1_555
O1B Cu1 1_555 1_555
O2B P1B 1_555 1_555
O2F Cu2 1_555 1_555
O2D Cu2B 1_555 1_555
O3B P1B 1_555 1_555
O3D Cu2 1_555 1_555
O3F Cu2B 1_555 1_555
O4B H1B 1_555 1_555
O5B C7B 1_555 1_555
O6B C8B 1_555 1_555
O6E Cu2 1_555 1_555
O6G Cu2B 1_555 1_555
O7B C8B 1_555 1_555
O7G Cu1 1_555 1_555
O7E Cu1 1_555 1_555
H2B O8 1_555 1_555
C1B P1B 1_555 1_555
C2B C1B 1_555 1_555
H5B C2B 1_555 1_555
C3B C2B 1_555 1_555
C4B C5B 1_555 1_555
C5B C3B 1_555 1_555
H6B C5B 1_555 1_555
C6B C1B 1_555 1_555
H7B C6B 1_555 1_555
C7B O4B 1_555 1_555
C8B C4B 1_555 1_555
C3 C7 1_555 1_555
C4 C6 1_555 1_555
C3B C7B 1_555 1_555
C4B C6B 1_555 1_555

#END
