
#######################################################################
#
#                 Cambridge Crystallographic Data Centre
#                                CCDC 
#
#######################################################################
#
# If this CIF has been generated from an entry in the Cambridge 
# Structural Database, then it will include bibliographic, chemical, 
# crystal, experimental, refinement or atomic coordinate data resulting 
# from the CCDC's data processing and validation procedures.
#
#######################################################################

data_GINVAB
_symmetry_cell_setting           monoclinic
_symmetry_space_group_name_H-M   'P 21'
_symmetry_Int_Tables_number      4
_space_group_name_Hall           'P 2yb'
loop_
_symmetry_equiv_pos_site_id
_symmetry_equiv_pos_as_xyz
1 x,y,z
2 -x,1/2+y,-z
_cell_length_a                   8.9771(2)
_cell_length_b                   12.3717(3)
_cell_length_c                   9.0797(2)
_cell_angle_alpha                90
_cell_angle_beta                 104.0880(10)
_cell_angle_gamma                90
_cell_volume                     978.08
loop_
_atom_site_label
_atom_site_type_symbol
_atom_site_fract_x
_atom_site_fract_y
_atom_site_fract_z
Ca1 Ca -0.10703(6) 0.29635(4) 0.97662(6)
Ca2 Ca 0.01631(6) 0.17754(4) 1.61252(6)
P1 P -0.20052(8) 0.09658(6) 1.21869(8)
P2 P 0.11554(8) 0.39207(5) 1.38231(8)
O1 O -0.1671(2) 0.13463(16) 1.0729(2)
O2 O -0.1207(2) 0.15998(17) 1.3586(2)
O3 O -0.1578(2) -0.02580(18) 1.2313(3)
H1 H -0.140(5) -0.054(4) 1.307(5)
O4 O -0.5617(2) 0.11082(19) 1.5978(2)
H2 H -0.610(5) 0.121(3) 1.669(4)
O5 O -0.8072(2) 0.11352(18) 1.4652(2)
O6 O -0.9053(2) 0.20311(17) 0.9090(2)
O7 O -0.7320(2) 0.15295(19) 0.7894(2)
O8 O 0.0877(2) 0.35209(16) 1.5307(2)
O9 O 0.0351(2) 0.30962(17) 1.2532(2)
H3 H -0.001(5) 0.264(4) 1.285(4)
O10 O 0.0644(2) 0.50505(16) 1.3352(2)
O11 O 0.4774(2) 0.38049(18) 0.9950(2)
H4 H 0.537(6) 0.380(4) 0.920(6)
O12 O 0.7210(2) 0.36486(19) 1.1273(2)
O13 O 0.8188(2) 0.27750(17) 1.6829(2)
O14 O 0.6469(2) 0.33020(19) 1.8029(2)
O15 O -0.0066(3) 0.46888(19) 1.0169(3)
H5 H 0.027(6) 0.511(5) 0.953(6)
C1 C -0.4037(3) 0.1062(2) 1.2045(3)
C2 C -0.4555(3) 0.1010(2) 1.3365(3)
H6 H -0.386(4) 0.095(3) 1.429(4)
C3 C -0.6121(3) 0.1117(2) 1.3292(3)
C4 C -0.7162(4) 0.1291(2) 1.1906(3)
H7 H -0.806(3) 0.135(2) 1.188(3)
C5 C -0.6634(3) 0.1376(2) 1.0583(3)
C6 C -0.5078(4) 0.1247(2) 1.0654(3)
H8 H -0.478(4) 0.130(2) 0.972(3)
C7 C -0.6703(3) 0.1113(2) 1.4700(3)
C8 C -0.7736(3) 0.1673(2) 0.9099(3)
C9 C 0.3176(3) 0.3795(2) 1.3893(3)
C10 C 0.3712(3) 0.3876(2) 1.2565(3)
H9 H 0.296(4) 0.400(3) 1.166(4)
C11 C 0.5254(3) 0.3746(2) 1.2616(3)
C12 C 0.6293(3) 0.3524(2) 1.4009(3)
H10 H 0.744(4) 0.337(3) 1.408(4)
C13 C 0.5785(3) 0.3435(2) 1.5327(3)
C14 C 0.4229(3) 0.3579(2) 1.5254(3)
H11 H 0.383(3) 0.344(2) 1.605(4)
C15 C 0.5851(3) 0.3740(2) 1.1237(3)
C16 C 0.6881(3) 0.3151(2) 1.6803(3)
Ca1_2 Ca -1.10703(6) 0.29635(4) 0.97662(6)
Ca1_3 Ca 0.89297(6) 0.29635(4) 0.97662(6)
Ca1_4 Ca 0.89297(6) 0.29635(4) 1.97662(6)
Ca2_2 Ca -0.98369(6) 0.17754(4) 1.61252(6)
Ca2_3 Ca -0.98369(6) 0.17754(4) 0.61252(6)
Ca2A Ca -0.01631(6) 0.67754(4) 1.38748(6)
Ca2_4 Ca 1.01631(6) 0.17754(4) 1.61252(6)
O5_2 O 0.1928(2) 0.11352(18) 1.4652(2)
O6_2 O 0.0947(2) 0.20311(17) 0.9090(2)
O6_3 O 0.0947(2) 0.20311(17) 1.9090(2)
O7_2 O 0.2680(2) 0.15295(19) 1.7894(2)
O10A O -0.0644(2) 0.00505(16) 1.6648(2)
O12_2 O -0.2790(2) 0.36486(19) 1.1273(2)
O13_2 O -0.1812(2) 0.27750(17) 0.6829(2)
O13_3 O -0.1812(2) 0.27750(17) 1.6829(2)
O14_2 O -0.3531(2) 0.33020(19) 0.8029(2)
loop_
_geom_bond_atom_site_label_1
_geom_bond_atom_site_label_2
_geom_bond_site_symmetry_1
_geom_bond_site_symmetry_2
Ca1 O1 1_555 1_555
Ca2 O2 1_555 1_555
P1 O1 1_555 1_555
P2 O8 1_555 1_555
O2 P1 1_555 1_555
O3 P1 1_555 1_555
H1 O3 1_555 1_555
O4 H2 1_555 1_555
O5 C7 1_555 1_555
O6 C8 1_555 1_555
O7 C8 1_555 1_555
O8 Ca2 1_555 1_555
O9 Ca1 1_555 1_555
H3 O9 1_555 1_555
O10 P2 1_555 1_555
O11 H4 1_555 1_555
O12 C15 1_555 1_555
O13 C16 1_555 1_555
O14 C16 1_555 1_555
O15 Ca1 1_555 1_555
H5 O15 1_555 1_555
C1 P1 1_555 1_555
C2 C1 1_555 1_555
H6 C2 1_555 1_555
C3 C2 1_555 1_555
C4 C3 1_555 1_555
H7 C4 1_555 1_555
C5 C4 1_555 1_555
C6 C1 1_555 1_555
H8 C6 1_555 1_555
C7 O4 1_555 1_555
C8 C5 1_555 1_555
C9 P2 1_555 1_555
C10 C9 1_555 1_555
H9 C10 1_555 1_555
C11 C10 1_555 1_555
C12 C11 1_555 1_555
H10 C12 1_555 1_555
C13 C12 1_555 1_555
C14 C9 1_555 1_555
H11 C14 1_555 1_555
C15 O11 1_555 1_555
C16 C13 1_555 1_555
Ca1_2 O6 1_555 1_555
Ca1_3 O12 1_555 1_555
Ca1_4 O13 1_555 1_555
Ca2_2 O5 1_555 1_555
Ca2_3 O6 1_555 1_555
Ca2A O10 1_555 1_555
Ca2_4 O13 1_555 1_555
O5_2 Ca2 1_555 1_555
O6_2 Ca1 1_555 1_555
O6_3 Ca2 1_555 1_555
O7_2 Ca2 1_555 1_555
O10A Ca2 1_555 1_555
O12_2 Ca1 1_555 1_555
O13_2 Ca1 1_555 1_555
O13_3 Ca2 1_555 1_555
O14_2 Ca1 1_555 1_555
P2 O9 1_555 1_555
O7 Ca2_3 1_555 1_555
O14 Ca1_4 1_555 1_555
C3 C7 1_555 1_555
C5 C6 1_555 1_555
C11 C15 1_555 1_555
C13 C14 1_555 1_555

#END
