
#######################################################################
#
#                 Cambridge Crystallographic Data Centre
#                                CCDC 
#
#######################################################################
#
# If this CIF has been generated from an entry in the Cambridge 
# Structural Database, then it will include bibliographic, chemical, 
# crystal, experimental, refinement or atomic coordinate data resulting 
# from the CCDC's data processing and validation procedures.
#
#######################################################################

data_GINVEF
_symmetry_cell_setting           triclinic
_symmetry_space_group_name_H-M   'P -1'
_symmetry_Int_Tables_number      2
_space_group_name_Hall           '-P 1'
loop_
_symmetry_equiv_pos_site_id
_symmetry_equiv_pos_as_xyz
1 x,y,z
2 -x,-y,-z
_cell_length_a                   6.90870(10)
_cell_length_b                   8.8018(2)
_cell_length_c                   11.1262(2)
_cell_angle_alpha                92.0310(10)
_cell_angle_beta                 102.5740(10)
_cell_angle_gamma                95.074(2)
_cell_volume                     656.716
loop_
_atom_site_label
_atom_site_type_symbol
_atom_site_fract_x
_atom_site_fract_y
_atom_site_fract_z
Ba1 Ba 0.12915(3) 0.18289(2) 0.37973(2)
Ba2 Ba 0.49054(3) 0.05912(2) 0.79743(2)
P1 P -0.03196(14) 0.20382(11) 0.64767(9)
O1 O -0.0775(4) 0.3048(3) 0.5392(2)
O2 O 0.1279(4) 0.0979(3) 0.6315(2)
O3 O -0.2195(4) 0.1090(3) 0.6653(3)
O4 O 0.2198(4) 0.1348(3) 1.1346(3)
O5 O 0.3160(5) 0.3635(3) 1.2257(3)
O6 O 0.3735(4) 0.8154(3) 0.9719(3)
O7 O 0.2245(4) 0.7955(3) 0.7737(3)
O8 O 0.3036(4) 0.4613(3) 0.4991(3)
O9 O 0.5404(4) 0.1471(4) 0.4205(3)
O10 O 0.5200(5) 0.3492(3) 0.7151(3)
C1 C 0.0683(6) 0.3244(4) 0.7865(3)
C2 C 0.1100(6) 0.2586(4) 0.9008(4)
H1 H 0.0743 0.1551 0.9061
C3 C 0.2053(6) 0.3483(4) 1.0074(3)
C4 C 0.2563(6) 0.5039(4) 0.9982(4)
H2 H 0.3180 0.5639 1.0690
C5 C 0.2169(5) 0.5702(4) 0.8861(4)
C6 C 0.1234(6) 0.4798(4) 0.7806(4)
H3 H 0.0972 0.5239 0.7047
C7 C 0.2503(6) 0.2778(4) 1.1305(4)
C8 C 0.2749(6) 0.7377(4) 0.8778(4)
Ba1A Ba -0.12915(3) -0.18289(2) 0.62027(2)
Ba1_2 Ba 0.12915(3) 0.18289(2) 1.37973(2)
Ba1A_2 Ba -0.12915(3) 0.81711(2) 0.62027(2)
Ba2_2 Ba -0.50946(3) 0.05912(2) 0.79743(2)
Ba2A Ba 0.50946(3) -0.05912(2) 1.20257(2)
Ba2_3 Ba 0.49054(3) 1.05912(2) 0.79743(2)
Ba2A_2 Ba 0.50946(3) 0.94088(2) 1.20257(2)
Ba2A_3 Ba 0.50946(3) -0.05912(2) 0.20257(2)
O2A O -0.1279(4) -0.0979(3) 0.3685(2)
O3A O 0.2195(4) -0.1090(3) 0.3347(3)
O3_2 O 0.7805(4) 0.1090(3) 0.6653(3)
O4_2 O 0.2198(4) 0.1348(3) 0.1346(3)
O4A O 0.7802(4) -0.1348(3) 0.8654(3)
O5_2 O 0.3160(5) 0.3635(3) 0.2257(3)
O6_2 O 0.3735(4) -0.1846(3) 0.9719(3)
O6A O 0.6265(4) 0.1846(3) 1.0281(3)
O7A O -0.2245(4) 0.2045(3) 0.2263(3)
O7_2 O 0.2245(4) -0.2045(3) 0.7737(3)
O9A O 0.4596(4) -0.1471(4) 0.5795(3)
loop_
_geom_bond_atom_site_label_1
_geom_bond_atom_site_label_2
_geom_bond_site_symmetry_1
_geom_bond_site_symmetry_2
Ba1 O1 1_555 1_555
Ba2 O2 1_555 1_555
P1 O1 1_555 1_555
O2 Ba1 1_555 1_555
O3 P1 1_555 1_555
O4 C7 1_555 1_555
O5 C7 1_555 1_555
O6 C8 1_555 1_555
O7 C8 1_555 1_555
O8 Ba1 1_555 1_555
O9 Ba1 1_555 1_555
O10 Ba2 1_555 1_555
C1 P1 1_555 1_555
C2 C1 1_555 1_555
H1 C2 1_555 1_555
C3 C2 1_555 1_555
C4 C3 1_555 1_555
H2 C4 1_555 1_555
C5 C4 1_555 1_555
C6 C1 1_555 1_555
H3 C6 1_555 1_555
C7 C3 1_555 1_555
C8 C5 1_555 1_555
Ba1A O2 1_555 1_555
Ba1_2 O4 1_555 1_555
Ba1A_2 O7 1_555 1_555
Ba2_2 O3 1_555 1_555
Ba2A O4 1_555 1_555
Ba2_3 O6 1_555 1_555
Ba2A_2 O6 1_555 1_555
Ba2A_3 O9 1_555 1_555
O2A Ba1 1_555 1_555
O3A Ba1 1_555 1_555
O3_2 Ba2 1_555 1_555
O4_2 Ba1 1_555 1_555
O4A Ba2 1_555 1_555
O5_2 Ba1 1_555 1_555
O6_2 Ba2 1_555 1_555
O6A Ba2 1_555 1_555
O7A Ba1 1_555 1_555
O7_2 Ba2 1_555 1_555
O9A Ba2 1_555 1_555
P1 O2 1_555 1_555
O3 Ba1A 1_555 1_555
O5 Ba1_2 1_555 1_555
O7 Ba2_3 1_555 1_555
C5 C6 1_555 1_555
Ba1A O2A 1_555 1_555
Ba1A O7_2 1_555 1_555
Ba2A O6_2 1_555 1_555
Ba2A O6A 1_555 1_555
Ba2A_3 O3A 1_555 1_555
Ba2A_3 O4_2 1_555 1_555

#END
