
#######################################################################
#
#                 Cambridge Crystallographic Data Centre
#                                CCDC 
#
#######################################################################
#
# If this CIF has been generated from an entry in the Cambridge 
# Structural Database, then it will include bibliographic, chemical, 
# crystal, experimental, refinement or atomic coordinate data resulting 
# from the CCDC's data processing and validation procedures.
#
#######################################################################

data_GINWOQ
_symmetry_cell_setting           triclinic
_symmetry_space_group_name_H-M   'P -1'
_symmetry_Int_Tables_number      2
_space_group_name_Hall           '-P 1'
loop_
_symmetry_equiv_pos_site_id
_symmetry_equiv_pos_as_xyz
1 x,y,z
2 -x,-y,-z
_cell_length_a                   8.3758(17)
_cell_length_b                   9.7245(19)
_cell_length_c                   10.028(2)
_cell_angle_alpha                107.07(3)
_cell_angle_beta                 94.66(3)
_cell_angle_gamma                106.92(3)
_cell_volume                     734.494
loop_
_atom_site_label
_atom_site_type_symbol
_atom_site_fract_x
_atom_site_fract_y
_atom_site_fract_z
Cd1 Cd 0.14371(2) -0.036837(19) 0.142312(19)
N1 N 0.1422(4) 0.1732(3) 0.3270(3)
N2 N 0.1452(4) 0.7742(3) 0.9385(3)
C1 C 0.0372(5) 0.2679(4) 0.5386(4)
H1 H -0.0387 0.2470 0.5985
C2 C 0.1470(4) 0.4136(3) 0.5679(3)
C3 C 0.2586(5) 0.6861(4) 0.7312(4)
H2 H 0.3356 0.7097 0.6728
C4 C 0.1477(4) 0.5382(3) 0.6957(3)
O1 O 0.4298(3) 0.0105(3) 0.2288(4)
O2 O 0.2499(3) -0.1758(3) 0.2727(3)
C5 C 0.0400(5) 0.1528(4) 0.4200(4)
H3 H -0.0340 0.0550 0.4039
C6 C 0.0368(6) 0.6319(4) 0.9049(5)
H4 H -0.0406 0.6121 0.9640
C7 C 0.2560(5) 0.7973(4) 0.8505(4)
H5 H 0.3349 0.8942 0.8723
C8 C 0.5900(5) -0.2708(5) 0.0779(5)
H6 H 0.5156 -0.2216 0.0471
H7 H 0.5626 -0.3711 0.0076
C9 C 0.7708(4) -0.1798(3) 0.0800(4)
O3 O 0.8826(3) -0.1670(3) 0.1760(3)
C10 C 0.0342(6) 0.5142(4) 0.7880(5)
H8 H -0.0438 0.4176 0.7698
C11 C 0.2500(6) 0.3145(5) 0.3559(5)
H9 H 0.3254 0.3322 0.2948
C12 C 0.2543(6) 0.4352(4) 0.4723(5)
H10 H 0.3300 0.5319 0.4867
C13 C 0.5514(6) -0.2903(5) 0.2165(6)
H11 H 0.6384 -0.3217 0.2568
H12 H 0.4438 -0.3713 0.1983
C14 C 0.3983(4) -0.0996(4) 0.2747(3)
C15 C 0.5423(5) -0.1487(6) 0.3234(5)
H13 H 0.6488 -0.0668 0.3406
H14 H 0.5271 -0.1671 0.4122
O4 O 0.7987(7) -0.1270(4) -0.0170(4)
Cd1_2 Cd 0.14371(2) 0.963163(19) 1.142312(19)
Cd1_3 Cd 1.14371(2) -0.036837(19) 0.142312(19)
Cd1A Cd 0.85629(2) 0.036837(19) -0.142312(19)
N2_2 N 0.1452(4) -0.2258(3) -0.0615(3)
O3_2 O -0.1174(3) -0.1670(3) 0.1760(3)
O4A O 0.2013(7) 0.1270(4) 0.0170(4)
loop_
_geom_bond_atom_site_label_1
_geom_bond_atom_site_label_2
_geom_bond_site_symmetry_1
_geom_bond_site_symmetry_2
Cd1 N1 1_555 1_555
N1 C5 1_555 1_555
N2 C6 1_555 1_555
C1 H1 1_555 1_555
C2 C1 1_555 1_555
C3 H2 1_555 1_555
C4 C2 1_555 1_555
O1 Cd1 1_555 1_555
O2 Cd1 1_555 1_555
C5 C1 1_555 1_555
H3 C5 1_555 1_555
C6 H4 1_555 1_555
C7 N2 1_555 1_555
H5 C7 1_555 1_555
C8 H6 1_555 1_555
H7 C8 1_555 1_555
C9 C8 1_555 1_555
O3 C9 1_555 1_555
C10 C4 1_555 1_555
H8 C10 1_555 1_555
C11 N1 1_555 1_555
H9 C11 1_555 1_555
C12 C2 1_555 1_555
H10 C12 1_555 1_555
C13 C8 1_555 1_555
H11 C13 1_555 1_555
H12 C13 1_555 1_555
C14 O1 1_555 1_555
C15 C13 1_555 1_555
H13 C15 1_555 1_555
H14 C15 1_555 1_555
O4 C9 1_555 1_555
Cd1_2 N2 1_555 1_555
Cd1_3 O3 1_555 1_555
Cd1A O4 1_555 1_555
N2_2 Cd1 1_555 1_555
O3_2 Cd1 1_555 1_555
O4A Cd1 1_555 1_555
C3 C4 1_555 1_555
C3 C7 1_555 1_555
O2 C14 1_555 1_555
C6 C10 1_555 1_555
C11 C12 1_555 1_555
C14 C15 1_555 1_555

#END
