
#######################################################################
#
#                 Cambridge Crystallographic Data Centre
#                                CCDC 
#
#######################################################################
#
# If this CIF has been generated from an entry in the Cambridge 
# Structural Database, then it will include bibliographic, chemical, 
# crystal, experimental, refinement or atomic coordinate data resulting 
# from the CCDC's data processing and validation procedures.
#
#######################################################################

data_GINZAG
_symmetry_cell_setting           triclinic
_symmetry_space_group_name_H-M   'P -1'
_symmetry_Int_Tables_number      2
_space_group_name_Hall           '-P 1'
loop_
_symmetry_equiv_pos_site_id
_symmetry_equiv_pos_as_xyz
1 x,y,z
2 -x,-y,-z
_cell_length_a                   8.2853(9)
_cell_length_b                   12.1093(13)
_cell_length_c                   24.649(2)
_cell_angle_alpha                98.443(8)
_cell_angle_beta                 91.263(9)
_cell_angle_gamma                106.345(10)
_cell_volume                     2342.11
loop_
_atom_site_label
_atom_site_type_symbol
_atom_site_fract_x
_atom_site_fract_y
_atom_site_fract_z
Pb1 Pb 0.80062(3) 0.41971(2) 0.038446(10)
O1 O 0.8246(7) 0.5728(5) 0.1309(2)
N1 N 0.7035(7) 0.2667(4) 0.1074(2)
C1 C 0.6695(8) 0.5479(5) 0.1223(3)
O2 O 0.5870(6) 0.4739(4) 0.08153(19)
N2 N 0.5358(7) 0.2467(4) 0.0077(2)
C2 C 0.5690(8) 0.6076(5) 0.1603(3)
O3 O 0.2547(7) 0.5638(4) 0.06452(19)
N3 N 0.1494(7) -0.1181(5) 0.0358(2)
C3 C 0.6516(11) 0.7208(6) 0.1878(3)
H1 H 0.7642 0.7544 0.1821
O4 O 0.2062(7) 0.4064(4) 0.00331(18)
N4 N 0.3279(8) -0.1006(5) 0.1361(2)
C4 C 0.5705(13) 0.7825(7) 0.2226(3)
H2 H 0.6263 0.8577 0.2399
C5 C 0.4055(13) 0.7317(7) 0.2315(3)
H3 H 0.3496 0.7724 0.2556
C6 C 0.3193(10) 0.6186(7) 0.2047(3)
H4 H 0.2065 0.5862 0.2106
C7 C 0.4015(8) 0.5547(5) 0.1693(2)
C8 C 0.3063(8) 0.4289(5) 0.1486(3)
C9 C 0.2949(9) 0.3542(6) 0.1874(3)
H5 H 0.3465 0.3837 0.2224
C10 C 0.2085(10) 0.2377(6) 0.1745(3)
H6 H 0.2015 0.1890 0.2008
C11 C 0.1328(9) 0.1937(6) 0.1228(3)
H7 H 0.0734 0.1151 0.1143
C12 C 0.1434(9) 0.2651(6) 0.0827(3)
H8 H 0.0934 0.2345 0.0475
C13 C 0.2310(8) 0.3840(5) 0.0964(2)
C14 C 0.2355(7) 0.4576(5) 0.0520(2)
C15 C 0.7439(10) 0.1931(6) 0.1898(3)
H9 H 0.8064 0.2024 0.2228
C16 C 0.6103(9) 0.0962(6) 0.1741(3)
H10 H 0.5794 0.0398 0.1968
C17 C 0.5194(8) 0.0820(5) 0.1231(2)
C18 C 0.3750(8) -0.0181(5) 0.1038(3)
C19 C 0.1938(10) -0.1889(6) 0.1180(3)
H11 H 0.1570 -0.2474 0.1393
C20 C 0.1051(9) -0.1975(6) 0.0676(3)
H12 H 0.0120 -0.2617 0.0565
C21 C 0.2864(8) -0.0271(5) 0.0535(3)
C22 C 0.3411(8) 0.0646(5) 0.0198(2)
C23 C 0.2547(9) 0.0587(6) -0.0301(3)
H13 H 0.1616 -0.0043 -0.0430
C24 C 0.3086(9) 0.1463(6) -0.0594(3)
H14 H 0.2511 0.1448 -0.0924
C25 C 0.4497(9) 0.2385(6) -0.0403(3)
H15 H 0.4862 0.2971 -0.0615
C26 C 0.4806(8) 0.1607(5) 0.0380(2)
C27 C 0.5704(8) 0.1698(5) 0.0906(2)
C28 C 0.7852(9) 0.2781(6) 0.1556(3)
H16 H 0.8734 0.3452 0.1672
Pb1A Pb 0.19938(3) 0.58029(2) -0.038446(10)
O1A O 0.1754(7) 0.4272(5) -0.1309(2)
N1A N 0.2965(7) 0.7333(4) -0.1074(2)
C1A C 0.3305(8) 0.4521(5) -0.1223(3)
O2A O 0.4130(6) 0.5261(4) -0.08153(19)
N2A N 0.4642(7) 0.7533(4) -0.0077(2)
C2A C 0.4310(8) 0.3924(5) -0.1603(3)
O3A O 0.7453(7) 0.4362(4) -0.06452(19)
N3A N 0.8506(7) 1.1181(5) -0.0358(2)
C3A C 0.3484(11) 0.2792(6) -0.1878(3)
H1A H 0.2358 0.2456 -0.1821
O4A O 0.7938(7) 0.5936(4) -0.00331(18)
N4A N 0.6721(8) 1.1006(5) -0.1361(2)
C4A C 0.4295(13) 0.2175(7) -0.2226(3)
H2A H 0.3737 0.1423 -0.2399
C5A C 0.5945(13) 0.2683(7) -0.2315(3)
H3A H 0.6504 0.2276 -0.2556
C6A C 0.6807(10) 0.3814(7) -0.2047(3)
H4A H 0.7935 0.4138 -0.2106
C7A C 0.5985(8) 0.4453(5) -0.1693(2)
C8A C 0.6937(8) 0.5711(5) -0.1486(3)
C9A C 0.7051(9) 0.6458(6) -0.1874(3)
H5A H 0.6535 0.6163 -0.2224
C10A C 0.7915(10) 0.7623(6) -0.1745(3)
H6A H 0.7985 0.8110 -0.2008
C11A C 0.8672(9) 0.8063(6) -0.1228(3)
H7A H 0.9266 0.8849 -0.1143
C12A C 0.8566(9) 0.7349(6) -0.0827(3)
H8A H 0.9066 0.7655 -0.0475
C13A C 0.7690(8) 0.6160(5) -0.0964(2)
C14A C 0.7645(7) 0.5424(5) -0.0520(2)
C15A C 0.2561(10) 0.8069(6) -0.1898(3)
H9A H 0.1936 0.7976 -0.2228
C16A C 0.3897(9) 0.9038(6) -0.1741(3)
H10A H 0.4206 0.9602 -0.1968
C17A C 0.4806(8) 0.9180(5) -0.1231(2)
C18A C 0.6250(8) 1.0181(5) -0.1038(3)
C19A C 0.8062(10) 1.1889(6) -0.1180(3)
H11A H 0.8430 1.2474 -0.1393
C20A C 0.8949(9) 1.1975(6) -0.0676(3)
H12A H 0.9880 1.2617 -0.0565
C21A C 0.7136(8) 1.0271(5) -0.0535(3)
C22A C 0.6589(8) 0.9354(5) -0.0198(2)
C23A C 0.7453(9) 0.9413(6) 0.0301(3)
H13A H 0.8384 1.0043 0.0430
C24A C 0.6914(9) 0.8537(6) 0.0594(3)
H14A H 0.7489 0.8552 0.0924
C25A C 0.5503(9) 0.7615(6) 0.0403(3)
H15A H 0.5138 0.7029 0.0615
C26A C 0.5194(8) 0.8393(5) -0.0380(2)
C27A C 0.4296(8) 0.8302(5) -0.0906(2)
C28A C 0.2148(9) 0.7219(6) -0.1556(3)
H16A H 0.1266 0.6548 -0.1672
O5 O 0.801(4) 1.053(2) 0.2862(9)
H17 H 0.8862 1.0850 0.3087
H18 H 0.7330 1.0013 0.3012
Pb2 Pb 0.77396(3) 0.040284(19) 0.466718(9)
O6 O 0.7738(7) -0.1851(5) 0.4462(3)
N5 N 0.9441(7) 0.1953(4) 0.4057(2)
O7 O 0.9860(6) -0.0495(4) 0.4242(2)
N6 N 0.6650(7) 0.2246(4) 0.4555(2)
O8 O 1.4454(5) -0.0480(4) 0.43937(16)
N7 N 0.8939(9) 0.4635(5) 0.2837(2)
O9 O 1.6321(5) -0.0063(4) 0.37806(17)
N8 N 0.6116(9) 0.4979(5) 0.3382(3)
C29 C 0.5423(9) 0.2454(6) 0.4840(3)
H19 H 0.5087 0.2042 0.5128
C30 C 0.4598(9) 0.3260(7) 0.4734(3)
H20 H 0.3725 0.3383 0.4943
C31 C 0.5118(9) 0.3872(7) 0.4307(3)
H21 H 0.4599 0.4420 0.4225
C32 C 0.6428(8) 0.3662(5) 0.4002(3)
C33 C 0.6986(9) 0.4264(6) 0.3533(3)
C34 C 0.6706(12) 0.5508(7) 0.2972(4)
H22 H 0.6187 0.6035 0.2862
C35 C 0.8070(13) 0.5325(7) 0.2692(4)
H23 H 0.8384 0.5700 0.2391
C36 C 0.8362(9) 0.4093(6) 0.3273(3)
C37 C 0.9264(9) 0.3314(5) 0.3449(3)
C38 C 1.0763(9) 0.3199(6) 0.3228(3)
H24 H 1.1240 0.3637 0.2961
C39 C 1.1506(10) 0.2449(6) 0.3404(3)
H25 H 1.2480 0.2345 0.3252
C40 C 1.0804(9) 0.1832(6) 0.3816(3)
H26 H 1.1320 0.1306 0.3928
C41 C 0.8661(8) 0.2692(5) 0.3872(3)
C42 C 0.7200(8) 0.2860(5) 0.4151(3)
C43 C 1.4814(8) -0.0369(5) 0.3911(2)
C44 C 1.3452(8) -0.0530(5) 0.3471(2)
C45 C 1.3811(9) 0.0180(6) 0.3064(3)
H27 H 1.4870 0.0713 0.3071
C46 C 1.2606(10) 0.0094(7) 0.2654(3)
H28 H 1.2863 0.0555 0.2379
C47 C 1.1033(11) -0.0667(7) 0.2649(3)
H29 H 1.0218 -0.0706 0.2375
C48 C 1.0636(9) -0.1384(6) 0.3049(3)
H30 H 0.9561 -0.1896 0.3043
C49 C 1.1857(8) -0.1329(5) 0.3457(2)
C50 C 1.1481(8) -0.2244(5) 0.3822(2)
C51 C 1.2411(8) -0.3043(6) 0.3762(3)
H31 H 1.3283 -0.2949 0.3526
C52 C 1.2057(10) -0.3967(6) 0.4046(3)
H32 H 1.2709 -0.4482 0.4010
C53 C 1.0738(10) -0.4132(6) 0.4383(3)
H33 H 1.0485 -0.4767 0.4570
C54 C 0.9796(9) -0.3359(6) 0.4443(3)
H34 H 0.8902 -0.3477 0.4670
C55 C 1.0156(8) -0.2402(5) 0.4170(2)
C56 C 0.9161(8) -0.1526(5) 0.4289(3)
Pb2_2 Pb 1.77396(3) 0.040284(19) 0.466718(9)
O8_2 O 0.4454(5) -0.0480(4) 0.43937(16)
O9_2 O 0.6321(5) -0.0063(4) 0.37806(17)
loop_
_geom_bond_atom_site_label_1
_geom_bond_atom_site_label_2
_geom_bond_site_symmetry_1
_geom_bond_site_symmetry_2
Pb1 O1 1_555 1_555
O1 C1 1_555 1_555
N1 Pb1 1_555 1_555
C1 O2 1_555 1_555
O2 Pb1 1_555 1_555
N2 Pb1 1_555 1_555
C2 C1 1_555 1_555
O3 C14 1_555 1_555
N3 C20 1_555 1_555
C3 C2 1_555 1_555
H1 C3 1_555 1_555
O4 C14 1_555 1_555
N4 C18 1_555 1_555
C4 C3 1_555 1_555
H2 C4 1_555 1_555
C5 C4 1_555 1_555
H3 C5 1_555 1_555
C6 C5 1_555 1_555
H4 C6 1_555 1_555
C7 C2 1_555 1_555
C8 C7 1_555 1_555
C9 C8 1_555 1_555
H5 C9 1_555 1_555
C10 C9 1_555 1_555
H6 C10 1_555 1_555
C11 C10 1_555 1_555
H7 C11 1_555 1_555
C12 C11 1_555 1_555
H8 C12 1_555 1_555
C13 C8 1_555 1_555
C14 C13 1_555 1_555
C15 H9 1_555 1_555
C16 C15 1_555 1_555
H10 C16 1_555 1_555
C17 C16 1_555 1_555
C18 C17 1_555 1_555
C19 N4 1_555 1_555
H11 C19 1_555 1_555
C20 C19 1_555 1_555
H12 C20 1_555 1_555
C21 N3 1_555 1_555
C22 C21 1_555 1_555
C23 C22 1_555 1_555
H13 C23 1_555 1_555
C24 C23 1_555 1_555
H14 C24 1_555 1_555
C25 N2 1_555 1_555
H15 C25 1_555 1_555
C26 N2 1_555 1_555
C27 N1 1_555 1_555
C28 N1 1_555 1_555
H16 C28 1_555 1_555
O5 H17 1_555 1_555
H18 O5 1_555 1_555
Pb2 O6 1_555 1_555
O6 C56 1_555 1_555
N5 Pb2 1_555 1_555
O7 Pb2 1_555 1_555
N6 Pb2 1_555 1_555
O8 C43 1_555 1_555
N7 C35 1_555 1_555
O9 C43 1_555 1_555
N8 C33 1_555 1_555
C29 N6 1_555 1_555
H19 C29 1_555 1_555
C30 C29 1_555 1_555
H20 C30 1_555 1_555
C31 C30 1_555 1_555
H21 C31 1_555 1_555
C32 C31 1_555 1_555
C33 C32 1_555 1_555
C34 N8 1_555 1_555
H22 C34 1_555 1_555
C35 C34 1_555 1_555
H23 C35 1_555 1_555
C36 N7 1_555 1_555
C37 C36 1_555 1_555
C38 C37 1_555 1_555
H24 C38 1_555 1_555
C39 C38 1_555 1_555
H25 C39 1_555 1_555
C40 N5 1_555 1_555
H26 C40 1_555 1_555
C41 N5 1_555 1_555
C42 N6 1_555 1_555
C43 C44 1_555 1_555
C44 C45 1_555 1_555
C45 H27 1_555 1_555
C46 C45 1_555 1_555
H28 C46 1_555 1_555
C47 C46 1_555 1_555
H29 C47 1_555 1_555
C48 C47 1_555 1_555
H30 C48 1_555 1_555
C49 C44 1_555 1_555
C50 C49 1_555 1_555
C51 C50 1_555 1_555
H31 C51 1_555 1_555
C52 C51 1_555 1_555
H32 C52 1_555 1_555
C53 C52 1_555 1_555
H33 C53 1_555 1_555
C54 C53 1_555 1_555
H34 C54 1_555 1_555
C55 C50 1_555 1_555
C56 O7 1_555 1_555
Pb1A O3 1_555 1_555
O1A Pb1A 1_555 1_555
N1A Pb1A 1_555 1_555
C1A O1A 1_555 1_555
O2A Pb1A 1_555 1_555
N2A Pb1A 1_555 1_555
C2A C1A 1_555 1_555
O3A Pb1 1_555 1_555
N3A C20A 1_555 1_555
C3A C2A 1_555 1_555
H1A C3A 1_555 1_555
O4A Pb1 1_555 1_555
N4A C18A 1_555 1_555
C4A C3A 1_555 1_555
H2A C4A 1_555 1_555
C5A C4A 1_555 1_555
H3A C5A 1_555 1_555
C6A C5A 1_555 1_555
H4A C6A 1_555 1_555
C7A C2A 1_555 1_555
C8A C7A 1_555 1_555
C9A C8A 1_555 1_555
H5A C9A 1_555 1_555
C10A C9A 1_555 1_555
H6A C10A 1_555 1_555
C11A C10A 1_555 1_555
H7A C11A 1_555 1_555
C12A C11A 1_555 1_555
H8A C12A 1_555 1_555
C13A C8A 1_555 1_555
C14A O3A 1_555 1_555
C15A H9A 1_555 1_555
C16A C15A 1_555 1_555
H10A C16A 1_555 1_555
C17A C16A 1_555 1_555
C18A C17A 1_555 1_555
C19A N4A 1_555 1_555
H11A C19A 1_555 1_555
C20A C19A 1_555 1_555
H12A C20A 1_555 1_555
C21A N3A 1_555 1_555
C22A C21A 1_555 1_555
C23A C22A 1_555 1_555
H13A C23A 1_555 1_555
C24A C23A 1_555 1_555
H14A C24A 1_555 1_555
C25A N2A 1_555 1_555
H15A C25A 1_555 1_555
C26A N2A 1_555 1_555
C27A N1A 1_555 1_555
C28A N1A 1_555 1_555
H16A C28A 1_555 1_555
Pb2_2 O8 1_555 1_555
O8_2 Pb2 1_555 1_555
O9_2 Pb2 1_555 1_555
O4 Pb1A 1_555 1_555
C6 C7 1_555 1_555
C12 C13 1_555 1_555
C15 C28 1_555 1_555
C17 C27 1_555 1_555
C18 C21 1_555 1_555
C22 C26 1_555 1_555
C24 C25 1_555 1_555
C26 C27 1_555 1_555
O9 Pb2_2 1_555 1_555
C32 C42 1_555 1_555
C33 C36 1_555 1_555
C37 C41 1_555 1_555
C39 C40 1_555 1_555
C41 C42 1_555 1_555
C48 C49 1_555 1_555
C54 C55 1_555 1_555
C55 C56 1_555 1_555
C1A O2A 1_555 1_555
O4A C14A 1_555 1_555
C6A C7A 1_555 1_555
C12A C13A 1_555 1_555
C13A C14A 1_555 1_555
C15A C28A 1_555 1_555
C17A C27A 1_555 1_555
C18A C21A 1_555 1_555
C22A C26A 1_555 1_555
C24A C25A 1_555 1_555
C26A C27A 1_555 1_555

#END
