
#######################################################################
#
#                 Cambridge Crystallographic Data Centre
#                                CCDC 
#
#######################################################################
#
# If this CIF has been generated from an entry in the Cambridge 
# Structural Database, then it will include bibliographic, chemical, 
# crystal, experimental, refinement or atomic coordinate data resulting 
# from the CCDC's data processing and validation procedures.
#
#######################################################################

data_GINZEK
_symmetry_cell_setting           monoclinic
_symmetry_space_group_name_H-M   'P 21/c'
_symmetry_Int_Tables_number      14
_space_group_name_Hall           '-P 2ybc'
loop_
_symmetry_equiv_pos_site_id
_symmetry_equiv_pos_as_xyz
1 x,y,z
2 -x,1/2+y,1/2-z
3 -x,-y,-z
4 x,1/2-y,1/2+z
_cell_length_a                   9.2456(6)
_cell_length_b                   25.4229(16)
_cell_length_c                   8.9168(6)
_cell_angle_alpha                90
_cell_angle_beta                 103.1630(10)
_cell_angle_gamma                90
_cell_volume                     2040.83
loop_
_atom_site_label
_atom_site_type_symbol
_atom_site_fract_x
_atom_site_fract_y
_atom_site_fract_z
Pb1 Pb 1.436800(18) 0.236561(6) 0.904535(18)
S1 S 0.85729(12) 0.22323(4) 0.90647(13)
N1 N 1.3545(4) 0.14227(15) 0.7771(4)
C1 C 0.6221(5) 0.18217(17) 0.6064(5)
O1 O 1.1677(4) 0.24358(18) 0.8846(5)
O2 O 1.2864(4) 0.21230(15) 1.1053(4)
N2 N 1.5799(4) 0.15046(14) 1.0327(4)
C2 C 0.7489(5) 0.14770(17) 0.6821(5)
N3 N 1.5027(5) -0.03532(15) 0.6918(4)
C3 C 0.7596(5) 0.09809(18) 0.6187(5)
H1 H 0.6903 0.0877 0.5309
O3 O 0.6025(3) 0.22538(12) 0.6700(4)
N4 N 1.7337(5) -0.02703(15) 0.9570(5)
O4 O 0.5403(4) 0.16706(13) 0.4838(4)
C4 C 0.8719(6) 0.0646(2) 0.6851(6)
H2 H 0.8784 0.0311 0.6455
N5 N 0.9704(4) 0.12915(16) 0.8756(4)
C5 C 0.9750(6) 0.0820(2) 0.8125(6)
H3 H 1.0522 0.0595 0.8567
C6 C 0.8598(5) 0.16194(16) 0.8142(5)
C7 C 1.0224(5) 0.2177(2) 1.0597(5)
H4 H 1.0169 0.2437 1.1378
H5 H 1.0226 0.1832 1.1067
C8 C 1.1675(5) 0.22481(17) 1.0116(5)
C9 C 1.2443(6) 0.1384(2) 0.6531(6)
H6 H 1.1823 0.1673 0.6260
C10 C 1.2162(6) 0.0941(2) 0.5617(6)
H7 H 1.1369 0.0931 0.4762
C11 C 1.3080(6) 0.0515(2) 0.6002(6)
H8 H 1.2922 0.0213 0.5399
C12 C 1.4252(5) 0.05365(18) 0.7299(5)
C13 C 1.5248(5) 0.00956(16) 0.7764(5)
C14 C 1.5957(6) -0.07420(19) 0.7427(6)
H9 H 1.5843 -0.1057 0.6880
C15 C 1.7095(6) -0.07037(19) 0.8736(6)
H10 H 1.7708 -0.0993 0.9037
C16 C 1.6410(5) 0.01335(17) 0.9087(5)
C17 C 1.6617(5) 0.06216(17) 0.9978(5)
C18 C 1.7750(5) 0.06791(19) 1.1318(5)
H11 H 1.8409 0.0405 1.1658
C19 C 1.7870(6) 0.11389(19) 1.2110(6)
H12 H 1.8615 0.1184 1.2997
C20 C 1.6869(5) 0.15424(18) 1.1584(5)
H13 H 1.6958 0.1854 1.2145
C21 C 1.5657(5) 0.10458(16) 0.9529(5)
C22 C 1.4446(5) 0.10033(17) 0.8157(5)
Pb1_2 Pb 0.436800(18) 0.236561(6) 0.904535(18)
Pb1C Pb 0.436800(18) 0.263439(6) 0.404535(18)
O3_2 O 1.6025(3) 0.22538(12) 0.6700(4)
O3C O 1.6025(3) 0.27462(12) 1.1700(4)
O4C O 1.5403(4) 0.33294(13) 0.9838(4)
loop_
_geom_bond_atom_site_label_1
_geom_bond_atom_site_label_2
_geom_bond_site_symmetry_1
_geom_bond_site_symmetry_2
Pb1 N1 1_555 1_555
S1 C6 1_555 1_555
N1 C9 1_555 1_555
C1 C2 1_555 1_555
O1 Pb1 1_555 1_555
O2 Pb1 1_555 1_555
N2 Pb1 1_555 1_555
C2 C3 1_555 1_555
N3 C13 1_555 1_555
C3 H1 1_555 1_555
O3 C1 1_555 1_555
N4 C15 1_555 1_555
O4 C1 1_555 1_555
C4 C3 1_555 1_555
H2 C4 1_555 1_555
N5 C5 1_555 1_555
C5 C4 1_555 1_555
H3 C5 1_555 1_555
C6 C2 1_555 1_555
C7 S1 1_555 1_555
H4 C7 1_555 1_555
H5 C7 1_555 1_555
C8 O1 1_555 1_555
C9 H6 1_555 1_555
C10 C9 1_555 1_555
H7 C10 1_555 1_555
C11 C10 1_555 1_555
H8 C11 1_555 1_555
C12 C11 1_555 1_555
C13 C12 1_555 1_555
C14 N3 1_555 1_555
H9 C14 1_555 1_555
C15 C14 1_555 1_555
H10 C15 1_555 1_555
C16 N4 1_555 1_555
C17 C16 1_555 1_555
C18 C17 1_555 1_555
H11 C18 1_555 1_555
C19 C18 1_555 1_555
H12 C19 1_555 1_555
C20 N2 1_555 1_555
H13 C20 1_555 1_555
C21 N2 1_555 1_555
C22 N1 1_555 1_555
Pb1_2 O3 1_555 1_555
Pb1C O3 1_555 1_555
O3_2 Pb1 1_555 1_555
O3C Pb1 1_555 1_555
O4C Pb1 1_555 1_555
O2 C8 1_555 1_555
O4 Pb1C 1_555 1_555
N5 C6 1_555 1_555
C7 C8 1_555 1_555
C12 C22 1_555 1_555
C13 C16 1_555 1_555
C17 C21 1_555 1_555
C19 C20 1_555 1_555
C21 C22 1_555 1_555

#END
