
#######################################################################
#
#                 Cambridge Crystallographic Data Centre
#                                CCDC 
#
#######################################################################
#
# If this CIF has been generated from an entry in the Cambridge 
# Structural Database, then it will include bibliographic, chemical, 
# crystal, experimental, refinement or atomic coordinate data resulting 
# from the CCDC's data processing and validation procedures.
#
#######################################################################

data_GIPDUF
_symmetry_cell_setting           triclinic
_symmetry_space_group_name_H-M   'P -1'
_symmetry_Int_Tables_number      2
_space_group_name_Hall           '-P 1'
loop_
_symmetry_equiv_pos_site_id
_symmetry_equiv_pos_as_xyz
1 x,y,z
2 -x,-y,-z
_cell_length_a                   11.458(4)
_cell_length_b                   12.694(4)
_cell_length_c                   14.918(5)
_cell_angle_alpha                79.087(6)
_cell_angle_beta                 70.957(6)
_cell_angle_gamma                89.248(6)
_cell_volume                     2011.19
loop_
_atom_site_label
_atom_site_type_symbol
_atom_site_fract_x
_atom_site_fract_y
_atom_site_fract_z
Mn1 Mn 1.0000 1.0000 0.0000
Mn2 Mn 1.38256(6) 0.79083(5) 0.19298(5)
S1 S 1.09236(10) 0.85386(8) 0.18933(8)
S2 S 1.17163(12) 1.45566(10) 0.10031(8)
S3 S 0.64312(11) 1.70271(9) 0.23559(9)
S4 S 0.51152(10) 1.15266(9) 0.16691(8)
C1 C 1.0193(4) 0.9344(3) 0.2738(3)
C2 C 0.8919(4) 0.9230(3) 0.3174(3)
H1 H 0.8462 0.8753 0.3000
C3 C 0.8324(4) 0.9820(3) 0.3864(3)
C4 C 0.9042(4) 1.0522(3) 0.4125(3)
C5 C 1.0316(4) 1.0646(3) 0.3688(3)
C6 C 1.0884(4) 1.0050(3) 0.2985(3)
H2 H 1.1735 1.0129 0.2680
C7 C 1.1061(4) 1.1429(3) 0.3959(3)
H3 H 1.1934 1.1312 0.3687
H4 H 1.0846 1.1301 0.4657
C8 C 1.1131(4) 1.4051(3) 0.2254(3)
C9 C 1.1337(4) 1.3007(3) 0.2622(3)
H5 H 1.1827 1.2589 0.2210
C10 C 1.0824(4) 1.2585(3) 0.3591(3)
C11 C 1.0084(4) 1.3229(3) 0.4200(3)
C12 C 0.9860(4) 1.4278(3) 0.3828(3)
C13 C 1.0404(4) 1.4674(3) 0.2860(3)
H6 H 1.0280 1.5378 0.2606
C14 C 0.8975(4) 1.4977(3) 0.4437(3)
H7 H 0.8777 1.4663 0.5118
H8 H 0.9363 1.5687 0.4321
C15 C 0.6603(4) 1.5957(3) 0.3236(3)
C16 C 0.7630(4) 1.5937(3) 0.3528(3)
H9 H 0.8210 1.6515 0.3288
C17 C 0.7803(4) 1.5064(3) 0.4175(3)
C18 C 0.6916(4) 1.4206(3) 0.4539(3)
C19 C 0.5874(4) 1.4216(3) 0.4241(3)
C20 C 0.5743(4) 1.5104(3) 0.3591(3)
H10 H 0.5055 1.5126 0.3388
C21 C 0.4938(4) 1.3274(3) 0.4606(3)
H11 H 0.4159 1.3518 0.4538
H12 H 0.4800 1.3016 0.5289
C22 C 0.5438(4) 1.1509(3) 0.2741(3)
C23 C 0.5082(4) 1.2346(3) 0.3235(3)
H13 H 0.4672 1.2909 0.2994
C24 C 0.5328(4) 1.2352(3) 0.4078(3)
C25 C 0.5966(4) 1.1509(3) 0.4436(3)
C26 C 0.6275(4) 1.0640(3) 0.3957(3)
C27 C 0.6007(4) 1.0656(3) 0.3114(3)
H14 H 0.6213 1.0082 0.2795
C28 C 0.6939(4) 0.9703(3) 0.4336(3)
H15 H 0.6740 0.9641 0.5028
H16 H 0.6637 0.9044 0.4226
O1 O 1.0504(3) 0.8836(3) 0.1059(2)
O2 O 0.8135(4) 0.9777(4) 0.0981(3)
H17 H 0.763(6) 1.013(5) 0.096(4)
H18 H 0.796(8) 0.918(8) 0.133(7)
O3 O 1.2243(3) 0.8762(3) 0.1641(2)
O4 O 1.0403(4) 1.1318(3) 0.0609(3)
H19 H 1.110(7) 1.142(6) 0.063(5)
H20 H 0.972(7) 1.153(6) 0.115(6)
O5 O 1.3916(5) 0.6887(3) 0.0890(3)
H21 H 1.416(6) 0.714(6) 0.037(5)
H22 H 1.329(6) 0.662(5) 0.096(5)
O6 O 1.0543(3) 0.7435(3) 0.2356(2)
O7 O 0.8544(3) 1.1084(3) 0.4830(2)
H23 H 0.7817 1.1179 0.4883
O8 O 1.2493(4) 0.6715(3) 0.3051(3)
H24 H 1.188(5) 0.680(4) 0.305(4)
H25 H 1.247(6) 0.673(5) 0.352(5)
O9 O 1.3732(4) 0.8952(4) 0.2921(3)
H26 H 1.379(6) 0.950(6) 0.274(5)
H27 H 1.391(6) 0.880(5) 0.336(5)
O10 O 1.0739(5) 1.4365(4) 0.0635(3)
O11 O 1.5182(4) 0.8952(4) 0.0791(3)
H28 H 1.528(5) 0.950(5) 0.080(4)
H29 H 1.566(7) 0.871(6) 0.045(5)
O12 O 1.2809(5) 1.4000(4) 0.0628(3)
O14 O 1.1949(4) 1.5699(3) 0.0879(3)
O15 O 0.9592(3) 1.2846(2) 0.5170(2)
H30 H 0.9198 1.2278 0.5267
O17 O 0.7107(5) 1.6736(5) 0.1433(3)
O19 O 0.6925(6) 1.7967(3) 0.2464(4)
O21 O 0.5154(4) 1.6994(3) 0.2447(3)
O23 O 0.7078(3) 1.3382(2) 0.5195(2)
H31 H 0.7817 1.3339 0.5120
O24 O 0.5999(3) 1.0863(3) 0.1120(3)
O25 O 0.3863(3) 1.1066(3) 0.1947(3)
O26 O 0.5205(4) 1.2626(3) 0.1168(3)
O27 O 0.6287(3) 1.1533(2) 0.5210(2)
H36 H 0.6543 1.2142 0.5183
Mn2A Mn 0.61744(6) 1.20917(5) -0.19298(5)
Mn2_2 Mn 0.38256(6) 1.79083(5) 0.19298(5)
Mn2A_2 Mn 1.61744(6) 0.20917(5) -0.19298(5)
S1A S 0.90764(10) 1.14614(8) -0.18933(8)
S2A S 0.82837(12) 0.54434(10) -0.10031(8)
S3A S 1.35688(11) 0.29729(9) -0.23559(9)
S4A S 1.48848(10) 0.84734(9) -0.16691(8)
C1A C 0.9807(4) 1.0656(3) -0.2738(3)
C2A C 1.1081(4) 1.0770(3) -0.3174(3)
H1A H 1.1538 1.1247 -0.3000
C3A C 1.1676(4) 1.0180(3) -0.3864(3)
C4A C 1.0958(4) 0.9478(3) -0.4125(3)
C5A C 0.9684(4) 0.9354(3) -0.3688(3)
C6A C 0.9116(4) 0.9950(3) -0.2985(3)
H2A H 0.8265 0.9871 -0.2680
C7A C 0.8939(4) 0.8571(3) -0.3959(3)
H3A H 0.8066 0.8688 -0.3687
H4A H 0.9154 0.8699 -0.4657
C8A C 0.8869(4) 0.5949(3) -0.2254(3)
C9A C 0.8663(4) 0.6993(3) -0.2622(3)
H5A H 0.8173 0.7411 -0.2210
C10A C 0.9176(4) 0.7415(3) -0.3591(3)
C11A C 0.9916(4) 0.6771(3) -0.4200(3)
C12A C 1.0140(4) 0.5722(3) -0.3828(3)
C13A C 0.9596(4) 0.5326(3) -0.2860(3)
H6A H 0.9720 0.4622 -0.2606
C14A C 1.1025(4) 0.5023(3) -0.4437(3)
H7A H 1.1223 0.5337 -0.5118
H8A H 1.0637 0.4313 -0.4321
C15A C 1.3397(4) 0.4043(3) -0.3236(3)
C16A C 1.2370(4) 0.4063(3) -0.3528(3)
H9A H 1.1790 0.3485 -0.3288
C17A C 1.2197(4) 0.4936(3) -0.4175(3)
C18A C 1.3084(4) 0.5794(3) -0.4539(3)
C19A C 1.4126(4) 0.5784(3) -0.4241(3)
C20A C 1.4257(4) 0.4896(3) -0.3591(3)
H10A H 1.4945 0.4874 -0.3388
C21A C 1.5062(4) 0.6726(3) -0.4606(3)
H11A H 1.5841 0.6482 -0.4538
H12A H 1.5200 0.6984 -0.5289
C22A C 1.4562(4) 0.8491(3) -0.2741(3)
C23A C 1.4918(4) 0.7654(3) -0.3235(3)
H13A H 1.5328 0.7091 -0.2994
C24A C 1.4672(4) 0.7648(3) -0.4078(3)
C25A C 1.4034(4) 0.8491(3) -0.4436(3)
C26A C 1.3725(4) 0.9360(3) -0.3957(3)
C27A C 1.3993(4) 0.9344(3) -0.3114(3)
H14A H 1.3787 0.9918 -0.2795
C28A C 1.3061(4) 1.0297(3) -0.4336(3)
H15A H 1.3260 1.0359 -0.5028
H16A H 1.3363 1.0956 -0.4226
O1A O 0.9496(3) 1.1164(3) -0.1059(2)
O2A O 1.1865(4) 1.0223(4) -0.0981(3)
H17A H 1.237(6) 0.987(5) -0.096(4)
H18A H 1.204(8) 1.082(8) -0.133(7)
O3A O 0.7757(3) 1.1238(3) -0.1641(2)
O4A O 0.9597(4) 0.8682(3) -0.0609(3)
H19A H 0.890(7) 0.858(6) -0.063(5)
H20A H 1.028(7) 0.847(6) -0.115(6)
O5A O 0.6084(5) 1.3113(3) -0.0890(3)
H21A H 0.584(6) 1.286(6) -0.037(5)
H22A H 0.671(6) 1.338(5) -0.096(5)
O6A O 0.9457(3) 1.2565(3) -0.2356(2)
O7A O 1.1456(3) 0.8916(3) -0.4830(2)
H23A H 1.2183 0.8821 -0.4883
O8A O 0.7507(4) 1.3285(3) -0.3051(3)
H24A H 0.812(5) 1.320(4) -0.305(4)
H25A H 0.753(6) 1.327(5) -0.352(5)
O9A O 0.6268(4) 1.1048(4) -0.2921(3)
H26A H 0.621(6) 1.050(6) -0.274(5)
H27A H 0.609(6) 1.120(5) -0.336(5)
O10A O 0.9261(5) 0.5635(4) -0.0635(3)
O11A O 0.4818(4) 1.1048(4) -0.0791(3)
H28A H 0.472(5) 1.050(5) -0.080(4)
H29A H 0.434(7) 1.129(6) -0.045(5)
O12A O 0.7191(5) 0.6000(4) -0.0628(3)
O14A O 0.8051(4) 0.4301(3) -0.0879(3)
O15A O 1.0408(3) 0.7154(2) -0.5170(2)
H30A H 1.0802 0.7722 -0.5267
O17A O 1.2893(5) 0.3264(5) -0.1433(3)
O19A O 1.3075(6) 0.2033(3) -0.2464(4)
O21A O 1.4846(4) 0.3006(3) -0.2447(3)
O21_2 O 1.5154(4) 0.6994(3) 0.2447(3)
O21A_2 O 0.4846(4) 1.3006(3) -0.2447(3)
O23A O 1.2922(3) 0.6618(2) -0.5195(2)
H31A H 1.2183 0.6661 -0.5120
O24A O 1.4001(3) 0.9137(3) -0.1120(3)
O25A O 1.6137(3) 0.8934(3) -0.1947(3)
O26A O 1.4795(4) 0.7374(3) -0.1168(3)
O27A O 1.3713(3) 0.8467(2) -0.5210(2)
H36A H 1.3457 0.7858 -0.5183
O13 O 1.2794(3) 1.1759(3) 0.0515(3)
O16 O 0.8048(7) 0.4218(6) 0.1800(6)
O18 O 0.9694(5) 0.6710(4) 0.0735(4)
O20 O 0.3476(5) 0.4704(4) 0.2732(4)
O22 O 0.8717(6) 1.2068(5) 0.2071(5)
N1 N 1.5789(7) 0.4791(5) 0.1225(4)
H32 H 1.5619 0.4115 0.1183
H33 H 1.6229 0.5151 0.0631
H34 H 1.6224 0.4783 0.1632
H35 H 1.5083 0.5117 0.1460
loop_
_geom_bond_atom_site_label_1
_geom_bond_atom_site_label_2
_geom_bond_site_symmetry_1
_geom_bond_site_symmetry_2
Mn1 O1 1_555 1_555
Mn2 O3 1_555 1_555
S1 C1 1_555 1_555
S2 C8 1_555 1_555
S3 C15 1_555 1_555
S4 C22 1_555 1_555
C1 C2 1_555 1_555
C2 H1 1_555 1_555
C3 C2 1_555 1_555
C4 C3 1_555 1_555
C5 C4 1_555 1_555
C6 C1 1_555 1_555
H2 C6 1_555 1_555
C7 C5 1_555 1_555
H3 C7 1_555 1_555
H4 C7 1_555 1_555
C8 C9 1_555 1_555
C9 H5 1_555 1_555
C10 C7 1_555 1_555
C11 C10 1_555 1_555
C12 C11 1_555 1_555
C13 C8 1_555 1_555
H6 C13 1_555 1_555
C14 C12 1_555 1_555
H7 C14 1_555 1_555
H8 C14 1_555 1_555
C15 C16 1_555 1_555
C16 H9 1_555 1_555
C17 C14 1_555 1_555
C18 C17 1_555 1_555
C19 C18 1_555 1_555
C20 C15 1_555 1_555
H10 C20 1_555 1_555
C21 C19 1_555 1_555
H11 C21 1_555 1_555
H12 C21 1_555 1_555
C22 C23 1_555 1_555
C23 H13 1_555 1_555
C24 C21 1_555 1_555
C25 C24 1_555 1_555
C26 C25 1_555 1_555
C27 C22 1_555 1_555
H14 C27 1_555 1_555
C28 C3 1_555 1_555
H15 C28 1_555 1_555
H16 C28 1_555 1_555
O1 S1 1_555 1_555
O2 Mn1 1_555 1_555
H17 O2 1_555 1_555
H18 O2 1_555 1_555
O3 S1 1_555 1_555
O4 Mn1 1_555 1_555
H19 O4 1_555 1_555
H20 O4 1_555 1_555
O5 Mn2 1_555 1_555
H21 O5 1_555 1_555
H22 O5 1_555 1_555
O6 S1 1_555 1_555
O7 C4 1_555 1_555
H23 O7 1_555 1_555
O8 Mn2 1_555 1_555
H24 O8 1_555 1_555
H25 O8 1_555 1_555
O9 Mn2 1_555 1_555
H26 O9 1_555 1_555
H27 O9 1_555 1_555
O10 S2 1_555 1_555
O11 Mn2 1_555 1_555
H28 O11 1_555 1_555
H29 O11 1_555 1_555
O12 S2 1_555 1_555
O14 S2 1_555 1_555
O15 C11 1_555 1_555
H30 O15 1_555 1_555
O17 S3 1_555 1_555
O19 S3 1_555 1_555
O21 S3 1_555 1_555
O23 C18 1_555 1_555
H31 O23 1_555 1_555
N1 H32 1_555 1_555
H33 N1 1_555 1_555
H34 N1 1_555 1_555
H35 N1 1_555 1_555
O24 S4 1_555 1_555
O25 S4 1_555 1_555
O26 S4 1_555 1_555
O27 C25 1_555 1_555
H36 O27 1_555 1_555
Mn2A O3A 1_555 1_555
Mn2_2 O21 1_555 1_555
Mn2A_2 O21A 1_555 1_555
S1A C1A 1_555 1_555
S2A C8A 1_555 1_555
S3A C15A 1_555 1_555
S4A C22A 1_555 1_555
C1A C2A 1_555 1_555
C2A H1A 1_555 1_555
C3A C2A 1_555 1_555
C4A C3A 1_555 1_555
C5A C4A 1_555 1_555
C6A C1A 1_555 1_555
H2A C6A 1_555 1_555
C7A C5A 1_555 1_555
H3A C7A 1_555 1_555
H4A C7A 1_555 1_555
C8A C9A 1_555 1_555
C9A H5A 1_555 1_555
C10A C7A 1_555 1_555
C11A C10A 1_555 1_555
C12A C11A 1_555 1_555
C13A C8A 1_555 1_555
H6A C13A 1_555 1_555
C14A C12A 1_555 1_555
H7A C14A 1_555 1_555
H8A C14A 1_555 1_555
C15A C16A 1_555 1_555
C16A H9A 1_555 1_555
C17A C14A 1_555 1_555
C18A C17A 1_555 1_555
C19A C18A 1_555 1_555
C20A C15A 1_555 1_555
H10A C20A 1_555 1_555
C21A C19A 1_555 1_555
H11A C21A 1_555 1_555
H12A C21A 1_555 1_555
C22A C23A 1_555 1_555
C23A H13A 1_555 1_555
C24A C21A 1_555 1_555
C25A C24A 1_555 1_555
C26A C25A 1_555 1_555
C27A C22A 1_555 1_555
H14A C27A 1_555 1_555
C28A C3A 1_555 1_555
H15A C28A 1_555 1_555
H16A C28A 1_555 1_555
O1A Mn1 1_555 1_555
O2A Mn1 1_555 1_555
H17A O2A 1_555 1_555
H18A O2A 1_555 1_555
O3A S1A 1_555 1_555
O4A Mn1 1_555 1_555
H19A O4A 1_555 1_555
H20A O4A 1_555 1_555
O5A Mn2A 1_555 1_555
H21A O5A 1_555 1_555
H22A O5A 1_555 1_555
O6A S1A 1_555 1_555
O7A C4A 1_555 1_555
H23A O7A 1_555 1_555
O8A Mn2A 1_555 1_555
H24A O8A 1_555 1_555
H25A O8A 1_555 1_555
O9A Mn2A 1_555 1_555
H26A O9A 1_555 1_555
H27A O9A 1_555 1_555
O10A S2A 1_555 1_555
O11A Mn2A 1_555 1_555
H28A O11A 1_555 1_555
H29A O11A 1_555 1_555
O12A S2A 1_555 1_555
O14A S2A 1_555 1_555
O15A C11A 1_555 1_555
H30A O15A 1_555 1_555
O17A S3A 1_555 1_555
O19A S3A 1_555 1_555
O21A S3A 1_555 1_555
O21_2 Mn2 1_555 1_555
O21A_2 Mn2A 1_555 1_555
O23A C18A 1_555 1_555
H31A O23A 1_555 1_555
O24A S4A 1_555 1_555
O25A S4A 1_555 1_555
O26A S4A 1_555 1_555
O27A C25A 1_555 1_555
H36A O27A 1_555 1_555
C5 C6 1_555 1_555
C9 C10 1_555 1_555
C12 C13 1_555 1_555
C16 C17 1_555 1_555
C19 C20 1_555 1_555
C23 C24 1_555 1_555
C26 C27 1_555 1_555
C26 C28 1_555 1_555
S1A O1A 1_555 1_555
C5A C6A 1_555 1_555
C9A C10A 1_555 1_555
C12A C13A 1_555 1_555
C16A C17A 1_555 1_555
C19A C20A 1_555 1_555
C23A C24A 1_555 1_555
C26A C27A 1_555 1_555
C26A C28A 1_555 1_555

#END
