
#######################################################################
#
#                 Cambridge Crystallographic Data Centre
#                                CCDC 
#
#######################################################################
#
# If this CIF has been generated from an entry in the Cambridge 
# Structural Database, then it will include bibliographic, chemical, 
# crystal, experimental, refinement or atomic coordinate data resulting 
# from the CCDC's data processing and validation procedures.
#
#######################################################################

data_GIPFUH
_symmetry_cell_setting           triclinic
_symmetry_space_group_name_H-M   'P -1'
_symmetry_Int_Tables_number      2
_space_group_name_Hall           '-P 1'
loop_
_symmetry_equiv_pos_site_id
_symmetry_equiv_pos_as_xyz
1 x,y,z
2 -x,-y,-z
_cell_length_a                   10.494(5)
_cell_length_b                   11.924(6)
_cell_length_c                   13.808(6)
_cell_angle_alpha                93.809(2)
_cell_angle_beta                 110.921(4)
_cell_angle_gamma                111.117(5)
_cell_volume                     1467.3
loop_
_atom_site_label
_atom_site_type_symbol
_atom_site_fract_x
_atom_site_fract_y
_atom_site_fract_z
Sm1 Sm 0.13276(3) 0.43591(3) 0.13294(2)
Sm2 Sm 0.76941(3) 0.84303(3) 0.45770(2)
O1 O 0.9243(5) 0.7752(4) 0.3715(4)
O2 O 0.6491(5) 0.8075(4) 0.2509(3)
O3 O 0.0920(4) 0.6226(4) 0.2060(3)
O4 O 0.3706(4) 0.5258(4) 0.3012(3)
O5 O 0.9398(4) 1.0401(4) 0.4205(3)
O6 O -0.1238(4) 0.4164(3) 0.0007(3)
O7 O 0.0157(5) 0.3973(4) 0.2685(3)
O8 O 0.6794(4) 0.7370(4) 0.5914(3)
O9 O 0.0832(6) 0.0470(4) 0.1969(4)
O10 O 0.5042(4) 0.8063(4) 0.4136(4)
O11 O 0.1215(4) 0.3360(4) -0.0407(3)
O12 O -0.3467(4) 0.3176(4) -0.1307(3)
O13 O 0.6219(4) 0.6133(4) 0.3838(3)
O14 O 1.0122(5) 1.2281(4) 0.3933(4)
O15 O 0.1611(5) 0.2482(4) 0.1968(3)
O16 O 0.3000(4) 0.8435(4) 0.3590(4)
O17 O 0.2167(5) 0.2717(4) -0.1420(3)
N1 N 0.6680(5) 1.0152(4) 0.3838(3)
N2 N 0.3790(5) 0.4278(4) 0.1269(3)
N3 N -0.1040(5) 0.2143(4) 0.0526(3)
C1 C 0.6334(7) 0.4083(6) 0.1279(5)
H1 H 0.7207 0.4010 0.1280
C2 C 0.5007(6) 0.5449(5) 0.3074(4)
C3 C -0.2367(6) 0.2013(5) -0.0215(4)
C4 C 0.5239(6) 0.9932(5) 0.3596(4)
C5 C 0.4353(5) 0.8714(5) 0.3794(4)
C6 C 0.3757(6) 0.3681(5) 0.0399(4)
C7 C 0.2256(6) 0.3200(5) -0.0566(4)
C8 C -0.2399(5) 0.3181(5) -0.0544(4)
C9 C 0.0649(7) 0.1378(6) 0.1658(5)
C10 C 0.7031(7) 1.2039(6) 0.3247(5)
H2 H 0.7676 1.2770 0.3140
C11 C 0.6383(6) 0.4715(6) 0.2175(5)
H3 H 0.7285 0.5081 0.2802
C12 C 0.9132(6) 1.1310(5) 0.3929(4)
C13 C 0.5091(6) 0.4801(5) 0.2139(4)
C14 C 0.4643(6) 1.0740(6) 0.3175(5)
H4 H 0.3620 1.0566 0.3005
C15 C -0.0890(7) 0.1143(5) 0.0830(5)
C16 C 0.5549(7) 1.1800(6) 0.3006(6)
H5 H 0.5157 1.2369 0.2723
C17 C 0.5005(6) 0.3556(6) 0.0379(5)
H6 H 0.4953 0.3116 -0.0243
C18 C 0.7545(6) 1.1173(5) 0.3652(4)
C19 C -0.3416(8) -0.0132(7) -0.0298(7)
H7 H -0.4235 -0.0919 -0.0581
C20 C -0.3590(7) 0.0890(6) -0.0644(5)
H8 H -0.4520 0.0819 -0.1160
C21 C -0.2067(8) -0.0013(6) 0.0452(6)
H9 H -0.1945 -0.0706 0.0704
O18 O 0.8333(4) 1.0146(4) 0.6135(3)
H10 H 0.5791 0.7540 0.2141
H11 H 0.1389 0.6675 0.2678
H12 H -0.0040 0.4468 0.3009
H13 H -0.0078 0.3292 0.2794
H14 H 0.6435 0.8778 0.2667
H15 H 0.0447 0.6574 0.1660
H16 H 0.8795 1.0011 0.6713
H17 H 0.9081 0.7247 0.3242
H18 H 0.9754 0.7591 0.4241
H19 H 0.7890 1.0592 0.6223
H20 H 0.7078 0.7167 0.6494
H21 H 0.5949 0.7229 0.5662
Sm1A Sm -0.13276(3) 0.56409(3) -0.13294(2)
Sm2A Sm 1.23059(3) 1.15697(3) 0.54230(2)
O5A O 1.0602(4) 0.9599(4) 0.5795(3)
O6A O 0.1238(4) 0.5836(3) -0.0007(3)
O19 O 0.3563(7) 0.5882(6) 0.4982(4)
H22 H 0.3715 0.6375 0.5505
H23 H 0.3515 0.5175 0.5115
O20 O 0.0508(7) 0.5780(6) 0.4325(5)
H24 H 0.0891 0.5595 0.4917
H25 H -0.0325 0.5855 0.4207
loop_
_geom_bond_atom_site_label_1
_geom_bond_atom_site_label_2
_geom_bond_site_symmetry_1
_geom_bond_site_symmetry_2
Sm1 O3 1_555 1_555
Sm2 O1 1_555 1_555
O1 H17 1_555 1_555
O2 Sm2 1_555 1_555
O3 H11 1_555 1_555
O4 Sm1 1_555 1_555
O5 Sm2 1_555 1_555
O6 Sm1 1_555 1_555
O7 Sm1 1_555 1_555
O8 Sm2 1_555 1_555
O9 C9 1_555 1_555
O10 Sm2 1_555 1_555
O11 Sm1 1_555 1_555
O12 C8 1_555 1_555
O13 Sm2 1_555 1_555
O14 C12 1_555 1_555
O15 Sm1 1_555 1_555
O16 C5 1_555 1_555
O17 C7 1_555 1_555
N1 Sm2 1_555 1_555
N2 Sm1 1_555 1_555
N3 Sm1 1_555 1_555
C1 H1 1_555 1_555
C2 O4 1_555 1_555
C3 N3 1_555 1_555
C4 N1 1_555 1_555
C5 O10 1_555 1_555
C6 N2 1_555 1_555
C7 O11 1_555 1_555
C8 O6 1_555 1_555
C9 O15 1_555 1_555
C10 H2 1_555 1_555
C11 C1 1_555 1_555
H3 C11 1_555 1_555
C12 O5 1_555 1_555
C13 N2 1_555 1_555
C14 C4 1_555 1_555
H4 C14 1_555 1_555
C15 N3 1_555 1_555
C16 C10 1_555 1_555
H5 C16 1_555 1_555
C17 C1 1_555 1_555
H6 C17 1_555 1_555
C18 N1 1_555 1_555
C19 H7 1_555 1_555
C20 C3 1_555 1_555
H8 C20 1_555 1_555
C21 C15 1_555 1_555
H9 C21 1_555 1_555
O18 Sm2 1_555 1_555
H10 O2 1_555 1_555
H12 O7 1_555 1_555
H13 O7 1_555 1_555
H14 O2 1_555 1_555
H15 O3 1_555 1_555
H16 O18 1_555 1_555
H18 O1 1_555 1_555
H19 O18 1_555 1_555
H20 O8 1_555 1_555
H21 O8 1_555 1_555
O19 H22 1_555 1_555
H23 O19 1_555 1_555
O20 H24 1_555 1_555
H25 O20 1_555 1_555
Sm1A O6 1_555 1_555
Sm2A O5 1_555 1_555
O5A Sm2 1_555 1_555
O6A Sm1 1_555 1_555
O13 C2 1_555 1_555
C2 C13 1_555 1_555
C3 C8 1_555 1_555
C4 C5 1_555 1_555
C6 C7 1_555 1_555
C6 C17 1_555 1_555
C9 C15 1_555 1_555
C10 C18 1_555 1_555
C11 C13 1_555 1_555
C12 C18 1_555 1_555
C14 C16 1_555 1_555
C19 C20 1_555 1_555
C19 C21 1_555 1_555
Sm1A O6A 1_555 1_555
Sm2A O5A 1_555 1_555

#END
