
#######################################################################
#
#                 Cambridge Crystallographic Data Centre
#                                CCDC 
#
#######################################################################
#
# If this CIF has been generated from an entry in the Cambridge 
# Structural Database, then it will include bibliographic, chemical, 
# crystal, experimental, refinement or atomic coordinate data resulting 
# from the CCDC's data processing and validation procedures.
#
#######################################################################

data_GIPFAN
_symmetry_cell_setting           tetragonal
_symmetry_space_group_name_H-M   'P 4/n'
_symmetry_Int_Tables_number      85
_space_group_name_Hall           '-P 4a'
loop_
_symmetry_equiv_pos_site_id
_symmetry_equiv_pos_as_xyz
1 x,y,z
2 1/2-y,x,z
3 y,1/2-x,z
4 1/2-x,1/2-y,z
5 -x,-y,-z
6 1/2+y,-x,-z
7 -y,1/2+x,-z
8 1/2+x,1/2+y,-z
_cell_length_a                   11.7181(16)
_cell_length_b                   11.7181(16)
_cell_length_c                   13.951(4)
_cell_angle_alpha                90
_cell_angle_beta                 90
_cell_angle_gamma                90
_cell_volume                     1915.67
loop_
_atom_site_label
_atom_site_type_symbol
_atom_site_fract_x
_atom_site_fract_y
_atom_site_fract_z
Mn1 Mn 0.0000 1.0000 0.0000
O1 O 0.1299(4) 0.9671(4) -0.1069(3)
H1 H 0.1554 1.0275 -0.1330
H2 H 0.1076 0.9202 -0.1495
O2 O 0.0742(4) 1.1625(4) 0.0199(4)
H3 H 0.0945 1.1883 -0.0344
H4 H 0.1327 1.1582 0.0558
S1 S 0.16472(11) 0.95446(12) 0.19006(9)
O3 O 0.1098(4) 0.9155(4) 0.1038(3)
O4 O 0.1695(4) 1.0773(4) 0.1900(3)
O5 O 0.2727(3) 0.9031(4) 0.2040(3)
O6 O -0.1116(3) 0.8192(3) 0.5159(3)
H5 H -0.1319 0.7507 0.5117
C1 C -0.0006(4) 0.9892(4) 0.3228(4)
H6 H -0.0084 1.0632 0.2957
C2 C -0.0532(4) 0.8485(4) 0.4375(3)
C3 C 0.0899(4) 0.8059(4) 0.3221(3)
H7 H 0.1436 0.7547 0.2946
C4 C -0.1545(4) 1.0397(4) 0.4391(4)
H8 H -0.1581 1.0301 0.5096
H9 H -0.1285 1.1186 0.4259
C5 C -0.0682(4) 0.9571(4) 0.3990(3)
C6 C 0.0240(3) 0.7717(4) 0.3982(3)
C7 C 0.0782(4) 0.9137(4) 0.2859(3)
Mn1B Mn 0.0000 0.5000 0.0000
Mn1G Mn -0.5000 0.5000 0.0000
Mn1A Mn -0.5000 1.0000 0.0000
O1D O -0.1299(4) 1.0329(4) 0.1069(3)
O1B O -0.0329(4) 0.3701(4) -0.1069(3)
O1F O 0.0329(4) 0.6299(4) 0.1069(3)
H1D H -0.1554 0.9725 0.1330
H1B H 0.0275 0.3446 -0.1330
H1F H -0.0275 0.6554 0.1330
H2D H -0.1076 1.0798 0.1495
H2B H -0.0798 0.3924 -0.1495
H2F H 0.0798 0.6076 0.1495
O2D O -0.0742(4) 0.8375(4) -0.0199(4)
O2B O 0.1625(4) 0.4258(4) 0.0199(4)
O2F O -0.1625(4) 0.5742(4) -0.0199(4)
H3D H -0.0945 0.8117 0.0344
H3B H 0.1883 0.4055 -0.0344
H3F H -0.1883 0.5945 0.0344
H4D H -0.1327 0.8418 -0.0558
H4B H 0.1582 0.3673 0.0558
H4F H -0.1582 0.6327 -0.0558
S1B S -0.04554(12) 0.33528(11) 0.19006(9)
S1C S -0.66472(11) 0.54554(12) 0.19006(9)
S1A S -0.45446(12) 1.16472(11) 0.19006(9)
O3B O -0.0845(4) 0.3902(4) 0.1038(3)
O3C O -0.6098(4) 0.5845(4) 0.1038(3)
O3A O -0.4155(4) 1.1098(4) 0.1038(3)
O3D O -0.1098(4) 1.0845(4) -0.1038(3)
O3F O 0.0845(4) 0.6098(4) -0.1038(3)
O4B O 0.0773(4) 0.3305(4) 0.1900(3)
O4C O -0.6695(4) 0.4227(4) 0.1900(3)
O4A O -0.5773(4) 1.1695(4) 0.1900(3)
O5B O -0.0969(4) 0.2273(3) 0.2040(3)
O5C O -0.7727(3) 0.5969(4) 0.2040(3)
O5A O -0.4031(4) 1.2727(3) 0.2040(3)
O6B O -0.1808(3) 0.6116(3) 0.5159(3)
O6C O -0.3884(3) 0.6808(3) 0.5159(3)
O6A O -0.3192(3) 0.8884(3) 0.5159(3)
H5B H -0.2493 0.6319 0.5117
H5C H -0.3681 0.7493 0.5117
H5A H -0.2507 0.8681 0.5117
C1B C -0.0108(4) 0.5006(4) 0.3228(4)
C1C C -0.4994(4) 0.5108(4) 0.3228(4)
C1A C -0.4892(4) 0.9994(4) 0.3228(4)
H6B H 0.0632 0.5084 0.2957
H6C H -0.4916 0.4368 0.2957
H6A H -0.5632 0.9916 0.2957
C2B C -0.1515(4) 0.5532(4) 0.4375(3)
C2C C -0.4468(4) 0.6515(4) 0.4375(3)
C2A C -0.3485(4) 0.9468(4) 0.4375(3)
C3B C -0.1941(4) 0.4101(4) 0.3221(3)
C3C C -0.5899(4) 0.6941(4) 0.3221(3)
C3A C -0.3059(4) 1.0899(4) 0.3221(3)
H7B H -0.2453 0.3564 0.2946
H7C H -0.6436 0.7453 0.2946
H7A H -0.2547 1.1436 0.2946
C4B C 0.0397(4) 0.6545(4) 0.4391(4)
C4C C -0.3455(4) 0.4603(4) 0.4391(4)
C4A C -0.5397(4) 0.8455(4) 0.4391(4)
H8B H 0.0301 0.6581 0.5096
H8C H -0.3419 0.4699 0.5096
H8A H -0.5301 0.8419 0.5096
H9B H 0.1186 0.6285 0.4259
H9C H -0.3715 0.3814 0.4259
H9A H -0.6186 0.8715 0.4259
C5B C -0.0429(4) 0.5682(4) 0.3990(3)
C5C C -0.4318(4) 0.5429(4) 0.3990(3)
C5A C -0.4571(4) 0.9318(4) 0.3990(3)
C6B C -0.2283(4) 0.4760(3) 0.3982(3)
C6C C -0.5240(3) 0.7283(4) 0.3982(3)
C6A C -0.2717(4) 1.0240(3) 0.3982(3)
C7B C -0.0863(4) 0.4218(4) 0.2859(3)
C7C C -0.5782(4) 0.5863(4) 0.2859(3)
C7A C -0.4137(4) 1.0782(4) 0.2859(3)
O7 O 0.2500 0.2500 0.3079(7)
O8 O 0.2500 0.7500 1.0000
O9? O 0.2713(13) 1.1327(12) -0.1593(11)
O10? O 0.3230(18) 1.1602(15) -0.2065(11)
loop_
_geom_bond_atom_site_label_1
_geom_bond_atom_site_label_2
_geom_bond_site_symmetry_1
_geom_bond_site_symmetry_2
Mn1 O1 1_555 1_555
O1 H1 1_555 1_555
H2 O1 1_555 1_555
O2 Mn1 1_555 1_555
H3 O2 1_555 1_555
H4 O2 1_555 1_555
S1 O3 1_555 1_555
O3 Mn1 1_555 1_555
O4 S1 1_555 1_555
O5 S1 1_555 1_555
O6 H5 1_555 1_555
C1 H6 1_555 1_555
C2 O6 1_555 1_555
C3 H7 1_555 1_555
C4 H8 1_555 1_555
H9 C4 1_555 1_555
C5 C1 1_555 1_555
C6 C2 1_555 1_555
C7 S1 1_555 1_555
Mn1B O1B 1_555 1_555
Mn1G O3C 1_555 1_555
Mn1A O3A 1_555 1_555
O1D Mn1 1_555 1_555
O1B H1B 1_555 1_555
O1F Mn1B 1_555 1_555
H1D O1D 1_555 1_555
H1F O1F 1_555 1_555
H2D O1D 1_555 1_555
H2B O1B 1_555 1_555
H2F O1F 1_555 1_555
O2D Mn1 1_555 1_555
O2B Mn1B 1_555 1_555
O2F Mn1B 1_555 1_555
H3D O2D 1_555 1_555
H3B O2B 1_555 1_555
H3F O2F 1_555 1_555
H4D O2D 1_555 1_555
H4B O2B 1_555 1_555
H4F O2F 1_555 1_555
S1B O3B 1_555 1_555
S1C O3C 1_555 1_555
S1A O3A 1_555 1_555
O3B Mn1B 1_555 1_555
O3D Mn1 1_555 1_555
O3F Mn1B 1_555 1_555
O4B S1B 1_555 1_555
O4C S1C 1_555 1_555
O4A S1A 1_555 1_555
O5B S1B 1_555 1_555
O5C S1C 1_555 1_555
O5A S1A 1_555 1_555
O6B H5B 1_555 1_555
O6C H5C 1_555 1_555
O6A H5A 1_555 1_555
C1B H6B 1_555 1_555
C1C H6C 1_555 1_555
C1A H6A 1_555 1_555
C2B O6B 1_555 1_555
C2C O6C 1_555 1_555
C2A O6A 1_555 1_555
C3B H7B 1_555 1_555
C3C H7C 1_555 1_555
C3A H7A 1_555 1_555
C4B C6 1_555 1_555
C4C H8C 1_555 1_555
C4A H8A 1_555 1_555
H8B C4B 1_555 1_555
H9B C4B 1_555 1_555
H9C C4C 1_555 1_555
H9A C4A 1_555 1_555
C5B C1B 1_555 1_555
C5C C1C 1_555 1_555
C5A C1A 1_555 1_555
C6B C2B 1_555 1_555
C6C C2C 1_555 1_555
C6A C4 1_555 1_555
C7B S1B 1_555 1_555
C7C S1C 1_555 1_555
C7A S1A 1_555 1_555
C1 C7 1_555 1_555
C2 C5 1_555 1_555
C3 C6 1_555 1_555
C3 C7 1_555 1_555
C4 C5 1_555 1_555
C1B C7B 1_555 1_555
C1C C7C 1_555 1_555
C1A C7A 1_555 1_555
C2B C5B 1_555 1_555
C2C C5C 1_555 1_555
C2A C5A 1_555 1_555
C2A C6A 1_555 1_555
C3B C6B 1_555 1_555
C3B C7B 1_555 1_555
C3C C6C 1_555 1_555
C3C C7C 1_555 1_555
C3A C6A 1_555 1_555
C3A C7A 1_555 1_555
C4B C5B 1_555 1_555
C4C C5C 1_555 1_555
C4C C6B 1_555 1_555
C4A C5A 1_555 1_555
C4A C6C 1_555 1_555

#END
