
#######################################################################
#
#                 Cambridge Crystallographic Data Centre
#                                CCDC 
#
#######################################################################
#
# If this CIF has been generated from an entry in the Cambridge 
# Structural Database, then it will include bibliographic, chemical, 
# crystal, experimental, refinement or atomic coordinate data resulting 
# from the CCDC's data processing and validation procedures.
#
#######################################################################

data_GIPFER
_symmetry_cell_setting           triclinic
_symmetry_space_group_name_H-M   'P -1'
_symmetry_Int_Tables_number      2
_space_group_name_Hall           '-P 1'
loop_
_symmetry_equiv_pos_site_id
_symmetry_equiv_pos_as_xyz
1 x,y,z
2 -x,-y,-z
_cell_length_a                   11.158(3)
_cell_length_b                   12.596(3)
_cell_length_c                   14.375(4)
_cell_angle_alpha                93.055(5)
_cell_angle_beta                 96.850(5)
_cell_angle_gamma                91.026(5)
_cell_volume                     2002.48
loop_
_atom_site_label
_atom_site_type_symbol
_atom_site_fract_x
_atom_site_fract_y
_atom_site_fract_z
Mn1 Mn 1.0000 0.5000 0.0000
Mn2 Mn 1.0000 0.0000 0.0000
S1 S 0.82336(16) 0.38347(14) 0.14025(12)
S2 S 1.00279(15) -0.15595(14) 0.18145(12)
S3 S 1.57134(16) 0.06390(14) 0.16519(12)
S4 S 1.43432(17) 0.66286(14) 0.22326(13)
C1 C 1.4787(6) 0.4995(5) 0.3373(5)
H1 H 1.5544 0.4979 0.3164
C2 C 1.4134(5) 0.0610(5) 0.3996(4)
C3 C 1.1662(5) -0.0804(5) 0.3256(4)
H2 H 1.2170 -0.1318 0.3044
C4 C 1.4458(5) 0.1624(5) 0.4388(4)
C5 C 1.3356(6) 0.4333(5) 0.4304(4)
C6 C 1.2063(5) -0.0139(5) 0.4006(4)
C7 C 1.0274(6) 0.3290(5) 0.4208(4)
C8 C 1.3366(6) -0.0165(5) 0.4440(5)
H3 H 1.3416 0.0013 0.5108
H4 H 1.3667 -0.0877 0.4354
C9 C 1.4493(6) 0.4288(5) 0.3993(4)
C10 C 0.9014(6) 0.3657(5) 0.2515(5)
C11 C 0.9809(6) 0.4425(5) 0.2942(4)
H5 H 0.9921 0.5054 0.2649
C12 C 1.0443(5) 0.4268(5) 0.3803(4)
C13 C 1.5404(6) 0.2058(5) 0.3061(4)
H6 H 1.5816 0.2540 0.2738
C14 C 1.0109(5) 0.0670(5) 0.3890(4)
C15 C 0.9443(5) 0.2538(5) 0.3787(4)
C16 C 1.1277(5) 0.0591(5) 0.4330(4)
C17 C 1.5137(6) 0.1045(5) 0.2676(4)
C18 C 1.2523(5) 0.5075(4) 0.3967(4)
C19 C 1.3964(6) 0.5739(5) 0.3051(5)
C20 C 1.5062(5) 0.2355(5) 0.3923(4)
C21 C 1.5377(6) 0.3458(5) 0.4343(5)
H7 H 1.6176 0.3659 0.4201
H8 H 1.5409 0.3450 0.5020
C22 C 0.8811(6) 0.2745(5) 0.2923(4)
H9 H 0.8245 0.2249 0.2626
C23 C 1.2860(6) 0.5784(5) 0.3346(5)
H10 H 1.2325 0.6297 0.3127
C24 C 1.1289(6) 0.5107(5) 0.4294(5)
H11 H 1.1368 0.5014 0.4964
H12 H 1.0950 0.5800 0.4186
C25 C 1.4505(5) 0.0338(5) 0.3139(4)
H13 H 1.4325 -0.0341 0.2866
C26 C 1.0512(6) -0.0726(5) 0.2806(5)
C27 C 0.9747(6) 0.0006(5) 0.3122(5)
H14 H 0.8971 0.0053 0.2812
C28 C 0.9268(5) 0.1496(5) 0.4216(4)
H15 H 0.8439 0.1245 0.4048
H16 H 0.9411 0.1599 0.4894
O1 O 0.8782(5) 0.4767(4) 0.1054(3)
O2 O 0.7003(5) 0.4004(5) 0.1505(5)
O3 O 0.8427(6) 0.2896(4) 0.0833(4)
O4 O 1.0944(4) 0.3100(3) 0.5010(3)
H17 H 1.1646 0.3288 0.4982
O5 O 1.0609(4) -0.1167(4) 0.1037(3)
O6 O 1.0447(5) -0.2597(4) 0.2043(4)
O7 O 0.8738(4) -0.1501(4) 0.1638(4)
O8 O 1.1666(4) 0.1203(4) 0.5101(3)
H18 H 1.1415 0.1806 0.5040
O9 O 1.5025(7) -0.0269(5) 0.1279(5)
O10 O 1.6948(5) 0.0350(5) 0.1924(4)
O11 O 1.5653(5) 0.1514(4) 0.1067(4)
O12 O 1.4179(4) 0.1891(4) 0.5264(3)
H19 H 1.3728 0.1431 0.5424
O13 O 1.3825(7) 0.7619(5) 0.2454(5)
O14 O 1.5620(5) 0.6695(5) 0.2304(5)
O15 O 1.3825(6) 0.6208(5) 0.1335(4)
O16 O 1.3095(4) 0.3664(4) 0.4951(3)
H20 H 1.3470 0.3116 0.4892
O17 O 1.0889(5) 0.3512(4) 0.0277(4)
O18 O 1.1266(5) 0.5794(4) 0.1056(4)
O19 O 0.8864(5) 0.0792(4) 0.0909(4)
O20 O 1.1443(7) 0.1031(6) 0.0599(5)
Mn2_2 Mn 1.0000 1.0000 0.0000
S1A S 1.17664(16) 0.61653(14) -0.14025(12)
S2A S 0.99721(15) 1.15595(14) -0.18145(12)
S3A S 0.42866(16) 0.93610(14) -0.16519(12)
S4A S 0.56568(17) 0.33714(14) -0.22326(13)
C1A C 0.5213(6) 0.5005(5) -0.3373(5)
H1A H 0.4456 0.5021 -0.3164
C2A C 0.5866(5) 0.9390(5) -0.3996(4)
C3A C 0.8338(5) 1.0804(5) -0.3256(4)
H2A H 0.7830 1.1318 -0.3044
C4A C 0.5542(5) 0.8376(5) -0.4388(4)
C5A C 0.6644(6) 0.5667(5) -0.4304(4)
C6A C 0.7937(5) 1.0139(5) -0.4006(4)
C7A C 0.9726(6) 0.6710(5) -0.4208(4)
C8A C 0.6634(6) 1.0165(5) -0.4440(5)
H3A H 0.6584 0.9987 -0.5108
H4A H 0.6333 1.0877 -0.4354
C9A C 0.5507(6) 0.5712(5) -0.3993(4)
C10A C 1.0986(6) 0.6343(5) -0.2515(5)
C11A C 1.0191(6) 0.5575(5) -0.2942(4)
H5A H 1.0079 0.4946 -0.2649
C12A C 0.9557(5) 0.5732(5) -0.3803(4)
C13A C 0.4596(6) 0.7942(5) -0.3061(4)
H6A H 0.4184 0.7460 -0.2738
C14A C 0.9891(5) 0.9330(5) -0.3890(4)
C15A C 1.0557(5) 0.7462(5) -0.3787(4)
C16A C 0.8723(5) 0.9409(5) -0.4330(4)
C17A C 0.4863(6) 0.8955(5) -0.2676(4)
C18A C 0.7477(5) 0.4925(4) -0.3967(4)
C19A C 0.6036(6) 0.4261(5) -0.3051(5)
C20A C 0.4938(5) 0.7645(5) -0.3923(4)
C21A C 0.4623(6) 0.6542(5) -0.4343(5)
H7A H 0.3824 0.6341 -0.4201
H8A H 0.4591 0.6550 -0.5020
C22A C 1.1189(6) 0.7255(5) -0.2923(4)
H9A H 1.1755 0.7751 -0.2626
C23A C 0.7140(6) 0.4216(5) -0.3346(5)
H10A H 0.7675 0.3703 -0.3127
C24A C 0.8711(6) 0.4893(5) -0.4294(5)
H11A H 0.8632 0.4986 -0.4964
H12A H 0.9050 0.4200 -0.4186
C25A C 0.5495(5) 0.9662(5) -0.3139(4)
H13A H 0.5675 1.0341 -0.2866
C26A C 0.9488(6) 1.0726(5) -0.2806(5)
C27A C 1.0253(6) 0.9994(5) -0.3122(5)
H14A H 1.1029 0.9947 -0.2812
C28A C 1.0732(5) 0.8504(5) -0.4216(4)
H15A H 1.1561 0.8755 -0.4048
H16A H 1.0589 0.8401 -0.4894
O1A O 1.1218(5) 0.5233(4) -0.1054(3)
O2A O 1.2997(5) 0.5996(5) -0.1505(5)
O3A O 1.1573(6) 0.7104(4) -0.0833(4)
O4A O 0.9056(4) 0.6900(3) -0.5010(3)
H17A H 0.8354 0.6712 -0.4982
O5A O 0.9391(4) 1.1167(4) -0.1037(3)
O5A_2 O 0.9391(4) 0.1167(4) -0.1037(3)
O6A O 0.9553(5) 1.2597(4) -0.2043(4)
O7A O 1.1262(4) 1.1501(4) -0.1638(4)
O8A O 0.8334(4) 0.8797(4) -0.5101(3)
H18A H 0.8585 0.8194 -0.5040
O9A O 0.4975(7) 1.0269(5) -0.1279(5)
O10A O 0.3052(5) 0.9650(5) -0.1924(4)
O11A O 0.4347(5) 0.8486(4) -0.1067(4)
O12A O 0.5821(4) 0.8109(4) -0.5264(3)
H19A H 0.6272 0.8569 -0.5424
O13A O 0.6175(7) 0.2381(5) -0.2454(5)
O14A O 0.4380(5) 0.3305(5) -0.2304(5)
O15A O 0.6175(6) 0.3792(5) -0.1335(4)
O16A O 0.6905(4) 0.6336(4) -0.4951(3)
H20A H 0.6530 0.6884 -0.4892
O17A O 0.9111(5) 0.6488(4) -0.0277(4)
O18A O 0.8734(5) 0.4206(4) -0.1056(4)
O19A O 1.1136(5) -0.0792(4) -0.0909(4)
O20A O 0.8557(7) -0.1031(6) -0.0599(5)
O21 O 1.3077(6) -0.1617(6) 0.0616(5)
O22 O 1.2631(7) 0.3624(6) 0.1751(6)
O23 O 1.7128(7) 0.6476(6) 0.0965(6)
O24 O 1.1486(7) 0.3210(6) 0.6921(5)
O25 O 1.3038(6) 0.1484(5) 0.6921(4)
O26 O 1.3444(6) 0.1541(5) -0.0152(4)
N1 N 1.1862(8) 0.1761(7) 0.2373(6)
N2 N 0.4569(8) 0.4014(9) 0.0798(6)
loop_
_geom_bond_atom_site_label_1
_geom_bond_atom_site_label_2
_geom_bond_site_symmetry_1
_geom_bond_site_symmetry_2
Mn1 O1 1_555 1_555
Mn2 O5 1_555 1_555
S1 C10 1_555 1_555
S2 C26 1_555 1_555
S3 C17 1_555 1_555
S4 C19 1_555 1_555
C1 H1 1_555 1_555
C2 C4 1_555 1_555
C3 H2 1_555 1_555
C4 C20 1_555 1_555
C5 C9 1_555 1_555
C6 C3 1_555 1_555
C7 C12 1_555 1_555
C8 C2 1_555 1_555
H3 C8 1_555 1_555
H4 C8 1_555 1_555
C9 C1 1_555 1_555
C10 C11 1_555 1_555
C11 H5 1_555 1_555
C12 C11 1_555 1_555
C13 H6 1_555 1_555
C14 C16 1_555 1_555
C15 C7 1_555 1_555
C16 C6 1_555 1_555
C17 C13 1_555 1_555
C18 C5 1_555 1_555
C19 C1 1_555 1_555
C20 C13 1_555 1_555
C21 C9 1_555 1_555
H7 C21 1_555 1_555
H8 C21 1_555 1_555
C22 C10 1_555 1_555
H9 C22 1_555 1_555
C23 C18 1_555 1_555
H10 C23 1_555 1_555
C24 C12 1_555 1_555
H11 C24 1_555 1_555
H12 C24 1_555 1_555
C25 C2 1_555 1_555
H13 C25 1_555 1_555
C26 C3 1_555 1_555
C27 C14 1_555 1_555
H14 C27 1_555 1_555
C28 C14 1_555 1_555
H15 C28 1_555 1_555
H16 C28 1_555 1_555
O1 S1 1_555 1_555
O2 S1 1_555 1_555
O3 S1 1_555 1_555
O4 C7 1_555 1_555
H17 O4 1_555 1_555
O5 S2 1_555 1_555
O6 S2 1_555 1_555
O7 S2 1_555 1_555
O8 C16 1_555 1_555
H18 O8 1_555 1_555
O9 S3 1_555 1_555
O10 S3 1_555 1_555
O11 S3 1_555 1_555
O12 C4 1_555 1_555
H19 O12 1_555 1_555
O13 S4 1_555 1_555
O14 S4 1_555 1_555
O15 S4 1_555 1_555
O16 C5 1_555 1_555
H20 O16 1_555 1_555
O17 Mn1 1_555 1_555
O18 Mn1 1_555 1_555
O19 Mn2 1_555 1_555
O20 Mn2 1_555 1_555
Mn2_2 O5A 1_555 1_555
S1A C10A 1_555 1_555
S2A C26A 1_555 1_555
S3A C17A 1_555 1_555
S4A C19A 1_555 1_555
C1A H1A 1_555 1_555
C2A C4A 1_555 1_555
C3A H2A 1_555 1_555
C4A C20A 1_555 1_555
C5A C9A 1_555 1_555
C6A C3A 1_555 1_555
C7A C12A 1_555 1_555
C8A C2A 1_555 1_555
H3A C8A 1_555 1_555
H4A C8A 1_555 1_555
C9A C1A 1_555 1_555
C10A C11A 1_555 1_555
C11A H5A 1_555 1_555
C12A C11A 1_555 1_555
C13A H6A 1_555 1_555
C14A C16A 1_555 1_555
C15A C7A 1_555 1_555
C16A C6A 1_555 1_555
C17A C13A 1_555 1_555
C18A C5A 1_555 1_555
C19A C1A 1_555 1_555
C20A C13A 1_555 1_555
C21A C9A 1_555 1_555
H7A C21A 1_555 1_555
H8A C21A 1_555 1_555
C22A C10A 1_555 1_555
H9A C22A 1_555 1_555
C23A C18A 1_555 1_555
H10A C23A 1_555 1_555
C24A C12A 1_555 1_555
H11A C24A 1_555 1_555
H12A C24A 1_555 1_555
C25A C2A 1_555 1_555
H13A C25A 1_555 1_555
C26A C3A 1_555 1_555
C27A C14A 1_555 1_555
H14A C27A 1_555 1_555
C28A C14A 1_555 1_555
H15A C28A 1_555 1_555
H16A C28A 1_555 1_555
O1A Mn1 1_555 1_555
O2A S1A 1_555 1_555
O3A S1A 1_555 1_555
O4A C7A 1_555 1_555
H17A O4A 1_555 1_555
O5A S2A 1_555 1_555
O5A_2 Mn2 1_555 1_555
O6A S2A 1_555 1_555
O7A S2A 1_555 1_555
O8A C16A 1_555 1_555
H18A O8A 1_555 1_555
O9A S3A 1_555 1_555
O10A S3A 1_555 1_555
O11A S3A 1_555 1_555
O12A C4A 1_555 1_555
H19A O12A 1_555 1_555
O13A S4A 1_555 1_555
O14A S4A 1_555 1_555
O15A S4A 1_555 1_555
O16A C5A 1_555 1_555
H20A O16A 1_555 1_555
O17A Mn1 1_555 1_555
O18A Mn1 1_555 1_555
O19A Mn2 1_555 1_555
O20A Mn2 1_555 1_555
C6 C8 1_555 1_555
C15 C22 1_555 1_555
C15 C28 1_555 1_555
C17 C25 1_555 1_555
C18 C24 1_555 1_555
C19 C23 1_555 1_555
C20 C21 1_555 1_555
C26 C27 1_555 1_555
S1A O1A 1_555 1_555
C6A C8A 1_555 1_555
C15A C22A 1_555 1_555
C15A C28A 1_555 1_555
C17A C25A 1_555 1_555
C18A C24A 1_555 1_555
C19A C23A 1_555 1_555
C20A C21A 1_555 1_555
C26A C27A 1_555 1_555

#END
