
#######################################################################
#
#                 Cambridge Crystallographic Data Centre
#                                CCDC 
#
#######################################################################
#
# If this CIF has been generated from an entry in the Cambridge 
# Structural Database, then it will include bibliographic, chemical, 
# crystal, experimental, refinement or atomic coordinate data resulting 
# from the CCDC's data processing and validation procedures.
#
#######################################################################

data_GIPFOB
_symmetry_cell_setting           monoclinic
_symmetry_space_group_name_H-M   'P 21/c'
_symmetry_Int_Tables_number      14
_space_group_name_Hall           '-P 2ybc'
loop_
_symmetry_equiv_pos_site_id
_symmetry_equiv_pos_as_xyz
1 x,y,z
2 -x,1/2+y,1/2-z
3 -x,-y,-z
4 x,1/2-y,1/2+z
_cell_length_a                   9.0245(5)
_cell_length_b                   14.3569(8)
_cell_length_c                   25.2285(14)
_cell_angle_alpha                90
_cell_angle_beta                 103.748(3)
_cell_angle_gamma                90
_cell_volume                     3175.05
loop_
_atom_site_label
_atom_site_type_symbol
_atom_site_fract_x
_atom_site_fract_y
_atom_site_fract_z
Dy1 Dy 0.55434(6) 0.29191(4) 0.33300(2)
Dy2 Dy 0.00322(6) 0.04418(4) 0.24776(2)
O1 O -0.0926(11) 0.2029(7) 0.2351(4)
O2 O 0.4140(11) 0.2713(7) 0.4015(4)
O3 O 0.1839(10) 0.1357(6) 0.2167(4)
O4 O -0.0740(9) -0.1149(7) 0.2580(4)
O5 O 0.3518(9) 0.4035(6) 0.3053(4)
O6 O 0.0366(10) -0.0184(7) 0.1634(4)
O7 O 0.7125(10) 0.1807(6) 0.3011(4)
O8 O 0.7011(11) 0.3941(7) 0.2911(4)
O9 O 0.8425(10) 0.0459(6) 0.3085(4)
O10 O 0.7702(10) 0.4551(6) 0.2192(4)
O11 O 0.3464(10) 0.1935(6) 0.2892(3)
O12 O 0.2363(10) 0.5376(6) 0.3147(4)
O13 O 0.1392(12) 0.1098(7) 0.3326(4)
O14 O 0.7902(10) 0.3088(6) 0.4006(4)
O15 O 0.3642(13) 0.1960(8) 0.4733(4)
O16 O 0.9440(11) 0.3817(8) 0.4699(4)
N1 N 0.5795(11) 0.4368(7) 0.3876(4)
N2 N 0.6062(11) 0.1443(7) 0.3861(4)
N3 N 0.4837(11) 0.2958(7) 0.2309(4)
C1 C 0.5547(15) 0.1369(9) 0.4315(5)
C2 C 0.6108(18) 0.0683(9) 0.4707(6)
H1 H 0.5774 0.0647 0.5036
C3 C 0.5900(18) 0.5848(12) 0.4583(6)
H2 H 0.5917 0.6339 0.4837
C4 C 0.4361(16) 0.2065(10) 0.4373(5)
C5 C 0.7570(14) 0.1042(8) 0.3244(5)
C6 C 0.8226(15) 0.3733(10) 0.4348(5)
C7 C 0.3429(13) 0.4791(9) 0.3287(5)
C8 C 0.6815(14) 0.4007(11) 0.2413(5)
C9 C 0.4686(17) 0.5773(9) 0.4125(6)
H3 H 0.3897 0.6227 0.4047
C10 C 0.4080(18) 0.2996(11) 0.1185(5)
H4 H 0.3822 0.3007 0.0797
C11 C 0.7076(13) 0.0845(8) 0.3757(5)
C12 C 0.5615(13) 0.3503(8) 0.2030(5)
C13 C 0.7005(15) 0.4484(10) 0.4310(5)
C14 C 0.4676(13) 0.5003(9) 0.3783(5)
C15 C 0.3710(14) 0.2431(9) 0.2030(5)
C16 C 0.5251(16) 0.3540(11) 0.1473(6)
H5 H 0.5801 0.3937 0.1287
C17 C 0.3287(15) 0.2437(10) 0.1461(5)
H6 H 0.2466 0.2062 0.1270
C18 C 0.2959(12) 0.1842(7) 0.2392(5)
C19 C 0.7665(19) 0.0118(10) 0.4120(6)
H7 H 0.8377 -0.0315 0.4039
C20 C 0.718(2) 0.0052(11) 0.4595(7)
H8 H 0.7576 -0.0425 0.4850
C21 C 0.7082(17) 0.5207(11) 0.4668(6)
H9 H 0.7933 0.5269 0.4971
Dy2_2 Dy 1.00322(6) 0.04418(4) 0.24776(2)
Dy2A Dy 0.99678(6) 0.54418(4) 0.25224(2)
Dy2A_2 Dy -0.00322(6) 0.54418(4) 0.25224(2)
O9_2 O -0.1575(10) 0.0459(6) 0.3085(4)
O10A O 0.2298(10) -0.0449(6) 0.2808(4)
O12A O -0.2363(10) 0.0376(6) 0.1853(4)
O17 O 0.820(3) 0.4369(14) 0.0960(8)
O18 O 0.9937(17) 0.1341(10) 0.0822(5)
O19 O 0.0411(14) 0.1766(9) 0.4201(6)
O20 O 0.1696(13) 0.3859(9) 0.4074(5)
O21 O 0.821(2) 0.2487(13) 0.1301(7)
O22 O 0.996(3) -0.1662(19) 0.4646(12)
loop_
_geom_bond_atom_site_label_1
_geom_bond_atom_site_label_2
_geom_bond_site_symmetry_1
_geom_bond_site_symmetry_2
Dy1 O2 1_555 1_555
Dy2 O1 1_555 1_555
O2 C4 1_555 1_555
O3 Dy2 1_555 1_555
O4 Dy2 1_555 1_555
O5 Dy1 1_555 1_555
O6 Dy2 1_555 1_555
O7 Dy1 1_555 1_555
O8 Dy1 1_555 1_555
O9 C5 1_555 1_555
O10 C8 1_555 1_555
O11 Dy1 1_555 1_555
O12 C7 1_555 1_555
O13 Dy2 1_555 1_555
O14 Dy1 1_555 1_555
O15 C4 1_555 1_555
O16 C6 1_555 1_555
N1 Dy1 1_555 1_555
N2 Dy1 1_555 1_555
N3 Dy1 1_555 1_555
C1 N2 1_555 1_555
C2 C1 1_555 1_555
H1 C2 1_555 1_555
C3 H2 1_555 1_555
C4 C1 1_555 1_555
C5 O7 1_555 1_555
C6 O14 1_555 1_555
C7 O5 1_555 1_555
C8 O8 1_555 1_555
C9 C3 1_555 1_555
H3 C9 1_555 1_555
C10 H4 1_555 1_555
C11 N2 1_555 1_555
C12 N3 1_555 1_555
C13 N1 1_555 1_555
C14 N1 1_555 1_555
C15 N3 1_555 1_555
C16 C10 1_555 1_555
H5 C16 1_555 1_555
C17 C10 1_555 1_555
H6 C17 1_555 1_555
C18 O3 1_555 1_555
C19 C11 1_555 1_555
H7 C19 1_555 1_555
C20 C2 1_555 1_555
H8 C20 1_555 1_555
C21 C3 1_555 1_555
H9 C21 1_555 1_555
Dy2_2 O9 1_555 1_555
Dy2A O10 1_555 1_555
Dy2A_2 O12 1_555 1_555
O9_2 Dy2 1_555 1_555
O10A Dy2 1_555 1_555
O12A Dy2 1_555 1_555
O11 C18 1_555 1_555
C5 C11 1_555 1_555
C6 C13 1_555 1_555
C7 C14 1_555 1_555
C8 C12 1_555 1_555
C9 C14 1_555 1_555
C12 C16 1_555 1_555
C13 C21 1_555 1_555
C15 C17 1_555 1_555
C15 C18 1_555 1_555
C19 C20 1_555 1_555

#END
