
#######################################################################
#
#                 Cambridge Crystallographic Data Centre
#                                CCDC 
#
#######################################################################
#
# If this CIF has been generated from an entry in the Cambridge 
# Structural Database, then it will include bibliographic, chemical, 
# crystal, experimental, refinement or atomic coordinate data resulting 
# from the CCDC's data processing and validation procedures.
#
#######################################################################

data_GIPGAO
_symmetry_cell_setting           monoclinic
_symmetry_space_group_name_H-M   'C 2/c'
_symmetry_Int_Tables_number      15
_space_group_name_Hall           '-C 2yn'
loop_
_symmetry_equiv_pos_site_id
_symmetry_equiv_pos_as_xyz
1 x,y,z
2 1/2+x,1/2+y,z
3 -x,y,1/2-z
4 1/2-x,1/2+y,1/2-z
5 -x,-y,-z
6 1/2-x,1/2-y,-z
7 x,-y,1/2+z
8 1/2+x,1/2-y,1/2+z
_cell_length_a                   20.5011(5)
_cell_length_b                   12.5304(3)
_cell_length_c                   16.3835(3)
_cell_angle_alpha                90
_cell_angle_beta                 95.4030(10)
_cell_angle_gamma                90
_cell_volume                     4190.01
loop_
_atom_site_label
_atom_site_type_symbol
_atom_site_fract_x
_atom_site_fract_y
_atom_site_fract_z
Mo1 Mo 0.079010(19) 0.40487(3) 0.20600(2)
Mo2 Mo 0.101470(19) 0.65639(3) 0.14891(2)
Mo3 Mo 0.0000 0.81546(5) 0.2500
P1 P 0.05907(5) 0.58446(9) 0.34628(6)
O1 O 0.05724(17) 0.3631(3) 0.10592(19)
O2 O 0.0000 0.3599(4) 0.2500
O3 O 0.1337(2) 0.3108(3) 0.2432(2)
O4 O 0.09499(15) 0.4829(3) 0.32647(18)
O5 O 0.07258(15) 0.6745(3) 0.28538(19)
O6 O 0.03731(17) 0.7711(3) 0.1517(2)
O7 O -0.0581(2) 0.8996(3) 0.2057(3)
O8 O 0.09480(18) 0.6406(3) 0.0439(2)
O9 O 0.17098(18) 0.7299(3) 0.1723(2)
O10 O 0.13579(15) 0.5204(3) 0.18235(19)
O11 O 0.07748(17) 0.6174(3) 0.43470(19)
O12 O -0.01506(14) 0.5556(3) 0.33887(19)
Cu1 Cu 0.10767(3) 0.72803(5) 0.51170(3)
N1 N 0.1512(2) 0.8412(3) 0.5831(3)
N2 N 0.1923(2) 0.6538(3) 0.5440(2)
C1 C 0.2332(2) 0.7079(4) 0.5978(3)
C2 C 0.2116(2) 0.8152(4) 0.6183(3)
C3 C 0.2068(3) 0.5552(4) 0.5220(3)
H1 H 0.1776 0.5189 0.4849
C4 C 0.1265(3) 0.9381(5) 0.5991(4)
H2 H 0.0850 0.9566 0.5755
O13 O 0.0307(2) 0.8189(3) 0.4858(2)
H3 H 0.0120 0.8011 0.4415
H4 H -0.0037 0.8129 0.5238
C5 C 0.2483(3) 0.8860(5) 0.6693(3)
H5 H 0.2896 0.8668 0.6928
C6 C 0.2925(3) 0.6623(5) 0.6296(3)
H6 H 0.3214 0.7001 0.6660
C7 C 0.3071(3) 0.5601(6) 0.6060(4)
H7 H 0.3464 0.5284 0.6262
C8 C 0.2229(3) 0.9847(5) 0.6845(4)
H8 H 0.2470 1.0333 0.7179
C9 C 0.1615(3) 1.0105(5) 0.6499(4)
H9 H 0.1433 1.0766 0.6604
C10 C 0.2637(3) 0.5054(5) 0.5526(4)
H10 H 0.2725 0.4358 0.5373
Na1 Na 0.0000 0.5000 0.5000
Mo1B Mo -0.079010(19) 0.40487(3) 0.29400(2)
Mo1F Mo 0.079010(19) 0.59513(3) 0.70600(2)
Mo2B Mo -0.101470(19) 0.65639(3) 0.35109(2)
Mo2F Mo 0.101470(19) 0.34361(3) 0.64891(2)
P1B P -0.05907(5) 0.58446(9) 0.15372(6)
O1F O 0.05724(17) 0.6369(3) 0.60592(19)
O1B O -0.05724(17) 0.3631(3) 0.39408(19)
O1D O -0.05724(17) 0.6369(3) -0.10592(19)
O3B O -0.1337(2) 0.3108(3) 0.2568(2)
O4B O -0.09499(15) 0.4829(3) 0.17353(18)
O5B O -0.07258(15) 0.6745(3) 0.21462(19)
O6B O -0.03731(17) 0.7711(3) 0.3483(2)
O7B O 0.0581(2) 0.8996(3) 0.2943(3)
O8F O 0.09480(18) 0.3594(3) 0.5439(2)
O8B O -0.09480(18) 0.6406(3) 0.4561(2)
O9B O -0.17098(18) 0.7299(3) 0.3277(2)
O10B O -0.13579(15) 0.5204(3) 0.31765(19)
O11B O -0.07748(17) 0.6174(3) 0.06530(19)
O11D O -0.07748(17) 0.3826(3) 0.56530(19)
O12B O 0.01506(14) 0.5556(3) 0.16113(19)
O12D O 0.01506(14) 0.4444(3) 0.66113(19)
Cu1B Cu -0.10767(3) 0.72803(5) -0.01170(3)
Cu1F Cu 0.10767(3) 0.27197(5) 0.01170(3)
N1B N -0.1512(2) 0.8412(3) -0.0831(3)
N2B N -0.1923(2) 0.6538(3) -0.0440(2)
C1B C -0.2332(2) 0.7079(4) -0.0978(3)
C2B C -0.2116(2) 0.8152(4) -0.1183(3)
C3B C -0.2068(3) 0.5552(4) -0.0220(3)
H1B H -0.1776 0.5189 0.0151
C4B C -0.1265(3) 0.9381(5) -0.0991(4)
H2B H -0.0850 0.9566 -0.0755
O13B O -0.0307(2) 0.8189(3) 0.0142(2)
H3B H -0.0120 0.8011 0.0585
H4B H 0.0037 0.8129 -0.0238
C5B C -0.2483(3) 0.8860(5) -0.1693(3)
H5B H -0.2896 0.8668 -0.1928
C6B C -0.2925(3) 0.6623(5) -0.1296(3)
H6B H -0.3214 0.7001 -0.1660
C7B C -0.3071(3) 0.5601(6) -0.1060(4)
H7B H -0.3464 0.5284 -0.1262
C8B C -0.2229(3) 0.9847(5) -0.1845(4)
H8B H -0.2470 1.0333 -0.2179
C9B C -0.1615(3) 1.0105(5) -0.1499(4)
H9B H -0.1433 1.0766 -0.1604
C10B C -0.2637(3) 0.5054(5) -0.0526(4)
H10B H -0.2725 0.4358 -0.0373
Na1F Na 0.0000 0.5000 0.0000
O14 O 0.0477(5) 0.1863(13) 0.3762(7)
O15 O 0.1268(3) 0.3248(4) 0.4026(3)
O16 O 0.2245(4) 0.2793(6) 0.4263(5)
loop_
_geom_bond_atom_site_label_1
_geom_bond_atom_site_label_2
_geom_bond_site_symmetry_1
_geom_bond_site_symmetry_2
Mo1 O1 1_555 1_555
Mo2 O5 1_555 1_555
Mo3 O5 1_555 1_555
P1 O4 1_555 1_555
O1 Cu1F 1_555 1_555
O2 Mo1 1_555 1_555
O3 Mo1 1_555 1_555
O4 Mo1 1_555 1_555
O5 P1 1_555 1_555
O6 Mo2 1_555 1_555
O7 Mo3 1_555 1_555
O8 Mo2 1_555 1_555
O9 Mo2 1_555 1_555
O10 Mo1 1_555 1_555
O11 P1 1_555 1_555
O12 P1 1_555 1_555
Cu1 O11 1_555 1_555
N1 Cu1 1_555 1_555
N2 Cu1 1_555 1_555
C1 N2 1_555 1_555
C2 N1 1_555 1_555
C3 N2 1_555 1_555
H1 C3 1_555 1_555
C4 N1 1_555 1_555
H2 C4 1_555 1_555
O13 Cu1 1_555 1_555
H3 O13 1_555 1_555
H4 O13 1_555 1_555
C5 C2 1_555 1_555
H5 C5 1_555 1_555
C6 C1 1_555 1_555
H6 C6 1_555 1_555
C7 C6 1_555 1_555
H7 C7 1_555 1_555
C8 C5 1_555 1_555
H8 C8 1_555 1_555
C9 C4 1_555 1_555
H9 C9 1_555 1_555
C10 C3 1_555 1_555
H10 C10 1_555 1_555
Na1 O11 1_555 1_555
Mo1B O2 1_555 1_555
Mo1F O1F 1_555 1_555
Mo2B O12 1_555 1_555
Mo2F O8F 1_555 1_555
P1B O4B 1_555 1_555
O1F Cu1 1_555 1_555
O1B Na1 1_555 1_555
O1D Cu1B 1_555 1_555
O3B Mo1B 1_555 1_555
O4B Mo1B 1_555 1_555
O5B Mo3 1_555 1_555
O6B Mo3 1_555 1_555
O7B Mo3 1_555 1_555
O8F Na1 1_555 1_555
O8B Na1 1_555 1_555
O9B Mo2B 1_555 1_555
O10B Mo1B 1_555 1_555
O11B P1B 1_555 1_555
O11D Na1 1_555 1_555
O12B Mo1 1_555 1_555
O12D Na1 1_555 1_555
Cu1B O11B 1_555 1_555
N1B Cu1B 1_555 1_555
N2B Cu1B 1_555 1_555
C1B N2B 1_555 1_555
C2B N1B 1_555 1_555
C3B N2B 1_555 1_555
H1B C3B 1_555 1_555
C4B N1B 1_555 1_555
H2B C4B 1_555 1_555
O13B Cu1B 1_555 1_555
H3B O13B 1_555 1_555
H4B O13B 1_555 1_555
C5B C2B 1_555 1_555
H5B C5B 1_555 1_555
C6B C1B 1_555 1_555
H6B C6B 1_555 1_555
C7B C6B 1_555 1_555
H7B C7B 1_555 1_555
C8B C5B 1_555 1_555
H8B C8B 1_555 1_555
C9B C4B 1_555 1_555
H9B C9B 1_555 1_555
C10B C3B 1_555 1_555
H10B C10B 1_555 1_555
Na1F O1 1_555 1_555
Mo2 O10 1_555 1_555
Mo2 O12B 1_555 1_555
Mo3 O6 1_555 1_555
O8 Na1F 1_555 1_555
O12 Na1 1_555 1_555
O12 Mo1B 1_555 1_555
C1 C2 1_555 1_555
C7 C10 1_555 1_555
C8 C9 1_555 1_555
Na1 O1F 1_555 1_555
Mo1B O1B 1_555 1_555
Mo1F O12D 1_555 1_555
Mo2B O5B 1_555 1_555
Mo2B O6B 1_555 1_555
Mo2B O8B 1_555 1_555
Mo2B O10B 1_555 1_555
Mo2F O12D 1_555 1_555
P1B O5B 1_555 1_555
P1B O12B 1_555 1_555
O1D Na1F 1_555 1_555
O11B Na1F 1_555 1_555
O12B Na1F 1_555 1_555
C1B C2B 1_555 1_555
C7B C10B 1_555 1_555
C8B C9B 1_555 1_555

#END
