
#######################################################################
#
#                 Cambridge Crystallographic Data Centre
#                                CCDC 
#
#######################################################################
#
# If this CIF has been generated from an entry in the Cambridge 
# Structural Database, then it will include bibliographic, chemical, 
# crystal, experimental, refinement or atomic coordinate data resulting 
# from the CCDC's data processing and validation procedures.
#
#######################################################################

data_GIPKUM
_symmetry_cell_setting           monoclinic
_symmetry_space_group_name_H-M   'P 21/m'
_symmetry_Int_Tables_number      11
_space_group_name_Hall           '-P 2yb'
loop_
_symmetry_equiv_pos_site_id
_symmetry_equiv_pos_as_xyz
1 x,y,z
2 -x,1/2+y,-z
3 -x,-y,-z
4 x,1/2-y,z
_cell_length_a                   7.4872(14)
_cell_length_b                   23.624(5)
_cell_length_c                   7.7646(16)
_cell_angle_alpha                90
_cell_angle_beta                 105.152(4)
_cell_angle_gamma                90
_cell_volume                     1325.64
loop_
_atom_site_label
_atom_site_type_symbol
_atom_site_fract_x
_atom_site_fract_y
_atom_site_fract_z
Cu1 Cu -0.19571(17) -0.17888(6) -0.67006(16)
O1 O -0.1570(15) -0.2500 -0.7670(15)
N1 N -0.2291(13) -0.1162(5) -0.5113(13)
C1 C -0.213(2) -0.0614(6) -0.544(3)
C2 C -0.262(4) -0.0185(8) -0.437(4)
C3 C -0.330(4) -0.0357(10) -0.287(4)
C4 C -0.348(3) -0.0939(7) -0.260(3)
C5 C -0.2973(16) -0.1314(6) -0.3680(19)
C6 C -0.3096(14) -0.1932(6) -0.3505(14)
C7 C -0.3519(14) -0.2208(6) -0.2025(14)
N2 N -0.2737(12) -0.2224(4) -0.4809(11)
N3 N -0.4862(16) -0.1583(6) -0.8537(16)
C8 C -0.6263(15) -0.1372(6) -0.8921(16)
C9 C -0.7931(16) -0.1076(6) -0.9429(19)
C10 C -0.9399(16) -0.1229(5) -0.8698(17)
N4 N -1.0552(14) -0.1372(5) -0.8112(16)
C11 C -0.819(2) -0.0613(10) -1.065(3)
N5 N -0.831(3) -0.0260(14) -1.157(4)
Cu1C Cu -0.19571(17) -0.32112(6) -0.67006(16)
Cu1_2 Cu -1.19571(17) -0.17888(6) -0.67006(16)
Cu1_3 Cu 0.80429(17) -0.17888(6) -0.67006(16)
N1C N -0.2291(13) -0.3838(5) -0.5113(13)
C1C C -0.213(2) -0.4386(6) -0.544(3)
C2C C -0.262(4) -0.4815(8) -0.437(4)
C3C C -0.330(4) -0.4643(10) -0.287(4)
C4C C -0.348(3) -0.4061(7) -0.260(3)
C5C C -0.2973(16) -0.3686(6) -0.3680(19)
C6C C -0.3096(14) -0.3068(6) -0.3505(14)
C7C C -0.3519(14) -0.2792(6) -0.2025(14)
N2C N -0.2737(12) -0.2776(4) -0.4809(11)
N3_2 N 0.5138(16) -0.1583(6) -0.8537(16)
N3C N -0.4862(16) -0.3417(6) -0.8537(16)
C8_2 C 0.3737(15) -0.1372(6) -0.8921(16)
C9_2 C 0.2069(16) -0.1076(6) -0.9429(19)
C10_2 C 0.0601(16) -0.1229(5) -0.8698(17)
N4_2 N -0.0552(14) -0.1372(5) -0.8112(16)
N4C N -0.0552(14) -0.3628(5) -0.8112(16)
C11_2 C 0.181(2) -0.0613(10) -1.065(3)
N5_2 N 0.169(3) -0.0260(14) -1.157(4)
C12 C 0.189(3) -0.2500 -1.292(3)
C13 C 0.215(3) -0.197(2) -1.374(4)
N6 N 0.251(5) -0.153(2) -1.425(5)
C14 C 0.137(3) -0.2500 -1.127(3)
N7 N 0.093(3) -0.2500 -1.000(3)
C13C C 0.215(3) -0.303(2) -1.374(4)
N6C N 0.251(5) -0.347(2) -1.425(5)
loop_
_geom_bond_atom_site_label_1
_geom_bond_atom_site_label_2
_geom_bond_site_symmetry_1
_geom_bond_site_symmetry_2
Cu1 O1 1_555 1_555
O1 Cu1C 1_555 1_555
N1 Cu1 1_555 1_555
C1 N1 1_555 1_555
C2 C1 1_555 1_555
C3 C2 1_555 1_555
C4 C3 1_555 1_555
C5 N1 1_555 1_555
C6 C5 1_555 1_555
C7 C6 1_555 1_555
N2 Cu1 1_555 1_555
N3 Cu1 1_555 1_555
C8 N3 1_555 1_555
C9 C8 1_555 1_555
C10 C9 1_555 1_555
N4 C10 1_555 1_555
C11 C9 1_555 1_555
N5 C11 1_555 1_555
C12 C13 1_555 1_555
C13 N6 1_555 1_555
C14 C12 1_555 1_555
N7 C14 1_555 1_555
Cu1C N1C 1_555 1_555
Cu1_2 N4 1_555 1_555
Cu1_3 N3_2 1_555 1_555
N1C C1C 1_555 1_555
C1C C2C 1_555 1_555
C2C C3C 1_555 1_555
C3C C4C 1_555 1_555
C4C C5C 1_555 1_555
C5C N1C 1_555 1_555
C6C C5C 1_555 1_555
C7C C7 1_555 1_555
N2C N2 1_555 1_555
N3_2 C8_2 1_555 1_555
N3C Cu1C 1_555 1_555
C8_2 C9_2 1_555 1_555
C9_2 C10_2 1_555 1_555
C10_2 N4_2 1_555 1_555
N4_2 Cu1 1_555 1_555
N4C Cu1C 1_555 1_555
C11_2 C9_2 1_555 1_555
N5_2 C11_2 1_555 1_555
C13C C12 1_555 1_555
N6C C13C 1_555 1_555
C4 C5 1_555 1_555
C6 N2 1_555 1_555
Cu1C N2C 1_555 1_555
C6C C7C 1_555 1_555
C6C N2C 1_555 1_555

#END
