
#######################################################################
#
#                 Cambridge Crystallographic Data Centre
#                                CCDC 
#
#######################################################################
#
# If this CIF has been generated from an entry in the Cambridge 
# Structural Database, then it will include bibliographic, chemical, 
# crystal, experimental, refinement or atomic coordinate data resulting 
# from the CCDC's data processing and validation procedures.
#
#######################################################################

data_GIPLIB
_symmetry_cell_setting           monoclinic
_symmetry_space_group_name_H-M   'C 2/c'
_symmetry_Int_Tables_number      15
_space_group_name_Hall           '-C 2yn'
loop_
_symmetry_equiv_pos_site_id
_symmetry_equiv_pos_as_xyz
1 x,y,z
2 1/2+x,1/2+y,z
3 -x,y,1/2-z
4 1/2-x,1/2+y,1/2-z
5 -x,-y,-z
6 1/2-x,1/2-y,-z
7 x,-y,1/2+z
8 1/2+x,1/2-y,1/2+z
_cell_length_a                   29.974(3)
_cell_length_b                   7.4460(8)
_cell_length_c                   23.687(3)
_cell_angle_alpha                90
_cell_angle_beta                 118.658(8)
_cell_angle_gamma                90
_cell_volume                     4639
loop_
_atom_site_label
_atom_site_type_symbol
_atom_site_fract_x
_atom_site_fract_y
_atom_site_fract_z
Cu1 Cu 0.630005(6) 1.09657(2) 0.835436(7)
N1 N 0.58968(4) 1.19819(15) 0.87404(5)
N2 N 0.68074(4) 1.07394(15) 0.93149(5)
C1 C 0.54816(6) 1.2994(2) 0.84327(8)
H1 H 0.5368 1.3276 0.8003
C2 C 0.52132(6) 1.3639(2) 0.87284(9)
H2 H 0.4922 1.4331 0.8502
C3 C 0.53860(6) 1.3234(2) 0.93643(9)
H3 H 0.5214 1.3661 0.9576
C4 C 0.58186(6) 1.2185(2) 0.96921(8)
H4 H 0.5939 1.1902 1.0124
C5 C 0.60679(5) 1.15645(19) 0.93656(6)
C6 C 0.65689(5) 1.06411(18) 0.96650(6)
C7 C 0.73118(5) 1.02999(18) 0.95906(6)
C8 C 0.75870(5) 1.0505(2) 0.92493(7)
H5 H 0.7426 1.0918 0.8827
C9 C 0.80943(5) 1.0089(2) 0.95480(7)
H6 H 0.8276 1.0219 0.9325
C10 C 0.83447(5) 0.9466(2) 1.01881(7)
H7 H 0.8688 0.9174 1.0379
C11 C 0.80894(5) 0.92857(19) 1.05298(7)
H8 H 0.8259 0.8888 1.0954
C12 C 0.75639(5) 0.97071(18) 1.02371(6)
N3 N 0.73058(4) 0.94392(16) 1.05696(5)
C13 C 0.68182(5) 0.98460(19) 1.02904(6)
C14 C 0.65447(6) 0.9268(2) 1.06449(7)
C15 C 0.67736(7) 0.9434(3) 1.13057(8)
H9 H 0.7086 1.0005 1.1534
C16 C 0.65240(8) 0.8723(3) 1.16185(9)
H10 H 0.6667 0.8807 1.2063
C17 C 0.60656(8) 0.7897(3) 1.12637(10)
H11 H 0.5892 0.7402 1.1464
C18 C 0.58636(8) 0.7809(3) 1.06054(10)
H12 H 0.5551 0.7247 1.0368
N4 N 0.60936(5) 0.8489(2) 1.02904(7)
N5 N 0.66241(5) 0.90278(16) 0.81100(6)
N6 N 0.65916(6) 0.32503(18) 0.80741(7)
N7 N 0.72370(10) 0.6185(3) 0.69847(11)
C19 C 0.67993(6) 0.61472(19) 0.76785(7)
C20 C 0.67049(5) 0.77447(19) 0.79084(6)
C21 C 0.66865(6) 0.4537(2) 0.78885(7)
C22 C 0.70389(8) 0.6159(2) 0.72899(9)
N8 N 0.56827(5) 1.0746(2) 0.74790(6)
N9 N 0.42786(7) 0.7571(3) 0.65388(10)
N10 N 0.53827(9) 0.7296(3) 0.58057(11)
C23 C 0.51159(6) 0.8579(2) 0.65983(8)
C24 C 0.54303(6) 0.9742(2) 0.70832(7)
C25 C 0.46538(7) 0.8018(2) 0.65620(9)
C26 C 0.52653(8) 0.7900(3) 0.61573(9)
Cu1_2 Cu 0.630005(6) 0.09657(2) 0.835436(7)
N6_2 N 0.65916(6) 1.32503(18) 0.80741(7)
loop_
_geom_bond_atom_site_label_1
_geom_bond_atom_site_label_2
_geom_bond_site_symmetry_1
_geom_bond_site_symmetry_2
Cu1 N1 1_555 1_555
N1 C1 1_555 1_555
N2 Cu1 1_555 1_555
C1 H1 1_555 1_555
C2 C1 1_555 1_555
H2 C2 1_555 1_555
C3 C2 1_555 1_555
H3 C3 1_555 1_555
C4 C3 1_555 1_555
H4 C4 1_555 1_555
C5 N1 1_555 1_555
C6 N2 1_555 1_555
C7 N2 1_555 1_555
C8 C7 1_555 1_555
H5 C8 1_555 1_555
C9 C8 1_555 1_555
H6 C9 1_555 1_555
C10 C9 1_555 1_555
H7 C10 1_555 1_555
C11 C10 1_555 1_555
H8 C11 1_555 1_555
C12 C7 1_555 1_555
N3 C12 1_555 1_555
C13 C6 1_555 1_555
C14 C13 1_555 1_555
C15 C14 1_555 1_555
H9 C15 1_555 1_555
C16 C15 1_555 1_555
H10 C16 1_555 1_555
C17 C16 1_555 1_555
H11 C17 1_555 1_555
C18 C17 1_555 1_555
H12 C18 1_555 1_555
N4 C14 1_555 1_555
N5 Cu1 1_555 1_555
N6 C21 1_555 1_555
N7 C22 1_555 1_555
C19 C20 1_555 1_555
C20 N5 1_555 1_555
C21 C19 1_555 1_555
C22 C19 1_555 1_555
N8 Cu1 1_555 1_555
N9 C25 1_555 1_555
N10 C26 1_555 1_555
C23 C24 1_555 1_555
C24 N8 1_555 1_555
C25 C23 1_555 1_555
C26 C23 1_555 1_555
Cu1_2 N6 1_555 1_555
N6_2 Cu1 1_555 1_555
C4 C5 1_555 1_555
C5 C6 1_555 1_555
C11 C12 1_555 1_555
N3 C13 1_555 1_555
C18 N4 1_555 1_555

#END
