
#######################################################################
#
#                 Cambridge Crystallographic Data Centre
#                                CCDC 
#
#######################################################################
#
# If this CIF has been generated from an entry in the Cambridge 
# Structural Database, then it will include bibliographic, chemical, 
# crystal, experimental, refinement or atomic coordinate data resulting 
# from the CCDC's data processing and validation procedures.
#
#######################################################################

data_GIPLEX
_symmetry_cell_setting           monoclinic
_symmetry_space_group_name_H-M   'P 21/c'
_symmetry_Int_Tables_number      14
_space_group_name_Hall           '-P 2ybc'
loop_
_symmetry_equiv_pos_site_id
_symmetry_equiv_pos_as_xyz
1 x,y,z
2 -x,1/2+y,1/2-z
3 -x,-y,-z
4 x,1/2-y,1/2+z
_cell_length_a                   9.7205(5)
_cell_length_b                   18.3381(12)
_cell_length_c                   24.4679(16)
_cell_angle_alpha                90
_cell_angle_beta                 96.964(3)
_cell_angle_gamma                90
_cell_volume                     4329.36
loop_
_atom_site_label
_atom_site_type_symbol
_atom_site_fract_x
_atom_site_fract_y
_atom_site_fract_z
Cu1 Cu 1.38018(3) 0.879784(16) 0.127833(12)
Cu2 Cu 0.87456(4) 0.628439(17) 0.053363(13)
N1 N 0.9341(3) 0.66603(13) -0.01644(9)
N2 N 1.0331(2) 0.69601(11) 0.08512(9)
N3 N 1.2196(2) 0.80368(11) 0.11648(8)
N4 N 1.2846(2) 0.91145(11) 0.05414(9)
N5 N 1.7054(2) 0.70633(12) 0.05909(9)
N6 N 1.8090(2) 0.59868(12) 0.12521(9)
N7 N 1.5388(2) 0.81394(12) 0.09221(9)
N8 N 1.4746(2) 0.82881(12) 0.19416(9)
C1 C 0.8928(4) 0.63842(19) -0.06649(13)
H1 H 0.8181 0.6064 -0.0708
C2 C 0.9581(4) 0.65621(19) -0.11179(12)
H2 H 0.9270 0.6370 -0.1462
C3 C 1.0688(4) 0.70244(18) -0.10525(12)
H3 H 1.1161 0.7137 -0.1350
C4 C 1.1105(3) 0.73262(16) -0.05380(11)
H4 H 1.1858 0.7642 -0.0487
C5 C 1.0384(3) 0.71506(13) -0.01048(10)
C6 C 1.0765(3) 0.74073(13) 0.04675(10)
C7 C 1.0840(3) 0.70347(14) 0.13771(11)
H5 H 1.0503 0.6748 0.1645
C8 C 1.1877(3) 0.75431(14) 0.15251(11)
H6 H 1.2351 0.7537 0.1879
C9 C 1.1575(3) 0.80165(13) 0.06413(10)
C10 C 1.1774(3) 0.86912(13) 0.03237(10)
C11 C 1.0885(3) 0.89175(15) -0.01274(12)
H7 H 1.0121 0.8635 -0.0259
C12 C 1.1143(4) 0.95677(17) -0.03797(13)
H8 H 1.0566 0.9723 -0.0689
C13 C 1.2263(4) 0.99854(17) -0.01700(13)
H9 H 1.2462 1.0421 -0.0339
C14 C 1.3081(3) 0.97462(15) 0.02927(12)
H10 H 1.3825 1.0033 0.0439
C15 C 1.5775(3) 0.78153(13) 0.18723(10)
C16 C 1.6642(3) 0.75516(16) 0.23180(12)
H11 H 1.7387 0.7253 0.2265
C17 C 1.6386(4) 0.77375(19) 0.28430(13)
H12 H 1.6956 0.7563 0.3148
C18 C 1.5285(4) 0.81819(19) 0.29122(12)
H13 H 1.5070 0.8293 0.3263
C19 C 1.4513(3) 0.84567(17) 0.24561(12)
H14 H 1.3792 0.8775 0.2504
C20 C 1.5949(3) 0.76479(13) 0.12892(10)
C21 C 1.5665(3) 0.81053(16) 0.04077(11)
H15 H 1.5233 0.8429 0.0149
C22 C 1.6590(3) 0.75949(16) 0.02477(11)
H16 H 1.6885 0.7624 -0.0099
C23 C 1.6673(3) 0.70529(13) 0.11019(10)
C24 C 1.6989(3) 0.63502(13) 0.13941(10)
C25 C 1.8408(4) 0.53360(16) 0.14831(13)
H17 H 1.9197 0.5094 0.1400
C26 C 1.7589(4) 0.50136(17) 0.18431(14)
H18 H 1.7828 0.4562 0.2000
C27 C 1.6424(4) 0.53697(17) 0.19632(13)
H19 H 1.5842 0.5153 0.2191
C28 C 1.6120(3) 0.60523(15) 0.17434(11)
H20 H 1.5347 0.6307 0.1828
N9 N 1.2255(5) 0.95655(17) 0.16991(13)
N10 N 1.0379(4) 1.1465(2) 0.24535(16)
N11 N 1.2117(4) 1.16748(19) 0.08722(13)
C29 C 1.1515(3) 1.08944(17) 0.16694(12)
C30 C 1.1909(4) 1.01589(18) 0.16917(13)
C31 C 1.0869(4) 1.12066(19) 0.21018(15)
C32 C 1.1856(3) 1.13276(17) 0.12326(13)
N12 N 1.5102(4) 0.96740(16) 0.13956(13)
N13 N 1.6173(5) 1.1757(3) 0.07749(17)
N14 N 1.6515(4) 1.1458(2) 0.25844(14)
C33 C 1.5994(4) 1.09580(18) 0.16079(13)
C34 C 1.5519(4) 1.02452(18) 0.15069(13)
C35 C 1.6096(4) 1.1408(2) 0.11527(15)
C36 C 1.6296(4) 1.12278(17) 0.21494(14)
N15 N 0.7797(6) 0.5402(2) 0.02167(16)
N16 N 0.4728(8) 0.4004(4) 0.0852(2)
N17 N 0.6407(4) 0.33958(19) -0.06850(18)
C37 C 0.6336(5) 0.4256(2) 0.01235(16)
C38 C 0.7139(6) 0.4883(2) 0.01646(16)
C39 C 0.5447(7) 0.4114(3) 0.0531(2)
C40 C 0.6372(4) 0.37849(17) -0.03250(17)
O1 O 1.0462(6) 0.5386(4) 0.0556(3)
Cu2_2 Cu 1.87456(4) 0.628439(17) 0.053363(13)
N5_2 N 0.7054(2) 0.70633(12) 0.05909(9)
N6_2 N 0.8090(2) 0.59868(12) 0.12521(9)
N18 N 0.2555(6) 0.4580(3) 0.24056(19)
N19 N -0.1199(4) 0.3316(2) 0.23222(13)
N20 N 0.1199(4) 0.36519(18) 0.39572(13)
C41 C 0.0884(4) 0.3864(2) 0.29202(14)
C42 C 0.1803(5) 0.4267(2) 0.26506(17)
C43 C -0.0261(4) 0.3559(2) 0.25977(14)
C44 C 0.1069(4) 0.37542(19) 0.34959(15)
O2 O 0.2048(6) 0.5294(3) 0.1334(2)
loop_
_geom_bond_atom_site_label_1
_geom_bond_atom_site_label_2
_geom_bond_site_symmetry_1
_geom_bond_site_symmetry_2
Cu1 N3 1_555 1_555
Cu2 N1 1_555 1_555
N1 C1 1_555 1_555
N2 Cu2 1_555 1_555
N3 C8 1_555 1_555
N4 Cu1 1_555 1_555
N5 C22 1_555 1_555
N6 C24 1_555 1_555
N7 Cu1 1_555 1_555
N8 Cu1 1_555 1_555
C1 H1 1_555 1_555
C2 C1 1_555 1_555
H2 C2 1_555 1_555
C3 C2 1_555 1_555
H3 C3 1_555 1_555
C4 C3 1_555 1_555
H4 C4 1_555 1_555
C5 N1 1_555 1_555
C6 N2 1_555 1_555
C7 N2 1_555 1_555
H5 C7 1_555 1_555
C8 C7 1_555 1_555
H6 C8 1_555 1_555
C9 N3 1_555 1_555
C10 N4 1_555 1_555
C11 C10 1_555 1_555
H7 C11 1_555 1_555
C12 C11 1_555 1_555
H8 C12 1_555 1_555
C13 C12 1_555 1_555
H9 C13 1_555 1_555
C14 N4 1_555 1_555
H10 C14 1_555 1_555
C15 N8 1_555 1_555
C16 C15 1_555 1_555
H11 C16 1_555 1_555
C17 C16 1_555 1_555
H12 C17 1_555 1_555
C18 C17 1_555 1_555
H13 C18 1_555 1_555
C19 N8 1_555 1_555
H14 C19 1_555 1_555
C20 N7 1_555 1_555
C21 N7 1_555 1_555
H15 C21 1_555 1_555
C22 C21 1_555 1_555
H16 C22 1_555 1_555
C23 N5 1_555 1_555
C24 C23 1_555 1_555
C25 N6 1_555 1_555
H17 C25 1_555 1_555
C26 C25 1_555 1_555
H18 C26 1_555 1_555
C27 C26 1_555 1_555
H19 C27 1_555 1_555
C28 C24 1_555 1_555
H20 C28 1_555 1_555
N9 Cu1 1_555 1_555
N10 C31 1_555 1_555
N11 C32 1_555 1_555
C29 C30 1_555 1_555
C30 N9 1_555 1_555
C31 C29 1_555 1_555
C32 C29 1_555 1_555
N12 Cu1 1_555 1_555
N13 C35 1_555 1_555
N14 C36 1_555 1_555
C33 C34 1_555 1_555
C34 N12 1_555 1_555
C35 C33 1_555 1_555
C36 C33 1_555 1_555
N15 Cu2 1_555 1_555
N16 C39 1_555 1_555
N17 C40 1_555 1_555
C37 C38 1_555 1_555
C38 N15 1_555 1_555
C39 C37 1_555 1_555
C40 C37 1_555 1_555
N18 C42 1_555 1_555
N19 C43 1_555 1_555
N20 C44 1_555 1_555
C41 C42 1_555 1_555
C43 C41 1_555 1_555
C44 C41 1_555 1_555
O1 Cu2 1_555 1_555
Cu2_2 N5 1_555 1_555
N5_2 Cu2 1_555 1_555
N6_2 Cu2 1_555 1_555
N6 Cu2_2 1_555 1_555
C4 C5 1_555 1_555
C5 C6 1_555 1_555
C6 C9 1_555 1_555
C9 C10 1_555 1_555
C13 C14 1_555 1_555
C15 C20 1_555 1_555
C18 C19 1_555 1_555
C20 C23 1_555 1_555
C27 C28 1_555 1_555

#END
