
#######################################################################
#
#                 Cambridge Crystallographic Data Centre
#                                CCDC 
#
#######################################################################
#
# If this CIF has been generated from an entry in the Cambridge 
# Structural Database, then it will include bibliographic, chemical, 
# crystal, experimental, refinement or atomic coordinate data resulting 
# from the CCDC's data processing and validation procedures.
#
#######################################################################

data_GIPLAT
_symmetry_cell_setting           triclinic
_symmetry_space_group_name_H-M   'P -1'
_symmetry_Int_Tables_number      2
_space_group_name_Hall           '-P 1'
loop_
_symmetry_equiv_pos_site_id
_symmetry_equiv_pos_as_xyz
1 x,y,z
2 -x,-y,-z
_cell_length_a                   9.9667(11)
_cell_length_b                   10.1084(11)
_cell_length_c                   11.2802(12)
_cell_angle_alpha                92.895(4)
_cell_angle_beta                 111.856(4)
_cell_angle_gamma                101.973(4)
_cell_volume                     1021.56
loop_
_atom_site_label
_atom_site_type_symbol
_atom_site_fract_x
_atom_site_fract_y
_atom_site_fract_z
Cu1 Cu 0.39403(3) 0.79948(3) 0.19682(3)
N1 N 0.3133(3) 0.6757(2) 0.2995(2)
N2 N 0.4655(2) 0.9340(2) 0.37805(19)
N3 N 0.1975(2) 0.8245(2) 0.0738(2)
N4 N 0.4662(2) 0.9205(2) 0.0851(2)
C1 C 0.2366(4) 0.5461(3) 0.2535(3)
H1 H 0.2106 0.5143 0.1672
C2 C 0.1950(5) 0.4585(3) 0.3295(4)
H2 H 0.1385 0.3699 0.2946
C3 C 0.2383(6) 0.5041(4) 0.4583(4)
H3 H 0.2147 0.4453 0.5123
C4 C 0.3165(4) 0.6369(3) 0.5065(3)
H4 H 0.3456 0.6694 0.5932
C5 C 0.3511(3) 0.7215(3) 0.4246(2)
C6 C 0.4296(3) 0.8674(2) 0.4656(2)
C7 C 0.4645(3) 0.9343(2) 0.5882(2)
H5 H 0.4383 0.8860 0.6475
C8 C 0.0629(3) 0.7694(3) 0.0738(3)
H6 H 0.0572 0.7184 0.1389
C9 C -0.0667(3) 0.7857(3) -0.0186(3)
H7 H -0.1584 0.7450 -0.0167
C10 C -0.0596(3) 0.8623(3) -0.1136(3)
H8 H -0.1464 0.8748 -0.1766
C11 C 0.0788(3) 0.9215(3) -0.1152(3)
H9 H 0.0863 0.9743 -0.1786
C12 C 0.2038(3) 0.8999(2) -0.0207(2)
C13 C 0.3577(3) 0.9539(3) -0.0122(2)
C14 C 0.3928(3) 1.0348(3) -0.0980(3)
H10 H 0.3169 1.0580 -0.1650
N5 N 0.5380(3) 0.6843(3) 0.2079(3)
N6 N 0.8195(4) 0.4715(3) 0.0721(4)
N7 N 0.4416(3) 0.2427(3) 0.1504(3)
C15 C 0.6135(3) 0.4713(3) 0.1557(3)
C16 C 0.5747(3) 0.5903(3) 0.1832(3)
C17 C 0.7294(4) 0.4733(3) 0.1113(3)
C18 C 0.5186(3) 0.3448(3) 0.1526(3)
Cu1A Cu 0.60597(3) 1.20052(3) 0.80318(3)
Cu1A_2 Cu 0.60597(3) 1.20052(3) -0.19682(3)
N1A N 0.6867(3) 1.3243(2) 0.7005(2)
N2A N 0.5345(2) 1.0660(2) 0.62195(19)
N3A N 0.8025(2) 1.1755(2) -0.0738(2)
N3A_2 N 0.8025(2) 1.1755(2) 0.9262(2)
N4A N 0.5338(2) 1.0795(2) -0.0851(2)
N4A_2 N 0.5338(2) 1.0795(2) 0.9149(2)
C1A C 0.7634(4) 1.4539(3) 0.7465(3)
H1A H 0.7894 1.4857 0.8328
C2A C 0.8050(5) 1.5415(3) 0.6705(4)
H2A H 0.8615 1.6301 0.7054
C3A C 0.7617(6) 1.4959(4) 0.5417(4)
H3A H 0.7853 1.5547 0.4877
C4A C 0.6835(4) 1.3631(3) 0.4935(3)
H4A H 0.6544 1.3306 0.4068
C5A C 0.6489(3) 1.2785(3) 0.5754(2)
C6A C 0.5704(3) 1.1326(2) 0.5344(2)
C7A C 0.5355(3) 1.0657(2) 0.4118(2)
H5A H 0.5617 1.1140 0.3525
C8A C 0.9371(3) 1.2306(3) -0.0738(3)
H6A H 0.9428 1.2816 -0.1389
C9A C 1.0667(3) 1.2143(3) 0.0186(3)
H7A H 1.1584 1.2550 0.0167
C10A C 1.0596(3) 1.1377(3) 0.1136(3)
H8A H 1.1464 1.1252 0.1766
C11A C 0.9212(3) 1.0785(3) 0.1152(3)
H9A H 0.9137 1.0257 0.1786
C12A C 0.7962(3) 1.1001(2) 0.0207(2)
C13A C 0.6423(3) 1.0461(3) 0.0122(2)
C14A C 0.6072(3) 0.9652(3) 0.0980(3)
H10A H 0.6831 0.9420 0.1650
N5A N 0.4620(3) 1.3157(3) 0.7921(3)
N6A N 0.1805(4) 1.5285(3) 0.9279(4)
N7A N 0.5584(3) 1.7573(3) 0.8496(3)
C15A C 0.3865(3) 1.5287(3) 0.8443(3)
C16A C 0.4253(3) 1.4097(3) 0.8168(3)
C17A C 0.2706(4) 1.5267(3) 0.8887(3)
C18A C 0.4814(3) 1.6552(3) 0.8474(3)
N8 N 0.8955(4) 0.7982(4) 0.2634(3)
N9 N 0.7640(4) 0.8957(5) 0.5806(3)
N10 N 1.1925(4) 0.7991(4) 0.6767(3)
C19 C 0.9501(3) 0.8222(3) 0.5042(3)
C20 C 0.9230(4) 0.8081(3) 0.3724(4)
C21 C 0.8463(4) 0.8624(4) 0.5447(3)
C22 C 1.0846(4) 0.8098(4) 0.5975(3)
loop_
_geom_bond_atom_site_label_1
_geom_bond_atom_site_label_2
_geom_bond_site_symmetry_1
_geom_bond_site_symmetry_2
Cu1 N1 1_555 1_555
N1 C1 1_555 1_555
N2 Cu1 1_555 1_555
N3 Cu1 1_555 1_555
N4 Cu1 1_555 1_555
C1 H1 1_555 1_555
C2 C1 1_555 1_555
H2 C2 1_555 1_555
C3 C2 1_555 1_555
H3 C3 1_555 1_555
C4 C3 1_555 1_555
H4 C4 1_555 1_555
C5 N1 1_555 1_555
C6 N2 1_555 1_555
C7 C6 1_555 1_555
H5 C7 1_555 1_555
C8 N3 1_555 1_555
H6 C8 1_555 1_555
C9 C8 1_555 1_555
H7 C9 1_555 1_555
C10 C9 1_555 1_555
H8 C10 1_555 1_555
C11 C10 1_555 1_555
H9 C11 1_555 1_555
C12 N3 1_555 1_555
C13 N4 1_555 1_555
C14 C13 1_555 1_555
H10 C14 1_555 1_555
N5 Cu1 1_555 1_555
N6 C17 1_555 1_555
N7 C18 1_555 1_555
C15 C16 1_555 1_555
C16 N5 1_555 1_555
C17 C15 1_555 1_555
C18 C15 1_555 1_555
N8 C20 1_555 1_555
N9 C21 1_555 1_555
N10 C22 1_555 1_555
C19 C20 1_555 1_555
C21 C19 1_555 1_555
C22 C19 1_555 1_555
Cu1A N1A 1_555 1_555
Cu1A_2 N3A 1_555 1_555
N1A C1A 1_555 1_555
N2A C7 1_555 1_555
N3A C8A 1_555 1_555
N3A_2 Cu1A 1_555 1_555
N4A C14 1_555 1_555
N4A_2 Cu1A 1_555 1_555
C1A H1A 1_555 1_555
C2A C1A 1_555 1_555
H2A C2A 1_555 1_555
C3A C2A 1_555 1_555
H3A C3A 1_555 1_555
C4A C3A 1_555 1_555
H4A C4A 1_555 1_555
C5A N1A 1_555 1_555
C6A N2A 1_555 1_555
C7A N2 1_555 1_555
H5A C7A 1_555 1_555
C8A H6A 1_555 1_555
C9A C8A 1_555 1_555
H7A C9A 1_555 1_555
C10A C9A 1_555 1_555
H8A C10A 1_555 1_555
C11A C10A 1_555 1_555
H9A C11A 1_555 1_555
C12A N3A 1_555 1_555
C13A N4A 1_555 1_555
C14A N4 1_555 1_555
H10A C14A 1_555 1_555
N5A Cu1A 1_555 1_555
N6A C17A 1_555 1_555
N7A C18A 1_555 1_555
C15A C16A 1_555 1_555
C16A N5A 1_555 1_555
C17A C15A 1_555 1_555
C18A C15A 1_555 1_555
C4 C5 1_555 1_555
C5 C6 1_555 1_555
C11 C12 1_555 1_555
C12 C13 1_555 1_555
Cu1A N2A 1_555 1_555
Cu1A_2 N4A 1_555 1_555
C4A C5A 1_555 1_555
C5A C6A 1_555 1_555
C6A C7A 1_555 1_555
C11A C12A 1_555 1_555
C12A C13A 1_555 1_555
C13A C14A 1_555 1_555

#END
