
#######################################################################
#
#                 Cambridge Crystallographic Data Centre
#                                CCDC 
#
#######################################################################
#
# If this CIF has been generated from an entry in the Cambridge 
# Structural Database, then it will include bibliographic, chemical, 
# crystal, experimental, refinement or atomic coordinate data resulting 
# from the CCDC's data processing and validation procedures.
#
#######################################################################

data_GIPNUP
_symmetry_cell_setting           triclinic
_symmetry_space_group_name_H-M   'P -1'
_symmetry_Int_Tables_number      2
_space_group_name_Hall           '-P 1'
loop_
_symmetry_equiv_pos_site_id
_symmetry_equiv_pos_as_xyz
1 x,y,z
2 -x,-y,-z
_cell_length_a                   14.269(2)
_cell_length_b                   15.865(2)
_cell_length_c                   20.144(2)
_cell_angle_alpha                94.918(6)
_cell_angle_beta                 101.202(6)
_cell_angle_gamma                107.587(5)
_cell_volume                     4213.02
loop_
_atom_site_label
_atom_site_type_symbol
_atom_site_fract_x
_atom_site_fract_y
_atom_site_fract_z
Cu1 Cu 0.09800(3) 0.21199(3) 0.802535(19)
Cu2 Cu -0.05209(3) 0.32162(3) 0.748542(19)
P1 P 0.07515(6) 0.24729(5) 0.90848(4)
P2 P -0.06942(6) 0.34672(5) 0.85526(4)
P3 P 0.20097(6) 0.28525(5) 0.73863(4)
P4 P 0.06267(6) 0.39185(5) 0.69336(4)
N1 N -0.0356(2) 0.1320(2) 0.74275(14)
N2 N 0.1725(2) 0.1194(2) 0.82916(15)
N3 N -0.8171(2) -0.2665(2) 0.31910(16)
C1 C 0.0364(2) 0.3468(2) 0.92385(16)
H1 H 0.0166 0.3481 0.9673
H2 H 0.0934 0.4003 0.9269
C2 C -0.0175(2) 0.1555(2) 0.93308(17)
C3 C -0.0646(3) 0.1678(2) 0.98622(18)
H3 H -0.0483 0.2246 1.0109
C4 C -0.1355(3) 0.0959(3) 1.0023(2)
H4 H -0.1665 0.1047 1.0377
C5 C -0.1603(3) 0.0110(3) 0.9661(2)
H5 H -0.2084 -0.0370 0.9767
C6 C -0.1135(3) -0.0022(2) 0.9145(2)
H6 H -0.1295 -0.0594 0.8906
C7 C -0.0423(3) 0.0696(2) 0.89769(18)
H7 H -0.0112 0.0599 0.8626
C8 C 0.1886(2) 0.2732(2) 0.97700(17)
C9 C 0.1937(3) 0.2280(2) 1.03306(18)
H8 H 0.1379 0.1811 1.0363
C10 C 0.2818(3) 0.2528(3) 1.08412(19)
H9 H 0.2844 0.2234 1.1221
C11 C 0.3664(3) 0.3218(3) 1.07866(19)
H10 H 0.4257 0.3383 1.1127
C12 C 0.3617(3) 0.3655(3) 1.0222(2)
H11 H 0.4183 0.4111 1.0182
C13 C 0.2740(3) 0.3420(2) 0.97191(18)
H12 H 0.2715 0.3722 0.9343
C14 C -0.1810(2) 0.2697(2) 0.87380(17)
C15 C -0.2114(3) 0.2822(2) 0.93474(19)
H13 H -0.1753 0.3325 0.9674
C16 C -0.2963(3) 0.2189(3) 0.9464(2)
H14 H -0.3169 0.2273 0.9868
C17 C -0.3502(3) 0.1436(3) 0.8982(2)
H15 H -0.4065 0.1016 0.9065
C18 C -0.3206(3) 0.1307(3) 0.8378(2)
H16 H -0.3570 0.0802 0.8054
C19 C -0.2363(3) 0.1935(2) 0.8258(2)
H17 H -0.2163 0.1846 0.7852
C20 C -0.0781(3) 0.4584(2) 0.87134(17)
C21 C -0.1689(3) 0.4735(3) 0.8734(2)
H18 H -0.2263 0.4256 0.8727
C22 C -0.1742(3) 0.5597(3) 0.8764(2)
H19 H -0.2352 0.5692 0.8770
C23 C -0.0887(3) 0.6316(2) 0.87848(19)
H20 H -0.0923 0.6893 0.8808
C24 C 0.0020(3) 0.6175(2) 0.87716(19)
H21 H 0.0593 0.6658 0.8786
C25 C 0.0076(3) 0.5317(2) 0.87375(17)
H22 H 0.0688 0.5226 0.8730
C26 C 0.1944(3) 0.3963(2) 0.72360(17)
H23 H 0.2249 0.4384 0.7658
H24 H 0.2322 0.4173 0.6897
C27 C 0.1810(3) 0.2238(2) 0.65322(17)
C28 C 0.1289(3) 0.1328(2) 0.64061(19)
H25 H 0.1073 0.1041 0.6759
C29 C 0.1085(4) 0.0836(3) 0.5760(2)
H26 H 0.0745 0.0223 0.5681
C30 C 0.1394(4) 0.1270(3) 0.5234(2)
H27 H 0.1240 0.0949 0.4796
C31 C 0.1924(4) 0.2169(3) 0.5350(2)
H28 H 0.2137 0.2451 0.4994
C32 C 0.2147(3) 0.2662(3) 0.6002(2)
H29 H 0.2516 0.3269 0.6083
C33 C 0.3336(3) 0.3032(2) 0.77712(18)
C34 C 0.3913(3) 0.3779(3) 0.8261(2)
H30 H 0.3663 0.4247 0.8338
C35 C 0.4858(3) 0.3824(3) 0.8632(2)
H31 H 0.5232 0.4319 0.8964
C36 C 0.5247(3) 0.3145(3) 0.8515(3)
H32 H 0.5883 0.3181 0.8764
C37 C 0.4685(3) 0.2407(3) 0.8026(2)
H33 H 0.4946 0.1948 0.7943
C38 C 0.3733(3) 0.2350(3) 0.7657(2)
H34 H 0.3358 0.1850 0.7330
C39 C 0.0285(3) 0.3536(2) 0.60132(17)
C40 C -0.0292(3) 0.2640(2) 0.57698(18)
H35 H -0.0488 0.2256 0.6078
C41 C -0.0575(3) 0.2320(3) 0.50797(19)
H36 H -0.0955 0.1721 0.4925
C42 C -0.0295(4) 0.2889(3) 0.46150(19)
H37 H -0.0489 0.2674 0.4148
C43 C 0.0275(4) 0.3778(3) 0.4849(2)
H38 H 0.0467 0.4159 0.4538
C44 C 0.0563(3) 0.4104(3) 0.55472(18)
H39 H 0.0942 0.4703 0.5701
C45 C 0.0676(3) 0.5078(2) 0.70077(17)
C46 C -0.0251(4) 0.5233(3) 0.6910(2)
H40 H -0.0852 0.4754 0.6797
C47 C -0.0271(5) 0.6110(3) 0.6984(2)
H41 H -0.0886 0.6218 0.6921
C48 C 0.0615(5) 0.6810(3) 0.7149(2)
H42 H 0.0597 0.7393 0.7197
C49 C 0.1529(5) 0.6668(3) 0.7244(3)
H43 H 0.2125 0.7152 0.7354
C50 C 0.1567(4) 0.5798(3) 0.7177(2)
H44 H 0.2187 0.5700 0.7246
C51 C -0.1092(3) 0.0873(2) 0.70633(17)
C52 C -0.2000(3) 0.0339(2) 0.65786(18)
C53 C -0.2845(3) -0.0141(3) 0.6798(2)
H45 H -0.2824 -0.0135 0.7263
C54 C -0.2019(3) 0.0304(2) 0.58866(18)
H46 H -0.1441 0.0605 0.5745
C55 C -0.2892(3) -0.0176(2) 0.54090(18)
H47 H -0.2901 -0.0193 0.4945
C56 C -0.3721(3) -0.0630(3) 0.6310(2)
H48 H -0.4288 -0.0957 0.6452
C57 C -0.3761(3) -0.0636(2) 0.56099(18)
C58 C 0.2353(2) 0.0977(2) 0.85990(16)
C59 C 0.3121(3) 0.0695(2) 0.90010(17)
C60 C 0.3139(3) -0.0169(2) 0.88517(18)
H49 H 0.2662 -0.0564 0.8487
C61 C 0.3841(3) 0.1293(2) 0.95433(19)
H50 H 0.3834 0.1874 0.9643
C62 C 0.3871(3) -0.0441(2) 0.92478(18)
H51 H 0.3877 -0.1023 0.9149
C63 C 0.4564(3) 0.1008(2) 0.99306(19)
H52 H 0.5041 0.1404 1.0295
C64 C 0.4598(2) 0.0146(2) 0.97920(16)
C65 C -0.7425(3) -0.2367(3) 0.35980(19)
C66 C -0.6493(3) -0.1960(3) 0.41069(19)
C67 C -0.5567(3) -0.1830(3) 0.3929(2)
H53 H -0.5548 -0.2019 0.3484
C68 C -0.6528(3) -0.1705(3) 0.4770(2)
H54 H -0.7146 -0.1814 0.4890
C69 C -0.4683(3) -0.1421(3) 0.4418(2)
H55 H -0.4065 -0.1345 0.4303
C70 C -0.5636(3) -0.1286(3) 0.52575(19)
H56 H -0.5661 -0.1115 0.5705
C71 C -0.4707(3) -0.1117(2) 0.50896(18)
Cu1A Cu 0.90200(3) -0.21199(3) 1.197465(19)
Cu1A_2 Cu -1.09800(3) -0.21199(3) 0.197465(19)
Cu2A Cu -0.94791(3) -0.32162(3) 0.251458(19)
Cu2A_2 Cu 1.05209(3) -0.32162(3) 1.251458(19)
P1A P 0.92485(6) -0.24729(5) 1.09152(4)
P2A P 1.06942(6) -0.34672(5) 1.14474(4)
P2A_2 P -0.93058(6) -0.34672(5) 0.14474(4)
P3A P 0.79903(6) -0.28525(5) 1.26137(4)
P4A P 0.93733(6) -0.39185(5) 1.30664(4)
P4A_2 P -1.06267(6) -0.39185(5) 0.30664(4)
N1A N -0.9644(2) -0.1320(2) 0.25725(14)
N1A_2 N 1.0356(2) -0.1320(2) 1.25725(14)
N2A N 0.8275(2) -0.1194(2) 1.17084(15)
N3A N -0.1829(2) 0.2665(2) 0.68090(16)
C1A C 0.9636(2) -0.3468(2) 1.07615(16)
H1A H 0.9834 -0.3481 1.0327
H2A H 0.9066 -0.4003 1.0731
C2A C 1.0175(2) -0.1555(2) 1.06692(17)
C3A C 1.0646(3) -0.1678(2) 1.01378(18)
H3A H 1.0483 -0.2246 0.9891
C4A C 1.1355(3) -0.0959(3) 0.9977(2)
H4A H 1.1665 -0.1047 0.9623
C5A C 1.1603(3) -0.0110(3) 1.0339(2)
H5A H 1.2084 0.0370 1.0233
C6A C 1.1135(3) 0.0022(2) 1.0855(2)
H6A H 1.1295 0.0594 1.1094
C7A C 1.0423(3) -0.0696(2) 1.10231(18)
H7A H 1.0112 -0.0599 1.1374
C8A C 0.8114(2) -0.2732(2) 1.02300(17)
C9A C 0.8063(3) -0.2280(2) 0.96694(18)
H8A H 0.8621 -0.1811 0.9637
C10A C 0.7182(3) -0.2528(3) 0.91588(19)
H9A H 0.7156 -0.2234 0.8779
C11A C 0.6336(3) -0.3218(3) 0.92134(19)
H10A H 0.5743 -0.3383 0.8873
C12A C 0.6383(3) -0.3655(3) 0.9778(2)
H11A H 0.5817 -0.4111 0.9818
C13A C 0.7260(3) -0.3420(2) 1.02809(18)
H12A H 0.7285 -0.3722 1.0657
C14A C 1.1810(2) -0.2697(2) 1.12620(17)
C15A C 1.2114(3) -0.2822(2) 1.06526(19)
H13A H 1.1753 -0.3325 1.0326
C16A C 1.2963(3) -0.2189(3) 1.0536(2)
H14A H 1.3169 -0.2273 1.0132
C17A C 1.3502(3) -0.1436(3) 1.1018(2)
H15A H 1.4065 -0.1016 1.0935
C18A C 1.3206(3) -0.1307(3) 1.1622(2)
H16A H 1.3570 -0.0802 1.1946
C19A C 1.2363(3) -0.1935(2) 1.1742(2)
H17A H 1.2163 -0.1846 1.2148
C20A C 1.0781(3) -0.4584(2) 1.12866(17)
C21A C 1.1689(3) -0.4735(3) 1.1266(2)
H18A H 1.2263 -0.4256 1.1273
C22A C 1.1742(3) -0.5597(3) 1.1236(2)
H19A H 1.2352 -0.5692 1.1230
C23A C 1.0887(3) -0.6316(2) 1.12152(19)
H20A H 1.0923 -0.6893 1.1192
C24A C 0.9980(3) -0.6175(2) 1.12284(19)
H21A H 0.9407 -0.6658 1.1214
C25A C 0.9924(3) -0.5317(2) 1.12625(17)
H22A H 0.9312 -0.5226 1.1270
C26A C 0.8056(3) -0.3963(2) 1.27640(17)
H23A H 0.7751 -0.4384 1.2342
H24A H 0.7678 -0.4173 1.3103
C27A C 0.8190(3) -0.2238(2) 1.34678(17)
C28A C 0.8711(3) -0.1328(2) 1.35939(19)
H25A H 0.8927 -0.1041 1.3241
C29A C 0.8915(4) -0.0836(3) 1.4240(2)
H26A H 0.9255 -0.0223 1.4319
C30A C 0.8606(4) -0.1270(3) 1.4766(2)
H27A H 0.8760 -0.0949 1.5204
C31A C 0.8076(4) -0.2169(3) 1.4650(2)
H28A H 0.7863 -0.2451 1.5006
C32A C 0.7853(3) -0.2662(3) 1.3998(2)
H29A H 0.7484 -0.3269 1.3917
C33A C 0.6664(3) -0.3032(2) 1.22288(18)
C34A C 0.6087(3) -0.3779(3) 1.1739(2)
H30A H 0.6337 -0.4247 1.1662
C35A C 0.5142(3) -0.3824(3) 1.1368(2)
H31A H 0.4768 -0.4319 1.1036
C36A C 0.4753(3) -0.3145(3) 1.1485(3)
H32A H 0.4117 -0.3181 1.1236
C37A C 0.5315(3) -0.2407(3) 1.1974(2)
H33A H 0.5054 -0.1948 1.2057
C38A C 0.6267(3) -0.2350(3) 1.2343(2)
H34A H 0.6642 -0.1850 1.2670
C39A C 0.9715(3) -0.3536(2) 1.39868(17)
C40A C 1.0292(3) -0.2640(2) 1.42302(18)
H35A H 1.0488 -0.2256 1.3922
C41A C 1.0575(3) -0.2320(3) 1.49203(19)
H36A H 1.0955 -0.1721 1.5075
C42A C 1.0295(4) -0.2889(3) 1.53850(19)
H37A H 1.0489 -0.2674 1.5852
C43A C 0.9725(4) -0.3778(3) 1.5151(2)
H38A H 0.9533 -0.4159 1.5462
C44A C 0.9437(3) -0.4104(3) 1.44528(18)
H39A H 0.9058 -0.4703 1.4299
C45A C 0.9324(3) -0.5078(2) 1.29923(17)
C46A C 1.0251(4) -0.5233(3) 1.3090(2)
H40A H 1.0852 -0.4754 1.3203
C47A C 1.0271(5) -0.6110(3) 1.3016(2)
H41A H 1.0886 -0.6218 1.3079
C48A C 0.9385(5) -0.6810(3) 1.2851(2)
H42A H 0.9403 -0.7393 1.2803
C49A C 0.8471(5) -0.6668(3) 1.2756(3)
H43A H 0.7875 -0.7152 1.2646
C50A C 0.8433(4) -0.5798(3) 1.2823(2)
H44A H 0.7813 -0.5700 1.2754
C51A C -0.8908(3) -0.0873(2) 0.29367(17)
C52A C -0.8000(3) -0.0339(2) 0.34214(18)
C53A C -0.7155(3) 0.0141(3) 0.3202(2)
H45A H -0.7176 0.0135 0.2737
C54A C -0.7981(3) -0.0304(2) 0.41134(18)
H46A H -0.8559 -0.0605 0.4255
C55A C -0.7108(3) 0.0176(2) 0.45910(18)
H47A H -0.7099 0.0193 0.5055
C56A C -0.6279(3) 0.0630(3) 0.3690(2)
H48A H -0.5712 0.0957 0.3548
C57A C -0.6239(3) 0.0636(2) 0.43901(18)
C58A C 0.7647(2) -0.0977(2) 1.14010(16)
C59A C 0.6879(3) -0.0695(2) 1.09990(17)
C60A C 0.6861(3) 0.0169(2) 1.11483(18)
H49A H 0.7338 0.0564 1.1513
C61A C 0.6159(3) -0.1293(2) 1.04567(19)
H50A H 0.6166 -0.1874 1.0357
C62A C 0.6129(3) 0.0441(2) 1.07522(18)
H51A H 0.6123 0.1023 1.0851
C63A C 0.5436(3) -0.1008(2) 1.00694(19)
H52A H 0.4959 -0.1404 0.9705
C64A C 0.5402(2) -0.0146(2) 1.02080(16)
C65A C -0.2575(3) 0.2367(3) 0.64020(19)
C66A C -0.3507(3) 0.1960(3) 0.58931(19)
C67A C -0.4433(3) 0.1830(3) 0.6071(2)
H53A H -0.4452 0.2019 0.6516
C68A C -0.3472(3) 0.1705(3) 0.5230(2)
H54A H -0.2854 0.1814 0.5110
C69A C -0.5317(3) 0.1421(3) 0.5582(2)
H55A H -0.5935 0.1345 0.5697
C70A C -0.4364(3) 0.1286(3) 0.47425(19)
H56A H -0.4339 0.1115 0.4295
C71A C -0.5293(3) 0.1117(2) 0.49104(18)
P5 P 0.32647(7) 0.59860(6) 0.91429(5)
F1 F 0.25232(19) 0.65465(17) 0.89338(15)
F2 F 0.2904(2) 0.58669(18) 0.98399(13)
F3 F 0.41561(19) 0.68883(16) 0.95030(15)
F4 F 0.39926(17) 0.54128(16) 0.93521(13)
F5 F 0.3627(2) 0.60758(18) 0.84381(13)
F6 F 0.23703(16) 0.50728(14) 0.87724(11)
P6 P 0.70746(11) 0.06976(9) 0.32368(6)
F7 F 0.6945(5) 0.0218(4) 0.3863(3)
F8 F 0.7047(4) 0.1601(3) 0.3657(2)
F9 F 0.5935(3) 0.0416(4) 0.2969(4)
F10 F 0.7299(4) 0.1237(2) 0.26387(19)
F11 F 0.8270(3) 0.1023(4) 0.3535(3)
F12 F 0.7180(3) -0.0148(2) 0.28253(17)
C72 C 0.7102 0.3668 0.4377
Cl1 Cl 0.6637 0.4528 0.4071
Cl4 Cl 0.7835 0.3997 0.5215
C73 C 0.5788 0.4380 0.7188
Cl6 Cl 0.6658 0.4277 0.6816
Cl7 Cl 0.5396 0.5238 0.7235
C74 C 0.3525 0.4009 0.4378
Cl9 Cl 0.4518(3) 0.3549(4) 0.5016(4)
Cl10 Cl 0.3011 0.3183 0.3793
C77 C 0.5261(5) 0.2001(4) 0.2088(3)
H57 H 0.5811 0.1788 0.2276
H58 H 0.5468 0.2372 0.1749
Cl11 Cl 0.5025(3) 0.26357(16) 0.27351(12)
Cl12 Cl 0.41974(11) 0.10886(9) 0.16932(7)
C78 C 0.9775(5) 0.0838(4) 0.2595(3)
H59 H 0.9168 0.0870 0.2728
H60 H 0.9722 0.0212 0.2518
Cl13 Cl 1.0790(2) 0.13780(16) 0.32604(12)
Cl14 Cl 0.98141(14) 0.12535(10) 0.18253(8)
Cl2? Cl 0.6625(7) 0.4546(6) 0.4056(5)
Cl3? Cl 0.6623(16) 0.4420(16) 0.4112(13)
Cl5? Cl 0.7773(5) 0.4015(3) 0.5227(2)
Cl8? Cl 0.4831 0.4126 0.6394
C75? C 0.3946(12) 0.4026(13) 0.4430(10)
C76? C 0.3622 0.2812 0.4043
loop_
_geom_bond_atom_site_label_1
_geom_bond_atom_site_label_2
_geom_bond_site_symmetry_1
_geom_bond_site_symmetry_2
Cu1 Cu2 1_555 1_555
Cu2 P2 1_555 1_555
P1 Cu1 1_555 1_555
P2 C1 1_555 1_555
P3 Cu1 1_555 1_555
P4 Cu2 1_555 1_555
N1 Cu1 1_555 1_555
N2 Cu1 1_555 1_555
N3 C65 1_555 1_555
C1 P1 1_555 1_555
H1 C1 1_555 1_555
H2 C1 1_555 1_555
C2 P1 1_555 1_555
C3 C2 1_555 1_555
H3 C3 1_555 1_555
C4 C3 1_555 1_555
H4 C4 1_555 1_555
C5 C4 1_555 1_555
H5 C5 1_555 1_555
C6 C5 1_555 1_555
H6 C6 1_555 1_555
C7 C2 1_555 1_555
H7 C7 1_555 1_555
C8 P1 1_555 1_555
C9 C8 1_555 1_555
H8 C9 1_555 1_555
C10 C9 1_555 1_555
H9 C10 1_555 1_555
C11 C10 1_555 1_555
H10 C11 1_555 1_555
C12 C11 1_555 1_555
H11 C12 1_555 1_555
C13 C8 1_555 1_555
H12 C13 1_555 1_555
C14 P2 1_555 1_555
C15 C14 1_555 1_555
H13 C15 1_555 1_555
C16 C15 1_555 1_555
H14 C16 1_555 1_555
C17 C16 1_555 1_555
H15 C17 1_555 1_555
C18 C17 1_555 1_555
H16 C18 1_555 1_555
C19 C14 1_555 1_555
H17 C19 1_555 1_555
C20 P2 1_555 1_555
C21 C20 1_555 1_555
H18 C21 1_555 1_555
C22 C21 1_555 1_555
H19 C22 1_555 1_555
C23 C22 1_555 1_555
H20 C23 1_555 1_555
C24 C23 1_555 1_555
H21 C24 1_555 1_555
C25 C20 1_555 1_555
H22 C25 1_555 1_555
C26 P3 1_555 1_555
H23 C26 1_555 1_555
H24 C26 1_555 1_555
C27 P3 1_555 1_555
C28 C27 1_555 1_555
H25 C28 1_555 1_555
C29 C28 1_555 1_555
H26 C29 1_555 1_555
C30 C29 1_555 1_555
H27 C30 1_555 1_555
C31 C30 1_555 1_555
H28 C31 1_555 1_555
C32 C27 1_555 1_555
H29 C32 1_555 1_555
C33 P3 1_555 1_555
C34 C33 1_555 1_555
H30 C34 1_555 1_555
C35 C34 1_555 1_555
H31 C35 1_555 1_555
C36 C35 1_555 1_555
H32 C36 1_555 1_555
C37 C36 1_555 1_555
H33 C37 1_555 1_555
C38 C33 1_555 1_555
H34 C38 1_555 1_555
C39 P4 1_555 1_555
C40 C39 1_555 1_555
H35 C40 1_555 1_555
C41 C40 1_555 1_555
H36 C41 1_555 1_555
C42 C41 1_555 1_555
H37 C42 1_555 1_555
C43 C42 1_555 1_555
H38 C43 1_555 1_555
C44 C39 1_555 1_555
H39 C44 1_555 1_555
C45 P4 1_555 1_555
C46 C45 1_555 1_555
H40 C46 1_555 1_555
C47 C46 1_555 1_555
H41 C47 1_555 1_555
C48 C47 1_555 1_555
H42 C48 1_555 1_555
C49 C48 1_555 1_555
H43 C49 1_555 1_555
C50 C45 1_555 1_555
H44 C50 1_555 1_555
C51 N1 1_555 1_555
C52 C51 1_555 1_555
C53 C52 1_555 1_555
H45 C53 1_555 1_555
C54 C52 1_555 1_555
H46 C54 1_555 1_555
C55 C54 1_555 1_555
H47 C55 1_555 1_555
C56 C53 1_555 1_555
H48 C56 1_555 1_555
C57 C55 1_555 1_555
C58 N2 1_555 1_555
C59 C58 1_555 1_555
C60 C59 1_555 1_555
H49 C60 1_555 1_555
C61 C59 1_555 1_555
H50 C61 1_555 1_555
C62 C60 1_555 1_555
H51 C62 1_555 1_555
C63 C61 1_555 1_555
H52 C63 1_555 1_555
C64 C62 1_555 1_555
C65 C66 1_555 1_555
C66 C67 1_555 1_555
C67 H53 1_555 1_555
C68 C66 1_555 1_555
H54 C68 1_555 1_555
C69 C67 1_555 1_555
H55 C69 1_555 1_555
C70 C68 1_555 1_555
H56 C70 1_555 1_555
C71 C57 1_555 1_555
P5 F1 1_555 1_555
F2 P5 1_555 1_555
F3 P5 1_555 1_555
F4 P5 1_555 1_555
F5 P5 1_555 1_555
F6 P5 1_555 1_555
P6 F7 1_555 1_555
F8 P6 1_555 1_555
F9 P6 1_555 1_555
F10 P6 1_555 1_555
F11 P6 1_555 1_555
F12 P6 1_555 1_555
C72 Cl1 1_555 1_555
Cl4 C72 1_555 1_555
C73 Cl6 1_555 1_555
Cl7 C73 1_555 1_555
C74 Cl9 1_555 1_555
Cl10 C74 1_555 1_555
C77 H57 1_555 1_555
H58 C77 1_555 1_555
Cl11 C77 1_555 1_555
Cl12 C77 1_555 1_555
C78 H59 1_555 1_555
H60 C78 1_555 1_555
Cl13 C78 1_555 1_555
Cl14 C78 1_555 1_555
Cu1A Cu2A_2 1_555 1_555
Cu1A_2 Cu2A 1_555 1_555
Cu2A N3 1_555 1_555
Cu2A_2 P2A 1_555 1_555
P1A Cu1A 1_555 1_555
P2A C1A 1_555 1_555
P2A_2 Cu2A 1_555 1_555
P3A Cu1A 1_555 1_555
P4A Cu2A_2 1_555 1_555
P4A_2 Cu2A 1_555 1_555
N1A Cu1A_2 1_555 1_555
N1A_2 Cu1A 1_555 1_555
N2A Cu1A 1_555 1_555
N3A Cu2 1_555 1_555
C1A P1A 1_555 1_555
H1A C1A 1_555 1_555
H2A C1A 1_555 1_555
C2A P1A 1_555 1_555
C3A C2A 1_555 1_555
H3A C3A 1_555 1_555
C4A C3A 1_555 1_555
H4A C4A 1_555 1_555
C5A C4A 1_555 1_555
H5A C5A 1_555 1_555
C6A C5A 1_555 1_555
H6A C6A 1_555 1_555
C7A C2A 1_555 1_555
H7A C7A 1_555 1_555
C8A P1A 1_555 1_555
C9A C8A 1_555 1_555
H8A C9A 1_555 1_555
C10A C9A 1_555 1_555
H9A C10A 1_555 1_555
C11A C10A 1_555 1_555
H10A C11A 1_555 1_555
C12A C11A 1_555 1_555
H11A C12A 1_555 1_555
C13A C8A 1_555 1_555
H12A C13A 1_555 1_555
C14A P2A 1_555 1_555
C15A C14A 1_555 1_555
H13A C15A 1_555 1_555
C16A C15A 1_555 1_555
H14A C16A 1_555 1_555
C17A C16A 1_555 1_555
H15A C17A 1_555 1_555
C18A C17A 1_555 1_555
H16A C18A 1_555 1_555
C19A C14A 1_555 1_555
H17A C19A 1_555 1_555
C20A P2A 1_555 1_555
C21A C20A 1_555 1_555
H18A C21A 1_555 1_555
C22A C21A 1_555 1_555
H19A C22A 1_555 1_555
C23A C22A 1_555 1_555
H20A C23A 1_555 1_555
C24A C23A 1_555 1_555
H21A C24A 1_555 1_555
C25A C20A 1_555 1_555
H22A C25A 1_555 1_555
C26A P3A 1_555 1_555
H23A C26A 1_555 1_555
H24A C26A 1_555 1_555
C27A P3A 1_555 1_555
C28A C27A 1_555 1_555
H25A C28A 1_555 1_555
C29A C28A 1_555 1_555
H26A C29A 1_555 1_555
C30A C29A 1_555 1_555
H27A C30A 1_555 1_555
C31A C30A 1_555 1_555
H28A C31A 1_555 1_555
C32A C27A 1_555 1_555
H29A C32A 1_555 1_555
C33A P3A 1_555 1_555
C34A C33A 1_555 1_555
H30A C34A 1_555 1_555
C35A C34A 1_555 1_555
H31A C35A 1_555 1_555
C36A C35A 1_555 1_555
H32A C36A 1_555 1_555
C37A C36A 1_555 1_555
H33A C37A 1_555 1_555
C38A C33A 1_555 1_555
H34A C38A 1_555 1_555
C39A P4A 1_555 1_555
C40A C39A 1_555 1_555
H35A C40A 1_555 1_555
C41A C40A 1_555 1_555
H36A C41A 1_555 1_555
C42A C41A 1_555 1_555
H37A C42A 1_555 1_555
C43A C42A 1_555 1_555
H38A C43A 1_555 1_555
C44A C39A 1_555 1_555
H39A C44A 1_555 1_555
C45A P4A 1_555 1_555
C46A C45A 1_555 1_555
H40A C46A 1_555 1_555
C47A C46A 1_555 1_555
H41A C47A 1_555 1_555
C48A C47A 1_555 1_555
H42A C48A 1_555 1_555
C49A C48A 1_555 1_555
H43A C49A 1_555 1_555
C50A C45A 1_555 1_555
H44A C50A 1_555 1_555
C51A N1A 1_555 1_555
C52A C51A 1_555 1_555
C53A C52A 1_555 1_555
H45A C53A 1_555 1_555
C54A C52A 1_555 1_555
H46A C54A 1_555 1_555
C55A C54A 1_555 1_555
H47A C55A 1_555 1_555
C56A C53A 1_555 1_555
H48A C56A 1_555 1_555
C57A C55A 1_555 1_555
C58A N2A 1_555 1_555
C59A C58A 1_555 1_555
C60A C59A 1_555 1_555
H49A C60A 1_555 1_555
C61A C59A 1_555 1_555
H50A C61A 1_555 1_555
C62A C60A 1_555 1_555
H51A C62A 1_555 1_555
C63A C61A 1_555 1_555
H52A C63A 1_555 1_555
C64A C64 1_555 1_555
C65A N3A 1_555 1_555
C66A C65A 1_555 1_555
C67A C66A 1_555 1_555
H53A C67A 1_555 1_555
C68A C66A 1_555 1_555
H54A C68A 1_555 1_555
C69A C67A 1_555 1_555
H55A C69A 1_555 1_555
C70A C68A 1_555 1_555
H56A C70A 1_555 1_555
C71A C57A 1_555 1_555
P4 C26 1_555 1_555
C6 C7 1_555 1_555
C12 C13 1_555 1_555
C18 C19 1_555 1_555
C24 C25 1_555 1_555
C31 C32 1_555 1_555
C37 C38 1_555 1_555
C43 C44 1_555 1_555
C49 C50 1_555 1_555
C56 C57 1_555 1_555
C63 C64 1_555 1_555
C69 C71 1_555 1_555
C70 C71 1_555 1_555
P4A C26A 1_555 1_555
C6A C7A 1_555 1_555
C12A C13A 1_555 1_555
C18A C19A 1_555 1_555
C24A C25A 1_555 1_555
C31A C32A 1_555 1_555
C37A C38A 1_555 1_555
C43A C44A 1_555 1_555
C49A C50A 1_555 1_555
C56A C57A 1_555 1_555
C62A C64A 1_555 1_555
C63A C64A 1_555 1_555
C69A C71A 1_555 1_555
C70A C71A 1_555 1_555

#END
