
#######################################################################
#
#                 Cambridge Crystallographic Data Centre
#                                CCDC 
#
#######################################################################
#
# If this CIF has been generated from an entry in the Cambridge 
# Structural Database, then it will include bibliographic, chemical, 
# crystal, experimental, refinement or atomic coordinate data resulting 
# from the CCDC's data processing and validation procedures.
#
#######################################################################

data_GIPPAX
_symmetry_cell_setting           triclinic
_symmetry_space_group_name_H-M   'P -1'
_symmetry_Int_Tables_number      2
_space_group_name_Hall           '-P 1'
loop_
_symmetry_equiv_pos_site_id
_symmetry_equiv_pos_as_xyz
1 x,y,z
2 -x,-y,-z
_cell_length_a                   14.376(3)
_cell_length_b                   16.082(3)
_cell_length_c                   23.959(5)
_cell_angle_alpha                91.405(9)
_cell_angle_beta                 102.253(9)
_cell_angle_gamma                113.678(8)
_cell_volume                     4919.91
loop_
_atom_site_label
_atom_site_type_symbol
_atom_site_fract_x
_atom_site_fract_y
_atom_site_fract_z
Cu1 Cu 0.33425(4) 0.20651(3) 0.29470(2)
Cu2 Cu 0.14045(4) 0.12115(3) 0.35420(2)
P1 P 0.42013(8) 0.16836(7) 0.37318(5)
P2 P 0.23895(8) 0.09570(7) 0.43148(5)
P3 P 0.30791(8) 0.33528(7) 0.28830(5)
P4 P 0.13120(8) 0.25625(7) 0.34853(5)
N1 N 0.2096(3) 0.1052(2) 0.24411(16)
N2 N -1.0198(3) -1.0140(2) -0.30947(15)
N3 N 0.4353(3) 0.2293(3) 0.24168(17)
C1 C 0.3788(3) 0.1692(3) 0.44013(17)
H1 H 0.3925 0.2314 0.4535
H2 H 0.4198 0.1484 0.4692
C2 C 0.4176(3) 0.0550(3) 0.3606(2)
C3 C 0.3703(4) 0.0070(3) 0.3065(2)
H3 H 0.3434 0.0337 0.2770
C4 C 0.3624(5) -0.0820(4) 0.2957(3)
H4 H 0.3307 -0.1145 0.2591
C5 C 0.4014(5) -0.1199(4) 0.3391(3)
H5 H 0.3942 -0.1796 0.3323
C6 C 0.4515(4) -0.0726(4) 0.3932(3)
H6 H 0.4809 -0.0991 0.4217
C7 C 0.4580(3) 0.0151(3) 0.4050(2)
H7 H 0.4888 0.0466 0.4419
C8 C 0.5610(3) 0.2397(3) 0.3962(2)
C9 C 0.6074(3) 0.3028(3) 0.4446(2)
H8 H 0.5663 0.3099 0.4678
C10 C 0.7141(4) 0.3561(3) 0.4593(3)
H9 H 0.7437 0.3988 0.4920
C11 C 0.7753(4) 0.3465(4) 0.4267(3)
H10 H 0.8471 0.3821 0.4368
C12 C 0.7306(4) 0.2835(4) 0.3783(3)
H11 H 0.7732 0.2766 0.3559
C13 C 0.6236(4) 0.2299(4) 0.3618(2)
H12 H 0.5944 0.1884 0.3285
C14 C 0.2327(3) -0.0190(3) 0.4390(2)
C15 C 0.1838(3) -0.0834(3) 0.3910(2)
H13 H 0.1532 -0.0686 0.3567
C16 C 0.1808(4) -0.1705(3) 0.3945(3)
H14 H 0.1467 -0.2150 0.3627
C17 C 0.2288(4) -0.1912(4) 0.4456(3)
H15 H 0.2289 -0.2489 0.4473
C18 C 0.2758(4) -0.1278(4) 0.4930(3)
H16 H 0.3056 -0.1431 0.5273
C19 C 0.2795(3) -0.0412(3) 0.4906(2)
H17 H 0.3127 0.0023 0.5229
C20 C 0.2106(3) 0.1285(3) 0.49757(19)
C21 C 0.1389(4) 0.0624(4) 0.5217(2)
H18 H 0.1103 0.0014 0.5060
C22 C 0.1090(6) 0.0867(5) 0.5696(3)
H19 H 0.0612 0.0427 0.5860
C23 C 0.1532(6) 0.1784(5) 0.5917(3)
H20 H 0.1336 0.1969 0.6227
C24 C 0.2239(5) 0.2404(4) 0.5685(3)
H21 H 0.2551 0.3011 0.5850
C25 C 0.2519(4) 0.2170(3) 0.5209(2)
H22 H 0.2991 0.2620 0.5048
C26 C 0.2489(3) 0.3574(3) 0.34474(19)
H23 H 0.2995 0.3741 0.3816
H24 H 0.2304 0.4084 0.3367
C27 C 0.4328(3) 0.4341(3) 0.29623(18)
C28 C 0.5162(3) 0.4387(3) 0.3387(2)
H25 H 0.5065 0.3948 0.3640
C29 C 0.6151(4) 0.5085(3) 0.3441(2)
H26 H 0.6712 0.5108 0.3728
C30 C 0.6306(4) 0.5743(3) 0.3071(2)
H27 H 0.6968 0.6213 0.3111
C31 C 0.5490(4) 0.5704(3) 0.2650(2)
H28 H 0.5595 0.6146 0.2398
C32 C 0.4494(4) 0.5007(3) 0.2589(2)
H29 H 0.3939 0.4987 0.2299
C33 C 0.2290(4) 0.3459(3) 0.2204(2)
C34 C 0.1806(4) 0.4040(4) 0.2152(2)
H30 H 0.1828 0.4373 0.2482
C35 C 0.1289(5) 0.4144(5) 0.1627(3)
H31 H 0.0955 0.4536 0.1598
C36 C 0.1276(6) 0.3654(6) 0.1141(3)
H32 H 0.0951 0.3738 0.0781
C37 C 0.1722(5) 0.3058(5) 0.1175(3)
H33 H 0.1690 0.2725 0.0843
C38 C 0.2235(4) 0.2943(4) 0.1712(2)
H34 H 0.2536 0.2526 0.1742
C39 C 0.0285(3) 0.2581(3) 0.2907(2)
C40 C -0.0080(4) 0.1944(3) 0.2419(2)
H35 H 0.0201 0.1517 0.2400
C41 C -0.0870(5) 0.1941(4) 0.1952(3)
H36 H -0.1113 0.1518 0.1625
C42 C -0.1275(6) 0.2586(6) 0.1995(4)
H37 H -0.1802 0.2590 0.1695
C43 C -0.0914(5) 0.3205(5) 0.2467(4)
H38 H -0.1185 0.3640 0.2480
C44 C -0.0150(5) 0.3213(4) 0.2933(3)
H39 H 0.0070 0.3633 0.3259
C45 C 0.0967(4) 0.2847(3) 0.4127(2)
C46 C 0.0084(4) 0.2159(3) 0.4259(3)
H40 H -0.0275 0.1602 0.4024
C47 C -0.0242(5) 0.2311(4) 0.4730(3)
H41 H -0.0828 0.1856 0.4812
C48 C 0.0281(5) 0.3128(4) 0.5088(3)
H42 H 0.0029 0.3242 0.5395
C49 C 0.1189(5) 0.3773(4) 0.4981(3)
H43 H 0.1585 0.4303 0.5238
C50 C 0.1515(4) 0.3643(3) 0.4498(3)
H44 H 0.2109 0.4096 0.4423
C51 C 0.1447(4) 0.0531(3) 0.2086(2)
C52 C 0.0613(4) -0.0148(4) 0.1650(3)
C53 C -0.0103(5) 0.0062(5) 0.1264(3)
H45 H -0.0009 0.0670 0.1279
C54 C 0.0526(6) -0.1013(4) 0.1639(3)
H46 H 0.1009 -0.1169 0.1884
C55 C -0.0932(6) -0.0556(5) 0.0866(3)
H47 H -0.1389 -0.0384 0.0611
C56 C -0.0407(6) -0.1724(4) 0.1201(3)
H48 H -0.0533 -0.2340 0.1166
C57 C -0.1053(5) -0.1396(5) 0.0860(3)
C58 C -0.1998(5) -0.2142(5) 0.0416(3)
H49 H -0.2442 -0.1935 0.0180
C59 C -0.2231(5) -0.2960(4) 0.0337(3)
H50 H -0.1753 -0.3143 0.0564
C60 C -0.3125(4) -0.3711(3) -0.0048(2)
C61 C -0.3948(5) -0.3630(4) -0.0426(3)
H51 H -0.3949 -0.3054 -0.0451
C62 C -0.3167(5) -0.4583(4) -0.0043(3)
H52 H -0.2623 -0.4667 0.0200
C63 C -0.4761(4) -0.4372(4) -0.0763(2)
H53 H -0.5309 -0.4287 -0.1003
C64 C -0.3970(5) -0.5327(4) -0.0376(3)
H54 H -0.3972 -0.5904 -0.0350
C65 C -0.4795(4) -0.5227(4) -0.0760(2)
C66 C -0.9514(3) -0.9513(3) -0.28236(19)
C67 C -0.8686(4) -0.8719(3) -0.2467(2)
C68 C -0.7860(4) -0.8801(5) -0.2094(2)
H55 H -0.7813 -0.9360 -0.2071
C69 C -0.8730(5) -0.7886(3) -0.2483(2)
H56 H -0.9283 -0.7829 -0.2737
C70 C -0.7079(5) -0.7985(7) -0.1743(3)
H57 H -0.6499 -0.8003 -0.1493
C71 C -0.7957(7) -0.7125(4) -0.2123(3)
H58 H -0.8026 -0.6576 -0.2149
C72 C -0.7195(7) -0.7112(6) -0.1777(3)
C73 C -0.6434(6) -0.6232(5) -0.1455(3)
H59 H -0.6611 -0.5743 -0.1534
C74 C -0.5647(5) -0.6043(6) -0.1119(3)
H60 H -0.5516 -0.6558 -0.1058
C75 C 0.4967(4) 0.2608(3) 0.2163(2)
C76 C 0.5755(4) 0.3010(4) 0.1852(2)
C77 C 0.6601(4) 0.3826(3) 0.2074(3)
H61 H 0.6660 0.4126 0.2425
C78 C 0.5649(4) 0.2537(4) 0.1310(3)
H62 H 0.5095 0.1973 0.1165
C79 C 0.7362(4) 0.4195(4) 0.1771(3)
H63 H 0.7949 0.4734 0.1926
C80 C 0.6417(5) 0.2961(5) 0.1010(3)
H64 H 0.6354 0.2688 0.0649
C81 C 0.7255 0.3765 0.1234
C82 C 0.9208 0.4654 0.0300
C83 C 1.0072(9) 0.5323(12) 0.0531(7)
H65 H 1.0164 0.5560 0.0906
C84 C 0.9074(9) 0.4254(13) -0.0258(6)
H66 H 0.8470 0.3746 -0.0440
C85 C 0.8190 0.4258 0.0973
H67 H 0.8758 0.4763 0.1191
C86 C 0.8224 0.4014 0.0485
H68 H 0.7705 0.3495 0.0253
Cu1A Cu 1.66575(4) 0.79349(3) -0.29470(2)
Cu1A_2 Cu -1.33425(4) -1.20651(3) -0.29470(2)
Cu2A Cu -1.14045(4) -1.12115(3) -0.35420(2)
Cu2A_2 Cu 1.85955(4) 0.87885(3) -0.35420(2)
P1A P 1.57987(8) 0.83164(7) -0.37318(5)
P2A P 1.76105(8) 0.90430(7) -0.43148(5)
P2A_2 P -1.23895(8) -1.09570(7) -0.43148(5)
P3A P 1.69209(8) 0.66472(7) -0.28830(5)
P4A P 1.86880(8) 0.74375(7) -0.34853(5)
P4A_2 P -1.13120(8) -1.25625(7) -0.34853(5)
N1A N -1.2096(3) -1.1052(2) -0.24411(16)
N1A_2 N 1.7904(3) 0.8948(2) -0.24411(16)
N2A N 0.0198(3) 0.0140(2) 0.30947(15)
N3A N 1.5647(3) 0.7707(3) -0.24168(17)
C1A C 1.6212(3) 0.8308(3) -0.44013(17)
H1A H 1.6075 0.7686 -0.4535
H2A H 1.5802 0.8516 -0.4692
C2A C 1.5824(3) 0.9450(3) -0.3606(2)
C3A C 1.6297(4) 0.9930(3) -0.3065(2)
H3A H 1.6566 0.9663 -0.2770
C4A C 1.6376(5) 1.0820(4) -0.2957(3)
H4A H 1.6693 1.1145 -0.2591
C5A C 1.5986(5) 1.1199(4) -0.3391(3)
H5A H 1.6058 1.1796 -0.3323
C6A C 1.5485(4) 1.0726(4) -0.3932(3)
H6A H 1.5191 1.0991 -0.4217
C7A C 1.5420(3) 0.9849(3) -0.4050(2)
H7A H 1.5112 0.9534 -0.4419
C8A C 1.4390(3) 0.7603(3) -0.3962(2)
C9A C 1.3926(3) 0.6972(3) -0.4446(2)
H8A H 1.4337 0.6901 -0.4678
C10A C 1.2859(4) 0.6439(3) -0.4593(3)
H9A H 1.2563 0.6012 -0.4920
C11A C 1.2247(4) 0.6535(4) -0.4267(3)
H10A H 1.1529 0.6179 -0.4368
C12A C 1.2694(4) 0.7165(4) -0.3783(3)
H11A H 1.2268 0.7234 -0.3559
C13A C 1.3764(4) 0.7701(4) -0.3618(2)
H12A H 1.4056 0.8116 -0.3285
C14A C 1.7673(3) 1.0190(3) -0.4390(2)
C15A C 1.8162(3) 1.0834(3) -0.3910(2)
H13A H 1.8468 1.0686 -0.3567
C16A C 1.8192(4) 1.1705(3) -0.3945(3)
H14A H 1.8533 1.2150 -0.3627
C17A C 1.7712(4) 1.1912(4) -0.4456(3)
H15A H 1.7711 1.2489 -0.4473
C18A C 1.7242(4) 1.1278(4) -0.4930(3)
H16A H 1.6944 1.1431 -0.5273
C19A C 1.7205(3) 1.0412(3) -0.4906(2)
H17A H 1.6873 0.9977 -0.5229
C20A C 1.7894(3) 0.8715(3) -0.49757(19)
C21A C 1.8611(4) 0.9376(4) -0.5217(2)
H18A H 1.8897 0.9986 -0.5060
C22A C 1.8910(6) 0.9133(5) -0.5696(3)
H19A H 1.9388 0.9573 -0.5860
C23A C 1.8468(6) 0.8216(5) -0.5917(3)
H20A H 1.8664 0.8031 -0.6227
C24A C 1.7761(5) 0.7596(4) -0.5685(3)
H21A H 1.7449 0.6989 -0.5850
C25A C 1.7481(4) 0.7830(3) -0.5209(2)
H22A H 1.7009 0.7380 -0.5048
C26A C 1.7511(3) 0.6426(3) -0.34474(19)
H23A H 1.7005 0.6259 -0.3816
H24A H 1.7696 0.5916 -0.3367
C27A C 1.5672(3) 0.5659(3) -0.29623(18)
C28A C 1.4838(3) 0.5613(3) -0.3387(2)
H25A H 1.4935 0.6052 -0.3640
C29A C 1.3849(4) 0.4915(3) -0.3441(2)
H26A H 1.3288 0.4892 -0.3728
C30A C 1.3694(4) 0.4257(3) -0.3071(2)
H27A H 1.3032 0.3787 -0.3111
C31A C 1.4510(4) 0.4296(3) -0.2650(2)
H28A H 1.4405 0.3854 -0.2398
C32A C 1.5506(4) 0.4993(3) -0.2589(2)
H29A H 1.6061 0.5013 -0.2299
C33A C 1.7710(4) 0.6541(3) -0.2204(2)
C34A C 1.8194(4) 0.5960(4) -0.2152(2)
H30A H 1.8172 0.5627 -0.2482
C35A C 1.8711(5) 0.5856(5) -0.1627(3)
H31A H 1.9045 0.5464 -0.1598
C36A C 1.8724(6) 0.6346(6) -0.1141(3)
H32A H 1.9049 0.6262 -0.0781
C37A C 1.8278(5) 0.6942(5) -0.1175(3)
H33A H 1.8310 0.7275 -0.0843
C38A C 1.7765(4) 0.7057(4) -0.1712(2)
H34A H 1.7464 0.7474 -0.1742
C39A C 1.9715(3) 0.7419(3) -0.2907(2)
C40A C 2.0080(4) 0.8056(3) -0.2419(2)
H35A H 1.9799 0.8483 -0.2400
C41A C 2.0870(5) 0.8059(4) -0.1952(3)
H36A H 2.1113 0.8482 -0.1625
C42A C 2.1275(6) 0.7414(6) -0.1995(4)
H37A H 2.1802 0.7410 -0.1695
C43A C 2.0914(5) 0.6795(5) -0.2467(4)
H38A H 2.1185 0.6360 -0.2480
C44A C 2.0150(5) 0.6787(4) -0.2933(3)
H39A H 1.9930 0.6367 -0.3259
C45A C 1.9033(4) 0.7153(3) -0.4127(2)
C46A C 1.9916(4) 0.7841(3) -0.4259(3)
H40A H 2.0275 0.8398 -0.4024
C47A C 2.0242(5) 0.7689(4) -0.4730(3)
H41A H 2.0828 0.8144 -0.4812
C48A C 1.9719(5) 0.6872(4) -0.5088(3)
H42A H 1.9971 0.6758 -0.5395
C49A C 1.8811(5) 0.6227(4) -0.4981(3)
H43A H 1.8415 0.5697 -0.5238
C50A C 1.8485(4) 0.6357(3) -0.4498(3)
H44A H 1.7891 0.5904 -0.4423
C51A C -1.1447(4) -1.0531(3) -0.2086(2)
C52A C -1.0613(4) -0.9852(4) -0.1650(3)
C53A C -0.9897(5) -1.0062(5) -0.1264(3)
H45A H -0.9991 -1.0670 -0.1279
C54A C -1.0526(6) -0.8987(4) -0.1639(3)
H46A H -1.1009 -0.8831 -0.1884
C55A C -0.9068(6) -0.9444(5) -0.0866(3)
H47A H -0.8611 -0.9616 -0.0611
C56A C -0.9593(6) -0.8276(4) -0.1201(3)
H48A H -0.9467 -0.7660 -0.1166
C57A C -0.8947(5) -0.8604(5) -0.0860(3)
C58A C -0.8002(5) -0.7858(5) -0.0416(3)
H49A H -0.7558 -0.8065 -0.0180
C59A C -0.7769(5) -0.7040(4) -0.0337(3)
H50A H -0.8247 -0.6857 -0.0564
C60A C -0.6875(4) -0.6289(3) 0.0048(2)
C61A C -0.6052(5) -0.6370(4) 0.0426(3)
H51A H -0.6051 -0.6946 0.0451
C62A C -0.6833(5) -0.5417(4) 0.0043(3)
H52A H -0.7377 -0.5333 -0.0200
C63A C -0.5239(4) -0.5628(4) 0.0763(2)
H53A H -0.4691 -0.5713 0.1003
C64A C -0.6030(5) -0.4673(4) 0.0376(3)
H54A H -0.6028 -0.4096 0.0350
C65A C -0.5205(4) -0.4773(4) 0.0760(2)
C66A C -0.0486(3) -0.0487(3) 0.28236(19)
C67A C -0.1314(4) -0.1281(3) 0.2467(2)
C68A C -0.2140(4) -0.1199(5) 0.2094(2)
H55A H -0.2187 -0.0640 0.2071
C69A C -0.1270(5) -0.2114(3) 0.2483(2)
H56A H -0.0717 -0.2171 0.2737
C70A C -0.2921(5) -0.2015(7) 0.1743(3)
H57A H -0.3501 -0.1997 0.1493
C71A C -0.2043(7) -0.2875(4) 0.2123(3)
H58A H -0.1974 -0.3424 0.2149
C72A C -0.2805(7) -0.2888(6) 0.1777(3)
C73A C -0.3566(6) -0.3768(5) 0.1455(3)
H59A H -0.3389 -0.4257 0.1534
C74A C -0.4353(5) -0.3957(6) 0.1119(3)
H60A H -0.4484 -0.3442 0.1058
C75A C 1.5033(4) 0.7392(3) -0.2163(2)
C76A C 1.4245(4) 0.6990(4) -0.1852(2)
C77A C 1.3399(4) 0.6174(3) -0.2074(3)
H61A H 1.3340 0.5874 -0.2425
C78A C 1.4351(4) 0.7463(4) -0.1310(3)
H62A H 1.4905 0.8027 -0.1165
C79A C 1.2638(4) 0.5805(4) -0.1771(3)
H63A H 1.2051 0.5266 -0.1926
C80A C 1.3583(5) 0.7039(5) -0.1010(3)
H64A H 1.3646 0.7312 -0.0649
C81A C 1.2745 0.6235 -0.1234
C82A C 1.0792 0.5346 -0.0300
C83A C 0.9928(9) 0.4677(12) -0.0531(7)
H65A H 0.9836 0.4440 -0.0906
C84A C 1.0926(9) 0.5746(13) 0.0258(6)
H66A H 1.1530 0.6254 0.0440
C85A C 1.1810 0.5742 -0.0973
H67A H 1.1242 0.5237 -0.1191
C86A C 1.1776 0.5986 -0.0485
H68A H 1.2295 0.6505 -0.0253
loop_
_geom_bond_atom_site_label_1
_geom_bond_atom_site_label_2
_geom_bond_site_symmetry_1
_geom_bond_site_symmetry_2
Cu1 Cu2 1_555 1_555
Cu2 P2 1_555 1_555
P1 Cu1 1_555 1_555
P2 C1 1_555 1_555
P3 Cu1 1_555 1_555
P4 Cu2 1_555 1_555
N1 Cu1 1_555 1_555
N2 C66 1_555 1_555
N3 Cu1 1_555 1_555
C1 P1 1_555 1_555
H1 C1 1_555 1_555
H2 C1 1_555 1_555
C2 P1 1_555 1_555
C3 C2 1_555 1_555
H3 C3 1_555 1_555
C4 C3 1_555 1_555
H4 C4 1_555 1_555
C5 C4 1_555 1_555
H5 C5 1_555 1_555
C6 C5 1_555 1_555
H6 C6 1_555 1_555
C7 C2 1_555 1_555
H7 C7 1_555 1_555
C8 P1 1_555 1_555
C9 C8 1_555 1_555
H8 C9 1_555 1_555
C10 C9 1_555 1_555
H9 C10 1_555 1_555
C11 C10 1_555 1_555
H10 C11 1_555 1_555
C12 C11 1_555 1_555
H11 C12 1_555 1_555
C13 C8 1_555 1_555
H12 C13 1_555 1_555
C14 P2 1_555 1_555
C15 C14 1_555 1_555
H13 C15 1_555 1_555
C16 C15 1_555 1_555
H14 C16 1_555 1_555
C17 C16 1_555 1_555
H15 C17 1_555 1_555
C18 C17 1_555 1_555
H16 C18 1_555 1_555
C19 C14 1_555 1_555
H17 C19 1_555 1_555
C20 P2 1_555 1_555
C21 C20 1_555 1_555
H18 C21 1_555 1_555
C22 C21 1_555 1_555
H19 C22 1_555 1_555
C23 C22 1_555 1_555
H20 C23 1_555 1_555
C24 C23 1_555 1_555
H21 C24 1_555 1_555
C25 C20 1_555 1_555
H22 C25 1_555 1_555
C26 P3 1_555 1_555
H23 C26 1_555 1_555
H24 C26 1_555 1_555
C27 P3 1_555 1_555
C28 C27 1_555 1_555
H25 C28 1_555 1_555
C29 C28 1_555 1_555
H26 C29 1_555 1_555
C30 C29 1_555 1_555
H27 C30 1_555 1_555
C31 C30 1_555 1_555
H28 C31 1_555 1_555
C32 C27 1_555 1_555
H29 C32 1_555 1_555
C33 P3 1_555 1_555
C34 C33 1_555 1_555
H30 C34 1_555 1_555
C35 C34 1_555 1_555
H31 C35 1_555 1_555
C36 C35 1_555 1_555
H32 C36 1_555 1_555
C37 C36 1_555 1_555
H33 C37 1_555 1_555
C38 C33 1_555 1_555
H34 C38 1_555 1_555
C39 P4 1_555 1_555
C40 C39 1_555 1_555
H35 C40 1_555 1_555
C41 C40 1_555 1_555
H36 C41 1_555 1_555
C42 C41 1_555 1_555
H37 C42 1_555 1_555
C43 C42 1_555 1_555
H38 C43 1_555 1_555
C44 C39 1_555 1_555
H39 C44 1_555 1_555
C45 P4 1_555 1_555
C46 C45 1_555 1_555
H40 C46 1_555 1_555
C47 C46 1_555 1_555
H41 C47 1_555 1_555
C48 C47 1_555 1_555
H42 C48 1_555 1_555
C49 C48 1_555 1_555
H43 C49 1_555 1_555
C50 C45 1_555 1_555
H44 C50 1_555 1_555
C51 N1 1_555 1_555
C52 C51 1_555 1_555
C53 C52 1_555 1_555
H45 C53 1_555 1_555
C54 C52 1_555 1_555
H46 C54 1_555 1_555
C55 C53 1_555 1_555
H47 C55 1_555 1_555
C56 C54 1_555 1_555
H48 C56 1_555 1_555
C57 C55 1_555 1_555
C58 C57 1_555 1_555
H49 C58 1_555 1_555
C59 C58 1_555 1_555
H50 C59 1_555 1_555
C60 C59 1_555 1_555
C61 C60 1_555 1_555
H51 C61 1_555 1_555
C62 C60 1_555 1_555
H52 C62 1_555 1_555
C63 C61 1_555 1_555
H53 C63 1_555 1_555
C64 C62 1_555 1_555
H54 C64 1_555 1_555
C65 C63 1_555 1_555
C66 C67 1_555 1_555
C67 C68 1_555 1_555
C68 H55 1_555 1_555
C69 C67 1_555 1_555
H56 C69 1_555 1_555
C70 C68 1_555 1_555
H57 C70 1_555 1_555
C71 C69 1_555 1_555
H58 C71 1_555 1_555
C72 C70 1_555 1_555
C73 C72 1_555 1_555
H59 C73 1_555 1_555
C74 C65 1_555 1_555
H60 C74 1_555 1_555
C75 N3 1_555 1_555
C76 C75 1_555 1_555
C77 C76 1_555 1_555
H61 C77 1_555 1_555
C78 C76 1_555 1_555
H62 C78 1_555 1_555
C79 C77 1_555 1_555
H63 C79 1_555 1_555
C80 C78 1_555 1_555
H64 C80 1_555 1_555
C81 C79 1_555 1_555
C82 C83 1_555 1_555
C83 H65 1_555 1_555
C84 C82 1_555 1_555
H66 C84 1_555 1_555
C85 C81 1_555 1_555
H67 C85 1_555 1_555
C86 C82 1_555 1_555
H68 C86 1_555 1_555
Cu1A Cu2A_2 1_555 1_555
Cu1A_2 Cu2A 1_555 1_555
Cu2A N2 1_555 1_555
Cu2A_2 P2A 1_555 1_555
P1A Cu1A 1_555 1_555
P2A C1A 1_555 1_555
P2A_2 Cu2A 1_555 1_555
P3A Cu1A 1_555 1_555
P4A Cu2A_2 1_555 1_555
P4A_2 Cu2A 1_555 1_555
N1A Cu1A_2 1_555 1_555
N1A_2 Cu1A 1_555 1_555
N2A Cu2 1_555 1_555
N3A Cu1A 1_555 1_555
C1A P1A 1_555 1_555
H1A C1A 1_555 1_555
H2A C1A 1_555 1_555
C2A P1A 1_555 1_555
C3A C2A 1_555 1_555
H3A C3A 1_555 1_555
C4A C3A 1_555 1_555
H4A C4A 1_555 1_555
C5A C4A 1_555 1_555
H5A C5A 1_555 1_555
C6A C5A 1_555 1_555
H6A C6A 1_555 1_555
C7A C2A 1_555 1_555
H7A C7A 1_555 1_555
C8A P1A 1_555 1_555
C9A C8A 1_555 1_555
H8A C9A 1_555 1_555
C10A C9A 1_555 1_555
H9A C10A 1_555 1_555
C11A C10A 1_555 1_555
H10A C11A 1_555 1_555
C12A C11A 1_555 1_555
H11A C12A 1_555 1_555
C13A C8A 1_555 1_555
H12A C13A 1_555 1_555
C14A P2A 1_555 1_555
C15A C14A 1_555 1_555
H13A C15A 1_555 1_555
C16A C15A 1_555 1_555
H14A C16A 1_555 1_555
C17A C16A 1_555 1_555
H15A C17A 1_555 1_555
C18A C17A 1_555 1_555
H16A C18A 1_555 1_555
C19A C14A 1_555 1_555
H17A C19A 1_555 1_555
C20A P2A 1_555 1_555
C21A C20A 1_555 1_555
H18A C21A 1_555 1_555
C22A C21A 1_555 1_555
H19A C22A 1_555 1_555
C23A C22A 1_555 1_555
H20A C23A 1_555 1_555
C24A C23A 1_555 1_555
H21A C24A 1_555 1_555
C25A C20A 1_555 1_555
H22A C25A 1_555 1_555
C26A P3A 1_555 1_555
H23A C26A 1_555 1_555
H24A C26A 1_555 1_555
C27A P3A 1_555 1_555
C28A C27A 1_555 1_555
H25A C28A 1_555 1_555
C29A C28A 1_555 1_555
H26A C29A 1_555 1_555
C30A C29A 1_555 1_555
H27A C30A 1_555 1_555
C31A C30A 1_555 1_555
H28A C31A 1_555 1_555
C32A C27A 1_555 1_555
H29A C32A 1_555 1_555
C33A P3A 1_555 1_555
C34A C33A 1_555 1_555
H30A C34A 1_555 1_555
C35A C34A 1_555 1_555
H31A C35A 1_555 1_555
C36A C35A 1_555 1_555
H32A C36A 1_555 1_555
C37A C36A 1_555 1_555
H33A C37A 1_555 1_555
C38A C33A 1_555 1_555
H34A C38A 1_555 1_555
C39A P4A 1_555 1_555
C40A C39A 1_555 1_555
H35A C40A 1_555 1_555
C41A C40A 1_555 1_555
H36A C41A 1_555 1_555
C42A C41A 1_555 1_555
H37A C42A 1_555 1_555
C43A C42A 1_555 1_555
H38A C43A 1_555 1_555
C44A C39A 1_555 1_555
H39A C44A 1_555 1_555
C45A P4A 1_555 1_555
C46A C45A 1_555 1_555
H40A C46A 1_555 1_555
C47A C46A 1_555 1_555
H41A C47A 1_555 1_555
C48A C47A 1_555 1_555
H42A C48A 1_555 1_555
C49A C48A 1_555 1_555
H43A C49A 1_555 1_555
C50A C45A 1_555 1_555
H44A C50A 1_555 1_555
C51A N1A 1_555 1_555
C52A C51A 1_555 1_555
C53A C52A 1_555 1_555
H45A C53A 1_555 1_555
C54A C52A 1_555 1_555
H46A C54A 1_555 1_555
C55A C53A 1_555 1_555
H47A C55A 1_555 1_555
C56A C54A 1_555 1_555
H48A C56A 1_555 1_555
C57A C55A 1_555 1_555
C58A C57A 1_555 1_555
H49A C58A 1_555 1_555
C59A C58A 1_555 1_555
H50A C59A 1_555 1_555
C60A C59A 1_555 1_555
C61A C60A 1_555 1_555
H51A C61A 1_555 1_555
C62A C60A 1_555 1_555
H52A C62A 1_555 1_555
C63A C61A 1_555 1_555
H53A C63A 1_555 1_555
C64A C62A 1_555 1_555
H54A C64A 1_555 1_555
C65A C63A 1_555 1_555
C66A N2A 1_555 1_555
C67A C66A 1_555 1_555
C68A C67A 1_555 1_555
H55A C68A 1_555 1_555
C69A C67A 1_555 1_555
H56A C69A 1_555 1_555
C70A C68A 1_555 1_555
H57A C70A 1_555 1_555
C71A C69A 1_555 1_555
H58A C71A 1_555 1_555
C72A C70A 1_555 1_555
C73A C72A 1_555 1_555
H59A C73A 1_555 1_555
C74A C65A 1_555 1_555
H60A C74A 1_555 1_555
C75A N3A 1_555 1_555
C76A C75A 1_555 1_555
C77A C76A 1_555 1_555
H61A C77A 1_555 1_555
C78A C76A 1_555 1_555
H62A C78A 1_555 1_555
C79A C77A 1_555 1_555
H63A C79A 1_555 1_555
C80A C78A 1_555 1_555
H64A C80A 1_555 1_555
C81A C79A 1_555 1_555
C82A C83A 1_555 1_555
C83A C84 1_555 1_555
H65A C83A 1_555 1_555
C84A C83 1_555 1_555
H66A C84A 1_555 1_555
C85A C81A 1_555 1_555
H67A C85A 1_555 1_555
C86A C82A 1_555 1_555
H68A C86A 1_555 1_555
P4 C26 1_555 1_555
C6 C7 1_555 1_555
C12 C13 1_555 1_555
C18 C19 1_555 1_555
C24 C25 1_555 1_555
C31 C32 1_555 1_555
C37 C38 1_555 1_555
C43 C44 1_555 1_555
C49 C50 1_555 1_555
C56 C57 1_555 1_555
C64 C65 1_555 1_555
C71 C72 1_555 1_555
C73 C74 1_555 1_555
C80 C81 1_555 1_555
C85 C86 1_555 1_555
P4A C26A 1_555 1_555
C6A C7A 1_555 1_555
C12A C13A 1_555 1_555
C18A C19A 1_555 1_555
C24A C25A 1_555 1_555
C31A C32A 1_555 1_555
C37A C38A 1_555 1_555
C43A C44A 1_555 1_555
C49A C50A 1_555 1_555
C56A C57A 1_555 1_555
C64A C65A 1_555 1_555
C71A C72A 1_555 1_555
C73A C74A 1_555 1_555
C80A C81A 1_555 1_555
C82A C84A 1_555 1_555
C85A C86A 1_555 1_555

#END
