
#######################################################################
#
#                 Cambridge Crystallographic Data Centre
#                                CCDC 
#
#######################################################################
#
# If this CIF has been generated from an entry in the Cambridge 
# Structural Database, then it will include bibliographic, chemical, 
# crystal, experimental, refinement or atomic coordinate data resulting 
# from the CCDC's data processing and validation procedures.
#
#######################################################################

data_GIPPIF
_symmetry_cell_setting           triclinic
_symmetry_space_group_name_H-M   'P -1'
_symmetry_Int_Tables_number      2
_space_group_name_Hall           '-P 1'
loop_
_symmetry_equiv_pos_site_id
_symmetry_equiv_pos_as_xyz
1 x,y,z
2 -x,-y,-z
_cell_length_a                   12.463(5)
_cell_length_b                   15.791(7)
_cell_length_c                   18.753(8)
_cell_angle_alpha                71.316(9)
_cell_angle_beta                 73.251(12)
_cell_angle_gamma                70.821(10)
_cell_volume                     3232.35
loop_
_atom_site_label
_atom_site_type_symbol
_atom_site_fract_x
_atom_site_fract_y
_atom_site_fract_z
Cu1 Cu 0.07705(19) 0.37244(13) 0.25306(12)
Cu2 Cu 0.22432(19) 0.17150(14) 0.22712(12)
P1 P 0.2328(4) 0.4286(3) 0.1851(3)
P2 P 0.3722(4) 0.2369(3) 0.1682(3)
P3 P 0.0537(4) 0.2975(3) 0.3789(3)
P4 P 0.1452(4) 0.1041(3) 0.3473(3)
N1 N 0.0320(12) 0.3007(8) 0.1955(7)
N2 N -0.0699(16) 0.4759(10) 0.2439(8)
N3 N -0.2107(12) -0.1009(9) -0.1593(7)
C1 C 0.3692(14) 0.3399(10) 0.1913(10)
H1 H 0.4320 0.3651 0.1564
H2 H 0.3826 0.3235 0.2430
C2 C 0.2511(16) 0.5185(11) 0.2174(9)
C3 C 0.1532(15) 0.5934(10) 0.2264(8)
H3 H 0.0847 0.5961 0.2142
C4 C 0.1599(17) 0.6637(11) 0.2540(9)
H4 H 0.0954 0.7135 0.2599
C5 C 0.2600(15) 0.6602(11) 0.2724(8)
H5 H 0.2644 0.7074 0.2901
C6 C 0.3513(15) 0.5879(10) 0.2644(8)
H6 H 0.4190 0.5851 0.2776
C7 C 0.3491(16) 0.5179(11) 0.2375(8)
H7 H 0.4150 0.4690 0.2327
C8 C 0.2371(17) 0.4760(11) 0.0849(10)
C9 C 0.1584(18) 0.4696(13) 0.0494(10)
H8 H 0.0983 0.4434 0.0800
C10 C 0.1634(17) 0.4991(12) -0.0270(12)
H9 H 0.1067 0.4931 -0.0468
C11 C 0.2498(15) 0.5378(10) -0.0766(10)
H10 H 0.2543 0.5568 -0.1294
C12 C 0.3278(17) 0.5466(12) -0.0439(11)
H11 H 0.3860 0.5746 -0.0752
C13 C 0.3240(18) 0.5157(12) 0.0335(10)
H12 H 0.3816 0.5214 0.0527
C14 C 0.4966(14) 0.1490(10) 0.1995(8)
C15 C 0.5296(15) 0.0685(10) 0.1759(9)
H13 H 0.4944 0.0647 0.1399
C16 C 0.6129(15) -0.0060(11) 0.2045(9)
H14 H 0.6328 -0.0596 0.1875
C17 C 0.6689(14) -0.0043(10) 0.2581(8)
H15 H 0.7254 -0.0554 0.2774
C18 C 0.6372(15) 0.0765(11) 0.2816(9)
H16 H 0.6735 0.0805 0.3169
C19 C 0.5516(15) 0.1517(11) 0.2531(9)
H17 H 0.5306 0.2052 0.2703
C20 C 0.4137(18) 0.2594(11) 0.0651(10)
C21 C 0.3454(17) 0.2557(11) 0.0229(11)
H18 H 0.2735 0.2440 0.0475
C22 C 0.379(2) 0.2690(14) -0.0560(14)
H19 H 0.3296 0.2657 -0.0836
C23 C 0.484(3) 0.2868(14) -0.0935(13)
H20 H 0.5056 0.2959 -0.1466
C24 C 0.556(2) 0.2911(12) -0.0532(15)
H21 H 0.6266 0.3039 -0.0787
C25 C 0.5231(17) 0.2764(11) 0.0256(14)
H22 H 0.5735 0.2777 0.0532
C26 C 0.0261(15) 0.1856(10) 0.3963(9)
H23 H -0.0444 0.1952 0.3792
H24 H 0.0131 0.1576 0.4512
C27 C -0.0770(17) 0.3545(11) 0.4406(10)
C28 C -0.1828(17) 0.3625(11) 0.4290(9)
H25 H -0.1888 0.3346 0.3940
C29 C -0.2847(16) 0.4137(12) 0.4705(11)
H26 H -0.3574 0.4200 0.4623
C30 C -0.275(2) 0.4523(13) 0.5210(12)
H27 H -0.3412 0.4847 0.5489
C31 C -0.168(2) 0.4451(12) 0.5326(11)
H28 H -0.1629 0.4732 0.5677
C32 C -0.0688(18) 0.3964(12) 0.4925(10)
H29 H 0.0035 0.3917 0.5004
C33 C 0.1712(15) 0.2745(12) 0.4278(10)
C34 C 0.2483(17) 0.3283(12) 0.3966(10)
H30 H 0.2411 0.3730 0.3505
C35 C 0.3382(16) 0.3172(12) 0.4329(11)
H31 H 0.3938 0.3506 0.4100
C36 C 0.3406(17) 0.2567(12) 0.5019(10)
H32 H 0.3968 0.2511 0.5279
C37 C 0.2642(18) 0.2028(12) 0.5357(11)
H33 H 0.2702 0.1597 0.5826
C38 C 0.1780(15) 0.2139(12) 0.4984(11)
H34 H 0.1234 0.1796 0.5217
C39 C 0.0775(19) 0.0204(15) 0.3432(11)
C40 C -0.0110(19) 0.0524(13) 0.3020(10)
H35 H -0.0399 0.1156 0.2826
C41 C -0.0561(16) -0.0108(14) 0.2902(9)
H36 H -0.1140 0.0107 0.2617
C42 C -0.0174(17) -0.1023(14) 0.3191(10)
H37 H -0.0498 -0.1430 0.3113
C43 C 0.0672(17) -0.1354(13) 0.3591(10)
H38 H 0.0935 -0.1991 0.3779
C44 C 0.1174(16) -0.0756(15) 0.3732(9)
H39 H 0.1754 -0.0991 0.4016
C45 C 0.2335(17) 0.0375(11) 0.4168(10)
C46 C 0.1974(15) -0.0100(10) 0.4897(9)
H40 H 0.1178 -0.0026 0.5066
C47 C 0.2646(18) -0.0669(11) 0.5404(10)
H41 H 0.2335 -0.0974 0.5896
C48 C 0.3840(16) -0.0768(11) 0.5139(9)
H42 H 0.4344 -0.1149 0.5464
C49 C 0.4283(18) -0.0317(12) 0.4411(11)
H43 H 0.5080 -0.0397 0.4242
C50 C 0.3535(17) 0.0261(11) 0.3927(10)
H44 H 0.3834 0.0577 0.3437
C51 C -0.0072(15) 0.2812(10) 0.1579(9)
C52 C -0.0564(15) 0.2491(10) 0.1130(9)
C53 C -0.0017(16) 0.2525(11) 0.0388(9)
H45 H 0.0579 0.2819 0.0164
C54 C -0.1455(15) 0.2069(10) 0.1482(9)
H46 H -0.1816 0.2056 0.1993
C55 C -0.0361(15) 0.2111(10) -0.0037(9)
H47 H -0.0007 0.2146 -0.0552
C56 C -0.1802(15) 0.1664(10) 0.1064(9)
H48 H -0.2423 0.1398 0.1288
C57 C -0.1220(14) 0.1652(10) 0.0300(9)
C58 C -0.1520(14) 0.1113(10) -0.0108(9)
C59 C -0.1451(14) 0.1402(11) -0.0895(9)
H49 H -0.1277 0.1964 -0.1163
C60 C -0.1769(14) 0.0283(10) 0.0290(9)
H50 H -0.1813 0.0082 0.0818
C61 C -0.1629(15) 0.0886(11) -0.1290(10)
H51 H -0.1575 0.1083 -0.1820
C62 C -0.1953(14) -0.0256(11) -0.0093(9)
H52 H -0.2115 -0.0822 0.0174
C63 C -0.1895(15) 0.0051(11) -0.0868(9)
C64 C -0.2032(16) -0.0516(12) -0.1282(9)
C65 C -0.160(2) 0.5158(14) 0.2558(12)
C66 C -0.2833(19) 0.5764(15) 0.2683(13)
H53 H -0.2985 0.6191 0.2205
H54 H -0.2926 0.6101 0.3050
H55 H -0.3367 0.5383 0.2873
Cu2A Cu -0.22432(19) -0.17150(14) -0.22712(12)
N3A N 0.2107(12) 0.1009(9) 0.1593(7)
B1 B -0.354(2) 0.3386(17) 0.2986(15)
F1 F -0.232(2) 0.305(2) 0.2855(15)
F3 F -0.384(2) 0.2576(13) 0.3511(12)
F4 F -0.3959(9) 0.3502(6) 0.2334(5)
F11 F -0.421(4) 0.390(4) 0.351(3)
B2 B 0.831(3) 0.7750(19) 0.2028(16)
F5 F 0.9067(9) 0.6942(7) 0.1921(7)
F6 F 0.8829(10) 0.8453(8) 0.1826(6)
F7 F 0.7543(9) 0.8010(6) 0.1494(6)
F8 F 0.7624(10) 0.7692(7) 0.2744(6)
C67 C 0.4767(18) 0.8196(12) 0.3083(11)
H56 H 0.5576 0.7938 0.2873
H57 H 0.4731 0.8686 0.3303
Cl1 Cl 0.4000(5) 0.8666(4) 0.2342(3)
Cl2 Cl 0.4239(5) 0.7349(4) 0.3797(3)
F2? F -0.399(3) 0.404(2) 0.329(2)
F9? F -0.321(3) 0.2457(18) 0.3304(16)
F10? F -0.2432(17) 0.3614(15) 0.2621(11)
loop_
_geom_bond_atom_site_label_1
_geom_bond_atom_site_label_2
_geom_bond_site_symmetry_1
_geom_bond_site_symmetry_2
Cu1 Cu2 1_555 1_555
Cu2 P2 1_555 1_555
P1 Cu1 1_555 1_555
P2 C1 1_555 1_555
P3 Cu1 1_555 1_555
P4 Cu2 1_555 1_555
N1 Cu1 1_555 1_555
N2 Cu1 1_555 1_555
N3 C64 1_555 1_555
C1 P1 1_555 1_555
H1 C1 1_555 1_555
H2 C1 1_555 1_555
C2 P1 1_555 1_555
C3 C2 1_555 1_555
H3 C3 1_555 1_555
C4 C3 1_555 1_555
H4 C4 1_555 1_555
C5 C4 1_555 1_555
H5 C5 1_555 1_555
C6 C5 1_555 1_555
H6 C6 1_555 1_555
C7 C2 1_555 1_555
H7 C7 1_555 1_555
C8 P1 1_555 1_555
C9 C8 1_555 1_555
H8 C9 1_555 1_555
C10 C9 1_555 1_555
H9 C10 1_555 1_555
C11 C10 1_555 1_555
H10 C11 1_555 1_555
C12 C11 1_555 1_555
H11 C12 1_555 1_555
C13 C8 1_555 1_555
H12 C13 1_555 1_555
C14 P2 1_555 1_555
C15 C14 1_555 1_555
H13 C15 1_555 1_555
C16 C15 1_555 1_555
H14 C16 1_555 1_555
C17 C16 1_555 1_555
H15 C17 1_555 1_555
C18 C17 1_555 1_555
H16 C18 1_555 1_555
C19 C14 1_555 1_555
H17 C19 1_555 1_555
C20 P2 1_555 1_555
C21 C20 1_555 1_555
H18 C21 1_555 1_555
C22 C21 1_555 1_555
H19 C22 1_555 1_555
C23 C22 1_555 1_555
H20 C23 1_555 1_555
C24 C23 1_555 1_555
H21 C24 1_555 1_555
C25 C20 1_555 1_555
H22 C25 1_555 1_555
C26 P3 1_555 1_555
H23 C26 1_555 1_555
H24 C26 1_555 1_555
C27 P3 1_555 1_555
C28 C27 1_555 1_555
H25 C28 1_555 1_555
C29 C28 1_555 1_555
H26 C29 1_555 1_555
C30 C29 1_555 1_555
H27 C30 1_555 1_555
C31 C30 1_555 1_555
H28 C31 1_555 1_555
C32 C27 1_555 1_555
H29 C32 1_555 1_555
C33 P3 1_555 1_555
C34 C33 1_555 1_555
H30 C34 1_555 1_555
C35 C34 1_555 1_555
H31 C35 1_555 1_555
C36 C35 1_555 1_555
H32 C36 1_555 1_555
C37 C36 1_555 1_555
H33 C37 1_555 1_555
C38 C33 1_555 1_555
H34 C38 1_555 1_555
C39 P4 1_555 1_555
C40 C39 1_555 1_555
H35 C40 1_555 1_555
C41 C40 1_555 1_555
H36 C41 1_555 1_555
C42 C41 1_555 1_555
H37 C42 1_555 1_555
C43 C42 1_555 1_555
H38 C43 1_555 1_555
C44 C39 1_555 1_555
H39 C44 1_555 1_555
C45 P4 1_555 1_555
C46 C45 1_555 1_555
H40 C46 1_555 1_555
C47 C46 1_555 1_555
H41 C47 1_555 1_555
C48 C47 1_555 1_555
H42 C48 1_555 1_555
C49 C48 1_555 1_555
H43 C49 1_555 1_555
C50 C45 1_555 1_555
H44 C50 1_555 1_555
C51 N1 1_555 1_555
C52 C51 1_555 1_555
C53 C52 1_555 1_555
H45 C53 1_555 1_555
C54 C52 1_555 1_555
H46 C54 1_555 1_555
C55 C53 1_555 1_555
H47 C55 1_555 1_555
C56 C54 1_555 1_555
H48 C56 1_555 1_555
C57 C55 1_555 1_555
C58 C57 1_555 1_555
C59 C58 1_555 1_555
H49 C59 1_555 1_555
C60 C58 1_555 1_555
H50 C60 1_555 1_555
C61 C59 1_555 1_555
H51 C61 1_555 1_555
C62 C60 1_555 1_555
H52 C62 1_555 1_555
C63 C61 1_555 1_555
C64 C63 1_555 1_555
C65 N2 1_555 1_555
C66 C65 1_555 1_555
H53 C66 1_555 1_555
H54 C66 1_555 1_555
H55 C66 1_555 1_555
B1 F1 1_555 1_555
F3 B1 1_555 1_555
F4 B1 1_555 1_555
B2 F5 1_555 1_555
F6 B2 1_555 1_555
F7 B2 1_555 1_555
F8 B2 1_555 1_555
C67 H56 1_555 1_555
H57 C67 1_555 1_555
Cl1 C67 1_555 1_555
Cl2 C67 1_555 1_555
F11 B1 1_555 1_555
Cu2A N3 1_555 1_555
N3A Cu2 1_555 1_555
P4 C26 1_555 1_555
C6 C7 1_555 1_555
C12 C13 1_555 1_555
C18 C19 1_555 1_555
C24 C25 1_555 1_555
C31 C32 1_555 1_555
C37 C38 1_555 1_555
C43 C44 1_555 1_555
C49 C50 1_555 1_555
C56 C57 1_555 1_555
C62 C63 1_555 1_555

#END
