
#######################################################################
#
#                 Cambridge Crystallographic Data Centre
#                                CCDC 
#
#######################################################################
#
# If this CIF has been generated from an entry in the Cambridge 
# Structural Database, then it will include bibliographic, chemical, 
# crystal, experimental, refinement or atomic coordinate data resulting 
# from the CCDC's data processing and validation procedures.
#
#######################################################################

data_GIPWUZ
_symmetry_cell_setting           triclinic
_symmetry_space_group_name_H-M   'P -1'
_symmetry_Int_Tables_number      2
_space_group_name_Hall           '-P 1'
loop_
_symmetry_equiv_pos_site_id
_symmetry_equiv_pos_as_xyz
1 x,y,z
2 -x,-y,-z
_cell_length_a                   9.895(2)
_cell_length_b                   12.243(2)
_cell_length_c                   15.499(3)
_cell_angle_alpha                108.61(3)
_cell_angle_beta                 99.89(3)
_cell_angle_gamma                106.24(3)
_cell_volume                     1636.64
loop_
_atom_site_label
_atom_site_type_symbol
_atom_site_fract_x
_atom_site_fract_y
_atom_site_fract_z
Cd1 Cd 0.75355(5) 1.00143(4) 0.50525(3)
O1 O 0.7999(4) 0.8962(4) 0.3733(3)
O2 O 1.0382(4) 0.9960(4) 0.3984(3)
O3 O 0.5456(5) 0.9867(4) 0.4001(3)
O4 O 0.3085(5) 0.8816(4) 0.3752(3)
N1 N 0.9303(6) 0.5852(5) 0.1374(3)
N2 N 0.3999(6) 0.5675(5) 0.1259(3)
N3 N 0.8609(5) 1.1996(4) 0.5013(4)
N4 N 0.6491(5) 0.8061(4) 0.5114(3)
C1 C 0.9184(6) 0.9076(6) 0.3529(4)
C2 C 0.9171(6) 0.8002(6) 0.2687(4)
C3 C 1.0151(6) 0.8121(6) 0.2120(4)
C4 C 1.1088(7) 0.9234(6) 0.2149(4)
H1 H 1.1099 0.9978 0.2568
C5 C 1.1996(8) 0.9243(7) 0.1566(5)
H2 H 1.2608 0.9993 0.1595
C6 C 1.2007(7) 0.8147(7) 0.0937(4)
H3 H 1.2633 0.8170 0.0554
C7 C 1.1099(7) 0.7023(6) 0.0875(4)
H4 H 1.1107 0.6293 0.0450
C8 C 1.0158(7) 0.6992(6) 0.1461(4)
C9 C 0.8375(6) 0.5774(6) 0.1895(4)
C10 C 0.8262(7) 0.6847(5) 0.2541(4)
H5 H 0.7561 0.6764 0.2869
C11 C 0.7547(7) 0.4533(6) 0.1841(4)
C12 C 0.8069(8) 0.3579(6) 0.1525(5)
H6 H 0.8919 0.3724 0.1332
C13 C 0.7342(9) 0.2414(7) 0.1493(5)
H7 H 0.7708 0.1787 0.1281
C14 C 0.6072(9) 0.2181(7) 0.1775(5)
H8 H 0.5580 0.1397 0.1748
C15 C 0.5544(8) 0.3114(7) 0.2096(5)
H9 H 0.4699 0.2967 0.2294
C16 C 0.6274(7) 0.4281(6) 0.2123(5)
H10 H 0.5902 0.4905 0.2335
C17 C 0.4298(7) 0.8942(5) 0.3582(4)
C18 C 0.4297(6) 0.7829(5) 0.2777(4)
C19 C 0.4996(6) 0.7932(5) 0.2064(4)
C20 C 0.5818(8) 0.9068(6) 0.2042(4)
H11 H 0.5949 0.9808 0.2525
C21 C 0.6419(9) 0.9078(7) 0.1312(5)
H12 H 0.6977 0.9826 0.1310
C22 C 0.6203(9) 0.7970(7) 0.0565(5)
H13 H 0.6601 0.7997 0.0068
C23 C 0.5431(9) 0.6874(7) 0.0560(5)
H14 H 0.5301 0.6150 0.0061
C24 C 0.4812(7) 0.6814(5) 0.1310(4)
C25 C 0.3401(7) 0.5609(5) 0.1939(4)
C26 C 0.3517(7) 0.6665(6) 0.2706(4)
H15 H 0.3060 0.6575 0.3169
C27 C 0.2529(7) 0.4350(6) 0.1851(4)
C28 C 0.1858(7) 0.3417(6) 0.0958(4)
H16 H 0.1940 0.3580 0.0419
C29 C 0.1056(8) 0.2225(6) 0.0867(5)
H17 H 0.0583 0.1604 0.0266
C30 C 0.0963(8) 0.1970(7) 0.1659(5)
H18 H 0.0452 0.1171 0.1594
C31 C 0.1626(8) 0.2894(7) 0.2548(5)
H19 H 0.1547 0.2725 0.3084
C32 C 0.2409(8) 0.4073(6) 0.2645(5)
H20 H 0.2862 0.4692 0.3249
C33 C 0.8710(8) 1.2162(6) 0.4215(5)
H21 H 0.8426 1.1468 0.3656
C34 C 0.9216(8) 1.3316(6) 0.4172(4)
H22 H 0.9226 1.3382 0.3591
C35 C 0.9711(6) 1.4379(5) 0.5006(4)
C36 C 0.9616(7) 1.4192(5) 0.5834(4)
H23 H 0.9925 1.4867 0.6409
C37 C 0.9066(6) 1.3015(5) 0.5812(4)
H24 H 0.9008 1.2922 0.6379
C38 C 0.7153(7) 0.7246(6) 0.4847(5)
H25 H 0.8025 0.7498 0.4694
C39 C 0.6601(7) 0.6045(6) 0.4787(5)
H26 H 0.7090 0.5507 0.4585
C40 C 0.5318(6) 0.5644(5) 0.5029(4)
C41 C 0.4643(7) 0.6523(6) 0.5307(5)
H27 H 0.3769 0.6307 0.5466
C42 C 0.5248(7) 0.7651(6) 0.5343(5)
H28 H 0.4778 0.8205 0.5543
N3A N 1.1391(5) 1.8004(4) 0.4987(4)
C33A C 1.1290(8) 1.7838(6) 0.5785(5)
H21A H 1.1574 1.8532 0.6344
C34A C 1.0784(8) 1.6684(6) 0.5828(4)
H22A H 1.0774 1.6618 0.6409
C35A C 1.0289(6) 1.5621(5) 0.4994(4)
C36A C 1.0384(7) 1.5808(5) 0.4166(4)
H23A H 1.0075 1.5133 0.3591
C37A C 1.0934(6) 1.6985(5) 0.4188(4)
H24A H 1.0992 1.7078 0.3621
N4A N 0.3509(5) 0.1939(4) 0.4886(3)
C38A C 0.2847(7) 0.2754(6) 0.5153(5)
H25A H 0.1975 0.2502 0.5306
C39A C 0.3399(7) 0.3955(6) 0.5213(5)
H26A H 0.2910 0.4493 0.5415
C40A C 0.4682(6) 0.4356(5) 0.4971(4)
C41A C 0.5357(7) 0.3477(6) 0.4693(5)
H27A H 0.6231 0.3693 0.4534
C42A C 0.4752(7) 0.2349(6) 0.4657(5)
H28A H 0.5222 0.1795 0.4457
Cd1A Cd 0.24645(5) -0.00143(4) 0.49475(3)
O1A O 0.2001(4) 0.1038(4) 0.6267(3)
O2A O -0.0382(4) 0.0040(4) 0.6016(3)
O3A O 0.4544(5) 0.0133(4) 0.5999(3)
O4A O 0.6915(5) 0.1184(4) 0.6248(3)
N1A N 0.0697(6) 0.4148(5) 0.8626(3)
N2A N 0.6001(6) 0.4325(5) 0.8741(3)
C1A C 0.0816(6) 0.0924(6) 0.6471(4)
C2A C 0.0829(6) 0.1998(6) 0.7313(4)
C3A C -0.0151(6) 0.1879(6) 0.7880(4)
C4A C -0.1088(7) 0.0766(6) 0.7851(4)
H1A H -0.1099 0.0022 0.7432
C5A C -0.1996(8) 0.0757(7) 0.8434(5)
H2A H -0.2608 0.0007 0.8405
C6A C -0.2007(7) 0.1853(7) 0.9063(4)
H3A H -0.2633 0.1830 0.9446
C7A C -0.1099(7) 0.2977(6) 0.9125(4)
H4A H -0.1107 0.3707 0.9550
C8A C -0.0158(7) 0.3008(6) 0.8539(4)
C9A C 0.1625(6) 0.4226(6) 0.8105(4)
C10A C 0.1738(7) 0.3153(5) 0.7459(4)
H5A H 0.2439 0.3236 0.7131
C11A C 0.2453(7) 0.5467(6) 0.8159(4)
C12A C 0.1931(8) 0.6421(6) 0.8475(5)
H6A H 0.1081 0.6276 0.8668
C13A C 0.2658(9) 0.7586(7) 0.8507(5)
H7A H 0.2292 0.8213 0.8719
C14A C 0.3928(9) 0.7819(7) 0.8225(5)
H8A H 0.4420 0.8603 0.8252
C15A C 0.4456(8) 0.6886(7) 0.7904(5)
H9A H 0.5301 0.7033 0.7706
C16A C 0.3726(7) 0.5719(6) 0.7877(5)
H10A H 0.4098 0.5095 0.7665
C17A C 0.5702(7) 0.1058(5) 0.6418(4)
C18A C 0.5703(6) 0.2171(5) 0.7223(4)
C19A C 0.5004(6) 0.2068(5) 0.7936(4)
C20A C 0.4182(8) 0.0932(6) 0.7958(4)
H11A H 0.4051 0.0192 0.7475
C21A C 0.3581(9) 0.0922(7) 0.8688(5)
H12A H 0.3023 0.0174 0.8690
C22A C 0.3797(9) 0.2030(7) 0.9435(5)
H13A H 0.3399 0.2003 0.9932
C23A C 0.4569(9) 0.3126(7) 0.9440(5)
H14A H 0.4699 0.3850 0.9939
C24A C 0.5188(7) 0.3186(5) 0.8690(4)
C25A C 0.6599(7) 0.4391(5) 0.8061(4)
C26A C 0.6483(7) 0.3335(6) 0.7294(4)
H15A H 0.6940 0.3425 0.6831
C27A C 0.7471(7) 0.5650(6) 0.8149(4)
C28A C 0.8142(7) 0.6583(6) 0.9042(4)
H16A H 0.8060 0.6420 0.9581
C29A C 0.8944(8) 0.7775(6) 0.9133(5)
H17A H 0.9417 0.8396 0.9734
C30A C 0.9037(8) 0.8030(7) 0.8341(5)
H18A H 0.9548 0.8829 0.8406
C31A C 0.8374(8) 0.7106(7) 0.7452(5)
H19A H 0.8453 0.7275 0.6916
C32A C 0.7591(8) 0.5927(6) 0.7355(5)
H20A H 0.7138 0.5308 0.6751
Cd1_2 Cd -0.24645(5) 0.00143(4) 0.50525(3)
Cd1_3 Cd 0.75355(5) 0.00143(4) 0.50525(3)
Cd1A_2 Cd 0.24645(5) 0.99857(4) 0.49475(3)
Cd1A_3 Cd 1.24645(5) 0.99857(4) 0.49475(3)
Cd1A_4 Cd 1.24645(5) 1.99857(4) 0.49475(3)
O2_2 O 0.0382(4) -0.0040(4) 0.3984(3)
O2A_2 O 0.9618(4) 1.0040(4) 0.6016(3)
O4_2 O 0.3085(5) -0.1184(4) 0.3752(3)
O4A_2 O 0.6915(5) 1.1184(4) 0.6248(3)
N3A_2 N 0.1391(5) -0.1996(4) 0.4987(4)
loop_
_geom_bond_atom_site_label_1
_geom_bond_atom_site_label_2
_geom_bond_site_symmetry_1
_geom_bond_site_symmetry_2
Cd1 O1 1_555 1_555
O1 C1 1_555 1_555
O2 C1 1_555 1_555
O3 Cd1 1_555 1_555
O4 C17 1_555 1_555
N1 C8 1_555 1_555
N2 C24 1_555 1_555
N3 Cd1 1_555 1_555
N4 Cd1 1_555 1_555
C1 C2 1_555 1_555
C2 C3 1_555 1_555
C3 C4 1_555 1_555
C4 H1 1_555 1_555
C5 C4 1_555 1_555
H2 C5 1_555 1_555
C6 C5 1_555 1_555
H3 C6 1_555 1_555
C7 C6 1_555 1_555
H4 C7 1_555 1_555
C8 C3 1_555 1_555
C9 N1 1_555 1_555
C10 C2 1_555 1_555
H5 C10 1_555 1_555
C11 C9 1_555 1_555
C12 C11 1_555 1_555
H6 C12 1_555 1_555
C13 C12 1_555 1_555
H7 C13 1_555 1_555
C14 C13 1_555 1_555
H8 C14 1_555 1_555
C15 C14 1_555 1_555
H9 C15 1_555 1_555
C16 C11 1_555 1_555
H10 C16 1_555 1_555
C17 O3 1_555 1_555
C18 C17 1_555 1_555
C19 C18 1_555 1_555
C20 C19 1_555 1_555
H11 C20 1_555 1_555
C21 C20 1_555 1_555
H12 C21 1_555 1_555
C22 C21 1_555 1_555
H13 C22 1_555 1_555
C23 C22 1_555 1_555
H14 C23 1_555 1_555
C24 C19 1_555 1_555
C25 N2 1_555 1_555
C26 C18 1_555 1_555
H15 C26 1_555 1_555
C27 C25 1_555 1_555
C28 C27 1_555 1_555
H16 C28 1_555 1_555
C29 C28 1_555 1_555
H17 C29 1_555 1_555
C30 C29 1_555 1_555
H18 C30 1_555 1_555
C31 C30 1_555 1_555
H19 C31 1_555 1_555
C32 C27 1_555 1_555
H20 C32 1_555 1_555
C33 N3 1_555 1_555
H21 C33 1_555 1_555
C34 C33 1_555 1_555
H22 C34 1_555 1_555
C35 C34 1_555 1_555
C36 C35 1_555 1_555
H23 C36 1_555 1_555
C37 N3 1_555 1_555
H24 C37 1_555 1_555
C38 N4 1_555 1_555
H25 C38 1_555 1_555
C39 C38 1_555 1_555
H26 C39 1_555 1_555
C40 C39 1_555 1_555
C41 C40 1_555 1_555
H27 C41 1_555 1_555
C42 N4 1_555 1_555
H28 C42 1_555 1_555
N3A C33A 1_555 1_555
C33A H21A 1_555 1_555
C34A C33A 1_555 1_555
H22A C34A 1_555 1_555
C35A C35 1_555 1_555
C36A C35A 1_555 1_555
H23A C36A 1_555 1_555
C37A N3A 1_555 1_555
H24A C37A 1_555 1_555
N4A C38A 1_555 1_555
C38A H25A 1_555 1_555
C39A C38A 1_555 1_555
H26A C39A 1_555 1_555
C40A C40 1_555 1_555
C41A C40A 1_555 1_555
H27A C41A 1_555 1_555
C42A N4A 1_555 1_555
H28A C42A 1_555 1_555
Cd1A N4A 1_555 1_555
O1A Cd1A 1_555 1_555
O2A C1A 1_555 1_555
O3A Cd1A 1_555 1_555
O4A C17A 1_555 1_555
N1A C8A 1_555 1_555
N2A C24A 1_555 1_555
C1A O1A 1_555 1_555
C2A C1A 1_555 1_555
C3A C2A 1_555 1_555
C4A C3A 1_555 1_555
H1A C4A 1_555 1_555
C5A C4A 1_555 1_555
H2A C5A 1_555 1_555
C6A C5A 1_555 1_555
H3A C6A 1_555 1_555
C7A C6A 1_555 1_555
H4A C7A 1_555 1_555
C8A C3A 1_555 1_555
C9A N1A 1_555 1_555
C10A C2A 1_555 1_555
H5A C10A 1_555 1_555
C11A C9A 1_555 1_555
C12A C11A 1_555 1_555
H6A C12A 1_555 1_555
C13A C12A 1_555 1_555
H7A C13A 1_555 1_555
C14A C13A 1_555 1_555
H8A C14A 1_555 1_555
C15A C14A 1_555 1_555
H9A C15A 1_555 1_555
C16A C11A 1_555 1_555
H10A C16A 1_555 1_555
C17A O3A 1_555 1_555
C18A C17A 1_555 1_555
C19A C18A 1_555 1_555
C20A C19A 1_555 1_555
H11A C20A 1_555 1_555
C21A C20A 1_555 1_555
H12A C21A 1_555 1_555
C22A C21A 1_555 1_555
H13A C22A 1_555 1_555
C23A C22A 1_555 1_555
H14A C23A 1_555 1_555
C24A C19A 1_555 1_555
C25A N2A 1_555 1_555
C26A C18A 1_555 1_555
H15A C26A 1_555 1_555
C27A C25A 1_555 1_555
C28A C27A 1_555 1_555
H16A C28A 1_555 1_555
C29A C28A 1_555 1_555
H17A C29A 1_555 1_555
C30A C29A 1_555 1_555
H18A C30A 1_555 1_555
C31A C30A 1_555 1_555
H19A C31A 1_555 1_555
C32A C27A 1_555 1_555
H20A C32A 1_555 1_555
Cd1_2 O2A 1_555 1_555
Cd1_3 O4A 1_555 1_555
Cd1A_2 O4 1_555 1_555
Cd1A_3 O2 1_555 1_555
Cd1A_4 N3A 1_555 1_555
O2_2 Cd1A 1_555 1_555
O2A_2 Cd1 1_555 1_555
O4_2 Cd1A 1_555 1_555
O4A_2 Cd1 1_555 1_555
N3A_2 Cd1A 1_555 1_555
C7 C8 1_555 1_555
C9 C10 1_555 1_555
C15 C16 1_555 1_555
C23 C24 1_555 1_555
C25 C26 1_555 1_555
C31 C32 1_555 1_555
C36 C37 1_555 1_555
C41 C42 1_555 1_555
C34A C35A 1_555 1_555
C36A C37A 1_555 1_555
C39A C40A 1_555 1_555
C41A C42A 1_555 1_555
C7A C8A 1_555 1_555
C9A C10A 1_555 1_555
C15A C16A 1_555 1_555
C23A C24A 1_555 1_555
C25A C26A 1_555 1_555
C31A C32A 1_555 1_555

#END
