
#######################################################################
#
#                 Cambridge Crystallographic Data Centre
#                                CCDC 
#
#######################################################################
#
# If this CIF has been generated from an entry in the Cambridge 
# Structural Database, then it will include bibliographic, chemical, 
# crystal, experimental, refinement or atomic coordinate data resulting 
# from the CCDC's data processing and validation procedures.
#
#######################################################################

data_GIQCOZ
_symmetry_cell_setting           triclinic
_symmetry_space_group_name_H-M   'P -1'
_symmetry_Int_Tables_number      2
_space_group_name_Hall           '-P 1'
loop_
_symmetry_equiv_pos_site_id
_symmetry_equiv_pos_as_xyz
1 x,y,z
2 -x,-y,-z
_cell_length_a                   10.5710(6)
_cell_length_b                   11.7370(6)
_cell_length_c                   16.6140(9)
_cell_angle_alpha                78.773(2)
_cell_angle_beta                 86.208(3)
_cell_angle_gamma                82.351(2)
_cell_volume                     2002.18
loop_
_atom_site_label
_atom_site_type_symbol
_atom_site_fract_x
_atom_site_fract_y
_atom_site_fract_z
Zn1 Zn 0.53217(3) 0.55468(3) 0.773203(19)
Mo1 Mo 0.97643(2) 0.39018(2) 0.815348(14)
Mo2 Mo 0.99331(2) 0.251132(19) 1.004588(14)
Mo3 Mo 0.853995(19) 0.486852(19) 1.059148(13)
Mo4 Mo 0.83394(2) 0.627339(19) 0.873637(13)
C1 C 0.7434(3) 0.4909(3) 0.65061(18)
H1 H 0.7252 0.4141 0.6586
C2 C 0.7374(2) 0.6667(3) 0.66439(16)
H2 H 0.7172 0.7380 0.6815
C3 C 0.9083(3) 0.7234(3) 0.55805(19)
H3 H 0.8727 0.8033 0.5602
H4 H 0.9085 0.7136 0.5014
C4 C 1.4399(3) 0.5723(3) 0.58970(18)
H5 H 1.5223 0.5814 0.5683
C5 C 1.2877(2) 0.5376(2) 0.67437(16)
H6 H 1.2378 0.5182 0.7221
C6 C 1.1121(2) 0.5815(2) 0.57532(17)
H7 H 1.0660 0.5221 0.6090
H8 H 1.1097 0.5732 0.5185
C7 C 1.0471(3) 0.7040(3) 0.58538(17)
C8 C 1.1162(3) 0.8008(3) 0.5334(2)
C9 C 1.1289(3) 0.8152(3) 0.4479(2)
C10 C 1.1917(4) 0.9017(3) 0.3992(3)
H9 H 1.1974 0.9108 0.3422
C11 C 1.2446(4) 0.9729(3) 0.4397(3)
C12 C 1.2357(4) 0.9655(3) 0.5221(3)
H10 H 1.2738 1.0163 0.5467
C13 C 1.1681(4) 0.8797(3) 0.5694(3)
H11 H 1.1578 0.8757 0.6258
C14 C 0.3282(5) 0.7620(4) 0.7596(3)
H12 H 0.2928 0.7377 0.7170
C15 C 0.4507(3) 0.7686(2) 0.85050(17)
H13 H 0.5165 0.7531 0.8871
C16 C 0.3325(3) 0.9459(2) 0.89813(18)
H14 H 0.3545 0.9120 0.9542
H15 H 0.2421 0.9743 0.8984
C17 C 0.4089(2) 1.0493(2) 0.86643(16)
C18 C 0.3930(3) 1.1024(2) 0.77506(16)
C19 C 0.2737(3) 1.1351(2) 0.74171(18)
C20 C 0.2545(3) 1.1932(3) 0.6620(2)
H16 H 0.1730 1.2137 0.6418
C21 C 0.3607(3) 1.2193(3) 0.6142(2)
C22 C 0.4818(3) 1.1897(4) 0.6427(2)
H17 H 0.5525 1.2091 0.6090
C23 C 0.4964(3) 1.1301(3) 0.72280(19)
H18 H 0.5783 1.1080 0.7420
N1 N 0.6815(2) 0.5712(2) 0.69307(13)
N2 N 0.8262(2) 0.6446(2) 0.60762(14)
N3 N 0.8314(2) 0.5318(2) 0.59731(16)
N4 N 0.4381(2) 0.70680(19) 0.79383(15)
N5 N 0.3573(2) 0.85568(18) 0.84824(15)
N6 N 0.2755(4) 0.8520(3) 0.7906(3)
N7 N 1.4127(2) 0.54161(19) 0.67201(13)
N8 N 1.2439(2) 0.56491(19) 0.59947(13)
N9 N 1.3418(2) 0.5879(3) 0.54330(15)
O1 O 0.92753(17) 0.55880(16) 0.78947(11)
O2 O 0.8107(2) 0.76872(17) 0.82453(12)
O3 O 0.68865(17) 0.57778(17) 0.87016(12)
O4 O 0.93727(15) 0.45330(15) 0.94489(10)
O5 O 1.05318(18) 0.26335(16) 0.89350(11)
O6 O 0.8441(2) 0.21658(19) 0.99993(14)
O7 O 1.0801(2) 0.12649(18) 1.05038(14)
O8 O 0.82839(16) 0.64278(15) 0.98951(11)
O9 O 1.03890(16) 0.65976(15) 0.90452(11)
O10 O 0.71046(18) 0.44181(18) 1.05476(12)
O11 O 1.15369(16) 0.46334(16) 0.84758(11)
O12 O 0.53642(18) 1.00169(16) 0.88399(13)
H19 H 0.5838 1.0523 0.8687
O13 O 1.0504(2) 0.71590(18) 0.66809(13)
H20 H 1.0141 0.6645 0.6976
O14 O 1.0525(2) 0.36940(18) 0.72510(12)
O15 O 0.8291(2) 0.34717(19) 0.81379(14)
F1 F 1.3115(3) 1.0569(2) 0.3930(2)
F2 F 1.0783(2) 0.7411(2) 0.40926(12)
F3 F 0.16804(16) 1.11137(17) 0.78821(12)
F4 F 0.3449(2) 1.2764(3) 0.53550(13)
N10 N 0.4300(2) 1.24281(17) 0.90160(13)
C24 C 0.3588(2) 1.1419(2) 0.91911(16)
H21 H 0.2694 1.1680 0.9087
H22 H 0.3649 1.1064 0.9768
C25 C 0.4225(2) 1.3322(2) 0.83909(16)
H23 H 0.3668 1.3429 0.7965
N11 N 0.5206(3) 1.2552(2) 0.95274(15)
C26 C 0.5630(3) 1.3533(3) 0.91709(19)
H24 H 0.6264 1.3850 0.9385
N12 N 0.5060(2) 1.40427(18) 0.84610(13)
Zn1_2 Zn 1.53217(3) 0.55468(3) 0.773203(19)
Zn1_3 Zn 0.53217(3) 1.55468(3) 0.773203(19)
Zn1A Zn 1.46783(3) 0.44532(3) 1.226797(19)
Zn1_4 Zn -0.46783(3) 0.55468(3) 0.773203(19)
Zn1_5 Zn 0.53217(3) -0.44532(3) 0.773203(19)
Mo1A Mo 1.02357(2) 0.60982(2) 1.184652(14)
Mo2A Mo 1.00669(2) 0.748868(19) 0.995412(14)
Mo3A Mo 1.146005(19) 0.513148(19) 0.940852(13)
Mo4A Mo 1.16606(2) 0.372661(19) 1.126363(13)
C1_2 C -0.2566(3) 0.4909(3) 0.65061(18)
H1_2 H -0.2748 0.4141 0.6586
C2_2 C -0.2626(2) 0.6667(3) 0.66439(16)
H2_2 H -0.2828 0.7380 0.6815
C3_2 C -0.0917(3) 0.7234(3) 0.55805(19)
H3_2 H -0.1273 0.8033 0.5602
H4_2 H -0.0915 0.7136 0.5014
C4_2 C 0.4399(3) 0.5723(3) 0.58970(18)
H5_2 H 0.5223 0.5814 0.5683
C5_2 C 0.2877(2) 0.5376(2) 0.67437(16)
H6_2 H 0.2378 0.5182 0.7221
C6_2 C 0.1121(2) 0.5815(2) 0.57532(17)
H7_2 H 0.0660 0.5221 0.6090
H8_2 H 0.1097 0.5732 0.5185
C7_2 C 0.0471(3) 0.7040(3) 0.58538(17)
C8_2 C 0.1162(3) 0.8008(3) 0.5334(2)
C9_2 C 0.1289(3) 0.8152(3) 0.4479(2)
C10_2 C 0.1917(4) 0.9017(3) 0.3992(3)
H9_2 H 0.1974 0.9108 0.3422
C11_2 C 0.2446(4) 0.9729(3) 0.4397(3)
C12_2 C 0.2357(4) 0.9655(3) 0.5221(3)
H10_2 H 0.2738 1.0163 0.5467
C13_2 C 0.1681(4) 0.8797(3) 0.5694(3)
H11_2 H 0.1578 0.8757 0.6258
C14_2 C 0.3282(5) -0.2380(4) 0.7596(3)
H12_2 H 0.2928 -0.2623 0.7170
C15_2 C 0.4507(3) -0.2314(2) 0.85050(17)
H13_2 H 0.5165 -0.2469 0.8871
C16_2 C 0.3325(3) -0.0541(2) 0.89813(18)
H14_2 H 0.3545 -0.0880 0.9542
H15_2 H 0.2421 -0.0257 0.8984
C17_2 C 0.4089(2) 0.0493(2) 0.86643(16)
C18_2 C 0.3930(3) 0.1024(2) 0.77506(16)
C19_2 C 0.2737(3) 0.1351(2) 0.74171(18)
C20_2 C 0.2545(3) 0.1932(3) 0.6620(2)
H16_2 H 0.1730 0.2137 0.6418
C21_2 C 0.3607(3) 0.2193(3) 0.6142(2)
C22_2 C 0.4818(3) 0.1897(4) 0.6427(2)
H17_2 H 0.5525 0.2091 0.6090
C23_2 C 0.4964(3) 0.1301(3) 0.72280(19)
H18_2 H 0.5783 0.1080 0.7420
N1A N 1.3185(2) 0.4288(2) 1.30693(13)
N1_2 N -0.3185(2) 0.5712(2) 0.69307(13)
N2_2 N -0.1738(2) 0.6446(2) 0.60762(14)
N3_2 N -0.1686(2) 0.5318(2) 0.59731(16)
N4A N 1.5619(2) 0.29320(19) 1.20617(15)
N4_2 N 0.4381(2) -0.29320(19) 0.79383(15)
N5_2 N 0.3573(2) -0.14432(18) 0.84824(15)
N6_2 N 0.2755(4) -0.1480(3) 0.7906(3)
N7_2 N 0.4127(2) 0.54161(19) 0.67201(13)
N7A N 1.5873(2) 0.45839(19) 1.32799(13)
N8_2 N 0.2439(2) 0.56491(19) 0.59947(13)
N9_2 N 0.3418(2) 0.5879(3) 0.54330(15)
O1A O 1.07247(17) 0.44120(16) 1.21053(11)
O2A O 1.1893(2) 0.23128(17) 1.17547(12)
O3A O 1.31135(17) 0.42222(17) 1.12984(12)
O4A O 1.06273(15) 0.54670(15) 1.05511(10)
O5A O 0.94682(18) 0.73665(16) 1.10650(11)
O6A O 1.1559(2) 0.78342(19) 1.00007(14)
O7A O 0.9199(2) 0.87351(18) 0.94962(14)
O8A O 1.17161(16) 0.35722(15) 1.01049(11)
O9A O 0.96110(16) 0.34024(15) 1.09548(11)
O10A O 1.28954(18) 0.55819(18) 0.94524(12)
O11A O 0.84631(16) 0.53666(16) 1.15242(11)
O12_2 O 0.53642(18) 0.00169(16) 0.88399(13)
H19_2 H 0.5838 0.0523 0.8687
O13_2 O 0.0504(2) 0.71590(18) 0.66809(13)
H20_2 H 0.0141 0.6645 0.6976
O14A O 0.9475(2) 0.63060(18) 1.27490(12)
O15A O 1.1709(2) 0.65283(19) 1.18621(14)
F1_2 F 0.3115(3) 1.0569(2) 0.3930(2)
F2_2 F 0.0783(2) 0.7411(2) 0.40926(12)
F3_2 F 0.16804(16) 0.11137(17) 0.78821(12)
F4_2 F 0.3449(2) 0.2764(3) 0.53550(13)
N10_2 N 0.4300(2) 0.24281(17) 0.90160(13)
C24_2 C 0.3588(2) 0.1419(2) 0.91911(16)
H21_2 H 0.2694 0.1680 0.9087
H22_2 H 0.3649 0.1064 0.9768
C25_2 C 0.4225(2) 0.3322(2) 0.83909(16)
H23_2 H 0.3668 0.3429 0.7965
N11_2 N 0.5206(3) 0.2552(2) 0.95274(15)
C26_2 C 0.5630(3) 0.3533(3) 0.91709(19)
H24_2 H 0.6264 0.3850 0.9385
N12_2 N 0.5060(2) 0.40427(18) 0.84610(13)
N12A N 1.4940(2) 0.59573(18) 1.15390(13)
O16 O 0.7580(4) 0.1008(3) 0.8442(3)
H25 H 0.808(12) 0.112(12) 0.879(7)
H26 H 0.744(14) 0.167(7) 0.812(7)
O17 O 0.9706(9) 0.9553(8) 0.7568(5)
H27 H 0.955(15) 0.888(8) 0.794(6)
H28 H 0.933(15) 0.939(12) 0.712(5)
loop_
_geom_bond_atom_site_label_1
_geom_bond_atom_site_label_2
_geom_bond_site_symmetry_1
_geom_bond_site_symmetry_2
Zn1 N1 1_555 1_555
Mo1 O1 1_555 1_555
Mo2 O4 1_555 1_555
Mo3 O4 1_555 1_555
Mo4 O1 1_555 1_555
C1 H1 1_555 1_555
C2 H2 1_555 1_555
C3 H3 1_555 1_555
H4 C3 1_555 1_555
C4 H5 1_555 1_555
C5 H6 1_555 1_555
C6 H7 1_555 1_555
H8 C6 1_555 1_555
C7 C3 1_555 1_555
C8 C7 1_555 1_555
C9 C8 1_555 1_555
C10 C9 1_555 1_555
H9 C10 1_555 1_555
C11 C10 1_555 1_555
C12 C11 1_555 1_555
H10 C12 1_555 1_555
C13 C8 1_555 1_555
H11 C13 1_555 1_555
C14 H12 1_555 1_555
C15 H13 1_555 1_555
C16 H14 1_555 1_555
H15 C16 1_555 1_555
C17 C16 1_555 1_555
C18 C17 1_555 1_555
C19 C18 1_555 1_555
C20 C19 1_555 1_555
H16 C20 1_555 1_555
C21 C20 1_555 1_555
C22 C21 1_555 1_555
H17 C22 1_555 1_555
C23 C18 1_555 1_555
H18 C23 1_555 1_555
N1 C1 1_555 1_555
N2 C2 1_555 1_555
N3 C1 1_555 1_555
N4 Zn1 1_555 1_555
N5 C15 1_555 1_555
N6 C14 1_555 1_555
N7 C4 1_555 1_555
N8 C5 1_555 1_555
N9 C4 1_555 1_555
O2 Mo4 1_555 1_555
O3 Zn1 1_555 1_555
O4 Mo1 1_555 1_555
O5 Mo1 1_555 1_555
O6 Mo2 1_555 1_555
O7 Mo2 1_555 1_555
O8 Mo3 1_555 1_555
O9 Mo4 1_555 1_555
O10 Mo3 1_555 1_555
O11 Mo1 1_555 1_555
O12 C17 1_555 1_555
H19 O12 1_555 1_555
O13 C7 1_555 1_555
H20 O13 1_555 1_555
O14 Mo1 1_555 1_555
O15 Mo1 1_555 1_555
F1 C11 1_555 1_555
F2 C9 1_555 1_555
F3 C19 1_555 1_555
F4 C21 1_555 1_555
N10 C24 1_555 1_555
C24 C17 1_555 1_555
H21 C24 1_555 1_555
H22 C24 1_555 1_555
C25 N10 1_555 1_555
H23 C25 1_555 1_555
N11 N10 1_555 1_555
C26 N11 1_555 1_555
H24 C26 1_555 1_555
N12 C25 1_555 1_555
O16 H25 1_555 1_555
O17 H27 1_555 1_555
H26 O16 1_555 1_555
H28 O17 1_555 1_555
Zn1_2 N7 1_555 1_555
Zn1_3 N12 1_555 1_555
Zn1A N1A 1_555 1_555
Zn1_4 N1_2 1_555 1_555
Zn1_5 N4_2 1_555 1_555
Mo1A O1A 1_555 1_555
Mo2A O8 1_555 1_555
Mo3A O4 1_555 1_555
Mo4A O1A 1_555 1_555
C1_2 H1_2 1_555 1_555
C2_2 H2_2 1_555 1_555
C3_2 H3_2 1_555 1_555
H4_2 C3_2 1_555 1_555
C4_2 H5_2 1_555 1_555
C5_2 H6_2 1_555 1_555
C6_2 H7_2 1_555 1_555
H8_2 C6_2 1_555 1_555
C7_2 C3_2 1_555 1_555
C8_2 C7_2 1_555 1_555
C9_2 C8_2 1_555 1_555
C10_2 C9_2 1_555 1_555
H9_2 C10_2 1_555 1_555
C11_2 C10_2 1_555 1_555
C12_2 C11_2 1_555 1_555
H10_2 C12_2 1_555 1_555
C13_2 C8_2 1_555 1_555
H11_2 C13_2 1_555 1_555
C14_2 H12_2 1_555 1_555
C15_2 H13_2 1_555 1_555
C16_2 H14_2 1_555 1_555
H15_2 C16_2 1_555 1_555
C17_2 C16_2 1_555 1_555
C18_2 C17_2 1_555 1_555
C19_2 C18_2 1_555 1_555
C20_2 C19_2 1_555 1_555
H16_2 C20_2 1_555 1_555
C21_2 C20_2 1_555 1_555
C22_2 C21_2 1_555 1_555
H17_2 C22_2 1_555 1_555
C23_2 C18_2 1_555 1_555
H18_2 C23_2 1_555 1_555
N1_2 C1_2 1_555 1_555
N2_2 C2_2 1_555 1_555
N3_2 C1_2 1_555 1_555
N4A Zn1A 1_555 1_555
N4_2 C14_2 1_555 1_555
N5_2 C15_2 1_555 1_555
N6_2 C14_2 1_555 1_555
N7_2 Zn1 1_555 1_555
N7A Zn1A 1_555 1_555
N8_2 C5_2 1_555 1_555
N9_2 C4_2 1_555 1_555
O2A Mo4A 1_555 1_555
O3A Zn1A 1_555 1_555
O4A Mo3 1_555 1_555
O5A Mo1A 1_555 1_555
O6A Mo2A 1_555 1_555
O7A Mo2A 1_555 1_555
O8A Mo2 1_555 1_555
O9A Mo2 1_555 1_555
O10A Mo3A 1_555 1_555
O11A Mo3 1_555 1_555
O12_2 C17_2 1_555 1_555
H19_2 O12_2 1_555 1_555
O13_2 C7_2 1_555 1_555
H20_2 O13_2 1_555 1_555
O14A Mo1A 1_555 1_555
O15A Mo1A 1_555 1_555
F1_2 C11_2 1_555 1_555
F2_2 C9_2 1_555 1_555
F3_2 C19_2 1_555 1_555
F4_2 C21_2 1_555 1_555
N10_2 C24_2 1_555 1_555
C24_2 C17_2 1_555 1_555
H21_2 C24_2 1_555 1_555
H22_2 C24_2 1_555 1_555
C25_2 N10_2 1_555 1_555
H23_2 C25_2 1_555 1_555
N11_2 N10_2 1_555 1_555
C26_2 N11_2 1_555 1_555
H24_2 C26_2 1_555 1_555
N12_2 Zn1 1_555 1_555
N12A Zn1A 1_555 1_555
Mo2 O5 1_555 1_555
Mo3 O9A 1_555 1_555
Mo4 O3 1_555 1_555
Mo4 O4 1_555 1_555
Mo4 O8 1_555 1_555
C2 N1 1_555 1_555
C3 N2 1_555 1_555
C5 N7 1_555 1_555
C6 C7 1_555 1_555
C6 N8 1_555 1_555
C12 C13 1_555 1_555
C14 N4 1_555 1_555
C15 N4 1_555 1_555
C16 N5 1_555 1_555
C22 C23 1_555 1_555
N2 N3 1_555 1_555
N5 N6 1_555 1_555
N8 N9 1_555 1_555
O9 Mo2A 1_555 1_555
O9 Mo3A 1_555 1_555
O11 Mo3A 1_555 1_555
C26 N12 1_555 1_555
Mo1A O4A 1_555 1_555
Mo1A O11A 1_555 1_555
Mo2A O4A 1_555 1_555
Mo2A O5A 1_555 1_555
Mo3A O4A 1_555 1_555
Mo3A O8A 1_555 1_555
Mo4A O3A 1_555 1_555
Mo4A O4A 1_555 1_555
Mo4A O8A 1_555 1_555
Mo4A O9A 1_555 1_555
C2_2 N1_2 1_555 1_555
C3_2 N2_2 1_555 1_555
C4_2 N7_2 1_555 1_555
C5_2 N7_2 1_555 1_555
C6_2 C7_2 1_555 1_555
C6_2 N8_2 1_555 1_555
C12_2 C13_2 1_555 1_555
C15_2 N4_2 1_555 1_555
C16_2 N5_2 1_555 1_555
C22_2 C23_2 1_555 1_555
N2_2 N3_2 1_555 1_555
N5_2 N6_2 1_555 1_555
N8_2 N9_2 1_555 1_555
C25_2 N12_2 1_555 1_555
C26_2 N12_2 1_555 1_555

#END
