
#######################################################################
#
#                 Cambridge Crystallographic Data Centre
#                                CCDC 
#
#######################################################################
#
# If this CIF has been generated from an entry in the Cambridge 
# Structural Database, then it will include bibliographic, chemical, 
# crystal, experimental, refinement or atomic coordinate data resulting 
# from the CCDC's data processing and validation procedures.
#
#######################################################################

data_GIQCUF
_symmetry_cell_setting           triclinic
_symmetry_space_group_name_H-M   'P -1'
_symmetry_Int_Tables_number      2
_space_group_name_Hall           '-P 1'
loop_
_symmetry_equiv_pos_site_id
_symmetry_equiv_pos_as_xyz
1 x,y,z
2 -x,-y,-z
_cell_length_a                   12.0420(9)
_cell_length_b                   12.1740(9)
_cell_length_c                   15.0410(12)
_cell_angle_alpha                100.4560(10)
_cell_angle_beta                 94.4650(10)
_cell_angle_gamma                111.1900(10)
_cell_volume                     1996.88
loop_
_atom_site_label
_atom_site_type_symbol
_atom_site_fract_x
_atom_site_fract_y
_atom_site_fract_z
Cu1 Cu 0.0000 -0.5000 0.5000
Cu2 Cu 0.0000 0.0000 0.0000
Mo1 Mo -0.04823(3) 0.08843(3) 0.58593(2)
Mo2 Mo 0.24688(3) 0.09743(4) 0.58631(3)
Mo3 Mo 0.08516(4) -0.03279(3) 0.73201(2)
Mo4 Mo -0.11025(3) -0.21965(3) 0.55349(2)
C1 C 0.7885(4) -0.2435(5) 0.9545(4)
H1 H 0.8044 -0.2599 1.0111
C2 C 0.8010(4) -0.1487(5) 0.8494(3)
H2 H 0.8224 -0.0906 0.8146
C3 C 0.6525(5) -0.3182(7) 0.7292(4)
H3 H 0.6490 -0.4004 0.7149
H4 H 0.6972 -0.2757 0.6866
C4 C 0.5255(5) -0.3206(6) 0.7169(4)
C5 C 0.4328(5) -0.4047(5) 0.7655(4)
C6 C 0.3505(5) -0.3658(6) 0.8033(4)
H5 H 0.3577 -0.2865 0.8059
C7 C 0.2571(6) -0.4413(6) 0.8374(4)
H6 H 0.2002 -0.4147 0.8617
C8 C 0.2499(5) -0.5563(6) 0.8347(4)
C9 C 0.3280(5) -0.6014(5) 0.7993(5)
H7 H 0.3215 -0.6802 0.7981
C10 C 0.4186(5) -0.5214(6) 0.7647(5)
C11 C 0.4795(5) -0.3673(6) 0.6090(4)
H8 H 0.5362 -0.3169 0.5764
H9 H 0.4743 -0.4497 0.5892
C12 C 0.2552(5) -0.4489(5) 0.5735(4)
H10 H 0.2402 -0.5299 0.5715
C13 C 0.2350(5) -0.2839(5) 0.5732(3)
H11 H 0.1991 -0.2286 0.5696
C14 C 0.1566(5) -0.4118(5) 0.3579(3)
H12 H 0.2091 -0.3416 0.3986
C15 C 0.0132(5) -0.5739(5) 0.2963(3)
H13 H -0.0582 -0.6413 0.2880
C16 C 0.2709(5) -0.3878(5) 0.2256(3)
H14 H 0.2821 -0.4487 0.1800
H15 H 0.3447 -0.3479 0.2694
C17 C 0.2480(4) -0.2937(4) 0.1783(3)
C18 C 0.1333(4) -0.3527(4) 0.1083(3)
H16 H 0.1386 -0.4195 0.0650
H17 H 0.0649 -0.3850 0.1392
C19 C 0.0709(4) -0.1815(4) 0.0842(3)
H18 H 0.0445 -0.1658 0.1399
C20 C 0.1175(5) -0.1783(5) -0.0477(3)
H19 H 0.1287 -0.1558 -0.1032
C21 C 0.3585(4) -0.2317(4) 0.1361(3)
C22 C 0.4034(5) -0.2950(5) 0.0724(4)
C23 C 0.5014(6) -0.2415(6) 0.0321(5)
H20 H 0.5285 -0.2871 -0.0108
C24 C 0.5572(6) -0.1193(7) 0.0574(6)
C25 C 0.5197(7) -0.0517(6) 0.1199(7)
H21 H 0.5601 0.0318 0.1369
C26 C 0.4198(6) -0.1093(6) 0.1583(5)
H22 H 0.3934 -0.0627 0.2010
O1 O -0.0730(3) -0.0089(3) 0.1550(2)
O2 O 0.1565(4) -0.1297(3) 0.7312(2)
O3 O -0.0200(3) 0.0834(3) 0.70058(19)
O4 O 0.0513(2) -0.0461(2) 0.56327(18)
O5 O -0.1253(3) 0.1793(3) 0.5845(2)
O6 O -0.1821(2) -0.0692(3) 0.54675(19)
O7 O -0.1122(2) -0.1935(2) 0.42565(18)
O8 O 0.3620(3) 0.2319(4) 0.5988(3)
O9 O 0.3121(3) -0.0059(4) 0.5720(2)
O10 O -0.0298(3) -0.3106(3) 0.5371(2)
O11 O -0.0744(3) -0.1537(3) 0.6809(2)
O12 O -0.2563(3) -0.3171(3) 0.5436(2)
O13 O 0.5326(4) -0.2000(4) 0.7495(3)
H23 H 0.5745 -0.1554 0.7199
O14 O 0.2231(3) -0.2088(3) 0.2434(2)
H24 H 0.2819 -0.1725 0.2836
O15 O 0.2112(3) 0.1019(3) 0.7076(2)
N1 N 0.3529(4) -0.2529(4) 0.5903(3)
N2 N 0.1713(4) -0.4045(4) 0.5615(3)
N3 N 0.3625(4) -0.3625(4) 0.5887(3)
N4 N 0.7157(4) -0.2593(5) 0.8221(3)
N5 N 0.7058(4) -0.3219(4) 0.8888(4)
N6 N 0.8500(3) -0.1356(3) 0.9339(3)
N7 N 0.1716(4) -0.4477(4) 0.2733(3)
N8 N 0.0574(4) -0.4883(3) 0.3771(2)
N9 N 0.0797(5) -0.5529(4) 0.2322(3)
N10 N 0.1141(3) -0.2662(3) 0.0588(2)
N11 N 0.0710(3) -0.1230(3) 0.0183(2)
N12 N 0.1450(4) -0.2655(4) -0.0260(3)
F1 F 0.3476(3) -0.4174(3) 0.0466(2)
F2 F 0.6559(4) -0.0640(4) 0.0204(5)
F3 F 0.5002(4) -0.5601(4) 0.7291(4)
F4 F 0.1587(4) -0.6292(4) 0.8703(3)
Cu1_2 Cu 0.0000 0.5000 0.5000
Cu2_2 Cu 1.0000 0.0000 1.0000
Cu2_3 Cu -1.0000 -1.0000 0.0000
Cu2_4 Cu 0.0000 -1.0000 1.0000
Cu2_5 Cu 0.0000 0.0000 1.0000
Mo1A Mo 0.04823(3) -0.08843(3) 0.41407(2)
Mo2A Mo -0.24688(3) -0.09743(4) 0.41369(3)
Mo3A Mo -0.08516(4) 0.03279(3) 0.26799(2)
Mo4A Mo 0.11025(3) 0.21965(3) 0.44651(2)
C1A C -0.7885(4) -0.7565(5) 0.0455(4)
H1A H -0.8044 -0.7401 -0.0111
C2A C -0.8010(4) -0.8513(5) 0.1506(3)
H2A H -0.8224 -0.9094 0.1854
C3A C -0.6525(5) -0.6818(7) 0.2708(4)
H3A H -0.6490 -0.5996 0.2851
H4A H -0.6972 -0.7243 0.3134
C4A C -0.5255(5) -0.6794(6) 0.2831(4)
C5A C -0.4328(5) -0.5953(5) 0.2345(4)
C6A C -0.3505(5) -0.6342(6) 0.1967(4)
H5A H -0.3577 -0.7135 0.1941
C7A C -0.2571(6) -0.5587(6) 0.1626(4)
H6A H -0.2002 -0.5853 0.1383
C8A C -0.2499(5) -0.4437(6) 0.1653(4)
C9A C -0.3280(5) -0.3986(5) 0.2007(5)
H7A H -0.3215 -0.3198 0.2019
C10A C -0.4186(5) -0.4786(6) 0.2353(5)
C11A C -0.4795(5) -0.6327(6) 0.3910(4)
H8A H -0.5362 -0.6831 0.4236
H9A H -0.4743 -0.5503 0.4108
C12A C -0.2552(5) -0.5511(5) 0.4265(4)
H10A H -0.2402 -0.4701 0.4285
C13A C -0.2350(5) -0.7161(5) 0.4268(3)
H11A H -0.1991 -0.7714 0.4304
C14A C -0.1566(5) -0.5882(5) 0.6421(3)
H12A H -0.2091 -0.6584 0.6014
C15A C -0.0132(5) -0.4261(5) 0.7037(3)
H13A H 0.0582 -0.3587 0.7120
C16A C -0.2709(5) -0.6122(5) 0.7744(3)
H14A H -0.2821 -0.5513 0.8200
H15A H -0.3447 -0.6521 0.7306
C17A C -0.2480(4) -0.7063(4) 0.8217(3)
C18A C -0.1333(4) -0.6473(4) 0.8917(3)
H16A H -0.1386 -0.5805 0.9350
H17A H -0.0649 -0.6150 0.8608
C19A C -0.0709(4) -0.8185(4) 0.9158(3)
H18A H -0.0445 -0.8342 0.8601
C20A C -0.1175(5) -0.8217(5) 1.0477(3)
H19A H -0.1287 -0.8442 1.1032
C21A C -0.3585(4) -0.7683(4) 0.8639(3)
C22A C -0.4034(5) -0.7050(5) 0.9276(4)
C23A C -0.5014(6) -0.7585(6) 0.9679(5)
H20A H -0.5285 -0.7129 1.0108
C24A C -0.5572(6) -0.8807(7) 0.9426(6)
C25A C -0.5197(7) -0.9483(6) 0.8801(7)
H21A H -0.5601 -1.0318 0.8631
C26A C -0.4198(6) -0.8907(6) 0.8417(5)
H22A H -0.3934 -0.9373 0.7990
O1A O 0.0730(3) 0.0089(3) -0.1550(2)
O1A_2 O 0.0730(3) 0.0089(3) 0.8450(2)
O2A O -0.1565(4) 0.1297(3) 0.2688(2)
O3A O 0.0200(3) -0.0834(3) 0.29942(19)
O4A O -0.0513(2) 0.0461(2) 0.43673(18)
O5A O 0.1253(3) -0.1793(3) 0.4155(2)
O6A O 0.1821(2) 0.0692(3) 0.45325(19)
O7A O 0.1122(2) 0.1935(2) 0.57435(18)
O8A O -0.3620(3) -0.2319(4) 0.4012(3)
O9A O -0.3121(3) 0.0059(4) 0.4280(2)
O10A O 0.0298(3) -0.6894(3) 0.4629(2)
O10A_2 O 0.0298(3) 0.3106(3) 0.4629(2)
O11A O 0.0744(3) 0.1537(3) 0.3191(2)
O12A O 0.2563(3) 0.3171(3) 0.4564(2)
O13A O -0.5326(4) -0.8000(4) 0.2505(3)
H23A H -0.5745 -0.8446 0.2801
O14A O -0.2231(3) -0.7912(3) 0.7566(2)
H24A H -0.2819 -0.8275 0.7164
O15A O -0.2112(3) -0.1019(3) 0.2924(2)
N1A N -0.3529(4) -0.7471(4) 0.4097(3)
N2A N -0.1713(4) -0.5955(4) 0.4385(3)
N3A N -0.3625(4) -0.6375(4) 0.4113(3)
N4A N -0.7157(4) -0.7407(5) 0.1779(3)
N5A N -0.7058(4) -0.6781(4) 0.1112(4)
N6A N -0.8500(3) -0.8644(3) 0.0661(3)
N6_2 N -0.1500(3) -0.1356(3) -0.0661(3)
N6A_2 N 0.1500(3) 0.1356(3) 0.0661(3)
N7A N -0.1716(4) -0.5523(4) 0.7267(3)
N8A N -0.0574(4) -0.5117(3) 0.6229(2)
N9A N -0.0797(5) -0.4471(4) 0.7678(3)
N10A N -0.1141(3) -0.7338(3) 0.9412(2)
N11A N -0.0710(3) -0.8770(3) 0.9817(2)
N11A_2 N -0.0710(3) 0.1230(3) -0.0183(2)
N12A N -0.1450(4) -0.7345(4) 1.0260(3)
F1A F -0.3476(3) -0.5826(3) 0.9534(2)
F2A F -0.6559(4) -0.9360(4) 0.9796(5)
F3A F -0.5002(4) -0.4399(4) 0.2709(4)
F4A F -0.1587(4) -0.3708(4) 0.1297(3)
O16 O 0.4055(5) -0.1343(8) 0.4069(4)
H25 H 0.476(4) -0.116(11) 0.392(7)
H26 H 0.414(9) -0.117(12) 0.4657(15)
O17 O 0.6203(13) -0.0580(10) 0.6339(9)
H27 H 0.576(17) -0.119(7) 0.589(2)
H28 H 0.688(9) -0.027(17) 0.613(12)
loop_
_geom_bond_atom_site_label_1
_geom_bond_atom_site_label_2
_geom_bond_site_symmetry_1
_geom_bond_site_symmetry_2
Cu1 O10 1_555 1_555
Cu2 O1 1_555 1_555
Mo1 O3 1_555 1_555
Mo2 O4 1_555 1_555
Mo3 O2 1_555 1_555
Mo4 O4 1_555 1_555
C1 H1 1_555 1_555
C2 H2 1_555 1_555
C3 H3 1_555 1_555
H4 C3 1_555 1_555
C4 C3 1_555 1_555
C5 C4 1_555 1_555
C6 C5 1_555 1_555
H5 C6 1_555 1_555
C7 C6 1_555 1_555
H6 C7 1_555 1_555
C8 C7 1_555 1_555
C9 C8 1_555 1_555
H7 C9 1_555 1_555
C10 C5 1_555 1_555
C11 C4 1_555 1_555
H8 C11 1_555 1_555
H9 C11 1_555 1_555
C12 H10 1_555 1_555
C13 H11 1_555 1_555
C14 H12 1_555 1_555
C15 H13 1_555 1_555
C16 H14 1_555 1_555
H15 C16 1_555 1_555
C17 C16 1_555 1_555
C18 C17 1_555 1_555
H16 C18 1_555 1_555
H17 C18 1_555 1_555
C19 H18 1_555 1_555
C20 H19 1_555 1_555
C21 C17 1_555 1_555
C22 C21 1_555 1_555
C23 C22 1_555 1_555
H20 C23 1_555 1_555
C24 C23 1_555 1_555
C25 C24 1_555 1_555
H21 C25 1_555 1_555
C26 C21 1_555 1_555
H22 C26 1_555 1_555
O1 Mo3A 1_555 1_555
O3 Mo3 1_555 1_555
O4 Mo1 1_555 1_555
O5 Mo1 1_555 1_555
O6 Mo1 1_555 1_555
O7 Mo4 1_555 1_555
O8 Mo2 1_555 1_555
O9 Mo2 1_555 1_555
O10 Mo4 1_555 1_555
O11 Mo3 1_555 1_555
O12 Mo4 1_555 1_555
O13 C4 1_555 1_555
H23 O13 1_555 1_555
O14 C17 1_555 1_555
H24 O14 1_555 1_555
O15 Mo2 1_555 1_555
N1 C13 1_555 1_555
N2 Cu1 1_555 1_555
N3 C11 1_555 1_555
N4 C2 1_555 1_555
N5 C1 1_555 1_555
N6 C1 1_555 1_555
N7 C14 1_555 1_555
N8 Cu1 1_555 1_555
N9 C15 1_555 1_555
N10 C18 1_555 1_555
N11 Cu2 1_555 1_555
N12 C20 1_555 1_555
F1 C22 1_555 1_555
F2 C24 1_555 1_555
F3 C10 1_555 1_555
F4 C8 1_555 1_555
O16 H25 1_555 1_555
H26 O16 1_555 1_555
O17 H27 1_555 1_555
H28 O17 1_555 1_555
Cu1_2 O10A_2 1_555 1_555
Cu2_2 N6 1_555 1_555
Cu2_3 N6A 1_555 1_555
Cu2_4 N11A 1_555 1_555
Cu2_5 O1A_2 1_555 1_555
Mo1A O4 1_555 1_555
Mo2A O6 1_555 1_555
Mo3A O2A 1_555 1_555
Mo4A O4A 1_555 1_555
C1A H1A 1_555 1_555
C2A H2A 1_555 1_555
C3A H3A 1_555 1_555
H4A C3A 1_555 1_555
C4A C3A 1_555 1_555
C5A C4A 1_555 1_555
C6A C5A 1_555 1_555
H5A C6A 1_555 1_555
C7A C6A 1_555 1_555
H6A C7A 1_555 1_555
C8A C7A 1_555 1_555
C9A C8A 1_555 1_555
H7A C9A 1_555 1_555
C10A C5A 1_555 1_555
C11A C4A 1_555 1_555
H8A C11A 1_555 1_555
H9A C11A 1_555 1_555
C12A H10A 1_555 1_555
C13A H11A 1_555 1_555
C14A H12A 1_555 1_555
C15A H13A 1_555 1_555
C16A H14A 1_555 1_555
H15A C16A 1_555 1_555
C17A C16A 1_555 1_555
C18A C17A 1_555 1_555
H16A C18A 1_555 1_555
H17A C18A 1_555 1_555
C19A H18A 1_555 1_555
C20A H19A 1_555 1_555
C21A C17A 1_555 1_555
C22A C21A 1_555 1_555
C23A C22A 1_555 1_555
H20A C23A 1_555 1_555
C24A C23A 1_555 1_555
C25A C24A 1_555 1_555
H21A C25A 1_555 1_555
C26A C21A 1_555 1_555
H22A C26A 1_555 1_555
O1A Cu2 1_555 1_555
O1A_2 Mo3 1_555 1_555
O3A Mo1A 1_555 1_555
O4A Mo1 1_555 1_555
O5A Mo1A 1_555 1_555
O6A Mo2 1_555 1_555
O7A Mo1 1_555 1_555
O8A Mo2A 1_555 1_555
O9A Mo2A 1_555 1_555
O10A Cu1 1_555 1_555
O10A_2 Mo4A 1_555 1_555
O11A Mo3A 1_555 1_555
O12A Mo4A 1_555 1_555
O13A C4A 1_555 1_555
H23A O13A 1_555 1_555
O14A C17A 1_555 1_555
H24A O14A 1_555 1_555
O15A Mo2A 1_555 1_555
N1A C13A 1_555 1_555
N2A Cu1 1_555 1_555
N3A C11A 1_555 1_555
N4A C2A 1_555 1_555
N5A C1A 1_555 1_555
N6A C1A 1_555 1_555
N6_2 Cu2 1_555 1_555
N6A_2 Cu2 1_555 1_555
N7A C14A 1_555 1_555
N8A Cu1 1_555 1_555
N9A C15A 1_555 1_555
N10A C18A 1_555 1_555
N11A C19A 1_555 1_555
N11A_2 Cu2 1_555 1_555
N12A C20A 1_555 1_555
F1A C22A 1_555 1_555
F2A C24A 1_555 1_555
F3A C10A 1_555 1_555
F4A C8A 1_555 1_555
Mo2 O7A 1_555 1_555
Mo3 O4 1_555 1_555
Mo3 O15 1_555 1_555
Mo4 O6 1_555 1_555
Mo4 O11 1_555 1_555
C2 N6 1_555 1_555
C3 N4 1_555 1_555
C9 C10 1_555 1_555
C12 N2 1_555 1_555
C12 N3 1_555 1_555
C13 N2 1_555 1_555
C14 N8 1_555 1_555
C15 N8 1_555 1_555
C16 N7 1_555 1_555
C19 N10 1_555 1_555
C19 N11 1_555 1_555
C20 N11 1_555 1_555
C25 C26 1_555 1_555
O7 Mo1A 1_555 1_555
O7 Mo2A 1_555 1_555
N1 N3 1_555 1_555
N4 N5 1_555 1_555
N7 N9 1_555 1_555
N10 N12 1_555 1_555
Mo1A O4A 1_555 1_555
Mo1A O6A 1_555 1_555
Mo2A O4A 1_555 1_555
Mo3A O3A 1_555 1_555
Mo3A O4A 1_555 1_555
Mo3A O15A 1_555 1_555
Mo4A O6A 1_555 1_555
Mo4A O7A 1_555 1_555
Mo4A O11A 1_555 1_555
C2A N6A 1_555 1_555
C3A N4A 1_555 1_555
C9A C10A 1_555 1_555
C12A N2A 1_555 1_555
C12A N3A 1_555 1_555
C13A N2A 1_555 1_555
C14A N8A 1_555 1_555
C15A N8A 1_555 1_555
C16A N7A 1_555 1_555
C19A N10A 1_555 1_555
C20A N11A 1_555 1_555
C25A C26A 1_555 1_555
N1A N3A 1_555 1_555
N4A N5A 1_555 1_555
N7A N9A 1_555 1_555
N10A N12A 1_555 1_555

#END
