
#######################################################################
#
#                 Cambridge Crystallographic Data Centre
#                                CCDC 
#
#######################################################################
#
# If this CIF has been generated from an entry in the Cambridge 
# Structural Database, then it will include bibliographic, chemical, 
# crystal, experimental, refinement or atomic coordinate data resulting 
# from the CCDC's data processing and validation procedures.
#
#######################################################################

data_GIQCUG
_symmetry_cell_setting           triclinic
_symmetry_space_group_name_H-M   'P -1'
_symmetry_Int_Tables_number      2
_space_group_name_Hall           '-P 1'
loop_
_symmetry_equiv_pos_site_id
_symmetry_equiv_pos_as_xyz
1 x,y,z
2 -x,-y,-z
_cell_length_a                   9.2173(5)
_cell_length_b                   10.7764(6)
_cell_length_c                   10.8878(6)
_cell_angle_alpha                74.2330(10)
_cell_angle_beta                 67.2130(10)
_cell_angle_gamma                67.4320(10)
_cell_volume                     911.045
loop_
_atom_site_label
_atom_site_type_symbol
_atom_site_fract_x
_atom_site_fract_y
_atom_site_fract_z
O1 O 0.49499(17) 0.42413(13) 0.22674(14)
N1 N 1.4345(2) -0.18418(16) -0.14293(17)
C1 C 1.3719(3) -0.1117(2) -0.0420(2)
H1 H 1.4128 -0.1464 0.0304
C2 C 1.3766(3) -0.1299(2) -0.2477(2)
H2 H 1.4203 -0.1779 -0.3200
Cu1 Cu 0.61509(3) 0.63370(2) -0.14362(2)
O2 O 0.76398(17) 0.72637(14) -0.13336(15)
O3 O 0.8223(2) 0.74730(19) -0.34903(17)
O4 O 0.9507(2) 0.81859(17) -0.26568(19)
O5 O 0.53963(19) 0.60420(14) 0.07668(14)
O6 O 0.4367(2) 0.78109(15) 0.26625(17)
N2 N 0.80542(19) 0.45495(16) -0.15412(16)
N3 N 0.6073(2) 0.71350(19) 0.3971(2)
N4 N 0.8491(2) 0.76484(17) -0.25299(19)
C3 C 0.8957(3) 0.4172(2) -0.0712(2)
H3 H 0.8738 0.4770 -0.0140
C4 C 1.0189(3) 0.2948(2) -0.0659(2)
H4 H 1.0778 0.2738 -0.0063
C5 C 1.0554(2) 0.20228(19) -0.1496(2)
C6 C 0.9635(3) 0.2431(2) -0.2374(2)
H5 H 0.9842 0.1860 -0.2968
C7 C 0.8426(2) 0.3672(2) -0.2366(2)
H6 H 0.7833 0.3915 -0.2965
C8 C 1.1860(2) 0.06880(19) -0.1466(2)
C9 C 1.2494(3) 0.0124(2) -0.0401(2)
H7 H 1.2089 0.0586 0.0330
C10 C 1.2558(3) -0.0065(2) -0.2529(2)
H8 H 1.2201 0.0273 -0.3281
C11 C 0.5441(2) 0.52830(18) 0.18338(19)
C12 C 0.6102(2) 0.55611(19) 0.27582(19)
C13 C 0.7284(3) 0.4556(2) 0.3267(2)
H9 H 0.7675 0.3683 0.3049
C14 C 0.7887(3) 0.4848(3) 0.4104(2)
H10 H 0.8704 0.4187 0.4437
C15 C 0.7252(3) 0.6133(3) 0.4427(2)
H11 H 0.7654 0.6328 0.4991
C16 C 0.5549(3) 0.6845(2) 0.3152(2)
C17 C 0.3589(3) 0.9087(2) 0.3180(3)
H12 H 0.3106 0.9780 0.2541
H13 H 0.4419 0.9358 0.3286
C18 C 0.2277(4) 0.8985(3) 0.4497(3)
H14 H 0.1557 0.8575 0.4429
H15 H 0.1647 0.9877 0.4740
H16 H 0.2779 0.8438 0.5172
O1A O 0.50501(17) 0.57587(13) -0.22674(14)
N1_2 N 0.4345(2) 0.81582(16) -0.14293(17)
Cu1_2 Cu 1.61509(3) -0.36630(2) -0.14362(2)
Cu1A Cu 0.38491(3) 0.36630(2) 0.14362(2)
loop_
_geom_bond_atom_site_label_1
_geom_bond_atom_site_label_2
_geom_bond_site_symmetry_1
_geom_bond_site_symmetry_2
O1 C11 1_555 1_555
N1 C1 1_555 1_555
C1 H1 1_555 1_555
C2 N1 1_555 1_555
H2 C2 1_555 1_555
Cu1 O2 1_555 1_555
O2 N4 1_555 1_555
O3 Cu1 1_555 1_555
O4 N4 1_555 1_555
O5 Cu1 1_555 1_555
O6 C16 1_555 1_555
N2 Cu1 1_555 1_555
N3 C15 1_555 1_555
N4 O3 1_555 1_555
C3 N2 1_555 1_555
H3 C3 1_555 1_555
C4 C3 1_555 1_555
H4 C4 1_555 1_555
C5 C4 1_555 1_555
C6 C5 1_555 1_555
H5 C6 1_555 1_555
C7 N2 1_555 1_555
H6 C7 1_555 1_555
C8 C5 1_555 1_555
C9 C1 1_555 1_555
H7 C9 1_555 1_555
C10 C2 1_555 1_555
H8 C10 1_555 1_555
C11 O5 1_555 1_555
C12 C11 1_555 1_555
C13 C12 1_555 1_555
H9 C13 1_555 1_555
C14 C13 1_555 1_555
H10 C14 1_555 1_555
C15 C14 1_555 1_555
H11 C15 1_555 1_555
C16 N3 1_555 1_555
C17 O6 1_555 1_555
H12 C17 1_555 1_555
H13 C17 1_555 1_555
C18 C17 1_555 1_555
H14 C18 1_555 1_555
H15 C18 1_555 1_555
H16 C18 1_555 1_555
O1A Cu1 1_555 1_555
N1_2 Cu1 1_555 1_555
Cu1_2 N1 1_555 1_555
Cu1A O1 1_555 1_555
C6 C7 1_555 1_555
C8 C9 1_555 1_555
C8 C10 1_555 1_555
C12 C16 1_555 1_555

#END
