
#######################################################################
#
#                 Cambridge Crystallographic Data Centre
#                                CCDC 
#
#######################################################################
#
# If this CIF has been generated from an entry in the Cambridge 
# Structural Database, then it will include bibliographic, chemical, 
# crystal, experimental, refinement or atomic coordinate data resulting 
# from the CCDC's data processing and validation procedures.
#
#######################################################################

data_GIQDAM
_symmetry_cell_setting           monoclinic
_symmetry_space_group_name_H-M   'P 21/n'
_symmetry_Int_Tables_number      14
_space_group_name_Hall           '-P 2yn'
loop_
_symmetry_equiv_pos_site_id
_symmetry_equiv_pos_as_xyz
1 x,y,z
2 1/2-x,1/2+y,1/2-z
3 -x,-y,-z
4 1/2+x,1/2-y,1/2+z
_cell_length_a                   12.968(2)
_cell_length_b                   23.220(2)
_cell_length_c                   13.0700(4)
_cell_angle_alpha                90
_cell_angle_beta                 92.188(5)
_cell_angle_gamma                90
_cell_volume                     3932.73
loop_
_atom_site_label
_atom_site_type_symbol
_atom_site_fract_x
_atom_site_fract_y
_atom_site_fract_z
Mo1 Mo -0.679370(18) 0.043790(10) 0.095460(18)
Mo2 Mo -0.450890(18) -0.038140(10) 0.109870(17)
Mo3 Mo -0.561850(19) -0.099720(10) -0.112010(18)
Mo4 Mo -0.695670(19) -0.096040(11) 0.094530(19)
Ag1 Ag -0.34206(2) -0.211100(13) -0.22835(2)
Ag2 Ag -0.49006(2) -0.560220(11) 0.50985(2)
F1 F 0.07765(17) -0.43394(12) -0.10150(19)
F2 F -0.26650(16) -0.49244(9) -0.09188(15)
F3 F -0.21717(17) -0.81889(8) 0.14201(18)
F4 F 0.1391(2) -0.80381(18) 0.1353(3)
C1 C -0.4273(3) -0.25886(15) -0.0172(2)
H1 H -0.4505 -0.2224 0.0005
C2 C -0.3548(3) -0.32473(15) -0.0970(2)
H2 H -0.3177 -0.3454 -0.1442
C3 C -0.4033(2) -0.40744(14) 0.0165(2)
H3 H -0.4064 -0.4323 -0.0432
H4 H -0.4656 -0.4137 0.0539
C4 C -0.3090(2) -0.42380(13) 0.0850(2)
C5 C -0.2073(2) -0.42294(13) 0.0284(2)
C6 C -0.1246(3) -0.38953(16) 0.0629(3)
H5 H -0.1335 -0.3643 0.1172
C7 C -0.0295(3) -0.39233(18) 0.0196(3)
H6 H 0.0250 -0.3696 0.0445
C8 C -0.0169(3) -0.42929(17) -0.0609(3)
C9 C -0.0947(3) -0.46250(15) -0.1004(2)
H7 H -0.0854 -0.4868 -0.1559
C10 C -0.1884(3) -0.45840(14) -0.0540(2)
C11 C -0.5468(3) -0.49275(16) 0.2642(2)
H8 H -0.6177 -0.4966 0.2702
C12 C -0.3899(2) -0.48023(13) 0.3039(2)
H9 H -0.3276 -0.4738 0.3397
C13 C -0.3211(2) -0.48546(13) 0.1284(2)
H10 H -0.3385 -0.5116 0.0724
H11 H -0.2557 -0.4978 0.1595
C14 C -0.2609(3) -0.72278(14) -0.0568(2)
H12 H -0.2590 -0.7628 -0.0597
C15 C -0.2518(3) -0.13561(16) -0.4088(3)
H13 H -0.2656 -0.1018 -0.3736
C16 C -0.3300(3) -0.71269(15) 0.1183(2)
H14 H -0.3471 -0.7533 0.1135
H15 H -0.3922 -0.6919 0.1345
C17 C -0.2486(3) -0.70386(13) 0.2047(2)
C18 C -0.1436(2) -0.72959(13) 0.1842(2)
C19 C -0.1317(3) -0.78635(14) 0.1555(2)
C20 C -0.0389(3) -0.81198(18) 0.1408(3)
H16 H -0.0345 -0.8507 0.1230
C21 C 0.0463(3) -0.7791(3) 0.1531(4)
C22 C 0.0435(3) -0.7234(2) 0.1832(4)
H17 H 0.1040 -0.7023 0.1927
C23 C -0.0520(3) -0.69871(18) 0.1995(3)
H18 H -0.0549 -0.6606 0.2211
C24 C -0.2854(3) -0.73219(15) 0.3038(2)
H19 H -0.3060 -0.7716 0.2893
H20 H -0.2287 -0.7331 0.3544
C25 C -0.3670(3) -0.65249(17) 0.3972(3)
H21 H -0.3062 -0.6346 0.4201
C26 C 0.0208(3) -0.17200(17) -0.8648(3)
H22 H 0.0924 -0.1693 -0.8622
N1 N -0.3703(2) -0.26846(12) -0.1003(2)
N2 N -0.4470(2) -0.30510(12) 0.0360(2)
N3 N -0.39980(19) -0.34747(11) -0.01663(18)
N4 N -0.40039(19) -0.48903(11) 0.20411(18)
N5 N -0.48161(19) -0.48190(11) 0.34520(19)
N6 N -0.5017(2) -0.49742(13) 0.1765(2)
N7 N -0.2297(2) -0.68829(12) -0.1296(2)
N8 N -0.2126(3) -0.13578(12) -0.5000(2)
N9 N -0.2950(2) -0.69302(11) 0.02031(19)
N10 N -0.3716(2) -0.70123(12) 0.3453(2)
N11 N -0.0284(2) -0.21469(13) -0.8225(2)
N12 N -0.4601(2) -0.63266(13) 0.4120(2)
O1 O -0.78525(15) 0.04593(9) 0.01387(17)
O2 O -0.70598(15) -0.02482(8) 0.16849(14)
O3 O -0.70085(18) 0.09460(9) 0.18544(17)
O4 O -0.34047(15) -0.04055(9) 0.18157(15)
O5 O -0.67132(16) -0.08624(9) -0.18419(15)
O6 O -0.61409(15) -0.13955(8) 0.00141(15)
O7 O -0.50258(18) -0.15410(9) -0.17393(17)
O8 O -0.51466(14) 0.03158(7) 0.16302(14)
O9 O -0.41639(14) -0.08666(8) -0.00657(14)
O10 O -0.53418(15) -0.08678(8) 0.16684(14)
O11 O -0.59566(14) -0.02560(7) -0.00100(13)
O12 O -0.19561(16) 0.08819(9) -0.01780(17)
O13 O -0.27104(17) 0.14635(9) -0.18252(17)
O14 O -0.30833(16) -0.38272(9) 0.16477(15)
H23 H -0.2608 -0.3898 0.2060
O15 O -0.2604(2) -0.14451(10) -0.7277(2)
H24 H -0.2848 -0.1276 -0.6791
Mo1B Mo -0.320630(18) -0.043790(10) -0.095460(18)
Mo2B Mo -0.549110(18) 0.038140(10) -0.109870(17)
Mo3B Mo -0.438150(19) 0.099720(10) 0.112010(18)
Mo4B Mo -0.304330(19) 0.096040(11) -0.094530(19)
Ag1A Ag -0.15794(2) -0.711100(13) -0.27165(2)
Ag1B Ag -0.65794(2) 0.211100(13) 0.22835(2)
Ag1C Ag -0.84206(2) -0.288900(13) 1.27165(2)
Ag2B Ag -0.50994(2) -0.439780(11) 0.49015(2)
Ag2A Ag -0.00994(2) -0.060220(11) -1.00985(2)
F3A F -0.28283(17) -0.31889(8) -0.64201(18)
F3B F -0.78283(17) -0.18111(8) 0.85799(18)
F4A F -0.6391(2) -0.30381(18) -0.6353(3)
F4B F -1.1391(2) -0.19619(18) 0.8647(3)
C14A C -0.2391(3) -0.22278(14) -0.4432(2)
C14B C -0.7391(3) -0.27722(14) 1.0568(2)
H12A H -0.2410 -0.2628 -0.4403
H12B H -0.7410 -0.2372 1.0597
C15C C -0.7518(3) -0.36439(16) 1.0912(3)
C15A C -0.2482(3) -0.63561(16) -0.0912(3)
H13C H -0.7656 -0.3982 1.1264
H13A H -0.2344 -0.6018 -0.1264
C16A C -0.1700(3) -0.21269(15) -0.6183(2)
C16B C -0.6700(3) -0.28731(15) 0.8817(2)
H14A H -0.1529 -0.2533 -0.6135
H14B H -0.6529 -0.2467 0.8865
H15A H -0.1078 -0.1919 -0.6345
H15B H -0.6078 -0.3081 0.8655
C17A C -0.2514(3) -0.20386(13) -0.7047(2)
C17B C -0.7514(3) -0.29614(13) 0.7953(2)
C18A C -0.3564(2) -0.22959(13) -0.6842(2)
C18B C -0.8564(2) -0.27041(13) 0.8158(2)
C19A C -0.3683(3) -0.28635(14) -0.6555(2)
C19B C -0.8683(3) -0.21365(14) 0.8445(2)
C20A C -0.4611(3) -0.31198(18) -0.6408(3)
C20B C -0.9611(3) -0.18802(18) 0.8592(3)
H16A H -0.4655 -0.3507 -0.6230
H16B H -0.9655 -0.1493 0.8770
C21A C -0.5463(3) -0.2791(3) -0.6531(4)
C21B C -1.0463(3) -0.2209(3) 0.8469(4)
C22A C -0.5435(3) -0.2234(2) -0.6832(4)
C22B C -1.0435(3) -0.2766(2) 0.8168(4)
H17A H -0.6040 -0.2023 -0.6927
H17B H -1.1040 -0.2977 0.8073
C23A C -0.4480(3) -0.19871(18) -0.6995(3)
C23B C -0.9480(3) -0.30129(18) 0.8005(3)
H18A H -0.4451 -0.1606 -0.7211
H18B H -0.9451 -0.3394 0.7789
C24A C -0.2146(3) -0.23219(15) -0.8038(2)
C24B C -0.7146(3) -0.26781(15) 0.6962(2)
H19A H -0.1940 -0.2716 -0.7893
H19B H -0.6940 -0.2284 0.7107
H20A H -0.2713 -0.2331 -0.8544
H20B H -0.7713 -0.2669 0.6456
C25A C -0.1330(3) -0.15249(17) -0.8972(3)
C25B C -0.6330(3) -0.34751(17) 0.6028(3)
H21A H -0.1938 -0.1346 -0.9201
H21B H -0.6938 -0.3654 0.5799
C26C C -0.4792(3) -0.32800(17) 0.6352(3)
C26A C -0.5208(3) -0.67200(17) 0.3648(3)
H22C H -0.4076 -0.3307 0.6378
H22A H -0.5924 -0.6693 0.3622
N1B N -0.6297(2) 0.26846(12) 0.1003(2)
N5B N -0.51839(19) -0.51810(11) 0.65480(19)
N7A N -0.2703(2) -0.18829(12) -0.3704(2)
N7C N -0.7297(2) 0.18829(12) 0.3704(2)
N7B N -0.7703(2) -0.31171(12) 1.1296(2)
N8C N -0.7126(3) -0.36422(12) 1.0000(2)
N8A N -0.2874(3) -0.63578(12) 0.0000(2)
N9A N -0.2050(2) -0.19302(11) -0.52031(19)
N9B N -0.7050(2) -0.30698(11) 0.97969(19)
N10A N -0.1284(2) -0.20123(12) -0.8453(2)
N10B N -0.6284(2) -0.29877(12) 0.6547(2)
N11C N -0.5284(2) -0.28531(13) 0.6775(2)
N11A N -0.4716(2) -0.71469(13) 0.3225(2)
N12A N -0.0399(2) -0.13266(13) -0.9120(2)
N12B N -0.5399(2) -0.36734(13) 0.5880(2)
O1B O -0.21475(15) -0.04593(9) -0.01387(17)
O2B O -0.29402(15) 0.02482(8) -0.16849(14)
O3B O -0.29915(18) -0.09460(9) -0.18544(17)
O4B O -0.65953(15) 0.04055(9) -0.18157(15)
O5B O -0.32868(16) 0.08624(9) 0.18419(15)
O6B O -0.38591(15) 0.13955(8) -0.00141(15)
O7B O -0.49742(18) 0.15410(9) 0.17393(17)
O8B O -0.48534(14) -0.03158(7) -0.16302(14)
O9B O -0.58361(14) 0.08666(8) 0.00657(14)
O10B O -0.46582(15) 0.08678(8) -0.16684(14)
O11B O -0.40434(14) 0.02560(7) 0.00100(13)
O12B O -0.80439(16) -0.08819(9) 0.01780(17)
O13B O -0.72896(17) -0.14635(9) 0.18252(17)
O15C O -0.7604(2) -0.35549(10) 0.7723(2)
O15A O -0.2396(2) -0.64451(10) 0.2277(2)
H24C H -0.7848 -0.3724 0.8209
H24A H -0.2152 -0.6276 0.1791
loop_
_geom_bond_atom_site_label_1
_geom_bond_atom_site_label_2
_geom_bond_site_symmetry_1
_geom_bond_site_symmetry_2
Mo1 O1 1_555 1_555
Mo2 O4 1_555 1_555
Mo3 O5 1_555 1_555
Mo4 O2 1_555 1_555
Ag1 N1 1_555 1_555
Ag2 N12 1_555 1_555
F1 C8 1_555 1_555
F2 C10 1_555 1_555
F3 C19 1_555 1_555
F4 C21 1_555 1_555
C1 H1 1_555 1_555
C2 H2 1_555 1_555
C3 H3 1_555 1_555
H4 C3 1_555 1_555
C4 C3 1_555 1_555
C5 C4 1_555 1_555
C6 C5 1_555 1_555
H5 C6 1_555 1_555
C7 C6 1_555 1_555
H6 C7 1_555 1_555
C8 C7 1_555 1_555
C9 C8 1_555 1_555
H7 C9 1_555 1_555
C10 C5 1_555 1_555
C11 H8 1_555 1_555
C12 H9 1_555 1_555
C13 C4 1_555 1_555
H10 C13 1_555 1_555
H11 C13 1_555 1_555
C14 H12 1_555 1_555
C15 H13 1_555 1_555
C16 H14 1_555 1_555
H15 C16 1_555 1_555
C17 C16 1_555 1_555
C18 C17 1_555 1_555
C19 C18 1_555 1_555
C20 C19 1_555 1_555
H16 C20 1_555 1_555
C21 C20 1_555 1_555
C22 C21 1_555 1_555
H17 C22 1_555 1_555
C23 C18 1_555 1_555
H18 C23 1_555 1_555
C24 C17 1_555 1_555
H19 C24 1_555 1_555
H20 C24 1_555 1_555
C25 H21 1_555 1_555
C26 H22 1_555 1_555
N1 C1 1_555 1_555
N2 C1 1_555 1_555
N3 C2 1_555 1_555
N4 C12 1_555 1_555
N5 C11 1_555 1_555
N6 C11 1_555 1_555
N7 C14 1_555 1_555
N8 C15 1_555 1_555
N9 C14 1_555 1_555
N10 C24 1_555 1_555
N11 C26 1_555 1_555
N12 C25 1_555 1_555
O2 Mo1 1_555 1_555
O3 Mo1 1_555 1_555
O6 Mo3 1_555 1_555
O7 Mo3 1_555 1_555
O8 Mo1 1_555 1_555
O9 Mo2 1_555 1_555
O10 Mo2 1_555 1_555
O11 Mo1 1_555 1_555
O12 Mo4B 1_555 1_555
O13 Mo4B 1_555 1_555
O14 C4 1_555 1_555
H23 O14 1_555 1_555
O15 H24 1_555 1_555
Mo1B O9 1_555 1_555
Mo2B O11 1_555 1_555
Mo3B O8 1_555 1_555
Mo4B O2B 1_555 1_555
Ag1A N7 1_555 1_555
Ag1B N1B 1_555 1_555
Ag1C N7B 1_555 1_555
Ag2B Ag2 1_555 1_555
Ag2A N12A 1_555 1_555
F3A C19A 1_555 1_555
F3B C19B 1_555 1_555
F4A C21A 1_555 1_555
F4B C21B 1_555 1_555
C14A H12A 1_555 1_555
C14B H12B 1_555 1_555
C15C H13C 1_555 1_555
C15A N7 1_555 1_555
H13A C15A 1_555 1_555
C16A H14A 1_555 1_555
C16B H14B 1_555 1_555
H15A C16A 1_555 1_555
H15B C16B 1_555 1_555
C17A O15 1_555 1_555
C17B C16B 1_555 1_555
C18A C17A 1_555 1_555
C18B C17B 1_555 1_555
C19A C18A 1_555 1_555
C19B C18B 1_555 1_555
C20A C19A 1_555 1_555
C20B C19B 1_555 1_555
H16A C20A 1_555 1_555
H16B C20B 1_555 1_555
C21A C20A 1_555 1_555
C21B C20B 1_555 1_555
C22A C21A 1_555 1_555
C22B C21B 1_555 1_555
H17A C22A 1_555 1_555
H17B C22B 1_555 1_555
C23A C18A 1_555 1_555
C23B C18B 1_555 1_555
H18A C23A 1_555 1_555
H18B C23B 1_555 1_555
C24A C17A 1_555 1_555
C24B C17B 1_555 1_555
H19A C24A 1_555 1_555
H19B C24B 1_555 1_555
H20A C24A 1_555 1_555
H20B C24B 1_555 1_555
C25A H21A 1_555 1_555
C25B H21B 1_555 1_555
C26C H22C 1_555 1_555
C26A N12 1_555 1_555
H22A C26A 1_555 1_555
N5B Ag2 1_555 1_555
N7A Ag1 1_555 1_555
N7C Ag1B 1_555 1_555
N7B C14B 1_555 1_555
N8C C15C 1_555 1_555
N8A N9 1_555 1_555
N9A N8 1_555 1_555
N9B C14B 1_555 1_555
N10A N11 1_555 1_555
N10B C24B 1_555 1_555
N11C C26C 1_555 1_555
N11A N10 1_555 1_555
N12A C26 1_555 1_555
N12B Ag2B 1_555 1_555
O1B Mo1B 1_555 1_555
O2B Mo1B 1_555 1_555
O3B Mo1B 1_555 1_555
O4B Mo2B 1_555 1_555
O5B Mo3B 1_555 1_555
O6B Mo3B 1_555 1_555
O7B Mo3B 1_555 1_555
O8B Mo3 1_555 1_555
O9B Mo1 1_555 1_555
O10B Mo2B 1_555 1_555
O11B Mo2 1_555 1_555
O12B Mo4 1_555 1_555
O13B Mo4 1_555 1_555
O15C C17B 1_555 1_555
O15A C17 1_555 1_555
H24C O15C 1_555 1_555
H24A O15A 1_555 1_555
Mo2 O8 1_555 1_555
Mo2 O11 1_555 1_555
Mo3 O9 1_555 1_555
Mo3 O11 1_555 1_555
Mo4 O6 1_555 1_555
Mo4 O10 1_555 1_555
Mo4 O11 1_555 1_555
Ag1 O7 1_555 1_555
C2 N1 1_555 1_555
C3 N3 1_555 1_555
C9 C10 1_555 1_555
C12 N5 1_555 1_555
C13 N4 1_555 1_555
C15 N7A 1_555 1_555
C16 N9 1_555 1_555
C22 C23 1_555 1_555
C25 N10 1_555 1_555
N2 N3 1_555 1_555
N4 N6 1_555 1_555
N5 Ag2B 1_555 1_555
Mo1B O8B 1_555 1_555
Mo1B O11B 1_555 1_555
Mo2B O8B 1_555 1_555
Mo2B O9B 1_555 1_555
Mo2B O11B 1_555 1_555
Mo3B O9B 1_555 1_555
Mo3B O11B 1_555 1_555
Mo4B O6B 1_555 1_555
Mo4B O10B 1_555 1_555
Mo4B O11B 1_555 1_555
Ag1B O7B 1_555 1_555
C14A N7A 1_555 1_555
C14A N9A 1_555 1_555
C15C N7B 1_555 1_555
C15A N8A 1_555 1_555
C16A C17A 1_555 1_555
C16A N9A 1_555 1_555
C16B N9B 1_555 1_555
C22A C23A 1_555 1_555
C22B C23B 1_555 1_555
C24A N10A 1_555 1_555
C25A N10A 1_555 1_555
C25A N12A 1_555 1_555
C25B N10B 1_555 1_555
C25B N12B 1_555 1_555
C26C N12B 1_555 1_555
C26A N11A 1_555 1_555
N8C N9B 1_555 1_555
N10B N11C 1_555 1_555

#END
