
#######################################################################
#
#                 Cambridge Crystallographic Data Centre
#                                CCDC 
#
#######################################################################
#
# If this CIF has been generated from an entry in the Cambridge 
# Structural Database, then it will include bibliographic, chemical, 
# crystal, experimental, refinement or atomic coordinate data resulting 
# from the CCDC's data processing and validation procedures.
#
#######################################################################

data_GIQGAP
_symmetry_cell_setting           hexagonal
_symmetry_space_group_name_H-M   'P 63 2 2'
_symmetry_Int_Tables_number      182
_space_group_name_Hall           "P 6c 2'c"
loop_
_symmetry_equiv_pos_site_id
_symmetry_equiv_pos_as_xyz
1 x,y,z
2 -y,x-y,z
3 -x+y,-x,z
4 -x,-y,1/2+z
5 y,-x+y,1/2+z
6 x-y,x,1/2+z
7 y,x,-z
8 x-y,-y,-z
9 -x,-x+y,-z
10 -y,-x,1/2-z
11 -x+y,y,1/2-z
12 x,x-y,1/2-z
_cell_length_a                   17.791(4)
_cell_length_b                   17.791(4)
_cell_length_c                   37.231(15)
_cell_angle_alpha                90
_cell_angle_beta                 90
_cell_angle_gamma                120
_cell_volume                     10205.5
loop_
_atom_site_label
_atom_site_type_symbol
_atom_site_fract_x
_atom_site_fract_y
_atom_site_fract_z
Ag2 Ag 0.6667 0.3333 0.11906(2)
N4 N 0.5310(3) 0.3082(3) 0.11190(16)
N5 N 0.4131(3) 0.2913(3) 0.08339(15)
N6 N 0.2583(3) 0.5874(3) 0.04144(14)
C16 C 0.4892(4) 0.2891(4) 0.08069(19)
C17 C 0.4069(4) 0.3142(4) 0.11791(19)
C18 C 0.4811(4) 0.3245(4) 0.13563(18)
C19 C 0.4942(5) 0.3466(5) 0.1711(2)
H11 H 0.5438 0.3531 0.1835
C20 C 0.4328(6) 0.3592(5) 0.1884(2)
H12 H 0.4413 0.3754 0.2130
C21 C 0.3600(6) 0.3492(6) 0.1714(2)
H13 H 0.3189 0.3579 0.1843
C22 C 0.3464(4) 0.3263(4) 0.1351(2)
H14 H 0.2964 0.3193 0.1229
C23 C 0.5186(4) 0.2648(5) 0.04770(17)
H15 H 0.5744 0.2680 0.0523
H16 H 0.5252 0.3047 0.0282
H17 H 0.4754 0.2054 0.0408
C24 C 0.3556(4) 0.2828(4) 0.05350(19)
H18 H 0.2968 0.2332 0.0582
H19 H 0.3775 0.2705 0.0311
C25 C 0.3506(4) 0.3652(4) 0.04875(17)
C26 C 0.2713(4) 0.3604(4) 0.0480(2)
H20 H 0.2196 0.3057 0.0498
C27 C 0.2669(4) 0.4351(4) 0.04481(19)
H21 H 0.2119 0.4315 0.0441
C28 C 0.3419(4) 0.5156(3) 0.04261(16)
C29 C 0.4223(4) 0.5188(4) 0.04274(18)
H22 H 0.4745 0.5732 0.0411
C30 C 0.4258(4) 0.4431(4) 0.04534(19)
H23 H 0.4802 0.4451 0.0447
C31 C 0.3373(4) 0.5953(4) 0.04199(17)
Ag2A Ag 0.6667 1.3334 0.11906(2)
Ag2_2 Ag -0.3333 0.3333 0.11906(2)
Ag2_3 Ag -0.3333 -0.6667 0.11906(2)
Ag2_4 Ag 0.6667 -0.6667 0.11906(2)
N4A N 0.6918(3) 1.2228(4) 0.11190(16)
N4B N -0.2228(4) 0.4690(3) 0.11190(16)
N4A_2 N 0.6918(3) 0.2228(4) 0.11190(16)
N4B_2 N -0.2228(4) -0.5310(3) 0.11190(16)
N4_2 N 0.5310(3) -0.6918(3) 0.11190(16)
N4B_3 N 0.7772(4) 0.4690(3) 0.11190(16)
N4_3 N -0.4690(3) 0.3082(3) 0.11190(16)
N4A_3 N -0.3082(3) 0.2228(4) 0.11190(16)
N4A_4 N 0.6918(3) -0.7772(4) 0.11190(16)
N4B_4 N 0.7772(4) -0.5310(3) 0.11190(16)
N5A N 0.7087(3) 1.1218(4) 0.08339(15)
N5B N -0.1218(4) 0.5869(3) 0.08339(15)
N5A_2 N 0.7087(3) 0.1218(4) 0.08339(15)
N5B_2 N -0.1218(4) -0.4131(3) 0.08339(15)
N5_2 N 0.4131(3) -0.7087(3) 0.08339(15)
N6B N 0.3291(4) 0.7417(3) 0.04144(14)
N6A N 0.4126(3) 0.6709(4) 0.04144(14)
N6A_2 N 0.4126(3) -0.3291(4) 0.04144(14)
N6_2 N 0.2583(3) -0.4126(3) 0.04144(14)
N6B_2 N 0.3291(4) -0.2583(3) 0.04144(14)
C16A C 0.7109(4) 1.2001(6) 0.08069(19)
C16B C -0.2001(6) 0.5108(4) 0.08069(19)
C16A_2 C 0.7109(4) 0.2001(6) 0.08069(19)
C16B_2 C -0.2001(6) -0.4892(4) 0.08069(19)
C16_2 C 0.4892(4) -0.7109(4) 0.08069(19)
C17A C 0.6858(4) 1.0927(6) 0.11791(19)
C17B C -0.0927(6) 0.5931(4) 0.11791(19)
C17A_2 C 0.6858(4) 0.0927(6) 0.11791(19)
C17B_2 C -0.0927(6) -0.4069(4) 0.11791(19)
C17_2 C 0.4069(4) -0.6858(4) 0.11791(19)
C18A C 0.6755(4) 1.1566(6) 0.13563(18)
C18B C -0.1566(6) 0.5189(4) 0.13563(18)
C18A_2 C 0.6755(4) 0.1566(6) 0.13563(18)
C18B_2 C -0.1566(6) -0.4811(4) 0.13563(18)
C18_2 C 0.4811(4) -0.6755(4) 0.13563(18)
C19A C 0.6534(5) 1.1476(7) 0.1711(2)
C19B C -0.1476(7) 0.5058(5) 0.1711(2)
C19A_2 C 0.6534(5) 0.1476(7) 0.1711(2)
C19B_2 C -0.1476(7) -0.4942(5) 0.1711(2)
C19_2 C 0.4942(5) -0.6534(5) 0.1711(2)
H11A H 0.6469 1.1907 0.1835
H11B H -0.1907 0.4562 0.1835
H11A_2 H 0.6469 0.1907 0.1835
H11B_2 H -0.1907 -0.5438 0.1835
H11_2 H 0.5438 -0.6469 0.1835
C20A C 0.6408(5) 1.0736(8) 0.1884(2)
C20B C -0.0736(8) 0.5672(6) 0.1884(2)
C20A_2 C 0.6408(5) 0.0736(8) 0.1884(2)
C20B_2 C -0.0736(8) -0.4328(6) 0.1884(2)
C20_2 C 0.4328(6) -0.6408(5) 0.1884(2)
H12A H 0.6246 1.0659 0.2130
H12B H -0.0659 0.5587 0.2130
H12A_2 H 0.6246 0.0659 0.2130
H12B_2 H -0.0659 -0.4413 0.2130
H12_2 H 0.4413 -0.6246 0.2130
C21A C 0.6508(6) 1.0108(8) 0.1714(2)
C21B C -0.0108(8) 0.6400(6) 0.1714(2)
C21A_2 C 0.6508(6) 0.0108(8) 0.1714(2)
C21B_2 C -0.0108(8) -0.3600(6) 0.1714(2)
C21_2 C 0.3600(6) -0.6508(6) 0.1714(2)
H13A H 0.6421 0.9610 0.1843
H13B H 0.0390 0.6811 0.1843
H13A_2 H 0.6421 -0.0390 0.1843
H13B_2 H 0.0390 -0.3189 0.1843
H13_2 H 0.3189 -0.6421 0.1843
C22A C 0.6737(4) 1.0201(6) 0.1351(2)
C22B C -0.0201(6) 0.6536(4) 0.1351(2)
C22A_2 C 0.6737(4) 0.0201(6) 0.1351(2)
C22B_2 C -0.0201(6) -0.3464(4) 0.1351(2)
C22_2 C 0.3464(4) -0.6737(4) 0.1351(2)
H14A H 0.6807 0.9771 0.1229
H14B H 0.0229 0.7036 0.1229
H14A_2 H 0.6807 -0.0229 0.1229
H14B_2 H 0.0229 -0.2964 0.1229
H14_2 H 0.2964 -0.6807 0.1229
C23A C 0.7352(5) 1.2538(6) 0.04770(17)
C23B C -0.2538(6) 0.4814(4) 0.04770(17)
C23A_2 C 0.7352(5) 0.2538(6) 0.04770(17)
C23B_2 C -0.2538(6) -0.5186(4) 0.04770(17)
C23_2 C 0.5186(4) -0.7352(5) 0.04770(17)
H15A H 0.7320 1.3064 0.0523
H15B H -0.3064 0.4256 0.0523
H15A_2 H 0.7320 0.3064 0.0523
H15B_2 H -0.3064 -0.5744 0.0523
H15_2 H 0.5744 -0.7320 0.0523
H16A H 0.6953 1.2205 0.0282
H16B H -0.2205 0.4748 0.0282
H16A_2 H 0.6953 0.2205 0.0282
H16B_2 H -0.2205 -0.5252 0.0282
H16_2 H 0.5252 -0.6953 0.0282
H17A H 0.7946 1.2700 0.0408
H17B H -0.2700 0.5246 0.0408
H17A_2 H 0.7946 0.2700 0.0408
H17B_2 H -0.2700 -0.4754 0.0408
H17_2 H 0.4754 -0.7946 0.0408
C24A C 0.7172(4) 1.0728(6) 0.05350(19)
C24B C -0.0728(6) 0.6444(4) 0.05350(19)
C24A_2 C 0.7172(4) 0.0728(6) 0.05350(19)
C24B_2 C -0.0728(6) -0.3556(4) 0.05350(19)
C24_2 C 0.3556(4) -0.7172(4) 0.05350(19)
H18A H 0.7668 1.0636 0.0582
H18B H -0.0636 0.7032 0.0582
H18A_2 H 0.7668 0.0636 0.0582
H18B_2 H -0.0636 -0.2968 0.0582
H18_2 H 0.2968 -0.7668 0.0582
H19A H 0.7295 1.1070 0.0311
H19B H -0.1070 0.6225 0.0311
H19A_2 H 0.7295 0.1070 0.0311
H19B_2 H -0.1070 -0.3775 0.0311
H19_2 H 0.3775 -0.7295 0.0311
C25A C 0.6348(4) 0.9854(6) 0.04875(17)
C25B C 0.0146(6) 0.6494(4) 0.04875(17)
C25A_2 C 0.6348(4) -0.0146(6) 0.04875(17)
C25B_2 C 0.0146(6) -0.3506(4) 0.04875(17)
C25_2 C 0.3506(4) -0.6348(4) 0.04875(17)
C26A C 0.6396(4) 0.9109(6) 0.0480(2)
C26B C 0.0891(6) 0.7287(4) 0.0480(2)
C26A_2 C 0.6396(4) -0.0891(6) 0.0480(2)
C26B_2 C 0.0891(6) -0.2713(4) 0.0480(2)
C26_2 C 0.2713(4) -0.6396(4) 0.0480(2)
H20A H 0.6943 0.9139 0.0498
H20B H 0.0861 0.7804 0.0498
H20A_2 H 0.6943 -0.0861 0.0498
H20B_2 H 0.0861 -0.2196 0.0498
H20_2 H 0.2196 -0.6943 0.0498
C27A C 0.5649(4) 0.8318(6) 0.04481(19)
C27B C 0.1682(6) 0.7331(4) 0.04481(19)
C27A_2 C 0.5649(4) -0.1682(6) 0.04481(19)
C27B_2 C 0.1682(6) -0.2669(4) 0.04481(19)
C27_2 C 0.2669(4) -0.5649(4) 0.04481(19)
H21A H 0.5685 0.7804 0.0441
H21B H 0.2196 0.7881 0.0441
H21A_2 H 0.5685 -0.2196 0.0441
H21B_2 H 0.2196 -0.2119 0.0441
H21_2 H 0.2119 -0.5685 0.0441
C28A C 0.4844(3) 0.8263(5) 0.04261(16)
C28B C 0.1737(5) 0.6581(4) 0.04261(16)
C28A_2 C 0.4844(3) -0.1737(5) 0.04261(16)
C28B_2 C 0.1737(5) -0.3419(4) 0.04261(16)
C28_2 C 0.3419(4) -0.4844(3) 0.04261(16)
C29A C 0.4812(4) 0.9035(6) 0.04274(18)
C29B C 0.0965(6) 0.5777(4) 0.04274(18)
C29A_2 C 0.4812(4) -0.0965(6) 0.04274(18)
C29B_2 C 0.0965(6) -0.4223(4) 0.04274(18)
C29_2 C 0.4223(4) -0.4812(4) 0.04274(18)
H22A H 0.4268 0.9013 0.0411
H22B H 0.0987 0.5255 0.0411
H22A_2 H 0.4268 -0.0987 0.0411
H22B_2 H 0.0987 -0.4745 0.0411
H22_2 H 0.4745 -0.4268 0.0411
C30A C 0.5569(4) 0.9827(6) 0.04534(19)
C30B C 0.0173(6) 0.5742(4) 0.04534(19)
C30A_2 C 0.5569(4) -0.0173(6) 0.04534(19)
C30B_2 C 0.0173(6) -0.4258(4) 0.04534(19)
C30_2 C 0.4258(4) -0.5569(4) 0.04534(19)
H23A H 0.5549 1.0351 0.0447
H23B H -0.0351 0.5198 0.0447
H23A_2 H 0.5549 0.0351 0.0447
H23B_2 H -0.0351 -0.4802 0.0447
H23_2 H 0.4802 -0.5549 0.0447
C31B C 0.2580(6) 0.6627(4) 0.04199(17)
C31A C 0.4047(4) 0.7420(6) 0.04199(17)
C31A_2 C 0.4047(4) -0.2580(6) 0.04199(17)
C31_2 C 0.3373(4) -0.4047(4) 0.04199(17)
C31B_2 C 0.2580(6) -0.3373(4) 0.04199(17)
Sb1 Sb 0.6667 0.3333 0.2500
F4 F 0.7737(8) 0.4348(9) 0.2526(6)
F4A F 0.5652(9) 0.3389(12) 0.2526(6)
F4B F 0.6611(12) 0.2263(8) 0.2526(6)
F4I F 0.5652(9) 0.2263(8) 0.2474(6)
F4J F 0.6611(12) 0.4348(9) 0.2474(6)
F4K F 0.7737(8) 0.3389(12) 0.2474(6)
Sb2 Sb 0.72682(5) 0.72682(5) 0.0000
F5 F 0.6789(4) 0.7803(4) -0.02474(19)
F6 F 0.7672(6) 0.8113(5) 0.0347(3)
F7 F 0.6871(5) 0.6401(5) -0.0338(2)
F5F F 0.7803(4) 0.6789(4) 0.02474(19)
F6F F 0.8113(5) 0.7672(6) -0.0347(3)
F7F F 0.6401(5) 0.6871(5) 0.0338(2)
Sb3 Sb 1.15427(15) 0.3085(3) 0.2500
F8 F 1.2083(4) 0.4167(7) 0.2500
F9 F 1.1661(9) 0.3102(7) 0.2941(3)
F10 F 1.0614(6) 0.3078(8) 0.2542(5)
F11 F 1.1005(4) 0.2011(8) 0.2500
F9J F 1.1441(11) 0.3102(7) 0.2059(3)
F10J F 1.2464(10) 0.3078(8) 0.2458(5)
O1 O 1.0000 1.0000 0.0000
O2 O 1.0000 0.0000 0.2500
Ag1 Ag 0.28773(9) 0.14386(4) 0.2500
N1 N 0.2897(5) 0.1616(4) 0.30570(17)
N2 N 0.3216(4) 0.2245(4) 0.35781(17)
N3 N 0.2609(3) 0.5866(3) 0.36925(14)
C1 C 0.3435(6) 0.2307(5) 0.3227(2)
C2 C 0.2276(5) 0.1059(6) 0.3301(2)
C3 C 0.2503(4) 0.1474(4) 0.3639(2)
C4 C 0.2034(5) 0.1086(6) 0.3942(2)
H1 H 0.2178 0.1382 0.4166
C5 C 0.1360(5) 0.0267(6) 0.3912(3)
H2 H 0.1043 -0.0025 0.4122
C6 C 0.1120(5) -0.0156(6) 0.3587(3)
H3 H 0.0629 -0.0723 0.3573
C7 C 0.1603(6) 0.0252(6) 0.3277(3)
H4 H 0.1452 -0.0043 0.3053
C8 C 0.3727(5) 0.2935(4) 0.3849(2)
H5 H 0.4348 0.3109 0.3830
H6 H 0.3526 0.2704 0.4093
C9 C 0.3620(4) 0.3721(4) 0.37869(18)
C10 C 0.4329(4) 0.4516(4) 0.3752(2)
H7 H 0.4885 0.4563 0.3747
C11 C 0.4280(4) 0.5248(4) 0.3723(2)
H8 H 0.4796 0.5798 0.3711
C12 C 0.3479(4) 0.5198(4) 0.37100(17)
C13 C 0.2745(4) 0.4377(4) 0.3741(2)
H9 H 0.2186 0.4324 0.3737
C14 C 0.2811(4) 0.3640(5) 0.3778(2)
H10 H 0.2304 0.3085 0.3796
C15 C 0.3401(4) 0.5970(4) 0.36939(17)
C32 C 0.4225(6) 0.3047(6) 0.3075(3)
H24 H 0.4247 0.2962 0.2816
H25 H 0.4739 0.3087 0.3190
H26 H 0.4213 0.3585 0.3118
Ag1A Ag 0.85614(4) 1.14387(10) 0.2500
Ag1B Ag -0.14387(10) 0.71227(9) 0.2500
Ag1B_2 Ag 0.85613(10) -0.28773(9) 0.2500
Ag1A_2 Ag -0.14386(4) -0.85613(10) 0.2500
N1A N 0.8384(4) 1.1281(6) 0.30570(17)
N1B N -0.1281(6) 0.7103(5) 0.30570(17)
N1K N 0.2897(5) 0.1281(6) 0.19430(17)
N1I N 0.8384(4) -0.2897(5) 0.19430(17)
N1J N -0.1281(6) -0.8384(4) 0.19430(17)
N1I_2 N -0.1616(4) 0.7103(5) 0.19430(17)
N2A N 0.7755(4) 1.0971(6) 0.35781(17)
N2B N -0.0971(6) 0.6784(4) 0.35781(17)
N2K N 0.3216(4) 0.0971(6) 0.14219(17)
N2I N 0.7755(4) -0.3216(4) 0.14219(17)
N2J N -0.0971(6) -0.7755(4) 0.14219(17)
N3B N 0.3257(4) 0.7391(3) 0.36925(14)
N3A N 0.4134(3) 0.6743(4) 0.36925(14)
N3K N 0.2609(3) -0.3257(4) 0.13075(14)
N3J N 0.3257(4) -0.4134(3) 0.13075(14)
N3I N 0.4134(3) -0.2609(3) 0.13075(14)
C1A C 0.7693(5) 1.1128(8) 0.3227(2)
C1B C -0.1128(8) 0.6565(6) 0.3227(2)
C1K C 0.3435(6) 0.1128(8) 0.1773(2)
C1I C 0.7693(5) -0.3435(6) 0.1773(2)
C1J C -0.1128(8) -0.7693(5) 0.1773(2)
C2A C 0.8941(6) 1.1217(8) 0.3301(2)
C2B C -0.1217(8) 0.7724(5) 0.3301(2)
C2K C 0.2276(5) 0.1217(8) 0.1699(2)
C2I C 0.8941(6) -0.2276(5) 0.1699(2)
C2J C -0.1217(8) -0.8941(6) 0.1699(2)
C3A C 0.8526(4) 1.1029(6) 0.3639(2)
C3B C -0.1029(6) 0.7497(4) 0.3639(2)
C3K C 0.2503(4) 0.1029(6) 0.1361(2)
C3I C 0.8526(4) -0.2503(4) 0.1361(2)
C3J C -0.1029(6) -0.8526(4) 0.1361(2)
C4A C 0.8914(6) 1.0948(8) 0.3942(2)
C4B C -0.0948(8) 0.7966(5) 0.3942(2)
C4K C 0.2034(5) 0.0948(8) 0.1058(2)
C4I C 0.8914(6) -0.2034(5) 0.1058(2)
C4J C -0.0948(8) -0.8914(6) 0.1058(2)
H1A H 0.8618 1.0796 0.4166
H1B H -0.0796 0.7822 0.4166
H1K H 0.2178 0.0796 0.0834
H1I H 0.8618 -0.2178 0.0834
H1J H -0.0796 -0.8618 0.0834
C5A C 0.9733(6) 1.1093(8) 0.3912(3)
C5B C -0.1093(8) 0.8640(5) 0.3912(3)
C5K C 0.1360(5) 0.1093(8) 0.1088(3)
C5I C 0.9733(6) -0.1360(5) 0.1088(3)
C5J C -0.1093(8) -0.9733(6) 0.1088(3)
H2A H 1.0025 1.1068 0.4122
H2B H -0.1068 0.8957 0.4122
H2K H 0.1043 0.1068 0.0878
H2I H 1.0025 -0.1043 0.0878
H2J H -0.1068 -1.0025 0.0878
C6A C 1.0156(6) 1.1276(8) 0.3587(3)
C6B C -0.1276(8) 0.8880(5) 0.3587(3)
C6K C 0.1120(5) 0.1276(8) 0.1413(3)
C6I C 1.0156(6) -0.1120(5) 0.1413(3)
C6J C -0.1276(8) -1.0156(6) 0.1413(3)
H3A H 1.0723 1.1352 0.3573
H3B H -0.1352 0.9371 0.3573
H3K H 0.0629 0.1352 0.1427
H3I H 1.0723 -0.0629 0.1427
H3J H -0.1352 -1.0723 0.1427
C7A C 0.9748(6) 1.1351(8) 0.3277(3)
C7B C -0.1351(8) 0.8397(6) 0.3277(3)
C7K C 0.1603(6) 0.1351(8) 0.1723(3)
C7I C 0.9748(6) -0.1603(6) 0.1723(3)
C7J C -0.1351(8) -0.9748(6) 0.1723(3)
H4A H 1.0043 1.1495 0.3053
H4B H -0.1495 0.8548 0.3053
H4K H 0.1452 0.1495 0.1947
H4I H 1.0043 -0.1452 0.1947
H4J H -0.1495 -1.0043 0.1947
C8A C 0.7065(4) 1.0792(6) 0.3849(2)
C8B C -0.0792(6) 0.6273(5) 0.3849(2)
C8K C 0.3727(5) 0.0792(6) 0.1151(2)
C8I C 0.7065(4) -0.3727(5) 0.1151(2)
C8J C -0.0792(6) -0.7065(4) 0.1151(2)
H5A H 0.6891 1.1239 0.3830
H5B H -0.1239 0.5652 0.3830
H5K H 0.4348 0.1239 0.1170
H5I H 0.6891 -0.4348 0.1170
H5J H -0.1239 -0.6891 0.1170
H6A H 0.7296 1.0822 0.4093
H6B H -0.0822 0.6474 0.4093
H6K H 0.3526 0.0822 0.0907
H6I H 0.7296 -0.3526 0.0907
H6J H -0.0822 -0.7296 0.0907
C9A C 0.6279(4) 0.9899(6) 0.37869(18)
C9B C 0.0101(6) 0.6380(4) 0.37869(18)
C9K C 0.3620(4) -0.0101(6) 0.12131(18)
C9I C 0.6279(4) -0.3620(4) 0.12131(18)
C9J C 0.0101(6) -0.6279(4) 0.12131(18)
C10A C 0.5484(4) 0.9813(6) 0.3752(2)
C10B C 0.0187(6) 0.5671(4) 0.3752(2)
C10K C 0.4329(4) -0.0187(6) 0.1248(2)
C10I C 0.5484(4) -0.4329(4) 0.1248(2)
C10J C 0.0187(6) -0.5484(4) 0.1248(2)
H7A H 0.5437 1.0322 0.3747
H7B H -0.0322 0.5115 0.3747
H7K H 0.4885 0.0322 0.1253
H7I H 0.5437 -0.4885 0.1253
H7J H -0.0322 -0.5437 0.1253
C11A C 0.4752(4) 0.9032(6) 0.3723(2)
C11B C 0.0968(6) 0.5720(4) 0.3723(2)
C11K C 0.4280(4) -0.0968(6) 0.1277(2)
C11I C 0.4752(4) -0.4280(4) 0.1277(2)
C11J C 0.0968(6) -0.4752(4) 0.1277(2)
H8A H 0.4202 0.8998 0.3711
H8B H 0.1002 0.5204 0.3711
H8K H 0.4796 -0.1002 0.1289
H8I H 0.4202 -0.4796 0.1289
H8J H 0.1002 -0.4202 0.1289
C12A C 0.4802(4) 0.8281(6) 0.37100(17)
C12B C 0.1719(6) 0.6521(4) 0.37100(17)
C12K C 0.3479(4) -0.1719(6) 0.12900(17)
C12I C 0.4802(4) -0.3479(4) 0.12900(17)
C12J C 0.1719(6) -0.4802(4) 0.12900(17)
C13A C 0.5623(4) 0.8368(6) 0.3741(2)
C13B C 0.1632(6) 0.7255(4) 0.3741(2)
C13K C 0.2745(4) -0.1632(6) 0.1259(2)
C13I C 0.5623(4) -0.2745(4) 0.1259(2)
C13J C 0.1632(6) -0.5623(4) 0.1259(2)
H9A H 0.5676 0.7862 0.3737
H9B H 0.2138 0.7814 0.3737
H9K H 0.2186 -0.2138 0.1263
H9I H 0.5676 -0.2186 0.1263
H9J H 0.2138 -0.5676 0.1263
C14A C 0.6360(5) 0.9171(6) 0.3778(2)
C14B C 0.0829(6) 0.7189(4) 0.3778(2)
C14K C 0.2811(4) -0.0829(6) 0.1222(2)
C14I C 0.6360(5) -0.2811(4) 0.1222(2)
C14J C 0.0829(6) -0.6360(5) 0.1222(2)
H10A H 0.6915 0.9219 0.3796
H10B H 0.0781 0.7696 0.3796
H10K H 0.2304 -0.0781 0.1204
H10I H 0.6915 -0.2304 0.1204
H10J H 0.0781 -0.6915 0.1204
C15B C 0.2569(6) 0.6599(4) 0.36939(17)
C15A C 0.4030(4) 0.7431(6) 0.36939(17)
C15K C 0.3401(4) -0.2569(6) 0.13061(17)
C15J C 0.2569(6) -0.4030(4) 0.13061(17)
C15I C 0.4030(4) -0.3401(4) 0.13061(17)
C32A C 0.6953(6) 1.1178(8) 0.3075(3)
C32B C -0.1178(8) 0.5775(6) 0.3075(3)
C32K C 0.4225(6) 0.1178(8) 0.1925(3)
C32I C 0.6953(6) -0.4225(6) 0.1925(3)
C32J C -0.1178(8) -0.6953(6) 0.1925(3)
H24A H 0.7038 1.1285 0.2816
H24B H -0.1285 0.5753 0.2816
H24K H 0.4247 0.1285 0.2184
H24I H 0.7038 -0.4247 0.2184
H24J H -0.1285 -0.7038 0.2184
H25A H 0.6913 1.1652 0.3190
H25B H -0.1652 0.5261 0.3190
H25K H 0.4739 0.1652 0.1810
H25I H 0.6913 -0.4739 0.1810
H25J H -0.1652 -0.6913 0.1810
H26A H 0.6415 1.0628 0.3118
H26B H -0.0628 0.5787 0.3118
H26K H 0.4213 0.0628 0.1882
H26I H 0.6415 -0.4213 0.1882
H26J H -0.0628 -0.6415 0.1882
F1? F 0.6667 0.3333 0.30026(15)
F2? F 0.6066(3) 0.3934(3) 0.2500
F3? F 0.5480(6) 0.2537(8) 0.2506(8)
C33? C 1.4110(3) 0.5890(3) 0.2500
Cl1? Cl 1.3263(6) 0.5055(6) 0.2246(6)
Cl2? Cl 1.4945(5) 0.5857(7) 0.2280(6)
Cl3? Cl 1.4132(8) 0.6736(6) 0.2253(7)
Cl4? Cl 1.3572(9) 0.5534(12) 0.2104(3)
Cl5? Cl 1.4672(4) 0.5328(4) 0.2500
loop_
_geom_bond_atom_site_label_1
_geom_bond_atom_site_label_2
_geom_bond_site_symmetry_1
_geom_bond_site_symmetry_2
Ag1 N1 1_555 1_555
Ag2 N4 1_555 1_555
N1 C1 1_555 1_555
N2 C1 1_555 1_555
N3 C15 1_555 1_555
N4 C16 1_555 1_555
N5 C16 1_555 1_555
N6 C31 1_555 1_555
C1 C32 1_555 1_555
C2 N1 1_555 1_555
C3 N2 1_555 1_555
C4 C3 1_555 1_555
H1 C4 1_555 1_555
C5 C4 1_555 1_555
H2 C5 1_555 1_555
C6 C5 1_555 1_555
H3 C6 1_555 1_555
C7 C2 1_555 1_555
H4 C7 1_555 1_555
C8 N2 1_555 1_555
H5 C8 1_555 1_555
H6 C8 1_555 1_555
C9 C8 1_555 1_555
C10 C9 1_555 1_555
H7 C10 1_555 1_555
C11 C10 1_555 1_555
H8 C11 1_555 1_555
C12 C11 1_555 1_555
C13 C12 1_555 1_555
H9 C13 1_555 1_555
C14 C9 1_555 1_555
H10 C14 1_555 1_555
C15 C12 1_555 1_555
C16 C23 1_555 1_555
C17 N5 1_555 1_555
C18 N4 1_555 1_555
C19 C18 1_555 1_555
H11 C19 1_555 1_555
C20 C19 1_555 1_555
H12 C20 1_555 1_555
C21 C20 1_555 1_555
H13 C21 1_555 1_555
C22 C17 1_555 1_555
H14 C22 1_555 1_555
C23 H15 1_555 1_555
H16 C23 1_555 1_555
H17 C23 1_555 1_555
C24 N5 1_555 1_555
H18 C24 1_555 1_555
H19 C24 1_555 1_555
C25 C24 1_555 1_555
C26 C25 1_555 1_555
H20 C26 1_555 1_555
C27 C26 1_555 1_555
H21 C27 1_555 1_555
C28 C27 1_555 1_555
C29 C28 1_555 1_555
H22 C29 1_555 1_555
C30 C25 1_555 1_555
H23 C30 1_555 1_555
C31 C28 1_555 1_555
C32 H24 1_555 1_555
H25 C32 1_555 1_555
H26 C32 1_555 1_555
Sb1 F4 1_555 1_555
Sb2 F5 1_555 1_555
F6 Sb2 1_555 1_555
F7 Sb2 1_555 1_555
Sb3 F8 1_555 1_555
F9 Sb3 1_555 1_555
F10 Sb3 1_555 1_555
F11 Sb3 1_555 1_555
Ag1A N1A 1_555 1_555
Ag1B N1B 1_555 1_555
Ag1B_2 N1I 1_555 1_555
Ag1A_2 N1J 1_555 1_555
Ag2A N4A 1_555 1_555
Ag2_2 N4B 1_555 1_555
Ag2_3 N4B_2 1_555 1_555
Ag2_4 N4_2 1_555 1_555
N1A C1A 1_555 1_555
N1B C1B 1_555 1_555
N1K Ag1 1_555 1_555
N1I C1I 1_555 1_555
N1J C1J 1_555 1_555
N1I_2 Ag1B 1_555 1_555
N2A C1A 1_555 1_555
N2B C1B 1_555 1_555
N2K C1K 1_555 1_555
N2I C1I 1_555 1_555
N2J C1J 1_555 1_555
N3B C15B 1_555 1_555
N3A C15 1_555 1_555
N3K C15K 1_555 1_555
N3J C15J 1_555 1_555
N3I C15K 1_555 1_555
N4A C16A 1_555 1_555
N4B C16B 1_555 1_555
N4A_2 Ag2 1_555 1_555
N4B_2 C16B_2 1_555 1_555
N4_2 C16_2 1_555 1_555
N4B_3 Ag2 1_555 1_555
N4_3 Ag2_2 1_555 1_555
N4A_3 Ag2_2 1_555 1_555
N4A_4 Ag2_4 1_555 1_555
N4B_4 Ag2_4 1_555 1_555
N5A C16A 1_555 1_555
N5B C16B 1_555 1_555
N5A_2 C16A_2 1_555 1_555
N5B_2 C16B_2 1_555 1_555
N5_2 C16_2 1_555 1_555
N6B C31B 1_555 1_555
N6A C31 1_555 1_555
N6A_2 C31A_2 1_555 1_555
N6_2 C31_2 1_555 1_555
N6B_2 C31A_2 1_555 1_555
C1A C32A 1_555 1_555
C1B C32B 1_555 1_555
C1K N1K 1_555 1_555
C1I C32I 1_555 1_555
C1J C32J 1_555 1_555
C2A N1A 1_555 1_555
C2B N1B 1_555 1_555
C2K N1K 1_555 1_555
C2I N1I 1_555 1_555
C2J N1J 1_555 1_555
C3A N2A 1_555 1_555
C3B N2B 1_555 1_555
C3K N2K 1_555 1_555
C3I N2I 1_555 1_555
C3J N2J 1_555 1_555
C4A C3A 1_555 1_555
C4B C3B 1_555 1_555
C4K C3K 1_555 1_555
C4I C3I 1_555 1_555
C4J C3J 1_555 1_555
H1A C4A 1_555 1_555
H1B C4B 1_555 1_555
H1K C4K 1_555 1_555
H1I C4I 1_555 1_555
H1J C4J 1_555 1_555
C5A C4A 1_555 1_555
C5B C4B 1_555 1_555
C5K C4K 1_555 1_555
C5I C4I 1_555 1_555
C5J C4J 1_555 1_555
H2A C5A 1_555 1_555
H2B C5B 1_555 1_555
H2K C5K 1_555 1_555
H2I C5I 1_555 1_555
H2J C5J 1_555 1_555
C6A C5A 1_555 1_555
C6B C5B 1_555 1_555
C6K C5K 1_555 1_555
C6I C5I 1_555 1_555
C6J C5J 1_555 1_555
H3A C6A 1_555 1_555
H3B C6B 1_555 1_555
H3K C6K 1_555 1_555
H3I C6I 1_555 1_555
H3J C6J 1_555 1_555
C7A C2A 1_555 1_555
C7B C2B 1_555 1_555
C7K C2K 1_555 1_555
C7I C2I 1_555 1_555
C7J C2J 1_555 1_555
H4A C7A 1_555 1_555
H4B C7B 1_555 1_555
H4K C7K 1_555 1_555
H4I C7I 1_555 1_555
H4J C7J 1_555 1_555
C8A N2A 1_555 1_555
C8B N2B 1_555 1_555
C8K N2K 1_555 1_555
C8I N2I 1_555 1_555
C8J N2J 1_555 1_555
H5A C8A 1_555 1_555
H5B C8B 1_555 1_555
H5K C8K 1_555 1_555
H5I C8I 1_555 1_555
H5J C8J 1_555 1_555
H6A C8A 1_555 1_555
H6B C8B 1_555 1_555
H6K C8K 1_555 1_555
H6I C8I 1_555 1_555
H6J C8J 1_555 1_555
C9A C8A 1_555 1_555
C9B C8B 1_555 1_555
C9K C8K 1_555 1_555
C9I C8I 1_555 1_555
C9J C8J 1_555 1_555
C10A C9A 1_555 1_555
C10B C9B 1_555 1_555
C10K C9K 1_555 1_555
C10I C9I 1_555 1_555
C10J C9J 1_555 1_555
H7A C10A 1_555 1_555
H7B C10B 1_555 1_555
H7K C10K 1_555 1_555
H7I C10I 1_555 1_555
H7J C10J 1_555 1_555
C11A C10A 1_555 1_555
C11B C10B 1_555 1_555
C11K C10K 1_555 1_555
C11I C10I 1_555 1_555
C11J C10J 1_555 1_555
H8A C11A 1_555 1_555
H8B C11B 1_555 1_555
H8K C11K 1_555 1_555
H8I C11I 1_555 1_555
H8J C11J 1_555 1_555
C12A C11A 1_555 1_555
C12B C11B 1_555 1_555
C12K C11K 1_555 1_555
C12I C11I 1_555 1_555
C12J C11J 1_555 1_555
C13A C12A 1_555 1_555
C13B C12B 1_555 1_555
C13K C12K 1_555 1_555
C13I C12I 1_555 1_555
C13J C12J 1_555 1_555
H9A C13A 1_555 1_555
H9B C13B 1_555 1_555
H9K C13K 1_555 1_555
H9I C13I 1_555 1_555
H9J C13J 1_555 1_555
C14A C9A 1_555 1_555
C14B C9B 1_555 1_555
C14K C9K 1_555 1_555
C14I C9I 1_555 1_555
C14J C9J 1_555 1_555
H10A C14A 1_555 1_555
H10B C14B 1_555 1_555
H10K C14K 1_555 1_555
H10I C14I 1_555 1_555
H10J C14J 1_555 1_555
C15B N3 1_555 1_555
C15A N3B 1_555 1_555
C15K C12K 1_555 1_555
C15J N3K 1_555 1_555
C15I N3J 1_555 1_555
C16A C23A 1_555 1_555
C16B C23B 1_555 1_555
C16A_2 N4A_2 1_555 1_555
C16B_2 C23B_2 1_555 1_555
C16_2 C23_2 1_555 1_555
C17A N5A 1_555 1_555
C17B N5B 1_555 1_555
C17A_2 N5A_2 1_555 1_555
C17B_2 N5B_2 1_555 1_555
C17_2 N5_2 1_555 1_555
C18A N4A 1_555 1_555
C18B N4B 1_555 1_555
C18A_2 N4A_2 1_555 1_555
C18B_2 N4B_2 1_555 1_555
C18_2 N4_2 1_555 1_555
C19A C18A 1_555 1_555
C19B C18B 1_555 1_555
C19A_2 C18A_2 1_555 1_555
C19B_2 C18B_2 1_555 1_555
C19_2 C18_2 1_555 1_555
H11A C19A 1_555 1_555
H11B C19B 1_555 1_555
H11A_2 C19A_2 1_555 1_555
H11B_2 C19B_2 1_555 1_555
H11_2 C19_2 1_555 1_555
C20A C19A 1_555 1_555
C20B C19B 1_555 1_555
C20A_2 C19A_2 1_555 1_555
C20B_2 C19B_2 1_555 1_555
C20_2 C19_2 1_555 1_555
H12A C20A 1_555 1_555
H12B C20B 1_555 1_555
H12A_2 C20A_2 1_555 1_555
H12B_2 C20B_2 1_555 1_555
H12_2 C20_2 1_555 1_555
C21A C20A 1_555 1_555
C21B C20B 1_555 1_555
C21A_2 C20A_2 1_555 1_555
C21B_2 C20B_2 1_555 1_555
C21_2 C20_2 1_555 1_555
H13A C21A 1_555 1_555
H13B C21B 1_555 1_555
H13A_2 C21A_2 1_555 1_555
H13B_2 C21B_2 1_555 1_555
H13_2 C21_2 1_555 1_555
C22A C17A 1_555 1_555
C22B C17B 1_555 1_555
C22A_2 C17A_2 1_555 1_555
C22B_2 C17B_2 1_555 1_555
C22_2 C17_2 1_555 1_555
H14A C22A 1_555 1_555
H14B C22B 1_555 1_555
H14A_2 C22A_2 1_555 1_555
H14B_2 C22B_2 1_555 1_555
H14_2 C22_2 1_555 1_555
C23A H15A 1_555 1_555
C23B H15B 1_555 1_555
C23A_2 C16A_2 1_555 1_555
C23B_2 H15B_2 1_555 1_555
C23_2 H15_2 1_555 1_555
H15A_2 C23A_2 1_555 1_555
H16A C23A 1_555 1_555
H16B C23B 1_555 1_555
H16A_2 C23A_2 1_555 1_555
H16B_2 C23B_2 1_555 1_555
H16_2 C23_2 1_555 1_555
H17A C23A 1_555 1_555
H17B C23B 1_555 1_555
H17A_2 C23A_2 1_555 1_555
H17B_2 C23B_2 1_555 1_555
H17_2 C23_2 1_555 1_555
C24A N5A 1_555 1_555
C24B N5B 1_555 1_555
C24A_2 N5A_2 1_555 1_555
C24B_2 N5B_2 1_555 1_555
C24_2 N5_2 1_555 1_555
H18A C24A 1_555 1_555
H18B C24B 1_555 1_555
H18A_2 C24A_2 1_555 1_555
H18B_2 C24B_2 1_555 1_555
H18_2 C24_2 1_555 1_555
H19A C24A 1_555 1_555
H19B C24B 1_555 1_555
H19A_2 C24A_2 1_555 1_555
H19B_2 C24B_2 1_555 1_555
H19_2 C24_2 1_555 1_555
C25A C24A 1_555 1_555
C25B C24B 1_555 1_555
C25A_2 C24A_2 1_555 1_555
C25B_2 C24B_2 1_555 1_555
C25_2 C24_2 1_555 1_555
C26A C25A 1_555 1_555
C26B C25B 1_555 1_555
C26A_2 C25A_2 1_555 1_555
C26B_2 C25B_2 1_555 1_555
C26_2 C25_2 1_555 1_555
H20A C26A 1_555 1_555
H20B C26B 1_555 1_555
H20A_2 C26A_2 1_555 1_555
H20B_2 C26B_2 1_555 1_555
H20_2 C26_2 1_555 1_555
C27A C26A 1_555 1_555
C27B C26B 1_555 1_555
C27A_2 C26A_2 1_555 1_555
C27B_2 C26B_2 1_555 1_555
C27_2 C26_2 1_555 1_555
H21A C27A 1_555 1_555
H21B C27B 1_555 1_555
H21A_2 C27A_2 1_555 1_555
H21B_2 C27B_2 1_555 1_555
H21_2 C27_2 1_555 1_555
C28A C27A 1_555 1_555
C28B C27B 1_555 1_555
C28A_2 C27A_2 1_555 1_555
C28B_2 C27B_2 1_555 1_555
C28_2 C27_2 1_555 1_555
C29A C28A 1_555 1_555
C29B C28B 1_555 1_555
C29A_2 C28A_2 1_555 1_555
C29B_2 C28B_2 1_555 1_555
C29_2 C28_2 1_555 1_555
H22A C29A 1_555 1_555
H22B C29B 1_555 1_555
H22A_2 C29A_2 1_555 1_555
H22B_2 C29B_2 1_555 1_555
H22_2 C29_2 1_555 1_555
C30A C25A 1_555 1_555
C30B C25B 1_555 1_555
C30A_2 C25A_2 1_555 1_555
C30B_2 C25B_2 1_555 1_555
C30_2 C25_2 1_555 1_555
H23A C30A 1_555 1_555
H23B C30B 1_555 1_555
H23A_2 C30A_2 1_555 1_555
H23B_2 C30B_2 1_555 1_555
H23_2 C30_2 1_555 1_555
C31B N6 1_555 1_555
C31A N6B 1_555 1_555
C31A_2 C28A_2 1_555 1_555
C31_2 N6A_2 1_555 1_555
C31B_2 N6_2 1_555 1_555
C32A H24A 1_555 1_555
C32B H24B 1_555 1_555
C32K C1K 1_555 1_555
C32I H24I 1_555 1_555
C32J H24J 1_555 1_555
H24K C32K 1_555 1_555
H25A C32A 1_555 1_555
H25B C32B 1_555 1_555
H25K C32K 1_555 1_555
H25I C32I 1_555 1_555
H25J C32J 1_555 1_555
H26A C32A 1_555 1_555
H26B C32B 1_555 1_555
H26K C32K 1_555 1_555
H26I C32I 1_555 1_555
H26J C32J 1_555 1_555
F4A Sb1 1_555 1_555
F4B Sb1 1_555 1_555
F4I Sb1 1_555 1_555
F4J Sb1 1_555 1_555
F4K Sb1 1_555 1_555
F5F Sb2 1_555 1_555
F6F Sb2 1_555 1_555
F7F Sb2 1_555 1_555
F9J Sb3 1_555 1_555
F10J Sb3 1_555 1_555
C2 C3 1_555 1_555
C6 C7 1_555 1_555
C13 C14 1_555 1_555
C17 C18 1_555 1_555
C21 C22 1_555 1_555
C29 C30 1_555 1_555
N3A C15A 1_555 1_555
N3I C15I 1_555 1_555
N6A C31A 1_555 1_555
N6B_2 C31B_2 1_555 1_555
C2A C3A 1_555 1_555
C2B C3B 1_555 1_555
C2K C3K 1_555 1_555
C2I C3I 1_555 1_555
C2J C3J 1_555 1_555
C6A C7A 1_555 1_555
C6B C7B 1_555 1_555
C6K C7K 1_555 1_555
C6I C7I 1_555 1_555
C6J C7J 1_555 1_555
C12A C15A 1_555 1_555
C12B C15B 1_555 1_555
C12I C15I 1_555 1_555
C12J C15J 1_555 1_555
C13A C14A 1_555 1_555
C13B C14B 1_555 1_555
C13K C14K 1_555 1_555
C13I C14I 1_555 1_555
C13J C14J 1_555 1_555
C17A C18A 1_555 1_555
C17B C18B 1_555 1_555
C17A_2 C18A_2 1_555 1_555
C17B_2 C18B_2 1_555 1_555
C17_2 C18_2 1_555 1_555
C21A C22A 1_555 1_555
C21B C22B 1_555 1_555
C21A_2 C22A_2 1_555 1_555
C21B_2 C22B_2 1_555 1_555
C21_2 C22_2 1_555 1_555
C28A C31A 1_555 1_555
C28B C31B 1_555 1_555
C28B_2 C31B_2 1_555 1_555
C28_2 C31_2 1_555 1_555
C29A C30A 1_555 1_555
C29B C30B 1_555 1_555
C29A_2 C30A_2 1_555 1_555
C29B_2 C30B_2 1_555 1_555
C29_2 C30_2 1_555 1_555

#END
