
#######################################################################
#
#                 Cambridge Crystallographic Data Centre
#                                CCDC 
#
#######################################################################
#
# If this CIF has been generated from an entry in the Cambridge 
# Structural Database, then it will include bibliographic, chemical, 
# crystal, experimental, refinement or atomic coordinate data resulting 
# from the CCDC's data processing and validation procedures.
#
#######################################################################

data_GIQGET
_symmetry_cell_setting           hexagonal
_symmetry_space_group_name_H-M   'P 63 2 2'
_symmetry_Int_Tables_number      182
_space_group_name_Hall           "P 6c 2'c"
loop_
_symmetry_equiv_pos_site_id
_symmetry_equiv_pos_as_xyz
1 x,y,z
2 -y,x-y,z
3 -x+y,-x,z
4 -x,-y,1/2+z
5 y,-x+y,1/2+z
6 x-y,x,1/2+z
7 y,x,-z
8 x-y,-y,-z
9 -x,-x+y,-z
10 -y,-x,1/2-z
11 -x+y,y,1/2-z
12 x,x-y,1/2-z
_cell_length_a                   17.9271(6)
_cell_length_b                   17.9271(6)
_cell_length_c                   37.530(3)
_cell_angle_alpha                90
_cell_angle_beta                 90
_cell_angle_gamma                120
_cell_volume                     10445.5
loop_
_atom_site_label
_atom_site_type_symbol
_atom_site_fract_x
_atom_site_fract_y
_atom_site_fract_z
Ag1 Ag 0.28888(8) 0.14444(4) 0.2500
N1 N 0.2883(4) 0.1604(4) 0.30455(16)
N2 N 0.3240(3) 0.2219(3) 0.35667(15)
C1 C 0.2611(4) 0.5874(4) 0.36683(16)
H1 H 0.2111 0.5319 0.3671
C3 C 0.3465(5) 0.2289(4) 0.3224(2)
C4 C 0.2264(5) 0.1060(5) 0.3302(2)
C5 C 0.2493(3) 0.1449(4) 0.36317(19)
C6 C 0.2046(4) 0.1073(6) 0.3930(2)
H3 H 0.2221 0.1359 0.4153
C7 C 0.1334(6) 0.0268(7) 0.3905(4)
H4 H 0.1001 -0.0009 0.4111
C8 C 0.1095(5) -0.0156(6) 0.3560(3)
H5 H 0.0615 -0.0720 0.3534
C9 C 0.1593(5) 0.0292(6) 0.3277(3)
H6 H 0.1443 0.0030 0.3048
C10 C 0.3737(5) 0.2901(5) 0.3838(2)
H7 H 0.4353 0.3070 0.3825
H8 H 0.3524 0.2669 0.4080
C11 C 0.3644(5) 0.3686(4) 0.37756(18)
C12 C 0.4295(6) 0.4428(6) 0.37711(19)
H9 H 0.4853 0.4492 0.3789
C13 C 0.4212(6) 0.5152(7) 0.3740(2)
H10 H 0.4724 0.5698 0.3752
C14 C 0.3486(3) 0.5144(4) 0.36958(19)
C15 C 0.2853(5) 0.4392(6) 0.3725(3)
H11 H 0.2290 0.4317 0.3708
C16 C 0.2929(6) 0.3664(6) 0.3781(4)
H12 H 0.2421 0.3128 0.3824
C17 C 0.3426(4) 0.5932(4) 0.3666(2)
C34 C 0.4248(7) 0.3030(6) 0.3073(3)
H26 H 0.4273 0.2946 0.2816
H27 H 0.4759 0.3073 0.3188
H28 H 0.4231 0.3560 0.3116
Ag1A Ag 0.85556(4) 1.14444(9) 0.2500
Ag1B Ag -0.14444(9) 0.71112(8) 0.2500
Ag1B_2 Ag 0.85556(9) -0.28888(8) 0.2500
Ag1A_2 Ag -0.14444(4) -0.85556(9) 0.2500
N1A N 0.8396(4) 1.1279(6) 0.30455(16)
N1B N -0.1279(6) 0.7117(4) 0.30455(16)
N1K N 0.2883(4) 0.1279(6) 0.19545(16)
N1I N 0.8396(4) -0.2883(4) 0.19545(16)
N1J N -0.1279(6) -0.8396(4) 0.19545(16)
N1I_2 N -0.1604(4) 0.7117(4) 0.19545(16)
N2A N 0.7781(3) 1.1021(4) 0.35667(15)
N2B N -0.1021(4) 0.6760(3) 0.35667(15)
N2K N 0.3240(3) 0.1021(4) 0.14333(15)
N2I N 0.7781(3) -0.3240(3) 0.14333(15)
N2J N -0.1021(4) -0.7781(3) 0.14333(15)
C1B C 0.3263(6) 0.7389(4) 0.36683(16)
C1A C 0.4126(4) 0.6737(6) 0.36683(16)
C1K C 0.2611(4) -0.3263(6) 0.13317(16)
C1J C 0.3263(6) -0.4126(4) 0.13317(16)
C1I C 0.4126(4) -0.2611(4) 0.13317(16)
H1B H 0.3208 0.7889 0.3671
H1A H 0.4681 0.6792 0.3671
H1K H 0.2111 -0.3208 0.1329
H1J H 0.3208 -0.4681 0.1329
H1I H 0.4681 -0.2111 0.1329
C3A C 0.7711(4) 1.1176(6) 0.3224(2)
C3B C -0.1176(6) 0.6535(5) 0.3224(2)
C3K C 0.3465(5) 0.1176(6) 0.1776(2)
C3I C 0.7711(4) -0.3465(5) 0.1776(2)
C3J C -0.1176(6) -0.7711(4) 0.1776(2)
C4A C 0.8940(5) 1.1204(7) 0.3302(2)
C4B C -0.1204(7) 0.7736(5) 0.3302(2)
C4K C 0.2264(5) 0.1204(7) 0.1698(2)
C4I C 0.8940(5) -0.2264(5) 0.1698(2)
C4J C -0.1204(7) -0.8940(5) 0.1698(2)
C5A C 0.8551(4) 1.1044(5) 0.36317(19)
C5B C -0.1044(5) 0.7507(3) 0.36317(19)
C5K C 0.2493(3) 0.1044(5) 0.13683(19)
C5I C 0.8551(4) -0.2493(3) 0.13683(19)
C5J C -0.1044(5) -0.8551(4) 0.13683(19)
C6A C 0.8927(6) 1.0973(7) 0.3930(2)
C6B C -0.0973(7) 0.7954(4) 0.3930(2)
C6K C 0.2046(4) 0.0973(7) 0.1070(2)
C6I C 0.8927(6) -0.2046(4) 0.1070(2)
C6J C -0.0973(7) -0.8927(6) 0.1070(2)
H3A H 0.8641 1.0862 0.4153
H3B H -0.0862 0.7779 0.4153
H3K H 0.2221 0.0862 0.0847
H3I H 0.8641 -0.2221 0.0847
H3J H -0.0862 -0.8641 0.0847
C7A C 0.9732(7) 1.1066(9) 0.3905(4)
C7B C -0.1066(9) 0.8666(6) 0.3905(4)
C7K C 0.1334(6) 0.1066(9) 0.1095(4)
C7I C 0.9732(7) -0.1334(6) 0.1095(4)
C7J C -0.1066(9) -0.9732(7) 0.1095(4)
H4A H 1.0009 1.1010 0.4111
H4B H -0.1010 0.8999 0.4111
H4K H 0.1001 0.1010 0.0889
H4I H 1.0009 -0.1001 0.0889
H4J H -0.1010 -1.0009 0.0889
C8A C 1.0156(6) 1.1251(8) 0.3560(3)
C8B C -0.1251(8) 0.8905(5) 0.3560(3)
C8K C 0.1095(5) 0.1251(8) 0.1440(3)
C8I C 1.0156(6) -0.1095(5) 0.1440(3)
C8J C -0.1251(8) -1.0156(6) 0.1440(3)
H5A H 1.0720 1.1335 0.3534
H5B H -0.1335 0.9385 0.3534
H5K H 0.0615 0.1335 0.1466
H5I H 1.0720 -0.0615 0.1466
H5J H -0.1335 -1.0720 0.1466
C9A C 0.9708(6) 1.1301(8) 0.3277(3)
C9B C -0.1301(8) 0.8407(5) 0.3277(3)
C9K C 0.1593(5) 0.1301(8) 0.1723(3)
C9I C 0.9708(6) -0.1593(5) 0.1723(3)
C9J C -0.1301(8) -0.9708(6) 0.1723(3)
H6A H 0.9970 1.1413 0.3048
H6B H -0.1413 0.8557 0.3048
H6K H 0.1443 0.1413 0.1952
H6I H 0.9970 -0.1443 0.1952
H6J H -0.1413 -0.9970 0.1952
C10A C 0.7099(5) 1.0836(7) 0.3838(2)
C10B C -0.0836(7) 0.6263(5) 0.3838(2)
C10K C 0.3737(5) 0.0836(7) 0.1162(2)
C10I C 0.7099(5) -0.3737(5) 0.1162(2)
C10J C -0.0836(7) -0.7099(5) 0.1162(2)
H7A H 0.6930 1.1283 0.3825
H7B H -0.1283 0.5647 0.3825
H7K H 0.4353 0.1283 0.1175
H7I H 0.6930 -0.4353 0.1175
H7J H -0.1283 -0.6930 0.1175
H8A H 0.7331 1.0855 0.4080
H8B H -0.0855 0.6476 0.4080
H8K H 0.3524 0.0855 0.0920
H8I H 0.7331 -0.3524 0.0920
H8J H -0.0855 -0.7331 0.0920
C11A C 0.6314(4) 0.9958(6) 0.37756(18)
C11B C 0.0042(6) 0.6356(5) 0.37756(18)
C11K C 0.3644(5) -0.0042(6) 0.12244(18)
C11I C 0.6314(4) -0.3644(5) 0.12244(18)
C11J C 0.0042(6) -0.6314(4) 0.12244(18)
C12A C 0.5572(6) 0.9867(8) 0.37711(19)
C12B C 0.0133(8) 0.5705(6) 0.37711(19)
C12K C 0.4295(6) -0.0133(8) 0.12289(19)
C12I C 0.5572(6) -0.4295(6) 0.12289(19)
C12J C 0.0133(8) -0.5572(6) 0.12289(19)
H9A H 0.5508 1.0361 0.3789
H9B H -0.0361 0.5147 0.3789
H9K H 0.4853 0.0361 0.1211
H9I H 0.5508 -0.4853 0.1211
H9J H -0.0361 -0.5508 0.1211
C13A C 0.4848(7) 0.9060(9) 0.3740(2)
C13B C 0.0940(9) 0.5788(6) 0.3740(2)
C13K C 0.4212(6) -0.0940(9) 0.1260(2)
C13I C 0.4848(7) -0.4212(6) 0.1260(2)
C13J C 0.0940(9) -0.4848(7) 0.1260(2)
H10A H 0.4302 0.9026 0.3752
H10B H 0.0974 0.5276 0.3752
H10K H 0.4724 -0.0974 0.1248
H10I H 0.4302 -0.4724 0.1248
H10J H 0.0974 -0.4302 0.1248
C14A C 0.4856(4) 0.8342(5) 0.36958(19)
C14B C 0.1658(5) 0.6514(3) 0.36958(19)
C14K C 0.3486(3) -0.1658(5) 0.13042(19)
C14I C 0.4856(4) -0.3486(3) 0.13042(19)
C14J C 0.1658(5) -0.4856(4) 0.13042(19)
C15A C 0.5608(6) 0.8461(8) 0.3725(3)
C15B C 0.1539(8) 0.7147(5) 0.3725(3)
C15K C 0.2853(5) -0.1539(8) 0.1275(3)
C15I C 0.5608(6) -0.2853(5) 0.1275(3)
C15J C 0.1539(8) -0.5608(6) 0.1275(3)
H11A H 0.5683 0.7973 0.3708
H11B H 0.2027 0.7710 0.3708
H11K H 0.2290 -0.2027 0.1292
H11I H 0.5683 -0.2290 0.1292
H11J H 0.2027 -0.5683 0.1292
C16A C 0.6336(6) 0.9265(8) 0.3781(4)
C16B C 0.0735(8) 0.7071(6) 0.3781(4)
C16K C 0.2929(6) -0.0735(8) 0.1219(4)
C16I C 0.6336(6) -0.2929(6) 0.1219(4)
C16J C 0.0735(8) -0.6336(6) 0.1219(4)
H12A H 0.6872 0.9293 0.3824
H12B H 0.0707 0.7579 0.3824
H12K H 0.2421 -0.0707 0.1176
H12I H 0.6872 -0.2421 0.1176
H12J H 0.0707 -0.6872 0.1176
C17B C 0.2506(6) 0.6574(4) 0.3666(2)
C17A C 0.4068(4) 0.7494(6) 0.3666(2)
C17K C 0.3426(4) -0.2506(6) 0.1334(2)
C17J C 0.2506(6) -0.4068(4) 0.1334(2)
C17I C 0.4068(4) -0.3426(4) 0.1334(2)
C34A C 0.6970(6) 1.1218(9) 0.3073(3)
C34B C -0.1218(9) 0.5752(7) 0.3073(3)
C34K C 0.4248(7) 0.1218(9) 0.1927(3)
C34I C 0.6970(6) -0.4248(7) 0.1927(3)
C34J C -0.1218(9) -0.6970(6) 0.1927(3)
H26A H 0.7054 1.1327 0.2816
H26B H -0.1327 0.5727 0.2816
H26K H 0.4273 0.1327 0.2184
H26I H 0.7054 -0.4273 0.2184
H26J H -0.1327 -0.7054 0.2184
H27A H 0.6927 1.1686 0.3188
H27B H -0.1686 0.5241 0.3188
H27K H 0.4759 0.1686 0.1812
H27I H 0.6927 -0.4759 0.1812
H27J H -0.1686 -0.6927 0.1812
H28A H 0.6440 1.0671 0.3116
H28B H -0.0671 0.5769 0.3116
H28K H 0.4231 0.0671 0.1884
H28I H 0.6440 -0.4231 0.1884
H28J H -0.0671 -0.6440 0.1884
Ag2 Ag 0.6667 0.3333 0.12188(2)
N3 N 0.5320(3) 0.3115(3) 0.11480(15)
N4 N 0.4151(3) 0.2907(3) 0.08590(15)
C2 C 0.2599(3) 0.5878(4) 0.03835(17)
H2 H 0.2086 0.5333 0.0382
C18 C 0.4899(4) 0.2899(3) 0.08403(19)
C19 C 0.4088(3) 0.3149(3) 0.1203(2)
C20 C 0.4845(3) 0.3283(4) 0.13741(19)
C21 C 0.4964(4) 0.3521(4) 0.1733(2)
H13 H 0.5461 0.3600 0.1857
C22 C 0.4357(5) 0.3637(5) 0.1902(3)
H14 H 0.4449 0.3812 0.2144
C23 C 0.3594(5) 0.3507(5) 0.1732(3)
H15 H 0.3178 0.3576 0.1862
C24 C 0.3461(4) 0.3275(4) 0.1373(2)
H16 H 0.2969 0.3207 0.1248
C25 C 0.5205(4) 0.2662(4) 0.05081(17)
H17 H 0.5758 0.2696 0.0555
H18 H 0.5274 0.3062 0.0316
H19 H 0.4780 0.2074 0.0437
C26 C 0.3563(4) 0.2795(4) 0.0550(2)
H20 H 0.3787 0.2673 0.0330
H21 H 0.2982 0.2300 0.0597
C27 C 0.3508(4) 0.3589(5) 0.0500(2)
C28 C 0.2735(4) 0.3566(4) 0.0478(2)
H22 H 0.2214 0.3030 0.0497
C29 C 0.2706(3) 0.4311(4) 0.0427(2)
H23 H 0.2155 0.4263 0.0404
C30 C 0.3397(4) 0.5096(4) 0.0408(2)
C31 C 0.4178(5) 0.5113(5) 0.0414(4)
H24 H 0.4696 0.5645 0.0379
C32 C 0.4219(5) 0.4363(5) 0.0471(4)
H25 H 0.4767 0.4404 0.0489
C33 C 0.3372(4) 0.5905(4) 0.03847(17)
Ag2A Ag 0.6667 1.3334 0.12188(2)
Ag2_2 Ag -0.3333 0.3333 0.12188(2)
Ag2_3 Ag -0.3333 -0.6667 0.12188(2)
Ag2_4 Ag 0.6667 -0.6667 0.12188(2)
N3A N 0.6885(3) 1.2205(4) 0.11480(15)
N3B N -0.2205(4) 0.4680(3) 0.11480(15)
N3A_2 N 0.6885(3) 0.2205(4) 0.11480(15)
N3B_2 N -0.2205(4) -0.5320(3) 0.11480(15)
N3_2 N 0.5320(3) -0.6885(3) 0.11480(15)
N3B_3 N 0.7795(4) 0.4680(3) 0.11480(15)
N3_3 N -0.4680(3) 0.3115(3) 0.11480(15)
N3A_3 N -0.3115(3) 0.2205(4) 0.11480(15)
N3A_4 N 0.6885(3) -0.7795(4) 0.11480(15)
N3B_4 N 0.7795(4) -0.5320(3) 0.11480(15)
N4A N 0.7093(3) 1.1244(4) 0.08590(15)
N4B N -0.1244(4) 0.5849(3) 0.08590(15)
N4A_2 N 0.7093(3) 0.1244(4) 0.08590(15)
N4B_2 N -0.1244(4) -0.4151(3) 0.08590(15)
N4_2 N 0.4151(3) -0.7093(3) 0.08590(15)
C2B C 0.3279(5) 0.7401(3) 0.03835(17)
C2A C 0.4122(4) 0.6721(5) 0.03835(17)
C2A_2 C 0.4122(4) -0.3279(5) 0.03835(17)
C2_2 C 0.2599(3) -0.4122(4) 0.03835(17)
C2B_2 C 0.3279(5) -0.2599(3) 0.03835(17)
H2B H 0.3247 0.7914 0.0382
H2A H 0.4667 0.6753 0.0382
H2A_2 H 0.4667 -0.3247 0.0382
H2_2 H 0.2086 -0.4667 0.0382
H2B_2 H 0.3247 -0.2086 0.0382
C18A C 0.7101(3) 1.2000(5) 0.08403(19)
C18B C -0.2000(5) 0.5101(4) 0.08403(19)
C18A_2 C 0.7101(3) 0.2000(5) 0.08403(19)
C18B_2 C -0.2000(5) -0.4899(4) 0.08403(19)
C18_2 C 0.4899(4) -0.7101(3) 0.08403(19)
C19A C 0.6851(3) 1.0939(4) 0.1203(2)
C19B C -0.0939(4) 0.5912(3) 0.1203(2)
C19A_2 C 0.6851(3) 0.0939(4) 0.1203(2)
C19B_2 C -0.0939(4) -0.4088(3) 0.1203(2)
C19_2 C 0.4088(3) -0.6851(3) 0.1203(2)
C20A C 0.6717(4) 1.1562(5) 0.13741(19)
C20B C -0.1562(5) 0.5155(3) 0.13741(19)
C20A_2 C 0.6717(4) 0.1562(5) 0.13741(19)
C20B_2 C -0.1562(5) -0.4845(3) 0.13741(19)
C20_2 C 0.4845(3) -0.6717(4) 0.13741(19)
C21A C 0.6479(4) 1.1443(6) 0.1733(2)
C21B C -0.1443(6) 0.5036(4) 0.1733(2)
C21A_2 C 0.6479(4) 0.1443(6) 0.1733(2)
C21B_2 C -0.1443(6) -0.4964(4) 0.1733(2)
C21_2 C 0.4964(4) -0.6479(4) 0.1733(2)
H13A H 0.6400 1.1861 0.1857
H13B H -0.1861 0.4539 0.1857
H13A_2 H 0.6400 0.1861 0.1857
H13B_2 H -0.1861 -0.5461 0.1857
H13_2 H 0.5461 -0.6400 0.1857
C22A C 0.6363(5) 1.0720(7) 0.1902(3)
C22B C -0.0720(7) 0.5643(5) 0.1902(3)
C22A_2 C 0.6363(5) 0.0720(7) 0.1902(3)
C22B_2 C -0.0720(7) -0.4357(5) 0.1902(3)
C22_2 C 0.4357(5) -0.6363(5) 0.1902(3)
H14A H 0.6188 1.0637 0.2144
H14B H -0.0637 0.5551 0.2144
H14A_2 H 0.6188 0.0637 0.2144
H14B_2 H -0.0637 -0.4449 0.2144
H14_2 H 0.4449 -0.6188 0.2144
C23A C 0.6493(5) 1.0087(7) 0.1732(3)
C23B C -0.0087(7) 0.6406(5) 0.1732(3)
C23A_2 C 0.6493(5) 0.0087(7) 0.1732(3)
C23B_2 C -0.0087(7) -0.3594(5) 0.1732(3)
C23_2 C 0.3594(5) -0.6493(5) 0.1732(3)
H15A H 0.6424 0.9602 0.1862
H15B H 0.0398 0.6822 0.1862
H15A_2 H 0.6424 -0.0398 0.1862
H15B_2 H 0.0398 -0.3178 0.1862
H15_2 H 0.3178 -0.6424 0.1862
C24A C 0.6725(4) 1.0186(6) 0.1373(2)
C24B C -0.0186(6) 0.6539(4) 0.1373(2)
C24A_2 C 0.6725(4) 0.0186(6) 0.1373(2)
C24B_2 C -0.0186(6) -0.3461(4) 0.1373(2)
C24_2 C 0.3461(4) -0.6725(4) 0.1373(2)
H16A H 0.6793 0.9762 0.1248
H16B H 0.0238 0.7031 0.1248
H16A_2 H 0.6793 -0.0238 0.1248
H16B_2 H 0.0238 -0.2969 0.1248
H16_2 H 0.2969 -0.6793 0.1248
C25A C 0.7338(4) 1.2543(6) 0.05081(17)
C25B C -0.2543(6) 0.4795(4) 0.05081(17)
C25A_2 C 0.7338(4) 0.2543(6) 0.05081(17)
C25B_2 C -0.2543(6) -0.5205(4) 0.05081(17)
C25_2 C 0.5205(4) -0.7338(4) 0.05081(17)
H17A H 0.7304 1.3062 0.0555
H17B H -0.3062 0.4242 0.0555
H17A_2 H 0.7304 0.3062 0.0555
H17B_2 H -0.3062 -0.5758 0.0555
H17_2 H 0.5758 -0.7304 0.0555
H18A H 0.6938 1.2212 0.0316
H18B H -0.2212 0.4726 0.0316
H18A_2 H 0.6938 0.2212 0.0316
H18B_2 H -0.2212 -0.5274 0.0316
H18_2 H 0.5274 -0.6938 0.0316
H19A H 0.7926 1.2706 0.0437
H19B H -0.2706 0.5220 0.0437
H19A_2 H 0.7926 0.2706 0.0437
H19B_2 H -0.2706 -0.4780 0.0437
H19_2 H 0.4780 -0.7926 0.0437
C26A C 0.7205(4) 1.0768(6) 0.0550(2)
C26B C -0.0768(6) 0.6437(4) 0.0550(2)
C26A_2 C 0.7205(4) 0.0768(6) 0.0550(2)
C26B_2 C -0.0768(6) -0.3563(4) 0.0550(2)
C26_2 C 0.3563(4) -0.7205(4) 0.0550(2)
H20A H 0.7327 1.1114 0.0330
H20B H -0.1114 0.6213 0.0330
H20A_2 H 0.7327 0.1114 0.0330
H20B_2 H -0.1114 -0.3787 0.0330
H20_2 H 0.3787 -0.7327 0.0330
H21A H 0.7700 1.0682 0.0597
H21B H -0.0682 0.7018 0.0597
H21A_2 H 0.7700 0.0682 0.0597
H21B_2 H -0.0682 -0.2982 0.0597
H21_2 H 0.2982 -0.7700 0.0597
C27A C 0.6411(5) 0.9919(6) 0.0500(2)
C27B C 0.0081(6) 0.6492(4) 0.0500(2)
C27A_2 C 0.6411(5) -0.0081(6) 0.0500(2)
C27B_2 C 0.0081(6) -0.3508(4) 0.0500(2)
C27_2 C 0.3508(4) -0.6411(5) 0.0500(2)
C28A C 0.6434(4) 0.9169(6) 0.0478(2)
C28B C 0.0831(6) 0.7265(4) 0.0478(2)
C28A_2 C 0.6434(4) -0.0831(6) 0.0478(2)
C28B_2 C 0.0831(6) -0.2735(4) 0.0478(2)
C28_2 C 0.2735(4) -0.6434(4) 0.0478(2)
H22A H 0.6970 0.9184 0.0497
H22B H 0.0816 0.7786 0.0497
H22A_2 H 0.6970 -0.0816 0.0497
H22B_2 H 0.0816 -0.2214 0.0497
H22_2 H 0.2214 -0.6970 0.0497
C29A C 0.5689(4) 0.8395(5) 0.0427(2)
C29B C 0.1605(5) 0.7294(3) 0.0427(2)
C29A_2 C 0.5689(4) -0.1605(5) 0.0427(2)
C29B_2 C 0.1605(5) -0.2706(3) 0.0427(2)
C29_2 C 0.2706(3) -0.5689(4) 0.0427(2)
H23A H 0.5737 0.7892 0.0404
H23B H 0.2108 0.7845 0.0404
H23A_2 H 0.5737 -0.2108 0.0404
H23B_2 H 0.2108 -0.2155 0.0404
H23_2 H 0.2155 -0.5737 0.0404
C30A C 0.4904(4) 0.8301(6) 0.0408(2)
C30B C 0.1699(6) 0.6603(4) 0.0408(2)
C30A_2 C 0.4904(4) -0.1699(6) 0.0408(2)
C30B_2 C 0.1699(6) -0.3397(4) 0.0408(2)
C30_2 C 0.3397(4) -0.4904(4) 0.0408(2)
C31A C 0.4887(5) 0.9065(7) 0.0414(4)
C31B C 0.0935(7) 0.5822(5) 0.0414(4)
C31A_2 C 0.4887(5) -0.0935(7) 0.0414(4)
C31B_2 C 0.0935(7) -0.4178(5) 0.0414(4)
C31_2 C 0.4178(5) -0.4887(5) 0.0414(4)
H24A H 0.4355 0.9051 0.0379
H24B H 0.0949 0.5304 0.0379
H24A_2 H 0.4355 -0.0949 0.0379
H24B_2 H 0.0949 -0.4696 0.0379
H24_2 H 0.4696 -0.4355 0.0379
C32A C 0.5637(5) 0.9856(7) 0.0471(4)
C32B C 0.0144(7) 0.5781(5) 0.0471(4)
C32A_2 C 0.5637(5) -0.0144(7) 0.0471(4)
C32B_2 C 0.0144(7) -0.4219(5) 0.0471(4)
C32_2 C 0.4219(5) -0.5637(5) 0.0471(4)
H25A H 0.5596 1.0363 0.0489
H25B H -0.0363 0.5233 0.0489
H25A_2 H 0.5596 0.0363 0.0489
H25B_2 H -0.0363 -0.4767 0.0489
H25_2 H 0.4767 -0.5596 0.0489
C33B C 0.2533(6) 0.6628(4) 0.03847(17)
C33A C 0.4095(4) 0.7467(6) 0.03847(17)
C33A_2 C 0.4095(4) -0.2533(6) 0.03847(17)
C33_2 C 0.3372(4) -0.4095(4) 0.03847(17)
C33B_2 C 0.2533(6) -0.3372(4) 0.03847(17)
Sb2 Sb 0.71563(4) 0.71563(4) 0.0000
F5 F 0.6855(5) 0.7760(4) -0.0306(2)
F6 F 0.7571(5) 0.8164(4) 0.0260(3)
F7 F 0.6792(4) 0.6200(4) -0.02760(19)
F5F F 0.7760(4) 0.6855(5) 0.0306(2)
F6F F 0.8164(4) 0.7571(5) -0.0260(3)
F7F F 0.6200(4) 0.6792(4) 0.02760(19)
Sb4 Sb 1.14573(8) 0.29146(15) 0.2500
F8 F 1.2035(3) 0.4070(7) 0.2500
F9 F 1.1442(8) 0.2928(6) 0.2981(2)
F10 F 1.0498(6) 0.2965(7) 0.2481(4)
F11 F 1.0888(4) 0.1775(7) 0.2500
F9J F 1.1486(10) 0.2928(6) 0.2019(2)
F10J F 1.2467(9) 0.2965(7) 0.2519(4)
O1 O 0.4363(16) 0.5579(17) 0.2838(6)
Sb1? Sb 0.6667 0.3333 0.2500
F1? F 0.6667 0.3333 0.29999(13)
F2? F 0.6067(3) 0.3933(3) 0.2500
F3? F 0.5493(6) 0.2530(8) 0.2515(6)
F4? F 0.7735(7) 0.4329(8) 0.2545(4)
Sb3? Sb 0.6892(5) 0.6892(5) 0.0000
loop_
_geom_bond_atom_site_label_1
_geom_bond_atom_site_label_2
_geom_bond_site_symmetry_1
_geom_bond_site_symmetry_2
Ag1 N1 1_555 1_555
Ag2 N3 1_555 1_555
N1 C3 1_555 1_555
N2 C3 1_555 1_555
C1 H1 1_555 1_555
N3 C18 1_555 1_555
N4 C18 1_555 1_555
C2 H2 1_555 1_555
C3 C34 1_555 1_555
C4 N1 1_555 1_555
C5 N2 1_555 1_555
C6 C5 1_555 1_555
H3 C6 1_555 1_555
C7 C6 1_555 1_555
H4 C7 1_555 1_555
C8 C7 1_555 1_555
H5 C8 1_555 1_555
C9 C4 1_555 1_555
H6 C9 1_555 1_555
C10 N2 1_555 1_555
H7 C10 1_555 1_555
H8 C10 1_555 1_555
C11 C10 1_555 1_555
C12 C11 1_555 1_555
H9 C12 1_555 1_555
C13 C12 1_555 1_555
H10 C13 1_555 1_555
C14 C13 1_555 1_555
C15 C14 1_555 1_555
H11 C15 1_555 1_555
C16 C11 1_555 1_555
H12 C16 1_555 1_555
C17 C1 1_555 1_555
C18 C25 1_555 1_555
C19 N4 1_555 1_555
C20 N3 1_555 1_555
C21 C20 1_555 1_555
H13 C21 1_555 1_555
C22 C21 1_555 1_555
H14 C22 1_555 1_555
C23 C22 1_555 1_555
H15 C23 1_555 1_555
C24 C19 1_555 1_555
H16 C24 1_555 1_555
C25 H17 1_555 1_555
H18 C25 1_555 1_555
H19 C25 1_555 1_555
C26 N4 1_555 1_555
H20 C26 1_555 1_555
H21 C26 1_555 1_555
C27 C26 1_555 1_555
C28 C27 1_555 1_555
H22 C28 1_555 1_555
C29 C28 1_555 1_555
H23 C29 1_555 1_555
C30 C29 1_555 1_555
C31 C30 1_555 1_555
H24 C31 1_555 1_555
C32 C27 1_555 1_555
H25 C32 1_555 1_555
C33 C2 1_555 1_555
C34 H26 1_555 1_555
H27 C34 1_555 1_555
H28 C34 1_555 1_555
Sb2 F5 1_555 1_555
F6 Sb2 1_555 1_555
F7 Sb2 1_555 1_555
Sb4 F8 1_555 1_555
F9 Sb4 1_555 1_555
F10 Sb4 1_555 1_555
F11 Sb4 1_555 1_555
Ag1A N1A 1_555 1_555
Ag1B N1B 1_555 1_555
Ag1B_2 N1I 1_555 1_555
Ag1A_2 N1J 1_555 1_555
Ag2A N3A 1_555 1_555
Ag2_2 N3B 1_555 1_555
Ag2_3 N3B_2 1_555 1_555
Ag2_4 N3_2 1_555 1_555
N1A C3A 1_555 1_555
N1B C3B 1_555 1_555
N1K Ag1 1_555 1_555
N1I C3I 1_555 1_555
N1J C3J 1_555 1_555
N1I_2 Ag1B 1_555 1_555
N2A C3A 1_555 1_555
N2B C3B 1_555 1_555
N2K C3K 1_555 1_555
N2I C3I 1_555 1_555
N2J C3J 1_555 1_555
C1B H1B 1_555 1_555
C1A C17 1_555 1_555
C1K H1K 1_555 1_555
C1J H1J 1_555 1_555
C1I H1I 1_555 1_555
H1A C1A 1_555 1_555
N3A C18A 1_555 1_555
N3B C18B 1_555 1_555
N3A_2 Ag2 1_555 1_555
N3B_2 C18B_2 1_555 1_555
N3_2 C18_2 1_555 1_555
N3B_3 Ag2 1_555 1_555
N3_3 Ag2_2 1_555 1_555
N3A_3 Ag2_2 1_555 1_555
N3A_4 Ag2_4 1_555 1_555
N3B_4 Ag2_4 1_555 1_555
N4A C18A 1_555 1_555
N4B C18B 1_555 1_555
N4A_2 C18A_2 1_555 1_555
N4B_2 C18B_2 1_555 1_555
N4_2 C18_2 1_555 1_555
C2B H2B 1_555 1_555
C2A C33 1_555 1_555
C2A_2 H2A_2 1_555 1_555
C2_2 H2_2 1_555 1_555
C2B_2 H2B_2 1_555 1_555
H2A C2A 1_555 1_555
C3A C34A 1_555 1_555
C3B C34B 1_555 1_555
C3K N1K 1_555 1_555
C3I C34I 1_555 1_555
C3J C34J 1_555 1_555
C4A N1A 1_555 1_555
C4B N1B 1_555 1_555
C4K N1K 1_555 1_555
C4I N1I 1_555 1_555
C4J N1J 1_555 1_555
C5A N2A 1_555 1_555
C5B N2B 1_555 1_555
C5K N2K 1_555 1_555
C5I N2I 1_555 1_555
C5J N2J 1_555 1_555
C6A C5A 1_555 1_555
C6B C5B 1_555 1_555
C6K C5K 1_555 1_555
C6I C5I 1_555 1_555
C6J C5J 1_555 1_555
H3A C6A 1_555 1_555
H3B C6B 1_555 1_555
H3K C6K 1_555 1_555
H3I C6I 1_555 1_555
H3J C6J 1_555 1_555
C7A C6A 1_555 1_555
C7B C6B 1_555 1_555
C7K C6K 1_555 1_555
C7I C6I 1_555 1_555
C7J C6J 1_555 1_555
H4A C7A 1_555 1_555
H4B C7B 1_555 1_555
H4K C7K 1_555 1_555
H4I C7I 1_555 1_555
H4J C7J 1_555 1_555
C8A C7A 1_555 1_555
C8B C7B 1_555 1_555
C8K C7K 1_555 1_555
C8I C7I 1_555 1_555
C8J C7J 1_555 1_555
H5A C8A 1_555 1_555
H5B C8B 1_555 1_555
H5K C8K 1_555 1_555
H5I C8I 1_555 1_555
H5J C8J 1_555 1_555
C9A C4A 1_555 1_555
C9B C4B 1_555 1_555
C9K C4K 1_555 1_555
C9I C4I 1_555 1_555
C9J C4J 1_555 1_555
H6A C9A 1_555 1_555
H6B C9B 1_555 1_555
H6K C9K 1_555 1_555
H6I C9I 1_555 1_555
H6J C9J 1_555 1_555
C10A N2A 1_555 1_555
C10B N2B 1_555 1_555
C10K N2K 1_555 1_555
C10I N2I 1_555 1_555
C10J N2J 1_555 1_555
H7A C10A 1_555 1_555
H7B C10B 1_555 1_555
H7K C10K 1_555 1_555
H7I C10I 1_555 1_555
H7J C10J 1_555 1_555
H8A C10A 1_555 1_555
H8B C10B 1_555 1_555
H8K C10K 1_555 1_555
H8I C10I 1_555 1_555
H8J C10J 1_555 1_555
C11A C10A 1_555 1_555
C11B C10B 1_555 1_555
C11K C10K 1_555 1_555
C11I C10I 1_555 1_555
C11J C10J 1_555 1_555
C12A C11A 1_555 1_555
C12B C11B 1_555 1_555
C12K C11K 1_555 1_555
C12I C11I 1_555 1_555
C12J C11J 1_555 1_555
H9A C12A 1_555 1_555
H9B C12B 1_555 1_555
H9K C12K 1_555 1_555
H9I C12I 1_555 1_555
H9J C12J 1_555 1_555
C13A C12A 1_555 1_555
C13B C12B 1_555 1_555
C13K C12K 1_555 1_555
C13I C12I 1_555 1_555
C13J C12J 1_555 1_555
H10A C13A 1_555 1_555
H10B C13B 1_555 1_555
H10K C13K 1_555 1_555
H10I C13I 1_555 1_555
H10J C13J 1_555 1_555
C14A C13A 1_555 1_555
C14B C13B 1_555 1_555
C14K C13K 1_555 1_555
C14I C13I 1_555 1_555
C14J C13J 1_555 1_555
C15A C14A 1_555 1_555
C15B C14B 1_555 1_555
C15K C14K 1_555 1_555
C15I C14I 1_555 1_555
C15J C14J 1_555 1_555
H11A C15A 1_555 1_555
H11B C15B 1_555 1_555
H11K C15K 1_555 1_555
H11I C15I 1_555 1_555
H11J C15J 1_555 1_555
C16A C11A 1_555 1_555
C16B C11B 1_555 1_555
C16K C11K 1_555 1_555
C16I C11I 1_555 1_555
C16J C11J 1_555 1_555
H12A C16A 1_555 1_555
H12B C16B 1_555 1_555
H12K C16K 1_555 1_555
H12I C16I 1_555 1_555
H12J C16J 1_555 1_555
C17B C1 1_555 1_555
C17A C1B 1_555 1_555
C17K C1K 1_555 1_555
C17J C1K 1_555 1_555
C17I C1J 1_555 1_555
C18A C25A 1_555 1_555
C18B C25B 1_555 1_555
C18A_2 N3A_2 1_555 1_555
C18B_2 C25B_2 1_555 1_555
C18_2 C25_2 1_555 1_555
C19A N4A 1_555 1_555
C19B N4B 1_555 1_555
C19A_2 N4A_2 1_555 1_555
C19B_2 N4B_2 1_555 1_555
C19_2 N4_2 1_555 1_555
C20A N3A 1_555 1_555
C20B N3B 1_555 1_555
C20A_2 N3A_2 1_555 1_555
C20B_2 N3B_2 1_555 1_555
C20_2 N3_2 1_555 1_555
C21A C20A 1_555 1_555
C21B C20B 1_555 1_555
C21A_2 C20A_2 1_555 1_555
C21B_2 C20B_2 1_555 1_555
C21_2 C20_2 1_555 1_555
H13A C21A 1_555 1_555
H13B C21B 1_555 1_555
H13A_2 C21A_2 1_555 1_555
H13B_2 C21B_2 1_555 1_555
H13_2 C21_2 1_555 1_555
C22A C21A 1_555 1_555
C22B C21B 1_555 1_555
C22A_2 C21A_2 1_555 1_555
C22B_2 C21B_2 1_555 1_555
C22_2 C21_2 1_555 1_555
H14A C22A 1_555 1_555
H14B C22B 1_555 1_555
H14A_2 C22A_2 1_555 1_555
H14B_2 C22B_2 1_555 1_555
H14_2 C22_2 1_555 1_555
C23A C22A 1_555 1_555
C23B C22B 1_555 1_555
C23A_2 C22A_2 1_555 1_555
C23B_2 C22B_2 1_555 1_555
C23_2 C22_2 1_555 1_555
H15A C23A 1_555 1_555
H15B C23B 1_555 1_555
H15A_2 C23A_2 1_555 1_555
H15B_2 C23B_2 1_555 1_555
H15_2 C23_2 1_555 1_555
C24A C19A 1_555 1_555
C24B C19B 1_555 1_555
C24A_2 C19A_2 1_555 1_555
C24B_2 C19B_2 1_555 1_555
C24_2 C19_2 1_555 1_555
H16A C24A 1_555 1_555
H16B C24B 1_555 1_555
H16A_2 C24A_2 1_555 1_555
H16B_2 C24B_2 1_555 1_555
H16_2 C24_2 1_555 1_555
C25A H17A 1_555 1_555
C25B H17B 1_555 1_555
C25A_2 C18A_2 1_555 1_555
C25B_2 H17B_2 1_555 1_555
C25_2 H17_2 1_555 1_555
H17A_2 C25A_2 1_555 1_555
H18A C25A 1_555 1_555
H18B C25B 1_555 1_555
H18A_2 C25A_2 1_555 1_555
H18B_2 C25B_2 1_555 1_555
H18_2 C25_2 1_555 1_555
H19A C25A 1_555 1_555
H19B C25B 1_555 1_555
H19A_2 C25A_2 1_555 1_555
H19B_2 C25B_2 1_555 1_555
H19_2 C25_2 1_555 1_555
C26A N4A 1_555 1_555
C26B N4B 1_555 1_555
C26A_2 N4A_2 1_555 1_555
C26B_2 N4B_2 1_555 1_555
C26_2 N4_2 1_555 1_555
H20A C26A 1_555 1_555
H20B C26B 1_555 1_555
H20A_2 C26A_2 1_555 1_555
H20B_2 C26B_2 1_555 1_555
H20_2 C26_2 1_555 1_555
H21A C26A 1_555 1_555
H21B C26B 1_555 1_555
H21A_2 C26A_2 1_555 1_555
H21B_2 C26B_2 1_555 1_555
H21_2 C26_2 1_555 1_555
C27A C26A 1_555 1_555
C27B C26B 1_555 1_555
C27A_2 C26A_2 1_555 1_555
C27B_2 C26B_2 1_555 1_555
C27_2 C26_2 1_555 1_555
C28A C27A 1_555 1_555
C28B C27B 1_555 1_555
C28A_2 C27A_2 1_555 1_555
C28B_2 C27B_2 1_555 1_555
C28_2 C27_2 1_555 1_555
H22A C28A 1_555 1_555
H22B C28B 1_555 1_555
H22A_2 C28A_2 1_555 1_555
H22B_2 C28B_2 1_555 1_555
H22_2 C28_2 1_555 1_555
C29A C28A 1_555 1_555
C29B C28B 1_555 1_555
C29A_2 C28A_2 1_555 1_555
C29B_2 C28B_2 1_555 1_555
C29_2 C28_2 1_555 1_555
H23A C29A 1_555 1_555
H23B C29B 1_555 1_555
H23A_2 C29A_2 1_555 1_555
H23B_2 C29B_2 1_555 1_555
H23_2 C29_2 1_555 1_555
C30A C29A 1_555 1_555
C30B C29B 1_555 1_555
C30A_2 C29A_2 1_555 1_555
C30B_2 C29B_2 1_555 1_555
C30_2 C29_2 1_555 1_555
C31A C30A 1_555 1_555
C31B C30B 1_555 1_555
C31A_2 C30A_2 1_555 1_555
C31B_2 C30B_2 1_555 1_555
C31_2 C30_2 1_555 1_555
H24A C31A 1_555 1_555
H24B C31B 1_555 1_555
H24A_2 C31A_2 1_555 1_555
H24B_2 C31B_2 1_555 1_555
H24_2 C31_2 1_555 1_555
C32A C27A 1_555 1_555
C32B C27B 1_555 1_555
C32A_2 C27A_2 1_555 1_555
C32B_2 C27B_2 1_555 1_555
C32_2 C27_2 1_555 1_555
H25A C32A 1_555 1_555
H25B C32B 1_555 1_555
H25A_2 C32A_2 1_555 1_555
H25B_2 C32B_2 1_555 1_555
H25_2 C32_2 1_555 1_555
C33B C2 1_555 1_555
C33A C2B 1_555 1_555
C33A_2 C2A_2 1_555 1_555
C33_2 C2A_2 1_555 1_555
C33B_2 C2_2 1_555 1_555
C34A H26A 1_555 1_555
C34B H26B 1_555 1_555
C34K C3K 1_555 1_555
C34I H26I 1_555 1_555
C34J H26J 1_555 1_555
H26K C34K 1_555 1_555
H27A C34A 1_555 1_555
H27B C34B 1_555 1_555
H27K C34K 1_555 1_555
H27I C34I 1_555 1_555
H27J C34J 1_555 1_555
H28A C34A 1_555 1_555
H28B C34B 1_555 1_555
H28K C34K 1_555 1_555
H28I C34I 1_555 1_555
H28J C34J 1_555 1_555
F5F Sb2 1_555 1_555
F6F Sb2 1_555 1_555
F7F Sb2 1_555 1_555
F9J Sb4 1_555 1_555
F10J Sb4 1_555 1_555
C4 C5 1_555 1_555
C8 C9 1_555 1_555
C14 C17 1_555 1_555
C15 C16 1_555 1_555
C19 C20 1_555 1_555
C23 C24 1_555 1_555
C30 C33 1_555 1_555
C31 C32 1_555 1_555
C1B C17B 1_555 1_555
C1A C17A 1_555 1_555
C1J C17J 1_555 1_555
C1I C17K 1_555 1_555
C1I C17I 1_555 1_555
C2B C33B 1_555 1_555
C2A C33A 1_555 1_555
C2_2 C33_2 1_555 1_555
C2B_2 C33A_2 1_555 1_555
C2B_2 C33B_2 1_555 1_555
C4A C5A 1_555 1_555
C4B C5B 1_555 1_555
C4K C5K 1_555 1_555
C4I C5I 1_555 1_555
C4J C5J 1_555 1_555
C8A C9A 1_555 1_555
C8B C9B 1_555 1_555
C8K C9K 1_555 1_555
C8I C9I 1_555 1_555
C8J C9J 1_555 1_555
C14A C17A 1_555 1_555
C14B C17B 1_555 1_555
C14K C17K 1_555 1_555
C14I C17I 1_555 1_555
C14J C17J 1_555 1_555
C15A C16A 1_555 1_555
C15B C16B 1_555 1_555
C15K C16K 1_555 1_555
C15I C16I 1_555 1_555
C15J C16J 1_555 1_555
C19A C20A 1_555 1_555
C19B C20B 1_555 1_555
C19A_2 C20A_2 1_555 1_555
C19B_2 C20B_2 1_555 1_555
C19_2 C20_2 1_555 1_555
C23A C24A 1_555 1_555
C23B C24B 1_555 1_555
C23A_2 C24A_2 1_555 1_555
C23B_2 C24B_2 1_555 1_555
C23_2 C24_2 1_555 1_555
C30A C33A 1_555 1_555
C30B C33B 1_555 1_555
C30A_2 C33A_2 1_555 1_555
C30B_2 C33B_2 1_555 1_555
C30_2 C33_2 1_555 1_555
C31A C32A 1_555 1_555
C31B C32B 1_555 1_555
C31A_2 C32A_2 1_555 1_555
C31B_2 C32B_2 1_555 1_555
C31_2 C32_2 1_555 1_555

#END
