
#######################################################################
#
#                 Cambridge Crystallographic Data Centre
#                                CCDC 
#
#######################################################################
#
# If this CIF has been generated from an entry in the Cambridge 
# Structural Database, then it will include bibliographic, chemical, 
# crystal, experimental, refinement or atomic coordinate data resulting 
# from the CCDC's data processing and validation procedures.
#
#######################################################################

data_GIQHAQ
_symmetry_cell_setting           hexagonal
_symmetry_space_group_name_H-M   'P 61 2 2'
_symmetry_Int_Tables_number      178
_space_group_name_Hall           "P 61 2' (0,0,5)"
loop_
_symmetry_equiv_pos_site_id
_symmetry_equiv_pos_as_xyz
1 x,y,z
2 x-y,x,1/6+z
3 -y,x-y,1/3+z
4 -x,-y,1/2+z
5 -x+y,-x,2/3+z
6 y,-x+y,5/6+z
7 -y,-x,5/6-z
8 x-y,-y,-z
9 x,x-y,1/6-z
10 y,x,1/3-z
11 -x+y,y,1/2-z
12 -x,-x+y,2/3-z
_cell_length_a                   26.712(4)
_cell_length_b                   26.712(4)
_cell_length_c                   15.919(3)
_cell_angle_alpha                90
_cell_angle_beta                 90
_cell_angle_gamma                120
_cell_volume                     9836.92
loop_
_atom_site_label
_atom_site_type_symbol
_atom_site_fract_x
_atom_site_fract_y
_atom_site_fract_z
Cd1 Cd 0.0000 0.418979(12) 0.3333
Cd2 Cd 0.420257(13) 0.420257(13) -0.3333
O1 O 0.02940(11) 0.41586(12) 0.19921(15)
O2 O 0.06965(13) 0.38779(15) 0.29364(19)
O3 O 0.32341(11) 0.39565(12) -0.29608(16)
O4 O 0.38992(11) 0.41915(12) -0.19900(14)
O5 O -0.05904(10) 0.48565(11) 0.37540(16)
O6 O -0.07861(10) 0.41868(13) 0.28121(17)
C1 C 0.10313(17) 0.3974(2) 0.1518(2)
C2 C 0.1452(2) 0.3851(3) 0.1752(3)
H1 H 0.1477 0.3754 0.2319
C3 C 0.1850(2) 0.3869(3) 0.1143(3)
H2 H 0.2162 0.3817 0.1315
C4 C 0.17892(19) 0.3960(2) 0.0304(2)
C5 C 0.13100(17) 0.40130(19) 0.0095(2)
H3 H 0.1239 0.4050 -0.0480
C6 C 0.09358(14) 0.40137(17) 0.0690(2)
H4 H 0.0610 0.4042 0.0520
C7 C 0.29859(16) 0.40254(17) -0.1554(2)
C8 C 0.24208(19) 0.3846(2) -0.1750(3)
H5 H 0.2293 0.3735 -0.2311
C9 C 0.2028(2) 0.3821(3) -0.1154(3)
H6 H 0.1639 0.3693 -0.1310
C10 C 0.22077(18) 0.3984(2) -0.0331(3)
C11 C 0.27621(18) 0.4143(2) -0.0123(2)
H7 H 0.2889 0.4257 0.0439
C12 C 0.31418(19) 0.4144(2) -0.0703(3)
H8 H 0.3515 0.4227 -0.0528
C13 C 0.06509(16) 0.39999(18) 0.2195(3)
C14 C 0.34085(17) 0.40635(16) -0.2208(3)
C15 C -0.14546(15) 0.44977(16) 0.2987(3)
C16 C -0.17466(17) 0.4270(2) 0.2226(3)
H9 H -0.1587 0.4124 0.1829
C17 C -0.22503(19) 0.4254(2) 0.2043(3)
H10 H -0.2441 0.4092 0.1526
C18 C -0.24888(15) 0.44725(18) 0.2604(3)
C19 C -0.22142(18) 0.4686(2) 0.3361(3)
H11 H -0.2387 0.4816 0.3762
C20 C -0.16913(18) 0.4715(2) 0.3557(3)
H12 H -0.1500 0.4882 0.4072
C21 C -0.09060(13) 0.45149(17) 0.3191(2)
Cd1E Cd -0.581021(12) 0.418979(12) 0.1666
Cd2D Cd 0.000000(18) 0.579743(13) 0.3334
Cd2C Cd -0.420257(13) 0.579743(13) 0.1667
Cd2B Cd -0.420257(13) 0.000000(18) 1.0000
O1K O -0.02940(11) 0.38646(16) 0.46746(15)
O2K O -0.06965(13) 0.31814(20) 0.37303(19)
O3K O -0.32341(11) 0.07224(16) 0.96275(16)
O3I O 0.39565(12) 0.32341(11) -0.37059(16)
O4K O -0.38992(11) 0.02923(16) 0.86567(14)
O4I O 0.41915(12) 0.38992(11) -0.46767(14)
O5J O -0.45531(15) 0.48565(11) 0.12460(16)
O5B O 0.51435(11) 0.45531(15) -0.29127(16)
O5G O 0.45531(15) 0.51435(11) -0.37540(16)
O6J O -0.50271(16) 0.41868(13) 0.21879(17)
O6K O 0.07861(10) 0.49729(16) 0.38546(17)
C1K C -0.10313(17) 0.29427(26) 0.5149(2)
C2K C -0.1452(2) 0.2399(4) 0.4915(3)
H1K H -0.1477 0.2277 0.4348
C3K C -0.1850(2) 0.2019(4) 0.5524(3)
H2K H -0.2162 0.1655 0.5352
C4K C -0.17892(19) 0.21708(28) 0.6363(2)
C5K C -0.13100(17) 0.27030(25) 0.6572(2)
H3K H -0.1239 0.2811 0.7147
C6K C -0.09358(14) 0.30779(22) 0.5977(2)
H4K H -0.0610 0.3432 0.6147
C7K C -0.29859(16) 0.10395(23) 0.8221(2)
C8K C -0.24208(19) 0.14252(28) 0.8417(3)
H5K H -0.2293 0.1442 0.8978
C9K C -0.2028(2) 0.1793(4) 0.7821(3)
H6K H -0.1639 0.2054 0.7977
C10K C -0.22077(18) 0.17763(27) 0.6998(3)
C11K C -0.27621(18) 0.13809(27) 0.6790(2)
H7K H -0.2889 0.1368 0.6228
C12K C -0.31418(19) 0.10022(28) 0.7370(3)
H8K H -0.3515 0.0712 0.7195
C13K C -0.06509(16) 0.33490(24) 0.4472(3)
C14K C -0.34085(17) 0.06550(23) 0.8875(3)
C15J C -0.40477(22) 0.44977(16) 0.2013(3)
C16J C -0.39834(26) 0.4270(2) 0.2774(3)
H9J H -0.4289 0.4124 0.3171
C17J C -0.34957(28) 0.4254(2) 0.2957(3)
H10J H -0.3467 0.4092 0.3474
C18J C -0.30387(23) 0.44725(18) 0.2396(3)
C19J C -0.30998(27) 0.4686(2) 0.1639(3)
H11J H -0.2797 0.4816 0.1238
C20J C -0.35937(27) 0.4715(2) 0.1443(3)
H12J H -0.3618 0.4882 0.0928
C21J C -0.45791(21) 0.45149(17) 0.1809(2)
loop_
_geom_bond_atom_site_label_1
_geom_bond_atom_site_label_2
_geom_bond_site_symmetry_1
_geom_bond_site_symmetry_2
Cd1 O1 1_555 1_555
Cd2 O3 1_555 1_555
O1 C13 1_555 1_555
O2 Cd1 1_555 1_555
O3 C14 1_555 1_555
O4 Cd2 1_555 1_555
O5 C21 1_555 1_555
O6 Cd1 1_555 1_555
C1 C2 1_555 1_555
C2 H1 1_555 1_555
C3 C2 1_555 1_555
H2 C3 1_555 1_555
C4 C3 1_555 1_555
C5 C4 1_555 1_555
H3 C5 1_555 1_555
C6 C1 1_555 1_555
H4 C6 1_555 1_555
C7 C8 1_555 1_555
C8 H5 1_555 1_555
C9 C8 1_555 1_555
H6 C9 1_555 1_555
C10 C4 1_555 1_555
C11 C10 1_555 1_555
H7 C11 1_555 1_555
C12 C7 1_555 1_555
H8 C12 1_555 1_555
C13 O2 1_555 1_555
C14 O4 1_555 1_555
C15 C16 1_555 1_555
C16 H9 1_555 1_555
C17 C16 1_555 1_555
H10 C17 1_555 1_555
C18 C17 1_555 1_555
C19 C18 1_555 1_555
H11 C19 1_555 1_555
C20 C15 1_555 1_555
H12 C20 1_555 1_555
C21 O6 1_555 1_555
Cd1E O6J 1_555 1_555
Cd2D O5 1_555 1_555
Cd2C O5J 1_555 1_555
Cd2B O3K 1_555 1_555
O1K Cd1 1_555 1_555
O2K Cd1 1_555 1_555
O3K C14K 1_555 1_555
O3I Cd2 1_555 1_555
O4K Cd2B 1_555 1_555
O4I Cd2 1_555 1_555
O5J C21J 1_555 1_555
O5B Cd2 1_555 1_555
O5G Cd2 1_555 1_555
O6J C21J 1_555 1_555
O6K Cd1 1_555 1_555
C1K C2K 1_555 1_555
C2K H1K 1_555 1_555
C3K C2K 1_555 1_555
H2K C3K 1_555 1_555
C4K C3K 1_555 1_555
C5K C4K 1_555 1_555
H3K C5K 1_555 1_555
C6K C1K 1_555 1_555
H4K C6K 1_555 1_555
C7K C8K 1_555 1_555
C8K H5K 1_555 1_555
C9K C8K 1_555 1_555
H6K C9K 1_555 1_555
C10K C4K 1_555 1_555
C11K C10K 1_555 1_555
H7K C11K 1_555 1_555
C12K C7K 1_555 1_555
H8K C12K 1_555 1_555
C13K O1K 1_555 1_555
C14K O4K 1_555 1_555
C15J C16J 1_555 1_555
C16J H9J 1_555 1_555
C17J C16J 1_555 1_555
H10J C17J 1_555 1_555
C18J C18 1_555 1_555
C19J C18J 1_555 1_555
H11J C19J 1_555 1_555
C20J C15J 1_555 1_555
H12J C20J 1_555 1_555
C21J C15J 1_555 1_555
C1 C13 1_555 1_555
C5 C6 1_555 1_555
C7 C14 1_555 1_555
C9 C10 1_555 1_555
C11 C12 1_555 1_555
C15 C21 1_555 1_555
C19 C20 1_555 1_555
O2K C13K 1_555 1_555
C1K C13K 1_555 1_555
C5K C6K 1_555 1_555
C7K C14K 1_555 1_555
C9K C10K 1_555 1_555
C11K C12K 1_555 1_555
C17J C18J 1_555 1_555
C19J C20J 1_555 1_555

#END
