
#######################################################################
#
#                 Cambridge Crystallographic Data Centre
#                                CCDC 
#
#######################################################################
#
# If this CIF has been generated from an entry in the Cambridge 
# Structural Database, then it will include bibliographic, chemical, 
# crystal, experimental, refinement or atomic coordinate data resulting 
# from the CCDC's data processing and validation procedures.
#
#######################################################################

data_GIQKIC
_symmetry_cell_setting           tetragonal
_symmetry_space_group_name_H-M   'P 41 2 2'
_symmetry_Int_Tables_number      91
_space_group_name_Hall           'P 4w 2c'
loop_
_symmetry_equiv_pos_site_id
_symmetry_equiv_pos_as_xyz
1 x,y,z
2 -y,x,1/4+z
3 -x,-y,1/2+z
4 y,-x,3/4+z
5 x,-y,1/2-z
6 y,x,3/4-z
7 -x,y,-z
8 -y,-x,1/4-z
_cell_length_a                   10.8975(2)
_cell_length_b                   10.8975(2)
_cell_length_c                   16.8787(6)
_cell_angle_alpha                90
_cell_angle_beta                 90
_cell_angle_gamma                90
_cell_volume                     2004.44
loop_
_atom_site_label
_atom_site_type_symbol
_atom_site_fract_x
_atom_site_fract_y
_atom_site_fract_z
Cd1 Cd 0.42826(6) 0.57174(6) 0.1250
N1 N 0.2191(7) 0.5821(8) 0.1581(4)
N2 N 0.0232(8) 0.5335(8) 0.1449(5)
H1 H -0.0420 0.4953 0.1303
N3 N 0.3746(7) 0.5354(7) -0.0705(5)
N4 N 0.2831(7) 0.5078(8) -0.1172(5)
N5 N 0.1964(7) 0.4492(8) -0.0731(5)
N6 N 0.3480(7) 0.4998(8) 0.0045(4)
C1 C 0.1515(9) 0.6645(10) 0.2012(6)
C2 C 0.1866(9) 0.7671(10) 0.2448(6)
H2 H 0.2682 0.7911 0.2486
C3 C 0.0950(10) 0.8306(10) 0.2816(6)
H3 H 0.1155 0.8965 0.3140
C4 C -0.0281(9) 0.7999(10) 0.2724(6)
H4 H -0.0870 0.8493 0.2963
C5 C -0.0656(11) 0.7018(10) 0.2305(6)
H5 H -0.1477 0.6790 0.2273
C6 C 0.0284(9) 0.6361(10) 0.1918(6)
C7 C 0.1386(8) 0.5039(9) 0.1261(7)
C8 C 0.1715(9) 0.4019(9) 0.0713(5)
H6 H 0.2223 0.3429 0.0991
H7 H 0.0973 0.3603 0.0543
C9 C 0.2392(8) 0.4488(9) 0.0002(6)
N1F N 0.7809(7) 0.5821(8) -0.1581(4)
N2F N 0.9768(8) 0.5335(8) -0.1449(5)
H1F H 1.0420 0.4953 -0.1303
N3F N 0.6254(7) 0.5354(7) 0.0705(5)
N4F N 0.7169(7) 0.5078(8) 0.1172(5)
N5F N 0.8036(7) 0.4492(8) 0.0731(5)
N6F N 0.6520(7) 0.4998(8) -0.0045(4)
C1F C 0.8485(9) 0.6645(10) -0.2012(6)
C2F C 0.8134(9) 0.7671(10) -0.2448(6)
H2F H 0.7318 0.7911 -0.2486
C3F C 0.9050(10) 0.8306(10) -0.2816(6)
H3F H 0.8845 0.8965 -0.3140
C4F C 1.0281(9) 0.7999(10) -0.2724(6)
H4F H 1.0870 0.8493 -0.2963
C5F C 1.0656(11) 0.7018(10) -0.2305(6)
H5F H 1.1477 0.6790 -0.2273
C6F C 0.9716(9) 0.6361(10) -0.1918(6)
C7F C 0.8614(8) 0.5039(9) -0.1261(7)
C8F C 0.8285(9) 0.4019(9) -0.0713(5)
H6F H 0.7777 0.3429 -0.0991
H7F H 0.9027 0.3603 -0.0543
C9F C 0.7608(8) 0.4488(9) -0.0002(6)
Cd1C Cd 0.57174(6) 0.57174(6) -0.1250
N1G N 0.4179(8) 0.7809(7) 0.0919(4)
N3A N 0.4646(7) 0.3746(7) 0.1795(5)
N6G N 0.5002(8) 0.6520(7) 0.2455(4)
loop_
_geom_bond_atom_site_label_1
_geom_bond_atom_site_label_2
_geom_bond_site_symmetry_1
_geom_bond_site_symmetry_2
Cd1 N1 1_555 1_555
N1 C1 1_555 1_555
N2 H1 1_555 1_555
N3 N4 1_555 1_555
N4 N5 1_555 1_555
N5 C9 1_555 1_555
N6 Cd1 1_555 1_555
C1 C2 1_555 1_555
C2 H2 1_555 1_555
C3 C2 1_555 1_555
H3 C3 1_555 1_555
C4 C3 1_555 1_555
H4 C4 1_555 1_555
C5 C4 1_555 1_555
H5 C5 1_555 1_555
C6 N2 1_555 1_555
C7 N1 1_555 1_555
C8 C7 1_555 1_555
H6 C8 1_555 1_555
H7 C8 1_555 1_555
C9 N6 1_555 1_555
N1F C1F 1_555 1_555
N2F H1F 1_555 1_555
N3F Cd1 1_555 1_555
N4F N3F 1_555 1_555
N5F N4F 1_555 1_555
N6F N3F 1_555 1_555
C1F C2F 1_555 1_555
C2F H2F 1_555 1_555
C3F C2F 1_555 1_555
H3F C3F 1_555 1_555
C4F C3F 1_555 1_555
H4F C4F 1_555 1_555
C5F C4F 1_555 1_555
H5F C5F 1_555 1_555
C6F N2F 1_555 1_555
C7F N1F 1_555 1_555
C8F C7F 1_555 1_555
H6F C8F 1_555 1_555
H7F C8F 1_555 1_555
C9F N5F 1_555 1_555
Cd1C N3 1_555 1_555
N1G Cd1 1_555 1_555
N3A Cd1 1_555 1_555
N6G Cd1 1_555 1_555
N2 C7 1_555 1_555
N3 N6 1_555 1_555
C1 C6 1_555 1_555
C5 C6 1_555 1_555
C8 C9 1_555 1_555
N1F Cd1C 1_555 1_555
N2F C7F 1_555 1_555
N6F C9F 1_555 1_555
N6F Cd1C 1_555 1_555
C1F C6F 1_555 1_555
C5F C6F 1_555 1_555
C8F C9F 1_555 1_555

#END
