
#######################################################################
#
#                 Cambridge Crystallographic Data Centre
#                                CCDC 
#
#######################################################################
#
# If this CIF has been generated from an entry in the Cambridge 
# Structural Database, then it will include bibliographic, chemical, 
# crystal, experimental, refinement or atomic coordinate data resulting 
# from the CCDC's data processing and validation procedures.
#
#######################################################################

data_GIQTUX
_symmetry_cell_setting           tetragonal
_symmetry_space_group_name_H-M   'P 43 21 2'
_symmetry_Int_Tables_number      96
_space_group_name_Hall           'P 4nw 2abw'
loop_
_symmetry_equiv_pos_site_id
_symmetry_equiv_pos_as_xyz
1 x,y,z
2 -x,-y,1/2+z
3 y,x,-z
4 -y,-x,1/2-z
5 1/2-y,1/2+x,3/4+z
6 1/2+x,1/2-y,1/4-z
7 1/2+y,1/2-x,1/4+z
8 1/2-x,1/2+y,3/4-z
_cell_length_a                   8.9493(9)
_cell_length_b                   8.9493(9)
_cell_length_c                   32.516(5)
_cell_angle_alpha                90
_cell_angle_beta                 90
_cell_angle_gamma                90
_cell_volume                     2604.21
loop_
_atom_site_label
_atom_site_type_symbol
_atom_site_fract_x
_atom_site_fract_y
_atom_site_fract_z
C1 C 0.5937(5) 0.8615(5) 0.0344(1)
H1 H 0.6426 0.8882 0.0585
C2 C 0.6395(5) 0.9261(6) -0.0022(1)
C3 C 0.5680(6) 0.8886(6) -0.0381(1)
H2 H 0.5960 0.9312 -0.0631
C4 C 0.4548(7) 0.7868(7) -0.0361(2)
H3 H 0.4051 0.7577 -0.0599
C5 C 0.4141(7) 0.7272(6) 0.0016(2)
H4 H 0.3356 0.6592 0.0025
C6 C 0.8731(5) 1.0281(8) 0.0239(2)
H5 H 0.8633 0.9417 0.0417
H6 H 0.8731 1.1171 0.0410
C7 C 1.0185(5) 1.0185(5) 0.0000
C8 C 1.2919(5) 1.3815(5) 0.0683(1)
H7 H 1.2227 1.4420 0.0550
C9 C 1.2741(4) 1.2270(4) 0.0662(1)
C10 C 1.3742(5) 1.1348(5) 0.0856(1)
H8 H 1.3642 1.0314 0.0846
C11 C 1.4906(6) 1.2017(6) 0.1069(2)
H9 H 1.5614 1.1434 0.1204
C12 C 1.5008(5) 1.3568(5) 0.1080(1)
H10 H 1.5784 1.4002 0.1228
C13 C 1.1474(5) 1.0286(5) 0.0305(1)
H11 H 1.1321 0.9594 0.0531
H12 H 1.2412 1.0042 0.0171
C14 C 0.2159(5) 0.7487(5) 0.1129(1)
Cu1 Cu 0.4098(1) 0.6853(1) 0.0963
N1 N 0.4826(4) 0.7629(4) 0.0365(1)
N2 N 1.4037(4) 1.4462(4) 0.0887(1)
N3 N 0.1002(4) 0.7803(4) 0.1240(1)
O1 O 0.7495(4) 1.0334(4) -0.0045(1)
O2 O 1.1503(3) 1.1805(3) 0.0455(1)
C1B C 0.8615(5) 0.5937(5) -0.0344(1)
H1B H 0.8882 0.6426 -0.0585
C2B C 0.9261(6) 0.6395(5) 0.0022(1)
C3B C 0.8886(6) 0.5680(6) 0.0381(1)
H2B H 0.9312 0.5960 0.0631
C4B C 0.7868(7) 0.4548(7) 0.0361(2)
H3B H 0.7577 0.4051 0.0599
C5B C 0.7272(6) 0.4141(7) -0.0016(2)
H4B H 0.6592 0.3356 -0.0025
C6B C 1.0281(8) 0.8731(5) -0.0239(2)
H5B H 0.9417 0.8633 -0.0417
H6B H 1.1171 0.8731 -0.0410
N1B N 0.7629(4) 0.4826(4) -0.0365(1)
O1B O 1.0334(4) 0.7495(4) 0.0045(1)
C8B C 1.3815(5) 1.2919(5) -0.0683(1)
H7B H 1.4420 1.2227 -0.0550
C9B C 1.2270(4) 1.2741(4) -0.0662(1)
C10B C 1.1348(5) 1.3742(5) -0.0856(1)
H8B H 1.0314 1.3642 -0.0846
C11B C 1.2017(6) 1.4906(6) -0.1069(2)
H9B H 1.1434 1.5614 -0.1204
C12B C 1.3568(5) 1.5008(5) -0.1080(1)
H10B H 1.4002 1.5784 -0.1228
C13B C 1.0286(5) 1.1474(5) -0.0305(1)
H11B H 0.9594 1.1321 -0.0531
H12B H 1.0042 1.2412 -0.0171
N2B N 1.4462(4) 1.4037(4) -0.0887(1)
O2B O 1.1805(3) 1.1503(3) -0.0455(1)
C14B C 0.7487(5) 0.2159(5) -0.1129(1)
Cu1B Cu 0.6853(1) 0.4098(1) -0.0963
N3B N 0.7803(4) 0.1002(4) -0.1240(1)
Cu1_2 Cu 1.4098(1) 1.6853(1) 0.0963
Cu1B_2 Cu 1.6853(1) 1.4098(1) -0.0963
Cu1D Cu 0.8147(1) -0.0902(1) -0.1537
Cu1E Cu -0.0902(1) 0.8147(1) 0.1537
N2_2 N 0.4037(4) 0.4462(4) 0.0887(1)
N2B_2 N 0.4462(4) 0.4037(4) -0.0887(1)
N3D N 0.7197(4) 0.6002(4) -0.1260(1)
N3E N 0.6002(4) 0.7197(4) 0.1260(1)
loop_
_geom_bond_atom_site_label_1
_geom_bond_atom_site_label_2
_geom_bond_site_symmetry_1
_geom_bond_site_symmetry_2
C1 H1 1_555 1_555
C2 C1 1_555 1_555
C3 C2 1_555 1_555
H2 C3 1_555 1_555
C4 C3 1_555 1_555
H3 C4 1_555 1_555
C5 C4 1_555 1_555
H4 C5 1_555 1_555
C6 H5 1_555 1_555
H6 C6 1_555 1_555
C7 C6 1_555 1_555
C8 H7 1_555 1_555
C9 C8 1_555 1_555
C10 C9 1_555 1_555
H8 C10 1_555 1_555
C11 C10 1_555 1_555
H9 C11 1_555 1_555
C12 C11 1_555 1_555
H10 C12 1_555 1_555
C13 C7 1_555 1_555
H11 C13 1_555 1_555
H12 C13 1_555 1_555
C14 Cu1 1_555 1_555
Cu1 N1 1_555 1_555
N1 C1 1_555 1_555
N2 C8 1_555 1_555
N3 C14 1_555 1_555
O1 C2 1_555 1_555
O2 C9 1_555 1_555
C1B H1B 1_555 1_555
C2B C1B 1_555 1_555
C3B C2B 1_555 1_555
H2B C3B 1_555 1_555
C4B C3B 1_555 1_555
H3B C4B 1_555 1_555
C5B C4B 1_555 1_555
H4B C5B 1_555 1_555
C6B C7 1_555 1_555
H5B C6B 1_555 1_555
H6B C6B 1_555 1_555
N1B C1B 1_555 1_555
O1B C2B 1_555 1_555
C8B H7B 1_555 1_555
C9B C8B 1_555 1_555
C10B C9B 1_555 1_555
H8B C10B 1_555 1_555
C11B C10B 1_555 1_555
H9B C11B 1_555 1_555
C12B C11B 1_555 1_555
H10B C12B 1_555 1_555
C13B C7 1_555 1_555
H11B C13B 1_555 1_555
H12B C13B 1_555 1_555
N2B C8B 1_555 1_555
O2B C9B 1_555 1_555
C14B Cu1B 1_555 1_555
Cu1B N1B 1_555 1_555
N3B C14B 1_555 1_555
Cu1_2 N2 1_555 1_555
Cu1B_2 N2B 1_555 1_555
Cu1D N3B 1_555 1_555
Cu1E N3 1_555 1_555
N2_2 Cu1 1_555 1_555
N2B_2 Cu1B 1_555 1_555
N3D Cu1B 1_555 1_555
N3E Cu1 1_555 1_555
C5 N1 1_555 1_555
C6 O1 1_555 1_555
C12 N2 1_555 1_555
C13 O2 1_555 1_555
C5B N1B 1_555 1_555
C6B O1B 1_555 1_555
C12B N2B 1_555 1_555
C13B O2B 1_555 1_555

#END
