
#######################################################################
#
#                 Cambridge Crystallographic Data Centre
#                                CCDC 
#
#######################################################################
#
# If this CIF has been generated from an entry in the Cambridge 
# Structural Database, then it will include bibliographic, chemical, 
# crystal, experimental, refinement or atomic coordinate data resulting 
# from the CCDC's data processing and validation procedures.
#
#######################################################################

data_GIQYIQ01
_symmetry_cell_setting           monoclinic
_symmetry_space_group_name_H-M   'C 2/c'
_symmetry_Int_Tables_number      15
_space_group_name_Hall           '-C 2yn'
loop_
_symmetry_equiv_pos_site_id
_symmetry_equiv_pos_as_xyz
1 x,y,z
2 -x,y,1/2-z
3 1/2+x,1/2+y,z
4 1/2-x,1/2+y,1/2-z
5 -x,-y,-z
6 x,-y,1/2+z
7 1/2-x,1/2-y,-z
8 1/2+x,1/2-y,1/2+z
_cell_length_a                   19.487(7)
_cell_length_b                   9.189(3)
_cell_length_c                   12.856(5)
_cell_angle_alpha                90
_cell_angle_beta                 93.505(6)
_cell_angle_gamma                90
_cell_volume                     2297.77
loop_
_atom_site_label
_atom_site_type_symbol
_atom_site_fract_x
_atom_site_fract_y
_atom_site_fract_z
Cd1 Cd 0.5000 0.78615(3) 0.7500
Cd2 Cd 0.5000 0.38883(3) 0.7500
Cl1 Cl 0.46627(4) 0.59759(7) 0.61060(5)
O1 O 0.61182(10) 0.7990(2) 0.68865(15)
O2 O 0.52476(12) 0.2294(2) 0.89454(16)
O3 O 0.53548(10) 0.9604(2) 0.63051(14)
N1 N 0.89012(12) 1.1450(3) 0.28388(18)
N2 N 0.79345(12) 1.1247(2) 0.36329(17)
C1 C 0.85659(15) 1.0704(3) 0.3518(2)
H1 H 0.8748 0.9879 0.3885
C2 C 0.84695(15) 1.2554(3) 0.2517(2)
H2 H 0.8570 1.3285 0.2027
C3 C 0.78793(16) 1.2444(3) 0.3002(2)
H3 H 0.7496 1.3081 0.2922
C4 C 0.74344(14) 1.0700(3) 0.4301(2)
C5 C 0.67752(15) 1.1217(3) 0.4215(2)
H4 H 0.6649 1.1939 0.3711
C6 C 0.62891(14) 1.0683(3) 0.4867(2)
H5 H 0.5834 1.1056 0.4812
C7 C 0.64616(14) 0.9622(3) 0.5588(2)
C8 C 0.59477(15) 0.9040(3) 0.6305(2)
C9 C 0.71261(17) 0.9122(4) 0.5676(3)
H6 H 0.7253 0.8396 0.6177
C10 C 0.76162(17) 0.9669(4) 0.5035(3)
H7 H 0.8077 0.9326 0.5108
H8 H 0.5094(17) 0.136(2) 0.900(3)
H9 H 0.5124(18) 0.270(3) 0.9532(18)
Cl1A Cl 0.53373(4) 0.59759(7) 0.88940(5)
O1A O 0.38818(10) 0.7990(2) 0.81135(15)
O2A O 0.47524(12) 0.2294(2) 0.60546(16)
O3A O 0.46452(10) 0.9604(2) 0.86949(14)
N1A N 0.10988(12) 1.1450(3) 1.21612(18)
N2A N 0.20655(12) 1.1247(2) 1.13671(17)
C1A C 0.14341(15) 1.0704(3) 1.1482(2)
H1A H 0.1252 0.9879 1.1115
C2A C 0.15305(15) 1.2554(3) 1.2483(2)
H2A H 0.1430 1.3285 1.2973
C3A C 0.21207(16) 1.2444(3) 1.1998(2)
H3A H 0.2504 1.3081 1.2078
C4A C 0.25656(14) 1.0700(3) 1.0699(2)
C5A C 0.32248(15) 1.1217(3) 1.0785(2)
H4A H 0.3351 1.1939 1.1289
C6A C 0.37109(14) 1.0683(3) 1.0133(2)
H5A H 0.4166 1.1056 1.0188
C7A C 0.35384(14) 0.9622(3) 0.9412(2)
C8A C 0.40523(15) 0.9040(3) 0.8695(2)
C9A C 0.28739(17) 0.9122(4) 0.9324(3)
H6A H 0.2747 0.8396 0.8823
C10A C 0.23838(17) 0.9669(4) 0.9965(3)
H7A H 0.1923 0.9326 0.9892
H8A H 0.4906(17) 0.136(2) 0.600(3)
H9A H 0.4876(18) 0.270(3) 0.5468(18)
Cd2F Cd 0.0000 1.11117(3) 1.2500
Cd2F_2 Cd 1.0000 1.11117(3) 0.2500
N1F N 0.60988(12) 0.3550(3) 0.71612(18)
N1G N 0.39012(12) 0.3550(3) 0.78388(18)
loop_
_geom_bond_atom_site_label_1
_geom_bond_atom_site_label_2
_geom_bond_site_symmetry_1
_geom_bond_site_symmetry_2
Cd1 Cl1 1_555 1_555
Cd2 Cl1 1_555 1_555
O1 Cd1 1_555 1_555
O2 Cd2 1_555 1_555
O3 Cd1 1_555 1_555
N1 C1 1_555 1_555
N2 C1 1_555 1_555
C1 H1 1_555 1_555
C2 N1 1_555 1_555
H2 C2 1_555 1_555
C3 N2 1_555 1_555
H3 C3 1_555 1_555
C4 N2 1_555 1_555
C5 C4 1_555 1_555
H4 C5 1_555 1_555
C6 C5 1_555 1_555
H5 C6 1_555 1_555
C7 C6 1_555 1_555
C8 O1 1_555 1_555
C9 C7 1_555 1_555
H6 C9 1_555 1_555
C10 C4 1_555 1_555
H7 C10 1_555 1_555
H8 O2 1_555 1_555
H9 O2 1_555 1_555
Cl1A Cd1 1_555 1_555
O1A Cd1 1_555 1_555
O2A Cd2 1_555 1_555
O3A Cd1 1_555 1_555
N1A C1A 1_555 1_555
N2A C1A 1_555 1_555
C1A H1A 1_555 1_555
C2A N1A 1_555 1_555
H2A C2A 1_555 1_555
C3A N2A 1_555 1_555
H3A C3A 1_555 1_555
C4A N2A 1_555 1_555
C5A C4A 1_555 1_555
H4A C5A 1_555 1_555
C6A C5A 1_555 1_555
H5A C6A 1_555 1_555
C7A C6A 1_555 1_555
C8A O1A 1_555 1_555
C9A C7A 1_555 1_555
H6A C9A 1_555 1_555
C10A C4A 1_555 1_555
H7A C10A 1_555 1_555
H8A O2A 1_555 1_555
H9A O2A 1_555 1_555
Cd2F N1A 1_555 1_555
Cd2F_2 N1 1_555 1_555
N1F Cd2 1_555 1_555
N1G Cd2 1_555 1_555
Cd2 Cl1A 1_555 1_555
O3 C8 1_555 1_555
C2 C3 1_555 1_555
C7 C8 1_555 1_555
C9 C10 1_555 1_555
O3A C8A 1_555 1_555
C2A C3A 1_555 1_555
C7A C8A 1_555 1_555
C9A C10A 1_555 1_555

#END
