
#######################################################################
#
#                 Cambridge Crystallographic Data Centre
#                                CCDC 
#
#######################################################################
#
# If this CIF has been generated from an entry in the Cambridge 
# Structural Database, then it will include bibliographic, chemical, 
# crystal, experimental, refinement or atomic coordinate data resulting 
# from the CCDC's data processing and validation procedures.
#
#######################################################################

data_GIQZEM
_symmetry_cell_setting           monoclinic
_symmetry_space_group_name_H-M   'P 21/n'
_symmetry_Int_Tables_number      14
_space_group_name_Hall           '-P 2yn'
loop_
_symmetry_equiv_pos_site_id
_symmetry_equiv_pos_as_xyz
1 x,y,z
2 1/2-x,1/2+y,1/2-z
3 -x,-y,-z
4 1/2+x,1/2-y,1/2+z
_cell_length_a                   14.769(3)
_cell_length_b                   13.325(3)
_cell_length_c                   17.998(4)
_cell_angle_alpha                90
_cell_angle_beta                 108.67(2)
_cell_angle_gamma                90
_cell_volume                     3355.57
loop_
_atom_site_label
_atom_site_type_symbol
_atom_site_fract_x
_atom_site_fract_y
_atom_site_fract_z
Mg1 Mg 0.83731(11) 0.41881(11) 0.09814(9)
Mg2 Mg 1.0000 0.5000 0.0000
C1 C 1.1883(3) 0.8025(4) 0.4352(3)
H1 H 1.1780 0.7915 0.4828
C2 C 1.2461(3) 0.8802(3) 0.4285(3)
C3 C 1.2600(4) 0.8992(4) 0.3553(3)
H2 H 1.2992 0.9517 0.3505
C4 C 1.2160(4) 0.8404(4) 0.2921(3)
H3 H 1.2238 0.8553 0.2440
C5 C 1.1149(3) 0.6943(4) 0.2333(3)
H4 H 1.1244 0.7062 0.1854
C6 C 1.0590(3) 0.6163(4) 0.2400(3)
C7 C 1.0452(4) 0.5984(4) 0.3128(3)
H5 H 1.0072 0.5448 0.3176
C8 C 1.0865(4) 0.6579(4) 0.3762(3)
H6 H 1.0760 0.6445 0.4235
C9 C 1.1442(3) 0.7386(3) 0.3710(3)
C10 C 1.1590(3) 0.7578(4) 0.2976(3)
C11 C 1.0105(4) 0.5514(3) 0.1696(3)
O1 O 0.9449(2) 0.4947(2) 0.17572(17)
O2 O 1.0379(2) 0.5600(2) 0.11057(19)
C12 C 1.2902(3) 0.9453(3) 0.4987(3)
O3 O 1.2609(2) 0.9429(2) 0.5565(2)
O4 O 1.3547(2) 1.0075(2) 0.49540(17)
C13 C 0.9317(4) 0.1073(3) 0.0205(3)
H7 H 0.8704 0.1205 0.0219
C14 C 0.9978(3) 0.1819(3) 0.0383(3)
C15 C 1.0907(4) 0.1607(4) 0.0371(3)
H8 H 1.1361 0.2117 0.0482
C16 C 1.1153(4) 0.0668(4) 0.0202(3)
H9 H 1.1778 0.0537 0.0218
C17 C 0.9733(4) 0.2859(4) 0.0565(3)
O5 O 0.9050(2) 0.2938(2) 0.0846(2)
O6 O 1.0197(2) 0.3561(2) 0.04179(19)
O7 O 0.7823(3) 0.3912(3) 0.1867(2)
C18 C 0.7811(5) 0.4520(6) 0.2376(4)
N1 N 0.7331(3) 0.4424(4) 0.2892(3)
C19 C 0.6750(5) 0.3545(6) 0.2843(5)
C20 C 0.7095(8) 0.2855(7) 0.3516(5)
H10 H 0.7740 0.2657 0.3576
H11 H 0.6694 0.2271 0.3426
H12 H 0.7078 0.3188 0.3984
C21 C 0.5730(7) 0.3808(8) 0.2702(7)
H13 H 0.5646 0.4024 0.3185
H14 H 0.5337 0.3230 0.2508
H15 H 0.5547 0.4339 0.2323
C22 C 0.7367(6) 0.5198(7) 0.3476(5)
C23 C 0.8324(7) 0.5179(9) 0.4128(5)
H16 H 0.8534 0.4497 0.4237
H17 H 0.8254 0.5478 0.4592
H18 H 0.8787 0.5550 0.3968
C24 C 0.7091(9) 0.6187(7) 0.3125(7)
H19 H 0.7592 0.6451 0.2949
H20 H 0.6983 0.6632 0.3508
H21 H 0.6515 0.6129 0.2687
O8 O 0.7124(2) 0.3522(3) 0.0216(2)
C25 C 0.7085(4) 0.3219(4) -0.0442(4)
N2 N 0.6288(3) 0.3080(4) -0.1042(3)
C26 C 0.5355(5) 0.3309(7) -0.0965(5)
C27 C 0.5125(6) 0.2641(9) -0.0379(5)
H22 H 0.5220 0.1953 -0.0494
H23 H 0.4471 0.2739 -0.0407
H24 H 0.5536 0.2804 0.0138
C28 C 0.5263(6) 0.4404(8) -0.0830(5)
H25 H 0.5663 0.4576 -0.0311
H26 H 0.4610 0.4559 -0.0885
H27 H 0.5458 0.4781 -0.1208
C29 C 0.6355(6) 0.2738(6) -0.1814(4)
C30 C 0.6055(7) 0.3526(7) -0.2430(5)
H28 H 0.5381 0.3642 -0.2561
H29 H 0.6197 0.3308 -0.2889
H30 H 0.6395 0.4136 -0.2238
C31 C 0.5857(6) 0.1763(7) -0.2063(6)
H31 H 0.5196 0.1830 -0.2101
H32 H 0.6150 0.1256 -0.1683
H33 H 0.5903 0.1575 -0.2564
C32 C 0.9533(3) 0.0104(3) -0.0001(3)
H34 H 0.659(5) 0.323(5) 0.224(4)
H35 H 0.772(4) 0.310(4) -0.058(3)
H36 H 0.816(4) 0.508(5) 0.239(3)
H37 H 0.495(4) 0.308(4) -0.149(4)
H38 H 0.712(4) 0.263(4) -0.170(3)
H39 H 0.681(7) 0.492(7) 0.378(6)
Mg1B Mg 1.16269(11) 0.58119(11) -0.09814(9)
Mg1C Mg 1.33731(11) 1.08119(11) 0.59814(9)
Mg1B_2 Mg 1.16269(11) -0.41881(11) -0.09814(9)
Mg1A Mg 0.66269(11) -0.08119(11) -0.59814(9)
Mg2C Mg 1.5000 1.0000 0.5000
Mg2_2 Mg 1.0000 -0.5000 0.0000
Mg2C_2 Mg 0.5000 0.0000 -0.5000
C1B C 0.8117(3) 0.1975(4) -0.4352(3)
H1B H 0.8220 0.2085 -0.4828
C2B C 0.7539(3) 0.1198(3) -0.4285(3)
C3B C 0.7400(4) 0.1008(4) -0.3553(3)
H2B H 0.7008 0.0483 -0.3505
C4B C 0.7840(4) 0.1596(4) -0.2921(3)
H3B H 0.7762 0.1447 -0.2440
C5B C 0.8851(3) 0.3057(4) -0.2333(3)
H4B H 0.8756 0.2938 -0.1854
C6B C 0.9410(3) 0.3837(4) -0.2400(3)
C7B C 0.9548(4) 0.4016(4) -0.3128(3)
H5B H 0.9928 0.4552 -0.3176
C8B C 0.9135(4) 0.3421(4) -0.3762(3)
H6B H 0.9240 0.3555 -0.4235
C9B C 0.8558(3) 0.2614(3) -0.3710(3)
C10B C 0.8410(3) 0.2422(4) -0.2976(3)
C11B C 0.9895(4) 0.4486(3) -0.1696(3)
O1B O 1.0551(2) 0.5053(2) -0.17572(17)
O2B O 0.9621(2) 0.4400(2) -0.11057(19)
C12B C 0.7098(3) 0.0547(3) -0.4987(3)
O3B O 0.7391(2) 0.0571(2) -0.5565(2)
O3C O 0.7609(2) 0.5571(2) 0.0565(2)
O3A O 1.2391(2) 0.4429(2) -0.0565(2)
O4B O 0.6453(2) -0.0075(2) -0.49540(17)
O4C O 0.8547(2) 0.4925(2) -0.00460(17)
O4A O 1.1453(2) 0.5075(2) 0.00460(17)
C13B C 1.0683(4) -0.1073(3) -0.0205(3)
H7B H 1.1296 -0.1205 -0.0219
C14B C 1.0022(3) -0.1819(3) -0.0383(3)
C15B C 0.9093(4) -0.1607(4) -0.0371(3)
H8B H 0.8639 -0.2117 -0.0482
C16B C 0.8847(4) -0.0668(4) -0.0202(3)
H9B H 0.8222 -0.0537 -0.0218
C17B C 1.0267(4) -0.2859(4) -0.0565(3)
O5B O 1.0950(2) -0.2938(2) -0.0846(2)
O5B_2 O 1.0950(2) 0.7062(2) -0.0846(2)
O6B O 0.9803(2) -0.3561(2) -0.04179(19)
O6B_2 O 0.9803(2) 0.6439(2) -0.04179(19)
O7B O 1.2177(3) 0.6088(3) -0.1867(2)
C18B C 1.2189(5) 0.5480(6) -0.2376(4)
N1B N 1.2669(3) 0.5576(4) -0.2892(3)
C19B C 1.3250(5) 0.6455(6) -0.2843(5)
C20B C 1.2905(8) 0.7145(7) -0.3516(5)
H10B H 1.2260 0.7343 -0.3576
H11B H 1.3306 0.7729 -0.3426
H12B H 1.2922 0.6812 -0.3984
C21B C 1.4270(7) 0.6192(8) -0.2702(7)
H13B H 1.4354 0.5976 -0.3185
H14B H 1.4663 0.6770 -0.2508
H15B H 1.4453 0.5661 -0.2323
C22B C 1.2633(6) 0.4802(7) -0.3476(5)
C23B C 1.1676(7) 0.4821(9) -0.4128(5)
H16B H 1.1466 0.5503 -0.4237
H17B H 1.1746 0.4522 -0.4592
H18B H 1.1213 0.4450 -0.3968
C24B C 1.2909(9) 0.3813(7) -0.3125(7)
H19B H 1.2408 0.3549 -0.2949
H20B H 1.3017 0.3368 -0.3508
H21B H 1.3485 0.3871 -0.2687
O8B O 1.2876(2) 0.6478(3) -0.0216(2)
C25B C 1.2915(4) 0.6781(4) 0.0442(4)
N2B N 1.3712(3) 0.6920(4) 0.1042(3)
C26B C 1.4645(5) 0.6691(7) 0.0965(5)
C27B C 1.4875(6) 0.7359(9) 0.0379(5)
H22B H 1.4780 0.8047 0.0494
H23B H 1.5529 0.7261 0.0407
H24B H 1.4464 0.7196 -0.0138
C28B C 1.4737(6) 0.5596(8) 0.0830(5)
H25B H 1.4337 0.5424 0.0311
H26B H 1.5390 0.5441 0.0885
H27B H 1.4542 0.5219 0.1208
C29B C 1.3645(6) 0.7262(6) 0.1814(4)
C30B C 1.3945(7) 0.6474(7) 0.2430(5)
H28B H 1.4619 0.6358 0.2561
H29B H 1.3803 0.6692 0.2889
H30B H 1.3605 0.5864 0.2238
C31B C 1.4143(6) 0.8237(7) 0.2063(6)
H31B H 1.4804 0.8170 0.2101
H32B H 1.3850 0.8744 0.1683
H33B H 1.4097 0.8425 0.2564
C32B C 1.0467(3) -0.0104(3) 0.0001(3)
H34B H 1.341(5) 0.677(5) -0.224(4)
H35B H 1.228(4) 0.690(4) 0.058(3)
H36B H 1.184(4) 0.492(5) -0.239(3)
H37B H 1.505(4) 0.692(4) 0.149(4)
H38B H 1.288(4) 0.737(4) 0.170(3)
H39B H 1.319(7) 0.508(7) -0.378(6)
loop_
_geom_bond_atom_site_label_1
_geom_bond_atom_site_label_2
_geom_bond_site_symmetry_1
_geom_bond_site_symmetry_2
Mg1 O1 1_555 1_555
Mg2 O2 1_555 1_555
C1 H1 1_555 1_555
C2 C1 1_555 1_555
C3 C2 1_555 1_555
H2 C3 1_555 1_555
C4 C3 1_555 1_555
H3 C4 1_555 1_555
C5 H4 1_555 1_555
C6 C5 1_555 1_555
C7 C6 1_555 1_555
H5 C7 1_555 1_555
C8 C7 1_555 1_555
H6 C8 1_555 1_555
C9 C1 1_555 1_555
C10 C4 1_555 1_555
C11 C6 1_555 1_555
O1 C11 1_555 1_555
O2 C11 1_555 1_555
C12 C2 1_555 1_555
O3 C12 1_555 1_555
O4 C12 1_555 1_555
C13 H7 1_555 1_555
C14 C13 1_555 1_555
C15 C14 1_555 1_555
H8 C15 1_555 1_555
C16 C15 1_555 1_555
H9 C16 1_555 1_555
C17 C14 1_555 1_555
O5 Mg1 1_555 1_555
O6 Mg2 1_555 1_555
O7 Mg1 1_555 1_555
C18 O7 1_555 1_555
N1 C18 1_555 1_555
C19 N1 1_555 1_555
C20 C19 1_555 1_555
H10 C20 1_555 1_555
H11 C20 1_555 1_555
H12 C20 1_555 1_555
C21 C19 1_555 1_555
H13 C21 1_555 1_555
H14 C21 1_555 1_555
H15 C21 1_555 1_555
C22 N1 1_555 1_555
C23 C22 1_555 1_555
H16 C23 1_555 1_555
H17 C23 1_555 1_555
H18 C23 1_555 1_555
C24 C22 1_555 1_555
H19 C24 1_555 1_555
H20 C24 1_555 1_555
H21 C24 1_555 1_555
O8 Mg1 1_555 1_555
C25 O8 1_555 1_555
N2 C25 1_555 1_555
C26 N2 1_555 1_555
C27 C26 1_555 1_555
H22 C27 1_555 1_555
H23 C27 1_555 1_555
H24 C27 1_555 1_555
C28 C26 1_555 1_555
H25 C28 1_555 1_555
H26 C28 1_555 1_555
H27 C28 1_555 1_555
C29 N2 1_555 1_555
C30 C29 1_555 1_555
H28 C30 1_555 1_555
H29 C30 1_555 1_555
H30 C30 1_555 1_555
C31 C29 1_555 1_555
H31 C31 1_555 1_555
H32 C31 1_555 1_555
H33 C31 1_555 1_555
C32 C13 1_555 1_555
H34 C19 1_555 1_555
H35 C25 1_555 1_555
H36 C18 1_555 1_555
H37 C26 1_555 1_555
H38 C29 1_555 1_555
H39 C22 1_555 1_555
Mg1B O1B 1_555 1_555
Mg1C O3 1_555 1_555
Mg1B_2 O5B 1_555 1_555
Mg1A O3B 1_555 1_555
Mg2C O4 1_555 1_555
Mg2_2 O6B 1_555 1_555
Mg2C_2 O4B 1_555 1_555
C1B H1B 1_555 1_555
C2B C1B 1_555 1_555
C3B C2B 1_555 1_555
H2B C3B 1_555 1_555
C4B C3B 1_555 1_555
H3B C4B 1_555 1_555
C5B H4B 1_555 1_555
C6B C5B 1_555 1_555
C7B C6B 1_555 1_555
H5B C7B 1_555 1_555
C8B C7B 1_555 1_555
H6B C8B 1_555 1_555
C9B C1B 1_555 1_555
C10B C4B 1_555 1_555
C11B C6B 1_555 1_555
O1B C11B 1_555 1_555
O2B Mg2 1_555 1_555
C12B C2B 1_555 1_555
O3B C12B 1_555 1_555
O3C Mg1 1_555 1_555
O3A Mg1B 1_555 1_555
O4B Mg1A 1_555 1_555
O4C Mg1 1_555 1_555
O4A Mg2 1_555 1_555
C13B H7B 1_555 1_555
C14B C13B 1_555 1_555
C15B C14B 1_555 1_555
H8B C15B 1_555 1_555
C16B C32 1_555 1_555
H9B C16B 1_555 1_555
C17B C14B 1_555 1_555
O5B C17B 1_555 1_555
O5B_2 Mg1B 1_555 1_555
O6B C17B 1_555 1_555
O6B_2 Mg2 1_555 1_555
O7B Mg1B 1_555 1_555
C18B O7B 1_555 1_555
N1B C18B 1_555 1_555
C19B N1B 1_555 1_555
C20B C19B 1_555 1_555
H10B C20B 1_555 1_555
H11B C20B 1_555 1_555
H12B C20B 1_555 1_555
C21B C19B 1_555 1_555
H13B C21B 1_555 1_555
H14B C21B 1_555 1_555
H15B C21B 1_555 1_555
C22B N1B 1_555 1_555
C23B C22B 1_555 1_555
H16B C23B 1_555 1_555
H17B C23B 1_555 1_555
H18B C23B 1_555 1_555
C24B C22B 1_555 1_555
H19B C24B 1_555 1_555
H20B C24B 1_555 1_555
H21B C24B 1_555 1_555
O8B Mg1B 1_555 1_555
C25B O8B 1_555 1_555
N2B C25B 1_555 1_555
C26B N2B 1_555 1_555
C27B C26B 1_555 1_555
H22B C27B 1_555 1_555
H23B C27B 1_555 1_555
H24B C27B 1_555 1_555
C28B C26B 1_555 1_555
H25B C28B 1_555 1_555
H26B C28B 1_555 1_555
H27B C28B 1_555 1_555
C29B N2B 1_555 1_555
C30B C29B 1_555 1_555
H28B C30B 1_555 1_555
H29B C30B 1_555 1_555
H30B C30B 1_555 1_555
C31B C29B 1_555 1_555
H31B C31B 1_555 1_555
H32B C31B 1_555 1_555
H33B C31B 1_555 1_555
C32B C16 1_555 1_555
H34B C19B 1_555 1_555
H35B C25B 1_555 1_555
H36B C18B 1_555 1_555
H37B C26B 1_555 1_555
H38B C29B 1_555 1_555
H39B C22B 1_555 1_555
Mg2 O4C 1_555 1_555
C5 C10 1_555 1_555
C8 C9 1_555 1_555
C9 C10 1_555 1_555
O4 Mg1C 1_555 1_555
C17 O5 1_555 1_555
C17 O6 1_555 1_555
C32 C32B 1_555 1_555
Mg1B O4A 1_555 1_555
C5B C10B 1_555 1_555
C8B C9B 1_555 1_555
C9B C10B 1_555 1_555
C11B O2B 1_555 1_555
C12B O4B 1_555 1_555
C13B C32B 1_555 1_555
C15B C16B 1_555 1_555

#END
