
#######################################################################
#
#                 Cambridge Crystallographic Data Centre
#                                CCDC 
#
#######################################################################
#
# If this CIF has been generated from an entry in the Cambridge 
# Structural Database, then it will include bibliographic, chemical, 
# crystal, experimental, refinement or atomic coordinate data resulting 
# from the CCDC's data processing and validation procedures.
#
#######################################################################

data_GIRCER
_symmetry_cell_setting           monoclinic
_symmetry_space_group_name_H-M   'P 21/c'
_symmetry_Int_Tables_number      14
_space_group_name_Hall           '-P 2ybc'
loop_
_symmetry_equiv_pos_site_id
_symmetry_equiv_pos_as_xyz
1 x,y,z
2 -x,1/2+y,1/2-z
3 -x,-y,-z
4 x,1/2-y,1/2+z
_cell_length_a                   8.2206(5)
_cell_length_b                   7.7438(5)
_cell_length_c                   18.7793(10)
_cell_angle_alpha                90
_cell_angle_beta                 107.966(3)
_cell_angle_gamma                90
_cell_volume                     1137.17
loop_
_atom_site_label
_atom_site_type_symbol
_atom_site_fract_x
_atom_site_fract_y
_atom_site_fract_z
C1 C -0.0054(5) 0.2864(4) 0.95366(19)
H1 H 0.0913 0.3563 0.9679
C2 C -0.0976(5) 0.2392(5) 0.99866(18)
H2 H -0.0763 0.2689 1.0487
C3 C -0.2095(4) 0.1278(4) 0.88716(14)
H3 H -0.2813 0.0659 0.8474
C4 C -0.5312(4) 0.0614(4) 0.92750(15)
H4 H -0.5511 0.1029 0.8791
C5 C -0.3672(3) 0.0666(3) 0.97817(14)
C6 C -0.3356(3) 0.0053(4) 1.05096(15)
H5 H -0.2257 0.0093 1.0847
C7 C 0.7044(3) 0.0632(4) 0.65591(14)
C8 C 0.5240(4) 0.0673(4) 0.60193(16)
H6 H 0.4860 -0.0506 0.5896
H7 H 0.5269 0.1230 0.5561
C9 C 0.3925(4) 0.1600(5) 0.63036(16)
H8 H 0.4345 0.2747 0.6472
H9 H 0.2872 0.1728 0.5893
C10 C 0.3548(4) 0.0661(4) 0.69354(19)
H10 H 0.4583 0.0631 0.7360
H11 H 0.3246 -0.0522 0.6781
C11 C 0.2131(4) 0.1436(4) 0.71874(16)
Cd1 Cd -0.01648(2) 0.29650(2) 0.777022(10)
N1 N -0.0753(3) 0.2161(3) 0.88374(13)
N2 N -0.2298(3) 0.1383(3) 0.95585(12)
O1 O 0.1573(4) 0.2919(2) 0.69800(16)
O2 O 0.1549(2) 0.0561(2) 0.76321(10)
O3 O 0.8046(3) -0.0446(3) 0.64241(12)
O4 O 0.7401(3) 0.1712(3) 0.70814(13)
C1B C -0.9946(5) -0.2864(4) 1.04634(19)
H1B H -1.0913 -0.3563 1.0321
C2B C -0.9024(5) -0.2392(5) 1.00134(18)
H2B H -0.9237 -0.2689 0.9513
C3B C -0.7905(4) -0.1278(4) 1.11284(14)
H3B H -0.7187 -0.0659 1.1526
C4B C -0.4688(4) -0.0614(4) 1.07250(15)
H4B H -0.4489 -0.1029 1.1209
C5B C -0.6328(3) -0.0666(3) 1.02183(14)
C6B C -0.6644(3) -0.0053(4) 0.94904(15)
H5B H -0.7743 -0.0093 0.9153
N1B N -0.9247(3) -0.2161(3) 1.11626(13)
N2B N -0.7702(3) -0.1383(3) 1.04415(12)
C7B C -1.7044(3) -0.0632(4) 1.34409(14)
C8B C -1.5240(4) -0.0673(4) 1.39807(16)
H6B H -1.4860 0.0506 1.4104
H7B H -1.5269 -0.1230 1.4439
C9B C -1.3925(4) -0.1600(5) 1.36964(16)
H8B H -1.4345 -0.2747 1.3528
H9B H -1.2872 -0.1728 1.4107
C10B C -1.3548(4) -0.0661(4) 1.30646(19)
H10B H -1.4583 -0.0631 1.2640
H11B H -1.3246 0.0522 1.3219
C11B C -1.2131(4) -0.1436(4) 1.28126(16)
Cd1B Cd -0.98352(2) -0.29650(2) 1.222978(10)
O1B O -1.1573(4) -0.2919(2) 1.30200(16)
O2B O -1.1549(2) -0.0561(2) 1.23679(10)
O3B O -1.8046(3) 0.0446(3) 1.35759(12)
O4B O -1.7401(3) -0.1712(3) 1.29186(13)
Cd1_2 Cd 0.98352(2) 0.29650(2) 0.777022(10)
Cd1A Cd 0.01648(2) -0.20350(2) 0.722978(10)
Cd1A_2 Cd 1.01648(2) -0.20350(2) 0.722978(10)
Cd1B_2 Cd -1.98352(2) -0.29650(2) 1.222978(10)
Cd1C Cd -2.01648(2) 0.20350(2) 1.277022(10)
Cd1C_2 Cd -1.01648(2) 0.20350(2) 1.277022(10)
O2A O -0.1549(2) 0.5561(2) 0.73679(10)
O2C O -0.8451(2) -0.5561(2) 1.26321(10)
O3A O 0.1954(3) 0.4554(3) 0.85759(12)
O3C O -1.1954(3) -0.4554(3) 1.14241(12)
O4_2 O -0.2599(3) 0.1712(3) 0.70814(13)
O4B_2 O -0.7401(3) -0.1712(3) 1.29186(13)
loop_
_geom_bond_atom_site_label_1
_geom_bond_atom_site_label_2
_geom_bond_site_symmetry_1
_geom_bond_site_symmetry_2
C1 H1 1_555 1_555
C2 C1 1_555 1_555
H2 C2 1_555 1_555
C3 H3 1_555 1_555
C4 H4 1_555 1_555
C5 C4 1_555 1_555
C6 C5 1_555 1_555
H5 C6 1_555 1_555
C7 C8 1_555 1_555
C8 H6 1_555 1_555
H7 C8 1_555 1_555
C9 C8 1_555 1_555
H8 C9 1_555 1_555
H9 C9 1_555 1_555
C10 C9 1_555 1_555
H10 C10 1_555 1_555
H11 C10 1_555 1_555
C11 C10 1_555 1_555
Cd1 N1 1_555 1_555
N1 C1 1_555 1_555
N2 C2 1_555 1_555
O1 C11 1_555 1_555
O2 C11 1_555 1_555
O3 C7 1_555 1_555
O4 C7 1_555 1_555
C1B H1B 1_555 1_555
C2B C1B 1_555 1_555
H2B C2B 1_555 1_555
C3B H3B 1_555 1_555
C4B C6 1_555 1_555
H4B C4B 1_555 1_555
C5B C4B 1_555 1_555
C6B C4 1_555 1_555
H5B C6B 1_555 1_555
N1B C1B 1_555 1_555
N2B C2B 1_555 1_555
C7B C8B 1_555 1_555
C8B H6B 1_555 1_555
H7B C8B 1_555 1_555
C9B C8B 1_555 1_555
H8B C9B 1_555 1_555
H9B C9B 1_555 1_555
C10B C9B 1_555 1_555
H10B C10B 1_555 1_555
H11B C10B 1_555 1_555
C11B C10B 1_555 1_555
Cd1B N1B 1_555 1_555
O1B C11B 1_555 1_555
O2B C11B 1_555 1_555
O3B C7B 1_555 1_555
O4B C7B 1_555 1_555
Cd1_2 O4 1_555 1_555
Cd1A O2 1_555 1_555
Cd1A_2 O3 1_555 1_555
Cd1B_2 O4B 1_555 1_555
Cd1C O3B 1_555 1_555
Cd1C_2 O2B 1_555 1_555
O2A Cd1 1_555 1_555
O2C Cd1B 1_555 1_555
O3A Cd1 1_555 1_555
O3C Cd1B 1_555 1_555
O4_2 Cd1 1_555 1_555
O4B_2 Cd1B 1_555 1_555
C3 N1 1_555 1_555
C3 N2 1_555 1_555
C5 N2 1_555 1_555
Cd1 O1 1_555 1_555
Cd1 O2 1_555 1_555
C3B N1B 1_555 1_555
C3B N2B 1_555 1_555
C5B C6B 1_555 1_555
C5B N2B 1_555 1_555
Cd1B O1B 1_555 1_555
Cd1B O2B 1_555 1_555

#END
