
#######################################################################
#
#                 Cambridge Crystallographic Data Centre
#                                CCDC 
#
#######################################################################
#
# If this CIF has been generated from an entry in the Cambridge 
# Structural Database, then it will include bibliographic, chemical, 
# crystal, experimental, refinement or atomic coordinate data resulting 
# from the CCDC's data processing and validation procedures.
#
#######################################################################

data_GIRFUJ
_symmetry_cell_setting           monoclinic
_symmetry_space_group_name_H-M   'P 21/n'
_symmetry_Int_Tables_number      14
_space_group_name_Hall           '-P 2yn'
loop_
_symmetry_equiv_pos_site_id
_symmetry_equiv_pos_as_xyz
1 x,y,z
2 1/2-x,1/2+y,1/2-z
3 -x,-y,-z
4 1/2+x,1/2-y,1/2+z
_cell_length_a                   7.7399(15)
_cell_length_b                   9.951(2)
_cell_length_c                   15.091(3)
_cell_angle_alpha                90
_cell_angle_beta                 98.51(3)
_cell_angle_gamma                90
_cell_volume                     1149.51
loop_
_atom_site_label
_atom_site_type_symbol
_atom_site_fract_x
_atom_site_fract_y
_atom_site_fract_z
N1 N 0.8068(3) 0.55403(17) 0.58821(13)
Ce1 Ce 0.642773(13) 0.956600(10) 0.359557(7)
O1 O 0.3281(2) 1.03331(18) 0.31101(13)
O2 O 0.83649(19) 0.76139(14) 0.35507(10)
O3 O 0.5073(2) 0.80909(19) 0.22855(11)
O4 O 0.8039(2) 0.57577(16) 0.27315(10)
O5 O 0.5281(2) 0.19738(16) 0.56692(10)
O6 O 0.5834(2) 0.16592(15) 0.42818(11)
O7 O 0.9469(2) 1.05279(15) 0.38873(11)
O8 O 1.20245(19) 1.05984(15) 0.47945(10)
C1 C 0.8088(2) 0.6362(2) 0.34597(13)
C2 C 0.7801(3) 0.55875(19) 0.42744(14)
C3 C 0.8296(3) 0.6140(2) 0.51184(14)
C4 C 0.7263(3) 0.4336(2) 0.58189(14)
C5 C 0.6749(2) 0.3691(2) 0.50077(13)
C6 C 0.7047(3) 0.4316(2) 0.42220(14)
C7 C 0.5886(2) 0.23370(19) 0.49869(13)
C8 C 1.0431(3) 1.03203(19) 0.46171(14)
H1 H 0.882(3) 0.698(3) 0.5178(16)
H2 H 0.675(3) 0.390(3) 0.3684(16)
H3 H 0.705(3) 0.393(3) 0.6388(17)
H4 H 0.290(4) 1.057(3) 0.356(2)
H5 H 0.259(4) 0.969(3) 0.290(2)
H6 H 0.441(4) 0.841(3) 0.190(2)
H7 H 0.531(4) 0.744(3) 0.211(2)
N1A N 0.6932(3) 1.05403(17) -0.08821(13)
Ce1A Ce 0.857227(13) 1.456600(10) 0.140443(7)
Ce1A_2 Ce 0.857227(13) 0.456600(10) 0.140443(7)
Ce1B Ce 0.357227(13) 0.043400(10) 0.640443(7)
Ce1_2 Ce 0.642773(13) -0.043400(10) 0.359557(7)
Ce1B_2 Ce 1.357227(13) 1.043400(10) 0.640443(7)
Ce1C Ce 1.142773(13) 0.543400(10) -0.140443(7)
O1A O 1.1719(2) 1.53331(18) 0.18899(13)
O2A O 0.66351(19) 1.26139(14) 0.14493(10)
O3A O 0.9927(2) 1.30909(19) 0.27145(11)
O4A O 0.6961(2) 1.07577(16) 0.22685(10)
O4_2 O 0.8039(2) 1.57577(16) 0.27315(10)
O5A O 0.9719(2) 0.69738(16) -0.06692(10)
O5B O 0.4719(2) 0.80262(16) 0.43308(10)
O5C O 1.0281(2) 1.30262(16) 0.06692(10)
O6A O 0.9166(2) 0.66592(15) 0.07182(11)
O6_2 O 0.5834(2) 1.16592(15) 0.42818(11)
O6A_2 O 0.9166(2) 1.66592(15) 0.07182(11)
O7B O 1.0531(2) 0.94721(15) 0.61127(11)
O7A O 0.5531(2) 1.55279(15) 0.11127(11)
O8B O 0.79755(19) 0.94016(15) 0.52055(10)
O8C O 0.70245(19) 1.44016(15) -0.02055(10)
C1A C 0.6912(2) 1.1362(2) 0.15403(13)
C2A C 0.7199(3) 1.05875(19) 0.07256(14)
C3A C 0.6704(3) 1.1140(2) -0.01184(14)
C4A C 0.7737(3) 0.9336(2) -0.08189(14)
C5A C 0.8251(2) 0.8691(2) -0.00077(13)
C6A C 0.7953(3) 0.9316(2) 0.07780(14)
C7A C 0.9114(2) 0.73370(19) 0.00131(13)
C8B C 0.9569(3) 0.96797(19) 0.53829(14)
H1A H 0.618(3) 1.198(3) -0.0178(16)
H2A H 0.825(3) 0.890(3) 0.1316(16)
H3A H 0.795(3) 0.893(3) -0.1388(17)
H4A H 1.210(4) 1.557(3) 0.144(2)
H5A H 1.241(4) 1.469(3) 0.210(2)
H6A H 1.059(4) 1.341(3) 0.310(2)
H7A H 0.969(4) 1.244(3) 0.289(2)
O9 O 0.1021(3) 0.8338(2) 0.25166(15)
H8 H 0.026(6) 0.808(4) 0.278(3)
H9 H 0.145(8) 0.758(6) 0.230(4)
loop_
_geom_bond_atom_site_label_1
_geom_bond_atom_site_label_2
_geom_bond_site_symmetry_1
_geom_bond_site_symmetry_2
N1 C3 1_555 1_555
Ce1 O1 1_555 1_555
O1 H4 1_555 1_555
O2 Ce1 1_555 1_555
O3 Ce1 1_555 1_555
O4 C1 1_555 1_555
O5 C7 1_555 1_555
O6 C7 1_555 1_555
O7 Ce1 1_555 1_555
O8 C8 1_555 1_555
C1 O2 1_555 1_555
C2 C1 1_555 1_555
C3 C2 1_555 1_555
C4 N1 1_555 1_555
C5 C4 1_555 1_555
C6 C2 1_555 1_555
C7 C5 1_555 1_555
C8 O7 1_555 1_555
H1 C3 1_555 1_555
H2 C6 1_555 1_555
H3 C4 1_555 1_555
H5 O1 1_555 1_555
H6 O3 1_555 1_555
H7 O3 1_555 1_555
O9 H8 1_555 1_555
H9 O9 1_555 1_555
N1A C3A 1_555 1_555
Ce1A O1A 1_555 1_555
Ce1A_2 O4 1_555 1_555
Ce1B O5 1_555 1_555
Ce1_2 O6 1_555 1_555
Ce1B_2 O8 1_555 1_555
Ce1C O5A 1_555 1_555
O1A H4A 1_555 1_555
O2A Ce1A 1_555 1_555
O3A Ce1A 1_555 1_555
O4A Ce1 1_555 1_555
O4_2 Ce1A 1_555 1_555
O5A C7A 1_555 1_555
O5B Ce1 1_555 1_555
O5C Ce1A 1_555 1_555
O6A Ce1A_2 1_555 1_555
O6_2 Ce1 1_555 1_555
O6A_2 Ce1A 1_555 1_555
O7B Ce1B_2 1_555 1_555
O7A Ce1A 1_555 1_555
O8B Ce1 1_555 1_555
O8C Ce1A 1_555 1_555
C1A O2A 1_555 1_555
C2A C1A 1_555 1_555
C3A C2A 1_555 1_555
C4A N1A 1_555 1_555
C5A C4A 1_555 1_555
C6A C2A 1_555 1_555
C7A O6A 1_555 1_555
C8B C8 1_555 1_555
H1A C3A 1_555 1_555
H2A C6A 1_555 1_555
H3A C4A 1_555 1_555
H5A O1A 1_555 1_555
H6A O3A 1_555 1_555
H7A O3A 1_555 1_555
C5 C6 1_555 1_555
O4A C1A 1_555 1_555
O7B C8B 1_555 1_555
O8B C8B 1_555 1_555
C5A C6A 1_555 1_555
C5A C7A 1_555 1_555

#END
