
#######################################################################
#
#                 Cambridge Crystallographic Data Centre
#                                CCDC 
#
#######################################################################
#
# If this CIF has been generated from an entry in the Cambridge 
# Structural Database, then it will include bibliographic, chemical, 
# crystal, experimental, refinement or atomic coordinate data resulting 
# from the CCDC's data processing and validation procedures.
#
#######################################################################

data_GIRFAQ
_symmetry_cell_setting           triclinic
_symmetry_space_group_name_H-M   'P -1'
_symmetry_Int_Tables_number      2
_space_group_name_Hall           '-P 1'
loop_
_symmetry_equiv_pos_site_id
_symmetry_equiv_pos_as_xyz
1 x,y,z
2 -x,-y,-z
_cell_length_a                   4.1620(6)
_cell_length_b                   10.4590(15)
_cell_length_c                   10.5052(15)
_cell_angle_alpha                69.310(2)
_cell_angle_beta                 83.608(2)
_cell_angle_gamma                78.873(2)
_cell_volume                     419.296
loop_
_atom_site_label
_atom_site_type_symbol
_atom_site_fract_x
_atom_site_fract_y
_atom_site_fract_z
I1 I 0.71940(11) 0.63491(5) 0.81160(5)
Cu1 Cu 0.2773(3) 0.47534(11) 0.91507(11)
S1 S 0.1335(5) 0.1740(2) 0.9649(2)
N1 N 0.3123(15) 0.3018(6) 0.8644(7)
N2 N 0.2170(19) 0.0708(7) 0.8779(8)
C1 C 0.4496(18) 0.2661(8) 0.7572(8)
C2 C 0.629(2) 0.3450(10) 0.6445(9)
H1 H 0.6661 0.4322 0.6370
C3 C 0.395(2) 0.1331(8) 0.7656(8)
C4 C 0.525(2) 0.0776(11) 0.6629(10)
H2 H 0.4934 -0.0101 0.6687
C5 C 0.694(3) 0.1546(12) 0.5559(11)
H3 H 0.7797 0.1197 0.4869
C6 C 0.744(2) 0.2871(11) 0.5467(10)
H4 H 0.8611 0.3374 0.4708
I1_2 I -0.28060(11) 0.63491(5) 0.81160(5)
I1A I 0.28060(11) 0.36509(5) 1.18840(5)
Cu1_2 Cu 1.2773(3) 0.47534(11) 0.91507(11)
Cu1A Cu -0.2773(3) 0.52466(11) 1.08493(11)
Cu1A_2 Cu 0.7227(3) 0.52466(11) 1.08493(11)
loop_
_geom_bond_atom_site_label_1
_geom_bond_atom_site_label_2
_geom_bond_site_symmetry_1
_geom_bond_site_symmetry_2
I1 Cu1 1_555 1_555
Cu1 N1 1_555 1_555
S1 N1 1_555 1_555
N1 C1 1_555 1_555
N2 S1 1_555 1_555
C1 C2 1_555 1_555
C2 H1 1_555 1_555
C3 N2 1_555 1_555
C4 C3 1_555 1_555
H2 C4 1_555 1_555
C5 C4 1_555 1_555
H3 C5 1_555 1_555
C6 C2 1_555 1_555
H4 C6 1_555 1_555
I1_2 Cu1 1_555 1_555
I1A Cu1 1_555 1_555
Cu1_2 I1 1_555 1_555
Cu1A Cu1 1_555 1_555
Cu1A_2 I1 1_555 1_555
C1 C3 1_555 1_555
C5 C6 1_555 1_555
I1_2 Cu1A 1_555 1_555
I1A Cu1A 1_555 1_555
I1A Cu1A_2 1_555 1_555
Cu1_2 Cu1A_2 1_555 1_555

#END
