
#######################################################################
#
#                 Cambridge Crystallographic Data Centre
#                                CCDC 
#
#######################################################################
#
# If this CIF has been generated from an entry in the Cambridge 
# Structural Database, then it will include bibliographic, chemical, 
# crystal, experimental, refinement or atomic coordinate data resulting 
# from the CCDC's data processing and validation procedures.
#
#######################################################################

data_GIRFOE
_symmetry_cell_setting           triclinic
_symmetry_space_group_name_H-M   'P -1'
_symmetry_Int_Tables_number      2
_space_group_name_Hall           '-P 1'
loop_
_symmetry_equiv_pos_site_id
_symmetry_equiv_pos_as_xyz
1 x,y,z
2 -x,-y,-z
_cell_length_a                   7.062(4)
_cell_length_b                   10.840(7)
_cell_length_c                   13.099(8)
_cell_angle_alpha                98.102(7)
_cell_angle_beta                 101.524(7)
_cell_angle_gamma                107.961(7)
_cell_volume                     912.325
loop_
_atom_site_label
_atom_site_type_symbol
_atom_site_fract_x
_atom_site_fract_y
_atom_site_fract_z
C1 C 0.7433(14) 0.5069(9) 0.6110(7)
C2 C 0.8618(14) 0.6332(9) 0.6736(7)
H1 H 0.8743 0.6502 0.7466
C3 C 0.9604(15) 0.7328(9) 0.6276(7)
H2 H 1.0410 0.8159 0.6706
C4 C 0.9418(14) 0.7117(9) 0.5182(7)
C5 C 0.8271(14) 0.5820(9) 0.4571(7)
H3 H 0.8174 0.5637 0.3843
C6 C 0.7297(14) 0.4821(9) 0.5027(7)
H4 H 0.6545 0.3976 0.4606
C7 C 0.6141(14) 0.4036(9) 0.6573(7)
C8 C 1.0349(14) 0.8176(9) 0.4680(7)
C9 C 1.2493(16) 1.0009(10) 0.4461(8)
H5 H 1.3558 1.0819 0.4590
C10 C 1.1113(15) 0.9366(9) 0.3529(8)
H6 H 1.1092 0.9650 0.2891
C11 C 0.4105(14) 0.0309(9) 1.1351(7)
C12 C 0.4801(16) 0.1628(9) 1.1908(7)
H7 H 0.5616 0.1871 1.2606
C13 C 0.4283(16) 0.2578(10) 1.1425(7)
H8 H 0.4725 0.3448 1.1812
C14 C 0.3124(13) 0.2261(9) 1.0381(7)
C15 C 0.2340(14) 0.0918(9) 0.9838(7)
H9 H 0.1486 0.0674 0.9149
C16 C 0.2826(14) -0.0034(9) 1.0316(7)
H10 H 0.2298 -0.0916 0.9947
C17 C 0.4777(15) -0.0724(10) 1.1796(7)
C18 C 0.2662(14) 0.3288(9) 0.9848(7)
C19 C 0.2114(14) 0.5126(10) 0.9659(8)
H11 H 0.1996 0.5960 0.9802
C20 C 0.1799(16) 0.4360(10) 0.8691(8)
H12 H 0.1385 0.4577 0.8042
Cd1 Cd 0.34685(11) 0.24164(6) 0.74661(5)
N1 N 0.9757(12) 0.8245(8) 0.3651(6)
N2 N 1.2045(12) 0.9258(7) 0.5175(6)
H13 H 1.2719 0.9435 0.5833
N3 N 0.2184(12) 0.3201(7) 0.8808(6)
N4 N 0.2640(12) 0.4426(7) 1.0380(6)
H14 H 0.2913 0.4674 1.1062
O1 O 0.5342(10) 0.2851(6) 0.6066(5)
O2 O 0.5796(11) 0.4420(6) 0.7464(5)
O3 O 0.3955(10) -0.1913(6) 1.1345(5)
O4 O 0.6324(10) -0.0323(6) 1.2616(5)
Cd1A Cd 0.65315(11) -0.24164(6) 1.25339(5)
Cd1A_2 Cd 0.65315(11) 0.75836(6) 0.25339(5)
N1A N 0.0243(12) 0.1755(8) 0.6349(6)
O3A O 0.6045(10) 0.1913(6) 0.8655(5)
O4A O 0.3676(10) 0.0323(6) 0.7384(5)
loop_
_geom_bond_atom_site_label_1
_geom_bond_atom_site_label_2
_geom_bond_site_symmetry_1
_geom_bond_site_symmetry_2
C1 C2 1_555 1_555
C2 H1 1_555 1_555
C3 C2 1_555 1_555
H2 C3 1_555 1_555
C4 C3 1_555 1_555
C5 C4 1_555 1_555
H3 C5 1_555 1_555
C6 C1 1_555 1_555
H4 C6 1_555 1_555
C7 C1 1_555 1_555
C8 C4 1_555 1_555
C9 H5 1_555 1_555
C10 C9 1_555 1_555
H6 C10 1_555 1_555
C11 C12 1_555 1_555
C12 H7 1_555 1_555
C13 C12 1_555 1_555
H8 C13 1_555 1_555
C14 C13 1_555 1_555
C15 C14 1_555 1_555
H9 C15 1_555 1_555
C16 C11 1_555 1_555
H10 C16 1_555 1_555
C17 C11 1_555 1_555
C18 C14 1_555 1_555
C19 H11 1_555 1_555
C20 C19 1_555 1_555
H12 C20 1_555 1_555
Cd1 N3 1_555 1_555
N1 C8 1_555 1_555
N2 C8 1_555 1_555
H13 N2 1_555 1_555
N3 C18 1_555 1_555
N4 C18 1_555 1_555
H14 N4 1_555 1_555
O1 C7 1_555 1_555
O2 C7 1_555 1_555
O3 C17 1_555 1_555
O4 C17 1_555 1_555
Cd1A O3 1_555 1_555
Cd1A_2 N1 1_555 1_555
N1A Cd1 1_555 1_555
O3A Cd1 1_555 1_555
O4A Cd1 1_555 1_555
C5 C6 1_555 1_555
C9 N2 1_555 1_555
C10 N1 1_555 1_555
C15 C16 1_555 1_555
C19 N4 1_555 1_555
C20 N3 1_555 1_555
Cd1 O1 1_555 1_555
Cd1 O2 1_555 1_555
O4 Cd1A 1_555 1_555

#END
