
#######################################################################
#
#                 Cambridge Crystallographic Data Centre
#                                CCDC 
#
#######################################################################
#
# If this CIF has been generated from an entry in the Cambridge 
# Structural Database, then it will include bibliographic, chemical, 
# crystal, experimental, refinement or atomic coordinate data resulting 
# from the CCDC's data processing and validation procedures.
#
#######################################################################

data_GIRGEV
_symmetry_cell_setting           orthorhombic
_symmetry_space_group_name_H-M   'P n a 21'
_symmetry_Int_Tables_number      33
_space_group_name_Hall           'P 2c -2n'
loop_
_symmetry_equiv_pos_site_id
_symmetry_equiv_pos_as_xyz
1 x,y,z
2 -x,-y,1/2+z
3 1/2+x,1/2-y,z
4 1/2-x,1/2+y,1/2+z
_cell_length_a                   11.2993(18)
_cell_length_b                   15.598(3)
_cell_length_c                   3.9293(6)
_cell_angle_alpha                90
_cell_angle_beta                 90
_cell_angle_gamma                90
_cell_volume                     692.525
loop_
_atom_site_label
_atom_site_type_symbol
_atom_site_fract_x
_atom_site_fract_y
_atom_site_fract_z
Cd1 Cd 0.10432(6) 0.08883(4) -0.0754(5)
Br1 Br 0.07402(11) -0.08698(7) -0.0735(8)
Br2 Br 0.26840(10) 0.07720(7) -0.5706(6)
N1 N 0.1000(7) 0.2345(5) -0.071(7)
N2 N 0.1638(9) 0.3626(7) -0.127(4)
H1 H 0.2082 0.4049 -0.1847
C1 C 0.0214(11) 0.2872(8) 0.051(4)
H2 H -0.0505 0.2696 0.1434
C2 C 0.0552(13) 0.3702(9) 0.030(4)
H3 H 0.0157 0.4192 0.1025
C3 C 0.1895(12) 0.2815(8) -0.175(3)
H4 H 0.2596 0.2607 -0.2683
Cd1_2 Cd 0.10432(6) 0.08883(4) -1.0754(5)
Cd1A Cd -0.10432(6) -0.08883(4) -0.5754(5)
Cd1A_2 Cd -0.10432(6) -0.08883(4) 0.4246(5)
Br1A Br -0.07402(11) 0.08698(7) -0.5735(8)
Br1A_2 Br -0.07402(11) 0.08698(7) 0.4265(8)
Br2_2 Br 0.26840(10) 0.07720(7) 0.4294(6)
loop_
_geom_bond_atom_site_label_1
_geom_bond_atom_site_label_2
_geom_bond_site_symmetry_1
_geom_bond_site_symmetry_2
Cd1 Br1 1_555 1_555
Br1 Cd1A 1_555 1_555
Br2 Cd1 1_555 1_555
N1 Cd1 1_555 1_555
N2 H1 1_555 1_555
C1 N1 1_555 1_555
H2 C1 1_555 1_555
C2 N2 1_555 1_555
H3 C2 1_555 1_555
C3 N1 1_555 1_555
H4 C3 1_555 1_555
Cd1_2 Br2 1_555 1_555
Cd1A Br1A 1_555 1_555
Cd1A_2 Br1 1_555 1_555
Br1A Cd1 1_555 1_555
Br1A_2 Cd1 1_555 1_555
Br2_2 Cd1 1_555 1_555
N2 C3 1_555 1_555
C1 C2 1_555 1_555
Cd1_2 Br1A 1_555 1_555
Cd1A_2 Br1A_2 1_555 1_555

#END
