
#######################################################################
#
#                 Cambridge Crystallographic Data Centre
#                                CCDC 
#
#######################################################################
#
# If this CIF has been generated from an entry in the Cambridge 
# Structural Database, then it will include bibliographic, chemical, 
# crystal, experimental, refinement or atomic coordinate data resulting 
# from the CCDC's data processing and validation procedures.
#
#######################################################################

data_GIRGOF
_symmetry_cell_setting           monoclinic
_symmetry_space_group_name_H-M   'P 21/c'
_symmetry_Int_Tables_number      14
_space_group_name_Hall           '-P 2ybc'
loop_
_symmetry_equiv_pos_site_id
_symmetry_equiv_pos_as_xyz
1 x,y,z
2 -x,1/2+y,1/2-z
3 -x,-y,-z
4 x,1/2-y,1/2+z
_cell_length_a                   8.196(2)
_cell_length_b                   18.348(5)
_cell_length_c                   19.036(5)
_cell_angle_alpha                90
_cell_angle_beta                 97.741(5)
_cell_angle_gamma                90
_cell_volume                     2836.55
loop_
_atom_site_label
_atom_site_type_symbol
_atom_site_fract_x
_atom_site_fract_y
_atom_site_fract_z
Cd1 Cd 0.77471(4) 0.763591(16) 0.146662(14)
Cd2 Cd 0.34635(4) 0.681539(17) 0.104430(15)
O1 O 0.5634(3) 0.68677(17) 0.19501(14)
O2 O 0.7096(4) 0.76656(17) 0.26158(15)
O3 O 0.7616(4) 0.72437(18) 0.52302(15)
O4 O 0.5262(3) 0.72478(15) 0.56465(14)
O5 O -0.0106(3) 0.65812(15) 0.67668(15)
O6 O -0.2494(4) 0.60309(17) 0.66113(17)
O7 O -0.1936(4) 0.40011(15) 0.84991(14)
O8 O 0.0137(4) 0.32228(16) 0.85015(15)
O9 O 0.2806(4) 0.78809(18) 0.1505(2)
H1 H 0.193(3) 0.805(3) 0.161(3)
H2 H 0.321(6) 0.8259(16) 0.137(3)
N1 N 0.5233(5) 0.6097(2) 0.04684(19)
N2 N 0.2335(4) 0.6721(2) -0.01166(18)
C1 C 0.6003(5) 0.7194(2) 0.2536(2)
C2 C 0.5216(5) 0.6953(2) 0.31583(19)
C3 C 0.5866(5) 0.7172(2) 0.38346(19)
H3 H 0.6726 0.7507 0.3890
C4 C 0.5264(5) 0.6903(2) 0.44341(19)
C5 C 0.3932(5) 0.6422(2) 0.43494(19)
C6 C 0.3297(6) 0.6208(3) 0.3669(2)
H4 H 0.2414 0.5886 0.3606
C7 C 0.3944(5) 0.6462(3) 0.3083(2)
H5 H 0.3514 0.6299 0.2634
C8 C 0.6103(5) 0.7148(2) 0.51458(19)
C9 C 0.3196(5) 0.6075(2) 0.4942(2)
C10 C 0.4163(5) 0.5720(2) 0.5487(2)
H6 H 0.5301 0.5711 0.5500
C11 C 0.3437(5) 0.5380(2) 0.6013(2)
H7 H 0.4096 0.5140 0.6376
C12 C 0.1735(5) 0.5390(2) 0.6009(2)
C13 C 0.0783(5) 0.5741(2) 0.5460(2)
H8 H -0.0356 0.5753 0.5446
C14 C 0.1507(5) 0.6075(2) 0.4933(2)
H9 H 0.0846 0.6305 0.4563
C15 C 0.1029(5) 0.5002(2) 0.6585(2)
C16 C -0.0184(5) 0.5297(2) 0.69473(19)
C17 C -0.0703(5) 0.4900(2) 0.7497(2)
H10 H -0.1504 0.5098 0.7743
C18 C -0.0075(5) 0.4223(2) 0.7691(2)
C19 C 0.1036(5) 0.3913(3) 0.7290(2)
H11 H 0.1413 0.3440 0.7385
C20 C 0.1579(6) 0.4304(2) 0.6751(2)
H12 H 0.2339 0.4093 0.6491
C21 C -0.0990(5) 0.6015(2) 0.67619(19)
C22 C -0.0636(5) 0.3781(2) 0.8276(2)
C23 C 0.6639(6) 0.5799(3) 0.0755(3)
H13 H 0.6915 0.5813 0.1245
C24 C 0.7721(7) 0.5466(3) 0.0347(4)
H14 H 0.8697 0.5258 0.0562
C25 C 0.7321(7) 0.5450(3) -0.0377(4)
H15 H 0.8029 0.5230 -0.0655
C26 C 0.5867(7) 0.5763(3) -0.0694(3)
C27 C 0.5344(9) 0.5776(4) -0.1458(3)
H16 H 0.6024 0.5574 -0.1760
C28 C 0.3915(9) 0.6071(4) -0.1731(3)
H17 H 0.3602 0.6059 -0.2219
C29 C 0.2866(7) 0.6402(3) -0.1294(3)
C30 C 0.1382(8) 0.6725(4) -0.1568(3)
H18 H 0.1061 0.6736 -0.2055
C31 C 0.0411(7) 0.7020(4) -0.1129(3)
H19 H -0.0590 0.7229 -0.1311
C32 C 0.0913(6) 0.7010(3) -0.0391(3)
H20 H 0.0229 0.7212 -0.0091
C33 C 0.3302(6) 0.6408(3) -0.0553(2)
C34 C 0.4846(6) 0.6089(2) -0.0247(2)
Cd1B Cd 0.22529(4) 0.236409(16) 0.853338(14)
Cd1C Cd -0.22529(4) 0.736409(16) 0.646662(14)
Cd1C_2 Cd 0.77471(4) 0.736409(16) 0.646662(14)
Cd2B Cd -0.34635(4) 0.318461(17) 0.895570(15)
Cd2C Cd 0.34635(4) 0.818461(17) 0.604430(15)
O3C O 0.7616(4) 0.77563(18) 0.02302(15)
O4C O 0.5262(3) 0.77522(15) 0.06465(14)
O5C O 0.9894(3) 0.84188(15) 0.17668(15)
O6C O 0.7506(4) 0.89691(17) 0.16113(17)
O7B O 0.1936(4) 0.59989(15) 0.15009(14)
O8B O 0.9863(4) 0.67772(16) 0.14985(15)
loop_
_geom_bond_atom_site_label_1
_geom_bond_atom_site_label_2
_geom_bond_site_symmetry_1
_geom_bond_site_symmetry_2
Cd1 O1 1_555 1_555
Cd2 O1 1_555 1_555
O1 C1 1_555 1_555
O2 Cd1 1_555 1_555
O3 C8 1_555 1_555
O4 C8 1_555 1_555
O5 C21 1_555 1_555
O6 C21 1_555 1_555
O7 C22 1_555 1_555
O8 C22 1_555 1_555
O9 Cd2 1_555 1_555
H1 O9 1_555 1_555
H2 O9 1_555 1_555
N1 Cd2 1_555 1_555
N2 Cd2 1_555 1_555
C1 O2 1_555 1_555
C2 C1 1_555 1_555
C3 C2 1_555 1_555
H3 C3 1_555 1_555
C4 C3 1_555 1_555
C5 C4 1_555 1_555
C6 C5 1_555 1_555
H4 C6 1_555 1_555
C7 C2 1_555 1_555
H5 C7 1_555 1_555
C8 C4 1_555 1_555
C9 C5 1_555 1_555
C10 C9 1_555 1_555
H6 C10 1_555 1_555
C11 C10 1_555 1_555
H7 C11 1_555 1_555
C12 C11 1_555 1_555
C13 C12 1_555 1_555
H8 C13 1_555 1_555
C14 C9 1_555 1_555
H9 C14 1_555 1_555
C15 C12 1_555 1_555
C16 C15 1_555 1_555
C17 C16 1_555 1_555
H10 C17 1_555 1_555
C18 C17 1_555 1_555
C19 C18 1_555 1_555
H11 C19 1_555 1_555
C20 C15 1_555 1_555
H12 C20 1_555 1_555
C21 C16 1_555 1_555
C22 C18 1_555 1_555
C23 N1 1_555 1_555
H13 C23 1_555 1_555
C24 C23 1_555 1_555
H14 C24 1_555 1_555
C25 C24 1_555 1_555
H15 C25 1_555 1_555
C26 C25 1_555 1_555
C27 C26 1_555 1_555
H16 C27 1_555 1_555
C28 C27 1_555 1_555
H17 C28 1_555 1_555
C29 C28 1_555 1_555
C30 C29 1_555 1_555
H18 C30 1_555 1_555
C31 C30 1_555 1_555
H19 C31 1_555 1_555
C32 N2 1_555 1_555
H20 C32 1_555 1_555
C33 N2 1_555 1_555
C34 N1 1_555 1_555
Cd1B O8 1_555 1_555
Cd1C O5 1_555 1_555
Cd1C_2 O3 1_555 1_555
Cd2B O7 1_555 1_555
Cd2C O4 1_555 1_555
O3C Cd1 1_555 1_555
O4C Cd1 1_555 1_555
O5C Cd1 1_555 1_555
O6C Cd1 1_555 1_555
O7B Cd2 1_555 1_555
O8B Cd1 1_555 1_555
Cd2 O4C 1_555 1_555
O4 Cd1C_2 1_555 1_555
O6 Cd1C 1_555 1_555
C6 C7 1_555 1_555
C13 C14 1_555 1_555
C19 C20 1_555 1_555
C26 C34 1_555 1_555
C29 C33 1_555 1_555
C31 C32 1_555 1_555
C33 C34 1_555 1_555

#END
