
#######################################################################
#
#                 Cambridge Crystallographic Data Centre
#                                CCDC 
#
#######################################################################
#
# If this CIF has been generated from an entry in the Cambridge 
# Structural Database, then it will include bibliographic, chemical, 
# crystal, experimental, refinement or atomic coordinate data resulting 
# from the CCDC's data processing and validation procedures.
#
#######################################################################

data_GIRHOF
_symmetry_cell_setting           orthorhombic
_symmetry_space_group_name_H-M   'F d d 2'
_symmetry_Int_Tables_number      43
_space_group_name_Hall           'F 2 -2d'
loop_
_symmetry_equiv_pos_site_id
_symmetry_equiv_pos_as_xyz
1 x,y,z
2 -x,-y,z
3 1/4-x,1/4+y,1/4+z
4 1/4+x,1/4-y,1/4+z
5 x,1/2+y,1/2+z
6 -x,1/2-y,1/2+z
7 1/4-x,3/4+y,3/4+z
8 1/4+x,3/4-y,3/4+z
9 1/2+x,y,1/2+z
10 1/2-x,-y,1/2+z
11 3/4-x,1/4+y,3/4+z
12 3/4+x,1/4-y,3/4+z
13 1/2+x,1/2+y,z
14 1/2-x,1/2-y,z
15 3/4-x,3/4+y,1/4+z
16 3/4+x,3/4-y,1/4+z
_cell_length_a                   25.093(8)
_cell_length_b                   25.649(8)
_cell_length_c                   7.749(2)
_cell_angle_alpha                90
_cell_angle_beta                 90
_cell_angle_gamma                90
_cell_volume                     4987.34
loop_
_atom_site_label
_atom_site_type_symbol
_atom_site_fract_x
_atom_site_fract_y
_atom_site_fract_z
C1 C 0.7782(3) 0.0189(4) 0.4086(14)
H1 H 0.7489 -0.0022 0.3870
C2 C 0.8527(3) 0.0358(3) 0.5555(10)
C3 C 0.8622(3) 0.0793(3) 0.4585(10)
C4 C 0.8246(3) 0.0916(3) 0.3371(11)
C5 C 0.9256(3) 0.0745(3) 0.6407(15)
H2 H 0.9563 0.0814 0.7041
C6 C 0.9010(4) -0.0067(4) 0.8089(11)
H3 H 0.8867 -0.0399 0.7704
H4 H 0.9388 -0.0114 0.8297
C7 C 0.8743(5) 0.0084(5) 0.9757(13)
H5 H 0.8375 0.0180 0.9531
H6 H 0.8922 0.0384 1.0248
C8 C 0.8757(7) -0.0361(5) 1.1029(17)
H7 H 0.9120 -0.0442 1.1307
H8 H 0.8571 -0.0262 1.2060
H9 H 0.8589 -0.0661 1.0530
N1 N 0.7824(3) 0.0613(3) 0.3131(10)
N2 N 0.8119(3) 0.0026(3) 0.5349(10)
N3 N 0.7509(3) 0.1277(4) -0.2188(11)
N4 N 0.9089(3) 0.1046(3) 0.5134(10)
N5 N 0.8937(3) 0.0323(3) 0.6704(8)
O1 O 0.7661(3) 0.1461(5) -0.3529(13)
O2 O 0.7173(6) 0.1480(7) -0.127(3)
O3 O 0.7707(6) 0.0893(4) -0.157(2)
Cl1 Cl 0.82884(10) 0.14708(9) 0.2124(3)
Ag1 Ag 0.70816(2) 0.08404(2) 0.12875(11)
N2I N 0.6881(3) -0.0026(3) 0.0349(10)
N4K N 0.6589(3) 0.1454(3) 0.2634(10)
Ag1I Ag 0.79184(2) -0.08404(2) 0.62875(11)
Ag1C Ag 0.95816(2) 0.16596(2) 0.37875(11)
loop_
_geom_bond_atom_site_label_1
_geom_bond_atom_site_label_2
_geom_bond_site_symmetry_1
_geom_bond_site_symmetry_2
C1 H1 1_555 1_555
C2 C3 1_555 1_555
C3 C4 1_555 1_555
C4 N1 1_555 1_555
C5 H2 1_555 1_555
C6 H3 1_555 1_555
H4 C6 1_555 1_555
C7 C6 1_555 1_555
H5 C7 1_555 1_555
H6 C7 1_555 1_555
C8 C7 1_555 1_555
H7 C8 1_555 1_555
H8 C8 1_555 1_555
H9 C8 1_555 1_555
N1 C1 1_555 1_555
N2 C1 1_555 1_555
N3 O1 1_555 1_555
N4 C3 1_555 1_555
N5 C2 1_555 1_555
O2 N3 1_555 1_555
O3 N3 1_555 1_555
Cl1 C4 1_555 1_555
Ag1 N1 1_555 1_555
N2I Ag1 1_555 1_555
N4K Ag1 1_555 1_555
Ag1I N2 1_555 1_555
Ag1C N4 1_555 1_555
C2 N2 1_555 1_555
C5 N4 1_555 1_555
C5 N5 1_555 1_555
C6 N5 1_555 1_555
O2 Ag1 1_555 1_555

#END
