
#######################################################################
#
#                 Cambridge Crystallographic Data Centre
#                                CCDC 
#
#######################################################################
#
# If this CIF has been generated from an entry in the Cambridge 
# Structural Database, then it will include bibliographic, chemical, 
# crystal, experimental, refinement or atomic coordinate data resulting 
# from the CCDC's data processing and validation procedures.
#
#######################################################################

data_GIRHEV
_symmetry_cell_setting           orthorhombic
_symmetry_space_group_name_H-M   'F d d 2'
_symmetry_Int_Tables_number      43
_space_group_name_Hall           'F 2 -2d'
loop_
_symmetry_equiv_pos_site_id
_symmetry_equiv_pos_as_xyz
1 x,y,z
2 -x,-y,z
3 1/4-x,1/4+y,1/4+z
4 1/4+x,1/4-y,1/4+z
5 x,1/2+y,1/2+z
6 -x,1/2-y,1/2+z
7 1/4-x,3/4+y,3/4+z
8 1/4+x,3/4-y,3/4+z
9 1/2+x,y,1/2+z
10 1/2-x,-y,1/2+z
11 3/4-x,1/4+y,3/4+z
12 3/4+x,1/4-y,3/4+z
13 1/2+x,1/2+y,z
14 1/2-x,1/2-y,z
15 3/4-x,3/4+y,1/4+z
16 3/4+x,3/4-y,1/4+z
_cell_length_a                   24.946(3)
_cell_length_b                   25.149(3)
_cell_length_c                   7.6705(9)
_cell_angle_alpha                90
_cell_angle_beta                 90
_cell_angle_gamma                90
_cell_volume                     4812.22
loop_
_atom_site_label
_atom_site_type_symbol
_atom_site_fract_x
_atom_site_fract_y
_atom_site_fract_z
Ag1 Ag 0.66789(2) 0.03904(3) 1.00084(15)
O1 O 0.6512(3) -0.0240(3) 1.2566(12)
O2 O 0.6176(3) -0.0200(3) 1.5141(11)
O3 O 0.6178(5) 0.0481(4) 1.3474(13)
N1 N 0.6931(3) -0.0382(3) 0.8521(11)
N2 N 0.7520(3) -0.0655(3) 0.6172(11)
N3 N 0.6232(3) -0.0904(3) 0.9547(10)
H1 H 0.6030 -0.1190 0.9518
H2 H 0.6175 -0.0658 1.0341
N4 N 0.6520(3) -0.1675(3) 0.6561(11)
N5 N 0.7241(3) -0.1491(3) 0.4847(12)
N6 N 0.6291(3) 0.0005(4) 1.3748(11)
C1 C 0.7337(4) -0.0323(3) 0.7410(14)
H3 H 0.7527 0.0003 0.7507
C2 C 0.7190(4) -0.1092(3) 0.6024(14)
C3 C 0.6764(4) -0.1192(4) 0.7080(13)
C4 C 0.6621(3) -0.0844(4) 0.8404(11)
C5 C 0.6814(4) -0.1833(4) 0.5226(14)
H4 H 0.6742 -0.2148 0.4585
C6 C 0.7637(4) -0.1566(5) 0.3461(13)
H5 H 0.7654 -0.1948 0.3155
H6 H 0.7994 -0.1458 0.3897
C7 C 0.7508(4) -0.1254(5) 0.1869(14)
H7 H 0.7485 -0.0872 0.2174
H8 H 0.7154 -0.1366 0.1415
C8 C 0.7925(6) -0.1329(7) 0.0472(19)
H9 H 0.7828 -0.1119 -0.0556
H10 H 0.7945 -0.1706 0.0155
H11 H 0.8275 -0.1211 0.0910
Ag1I Ag 0.83211(2) -0.03904(3) 0.50084(15)
Ag1F Ag 0.58211(2) -0.21096(3) 0.75084(15)
N2I N 0.7480(3) 0.0655(3) 1.1172(11)
N4B N 0.5980(3) 0.0825(3) 0.9061(11)
loop_
_geom_bond_atom_site_label_1
_geom_bond_atom_site_label_2
_geom_bond_site_symmetry_1
_geom_bond_site_symmetry_2
Ag1 O1 1_555 1_555
O1 N6 1_555 1_555
O2 N6 1_555 1_555
O3 N6 1_555 1_555
N1 Ag1 1_555 1_555
N2 C1 1_555 1_555
N3 H1 1_555 1_555
H2 N3 1_555 1_555
N4 C3 1_555 1_555
N5 C2 1_555 1_555
C1 N1 1_555 1_555
H3 C1 1_555 1_555
C2 N2 1_555 1_555
C3 C2 1_555 1_555
C4 N1 1_555 1_555
C5 N4 1_555 1_555
H4 C5 1_555 1_555
C6 N5 1_555 1_555
H5 C6 1_555 1_555
H6 C6 1_555 1_555
C7 C6 1_555 1_555
H7 C7 1_555 1_555
H8 C7 1_555 1_555
C8 C7 1_555 1_555
H9 C8 1_555 1_555
H10 C8 1_555 1_555
H11 C8 1_555 1_555
Ag1I N2 1_555 1_555
Ag1F N4 1_555 1_555
N2I Ag1 1_555 1_555
N4B Ag1 1_555 1_555
N3 C4 1_555 1_555
N5 C5 1_555 1_555
C3 C4 1_555 1_555

#END
