
#######################################################################
#
#                 Cambridge Crystallographic Data Centre
#                                CCDC 
#
#######################################################################
#
# If this CIF has been generated from an entry in the Cambridge 
# Structural Database, then it will include bibliographic, chemical, 
# crystal, experimental, refinement or atomic coordinate data resulting 
# from the CCDC's data processing and validation procedures.
#
#######################################################################

data_GIRHIA
_symmetry_cell_setting           monoclinic
_symmetry_space_group_name_H-M   'P 21/c'
_symmetry_Int_Tables_number      14
_space_group_name_Hall           '-P 2ybc'
loop_
_symmetry_equiv_pos_site_id
_symmetry_equiv_pos_as_xyz
1 x,y,z
2 -x,1/2+y,1/2-z
3 -x,-y,-z
4 x,1/2-y,1/2+z
_cell_length_a                   10.7450(4)
_cell_length_b                   10.2895(4)
_cell_length_c                   9.3049(4)
_cell_angle_alpha                90
_cell_angle_beta                 95.914(4)
_cell_angle_gamma                90
_cell_volume                     1023.28
loop_
_atom_site_label
_atom_site_type_symbol
_atom_site_fract_x
_atom_site_fract_y
_atom_site_fract_z
Zn1 Zn 0.35128(5) 0.82670(4) 0.18598(5)
S1 S 0.17487(10) 0.71883(10) -0.06658(11)
N1 N 0.4661(3) 0.6837(3) 0.2518(4)
O1 O 0.2050(3) 0.6564(3) -0.2032(3)
O2 O 0.0597(3) 0.7952(3) -0.0989(3)
O3 O 0.2803(3) 0.8071(3) -0.0154(3)
O4 O 0.1577(3) 0.6200(3) 0.0429(3)
N2 N 0.5638(4) 0.7068(3) 0.3546(4)
C1 C 0.4700(4) 0.5552(4) 0.2223(5)
N3 N 0.5685(3) 0.5015(3) 0.3041(4)
N4 N 0.6247(4) 0.5996(3) 0.3858(4)
N5 N 0.3920(4) 0.4918(4) 0.1266(4)
H1 H 0.3311 0.5338 0.0759
H2 H 0.4012 0.4077 0.1140
Zn1A Zn 0.64872(5) 0.32670(4) 0.31402(5)
Zn1C Zn 0.35128(5) 0.67330(4) -0.31402(5)
O1C O 0.2050(3) 0.8436(3) 0.2968(3)
N3A N 0.4315(3) 1.0015(3) 0.1959(4)
N6 N 0.9251(3) 0.7775(3) 0.1428(4)
H3 H 0.9645 0.7859 0.0601
H4 H 0.9836 0.7492 0.2152
C2 C 0.8270(5) 0.6786(5) 0.1182(7)
H5 H 0.7886 0.6639 0.2079
H6 H 0.8636 0.5973 0.0874
H7 H 0.7630 0.7087 0.0428
C3 C 0.8789(6) 0.9064(5) 0.1828(6)
H8 H 0.8123 0.9349 0.1097
H9 H 0.9478 0.9692 0.1883
H10 H 0.8459 0.9007 0.2770
loop_
_geom_bond_atom_site_label_1
_geom_bond_atom_site_label_2
_geom_bond_site_symmetry_1
_geom_bond_site_symmetry_2
Zn1 N1 1_555 1_555
S1 O1 1_555 1_555
N1 N2 1_555 1_555
O1 Zn1C 1_555 1_555
O2 S1 1_555 1_555
O3 Zn1 1_555 1_555
O4 S1 1_555 1_555
N2 N4 1_555 1_555
C1 N1 1_555 1_555
N3 C1 1_555 1_555
N4 N3 1_555 1_555
N5 C1 1_555 1_555
H1 N5 1_555 1_555
H2 N5 1_555 1_555
N6 H3 1_555 1_555
H4 N6 1_555 1_555
C2 N6 1_555 1_555
H5 C2 1_555 1_555
H6 C2 1_555 1_555
H7 C2 1_555 1_555
C3 N6 1_555 1_555
H8 C3 1_555 1_555
H9 C3 1_555 1_555
H10 C3 1_555 1_555
Zn1A N3 1_555 1_555
O1C Zn1 1_555 1_555
N3A Zn1 1_555 1_555
S1 O3 1_555 1_555

#END
