
#######################################################################
#
#                 Cambridge Crystallographic Data Centre
#                                CCDC 
#
#######################################################################
#
# If this CIF has been generated from an entry in the Cambridge 
# Structural Database, then it will include bibliographic, chemical, 
# crystal, experimental, refinement or atomic coordinate data resulting 
# from the CCDC's data processing and validation procedures.
#
#######################################################################

data_GIRLOJ
_symmetry_cell_setting           monoclinic
_symmetry_space_group_name_H-M   'P 21/c'
_symmetry_Int_Tables_number      14
_space_group_name_Hall           '-P 2ybc'
loop_
_symmetry_equiv_pos_site_id
_symmetry_equiv_pos_as_xyz
1 x,y,z
2 -x,1/2+y,1/2-z
3 -x,-y,-z
4 x,1/2-y,1/2+z
_cell_length_a                   18.6730(5)
_cell_length_b                   12.8309(3)
_cell_length_c                   17.4384(4)
_cell_angle_alpha                90
_cell_angle_beta                 109.7070(10)
_cell_angle_gamma                90
_cell_volume                     3933.38
loop_
_atom_site_label
_atom_site_type_symbol
_atom_site_fract_x
_atom_site_fract_y
_atom_site_fract_z
Zn1 Zn -0.003866(14) 0.53726(2) 0.277961(15)
Zn2 Zn -0.486333(15) 0.97718(2) 0.201728(15)
O1 O -0.04944(9) 0.67388(13) 0.25893(10)
O3 O -0.16423(10) 0.60266(15) 0.21096(13)
O5 O -0.42535(9) 0.85660(14) 0.19322(11)
O6 O -0.32462(10) 0.95406(16) 0.25559(12)
O7 O 0.10734(9) 0.54637(15) 0.30571(11)
O8 O 0.10466(10) 0.58759(16) 0.42735(12)
O9 O 0.41565(10) 0.57069(17) 0.62281(11)
O10 O 0.36614(10) 0.46295(16) 0.68957(11)
N1 N -0.03311(11) 0.47850(15) 0.16207(11)
N2 N -0.09703(11) 0.35171(17) -0.07191(11)
H5 H -0.1277(14) 0.395(2) -0.1060(15)
N3 N -0.04056(10) 0.07449(16) -0.16347(11)
N4 N -0.47247(11) 1.00589(16) 0.32012(11)
N5 N -0.40700(11) 1.10824(16) 0.56175(11)
H6 H -0.3785(13) 1.0638(18) 0.5951(14)
N6 N -0.45275(10) 1.38978(15) 0.65828(11)
C1 C -0.22226(13) 0.78784(19) 0.11546(16)
C2 C -0.21722(16) 0.7870(2) 0.03765(18)
H7 H -0.1696 0.7820 0.0319
C3 C -0.28098(18) 0.7934(3) -0.03114(18)
H8 H -0.2765 0.7912 -0.0826
C4 C -0.35161(16) 0.8031(2) -0.02262(17)
H9 H -0.3950 0.8097 -0.0684
C5 C -0.35752(14) 0.8029(2) 0.05383(16)
H10 H -0.4053 0.8093 0.0589
C6 C -0.29356(13) 0.79328(19) 0.12437(15)
C7 C -0.14874(13) 0.7849(2) 0.18711(17)
H11 H -0.1552 0.8268 0.2306
H12 H -0.1092 0.8173 0.1707
C8 C -0.12143(13) 0.67752(19) 0.22090(14)
C9 C -0.30390(15) 0.7860(2) 0.20642(16)
H13 H -0.2544 0.7886 0.2488
H14 H -0.3270 0.7195 0.2106
C10 C -0.35338(13) 0.8733(2) 0.22043(15)
C11 C 0.24609(12) 0.6893(2) 0.46685(15)
C12 C 0.23793(14) 0.7907(3) 0.4388(2)
H15 H 0.2223 0.8027 0.3830
C13 C 0.25184(16) 0.8728(3) 0.4899(3)
H16 H 0.2455 0.9402 0.4690
C14 C 0.27516(19) 0.8577(3) 0.5717(3)
H17 H 0.2842 0.9143 0.6070
C15 C 0.28534(16) 0.7567(3) 0.60223(19)
H18 H 0.3020 0.7462 0.6583
C16 C 0.27093(13) 0.6704(2) 0.55012(15)
C17 C 0.22354(15) 0.6029(3) 0.40421(18)
H19 H 0.2354 0.6237 0.3564
H20 H 0.2528 0.5408 0.4264
C18 C 0.13897(13) 0.5782(2) 0.37970(16)
C19 C 0.27920(16) 0.5636(3) 0.5864(2)
H21 H 0.2477 0.5597 0.6206
H22 H 0.2591 0.5139 0.5425
C20 C 0.35926(14) 0.5294(2) 0.63696(15)
C21 C -0.06094(13) 0.53713(19) 0.09459(14)
H23 H -0.0665 0.6084 0.1007
C22 C -0.08157(13) 0.49734(19) 0.01730(14)
H24 H -0.1003 0.5411 -0.0276
C23 C -0.07428(12) 0.39071(19) 0.00655(13)
C24 C -0.04726(13) 0.32906(19) 0.07589(14)
H25 H -0.0428 0.2573 0.0715
C25 C -0.02725(13) 0.37584(19) 0.15103(14)
H26 H -0.0085 0.3339 0.1969
C26 C -0.10376(13) 0.1291(2) -0.20316(14)
H27 H -0.1353 0.1044 -0.2533
C27 C -0.12402(13) 0.2189(2) -0.17356(14)
H28 H -0.1680 0.2542 -0.2036
C28 C -0.07801(12) 0.25764(19) -0.09747(13)
C29 C -0.01362(13) 0.1994(2) -0.05540(14)
H29 H 0.0181 0.2207 -0.0043
C30 C 0.00252(13) 0.1107(2) -0.08986(13)
H30 H 0.0458 0.0732 -0.0608
C31 C -0.42289(13) 0.95199(19) 0.38233(14)
H31 H -0.4015 0.8914 0.3702
C32 C -0.40256(13) 0.98202(19) 0.46230(14)
H32 H -0.3702 0.9406 0.5032
C33 C -0.43092(12) 1.07557(19) 0.48190(13)
C34 C -0.48524(12) 1.1287(2) 0.41856(14)
H33 H -0.5084 1.1885 0.4293
C35 C -0.50389(12) 1.09157(19) 0.34054(13)
H34 H -0.5404 1.1276 0.2992
C36 C -0.43701(14) 1.3003(2) 0.70113(14)
H35 H -0.4375 1.3011 0.7543
C37 C -0.42033(13) 1.20821(19) 0.67125(13)
H36 H -0.4094 1.1490 0.7039
C38 C -0.41985(12) 1.20384(19) 0.59115(13)
C39 C -0.42977(12) 1.29795(19) 0.54870(13)
H37 H -0.4253 1.3006 0.4972
C40 C -0.44612(13) 1.38623(19) 0.58359(13)
H38 H -0.4531 1.4479 0.5539
Zn1C Zn -0.003866(14) -0.03726(2) -0.222039(15)
Zn2C Zn 0.513667(15) 0.52282(2) 0.701728(15)
Zn2C_2 Zn -0.486333(15) 1.52282(2) 0.701728(15)
O9C O -0.58435(10) 0.92931(17) 0.12281(11)
N3C N -0.04056(10) 0.42551(16) 0.33653(11)
N6C N -0.45275(10) 1.11022(15) 0.15828(11)
O2 O -0.17424(12) 1.0048(2) 0.31020(12)
H1 H -0.2222(11) 0.992(3) 0.2901(19)
H2 H -0.1611(18) 1.015(3) 0.2677(15)
O4 O -0.30578(12) 0.51053(18) 0.18633(12)
H3 H -0.3173(18) 0.523(3) 0.2281(15)
H4 H -0.2638(13) 0.541(2) 0.192(2)
loop_
_geom_bond_atom_site_label_1
_geom_bond_atom_site_label_2
_geom_bond_site_symmetry_1
_geom_bond_site_symmetry_2
Zn1 O1 1_555 1_555
Zn2 O5 1_555 1_555
O1 C8 1_555 1_555
O2 H1 1_555 1_555
H2 O2 1_555 1_555
O3 C8 1_555 1_555
O4 H3 1_555 1_555
H4 O4 1_555 1_555
O5 C10 1_555 1_555
O6 C10 1_555 1_555
O7 Zn1 1_555 1_555
O8 C18 1_555 1_555
O9 C20 1_555 1_555
O10 C20 1_555 1_555
N1 Zn1 1_555 1_555
N2 H5 1_555 1_555
N3 C26 1_555 1_555
N4 Zn2 1_555 1_555
N5 H6 1_555 1_555
N6 C36 1_555 1_555
C1 C2 1_555 1_555
C2 H7 1_555 1_555
C3 C2 1_555 1_555
H8 C3 1_555 1_555
C4 C3 1_555 1_555
H9 C4 1_555 1_555
C5 C4 1_555 1_555
H10 C5 1_555 1_555
C6 C1 1_555 1_555
C7 C1 1_555 1_555
H11 C7 1_555 1_555
H12 C7 1_555 1_555
C8 C7 1_555 1_555
C9 C6 1_555 1_555
H13 C9 1_555 1_555
H14 C9 1_555 1_555
C10 C9 1_555 1_555
C11 C12 1_555 1_555
C12 H15 1_555 1_555
C13 C12 1_555 1_555
H16 C13 1_555 1_555
C14 C13 1_555 1_555
H17 C14 1_555 1_555
C15 C14 1_555 1_555
H18 C15 1_555 1_555
C16 C11 1_555 1_555
C17 C11 1_555 1_555
H19 C17 1_555 1_555
H20 C17 1_555 1_555
C18 O7 1_555 1_555
C19 C16 1_555 1_555
H21 C19 1_555 1_555
H22 C19 1_555 1_555
C20 C19 1_555 1_555
C21 N1 1_555 1_555
H23 C21 1_555 1_555
C22 C21 1_555 1_555
H24 C22 1_555 1_555
C23 N2 1_555 1_555
C24 C23 1_555 1_555
H25 C24 1_555 1_555
C25 N1 1_555 1_555
H26 C25 1_555 1_555
C26 H27 1_555 1_555
C27 C26 1_555 1_555
H28 C27 1_555 1_555
C28 N2 1_555 1_555
C29 C28 1_555 1_555
H29 C29 1_555 1_555
C30 N3 1_555 1_555
H30 C30 1_555 1_555
C31 N4 1_555 1_555
H31 C31 1_555 1_555
C32 C31 1_555 1_555
H32 C32 1_555 1_555
C33 N5 1_555 1_555
C34 C33 1_555 1_555
H33 C34 1_555 1_555
C35 N4 1_555 1_555
H34 C35 1_555 1_555
C36 H35 1_555 1_555
C37 C36 1_555 1_555
H36 C37 1_555 1_555
C38 N5 1_555 1_555
C39 C38 1_555 1_555
H37 C39 1_555 1_555
C40 N6 1_555 1_555
H38 C40 1_555 1_555
Zn1C N3 1_555 1_555
Zn2C O9 1_555 1_555
Zn2C_2 N6 1_555 1_555
O9C Zn2 1_555 1_555
N3C Zn1 1_555 1_555
N6C Zn2 1_555 1_555
C5 C6 1_555 1_555
C15 C16 1_555 1_555
C17 C18 1_555 1_555
C22 C23 1_555 1_555
C24 C25 1_555 1_555
C27 C28 1_555 1_555
C29 C30 1_555 1_555
C32 C33 1_555 1_555
C34 C35 1_555 1_555
C37 C38 1_555 1_555
C39 C40 1_555 1_555

#END
