
#######################################################################
#
#                 Cambridge Crystallographic Data Centre
#                                CCDC 
#
#######################################################################
#
# If this CIF has been generated from an entry in the Cambridge 
# Structural Database, then it will include bibliographic, chemical, 
# crystal, experimental, refinement or atomic coordinate data resulting 
# from the CCDC's data processing and validation procedures.
#
#######################################################################

data_GIRLID
_symmetry_cell_setting           monoclinic
_symmetry_space_group_name_H-M   'P 21/n'
_symmetry_Int_Tables_number      14
_space_group_name_Hall           '-P 2yn'
loop_
_symmetry_equiv_pos_site_id
_symmetry_equiv_pos_as_xyz
1 x,y,z
2 1/2-x,1/2+y,1/2-z
3 -x,-y,-z
4 1/2+x,1/2-y,1/2+z
_cell_length_a                   10.392(8)
_cell_length_b                   11.996(9)
_cell_length_c                   14.882(11)
_cell_angle_alpha                90
_cell_angle_beta                 90.648(13)
_cell_angle_gamma                90
_cell_volume                     1855.11
loop_
_atom_site_label
_atom_site_type_symbol
_atom_site_fract_x
_atom_site_fract_y
_atom_site_fract_z
Zn1 Zn 0.21377(3) 0.44304(2) 0.21350(2)
O1 O 0.2735(2) 0.3709(2) 0.01391(14)
O3 O 0.33914(18) 0.35320(18) 0.15387(13)
O4 O 1.0196(2) 0.45579(18) 0.35194(14)
O5 O 1.06671(18) 0.35039(16) 0.23727(13)
N1 N 0.1630(2) 0.58033(18) 0.14448(15)
N2 N 0.1149(2) 0.85133(19) -0.02630(15)
H3 H 0.188(2) 0.886(2) -0.0301(19)
N3 N -0.1632(2) 0.99420(18) -0.19250(14)
C1 C 0.0588(3) 0.5876(2) 0.0914(2)
H4 H -0.0008 0.5299 0.0936
C2 C 0.0342(3) 0.6738(2) 0.0343(2)
H5 H -0.0401 0.6742 -0.0011
C3 C 0.1208(2) 0.7607(2) 0.02952(17)
C4 C 0.2283(3) 0.7542(2) 0.08545(18)
H6 H 0.2892 0.8110 0.0850
C5 C 0.2449(3) 0.6656(2) 0.14060(19)
H7 H 0.3174 0.6642 0.1778
C6 C -0.0405(3) 1.0282(2) -0.18974(19)
H8 H -0.0163 1.0872 -0.2264
C7 C 0.0499(3) 0.9806(2) -0.13616(19)
H9 H 0.1340 1.0071 -0.1368
C8 C 0.0183(2) 0.8927(2) -0.08041(17)
C9 C -0.1087(3) 0.8577(2) -0.08205(19)
H10 H -0.1358 0.7999 -0.0452
C10 C -0.1927(3) 0.9099(2) -0.13871(18)
H11 H -0.2773 0.8846 -0.1399
C11 C 0.5889(3) 0.3073(3) 0.1118(2)
C12 C 0.5982(3) 0.2227(3) 0.1729(2)
H12 H 0.5392 0.1644 0.1702
C13 C 0.6924(3) 0.2217(3) 0.2381(2)
H13 H 0.6964 0.1631 0.2789
C14 C 0.7810(2) 0.3065(2) 0.24384(18)
C15 C 0.7708(3) 0.3921(3) 0.18411(19)
H14 H 0.8285 0.4512 0.1878
C16 C 0.6762(3) 0.3928(3) 0.1181(2)
H15 H 0.6717 0.4517 0.0776
C17 C 0.4849(3) 0.3073(3) 0.0406(2)
H16 H 0.4747 0.2319 0.0182
H17 H 0.5132 0.3532 -0.0092
C18 C 0.3554(3) 0.3491(2) 0.07052(19)
C19 C 0.8822(3) 0.3025(3) 0.3177(2)
H18 H 0.8427 0.3241 0.3738
H19 H 0.9118 0.2262 0.3242
C20 C 0.9965(2) 0.3760(2) 0.30222(18)
Zn1_2 Zn 1.21377(3) 0.44304(2) 0.21350(2)
Zn1C Zn -0.28623(3) 1.05696(2) -0.28650(2)
O5_2 O 0.06671(18) 0.35039(16) 0.23727(13)
N3C N 0.3368(2) 0.50580(18) 0.30750(14)
O2 O 0.8416(2) 0.5164(2) 0.47987(16)
H1 H 0.882(3) 0.516(3) 0.5288(15)
H2 H 0.891(3) 0.501(3) 0.4352(16)
loop_
_geom_bond_atom_site_label_1
_geom_bond_atom_site_label_2
_geom_bond_site_symmetry_1
_geom_bond_site_symmetry_2
Zn1 O3 1_555 1_555
O1 C18 1_555 1_555
O2 H1 1_555 1_555
H2 O2 1_555 1_555
O3 C18 1_555 1_555
O4 C20 1_555 1_555
O5 C20 1_555 1_555
N1 Zn1 1_555 1_555
N2 H3 1_555 1_555
N3 C6 1_555 1_555
C1 N1 1_555 1_555
H4 C1 1_555 1_555
C2 C1 1_555 1_555
H5 C2 1_555 1_555
C3 N2 1_555 1_555
C4 C3 1_555 1_555
H6 C4 1_555 1_555
C5 N1 1_555 1_555
H7 C5 1_555 1_555
C6 H8 1_555 1_555
C7 C6 1_555 1_555
H9 C7 1_555 1_555
C8 N2 1_555 1_555
C9 C8 1_555 1_555
H10 C9 1_555 1_555
C10 N3 1_555 1_555
H11 C10 1_555 1_555
C11 C12 1_555 1_555
C12 H12 1_555 1_555
C13 C12 1_555 1_555
H13 C13 1_555 1_555
C14 C13 1_555 1_555
C15 C14 1_555 1_555
H14 C15 1_555 1_555
C16 C11 1_555 1_555
H15 C16 1_555 1_555
C17 C11 1_555 1_555
H16 C17 1_555 1_555
H17 C17 1_555 1_555
C18 C17 1_555 1_555
C19 C14 1_555 1_555
H18 C19 1_555 1_555
H19 C19 1_555 1_555
C20 C19 1_555 1_555
Zn1_2 O5 1_555 1_555
Zn1C N3 1_555 1_555
O5_2 Zn1 1_555 1_555
N3C Zn1 1_555 1_555
C2 C3 1_555 1_555
C4 C5 1_555 1_555
C7 C8 1_555 1_555
C9 C10 1_555 1_555
C15 C16 1_555 1_555

#END
