
#######################################################################
#
#                 Cambridge Crystallographic Data Centre
#                                CCDC 
#
#######################################################################
#
# If this CIF has been generated from an entry in the Cambridge 
# Structural Database, then it will include bibliographic, chemical, 
# crystal, experimental, refinement or atomic coordinate data resulting 
# from the CCDC's data processing and validation procedures.
#
#######################################################################

data_GIRPUS
_symmetry_cell_setting           monoclinic
_symmetry_space_group_name_H-M   'C 2/m'
_symmetry_Int_Tables_number      12
_space_group_name_Hall           '-C 2y'
loop_
_symmetry_equiv_pos_site_id
_symmetry_equiv_pos_as_xyz
1 x,y,z
2 1/2+x,1/2+y,z
3 -x,y,-z
4 1/2-x,1/2+y,-z
5 -x,-y,-z
6 1/2-x,1/2-y,-z
7 x,-y,z
8 1/2+x,1/2-y,z
_cell_length_a                   22.352(3)
_cell_length_b                   7.894(1)
_cell_length_c                   11.638(2)
_cell_angle_alpha                90
_cell_angle_beta                 92.74(3)
_cell_angle_gamma                90
_cell_volume                     2051.14
loop_
_atom_site_label
_atom_site_type_symbol
_atom_site_fract_x
_atom_site_fract_y
_atom_site_fract_z
Co1 Co 0.2500 0.2500 0.0000
P1 P 0.1427(2) 0.0000 0.0699(3)
P2 P 0.3392(2) 0.0000 0.1521(3)
O1 O 0.1780(3) 0.1644(8) 0.0883(5)
O2 O 0.3045(3) 0.1645(8) 0.1326(5)
O3 O 0.2574(4) 0.0000 -0.0888(7)
C1 C 0.1041(9) 0.0000 -0.071(2)
C2 C 0.0848(7) 0.0000 0.170(1)
C3 C 0.0616(5) 0.154(1) 0.211(1)
C4 C 0.0155(5) 0.154(2) 0.290(1)
C5 C -0.0072(8) 0.0000 0.329(1)
C6 C 0.4042(7) 0.0000 0.066(1)
C7 C 0.3658(6) 0.0000 0.301(1)
C8 C 0.3757(5) -0.154(1) 0.360(1)
C9 C 0.3946(6) -0.153(2) 0.476(1)
C10 C 0.4040(9) 0.0000 0.533(1)
C11 C 0.2590(8) 0.0000 -0.193(1)
N1 N 0.261(1) -0.100(3) -0.268(2)
O1E O 0.3220(3) 0.3356(8) -0.0883(5)
O2E O 0.1955(3) 0.3355(8) -0.1326(5)
O3E O 0.2426(4) 0.5000 0.0888(7)
O1F O 0.1780(3) -0.1644(8) 0.0883(5)
O2F O 0.3045(3) -0.1645(8) 0.1326(5)
Co1F Co 0.2500 -0.2500 0.0000
C3F C 0.0616(5) -0.154(1) 0.211(1)
C4F C 0.0155(5) -0.154(2) 0.290(1)
C8F C 0.3757(5) 0.154(1) 0.360(1)
C9F C 0.3946(6) 0.153(2) 0.476(1)
N1F N 0.261(1) 0.100(3) -0.268(2)
P1E P 0.3573(2) 0.5000 -0.0699(3)
P2E P 0.1608(2) 0.5000 -0.1521(3)
Co1F_2 Co 0.2500 0.7500 0.0000
C11E C 0.2410(8) 0.5000 0.193(1)
O1C O 0.3220(3) -0.3356(8) -0.0883(5)
O2C O 0.1955(3) -0.3355(8) -0.1326(5)
O3E_2 O 0.2426(4) -0.5000 0.0888(7)
O1C_2 O 0.3220(3) 0.6644(8) -0.0883(5)
C1E C 0.3959(9) 0.5000 0.071(2)
C2E C 0.4152(7) 0.5000 -0.170(1)
O2C_2 O 0.1955(3) 0.6645(8) -0.1326(5)
C6E C 0.0958(7) 0.5000 -0.066(1)
C7E C 0.1342(6) 0.5000 -0.301(1)
N1E N 0.239(1) 0.600(3) 0.268(2)
N1C N 0.239(1) 0.400(3) 0.268(2)
P1E_2 P 0.3573(2) -0.5000 -0.0699(3)
P2E_2 P 0.1608(2) -0.5000 -0.1521(3)
C3E C 0.4384(5) 0.346(1) -0.211(1)
C3C C 0.4384(5) 0.654(1) -0.211(1)
C8E C 0.1243(5) 0.654(1) -0.360(1)
C8C C 0.1243(5) 0.346(1) -0.360(1)
C4E C 0.4845(5) 0.346(2) -0.290(1)
C4C C 0.4845(5) 0.654(2) -0.290(1)
C9E C 0.1054(6) 0.653(2) -0.476(1)
C9C C 0.1054(6) 0.347(2) -0.476(1)
C5E C 0.5072(8) 0.5000 -0.329(1)
C10E C 0.0960(9) 0.5000 -0.533(1)
O4 O 0.783(1) 0.105(4) 0.646(2)
C12 C 0.784(2) 0.0000 0.587(4)
N2 N 0.772(1) 0.0000 0.480(2)
O4F O 0.783(1) -0.105(4) 0.646(2)
loop_
_geom_bond_atom_site_label_1
_geom_bond_atom_site_label_2
_geom_bond_site_symmetry_1
_geom_bond_site_symmetry_2
Co1 O1 1_555 1_555
P1 O1 1_555 1_555
P2 O2 1_555 1_555
O2 Co1 1_555 1_555
O3 Co1 1_555 1_555
C1 P1 1_555 1_555
C2 P1 1_555 1_555
C3 C2 1_555 1_555
C4 C3 1_555 1_555
C5 C4 1_555 1_555
C6 P2 1_555 1_555
C7 P2 1_555 1_555
C8 C7 1_555 1_555
C9 C8 1_555 1_555
C10 C9 1_555 1_555
C11 O3 1_555 1_555
N1 C11 1_555 1_555
O4 C12 1_555 1_555
C12 N2 1_555 1_555
O1E Co1 1_555 1_555
O2E Co1 1_555 1_555
O3E Co1 1_555 1_555
O1F P1 1_555 1_555
O2F P2 1_555 1_555
Co1F O3 1_555 1_555
C3F C2 1_555 1_555
C4F C5 1_555 1_555
C8F C7 1_555 1_555
C9F C10 1_555 1_555
N1F C11 1_555 1_555
P1E O1E 1_555 1_555
P2E O2E 1_555 1_555
Co1F_2 O3E 1_555 1_555
C11E O3E 1_555 1_555
O1C Co1F 1_555 1_555
O2C Co1F 1_555 1_555
O3E_2 Co1F 1_555 1_555
O1C_2 P1E 1_555 1_555
C1E P1E 1_555 1_555
C2E P1E 1_555 1_555
O2C_2 P2E 1_555 1_555
C6E P2E 1_555 1_555
C7E P2E 1_555 1_555
N1E C11E 1_555 1_555
N1C C11E 1_555 1_555
P1E_2 O1C 1_555 1_555
P2E_2 O2C 1_555 1_555
C3E C2E 1_555 1_555
C3C C2E 1_555 1_555
C8E C7E 1_555 1_555
C8C C7E 1_555 1_555
C4E C3E 1_555 1_555
C4C C3C 1_555 1_555
C9E C8E 1_555 1_555
C9C C8C 1_555 1_555
C5E C4E 1_555 1_555
C10E C9E 1_555 1_555
O4F C12 1_555 1_555
O1F Co1F 1_555 1_555
O2F Co1F 1_555 1_555
C3F C4F 1_555 1_555
C8F C9F 1_555 1_555
C4C C5E 1_555 1_555
C9C C10E 1_555 1_555

#END
