
#######################################################################
#
#                 Cambridge Crystallographic Data Centre
#                                CCDC 
#
#######################################################################
#
# If this CIF has been generated from an entry in the Cambridge 
# Structural Database, then it will include bibliographic, chemical, 
# crystal, experimental, refinement or atomic coordinate data resulting 
# from the CCDC's data processing and validation procedures.
#
#######################################################################

data_GIRPOM
_symmetry_cell_setting           monoclinic
_symmetry_space_group_name_H-M   'C 2/m'
_symmetry_Int_Tables_number      12
_space_group_name_Hall           '-C 2y'
loop_
_symmetry_equiv_pos_site_id
_symmetry_equiv_pos_as_xyz
1 x,y,z
2 1/2+x,1/2+y,z
3 -x,y,-z
4 1/2-x,1/2+y,-z
5 -x,-y,-z
6 1/2-x,1/2-y,-z
7 x,-y,z
8 1/2+x,1/2-y,z
_cell_length_a                   22.446(3)
_cell_length_b                   8.041(1)
_cell_length_c                   11.612(2)
_cell_angle_alpha                90
_cell_angle_beta                 92.20(4)
_cell_angle_gamma                90
_cell_volume                     2094.29
loop_
_atom_site_label
_atom_site_type_symbol
_atom_site_fract_x
_atom_site_fract_y
_atom_site_fract_z
Mn1 Mn 0.2500 0.2500 0.0000
P1 P 0.1402(2) 0.0000 0.0745(3)
P2 P 0.3406(2) 0.0000 0.1580(3)
O1 O 0.1752(3) 0.1593(9) 0.0913(5)
O2 O 0.3069(3) 0.1606(9) 0.1371(5)
O3 O 0.2578(4) 0.0000 -0.0952(7)
C1 C 0.1004(7) 0.0000 -0.065(1)
C2 C 0.0812(6) 0.0000 0.177(1)
C3 C 0.0597(5) 0.153(2) 0.2153(9)
C4 C 0.0128(5) 0.151(2) 0.294(1)
C5 C -0.0089(7) 0.0000 0.333(1)
C6 C 0.4062(8) 0.0000 0.073(1)
C7 C 0.3666(5) 0.0000 0.308(1)
C8 C 0.3751(5) -0.151(2) 0.3669(9)
C9 C 0.3930(6) -0.151(2) 0.484(1)
C10 C 0.4031(8) 0.0000 0.539(1)
C11 C 0.2585(8) 0.0000 -0.202(1)
N1 N 0.248(1) -0.117(3) -0.276(2)
O1E O 0.3248(3) 0.3407(9) -0.0913(5)
O2E O 0.1931(3) 0.3394(9) -0.1371(5)
O3E O 0.2422(4) 0.5000 0.0952(7)
O1F O 0.1752(3) -0.1593(9) 0.0913(5)
O2F O 0.3069(3) -0.1606(9) 0.1371(5)
Mn1F Mn 0.2500 -0.2500 0.0000
C3F C 0.0597(5) -0.153(2) 0.2153(9)
C4F C 0.0128(5) -0.151(2) 0.294(1)
C8F C 0.3751(5) 0.151(2) 0.3669(9)
C9F C 0.3930(6) 0.151(2) 0.484(1)
N1F N 0.248(1) 0.117(3) -0.276(2)
P1E P 0.3598(2) 0.5000 -0.0745(3)
P2E P 0.1594(2) 0.5000 -0.1580(3)
Mn1F_2 Mn 0.2500 0.7500 0.0000
C11E C 0.2415(8) 0.5000 0.202(1)
O1C O 0.3248(3) -0.3407(9) -0.0913(5)
O2C O 0.1931(3) -0.3394(9) -0.1371(5)
O3E_2 O 0.2422(4) -0.5000 0.0952(7)
O1C_2 O 0.3248(3) 0.6593(9) -0.0913(5)
C1E C 0.3996(7) 0.5000 0.065(1)
C2E C 0.4188(6) 0.5000 -0.177(1)
O2C_2 O 0.1931(3) 0.6606(9) -0.1371(5)
C6E C 0.0938(8) 0.5000 -0.073(1)
C7E C 0.1334(5) 0.5000 -0.308(1)
N1E N 0.252(1) 0.617(3) 0.276(2)
N1C N 0.252(1) 0.383(3) 0.276(2)
P1E_2 P 0.3598(2) -0.5000 -0.0745(3)
P2E_2 P 0.1594(2) -0.5000 -0.1580(3)
C3E C 0.4403(5) 0.347(2) -0.2153(9)
C3C C 0.4403(5) 0.653(2) -0.2153(9)
C8E C 0.1249(5) 0.651(2) -0.3669(9)
C8C C 0.1249(5) 0.349(2) -0.3669(9)
C4E C 0.4872(5) 0.349(2) -0.294(1)
C4C C 0.4872(5) 0.651(2) -0.294(1)
C9E C 0.1070(6) 0.651(2) -0.484(1)
C9C C 0.1070(6) 0.349(2) -0.484(1)
C5E C 0.5089(7) 0.5000 -0.333(1)
C10E C 0.0969(8) 0.5000 -0.539(1)
O4 O 0.784(1) 0.130(3) 0.644(2)
C12 C 0.784(1) 0.0000 0.598(2)
N2 N 0.7705(8) 0.0000 0.489(2)
O4F O 0.784(1) -0.130(3) 0.644(2)
loop_
_geom_bond_atom_site_label_1
_geom_bond_atom_site_label_2
_geom_bond_site_symmetry_1
_geom_bond_site_symmetry_2
Mn1 O1 1_555 1_555
P1 O1 1_555 1_555
P2 O2 1_555 1_555
O2 Mn1 1_555 1_555
O3 Mn1 1_555 1_555
C1 P1 1_555 1_555
C2 P1 1_555 1_555
C3 C2 1_555 1_555
C4 C3 1_555 1_555
C5 C4 1_555 1_555
C6 P2 1_555 1_555
C7 P2 1_555 1_555
C8 C7 1_555 1_555
C9 C8 1_555 1_555
C10 C9 1_555 1_555
C11 O3 1_555 1_555
N1 C11 1_555 1_555
O4 C12 1_555 1_555
C12 N2 1_555 1_555
O1E Mn1 1_555 1_555
O2E Mn1 1_555 1_555
O3E Mn1 1_555 1_555
O1F P1 1_555 1_555
O2F P2 1_555 1_555
Mn1F O3 1_555 1_555
C3F C2 1_555 1_555
C4F C5 1_555 1_555
C8F C7 1_555 1_555
C9F C10 1_555 1_555
N1F C11 1_555 1_555
P1E O1E 1_555 1_555
P2E O2E 1_555 1_555
Mn1F_2 O3E 1_555 1_555
C11E O3E 1_555 1_555
O1C Mn1F 1_555 1_555
O2C Mn1F 1_555 1_555
O3E_2 Mn1F 1_555 1_555
O1C_2 P1E 1_555 1_555
C1E P1E 1_555 1_555
C2E P1E 1_555 1_555
O2C_2 P2E 1_555 1_555
C6E P2E 1_555 1_555
C7E P2E 1_555 1_555
N1E C11E 1_555 1_555
N1C C11E 1_555 1_555
P1E_2 O1C 1_555 1_555
P2E_2 O2C 1_555 1_555
C3E C2E 1_555 1_555
C3C C2E 1_555 1_555
C8E C7E 1_555 1_555
C8C C7E 1_555 1_555
C4E C3E 1_555 1_555
C4C C3C 1_555 1_555
C9E C8E 1_555 1_555
C9C C8C 1_555 1_555
C5E C4E 1_555 1_555
C10E C9E 1_555 1_555
O4F C12 1_555 1_555
O1F Mn1F 1_555 1_555
O2F Mn1F 1_555 1_555
C3F C4F 1_555 1_555
C8F C9F 1_555 1_555
C4C C5E 1_555 1_555
C9C C10E 1_555 1_555

#END
