
#######################################################################
#
#                 Cambridge Crystallographic Data Centre
#                                CCDC 
#
#######################################################################
#
# If this CIF has been generated from an entry in the Cambridge 
# Structural Database, then it will include bibliographic, chemical, 
# crystal, experimental, refinement or atomic coordinate data resulting 
# from the CCDC's data processing and validation procedures.
#
#######################################################################

data_GIRPAA
_symmetry_cell_setting           triclinic
_symmetry_space_group_name_H-M   'P -1'
_symmetry_Int_Tables_number      2
_space_group_name_Hall           '-P 1'
loop_
_symmetry_equiv_pos_site_id
_symmetry_equiv_pos_as_xyz
1 x,y,z
2 -x,-y,-z
_cell_length_a                   7.997(2)
_cell_length_b                   12.352(3)
_cell_length_c                   12.948(4)
_cell_angle_alpha                116.486(4)
_cell_angle_beta                 101.884(4)
_cell_angle_gamma                90.079(5)
_cell_volume                     1113.85
loop_
_atom_site_label
_atom_site_type_symbol
_atom_site_fract_x
_atom_site_fract_y
_atom_site_fract_z
V1 V 0.84144(6) 0.64930(4) 0.45219(4)
V2 V 0.89021(6) 0.54829(4) 0.66614(4)
Co1 Co 0.39551(5) 0.67271(3) 0.35110(3)
C1 C 0.5005(5) 0.7670(3) 0.6471(3)
H1 H 0.4974 0.6952 0.5741
H2 H 0.4340 0.7491 0.6924
H3 H 0.6173 0.7935 0.6917
C2 C 0.4274(4) 0.8652(3) 0.6205(3)
C3 C 0.4144(5) 0.9799(3) 0.7100(3)
H4 H 0.4552 0.9976 0.7890
C4 C 0.3418(5) 1.0664(3) 0.6820(3)
H5 H 0.3359 1.1435 0.7416
C5 C 0.2774(4) 1.0380(3) 0.5646(3)
H6 H 0.2256 1.0948 0.5434
C6 C 0.2920(4) 0.9227(2) 0.4791(2)
C7 C 0.2211(4) 0.8818(3) 0.3512(2)
C8 C 0.1167(4) 0.9475(3) 0.3063(3)
H7 H 0.0894 1.0230 0.3576
C9 C 0.0527(4) 0.9008(3) 0.1847(2)
C10 C -0.0733(4) 1.0919(3) 0.2007(3)
H8 H -0.0052 1.1335 0.2772
C11 C -0.1835(4) 1.1538(3) 0.1541(3)
H9 H -0.1894 1.2365 0.1994
C12 C -0.2837(4) 1.0933(3) 0.0415(3)
H10 H -0.3580 1.1346 0.0101
C13 C -0.2739(5) 0.9708(3) -0.0252(3)
H11 H -0.3416 0.9298 -0.1019
C14 C -0.1645(4) 0.9084(3) 0.0207(3)
H12 H -0.1592 0.8258 -0.0251
C15 C -0.0633(4) 0.9682(3) 0.1343(3)
C16 C 0.0983(4) 0.7870(3) 0.1116(3)
H13 H 0.0594 0.7535 0.0297
C17 C 0.2014(3) 0.7247(3) 0.1613(2)
C18 C 0.2501(3) 0.6012(3) 0.0922(2)
C19 C 0.1954(4) 0.5372(3) -0.0298(3)
H14 H 0.1266 0.5708 -0.0727
C20 C 0.2455(4) 0.4218(3) -0.0867(3)
H15 H 0.2125 0.3772 -0.1688
C21 C 0.3442(4) 0.3742(3) -0.0203(3)
H16 H 0.3775 0.2965 -0.0575
C22 C 0.3948(4) 0.4417(3) 0.1024(3)
C23 C 0.5018(4) 0.3921(3) 0.1765(3)
H17 H 0.5243 0.4514 0.2584
H18 H 0.6086 0.3736 0.1528
H19 H 0.4415 0.3194 0.1662
N1 N 0.3703(3) 0.8387(2) 0.5063(2)
N2 N 0.2620(3) 0.7721(2) 0.2792(2)
N3 N 0.3483(3) 0.5547(2) 0.1579(2)
O1 O 0.6408(3) 0.6679(2) 0.39594(18)
O2 O 0.9655(3) 0.7684(2) 0.4842(2)
O3 O 0.9093(3) 0.51638(19) 0.34356(19)
O4 O 0.8573(3) 0.6344(2) 0.5844(2)
O5 O 0.7315(3) 0.43679(19) 0.61476(19)
O6 O 0.9003(3) 0.6360(2) 0.80509(18)
V2A V 1.10979(6) 0.45171(4) 0.33386(4)
Co1A Co 0.60449(5) 0.32729(3) 0.64890(3)
O3A O 1.0907(3) 0.48362(19) 0.65644(19)
O5A O 0.2685(3) 0.56321(19) 0.38524(19)
loop_
_geom_bond_atom_site_label_1
_geom_bond_atom_site_label_2
_geom_bond_site_symmetry_1
_geom_bond_site_symmetry_2
V1 O1 1_555 1_555
V2 O4 1_555 1_555
Co1 N1 1_555 1_555
C1 H1 1_555 1_555
H2 C1 1_555 1_555
H3 C1 1_555 1_555
C2 C1 1_555 1_555
C3 C2 1_555 1_555
H4 C3 1_555 1_555
C4 C3 1_555 1_555
H5 C4 1_555 1_555
C5 C4 1_555 1_555
H6 C5 1_555 1_555
C6 C5 1_555 1_555
C7 C6 1_555 1_555
C8 C7 1_555 1_555
H7 C8 1_555 1_555
C9 C8 1_555 1_555
C10 H8 1_555 1_555
C11 C10 1_555 1_555
H9 C11 1_555 1_555
C12 C11 1_555 1_555
H10 C12 1_555 1_555
C13 C12 1_555 1_555
H11 C13 1_555 1_555
C14 C13 1_555 1_555
H12 C14 1_555 1_555
C15 C9 1_555 1_555
C16 C9 1_555 1_555
H13 C16 1_555 1_555
C17 C16 1_555 1_555
C18 C17 1_555 1_555
C19 C18 1_555 1_555
H14 C19 1_555 1_555
C20 C19 1_555 1_555
H15 C20 1_555 1_555
C21 C20 1_555 1_555
H16 C21 1_555 1_555
C22 C21 1_555 1_555
C23 C22 1_555 1_555
H17 C23 1_555 1_555
H18 C23 1_555 1_555
H19 C23 1_555 1_555
N1 C2 1_555 1_555
N2 Co1 1_555 1_555
N3 Co1 1_555 1_555
O1 Co1 1_555 1_555
O2 V1 1_555 1_555
O3 V1 1_555 1_555
O4 V1 1_555 1_555
O5 V2 1_555 1_555
O6 V2 1_555 1_555
V2A O3 1_555 1_555
Co1A O5 1_555 1_555
O3A V2 1_555 1_555
O5A Co1 1_555 1_555
C6 N1 1_555 1_555
C7 N2 1_555 1_555
C10 C15 1_555 1_555
C14 C15 1_555 1_555
C17 N2 1_555 1_555
C18 N3 1_555 1_555
C22 N3 1_555 1_555

#END
