
#######################################################################
#
#                 Cambridge Crystallographic Data Centre
#                                CCDC 
#
#######################################################################
#
# If this CIF has been generated from an entry in the Cambridge 
# Structural Database, then it will include bibliographic, chemical, 
# crystal, experimental, refinement or atomic coordinate data resulting 
# from the CCDC's data processing and validation procedures.
#
#######################################################################

data_GIRPUU
_symmetry_cell_setting           orthorhombic
_symmetry_space_group_name_H-M   'P n m a'
_symmetry_Int_Tables_number      62
_space_group_name_Hall           '-P 2ac 2n'
loop_
_symmetry_equiv_pos_site_id
_symmetry_equiv_pos_as_xyz
1 x,y,z
2 1/2-x,-y,1/2+z
3 -x,1/2+y,-z
4 1/2+x,1/2-y,1/2-z
5 -x,-y,-z
6 1/2+x,y,1/2-z
7 x,1/2-y,z
8 1/2-x,1/2+y,1/2+z
_cell_length_a                   13.064(3)
_cell_length_b                   29.008(6)
_cell_length_c                   8.7120(17)
_cell_angle_alpha                90
_cell_angle_beta                 90
_cell_angle_gamma                90
_cell_volume                     3301.5
loop_
_atom_site_label
_atom_site_type_symbol
_atom_site_fract_x
_atom_site_fract_y
_atom_site_fract_z
Hg1 Hg -0.26462(8) 0.7500 -0.65436(10)
Hg2 Hg 0.14430(6) 0.56415(3) 0.41171(8)
Hg3 Hg -0.39508(10) 0.7500 -1.06474(13)
Br1 Br 0.28541(13) 0.51848(6) 0.2953(2)
Br2 Br 0.12303(14) 0.63243(6) 0.5809(2)
Br3 Br 0.0000 0.5000 0.5000
Br4 Br -0.20337(17) 0.7500 -0.9832(3)
Br5 Br -0.4207(2) 0.7500 -1.3461(3)
Br6 Br -0.4981(2) 0.7500 -0.8229(3)
S1 S -0.2664(3) 0.66824(14) -0.6484(5)
N1 N -0.1093(10) 0.6212(4) -0.2164(14)
N2 N 0.0458(11) 0.5812(4) 0.1864(15)
C1 C -0.1185(12) 0.6656(6) -0.2441(18)
H1 H -0.0905 0.6868 -0.1740
C2 C -0.1676(15) 0.6819(5) -0.3719(19)
H2 H -0.1757 0.7139 -0.3852
C3 C -0.2053(11) 0.6521(5) -0.4814(17)
C4 C -0.1919(13) 0.6048(5) -0.4525(17)
H3 H -0.2141 0.5831 -0.5253
C5 C -0.1483(13) 0.5904(6) -0.3241(19)
H4 H -0.1435 0.5586 -0.3051
C6 C 0.0581(13) 0.5567(5) 0.0567(18)
H5 H 0.1009 0.5307 0.0566
C7 C 0.0074(13) 0.5698(6) -0.0788(17)
H6 H 0.0203 0.5538 -0.1705
C8 C -0.0623(12) 0.6066(5) -0.0780(16)
C9 C -0.0755(12) 0.6292(6) 0.0573(16)
H7 H -0.1216 0.6541 0.0624
C10 C -0.0227(12) 0.6164(6) 0.186(2)
H8 H -0.0344 0.6325 0.2783
Hg2D Hg -0.14430(6) 0.43585(3) 0.58829(8)
Br1D Br -0.28541(13) 0.48152(6) 0.7047(2)
Br2D Br -0.12303(14) 0.36757(6) 0.4191(2)
S1D S 0.2664(3) 0.33176(14) 1.6484(5)
N1D N 0.1093(10) 0.3788(4) 1.2164(14)
N2D N -0.0458(11) 0.4188(4) 0.8136(15)
C1D C 0.1185(12) 0.3344(6) 1.2441(18)
H1D H 0.0905 0.3132 1.1740
C2D C 0.1676(15) 0.3181(5) 1.3719(19)
H2D H 0.1757 0.2861 1.3852
C3D C 0.2053(11) 0.3479(5) 1.4814(17)
C4D C 0.1919(13) 0.3952(5) 1.4525(17)
H3D H 0.2141 0.4169 1.5253
C5D C 0.1483(13) 0.4096(6) 1.3241(19)
H4D H 0.1435 0.4414 1.3051
C6D C -0.0581(13) 0.4433(5) 0.9433(18)
H5D H -0.1009 0.4693 0.9434
C7D C -0.0074(13) 0.4302(6) 1.0788(17)
H6D H -0.0203 0.4462 1.1705
C8D C 0.0623(12) 0.3934(5) 1.0780(16)
C9D C 0.0755(12) 0.3708(6) 0.9427(16)
H7D H 0.1216 0.3459 0.9376
C10D C 0.0227(12) 0.3836(6) 0.814(2)
H8D H 0.0344 0.3675 0.7217
Hg1B Hg 0.26462(8) 0.2500 1.65436(10)
S1F S -0.2664(3) 0.83176(14) -0.6484(5)
loop_
_geom_bond_atom_site_label_1
_geom_bond_atom_site_label_2
_geom_bond_site_symmetry_1
_geom_bond_site_symmetry_2
Hg1 Br4 1_555 1_555
Hg2 Br1 1_555 1_555
Hg3 Br4 1_555 1_555
Br2 Hg2 1_555 1_555
Br3 Hg2 1_555 1_555
Br5 Hg3 1_555 1_555
Br6 Hg3 1_555 1_555
S1 Hg1 1_555 1_555
N1 C1 1_555 1_555
N2 Hg2 1_555 1_555
C1 H1 1_555 1_555
C2 C1 1_555 1_555
H2 C2 1_555 1_555
C3 S1 1_555 1_555
C4 C3 1_555 1_555
H3 C4 1_555 1_555
C5 N1 1_555 1_555
H4 C5 1_555 1_555
C6 N2 1_555 1_555
H5 C6 1_555 1_555
C7 C6 1_555 1_555
H6 C7 1_555 1_555
C8 N1 1_555 1_555
C9 C8 1_555 1_555
H7 C9 1_555 1_555
C10 N2 1_555 1_555
H8 C10 1_555 1_555
Hg2D Br3 1_555 1_555
Br1D Hg2D 1_555 1_555
Br2D Hg2D 1_555 1_555
S1D C3D 1_555 1_555
N1D C1D 1_555 1_555
N2D Hg2D 1_555 1_555
C1D H1D 1_555 1_555
C2D C1D 1_555 1_555
H2D C2D 1_555 1_555
C3D C2D 1_555 1_555
C4D C3D 1_555 1_555
H3D C4D 1_555 1_555
C5D N1D 1_555 1_555
H4D C5D 1_555 1_555
C6D N2D 1_555 1_555
H5D C6D 1_555 1_555
C7D C6D 1_555 1_555
H6D C7D 1_555 1_555
C8D N1D 1_555 1_555
C9D C8D 1_555 1_555
H7D C9D 1_555 1_555
C10D N2D 1_555 1_555
H8D C10D 1_555 1_555
Hg1B S1D 1_555 1_555
S1F Hg1 1_555 1_555
C2 C3 1_555 1_555
C4 C5 1_555 1_555
C7 C8 1_555 1_555
C9 C10 1_555 1_555
C4D C5D 1_555 1_555
C7D C8D 1_555 1_555
C9D C10D 1_555 1_555

#END
