
#######################################################################
#
#                 Cambridge Crystallographic Data Centre
#                                CCDC 
#
#######################################################################
#
# If this CIF has been generated from an entry in the Cambridge 
# Structural Database, then it will include bibliographic, chemical, 
# crystal, experimental, refinement or atomic coordinate data resulting 
# from the CCDC's data processing and validation procedures.
#
#######################################################################

data_GIRQAB
_symmetry_cell_setting           orthorhombic
_symmetry_space_group_name_H-M   'I m a 2'
_symmetry_Int_Tables_number      46
_space_group_name_Hall           'I 2 -2a'
loop_
_symmetry_equiv_pos_site_id
_symmetry_equiv_pos_as_xyz
1 x,y,z
2 -x,-y,z
3 1/2+x,-y,z
4 1/2-x,y,z
5 1/2+x,1/2+y,1/2+z
6 1/2-x,1/2-y,1/2+z
7 x,1/2-y,1/2+z
8 -x,1/2+y,1/2+z
_cell_length_a                   30.694(6)
_cell_length_b                   8.8712(18)
_cell_length_c                   13.908(3)
_cell_angle_alpha                90
_cell_angle_beta                 90
_cell_angle_gamma                90
_cell_volume                     3787.05
loop_
_atom_site_label
_atom_site_type_symbol
_atom_site_fract_x
_atom_site_fract_y
_atom_site_fract_z
Hg1 Hg 0.7500 0.64309(9) 1.44438(7)
Hg2 Hg 0.563922(19) -0.39798(7) 1.06141(5)
Hg3 Hg 0.7500 1.05906(11) 1.58773(8)
I1 I 0.52396(4) -0.26329(16) 0.91522(10)
I2 I 0.63441(3) -0.57568(12) 1.07164(9)
I3 I 0.5000 -0.5000 1.19717(11)
I4 I 0.7500 0.98467(15) 1.39563(10)
I5 I 0.7500 1.35536(17) 1.61475(12)
I6 I 0.7500 0.80902(17) 1.69370(12)
S1 S 0.67223(12) 0.6360(4) 1.4517(3)
N1 N 0.6243(3) 0.2113(12) 1.3061(9)
N2 N 0.5841(4) -0.1757(14) 1.1583(10)
C1 C 0.6672(4) 0.2387(19) 1.3083(11)
H1 H 0.6864 0.1680 1.2809
C2 C 0.6840(5) 0.3662(17) 1.3489(13)
H2 H 0.7142 0.3847 1.3456
C3 C 0.6559(4) 0.4730(16) 1.3971(12)
C4 C 0.6122(5) 0.4364(19) 1.3941(13)
H3 H 0.5925 0.5015 1.4252
C5 C 0.5955(4) 0.3119(18) 1.3489(13)
H4 H 0.5653 0.2949 1.3469
C6 C 0.5622(4) -0.0453(19) 1.1497(14)
H5 H 0.5375 -0.0436 1.1095
C7 C 0.5735(4) 0.0862(16) 1.1961(13)
H6 H 0.5580 0.1764 1.1874
C8 C 0.6099(4) 0.0770(17) 1.2575(11)
C9 C 0.6311(5) -0.0531(18) 1.2672(12)
H7 H 0.6560 -0.0568 1.3065
C10 C 0.6177(5) -0.1810(16) 1.2217(12)
H8 H 0.6317 -0.2731 1.2343
Hg2A Hg 0.436078(19) -0.60202(7) 1.06141(5)
I1A I 0.47604(4) -0.73671(16) 0.91522(10)
I2A I 0.36559(3) -0.42432(12) 1.07164(9)
S1A S 0.32777(12) -1.6360(4) 1.4517(3)
N1A N 0.3757(3) -1.2113(12) 1.3061(9)
N2A N 0.4159(4) -0.8243(14) 1.1583(10)
C1A C 0.3328(4) -1.2387(19) 1.3083(11)
H1A H 0.3136 -1.1680 1.2809
C2A C 0.3160(5) -1.3662(17) 1.3489(13)
H2A H 0.2858 -1.3847 1.3456
C3A C 0.3441(4) -1.4730(16) 1.3971(12)
C4A C 0.3878(5) -1.4364(19) 1.3941(13)
H3A H 0.4075 -1.5015 1.4252
C5A C 0.4045(4) -1.3119(18) 1.3489(13)
H4A H 0.4347 -1.2949 1.3469
C6A C 0.4378(4) -0.9547(19) 1.1497(14)
H5A H 0.4625 -0.9564 1.1095
C7A C 0.4265(4) -1.0862(16) 1.1961(13)
H6A H 0.4420 -1.1764 1.1874
C8A C 0.3901(4) -1.0770(17) 1.2575(11)
C9A C 0.3689(5) -0.9469(18) 1.2672(12)
H7A H 0.3440 -0.9432 1.3065
C10A C 0.3823(5) -0.8190(16) 1.2217(12)
H8A H 0.3683 -0.7269 1.2343
Hg1_2 Hg 0.7500 1.64309(9) 1.44438(7)
Hg1A Hg 0.2500 -1.64309(9) 1.44438(7)
Hg1E Hg 0.7500 0.85691(9) 1.94438(7)
I5_2 I 0.7500 0.35536(17) 1.61475(12)
I6E I 0.7500 0.69098(17) 1.19370(12)
S1C S 0.82777(12) 0.6360(4) 1.4517(3)
loop_
_geom_bond_atom_site_label_1
_geom_bond_atom_site_label_2
_geom_bond_site_symmetry_1
_geom_bond_site_symmetry_2
Hg1 I4 1_555 1_555
Hg2 I1 1_555 1_555
Hg3 I4 1_555 1_555
I2 Hg2 1_555 1_555
I3 Hg2 1_555 1_555
I5 Hg3 1_555 1_555
I6 Hg3 1_555 1_555
S1 Hg1 1_555 1_555
N1 C1 1_555 1_555
N2 Hg2 1_555 1_555
C1 H1 1_555 1_555
C2 C1 1_555 1_555
H2 C2 1_555 1_555
C3 S1 1_555 1_555
C4 C3 1_555 1_555
H3 C4 1_555 1_555
C5 N1 1_555 1_555
H4 C5 1_555 1_555
C6 N2 1_555 1_555
H5 C6 1_555 1_555
C7 C6 1_555 1_555
H6 C7 1_555 1_555
C8 N1 1_555 1_555
C9 C8 1_555 1_555
H7 C9 1_555 1_555
C10 N2 1_555 1_555
H8 C10 1_555 1_555
Hg2A I3 1_555 1_555
I1A Hg2A 1_555 1_555
I2A Hg2A 1_555 1_555
S1A C3A 1_555 1_555
N1A C1A 1_555 1_555
N2A Hg2A 1_555 1_555
C1A H1A 1_555 1_555
C2A C1A 1_555 1_555
H2A C2A 1_555 1_555
C3A C2A 1_555 1_555
C4A C3A 1_555 1_555
H3A C4A 1_555 1_555
C5A N1A 1_555 1_555
H4A C5A 1_555 1_555
C6A N2A 1_555 1_555
H5A C6A 1_555 1_555
C7A C6A 1_555 1_555
H6A C7A 1_555 1_555
C8A N1A 1_555 1_555
C9A C8A 1_555 1_555
H7A C9A 1_555 1_555
C10A N2A 1_555 1_555
H8A C10A 1_555 1_555
Hg1_2 I5 1_555 1_555
Hg1A S1A 1_555 1_555
Hg1E I6 1_555 1_555
I5_2 Hg1 1_555 1_555
I6E Hg1 1_555 1_555
S1C Hg1 1_555 1_555
C2 C3 1_555 1_555
C4 C5 1_555 1_555
C7 C8 1_555 1_555
C9 C10 1_555 1_555
C4A C5A 1_555 1_555
C7A C8A 1_555 1_555
C9A C10A 1_555 1_555

#END
