
#######################################################################
#
#                 Cambridge Crystallographic Data Centre
#                                CCDC 
#
#######################################################################
#
# If this CIF has been generated from an entry in the Cambridge 
# Structural Database, then it will include bibliographic, chemical, 
# crystal, experimental, refinement or atomic coordinate data resulting 
# from the CCDC's data processing and validation procedures.
#
#######################################################################

data_GIRSAD
_symmetry_cell_setting           triclinic
_symmetry_space_group_name_H-M   'P 1'
_symmetry_Int_Tables_number      1
_space_group_name_Hall           'P 1'
loop_
_symmetry_equiv_pos_site_id
_symmetry_equiv_pos_as_xyz
1 x,y,z
_cell_length_a                   5.8930(7)
_cell_length_b                   8.8346(11)
_cell_length_c                   15.801(2)
_cell_angle_alpha                99.553(6)
_cell_angle_beta                 99.826(7)
_cell_angle_gamma                109.432(6)
_cell_volume                     742.111
loop_
_atom_site_label
_atom_site_type_symbol
_atom_site_fract_x
_atom_site_fract_y
_atom_site_fract_z
Cs1 Cs 0.18946(7) 0.86398(5) 0.31711(4)
Cu1 Cu 0.4533(3) 0.44147(16) 0.30305(10)
Cl1 Cl -0.0161(6) 0.4432(4) 0.3030(2)
O1 O 0.3205(17) 0.2043(10) 0.2558(5)
O2 O 0.177(3) 0.0100(12) 0.1276(8)
O3 O 0.610(2) 0.6807(11) 0.3500(5)
O4 O 0.783(3) 0.8727(12) 0.4724(7)
O5 O 0.840(3) 0.7324(18) 0.1223(8)
O6 O 0.677(3) 0.1380(15) 0.4688(7)
O7 O 0.749(3) 1.0211(13) 0.2779(9)
N1 N 0.538(2) 0.4262(12) 0.4264(6)
H1 H 0.6600 0.3845 0.4274
N2 N 0.453(2) 0.4535(12) 0.1774(6)
H2 H 0.6167 0.4919 0.1771
C1 C 0.683(3) 0.7244(15) 0.4328(9)
C2 C 0.665(4) 0.5918(16) 0.4862(9)
H3 H 0.5684 0.6056 0.5296
C3 C 0.350(4) 0.2820(16) 0.1180(9)
H4 H 0.2034 0.2716 0.0739
C4 C 0.272(3) 0.1559(17) 0.1704(11)
C5 C 0.359(4) 0.5740(19) 0.1435(10)
H5 H 0.4337 0.6794 0.1867
H6 H 0.1811 0.5357 0.1375
C6 C 0.411(3) 0.6003(16) 0.0554(8)
C7 C 0.643(3) 0.6775(19) 0.0471(10)
C8 C 0.474(3) 0.2739(18) 0.5474(9)
C9 C 0.407(5) 0.327(3) 0.6241(14)
H7 H 0.2949 0.3805 0.6234
C10 C 0.616(3) 0.1903(19) 0.5463(10)
C11 C 0.518(6) 0.296(3) 0.7048(12)
H8 H 0.4828 0.3315 0.7580
C12 C 0.668(5) 0.217(3) 0.7017(11)
H9 H 0.7254 0.1921 0.7543
C13 C 0.753(4) 0.164(2) 0.6304(11)
H10 H 0.8752 0.1194 0.6333
C14 C 0.257(4) 0.581(3) -0.0948(13)
H11 H 0.1258 0.5526 -0.1440
C15 C 0.941(4) 0.618(2) 0.5380(9)
H12 H 0.9351 0.5160 0.5539
H13 H 1.0464 0.6369 0.4969
C16 C 0.355(3) 0.3103(19) 0.4586(9)
H14 H 0.2737 0.2074 0.4135
H15 H 0.2292 0.3546 0.4692
C17 C 0.195(4) 0.553(2) -0.0152(12)
H16 H 0.0332 0.5099 -0.0092
C18 C 0.481(5) 0.643(3) -0.1068(13)
H17 H 0.5017 0.6492 -0.1634
C19 C 0.689(4) 0.700(3) -0.0363(13)
H18 H 0.8483 0.7504 -0.0432
C20 C 0.557(4) 0.256(2) 0.0665(11)
H19 H 0.6326 0.3559 0.0473
H20 H 0.6862 0.2433 0.1084
C21 C 1.067(6) 0.759(3) 0.6218(15)
H21 H 1.0787 0.8604 0.6025
C22 C 0.467(4) 0.116(3) -0.0101(12)
H22 H 0.3932 0.0156 0.0100
C23 C 0.677(4) 0.097(3) -0.0515(13)
H23 H 0.6093 0.0042 -0.1017
H24 H 0.7965 0.0804 -0.0086
H25 H 0.7554 0.1958 -0.0702
C24 C 0.260(6) 0.129(6) -0.0815(18)
H26 H 0.2035 0.0358 -0.1311
H27 H 0.3254 0.2292 -0.1009
H28 H 0.1231 0.1317 -0.0565
C25 C 0.937(6) 0.758(6) 0.689(2)
H29 H 0.7708 0.7470 0.6639
H30 H 1.0192 0.8594 0.7334
H31 H 0.9341 0.6664 0.7146
C26 C 1.332(5) 0.775(3) 0.6560(19)
H32 H 1.4146 0.7798 0.6086
H33 H 1.3331 0.6813 0.6791
H34 H 1.4170 0.8744 0.7021
Cs1_2 Cs 0.18946(7) -0.13602(5) 0.31711(4)
Cs1_3 Cs 1.18946(7) 0.86398(5) 0.31711(4)
O1_2 O 0.3205(17) 1.2043(10) 0.2558(5)
O2_2 O 0.177(3) 1.0100(12) 0.1276(8)
O3_2 O -0.390(2) 0.6807(11) 0.3500(5)
O5_2 O -0.160(3) 0.7324(18) 0.1223(8)
O6_2 O 0.677(3) 1.1380(15) 0.4688(7)
O7_2 O -0.251(3) 1.0211(13) 0.2779(9)
loop_
_geom_bond_atom_site_label_1
_geom_bond_atom_site_label_2
_geom_bond_site_symmetry_1
_geom_bond_site_symmetry_2
Cs1 Cl1 1_555 1_555
Cu1 Cl1 1_555 1_555
O1 Cu1 1_555 1_555
O2 C4 1_555 1_555
O3 Cs1 1_555 1_555
O4 C1 1_555 1_555
O5 C7 1_555 1_555
O6 C10 1_555 1_555
O7 Cs1 1_555 1_555
N1 Cu1 1_555 1_555
H1 N1 1_555 1_555
N2 Cu1 1_555 1_555
H2 N2 1_555 1_555
C1 O3 1_555 1_555
C2 N1 1_555 1_555
H3 C2 1_555 1_555
C3 N2 1_555 1_555
H4 C3 1_555 1_555
C4 O1 1_555 1_555
C5 N2 1_555 1_555
H5 C5 1_555 1_555
H6 C5 1_555 1_555
C6 C5 1_555 1_555
C7 C6 1_555 1_555
C8 C9 1_555 1_555
C9 H7 1_555 1_555
C10 C8 1_555 1_555
C11 C9 1_555 1_555
H8 C11 1_555 1_555
C12 C11 1_555 1_555
H9 C12 1_555 1_555
C13 C10 1_555 1_555
H10 C13 1_555 1_555
C14 H11 1_555 1_555
C15 C2 1_555 1_555
H12 C15 1_555 1_555
H13 C15 1_555 1_555
C16 N1 1_555 1_555
H14 C16 1_555 1_555
H15 C16 1_555 1_555
C17 C6 1_555 1_555
H16 C17 1_555 1_555
C18 C14 1_555 1_555
H17 C18 1_555 1_555
C19 C7 1_555 1_555
H18 C19 1_555 1_555
C20 C3 1_555 1_555
H19 C20 1_555 1_555
H20 C20 1_555 1_555
C21 C15 1_555 1_555
H21 C21 1_555 1_555
C22 C20 1_555 1_555
H22 C22 1_555 1_555
C23 C22 1_555 1_555
H23 C23 1_555 1_555
H24 C23 1_555 1_555
H25 C23 1_555 1_555
C24 C22 1_555 1_555
H26 C24 1_555 1_555
H27 C24 1_555 1_555
H28 C24 1_555 1_555
C25 C21 1_555 1_555
H29 C25 1_555 1_555
H30 C25 1_555 1_555
H31 C25 1_555 1_555
C26 C21 1_555 1_555
H32 C26 1_555 1_555
H33 C26 1_555 1_555
H34 C26 1_555 1_555
Cs1_2 O1 1_555 1_555
Cs1_3 O3 1_555 1_555
O1_2 Cs1 1_555 1_555
O2_2 Cs1 1_555 1_555
O3_2 Cs1 1_555 1_555
O5_2 Cs1 1_555 1_555
O6_2 Cs1 1_555 1_555
O7_2 Cs1 1_555 1_555
Cu1 O3 1_555 1_555
O2 Cs1_2 1_555 1_555
O5 Cs1_3 1_555 1_555
O6 Cs1_2 1_555 1_555
O7 Cs1_3 1_555 1_555
C1 C2 1_555 1_555
C3 C4 1_555 1_555
C8 C16 1_555 1_555
C12 C13 1_555 1_555
C14 C17 1_555 1_555
C18 C19 1_555 1_555

#END
