
#######################################################################
#
#                 Cambridge Crystallographic Data Centre
#                                CCDC 
#
#######################################################################
#
# If this CIF has been generated from an entry in the Cambridge 
# Structural Database, then it will include bibliographic, chemical, 
# crystal, experimental, refinement or atomic coordinate data resulting 
# from the CCDC's data processing and validation procedures.
#
#######################################################################

data_GIRXUC
_symmetry_cell_setting           cubic
_symmetry_space_group_name_H-M   'P 21 3'
_symmetry_Int_Tables_number      198
_space_group_name_Hall           'P 2ac 2ab 3'
loop_
_symmetry_equiv_pos_site_id
_symmetry_equiv_pos_as_xyz
1 x,y,z
2 1/2-x,-y,1/2+z
3 1/2+x,1/2-y,-z
4 -x,1/2+y,1/2-z
5 z,x,y
6 1/2-z,-x,1/2+y
7 1/2+z,1/2-x,-y
8 -z,1/2+x,1/2-y
9 y,z,x
10 1/2+y,1/2-z,-x
11 -y,1/2+z,1/2-x
12 1/2-y,-z,1/2+x
_cell_length_a                   14.2941(8)
_cell_length_b                   14.2941(8)
_cell_length_c                   14.2941(8)
_cell_angle_alpha                90
_cell_angle_beta                 90
_cell_angle_gamma                90
_cell_volume                     2920.59
loop_
_atom_site_label
_atom_site_type_symbol
_atom_site_fract_x
_atom_site_fract_y
_atom_site_fract_z
C1 C 0.3486(3) 0.8944(3) 0.5165(3)
C2 C 0.4255(3) 0.8328(3) 0.5317(3)
H1 H 0.4359 0.7826 0.4917
C3 C 0.2792(4) 0.8764(3) 0.4391(3)
C4 C 0.1254(6) 0.9532(9) 0.7918(7)
H2 H 0.0943 0.9379 0.8493
H3 H 0.1664 1.0054 0.8018
H4 H 0.1611 0.9003 0.7709
C5 C 0.0725(8) 1.0671(7) 0.6870(8)
H5 H 0.0177 1.1042 0.6981
H6 H 0.0836 1.0627 0.6209
H7 H 0.1255 1.0958 0.7167
C6 C 0.0841(9) 0.9294(9) 0.6448(5)
H8 H 0.1098 0.8736 0.6664
N1 N 0.0590(6) 0.9765(7) 0.7241(5)
O1 O 0.2990(2) 0.8071(2) 0.3855(2)
O2 O 0.3003(5) 0.6997(5) 0.1997(5)
O3 O 0.2178(3) 0.9326(2) 0.4254(3)
O4 O 0.0893(10) 0.9244(11) 0.5665(6)
Zn1 Zn 0.22027(3) 0.77973(3) 0.27973(3)
Zn2 Zn 0.07348(4) 0.92652(4) 0.42652(4)
C1G C 0.4835(3) 0.8486(3) 0.6056(3)
C2G C 0.4683(3) 0.9255(3) 0.6672(3)
H1G H 0.5083 0.9359 0.7174
C3G C 0.5609(3) 0.7792(4) 0.6236(3)
O1G O 0.6145(2) 0.7990(2) 0.6929(2)
O3G O 0.5746(3) 0.7178(3) 0.5674(2)
C1I C 0.3944(3) 0.9835(3) 0.6514(3)
C2I C 0.3328(3) 0.9683(3) 0.5745(3)
H1I H 0.2826 1.0083 0.5641
C3I C 0.3764(3) 1.0609(3) 0.7208(4)
O1I O 0.3071(2) 1.1145(2) 0.7010(2)
O3I O 0.4326(2) 1.0746(3) 0.7822(3)
C4E C -0.2918(7) 0.8746(6) 0.4532(9)
H2E H -0.3493 0.9057 0.4379
H3E H -0.3018 0.8336 0.5054
H4E H -0.2709 0.8389 0.4003
C5E C -0.1870(8) 0.9275(8) 0.5671(7)
H5E H -0.1981 0.9823 0.6042
H6E H -0.1209 0.9164 0.5627
H7E H -0.2167 0.8745 0.5958
C6E C -0.1448(5) 0.9159(9) 0.4294(9)
H8E H -0.1664 0.8902 0.3736
N1E N -0.2241(5) 0.9410(6) 0.4765(7)
O4E O -0.0665(6) 0.9107(10) 0.4244(11)
C4J C 0.0468(9) 1.2918(7) 0.3746(6)
H2J H 0.0621 1.3493 0.4057
H3J H -0.0054 1.3018 0.3336
H4J H 0.0997 1.2709 0.3389
C5J C -0.0671(7) 1.1870(8) 0.4275(8)
H5J H -0.1042 1.1981 0.4823
H6J H -0.0627 1.1209 0.4164
H7J H -0.0958 1.2167 0.3745
C6J C 0.0706(9) 1.1448(5) 0.4159(9)
H8J H 0.1264 1.1664 0.3902
N1J N 0.0235(7) 1.2241(5) 0.4410(6)
O4J O 0.0756(11) 1.0665(6) 0.4107(10)
O1E O 0.1145(2) 0.7010(2) 0.3071(2)
O1J O 0.1929(2) 0.8855(2) 0.2010(2)
O3E O 0.0746(3) 0.7822(3) 0.4326(2)
O3J O 0.0674(2) 0.9254(3) 0.2822(3)
Zn1A Zn 0.27973(3) 1.22027(3) 0.77973(3)
Zn1B Zn 0.72027(3) 0.72027(3) 0.72027(3)
Zn2A Zn 0.42652(4) 1.07348(4) 0.92652(4)
Zn2B Zn 0.57348(4) 0.57348(4) 0.57348(4)
loop_
_geom_bond_atom_site_label_1
_geom_bond_atom_site_label_2
_geom_bond_site_symmetry_1
_geom_bond_site_symmetry_2
C1 C2 1_555 1_555
C2 H1 1_555 1_555
C3 C1 1_555 1_555
C4 H2 1_555 1_555
H3 C4 1_555 1_555
H4 C4 1_555 1_555
C5 H5 1_555 1_555
H6 C5 1_555 1_555
H7 C5 1_555 1_555
C6 H8 1_555 1_555
N1 C4 1_555 1_555
O1 C3 1_555 1_555
O2 Zn1 1_555 1_555
O3 C3 1_555 1_555
O4 C6 1_555 1_555
Zn1 O1 1_555 1_555
Zn2 O3 1_555 1_555
C1G C2 1_555 1_555
C2G C1G 1_555 1_555
H1G C2G 1_555 1_555
C3G C1G 1_555 1_555
O1G C3G 1_555 1_555
O3G C3G 1_555 1_555
C1I C2G 1_555 1_555
C2I C1 1_555 1_555
H1I C2I 1_555 1_555
C3I C1I 1_555 1_555
O1I C3I 1_555 1_555
O3I C3I 1_555 1_555
C4E H2E 1_555 1_555
H3E C4E 1_555 1_555
H4E C4E 1_555 1_555
C5E H5E 1_555 1_555
H6E C5E 1_555 1_555
H7E C5E 1_555 1_555
C6E H8E 1_555 1_555
N1E C4E 1_555 1_555
O4E Zn2 1_555 1_555
C4J H2J 1_555 1_555
H3J C4J 1_555 1_555
H4J C4J 1_555 1_555
C5J H5J 1_555 1_555
H6J C5J 1_555 1_555
H7J C5J 1_555 1_555
C6J H8J 1_555 1_555
N1J C4J 1_555 1_555
O4J Zn2 1_555 1_555
O1E Zn1 1_555 1_555
O1J Zn1 1_555 1_555
O3E Zn2 1_555 1_555
O3J Zn2 1_555 1_555
Zn1A O1I 1_555 1_555
Zn1B O1G 1_555 1_555
Zn2A O3I 1_555 1_555
Zn2B O3G 1_555 1_555
C5 N1 1_555 1_555
C6 N1 1_555 1_555
O4 Zn2 1_555 1_555
C1I C2I 1_555 1_555
C5E N1E 1_555 1_555
C6E N1E 1_555 1_555
C6E O4E 1_555 1_555
C5J N1J 1_555 1_555
C6J N1J 1_555 1_555
C6J O4J 1_555 1_555

#END
