
#######################################################################
#
#                 Cambridge Crystallographic Data Centre
#                                CCDC 
#
#######################################################################
#
# If this CIF has been generated from an entry in the Cambridge 
# Structural Database, then it will include bibliographic, chemical, 
# crystal, experimental, refinement or atomic coordinate data resulting 
# from the CCDC's data processing and validation procedures.
#
#######################################################################

data_GIRYEN
_symmetry_cell_setting           monoclinic
_symmetry_space_group_name_H-M   'C 2/c'
_symmetry_Int_Tables_number      15
_space_group_name_Hall           '-C 2yn'
loop_
_symmetry_equiv_pos_site_id
_symmetry_equiv_pos_as_xyz
1 x,y,z
2 -x,y,1/2-z
3 1/2+x,1/2+y,z
4 1/2-x,1/2+y,1/2-z
5 -x,-y,-z
6 x,-y,1/2+z
7 1/2-x,1/2-y,-z
8 1/2+x,1/2-y,1/2+z
_cell_length_a                   16.205(6)
_cell_length_b                   24.834(8)
_cell_length_c                   13.514(5)
_cell_angle_alpha                90
_cell_angle_beta                 124.244(3)
_cell_angle_gamma                90
_cell_volume                     4495.73
loop_
_atom_site_label
_atom_site_type_symbol
_atom_site_fract_x
_atom_site_fract_y
_atom_site_fract_z
C1 C 0.9778(8) 0.9936(6) 0.1445(11)
H1 H 0.9815 1.0264 0.1084
H2 H 1.0165 0.9660 0.1373
C2 C 1.0189(19) 1.0033(6) 0.2780(13)
H3 H 0.9903 1.0356 0.2853
H4 H 1.0902 1.0069 0.3234
H5 H 1.0017 0.9733 0.3079
O1 O 0.8768(5) 0.9768(3) 0.0864(7)
H6 H 0.8384 1.0004 0.0357
Zn1 Zn 0.5000 0.0000 0.0000
Zn2 Zn 0.322511(19) 0.052506(10) -0.27160(2)
O2 O 0.74207(13) 0.06221(7) -0.05421(14)
O3 O 0.62419(14) 0.12105(8) -0.09242(16)
O4 O 0.65123(12) 0.02988(6) 0.08091(13)
O5 O 0.75197(13) 0.01222(7) 0.27671(14)
O6 O 0.9700(2) 0.15628(15) 0.5361(2)
O7 O 1.0160(2) 0.21801(11) 0.4691(2)
O8 O 0.45881(12) 0.03861(6) -0.15488(13)
H7 H 0.4975 0.0616 -0.1552
N1 N 0.96730(19) 0.17845(11) 0.4549(2)
N2 N 0.45984(14) 0.07047(7) 0.05932(16)
N3 N 0.23892(15) 0.38414(7) 0.23500(17)
C3 C 0.77125(17) 0.11771(9) 0.10448(19)
C4 C 0.78330(17) 0.08986(9) 0.20186(19)
C5 C 0.84886(18) 0.10949(10) 0.3174(2)
H8 H 0.8584 0.0911 0.3830
C6 C 0.89959(18) 0.15690(10) 0.3328(2)
C7 C 0.8885(2) 0.18572(10) 0.2387(2)
H9 H 0.9232 0.2177 0.2517
C8 C 0.8241(2) 0.16546(10) 0.1244(2)
H10 H 0.8157 0.1840 0.0596
C9 C 0.70465(18) 0.09846(9) -0.02403(19)
C10 C 0.72341(17) 0.03987(8) 0.18355(19)
C11 C 0.47972(18) 0.12112(9) 0.04483(19)
H11 H 0.5178 0.1265 0.0138
C12 C 0.44626(19) 0.16581(9) 0.0739(2)
H12 H 0.4622 0.2003 0.0628
C13 C 0.38821(18) 0.15869(9) 0.1200(2)
C14 C 0.36784(19) 0.10600(10) 0.1342(2)
H13 H 0.3294 0.0993 0.1643
C15 C 0.40453(19) 0.06363(9) 0.1038(2)
H14 H 0.3903 0.0287 0.1146
C16 C 0.34849(19) 0.20299(10) 0.1539(2)
H15 H 0.3082 0.1935 0.1799
C17 C 0.36448(19) 0.25486(10) 0.1509(2)
H16 H 0.4059 0.2646 0.1267
C18 C 0.2946(2) 0.39267(10) 0.1915(2)
H17 H 0.3054 0.4280 0.1784
C19 C 0.3364(2) 0.35165(10) 0.1654(2)
H18 H 0.3746 0.3597 0.1357
C20 C 0.32190(18) 0.29875(10) 0.1829(2)
C21 C 0.2651(2) 0.28988(10) 0.2298(3)
H19 H 0.2544 0.2550 0.2453
C22 C 0.2250(2) 0.33299(10) 0.2530(2)
H20 H 0.1862 0.3262 0.2826
Zn2A Zn 0.677489(19) 0.052506(10) -0.22840(2)
O2A O 0.25793(13) 0.06221(7) -0.44579(14)
O3A O 0.37581(14) 0.12105(8) -0.40758(16)
O4A O 0.34877(12) 0.02988(6) -0.58091(13)
O5A O 0.24803(13) 0.01222(7) -0.77671(14)
O6A O 0.0300(2) 0.15628(15) -1.0361(2)
O7A O -0.0160(2) 0.21801(11) -0.9691(2)
O8A O 0.54119(12) 0.03861(6) -0.34512(13)
H7A H 0.5025 0.0616 -0.3448
N1A N 0.03270(19) 0.17845(11) -0.9549(2)
C3A C 0.22875(17) 0.11771(9) -0.60448(19)
C4A C 0.21670(17) 0.08986(9) -0.70186(19)
C5A C 0.15114(18) 0.10949(10) -0.8174(2)
H8A H 0.1416 0.0911 -0.8830
C6A C 0.10041(18) 0.15690(10) -0.8328(2)
C7A C 0.1115(2) 0.18572(10) -0.7387(2)
H9A H 0.0768 0.2177 -0.7517
C8A C 0.1759(2) 0.16546(10) -0.6244(2)
H10A H 0.1843 0.1840 -0.5596
C9A C 0.29535(18) 0.09846(9) -0.47597(19)
C10A C 0.27659(17) 0.03987(8) -0.68355(19)
N2D N 0.54016(14) -0.07047(7) -0.05932(16)
N3D N 0.76108(15) -0.38414(7) -0.23500(17)
C11D C 0.52028(18) -0.12112(9) -0.04483(19)
H11D H 0.4822 -0.1265 -0.0138
C12D C 0.55374(19) -0.16581(9) -0.0739(2)
H12D H 0.5378 -0.2003 -0.0628
C13D C 0.61179(18) -0.15869(9) -0.1200(2)
C14D C 0.63216(19) -0.10600(10) -0.1342(2)
H13D H 0.6706 -0.0993 -0.1643
C15D C 0.59547(19) -0.06363(9) -0.1038(2)
H14D H 0.6097 -0.0287 -0.1146
C16D C 0.65151(19) -0.20299(10) -0.1539(2)
H15D H 0.6918 -0.1935 -0.1799
C17D C 0.63552(19) -0.25486(10) -0.1509(2)
H16D H 0.5941 -0.2646 -0.1267
C18D C 0.7054(2) -0.39267(10) -0.1915(2)
H17D H 0.6946 -0.4280 -0.1784
C19D C 0.6636(2) -0.35165(10) -0.1654(2)
H18D H 0.6254 -0.3597 -0.1357
C20D C 0.67810(18) -0.29875(10) -0.1829(2)
C21D C 0.7349(2) -0.28988(10) -0.2298(3)
H19D H 0.7456 -0.2550 -0.2453
C22D C 0.7750(2) -0.33299(10) -0.2530(2)
H20D H 0.8138 -0.3262 -0.2826
Zn1A Zn 0.5000 0.0000 -0.5000
Zn2B Zn 0.822511(19) -0.447494(10) -0.27160(2)
Zn2D Zn 0.677489(19) -0.052506(10) 0.27160(2)
Zn2E Zn 0.322511(19) -0.052506(10) -0.77160(2)
Zn2F Zn 0.177489(19) 0.447494(10) 0.27160(2)
O4D O 0.34877(12) -0.02988(6) -0.08091(13)
O5D O 0.24803(13) -0.01222(7) -0.27671(14)
O5E O 0.75197(13) -0.01222(7) -0.22329(14)
O8D O 0.54119(12) -0.03861(6) 0.15488(13)
N3F N 0.26108(15) 0.11586(7) -0.23500(17)
N3G N 0.73892(15) 0.11586(7) -0.26500(17)
O9 O 0.5000 0.20238(11) 0.7500
H21 H 0.4636 0.1823 0.6895
H21A H 0.5364 0.1823 0.8105
C1A C 1.0222(8) 0.9936(6) 0.3555(11)
H1A H 1.0185 1.0264 0.3916
H2A H 0.9835 0.9660 0.3627
C2A C 0.9811(19) 1.0033(6) 0.2220(13)
H3A H 1.0097 1.0356 0.2147
H4A H 0.9098 1.0069 0.1766
H5A H 0.9983 0.9733 0.1921
O1A O 1.1232(5) 0.9768(3) 0.4136(7)
H6A H 1.1616 1.0004 0.4643
loop_
_geom_bond_atom_site_label_1
_geom_bond_atom_site_label_2
_geom_bond_site_symmetry_1
_geom_bond_site_symmetry_2
C1 H1 1_555 1_555
H2 C1 1_555 1_555
C2 C1 1_555 1_555
H3 C2 1_555 1_555
H4 C2 1_555 1_555
H5 C2 1_555 1_555
O1 C1 1_555 1_555
H6 O1 1_555 1_555
Zn1 O4 1_555 1_555
Zn2 O8 1_555 1_555
O2 C9 1_555 1_555
O3 C9 1_555 1_555
O4 C10 1_555 1_555
O5 C10 1_555 1_555
O6 N1 1_555 1_555
O7 N1 1_555 1_555
O8 Zn1 1_555 1_555
H7 O8 1_555 1_555
N1 C6 1_555 1_555
N2 Zn1 1_555 1_555
N3 C18 1_555 1_555
C3 C4 1_555 1_555
C4 C5 1_555 1_555
C5 H8 1_555 1_555
C6 C5 1_555 1_555
C7 C6 1_555 1_555
H9 C7 1_555 1_555
C8 C3 1_555 1_555
H10 C8 1_555 1_555
C9 C3 1_555 1_555
C10 C4 1_555 1_555
C11 N2 1_555 1_555
H11 C11 1_555 1_555
C12 C11 1_555 1_555
H12 C12 1_555 1_555
C13 C12 1_555 1_555
C14 C13 1_555 1_555
H13 C14 1_555 1_555
C15 N2 1_555 1_555
H14 C15 1_555 1_555
C16 C13 1_555 1_555
H15 C16 1_555 1_555
C17 C16 1_555 1_555
H16 C17 1_555 1_555
C18 H17 1_555 1_555
C19 C18 1_555 1_555
H18 C19 1_555 1_555
C20 C17 1_555 1_555
C21 C20 1_555 1_555
H19 C21 1_555 1_555
C22 N3 1_555 1_555
H20 C22 1_555 1_555
O9 H21 1_555 1_555
C1A H1A 1_555 1_555
H2A C1A 1_555 1_555
C2A C1A 1_555 1_555
H3A C2A 1_555 1_555
H4A C2A 1_555 1_555
H5A C2A 1_555 1_555
O1A C1A 1_555 1_555
H6A O1A 1_555 1_555
Zn2A O2 1_555 1_555
O2A Zn2 1_555 1_555
O3A C9A 1_555 1_555
O4A C10A 1_555 1_555
O5A C10A 1_555 1_555
O6A N1A 1_555 1_555
O7A N1A 1_555 1_555
O8A Zn2A 1_555 1_555
H7A O8A 1_555 1_555
N1A C6A 1_555 1_555
C3A C4A 1_555 1_555
C4A C5A 1_555 1_555
C5A H8A 1_555 1_555
C6A C5A 1_555 1_555
C7A C6A 1_555 1_555
H9A C7A 1_555 1_555
C8A C3A 1_555 1_555
H10A C8A 1_555 1_555
C9A O2A 1_555 1_555
C10A C4A 1_555 1_555
N2D Zn1 1_555 1_555
N3D C18D 1_555 1_555
C11D N2D 1_555 1_555
H11D C11D 1_555 1_555
C12D C11D 1_555 1_555
H12D C12D 1_555 1_555
C13D C12D 1_555 1_555
C14D C13D 1_555 1_555
H13D C14D 1_555 1_555
C15D N2D 1_555 1_555
H14D C15D 1_555 1_555
C16D C13D 1_555 1_555
H15D C16D 1_555 1_555
C17D C16D 1_555 1_555
H16D C17D 1_555 1_555
C18D H17D 1_555 1_555
C19D C18D 1_555 1_555
H18D C19D 1_555 1_555
C20D C17D 1_555 1_555
C21D C20D 1_555 1_555
H19D C21D 1_555 1_555
C22D N3D 1_555 1_555
H20D C22D 1_555 1_555
Zn1A O4A 1_555 1_555
Zn2B N3D 1_555 1_555
Zn2D O5 1_555 1_555
Zn2E O5A 1_555 1_555
Zn2F N3 1_555 1_555
O4D Zn1 1_555 1_555
O5D Zn2 1_555 1_555
O5E Zn2A 1_555 1_555
O8D Zn1 1_555 1_555
N3F Zn2 1_555 1_555
N3G Zn2A 1_555 1_555
H21A O9 1_555 1_555
C7 C8 1_555 1_555
C14 C15 1_555 1_555
C19 C20 1_555 1_555
C21 C22 1_555 1_555
O8A Zn1A 1_555 1_555
C3A C9A 1_555 1_555
C7A C8A 1_555 1_555
C14D C15D 1_555 1_555
C19D C20D 1_555 1_555
C21D C22D 1_555 1_555
Zn2D O8D 1_555 1_555

#END
