
#######################################################################
#
#                 Cambridge Crystallographic Data Centre
#                                CCDC 
#
#######################################################################
#
# If this CIF has been generated from an entry in the Cambridge 
# Structural Database, then it will include bibliographic, chemical, 
# crystal, experimental, refinement or atomic coordinate data resulting 
# from the CCDC's data processing and validation procedures.
#
#######################################################################

data_GIRYIR
_symmetry_cell_setting           monoclinic
_symmetry_space_group_name_H-M   'C 2/c'
_symmetry_Int_Tables_number      15
_space_group_name_Hall           '-C 2yn'
loop_
_symmetry_equiv_pos_site_id
_symmetry_equiv_pos_as_xyz
1 x,y,z
2 -x,y,1/2-z
3 1/2+x,1/2+y,z
4 1/2-x,1/2+y,1/2-z
5 -x,-y,-z
6 x,-y,1/2+z
7 1/2-x,1/2-y,-z
8 1/2+x,1/2-y,1/2+z
_cell_length_a                   15.7066(13)
_cell_length_b                   25.077(2)
_cell_length_c                   13.4867(11)
_cell_angle_alpha                90
_cell_angle_beta                 124.6280(10)
_cell_angle_gamma                90
_cell_volume                     4371.08
loop_
_atom_site_label
_atom_site_type_symbol
_atom_site_fract_x
_atom_site_fract_y
_atom_site_fract_z
Zn1 Zn 0.5000 0.0000 0.0000
Zn2 Zn 0.31486(6) 0.05141(2) -0.27458(6)
O1 O 0.7509(3) 0.06069(14) -0.0502(4)
O2 O 0.6249(4) 0.11766(16) -0.0972(4)
O3 O 0.6582(3) 0.02857(14) 0.0832(4)
O4 O 0.7630(3) 0.01213(14) 0.2807(4)
O5 O 0.9768(5) 0.1605(3) 0.5347(5)
O6 O 1.0184(5) 0.2232(2) 0.4658(5)
O7 O 0.4557(3) 0.03781(13) -0.1569(3)
H1 H 0.4948 0.0611 -0.1572
N1 N 0.9711(5) 0.1827(2) 0.4523(6)
N2 N 0.4595(4) 0.07024(16) 0.0591(4)
N3 N 0.2477(4) 0.38581(16) 0.2385(4)
C1 C 0.7754(4) 0.1175(2) 0.1033(5)
C2 C 0.7908(4) 0.0903(2) 0.2029(5)
C3 C 0.8575(5) 0.1110(2) 0.3183(6)
H2 H 0.8705 0.0925 0.3852
C4 C 0.9037(5) 0.1595(2) 0.3315(6)
C5 C 0.8881(5) 0.1881(2) 0.2361(6)
H3 H 0.9201 0.2209 0.2478
C6 C 0.8227(5) 0.1666(2) 0.1207(6)
H4 H 0.8107 0.1855 0.0545
C7 C 0.7087(6) 0.0969(2) -0.0249(6)
C8 C 0.7327(5) 0.0392(2) 0.1865(6)
C9 C 0.4805(5) 0.1205(2) 0.0445(5)
H5 H 0.5195 0.1255 0.0131
C10 C 0.4479(5) 0.1646(2) 0.0733(5)
H6 H 0.4661 0.1985 0.0632
C11 C 0.3872(5) 0.1587(2) 0.1179(5)
C12 C 0.3651(5) 0.1064(2) 0.1325(5)
H7 H 0.3253 0.1003 0.1626
C13 C 0.4016(5) 0.0641(2) 0.1026(5)
H8 H 0.3857 0.0298 0.1130
C14 C 0.3487(5) 0.2033(2) 0.1526(5)
H9 H 0.3079 0.1947 0.1799
C15 C 0.3665(5) 0.2546(2) 0.1488(5)
H10 H 0.4082 0.2633 0.1225
C16 C 0.3065(5) 0.3927(2) 0.1973(6)
H11 H 0.3219 0.4274 0.1878
C17 C 0.3456(5) 0.3511(2) 0.1679(6)
H12 H 0.3853 0.3582 0.1382
C18 C 0.3265(5) 0.2992(2) 0.1821(5)
C19 C 0.2663(5) 0.2914(2) 0.2271(6)
H13 H 0.2518 0.2571 0.2395
C20 C 0.2286(5) 0.3350(2) 0.2528(6)
H14 H 0.1879 0.3290 0.2816
Zn2A Zn 0.68514(6) 0.05141(2) -0.22542(6)
O1A O 0.2491(3) 0.06069(14) -0.4498(4)
O2A O 0.3751(4) 0.11766(16) -0.4028(4)
O3A O 0.3418(3) 0.02857(14) -0.5832(4)
O4A O 0.2370(3) 0.01213(14) -0.7807(4)
O5A O 0.0232(5) 0.1605(3) -1.0347(5)
O6A O -0.0184(5) 0.2232(2) -0.9658(5)
O7A O 0.5443(3) 0.03781(13) -0.3431(3)
H1A H 0.5052 0.0611 -0.3428
N1A N 0.0289(5) 0.1827(2) -0.9523(6)
C1A C 0.2246(4) 0.1175(2) -0.6033(5)
C2A C 0.2092(4) 0.0903(2) -0.7029(5)
C3A C 0.1425(5) 0.1110(2) -0.8183(6)
H2A H 0.1295 0.0925 -0.8852
C4A C 0.0963(5) 0.1595(2) -0.8315(6)
C5A C 0.1119(5) 0.1881(2) -0.7361(6)
H3A H 0.0799 0.2209 -0.7478
C6A C 0.1773(5) 0.1666(2) -0.6207(6)
H4A H 0.1893 0.1855 -0.5545
C7A C 0.2913(6) 0.0969(2) -0.4751(6)
C8A C 0.2673(5) 0.0392(2) -0.6865(6)
N2D N 0.5405(4) -0.07024(16) -0.0591(4)
N3D N 0.7523(4) -0.38581(16) -0.2385(4)
C9D C 0.5195(5) -0.1205(2) -0.0445(5)
H5D H 0.4805 -0.1255 -0.0131
C10D C 0.5521(5) -0.1646(2) -0.0733(5)
H6D H 0.5339 -0.1985 -0.0632
C11D C 0.6128(5) -0.1587(2) -0.1179(5)
C12D C 0.6349(5) -0.1064(2) -0.1325(5)
H7D H 0.6747 -0.1003 -0.1626
C13D C 0.5984(5) -0.0641(2) -0.1026(5)
H8D H 0.6143 -0.0298 -0.1130
C14D C 0.6513(5) -0.2033(2) -0.1526(5)
H9D H 0.6921 -0.1947 -0.1799
C15D C 0.6335(5) -0.2546(2) -0.1488(5)
H10D H 0.5918 -0.2633 -0.1225
C16D C 0.6935(5) -0.3927(2) -0.1973(6)
H11D H 0.6781 -0.4274 -0.1878
C17D C 0.6544(5) -0.3511(2) -0.1679(6)
H12D H 0.6147 -0.3582 -0.1382
C18D C 0.6735(5) -0.2992(2) -0.1821(5)
C19D C 0.7337(5) -0.2914(2) -0.2271(6)
H13D H 0.7482 -0.2571 -0.2395
C20D C 0.7714(5) -0.3350(2) -0.2528(6)
H14D H 0.8121 -0.3290 -0.2816
Zn1A Zn 0.5000 0.0000 -0.5000
Zn2B Zn 0.81486(6) -0.44859(2) -0.27458(6)
Zn2D Zn 0.68514(6) -0.05141(2) 0.27458(6)
Zn2E Zn 0.31486(6) -0.05141(2) -0.77458(6)
Zn2F Zn 0.18514(6) 0.44859(2) 0.27458(6)
O3D O 0.3418(3) -0.02857(14) -0.0832(4)
O4D O 0.2370(3) -0.01213(14) -0.2807(4)
O4E O 0.7630(3) -0.01213(14) -0.2193(4)
O7D O 0.5443(3) -0.03781(13) 0.1569(3)
N3F N 0.2523(4) 0.11419(16) -0.2385(4)
N3G N 0.7477(4) 0.11419(16) -0.2615(4)
O8 O 0.5000 0.1998(3) 0.7500
H15 H 0.4635 0.1796 0.6892
H15A H 0.5365 0.1796 0.8108
O9 O 0.0721(7) 1.0088(3) 0.8686(8)
H16 H 0.0429 1.0106 0.9056
H17 H 0.1258 0.9900 0.9137
O10 O 0.0000 0.0000 1.0000
H18 H 0.0556 0.0148 1.0467
H18D H -0.0556 -0.0148 0.9533
loop_
_geom_bond_atom_site_label_1
_geom_bond_atom_site_label_2
_geom_bond_site_symmetry_1
_geom_bond_site_symmetry_2
Zn1 O3 1_555 1_555
Zn2 O7 1_555 1_555
O1 C7 1_555 1_555
O2 C7 1_555 1_555
O3 C8 1_555 1_555
O4 C8 1_555 1_555
O5 N1 1_555 1_555
O6 N1 1_555 1_555
O7 Zn1 1_555 1_555
H1 O7 1_555 1_555
N1 C4 1_555 1_555
N2 Zn1 1_555 1_555
N3 C16 1_555 1_555
C1 C2 1_555 1_555
C2 C3 1_555 1_555
C3 H2 1_555 1_555
C4 C3 1_555 1_555
C5 C4 1_555 1_555
H3 C5 1_555 1_555
C6 C1 1_555 1_555
H4 C6 1_555 1_555
C7 C1 1_555 1_555
C8 C2 1_555 1_555
C9 N2 1_555 1_555
H5 C9 1_555 1_555
C10 C9 1_555 1_555
H6 C10 1_555 1_555
C11 C10 1_555 1_555
C12 C11 1_555 1_555
H7 C12 1_555 1_555
C13 N2 1_555 1_555
H8 C13 1_555 1_555
C14 C11 1_555 1_555
H9 C14 1_555 1_555
C15 C14 1_555 1_555
H10 C15 1_555 1_555
C16 H11 1_555 1_555
C17 C16 1_555 1_555
H12 C17 1_555 1_555
C18 C15 1_555 1_555
C19 C18 1_555 1_555
H13 C19 1_555 1_555
C20 N3 1_555 1_555
H14 C20 1_555 1_555
O8 H15 1_555 1_555
O9 H16 1_555 1_555
H17 O9 1_555 1_555
O10 H18 1_555 1_555
Zn2A O1 1_555 1_555
O1A Zn2 1_555 1_555
O2A C7A 1_555 1_555
O3A C8A 1_555 1_555
O4A C8A 1_555 1_555
O5A N1A 1_555 1_555
O6A N1A 1_555 1_555
O7A Zn2A 1_555 1_555
H1A O7A 1_555 1_555
N1A C4A 1_555 1_555
C1A C2A 1_555 1_555
C2A C3A 1_555 1_555
C3A H2A 1_555 1_555
C4A C3A 1_555 1_555
C5A C4A 1_555 1_555
H3A C5A 1_555 1_555
C6A C1A 1_555 1_555
H4A C6A 1_555 1_555
C7A O1A 1_555 1_555
C8A C2A 1_555 1_555
N2D Zn1 1_555 1_555
N3D C16D 1_555 1_555
C9D N2D 1_555 1_555
H5D C9D 1_555 1_555
C10D C9D 1_555 1_555
H6D C10D 1_555 1_555
C11D C10D 1_555 1_555
C12D C11D 1_555 1_555
H7D C12D 1_555 1_555
C13D N2D 1_555 1_555
H8D C13D 1_555 1_555
C14D C11D 1_555 1_555
H9D C14D 1_555 1_555
C15D C14D 1_555 1_555
H10D C15D 1_555 1_555
C16D H11D 1_555 1_555
C17D C16D 1_555 1_555
H12D C17D 1_555 1_555
C18D C15D 1_555 1_555
C19D C18D 1_555 1_555
H13D C19D 1_555 1_555
C20D N3D 1_555 1_555
H14D C20D 1_555 1_555
Zn1A O3A 1_555 1_555
Zn2B N3D 1_555 1_555
Zn2D O4 1_555 1_555
Zn2E O4A 1_555 1_555
Zn2F N3 1_555 1_555
O3D Zn1 1_555 1_555
O4D Zn2 1_555 1_555
O4E Zn2A 1_555 1_555
O7D Zn1 1_555 1_555
N3F Zn2 1_555 1_555
N3G Zn2A 1_555 1_555
H15A O8 1_555 1_555
H18D O10 1_555 1_555
C5 C6 1_555 1_555
C12 C13 1_555 1_555
C17 C18 1_555 1_555
C19 C20 1_555 1_555
O7A Zn1A 1_555 1_555
C1A C7A 1_555 1_555
C5A C6A 1_555 1_555
C12D C13D 1_555 1_555
C17D C18D 1_555 1_555
C19D C20D 1_555 1_555
Zn2D O7D 1_555 1_555

#END
