
#######################################################################
#
#                 Cambridge Crystallographic Data Centre
#                                CCDC 
#
#######################################################################
#
# If this CIF has been generated from an entry in the Cambridge 
# Structural Database, then it will include bibliographic, chemical, 
# crystal, experimental, refinement or atomic coordinate data resulting 
# from the CCDC's data processing and validation procedures.
#
#######################################################################

data_GIRZIS
_symmetry_cell_setting           triclinic
_symmetry_space_group_name_H-M   'P -1'
_symmetry_Int_Tables_number      2
_space_group_name_Hall           '-P 1'
loop_
_symmetry_equiv_pos_site_id
_symmetry_equiv_pos_as_xyz
1 x,y,z
2 -x,-y,-z
_cell_length_a                   9.2473(3)
_cell_length_b                   10.7831(4)
_cell_length_c                   12.8209(5)
_cell_angle_alpha                94.960(3)
_cell_angle_beta                 107.524(3)
_cell_angle_gamma                110.985(3)
_cell_volume                     1110.81
loop_
_atom_site_label
_atom_site_type_symbol
_atom_site_fract_x
_atom_site_fract_y
_atom_site_fract_z
Ag1 Ag 0.251831(17) 0.318149(15) 0.133535(12)
N1 N -0.00404(18) 0.16563(15) 0.02377(13)
C1 C -0.1154(2) 0.11822(18) 0.07317(16)
C2 C -0.0511(2) 0.11590(17) -0.08617(16)
C3 C -0.2753(2) 0.02233(19) 0.01642(18)
H1 H -0.0810 0.1522 0.1495
C4 C -0.2090(2) 0.01981(18) -0.15095(15)
H2 H 0.0272 0.1475 -0.1206
C5 C -0.3230(2) -0.02706(18) -0.09730(17)
H3 H -0.3474 -0.0077 0.0555
C6 C -0.2537(3) -0.03626(19) -0.27338(17)
H4 H -0.4304 -0.0902 -0.1386
N2 N -0.2697(2) -0.17793(16) -0.28842(14)
H5 H -0.1678 0.0180 -0.2989
H6 H -0.3603 -0.0362 -0.3159
C7 C -0.2439(3) -0.2238(2) -0.37149(16)
C8 C -0.2609(3) -0.3661(2) -0.39316(17)
H7 H -0.2128 -0.1681 -0.4203
N3 N -0.2654(2) -0.43190(16) -0.30935(14)
N4 N -0.2358(2) -0.56278(16) -0.13375(14)
N5 N -0.50631(19) -0.40999(16) -0.11987(14)
C9 C -0.2733(4) -0.4285(3) -0.49753(19)
C10 C -0.2858(3) -0.5626(2) -0.32766(17)
C11 C -0.2834(2) -0.63033(19) -0.23242(17)
C12 C -0.2333(2) -0.63875(19) -0.04368(17)
C13 C -0.2988(4) -0.5637(3) -0.5171(2)
H8 H -0.2650 -0.3786 -0.5521
C14 C -0.3066(4) -0.6327(2) -0.4313(2)
H9 H -0.3214 -0.7260 -0.2468
C15 C -0.2841(2) -0.57879(17) 0.04264(15)
H10 H -0.1211 -0.6303 -0.0094
H11 H -0.3070 -0.7347 -0.0759
H12 H -0.3091 -0.6055 -0.5871
H13 H -0.3237 -0.7251 -0.4404
C16 C -0.4415(2) -0.64107(17) 0.04589(16)
C17 C -0.1757(2) -0.4579(2) 0.11972(18)
H14 H -0.5140 -0.7227 -0.0033
C18 C -0.2274(2) -0.4035(2) 0.19623(18)
H15 H -0.0700 -0.4140 0.1198
C19 C -0.3873(2) -0.4728(2) 0.19306(16)
H16 H -0.1567 -0.3232 0.2484
H17 H -0.4213 -0.4367 0.2445
N1A N 0.00404(18) -0.16563(15) -0.02377(13)
Ag1A Ag -0.251831(17) -0.318149(15) -0.133535(12)
N5A N -0.49369(19) -0.59001(16) 0.11987(14)
Ag1_2 Ag -0.748169(17) -0.681851(15) 0.133535(12)
S1 S 0.72009(6) 0.91646(5) 0.30305(4)
O1 O 0.5759(2) 0.90964(19) 0.21476(15)
O2 O 0.6875(2) 0.81290(17) 0.36658(15)
O3 O 0.8645(2) 0.9430(2) 0.27368(17)
C20 C 0.7755(4) 1.0710(3) 0.4024(3)
F1 F 0.7997(4) 1.1771(2) 0.3544(3)
F2 F 0.9108(2) 1.0996(2) 0.48993(17)
F3 F 0.6554(3) 1.0605(3) 0.4430(2)
loop_
_geom_bond_atom_site_label_1
_geom_bond_atom_site_label_2
_geom_bond_site_symmetry_1
_geom_bond_site_symmetry_2
Ag1 N1 1_555 1_555
N1 C1 1_555 1_555
C1 C3 1_555 1_555
C2 N1 1_555 1_555
C3 C5 1_555 1_555
H1 C1 1_555 1_555
C4 C2 1_555 1_555
H2 C2 1_555 1_555
C5 C4 1_555 1_555
H3 C3 1_555 1_555
C6 C4 1_555 1_555
H4 C5 1_555 1_555
N2 C6 1_555 1_555
H5 C6 1_555 1_555
H6 C6 1_555 1_555
C7 N2 1_555 1_555
C8 C7 1_555 1_555
H7 C7 1_555 1_555
N3 C8 1_555 1_555
N4 C11 1_555 1_555
N5 Ag1A 1_555 1_555
C9 C8 1_555 1_555
C10 N3 1_555 1_555
C11 C10 1_555 1_555
C12 N4 1_555 1_555
C13 C9 1_555 1_555
H8 C9 1_555 1_555
C14 C10 1_555 1_555
H9 C11 1_555 1_555
C15 C12 1_555 1_555
H10 C12 1_555 1_555
H11 C12 1_555 1_555
H12 C13 1_555 1_555
H13 C14 1_555 1_555
C16 C15 1_555 1_555
C17 C15 1_555 1_555
H14 C16 1_555 1_555
C18 C17 1_555 1_555
H15 C17 1_555 1_555
C19 C18 1_555 1_555
H16 C18 1_555 1_555
H17 C19 1_555 1_555
S1 O1 1_555 1_555
O2 S1 1_555 1_555
O3 S1 1_555 1_555
C20 S1 1_555 1_555
F1 C20 1_555 1_555
F2 C20 1_555 1_555
F3 C20 1_555 1_555
N1A Ag1A 1_555 1_555
Ag1A N2 1_555 1_555
N5A C16 1_555 1_555
Ag1_2 N5A 1_555 1_555
N3 Ag1A 1_555 1_555
N4 Ag1A 1_555 1_555
C13 C14 1_555 1_555
C19 N5A 1_555 1_555

#END
