
#######################################################################
#
#                 Cambridge Crystallographic Data Centre
#                                CCDC 
#
#######################################################################
#
# If this CIF has been generated from an entry in the Cambridge 
# Structural Database, then it will include bibliographic, chemical, 
# crystal, experimental, refinement or atomic coordinate data resulting 
# from the CCDC's data processing and validation procedures.
#
#######################################################################

data_GISBER
_symmetry_cell_setting           monoclinic
_symmetry_space_group_name_H-M   'C 2/c'
_symmetry_Int_Tables_number      15
_space_group_name_Hall           '-C 2yn'
loop_
_symmetry_equiv_pos_site_id
_symmetry_equiv_pos_as_xyz
1 x,y,z
2 -x,y,1/2-z
3 1/2+x,1/2+y,z
4 1/2-x,1/2+y,1/2-z
5 -x,-y,-z
6 x,-y,1/2+z
7 1/2-x,1/2-y,-z
8 1/2+x,1/2-y,1/2+z
_cell_length_a                   22.040(5)
_cell_length_b                   14.850(5)
_cell_length_c                   24.821(5)
_cell_angle_alpha                90
_cell_angle_beta                 100.605(5)
_cell_angle_gamma                90
_cell_volume                     7985
loop_
_atom_site_label
_atom_site_type_symbol
_atom_site_fract_x
_atom_site_fract_y
_atom_site_fract_z
O24 O 0.2975(9) -0.1462(15) 0.7676(9)
O25 O 0.6637(12) 0.3097(16) 1.1853(10)
P1 P 0.5000 0.5782(4) 1.2500
Cu1 Cu 0.5000 0.07618(19) 1.2500
N1 N 0.5265(7) 0.0778(9) 1.1772(6)
N2 N 0.4128(7) 0.0778(10) 1.2081(6)
N3 N 0.8542(9) 0.0653(16) 0.9419(8)
N4 N 0.7851(8) 0.1006(13) 0.9898(7)
N5 N 0.3310(9) 0.0377(12) 1.1432(8)
N6 N 0.3351(7) 0.1291(10) 1.1478(6)
N7 N 0.5328(10) 0.0335(12) 1.0899(7)
N8 N 0.5426(8) 0.1285(12) 1.0971(6)
N9 N 0.3229(10) 0.0148(17) 0.8186(10)
N10 N 0.3257(8) 0.1007(11) 0.8925(8)
C1 C 0.5507(11) 0.1805(18) 1.0490(10)
H1 H 0.5472 0.2442 1.0565
H2 H 0.5184 0.1649 1.0183
C2 C 0.2633(9) 0.1052(14) 0.9626(8)
H3 H 0.2313 0.0782 0.9383
C3 C 0.3020(9) 0.1731(15) 1.0502(8)
C4 C 0.6127(9) 0.1618(15) 1.0345(8)
C5 C 0.3185(10) 0.1247(15) 0.9465(8)
C6 C 0.3442(14) 0.101(2) 0.8071(11)
H4 H 0.3547 0.1195 0.7742
C7 C 0.8397(10) 0.0992(18) 1.0238(9)
H5 H 0.8468 0.1122 1.0610
C8 C 0.2563(11) 0.1267(15) 1.0158(8)
H6 H 0.2206 0.1096 1.0282
C9 C 0.8821(9) 0.0758(17) 0.9946(9)
H7 H 0.9239 0.0680 1.0083
C10 C 0.6150(10) 0.1092(16) 0.9873(9)
H8 H 0.5787 0.0881 0.9658
C11 C 0.5226(11) 0.0086(15) 1.1381(8)
H9 H 0.5134 -0.0506 1.1459
C12 C 0.6683(12) 0.1955(16) 1.0656(10)
H10 H 0.6677 0.2296 1.0970
C13 C 0.6729(10) 0.0889(15) 0.9730(9)
H11 H 0.6750 0.0533 0.9426
C14 C 0.3121(11) 0.0189(15) 0.8720(10)
H12 H 0.2977 -0.0285 0.8906
C15 C 0.3464(12) 0.1509(17) 0.8520(11)
H13 H 0.3598 0.2103 0.8558
C16 C 0.3649(11) 0.172(2) 0.9808(12)
H14 H 0.4009 0.1881 0.9688
C17 C 0.5407(9) 0.1517(13) 1.1480(8)
H15 H 0.5480 0.2094 1.1623
C18 C 0.3565(10) 0.194(2) 1.0339(10)
H16 H 0.3877 0.2229 1.0579
C19 C 0.7238(11) 0.1771(16) 1.0488(9)
H17 H 0.7601 0.2022 1.0679
C20 C 0.2935(10) 0.1861(15) 1.1095(8)
H18 H 0.3009 0.2487 1.1197
H19 H 0.2511 0.1721 1.1122
C21 C 0.3771(9) 0.0086(15) 1.1807(8)
H20 H 0.3851 -0.0521 1.1881
C22 C 0.7259(8) 0.1224(13) 1.0046(7)
C23 C 0.3849(8) 0.1538(13) 1.1847(7)
H21 H 0.3981 0.2126 1.1928
C24 C 0.7926(10) 0.0820(16) 0.9383(9)
H22 H 0.7622 0.0807 0.9069
Mo1 Mo 0.5000 0.81123(11) 1.2500
Mo2 Mo 0.4966(2) 0.34494(12) 1.24161(11)
Mo3 Mo 0.63518(6) 0.69772(9) 1.31040(5)
Mo4 Mo 0.62980(5) 0.57839(9) 1.18679(5)
Mo5 Mo 0.50475(6) 0.45831(8) 1.37460(5)
Mo6 Mo 0.63453(6) 0.46106(9) 1.31032(6)
Mo7 Mo 0.49596(7) 0.69617(9) 1.12560(5)
O1 O 0.5851(7) 0.3619(14) 1.2756(8)
O2 O 0.5000 0.2284(10) 1.2500
O3 O 0.6972(8) 0.7545(13) 1.3381(6)
O4 O 0.4947(7) 0.7525(11) 1.0683(6)
O5 O 0.5296(10) 0.4912(16) 1.2867(9)
O6 O 0.5879(9) 0.4516(15) 1.3684(9)
O7 O 0.5879(8) 0.7041(14) 1.3677(8)
O8 O 0.5244(10) 0.5767(14) 1.1940(8)
O9 O 0.4193(8) 0.4861(10) 1.3570(8)
O10 O 0.6529(11) 0.4898(10) 1.2402(6)
O11 O 0.6563(10) 0.6663(10) 1.2410(6)
O12 O 0.6582(9) 0.5782(10) 1.3332(6)
O13 O 0.5104(8) 0.7902(15) 1.1776(8)
O14 O 0.4886(8) 0.3622(14) 1.3244(9)
O15 O 0.5804(8) 0.6664(10) 1.1441(8)
O16 O 0.5201(8) 0.5773(10) 1.4000(8)
O17 O 0.5269(10) 0.6647(14) 1.2836(8)
O18 O 0.5058(9) 0.4032(14) 1.4334(6)
O19 O 0.4296(10) 0.5797(16) 1.2415(9)
O20 O 0.5000 0.9243(14) 1.2500
O21 O 0.6916(9) 0.5765(12) 1.1579(10)
O22 O 0.6958(7) 0.4004(10) 1.3384(6)
O23 O 0.4140(9) 0.7952(13) 1.2246(7)
O5A O 0.4704(10) 0.4912(16) 1.2133(9)
O8A O 0.4756(10) 0.5767(14) 1.3060(8)
O17A O 0.4731(10) 0.6647(14) 1.2164(8)
O19A O 0.5704(10) 0.5797(16) 1.2585(9)
N1A N 0.4735(7) 0.0778(9) 1.3228(6)
N2A N 0.5872(7) 0.0778(10) 1.2919(6)
N3A N 0.1458(9) 0.0653(16) 1.5581(8)
N4A N 0.2149(8) 0.1006(13) 1.5102(7)
N5A N 0.6690(9) 0.0377(12) 1.3568(8)
N6A N 0.6649(7) 0.1291(10) 1.3522(6)
N7A N 0.4672(10) 0.0335(12) 1.4101(7)
N8A N 0.4574(8) 0.1285(12) 1.4029(6)
N9A N 0.6771(10) 0.0148(17) 1.6814(10)
N10A N 0.6743(8) 0.1007(11) 1.6075(8)
C1A C 0.4493(11) 0.1805(18) 1.4510(10)
H1A H 0.4528 0.2442 1.4435
H2A H 0.4816 0.1649 1.4817
C2A C 0.7367(9) 0.1052(14) 1.5374(8)
H3A H 0.7687 0.0782 1.5617
C3A C 0.6980(9) 0.1731(15) 1.4498(8)
C4A C 0.3873(9) 0.1618(15) 1.4655(8)
C5A C 0.6815(10) 0.1247(15) 1.5535(8)
C6A C 0.6558(14) 0.101(2) 1.6929(11)
H4A H 0.6453 0.1195 1.7258
C7A C 0.1603(10) 0.0992(18) 1.4762(9)
H5A H 0.1532 0.1122 1.4390
C8A C 0.7437(11) 0.1267(15) 1.4842(8)
H6A H 0.7794 0.1096 1.4718
C9A C 0.1179(9) 0.0758(17) 1.5054(9)
H7A H 0.0761 0.0680 1.4917
C10A C 0.3850(10) 0.1092(16) 1.5127(9)
H8A H 0.4213 0.0881 1.5342
C11A C 0.4774(11) 0.0086(15) 1.3619(8)
H9A H 0.4866 -0.0506 1.3541
C12A C 0.3317(12) 0.1955(16) 1.4344(10)
H10A H 0.3323 0.2296 1.4030
C13A C 0.3271(10) 0.0889(15) 1.5270(9)
H11A H 0.3250 0.0533 1.5574
C14A C 0.6879(11) 0.0189(15) 1.6280(10)
H12A H 0.7023 -0.0285 1.6094
C15A C 0.6536(12) 0.1509(17) 1.6480(11)
H13A H 0.6402 0.2103 1.6442
C16A C 0.6351(11) 0.172(2) 1.5192(12)
H14A H 0.5991 0.1881 1.5312
C17A C 0.4593(9) 0.1517(13) 1.3520(8)
H15A H 0.4520 0.2094 1.3377
C18A C 0.6435(10) 0.194(2) 1.4661(10)
H16A H 0.6123 0.2229 1.4421
C19A C 0.2762(11) 0.1771(16) 1.4512(9)
H17A H 0.2399 0.2022 1.4321
C20A C 0.7065(10) 0.1861(15) 1.3905(8)
H18A H 0.6991 0.2487 1.3803
H19A H 0.7489 0.1721 1.3878
C21A C 0.6229(9) 0.0086(15) 1.3193(8)
H20A H 0.6149 -0.0521 1.3119
C22A C 0.2741(8) 0.1224(13) 1.4954(7)
C23A C 0.6151(8) 0.1538(13) 1.3153(7)
H21A H 0.6019 0.2126 1.3072
C24A C 0.2074(10) 0.0820(16) 1.5617(9)
H22A H 0.2378 0.0807 1.5931
Mo2A Mo 0.5034(2) 0.34494(12) 1.25839(11)
Mo3A Mo 0.36482(6) 0.69772(9) 1.18960(5)
Mo4A Mo 0.37020(5) 0.57839(9) 1.31321(5)
Mo5A Mo 0.49525(6) 0.45831(8) 1.12540(5)
Mo6A Mo 0.36547(6) 0.46106(9) 1.18968(6)
Mo7A Mo 0.50404(7) 0.69617(9) 1.37440(5)
O1A O 0.4149(7) 0.3619(14) 1.2244(8)
O3A O 0.3028(8) 0.7545(13) 1.1619(6)
O4A O 0.5053(7) 0.7525(11) 1.4317(6)
O6A O 0.4121(9) 0.4516(15) 1.1316(9)
O7A O 0.4121(8) 0.7041(14) 1.1323(8)
O9A O 0.5807(8) 0.4861(10) 1.1430(8)
O10A O 0.3471(11) 0.4898(10) 1.2598(6)
O11A O 0.3437(10) 0.6663(10) 1.2590(6)
O12A O 0.3418(9) 0.5782(10) 1.1668(6)
O13A O 0.4896(8) 0.7902(15) 1.3224(8)
O14A O 0.5114(8) 0.3622(14) 1.1756(9)
O15A O 0.4196(8) 0.6664(10) 1.3559(8)
O16A O 0.4799(8) 0.5773(10) 1.1000(8)
O18A O 0.4942(9) 0.4032(14) 1.0666(6)
O21A O 0.3084(9) 0.5765(12) 1.3421(10)
O22A O 0.3042(7) 0.4004(10) 1.1616(6)
O23A O 0.5860(9) 0.7952(13) 1.2754(7)
Cu1_2 Cu 0.5000 1.07618(19) 1.2500
O20_2 O 0.5000 -0.0757(14) 1.2500
loop_
_geom_bond_atom_site_label_1
_geom_bond_atom_site_label_2
_geom_bond_site_symmetry_1
_geom_bond_site_symmetry_2
P1 O5 1_555 1_555
Cu1 N1 1_555 1_555
N1 C11 1_555 1_555
N2 Cu1 1_555 1_555
N3 C9 1_555 1_555
N4 C7 1_555 1_555
N5 N6 1_555 1_555
N6 C20 1_555 1_555
N7 N8 1_555 1_555
N8 C1 1_555 1_555
N9 C6 1_555 1_555
N10 C5 1_555 1_555
C1 H1 1_555 1_555
H2 C1 1_555 1_555
C2 H3 1_555 1_555
C3 C8 1_555 1_555
C4 C1 1_555 1_555
C5 C2 1_555 1_555
C6 H4 1_555 1_555
C7 H5 1_555 1_555
C8 C2 1_555 1_555
H6 C8 1_555 1_555
C9 C7 1_555 1_555
H7 C9 1_555 1_555
C10 C4 1_555 1_555
H8 C10 1_555 1_555
C11 N7 1_555 1_555
H9 C11 1_555 1_555
C12 C4 1_555 1_555
H10 C12 1_555 1_555
C13 C10 1_555 1_555
H11 C13 1_555 1_555
C14 N9 1_555 1_555
H12 C14 1_555 1_555
C15 N10 1_555 1_555
H13 C15 1_555 1_555
C16 C5 1_555 1_555
H14 C16 1_555 1_555
C17 N1 1_555 1_555
H15 C17 1_555 1_555
C18 C3 1_555 1_555
H16 C18 1_555 1_555
C19 C12 1_555 1_555
H17 C19 1_555 1_555
C20 C3 1_555 1_555
H18 C20 1_555 1_555
H19 C20 1_555 1_555
C21 N2 1_555 1_555
H20 C21 1_555 1_555
C22 N4 1_555 1_555
C23 N2 1_555 1_555
H21 C23 1_555 1_555
C24 N3 1_555 1_555
H22 C24 1_555 1_555
Mo1 O13 1_555 1_555
Mo2 O1 1_555 1_555
Mo3 O3 1_555 1_555
Mo4 O8 1_555 1_555
Mo5 O5 1_555 1_555
Mo6 O1 1_555 1_555
Mo7 O4 1_555 1_555
O1 Mo2A 1_555 1_555
O2 Cu1 1_555 1_555
O5 Mo2 1_555 1_555
O6 Mo5 1_555 1_555
O7 Mo3 1_555 1_555
O8 P1 1_555 1_555
O9 Mo5 1_555 1_555
O10 Mo4 1_555 1_555
O11 Mo3 1_555 1_555
O12 Mo3 1_555 1_555
O13 Mo7 1_555 1_555
O14 Mo2 1_555 1_555
O15 Mo4 1_555 1_555
O16 Mo5 1_555 1_555
O17 P1 1_555 1_555
O18 Mo5 1_555 1_555
O19 P1 1_555 1_555
O20 Mo1 1_555 1_555
O21 Mo4 1_555 1_555
O22 Mo6 1_555 1_555
O23 Mo1 1_555 1_555
O5A P1 1_555 1_555
O8A P1 1_555 1_555
O17A P1 1_555 1_555
O19A P1 1_555 1_555
N1A Cu1 1_555 1_555
N2A Cu1 1_555 1_555
N3A C9A 1_555 1_555
N4A C7A 1_555 1_555
N5A N6A 1_555 1_555
N6A C20A 1_555 1_555
N7A N8A 1_555 1_555
N8A C1A 1_555 1_555
N9A C6A 1_555 1_555
N10A C5A 1_555 1_555
C1A H1A 1_555 1_555
H2A C1A 1_555 1_555
C2A H3A 1_555 1_555
C3A C8A 1_555 1_555
C4A C1A 1_555 1_555
C5A C2A 1_555 1_555
C6A H4A 1_555 1_555
C7A H5A 1_555 1_555
C8A C2A 1_555 1_555
H6A C8A 1_555 1_555
C9A C7A 1_555 1_555
H7A C9A 1_555 1_555
C10A C4A 1_555 1_555
H8A C10A 1_555 1_555
C11A N1A 1_555 1_555
H9A C11A 1_555 1_555
C12A C4A 1_555 1_555
H10A C12A 1_555 1_555
C13A C10A 1_555 1_555
H11A C13A 1_555 1_555
C14A N9A 1_555 1_555
H12A C14A 1_555 1_555
C15A N10A 1_555 1_555
H13A C15A 1_555 1_555
C16A C5A 1_555 1_555
H14A C16A 1_555 1_555
C17A N1A 1_555 1_555
H15A C17A 1_555 1_555
C18A C3A 1_555 1_555
H16A C18A 1_555 1_555
C19A C12A 1_555 1_555
H17A C19A 1_555 1_555
C20A C3A 1_555 1_555
H18A C20A 1_555 1_555
H19A C20A 1_555 1_555
C21A N2A 1_555 1_555
H20A C21A 1_555 1_555
C22A N4A 1_555 1_555
C23A N2A 1_555 1_555
H21A C23A 1_555 1_555
C24A N3A 1_555 1_555
H22A C24A 1_555 1_555
Mo2A O2 1_555 1_555
Mo3A O19 1_555 1_555
Mo4A O9 1_555 1_555
Mo5A O8 1_555 1_555
Mo6A O19 1_555 1_555
Mo7A O7 1_555 1_555
O1A Mo2 1_555 1_555
O3A Mo3A 1_555 1_555
O4A Mo7A 1_555 1_555
O6A Mo5A 1_555 1_555
O7A Mo7 1_555 1_555
O9A Mo4 1_555 1_555
O10A Mo4A 1_555 1_555
O11A Mo3A 1_555 1_555
O12A Mo3A 1_555 1_555
O13A Mo1 1_555 1_555
O14A Mo2 1_555 1_555
O15A Mo4A 1_555 1_555
O16A Mo7 1_555 1_555
O18A Mo5A 1_555 1_555
O21A Mo4A 1_555 1_555
O22A Mo6A 1_555 1_555
O23A Mo1 1_555 1_555
Cu1_2 O20 1_555 1_555
O20_2 Cu1 1_555 1_555
N4 C24 1_555 1_555
N5 C21 1_555 1_555
N6 C23 1_555 1_555
N8 C17 1_555 1_555
N10 C14 1_555 1_555
C6 C15 1_555 1_555
C13 C22 1_555 1_555
C16 C18 1_555 1_555
C19 C22 1_555 1_555
Mo1 O17 1_555 1_555
Mo1 O17A 1_555 1_555
Mo2 O2 1_555 1_555
Mo2 O5A 1_555 1_555
Mo3 O17 1_555 1_555
Mo3 O19A 1_555 1_555
Mo3 O23A 1_555 1_555
Mo4 O11 1_555 1_555
Mo4 O19A 1_555 1_555
Mo5 O14 1_555 1_555
Mo5 O8A 1_555 1_555
Mo6 O5 1_555 1_555
Mo6 O6 1_555 1_555
Mo6 O10 1_555 1_555
Mo6 O12 1_555 1_555
Mo6 O19A 1_555 1_555
Mo7 O8 1_555 1_555
Mo7 O15 1_555 1_555
Mo7 O17A 1_555 1_555
O5 O19A 1_555 1_555
O5 Mo2A 1_555 1_555
O8 O19A 1_555 1_555
O14 Mo2A 1_555 1_555
O16 Mo7A 1_555 1_555
O17 O19A 1_555 1_555
O17 Mo7A 1_555 1_555
O19 O5A 1_555 1_555
O19 O8A 1_555 1_555
O19 O17A 1_555 1_555
O19 Mo4A 1_555 1_555
O23 Mo3A 1_555 1_555
O5A Mo2A 1_555 1_555
O5A Mo5A 1_555 1_555
O5A Mo6A 1_555 1_555
O8A Mo4A 1_555 1_555
O8A Mo7A 1_555 1_555
O17A Mo3A 1_555 1_555
N4A C24A 1_555 1_555
N5A C21A 1_555 1_555
N6A C23A 1_555 1_555
N7A C11A 1_555 1_555
N8A C17A 1_555 1_555
N10A C14A 1_555 1_555
C6A C15A 1_555 1_555
C13A C22A 1_555 1_555
C16A C18A 1_555 1_555
C19A C22A 1_555 1_555
Mo2A O1A 1_555 1_555
Mo2A O14A 1_555 1_555
Mo3A O7A 1_555 1_555
Mo4A O11A 1_555 1_555
Mo5A O9A 1_555 1_555
Mo5A O14A 1_555 1_555
Mo5A O16A 1_555 1_555
Mo6A O1A 1_555 1_555
Mo6A O6A 1_555 1_555
Mo6A O10A 1_555 1_555
Mo6A O12A 1_555 1_555
Mo7A O13A 1_555 1_555
Mo7A O15A 1_555 1_555

#END
