
#######################################################################
#
#                 Cambridge Crystallographic Data Centre
#                                CCDC 
#
#######################################################################
#
# If this CIF has been generated from an entry in the Cambridge 
# Structural Database, then it will include bibliographic, chemical, 
# crystal, experimental, refinement or atomic coordinate data resulting 
# from the CCDC's data processing and validation procedures.
#
#######################################################################

data_GISBIV
_symmetry_cell_setting           monoclinic
_symmetry_space_group_name_H-M   'C 2/c'
_symmetry_Int_Tables_number      15
_space_group_name_Hall           '-C 2yn'
loop_
_symmetry_equiv_pos_site_id
_symmetry_equiv_pos_as_xyz
1 x,y,z
2 -x,y,1/2-z
3 1/2+x,1/2+y,z
4 1/2-x,1/2+y,1/2-z
5 -x,-y,-z
6 x,-y,1/2+z
7 1/2-x,1/2-y,-z
8 1/2+x,1/2-y,1/2+z
_cell_length_a                   32.193(5)
_cell_length_b                   15.456(5)
_cell_length_c                   22.188(5)
_cell_angle_alpha                90
_cell_angle_beta                 132.357(5)
_cell_angle_gamma                90
_cell_volume                     8158.28
loop_
_atom_site_label
_atom_site_type_symbol
_atom_site_fract_x
_atom_site_fract_y
_atom_site_fract_z
Mo1 Mo 0.54356(2) -0.54279(3) 0.18356(3)
Mo2 Mo 0.45676(2) -0.23317(3) 0.31786(3)
Mo3 Mo 0.60187(2) -0.23193(3) 0.39692(3)
Mo4 Mo 0.60221(2) -0.54341(3) 0.39684(3)
V1 V 0.55696(4) -0.38854(5) 0.45601(5)
V2 V 0.5000 -0.12896(9) 0.2500
Co1 Co 0.5000 0.11230(6) 0.2500
V3 V 0.63950(4) -0.38678(5) 0.32632(5)
V4 V 0.5000 -0.64586(9) 0.2500
P1 P 0.5000 -0.38762(11) 0.2500
O1 O 0.6451(2) -0.1514(3) 0.4590(3)
O2 O 0.4380(2) -0.1535(3) 0.3460(3)
O3 O 0.70208(19) -0.3868(3) 0.3613(3)
O4 O 0.5688(2) -0.5949(4) 0.2885(3)
O5 O 0.52754(19) -0.1796(4) 0.3507(3)
O6 O 0.4807(3) -0.4451(4) 0.1780(4)
O7 O 0.3946(3) -0.3003(4) 0.2565(3)
O8 O 0.4992(2) -0.3025(4) 0.4051(4)
O9 O 0.6472(3) -0.2982(4) 0.3949(3)
O10 O 0.6457(3) -0.4728(4) 0.3942(3)
O11 O 0.52742(19) -0.5958(4) 0.3509(3)
O12 O 0.6021(2) -0.3008(5) 0.4619(5)
O13 O 0.6047(3) -0.4742(4) 0.2436(3)
O14 O 0.4311(2) -0.1791(4) 0.2121(3)
O15 O 0.5839(2) -0.3897(4) 0.5483(3)
O16 O 0.5623(3) -0.6239(3) 0.1573(4)
O17 O 0.5493(3) -0.3312(4) 0.2776(4)
O18 O 0.6467(2) -0.6215(3) 0.4604(3)
O19 O 0.5205(3) -0.3302(5) 0.3227(4)
O20 O 0.4512(3) -0.4441(5) 0.2244(4)
O21 O 0.5000 -0.7522(4) 0.2500
O22 O 0.5015(2) -0.4748(4) 0.0931(4)
O23 O 0.6015(2) -0.4754(5) 0.4622(4)
O24 O 0.5000 -0.0225(4) 0.2500
N1 N 0.6675(4) 0.1670(5) 0.4738(5)
N2 N 0.4291(6) 0.0629(5) 0.3556(9)
N3 N 0.4678(3) 0.1113(3) 0.3088(4)
N4 N 0.1598(3) 0.1569(4) 0.1384(4)
N5 N 0.5845(2) 0.1153(3) 0.3631(4)
N6 N 0.6680(2) 0.0807(4) 0.4755(3)
N7 N 0.0780(3) 0.1077(5) 0.0817(5)
N8 N 0.4265(3) 0.1498(4) 0.3507(4)
N9 N 0.7383(3) 0.1013(4) 0.8208(4)
N10 N 0.7732(4) 0.1133(9) 0.9435(6)
C1 C 0.4532(6) 0.0438(6) 0.3275(10)
C2 C 0.7330(3) 0.0823(5) 0.7521(5)
C3 C 0.3053(4) 0.1851(6) 0.2257(6)
H1 H 0.3241 0.1899 0.2076
C4 C 0.2480(4) 0.1770(7) 0.1697(5)
H2 H 0.2281 0.1776 0.1141
C5 C 0.6169(5) 0.1838(5) 0.4044(6)
H3 H 0.6044 0.2399 0.3853
C6 C 0.3362(3) 0.1865(5) 0.3097(5)
C7 C 0.7220(6) 0.1465(11) 0.8958(9)
H4 H 0.7044 0.1693 0.9124
C8 C 0.2203(3) 0.1678(5) 0.1967(5)
C9 C 0.7226(3) 0.0518(5) 0.6196(4)
C10 C 0.0696(4) 0.1706(7) 0.0341(6)
H5 H 0.0350 0.1894 -0.0141
C11 C 0.2492(3) 0.1703(6) 0.2790(5)
H6 H 0.2300 0.1658 0.2966
C12 C 0.1327(4) 0.1005(6) 0.1455(6)
H7 H 0.1492 0.0619 0.1885
C13 C 0.6997(5) 0.1411(10) 0.8172(7)
H8 H 0.6647 0.1612 0.7706
C14 C 0.6775(3) 0.0415(6) 0.6141(5)
H9 H 0.6430 0.0243 0.5647
C15 C 0.7737(3) 0.0776(5) 0.6935(5)
H10 H 0.8047 0.0838 0.6987
C16 C 0.7791(3) 0.0943(5) 0.7604(5)
H11 H 0.8131 0.1131 0.8096
C17 C 0.7165(3) 0.0350(5) 0.5473(4)
H12 H 0.7502 0.0539 0.5595
H13 H 0.7122 -0.0266 0.5362
C18 C 0.4503(3) 0.1756(4) 0.3241(4)
C19 C 0.3985(3) 0.1987(5) 0.3715(5)
H14 H 0.4070 0.2597 0.3752
H15 H 0.4130 0.1801 0.4244
C20 C 0.1209(4) 0.2029(7) 0.0681(5)
H16 H 0.1279 0.2472 0.0476
C21 C 0.6187(3) 0.0516(4) 0.4102(4)
H17 H 0.6092 -0.0067 0.3987
C22 C 0.6820(3) 0.0559(7) 0.6793(5)
H18 H 0.6513 0.0480 0.6744
C23 C 0.3068(4) 0.1796(5) 0.3344(5)
H19 H 0.3263 0.1813 0.3898
C24 C 0.7821(4) 0.0852(10) 0.8960(6)
H20 H 0.8147 0.0583 0.9143
O6A O 0.5193(3) -0.4451(4) 0.3220(4)
O17A O 0.4507(3) -0.3312(4) 0.2224(4)
O19A O 0.4795(3) -0.3302(5) 0.1773(4)
O20A O 0.5488(3) -0.4441(5) 0.2756(4)
Mo1A Mo 0.45644(2) -0.54279(3) 0.31644(3)
Mo2A Mo 0.54324(2) -0.23317(3) 0.18214(3)
Mo3A Mo 0.39813(2) -0.23193(3) 0.10308(3)
Mo4A Mo 0.39779(2) -0.54341(3) 0.10316(3)
V1A V 0.44304(4) -0.38854(5) 0.04399(5)
V3A V 0.36050(4) -0.38678(5) 0.17368(5)
O1A O 0.3549(2) -0.1514(3) 0.0410(3)
O2A O 0.5620(2) -0.1535(3) 0.1540(3)
O3A O 0.29792(19) -0.3868(3) 0.1387(3)
O4A O 0.4312(2) -0.5949(4) 0.2115(3)
O5A O 0.47246(19) -0.1796(4) 0.1493(3)
O7A O 0.6054(3) -0.3003(4) 0.2435(3)
O8A O 0.5008(2) -0.3025(4) 0.0949(4)
O9A O 0.3528(3) -0.2982(4) 0.1051(3)
O10A O 0.3543(3) -0.4728(4) 0.1058(3)
O11A O 0.47258(19) -0.5958(4) 0.1491(3)
O12A O 0.3979(2) -0.3008(5) 0.0381(5)
O13A O 0.3953(3) -0.4742(4) 0.2564(3)
O14A O 0.5689(2) -0.1791(4) 0.2879(3)
O15A O 0.4161(2) -0.3897(4) -0.0483(3)
O16A O 0.4377(3) -0.6239(3) 0.3427(4)
O18A O 0.3533(2) -0.6215(3) 0.0396(3)
O22A O 0.4985(2) -0.4748(4) 0.4069(4)
O23A O 0.3985(2) -0.4754(5) 0.0378(4)
N1A N 0.3325(4) 0.1670(5) 0.0262(5)
N2A N 0.5709(6) 0.0629(5) 0.1444(9)
N3A N 0.5322(3) 0.1113(3) 0.1912(4)
N4A N 0.8402(3) 0.1569(4) 0.3616(4)
N5A N 0.4155(2) 0.1153(3) 0.1369(4)
N6A N 0.3320(2) 0.0807(4) 0.0245(3)
N7A N 0.9220(3) 0.1077(5) 0.4183(5)
N8A N 0.5735(3) 0.1498(4) 0.1493(4)
N9A N 0.2617(3) 0.1013(4) -0.3208(4)
N10A N 0.2268(4) 0.1133(9) -0.4435(6)
C1A C 0.5468(6) 0.0438(6) 0.1725(10)
C2A C 0.2670(3) 0.0823(5) -0.2521(5)
C3A C 0.6947(4) 0.1851(6) 0.2743(6)
H1A H 0.6759 0.1899 0.2924
C4A C 0.7520(4) 0.1770(7) 0.3303(5)
H2A H 0.7719 0.1776 0.3859
C5A C 0.3831(5) 0.1838(5) 0.0956(6)
H3A H 0.3956 0.2399 0.1147
C6A C 0.6638(3) 0.1865(5) 0.1903(5)
C7A C 0.2780(6) 0.1465(11) -0.3958(9)
H4A H 0.2956 0.1693 -0.4124
C8A C 0.7797(3) 0.1678(5) 0.3033(5)
C9A C 0.2774(3) 0.0518(5) -0.1196(4)
C10A C 0.9304(4) 0.1706(7) 0.4659(6)
H5A H 0.9650 0.1894 0.5141
C11A C 0.7508(3) 0.1703(6) 0.2210(5)
H6A H 0.7700 0.1658 0.2034
C12A C 0.8673(4) 0.1005(6) 0.3545(6)
H7A H 0.8508 0.0619 0.3115
C13A C 0.3003(5) 0.1411(10) -0.3172(7)
H8A H 0.3353 0.1612 -0.2706
C14A C 0.3225(3) 0.0415(6) -0.1141(5)
H9A H 0.3570 0.0243 -0.0647
C15A C 0.2263(3) 0.0776(5) -0.1935(5)
H10A H 0.1953 0.0838 -0.1987
C16A C 0.2209(3) 0.0943(5) -0.2604(5)
H11A H 0.1869 0.1131 -0.3096
C17A C 0.2835(3) 0.0350(5) -0.0473(4)
H12A H 0.2498 0.0539 -0.0595
H13A H 0.2878 -0.0266 -0.0362
C18A C 0.5497(3) 0.1756(4) 0.1759(4)
C19A C 0.6015(3) 0.1987(5) 0.1285(5)
H14A H 0.5930 0.2597 0.1248
H15A H 0.5870 0.1801 0.0756
C20A C 0.8791(4) 0.2029(7) 0.4319(5)
H16A H 0.8721 0.2472 0.4524
C21A C 0.3813(3) 0.0516(4) 0.0898(4)
H17A H 0.3908 -0.0067 0.1013
C22A C 0.3180(3) 0.0559(7) -0.1793(5)
H18A H 0.3487 0.0480 -0.1744
C23A C 0.6932(4) 0.1796(5) 0.1656(5)
H19A H 0.6737 0.1813 0.1102
C24A C 0.2179(4) 0.0852(10) -0.3960(6)
H20A H 0.1853 0.0583 -0.4143
Co1_2 Co 0.5000 -0.88770(6) 0.2500
O21_2 O 0.5000 0.2478(4) 0.2500
loop_
_geom_bond_atom_site_label_1
_geom_bond_atom_site_label_2
_geom_bond_site_symmetry_1
_geom_bond_site_symmetry_2
Mo1 O4 1_555 1_555
Mo2 O2 1_555 1_555
Mo3 O1 1_555 1_555
Mo4 O4 1_555 1_555
V1 O8 1_555 1_555
V2 O5 1_555 1_555
Co1 O24 1_555 1_555
V3 O3 1_555 1_555
V4 O4 1_555 1_555
P1 O6 1_555 1_555
O5 Mo2 1_555 1_555
O6 Mo1 1_555 1_555
O7 Mo2 1_555 1_555
O8 Mo2 1_555 1_555
O9 Mo3 1_555 1_555
O10 Mo4 1_555 1_555
O11 Mo4 1_555 1_555
O12 Mo3 1_555 1_555
O13 Mo1 1_555 1_555
O14 Mo2 1_555 1_555
O15 V1 1_555 1_555
O16 Mo1 1_555 1_555
O17 Mo3 1_555 1_555
O18 Mo4 1_555 1_555
O19 Mo2 1_555 1_555
O20 P1 1_555 1_555
O21 V4 1_555 1_555
O22 Mo1 1_555 1_555
O23 Mo4 1_555 1_555
O24 V2 1_555 1_555
N1 N6 1_555 1_555
N2 N8 1_555 1_555
N3 Co1 1_555 1_555
N4 C8 1_555 1_555
N5 Co1 1_555 1_555
N6 C17 1_555 1_555
N7 C10 1_555 1_555
N8 C18 1_555 1_555
N9 C2 1_555 1_555
N10 C7 1_555 1_555
C1 N2 1_555 1_555
C2 C16 1_555 1_555
C3 H1 1_555 1_555
C4 C3 1_555 1_555
H2 C4 1_555 1_555
C5 N1 1_555 1_555
H3 C5 1_555 1_555
C6 C3 1_555 1_555
C7 H4 1_555 1_555
C8 C4 1_555 1_555
C9 C14 1_555 1_555
C10 H5 1_555 1_555
C11 C8 1_555 1_555
H6 C11 1_555 1_555
C12 N4 1_555 1_555
H7 C12 1_555 1_555
C13 N9 1_555 1_555
H8 C13 1_555 1_555
C14 H9 1_555 1_555
C15 C9 1_555 1_555
H10 C15 1_555 1_555
C16 C15 1_555 1_555
H11 C16 1_555 1_555
C17 C9 1_555 1_555
H12 C17 1_555 1_555
H13 C17 1_555 1_555
C18 N3 1_555 1_555
C19 N8 1_555 1_555
H14 C19 1_555 1_555
H15 C19 1_555 1_555
C20 N4 1_555 1_555
H16 C20 1_555 1_555
C21 N5 1_555 1_555
H17 C21 1_555 1_555
C22 C2 1_555 1_555
H18 C22 1_555 1_555
C23 C6 1_555 1_555
H19 C23 1_555 1_555
C24 N9 1_555 1_555
H20 C24 1_555 1_555
O6A Mo4 1_555 1_555
O17A Mo2 1_555 1_555
O19A P1 1_555 1_555
O20A Mo1 1_555 1_555
Mo1A O11 1_555 1_555
Mo2A O17 1_555 1_555
Mo3A O14 1_555 1_555
Mo4A O6 1_555 1_555
V1A O22 1_555 1_555
V3A O7 1_555 1_555
O1A Mo3A 1_555 1_555
O2A Mo2A 1_555 1_555
O3A V3A 1_555 1_555
O4A V4 1_555 1_555
O5A V2 1_555 1_555
O7A V3 1_555 1_555
O8A Mo2A 1_555 1_555
O9A Mo3A 1_555 1_555
O10A Mo4A 1_555 1_555
O11A Mo1 1_555 1_555
O12A Mo3A 1_555 1_555
O13A Mo1A 1_555 1_555
O14A Mo3 1_555 1_555
O15A V1A 1_555 1_555
O16A Mo1A 1_555 1_555
O18A Mo4A 1_555 1_555
O22A V1 1_555 1_555
O23A Mo4A 1_555 1_555
N1A N6A 1_555 1_555
N2A N8A 1_555 1_555
N3A Co1 1_555 1_555
N4A C8A 1_555 1_555
N5A Co1 1_555 1_555
N6A C17A 1_555 1_555
N7A C10A 1_555 1_555
N8A C18A 1_555 1_555
N9A C2A 1_555 1_555
N10A C7A 1_555 1_555
C1A N2A 1_555 1_555
C2A C16A 1_555 1_555
C3A H1A 1_555 1_555
C4A C3A 1_555 1_555
H2A C4A 1_555 1_555
C5A N1A 1_555 1_555
H3A C5A 1_555 1_555
C6A C3A 1_555 1_555
C7A H4A 1_555 1_555
C8A C4A 1_555 1_555
C9A C14A 1_555 1_555
C10A H5A 1_555 1_555
C11A C8A 1_555 1_555
H6A C11A 1_555 1_555
C12A N4A 1_555 1_555
H7A C12A 1_555 1_555
C13A N9A 1_555 1_555
H8A C13A 1_555 1_555
C14A H9A 1_555 1_555
C15A C9A 1_555 1_555
H10A C15A 1_555 1_555
C16A C15A 1_555 1_555
H11A C16A 1_555 1_555
C17A C9A 1_555 1_555
H12A C17A 1_555 1_555
H13A C17A 1_555 1_555
C18A N3A 1_555 1_555
C19A N8A 1_555 1_555
H14A C19A 1_555 1_555
H15A C19A 1_555 1_555
C20A N4A 1_555 1_555
H16A C20A 1_555 1_555
C21A N5A 1_555 1_555
H17A C21A 1_555 1_555
C22A C2A 1_555 1_555
H18A C22A 1_555 1_555
C23A C6A 1_555 1_555
H19A C23A 1_555 1_555
C24A N9A 1_555 1_555
H20A C24A 1_555 1_555
Co1_2 O21 1_555 1_555
O21_2 Co1 1_555 1_555
Mo3 O5 1_555 1_555
Mo3 O19 1_555 1_555
Mo4 O20A 1_555 1_555
V1 O12 1_555 1_555
V1 O23 1_555 1_555
V2 O14 1_555 1_555
V2 O14A 1_555 1_555
V3 O9 1_555 1_555
V3 O10 1_555 1_555
V3 O13 1_555 1_555
V4 O11 1_555 1_555
V4 O11A 1_555 1_555
P1 O17 1_555 1_555
P1 O19 1_555 1_555
P1 O6A 1_555 1_555
P1 O17A 1_555 1_555
P1 O20A 1_555 1_555
O6 O19A 1_555 1_555
O6 O20A 1_555 1_555
O17 O19 1_555 1_555
O17 O19A 1_555 1_555
O17 O20A 1_555 1_555
O19 O6A 1_555 1_555
O19 O17A 1_555 1_555
O20 O6A 1_555 1_555
O20 O17A 1_555 1_555
O20 Mo1A 1_555 1_555
O20 Mo4A 1_555 1_555
N3 C1 1_555 1_555
N5 C5 1_555 1_555
N6 C21 1_555 1_555
N7 C12 1_555 1_555
N10 C24 1_555 1_555
C6 C19 1_555 1_555
C7 C13 1_555 1_555
C10 C20 1_555 1_555
C11 C23 1_555 1_555
C14 C22 1_555 1_555
O6A Mo1A 1_555 1_555
O17A O19A 1_555 1_555
O17A Mo3A 1_555 1_555
O19A Mo2A 1_555 1_555
O19A Mo3A 1_555 1_555
Mo1A O4A 1_555 1_555
Mo1A O22A 1_555 1_555
Mo2A O5A 1_555 1_555
Mo2A O7A 1_555 1_555
Mo2A O14A 1_555 1_555
Mo3A O5A 1_555 1_555
Mo4A O4A 1_555 1_555
Mo4A O11A 1_555 1_555
V1A O8A 1_555 1_555
V1A O12A 1_555 1_555
V1A O23A 1_555 1_555
V3A O9A 1_555 1_555
V3A O10A 1_555 1_555
V3A O13A 1_555 1_555
N3A C1A 1_555 1_555
N5A C5A 1_555 1_555
N6A C21A 1_555 1_555
N7A C12A 1_555 1_555
N10A C24A 1_555 1_555
C6A C19A 1_555 1_555
C7A C13A 1_555 1_555
C10A C20A 1_555 1_555
C11A C23A 1_555 1_555
C14A C22A 1_555 1_555

#END
