
#######################################################################
#
#                 Cambridge Crystallographic Data Centre
#                                CCDC 
#
#######################################################################
#
# If this CIF has been generated from an entry in the Cambridge 
# Structural Database, then it will include bibliographic, chemical, 
# crystal, experimental, refinement or atomic coordinate data resulting 
# from the CCDC's data processing and validation procedures.
#
#######################################################################

data_GISFAR
_symmetry_cell_setting           triclinic
_symmetry_space_group_name_H-M   'P -1'
_symmetry_Int_Tables_number      2
_space_group_name_Hall           '-P 1'
loop_
_symmetry_equiv_pos_site_id
_symmetry_equiv_pos_as_xyz
1 x,y,z
2 -x,-y,-z
_cell_length_a                   10.7704(5)
_cell_length_b                   11.2485(5)
_cell_length_c                   12.3945(5)
_cell_angle_alpha                63.892(5)
_cell_angle_beta                 66.121(4)
_cell_angle_gamma                73.689(7)
_cell_volume                     1223.29
loop_
_atom_site_label
_atom_site_type_symbol
_atom_site_fract_x
_atom_site_fract_y
_atom_site_fract_z
Mo1 Mo 0.43439(3) 0.12369(3) 0.26758(3)
Mo2 Mo 0.60274(3) 0.19634(3) 0.52211(3)
Mo3 Mo 0.32982(3) 0.02345(3) 0.60202(3)
Mo4 Mo 0.36553(3) 0.34889(3) 0.39050(3)
Cu1 Cu 0.47357(4) 0.63385(4) 0.07783(4)
Cu2 Cu 0.13833(4) 0.68207(5) 0.22698(5)
O1 O 0.4881(3) 0.4370(3) 0.2600(3)
O2 O 0.5593(3) 0.2073(3) 0.1363(3)
O3 O 0.3458(3) 0.0801(3) 0.2072(3)
O4 O 0.5046(2) 0.1335(2) 0.4193(2)
N1 N 0.6344(3) 0.5453(3) -0.0212(3)
C1 C 0.8679(4) 0.7250(4) -0.0163(4)
H1 H 0.9543 0.6886 -0.0554
O5 O 0.5516(2) -0.0469(2) 0.3248(2)
O6 O 0.2457(2) 0.1870(3) 0.5674(2)
N2 N 0.0791(3) 0.7911(3) 0.3307(3)
O7 O 0.3087(2) -0.0130(2) 0.4716(2)
N3 N 0.6267(3) 0.7253(3) 0.0587(3)
C2 C 0.6150(4) 0.8217(4) 0.0984(4)
H2 H 0.5289 0.8576 0.1388
O8 O -0.0498(3) 0.6355(4) 0.3012(4)
C3 C 0.0807(4) 0.9223(4) 0.2708(4)
H3 H 0.1035 0.9584 0.1828
O9 O 0.7189(3) 0.2808(3) 0.3839(3)
O10 O 0.3127(3) 0.2650(3) 0.3125(3)
N4 N 0.8566(3) 0.5179(3) -0.1178(3)
O11 O 0.4416(3) 0.3213(3) 0.5175(2)
O12 O 0.2261(3) 0.4644(3) 0.4138(3)
C4 C 0.7553(3) 0.5797(4) -0.0471(4)
O13 O 0.3230(2) 0.7206(3) 0.1713(2)
C5 C 0.7539(4) 0.6782(4) -0.0007(3)
C6 C 0.7317(5) 0.8689(4) 0.0797(4)
H4 H 0.7211 0.9366 0.1077
O14 O 0.2188(3) -0.0687(3) 0.7375(3)
N5 N 0.6611(3) 0.4594(3) -0.0762(3)
N6 N 0.7929(3) 0.4429(3) -0.1332(3)
N7 N 0.8572(4) 0.8212(4) 0.0235(3)
C7 C 0.0154(3) 0.9555(4) 0.4645(3)
C8 C 0.0128(4) 0.8183(4) 0.5267(4)
H5 H -0.0110 0.7799 0.6148
C9 C 0.0456(4) 0.7399(4) 0.4572(4)
H6 H 0.0444 0.6483 0.4996
C10 C 0.0501(4) 1.0062(4) 0.3340(4)
H7 H 0.0526 1.0974 0.2888
O15 O 0.6367(3) 0.2088(3) 0.6391(3)
O16 O 0.1115(3) 0.8517(3) 0.0331(3)
N2A N -0.0791(3) 1.2089(3) 0.6693(3)
C3A C -0.0807(4) 1.0777(4) 0.7292(4)
H3A H -0.1035 1.0416 0.8172
C7A C -0.0154(3) 1.0445(4) 0.5355(3)
C8A C -0.0128(4) 1.1817(4) 0.4733(4)
H5A H 0.0110 1.2201 0.3852
C9A C -0.0456(4) 1.2601(4) 0.5428(4)
H6A H -0.0444 1.3517 0.5004
C10A C -0.0501(4) 0.9938(4) 0.6660(4)
H7A H -0.0526 0.9026 0.7112
Mo1A Mo -0.43439(3) 1.87631(3) 0.73242(3)
Mo2A Mo -0.60274(3) 1.80366(3) 0.47789(3)
Mo3A Mo -0.32982(3) 1.97655(3) 0.39798(3)
Mo4A Mo -0.36553(3) 1.65111(3) 0.60950(3)
Cu1A Cu -0.47357(4) 1.36615(4) 0.92217(4)
Cu2A Cu -0.13833(4) 1.31793(5) 0.77302(5)
O1A O -0.4881(3) 1.5630(3) 0.7400(3)
O2A O -0.5593(3) 1.7927(3) 0.8637(3)
O3A O -0.3458(3) 1.9199(3) 0.7928(3)
O4A O -0.5046(2) 1.8665(2) 0.5807(2)
N1A N -0.6344(3) 1.4547(3) 1.0212(3)
C1A C -0.8679(4) 1.2750(4) 1.0163(4)
H1A H -0.9543 1.3114 1.0554
O5A O -0.5516(2) 2.0469(2) 0.6752(2)
O6A O -0.2457(2) 1.8130(3) 0.4326(2)
O7A O -0.3087(2) 2.0130(2) 0.5284(2)
N3A N -0.6267(3) 1.2747(3) 0.9413(3)
C2A C -0.6150(4) 1.1783(4) 0.9016(4)
H2A H -0.5289 1.1424 0.8612
O8A O 0.0498(3) 1.3645(4) 0.6988(4)
O9A O -0.7189(3) 1.7192(3) 0.6161(3)
O10A O -0.3127(3) 1.7350(3) 0.6875(3)
N4A N -0.8566(3) 1.4821(3) 1.1178(3)
O11A O -0.4416(3) 1.6787(3) 0.4825(2)
O12A O -0.2261(3) 1.5356(3) 0.5862(3)
C4A C -0.7553(3) 1.4203(4) 1.0471(4)
O13A O -0.3230(2) 1.2794(3) 0.8287(2)
C5A C -0.7539(4) 1.3218(4) 1.0007(3)
C6A C -0.7317(5) 1.1311(4) 0.9203(4)
H4A H -0.7211 1.0634 0.8923
O14A O -0.2188(3) 2.0687(3) 0.2625(3)
N5A N -0.6611(3) 1.5406(3) 1.0762(3)
N6A N -0.7929(3) 1.5571(3) 1.1332(3)
N7A N -0.8572(4) 1.1788(4) 0.9765(3)
O15A O -0.6367(3) 1.7912(3) 0.3609(3)
O16A O -0.1115(3) 1.1483(3) 0.9669(3)
Mo2_2 Mo -0.39726(3) 2.19634(3) 0.52211(3)
Mo2A_2 Mo 0.39726(3) -0.19634(3) 0.47789(3)
Mo3_2 Mo -0.67018(3) 2.02345(3) 0.60202(3)
Mo3A_2 Mo 0.67018(3) -0.02345(3) 0.39798(3)
Cu1_2 Cu -0.52643(4) 1.63385(4) 1.07783(4)
Cu1A_2 Cu 0.52643(4) 0.36615(4) -0.07783(4)
Cu2_2 Cu -0.86167(4) 1.68207(5) 1.22698(5)
Cu2A_2 Cu 0.86167(4) 0.31793(5) -0.22698(5)
O2_2 O -0.4407(3) 1.2073(3) 1.1363(3)
O2A_2 O 0.4407(3) 0.7927(3) -0.1363(3)
O4_2 O -0.4954(2) 2.1335(2) 0.4193(2)
O4A_2 O 0.4954(2) -0.1335(2) 0.5807(2)
O5_2 O -0.4484(2) 1.9531(2) 0.3248(2)
O5A_2 O 0.4484(2) 0.0469(2) 0.6752(2)
O7_2 O -0.6913(2) 1.9870(2) 0.4716(2)
O7A_2 O 0.6913(2) 0.0130(2) 0.5284(2)
N5_2 N -0.3389(3) 1.4594(3) 0.9238(3)
N5A_2 N 0.3389(3) 0.5406(3) 0.0762(3)
N6_2 N -0.2071(3) 1.4429(3) 0.8668(3)
N6A_2 N 0.2071(3) 0.5571(3) 0.1332(3)
O17 O 0.7430(4) 0.5573(3) 0.2969(3)
loop_
_geom_bond_atom_site_label_1
_geom_bond_atom_site_label_2
_geom_bond_site_symmetry_1
_geom_bond_site_symmetry_2
Mo1 O2 1_555 1_555
Mo2 O4 1_555 1_555
Mo3 O4 1_555 1_555
Mo4 O1 1_555 1_555
Cu1 O1 1_555 1_555
Cu2 N2 1_555 1_555
O2 Cu1A_2 1_555 1_555
O3 Mo1 1_555 1_555
O4 Mo1 1_555 1_555
N1 Cu1 1_555 1_555
C1 H1 1_555 1_555
O5 Mo1 1_555 1_555
O6 Mo3 1_555 1_555
N2 C3 1_555 1_555
O7 Mo1 1_555 1_555
N3 Cu1 1_555 1_555
C2 N3 1_555 1_555
H2 C2 1_555 1_555
O8 Cu2 1_555 1_555
C3 H3 1_555 1_555
O9 Mo2 1_555 1_555
O10 Mo1 1_555 1_555
N4 C4 1_555 1_555
O11 Mo2 1_555 1_555
O12 Mo4 1_555 1_555
C4 N1 1_555 1_555
O13 Cu1 1_555 1_555
C5 C1 1_555 1_555
C6 C2 1_555 1_555
H4 C6 1_555 1_555
O14 Mo3 1_555 1_555
N5 N1 1_555 1_555
N6 N4 1_555 1_555
N7 C1 1_555 1_555
C7 C8 1_555 1_555
C8 H5 1_555 1_555
C9 N2 1_555 1_555
H6 C9 1_555 1_555
C10 C3 1_555 1_555
H7 C10 1_555 1_555
O15 Mo2 1_555 1_555
O16 Cu2 1_555 1_555
N2A C3A 1_555 1_555
C3A H3A 1_555 1_555
C7A C7 1_555 1_555
C8A C7A 1_555 1_555
H5A C8A 1_555 1_555
C9A N2A 1_555 1_555
H6A C9A 1_555 1_555
C10A C3A 1_555 1_555
H7A C10A 1_555 1_555
Mo1A O2A 1_555 1_555
Mo2A O4A 1_555 1_555
Mo3A O4A 1_555 1_555
Mo4A O1A 1_555 1_555
Cu1A O1A 1_555 1_555
Cu2A N2A 1_555 1_555
O2A Cu1_2 1_555 1_555
O3A Mo1A 1_555 1_555
O4A Mo1A 1_555 1_555
N1A Cu1A 1_555 1_555
C1A H1A 1_555 1_555
O5A Mo1A 1_555 1_555
O6A Mo3A 1_555 1_555
O7A Mo1A 1_555 1_555
N3A Cu1A 1_555 1_555
C2A N3A 1_555 1_555
H2A C2A 1_555 1_555
O8A Cu2A 1_555 1_555
O9A Mo2A 1_555 1_555
O10A Mo1A 1_555 1_555
N4A C4A 1_555 1_555
O11A Mo2A 1_555 1_555
O12A Mo4A 1_555 1_555
C4A N1A 1_555 1_555
O13A Cu1A 1_555 1_555
C5A C1A 1_555 1_555
C6A C2A 1_555 1_555
H4A C6A 1_555 1_555
O14A Mo3A 1_555 1_555
N5A N1A 1_555 1_555
N6A N4A 1_555 1_555
N7A C1A 1_555 1_555
O15A Mo2A 1_555 1_555
O16A Cu2A 1_555 1_555
Mo2_2 O5A 1_555 1_555
Mo2A_2 O5 1_555 1_555
Mo3_2 O4A 1_555 1_555
Mo3A_2 O4 1_555 1_555
Cu1_2 N5A 1_555 1_555
Cu1A_2 N5 1_555 1_555
Cu2_2 N6A 1_555 1_555
Cu2A_2 N6 1_555 1_555
O2_2 Cu1A 1_555 1_555
O2A_2 Cu1 1_555 1_555
O4_2 Mo3A 1_555 1_555
O4A_2 Mo3 1_555 1_555
O5_2 Mo2A 1_555 1_555
O5A_2 Mo2 1_555 1_555
O7_2 Mo2A 1_555 1_555
O7A_2 Mo2 1_555 1_555
N5_2 Cu1A 1_555 1_555
N5A_2 Cu1 1_555 1_555
N6_2 Cu2A 1_555 1_555
N6A_2 Cu2 1_555 1_555
Mo3 O7 1_555 1_555
Mo3 O5A_2 1_555 1_555
Mo4 O4 1_555 1_555
Mo4 O6 1_555 1_555
Mo4 O10 1_555 1_555
Mo4 O11 1_555 1_555
Cu2 O12 1_555 1_555
Cu2 O13 1_555 1_555
O5 Mo3A_2 1_555 1_555
O7 Mo2A_2 1_555 1_555
N3 C5 1_555 1_555
C4 C5 1_555 1_555
C6 N7 1_555 1_555
N5 N6 1_555 1_555
C7 C10 1_555 1_555
C8 C9 1_555 1_555
C7A C10A 1_555 1_555
C8A C9A 1_555 1_555
Mo3A O7A 1_555 1_555
Mo3A O5_2 1_555 1_555
Mo4A O4A 1_555 1_555
Mo4A O6A 1_555 1_555
Mo4A O10A 1_555 1_555
Mo4A O11A 1_555 1_555
Cu2A O12A 1_555 1_555
Cu2A O13A 1_555 1_555
O5A Mo3_2 1_555 1_555
O7A Mo2_2 1_555 1_555
N3A C5A 1_555 1_555
C4A C5A 1_555 1_555
C6A N7A 1_555 1_555
N5A N6A 1_555 1_555
Mo2_2 O4_2 1_555 1_555
Mo2A_2 O4A_2 1_555 1_555
Mo3_2 O4_2 1_555 1_555
Mo3_2 O7_2 1_555 1_555
Mo3A_2 O4A_2 1_555 1_555
Mo3A_2 O7A_2 1_555 1_555
N5_2 N6_2 1_555 1_555
N5A_2 N6A_2 1_555 1_555

#END
