
#######################################################################
#
#                 Cambridge Crystallographic Data Centre
#                                CCDC 
#
#######################################################################
#
# If this CIF has been generated from an entry in the Cambridge 
# Structural Database, then it will include bibliographic, chemical, 
# crystal, experimental, refinement or atomic coordinate data resulting 
# from the CCDC's data processing and validation procedures.
#
#######################################################################

data_GISLIE
_symmetry_cell_setting           orthorhombic
_symmetry_space_group_name_H-M   'P n n a'
_symmetry_Int_Tables_number      52
_space_group_name_Hall           '-P 2a 2bc'
loop_
_symmetry_equiv_pos_site_id
_symmetry_equiv_pos_as_xyz
1 x,y,z
2 x,1/2-y,1/2-z
3 1/2-x,1/2+y,1/2-z
4 1/2-x,-y,z
5 -x,-y,-z
6 -x,1/2+y,1/2+z
7 1/2+x,1/2-y,1/2+z
8 1/2+x,y,-z
_cell_length_a                   18.5082(17)
_cell_length_b                   26.199(3)
_cell_length_c                   7.1726(6)
_cell_angle_alpha                90
_cell_angle_beta                 90
_cell_angle_gamma                90
_cell_volume                     3477.97
loop_
_atom_site_label
_atom_site_type_symbol
_atom_site_fract_x
_atom_site_fract_y
_atom_site_fract_z
Cr1 Cr 0.80893(8) 0.2500 0.2500
Cl1 Cl 0.63892(10) 0.02267(8) 0.4102(2)
Na1 Na 0.7960(2) 0.2500 -0.2500
O1 O 0.8822(2) 0.24781(18) 0.0550(6)
O2 O 0.7318(2) 0.2380(2) 0.4390(6)
O3 O 0.8062(2) 0.1638(2) -0.2260(6)
N1 N 0.8117(2) 0.1729(2) 0.2488(6)
N2 N 0.8617(2) 0.1418(2) 0.2019(6)
C1 C 0.6658(3) 0.0867(2) 0.4209(8)
C2 C 0.6242(3) 0.1212(3) 0.5099(8)
C3 C 0.6441(3) 0.1722(2) 0.5183(9)
C4 C 0.7078(3) 0.1896(2) 0.4309(8)
C5 C 0.7492(3) 0.1516(2) 0.3324(9)
C6 C 0.7292(3) 0.1006(2) 0.3330(9)
C7 C 0.9324(3) 0.2119(2) 0.0575(7)
C8 C 1.0020(3) 0.2267(3) -0.0206(8)
C9 C 1.0569(3) 0.1937(2) -0.0250(8)
C10 C 1.0507(3) 0.1422(2) 0.0373(7)
C11 C 1.1093(3) 0.1072(3) 0.0275(8)
C12 C 1.1004(3) 0.0574(2) 0.0811(8)
C13 C 1.0341(3) 0.0416(2) 0.1532(8)
C14 C 0.9764(3) 0.0742(2) 0.1681(8)
C15 C 0.9825(3) 0.1249(2) 0.1113(7)
C16 C 0.9246(3) 0.1624(2) 0.1233(7)
C17 C 0.8410(4) 0.1242(3) -0.2542(7)
C18 C 0.8125(4) 0.0736(3) -0.1908(11)
C19 C 0.9106(3) 0.1238(3) -0.3583(10)
H1 H 0.5815 0.1107 0.5665
H2 H 0.6151 0.1953 0.5824
H3 H 0.7580 0.0761 0.2753
H4 H 1.0082 0.2595 -0.0678
H5 H 1.1013 0.2048 -0.0706
H6 H 1.1540 0.1182 -0.0156
H7 H 1.1383 0.0343 0.0695
H8 H 1.0289 0.0080 0.1924
H9 H 0.9329 0.0624 0.2165
H10 H 0.8513 0.0536 -0.1406
H11 H 0.7913 0.0560 -0.2948
H12 H 0.7764 0.0789 -0.0965
H13 H 0.9490 0.1139 -0.2759
H14 H 0.9202 0.1573 -0.4066
H15 H 0.9076 0.0999 -0.4595
Cl1A Cl 0.63892(10) 0.47733(8) 0.0898(2)
Na1_2 Na 0.7960(2) 0.2500 0.7500
O1A O 0.8822(2) 0.25219(18) 0.4450(6)
O1A_2 O 0.8822(2) 0.25219(18) -0.5550(6)
O2A O 0.7318(2) 0.2620(2) 0.0610(6)
O2_2 O 0.7318(2) 0.2380(2) -0.5610(6)
O3A O 0.8062(2) 0.3362(2) -0.2740(6)
N1A N 0.8117(2) 0.3271(2) 0.2512(6)
N2A N 0.8617(2) 0.3582(2) 0.2981(6)
C1A C 0.6658(3) 0.4133(2) 0.0791(8)
C2A C 0.6242(3) 0.3788(3) -0.0099(8)
C3A C 0.6441(3) 0.3278(2) -0.0183(9)
C4A C 0.7078(3) 0.3104(2) 0.0691(8)
C5A C 0.7492(3) 0.3484(2) 0.1676(9)
C6A C 0.7292(3) 0.3994(2) 0.1670(9)
C7A C 0.9324(3) 0.2881(2) 0.4425(7)
C8A C 1.0020(3) 0.2733(3) 0.5206(8)
C9A C 1.0569(3) 0.3063(2) 0.5250(8)
C10A C 1.0507(3) 0.3578(2) 0.4627(7)
C11A C 1.1093(3) 0.3928(3) 0.4725(8)
C12A C 1.1004(3) 0.4426(2) 0.4189(8)
C13A C 1.0341(3) 0.4584(2) 0.3468(8)
C14A C 0.9764(3) 0.4258(2) 0.3319(8)
C15A C 0.9825(3) 0.3751(2) 0.3887(7)
C16A C 0.9246(3) 0.3376(2) 0.3767(7)
C17A C 0.8410(4) 0.3758(3) -0.2458(7)
C18A C 0.8125(4) 0.4264(3) -0.3092(11)
C19A C 0.9106(3) 0.3762(3) -0.1417(10)
H1A H 0.5815 0.3893 -0.0665
H2A H 0.6151 0.3047 -0.0824
H3A H 0.7580 0.4239 0.2247
H4A H 1.0082 0.2405 0.5678
H5A H 1.1013 0.2952 0.5706
H6A H 1.1540 0.3818 0.5156
H7A H 1.1383 0.4657 0.4305
H8A H 1.0289 0.4920 0.3076
H9A H 0.9329 0.4376 0.2835
H10A H 0.8513 0.4464 -0.3594
H11A H 0.7913 0.4440 -0.2052
H12A H 0.7764 0.4211 -0.4035
H13A H 0.9490 0.3861 -0.2241
H14A H 0.9202 0.3427 -0.0934
H15A H 0.9076 0.4001 -0.0405
loop_
_geom_bond_atom_site_label_1
_geom_bond_atom_site_label_2
_geom_bond_site_symmetry_1
_geom_bond_site_symmetry_2
Cr1 O1 1_555 1_555
Cl1 C1 1_555 1_555
Na1 O1 1_555 1_555
O1 C7 1_555 1_555
O2 Cr1 1_555 1_555
O3 Na1 1_555 1_555
N1 Cr1 1_555 1_555
N2 N1 1_555 1_555
C1 C2 1_555 1_555
C2 C3 1_555 1_555
C3 C4 1_555 1_555
C4 O2 1_555 1_555
C5 N1 1_555 1_555
C6 C1 1_555 1_555
C7 C8 1_555 1_555
C8 C9 1_555 1_555
C9 C10 1_555 1_555
C10 C11 1_555 1_555
C11 C12 1_555 1_555
C12 C13 1_555 1_555
C13 C14 1_555 1_555
C14 C15 1_555 1_555
C15 C10 1_555 1_555
C16 N2 1_555 1_555
C17 O3 1_555 1_555
C18 C17 1_555 1_555
C19 C17 1_555 1_555
H1 C2 1_555 1_555
H2 C3 1_555 1_555
H3 C6 1_555 1_555
H4 C8 1_555 1_555
H5 C9 1_555 1_555
H6 C11 1_555 1_555
H7 C12 1_555 1_555
H8 C13 1_555 1_555
H9 C14 1_555 1_555
H10 C18 1_555 1_555
H11 C18 1_555 1_555
H12 C18 1_555 1_555
H13 C19 1_555 1_555
H14 C19 1_555 1_555
H15 C19 1_555 1_555
Cl1A C1A 1_555 1_555
Na1_2 O2 1_555 1_555
O1A Cr1 1_555 1_555
O1A_2 Na1 1_555 1_555
O2A Cr1 1_555 1_555
O2_2 Na1 1_555 1_555
O3A Na1 1_555 1_555
N1A Cr1 1_555 1_555
N2A N1A 1_555 1_555
C1A C2A 1_555 1_555
C2A C3A 1_555 1_555
C3A C4A 1_555 1_555
C4A O2A 1_555 1_555
C5A N1A 1_555 1_555
C6A C1A 1_555 1_555
C7A O1A 1_555 1_555
C8A C7A 1_555 1_555
C9A C8A 1_555 1_555
C10A C9A 1_555 1_555
C11A C10A 1_555 1_555
C12A C11A 1_555 1_555
C13A C12A 1_555 1_555
C14A C13A 1_555 1_555
C15A C10A 1_555 1_555
C16A N2A 1_555 1_555
C17A O3A 1_555 1_555
C18A C17A 1_555 1_555
C19A C17A 1_555 1_555
H1A C2A 1_555 1_555
H2A C3A 1_555 1_555
H3A C6A 1_555 1_555
H4A C8A 1_555 1_555
H5A C9A 1_555 1_555
H6A C11A 1_555 1_555
H7A C12A 1_555 1_555
H8A C13A 1_555 1_555
H9A C14A 1_555 1_555
H10A C18A 1_555 1_555
H11A C18A 1_555 1_555
H12A C18A 1_555 1_555
H13A C19A 1_555 1_555
H14A C19A 1_555 1_555
H15A C19A 1_555 1_555
Na1 O2A 1_555 1_555
C4 C5 1_555 1_555
C5 C6 1_555 1_555
C7 C16 1_555 1_555
C15 C16 1_555 1_555
Na1_2 O1A 1_555 1_555
C4A C5A 1_555 1_555
C5A C6A 1_555 1_555
C7A C16A 1_555 1_555
C14A C15A 1_555 1_555
C15A C16A 1_555 1_555

#END
