
#######################################################################
#
#                 Cambridge Crystallographic Data Centre
#                                CCDC 
#
#######################################################################
#
# If this CIF has been generated from an entry in the Cambridge 
# Structural Database, then it will include bibliographic, chemical, 
# crystal, experimental, refinement or atomic coordinate data resulting 
# from the CCDC's data processing and validation procedures.
#
#######################################################################

data_GISLOK
_symmetry_cell_setting           monoclinic
_symmetry_space_group_name_H-M   'P 21/n'
_symmetry_Int_Tables_number      14
_space_group_name_Hall           '-P 2yn'
loop_
_symmetry_equiv_pos_site_id
_symmetry_equiv_pos_as_xyz
1 x,y,z
2 1/2-x,1/2+y,1/2-z
3 -x,-y,-z
4 1/2+x,1/2-y,1/2+z
_cell_length_a                   17.0505(4)
_cell_length_b                   15.1728(4)
_cell_length_c                   24.9142(6)
_cell_angle_alpha                90
_cell_angle_beta                 106.126(1)
_cell_angle_gamma                90
_cell_volume                     6191.79
loop_
_atom_site_label
_atom_site_type_symbol
_atom_site_fract_x
_atom_site_fract_y
_atom_site_fract_z
Ho1 Ho 0.43036(3) 0.43328(3) 0.74931(2)
Ho2 Ho 0.73944(3) 0.44550(4) 0.75148(2)
Ho3 Ho 0.44596(3) 0.18498(3) 0.25250(2)
Ho4 Ho 0.77918(3) 0.69287(4) 1.25546(2)
O2 O 0.4125(5) 0.5883(5) 0.7439(4)
O3 O 0.7616(5) 0.6017(6) 0.7697(4)
O4 O 0.4089(5) 0.3423(5) 0.2388(3)
O5 O 0.5839(4) 0.1105(5) 0.2479(3)
O6 O 0.7448(6) 0.8500(7) 1.2435(4)
O8 O 0.5535(5) 0.4870(6) 0.8042(3)
O9 O 0.6872(5) 0.4687(6) 0.8260(4)
O10 O 0.6279(5) 0.5218(5) 1.1807(3)
O11 O 0.7584(5) 0.5611(5) 1.2030(3)
O12 O 0.4886(5) 0.4701(6) 0.6805(3)
O13 O 0.6189(5) 0.5100(5) 0.7000(3)
O14 O 0.2555(5) 0.1876(5) 0.3006(3)
O15 O 0.3854(5) 0.2309(5) 0.3246(3)
O16 O 0.2805(5) 0.2657(6) 0.6724(3)
O17 O 0.4123(5) 0.3074(5) 0.6948(3)
O18 O 0.8714(5) 0.4522(5) 0.8033(3)
O19 O 0.9998(5) 0.4138(6) 0.8254(3)
O20 O 0.2017(5) 0.5076(6) 0.3183(3)
O21 O 0.0723(5) 0.5531(5) 0.2995(3)
O22 O 0.2983(5) 0.4488(6) 0.6932(3)
O23 O 0.1705(5) 0.4083(6) 0.6722(3)
O24 O 0.5540(4) 0.2637(5) 0.3072(3)
O25 O 0.6862(5) 0.2310(6) 0.3260(3)
O26 O 0.6803(5) 0.3426(6) 0.6822(3)
O27 O 0.8118(5) 0.3100(5) 0.7001(3)
O28 O 0.4784(4) 0.2295(6) 1.1730(3)
O29 O 0.6109(4) 0.2678(5) 1.1914(3)
O30 O 0.3546(5) 0.2987(5) 0.7970(3)
O31 O 0.4861(5) 0.3237(6) 0.8129(3)
C1 C 0.6227(6) 0.4803(8) 0.8388(5)
C2 C 0.6267(7) 0.4936(7) 0.8990(5)
C3 C 0.6942(6) 0.4698(7) 0.9413(5)
H1 H 0.7390 0.4426 0.9321
C4 C 0.6985(6) 0.4851(8) 0.9988(5)
C5 C 0.7657(7) 0.4613(7) 1.0441(5)
H2 H 0.8115 0.4337 1.0367
C6 C 0.7666(7) 0.4770(8) 1.0988(5)
H3 H 0.8137 0.4634 1.1284
C7 C 0.6966(7) 0.5137(7) 1.1106(5)
C8 C 0.6950(7) 0.5322(8) 1.1689(5)
C9 C 0.6303(7) 0.5372(7) 1.0675(5)
H4 H 0.5837 0.5621 1.0756
C10 C 0.6301(6) 0.5250(7) 1.0112(4)
C11 C 0.5608(7) 0.5494(7) 0.9665(5)
H5 H 0.5152 0.5765 0.9746
C12 C 0.5597(6) 0.5342(7) 0.9130(5)
H6 H 0.5131 0.5510 0.8839
C13 C 0.5503(6) 0.4905(7) 0.6661(5)
C14 C 0.5434(6) 0.5002(7) 0.6056(5)
C15 C 0.6068(6) 0.5430(7) 0.5885(4)
H7 H 0.6541 0.5631 0.6158
C16 C 0.5998(6) 0.5554(7) 0.5329(5)
H8 H 0.6416 0.5861 0.5222
C17 C 0.5312(6) 0.5233(7) 0.4910(5)
C18 C 0.4772(6) 0.4677(7) 0.5661(5)
H9 H 0.4357 0.4382 0.5778
C19 C 0.3176(7) 0.2174(8) 0.3349(5)
C20 C 0.3111(7) 0.2379(7) 0.3932(5)
C21 C 0.3757(6) 0.2137(7) 0.4394(5)
H10 H 0.4242 0.1897 0.4337
C22 C 0.3690(7) 0.2248(8) 0.4943(5)
C23 C 0.4341(7) 0.2033(8) 0.5427(5)
H11 H 0.4828 0.1772 0.5387
C24 C 0.4259(7) 0.2206(7) 0.5947(4)
H12 H 0.4704 0.2084 0.6264
C25 C 0.3527(7) 0.2561(8) 0.6029(5)
C26 C 0.3468(7) 0.2770(7) 0.6597(5)
C27 C 0.2881(6) 0.2760(7) 0.5570(5)
H13 H 0.2388 0.2989 0.5621
C28 C 0.2956(7) 0.2620(7) 0.5023(5)
C29 C 0.2310(7) 0.2845(8) 0.4532(5)
H14 H 0.1820 0.3094 0.4577
C30 C 0.2375(6) 0.2717(8) 0.4012(5)
H15 H 0.1929 0.2852 0.3698
C31 C 0.9407(7) 0.4500(7) 0.8369(5)
C32 C 0.9522(7) 0.4816(7) 0.8958(5)
C33 C 0.8895(7) 0.5255(7) 0.9109(5)
H16 H 0.8419 0.5425 0.8827
C34 C 0.8955(7) 0.5444(7) 0.9651(5)
H17 H 0.8516 0.5726 0.9747
C35 C 0.9677(7) 0.5218(7) 1.0077(4)
C36 C 1.0245(7) 0.4606(8) 0.9367(5)
H18 H 1.0684 0.4341 0.9261
C37 C 0.1382(7) 0.5231(7) 0.3318(4)
C38 C 0.1370(7) 0.5075(7) 0.3908(4)
C39 C 0.0667(7) 0.4727(7) 0.4051(5)
H19 H 0.0184 0.4597 0.3764
C40 C 0.0691(6) 0.4582(7) 0.4591(4)
H20 H 0.0225 0.4342 0.4675
C41 C 0.1395(6) 0.4781(7) 0.5036(4)
C42 C 0.1466(6) 0.4595(7) 0.5602(4)
H21 H 0.1016 0.4332 0.5697
C43 C 0.2165(6) 0.4780(7) 0.6025(4)
C44 C 0.2286(7) 0.4452(8) 0.6597(5)
C45 C 0.2819(7) 0.5221(7) 0.5880(4)
H22 H 0.3290 0.5388 0.6168
C46 C 0.2782(6) 0.5406(7) 0.5340(5)
H23 H 0.3228 0.5693 0.5255
C47 C 0.2077(6) 0.5170(7) 0.4897(4)
C48 C 0.2051(7) 0.5288(7) 0.4324(5)
H24 H 0.2515 0.5519 0.4232
C49 C 0.6229(6) 0.2462(7) 0.3407(5)
C50 C 0.6273(6) 0.2481(7) 0.4011(5)
C51 C 0.6979(6) 0.2180(7) 0.4410(4)
H25 H 0.7405 0.1902 0.4294
C52 C 0.7048(6) 0.2296(7) 0.4985(4)
C53 C 0.7777(6) 0.2038(7) 0.5406(5)
H26 H 0.8196 0.1724 0.5303
C54 C 0.7864(7) 0.2245(7) 0.5951(4)
H27 H 0.8353 0.2092 0.6226
C55 C 0.7227(6) 0.2692(8) 0.6113(5)
C56 C 0.7393(7) 0.3070(7) 0.6688(4)
C57 C 0.6509(6) 0.2885(7) 0.5724(4)
H28 H 0.6080 0.3157 0.5838
C58 C 0.6396(6) 0.2686(7) 0.5155(4)
C59 C 0.5675(6) 0.2941(7) 0.4728(5)
H29 H 0.5224 0.3181 0.4832
C60 C 0.5627(6) 0.2846(7) 0.4185(5)
H30 H 0.5147 0.3030 0.3912
C61 C 0.5416(7) 0.2463(7) 1.1579(4)
C62 C 0.5362(7) 0.2481(7) 1.0969(5)
C63 C 0.6013(6) 0.2876(7) 1.0797(5)
H31 H 0.6487 0.3083 1.1067
C64 C 0.5947(7) 0.2951(7) 1.0240(5)
H32 H 0.6384 0.3204 1.0125
C65 C 0.5234(6) 0.2655(7) 0.9826(4)
C66 C 0.5120(7) 0.2801(7) 0.9252(5)
H33 H 0.5551 0.3055 0.9131
C67 C 0.4396(7) 0.2586(7) 0.8858(5)
C68 C 0.4257(7) 0.2944(8) 0.8278(5)
C69 C 0.3791(7) 0.2123(7) 0.9044(5)
H34 H 0.3306 0.1930 0.8778
C70 C 0.3896(7) 0.1959(7) 0.9580(5)
H35 H 0.3482 0.1649 0.9690
C71 C 0.4601(6) 0.2228(7) 0.9996(4)
C72 C 0.4682(6) 0.2145(7) 1.0576(5)
H36 H 0.4266 0.1857 1.0698
Ho1B Ho 0.56964(3) 0.56672(3) 1.25069(2)
Ho1B_2 Ho 0.56964(3) 0.56672(3) 0.25069(2)
Ho1C Ho 0.93036(3) 0.06672(3) 1.24931(2)
Ho1_2 Ho 0.43036(3) 0.43328(3) -0.25069(2)
Ho2B Ho 0.26056(3) 0.55450(4) 1.24852(2)
Ho2C Ho 0.23944(3) 0.05450(4) 0.25148(2)
Ho2B_2 Ho 0.26056(3) 0.55450(4) 0.24852(2)
Ho2B_3 Ho 1.26056(3) 0.55450(4) 1.24852(2)
Ho3A Ho 0.05404(3) 0.68498(3) 0.24750(2)
Ho3C Ho 0.94596(3) 0.31502(3) 0.75250(2)
Ho3_2 Ho 0.44596(3) 0.18498(3) 1.25250(2)
Ho3A_2 Ho 1.05404(3) 0.68498(3) 1.24750(2)
Ho3C_2 Ho -0.05404(3) 0.31502(3) -0.24750(2)
Ho4B Ho 0.22082(3) 0.30713(4) 0.74454(2)
Ho4A Ho 0.72082(3) 0.19287(4) 0.24454(2)
Ho4A_2 Ho 0.72082(3) 0.19287(4) 1.24454(2)
Ho4_2 Ho 0.77918(3) 0.69287(4) 0.25546(2)
Ho4B_2 Ho 0.22082(3) 0.30713(4) -0.25546(2)
O2B O 0.5875(5) 0.4117(5) 1.2561(4)
O3B O 0.2384(5) 0.3983(6) 1.2303(4)
O4A O 0.0911(5) 0.8423(5) 0.2612(3)
O5A O 0.9161(4) 0.6105(5) 1.2521(3)
O5A_2 O -0.0839(4) 0.6105(5) 0.2521(3)
O5C O 0.0839(4) 0.3895(5) 0.7479(3)
O6B O 0.2552(6) 0.1500(7) 0.7565(4)
O8B O 0.4465(5) 0.5130(6) 1.1958(3)
O9B O 0.3128(5) 0.5313(6) 1.1740(4)
O10B O 0.3721(5) 0.4782(5) 0.8193(3)
O11B O 0.2416(5) 0.4389(5) 0.7970(3)
O12B O 0.5114(5) 0.5299(6) 0.3195(3)
O12B_2 O 0.5114(5) 0.5299(6) 1.3195(3)
O13B O 0.3811(5) 0.4900(5) 0.3000(3)
O13B_2 O 0.3811(5) 0.4900(5) 1.3000(3)
O14C O 0.7555(5) 0.3124(5) 0.8006(3)
O14A O 0.2445(5) 0.6876(5) 1.1994(3)
O15C O 0.8854(5) 0.2691(5) 0.8246(3)
O15A O 0.1146(5) 0.7309(5) 0.1754(3)
O16C O 0.7805(5) 0.2343(6) 1.1724(3)
O16B O 0.7195(5) 0.7343(6) 1.3276(3)
O17C O 0.9123(5) 0.1926(5) 1.1948(3)
O17B O 0.5877(5) 0.6926(5) 1.3052(3)
O18B O 1.1286(5) 0.5478(5) 1.1967(3)
O18B_2 O 0.1286(5) 0.5478(5) 1.1967(3)
O19B O 1.0002(5) 0.5862(6) 1.1746(3)
O19C O 0.4998(5) 0.0862(6) 0.3254(3)
O19B_2 O 0.0002(5) 0.5862(6) 0.1746(3)
O20B O 0.7983(5) 0.4924(6) 0.6817(3)
O20_2 O 0.2017(5) 0.5076(6) 1.3183(3)
O21B O 0.9277(5) 0.4469(5) 0.7005(3)
O21A O 0.4277(5) 0.0531(5) 0.2005(3)
O22B O 0.7017(5) 0.5512(6) 0.3068(3)
O22B_2 O 0.7017(5) 0.5512(6) 1.3068(3)
O23B O 0.8295(5) 0.5917(6) 0.3278(3)
O23B_2 O 0.8295(5) 0.5917(6) 1.3278(3)
O24C O 0.0540(4) 0.2363(5) -0.1928(3)
O24A O -0.0540(4) 0.7637(5) 0.1928(3)
O25C O 0.1862(5) 0.2690(6) -0.1740(3)
O25A O 0.8138(5) 0.7310(6) 1.1740(3)
O25C_2 O 0.1862(5) 0.2690(6) 0.8260(3)
O26C O 0.1803(5) 0.1574(6) 0.1822(3)
O26B O 0.3197(5) 0.6574(6) 1.3178(3)
O27C O 0.3118(5) 0.1900(5) 0.2001(3)
O27B O 0.1882(5) 0.6900(5) 1.2999(3)
O27B_2 O 0.1882(5) 0.6900(5) 0.2999(3)
O28_2 O 0.4784(4) 0.2295(6) 0.1730(3)
O28A O 0.0216(4) 0.7295(6) 0.3270(3)
O29_2 O 0.6109(4) 0.2678(5) 0.1914(3)
O29A O 0.8891(4) 0.7678(5) 1.3086(3)
O29C O 0.1109(4) 0.2322(5) 0.6914(3)
O30_2 O 0.3546(5) 0.2987(5) -0.2030(3)
O30B O 0.6454(5) 0.7013(5) 1.2030(3)
O31_2 O 0.4861(5) 0.3237(6) -0.1871(3)
O31B O 0.5139(5) 0.6763(6) 1.1871(3)
C1B C 0.3773(6) 0.5197(8) 1.1612(5)
C2B C 0.3733(7) 0.5064(7) 1.1010(5)
C3B C 0.3058(6) 0.5302(7) 1.0587(5)
H1B H 0.2610 0.5574 1.0679
C4B C 0.3015(6) 0.5149(8) 1.0012(5)
C5B C 0.2343(7) 0.5387(7) 0.9559(5)
H2B H 0.1885 0.5663 0.9633
C6B C 0.2334(7) 0.5230(8) 0.9012(5)
H3B H 0.1863 0.5366 0.8716
C7B C 0.3034(7) 0.4863(7) 0.8894(5)
C8B C 0.3050(7) 0.4678(8) 0.8311(5)
C9B C 0.3697(7) 0.4628(7) 0.9325(5)
H4B H 0.4163 0.4379 0.9244
C10B C 0.3699(6) 0.4750(7) 0.9888(4)
C11B C 0.4392(7) 0.4506(7) 1.0335(5)
H5B H 0.4848 0.4235 1.0254
C12B C 0.4403(6) 0.4658(7) 1.0870(5)
H6B H 0.4869 0.4490 1.1161
C13B C 0.4497(6) 0.5095(7) 0.3339(5)
C14B C 0.4566(6) 0.4998(7) 0.3944(5)
C15B C 0.3932(6) 0.4570(7) 0.4115(4)
H7B H 0.3459 0.4369 0.3842
C16B C 0.4002(6) 0.4446(7) 0.4671(5)
H8B H 0.3584 0.4139 0.4778
C17B C 0.4688(6) 0.4767(7) 0.5090(5)
C18B C 0.5228(6) 0.5323(7) 0.4339(5)
H9B H 0.5643 0.5618 0.4222
C19C C 0.8176(7) 0.2826(8) 0.8349(5)
C20C C 0.8111(7) 0.2621(7) 0.8932(5)
C21C C 0.8757(6) 0.2863(7) 0.9394(5)
H10C H 0.9242 0.3103 0.9337
C22C C 0.8690(7) 0.2752(8) 0.9943(5)
C23C C 0.9341(7) 0.2967(8) 1.0427(5)
H11C H 0.9828 0.3228 1.0387
C24C C 0.9259(7) 0.2794(7) 1.0947(4)
H12C H 0.9704 0.2916 1.1264
C25C C 0.8527(7) 0.2439(8) 1.1029(5)
C26C C 0.8468(7) 0.2230(7) 1.1597(5)
C27C C 0.7881(6) 0.2240(7) 1.0570(5)
H13C H 0.7388 0.2011 1.0621
C28C C 0.7956(7) 0.2380(7) 1.0023(5)
C29C C 0.7310(7) 0.2155(8) 0.9532(5)
H14C H 0.6820 0.1906 0.9577
C30C C 0.7375(6) 0.2283(8) 0.9012(5)
H15C H 0.6929 0.2148 0.8698
C31B C 1.0593(7) 0.5500(7) 1.1631(5)
C32B C 1.0478(7) 0.5184(7) 1.1042(5)
C33B C 1.1105(7) 0.4745(7) 1.0891(5)
H16B H 1.1581 0.4575 1.1173
C34B C 1.1045(7) 0.4556(7) 1.0349(5)
H17B H 1.1484 0.4274 1.0253
C35B C 1.0323(7) 0.4782(7) 0.9923(4)
C36B C 0.9755(7) 0.5394(8) 1.0633(5)
H18B H 0.9316 0.5659 1.0739
C37B C 0.8618(7) 0.4769(7) 0.6682(4)
C38B C 0.8630(7) 0.4925(7) 0.6092(4)
C39B C 0.9333(7) 0.5273(7) 0.5949(5)
H19B H 0.9816 0.5403 0.6236
C40B C 0.9309(6) 0.5418(7) 0.5409(4)
H20B H 0.9775 0.5658 0.5325
C41B C 0.8605(6) 0.5219(7) 0.4964(4)
C42B C 0.8534(6) 0.5405(7) 0.4398(4)
H21B H 0.8984 0.5668 0.4303
C43B C 0.7835(6) 0.5220(7) 0.3975(4)
C44B C 0.7714(7) 0.5548(8) 0.3403(5)
C45B C 0.7181(7) 0.4779(7) 0.4120(4)
H22B H 0.6710 0.4612 0.3832
C46B C 0.7218(6) 0.4594(7) 0.4660(5)
H23B H 0.6772 0.4307 0.4745
C47B C 0.7923(6) 0.4830(7) 0.5103(4)
C48B C 0.7949(7) 0.4712(7) 0.5676(5)
H24B H 0.7485 0.4481 0.5768
C49C C 0.1229(6) 0.2538(7) -0.1593(5)
C50C C 0.1273(6) 0.2519(7) -0.0989(5)
C51C C 0.1979(6) 0.2820(7) -0.0590(4)
H25C H 0.2405 0.3098 -0.0706
C52C C 0.2048(6) 0.2704(7) -0.0015(4)
C53C C 0.2777(6) 0.2962(7) 0.0406(5)
H26C H 0.3196 0.3276 0.0303
C54C C 0.2864(7) 0.2755(7) 0.0951(4)
H27C H 0.3353 0.2908 0.1226
C55C C 0.2227(6) 0.2308(8) 0.1113(5)
C56C C 0.2393(7) 0.1930(7) 0.1688(4)
C57C C 0.1509(6) 0.2115(7) 0.0724(4)
H28C H 0.1080 0.1843 0.0838
C58C C 0.1396(6) 0.2314(7) 0.0155(4)
C59C C 0.0675(6) 0.2059(7) -0.0272(5)
H29C H 0.0224 0.1819 -0.0168
C60C C 0.0627(6) 0.2154(7) -0.0815(5)
H30C H 0.0147 0.1970 -0.1088
C61_2 C 0.5416(7) 0.2463(7) 0.1579(4)
C62_2 C 0.5362(7) 0.2481(7) 0.0969(5)
C63_2 C 0.6013(6) 0.2876(7) 0.0797(5)
H31_2 H 0.6487 0.3083 0.1067
C64_2 C 0.5947(7) 0.2951(7) 0.0240(5)
H32_2 H 0.6384 0.3204 0.0125
C65_2 C 0.5234(6) 0.2655(7) -0.0174(4)
C66_2 C 0.5120(7) 0.2801(7) -0.0748(5)
H33_2 H 0.5551 0.3055 -0.0869
C67_2 C 0.4396(7) 0.2586(7) -0.1142(5)
C68_2 C 0.4257(7) 0.2944(8) -0.1722(5)
C69_2 C 0.3791(7) 0.2123(7) -0.0956(5)
H34_2 H 0.3306 0.1930 -0.1222
C70_2 C 0.3896(7) 0.1959(7) -0.0420(5)
H35_2 H 0.3482 0.1649 -0.0310
C71_2 C 0.4601(6) 0.2228(7) -0.0004(4)
C72_2 C 0.4682(6) 0.2145(7) 0.0576(5)
H36_2 H 0.4266 0.1857 0.0698
O1 O 0.5958(6) 0.2081(11) 0.7441(7)
O7 O 0.0661(11) 0.6098(13) 0.7506(7)
loop_
_geom_bond_atom_site_label_1
_geom_bond_atom_site_label_2
_geom_bond_site_symmetry_1
_geom_bond_site_symmetry_2
Ho1 O2 1_555 1_555
Ho2 O3 1_555 1_555
Ho3 O4 1_555 1_555
Ho4 O6 1_555 1_555
O5 Ho3 1_555 1_555
O8 Ho1 1_555 1_555
O9 Ho2 1_555 1_555
O10 C8 1_555 1_555
O11 Ho4 1_555 1_555
O12 Ho1 1_555 1_555
O13 Ho2 1_555 1_555
O14 C19 1_555 1_555
O15 Ho3 1_555 1_555
O16 C26 1_555 1_555
O17 Ho1 1_555 1_555
O18 Ho2 1_555 1_555
O19 C31 1_555 1_555
O20 C37 1_555 1_555
O21 C37 1_555 1_555
O22 Ho1 1_555 1_555
O23 C44 1_555 1_555
O24 Ho3 1_555 1_555
O25 C49 1_555 1_555
O26 Ho2 1_555 1_555
O27 Ho2 1_555 1_555
O28 C61 1_555 1_555
O29 C61 1_555 1_555
O30 Ho1 1_555 1_555
O31 Ho1 1_555 1_555
C1 O8 1_555 1_555
C2 C1 1_555 1_555
C3 C2 1_555 1_555
H1 C3 1_555 1_555
C4 C3 1_555 1_555
C5 C4 1_555 1_555
H2 C5 1_555 1_555
C6 C5 1_555 1_555
H3 C6 1_555 1_555
C7 C6 1_555 1_555
C8 O11 1_555 1_555
C9 C7 1_555 1_555
H4 C9 1_555 1_555
C10 C4 1_555 1_555
C11 C10 1_555 1_555
H5 C11 1_555 1_555
C12 C2 1_555 1_555
H6 C12 1_555 1_555
C13 O12 1_555 1_555
C14 C13 1_555 1_555
C15 C14 1_555 1_555
H7 C15 1_555 1_555
C16 C15 1_555 1_555
H8 C16 1_555 1_555
C17 C16 1_555 1_555
C18 C14 1_555 1_555
H9 C18 1_555 1_555
C19 O15 1_555 1_555
C20 C19 1_555 1_555
C21 C20 1_555 1_555
H10 C21 1_555 1_555
C22 C21 1_555 1_555
C23 C22 1_555 1_555
H11 C23 1_555 1_555
C24 C23 1_555 1_555
H12 C24 1_555 1_555
C25 C24 1_555 1_555
C26 O17 1_555 1_555
C27 C25 1_555 1_555
H13 C27 1_555 1_555
C28 C22 1_555 1_555
C29 C28 1_555 1_555
H14 C29 1_555 1_555
C30 C20 1_555 1_555
H15 C30 1_555 1_555
C31 O18 1_555 1_555
C32 C31 1_555 1_555
C33 C32 1_555 1_555
H16 C33 1_555 1_555
C34 C33 1_555 1_555
H17 C34 1_555 1_555
C35 C34 1_555 1_555
C36 C32 1_555 1_555
H18 C36 1_555 1_555
C37 C38 1_555 1_555
C38 C39 1_555 1_555
C39 H19 1_555 1_555
C40 C39 1_555 1_555
H20 C40 1_555 1_555
C41 C40 1_555 1_555
C42 C41 1_555 1_555
H21 C42 1_555 1_555
C43 C42 1_555 1_555
C44 O22 1_555 1_555
C45 C43 1_555 1_555
H22 C45 1_555 1_555
C46 C45 1_555 1_555
H23 C46 1_555 1_555
C47 C41 1_555 1_555
C48 C38 1_555 1_555
H24 C48 1_555 1_555
C49 O24 1_555 1_555
C50 C49 1_555 1_555
C51 C50 1_555 1_555
H25 C51 1_555 1_555
C52 C51 1_555 1_555
C53 C52 1_555 1_555
H26 C53 1_555 1_555
C54 C53 1_555 1_555
H27 C54 1_555 1_555
C55 C54 1_555 1_555
C56 O26 1_555 1_555
C57 C55 1_555 1_555
H28 C57 1_555 1_555
C58 C52 1_555 1_555
C59 C58 1_555 1_555
H29 C59 1_555 1_555
C60 C50 1_555 1_555
H30 C60 1_555 1_555
C61 C62 1_555 1_555
C62 C63 1_555 1_555
C63 H31 1_555 1_555
C64 C63 1_555 1_555
H32 C64 1_555 1_555
C65 C64 1_555 1_555
C66 C65 1_555 1_555
H33 C66 1_555 1_555
C67 C66 1_555 1_555
C68 O30 1_555 1_555
C69 C67 1_555 1_555
H34 C69 1_555 1_555
C70 C69 1_555 1_555
H35 C70 1_555 1_555
C71 C65 1_555 1_555
C72 C62 1_555 1_555
H36 C72 1_555 1_555
Ho1B O10 1_555 1_555
Ho1B_2 O12B 1_555 1_555
Ho1C O17C 1_555 1_555
Ho1_2 O30_2 1_555 1_555
Ho2B O3B 1_555 1_555
Ho2C O14 1_555 1_555
Ho2B_2 O20 1_555 1_555
Ho2B_3 O18B 1_555 1_555
Ho3A O21 1_555 1_555
Ho3C O19 1_555 1_555
Ho3_2 O28 1_555 1_555
Ho3A_2 O5A 1_555 1_555
Ho3C_2 O24C 1_555 1_555
Ho4B O16 1_555 1_555
Ho4A O5 1_555 1_555
Ho4A_2 O29 1_555 1_555
Ho4_2 O23B 1_555 1_555
Ho4B_2 O25C 1_555 1_555
O2B Ho1B 1_555 1_555
O4A Ho3A 1_555 1_555
O5A Ho4 1_555 1_555
O5A_2 Ho3A 1_555 1_555
O5C Ho4B 1_555 1_555
O6B Ho4B 1_555 1_555
O8B Ho1B 1_555 1_555
O9B Ho2B 1_555 1_555
O10B Ho1 1_555 1_555
O11B Ho4B 1_555 1_555
O12B C13B 1_555 1_555
O12B_2 Ho1B 1_555 1_555
O13B Ho2B_2 1_555 1_555
O13B_2 Ho2B 1_555 1_555
O14C Ho2 1_555 1_555
O14A Ho2B 1_555 1_555
O15C Ho3C 1_555 1_555
O15A Ho3A 1_555 1_555
O16C Ho4A_2 1_555 1_555
O16B Ho4 1_555 1_555
O17C C26C 1_555 1_555
O17B Ho1B 1_555 1_555
O18B C31B 1_555 1_555
O18B_2 Ho2B 1_555 1_555
O19B Ho3A_2 1_555 1_555
O19C Ho3 1_555 1_555
O19B_2 Ho3A 1_555 1_555
O20B Ho2 1_555 1_555
O20_2 Ho2B 1_555 1_555
O21B Ho3C 1_555 1_555
O21A Ho3 1_555 1_555
O22B Ho1B_2 1_555 1_555
O22B_2 Ho1B 1_555 1_555
O23B C44B 1_555 1_555
O23B_2 Ho4 1_555 1_555
O24C C49C 1_555 1_555
O24A Ho3A 1_555 1_555
O25C C49C 1_555 1_555
O25A Ho4 1_555 1_555
O25C_2 Ho4B 1_555 1_555
O26C Ho2C 1_555 1_555
O26B Ho2B 1_555 1_555
O27C Ho3 1_555 1_555
O27B Ho2B 1_555 1_555
O27B_2 Ho2B_2 1_555 1_555
O28_2 Ho3 1_555 1_555
O28A Ho3A 1_555 1_555
O29_2 Ho4A 1_555 1_555
O29A Ho4 1_555 1_555
O29C Ho4B 1_555 1_555
O30_2 Ho4B_2 1_555 1_555
O30B Ho4 1_555 1_555
O31_2 Ho1_2 1_555 1_555
O31B Ho1B 1_555 1_555
C1B O8B 1_555 1_555
C2B C1B 1_555 1_555
C3B C2B 1_555 1_555
H1B C3B 1_555 1_555
C4B C3B 1_555 1_555
C5B C4B 1_555 1_555
H2B C5B 1_555 1_555
C6B C5B 1_555 1_555
H3B C6B 1_555 1_555
C7B C6B 1_555 1_555
C8B O10B 1_555 1_555
C9B C7B 1_555 1_555
H4B C9B 1_555 1_555
C10B C4B 1_555 1_555
C11B C10B 1_555 1_555
H5B C11B 1_555 1_555
C12B C2B 1_555 1_555
H6B C12B 1_555 1_555
C13B O13B 1_555 1_555
C14B C13B 1_555 1_555
C15B C14B 1_555 1_555
H7B C15B 1_555 1_555
C16B C15B 1_555 1_555
H8B C16B 1_555 1_555
C17B C17 1_555 1_555
C18B C17 1_555 1_555
H9B C18B 1_555 1_555
C19C O14C 1_555 1_555
C20C C19C 1_555 1_555
C21C C20C 1_555 1_555
H10C C21C 1_555 1_555
C22C C21C 1_555 1_555
C23C C22C 1_555 1_555
H11C C23C 1_555 1_555
C24C C23C 1_555 1_555
H12C C24C 1_555 1_555
C25C C24C 1_555 1_555
C26C O16C 1_555 1_555
C27C C25C 1_555 1_555
H13C C27C 1_555 1_555
C28C C22C 1_555 1_555
C29C C28C 1_555 1_555
H14C C29C 1_555 1_555
C30C C20C 1_555 1_555
H15C C30C 1_555 1_555
C31B O19B 1_555 1_555
C32B C31B 1_555 1_555
C33B C32B 1_555 1_555
H16B C33B 1_555 1_555
C34B C33B 1_555 1_555
H17B C34B 1_555 1_555
C35B C35 1_555 1_555
C36B C35 1_555 1_555
H18B C36B 1_555 1_555
C37B O20B 1_555 1_555
C38B C37B 1_555 1_555
C39B C38B 1_555 1_555
H19B C39B 1_555 1_555
C40B C39B 1_555 1_555
H20B C40B 1_555 1_555
C41B C40B 1_555 1_555
C42B C41B 1_555 1_555
H21B C42B 1_555 1_555
C43B C42B 1_555 1_555
C44B O22B 1_555 1_555
C45B C43B 1_555 1_555
H22B C45B 1_555 1_555
C46B C45B 1_555 1_555
H23B C46B 1_555 1_555
C47B C41B 1_555 1_555
C48B C38B 1_555 1_555
H24B C48B 1_555 1_555
C49C C50C 1_555 1_555
C50C C51C 1_555 1_555
C51C H25C 1_555 1_555
C52C C51C 1_555 1_555
C53C C52C 1_555 1_555
H26C C53C 1_555 1_555
C54C C53C 1_555 1_555
H27C C54C 1_555 1_555
C55C C54C 1_555 1_555
C56C O26C 1_555 1_555
C57C C55C 1_555 1_555
H28C C57C 1_555 1_555
C58C C52C 1_555 1_555
C59C C58C 1_555 1_555
H29C C59C 1_555 1_555
C60C C50C 1_555 1_555
H30C C60C 1_555 1_555
C61_2 O28_2 1_555 1_555
C62_2 C61_2 1_555 1_555
C63_2 C62_2 1_555 1_555
H31_2 C63_2 1_555 1_555
C64_2 C63_2 1_555 1_555
H32_2 C64_2 1_555 1_555
C65_2 C64_2 1_555 1_555
C66_2 C65_2 1_555 1_555
H33_2 C66_2 1_555 1_555
C67_2 C66_2 1_555 1_555
C68_2 O30_2 1_555 1_555
C69_2 C67_2 1_555 1_555
H34_2 C69_2 1_555 1_555
C70_2 C69_2 1_555 1_555
H35_2 C70_2 1_555 1_555
C71_2 C65_2 1_555 1_555
C72_2 C62_2 1_555 1_555
H36_2 C72_2 1_555 1_555
O9 C1 1_555 1_555
O13 C13 1_555 1_555
O23 Ho4B 1_555 1_555
O25 Ho4A 1_555 1_555
O27 C56 1_555 1_555
O27 Ho3C 1_555 1_555
O30 Ho4B 1_555 1_555
O31 C68 1_555 1_555
C7 C8 1_555 1_555
C9 C10 1_555 1_555
C11 C12 1_555 1_555
C18 C17B 1_555 1_555
C25 C26 1_555 1_555
C27 C28 1_555 1_555
C29 C30 1_555 1_555
C36 C35B 1_555 1_555
C43 C44 1_555 1_555
C46 C47 1_555 1_555
C47 C48 1_555 1_555
C55 C56 1_555 1_555
C57 C58 1_555 1_555
C59 C60 1_555 1_555
C67 C68 1_555 1_555
C70 C71 1_555 1_555
C71 C72 1_555 1_555
Ho1B O30B 1_555 1_555
Ho2C O27C 1_555 1_555
Ho3A O27B_2 1_555 1_555
O9B C1B 1_555 1_555
O11B C8B 1_555 1_555
O15C C19C 1_555 1_555
O21B C37B 1_555 1_555
O27C C56C 1_555 1_555
O29_2 C61_2 1_555 1_555
O31_2 C68_2 1_555 1_555
C7B C8B 1_555 1_555
C9B C10B 1_555 1_555
C11B C12B 1_555 1_555
C14B C18B 1_555 1_555
C16B C17B 1_555 1_555
C25C C26C 1_555 1_555
C27C C28C 1_555 1_555
C29C C30C 1_555 1_555
C32B C36B 1_555 1_555
C34B C35B 1_555 1_555
C43B C44B 1_555 1_555
C46B C47B 1_555 1_555
C47B C48B 1_555 1_555
C55C C56C 1_555 1_555
C57C C58C 1_555 1_555
C59C C60C 1_555 1_555
C67_2 C68_2 1_555 1_555
C70_2 C71_2 1_555 1_555
C71_2 C72_2 1_555 1_555

#END
