
#######################################################################
#
#                 Cambridge Crystallographic Data Centre
#                                CCDC 
#
#######################################################################
#
# If this CIF has been generated from an entry in the Cambridge 
# Structural Database, then it will include bibliographic, chemical, 
# crystal, experimental, refinement or atomic coordinate data resulting 
# from the CCDC's data processing and validation procedures.
#
#######################################################################

data_GISMEC
_symmetry_cell_setting           monoclinic
_symmetry_space_group_name_H-M   'P 21/c'
_symmetry_Int_Tables_number      14
_space_group_name_Hall           '-P 2ybc'
loop_
_symmetry_equiv_pos_site_id
_symmetry_equiv_pos_as_xyz
1 x,y,z
2 -x,1/2+y,1/2-z
3 -x,-y,-z
4 x,1/2-y,1/2+z
_cell_length_a                   7.6480(4)
_cell_length_b                   13.3499(6)
_cell_length_c                   12.0963(4)
_cell_angle_alpha                90
_cell_angle_beta                 132.333(2)
_cell_angle_gamma                90
_cell_volume                     912.99
loop_
_atom_site_label
_atom_site_type_symbol
_atom_site_fract_x
_atom_site_fract_y
_atom_site_fract_z
Ag1 Ag 0.24502(3) 0.465384(14) 0.620944(19)
O1 O 0.1124(3) 0.64378(12) 0.4956(2)
O2 O 0.2119(4) 0.73243(13) 0.3897(2)
O3 O 0.4452(3) 0.68844(13) 0.2675(2)
O4 O 0.0521(3) 0.69961(13) 0.08779(19)
H1 H 0.0831 0.7505 0.0628
N1 N 0.2004(4) 0.47050(13) 0.4182(2)
N2 N 0.3985(4) 0.48626(16) 0.8534(2)
C1 C 0.1973(4) 0.55852(17) 0.3631(2)
C2 C 0.2134(4) 0.56357(17) 0.2557(2)
C3 C 0.2191(4) 0.47401(16) 0.1982(3)
H2 H 0.2236 0.4751 0.1216
C4 C 0.2183(4) 0.38405(17) 0.2539(3)
H3 H 0.2222 0.3224 0.2165
C5 C 0.2115(4) 0.38542(18) 0.3653(3)
H4 H 0.2149 0.3236 0.4056
C6 C 0.1743(4) 0.65388(16) 0.4210(2)
C7 C 0.2485(4) 0.65964(17) 0.2065(3)
C8 C 0.4262(5) 0.57725(19) 0.9088(3)
H5 H 0.3752 0.6341 0.8464
C9 C 0.4735(5) 0.40916(19) 0.9462(3)
H6 H 0.4571 0.3431 0.9110
N2B N 0.6015(4) 0.51374(16) 1.1466(2)
C8B C 0.5738(5) 0.42275(19) 1.0912(3)
H5B H 0.6248 0.3659 1.1536
C9B C 0.5265(5) 0.59084(19) 1.0538(3)
H6B H 0.5429 0.6569 1.0890
Ag1B Ag -0.24502(3) 0.534616(14) 0.379056(19)
O1B O -0.1124(3) 0.35622(12) 0.5044(2)
O2B O -0.2119(4) 0.26757(13) 0.6103(2)
O3B O -0.4452(3) 0.31156(13) 0.7325(2)
O4B O -0.0521(3) 0.30039(13) 0.91221(19)
H1B H -0.0831 0.2495 0.9372
N1B N -0.2004(4) 0.52950(13) 0.5818(2)
C1B C -0.1973(4) 0.44148(17) 0.6369(2)
C2B C -0.2134(4) 0.43643(17) 0.7443(2)
C3B C -0.2191(4) 0.52599(16) 0.8018(3)
H2B H -0.2236 0.5249 0.8784
C4B C -0.2183(4) 0.61595(17) 0.7461(3)
H3B H -0.2222 0.6776 0.7835
C5B C -0.2115(4) 0.61458(18) 0.6347(3)
H4B H -0.2149 0.6764 0.5944
C6B C -0.1743(4) 0.34612(16) 0.5790(2)
C7B C -0.2485(4) 0.34036(17) 0.7935(3)
Ag1_2 Ag -0.75498(3) 0.465384(14) 0.620944(19)
Ag1B_2 Ag 0.75498(3) 0.534616(14) 0.379056(19)
Ag1B_3 Ag 0.75498(3) 0.534616(14) 1.379056(19)
O3_2 O -0.5548(3) 0.68844(13) 0.2675(2)
O3B_2 O 0.5548(3) 0.31156(13) 0.7325(2)
N2B_2 N -0.3985(4) 0.51374(16) 0.1466(2)
loop_
_geom_bond_atom_site_label_1
_geom_bond_atom_site_label_2
_geom_bond_site_symmetry_1
_geom_bond_site_symmetry_2
Ag1 O1 1_555 1_555
O1 C6 1_555 1_555
O2 C6 1_555 1_555
O3 C7 1_555 1_555
O4 H1 1_555 1_555
N1 Ag1 1_555 1_555
N2 Ag1 1_555 1_555
C1 N1 1_555 1_555
C2 C1 1_555 1_555
C3 C2 1_555 1_555
H2 C3 1_555 1_555
C4 C3 1_555 1_555
H3 C4 1_555 1_555
C5 N1 1_555 1_555
H4 C5 1_555 1_555
C6 C1 1_555 1_555
C7 O4 1_555 1_555
C8 N2 1_555 1_555
H5 C8 1_555 1_555
C9 N2 1_555 1_555
H6 C9 1_555 1_555
N2B C8B 1_555 1_555
C8B C9 1_555 1_555
H5B C8B 1_555 1_555
C9B C8 1_555 1_555
H6B C9B 1_555 1_555
Ag1B O1 1_555 1_555
O1B Ag1 1_555 1_555
O2B C6B 1_555 1_555
O3B C7B 1_555 1_555
O4B H1B 1_555 1_555
N1B Ag1B 1_555 1_555
C1B N1B 1_555 1_555
C2B C1B 1_555 1_555
C3B C2B 1_555 1_555
H2B C3B 1_555 1_555
C4B C3B 1_555 1_555
H3B C4B 1_555 1_555
C5B N1B 1_555 1_555
H4B C5B 1_555 1_555
C6B O1B 1_555 1_555
C7B O4B 1_555 1_555
Ag1_2 O3B 1_555 1_555
Ag1B_2 O3 1_555 1_555
Ag1B_3 N2B 1_555 1_555
O3_2 Ag1B 1_555 1_555
O3B_2 Ag1 1_555 1_555
N2B_2 Ag1B 1_555 1_555
C2 C7 1_555 1_555
C4 C5 1_555 1_555
N2B C9B 1_555 1_555
Ag1B O1B 1_555 1_555
C1B C6B 1_555 1_555
C2B C7B 1_555 1_555
C4B C5B 1_555 1_555

#END
