
#######################################################################
#
#                 Cambridge Crystallographic Data Centre
#                                CCDC 
#
#######################################################################
#
# If this CIF has been generated from an entry in the Cambridge 
# Structural Database, then it will include bibliographic, chemical, 
# crystal, experimental, refinement or atomic coordinate data resulting 
# from the CCDC's data processing and validation procedures.
#
#######################################################################

data_GISQEG
_symmetry_cell_setting           triclinic
_symmetry_space_group_name_H-M   'P -1'
_symmetry_Int_Tables_number      2
_space_group_name_Hall           '-P 1'
loop_
_symmetry_equiv_pos_site_id
_symmetry_equiv_pos_as_xyz
1 x,y,z
2 -x,-y,-z
_cell_length_a                   11.0152(5)
_cell_length_b                   11.7744(5)
_cell_length_c                   12.4173(6)
_cell_angle_alpha                70.921(1)
_cell_angle_beta                 86.690(1)
_cell_angle_gamma                89.694(1)
_cell_volume                     1519.33
loop_
_atom_site_label
_atom_site_type_symbol
_atom_site_fract_x
_atom_site_fract_y
_atom_site_fract_z
Mo1 Mo 1.20276(2) 0.24232(2) 0.33736(2)
Mo2 Mo 1.14771(2) -0.05934(2) 0.48083(2)
Mo3 Mo 0.91894(2) -0.17615(2) 0.40139(2)
O1 O 1.11878(19) 0.37423(19) 0.29581(18)
O2 O 0.9979(2) -0.3059(2) 0.4316(2)
O3 O 1.13677(19) 0.17406(19) 0.23349(17)
O4 O 1.06095(18) -0.06361(19) 0.35037(17)
O5 O 1.26179(19) 0.04684(19) 0.40805(18)
O6 O 1.15033(18) -0.02187(19) 0.62289(17)
O7 O 1.2178(2) -0.1929(2) 0.5177(2)
O8 O 1.3453(2) 0.2836(2) 0.2812(2)
O9 O 1.21889(19) 0.22555(19) 0.49249(18)
O10 O 0.97059(18) -0.11974(18) 0.55980(17)
O11 O 0.8539(2) -0.1652(2) 0.27852(19)
Cu1 Cu 0.5000 0.5000 0.5000
Cu2 Cu 0.5000 1.0000 0.5000
Cu3 Cu 1.01723(3) 0.47526(3) 0.17074(3)
N1 N 0.8734(2) 0.4856(2) 0.2778(2)
N2 N 0.8818(2) 0.5129(2) 0.0596(2)
N3 N 0.5151(2) 0.6749(2) 0.4546(2)
N4 N 0.8604(2) 0.5285(2) -0.0490(2)
N5 N 0.5738(2) 1.0611(2) 0.3361(2)
N6 N 0.5110(2) 0.8472(2) 0.4720(2)
N7 N 0.4834(2) 0.7326(2) 0.5262(2)
C1 C 0.7647(3) 0.5031(3) 0.2307(3)
N8 N 0.6849(3) 0.5321(3) 0.0373(2)
N9 N 0.7421(3) 0.5391(3) -0.0631(2)
C2 C 0.5605(3) 0.8547(3) 0.3682(3)
N10 N 0.5643(2) 0.7481(2) 0.3540(2)
C3 C 0.7725(3) 0.5164(3) 0.1098(3)
C4 C 0.5979(3) 0.9731(3) 0.2917(3)
C5 C 0.5994(3) 1.1734(3) 0.2692(3)
H1 H 0.5850 1.2369 0.2970
N11 N 0.6741(3) 1.1097(3) 0.1141(2)
C6 C 0.6497(3) 0.9984(3) 0.1817(3)
H2 H 0.6679 0.9350 0.1546
C7 C 0.6474(3) 1.1959(3) 0.1586(3)
H3 H 0.6618 1.2753 0.1132
C8 C 0.8751(3) 0.4765(3) 0.3865(3)
H4 H 0.9489 0.4670 0.4209
N12 N 0.6609(2) 0.4963(2) 0.4050(2)
C9 C 0.7681(3) 0.4807(3) 0.4506(3)
H5 H 0.7720 0.4724 0.5274
C10 C 0.6591(3) 0.5091(3) 0.2934(3)
H6 H 0.5856 0.5221 0.2582
Cu4 Cu 1.0000 1.0000 0.0000
N13 N 1.0416(2) 0.8382(2) 0.0929(2)
N14 N 1.1719(2) 1.0341(2) 0.0429(2)
N15 N 0.9964(3) 0.7287(3) 0.1157(3)
N16 N 1.0794(3) 0.6526(3) 0.1694(3)
N17 N 1.1791(3) 0.7115(3) 0.1820(3)
C11 C 1.1528(3) 0.8264(3) 0.1335(3)
C12 C 1.2228(3) 0.9361(3) 0.1137(3)
C13 C 1.2296(3) 1.1385(3) 0.0203(3)
H7 H 1.1960 1.2079 -0.0279
N18 N 1.3893(3) 1.0509(3) 0.1383(4)
C14 C 1.3383(3) 1.1462(4) 0.0668(4)
H8 H 1.3774 1.2206 0.0475
C15 C 1.3310(4) 0.9465(4) 0.1613(4)
H9 H 1.3641 0.8778 0.2111
O12 O 0.6250(3) 0.4721(3) 0.6831(3)
O13 O 0.9012(2) 0.2591(2) 0.2319(2)
O14 O 1.0534(2) 0.9267(2) -0.15290(18)
Mo4 Mo 1.02905(2) -0.12346(2) 0.73617(2)
Mo1A Mo -0.20276(2) 0.75768(2) 0.66264(2)
Mo2A Mo -0.14771(2) 1.05934(2) 0.51917(2)
Mo3A Mo 0.08106(2) 1.17615(2) 0.59861(2)
O1A O -0.11878(19) 0.62577(19) 0.70419(18)
O2A O 0.0021(2) 1.3059(2) 0.5684(2)
O3A O -0.13677(19) 0.82594(19) 0.76651(17)
O4A O -0.06095(18) 1.06361(19) 0.64963(17)
O5A O -0.26179(19) 0.95316(19) 0.59195(18)
O6A O -0.15033(18) 1.02187(19) 0.37711(17)
O7A O -0.2178(2) 1.1929(2) 0.4823(2)
O8A O -0.3453(2) 0.7164(2) 0.7188(2)
O9A O -0.21889(19) 0.77445(19) 0.50751(18)
O10A O 0.02941(18) 1.11974(18) 0.44020(17)
O11A O 0.1461(2) 1.1652(2) 0.72148(19)
Cu3A Cu -0.01723(3) 0.52474(3) 0.82926(3)
N1A N 0.1266(2) 0.5144(2) 0.7222(2)
N2A N 0.1182(2) 0.4871(2) 0.9404(2)
N3A N 0.4849(2) 0.3251(2) 0.5454(2)
N4A N 0.1396(2) 0.4715(2) 1.0490(2)
N5A N 0.4262(2) -0.0611(2) 0.6639(2)
N6A N 0.4890(2) 0.1528(2) 0.5280(2)
N7A N 0.5166(2) 0.2674(2) 0.4738(2)
C1A C 0.2353(3) 0.4969(3) 0.7693(3)
N8A N 0.3151(3) 0.4679(3) 0.9627(2)
N9A N 0.2579(3) 0.4609(3) 1.0631(2)
C2A C 0.4395(3) 0.1453(3) 0.6318(3)
N10A N 0.4357(2) 0.2519(2) 0.6460(2)
C3A C 0.2275(3) 0.4836(3) 0.8902(3)
C4A C 0.4021(3) 0.0269(3) 0.7083(3)
C5A C 0.4006(3) -0.1734(3) 0.7308(3)
H1A H 0.4150 -0.2369 0.7030
N11A N 0.3259(3) -0.1097(3) 0.8859(2)
C6A C 0.3503(3) 0.0016(3) 0.8183(3)
H2A H 0.3321 0.0650 0.8454
C7A C 0.3526(3) -0.1959(3) 0.8414(3)
H3A H 0.3382 -0.2753 0.8868
C8A C 0.1249(3) 0.5235(3) 0.6135(3)
H4A H 0.0511 0.5330 0.5791
N12A N 0.3391(2) 0.5037(2) 0.5950(2)
C9A C 0.2319(3) 0.5193(3) 0.5494(3)
H5A H 0.2280 0.5276 0.4726
C10A C 0.3409(3) 0.4909(3) 0.7066(3)
H6A H 0.4144 0.4779 0.7418
N13A N -0.0416(2) 0.1618(2) 0.9071(2)
N14A N -0.1719(2) -0.0341(2) 0.9571(2)
N15A N 0.0036(3) 0.2713(3) 0.8843(3)
N16A N -0.0794(3) 0.3474(3) 0.8306(3)
N17A N -0.1791(3) 0.2885(3) 0.8180(3)
C11A C -0.1528(3) 0.1736(3) 0.8665(3)
C12A C -0.2228(3) 0.0639(3) 0.8863(3)
C13A C -0.2296(3) -0.1385(3) 0.9797(3)
H7A H -0.1960 -0.2079 1.0279
N18A N -0.3893(3) -0.0509(3) 0.8617(4)
C14A C -0.3383(3) -0.1462(4) 0.9332(4)
H8A H -0.3774 -0.2206 0.9525
C15A C -0.3310(4) 0.0535(4) 0.8387(4)
H9A H -0.3641 0.1222 0.7889
O12A O 0.3750(3) 0.5279(3) 0.3169(3)
O13A O 0.0988(2) 0.7409(2) 0.7681(2)
Mo4A Mo -0.02905(2) 1.12346(2) 0.26383(2)
O14A O 0.9466(2) 1.0733(2) 0.15290(18)
Mo1_2 Mo 0.20276(2) 1.24232(2) 0.33736(2)
Mo1A_2 Mo 0.79724(2) -0.24232(2) 0.66264(2)
Mo2_2 Mo 0.14771(2) 0.94066(2) 0.48083(2)
Mo2A_2 Mo 0.85229(2) 0.05934(2) 0.51917(2)
Mo3_2 Mo -0.08106(2) 0.82385(2) 0.40139(2)
Mo3A_2 Mo 1.08106(2) 0.17615(2) 0.59861(2)
O3_2 O 0.13677(19) 1.17406(19) 0.23349(17)
O3A_2 O 0.86323(19) -0.17406(19) 0.76651(17)
O4_2 O 0.06095(18) 0.93639(19) 0.35037(17)
O4A_2 O 0.93905(18) 0.06361(19) 0.64963(17)
O6_2 O 0.15033(18) 0.97813(19) 0.62289(17)
O6A_2 O 0.84967(18) 0.02187(19) 0.37711(17)
O9_2 O 0.21889(19) 1.22555(19) 0.49249(18)
O9A_2 O 0.78111(19) -0.22555(19) 0.50751(18)
O10_2 O -0.02941(18) 0.88026(18) 0.55980(17)
O10A_2 O 1.02941(18) 0.11974(18) 0.44020(17)
Cu2_2 Cu 0.5000 0.0000 0.5000
Cu3_2 Cu 0.01723(3) 0.47526(3) 1.17074(3)
Cu3A_2 Cu 0.98277(3) 0.52474(3) -0.17074(3)
N4_2 N -0.1396(2) 0.5285(2) 0.9510(2)
N4A_2 N 1.1396(2) 0.4715(2) 0.0490(2)
N5A_2 N 0.4262(2) 0.9389(2) 0.6639(2)
N6A_2 N 0.4890(2) 1.1528(2) 0.5280(2)
Cu4_2 Cu 0.0000 0.0000 1.0000
N13A_2 N 0.9584(2) 1.1618(2) -0.0929(2)
N14A_2 N 0.8281(2) 0.9659(2) -0.0429(2)
O13_2 O -0.0988(2) 1.2591(2) 0.2319(2)
O13A_2 O 1.0988(2) -0.2591(2) 0.7681(2)
O14_2 O 1.0534(2) -0.0733(2) 0.84710(18)
O14A_2 O -0.0534(2) 1.0733(2) 0.15290(18)
Mo4_2 Mo 0.02905(2) 0.87654(2) 0.73617(2)
Mo4_3 Mo 1.02905(2) 0.87654(2) -0.26383(2)
Mo4A_2 Mo 0.97095(2) 0.12346(2) 0.26383(2)
Mo4A_3 Mo 0.97095(2) 1.12346(2) 0.26383(2)
loop_
_geom_bond_atom_site_label_1
_geom_bond_atom_site_label_2
_geom_bond_site_symmetry_1
_geom_bond_site_symmetry_2
Mo1 O1 1_555 1_555
Mo2 O4 1_555 1_555
Mo3 O2 1_555 1_555
O1 Cu3 1_555 1_555
O3 Mo1 1_555 1_555
O4 Mo3 1_555 1_555
O5 Mo1 1_555 1_555
O6 Mo2 1_555 1_555
O7 Mo2 1_555 1_555
O8 Mo1 1_555 1_555
O9 Mo1 1_555 1_555
O10 Mo2 1_555 1_555
O11 Mo3 1_555 1_555
Cu1 N3 1_555 1_555
Cu2 N5 1_555 1_555
Cu3 N1 1_555 1_555
N1 C1 1_555 1_555
N2 Cu3 1_555 1_555
N3 N7 1_555 1_555
N4 N2 1_555 1_555
N5 C4 1_555 1_555
N6 Cu2 1_555 1_555
N7 N6 1_555 1_555
C1 C3 1_555 1_555
N8 N9 1_555 1_555
N9 N4 1_555 1_555
C2 N6 1_555 1_555
N10 N3 1_555 1_555
C3 N2 1_555 1_555
C4 C2 1_555 1_555
C5 N5 1_555 1_555
H1 C5 1_555 1_555
N11 C6 1_555 1_555
C6 C4 1_555 1_555
H2 C6 1_555 1_555
C7 C5 1_555 1_555
H3 C7 1_555 1_555
C8 N1 1_555 1_555
H4 C8 1_555 1_555
N12 Cu1 1_555 1_555
C9 C8 1_555 1_555
H5 C9 1_555 1_555
C10 C1 1_555 1_555
H6 C10 1_555 1_555
Cu4 N13 1_555 1_555
N13 N15 1_555 1_555
N14 Cu4 1_555 1_555
N15 N16 1_555 1_555
N16 Cu3 1_555 1_555
N17 N16 1_555 1_555
C11 N13 1_555 1_555
C12 N14 1_555 1_555
C13 N14 1_555 1_555
H7 C13 1_555 1_555
N18 C14 1_555 1_555
C14 C13 1_555 1_555
H8 C14 1_555 1_555
C15 C12 1_555 1_555
H9 C15 1_555 1_555
O12 Cu1 1_555 1_555
O13 Cu3 1_555 1_555
O14 Cu4 1_555 1_555
Mo4 O6 1_555 1_555
Mo1A O1A 1_555 1_555
Mo2A O4A 1_555 1_555
Mo3A O2A 1_555 1_555
O1A Cu3A 1_555 1_555
O3A Mo1A 1_555 1_555
O4A Mo3A 1_555 1_555
O5A Mo1A 1_555 1_555
O6A Mo2A 1_555 1_555
O7A Mo2A 1_555 1_555
O8A Mo1A 1_555 1_555
O9A Mo1A 1_555 1_555
O10A Mo2A 1_555 1_555
O11A Mo3A 1_555 1_555
Cu3A N1A 1_555 1_555
N1A C1A 1_555 1_555
N2A Cu3A 1_555 1_555
N3A Cu1 1_555 1_555
N4A N2A 1_555 1_555
N5A C4A 1_555 1_555
N6A N7A 1_555 1_555
N7A N3A 1_555 1_555
C1A C3A 1_555 1_555
N8A N9A 1_555 1_555
N9A N4A 1_555 1_555
C2A N6A 1_555 1_555
N10A N3A 1_555 1_555
C3A N2A 1_555 1_555
C4A C2A 1_555 1_555
C5A N5A 1_555 1_555
H1A C5A 1_555 1_555
N11A C6A 1_555 1_555
C6A C4A 1_555 1_555
H2A C6A 1_555 1_555
C7A C5A 1_555 1_555
H3A C7A 1_555 1_555
C8A N1A 1_555 1_555
H4A C8A 1_555 1_555
N12A Cu1 1_555 1_555
C9A C8A 1_555 1_555
H5A C9A 1_555 1_555
C10A C1A 1_555 1_555
H6A C10A 1_555 1_555
N13A N15A 1_555 1_555
N14A C12A 1_555 1_555
N15A N16A 1_555 1_555
N16A Cu3A 1_555 1_555
N17A N16A 1_555 1_555
C11A N13A 1_555 1_555
C12A C11A 1_555 1_555
C13A N14A 1_555 1_555
H7A C13A 1_555 1_555
N18A C14A 1_555 1_555
C14A C13A 1_555 1_555
H8A C14A 1_555 1_555
C15A C12A 1_555 1_555
H9A C15A 1_555 1_555
O12A Cu1 1_555 1_555
O13A Cu3A 1_555 1_555
Mo4A O6A 1_555 1_555
O14A Cu4 1_555 1_555
Mo1_2 O10A 1_555 1_555
Mo1A_2 O10 1_555 1_555
Mo2_2 O10A 1_555 1_555
Mo2A_2 O10 1_555 1_555
Mo3_2 O6A 1_555 1_555
Mo3A_2 O6 1_555 1_555
O3_2 Mo4A 1_555 1_555
O3A_2 Mo4 1_555 1_555
O4_2 Mo4A 1_555 1_555
O4A_2 Mo4 1_555 1_555
O6_2 Mo3A 1_555 1_555
O6A_2 Mo3 1_555 1_555
O9_2 Mo3A 1_555 1_555
O9A_2 Mo3 1_555 1_555
O10_2 Mo1A 1_555 1_555
O10A_2 Mo1 1_555 1_555
Cu2_2 N5A 1_555 1_555
Cu3_2 N4A 1_555 1_555
Cu3A_2 N4 1_555 1_555
N4_2 Cu3A 1_555 1_555
N4A_2 Cu3 1_555 1_555
N5A_2 Cu2 1_555 1_555
N6A_2 Cu2 1_555 1_555
Cu4_2 N13A 1_555 1_555
N13A_2 Cu4 1_555 1_555
N14A_2 Cu4 1_555 1_555
O13_2 Mo4A 1_555 1_555
O13A_2 Mo4 1_555 1_555
O14_2 Mo4 1_555 1_555
O14A_2 Mo4A 1_555 1_555
Mo4_2 O3A 1_555 1_555
Mo4_3 O14 1_555 1_555
Mo4A_2 O3 1_555 1_555
Mo4A_3 O14A 1_555 1_555
Mo2 O5 1_555 1_555
Mo2 O10A_2 1_555 1_555
Mo3 O10 1_555 1_555
O4 Mo4A_2 1_555 1_555
O9 Mo3A_2 1_555 1_555
O10 Mo4 1_555 1_555
N8 C3 1_555 1_555
C2 N10 1_555 1_555
N11 C7 1_555 1_555
N12 C9 1_555 1_555
N12 C10 1_555 1_555
N17 C11 1_555 1_555
C11 C12 1_555 1_555
N18 C15 1_555 1_555
O13 Mo4A_2 1_555 1_555
Mo2A O5A 1_555 1_555
Mo2A O10_2 1_555 1_555
Mo3A O10A 1_555 1_555
O4A Mo4_2 1_555 1_555
O9A Mo3_2 1_555 1_555
O10A Mo4A 1_555 1_555
N6A Cu2_2 1_555 1_555
N8A C3A 1_555 1_555
C2A N10A 1_555 1_555
N11A C7A 1_555 1_555
N12A C9A 1_555 1_555
N12A C10A 1_555 1_555
N14A Cu4_2 1_555 1_555
N17A C11A 1_555 1_555
N18A C15A 1_555 1_555
O13A Mo4_2 1_555 1_555
Mo1_2 O3_2 1_555 1_555
Mo1_2 O9_2 1_555 1_555
Mo1A_2 O3A_2 1_555 1_555
Mo1A_2 O9A_2 1_555 1_555
Mo2_2 O4_2 1_555 1_555
Mo2_2 O6_2 1_555 1_555
Mo2_2 O10_2 1_555 1_555
Mo2A_2 O4A_2 1_555 1_555
Mo2A_2 O6A_2 1_555 1_555
Mo2A_2 O10A_2 1_555 1_555
Mo3_2 O4_2 1_555 1_555
Mo3_2 O10_2 1_555 1_555
Mo3A_2 O4A_2 1_555 1_555
Mo3A_2 O10A_2 1_555 1_555
O6_2 Mo4_2 1_555 1_555
O6A_2 Mo4A_2 1_555 1_555
O10_2 Mo4_2 1_555 1_555
O10A_2 Mo4A_2 1_555 1_555

#END
