
#######################################################################
#
#                 Cambridge Crystallographic Data Centre
#                                CCDC 
#
#######################################################################
#
# If this CIF has been generated from an entry in the Cambridge 
# Structural Database, then it will include bibliographic, chemical, 
# crystal, experimental, refinement or atomic coordinate data resulting 
# from the CCDC's data processing and validation procedures.
#
#######################################################################

data_GISQIK
_symmetry_cell_setting           monoclinic
_symmetry_space_group_name_H-M   'C 2/c'
_symmetry_Int_Tables_number      15
_space_group_name_Hall           '-C 2yn'
loop_
_symmetry_equiv_pos_site_id
_symmetry_equiv_pos_as_xyz
1 x,y,z
2 -x,y,1/2-z
3 1/2+x,1/2+y,z
4 1/2-x,1/2+y,1/2-z
5 -x,-y,-z
6 x,-y,1/2+z
7 1/2-x,1/2-y,-z
8 1/2+x,1/2-y,1/2+z
_cell_length_a                   16.437(4)
_cell_length_b                   21.933(6)
_cell_length_c                   21.811(6)
_cell_angle_alpha                90
_cell_angle_beta                 100.372(3)
_cell_angle_gamma                90
_cell_volume                     7734.66
loop_
_atom_site_label
_atom_site_type_symbol
_atom_site_fract_x
_atom_site_fract_y
_atom_site_fract_z
O26 O 0.5000 0.6602(11) 0.7500
W1 W 0.57760(7) 0.69188(5) 0.55669(6)
W2 W 0.74036(7) 0.88494(4) 0.58757(5)
W3 W 0.76237(7) 0.60589(4) 0.57555(5)
W4 W 0.93510(7) 0.66484(5) 0.51873(5)
W5 W 0.75239(9) 0.74114(5) 0.66317(5)
W6 W 0.92595(7) 0.79873(5) 0.60641(6)
Cu1 Cu 0.83037(18) 0.52333(12) 0.80492(13)
Cu2 Cu 0.67745(18) 0.45141(13) 0.65849(14)
P1 P 0.7500 0.7500 0.5000
O1 O 1.0245(13) 0.6252(10) 0.5268(9)
N1 N 0.8313(12) 0.4479(8) 0.7530(9)
N2 N 0.6798(12) 0.6599(8) 1.0822(8)
N3 N 0.7866(12) 0.6878(9) 0.9378(9)
N4 N 0.6721(13) 0.5232(9) 0.7142(8)
N5 N 0.8813(14) 0.3580(10) 0.7422(11)
N6 N 0.7156(13) 0.5757(9) 1.0374(10)
C1 C 0.8900(16) 0.4078(10) 0.7764(12)
C2 C 0.5408(15) 0.5322(10) 0.6511(11)
N7 N 0.8269(12) 0.5919(8) 0.8677(8)
C3 C 0.4601(14) 0.5539(11) 0.6350(12)
H1 H 0.4446 0.5865 0.6576
N8 N 0.6037(16) 0.6024(10) 0.7364(10)
C4 C 0.7900(15) 0.5808(11) 0.9160(11)
H2 H 0.7775 0.5410 0.9256
O2 O 1.0095(16) 0.8210(10) 0.6541(13)
N9 N 0.5630(12) 0.4849(9) 0.6204(9)
O3 O 0.8562(15) 0.8673(11) 0.6092(11)
C5 C 0.8438(18) 0.6486(10) 0.8524(11)
H3 H 0.8677 0.6560 0.8176
O4 O 0.8709(17) 0.6211(12) 0.5649(10)
N10 N 0.7185(11) 0.5509(8) 0.7620(8)
C6 C 0.7308(13) 0.6240(10) 1.0055(10)
N11 N 0.7836(14) 0.4203(8) 0.7045(9)
O5 O 0.7901(17) 0.6862(12) 0.5009(12)
N12 N 0.7068(12) 0.6746(8) 1.0299(9)
O6 O 0.9524(13) 0.7276(9) 0.4629(10)
O7 O 0.8989(15) 0.5773(11) 0.7368(10)
O8 O 0.6485(14) 0.6224(10) 0.5661(11)
O9 O 0.7531(18) 0.7360(9) 0.7388(10)
O10 O 0.7685(12) 0.5373(9) 0.6114(9)
O11 O 0.7842(17) 0.7795(12) 0.5645(13)
O12 O 0.7352(11) 0.9498(8) 0.6278(9)
N13 N 0.6854(13) 0.5995(8) 1.0835(9)
O13 O 0.5515(15) 0.6725(9) 0.4674(10)
O14 O 0.7448(13) 0.5822(12) 0.4910(8)
N14 N 0.9366(13) 0.4830(11) 0.8507(10)
O15 O 0.4950(16) 0.6648(10) 0.5814(12)
O16 O 0.9568(15) 0.7213(9) 0.5869(10)
C7 C 0.6027(14) 0.5550(10) 0.7016(12)
N15 N 0.6788(13) 0.5999(9) 0.7740(10)
C8 C 0.9479(15) 0.4254(11) 0.8282(12)
O17 O 0.6205(18) 0.3897(12) 0.7295(11)
C9 C 0.7703(15) 0.6288(9) 0.9519(10)
N16 N 0.8140(14) 0.3671(10) 0.6976(11)
O18 O 0.8594(17) 0.7604(12) 0.6555(13)
O19 O 0.8711(18) 0.6280(13) 0.4469(13)
O20 O 0.6433(16) 0.7238(11) 0.6291(12)
N17 N 1.0710(15) 0.4105(13) 0.9059(13)
C10 C 1.0611(19) 0.4678(15) 0.9242(17)
H4 H 1.1000 0.4846 0.9560
C11 C 1.0157(19) 0.3906(17) 0.8604(16)
H5 H 1.0206 0.3505 0.8477
C12 C 0.9935(18) 0.5032(13) 0.8964(13)
H6 H 0.9886 0.5427 0.9109
O21 O 0.6585(17) 0.7463(12) 0.4887(12)
O22 O 0.7805(15) 0.6606(11) 0.6439(11)
N18 N 0.4047(15) 0.5312(11) 0.5900(14)
C13 C 0.4283(15) 0.4841(13) 0.5589(12)
H7 H 0.3911 0.4666 0.5265
C14 C 0.5104(17) 0.4600(14) 0.5749(13)
H8 H 0.5264 0.4269 0.5532
O23 O 0.7843(16) 0.7854(11) 0.4492(12)
O24 O 0.7267(14) 0.8247(10) 0.6476(11)
C15 C 0.8248(16) 0.6981(10) 0.8903(12)
H9 H 0.8393 0.7377 0.8814
Cu3 Cu 0.7500 0.7500 1.0000
O25 O 0.8737(13) 0.7254(11) 1.0684(12)
O5F O 0.7099(17) 0.8138(12) 0.4991(12)
O11F O 0.7158(17) 0.7205(12) 0.4355(13)
O21F O 0.8415(17) 0.7537(12) 0.5113(12)
O23F O 0.7157(16) 0.7146(11) 0.5508(12)
W1F W 0.92240(7) 0.80812(5) 0.44331(6)
W2F W 0.75964(7) 0.61506(4) 0.41243(5)
W3F W 0.73763(7) 0.89411(4) 0.42445(5)
W4F W 0.56490(7) 0.83516(5) 0.48127(5)
W5F W 0.74761(9) 0.75886(5) 0.33683(5)
W6F W 0.57405(7) 0.70127(5) 0.39359(6)
Cu1F Cu 0.66963(18) 0.97667(12) 0.19508(13)
Cu2F Cu 0.82255(18) 1.04859(13) 0.34151(14)
O1F O 0.4755(13) 0.8748(10) 0.4732(9)
N1F N 0.6687(12) 1.0521(8) 0.2470(9)
N2F N 0.8202(12) 0.8401(8) -0.0822(8)
N3F N 0.7134(12) 0.8122(9) 0.0622(9)
N4F N 0.8279(13) 0.9768(9) 0.2858(8)
N5F N 0.6187(14) 1.1420(10) 0.2578(11)
N6F N 0.7844(13) 0.9243(9) -0.0374(10)
C1F C 0.6100(16) 1.0922(10) 0.2236(12)
C2F C 0.9592(15) 0.9678(10) 0.3489(11)
N7F N 0.6731(12) 0.9081(8) 0.1323(8)
C3F C 1.0399(14) 0.9461(11) 0.3650(12)
H1F H 1.0554 0.9135 0.3424
N8F N 0.8963(16) 0.8976(10) 0.2636(10)
C4F C 0.7100(15) 0.9192(11) 0.0840(11)
H2F H 0.7225 0.9590 0.0744
O2F O 0.4905(16) 0.6790(10) 0.3459(13)
N9F N 0.9370(12) 1.0151(9) 0.3796(9)
O3F O 0.6438(15) 0.6327(11) 0.3908(11)
C5F C 0.6562(18) 0.8514(10) 0.1476(11)
H3F H 0.6323 0.8440 0.1824
O4F O 0.6291(17) 0.8789(12) 0.4351(10)
N10F N 0.7815(11) 0.9491(8) 0.2380(8)
C6F C 0.7692(13) 0.8760(10) -0.0055(10)
N11F N 0.7164(14) 1.0797(8) 0.2955(9)
N12F N 0.7932(12) 0.8254(8) -0.0299(9)
O6F O 0.5476(13) 0.7724(9) 0.5371(10)
O7F O 0.6011(15) 0.9227(11) 0.2632(10)
O8F O 0.8515(14) 0.8776(10) 0.4339(11)
O9F O 0.7469(18) 0.7640(9) 0.2612(10)
O10F O 0.7315(12) 0.9627(9) 0.3886(9)
O12F O 0.7648(11) 0.5502(8) 0.3722(9)
N13F N 0.8146(13) 0.9005(8) -0.0835(9)
O13F O 0.9485(15) 0.8275(9) 0.5326(10)
O14F O 0.7552(13) 0.9178(12) 0.5090(8)
N14F N 0.5634(13) 1.0170(11) 0.1493(10)
O15F O 1.0050(16) 0.8352(10) 0.4186(12)
O16F O 0.5432(15) 0.7787(9) 0.4131(10)
C7F C 0.8973(14) 0.9450(10) 0.2984(12)
N15F N 0.8212(13) 0.9001(9) 0.2260(10)
C8F C 0.5521(15) 1.0746(11) 0.1718(12)
O17F O 0.8795(18) 1.1103(12) 0.2705(11)
C9F C 0.7297(15) 0.8712(9) 0.0481(10)
N16F N 0.6860(14) 1.1329(10) 0.3024(11)
O18F O 0.6406(17) 0.7396(12) 0.3445(13)
O19F O 0.6289(18) 0.8720(13) 0.5531(13)
O20F O 0.8567(16) 0.7762(11) 0.3709(12)
N17F N 0.4290(15) 1.0895(13) 0.0941(13)
C10F C 0.4389(19) 1.0322(15) 0.0758(17)
H4F H 0.4000 1.0154 0.0440
C11F C 0.4843(19) 1.1094(17) 0.1396(16)
H5F H 0.4794 1.1495 0.1523
C12F C 0.5065(18) 0.9968(13) 0.1036(13)
H6F H 0.5114 0.9573 0.0891
O22F O 0.7195(15) 0.8394(11) 0.3561(11)
N18F N 1.0953(15) 0.9688(11) 0.4100(14)
C13F C 1.0717(15) 1.0159(13) 0.4411(12)
H7F H 1.1089 1.0334 0.4735
C14F C 0.9896(17) 1.0400(14) 0.4251(13)
H8F H 0.9736 1.0731 0.4468
O24F O 0.7733(14) 0.6753(10) 0.3524(11)
C15F C 0.6752(16) 0.8019(10) 0.1097(12)
H9F H 0.6607 0.7623 0.1186
O25F O 0.6263(13) 0.7746(11) 0.9316(12)
Cu1C Cu 0.66963(18) 1.02333(12) 0.69508(13)
Cu1E Cu 0.83037(18) 0.47667(12) 0.30492(13)
Cu2C Cu 0.82255(18) 0.95141(13) -0.15849(14)
Cu2E Cu 0.67745(18) 0.54859(13) 1.15849(14)
N3F_2 N 0.7134(12) 0.8122(9) 1.0622(9)
N12F_2 N 0.7932(12) 0.8254(8) 0.9701(9)
O12C O 0.7648(11) 0.4498(8) 0.8722(9)
O12E O 0.7352(11) 1.0502(8) 0.1278(9)
N13C N 0.8146(13) 1.0995(8) 0.4165(9)
N13E N 0.6854(13) 0.4005(8) 0.5835(9)
Cu3_2 Cu 0.7500 0.7500 0.0000
loop_
_geom_bond_atom_site_label_1
_geom_bond_atom_site_label_2
_geom_bond_site_symmetry_1
_geom_bond_site_symmetry_2
W1 O8 1_555 1_555
W2 O3 1_555 1_555
W3 O4 1_555 1_555
W4 O1 1_555 1_555
W5 O9 1_555 1_555
W6 O2 1_555 1_555
Cu1 N1 1_555 1_555
Cu2 N4 1_555 1_555
P1 O5 1_555 1_555
N1 C1 1_555 1_555
N2 N12 1_555 1_555
N3 C9 1_555 1_555
N4 N10 1_555 1_555
N5 C1 1_555 1_555
N6 C6 1_555 1_555
C1 C8 1_555 1_555
C2 C3 1_555 1_555
N7 Cu1 1_555 1_555
C3 H1 1_555 1_555
N8 C7 1_555 1_555
C4 N7 1_555 1_555
H2 C4 1_555 1_555
N9 Cu2 1_555 1_555
O3 W6 1_555 1_555
C5 N7 1_555 1_555
H3 C5 1_555 1_555
O4 W4 1_555 1_555
N10 Cu1 1_555 1_555
C6 N12 1_555 1_555
N11 Cu2 1_555 1_555
O5 W3 1_555 1_555
N12 Cu3 1_555 1_555
O6 W4 1_555 1_555
O7 Cu1 1_555 1_555
O8 W3 1_555 1_555
O10 W3 1_555 1_555
O11 W5 1_555 1_555
O12 W2 1_555 1_555
N13 N2 1_555 1_555
O13 W1 1_555 1_555
O14 W3 1_555 1_555
N14 Cu1 1_555 1_555
O15 W1 1_555 1_555
O16 W4 1_555 1_555
C7 N4 1_555 1_555
N15 N8 1_555 1_555
C8 N14 1_555 1_555
O17 Cu2 1_555 1_555
C9 C4 1_555 1_555
N16 N5 1_555 1_555
O18 W5 1_555 1_555
O19 W4 1_555 1_555
O20 W1 1_555 1_555
N17 C10 1_555 1_555
C10 H4 1_555 1_555
C11 C8 1_555 1_555
H5 C11 1_555 1_555
C12 N14 1_555 1_555
H6 C12 1_555 1_555
O21 W1 1_555 1_555
O22 W3 1_555 1_555
N18 C3 1_555 1_555
C13 N18 1_555 1_555
H7 C13 1_555 1_555
C14 N9 1_555 1_555
H8 C14 1_555 1_555
O23 P1 1_555 1_555
O24 W2 1_555 1_555
C15 N3 1_555 1_555
H9 C15 1_555 1_555
Cu3 N3 1_555 1_555
O25 Cu3 1_555 1_555
O5F W2 1_555 1_555
O11F P1 1_555 1_555
O21F W4 1_555 1_555
O23F W1 1_555 1_555
W1F O6 1_555 1_555
W2F O5 1_555 1_555
W3F O5F 1_555 1_555
W4F O21 1_555 1_555
W5F O23 1_555 1_555
W6F O13 1_555 1_555
Cu1F N1F 1_555 1_555
Cu2F N4F 1_555 1_555
O1F W4F 1_555 1_555
N1F C1F 1_555 1_555
N2F N12F 1_555 1_555
N3F C9F 1_555 1_555
N4F N10F 1_555 1_555
N5F C1F 1_555 1_555
N6F C6F 1_555 1_555
C1F C8F 1_555 1_555
C2F C3F 1_555 1_555
N7F Cu1F 1_555 1_555
C3F H1F 1_555 1_555
N8F C7F 1_555 1_555
C4F N7F 1_555 1_555
H2F C4F 1_555 1_555
O2F W6F 1_555 1_555
N9F Cu2F 1_555 1_555
O3F W2F 1_555 1_555
C5F N7F 1_555 1_555
H3F C5F 1_555 1_555
O4F W3F 1_555 1_555
N10F Cu1F 1_555 1_555
C6F N12F 1_555 1_555
N11F Cu2F 1_555 1_555
N12F Cu3_2 1_555 1_555
O6F W1 1_555 1_555
O7F Cu1F 1_555 1_555
O8F W1F 1_555 1_555
O9F W5F 1_555 1_555
O10F W3F 1_555 1_555
O12F W2F 1_555 1_555
N13F N2F 1_555 1_555
O13F W6 1_555 1_555
O14F W2 1_555 1_555
N14F Cu1F 1_555 1_555
O15F W1F 1_555 1_555
O16F W4F 1_555 1_555
C7F N4F 1_555 1_555
N15F N8F 1_555 1_555
C8F N14F 1_555 1_555
O17F Cu2F 1_555 1_555
C9F C4F 1_555 1_555
N16F N5F 1_555 1_555
O18F W5F 1_555 1_555
O19F W2 1_555 1_555
O20F W1F 1_555 1_555
N17F C10F 1_555 1_555
C10F H4F 1_555 1_555
C11F C8F 1_555 1_555
H5F C11F 1_555 1_555
C12F N14F 1_555 1_555
H6F C12F 1_555 1_555
O22F W3F 1_555 1_555
N18F C3F 1_555 1_555
C13F N18F 1_555 1_555
H7F C13F 1_555 1_555
C14F N9F 1_555 1_555
H8F C14F 1_555 1_555
O24F W2F 1_555 1_555
C15F N3F 1_555 1_555
H9F C15F 1_555 1_555
O25F Cu3 1_555 1_555
Cu1C O12 1_555 1_555
Cu1E O12F 1_555 1_555
Cu2C N13F 1_555 1_555
Cu2E N13 1_555 1_555
N3F_2 Cu3 1_555 1_555
N12F_2 Cu3 1_555 1_555
O12C Cu1 1_555 1_555
O12E Cu1F 1_555 1_555
N13C Cu2F 1_555 1_555
N13E Cu2 1_555 1_555
Cu3_2 N3F 1_555 1_555
W4 O5 1_555 1_555
W5 O20 1_555 1_555
W5 O22 1_555 1_555
W5 O24 1_555 1_555
W5 O23F 1_555 1_555
W6 O11 1_555 1_555
W6 O16 1_555 1_555
W6 O18 1_555 1_555
W6 O21F 1_555 1_555
Cu2 O10 1_555 1_555
P1 O11 1_555 1_555
P1 O21 1_555 1_555
P1 O5F 1_555 1_555
P1 O21F 1_555 1_555
P1 O23F 1_555 1_555
N1 N11 1_555 1_555
N6 N13 1_555 1_555
C2 N9 1_555 1_555
C2 C7 1_555 1_555
C5 C15 1_555 1_555
N10 N15 1_555 1_555
C6 C9 1_555 1_555
N11 N16 1_555 1_555
O5 O21F 1_555 1_555
O11 O21F 1_555 1_555
O11 O23F 1_555 1_555
O14 W2F 1_555 1_555
O19 W2F 1_555 1_555
N17 C11 1_555 1_555
C10 C12 1_555 1_555
O21 O5F 1_555 1_555
O21 O11F 1_555 1_555
O21 O23F 1_555 1_555
O21 W6F 1_555 1_555
C13 C14 1_555 1_555
O23 O11F 1_555 1_555
O23 O21F 1_555 1_555
O23 W1F 1_555 1_555
O5F W4F 1_555 1_555
O11F W5F 1_555 1_555
O11F W6F 1_555 1_555
O21F W1F 1_555 1_555
W1F O13F 1_555 1_555
W3F O8F 1_555 1_555
W3F O14F 1_555 1_555
W4F O4F 1_555 1_555
W4F O6F 1_555 1_555
W4F O19F 1_555 1_555
W5F O20F 1_555 1_555
W5F O22F 1_555 1_555
W5F O24F 1_555 1_555
W6F O3F 1_555 1_555
W6F O16F 1_555 1_555
W6F O18F 1_555 1_555
Cu2F O10F 1_555 1_555
N1F N11F 1_555 1_555
N6F N13F 1_555 1_555
C2F N9F 1_555 1_555
C2F C7F 1_555 1_555
C5F C15F 1_555 1_555
N10F N15F 1_555 1_555
C6F C9F 1_555 1_555
N11F N16F 1_555 1_555
N17F C11F 1_555 1_555
C10F C12F 1_555 1_555
C13F C14F 1_555 1_555

#END
