
#######################################################################
#
#                 Cambridge Crystallographic Data Centre
#                                CCDC 
#
#######################################################################
#
# If this CIF has been generated from an entry in the Cambridge 
# Structural Database, then it will include bibliographic, chemical, 
# crystal, experimental, refinement or atomic coordinate data resulting 
# from the CCDC's data processing and validation procedures.
#
#######################################################################

data_GISRUV
_symmetry_cell_setting           monoclinic
_symmetry_space_group_name_H-M   'P 21/c'
_symmetry_Int_Tables_number      14
_space_group_name_Hall           '-P 2ybc'
loop_
_symmetry_equiv_pos_site_id
_symmetry_equiv_pos_as_xyz
1 x,y,z
2 -x,1/2+y,1/2-z
3 -x,-y,-z
4 x,1/2-y,1/2+z
_cell_length_a                   12.335(2)
_cell_length_b                   9.440(2)
_cell_length_c                   19.284(1)
_cell_angle_alpha                90
_cell_angle_beta                 99.754(8)
_cell_angle_gamma                90
_cell_volume                     2213.02
loop_
_atom_site_label
_atom_site_type_symbol
_atom_site_fract_x
_atom_site_fract_y
_atom_site_fract_z
Cu1 Cu 0.13092(4) -0.27838(6) 0.33419(3)
O1 O 0.1099(2) -0.3786(3) 0.2282(2)
O2 O 0.0107(2) -0.6866(3) 0.1680(2)
O3 O -0.0643(3) -0.6052(4) 0.0633(2)
N1 N 0.2110(3) -0.1071(4) 0.3131(2)
N2 N 0.2848(3) -0.3716(4) 0.3433(2)
N3 N 0.0936(3) -0.4528(4) 0.3830(2)
N4 N 0.2003(3) -0.5305(4) 0.1684(2)
C1 C 0.1664(4) 0.0137(5) 0.2866(3)
C2 C 0.2279(4) 0.1280(6) 0.2741(3)
C3 C 0.3411(5) 0.1174(6) 0.2895(3)
C4 C 0.3875(4) -0.0060(6) 0.3170(3)
C5 C 0.3213(3) -0.1182(5) 0.3278(2)
C6 C 0.3659(3) -0.2559(5) 0.3594(3)
C7 C 0.2915(4) -0.4727(6) 0.4020(3)
C8 C 0.1818(4) -0.5352(5) 0.4073(3)
C9 C 0.1680(4) -0.6659(6) 0.4378(3)
C10 C 0.0654(5) -0.7105(7) 0.4438(3)
C11 C -0.0242(4) -0.6260(6) 0.4197(3)
C12 C -0.0069(4) -0.4989(5) 0.3893(3)
C13 C 0.2965(4) -0.4422(7) 0.2773(3)
C14 C 0.1920(3) -0.4491(5) 0.2232(2)
C15 C 0.1145(4) -0.5337(6) 0.1068(2)
C16 C 0.0121(3) -0.6134(5) 0.1137(3)
O2A O -0.0107(2) -0.1866(3) 0.3320(2)
Cu1A Cu -0.13092(4) -0.77838(6) 0.16581(3)
Cl1 Cl -0.3903(1) 0.3622(2) 0.38149(8)
O4 O -0.4656(4) 0.4130(9) 0.3308(4)
O5 O -0.4417(6) 0.3297(9) 0.4356(3)
O6 O -0.3407(8) 0.2530(9) 0.3647(5)
O7 O -0.3082(5) 0.4574(9) 0.3980(5)
O8 O -0.3529(3) 0.7717(4) 0.3735(2)
O9 O -0.2832(3) 0.0796(6) 0.5114(2)
O10 O -0.5844(4) 0.1462(6) 0.5039(3)
loop_
_geom_bond_atom_site_label_1
_geom_bond_atom_site_label_2
_geom_bond_site_symmetry_1
_geom_bond_site_symmetry_2
Cu1 O1 1_555 1_555
Cl1 O4 1_555 1_555
O1 C14 1_555 1_555
O2 C16 1_555 1_555
O3 C16 1_555 1_555
O5 Cl1 1_555 1_555
O6 Cl1 1_555 1_555
O7 Cl1 1_555 1_555
N1 Cu1 1_555 1_555
N2 Cu1 1_555 1_555
N3 Cu1 1_555 1_555
N4 C14 1_555 1_555
C1 N1 1_555 1_555
C2 C1 1_555 1_555
C3 C2 1_555 1_555
C4 C3 1_555 1_555
C5 N1 1_555 1_555
C6 N2 1_555 1_555
C7 N2 1_555 1_555
C8 N3 1_555 1_555
C9 C8 1_555 1_555
C10 C9 1_555 1_555
C11 C10 1_555 1_555
C12 N3 1_555 1_555
C13 N2 1_555 1_555
C14 C13 1_555 1_555
C15 N4 1_555 1_555
C16 C15 1_555 1_555
O2A Cu1 1_555 1_555
Cu1A O2 1_555 1_555
C4 C5 1_555 1_555
C5 C6 1_555 1_555
C7 C8 1_555 1_555
C11 C12 1_555 1_555

#END
