
#######################################################################
#
#                 Cambridge Crystallographic Data Centre
#                                CCDC 
#
#######################################################################
#
# If this CIF has been generated from an entry in the Cambridge 
# Structural Database, then it will include bibliographic, chemical, 
# crystal, experimental, refinement or atomic coordinate data resulting 
# from the CCDC's data processing and validation procedures.
#
#######################################################################

data_GISTUZ
_symmetry_cell_setting           monoclinic
_symmetry_space_group_name_H-M   'C 2/c'
_symmetry_Int_Tables_number      15
_space_group_name_Hall           '-C 2yn'
loop_
_symmetry_equiv_pos_site_id
_symmetry_equiv_pos_as_xyz
1 x,y,z
2 -x,y,1/2-z
3 1/2+x,1/2+y,z
4 1/2-x,1/2+y,1/2-z
5 -x,-y,-z
6 x,-y,1/2+z
7 1/2-x,1/2-y,-z
8 1/2+x,1/2-y,1/2+z
_cell_length_a                   20.3079(15)
_cell_length_b                   10.1909(8)
_cell_length_c                   21.8461(16)
_cell_angle_alpha                90
_cell_angle_beta                 91.201(2)
_cell_angle_gamma                90
_cell_volume                     4520.18
loop_
_atom_site_label
_atom_site_type_symbol
_atom_site_fract_x
_atom_site_fract_y
_atom_site_fract_z
C1 C 0.6354(2) 0.3878(5) 1.2608(2)
C2 C 0.6186(2) 0.4468(4) 1.1997(2)
C3 C 0.6662(2) 0.5126(5) 1.1677(2)
H1 H 0.7093 0.5151 1.1830
C4 C 0.6504(2) 0.5751(5) 1.1128(2)
H2 H 0.6828 0.6203 1.0919
C5 C 0.5863(2) 0.5704(4) 1.08905(19)
C6 C 0.5391(2) 0.5018(5) 1.1212(2)
H3 H 0.4962 0.4966 1.1055
C7 C 0.5547(2) 0.4412(5) 1.1761(2)
H4 H 0.5224 0.3966 1.1973
C8 C 0.5691(2) 0.6392(4) 1.03082(19)
C9 C 0.6149(2) 0.6460(4) 0.98450(19)
H5 H 0.6554 0.6053 0.9906
C10 C 0.5452(2) 0.7709(4) 0.9233(2)
H6 H 0.5377 0.8179 0.8873
C11 C 0.4962(2) 0.7677(4) 0.9664(2)
C12 C 0.5090(2) 0.6990(4) 1.02014(19)
H7 H 0.4765 0.6931 1.0494
C13 C 0.4320(2) 0.8324(4) 0.95397(19)
C14 C 0.4281(2) 0.9617(5) 0.9363(2)
H8 H 0.4665 1.0104 0.9323
C15 C 0.3675(2) 1.0205(5) 0.9245(2)
H9 H 0.3656 1.1091 0.9144
C16 C 0.3099(2) 0.9490(4) 0.92754(19)
C17 C 0.3137(2) 0.8200(5) 0.9457(2)
H10 H 0.2754 0.7707 0.9486
C18 C 0.3735(2) 0.7630(5) 0.9595(2)
H11 H 0.3749 0.6764 0.9727
C19 C 0.2437(2) 1.0093(5) 0.9109(2)
C20 C 0.6716(2) 0.9862(5) 0.9001(2)
H12 H 0.6765 0.9594 0.9406
C21 C 0.6647(2) 1.1110(6) 0.8815(3)
H13 H 0.6640 1.1853 0.9062
C22 C 0.6622(2) 0.9793(4) 0.8020(2)
C23 C 0.6608(3) 0.9361(6) 0.7374(2)
H14 H 0.6871 0.8584 0.7334
H15 H 0.6782 1.0043 0.7121
H16 H 0.6162 0.9175 0.7247
C24 C 0.6407(3) 1.2173(5) 0.7795(3)
H17 H 0.6651 1.2121 0.7418
H18 H 0.6526 1.2988 0.7998
C25 C 0.5674(3) 1.2173(5) 0.7644(3)
C26 C 0.5224(4) 1.2163(12) 0.8064(4)
H19 H 0.5358 1.2147 0.8473
C27 C 0.5445(4) 1.2173(12) 0.7075(4)
H20 H 0.5742 1.2179 0.6757
Cu1 Cu 0.66529(2) 0.69444(6) 0.86020(2)
N1 N 0.60336(16) 0.7084(3) 0.93156(16)
N2 N 0.67055(17) 0.9046(4) 0.85054(16)
N3 N 0.65885(19) 1.1069(4) 0.8190(2)
O1 O 0.59134(15) 0.3431(4) 1.29429(14)
O2 O 0.69483(15) 0.3807(4) 1.27900(14)
O3 O 0.19484(16) 0.9384(4) 0.90491(18)
O4 O 0.24356(14) 1.1341(3) 0.90440(14)
C20A C 0.3284(2) 0.9862(5) 0.5999(2)
H12A H 0.3235 0.9594 0.5594
C21A C 0.3353(2) 1.1110(6) 0.6185(3)
H13A H 0.3360 1.1853 0.5938
C22A C 0.3378(2) 0.9793(4) 0.6980(2)
C23A C 0.3392(3) 0.9361(6) 0.7626(2)
H14A H 0.3129 0.8584 0.7666
H15A H 0.3218 1.0043 0.7879
H16A H 0.3838 0.9175 0.7753
C24A C 0.3593(3) 1.2173(5) 0.7205(3)
H17A H 0.3349 1.2121 0.7582
H18A H 0.3474 1.2988 0.7002
C25A C 0.4326(3) 1.2173(5) 0.7356(3)
C26A C 0.4776(4) 1.2163(12) 0.6936(4)
H19A H 0.4642 1.2147 0.6527
C27A C 0.4555(4) 1.2173(12) 0.7925(4)
H20A H 0.4258 1.2179 0.8243
N2A N 0.32945(17) 0.9046(4) 0.64946(16)
N3A N 0.34115(19) 1.1069(4) 0.6810(2)
C1A C 0.3646(2) 0.3878(5) 0.2392(2)
C2A C 0.3814(2) 0.4468(4) 0.3003(2)
C3A C 0.3338(2) 0.5126(5) 0.3323(2)
H1A H 0.2907 0.5151 0.3170
C4A C 0.3496(2) 0.5751(5) 0.3872(2)
H2A H 0.3172 0.6203 0.4081
C5A C 0.4137(2) 0.5704(4) 0.41095(19)
C6A C 0.4609(2) 0.5018(5) 0.3788(2)
H3A H 0.5038 0.4966 0.3945
C7A C 0.4453(2) 0.4412(5) 0.3239(2)
H4A H 0.4776 0.3966 0.3027
C8A C 0.4309(2) 0.6392(4) 0.46918(19)
C9A C 0.3851(2) 0.6460(4) 0.51550(19)
H5A H 0.3446 0.6053 0.5094
C10A C 0.4548(2) 0.7709(4) 0.5767(2)
H6A H 0.4623 0.8179 0.6127
C11A C 0.5038(2) 0.7677(4) 0.5336(2)
C12A C 0.4910(2) 0.6990(4) 0.47986(19)
H7A H 0.5235 0.6931 0.4506
C13A C 0.5680(2) 0.8324(4) 0.54603(19)
C14A C 0.5719(2) 0.9617(5) 0.5637(2)
H8A H 0.5335 1.0104 0.5677
C15A C 0.6325(2) 1.0205(5) 0.5755(2)
H9A H 0.6344 1.1091 0.5856
C16A C 0.6901(2) 0.9490(4) 0.57246(19)
C17A C 0.6863(2) 0.8200(5) 0.5543(2)
H10A H 0.7246 0.7707 0.5514
C18A C 0.6265(2) 0.7630(5) 0.5405(2)
H11A H 0.6251 0.6764 0.5273
C19A C 0.7563(2) 1.0093(5) 0.5891(2)
Cu1A Cu 0.33471(2) 0.69444(6) 0.63980(2)
N1A N 0.39664(16) 0.7084(3) 0.56844(16)
O1A O 0.40866(15) 0.3431(4) 0.20571(14)
O2A O 0.30517(15) 0.3807(4) 0.22100(14)
O3A O 0.80516(16) 0.9384(4) 0.59509(18)
O4A O 0.75644(14) 1.1341(3) 0.59560(14)
Cu1B Cu 0.16529(2) 1.19444(6) 0.86020(2)
Cu1C Cu 0.83471(2) 1.19444(6) 0.63980(2)
Cu1D Cu 0.33471(2) 0.30556(6) 0.13980(2)
Cu1E Cu 0.66529(2) 0.30556(6) 1.36020(2)
O1D O 0.40866(15) 0.6569(4) 0.70571(14)
O1E O 0.59134(15) 0.6569(4) 0.79429(14)
O2D O 0.30517(15) 0.6193(4) 0.72100(14)
O2E O 0.69483(15) 0.6193(4) 0.77900(14)
O4B O 0.74356(14) 0.6341(3) 0.90440(14)
O4C O 0.25644(14) 0.6341(3) 0.59560(14)
loop_
_geom_bond_atom_site_label_1
_geom_bond_atom_site_label_2
_geom_bond_site_symmetry_1
_geom_bond_site_symmetry_2
C1 C2 1_555 1_555
C2 C3 1_555 1_555
C3 H1 1_555 1_555
C4 C3 1_555 1_555
H2 C4 1_555 1_555
C5 C4 1_555 1_555
C6 C5 1_555 1_555
H3 C6 1_555 1_555
C7 C2 1_555 1_555
H4 C7 1_555 1_555
C8 C5 1_555 1_555
C9 C8 1_555 1_555
H5 C9 1_555 1_555
C10 H6 1_555 1_555
C11 C10 1_555 1_555
C12 C8 1_555 1_555
H7 C12 1_555 1_555
C13 C11 1_555 1_555
C14 C13 1_555 1_555
H8 C14 1_555 1_555
C15 C14 1_555 1_555
H9 C15 1_555 1_555
C16 C15 1_555 1_555
C17 C16 1_555 1_555
H10 C17 1_555 1_555
C18 C13 1_555 1_555
H11 C18 1_555 1_555
C19 C16 1_555 1_555
C20 H12 1_555 1_555
C21 C20 1_555 1_555
H13 C21 1_555 1_555
C22 C23 1_555 1_555
C23 H14 1_555 1_555
H15 C23 1_555 1_555
H16 C23 1_555 1_555
C24 H17 1_555 1_555
H18 C24 1_555 1_555
C25 C24 1_555 1_555
C26 C25 1_555 1_555
H19 C26 1_555 1_555
C27 C25 1_555 1_555
H20 C27 1_555 1_555
Cu1 N1 1_555 1_555
N1 C9 1_555 1_555
N2 C20 1_555 1_555
N3 C21 1_555 1_555
O1 C1 1_555 1_555
O2 C1 1_555 1_555
O3 C19 1_555 1_555
O4 C19 1_555 1_555
C20A H12A 1_555 1_555
C21A C20A 1_555 1_555
H13A C21A 1_555 1_555
C22A C23A 1_555 1_555
C23A H14A 1_555 1_555
H15A C23A 1_555 1_555
H16A C23A 1_555 1_555
C24A H17A 1_555 1_555
H18A C24A 1_555 1_555
C25A C24A 1_555 1_555
C26A C27 1_555 1_555
H19A C26A 1_555 1_555
C27A C26 1_555 1_555
H20A C27A 1_555 1_555
N2A C20A 1_555 1_555
N3A C21A 1_555 1_555
C1A C2A 1_555 1_555
C2A C3A 1_555 1_555
C3A H1A 1_555 1_555
C4A C3A 1_555 1_555
H2A C4A 1_555 1_555
C5A C4A 1_555 1_555
C6A C5A 1_555 1_555
H3A C6A 1_555 1_555
C7A C2A 1_555 1_555
H4A C7A 1_555 1_555
C8A C5A 1_555 1_555
C9A C8A 1_555 1_555
H5A C9A 1_555 1_555
C10A H6A 1_555 1_555
C11A C10A 1_555 1_555
C12A C8A 1_555 1_555
H7A C12A 1_555 1_555
C13A C11A 1_555 1_555
C14A C13A 1_555 1_555
H8A C14A 1_555 1_555
C15A C14A 1_555 1_555
H9A C15A 1_555 1_555
C16A C15A 1_555 1_555
C17A C16A 1_555 1_555
H10A C17A 1_555 1_555
C18A C13A 1_555 1_555
H11A C18A 1_555 1_555
C19A C16A 1_555 1_555
Cu1A N2A 1_555 1_555
N1A C9A 1_555 1_555
O1A C1A 1_555 1_555
O2A C1A 1_555 1_555
O3A C19A 1_555 1_555
O4A C19A 1_555 1_555
Cu1B O4 1_555 1_555
Cu1C O4A 1_555 1_555
Cu1D O1A 1_555 1_555
Cu1E O1 1_555 1_555
O1D Cu1A 1_555 1_555
O1E Cu1 1_555 1_555
O2D Cu1A 1_555 1_555
O2E Cu1 1_555 1_555
O4B Cu1 1_555 1_555
O4C Cu1A 1_555 1_555
C6 C7 1_555 1_555
C10 N1 1_555 1_555
C11 C12 1_555 1_555
C17 C18 1_555 1_555
C22 N2 1_555 1_555
C22 N3 1_555 1_555
C24 N3 1_555 1_555
Cu1 N2 1_555 1_555
O2 Cu1E 1_555 1_555
C22A N2A 1_555 1_555
C22A N3A 1_555 1_555
C24A N3A 1_555 1_555
C25A C26A 1_555 1_555
C25A C27A 1_555 1_555
C6A C7A 1_555 1_555
C10A N1A 1_555 1_555
C11A C12A 1_555 1_555
C17A C18A 1_555 1_555
Cu1A N1A 1_555 1_555
O2A Cu1D 1_555 1_555

#END
