
#######################################################################
#
#                 Cambridge Crystallographic Data Centre
#                                CCDC 
#
#######################################################################
#
# If this CIF has been generated from an entry in the Cambridge 
# Structural Database, then it will include bibliographic, chemical, 
# crystal, experimental, refinement or atomic coordinate data resulting 
# from the CCDC's data processing and validation procedures.
#
#######################################################################

data_GISVAH
_symmetry_cell_setting           monoclinic
_symmetry_space_group_name_H-M   'C 2/c'
_symmetry_Int_Tables_number      15
_space_group_name_Hall           '-C 2yn'
loop_
_symmetry_equiv_pos_site_id
_symmetry_equiv_pos_as_xyz
1 x,y,z
2 -x,y,1/2-z
3 1/2+x,1/2+y,z
4 1/2-x,1/2+y,1/2-z
5 -x,-y,-z
6 x,-y,1/2+z
7 1/2-x,1/2-y,-z
8 1/2+x,1/2-y,1/2+z
_cell_length_a                   20.249(10)
_cell_length_b                   10.011(5)
_cell_length_c                   22.164(12)
_cell_angle_alpha                90
_cell_angle_beta                 91.228(12)
_cell_angle_gamma                90
_cell_volume                     4491.89
loop_
_atom_site_label
_atom_site_type_symbol
_atom_site_fract_x
_atom_site_fract_y
_atom_site_fract_z
Ni1 Ni 0.16548(2) 0.68672(5) 0.36198(2)
N1 N 0.10144(13) 0.7015(3) 0.43322(14)
N2 N 0.16680(14) 0.8898(3) 0.35113(14)
O1 O 0.09449(12) 0.3611(3) 0.79750(12)
O2 O 0.19857(12) 0.3803(3) 0.77618(12)
O3 O -0.30149(12) 0.9746(3) 0.39542(13)
C1 C 0.11257(17) 0.6389(3) 0.48576(17)
C2 C 0.04297(16) 0.7633(4) 0.42507(18)
C3 C 0.16999(18) 0.9746(4) 0.4006(2)
C4 C 0.15920(17) 0.9688(4) 0.30372(18)
H1 H 0.1530 0.5963 0.4917
C5 C 0.06743(16) 0.6336(3) 0.53186(17)
C6 C -0.00601(16) 0.7621(3) 0.46736(17)
H2 H 0.0352 0.8091 0.3891
H3 H 0.1757 0.9472 0.4404
C7 C 0.16358(18) 1.1016(4) 0.3825(2)
C8 C 0.1561(2) 0.9262(5) 0.2393(2)
N3 N 0.15705(15) 1.0971(3) 0.32100(17)
C9 C 0.00636(16) 0.6935(3) 0.52069(17)
C10 C 0.08529(17) 0.5682(4) 0.58999(17)
C11 C -0.06943(16) 0.8331(4) 0.45472(17)
H4 H 0.1636 1.1773 0.4067
H5 H 0.1815 0.8460 0.2346
H6 H 0.1739 0.9955 0.2145
H7 H 0.1110 0.9097 0.2274
C12 C 0.1406(2) 1.2124(4) 0.2821(2)
H8 H -0.0264 0.6874 0.5493
C13 C 0.15041(17) 0.5732(4) 0.61227(18)
C14 C 0.03864(17) 0.5038(4) 0.62421(17)
C15 C -0.06932(18) 0.9646(4) 0.43833(19)
C16 C -0.12967(18) 0.7674(4) 0.4583(2)
H9 H 0.1664 1.2083 0.2457
H10 H 0.1519 1.2945 0.3031
C17 C 0.0673(2) 1.2130(4) 0.2651(2)
H11 H 0.1825 0.6167 0.5902
C18 C 0.16744(17) 0.5143(4) 0.66667(18)
C19 C 0.05557(18) 0.4457(4) 0.67854(18)
H12 H -0.0049 0.4999 0.6102
H13 H -0.0294 1.0099 0.4354
C20 C -0.12823(18) 1.0316(4) 0.42598(19)
C21 C -0.18762(17) 0.8333(4) 0.44355(19)
H14 H -0.1309 0.6786 0.4706
C22 C 0.0207(3) 1.2112(7) 0.3073(3)
C23 C 0.0461(3) 1.2119(8) 0.2080(3)
H15 H 0.2112 0.5166 0.6804
C24 C 0.12050(17) 0.4518(4) 0.70106(17)
H16 H 0.0235 0.4018 0.7005
H17 H -0.1276 1.1220 0.4165
C25 C -0.18761(17) 0.9646(4) 0.42775(17)
H18 H -0.2274 0.7871 0.4444
H19 H 0.0336 1.2094 0.3478
H20 H 0.0769 1.2116 0.1774
C26 C 0.13875(18) 0.3953(4) 0.76132(18)
C27 C -0.25018(18) 1.0384(4) 0.40952(17)
O4 O -0.24803(11) 1.1646(3) 0.40823(12)
N2A N -0.16680(14) 0.8898(3) 0.14887(14)
C3A C -0.16999(18) 0.9746(4) 0.0994(2)
C4A C -0.15920(17) 0.9688(4) 0.19628(18)
H3A H -0.1757 0.9472 0.0596
C7A C -0.16358(18) 1.1016(4) 0.1175(2)
C8A C -0.1561(2) 0.9262(5) 0.2607(2)
N3A N -0.15705(15) 1.0971(3) 0.17900(17)
H4A H -0.1636 1.1773 0.0933
H5A H -0.1815 0.8460 0.2654
H6A H -0.1739 0.9955 0.2855
H7A H -0.1110 0.9097 0.2726
C12A C -0.1406(2) 1.2124(4) 0.2179(2)
H9A H -0.1664 1.2083 0.2543
H10A H -0.1519 1.2945 0.1969
C17A C -0.0673(2) 1.2130(4) 0.2349(2)
C22A C -0.0207(3) 1.2112(7) 0.1927(3)
C23A C -0.0461(3) 1.2119(8) 0.2920(3)
H19A H -0.0336 1.2094 0.1522
H20A H -0.0769 1.2116 0.3226
Ni1A Ni -0.16548(2) 0.68672(5) 0.13802(2)
N1A N -0.10144(13) 0.7015(3) 0.06678(14)
O1A O -0.09449(12) 0.3611(3) -0.29750(12)
O2A O -0.19857(12) 0.3803(3) -0.27618(12)
O3A O 0.30149(12) 0.9746(3) 0.10458(13)
C1A C -0.11257(17) 0.6389(3) 0.01424(17)
C2A C -0.04297(16) 0.7633(4) 0.07493(18)
H1A H -0.1530 0.5963 0.0083
C5A C -0.06743(16) 0.6336(3) -0.03186(17)
C6A C 0.00601(16) 0.7621(3) 0.03264(17)
H2A H -0.0352 0.8091 0.1109
C9A C -0.00636(16) 0.6935(3) -0.02069(17)
C10A C -0.08529(17) 0.5682(4) -0.08999(17)
C11A C 0.06943(16) 0.8331(4) 0.04528(17)
H8A H 0.0264 0.6874 -0.0493
C13A C -0.15041(17) 0.5732(4) -0.11227(18)
C14A C -0.03864(17) 0.5038(4) -0.12421(17)
C15A C 0.06932(18) 0.9646(4) 0.06167(19)
C16A C 0.12967(18) 0.7674(4) 0.0417(2)
H11A H -0.1825 0.6167 -0.0902
C18A C -0.16744(17) 0.5143(4) -0.16667(18)
C19A C -0.05557(18) 0.4457(4) -0.17854(18)
H12A H 0.0049 0.4999 -0.1102
H13A H 0.0294 1.0099 0.0646
C20A C 0.12823(18) 1.0316(4) 0.07402(19)
C21A C 0.18762(17) 0.8333(4) 0.05645(19)
H14A H 0.1309 0.6786 0.0294
H15A H -0.2112 0.5166 -0.1804
C24A C -0.12050(17) 0.4518(4) -0.20106(17)
H16A H -0.0235 0.4018 -0.2005
H17A H 0.1276 1.1220 0.0835
C25A C 0.18761(17) 0.9646(4) 0.07225(17)
H18A H 0.2274 0.7871 0.0556
C26A C -0.13875(18) 0.3953(4) -0.26132(18)
C27A C 0.25018(18) 1.0384(4) 0.09048(17)
O4A O 0.24803(11) 1.1646(3) 0.09177(12)
Ni1B Ni -0.33452(2) 1.18672(5) 0.36198(2)
Ni1C Ni 0.33452(2) 1.18672(5) 0.13802(2)
Ni1D Ni -0.16548(2) 0.31328(5) -0.36198(2)
Ni1E Ni 0.16548(2) 0.31328(5) 0.86198(2)
O1D O -0.09449(12) 0.6389(3) 0.20250(12)
O1E O 0.09449(12) 0.6389(3) 0.29750(12)
O2D O -0.19857(12) 0.6197(3) 0.22382(12)
O2E O 0.19857(12) 0.6197(3) 0.27618(12)
O3B O 0.19851(12) 0.4746(3) 0.39542(13)
O3C O -0.19851(12) 0.4746(3) 0.10458(13)
O4B O 0.25197(11) 0.6646(3) 0.40823(12)
O4C O -0.25197(11) 0.6646(3) 0.09177(12)
loop_
_geom_bond_atom_site_label_1
_geom_bond_atom_site_label_2
_geom_bond_site_symmetry_1
_geom_bond_site_symmetry_2
Ni1 N1 1_555 1_555
N1 C1 1_555 1_555
N2 Ni1 1_555 1_555
O1 C26 1_555 1_555
O2 C26 1_555 1_555
O3 C27 1_555 1_555
C1 H1 1_555 1_555
C2 N1 1_555 1_555
C3 N2 1_555 1_555
C4 N2 1_555 1_555
C5 C1 1_555 1_555
C6 C2 1_555 1_555
H2 C2 1_555 1_555
H3 C3 1_555 1_555
C7 C3 1_555 1_555
C8 C4 1_555 1_555
N3 C4 1_555 1_555
C9 C5 1_555 1_555
C10 C5 1_555 1_555
C11 C6 1_555 1_555
H4 C7 1_555 1_555
H5 C8 1_555 1_555
H6 C8 1_555 1_555
H7 C8 1_555 1_555
C12 N3 1_555 1_555
H8 C9 1_555 1_555
C13 C10 1_555 1_555
C14 C10 1_555 1_555
C15 C11 1_555 1_555
C16 C11 1_555 1_555
H9 C12 1_555 1_555
H10 C12 1_555 1_555
C17 C12 1_555 1_555
H11 C13 1_555 1_555
C18 C13 1_555 1_555
C19 C14 1_555 1_555
H12 C14 1_555 1_555
H13 C15 1_555 1_555
C20 C15 1_555 1_555
C21 C16 1_555 1_555
H14 C16 1_555 1_555
C22 C17 1_555 1_555
C23 C17 1_555 1_555
H15 C18 1_555 1_555
C24 C18 1_555 1_555
H16 C19 1_555 1_555
H17 C20 1_555 1_555
C25 C20 1_555 1_555
H18 C21 1_555 1_555
H19 C22 1_555 1_555
H20 C23 1_555 1_555
C26 C24 1_555 1_555
C27 C25 1_555 1_555
O4 C27 1_555 1_555
N2A C3A 1_555 1_555
C3A H3A 1_555 1_555
C4A N2A 1_555 1_555
C7A C3A 1_555 1_555
C8A C4A 1_555 1_555
N3A C4A 1_555 1_555
H4A C7A 1_555 1_555
H5A C8A 1_555 1_555
H6A C8A 1_555 1_555
H7A C8A 1_555 1_555
C12A N3A 1_555 1_555
H9A C12A 1_555 1_555
H10A C12A 1_555 1_555
C17A C12A 1_555 1_555
C22A C23 1_555 1_555
C23A C22 1_555 1_555
H19A C22A 1_555 1_555
H20A C23A 1_555 1_555
Ni1A N2A 1_555 1_555
N1A Ni1A 1_555 1_555
O1A C26A 1_555 1_555
O2A C26A 1_555 1_555
O3A C27A 1_555 1_555
C1A N1A 1_555 1_555
C2A N1A 1_555 1_555
H1A C1A 1_555 1_555
C5A C1A 1_555 1_555
C6A C2A 1_555 1_555
H2A C2A 1_555 1_555
C9A C5A 1_555 1_555
C10A C5A 1_555 1_555
C11A C6A 1_555 1_555
H8A C9A 1_555 1_555
C13A C10A 1_555 1_555
C14A C10A 1_555 1_555
C15A C11A 1_555 1_555
C16A C11A 1_555 1_555
H11A C13A 1_555 1_555
C18A C13A 1_555 1_555
C19A C14A 1_555 1_555
H12A C14A 1_555 1_555
H13A C15A 1_555 1_555
C20A C15A 1_555 1_555
C21A C16A 1_555 1_555
H14A C16A 1_555 1_555
H15A C18A 1_555 1_555
C24A C18A 1_555 1_555
H16A C19A 1_555 1_555
H17A C20A 1_555 1_555
C25A C20A 1_555 1_555
H18A C21A 1_555 1_555
C26A C24A 1_555 1_555
C27A C25A 1_555 1_555
O4A C27A 1_555 1_555
Ni1B O3 1_555 1_555
Ni1C O3A 1_555 1_555
Ni1D O1A 1_555 1_555
Ni1E O1 1_555 1_555
O1D Ni1A 1_555 1_555
O1E Ni1 1_555 1_555
O2D Ni1A 1_555 1_555
O2E Ni1 1_555 1_555
O3B Ni1 1_555 1_555
O3C Ni1A 1_555 1_555
O4B Ni1 1_555 1_555
O4C Ni1A 1_555 1_555
O2 Ni1E 1_555 1_555
C6 C9 1_555 1_555
C7 N3 1_555 1_555
C19 C24 1_555 1_555
C21 C25 1_555 1_555
O4 Ni1B 1_555 1_555
C7A N3A 1_555 1_555
C17A C22A 1_555 1_555
C17A C23A 1_555 1_555
O2A Ni1D 1_555 1_555
C6A C9A 1_555 1_555
C19A C24A 1_555 1_555
C21A C25A 1_555 1_555
O4A Ni1C 1_555 1_555

#END
