
#######################################################################
#
#                 Cambridge Crystallographic Data Centre
#                                CCDC 
#
#######################################################################
#
# If this CIF has been generated from an entry in the Cambridge 
# Structural Database, then it will include bibliographic, chemical, 
# crystal, experimental, refinement or atomic coordinate data resulting 
# from the CCDC's data processing and validation procedures.
#
#######################################################################

data_GISVOV
_symmetry_cell_setting           monoclinic
_symmetry_space_group_name_H-M   'C 2/c'
_symmetry_Int_Tables_number      15
_space_group_name_Hall           '-C 2yn'
loop_
_symmetry_equiv_pos_site_id
_symmetry_equiv_pos_as_xyz
1 x,y,z
2 -x,y,1/2-z
3 1/2+x,1/2+y,z
4 1/2-x,1/2+y,1/2-z
5 -x,-y,-z
6 x,-y,1/2+z
7 1/2-x,1/2-y,-z
8 1/2+x,1/2-y,1/2+z
_cell_length_a                   32.498(8)
_cell_length_b                   12.812(3)
_cell_length_c                   18.172(5)
_cell_angle_alpha                90
_cell_angle_beta                 94.661(5)
_cell_angle_gamma                90
_cell_volume                     7541.15
loop_
_atom_site_label
_atom_site_type_symbol
_atom_site_fract_x
_atom_site_fract_y
_atom_site_fract_z
Ni1 Ni 0.39431(2) 0.80396(6) -0.10956(4)
O1 O 0.45397(12) 0.7633(3) -0.0720(3)
O2 O 0.83473(11) 0.6518(3) 0.3509(2)
O3 O 0.46847(17) 0.8890(4) 0.0116(4)
O4 O 0.83329(12) 0.4906(4) 0.3935(3)
N1 N 0.61949(13) 0.3544(4) 0.1330(3)
C1 C 0.65285(16) 0.3836(4) 0.1753(3)
H1 H 0.6708 0.3320 0.1944
N2 N 0.37533(17) 0.7844(4) -0.0032(3)
C2 C 0.77641(15) 0.5487(4) 0.3173(3)
C3 C 0.70089(15) 0.5110(5) 0.2383(3)
C4 C 0.66239(15) 0.4863(5) 0.1924(3)
C5 C 0.72099(17) 0.6033(5) 0.2311(3)
H2 H 0.7093 0.6542 0.1994
C6 C 0.75852(17) 0.6223(5) 0.2701(3)
H3 H 0.7718 0.6857 0.2642
C7 C 0.54951(17) 0.5810(5) 0.0120(3)
H4 H 0.5547 0.5177 -0.0106
C8 C 0.63643(15) 0.5620(5) 0.1597(3)
H5 H 0.6420 0.6322 0.1685
C9 C 0.60194(15) 0.5329(5) 0.1135(3)
C10 C 0.81818(15) 0.5656(5) 0.3576(3)
C11 C 0.75543(17) 0.4587(5) 0.3270(4)
H6 H 0.7665 0.4097 0.3607
C12 C 0.57288(15) 0.6082(5) 0.0766(3)
C13 C 0.4749(2) 0.8028(6) -0.0183(5)
N3 N 0.08797(17) 1.3153(5) -0.2843(3)
C14 C 0.71823(18) 0.4383(5) 0.2879(4)
H7 H 0.7047 0.3756 0.2949
N4 N 0.0881(2) 1.3319(6) -0.1656(4)
C15 C 0.59557(16) 0.4277(5) 0.1036(3)
H8 H 0.5724 0.4071 0.0737
C16 C 0.51104(18) 0.7384(5) 0.0117(4)
C17 C 0.5652(2) 0.7053(6) 0.1076(4)
H9 H 0.5808 0.7266 0.1502
C18 C 0.5352(2) 0.7693(6) 0.0759(5)
H10 H 0.5307 0.8340 0.0970
C19 C 0.2180(2) 1.0342(8) 0.0308(4)
C20 C 0.51917(18) 0.6446(5) -0.0193(4)
H11 H 0.5039 0.6235 -0.0622
N5 N 0.3364(2) 0.7876(7) 0.0869(4)
C21 C 0.1888(3) 1.1134(7) -0.0017(4)
C22 C 0.3419(2) 0.8204(7) 0.0204(4)
H12 H 0.3238 0.8647 -0.0068
C23 C 0.2081(3) 0.9325(8) 0.0336(5)
H13 H 0.1822 0.9108 0.0139
C24 C 0.1088(3) 1.3434(7) -0.2229(5)
H14 H 0.1357 1.3690 -0.2207
C25 C 0.2830(3) 0.9826(14) 0.0972(6)
H15 H 0.3087 1.0001 0.1202
C26 C 0.1627(4) 1.2860(8) -0.0021(5)
H16 H 0.1646 1.3534 0.0168
C27 C 0.1889(4) 1.2109(9) 0.0269(5)
H17 H 0.2073 1.2270 0.0672
C28 C 0.2351(3) 0.8604(9) 0.0647(5)
H18 H 0.2274 0.7904 0.0639
C29 C 0.2563(3) 1.0672(11) 0.0629(6)
H19 H 0.2645 1.1367 0.0630
C30 C 0.0524(4) 1.2951(12) -0.1882(8)
H20 H 0.0306 1.2812 -0.1595
C31 C 0.1600(3) 1.0917(7) -0.0606(5)
H21 H 0.1594 1.0253 -0.0814
C32 C 0.3688(3) 0.7233(9) 0.1067(5)
H22 H 0.3736 0.6878 0.1513
C33 C 0.1342(3) 1.2636(7) -0.0577(5)
C34 C 0.3917(3) 0.7209(7) 0.0513(5)
H23 H 0.4157 0.6817 0.0493
C35 C 0.3013(3) 0.8084(13) 0.1322(7)
H24 H 0.3118 0.8344 0.1802
H25 H 0.2867 0.7436 0.1396
C36 C 0.2718(3) 0.8865(12) 0.0960(5)
C37 C 0.1041(4) 1.3425(9) -0.0872(5)
H26 H 0.1168 1.4107 -0.0809
H27 H 0.0807 1.3410 -0.0572
C38 C 0.1334(3) 1.1637(9) -0.0880(5)
H28 H 0.1143 1.1472 -0.1271
C39 C 0.0530(3) 1.2804(11) -0.2625(7)
H29 H 0.0318 1.2502 -0.2930
O5 O 0.41182(13) 0.9582(3) -0.0894(3)
H30 H 0.4269 0.9819 -0.0490
H31 H 0.4055 1.0128 -0.1194
Ni1C Ni 0.10569(2) 1.30396(6) -0.39044(4)
Ni1D Ni 0.60569(2) 0.19604(6) 0.10956(4)
Ni1G Ni 0.89431(2) 0.69604(6) 0.39044(4)
O2G O 0.33473(11) 0.8482(3) -0.1491(2)
N1D N 0.38051(13) 0.6456(4) -0.1330(3)
N3C N 0.41203(17) 0.8153(5) -0.2157(3)
O6 O 0.8548(3) 0.3259(6) 0.2911(5)
H32 H 0.8739 0.2973 0.3188
H33 H 0.8390 0.2791 0.2712
O7 O 0.4900(3) 0.0141(11) 0.1254(8)
H34 H 0.5110 0.0273 0.1020
H35 H 0.4968 0.0165 0.1716
loop_
_geom_bond_atom_site_label_1
_geom_bond_atom_site_label_2
_geom_bond_site_symmetry_1
_geom_bond_site_symmetry_2
Ni1 O1 1_555 1_555
O1 C13 1_555 1_555
O2 C10 1_555 1_555
O3 C13 1_555 1_555
O4 C10 1_555 1_555
N1 C1 1_555 1_555
C1 H1 1_555 1_555
N2 Ni1 1_555 1_555
C2 C6 1_555 1_555
C3 C4 1_555 1_555
C4 C1 1_555 1_555
C5 C3 1_555 1_555
H2 C5 1_555 1_555
C6 C5 1_555 1_555
H3 C6 1_555 1_555
C7 H4 1_555 1_555
C8 C4 1_555 1_555
H5 C8 1_555 1_555
C9 C8 1_555 1_555
C10 C2 1_555 1_555
C11 C2 1_555 1_555
H6 C11 1_555 1_555
C12 C7 1_555 1_555
C13 C16 1_555 1_555
N3 C24 1_555 1_555
C14 C3 1_555 1_555
H7 C14 1_555 1_555
N4 C24 1_555 1_555
C15 N1 1_555 1_555
H8 C15 1_555 1_555
C16 C18 1_555 1_555
C17 C12 1_555 1_555
H9 C17 1_555 1_555
C18 C17 1_555 1_555
H10 C18 1_555 1_555
C19 C21 1_555 1_555
C20 C7 1_555 1_555
H11 C20 1_555 1_555
N5 C22 1_555 1_555
C21 C27 1_555 1_555
C22 N2 1_555 1_555
H12 C22 1_555 1_555
C23 C19 1_555 1_555
H13 C23 1_555 1_555
C24 H14 1_555 1_555
C25 H15 1_555 1_555
C26 H16 1_555 1_555
C27 C26 1_555 1_555
H17 C27 1_555 1_555
C28 C23 1_555 1_555
H18 C28 1_555 1_555
C29 C19 1_555 1_555
H19 C29 1_555 1_555
C30 N4 1_555 1_555
H20 C30 1_555 1_555
C31 C21 1_555 1_555
H21 C31 1_555 1_555
C32 N5 1_555 1_555
H22 C32 1_555 1_555
C33 C26 1_555 1_555
C34 N2 1_555 1_555
H23 C34 1_555 1_555
C35 N5 1_555 1_555
H24 C35 1_555 1_555
H25 C35 1_555 1_555
C36 C25 1_555 1_555
C37 N4 1_555 1_555
H26 C37 1_555 1_555
H27 C37 1_555 1_555
C38 C31 1_555 1_555
H28 C38 1_555 1_555
C39 N3 1_555 1_555
H29 C39 1_555 1_555
O5 Ni1 1_555 1_555
H30 O5 1_555 1_555
H31 O5 1_555 1_555
O6 H32 1_555 1_555
H33 O6 1_555 1_555
O7 H34 1_555 1_555
H35 O7 1_555 1_555
Ni1C N3 1_555 1_555
Ni1D N1 1_555 1_555
Ni1G O2 1_555 1_555
O2G Ni1 1_555 1_555
N1D Ni1 1_555 1_555
N3C Ni1 1_555 1_555
C9 C12 1_555 1_555
C9 C15 1_555 1_555
C11 C14 1_555 1_555
C16 C20 1_555 1_555
C25 C29 1_555 1_555
C28 C36 1_555 1_555
C30 C39 1_555 1_555
C32 C34 1_555 1_555
C33 C37 1_555 1_555
C33 C38 1_555 1_555
C35 C36 1_555 1_555

#END
