
#######################################################################
#
#                 Cambridge Crystallographic Data Centre
#                                CCDC 
#
#######################################################################
#
# If this CIF has been generated from an entry in the Cambridge 
# Structural Database, then it will include bibliographic, chemical, 
# crystal, experimental, refinement or atomic coordinate data resulting 
# from the CCDC's data processing and validation procedures.
#
#######################################################################

data_GISVEL
_symmetry_cell_setting           monoclinic
_symmetry_space_group_name_H-M   'C 2'
_symmetry_Int_Tables_number      5
_space_group_name_Hall           'C 2y'
loop_
_symmetry_equiv_pos_site_id
_symmetry_equiv_pos_as_xyz
1 x,y,z
2 -x,y,-z
3 1/2+x,1/2+y,z
4 1/2-x,1/2+y,-z
_cell_length_a                   27.381(6)
_cell_length_b                   11.289(2)
_cell_length_c                   18.020(4)
_cell_angle_alpha                90
_cell_angle_beta                 117.075(4)
_cell_angle_gamma                90
_cell_volume                     4959.64
loop_
_atom_site_label
_atom_site_type_symbol
_atom_site_fract_x
_atom_site_fract_y
_atom_site_fract_z
C1 C 0.1396(3) -0.0678(8) 1.3171(5)
H1 H 0.1481 -0.1219 1.3602
C2 C 0.0823(3) -0.0099(7) 1.1823(5)
H2 H 0.0515 -0.0244 1.1320
C3 C 0.1130(3) 0.0928(7) 1.1893(4)
C4 C 0.1593(3) 0.1093(8) 1.2664(5)
H3 H 0.1813 0.1757 1.2744
C5 C 0.1728(3) 0.0295(8) 1.3302(4)
C6 C 0.2202(3) 0.0468(8) 1.4149(5)
C7 C 0.2619(3) 0.1251(9) 1.4296(5)
H4 H 0.2608 0.1694 1.3853
C8 C 0.3053(3) 0.1406(8) 1.5071(5)
H5 H 0.3327 0.1945 1.5139
C9 C 0.3089(3) 0.0775(7) 1.5749(5)
C10 C 0.2688(4) -0.0028(9) 1.5625(6)
H6 H 0.2708 -0.0478 1.6070
C11 C 0.2244(4) -0.0183(9) 1.4829(5)
H7 H 0.1973 -0.0733 1.4757
C12 C 0.3543(3) 0.1022(8) 1.6615(5)
C13 C 0.0964(3) 0.1757(7) 1.1196(5)
C14 C 0.0996(3) 0.2979(8) 1.1336(5)
H8 H 0.1137 0.3262 1.1879
C15 C 0.0823(4) 0.3766(8) 1.0690(5)
H9 H 0.0847 0.4574 1.0803
C16 C 0.0615(3) 0.3390(7) 0.9883(5)
C17 C 0.0582(3) 0.2179(8) 0.9727(5)
H10 H 0.0448 0.1905 0.9183
C18 C 0.0750(3) 0.1372(8) 1.0384(5)
H11 H 0.0716 0.0563 1.0272
C19 C 0.0396(3) 0.4251(8) 0.9168(4)
C20 C 0.1312(3) 0.2685(8) 0.8274(5)
H12 H 0.1392 0.3206 0.8714
C21 C 0.1670(3) 0.1761(7) 0.8420(4)
C22 C 0.1537(3) 0.1019(8) 0.7733(4)
H13 H 0.1762 0.0376 0.7784
C23 C 0.1081(3) 0.1220(8) 0.6980(4)
C24 C 0.0757(3) 0.2145(8) 0.6934(5)
H14 H 0.0441 0.2267 0.6437
C25 C 0.0934(3) 0.0394(8) 0.6265(5)
C26 C 0.0985(4) -0.0810(8) 0.6360(5)
H15 H 0.1117 -0.1137 0.6890
C27 C 0.0842(4) -0.1553(8) 0.5674(5)
H16 H 0.0877 -0.2369 0.5751
C28 C 0.0645(3) -0.1085(8) 0.4868(5)
C29 C 0.0596(4) 0.0125(8) 0.4777(6)
H17 H 0.0464 0.0452 0.4246
C30 C 0.0737(3) 0.0861(8) 0.5447(5)
H18 H 0.0704 0.1676 0.5367
C31 C 0.0480(3) -0.1878(8) 0.4124(5)
C32 C 0.2161(3) 0.1606(7) 0.9227(5)
C33 C 0.2602(3) 0.0941(8) 0.9296(5)
H19 H 0.2596 0.0600 0.8822
C34 C 0.3050(3) 0.0776(9) 1.0058(5)
H20 H 0.3338 0.0306 1.0090
C35 C 0.3086(3) 0.1286(8) 1.0776(5)
C36 C 0.2648(4) 0.1946(9) 1.0716(5)
H21 H 0.2657 0.2291 1.1190
C37 C 0.2193(3) 0.2100(8) 0.9951(5)
H22 H 0.1900 0.2549 0.9923
C38 C 0.3581(4) 0.1063(8) 1.1595(5)
C39 C -0.0655(4) 0.2939(10) 0.6785(5)
H23 H -0.0561 0.2618 0.7308
C40 C -0.1111(3) 0.2674(11) 0.6081(5)
H24 H -0.1376 0.2118 0.6025
C41 C -0.0638(3) 0.3970(8) 0.5816(5)
H25 H -0.0526 0.4490 0.5524
C42 C -0.1511(3) 0.3378(8) 0.4614(5)
C43 C -0.1503(4) 0.4235(11) 0.4099(5)
H26 H -0.1235 0.4821 0.4306
C44 C -0.1892(4) 0.4262(11) 0.3257(5)
H27 H -0.1880 0.4860 0.2911
C45 C -0.2295(3) 0.3395(8) 0.2940(5)
C46 C -0.2292(4) 0.2543(11) 0.3467(5)
H28 H -0.2558 0.1954 0.3267
C47 C -0.1900(4) 0.2521(12) 0.4303(6)
H29 H -0.1907 0.1917 0.4648
C48 C -0.2711(3) 0.3428(8) 0.2043(5)
C49 C -0.2642(4) 0.4094(9) 0.1452(5)
H30 H -0.2320 0.4528 0.1619
C50 C -0.3026(3) 0.4142(8) 0.0634(5)
H31 H -0.2961 0.4572 0.0248
C51 C -0.3515(3) 0.3537(8) 0.0392(5)
C52 C -0.3589(3) 0.2845(9) 0.0948(5)
H32 H -0.3905 0.2390 0.0775
C53 C -0.3199(3) 0.2814(9) 0.1765(5)
H33 H -0.3265 0.2366 0.2144
C54 C -0.3974(3) 0.4504(10) -0.1004(5)
H34 H -0.3722 0.5105 -0.0920
C55 C -0.4454(3) 0.4327(9) -0.1696(5)
H35 H -0.4589 0.4800 -0.2171
C56 C -0.4372(3) 0.2962(8) -0.0835(5)
H36 H -0.4434 0.2291 -0.0592
Co1 Co 0.04563(4) -0.23462(16) 1.24577(6)
Co2 Co 0.03932(4) 0.44703(17) 0.75055(6)
N1 N 0.0949(2) -0.0867(6) 1.2431(4)
N2 N 0.0865(2) 0.2913(6) 0.7575(4)
N3 N -0.0351(2) 0.3752(6) 0.6611(4)
N4 N -0.1109(2) 0.3372(6) 0.5468(4)
N5 N -0.3932(3) 0.3656(6) -0.0467(4)
N6 N -0.4709(2) 0.3352(6) -0.1593(4)
O1 O 0.3569(2) 0.0461(6) 1.7222(3)
O2 O 0.3872(2) 0.1821(5) 1.6642(3)
O3 O 0.0364(2) 0.5318(5) 0.9331(3)
O4 O 0.0256(2) 0.3832(5) 0.8442(3)
O5 O 0.3622(3) 0.1584(8) 1.2231(4)
O6 O 0.3902(2) 0.0291(6) 1.1599(3)
O7 O 0.0415(2) -0.2963(6) 0.4212(3)
O8 O 0.0418(2) -0.1425(5) 0.3453(3)
O9 O 0.0648(2) 0.5083(6) 0.6608(3)
O10 O 0.0531(2) -0.3435(4) 1.1583(3)
O11 O -0.0046(2) -0.3727(5) 1.2682(3)
H37 H 0.091(2) 0.551(6) 0.688(4)
H38 H 0.0815(8) -0.381(4) 1.1704(12)
H39 H 0.0258(3) -0.371(4) 1.1194(19)
H40 H 0.053(3) 0.513(8) 0.6101(6)
H41 H 0.0085(12) -0.382(3) 1.3188(4)
H42 H -0.0365(3) -0.350(2) 1.246(3)
Co1_2 Co 0.04563(4) -0.23462(16) 0.24577(6)
Co1C Co -0.54563(4) 0.26538(16) -0.24577(6)
Co1C_2 Co 0.45437(4) 0.26538(16) 1.75423(6)
Co2A Co -0.03932(4) -0.55297(17) 1.24945(6)
Co2C Co 0.46068(4) -0.05297(17) 1.24945(6)
N6C N -0.0291(2) -0.1648(6) 1.1593(4)
O2C O 0.1128(2) -0.3179(5) 1.3358(3)
O6C O 0.1098(2) 0.5291(6) 0.8401(3)
O8_2 O 0.0418(2) -0.1425(5) 1.3453(3)
O11A O 0.0046(2) 0.6273(5) 0.7318(3)
O12 O 1.0000 0.5800(8) 0.5000
H43 H 0.983(3) 0.619(7) 0.520(5)
H43A H 1.017(3) 0.619(7) 0.480(5)
O13 O 0.2856(8) 0.238(2) 0.2772(13)
H44 H 0.2948(15) 0.266(7) 0.244(3)
H45 H 0.262(3) 0.276(7) 0.283(6)
O14 O 0.2792(4) 0.9557(13) 0.7700(8)
H46 H 0.3049(16) 0.979(8) 0.762(5)
H47 H 0.288(3) 0.906(8) 0.807(5)
loop_
_geom_bond_atom_site_label_1
_geom_bond_atom_site_label_2
_geom_bond_site_symmetry_1
_geom_bond_site_symmetry_2
C1 H1 1_555 1_555
C2 H2 1_555 1_555
C3 C2 1_555 1_555
C4 C3 1_555 1_555
H3 C4 1_555 1_555
C5 C1 1_555 1_555
C6 C5 1_555 1_555
C7 C6 1_555 1_555
H4 C7 1_555 1_555
C8 C7 1_555 1_555
H5 C8 1_555 1_555
C9 C8 1_555 1_555
C10 C9 1_555 1_555
H6 C10 1_555 1_555
C11 C6 1_555 1_555
H7 C11 1_555 1_555
C12 C9 1_555 1_555
C13 C3 1_555 1_555
C14 C13 1_555 1_555
H8 C14 1_555 1_555
C15 C14 1_555 1_555
H9 C15 1_555 1_555
C16 C15 1_555 1_555
C17 C16 1_555 1_555
H10 C17 1_555 1_555
C18 C13 1_555 1_555
H11 C18 1_555 1_555
C19 C16 1_555 1_555
C20 H12 1_555 1_555
C21 C20 1_555 1_555
C22 C21 1_555 1_555
H13 C22 1_555 1_555
C23 C22 1_555 1_555
C24 C23 1_555 1_555
H14 C24 1_555 1_555
C25 C23 1_555 1_555
C26 C25 1_555 1_555
H15 C26 1_555 1_555
C27 C26 1_555 1_555
H16 C27 1_555 1_555
C28 C27 1_555 1_555
C29 C28 1_555 1_555
H17 C29 1_555 1_555
C30 C25 1_555 1_555
H18 C30 1_555 1_555
C31 C28 1_555 1_555
C32 C21 1_555 1_555
C33 C32 1_555 1_555
H19 C33 1_555 1_555
C34 C33 1_555 1_555
H20 C34 1_555 1_555
C35 C34 1_555 1_555
C36 C35 1_555 1_555
H21 C36 1_555 1_555
C37 C32 1_555 1_555
H22 C37 1_555 1_555
C38 C35 1_555 1_555
C39 H23 1_555 1_555
C40 C39 1_555 1_555
H24 C40 1_555 1_555
C41 H25 1_555 1_555
C42 C43 1_555 1_555
C43 H26 1_555 1_555
C44 C43 1_555 1_555
H27 C44 1_555 1_555
C45 C44 1_555 1_555
C46 C45 1_555 1_555
H28 C46 1_555 1_555
C47 C42 1_555 1_555
H29 C47 1_555 1_555
C48 C45 1_555 1_555
C49 C48 1_555 1_555
H30 C49 1_555 1_555
C50 C49 1_555 1_555
H31 C50 1_555 1_555
C51 C50 1_555 1_555
C52 C51 1_555 1_555
H32 C52 1_555 1_555
C53 C48 1_555 1_555
H33 C53 1_555 1_555
C54 H34 1_555 1_555
C55 C54 1_555 1_555
H35 C55 1_555 1_555
C56 H36 1_555 1_555
Co1 N1 1_555 1_555
Co2 N2 1_555 1_555
N1 C1 1_555 1_555
N2 C20 1_555 1_555
N3 C39 1_555 1_555
N4 C40 1_555 1_555
N5 C51 1_555 1_555
N6 C55 1_555 1_555
O1 C12 1_555 1_555
O2 C12 1_555 1_555
O3 C19 1_555 1_555
O4 C19 1_555 1_555
O5 C38 1_555 1_555
O6 C38 1_555 1_555
O7 C31 1_555 1_555
O8 C31 1_555 1_555
O9 Co2 1_555 1_555
O10 Co1 1_555 1_555
O11 Co1 1_555 1_555
H37 O9 1_555 1_555
H38 O10 1_555 1_555
H39 O10 1_555 1_555
H40 O9 1_555 1_555
H41 O11 1_555 1_555
H42 O11 1_555 1_555
O12 H43 1_555 1_555
O13 H44 1_555 1_555
H45 O13 1_555 1_555
O14 H46 1_555 1_555
H47 O14 1_555 1_555
Co1_2 O8 1_555 1_555
Co1C N6 1_555 1_555
Co1C_2 O2 1_555 1_555
Co2A O11 1_555 1_555
Co2C O6 1_555 1_555
N6C Co1 1_555 1_555
O2C Co1 1_555 1_555
O6C Co2 1_555 1_555
O8_2 Co1 1_555 1_555
O11A Co2 1_555 1_555
H43A O12 1_555 1_555
C2 N1 1_555 1_555
C4 C5 1_555 1_555
C10 C11 1_555 1_555
C17 C18 1_555 1_555
C24 N2 1_555 1_555
C29 C30 1_555 1_555
C36 C37 1_555 1_555
C41 N3 1_555 1_555
C41 N4 1_555 1_555
C42 N4 1_555 1_555
C46 C47 1_555 1_555
C52 C53 1_555 1_555
C54 N5 1_555 1_555
C56 N5 1_555 1_555
C56 N6 1_555 1_555
Co2 N3 1_555 1_555
Co2 O4 1_555 1_555

#END
