
#######################################################################
#
#                 Cambridge Crystallographic Data Centre
#                                CCDC 
#
#######################################################################
#
# If this CIF has been generated from an entry in the Cambridge 
# Structural Database, then it will include bibliographic, chemical, 
# crystal, experimental, refinement or atomic coordinate data resulting 
# from the CCDC's data processing and validation procedures.
#
#######################################################################

data_GISWAI
_symmetry_cell_setting           monoclinic
_symmetry_space_group_name_H-M   'C 2/c'
_symmetry_Int_Tables_number      15
_space_group_name_Hall           '-C 2yn'
loop_
_symmetry_equiv_pos_site_id
_symmetry_equiv_pos_as_xyz
1 x,y,z
2 -x,y,1/2-z
3 1/2+x,1/2+y,z
4 1/2-x,1/2+y,1/2-z
5 -x,-y,-z
6 x,-y,1/2+z
7 1/2-x,1/2-y,-z
8 1/2+x,1/2-y,1/2+z
_cell_length_a                   20.768(5)
_cell_length_b                   10.017(3)
_cell_length_c                   16.158(4)
_cell_angle_alpha                90
_cell_angle_beta                 121.098(4)
_cell_angle_gamma                90
_cell_volume                     2878.32
loop_
_atom_site_label
_atom_site_type_symbol
_atom_site_fract_x
_atom_site_fract_y
_atom_site_fract_z
Mn1 Mn 0.14083(3) 0.45526(5) 0.36876(4)
N1 N -0.25534(15) -0.0418(3) 0.3587(2)
O1 O 0.16013(13) 0.1962(3) 0.3808(2)
O2 O 0.06493(13) 0.3047(2) 0.3696(2)
O3 O 0.14233(14) -0.3089(3) 0.3555(2)
O4 O 0.06130(14) -0.4069(3) 0.3818(2)
O5 O 0.21538(17) 0.4547(3) 0.5255(2)
C1 C 0.2075(4) 0.5188(8) 0.5953(5)
H1 H 0.2501 0.4991 0.6579
H2 H 0.1624 0.4886 0.5920
H3 H 0.2045 0.6134 0.5844
C2 C 0.06002(17) 0.0696(3) 0.3740(2)
C3 C 0.05598(16) -0.1700(3) 0.3711(2)
C4 C -0.04423(17) -0.0453(3) 0.3693(2)
O6 O 0.07191(7) 0.4368(2) 0.20884(14)
C5 C -0.00720(17) 0.0717(3) 0.3722(2)
H4 H -0.0282 0.1534 0.3729
C6 C -0.01114(16) -0.1658(3) 0.3704(2)
H5 H -0.0342 -0.2452 0.3707
C7 C 0.09804(17) 0.1973(3) 0.3756(2)
C8 C -0.14423(19) 0.0691(4) 0.3870(3)
H6 H -0.1159 0.1471 0.4056
C9 C 0.09117(18) -0.0524(3) 0.3721(2)
H7 H 0.1357 -0.0549 0.3715
C10 C -0.11769(18) -0.0426(3) 0.3638(2)
C11 C 0.08908(18) -0.3029(4) 0.3692(3)
C12 C -0.2119(2) 0.0661(4) 0.3827(3)
H8 H -0.2284 0.1439 0.3973
C13 C -0.1648(2) -0.1523(4) 0.3345(4)
H9 H -0.1513 -0.2296 0.3152
C14 C -0.2312(2) -0.1488(4) 0.3336(4)
H10 H -0.2609 -0.2251 0.3144
H11 H 0.08335(10) 0.4888(4) 0.1790(3)
H12 H 0.02858(12) 0.4084(5) 0.1766(3)
Mn1_2 Mn 0.14083(3) -0.54474(5) 0.36876(4)
Mn1B Mn -0.35917(3) -0.04474(5) 0.36876(4)
N1B N 0.24466(15) 0.4582(3) 0.3587(2)
O3_2 O 0.14233(14) 0.6911(3) 0.3555(2)
O4_2 O 0.06130(14) 0.5931(3) 0.3818(2)
loop_
_geom_bond_atom_site_label_1
_geom_bond_atom_site_label_2
_geom_bond_site_symmetry_1
_geom_bond_site_symmetry_2
Mn1 O2 1_555 1_555
N1 C12 1_555 1_555
O1 C7 1_555 1_555
O2 C7 1_555 1_555
O3 C11 1_555 1_555
O4 C11 1_555 1_555
O5 Mn1 1_555 1_555
C1 O5 1_555 1_555
H1 C1 1_555 1_555
H2 C1 1_555 1_555
H3 C1 1_555 1_555
C2 C5 1_555 1_555
C3 C6 1_555 1_555
C4 C5 1_555 1_555
O6 Mn1 1_555 1_555
C5 H4 1_555 1_555
C6 C4 1_555 1_555
H5 C6 1_555 1_555
C7 C2 1_555 1_555
C8 H6 1_555 1_555
C9 C2 1_555 1_555
H7 C9 1_555 1_555
C10 C4 1_555 1_555
C11 C3 1_555 1_555
C12 C8 1_555 1_555
H8 C12 1_555 1_555
C13 C10 1_555 1_555
H9 C13 1_555 1_555
C14 N1 1_555 1_555
H10 C14 1_555 1_555
H11 O6 1_555 1_555
H12 O6 1_555 1_555
Mn1_2 O3 1_555 1_555
Mn1B N1 1_555 1_555
N1B Mn1 1_555 1_555
O3_2 Mn1 1_555 1_555
O4_2 Mn1 1_555 1_555
O4 Mn1_2 1_555 1_555
C3 C9 1_555 1_555
C8 C10 1_555 1_555
C13 C14 1_555 1_555

#END
