
#######################################################################
#
#                 Cambridge Crystallographic Data Centre
#                                CCDC 
#
#######################################################################
#
# If this CIF has been generated from an entry in the Cambridge 
# Structural Database, then it will include bibliographic, chemical, 
# crystal, experimental, refinement or atomic coordinate data resulting 
# from the CCDC's data processing and validation procedures.
#
#######################################################################

data_GISWIQ
_symmetry_cell_setting           orthorhombic
_symmetry_space_group_name_H-M   'P b c a'
_symmetry_Int_Tables_number      61
_space_group_name_Hall           '-P 2ac 2ab'
loop_
_symmetry_equiv_pos_site_id
_symmetry_equiv_pos_as_xyz
1 x,y,z
2 1/2-x,-y,1/2+z
3 1/2+x,1/2-y,-z
4 -x,1/2+y,1/2-z
5 -x,-y,-z
6 1/2+x,y,1/2-z
7 1/2-x,1/2+y,z
8 x,1/2-y,1/2+z
_cell_length_a                   16.8210(12)
_cell_length_b                   19.1858(14)
_cell_length_c                   20.6555(15)
_cell_angle_alpha                90
_cell_angle_beta                 90
_cell_angle_gamma                90
_cell_volume                     6666.03
loop_
_atom_site_label
_atom_site_type_symbol
_atom_site_fract_x
_atom_site_fract_y
_atom_site_fract_z
C1 C 0.3388(3) 0.9829(3) 0.1897(3)
H1 H 0.3475 0.9497 0.1576
C2 C 0.3501(4) 1.0439(3) 0.2758(3)
H2 H 0.3690 1.0607 0.3151
C3 C 0.2863(4) 1.0691(3) 0.2437(3)
H3 H 0.2538 1.1058 0.2566
C4 C 0.2168(4) 1.0395(4) 0.1396(3)
H4 H 0.2183 1.0874 0.1245
H5 H 0.1655 1.0319 0.1598
C5 C 0.2241(4) 0.9924(4) 0.0831(3)
C6 C 0.2822(4) 1.0035(4) 0.0359(3)
H6 H 0.3169 1.0410 0.0394
C7 C 0.2875(4) 0.9587(4) -0.0157(3)
H7 H 0.3268 0.9665 -0.0466
C8 C 0.2359(4) 0.9013(4) -0.0237(3)
C9 C 0.1795(4) 0.8916(4) 0.0236(3)
H8 H 0.1449 0.8540 0.0206
C10 C 0.1730(4) 0.9368(4) 0.0760(3)
H9 H 0.1334 0.9294 0.1068
C11 C 0.2435(4) 0.8534(3) -0.0786(3)
C12 C 0.3143(4) 0.8396(4) -0.1092(3)
H10 H 0.3599 0.8626 -0.0953
C13 C 0.3203(4) 0.7927(3) -0.1598(3)
H11 H 0.3695 0.7850 -0.1789
C14 C 0.2554(4) 0.7577(3) -0.1822(3)
C15 C 0.1830(4) 0.7719(4) -0.1538(4)
H12 H 0.1375 0.7497 -0.1689
C16 C 0.1773(4) 0.8190(4) -0.1027(4)
H13 H 0.1278 0.8276 -0.0843
C17 C 0.2622(4) 0.7090(4) -0.2383(3)
H14 H 0.2507 0.7341 -0.2780
H15 H 0.3164 0.6919 -0.2410
C18 C 0.2180(4) 0.5930(4) -0.1957(4)
H16 H 0.2627 0.5820 -0.1712
C19 C 0.1346(4) 0.6449(3) -0.2577(3)
H17 H 0.1121 0.6782 -0.2847
N1 N 0.0981(3) 0.5875(3) -0.2398(2)
C20 C 0.5271(3) 1.0878(3) 0.2781(3)
C21 C 0.5371(3) 1.1436(3) 0.3297(2)
C22 C 0.5379(3) 1.2136(3) 0.3135(2)
H18 H 0.5344 1.2266 0.2702
C23 C 0.5439(3) 1.2648(3) 0.3607(2)
C24 C 0.5490(3) 1.2450(3) 0.4257(2)
H19 H 0.5531 1.2789 0.4577
C25 C 0.5479(3) 1.1741(3) 0.4428(2)
C26 C 0.5401(3) 1.1246(3) 0.3942(2)
H20 H 0.5369 1.0777 0.4053
C27 C 0.5412(3) 1.3410(3) 0.3420(3)
C28 C 0.5490(3) 1.1522(3) 0.5127(2)
C29 C 0.5247(3) 1.1944(3) 0.5624(2)
H21 H 0.5099 1.2402 0.5540
C30 C 0.5223(4) 1.1688(3) 0.6253(3)
H22 H 0.5061 1.1989 0.6580
C31 C 0.5670(4) 1.0642(3) 0.5935(3)
H23 H 0.5822 1.0189 0.6035
C32 C 0.5721(4) 1.0853(3) 0.5300(3)
H24 H 0.5911 1.0547 0.4987
Cu1 Cu 0.48611(4) 0.94189(3) 0.25633(3)
N2 N 0.3828(3) 0.9897(2) 0.2415(2)
N3 N 0.2792(3) 1.0300(3) 0.1885(2)
N4 N 0.2081(3) 0.6501(3) -0.2325(3)
C33 C 0.1518(4) 0.5551(4) -0.2009(3)
H25 H 0.1436 0.5124 -0.1806
N5 N 0.5415(3) 1.1048(2) 0.6415(2)
O1 O 0.5505(2) 1.35384(18) 0.28241(17)
O2 O 0.5292(3) 1.38549(19) 0.38503(18)
O3 O 0.5227(3) 1.1049(2) 0.22117(18)
O4 O 0.5250(2) 1.02597(18) 0.30006(17)
N1B N 0.5981(3) 0.9125(3) 0.2398(2)
Cu1B Cu -0.01389(4) 0.55811(3) -0.25633(3)
Cu1C Cu 0.51389(4) 1.44189(3) 0.24367(3)
Cu1D Cu 0.51389(4) 1.05811(3) 0.74367(3)
N5D N 0.4585(3) 0.8952(2) 0.3585(2)
O1C O 0.4495(2) 0.85384(18) 0.21759(17)
O5 O 0.5121(4) 0.0295(3) 0.1051(2)
H26 H 0.506(3) 0.048(3) 0.1408(11)
H27 H 0.490(4) 0.050(3) 0.0754(15)
O6 O 0.4582(4) 0.3787(5) 0.5112(3)
H28 H 0.5066(8) 0.373(4) 0.512(3)
H29 H 0.441(3) 0.396(4) 0.4776(19)
O7 O 0.3955(5) 0.2042(4) 0.1762(3)
H30 H 0.426(2) 0.182(3) 0.152(2)
H31 H 0.355(3) 0.218(4) 0.159(2)
O8 O 0.3153(8) 0.1944(5) 0.0402(6)
H32? H 0.149(2) 0.777(2) -0.166(3)
H33? H 0.173(3) 0.837(2) -0.135(3)
loop_
_geom_bond_atom_site_label_1
_geom_bond_atom_site_label_2
_geom_bond_site_symmetry_1
_geom_bond_site_symmetry_2
C1 H1 1_555 1_555
C2 H2 1_555 1_555
C3 C2 1_555 1_555
H3 C3 1_555 1_555
C4 H4 1_555 1_555
H5 C4 1_555 1_555
C5 C4 1_555 1_555
C6 C5 1_555 1_555
H6 C6 1_555 1_555
C7 C6 1_555 1_555
H7 C7 1_555 1_555
C8 C7 1_555 1_555
C9 C8 1_555 1_555
H8 C9 1_555 1_555
C10 C5 1_555 1_555
H9 C10 1_555 1_555
C11 C8 1_555 1_555
C12 C11 1_555 1_555
H10 C12 1_555 1_555
C13 C12 1_555 1_555
H11 C13 1_555 1_555
C14 C13 1_555 1_555
C15 C14 1_555 1_555
H12 C15 1_555 1_555
C16 C11 1_555 1_555
H13 C16 1_555 1_555
C17 C14 1_555 1_555
H14 C17 1_555 1_555
H15 C17 1_555 1_555
C18 H16 1_555 1_555
C19 H17 1_555 1_555
N1 C19 1_555 1_555
C20 C21 1_555 1_555
C21 C22 1_555 1_555
C22 H18 1_555 1_555
C23 C22 1_555 1_555
C24 C23 1_555 1_555
H19 C24 1_555 1_555
C25 C24 1_555 1_555
C26 C21 1_555 1_555
H20 C26 1_555 1_555
C27 C23 1_555 1_555
C28 C25 1_555 1_555
C29 C28 1_555 1_555
H21 C29 1_555 1_555
C30 C29 1_555 1_555
H22 C30 1_555 1_555
C31 H23 1_555 1_555
C32 C28 1_555 1_555
H24 C32 1_555 1_555
Cu1 N2 1_555 1_555
N2 C1 1_555 1_555
N3 C1 1_555 1_555
N4 C17 1_555 1_555
C33 C18 1_555 1_555
H25 C33 1_555 1_555
N5 C30 1_555 1_555
O1 C27 1_555 1_555
O2 C27 1_555 1_555
O3 C20 1_555 1_555
O4 C20 1_555 1_555
O5 H26 1_555 1_555
H27 O5 1_555 1_555
O6 H28 1_555 1_555
H29 O6 1_555 1_555
O7 H30 1_555 1_555
H31 O7 1_555 1_555
N1B Cu1 1_555 1_555
Cu1B N1 1_555 1_555
Cu1C O1 1_555 1_555
Cu1D N5 1_555 1_555
N5D Cu1 1_555 1_555
O1C Cu1 1_555 1_555
C2 N2 1_555 1_555
C3 N3 1_555 1_555
C4 N3 1_555 1_555
C9 C10 1_555 1_555
C15 C16 1_555 1_555
C18 N4 1_555 1_555
C19 N4 1_555 1_555
N1 C33 1_555 1_555
C25 C26 1_555 1_555
C31 C32 1_555 1_555
C31 N5 1_555 1_555
Cu1 O4 1_555 1_555

#END
