
#######################################################################
#
#                 Cambridge Crystallographic Data Centre
#                                CCDC 
#
#######################################################################
#
# If this CIF has been generated from an entry in the Cambridge 
# Structural Database, then it will include bibliographic, chemical, 
# crystal, experimental, refinement or atomic coordinate data resulting 
# from the CCDC's data processing and validation procedures.
#
#######################################################################

data_GITBES
_symmetry_cell_setting           monoclinic
_symmetry_space_group_name_H-M   'P 21/c'
_symmetry_Int_Tables_number      14
_space_group_name_Hall           '-P 2ybc'
loop_
_symmetry_equiv_pos_site_id
_symmetry_equiv_pos_as_xyz
1 x,y,z
2 -x,1/2+y,1/2-z
3 -x,-y,-z
4 x,1/2-y,1/2+z
_cell_length_a                   17.9901(15)
_cell_length_b                   13.5567(12)
_cell_length_c                   15.6762(16)
_cell_angle_alpha                90
_cell_angle_beta                 91.684(9)
_cell_angle_gamma                90
_cell_volume                     3821.56
loop_
_atom_site_label
_atom_site_type_symbol
_atom_site_fract_x
_atom_site_fract_y
_atom_site_fract_z
Cd1 Cd 0.97026(3) 1.56443(5) 0.80275(4)
S1 S 1.08452(11) 1.38066(18) 0.89893(15)
O1 O 1.0250(3) 1.4178(4) 0.8420(4)
N1 N 0.9330(4) 1.3988(6) 0.2881(5)
C1 C 0.9448(5) 1.3367(7) 0.3546(7)
H1 H 0.9936 1.3121 0.3649
Cd2 Cd 0.54335(3) 0.94156(5) 0.80342(4)
S2 S 0.41693(12) 1.11193(18) 0.88984(15)
O2 O 1.0523(3) 1.3133(5) 0.9616(4)
N2 N 0.9013(3) 1.4856(5) 0.6976(5)
C2 C 0.8896(5) 1.3073(10) 0.4081(7)
H2 H 0.9000 1.2637 0.4544
O3 O 1.1211(3) 1.4635(5) 0.9439(4)
N3 N 0.6094(4) 1.0292(5) 0.7053(5)
C3 C 0.8168(5) 1.3439(8) 0.3920(7)
O4 O 1.1381(3) 1.3230(6) 0.8494(5)
N4 N 0.5520(3) 1.1030(5) 0.2903(5)
C4 C 0.8061(5) 1.4089(9) 0.3268(7)
H3 H 0.7584 1.4368 0.3153
O5 O 0.4830(3) 1.0841(5) 0.8418(4)
C5 C 0.8642(4) 1.4333(8) 0.2786(7)
H4 H 0.8551 1.4793 0.2338
O6 O 0.4369(3) 1.1842(5) 0.9555(4)
C6 C 0.7473(5) 1.3103(8) 0.4393(7)
H5 H 0.7009 1.3391 0.4130
O7 O 0.3592(3) 1.1532(5) 0.8318(4)
C7 C 0.9045(6) 1.3855(8) 0.6970(8)
H6 H 0.9409 1.3540 0.7327
O8 O 0.3861(3) 1.0227(5) 0.9316(4)
C8 C 0.8572(6) 1.3267(9) 0.6468(8)
H7 H 0.8616 1.2569 0.6488
O9 O 1.0376(3) 1.6249(4) 0.9175(4)
H8 H 1.0601 1.5869 0.9529
H9 H 1.0606 1.6797 0.9178
C9 C 0.8053(5) 1.3694(8) 0.5956(6)
O10 O 0.9227(4) 1.7195(5) 0.7824(5)
H10 H 0.9084 1.7740 0.7607
H11 H 0.9252 1.7267 0.8363
C10 C 0.8006(6) 1.4698(9) 0.5965(8)
H12 H 0.7650 1.5027 0.5608
O11 O 0.8659(3) 1.5347(5) 0.8828(4)
H13 H 0.8429 1.4958 0.9153
H14 H 0.8336 1.5694 0.8558
C11 C 0.8466(6) 1.5219(9) 0.6483(8)
H15 H 0.8393 1.5913 0.6497
O12 O 0.6407(3) 0.9720(5) 0.8988(4)
H16 H 0.6810 1.0023 0.8892
H17 H 0.6390 0.9627 0.9523
C12 C 0.7445(5) 1.3093(9) 0.5414(7)
H18 H 0.6936 1.3285 0.5595
O13 O 0.4766(3) 0.8690(4) 0.9091(4)
H19 H 0.4350 0.8882 0.9275
H20 H 0.4948 0.8278 0.9449
C13 C 0.6020(6) 1.1269(8) 0.7020(7)
H21 H 0.5680 1.1585 0.7383
O14 O 0.6020(5) 0.7924(6) 0.7848(5)
H22 H 0.6194 0.8009 0.8353
H23 H 0.6224 0.7412 0.7647
C14 C 0.6433(6) 1.1839(8) 0.6462(8)
H24 H 0.6347 1.2530 0.6434
C15 C 0.6954(5) 1.1436(9) 0.5958(6)
C16 C 0.7047(6) 1.0426(9) 0.6022(8)
H25 H 0.7422 1.0104 0.5711
C17 C 0.6599(5) 0.9898(8) 0.6534(7)
H26 H 0.6646 0.9200 0.6525
C18 C 0.7521(5) 1.1994(9) 0.5435(6)
H27 H 0.8039 1.1801 0.5616
C19 C 0.6230(6) 1.0793(10) 0.2771(7)
H28 H 0.6315 1.0412 0.2274
C20 C 0.6828(6) 1.1020(10) 0.3240(7)
H29 H 0.7302 1.0771 0.3098
C21 C 0.6749(6) 1.1635(9) 0.3952(7)
C22 C 0.6018(6) 1.1891(8) 0.4111(7)
H30 H 0.5923 1.2292 0.4592
C23 C 0.5423(5) 1.1588(7) 0.3598(6)
H31 H 0.4934 1.1779 0.3741
C24 C 0.7431(5) 1.1987(9) 0.4435(7)
H32 H 0.7884 1.1694 0.4181
Cd1B Cd 1.02974(3) 1.43557(5) 0.19725(4)
N1B N 1.0670(4) 1.6012(6) 0.7119(5)
Cd2B Cd 0.45665(3) 1.05844(5) 0.19658(4)
N4B N 0.4480(3) 0.8970(5) 0.7097(5)
O15 O 0.6186(8) 0.6607(11) 0.9308(8)
H33 H 0.6144 0.7139 0.9589
C25 C 0.5652(12) 0.5998(17) 0.9416(13)
H34 H 0.5693 0.5720 0.9992
H35 H 0.5679 0.5466 0.8995
H36 H 0.5175 0.6343 0.9343
O16 O 1.1015(5) 1.1733(7) 1.0676(5)
H37 H 1.0923 1.2244 1.0378
C26 C 1.0550(8) 1.0922(13) 1.0524(12)
H38 H 1.0161 1.0911 1.0948
H39 H 1.0843 1.0313 1.0567
H40 H 1.0321 1.0974 0.9951
O17 O 0.7473(5) 0.8274(8) 0.9153(6)
H41 H 0.7305 0.8779 0.8890
H42 H 0.7941 0.8260 0.9094
O18 O 0.7486(4) 1.6352(8) 0.8140(7)
H43 H 0.7493 1.6426 0.7602
H44 H 0.7089 1.6044 0.8254
O19 O 0.2702(4) 1.2697(7) 0.9333(5)
H45 H 0.2289 1.2696 0.9055
H46 H 0.3044 1.2598 0.8981
loop_
_geom_bond_atom_site_label_1
_geom_bond_atom_site_label_2
_geom_bond_site_symmetry_1
_geom_bond_site_symmetry_2
Cd1 O1 1_555 1_555
S1 O1 1_555 1_555
N1 C1 1_555 1_555
C1 H1 1_555 1_555
Cd2 N3 1_555 1_555
S2 O5 1_555 1_555
O2 S1 1_555 1_555
N2 Cd1 1_555 1_555
C2 C1 1_555 1_555
H2 C2 1_555 1_555
O3 S1 1_555 1_555
N3 C13 1_555 1_555
C3 C2 1_555 1_555
O4 S1 1_555 1_555
N4 C19 1_555 1_555
C4 C3 1_555 1_555
H3 C4 1_555 1_555
O5 Cd2 1_555 1_555
C5 N1 1_555 1_555
H4 C5 1_555 1_555
O6 S2 1_555 1_555
C6 C3 1_555 1_555
H5 C6 1_555 1_555
O7 S2 1_555 1_555
C7 N2 1_555 1_555
H6 C7 1_555 1_555
O8 S2 1_555 1_555
C8 C7 1_555 1_555
H7 C8 1_555 1_555
O9 Cd1 1_555 1_555
H8 O9 1_555 1_555
H9 O9 1_555 1_555
C9 C8 1_555 1_555
O10 Cd1 1_555 1_555
H10 O10 1_555 1_555
H11 O10 1_555 1_555
C10 C9 1_555 1_555
H12 C10 1_555 1_555
O11 Cd1 1_555 1_555
H13 O11 1_555 1_555
H14 O11 1_555 1_555
C11 N2 1_555 1_555
H15 C11 1_555 1_555
O12 Cd2 1_555 1_555
H16 O12 1_555 1_555
H17 O12 1_555 1_555
C12 C6 1_555 1_555
H18 C12 1_555 1_555
O13 Cd2 1_555 1_555
H19 O13 1_555 1_555
H20 O13 1_555 1_555
C13 H21 1_555 1_555
O14 Cd2 1_555 1_555
H22 O14 1_555 1_555
H23 O14 1_555 1_555
C14 C13 1_555 1_555
H24 C14 1_555 1_555
C15 C14 1_555 1_555
C16 C15 1_555 1_555
H25 C16 1_555 1_555
C17 N3 1_555 1_555
H26 C17 1_555 1_555
C18 C12 1_555 1_555
H27 C18 1_555 1_555
C19 H28 1_555 1_555
C20 C19 1_555 1_555
H29 C20 1_555 1_555
C21 C20 1_555 1_555
C22 C21 1_555 1_555
H30 C22 1_555 1_555
C23 N4 1_555 1_555
H31 C23 1_555 1_555
C24 C6 1_555 1_555
H32 C24 1_555 1_555
O15 H33 1_555 1_555
C25 O15 1_555 1_555
H34 C25 1_555 1_555
H35 C25 1_555 1_555
H36 C25 1_555 1_555
O16 H37 1_555 1_555
C26 O16 1_555 1_555
H38 C26 1_555 1_555
H39 C26 1_555 1_555
H40 C26 1_555 1_555
O17 H41 1_555 1_555
H42 O17 1_555 1_555
O18 H43 1_555 1_555
H44 O18 1_555 1_555
O19 H45 1_555 1_555
H46 O19 1_555 1_555
Cd1B N1 1_555 1_555
N1B Cd1 1_555 1_555
Cd2B N4 1_555 1_555
N4B Cd2 1_555 1_555
C4 C5 1_555 1_555
C9 C12 1_555 1_555
C10 C11 1_555 1_555
C15 C18 1_555 1_555
C16 C17 1_555 1_555
C18 C24 1_555 1_555
C21 C24 1_555 1_555
C22 C23 1_555 1_555

#END
