
#######################################################################
#
#                 Cambridge Crystallographic Data Centre
#                                CCDC 
#
#######################################################################
#
# If this CIF has been generated from an entry in the Cambridge 
# Structural Database, then it will include bibliographic, chemical, 
# crystal, experimental, refinement or atomic coordinate data resulting 
# from the CCDC's data processing and validation procedures.
#
#######################################################################

data_GITBIW
_symmetry_cell_setting           monoclinic
_symmetry_space_group_name_H-M   'C 2/c'
_symmetry_Int_Tables_number      15
_space_group_name_Hall           '-C 2yn'
loop_
_symmetry_equiv_pos_site_id
_symmetry_equiv_pos_as_xyz
1 x,y,z
2 -x,y,1/2-z
3 1/2+x,1/2+y,z
4 1/2-x,1/2+y,1/2-z
5 -x,-y,-z
6 x,-y,1/2+z
7 1/2-x,1/2-y,-z
8 1/2+x,1/2-y,1/2+z
_cell_length_a                   25.3104(9)
_cell_length_b                   13.9294(5)
_cell_length_c                   19.6913(7)
_cell_angle_alpha                90
_cell_angle_beta                 128.8180(10)
_cell_angle_gamma                90
_cell_volume                     5409.06
loop_
_atom_site_label
_atom_site_type_symbol
_atom_site_fract_x
_atom_site_fract_y
_atom_site_fract_z
Cd1 Cd 0.295410(7) 0.210760(10) 0.305957(8)
O1 O 0.31067(9) 0.04164(13) 0.30300(12)
O2 O 0.40732(12) 0.07790(15) 0.33694(15)
O3 O 0.37167(10) -0.06694(13) 0.30324(16)
O4 O 0.25831(9) 0.35862(12) 0.31702(12)
O5 O 0.23547(9) 0.20112(12) 0.15840(10)
N1 N 0.19557(8) 0.16248(13) 0.27965(12)
N2 N 0.12412(10) -0.20633(13) 0.18905(12)
N3 N 0.36304(9) 0.19588(12) 0.45718(10)
N4 N 0.32436(11) -0.17960(16) 0.48702(13)
N5 N 0.36344(10) 0.01745(14) 0.31473(13)
C1 C 0.13638(11) 0.19650(16) 0.20835(15)
H1 H 0.1372 0.2383 0.1709
C2 C 0.07446(11) 0.17378(16) 0.18679(15)
H2 H 0.0339 0.1983 0.1348
C3 C 0.07170(10) 0.11522(14) 0.24104(13)
C4 C 0.13345(11) 0.08218(16) 0.31693(14)
H3 H 0.1342 0.0437 0.3574
C5 C 0.19351(10) 0.10587(15) 0.33274(14)
H4 H 0.2349 0.0808 0.3834
C6 C 0.00397(10) 0.08331(14) 0.21359(13)
H5 H -0.0346 0.1167 0.1595
C7 C -0.00574(10) -0.02915(14) 0.20675(13)
H6 H -0.0544 -0.0445 0.1581
C8 C 0.03842(10) -0.09200(15) 0.19914(13)
C9 C 0.07852(12) -0.16294(17) 0.26037(15)
H7 H 0.0777 -0.1731 0.3074
C10 C 0.11975(13) -0.21872(17) 0.25269(16)
H8 H 0.1461 -0.2679 0.2944
C11 C 0.08441(11) -0.13852(16) 0.12877(15)
H9 H 0.0863 -0.1297 0.0825
C12 C 0.04100(11) -0.08116(16) 0.13114(14)
H10 H 0.0133 -0.0349 0.0868
C13 C 0.33983(11) 0.21967(15) 0.49993(13)
H11 H 0.3005 0.2589 0.4712
C14 C 0.37068(11) 0.18961(15) 0.58449(13)
H12 H 0.3521 0.2074 0.6123
C15 C 0.42870(10) 0.13350(14) 0.62823(12)
C16 C 0.45440(10) 0.11260(15) 0.58493(12)
H13 H 0.4951 0.0767 0.6132
C17 C 0.42028(10) 0.14438(16) 0.50034(12)
H14 H 0.4383 0.1289 0.4715
C18 C 0.46035(10) 0.09480(14) 0.71738(11)
H15 H 0.4411 0.1261 0.7433
C19 C 0.46134(10) -0.01822(14) 0.72532(12)
H16 H 0.4528 -0.0356 0.7669
C20 C 0.41483(11) -0.07646(15) 0.64319(12)
C21 C 0.34493(12) -0.07188(17) 0.59638(15)
H17 H 0.3265 -0.0332 0.6168
C22 C 0.30213(12) -0.12416(19) 0.51968(16)
H18 H 0.2546 -0.1202 0.4890
C23 C 0.39120(14) -0.1853(2) 0.53320(17)
H19 H 0.4082 -0.2259 0.5120
C24 C 0.43802(12) -0.13574(18) 0.61067(15)
H20 H 0.4853 -0.1426 0.6407
H21 H 0.2158 0.1477 0.1358
H22 H 0.2193 0.2411 0.1172
H23 H 0.2190 0.3770 0.2734
H24 H 0.2843 0.4070 0.3409
N1A N -0.19557(8) 0.16248(13) 0.22035(12)
N2A N -0.12412(10) -0.20633(13) 0.31095(12)
C1A C -0.13638(11) 0.19650(16) 0.29165(15)
H1A H -0.1372 0.2383 0.3291
C2A C -0.07446(11) 0.17378(16) 0.31321(15)
H2A H -0.0339 0.1983 0.3652
C3A C -0.07170(10) 0.11522(14) 0.25896(13)
C4A C -0.13345(11) 0.08218(16) 0.18307(14)
H3A H -0.1342 0.0437 0.1426
C5A C -0.19351(10) 0.10587(15) 0.16726(14)
H4A H -0.2349 0.0808 0.1166
C6A C -0.00397(10) 0.08331(14) 0.28641(13)
H5A H 0.0346 0.1167 0.3405
C7A C 0.00574(10) -0.02915(14) 0.29325(13)
H6A H 0.0544 -0.0445 0.3419
C8A C -0.03842(10) -0.09200(15) 0.30086(13)
C9A C -0.07852(12) -0.16294(17) 0.23963(15)
H7A H -0.0777 -0.1731 0.1926
C10A C -0.11975(13) -0.21872(17) 0.24731(16)
H8A H -0.1461 -0.2679 0.2056
C11A C -0.08441(11) -0.13852(16) 0.37123(15)
H9A H -0.0863 -0.1297 0.4175
C12A C -0.04100(11) -0.08116(16) 0.36886(14)
H10A H -0.0133 -0.0349 0.4132
N3A N 0.63696(9) 0.19588(12) 1.04282(10)
N4A N 0.67564(11) -0.17960(16) 1.01298(13)
C13A C 0.66017(11) 0.21967(15) 1.00007(13)
H11A H 0.6995 0.2589 1.0288
C14A C 0.62932(11) 0.18961(15) 0.91551(13)
H12A H 0.6479 0.2074 0.8877
C15A C 0.57130(10) 0.13350(14) 0.87177(12)
C16A C 0.54560(10) 0.11260(15) 0.91507(12)
H13A H 0.5049 0.0767 0.8868
C17A C 0.57972(10) 0.14438(16) 0.99966(12)
H14A H 0.5617 0.1289 1.0285
C18A C 0.53965(10) 0.09480(14) 0.78262(11)
H15A H 0.5589 0.1261 0.7567
C19A C 0.53866(10) -0.01822(14) 0.77468(12)
H16A H 0.5472 -0.0356 0.7331
C20A C 0.58517(11) -0.07646(15) 0.85681(12)
C21A C 0.65507(12) -0.07188(17) 0.90362(15)
H17A H 0.6735 -0.0332 0.8832
C22A C 0.69787(12) -0.12416(19) 0.98032(16)
H18A H 0.7454 -0.1202 1.0110
C23A C 0.60880(14) -0.1853(2) 0.96680(17)
H19A H 0.5918 -0.2259 0.9880
C24A C 0.56198(12) -0.13574(18) 0.88933(15)
H20A H 0.5147 -0.1426 0.8593
Cd1A Cd -0.295410(7) 0.210760(10) 0.194043(8)
O1A O -0.31067(9) 0.04164(13) 0.19700(12)
O2A O -0.40732(12) 0.07790(15) 0.16306(15)
O3A O -0.37167(10) -0.06694(13) 0.19676(16)
O4A O -0.25831(9) 0.35862(12) 0.18298(12)
O5A O -0.23547(9) 0.20112(12) 0.34160(10)
N5A N -0.36344(10) 0.01745(14) 0.18527(13)
H21A H -0.2158 0.1477 0.3642
H22A H -0.2193 0.2411 0.3828
H23A H -0.2190 0.3770 0.2266
H24A H -0.2843 0.4070 0.1591
Cd1A_2 Cd 0.704590(7) 0.210760(10) 1.194043(8)
Cd1B Cd -0.204590(7) -0.289240(10) 0.305957(8)
Cd1C Cd 0.204590(7) -0.289240(10) 0.194043(8)
N2B N -0.37588(10) 0.29367(13) 0.18905(12)
N2C N 0.37588(10) 0.29367(13) 0.31095(12)
N3A_2 N -0.36304(9) 0.19588(12) 0.04282(10)
O6 O 0.15368(12) 0.07243(18) -0.01634(13)
O7 O 0.17172(12) 0.02757(14) 0.10157(12)
O8 O 0.11509(12) -0.06327(14) -0.01095(12)
N6 N 0.14694(11) 0.01196(16) 0.02376(13)
loop_
_geom_bond_atom_site_label_1
_geom_bond_atom_site_label_2
_geom_bond_site_symmetry_1
_geom_bond_site_symmetry_2
Cd1 O1 1_555 1_555
O1 N5 1_555 1_555
O2 N5 1_555 1_555
O3 N5 1_555 1_555
O4 Cd1 1_555 1_555
O5 Cd1 1_555 1_555
N1 Cd1 1_555 1_555
N2 C10 1_555 1_555
N3 Cd1 1_555 1_555
N4 C22 1_555 1_555
C1 N1 1_555 1_555
H1 C1 1_555 1_555
C2 C1 1_555 1_555
H2 C2 1_555 1_555
C3 C2 1_555 1_555
C4 C3 1_555 1_555
H3 C4 1_555 1_555
C5 N1 1_555 1_555
H4 C5 1_555 1_555
C6 C3 1_555 1_555
H5 C6 1_555 1_555
C7 C6 1_555 1_555
H6 C7 1_555 1_555
C8 C7 1_555 1_555
C9 C8 1_555 1_555
H7 C9 1_555 1_555
C10 C9 1_555 1_555
H8 C10 1_555 1_555
C11 N2 1_555 1_555
H9 C11 1_555 1_555
C12 C8 1_555 1_555
H10 C12 1_555 1_555
C13 N3 1_555 1_555
H11 C13 1_555 1_555
C14 C13 1_555 1_555
H12 C14 1_555 1_555
C15 C14 1_555 1_555
C16 C15 1_555 1_555
H13 C16 1_555 1_555
C17 N3 1_555 1_555
H14 C17 1_555 1_555
C18 C15 1_555 1_555
H15 C18 1_555 1_555
C19 C18 1_555 1_555
H16 C19 1_555 1_555
C20 C19 1_555 1_555
C21 C20 1_555 1_555
H17 C21 1_555 1_555
C22 C21 1_555 1_555
H18 C22 1_555 1_555
C23 N4 1_555 1_555
H19 C23 1_555 1_555
C24 C20 1_555 1_555
H20 C24 1_555 1_555
H21 O5 1_555 1_555
H22 O5 1_555 1_555
H23 O4 1_555 1_555
H24 O4 1_555 1_555
O6 N6 1_555 1_555
O7 N6 1_555 1_555
O8 N6 1_555 1_555
N1A C1A 1_555 1_555
N2A C10A 1_555 1_555
C1A H1A 1_555 1_555
C2A C1A 1_555 1_555
H2A C2A 1_555 1_555
C3A C2A 1_555 1_555
C4A C3A 1_555 1_555
H3A C4A 1_555 1_555
C5A N1A 1_555 1_555
H4A C5A 1_555 1_555
C6A C6 1_555 1_555
H5A C6A 1_555 1_555
C7A C7 1_555 1_555
H6A C7A 1_555 1_555
C8A C7A 1_555 1_555
C9A C8A 1_555 1_555
H7A C9A 1_555 1_555
C10A C9A 1_555 1_555
H8A C10A 1_555 1_555
C11A N2A 1_555 1_555
H9A C11A 1_555 1_555
C12A C8A 1_555 1_555
H10A C12A 1_555 1_555
N3A C13A 1_555 1_555
N4A C22A 1_555 1_555
C13A H11A 1_555 1_555
C14A C13A 1_555 1_555
H12A C14A 1_555 1_555
C15A C14A 1_555 1_555
C16A C15A 1_555 1_555
H13A C16A 1_555 1_555
C17A N3A 1_555 1_555
H14A C17A 1_555 1_555
C18A C18 1_555 1_555
H15A C18A 1_555 1_555
C19A C19 1_555 1_555
H16A C19A 1_555 1_555
C20A C19A 1_555 1_555
C21A C20A 1_555 1_555
H17A C21A 1_555 1_555
C22A C21A 1_555 1_555
H18A C22A 1_555 1_555
C23A N4A 1_555 1_555
H19A C23A 1_555 1_555
C24A C20A 1_555 1_555
H20A C24A 1_555 1_555
Cd1A N1A 1_555 1_555
O1A Cd1A 1_555 1_555
O2A N5A 1_555 1_555
O3A N5A 1_555 1_555
O4A Cd1A 1_555 1_555
O5A Cd1A 1_555 1_555
N5A O1A 1_555 1_555
H21A O5A 1_555 1_555
H22A O5A 1_555 1_555
H23A O4A 1_555 1_555
H24A O4A 1_555 1_555
Cd1A_2 N3A 1_555 1_555
Cd1B N2A 1_555 1_555
Cd1C N2 1_555 1_555
N2B Cd1A 1_555 1_555
N2C Cd1 1_555 1_555
N3A_2 Cd1A 1_555 1_555
C4 C5 1_555 1_555
C11 C12 1_555 1_555
C16 C17 1_555 1_555
C23 C24 1_555 1_555
C3A C6A 1_555 1_555
C4A C5A 1_555 1_555
C6A C7A 1_555 1_555
C11A C12A 1_555 1_555
C15A C18A 1_555 1_555
C16A C17A 1_555 1_555
C18A C19A 1_555 1_555
C23A C24A 1_555 1_555

#END
