
#######################################################################
#
#                 Cambridge Crystallographic Data Centre
#                                CCDC 
#
#######################################################################
#
# If this CIF has been generated from an entry in the Cambridge 
# Structural Database, then it will include bibliographic, chemical, 
# crystal, experimental, refinement or atomic coordinate data resulting 
# from the CCDC's data processing and validation procedures.
#
#######################################################################

data_GITFUM
_symmetry_cell_setting           triclinic
_symmetry_space_group_name_H-M   'P -1'
_symmetry_Int_Tables_number      2
_space_group_name_Hall           '-P 1'
loop_
_symmetry_equiv_pos_site_id
_symmetry_equiv_pos_as_xyz
1 x,y,z
2 -x,-y,-z
_cell_length_a                   16.125(17)
_cell_length_b                   18.349(19)
_cell_length_c                   20.599(19)
_cell_angle_alpha                106.353(13)
_cell_angle_beta                 92.182(7)
_cell_angle_gamma                112.908(9)
_cell_volume                     5311.26
loop_
_atom_site_label
_atom_site_type_symbol
_atom_site_fract_x
_atom_site_fract_y
_atom_site_fract_z
Cd1 Cd 0.75818(2) 0.28256(2) 0.267827(18)
Cd2 Cd 0.00902(2) 0.28875(2) 0.886200(18)
O1 O -0.0499(2) 0.1449(2) 0.88546(19)
O2 O 0.0736(3) 0.4291(2) 0.9642(2)
O3 O 0.83131(16) 0.43027(16) 0.26589(13)
O4 O -0.0158(2) 0.2395(2) 0.9876(2)
O5 O -0.0308(3) 0.2220(3) 0.76653(19)
O6 O 0.0281(3) 0.3593(3) 0.7957(2)
O7 O 0.7332(3) 0.2052(3) 0.3522(2)
O8 O 0.7964(2) 0.3444(3) 0.39427(18)
O9 O 0.6820(2) 0.1428(2) 0.19011(18)
O10 O 0.7420(3) 0.2362(3) 0.13871(18)
N1 N -0.2384(3) -0.1288(3) 1.0855(2)
N2 N -0.8610(3) -0.2802(3) 1.1134(3)
N3 N 0.1532(3) 0.2878(2) 0.8732(2)
N4 N 0.6786(3) 0.2571(4) 0.7054(3)
N5 N 0.0663(3) 0.2579(3) 0.4379(2)
N6 N 0.6155(2) 0.2852(3) 0.2826(2)
N7 N 0.6101(3) -0.1335(3) -0.1560(2)
N8 N 1.1087(3) -0.2612(4) -0.2620(2)
C1 C -0.0448(3) 0.1649(3) 0.9503(3)
C2 C -0.0737(3) 0.0968(3) 0.9822(2)
C3 C -0.1000(3) 0.0138(3) 0.9424(3)
H1 H -0.1033 -0.0003 0.8940
C4 C -0.1217(3) -0.0491(3) 0.9731(2)
H2 H -0.1391 -0.1054 0.9454
C5 C -0.1179(3) -0.0303(3) 1.0425(2)
C6 C -0.0918(4) 0.0537(3) 1.0835(3)
H3 H -0.0895 0.0676 1.1317
C7 C -0.0700(4) 0.1147(4) 1.0532(3)
H4 H -0.0518 0.1710 1.0812
C8 C -0.1395(3) -0.0978(3) 1.0763(3)
H5 H -0.1277 -0.1448 1.0474
H6 H -0.0998 -0.0749 1.1216
C9 C -0.3014(3) -0.1939(4) 1.0380(3)
H7 H -0.2858 -0.2246 0.9989
C10 C -0.2601(4) -0.0853(4) 1.1430(3)
H8 H -0.2128 -0.0406 1.1774
C11 C -0.3492(5) -0.1059(5) 1.1512(4)
H9 H -0.3630 -0.0734 1.1905
C12 C -0.3944(4) -0.2162(5) 1.0479(4)
H10 H -0.4409 -0.2631 1.0144
C13 C -0.4192(4) -0.1724(6) 1.1041(4)
C14 C -0.5165(7) -0.1796(6) 1.1212(4)
H11 H -0.5256 -0.1393 1.1572
C15 C -0.5759(7) -0.2400(6) 1.0843(5)
H12 H -0.5665 -0.2796 1.0478
C16 C -0.6758(5) -0.2494(6) 1.1022(5)
C17 C -0.7477(5) -0.3196(5) 1.0604(4)
H13 H -0.7364 -0.3597 1.0258
C18 C -0.8352(4) -0.3320(4) 1.0683(4)
H14 H -0.8823 -0.3824 1.0388
C19 C -0.7936(4) -0.2091(4) 1.1578(3)
H15 H -0.8086 -0.1709 1.1917
C20 C -0.6981(4) -0.1925(5) 1.1526(4)
H16 H -0.6507 -0.1432 1.1831
C21 C -0.0030(4) 0.2879(4) 0.7511(3)
C22 C -0.0074(3) 0.2806(4) 0.6747(3)
C23 C 0.0178(4) 0.3532(4) 0.6559(3)
H17 H 0.0382 0.4067 0.6896
C24 C 0.0118(4) 0.3442(4) 0.5861(3)
H18 H 0.0268 0.3923 0.5721
C25 C -0.0154(4) 0.2667(4) 0.5372(3)
C26 C -0.0430(5) 0.1965(4) 0.5578(3)
H19 H -0.0659 0.1425 0.5244
C27 C -0.0374(5) 0.2047(4) 0.6275(3)
H20 H -0.0548 0.1564 0.6415
C28 C -0.0217(4) 0.2590(4) 0.4616(3)
H21 H -0.0306 0.3068 0.4546
H22 H -0.0744 0.2069 0.4345
C29 C 0.1281(4) 0.3241(4) 0.4301(3)
H23 H 0.1171 0.3729 0.4383
C30 C 0.2107(4) 0.3261(4) 0.4099(3)
H24 H 0.2547 0.3756 0.4044
C31 C 0.2275(3) 0.2564(4) 0.3982(3)
C32 C 0.1617(5) 0.1888(5) 0.4071(4)
H25 H 0.1712 0.1394 0.4004
C33 C 0.0803(5) 0.1899(5) 0.4259(4)
H26 H 0.0341 0.1407 0.4300
C34 C 0.3138(4) 0.2514(4) 0.3772(3)
H27 H 0.3235 0.2041 0.3789
C35 C 0.3765(3) 0.3065(3) 0.3567(3)
H28 H 0.3689 0.3557 0.3581
C36 C 0.4582(3) 0.2990(3) 0.3315(2)
C37 C 0.5166(4) 0.3563(4) 0.3053(3)
H29 H 0.5045 0.4023 0.3030
C38 C 0.5936(3) 0.3484(4) 0.2819(3)
H30 H 0.6326 0.3900 0.2646
C39 C 0.5576(3) 0.2275(3) 0.3052(3)
H31 H 0.5701 0.1809 0.3050
C40 C 0.4786(3) 0.2312(3) 0.3297(3)
H32 H 0.4391 0.1877 0.3450
C41 C 0.7641(3) 0.2721(4) 0.4007(3)
C42 C 0.7651(3) 0.2683(4) 0.4751(3)
C43 C 0.7453(5) 0.1922(5) 0.4854(3)
H33 H 0.7328 0.1435 0.4476
C44 C 0.7438(5) 0.1877(5) 0.5498(3)
H34 H 0.7301 0.1353 0.5564
C45 C 0.7619(4) 0.2579(4) 0.6068(3)
C46 C 0.7823(5) 0.3325(5) 0.5961(3)
H35 H 0.7949 0.3812 0.6340
C47 C 0.7849(4) 0.3381(4) 0.5295(3)
H36 H 0.8005 0.3905 0.5226
C48 C 0.7656(4) 0.2546(5) 0.6793(3)
H37 H 0.8200 0.3028 0.7093
H38 H 0.7702 0.2026 0.6802
C49 C 0.5991(5) 0.1850(5) 0.6789(3)
H39 H 0.6008 0.1367 0.6474
C50 C 0.5184(4) 0.1831(5) 0.6978(3)
H40 H 0.4636 0.1340 0.6784
C51 C 0.5157(4) 0.2543(4) 0.7465(3)
C52 C 0.5982(4) 0.3247(4) 0.7732(3)
H41 H 0.5999 0.3736 0.8062
C53 C 0.6789(4) 0.3225(4) 0.7506(3)
H42 H 0.7350 0.3703 0.7692
C54 C 0.4265(4) 0.2497(3) 0.7648(3)
H43 H 0.3735 0.2037 0.7368
C55 C 0.4137(4) 0.3039(4) 0.8167(3)
H44 H 0.4665 0.3503 0.8446
C56 C 0.3239(3) 0.2983(3) 0.8351(3)
C57 C 0.3171(4) 0.3541(4) 0.8939(3)
H45 H 0.3709 0.3978 0.9230
C58 C 0.2335(3) 0.3464(3) 0.9103(3)
H46 H 0.2322 0.3858 0.9511
C59 C 0.1594(4) 0.2334(3) 0.8178(3)
H47 H 0.1038 0.1903 0.7906
C60 C 0.2402(3) 0.2339(3) 0.7959(3)
H48 H 0.2393 0.1921 0.7559
C61 C 0.6989(3) 0.1620(4) 0.1358(3)
C62 C 0.6629(3) 0.0943(3) 0.0679(2)
C63 C 0.6778(3) 0.1124(3) 0.0065(3)
H49 H 0.7141 0.1680 0.0079
C64 C 0.6404(4) 0.0505(3) -0.0554(3)
H50 H 0.6513 0.0642 -0.0963
C65 C 0.5872(3) -0.0313(3) -0.0602(2)
C66 C 0.5707(3) -0.0513(3) -0.0004(2)
H51 H 0.5337 -0.1072 -0.0027
C67 C 0.6086(3) 0.0108(3) 0.0630(3)
H52 H 0.5977 -0.0034 0.1038
C68 C 0.5446(3) -0.0985(4) -0.1291(3)
H53 H 0.4888 -0.1436 -0.1241
H54 H 0.5269 -0.0746 -0.1619
C69 C 0.6749(4) -0.0939(4) -0.1868(3)
H55 H 0.6757 -0.0456 -0.1958
C70 C 0.7416(4) -0.1212(5) -0.2063(3)
H56 H 0.7875 -0.0919 -0.2286
C71 C 0.7413(4) -0.1934(5) -0.1930(3)
C72 C 0.6721(4) -0.2333(5) -0.1631(3)
H57 H 0.6677 -0.2833 -0.1554
C73 C 0.6073(4) -0.2029(4) -0.1435(3)
H58 H 0.5606 -0.2310 -0.1212
C74 C 0.8142(5) -0.2221(6) -0.2085(4)
H59 H 0.8052 -0.2737 -0.2020
C75 C 0.8815(5) -0.1891(6) -0.2278(3)
H60 H 0.8885 -0.1392 -0.2370
C76 C 0.9613(5) -0.2161(6) -0.2406(4)
C77 C 1.0309(5) -0.1732(5) -0.2641(3)
H61 H 1.0320 -0.1255 -0.2743
C78 C 1.1049(4) -0.1952(5) -0.2751(3)
H62 H 1.1541 -0.1618 -0.2925
C79 C 1.0375(5) -0.3107(6) -0.2392(4)
H63 H 1.0379 -0.3587 -0.2304
C80 C 0.9601(5) -0.2887(7) -0.2283(4)
H64 H 0.9090 -0.3231 -0.2131
Cd1A Cd 1.24182(2) -0.28256(2) -0.267827(18)
Cd2A Cd -1.00902(2) -0.28875(2) 1.113800(18)
N2A N -0.1390(3) 0.2802(3) 0.8866(3)
N8A N 0.8913(3) 0.2612(4) 0.2620(2)
loop_
_geom_bond_atom_site_label_1
_geom_bond_atom_site_label_2
_geom_bond_site_symmetry_1
_geom_bond_site_symmetry_2
Cd1 O3 1_555 1_555
Cd2 O1 1_555 1_555
O1 C1 1_555 1_555
O2 Cd2 1_555 1_555
O4 Cd2 1_555 1_555
O5 Cd2 1_555 1_555
O6 Cd2 1_555 1_555
O7 Cd1 1_555 1_555
O8 Cd1 1_555 1_555
O9 Cd1 1_555 1_555
O10 Cd1 1_555 1_555
N1 C8 1_555 1_555
N2 C18 1_555 1_555
N3 Cd2 1_555 1_555
N4 C48 1_555 1_555
N5 C28 1_555 1_555
N6 Cd1 1_555 1_555
N7 C68 1_555 1_555
N8 C78 1_555 1_555
C1 O4 1_555 1_555
C2 C1 1_555 1_555
C3 C2 1_555 1_555
H1 C3 1_555 1_555
C4 C3 1_555 1_555
H2 C4 1_555 1_555
C5 C4 1_555 1_555
C6 C5 1_555 1_555
H3 C6 1_555 1_555
C7 C2 1_555 1_555
H4 C7 1_555 1_555
C8 C5 1_555 1_555
H5 C8 1_555 1_555
H6 C8 1_555 1_555
C9 N1 1_555 1_555
H7 C9 1_555 1_555
C10 N1 1_555 1_555
H8 C10 1_555 1_555
C11 C10 1_555 1_555
H9 C11 1_555 1_555
C12 C9 1_555 1_555
H10 C12 1_555 1_555
C13 C11 1_555 1_555
C14 C13 1_555 1_555
H11 C14 1_555 1_555
C15 C14 1_555 1_555
H12 C15 1_555 1_555
C16 C15 1_555 1_555
C17 C16 1_555 1_555
H13 C17 1_555 1_555
C18 C17 1_555 1_555
H14 C18 1_555 1_555
C19 N2 1_555 1_555
H15 C19 1_555 1_555
C20 C16 1_555 1_555
H16 C20 1_555 1_555
C21 O5 1_555 1_555
C22 C21 1_555 1_555
C23 C22 1_555 1_555
H17 C23 1_555 1_555
C24 C23 1_555 1_555
H18 C24 1_555 1_555
C25 C24 1_555 1_555
C26 C25 1_555 1_555
H19 C26 1_555 1_555
C27 C22 1_555 1_555
H20 C27 1_555 1_555
C28 C25 1_555 1_555
H21 C28 1_555 1_555
H22 C28 1_555 1_555
C29 N5 1_555 1_555
H23 C29 1_555 1_555
C30 C29 1_555 1_555
H24 C30 1_555 1_555
C31 C30 1_555 1_555
C32 C31 1_555 1_555
H25 C32 1_555 1_555
C33 N5 1_555 1_555
H26 C33 1_555 1_555
C34 C31 1_555 1_555
H27 C34 1_555 1_555
C35 C34 1_555 1_555
H28 C35 1_555 1_555
C36 C35 1_555 1_555
C37 C36 1_555 1_555
H29 C37 1_555 1_555
C38 N6 1_555 1_555
H30 C38 1_555 1_555
C39 N6 1_555 1_555
H31 C39 1_555 1_555
C40 C36 1_555 1_555
H32 C40 1_555 1_555
C41 O7 1_555 1_555
C42 C41 1_555 1_555
C43 C42 1_555 1_555
H33 C43 1_555 1_555
C44 C43 1_555 1_555
H34 C44 1_555 1_555
C45 C44 1_555 1_555
C46 C45 1_555 1_555
H35 C46 1_555 1_555
C47 C42 1_555 1_555
H36 C47 1_555 1_555
C48 C45 1_555 1_555
H37 C48 1_555 1_555
H38 C48 1_555 1_555
C49 N4 1_555 1_555
H39 C49 1_555 1_555
C50 C49 1_555 1_555
H40 C50 1_555 1_555
C51 C50 1_555 1_555
C52 C51 1_555 1_555
H41 C52 1_555 1_555
C53 N4 1_555 1_555
H42 C53 1_555 1_555
C54 C51 1_555 1_555
H43 C54 1_555 1_555
C55 C54 1_555 1_555
H44 C55 1_555 1_555
C56 C55 1_555 1_555
C57 C56 1_555 1_555
H45 C57 1_555 1_555
C58 N3 1_555 1_555
H46 C58 1_555 1_555
C59 N3 1_555 1_555
H47 C59 1_555 1_555
C60 C56 1_555 1_555
H48 C60 1_555 1_555
C61 O9 1_555 1_555
C62 C61 1_555 1_555
C63 C62 1_555 1_555
H49 C63 1_555 1_555
C64 C63 1_555 1_555
H50 C64 1_555 1_555
C65 C64 1_555 1_555
C66 C65 1_555 1_555
H51 C66 1_555 1_555
C67 C62 1_555 1_555
H52 C67 1_555 1_555
C68 C65 1_555 1_555
H53 C68 1_555 1_555
H54 C68 1_555 1_555
C69 N7 1_555 1_555
H55 C69 1_555 1_555
C70 C69 1_555 1_555
H56 C70 1_555 1_555
C71 C70 1_555 1_555
C72 C71 1_555 1_555
H57 C72 1_555 1_555
C73 N7 1_555 1_555
H58 C73 1_555 1_555
C74 C71 1_555 1_555
H59 C74 1_555 1_555
C75 C74 1_555 1_555
H60 C75 1_555 1_555
C76 C75 1_555 1_555
C77 C76 1_555 1_555
H61 C77 1_555 1_555
C78 C77 1_555 1_555
H62 C78 1_555 1_555
C79 N8 1_555 1_555
H63 C79 1_555 1_555
C80 C76 1_555 1_555
H64 C80 1_555 1_555
Cd1A N8 1_555 1_555
Cd2A N2 1_555 1_555
N2A Cd2 1_555 1_555
N8A Cd1 1_555 1_555
O6 C21 1_555 1_555
O8 C41 1_555 1_555
O10 C61 1_555 1_555
C6 C7 1_555 1_555
C12 C13 1_555 1_555
C19 C20 1_555 1_555
C26 C27 1_555 1_555
C32 C33 1_555 1_555
C37 C38 1_555 1_555
C39 C40 1_555 1_555
C46 C47 1_555 1_555
C52 C53 1_555 1_555
C57 C58 1_555 1_555
C59 C60 1_555 1_555
C66 C67 1_555 1_555
C72 C73 1_555 1_555
C79 C80 1_555 1_555

#END
