
#######################################################################
#
#                 Cambridge Crystallographic Data Centre
#                                CCDC 
#
#######################################################################
#
# If this CIF has been generated from an entry in the Cambridge 
# Structural Database, then it will include bibliographic, chemical, 
# crystal, experimental, refinement or atomic coordinate data resulting 
# from the CCDC's data processing and validation procedures.
#
#######################################################################

data_GITFEW
_symmetry_cell_setting           triclinic
_symmetry_space_group_name_H-M   'P -1'
_symmetry_Int_Tables_number      2
_space_group_name_Hall           '-P 1'
loop_
_symmetry_equiv_pos_site_id
_symmetry_equiv_pos_as_xyz
1 x,y,z
2 -x,-y,-z
_cell_length_a                   12.9132(3)
_cell_length_b                   13.2833(4)
_cell_length_c                   13.3983(9)
_cell_angle_alpha                62.714(4)
_cell_angle_beta                 76.424(5)
_cell_angle_gamma                89.144(6)
_cell_volume                     1973.96
loop_
_atom_site_label
_atom_site_type_symbol
_atom_site_fract_x
_atom_site_fract_y
_atom_site_fract_z
C1 C 0.7201(3) -0.1885(4) 0.5431(4)
C2 C 0.8259(4) -0.1688(4) 0.5429(4)
H1 H 0.8553 -0.0934 0.5178
C3 C 0.8885(4) -0.2571(4) 0.5785(5)
H2 H 0.9600 -0.2422 0.5791
C4 C 0.8478(4) -0.3679(4) 0.6137(5)
H3 H 0.8903 -0.4291 0.6410
C5 C 0.7454(4) -0.3877(4) 0.6086(4)
H4 H 0.7191 -0.4628 0.6289
C6 C 0.6785(4) -0.2998(4) 0.5740(4)
C7 C 0.5702(3) -0.3265(4) 0.5711(4)
C8 C 0.5427(4) -0.4317(4) 0.5632(4)
H5 H 0.6091 -0.4556 0.5296
H6 H 0.4950 -0.4140 0.5105
C9 C 0.4869(5) -0.5303(4) 0.6829(5)
H7 H 0.5335 -0.5475 0.7355
H8 H 0.4722 -0.5979 0.6747
H9 H 0.4193 -0.5083 0.7147
C10 C 0.7222(4) -0.1396(4) 0.2281(4)
C11 C 0.7920(4) -0.1981(4) 0.1810(4)
H10 H 0.8604 -0.2101 0.1967
C12 C 0.7625(4) -0.2383(4) 0.1123(4)
H11 H 0.8102 -0.2793 0.0829
C13 C 0.6639(4) -0.2199(4) 0.0854(4)
H12 H 0.6466 -0.2418 0.0325
C14 C 0.5922(4) -0.1694(4) 0.1367(4)
H13 H 0.5235 -0.1601 0.1215
C15 C 0.6172(4) -0.1309(4) 0.2112(4)
C16 C 0.5324(3) -0.0950(4) 0.2777(4)
C17 C 0.4167(4) -0.1243(4) 0.2895(4)
H14 H 0.3738 -0.1424 0.3685
H15 H 0.4094 -0.1923 0.2784
C18 C 0.3746(4) -0.0238(5) 0.1988(5)
H16 H 0.3780 0.0422 0.2128
H17 H 0.3001 -0.0450 0.2049
H18 H 0.4187 -0.0043 0.1208
C19 C 0.8969(3) 0.4142(4) 0.2713(4)
C20 C 0.9189(4) 0.5229(4) 0.2594(4)
H19 H 0.8737 0.5472 0.3094
C21 C 1.0064(4) 0.5945(4) 0.1747(4)
H20 H 1.0205 0.6681 0.1670
C22 C 1.0731(4) 0.5619(4) 0.1017(4)
H21 H 1.1339 0.6114 0.0451
C23 C 1.0511(4) 0.4559(4) 0.1115(4)
H22 H 1.0974 0.4338 0.0603
C24 C 0.9621(3) 0.3791(4) 0.1949(4)
C25 C 0.9440(3) 0.2666(4) 0.2022(4)
C26 C 1.0283(4) 0.2237(4) 0.1362(4)
H23 H 0.9943 0.1624 0.1281
H24 H 1.0597 0.2866 0.0572
C27 C 1.1161(4) 0.1786(5) 0.1963(5)
H25 H 1.1539 0.2406 0.1988
H26 H 1.1667 0.1472 0.1537
H27 H 1.0850 0.1185 0.2758
C28 C 0.6607(4) 0.2009(4) 0.0551(4)
H28 H 0.6074 0.2199 0.1041
C29 C 0.6636(4) 0.2496(4) -0.0618(4)
H29 H 0.6131 0.3005 -0.0914
C30 C 0.7404(4) 0.2236(4) -0.1350(4)
H30 H 0.7430 0.2550 -0.2153
C31 C 0.8143(3) 0.1493(4) -0.0874(4)
C32 C 0.8056(3) 0.1052(4) 0.0308(4)
H31 H 0.8565 0.0561 0.0627
C33 C 0.8987(4) 0.1189(4) -0.1575(4)
C34 C 0.9690(4) 0.0946(5) -0.2148(5)
H32 H 1.0253 0.0751 -0.2606
C35 C 0.8452(4) 0.0956(5) 0.5519(5)
H33 H 0.9068 0.0862 0.4992
H34 H 0.8330 0.0304 0.6296
H35 H 0.8595 0.1658 0.5557
C36 C 0.4165(4) 0.3003(4) 0.1633(4)
C37 C 0.3227(4) 0.5481(4) -0.0960(4)
Au1 Au 0.37186(2) 0.42744(2) 0.03443(2)
Mn1 Mn 0.70525(5) 0.02940(5) 0.30250(6)
Mn2 Mn 0.48813(5) 0.12423(5) 0.40182(5)
Mn3 Mn 0.72334(5) 0.24886(5) 0.34533(6)
N1 N 0.4957(3) -0.2624(3) 0.5795(3)
N2 N 0.5592(3) -0.0379(3) 0.3265(3)
N3 N 0.8538(3) 0.2033(3) 0.2666(3)
N4 N 0.7290(3) 0.1285(3) 0.1024(3)
N5 N 0.4422(3) 0.2256(3) 0.2362(3)
N6 N 0.2936(3) 0.6144(3) -0.1715(3)
O1 O 0.6609(2) -0.0988(2) 0.5142(2)
O2 O 0.3973(2) -0.2905(3) 0.5722(3)
O3 O 0.7588(2) -0.0956(3) 0.2861(3)
O4 O 0.4781(2) -0.0224(2) 0.4063(2)
O5 O 0.8150(2) 0.3461(3) 0.3607(3)
O6 O 0.8455(2) 0.0924(2) 0.2836(3)
O7 O 0.6371(2) 0.1405(2) 0.3373(2)
O8 O 0.7523(2) 0.1022(3) 0.5096(3)
H36 H 0.724(3) 0.0323(12) 0.536(4)
Mn2A Mn 0.51187(5) -0.12423(5) 0.59818(5)
Mn3A Mn 0.27666(5) -0.24886(5) 0.65467(6)
Mn3A_2 Mn 0.27666(5) 0.75114(5) -0.34533(6)
N1A N 0.5043(3) 0.2624(3) 0.4205(3)
N6A N 0.7064(3) 0.3856(3) 0.1715(3)
O1A O 0.3391(2) 0.0988(2) 0.4858(2)
O2A O 0.6027(2) 0.2905(3) 0.4278(3)
O4A O 0.5219(2) 0.0224(2) 0.5937(2)
C38 C 0.8824(5) 0.3907(5) 0.5620(5)
H37 H 0.9029 0.4708 0.5042
H38 H 0.9270 0.3426 0.5360
H39 H 0.8926 0.3791 0.6366
O9 O 0.7730(3) 0.3608(3) 0.5754(3)
H40 H 0.7669 0.3533 0.5181
loop_
_geom_bond_atom_site_label_1
_geom_bond_atom_site_label_2
_geom_bond_site_symmetry_1
_geom_bond_site_symmetry_2
C1 C2 1_555 1_555
C2 H1 1_555 1_555
C3 C2 1_555 1_555
H2 C3 1_555 1_555
C4 C3 1_555 1_555
H3 C4 1_555 1_555
C5 C4 1_555 1_555
H4 C5 1_555 1_555
C6 C1 1_555 1_555
C7 C6 1_555 1_555
C8 C7 1_555 1_555
H5 C8 1_555 1_555
H6 C8 1_555 1_555
C9 C8 1_555 1_555
H7 C9 1_555 1_555
H8 C9 1_555 1_555
H9 C9 1_555 1_555
C10 C11 1_555 1_555
C11 H10 1_555 1_555
C12 C11 1_555 1_555
H11 C12 1_555 1_555
C13 C12 1_555 1_555
H12 C13 1_555 1_555
C14 C13 1_555 1_555
H13 C14 1_555 1_555
C15 C10 1_555 1_555
C16 C15 1_555 1_555
C17 C16 1_555 1_555
H14 C17 1_555 1_555
H15 C17 1_555 1_555
C18 C17 1_555 1_555
H16 C18 1_555 1_555
H17 C18 1_555 1_555
H18 C18 1_555 1_555
C19 C20 1_555 1_555
C20 H19 1_555 1_555
C21 C20 1_555 1_555
H20 C21 1_555 1_555
C22 C21 1_555 1_555
H21 C22 1_555 1_555
C23 C22 1_555 1_555
H22 C23 1_555 1_555
C24 C19 1_555 1_555
C25 C24 1_555 1_555
C26 C25 1_555 1_555
H23 C26 1_555 1_555
H24 C26 1_555 1_555
C27 C26 1_555 1_555
H25 C27 1_555 1_555
H26 C27 1_555 1_555
H27 C27 1_555 1_555
C28 H28 1_555 1_555
C29 C28 1_555 1_555
H29 C29 1_555 1_555
C30 C29 1_555 1_555
H30 C30 1_555 1_555
C31 C30 1_555 1_555
C32 C31 1_555 1_555
H31 C32 1_555 1_555
C33 C31 1_555 1_555
C34 C33 1_555 1_555
H32 C34 1_555 1_555
C35 H33 1_555 1_555
H34 C35 1_555 1_555
H35 C35 1_555 1_555
C36 Au1 1_555 1_555
C37 Au1 1_555 1_555
Mn1 N2 1_555 1_555
Mn2 N5 1_555 1_555
Mn3 N3 1_555 1_555
N1 C7 1_555 1_555
N2 C16 1_555 1_555
N3 C25 1_555 1_555
N4 C28 1_555 1_555
N5 C36 1_555 1_555
N6 C37 1_555 1_555
O1 C1 1_555 1_555
O2 N1 1_555 1_555
O3 C10 1_555 1_555
O4 Mn2 1_555 1_555
O5 C19 1_555 1_555
O6 Mn1 1_555 1_555
O7 Mn1 1_555 1_555
O8 C35 1_555 1_555
H36 O8 1_555 1_555
C38 H37 1_555 1_555
H38 C38 1_555 1_555
H39 C38 1_555 1_555
O9 C38 1_555 1_555
H40 O9 1_555 1_555
Mn2A N1 1_555 1_555
Mn3A O2 1_555 1_555
Mn3A_2 N6 1_555 1_555
N1A Mn2 1_555 1_555
N6A Mn3 1_555 1_555
O1A Mn2 1_555 1_555
O2A Mn3 1_555 1_555
O4A Mn2 1_555 1_555
C5 C6 1_555 1_555
C14 C15 1_555 1_555
C23 C24 1_555 1_555
C32 N4 1_555 1_555
Mn1 N4 1_555 1_555
Mn1 O1 1_555 1_555
Mn1 O3 1_555 1_555
Mn2 O7 1_555 1_555
Mn3 O5 1_555 1_555
Mn3 O7 1_555 1_555
Mn3 O8 1_555 1_555
N2 O4 1_555 1_555
N3 O6 1_555 1_555
O1 Mn2A 1_555 1_555
O4 Mn2A 1_555 1_555
Mn2A O4A 1_555 1_555
N1A O2A 1_555 1_555

#END
