
#######################################################################
#
#                 Cambridge Crystallographic Data Centre
#                                CCDC 
#
#######################################################################
#
# If this CIF has been generated from an entry in the Cambridge 
# Structural Database, then it will include bibliographic, chemical, 
# crystal, experimental, refinement or atomic coordinate data resulting 
# from the CCDC's data processing and validation procedures.
#
#######################################################################

data_GITJEY
_symmetry_cell_setting           orthorhombic
_symmetry_space_group_name_H-M   'P b c a'
_symmetry_Int_Tables_number      61
_space_group_name_Hall           '-P 2ac 2ab'
loop_
_symmetry_equiv_pos_site_id
_symmetry_equiv_pos_as_xyz
1 x,y,z
2 1/2-x,-y,1/2+z
3 1/2+x,1/2-y,-z
4 -x,1/2+y,1/2-z
5 -x,-y,-z
6 1/2+x,y,1/2-z
7 1/2-x,1/2+y,z
8 x,1/2-y,1/2+z
_cell_length_a                   9.7952(1)
_cell_length_b                   29.3878(4)
_cell_length_c                   9.3537(3)
_cell_angle_alpha                90
_cell_angle_beta                 90
_cell_angle_gamma                90
_cell_volume                     2692.55
loop_
_atom_site_label
_atom_site_type_symbol
_atom_site_fract_x
_atom_site_fract_y
_atom_site_fract_z
Al1 Al -0.26646(30) 0.25023(14) 0.4060(7)
P1 P -0.31204(28) 0.17621(9) 0.6780(5)
P2 P -0.56031(31) 0.21105(9) 0.3315(5)
O1 O -0.4644(4) 0.16984(17) 0.7214(9)
O2 O -0.2979(6) 0.20164(19) 0.5367(6)
O3 O -0.2337(6) 0.19958(19) 0.8006(7)
O4 O -0.4204(4) 0.23214(16) 0.2907(10)
O5 O -0.6625(5) 0.2158(20) 0.2073(7)
O6 O -0.6158(7) 0.23097(18) 0.4710(6)
O7 O -0.3889(7) 0.28812(21) 0.5263(14)
C1 C -0.2405(7) 0.11942(11) 0.6566(8)
C2 C -0.1493(9) 0.11117(18) 0.5455(10)
C3 C -0.0972(11) 0.06732(23) 0.5270(13)
C4 C -0.1581(11) 0.03084(16) 0.5980(13)
C5 C -0.2535(10) 0.03910(15) 0.7047(13)
C6 C -0.3023(9) 0.08318(16) 0.7269(12)
C7 C -0.5320(6) 0.15042(11) 0.3609(9)
C8 C -0.4218(8) 0.12977(17) 0.2935(14)
C9 C -0.4022(9) 0.08299(18) 0.3073(15)
C10 C -0.4998(10) 0.05664(13) 0.3774(15)
C11 C -0.6072(11) 0.07789(20) 0.4488(15)
C12 C -0.6333(7) 0.12412(17) 0.4227(13)
O3G O -0.2337(6) 0.30042(19) 0.3006(7)
Al1G Al -0.26646(30) 0.24977(14) 0.9060(7)
Al1B Al -0.76646(30) 0.24977(14) 0.5940(7)
Al1E Al -0.76646(30) 0.25023(14) 0.0940(7)
O6B O -0.1158(7) 0.26903(18) 0.5290(6)
O5E O -0.1625(5) 0.2158(20) 0.2927(7)
loop_
_geom_bond_atom_site_label_1
_geom_bond_atom_site_label_2
_geom_bond_site_symmetry_1
_geom_bond_site_symmetry_2
Al1 O2 1_555 1_555
P1 O1 1_555 1_555
P2 O4 1_555 1_555
O2 P1 1_555 1_555
O3 P1 1_555 1_555
O4 Al1 1_555 1_555
O5 P2 1_555 1_555
O6 P2 1_555 1_555
O7 Al1 1_555 1_555
C1 P1 1_555 1_555
C2 C1 1_555 1_555
C3 C2 1_555 1_555
C4 C3 1_555 1_555
C5 C4 1_555 1_555
C6 C1 1_555 1_555
C7 P2 1_555 1_555
C8 C7 1_555 1_555
C9 C8 1_555 1_555
C10 C9 1_555 1_555
C11 C10 1_555 1_555
C12 C7 1_555 1_555
O3G Al1 1_555 1_555
Al1G O3 1_555 1_555
Al1B O6 1_555 1_555
Al1E O5 1_555 1_555
O6B Al1 1_555 1_555
O5E Al1 1_555 1_555
C5 C6 1_555 1_555
C11 C12 1_555 1_555

#END
