
#######################################################################
#
#                 Cambridge Crystallographic Data Centre
#                                CCDC 
#
#######################################################################
#
# If this CIF has been generated from an entry in the Cambridge 
# Structural Database, then it will include bibliographic, chemical, 
# crystal, experimental, refinement or atomic coordinate data resulting 
# from the CCDC's data processing and validation procedures.
#
#######################################################################

data_GITLEC
_symmetry_cell_setting           monoclinic
_symmetry_space_group_name_H-M   'P 21/c'
_symmetry_Int_Tables_number      14
_space_group_name_Hall           '-P 2ybc'
loop_
_symmetry_equiv_pos_site_id
_symmetry_equiv_pos_as_xyz
1 x,y,z
2 -x,1/2+y,1/2-z
3 -x,-y,-z
4 x,1/2-y,1/2+z
_cell_length_a                   6.552(2)
_cell_length_b                   11.054(4)
_cell_length_c                   10.763(4)
_cell_angle_alpha                90
_cell_angle_beta                 97.644(4)
_cell_angle_gamma                90
_cell_volume                     772.592
loop_
_atom_site_label
_atom_site_type_symbol
_atom_site_fract_x
_atom_site_fract_y
_atom_site_fract_z
Cd1 Cd 0.78268(9) 0.17600(5) 0.60000(5)
Cl1 Cl 0.7523(11) -0.0323(6) 0.6407(7)
O1 O 0.8876(9) 0.6306(6) 0.9181(6)
O2 O 0.5567(10) 0.6669(6) 0.8591(7)
O3 O 0.6773(10) 0.3895(6) 0.9038(5)
O4 O 0.8393(10) 0.2512(5) 0.8022(5)
N1 N 0.7627(10) 0.3852(6) 0.5886(6)
C1 C 0.7564(13) 0.4558(8) 0.4867(8)
H1 H 0.7637 0.4200 0.4092
C2 C 0.7395(13) 0.5801(8) 0.4934(8)
H2 H 0.7359 0.6268 0.4213
C3 C 0.7280(14) 0.6348(8) 0.6080(9)
H3 H 0.7160 0.7184 0.6133
C4 C 0.7346(12) 0.5634(7) 0.7156(8)
C5 C 0.7509(12) 0.4376(7) 0.7014(7)
C6 C 0.7579(13) 0.3509(7) 0.8109(8)
C7 C 0.7257(13) 0.6237(7) 0.8409(8)
Cd1A Cd 0.21732(9) 0.67600(5) 0.90000(5)
Cd1A_2 Cd 1.21732(9) 0.67600(5) 0.90000(5)
Cd1C Cd 0.78268(9) 0.32400(5) 1.10000(5)
O1A O 1.1124(9) 0.1306(6) 0.5819(6)
O2A O 0.4433(10) 0.1669(6) 0.6409(7)
O3C O 0.6773(10) 0.1105(6) 0.4038(5)
loop_
_geom_bond_atom_site_label_1
_geom_bond_atom_site_label_2
_geom_bond_site_symmetry_1
_geom_bond_site_symmetry_2
Cd1 Cl1 1_555 1_555
O1 C7 1_555 1_555
O2 C7 1_555 1_555
O3 C6 1_555 1_555
O4 Cd1 1_555 1_555
N1 Cd1 1_555 1_555
C1 N1 1_555 1_555
H1 C1 1_555 1_555
C2 C1 1_555 1_555
H2 C2 1_555 1_555
C3 C2 1_555 1_555
H3 C3 1_555 1_555
C4 C3 1_555 1_555
C5 N1 1_555 1_555
C6 O4 1_555 1_555
C7 C4 1_555 1_555
Cd1A O2 1_555 1_555
Cd1A_2 O1 1_555 1_555
Cd1C O3 1_555 1_555
O1A Cd1 1_555 1_555
O2A Cd1 1_555 1_555
O3C Cd1 1_555 1_555
C4 C5 1_555 1_555
C5 C6 1_555 1_555

#END
