
#######################################################################
#
#                 Cambridge Crystallographic Data Centre
#                                CCDC 
#
#######################################################################
#
# If this CIF has been generated from an entry in the Cambridge 
# Structural Database, then it will include bibliographic, chemical, 
# crystal, experimental, refinement or atomic coordinate data resulting 
# from the CCDC's data processing and validation procedures.
#
#######################################################################

data_GITLIE
_symmetry_cell_setting           monoclinic
_symmetry_space_group_name_H-M   'P 21/c'
_symmetry_Int_Tables_number      14
_space_group_name_Hall           '-P 2ybc'
loop_
_symmetry_equiv_pos_site_id
_symmetry_equiv_pos_as_xyz
1 x,y,z
2 -x,1/2+y,1/2-z
3 -x,-y,-z
4 x,1/2-y,1/2+z
_cell_length_a                   15.113(7)
_cell_length_b                   13.483(6)
_cell_length_c                   15.801(9)
_cell_angle_alpha                90
_cell_angle_beta                 116.93(4)
_cell_angle_gamma                90
_cell_volume                     2870.6
loop_
_atom_site_label
_atom_site_type_symbol
_atom_site_fract_x
_atom_site_fract_y
_atom_site_fract_z
Cu1 Cu 0.0000 0.0000 0.0000
Cu2 Cu 0.2456(1) -0.0067(1) 0.0354(1)
Cu3 Cu 0.5000 0.0000 0.0000
N1 N 0.0653(4) -0.0229(4) -0.0841(4)
N2 N 0.0233(4) -0.0455(5) -0.1622(5)
N3 N -0.0190(6) -0.0664(9) -0.2408(7)
N4 N 0.3159(4) -0.0268(4) -0.0440(4)
N5 N 0.2668(4) -0.0412(4) -0.1260(5)
N6 N 0.2237(5) -0.0520(7) -0.2080(5)
N7 N 0.1767(4) 0.0184(4) 0.1154(4)
N8 N 0.2170(4) 0.0245(4) 0.1985(4)
N9 N 0.2520(5) 0.0293(6) 0.2789(5)
N10 N 0.5311(4) 0.0480(4) 0.1295(4)
N11 N 0.4758(4) 0.0303(4) 0.1623(4)
N12 N 0.4218(4) 0.0148(4) 0.1954(4)
N13 N -0.0030(4) 0.1484(4) -0.0261(4)
C1 C 0.0495(5) 0.2124(5) 0.0435(5)
C2 C 0.0528(5) 0.3122(5) 0.0288(6)
Cl1 Cl 0.1251(2) 0.3875(1) 0.1228(2)
C3 C -0.0013(6) 0.3489(6) -0.0622(6)
C4 C -0.0562(6) 0.2845(6) -0.1329(6)
C5 C -0.0556(5) 0.1856(5) -0.1139(5)
N14 N 0.2466(4) 0.1416(4) 0.0064(4)
C6 C 0.3096(5) 0.2042(5) 0.0698(5)
C7 C 0.3171(5) 0.3015(5) 0.0487(5)
Cl2 Cl 0.4023(2) 0.3780(2) 0.1340(2)
C8 C 0.2588(5) 0.3381(5) -0.0418(5)
C9 C 0.1926(5) 0.2729(5) -0.1077(5)
C10 C 0.1885(5) 0.1751(5) -0.0829(5)
N15 N 0.2575(4) -0.1545(4) 0.0659(4)
C11 C 0.2085(5) -0.2194(5) -0.0032(5)
C12 C 0.2117(5) -0.3210(5) 0.0136(6)
Cl3 Cl 0.1417(2) -0.3976(2) -0.0813(2)
C13 C 0.2683(6) -0.3578(6) 0.1025(7)
C14 C 0.3188(6) -0.2909(6) 0.1711(6)
C15 C 0.3129(5) -0.1893(5) 0.1532(5)
N16 N 0.4791(4) 0.1422(4) -0.0461(4)
C16 C 0.5392(5) 0.2136(5) 0.0096(5)
C17 C 0.5296(5) 0.3109(5) -0.0181(6)
Cl4 Cl 0.6101(2) 0.3966(1) 0.0599(2)
C18 C 0.4573(6) 0.3375(6) -0.1058(6)
C19 C 0.3950(6) 0.2648(6) -0.1619(6)
C20 C 0.4097(5) 0.1692(5) -0.1300(5)
H1 H 0.0854(5) 0.1880(5) 0.1048(5)
H2 H -0.0002(6) 0.4162(6) -0.0747(6)
H3 H -0.0942(6) 0.3079(6) -0.1942(6)
H4 H -0.0929(5) 0.1425(5) -0.1633(5)
H5 H 0.3500(5) 0.1813(5) 0.1308(5)
H6 H 0.2640(5) 0.4036(5) -0.0574(5)
H7 H 0.1508(5) 0.2948(5) -0.1688(5)
H8 H 0.1451(5) 0.1315(5) -0.1283(5)
H9 H 0.1709(5) -0.1960(5) -0.0647(5)
H10 H 0.2717(6) -0.4254(6) 0.1152(7)
H11 H 0.3590(6) -0.3134(6) 0.2323(6)
H12 H 0.3479(5) -0.1454(5) 0.2026(5)
H13 H 0.5891(5) 0.1964(5) 0.0692(5)
H14 H 0.4506(6) 0.4028(6) -0.1266(6)
H15 H 0.3434(6) 0.2804(6) -0.2211(6)
H16 H 0.3683(5) 0.1203(5) -0.1698(5)
N1B N -0.0653(4) 0.0229(4) 0.0841(4)
N2B N -0.0233(4) 0.0455(5) 0.1622(5)
N3B N 0.0190(6) 0.0664(9) 0.2408(7)
N7B N -0.1767(4) -0.0184(4) -0.1154(4)
N8B N -0.2170(4) -0.0245(4) -0.1985(4)
N9B N -0.2520(5) -0.0293(6) -0.2789(5)
N13B N 0.0030(4) -0.1484(4) 0.0261(4)
C1B C -0.0495(5) -0.2124(5) -0.0435(5)
C2B C -0.0528(5) -0.3122(5) -0.0288(6)
Cl1B Cl -0.1251(2) -0.3875(1) -0.1228(2)
C3B C 0.0013(6) -0.3489(6) 0.0622(6)
C4B C 0.0562(6) -0.2845(6) 0.1329(6)
C5B C 0.0556(5) -0.1856(5) 0.1139(5)
H1B H -0.0854(5) -0.1880(5) -0.1048(5)
H2B H 0.0002(6) -0.4162(6) 0.0747(6)
H3B H 0.0942(6) -0.3079(6) 0.1942(6)
H4B H 0.0929(5) -0.1425(5) 0.1633(5)
Cu2B Cu -0.2456(1) 0.0067(1) -0.0354(1)
N4B N -0.3159(4) 0.0268(4) 0.0440(4)
N5B N -0.2668(4) 0.0412(4) 0.1260(5)
N6B N -0.2237(5) 0.0520(7) 0.2080(5)
N10B N -0.5311(4) -0.0480(4) -0.1295(4)
N11B N -0.4758(4) -0.0303(4) -0.1623(4)
N12B N -0.4218(4) -0.0148(4) -0.1954(4)
N14B N -0.2466(4) -0.1416(4) -0.0064(4)
C6B C -0.3096(5) -0.2042(5) -0.0698(5)
C7B C -0.3171(5) -0.3015(5) -0.0487(5)
Cl2B Cl -0.4023(2) -0.3780(2) -0.1340(2)
C8B C -0.2588(5) -0.3381(5) 0.0418(5)
C9B C -0.1926(5) -0.2729(5) 0.1077(5)
C10B C -0.1885(5) -0.1751(5) 0.0829(5)
H5B H -0.3500(5) -0.1813(5) -0.1308(5)
H6B H -0.2640(5) -0.4036(5) 0.0574(5)
H7B H -0.1508(5) -0.2948(5) 0.1688(5)
H8B H -0.1451(5) -0.1315(5) 0.1283(5)
N15B N -0.2575(4) 0.1545(4) -0.0659(4)
C11B C -0.2085(5) 0.2194(5) 0.0032(5)
C12B C -0.2117(5) 0.3210(5) -0.0136(6)
Cl3B Cl -0.1417(2) 0.3976(2) 0.0813(2)
C13B C -0.2683(6) 0.3578(6) -0.1025(7)
C14B C -0.3188(6) 0.2909(6) -0.1711(6)
C15B C -0.3129(5) 0.1893(5) -0.1532(5)
H9B H -0.1709(5) 0.1960(5) 0.0647(5)
H10B H -0.2717(6) 0.4254(6) -0.1152(7)
H11B H -0.3590(6) 0.3134(6) -0.2323(6)
H12B H -0.3479(5) 0.1454(5) -0.2026(5)
N16B N 0.5209(4) -0.1422(4) 0.0461(4)
C16B C 0.4608(5) -0.2136(5) -0.0096(5)
C17B C 0.4704(5) -0.3109(5) 0.0181(6)
Cl4B Cl 0.3899(2) -0.3966(1) -0.0599(2)
C18B C 0.5427(6) -0.3375(6) 0.1058(6)
C19B C 0.6050(6) -0.2648(6) 0.1619(6)
C20B C 0.5903(5) -0.1692(5) 0.1300(5)
H13B H 0.4109(5) -0.1964(5) -0.0692(5)
H14B H 0.5494(6) -0.4028(6) 0.1266(6)
H15B H 0.6566(6) -0.2804(6) 0.2211(6)
H16B H 0.6317(5) -0.1203(5) 0.1698(5)
N4B_2 N 0.6841(4) 0.0268(4) 0.0440(4)
N10B_2 N 0.4689(4) -0.0480(4) -0.1295(4)
Cu3_2 Cu -0.5000 0.0000 0.0000
loop_
_geom_bond_atom_site_label_1
_geom_bond_atom_site_label_2
_geom_bond_site_symmetry_1
_geom_bond_site_symmetry_2
Cu1 N1 1_555 1_555
Cu2 N1 1_555 1_555
Cu3 N4 1_555 1_555
N1 N2 1_555 1_555
N2 N3 1_555 1_555
N4 Cu2 1_555 1_555
N5 N4 1_555 1_555
N6 N5 1_555 1_555
N7 Cu1 1_555 1_555
N8 N7 1_555 1_555
N9 N8 1_555 1_555
N10 Cu3 1_555 1_555
N11 N10 1_555 1_555
N12 Cu2 1_555 1_555
N13 Cu1 1_555 1_555
C1 N13 1_555 1_555
C2 C1 1_555 1_555
Cl1 C2 1_555 1_555
C3 C2 1_555 1_555
C4 C3 1_555 1_555
C5 N13 1_555 1_555
N14 Cu2 1_555 1_555
C6 N14 1_555 1_555
C7 C6 1_555 1_555
Cl2 C7 1_555 1_555
C8 C7 1_555 1_555
C9 C8 1_555 1_555
C10 N14 1_555 1_555
N15 Cu2 1_555 1_555
C11 N15 1_555 1_555
C12 C11 1_555 1_555
Cl3 C12 1_555 1_555
C13 C12 1_555 1_555
C14 C13 1_555 1_555
C15 N15 1_555 1_555
N16 Cu3 1_555 1_555
C16 N16 1_555 1_555
C17 C16 1_555 1_555
Cl4 C17 1_555 1_555
C18 C17 1_555 1_555
C19 C18 1_555 1_555
C20 N16 1_555 1_555
H1 C1 1_555 1_555
H2 C3 1_555 1_555
H3 C4 1_555 1_555
H4 C5 1_555 1_555
H5 C6 1_555 1_555
H6 C8 1_555 1_555
H7 C9 1_555 1_555
H8 C10 1_555 1_555
H9 C11 1_555 1_555
H10 C13 1_555 1_555
H11 C14 1_555 1_555
H12 C15 1_555 1_555
H13 C16 1_555 1_555
H14 C18 1_555 1_555
H15 C19 1_555 1_555
H16 C20 1_555 1_555
N1B Cu1 1_555 1_555
N2B N1B 1_555 1_555
N3B N2B 1_555 1_555
N7B Cu1 1_555 1_555
N8B N7B 1_555 1_555
N9B N8B 1_555 1_555
N13B Cu1 1_555 1_555
C1B N13B 1_555 1_555
C2B C1B 1_555 1_555
Cl1B C2B 1_555 1_555
C3B C2B 1_555 1_555
C4B C3B 1_555 1_555
C5B N13B 1_555 1_555
H1B C1B 1_555 1_555
H2B C3B 1_555 1_555
H3B C4B 1_555 1_555
H4B C5B 1_555 1_555
Cu2B N1B 1_555 1_555
N4B Cu2B 1_555 1_555
N5B N4B 1_555 1_555
N6B N5B 1_555 1_555
N10B N11B 1_555 1_555
N11B N12B 1_555 1_555
N12B Cu2B 1_555 1_555
N14B Cu2B 1_555 1_555
C6B N14B 1_555 1_555
C7B C6B 1_555 1_555
Cl2B C7B 1_555 1_555
C8B C7B 1_555 1_555
C9B C8B 1_555 1_555
C10B N14B 1_555 1_555
H5B C6B 1_555 1_555
H6B C8B 1_555 1_555
H7B C9B 1_555 1_555
H8B C10B 1_555 1_555
N15B Cu2B 1_555 1_555
C11B N15B 1_555 1_555
C12B C11B 1_555 1_555
Cl3B C12B 1_555 1_555
C13B C12B 1_555 1_555
C14B C13B 1_555 1_555
C15B N15B 1_555 1_555
H9B C11B 1_555 1_555
H10B C13B 1_555 1_555
H11B C14B 1_555 1_555
H12B C15B 1_555 1_555
N16B Cu3 1_555 1_555
C16B N16B 1_555 1_555
C17B C16B 1_555 1_555
Cl4B C17B 1_555 1_555
C18B C17B 1_555 1_555
C19B C18B 1_555 1_555
C20B N16B 1_555 1_555
H13B C16B 1_555 1_555
H14B C18B 1_555 1_555
H15B C19B 1_555 1_555
H16B C20B 1_555 1_555
N4B_2 Cu3 1_555 1_555
N10B_2 Cu3 1_555 1_555
Cu3_2 N4B 1_555 1_555
Cu2 N7 1_555 1_555
N11 N12 1_555 1_555
C4 C5 1_555 1_555
C9 C10 1_555 1_555
C14 C15 1_555 1_555
C19 C20 1_555 1_555
N7B Cu2B 1_555 1_555
C4B C5B 1_555 1_555
N10B Cu3_2 1_555 1_555
C9B C10B 1_555 1_555
C14B C15B 1_555 1_555
C19B C20B 1_555 1_555

#END
