
#######################################################################
#
#                 Cambridge Crystallographic Data Centre
#                                CCDC 
#
#######################################################################
#
# If this CIF has been generated from an entry in the Cambridge 
# Structural Database, then it will include bibliographic, chemical, 
# crystal, experimental, refinement or atomic coordinate data resulting 
# from the CCDC's data processing and validation procedures.
#
#######################################################################

data_GITTEJ
_symmetry_cell_setting           monoclinic
_symmetry_space_group_name_H-M   'P 2/n'
_symmetry_Int_Tables_number      13
_space_group_name_Hall           '-P 2yac'
loop_
_symmetry_equiv_pos_site_id
_symmetry_equiv_pos_as_xyz
1 x,y,z
2 1/2-x,y,1/2-z
3 -x,-y,-z
4 1/2+x,-y,1/2+z
_cell_length_a                   21.110(3)
_cell_length_b                   9.906(2)
_cell_length_c                   21.110(4)
_cell_angle_alpha                90.00
_cell_angle_beta                 90.000(2)
_cell_angle_gamma                90.00
_cell_volume                     4414.43
loop_
_atom_site_label
_atom_site_type_symbol
_atom_site_fract_x
_atom_site_fract_y
_atom_site_fract_z
C1 C 0.5017(9) 1.300(2) 0.3618(9)
H1 H 0.5263 1.2600 0.3291
C2 C 0.4316(13) 1.330(2) 0.4277(12)
H2 H 0.3942 1.3209 0.4523
C3 C 0.3987(14) 1.200(2) 0.2373(10)
H3 H 0.4075 1.2840 0.2569
C4 C 0.3842(13) 1.184(2) 0.1753(10)
H4 H 0.3814 1.2528 0.1443
C5 C 0.3815(10) 0.9918(19) 0.2234(9)
H5 H 0.3748 0.8986 0.2317
C7 C 0.554(2) 0.959(4) 0.390(2)
H7 H 0.5722 1.0467 0.3921
C8 C 0.4947(10) 0.7942(18) 0.3537(9)
H8 H 0.4618 0.7485 0.3318
C9 C 0.5831(13) 0.837(3) 0.4012(14)
H9 H 0.6270 0.8398 0.4110
C10 C 0.2836(10) 1.0199(19) 0.3868(11)
H10 H 0.2716 1.0511 0.3460
C11 C 0.3421(10) 0.962(2) 0.4672(11)
H11 H 0.3768 0.9421 0.4943
C12 C 0.4449(11) 1.156(2) 0.0080(10)
H12 H 0.4812 1.1068 0.0212
C13 C 0.3483(10) 1.215(2) -0.0060(9)
H13 H 0.3033 1.2161 -0.0048
C14 C 0.2788(13) 0.951(3) 0.4813(9)
H14 H 0.2627 0.9244 0.5214
C15 C 0.3718(9) 0.7439(18) -0.0005(9)
H15 H 0.3616 0.7979 -0.0363
C16 C 0.3927(9) 0.6840(19) 0.0947(10)
H16 H 0.3996 0.6843 0.1392
C17 C 0.3937(9) 0.574(2) 0.0579(9)
H17 H 0.4027 0.4842 0.0716
C18 C 0.4445(12) 1.269(2) -0.0274(10)
H18 H 0.4809 1.3134 -0.0434
C19 C 0.7184(12) 0.5516(19) 0.3836(10)
H19 H 0.7279 0.6293 0.3589
C20 C 0.5380(12) 0.483(2) 0.1578(9)
H20 H 0.5099 0.4692 0.1232
C21 C 0.5209(11) 0.498(2) 0.2194(11)
H21 H 0.4790 0.4947 0.2357
C22 C 0.6224(9) 0.5151(17) 0.2131(9)
H22 H 0.6657 0.5268 0.2237
C23 C 0.6653(16) 0.418(3) 0.4352(16)
H23 H 0.6320 0.3730 0.4570
C25 C 0.7296(14) 0.407(4) 0.445(2)
H25 H 0.7479 0.3423 0.4732
C26 C 0.4695(16) 1.440(4) 0.4271(14)
H26 H 0.4654 1.5157 0.4542
N1 N 0.4558(7) 1.2318(14) 0.3867(7)
N2 N 0.3991(8) 1.0779(16) 0.2674(7)
N3 N 0.4902(7) 0.9221(15) 0.3727(7)
N4 N 0.3453(8) 1.0091(15) 0.4057(7)
N5 N 0.3818(8) 1.1242(15) 0.0219(8)
N6 N 0.3804(8) 0.7957(15) 0.0592(7)
N7 N 0.3740(8) 1.0468(14) 0.1656(7)
N8 N 0.2421(7) 0.9831(17) 0.4301(8)
N9 N 0.3822(8) 1.3093(15) -0.0369(7)
N10 N 0.3791(7) 0.6125(14) -0.0033(6)
N11 N 0.7628(8) 0.4926(18) 0.4132(8)
N12 N 0.6010(8) 0.4914(16) 0.1543(7)
N13 N 0.5500(8) 0.7365(14) 0.3683(6)
N14 N 0.5755(8) 0.5200(16) 0.2542(7)
N15 N 0.6608(10) 0.5086(17) 0.3861(8)
N16 N 0.5154(8) 1.4234(15) 0.3805(7)
Zn1 Zn 0.42135(12) 1.0542(2) 0.35919(11)
Zn2 Zn 0.35130(12) 0.9804(2) 0.08087(11)
Zn3 Zn 0.35532(12) 1.4862(2) -0.07364(11)
Zn4 Zn 0.57783(11) 0.5503(2) 0.34780(11)
N8A N 0.2579(7) 0.9831(17) 0.0699(8)
N10_2 N 0.3791(7) 1.6125(14) -0.0033(6)
N11C N 0.2628(8) 1.5074(18) -0.0868(8)
N12B N 0.3990(8) 1.5086(16) -0.1543(7)
N16_2 N 0.5154(8) 0.4234(15) 0.3805(7)
Zn2A Zn 0.14870(12) 0.9804(2) 0.41913(11)
Zn3_2 Zn 0.35532(12) 0.4862(2) -0.07364(11)
Zn3C Zn 0.85532(12) 0.5138(2) 0.42636(11)
Zn3B Zn 0.64468(12) 0.5138(2) 0.07364(11)
Zn4_2 Zn 0.57783(11) 1.5503(2) 0.34780(11)
N17 N 0.5914(14) 0.984(2) 0.1684(12)
C27 C 0.6470(17) 0.964(4) 0.1372(13)
H27 H 0.6642 0.8758 0.1339
C28 C 0.5661(17) 1.116(3) 0.1786(17)
H28 H 0.5999 1.1766 0.1929
H29 H 0.5329 1.1118 0.2109
H30 H 0.5482 1.1503 0.1389
C29 C 0.5578(19) 0.876(3) 0.1958(17)
H31 H 0.5725 0.7908 0.1775
H32 H 0.5124 0.8870 0.1873
H33 H 0.5649 0.8753 0.2417
O1 O 0.6745(12) 1.060(2) 0.1134(10)
N18 N 0.3002(15) 0.549(3) 0.348(4)
C30 C 0.343(2) 0.550(5) 0.291(3)
C31 C 0.286(3) 0.676(7) 0.365(3)
H34 H 0.2407 0.6841 0.3720
H35 H 0.2994 0.7375 0.3311
H36 H 0.3091 0.6989 0.4040
C32 C 0.2636 0.4414 0.3369
H37 H 0.2505 0.4007 0.3772
H38 H 0.2875 0.3751 0.3121
H39 H 0.2260 0.4695 0.3131
O2 O 0.3702(13) 0.643(3) 0.2692(15)
C6? C 0.538(2) 0.932(4) 0.416(3)
H6? H 0.5392 0.9937 0.4507
C24? C 0.680(5) 0.360(11) 0.393(5)
H24? H 0.6679 0.2772 0.3739
O3? O 0.7500 0.752(5) 0.2500
N19? N 0.7500 0.988(5) 0.2500
C33? C 0.728(3) 0.857(6) 0.264(3)
C34? C 0.710(4) 1.039(8) 0.290(4)
loop_
_geom_bond_atom_site_label_1
_geom_bond_atom_site_label_2
_geom_bond_site_symmetry_1
_geom_bond_site_symmetry_2
C1 H1 1_555 1_555
C2 H2 1_555 1_555
C3 H3 1_555 1_555
C4 C3 1_555 1_555
H4 C4 1_555 1_555
C5 H5 1_555 1_555
C7 H7 1_555 1_555
C8 H8 1_555 1_555
C9 C7 1_555 1_555
H9 C9 1_555 1_555
C10 H10 1_555 1_555
C11 H11 1_555 1_555
C12 H12 1_555 1_555
C13 H13 1_555 1_555
C14 C11 1_555 1_555
H14 C14 1_555 1_555
C15 H15 1_555 1_555
C16 H16 1_555 1_555
C17 C16 1_555 1_555
H17 C17 1_555 1_555
C18 C12 1_555 1_555
H18 C18 1_555 1_555
C19 H19 1_555 1_555
C20 H20 1_555 1_555
C21 C20 1_555 1_555
H21 C21 1_555 1_555
C22 H22 1_555 1_555
C23 H23 1_555 1_555
C25 C23 1_555 1_555
H25 C25 1_555 1_555
C26 C2 1_555 1_555
H26 C26 1_555 1_555
N1 C1 1_555 1_555
N2 C3 1_555 1_555
N3 C7 1_555 1_555
N4 C10 1_555 1_555
N5 C12 1_555 1_555
N6 C15 1_555 1_555
N7 C4 1_555 1_555
N8 C10 1_555 1_555
N9 C13 1_555 1_555
N10 C15 1_555 1_555
N11 C19 1_555 1_555
N12 C20 1_555 1_555
N13 C8 1_555 1_555
N14 C21 1_555 1_555
N15 C19 1_555 1_555
N16 C1 1_555 1_555
Zn1 N1 1_555 1_555
Zn2 N5 1_555 1_555
Zn3 N9 1_555 1_555
Zn4 N13 1_555 1_555
N17 C27 1_555 1_555
C27 H27 1_555 1_555
C28 N17 1_555 1_555
H28 C28 1_555 1_555
H29 C28 1_555 1_555
H30 C28 1_555 1_555
C29 N17 1_555 1_555
H31 C29 1_555 1_555
H32 C29 1_555 1_555
H33 C29 1_555 1_555
O1 C27 1_555 1_555
N18 C30 1_555 1_555
C30 O2 1_555 1_555
C31 N18 1_555 1_555
H34 C31 1_555 1_555
H35 C31 1_555 1_555
H36 C31 1_555 1_555
C32 N18 1_555 1_555
H37 C32 1_555 1_555
H38 C32 1_555 1_555
H39 C32 1_555 1_555
N8A Zn2 1_555 1_555
N10_2 Zn3 1_555 1_555
N11C Zn3 1_555 1_555
N12B Zn3 1_555 1_555
N16_2 Zn4 1_555 1_555
Zn2A N8 1_555 1_555
Zn3_2 N10 1_555 1_555
Zn3C N11 1_555 1_555
Zn3B N12 1_555 1_555
Zn4_2 N16 1_555 1_555
C2 N1 1_555 1_555
C5 N2 1_555 1_555
C5 N7 1_555 1_555
C8 N3 1_555 1_555
C9 N13 1_555 1_555
C11 N4 1_555 1_555
C13 N5 1_555 1_555
C14 N8 1_555 1_555
C16 N6 1_555 1_555
C17 N10 1_555 1_555
C18 N9 1_555 1_555
C22 N12 1_555 1_555
C22 N14 1_555 1_555
C23 N15 1_555 1_555
C25 N11 1_555 1_555
C26 N16 1_555 1_555
N2 Zn1 1_555 1_555
N3 Zn1 1_555 1_555
N4 Zn1 1_555 1_555
N6 Zn2 1_555 1_555
N7 Zn2 1_555 1_555
N14 Zn4 1_555 1_555
N15 Zn4 1_555 1_555

#END
