
#######################################################################
#
#                 Cambridge Crystallographic Data Centre
#                                CCDC 
#
#######################################################################
#
# If this CIF has been generated from an entry in the Cambridge 
# Structural Database, then it will include bibliographic, chemical, 
# crystal, experimental, refinement or atomic coordinate data resulting 
# from the CCDC's data processing and validation procedures.
#
#######################################################################

data_GITVIP01
_symmetry_cell_setting           cubic
_symmetry_space_group_name_H-M   'P m -3 m'
_symmetry_Int_Tables_number      221
_space_group_name_Hall           '-P 4 2 3'
loop_
_symmetry_equiv_pos_site_id
_symmetry_equiv_pos_as_xyz
1 x,y,z
2 z,x,y
3 y,z,x
4 y,x,-z
5 y,-x,z
6 -y,x,z
7 x,z,-y
8 -x,z,y
9 x,-z,y
10 z,y,-x
11 z,-y,x
12 -z,y,x
13 -x,-y,z
14 -x,y,-z
15 x,-y,-z
16 z,-x,-y
17 -z,-x,y
18 -z,x,-y
19 -y,z,-x
20 y,-z,-x
21 -y,-z,x
22 -y,-x,-z
23 -x,-z,-y
24 -z,-y,-x
25 -x,-y,-z
26 -z,-x,-y
27 -y,-z,-x
28 -y,-x,z
29 -y,x,-z
30 y,-x,-z
31 -x,-z,y
32 x,-z,-y
33 -x,z,-y
34 -z,-y,x
35 -z,y,-x
36 z,-y,-x
37 x,y,-z
38 x,-y,z
39 -x,y,z
40 -z,x,y
41 z,x,-y
42 z,-x,y
43 y,-z,x
44 -y,z,x
45 y,z,-x
46 y,x,z
47 x,z,y
48 z,y,x
_cell_length_a                   28.5539(2)
_cell_length_b                   28.5539(2)
_cell_length_c                   28.5539(2)
_cell_angle_alpha                90
_cell_angle_beta                 90
_cell_angle_gamma                90
_cell_volume                     23280.7
loop_
_atom_site_label
_atom_site_type_symbol
_atom_site_fract_x
_atom_site_fract_y
_atom_site_fract_z
Zn1 Zn 0.39551(6) 0.10433(6) 0.25207(6)
C1 C 0.3957(7) 0.0000 0.2590(6)
H1 H 0.4239 0.0000 0.2766
N1 N 0.3721(3) 0.0380(5) 0.2443(3)
C2 C 0.3358(4) 0.0243(4) 0.2215(3)
Cl1 Cl 0.29541(10) 0.06062(11) 0.19564(10)
C3 C 0.5000 0.1065(5) 0.2548(7)
H2 H 0.5000 0.1171 0.2232
N2 N 0.4603(3) 0.0991(3) 0.2769(4)
C4 C 0.4776(4) 0.0827(4) 0.3208(4)
Cl2 Cl 0.43906(12) 0.06862(15) 0.36268(11)
C5 C 0.3176(4) 0.1142(7) 0.3176(4)
H3 H 0.3065 0.0849 0.3065
N3 N 0.3539(3) 0.1349(4) 0.2972(4)
C6 C 0.3566(4) 0.1753(4) 0.3241(4)
Cl3 Cl 0.39754(12) 0.21522(11) 0.31090(11)
C7 C 0.3949(6) 0.1781(8) 0.1781(8)
H4 H 0.3856 0.2007 0.2007
N4 N 0.4007(3) 0.1361(4) 0.1923(4)
C8 C 0.4171(3) 0.1186(3) 0.1507(4)
Cl4 Cl 0.43310(10) 0.05954(11) 0.14477(9)
Zn1KA Zn 0.39551(6) -0.10433(6) 0.25207(6)
Zn1LA Zn 0.60449(6) 0.10433(6) 0.25207(6)
Zn1UA Zn 0.25207(6) 0.10433(6) 0.39551(6)
Zn1TA Zn 0.39551(6) 0.25207(6) 0.10433(6)
N1KA N 0.3721(3) -0.0380(5) 0.2443(3)
C2KA C 0.3358(4) -0.0243(4) 0.2215(3)
Cl1KA Cl 0.29541(10) -0.06062(11) 0.19564(10)
N2LA N 0.5397(3) 0.0991(3) 0.2769(4)
N2KA N 0.4603(3) -0.0991(3) 0.2769(4)
C4LA C 0.5224(4) 0.0827(4) 0.3208(4)
Cl2LA Cl 0.56094(12) 0.06862(15) 0.36268(11)
N3UA N 0.2972(4) 0.1349(4) 0.3539(3)
N3KA N 0.3539(3) -0.1349(4) 0.2972(4)
C6UA C 0.3241(4) 0.1753(4) 0.3566(4)
Cl3UA Cl 0.31090(11) 0.21522(11) 0.39754(12)
N4TA N 0.4007(3) 0.1923(4) 0.1361(4)
N4KA N 0.4007(3) -0.1361(4) 0.1923(4)
C8TA C 0.4171(3) 0.1507(4) 0.1186(3)
Cl4TA Cl 0.43310(10) 0.14477(9) 0.05954(11)
loop_
_geom_bond_atom_site_label_1
_geom_bond_atom_site_label_2
_geom_bond_site_symmetry_1
_geom_bond_site_symmetry_2
Zn1 N1 1_555 1_555
C1 H1 1_555 1_555
N1 C1 1_555 1_555
C2 N1 1_555 1_555
Cl1 C2 1_555 1_555
C3 H2 1_555 1_555
N2 Zn1 1_555 1_555
C4 N2 1_555 1_555
Cl2 C4 1_555 1_555
C5 H3 1_555 1_555
N3 Zn1 1_555 1_555
C6 N3 1_555 1_555
Cl3 C6 1_555 1_555
C7 H4 1_555 1_555
N4 Zn1 1_555 1_555
C8 N4 1_555 1_555
Cl4 C8 1_555 1_555
Zn1KA N1KA 1_555 1_555
Zn1LA N2LA 1_555 1_555
Zn1UA N3UA 1_555 1_555
Zn1TA N4TA 1_555 1_555
N1KA C1 1_555 1_555
C2KA C2 1_555 1_555
Cl1KA C2KA 1_555 1_555
N2LA C3 1_555 1_555
N2KA Zn1KA 1_555 1_555
C4LA C4 1_555 1_555
Cl2LA C4LA 1_555 1_555
N3UA C5 1_555 1_555
N3KA Zn1KA 1_555 1_555
C6UA C6 1_555 1_555
Cl3UA C6UA 1_555 1_555
N4TA C7 1_555 1_555
N4KA Zn1KA 1_555 1_555
C8TA C8 1_555 1_555
Cl4TA C8TA 1_555 1_555
C3 N2 1_555 1_555
C5 N3 1_555 1_555
C7 N4 1_555 1_555
N1KA C2KA 1_555 1_555
N2LA C4LA 1_555 1_555
N3UA C6UA 1_555 1_555
N4TA C8TA 1_555 1_555

#END
