
#######################################################################
#
#                 Cambridge Crystallographic Data Centre
#                                CCDC 
#
#######################################################################
#
# If this CIF has been generated from an entry in the Cambridge 
# Structural Database, then it will include bibliographic, chemical, 
# crystal, experimental, refinement or atomic coordinate data resulting 
# from the CCDC's data processing and validation procedures.
#
#######################################################################

data_GITVUB
_symmetry_cell_setting           tetragonal
_symmetry_space_group_name_H-M   'I 41/a'
_symmetry_Int_Tables_number      88
_space_group_name_Hall           '-I 4ad'
loop_
_symmetry_equiv_pos_site_id
_symmetry_equiv_pos_as_xyz
1 x,y,z
2 3/4-y,1/4+x,1/4+z
3 1/2+x,1/2+y,1/2+z
4 1/4-y,3/4+x,3/4+z
5 1/4+y,1/4-x,1/4+z
6 1/2-x,-y,1/2+z
7 3/4+y,3/4-x,3/4+z
8 -x,1/2-y,z
9 -x,-y,-z
10 1/4+y,3/4-x,3/4-z
11 1/2-x,1/2-y,1/2-z
12 3/4+y,1/4-x,1/4-z
13 3/4-y,3/4+x,3/4-z
14 1/2+x,y,1/2-z
15 1/4-y,1/4+x,1/4-z
16 x,1/2+y,-z
_cell_length_a                   16.6703(2)
_cell_length_b                   16.6703(2)
_cell_length_c                   21.6026(6)
_cell_angle_alpha                90
_cell_angle_beta                 90
_cell_angle_gamma                90
_cell_volume                     6003.34
loop_
_atom_site_label
_atom_site_type_symbol
_atom_site_fract_x
_atom_site_fract_y
_atom_site_fract_z
N6 N 0.0415(6) 0.2710(6) 0.3344(5)
O5 O 0.1769(7) 0.2608(7) 0.2861(5)
C13 C 0.0390(13) 0.3598(9) 0.3247(10)
H12 H -0.0121 0.3810 0.3400
H13 H 0.0442 0.3716 0.2804
H14 H 0.0833 0.3850 0.3473
C14 C 0.1140(11) 0.2273(12) 0.3156(10)
C15 C 0.0000 0.2500 0.3929(11)
H15 H -0.0117 0.2991 0.4162
H16 H 0.0346 0.2150 0.4178
H17 H 0.0503 0.2779 0.3835
N6G N -0.0415(6) 0.2290(6) 0.3344(5)
O5G O -0.1769(7) 0.2392(7) 0.2861(5)
C13G C -0.0390(13) 0.1402(9) 0.3247(10)
H12G H 0.0121 0.1190 0.3400
H13G H -0.0442 0.1284 0.2804
H14G H -0.0833 0.1150 0.3473
C14G C -0.1140(11) 0.2727(12) 0.3156(10)
H15G H 0.0117 0.2009 0.4162
H16G H -0.0346 0.2850 0.4178
H17G H -0.0503 0.2221 0.3835
Zn1 Zn 0.30024(3) 0.08869(3) 0.39295(2)
C1 C 0.3178(2) 0.0256(2) 0.51938(16)
H1 H 0.3725 0.0150 0.5101
C2 C 0.2068(2) 0.0353(2) 0.56989(17)
C3 C 0.1438(3) 0.0342(2) 0.61234(19)
H2 H 0.1521 0.0155 0.6534
C4 C 0.0691(3) 0.0606(2) 0.5939(2)
C5 C 0.0005(4) 0.0596(3) 0.6400(2)
H3 H 0.0179 0.0326 0.6780
H4 H -0.0452 0.0307 0.6222
H5 H -0.0154 0.1148 0.6496
C6 C 0.2348(3) 0.3282(3) 0.4220(3)
H6 H 0.2060 0.3687 0.4435
C7 C 0.3142(2) 0.2680(2) 0.36356(18)
C8 C 0.2278(3) 0.2467(3) 0.4314(3)
H7 H 0.1933 0.2215 0.4606
C9 C 0.1940(2) 0.0604(2) 0.50877(17)
C10 C 0.1181(2) 0.0870(2) 0.49030(19)
H8 H 0.1093 0.1042 0.4489
C11 C 0.0563(2) 0.0880(2) 0.5325(2)
C12 C -0.0255(3) 0.1195(3) 0.5131(2)
H9 H -0.0242 0.1344 0.4693
H10 H -0.0391 0.1667 0.5381
H11 H -0.0660 0.0777 0.5197
N1 N 0.2791(2) 0.2079(2) 0.39155(17)
N2 N 0.26682(19) 0.05373(18) 0.47736(14)
N3 N 0.28668(18) 0.01318(18) 0.57564(14)
N4 N 0.2904(2) 0.3409(2) 0.37645(18)
N5 N 0.3720(4) 0.2542(3) 0.3159(2)
O3 O 0.3718(10) 0.1838(4) 0.2926(8)
O4 O 0.3945(11) 0.3116(6) 0.2872(8)
Zn1L Zn 0.66131(3) 0.05024(3) 0.35705(2)
Zn1D Zn 0.33869(3) -0.05024(3) 0.64295(2)
Zn1I Zn 0.33869(3) 0.44976(3) 0.35705(2)
Zn1C Zn 0.16131(3) 0.05024(3) 0.14295(2)
C1C C 0.2244(2) 0.0678(2) 0.26938(16)
H1C H 0.2350 0.1225 0.2601
C2C C 0.2147(2) -0.0432(2) 0.31989(17)
C3C C 0.2158(2) -0.1062(3) 0.36234(19)
H2C H 0.2345 -0.0979 0.4034
C4C C 0.1894(2) -0.1809(3) 0.3439(2)
C5C C 0.1904(3) -0.2495(4) 0.3900(2)
H3C H 0.2174 -0.2321 0.4280
H4C H 0.2193 -0.2952 0.3722
H5C H 0.1352 -0.2654 0.3996
C6L C 0.4218(3) -0.0152(3) 0.3280(3)
H6L H 0.3813 -0.0440 0.3065
C7L C 0.4820(2) 0.0642(2) 0.38644(18)
C8L C 0.5033(3) -0.0222(3) 0.3186(3)
H7L H 0.5285 -0.0567 0.2894
C9C C 0.1896(2) -0.0560(2) 0.25877(17)
C10C C 0.1630(2) -0.1319(2) 0.24030(19)
H8C H 0.1458 -0.1407 0.1989
C11C C 0.1620(2) -0.1937(2) 0.2825(2)
C12C C 0.1305(3) -0.2755(3) 0.2631(2)
H9C H 0.1156 -0.2742 0.2193
H10C H 0.0833 -0.2891 0.2881
H11C H 0.1723 -0.3160 0.2697
N1L N 0.5421(2) 0.0291(2) 0.35845(17)
N2C N 0.19627(18) 0.01682(19) 0.22736(14)
N2L N 0.69627(18) 0.01682(19) 0.27264(14)
N3C N 0.23682(18) 0.03668(18) 0.32564(14)
N3H N 0.71332(18) -0.01318(18) 0.42436(14)
N4L N 0.4091(2) 0.0404(2) 0.37355(18)
N4G N 0.7096(2) 0.1591(2) 0.37645(18)
N5L N 0.4958(3) 0.1220(4) 0.4341(2)
O3L O 0.5662(4) 0.1218(10) 0.4574(8)
O4L O 0.4384(6) 0.1445(11) 0.4628(8)
O1? O 0.413(3) 0.1899(9) 0.3175(13)
O2? O 0.4263(19) 0.3179(10) 0.3077(13)
loop_
_geom_bond_atom_site_label_1
_geom_bond_atom_site_label_2
_geom_bond_site_symmetry_1
_geom_bond_site_symmetry_2
Zn1 N1 1_555 1_555
C1 H1 1_555 1_555
C2 C3 1_555 1_555
C3 H2 1_555 1_555
C4 C3 1_555 1_555
C5 C4 1_555 1_555
H3 C5 1_555 1_555
H4 C5 1_555 1_555
H5 C5 1_555 1_555
C6 H6 1_555 1_555
C7 N1 1_555 1_555
C8 C6 1_555 1_555
H7 C8 1_555 1_555
C9 C2 1_555 1_555
C10 C9 1_555 1_555
H8 C10 1_555 1_555
C11 C4 1_555 1_555
C12 C11 1_555 1_555
H9 C12 1_555 1_555
H10 C12 1_555 1_555
H11 C12 1_555 1_555
N1 C8 1_555 1_555
N2 Zn1 1_555 1_555
N3 C1 1_555 1_555
N4 C6 1_555 1_555
N5 C7 1_555 1_555
O3 N5 1_555 1_555
O4 N5 1_555 1_555
N6 C13 1_555 1_555
O5 C14 1_555 1_555
C13 H12 1_555 1_555
H13 C13 1_555 1_555
H14 C13 1_555 1_555
C14 N6 1_555 1_555
C15 N6 1_555 1_555
H15 C15 1_555 1_555
H16 C15 1_555 1_555
H17 N6 1_555 1_555
Zn1L N1L 1_555 1_555
Zn1D N3 1_555 1_555
Zn1I N4 1_555 1_555
Zn1C N2C 1_555 1_555
C1C H1C 1_555 1_555
C2C C3C 1_555 1_555
C3C H2C 1_555 1_555
C4C C3C 1_555 1_555
C5C C4C 1_555 1_555
H3C C5C 1_555 1_555
H4C C5C 1_555 1_555
H5C C5C 1_555 1_555
C6L H6L 1_555 1_555
C7L N1L 1_555 1_555
C8L C6L 1_555 1_555
H7L C8L 1_555 1_555
C9C C2C 1_555 1_555
C10C C9C 1_555 1_555
H8C C10C 1_555 1_555
C11C C4C 1_555 1_555
C12C C11C 1_555 1_555
H9C C12C 1_555 1_555
H10C C12C 1_555 1_555
H11C C12C 1_555 1_555
N1L C8L 1_555 1_555
N2C C1C 1_555 1_555
N2L Zn1L 1_555 1_555
N3C Zn1 1_555 1_555
N3H Zn1L 1_555 1_555
N4L Zn1 1_555 1_555
N4G Zn1L 1_555 1_555
N5L C7L 1_555 1_555
O3L N5L 1_555 1_555
O4L N5L 1_555 1_555
N6G N6 1_555 1_555
O5G C14G 1_555 1_555
C13G N6G 1_555 1_555
H12G C13G 1_555 1_555
H13G C13G 1_555 1_555
H14G C13G 1_555 1_555
C14G N6G 1_555 1_555
H15G C15 1_555 1_555
H16G C15 1_555 1_555
H17G C15 1_555 1_555
C1 N2 1_555 1_555
C2 N3 1_555 1_555
C7 N4 1_555 1_555
C9 N2 1_555 1_555
C10 C11 1_555 1_555
C15 H17 1_555 1_555
C15 N6G 1_555 1_555
H15 H16G 1_555 1_555
H16 H15G 1_555 1_555
C1C N3C 1_555 1_555
C2C N3C 1_555 1_555
C6L N4L 1_555 1_555
C7L N4L 1_555 1_555
C9C N2C 1_555 1_555
C10C C11C 1_555 1_555
N6G H17G 1_555 1_555

#END
