
#######################################################################
#
#                 Cambridge Crystallographic Data Centre
#                                CCDC 
#
#######################################################################
#
# If this CIF has been generated from an entry in the Cambridge 
# Structural Database, then it will include bibliographic, chemical, 
# crystal, experimental, refinement or atomic coordinate data resulting 
# from the CCDC's data processing and validation procedures.
#
#######################################################################

data_GITWIR
_symmetry_cell_setting           monoclinic
_symmetry_space_group_name_H-M   'P 21/c'
_symmetry_Int_Tables_number      14
_space_group_name_Hall           '-P 2ybc'
loop_
_symmetry_equiv_pos_site_id
_symmetry_equiv_pos_as_xyz
1 x,y,z
2 -x,1/2+y,1/2-z
3 -x,-y,-z
4 x,1/2-y,1/2+z
_cell_length_a                   27.504(3)
_cell_length_b                   14.3017(15)
_cell_length_c                   13.3049(16)
_cell_angle_alpha                90
_cell_angle_beta                 102.667(2)
_cell_angle_gamma                90
_cell_volume                     5106.16
loop_
_atom_site_label
_atom_site_type_symbol
_atom_site_fract_x
_atom_site_fract_y
_atom_site_fract_z
Cd1 Cd 0.780844(14) 0.27331(3) 0.63707(3)
Cd2 Cd 0.815631(15) 0.44476(3) 0.85788(3)
Cd3 Cd 0.747751(16) 0.65813(3) 0.77563(3)
Cd4 Cd 0.71421(2) 0.70697(4) 0.50327(4)
N1 N 0.85715(17) 0.4915(3) 0.5535(4)
N2 N 0.93840(17) 0.4241(3) 0.5694(4)
N3 N 0.86686(17) 0.3506(3) 0.4640(4)
N4 N 0.92530(18) 0.5642(4) 0.6504(4)
H1 H 0.9031 0.5993 0.6678
N5 N 0.94220(18) 0.2823(3) 0.4837(4)
H2 H 0.9257 0.2442 0.4389
N6 N 0.78898(16) 0.4025(3) 0.4731(3)
N7 N 0.60321(18) 0.8981(4) 0.5692(4)
N8 N 0.54287(19) 0.9272(4) 0.4136(5)
N9 N 0.62798(18) 0.9739(4) 0.4283(4)
N10 N 0.5232(2) 0.8472(5) 0.5499(5)
H3 H 0.5343 0.8270 0.6115
N11 N 0.5696(2) 1.0109(6) 0.2846(5)
H4 H 0.5946 1.0242 0.2580
N12 N 0.68364(17) 0.9512(3) 0.5813(4)
O1 O 1.13314(15) 0.7764(3) 0.8141(3)
O2 O 1.16076(15) 0.6327(3) 0.8125(3)
O3 O 1.17693(17) 0.2217(4) 0.6555(4)
O4 O 1.14700(18) 0.0812(3) 0.6769(4)
O5 O 0.78126(15) 0.4406(3) 0.6760(3)
O6 O 0.75544(16) 0.5852(3) 0.6293(3)
O7 O 0.78923(16) 0.2033(3) 0.4835(3)
O8 O 0.78904(16) 0.1997(3) 0.3178(3)
O9 O 0.28914(17) 0.8146(4) 0.3487(4)
O10 O 0.30094(18) 0.6894(4) 0.4441(5)
O11 O 0.3428(2) 1.0851(5) 0.0410(6)
O12 O 0.3693(2) 1.2245(5) 0.0704(6)
O13 O 0.7234(2) 0.8186(4) 0.8178(4)
O14 O 0.7273(2) 0.7823(3) 0.6606(3)
O15 O 0.7291(2) 0.8531(3) 0.4407(4)
O16 O 0.74394(16) 0.9844(3) 0.3707(3)
O17 O 0.8490(2) 0.4818(4) 1.0240(4)
O18 O 0.89462(17) 0.3988(4) 0.8337(4)
O19 O 0.8038(2) 0.6987(4) 0.5142(4)
O20 O 0.6649(3) 0.6246(7) 0.7059(9)
C1 C 0.9072(2) 0.4898(4) 0.5890(4)
C2 C 0.9159(2) 0.3564(4) 0.5071(4)
C3 C 0.83947(19) 0.4163(4) 0.4976(4)
C4 C 0.9754(2) 0.5918(4) 0.6896(5)
C5 C 0.9847(2) 0.6860(4) 0.7092(5)
H5 H 0.9584 0.7284 0.6965
C6 C 1.0326(2) 0.7176(4) 0.7476(4)
H6 H 1.0383 0.7808 0.7620
C7 C 1.0727(2) 0.6550(4) 0.7650(4)
C8 C 1.0628(2) 0.5607(4) 0.7490(5)
H7 H 1.0890 0.5182 0.7631
C9 C 1.0143(2) 0.5277(4) 0.7121(5)
H8 H 1.0082 0.4640 0.7028
C10 C 1.1250(2) 0.6893(4) 0.7986(4)
C11 C 0.9925(2) 0.2587(4) 0.5218(4)
C12 C 1.0300(2) 0.3234(4) 0.5557(5)
H9 H 1.0227 0.3870 0.5528
C13 C 1.0784(2) 0.2933(4) 0.5941(5)
H10 H 1.1036 0.3369 0.6165
C14 C 1.0897(2) 0.1981(4) 0.5993(5)
C15 C 1.0522(2) 0.1332(4) 0.5600(5)
H11 H 1.0598 0.0698 0.5601
C16 C 1.0045(2) 0.1631(4) 0.5215(5)
H12 H 0.9797 0.1198 0.4949
C17 C 1.1412(2) 0.1645(4) 0.6465(4)
C18 C 0.75697(19) 0.4780(3) 0.4960(4)
H13 H 0.7224 0.4597 0.4721
H14 H 0.7625 0.5334 0.4580
C19 C 0.76599(18) 0.5022(3) 0.6094(4)
C20 C 0.7687(2) 0.3446(4) 0.3834(4)
H15 H 0.7797 0.3693 0.3243
H16 H 0.7326 0.3483 0.3686
C21 C 0.78409(18) 0.2434(3) 0.3981(4)
C22 C 0.5575(2) 0.8925(5) 0.5082(5)
C23 C 0.5802(2) 0.9682(5) 0.3784(5)
C24 C 0.63630(19) 0.9397(4) 0.5248(5)
C25 C 0.4728(2) 0.8280(5) 0.5096(6)
C26 C 0.4512(3) 0.7587(8) 0.5592(8)
H17 H 0.4704 0.7268 0.6149
C27 C 0.4011(3) 0.7373(8) 0.5256(9)
H18 H 0.3871 0.6908 0.5591
C28 C 0.3717(2) 0.7832(5) 0.4441(6)
C29 C 0.3934(2) 0.8533(5) 0.3955(6)
H19 H 0.3741 0.8854 0.3401
C30 C 0.4431(2) 0.8756(5) 0.4286(6)
H20 H 0.4568 0.9233 0.3960
C31 C 0.3175(2) 0.7616(5) 0.4098(6)
C32 C 0.5217(3) 1.0359(7) 0.2258(7)
C33 C 0.4806(3) 0.9815(7) 0.2145(7)
H21 H 0.4835 0.9223 0.2442
C34 C 0.4346(3) 1.0113(7) 0.1602(7)
H22 H 0.4078 0.9701 0.1487
C35 C 0.4280(3) 1.1007(8) 0.1230(8)
C36 C 0.4692(3) 1.1615(9) 0.1363(10)
H23 H 0.4653 1.2224 0.1112
C37 C 0.5162(3) 1.1290(9) 0.1880(10)
H24 H 0.5438 1.1684 0.1974
C38 C 0.3767(3) 1.1387(7) 0.0744(7)
C39 C 0.6953(2) 0.9342(4) 0.6917(4)
H25 H 0.6652 0.9428 0.7173
H26 H 0.7192 0.9809 0.7245
C40 C 0.7162(2) 0.8389(4) 0.7240(4)
C41 C 0.7202(2) 0.9950(4) 0.5341(5)
H27 H 0.7509 1.0027 0.5857
H28 H 0.7084 1.0568 0.5103
C42 C 0.7313(2) 0.9400(4) 0.4440(4)
Cd1A Cd 1.219156(14) 0.77331(3) 0.86293(3)
Cd1B Cd 0.219156(14) 0.72669(3) 0.36293(3)
Cd1C Cd 0.780844(14) 0.22669(3) 0.13707(3)
Cd2A Cd 1.184369(15) -0.05524(3) 0.64212(3)
Cd2C Cd 0.815631(15) 0.05524(3) 0.35788(3)
Cd2C_2 Cd 0.815631(15) 1.05524(3) 0.35788(3)
Cd3A Cd 1.252249(16) 0.15813(3) 0.72437(3)
Cd3C Cd 0.747751(16) 0.84187(3) 0.27563(3)
Cd4A Cd 0.28579(2) 1.20697(4) -0.00327(4)
Cd4C Cd 0.71421(2) 0.79303(4) 1.00327(4)
O1A O 0.86686(15) 0.2764(3) 0.6859(3)
O2A O 0.83924(15) 0.1327(3) 0.6875(3)
O3A O 0.82307(17) 0.7217(4) 0.8445(4)
O4A O 0.85300(18) 0.5812(3) 0.8231(4)
O8C O 0.78904(16) 0.3003(3) 0.8178(3)
O9B O 0.71086(17) 0.1854(4) 0.6513(4)
O10B O 0.69906(18) 0.3106(4) 0.5559(5)
O11A O 0.6572(2) 0.5851(5) 0.4590(6)
O12A O 0.6307(2) 0.7245(5) 0.4296(6)
O13C O 0.7234(2) 0.6814(4) 0.3178(4)
O15C O 0.7291(2) 0.6469(3) 0.9407(4)
O16C O 0.74394(16) 0.5156(3) 0.8707(3)
O21 O 0.8537(4) 0.6486(5) 0.1299(6)
O22 O 0.5962(5) 0.7417(9) 0.7177(9)
O23 O 0.1778(3) 0.4609(6) 0.7117(8)
O24 O 0.6598(5) 0.4260(14) 0.7114(19)
loop_
_geom_bond_atom_site_label_1
_geom_bond_atom_site_label_2
_geom_bond_site_symmetry_1
_geom_bond_site_symmetry_2
Cd1 O5 1_555 1_555
Cd2 O5 1_555 1_555
Cd3 O6 1_555 1_555
Cd4 O6 1_555 1_555
N1 C1 1_555 1_555
N2 C1 1_555 1_555
N3 C2 1_555 1_555
N4 H1 1_555 1_555
N5 H2 1_555 1_555
N6 C3 1_555 1_555
N7 C22 1_555 1_555
N8 C22 1_555 1_555
N9 C23 1_555 1_555
N10 H3 1_555 1_555
N11 H4 1_555 1_555
N12 C24 1_555 1_555
O1 C10 1_555 1_555
O2 C10 1_555 1_555
O3 C17 1_555 1_555
O4 C17 1_555 1_555
O5 C19 1_555 1_555
O6 C19 1_555 1_555
O7 Cd1 1_555 1_555
O8 C21 1_555 1_555
O9 C31 1_555 1_555
O10 C31 1_555 1_555
O11 C38 1_555 1_555
O12 C38 1_555 1_555
O13 Cd3 1_555 1_555
O14 Cd3 1_555 1_555
O15 Cd4 1_555 1_555
O16 C42 1_555 1_555
O17 Cd2 1_555 1_555
O18 Cd2 1_555 1_555
O19 Cd4 1_555 1_555
O20 Cd3 1_555 1_555
C1 N4 1_555 1_555
C2 N2 1_555 1_555
C3 N1 1_555 1_555
C4 N4 1_555 1_555
C5 C4 1_555 1_555
H5 C5 1_555 1_555
C6 C5 1_555 1_555
H6 C6 1_555 1_555
C7 C6 1_555 1_555
C8 C7 1_555 1_555
H7 C8 1_555 1_555
C9 C4 1_555 1_555
H8 C9 1_555 1_555
C10 C7 1_555 1_555
C11 N5 1_555 1_555
C12 C11 1_555 1_555
H9 C12 1_555 1_555
C13 C12 1_555 1_555
H10 C13 1_555 1_555
C14 C13 1_555 1_555
C15 C14 1_555 1_555
H11 C15 1_555 1_555
C16 C11 1_555 1_555
H12 C16 1_555 1_555
C17 C14 1_555 1_555
C18 N6 1_555 1_555
H13 C18 1_555 1_555
H14 C18 1_555 1_555
C19 C18 1_555 1_555
C20 N6 1_555 1_555
H15 C20 1_555 1_555
H16 C20 1_555 1_555
C21 O7 1_555 1_555
C22 N10 1_555 1_555
C23 N8 1_555 1_555
C24 N7 1_555 1_555
C25 N10 1_555 1_555
C26 C25 1_555 1_555
H17 C26 1_555 1_555
C27 C26 1_555 1_555
H18 C27 1_555 1_555
C28 C27 1_555 1_555
C29 C28 1_555 1_555
H19 C29 1_555 1_555
C30 C25 1_555 1_555
H20 C30 1_555 1_555
C31 C28 1_555 1_555
C32 N11 1_555 1_555
C33 C32 1_555 1_555
H21 C33 1_555 1_555
C34 C33 1_555 1_555
H22 C34 1_555 1_555
C35 C34 1_555 1_555
C36 C35 1_555 1_555
H23 C36 1_555 1_555
C37 C32 1_555 1_555
H24 C37 1_555 1_555
C38 C35 1_555 1_555
C39 N12 1_555 1_555
H25 C39 1_555 1_555
H26 C39 1_555 1_555
C40 O13 1_555 1_555
C41 N12 1_555 1_555
H27 C41 1_555 1_555
H28 C41 1_555 1_555
C42 O15 1_555 1_555
Cd1A O1 1_555 1_555
Cd1B O9 1_555 1_555
Cd1C O8 1_555 1_555
Cd2A O4 1_555 1_555
Cd2C O8 1_555 1_555
Cd2C_2 O16 1_555 1_555
Cd3A O3 1_555 1_555
Cd3C O15 1_555 1_555
Cd4A O11 1_555 1_555
Cd4C O13 1_555 1_555
O1A Cd1 1_555 1_555
O2A Cd1 1_555 1_555
O3A Cd3 1_555 1_555
O4A Cd2 1_555 1_555
O8C Cd1 1_555 1_555
O9B Cd1 1_555 1_555
O10B Cd1 1_555 1_555
O11A Cd4 1_555 1_555
O12A Cd4 1_555 1_555
O13C Cd4 1_555 1_555
O15C Cd3 1_555 1_555
O16C Cd2 1_555 1_555
Cd2 O8C 1_555 1_555
Cd3 O16C 1_555 1_555
Cd4 O14 1_555 1_555
N3 C3 1_555 1_555
N5 C2 1_555 1_555
N9 C24 1_555 1_555
N11 C23 1_555 1_555
O2 Cd1A 1_555 1_555
O10 Cd1B 1_555 1_555
O12 Cd4A 1_555 1_555
O14 C40 1_555 1_555
O16 Cd3C 1_555 1_555
C8 C9 1_555 1_555
C15 C16 1_555 1_555
C20 C21 1_555 1_555
C29 C30 1_555 1_555
C36 C37 1_555 1_555
C39 C40 1_555 1_555
C41 C42 1_555 1_555
Cd3C O13C 1_555 1_555
Cd4C O15C 1_555 1_555

#END
