
#######################################################################
#
#                 Cambridge Crystallographic Data Centre
#                                CCDC 
#
#######################################################################
#
# If this CIF has been generated from an entry in the Cambridge 
# Structural Database, then it will include bibliographic, chemical, 
# crystal, experimental, refinement or atomic coordinate data resulting 
# from the CCDC's data processing and validation procedures.
#
#######################################################################

data_GITWOX
_symmetry_cell_setting           triclinic
_symmetry_space_group_name_H-M   'P -1'
_symmetry_Int_Tables_number      2
_space_group_name_Hall           '-P 1'
loop_
_symmetry_equiv_pos_site_id
_symmetry_equiv_pos_as_xyz
1 x,y,z
2 -x,-y,-z
_cell_length_a                   8.8692(7)
_cell_length_b                   13.3176(14)
_cell_length_c                   15.8973(15)
_cell_angle_alpha                103.897(4)
_cell_angle_beta                 96.463(2)
_cell_angle_gamma                98.338(4)
_cell_volume                     1782.14
loop_
_atom_site_label
_atom_site_type_symbol
_atom_site_fract_x
_atom_site_fract_y
_atom_site_fract_z
Zn1 Zn 0.32576(4) 0.01064(3) 0.36664(2)
Zn2 Zn 0.64758(4) 0.30991(3) 0.54802(2)
O1 O 1.1928(3) 0.6191(2) 0.33768(16)
O2 O 1.1847(3) 0.5376(2) 0.44087(17)
O3 O -0.2390(2) -0.07576(18) -0.27471(14)
O4 O -0.0996(3) 0.07670(18) -0.26898(14)
O5 O 0.5059(2) 0.12516(17) 0.42438(14)
O6 O 0.7458(2) 0.21071(16) 0.46642(13)
O7 O 0.3756(2) -0.12075(17) 0.38697(14)
O8 O 0.5010(2) -0.25427(17) 0.38014(14)
O9 O 0.2074(2) 0.06544(16) 0.46486(13)
O10 O 0.4970(3) 0.35750(18) 0.46667(15)
N1 N 0.4474(3) -0.05584(19) 0.16124(16)
N2 N 0.4538(3) 0.0889(2) 0.09574(16)
N3 N 0.6151(3) 0.10829(19) 0.23184(15)
N4 N 0.6324(3) 0.23761(19) 0.15529(15)
H1 H 0.5920 0.2566 0.1111
N5 N 0.2818(3) -0.07044(19) 0.03761(15)
H2 H 0.2601 -0.1340 0.0416
N6 N 0.5940(3) -0.0277(2) 0.29822(16)
N7 N 0.1247(3) 0.2123(2) 0.53548(17)
N8 N 0.4619(3) 0.4099(2) 0.34189(17)
C1 C 0.5502(3) 0.0085(2) 0.22582(19)
C2 C 0.5657(3) 0.1414(2) 0.16242(18)
C3 C 0.3980(3) -0.0085(2) 0.09906(18)
C4 C 0.7566(3) 0.3097(2) 0.20910(19)
C5 C 0.8388(3) 0.3817(2) 0.1720(2)
H3 H 0.8122 0.3780 0.1129
C6 C 0.9585(4) 0.4577(2) 0.2220(2)
H4 H 1.0110 0.5055 0.1966
C7 C 1.0018(3) 0.4635(2) 0.3104(2)
C8 C 0.9200(4) 0.3925(3) 0.3468(2)
H5 H 0.9472 0.3962 0.4058
C9 C 0.7985(4) 0.3162(2) 0.29760(19)
H6 H 0.7450 0.2694 0.3235
C10 C 1.1330(4) 0.5442(3) 0.3662(2)
C11 C 0.1906(3) -0.0482(2) -0.03178(18)
C12 C 0.2219(4) 0.0420(3) -0.06188(19)
H7 H 0.3093 0.0926 -0.0366
C13 C 0.1203(4) 0.0547(2) -0.1300(2)
H8 H 0.1408 0.1148 -0.1498
C14 C -0.0102(3) -0.0191(2) -0.16955(19)
C15 C -0.0377(4) -0.1100(3) -0.1400(2)
H9 H -0.1239 -0.1613 -0.1662
C16 C 0.0617(4) -0.1243(2) -0.0723(2)
H10 H 0.0423 -0.1853 -0.0537
C17 C -0.1220(3) -0.0041(3) -0.24137(19)
C18 C 0.7100(4) 0.0416(2) 0.36819(19)
H11 H 0.7960 0.0693 0.3428
H12 H 0.7483 0.0011 0.4065
C19 C 0.6482(3) 0.1322(2) 0.42205(18)
C20 C 0.5697(4) -0.1395(2) 0.29168(19)
H13 H 0.6693 -0.1609 0.2991
H14 H 0.5172 -0.1770 0.2333
C21 C 0.4758(3) -0.1719(2) 0.35862(19)
C22 C 0.2043(3) 0.1620(2) 0.48030(19)
H15 H 0.2632 0.2007 0.4502
C23 C 0.0322(4) 0.1596(3) 0.5886(2)
H16 H 0.0376 0.0861 0.5738
H17 H -0.0731 0.1682 0.5773
H18 H 0.0717 0.1901 0.6497
C24 C 0.1283(4) 0.3233(3) 0.5495(2)
H19 H 0.1917 0.3494 0.5115
H20 H 0.1701 0.3586 0.6094
H21 H 0.0255 0.3362 0.5368
C25 C 0.5374(4) 0.4158(3) 0.4194(2)
H22 H 0.6264 0.4663 0.4402
C26 C 0.3293(4) 0.3270(3) 0.3027(3)
H23 H 0.3097 0.2845 0.3426
H24 H 0.3501 0.2841 0.2490
H25 H 0.2406 0.3579 0.2907
C27 C 0.5092(4) 0.4825(3) 0.2904(2)
H26 H 0.5973 0.5331 0.3230
H27 H 0.4260 0.5181 0.2780
H28 H 0.5353 0.4442 0.2364
Zn1A Zn -0.32576(4) -0.01064(3) -0.36664(2)
Zn2A Zn 0.35242(4) -0.30991(3) 0.45198(2)
Zn2A_2 Zn 1.35242(4) 0.69009(3) 0.45198(2)
O1A O 0.8072(3) 0.3809(2) 0.66232(16)
O2A O 0.8153(3) 0.4624(2) 0.55913(17)
O3A O 0.2390(2) 0.07576(18) 0.27471(14)
O4A O 0.0996(3) -0.07670(18) 0.26898(14)
O8A O 0.4990(2) 0.25427(17) 0.61986(14)
O11 O 0.5018(3) 0.3080(2) 0.00715(18)
N9 N 0.2905(4) 0.3767(3) -0.0294(2)
C28 C 0.3737(5) 0.3295(3) 0.0181(3)
H29 H 0.3315 0.3108 0.0643
C29 C 0.1486(6) 0.4086(5) -0.0068(5)
H30 H 0.1251 0.3873 0.0445
H31 H 0.0665 0.3760 -0.0547
H32 H 0.1596 0.4836 0.0047
C30 C 0.3457(6) 0.4043(4) -0.1049(3)
H33 H 0.4425 0.3816 -0.1120
H34 H 0.3594 0.4792 -0.0962
H35 H 0.2718 0.3705 -0.1566
O12 O 0.2180(3) -0.29228(19) 0.05060(15)
O13 O -0.1064(5) 0.2852(2) -0.20520(18)
loop_
_geom_bond_atom_site_label_1
_geom_bond_atom_site_label_2
_geom_bond_site_symmetry_1
_geom_bond_site_symmetry_2
Zn1 O5 1_555 1_555
Zn2 O6 1_555 1_555
O1 C10 1_555 1_555
O2 C10 1_555 1_555
O3 C17 1_555 1_555
O4 C17 1_555 1_555
O5 C19 1_555 1_555
O6 C19 1_555 1_555
O7 Zn1 1_555 1_555
O8 C21 1_555 1_555
O9 Zn1 1_555 1_555
O10 Zn2 1_555 1_555
N1 C1 1_555 1_555
N2 C2 1_555 1_555
N3 C1 1_555 1_555
N4 H1 1_555 1_555
N5 H2 1_555 1_555
N6 C1 1_555 1_555
N7 C22 1_555 1_555
N8 C25 1_555 1_555
C2 N3 1_555 1_555
C3 N1 1_555 1_555
C4 N4 1_555 1_555
C5 C4 1_555 1_555
H3 C5 1_555 1_555
C6 C5 1_555 1_555
H4 C6 1_555 1_555
C7 C6 1_555 1_555
C8 C7 1_555 1_555
H5 C8 1_555 1_555
C9 C4 1_555 1_555
H6 C9 1_555 1_555
C10 C7 1_555 1_555
C11 N5 1_555 1_555
C12 C11 1_555 1_555
H7 C12 1_555 1_555
C13 C12 1_555 1_555
H8 C13 1_555 1_555
C14 C13 1_555 1_555
C15 C14 1_555 1_555
H9 C15 1_555 1_555
C16 C11 1_555 1_555
H10 C16 1_555 1_555
C17 C14 1_555 1_555
C18 N6 1_555 1_555
H11 C18 1_555 1_555
H12 C18 1_555 1_555
C19 C18 1_555 1_555
C20 N6 1_555 1_555
H13 C20 1_555 1_555
H14 C20 1_555 1_555
C21 O7 1_555 1_555
C22 O9 1_555 1_555
H15 C22 1_555 1_555
C23 N7 1_555 1_555
H16 C23 1_555 1_555
H17 C23 1_555 1_555
H18 C23 1_555 1_555
C24 N7 1_555 1_555
H19 C24 1_555 1_555
H20 C24 1_555 1_555
H21 C24 1_555 1_555
C25 O10 1_555 1_555
H22 C25 1_555 1_555
C26 N8 1_555 1_555
H23 C26 1_555 1_555
H24 C26 1_555 1_555
H25 C26 1_555 1_555
C27 N8 1_555 1_555
H26 C27 1_555 1_555
H27 C27 1_555 1_555
H28 C27 1_555 1_555
O11 C28 1_555 1_555
N9 C28 1_555 1_555
C28 H29 1_555 1_555
C29 N9 1_555 1_555
H30 C29 1_555 1_555
H31 C29 1_555 1_555
H32 C29 1_555 1_555
C30 N9 1_555 1_555
H33 C30 1_555 1_555
H34 C30 1_555 1_555
H35 C30 1_555 1_555
Zn1A O3 1_555 1_555
Zn2A O8 1_555 1_555
Zn2A_2 O1 1_555 1_555
O1A Zn2 1_555 1_555
O2A Zn2 1_555 1_555
O3A Zn1 1_555 1_555
O4A Zn1 1_555 1_555
O8A Zn2 1_555 1_555
O2 Zn2A_2 1_555 1_555
O4 Zn1A 1_555 1_555
N2 C3 1_555 1_555
N4 C2 1_555 1_555
N5 C3 1_555 1_555
C8 C9 1_555 1_555
C15 C16 1_555 1_555
C20 C21 1_555 1_555

#END
