
#######################################################################
#
#                 Cambridge Crystallographic Data Centre
#                                CCDC 
#
#######################################################################
#
# If this CIF has been generated from an entry in the Cambridge 
# Structural Database, then it will include bibliographic, chemical, 
# crystal, experimental, refinement or atomic coordinate data resulting 
# from the CCDC's data processing and validation procedures.
#
#######################################################################

data_GITYEP
_symmetry_cell_setting           orthorhombic
_symmetry_space_group_name_H-M   'P b c a'
_symmetry_Int_Tables_number      61
_space_group_name_Hall           '-P 2ac 2ab'
loop_
_symmetry_equiv_pos_site_id
_symmetry_equiv_pos_as_xyz
1 x,y,z
2 1/2-x,-y,1/2+z
3 1/2+x,1/2-y,-z
4 -x,1/2+y,1/2-z
5 -x,-y,-z
6 1/2+x,y,1/2-z
7 1/2-x,1/2+y,z
8 x,1/2-y,1/2+z
_cell_length_a                   14.9603(11)
_cell_length_b                   17.1932(13)
_cell_length_c                   27.477(2)
_cell_angle_alpha                90
_cell_angle_beta                 90
_cell_angle_gamma                90
_cell_volume                     7067.51
loop_
_atom_site_label
_atom_site_type_symbol
_atom_site_fract_x
_atom_site_fract_y
_atom_site_fract_z
C1 C 0.8720(3) 0.1699(2) 1.17974(16)
H1 H 0.8498 0.2046 1.1568
C2 C 0.8482(3) 0.1681(3) 1.22698(16)
H2 H 0.8080 0.2011 1.2425
C3 C 0.9452(3) 0.0766(2) 1.21221(13)
H3 H 0.9832 0.0344 1.2165
C4 C 0.8887(3) 0.0782(2) 1.29676(13)
C5 C 0.8299(3) 0.1120(3) 1.32913(15)
H4 H 0.7962 0.1548 1.3197
C6 C 0.8212(3) 0.0821(3) 1.37544(15)
H5 H 0.7807 0.1040 1.3971
C7 C 0.8731(3) 0.0194(2) 1.38958(14)
C8 C 0.9317(3) -0.0147(2) 1.35666(14)
C9 C 0.9396(3) 0.0143(2) 1.31013(14)
H6 H 0.9786 -0.0086 1.2880
C10 C 0.9785(3) -0.0844(2) 1.37915(15)
C11 C 0.9423(3) -0.0816(2) 1.43065(14)
C12 C 0.8787(3) -0.0233(2) 1.43599(14)
C13 C 0.8329(3) -0.0147(2) 1.47944(15)
H7 H 0.7895 0.0237 1.4828
C14 C 0.8525(3) -0.0639(2) 1.51798(15)
H8 H 0.8219 -0.0594 1.5473
C15 C 0.9182(3) -0.1199(2) 1.51213(13)
C16 C 0.9639(3) -0.1291(2) 1.46919(14)
H9 H 1.0085 -0.1665 1.4662
C17 C 0.9479(4) -0.1599(2) 1.35408(16)
H10 H 0.9711 -0.1614 1.3215
H11 H 0.8838 -0.1614 1.3531
H12 H 0.9697 -0.2039 1.3720
C18 C 1.0805(3) -0.0786(3) 1.37723(18)
H13 H 1.1000 -0.0807 1.3440
H14 H 1.1063 -0.1211 1.3950
H15 H 1.0992 -0.0303 1.3915
C19 C 0.9662(2) -0.2452(2) 1.54742(14)
H16 H 0.9772 -0.2697 1.5178
C20 C 0.9542(4) -0.2230(2) 1.62365(16)
H17 H 0.9553 -0.2298 1.6572
C21 C 0.9305(4) -0.1573(3) 1.60062(16)
H18 H 0.9123 -0.1111 1.6151
C22 C 1.1263(3) -0.0442(2) 1.16602(14)
C23 C 1.1830(2) -0.0518(2) 1.21081(14)
C24 C 1.2331(3) -0.1185(2) 1.21913(15)
H19 H 1.2323 -0.1589 1.1966
C25 C 1.2842(3) -0.1249(2) 1.26088(15)
H20 H 1.3203 -0.1683 1.2654
C26 C 1.2823(3) -0.0672(2) 1.29603(14)
C27 C 1.2309(3) -0.0020(2) 1.28849(14)
H21 H 1.2280 0.0363 1.3123
C28 C 1.1834(3) 0.0067(2) 1.24568(14)
H22 H 1.1515 0.0523 1.2402
C29 C 1.3381(3) -0.0731(2) 1.34193(15)
C30 C 0.8861(2) 0.1426(2) 1.02263(14)
C31 C 0.8212(2) 0.2031(2) 1.00448(13)
C32 C 0.7929(2) 0.2618(2) 1.03534(14)
H23 H 0.8146 0.2638 1.0670
C33 C 0.7333(2) 0.3171(2) 1.01978(14)
H24 H 0.7159 0.3571 1.0405
C34 C 0.6988(2) 0.3129(2) 0.97240(13)
C35 C 0.7268(2) 0.2536(2) 0.94178(14)
H25 H 0.7038 0.2504 0.9104
C36 C 0.7886(2) 0.1992(2) 0.95737(14)
H26 H 0.8080 0.1602 0.9364
C37 C 0.6297(2) 0.3701(2) 0.95544(14)
N1 N 0.9339(2) 0.11280(17) 1.17047(11)
N2 N 0.8954(2) 0.10769(17) 1.24788(11)
N3 N 0.9381(2) -0.17120(18) 1.55176(12)
N4 N 0.9764(2) -0.27870(18) 1.58987(11)
O1 O 1.09211(17) 0.02031(15) 1.15636(9)
O2 O 1.11308(18) -0.10645(15) 1.14161(9)
O3 O 1.30825(19) -0.04644(18) 1.38027(10)
O4 O 1.41491(19) -0.10527(15) 1.33672(10)
O5 O 0.90097(19) 0.14171(15) 1.06742(10)
O6 O 0.92141(18) 0.09850(13) 0.99140(9)
O7 O 0.59357(19) 0.35562(15) 0.91482(10)
O8 O 0.61135(17) 0.42673(15) 0.98222(10)
O9 O 0.96388(16) -0.01751(13) 1.07229(8)
Zn1 Zn 0.99486(3) 0.08018(2) 1.107926(14)
Zn2 Zn 1.0000 0.0000 1.0000
Zn3 Zn 1.00096(3) -0.11127(2) 1.106181(15)
C1D C 1.1280(3) -0.1699(2) 0.82026(16)
H1D H 1.1502 -0.2046 0.8432
C2D C 1.1518(3) -0.1681(3) 0.77302(16)
H2D H 1.1920 -0.2011 0.7575
C3D C 1.0548(3) -0.0766(2) 0.78779(13)
H3D H 1.0168 -0.0344 0.7835
C4D C 1.1113(3) -0.0782(2) 0.70324(13)
C5D C 1.1701(3) -0.1120(3) 0.67087(15)
H4D H 1.2038 -0.1548 0.6803
C6D C 1.1788(3) -0.0821(3) 0.62456(15)
H5D H 1.2193 -0.1040 0.6029
C7D C 1.1269(3) -0.0194(2) 0.61042(14)
C8D C 1.0683(3) 0.0147(2) 0.64334(14)
C9D C 1.0604(3) -0.0143(2) 0.68987(14)
H6D H 1.0214 0.0086 0.7120
C10D C 1.0215(3) 0.0844(2) 0.62085(15)
C11D C 1.0577(3) 0.0816(2) 0.56935(14)
C12D C 1.1213(3) 0.0233(2) 0.56401(14)
C13D C 1.1671(3) 0.0147(2) 0.52056(15)
H7D H 1.2105 -0.0237 0.5172
C14D C 1.1475(3) 0.0639(2) 0.48202(15)
H8D H 1.1781 0.0594 0.4527
C15D C 1.0818(3) 0.1199(2) 0.48787(13)
C16D C 1.0361(3) 0.1291(2) 0.53081(14)
H9D H 0.9915 0.1665 0.5338
C17D C 1.0521(4) 0.1599(2) 0.64592(16)
H10D H 1.0289 0.1614 0.6785
H11D H 1.1162 0.1614 0.6469
H12D H 1.0303 0.2039 0.6280
C18D C 0.9195(3) 0.0786(3) 0.62277(18)
H13D H 0.9000 0.0807 0.6560
H14D H 0.8937 0.1211 0.6050
H15D H 0.9008 0.0303 0.6085
C19D C 1.0338(2) 0.2452(2) 0.45258(14)
H16D H 1.0228 0.2697 0.4822
C20D C 1.0458(4) 0.2230(2) 0.37635(16)
H17D H 1.0447 0.2298 0.3428
C21D C 1.0695(4) 0.1573(3) 0.39938(16)
H18D H 1.0877 0.1111 0.3849
C22D C 0.8737(3) 0.0442(2) 0.83398(14)
C23D C 0.8170(2) 0.0518(2) 0.78919(14)
C24D C 0.7669(3) 0.1185(2) 0.78087(15)
H19D H 0.7677 0.1589 0.8034
C25D C 0.7158(3) 0.1249(2) 0.73912(15)
H20D H 0.6797 0.1683 0.7346
C26D C 0.7177(3) 0.0672(2) 0.70397(14)
C27D C 0.7691(3) 0.0020(2) 0.71151(14)
H21D H 0.7720 -0.0363 0.6877
C28D C 0.8166(3) -0.0067(2) 0.75432(14)
H22D H 0.8485 -0.0523 0.7598
C29D C 0.6619(3) 0.0731(2) 0.65807(15)
C30D C 1.1139(2) -0.1426(2) 0.97737(14)
C31D C 1.1788(2) -0.2031(2) 0.99552(13)
C32D C 1.2071(2) -0.2618(2) 0.96466(14)
H23D H 1.1854 -0.2638 0.9330
C33D C 1.2667(2) -0.3171(2) 0.98022(14)
H24D H 1.2841 -0.3571 0.9595
C34D C 1.3012(2) -0.3129(2) 1.02760(13)
C35D C 1.2732(2) -0.2536(2) 1.05822(14)
H25D H 1.2962 -0.2504 1.0896
C36D C 1.2114(2) -0.1992(2) 1.04263(14)
H26D H 1.1920 -0.1602 1.0636
C37D C 1.3703(2) -0.3701(2) 1.04456(14)
N1D N 1.0661(2) -0.11280(17) 0.82953(11)
N2D N 1.1046(2) -0.10769(17) 0.75212(11)
N3D N 1.0619(2) 0.17120(18) 0.44824(12)
N4D N 1.0236(2) 0.27870(18) 0.41013(11)
O1D O 0.90789(17) -0.02031(15) 0.84364(9)
O2D O 0.88692(18) 0.10645(15) 0.85839(9)
O3D O 0.69175(19) 0.04644(18) 0.61973(10)
O4D O 0.58509(19) 0.10527(15) 0.66328(10)
O5D O 1.09903(19) -0.14171(15) 0.93258(10)
O6D O 1.07859(18) -0.09850(13) 1.00860(9)
O7D O 1.40643(19) -0.35562(15) 1.08518(10)
O8D O 1.38865(17) -0.42673(15) 1.01778(10)
O9D O 1.03612(16) 0.01751(13) 0.92771(8)
Zn1D Zn 1.00514(3) -0.08018(2) 0.892074(14)
Zn3D Zn 0.99904(3) 0.11127(2) 0.893819(15)
N4C N 1.0236(2) 0.22130(18) 0.91013(11)
N4G N 0.9764(2) -0.22130(18) 1.08987(11)
O4A O 1.08509(19) 0.10527(15) 0.83672(10)
O4E O 0.91491(19) -0.10527(15) 1.16328(10)
O7B O 1.09357(19) 0.14438(15) 1.08518(10)
O7F O 0.90643(19) -0.14438(15) 0.91482(10)
O8B O 1.11135(17) 0.07327(15) 1.01778(10)
O8F O 0.88865(17) -0.07327(15) 0.98222(10)
Zn1B Zn 0.49486(3) 0.41982(2) 0.892074(14)
Zn1F Zn 1.50514(3) -0.41982(2) 1.107926(14)
Zn2B Zn 0.5000 0.5000 1.0000
Zn2B_2 Zn 1.5000 -0.5000 1.0000
Zn3A Zn 0.49904(3) 0.11127(2) 0.606181(15)
Zn3C Zn 0.99904(3) 0.38873(2) 0.393819(15)
Zn3E Zn 1.50096(3) -0.11127(2) 1.393819(15)
Zn3G Zn 1.00096(3) -0.38873(2) 1.606181(15)
O10 O 0.8701(4) -0.3030(3) 1.2844(2)
O11 O 1.4996(3) -0.1923(3) 1.26601(17)
loop_
_geom_bond_atom_site_label_1
_geom_bond_atom_site_label_2
_geom_bond_site_symmetry_1
_geom_bond_site_symmetry_2
C1 H1 1_555 1_555
C2 C1 1_555 1_555
H2 C2 1_555 1_555
C3 H3 1_555 1_555
C4 C5 1_555 1_555
C5 H4 1_555 1_555
C6 C5 1_555 1_555
H5 C6 1_555 1_555
C7 C6 1_555 1_555
C8 C7 1_555 1_555
C9 C4 1_555 1_555
H6 C9 1_555 1_555
C10 C8 1_555 1_555
C11 C10 1_555 1_555
C12 C7 1_555 1_555
C13 C12 1_555 1_555
H7 C13 1_555 1_555
C14 C13 1_555 1_555
H8 C14 1_555 1_555
C15 C14 1_555 1_555
C16 C11 1_555 1_555
H9 C16 1_555 1_555
C17 C10 1_555 1_555
H10 C17 1_555 1_555
H11 C17 1_555 1_555
H12 C17 1_555 1_555
C18 C10 1_555 1_555
H13 C18 1_555 1_555
H14 C18 1_555 1_555
H15 C18 1_555 1_555
C19 H16 1_555 1_555
C20 H17 1_555 1_555
C21 C20 1_555 1_555
H18 C21 1_555 1_555
C22 C23 1_555 1_555
C23 C24 1_555 1_555
C24 H19 1_555 1_555
C25 C24 1_555 1_555
H20 C25 1_555 1_555
C26 C25 1_555 1_555
C27 C26 1_555 1_555
H21 C27 1_555 1_555
C28 C23 1_555 1_555
H22 C28 1_555 1_555
C29 C26 1_555 1_555
C30 C31 1_555 1_555
C31 C32 1_555 1_555
C32 H23 1_555 1_555
C33 C32 1_555 1_555
H24 C33 1_555 1_555
C34 C33 1_555 1_555
C35 C34 1_555 1_555
H25 C35 1_555 1_555
C36 C31 1_555 1_555
H26 C36 1_555 1_555
C37 C34 1_555 1_555
N1 C1 1_555 1_555
N2 C2 1_555 1_555
N3 C15 1_555 1_555
N4 C19 1_555 1_555
O1 C22 1_555 1_555
O2 C22 1_555 1_555
O3 C29 1_555 1_555
O4 C29 1_555 1_555
O5 C30 1_555 1_555
O6 C30 1_555 1_555
O7 C37 1_555 1_555
O8 C37 1_555 1_555
O9 Zn1 1_555 1_555
Zn1 N1 1_555 1_555
Zn2 O6 1_555 1_555
Zn3 O2 1_555 1_555
C1D H1D 1_555 1_555
C2D C1D 1_555 1_555
H2D C2D 1_555 1_555
C3D H3D 1_555 1_555
C4D C5D 1_555 1_555
C5D H4D 1_555 1_555
C6D C5D 1_555 1_555
H5D C6D 1_555 1_555
C7D C6D 1_555 1_555
C8D C7D 1_555 1_555
C9D C4D 1_555 1_555
H6D C9D 1_555 1_555
C10D C8D 1_555 1_555
C11D C10D 1_555 1_555
C12D C7D 1_555 1_555
C13D C12D 1_555 1_555
H7D C13D 1_555 1_555
C14D C13D 1_555 1_555
H8D C14D 1_555 1_555
C15D C14D 1_555 1_555
C16D C11D 1_555 1_555
H9D C16D 1_555 1_555
C17D C10D 1_555 1_555
H10D C17D 1_555 1_555
H11D C17D 1_555 1_555
H12D C17D 1_555 1_555
C18D C10D 1_555 1_555
H13D C18D 1_555 1_555
H14D C18D 1_555 1_555
H15D C18D 1_555 1_555
C19D H16D 1_555 1_555
C20D H17D 1_555 1_555
C21D C20D 1_555 1_555
H18D C21D 1_555 1_555
C22D C23D 1_555 1_555
C23D C24D 1_555 1_555
C24D H19D 1_555 1_555
C25D C24D 1_555 1_555
H20D C25D 1_555 1_555
C26D C25D 1_555 1_555
C27D C26D 1_555 1_555
H21D C27D 1_555 1_555
C28D C23D 1_555 1_555
H22D C28D 1_555 1_555
C29D C26D 1_555 1_555
C30D C31D 1_555 1_555
C31D C32D 1_555 1_555
C32D H23D 1_555 1_555
C33D C32D 1_555 1_555
H24D C33D 1_555 1_555
C34D C33D 1_555 1_555
C35D C34D 1_555 1_555
H25D C35D 1_555 1_555
C36D C31D 1_555 1_555
H26D C36D 1_555 1_555
C37D C34D 1_555 1_555
N1D C1D 1_555 1_555
N2D C2D 1_555 1_555
N3D C15D 1_555 1_555
N4D C19D 1_555 1_555
O1D C22D 1_555 1_555
O2D C22D 1_555 1_555
O3D C29D 1_555 1_555
O4D C29D 1_555 1_555
O5D C30D 1_555 1_555
O6D Zn2 1_555 1_555
O7D C37D 1_555 1_555
O8D C37D 1_555 1_555
O9D Zn2 1_555 1_555
Zn1D N1D 1_555 1_555
Zn3D O2D 1_555 1_555
N4C Zn3D 1_555 1_555
N4G Zn3 1_555 1_555
O4A Zn3D 1_555 1_555
O4E Zn3 1_555 1_555
O7B Zn1 1_555 1_555
O7F Zn1D 1_555 1_555
O8B Zn2 1_555 1_555
O8F Zn2 1_555 1_555
Zn1B O7 1_555 1_555
Zn1F O7D 1_555 1_555
Zn2B O8 1_555 1_555
Zn2B_2 O8D 1_555 1_555
Zn3A O4D 1_555 1_555
Zn3C N4D 1_555 1_555
Zn3E O4 1_555 1_555
Zn3G N4 1_555 1_555
C3 N1 1_555 1_555
C3 N2 1_555 1_555
C4 N2 1_555 1_555
C8 C9 1_555 1_555
C11 C12 1_555 1_555
C15 C16 1_555 1_555
C19 N3 1_555 1_555
C20 N4 1_555 1_555
C21 N3 1_555 1_555
C27 C28 1_555 1_555
C35 C36 1_555 1_555
O1 Zn1 1_555 1_555
O5 Zn1 1_555 1_555
O9 Zn2 1_555 1_555
O9 Zn3 1_555 1_555
C3D N1D 1_555 1_555
C3D N2D 1_555 1_555
C4D N2D 1_555 1_555
C8D C9D 1_555 1_555
C11D C12D 1_555 1_555
C15D C16D 1_555 1_555
C19D N3D 1_555 1_555
C20D N4D 1_555 1_555
C21D N3D 1_555 1_555
C27D C28D 1_555 1_555
C30D O6D 1_555 1_555
C35D C36D 1_555 1_555
O1D Zn1D 1_555 1_555
O5D Zn1D 1_555 1_555
O9D Zn1D 1_555 1_555
O9D Zn3D 1_555 1_555

#END
