
#######################################################################
#
#                 Cambridge Crystallographic Data Centre
#                                CCDC 
#
#######################################################################
#
# If this CIF has been generated from an entry in the Cambridge 
# Structural Database, then it will include bibliographic, chemical, 
# crystal, experimental, refinement or atomic coordinate data resulting 
# from the CCDC's data processing and validation procedures.
#
#######################################################################

data_GITYIT
_symmetry_cell_setting           monoclinic
_symmetry_space_group_name_H-M   'C 2/c'
_symmetry_Int_Tables_number      15
_space_group_name_Hall           '-C 2yn'
loop_
_symmetry_equiv_pos_site_id
_symmetry_equiv_pos_as_xyz
1 x,y,z
2 -x,y,1/2-z
3 1/2+x,1/2+y,z
4 1/2-x,1/2+y,1/2-z
5 -x,-y,-z
6 x,-y,1/2+z
7 1/2-x,1/2-y,-z
8 1/2+x,1/2-y,1/2+z
_cell_length_a                   28.3903(12)
_cell_length_b                   13.8667(6)
_cell_length_c                   14.3593(6)
_cell_angle_alpha                90
_cell_angle_beta                 107.2540(10)
_cell_angle_gamma                90
_cell_volume                     5398.58
loop_
_atom_site_label
_atom_site_type_symbol
_atom_site_fract_x
_atom_site_fract_y
_atom_site_fract_z
C1 C 0.24795(8) 0.11228(18) 0.52519(17)
H1 H 0.2734 0.1499 0.5164
C2 C 0.20173(9) 0.10824(19) 0.46345(18)
H2 H 0.1895 0.1421 0.4053
C3 C 0.20768(8) 0.01153(16) 0.58790(16)
H3 H 0.1997 -0.0329 0.6293
C4 C 0.12525(8) 0.01665(16) 0.46599(16)
C5 C 0.11203(8) -0.07815(16) 0.47645(16)
H4 H 0.1357 -0.1238 0.5061
C6 C 0.06285(8) -0.10308(15) 0.44188(15)
C7 C 0.02700(8) -0.03386(15) 0.39878(16)
C8 C 0.04103(8) 0.06059(16) 0.38897(17)
H5 H 0.0174 0.1066 0.3600
C9 C 0.09043(8) 0.08623(16) 0.42242(17)
H6 H 0.1001 0.1493 0.4158
C10 C 0.03971(8) -0.20189(15) 0.44230(16)
C11 C -0.01452(8) -0.17744(16) 0.39946(16)
C12 C -0.02151(8) -0.08037(16) 0.37230(16)
C13 C -0.06872(8) -0.04454(16) 0.32878(17)
H7 H -0.0734 0.0202 0.3116
C14 C -0.10872(8) -0.10654(16) 0.31130(16)
H8 H -0.1405 -0.0840 0.2812
C15 C -0.10097(8) -0.20256(16) 0.33914(17)
C16 C -0.05429(8) -0.23916(16) 0.38439(17)
H9 H -0.0499 -0.3033 0.4040
C17 C 0.05558(8) -0.27152(17) 0.37412(18)
H10 H 0.0899 -0.2868 0.4014
H11 H 0.0504 -0.2417 0.3115
H12 H 0.0364 -0.3296 0.3668
C18 C 0.05159(9) -0.24522(18) 0.54461(18)
H13 H 0.0862 -0.2593 0.5684
H14 H 0.0331 -0.3036 0.5421
H15 H 0.0430 -0.2000 0.5875
C19 C -0.18777(8) -0.25455(17) 0.32920(18)
H16 H -0.1993 -0.1991 0.3516
C20 C -0.21285(8) -0.33782(17) 0.30143(18)
H17 H -0.2450 -0.3495 0.3020
C21 C -0.14106(8) -0.35782(16) 0.28316(18)
H18 H -0.1141 -0.3850 0.2687
C22 C 0.26167(8) 0.11814(16) 0.85117(16)
C23 C 0.25576(8) 0.18598(16) 0.92872(16)
C24 C 0.20903(8) 0.20960(18) 0.93324(18)
H19 H 0.1814 0.1828 0.8887
C25 C 0.29659(8) 0.22719(18) 0.99628(18)
H20 H 0.3281 0.2119 0.9939
C26 C 0.39324(8) 0.13192(16) 0.70358(17)
C27 C 0.44850(8) 0.12971(16) 0.72667(17)
C28 C 0.47452(9) 0.04409(18) 0.7390(3)
H21 H 0.4577 -0.0142 0.7325
C29 C 0.47463(8) 0.21532(16) 0.73822(16)
H22 H 0.4577 0.2737 0.7300
N1 N 0.25156(6) 0.05201(13) 0.60320(14)
N2 N 0.17628(7) 0.04388(13) 0.50377(14)
N3 N -0.14188(7) -0.26826(13) 0.31778(14)
N4 N -0.18338(7) -0.40251(13) 0.27228(15)
O1 O 0.22967(6) 0.05985(12) 0.81220(12)
O2 O 0.30261(6) 0.12800(12) 0.82954(12)
O3 O 0.37055(6) 0.20796(13) 0.67805(14)
O4 O 0.37319(6) 0.05172(12) 0.71276(15)
Zn1 Zn 0.306868(9) 0.039819(17) 0.726176(18)
C22F C 0.23833(8) 0.38186(16) 1.14883(16)
C23F C 0.24424(8) 0.31402(16) 1.07128(16)
C24F C 0.29097(8) 0.29040(18) 1.06676(18)
H19F H 0.3186 0.3172 1.1113
C25F C 0.20341(8) 0.27281(18) 1.00372(18)
H20F H 0.1719 0.2881 1.0061
O1F O 0.27033(6) 0.44015(12) 1.18780(12)
O2F O 0.19739(6) 0.37200(12) 1.17046(12)
C26A C 0.60676(8) 0.13192(16) 0.79642(17)
C27A C 0.55150(8) 0.12971(16) 0.77333(17)
C28A C 0.52548(9) 0.04409(18) 0.7610(3)
H21A H 0.5423 -0.0142 0.7675
C29A C 0.52537(8) 0.21532(16) 0.76178(16)
H22A H 0.5423 0.2737 0.7700
O3A O 0.62945(6) 0.20796(13) 0.82195(14)
O4A O 0.62681(6) 0.05172(12) 0.78724(15)
C1A C 0.75205(8) 0.11228(18) 0.97481(17)
H1A H 0.7266 0.1499 0.9836
C2A C 0.79827(9) 0.10824(19) 1.03655(18)
H2A H 0.8105 0.1421 1.0947
C3A C 0.79232(8) 0.01153(16) 0.91210(16)
H3A H 0.8003 -0.0329 0.8707
C4A C 0.87475(8) 0.01665(16) 1.03401(16)
C5A C 0.88797(8) -0.07815(16) 1.02355(16)
H4A H 0.8643 -0.1238 0.9939
C6A C 0.93715(8) -0.10308(15) 1.05812(15)
C7A C 0.97300(8) -0.03386(15) 1.10122(16)
C8A C 0.95897(8) 0.06059(16) 1.11103(17)
H5A H 0.9826 0.1066 1.1400
C9A C 0.90957(8) 0.08623(16) 1.07758(17)
H6A H 0.8999 0.1493 1.0842
C10A C 0.96029(8) -0.20189(15) 1.05770(16)
C11A C 1.01452(8) -0.17744(16) 1.10054(16)
C12A C 1.02151(8) -0.08037(16) 1.12770(16)
C13A C 1.06872(8) -0.04454(16) 1.17122(17)
H7A H 1.0734 0.0202 1.1884
C14A C 1.10872(8) -0.10654(16) 1.18870(16)
H8A H 1.1405 -0.0840 1.2188
C15A C 1.10097(8) -0.20256(16) 1.16086(17)
C16A C 1.05429(8) -0.23916(16) 1.11561(17)
H9A H 1.0499 -0.3033 1.0960
C17A C 0.94442(8) -0.27152(17) 1.12588(18)
H10A H 0.9101 -0.2868 1.0986
H11A H 0.9496 -0.2417 1.1885
H12A H 0.9636 -0.3296 1.1332
C18A C 0.94841(9) -0.24522(18) 0.95539(18)
H13A H 0.9138 -0.2593 0.9316
H14A H 0.9669 -0.3036 0.9579
H15A H 0.9570 -0.2000 0.9125
C19A C 1.18777(8) -0.25455(17) 1.17080(18)
H16A H 1.1993 -0.1991 1.1484
C20A C 1.21285(8) -0.33782(17) 1.19857(18)
H17A H 1.2450 -0.3495 1.1980
C21A C 1.14106(8) -0.35782(16) 1.21684(18)
H18A H 1.1141 -0.3850 1.2313
N1A N 0.74844(6) 0.05201(13) 0.89680(14)
N2A N 0.82372(7) 0.04388(13) 0.99623(14)
N3A N 1.14188(7) -0.26826(13) 1.18222(14)
N4A N 1.18338(7) -0.40251(13) 1.22772(15)
Zn1A Zn 0.693132(9) 0.039819(17) 0.773824(18)
N4F N 0.68338(7) -0.09749(13) 0.72772(15)
N4G N 0.31662(7) -0.09749(13) 0.77228(15)
O2A O 0.69739(6) 0.12800(12) 0.67046(12)
Zn1F Zn 0.193132(9) 0.460181(17) 1.273824(18)
Zn1F_2 Zn 1.193132(9) -0.539819(17) 1.273824(18)
Zn1G Zn -0.193132(9) -0.539819(17) 0.226176(18)
O5 O 0.33232(7) 0.32365(14) 0.79916(15)
O6 O 0.4570(5) 0.0221(4) 0.4765(7)
O7 O 0.3842(4) -0.0043(7) 0.5005(6)
loop_
_geom_bond_atom_site_label_1
_geom_bond_atom_site_label_2
_geom_bond_site_symmetry_1
_geom_bond_site_symmetry_2
C1 H1 1_555 1_555
C2 C1 1_555 1_555
H2 C2 1_555 1_555
C3 H3 1_555 1_555
C4 C5 1_555 1_555
C5 H4 1_555 1_555
C6 C5 1_555 1_555
C7 C6 1_555 1_555
C8 C7 1_555 1_555
H5 C8 1_555 1_555
C9 C4 1_555 1_555
H6 C9 1_555 1_555
C10 C6 1_555 1_555
C11 C10 1_555 1_555
C12 C7 1_555 1_555
C13 C12 1_555 1_555
H7 C13 1_555 1_555
C14 C13 1_555 1_555
H8 C14 1_555 1_555
C15 C14 1_555 1_555
C16 C11 1_555 1_555
H9 C16 1_555 1_555
C17 C10 1_555 1_555
H10 C17 1_555 1_555
H11 C17 1_555 1_555
H12 C17 1_555 1_555
C18 C10 1_555 1_555
H13 C18 1_555 1_555
H14 C18 1_555 1_555
H15 C18 1_555 1_555
C19 H16 1_555 1_555
C20 C19 1_555 1_555
H17 C20 1_555 1_555
C21 H18 1_555 1_555
C22 C23 1_555 1_555
C23 C24 1_555 1_555
C24 H19 1_555 1_555
C25 C23 1_555 1_555
H20 C25 1_555 1_555
C26 C27 1_555 1_555
C27 C28 1_555 1_555
C28 H21 1_555 1_555
C29 C27 1_555 1_555
H22 C29 1_555 1_555
N1 C1 1_555 1_555
N2 C2 1_555 1_555
N3 C15 1_555 1_555
N4 C20 1_555 1_555
O1 C22 1_555 1_555
O2 C22 1_555 1_555
O3 C26 1_555 1_555
O4 C26 1_555 1_555
Zn1 N1 1_555 1_555
C22F C23F 1_555 1_555
C23F C24F 1_555 1_555
C24F C25 1_555 1_555
H19F C24F 1_555 1_555
C25F C24 1_555 1_555
H20F C25F 1_555 1_555
O1F C22F 1_555 1_555
O2F C22F 1_555 1_555
C26A C27A 1_555 1_555
C27A C28A 1_555 1_555
C28A C28 1_555 1_555
H21A C28A 1_555 1_555
C29A C29 1_555 1_555
H22A C29A 1_555 1_555
O3A C26A 1_555 1_555
O4A C26A 1_555 1_555
C1A H1A 1_555 1_555
C2A C1A 1_555 1_555
H2A C2A 1_555 1_555
C3A H3A 1_555 1_555
C4A C5A 1_555 1_555
C5A H4A 1_555 1_555
C6A C5A 1_555 1_555
C7A C6A 1_555 1_555
C8A C7A 1_555 1_555
H5A C8A 1_555 1_555
C9A C4A 1_555 1_555
H6A C9A 1_555 1_555
C10A C6A 1_555 1_555
C11A C10A 1_555 1_555
C12A C7A 1_555 1_555
C13A C12A 1_555 1_555
H7A C13A 1_555 1_555
C14A C13A 1_555 1_555
H8A C14A 1_555 1_555
C15A C14A 1_555 1_555
C16A C11A 1_555 1_555
H9A C16A 1_555 1_555
C17A C10A 1_555 1_555
H10A C17A 1_555 1_555
H11A C17A 1_555 1_555
H12A C17A 1_555 1_555
C18A C10A 1_555 1_555
H13A C18A 1_555 1_555
H14A C18A 1_555 1_555
H15A C18A 1_555 1_555
C19A H16A 1_555 1_555
C20A C19A 1_555 1_555
H17A C20A 1_555 1_555
C21A H18A 1_555 1_555
N1A C1A 1_555 1_555
N2A C2A 1_555 1_555
N3A C15A 1_555 1_555
N4A C20A 1_555 1_555
Zn1A O4A 1_555 1_555
N4F Zn1A 1_555 1_555
N4G Zn1 1_555 1_555
O2A Zn1A 1_555 1_555
Zn1F O2F 1_555 1_555
Zn1F_2 N4A 1_555 1_555
Zn1G N4 1_555 1_555
C3 N1 1_555 1_555
C3 N2 1_555 1_555
C4 N2 1_555 1_555
C8 C9 1_555 1_555
C11 C12 1_555 1_555
C15 C16 1_555 1_555
C19 N3 1_555 1_555
C21 N3 1_555 1_555
C21 N4 1_555 1_555
O2 Zn1 1_555 1_555
O4 Zn1 1_555 1_555
C23F C25F 1_555 1_555
C27A C29A 1_555 1_555
C3A N1A 1_555 1_555
C3A N2A 1_555 1_555
C4A N2A 1_555 1_555
C8A C9A 1_555 1_555
C11A C12A 1_555 1_555
C15A C16A 1_555 1_555
C19A N3A 1_555 1_555
C21A N3A 1_555 1_555
C21A N4A 1_555 1_555
N1A Zn1A 1_555 1_555

#END
