
#######################################################################
#
#                 Cambridge Crystallographic Data Centre
#                                CCDC 
#
#######################################################################
#
# If this CIF has been generated from an entry in the Cambridge 
# Structural Database, then it will include bibliographic, chemical, 
# crystal, experimental, refinement or atomic coordinate data resulting 
# from the CCDC's data processing and validation procedures.
#
#######################################################################

data_GITZEQ
_symmetry_cell_setting           monoclinic
_symmetry_space_group_name_H-M   'P 21/c'
_symmetry_Int_Tables_number      14
_space_group_name_Hall           '-P 2ybc'
loop_
_symmetry_equiv_pos_site_id
_symmetry_equiv_pos_as_xyz
1 x,y,z
2 -x,1/2+y,1/2-z
3 -x,-y,-z
4 x,1/2-y,1/2+z
_cell_length_a                   13.0926(5)
_cell_length_b                   20.9762(8)
_cell_length_c                   20.0992(8)
_cell_angle_alpha                90
_cell_angle_beta                 94.1230(10)
_cell_angle_gamma                90
_cell_volume                     5505.62
loop_
_atom_site_label
_atom_site_type_symbol
_atom_site_fract_x
_atom_site_fract_y
_atom_site_fract_z
C1 C 0.9541(3) -0.47396(19) 1.0782(2)
H1 H 1.0165 -0.4635 1.0616
C2 C 0.9108(3) -0.5321(2) 1.0750(2)
H2 H 0.9365 -0.5685 1.0558
C3 C 0.8123(3) -0.46629(19) 1.1256(2)
H3 H 0.7576 -0.4502 1.1475
C4 C 0.7459(3) -0.5762(2) 1.1118(2)
C5 C 0.7399(5) -0.6242(3) 1.0658(3)
H4 H 0.7864 -0.6262 1.0329
C6 C 0.6634(6) -0.6703(3) 1.0684(4)
H5 H 0.6588 -0.7032 1.0373
C7 C 0.5950(4) -0.6671(2) 1.1170(3)
C8 C 0.6020(3) -0.6180(2) 1.1630(2)
C9 C 0.6780(3) -0.57246(19) 1.1615(2)
H6 H 0.6835 -0.5400 1.1931
C10 C 0.5075(4) -0.7076(2) 1.1310(3)
C11 C 0.4710(5) -0.7630(3) 1.1024(3)
H7 H 0.5042 -0.7816 1.0680
C12 C 0.3838(5) -0.7916(3) 1.1252(3)
H8 H 0.3574 -0.8287 1.1051
C13 C 0.3371(3) -0.7645(2) 1.1775(2)
C14 C 0.3743(3) -0.70937(19) 1.2076(2)
H9 H 0.3421 -0.6914 1.2429
C15 C 0.4603(3) -0.6812(2) 1.1844(2)
C16 C 0.5163(3) -0.62207(19) 1.2101(2)
C17 C 0.5572(4) -0.6309(3) 1.2824(2)
H10 H 0.5923 -0.5929 1.2978
H11 H 0.6038 -0.6663 1.2854
H12 H 0.5012 -0.6391 1.3095
C18 C 0.4486(4) -0.5630(2) 1.2039(3)
H13 H 0.4867 -0.5266 1.2206
H14 H 0.3899 -0.5689 1.2291
H15 H 0.4266 -0.5562 1.1578
C19 C 0.2270(3) -0.8005(2) 1.2657(2)
H16 H 0.2689 -0.7856 1.3017
C20 C 0.1030(3) -0.8437(2) 1.2069(2)
H17 H 0.0417 -0.8647 1.1952
C21 C 0.1694(3) -0.8229(2) 1.1637(2)
H18 H 0.1630 -0.8267 1.1175
C22 C 0.6602(6) 0.1958(2) 0.9529(4)
H19 H 0.6171 0.2201 0.9777
C23 C 0.7335(6) 0.2196(2) 0.9156(4)
H20 H 0.7514 0.2622 0.9110
C24 C 0.7280(3) 0.11699(19) 0.9073(2)
H21 H 0.7420 0.0756 0.8940
C25 C 0.8446(3) 0.1697(2) 0.8340(2)
C26 C 0.8289(4) 0.2151(2) 0.7835(2)
H22 H 0.7770 0.2451 0.7853
C27 C 0.8911(4) 0.2150(2) 0.7308(2)
H23 H 0.8834 0.2462 0.6979
C28 C 0.9648(3) 0.16816(19) 0.7273(2)
C29 C 0.9801(3) 0.12322(19) 0.7783(2)
C30 C 0.9201(3) 0.1237(2) 0.8325(2)
H24 H 0.9304 0.0941 0.8668
C31 C 1.0623(3) 0.07595(19) 0.7635(2)
C32 C 1.0923(3) 0.10054(19) 0.6965(2)
C33 C 1.1649(3) 0.0751(2) 0.6572(2)
H25 H 1.2044 0.0402 0.6714
C34 C 1.1767(3) 0.1034(2) 0.5957(2)
C35 C 1.1177(3) 0.1552(2) 0.5735(2)
H26 H 1.1255 0.1724 0.5315
C36 C 1.0478(4) 0.1811(2) 0.6137(2)
H27 H 1.0096 0.2167 0.5997
C37 C 1.0346(3) 0.15344(19) 0.6756(2)
C38 C 1.0184(3) 0.00859(19) 0.7574(2)
H28 H 1.0718 -0.0207 0.7480
H29 H 0.9654 0.0073 0.7219
H30 H 0.9905 -0.0032 0.7985
C39 C 1.1536(3) 0.0773(2) 0.8162(2)
H31 H 1.2038 0.0466 0.8048
H32 H 1.1302 0.0670 0.8592
H33 H 1.1836 0.1191 0.8177
C40 C 1.2832(3) 0.0158(2) 0.5503(2)
H34 H 1.2576 -0.0191 0.5723
C41 C 1.3584(4) 0.0154(3) 0.5078(2)
H35 H 1.3944 -0.0205 0.4958
C42 C 1.3085(3) 0.1127(2) 0.5139(2)
H36 H 1.3023 0.1565 0.5072
C43 C 0.8508(3) -0.25052(18) 1.07502(19)
C44 C 0.8444(3) -0.18673(18) 1.04047(19)
C45 C 0.7513(3) -0.15474(17) 1.03526(19)
H37 H 0.6938 -0.1735 1.0517
C46 C 0.7434(3) -0.09505(17) 1.00567(19)
C47 C 0.8292(3) -0.06767(18) 0.97974(19)
H38 H 0.8242 -0.0279 0.9593
C48 C 0.9217(3) -0.09974(18) 0.98448(19)
C49 C 0.9298(3) -0.15877(18) 1.01570(19)
H39 H 0.9927 -0.1796 1.0200
C50 C 1.0109(3) -0.0698(2) 0.9533(2)
C51 C 0.6432(3) -0.06042(18) 1.00193(19)
C52 C 1.1465(3) -0.37261(18) 1.1579(2)
C53 C 1.2459(3) -0.38270(18) 1.1981(2)
C54 C 1.2499(3) -0.39231(18) 1.2669(2)
H40 H 1.1896 -0.3918 1.2886
C55 C 1.3426(3) -0.40264(18) 1.3034(2)
C56 C 1.4330(3) -0.40235(19) 1.2706(2)
H41 H 1.4955 -0.4081 1.2949
C57 C 1.4302(3) -0.39358(19) 1.2019(2)
C58 C 1.3362(3) -0.38365(18) 1.1660(2)
H42 H 1.3341 -0.3776 1.1201
C59 C 1.5254(3) -0.3996(2) 1.1650(2)
C60 C 1.3443(3) -0.41564(19) 1.3768(2)
N1 N 0.6591(3) 0.13141(16) 0.94882(18)
N2 N 0.7759(3) 0.16844(16) 0.88608(19)
N3 N 1.2522(3) 0.07828(18) 0.55454(17)
N4 N 1.3735(3) 0.0756(2) 0.48495(19)
N5 N 0.8924(2) -0.43223(15) 1.10970(16)
N6 N 0.8208(2) -0.52697(16) 1.10586(17)
N7 N 0.2486(3) -0.79494(16) 1.20157(17)
N8 N 0.1396(2) -0.82935(16) 1.27085(17)
O1 O 0.6366(2) -0.00945(12) 0.96871(14)
O2 O 0.57125(19) -0.08450(13) 1.03205(14)
O3 O 0.7720(2) -0.27890(13) 1.08735(15)
O4 O 0.9414(2) -0.27167(13) 1.08894(14)
O5 O 1.0966(2) -0.10391(16) 0.96225(19)
O6 O 1.0054(2) -0.02044(14) 0.92311(15)
O7 O 1.1435(2) -0.37541(15) 1.09636(15)
O8 O 1.06998(19) -0.36184(13) 1.19226(14)
O9 O 1.2637(2) -0.42599(17) 1.40307(16)
O10 O 1.4324(2) -0.41657(14) 1.40827(14)
O11 O 1.6077(2) -0.41460(15) 1.19282(16)
O12 O 1.5095(2) -0.38825(18) 1.10142(16)
Zn1 Zn 0.57445(3) 0.07043(2) 0.99654(2)
Zn2 Zn 0.93563(3) -0.34659(2) 1.14647(2)
N8A N 0.8604(2) -0.32935(16) 1.22915(17)
O2B O 0.42875(19) 0.08450(13) 0.96795(14)
O10A O 0.5676(2) 0.08343(14) 1.09173(14)
Zn1A Zn 1.42555(3) -0.42957(2) 1.50346(2)
Zn1B Zn 0.42555(3) -0.07043(2) 1.00346(2)
Zn2A Zn 0.06437(3) -0.84659(2) 1.35353(2)
O13 O 1.6932(4) -0.4763(3) 1.3150(3)
loop_
_geom_bond_atom_site_label_1
_geom_bond_atom_site_label_2
_geom_bond_site_symmetry_1
_geom_bond_site_symmetry_2
C1 H1 1_555 1_555
C2 C1 1_555 1_555
H2 C2 1_555 1_555
C3 H3 1_555 1_555
C4 C5 1_555 1_555
C5 H4 1_555 1_555
C6 C5 1_555 1_555
H5 C6 1_555 1_555
C7 C6 1_555 1_555
C8 C7 1_555 1_555
C9 C4 1_555 1_555
H6 C9 1_555 1_555
C10 C7 1_555 1_555
C11 C10 1_555 1_555
H7 C11 1_555 1_555
C12 C11 1_555 1_555
H8 C12 1_555 1_555
C13 C12 1_555 1_555
C14 C13 1_555 1_555
H9 C14 1_555 1_555
C15 C10 1_555 1_555
C16 C8 1_555 1_555
C17 C16 1_555 1_555
H10 C17 1_555 1_555
H11 C17 1_555 1_555
H12 C17 1_555 1_555
C18 C16 1_555 1_555
H13 C18 1_555 1_555
H14 C18 1_555 1_555
H15 C18 1_555 1_555
C19 H16 1_555 1_555
C20 H17 1_555 1_555
C21 C20 1_555 1_555
H18 C21 1_555 1_555
C22 H19 1_555 1_555
C23 C22 1_555 1_555
H20 C23 1_555 1_555
C24 H21 1_555 1_555
C25 C26 1_555 1_555
C26 H22 1_555 1_555
C27 C26 1_555 1_555
H23 C27 1_555 1_555
C28 C27 1_555 1_555
C29 C28 1_555 1_555
C30 C25 1_555 1_555
H24 C30 1_555 1_555
C31 C29 1_555 1_555
C32 C31 1_555 1_555
C33 C32 1_555 1_555
H25 C33 1_555 1_555
C34 C33 1_555 1_555
C35 C34 1_555 1_555
H26 C35 1_555 1_555
C36 C35 1_555 1_555
H27 C36 1_555 1_555
C37 C28 1_555 1_555
C38 C31 1_555 1_555
H28 C38 1_555 1_555
H29 C38 1_555 1_555
H30 C38 1_555 1_555
C39 C31 1_555 1_555
H31 C39 1_555 1_555
H32 C39 1_555 1_555
H33 C39 1_555 1_555
C40 H34 1_555 1_555
C41 C40 1_555 1_555
H35 C41 1_555 1_555
C42 H36 1_555 1_555
C43 C44 1_555 1_555
C44 C45 1_555 1_555
C45 H37 1_555 1_555
C46 C45 1_555 1_555
C47 C46 1_555 1_555
H38 C47 1_555 1_555
C48 C47 1_555 1_555
C49 C44 1_555 1_555
H39 C49 1_555 1_555
C50 C48 1_555 1_555
C51 C46 1_555 1_555
C52 C53 1_555 1_555
C53 C54 1_555 1_555
C54 H40 1_555 1_555
C55 C54 1_555 1_555
C56 C55 1_555 1_555
H41 C56 1_555 1_555
C57 C56 1_555 1_555
C58 C53 1_555 1_555
H42 C58 1_555 1_555
C59 C57 1_555 1_555
C60 C55 1_555 1_555
N1 C22 1_555 1_555
N2 C23 1_555 1_555
N3 C34 1_555 1_555
N4 C41 1_555 1_555
N5 C1 1_555 1_555
N6 C2 1_555 1_555
N7 C13 1_555 1_555
N8 C19 1_555 1_555
O1 C51 1_555 1_555
O2 C51 1_555 1_555
O3 C43 1_555 1_555
O4 C43 1_555 1_555
O5 C50 1_555 1_555
O6 C50 1_555 1_555
O7 C52 1_555 1_555
O8 C52 1_555 1_555
O9 C60 1_555 1_555
O10 C60 1_555 1_555
O11 C59 1_555 1_555
O12 C59 1_555 1_555
Zn1 N1 1_555 1_555
Zn2 N5 1_555 1_555
N8A Zn2 1_555 1_555
O2B Zn1 1_555 1_555
O10A Zn1 1_555 1_555
Zn1A O10 1_555 1_555
Zn1B O2 1_555 1_555
Zn2A N8 1_555 1_555
C3 N5 1_555 1_555
C3 N6 1_555 1_555
C4 N6 1_555 1_555
C8 C9 1_555 1_555
C14 C15 1_555 1_555
C15 C16 1_555 1_555
C19 N7 1_555 1_555
C20 N8 1_555 1_555
C21 N7 1_555 1_555
C24 N1 1_555 1_555
C24 N2 1_555 1_555
C25 N2 1_555 1_555
C29 C30 1_555 1_555
C32 C37 1_555 1_555
C36 C37 1_555 1_555
C40 N3 1_555 1_555
C42 N3 1_555 1_555
C42 N4 1_555 1_555
C48 C49 1_555 1_555
C57 C58 1_555 1_555
O1 Zn1 1_555 1_555
O4 Zn2 1_555 1_555
O8 Zn2 1_555 1_555

#END
