
#######################################################################
#
#                 Cambridge Crystallographic Data Centre
#                                CCDC 
#
#######################################################################
#
# If this CIF has been generated from an entry in the Cambridge 
# Structural Database, then it will include bibliographic, chemical, 
# crystal, experimental, refinement or atomic coordinate data resulting 
# from the CCDC's data processing and validation procedures.
#
#######################################################################

data_GITZAM
_symmetry_cell_setting           monoclinic
_symmetry_space_group_name_H-M   'C 2/c'
_symmetry_Int_Tables_number      15
_space_group_name_Hall           '-C 2yn'
loop_
_symmetry_equiv_pos_site_id
_symmetry_equiv_pos_as_xyz
1 x,y,z
2 -x,y,1/2-z
3 1/2+x,1/2+y,z
4 1/2-x,1/2+y,1/2-z
5 -x,-y,-z
6 x,-y,1/2+z
7 1/2-x,1/2-y,-z
8 1/2+x,1/2-y,1/2+z
_cell_length_a                   13.977(5)
_cell_length_b                   17.017(5)
_cell_length_c                   24.062(5)
_cell_angle_alpha                90
_cell_angle_beta                 93.727(5)
_cell_angle_gamma                90
_cell_volume                     5710.96
loop_
_atom_site_label
_atom_site_type_symbol
_atom_site_fract_x
_atom_site_fract_y
_atom_site_fract_z
C1 C 0.7813(2) 0.4438(2) 0.00968(12)
H1 H 0.7749 0.4385 -0.0289
C2 C 0.8396(2) 0.4647(3) 0.09199(13)
H2 H 0.8827 0.4770 0.1218
C3 C 0.7480(2) 0.4453(3) 0.09680(12)
H3 H 0.7164 0.4417 0.1295
C4 C 0.6130(2) 0.41077(18) 0.02641(11)
C5 C 0.5397(2) 0.43462(18) 0.05858(12)
H4 H 0.5535 0.4629 0.0912
C6 C 0.4459(2) 0.41608(18) 0.04181(11)
H5 H 0.3961 0.4323 0.0629
C7 C 0.4265(2) 0.37340(16) -0.00643(11)
C8 C 0.5012(2) 0.34938(17) -0.03827(11)
C9 C 0.5954(2) 0.36730(18) -0.02195(12)
H6 H 0.6454 0.3507 -0.0428
C10 C 0.4637(2) 0.30243(19) -0.08958(12)
C11 C 0.3571(2) 0.30281(18) -0.08119(11)
C12 C 0.3354(2) 0.34428(17) -0.03339(11)
C13 C 0.2422(2) 0.35097(17) -0.01864(11)
H7 H 0.2281 0.3792 0.0129
C14 C 0.1702(2) 0.31522(18) -0.05121(12)
H8 H 0.1070 0.3189 -0.0416
C15 C 0.1917(2) 0.27374(18) -0.09829(12)
C16 C 0.2847(2) 0.26789(19) -0.11426(12)
H9 H 0.2981 0.2411 -0.1465
C17 C 0.5042(2) 0.2194(2) -0.08815(17)
H10 H 0.5716 0.2212 -0.0936
H11 H 0.4721 0.1887 -0.1172
H12 H 0.4944 0.1959 -0.0527
C18 C 0.4847(3) 0.3456(3) -0.14360(13)
H13 H 0.5524 0.3445 -0.1482
H14 H 0.4635 0.3991 -0.1416
H15 H 0.4514 0.3200 -0.1747
C19 C 0.1218(2) 0.17037(19) -0.16195(12)
H16 H 0.1787 0.1435 -0.1664
C20 C 0.0199(2) 0.2572(2) -0.13445(14)
H17 H -0.0074 0.3000 -0.1174
C21 C -0.0257(2) 0.2035(2) -0.16784(14)
H18 H -0.0912 0.2034 -0.1776
C22 C -0.1690(2) -0.0172(2) -0.24314(13)
C23 C -0.2618(2) -0.0627(2) -0.23566(13)
H19 H -0.2572 -0.0840 -0.1977
C24 C -0.3481(2) -0.0085(3) -0.23994(14)
H20 H -0.3345 0.0376 -0.2171
H21 H -0.4026 -0.0353 -0.2256
C25 C -0.3737(2) 0.0173(2) -0.29987(13)
H22 H -0.4305 0.0500 -0.3010
H23 H -0.3215 0.0482 -0.3132
C26 C -0.3918(2) -0.0533(2) -0.33735(11)
H24 H -0.4445 -0.0830 -0.3225
C27 C -0.3044(2) -0.1072(2) -0.33472(13)
H25 H -0.3186 -0.1536 -0.3572
H26 H -0.2510 -0.0802 -0.3500
C28 C -0.2766(3) -0.1317(2) -0.27488(15)
H27 H -0.3266 -0.1652 -0.2617
H28 H -0.2180 -0.1623 -0.2742
C29 C -0.42271(19) -0.03230(19) -0.39694(11)
N1 N 0.86171(18) 0.46413(17) 0.03763(10)
N2 N 0.70978(17) 0.43166(15) 0.04331(9)
N3 N 0.11510(17) 0.23558(15) -0.13065(10)
N4 N 0.03801(17) 0.14924(16) -0.18539(10)
O1 O -0.46434(15) -0.08494(13) -0.42660(8)
O2 O -0.40715(16) 0.03450(13) -0.41545(8)
O3 O -0.1507(2) 0.0408(2) -0.21257(12)
O4 O -0.11405(18) -0.03692(18) -0.27764(12)
Cd1 Cd 1.0000 0.5000 0.0000
Cd2 Cd 0.0000 0.055712(19) -0.2500
C1A C -0.7813(2) 0.4438(2) -0.50968(12)
H1A H -0.7749 0.4385 -0.4711
C2A C -0.8396(2) 0.4647(3) -0.59199(13)
H2A H -0.8827 0.4770 -0.6218
C3A C -0.7480(2) 0.4453(3) -0.59680(12)
H3A H -0.7164 0.4417 -0.6295
C4A C -0.6130(2) 0.41077(18) -0.52641(11)
C5A C -0.5397(2) 0.43462(18) -0.55858(12)
H4A H -0.5535 0.4629 -0.5912
C6A C -0.4459(2) 0.41608(18) -0.54181(11)
H5A H -0.3961 0.4323 -0.5629
C7A C -0.4265(2) 0.37340(16) -0.49357(11)
C8A C -0.5012(2) 0.34938(17) -0.46173(11)
C9A C -0.5954(2) 0.36730(18) -0.47805(12)
H6A H -0.6454 0.3507 -0.4572
C10A C -0.4637(2) 0.30243(19) -0.41042(12)
C11A C -0.3571(2) 0.30281(18) -0.41881(11)
C12A C -0.3354(2) 0.34428(17) -0.46661(11)
C13A C -0.2422(2) 0.35097(17) -0.48136(11)
H7A H -0.2281 0.3792 -0.5129
C14A C -0.1702(2) 0.31522(18) -0.44879(12)
H8A H -0.1070 0.3189 -0.4584
C15A C -0.1917(2) 0.27374(18) -0.40171(12)
C16A C -0.2847(2) 0.26789(19) -0.38574(12)
H9A H -0.2981 0.2411 -0.3535
C17A C -0.5042(2) 0.2194(2) -0.41185(17)
H10A H -0.5716 0.2212 -0.4064
H11A H -0.4721 0.1887 -0.3828
H12A H -0.4944 0.1959 -0.4473
C18A C -0.4847(3) 0.3456(3) -0.35640(13)
H13A H -0.5524 0.3445 -0.3518
H14A H -0.4635 0.3991 -0.3584
H15A H -0.4514 0.3200 -0.3253
C19A C -0.1218(2) 0.17037(19) -0.33805(12)
H16A H -0.1787 0.1435 -0.3336
C20A C -0.0199(2) 0.2572(2) -0.36555(14)
H17A H 0.0074 0.3000 -0.3826
C21A C 0.0257(2) 0.2035(2) -0.33216(14)
H18A H 0.0912 0.2034 -0.3224
C22A C 0.1690(2) -0.0172(2) -0.25686(13)
C23A C 0.2618(2) -0.0627(2) -0.26434(13)
H19A H 0.2572 -0.0840 -0.3023
C24A C 0.3481(2) -0.0085(3) -0.26006(14)
H20A H 0.3345 0.0376 -0.2829
H21A H 0.4026 -0.0353 -0.2744
C25A C 0.3737(2) 0.0173(2) -0.20013(13)
H22A H 0.4305 0.0500 -0.1990
H23A H 0.3215 0.0482 -0.1868
C26A C 0.3918(2) -0.0533(2) -0.16265(11)
H24A H 0.4445 -0.0830 -0.1775
C27A C 0.3044(2) -0.1072(2) -0.16528(13)
H25A H 0.3186 -0.1536 -0.1428
H26A H 0.2510 -0.0802 -0.1500
C28A C 0.2766(3) -0.1317(2) -0.22512(15)
H27A H 0.3266 -0.1652 -0.2383
H28A H 0.2180 -0.1623 -0.2258
C29A C 0.42271(19) -0.03230(19) -0.10306(11)
N1A N -0.86171(18) 0.46413(17) -0.53763(10)
N2A N -0.70978(17) 0.43166(15) -0.54331(9)
N3A N -0.11510(17) 0.23558(15) -0.36935(10)
N4A N -0.03801(17) 0.14924(16) -0.31461(10)
O1A O 0.46434(15) -0.08494(13) -0.07340(8)
O2A O 0.40715(16) 0.03450(13) -0.08455(8)
O3A O 0.1507(2) 0.0408(2) -0.28743(12)
O4A O 0.11405(18) -0.03692(18) -0.22236(12)
N1D N 1.13829(18) 0.53587(17) -0.03763(10)
O1C O 0.96434(15) 0.41506(13) -0.07340(8)
O1G O 1.03566(15) 0.58494(13) 0.07340(8)
O2C O 0.90715(16) 0.53450(13) -0.08455(8)
O2G O 1.09285(16) 0.46550(13) 0.08455(8)
Cd1A Cd -1.0000 0.5000 -0.5000
Cd1B Cd 0.5000 0.0000 0.0000
Cd1C Cd -0.5000 0.0000 -0.5000
O5 O -0.2935(13) 0.1810(11) -0.2360(7)
loop_
_geom_bond_atom_site_label_1
_geom_bond_atom_site_label_2
_geom_bond_site_symmetry_1
_geom_bond_site_symmetry_2
C1 H1 1_555 1_555
C2 H2 1_555 1_555
C3 C2 1_555 1_555
H3 C3 1_555 1_555
C4 C5 1_555 1_555
C5 H4 1_555 1_555
C6 C5 1_555 1_555
H5 C6 1_555 1_555
C7 C6 1_555 1_555
C8 C7 1_555 1_555
C9 C4 1_555 1_555
H6 C9 1_555 1_555
C10 C8 1_555 1_555
C11 C10 1_555 1_555
C12 C7 1_555 1_555
C13 C12 1_555 1_555
H7 C13 1_555 1_555
C14 C13 1_555 1_555
H8 C14 1_555 1_555
C15 C14 1_555 1_555
C16 C11 1_555 1_555
H9 C16 1_555 1_555
C17 C10 1_555 1_555
H10 C17 1_555 1_555
H11 C17 1_555 1_555
H12 C17 1_555 1_555
C18 C10 1_555 1_555
H13 C18 1_555 1_555
H14 C18 1_555 1_555
H15 C18 1_555 1_555
C19 H16 1_555 1_555
C20 H17 1_555 1_555
C21 C20 1_555 1_555
H18 C21 1_555 1_555
C22 C23 1_555 1_555
C23 H19 1_555 1_555
C24 C23 1_555 1_555
H20 C24 1_555 1_555
H21 C24 1_555 1_555
C25 C24 1_555 1_555
H22 C25 1_555 1_555
H23 C25 1_555 1_555
C26 C25 1_555 1_555
H24 C26 1_555 1_555
C27 C26 1_555 1_555
H25 C27 1_555 1_555
H26 C27 1_555 1_555
C28 C23 1_555 1_555
H27 C28 1_555 1_555
H28 C28 1_555 1_555
C29 C26 1_555 1_555
N1 C1 1_555 1_555
N2 C1 1_555 1_555
N3 C15 1_555 1_555
N4 C19 1_555 1_555
O1 C29 1_555 1_555
O2 C29 1_555 1_555
O3 C22 1_555 1_555
O4 C22 1_555 1_555
Cd1 N1 1_555 1_555
Cd2 N4 1_555 1_555
C1A H1A 1_555 1_555
C2A H2A 1_555 1_555
C3A C2A 1_555 1_555
H3A C3A 1_555 1_555
C4A C5A 1_555 1_555
C5A H4A 1_555 1_555
C6A C5A 1_555 1_555
H5A C6A 1_555 1_555
C7A C6A 1_555 1_555
C8A C7A 1_555 1_555
C9A C4A 1_555 1_555
H6A C9A 1_555 1_555
C10A C8A 1_555 1_555
C11A C10A 1_555 1_555
C12A C7A 1_555 1_555
C13A C12A 1_555 1_555
H7A C13A 1_555 1_555
C14A C13A 1_555 1_555
H8A C14A 1_555 1_555
C15A C14A 1_555 1_555
C16A C11A 1_555 1_555
H9A C16A 1_555 1_555
C17A C10A 1_555 1_555
H10A C17A 1_555 1_555
H11A C17A 1_555 1_555
H12A C17A 1_555 1_555
C18A C10A 1_555 1_555
H13A C18A 1_555 1_555
H14A C18A 1_555 1_555
H15A C18A 1_555 1_555
C19A H16A 1_555 1_555
C20A H17A 1_555 1_555
C21A C20A 1_555 1_555
H18A C21A 1_555 1_555
C22A C23A 1_555 1_555
C23A H19A 1_555 1_555
C24A C23A 1_555 1_555
H20A C24A 1_555 1_555
H21A C24A 1_555 1_555
C25A C24A 1_555 1_555
H22A C25A 1_555 1_555
H23A C25A 1_555 1_555
C26A C25A 1_555 1_555
H24A C26A 1_555 1_555
C27A C26A 1_555 1_555
H25A C27A 1_555 1_555
H26A C27A 1_555 1_555
C28A C23A 1_555 1_555
H27A C28A 1_555 1_555
H28A C28A 1_555 1_555
C29A C26A 1_555 1_555
N1A C1A 1_555 1_555
N2A C1A 1_555 1_555
N3A C15A 1_555 1_555
N4A Cd2 1_555 1_555
O1A C29A 1_555 1_555
O2A C29A 1_555 1_555
O3A Cd2 1_555 1_555
O4A Cd2 1_555 1_555
N1D Cd1 1_555 1_555
O1C Cd1 1_555 1_555
O1G Cd1 1_555 1_555
O2C Cd1 1_555 1_555
O2G Cd1 1_555 1_555
Cd1A N1A 1_555 1_555
Cd1B O1A 1_555 1_555
Cd1C O1 1_555 1_555
C2 N1 1_555 1_555
C3 N2 1_555 1_555
C4 N2 1_555 1_555
C8 C9 1_555 1_555
C11 C12 1_555 1_555
C15 C16 1_555 1_555
C19 N3 1_555 1_555
C20 N3 1_555 1_555
C21 N4 1_555 1_555
C27 C28 1_555 1_555
O2 Cd1C 1_555 1_555
O3 Cd2 1_555 1_555
O4 Cd2 1_555 1_555
C2A N1A 1_555 1_555
C3A N2A 1_555 1_555
C4A N2A 1_555 1_555
C8A C9A 1_555 1_555
C11A C12A 1_555 1_555
C15A C16A 1_555 1_555
C19A N3A 1_555 1_555
C19A N4A 1_555 1_555
C20A N3A 1_555 1_555
C21A N4A 1_555 1_555
C22A O3A 1_555 1_555
C22A O4A 1_555 1_555
C27A C28A 1_555 1_555
O2A Cd1B 1_555 1_555

#END
