
#######################################################################
#
#                 Cambridge Crystallographic Data Centre
#                                CCDC 
#
#######################################################################
#
# If this CIF has been generated from an entry in the Cambridge 
# Structural Database, then it will include bibliographic, chemical, 
# crystal, experimental, refinement or atomic coordinate data resulting 
# from the CCDC's data processing and validation procedures.
#
#######################################################################

data_GIVDIY
_symmetry_cell_setting           monoclinic
_symmetry_space_group_name_H-M   'P 21/n'
_symmetry_Int_Tables_number      14
_space_group_name_Hall           '-P 2yn'
loop_
_symmetry_equiv_pos_site_id
_symmetry_equiv_pos_as_xyz
1 x,y,z
2 1/2-x,1/2+y,1/2-z
3 -x,-y,-z
4 1/2+x,1/2-y,1/2+z
_cell_length_a                   4.712(1)
_cell_length_b                   5.862(1)
_cell_length_c                   22.242(2)
_cell_angle_alpha                90
_cell_angle_beta                 95.77(1)
_cell_angle_gamma                90
_cell_volume                     611.25
loop_
_atom_site_label
_atom_site_type_symbol
_atom_site_fract_x
_atom_site_fract_y
_atom_site_fract_z
Sn1 Sn 0.06611(9) -0.34069(7) -0.18336(2)
Sn2 Sn 0.15610(9) -0.87355(8) -0.06838(2)
P1 P -0.1019(3) -0.2364(3) -0.32661(7)
O1 O 0.034(1) -0.4115(8) -0.2760(2)
O2 O 0.0389(9) -0.0061(8) -0.3113(2)
O3 O -0.0737(9) -0.6879(8) -0.1627(2)
O4 O 0.499(1) -0.7884(8) 0.0185(2)
O5 O 0.208(1) -0.4870(8) -0.0556(2)
O6 O -0.0178(9) -0.3373(8) -0.3862(2)
C1 C 0.582(1) -0.588(1) 0.0215(3)
O6A O 0.5178(9) -0.8373(8) -0.1138(2)
O2A O 0.4611(9) -0.5061(8) -0.1887(2)
O3A O -0.4263(9) -0.1879(8) -0.3373(2)
P1A P 0.6019(3) -0.7364(3) -0.17339(7)
P1A_2 P -0.3981(3) -0.7364(3) -0.17339(7)
C1B C 0.418(1) -0.412(1) -0.0215(3)
Sn2A Sn 0.34390(9) -0.37355(8) -0.43162(2)
O5B O 0.792(1) -0.5130(8) 0.0556(2)
O4B O 0.501(1) -0.2116(8) -0.0185(2)
Sn2B Sn 0.84390(9) -0.12645(8) 0.06838(2)
Sn1A Sn -0.56611(9) 0.15931(7) -0.31664(2)
Sn2A_2 Sn -0.65610(9) -0.37355(8) -0.43162(2)
Sn1A_2 Sn 0.43389(9) 0.15931(7) -0.31664(2)
O1A O -0.534(1) -0.9115(8) -0.2240(2)
O2A_2 O -0.5389(9) -0.5061(8) -0.1887(2)
O6A_2 O -0.4822(9) -0.8373(8) -0.1138(2)
Sn1_2 Sn -0.93389(9) -0.34069(7) -0.18336(2)
Sn1A_3 Sn -0.56611(9) -0.84069(7) -0.31664(2)
Sn2_2 Sn -0.84390(9) -0.87355(8) -0.06838(2)
O1A_2 O 0.466(1) 0.0885(8) -0.2240(2)
O3A_2 O 0.5737(9) -0.1879(8) -0.3373(2)
O4A O 0.001(1) -0.2884(8) -0.5185(2)
O5A O 0.292(1) 0.0130(8) -0.4444(2)
loop_
_geom_bond_atom_site_label_1
_geom_bond_atom_site_label_2
_geom_bond_site_symmetry_1
_geom_bond_site_symmetry_2
Sn1 O1 1_555 1_555
Sn2 O3 1_555 1_555
P1 O1 1_555 1_555
O2 P1 1_555 1_555
O3 Sn1 1_555 1_555
O4 Sn2 1_555 1_555
O5 Sn2 1_555 1_555
O6 P1 1_555 1_555
C1 O4 1_555 1_555
O6A Sn2 1_555 1_555
O2A Sn1 1_555 1_555
O3A P1 1_555 1_555
P1A O6A 1_555 1_555
P1A_2 O3 1_555 1_555
C1B O5 1_555 1_555
Sn2A O6 1_555 1_555
O5B C1 1_555 1_555
O4B C1B 1_555 1_555
Sn2B O5B 1_555 1_555
Sn1A O3A 1_555 1_555
Sn2A_2 O3A 1_555 1_555
Sn1A_2 O2 1_555 1_555
O1A P1A_2 1_555 1_555
O2A_2 P1A_2 1_555 1_555
O6A_2 P1A_2 1_555 1_555
Sn1_2 O2A_2 1_555 1_555
Sn1A_3 O1A 1_555 1_555
Sn2_2 O6A_2 1_555 1_555
O1A_2 Sn1A_2 1_555 1_555
O3A_2 Sn2A 1_555 1_555
O4A Sn2A 1_555 1_555
O5A Sn2A 1_555 1_555
C1 C1B 1_555 1_555
O2A P1A 1_555 1_555
O4B Sn2B 1_555 1_555
Sn1A_2 O3A_2 1_555 1_555

#END
