
#######################################################################
#
#                 Cambridge Crystallographic Data Centre
#                                CCDC 
#
#######################################################################
#
# If this CIF has been generated from an entry in the Cambridge 
# Structural Database, then it will include bibliographic, chemical, 
# crystal, experimental, refinement or atomic coordinate data resulting 
# from the CCDC's data processing and validation procedures.
#
#######################################################################

data_GIVHOI
_symmetry_cell_setting           monoclinic
_symmetry_space_group_name_H-M   'P 21/n'
_symmetry_Int_Tables_number      14
_space_group_name_Hall           '-P 2yn'
loop_
_symmetry_equiv_pos_site_id
_symmetry_equiv_pos_as_xyz
1 x,y,z
2 1/2-x,1/2+y,1/2-z
3 -x,-y,-z
4 1/2+x,1/2-y,1/2+z
_cell_length_a                   6.88(2)
_cell_length_b                   14.35(2)
_cell_length_c                   15.34(2)
_cell_angle_alpha                90
_cell_angle_beta                 91.2(1)
_cell_angle_gamma                90
_cell_volume                     1514.16
loop_
_atom_site_label
_atom_site_type_symbol
_atom_site_fract_x
_atom_site_fract_y
_atom_site_fract_z
Co1 Co 0.5432(4) 0.1215(2) -0.2499(2)
Br1 Br 0.2000(4) 0.1071(2) -0.2495(2)
Br2 Br 0.6362(4) 0.2811(2) -0.2500(2)
S1 S 0.6869(10) 0.0324(5) -0.1405(4)
S2 S 0.6857(10) 0.0331(6) -0.3593(4)
N1 N 0.7671(26) 0.0590(13) 0.0241(11)
C1 C 0.6562(31) 0.0857(17) -0.0442(12)
C2 C 0.5334(35) 0.1578(16) -0.0281(14)
C3 C 0.5037(40) 0.1997(21) 0.0529(17)
C4 C 0.6288(44) 0.1699(20) 0.1167(17)
C5 C 0.7499(50) 0.1041(23) 0.1041(14)
C6 C 0.9044(28) -0.0183(17) 0.0171(14)
N2 N 0.7730(28) 0.0602(13) -0.5237(11)
C7 C 0.6650(29) 0.0858(15) -0.4562(13)
C8 C 0.5403(41) 0.1590(20) -0.4687(17)
C9 C 0.5192(44) 0.1997(20) -0.5543(17)
C10 C 0.6368(44) 0.1804(22) -0.6177(20)
C11 C 0.7532(41) 0.1093(20) -0.6037(17)
C12 C 0.9096(27) -0.0178(17) -0.5189(15)
H1 H 0.4625(35) 0.1814(16) -0.0754(14)
H2 H 0.4073(40) 0.2438(21) 0.0622(17)
H3 H 0.6261(44) 0.1983(20) 0.1712(17)
H4 H 0.8302(50) 0.0853(22) 0.1504(14)
H5 H 0.8516(28) -0.0653(17) -0.0222(14)
H6 H 0.9258(28) -0.0467(17) 0.0739(14)
H7 H 0.4697(41) 0.1823(20) -0.4225(17)
H8 H 0.4179(44) 0.2414(20) -0.5648(17)
H9 H 0.6379(44) 0.2147(22) -0.6692(20)
H10 H 0.8286(41) 0.0895(20) -0.6498(17)
H11 H 0.8583(27) -0.0672(17) -0.4829(15)
H12 H 0.9313(27) -0.0426(17) -0.5767(15)
C6B C 1.0956(28) 0.0183(17) -0.0171(14)
N1B N 1.2329(26) -0.0590(13) -0.0241(11)
C1B C 1.3438(31) -0.0857(17) 0.0442(12)
S1B S 1.3131(10) -0.0324(5) 0.1405(4)
Co1B Co 1.4568(4) -0.1215(2) 0.2499(2)
Br1B Br 1.8000(4) -0.1071(2) 0.2495(2)
Br2B Br 1.3638(4) -0.2811(2) 0.2500(2)
S2B S 1.3143(10) -0.0331(6) 0.3593(4)
C2B C 1.4666(35) -0.1578(16) 0.0281(14)
C3B C 1.4963(40) -0.1997(21) -0.0529(17)
C4B C 1.3712(44) -0.1699(20) -0.1167(17)
C5B C 1.2501(50) -0.1041(23) -0.1041(14)
H4B H 1.1698(50) -0.0853(22) -0.1504(14)
H3B H 1.3739(44) -0.1983(20) -0.1712(17)
H2B H 1.5927(40) -0.2438(21) -0.0622(17)
H1B H 1.5375(35) -0.1814(16) 0.0754(14)
H5B H 1.1484(28) 0.0653(17) 0.0222(14)
H6B H 1.0742(28) 0.0467(17) -0.0739(14)
C12B C 1.0904(27) 0.0178(17) -0.4811(15)
N2B N 1.2270(28) -0.0602(13) -0.4763(11)
C7B C 1.3350(29) -0.0858(15) -0.5438(13)
S2B_2 S 1.3143(10) -0.0331(6) -0.6407(4)
Co1B_2 Co 1.4568(4) -0.1215(2) -0.7501(2)
C8B C 1.4597(41) -0.1590(20) -0.5313(17)
C9B C 1.4808(44) -0.1997(20) -0.4457(17)
C10B C 1.3632(44) -0.1804(22) -0.3823(20)
C11B C 1.2468(41) -0.1093(20) -0.3963(17)
H10B H 1.1714(41) -0.0895(20) -0.3502(17)
H9B H 1.3621(44) -0.2147(22) -0.3308(20)
H8B H 1.5821(44) -0.2414(20) -0.4352(17)
H7B H 1.5303(41) -0.1823(20) -0.5775(17)
H11B H 1.1417(27) 0.0672(17) -0.5171(15)
H12B H 1.0687(27) 0.0426(17) -0.4233(15)
loop_
_geom_bond_atom_site_label_1
_geom_bond_atom_site_label_2
_geom_bond_site_symmetry_1
_geom_bond_site_symmetry_2
Co1 Br1 1_555 1_555
Br2 Co1 1_555 1_555
S1 Co1 1_555 1_555
S2 Co1 1_555 1_555
N1 C1 1_555 1_555
C1 S1 1_555 1_555
C2 C1 1_555 1_555
C3 C2 1_555 1_555
C4 C3 1_555 1_555
C5 N1 1_555 1_555
C6 N1 1_555 1_555
N2 C7 1_555 1_555
C7 S2 1_555 1_555
C8 C7 1_555 1_555
C9 C8 1_555 1_555
C10 C9 1_555 1_555
C11 N2 1_555 1_555
C12 N2 1_555 1_555
H1 C2 1_555 1_555
H2 C3 1_555 1_555
H3 C4 1_555 1_555
H4 C5 1_555 1_555
H5 C6 1_555 1_555
H6 C6 1_555 1_555
H7 C8 1_555 1_555
H8 C9 1_555 1_555
H9 C10 1_555 1_555
H10 C11 1_555 1_555
H11 C12 1_555 1_555
H12 C12 1_555 1_555
C6B C6 1_555 1_555
N1B C6B 1_555 1_555
C1B N1B 1_555 1_555
S1B C1B 1_555 1_555
Co1B S1B 1_555 1_555
Br1B Co1B 1_555 1_555
Br2B Co1B 1_555 1_555
S2B Co1B 1_555 1_555
C2B C1B 1_555 1_555
C3B C2B 1_555 1_555
C4B C3B 1_555 1_555
C5B N1B 1_555 1_555
H4B C5B 1_555 1_555
H3B C4B 1_555 1_555
H2B C3B 1_555 1_555
H1B C2B 1_555 1_555
H5B C6B 1_555 1_555
H6B C6B 1_555 1_555
C12B C12 1_555 1_555
N2B C12B 1_555 1_555
C7B N2B 1_555 1_555
S2B_2 C7B 1_555 1_555
Co1B_2 S2B_2 1_555 1_555
C8B C7B 1_555 1_555
C9B C8B 1_555 1_555
C10B C9B 1_555 1_555
C11B N2B 1_555 1_555
H10B C11B 1_555 1_555
H9B C10B 1_555 1_555
H8B C9B 1_555 1_555
H7B C8B 1_555 1_555
H11B C12B 1_555 1_555
H12B C12B 1_555 1_555
C4 C5 1_555 1_555
C10 C11 1_555 1_555
C4B C5B 1_555 1_555
C10B C11B 1_555 1_555

#END
