
#######################################################################
#
#                 Cambridge Crystallographic Data Centre
#                                CCDC 
#
#######################################################################
#
# If this CIF has been generated from an entry in the Cambridge 
# Structural Database, then it will include bibliographic, chemical, 
# crystal, experimental, refinement or atomic coordinate data resulting 
# from the CCDC's data processing and validation procedures.
#
#######################################################################

data_GIVNOQ
_symmetry_cell_setting           monoclinic
_symmetry_space_group_name_H-M   'C 2/c'
_symmetry_Int_Tables_number      15
_space_group_name_Hall           '-C 2yn'
loop_
_symmetry_equiv_pos_site_id
_symmetry_equiv_pos_as_xyz
1 x,y,z
2 -x,y,1/2-z
3 1/2+x,1/2+y,z
4 1/2-x,1/2+y,1/2-z
5 -x,-y,-z
6 x,-y,1/2+z
7 1/2-x,1/2-y,-z
8 1/2+x,1/2-y,1/2+z
_cell_length_a                   34.607(2)
_cell_length_b                   12.8631(8)
_cell_length_c                   23.8751(14)
_cell_angle_alpha                90
_cell_angle_beta                 114.026(2)
_cell_angle_gamma                90
_cell_volume                     9707.27
loop_
_atom_site_label
_atom_site_type_symbol
_atom_site_fract_x
_atom_site_fract_y
_atom_site_fract_z
C1 C 0.0816(2) 0.9505(6) 0.7797(3)
H1 H 0.0752 0.9335 0.7390
C2 C 0.1210(2) 0.9332(6) 0.8303(3)
H2 H 0.1451 0.9046 0.8284
C3 C 0.11704(19) 0.9650(5) 0.8803(3)
H3 H 0.1379 0.9616 0.9200
C4 C 0.07639(18) 1.0046(4) 0.8635(2)
C5 C 0.05852(18) 1.0488(4) 0.9026(2)
C6 C 0.01967(16) 1.0964(5) 0.8837(2)
C7 C -0.0036(2) 1.1232(5) 0.9209(3)
H4 H 0.0052 1.1104 0.9626
C8 C -0.04018(18) 1.1699(5) 0.8840(3)
H5 H -0.0610 1.1952 0.8957
C9 C -0.04086(17) 1.1731(5) 0.8245(3)
C10 C 0.08299(18) 1.0326(5) 0.9698(2)
C11 C 0.0949(2) 0.9342(6) 0.9934(3)
C12 C 0.1143(2) 0.9239(6) 1.0566(3)
C13 C 0.12304(19) 1.0055(5) 1.0955(3)
C14 C 0.1126(2) 1.1076(6) 1.0716(3)
C15 C 0.0908(2) 1.1189(6) 1.0078(3)
C16 C 0.1409(2) 0.9900(8) 1.1610(3)
C17 C -0.07196(16) 1.2207(5) 0.7689(2)
C18 C -0.11480(17) 1.2405(5) 0.7516(2)
H6 H -0.1305 1.2255 0.7742
C19 C -0.12945(16) 1.2863(5) 0.6948(2)
H7 H -0.1571 1.3074 0.6713
C20 C -0.09372(16) 1.2953(6) 0.6788(2)
C21 C -0.09165(18) 1.3375(4) 0.6261(2)
C22 C -0.05728(17) 1.3732(5) 0.6199(3)
C23 C -0.05252(19) 1.4065(5) 0.5655(3)
H8 H -0.0746 1.4125 0.5269
C24 C -0.0103(2) 1.4286(6) 0.5784(4)
H9 H 0.0017 1.4467 0.5513
C25 C 0.0103(2) 1.4168(5) 0.6438(3)
H10 H 0.0386 1.4323 0.6669
C26 C -0.13373(16) 1.3520(5) 0.5736(2)
C27 C -0.15892(18) 1.2635(6) 0.5484(3)
H11 H -0.1491 1.1980 0.5644
C28 C -0.19911(19) 1.2739(6) 0.4988(2)
H12 H -0.2169 1.2170 0.4839
C29 C -0.21046(18) 1.3684(6) 0.4744(3)
C30 C -0.1868(2) 1.4589(7) 0.4960(3)
H13 H -0.1962 1.5235 0.4782
C31 C -0.1473(2) 1.4454(6) 0.5472(3)
H14 H -0.1302 1.5033 0.5631
C32 C -0.2518(2) 1.3826(7) 0.4224(3)
N1 N 0.05512(16) 0.9961(4) 0.8011(2)
N2 N -0.00574(13) 1.1249(4) 0.82387(17)
N3 N 0.1544(2) 0.9804(6) 1.2122(2)
N4 N -0.05756(13) 1.2547(4) 0.72681(19)
N5 N -0.01623(15) 1.3805(4) 0.6675(2)
N6 N -0.28428(19) 1.3961(7) 0.3848(3)
Zn1 Zn 0.0000 1.06686(8) 0.7500
Zn2 Zn 0.0000 1.31425(8) 0.7500
Ag1 Ag 0.152998(15) 1.08615(5) 0.80434(2)
C1A C -0.0816(2) 0.9505(6) 0.7203(3)
H1A H -0.0752 0.9335 0.7610
C2A C -0.1210(2) 0.9332(6) 0.6697(3)
H2A H -0.1451 0.9046 0.6716
C3A C -0.11704(19) 0.9650(5) 0.6197(3)
H3A H -0.1379 0.9616 0.5800
C4A C -0.07639(18) 1.0046(4) 0.6365(2)
C5A C -0.05852(18) 1.0488(4) 0.5974(2)
C6A C -0.01967(16) 1.0964(5) 0.6163(2)
C7A C 0.0036(2) 1.1232(5) 0.5791(3)
H4A H -0.0052 1.1104 0.5374
C8A C 0.04018(18) 1.1699(5) 0.6160(3)
H5A H 0.0610 1.1952 0.6043
C9A C 0.04086(17) 1.1731(5) 0.6755(3)
C10A C -0.08299(18) 1.0326(5) 0.5302(2)
C11A C -0.0949(2) 0.9342(6) 0.5066(3)
C12A C -0.1143(2) 0.9239(6) 0.4434(3)
C13A C -0.12304(19) 1.0055(5) 0.4045(3)
C14A C -0.1126(2) 1.1076(6) 0.4284(3)
C15A C -0.0908(2) 1.1189(6) 0.4922(3)
C16A C -0.1409(2) 0.9900(8) 0.3390(3)
C17A C 0.07196(16) 1.2207(5) 0.7311(2)
C18A C 0.11480(17) 1.2405(5) 0.7484(2)
H6A H 0.1305 1.2255 0.7258
C19A C 0.12945(16) 1.2863(5) 0.8052(2)
H7A H 0.1571 1.3074 0.8287
C20A C 0.09372(16) 1.2953(6) 0.8212(2)
C21A C 0.09165(18) 1.3375(4) 0.8739(2)
C22A C 0.05728(17) 1.3732(5) 0.8801(3)
C23A C 0.05252(19) 1.4065(5) 0.9345(3)
H8A H 0.0746 1.4125 0.9731
C24A C 0.0103(2) 1.4286(6) 0.9216(4)
H9A H -0.0017 1.4467 0.9487
C25A C -0.0103(2) 1.4168(5) 0.8562(3)
H10A H -0.0386 1.4323 0.8331
C26A C 0.13373(16) 1.3520(5) 0.9264(2)
C27A C 0.15892(18) 1.2635(6) 0.9516(3)
H11A H 0.1491 1.1980 0.9356
C28A C 0.19911(19) 1.2739(6) 1.0012(2)
H12A H 0.2169 1.2170 1.0161
C29A C 0.21046(18) 1.3684(6) 1.0256(3)
C30A C 0.1868(2) 1.4589(7) 1.0040(3)
H13A H 0.1962 1.5235 1.0218
C31A C 0.1473(2) 1.4454(6) 0.9528(3)
H14A H 0.1302 1.5033 0.9369
C32A C 0.2518(2) 1.3826(7) 1.0776(3)
N1A N -0.05512(16) 0.9961(4) 0.6989(2)
N2A N 0.00574(13) 1.1249(4) 0.67613(17)
N3A N -0.1544(2) 0.9804(6) 0.2878(2)
N4A N 0.05756(13) 1.2547(4) 0.77319(19)
N5A N 0.01623(15) 1.3805(4) 0.8325(2)
N6A N 0.28428(19) 1.3961(7) 1.1152(3)
Ag1A Ag -0.152998(15) 1.08615(5) 0.69566(2)
N3D N -0.1544(2) 1.0196(6) 0.7878(2)
N3E N 0.1544(2) 1.0196(6) 0.7122(2)
N6F N -0.21572(19) 1.1039(7) 0.6152(3)
N6G N 0.21572(19) 1.1039(7) 0.8848(3)
Ag1D Ag -0.152998(15) 0.91385(5) 0.19566(2)
Ag1E Ag 0.152998(15) 0.91385(5) 1.30434(2)
Ag1F Ag 0.347002(15) 1.41385(5) 1.19566(2)
Ag1G Ag -0.347002(15) 1.41385(5) 0.30434(2)
F1 F 0.1549(2) 0.2777(5) 0.6497(3)
F2 F 0.0902(2) 0.3924(8) 0.6107(4)
F3 F 0.13466(19) 0.3665(5) 0.5423(3)
F4 F 0.13058(19) 0.5543(5) 0.5978(6)
F5 F 0.19896(17) 0.4407(5) 0.6292(3)
F6 F 0.1544(3) 0.4636(5) 0.6987(3)
Sb1 Sb 0.144473(19) 0.41537(5) 0.61960(3)
loop_
_geom_bond_atom_site_label_1
_geom_bond_atom_site_label_2
_geom_bond_site_symmetry_1
_geom_bond_site_symmetry_2
C1 H1 1_555 1_555
C2 C1 1_555 1_555
H2 C2 1_555 1_555
C3 C2 1_555 1_555
H3 C3 1_555 1_555
C4 C3 1_555 1_555
C5 C4 1_555 1_555
C6 C5 1_555 1_555
C7 C6 1_555 1_555
H4 C7 1_555 1_555
C8 C7 1_555 1_555
H5 C8 1_555 1_555
C9 C8 1_555 1_555
C10 C5 1_555 1_555
C11 C10 1_555 1_555
C12 C11 1_555 1_555
C13 C12 1_555 1_555
C14 C13 1_555 1_555
C15 C10 1_555 1_555
C16 C13 1_555 1_555
C17 C9 1_555 1_555
C18 C17 1_555 1_555
H6 C18 1_555 1_555
C19 C18 1_555 1_555
H7 C19 1_555 1_555
C20 C19 1_555 1_555
C21 C20 1_555 1_555
C22 C21 1_555 1_555
C23 C22 1_555 1_555
H8 C23 1_555 1_555
C24 C23 1_555 1_555
H9 C24 1_555 1_555
C25 C24 1_555 1_555
H10 C25 1_555 1_555
C26 C21 1_555 1_555
C27 C26 1_555 1_555
H11 C27 1_555 1_555
C28 C27 1_555 1_555
H12 C28 1_555 1_555
C29 C28 1_555 1_555
C30 C29 1_555 1_555
H13 C30 1_555 1_555
C31 C26 1_555 1_555
H14 C31 1_555 1_555
C32 C29 1_555 1_555
N1 C1 1_555 1_555
N2 C6 1_555 1_555
N3 C16 1_555 1_555
N4 C17 1_555 1_555
N5 C22 1_555 1_555
N6 C32 1_555 1_555
Zn1 N1 1_555 1_555
Zn2 N4 1_555 1_555
Ag1 C2 1_555 1_555
F1 Sb1 1_555 1_555
F2 Sb1 1_555 1_555
F3 Sb1 1_555 1_555
F4 Sb1 1_555 1_555
F5 Sb1 1_555 1_555
F6 Sb1 1_555 1_555
C1A H1A 1_555 1_555
C2A C1A 1_555 1_555
H2A C2A 1_555 1_555
C3A C2A 1_555 1_555
H3A C3A 1_555 1_555
C4A C3A 1_555 1_555
C5A C4A 1_555 1_555
C6A C5A 1_555 1_555
C7A C6A 1_555 1_555
H4A C7A 1_555 1_555
C8A C7A 1_555 1_555
H5A C8A 1_555 1_555
C9A C8A 1_555 1_555
C10A C5A 1_555 1_555
C11A C10A 1_555 1_555
C12A C11A 1_555 1_555
C13A C12A 1_555 1_555
C14A C13A 1_555 1_555
C15A C10A 1_555 1_555
C16A C13A 1_555 1_555
C17A C9A 1_555 1_555
C18A Ag1 1_555 1_555
H6A C18A 1_555 1_555
C19A Ag1 1_555 1_555
H7A C19A 1_555 1_555
C20A C19A 1_555 1_555
C21A C20A 1_555 1_555
C22A C21A 1_555 1_555
C23A C22A 1_555 1_555
H8A C23A 1_555 1_555
C24A C23A 1_555 1_555
H9A C24A 1_555 1_555
C25A C24A 1_555 1_555
H10A C25A 1_555 1_555
C26A C21A 1_555 1_555
C27A C26A 1_555 1_555
H11A C27A 1_555 1_555
C28A C27A 1_555 1_555
H12A C28A 1_555 1_555
C29A C28A 1_555 1_555
C30A C29A 1_555 1_555
H13A C30A 1_555 1_555
C31A C26A 1_555 1_555
H14A C31A 1_555 1_555
C32A C29A 1_555 1_555
N1A Zn1 1_555 1_555
N2A Zn1 1_555 1_555
N3A C16A 1_555 1_555
N4A Zn2 1_555 1_555
N5A Zn2 1_555 1_555
N6A C32A 1_555 1_555
Ag1A C18 1_555 1_555
N3D Ag1A 1_555 1_555
N3E Ag1 1_555 1_555
N6F Ag1A 1_555 1_555
N6G Ag1 1_555 1_555
Ag1D N3A 1_555 1_555
Ag1E N3 1_555 1_555
Ag1F N6A 1_555 1_555
Ag1G N6 1_555 1_555
C4 N1 1_555 1_555
C9 N2 1_555 1_555
C14 C15 1_555 1_555
C19 Ag1A 1_555 1_555
C20 N4 1_555 1_555
C25 N5 1_555 1_555
C30 C31 1_555 1_555
N2 Zn1 1_555 1_555
N5 Zn2 1_555 1_555
C1A N1A 1_555 1_555
C2A Ag1A 1_555 1_555
C4A N1A 1_555 1_555
C6A N2A 1_555 1_555
C9A N2A 1_555 1_555
C14A C15A 1_555 1_555
C17A C18A 1_555 1_555
C17A N4A 1_555 1_555
C18A C19A 1_555 1_555
C20A N4A 1_555 1_555
C22A N5A 1_555 1_555
C25A N5A 1_555 1_555
C30A C31A 1_555 1_555

#END
