
#######################################################################
#
#                 Cambridge Crystallographic Data Centre
#                                CCDC 
#
#######################################################################
#
# If this CIF has been generated from an entry in the Cambridge 
# Structural Database, then it will include bibliographic, chemical, 
# crystal, experimental, refinement or atomic coordinate data resulting 
# from the CCDC's data processing and validation procedures.
#
#######################################################################

data_GIVNIK
_symmetry_cell_setting           monoclinic
_symmetry_space_group_name_H-M   'C 2/c'
_symmetry_Int_Tables_number      15
_space_group_name_Hall           '-C 2yn'
loop_
_symmetry_equiv_pos_site_id
_symmetry_equiv_pos_as_xyz
1 x,y,z
2 -x,y,1/2-z
3 1/2+x,1/2+y,z
4 1/2-x,1/2+y,1/2-z
5 -x,-y,-z
6 x,-y,1/2+z
7 1/2-x,1/2-y,-z
8 1/2+x,1/2-y,1/2+z
_cell_length_a                   33.6474(7)
_cell_length_b                   13.9237(3)
_cell_length_c                   23.3437(5)
_cell_angle_alpha                90
_cell_angle_beta                 112.4950(10)
_cell_angle_gamma                90
_cell_volume                     10104.3
loop_
_atom_site_label
_atom_site_type_symbol
_atom_site_fract_x
_atom_site_fract_y
_atom_site_fract_z
B1 B 0.1390(3) 0.3316(5) 0.0595(3)
F1 F 0.13916(11) 0.2747(2) 0.10573(14)
F2 F 0.1004(3) 0.3844(5) 0.0431(3)
F3 F 0.1396(3) 0.2848(5) 0.0122(2)
F4 F 0.1685(3) 0.3981(5) 0.0818(3)
Ag1 Ag 0.153997(8) 0.13611(2) 0.291291(11)
N1 N 0.21781(11) 0.1516(3) 0.37218(14)
C1 C 0.24861(12) 0.1502(3) 0.41503(17)
C2 C 0.28719(11) 0.1448(3) 0.46933(16)
C3 C 0.30777(11) 0.0585(3) 0.48719(17)
C4 C 0.30454(10) 0.2288(3) 0.50359(14)
C5 C 0.34603(11) 0.0514(3) 0.53993(17)
H1 H 0.2962 0.0038 0.4640
H2 H 0.2910 0.2877 0.4909
C6 C 0.34188(10) 0.2229(2) 0.55611(14)
C7 C 0.36346(10) 0.1351(2) 0.57456(15)
H3 H 0.3597 -0.0075 0.5519
H4 H 0.3528 0.2778 0.5795
C8 C 0.40529(10) 0.1326(2) 0.62837(15)
C9 C 0.44030(10) 0.0930(3) 0.61987(14)
C10 C 0.40549(10) 0.1715(2) 0.68477(14)
C11 C 0.44235(12) 0.0546(3) 0.56390(17)
N2 N 0.48120(9) 0.0795(2) 0.66832(12)
C12 C 0.36966(10) 0.1825(2) 0.70276(15)
N3 N 0.44217(8) 0.20134(19) 0.73319(11)
C13 C 0.48350(14) 0.0226(4) 0.57783(19)
H5 H 0.4199 0.0521 0.5253
C14 C 0.50572(11) 0.0384(3) 0.64226(18)
Zn1 Zn 0.5000 0.14412(4) 0.7500
H6 H 0.3411 0.1683 0.6788
C15 C 0.38558(9) 0.2182(2) 0.76258(14)
C16 C 0.43029(10) 0.2309(2) 0.77969(14)
H7 H 0.4946 -0.0042 0.5506
H8 H 0.5344 0.0218 0.6639
H9 H 0.3699 0.2314 0.7869
C17 C 0.37893(11) 0.5064(2) 0.68207(15)
N4 N 0.34535(11) 0.4403(3) 0.79748(14)
C18 C 0.46224(10) 0.2763(2) 0.83370(13)
C19 C 0.38125(10) 0.4805(2) 0.62582(15)
H10 H 0.3560 0.5365 0.6876
C20 C 0.41825(10) 0.4779(3) 0.72912(15)
C21 C 0.46370(11) 0.2825(3) 0.89528(14)
N5 N 0.49673(8) 0.31864(19) 0.82857(10)
C22 C 0.42235(10) 0.4370(2) 0.64047(14)
H11 H 0.3602 0.4897 0.5865
H12 H 0.4252 0.4867 0.7714
N6 N 0.44408(8) 0.4367(2) 0.70462(11)
H13 H 0.4431 0.2601 0.9095
C23 C 0.50121(11) 0.3277(3) 0.92934(14)
C24 C 0.52185(11) 0.3536(2) 0.88826(13)
Zn2 Zn 0.5000 0.37086(4) 0.7500
C25 C 0.43965(10) 0.4046(2) 0.59746(13)
H14 H 0.5116 0.3396 0.9717
C26 C 0.41617(10) 0.4329(2) 0.53187(13)
C27 C 0.41085(11) 0.5302(2) 0.51731(15)
C28 C 0.40022(12) 0.3660(2) 0.48446(15)
H15 H 0.4206 0.5748 0.5494
C29 C 0.39173(12) 0.5633(3) 0.45716(16)
C30 C 0.37966(12) 0.3974(3) 0.42337(14)
H16 H 0.4032 0.3007 0.4933
H17 H 0.3893 0.6287 0.4484
C31 C 0.37619(10) 0.4953(3) 0.41005(14)
H18 H 0.3683 0.3529 0.3915
C32 C 0.35823(12) 0.5284(3) 0.34729(16)
N1F N 0.28219(11) 0.3484(3) 0.62782(14)
Ag1F Ag 0.346003(8) 0.36389(2) 0.708709(11)
N2A N 0.51880(9) 0.0795(2) 0.83168(12)
N3A N 0.55783(8) 0.20134(19) 0.76681(11)
C14A C 0.49428(11) 0.0384(3) 0.85774(18)
C9A C 0.55970(10) 0.0930(3) 0.88013(14)
C10A C 0.59451(10) 0.1715(2) 0.81523(14)
C16A C 0.56971(10) 0.2309(2) 0.72031(14)
H8A H 0.4656 0.0218 0.8361
C13A C 0.51650(14) 0.0226(4) 0.92217(19)
C11A C 0.55765(12) 0.0546(3) 0.93610(17)
C8A C 0.59471(10) 0.1326(2) 0.87163(15)
C12A C 0.63034(10) 0.1825(2) 0.79724(15)
C15A C 0.61442(9) 0.2182(2) 0.73742(14)
C18A C 0.53776(10) 0.2763(2) 0.66630(13)
H7A H 0.5054 -0.0042 0.9494
H5A H 0.5801 0.0521 0.9747
C7A C 0.63654(10) 0.1351(2) 0.92544(15)
H6A H 0.6589 0.1683 0.8212
Ag1G Ag 0.653997(8) 0.36389(2) 0.791291(11)
H9A H 0.6301 0.2314 0.7131
C21A C 0.53630(11) 0.2825(3) 0.60472(14)
N5A N 0.50327(8) 0.31864(19) 0.67143(10)
C25A C 0.56035(10) 0.4046(2) 0.90254(13)
N6A N 0.55592(8) 0.4367(2) 0.79538(11)
C5A C 0.65397(11) 0.0514(3) 0.96007(17)
C6A C 0.65812(10) 0.2229(2) 0.94389(14)
C17A C 0.62107(11) 0.5064(2) 0.81793(15)
N1G N 0.71781(11) 0.3484(3) 0.87218(14)
N4A N 0.65465(11) 0.4403(3) 0.70252(14)
H13A H 0.5569 0.2601 0.5905
C23A C 0.49879(11) 0.3277(3) 0.57066(14)
C24A C 0.47815(11) 0.3536(2) 0.61174(13)
C22A C 0.57765(10) 0.4370(2) 0.85953(14)
C26A C 0.58383(10) 0.4329(2) 0.96813(13)
C20A C 0.58175(10) 0.4779(3) 0.77088(15)
H3A H 0.6403 -0.0075 0.9481
C3A C 0.69223(11) 0.0585(3) 1.01281(17)
C4A C 0.69546(10) 0.2288(3) 0.99641(14)
H4A H 0.6472 0.2778 0.9205
C19A C 0.61875(10) 0.4805(2) 0.87418(15)
H10A H 0.6440 0.5365 0.8124
H14A H 0.4884 0.3396 0.5283
C27A C 0.58915(11) 0.5302(2) 0.98269(15)
C28A C 0.59978(12) 0.3660(2) 1.01554(15)
H12A H 0.5748 0.4867 0.7286
H1A H 0.7038 0.0038 1.0360
C2A C 0.71281(11) 0.1448(3) 1.03067(16)
H2A H 0.7090 0.2877 1.0091
H11A H 0.6398 0.4897 0.9135
H15A H 0.5794 0.5748 0.9506
C29A C 0.60827(12) 0.5633(3) 1.04284(16)
C30A C 0.62034(12) 0.3974(3) 1.07663(14)
H16A H 0.5968 0.3007 1.0067
C1A C 0.75139(12) 0.1502(3) 1.08497(17)
H17A H 0.6107 0.6287 1.0516
C31A C 0.62381(10) 0.4953(3) 1.08995(14)
H18A H 0.6317 0.3529 1.1085
N1A N 0.78219(11) 0.1516(3) 1.12782(14)
C32A C 0.64177(12) 0.5284(3) 1.15271(16)
Ag1A Ag 0.846003(8) 0.13611(2) 1.208709(11)
N4E N 0.34535(11) 0.5597(3) 0.29748(14)
N4D N 0.65465(11) 0.5597(3) 1.20252(14)
Ag1C Ag 0.346003(8) 0.63611(2) 0.208709(11)
Ag1B Ag 0.653997(8) 0.63611(2) 1.291291(11)
loop_
_geom_bond_atom_site_label_1
_geom_bond_atom_site_label_2
_geom_bond_site_symmetry_1
_geom_bond_site_symmetry_2
Ag1 N1 1_555 1_555
N1 C1 1_555 1_555
C1 C2 1_555 1_555
C2 C3 1_555 1_555
C3 C5 1_555 1_555
C4 C2 1_555 1_555
C5 C7 1_555 1_555
H1 C3 1_555 1_555
H2 C4 1_555 1_555
C6 C4 1_555 1_555
C7 C6 1_555 1_555
H3 C5 1_555 1_555
H4 C6 1_555 1_555
C8 C7 1_555 1_555
C9 C8 1_555 1_555
C10 C8 1_555 1_555
C11 C9 1_555 1_555
N2 C9 1_555 1_555
C12 C10 1_555 1_555
N3 C10 1_555 1_555
C13 C11 1_555 1_555
H5 C11 1_555 1_555
C14 N2 1_555 1_555
Zn1 N2 1_555 1_555
H6 C12 1_555 1_555
C15 C12 1_555 1_555
C16 N3 1_555 1_555
H7 C13 1_555 1_555
H8 C14 1_555 1_555
H9 C15 1_555 1_555
C17 C19 1_555 1_555
N4 Ag1F 1_555 1_555
C18 C16 1_555 1_555
C19 C22 1_555 1_555
H10 C17 1_555 1_555
C20 C17 1_555 1_555
C21 C18 1_555 1_555
N5 C18 1_555 1_555
C22 N6 1_555 1_555
H11 C19 1_555 1_555
H12 C20 1_555 1_555
N6 C20 1_555 1_555
H13 C21 1_555 1_555
C23 C21 1_555 1_555
C24 N5 1_555 1_555
Zn2 N5 1_555 1_555
C25 C22 1_555 1_555
H14 C23 1_555 1_555
C26 C25 1_555 1_555
C27 C26 1_555 1_555
C28 C26 1_555 1_555
H15 C27 1_555 1_555
C29 C27 1_555 1_555
C30 C28 1_555 1_555
H16 C28 1_555 1_555
H17 C29 1_555 1_555
C31 C29 1_555 1_555
H18 C30 1_555 1_555
C32 C31 1_555 1_555
B1 F1 1_555 1_555
F2 B1 1_555 1_555
F3 B1 1_555 1_555
F4 B1 1_555 1_555
N1F Ag1F 1_555 1_555
Ag1F C12 1_555 1_555
N2A Zn1 1_555 1_555
N3A Zn1 1_555 1_555
C14A N2A 1_555 1_555
C9A N2A 1_555 1_555
C10A N3A 1_555 1_555
C16A N3A 1_555 1_555
H8A C14A 1_555 1_555
C13A C14A 1_555 1_555
C11A C9A 1_555 1_555
C8A C9A 1_555 1_555
C12A C10A 1_555 1_555
C15A C16A 1_555 1_555
C18A C16A 1_555 1_555
H7A C13A 1_555 1_555
H5A C11A 1_555 1_555
C7A C8A 1_555 1_555
H6A C12A 1_555 1_555
Ag1G C12A 1_555 1_555
H9A C15A 1_555 1_555
C21A C18A 1_555 1_555
N5A Zn2 1_555 1_555
C25A C24 1_555 1_555
N6A Zn2 1_555 1_555
C5A C7A 1_555 1_555
C6A C7A 1_555 1_555
C17A Ag1G 1_555 1_555
N1G Ag1G 1_555 1_555
N4A Ag1G 1_555 1_555
H13A C21A 1_555 1_555
C23A C21A 1_555 1_555
C24A C25 1_555 1_555
C22A C25A 1_555 1_555
C26A C25A 1_555 1_555
C20A N6A 1_555 1_555
H3A C5A 1_555 1_555
C3A C5A 1_555 1_555
C4A C6A 1_555 1_555
H4A C6A 1_555 1_555
C19A C17A 1_555 1_555
H10A C17A 1_555 1_555
H14A C23A 1_555 1_555
C27A C26A 1_555 1_555
C28A C26A 1_555 1_555
H12A C20A 1_555 1_555
H1A C3A 1_555 1_555
C2A C3A 1_555 1_555
H2A C4A 1_555 1_555
H11A C19A 1_555 1_555
H15A C27A 1_555 1_555
C29A C27A 1_555 1_555
C30A C28A 1_555 1_555
H16A C28A 1_555 1_555
C1A C2A 1_555 1_555
H17A C29A 1_555 1_555
C31A C29A 1_555 1_555
H18A C30A 1_555 1_555
N1A C1A 1_555 1_555
C32A C31A 1_555 1_555
Ag1A N1A 1_555 1_555
N4E C32 1_555 1_555
N4D C32A 1_555 1_555
Ag1C N4E 1_555 1_555
Ag1B N4D 1_555 1_555
N3 Zn1 1_555 1_555
C13 C14 1_555 1_555
C15 C16 1_555 1_555
C15 Ag1F 1_555 1_555
C17 Ag1F 1_555 1_555
N6 Zn2 1_555 1_555
C23 C24 1_555 1_555
C30 C31 1_555 1_555
C10A C8A 1_555 1_555
C13A C11A 1_555 1_555
C12A C15A 1_555 1_555
C15A Ag1G 1_555 1_555
C18A N5A 1_555 1_555
N5A C24A 1_555 1_555
N6A C22A 1_555 1_555
C17A C20A 1_555 1_555
C23A C24A 1_555 1_555
C22A C19A 1_555 1_555
C4A C2A 1_555 1_555
C30A C31A 1_555 1_555

#END
