
#######################################################################
#
#                 Cambridge Crystallographic Data Centre
#                                CCDC 
#
#######################################################################
#
# If this CIF has been generated from an entry in the Cambridge 
# Structural Database, then it will include bibliographic, chemical, 
# crystal, experimental, refinement or atomic coordinate data resulting 
# from the CCDC's data processing and validation procedures.
#
#######################################################################

data_GIVPEH
_symmetry_cell_setting           trigonal
_symmetry_space_group_name_H-M   'P -3'
_symmetry_Int_Tables_number      147
_space_group_name_Hall           '-P 3'
loop_
_symmetry_equiv_pos_site_id
_symmetry_equiv_pos_as_xyz
1 x,y,z
2 -y,x-y,z
3 -x+y,-x,z
4 -x,-y,-z
5 y,-x+y,-z
6 x-y,x,-z
_cell_length_a                   17.974(4)
_cell_length_b                   17.974(4)
_cell_length_c                   8.853(4)
_cell_angle_alpha                90
_cell_angle_beta                 90
_cell_angle_gamma                120
_cell_volume                     2476.91
loop_
_atom_site_label
_atom_site_type_symbol
_atom_site_fract_x
_atom_site_fract_y
_atom_site_fract_z
Cr1 Cr 0.3333 -0.3333 -0.50526(13)
P1 P 0.53160(8) -0.22092(8) -0.38037(13)
P2 P 0.34859(7) -0.15877(7) -0.63931(13)
O1 O 0.4337(2) -0.2695(2) -0.3680(4)
O2 O 0.2614(3) -0.1712(2) -0.2763(4)
O3 O 0.5656(2) -0.1269(2) -0.3555(4)
O4 O 0.1831(2) -0.2817(2) -0.6722(3)
H1 H 0.1578 -0.2690 -0.7350
O5 O 0.3661(2) -0.2333(2) -0.6442(4)
O6 O 0.4064(2) -0.0904(2) -0.5290(4)
O7 O 0.3539(2) -0.1257(2) -0.7990(4)
C1 C 0.2354(3) -0.2078(3) -0.5772(5)
C2 C 0.6510(3) -0.2029(4) -0.5962(6)
H2 H 0.6830 -0.1442 -0.5633
H3 H 0.6671 -0.2373 -0.5367
H4 H 0.6632 -0.2064 -0.7006
Na1 Na 0.56778(13) -0.04145(13) -0.5581(2)
Na2 Na 0.41593(15) -0.13960(15) -0.2794(3)
O8 O 0.4667(3) 0.0067(3) -0.1809(5)
O13 O 0.7050(3) 0.0080(3) -0.7021(6)
O15 O 0.4121(3) -0.1995(3) -0.0304(5)
P1A P 0.22092(8) -0.24748(11) -0.38037(13)
P1B P 0.24748(11) -0.53160(8) -0.38037(13)
P2A P 0.15877(7) -0.49264(10) -0.63931(13)
P2B P 0.49264(10) -0.34859(7) -0.63931(13)
O1A O 0.2695(2) -0.2968(3) -0.3680(4)
O1B O 0.2968(3) -0.4337(2) -0.3680(4)
O2A O 0.1712(2) -0.5674(4) -0.2763(4)
O2B O 0.5674(4) -0.2614(3) -0.2763(4)
O3A O 0.1269(2) -0.3075(3) -0.3555(4)
O3B O 0.3075(3) -0.5656(2) -0.3555(4)
O4A O 0.2817(2) -0.5352(3) -0.6722(3)
O4B O 0.5352(3) -0.1831(2) -0.6722(3)
H1A H 0.2690 -0.5732 -0.7350
H1B H 0.5732 -0.1578 -0.7350
O5A O 0.2333(2) -0.4006(3) -0.6442(4)
O5B O 0.4006(3) -0.3661(2) -0.6442(4)
O6C O 0.5936(2) 0.0904(2) -0.4710(4)
O6D O -0.0904(2) -0.4968(3) -0.4710(4)
O6A O 0.0904(2) -0.5032(3) -0.5290(4)
O6B O 0.5032(3) -0.4064(2) -0.5290(4)
O6E O 0.4968(3) -0.5936(2) -0.4710(4)
O7A O 0.1257(2) -0.5204(3) -0.7990(4)
O7B O 0.5204(3) -0.3539(2) -0.7990(4)
C1A C 0.2078(3) -0.5568(4) -0.5772(5)
C1B C 0.5568(4) -0.2354(3) -0.5772(5)
C2B C 0.1461(5) -0.6510(3) -0.5962(6)
C2A C 0.2029(4) -0.1461(5) -0.5962(6)
H2B H 0.1728 -0.6830 -0.5633
H2A H 0.1442 -0.1728 -0.5633
H3B H 0.0956 -0.6671 -0.5367
H3A H 0.2373 -0.0956 -0.5367
H4B H 0.1304 -0.6632 -0.7006
H4A H 0.2064 -0.1304 -0.7006
Na1C Na 0.43222(13) 0.04145(13) -0.4419(2)
Na1A Na 0.04145(13) -0.39077(18) -0.5581(2)
Na1D Na -0.04145(13) -0.60923(18) -0.4419(2)
Na1E Na 0.60923(18) -0.43222(13) -0.4419(2)
Na1B Na 0.39077(18) -0.56778(13) -0.5581(2)
Na2C Na 0.58407(15) 0.13960(15) -0.7206(3)
Na2A Na 0.13960(15) -0.44447(21) -0.2794(3)
Na2D Na -0.13960(15) -0.55553(21) -0.7206(3)
Na2B Na 0.44447(21) -0.41593(15) -0.2794(3)
O8C O 0.5333(3) -0.0067(3) -0.8191(5)
O8B O 0.5400(4) -0.4667(3) -0.1809(5)
O8E O 0.4600(4) -0.5333(3) -0.8191(5)
O8D O 0.0067(3) -0.4600(4) -0.8191(5)
O8A O -0.0067(3) -0.5400(4) -0.1809(5)
O13B O 0.3030(4) -0.7050(3) -0.7021(6)
O13A O -0.0080(3) -0.3030(4) -0.7021(6)
O15B O 0.3884(4) -0.4121(3) -0.0304(5)
O15A O 0.1995(3) -0.3884(4) -0.0304(5)
O9 O 0.6667 0.3333 -0.1550(12)
O10 O 0.3648(6) 0.0907(3) -0.1126(5)
O11 O 0.4378(4) 0.2161(3) -0.0080(5)
O12 O 0.3464(5) 0.3706(5) -0.0963(8)
O14 O 0.6667 0.3333 -0.8441(5)
O16 O 0.1787(9) 0.2466(9) -0.2611(19)
O17 O 0.1460(10) 0.1397(11) -0.599(3)
O18 O 0.2200(14) 0.1104(19) -0.053(3)
loop_
_geom_bond_atom_site_label_1
_geom_bond_atom_site_label_2
_geom_bond_site_symmetry_1
_geom_bond_site_symmetry_2
Cr1 O1 1_555 1_555
P1 O1 1_555 1_555
P2 O5 1_555 1_555
O1 Na2 1_555 1_555
O2 Na2 1_555 1_555
O3 P1 1_555 1_555
O4 H1 1_555 1_555
O5 Cr1 1_555 1_555
O6 P2 1_555 1_555
O7 P2 1_555 1_555
C1 P2 1_555 1_555
C2 H2 1_555 1_555
H3 C2 1_555 1_555
H4 C2 1_555 1_555
Na1 O3 1_555 1_555
Na2 O3 1_555 1_555
O8 Na2 1_555 1_555
O13 Na1 1_555 1_555
O15 Na2 1_555 1_555
P1A O2 1_555 1_555
P1B O1B 1_555 1_555
P2A O5A 1_555 1_555
P2B O5B 1_555 1_555
O1A Cr1 1_555 1_555
O1B Cr1 1_555 1_555
O2A P1B 1_555 1_555
O2B P1 1_555 1_555
O3A P1A 1_555 1_555
O3B P1B 1_555 1_555
O4A H1A 1_555 1_555
O4B Na1 1_555 1_555
H1B O4B 1_555 1_555
O5A Cr1 1_555 1_555
O5B Cr1 1_555 1_555
O6C Na1 1_555 1_555
O6D Na1A 1_555 1_555
O6A P2A 1_555 1_555
O6B P2B 1_555 1_555
O6E Na1E 1_555 1_555
O7A P2A 1_555 1_555
O7B P2B 1_555 1_555
C1A P1B 1_555 1_555
C1B P1 1_555 1_555
C2B C1A 1_555 1_555
C2A C1 1_555 1_555
H2B C2B 1_555 1_555
H2A C2A 1_555 1_555
H3B C2B 1_555 1_555
H3A C2A 1_555 1_555
H4B C2B 1_555 1_555
H4A C2A 1_555 1_555
Na1C O6 1_555 1_555
Na1A O4 1_555 1_555
Na1D O6D 1_555 1_555
Na1E O6B 1_555 1_555
Na1B O3B 1_555 1_555
Na2C O6C 1_555 1_555
Na2A O1A 1_555 1_555
Na2D O6D 1_555 1_555
Na2B O1B 1_555 1_555
O8C Na1 1_555 1_555
O8B Na1E 1_555 1_555
O8E Na1B 1_555 1_555
O8D Na1A 1_555 1_555
O8A Na1D 1_555 1_555
O13B Na1B 1_555 1_555
O13A Na1A 1_555 1_555
O15B Na2B 1_555 1_555
O15A Na2A 1_555 1_555
O4 C1 1_555 1_555
O6 Na1 1_555 1_555
O6 Na2 1_555 1_555
C1 P1A 1_555 1_555
C2 C1B 1_555 1_555
O8 Na1C 1_555 1_555
P1A O1A 1_555 1_555
P2A C1A 1_555 1_555
P2B C1B 1_555 1_555
O2A Na2A 1_555 1_555
O2B Na2B 1_555 1_555
O3A Na1A 1_555 1_555
O3A Na2A 1_555 1_555
O3B Na2B 1_555 1_555
O4A C1A 1_555 1_555
O4A Na1B 1_555 1_555
O4B C1B 1_555 1_555
O6C Na1C 1_555 1_555
O6A Na1A 1_555 1_555
O6A Na1D 1_555 1_555
O6A Na2A 1_555 1_555
O6B Na1B 1_555 1_555
O6B Na2B 1_555 1_555
O6E Na1B 1_555 1_555
Na2C O8C 1_555 1_555
Na2A O8A 1_555 1_555
Na2D O8D 1_555 1_555
Na2B O8B 1_555 1_555

#END
