
#######################################################################
#
#                 Cambridge Crystallographic Data Centre
#                                CCDC 
#
#######################################################################
#
# If this CIF has been generated from an entry in the Cambridge 
# Structural Database, then it will include bibliographic, chemical, 
# crystal, experimental, refinement or atomic coordinate data resulting 
# from the CCDC's data processing and validation procedures.
#
#######################################################################

data_GIVPUY
_symmetry_cell_setting           monoclinic
_symmetry_space_group_name_H-M   'P 21/c'
_symmetry_Int_Tables_number      14
_space_group_name_Hall           '-P 2ybc'
loop_
_symmetry_equiv_pos_site_id
_symmetry_equiv_pos_as_xyz
1 x,y,z
2 -x,1/2+y,1/2-z
3 -x,-y,-z
4 x,1/2-y,1/2+z
_cell_length_a                   11.812(2)
_cell_length_b                   9.6182(19)
_cell_length_c                   19.060(4)
_cell_angle_alpha                90
_cell_angle_beta                 103.55(3)
_cell_angle_gamma                90
_cell_volume                     2105.14
loop_
_atom_site_label
_atom_site_type_symbol
_atom_site_fract_x
_atom_site_fract_y
_atom_site_fract_z
Ag1 Ag 0.564057(17) 0.14093(2) 0.508410(12)
N1 N 0.43413(14) 0.27741(18) 0.44612(9)
N2 N -0.29099(15) 0.45715(19) 0.08225(10)
C1 C 0.39828(17) 0.2641(2) 0.37440(11)
H1 H 0.4268 0.1903 0.3521
C2 C 0.32116(18) 0.3547(2) 0.33224(10)
H2 H 0.2975 0.3401 0.2827
C3 C 0.27848(15) 0.46793(19) 0.36341(10)
C4 C 0.31417(18) 0.4798(2) 0.43766(11)
H3 H 0.2868 0.5526 0.4612
C5 C 0.3902(2) 0.3840(3) 0.47671(12)
H4 H 0.4121 0.3935 0.5266
C6 C 0.20027(16) 0.5742(2) 0.31847(10)
H5 H 0.2441 0.6234 0.2891
H6 H 0.1772 0.6414 0.3504
C7 C 0.09077(16) 0.5133(2) 0.26909(11)
H7 H 0.1130 0.4496 0.2352
H8 H 0.0478 0.4610 0.2978
C8 C 0.01281(19) 0.6265(2) 0.22763(13)
H9 H -0.0106 0.6885 0.2618
H10 H 0.0572 0.6805 0.2004
C9 C -0.09444(16) 0.5708(2) 0.17658(11)
C10 C -0.17519(19) 0.4915(2) 0.20091(12)
H11 H -0.1646 0.4742 0.2500
C11 C -0.27069(18) 0.4381(2) 0.15326(12)
H12 H -0.3238 0.3861 0.1714
C12 C -0.2151(2) 0.5366(3) 0.05857(12)
H13 H -0.2285 0.5536 0.0093
C13 C -0.11782(19) 0.5947(3) 0.10337(12)
H14 H -0.0680 0.6501 0.0841
Ag1B Ag 0.435943(17) -0.14093(2) 0.491590(12)
Ag1C Ag -0.435943(17) 0.35907(2) 0.008410(12)
N2C N 0.70901(15) 0.04285(19) 0.58225(10)
O1 O 0.32294(18) -0.01560(15) 0.67922(10)
O2 O 0.44427(15) 0.02529(16) 0.60927(10)
O3 O 0.34357(16) 0.72859(15) 0.68654(8)
H15 H 0.3338 0.8147 0.6771
O4 O 0.2426(2) 0.7102(2) 0.57379(11)
C14 C 0.34621(16) 0.21601(17) 0.64505(9)
C15 C 0.43413(16) 0.30730(19) 0.67172(11)
H16 H 0.5091 0.2741 0.6903
C16 C 0.41260(17) 0.45144(19) 0.67149(10)
H17 H 0.4725 0.5117 0.6926
C17 C 0.30519(17) 0.50364(18) 0.64070(10)
C18 C 0.20974(16) 0.4117(2) 0.61474(9)
C19 C 0.22994(16) 0.26549(18) 0.61865(9)
C20 C 0.1339(2) 0.1747(2) 0.59470(11)
H18 H 0.1456 0.0790 0.5970
C21 C 0.0244(2) 0.2262(3) 0.56838(13)
H19 H -0.0375 0.1655 0.5523
C22 C 0.0048(2) 0.3696(3) 0.56547(14)
H20 H -0.0702 0.4036 0.5480
C23 C 0.09425(18) 0.4595(3) 0.58795(11)
H21 H 0.0795 0.5545 0.5858
C24 C 0.37466(17) 0.06246(18) 0.64380(10)
C25 C 0.2912(2) 0.6587(2) 0.63098(12)
loop_
_geom_bond_atom_site_label_1
_geom_bond_atom_site_label_2
_geom_bond_site_symmetry_1
_geom_bond_site_symmetry_2
Ag1 N1 1_555 1_555
N1 C1 1_555 1_555
N2 C11 1_555 1_555
C1 H1 1_555 1_555
C2 C1 1_555 1_555
H2 C2 1_555 1_555
C3 C2 1_555 1_555
C4 C3 1_555 1_555
H3 C4 1_555 1_555
C5 N1 1_555 1_555
H4 C5 1_555 1_555
C6 C3 1_555 1_555
H5 C6 1_555 1_555
H6 C6 1_555 1_555
C7 C6 1_555 1_555
H7 C7 1_555 1_555
H8 C7 1_555 1_555
C8 C7 1_555 1_555
H9 C8 1_555 1_555
H10 C8 1_555 1_555
C9 C8 1_555 1_555
C10 C9 1_555 1_555
H11 C10 1_555 1_555
C11 C10 1_555 1_555
H12 C11 1_555 1_555
C12 N2 1_555 1_555
H13 C12 1_555 1_555
C13 C9 1_555 1_555
H14 C13 1_555 1_555
O1 C24 1_555 1_555
O2 C24 1_555 1_555
O3 H15 1_555 1_555
O4 C25 1_555 1_555
C14 C15 1_555 1_555
C15 H16 1_555 1_555
C16 C15 1_555 1_555
H17 C16 1_555 1_555
C17 C16 1_555 1_555
C18 C17 1_555 1_555
C19 C14 1_555 1_555
C20 C19 1_555 1_555
H18 C20 1_555 1_555
C21 C20 1_555 1_555
H19 C21 1_555 1_555
C22 C21 1_555 1_555
H20 C22 1_555 1_555
C23 C18 1_555 1_555
H21 C23 1_555 1_555
C24 C14 1_555 1_555
C25 O3 1_555 1_555
Ag1B Ag1 1_555 1_555
Ag1C N2 1_555 1_555
N2C Ag1 1_555 1_555
C4 C5 1_555 1_555
C12 C13 1_555 1_555
C17 C25 1_555 1_555
C18 C19 1_555 1_555
C22 C23 1_555 1_555

#END
