
#######################################################################
#
#                 Cambridge Crystallographic Data Centre
#                                CCDC 
#
#######################################################################
#
# If this CIF has been generated from an entry in the Cambridge 
# Structural Database, then it will include bibliographic, chemical, 
# crystal, experimental, refinement or atomic coordinate data resulting 
# from the CCDC's data processing and validation procedures.
#
#######################################################################

data_GIVPOS
_symmetry_cell_setting           triclinic
_symmetry_space_group_name_H-M   'P -1'
_symmetry_Int_Tables_number      2
_space_group_name_Hall           '-P 1'
loop_
_symmetry_equiv_pos_site_id
_symmetry_equiv_pos_as_xyz
1 x,y,z
2 -x,-y,-z
_cell_length_a                   9.7346(19)
_cell_length_b                   9.761(2)
_cell_length_c                   12.173(2)
_cell_angle_alpha                103.67(3)
_cell_angle_beta                 102.74(3)
_cell_angle_gamma                107.87(3)
_cell_volume                     1014.56
loop_
_atom_site_label
_atom_site_type_symbol
_atom_site_fract_x
_atom_site_fract_y
_atom_site_fract_z
Ag1 Ag 0.70875(3) 0.02442(3) 0.57035(2)
N1 N 0.7576(3) 0.2031(3) 0.7419(2)
N2 N 0.7340(3) 0.8469(3) 1.4337(2)
O1 O 0.5555(2) 0.1500(3) 0.4450(2)
O2 O 0.4890(2) 0.1972(3) 0.2739(2)
O3 O 1.2833(3) 0.4049(3) 0.3644(2)
O4 O 1.2227(2) 0.1587(3) 0.2718(2)
H1 H 1.3172 0.1787 0.2839
C1 C 0.7344(3) 0.1905(3) 0.3399(3)
C2 C 0.8626(3) 0.2900(4) 0.4311(3)
H2 H 0.8534 0.3416 0.5021
C3 C 1.0080(3) 0.3154(3) 0.4194(3)
H3 H 1.0930 0.3874 0.4814
C4 C 1.0274(3) 0.2364(3) 0.3184(3)
C5 C 0.8971(3) 0.1242(3) 0.2230(2)
C6 C 0.7486(3) 0.1036(3) 0.2333(3)
C7 C 0.6192(4) -0.0098(4) 0.1408(3)
H4 H 0.5227 -0.0249 0.1474
C8 C 0.6343(4) -0.0971(4) 0.0420(3)
H5 H 0.5482 -0.1709 -0.0180
C9 C 0.7789(4) -0.0762(4) 0.0303(3)
H6 H 0.7880 -0.1363 -0.0373
C10 C 0.9064(4) 0.0316(4) 0.1176(3)
H7 H 1.0012 0.0449 0.1079
C11 C 0.5805(3) 0.1768(3) 0.3548(3)
C12 C 1.1907(3) 0.2750(4) 0.3189(3)
C13 C 0.7299(5) 0.3284(4) 0.7400(3)
H8 H 0.7083 0.3469 0.6678
C14 C 0.7319(5) 0.4317(4) 0.8402(3)
H9 H 0.7112 0.5170 0.8342
C15 C 0.7643(5) 0.4098(4) 0.9491(3)
C16 C 0.7958(5) 0.2818(4) 0.9520(3)
H10 H 0.8196 0.2621 1.0235
C17 C 0.7919(4) 0.1830(4) 0.8480(3)
H11 H 0.8144 0.0980 0.8521
C18 C 0.7567(7) 0.5214(5) 1.0554(4)
H12 H 0.8303 0.6209 1.0668
H13 H 0.6569 0.5268 1.0333
C19 C 0.7815(6) 0.4989(4) 1.1691(3)
H14 H 0.8830 0.4988 1.1957
H15 H 0.7094 0.3999 1.1604
C20 C 0.7649(4) 0.6197(4) 1.2627(3)
C21 C 0.6539(4) 0.5856(4) 1.3174(3)
H16 H 0.5871 0.4854 1.2971
C22 C 0.6424(4) 0.7002(4) 1.4020(3)
H17 H 0.5682 0.6746 1.4384
C23 C 0.8411(4) 0.8801(4) 1.3805(3)
H18 H 0.9059 0.9813 1.4016
C24 C 0.8598(4) 0.7716(4) 1.2962(3)
H19 H 0.9358 0.8000 1.2617
Ag1_2 Ag 0.70875(3) 1.02442(3) 1.57035(2)
Ag1A Ag 0.29125(3) -0.02442(3) 0.42965(2)
N2_2 N 0.7340(3) -0.1531(3) 0.4337(2)
O1A O 0.4445(2) -0.1500(3) 0.5550(2)
loop_
_geom_bond_atom_site_label_1
_geom_bond_atom_site_label_2
_geom_bond_site_symmetry_1
_geom_bond_site_symmetry_2
Ag1 N1 1_555 1_555
N1 C13 1_555 1_555
N2 C22 1_555 1_555
O1 Ag1 1_555 1_555
O2 C11 1_555 1_555
O3 C12 1_555 1_555
O4 H1 1_555 1_555
C1 C2 1_555 1_555
C2 H2 1_555 1_555
C3 C2 1_555 1_555
H3 C3 1_555 1_555
C4 C3 1_555 1_555
C5 C4 1_555 1_555
C6 C1 1_555 1_555
C7 C6 1_555 1_555
H4 C7 1_555 1_555
C8 C7 1_555 1_555
H5 C8 1_555 1_555
C9 C8 1_555 1_555
H6 C9 1_555 1_555
C10 C5 1_555 1_555
H7 C10 1_555 1_555
C11 O1 1_555 1_555
C12 O4 1_555 1_555
C13 H8 1_555 1_555
C14 C13 1_555 1_555
H9 C14 1_555 1_555
C15 C14 1_555 1_555
C16 C15 1_555 1_555
H10 C16 1_555 1_555
C17 N1 1_555 1_555
H11 C17 1_555 1_555
C18 C15 1_555 1_555
H12 C18 1_555 1_555
H13 C18 1_555 1_555
C19 C18 1_555 1_555
H14 C19 1_555 1_555
H15 C19 1_555 1_555
C20 C19 1_555 1_555
C21 C20 1_555 1_555
H16 C21 1_555 1_555
C22 C21 1_555 1_555
H17 C22 1_555 1_555
C23 N2 1_555 1_555
H18 C23 1_555 1_555
C24 C20 1_555 1_555
H19 C24 1_555 1_555
Ag1_2 N2 1_555 1_555
Ag1A O1 1_555 1_555
N2_2 Ag1 1_555 1_555
O1A Ag1 1_555 1_555
C1 C11 1_555 1_555
C4 C12 1_555 1_555
C5 C6 1_555 1_555
C9 C10 1_555 1_555
C16 C17 1_555 1_555
C23 C24 1_555 1_555
Ag1A O1A 1_555 1_555

#END
