
#######################################################################
#
#                 Cambridge Crystallographic Data Centre
#                                CCDC 
#
#######################################################################
#
# If this CIF has been generated from an entry in the Cambridge 
# Structural Database, then it will include bibliographic, chemical, 
# crystal, experimental, refinement or atomic coordinate data resulting 
# from the CCDC's data processing and validation procedures.
#
#######################################################################

data_GIVSIO
_symmetry_cell_setting           monoclinic
_symmetry_space_group_name_H-M   'P 21/a'
_symmetry_Int_Tables_number      14
_space_group_name_Hall           '-P 2yab'
loop_
_symmetry_equiv_pos_site_id
_symmetry_equiv_pos_as_xyz
1 x,y,z
2 1/2-x,1/2+y,-z
3 -x,-y,-z
4 1/2+x,1/2-y,z
_cell_length_a                   9.297(2)
_cell_length_b                   12.430(2)
_cell_length_c                   21.806(6)
_cell_angle_alpha                90
_cell_angle_beta                 101.89(3)
_cell_angle_gamma                90
_cell_volume                     2465.87
loop_
_atom_site_label
_atom_site_type_symbol
_atom_site_fract_x
_atom_site_fract_y
_atom_site_fract_z
C1 C 0.4346(5) -0.0785(3) 0.8694(2)
H1 H 0.3637 -0.1077 0.8374
C2 C 0.5282(6) -0.1457(4) 0.9083(2)
H2 H 0.5191 -0.2199 0.9033
C3 C 0.6354(6) -0.1035(4) 0.9548(2)
H3 H 0.7004 -0.1485 0.9811
C4 C 0.6455(5) 0.0064(4) 0.9622(2)
H4 H 0.7175 0.0368 0.9933
C5 C 0.5463(5) 0.0704(3) 0.92225(18)
C6 C 0.5445(5) 0.1901(3) 0.92810(19)
C7 C 0.4072(4) 0.3445(3) 0.87371(16)
C8 C 0.4877(5) 0.4280(3) 0.9046(2)
H5 H 0.5666 0.4140 0.9375
C9 C 0.4515(6) 0.5319(4) 0.8870(3)
H6 H 0.5056 0.5884 0.9082
C10 C 0.3352(6) 0.5531(3) 0.8381(2)
H7 H 0.3127 0.6239 0.8259
C11 C 0.2515(5) 0.4698(3) 0.8069(2)
H8 H 0.1730 0.4846 0.7741
C12 C 0.2852(4) 0.3649(3) 0.82485(15)
C13 C 0.0745(4) 0.2714(3) 0.76224(16)
C14 C 0.0173(4) 0.1788(3) 0.72136(15)
C15 C -0.1082(4) 0.1990(3) 0.67488(16)
H9 H -0.1542 0.2656 0.6740
C16 C -0.1655(4) 0.1231(3) 0.63031(17)
C17 C -0.0929(5) 0.0247(3) 0.63398(18)
H10 H -0.1301 -0.0271 0.6041
C18 C 0.0307(5) -0.0022(3) 0.67874(18)
C19 C 0.0850(4) 0.0770(3) 0.72414(17)
C20 C 0.1080(5) -0.1109(3) 0.6782(2)
C21 C 0.0376(6) -0.1791(4) 0.6206(2)
H11 H 0.0891 -0.2462 0.6215
H12 H 0.0435 -0.1407 0.5830
H13 H -0.0636 -0.1927 0.6215
C22 C 0.0966(6) -0.1757(3) 0.7367(2)
H14 H 0.1458 -0.2435 0.7360
H15 H -0.0050 -0.1880 0.7373
H16 H 0.1419 -0.1363 0.7735
C23 C 0.2686(6) -0.0923(4) 0.6739(2)
H17 H 0.3171 -0.1603 0.6734
H18 H 0.3172 -0.0513 0.7095
H19 H 0.2720 -0.0535 0.6361
C24 C -0.3021(4) 0.1427(4) 0.57833(17)
C25 C -0.3433(5) 0.2628(4) 0.5730(2)
H20 H -0.4291 0.2726 0.5405
H21 H -0.2632 0.3034 0.5632
H22 H -0.3633 0.2875 0.6122
C26 C -0.2715(6) 0.1067(5) 0.5148(2)
H23 H -0.3572 0.1192 0.4825
H24 H -0.2479 0.0315 0.5164
H25 H -0.1904 0.1471 0.5057
C27 C -0.4303(6) 0.0790(4) 0.5937(3)
H26 H -0.5165 0.0910 0.5617
H27 H -0.4486 0.1023 0.6334
H28 H -0.4066 0.0038 0.5957
N1 N 0.4431(4) 0.0278(2) 0.87648(15)
N2 N 0.4371(4) 0.2338(2) 0.88337(14)
N3 N 0.2148(3) 0.2706(2) 0.79481(14)
O1 O 0.1993(3) 0.05127(18) 0.77057(12)
O2 O 0.6316(4) 0.2366(2) 0.96946(14)
O3 O -0.0100(3) 0.35140(19) 0.76328(10)
Mn1 Mn 0.33110(6) 0.14184(4) 0.81797(3)
O3C O 0.4900(3) 0.14860(19) 0.76328(10)
Mn1C Mn -0.16890(6) 0.35816(4) 0.81797(3)
loop_
_geom_bond_atom_site_label_1
_geom_bond_atom_site_label_2
_geom_bond_site_symmetry_1
_geom_bond_site_symmetry_2
C1 H1 1_555 1_555
C2 C1 1_555 1_555
H2 C2 1_555 1_555
C3 C2 1_555 1_555
H3 C3 1_555 1_555
C4 C3 1_555 1_555
H4 C4 1_555 1_555
C5 C4 1_555 1_555
C6 C5 1_555 1_555
C7 C8 1_555 1_555
C8 H5 1_555 1_555
C9 C8 1_555 1_555
H6 C9 1_555 1_555
C10 C9 1_555 1_555
H7 C10 1_555 1_555
C11 C10 1_555 1_555
H8 C11 1_555 1_555
C12 C7 1_555 1_555
C13 C14 1_555 1_555
C14 C15 1_555 1_555
C15 H9 1_555 1_555
C16 C15 1_555 1_555
C17 C16 1_555 1_555
H10 C17 1_555 1_555
C18 C17 1_555 1_555
C19 C14 1_555 1_555
C20 C18 1_555 1_555
C21 C20 1_555 1_555
H11 C21 1_555 1_555
H12 C21 1_555 1_555
H13 C21 1_555 1_555
C22 C20 1_555 1_555
H14 C22 1_555 1_555
H15 C22 1_555 1_555
H16 C22 1_555 1_555
C23 C20 1_555 1_555
H17 C23 1_555 1_555
H18 C23 1_555 1_555
H19 C23 1_555 1_555
C24 C16 1_555 1_555
C25 C24 1_555 1_555
H20 C25 1_555 1_555
H21 C25 1_555 1_555
H22 C25 1_555 1_555
C26 C24 1_555 1_555
H23 C26 1_555 1_555
H24 C26 1_555 1_555
H25 C26 1_555 1_555
C27 C24 1_555 1_555
H26 C27 1_555 1_555
H27 C27 1_555 1_555
H28 C27 1_555 1_555
N1 C1 1_555 1_555
N2 C6 1_555 1_555
N3 C12 1_555 1_555
O1 C19 1_555 1_555
O2 C6 1_555 1_555
O3 C13 1_555 1_555
Mn1 N1 1_555 1_555
O3C Mn1 1_555 1_555
Mn1C O3 1_555 1_555
C5 N1 1_555 1_555
C7 N2 1_555 1_555
C11 C12 1_555 1_555
C13 N3 1_555 1_555
C18 C19 1_555 1_555
N2 Mn1 1_555 1_555
N3 Mn1 1_555 1_555
O1 Mn1 1_555 1_555

#END
