
#######################################################################
#
#                 Cambridge Crystallographic Data Centre
#                                CCDC 
#
#######################################################################
#
# If this CIF has been generated from an entry in the Cambridge 
# Structural Database, then it will include bibliographic, chemical, 
# crystal, experimental, refinement or atomic coordinate data resulting 
# from the CCDC's data processing and validation procedures.
#
#######################################################################

data_GIVXOY
_symmetry_cell_setting           monoclinic
_symmetry_space_group_name_H-M   'P 21/m'
_symmetry_Int_Tables_number      11
_space_group_name_Hall           '-P 2yb'
loop_
_symmetry_equiv_pos_site_id
_symmetry_equiv_pos_as_xyz
1 x,y,z
2 -x,1/2+y,-z
3 -x,-y,-z
4 x,1/2-y,z
_cell_length_a                   4.723(1)
_cell_length_b                   15.196(3)
_cell_length_c                   6.147(1)
_cell_angle_alpha                90
_cell_angle_beta                 102.1(1)
_cell_angle_gamma                90
_cell_volume                     431.373
loop_
_atom_site_label
_atom_site_type_symbol
_atom_site_fract_x
_atom_site_fract_y
_atom_site_fract_z
P1 P -0.7653(4) 0.2500 0.7266(3)
O1 O -0.6145(7) 0.1656(2) 0.8246(6)
O2 O -1.0714(10) 0.2500 0.7767(8)
O3 O -1.4853(8) 0.4806(2) 0.2236(5)
O4 O -1.2457(8) 0.4142(2) 0.5298(6)
C1 C -0.7884(22) 0.2500 0.4340(15)
C2 C -1.4252(10) 0.4699(3) 0.4284(8)
Sn1 Sn -1.2068(1) 0.3944(1) 0.8952(1)
H1 H -0.875(14) 0.1987(39) 0.3585(98)
H2 H -0.611(19) 0.2500 0.379(13)
Sn1B Sn -1.7932(1) 0.6056(1) 0.1048(1)
O1C O -1.6145(7) 0.3344(2) 0.8246(6)
Sn1C Sn -1.2068(1) 0.1056(1) 0.8952(1)
Sn1C_2 Sn -0.2068(1) 0.1056(1) 0.8952(1)
O2_2 O -0.0714(10) 0.2500 0.7767(8)
O1C_2 O -0.6145(7) 0.3344(2) 0.8246(6)
Sn1_2 Sn -0.2068(1) 0.3944(1) 0.8952(1)
O3B O -0.5147(8) 0.5194(2) 0.7764(5)
O4_2 O -0.2457(8) 0.4142(2) 0.5298(6)
H1C H -0.875(14) 0.3013(39) 0.3585(98)
O3B_2 O -1.5147(8) 0.5194(2) 0.7764(5)
C2B C -1.5748(10) 0.5301(3) 0.5716(8)
O4B O -1.7543(8) 0.5858(2) 0.4702(6)
loop_
_geom_bond_atom_site_label_1
_geom_bond_atom_site_label_2
_geom_bond_site_symmetry_1
_geom_bond_site_symmetry_2
P1 O1 1_555 1_555
O1 Sn1C_2 1_555 1_555
O2 P1 1_555 1_555
O3 C2 1_555 1_555
O4 C2 1_555 1_555
C1 P1 1_555 1_555
C2 C2B 1_555 1_555
Sn1 O2 1_555 1_555
H1 C1 1_555 1_555
H2 C1 1_555 1_555
Sn1B O3 1_555 1_555
O1C Sn1 1_555 1_555
Sn1C O2 1_555 1_555
Sn1C_2 O2_2 1_555 1_555
O2_2 Sn1_2 1_555 1_555
O1C_2 P1 1_555 1_555
Sn1_2 O1C_2 1_555 1_555
O3B Sn1_2 1_555 1_555
O4_2 Sn1_2 1_555 1_555
H1C C1 1_555 1_555
O3B_2 Sn1 1_555 1_555
C2B O3B_2 1_555 1_555
O4B Sn1B 1_555 1_555
O4 Sn1 1_555 1_555
C2B O4B 1_555 1_555

#END
