
#######################################################################
#
#                 Cambridge Crystallographic Data Centre
#                                CCDC 
#
#######################################################################
#
# If this CIF has been generated from an entry in the Cambridge 
# Structural Database, then it will include bibliographic, chemical, 
# crystal, experimental, refinement or atomic coordinate data resulting 
# from the CCDC's data processing and validation procedures.
#
#######################################################################

data_GIWBOF
_symmetry_cell_setting           monoclinic
_symmetry_space_group_name_H-M   'C 2'
_symmetry_Int_Tables_number      5
_space_group_name_Hall           'C 2y'
loop_
_symmetry_equiv_pos_site_id
_symmetry_equiv_pos_as_xyz
1 x,y,z
2 -x,y,-z
3 1/2+x,1/2+y,z
4 1/2-x,1/2+y,-z
_cell_length_a                   16.824(5)
_cell_length_b                   7.228(5)
_cell_length_c                   12.256(5)
_cell_angle_alpha                90
_cell_angle_beta                 121.345(5)
_cell_angle_gamma                90
_cell_volume                     1272.86
loop_
_atom_site_label
_atom_site_type_symbol
_atom_site_fract_x
_atom_site_fract_y
_atom_site_fract_z
Zn1 Zn 1.0000 0.04249(17) 1.0000
N1 N 1.0000 0.3420(17) 1.0000
O1 O 1.08017(18) 0.0486(17) 0.9201(3)
O2 O 0.88370(17) 0.0505(17) 0.8221(3)
C1 C 0.9268(6) 0.6342(12) 0.9871(12)
H1 H 0.8749 0.6957 0.9774
F1 F 1.0949(4) 0.068(4) 0.6524(5)
C2 C 0.8785(3) 0.0449(19) 0.7160(4)
C3 C 0.7830(3) 0.040(2) 0.6009(4)
C4 C 0.9317(7) 0.4434(13) 0.9887(13)
H2 H 0.8809 0.3800 0.9810
F2 F 1.1873(6) 0.154(2) 0.8297(9)
C5 C 1.0470(3) 0.036(3) 0.8017(5)
C6 C 0.9564(3) 0.040(3) 0.7036(4)
H3 H 0.9456 0.0387 0.6210
N2 N 1.0000 0.726(2) 1.0000
C7 C 1.1244(6) 0.050(5) 0.7708(8)
C8 C 0.7650(4) 0.036(3) 0.4786(5)
H4 H 0.8143 0.0310 0.4647
C9 C 0.7107(4) 0.044(4) 0.6173(6)
H5 H 0.7210 0.0358 0.6994
F3 F 1.1623(10) -0.129(3) 0.8037(14)
C10 C 0.6747(6) 0.041(3) 0.3751(6)
H6 H 0.6638 0.0433 0.2926
C11 C 0.6191(5) 0.061(5) 0.5126(9)
H7 H 0.5700 0.0845 0.5250
C12 C 0.6042(6) 0.041(4) 0.3933(7)
H8 H 0.5438 0.0283 0.3240
C1A C 1.0732(6) 0.6342(12) 1.0129(12)
H1A H 1.1251 0.6957 1.0226
C4A C 1.0683(7) 0.4434(13) 1.0113(13)
H2A H 1.1191 0.3800 1.0190
O1A O 0.91983(18) 0.0486(17) 1.0799(3)
O2A O 1.11630(17) 0.0505(17) 1.1779(3)
F1A F 0.9051(4) 0.068(4) 1.3476(5)
C2A C 1.1215(3) 0.0449(19) 1.2840(4)
C3A C 1.2170(3) 0.040(2) 1.3991(4)
F2A F 0.8127(6) 0.154(2) 1.1703(9)
C5A C 0.9530(3) 0.036(3) 1.1983(5)
C6A C 1.0436(3) 0.040(3) 1.2964(4)
H3A H 1.0544 0.0387 1.3790
C7A C 0.8756(6) 0.050(5) 1.2292(8)
C8A C 1.2350(4) 0.036(3) 1.5214(5)
H4A H 1.1857 0.0310 1.5353
C9A C 1.2893(4) 0.044(4) 1.3827(6)
H5A H 1.2790 0.0358 1.3006
F3A F 0.8377(10) -0.129(3) 1.1963(14)
C10A C 1.3253(6) 0.041(3) 1.6249(6)
H6A H 1.3362 0.0433 1.7074
C11A C 1.3809(5) 0.061(5) 1.4874(9)
H7A H 1.4300 0.0845 1.4750
C12A C 1.3958(6) 0.041(4) 1.6067(7)
H8A H 1.4562 0.0283 1.6760
Zn1_2 Zn 1.0000 1.04249(17) 1.0000
N2_2 N 1.0000 -0.274(2) 1.0000
loop_
_geom_bond_atom_site_label_1
_geom_bond_atom_site_label_2
_geom_bond_site_symmetry_1
_geom_bond_site_symmetry_2
Zn1 N1 1_555 1_555
N1 C4 1_555 1_555
O1 Zn1 1_555 1_555
O2 Zn1 1_555 1_555
C1 H1 1_555 1_555
F1 C7 1_555 1_555
C2 O2 1_555 1_555
C3 C2 1_555 1_555
C4 C1 1_555 1_555
H2 C4 1_555 1_555
F2 C7 1_555 1_555
C5 O1 1_555 1_555
C6 C2 1_555 1_555
H3 C6 1_555 1_555
N2 C1 1_555 1_555
C7 C5 1_555 1_555
C8 C3 1_555 1_555
H4 C8 1_555 1_555
C9 C3 1_555 1_555
H5 C9 1_555 1_555
F3 C7 1_555 1_555
C10 C8 1_555 1_555
H6 C10 1_555 1_555
C11 C9 1_555 1_555
H7 C11 1_555 1_555
C12 C10 1_555 1_555
H8 C12 1_555 1_555
C1A N2 1_555 1_555
H1A C1A 1_555 1_555
C4A N1 1_555 1_555
H2A C4A 1_555 1_555
O1A Zn1 1_555 1_555
O2A Zn1 1_555 1_555
F1A C7A 1_555 1_555
C2A O2A 1_555 1_555
C3A C2A 1_555 1_555
F2A C7A 1_555 1_555
C5A O1A 1_555 1_555
C6A C2A 1_555 1_555
H3A C6A 1_555 1_555
C7A C5A 1_555 1_555
C8A C3A 1_555 1_555
H4A C8A 1_555 1_555
C9A C3A 1_555 1_555
H5A C9A 1_555 1_555
F3A C7A 1_555 1_555
C10A C8A 1_555 1_555
H6A C10A 1_555 1_555
C11A C9A 1_555 1_555
H7A C11A 1_555 1_555
C12A C10A 1_555 1_555
H8A C12A 1_555 1_555
Zn1_2 N2 1_555 1_555
N2_2 Zn1 1_555 1_555
C5 C6 1_555 1_555
C11 C12 1_555 1_555
C1A C4A 1_555 1_555
C5A C6A 1_555 1_555
C11A C12A 1_555 1_555

#END
