
#######################################################################
#
#                 Cambridge Crystallographic Data Centre
#                                CCDC 
#
#######################################################################
#
# If this CIF has been generated from an entry in the Cambridge 
# Structural Database, then it will include bibliographic, chemical, 
# crystal, experimental, refinement or atomic coordinate data resulting 
# from the CCDC's data processing and validation procedures.
#
#######################################################################

data_GIWBUL
_symmetry_cell_setting           monoclinic
_symmetry_space_group_name_H-M   'C 2/c'
_symmetry_Int_Tables_number      15
_space_group_name_Hall           '-C 2yn'
loop_
_symmetry_equiv_pos_site_id
_symmetry_equiv_pos_as_xyz
1 x,y,z
2 -x,y,1/2-z
3 1/2+x,1/2+y,z
4 1/2-x,1/2+y,1/2-z
5 -x,-y,-z
6 x,-y,1/2+z
7 1/2-x,1/2-y,-z
8 1/2+x,1/2-y,1/2+z
_cell_length_a                   24.259(2)
_cell_length_b                   13.368(4)
_cell_length_c                   7.815(8)
_cell_angle_alpha                90
_cell_angle_beta                 93.623(7)
_cell_angle_gamma                90
_cell_volume                     2529.29
loop_
_atom_site_label
_atom_site_type_symbol
_atom_site_fract_x
_atom_site_fract_y
_atom_site_fract_z
O7 O 0.65504(19) 0.8182(4) -0.1460(6)
H8 H 0.64384(19) 0.7645(4) -0.1013(6)
H9 H 0.65000(19) 0.8136(4) -0.2544(6)
Ag1 Ag 0.500000 0.54017(3) 0.250000
Ag2 Ag 0.500000 0.32458(3) 0.250000
Ag3 Ag 0.550269(13) 0.74763(2) 0.08524(4)
C1 C 0.63898(14) 0.3831(3) -0.0570(5)
O1 O 0.55494(11) 0.5312(2) -0.0067(4)
C2 C 0.60474(16) 0.5598(3) -0.0006(5)
C3 C 0.64803(15) 0.4869(3) -0.0526(5)
C4 C 0.69778(17) 0.5260(3) -0.1042(6)
H1 H 0.70362(17) 0.5963(3) -0.0996(6)
O2 O 0.62064(11) 0.6461(2) 0.0421(4)
C5 C 0.68085(16) 0.3248(3) -0.1180(5)
C6 C 0.73856(17) 0.4651(4) -0.1617(6)
H2 H 0.77225(17) 0.4932(4) -0.1948(6)
O3 O 0.54956(11) 0.3093(2) -0.1115(3)
N1 N 0.67339(15) 0.2162(3) -0.1341(5)
O4 O 0.64253(15) 0.1744(3) -0.0382(5)
C7 C 0.58551(14) 0.3385(3) 0.0014(5)
N2 N 0.52024(16) 0.9043(3) 0.0329(6)
O5 O 0.69885(19) 0.1725(3) -0.2423(6)
C8 C 0.55060(19) 0.9852(3) 0.0765(7)
C9 C 0.4704(2) 0.9196(3) -0.0426(7)
H3 H 0.4482(2) 0.8633(3) -0.0746(7)
C10 C 0.73015(17) 0.3624(4) -0.1712(6)
H4 H 0.75740(17) 0.3192(4) -0.2128(6)
O6 O 0.58132(11) 0.3333(2) 0.1593(3)
C11 C 0.6024(4) 0.9725(6) 0.1459(13)
H5 H 0.6263(4) 0.9485(6) 0.0579(13)
H6 H 0.6165(4) 1.0365(6) 0.1915(13)
H7 H 0.6022(4) 0.9234(6) 0.2390(13)
N2D N 0.47976(16) 1.0957(3) -0.0329(6)
C8D C 0.44940(19) 1.0148(3) -0.0765(7)
C9D C 0.5296(2) 1.0804(3) 0.0426(7)
H3D H 0.5518(2) 1.1367(3) 0.0746(7)
C11D C 0.3976(4) 1.0275(6) -0.1459(13)
H5D H 0.3737(4) 1.0515(6) -0.0579(13)
H6D H 0.3835(4) 0.9635(6) -0.1915(13)
H7D H 0.3978(4) 1.0766(6) -0.2390(13)
Ag3A Ag 0.449731(13) 0.74763(2) 0.41476(4)
C1A C 0.36102(14) 0.3831(3) 0.5570(5)
O1A O 0.44506(11) 0.5312(2) 0.5067(4)
C2A C 0.39526(16) 0.5598(3) 0.5006(5)
C3A C 0.35197(15) 0.4869(3) 0.5526(5)
C4A C 0.30222(17) 0.5260(3) 0.6042(6)
H1A H 0.29638(17) 0.5963(3) 0.5996(6)
O2A O 0.37936(11) 0.6461(2) 0.4579(4)
C5A C 0.31915(16) 0.3248(3) 0.6180(5)
C6A C 0.26144(17) 0.4651(4) 0.6617(6)
H2A H 0.22775(17) 0.4932(4) 0.6948(6)
O3A O 0.45044(11) 0.3093(2) 0.6115(3)
N1A N 0.32661(15) 0.2162(3) 0.6341(5)
O4A O 0.35747(15) 0.1744(3) 0.5382(5)
C7A C 0.41449(14) 0.3385(3) 0.4986(5)
O5A O 0.30115(19) 0.1725(3) 0.7423(6)
C10A C 0.26985(17) 0.3624(4) 0.6712(6)
H4A H 0.24260(17) 0.3192(4) 0.7128(6)
O6A O 0.41868(11) 0.3333(2) 0.3407(3)
Ag1D Ag 0.500000 0.45983(3) -0.250000
Ag1D_2 Ag 0.500000 0.45983(3) 0.750000
Ag2D Ag 0.500000 0.67542(3) -0.250000
Ag2D_2 Ag 0.500000 0.67542(3) 0.750000
Ag3D Ag 0.449731(13) 0.25237(2) -0.08524(4)
Ag3D_2 Ag 0.449731(13) 0.25237(2) 0.91476(4)
Ag3D_3 Ag 0.449731(13) 1.25237(2) -0.08524(4)
Ag3E Ag 0.550269(13) 0.25237(2) -0.41476(4)
Ag3E_2 Ag 0.550269(13) 0.25237(2) 0.58524(4)
O1D O 0.44506(11) 0.4688(2) 0.0067(4)
O1E O 0.55494(11) 0.4688(2) 0.4933(4)
O3D O 0.45044(11) 0.6907(2) 0.1115(3)
O3E O 0.54956(11) 0.6907(2) 0.3885(3)
N2A N 0.47976(16) 0.9043(3) 0.4671(6)
H10? H 0.58651(19) 0.9775(3) 0.1307(7)
loop_
_geom_bond_atom_site_label_1
_geom_bond_atom_site_label_2
_geom_bond_site_symmetry_1
_geom_bond_site_symmetry_2
Ag1 Ag2 1_555 1_555
Ag2 O6 1_555 1_555
Ag3 O2 1_555 1_555
C1 C3 1_555 1_555
O1 Ag1 1_555 1_555
C2 O1 1_555 1_555
C3 C2 1_555 1_555
C4 C3 1_555 1_555
H1 C4 1_555 1_555
O2 C2 1_555 1_555
C5 C1 1_555 1_555
C6 C4 1_555 1_555
H2 C6 1_555 1_555
O3 C7 1_555 1_555
N1 C5 1_555 1_555
O4 N1 1_555 1_555
C7 C1 1_555 1_555
N2 Ag3 1_555 1_555
O5 N1 1_555 1_555
C8 N2 1_555 1_555
C9 N2 1_555 1_555
H3 C9 1_555 1_555
C10 C5 1_555 1_555
H4 C10 1_555 1_555
O6 C7 1_555 1_555
C11 C8 1_555 1_555
H5 C11 1_555 1_555
H6 C11 1_555 1_555
H7 C11 1_555 1_555
O7 H8 1_555 1_555
H9 O7 1_555 1_555
N2D C8D 1_555 1_555
C8D C9 1_555 1_555
C9D C8 1_555 1_555
H3D C9D 1_555 1_555
C11D C8D 1_555 1_555
H5D C11D 1_555 1_555
H6D C11D 1_555 1_555
H7D C11D 1_555 1_555
Ag3A O2A 1_555 1_555
C1A C3A 1_555 1_555
O1A Ag1 1_555 1_555
C2A O1A 1_555 1_555
C3A C2A 1_555 1_555
C4A C3A 1_555 1_555
H1A C4A 1_555 1_555
O2A C2A 1_555 1_555
C5A C1A 1_555 1_555
C6A C4A 1_555 1_555
H2A C6A 1_555 1_555
O3A C7A 1_555 1_555
N1A C5A 1_555 1_555
O4A N1A 1_555 1_555
C7A C1A 1_555 1_555
O5A N1A 1_555 1_555
C10A C5A 1_555 1_555
H4A C10A 1_555 1_555
O6A Ag2 1_555 1_555
Ag1D O1 1_555 1_555
Ag1D_2 O1A 1_555 1_555
Ag2D Ag3 1_555 1_555
Ag2D_2 Ag3A 1_555 1_555
Ag3D Ag2 1_555 1_555
Ag3D_2 O3A 1_555 1_555
Ag3D_3 N2D 1_555 1_555
Ag3E O3 1_555 1_555
Ag3E_2 Ag2 1_555 1_555
O1D Ag1 1_555 1_555
O1E Ag1 1_555 1_555
O3D Ag1 1_555 1_555
O3E Ag1 1_555 1_555
N2A Ag3A 1_555 1_555
Ag3 O3D 1_555 1_555
Ag3 O3E 1_555 1_555
C6 C10 1_555 1_555
O3 Ag1D 1_555 1_555
O3 Ag3D 1_555 1_555
N2D C9D 1_555 1_555
Ag3A O3D 1_555 1_555
Ag3A O3E 1_555 1_555
C6A C10A 1_555 1_555
O3A Ag1D_2 1_555 1_555
O3A Ag3E_2 1_555 1_555
C7A O6A 1_555 1_555
Ag1D Ag2D 1_555 1_555
Ag1D O1D 1_555 1_555
Ag1D_2 Ag2D_2 1_555 1_555
Ag1D_2 O1E 1_555 1_555

#END
