
#######################################################################
#
#                 Cambridge Crystallographic Data Centre
#                                CCDC 
#
#######################################################################
#
# If this CIF has been generated from an entry in the Cambridge 
# Structural Database, then it will include bibliographic, chemical, 
# crystal, experimental, refinement or atomic coordinate data resulting 
# from the CCDC's data processing and validation procedures.
#
#######################################################################

data_GIWBEV
_symmetry_cell_setting           triclinic
_symmetry_space_group_name_H-M   'P -1'
_symmetry_Int_Tables_number      2
_space_group_name_Hall           '-P 1'
loop_
_symmetry_equiv_pos_site_id
_symmetry_equiv_pos_as_xyz
1 x,y,z
2 -x,-y,-z
_cell_length_a                   8.0350(7)
_cell_length_b                   11.8365(9)
_cell_length_c                   14.7428(10)
_cell_angle_alpha                111.649(3)
_cell_angle_beta                 107.957(3)
_cell_angle_gamma                92.687(3)
_cell_volume                     1219.12
loop_
_atom_site_label
_atom_site_type_symbol
_atom_site_fract_x
_atom_site_fract_y
_atom_site_fract_z
Ag1 Ag -0.17533(6) -0.05301(4) 0.42322(3)
Ag2 Ag -0.39416(7) 0.13112(4) 0.60736(3)
Ag3 Ag -0.13901(6) 0.21777(4) 0.48715(3)
Ag4 Ag -0.43012(7) 0.36974(4) 0.61143(3)
C1 C 0.1740(9) 0.4303(5) 0.5332(4)
H1 H 0.1900 0.4421 0.6029
N1 N 0.0469(7) 0.3379(4) 0.4533(4)
O1 O -0.3663(7) 0.2070(4) 0.2833(4)
O2 O -0.3675(8) 0.0626(5) 0.1403(4)
N2 N 0.2693(7) 0.4924(4) 0.4181(3)
N3 N -0.4374(8) 0.1088(5) 0.2064(4)
C2 C 0.1487(8) 0.3979(5) 0.3387(4)
C3 C 0.0371(9) 0.3221(5) 0.3578(4)
H2 H -0.0492 0.2569 0.3001
C4 C 0.2788(8) 0.5064(5) 0.5149(4)
H3 H 0.3630 0.5726 0.5729
O3 O 0.4519(6) 0.1848(3) 0.7130(3)
O4 O -0.4195(5) 0.1045(3) 0.4316(3)
O5 O 0.4791(6) 0.3857(3) 0.7427(3)
O6 O -0.7863(6) 0.0220(3) 0.4252(3)
O7 O -0.5823(6) 0.2530(3) 0.4312(3)
O8 O 0.1033(6) 0.2583(4) 0.6383(3)
O9 O -1.0624(6) 0.0251(4) 0.3307(3)
O10 O 0.7158(7) 0.3257(5) 0.9152(4)
C5 C -0.5457(8) 0.1504(5) 0.3892(4)
C6 C -0.6638(8) 0.0716(5) 0.2766(4)
C7 C -0.6141(8) 0.0494(5) 0.1918(4)
C8 C -0.8366(8) 0.0163(5) 0.2575(4)
C9 C 0.1706(9) 0.3262(5) 0.8213(4)
O11 O -0.1193(7) 0.3029(4) 0.7002(4)
C10 C -0.9034(8) 0.0236(4) 0.3442(4)
C11 C 0.0390(8) 0.2940(5) 0.7120(4)
C12 C 0.4361(8) 0.2952(5) 0.7586(4)
C13 C -0.7220(9) -0.0233(6) 0.0896(4)
H4 H -0.6803 -0.0368 0.0334
C14 C -0.8912(10) -0.0751(6) 0.0728(4)
H5 H -0.9681 -0.1251 0.0038
N4 N 0.6361(8) 0.3257(5) 0.9739(4)
C15 C 0.3785(10) 0.3701(5) 1.0234(4)
H6 H 0.4516 0.3852 1.0925
O12 O 0.7083(8) 0.3174(6) 1.0575(4)
C16 C 0.3496(9) 0.3188(5) 0.8418(4)
C17 C -0.9519(8) -0.0552(5) 0.1556(4)
H7 H -1.0700 -0.0899 0.1430
C18 C 0.1407(10) 0.3738(6) 0.2304(5)
H8 H 0.1759 0.4519 0.2267
H9 H 0.0190 0.3360 0.1817
H10 H 0.2218 0.3175 0.2117
C19 C 0.2036(10) 0.3809(6) 1.0013(5)
H11 H 0.1542 0.4033 1.0549
C20 C 0.4482(9) 0.3370(5) 0.9445(4)
C21 C 0.0987(9) 0.3593(5) 0.9007(5)
H12 H -0.0231 0.3668 0.8852
Ag1_2 Ag -1.17533(6) -0.05301(4) 0.42322(3)
Ag1A Ag -0.82467(6) 0.05301(4) 0.57678(3)
Ag1A_2 Ag 0.17533(6) 0.05301(4) 0.57678(3)
Ag2_2 Ag 0.60584(7) 0.13112(4) 0.60736(3)
Ag2A Ag -0.60584(7) -0.13112(4) 0.39264(3)
Ag4_2 Ag 0.56988(7) 0.36974(4) 0.61143(3)
Ag4A Ag 0.43012(7) 0.63026(4) 0.38857(3)
N2A N -0.2693(7) 0.5076(4) 0.5819(3)
O3_2 O -0.5481(6) 0.1848(3) 0.7130(3)
O3A O -0.4519(6) -0.1848(3) 0.2870(3)
O5_2 O -0.5209(6) 0.3857(3) 0.7427(3)
O6A O -0.2137(6) -0.0220(3) 0.5748(3)
O8A O -0.1033(6) -0.2583(4) 0.3617(3)
O9_2 O -0.0624(6) 0.0251(4) 0.3307(3)
loop_
_geom_bond_atom_site_label_1
_geom_bond_atom_site_label_2
_geom_bond_site_symmetry_1
_geom_bond_site_symmetry_2
Ag1 Ag3 1_555 1_555
Ag2 Ag4 1_555 1_555
Ag3 N1 1_555 1_555
Ag4 O7 1_555 1_555
C1 H1 1_555 1_555
N1 C1 1_555 1_555
O1 N3 1_555 1_555
O2 N3 1_555 1_555
N2 C2 1_555 1_555
N3 C7 1_555 1_555
C2 C3 1_555 1_555
C3 N1 1_555 1_555
H2 C3 1_555 1_555
C4 C1 1_555 1_555
H3 C4 1_555 1_555
O3 C12 1_555 1_555
O4 Ag2 1_555 1_555
O5 C12 1_555 1_555
O6 C10 1_555 1_555
O7 C5 1_555 1_555
O8 Ag3 1_555 1_555
O9 C10 1_555 1_555
O10 N4 1_555 1_555
C5 O4 1_555 1_555
C6 C5 1_555 1_555
C7 C6 1_555 1_555
C8 C6 1_555 1_555
C9 C11 1_555 1_555
O11 Ag2 1_555 1_555
C10 C8 1_555 1_555
C11 O8 1_555 1_555
C12 C16 1_555 1_555
C13 C7 1_555 1_555
H4 C13 1_555 1_555
C14 C13 1_555 1_555
H5 C14 1_555 1_555
N4 O12 1_555 1_555
C15 H6 1_555 1_555
C16 C9 1_555 1_555
C17 C8 1_555 1_555
H7 C17 1_555 1_555
C18 C2 1_555 1_555
H8 C18 1_555 1_555
H9 C18 1_555 1_555
H10 C18 1_555 1_555
C19 C15 1_555 1_555
H11 C19 1_555 1_555
C20 N4 1_555 1_555
C21 C9 1_555 1_555
H12 C21 1_555 1_555
Ag1_2 O9 1_555 1_555
Ag1A O6 1_555 1_555
Ag1A_2 Ag1 1_555 1_555
Ag2_2 O3 1_555 1_555
Ag2A O6 1_555 1_555
Ag4_2 O5 1_555 1_555
Ag4A N2 1_555 1_555
N2A Ag4 1_555 1_555
O3_2 Ag2 1_555 1_555
O3A Ag1 1_555 1_555
O5_2 Ag4 1_555 1_555
O6A Ag1 1_555 1_555
O8A Ag1 1_555 1_555
O9_2 Ag1 1_555 1_555
Ag2 O6A 1_555 1_555
Ag3 O4 1_555 1_555
N2 C4 1_555 1_555
O3 Ag1A_2 1_555 1_555
O8 Ag1A_2 1_555 1_555
O11 C11 1_555 1_555
C14 C17 1_555 1_555
C15 C20 1_555 1_555
C16 C20 1_555 1_555
C19 C21 1_555 1_555
Ag1_2 Ag1A 1_555 1_555
Ag1A O3_2 1_555 1_555
Ag2_2 Ag4_2 1_555 1_555
Ag2A O3A 1_555 1_555

#END
