
#######################################################################
#
#                 Cambridge Crystallographic Data Centre
#                                CCDC 
#
#######################################################################
#
# If this CIF has been generated from an entry in the Cambridge 
# Structural Database, then it will include bibliographic, chemical, 
# crystal, experimental, refinement or atomic coordinate data resulting 
# from the CCDC's data processing and validation procedures.
#
#######################################################################

data_GIWCIZ
_symmetry_cell_setting           monoclinic
_symmetry_space_group_name_H-M   'C 2/c'
_symmetry_Int_Tables_number      15
_space_group_name_Hall           '-C 2yn'
loop_
_symmetry_equiv_pos_site_id
_symmetry_equiv_pos_as_xyz
1 x,y,z
2 -x,y,1/2-z
3 1/2+x,1/2+y,z
4 1/2-x,1/2+y,1/2-z
5 -x,-y,-z
6 x,-y,1/2+z
7 1/2-x,1/2-y,-z
8 1/2+x,1/2-y,1/2+z
_cell_length_a                   33.3744(17)
_cell_length_b                   66.686(3)
_cell_length_c                   14.9678(8)
_cell_angle_alpha                90
_cell_angle_beta                 110.0580(10)
_cell_angle_gamma                90
_cell_volume                     31291.9
loop_
_atom_site_label
_atom_site_type_symbol
_atom_site_fract_x
_atom_site_fract_y
_atom_site_fract_z
C131 C 0.80480(19) 0.61891(10) 1.0739(4)
F1 F 0.79974(11) 0.63658(6) 1.0338(3)
F2 F 0.78836(14) 0.60596(7) 1.0048(3)
F3 F 0.84662(11) 0.61603(5) 1.1105(3)
O1 O 0.78882(9) 0.59749(4) 1.1987(2)
O2 O 0.80051(10) 0.63311(4) 1.2269(2)
O3 O 0.73529(9) 0.62121(5) 1.1094(2)
S1 S 0.77960(4) 0.617451(16) 1.16234(8)
C132 C 0.63969(18) 0.87140(8) 0.1609(4)
F4 F 0.66521(11) 0.85710(5) 0.1549(2)
F5 F 0.66097(12) 0.88832(5) 0.1728(3)
F6 F 0.60840(12) 0.87280(6) 0.0776(2)
O4 O 0.59076(11) 0.88429(5) 0.2500(3)
O5 O 0.65651(12) 0.86651(6) 0.3398(2)
O6 O 0.59672(12) 0.84849(5) 0.2326(2)
S2 S 0.61821(4) 0.867341(19) 0.25659(9)
C133 C 0.4953(3) 0.37128(18) 0.8803(8)
F7 F 0.53763(13) 0.37718(8) 0.9226(5)
F8 F 0.47780(16) 0.38701(8) 0.8247(4)
F9 F 0.48437(16) 0.35283(6) 0.8556(5)
O7 O 0.43035(10) 0.37017(5) 0.9413(2)
O8 O 0.49852(10) 0.35772(4) 1.0495(2)
O9 O 0.48878(15) 0.39484(7) 1.0086(4)
S3 S 0.47473(4) 0.37014(2) 0.97395(9)
Ag1 Ag 0.653352(11) 0.624264(4) 1.08851(2)
Ag2 Ag 0.829610(13) 0.371240(5) 0.97891(3)
Ag3 Ag 0.5000 0.359508(6) 1.2500
Ag4 Ag 0.5000 0.117403(7) 1.7500
C1 C 0.59996(13) 0.49241(6) 0.9132(3)
H1 H 0.5942 0.4794 0.8861
C2 C 0.58998(13) 0.51025(6) 0.8595(3)
H2 H 0.5758 0.5114 0.7929
C3 C 0.60502(12) 0.52570(6) 0.9236(3)
H3 H 0.6039 0.5396 0.9088
C4 C 0.62297(13) 0.51690(5) 1.0180(4)
C5 C 0.64023(13) 0.52636(5) 1.1044(3)
C6 C 0.65629(13) 0.51755(6) 1.1943(3)
C7 C 0.67151(14) 0.52735(6) 1.2850(3)
H4 H 0.6724 0.5414 1.2961
C8 C 0.68423(15) 0.51286(6) 1.3516(4)
H5 H 0.6955 0.5148 1.4185
C9 C 0.67767(14) 0.49427(6) 1.3036(3)
H6 H 0.6845 0.4816 1.3339
C10 C 0.64164(13) 0.54928(5) 1.1013(3)
C11 C 0.60577(15) 0.56068(6) 1.0761(4)
H7 H 0.5785 0.5546 1.0603
C12 C 0.60954(15) 0.58186(6) 1.0738(4)
H8 H 0.5844 0.5898 1.0563
C13 C 0.68115(16) 0.57957(7) 1.1201(5)
H9 H 0.7082 0.5858 1.1351
C14 C 0.67948(17) 0.55871(7) 1.1253(5)
H10 H 0.7052 0.5512 1.1460
C15 C 0.59205(14) 0.44223(6) 0.9745(3)
H11 H 0.5659 0.4477 0.9755
C16 C 0.59555(15) 0.42327(6) 0.9318(3)
H12 H 0.5731 0.4143 0.8996
C17 C 0.63747(15) 0.42093(6) 0.9474(3)
H13 H 0.6502 0.4096 0.9296
C18 C 0.65960(14) 0.43826(6) 0.9946(3)
C19 C 0.70305(14) 0.44269(6) 1.0192(3)
C20 C 0.72198(14) 0.46060(6) 1.0585(3)
C21 C 0.76461(14) 0.46703(7) 1.0730(4)
H14 H 0.7860 0.4594 1.0603
C22 C 0.76929(15) 0.48631(7) 1.1090(4)
H15 H 0.7941 0.4945 1.1250
C23 C 0.73002(13) 0.49128(6) 1.1168(3)
H16 H 0.7241 0.5037 1.1403
C24 C 0.73072(14) 0.42643(6) 1.0043(3)
C25 C 0.74569(19) 0.42649(8) 0.9337(4)
H17 H 0.7409 0.4376 0.8917
C26 C 0.7692(2) 0.40959(9) 0.9215(5)
H18 H 0.7759 0.4089 0.8648
C27 C 0.76828(18) 0.39593(8) 1.0570(4)
H19 H 0.7765 0.3853 1.1021
C28 C 0.74282(17) 0.41122(7) 1.0726(4)
H20 H 0.7342 0.4113 1.1268
C29 C 0.71482(14) 0.44933(6) 1.2543(3)
H21 H 0.7373 0.4574 1.2490
C30 C 0.72008(18) 0.43111(7) 1.3055(3)
H22 H 0.7466 0.4250 1.3404
C31 C 0.68087(19) 0.42379(6) 1.2964(3)
H23 H 0.6748 0.4117 1.3230
C32 C 0.64954(17) 0.43823(6) 1.2373(3)
C33 C 0.60558(16) 0.43756(6) 1.2142(3)
C34 C 0.57675(16) 0.45231(6) 1.1693(3)
C35 C 0.53202(16) 0.45318(7) 1.1496(4)
H24 H 0.5152 0.4432 1.1649
C36 C 0.51718(17) 0.47103(7) 1.1044(4)
H25 H 0.4887 0.4759 1.0856
C37 C 0.55190(14) 0.48069(6) 1.0917(4)
H26 H 0.5503 0.4932 1.0600
C38 C 0.58734(17) 0.41853(7) 1.2380(4)
C39 C 0.58599(15) 0.40212(6) 1.1834(4)
H27 H 0.5973 0.4026 1.1333
C40 C 0.56797(15) 0.38475(7) 1.2016(4)
H28 H 0.5668 0.3735 1.1619
C41 C 0.5405(3) 0.40270(13) 1.3112(7)
H29 H 0.5219 0.4027 1.3470
C42 C 0.5588(3) 0.41995(11) 1.2923(6)
H30 H 0.5528 0.4326 1.3144
C45 C 0.71228(11) 0.73408(6) 0.8000(3)
H33 H 0.7237 0.7456 0.7803
C46 C 0.72231(12) 0.72795(6) 0.8949(3)
H34 H 0.7406 0.7347 0.9494
C47 C 0.70087(11) 0.71040(6) 0.8944(2)
H35 H 0.7019 0.7025 0.9479
C48 C 0.67644(11) 0.70645(5) 0.7963(2)
C49 C 0.64912(12) 0.69045(5) 0.7624(3)
C50 C 0.62323(11) 0.68730(5) 0.6674(3)
C51 C 0.59389(12) 0.67094(5) 0.6301(3)
H36 H 0.5890 0.6598 0.6647
C52 C 0.57459(12) 0.67463(6) 0.5355(3)
H37 H 0.5533 0.6666 0.4914
C53 C 0.59206(11) 0.69254(5) 0.5153(3)
H38 H 0.5841 0.6985 0.4540
C54 C 0.64776(12) 0.67420(5) 0.8334(2)
C55 C 0.61376(12) 0.67224(5) 0.8632(3)
H39 H 0.5899 0.6810 0.8400
C56 C 0.61450(13) 0.65730(5) 0.9278(3)
H40 H 0.5908 0.6561 0.9489
C57 C 0.67952(14) 0.64650(6) 0.9306(3)
H41 H 0.7028 0.6374 0.9535
C58 C 0.68103(14) 0.66101(6) 0.8667(3)
H42 H 0.7048 0.6619 0.8458
C59 C 0.75262(10) 0.73983(6) 0.6174(2)
H43 H 0.7652 0.7269 0.6260
C60 C 0.77504(12) 0.75759(6) 0.6200(2)
H44 H 0.8047 0.7587 0.6307
C61 C 0.74658(11) 0.77310(5) 0.6043(2)
H45 H 0.7526 0.7870 0.6018
C62 C 0.70575(11) 0.76429(5) 0.5923(2)
C63 C 0.66775(11) 0.77399(5) 0.5792(2)
C64 C 0.62929(11) 0.76588(5) 0.5759(2)
C65 C 0.58844(11) 0.77520(5) 0.5542(2)
H46 H 0.5825 0.7891 0.5424
C66 C 0.55956(11) 0.76070(5) 0.5535(3)
H47 H 0.5300 0.7626 0.5421
C67 C 0.58197(11) 0.74247(5) 0.5730(2)
H48 H 0.5691 0.7299 0.5760
C68 C 0.66779(11) 0.79702(5) 0.5669(3)
C69 C 0.67029(12) 0.80506(6) 0.4833(3)
H49 H 0.6718 0.7966 0.4337
C70 C 0.67050(13) 0.82554(6) 0.4739(3)
H50 H 0.6713 0.8312 0.4163
C71 C 0.66780(13) 0.82994(6) 0.6234(3)
H51 H 0.6677 0.8387 0.6732
C72 C 0.66610(12) 0.80951(5) 0.6364(3)
H52 H 0.6638 0.8043 0.6935
C73 C 0.62094(11) 0.73363(6) 0.3916(2)
H53 H 0.6115 0.7459 0.4098
C74 C 0.60981(12) 0.72687(6) 0.2976(3)
H54 H 0.5920 0.7336 0.2423
C75 C 0.62940(11) 0.70873(6) 0.3008(3)
H55 H 0.6277 0.7004 0.2480
C76 C 0.65296(11) 0.70459(5) 0.3988(3)
C77 C 0.67778(11) 0.68758(5) 0.4358(3)
C78 C 0.70423(11) 0.68483(5) 0.5316(3)
C79 C 0.73140(12) 0.66829(6) 0.5707(3)
H56 H 0.7343 0.6565 0.5379
C80 C 0.75236(12) 0.67246(5) 0.6638(3)
H57 H 0.7733 0.6644 0.7083
C81 C 0.73681(11) 0.69117(5) 0.6813(3)
H58 H 0.7456 0.6975 0.7419
C82 C 0.67605(13) 0.67100(6) 0.3687(3)
C83 C 0.71107(12) 0.66430(5) 0.3472(3)
H59 H 0.7384 0.6700 0.3783
C84 C 0.70594(14) 0.64922(6) 0.2798(3)
H60 H 0.7303 0.6448 0.2661
C85 C 0.63488(15) 0.64688(7) 0.2558(3)
H61 H 0.6080 0.6408 0.2239
C86 C 0.63703(14) 0.66155(7) 0.3218(3)
H62 H 0.6122 0.6652 0.3355
C87 C 0.54115(11) 0.22151(5) 1.4561(2)
H63 H 0.5534 0.2333 1.4410
C88 C 0.54946(12) 0.21440(6) 1.5495(3)
H64 H 0.5674 0.2205 1.6067
C89 C 0.52680(11) 0.19717(6) 1.5415(3)
H65 H 0.5262 0.1887 1.5923
C90 C 0.50415(11) 0.19410(5) 1.4431(2)
C91 C 0.47713(12) 0.17819(6) 1.4023(3)
C92 C 0.45355(12) 0.17523(5) 1.3077(3)
C93 C 0.42360(13) 0.15975(6) 1.2660(3)
H66 H 0.4165 0.1488 1.2986
C94 C 0.40693(13) 0.16351(6) 1.1703(3)
H67 H 0.3858 0.1558 1.1241
C95 C 0.42682(11) 0.18076(5) 1.1539(3)
H68 H 0.4214 0.1865 1.0928
C96 C 0.47539(13) 0.16205(5) 1.4710(3)
C97 C 0.44622(14) 0.16224(6) 1.5172(3)
H69 H 0.4240 0.1719 1.5016
C98 C 0.45001(15) 0.14790(7) 1.5876(3)
H70 H 0.4296 0.1480 1.6188
C99 C 0.50714(16) 0.13368(6) 1.5659(3)
H71 H 0.5284 0.1235 1.5826
C100 C 0.50621(16) 0.14703(6) 1.4931(3)
H72 H 0.5259 0.1459 1.4601
C101 C 0.41317(11) 0.22975(5) 1.2127(2)
H73 H 0.4004 0.2169 1.2099
C102 C 0.39029(12) 0.24787(5) 1.1946(3)
H74 H 0.3603 0.2494 1.1774
C103 C 0.41979(11) 0.26284(5) 1.2065(2)
H75 H 0.4141 0.2768 1.1996
C104 C 0.46088(10) 0.25354(5) 1.2314(2)
C105 C 0.5000 0.26261(7) 1.2500
C106 C 0.5000 0.28499(7) 1.2500
C107 C 0.49574(11) 0.29584(5) 1.3256(2)
H76 H 0.4923 0.2891 1.3784
C108 C 0.49661(11) 0.31646(5) 1.3232(3)
H77 H 0.4947 0.3236 1.3764
C109 C 1.06092(17) 0.43792(7) 0.8843(5)
H78 H 1.0845 0.4440 0.8730
C110 C 1.06397(17) 0.42035(8) 0.9373(5)
H79 H 1.0888 0.4126 0.9677
C111 C 1.02332(18) 0.41687(7) 0.9356(5)
H80 H 1.0144 0.4058 0.9642
C112 C 0.99693(16) 0.43252(6) 0.8837(5)
C113 C 0.95334(16) 0.43523(6) 0.8683(4)
C114 C 0.92835(16) 0.45134(7) 0.8178(5)
C115 C 0.88469(17) 0.45505(7) 0.8036(5)
H81 H 0.8669 0.4470 0.8269
C116 C 0.87281(17) 0.47192(7) 0.7514(4)
H82 H 0.8454 0.4780 0.7305
C117 C 0.90934(18) 0.47857(7) 0.7346(5)
H83 H 0.9099 0.4903 0.6991
C118 C 0.93074(14) 0.41958(6) 0.9033(4)
C119 C 0.93328(18) 0.41743(7) 0.9961(4)
H84 H 0.9511 0.4261 1.0436
C120 C 0.90978(16) 0.40260(6) 1.0207(4)
H85 H 0.9119 0.4015 1.0854
C121 C 0.88287(15) 0.39148(7) 0.8691(4)
H86 H 0.8656 0.3821 0.8244
C122 C 0.90425(16) 0.40566(7) 0.8352(4)
H87 H 0.9016 0.4062 0.7700
C123 C 0.95907(19) 0.48669(8) 0.5567(5)
H88 H 0.9526 0.4738 0.5289
C124 C 0.94892(19) 0.50505(7) 0.5041(5)
H89 H 0.9354 0.5067 0.4374
C125 C 0.96317(17) 0.51964(7) 0.5715(5)
H90 H 0.9606 0.5337 0.5597
C126 C 0.98226(16) 0.51066(7) 0.6614(5)
C127 C 1.0000 0.51983(10) 0.7500
C128 C 1.0000 0.54227(10) 0.7500
C129 C 1.02691(19) 0.55284(7) 0.7133(5)
H91 H 1.0452 0.5460 0.6869
C130 C 1.02625(19) 0.57405(7) 0.7166(4)
H92 H 1.0452 0.5814 0.6941
Ga1 Ga 0.644626(15) 0.474728(6) 1.10869(4)
Ga2 Ga 0.665862(12) 0.722289(6) 0.59632(3)
Ga3 Ga 0.5000 0.210611(7) 1.2500
Ga4 Ga 1.0000 0.467810(11) 0.7500
N1 N 0.61863(10) 0.49583(4) 1.0071(3)
N2 N 0.66025(10) 0.49699(4) 1.2081(3)
N3 N 0.64700(11) 0.59082(4) 1.0952(3)
N4 N 0.62947(11) 0.45119(4) 1.0122(3)
N5 N 0.70155(10) 0.47624(4) 1.0870(2)
N6 N 0.78198(12) 0.39528(5) 0.9812(3)
N7 N 0.67206(12) 0.45343(4) 1.2133(3)
N8 N 0.58878(12) 0.46984(5) 1.1309(3)
N9 N 0.55266(17) 0.38283(6) 1.2689(3)
N10 N 0.68404(9) 0.72125(4) 0.7401(2)
N11 N 0.62111(9) 0.70013(4) 0.5926(2)
N12 N 0.64701(11) 0.64456(5) 0.9619(2)
N13 N 0.71100(8) 0.74332(4) 0.6011(2)
N14 N 0.62377(9) 0.74487(4) 0.5871(2)
N15 N 0.83041(10) 0.33761(5) 0.9568(3)
N16 N 0.64668(9) 0.72053(4) 0.4527(2)
N17 N 0.70823(9) 0.69901(4) 0.6026(2)
N18 N 0.66856(11) 0.64070(5) 1.2338(2)
N19 N 0.51417(8) 0.20964(4) 1.39200(19)
N20 N 0.45476(9) 0.18828(4) 1.2349(2)
N21 N 0.47998(13) 0.13434(5) 1.6130(2)
N22 N 0.45479(8) 0.23273(4) 1.23414(19)
N23 N 0.5000 0.32689(6) 1.2500
N24 N 1.02199(13) 0.44521(5) 0.8519(4)
N25 N 0.94365(14) 0.46670(5) 0.7738(4)
N26 N 0.88425(12) 0.38974(5) 0.9575(3)
N27 N 0.97853(14) 0.48987(5) 0.6485(4)
N28 N 0.5000 0.08398(8) 1.7500
C70C C 0.82950(13) 0.32554(6) 1.0261(3)
C71C C 0.83220(13) 0.32994(6) 0.8766(3)
C84_2 C 0.70594(14) 0.64922(6) 1.2798(3)
C85_2 C 0.63488(15) 0.64688(7) 1.2558(3)
C104A C 0.53912(10) 0.25354(5) 1.2686(2)
C107A C 0.50426(11) 0.29584(5) 1.1744(2)
C108A C 0.50339(11) 0.31646(5) 1.1768(3)
C126A C 1.01774(16) 0.51066(7) 0.8386(5)
C129A C 0.97309(19) 0.55284(7) 0.7867(5)
C130C C 0.47375(19) 0.07405(7) 1.7834(4)
C130B C 0.52625(19) 0.07405(7) 1.7166(4)
N9A N 0.44734(17) 0.38283(6) 1.2311(3)
N15C N 0.66959(10) 0.83761(5) 0.5432(3)
N18_2 N 0.66856(11) 0.64070(5) 0.2338(2)
N19A N 0.48583(8) 0.20964(4) 1.10800(19)
N20A N 0.54524(9) 0.18828(4) 1.2651(2)
N21A N 0.52002(13) 0.13434(5) 1.8870(2)
N22A N 0.54521(8) 0.23273(4) 1.26586(19)
N24A N 0.97801(13) 0.44521(5) 0.6481(4)
N25A N 1.05635(14) 0.46670(5) 0.7262(4)
N27A N 1.02147(14) 0.48987(5) 0.8515(4)
N28B N 1.0000 0.58398(8) 0.7500
C43? C 0.5701(4) 0.39444(13) 1.3343(8)
H31? H 0.5719 0.3903 1.3963
C44? C 0.5876(3) 0.41311(13) 1.3266(7)
H32? H 0.5991 0.4216 1.3801
N29? N 0.5000 0.47817(17) 0.7500
C134? C 0.4846(3) 0.47314(15) 0.7971(7)
loop_
_geom_bond_atom_site_label_1
_geom_bond_atom_site_label_2
_geom_bond_site_symmetry_1
_geom_bond_site_symmetry_2
Ag1 N3 1_555 1_555
Ag2 N6 1_555 1_555
Ag3 N9 1_555 1_555
Ag4 N21 1_555 1_555
C1 H1 1_555 1_555
C2 C1 1_555 1_555
H2 C2 1_555 1_555
C3 C2 1_555 1_555
H3 C3 1_555 1_555
C4 C3 1_555 1_555
C5 C4 1_555 1_555
C6 C5 1_555 1_555
C7 C6 1_555 1_555
H4 C7 1_555 1_555
C8 C7 1_555 1_555
H5 C8 1_555 1_555
C9 C8 1_555 1_555
H6 C9 1_555 1_555
C10 C5 1_555 1_555
C11 C10 1_555 1_555
H7 C11 1_555 1_555
C12 C11 1_555 1_555
H8 C12 1_555 1_555
C13 H9 1_555 1_555
C14 C10 1_555 1_555
H10 C14 1_555 1_555
C15 H11 1_555 1_555
C16 C15 1_555 1_555
H12 C16 1_555 1_555
C17 C16 1_555 1_555
H13 C17 1_555 1_555
C18 C17 1_555 1_555
C19 C18 1_555 1_555
C20 C19 1_555 1_555
C21 C20 1_555 1_555
H14 C21 1_555 1_555
C22 C21 1_555 1_555
H15 C22 1_555 1_555
C23 C22 1_555 1_555
H16 C23 1_555 1_555
C24 C19 1_555 1_555
C25 C24 1_555 1_555
H17 C25 1_555 1_555
C26 C25 1_555 1_555
H18 C26 1_555 1_555
C27 H19 1_555 1_555
C28 C24 1_555 1_555
H20 C28 1_555 1_555
C29 H21 1_555 1_555
C30 C29 1_555 1_555
H22 C30 1_555 1_555
C31 C30 1_555 1_555
H23 C31 1_555 1_555
C32 C31 1_555 1_555
C33 C32 1_555 1_555
C34 C33 1_555 1_555
C35 C34 1_555 1_555
H24 C35 1_555 1_555
C36 C35 1_555 1_555
H25 C36 1_555 1_555
C37 C36 1_555 1_555
H26 C37 1_555 1_555
C38 C33 1_555 1_555
C39 C38 1_555 1_555
H27 C39 1_555 1_555
C40 C39 1_555 1_555
H28 C40 1_555 1_555
C41 H29 1_555 1_555
C42 C38 1_555 1_555
H30 C42 1_555 1_555
C45 H33 1_555 1_555
C46 C45 1_555 1_555
H34 C46 1_555 1_555
C47 C46 1_555 1_555
H35 C47 1_555 1_555
C48 C47 1_555 1_555
C49 C48 1_555 1_555
C50 C49 1_555 1_555
C51 C50 1_555 1_555
H36 C51 1_555 1_555
C52 C51 1_555 1_555
H37 C52 1_555 1_555
C53 C52 1_555 1_555
H38 C53 1_555 1_555
C54 C49 1_555 1_555
C55 C54 1_555 1_555
H39 C55 1_555 1_555
C56 C55 1_555 1_555
H40 C56 1_555 1_555
C57 H41 1_555 1_555
C58 C54 1_555 1_555
H42 C58 1_555 1_555
C59 H43 1_555 1_555
C60 C59 1_555 1_555
H44 C60 1_555 1_555
C61 C60 1_555 1_555
H45 C61 1_555 1_555
C62 C61 1_555 1_555
C63 C62 1_555 1_555
C64 C63 1_555 1_555
C65 C64 1_555 1_555
H46 C65 1_555 1_555
C66 C65 1_555 1_555
H47 C66 1_555 1_555
C67 C66 1_555 1_555
H48 C67 1_555 1_555
C68 C63 1_555 1_555
C69 C68 1_555 1_555
H49 C69 1_555 1_555
C70 C69 1_555 1_555
H50 C70 1_555 1_555
C71 H51 1_555 1_555
C72 C68 1_555 1_555
H52 C72 1_555 1_555
C73 H53 1_555 1_555
C74 C73 1_555 1_555
H54 C74 1_555 1_555
C75 C74 1_555 1_555
H55 C75 1_555 1_555
C76 C75 1_555 1_555
C77 C76 1_555 1_555
C78 C77 1_555 1_555
C79 C78 1_555 1_555
H56 C79 1_555 1_555
C80 C79 1_555 1_555
H57 C80 1_555 1_555
C81 C80 1_555 1_555
H58 C81 1_555 1_555
C82 C77 1_555 1_555
C83 C82 1_555 1_555
H59 C83 1_555 1_555
C84 C83 1_555 1_555
H60 C84 1_555 1_555
C85 H61 1_555 1_555
C86 C82 1_555 1_555
H62 C86 1_555 1_555
C87 H63 1_555 1_555
C88 C87 1_555 1_555
H64 C88 1_555 1_555
C89 C88 1_555 1_555
H65 C89 1_555 1_555
C90 C89 1_555 1_555
C91 C90 1_555 1_555
C92 C91 1_555 1_555
C93 C92 1_555 1_555
H66 C93 1_555 1_555
C94 C93 1_555 1_555
H67 C94 1_555 1_555
C95 C94 1_555 1_555
H68 C95 1_555 1_555
C96 C91 1_555 1_555
C97 C96 1_555 1_555
H69 C97 1_555 1_555
C98 C97 1_555 1_555
H70 C98 1_555 1_555
C99 H71 1_555 1_555
C100 C96 1_555 1_555
H72 C100 1_555 1_555
C101 H73 1_555 1_555
C102 C101 1_555 1_555
H74 C102 1_555 1_555
C103 C102 1_555 1_555
H75 C103 1_555 1_555
C104 C103 1_555 1_555
C105 C104 1_555 1_555
C106 C105 1_555 1_555
C107 C106 1_555 1_555
H76 C107 1_555 1_555
C108 C107 1_555 1_555
H77 C108 1_555 1_555
C109 H78 1_555 1_555
C110 C109 1_555 1_555
H79 C110 1_555 1_555
C111 C110 1_555 1_555
H80 C111 1_555 1_555
C112 C111 1_555 1_555
C113 C112 1_555 1_555
C114 C113 1_555 1_555
C115 C114 1_555 1_555
H81 C115 1_555 1_555
C116 C115 1_555 1_555
H82 C116 1_555 1_555
C117 C116 1_555 1_555
H83 C117 1_555 1_555
C118 C113 1_555 1_555
C119 C118 1_555 1_555
H84 C119 1_555 1_555
C120 C119 1_555 1_555
H85 C120 1_555 1_555
C121 H86 1_555 1_555
C122 C118 1_555 1_555
H87 C122 1_555 1_555
C123 H88 1_555 1_555
C124 C123 1_555 1_555
H89 C124 1_555 1_555
C125 C124 1_555 1_555
H90 C125 1_555 1_555
C126 C125 1_555 1_555
C127 C126 1_555 1_555
C128 C127 1_555 1_555
C129 C128 1_555 1_555
H91 C129 1_555 1_555
C130 C129 1_555 1_555
H92 C130 1_555 1_555
C131 F1 1_555 1_555
C132 F4 1_555 1_555
C133 F7 1_555 1_555
F2 C131 1_555 1_555
F3 C131 1_555 1_555
F5 C132 1_555 1_555
F6 C132 1_555 1_555
F8 C133 1_555 1_555
F9 C133 1_555 1_555
Ga1 N1 1_555 1_555
Ga2 N10 1_555 1_555
Ga3 N19 1_555 1_555
Ga4 N24 1_555 1_555
N1 C1 1_555 1_555
N2 C6 1_555 1_555
N3 C12 1_555 1_555
N4 C15 1_555 1_555
N5 C20 1_555 1_555
N6 C26 1_555 1_555
N7 C29 1_555 1_555
N8 C34 1_555 1_555
N9 C40 1_555 1_555
N10 C45 1_555 1_555
N11 C50 1_555 1_555
N12 Ag1 1_555 1_555
N13 C59 1_555 1_555
N14 C64 1_555 1_555
N15 Ag2 1_555 1_555
N16 C73 1_555 1_555
N17 C78 1_555 1_555
N18 Ag1 1_555 1_555
N19 C87 1_555 1_555
N20 C92 1_555 1_555
N21 C98 1_555 1_555
N22 C101 1_555 1_555
N23 Ag3 1_555 1_555
N24 C109 1_555 1_555
N25 C114 1_555 1_555
N26 Ag2 1_555 1_555
N27 C123 1_555 1_555
N28 Ag4 1_555 1_555
O1 S1 1_555 1_555
O2 S1 1_555 1_555
O3 S1 1_555 1_555
O4 S2 1_555 1_555
O5 S2 1_555 1_555
O6 S2 1_555 1_555
O7 S3 1_555 1_555
O8 S3 1_555 1_555
O9 S3 1_555 1_555
S1 C131 1_555 1_555
S2 C132 1_555 1_555
S3 C133 1_555 1_555
C70C N15 1_555 1_555
C71C N15 1_555 1_555
C84_2 N18 1_555 1_555
C85_2 N18 1_555 1_555
C104A C105 1_555 1_555
C107A C106 1_555 1_555
C108A N23 1_555 1_555
C126A C127 1_555 1_555
C129A C128 1_555 1_555
C130C N28 1_555 1_555
C130B N28 1_555 1_555
N9A Ag3 1_555 1_555
N15C C70 1_555 1_555
N18_2 C84 1_555 1_555
N19A Ga3 1_555 1_555
N20A Ga3 1_555 1_555
N21A Ag4 1_555 1_555
N22A Ga3 1_555 1_555
N24A Ga4 1_555 1_555
N25A Ga4 1_555 1_555
N27A Ga4 1_555 1_555
N28B C130 1_555 1_555
C4 N1 1_555 1_555
C9 N2 1_555 1_555
C13 C14 1_555 1_555
C13 N3 1_555 1_555
C18 N4 1_555 1_555
C23 N5 1_555 1_555
C27 C28 1_555 1_555
C27 N6 1_555 1_555
C32 N7 1_555 1_555
C37 N8 1_555 1_555
C41 C42 1_555 1_555
C41 N9 1_555 1_555
C48 N10 1_555 1_555
C53 N11 1_555 1_555
C56 N12 1_555 1_555
C57 C58 1_555 1_555
C57 N12 1_555 1_555
C62 N13 1_555 1_555
C67 N14 1_555 1_555
C71 C72 1_555 1_555
C71 N15C 1_555 1_555
C76 N16 1_555 1_555
C81 N17 1_555 1_555
C85 C86 1_555 1_555
C85 N18_2 1_555 1_555
C90 N19 1_555 1_555
C95 N20 1_555 1_555
C99 C100 1_555 1_555
C99 N21 1_555 1_555
C104 N22 1_555 1_555
C108 N23 1_555 1_555
C112 N24 1_555 1_555
C117 N25 1_555 1_555
C120 N26 1_555 1_555
C121 C122 1_555 1_555
C121 N26 1_555 1_555
C126 N27 1_555 1_555
Ga1 N2 1_555 1_555
Ga1 N4 1_555 1_555
Ga1 N5 1_555 1_555
Ga1 N7 1_555 1_555
Ga1 N8 1_555 1_555
Ga2 N11 1_555 1_555
Ga2 N13 1_555 1_555
Ga2 N14 1_555 1_555
Ga2 N16 1_555 1_555
Ga2 N17 1_555 1_555
Ga3 N20 1_555 1_555
Ga3 N22 1_555 1_555
Ga4 N25 1_555 1_555
Ga4 N27 1_555 1_555
C104A N22A 1_555 1_555
C107A C108A 1_555 1_555
C126A N27A 1_555 1_555

#END
