
#######################################################################
#
#                 Cambridge Crystallographic Data Centre
#                                CCDC 
#
#######################################################################
#
# If this CIF has been generated from an entry in the Cambridge 
# Structural Database, then it will include bibliographic, chemical, 
# crystal, experimental, refinement or atomic coordinate data resulting 
# from the CCDC's data processing and validation procedures.
#
#######################################################################

data_GIWFAV
_symmetry_cell_setting           tetragonal
_symmetry_space_group_name_H-M   'I -4'
_symmetry_Int_Tables_number      82
_space_group_name_Hall           'I -4'
loop_
_symmetry_equiv_pos_site_id
_symmetry_equiv_pos_as_xyz
1 x,y,z
2 -x,-y,z
3 y,-x,-z
4 -y,x,-z
5 1/2+x,1/2+y,1/2+z
6 1/2-x,1/2-y,1/2+z
7 1/2+y,1/2-x,1/2-z
8 1/2-y,1/2+x,1/2-z
_cell_length_a                   16.2121(12)
_cell_length_b                   16.2121(12)
_cell_length_c                   12.9964(11)
_cell_angle_alpha                90
_cell_angle_beta                 90
_cell_angle_gamma                90
_cell_volume                     3415.87
loop_
_atom_site_label
_atom_site_type_symbol
_atom_site_fract_x
_atom_site_fract_y
_atom_site_fract_z
I1 I 0.62320(3) -0.06025(3) 1.12870(4)
Cu1 Cu 0.53946(6) 0.07544(5) 1.17528(8)
N1 N 0.6023(4) 0.4928(4) 0.8044(5)
C1 C 0.5540(5) 0.5930(5) 0.6837(6)
C2 C 0.6376(6) 0.7062(6) 0.6268(9)
H1 H 0.6854 0.7378 0.6307
C3 C 0.5427(4) 0.5210(4) 0.7507(6)
C4 C 0.6290(6) 0.6379(6) 0.6872(8)
H2 H 0.6717 0.6211 0.7301
N2 N 0.5840(4) 0.1695(4) 1.0836(6)
C5 C 0.6802(5) 0.2820(5) 1.0432(7)
C6 C 0.6588(5) 0.2099(5) 1.0990(6)
C7 C 0.7166(5) 0.1764(6) 1.1705(8)
H3 H 0.7029 0.1295 1.2082
C8 C 0.7914(6) 0.2125(6) 1.1837(9)
H4 H 0.8296 0.1884 1.2279
C9 C 0.6207(5) 0.3125(5) 0.9688(6)
C10 C 0.5527(5) 0.2682(5) 0.9512(7)
H5 H 0.5154 0.2853 0.9012
C11 C 0.5371(5) 0.1960(6) 1.0075(8)
H6 H 0.4910 0.1650 0.9901
C12 C 0.4920(5) 0.6168(5) 0.6160(8)
H7 H 0.4432 0.5867 0.6133
C13 C 0.5749(7) 0.7286(6) 0.5592(8)
H8 H 0.5823 0.7744 0.5172
C14 C 0.7566(6) 0.3200(6) 1.0602(7)
H9 H 0.7707 0.3676 1.0245
C15 C 0.8119(5) 0.2854(6) 1.1319(9)
H10 H 0.8622 0.3111 1.1449
N3 N 0.5781(4) 0.4222(4) 0.8624(6)
C16 C 0.6362(5) 0.3898(5) 0.9109(7)
H11 H 0.6883 0.4138 0.9107
C17 C 0.5019(6) 0.6848(6) 0.5525(8)
H12 H 0.4607 0.7006 0.5068
N1A N 0.3977(4) 0.5072(4) 0.8044(5)
C1A C 0.4460(5) 0.4070(5) 0.6837(6)
C2A C 0.3624(6) 0.2938(6) 0.6268(9)
H1A H 0.3146 0.2622 0.6307
C3A C 0.4573(4) 0.4790(4) 0.7507(6)
C4A C 0.3710(6) 0.3621(6) 0.6872(8)
H2A H 0.3283 0.3789 0.7301
N2A N 0.4160(4) 0.8305(4) 1.0836(6)
C5A C 0.3198(5) 0.7180(5) 1.0432(7)
C6A C 0.3412(5) 0.7901(5) 1.0990(6)
C7A C 0.2834(5) 0.8236(6) 1.1705(8)
H3A H 0.2971 0.8705 1.2082
C8A C 0.2086(6) 0.7875(6) 1.1837(9)
H4A H 0.1704 0.8116 1.2279
C9A C 0.3793(5) 0.6875(5) 0.9688(6)
C10A C 0.4473(5) 0.7318(5) 0.9512(7)
H5A H 0.4846 0.7147 0.9012
C11A C 0.4629(5) 0.8040(6) 1.0075(8)
H6A H 0.5090 0.8350 0.9901
C12A C 0.5080(5) 0.3832(5) 0.6160(8)
H7A H 0.5568 0.4133 0.6133
C13A C 0.4251(7) 0.2714(6) 0.5592(8)
H8A H 0.4177 0.2256 0.5172
C14A C 0.2434(6) 0.6800(6) 1.0602(7)
H9A H 0.2293 0.6324 1.0245
C15A C 0.1881(5) 0.7146(6) 1.1319(9)
H10A H 0.1378 0.6889 1.1449
N3A N 0.4219(4) 0.5778(4) 0.8624(6)
C16A C 0.3638(5) 0.6102(5) 0.9109(7)
H11A H 0.3117 0.5862 0.9107
C17A C 0.4981(6) 0.3152(6) 0.5525(8)
H12A H 0.5393 0.2994 0.5068
I1A I 0.37680(3) 0.06025(3) 1.12870(4)
Cu1A Cu 0.46054(6) -0.07544(5) 1.17528(8)
I1F I 0.43975(3) -0.12320(3) 1.37130(4)
I1G I 0.56025(3) 0.12320(3) 1.37130(4)
Cu1A_2 Cu 0.46054(6) 0.92456(5) 1.17528(8)
Cu1F Cu 0.57544(5) -0.03946(6) 1.32472(8)
Cu1G Cu 0.42456(5) 0.03946(6) 1.32472(8)
N2A_2 N 0.4160(4) -0.1695(4) 1.0836(6)
O1 O 0.5204(11) 0.9123(17) 0.700(2)
loop_
_geom_bond_atom_site_label_1
_geom_bond_atom_site_label_2
_geom_bond_site_symmetry_1
_geom_bond_site_symmetry_2
I1 Cu1 1_555 1_555
Cu1 N2 1_555 1_555
N1 C3 1_555 1_555
C1 C3 1_555 1_555
C2 H1 1_555 1_555
C3 C3A 1_555 1_555
C4 C1 1_555 1_555
H2 C4 1_555 1_555
N2 C6 1_555 1_555
C5 C6 1_555 1_555
C6 C7 1_555 1_555
C7 H3 1_555 1_555
C8 C7 1_555 1_555
H4 C8 1_555 1_555
C9 C5 1_555 1_555
C10 C9 1_555 1_555
H5 C10 1_555 1_555
C11 N2 1_555 1_555
H6 C11 1_555 1_555
C12 C1 1_555 1_555
H7 C12 1_555 1_555
C13 C2 1_555 1_555
H8 C13 1_555 1_555
C14 C5 1_555 1_555
H9 C14 1_555 1_555
C15 C8 1_555 1_555
H10 C15 1_555 1_555
N3 N1 1_555 1_555
C16 C9 1_555 1_555
H11 C16 1_555 1_555
C17 C12 1_555 1_555
H12 C17 1_555 1_555
N1A C3A 1_555 1_555
C1A C3A 1_555 1_555
C2A H1A 1_555 1_555
C4A C1A 1_555 1_555
H2A C4A 1_555 1_555
N2A C6A 1_555 1_555
C5A C6A 1_555 1_555
C6A C7A 1_555 1_555
C7A H3A 1_555 1_555
C8A C7A 1_555 1_555
H4A C8A 1_555 1_555
C9A C5A 1_555 1_555
C10A C9A 1_555 1_555
H5A C10A 1_555 1_555
C11A N2A 1_555 1_555
H6A C11A 1_555 1_555
C12A C1A 1_555 1_555
H7A C12A 1_555 1_555
C13A C2A 1_555 1_555
H8A C13A 1_555 1_555
C14A C5A 1_555 1_555
H9A C14A 1_555 1_555
C15A C8A 1_555 1_555
H10A C15A 1_555 1_555
N3A N1A 1_555 1_555
C16A C9A 1_555 1_555
H11A C16A 1_555 1_555
C17A C12A 1_555 1_555
H12A C17A 1_555 1_555
I1A Cu1 1_555 1_555
Cu1A I1 1_555 1_555
I1F Cu1A 1_555 1_555
I1G Cu1 1_555 1_555
Cu1A_2 N2A 1_555 1_555
Cu1F I1 1_555 1_555
Cu1G I1A 1_555 1_555
N2A_2 Cu1A 1_555 1_555
C2 C4 1_555 1_555
C10 C11 1_555 1_555
C13 C17 1_555 1_555
C14 C15 1_555 1_555
N3 C16 1_555 1_555
C2A C4A 1_555 1_555
C10A C11A 1_555 1_555
C13A C17A 1_555 1_555
C14A C15A 1_555 1_555
N3A C16A 1_555 1_555
I1A Cu1A 1_555 1_555
I1F Cu1F 1_555 1_555
I1F Cu1G 1_555 1_555
I1G Cu1F 1_555 1_555
I1G Cu1G 1_555 1_555

#END
