
#######################################################################
#
#                 Cambridge Crystallographic Data Centre
#                                CCDC 
#
#######################################################################
#
# If this CIF has been generated from an entry in the Cambridge 
# Structural Database, then it will include bibliographic, chemical, 
# crystal, experimental, refinement or atomic coordinate data resulting 
# from the CCDC's data processing and validation procedures.
#
#######################################################################

data_GIWKIH
_symmetry_cell_setting           triclinic
_symmetry_space_group_name_H-M   'P -1'
_symmetry_Int_Tables_number      2
_space_group_name_Hall           '-P 1'
loop_
_symmetry_equiv_pos_site_id
_symmetry_equiv_pos_as_xyz
1 x,y,z
2 -x,-y,-z
_cell_length_a                   8.2529(11)
_cell_length_b                   9.7052(13)
_cell_length_c                   10.3996(14)
_cell_angle_alpha                67.298(2)
_cell_angle_beta                 69.518(2)
_cell_angle_gamma                79.187(2)
_cell_volume                     718.521
loop_
_atom_site_label
_atom_site_type_symbol
_atom_site_fract_x
_atom_site_fract_y
_atom_site_fract_z
Cu1 Cu 1.42273(8) 0.66829(8) 0.06695(8)
Cu2 Cu 0.51226(10) 1.22131(8) 0.59837(8)
Cu3 Cu 0.98905(10) 0.94217(9) 0.34642(9)
Cu4 Cu 0.0000 1.0000 1.0000
C1 C 1.0040(6) 0.6250(6) -0.2209(5)
C2 C 0.9970(7) 0.5638(7) -0.3173(6)
H1 H 1.0859 0.4996 -0.3509
C3 C 0.8487(8) 0.6032(8) -0.3620(7)
H2 H 0.8365 0.5647 -0.4270
C4 C 0.7217(7) 0.6980(7) -0.3107(6)
H3 H 0.6222 0.7244 -0.3396
C5 C 0.7441(6) 0.7546(6) -0.2140(6)
C6 C 1.1865(7) 0.6627(6) -0.0934(6)
H4 H 1.1214 0.7450 -0.0727
C7 C 1.2748(6) 0.4793(6) -0.1703(5)
C8 C 1.1690(7) 0.8411(6) 0.2489(6)
C9 C 0.6863(7) 1.1093(6) 0.4953(6)
C10 C 0.2032(7) 1.0802(7) 0.8645(7)
N1 N 1.3252(5) 0.6029(5) -0.0557(5)
N2 N 1.3824(5) 0.4836(5) -0.1058(4)
N3 N 1.1489(5) 0.5912(4) -0.1658(4)
N4 N 0.8853(5) 0.7187(5) -0.1696(4)
N5 N 0.6133(6) 0.8420(5) -0.1472(5)
H5 H 0.5544 0.9012 -0.2092
H6 H 0.6588 0.9001 -0.1206
N6 N 1.2675(8) 0.7780(7) 0.1837(7)
N7 N 0.8002(8) 1.0460(7) 0.4388(6)
N8 N 0.3245(7) 1.1293(6) 0.7724(6)
N9 N 0.5029(8) 1.4344(6) 0.5213(6)
H7 H 1.293(9) 0.411(8) -0.224(8)
N9A N 0.4971(8) 1.5656(6) 0.4787(6)
C10A C -0.2032(7) 0.9198(7) 1.1355(7)
N8A N -0.3245(7) 0.8707(6) 1.2276(6)
Cu2A Cu -0.51226(10) 0.77869(8) 1.40163(8)
C9A C -0.6863(7) 0.8907(6) 1.5047(6)
N7A N -0.8002(8) 0.9540(7) 1.5612(6)
Cu3A Cu -0.98905(10) 1.05783(9) 1.65358(9)
C8A C -1.1690(7) 1.1589(6) 1.7511(6)
N6A N -1.2675(8) 1.2220(7) 1.8163(7)
Cu1A Cu -1.42273(8) 1.33171(8) 1.93305(8)
C1A C 1.9960(6) 0.3750(6) 0.2209(5)
C2A C 2.0030(7) 0.4362(7) 0.3173(6)
H1A H 1.9141 0.5004 0.3509
C3A C 2.1513(8) 0.3968(8) 0.3620(7)
H2A H 2.1635 0.4353 0.4270
C4A C 2.2783(7) 0.3020(7) 0.3107(6)
H3A H 2.3778 0.2756 0.3396
C5A C 2.2559(6) 0.2454(6) 0.2140(6)
C6A C 1.8135(7) 0.3373(6) 0.0934(6)
H4A H 1.8786 0.2550 0.0727
C7A C 1.7252(6) 0.5207(6) 0.1703(5)
N1A N 1.6748(5) 0.3971(5) 0.0557(5)
N2A N 1.6176(5) 0.5164(5) 0.1058(4)
N3A N 1.8511(5) 0.4088(4) 0.1658(4)
N4A N 2.1147(5) 0.2813(5) 0.1696(4)
N5A N 2.3867(6) 0.1580(5) 0.1472(5)
H5A H 2.4456 0.0988 0.2092
H6A H 2.3412 0.0999 0.1206
H7A H 1.707(9) 0.589(8) 0.224(8)
N5_2 N 1.6133(6) 0.8420(5) -0.1472(5)
Cu1A_2 Cu 1.57727(8) 0.33171(8) -0.06695(8)
Cu1_2 Cu 0.42273(8) 0.66829(8) 0.06695(8)
Cu2A_2 Cu 0.48774(10) 1.77869(8) 0.40163(8)
N9A_2 N -0.5029(8) 0.5656(6) 1.4787(6)
N1A_2 N -1.3252(5) 1.3971(5) 2.0557(5)
N2_2 N -1.6176(5) 1.4836(5) 1.8942(4)
N5A_2 N -1.6133(6) 1.1580(5) 2.1472(5)
Cu1A_3 Cu 2.57727(8) 0.33171(8) -0.06695(8)
H5_2 H 1.5544 0.9012 -0.2092
H6_2 H 1.6588 0.9001 -0.1206
H5A_2 H -1.5544 1.0988 2.2092
H6A_2 H -1.6588 1.0999 2.1206
loop_
_geom_bond_atom_site_label_1
_geom_bond_atom_site_label_2
_geom_bond_site_symmetry_1
_geom_bond_site_symmetry_2
Cu1 N1 1_555 1_555
Cu2 C9 1_555 1_555
Cu3 C8 1_555 1_555
Cu4 C10 1_555 1_555
C1 C2 1_555 1_555
C2 H1 1_555 1_555
C3 C2 1_555 1_555
H2 C3 1_555 1_555
C4 C3 1_555 1_555
H3 C4 1_555 1_555
C5 C4 1_555 1_555
C6 H4 1_555 1_555
C7 N2 1_555 1_555
C8 N6 1_555 1_555
C9 N7 1_555 1_555
C10 N8 1_555 1_555
N1 C6 1_555 1_555
N2 N1 1_555 1_555
N3 C1 1_555 1_555
N4 C1 1_555 1_555
N5 C5 1_555 1_555
H5 N5 1_555 1_555
H6 N5 1_555 1_555
N6 Cu1 1_555 1_555
N7 Cu3 1_555 1_555
N8 Cu2 1_555 1_555
N9 Cu2 1_555 1_555
H7 C7 1_555 1_555
N9A N9 1_555 1_555
C10A Cu4 1_555 1_555
N8A C10A 1_555 1_555
Cu2A N8A 1_555 1_555
C9A Cu2A 1_555 1_555
N7A C9A 1_555 1_555
Cu3A N7A 1_555 1_555
C8A Cu3A 1_555 1_555
N6A C8A 1_555 1_555
Cu1A N6A 1_555 1_555
C1A C2A 1_555 1_555
C2A H1A 1_555 1_555
C3A C2A 1_555 1_555
H2A C3A 1_555 1_555
C4A C3A 1_555 1_555
H3A C4A 1_555 1_555
C5A C4A 1_555 1_555
C6A H4A 1_555 1_555
C7A N2A 1_555 1_555
N1A C6A 1_555 1_555
N2A Cu1 1_555 1_555
N3A C1A 1_555 1_555
N4A C1A 1_555 1_555
N5A C5A 1_555 1_555
H5A N5A 1_555 1_555
H6A N5A 1_555 1_555
H7A C7A 1_555 1_555
N5_2 Cu1 1_555 1_555
Cu1A_2 N2 1_555 1_555
Cu1_2 N5 1_555 1_555
Cu2A_2 N9A 1_555 1_555
N9A_2 Cu2A 1_555 1_555
N1A_2 Cu1A 1_555 1_555
N2_2 Cu1A 1_555 1_555
N5A_2 Cu1A 1_555 1_555
Cu1A_3 N5A 1_555 1_555
H5_2 N5_2 1_555 1_555
H6_2 N5_2 1_555 1_555
H5A_2 N5A_2 1_555 1_555
H6A_2 N5A_2 1_555 1_555
C5 N4 1_555 1_555
C6 N3 1_555 1_555
C7 N3 1_555 1_555
C5A N4A 1_555 1_555
C6A N3A 1_555 1_555
C7A N3A 1_555 1_555
N1A N2A 1_555 1_555
N1A Cu1A_2 1_555 1_555

#END
