
#######################################################################
#
#                 Cambridge Crystallographic Data Centre
#                                CCDC 
#
#######################################################################
#
# If this CIF has been generated from an entry in the Cambridge 
# Structural Database, then it will include bibliographic, chemical, 
# crystal, experimental, refinement or atomic coordinate data resulting 
# from the CCDC's data processing and validation procedures.
#
#######################################################################

data_GIWKON
_symmetry_cell_setting           monoclinic
_symmetry_space_group_name_H-M   'P 21'
_symmetry_Int_Tables_number      4
_space_group_name_Hall           'P 2yb'
loop_
_symmetry_equiv_pos_site_id
_symmetry_equiv_pos_as_xyz
1 x,y,z
2 -x,1/2+y,-z
_cell_length_a                   5.7255(9)
_cell_length_b                   12.1360(19)
_cell_length_c                   9.3084(14)
_cell_angle_alpha                90
_cell_angle_beta                 94.792(2)
_cell_angle_gamma                90
_cell_volume                     644.53
loop_
_atom_site_label
_atom_site_type_symbol
_atom_site_fract_x
_atom_site_fract_y
_atom_site_fract_z
Cu1 Cu 0.68009(8) 0.21662(4) 0.55089(5)
Cu2 Cu 0.47793(8) 0.44470(4) 0.52785(5)
S1 S 0.39633(15) 0.25948(8) 0.35014(10)
S2 S 0.75292(16) 0.39127(8) 0.71464(9)
N1 N -0.4203(5) -0.0995(3) 0.9880(3)
H1 H -0.4265 -0.1373 0.9129
H2 H -0.5712 -0.1002 1.0253
N2 N -0.1223(5) -0.0010(2) 0.8973(3)
N3 N 0.1781(5) 0.0888(2) 0.7942(3)
N4 N 0.4715(5) 0.1326(2) 0.6706(3)
N5 N 0.3847(5) 0.0306(2) 0.6238(3)
N6 N -0.0286(5) 0.2118(3) 0.4660(3)
N7 N 1.1817(5) 0.4437(3) 0.6074(3)
C1 C 0.0051(6) 0.0899(3) 0.8985(3)
C2 C -0.0157(7) 0.1789(3) 0.9871(4)
H3 H 0.0793 0.2407 0.9825
C3 C -0.1850(7) 0.1717(4) 1.0832(4)
H4 H -0.2040 0.2292 1.1471
C4 C -0.3249(6) 0.0812(3) 1.0857(4)
H5 H -0.4407 0.0767 1.1498
C5 C -0.2906(6) -0.0048(3) 0.9896(3)
C6 C 0.3433(6) 0.1651(3) 0.7711(4)
H6 H 0.3623 0.2315 0.8205
C7 C 0.2105(6) 0.0078(3) 0.6987(3)
H7 H 0.1200 -0.0558 0.6882
C8 C 0.1445(5) 0.2308(3) 0.4163(3)
C9 C 1.0058(6) 0.4235(3) 0.6524(3)
Cu1_2 Cu -0.31991(8) 0.21662(4) 0.55089(5)
Cu2A Cu 0.52207(8) -0.05530(4) 0.47215(5)
Cu2_2 Cu 1.47793(8) 0.44470(4) 0.52785(5)
N5A N 0.6153(5) 0.5306(2) 0.3762(3)
N6_2 N 0.9714(5) 0.2118(3) 0.4660(3)
N7_2 N 0.1817(5) 0.4437(3) 0.6074(3)
loop_
_geom_bond_atom_site_label_1
_geom_bond_atom_site_label_2
_geom_bond_site_symmetry_1
_geom_bond_site_symmetry_2
Cu1 S1 1_555 1_555
Cu2 S1 1_555 1_555
S1 C8 1_555 1_555
S2 Cu1 1_555 1_555
N1 H1 1_555 1_555
H2 N1 1_555 1_555
N2 C1 1_555 1_555
N3 C1 1_555 1_555
N4 Cu1 1_555 1_555
N5 N4 1_555 1_555
N6 C8 1_555 1_555
N7 C9 1_555 1_555
C1 C2 1_555 1_555
C2 H3 1_555 1_555
C3 C2 1_555 1_555
H4 C3 1_555 1_555
C4 C3 1_555 1_555
H5 C4 1_555 1_555
C5 N1 1_555 1_555
C6 N3 1_555 1_555
H6 C6 1_555 1_555
C7 N3 1_555 1_555
H7 C7 1_555 1_555
C9 S2 1_555 1_555
Cu1_2 N6 1_555 1_555
Cu2A N5 1_555 1_555
Cu2_2 N7 1_555 1_555
N5A Cu2 1_555 1_555
N6_2 Cu1 1_555 1_555
N7_2 Cu2 1_555 1_555
Cu2 S2 1_555 1_555
N2 C5 1_555 1_555
N4 C6 1_555 1_555
N5 C7 1_555 1_555
C4 C5 1_555 1_555

#END
