
#######################################################################
#
#                 Cambridge Crystallographic Data Centre
#                                CCDC 
#
#######################################################################
#
# If this CIF has been generated from an entry in the Cambridge 
# Structural Database, then it will include bibliographic, chemical, 
# crystal, experimental, refinement or atomic coordinate data resulting 
# from the CCDC's data processing and validation procedures.
#
#######################################################################

data_GIWKUT
_symmetry_cell_setting           triclinic
_symmetry_space_group_name_H-M   'P -1'
_symmetry_Int_Tables_number      2
_space_group_name_Hall           '-P 1'
loop_
_symmetry_equiv_pos_site_id
_symmetry_equiv_pos_as_xyz
1 x,y,z
2 -x,-y,-z
_cell_length_a                   8.5269(3)
_cell_length_b                   13.2387(2)
_cell_length_c                   13.9066(4)
_cell_angle_alpha                71.927(5)
_cell_angle_beta                 83.180(7)
_cell_angle_gamma                81.002(7)
_cell_volume                     1469.9
loop_
_atom_site_label
_atom_site_type_symbol
_atom_site_fract_x
_atom_site_fract_y
_atom_site_fract_z
Cd1 Cd 0.5000 0.5000 0.5000
Cd2 Cd 0.73638(4) 1.20653(3) 0.09013(3)
I1 I 0.84804(6) 1.31204(4) -0.10066(3)
I2 I 0.98493(4) 1.13506(3) 0.21304(3)
I3 I 0.44654(5) 1.29403(4) 0.15041(4)
C1 C 0.2090(5) 0.3384(4) 0.5198(3)
C2 C 0.2201(6) 0.2752(4) 0.6200(4)
H1 H 0.2775 0.2922 0.6644
C3 C 0.1409(6) 0.1857(4) 0.6496(4)
H2 H 0.1468 0.1408 0.7158
C4 C 0.0531(6) 0.1605(4) 0.5845(4)
H3 H 0.0003 0.1001 0.6089
C5 C 0.0415(6) 0.2213(4) 0.4856(4)
H4 H -0.0152 0.2034 0.4414
C6 C 0.1206(5) 0.3122(3) 0.4557(3)
C7 C 0.0705(5) 0.4045(4) 0.2695(3)
H5 H 0.0842 0.3357 0.2565
H6 H 0.1307 0.4521 0.2154
C8 C -0.1030(5) 0.4491(3) 0.2662(3)
C9 C -0.2002(5) 0.4603(3) 0.3480(3)
H7 H -0.1561 0.4405 0.4102
C10 C -0.4184(5) 0.5262(4) 0.2550(3)
H8 H -0.5264 0.5511 0.2515
C11 C -0.3291(6) 0.5198(4) 0.1678(3)
H9 H -0.3749 0.5430 0.1060
C12 C -0.1709(6) 0.4786(4) 0.1731(4)
H10 H -0.1097 0.4704 0.1154
C13 C 0.3820(5) 0.7661(3) 0.4710(3)
C14 C 0.3957(6) 0.7730(4) 0.5685(4)
H11 H 0.4213 0.7126 0.6226
C15 C 0.3690(7) 0.8735(5) 0.5790(5)
H12 H 0.3783 0.8814 0.6422
C16 C 0.3285(7) 0.9651(5) 0.4987(5)
H13 H 0.3076 1.0312 0.5112
C17 C 0.3186(6) 0.9611(4) 0.4041(4)
H14 H 0.2940 1.0226 0.3508
C18 C 0.3472(5) 0.8595(3) 0.3905(3)
C19 C 0.3257(6) 0.8829(4) 0.2043(3)
H15 H 0.2539 0.9483 0.2002
H16 H 0.2794 0.8409 0.1715
C20 C 0.4846(5) 0.9105(3) 0.1493(3)
C21 C 0.5303(6) 1.0091(4) 0.1383(3)
H17 H 0.4607 1.0575 0.1642
C22 C 0.7663(6) 0.9686(5) 0.0543(4)
H18 H 0.8641 0.9878 0.0224
C23 C 0.7291(7) 0.8705(5) 0.0598(5)
H19 H 0.7993 0.8242 0.0317
C24 C 0.5839(7) 0.8411(4) 0.1083(4)
H20 H 0.5549 0.7749 0.1127
N1 N 0.1369(4) 0.3907(3) 0.3659(3)
N2 N 0.2305(4) 0.4605(3) 0.3732(3)
N3 N 0.2751(4) 0.4295(3) 0.4659(3)
N4 N -0.3566(4) 0.4982(3) 0.3448(3)
N5 N 0.3436(4) 0.8222(3) 0.3109(3)
N6 N 0.3762(4) 0.7157(3) 0.3364(3)
N7 N 0.3983(4) 0.6807(3) 0.4340(3)
N8 N 0.6692(5) 1.0387(3) 0.0923(3)
Cd1_2 Cd -0.5000 0.5000 0.5000
Cd1_3 Cd 1.5000 0.5000 0.5000
Cd2A Cd 0.26362(4) -0.20653(3) 0.90987(3)
I1A I 0.15196(6) -0.31204(4) 1.10066(3)
I2A I 0.01507(4) -0.13506(3) 0.78696(3)
I3A I 0.55346(5) -0.29403(4) 0.84959(4)
C1A C 0.7910(5) 0.6616(4) 0.4802(3)
C2A C 0.7799(6) 0.7248(4) 0.3800(4)
H1A H 0.7225 0.7078 0.3356
C3A C 0.8591(6) 0.8143(4) 0.3504(4)
H2A H 0.8532 0.8592 0.2842
C4A C 0.9469(6) 0.8395(4) 0.4155(4)
H3A H 0.9997 0.8999 0.3911
C5A C 0.9585(6) 0.7787(4) 0.5144(4)
H4A H 1.0152 0.7966 0.5586
C6A C 0.8794(5) 0.6878(3) 0.5443(3)
C7A C 0.9295(5) 0.5955(4) 0.7305(3)
H5A H 0.9158 0.6643 0.7435
H6A H 0.8693 0.5479 0.7846
C8A C 1.1030(5) 0.5509(3) 0.7338(3)
C9A C 1.2002(5) 0.5397(3) 0.6520(3)
H7A H 1.1561 0.5595 0.5898
C10A C 1.4184(5) 0.4738(4) 0.7450(3)
H8A H 1.5264 0.4489 0.7485
C11A C 1.3291(6) 0.4802(4) 0.8322(3)
H9A H 1.3749 0.4570 0.8940
C12A C 1.1709(6) 0.5214(4) 0.8269(4)
H10A H 1.1097 0.5296 0.8846
C13A C 0.6180(5) 0.2339(3) 0.5290(3)
C14A C 0.6043(6) 0.2270(4) 0.4315(4)
H11A H 0.5787 0.2874 0.3774
C15A C 0.6310(7) 0.1265(5) 0.4210(5)
H12A H 0.6217 0.1186 0.3578
C16A C 0.6715(7) 0.0349(5) 0.5013(5)
H13A H 0.6924 -0.0312 0.4888
C17A C 0.6814(6) 0.0389(4) 0.5959(4)
H14A H 0.7060 -0.0226 0.6492
C18A C 0.6528(5) 0.1405(3) 0.6095(3)
C19A C 0.6743(6) 0.1171(4) 0.7957(3)
H15A H 0.7461 0.0517 0.7998
H16A H 0.7206 0.1591 0.8285
C20A C 0.5154(5) 0.0895(3) 0.8507(3)
C21A C 0.4697(6) -0.0091(4) 0.8617(3)
H17A H 0.5393 -0.0575 0.8358
C22A C 0.2337(6) 0.0314(5) 0.9457(4)
H18A H 0.1359 0.0122 0.9776
C23A C 0.2709(7) 0.1295(5) 0.9402(5)
H19A H 0.2007 0.1758 0.9683
C24A C 0.4161(7) 0.1589(4) 0.8917(4)
H20A H 0.4451 0.2251 0.8873
N1A N 0.8631(4) 0.6093(3) 0.6341(3)
N2A N 0.7695(4) 0.5395(3) 0.6268(3)
N3A N 0.7249(4) 0.5705(3) 0.5341(3)
N4A N 1.3566(4) 0.5018(3) 0.6552(3)
N4_2 N 0.6434(4) 0.4982(3) 0.3448(3)
N4A_2 N 0.3566(4) 0.5018(3) 0.6552(3)
N5A N 0.6564(4) 0.1778(3) 0.6891(3)
N6A N 0.6238(4) 0.2843(3) 0.6636(3)
N7A N 0.6017(4) 0.3193(3) 0.5660(3)
N8A N 0.3308(5) -0.0387(3) 0.9077(3)
loop_
_geom_bond_atom_site_label_1
_geom_bond_atom_site_label_2
_geom_bond_site_symmetry_1
_geom_bond_site_symmetry_2
Cd1 N3 1_555 1_555
Cd2 I1 1_555 1_555
I2 Cd2 1_555 1_555
I3 Cd2 1_555 1_555
C1 C2 1_555 1_555
C2 H1 1_555 1_555
C3 C2 1_555 1_555
H2 C3 1_555 1_555
C4 C3 1_555 1_555
H3 C4 1_555 1_555
C5 C4 1_555 1_555
H4 C5 1_555 1_555
C6 C1 1_555 1_555
C7 H5 1_555 1_555
H6 C7 1_555 1_555
C8 C7 1_555 1_555
C9 C8 1_555 1_555
H7 C9 1_555 1_555
C10 H8 1_555 1_555
C11 C10 1_555 1_555
H9 C11 1_555 1_555
C12 C8 1_555 1_555
H10 C12 1_555 1_555
C13 C14 1_555 1_555
C14 H11 1_555 1_555
C15 C14 1_555 1_555
H12 C15 1_555 1_555
C16 C15 1_555 1_555
H13 C16 1_555 1_555
C17 C16 1_555 1_555
H14 C17 1_555 1_555
C18 C13 1_555 1_555
C19 H15 1_555 1_555
H16 C19 1_555 1_555
C20 C19 1_555 1_555
C21 C20 1_555 1_555
H17 C21 1_555 1_555
C22 H18 1_555 1_555
C23 C22 1_555 1_555
H19 C23 1_555 1_555
C24 C20 1_555 1_555
H20 C24 1_555 1_555
N1 C6 1_555 1_555
N2 N1 1_555 1_555
N3 C1 1_555 1_555
N4 C9 1_555 1_555
N5 C18 1_555 1_555
N6 N5 1_555 1_555
N7 Cd1 1_555 1_555
N8 Cd2 1_555 1_555
Cd1_2 N4 1_555 1_555
Cd1_3 N4A 1_555 1_555
Cd2A I1A 1_555 1_555
I2A Cd2A 1_555 1_555
I3A Cd2A 1_555 1_555
C1A C2A 1_555 1_555
C2A H1A 1_555 1_555
C3A C2A 1_555 1_555
H2A C3A 1_555 1_555
C4A C3A 1_555 1_555
H3A C4A 1_555 1_555
C5A C4A 1_555 1_555
H4A C5A 1_555 1_555
C6A C1A 1_555 1_555
C7A H5A 1_555 1_555
H6A C7A 1_555 1_555
C8A C7A 1_555 1_555
C9A C8A 1_555 1_555
H7A C9A 1_555 1_555
C10A H8A 1_555 1_555
C11A C10A 1_555 1_555
H9A C11A 1_555 1_555
C12A C8A 1_555 1_555
H10A C12A 1_555 1_555
C13A C14A 1_555 1_555
C14A H11A 1_555 1_555
C15A C14A 1_555 1_555
H12A C15A 1_555 1_555
C16A C15A 1_555 1_555
H13A C16A 1_555 1_555
C17A C16A 1_555 1_555
H14A C17A 1_555 1_555
C18A C13A 1_555 1_555
C19A H15A 1_555 1_555
H16A C19A 1_555 1_555
C20A C19A 1_555 1_555
C21A C20A 1_555 1_555
H17A C21A 1_555 1_555
C22A H18A 1_555 1_555
C23A C22A 1_555 1_555
H19A C23A 1_555 1_555
C24A C20A 1_555 1_555
H20A C24A 1_555 1_555
N1A C6A 1_555 1_555
N2A N1A 1_555 1_555
N3A Cd1 1_555 1_555
N4A C9A 1_555 1_555
N4_2 Cd1 1_555 1_555
N4A_2 Cd1 1_555 1_555
N5A C18A 1_555 1_555
N6A N5A 1_555 1_555
N7A Cd1 1_555 1_555
N8A Cd2A 1_555 1_555
C5 C6 1_555 1_555
C7 N1 1_555 1_555
C10 N4 1_555 1_555
C11 C12 1_555 1_555
C13 N7 1_555 1_555
C17 C18 1_555 1_555
C19 N5 1_555 1_555
C21 N8 1_555 1_555
C22 N8 1_555 1_555
C23 C24 1_555 1_555
N2 N3 1_555 1_555
N6 N7 1_555 1_555
C1A N3A 1_555 1_555
C5A C6A 1_555 1_555
C7A N1A 1_555 1_555
C10A N4A 1_555 1_555
C11A C12A 1_555 1_555
C13A N7A 1_555 1_555
C17A C18A 1_555 1_555
C19A N5A 1_555 1_555
C21A N8A 1_555 1_555
C22A N8A 1_555 1_555
C23A C24A 1_555 1_555
N2A N3A 1_555 1_555
N6A N7A 1_555 1_555

#END
