
#######################################################################
#
#                 Cambridge Crystallographic Data Centre
#                                CCDC 
#
#######################################################################
#
# If this CIF has been generated from an entry in the Cambridge 
# Structural Database, then it will include bibliographic, chemical, 
# crystal, experimental, refinement or atomic coordinate data resulting 
# from the CCDC's data processing and validation procedures.
#
#######################################################################

data_GIWLAA
_symmetry_cell_setting           monoclinic
_symmetry_space_group_name_H-M   'P 21/c'
_symmetry_Int_Tables_number      14
_space_group_name_Hall           '-P 2ybc'
loop_
_symmetry_equiv_pos_site_id
_symmetry_equiv_pos_as_xyz
1 x,y,z
2 -x,1/2+y,1/2-z
3 -x,-y,-z
4 x,1/2-y,1/2+z
_cell_length_a                   8.1754(11)
_cell_length_b                   16.5254(14)
_cell_length_c                   8.9068(10)
_cell_angle_alpha                90
_cell_angle_beta                 116.434(4)
_cell_angle_gamma                90
_cell_volume                     1077.51
loop_
_atom_site_label
_atom_site_type_symbol
_atom_site_fract_x
_atom_site_fract_y
_atom_site_fract_z
Cd1 Cd 0.0000 0.5000 0.5000
I1 I 0.19364(3) 0.541619(13) 0.30128(2)
C1 C 0.4195(4) 0.56759(17) 0.7625(4)
H1 H 0.4636 0.5549 0.6854
C2 C 0.2546(4) 0.5815(2) 0.8851(4)
H2 H 0.1536 0.5793 0.9071
C3 C 0.7109(4) 0.62086(17) 0.9912(4)
H3 H 0.7722 0.5858 0.9448
H4 H 0.7596 0.6087 1.1099
C4 C 0.7566(4) 0.70771(16) 0.9720(3)
C5 C 0.6377(4) 0.77194(18) 0.9377(5)
H5 H 0.5175 0.7633 0.9184
C6 C 0.6995(4) 0.84953(18) 0.9325(4)
H6 H 0.6179 0.8923 0.9099
C7 C 0.9818(4) 0.80319(18) 0.9868(5)
H7 H 1.0999 0.8131 1.0012
C8 C 0.9319(4) 0.72500(18) 0.9959(5)
H8 H 1.0162 0.6834 1.0181
N1 N 0.5170(3) 0.60169(13) 0.9112(3)
N2 N 0.4122(4) 0.61109(18) 0.9914(3)
N3 N 0.2511(3) 0.55438(14) 0.7403(3)
N4 N 0.8688(3) 0.86603(14) 0.9580(3)
Cd1C Cd 1.0000 1.0000 1.0000
Cd1C_2 Cd -1.0000 0.0000 0.0000
I1B I -0.19364(3) 0.458381(13) 0.69872(2)
C1B C -0.4195(4) 0.43241(17) 0.2375(4)
H1B H -0.4636 0.4451 0.3146
C2B C -0.2546(4) 0.4185(2) 0.1149(4)
H2B H -0.1536 0.4207 0.0929
C3B C -0.7109(4) 0.37914(17) 0.0088(4)
H3B H -0.7722 0.4142 0.0552
H4B H -0.7596 0.3913 -0.1099
C4B C -0.7566(4) 0.29229(16) 0.0280(3)
C5B C -0.6377(4) 0.22806(18) 0.0623(5)
H5B H -0.5175 0.2367 0.0816
C6B C -0.6995(4) 0.15047(18) 0.0675(4)
H6B H -0.6179 0.1077 0.0901
C7B C -0.9818(4) 0.19681(18) 0.0132(5)
H7B H -1.0999 0.1869 -0.0012
C8B C -0.9319(4) 0.27500(18) 0.0041(5)
H8B H -1.0162 0.3166 -0.0181
N1B N -0.5170(3) 0.39831(13) 0.0888(3)
N2B N -0.4122(4) 0.38891(18) 0.0086(3)
N3B N -0.2511(3) 0.44562(14) 0.2597(3)
N4B N -0.8688(3) 0.13397(14) 0.0420(3)
N4C N -0.1312(3) 0.63397(14) 0.4580(3)
N4A N 0.1312(3) 0.36603(14) 0.5420(3)
loop_
_geom_bond_atom_site_label_1
_geom_bond_atom_site_label_2
_geom_bond_site_symmetry_1
_geom_bond_site_symmetry_2
Cd1 I1 1_555 1_555
C1 H1 1_555 1_555
C2 H2 1_555 1_555
C3 H3 1_555 1_555
H4 C3 1_555 1_555
C4 C3 1_555 1_555
C5 C4 1_555 1_555
H5 C5 1_555 1_555
C6 C5 1_555 1_555
H6 C6 1_555 1_555
C7 H7 1_555 1_555
C8 C4 1_555 1_555
H8 C8 1_555 1_555
N1 C1 1_555 1_555
N2 C2 1_555 1_555
N3 Cd1 1_555 1_555
N4 C6 1_555 1_555
Cd1C N4 1_555 1_555
Cd1C_2 N4B 1_555 1_555
I1B Cd1 1_555 1_555
C1B H1B 1_555 1_555
C2B H2B 1_555 1_555
C3B H3B 1_555 1_555
H4B C3B 1_555 1_555
C4B C3B 1_555 1_555
C5B C4B 1_555 1_555
H5B C5B 1_555 1_555
C6B C5B 1_555 1_555
H6B C6B 1_555 1_555
C7B H7B 1_555 1_555
C8B C4B 1_555 1_555
H8B C8B 1_555 1_555
N1B C1B 1_555 1_555
N2B C2B 1_555 1_555
N3B Cd1 1_555 1_555
N4B C6B 1_555 1_555
N4C Cd1 1_555 1_555
N4A Cd1 1_555 1_555
C1 N3 1_555 1_555
C2 N3 1_555 1_555
C3 N1 1_555 1_555
C7 C8 1_555 1_555
C7 N4 1_555 1_555
N1 N2 1_555 1_555
C1B N3B 1_555 1_555
C2B N3B 1_555 1_555
C3B N1B 1_555 1_555
C7B C8B 1_555 1_555
C7B N4B 1_555 1_555
N1B N2B 1_555 1_555

#END
