
#######################################################################
#
#                 Cambridge Crystallographic Data Centre
#                                CCDC 
#
#######################################################################
#
# If this CIF has been generated from an entry in the Cambridge 
# Structural Database, then it will include bibliographic, chemical, 
# crystal, experimental, refinement or atomic coordinate data resulting 
# from the CCDC's data processing and validation procedures.
#
#######################################################################

data_GIWMEG
_symmetry_cell_setting           monoclinic
_symmetry_space_group_name_H-M   'P 21/n'
_symmetry_Int_Tables_number      14
_space_group_name_Hall           '-P 2yn'
loop_
_symmetry_equiv_pos_site_id
_symmetry_equiv_pos_as_xyz
1 x,y,z
2 1/2-x,1/2+y,1/2-z
3 -x,-y,-z
4 1/2+x,1/2-y,1/2+z
_cell_length_a                   6.84140(10)
_cell_length_b                   21.8416(4)
_cell_length_c                   9.4560(2)
_cell_angle_alpha                90
_cell_angle_beta                 110.6840(10)
_cell_angle_gamma                90
_cell_volume                     1321.91
loop_
_atom_site_label
_atom_site_type_symbol
_atom_site_fract_x
_atom_site_fract_y
_atom_site_fract_z
Zn1 Zn 0.31756(4) 0.257549(12) 0.54732(3)
O1 O 0.4554(3) 0.33380(8) 0.5314(2)
O2 O 0.1497(3) 0.37457(9) 0.5132(2)
N1 N 0.5122(3) 0.19437(9) 0.5117(2)
C1 C 0.4760(4) 0.16552(11) 0.3792(3)
H1 H 0.3439 0.1709 0.3012
C2 C 0.6216(4) 0.12858(11) 0.3512(3)
H2 H 0.5892 0.1094 0.2554
C3 C 0.8168(4) 0.11924(11) 0.4635(3)
C4 C 0.8513(4) 0.14821(12) 0.6026(3)
H3 H 0.9797 0.1424 0.6839
C5 C 0.7003(4) 0.18482(12) 0.6211(3)
H4 H 0.7289 0.2046 0.7157
C6 C 0.9750(4) 0.08191(12) 0.4353(3)
H5 H 0.9382 0.0625 0.3396
C7 C 1.1677(4) 0.07286(11) 0.5336(3)
H6 H 1.2024 0.0934 0.6279
C8 C 1.3336(4) 0.03467(11) 0.5132(3)
C9 C 1.3125(4) 0.00385(11) 0.3790(3)
H7 H 1.1843 0.0061 0.2958
C10 C 1.5248(4) 0.02971(11) 0.6339(3)
H8 H 1.5421 0.0500 0.7264
C11 C 0.3317(4) 0.37936(11) 0.5181(3)
C12 C 0.4211(4) 0.44163(11) 0.5087(3)
C13 C 0.3126(4) 0.49364(12) 0.5228(3)
H9 H 0.1840 0.4893 0.5391
C14 C 0.6109(4) 0.44816(11) 0.4865(3)
H10 H 0.6876 0.4130 0.4777
O3 O -0.2583(3) 0.26612(8) 0.2222(2)
O4 O 0.0648(3) 0.24254(8) 0.3670(2)
C15 C -0.1145(4) 0.26304(11) 0.3479(3)
H11 H -0.1422 0.2770 0.4341
O1B O 0.5446(3) 0.66620(8) 0.4686(2)
O2B O 0.8503(3) 0.62543(9) 0.4868(2)
C11B C 0.6683(4) 0.62064(11) 0.4819(3)
C12B C 0.5789(4) 0.55837(11) 0.4913(3)
C13B C 0.6874(4) 0.50636(12) 0.4772(3)
H9B H 0.8160 0.5107 0.4609
C14B C 0.3891(4) 0.55184(11) 0.5135(3)
H10B H 0.3124 0.5870 0.5223
N1B N 2.4878(3) -0.19437(9) 0.4883(2)
C1B C 2.5240(4) -0.16552(11) 0.6208(3)
H1B H 2.6561 -0.1709 0.6988
C2B C 2.3784(4) -0.12858(11) 0.6488(3)
H2B H 2.4108 -0.1094 0.7446
C3B C 2.1832(4) -0.11924(11) 0.5365(3)
C4B C 2.1487(4) -0.14821(12) 0.3974(3)
H3B H 2.0203 -0.1424 0.3161
C5B C 2.2997(4) -0.18482(12) 0.3789(3)
H4B H 2.2711 -0.2046 0.2843
C6B C 2.0250(4) -0.08191(12) 0.5647(3)
H5B H 2.0618 -0.0625 0.6604
C7B C 1.8323(4) -0.07286(11) 0.4664(3)
H6B H 1.7976 -0.0934 0.3721
C8B C 1.6664(4) -0.03467(11) 0.4868(3)
C9B C 1.6875(4) -0.00385(11) 0.6210(3)
H7B H 1.8157 -0.0061 0.7042
C10B C 1.4752(4) -0.02971(11) 0.3661(3)
H8B H 1.4579 -0.0500 0.2736
Zn1B Zn 0.68244(4) 0.742451(12) 0.45268(3)
O3B O 1.2583(3) 0.73388(8) 0.7778(2)
O4B O 0.9352(3) 0.75746(8) 0.6330(2)
C15B C 1.1145(4) 0.73696(11) 0.6521(3)
H11B H 1.1422 0.7230 0.5659
Zn1A Zn 1.18244(4) 0.757549(12) 0.95268(3)
Zn1B_2 Zn 2.68244(4) -0.257549(12) 0.45268(3)
Zn1C Zn -0.18244(4) 0.242451(12) 0.04732(3)
N1B_2 N 0.4878(3) 0.80563(9) 0.4883(2)
O3A O 0.7583(3) 0.76612(8) 0.2778(2)
O3C O 0.2417(3) 0.23388(8) 0.7222(2)
loop_
_geom_bond_atom_site_label_1
_geom_bond_atom_site_label_2
_geom_bond_site_symmetry_1
_geom_bond_site_symmetry_2
Zn1 O1 1_555 1_555
O1 C11 1_555 1_555
O2 C11 1_555 1_555
N1 Zn1 1_555 1_555
C1 N1 1_555 1_555
H1 C1 1_555 1_555
C2 C1 1_555 1_555
H2 C2 1_555 1_555
C3 C2 1_555 1_555
C4 C3 1_555 1_555
H3 C4 1_555 1_555
C5 N1 1_555 1_555
H4 C5 1_555 1_555
C6 C3 1_555 1_555
H5 C6 1_555 1_555
C7 C6 1_555 1_555
H6 C7 1_555 1_555
C8 C7 1_555 1_555
C9 C8 1_555 1_555
H7 C9 1_555 1_555
C10 C8 1_555 1_555
H8 C10 1_555 1_555
C11 C12 1_555 1_555
C12 C13 1_555 1_555
C13 H9 1_555 1_555
C14 C12 1_555 1_555
H10 C14 1_555 1_555
O3 C15 1_555 1_555
O4 Zn1 1_555 1_555
C15 O4 1_555 1_555
H11 C15 1_555 1_555
O1B C11B 1_555 1_555
O2B C11B 1_555 1_555
C11B C12B 1_555 1_555
C12B C13B 1_555 1_555
C13B C14 1_555 1_555
H9B C13B 1_555 1_555
C14B C13 1_555 1_555
H10B C14B 1_555 1_555
N1B C1B 1_555 1_555
C1B H1B 1_555 1_555
C2B C1B 1_555 1_555
H2B C2B 1_555 1_555
C3B C2B 1_555 1_555
C4B C3B 1_555 1_555
H3B C4B 1_555 1_555
C5B N1B 1_555 1_555
H4B C5B 1_555 1_555
C6B C3B 1_555 1_555
H5B C6B 1_555 1_555
C7B C6B 1_555 1_555
H6B C7B 1_555 1_555
C8B C7B 1_555 1_555
C9B C10 1_555 1_555
H7B C9B 1_555 1_555
C10B C9 1_555 1_555
H8B C10B 1_555 1_555
Zn1B O1B 1_555 1_555
O3B C15B 1_555 1_555
O4B Zn1B 1_555 1_555
C15B O4B 1_555 1_555
H11B C15B 1_555 1_555
Zn1A O3B 1_555 1_555
Zn1B_2 N1B 1_555 1_555
Zn1C O3 1_555 1_555
N1B_2 Zn1B 1_555 1_555
O3A Zn1B 1_555 1_555
O3C Zn1 1_555 1_555
C4 C5 1_555 1_555
C12B C14B 1_555 1_555
C4B C5B 1_555 1_555
C8B C9B 1_555 1_555
C8B C10B 1_555 1_555

#END
