
#######################################################################
#
#                 Cambridge Crystallographic Data Centre
#                                CCDC 
#
#######################################################################
#
# If this CIF has been generated from an entry in the Cambridge 
# Structural Database, then it will include bibliographic, chemical, 
# crystal, experimental, refinement or atomic coordinate data resulting 
# from the CCDC's data processing and validation procedures.
#
#######################################################################

data_GIWMUV
_symmetry_cell_setting           monoclinic
_symmetry_space_group_name_H-M   'C 2/c'
_symmetry_Int_Tables_number      15
_space_group_name_Hall           '-C 2yn'
loop_
_symmetry_equiv_pos_site_id
_symmetry_equiv_pos_as_xyz
1 x,y,z
2 1/2+x,1/2+y,z
3 -x,y,1/2-z
4 1/2-x,1/2+y,1/2-z
5 -x,-y,-z
6 1/2-x,1/2-y,-z
7 x,-y,1/2+z
8 1/2+x,1/2-y,1/2+z
_cell_length_a                   14.7762(3)
_cell_length_b                   13.3264(4)
_cell_length_c                   12.3879(3)
_cell_angle_alpha                90
_cell_angle_beta                 99.1826(16)
_cell_angle_gamma                90
_cell_volume                     2408.08
loop_
_atom_site_label
_atom_site_type_symbol
_atom_site_fract_x
_atom_site_fract_y
_atom_site_fract_z
Cd1 Cd 0.061510(11) 0.198293(14) 0.450363(13)
C1 C -0.0923(2) 0.2792(3) 0.5970(2)
H1 H -0.0573 0.2408 0.6508
C2 C -0.1659(3) 0.3297(3) 0.6242(3)
H2 H -0.1798 0.3265 0.6947
C3 C -0.2181(3) 0.3845(3) 0.5458(3)
H3 H -0.2686 0.4198 0.5618
C4 C -0.1955(2) 0.3878(2) 0.4414(3)
H4 H -0.2310 0.4243 0.3862
C5 C -0.11932(17) 0.3359(2) 0.4211(2)
C6 C -0.08982(17) 0.3385(2) 0.3121(2)
C7 C -0.06731(16) -0.0102(2) 0.37202(17)
C8 C 0.22371(17) 0.35034(19) 0.57519(19)
N1 N -0.06778(15) 0.28158(17) 0.49846(17)
N2 N -0.01040(14) 0.30286(14) 0.30318(16)
N3 N -0.1466(3) 0.3868(3) 0.2359(3)
N4 N -0.03342(15) 0.06713(19) 0.38539(17)
N5 N 0.15740(16) 0.33307(19) 0.5153(2)
S1 S 0.11873(5) 0.11953(5) 0.64702(5)
S2 S 0.18408(4) 0.12200(6) 0.33758(5)
C7D C 0.06731(16) 0.0102(2) 0.62798(17)
C8E C 0.27629(17) 0.14966(19) 0.42481(19)
N2B N 0.01040(14) 0.30286(14) 0.19682(16)
S1D S -0.11873(5) -0.11953(5) 0.35298(5)
S2E S 0.31592(4) 0.37800(6) 0.66242(5)
loop_
_geom_bond_atom_site_label_1
_geom_bond_atom_site_label_2
_geom_bond_site_symmetry_1
_geom_bond_site_symmetry_2
Cd1 N1 1_555 1_555
C1 H1 1_555 1_555
C2 C1 1_555 1_555
H2 C2 1_555 1_555
C3 C2 1_555 1_555
H3 C3 1_555 1_555
C4 C3 1_555 1_555
H4 C4 1_555 1_555
C5 C4 1_555 1_555
C6 C5 1_555 1_555
C7 N4 1_555 1_555
C8 N5 1_555 1_555
N1 C1 1_555 1_555
N2 Cd1 1_555 1_555
N3 C6 1_555 1_555
N4 Cd1 1_555 1_555
N5 Cd1 1_555 1_555
S1 Cd1 1_555 1_555
S2 Cd1 1_555 1_555
C7D S1 1_555 1_555
C8E S2 1_555 1_555
N2B N2 1_555 1_555
S1D C7 1_555 1_555
S2E C8 1_555 1_555
C5 N1 1_555 1_555
C6 N2 1_555 1_555

#END
