
#######################################################################
#
#                 Cambridge Crystallographic Data Centre
#                                CCDC 
#
#######################################################################
#
# If this CIF has been generated from an entry in the Cambridge 
# Structural Database, then it will include bibliographic, chemical, 
# crystal, experimental, refinement or atomic coordinate data resulting 
# from the CCDC's data processing and validation procedures.
#
#######################################################################

data_GIWMOP
_symmetry_cell_setting           monoclinic
_symmetry_space_group_name_H-M   'C 2/c'
_symmetry_Int_Tables_number      15
_space_group_name_Hall           '-C 2yn'
loop_
_symmetry_equiv_pos_site_id
_symmetry_equiv_pos_as_xyz
1 x,y,z
2 1/2+x,1/2+y,z
3 -x,y,1/2-z
4 1/2-x,1/2+y,1/2-z
5 -x,-y,-z
6 1/2-x,1/2-y,-z
7 x,-y,1/2+z
8 1/2+x,1/2-y,1/2+z
_cell_length_a                   14.7746(3)
_cell_length_b                   13.3995(3)
_cell_length_c                   12.3716(2)
_cell_angle_alpha                90
_cell_angle_beta                 99.1901(12)
_cell_angle_gamma                90
_cell_volume                     2417.79
loop_
_atom_site_label
_atom_site_type_symbol
_atom_site_fract_x
_atom_site_fract_y
_atom_site_fract_z
Cd1 Cd 0.438991(12) 0.197981(15) 0.051389(15)
C1 C 0.5908(3) 0.2771(3) -0.0981(3)
H1 H 0.5556 0.2383 -0.1513
C2 C 0.6648(3) 0.3287(4) -0.1252(4)
H2 H 0.6789 0.3253 -0.1958
C3 C 0.7171(3) 0.3849(4) -0.0469(4)
H3 H 0.7676 0.4198 -0.0630
C4 C 0.6938(3) 0.3891(3) 0.0563(3)
H4 H 0.7285 0.4270 0.1108
C5 C 0.61880(19) 0.3367(2) 0.0783(2)
C6 C 0.58929(19) 0.3398(2) 0.1868(2)
C7 C 0.56742(18) -0.0102(2) 0.1281(2)
C8 C 0.27667(19) 0.3501(2) -0.0757(2)
N1 N 0.56789(17) 0.2811(2) 0.0019(2)
N2 N 0.51025(16) 0.30296(16) 0.19645(19)
N3 N 0.6456(3) 0.3870(3) 0.2646(3)
H5 H 0.6304 0.3953 0.3283
H6 H 0.6973 0.4094 0.2513
N4 N 0.53335(18) 0.0667(2) 0.1160(2)
N5 N 0.34274(18) 0.3320(2) -0.0157(2)
S1 S 0.61880(6) -0.11975(6) 0.14614(6)
S2 S 0.18430(5) 0.37814(6) -0.16328(6)
Cd1B Cd 0.561009(12) 0.197981(15) 0.448611(15)
Cd1D Cd 0.561009(12) -0.197981(15) -0.051389(15)
Cd1E Cd 0.061009(12) 0.302019(15) -0.051389(15)
C1B C 0.4092(3) 0.2771(3) 0.5981(3)
H1B H 0.4444 0.2383 0.6513
C2B C 0.3352(3) 0.3287(4) 0.6252(4)
H2B H 0.3211 0.3253 0.6958
C3B C 0.2829(3) 0.3849(4) 0.5469(4)
H3B H 0.2324 0.4198 0.5630
C4B C 0.3062(3) 0.3891(3) 0.4437(3)
H4B H 0.2715 0.4270 0.3892
C5B C 0.38120(19) 0.3367(2) 0.4217(2)
C6B C 0.41071(19) 0.3398(2) 0.3132(2)
C7D C 0.43258(18) 0.0102(2) -0.1281(2)
C8E C 0.22333(19) 0.1499(2) 0.0757(2)
N1B N 0.43211(17) 0.2811(2) 0.4981(2)
N2B N 0.48975(16) 0.30296(16) 0.30355(19)
N3B N 0.3544(3) 0.3870(3) 0.2354(3)
H5B H 0.3696 0.3953 0.1717
H6B H 0.3027 0.4094 0.2487
N4D N 0.46665(18) -0.0667(2) -0.1160(2)
N4B N 0.46665(18) 0.0667(2) 0.3840(2)
N5E N 0.15726(18) 0.1680(2) 0.0157(2)
N5B N 0.65726(18) 0.3320(2) 0.5157(2)
S1D S 0.38120(6) 0.11975(6) -0.14614(6)
S1F S 0.61880(6) 0.11975(6) 0.64614(6)
S2E S 0.31570(5) 0.12186(6) 0.16328(6)
S2G S 0.68430(5) 0.12186(6) 0.33672(6)
loop_
_geom_bond_atom_site_label_1
_geom_bond_atom_site_label_2
_geom_bond_site_symmetry_1
_geom_bond_site_symmetry_2
Cd1 N1 1_555 1_555
C1 H1 1_555 1_555
C2 C1 1_555 1_555
H2 C2 1_555 1_555
C3 C2 1_555 1_555
H3 C3 1_555 1_555
C4 C3 1_555 1_555
H4 C4 1_555 1_555
C5 C4 1_555 1_555
C6 C5 1_555 1_555
C7 N4 1_555 1_555
C8 N5 1_555 1_555
N1 C1 1_555 1_555
N2 Cd1 1_555 1_555
N3 C6 1_555 1_555
H5 N3 1_555 1_555
H6 N3 1_555 1_555
N4 Cd1 1_555 1_555
N5 Cd1 1_555 1_555
S1 C7 1_555 1_555
S2 C8 1_555 1_555
Cd1B N1B 1_555 1_555
Cd1D S1 1_555 1_555
Cd1E S2 1_555 1_555
C1B H1B 1_555 1_555
C2B C1B 1_555 1_555
H2B C2B 1_555 1_555
C3B C2B 1_555 1_555
H3B C3B 1_555 1_555
C4B C3B 1_555 1_555
H4B C4B 1_555 1_555
C5B C4B 1_555 1_555
C6B C5B 1_555 1_555
C7D N4D 1_555 1_555
C8E N5E 1_555 1_555
N1B C1B 1_555 1_555
N2B N2 1_555 1_555
N3B C6B 1_555 1_555
H5B N3B 1_555 1_555
H6B N3B 1_555 1_555
N4D Cd1D 1_555 1_555
N4B Cd1B 1_555 1_555
N5E Cd1E 1_555 1_555
N5B Cd1B 1_555 1_555
S1D Cd1 1_555 1_555
S1F Cd1B 1_555 1_555
S2E Cd1 1_555 1_555
S2G Cd1B 1_555 1_555
C5 N1 1_555 1_555
C6 N2 1_555 1_555
Cd1B N2B 1_555 1_555
C5B N1B 1_555 1_555
C6B N2B 1_555 1_555
C7D S1D 1_555 1_555
C8E S2E 1_555 1_555

#END
