
#######################################################################
#
#                 Cambridge Crystallographic Data Centre
#                                CCDC 
#
#######################################################################
#
# If this CIF has been generated from an entry in the Cambridge 
# Structural Database, then it will include bibliographic, chemical, 
# crystal, experimental, refinement or atomic coordinate data resulting 
# from the CCDC's data processing and validation procedures.
#
#######################################################################

data_GIWNEG
_symmetry_cell_setting           triclinic
_symmetry_space_group_name_H-M   'P -1'
_symmetry_Int_Tables_number      2
_space_group_name_Hall           '-P 1'
loop_
_symmetry_equiv_pos_site_id
_symmetry_equiv_pos_as_xyz
1 x,y,z
2 -x,-y,-z
_cell_length_a                   8.2167(2)
_cell_length_b                   10.6885(2)
_cell_length_c                   11.0136(3)
_cell_angle_alpha                62.2961(12)
_cell_angle_beta                 85.7301(12)
_cell_angle_gamma                89.7380(17)
_cell_volume                     853.504
loop_
_atom_site_label
_atom_site_type_symbol
_atom_site_fract_x
_atom_site_fract_y
_atom_site_fract_z
Cd1 Cd -0.758461(19) -0.346336(17) 1.555814(17)
C1 C -1.0258(3) -0.3702(3) 1.8082(3)
H1 H -1.0347 -0.4639 1.8258
C2 C -1.1212(3) -0.3282(3) 1.8899(3)
H2 H -1.1936 -0.3920 1.9605
C3 C -1.1078(3) -0.1914(3) 1.8657(3)
H3 H -1.1698 -0.1608 1.9204
C4 C -1.0008(3) -0.0985(3) 1.7585(3)
H4 H -0.9902 -0.0046 1.7401
C5 C -0.9097(3) -0.1470(2) 1.6790(2)
C6 C -0.7988(3) -0.0522(2) 1.5577(2)
C7 C -0.5381(3) -0.0504(3) 1.3030(2)
H5 H -0.5381 -0.1469 1.3308
C8 C -0.4391(3) 0.0472(2) 1.1783(2)
C9 C -0.4432(3) 0.1914(3) 1.1295(3)
H6 H -0.5091 0.2283 1.1766
C10 C -0.3500(4) 0.2813(3) 1.0113(3)
H7 H -0.3539 0.3785 0.9790
C11 C -0.2526(4) 0.2291(3) 0.9414(3)
H8 H -0.1908 0.2906 0.8613
C12 C -0.2456(4) 0.0872(4) 0.9886(3)
H9 H -0.1774 0.0516 0.9416
C13 C -0.3401(4) -0.0053(3) 1.1073(3)
H10 H -0.3363 -0.1024 1.1385
C14 C -1.0666(3) -0.3347(2) 1.3627(3)
C15 C -0.5970(3) -0.4890(3) 1.3647(2)
N1 N -0.9212(2) -0.2826(2) 1.7050(2)
N2 N -0.7175(2) -0.10747(19) 1.48872(19)
N3 N -0.6244(2) -0.0044(2) 1.3738(2)
N4 N -0.7889(2) 0.0841(2) 1.5248(2)
H11 H -0.7264 0.1413 1.4547
H12 H -0.8451 0.1150 1.5737
N5 N -0.9919(3) -0.3003(3) 1.4268(3)
N6 N -0.6450(3) -0.4061(2) 1.3961(2)
S1 S -1.17616(9) -0.37779(7) 1.26802(7)
S2 S -0.52865(8) -0.60682(7) 1.31770(8)
Cd1A Cd -1.241539(19) -0.653664(17) 1.444186(17)
Cd1A_2 Cd -0.241539(19) -0.653664(17) 1.444186(17)
S1A S -0.82384(9) -0.62221(7) 1.73198(7)
S2A S -0.47135(8) -0.39318(7) 1.68230(8)
loop_
_geom_bond_atom_site_label_1
_geom_bond_atom_site_label_2
_geom_bond_site_symmetry_1
_geom_bond_site_symmetry_2
Cd1 N1 1_555 1_555
C1 H1 1_555 1_555
C2 C1 1_555 1_555
H2 C2 1_555 1_555
C3 C2 1_555 1_555
H3 C3 1_555 1_555
C4 C3 1_555 1_555
H4 C4 1_555 1_555
C5 C4 1_555 1_555
C6 C5 1_555 1_555
C7 H5 1_555 1_555
C8 C7 1_555 1_555
C9 C8 1_555 1_555
H6 C9 1_555 1_555
C10 C9 1_555 1_555
H7 C10 1_555 1_555
C11 C10 1_555 1_555
H8 C11 1_555 1_555
C12 C11 1_555 1_555
H9 C12 1_555 1_555
C13 C8 1_555 1_555
H10 C13 1_555 1_555
C14 N5 1_555 1_555
C15 N6 1_555 1_555
N1 C1 1_555 1_555
N2 Cd1 1_555 1_555
N3 C7 1_555 1_555
N4 C6 1_555 1_555
H11 N4 1_555 1_555
H12 N4 1_555 1_555
N5 Cd1 1_555 1_555
N6 Cd1 1_555 1_555
S1 C14 1_555 1_555
S2 C15 1_555 1_555
Cd1A S1 1_555 1_555
Cd1A_2 S2 1_555 1_555
S1A Cd1 1_555 1_555
S2A Cd1 1_555 1_555
C5 N1 1_555 1_555
C6 N2 1_555 1_555
C12 C13 1_555 1_555
N2 N3 1_555 1_555

#END
