
#######################################################################
#
#                 Cambridge Crystallographic Data Centre
#                                CCDC 
#
#######################################################################
#
# If this CIF has been generated from an entry in the Cambridge 
# Structural Database, then it will include bibliographic, chemical, 
# crystal, experimental, refinement or atomic coordinate data resulting 
# from the CCDC's data processing and validation procedures.
#
#######################################################################

data_GIWPOT
_symmetry_cell_setting           triclinic
_symmetry_space_group_name_H-M   'P -1'
_symmetry_Int_Tables_number      2
_space_group_name_Hall           '-P 1'
loop_
_symmetry_equiv_pos_site_id
_symmetry_equiv_pos_as_xyz
1 x,y,z
2 -x,-y,-z
_cell_length_a                   7.0760(11)
_cell_length_b                   9.7609(12)
_cell_length_c                   9.8297(9)
_cell_angle_alpha                63.661(11)
_cell_angle_beta                 73.793(11)
_cell_angle_gamma                71.727(13)
_cell_volume                     569.884
loop_
_atom_site_label
_atom_site_type_symbol
_atom_site_fract_x
_atom_site_fract_y
_atom_site_fract_z
Pb1 Pb 0.47325(3) 0.35758(2) 0.90551(2)
O1 O 1.2855(5) -0.4183(4) 1.0182(4)
O2 O 1.1271(6) -0.6141(4) 1.1342(5)
C1 C 0.9040(8) -0.2232(6) 1.1015(6)
C2 C 1.1390(8) -0.4803(6) 1.1092(6)
O3 O 0.5224(6) 0.1123(4) 1.1463(5)
O4 O 0.6840(6) -0.5906(4) 1.6377(4)
C3 C 0.7431(8) -0.1371(6) 1.1706(6)
O5 O 0.7223(6) 0.0932(4) 0.9383(4)
C4 C 0.7310(7) -0.3662(6) 1.4075(6)
C5 C 0.6576(8) 0.0347(7) 1.0789(6)
O6 O 0.5408(6) -0.3577(5) 1.6450(5)
C6 C 0.8833(8) -0.4540(6) 1.3349(6)
C7 C 0.9720(7) -0.3832(6) 1.1836(6)
C8 C 0.6432(8) -0.4432(7) 1.5758(6)
C9 C 0.6621(8) -0.2093(7) 1.3243(6)
H1 H 0.961(7) -0.169(6) 0.995(6)
H2 H 0.574(8) -0.146(6) 1.356(6)
H3 H 0.919(9) -0.542(8) 1.383(7)
Pb1_2 Pb 0.47325(3) -0.64242(2) 1.90551(2)
Pb1_3 Pb 1.47325(3) -0.64242(2) 0.90551(2)
Pb1A Pb 1.52675(3) -0.35758(2) 1.09449(2)
O1_2 O 0.2855(5) 0.5817(4) 1.0182(4)
O1A O 0.7145(5) 0.4183(4) 0.9818(4)
O2_2 O 0.1271(6) 0.3859(4) 1.1342(5)
O4_2 O 0.6840(6) 0.4094(4) 0.6377(4)
O6_2 O 0.5408(6) 0.6423(5) 0.6450(5)
Zn1 Zn 0.0000 1.0000 0.5000
O7 O 0.1071(6) 0.8733(5) 0.3591(5)
O8 O 0.2710(6) 1.0848(5) 0.4179(5)
O9 O 0.1290(6) 0.8116(5) 0.6821(5)
O7A O -0.1071(6) 1.1267(5) 0.6409(5)
O8A O -0.2710(6) 0.9152(5) 0.5821(5)
O9A O -0.1290(6) 1.1884(5) 0.3179(5)
loop_
_geom_bond_atom_site_label_1
_geom_bond_atom_site_label_2
_geom_bond_site_symmetry_1
_geom_bond_site_symmetry_2
Pb1 O3 1_555 1_555
O1 C2 1_555 1_555
O2 C2 1_555 1_555
C1 C3 1_555 1_555
C2 C7 1_555 1_555
O3 C5 1_555 1_555
O4 C8 1_555 1_555
C3 C5 1_555 1_555
O5 Pb1 1_555 1_555
C4 C6 1_555 1_555
C5 O5 1_555 1_555
O6 C8 1_555 1_555
C6 C7 1_555 1_555
C7 C1 1_555 1_555
C8 C4 1_555 1_555
C9 C3 1_555 1_555
H1 C1 1_555 1_555
H2 C9 1_555 1_555
H3 C6 1_555 1_555
Zn1 O7 1_555 1_555
O8 Zn1 1_555 1_555
O9 Zn1 1_555 1_555
Pb1_2 O4 1_555 1_555
Pb1_3 O1 1_555 1_555
Pb1A O1 1_555 1_555
O1_2 Pb1 1_555 1_555
O1A Pb1 1_555 1_555
O2_2 Pb1 1_555 1_555
O4_2 Pb1 1_555 1_555
O6_2 Pb1 1_555 1_555
O7A Zn1 1_555 1_555
O8A Zn1 1_555 1_555
O9A Zn1 1_555 1_555
O2 Pb1_3 1_555 1_555
C4 C9 1_555 1_555
O6 Pb1_2 1_555 1_555

#END
