
#######################################################################
#
#                 Cambridge Crystallographic Data Centre
#                                CCDC 
#
#######################################################################
#
# If this CIF has been generated from an entry in the Cambridge 
# Structural Database, then it will include bibliographic, chemical, 
# crystal, experimental, refinement or atomic coordinate data resulting 
# from the CCDC's data processing and validation procedures.
#
#######################################################################

data_GIWPUZ
_symmetry_cell_setting           monoclinic
_symmetry_space_group_name_H-M   'P 21/a'
_symmetry_Int_Tables_number      14
_space_group_name_Hall           '-P 2yab'
loop_
_symmetry_equiv_pos_site_id
_symmetry_equiv_pos_as_xyz
1 x,y,z
2 1/2-x,1/2+y,-z
3 -x,-y,-z
4 1/2+x,1/2-y,z
_cell_length_a                   6.5478(3)
_cell_length_b                   16.1021(6)
_cell_length_c                   10.2812(5)
_cell_angle_alpha                90
_cell_angle_beta                 105.351(5)
_cell_angle_gamma                90
_cell_volume                     1045.31
loop_
_atom_site_label
_atom_site_type_symbol
_atom_site_fract_x
_atom_site_fract_y
_atom_site_fract_z
Pb1 Pb 0.05066(6) -0.15216(2) 0.69714(4)
Cd1 Cd 0.0000 0.5000 0.5000
O1 O -0.1456(13) -0.0009(5) 0.6185(8)
O2 O 0.0720(14) -0.0255(5) 0.8176(8)
C1 C 0.0415(18) 0.1386(7) 0.9036(11)
H1 H 0.0734 0.0991 0.9720
C2 C -0.0284(14) 0.1146(6) 0.7663(11)
C3 C -0.0936(16) 0.3226(7) 0.5873(11)
C4 C 0.0143(14) 0.2816(6) 0.8320(9)
H2 H 0.0311 0.3377 0.8541
C5 C -0.0795(15) 0.1730(6) 0.6653(10)
H3 H -0.1285 0.1562 0.5759
C6 C -0.0414(16) 0.0222(6) 0.7316(11)
C7 C -0.0576(15) 0.2583(6) 0.6972(11)
O3 O -0.0647(12) 0.3956(4) 0.6236(8)
O4 O -0.1464(13) 0.2969(5) 0.4659(8)
C8 C 0.0608(14) 0.2230(6) 0.9328(10)
C9 C 0.1501(16) 0.2517(7) 1.0731(11)
O5 O 0.1844(12) 0.2000(6) 1.1707(8)
O6 O 0.1975(14) 0.3268(5) 1.0937(8)
O7 O -0.0574(13) 0.5930(6) 0.6666(9)
Pb1B Pb -0.05066(6) 0.15216(2) 1.30286(4)
O1B O 0.1456(13) 0.0009(5) 1.3815(8)
O2B O -0.0720(14) 0.0255(5) 1.1824(8)
C1B C -0.0415(18) -0.1386(7) 1.0964(11)
H1B H -0.0734 -0.0991 1.0280
C2B C 0.0284(14) -0.1146(6) 1.2337(11)
C3B C 0.0936(16) -0.3226(7) 1.4127(11)
C4B C -0.0143(14) -0.2816(6) 1.1680(9)
H2B H -0.0311 -0.3377 1.1459
C5B C 0.0795(15) -0.1730(6) 1.3347(10)
H3B H 0.1285 -0.1562 1.4241
C6B C 0.0414(16) -0.0222(6) 1.2684(11)
C7B C 0.0576(15) -0.2583(6) 1.3028(11)
O3B O 0.0647(12) -0.3956(4) 1.3764(8)
O4B O 0.1464(13) -0.2969(5) 1.5341(8)
C8B C -0.0608(14) -0.2230(6) 1.0672(10)
C9B C -0.1501(16) -0.2517(7) 0.9269(11)
O5B O -0.1844(12) -0.2000(6) 0.8293(8)
O6B O -0.1975(14) -0.3268(5) 0.9063(8)
O7C O 0.4426(13) -0.0930(6) 0.6666(9)
Pb1A Pb -0.55066(6) 0.34784(2) 0.30286(4)
Pb1A_2 Pb 0.44934(6) 0.34784(2) 1.30286(4)
Pb1C Pb -0.44934(6) -0.34784(2) 0.69714(4)
Pb1C_2 Pb -0.44934(6) 0.65216(2) 0.69714(4)
Pb1C_3 Pb 0.55066(6) -0.34784(2) 1.69714(4)
Cd1_2 Cd 0.0000 -0.5000 1.5000
Cd1A Cd -0.5000 0.0000 0.5000
Cd1A_2 Cd 0.5000 0.0000 0.5000
Cd1A_3 Cd 0.5000 0.0000 1.5000
O1A O -0.3544(13) 0.4991(5) 0.3815(8)
O1C O 0.3544(13) 0.5009(5) 0.6185(8)
O3B_2 O 0.0647(12) 0.6044(4) 0.3764(8)
O4A O -0.3536(13) -0.2031(5) 0.5341(8)
O4C O 0.3536(13) 0.2031(5) 1.4659(8)
O6A O 0.3025(14) -0.1732(5) 0.9063(8)
O6C O -0.3025(14) 0.1732(5) 1.0937(8)
O7A O -0.4426(13) 0.0930(6) 1.3334(9)
O7B O 0.0574(13) 0.4070(6) 0.3334(9)
O8 O 0.094(2) 0.5009(11) 0.8911(17)
loop_
_geom_bond_atom_site_label_1
_geom_bond_atom_site_label_2
_geom_bond_site_symmetry_1
_geom_bond_site_symmetry_2
Pb1 O1 1_555 1_555
Cd1 O3 1_555 1_555
O1 C6 1_555 1_555
O2 Pb1 1_555 1_555
C1 H1 1_555 1_555
C2 C1 1_555 1_555
C3 C7 1_555 1_555
C4 H2 1_555 1_555
C5 C2 1_555 1_555
H3 C5 1_555 1_555
C6 O2 1_555 1_555
C7 C4 1_555 1_555
O3 C3 1_555 1_555
O4 C3 1_555 1_555
C8 C1 1_555 1_555
C9 C8 1_555 1_555
O5 C9 1_555 1_555
O6 C9 1_555 1_555
O7 Cd1 1_555 1_555
Pb1B O5 1_555 1_555
O1B Pb1B 1_555 1_555
O2B Pb1B 1_555 1_555
C1B H1B 1_555 1_555
C2B C1B 1_555 1_555
C3B C7B 1_555 1_555
C4B H2B 1_555 1_555
C5B C2B 1_555 1_555
H3B C5B 1_555 1_555
C6B O1B 1_555 1_555
C7B C4B 1_555 1_555
O3B C3B 1_555 1_555
O4B C3B 1_555 1_555
C8B C1B 1_555 1_555
C9B C8B 1_555 1_555
O5B Pb1 1_555 1_555
O6B C9B 1_555 1_555
O7C Pb1 1_555 1_555
Pb1A O4 1_555 1_555
Pb1A_2 O6 1_555 1_555
Pb1C O6B 1_555 1_555
Pb1C_2 O7 1_555 1_555
Pb1C_3 O4B 1_555 1_555
Cd1_2 O3B 1_555 1_555
Cd1A O1 1_555 1_555
Cd1A_2 O7C 1_555 1_555
Cd1A_3 O1B 1_555 1_555
O1A Cd1 1_555 1_555
O1C Cd1 1_555 1_555
O3B_2 Cd1 1_555 1_555
O4A Pb1 1_555 1_555
O4C Pb1B 1_555 1_555
O6A Pb1 1_555 1_555
O6C Pb1B 1_555 1_555
O7A Pb1B 1_555 1_555
O7B Cd1 1_555 1_555
C2 C6 1_555 1_555
C4 C8 1_555 1_555
C5 C7 1_555 1_555
O2B C6B 1_555 1_555
C2B C6B 1_555 1_555
C4B C8B 1_555 1_555
C5B C7B 1_555 1_555
C9B O5B 1_555 1_555
Pb1A O1A 1_555 1_555

#END
