
#######################################################################
#
#                 Cambridge Crystallographic Data Centre
#                                CCDC 
#
#######################################################################
#
# If this CIF has been generated from an entry in the Cambridge 
# Structural Database, then it will include bibliographic, chemical, 
# crystal, experimental, refinement or atomic coordinate data resulting 
# from the CCDC's data processing and validation procedures.
#
#######################################################################

data_GIWPEJ
_symmetry_cell_setting           monoclinic
_symmetry_space_group_name_H-M   'P 21/c'
_symmetry_Int_Tables_number      14
_space_group_name_Hall           '-P 2ybc'
loop_
_symmetry_equiv_pos_site_id
_symmetry_equiv_pos_as_xyz
1 x,y,z
2 -x,1/2+y,1/2-z
3 -x,-y,-z
4 x,1/2-y,1/2+z
_cell_length_a                   13.2595(16)
_cell_length_b                   10.1405(13)
_cell_length_c                   21.134(3)
_cell_angle_alpha                90
_cell_angle_beta                 92.917(2)
_cell_angle_gamma                90
_cell_volume                     2837.95
loop_
_atom_site_label
_atom_site_type_symbol
_atom_site_fract_x
_atom_site_fract_y
_atom_site_fract_z
Co1 Co 0.31973(4) 0.08640(5) 0.07265(2)
C1 C 0.2751(3) -0.1689(4) 0.07905(17)
O1 O 0.3628(2) -0.1701(3) 0.06125(14)
N1 N 0.4841(2) 0.0453(3) 0.24280(14)
N2 N 0.4314(2) 0.0766(3) 0.14196(14)
O2 O 0.22970(19) -0.0632(2) 0.09289(13)
C2 C 0.2177(3) -0.2964(3) 0.08362(16)
C3 C 0.2575(3) 0.4231(4) 0.43176(18)
C4 C 0.1140(3) -0.2970(4) 0.09014(18)
H1 H 0.0797 -0.2173 0.0929
C5 C 0.2684(3) -0.4141(4) 0.08033(17)
H2 H 0.3377 -0.4138 0.0754
C6 C 0.4108(3) 0.0965(4) 0.34478(19)
H3 H 0.4095 0.0667 0.3883
H4 H 0.3430 0.0880 0.3258
C7 C 0.5600(3) 0.1181(4) 0.21463(18)
C8 C 0.4048(3) 0.3396(4) 0.44839(18)
H5 H 0.4656 0.3123 0.4680
C9 C 0.7105(3) 0.2358(4) 0.19728(19)
C10 C 0.6507(3) 0.1688(4) 0.23881(18)
H6 H 0.6710 0.1585 0.2813
C11 C 0.1656(3) 0.4871(4) 0.4362(2)
H7 H 0.1474 0.5219 0.4747
C12 C 0.2215(3) 0.3787(5) 0.3209(2)
H8 H 0.2399 0.3423 0.2828
C13 C 0.5258(3) 0.1357(4) 0.15184(17)
C14 C 0.6784(3) 0.2514(4) 0.13306(18)
C15 C 0.4409(3) 0.2403(4) 0.34442(19)
H9 H 0.5118 0.2482 0.3576
H10 H 0.4319 0.2746 0.3017
C16 C 0.8096(3) 0.2946(5) 0.2227(2)
H11 H 0.8188 0.2758 0.2671
H12 H 0.8085 0.3883 0.2163
H13 H 0.8642 0.2568 0.2007
C17 C 0.5864(3) 0.2014(4) 0.11024(17)
H14 H 0.5655 0.2115 0.0678
N3 N 0.3805(2) 0.3189(3) 0.38692(15)
C18 C 0.2852(3) 0.3712(4) 0.37501(19)
C19 C 0.7432(3) 0.3233(5) 0.0875(2)
H15 H 0.7105 0.3225 0.0460
H16 H 0.8076 0.2803 0.0864
H17 H 0.7528 0.4128 0.1014
C20 C 0.4118(3) 0.0254(4) 0.19704(19)
H18 H 0.3527 -0.0208 0.2038
C21 C 0.4809(3) 0.0081(4) 0.30963(17)
H19 H 0.5484 0.0135 0.3294
H20 H 0.4582 -0.0826 0.3126
C22 C 0.0029(3) 0.5722(6) 0.3870(3)
H21 H -0.0065 0.5971 0.4301
H22 H -0.0518 0.5165 0.3721
H23 H 0.0043 0.6499 0.3611
C23 C 0.1016(3) 0.4985(5) 0.3833(3)
C24 C 0.1294(4) 0.4424(5) 0.3256(3)
C25 C 0.0588(4) 0.4485(7) 0.2660(3)
H24 H 0.0831 0.3899 0.2345
H25 H 0.0571 0.5369 0.2498
H26 H -0.0080 0.4224 0.2763
N4 N 0.3348(2) 0.4021(3) 0.47840(14)
C26 C 0.0607(3) -0.4147(4) 0.0927(2)
C27 C 0.1139(3) -0.5319(4) 0.0899(2)
H27 H 0.0792 -0.6114 0.0918
C28 C -0.0531(3) -0.4130(5) 0.0973(3)
H28 H -0.0835 -0.4713 0.0661
H29 H -0.0779 -0.3250 0.0901
H30 H -0.0699 -0.4416 0.1388
C29 C 0.2179(3) -0.5337(4) 0.08421(18)
C30 C 0.2753(4) -0.6606(4) 0.0809(2)
O3 O 0.2268(2) -0.7666(3) 0.09079(14)
O4 O 0.3658(2) -0.6611(3) 0.06866(15)
Co1_2 Co 0.31973(4) -0.91360(5) 0.07265(2)
Co1C Co 0.31973(4) 0.41360(5) 0.57265(2)
N4C N 0.3348(2) 0.0979(3) -0.02160(14)
O3_2 O 0.2268(2) 0.2334(3) 0.09079(14)
O5 O 0.5000 0.0000 0.5000
H31 H 0.5017 0.0558 0.5300
H31B H 0.4983 -0.0558 0.4700
H32? H 0.5592 -0.0129 0.4877
loop_
_geom_bond_atom_site_label_1
_geom_bond_atom_site_label_2
_geom_bond_site_symmetry_1
_geom_bond_site_symmetry_2
Co1 N2 1_555 1_555
C1 O1 1_555 1_555
N1 C7 1_555 1_555
N2 C13 1_555 1_555
O2 Co1 1_555 1_555
C2 C1 1_555 1_555
C3 C11 1_555 1_555
C4 C2 1_555 1_555
H1 C4 1_555 1_555
C5 C2 1_555 1_555
H2 C5 1_555 1_555
C6 H3 1_555 1_555
H4 C6 1_555 1_555
C7 C10 1_555 1_555
C8 H5 1_555 1_555
C9 C10 1_555 1_555
C10 H6 1_555 1_555
C11 H7 1_555 1_555
C12 H8 1_555 1_555
C13 C7 1_555 1_555
C14 C9 1_555 1_555
C15 C6 1_555 1_555
H9 C15 1_555 1_555
H10 C15 1_555 1_555
C16 C9 1_555 1_555
H11 C16 1_555 1_555
H12 C16 1_555 1_555
H13 C16 1_555 1_555
C17 C13 1_555 1_555
H14 C17 1_555 1_555
N3 C8 1_555 1_555
C18 C3 1_555 1_555
C19 C14 1_555 1_555
H15 C19 1_555 1_555
H16 C19 1_555 1_555
H17 C19 1_555 1_555
C20 N1 1_555 1_555
H18 C20 1_555 1_555
C21 N1 1_555 1_555
H19 C21 1_555 1_555
H20 C21 1_555 1_555
C22 H21 1_555 1_555
H22 C22 1_555 1_555
H23 C22 1_555 1_555
C23 C11 1_555 1_555
C24 C12 1_555 1_555
C25 C24 1_555 1_555
H24 C25 1_555 1_555
H25 C25 1_555 1_555
H26 C25 1_555 1_555
N4 C3 1_555 1_555
C26 C4 1_555 1_555
C27 C26 1_555 1_555
H27 C27 1_555 1_555
C28 C26 1_555 1_555
H28 C28 1_555 1_555
H29 C28 1_555 1_555
H30 C28 1_555 1_555
C29 C5 1_555 1_555
C30 C29 1_555 1_555
O3 C30 1_555 1_555
O4 C30 1_555 1_555
O5 H31 1_555 1_555
Co1_2 O3 1_555 1_555
Co1C N4 1_555 1_555
N4C Co1 1_555 1_555
O3_2 Co1 1_555 1_555
H31B O5 1_555 1_555
C1 O2 1_555 1_555
N2 C20 1_555 1_555
C6 C21 1_555 1_555
C8 N4 1_555 1_555
C12 C18 1_555 1_555
C14 C17 1_555 1_555
C15 N3 1_555 1_555
N3 C18 1_555 1_555
C22 C23 1_555 1_555
C23 C24 1_555 1_555
C27 C29 1_555 1_555

#END
