
#######################################################################
#
#                 Cambridge Crystallographic Data Centre
#                                CCDC 
#
#######################################################################
#
# If this CIF has been generated from an entry in the Cambridge 
# Structural Database, then it will include bibliographic, chemical, 
# crystal, experimental, refinement or atomic coordinate data resulting 
# from the CCDC's data processing and validation procedures.
#
#######################################################################

data_GIWPIN
_symmetry_cell_setting           triclinic
_symmetry_space_group_name_H-M   'P -1'
_symmetry_Int_Tables_number      2
_space_group_name_Hall           '-P 1'
loop_
_symmetry_equiv_pos_site_id
_symmetry_equiv_pos_as_xyz
1 x,y,z
2 -x,-y,-z
_cell_length_a                   12.2034(13)
_cell_length_b                   15.8289(13)
_cell_length_c                   16.2361(13)
_cell_angle_alpha                105.9470(10)
_cell_angle_beta                 94.6610(10)
_cell_angle_gamma                107.0880(10)
_cell_volume                     2837.32
loop_
_atom_site_label
_atom_site_type_symbol
_atom_site_fract_x
_atom_site_fract_y
_atom_site_fract_z
Co1 Co 0.37965(5) 0.90347(4) 0.70331(4)
Co2 Co 0.53728(5) 0.63348(4) 0.70562(4)
C1 C 0.2409(4) 0.0381(3) 0.6913(3)
N1 N 0.3939(3) 0.9700(3) 0.8317(2)
N2 N 0.4028(3) 1.3053(3) 1.1645(3)
C2 C 0.6827(4) 0.4175(3) 0.6738(3)
N3 N 0.3434(3) 1.0112(3) 0.9623(3)
N4 N 0.3609(4) 0.1334(3) 0.6349(3)
O1 O 0.7848(3) 0.7376(3) 0.7032(3)
O2 O 0.5254(3) 0.9237(2) 0.6559(2)
N5 N 0.5934(3) 0.3805(3) 0.6014(3)
O3 O 0.6055(3) 0.7192(2) 0.6437(2)
O4 O 0.1772(3) 0.8028(2) 0.7171(3)
N6 N 0.5849(3) 0.5190(2) 0.6736(3)
O5 O 0.3728(3) 0.6178(2) 0.7117(2)
C3 C 0.4810(4) 1.0484(3) 0.8859(3)
N7 N 0.3247(3) -0.0023(3) 0.6629(3)
O6 O 0.6284(3) 0.9029(3) 0.7641(2)
O7 O 0.3126(3) 0.7665(2) 0.6501(2)
O8 O 0.3499(3) 0.5585(3) 0.5698(3)
C4 C 0.5657(5) 0.2908(3) 0.5323(3)
H1 H 0.6355 0.2870 0.5091
H2 H 0.5085 0.2875 0.4853
C5 C 0.5285(4) 1.1490(3) 1.0363(3)
H3 H 0.5085 1.1651 1.0911
C6 C 0.4523(4) 1.0743(3) 0.9681(3)
N8 N 0.2923(4) 1.2090(3) 1.0399(3)
C7 C 0.7560(4) 0.9802(4) 0.6008(3)
C8 C 0.3128(4) 1.2312(3) 1.1264(3)
H4 H 0.2670 1.1969 1.1568
O9 O 0.7124(4) 1.1022(3) 0.6891(3)
C9 C 0.5398(4) 0.4442(3) 0.6056(3)
H5 H 0.4770 0.4361 0.5643
C10 C 0.3922(4) 0.0565(3) 0.6306(3)
H6 H 0.4559 0.0468 0.6067
C11 C 0.5855(4) 1.1024(3) 0.8686(3)
H7 H 0.6042 1.0881 0.8131
C12 C 0.3139(4) 0.9505(3) 0.8809(3)
H8 H 0.2449 0.9004 0.8612
C13 C 0.2684(4) 1.0110(3) 1.0281(3)
H9 H 0.3143 1.0515 1.0842
H10 H 0.2384 0.9486 1.0319
C14 C 0.2125(5) 0.7432(3) 0.6719(3)
C15 C 0.1462(4) 0.0071(3) 0.7305(3)
H11 H 0.1285 -0.0499 0.7408
C16 C 0.6143(4) 0.9120(3) 0.6921(3)
C17 C 0.6776(4) 0.5035(3) 0.7176(3)
C18 C 0.7665(4) 0.3839(4) 0.7026(4)
H12 H 0.7683 0.3252 0.6726
N9 N 0.7138(4) 1.0598(3) 0.6156(4)
C19 C 0.6313(4) 1.1971(3) 1.0211(3)
C20 C 0.8464(4) 0.4387(4) 0.7760(4)
C21 C 0.7154(5) 0.7602(4) 0.6618(3)
C22 C 0.7101(4) 0.9105(3) 0.6385(3)
C23 C 0.3123(4) 0.5826(3) 0.6365(4)
C24 C 0.7599(4) 0.5599(3) 0.7913(3)
H13 H 0.7579 0.6186 0.8208
C25 C 0.7593(4) 0.8392(3) 0.6264(3)
C26 C 0.2640(4) 0.1210(4) 0.6745(3)
C27 C 0.1829(4) 0.5691(3) 0.6307(3)
C28 C 0.5181(5) 0.2086(3) 0.5659(3)
H14 H 0.5026 0.1510 0.5190
H15 H 0.5763 0.2108 0.6115
C29 C 0.7195(4) 1.2769(3) 1.0951(4)
H16 H 0.6862 1.2862 1.1471
H17 H 0.7388 1.3329 1.0793
H18 H 0.7888 1.2615 1.1054
C30 C 0.1022(5) 0.4803(3) 0.6091(4)
C31 C 0.8484(4) 0.8396(4) 0.5780(4)
H19 H 0.8815 0.7927 0.5708
C32 C 0.1384(4) 0.6427(3) 0.6447(3)
C33 C 0.3762(4) 1.2746(3) 1.0186(3)
C34 C 0.8440(4) 0.5283(4) 0.8202(4)
C35 C 0.5441(5) 1.4077(4) 1.0967(4)
H20 H 0.5911 1.4492 1.1485
C36 C 0.1972(5) 0.1803(4) 0.6976(4)
H21 H 0.2141 0.2367 0.6862
C37 C 0.4469(4) 1.3357(3) 1.0961(3)
C38 C 0.4080(5) 0.2093(3) 0.6012(4)
H22 H 0.4237 0.2676 0.6472
H23 H 0.3499 0.2066 0.5551
C39 C 0.6586(4) 1.1762(4) 0.9350(4)
C40 C -0.0256(4) 0.0289(4) 0.7964(4)
H24 H -0.0279 -0.0300 0.8029
H25 H -0.0963 0.0216 0.7604
H26 H -0.0178 0.0728 0.8525
C41 C 0.0787(4) 0.0646(4) 0.7537(3)
C42 C 0.1043(5) 0.1490(4) 0.7387(4)
C43 C 0.1669(4) 1.0435(4) 1.0075(4)
H27 H 0.1094 0.9934 0.9616
H28 H 0.1309 1.0552 1.0587
C44 C 0.0184(4) 0.6248(4) 0.6330(3)
H29 H -0.0096 0.6748 0.6439
C45 C 0.1978(4) 1.1294(3) 0.9798(3)
H30 H 0.1290 1.1475 0.9738
H31 H 0.2203 1.1144 0.9231
C46 C -0.0601(5) 0.5358(4) 0.6057(4)
H32 H -0.1399 0.5250 0.5949
N10 N 0.1414(6) 0.4004(4) 0.6021(4)
O10 O 0.2337(5) 0.4106(3) 0.6439(5)
C47 C 0.8402(5) 0.9791(4) 0.5503(4)
H33 H 0.8642 1.0244 0.5233
C48 C 0.8887(5) 0.9095(4) 0.5403(4)
H34 H 0.9485 0.9091 0.5082
C49 C -0.0166(5) 0.4642(4) 0.5953(4)
H35 H -0.0677 0.4035 0.5786
O11 O 0.0729(5) 0.3224(3) 0.5600(4)
C50 C 0.9398(5) 0.4040(5) 0.8068(5)
H36 H 0.9377 0.3478 0.7637
H37 H 0.9265 0.3915 0.8604
H38 H 1.0147 0.4504 0.8160
C51 C 0.9362(5) 0.5906(4) 0.8994(5)
H39 H 1.0121 0.5988 0.8840
H40 H 0.9295 0.5623 0.9448
H41 H 0.9253 0.6501 0.9194
C52 C 0.7719(5) 1.2354(4) 0.9171(4)
H42 H 0.7796 1.2093 0.8579
H43 H 0.8365 1.2364 0.9557
H44 H 0.7709 1.2977 0.9264
O12 O 0.6838(7) 1.0793(5) 0.5538(4)
C53 C 0.5687(5) 1.4154(4) 1.0164(4)
C54 C 0.6804(6) 1.4955(4) 1.0173(5)
H45 H 0.6609 1.5308 0.9823
H46 H 0.7116 1.5355 1.0760
H47 H 0.7374 1.4694 0.9941
C55 C 0.0324(6) 0.2124(5) 0.7662(5)
H48 H 0.0693 0.2713 0.7580
H49 H 0.0267 0.2216 0.8264
H50 H -0.0442 0.1843 0.7314
C56 C 0.5291(7) 1.3616(5) 0.8509(4)
H51 H 0.5822 1.3283 0.8345
H52 H 0.4594 1.3349 0.8078
H53 H 0.5647 1.4257 0.8552
C57 C 0.4992(6) 1.3552(4) 0.9375(4)
C58 C 0.4015(5) 1.2825(4) 0.9383(4)
H54 H 0.3545 1.2406 0.8867
Co1_2 Co 0.37965(5) -0.09653(4) 0.70331(4)
Co2A Co 0.46272(5) 1.36652(4) 1.29438(4)
N2A N 0.5972(3) 0.6947(3) 0.8355(3)
N7_2 N 0.3247(3) 0.9977(3) 0.6629(3)
O13 O -0.0020(4) 0.8119(4) 0.8251(3)
H55 H -0.0710(17) 0.786(4) 0.796(3)
H56 H 0.046(3) 0.800(5) 0.792(3)
loop_
_geom_bond_atom_site_label_1
_geom_bond_atom_site_label_2
_geom_bond_site_symmetry_1
_geom_bond_site_symmetry_2
Co1 N1 1_555 1_555
Co2 O3 1_555 1_555
C1 N7 1_555 1_555
N1 C3 1_555 1_555
N2 C8 1_555 1_555
C2 N5 1_555 1_555
N3 C6 1_555 1_555
N4 C10 1_555 1_555
O1 C21 1_555 1_555
O2 Co1 1_555 1_555
N5 C4 1_555 1_555
O3 C21 1_555 1_555
O4 C14 1_555 1_555
N6 Co2 1_555 1_555
O5 Co2 1_555 1_555
C3 C6 1_555 1_555
N7 C10 1_555 1_555
O6 C16 1_555 1_555
O7 Co1 1_555 1_555
O8 C23 1_555 1_555
C4 H1 1_555 1_555
H2 C4 1_555 1_555
C5 H3 1_555 1_555
C6 C5 1_555 1_555
N8 C8 1_555 1_555
C7 N9 1_555 1_555
C8 H4 1_555 1_555
O9 N9 1_555 1_555
C9 N5 1_555 1_555
H5 C9 1_555 1_555
C10 H6 1_555 1_555
C11 C3 1_555 1_555
H7 C11 1_555 1_555
C12 N1 1_555 1_555
H8 C12 1_555 1_555
C13 N3 1_555 1_555
H9 C13 1_555 1_555
H10 C13 1_555 1_555
C14 O7 1_555 1_555
C15 C1 1_555 1_555
H11 C15 1_555 1_555
C16 O2 1_555 1_555
C17 C2 1_555 1_555
C18 C2 1_555 1_555
H12 C18 1_555 1_555
N9 O12 1_555 1_555
C19 C5 1_555 1_555
C20 C18 1_555 1_555
C21 C25 1_555 1_555
C22 C7 1_555 1_555
C23 O5 1_555 1_555
C24 C17 1_555 1_555
H13 C24 1_555 1_555
C25 C22 1_555 1_555
C26 C1 1_555 1_555
C27 C23 1_555 1_555
C28 C4 1_555 1_555
H14 C28 1_555 1_555
H15 C28 1_555 1_555
C29 C19 1_555 1_555
H16 C29 1_555 1_555
H17 C29 1_555 1_555
H18 C29 1_555 1_555
C30 C27 1_555 1_555
C31 C25 1_555 1_555
H19 C31 1_555 1_555
C32 C14 1_555 1_555
C33 N8 1_555 1_555
C34 C20 1_555 1_555
C35 H20 1_555 1_555
C36 C26 1_555 1_555
H21 C36 1_555 1_555
C37 N2 1_555 1_555
C38 N4 1_555 1_555
H22 C38 1_555 1_555
H23 C38 1_555 1_555
C39 C11 1_555 1_555
C40 H24 1_555 1_555
H25 C40 1_555 1_555
H26 C40 1_555 1_555
C41 C15 1_555 1_555
C42 C36 1_555 1_555
C43 C13 1_555 1_555
H27 C43 1_555 1_555
H28 C43 1_555 1_555
C44 C32 1_555 1_555
H29 C44 1_555 1_555
C45 N8 1_555 1_555
H30 C45 1_555 1_555
H31 C45 1_555 1_555
C46 C44 1_555 1_555
H32 C46 1_555 1_555
N10 C30 1_555 1_555
O10 N10 1_555 1_555
C47 C7 1_555 1_555
H33 C47 1_555 1_555
C48 C31 1_555 1_555
H34 C48 1_555 1_555
C49 C30 1_555 1_555
H35 C49 1_555 1_555
O11 N10 1_555 1_555
C50 C20 1_555 1_555
H36 C50 1_555 1_555
H37 C50 1_555 1_555
H38 C50 1_555 1_555
C51 C34 1_555 1_555
H39 C51 1_555 1_555
H40 C51 1_555 1_555
H41 C51 1_555 1_555
C52 C39 1_555 1_555
H42 C52 1_555 1_555
H43 C52 1_555 1_555
H44 C52 1_555 1_555
C53 C35 1_555 1_555
C54 C53 1_555 1_555
H45 C54 1_555 1_555
H46 C54 1_555 1_555
H47 C54 1_555 1_555
C55 C42 1_555 1_555
H48 C55 1_555 1_555
H49 C55 1_555 1_555
H50 C55 1_555 1_555
C56 H51 1_555 1_555
H52 C56 1_555 1_555
H53 C56 1_555 1_555
C57 C53 1_555 1_555
C58 C33 1_555 1_555
H54 C58 1_555 1_555
O13 H55 1_555 1_555
H56 O13 1_555 1_555
Co1_2 N7 1_555 1_555
Co2A N2 1_555 1_555
N2A Co2 1_555 1_555
N7_2 Co1 1_555 1_555
N3 C12 1_555 1_555
N4 C26 1_555 1_555
N6 C9 1_555 1_555
N6 C17 1_555 1_555
C16 C22 1_555 1_555
C19 C39 1_555 1_555
C24 C34 1_555 1_555
C27 C32 1_555 1_555
C28 C38 1_555 1_555
C33 C37 1_555 1_555
C35 C37 1_555 1_555
C40 C41 1_555 1_555
C41 C42 1_555 1_555
C43 C45 1_555 1_555
C46 C49 1_555 1_555
C47 C48 1_555 1_555
C56 C57 1_555 1_555
C57 C58 1_555 1_555

#END
