
#######################################################################
#
#                 Cambridge Crystallographic Data Centre
#                                CCDC 
#
#######################################################################
#
# If this CIF has been generated from an entry in the Cambridge 
# Structural Database, then it will include bibliographic, chemical, 
# crystal, experimental, refinement or atomic coordinate data resulting 
# from the CCDC's data processing and validation procedures.
#
#######################################################################

data_GIWQUA
_symmetry_cell_setting           triclinic
_symmetry_space_group_name_H-M   'P -1'
_symmetry_Int_Tables_number      2
_space_group_name_Hall           '-P 1'
loop_
_symmetry_equiv_pos_site_id
_symmetry_equiv_pos_as_xyz
1 x,y,z
2 -x,-y,-z
_cell_length_a                   13.5536(18)
_cell_length_b                   13.8804(18)
_cell_length_c                   18.116(2)
_cell_angle_alpha                94.116(3)
_cell_angle_beta                 98.276(3)
_cell_angle_gamma                109.383(2)
_cell_volume                     3155.3
loop_
_atom_site_label
_atom_site_type_symbol
_atom_site_fract_x
_atom_site_fract_y
_atom_site_fract_z
Co1 Co 0.53722(10) 0.02133(9) 0.09124(7)
Co2 Co 0.62794(10) 0.24924(10) 0.13355(7)
Co3 Co 0.41054(10) 0.18399(11) 0.18090(7)
S1 S 0.6900(2) -0.0956(2) 0.14310(14)
S2 S 0.8214(2) 0.3216(2) 0.26227(14)
S3 S 0.4243(2) 0.2489(2) 0.35211(14)
S4 S 0.3197(2) -0.1722(2) 0.26034(15)
O1 O 0.4934(5) -0.0524(5) 0.1771(3)
O2 O 0.6717(5) 0.1249(5) 0.1585(3)
O3 O 0.5735(5) 0.2443(5) 0.2353(3)
O4 O 0.3870(5) 0.0602(5) 0.2384(4)
O5 O 0.6322(5) -0.0724(5) 0.0755(3)
O6 O 0.7560(6) -0.1572(5) 0.1295(4)
O7 O 0.7807(5) 0.3440(5) 0.1889(3)
O8 O 0.9246(5) 0.3909(5) 0.2966(3)
O9 O 0.3760(5) 0.2562(5) 0.2753(3)
O10 O 0.3973(5) 0.3026(5) 0.4121(3)
O11 O 0.2701(5) -0.1599(5) 0.1866(4)
O12 O 0.2614(6) -0.2583(5) 0.2948(4)
O13 O 0.5895(6) 0.3733(5) 0.1067(4)
O14 O 0.4239(6) 0.3221(6) 0.1343(4)
O15 O 0.4149(5) -0.0791(5) 0.0097(3)
O16 O 0.3180(5) -0.2427(5) -0.0309(4)
O17 O 0.4761(4) 0.1358(5) 0.0981(3)
C1 C 0.5123(8) -0.1290(8) 0.2077(5)
C2 C 0.4441(9) -0.1879(7) 0.2535(5)
C3 C 0.4661(10) -0.2657(8) 0.2871(6)
H1 H 0.4183 -0.3032 0.3171
C4 C 0.5537(12) -0.2924(9) 0.2796(7)
C5 C 0.6201(10) -0.2383(8) 0.2335(6)
H2 H 0.6807 -0.2552 0.2262
C6 C 0.5998(8) -0.1603(7) 0.1981(5)
C7 C 0.5752(14) -0.3782(11) 0.3208(8)
C8 C 0.5749(13) -0.3629(11) 0.4006(7)
H3 H 0.5543 -0.4297 0.4197
H4 H 0.5241 -0.3288 0.4093
H5 H 0.6462 -0.3198 0.4268
C9 C 0.4675(13) -0.4787(10) 0.2897(8)
H6 H 0.4359 -0.4714 0.2392
H7 H 0.4164 -0.4835 0.3236
H8 H 0.4860 -0.5413 0.2877
C10 C 0.6550(14) -0.4100(11) 0.2955(8)
H9 H 0.7251 -0.3586 0.3161
H10 H 0.6440 -0.4170 0.2404
H11 H 0.6512 -0.4765 0.3124
C11 C 0.7530(7) 0.1152(8) 0.2015(5)
C12 C 0.7750(8) 0.0224(8) 0.1992(5)
C13 C 0.8644(8) 0.0131(9) 0.2432(6)
H12 H 0.8748 -0.0513 0.2393
C14 C 0.9371(9) 0.0934(11) 0.2916(6)
C15 C 0.9165(8) 0.1826(9) 0.2970(6)
H13 H 0.9636 0.2385 0.3324
C16 C 0.8295(7) 0.1971(8) 0.2531(5)
C17 C 1.0388(12) 0.0831(15) 0.3341(10)
C18 C 0.9962(11) -0.0178(14) 0.3786(9)
H14 H 0.9659 -0.0802 0.3421
H15 H 0.9415 -0.0104 0.4063
H16 H 1.0557 -0.0228 0.4139
C19 C 1.0988(11) 0.0490(14) 0.2843(9)
H17 H 1.1481 0.1089 0.2673
H18 H 1.0498 0.0038 0.2406
H19 H 1.1390 0.0112 0.3112
C20 C 1.0902(11) 0.1609(13) 0.3977(9)
H20 H 1.1342 0.1358 0.4336
H21 H 1.0363 0.1765 0.4220
H22 H 1.1351 0.2234 0.3807
C21 C 0.6201(8) 0.2869(7) 0.3036(5)
C22 C 0.7355(8) 0.3280(7) 0.3250(5)
C23 C 0.7834(9) 0.3815(7) 0.3965(5)
H23 H 0.8588 0.4090 0.4081
C24 C 0.7267(9) 0.3965(8) 0.4516(5)
C25 C 0.6183(8) 0.3529(7) 0.4332(5)
H24 H 0.5769 0.3604 0.4699
C26 C 0.5661(8) 0.2980(7) 0.3630(5)
C27 C 0.7838(12) 0.4638(10) 0.5260(7)
C28 C 0.8618(11) 0.4107(10) 0.5669(7)
H25 H 0.9122 0.4595 0.6083
H26 H 0.9009 0.3909 0.5306
H27 H 0.8199 0.3493 0.5868
C29 C 0.8578(11) 0.5707(9) 0.5103(7)
H28 H 0.8627 0.6239 0.5507
H29 H 0.8283 0.5870 0.4622
H30 H 0.9288 0.5682 0.5083
C30 C 0.7143(11) 0.4783(10) 0.5790(7)
H31 H 0.6694 0.5151 0.5566
H32 H 0.7584 0.5185 0.6261
H33 H 0.6692 0.4110 0.5893
C31 C 0.3743(7) 0.0414(8) 0.3046(5)
C32 C 0.3854(7) 0.1165(7) 0.3651(5)
C33 C 0.3624(7) 0.0934(8) 0.4359(5)
H34 H 0.3712 0.1487 0.4733
C34 C 0.3281(7) -0.0043(8) 0.4538(5)
C35 C 0.3198(7) -0.0822(8) 0.3963(5)
H35 H 0.2991 -0.1515 0.4068
C36 C 0.3407(7) -0.0621(8) 0.3248(5)
C37 C 0.2992(9) -0.0331(9) 0.5287(6)
C38 C 0.3795(9) -0.0777(9) 0.5694(6)
H36 H 0.3916 -0.1275 0.5338
H37 H 0.3508 -0.1122 0.6110
H38 H 0.4468 -0.0218 0.5891
C39 C 0.1896(9) -0.1195(9) 0.5199(6)
H39 H 0.1357 -0.0995 0.4892
H40 H 0.1708 -0.1305 0.5697
H41 H 0.1929 -0.1834 0.4954
C40 C 0.2979(10) 0.0552(9) 0.5796(6)
H42 H 0.3674 0.1103 0.5875
H43 H 0.2825 0.0326 0.6280
H44 H 0.2429 0.0808 0.5569
C41 C 0.5027(11) 0.3834(9) 0.1112(6)
C42 C 0.3528(8) -0.1674(8) 0.0188(6)
C43 C 0.2118(11) 0.1738(12) 0.0716(8)
H45 H 0.2461 0.2459 0.0732
C44 C 0.1126(11) 0.1224(13) 0.0230(8)
H46 H 0.0864 0.1607 -0.0112
C45 C 0.0535(9) 0.0232(11) 0.0226(7)
C46 C 0.1022(10) -0.0288(11) 0.0647(7)
H47 H 0.0705 -0.1013 0.0624
C47 C 0.2008(9) 0.0241(8) 0.1125(6)
H48 H 0.2278 -0.0150 0.1456
N1 N 0.2573(7) 0.1190(7) 0.1158(5)
C43A C -0.2118(11) -0.1738(12) -0.0716(8)
H45A H -0.2461 -0.2459 -0.0732
C44A C -0.1126(11) -0.1224(13) -0.0230(8)
H46A H -0.0864 -0.1607 0.0112
C45A C -0.0535(9) -0.0232(11) -0.0226(7)
C46A C -0.1022(10) 0.0288(11) -0.0647(7)
H47A H -0.0705 0.1013 -0.0624
C47A C -0.2008(9) -0.0241(8) -0.1125(6)
H48A H -0.2278 0.0150 -0.1456
N1A N -0.2573(7) -0.1190(7) -0.1158(5)
Co1A Co -0.53722(10) -0.02133(9) -0.09124(7)
Co2A Co -0.62794(10) -0.24924(10) -0.13355(7)
Co3A Co -0.41054(10) -0.18399(11) -0.18090(7)
S1A S -0.6900(2) 0.0956(2) -0.14310(14)
S2A S -0.8214(2) -0.3216(2) -0.26227(14)
S3A S -0.4243(2) -0.2489(2) -0.35211(14)
S4A S -0.3197(2) 0.1722(2) -0.26034(15)
O1A O -0.4934(5) 0.0524(5) -0.1771(3)
O2A O -0.6717(5) -0.1249(5) -0.1585(3)
O3A O -0.5735(5) -0.2443(5) -0.2353(3)
O4A O -0.3870(5) -0.0602(5) -0.2384(4)
O5A O -0.6322(5) 0.0724(5) -0.0755(3)
O6A O -0.7560(6) 0.1572(5) -0.1295(4)
O7A O -0.7807(5) -0.3440(5) -0.1889(3)
O8A O -0.9246(5) -0.3909(5) -0.2966(3)
O9A O -0.3760(5) -0.2562(5) -0.2753(3)
O10A O -0.3973(5) -0.3026(5) -0.4121(3)
O11A O -0.2701(5) 0.1599(5) -0.1866(4)
O12A O -0.2614(6) 0.2583(5) -0.2948(4)
O13A O -0.5895(6) -0.3733(5) -0.1067(4)
O14A O -0.4239(6) -0.3221(6) -0.1343(4)
O15A O -0.4149(5) 0.0791(5) -0.0097(3)
O16A O -0.3180(5) 0.2427(5) 0.0309(4)
O17A O -0.4761(4) -0.1358(5) -0.0981(3)
C1A C -0.5123(8) 0.1290(8) -0.2077(5)
C2A C -0.4441(9) 0.1879(7) -0.2535(5)
C3A C -0.4661(10) 0.2657(8) -0.2871(6)
H1A H -0.4183 0.3032 -0.3171
C4A C -0.5537(12) 0.2924(9) -0.2796(7)
C5A C -0.6201(10) 0.2383(8) -0.2335(6)
H2A H -0.6807 0.2552 -0.2262
C6A C -0.5998(8) 0.1603(7) -0.1981(5)
C7A C -0.5752(14) 0.3782(11) -0.3208(8)
C8A C -0.5749(13) 0.3629(11) -0.4006(7)
H3A H -0.5543 0.4297 -0.4197
H4A H -0.5241 0.3288 -0.4093
H5A H -0.6462 0.3198 -0.4268
C9A C -0.4675(13) 0.4787(10) -0.2897(8)
H6A H -0.4359 0.4714 -0.2392
H7A H -0.4164 0.4835 -0.3236
H8A H -0.4860 0.5413 -0.2877
C10A C -0.6550(14) 0.4100(11) -0.2955(8)
H9A H -0.7251 0.3586 -0.3161
H10A H -0.6440 0.4170 -0.2404
H11A H -0.6512 0.4765 -0.3124
C11A C -0.7530(7) -0.1152(8) -0.2015(5)
C12A C -0.7750(8) -0.0224(8) -0.1992(5)
C13A C -0.8644(8) -0.0131(9) -0.2432(6)
H12A H -0.8748 0.0513 -0.2393
C14A C -0.9371(9) -0.0934(11) -0.2916(6)
C15A C -0.9165(8) -0.1826(9) -0.2970(6)
H13A H -0.9636 -0.2385 -0.3324
C16A C -0.8295(7) -0.1971(8) -0.2531(5)
C17A C -1.0388(12) -0.0831(15) -0.3341(10)
C18A C -0.9962(11) 0.0178(14) -0.3786(9)
H14A H -0.9659 0.0802 -0.3421
H15A H -0.9415 0.0104 -0.4063
H16A H -1.0557 0.0228 -0.4139
C19A C -1.0988(11) -0.0490(14) -0.2843(9)
H17A H -1.1481 -0.1089 -0.2673
H18A H -1.0498 -0.0038 -0.2406
H19A H -1.1390 -0.0112 -0.3112
C20A C -1.0902(11) -0.1609(13) -0.3977(9)
H20A H -1.1342 -0.1358 -0.4336
H21A H -1.0363 -0.1765 -0.4220
H22A H -1.1351 -0.2234 -0.3807
C21A C -0.6201(8) -0.2869(7) -0.3036(5)
C22A C -0.7355(8) -0.3280(7) -0.3250(5)
C23A C -0.7834(9) -0.3815(7) -0.3965(5)
H23A H -0.8588 -0.4090 -0.4081
C24A C -0.7267(9) -0.3965(8) -0.4516(5)
C25A C -0.6183(8) -0.3529(7) -0.4332(5)
H24A H -0.5769 -0.3604 -0.4699
C26A C -0.5661(8) -0.2980(7) -0.3630(5)
C27A C -0.7838(12) -0.4638(10) -0.5260(7)
C28A C -0.8618(11) -0.4107(10) -0.5669(7)
H25A H -0.9122 -0.4595 -0.6083
H26A H -0.9009 -0.3909 -0.5306
H27A H -0.8199 -0.3493 -0.5868
C29A C -0.8578(11) -0.5707(9) -0.5103(7)
H28A H -0.8627 -0.6239 -0.5507
H29A H -0.8283 -0.5870 -0.4622
H30A H -0.9288 -0.5682 -0.5083
C30A C -0.7143(11) -0.4783(10) -0.5790(7)
H31A H -0.6694 -0.5151 -0.5566
H32A H -0.7584 -0.5185 -0.6261
H33A H -0.6692 -0.4110 -0.5893
C31A C -0.3743(7) -0.0414(8) -0.3046(5)
C32A C -0.3854(7) -0.1165(7) -0.3651(5)
C33A C -0.3624(7) -0.0934(8) -0.4359(5)
H34A H -0.3712 -0.1487 -0.4733
C34A C -0.3281(7) 0.0043(8) -0.4538(5)
C35A C -0.3198(7) 0.0822(8) -0.3963(5)
H35A H -0.2991 0.1515 -0.4068
C36A C -0.3407(7) 0.0621(8) -0.3248(5)
C37A C -0.2992(9) 0.0331(9) -0.5287(6)
C38A C -0.3795(9) 0.0777(9) -0.5694(6)
H36A H -0.3916 0.1275 -0.5338
H37A H -0.3508 0.1122 -0.6110
H38A H -0.4468 0.0218 -0.5891
C39A C -0.1896(9) 0.1195(9) -0.5199(6)
H39A H -0.1357 0.0995 -0.4892
H40A H -0.1708 0.1305 -0.5697
H41A H -0.1929 0.1834 -0.4954
C40A C -0.2979(10) -0.0552(9) -0.5796(6)
H42A H -0.3674 -0.1103 -0.5875
H43A H -0.2825 -0.0326 -0.6280
H44A H -0.2429 -0.0808 -0.5569
C41A C -0.5027(11) -0.3834(9) -0.1112(6)
C42A C -0.3528(8) 0.1674(8) -0.0188(6)
Co1_2 Co -0.46278(10) 0.02133(9) 0.09124(7)
Co1A_2 Co 0.46278(10) -0.02133(9) -0.09124(7)
Co2_2 Co -0.37206(10) 0.24924(10) 0.13355(7)
Co2A_2 Co 0.37206(10) -0.24924(10) -0.13355(7)
O15_2 O -0.5851(5) -0.0791(5) 0.0097(3)
O15A_2 O 0.5851(5) 0.0791(5) -0.0097(3)
O16_2 O -0.6820(5) -0.2427(5) -0.0309(4)
O16A_2 O 0.6820(5) 0.2427(5) 0.0309(4)
loop_
_geom_bond_atom_site_label_1
_geom_bond_atom_site_label_2
_geom_bond_site_symmetry_1
_geom_bond_site_symmetry_2
Co1 Co2 1_555 1_555
Co2 Co3 1_555 1_555
Co3 O3 1_555 1_555
S1 O5 1_555 1_555
S2 O7 1_555 1_555
S3 O9 1_555 1_555
S4 O11 1_555 1_555
O1 Co1 1_555 1_555
O2 Co1 1_555 1_555
O3 Co2 1_555 1_555
O4 Co3 1_555 1_555
O5 Co1 1_555 1_555
O6 S1 1_555 1_555
O7 Co2 1_555 1_555
O8 S2 1_555 1_555
O9 Co3 1_555 1_555
O10 S3 1_555 1_555
O12 S4 1_555 1_555
O13 Co2 1_555 1_555
O14 Co3 1_555 1_555
O15 Co1 1_555 1_555
O16 C42 1_555 1_555
O17 Co1 1_555 1_555
C1 O1 1_555 1_555
C2 S4 1_555 1_555
C3 C2 1_555 1_555
H1 C3 1_555 1_555
C4 C3 1_555 1_555
C5 C4 1_555 1_555
H2 C5 1_555 1_555
C6 S1 1_555 1_555
C7 C4 1_555 1_555
C8 C7 1_555 1_555
H3 C8 1_555 1_555
H4 C8 1_555 1_555
H5 C8 1_555 1_555
C9 C7 1_555 1_555
H6 C9 1_555 1_555
H7 C9 1_555 1_555
H8 C9 1_555 1_555
C10 C7 1_555 1_555
H9 C10 1_555 1_555
H10 C10 1_555 1_555
H11 C10 1_555 1_555
C11 O2 1_555 1_555
C12 S1 1_555 1_555
C13 C12 1_555 1_555
H12 C13 1_555 1_555
C14 C13 1_555 1_555
C15 C14 1_555 1_555
H13 C15 1_555 1_555
C16 S2 1_555 1_555
C17 C14 1_555 1_555
C18 C17 1_555 1_555
H14 C18 1_555 1_555
H15 C18 1_555 1_555
H16 C18 1_555 1_555
C19 C17 1_555 1_555
H17 C19 1_555 1_555
H18 C19 1_555 1_555
H19 C19 1_555 1_555
C20 C17 1_555 1_555
H20 C20 1_555 1_555
H21 C20 1_555 1_555
H22 C20 1_555 1_555
C21 O3 1_555 1_555
C22 S2 1_555 1_555
C23 C22 1_555 1_555
H23 C23 1_555 1_555
C24 C23 1_555 1_555
C25 C24 1_555 1_555
H24 C25 1_555 1_555
C26 S3 1_555 1_555
C27 C24 1_555 1_555
C28 C27 1_555 1_555
H25 C28 1_555 1_555
H26 C28 1_555 1_555
H27 C28 1_555 1_555
C29 C27 1_555 1_555
H28 C29 1_555 1_555
H29 C29 1_555 1_555
H30 C29 1_555 1_555
C30 C27 1_555 1_555
H31 C30 1_555 1_555
H32 C30 1_555 1_555
H33 C30 1_555 1_555
C31 O4 1_555 1_555
C32 S3 1_555 1_555
C33 C32 1_555 1_555
H34 C33 1_555 1_555
C34 C33 1_555 1_555
C35 C34 1_555 1_555
H35 C35 1_555 1_555
C36 S4 1_555 1_555
C37 C34 1_555 1_555
C38 C37 1_555 1_555
H36 C38 1_555 1_555
H37 C38 1_555 1_555
H38 C38 1_555 1_555
C39 C37 1_555 1_555
H39 C39 1_555 1_555
H40 C39 1_555 1_555
H41 C39 1_555 1_555
C40 C37 1_555 1_555
H42 C40 1_555 1_555
H43 C40 1_555 1_555
H44 C40 1_555 1_555
C41 O13 1_555 1_555
C42 O15 1_555 1_555
C43 H45 1_555 1_555
C44 C43 1_555 1_555
H46 C44 1_555 1_555
C45 C44 1_555 1_555
C46 C45 1_555 1_555
H47 C46 1_555 1_555
C47 C46 1_555 1_555
H48 C47 1_555 1_555
N1 Co3 1_555 1_555
C43A H45A 1_555 1_555
C44A C43A 1_555 1_555
H46A C44A 1_555 1_555
C45A C45 1_555 1_555
C46A C45A 1_555 1_555
H47A C46A 1_555 1_555
C47A C46A 1_555 1_555
H48A C47A 1_555 1_555
N1A C43A 1_555 1_555
Co1A Co2A 1_555 1_555
Co2A Co3A 1_555 1_555
Co3A N1A 1_555 1_555
S1A O5A 1_555 1_555
S2A O7A 1_555 1_555
S3A O9A 1_555 1_555
S4A O11A 1_555 1_555
O1A Co1A 1_555 1_555
O2A Co1A 1_555 1_555
O3A Co2A 1_555 1_555
O4A Co3A 1_555 1_555
O5A Co1A 1_555 1_555
O6A S1A 1_555 1_555
O7A Co2A 1_555 1_555
O8A S2A 1_555 1_555
O9A Co3A 1_555 1_555
O10A S3A 1_555 1_555
O12A S4A 1_555 1_555
O13A Co2A 1_555 1_555
O14A Co3A 1_555 1_555
O15A Co1A 1_555 1_555
O16A C42A 1_555 1_555
O17A Co1A 1_555 1_555
C1A O1A 1_555 1_555
C2A S4A 1_555 1_555
C3A C2A 1_555 1_555
H1A C3A 1_555 1_555
C4A C3A 1_555 1_555
C5A C4A 1_555 1_555
H2A C5A 1_555 1_555
C6A S1A 1_555 1_555
C7A C4A 1_555 1_555
C8A C7A 1_555 1_555
H3A C8A 1_555 1_555
H4A C8A 1_555 1_555
H5A C8A 1_555 1_555
C9A C7A 1_555 1_555
H6A C9A 1_555 1_555
H7A C9A 1_555 1_555
H8A C9A 1_555 1_555
C10A C7A 1_555 1_555
H9A C10A 1_555 1_555
H10A C10A 1_555 1_555
H11A C10A 1_555 1_555
C11A O2A 1_555 1_555
C12A S1A 1_555 1_555
C13A C12A 1_555 1_555
H12A C13A 1_555 1_555
C14A C13A 1_555 1_555
C15A C14A 1_555 1_555
H13A C15A 1_555 1_555
C16A S2A 1_555 1_555
C17A C14A 1_555 1_555
C18A C17A 1_555 1_555
H14A C18A 1_555 1_555
H15A C18A 1_555 1_555
H16A C18A 1_555 1_555
C19A C17A 1_555 1_555
H17A C19A 1_555 1_555
H18A C19A 1_555 1_555
H19A C19A 1_555 1_555
C20A C17A 1_555 1_555
H20A C20A 1_555 1_555
H21A C20A 1_555 1_555
H22A C20A 1_555 1_555
C21A O3A 1_555 1_555
C22A S2A 1_555 1_555
C23A C22A 1_555 1_555
H23A C23A 1_555 1_555
C24A C23A 1_555 1_555
C25A C24A 1_555 1_555
H24A C25A 1_555 1_555
C26A S3A 1_555 1_555
C27A C24A 1_555 1_555
C28A C27A 1_555 1_555
H25A C28A 1_555 1_555
H26A C28A 1_555 1_555
H27A C28A 1_555 1_555
C29A C27A 1_555 1_555
H28A C29A 1_555 1_555
H29A C29A 1_555 1_555
H30A C29A 1_555 1_555
C30A C27A 1_555 1_555
H31A C30A 1_555 1_555
H32A C30A 1_555 1_555
H33A C30A 1_555 1_555
C31A O4A 1_555 1_555
C32A S3A 1_555 1_555
C33A C32A 1_555 1_555
H34A C33A 1_555 1_555
C34A C33A 1_555 1_555
C35A C34A 1_555 1_555
H35A C35A 1_555 1_555
C36A S4A 1_555 1_555
C37A C34A 1_555 1_555
C38A C37A 1_555 1_555
H36A C38A 1_555 1_555
H37A C38A 1_555 1_555
H38A C38A 1_555 1_555
C39A C37A 1_555 1_555
H39A C39A 1_555 1_555
H40A C39A 1_555 1_555
H41A C39A 1_555 1_555
C40A C37A 1_555 1_555
H42A C40A 1_555 1_555
H43A C40A 1_555 1_555
H44A C40A 1_555 1_555
C41A O13A 1_555 1_555
C42A O15A 1_555 1_555
Co1_2 O15A 1_555 1_555
Co1A_2 O15 1_555 1_555
Co2_2 O16A 1_555 1_555
Co2A_2 O16 1_555 1_555
O15_2 Co1A 1_555 1_555
O15A_2 Co1 1_555 1_555
O16_2 Co2A 1_555 1_555
O16A_2 Co2 1_555 1_555
Co2 O2 1_555 1_555
Co2 O17 1_555 1_555
Co3 O17 1_555 1_555
O14 C41 1_555 1_555
C1 C2 1_555 1_555
C1 C6 1_555 1_555
C5 C6 1_555 1_555
C11 C12 1_555 1_555
C11 C16 1_555 1_555
C15 C16 1_555 1_555
C21 C22 1_555 1_555
C21 C26 1_555 1_555
C25 C26 1_555 1_555
C31 C32 1_555 1_555
C31 C36 1_555 1_555
C35 C36 1_555 1_555
C43 N1 1_555 1_555
C47 N1 1_555 1_555
C44A C45A 1_555 1_555
C47A N1A 1_555 1_555
Co2A O2A 1_555 1_555
Co2A O17A 1_555 1_555
Co3A O3A 1_555 1_555
Co3A O17A 1_555 1_555
O14A C41A 1_555 1_555
C1A C2A 1_555 1_555
C1A C6A 1_555 1_555
C5A C6A 1_555 1_555
C11A C12A 1_555 1_555
C11A C16A 1_555 1_555
C15A C16A 1_555 1_555
C21A C22A 1_555 1_555
C21A C26A 1_555 1_555
C25A C26A 1_555 1_555
C31A C32A 1_555 1_555
C31A C36A 1_555 1_555
C35A C36A 1_555 1_555
Co1_2 Co2_2 1_555 1_555
Co1_2 O15_2 1_555 1_555
Co1A_2 Co2A_2 1_555 1_555
Co1A_2 O15A_2 1_555 1_555

#END
