
#######################################################################
#
#                 Cambridge Crystallographic Data Centre
#                                CCDC 
#
#######################################################################
#
# If this CIF has been generated from an entry in the Cambridge 
# Structural Database, then it will include bibliographic, chemical, 
# crystal, experimental, refinement or atomic coordinate data resulting 
# from the CCDC's data processing and validation procedures.
#
#######################################################################

data_GIWQUZ
_symmetry_cell_setting           monoclinic
_symmetry_space_group_name_H-M   'P 21/c'
_symmetry_Int_Tables_number      14
_space_group_name_Hall           '-P 2ybc'
loop_
_symmetry_equiv_pos_site_id
_symmetry_equiv_pos_as_xyz
1 x,y,z
2 -x,1/2+y,1/2-z
3 -x,-y,-z
4 x,1/2-y,1/2+z
_cell_length_a                   8.8224(7)
_cell_length_b                   12.2997(9)
_cell_length_c                   16.2659(12)
_cell_angle_alpha                90
_cell_angle_beta                 105.428(1)
_cell_angle_gamma                90
_cell_volume                     1701.46
loop_
_atom_site_label
_atom_site_type_symbol
_atom_site_fract_x
_atom_site_fract_y
_atom_site_fract_z
Se1 Se 0.51076(3) 0.635812(18) 0.060454(16)
Co1 Co 1.0000 1.0000 0.0000
S1 S 1.47270(9) 1.02652(8) 0.23150(6)
N1 N 0.9020(2) 0.89729(14) 0.08662(11)
N2 N 0.7504(2) 0.88786(14) 0.07632(11)
N3 N 0.7258(2) 0.80721(14) 0.12733(11)
N4 N 0.2597(2) 0.73761(14) -0.05787(11)
N5 N 0.2364(2) 0.83984(14) -0.03390(11)
N6 N 0.0886(2) 0.84914(13) -0.03494(11)
N7 N 1.2039(2) 1.02237(14) 0.09523(12)
C1 C 0.8996(3) 0.67428(19) 0.22800(14)
H1 H 0.8219 0.6360 0.2447
C2 C 1.0552(3) 0.64911(19) 0.25759(14)
H2 H 1.0846 0.5916 0.2956
C3 C 1.1724(3) 0.70710(19) 0.23255(14)
H3 H 1.2770 0.6872 0.2547
C4 C 1.1372(3) 0.79222(18) 0.17639(14)
H4 H 1.2154 0.8301 0.1598
C5 C 0.9790(2) 0.81951(17) 0.14529(12)
C6 C 0.8646(2) 0.76127(17) 0.17096(13)
C7 C 0.5684(3) 0.77175(19) 0.12421(16)
H5 H 0.4946 0.8281 0.0978
H6 H 0.5600 0.7616 0.1820
C8 C 0.4179(3) 0.7018(2) -0.05116(15)
H7 H 0.4813 0.7633 -0.0592
H8 H 0.4171 0.6491 -0.0957
C9 C 0.1247(3) 0.67870(18) -0.07288(13)
C10 C 0.0138(2) 0.75078(16) -0.05890(12)
C11 C -0.1425(3) 0.71874(19) -0.06969(14)
H9 H -0.2184 0.7666 -0.0611
C12 C -0.1775(3) 0.6130(2) -0.09368(17)
H10 H -0.2801 0.5885 -0.1015
C13 C -0.0639(4) 0.5407(2) -0.10671(19)
H11 H -0.0932 0.4694 -0.1221
C14 C 0.0883(3) 0.5710(2) -0.09774(17)
H12 H 0.1631 0.5230 -0.1075
C15 C 1.3167(3) 1.02512(17) 0.15076(15)
Se1B Se 1.48924(3) 1.364188(18) -0.060454(16)
Co1_2 Co 0.0000 1.0000 0.0000
Co1_3 Co 2.0000 1.0000 0.0000
S1B S 0.52730(9) 0.97348(8) -0.23150(6)
N1B N 1.0980(2) 1.10271(14) -0.08662(11)
N2B N 1.2496(2) 1.11214(14) -0.07632(11)
N3B N 1.2742(2) 1.19279(14) -0.12733(11)
N4B N 1.7403(2) 1.26239(14) 0.05787(11)
N5B N 1.7636(2) 1.16016(14) 0.03390(11)
N6B N 1.9114(2) 1.15086(13) 0.03494(11)
N6_2 N 1.0886(2) 0.84914(13) -0.03494(11)
N6B_2 N 0.9114(2) 1.15086(13) 0.03494(11)
N7B N 0.7961(2) 0.97763(14) -0.09523(12)
C1B C 1.1004(3) 1.32572(19) -0.22800(14)
H1B H 1.1781 1.3640 -0.2447
C2B C 0.9448(3) 1.35089(19) -0.25759(14)
H2B H 0.9154 1.4084 -0.2956
C3B C 0.8276(3) 1.29290(19) -0.23255(14)
H3B H 0.7230 1.3128 -0.2547
C4B C 0.8628(3) 1.20778(18) -0.17639(14)
H4B H 0.7846 1.1699 -0.1598
C5B C 1.0210(2) 1.18049(17) -0.14529(12)
C6B C 1.1354(2) 1.23873(17) -0.17096(13)
C7B C 1.4316(3) 1.22825(19) -0.12421(16)
H5B H 1.5054 1.1719 -0.0978
H6B H 1.4400 1.2384 -0.1820
C8B C 1.5821(3) 1.2982(2) 0.05116(15)
H7B H 1.5187 1.2367 0.0592
H8B H 1.5829 1.3509 0.0957
C9B C 1.8753(3) 1.32130(18) 0.07288(13)
C10B C 1.9862(2) 1.24922(16) 0.05890(12)
C11B C 2.1425(3) 1.28126(19) 0.06969(14)
H9B H 2.2184 1.2334 0.0611
C12B C 2.1775(3) 1.3870(2) 0.09368(17)
H10B H 2.2801 1.4115 0.1015
C13B C 2.0639(4) 1.4593(2) 0.10671(19)
H11B H 2.0932 1.5306 0.1221
C14B C 1.9117(3) 1.4290(2) 0.09774(17)
H12B H 1.8369 1.4770 0.1075
C15B C 0.6833(3) 0.97488(17) -0.15076(15)
loop_
_geom_bond_atom_site_label_1
_geom_bond_atom_site_label_2
_geom_bond_site_symmetry_1
_geom_bond_site_symmetry_2
Se1 C7 1_555 1_555
Co1 N1 1_555 1_555
S1 C15 1_555 1_555
N1 N2 1_555 1_555
N2 N3 1_555 1_555
N3 C6 1_555 1_555
N4 N5 1_555 1_555
N5 N6 1_555 1_555
N6 C10 1_555 1_555
N7 Co1 1_555 1_555
C1 H1 1_555 1_555
C2 C1 1_555 1_555
H2 C2 1_555 1_555
C3 C2 1_555 1_555
H3 C3 1_555 1_555
C4 C3 1_555 1_555
H4 C4 1_555 1_555
C5 N1 1_555 1_555
C6 C1 1_555 1_555
C7 N3 1_555 1_555
H5 C7 1_555 1_555
H6 C7 1_555 1_555
C8 Se1 1_555 1_555
H7 C8 1_555 1_555
H8 C8 1_555 1_555
C9 N4 1_555 1_555
C10 C9 1_555 1_555
C11 C10 1_555 1_555
H9 C11 1_555 1_555
C12 C11 1_555 1_555
H10 C12 1_555 1_555
C13 C12 1_555 1_555
H11 C13 1_555 1_555
C14 C9 1_555 1_555
H12 C14 1_555 1_555
C15 N7 1_555 1_555
Se1B C7B 1_555 1_555
Co1_2 N6 1_555 1_555
Co1_3 N6B 1_555 1_555
S1B C15B 1_555 1_555
N1B Co1 1_555 1_555
N2B N1B 1_555 1_555
N3B N2B 1_555 1_555
N4B N5B 1_555 1_555
N5B N6B 1_555 1_555
N6B C10B 1_555 1_555
N6_2 Co1 1_555 1_555
N6B_2 Co1 1_555 1_555
N7B Co1 1_555 1_555
C1B H1B 1_555 1_555
C2B C1B 1_555 1_555
H2B C2B 1_555 1_555
C3B C2B 1_555 1_555
H3B C3B 1_555 1_555
C4B C3B 1_555 1_555
H4B C4B 1_555 1_555
C5B N1B 1_555 1_555
C6B N3B 1_555 1_555
C7B N3B 1_555 1_555
H5B C7B 1_555 1_555
H6B C7B 1_555 1_555
C8B Se1B 1_555 1_555
H7B C8B 1_555 1_555
H8B C8B 1_555 1_555
C9B N4B 1_555 1_555
C10B C9B 1_555 1_555
C11B C10B 1_555 1_555
H9B C11B 1_555 1_555
C12B C11B 1_555 1_555
H10B C12B 1_555 1_555
C13B C12B 1_555 1_555
H11B C13B 1_555 1_555
C14B C9B 1_555 1_555
H12B C14B 1_555 1_555
C15B N7B 1_555 1_555
N4 C8 1_555 1_555
C4 C5 1_555 1_555
C5 C6 1_555 1_555
C13 C14 1_555 1_555
N4B C8B 1_555 1_555
C1B C6B 1_555 1_555
C4B C5B 1_555 1_555
C5B C6B 1_555 1_555
C13B C14B 1_555 1_555

#END
