
#######################################################################
#
#                 Cambridge Crystallographic Data Centre
#                                CCDC 
#
#######################################################################
#
# If this CIF has been generated from an entry in the Cambridge 
# Structural Database, then it will include bibliographic, chemical, 
# crystal, experimental, refinement or atomic coordinate data resulting 
# from the CCDC's data processing and validation procedures.
#
#######################################################################

data_GIWROV
_symmetry_cell_setting           monoclinic
_symmetry_space_group_name_H-M   'P 21/m'
_symmetry_Int_Tables_number      11
_space_group_name_Hall           '-P 2yb'
loop_
_symmetry_equiv_pos_site_id
_symmetry_equiv_pos_as_xyz
1 x,y,z
2 -x,1/2+y,-z
3 -x,-y,-z
4 x,1/2-y,z
_cell_length_a                   9.1340(6)
_cell_length_b                   7.1405(3)
_cell_length_c                   12.9495(8)
_cell_angle_alpha                90
_cell_angle_beta                 90.383(5)
_cell_angle_gamma                90
_cell_volume                     844.565
loop_
_atom_site_label
_atom_site_type_symbol
_atom_site_fract_x
_atom_site_fract_y
_atom_site_fract_z
C1 C 0.4430(2) 0.7500 0.22868(17)
H1 H 0.4718 0.7500 0.1599
C2 C 0.2948(2) 0.7500 0.25004(17)
C3 C 0.2533(3) 0.7500 0.3517(2)
H2 H 0.1546 0.7500 0.3691
C4 C 0.3595(3) 0.7500 0.4278(2)
H3 H 0.3338 0.7500 0.4971
C5 C 0.5035(3) 0.7500 0.39925(19)
H4 H 0.5746 0.7500 0.4510
C6 C 0.1791(2) 0.7500 0.16777(19)
N1 N 0.5469(2) 0.7500 0.30169(16)
N2 N 0.2193(2) 0.7500 0.07038(16)
H5 H 0.1541 0.7500 0.0221
H6 H 0.3107 0.7500 0.0550
N3 N 0.84979(16) 0.5459(2) 0.35256(12)
H7 H 0.7813 0.4572 0.3531
H8 H 0.8586 0.5952 0.4154
H9 H 0.9349 0.4961 0.3339
N4 N 0.75784(18) 0.5478(3) 0.14240(12)
H10 H 0.7244 0.5998 0.0844
H11 H 0.6925 0.4658 0.1657
H12 H 0.8418 0.4892 0.1298
O1 O 0.04977(19) 0.7500 0.19311(16)
Cu1 Cu 0.79156(3) 0.7500 0.25016(2)
N3C N 0.84979(16) 0.9541(2) 0.35256(12)
H7C H 0.7813 1.0428 0.3531
H8C H 0.8586 0.9048 0.4154
H9C H 0.9349 1.0039 0.3339
N4C N 0.75784(18) 0.9522(3) 0.14240(12)
H10C H 0.7244 0.9002 0.0844
H11C H 0.6925 1.0342 0.1657
H12C H 0.8418 1.0108 0.1298
O1_2 O 1.04977(19) 0.7500 0.19311(16)
Cu1_2 Cu -0.20844(3) 0.7500 0.25016(2)
C7 C 0.4817(3) 0.2500 0.28805(17)
C8 C 0.3982(3) 0.2500 0.10086(19)
C9 C 0.1201(3) 0.2500 0.1544(2)
C10 C 0.2017(3) 0.2500 0.35170(19)
N5 N 0.5999(2) 0.2500 0.31854(18)
N6 N 0.4648(3) 0.2500 0.02618(18)
N7 N 0.0110(3) 0.2500 0.1105(2)
N8 N 0.1406(3) 0.2500 0.42859(19)
Ni1 Ni 0.29837(3) 0.2500 0.22515(2)
loop_
_geom_bond_atom_site_label_1
_geom_bond_atom_site_label_2
_geom_bond_site_symmetry_1
_geom_bond_site_symmetry_2
C1 H1 1_555 1_555
C2 C1 1_555 1_555
C3 C2 1_555 1_555
H2 C3 1_555 1_555
C4 C3 1_555 1_555
H3 C4 1_555 1_555
C5 C4 1_555 1_555
H4 C5 1_555 1_555
C6 C2 1_555 1_555
N1 C1 1_555 1_555
N2 C6 1_555 1_555
H5 N2 1_555 1_555
H6 N2 1_555 1_555
N3 H7 1_555 1_555
H8 N3 1_555 1_555
H9 N3 1_555 1_555
N4 H10 1_555 1_555
H11 N4 1_555 1_555
H12 N4 1_555 1_555
O1 C6 1_555 1_555
Cu1 N1 1_555 1_555
C7 N5 1_555 1_555
C8 N6 1_555 1_555
C9 N7 1_555 1_555
C10 N8 1_555 1_555
Ni1 C7 1_555 1_555
N3C Cu1 1_555 1_555
H7C N3C 1_555 1_555
H8C N3C 1_555 1_555
H9C N3C 1_555 1_555
N4C Cu1 1_555 1_555
H10C N4C 1_555 1_555
H11C N4C 1_555 1_555
H12C N4C 1_555 1_555
O1_2 Cu1 1_555 1_555
Cu1_2 O1 1_555 1_555
C5 N1 1_555 1_555
N3 Cu1 1_555 1_555
N4 Cu1 1_555 1_555
C8 Ni1 1_555 1_555
C9 Ni1 1_555 1_555
C10 Ni1 1_555 1_555

#END
