
#######################################################################
#
#                 Cambridge Crystallographic Data Centre
#                                CCDC 
#
#######################################################################
#
# If this CIF has been generated from an entry in the Cambridge 
# Structural Database, then it will include bibliographic, chemical, 
# crystal, experimental, refinement or atomic coordinate data resulting 
# from the CCDC's data processing and validation procedures.
#
#######################################################################

data_GIWSEM
_symmetry_cell_setting           orthorhombic
_symmetry_space_group_name_H-M   'P b c a'
_symmetry_Int_Tables_number      61
_space_group_name_Hall           '-P 2ac 2ab'
loop_
_symmetry_equiv_pos_site_id
_symmetry_equiv_pos_as_xyz
1 x,y,z
2 1/2-x,-y,1/2+z
3 -x,1/2+y,1/2-z
4 1/2+x,1/2-y,-z
5 -x,-y,-z
6 1/2+x,y,1/2-z
7 x,1/2-y,1/2+z
8 1/2-x,1/2+y,z
_cell_length_a                   8.5230(18)
_cell_length_b                   10.524(2)
_cell_length_c                   25.448(5)
_cell_angle_alpha                90
_cell_angle_beta                 90
_cell_angle_gamma                90
_cell_volume                     2282.59
loop_
_atom_site_label
_atom_site_type_symbol
_atom_site_fract_x
_atom_site_fract_y
_atom_site_fract_z
Co1 Co 0.58451(5) 0.39827(4) 0.943212(16)
O1 O 0.6083(3) 0.4377(2) 0.86719(9)
O2 O 0.4983(3) 0.2468(2) 0.86705(9)
O3 O 0.5878(4) 0.2229(4) 0.59725(11)
O4 O 0.6698(6) 0.4181(3) 0.59844(12)
N1 N 0.3476(3) 0.4281(2) 1.03112(10)
N2 N 0.4080(3) 0.3527(2) 0.99031(10)
N3 N 0.2467(3) 0.2342(2) 1.03934(10)
N4 N 0.3796(4) 0.1357(3) 0.96687(11)
H1 H 0.3193 0.0662 0.9711
H2 H 0.4017 0.1519 0.9329
N5 N 0.6236(4) 0.3211(4) 0.61985(13)
C1 C 0.3438(4) 0.2381(3) 0.99728(12)
C2 C 0.2560(4) 0.3541(3) 1.05814(12)
H3 H 0.2005 0.3818 1.0884
C3 C 0.5607(4) 0.3366(3) 0.84367(13)
C4 C 0.5844(4) 0.3315(3) 0.78504(13)
C5 C 0.6653(5) 0.4276(3) 0.75904(14)
H4 H 0.7103 0.4955 0.7785
C6 C 0.6805(5) 0.4247(4) 0.70465(15)
H5 H 0.7349 0.4899 0.6864
C7 C 0.6135(5) 0.3237(4) 0.67799(13)
C8 C 0.5380(5) 0.2246(4) 0.70254(14)
H6 H 0.4976 0.1549 0.6830
C9 C 0.5227(5) 0.2299(4) 0.75691(14)
H7 H 0.4697 0.1635 0.7750
Co1C Co 0.08451(5) 0.10173(4) 1.056788(16)
Co1D Co 0.41549(5) 0.60173(4) 1.056788(16)
N1D N 0.6524(3) 0.5719(2) 0.96888(10)
N3C N 0.7467(3) 0.2658(2) 0.96066(10)
loop_
_geom_bond_atom_site_label_1
_geom_bond_atom_site_label_2
_geom_bond_site_symmetry_1
_geom_bond_site_symmetry_2
Co1 O1 1_555 1_555
O1 C3 1_555 1_555
O2 C3 1_555 1_555
O3 N5 1_555 1_555
O4 N5 1_555 1_555
N1 N2 1_555 1_555
N2 Co1 1_555 1_555
N3 C1 1_555 1_555
N4 H1 1_555 1_555
H2 N4 1_555 1_555
N5 C7 1_555 1_555
C1 N2 1_555 1_555
C2 N1 1_555 1_555
H3 C2 1_555 1_555
C3 C4 1_555 1_555
C4 C5 1_555 1_555
C5 H4 1_555 1_555
C6 C5 1_555 1_555
H5 C6 1_555 1_555
C7 C6 1_555 1_555
C8 C7 1_555 1_555
H6 C8 1_555 1_555
C9 C4 1_555 1_555
H7 C9 1_555 1_555
Co1C N3 1_555 1_555
Co1D N1 1_555 1_555
N1D Co1 1_555 1_555
N3C Co1 1_555 1_555
N3 C2 1_555 1_555
N4 C1 1_555 1_555
C8 C9 1_555 1_555

#END
