
#######################################################################
#
#                 Cambridge Crystallographic Data Centre
#                                CCDC 
#
#######################################################################
#
# If this CIF has been generated from an entry in the Cambridge 
# Structural Database, then it will include bibliographic, chemical, 
# crystal, experimental, refinement or atomic coordinate data resulting 
# from the CCDC's data processing and validation procedures.
#
#######################################################################

data_GIWSOW
_symmetry_cell_setting           monoclinic
_symmetry_space_group_name_H-M   'C 2/c'
_symmetry_Int_Tables_number      15
_space_group_name_Hall           '-C 2yn'
loop_
_symmetry_equiv_pos_site_id
_symmetry_equiv_pos_as_xyz
1 x,y,z
2 -x,y,1/2-z
3 1/2+x,1/2+y,z
4 1/2-x,1/2+y,1/2-z
5 -x,-y,-z
6 x,-y,1/2+z
7 1/2-x,1/2-y,-z
8 1/2+x,1/2-y,1/2+z
_cell_length_a                   15.7822(12)
_cell_length_b                   12.7126(10)
_cell_length_c                   12.7270(10)
_cell_angle_alpha                90
_cell_angle_beta                 103.7900(10)
_cell_angle_gamma                90
_cell_volume                     2479.85
loop_
_atom_site_label
_atom_site_type_symbol
_atom_site_fract_x
_atom_site_fract_y
_atom_site_fract_z
Co1 Co 0.131918(17) 0.00464(2) 1.02194(2)
O1 O 0.09472(9) 0.15291(11) 1.05725(12)
O2 O -0.04289(10) 0.10670(12) 1.04319(13)
O3 O -0.26694(9) 0.38636(12) 1.02797(13)
O4 O -0.22641(9) 0.54814(12) 1.07271(12)
O5 O 0.08709(11) 0.62838(13) 1.18430(15)
O6 O 0.18297(11) 0.50946(14) 1.17685(16)
N1 N 0.12901(12) 0.04200(14) 0.68366(14)
N2 N 0.15548(13) 0.14049(14) 0.72267(14)
H1 H 0.1699 0.1908 0.6853
N3 N 0.12909(11) 0.05416(13) 0.85996(14)
N4 N 0.18034(16) 0.23008(16) 0.89010(17)
H2 H 0.1980 0.2858 0.8634
H3 H 0.1787 0.2285 0.9571
N5 N 0.10764(12) 0.53822(15) 1.16672(14)
C1 C 0.15545(14) 0.14615(17) 0.82750(17)
C2 C 0.11402(15) -0.00523(16) 0.76878(17)
H4 H 0.0945 -0.0744 0.7669
C3 C -0.00540(13) 0.28460(16) 1.08023(16)
C4 C -0.09253(13) 0.31601(16) 1.06344(16)
H5 H -0.1368 0.2668 1.0413
C5 C -0.11393(13) 0.42047(16) 1.07949(16)
C6 C -0.04840(14) 0.49366(15) 1.11336(17)
H6 H -0.0616 0.5636 1.1238
C7 C 0.03775(14) 0.46030(17) 1.13139(16)
C8 C 0.06074(13) 0.35742(16) 1.11493(16)
H7 H 0.1190 0.3378 1.1269
C9 C 0.01656(13) 0.17259(16) 1.05790(15)
C10 C -0.20822(13) 0.45408(17) 1.05903(16)
Co1B Co -0.368082(17) 0.50464(2) 1.02194(2)
Co1D Co -0.131918(17) -0.00464(2) 0.97806(2)
Co1E Co 0.131918(17) -0.00464(2) 0.52194(2)
O2D O 0.04289(10) -0.10670(12) 0.95681(13)
O3B O 0.23306(9) -0.11364(12) 1.02797(13)
O4B O 0.27359(9) 0.04814(12) 1.07271(12)
N1E N 0.12901(12) -0.04200(14) 1.18366(14)
O7 O 0.2764(2) 0.2904(3) 0.6907(3)
loop_
_geom_bond_atom_site_label_1
_geom_bond_atom_site_label_2
_geom_bond_site_symmetry_1
_geom_bond_site_symmetry_2
Co1 O1 1_555 1_555
O1 C9 1_555 1_555
O2 C9 1_555 1_555
O3 C10 1_555 1_555
O4 C10 1_555 1_555
O5 N5 1_555 1_555
O6 N5 1_555 1_555
N1 N2 1_555 1_555
N2 H1 1_555 1_555
N3 Co1 1_555 1_555
N4 H2 1_555 1_555
H3 N4 1_555 1_555
N5 C7 1_555 1_555
C1 N2 1_555 1_555
C2 N1 1_555 1_555
H4 C2 1_555 1_555
C3 C4 1_555 1_555
C4 H5 1_555 1_555
C5 C4 1_555 1_555
C6 C5 1_555 1_555
H6 C6 1_555 1_555
C7 C6 1_555 1_555
C8 C3 1_555 1_555
H7 C8 1_555 1_555
C9 C3 1_555 1_555
C10 C5 1_555 1_555
Co1B O3 1_555 1_555
Co1D O2 1_555 1_555
Co1E N1 1_555 1_555
O2D Co1 1_555 1_555
O3B Co1 1_555 1_555
O4B Co1 1_555 1_555
N1E Co1 1_555 1_555
O4 Co1B 1_555 1_555
N3 C1 1_555 1_555
N3 C2 1_555 1_555
N4 C1 1_555 1_555
C7 C8 1_555 1_555

#END
