
#######################################################################
#
#                 Cambridge Crystallographic Data Centre
#                                CCDC 
#
#######################################################################
#
# If this CIF has been generated from an entry in the Cambridge 
# Structural Database, then it will include bibliographic, chemical, 
# crystal, experimental, refinement or atomic coordinate data resulting 
# from the CCDC's data processing and validation procedures.
#
#######################################################################

data_GIWTEL
_symmetry_cell_setting           monoclinic
_symmetry_space_group_name_H-M   'P 21/c'
_symmetry_Int_Tables_number      14
_space_group_name_Hall           '-P 2ybc'
loop_
_symmetry_equiv_pos_site_id
_symmetry_equiv_pos_as_xyz
1 x,y,z
2 x,1/2-y,1/2+z
3 -x,-y,-z
4 -x,1/2+y,1/2-z
_cell_length_a                   8.4991(4)
_cell_length_b                   11.9831(4)
_cell_length_c                   8.1392(3)
_cell_angle_alpha                90
_cell_angle_beta                 113.347(3)
_cell_angle_gamma                90
_cell_volume                     761.069
loop_
_atom_site_label
_atom_site_type_symbol
_atom_site_fract_x
_atom_site_fract_y
_atom_site_fract_z
Mn1 Mn 1.0000 0.0000 1.0000
O1 O 0.9923(4) 0.0755(2) 0.7547(4)
C1 C 0.9967(5) 0.0321(3) 0.6153(5)
C2 C 0.9576(5) -0.0750(3) 0.5267(5)
O2 O 0.9045(4) -0.1670(2) 0.5604(4)
O3 O 0.7590(4) 0.0839(2) 0.9718(4)
C3 C 0.7304(6) 0.1834(4) 0.9807(7)
H1 H 0.8223(6) 0.2331(4) 1.0039(7)
N1 N 0.5809(5) 0.2264(3) 0.9603(5)
C4 C 0.4360(7) 0.1562(5) 0.9246(10)
H2 H 0.3430(7) 0.1890(5) 0.8258(10)
H3 H 0.4051(7) 0.1512(5) 1.0281(10)
H4 H 0.4595(7) 0.0823(5) 0.8915(10)
C5 C 0.5583(8) 0.3460(5) 0.9738(10)
H5 H 0.4857(8) 0.3615(5) 1.0391(10)
H6 H 0.5059(8) 0.3748(5) 0.8533(10)
H7 H 0.6680(8) 0.3813(5) 1.0336(10)
O4 O 0.8576(3) -0.1455(2) 0.8640(3)
H8 H 0.8672(70) -0.2115(22) 0.9201(63)
H9 H 0.8747(59) -0.1573(43) 0.7631(35)
C1B C 1.0033(5) -0.0321(3) 0.3847(5)
O1B O 1.0077(4) -0.0755(2) 0.2453(4)
Mn1B Mn 1.0000 0.0000 0.0000
C2B C 1.0424(5) 0.0750(3) 0.4733(5)
O2B O 1.0955(4) 0.1670(2) 0.4396(4)
O1B_2 O 1.0077(4) -0.0755(2) 1.2453(4)
O3B O 1.2410(4) -0.0839(2) 1.0282(4)
C3B C 1.2696(6) -0.1834(4) 1.0193(7)
H1B H 1.1777(6) -0.2331(4) 0.9961(7)
N1B N 1.4191(5) -0.2264(3) 1.0397(5)
C4B C 1.5640(7) -0.1562(5) 1.0754(10)
H2B H 1.6570(7) -0.1890(5) 1.1742(10)
H3B H 1.5949(7) -0.1512(5) 0.9719(10)
H4B H 1.5405(7) -0.0823(5) 1.1085(10)
C5B C 1.4417(8) -0.3460(5) 1.0262(10)
H5B H 1.5143(8) -0.3615(5) 0.9609(10)
H6B H 1.4941(8) -0.3748(5) 1.1467(10)
H7B H 1.3320(8) -0.3813(5) 0.9664(10)
O4B O 1.1424(3) 0.1455(2) 1.1360(3)
H8B H 1.1328(70) 0.2115(22) 1.0799(63)
H9B H 1.1253(59) 0.1573(43) 1.2369(35)
loop_
_geom_bond_atom_site_label_1
_geom_bond_atom_site_label_2
_geom_bond_site_symmetry_1
_geom_bond_site_symmetry_2
Mn1 O1 1_555 1_555
O1 C1 1_555 1_555
C1 C2 1_555 1_555
C2 O2 1_555 1_555
O3 Mn1 1_555 1_555
C3 O3 1_555 1_555
H1 C3 1_555 1_555
N1 C3 1_555 1_555
C4 N1 1_555 1_555
H2 C4 1_555 1_555
H3 C4 1_555 1_555
H4 C4 1_555 1_555
C5 N1 1_555 1_555
H5 C5 1_555 1_555
H6 C5 1_555 1_555
H7 C5 1_555 1_555
O4 Mn1 1_555 1_555
H8 O4 1_555 1_555
H9 O4 1_555 1_555
C1B C2 1_555 1_555
O1B C1B 1_555 1_555
Mn1B O1B 1_555 1_555
C2B C1 1_555 1_555
O2B C2B 1_555 1_555
O1B_2 Mn1 1_555 1_555
O3B Mn1 1_555 1_555
C3B O3B 1_555 1_555
H1B C3B 1_555 1_555
N1B C3B 1_555 1_555
C4B N1B 1_555 1_555
H2B C4B 1_555 1_555
H3B C4B 1_555 1_555
H4B C4B 1_555 1_555
C5B N1B 1_555 1_555
H5B C5B 1_555 1_555
H6B C5B 1_555 1_555
H7B C5B 1_555 1_555
O4B Mn1 1_555 1_555
H8B O4B 1_555 1_555
H9B O4B 1_555 1_555
C1B C2B 1_555 1_555

#END
