
#######################################################################
#
#                 Cambridge Crystallographic Data Centre
#                                CCDC 
#
#######################################################################
#
# If this CIF has been generated from an entry in the Cambridge 
# Structural Database, then it will include bibliographic, chemical, 
# crystal, experimental, refinement or atomic coordinate data resulting 
# from the CCDC's data processing and validation procedures.
#
#######################################################################

data_GIWTIP
_symmetry_cell_setting           monoclinic
_symmetry_space_group_name_H-M   'P 21/c'
_symmetry_Int_Tables_number      14
_space_group_name_Hall           '-P 2ybc'
loop_
_symmetry_equiv_pos_site_id
_symmetry_equiv_pos_as_xyz
1 x,y,z
2 x,1/2-y,1/2+z
3 -x,-y,-z
4 -x,1/2+y,1/2-z
_cell_length_a                   8.3659(4)
_cell_length_b                   11.9298(15)
_cell_length_c                   7.9281(4)
_cell_angle_alpha                90
_cell_angle_beta                 112.242(4)
_cell_angle_gamma                90
_cell_volume                     732.378
loop_
_atom_site_label
_atom_site_type_symbol
_atom_site_fract_x
_atom_site_fract_y
_atom_site_fract_z
Ni1 Ni 1.0000 0.0000 1.0000
O1 O 0.9950(3) 0.07499(15) 0.7636(2)
C1 C 0.9980(3) 0.0327(2) 0.6201(3)
C2 C 0.9618(4) -0.0766(2) 0.5307(3)
O2 O 0.9143(3) -0.1700(2) 0.5683(3)
O3 O 0.7667(3) 0.0768(2) 0.9717(3)
C3 C 0.7376(4) 0.1772(3) 0.9733(5)
H1 H 0.8305(4) 0.2259(3) 0.9975(5)
N1 N 0.5856(3) 0.2218(2) 0.9435(4)
C4 C 0.4355(5) 0.1523(4) 0.9019(7)
H2 H 0.3425(5) 0.1852(4) 0.8031(7)
H3 H 0.4045(5) 0.1474(4) 1.0054(7)
H4 H 0.4589(5) 0.0785(4) 0.8688(7)
C5 C 0.5625(5) 0.3429(3) 0.9533(7)
H5 H 0.4899(5) 0.3584(3) 1.0185(7)
H6 H 0.5101(5) 0.3718(3) 0.8328(7)
H7 H 0.6722(5) 0.3782(3) 1.0131(7)
O4 O 0.8602(2) -0.1370(2) 0.8719(2)
H8 H 0.8746(43) -0.1968(17) 0.9453(37)
H9 H 0.8806(42) -0.1557(29) 0.7719(27)
C1B C 1.0020(3) -0.0327(2) 0.3799(3)
O1B O 1.0050(3) -0.07499(15) 0.2364(2)
C2B C 1.0382(4) 0.0766(2) 0.4693(3)
O2B O 1.0857(3) 0.1700(2) 0.4317(3)
O1B_2 O 1.0050(3) -0.07499(15) 1.2364(2)
O3B O 1.2333(3) -0.0768(2) 1.0283(3)
C3B C 1.2624(4) -0.1772(3) 1.0267(5)
H1B H 1.1695(4) -0.2259(3) 1.0025(5)
N1B N 1.4144(3) -0.2218(2) 1.0565(4)
C4B C 1.5645(5) -0.1523(4) 1.0981(7)
H2B H 1.6575(5) -0.1852(4) 1.1969(7)
H3B H 1.5955(5) -0.1474(4) 0.9946(7)
H4B H 1.5411(5) -0.0785(4) 1.1312(7)
C5B C 1.4375(5) -0.3429(3) 1.0467(7)
H5B H 1.5101(5) -0.3584(3) 0.9815(7)
H6B H 1.4899(5) -0.3718(3) 1.1672(7)
H7B H 1.3278(5) -0.3782(3) 0.9869(7)
O4B O 1.1398(2) 0.1370(2) 1.1281(2)
H8B H 1.1254(43) 0.1968(17) 1.0547(37)
H9B H 1.1194(42) 0.1557(29) 1.2281(27)
Ni1B Ni 1.0000 0.0000 0.0000
loop_
_geom_bond_atom_site_label_1
_geom_bond_atom_site_label_2
_geom_bond_site_symmetry_1
_geom_bond_site_symmetry_2
Ni1 O1 1_555 1_555
O1 C1 1_555 1_555
C1 C2 1_555 1_555
C2 O2 1_555 1_555
O3 Ni1 1_555 1_555
C3 O3 1_555 1_555
H1 C3 1_555 1_555
N1 C3 1_555 1_555
C4 N1 1_555 1_555
H2 C4 1_555 1_555
H3 C4 1_555 1_555
H4 C4 1_555 1_555
C5 N1 1_555 1_555
H5 C5 1_555 1_555
H6 C5 1_555 1_555
H7 C5 1_555 1_555
O4 Ni1 1_555 1_555
H8 O4 1_555 1_555
H9 O4 1_555 1_555
C1B C2 1_555 1_555
O1B C1B 1_555 1_555
C2B C1 1_555 1_555
O2B C2B 1_555 1_555
O1B_2 Ni1 1_555 1_555
O3B Ni1 1_555 1_555
C3B O3B 1_555 1_555
H1B C3B 1_555 1_555
N1B C3B 1_555 1_555
C4B N1B 1_555 1_555
H2B C4B 1_555 1_555
H3B C4B 1_555 1_555
H4B C4B 1_555 1_555
C5B N1B 1_555 1_555
H5B C5B 1_555 1_555
H6B C5B 1_555 1_555
H7B C5B 1_555 1_555
O4B Ni1 1_555 1_555
H8B O4B 1_555 1_555
H9B O4B 1_555 1_555
Ni1B O1B 1_555 1_555
C1B C2B 1_555 1_555

#END
