
#######################################################################
#
#                 Cambridge Crystallographic Data Centre
#                                CCDC 
#
#######################################################################
#
# If this CIF has been generated from an entry in the Cambridge 
# Structural Database, then it will include bibliographic, chemical, 
# crystal, experimental, refinement or atomic coordinate data resulting 
# from the CCDC's data processing and validation procedures.
#
#######################################################################

data_GIWTEL01
_symmetry_cell_setting           monoclinic
_symmetry_space_group_name_H-M   'P 21/c'
_symmetry_Int_Tables_number      14
_space_group_name_Hall           '-P 2ybc'
loop_
_symmetry_equiv_pos_site_id
_symmetry_equiv_pos_as_xyz
1 x,y,z
2 x,1/2-y,1/2+z
3 -x,-y,-z
4 -x,1/2+y,1/2-z
_cell_length_a                   8.510(2)
_cell_length_b                   11.981(2)
_cell_length_c                   8.157(3)
_cell_angle_alpha                90
_cell_angle_beta                 112.57(2)
_cell_angle_gamma                90
_cell_volume                     767.977
loop_
_atom_site_label
_atom_site_type_symbol
_atom_site_fract_x
_atom_site_fract_y
_atom_site_fract_z
Mn1 Mn 1.0000 0.0000 1.0000
O1 O 0.9955(5) 0.0751(3) 0.7554(5)
C1 C 0.9970(6) 0.0328(4) 0.6158(6)
C2 C 0.9564(7) -0.0753(4) 0.5274(6)
O2 O 0.9022(6) -0.1663(3) 0.5599(5)
O3 O 0.7598(5) 0.0840(3) 0.9709(6)
C3 C 0.7295(8) 0.1836(5) 0.9760(11)
H1 H 0.8197(8) 0.2328(5) 0.9972(11)
N1 N 0.5823(6) 0.2267(4) 0.9544(7)
C4 C 0.4368(9) 0.1562(7) 0.9172(13)
H2 H 0.3437(9) 0.1891(7) 0.8183(13)
H3 H 0.4058(9) 0.1512(7) 1.0206(13)
H4 H 0.4602(9) 0.0823(7) 0.8840(13)
C5 C 0.5598(11) 0.3473(7) 0.9655(14)
H5 H 0.4872(11) 0.3628(7) 1.0307(14)
H6 H 0.5074(11) 0.3762(7) 0.8449(14)
H7 H 0.6695(11) 0.3826(7) 1.0253(14)
O4 O 0.8599(5) -0.1458(3) 0.8661(4)
H8 H 0.8771(99) -0.2118(30) 0.9230(88)
H9 H 0.8843(75) -0.1653(52) 0.7720(51)
C1B C 1.0030(6) -0.0328(4) 0.3842(6)
O1B O 1.0045(5) -0.0751(3) 0.2446(5)
Mn1B Mn 1.0000 0.0000 0.0000
C2B C 1.0436(7) 0.0753(4) 0.4726(6)
O2B O 1.0978(6) 0.1663(3) 0.4401(5)
O1B_2 O 1.0045(5) -0.0751(3) 1.2446(5)
O3B O 1.2402(5) -0.0840(3) 1.0291(6)
C3B C 1.2705(8) -0.1836(5) 1.0240(11)
H1B H 1.1803(8) -0.2328(5) 1.0028(11)
N1B N 1.4177(6) -0.2267(4) 1.0456(7)
C4B C 1.5632(9) -0.1562(7) 1.0828(13)
H2B H 1.6563(9) -0.1891(7) 1.1817(13)
H3B H 1.5942(9) -0.1512(7) 0.9794(13)
H4B H 1.5398(9) -0.0823(7) 1.1160(13)
C5B C 1.4402(11) -0.3473(7) 1.0345(14)
H5B H 1.5128(11) -0.3628(7) 0.9693(14)
H6B H 1.4926(11) -0.3762(7) 1.1551(14)
H7B H 1.3305(11) -0.3826(7) 0.9747(14)
O4B O 1.1401(5) 0.1458(3) 1.1339(4)
H8B H 1.1229(99) 0.2118(30) 1.0770(88)
H9B H 1.1157(75) 0.1653(52) 1.2280(51)
loop_
_geom_bond_atom_site_label_1
_geom_bond_atom_site_label_2
_geom_bond_site_symmetry_1
_geom_bond_site_symmetry_2
Mn1 O1 1_555 1_555
O1 C1 1_555 1_555
C1 C2 1_555 1_555
C2 O2 1_555 1_555
O3 Mn1 1_555 1_555
C3 O3 1_555 1_555
H1 C3 1_555 1_555
N1 C3 1_555 1_555
C4 N1 1_555 1_555
H2 C4 1_555 1_555
H3 C4 1_555 1_555
H4 C4 1_555 1_555
C5 N1 1_555 1_555
H5 C5 1_555 1_555
H6 C5 1_555 1_555
H7 C5 1_555 1_555
O4 Mn1 1_555 1_555
H8 O4 1_555 1_555
H9 O4 1_555 1_555
C1B C2 1_555 1_555
O1B C1B 1_555 1_555
Mn1B O1B 1_555 1_555
C2B C1 1_555 1_555
O2B C2B 1_555 1_555
O1B_2 Mn1 1_555 1_555
O3B Mn1 1_555 1_555
C3B O3B 1_555 1_555
H1B C3B 1_555 1_555
N1B C3B 1_555 1_555
C4B N1B 1_555 1_555
H2B C4B 1_555 1_555
H3B C4B 1_555 1_555
H4B C4B 1_555 1_555
C5B N1B 1_555 1_555
H5B C5B 1_555 1_555
H6B C5B 1_555 1_555
H7B C5B 1_555 1_555
O4B Mn1 1_555 1_555
H8B O4B 1_555 1_555
H9B O4B 1_555 1_555
C1B C2B 1_555 1_555

#END
