
#######################################################################
#
#                 Cambridge Crystallographic Data Centre
#                                CCDC 
#
#######################################################################
#
# If this CIF has been generated from an entry in the Cambridge 
# Structural Database, then it will include bibliographic, chemical, 
# crystal, experimental, refinement or atomic coordinate data resulting 
# from the CCDC's data processing and validation procedures.
#
#######################################################################

data_GIWTUB
_symmetry_cell_setting           monoclinic
_symmetry_space_group_name_H-M   'P 21/n'
_symmetry_Int_Tables_number      14
_space_group_name_Hall           '-P 2yn'
loop_
_symmetry_equiv_pos_site_id
_symmetry_equiv_pos_as_xyz
1 x,y,z
2 1/2+x,1/2-y,1/2+z
3 -x,-y,-z
4 1/2-x,1/2+y,1/2-z
_cell_length_a                   8.6319(11)
_cell_length_b                   7.7182(12)
_cell_length_c                   11.220(2)
_cell_angle_alpha                90
_cell_angle_beta                 106.414(11)
_cell_angle_gamma                90
_cell_volume                     717.042
loop_
_atom_site_label
_atom_site_type_symbol
_atom_site_fract_x
_atom_site_fract_y
_atom_site_fract_z
Cu1 Cu 0.0000 0.0000 0.0000
O1 O 0.0951(2) 0.2276(2) 0.0601(2)
C1 C 0.0413(3) 0.3756(4) 0.0257(2)
C2 C -0.0768(3) 0.4530(4) -0.0826(3)
O2 O -0.1667(2) 0.3954(2) -0.1822(2)
O3 O -0.2481(2) 0.1218(3) 0.0215(2)
C3 C -0.3706(4) 0.1493(4) -0.0652(3)
H1 H -0.3604(4) 0.1268(4) -0.1404(3)
N1 N -0.5043(3) 0.2231(3) -0.0546(2)
C4 C -0.5182(4) 0.2768(5) 0.0663(3)
H2 H -0.5394(4) 0.4003(5) 0.0653(3)
H3 H -0.4181(4) 0.2515(5) 0.1295(3)
H4 H -0.6062(4) 0.2145(5) 0.0848(3)
C5 C -0.6459(4) 0.2446(5) -0.1619(3)
H5 H -0.6804(4) 0.3647(5) -0.1677(3)
H6 H -0.7327(4) 0.1712(5) -0.1521(3)
H7 H -0.6185(4) 0.2122(5) -0.2370(3)
O4 O 0.0673(2) -0.0678(3) 0.1767(2)
H8 H 0.1039(40) -0.1774(16) 0.1885(32)
H9 H 0.1432(33) 0.0048(37) 0.2215(34)
C1B C -0.0413(3) 0.6244(4) -0.0257(2)
O1B O -0.0951(2) 0.7724(2) -0.0601(2)
Cu1B Cu 0.0000 1.0000 0.0000
C2B C 0.0768(3) 0.5470(4) 0.0826(3)
O2B O 0.1667(2) 0.6046(2) 0.1822(2)
O1B_2 O -0.0951(2) -0.2276(2) -0.0601(2)
O3B O 0.2481(2) -0.1218(3) -0.0215(2)
C3B C 0.3706(4) -0.1493(4) 0.0652(3)
H1B H 0.3604(4) -0.1268(4) 0.1404(3)
N1B N 0.5043(3) -0.2231(3) 0.0546(2)
C4B C 0.5182(4) -0.2768(5) -0.0663(3)
H2B H 0.5394(4) -0.4003(5) -0.0653(3)
H3B H 0.4181(4) -0.2515(5) -0.1295(3)
H4B H 0.6062(4) -0.2145(5) -0.0848(3)
C5B C 0.6459(4) -0.2446(5) 0.1619(3)
H5B H 0.6804(4) -0.3647(5) 0.1677(3)
H6B H 0.7327(4) -0.1712(5) 0.1521(3)
H7B H 0.6185(4) -0.2122(5) 0.2370(3)
O4B O -0.0673(2) 0.0678(3) -0.1767(2)
H8B H -0.1039(40) 0.1774(16) -0.1885(32)
H9B H -0.1432(33) -0.0048(37) -0.2215(34)
loop_
_geom_bond_atom_site_label_1
_geom_bond_atom_site_label_2
_geom_bond_site_symmetry_1
_geom_bond_site_symmetry_2
Cu1 O1 1_555 1_555
O1 C1 1_555 1_555
C1 C2 1_555 1_555
C2 O2 1_555 1_555
O3 Cu1 1_555 1_555
C3 O3 1_555 1_555
H1 C3 1_555 1_555
N1 C3 1_555 1_555
C4 N1 1_555 1_555
H2 C4 1_555 1_555
H3 C4 1_555 1_555
H4 C4 1_555 1_555
C5 N1 1_555 1_555
H5 C5 1_555 1_555
H6 C5 1_555 1_555
H7 C5 1_555 1_555
O4 Cu1 1_555 1_555
H8 O4 1_555 1_555
H9 O4 1_555 1_555
C1B C2 1_555 1_555
O1B C1B 1_555 1_555
Cu1B O1B 1_555 1_555
C2B C1 1_555 1_555
O2B C2B 1_555 1_555
O1B_2 Cu1 1_555 1_555
O3B Cu1 1_555 1_555
C3B O3B 1_555 1_555
H1B C3B 1_555 1_555
N1B C3B 1_555 1_555
C4B N1B 1_555 1_555
H2B C4B 1_555 1_555
H3B C4B 1_555 1_555
H4B C4B 1_555 1_555
C5B N1B 1_555 1_555
H5B C5B 1_555 1_555
H6B C5B 1_555 1_555
H7B C5B 1_555 1_555
O4B Cu1 1_555 1_555
H8B O4B 1_555 1_555
H9B O4B 1_555 1_555
C1B C2B 1_555 1_555

#END
