
#######################################################################
#
#                 Cambridge Crystallographic Data Centre
#                                CCDC 
#
#######################################################################
#
# If this CIF has been generated from an entry in the Cambridge 
# Structural Database, then it will include bibliographic, chemical, 
# crystal, experimental, refinement or atomic coordinate data resulting 
# from the CCDC's data processing and validation procedures.
#
#######################################################################

data_GIWVEO
_symmetry_cell_setting           triclinic
_symmetry_space_group_name_H-M   'P -1'
_symmetry_Int_Tables_number      2
_space_group_name_Hall           '-P 1'
loop_
_symmetry_equiv_pos_site_id
_symmetry_equiv_pos_as_xyz
1 x,y,z
2 -x,-y,-z
_cell_length_a                   8.3731(3)
_cell_length_b                   9.2900(5)
_cell_length_c                   10.5696(4)
_cell_angle_alpha                104.731(2)
_cell_angle_beta                 112.068(2)
_cell_angle_gamma                105.111(2)
_cell_volume                     676.188
loop_
_atom_site_label
_atom_site_type_symbol
_atom_site_fract_x
_atom_site_fract_y
_atom_site_fract_z
Cs1 Cs 0.72423(4) 0.40190(4) 0.59886(3)
K1 K 1.37267(13) 0.41501(10) 0.78987(9)
N1 N 1.0072(6) 0.2428(5) 0.7478(5)
N2 N 0.7580(6) -0.2716(5) 0.5168(4)
N3 N 0.8472(6) 0.3911(5) 1.3143(4)
N4 N 0.5929(7) -0.0574(6) 1.3260(5)
O1 O 0.9010(4) 0.2259(3) 1.0208(3)
O2 O 0.5670(4) -0.2753(3) 1.0104(3)
O3 O 0.5931(4) -0.3387(3) 0.7377(3)
O4 O 0.7592(5) 0.4569(4) 0.9200(4)
H1 H 0.8569 0.5401 0.9784
H2 H 0.8175 0.3599 0.9585
C1 C 0.7730(5) -0.0502(4) 0.8464(4)
C2 C 0.8127(5) 0.0789(4) 0.9803(4)
C3 C 0.7310(5) 0.0038(4) 1.0595(4)
C4 C 0.6453(5) -0.1709(4) 0.9767(4)
C5 C 0.6647(5) -0.2030(4) 0.8402(4)
C6 C 0.8267(5) -0.0300(4) 0.7408(4)
C7 C 0.9266(6) 0.1218(5) 0.7477(5)
C8 C 0.7878(6) -0.1650(5) 0.6177(4)
C9 C 0.7315(5) 0.0826(5) 1.1883(4)
C10 C 0.8016(6) 0.2551(5) 1.2564(4)
C11 C 0.6550(6) 0.0000(6) 1.2623(5)
Cs1A Cs 0.27577(4) 0.59810(4) 0.40114(3)
Cs1_2 Cs 1.72423(4) 0.40190(4) 0.59886(3)
Cs1_3 Cs 0.72423(4) -0.59810(4) 0.59886(3)
Cs1A_2 Cs 0.27577(4) -0.40190(4) 0.40114(3)
Cs1_4 Cs 0.72423(4) 0.40190(4) 1.59886(3)
Cs1A_3 Cs 1.27577(4) 0.59810(4) 1.40114(3)
K1_2 K 0.37267(13) 0.41501(10) 0.78987(9)
K1A K 0.62733(13) -0.41501(10) 0.21013(9)
K1A_2 K 0.62733(13) 0.58499(10) 1.21013(9)
K1_3 K 0.37267(13) -0.58499(10) 0.78987(9)
K1A_3 K 0.62733(13) -0.41501(10) 1.21013(9)
N2_2 N 0.7580(6) 0.7284(5) 0.5168(4)
N2A N 0.2420(6) 0.2716(5) 0.4832(4)
N2A_2 N 1.2420(6) 0.2716(5) 0.4832(4)
N3_2 N 0.8472(6) 0.3911(5) 0.3143(4)
N3A N 1.1528(6) 0.6089(5) 0.6857(4)
O2_2 O 1.5670(4) 0.7247(3) 1.0104(3)
O2A O 1.4330(4) 0.2753(3) 0.9896(3)
O3_2 O 0.5931(4) 0.6613(3) 0.7377(3)
O3A O 0.4069(4) 0.3387(3) 0.2623(3)
O3_3 O 1.5931(4) 0.6613(3) 0.7377(3)
O4_2 O 1.7592(5) 0.4569(4) 0.9200(4)
H1_2 H 1.8569 0.5401 0.9784
H2_2 H 1.8175 0.3599 0.9585
loop_
_geom_bond_atom_site_label_1
_geom_bond_atom_site_label_2
_geom_bond_site_symmetry_1
_geom_bond_site_symmetry_2
Cs1 N1 1_555 1_555
K1 N1 1_555 1_555
N1 C7 1_555 1_555
N2 C8 1_555 1_555
N3 C10 1_555 1_555
N4 C11 1_555 1_555
O1 C2 1_555 1_555
O2 C4 1_555 1_555
O3 C5 1_555 1_555
O4 Cs1 1_555 1_555
H1 O4 1_555 1_555
H2 O4 1_555 1_555
C1 C2 1_555 1_555
C2 C3 1_555 1_555
C3 C4 1_555 1_555
C4 C5 1_555 1_555
C5 C1 1_555 1_555
C6 C1 1_555 1_555
C7 C6 1_555 1_555
C8 C6 1_555 1_555
C9 C3 1_555 1_555
C10 C9 1_555 1_555
C11 C9 1_555 1_555
Cs1A N2_2 1_555 1_555
Cs1_2 N2A_2 1_555 1_555
Cs1_3 N2 1_555 1_555
Cs1A_2 N2 1_555 1_555
Cs1_4 N3 1_555 1_555
Cs1A_3 N3 1_555 1_555
K1_2 O4 1_555 1_555
K1A N2 1_555 1_555
K1A_2 N3 1_555 1_555
K1_3 O2 1_555 1_555
K1A_3 O2 1_555 1_555
N2_2 Cs1 1_555 1_555
N2A Cs1 1_555 1_555
N2A_2 K1 1_555 1_555
N3_2 Cs1 1_555 1_555
N3A Cs1 1_555 1_555
O2_2 K1 1_555 1_555
O2A K1 1_555 1_555
O3_2 Cs1 1_555 1_555
O3A Cs1 1_555 1_555
O3_3 K1 1_555 1_555
O4_2 K1 1_555 1_555
H1_2 O4_2 1_555 1_555
H2_2 O4_2 1_555 1_555
K1 N3A 1_555 1_555
O3 Cs1_3 1_555 1_555
O3 Cs1A_2 1_555 1_555
O3 K1_3 1_555 1_555
Cs1A N2A 1_555 1_555
Cs1A O3_2 1_555 1_555
Cs1A O3A 1_555 1_555
Cs1_2 O3_3 1_555 1_555
Cs1_2 O4_2 1_555 1_555
K1_2 N2A 1_555 1_555
K1_2 O3_2 1_555 1_555

#END
