
#######################################################################
#
#                 Cambridge Crystallographic Data Centre
#                                CCDC 
#
#######################################################################
#
# If this CIF has been generated from an entry in the Cambridge 
# Structural Database, then it will include bibliographic, chemical, 
# crystal, experimental, refinement or atomic coordinate data resulting 
# from the CCDC's data processing and validation procedures.
#
#######################################################################

data_GIWVAJ
_symmetry_cell_setting           monoclinic
_symmetry_space_group_name_H-M   'P 21/c'
_symmetry_Int_Tables_number      14
_space_group_name_Hall           '-P 2ybc'
loop_
_symmetry_equiv_pos_site_id
_symmetry_equiv_pos_as_xyz
1 x,y,z
2 x,1/2-y,1/2+z
3 -x,-y,-z
4 -x,1/2+y,1/2-z
_cell_length_a                   8.4436(13)
_cell_length_b                   11.9088(4)
_cell_length_c                   7.9992(6)
_cell_angle_alpha                90
_cell_angle_beta                 112.512(9)
_cell_angle_gamma                90
_cell_volume                     743.053
loop_
_atom_site_label
_atom_site_type_symbol
_atom_site_fract_x
_atom_site_fract_y
_atom_site_fract_z
Zn1 Zn 1.0000 0.0000 1.0000
O1 O 0.9937(3) 0.0759(2) 0.7601(3)
C1 C 0.9973(4) 0.0335(3) 0.6189(4)
C2 C 0.9609(4) -0.0763(3) 0.5302(4)
O2 O 0.9121(4) -0.1693(2) 0.5669(3)
O3 O 0.7616(3) 0.0790(2) 0.9705(4)
C3 C 0.7326(5) 0.1799(4) 0.9753(6)
H1 H 0.8250(5) 0.2287(4) 1.0016(6)
N1 N 0.5824(4) 0.2244(3) 0.9464(5)
C4 C 0.4333(6) 0.1540(5) 0.9064(9)
H2 H 0.3447(6) 0.1784(5) 0.7956(9)
H3 H 0.3929(6) 0.1592(5) 1.0032(9)
H4 H 0.4630(6) 0.0775(5) 0.8938(9)
C5 C 0.5598(7) 0.3454(4) 0.9543(9)
H5 H 0.5245(7) 0.3627(4) 1.0521(9)
H6 H 0.4737(7) 0.3707(4) 0.8424(9)
H7 H 0.6662(7) 0.3827(4) 0.9736(9)
O4 O 0.8629(3) -0.1389(2) 0.8717(3)
H8 H 0.8822(63) -0.1997(24) 0.9436(53)
H9 H 0.8741(61) -0.1534(41) 0.7664(33)
C1B C 1.0027(4) -0.0335(3) 0.3811(4)
O1B O 1.0063(3) -0.0759(2) 0.2399(3)
Zn1B Zn 1.0000 0.0000 0.0000
C2B C 1.0391(4) 0.0763(3) 0.4698(4)
O2B O 1.0879(4) 0.1693(2) 0.4331(3)
O1B_2 O 1.0063(3) -0.0759(2) 1.2399(3)
O3B O 1.2384(3) -0.0790(2) 1.0295(4)
C3B C 1.2674(5) -0.1799(4) 1.0247(6)
H1B H 1.1750(5) -0.2287(4) 0.9984(6)
N1B N 1.4176(4) -0.2244(3) 1.0536(5)
C4B C 1.5667(6) -0.1540(5) 1.0936(9)
H2B H 1.6553(6) -0.1784(5) 1.2044(9)
H3B H 1.6071(6) -0.1592(5) 0.9968(9)
H4B H 1.5370(6) -0.0775(5) 1.1062(9)
C5B C 1.4402(7) -0.3454(4) 1.0457(9)
H5B H 1.4755(7) -0.3627(4) 0.9479(9)
H6B H 1.5263(7) -0.3707(4) 1.1576(9)
H7B H 1.3338(7) -0.3827(4) 1.0264(9)
O4B O 1.1371(3) 0.1389(2) 1.1283(3)
H8B H 1.1178(63) 0.1997(24) 1.0564(53)
H9B H 1.1259(61) 0.1534(41) 1.2336(33)
loop_
_geom_bond_atom_site_label_1
_geom_bond_atom_site_label_2
_geom_bond_site_symmetry_1
_geom_bond_site_symmetry_2
Zn1 O1 1_555 1_555
O1 C1 1_555 1_555
C1 C2 1_555 1_555
C2 O2 1_555 1_555
O3 Zn1 1_555 1_555
C3 O3 1_555 1_555
H1 C3 1_555 1_555
N1 C3 1_555 1_555
C4 N1 1_555 1_555
H2 C4 1_555 1_555
H3 C4 1_555 1_555
H4 C4 1_555 1_555
C5 N1 1_555 1_555
H5 C5 1_555 1_555
H6 C5 1_555 1_555
H7 C5 1_555 1_555
O4 Zn1 1_555 1_555
H8 O4 1_555 1_555
H9 O4 1_555 1_555
C1B C2 1_555 1_555
O1B C1B 1_555 1_555
Zn1B O1B 1_555 1_555
C2B C1 1_555 1_555
O2B C2B 1_555 1_555
O1B_2 Zn1 1_555 1_555
O3B Zn1 1_555 1_555
C3B O3B 1_555 1_555
H1B C3B 1_555 1_555
N1B C3B 1_555 1_555
C4B N1B 1_555 1_555
H2B C4B 1_555 1_555
H3B C4B 1_555 1_555
H4B C4B 1_555 1_555
C5B N1B 1_555 1_555
H5B C5B 1_555 1_555
H6B C5B 1_555 1_555
H7B C5B 1_555 1_555
O4B Zn1 1_555 1_555
H8B O4B 1_555 1_555
H9B O4B 1_555 1_555
C1B C2B 1_555 1_555

#END
