
#######################################################################
#
#                 Cambridge Crystallographic Data Centre
#                                CCDC 
#
#######################################################################
#
# If this CIF has been generated from an entry in the Cambridge 
# Structural Database, then it will include bibliographic, chemical, 
# crystal, experimental, refinement or atomic coordinate data resulting 
# from the CCDC's data processing and validation procedures.
#
#######################################################################

data_GIWWUG
_symmetry_cell_setting           triclinic
_symmetry_space_group_name_H-M   'P -1'
_symmetry_Int_Tables_number      2
_space_group_name_Hall           '-P 1'
loop_
_symmetry_equiv_pos_site_id
_symmetry_equiv_pos_as_xyz
1 x,y,z
2 -x,-y,-z
_cell_length_a                   9.9657(5)
_cell_length_b                   10.6695(5)
_cell_length_c                   13.7934(7)
_cell_angle_alpha                72.822(2)
_cell_angle_beta                 75.231(3)
_cell_angle_gamma                89.530(3)
_cell_volume                     1351.34
loop_
_atom_site_label
_atom_site_type_symbol
_atom_site_fract_x
_atom_site_fract_y
_atom_site_fract_z
Cu1 Cu 0.0000 0.0000 0.0000
Br1 Br -0.16505(11) 0.14459(9) 0.37388(6)
O1 O 0.0236(4) 0.1346(3) 0.0669(3)
O2 O -0.1980(5) 0.1549(5) 0.1458(4)
N1 N 0.0731(5) 0.1359(4) -0.1416(3)
C1 C 0.0230(6) 0.1383(6) -0.2233(5)
H1 H -0.0494 0.0769 -0.2121
C2 C 0.0709(7) 0.2252(6) -0.3228(5)
C3 C 0.1778(7) 0.3170(7) -0.3373(6)
H2 H 0.2149 0.3777 -0.4030
C4 C 0.2285(7) 0.3173(6) -0.2533(6)
H3 H 0.2989 0.3794 -0.2617
C5 C 0.1747(6) 0.2256(5) -0.1573(5)
H4 H 0.2104 0.2262 -0.1013
C6 C 0.0133(12) 0.2185(10) -0.4107(6)
H5 H -0.0381 0.2941 -0.4303
H6 H -0.0473 0.1400 -0.3885
H7 H 0.0882 0.2169 -0.4699
C7 C -0.0715(7) 0.1814(5) 0.1232(4)
C8 C -0.0190(6) 0.2856(5) 0.1630(5)
C9 C -0.0576(6) 0.2864(6) 0.2660(5)
C10 C -0.0058(8) 0.3868(7) 0.2963(6)
H8 H -0.0302 0.3843 0.3666
C11 C 0.0812(9) 0.4888(7) 0.2218(7)
H9 H 0.1132 0.5570 0.2412
C12 C 0.1200(9) 0.4896(7) 0.1203(7)
H10 H 0.1793 0.5584 0.0700
C13 C 0.0725(7) 0.3895(6) 0.0907(5)
H11 H 0.1022 0.3909 0.0207
Cu2 Cu 0.5000 0.0000 0.0000
Br2 Br 0.67803(13) 0.39852(10) -0.38386(7)
O3 O 0.4809(4) 0.1882(3) -0.0666(3)
O4 O 0.7029(5) 0.2501(4) -0.1561(4)
N2 N 0.4313(5) 0.0285(4) 0.1406(3)
C14 C 0.4933(6) -0.0313(5) 0.2183(4)
H12 H 0.5688 -0.0803 0.2027
C15 C 0.4485(6) -0.0219(6) 0.3187(5)
C16 C 0.3380(8) 0.0522(7) 0.3398(5)
H13 H 0.3052 0.0610 0.4067
C17 C 0.2758(7) 0.1136(7) 0.2613(6)
H14 H 0.2005 0.1637 0.2752
C18 C 0.3253(6) 0.1004(6) 0.1633(5)
H15 H 0.2834 0.1432 0.1107
C19 C 0.5212(8) -0.0953(7) 0.4005(5)
H16 H 0.5403 -0.0381 0.4383
H17 H 0.6069 -0.1240 0.3664
H18 H 0.4623 -0.1703 0.4487
C20 C 0.5801(7) 0.2705(5) -0.1306(5)
C21 C 0.5327(6) 0.4055(5) -0.1774(5)
C22 C 0.5709(7) 0.4732(6) -0.2834(5)
C23 C 0.5227(10) 0.5971(7) -0.3203(8)
H19 H 0.5470 0.6419 -0.3920
C24 C 0.4406(10) 0.6516(8) -0.2516(11)
H20 H 0.4095 0.7344 -0.2767
C25 C 0.4024(10) 0.5871(7) -0.1455(9)
H21 H 0.3474 0.6260 -0.0985
C26 C 0.4473(7) 0.4639(6) -0.1104(6)
H22 H 0.4191 0.4184 -0.0389
O5 O 0.2480(4) -0.0465(4) -0.0012(3)
H23 H 0.248(7) -0.075(6) -0.053(4)
H24 H 0.266(7) -0.093(5) 0.055(3)
Br1A Br 0.16505(11) -0.14459(9) -0.37388(6)
O1A O -0.0236(4) -0.1346(3) -0.0669(3)
O2A O 0.1980(5) -0.1549(5) -0.1458(4)
N1A N -0.0731(5) -0.1359(4) 0.1416(3)
C1A C -0.0230(6) -0.1383(6) 0.2233(5)
H1A H 0.0494 -0.0769 0.2121
C2A C -0.0709(7) -0.2252(6) 0.3228(5)
C3A C -0.1778(7) -0.3170(7) 0.3373(6)
H2A H -0.2149 -0.3777 0.4030
C4A C -0.2285(7) -0.3173(6) 0.2533(6)
H3A H -0.2989 -0.3794 0.2617
C5A C -0.1747(6) -0.2256(5) 0.1573(5)
H4A H -0.2104 -0.2262 0.1013
C6A C -0.0133(12) -0.2185(10) 0.4107(6)
H5A H 0.0381 -0.2941 0.4303
H6A H 0.0473 -0.1400 0.3885
H7A H -0.0882 -0.2169 0.4699
C7A C 0.0715(7) -0.1814(5) -0.1232(4)
C8A C 0.0190(6) -0.2856(5) -0.1630(5)
C9A C 0.0576(6) -0.2864(6) -0.2660(5)
C10A C 0.0058(8) -0.3868(7) -0.2963(6)
H8A H 0.0302 -0.3843 -0.3666
C11A C -0.0812(9) -0.4888(7) -0.2218(7)
H9A H -0.1132 -0.5570 -0.2412
C12A C -0.1200(9) -0.4896(7) -0.1203(7)
H10A H -0.1793 -0.5584 -0.0700
C13A C -0.0725(7) -0.3895(6) -0.0907(5)
H11A H -0.1022 -0.3909 -0.0207
O5A O -0.2480(4) 0.0465(4) 0.0012(3)
H23A H -0.248(7) 0.075(6) 0.053(4)
H24A H -0.266(7) 0.093(5) -0.055(3)
Br2A Br 0.32197(13) -0.39852(10) 0.38386(7)
O3A O 0.5191(4) -0.1882(3) 0.0666(3)
O4A O 0.2971(5) -0.2501(4) 0.1561(4)
C20A C 0.4199(7) -0.2705(5) 0.1306(5)
C21A C 0.4673(6) -0.4055(5) 0.1774(5)
C22A C 0.4291(7) -0.4732(6) 0.2834(5)
C23A C 0.4773(10) -0.5971(7) 0.3203(8)
H19A H 0.4530 -0.6419 0.3920
C24A C 0.5594(10) -0.6516(8) 0.2516(11)
H20A H 0.5905 -0.7344 0.2767
C25A C 0.5976(10) -0.5871(7) 0.1455(9)
H21A H 0.6526 -0.6260 0.0985
C26A C 0.5527(7) -0.4639(6) 0.1104(6)
H22A H 0.5809 -0.4184 0.0389
N2A N 0.5687(5) -0.0285(4) -0.1406(3)
C14A C 0.5067(6) 0.0313(5) -0.2183(4)
H12A H 0.4312 0.0803 -0.2027
C15A C 0.5515(6) 0.0219(6) -0.3187(5)
C16A C 0.6620(8) -0.0522(7) -0.3398(5)
H13A H 0.6948 -0.0610 -0.4067
C17A C 0.7242(7) -0.1136(7) -0.2613(6)
H14A H 0.7995 -0.1637 -0.2752
C18A C 0.6747(6) -0.1004(6) -0.1633(5)
H15A H 0.7166 -0.1432 -0.1107
C19A C 0.4788(8) 0.0953(7) -0.4005(5)
H16A H 0.4597 0.0381 -0.4383
H17A H 0.3931 0.1240 -0.3664
H18A H 0.5377 0.1703 -0.4487
Cu2_2 Cu -0.5000 0.0000 0.0000
O5A_2 O 0.7520(4) 0.0465(4) 0.0012(3)
loop_
_geom_bond_atom_site_label_1
_geom_bond_atom_site_label_2
_geom_bond_site_symmetry_1
_geom_bond_site_symmetry_2
Cu1 O1 1_555 1_555
Br1 C9 1_555 1_555
O1 C7 1_555 1_555
O2 C7 1_555 1_555
N1 Cu1 1_555 1_555
C1 N1 1_555 1_555
H1 C1 1_555 1_555
C2 C1 1_555 1_555
C3 C2 1_555 1_555
H2 C3 1_555 1_555
C4 C3 1_555 1_555
H3 C4 1_555 1_555
C5 N1 1_555 1_555
H4 C5 1_555 1_555
C6 C2 1_555 1_555
H5 C6 1_555 1_555
H6 C6 1_555 1_555
H7 C6 1_555 1_555
C7 C8 1_555 1_555
C8 C9 1_555 1_555
C9 C10 1_555 1_555
C10 H8 1_555 1_555
C11 C10 1_555 1_555
H9 C11 1_555 1_555
C12 C11 1_555 1_555
H10 C12 1_555 1_555
C13 C8 1_555 1_555
H11 C13 1_555 1_555
Cu2 O3 1_555 1_555
Br2 C22 1_555 1_555
O3 C20 1_555 1_555
O4 C20 1_555 1_555
N2 Cu2 1_555 1_555
C14 N2 1_555 1_555
H12 C14 1_555 1_555
C15 C14 1_555 1_555
C16 C15 1_555 1_555
H13 C16 1_555 1_555
C17 C16 1_555 1_555
H14 C17 1_555 1_555
C18 N2 1_555 1_555
H15 C18 1_555 1_555
C19 C15 1_555 1_555
H16 C19 1_555 1_555
H17 C19 1_555 1_555
H18 C19 1_555 1_555
C20 C21 1_555 1_555
C21 C22 1_555 1_555
C22 C23 1_555 1_555
C23 H19 1_555 1_555
C24 C23 1_555 1_555
H20 C24 1_555 1_555
C25 C24 1_555 1_555
H21 C25 1_555 1_555
C26 C21 1_555 1_555
H22 C26 1_555 1_555
O5 Cu1 1_555 1_555
H23 O5 1_555 1_555
H24 O5 1_555 1_555
Br1A C9A 1_555 1_555
O1A Cu1 1_555 1_555
O2A C7A 1_555 1_555
N1A Cu1 1_555 1_555
C1A N1A 1_555 1_555
H1A C1A 1_555 1_555
C2A C1A 1_555 1_555
C3A C2A 1_555 1_555
H2A C3A 1_555 1_555
C4A C3A 1_555 1_555
H3A C4A 1_555 1_555
C5A N1A 1_555 1_555
H4A C5A 1_555 1_555
C6A C2A 1_555 1_555
H5A C6A 1_555 1_555
H6A C6A 1_555 1_555
H7A C6A 1_555 1_555
C7A O1A 1_555 1_555
C8A C7A 1_555 1_555
C9A C8A 1_555 1_555
C10A C9A 1_555 1_555
H8A C10A 1_555 1_555
C11A C10A 1_555 1_555
H9A C11A 1_555 1_555
C12A C11A 1_555 1_555
H10A C12A 1_555 1_555
C13A C8A 1_555 1_555
H11A C13A 1_555 1_555
O5A Cu1 1_555 1_555
H23A O5A 1_555 1_555
H24A O5A 1_555 1_555
Br2A C22A 1_555 1_555
O3A Cu2 1_555 1_555
O4A C20A 1_555 1_555
C20A O3A 1_555 1_555
C21A C20A 1_555 1_555
C22A C21A 1_555 1_555
C23A C22A 1_555 1_555
H19A C23A 1_555 1_555
C24A C23A 1_555 1_555
H20A C24A 1_555 1_555
C25A C24A 1_555 1_555
H21A C25A 1_555 1_555
C26A C21A 1_555 1_555
H22A C26A 1_555 1_555
N2A Cu2 1_555 1_555
C14A N2A 1_555 1_555
H12A C14A 1_555 1_555
C15A C14A 1_555 1_555
C16A C15A 1_555 1_555
H13A C16A 1_555 1_555
C17A C16A 1_555 1_555
H14A C17A 1_555 1_555
C18A N2A 1_555 1_555
H15A C18A 1_555 1_555
C19A C15A 1_555 1_555
H16A C19A 1_555 1_555
H17A C19A 1_555 1_555
H18A C19A 1_555 1_555
Cu2_2 O5A 1_555 1_555
O5A_2 Cu2 1_555 1_555
C4 C5 1_555 1_555
C12 C13 1_555 1_555
Cu2 O5 1_555 1_555
C17 C18 1_555 1_555
C25 C26 1_555 1_555
C4A C5A 1_555 1_555
C12A C13A 1_555 1_555
C25A C26A 1_555 1_555
C17A C18A 1_555 1_555

#END
