
#######################################################################
#
#                 Cambridge Crystallographic Data Centre
#                                CCDC 
#
#######################################################################
#
# If this CIF has been generated from an entry in the Cambridge 
# Structural Database, then it will include bibliographic, chemical, 
# crystal, experimental, refinement or atomic coordinate data resulting 
# from the CCDC's data processing and validation procedures.
#
#######################################################################

data_GIWWUF
_symmetry_cell_setting           orthorhombic
_symmetry_space_group_name_H-M   'P c a 21'
_symmetry_Int_Tables_number      29
_space_group_name_Hall           'P 2c -2ac'
loop_
_symmetry_equiv_pos_site_id
_symmetry_equiv_pos_as_xyz
1 x,y,z
2 -x,-y,1/2+z
3 1/2+x,-y,z
4 1/2-x,y,1/2+z
_cell_length_a                   14.920(2)
_cell_length_b                   7.0207(12)
_cell_length_c                   21.312(3)
_cell_angle_alpha                90
_cell_angle_beta                 90
_cell_angle_gamma                90
_cell_volume                     2232.41
loop_
_atom_site_label
_atom_site_type_symbol
_atom_site_fract_x
_atom_site_fract_y
_atom_site_fract_z
Cu1 Cu 0.55873(3) 0.42978(7) 0.18001(3)
Cu2 Cu 0.68321(3) 0.07661(7) 0.30763(2)
S1 S 0.56766(7) 0.44364(17) 0.29036(6)
S2 S 0.41359(6) 0.31756(15) 0.18062(6)
S3 S 0.67417(7) 0.06138(17) 0.19740(6)
S4 S 0.82917(6) 0.18503(15) 0.30715(6)
O1 O 0.24318(17) 0.2894(4) 0.30555(17)
O2 O 0.3942(2) 0.3981(5) 0.41205(17)
O3 O 0.99990(18) 0.2063(4) 0.18190(17)
O4 O 0.8488(2) 0.0988(5) 0.07553(17)
N1 N 0.6770(2) 0.5673(5) 0.1719(2)
H1 H 0.6765 0.6756 0.1962
H2 H 0.7228 0.4900 0.1856
N2 N 0.5648(2) 0.4135(6) 0.0815(2)
N3 N 0.5652(2) -0.0607(5) 0.3159(2)
H3 H 0.5194 0.0163 0.3020
H4 H 0.5657 -0.1693 0.2918
N4 N 0.6771(2) 0.1002(5) 0.4060(2)
C1 C 0.4595(2) 0.3844(6) 0.3044(2)
C2 C 0.3955(3) 0.3341(6) 0.2592(2)
C3 C 0.3231(2) 0.3213(5) 0.3065(3)
C4 C 0.3940(3) 0.3732(6) 0.3558(2)
C5 C 0.7826(3) 0.1166(5) 0.1840(2)
C6 C 0.8464(3) 0.1667(6) 0.2291(2)
C7 C 0.9194(2) 0.1756(5) 0.1818(3)
C8 C 0.8494(3) 0.1241(6) 0.1321(2)
C9 C 0.6915(4) 0.6182(9) 0.1059(3)
H5 H 0.7562 0.6384 0.0981
H6 H 0.6594 0.7380 0.0960
C10 C 0.6578(4) 0.4632(10) 0.0654(3)
H7 H 0.6608 0.5037 0.0209
H8 H 0.6965 0.3496 0.0704
C11 C 0.4968(4) 0.5347(9) 0.0515(3)
H9 H 0.4369 0.4940 0.0650
H10 H 0.5016 0.5232 0.0058
H11 H 0.5064 0.6676 0.0638
C12 C 0.5496(4) 0.2166(8) 0.0570(3)
H12 H 0.5937 0.1298 0.0755
H13 H 0.5561 0.2165 0.0112
H14 H 0.4891 0.1746 0.0682
C13 C 0.5505(3) -0.1110(7) 0.3826(3)
H15 H 0.5844 -0.2277 0.3935
H16 H 0.4860 -0.1346 0.3905
C14 C 0.5832(3) 0.0567(7) 0.4220(3)
H17 H 0.5452 0.1696 0.4138
H18 H 0.5785 0.0249 0.4671
C15 C 0.7385(3) -0.0368(7) 0.4353(3)
H19 H 0.8003 -0.0058 0.4235
H20 H 0.7240 -0.1657 0.4208
H21 H 0.7323 -0.0305 0.4810
C16 C 0.6988(3) 0.2951(7) 0.4292(2)
H22 H 0.6582 0.3875 0.4098
H23 H 0.7608 0.3266 0.4181
H24 H 0.6918 0.2993 0.4749
Cu1B Cu 1.05873(3) 0.57022(7) 0.18001(3)
Cu2B Cu 0.18321(3) -0.07661(7) 0.30763(2)
O1B O 0.74318(17) -0.2894(4) 0.30555(17)
O3B O 0.49990(18) 0.7937(4) 0.18190(17)
loop_
_geom_bond_atom_site_label_1
_geom_bond_atom_site_label_2
_geom_bond_site_symmetry_1
_geom_bond_site_symmetry_2
Cu1 S1 1_555 1_555
Cu2 S1 1_555 1_555
S1 C1 1_555 1_555
S2 Cu1 1_555 1_555
S3 Cu1 1_555 1_555
S4 Cu2 1_555 1_555
O1 C3 1_555 1_555
O2 C4 1_555 1_555
O3 C7 1_555 1_555
O4 C8 1_555 1_555
N1 Cu1 1_555 1_555
H1 N1 1_555 1_555
H2 N1 1_555 1_555
N2 Cu1 1_555 1_555
N3 Cu2 1_555 1_555
H3 N3 1_555 1_555
H4 N3 1_555 1_555
N4 Cu2 1_555 1_555
C1 C2 1_555 1_555
C2 S2 1_555 1_555
C3 C2 1_555 1_555
C4 C1 1_555 1_555
C5 S3 1_555 1_555
C6 S4 1_555 1_555
C7 C6 1_555 1_555
C8 C5 1_555 1_555
C9 N1 1_555 1_555
H5 C9 1_555 1_555
H6 C9 1_555 1_555
C10 N2 1_555 1_555
H7 C10 1_555 1_555
H8 C10 1_555 1_555
C11 N2 1_555 1_555
H9 C11 1_555 1_555
H10 C11 1_555 1_555
H11 C11 1_555 1_555
C12 N2 1_555 1_555
H12 C12 1_555 1_555
H13 C12 1_555 1_555
H14 C12 1_555 1_555
C13 N3 1_555 1_555
H15 C13 1_555 1_555
H16 C13 1_555 1_555
C14 N4 1_555 1_555
H17 C14 1_555 1_555
H18 C14 1_555 1_555
C15 N4 1_555 1_555
H19 C15 1_555 1_555
H20 C15 1_555 1_555
H21 C15 1_555 1_555
C16 N4 1_555 1_555
H22 C16 1_555 1_555
H23 C16 1_555 1_555
H24 C16 1_555 1_555
Cu1B O3 1_555 1_555
Cu2B O1 1_555 1_555
O1B Cu2 1_555 1_555
O3B Cu1 1_555 1_555
Cu2 S3 1_555 1_555
C3 C4 1_555 1_555
C5 C6 1_555 1_555
C7 C8 1_555 1_555
C9 C10 1_555 1_555
C13 C14 1_555 1_555

#END
