
#######################################################################
#
#                 Cambridge Crystallographic Data Centre
#                                CCDC 
#
#######################################################################
#
# If this CIF has been generated from an entry in the Cambridge 
# Structural Database, then it will include bibliographic, chemical, 
# crystal, experimental, refinement or atomic coordinate data resulting 
# from the CCDC's data processing and validation procedures.
#
#######################################################################

data_GIWXIU
_symmetry_cell_setting           orthorhombic
_symmetry_space_group_name_H-M   'P b c a'
_symmetry_Int_Tables_number      61
_space_group_name_Hall           '-P 2ac 2ab'
loop_
_symmetry_equiv_pos_site_id
_symmetry_equiv_pos_as_xyz
1 x,y,z
2 1/2-x,-y,1/2+z
3 -x,1/2+y,1/2-z
4 1/2+x,1/2-y,-z
5 -x,-y,-z
6 1/2+x,y,1/2-z
7 x,1/2-y,1/2+z
8 1/2-x,1/2+y,z
_cell_length_a                   7.9259(18)
_cell_length_b                   21.268(6)
_cell_length_c                   21.887(6)
_cell_angle_alpha                90
_cell_angle_beta                 90
_cell_angle_gamma                90
_cell_volume                     3689.45
loop_
_atom_site_label
_atom_site_type_symbol
_atom_site_fract_x
_atom_site_fract_y
_atom_site_fract_z
Cd1 Cd 0.24096(3) 0.154690(9) 0.465100(9)
N1 N -0.1386(4) 0.36520(17) 0.75718(14)
N2 N 0.1756(4) 0.17141(16) 0.77332(14)
N3 N 0.3248(3) 0.07988(11) 0.53806(11)
N4 N 0.1568(3) 0.05499(12) 0.43196(12)
O1 O 0.1465(3) 0.20328(11) 0.55177(9)
O2 O -0.0508(3) 0.27186(10) 0.52915(9)
O3 O -0.1477(3) 0.34804(11) 0.62909(10)
O4 O -0.1479(6) 0.41538(17) 0.73208(14)
O5 O -0.1838(4) 0.35744(15) 0.81044(13)
O6 O 0.1683(4) 0.17832(15) 0.82962(12)
O7 O 0.2462(4) 0.12732(17) 0.74921(15)
C1 C 0.0252(3) 0.25570(13) 0.63481(12)
C2 C -0.0664(4) 0.30836(14) 0.65997(13)
C3 C -0.0595(4) 0.31245(16) 0.72609(13)
C4 C 0.0149(4) 0.26869(17) 0.76255(12)
H1 H 0.0109 0.2725 0.8049
C5 C 0.0960(4) 0.21886(16) 0.73582(13)
C6 C 0.1041(4) 0.21298(14) 0.67251(12)
H2 H 0.1638 0.1797 0.6554
C7 C 0.0411(3) 0.24356(13) 0.56700(12)
C8 C 0.4002(4) 0.09186(15) 0.59064(15)
H3 H 0.4253 0.1334 0.6002
C9 C 0.4439(4) 0.04536(17) 0.63244(16)
H4 H 0.4957 0.0560 0.6691
C10 C 0.4104(4) -0.01538(17) 0.61916(16)
H5 H 0.4401 -0.0470 0.6465
C11 C 0.3301(4) -0.03063(14) 0.56363(15)
C12 C 0.2929(5) -0.09353(15) 0.54581(19)
H6 H 0.3199 -0.1265 0.5720
C13 C 0.2199(4) -0.10601(15) 0.4921(2)
H7 H 0.2006 -0.1476 0.4812
C14 C 0.1703(4) -0.05663(14) 0.45080(15)
C15 C 0.0949(4) -0.06692(16) 0.39426(17)
H8 H 0.0741 -0.1078 0.3812
C16 C 0.0516(5) -0.01806(18) 0.35828(17)
H9 H 0.0008 -0.0249 0.3205
C17 C 0.0846(4) 0.04314(17) 0.37872(16)
H10 H 0.0545 0.0768 0.3538
C18 C 0.2019(3) 0.00647(13) 0.46777(13)
C19 C 0.2866(3) 0.01899(13) 0.52471(13)
O8 O 0.0235(3) 0.21404(11) 0.42212(10)
H11 H -0.0194 0.2362 0.4485
H12 H 0.0901 0.2388 0.4010
Cd1C Cd -0.25904(3) 0.345310(9) 0.534900(9)
O2C O 0.4492(3) 0.22814(10) 0.47085(9)
O3C O 0.3523(3) 0.15196(11) 0.37091(10)
loop_
_geom_bond_atom_site_label_1
_geom_bond_atom_site_label_2
_geom_bond_site_symmetry_1
_geom_bond_site_symmetry_2
Cd1 N3 1_555 1_555
N1 O4 1_555 1_555
N2 O6 1_555 1_555
N3 C8 1_555 1_555
N4 Cd1 1_555 1_555
O1 Cd1 1_555 1_555
O2 C7 1_555 1_555
O3 C2 1_555 1_555
O5 N1 1_555 1_555
O7 N2 1_555 1_555
C1 C2 1_555 1_555
C2 C3 1_555 1_555
C3 N1 1_555 1_555
C4 C3 1_555 1_555
H1 C4 1_555 1_555
C5 N2 1_555 1_555
C6 C1 1_555 1_555
H2 C6 1_555 1_555
C7 O1 1_555 1_555
C8 H3 1_555 1_555
C9 C8 1_555 1_555
H4 C9 1_555 1_555
C10 C9 1_555 1_555
H5 C10 1_555 1_555
C11 C10 1_555 1_555
C12 C11 1_555 1_555
H6 C12 1_555 1_555
C13 C12 1_555 1_555
H7 C13 1_555 1_555
C14 C13 1_555 1_555
C15 C14 1_555 1_555
H8 C15 1_555 1_555
C16 C15 1_555 1_555
H9 C16 1_555 1_555
C17 N4 1_555 1_555
H10 C17 1_555 1_555
C18 N4 1_555 1_555
C19 N3 1_555 1_555
O8 Cd1 1_555 1_555
H11 O8 1_555 1_555
H12 O8 1_555 1_555
Cd1C O2 1_555 1_555
O2C Cd1 1_555 1_555
O3C Cd1 1_555 1_555
O3 Cd1C 1_555 1_555
C1 C7 1_555 1_555
C4 C5 1_555 1_555
C5 C6 1_555 1_555
C11 C19 1_555 1_555
C14 C18 1_555 1_555
C16 C17 1_555 1_555
C18 C19 1_555 1_555

#END
