
#######################################################################
#
#                 Cambridge Crystallographic Data Centre
#                                CCDC 
#
#######################################################################
#
# If this CIF has been generated from an entry in the Cambridge 
# Structural Database, then it will include bibliographic, chemical, 
# crystal, experimental, refinement or atomic coordinate data resulting 
# from the CCDC's data processing and validation procedures.
#
#######################################################################

data_GIWXEQ
_symmetry_cell_setting           triclinic
_symmetry_space_group_name_H-M   'P -1'
_symmetry_Int_Tables_number      2
_space_group_name_Hall           '-P 1'
loop_
_symmetry_equiv_pos_site_id
_symmetry_equiv_pos_as_xyz
1 x,y,z
2 -x,-y,-z
_cell_length_a                   7.7395(11)
_cell_length_b                   11.7295(17)
_cell_length_c                   13.2184(18)
_cell_angle_alpha                90.320(3)
_cell_angle_beta                 91.501(3)
_cell_angle_gamma                99.913(3)
_cell_volume                     1181.59
loop_
_atom_site_label
_atom_site_type_symbol
_atom_site_fract_x
_atom_site_fract_y
_atom_site_fract_z
Cu1 Cu 0.61319(6) 0.42060(4) 0.42981(4)
Cu2 Cu 0.14498(6) 0.43859(4) 0.46882(4)
Cu3 Cu 0.5000 0.5000 0.0000
Cu4 Cu 1.0000 1.0000 0.5000
S1 S 0.88786(11) 0.45378(7) 0.36786(7)
S2 S 0.90640(12) 0.74407(7) 0.45701(7)
S3 S 0.37060(11) 0.46970(7) 0.35694(7)
S4 S 0.42438(13) 0.75413(7) 0.49379(7)
O1 O 1.0414(5) 0.8400(3) 0.2088(2)
O2 O 1.0401(5) 0.5752(3) 0.1300(2)
O3 O 0.6042(5) 0.8797(2) 0.2693(3)
O4 O 0.5672(4) 0.6311(3) 0.1509(2)
N1 N 0.7087(5) 0.4260(3) 0.0326(3)
H1 H 0.7491 0.3997 -0.0248
H2 H 0.7947 0.4787 0.0610
N2 N 0.3696(5) 0.3724(4) 0.0888(3)
H3 H 0.3591 0.4087 0.1488
N3 N 0.7452(4) 0.9956(3) 0.5231(3)
H4 H 0.7128 1.0609 0.4996
H5 H 0.6818 0.9352 0.4890
N4 N 1.0102(4) 0.9572(3) 0.6503(2)
H6 H 1.0410 1.0253 0.6850
C1 C 0.9437(4) 0.5824(3) 0.3073(3)
C2 C 0.9503(4) 0.6955(3) 0.3433(3)
C3 C 1.0082(6) 0.7439(3) 0.2443(3)
C4 C 1.0060(5) 0.6206(3) 0.2088(3)
C5 C 0.4448(4) 0.6096(3) 0.3232(3)
C6 C 0.4632(4) 0.7162(3) 0.3749(3)
C7 C 0.5423(5) 0.7789(3) 0.2874(3)
C8 C 0.5246(5) 0.6629(3) 0.2327(3)
C9 C 0.6624(9) 0.3325(7) 0.1002(8)
H7 H 0.7143 0.2677 0.0769
H8 H 0.7147 0.3557 0.1663
C10 C 0.4872(8) 0.2948(6) 0.1115(6)
H9 H 0.4699 0.2706 0.1811
H10 H 0.4531 0.2265 0.0691
C11 C 0.1961(8) 0.3180(6) 0.0626(6)
H11 H 0.1953 0.2787 -0.0013
H12 H 0.1215 0.3753 0.0578
H13 H 0.1538 0.2631 0.1137
C12 C 0.7107(5) 0.9847(4) 0.6307(3)
H14 H 0.5894 0.9494 0.6401
H15 H 0.7305 1.0607 0.6626
C13 C 0.8306(6) 0.9112(4) 0.6781(3)
H16 H 0.8212 0.9122 0.7511
H17 H 0.7980 0.8318 0.6543
C14 C 1.1328(6) 0.8809(4) 0.6872(4)
H18 H 1.1241 0.8723 0.7591
H19 H 1.2508 0.9147 0.6712
H20 H 1.1028 0.8063 0.6549
Cu1A Cu 0.38681(6) 0.57940(4) -0.42981(4)
Cu1A_2 Cu 0.38681(6) 0.57940(4) 0.57019(4)
Cu1_2 Cu 0.61319(6) 0.42060(4) -0.57019(4)
Cu1_3 Cu -0.38681(6) 0.42060(4) 0.42981(4)
Cu2A Cu 0.85502(6) 0.56141(4) -0.46882(4)
Cu2A_2 Cu 0.85502(6) 0.56141(4) 0.53118(4)
Cu2_2 Cu 1.14498(6) 0.43859(4) 0.46882(4)
Cu2_3 Cu 0.14498(6) 0.43859(4) -0.53118(4)
Cu2A_3 Cu -0.14498(6) 0.56141(4) 0.53118(4)
Cu4_2 Cu 0.0000 1.0000 0.5000
S1_2 S -0.11214(11) 0.45378(7) 0.36786(7)
S1A S 0.11214(11) 0.54622(7) 0.63214(7)
S1A_2 S 0.11214(11) 0.54622(7) -0.36786(7)
S1_3 S 0.88786(11) 0.45378(7) -0.63214(7)
S1A_3 S 1.11214(11) 0.54622(7) -0.36786(7)
S2_2 S -0.09360(12) 0.74407(7) 0.45701(7)
S2A S 0.09360(12) 0.25593(7) 0.54299(7)
S2A_2 S 1.09360(12) 1.25593(7) 0.54299(7)
S2_3 S 0.90640(12) 0.74407(7) -0.54299(7)
S3A S 0.62940(11) 0.53030(7) -0.35694(7)
S4A S 0.57562(13) 0.24587(7) -0.49379(7)
S4A_2 S 0.57562(13) 0.24587(7) 0.50621(7)
S4_2 S 0.42438(13) 0.75413(7) -0.50621(7)
O1_2 O 0.0414(5) 0.8400(3) 0.2088(2)
O2_2 O 0.0401(5) 0.5752(3) 0.1300(2)
O3A O 0.3958(5) 0.1203(2) -0.2693(3)
O4A O 0.4328(4) 0.3689(3) -0.1509(2)
N1A N 0.2913(5) 0.5740(3) -0.0326(3)
H1A H 0.2509 0.6003 0.0248
H2A H 0.2053 0.5213 -0.0610
N2A N 0.6304(5) 0.6276(4) -0.0888(3)
H3A H 0.6409 0.5913 -0.1488
N3A N 1.2548(4) 1.0044(3) 0.4769(3)
H4A H 1.2872 0.9391 0.5004
H5A H 1.3182 1.0648 0.5110
N4A N 0.9898(4) 1.0428(3) 0.3497(2)
H6A H 0.9590 0.9747 0.3150
C1_2 C -0.0563(4) 0.5824(3) 0.3073(3)
C2_2 C -0.0497(4) 0.6955(3) 0.3433(3)
C3_2 C 0.0082(6) 0.7439(3) 0.2443(3)
C4_2 C 0.0060(5) 0.6206(3) 0.2088(3)
C5A C 0.5552(4) 0.3904(3) -0.3232(3)
C6A C 0.5368(4) 0.2838(3) -0.3749(3)
C7A C 0.4577(5) 0.2211(3) -0.2874(3)
C8A C 0.4754(5) 0.3371(3) -0.2327(3)
C9A C 0.3376(9) 0.6675(7) -0.1002(8)
H7A H 0.2857 0.7323 -0.0769
H8A H 0.2853 0.6443 -0.1663
C10A C 0.5128(8) 0.7052(6) -0.1115(6)
H9A H 0.5301 0.7294 -0.1811
H10A H 0.5469 0.7735 -0.0691
C11A C 0.8039(8) 0.6820(6) -0.0626(6)
H11A H 0.8047 0.7213 0.0013
H12A H 0.8785 0.6247 -0.0578
H13A H 0.8462 0.7369 -0.1137
C12A C 1.2893(5) 1.0153(4) 0.3693(3)
H14A H 1.4106 1.0506 0.3599
H15A H 1.2695 0.9393 0.3374
C13A C 1.1694(6) 1.0888(4) 0.3219(3)
H16A H 1.1788 1.0878 0.2489
H17A H 1.2020 1.1682 0.3457
C14A C 0.8672(6) 1.1191(4) 0.3128(4)
H18A H 0.8759 1.1277 0.2409
H19A H 0.7492 1.0853 0.3288
H20A H 0.8972 1.1937 0.3451
O5 O 0.6089(19) 0.9849(12) 0.0730(11)
O6 O 0.884(3) 1.065(2) -0.0157(17)
loop_
_geom_bond_atom_site_label_1
_geom_bond_atom_site_label_2
_geom_bond_site_symmetry_1
_geom_bond_site_symmetry_2
Cu1 S1 1_555 1_555
Cu2 S3 1_555 1_555
Cu3 O4 1_555 1_555
Cu4 S2 1_555 1_555
S1 C1 1_555 1_555
S2 C2 1_555 1_555
S3 Cu1 1_555 1_555
S4 C6 1_555 1_555
O1 C3 1_555 1_555
O2 C4 1_555 1_555
O3 C7 1_555 1_555
O4 C8 1_555 1_555
N1 Cu3 1_555 1_555
H1 N1 1_555 1_555
H2 N1 1_555 1_555
N2 Cu3 1_555 1_555
H3 N2 1_555 1_555
N3 Cu4 1_555 1_555
H4 N3 1_555 1_555
H5 N3 1_555 1_555
N4 Cu4 1_555 1_555
H6 N4 1_555 1_555
C1 C2 1_555 1_555
C2 C3 1_555 1_555
C3 C4 1_555 1_555
C4 C1 1_555 1_555
C5 S3 1_555 1_555
C6 C5 1_555 1_555
C7 C6 1_555 1_555
C8 C5 1_555 1_555
C9 N1 1_555 1_555
H7 C9 1_555 1_555
H8 C9 1_555 1_555
C10 N2 1_555 1_555
H9 C10 1_555 1_555
H10 C10 1_555 1_555
C11 N2 1_555 1_555
H11 C11 1_555 1_555
H12 C11 1_555 1_555
H13 C11 1_555 1_555
C12 N3 1_555 1_555
H14 C12 1_555 1_555
H15 C12 1_555 1_555
C13 N4 1_555 1_555
H16 C13 1_555 1_555
H17 C13 1_555 1_555
C14 N4 1_555 1_555
H18 C14 1_555 1_555
H19 C14 1_555 1_555
H20 C14 1_555 1_555
Cu1A Cu2_3 1_555 1_555
Cu1A_2 Cu2 1_555 1_555
Cu1_2 Cu2A 1_555 1_555
Cu1_3 Cu2A_3 1_555 1_555
Cu2A S1_3 1_555 1_555
Cu2A_2 Cu1 1_555 1_555
Cu2_2 S1 1_555 1_555
Cu2_3 S1A_2 1_555 1_555
Cu2A_3 S1_2 1_555 1_555
Cu4_2 S2_2 1_555 1_555
S1_2 Cu2 1_555 1_555
S1A Cu2 1_555 1_555
S1A_2 Cu1A 1_555 1_555
S1_3 Cu1_2 1_555 1_555
S1A_3 Cu2A 1_555 1_555
S2_2 Cu2A_3 1_555 1_555
S2A Cu2 1_555 1_555
S2A_2 Cu4 1_555 1_555
S2_3 Cu2A 1_555 1_555
S3A Cu1A 1_555 1_555
S4A Cu1_2 1_555 1_555
S4A_2 Cu1 1_555 1_555
S4_2 Cu1A 1_555 1_555
O1_2 C3_2 1_555 1_555
O2_2 C4_2 1_555 1_555
O3A C7A 1_555 1_555
O4A Cu3 1_555 1_555
N1A Cu3 1_555 1_555
H1A N1A 1_555 1_555
H2A N1A 1_555 1_555
N2A Cu3 1_555 1_555
H3A N2A 1_555 1_555
N3A Cu4 1_555 1_555
H4A N3A 1_555 1_555
H5A N3A 1_555 1_555
N4A Cu4 1_555 1_555
H6A N4A 1_555 1_555
C1_2 S1_2 1_555 1_555
C2_2 S2_2 1_555 1_555
C3_2 C2_2 1_555 1_555
C4_2 C1_2 1_555 1_555
C5A S3A 1_555 1_555
C6A S4A 1_555 1_555
C7A C6A 1_555 1_555
C8A O4A 1_555 1_555
C9A N1A 1_555 1_555
H7A C9A 1_555 1_555
H8A C9A 1_555 1_555
C10A N2A 1_555 1_555
H9A C10A 1_555 1_555
H10A C10A 1_555 1_555
C11A N2A 1_555 1_555
H11A C11A 1_555 1_555
H12A C11A 1_555 1_555
H13A C11A 1_555 1_555
C12A N3A 1_555 1_555
H14A C12A 1_555 1_555
H15A C12A 1_555 1_555
C13A N4A 1_555 1_555
H16A C13A 1_555 1_555
H17A C13A 1_555 1_555
C14A N4A 1_555 1_555
H18A C14A 1_555 1_555
H19A C14A 1_555 1_555
H20A C14A 1_555 1_555
S1 Cu2A_2 1_555 1_555
S2 Cu2A_2 1_555 1_555
S4 Cu1A_2 1_555 1_555
C7 C8 1_555 1_555
C9 C10 1_555 1_555
C12 C13 1_555 1_555
Cu1A_2 S1A 1_555 1_555
Cu1_3 S1_2 1_555 1_555
Cu2A S3A 1_555 1_555
Cu2A_3 S1A 1_555 1_555
C1_2 C2_2 1_555 1_555
C3_2 C4_2 1_555 1_555
C5A C6A 1_555 1_555
C5A C8A 1_555 1_555
C7A C8A 1_555 1_555
C9A C10A 1_555 1_555
C12A C13A 1_555 1_555

#END
