
#######################################################################
#
#                 Cambridge Crystallographic Data Centre
#                                CCDC 
#
#######################################################################
#
# If this CIF has been generated from an entry in the Cambridge 
# Structural Database, then it will include bibliographic, chemical, 
# crystal, experimental, refinement or atomic coordinate data resulting 
# from the CCDC's data processing and validation procedures.
#
#######################################################################

data_GIWYIV
_symmetry_cell_setting           triclinic
_symmetry_space_group_name_H-M   'P -1'
_symmetry_Int_Tables_number      2
_space_group_name_Hall           '-P 1'
loop_
_symmetry_equiv_pos_site_id
_symmetry_equiv_pos_as_xyz
1 x,y,z
2 -x,-y,-z
_cell_length_a                   8.819(4)
_cell_length_b                   12.787(6)
_cell_length_c                   15.198(8)
_cell_angle_alpha                68.35(3)
_cell_angle_beta                 77.18(3)
_cell_angle_gamma                73.52(3)
_cell_volume                     1514.24
loop_
_atom_site_label
_atom_site_type_symbol
_atom_site_fract_x
_atom_site_fract_y
_atom_site_fract_z
Cd1 Cd 0.38995(4) -0.00222(3) 0.61347(2)
Cd2 Cd 0.16488(4) -0.01314(3) 0.84153(2)
N1 N 0.4142(5) -0.0890(4) 0.4972(3)
N2 N 0.4229(4) -0.1881(4) 0.5123(3)
N3 N 0.4281(5) -0.2836(4) 0.5249(3)
N4 N 0.1979(5) -0.0913(3) 0.7217(3)
N5 N 0.2101(4) -0.1929(4) 0.7445(3)
N6 N 0.2198(5) -0.2904(4) 0.7653(3)
N7 N 0.3642(5) 0.0827(4) 0.7322(3)
N8 N 0.3531(4) 0.1780(4) 0.7322(3)
N9 N 0.3417(5) 0.2692(4) 0.7351(3)
N10 N -0.0306(5) -0.1154(4) 0.9255(3)
N11 N -0.1045(4) -0.1019(3) 0.9958(3)
N12 N -0.1818(5) -0.0926(4) 1.0667(3)
N13 N 0.5875(4) -0.1418(3) 0.6942(3)
C1 C 0.6827(6) -0.1144(4) 0.7359(4)
H1 H 0.6789 -0.0366 0.7225
C2 C 0.7846(6) -0.1936(4) 0.7967(4)
H2 H 0.8481 -0.1696 0.8235
C3 C 0.7936(5) -0.3112(4) 0.8187(3)
C4 C 0.6989(6) -0.3399(4) 0.7745(3)
H3 H 0.7024 -0.4171 0.7856
C5 C 0.5996(5) -0.2550(4) 0.7141(3)
H4 H 0.5370 -0.2770 0.6851
C6 C 0.9005(6) -0.3977(4) 0.8873(4)
H5 H 1.0098 -0.3913 0.8621
H6 H 0.8744 -0.3810 0.9469
O1 O 0.8884(4) -0.5112(3) 0.9055(3)
N14 N 0.1989(4) 0.1467(3) 0.5338(3)
C7 C 0.1073(6) 0.1296(4) 0.4838(3)
H7 H 0.1161 0.0545 0.4859
C8 C 0.0021(6) 0.2158(4) 0.4300(4)
H8 H -0.0609 0.1990 0.3976
C9 C -0.0117(6) 0.3299(4) 0.4234(3)
C10 C 0.0812(6) 0.3477(4) 0.4755(3)
H9 H 0.0755 0.4220 0.4743
C11 C 0.1822(6) 0.2558(4) 0.5293(3)
H10 H 0.2429 0.2699 0.5649
C12 C -0.1210(6) 0.4261(4) 0.3621(4)
H11 H -0.0725 0.4440 0.2960
H12 H -0.2197 0.4036 0.3673
O2 O -0.1537(5) 0.5241(3) 0.3904(3)
N15 N 0.3393(5) -0.1610(3) 0.9350(3)
C13 C 0.4575(6) -0.1375(5) 0.9602(4)
H13 H 0.4702 -0.0618 0.9362
C14 C 0.5614(6) -0.2184(4) 1.0195(4)
H14 H 0.6419 -0.1975 1.0354
C15 C 0.5460(6) -0.3317(4) 1.0558(3)
C16 C 0.4220(6) -0.3556(4) 1.0319(4)
H15 H 0.4052 -0.4302 1.0566
C17 C 0.3226(6) -0.2704(4) 0.9722(4)
H16 H 0.2397 -0.2891 0.9566
C18 C 0.6562(6) -0.4240(4) 1.1204(4)
H17 H 0.5965 -0.4514 1.1830
H18 H 0.6962 -0.4883 1.0961
O3 O 0.7877(4) -0.3878(3) 1.1303(3)
N16 N -0.0297(5) 0.1406(3) 0.7709(3)
C19 C -0.1119(6) 0.1296(4) 0.7132(4)
H19 H -0.0923 0.0583 0.7049
C20 C -0.2237(6) 0.2173(4) 0.6653(4)
H20 H -0.2794 0.2046 0.6263
C21 C -0.2548(6) 0.3250(4) 0.6745(3)
C22 C -0.1707(6) 0.3358(4) 0.7350(4)
H21 H -0.1888 0.4061 0.7450
C23 C -0.0605(6) 0.2440(4) 0.7809(4)
H22 H -0.0042 0.2541 0.8211
C24 C -0.3702(6) 0.4236(4) 0.6188(4)
H23 H -0.3210 0.4537 0.5536
H24 H -0.4627 0.3977 0.6174
O4 O -0.4178(5) 0.5108(3) 0.6612(3)
H25 H 0.9789 -0.5511 0.9022
H26 H -0.1959 0.5752 0.3460
H27 H 0.7575 -0.3413 1.1594
H28 H -0.4607 0.5690 0.6217
Cd1A Cd 0.61005(4) 0.00222(3) 0.38653(2)
Cd2A Cd -0.16488(4) 0.01314(3) 1.15847(2)
N1A N 0.5858(5) 0.0890(4) 0.5028(3)
N12A N 0.1818(5) 0.0926(4) 0.9333(3)
loop_
_geom_bond_atom_site_label_1
_geom_bond_atom_site_label_2
_geom_bond_site_symmetry_1
_geom_bond_site_symmetry_2
Cd1 N1 1_555 1_555
Cd2 N4 1_555 1_555
N1 N2 1_555 1_555
N2 N3 1_555 1_555
N4 Cd1 1_555 1_555
N5 N4 1_555 1_555
N6 N5 1_555 1_555
N7 Cd1 1_555 1_555
N8 N7 1_555 1_555
N9 N8 1_555 1_555
N10 Cd2 1_555 1_555
N11 N10 1_555 1_555
N12 N11 1_555 1_555
N13 Cd1 1_555 1_555
C1 N13 1_555 1_555
H1 C1 1_555 1_555
C2 C1 1_555 1_555
H2 C2 1_555 1_555
C3 C2 1_555 1_555
C4 C3 1_555 1_555
H3 C4 1_555 1_555
C5 N13 1_555 1_555
H4 C5 1_555 1_555
C6 C3 1_555 1_555
H5 C6 1_555 1_555
H6 C6 1_555 1_555
O1 C6 1_555 1_555
N14 Cd1 1_555 1_555
C7 N14 1_555 1_555
H7 C7 1_555 1_555
C8 C7 1_555 1_555
H8 C8 1_555 1_555
C9 C8 1_555 1_555
C10 C9 1_555 1_555
H9 C10 1_555 1_555
C11 N14 1_555 1_555
H10 C11 1_555 1_555
C12 C9 1_555 1_555
H11 C12 1_555 1_555
H12 C12 1_555 1_555
O2 C12 1_555 1_555
N15 Cd2 1_555 1_555
C13 N15 1_555 1_555
H13 C13 1_555 1_555
C14 C13 1_555 1_555
H14 C14 1_555 1_555
C15 C14 1_555 1_555
C16 C15 1_555 1_555
H15 C16 1_555 1_555
C17 N15 1_555 1_555
H16 C17 1_555 1_555
C18 C15 1_555 1_555
H17 C18 1_555 1_555
H18 C18 1_555 1_555
O3 C18 1_555 1_555
N16 Cd2 1_555 1_555
C19 N16 1_555 1_555
H19 C19 1_555 1_555
C20 C19 1_555 1_555
H20 C20 1_555 1_555
C21 C20 1_555 1_555
C22 C21 1_555 1_555
H21 C22 1_555 1_555
C23 N16 1_555 1_555
H22 C23 1_555 1_555
C24 C21 1_555 1_555
H23 C24 1_555 1_555
H24 C24 1_555 1_555
O4 C24 1_555 1_555
H25 O1 1_555 1_555
H26 O2 1_555 1_555
H27 O3 1_555 1_555
H28 O4 1_555 1_555
Cd1A N1 1_555 1_555
Cd2A N12 1_555 1_555
N1A Cd1 1_555 1_555
N12A Cd2 1_555 1_555
Cd2 N7 1_555 1_555
C4 C5 1_555 1_555
C10 C11 1_555 1_555
C16 C17 1_555 1_555
C22 C23 1_555 1_555
Cd1A N1A 1_555 1_555

#END
