
#######################################################################
#
#                 Cambridge Crystallographic Data Centre
#                                CCDC 
#
#######################################################################
#
# If this CIF has been generated from an entry in the Cambridge 
# Structural Database, then it will include bibliographic, chemical, 
# crystal, experimental, refinement or atomic coordinate data resulting 
# from the CCDC's data processing and validation procedures.
#
#######################################################################

data_GIWYUI
_symmetry_cell_setting           monoclinic
_symmetry_space_group_name_H-M   'C 2/c'
_symmetry_Int_Tables_number      15
_space_group_name_Hall           '-C 2yn'
loop_
_symmetry_equiv_pos_site_id
_symmetry_equiv_pos_as_xyz
1 x,y,z
2 -x,y,1/2-z
3 1/2+x,1/2+y,z
4 1/2-x,1/2+y,1/2-z
5 -x,-y,-z
6 x,-y,1/2+z
7 1/2-x,1/2-y,-z
8 1/2+x,1/2-y,1/2+z
_cell_length_a                   17.131(3)
_cell_length_b                   6.7311(13)
_cell_length_c                   32.747(7)
_cell_angle_alpha                90
_cell_angle_beta                 99.69(3)
_cell_angle_gamma                90
_cell_volume                     3722.2
loop_
_atom_site_label
_atom_site_type_symbol
_atom_site_fract_x
_atom_site_fract_y
_atom_site_fract_z
O1 O 0.4547(3) 0.1293(8) 0.3635(2)
C1 C 0.5171(4) 0.1716(9) 0.3504(3)
O2 O 1.3018(3) 0.1239(8) 0.38846(17)
C2 C 1.2386(4) 0.1596(10) 0.4012(2)
Sr1 Sr 0.87854(3) 0.30237(9) 0.375224(19)
O3 O 0.8278(3) 0.3763(8) 0.29872(17)
H1 H 0.835(5) 0.487(7) 0.288(3)
H2 H 0.7788(15) 0.377(14) 0.290(3)
O4 O 0.9267(3) 0.3805(8) 0.45230(17)
H3 H 0.922(5) 0.492(7) 0.464(2)
H4 H 0.962(4) 0.299(10) 0.463(3)
O5 O 0.8382(4) -0.0191(8) 0.33316(17)
H5 H 0.832(5) 0.006(14) 0.3079(9)
H6 H 0.838(5) -0.130(7) 0.344(3)
O6 O 0.9219(4) -0.0143(8) 0.41761(16)
H7 H 0.930(5) -0.107(10) 0.402(2)
H8 H 0.924(5) -0.051(14) 0.4423(11)
N1 N 1.0213(3) 0.2078(9) 0.35496(19)
N2 N 0.7359(4) 0.1913(10) 0.3951(2)
N3 N 1.2361(3) 0.1806(11) 0.4412(2)
H9 H 1.281(3) 0.194(13) 0.459(2)
H10 H 1.193(3) 0.225(11) 0.450(3)
C3 C 1.1627(4) 0.1755(10) 0.3708(2)
C4 C 1.0888(4) 0.1862(11) 0.3823(2)
H11 H 1.0854 0.1779 0.4110
N4 N 0.5170(4) 0.2186(11) 0.3115(2)
H12 H 0.473(3) 0.219(13) 0.293(2)
H13 H 0.560(3) 0.240(12) 0.300(3)
C5 C 1.1678(4) 0.1851(12) 0.3290(2)
H14 H 1.2175 0.1747 0.3201
C6 C 1.0983(5) 0.2104(13) 0.3004(2)
H15 H 1.0998 0.2184 0.2716
C7 C 0.6617(5) 0.1692(13) 0.4505(3)
H16 H 0.6615 0.1640 0.4795
C8 C 0.6678(4) 0.1848(10) 0.3682(3)
H17 H 0.6702 0.1858 0.3394
C9 C 0.5932(4) 0.1767(11) 0.3803(3)
C10 C 1.0276(4) 0.2235(11) 0.3150(2)
H18 H 0.9806 0.2448 0.2955
C11 C 0.5916(5) 0.1678(12) 0.4223(3)
H19 H 0.5423 0.1607 0.4318
C12 C 0.7316(5) 0.1785(12) 0.4350(3)
H20 H 0.7798 0.1755 0.4542
O1B O 0.9547(3) 0.6293(8) 0.3635(2)
O2B O 0.8018(3) 0.6239(8) 0.38846(17)
Sr1B Sr 0.37854(3) -0.19763(9) 0.375224(19)
Sr1B_2 Sr 1.37854(3) -0.19763(9) 0.375224(19)
Cl1 Cl 0.59356(10) 0.7256(3) 0.49744(5)
Cl2 Cl 0.15467(10) 0.7622(3) 0.25272(7)
loop_
_geom_bond_atom_site_label_1
_geom_bond_atom_site_label_2
_geom_bond_site_symmetry_1
_geom_bond_site_symmetry_2
O1 C1 1_555 1_555
C1 N4 1_555 1_555
O2 C2 1_555 1_555
C2 N3 1_555 1_555
Sr1 O3 1_555 1_555
O3 H1 1_555 1_555
H2 O3 1_555 1_555
O4 Sr1 1_555 1_555
H3 O4 1_555 1_555
H4 O4 1_555 1_555
O5 Sr1 1_555 1_555
H5 O5 1_555 1_555
H6 O5 1_555 1_555
O6 Sr1 1_555 1_555
H7 O6 1_555 1_555
H8 O6 1_555 1_555
N1 Sr1 1_555 1_555
N2 Sr1 1_555 1_555
N3 H9 1_555 1_555
H10 N3 1_555 1_555
C3 C2 1_555 1_555
C4 N1 1_555 1_555
H11 C4 1_555 1_555
N4 H12 1_555 1_555
H13 N4 1_555 1_555
C5 C3 1_555 1_555
H14 C5 1_555 1_555
C6 C5 1_555 1_555
H15 C6 1_555 1_555
C7 H16 1_555 1_555
C8 N2 1_555 1_555
H17 C8 1_555 1_555
C9 C1 1_555 1_555
C10 N1 1_555 1_555
H18 C10 1_555 1_555
C11 C7 1_555 1_555
H19 C11 1_555 1_555
C12 N2 1_555 1_555
H20 C12 1_555 1_555
O1B Sr1 1_555 1_555
O2B Sr1 1_555 1_555
Sr1B O1 1_555 1_555
Sr1B_2 O2 1_555 1_555
C3 C4 1_555 1_555
C6 C10 1_555 1_555
C7 C12 1_555 1_555
C8 C9 1_555 1_555
C9 C11 1_555 1_555

#END
