
#######################################################################
#
#                 Cambridge Crystallographic Data Centre
#                                CCDC 
#
#######################################################################
#
# If this CIF has been generated from an entry in the Cambridge 
# Structural Database, then it will include bibliographic, chemical, 
# crystal, experimental, refinement or atomic coordinate data resulting 
# from the CCDC's data processing and validation procedures.
#
#######################################################################

data_GIWYER
_symmetry_cell_setting           monoclinic
_symmetry_space_group_name_H-M   'P 21/c'
_symmetry_Int_Tables_number      14
_space_group_name_Hall           '-P 2ybc'
loop_
_symmetry_equiv_pos_site_id
_symmetry_equiv_pos_as_xyz
1 x,y,z
2 -x,1/2+y,1/2-z
3 -x,-y,-z
4 x,1/2-y,1/2+z
_cell_length_a                   3.6935(10)
_cell_length_b                   16.895(5)
_cell_length_c                   12.986(4)
_cell_angle_alpha                90
_cell_angle_beta                 93.05(2)
_cell_angle_gamma                90
_cell_volume                     809.2
loop_
_atom_site_label
_atom_site_type_symbol
_atom_site_fract_x
_atom_site_fract_y
_atom_site_fract_z
Cd1 Cd 0.0000 0.5000 0.5000
N1 N -0.5238(5) 0.47581(12) 0.3910(2)
N2 N -0.5310(5) 0.45691(11) 0.3017(2)
N3 N -0.5394(7) 0.4390(2) 0.2164(2)
N4 N -0.0046(5) 0.36583(12) 0.5475(2)
C1 C 0.1013(6) 0.30985(14) 0.4828(2)
H1 H 0.1897 0.32540 0.4202
C2 C 0.0852(6) 0.22947(14) 0.5049(2)
C3 C -0.0478(6) 0.20624(14) 0.5988(2)
H2 H -0.0656 0.15292 0.6156
C4 C -0.1523(6) 0.26388(15) 0.6661(2)
H3 H -0.2382 0.24999 0.7297
C5 C -0.1281(6) 0.34261(14) 0.6383(2)
H4 H -0.2001 0.38107 0.6841
C6 C 0.2168(6) 0.17120(14) 0.4287(2)
C7 C 0.1442(7) 0.08521(14) 0.4460(2)
H5 H -0.1125 0.0767 0.4473
H6 H 0.2592 0.0690 0.5107
H7 H 0.2393 0.0548 0.3912
O1 O 0.3820(5) 0.19377(10) 0.35582(14)
Cd1_2 Cd -1.0000 0.5000 0.5000
Cd1_3 Cd 1.0000 0.5000 0.5000
N1_2 N 0.4762(5) 0.47581(12) 0.3910(2)
N1B N -0.4762(5) 0.52419(12) 0.6090(2)
N1B_2 N 0.5238(5) 0.52419(12) 0.6090(2)
N2_2 N 0.4690(5) 0.45691(11) 0.3017(2)
N3_2 N 0.4606(7) 0.4390(2) 0.2164(2)
N4B N 0.0046(5) 0.63417(12) 0.4525(2)
C1B C -0.1013(6) 0.69015(14) 0.5172(2)
H1B H -0.1897 0.67460 0.5798
C2B C -0.0852(6) 0.77053(14) 0.4951(2)
C3B C 0.0478(6) 0.79376(14) 0.4012(2)
H2B H 0.0656 0.84708 0.3844
C4B C 0.1523(6) 0.73612(15) 0.3339(2)
H3B H 0.2382 0.75001 0.2703
C5B C 0.1281(6) 0.65739(14) 0.3617(2)
H4B H 0.2001 0.61893 0.3159
C6B C -0.2168(6) 0.82880(14) 0.5713(2)
C7B C -0.1442(7) 0.91479(14) 0.5540(2)
H5B H 0.1125 0.9233 0.5527
H6B H -0.2592 0.9310 0.4893
H7B H -0.2393 0.9452 0.6088
O1B O -0.3820(5) 0.80623(10) 0.64418(14)
loop_
_geom_bond_atom_site_label_1
_geom_bond_atom_site_label_2
_geom_bond_site_symmetry_1
_geom_bond_site_symmetry_2
Cd1 N1 1_555 1_555
N1 N2 1_555 1_555
N2 N3 1_555 1_555
N4 Cd1 1_555 1_555
C1 N4 1_555 1_555
H1 C1 1_555 1_555
C2 C1 1_555 1_555
C3 C2 1_555 1_555
H2 C3 1_555 1_555
C4 C3 1_555 1_555
H3 C4 1_555 1_555
C5 N4 1_555 1_555
H4 C5 1_555 1_555
C6 C2 1_555 1_555
C7 C6 1_555 1_555
H5 C7 1_555 1_555
H6 C7 1_555 1_555
H7 C7 1_555 1_555
O1 C6 1_555 1_555
Cd1_2 N1 1_555 1_555
Cd1_3 N1_2 1_555 1_555
N1_2 Cd1 1_555 1_555
N1B Cd1 1_555 1_555
N1B_2 Cd1 1_555 1_555
N2_2 N1_2 1_555 1_555
N3_2 N2_2 1_555 1_555
N4B Cd1 1_555 1_555
C1B N4B 1_555 1_555
H1B C1B 1_555 1_555
C2B C1B 1_555 1_555
C3B C2B 1_555 1_555
H2B C3B 1_555 1_555
C4B C3B 1_555 1_555
H3B C4B 1_555 1_555
C5B N4B 1_555 1_555
H4B C5B 1_555 1_555
C6B C2B 1_555 1_555
C7B C6B 1_555 1_555
H5B C7B 1_555 1_555
H6B C7B 1_555 1_555
H7B C7B 1_555 1_555
O1B C6B 1_555 1_555
C4 C5 1_555 1_555
Cd1_2 N1B 1_555 1_555
Cd1_3 N1B_2 1_555 1_555
C4B C5B 1_555 1_555

#END
