
#######################################################################
#
#                 Cambridge Crystallographic Data Centre
#                                CCDC 
#
#######################################################################
#
# If this CIF has been generated from an entry in the Cambridge 
# Structural Database, then it will include bibliographic, chemical, 
# crystal, experimental, refinement or atomic coordinate data resulting 
# from the CCDC's data processing and validation procedures.
#
#######################################################################

data_GIWYAN
_symmetry_cell_setting           monoclinic
_symmetry_space_group_name_H-M   'P 21'
_symmetry_Int_Tables_number      4
_space_group_name_Hall           'P 2yb'
loop_
_symmetry_equiv_pos_site_id
_symmetry_equiv_pos_as_xyz
1 x,y,z
2 -x,1/2+y,-z
_cell_length_a                   8.944(2)
_cell_length_b                   19.232(4)
_cell_length_c                   10.592(2)
_cell_angle_alpha                90
_cell_angle_beta                 114.81(2)
_cell_angle_gamma                90
_cell_volume                     1653.78
loop_
_atom_site_label
_atom_site_type_symbol
_atom_site_fract_x
_atom_site_fract_y
_atom_site_fract_z
Cd1 Cd 0.68507(4) 0.04558(2) 0.77269(4)
Cd2 Cd 1.07211(4) 0.02946(2) 0.73482(4)
N1 N 0.9126(6) -0.0254(3) 0.8316(6)
N2 N 0.8967(6) -0.0870(3) 0.8396(5)
N3 N 0.8820(7) -0.1462(3) 0.8508(7)
N4 N 0.8412(6) 0.1056(4) 0.6754(6)
N5 N 0.8369(6) 0.1679(3) 0.6624(6)
N6 N 0.8299(7) 0.2275(3) 0.6472(7)
N7 N 0.4764(6) 0.1306(3) 0.7128(6)
N8 N 0.3379(7) 0.1145(3) 0.6703(6)
N9 N 0.1973(6) 0.0987(3) 0.6245(6)
N10 N 0.2849(7) -0.0535(3) 0.7972(7)
N11 N 0.4269(7) -0.0442(3) 0.8305(6)
N12 N 0.5709(6) -0.0378(3) 0.8680(6)
N13 N 0.7911(6) 0.1042(3) 0.9865(5)
C1 C 0.7759(8) 0.1736(4) 0.9920(7)
H1 H 0.7184 0.1975 0.9093
C2 C 0.8410(8) 0.2110(4) 1.1137(8)
H2 H 0.8300 0.2591 1.1124
C3 C 0.9236(7) 0.1760(4) 1.2391(7)
C4 C 0.9402(7) 0.1046(3) 1.2329(7)
H3 H 0.9969 0.0794 1.3141
C5 C 0.8728(7) 0.0712(3) 1.1069(7)
H4 H 0.8846 0.0232 1.1053
C6 C 0.9940(9) 0.2166(4) 1.3745(8)
H5 H 0.9826 0.1893 1.4470
H6 H 0.9317 0.2592 1.3633
C7 C 1.1750(8) 0.2343(4) 1.4183(7)
H7 H 1.2198 0.2535 1.5105
H8 H 1.1847 0.2677 1.3549
H9 H 1.2344 0.1929 1.4173
N14 N 0.5204(7) -0.0055(3) 0.5586(6)
C8 C 0.4270(7) 0.0324(4) 0.4475(6)
H10 H 0.4350 0.0805 0.4543
C9 C 0.3200(8) 0.0037(4) 0.3242(7)
H11 H 0.2589 0.0322 0.2492
C10 C 0.3032(8) -0.0684(4) 0.3114(7)
C11 C 0.4025(8) -0.1065(4) 0.4252(8)
H12 H 0.3988 -0.1548 0.4205
C12 C 0.5058(8) -0.0750(3) 0.5447(7)
H13 H 0.5693 -0.1027 0.6203
C13 C 0.1923(9) -0.1031(5) 0.1778(8)
H14 H 0.1529 -0.1467 0.1985
H15 H 0.0974 -0.0737 0.1286
C14 C 0.2769(12) -0.1165(6) 0.0886(11)
H16 H 0.2010 -0.1367 0.0026
H17 H 0.3666 -0.1481 0.1345
H18 H 0.3187 -0.0736 0.0699
N15 N 0.9477(6) -0.0326(3) 0.5269(6)
C15 C 1.0199(8) -0.0901(4) 0.5041(8)
H19 H 1.1204 -0.1039 0.5736
C16 C 0.9543(9) -0.1294(4) 0.3848(8)
H20 H 1.0103 -0.1682 0.3748
C17 C 0.8051(8) -0.1109(4) 0.2805(7)
C18 C 0.7300(7) -0.0519(3) 0.3018(6)
H21 H 0.6297 -0.0371 0.2336
C19 C 0.8042(8) -0.0149(3) 0.4248(7)
H22 H 0.7509 0.0245 0.4366
C20 C 0.7253(8) -0.1539(4) 0.1492(7)
H23 H 0.8012 -0.1584 0.1058
H24 H 0.6276 -0.1302 0.0844
C21 C 0.6776(8) -0.2266(3) 0.1795(7)
H25 H 0.7754 -0.2527 0.2323
H26 H 0.6148 -0.2501 0.0934
H27 H 0.6125 -0.2224 0.2318
N16 N 1.2273(6) 0.0934(3) 0.9418(5)
C22 C 1.1638(7) 0.1465(3) 0.9833(7)
H28 H 1.0538 0.1576 0.9303
C23 C 1.2505(8) 0.1862(3) 1.0999(7)
H29 H 1.1984 0.2215 1.1261
C24 C 1.4169(8) 0.1726(4) 1.1777(7)
C25 C 1.4852(7) 0.1184(3) 1.1337(7)
H30 H 1.5958 0.1072 1.1835
C26 C 1.3900(7) 0.0810(4) 1.0161(7)
H31 H 1.4395 0.0458 0.9868
C27 C 1.5214(8) 0.2182(4) 1.2990(7)
H32 H 1.4661 0.2242 1.3598
H33 H 1.6257 0.1952 1.3518
C28 C 1.5534(8) 0.2883(4) 1.2529(8)
H34 H 1.6234 0.3148 1.3327
H35 H 1.4509 0.3123 1.2052
H36 H 1.6064 0.2825 1.1913
Cd2_2 Cd 0.07211(4) 0.02946(2) 0.73482(4)
N9_2 N 1.1973(6) 0.0987(3) 0.6245(6)
N10_2 N 1.2849(7) -0.0535(3) 0.7972(7)
loop_
_geom_bond_atom_site_label_1
_geom_bond_atom_site_label_2
_geom_bond_site_symmetry_1
_geom_bond_site_symmetry_2
Cd1 N1 1_555 1_555
Cd2 N1 1_555 1_555
N1 N2 1_555 1_555
N2 N3 1_555 1_555
N4 Cd1 1_555 1_555
N5 N4 1_555 1_555
N6 N5 1_555 1_555
N7 Cd1 1_555 1_555
N8 N7 1_555 1_555
N9 N8 1_555 1_555
N10 N11 1_555 1_555
N11 N12 1_555 1_555
N12 Cd1 1_555 1_555
N13 Cd1 1_555 1_555
C1 N13 1_555 1_555
H1 C1 1_555 1_555
C2 C1 1_555 1_555
H2 C2 1_555 1_555
C3 C2 1_555 1_555
C4 C3 1_555 1_555
H3 C4 1_555 1_555
C5 N13 1_555 1_555
H4 C5 1_555 1_555
C6 C3 1_555 1_555
H5 C6 1_555 1_555
H6 C6 1_555 1_555
C7 C6 1_555 1_555
H7 C7 1_555 1_555
H8 C7 1_555 1_555
H9 C7 1_555 1_555
N14 Cd1 1_555 1_555
C8 N14 1_555 1_555
H10 C8 1_555 1_555
C9 C8 1_555 1_555
H11 C9 1_555 1_555
C10 C9 1_555 1_555
C11 C10 1_555 1_555
H12 C11 1_555 1_555
C12 N14 1_555 1_555
H13 C12 1_555 1_555
C13 C10 1_555 1_555
H14 C13 1_555 1_555
H15 C13 1_555 1_555
C14 C13 1_555 1_555
H16 C14 1_555 1_555
H17 C14 1_555 1_555
H18 C14 1_555 1_555
N15 Cd2 1_555 1_555
C15 N15 1_555 1_555
H19 C15 1_555 1_555
C16 C15 1_555 1_555
H20 C16 1_555 1_555
C17 C16 1_555 1_555
C18 C17 1_555 1_555
H21 C18 1_555 1_555
C19 N15 1_555 1_555
H22 C19 1_555 1_555
C20 C17 1_555 1_555
H23 C20 1_555 1_555
H24 C20 1_555 1_555
C21 C20 1_555 1_555
H25 C21 1_555 1_555
H26 C21 1_555 1_555
H27 C21 1_555 1_555
N16 Cd2 1_555 1_555
C22 N16 1_555 1_555
H28 C22 1_555 1_555
C23 C22 1_555 1_555
H29 C23 1_555 1_555
C24 C23 1_555 1_555
C25 C24 1_555 1_555
H30 C25 1_555 1_555
C26 N16 1_555 1_555
H31 C26 1_555 1_555
C27 C24 1_555 1_555
H32 C27 1_555 1_555
H33 C27 1_555 1_555
C28 C27 1_555 1_555
H34 C28 1_555 1_555
H35 C28 1_555 1_555
H36 C28 1_555 1_555
Cd2_2 N9 1_555 1_555
N9_2 Cd2 1_555 1_555
N10_2 Cd2 1_555 1_555
Cd2 N4 1_555 1_555
N10 Cd2_2 1_555 1_555
C4 C5 1_555 1_555
C11 C12 1_555 1_555
C18 C19 1_555 1_555
C25 C26 1_555 1_555

#END
