
#######################################################################
#
#                 Cambridge Crystallographic Data Centre
#                                CCDC 
#
#######################################################################
#
# If this CIF has been generated from an entry in the Cambridge 
# Structural Database, then it will include bibliographic, chemical, 
# crystal, experimental, refinement or atomic coordinate data resulting 
# from the CCDC's data processing and validation procedures.
#
#######################################################################

data_GIWZOD
_symmetry_cell_setting           monoclinic
_symmetry_space_group_name_H-M   'C c'
_symmetry_Int_Tables_number      9
_space_group_name_Hall           'C -2yc'
loop_
_symmetry_equiv_pos_site_id
_symmetry_equiv_pos_as_xyz
1 x,y,z
2 x,-y,1/2+z
3 1/2+x,1/2+y,z
4 1/2+x,1/2-y,1/2+z
_cell_length_a                   8.1787(16)
_cell_length_b                   21.587(4)
_cell_length_c                   19.899(4)
_cell_angle_alpha                90
_cell_angle_beta                 93.61(3)
_cell_angle_gamma                90
_cell_volume                     3506.27
loop_
_atom_site_label
_atom_site_type_symbol
_atom_site_fract_x
_atom_site_fract_y
_atom_site_fract_z
C1 C 0.1639(12) 0.1613(4) 0.2152(5)
H1 H 0.1269 0.1981 0.2332
C2 C 0.0721(9) 0.0600(4) 0.0635(4)
O1 O 0.0923(6) 0.0044(3) 0.0523(3)
N1 N -0.0174(9) 0.0946(3) 0.0214(4)
H2 H -0.057(8) 0.1313(15) 0.022(5)
H3 H -0.038(8) 0.079(3) -0.0174(19)
N2 N 0.2650(11) 0.1280(3) 0.2533(5)
C3 C 0.1419(10) 0.0879(4) 0.1297(4)
C4 C 0.1084(10) 0.1467(4) 0.1518(5)
H4 H 0.0504 0.1751 0.1243
C5 C 0.2430(9) 0.0511(3) 0.1698(4)
H5 H 0.2695 0.0116 0.1554
C6 C 0.3042(11) 0.0716(4) 0.2296(5)
H6 H 0.3755 0.0464 0.2555
Sr1 Sr 1.08169(5) 0.578166(18) 0.45815(3)
Sr2 Sr 0.58181(6) 0.672282(18) 0.45323(3)
Cl1 Cl 1.29136(18) 0.48390(7) 0.39620(9)
Cl2 Cl 0.80921(19) 0.76622(7) 0.52050(9)
Cl3 Cl 0.85730(19) 0.48490(7) 0.38770(8)
Cl4 Cl 0.37455(18) 0.76541(6) 0.51798(8)
O2 O 1.0946(5) 0.67338(16) 0.5295(2)
H7 H 1.189(3) 0.698(2) 0.540(3)
H8 H 1.004(4) 0.7001(19) 0.535(3)
O3 O 0.3876(5) 0.59436(17) 0.51992(19)
H9 H 0.442(6) 0.5577(15) 0.534(2)
H10 H 0.375(7) 0.6175(17) 0.5587(16)
O4 O 0.5693(5) 0.57645(16) 0.3821(2)
H11 H 0.500(5) 0.5448(19) 0.397(3)
H12 H 0.675(3) 0.568(2) 0.401(3)
O5 O 0.7961(5) 0.59578(17) 0.5213(2)
H13 H 0.845(6) 0.612(2) 0.5610(16)
H14 H 0.734(6) 0.5614(16) 0.531(2)
O6 O 1.2752(5) 0.65567(17) 0.3927(2)
H15 H 1.282(7) 0.647(2) 0.3468(12)
H16 H 1.210(6) 0.6900(17) 0.397(2)
O7 O 1.0933(7) 0.5012(3) 0.5534(3)
O8 O 0.8680(5) 0.65502(18) 0.3889(2)
H17 H 0.919(6) 0.6932(15) 0.397(2)
H18 H 0.836(6) 0.653(2) 0.3426(12)
O9 O 0.5606(7) 0.7492(2) 0.3574(3)
C7 C 1.1124(9) 0.3584(4) 0.6514(4)
H19 H 1.0602 0.3297 0.6225
N3 N 1.2536(11) 0.3779(3) 0.7564(5)
N4 N 0.3878(11) 0.8714(3) 0.1529(4)
C8 C 1.1460(9) 0.4179(4) 0.6310(4)
C9 C 1.0821(9) 0.4449(4) 0.5629(4)
C10 C 0.3490(9) 0.8169(4) 0.1776(4)
H20 H 0.2795 0.7915 0.1510
C11 C 0.5127(9) 0.8318(4) 0.2828(4)
C12 C 0.5814(9) 0.8054(3) 0.3467(4)
C13 C 0.4853(10) 0.9090(4) 0.1934(4)
H21 H 0.5075 0.9488 0.1788
C14 C 1.2394(9) 0.4556(4) 0.6729(4)
H22 H 1.2666 0.4952 0.6591
C15 C 0.4058(9) 0.7946(4) 0.2416(4)
H23 H 0.3732 0.7560 0.2564
N5 N 0.6583(10) 0.8435(3) 0.3898(4)
H24 H 0.709(8) 0.825(3) 0.423(2)
H25 H 0.667(9) 0.8829(12) 0.383(5)
C16 C 0.5545(11) 0.8892(4) 0.2576(4)
H26 H 0.6275 0.9147 0.2823
N6 N 1.0101(9) 0.4074(3) 0.5187(4)
H27 H 0.990(8) 0.426(3) 0.482(2)
H28 H 1.016(9) 0.3685(12) 0.526(5)
C17 C 1.2917(11) 0.4352(4) 0.7338(5)
H29 H 1.3563 0.4612 0.7618
C18 C 1.1599(10) 0.3443(4) 0.7159(5)
H30 H 1.1220 0.3072 0.7328
Sr1_2 Sr 0.08169(5) 0.578166(18) 0.45815(3)
Sr2_2 Sr 1.58181(6) 0.672282(18) 0.45323(3)
O3_2 O 1.3876(5) 0.59436(17) 0.51992(19)
O6_2 O 0.2752(5) 0.65567(17) 0.3927(2)
N7 N 0.1829(9) 0.8458(3) 0.3950(4)
H31 H 0.223(7) 0.827(3) 0.430(2)
H32 H 0.202(9) 0.8847(13) 0.391(5)
N8 N -0.0885(11) 0.8778(3) 0.1574(5)
C19 C 0.0249(8) 0.8379(4) 0.2891(4)
C20 C 0.0928(9) 0.8106(4) 0.3518(4)
C21 C 0.0022(10) 0.9158(4) 0.2000(4)
H33 H 0.0214 0.9562 0.1865
C22 C -0.0799(9) 0.8010(4) 0.2461(4)
H34 H -0.1148 0.7624 0.2603
C23 C -0.1314(9) 0.8238(4) 0.1805(4)
H35 H -0.1991 0.7987 0.1527
C24 C 0.0685(9) 0.8960(5) 0.2641(4)
H36 H 0.1404 0.9215 0.2894
O10 O 0.0673(7) 0.7544(2) 0.3622(3)
loop_
_geom_bond_atom_site_label_1
_geom_bond_atom_site_label_2
_geom_bond_site_symmetry_1
_geom_bond_site_symmetry_2
C1 H1 1_555 1_555
C2 O1 1_555 1_555
N1 C2 1_555 1_555
H2 N1 1_555 1_555
H3 N1 1_555 1_555
N2 C1 1_555 1_555
C3 C2 1_555 1_555
C4 C1 1_555 1_555
H4 C4 1_555 1_555
C5 C3 1_555 1_555
H5 C5 1_555 1_555
C6 N2 1_555 1_555
H6 C6 1_555 1_555
Sr1 Cl1 1_555 1_555
Sr2 Cl2 1_555 1_555
Cl3 Sr1 1_555 1_555
Cl4 Sr2 1_555 1_555
O2 Sr1 1_555 1_555
H7 O2 1_555 1_555
H8 O2 1_555 1_555
O3 Sr2 1_555 1_555
H9 O3 1_555 1_555
H10 O3 1_555 1_555
O4 Sr2 1_555 1_555
H11 O4 1_555 1_555
H12 O4 1_555 1_555
O5 Sr1 1_555 1_555
H13 O5 1_555 1_555
H14 O5 1_555 1_555
O6 Sr1 1_555 1_555
H15 O6 1_555 1_555
H16 O6 1_555 1_555
O7 Sr1 1_555 1_555
O8 Sr1 1_555 1_555
H17 O8 1_555 1_555
H18 O8 1_555 1_555
O9 Sr2 1_555 1_555
C7 H19 1_555 1_555
N3 C17 1_555 1_555
N4 C10 1_555 1_555
C8 C7 1_555 1_555
C9 O7 1_555 1_555
C10 H20 1_555 1_555
C11 C12 1_555 1_555
C12 O9 1_555 1_555
C13 N4 1_555 1_555
H21 C13 1_555 1_555
C14 C8 1_555 1_555
H22 C14 1_555 1_555
C15 C10 1_555 1_555
H23 C15 1_555 1_555
N5 C12 1_555 1_555
H24 N5 1_555 1_555
H25 N5 1_555 1_555
C16 C11 1_555 1_555
H26 C16 1_555 1_555
N6 C9 1_555 1_555
H27 N6 1_555 1_555
H28 N6 1_555 1_555
C17 C14 1_555 1_555
H29 C17 1_555 1_555
C18 C7 1_555 1_555
H30 C18 1_555 1_555
N7 H31 1_555 1_555
H32 N7 1_555 1_555
N8 C21 1_555 1_555
C19 C20 1_555 1_555
C20 N7 1_555 1_555
C21 H33 1_555 1_555
C22 C19 1_555 1_555
H34 C22 1_555 1_555
C23 N8 1_555 1_555
H35 C23 1_555 1_555
C24 C19 1_555 1_555
H36 C24 1_555 1_555
O10 C20 1_555 1_555
Sr1_2 O3 1_555 1_555
Sr2_2 O6 1_555 1_555
O3_2 Sr1 1_555 1_555
O6_2 Sr2 1_555 1_555
C3 C4 1_555 1_555
C5 C6 1_555 1_555
Sr2 O5 1_555 1_555
Sr2 O8 1_555 1_555
N3 C18 1_555 1_555
C8 C9 1_555 1_555
C11 C15 1_555 1_555
C13 C16 1_555 1_555
C21 C24 1_555 1_555
C22 C23 1_555 1_555
Sr1_2 O6_2 1_555 1_555
Sr2_2 O3_2 1_555 1_555

#END
