
#######################################################################
#
#                 Cambridge Crystallographic Data Centre
#                                CCDC 
#
#######################################################################
#
# If this CIF has been generated from an entry in the Cambridge 
# Structural Database, then it will include bibliographic, chemical, 
# crystal, experimental, refinement or atomic coordinate data resulting 
# from the CCDC's data processing and validation procedures.
#
#######################################################################

data_GIWZOB
_symmetry_cell_setting           monoclinic
_symmetry_space_group_name_H-M   'P 21/m'
_symmetry_Int_Tables_number      11
_space_group_name_Hall           '-P 2yb'
loop_
_symmetry_equiv_pos_site_id
_symmetry_equiv_pos_as_xyz
1 x,y,z
2 x,1/2-y,z
3 -x,-y,-z
4 -x,1/2+y,-z
_cell_length_a                   8.1950(10)
_cell_length_b                   14.0480(10)
_cell_length_c                   11.9390(10)
_cell_angle_alpha                90.00
_cell_angle_beta                 109.390(7)
_cell_angle_gamma                90.00
_cell_volume                     1296.5
loop_
_atom_site_label
_atom_site_type_symbol
_atom_site_fract_x
_atom_site_fract_y
_atom_site_fract_z
Hg1 Hg -0.57967(3) 0.2500 0.22607(2)
Cl1 Cl -0.7017(3) 0.40326(15) 0.2047(2)
N1 N -0.2795(5) 0.2500 0.3304(4)
C1 C -0.2165(7) 0.2500 0.4493(5)
H1 H -0.3014(82) 0.2500 0.4955(55)
C2 C -0.0432(7) 0.2500 0.5128(5)
H2 H 0.0109(74) 0.2500 0.5976(53)
C3 C 0.0743(7) 0.2500 0.4528(5)
P1 P 0.3029(2) 0.2500 0.53324(12)
O1 O 0.4063(5) 0.2500 0.4559(4)
O2 O 0.3303(5) 0.3335(3) 0.6225(3)
C4 C 0.4080(14) 0.4219(8) 0.6116(15)
H3 H 0.4906(14) 0.4126(8) 0.5703(15)
H4 H 0.4694(14) 0.4473(8) 0.6899(15)
C5 C 0.2773(22) 0.4877(10) 0.5471(16)
H5 H 0.3300(22) 0.5473(10) 0.5399(16)
H6 H 0.1965(22) 0.4972(10) 0.5887(16)
H7 H 0.2177(22) 0.4626(10) 0.4695(16)
C6 C 0.0127(7) 0.2500 0.3301(5)
H8 H 0.0988(94) 0.2500 0.2916(64)
C7 C -0.1649(6) 0.2500 0.2706(4)
C8 C -0.2381(7) 0.2500 0.1389(5)
C9 C -0.1342(8) 0.2500 0.0680(5)
H9 H -0.022(15) 0.2500 0.0984(96)
C10 C -0.2116(9) 0.2500 -0.0545(6)
P2 P -0.0865(3) 0.2500 -0.1532(2)
O3 O -0.1970(9) 0.2500 -0.2767(5)
O4 O 0.0429(8) 0.3340(9) -0.1104(5)
C11 C 0.0227(40) 0.4120(14) -0.1562(25)
H10 H -0.0613(40) 0.4454(14) -0.1296(25)
H11 H -0.0302(40) 0.4026(14) -0.2411(25)
C12 C 0.1667(27) 0.4744(17) -0.1388(19)
H12 H 0.1282(27) 0.5321(17) -0.1827(19)
H13 H 0.2514(27) 0.4440(17) -0.1663(19)
H14 H 0.2172(27) 0.4889(17) -0.0559(19)
C13 C -0.3882(10) 0.2500 -0.1020(6)
H15 H -0.426(13) 0.2500 -0.190(10)
C14 C -0.4824(9) 0.2500 -0.0255(6)
H16 H -0.622(15) 0.2500 -0.0495(99)
N2 N -0.4103(6) 0.2500 0.0911(4)
Cl1A Cl -0.7017(3) 0.09674(15) 0.2047(2)
O1_2 O -0.5937(5) 0.2500 0.4559(4)
Hg1_2 Hg 0.42033(3) 0.2500 0.22607(2)
O2A O 0.3303(5) 0.1665(3) 0.6225(3)
C4A C 0.4080(14) 0.0781(8) 0.6116(15)
H3A H 0.4906(14) 0.0874(8) 0.5703(15)
H4A H 0.4694(14) 0.0527(8) 0.6899(15)
C5A C 0.2773(22) 0.0123(10) 0.5471(16)
H5A H 0.3300(22) -0.0473(10) 0.5399(16)
H6A H 0.1965(22) 0.0028(10) 0.5887(16)
H7A H 0.2177(22) 0.0374(10) 0.4695(16)
O4A O 0.0429(8) 0.1660(9) -0.1104(5)
C11A C 0.0227(40) 0.0880(14) -0.1562(25)
H10A H -0.0613(40) 0.0546(14) -0.1296(25)
H11A H -0.0302(40) 0.0974(14) -0.2411(25)
C12A C 0.1667(27) 0.0256(17) -0.1388(19)
H12A H 0.1282(27) -0.0321(17) -0.1827(19)
H13A H 0.2514(27) 0.0560(17) -0.1663(19)
H14A H 0.2172(27) 0.0111(17) -0.0559(19)
loop_
_geom_bond_atom_site_label_1
_geom_bond_atom_site_label_2
_geom_bond_site_symmetry_1
_geom_bond_site_symmetry_2
Hg1 Cl1 1_555 1_555
N1 Hg1 1_555 1_555
C1 N1 1_555 1_555
H1 C1 1_555 1_555
C2 C1 1_555 1_555
H2 C2 1_555 1_555
C3 C2 1_555 1_555
P1 C3 1_555 1_555
O1 P1 1_555 1_555
O2 P1 1_555 1_555
C4 O2 1_555 1_555
H3 C4 1_555 1_555
H4 C4 1_555 1_555
C5 C4 1_555 1_555
H5 C5 1_555 1_555
H6 C5 1_555 1_555
H7 C5 1_555 1_555
C6 C3 1_555 1_555
H8 C6 1_555 1_555
C7 N1 1_555 1_555
C8 C7 1_555 1_555
C9 C8 1_555 1_555
H9 C9 1_555 1_555
C10 C9 1_555 1_555
P2 C10 1_555 1_555
O3 P2 1_555 1_555
O4 P2 1_555 1_555
C11 O4 1_555 1_555
H10 C11 1_555 1_555
H11 C11 1_555 1_555
C12 C11 1_555 1_555
H12 C12 1_555 1_555
H13 C12 1_555 1_555
H14 C12 1_555 1_555
C13 C10 1_555 1_555
H15 C13 1_555 1_555
C14 C13 1_555 1_555
H16 C14 1_555 1_555
N2 Hg1 1_555 1_555
Cl1A Hg1 1_555 1_555
O1_2 Hg1 1_555 1_555
Hg1_2 O1 1_555 1_555
O2A P1 1_555 1_555
C4A O2A 1_555 1_555
H3A C4A 1_555 1_555
H4A C4A 1_555 1_555
C5A C4A 1_555 1_555
H5A C5A 1_555 1_555
H6A C5A 1_555 1_555
H7A C5A 1_555 1_555
O4A P2 1_555 1_555
C11A O4A 1_555 1_555
H10A C11A 1_555 1_555
H11A C11A 1_555 1_555
C12A C11A 1_555 1_555
H12A C12A 1_555 1_555
H13A C12A 1_555 1_555
H14A C12A 1_555 1_555
C6 C7 1_555 1_555
C8 N2 1_555 1_555
C14 N2 1_555 1_555

#END
