
#######################################################################
#
#                 Cambridge Crystallographic Data Centre
#                                CCDC 
#
#######################################################################
#
# If this CIF has been generated from an entry in the Cambridge 
# Structural Database, then it will include bibliographic, chemical, 
# crystal, experimental, refinement or atomic coordinate data resulting 
# from the CCDC's data processing and validation procedures.
#
#######################################################################

data_GIXBEW
_symmetry_cell_setting           monoclinic
_symmetry_space_group_name_H-M   'C 2/c'
_symmetry_Int_Tables_number      15
_space_group_name_Hall           '-C 2yn'
loop_
_symmetry_equiv_pos_site_id
_symmetry_equiv_pos_as_xyz
1 x,y,z
2 -x,y,1/2-z
3 1/2+x,1/2+y,z
4 1/2-x,1/2+y,1/2-z
5 -x,-y,-z
6 x,-y,1/2+z
7 1/2-x,1/2-y,-z
8 1/2+x,1/2-y,1/2+z
_cell_length_a                   24.851(5)
_cell_length_b                   3.6259(7)
_cell_length_c                   15.987(3)
_cell_angle_alpha                90
_cell_angle_beta                 109.17(3)
_cell_angle_gamma                90
_cell_volume                     1360.66
loop_
_atom_site_label
_atom_site_type_symbol
_atom_site_fract_x
_atom_site_fract_y
_atom_site_fract_z
Co1 Co 0.0000 -0.02725(13) 0.2500
Cl1 Cl 0.04751(3) -0.52269(16) 0.35353(4)
O1 O 0.24710(9) 0.0942(7) 0.11281(14)
N1 N 0.06909(10) -0.0131(5) 0.19654(16)
N2 N 0.17762(9) 0.2754(8) -0.01147(15)
H1 H 0.2010 0.3157 -0.0400
H2 H 0.1418 0.3129 -0.0367
C1 C 0.05679(13) -0.0602(8) 0.10897(19)
H3 H 0.0200 -0.1303 0.0756
C2 C 0.09631(13) -0.0093(7) 0.0663(2)
H4 H 0.0859 -0.0406 0.0054
C3 C 0.15170(11) 0.0892(8) 0.11525(17)
C4 C 0.16565(11) 0.1246(8) 0.20635(18)
H5 H 0.2026 0.1824 0.2415
C5 C 0.12285(12) 0.0713(8) 0.24395(18)
H6 H 0.1322 0.0958 0.3050
C6 C 0.19707(11) 0.1547(8) 0.07194(17)
Cl1A Cl -0.04751(3) -0.52269(16) 0.14647(4)
O1A O -0.24710(9) 0.0942(7) 0.38719(14)
N1A N -0.06909(10) -0.0131(5) 0.30346(16)
N2A N -0.17762(9) 0.2754(8) 0.51147(15)
H1A H -0.2010 0.3157 0.5400
H2A H -0.1418 0.3129 0.5367
C1A C -0.05679(13) -0.0602(8) 0.39103(19)
H3A H -0.0200 -0.1303 0.4244
C2A C -0.09631(13) -0.0093(7) 0.4337(2)
H4A H -0.0859 -0.0406 0.4946
C3A C -0.15170(11) 0.0892(8) 0.38475(17)
C4A C -0.16565(11) 0.1246(8) 0.29365(18)
H5A H -0.2026 0.1824 0.2585
C5A C -0.12285(12) 0.0713(8) 0.25605(18)
H6A H -0.1322 0.0958 0.1950
C6A C -0.19707(11) 0.1547(8) 0.42806(17)
Co1_2 Co 0.0000 -1.02725(13) 0.2500
Cl1_2 Cl 0.04751(3) 0.47731(16) 0.35353(4)
Cl1A_2 Cl -0.04751(3) 0.47731(16) 0.14647(4)
loop_
_geom_bond_atom_site_label_1
_geom_bond_atom_site_label_2
_geom_bond_site_symmetry_1
_geom_bond_site_symmetry_2
Co1 Cl1 1_555 1_555
Cl1 Co1_2 1_555 1_555
O1 C6 1_555 1_555
N1 Co1 1_555 1_555
N2 H1 1_555 1_555
H2 N2 1_555 1_555
C1 N1 1_555 1_555
H3 C1 1_555 1_555
C2 C1 1_555 1_555
H4 C2 1_555 1_555
C3 C2 1_555 1_555
C4 C3 1_555 1_555
H5 C4 1_555 1_555
C5 N1 1_555 1_555
H6 C5 1_555 1_555
C6 N2 1_555 1_555
Cl1A Co1 1_555 1_555
O1A C6A 1_555 1_555
N1A Co1 1_555 1_555
N2A H1A 1_555 1_555
H2A N2A 1_555 1_555
C1A N1A 1_555 1_555
H3A C1A 1_555 1_555
C2A C1A 1_555 1_555
H4A C2A 1_555 1_555
C3A C2A 1_555 1_555
C4A C3A 1_555 1_555
H5A C4A 1_555 1_555
C5A N1A 1_555 1_555
H6A C5A 1_555 1_555
C6A N2A 1_555 1_555
Co1_2 Cl1A 1_555 1_555
Cl1_2 Co1 1_555 1_555
Cl1A_2 Co1 1_555 1_555
C3 C6 1_555 1_555
C4 C5 1_555 1_555
C3A C6A 1_555 1_555
C4A C5A 1_555 1_555

#END
