
#######################################################################
#
#                 Cambridge Crystallographic Data Centre
#                                CCDC 
#
#######################################################################
#
# If this CIF has been generated from an entry in the Cambridge 
# Structural Database, then it will include bibliographic, chemical, 
# crystal, experimental, refinement or atomic coordinate data resulting 
# from the CCDC's data processing and validation procedures.
#
#######################################################################

data_GIXGUR
_symmetry_cell_setting           orthorhombic
_symmetry_space_group_name_H-M   'P b c a'
_symmetry_Int_Tables_number      61
_space_group_name_Hall           '-P 2ac 2ab'
loop_
_symmetry_equiv_pos_site_id
_symmetry_equiv_pos_as_xyz
1 x,y,z
2 1/2-x,-y,1/2+z
3 -x,1/2+y,1/2-z
4 1/2+x,1/2-y,-z
5 -x,-y,-z
6 1/2+x,y,1/2-z
7 x,1/2-y,1/2+z
8 1/2-x,1/2+y,z
_cell_length_a                   19.404(3)
_cell_length_b                   24.777(4)
_cell_length_c                   28.333(4)
_cell_angle_alpha                90
_cell_angle_beta                 90
_cell_angle_gamma                90
_cell_volume                     13621.7
loop_
_atom_site_label
_atom_site_type_symbol
_atom_site_fract_x
_atom_site_fract_y
_atom_site_fract_z
N4 N 0.1961(10) 0.2535(10) 0.3875(5)
O14 O 0.083(5) 0.313(2) 0.382(3)
C46 C 0.2242(16) 0.2915(10) 0.3470(10)
H67 H 0.2561 0.2712 0.3274
H68 H 0.1860 0.3027 0.3272
C47 C 0.2604(13) 0.3409(11) 0.3660(8)
H69 H 0.2768 0.3625 0.3402
H70 H 0.2986 0.3300 0.3853
H71 H 0.2287 0.3617 0.3846
C48 C 0.2416(16) 0.2076(10) 0.3668(13)
H72 H 0.2224 0.1721 0.3729
H73 H 0.2495 0.2120 0.3332
C49 C 0.1172(8) 0.2626(11) 0.3798(6)
H74 H 0.0904 0.2324 0.3734
C50 C 0.3045(12) 0.2180(15) 0.3949(10)
H75 H 0.3396 0.1925 0.3864
H76 H 0.2941 0.2143 0.4279
H77 H 0.3207 0.2540 0.3888
Ni1 Ni 0.14388(4) 0.94721(3) 0.17800(3)
Fe1 Fe 0.14104(4) 1.07918(3) 0.17485(3)
Fe2 Fe 0.25859(4) 1.01331(3) 0.11687(3)
N1 N 0.0921(3) 1.1544(2) 0.1982(2)
N2 N -0.0972(3) 1.3722(2) 0.2957(2)
N3 N 0.3508(2) 1.0120(2) 0.07112(18)
O1 O 0.18086(18) 1.01293(14) 0.15645(13)
O2 O 0.0453(2) 0.96686(19) 0.16259(19)
O3 O 0.0433(2) 1.05625(18) 0.1611(2)
O4 O 0.1349(3) 0.97118(18) 0.24671(16)
O5 O 0.1331(3) 1.05981(18) 0.24419(16)
O6 O 0.1478(3) 0.90896(19) 0.11467(17)
O7 O 0.2238(2) 0.9540(2) 0.07265(16)
O8 O 0.2345(2) 0.91322(19) 0.19605(19)
O9 O 0.3122(2) 0.9568(2) 0.15361(16)
O10 O 0.1420(3) 1.11330(19) 0.10983(17)
O11 O 0.2217(2) 1.0681(2) 0.07002(16)
O12 O 0.2303(2) 1.11675(18) 0.19118(19)
O13 O 0.3103(2) 1.0720(2) 0.15166(17)
C1 C 0.0174(3) 1.0112(3) 0.1539(3)
C2 C -0.0541(5) 1.0087(4) 0.1324(6)
C3 C -0.0903(6) 1.0584(6) 0.1330(7)
H1 H -0.1000 1.0685 0.1651
H2 H -0.1327 1.0546 0.1160
H3 H -0.0626 1.0859 0.1185
C4 C -0.0888(6) 0.9572(6) 0.1376(7)
H4 H -0.1001 0.9515 0.1702
H5 H -0.0590 0.9288 0.1268
H6 H -0.1303 0.9573 0.1191
C5 C 0.1345(3) 1.0164(3) 0.2650(2)
C6 C 0.1377(5) 1.0175(4) 0.3190(3)
C7 C 0.1134(11) 0.9682(5) 0.3416(4)
H7 H 0.0675 0.9604 0.3310
H8 H 0.1134 0.9730 0.3752
H9 H 0.1434 0.9389 0.3334
C8 C 0.0945(9) 1.0630(5) 0.3382(4)
H10 H 0.0466 1.0552 0.3330
H11 H 0.1064 1.0960 0.3224
H12 H 0.1029 1.0668 0.3714
C9 C 0.2077(10) 1.0287(14) 0.3310(6)
H13 H 0.2370 1.0013 0.3178
H14 H 0.2126 1.0289 0.3648
H15 H 0.2206 1.0633 0.3186
C10 C 0.1802(3) 0.9177(3) 0.0783(2)
C11 C 0.1691(5) 0.8801(4) 0.0370(3)
C12 C 0.2002(9) 0.9030(6) -0.0086(4)
H16 H 0.1934 0.8778 -0.0339
H17 H 0.2486 0.9091 -0.0042
H18 H 0.1779 0.9365 -0.0162
C13 C 0.0941(8) 0.8707(9) 0.0305(7)
H19 H 0.0743 0.8586 0.0597
H20 H 0.0872 0.8436 0.0067
H21 H 0.0722 0.9037 0.0209
C14 C 0.1942(11) 0.8256(5) 0.0513(6)
H22 H 0.1718 0.8148 0.0799
H23 H 0.2431 0.8269 0.0563
H24 H 0.1840 0.8000 0.0268
C15 C 0.2937(3) 0.9208(3) 0.1817(2)
C16 C 0.3478(5) 0.8803(5) 0.1979(4)
C17 C 0.3327(7) 0.8597(7) 0.2462(5)
H25 H 0.3400 0.8880 0.2688
H26 H 0.3627 0.8299 0.2532
H27 H 0.2856 0.8479 0.2477
C18 C 0.4181(6) 0.8988(9) 0.1882(8)
H28 H 0.4229 0.9061 0.1551
H29 H 0.4503 0.8713 0.1972
H30 H 0.4271 0.9311 0.2058
C19 C 0.3360(14) 0.8310(8) 0.1625(10)
H31 H 0.3443 0.8427 0.1307
H32 H 0.2895 0.8183 0.1653
H33 H 0.3673 0.8023 0.1702
C20 C 0.1757(3) 1.1031(3) 0.0739(3)
C21 C 0.1608(6) 1.1370(5) 0.0299(3)
C22 C 0.0848(8) 1.1476(11) 0.0262(7)
H34 H 0.0759 1.1697 -0.0010
H35 H 0.0693 1.1661 0.0541
H36 H 0.0606 1.1140 0.0232
C23 C 0.1822(15) 1.1084(9) -0.0137(5)
H37 H 0.2310 1.1023 -0.0130
H38 H 0.1708 1.1300 -0.0407
H39 H 0.1586 1.0744 -0.0157
C24 C 0.1896(17) 1.1904(9) 0.0375(10)
H40 H 0.2386 1.1876 0.0417
H41 H 0.1693 1.2062 0.0651
H42 H 0.1800 1.2127 0.0105
C25 C 0.2903(3) 1.1088(3) 0.1782(2)
C26 C 0.3430(5) 1.1503(5) 0.1950(4)
C27 C 0.4108(6) 1.1395(8) 0.1809(8)
H43 H 0.4269 1.1074 0.1965
H44 H 0.4398 1.1694 0.1893
H45 H 0.4122 1.1343 0.1474
C28 C 0.3267(7) 1.1705(8) 0.2424(5)
H46 H 0.3338 1.1423 0.2651
H47 H 0.2794 1.1819 0.2433
H48 H 0.3561 1.2005 0.2497
C29 C 0.3257(12) 1.2024(7) 0.1636(11)
H49 H 0.3327 1.1941 0.1309
H50 H 0.3554 1.2316 0.1726
H51 H 0.2785 1.2128 0.1685
C30 C 0.0400(4) 1.1766(3) 0.1750(2)
H52 H 0.0285 1.1628 0.1455
C31 C 0.0017(4) 1.2196(3) 0.1926(3)
H53 H -0.0344 1.2337 0.1750
C32 C 0.0171(3) 1.2411(2) 0.2360(2)
C33 C 0.0724(3) 1.2175(3) 0.2601(3)
H54 H 0.0851 1.2302 0.2898
C34 C 0.1077(3) 1.1757(3) 0.2401(3)
H55 H 0.1448 1.1612 0.2566
C35 C -0.0227(3) 1.2856(2) 0.2572(2)
C36 C -0.0741(3) 1.3117(3) 0.2319(3)
H56 H -0.0844 1.3011 0.2012
C37 C -0.1099(3) 1.3536(3) 0.2527(3)
H57 H -0.1450 1.3698 0.2355
C38 C -0.0490(4) 1.3459(3) 0.3206(2)
H58 H -0.0402 1.3571 0.3514
C39 C -0.0119(4) 1.3031(3) 0.3029(3)
H59 H 0.0206 1.2859 0.3218
C40 C 0.4131(3) 1.0120(3) 0.0891(2)
H60 H 0.4177 1.0148 0.1217
C41 C 0.4715(4) 1.0080(3) 0.0627(2)
H61 H 0.5142 1.0089 0.0776
C42 C 0.4688(3) 1.0027(3) 0.0148(2)
C43 C 0.4030(4) 1.0028(4) -0.0038(3)
H62 H 0.3970 0.9996 -0.0362
C44 C 0.3463(4) 1.0077(4) 0.0247(3)
H63 H 0.3029 1.0080 0.0108
C45 C -0.0439(15) 0.9955(13) 0.0789(8)
H64 H -0.0173 1.0237 0.0643
H65 H -0.0881 0.9932 0.0638
H66 H -0.0201 0.9618 0.0757
N3D N 0.6492(2) 0.9880(2) -0.07112(18)
C40D C 0.5869(3) 0.9880(3) -0.0891(2)
H60D H 0.5823 0.9852 -0.1217
C41D C 0.5285(4) 0.9920(3) -0.0627(2)
H61D H 0.4858 0.9911 -0.0776
C42D C 0.5312(3) 0.9973(3) -0.0148(2)
C43D C 0.5970(4) 0.9972(4) 0.0038(3)
H62D H 0.6030 1.0004 0.0362
C44D C 0.6537(4) 0.9923(4) -0.0247(3)
H63D H 0.6971 0.9920 -0.0108
Ni1D Ni 0.85612(4) 1.05279(3) -0.17800(3)
Fe1D Fe 0.85896(4) 0.92082(3) -0.17485(3)
Fe2D Fe 0.74141(4) 0.98669(3) -0.11687(3)
N1D N 0.9079(3) 0.8456(2) -0.1982(2)
N2D N 1.0972(3) 0.6278(2) -0.2957(2)
O1D O 0.81914(18) 0.98707(14) -0.15645(13)
O2D O 0.9547(2) 1.03314(19) -0.16259(19)
O3D O 0.9567(2) 0.94375(18) -0.1611(2)
O4D O 0.8651(3) 1.02882(18) -0.24671(16)
O5D O 0.8669(3) 0.94019(18) -0.24419(16)
O6D O 0.8522(3) 1.09104(19) -0.11467(17)
O7D O 0.7762(2) 1.0460(2) -0.07265(16)
O8D O 0.7655(2) 1.08678(19) -0.19605(19)
O9D O 0.6878(2) 1.0432(2) -0.15361(16)
O10D O 0.8580(3) 0.88670(19) -0.10983(17)
O11D O 0.7783(2) 0.9319(2) -0.07002(16)
O12D O 0.7697(2) 0.88325(18) -0.19118(19)
O13D O 0.6897(2) 0.9280(2) -0.15166(17)
C1D C 0.9826(3) 0.9888(3) -0.1539(3)
C2D C 1.0541(5) 0.9913(4) -0.1324(6)
C3D C 1.0903(6) 0.9416(6) -0.1330(7)
H1D H 1.1000 0.9315 -0.1651
H2D H 1.1327 0.9454 -0.1160
H3D H 1.0626 0.9141 -0.1185
C4D C 1.0888(6) 1.0428(6) -0.1376(7)
H4D H 1.1001 1.0485 -0.1702
H5D H 1.0590 1.0712 -0.1268
H6D H 1.1303 1.0427 -0.1191
C5D C 0.8655(3) 0.9836(3) -0.2650(2)
C6D C 0.8623(5) 0.9825(4) -0.3190(3)
C7D C 0.8866(11) 1.0318(5) -0.3416(4)
H7D H 0.9325 1.0396 -0.3310
H8D H 0.8866 1.0270 -0.3752
H9D H 0.8566 1.0611 -0.3334
C8D C 0.9055(9) 0.9370(5) -0.3382(4)
H10D H 0.9534 0.9448 -0.3330
H11D H 0.8936 0.9040 -0.3224
H12D H 0.8971 0.9332 -0.3714
C9D C 0.7923(10) 0.9713(14) -0.3310(6)
H13D H 0.7630 0.9987 -0.3178
H14D H 0.7874 0.9711 -0.3648
H15D H 0.7794 0.9367 -0.3186
C10D C 0.8198(3) 1.0823(3) -0.0783(2)
C11D C 0.8309(5) 1.1199(4) -0.0370(3)
C12D C 0.7998(9) 1.0970(6) 0.0086(4)
H16D H 0.8066 1.1222 0.0339
H17D H 0.7514 1.0909 0.0042
H18D H 0.8221 1.0635 0.0162
C13D C 0.9059(8) 1.1293(9) -0.0305(7)
H19D H 0.9257 1.1414 -0.0597
H20D H 0.9128 1.1564 -0.0067
H21D H 0.9278 1.0963 -0.0209
C14D C 0.8058(11) 1.1744(5) -0.0513(6)
H22D H 0.8282 1.1852 -0.0799
H23D H 0.7569 1.1731 -0.0563
H24D H 0.8160 1.2000 -0.0268
C15D C 0.7063(3) 1.0792(3) -0.1817(2)
C16D C 0.6522(5) 1.1197(5) -0.1979(4)
C17D C 0.6673(7) 1.1403(7) -0.2462(5)
H25D H 0.6600 1.1120 -0.2688
H26D H 0.6373 1.1701 -0.2532
H27D H 0.7144 1.1521 -0.2477
C18D C 0.5819(6) 1.1012(9) -0.1882(8)
H28D H 0.5771 1.0939 -0.1551
H29D H 0.5497 1.1287 -0.1972
H30D H 0.5729 1.0689 -0.2058
C19D C 0.6640(14) 1.1690(8) -0.1625(10)
H31D H 0.6557 1.1573 -0.1307
H32D H 0.7105 1.1817 -0.1653
H33D H 0.6327 1.1977 -0.1702
C20D C 0.8243(3) 0.8969(3) -0.0739(3)
C21D C 0.8392(6) 0.8630(5) -0.0299(3)
C22D C 0.9152(8) 0.8524(11) -0.0262(7)
H34D H 0.9241 0.8303 0.0010
H35D H 0.9307 0.8339 -0.0541
H36D H 0.9394 0.8860 -0.0232
C23D C 0.8178(15) 0.8916(9) 0.0137(5)
H37D H 0.7690 0.8977 0.0130
H38D H 0.8292 0.8700 0.0407
H39D H 0.8414 0.9256 0.0157
C24D C 0.8104(17) 0.8096(9) -0.0375(10)
H40D H 0.7614 0.8124 -0.0417
H41D H 0.8307 0.7938 -0.0651
H42D H 0.8200 0.7873 -0.0105
C25D C 0.7097(3) 0.8912(3) -0.1782(2)
C26D C 0.6570(5) 0.8497(5) -0.1950(4)
C27D C 0.5892(6) 0.8605(8) -0.1809(8)
H43D H 0.5731 0.8926 -0.1965
H44D H 0.5602 0.8306 -0.1893
H45D H 0.5878 0.8657 -0.1474
C28D C 0.6733(7) 0.8295(8) -0.2424(5)
H46D H 0.6662 0.8577 -0.2651
H47D H 0.7206 0.8181 -0.2433
H48D H 0.6439 0.7995 -0.2497
C29D C 0.6743(12) 0.7976(7) -0.1636(11)
H49D H 0.6673 0.8059 -0.1309
H50D H 0.6446 0.7684 -0.1726
H51D H 0.7215 0.7872 -0.1685
C30D C 0.9600(4) 0.8234(3) -0.1750(2)
H52D H 0.9715 0.8372 -0.1455
C31D C 0.9983(4) 0.7804(3) -0.1926(3)
H53D H 1.0344 0.7663 -0.1750
C32D C 0.9829(3) 0.7589(2) -0.2360(2)
C33D C 0.9276(3) 0.7825(3) -0.2601(3)
H54D H 0.9149 0.7698 -0.2898
C34D C 0.8923(3) 0.8243(3) -0.2401(3)
H55D H 0.8552 0.8388 -0.2566
C35D C 1.0227(3) 0.7144(2) -0.2572(2)
C36D C 1.0741(3) 0.6883(3) -0.2319(3)
H56D H 1.0844 0.6989 -0.2012
C37D C 1.1099(3) 0.6464(3) -0.2527(3)
H57D H 1.1450 0.6302 -0.2355
C38D C 1.0490(4) 0.6541(3) -0.3206(2)
H58D H 1.0402 0.6429 -0.3514
C39D C 1.0119(4) 0.6969(3) -0.3029(3)
H59D H 0.9794 0.7141 -0.3218
C45D C 1.0439(15) 1.0045(13) -0.0789(8)
H64D H 1.0173 0.9763 -0.0643
H65D H 1.0881 1.0068 -0.0638
H66D H 1.0201 1.0382 -0.0757
Ni1B Ni -0.14388(4) 1.44721(3) 0.32200(3)
Ni1F Ni 1.14388(4) 0.55279(3) -0.32200(3)
N2B N 0.0972(3) 0.8722(2) 0.2043(2)
N2F N 0.9028(3) 1.1278(2) -0.2043(2)
loop_
_geom_bond_atom_site_label_1
_geom_bond_atom_site_label_2
_geom_bond_site_symmetry_1
_geom_bond_site_symmetry_2
Ni1 O1 1_555 1_555
Fe1 N1 1_555 1_555
Fe2 N3 1_555 1_555
N1 C30 1_555 1_555
N2 C37 1_555 1_555
N3 C40 1_555 1_555
O1 Fe1 1_555 1_555
O2 Ni1 1_555 1_555
O3 Fe1 1_555 1_555
O4 Ni1 1_555 1_555
O5 Fe1 1_555 1_555
O6 Ni1 1_555 1_555
O7 Fe2 1_555 1_555
O8 Ni1 1_555 1_555
O9 Fe2 1_555 1_555
O10 Fe1 1_555 1_555
O11 Fe2 1_555 1_555
O12 Fe1 1_555 1_555
O13 Fe2 1_555 1_555
C1 O2 1_555 1_555
C2 C1 1_555 1_555
C3 C2 1_555 1_555
H1 C3 1_555 1_555
H2 C3 1_555 1_555
H3 C3 1_555 1_555
C4 C2 1_555 1_555
H4 C4 1_555 1_555
H5 C4 1_555 1_555
H6 C4 1_555 1_555
C5 O4 1_555 1_555
C6 C5 1_555 1_555
C7 C6 1_555 1_555
H7 C7 1_555 1_555
H8 C7 1_555 1_555
H9 C7 1_555 1_555
C8 C6 1_555 1_555
H10 C8 1_555 1_555
H11 C8 1_555 1_555
H12 C8 1_555 1_555
C9 C6 1_555 1_555
H13 C9 1_555 1_555
H14 C9 1_555 1_555
H15 C9 1_555 1_555
C10 O6 1_555 1_555
C11 C10 1_555 1_555
C12 C11 1_555 1_555
H16 C12 1_555 1_555
H17 C12 1_555 1_555
H18 C12 1_555 1_555
C13 C11 1_555 1_555
H19 C13 1_555 1_555
H20 C13 1_555 1_555
H21 C13 1_555 1_555
C14 C11 1_555 1_555
H22 C14 1_555 1_555
H23 C14 1_555 1_555
H24 C14 1_555 1_555
C15 O8 1_555 1_555
C16 C15 1_555 1_555
C17 C16 1_555 1_555
H25 C17 1_555 1_555
H26 C17 1_555 1_555
H27 C17 1_555 1_555
C18 C16 1_555 1_555
H28 C18 1_555 1_555
H29 C18 1_555 1_555
H30 C18 1_555 1_555
C19 C16 1_555 1_555
H31 C19 1_555 1_555
H32 C19 1_555 1_555
H33 C19 1_555 1_555
C20 O10 1_555 1_555
C21 C20 1_555 1_555
C22 C21 1_555 1_555
H34 C22 1_555 1_555
H35 C22 1_555 1_555
H36 C22 1_555 1_555
C23 C21 1_555 1_555
H37 C23 1_555 1_555
H38 C23 1_555 1_555
H39 C23 1_555 1_555
C24 C21 1_555 1_555
H40 C24 1_555 1_555
H41 C24 1_555 1_555
H42 C24 1_555 1_555
C25 O12 1_555 1_555
C26 C25 1_555 1_555
C27 C26 1_555 1_555
H43 C27 1_555 1_555
H44 C27 1_555 1_555
H45 C27 1_555 1_555
C28 C26 1_555 1_555
H46 C28 1_555 1_555
H47 C28 1_555 1_555
H48 C28 1_555 1_555
C29 C26 1_555 1_555
H49 C29 1_555 1_555
H50 C29 1_555 1_555
H51 C29 1_555 1_555
C30 H52 1_555 1_555
C31 C30 1_555 1_555
H53 C31 1_555 1_555
C32 C31 1_555 1_555
C33 C32 1_555 1_555
H54 C33 1_555 1_555
C34 N1 1_555 1_555
H55 C34 1_555 1_555
C35 C32 1_555 1_555
C36 C35 1_555 1_555
H56 C36 1_555 1_555
C37 C36 1_555 1_555
H57 C37 1_555 1_555
C38 N2 1_555 1_555
H58 C38 1_555 1_555
C39 C35 1_555 1_555
H59 C39 1_555 1_555
C40 H60 1_555 1_555
C41 C40 1_555 1_555
H61 C41 1_555 1_555
C42 C41 1_555 1_555
C43 C42 1_555 1_555
H62 C43 1_555 1_555
C44 N3 1_555 1_555
H63 C44 1_555 1_555
C45 C2 1_555 1_555
H64 C45 1_555 1_555
H65 C45 1_555 1_555
H66 C45 1_555 1_555
N4 C46 1_555 1_555
O14 C49 1_555 1_555
C46 H67 1_555 1_555
H68 C46 1_555 1_555
C47 C46 1_555 1_555
H69 C47 1_555 1_555
H70 C47 1_555 1_555
H71 C47 1_555 1_555
C48 N4 1_555 1_555
H72 C48 1_555 1_555
H73 C48 1_555 1_555
C49 N4 1_555 1_555
H74 C49 1_555 1_555
C50 C48 1_555 1_555
H75 C50 1_555 1_555
H76 C50 1_555 1_555
H77 C50 1_555 1_555
N3D C40D 1_555 1_555
C40D H60D 1_555 1_555
C41D C40D 1_555 1_555
H61D C41D 1_555 1_555
C42D C42 1_555 1_555
C43D C42D 1_555 1_555
H62D C43D 1_555 1_555
C44D N3D 1_555 1_555
H63D C44D 1_555 1_555
Ni1D O1D 1_555 1_555
Fe1D N1D 1_555 1_555
Fe2D N3D 1_555 1_555
N1D C30D 1_555 1_555
N2D C37D 1_555 1_555
O1D Fe1D 1_555 1_555
O2D Ni1D 1_555 1_555
O3D Fe1D 1_555 1_555
O4D Ni1D 1_555 1_555
O5D Fe1D 1_555 1_555
O6D Ni1D 1_555 1_555
O7D Fe2D 1_555 1_555
O8D Ni1D 1_555 1_555
O9D Fe2D 1_555 1_555
O10D Fe1D 1_555 1_555
O11D Fe2D 1_555 1_555
O12D Fe1D 1_555 1_555
O13D Fe2D 1_555 1_555
C1D O2D 1_555 1_555
C2D C1D 1_555 1_555
C3D C2D 1_555 1_555
H1D C3D 1_555 1_555
H2D C3D 1_555 1_555
H3D C3D 1_555 1_555
C4D C2D 1_555 1_555
H4D C4D 1_555 1_555
H5D C4D 1_555 1_555
H6D C4D 1_555 1_555
C5D O4D 1_555 1_555
C6D C5D 1_555 1_555
C7D C6D 1_555 1_555
H7D C7D 1_555 1_555
H8D C7D 1_555 1_555
H9D C7D 1_555 1_555
C8D C6D 1_555 1_555
H10D C8D 1_555 1_555
H11D C8D 1_555 1_555
H12D C8D 1_555 1_555
C9D C6D 1_555 1_555
H13D C9D 1_555 1_555
H14D C9D 1_555 1_555
H15D C9D 1_555 1_555
C10D O6D 1_555 1_555
C11D C10D 1_555 1_555
C12D C11D 1_555 1_555
H16D C12D 1_555 1_555
H17D C12D 1_555 1_555
H18D C12D 1_555 1_555
C13D C11D 1_555 1_555
H19D C13D 1_555 1_555
H20D C13D 1_555 1_555
H21D C13D 1_555 1_555
C14D C11D 1_555 1_555
H22D C14D 1_555 1_555
H23D C14D 1_555 1_555
H24D C14D 1_555 1_555
C15D O8D 1_555 1_555
C16D C15D 1_555 1_555
C17D C16D 1_555 1_555
H25D C17D 1_555 1_555
H26D C17D 1_555 1_555
H27D C17D 1_555 1_555
C18D C16D 1_555 1_555
H28D C18D 1_555 1_555
H29D C18D 1_555 1_555
H30D C18D 1_555 1_555
C19D C16D 1_555 1_555
H31D C19D 1_555 1_555
H32D C19D 1_555 1_555
H33D C19D 1_555 1_555
C20D O10D 1_555 1_555
C21D C20D 1_555 1_555
C22D C21D 1_555 1_555
H34D C22D 1_555 1_555
H35D C22D 1_555 1_555
H36D C22D 1_555 1_555
C23D C21D 1_555 1_555
H37D C23D 1_555 1_555
H38D C23D 1_555 1_555
H39D C23D 1_555 1_555
C24D C21D 1_555 1_555
H40D C24D 1_555 1_555
H41D C24D 1_555 1_555
H42D C24D 1_555 1_555
C25D O12D 1_555 1_555
C26D C25D 1_555 1_555
C27D C26D 1_555 1_555
H43D C27D 1_555 1_555
H44D C27D 1_555 1_555
H45D C27D 1_555 1_555
C28D C26D 1_555 1_555
H46D C28D 1_555 1_555
H47D C28D 1_555 1_555
H48D C28D 1_555 1_555
C29D C26D 1_555 1_555
H49D C29D 1_555 1_555
H50D C29D 1_555 1_555
H51D C29D 1_555 1_555
C30D H52D 1_555 1_555
C31D C30D 1_555 1_555
H53D C31D 1_555 1_555
C32D C31D 1_555 1_555
C33D C32D 1_555 1_555
H54D C33D 1_555 1_555
C34D N1D 1_555 1_555
H55D C34D 1_555 1_555
C35D C32D 1_555 1_555
C36D C35D 1_555 1_555
H56D C36D 1_555 1_555
C37D C36D 1_555 1_555
H57D C37D 1_555 1_555
C38D N2D 1_555 1_555
H58D C38D 1_555 1_555
C39D C35D 1_555 1_555
H59D C39D 1_555 1_555
C45D C2D 1_555 1_555
H64D C45D 1_555 1_555
H65D C45D 1_555 1_555
H66D C45D 1_555 1_555
Ni1B N2 1_555 1_555
Ni1F N2D 1_555 1_555
N2B Ni1 1_555 1_555
N2F Ni1D 1_555 1_555
Fe2 O1 1_555 1_555
O3 C1 1_555 1_555
O5 C5 1_555 1_555
O7 C10 1_555 1_555
O9 C15 1_555 1_555
O11 C20 1_555 1_555
O13 C25 1_555 1_555
C33 C34 1_555 1_555
C38 C39 1_555 1_555
C43 C44 1_555 1_555
C41D C42D 1_555 1_555
C43D C44D 1_555 1_555
Fe2D O1D 1_555 1_555
O3D C1D 1_555 1_555
O5D C5D 1_555 1_555
O7D C10D 1_555 1_555
O9D C15D 1_555 1_555
O11D C20D 1_555 1_555
O13D C25D 1_555 1_555
C33D C34D 1_555 1_555
C38D C39D 1_555 1_555

#END
