
#######################################################################
#
#                 Cambridge Crystallographic Data Centre
#                                CCDC 
#
#######################################################################
#
# If this CIF has been generated from an entry in the Cambridge 
# Structural Database, then it will include bibliographic, chemical, 
# crystal, experimental, refinement or atomic coordinate data resulting 
# from the CCDC's data processing and validation procedures.
#
#######################################################################

data_GIXJON
_symmetry_cell_setting           monoclinic
_symmetry_space_group_name_H-M   'P 21/c'
_symmetry_Int_Tables_number      14
_space_group_name_Hall           '-P 2ybc'
loop_
_symmetry_equiv_pos_site_id
_symmetry_equiv_pos_as_xyz
1 x,y,z
2 -x,1/2+y,1/2-z
3 -x,-y,-z
4 x,1/2-y,1/2+z
_cell_length_a                   13.731(7)
_cell_length_b                   14.940(9)
_cell_length_c                   14.911(9)
_cell_angle_alpha                90
_cell_angle_beta                 115.474(14)
_cell_angle_gamma                90
_cell_volume                     2761.48
loop_
_atom_site_label
_atom_site_type_symbol
_atom_site_fract_x
_atom_site_fract_y
_atom_site_fract_z
Ti1 Ti 0.19505(5) 0.26472(4) -0.32731(5)
Li1 Li 0.0992(5) 0.1986(4) -0.1655(5)
Li2 Li 0.4954(5) 0.2016(5) -0.4123(5)
O1 O -0.1918(2) 0.32527(18) -0.2520(2)
C1 C -0.1146(3) 0.2907(2) -0.2584(3)
O2 O -0.0556(2) 0.23024(17) -0.1947(2)
C2 C -0.0824(3) 0.3169(2) -0.3393(3)
H1 H -0.1464 0.3402 -0.3954
H2 H -0.0301 0.3660 -0.3146
O3 O 0.07256(19) 0.29314(16) -0.45946(19)
C3 C -0.0332(3) 0.2427(2) -0.3782(3)
O4 O -0.1062(2) 0.28897(17) -0.55051(19)
C4 C -0.0249(3) 0.2772(2) -0.4721(3)
O5 O -0.0237(3) 0.10221(18) -0.5053(3)
C5 C -0.0578(3) 0.0872(2) -0.4448(3)
O6 O -0.0589(3) 0.00731(19) -0.4102(3)
H3 H -0.025(4) -0.025(3) -0.437(4)
C6 C -0.1027(3) 0.1582(2) -0.4030(3)
H4 H -0.1762 0.1729 -0.4513
H5 H -0.1062 0.1358 -0.3427
O7 O 0.07363(19) 0.22308(15) -0.30783(19)
C7 C 0.5029(3) 0.1628(3) -0.2005(3)
O8 O 0.5647(3) 0.2108(2) -0.1233(2)
H6 H 0.599(6) 0.252(4) -0.137(6)
C8 C 0.4387(3) 0.0928(3) -0.1789(3)
H7 H 0.4598 0.0336 -0.1929
H8 H 0.4546 0.0949 -0.1083
O9 O 0.4981(2) 0.1759(2) -0.2826(2)
C9 C 0.3175(3) 0.1062(2) -0.2414(3)
O10 O 0.3086(2) 0.02999(17) -0.3868(2)
C10 C 0.2470(3) 0.0356(2) -0.2208(3)
H9 H 0.2726 -0.0245 -0.2263
H10 H 0.1722 0.0411 -0.2710
O11 O 0.2282(2) 0.16306(16) -0.40436(19)
C11 C 0.2507(3) 0.0470(2) -0.1198(3)
O12 O 0.3255(2) -0.00169(18) -0.0507(2)
C12 C 0.2856(3) 0.0982(2) -0.3522(3)
O13 O 0.1909(2) 0.09754(17) -0.1031(2)
C13 C 0.1210(3) 0.5191(2) -0.3762(3)
O14 O 0.28907(19) 0.19402(15) -0.22477(19)
C14 C 0.2203(3) 0.5275(2) -0.2803(3)
H11 H 0.2651 0.5767 -0.2848
H12 H 0.2001 0.5408 -0.2262
O15 O 0.1276(2) 0.49908(18) -0.4529(2)
C15 C 0.2842(3) 0.4398(2) -0.2584(3)
O16 O 0.0297(2) 0.53347(19) -0.3708(2)
H13 H -0.028(4) 0.529(3) -0.437(4)
C16 C 0.3913(3) 0.4422(3) -0.1645(3)
H14 H 0.4300 0.4966 -0.1670
H15 H 0.4348 0.3911 -0.1670
O17 O 0.3030(2) 0.48099(19) -0.0623(2)
C17 C 0.3862(3) 0.4403(2) -0.0664(3)
O18 O 0.4555(2) 0.40369(18) 0.0056(2)
C18 C 0.3145(3) 0.4160(2) -0.3425(3)
O19 O 0.3662(2) 0.46919(17) -0.3683(2)
O20 O 0.28692(19) 0.33656(16) -0.37738(19)
O21 O 0.21725(19) 0.36912(15) -0.25295(19)
O22 O 0.1606(3) 0.3072(2) -0.1054(3)
H16 H 0.177(3) 0.340(3) -0.133(3)
H17 H 0.186(6) 0.326(4) -0.051(5)
O23 O 0.3889(3) 0.2828(2) -0.4944(3)
H18 H 0.342(4) 0.307(3) -0.466(4)
H19 H 0.342(5) 0.277(4) -0.555(5)
O24 O 0.6270(3) 0.2497(3) -0.4130(3)
H20 H 0.667(5) 0.287(4) -0.366(5)
H21 H 0.590(7) 0.278(5) -0.482(7)
Li2C Li 0.4954(5) 0.2984(5) 0.0877(5)
O18C O 0.4555(2) 0.09631(18) -0.4944(2)
O25 O 0.6767(3) 0.1602(2) 0.3511(3)
H22 H 0.727(5) 0.175(4) 0.346(5)
H23 H 0.665(7) 0.097(6) 0.355(6)
loop_
_geom_bond_atom_site_label_1
_geom_bond_atom_site_label_2
_geom_bond_site_symmetry_1
_geom_bond_site_symmetry_2
Ti1 O3 1_555 1_555
Li1 O2 1_555 1_555
Li2 O9 1_555 1_555
O1 C1 1_555 1_555
C1 O2 1_555 1_555
C2 C1 1_555 1_555
H1 C2 1_555 1_555
H2 C2 1_555 1_555
O3 C4 1_555 1_555
C3 C2 1_555 1_555
O4 C4 1_555 1_555
C4 C3 1_555 1_555
O5 C5 1_555 1_555
C5 O6 1_555 1_555
O6 H3 1_555 1_555
C6 C3 1_555 1_555
H4 C6 1_555 1_555
H5 C6 1_555 1_555
O7 Ti1 1_555 1_555
C7 O8 1_555 1_555
O8 H6 1_555 1_555
C8 C7 1_555 1_555
H7 C8 1_555 1_555
H8 C8 1_555 1_555
O9 C7 1_555 1_555
C9 C8 1_555 1_555
O10 C12 1_555 1_555
C10 C9 1_555 1_555
H9 C10 1_555 1_555
H10 C10 1_555 1_555
O11 Ti1 1_555 1_555
C11 C10 1_555 1_555
O12 C11 1_555 1_555
C12 C9 1_555 1_555
O13 Li1 1_555 1_555
C13 C14 1_555 1_555
O14 Ti1 1_555 1_555
C14 H11 1_555 1_555
H12 C14 1_555 1_555
O15 C13 1_555 1_555
C15 C14 1_555 1_555
O16 C13 1_555 1_555
H13 O16 1_555 1_555
C16 C15 1_555 1_555
H14 C16 1_555 1_555
H15 C16 1_555 1_555
O17 C17 1_555 1_555
C17 C16 1_555 1_555
O18 C17 1_555 1_555
C18 C15 1_555 1_555
O19 C18 1_555 1_555
O20 Ti1 1_555 1_555
O21 Ti1 1_555 1_555
O22 Li1 1_555 1_555
H16 O22 1_555 1_555
H17 O22 1_555 1_555
O23 Li2 1_555 1_555
H18 O23 1_555 1_555
H19 O23 1_555 1_555
O24 Li2 1_555 1_555
H20 O24 1_555 1_555
H21 O24 1_555 1_555
O25 H22 1_555 1_555
H23 O25 1_555 1_555
Li2C O18 1_555 1_555
O18C Li2 1_555 1_555
Li1 O7 1_555 1_555
C3 O7 1_555 1_555
C5 C6 1_555 1_555
C9 O14 1_555 1_555
O11 C12 1_555 1_555
C11 O13 1_555 1_555
C15 O21 1_555 1_555
C18 O20 1_555 1_555

#END
