
#######################################################################
#
#                 Cambridge Crystallographic Data Centre
#                                CCDC 
#
#######################################################################
#
# If this CIF has been generated from an entry in the Cambridge 
# Structural Database, then it will include bibliographic, chemical, 
# crystal, experimental, refinement or atomic coordinate data resulting 
# from the CCDC's data processing and validation procedures.
#
#######################################################################

data_GIXJII
_symmetry_cell_setting           triclinic
_symmetry_space_group_name_H-M   'P -1'
_symmetry_Int_Tables_number      2
_space_group_name_Hall           '-P 1'
loop_
_symmetry_equiv_pos_site_id
_symmetry_equiv_pos_as_xyz
1 x,y,z
2 -x,-y,-z
_cell_length_a                   12.5964(10)
_cell_length_b                   13.3981(8)
_cell_length_c                   13.7723(10)
_cell_angle_alpha                110.224(3)
_cell_angle_beta                 105.407(2)
_cell_angle_gamma                102.574(2)
_cell_volume                     1975.72
loop_
_atom_site_label
_atom_site_type_symbol
_atom_site_fract_x
_atom_site_fract_y
_atom_site_fract_z
O1 O 0.39749(13) 0.18267(12) 0.63742(11)
O2 O 0.39405(12) 0.40428(12) 0.65135(11)
C1 C 0.2532(2) -0.04105(19) 0.55229(18)
H1 H 0.3221 -0.029 0.5358
C2 C 0.1890(2) -0.1493(2) 0.5319(2)
H2 H 0.2128 -0.2113 0.4998
C3 C 0.0898(2) -0.1669(2) 0.5587(2)
H3 H 0.0467 -0.2406 0.5465
C4 C 0.0543(2) -0.0767(2) 0.6031(2)
H4 H -0.0135 -0.0888 0.6213
C5 C 0.1165(2) 0.0315(2) 0.62134(18)
H5 H 0.0904 0.0927 0.6506
C6 C 0.21743(19) 0.05012(18) 0.59668(17)
C7 C 0.28943(19) 0.16599(18) 0.61812(16)
C8 C 0.23459(19) 0.24595(18) 0.61524(18)
H6 H 0.1527 0.2218 0.5995
C9 C 0.28697(18) 0.35751(17) 0.63299(15)
C10 C 0.21173(19) 0.43049(18) 0.63154(16)
C11 C 0.1163(2) 0.4163(2) 0.66469(19)
H7 H 0.094 0.3559 0.6844
C12 C 0.0537(2) 0.4897(2) 0.6691(2)
H8 H -0.0114 0.4792 0.6916
C13 C 0.0850(2) 0.5781(2) 0.6410(2)
H9 H 0.0426 0.6291 0.6455
C14 C 0.1781(2) 0.5922(2) 0.6063(2)
H10 H 0.199 0.6522 0.5856
C15 C 0.2412(2) 0.51887(19) 0.60161(18)
H11 H 0.3052 0.5291 0.5777
Co1 Co 0.51675(2) 0.32637(2) 0.66143(2)
O3 O 0.63780(13) 0.24733(12) 0.67650(12)
O4 O 0.64619(12) 0.46515(12) 0.68463(11)
C16 C 0.7534(2) 0.1120(2) 0.7279(2)
H12 H 0.671 0.0827 0.6882
C17 C 0.8104(2) 0.0402(2) 0.7503(2)
H13 H 0.7677 -0.0375 0.7258
C18 C 0.9308(2) 0.0832(2) 0.8092(2)
H14 H 0.9708 0.0351 0.8254
C19 C 0.9918(2) 0.1957(2) 0.8440(2)
H15 H 1.074 0.225 0.8845
C20 C 0.9343(2) 0.2667(2) 0.8203(2)
H16 H 0.9777 0.344 0.8441
C21 C 0.8137(2) 0.22578(19) 0.76208(17)
C22 C 0.74626(18) 0.29824(18) 0.73407(16)
C23 C 0.80429(19) 0.41444(19) 0.76903(18)
H17 H 0.8843 0.4455 0.8176
C24 C 0.75434(19) 0.48828(18) 0.73848(17)
C25 C 0.83466(19) 0.60312(18) 0.76659(18)
C26 C 0.8099(2) 0.65076(19) 0.69204(19)
H18 H 0.7404 0.6121 0.6271
C27 C 0.8851(2) 0.7539(2) 0.7108(2)
H19 H 0.8672 0.7849 0.6586
C28 C 0.9865(2) 0.8115(2) 0.8060(2)
H20 H 1.0392 0.8814 0.8186
C29 C 1.0101(2) 0.7661(2) 0.8823(2)
H21 H 1.078 0.8065 0.9487
C30 C 0.9358(2) 0.6623(2) 0.86289(19)
H22 H 0.9538 0.6315 0.9153
N1 N 0.47819(15) 0.26435(14) 0.48492(13)
C31 C 0.5024(2) 0.17203(18) 0.43232(17)
H23 H 0.5065 0.1198 0.4642
C32 C 0.5216(2) 0.14986(18) 0.33405(17)
H24 H 0.5382 0.0835 0.2996
C33 C 0.51640(18) 0.22543(17) 0.28546(16)
C34 C 0.48239(19) 0.31647(18) 0.33554(16)
H25 H 0.4706 0.3664 0.302
C35 C 0.46603(18) 0.33297(18) 0.43470(16)
H26 H 0.445 0.3964 0.469
N2 N 0.59287(15) 0.12381(15) 0.15784(13)
C36 C 0.63458(18) 0.10799(18) 0.07514(16)
C37 C 0.63744(19) 0.17853(18) 0.02097(17)
H27 H 0.666 0.1646 -0.0379
C38 C 0.59799(19) 0.26988(18) 0.05382(16)
C39 C 0.55625(19) 0.28597(18) 0.14019(16)
H28 H 0.5293 0.3476 0.1653
C40 C 0.55436(18) 0.21126(17) 0.18923(16)
N3 N 0.56895(15) 0.38958(15) -0.15862(14)
C41 C 0.56577(18) 0.31708(18) -0.11120(16)
H29 H 0.5361 0.2382 -0.1583
C42 C 0.60379(19) 0.35191(18) 0.00329(17)
C43 C 0.6469(2) 0.46808(19) 0.07109(18)
H30 H 0.6718 0.4953 0.1498
C44 C 0.6531(2) 0.54318(19) 0.02319(18)
H31 H 0.6845 0.6225 0.0684
C45 C 0.6129(2) 0.50106(18) -0.09162(17)
H32 H 0.6165 0.5529 -0.1244
N4 N 0.75677(18) -0.17691(17) 0.00559(16)
C46 C 0.7249(2) -0.1373(2) 0.09257(19)
H33 H 0.7288 -0.1746 0.1402
C47 C 0.6868(2) -0.04572(19) 0.11774(18)
H34 H 0.6663 -0.0214 0.1814
C48 C 0.67855(18) 0.01079(18) 0.04995(17)
C49 C 0.7136(2) -0.02842(19) -0.04044(18)
H35 H 0.7113 0.0077 -0.0891
C50 C 0.7516(2) -0.1205(2) -0.05817(19)
H36 H 0.7756 -0.1453 -0.1196
Co1_2 Co 0.51675(2) 0.32637(2) -0.33857(2)
N3_2 N 0.56895(15) 0.38958(15) 0.84138(14)
loop_
_geom_bond_atom_site_label_1
_geom_bond_atom_site_label_2
_geom_bond_site_symmetry_1
_geom_bond_site_symmetry_2
O1 C7 1_555 1_555
O2 C9 1_555 1_555
C1 H1 1_555 1_555
C2 C1 1_555 1_555
H2 C2 1_555 1_555
C3 C2 1_555 1_555
H3 C3 1_555 1_555
C4 C3 1_555 1_555
H4 C4 1_555 1_555
C5 C4 1_555 1_555
H5 C5 1_555 1_555
C6 C1 1_555 1_555
C7 C6 1_555 1_555
C8 C7 1_555 1_555
H6 C8 1_555 1_555
C9 C8 1_555 1_555
C10 C9 1_555 1_555
C11 C10 1_555 1_555
H7 C11 1_555 1_555
C12 C11 1_555 1_555
H8 C12 1_555 1_555
C13 C12 1_555 1_555
H9 C13 1_555 1_555
C14 C13 1_555 1_555
H10 C14 1_555 1_555
C15 C10 1_555 1_555
H11 C15 1_555 1_555
Co1 O1 1_555 1_555
O3 Co1 1_555 1_555
O4 Co1 1_555 1_555
C16 H12 1_555 1_555
C17 C16 1_555 1_555
H13 C17 1_555 1_555
C18 C17 1_555 1_555
H14 C18 1_555 1_555
C19 C18 1_555 1_555
H15 C19 1_555 1_555
C20 C19 1_555 1_555
H16 C20 1_555 1_555
C21 C16 1_555 1_555
C22 O3 1_555 1_555
C23 C22 1_555 1_555
H17 C23 1_555 1_555
C24 O4 1_555 1_555
C25 C24 1_555 1_555
C26 C25 1_555 1_555
H18 C26 1_555 1_555
C27 C26 1_555 1_555
H19 C27 1_555 1_555
C28 C27 1_555 1_555
H20 C28 1_555 1_555
C29 C28 1_555 1_555
H21 C29 1_555 1_555
C30 C25 1_555 1_555
H22 C30 1_555 1_555
N1 Co1 1_555 1_555
C31 N1 1_555 1_555
H23 C31 1_555 1_555
C32 C31 1_555 1_555
H24 C32 1_555 1_555
C33 C32 1_555 1_555
C34 C33 1_555 1_555
H25 C34 1_555 1_555
C35 N1 1_555 1_555
H26 C35 1_555 1_555
N2 C36 1_555 1_555
C36 C37 1_555 1_555
C37 H27 1_555 1_555
C38 C37 1_555 1_555
C39 C38 1_555 1_555
H28 C39 1_555 1_555
C40 C33 1_555 1_555
N3 C41 1_555 1_555
C41 H29 1_555 1_555
C42 C38 1_555 1_555
C43 C42 1_555 1_555
H30 C43 1_555 1_555
C44 C43 1_555 1_555
H31 C44 1_555 1_555
C45 N3 1_555 1_555
H32 C45 1_555 1_555
N4 C46 1_555 1_555
C46 H33 1_555 1_555
C47 C46 1_555 1_555
H34 C47 1_555 1_555
C48 C36 1_555 1_555
C49 C48 1_555 1_555
H35 C49 1_555 1_555
C50 N4 1_555 1_555
H36 C50 1_555 1_555
Co1_2 N3 1_555 1_555
N3_2 Co1 1_555 1_555
O2 Co1 1_555 1_555
C5 C6 1_555 1_555
C14 C15 1_555 1_555
C20 C21 1_555 1_555
C21 C22 1_555 1_555
C23 C24 1_555 1_555
C29 C30 1_555 1_555
C34 C35 1_555 1_555
N2 C40 1_555 1_555
C39 C40 1_555 1_555
C41 C42 1_555 1_555
C44 C45 1_555 1_555
C47 C48 1_555 1_555
C49 C50 1_555 1_555

#END
