
#######################################################################
#
#                 Cambridge Crystallographic Data Centre
#                                CCDC 
#
#######################################################################
#
# If this CIF has been generated from an entry in the Cambridge 
# Structural Database, then it will include bibliographic, chemical, 
# crystal, experimental, refinement or atomic coordinate data resulting 
# from the CCDC's data processing and validation procedures.
#
#######################################################################

data_GIXJOO
_symmetry_cell_setting           triclinic
_symmetry_space_group_name_H-M   'P -1'
_symmetry_Int_Tables_number      2
_space_group_name_Hall           '-P 1'
loop_
_symmetry_equiv_pos_site_id
_symmetry_equiv_pos_as_xyz
1 x,y,z
2 -x,-y,-z
_cell_length_a                   12.0232(4)
_cell_length_b                   16.4228(5)
_cell_length_c                   20.0968(8)
_cell_angle_alpha                88.1630(10)
_cell_angle_beta                 74.5440(10)
_cell_angle_gamma                75.9190(10)
_cell_volume                     3707.49
loop_
_atom_site_label
_atom_site_type_symbol
_atom_site_fract_x
_atom_site_fract_y
_atom_site_fract_z
C1 C -0.1768(4) 1.6149(2) 0.3493(2)
C2 C -0.2917(4) 1.6382(3) 0.3967(3)
H1 H -0.3003 1.6259 0.4441
C3 C -0.3911(5) 1.6782(4) 0.3758(4)
H2 H -0.4678 1.6926 0.4075
C4 C -0.3752(5) 1.6959(3) 0.3089(4)
H3 H -0.4427 1.7252 0.2944
C5 C -0.2687(7) 1.6746(4) 0.2605(4)
H4 H -0.2631 1.6872 0.2134
C6 C -0.1641(5) 1.6326(3) 0.2819(3)
H5 H -0.0882 1.6178 0.2494
C7 C -0.0759(3) 1.57260(19) 0.3787(2)
C8 C 0.0414(3) 1.5749(2) 0.34257(18)
H6 H 0.0514 1.6052 0.3012
C9 C 0.1445(3) 1.53602(17) 0.36259(15)
C10 C 0.2635(3) 1.53838(19) 0.31523(17)
C11 C 0.2830(4) 1.5415(3) 0.24348(19)
H7 H 0.2202 1.5414 0.2232
C12 C 0.3954(5) 1.5448(3) 0.2017(2)
H8 H 0.4083 1.5475 0.1531
C13 C 0.4873(4) 1.5441(3) 0.2305(3)
H9 H 0.5634 1.5458 0.2016
C14 C 0.4692(4) 1.5408(2) 0.3014(2)
H10 H 0.5328 1.5408 0.3211
C15 C 0.3579(3) 1.53747(19) 0.34416(19)
H11 H 0.3461 1.5346 0.3928
O1 O -0.1055(2) 1.53843(16) 0.43567(13)
O2 O 0.14609(18) 1.49922(13) 0.41859(11)
Co1 Co 0.00000 1.50000 0.50000
C16 C -0.5292(3) 1.1626(2) 0.3292(2)
C17 C -0.5622(3) 1.2417(2) 0.3635(3)
H12 H -0.5827 1.2455 0.4126
C18 C -0.5648(5) 1.3132(3) 0.3264(5)
H13 H -0.5877 1.3665 0.3497
C19 C -0.5356(6) 1.3078(3) 0.2583(6)
H14 H -0.539 1.3582 0.2334
C20 C -0.4992(5) 1.2297(4) 0.2206(4)
H15 H -0.4767 1.2274 0.1715
C21 C -0.4975(4) 1.1566(3) 0.2582(3)
H16 H -0.4748 1.1033 0.2349
C22 C -0.5277(3) 1.08656(18) 0.37206(19)
C23 C -0.5751(3) 1.02387(19) 0.3530(2)
H17 H -0.6086 1.0345 0.3149
C24 C -0.5778(3) 0.94634(18) 0.38497(17)
C25 C -0.6242(3) 0.88388(18) 0.35410(18)
C26 C -0.6160(3) 0.8798(2) 0.28364(19)
H18 H -0.5839 0.9194 0.254
C27 C -0.6545(3) 0.8180(2) 0.2565(2)
H19 H -0.6479 0.8153 0.2084
C28 C -0.7025(3) 0.7607(2) 0.2995(2)
H20 H -0.7286 0.7185 0.2809
C29 C -0.7124(3) 0.7646(2) 0.36971(19)
H21 H -0.7466 0.7257 0.3992
C30 C -0.6726(3) 0.82537(19) 0.39711(18)
H22 H -0.6782 0.8271 0.4451
O3 O -0.48284(19) 1.08547(13) 0.42319(13)
O4 O -0.54408(19) 0.92400(13) 0.43884(12)
Co2 Co -0.5 1.00000 0.50000
C31 C 0.5793(3) 0.7316(2) 0.0314(2)
C32 C 0.5249(5) 0.7095(3) -0.0146(3)
H23 H 0.4789 0.7521 -0.0361
C33 C 0.5361(6) 0.6248(3) -0.0303(4)
H24 H 0.4975 0.6098 -0.0619
C34 C 0.6042(5) 0.5636(3) 0.0008(4)
H25 H 0.6137 0.5061 -0.0103
C35 C 0.6573(5) 0.5843(3) 0.0469(3)
H26 H 0.7026 0.5412 0.0683
C36 C 0.6466(5) 0.6680(3) 0.0633(3)
H27 H 0.6843 0.682 0.0958
C37 C 0.5709(3) 0.82424(19) 0.04237(17)
C38 C 0.6161(3) 0.8500(2) 0.09372(19)
H28 H 0.6331 0.8108 0.1276
C39 C 0.6379(3) 0.9291(2) 0.09838(16)
C40 C 0.6954(3) 0.9470(2) 0.15283(18)
C41 C 0.6866(4) 0.9029(3) 0.2143(2)
H29 H 0.6463 0.8589 0.222
C42 C 0.7374(5) 0.9243(4) 0.2636(2)
H30 H 0.7298 0.8957 0.3058
C43 C 0.7980(6) 0.9859(5) 0.2521(3)
H31 H 0.8326 0.9996 0.2863
C44 C 0.8094(6) 1.0280(5) 0.1918(4)
H32 H 0.8532 1.0699 0.1838
C45 C 0.7568(4) 1.0094(3) 0.1424(3)
H33 H 0.763 1.0397 0.1011
O5 O 0.6172(2) 0.98952(14) 0.05880(11)
O6 O 0.5235(2) 0.87232(14) 0.00201(11)
Co3 Co 0.50000 1.00000 0.00000
N1 N 0.3625(2) 1.01599(16) 0.09396(12)
C46 C 0.2827(3) 0.9694(2) 0.11085(15)
H34 H 0.283 0.9295 0.0775
C47 C 0.1993(3) 0.9763(2) 0.17464(15)
H35 H 0.144 0.9421 0.1843
C48 C 0.1979(3) 1.03430(17) 0.22436(14)
C49 C 0.2781(3) 1.08487(18) 0.20591(15)
H36 H 0.2775 1.1269 0.2375
C50 C 0.3585(3) 1.07358(19) 0.14152(15)
H37 H 0.4136 1.108 0.1301
C51 C 0.1160(2) 1.04307(17) 0.29506(14)
C52 C 0.0508(2) 0.98468(17) 0.32271(14)
H38 H 0.0606 0.9346 0.2971
C53 C -0.0288(2) 1.00027(17) 0.38803(14)
C54 C -0.0376(2) 1.07373(18) 0.42468(14)
H39 H -0.0905 1.0864 0.4695
C55 C 0.0329(2) 1.12781(17) 0.39387(14)
N2 N 0.1080(2) 1.11356(15) 0.33048(12)
C56 C 0.0254(2) 1.20984(18) 0.42659(14)
C57 C -0.0820(3) 1.25945(19) 0.46498(16)
H40 H -0.1522 1.2393 0.4755
C58 C -0.0850(3) 1.3391(2) 0.48776(16)
H41 H -0.1592 1.3735 0.5129
N3 N 0.0116(2) 1.36980(16) 0.47606(14)
C59 C 0.1160(3) 1.3201(2) 0.44086(18)
H42 H 0.1857 1.3405 0.4334
C60 C 0.1267(3) 1.2408(2) 0.41500(18)
H43 H 0.2019 1.2079 0.3897
C61 C -0.1094(2) 0.94404(17) 0.41432(14)
C62 C -0.0735(3) 0.85732(18) 0.40211(15)
H44 H 0.0073 0.8308 0.3806
C63 C -0.1578(3) 0.81026(19) 0.42186(17)
H45 H -0.135 0.7509 0.4154
C64 C -0.2757(3) 0.85110(19) 0.45122(17)
H46 H -0.3334 0.8188 0.4629
N4 N -0.3114(2) 0.93462(15) 0.46382(14)
C65 C -0.2292(3) 0.97949(18) 0.44573(15)
H47 H -0.2538 1.0385 0.4548
C16A C -0.4708(3) 0.8374(2) 0.6708(2)
C17A C -0.4378(3) 0.7583(2) 0.6365(3)
H12A H -0.4173 0.7545 0.5874
C18A C -0.4352(5) 0.6868(3) 0.6736(5)
H13A H -0.4123 0.6335 0.6503
C19A C -0.4644(6) 0.6922(3) 0.7417(6)
H14A H -0.461 0.6418 0.7666
C20A C -0.5008(5) 0.7703(4) 0.7794(4)
H15A H -0.5233 0.7726 0.8285
C21A C -0.5025(4) 0.8434(3) 0.7418(3)
H16A H -0.5252 0.8967 0.7651
C22A C -0.4723(3) 0.91344(18) 0.62794(19)
C23A C -0.4249(3) 0.97613(19) 0.6470(2)
H17A H -0.3914 0.9655 0.6851
C24A C -0.4222(3) 1.05366(18) 0.61503(17)
C25A C -0.3758(3) 1.11612(18) 0.64590(18)
C26A C -0.3840(3) 1.1202(2) 0.71636(19)
H18A H -0.4161 1.0806 0.746
C27A C -0.3455(3) 1.1820(2) 0.7435(2)
H19A H -0.3521 1.1847 0.7916
C28A C -0.2975(3) 1.2393(2) 0.7005(2)
H20A H -0.2714 1.2815 0.7191
C29A C -0.2876(3) 1.2354(2) 0.63029(19)
H21A H -0.2534 1.2743 0.6008
C30A C -0.3274(3) 1.17463(19) 0.60289(18)
H22A H -0.3218 1.1729 0.5549
O3A O -0.51716(19) 0.91453(13) 0.57681(13)
O4A O -0.45592(19) 1.07600(13) 0.56116(12)
N1A N -1.3625(2) 0.98401(16) 0.90604(12)
C46A C -1.2827(3) 1.0306(2) 0.88915(15)
H34A H -1.283 1.0705 0.9225
C47A C -1.1993(3) 1.0237(2) 0.82536(15)
H35A H -1.144 1.0579 0.8157
C48A C -1.1979(3) 0.96570(17) 0.77564(14)
C49A C -1.2781(3) 0.91513(18) 0.79409(15)
H36A H -1.2775 0.8731 0.7625
C50A C -1.3585(3) 0.92642(19) 0.85848(15)
H37A H -1.4136 0.892 0.8699
C51A C -1.1160(2) 0.95693(17) 0.70494(14)
C52A C -1.0508(2) 1.01532(17) 0.67729(14)
H38A H -1.0606 1.0654 0.7029
C53A C -0.9712(2) 0.99973(17) 0.61197(14)
C54A C -0.9624(2) 0.92627(18) 0.57532(14)
H39A H -0.9095 0.9136 0.5305
C55A C -1.0329(2) 0.87219(17) 0.60613(14)
N2A N -1.1080(2) 0.88644(15) 0.66952(12)
C56A C -1.0254(2) 0.79016(18) 0.57341(14)
C57A C -0.9180(3) 0.74055(19) 0.53502(16)
H40A H -0.8478 0.7607 0.5245
C58A C -0.9150(3) 0.6609(2) 0.51224(16)
H41A H -0.8408 0.6265 0.4871
N3A N -1.0116(2) 0.63020(16) 0.52394(14)
C59A C -1.1160(3) 0.6799(2) 0.55914(18)
H42A H -1.1857 0.6595 0.5666
C60A C -1.1267(3) 0.7592(2) 0.58500(18)
H43A H -1.2019 0.7921 0.6103
C61A C -0.8906(2) 1.05596(17) 0.58568(14)
C62A C -0.9265(3) 1.14268(18) 0.59789(15)
H44A H -1.0073 1.1692 0.6194
C63A C -0.8422(3) 1.18974(19) 0.57814(17)
H45A H -0.865 1.2491 0.5846
C64A C -0.7243(3) 1.14890(19) 0.54878(17)
H46A H -0.6666 1.1812 0.5371
N4A N -0.6886(2) 1.06538(15) 0.53618(14)
C65A C -0.7708(3) 1.02051(18) 0.55427(15)
H47A H -0.7462 0.9615 0.5452
C1A C 0.1768(4) 1.3851(2) 0.6507(2)
C2A C 0.2917(4) 1.3618(3) 0.6033(3)
H1A H 0.3003 1.3741 0.5559
C3A C 0.3911(5) 1.3218(4) 0.6242(4)
H2A H 0.4678 1.3074 0.5925
C4A C 0.3752(5) 1.3041(3) 0.6911(4)
H3A H 0.4427 1.2748 0.7056
C5A C 0.2687(7) 1.3254(4) 0.7395(4)
H4A H 0.2631 1.3128 0.7866
C6A C 0.1641(5) 1.3674(3) 0.7181(3)
H5A H 0.0882 1.3822 0.7506
C7A C 0.0759(3) 1.42740(19) 0.6213(2)
C8A C -0.0414(3) 1.4251(2) 0.65743(18)
H6A H -0.0514 1.3948 0.6988
C9A C -0.1445(3) 1.46398(17) 0.63741(15)
C10A C -0.2635(3) 1.46162(19) 0.68477(17)
C11A C -0.2830(4) 1.4585(3) 0.75652(19)
H7A H -0.2202 1.4586 0.7768
C12A C -0.3954(5) 1.4552(3) 0.7983(2)
H8A H -0.4083 1.4525 0.8469
C13A C -0.4873(4) 1.4559(3) 0.7695(3)
H9A H -0.5634 1.4542 0.7984
C14A C -0.4692(4) 1.4592(2) 0.6986(2)
H10A H -0.5328 1.4592 0.6789
C15A C -0.3579(3) 1.46253(19) 0.65584(19)
H11A H -0.3461 1.4654 0.6072
O1A O 0.1055(2) 1.46157(16) 0.56433(13)
O2A O -0.14609(18) 1.50078(13) 0.58141(11)
C31A C 0.4207(3) 1.2684(2) -0.0314(2)
C32A C 0.4751(5) 1.2905(3) 0.0146(3)
H23A H 0.5211 1.2479 0.0361
C33A C 0.4639(6) 1.3752(3) 0.0303(4)
H24A H 0.5025 1.3902 0.0619
C34A C 0.3958(5) 1.4364(3) -0.0008(4)
H25A H 0.3863 1.4939 0.0103
C35A C 0.3427(5) 1.4157(3) -0.0469(3)
H26A H 0.2974 1.4588 -0.0683
C36A C 0.3534(5) 1.3320(3) -0.0633(3)
H27A H 0.3157 1.318 -0.0958
C37A C 0.4291(3) 1.17576(19) -0.04237(17)
C38A C 0.3839(3) 1.1500(2) -0.09372(19)
H28A H 0.3669 1.1892 -0.1276
C39A C 0.3621(3) 1.0709(2) -0.09838(16)
C40A C 0.3046(3) 1.0530(2) -0.15283(18)
C41A C 0.3134(4) 1.0971(3) -0.2143(2)
H29A H 0.3537 1.1411 -0.222
C42A C 0.2626(5) 1.0757(4) -0.2636(2)
H30A H 0.2702 1.1043 -0.3058
C43A C 0.2020(6) 1.0141(5) -0.2521(3)
H31A H 0.1674 1.0004 -0.2863
C44A C 0.1906(6) 0.9720(5) -0.1918(4)
H32A H 0.1468 0.9301 -0.1838
C45A C 0.2432(4) 0.9906(3) -0.1424(3)
H33A H 0.237 0.9603 -0.1011
O5A O 0.3828(2) 1.01048(14) -0.05880(11)
O6A O 0.4765(2) 1.12768(14) -0.00201(11)
Co1_2 Co -1.00000 0.50000 0.50000
Co3_2 Co -1.50000 1.00000 1.00000
N1A_2 N 0.6375(2) 0.98401(16) -0.09396(12)
N3A_2 N -0.0116(2) 1.63020(16) 0.52394(14)
O7 O 0.6277(6) 0.3484(4) 0.4865(4)
H48 H 0.6299 0.3055 0.4641
C66 C 0.6203(11) 0.4171(6) 0.4444(6)
H49 H 0.6304 0.4651 0.4679
H50 H 0.5423 0.4314 0.4347
H51 H 0.6829 0.4033 0.401
O8 O 0.6779(3) 0.19129(18) 0.42237(18)
H52 H 0.6167 0.1743 0.4243
C67 C 0.7381(4) 0.1994(3) 0.3519(3)
H53 H 0.6796 0.2171 0.3251
H54 H 0.7914 0.1451 0.3332
H55 H 0.7846 0.2414 0.349
C68 C 0.9905(7) 0.4260(4) 0.1755(4)
C69 C 1.1121(7) 0.4006(5) 0.1445(3)
H56 H 1.1426 0.4102 0.097
C70 C 1.1890(5) 0.3612(5) 0.1830(4)
H57 H 1.2721 0.3439 0.1619
C71 C 1.1443(6) 0.3472(4) 0.2525(3)
H58 H 1.1969 0.3202 0.2789
C72 C 1.0228(6) 0.3725(4) 0.2835(3)
H59 H 0.9923 0.363 0.331
C73 C 0.9459(5) 0.4119(4) 0.2450(4)
H60 H 0.8628 0.4293 0.2661
N5 N 0.9071 0.4655 0.1414
O9 O 0.8096 0.4949 0.1643
O10 O 0.9467 0.4784 0.0799
loop_
_geom_bond_atom_site_label_1
_geom_bond_atom_site_label_2
_geom_bond_site_symmetry_1
_geom_bond_site_symmetry_2
C1 C2 1_555 1_555
C2 H1 1_555 1_555
C3 C2 1_555 1_555
H2 C3 1_555 1_555
C4 C3 1_555 1_555
H3 C4 1_555 1_555
C5 C4 1_555 1_555
H4 C5 1_555 1_555
C6 C1 1_555 1_555
H5 C6 1_555 1_555
C7 C1 1_555 1_555
C8 C7 1_555 1_555
H6 C8 1_555 1_555
C9 C8 1_555 1_555
C10 C9 1_555 1_555
C11 C10 1_555 1_555
H7 C11 1_555 1_555
C12 C11 1_555 1_555
H8 C12 1_555 1_555
C13 C12 1_555 1_555
H9 C13 1_555 1_555
C14 C13 1_555 1_555
H10 C14 1_555 1_555
C15 C10 1_555 1_555
H11 C15 1_555 1_555
O1 C7 1_555 1_555
O2 C9 1_555 1_555
Co1 O1 1_555 1_555
C16 C17 1_555 1_555
C17 H12 1_555 1_555
C18 C17 1_555 1_555
H13 C18 1_555 1_555
C19 C18 1_555 1_555
H14 C19 1_555 1_555
C20 C19 1_555 1_555
H15 C20 1_555 1_555
C21 C16 1_555 1_555
H16 C21 1_555 1_555
C22 C16 1_555 1_555
C23 C22 1_555 1_555
H17 C23 1_555 1_555
C24 C23 1_555 1_555
C25 C24 1_555 1_555
C26 C25 1_555 1_555
H18 C26 1_555 1_555
C27 C26 1_555 1_555
H19 C27 1_555 1_555
C28 C27 1_555 1_555
H20 C28 1_555 1_555
C29 C28 1_555 1_555
H21 C29 1_555 1_555
C30 C25 1_555 1_555
H22 C30 1_555 1_555
O3 C22 1_555 1_555
O4 C24 1_555 1_555
Co2 O3 1_555 1_555
C31 C32 1_555 1_555
C32 H23 1_555 1_555
C33 C32 1_555 1_555
H24 C33 1_555 1_555
C34 C33 1_555 1_555
H25 C34 1_555 1_555
C35 C34 1_555 1_555
H26 C35 1_555 1_555
C36 C31 1_555 1_555
H27 C36 1_555 1_555
C37 C31 1_555 1_555
C38 C37 1_555 1_555
H28 C38 1_555 1_555
C39 C38 1_555 1_555
C40 C39 1_555 1_555
C41 C40 1_555 1_555
H29 C41 1_555 1_555
C42 C41 1_555 1_555
H30 C42 1_555 1_555
C43 C42 1_555 1_555
H31 C43 1_555 1_555
C44 C43 1_555 1_555
H32 C44 1_555 1_555
C45 C40 1_555 1_555
H33 C45 1_555 1_555
O5 C39 1_555 1_555
O6 C37 1_555 1_555
Co3 O5 1_555 1_555
N1 Co3 1_555 1_555
C46 N1 1_555 1_555
H34 C46 1_555 1_555
C47 C46 1_555 1_555
H35 C47 1_555 1_555
C48 C47 1_555 1_555
C49 C48 1_555 1_555
H36 C49 1_555 1_555
C50 N1 1_555 1_555
H37 C50 1_555 1_555
C51 C48 1_555 1_555
C52 C51 1_555 1_555
H38 C52 1_555 1_555
C53 C52 1_555 1_555
C54 C53 1_555 1_555
H39 C54 1_555 1_555
C55 C54 1_555 1_555
N2 C51 1_555 1_555
C56 C55 1_555 1_555
C57 C56 1_555 1_555
H40 C57 1_555 1_555
C58 C57 1_555 1_555
H41 C58 1_555 1_555
N3 Co1 1_555 1_555
C59 N3 1_555 1_555
H42 C59 1_555 1_555
C60 C56 1_555 1_555
H43 C60 1_555 1_555
C61 C53 1_555 1_555
C62 C61 1_555 1_555
H44 C62 1_555 1_555
C63 C62 1_555 1_555
H45 C63 1_555 1_555
C64 C63 1_555 1_555
H46 C64 1_555 1_555
N4 Co2 1_555 1_555
C65 C61 1_555 1_555
H47 C65 1_555 1_555
O7 H48 1_555 1_555
C66 O7 1_555 1_555
H49 C66 1_555 1_555
H50 C66 1_555 1_555
H51 C66 1_555 1_555
O8 H52 1_555 1_555
C67 O8 1_555 1_555
H53 C67 1_555 1_555
H54 C67 1_555 1_555
H55 C67 1_555 1_555
C68 C69 1_555 1_555
C69 H56 1_555 1_555
C70 C69 1_555 1_555
H57 C70 1_555 1_555
C71 C70 1_555 1_555
H58 C71 1_555 1_555
C72 C71 1_555 1_555
H59 C72 1_555 1_555
C73 C68 1_555 1_555
H60 C73 1_555 1_555
N5 C68 1_555 1_555
O9 N5 1_555 1_555
O10 N5 1_555 1_555
C16A C17A 1_555 1_555
C17A H12A 1_555 1_555
C18A C17A 1_555 1_555
H13A C18A 1_555 1_555
C19A C18A 1_555 1_555
H14A C19A 1_555 1_555
C20A C19A 1_555 1_555
H15A C20A 1_555 1_555
C21A C16A 1_555 1_555
H16A C21A 1_555 1_555
C22A C16A 1_555 1_555
C23A C22A 1_555 1_555
H17A C23A 1_555 1_555
C24A C23A 1_555 1_555
C25A C24A 1_555 1_555
C26A C25A 1_555 1_555
H18A C26A 1_555 1_555
C27A C26A 1_555 1_555
H19A C27A 1_555 1_555
C28A C27A 1_555 1_555
H20A C28A 1_555 1_555
C29A C28A 1_555 1_555
H21A C29A 1_555 1_555
C30A C25A 1_555 1_555
H22A C30A 1_555 1_555
O3A Co2 1_555 1_555
O4A Co2 1_555 1_555
N1A C46A 1_555 1_555
C46A H34A 1_555 1_555
C47A C46A 1_555 1_555
H35A C47A 1_555 1_555
C48A C47A 1_555 1_555
C49A C48A 1_555 1_555
H36A C49A 1_555 1_555
C50A N1A 1_555 1_555
H37A C50A 1_555 1_555
C51A C48A 1_555 1_555
C52A C51A 1_555 1_555
H38A C52A 1_555 1_555
C53A C52A 1_555 1_555
C54A C53A 1_555 1_555
H39A C54A 1_555 1_555
C55A C54A 1_555 1_555
N2A C51A 1_555 1_555
C56A C55A 1_555 1_555
C57A C56A 1_555 1_555
H40A C57A 1_555 1_555
C58A C57A 1_555 1_555
H41A C58A 1_555 1_555
N3A C58A 1_555 1_555
C59A N3A 1_555 1_555
H42A C59A 1_555 1_555
C60A C56A 1_555 1_555
H43A C60A 1_555 1_555
C61A C53A 1_555 1_555
C62A C61A 1_555 1_555
H44A C62A 1_555 1_555
C63A C62A 1_555 1_555
H45A C63A 1_555 1_555
C64A C63A 1_555 1_555
H46A C64A 1_555 1_555
N4A Co2 1_555 1_555
C65A C61A 1_555 1_555
H47A C65A 1_555 1_555
C1A C2A 1_555 1_555
C2A H1A 1_555 1_555
C3A C2A 1_555 1_555
H2A C3A 1_555 1_555
C4A C3A 1_555 1_555
H3A C4A 1_555 1_555
C5A C4A 1_555 1_555
H4A C5A 1_555 1_555
C6A C1A 1_555 1_555
H5A C6A 1_555 1_555
C7A C1A 1_555 1_555
C8A C7A 1_555 1_555
H6A C8A 1_555 1_555
C9A C8A 1_555 1_555
C10A C9A 1_555 1_555
C11A C10A 1_555 1_555
H7A C11A 1_555 1_555
C12A C11A 1_555 1_555
H8A C12A 1_555 1_555
C13A C12A 1_555 1_555
H9A C13A 1_555 1_555
C14A C13A 1_555 1_555
H10A C14A 1_555 1_555
C15A C10A 1_555 1_555
H11A C15A 1_555 1_555
O1A Co1 1_555 1_555
O2A Co1 1_555 1_555
C31A C32A 1_555 1_555
C32A H23A 1_555 1_555
C33A C32A 1_555 1_555
H24A C33A 1_555 1_555
C34A C33A 1_555 1_555
H25A C34A 1_555 1_555
C35A C34A 1_555 1_555
H26A C35A 1_555 1_555
C36A C31A 1_555 1_555
H27A C36A 1_555 1_555
C37A C31A 1_555 1_555
C38A C37A 1_555 1_555
H28A C38A 1_555 1_555
C39A C38A 1_555 1_555
C40A C39A 1_555 1_555
C41A C40A 1_555 1_555
H29A C41A 1_555 1_555
C42A C41A 1_555 1_555
H30A C42A 1_555 1_555
C43A C42A 1_555 1_555
H31A C43A 1_555 1_555
C44A C43A 1_555 1_555
H32A C44A 1_555 1_555
C45A C40A 1_555 1_555
H33A C45A 1_555 1_555
O5A Co3 1_555 1_555
O6A Co3 1_555 1_555
Co1_2 N3A 1_555 1_555
Co3_2 N1A 1_555 1_555
N1A_2 Co3 1_555 1_555
N3A_2 Co1 1_555 1_555
C5 C6 1_555 1_555
C14 C15 1_555 1_555
O2 Co1 1_555 1_555
C20 C21 1_555 1_555
C29 C30 1_555 1_555
O4 Co2 1_555 1_555
C35 C36 1_555 1_555
C44 C45 1_555 1_555
O6 Co3 1_555 1_555
C49 C50 1_555 1_555
C55 N2 1_555 1_555
C58 N3 1_555 1_555
C59 C60 1_555 1_555
C64 N4 1_555 1_555
N4 C65 1_555 1_555
C72 C73 1_555 1_555
C20A C21A 1_555 1_555
C22A O3A 1_555 1_555
C24A O4A 1_555 1_555
C29A C30A 1_555 1_555
C49A C50A 1_555 1_555
C55A N2A 1_555 1_555
C59A C60A 1_555 1_555
C64A N4A 1_555 1_555
N4A C65A 1_555 1_555
C5A C6A 1_555 1_555
C7A O1A 1_555 1_555
C9A O2A 1_555 1_555
C14A C15A 1_555 1_555
C35A C36A 1_555 1_555
C37A O6A 1_555 1_555
C39A O5A 1_555 1_555
C44A C45A 1_555 1_555

#END
