
#######################################################################
#
#                 Cambridge Crystallographic Data Centre
#                                CCDC 
#
#######################################################################
#
# If this CIF has been generated from an entry in the Cambridge 
# Structural Database, then it will include bibliographic, chemical, 
# crystal, experimental, refinement or atomic coordinate data resulting 
# from the CCDC's data processing and validation procedures.
#
#######################################################################

data_GIXMOR
_symmetry_cell_setting           tetragonal
_symmetry_space_group_name_H-M   'P 43 21 2'
_symmetry_Int_Tables_number      96
_space_group_name_Hall           'P 4nw 2abw'
loop_
_symmetry_equiv_pos_site_id
_symmetry_equiv_pos_as_xyz
1 x,y,z
2 -x,-y,1/2+z
3 1/2-y,1/2+x,3/4+z
4 1/2+y,1/2-x,1/4+z
5 1/2-x,1/2+y,3/4-z
6 1/2+x,1/2-y,1/4-z
7 y,x,-z
8 -y,-x,1/2-z
_cell_length_a                   8.6027(2)
_cell_length_b                   8.6027(2)
_cell_length_c                   43.7712(10)
_cell_angle_alpha                90
_cell_angle_beta                 90
_cell_angle_gamma                90
_cell_volume                     3239.35
loop_
_atom_site_label
_atom_site_type_symbol
_atom_site_fract_x
_atom_site_fract_y
_atom_site_fract_z
Cu1 Cu 0.51466(5) 0.84955(5) 0.142439(9)
O1 O 0.5279(3) 0.6229(3) 0.14253(6)
O2 O 0.7603(3) 0.6244(3) 0.11993(7)
C1 C 0.6440(5) 0.5576(4) 0.12996(8)
C2 C 0.6306(5) 0.3798(4) 0.12789(9)
H1 H 0.5201 0.3554 0.1227
O3 O 0.7249(4) 0.3155(4) 0.10431(7)
H2 H 0.8129 0.3578 0.1046
C3 C 0.6636(6) 0.3069(4) 0.15885(9)
H3 H 0.7690 0.3371 0.1657
H4 H 0.5878 0.3461 0.1740
C4 C 0.6528(5) 0.1311(4) 0.15699(8)
O4 O 0.5262(3) 0.0778(3) 0.14554(6)
O5 O 0.7616(4) 0.0464(4) 0.16514(8)
N1 N 0.4684(4) 0.8425(4) 0.18771(7)
C5 C 0.3506(5) 0.9255(5) 0.19896(9)
H5 H 0.2827 0.9760 0.1850
C6 C 0.3224(5) 0.9419(5) 0.22989(9)
H6 H 0.2360 1.0010 0.2368
C7 C 0.4224(5) 0.8705(5) 0.25106(9)
C8 C 0.5419(6) 0.7801(7) 0.23900(9)
H7 H 0.6110 0.7263 0.2522
C9 C 0.5597(6) 0.7689(7) 0.20752(9)
H8 H 0.6411 0.7056 0.1998
C10 C 0.4555(5) 0.8257(5) 0.33669(8)
H9 H 0.5086 0.7611 0.3509
C11 C 0.4758(5) 0.7986(5) 0.30561(8)
H10 H 0.5419 0.7171 0.2989
C12 C 0.3987(5) 0.8919(5) 0.28445(9)
C13 C 0.3002(5) 1.0060(5) 0.29600(9)
H11 H 0.2427 1.0701 0.2824
C14 C 0.2858(5) 1.0261(5) 0.32730(9)
H12 H 0.2179 1.1044 0.3348
N2 N 0.3647(4) 0.9386(4) 0.34731(7)
Cu1_2 Cu 0.51466(5) -0.15045(5) 0.142439(9)
Cu1C Cu 0.34955(5) 0.98534(5) 0.392439(9)
Cu1E Cu 1.01466(5) 0.65045(5) 0.107561(9)
O2E O 0.2603(3) 0.8756(3) 0.13007(7)
O4_2 O 0.5262(3) 1.0778(3) 0.14554(6)
N2B N 0.5614(4) 0.8647(4) 0.09731(7)
O6 O 1.0141(6) 0.1511(8) 0.19721(11)
loop_
_geom_bond_atom_site_label_1
_geom_bond_atom_site_label_2
_geom_bond_site_symmetry_1
_geom_bond_site_symmetry_2
Cu1 O1 1_555 1_555
O1 C1 1_555 1_555
O2 C1 1_555 1_555
C1 C2 1_555 1_555
C2 H1 1_555 1_555
O3 C2 1_555 1_555
H2 O3 1_555 1_555
C3 C2 1_555 1_555
H3 C3 1_555 1_555
H4 C3 1_555 1_555
C4 C3 1_555 1_555
O4 C4 1_555 1_555
O5 C4 1_555 1_555
N1 Cu1 1_555 1_555
C5 N1 1_555 1_555
H5 C5 1_555 1_555
C6 C5 1_555 1_555
H6 C6 1_555 1_555
C7 C6 1_555 1_555
C8 C7 1_555 1_555
H7 C8 1_555 1_555
C9 N1 1_555 1_555
H8 C9 1_555 1_555
C10 H9 1_555 1_555
C11 C10 1_555 1_555
H10 C11 1_555 1_555
C12 C7 1_555 1_555
C13 C12 1_555 1_555
H11 C13 1_555 1_555
C14 C13 1_555 1_555
H12 C14 1_555 1_555
N2 C10 1_555 1_555
Cu1_2 O4 1_555 1_555
Cu1C N2 1_555 1_555
Cu1E O2 1_555 1_555
O2E Cu1 1_555 1_555
O4_2 Cu1 1_555 1_555
N2B Cu1 1_555 1_555
C8 C9 1_555 1_555
C11 C12 1_555 1_555
C14 N2 1_555 1_555

#END
