
#######################################################################
#
#                 Cambridge Crystallographic Data Centre
#                                CCDC 
#
#######################################################################
#
# If this CIF has been generated from an entry in the Cambridge 
# Structural Database, then it will include bibliographic, chemical, 
# crystal, experimental, refinement or atomic coordinate data resulting 
# from the CCDC's data processing and validation procedures.
#
#######################################################################

data_GIXNAE
_symmetry_cell_setting           orthorhombic
_symmetry_space_group_name_H-M   'P 21 21 21'
_symmetry_Int_Tables_number      19
_space_group_name_Hall           'P 2ac 2ab'
loop_
_symmetry_equiv_pos_site_id
_symmetry_equiv_pos_as_xyz
1 x,y,z
2 1/2-x,-y,1/2+z
3 -x,1/2+y,1/2-z
4 1/2+x,1/2-y,-z
_cell_length_a                   9.9916(7)
_cell_length_b                   16.3601(14)
_cell_length_c                   16.5344(14)
_cell_angle_alpha                90
_cell_angle_beta                 90
_cell_angle_gamma                90
_cell_volume                     2702.77
loop_
_atom_site_label
_atom_site_type_symbol
_atom_site_fract_x
_atom_site_fract_y
_atom_site_fract_z
Ni1 Ni 0.31089(12) 0.21375(8) 0.54656(8)
O1 O 0.4925(5) 0.2313(4) 0.4841(4)
O2 O 0.6293(6) 0.2920(4) 0.3944(4)
C1 C 0.5168(9) 0.2662(5) 0.4174(5)
C2 C 0.4061(9) 0.2847(9) 0.3563(7)
H1 H 0.4309 0.2611 0.3033
H2 H 0.3983 0.3447 0.3496
C3 C 0.2697(11) 0.2500(9) 0.3826(7)
H3 H 0.2017 0.2650 0.3408
O3 O 0.2348(5) 0.2915(5) 0.4583(4)
H4 H 0.135(2) 0.2955(15) 0.465(4)
C4 C 0.2712(12) 0.1598(10) 0.3909(8)
O4 O 0.2859(10) 0.1182(7) 0.3295(6)
O5 O 0.2618(7) 0.1297(4) 0.4612(5)
N1 N 0.6120(7) 0.6255(5) 0.8777(5)
N2 N 0.3616(8) 0.3119(5) 0.6219(5)
C5 C 0.6808(11) 0.5988(6) 0.8108(7)
H5 H 0.7672 0.6207 0.8005
C6 C 0.6297(12) 0.5415(7) 0.7580(7)
H6 H 0.6757 0.5291 0.7092
C7 C 0.5060(9) 0.5005(5) 0.7772(6)
C8 C 0.4468(11) 0.5207(6) 0.8490(7)
H7 H 0.3681 0.4930 0.8660
C9 C 0.5014(10) 0.5815(6) 0.8969(7)
H8 H 0.4583 0.5933 0.9468
C10 C 0.4516(9) 0.4363(5) 0.7224(6)
C11 C 0.3810(17) 0.3725(9) 0.7490(8)
H9 H 0.3623 0.3684 0.8052
C12 C 0.3358(17) 0.3142(8) 0.6994(8)
H10 H 0.2817 0.2721 0.7217
C13 C 0.4216(11) 0.3779(6) 0.5929(7)
H11 H 0.4317 0.3818 0.5359
C14 C 0.4717(11) 0.4431(6) 0.6403(6)
H12 H 0.5164 0.4886 0.6170
Ni1B Ni 0.68911(12) 0.71375(8) 0.95344(8)
Ni1C Ni 0.81089(12) 0.28625(8) 0.45344(8)
O2C O 0.1293(6) 0.2080(4) 0.6056(4)
N1B N 0.3880(7) 0.1255(5) 0.6223(5)
C15 C 0.466(6) 0.521(3) 0.329(2)
H13 H 0.4757 0.5792 0.3146
H14 H 0.3957 0.4968 0.2952
H15 H 0.5506 0.4929 0.3194
O6 O 0.432(5) 0.515(2) 0.406(2)
H16 H 0.5020 0.5134 0.4345
C16 C 0.572(4) 0.000(4) 0.387(5)
H17 H 0.6201 0.0241 0.3415
H18 H 0.6173 -0.0504 0.4041
H19 H 0.5705 0.0386 0.4324
O7 O 0.450(3) -0.017(2) 0.366(3)
H20 H 0.4105 0.0264 0.3527
C17 C 0.783(4) 0.581(2) 0.478(2)
H21 H 0.7705 0.6393 0.4866
H22 H 0.7441 0.5649 0.4259
H23 H 0.8785 0.5676 0.4784
O8 O 0.724(3) 0.5410(14) 0.5349(18)
H24 H 0.7799 0.5295 0.5712
C18 C 0.699(6) 0.322(3) 0.150(4)
H25 H 0.6885 0.3648 0.1914
H26 H 0.7230 0.3476 0.0984
H27 H 0.7690 0.2840 0.1666
O9 O 0.586(5) 0.283(3) 0.142(3)
H28 H 0.5956 0.2350 0.1588
C19 C 0.253(7) 0.273(4) 0.172(3)
H29 H 0.3312 0.2786 0.2071
H30 H 0.2785 0.2823 0.1158
H31 H 0.2166 0.2172 0.1776
O10 O 0.163(5) 0.325(3) 0.193(2)
H32 H 0.1167 0.3056 0.2312
loop_
_geom_bond_atom_site_label_1
_geom_bond_atom_site_label_2
_geom_bond_site_symmetry_1
_geom_bond_site_symmetry_2
Ni1 O1 1_555 1_555
O1 C1 1_555 1_555
O2 C1 1_555 1_555
C1 C2 1_555 1_555
C2 H1 1_555 1_555
H2 C2 1_555 1_555
C3 C2 1_555 1_555
H3 C3 1_555 1_555
O3 Ni1 1_555 1_555
H4 O3 1_555 1_555
C4 C3 1_555 1_555
O4 C4 1_555 1_555
O5 Ni1 1_555 1_555
N1 C5 1_555 1_555
N2 Ni1 1_555 1_555
C5 H5 1_555 1_555
C6 C5 1_555 1_555
H6 C6 1_555 1_555
C7 C6 1_555 1_555
C8 C7 1_555 1_555
H7 C8 1_555 1_555
C9 N1 1_555 1_555
H8 C9 1_555 1_555
C10 C7 1_555 1_555
C11 C10 1_555 1_555
H9 C11 1_555 1_555
C12 N2 1_555 1_555
H10 C12 1_555 1_555
C13 N2 1_555 1_555
H11 C13 1_555 1_555
C14 C10 1_555 1_555
H12 C14 1_555 1_555
C15 H13 1_555 1_555
H14 C15 1_555 1_555
H15 C15 1_555 1_555
O6 C15 1_555 1_555
H16 O6 1_555 1_555
C16 H17 1_555 1_555
H18 C16 1_555 1_555
H19 C16 1_555 1_555
O7 C16 1_555 1_555
H20 O7 1_555 1_555
C17 H21 1_555 1_555
H22 C17 1_555 1_555
H23 C17 1_555 1_555
O8 C17 1_555 1_555
H24 O8 1_555 1_555
C18 H25 1_555 1_555
H26 C18 1_555 1_555
H27 C18 1_555 1_555
O9 C18 1_555 1_555
H28 O9 1_555 1_555
C19 H29 1_555 1_555
H30 C19 1_555 1_555
H31 C19 1_555 1_555
O10 C19 1_555 1_555
H32 O10 1_555 1_555
Ni1B N1 1_555 1_555
Ni1C O2 1_555 1_555
O2C Ni1 1_555 1_555
N1B Ni1 1_555 1_555
C3 O3 1_555 1_555
C4 O5 1_555 1_555
C8 C9 1_555 1_555
C11 C12 1_555 1_555
C13 C14 1_555 1_555

#END
