
#######################################################################
#
#                 Cambridge Crystallographic Data Centre
#                                CCDC 
#
#######################################################################
#
# If this CIF has been generated from an entry in the Cambridge 
# Structural Database, then it will include bibliographic, chemical, 
# crystal, experimental, refinement or atomic coordinate data resulting 
# from the CCDC's data processing and validation procedures.
#
#######################################################################

data_GIXPEK
_symmetry_cell_setting           triclinic
_symmetry_space_group_name_H-M   'P -1'
_symmetry_Int_Tables_number      2
_space_group_name_Hall           '-P 1'
loop_
_symmetry_equiv_pos_site_id
_symmetry_equiv_pos_as_xyz
1 x,y,z
2 -x,-y,-z
_cell_length_a                   6.8309(5)
_cell_length_b                   7.8300(6)
_cell_length_c                   17.8331(13)
_cell_angle_alpha                87.225(4)
_cell_angle_beta                 86.004(4)
_cell_angle_gamma                67.693(4)
_cell_volume                     880.045
loop_
_atom_site_label
_atom_site_type_symbol
_atom_site_fract_x
_atom_site_fract_y
_atom_site_fract_z
Cu1 Cu 0.5000 1.0000 0.0000
N1 N 0.2094(5) 1.1736(4) -0.01543(16)
O1 O 0.3628(4) 0.9206(4) 0.08758(15)
O2 O 0.0538(4) 0.9924(4) 0.15277(15)
O3 O -0.4306(5) 1.2082(4) 0.09615(17)
O4 O -0.3127(5) 1.3897(4) 0.15648(16)
C1 C 0.0680(5) 1.1629(5) 0.03984(19)
C2 C -0.1434(5) 1.2775(5) 0.03955(19)
C3 C -0.2079(6) 1.3983(6) -0.0224(2)
H1 H -0.3498 1.4751 -0.0251
C4 C -0.0635(6) 1.4047(5) -0.0793(2)
H2 H -0.1063 1.4832 -0.1209
C5 C 0.1470(6) 1.2910(5) -0.0728(2)
H3 H 0.2472 1.2974 -0.1097
C6 C -0.3075(6) 1.2887(5) 0.1038(2)
C7 C 0.1640(6) 1.0156(5) 0.09892(19)
N1A N -0.2094(5) 0.8264(4) 0.01543(16)
O1A O -0.3628(4) 1.0794(4) -0.08758(15)
O2A O -0.0538(4) 1.0076(4) -0.15277(15)
O3A O 0.4306(5) 0.7918(4) -0.09615(17)
O4A O 0.3127(5) 0.6103(4) -0.15648(16)
C1A C -0.0680(5) 0.8371(5) -0.03984(19)
C2A C 0.1434(5) 0.7225(5) -0.03955(19)
C3A C 0.2079(6) 0.6017(6) 0.0224(2)
H1A H 0.3498 0.5249 0.0251
C4A C 0.0635(6) 0.5953(5) 0.0793(2)
H2A H 0.1063 0.5168 0.1209
C5A C -0.1470(6) 0.7090(5) 0.0728(2)
H3A H -0.2472 0.7026 0.1097
C6A C 0.3075(6) 0.7113(5) -0.1038(2)
C7A C -0.1640(6) 0.9844(5) -0.09892(19)
Cu1_2 Cu -0.5000 1.0000 0.0000
N1A_2 N 0.7906(5) 0.8264(4) 0.01543(16)
O1A_2 O 0.6372(4) 1.0794(4) -0.08758(15)
O3_2 O 0.5694(5) 1.2082(4) 0.09615(17)
Cu2 Cu 0.0000 0.5000 0.5000
N2 N 0.7059(5) 0.6710(4) 0.51722(16)
O5 O 0.5973(4) 0.5239(4) 0.34703(15)
O6 O 0.8877(4) 0.4348(4) 0.41174(15)
O7 O 0.2197(5) 0.9176(4) 0.34918(16)
O8 O 0.1009(4) 0.7165(4) 0.41051(16)
C8 C 0.5805(5) 0.6716(5) 0.46189(19)
C9 C 0.3684(5) 0.7876(5) 0.46338(19)
C10 C 0.2888(6) 0.9009(5) 0.5257(2)
H4 H 0.1471 0.9802 0.5288
C11 C 0.4174(6) 0.8962(5) 0.5823(2)
H5 H 0.3639 0.9700 0.6240
C12 C 0.6283(6) 0.7795(5) 0.5757(2)
H6 H 0.7176 0.7771 0.6132
C13 C 0.2201(5) 0.8063(5) 0.4014(2)
C14 C 0.6940(6) 0.5343(5) 0.40131(19)
N2A N -0.7059(5) 0.3290(4) 0.48278(16)
O5A O -0.5973(4) 0.4761(4) 0.65297(15)
O6A O -0.8877(4) 0.5652(4) 0.58826(15)
O7A O -0.2197(5) 0.0824(4) 0.65082(16)
O8A O -0.1009(4) 0.2835(4) 0.58949(16)
C8A C -0.5805(5) 0.3284(5) 0.53811(19)
C9A C -0.3684(5) 0.2124(5) 0.53662(19)
C10A C -0.2888(6) 0.0991(5) 0.4743(2)
H4A H -0.1471 0.0198 0.4712
C11A C -0.4174(6) 0.1038(5) 0.4177(2)
H5A H -0.3639 0.0300 0.3760
C12A C -0.6283(6) 0.2205(5) 0.4243(2)
H6A H -0.7176 0.2229 0.3868
C13A C -0.2201(5) 0.1937(5) 0.5986(2)
C14A C -0.6940(6) 0.4657(5) 0.59869(19)
Cu2_2 Cu -1.0000 0.5000 0.5000
Cu2_3 Cu 1.0000 0.5000 0.5000
N2_2 N -0.2941(5) 0.6710(4) 0.51722(16)
N2A_2 N 0.2941(5) 0.3290(4) 0.48278(16)
O6_2 O -0.1123(4) 0.4348(4) 0.41174(15)
O6A_2 O 0.1123(4) 0.5652(4) 0.58826(15)
K1 K 0.41168(14) 0.71272(13) 0.22444(5)
K2 K -0.08776(16) 1.21217(14) 0.27900(5)
O9 O 0.0867(7) 0.5895(6) 0.2706(2)
H7 H 0.156(9) 0.477(3) 0.269(3)
H8 H 0.079(15) 0.612(9) 0.3155(16)
O10 O 0.7184(7) 0.8987(7) 0.2377(2)
H9 H 0.754(10) 0.940(8) 0.199(2)
H10 H 0.815(10) 0.803(8) 0.247(4)
O11 O 0.3155(7) 1.2185(6) 0.2289(2)
H11 H 0.377(10) 1.227(9) 0.188(2)
H12 H 0.384(12) 1.116(6) 0.246(4)
loop_
_geom_bond_atom_site_label_1
_geom_bond_atom_site_label_2
_geom_bond_site_symmetry_1
_geom_bond_site_symmetry_2
Cu1 N1 1_555 1_555
N1 C1 1_555 1_555
O1 Cu1 1_555 1_555
O2 C7 1_555 1_555
O3 C6 1_555 1_555
O4 C6 1_555 1_555
C1 C2 1_555 1_555
C2 C3 1_555 1_555
C3 H1 1_555 1_555
C4 C3 1_555 1_555
H2 C4 1_555 1_555
C5 N1 1_555 1_555
H3 C5 1_555 1_555
C6 C2 1_555 1_555
C7 O1 1_555 1_555
Cu2 O8 1_555 1_555
N2 C8 1_555 1_555
O5 C14 1_555 1_555
O6 C14 1_555 1_555
O7 C13 1_555 1_555
O8 C13 1_555 1_555
C8 C9 1_555 1_555
C9 C10 1_555 1_555
C10 H4 1_555 1_555
C11 C10 1_555 1_555
H5 C11 1_555 1_555
C12 N2 1_555 1_555
H6 C12 1_555 1_555
C13 C9 1_555 1_555
C14 C8 1_555 1_555
O9 H7 1_555 1_555
H8 O9 1_555 1_555
O10 H9 1_555 1_555
H10 O10 1_555 1_555
O11 H11 1_555 1_555
H12 O11 1_555 1_555
N1A C1A 1_555 1_555
O1A C7A 1_555 1_555
O2A C7A 1_555 1_555
O3A Cu1 1_555 1_555
O4A C6A 1_555 1_555
C1A C2A 1_555 1_555
C2A C3A 1_555 1_555
C3A H1A 1_555 1_555
C4A C3A 1_555 1_555
H2A C4A 1_555 1_555
C5A N1A 1_555 1_555
H3A C5A 1_555 1_555
C6A O3A 1_555 1_555
C7A C1A 1_555 1_555
Cu1_2 O3 1_555 1_555
N1A_2 Cu1 1_555 1_555
O1A_2 Cu1 1_555 1_555
O3_2 Cu1 1_555 1_555
N2A C8A 1_555 1_555
O5A C14A 1_555 1_555
O6A C14A 1_555 1_555
O7A C13A 1_555 1_555
O8A Cu2 1_555 1_555
C8A C9A 1_555 1_555
C9A C10A 1_555 1_555
C10A H4A 1_555 1_555
C11A C10A 1_555 1_555
H5A C11A 1_555 1_555
C12A N2A 1_555 1_555
H6A C12A 1_555 1_555
C13A O8A 1_555 1_555
C14A C8A 1_555 1_555
Cu2_2 N2A 1_555 1_555
Cu2_3 N2 1_555 1_555
N2_2 Cu2 1_555 1_555
N2A_2 Cu2 1_555 1_555
O6_2 Cu2 1_555 1_555
O6A_2 Cu2 1_555 1_555
C1 C7 1_555 1_555
C4 C5 1_555 1_555
O6 Cu2_3 1_555 1_555
C11 C12 1_555 1_555
N1A Cu1_2 1_555 1_555
O1A Cu1_2 1_555 1_555
C2A C6A 1_555 1_555
C4A C5A 1_555 1_555
O6A Cu2_2 1_555 1_555
C9A C13A 1_555 1_555
C11A C12A 1_555 1_555

#END
