
#######################################################################
#
#                 Cambridge Crystallographic Data Centre
#                                CCDC 
#
#######################################################################
#
# If this CIF has been generated from an entry in the Cambridge 
# Structural Database, then it will include bibliographic, chemical, 
# crystal, experimental, refinement or atomic coordinate data resulting 
# from the CCDC's data processing and validation procedures.
#
#######################################################################

data_GIXPAG
_symmetry_cell_setting           monoclinic
_symmetry_space_group_name_H-M   'P 21/c'
_symmetry_Int_Tables_number      14
_space_group_name_Hall           '-P 2ybc'
loop_
_symmetry_equiv_pos_site_id
_symmetry_equiv_pos_as_xyz
1 x,y,z
2 -x,1/2+y,1/2-z
3 -x,-y,-z
4 x,1/2-y,1/2+z
_cell_length_a                   7.3756(8)
_cell_length_b                   11.4198(11)
_cell_length_c                   16.822(2)
_cell_angle_alpha                90
_cell_angle_beta                 97.047(7)
_cell_angle_gamma                90
_cell_volume                     1406.18
loop_
_atom_site_label
_atom_site_type_symbol
_atom_site_fract_x
_atom_site_fract_y
_atom_site_fract_z
Zn1 Zn 0.62228(4) 0.82907(3) 0.602351(18)
O1 O 0.8625(2) 0.76317(15) 0.65576(11)
O2 O 0.9015(3) 0.89488(19) 0.75324(13)
O3 O 1.1074(3) 0.9650(2) 0.60997(15)
O4 O 1.3803(3) 0.92717(19) 0.57387(13)
N1 N 0.5814(4) 0.7159(2) 0.50906(15)
O5 O 0.7467(3) 0.97431(18) 0.56842(14)
N2 N 1.4610(3) 0.7778(2) 0.69148(13)
C1 C 0.4251(5) 0.6640(3) 0.4854(2)
H1 H 0.3167 0.6746 0.5098
C2 C 0.6125(6) 0.6020(3) 0.4041(2)
H2 H 0.6616 0.5620 0.3621
C3 C 0.9585(3) 0.8188(2) 0.71140(15)
C4 C 1.1558(3) 0.7786(2) 0.72639(15)
C5 C 1.2059(4) 0.6951(3) 0.78484(18)
H3 H 1.1183 0.6654 0.8166
C6 C 1.3846(4) 0.6555(3) 0.79660(19)
H4 H 1.4212 0.5989 0.8367
C7 C 1.5080(4) 0.6991(3) 0.74950(18)
H5 H 1.6310 0.6727 0.7583
C8 C 1.2888(3) 0.8183(2) 0.68146(15)
C9 C 1.2524(4) 0.9115(2) 0.61646(17)
N3 N 0.4385(5) 0.5951(3) 0.42314(19)
H6 H 0.3501 0.5521 0.3982
C10 C 0.7006(5) 0.6772(3) 0.4570(2)
C11 C 0.8961(6) 0.7203(5) 0.4599(3)
H7 H 0.9232 0.7747 0.5049
H8 H 0.9113 0.7606 0.4097
H9 H 0.9799 0.6535 0.4670
H10 H 0.719(5) 1.001(3) 0.527(2)
H11 H 0.865(6) 0.973(4) 0.580(2)
Zn1_2 Zn 1.62228(4) 0.82907(3) 0.602351(18)
O4_2 O 0.3803(3) 0.92717(19) 0.57387(13)
N2_2 N 0.4610(3) 0.7778(2) 0.69148(13)
O6 O 0.8614(5) 0.5215(2) 0.6455(3)
H12 H 0.891(7) 0.5906(15) 0.647(3)
H13 H 0.924(6) 0.492(3) 0.684(2)
loop_
_geom_bond_atom_site_label_1
_geom_bond_atom_site_label_2
_geom_bond_site_symmetry_1
_geom_bond_site_symmetry_2
Zn1 O1 1_555 1_555
O1 C3 1_555 1_555
O2 C3 1_555 1_555
O3 C9 1_555 1_555
O4 C9 1_555 1_555
N1 Zn1 1_555 1_555
O5 Zn1 1_555 1_555
N2 C7 1_555 1_555
C1 N1 1_555 1_555
H1 C1 1_555 1_555
C2 H2 1_555 1_555
C3 C4 1_555 1_555
C4 C5 1_555 1_555
C5 H3 1_555 1_555
C6 C5 1_555 1_555
H4 C6 1_555 1_555
C7 C6 1_555 1_555
H5 C7 1_555 1_555
C8 N2 1_555 1_555
C9 C8 1_555 1_555
N3 C1 1_555 1_555
H6 N3 1_555 1_555
C10 N1 1_555 1_555
C11 C10 1_555 1_555
H7 C11 1_555 1_555
H8 C11 1_555 1_555
H9 C11 1_555 1_555
H10 O5 1_555 1_555
H11 O5 1_555 1_555
O6 H12 1_555 1_555
H13 O6 1_555 1_555
Zn1_2 O4 1_555 1_555
O4_2 Zn1 1_555 1_555
N2_2 Zn1 1_555 1_555
N2 Zn1_2 1_555 1_555
C2 N3 1_555 1_555
C2 C10 1_555 1_555
C4 C8 1_555 1_555

#END
