
#######################################################################
#
#                 Cambridge Crystallographic Data Centre
#                                CCDC 
#
#######################################################################
#
# If this CIF has been generated from an entry in the Cambridge 
# Structural Database, then it will include bibliographic, chemical, 
# crystal, experimental, refinement or atomic coordinate data resulting 
# from the CCDC's data processing and validation procedures.
#
#######################################################################

data_GIXSEN
_symmetry_cell_setting           monoclinic
_symmetry_space_group_name_H-M   'P 21/c'
_symmetry_Int_Tables_number      14
_space_group_name_Hall           '-P 2ybc'
loop_
_symmetry_equiv_pos_site_id
_symmetry_equiv_pos_as_xyz
1 x,y,z
2 -x,1/2+y,1/2-z
3 -x,-y,-z
4 x,1/2-y,1/2+z
_cell_length_a                   13.0649(16)
_cell_length_b                   11.0845(14)
_cell_length_c                   12.8884(16)
_cell_angle_alpha                90
_cell_angle_beta                 115.418(3)
_cell_angle_gamma                90
_cell_volume                     1685.8
loop_
_atom_site_label
_atom_site_type_symbol
_atom_site_fract_x
_atom_site_fract_y
_atom_site_fract_z
C1 C 0.2043(3) 0.0582(3) 0.7437(3)
C2 C 0.1962(3) 0.1414(3) 0.8209(3)
H1 H 0.1258 0.1687 0.8127
C3 C 0.2949(3) 0.1828(3) 0.9103(3)
C4 C 0.4014(3) 0.1428(3) 0.9257(3)
H2 H 0.4667 0.1714 0.9861
C5 C 0.4077(3) 0.0589(3) 0.8485(3)
H3 H 0.4780 0.0309 0.8573
C6 C 0.3099(3) 0.0168(3) 0.7586(3)
H4 H 0.3152 -0.0397 0.7079
C7 C 0.2157(3) 0.1196(3) 1.1297(3)
H5 H 0.1433 0.1328 1.0722
C8 C 0.3079(3) 0.1838(3) 1.1315(3)
C9 C 0.4169(3) 0.1681(3) 1.2166(3)
H6 H 0.4772 0.2127 1.2167
C10 C 0.4331(3) 0.0835(4) 1.3020(3)
H7 H 0.5055 0.0711 1.3599
C11 C 0.3435(3) 0.0173(3) 1.3023(3)
H8 H 0.3559 -0.0390 1.3599
C12 C 0.2340(3) 0.0356(3) 1.2156(3)
C13 C 0.2661(3) -0.2152(4) 1.0122(4)
N1 N 0.1410(3) -0.0318(3) 1.2163(3)
H9 H 0.0737 -0.0202 1.1635
H10 H 0.1523 -0.0840 1.2695
N2 N 0.1030(2) 0.0161(3) 0.6505(2)
H11 H 0.1071 -0.0356 0.6027
H12 H 0.0381 0.0426 0.6423
O1 O 0.1720(2) 0.3290(2) 0.9706(2)
O2 O 0.3802(2) 0.3649(2) 1.0509(2)
O3 O 0.0817(3) -0.3136(4) 0.9897(3)
O4 O 0.0884(3) -0.2323(3) 0.8192(2)
O5 O 0.0799(3) -0.0992(3) 0.9630(3)
F1 F 0.3091(3) -0.1174(5) 0.9888(4)
F2 F 0.3076(3) -0.3134(4) 0.9895(3)
F3 F 0.3025(2) -0.2143(3) 1.1258(2)
S1 S 0.11228(7) -0.21478(8) 0.93814(7)
S2 S 0.28665(7) 0.28202(7) 1.01487(6)
Ag1 Ag -0.03602(2) -0.04781(3) 0.69824(3)
N1B N -0.1410(3) 0.0318(3) 0.7837(3)
O1A O -0.1720(2) -0.1710(2) 0.5294(2)
Ag1A Ag 0.03602(2) 0.45219(3) 0.80176(3)
Ag1B Ag 0.03602(2) 0.04781(3) 1.30176(3)
loop_
_geom_bond_atom_site_label_1
_geom_bond_atom_site_label_2
_geom_bond_site_symmetry_1
_geom_bond_site_symmetry_2
C1 C2 1_555 1_555
C2 H1 1_555 1_555
C3 C2 1_555 1_555
C4 C3 1_555 1_555
H2 C4 1_555 1_555
C5 C4 1_555 1_555
H3 C5 1_555 1_555
C6 C1 1_555 1_555
H4 C6 1_555 1_555
C7 H5 1_555 1_555
C8 C7 1_555 1_555
C9 C8 1_555 1_555
H6 C9 1_555 1_555
C10 C9 1_555 1_555
H7 C10 1_555 1_555
C11 C10 1_555 1_555
H8 C11 1_555 1_555
C12 C7 1_555 1_555
C13 F1 1_555 1_555
N1 C12 1_555 1_555
H9 N1 1_555 1_555
H10 N1 1_555 1_555
N2 C1 1_555 1_555
H11 N2 1_555 1_555
H12 N2 1_555 1_555
O1 S2 1_555 1_555
O2 S2 1_555 1_555
O3 S1 1_555 1_555
O4 S1 1_555 1_555
O5 S1 1_555 1_555
F2 C13 1_555 1_555
F3 C13 1_555 1_555
S1 C13 1_555 1_555
S2 C3 1_555 1_555
Ag1 N2 1_555 1_555
N1B Ag1 1_555 1_555
O1A Ag1 1_555 1_555
Ag1A O1 1_555 1_555
Ag1B N1 1_555 1_555
C5 C6 1_555 1_555
C8 S2 1_555 1_555
C11 C12 1_555 1_555
O4 Ag1 1_555 1_555

#END
