
#######################################################################
#
#                 Cambridge Crystallographic Data Centre
#                                CCDC 
#
#######################################################################
#
# If this CIF has been generated from an entry in the Cambridge 
# Structural Database, then it will include bibliographic, chemical, 
# crystal, experimental, refinement or atomic coordinate data resulting 
# from the CCDC's data processing and validation procedures.
#
#######################################################################

data_GIXSIR
_symmetry_cell_setting           monoclinic
_symmetry_space_group_name_H-M   'C 2/m'
_symmetry_Int_Tables_number      12
_space_group_name_Hall           '-C 2y'
loop_
_symmetry_equiv_pos_site_id
_symmetry_equiv_pos_as_xyz
1 x,y,z
2 -x,y,-z
3 1/2+x,1/2+y,z
4 1/2-x,1/2+y,-z
5 -x,-y,-z
6 x,-y,z
7 1/2-x,1/2-y,-z
8 1/2+x,1/2-y,z
_cell_length_a                   12.776(5)
_cell_length_b                   24.629(13)
_cell_length_c                   6.529(3)
_cell_angle_alpha                90
_cell_angle_beta                 118.154(5)
_cell_angle_gamma                90
_cell_volume                     1811.34
loop_
_atom_site_label
_atom_site_type_symbol
_atom_site_fract_x
_atom_site_fract_y
_atom_site_fract_z
Ag1 Ag 1.0000 0.38939(2) 1.0000
S1 S 0.5000 0.24380(6) 1.0000
O1 O 0.4556(3) 0.21355(13) 0.7861(6)
N1 N 0.8567(4) 0.40776(15) 1.0903(7)
H1 H 0.9153 0.4147 1.2246
H2 H 0.8474 0.4262 0.9711
C1 C 0.7758(4) 0.36620(17) 1.0656(7)
C2 C 0.6120(4) 0.28811(17) 1.0221(7)
C3 C 0.7074(5) 0.2983(2) 1.2294(9)
H3 H 0.7176 0.2787 1.3594
C4 C 0.7896(5) 0.3369(2) 1.2524(9)
H4 H 0.8550 0.3430 1.3966
C5 C 0.6807(5) 0.3556(3) 0.8550(9)
H5 H 0.6706 0.3752 0.7250
C6 C 0.6002(6) 0.3166(3) 0.8331(9)
H6 H 0.5366 0.3093 0.6878
O1A O 0.5444(3) 0.21355(13) 1.2139(6)
N1A N 0.1433(4) 0.40776(15) 0.9097(7)
H1A H 0.0847 0.4147 0.7754
H2A H 0.1526 0.4262 1.0289
C1A C 0.2242(4) 0.36620(17) 0.9344(7)
C2A C 0.3880(4) 0.28811(17) 0.9779(7)
C3A C 0.2926(5) 0.2983(2) 0.7706(9)
H3A H 0.2824 0.2787 0.6406
C4A C 0.2104(5) 0.3369(2) 0.7476(9)
H4A H 0.1450 0.3430 0.6034
C5A C 0.3193(5) 0.3556(3) 1.1450(9)
H5A H 0.3294 0.3752 1.2750
C6A C 0.3998(6) 0.3166(3) 1.1669(9)
H6A H 0.4634 0.3093 1.3122
Ag1_2 Ag 0.0000 0.38939(2) 1.0000
N1A_2 N 1.1433(4) 0.40776(15) 0.9097(7)
S2 S 0.81846(16) 0.5000 1.5762(3)
O2 O 0.7938(6) 0.5000 1.7688(9)
O3 O 0.8710(4) 0.54868(15) 1.5510(6)
F1 F 0.6773(5) 0.5000 1.1292(9)
C7 C 0.6720(8) 0.5000 1.3275(18)
F2 F 0.6122(4) 0.4574(2) 1.3274(9)
O3E O 0.8710(4) 0.45132(15) 1.5510(6)
F2E F 0.6122(4) 0.5426(2) 1.3274(9)
loop_
_geom_bond_atom_site_label_1
_geom_bond_atom_site_label_2
_geom_bond_site_symmetry_1
_geom_bond_site_symmetry_2
Ag1 N1 1_555 1_555
S1 O1 1_555 1_555
N1 H1 1_555 1_555
H2 N1 1_555 1_555
C1 N1 1_555 1_555
C2 S1 1_555 1_555
C3 C2 1_555 1_555
H3 C3 1_555 1_555
C4 C1 1_555 1_555
H4 C4 1_555 1_555
C5 C1 1_555 1_555
H5 C5 1_555 1_555
C6 C2 1_555 1_555
H6 C6 1_555 1_555
S2 O2 1_555 1_555
O3 S2 1_555 1_555
F1 C7 1_555 1_555
C7 S2 1_555 1_555
F2 C7 1_555 1_555
O1A S1 1_555 1_555
N1A H1A 1_555 1_555
H2A N1A 1_555 1_555
C1A N1A 1_555 1_555
C2A S1 1_555 1_555
C3A C2A 1_555 1_555
H3A C3A 1_555 1_555
C4A C1A 1_555 1_555
H4A C4A 1_555 1_555
C5A C1A 1_555 1_555
H5A C5A 1_555 1_555
C6A C2A 1_555 1_555
H6A C6A 1_555 1_555
Ag1_2 N1A 1_555 1_555
N1A_2 Ag1 1_555 1_555
O3E S2 1_555 1_555
F2E C7 1_555 1_555
C3 C4 1_555 1_555
C5 C6 1_555 1_555
C3A C4A 1_555 1_555
C5A C6A 1_555 1_555

#END
