
#######################################################################
#
#                 Cambridge Crystallographic Data Centre
#                                CCDC 
#
#######################################################################
#
# If this CIF has been generated from an entry in the Cambridge 
# Structural Database, then it will include bibliographic, chemical, 
# crystal, experimental, refinement or atomic coordinate data resulting 
# from the CCDC's data processing and validation procedures.
#
#######################################################################

data_GIXSUC
_symmetry_cell_setting           monoclinic
_symmetry_space_group_name_H-M   'P 21/c'
_symmetry_Int_Tables_number      14
_space_group_name_Hall           '-P 2ybc'
loop_
_symmetry_equiv_pos_site_id
_symmetry_equiv_pos_as_xyz
1 x,y,z
2 -x,1/2+y,1/2-z
3 -x,-y,-z
4 x,1/2-y,1/2+z
_cell_length_a                   10.9359(7)
_cell_length_b                   24.5944(15)
_cell_length_c                   10.7990(7)
_cell_angle_alpha                90
_cell_angle_beta                 119.354(3)
_cell_angle_gamma                90
_cell_volume                     2531.6
loop_
_atom_site_label
_atom_site_type_symbol
_atom_site_fract_x
_atom_site_fract_y
_atom_site_fract_z
Ag1 Ag 0.67762(6) 0.02552(3) 0.11737(6)
Ag2 Ag 0.93120(6) -0.02496(3) 0.11507(6)
O1 O 0.7553(7) -0.0774(3) -0.0469(7)
O2 O 0.5725(6) -0.0514(3) -0.0197(7)
C1 C 0.6282(9) -0.0802(3) -0.0743(9)
C2 C 0.5435(9) -0.1255(4) -0.1738(9)
F1 F 0.4945(6) -0.1063(2) -0.3083(6)
F2 F 0.4314(5) -0.1388(2) -0.1611(7)
C3 C 0.6235(9) -0.1793(4) -0.1664(10)
F3 F 0.7085(6) -0.1713(3) -0.2198(7)
F4 F 0.5251(6) -0.2160(2) -0.2509(6)
C4 C 0.7097(10) -0.2040(4) -0.0156(11)
F5 F 0.8434(7) -0.1867(3) 0.0443(8)
F6 F 0.6567(9) -0.1887(3) 0.0661(7)
C5 C 0.7179(11) -0.2673(4) -0.0121(11)
F7 F 0.5986(7) -0.2885(3) -0.0337(8)
F8 F 0.7474(8) -0.2846(3) -0.1095(7)
F9 F 0.8187(6) -0.2831(3) 0.1136(7)
O3 O 0.8975(7) 0.0490(3) -0.0343(7)
O4 O 0.6945(7) 0.0753(3) -0.0500(8)
C6 C 0.7924(8) 0.0772(3) -0.0839(9)
C7 C 0.7713(9) 0.1237(4) -0.1856(10)
F10 F 0.6724(6) 0.1069(2) -0.3178(6)
F11 F 0.8898(6) 0.1326(2) -0.1920(7)
C8 C 0.7230(10) 0.1781(4) -0.1573(10)
F12 F 0.5917(6) 0.1748(2) -0.1807(7)
F13 F 0.7198(7) 0.2144(2) -0.2541(7)
C9 C 0.8126(13) 0.2007(4) -0.0020(12)
F14 F 0.7386(9) 0.1986(3) 0.0705(9)
F15 F 0.9268(7) 0.1686(2) 0.0677(7)
C10 C 0.8606(12) 0.2593(4) 0.0115(13)
F16 F 0.7564(7) 0.2928(3) -0.0473(9)
F17 F 0.9445(7) 0.2637(4) -0.0465(9)
F18 F 0.9362(7) 0.2715(3) 0.1489(7)
N1 N 0.9296(7) 0.0294(3) 0.6482(7)
C11 C 0.9650(8) 0.0640(3) 0.5724(9)
C12 C 0.8870(9) 0.0650(3) 0.4248(9)
N2 N 0.7768(7) 0.0315(3) 0.3552(8)
C13 C 0.7371(8) -0.0018(3) 0.4296(9)
C14 C 0.8166(9) -0.0025(3) 0.5784(9)
C15 C 1.0887(9) 0.1012(4) 0.6583(9)
H1 H 1.1609 0.0813 0.7401
H2 H 1.1275 0.1138 0.5986
H3 H 1.0575 0.1326 0.6916
C16 C 0.9191(10) 0.1027(3) 0.3357(9)
H4 H 0.8339 0.1088 0.2446
H5 H 0.9530 0.1374 0.3854
H6 H 0.9915 0.0865 0.3189
C17 C 0.6087(9) -0.0357(4) 0.3484(10)
H7 H 0.5832 -0.0362 0.2478
H8 H 0.6273 -0.0729 0.3857
H9 H 0.5314 -0.0202 0.3583
C18 C 0.7759(10) -0.0384(4) 0.6636(10)
H10 H 0.6917 -0.0239 0.6620
H11 H 0.7565 -0.0751 0.6229
H12 H 0.8528 -0.0400 0.7619
Ag1B Ag 0.32238(6) -0.02552(3) -0.11737(6)
Ag2B Ag 1.06880(6) 0.02496(3) -0.11507(6)
Ag2B_2 Ag 1.06880(6) 0.02496(3) 0.88493(6)
O2B O 0.4275(6) 0.0514(3) 0.0197(7)
O3B O 1.1025(7) -0.0490(3) 0.0343(7)
N1B N 1.0704(7) -0.0294(3) 0.3518(7)
loop_
_geom_bond_atom_site_label_1
_geom_bond_atom_site_label_2
_geom_bond_site_symmetry_1
_geom_bond_site_symmetry_2
Ag1 O2 1_555 1_555
Ag2 O1 1_555 1_555
O1 C1 1_555 1_555
O2 C1 1_555 1_555
C1 C2 1_555 1_555
C2 F1 1_555 1_555
F2 C2 1_555 1_555
C3 C2 1_555 1_555
F3 C3 1_555 1_555
F4 C3 1_555 1_555
C4 C3 1_555 1_555
F5 C4 1_555 1_555
F6 C4 1_555 1_555
C5 C4 1_555 1_555
F7 C5 1_555 1_555
F8 C5 1_555 1_555
F9 C5 1_555 1_555
O3 Ag2 1_555 1_555
O4 Ag1 1_555 1_555
C6 O3 1_555 1_555
C7 C6 1_555 1_555
F10 C7 1_555 1_555
F11 C7 1_555 1_555
C8 C7 1_555 1_555
F12 C8 1_555 1_555
F13 C8 1_555 1_555
C9 C8 1_555 1_555
F14 C9 1_555 1_555
F15 C9 1_555 1_555
C10 C9 1_555 1_555
F16 C10 1_555 1_555
F17 C10 1_555 1_555
F18 C10 1_555 1_555
N1 C11 1_555 1_555
C11 C12 1_555 1_555
C12 N2 1_555 1_555
N2 Ag1 1_555 1_555
C13 N2 1_555 1_555
C14 N1 1_555 1_555
C15 C11 1_555 1_555
H1 C15 1_555 1_555
H2 C15 1_555 1_555
H3 C15 1_555 1_555
C16 C12 1_555 1_555
H4 C16 1_555 1_555
H5 C16 1_555 1_555
H6 C16 1_555 1_555
C17 C13 1_555 1_555
H7 C17 1_555 1_555
H8 C17 1_555 1_555
H9 C17 1_555 1_555
C18 C14 1_555 1_555
H10 C18 1_555 1_555
H11 C18 1_555 1_555
H12 C18 1_555 1_555
Ag1B O2 1_555 1_555
Ag2B O3 1_555 1_555
Ag2B_2 N1 1_555 1_555
O2B Ag1 1_555 1_555
O3B Ag2 1_555 1_555
N1B Ag2 1_555 1_555
O4 C6 1_555 1_555
C13 C14 1_555 1_555
Ag1B O2B 1_555 1_555
Ag2B O3B 1_555 1_555

#END
