
#######################################################################
#
#                 Cambridge Crystallographic Data Centre
#                                CCDC 
#
#######################################################################
#
# If this CIF has been generated from an entry in the Cambridge 
# Structural Database, then it will include bibliographic, chemical, 
# crystal, experimental, refinement or atomic coordinate data resulting 
# from the CCDC's data processing and validation procedures.
#
#######################################################################

data_GIXVOZ
_symmetry_cell_setting           cubic
_symmetry_space_group_name_H-M   'P 21 3'
_symmetry_Int_Tables_number      198
_space_group_name_Hall           'P 2ac 2ab 3'
loop_
_symmetry_equiv_pos_site_id
_symmetry_equiv_pos_as_xyz
1 x,y,z
2 1/2-x,-y,1/2+z
3 -x,1/2+y,1/2-z
4 1/2+x,1/2-y,-z
5 z,x,y
6 1/2+z,1/2-x,-y
7 1/2-z,-x,1/2+y
8 -z,1/2+x,1/2-y
9 y,z,x
10 -y,1/2+z,1/2-x
11 1/2+y,1/2-z,-x
12 1/2-y,-z,1/2+x
_cell_length_a                   12.4153(3)
_cell_length_b                   12.4153(3)
_cell_length_c                   12.4153(3)
_cell_angle_alpha                90
_cell_angle_beta                 90
_cell_angle_gamma                90
_cell_volume                     1913.69
loop_
_atom_site_label
_atom_site_type_symbol
_atom_site_fract_x
_atom_site_fract_y
_atom_site_fract_z
Eu1 Eu 0.382965(14) 0.117035(14) 0.882965(14)
O1 O 0.1941(3) 0.0988(3) 0.8006(3)
O2 O 0.2022(2) 0.0913(3) 0.9777(2)
O3 O 0.3206(3) -0.2269(3) 0.9818(3)
O4 O 0.3373(3) -0.0741(3) 0.8911(3)
N1 N 0.0112(3) 0.0112(3) 1.0112(3)
N2 N 0.5062(3) -0.0062(3) 1.0062(3)
C1 C 0.1525(3) 0.0812(3) 0.8912(4)
C2 C 0.0358(3) 0.0464(4) 0.8973(3)
H1 H -0.0108 0.1057 0.8771
H2 H 0.0231 -0.0128 0.8478
C3 C 0.3599(4) -0.1338(3) 0.9701(3)
C4 C 0.4383(4) -0.0913(3) 1.0531(3)
H3 H 0.3988 -0.0626 1.1141
H4 H 0.4834 -0.1497 1.0787
Eu1C Eu -0.117035(14) 0.382965(14) 1.117035(14)
Eu1A Eu 0.117035(14) -0.117035(14) 1.382965(14)
O1D O -0.1994(3) 0.1941(3) 1.0988(3)
O1H O 0.0988(3) -0.1994(3) 1.1941(3)
O1E O 0.3006(3) 0.3059(3) 0.9012(3)
O1K O 0.4012(3) 0.1994(3) 0.6941(3)
O2D O -0.0223(2) 0.2022(2) 1.0913(3)
O2H O 0.0913(3) -0.0223(2) 1.2022(2)
O2E O 0.4777(2) 0.2978(2) 0.9087(3)
O2K O 0.4087(3) 0.0223(2) 0.7022(2)
O3E O 0.4818(3) 0.1794(3) 1.2269(3)
O3K O 0.7269(3) 0.0182(3) 0.8206(3)
O4E O 0.3911(3) 0.1627(3) 1.0741(3)
O4K O 0.5741(3) 0.1089(3) 0.8373(3)
C1D C -0.1088(4) 0.1525(3) 1.0812(3)
C1H C 0.0812(3) -0.1088(4) 1.1525(3)
C2D C -0.1027(3) 0.0358(3) 1.0464(4)
C2H C 0.0464(4) -0.1027(3) 1.0358(3)
H1D H -0.1229 -0.0108 1.1057
H1H H 0.1057 -0.1229 0.9892
H2D H -0.1522 0.0231 0.9872
H2H H -0.0128 -0.1522 1.0231
C3E C 0.4701(3) 0.1401(4) 1.1338(3)
C3K C 0.6338(3) 0.0299(3) 0.8599(4)
C4E C 0.5531(3) 0.0617(4) 1.0913(3)
C4K C 0.5913(3) -0.0531(3) 0.9383(4)
H3E H 0.6141 0.1012 1.0626
H3K H 0.5626 -0.1141 0.8988
H4E H 0.5787 0.0166 1.1497
H4K H 0.6497 -0.0787 0.9834
O5 O 0.1876(3) 0.3124(3) 0.6876(3)
O6 O 0.3259(6) 0.3259(6) 0.3259(6)
O7 O 0.1976(4) 0.1976(4) 0.1976(4)
loop_
_geom_bond_atom_site_label_1
_geom_bond_atom_site_label_2
_geom_bond_site_symmetry_1
_geom_bond_site_symmetry_2
Eu1 O1 1_555 1_555
O1 C1 1_555 1_555
O2 Eu1 1_555 1_555
O3 C3 1_555 1_555
O4 Eu1 1_555 1_555
N1 C2 1_555 1_555
N2 Eu1 1_555 1_555
C1 O2 1_555 1_555
C2 C1 1_555 1_555
H1 C2 1_555 1_555
H2 C2 1_555 1_555
C3 O4 1_555 1_555
C4 N2 1_555 1_555
H3 C4 1_555 1_555
H4 C4 1_555 1_555
Eu1C O1D 1_555 1_555
Eu1A O1H 1_555 1_555
O1D C1D 1_555 1_555
O1H C1H 1_555 1_555
O1E Eu1 1_555 1_555
O1K Eu1 1_555 1_555
O2D Eu1C 1_555 1_555
O2H Eu1A 1_555 1_555
O2E Eu1 1_555 1_555
O2K Eu1 1_555 1_555
O3E C3E 1_555 1_555
O3K C3K 1_555 1_555
O4E Eu1 1_555 1_555
O4K Eu1 1_555 1_555
C1D O2D 1_555 1_555
C1H O2H 1_555 1_555
C2D N1 1_555 1_555
C2H N1 1_555 1_555
H1D C2D 1_555 1_555
H1H C2H 1_555 1_555
H2D C2D 1_555 1_555
H2H C2H 1_555 1_555
C3E O4E 1_555 1_555
C3K O4K 1_555 1_555
C4E N2 1_555 1_555
C4K N2 1_555 1_555
H3E C4E 1_555 1_555
H3K C4K 1_555 1_555
H4E C4E 1_555 1_555
H4K C4K 1_555 1_555
C3 C4 1_555 1_555
C1D C2D 1_555 1_555
C1H C2H 1_555 1_555
C3E C4E 1_555 1_555
C3K C4K 1_555 1_555

#END
