
#######################################################################
#
#                 Cambridge Crystallographic Data Centre
#                                CCDC 
#
#######################################################################
#
# If this CIF has been generated from an entry in the Cambridge 
# Structural Database, then it will include bibliographic, chemical, 
# crystal, experimental, refinement or atomic coordinate data resulting 
# from the CCDC's data processing and validation procedures.
#
#######################################################################

data_GIXWUG
_symmetry_cell_setting           triclinic
_symmetry_space_group_name_H-M   'P -1'
_symmetry_Int_Tables_number      2
_space_group_name_Hall           '-P 1'
loop_
_symmetry_equiv_pos_site_id
_symmetry_equiv_pos_as_xyz
1 x,y,z
2 -x,-y,-z
_cell_length_a                   7.898(3)
_cell_length_b                   11.792(4)
_cell_length_c                   11.911(4)
_cell_angle_alpha                76.051(4)
_cell_angle_beta                 89.919(4)
_cell_angle_gamma                78.267(4)
_cell_volume                     1052.78
loop_
_atom_site_label
_atom_site_type_symbol
_atom_site_fract_x
_atom_site_fract_y
_atom_site_fract_z
Zn1 Zn 0.39583(14) 0.52575(9) 0.25555(9)
Cl1 Cl 0.2695(3) 0.5857(3) 0.0771(2)
Cl2 Cl 0.2582(3) 0.5540(2) 0.4138(2)
O1 O 0.9351(10) 0.8510(6) 0.3545(6)
O2 O 0.6305(10) 1.1068(6) 0.5989(6)
N1 N 0.6085(10) 0.6016(7) 0.2396(6)
N2 N 0.8383(10) 0.7214(7) 0.5018(7)
H2 H 0.7798 0.6659 0.5162
N3 N 0.7867(11) 0.9677(7) 0.5106(7)
H3 H 0.8092 0.9556 0.4433
N4 N 0.4909(10) 1.3448(7) 0.2786(7)
C1 C 0.6934(14) 0.6045(11) 0.1426(9)
H4 H 0.6566 0.5685 0.0883
C2 C 0.8328(16) 0.6580(13) 0.1190(10)
H5 H 0.8873 0.6597 0.0496
C3 C 0.8902(14) 0.7090(11) 0.1999(10)
H6 H 0.9847 0.7455 0.1860
C4 C 0.8052(12) 0.7055(8) 0.3031(8)
C5 C 0.6618(11) 0.6521(8) 0.3185(8)
H7 H 0.6015 0.6516 0.3856
C6 C 0.8650(12) 0.7663(8) 0.3881(8)
C7 C 0.8957(12) 0.7554(8) 0.5993(8)
C8 C 0.9734(14) 0.6666(9) 0.6925(9)
H8 H 0.9931 0.5875 0.6875
C9 C 1.0227(16) 0.6914(10) 0.7930(9)
H9 H 1.0751 0.6296 0.8549
C10 C 0.9940(15) 0.8099(10) 0.8019(9)
H10 H 1.0251 0.8274 0.8701
C11 C 0.9188(14) 0.9008(9) 0.7082(9)
H11 H 0.9026 0.9798 0.7131
C12 C 0.8671(12) 0.8758(8) 0.6070(8)
C13 C 0.6774(13) 1.0731(8) 0.5127(8)
C14 C 0.6123(12) 1.1483(8) 0.3935(8)
C15 C 0.5889(16) 1.1002(9) 0.3006(9)
H12 H 0.6214 1.0182 0.3081
C16 C 0.5169(18) 1.1751(10) 0.1971(10)
H13 H 0.5014 1.1447 0.1337
C17 C 0.4683(16) 1.2961(10) 0.1890(9)
H14 H 0.4180 1.3462 0.1194
C18 C 0.5611(12) 1.2717(8) 0.3777(8)
H15 H 0.5769 1.3044 0.4396
Zn1_2 Zn 0.39583(14) 1.52575(9) 0.25555(9)
N4_2 N 0.4909(10) 0.3448(7) 0.2786(7)
O3 O 0.650(6) 0.102(4) 0.859(4)
H1 H 0.6927 0.0681 0.8100
C19 C 0.693(9) 0.023(6) 0.971(5)
H16 H 0.7870 0.0438 1.0074
H17 H 0.7264 -0.0578 0.9642
H18 H 0.5939 0.0300 1.0181
loop_
_geom_bond_atom_site_label_1
_geom_bond_atom_site_label_2
_geom_bond_site_symmetry_1
_geom_bond_site_symmetry_2
Zn1 Cl1 1_555 1_555
Cl2 Zn1 1_555 1_555
O1 C6 1_555 1_555
O2 C13 1_555 1_555
O3 H1 1_555 1_555
N1 Zn1 1_555 1_555
N2 H2 1_555 1_555
N3 H3 1_555 1_555
N4 C17 1_555 1_555
C1 N1 1_555 1_555
H4 C1 1_555 1_555
C2 C1 1_555 1_555
H5 C2 1_555 1_555
C3 C2 1_555 1_555
H6 C3 1_555 1_555
C4 C3 1_555 1_555
C5 N1 1_555 1_555
H7 C5 1_555 1_555
C6 N2 1_555 1_555
C7 N2 1_555 1_555
C8 C7 1_555 1_555
H8 C8 1_555 1_555
C9 C8 1_555 1_555
H9 C9 1_555 1_555
C10 C9 1_555 1_555
H10 C10 1_555 1_555
C11 C10 1_555 1_555
H11 C11 1_555 1_555
C12 N3 1_555 1_555
C13 N3 1_555 1_555
C14 C13 1_555 1_555
C15 C14 1_555 1_555
H12 C15 1_555 1_555
C16 C15 1_555 1_555
H13 C16 1_555 1_555
C17 C16 1_555 1_555
H14 C17 1_555 1_555
C18 N4 1_555 1_555
H15 C18 1_555 1_555
C19 O3 1_555 1_555
H16 C19 1_555 1_555
H17 C19 1_555 1_555
H18 C19 1_555 1_555
Zn1_2 N4 1_555 1_555
N4_2 Zn1 1_555 1_555
C4 C5 1_555 1_555
C4 C6 1_555 1_555
C7 C12 1_555 1_555
C11 C12 1_555 1_555
C14 C18 1_555 1_555

#END
