
#######################################################################
#
#                 Cambridge Crystallographic Data Centre
#                                CCDC 
#
#######################################################################
#
# If this CIF has been generated from an entry in the Cambridge 
# Structural Database, then it will include bibliographic, chemical, 
# crystal, experimental, refinement or atomic coordinate data resulting 
# from the CCDC's data processing and validation procedures.
#
#######################################################################

data_GIXXUI
_symmetry_cell_setting           monoclinic
_symmetry_space_group_name_H-M   'P 21/c'
_symmetry_Int_Tables_number      14
_space_group_name_Hall           '-P 2ybc'
loop_
_symmetry_equiv_pos_site_id
_symmetry_equiv_pos_as_xyz
1 x,y,z
2 -x,1/2+y,1/2-z
3 -x,-y,-z
4 x,1/2-y,1/2+z
_cell_length_a                   10.4296(17)
_cell_length_b                   22.179(5)
_cell_length_c                   7.0837(12)
_cell_angle_alpha                90
_cell_angle_beta                 92.797(3)
_cell_angle_gamma                90
_cell_volume                     1636.64
loop_
_atom_site_label
_atom_site_type_symbol
_atom_site_fract_x
_atom_site_fract_y
_atom_site_fract_z
Cu1 Cu 0.24237(11) 0.18167(5) 0.50084(15)
Cl1 Cl 0.2808(3) 0.22158(10) 0.8115(3)
S1 S 0.4632(3) 0.17556(10) 0.4927(4)
N1 N 0.0528(8) 0.1967(4) 0.5192(11)
N2 N 0.2267(8) 0.0997(4) 0.3627(11)
C1 C 0.2773(9) 0.1066(4) 0.1698(12)
C2 C 0.4239(11) 0.1072(5) 0.1606(14)
C3 C 0.4937(11) 0.1618(5) 0.2470(14)
C4 C 0.4993(10) 0.1021(5) 0.5984(14)
C5 C 0.3794(10) 0.0662(4) 0.6414(13)
C6 C 0.2885(10) 0.0479(5) 0.4718(13)
C7 C 0.0880(10) 0.0840(5) 0.3290(14)
C8 C 0.0076(10) 0.0895(5) 0.5057(14)
C9 C -0.0363(10) 0.1524(5) 0.5383(14)
C10 C -0.1593(11) 0.1656(5) 0.5814(16)
C11 C -0.1958(10) 0.2246(5) 0.6039(14)
C12 C -0.1087(11) 0.2705(5) 0.5801(14)
C13 C 0.0142(10) 0.2549(5) 0.5400(14)
H1 H 0.2405 0.0735 0.0957
H2 H 0.2428 0.1444 0.1209
H3 H 0.4549 0.0718 0.2291
H4 H 0.4434 0.1035 0.0286
H5 H 0.4660 0.1935 0.1599
H6 H 0.5826 0.1527 0.2237
H7 H 0.5454 0.0746 0.5197
H8 H 0.5454 0.1041 0.7206
H9 H 0.4067 0.0289 0.7021
H10 H 0.3290 0.0895 0.7271
H11 H 0.2174 0.0244 0.5158
H12 H 0.3356 0.0240 0.3837
H13 H 0.0516 0.1113 0.2339
H14 H 0.0831 0.0430 0.2817
H15 H -0.0689 0.0646 0.4967
H16 H 0.0602 0.0777 0.6163
H17 H -0.2178 0.1345 0.5958
H18 H -0.2792 0.2332 0.6364
H19 H -0.1327 0.3107 0.5925
H20 H 0.0738 0.2853 0.5210
Cu1C Cu 0.24237(11) 0.31833(5) 1.00084(15)
Cl1C Cl 0.2808(3) 0.27842(10) 0.3115(3)
F1 F 0.2518(9) -0.0811(5) -0.2223(12)
F2 F 0.1375(10) -0.0796(5) 0.0457(15)
F3 F 0.1571(8) 0.0002(4) -0.1293(11)
F4 F 0.3334(8) -0.0338(4) 0.0459(10)
B1 B 0.2286(16) -0.0550(8) -0.056(2)
loop_
_geom_bond_atom_site_label_1
_geom_bond_atom_site_label_2
_geom_bond_site_symmetry_1
_geom_bond_site_symmetry_2
Cu1 Cl1 1_555 1_555
Cl1 Cu1C 1_555 1_555
S1 Cu1 1_555 1_555
N1 Cu1 1_555 1_555
N2 Cu1 1_555 1_555
C1 N2 1_555 1_555
C2 C1 1_555 1_555
C3 S1 1_555 1_555
C4 S1 1_555 1_555
C5 C4 1_555 1_555
C6 N2 1_555 1_555
C7 N2 1_555 1_555
C8 C7 1_555 1_555
C9 N1 1_555 1_555
C10 C9 1_555 1_555
C11 C10 1_555 1_555
C12 C11 1_555 1_555
C13 N1 1_555 1_555
H1 C1 1_555 1_555
H2 C1 1_555 1_555
H3 C2 1_555 1_555
H4 C2 1_555 1_555
H5 C3 1_555 1_555
H6 C3 1_555 1_555
H7 C4 1_555 1_555
H8 C4 1_555 1_555
H9 C5 1_555 1_555
H10 C5 1_555 1_555
H11 C6 1_555 1_555
H12 C6 1_555 1_555
H13 C7 1_555 1_555
H14 C7 1_555 1_555
H15 C8 1_555 1_555
H16 C8 1_555 1_555
H17 C10 1_555 1_555
H18 C11 1_555 1_555
H19 C12 1_555 1_555
H20 C13 1_555 1_555
F1 B1 1_555 1_555
F2 B1 1_555 1_555
F3 B1 1_555 1_555
F4 B1 1_555 1_555
Cl1C Cu1 1_555 1_555
C2 C3 1_555 1_555
C5 C6 1_555 1_555
C8 C9 1_555 1_555
C12 C13 1_555 1_555

#END
