
#######################################################################
#
#                 Cambridge Crystallographic Data Centre
#                                CCDC 
#
#######################################################################
#
# If this CIF has been generated from an entry in the Cambridge 
# Structural Database, then it will include bibliographic, chemical, 
# crystal, experimental, refinement or atomic coordinate data resulting 
# from the CCDC's data processing and validation procedures.
#
#######################################################################

data_GIXZUI
_symmetry_cell_setting           monoclinic
_symmetry_space_group_name_H-M   'P 21/n'
_symmetry_Int_Tables_number      14
_space_group_name_Hall           '-P 2yn'
loop_
_symmetry_equiv_pos_site_id
_symmetry_equiv_pos_as_xyz
1 x,y,z
2 1/2-x,1/2+y,1/2-z
3 -x,-y,-z
4 1/2+x,1/2-y,1/2+z
_cell_length_a                   13.392(2)
_cell_length_b                   14.2830(10)
_cell_length_c                   15.910(2)
_cell_angle_alpha                90
_cell_angle_beta                 104.43
_cell_angle_gamma                90
_cell_volume                     2947.23
loop_
_atom_site_label
_atom_site_type_symbol
_atom_site_fract_x
_atom_site_fract_y
_atom_site_fract_z
Hg1 Hg 0.25652(3) -0.00690(3) 0.21493(2)
S1 S 0.3835(2) -0.0171(2) 0.3644(2)
S2 S 0.1083(2) -0.0231(2) 0.2862(2)
C1 C 0.2905(7) -0.0145(7) 0.4229(6)
C2 C 0.1852(7) -0.0171(6) 0.3929(6)
S3 S 0.3350(2) -0.0034(2) 0.5357(2)
S4 S 0.1158(2) -0.0092(2) 0.4730(2)
C3 C 0.2173(7) 0.0023(7) 0.5629(6)
S5 S 0.2045(2) 0.0196(2) 0.6620(2)
P1 P 0.2759(3) 0.1479(2) 0.1464(2)
C4 C 0.2071(10) 0.1650(7) 0.0337(8)
C5 C 0.2200(9) 0.0961(7) -0.0257(7)
H1 H 0.2656(9) 0.0451(7) -0.0074(7)
C6 C 0.1646(11) 0.1040(10) -0.1122(8)
H2 H 0.1724(11) 0.0575(10) -0.1529(8)
C7 C 0.0996(13) 0.1771(11) -0.1391(8)
H3 H 0.0642(13) 0.1821(11) -0.1986(8)
C8 C 0.0843(11) 0.2442(8) -0.0814(8)
H4 H 0.0374(11) 0.2942(8) -0.1005(8)
C9 C 0.1387(10) 0.2378(7) 0.0058(7)
H5 H 0.1287(10) 0.2837(7) 0.0461(7)
C10 C 0.4095(9) 0.1737(7) 0.1510(7)
C11 C 0.4341(9) 0.2444(8) 0.0996(7)
H6 H 0.3807(9) 0.2795(8) 0.0623(7)
C12 C 0.5367(12) 0.2641(9) 0.1026(8)
H7 H 0.5537(12) 0.3128(9) 0.0679(8)
C13 C 0.6136(11) 0.2118(9) 0.1567(8)
H8 H 0.6838(11) 0.2241(9) 0.1583(8)
C14 C 0.5902(10) 0.1441(8) 0.2069(9)
H9 H 0.6437(10) 0.1093(8) 0.2442(9)
C15 C 0.4892(9) 0.1249(7) 0.2045(7)
H10 H 0.4738(9) 0.0768(7) 0.2407(7)
C16 C 0.2322(9) 0.2444(6) 0.2051(7)
H11 H 0.2454(9) 0.3046(6) 0.1790(7)
H12 H 0.1568(9) 0.2388(6) 0.1979(7)
C17 C 0.2849(9) 0.2456(6) 0.3007(6)
H13 H 0.3600(9) 0.2539(6) 0.3080(6)
H14 H 0.2741(9) 0.1845(6) 0.3264(6)
P2 P 0.2375(2) 0.3384(2) 0.3590(2)
C18 C 0.1067(9) 0.3081(7) 0.3629(7)
C19 C 0.0718(10) 0.2166(7) 0.3615(7)
H15 H 0.1171(10) 0.1663(7) 0.3585(7)
C20 C -0.0300(10) 0.1977(8) 0.3644(8)
H16 H -0.0528(10) 0.1348(8) 0.3651(8)
C21 C -0.0954(12) 0.2685(10) 0.3664(9)
H17 H -0.1648(12) 0.2557(10) 0.3671(9)
C22 C -0.0613(11) 0.3605(10) 0.3672(10)
H18 H -0.1075(11) 0.4107(10) 0.3687(10)
C23 C 0.0402(9) 0.3795(8) 0.3660(8)
H19 H 0.0633(9) 0.4425(8) 0.3674(8)
C24 C 0.3165(9) 0.3278(6) 0.4678(7)
C25 C 0.3934(10) 0.3933(8) 0.5003(8)
H20 H 0.4047(10) 0.4427(8) 0.4637(8)
C26 C 0.4549(11) 0.3881(10) 0.5859(9)
H21 H 0.5054(11) 0.4345(10) 0.6078(9)
C27 C 0.4404(11) 0.3154(11) 0.6364(9)
H22 H 0.4789(11) 0.3133(11) 0.6952(9)
C28 C 0.3712(12) 0.2441(10) 0.6046(8)
H23 H 0.3658(12) 0.1909(10) 0.6391(8)
C29 C 0.3105(11) 0.2530(9) 0.5214(8)
H24 H 0.2618(11) 0.2050(9) 0.4996(8)
P2A P 0.2625(2) -0.1616(2) 0.1410(2)
Hg1A Hg 0.24348(3) 0.49310(3) 0.28507(2)
loop_
_geom_bond_atom_site_label_1
_geom_bond_atom_site_label_2
_geom_bond_site_symmetry_1
_geom_bond_site_symmetry_2
Hg1 S1 1_555 1_555
S1 C1 1_555 1_555
S2 Hg1 1_555 1_555
C1 C2 1_555 1_555
C2 S2 1_555 1_555
S3 C1 1_555 1_555
S4 C2 1_555 1_555
C3 S3 1_555 1_555
S5 C3 1_555 1_555
P1 Hg1 1_555 1_555
C4 P1 1_555 1_555
C5 C4 1_555 1_555
H1 C5 1_555 1_555
C6 C5 1_555 1_555
H2 C6 1_555 1_555
C7 C6 1_555 1_555
H3 C7 1_555 1_555
C8 C7 1_555 1_555
H4 C8 1_555 1_555
C9 C4 1_555 1_555
H5 C9 1_555 1_555
C10 P1 1_555 1_555
C11 C10 1_555 1_555
H6 C11 1_555 1_555
C12 C11 1_555 1_555
H7 C12 1_555 1_555
C13 C12 1_555 1_555
H8 C13 1_555 1_555
C14 C13 1_555 1_555
H9 C14 1_555 1_555
C15 C10 1_555 1_555
H10 C15 1_555 1_555
C16 P1 1_555 1_555
H11 C16 1_555 1_555
H12 C16 1_555 1_555
C17 C16 1_555 1_555
H13 C17 1_555 1_555
H14 C17 1_555 1_555
P2 C17 1_555 1_555
C18 P2 1_555 1_555
C19 C18 1_555 1_555
H15 C19 1_555 1_555
C20 C19 1_555 1_555
H16 C20 1_555 1_555
C21 C20 1_555 1_555
H17 C21 1_555 1_555
C22 C21 1_555 1_555
H18 C22 1_555 1_555
C23 C18 1_555 1_555
H19 C23 1_555 1_555
C24 P2 1_555 1_555
C25 C24 1_555 1_555
H20 C25 1_555 1_555
C26 C25 1_555 1_555
H21 C26 1_555 1_555
C27 C26 1_555 1_555
H22 C27 1_555 1_555
C28 C27 1_555 1_555
H23 C28 1_555 1_555
C29 C24 1_555 1_555
H24 C29 1_555 1_555
P2A Hg1 1_555 1_555
Hg1A P2 1_555 1_555
S4 C3 1_555 1_555
C8 C9 1_555 1_555
C14 C15 1_555 1_555
C22 C23 1_555 1_555
C28 C29 1_555 1_555

#END
