
#######################################################################
#
#                 Cambridge Crystallographic Data Centre
#                                CCDC 
#
#######################################################################
#
# If this CIF has been generated from an entry in the Cambridge 
# Structural Database, then it will include bibliographic, chemical, 
# crystal, experimental, refinement or atomic coordinate data resulting 
# from the CCDC's data processing and validation procedures.
#
#######################################################################

data_GIYBOG
_symmetry_cell_setting           monoclinic
_symmetry_space_group_name_H-M   'C 2/c'
_symmetry_Int_Tables_number      15
_space_group_name_Hall           '-C 2yn'
loop_
_symmetry_equiv_pos_site_id
_symmetry_equiv_pos_as_xyz
1 x,y,z
2 1/2+x,1/2+y,z
3 -x,y,1/2-z
4 1/2-x,1/2+y,1/2-z
5 -x,-y,-z
6 1/2-x,1/2-y,-z
7 x,-y,1/2+z
8 1/2+x,1/2-y,1/2+z
_cell_length_a                   10.5608(3)
_cell_length_b                   10.978(4)
_cell_length_c                   32.540(3)
_cell_angle_alpha                90
_cell_angle_beta                 99.57(4)
_cell_angle_gamma                90
_cell_volume                     3720.07
loop_
_atom_site_label
_atom_site_type_symbol
_atom_site_fract_x
_atom_site_fract_y
_atom_site_fract_z
Co1 Co 0.0000 0.2330 0.2500
O1 O -0.1422 0.2281 0.2064
O2 O 0.1143 0.2314 0.2089
N1 N 0.0000 0.0355 0.2500
C1 C 0.1125 -0.5312 0.2482
H1 H 0.1858 -0.5737 0.2443
C2 C 0.0972 0.2379 0.1373
H2 H 0.1856 0.2278 0.1399
N2 N 0.0000 -0.5896 0.2500
C3 C 0.2435 0.2622 0.0692
H3 H 0.2772 0.2743 0.0439
H4 H 0.2657 0.1820 0.0798
H5 H 0.2794 0.3218 0.0894
C4 C -0.3202 0.2622 0.1203
C5 C 0.0524 0.2292 0.1740
C6 C -0.0984 0.2296 0.1714
C7 C -0.1540 0.2379 0.1322
C8 C 0.0880 0.2764 0.0599
C9 C -0.3904 0.2209 0.0699
H6 H -0.3788 0.2854 0.0509
H7 H -0.4805 0.2067 0.0690
H8 H -0.3506 0.1479 0.0619
C10 C 0.0351 0.3880 0.0381
H9 H 0.0710 0.3982 0.0130
H10 H 0.0566 0.4573 0.0559
H11 H -0.0566 0.3811 0.0311
C11 C 0.0000 -0.2080 0.2500
C12 C 0.1132 -0.4055 0.2524
H12 H 0.1885 -0.3600 0.2566
C13 C -0.1108 0.0029 0.2299
H13 H -0.1781 0.0562 0.2209
C14 C -0.1179 -0.1629 0.2214
H14 H -0.1791 -0.2078 0.2038
C15 C 0.0000 -0.3562 0.2500
C16 C 0.0535 0.1406 0.0303
H15 H 0.0862 0.1477 0.0046
H16 H -0.0377 0.1283 0.0244
H17 H 0.0934 0.0726 0.0459
C17 C -0.1203 0.2412 0.0914
H18 H -0.1768 0.2347 0.0663
C18 C 0.0370 0.2587 0.0970
C19 C -0.3671 0.1383 0.1322
H19 H -0.3395 0.0768 0.1147
H20 H -0.4592 0.1386 0.1286
H21 H -0.3324 0.1212 0.1608
C20 C -0.330(9) 0.386(6) 0.145(3)
H22 H -0.2930 0.4511 0.1309
H23 H -0.2845 0.3783 0.1728
H24 H -0.4187 0.4042 0.1455
Co1_2 Co 0.0000 -0.7670 0.2500
O1B O 0.1422 0.2281 0.2936
O2B O -0.1143 0.2314 0.2911
C1B C -0.1125 -0.5312 0.2518
H1B H -0.1858 -0.5737 0.2557
C2B C -0.0972 0.2379 0.3627
H2B H -0.1856 0.2278 0.3601
N2_2 N 0.0000 0.4104 0.2500
C3B C -0.2435 0.2622 0.4308
H3B H -0.2772 0.2743 0.4561
H4B H -0.2657 0.1820 0.4202
H5B H -0.2794 0.3218 0.4106
C4B C 0.3202 0.2622 0.3797
C5B C -0.0524 0.2292 0.3260
C6B C 0.0984 0.2296 0.3286
C7B C 0.1540 0.2379 0.3678
C8B C -0.0880 0.2764 0.4401
C9B C 0.3904 0.2209 0.4301
H6B H 0.3788 0.2854 0.4491
H7B H 0.4805 0.2067 0.4310
H8B H 0.3506 0.1479 0.4381
C10B C -0.0351 0.3880 0.4619
H9B H -0.0710 0.3982 0.4870
H10B H -0.0566 0.4573 0.4441
H11B H 0.0566 0.3811 0.4689
C12B C -0.1132 -0.4055 0.2476
H12B H -0.1885 -0.3600 0.2434
C13B C 0.1108 0.0029 0.2701
H13B H 0.1781 0.0562 0.2791
C14B C 0.1179 -0.1629 0.2786
H14B H 0.1791 -0.2078 0.2962
C16B C -0.0535 0.1406 0.4697
H15B H -0.0862 0.1477 0.4954
H16B H 0.0377 0.1283 0.4756
H17B H -0.0934 0.0726 0.4541
C17B C 0.1203 0.2412 0.4086
H18B H 0.1768 0.2347 0.4337
C18B C -0.0370 0.2587 0.4030
C19B C 0.3671 0.1383 0.3678
H19B H 0.3395 0.0768 0.3853
H20B H 0.4592 0.1386 0.3714
H21B H 0.3324 0.1212 0.3392
C20B C 0.330(9) 0.386(6) 0.355(3)
H22B H 0.2930 0.4511 0.3691
H23B H 0.2845 0.3783 0.3272
H24B H 0.4187 0.4042 0.3545
loop_
_geom_bond_atom_site_label_1
_geom_bond_atom_site_label_2
_geom_bond_site_symmetry_1
_geom_bond_site_symmetry_2
Co1 O1 1_555 1_555
O1 C6 1_555 1_555
O2 Co1 1_555 1_555
N1 Co1 1_555 1_555
C1 H1 1_555 1_555
C2 H2 1_555 1_555
N2 C1 1_555 1_555
C3 H3 1_555 1_555
H4 C3 1_555 1_555
H5 C3 1_555 1_555
C4 C7 1_555 1_555
C5 O2 1_555 1_555
C6 C5 1_555 1_555
C7 C6 1_555 1_555
C8 C3 1_555 1_555
C9 C4 1_555 1_555
H6 C9 1_555 1_555
H7 C9 1_555 1_555
H8 C9 1_555 1_555
C10 C8 1_555 1_555
H9 C10 1_555 1_555
H10 C10 1_555 1_555
H11 C10 1_555 1_555
C11 C14 1_555 1_555
C12 C1 1_555 1_555
H12 C12 1_555 1_555
C13 N1 1_555 1_555
H13 C13 1_555 1_555
C14 C13 1_555 1_555
H14 C14 1_555 1_555
C15 C11 1_555 1_555
C16 C8 1_555 1_555
H15 C16 1_555 1_555
H16 C16 1_555 1_555
H17 C16 1_555 1_555
C17 C7 1_555 1_555
H18 C17 1_555 1_555
C18 C2 1_555 1_555
C19 C4 1_555 1_555
H19 C19 1_555 1_555
H20 C19 1_555 1_555
H21 C19 1_555 1_555
C20 C4 1_555 1_555
H22 C20 1_555 1_555
H23 C20 1_555 1_555
H24 C20 1_555 1_555
Co1_2 N2 1_555 1_555
O1B Co1 1_555 1_555
O2B Co1 1_555 1_555
C1B N2 1_555 1_555
H1B C1B 1_555 1_555
C2B H2B 1_555 1_555
N2_2 Co1 1_555 1_555
C3B H3B 1_555 1_555
H4B C3B 1_555 1_555
H5B C3B 1_555 1_555
C4B C7B 1_555 1_555
C5B O2B 1_555 1_555
C6B O1B 1_555 1_555
C7B C6B 1_555 1_555
C8B C3B 1_555 1_555
C9B C4B 1_555 1_555
H6B C9B 1_555 1_555
H7B C9B 1_555 1_555
H8B C9B 1_555 1_555
C10B C8B 1_555 1_555
H9B C10B 1_555 1_555
H10B C10B 1_555 1_555
H11B C10B 1_555 1_555
C12B C15 1_555 1_555
H12B C12B 1_555 1_555
C13B N1 1_555 1_555
H13B C13B 1_555 1_555
C14B C11 1_555 1_555
H14B C14B 1_555 1_555
C16B C8B 1_555 1_555
H15B C16B 1_555 1_555
H16B C16B 1_555 1_555
H17B C16B 1_555 1_555
C17B C7B 1_555 1_555
H18B C17B 1_555 1_555
C18B C2B 1_555 1_555
C19B C4B 1_555 1_555
H19B C19B 1_555 1_555
H20B C19B 1_555 1_555
H21B C19B 1_555 1_555
C20B C4B 1_555 1_555
H22B C20B 1_555 1_555
H23B C20B 1_555 1_555
H24B C20B 1_555 1_555
C2 C5 1_555 1_555
C8 C18 1_555 1_555
C12 C15 1_555 1_555
C17 C18 1_555 1_555
C1B C12B 1_555 1_555
C2B C5B 1_555 1_555
C5B C6B 1_555 1_555
C8B C18B 1_555 1_555
C13B C14B 1_555 1_555
C17B C18B 1_555 1_555

#END
