
#######################################################################
#
#                 Cambridge Crystallographic Data Centre
#                                CCDC 
#
#######################################################################
#
# If this CIF has been generated from an entry in the Cambridge 
# Structural Database, then it will include bibliographic, chemical, 
# crystal, experimental, refinement or atomic coordinate data resulting 
# from the CCDC's data processing and validation procedures.
#
#######################################################################

data_GIYGOL
_symmetry_cell_setting           orthorhombic
_symmetry_space_group_name_H-M   'P b c a'
_symmetry_Int_Tables_number      61
_space_group_name_Hall           '-P 2ac 2ab'
loop_
_symmetry_equiv_pos_site_id
_symmetry_equiv_pos_as_xyz
1 x,y,z
2 1/2-x,-y,1/2+z
3 -x,1/2+y,1/2-z
4 1/2+x,1/2-y,-z
5 -x,-y,-z
6 1/2+x,y,1/2-z
7 x,1/2-y,1/2+z
8 1/2-x,1/2+y,z
_cell_length_a                   9.2513(6)
_cell_length_b                   8.4347(5)
_cell_length_c                   24.1050(15)
_cell_angle_alpha                90
_cell_angle_beta                 90
_cell_angle_gamma                90
_cell_volume                     1880.96
loop_
_atom_site_label
_atom_site_type_symbol
_atom_site_fract_x
_atom_site_fract_y
_atom_site_fract_z
Pb1 Pb 0.159106(11) 0.473094(13) 0.445781(5)
S1 S 0.22571(8) 0.75176(10) 0.27001(3)
S2 S 0.35936(6) 0.65714(8) 0.38246(3)
S3 S 0.12045(7) 0.16264(9) 0.63280(3)
S4 S -0.03253(7) 0.21500(8) 0.52203(3)
N1 N 0.1183(3) 0.5479(3) 0.33569(10)
N2 N 0.0319(2) 0.5453(3) 0.28882(11)
N3 N 0.2364(2) 0.1024(3) 0.53981(9)
N4 N 0.3385(2) 0.0646(3) 0.57969(11)
C1 C 0.2282(3) 0.6468(3) 0.33204(11)
C2 C 0.0766(3) 0.6438(4) 0.25163(12)
H1 H 0.0311 0.6553 0.2174
C3 C 0.1151(3) 0.1569(3) 0.56122(11)
C4 C 0.2922(3) 0.0896(3) 0.62910(12)
H2 H 0.3479 0.0694 0.6604
Pb1D Pb -0.159106(11) 0.526906(13) 0.554219(5)
Pb1G Pb 0.340894(11) 0.973094(13) 0.445781(5)
Pb1C Pb -0.340894(11) 0.026906(13) 0.554219(5)
Pb1G_2 Pb 0.340894(11) -0.026906(13) 0.445781(5)
Pb1C_2 Pb 0.659106(11) 0.026906(13) 0.554219(5)
S2G S 0.14064(6) 0.15714(8) 0.38246(3)
S4D S 0.03253(7) 0.78500(8) 0.47797(3)
S4C S 0.46747(7) 0.28500(8) 0.47797(3)
N3G N 0.2636(2) 0.6024(3) 0.53981(9)
N4C N -0.1615(2) 0.4354(3) 0.42031(11)
loop_
_geom_bond_atom_site_label_1
_geom_bond_atom_site_label_2
_geom_bond_site_symmetry_1
_geom_bond_site_symmetry_2
Pb1 S2 1_555 1_555
S1 C1 1_555 1_555
S2 C1 1_555 1_555
S3 C3 1_555 1_555
S4 Pb1 1_555 1_555
N1 Pb1 1_555 1_555
N2 N1 1_555 1_555
N3 N4 1_555 1_555
N4 C4 1_555 1_555
C1 N1 1_555 1_555
C2 S1 1_555 1_555
H1 C2 1_555 1_555
C3 S4 1_555 1_555
C4 S3 1_555 1_555
H2 C4 1_555 1_555
Pb1D S4 1_555 1_555
Pb1G S2 1_555 1_555
Pb1C S4 1_555 1_555
Pb1G_2 N3 1_555 1_555
Pb1C_2 N4 1_555 1_555
S2G Pb1 1_555 1_555
S4D Pb1 1_555 1_555
S4C Pb1 1_555 1_555
N3G Pb1 1_555 1_555
N4C Pb1 1_555 1_555
N2 C2 1_555 1_555
N3 C3 1_555 1_555
Pb1D S4D 1_555 1_555
Pb1G S4D 1_555 1_555
Pb1G_2 S2G 1_555 1_555
Pb1G_2 S4C 1_555 1_555
Pb1C_2 S4C 1_555 1_555

#END
