
#######################################################################
#
#                 Cambridge Crystallographic Data Centre
#                                CCDC 
#
#######################################################################
#
# If this CIF has been generated from an entry in the Cambridge 
# Structural Database, then it will include bibliographic, chemical, 
# crystal, experimental, refinement or atomic coordinate data resulting 
# from the CCDC's data processing and validation procedures.
#
#######################################################################

data_GIYHON
_symmetry_cell_setting           monoclinic
_symmetry_space_group_name_H-M   'P 2/n'
_symmetry_Int_Tables_number      13
_space_group_name_Hall           '-P 2yac'
loop_
_symmetry_equiv_pos_site_id
_symmetry_equiv_pos_as_xyz
1 x,y,z
2 1/2-x,y,1/2-z
3 -x,-y,-z
4 1/2+x,-y,1/2+z
_cell_length_a                   15.0626(5)
_cell_length_b                   9.0935(3)
_cell_length_c                   15.9264(6)
_cell_angle_alpha                90
_cell_angle_beta                 92.588(2)
_cell_angle_gamma                90
_cell_volume                     2179.24
loop_
_atom_site_label
_atom_site_type_symbol
_atom_site_fract_x
_atom_site_fract_y
_atom_site_fract_z
C1 C 0.1654(2) -0.1873(4) 0.4401(2)
C2 C 0.2100(2) -0.2751(4) 0.4983(2)
H1 H 0.2717 -0.2808 0.4982
C3 C 0.1653(3) -0.3555(4) 0.5572(2)
C4 C 0.0738(3) -0.3460(5) 0.5586(3)
H2 H 0.0426 -0.3992 0.5975
C5 C 0.0298(2) -0.2555(5) 0.5008(3)
C6 C 0.0734(3) -0.1758(5) 0.4411(3)
H3 H 0.0421 -0.1162 0.4027
C7 C 0.2162(3) -0.1017(4) 0.3776(2)
C8 C 0.2171(3) -0.4499(5) 0.6205(2)
C9 C 0.3025(3) 0.2817(5) 0.3806(3)
H4 H 0.2467 0.2542 0.3978
C10 C 0.3502(3) 0.3829(5) 0.4278(3)
H5 H 0.3265 0.4238 0.4754
C11 C 0.4342(3) 0.4237(5) 0.4038(2)
C12 C 0.4651(3) 0.3603(5) 0.3321(2)
H6 H 0.5207 0.3856 0.3135
C13 C 0.4132(3) 0.2598(5) 0.2883(2)
H7 H 0.4352 0.2167 0.2405
C14 C 0.4885(4) 0.5308(5) 0.4566(3)
H8 H 0.4553 0.6215 0.4620
H9 H 0.5428 0.5534 0.4288
C15 C 0.0018(3) -1.0350(6) 0.9568(2)
H10 H 0.0258 -1.1337 0.9625
H11 H -0.0580 -1.0425 0.9318
C16 C 0.0584(3) -0.9467(4) 0.9000(2)
C17 C 0.0235(3) -0.8638(5) 0.8344(2)
H12 H -0.0373 -0.8654 0.8212
C18 C 0.0789(2) -0.7784(4) 0.7882(2)
H13 H 0.0542 -0.7231 0.7438
C19 C 0.1999(3) -0.8528(6) 0.8661(3)
H14 H 0.2611 -0.8507 0.8770
C20 C 0.1492(3) -0.9405(6) 0.9154(3)
H15 H 0.1759 -0.9954 0.9589
N1 N -0.0666(3) -0.2430(6) 0.5027(3)
N2 N 0.33218(18) 0.2213(3) 0.31152(17)
N3 N 0.16607(19) -0.7717(4) 0.80433(18)
O1 O 0.1700(2) -0.0198(4) 0.32727(18)
O2 O 0.2974(2) -0.1119(4) 0.3774(2)
O3 O 0.2986(2) -0.4497(4) 0.6217(2)
O4 O 0.1705(2) -0.5265(4) 0.66879(18)
O5 O -0.1055(3) -0.3223(7) 0.5493(4)
O6 O -0.1038(3) -0.1525(6) 0.4571(3)
Zn1 Zn 0.2500 0.07107(7) 0.2500
Zn2 Zn 0.2500 -0.62503(7) 0.7500
C9B C 0.6975(3) 0.7183(5) 0.6194(3)
H4B H 0.7533 0.7458 0.6022
C10B C 0.6498(3) 0.6171(5) 0.5722(3)
H5B H 0.6735 0.5762 0.5246
C11B C 0.5658(3) 0.5763(5) 0.5962(2)
C12B C 0.5349(3) 0.6397(5) 0.6679(2)
H6B H 0.4793 0.6144 0.6865
C13B C 0.5868(3) 0.7402(5) 0.7117(2)
H7B H 0.5648 0.7833 0.7595
C14B C 0.5115(4) 0.4692(5) 0.5434(3)
H8B H 0.5447 0.3785 0.5380
H9B H 0.4572 0.4466 0.5712
N2B N 0.66782(18) 0.7787(3) 0.68848(17)
C15B C -0.0018(3) -0.9650(6) 1.0432(2)
H10B H -0.0258 -0.8663 1.0375
H11B H 0.0580 -0.9575 1.0682
C16B C -0.0584(3) -1.0533(4) 1.1000(2)
C17B C -0.0235(3) -1.1362(5) 1.1656(2)
H12B H 0.0373 -1.1346 1.1788
C18B C -0.0789(2) -1.2216(4) 1.2118(2)
H13B H -0.0542 -1.2769 1.2562
C19B C -0.1999(3) -1.1472(6) 1.1339(3)
H14B H -0.2611 -1.1493 1.1230
C20B C -0.1492(3) -1.0595(6) 1.0846(3)
H15B H -0.1759 -1.0046 1.0411
N3B N -0.16607(19) -1.2283(4) 1.19567(18)
C1A C 0.3346(2) -0.1873(4) 0.0599(2)
C2A C 0.2900(2) -0.2751(4) 0.0017(2)
H1A H 0.2283 -0.2808 0.0018
C3A C 0.3347(3) -0.3555(4) -0.0572(2)
C4A C 0.4262(3) -0.3460(5) -0.0586(3)
H2A H 0.4574 -0.3992 -0.0975
C5A C 0.4702(2) -0.2555(5) -0.0008(3)
C6A C 0.4266(3) -0.1758(5) 0.0589(3)
H3A H 0.4579 -0.1162 0.0973
C7A C 0.2838(3) -0.1017(4) 0.1224(2)
C8A C 0.2829(3) -0.4499(5) -0.1205(2)
N1A N 0.5666(3) -0.2430(6) -0.0027(3)
O1A O 0.3300(2) -0.0198(4) 0.17273(18)
O2A O 0.2026(2) -0.1119(4) 0.1226(2)
O3A O 0.2014(2) -0.4497(4) -0.1217(2)
O4A O 0.3295(2) -0.5265(4) -0.16879(18)
O5A O 0.6055(3) -0.3223(7) -0.0493(4)
O6A O 0.6038(3) -0.1525(6) 0.0429(3)
N2A N 0.16782(18) 0.2213(3) 0.18848(17)
N3A N 0.33393(19) -0.7717(4) 0.69567(18)
O4A_2 O 0.3295(2) -0.5265(4) 0.83121(18)
Zn1B Zn 0.7500 0.92893(7) 0.7500
Zn2_2 Zn 0.2500 -0.62503(7) -0.2500
Zn2B Zn -0.2500 -1.37497(7) 1.2500
loop_
_geom_bond_atom_site_label_1
_geom_bond_atom_site_label_2
_geom_bond_site_symmetry_1
_geom_bond_site_symmetry_2
C1 C2 1_555 1_555
C2 H1 1_555 1_555
C3 C2 1_555 1_555
C4 C3 1_555 1_555
H2 C4 1_555 1_555
C5 C4 1_555 1_555
C6 C1 1_555 1_555
H3 C6 1_555 1_555
C7 C1 1_555 1_555
C8 C3 1_555 1_555
C9 H4 1_555 1_555
C10 C9 1_555 1_555
H5 C10 1_555 1_555
C11 C10 1_555 1_555
C12 C11 1_555 1_555
H6 C12 1_555 1_555
C13 C12 1_555 1_555
H7 C13 1_555 1_555
C14 C11 1_555 1_555
H8 C14 1_555 1_555
H9 C14 1_555 1_555
C15 H10 1_555 1_555
H11 C15 1_555 1_555
C16 C15 1_555 1_555
C17 C16 1_555 1_555
H12 C17 1_555 1_555
C18 C17 1_555 1_555
H13 C18 1_555 1_555
C19 H14 1_555 1_555
C20 C16 1_555 1_555
H15 C20 1_555 1_555
N1 C5 1_555 1_555
N2 C9 1_555 1_555
N3 C18 1_555 1_555
O1 C7 1_555 1_555
O2 C7 1_555 1_555
O3 C8 1_555 1_555
O4 C8 1_555 1_555
O5 N1 1_555 1_555
O6 N1 1_555 1_555
Zn1 N2 1_555 1_555
Zn2 N3 1_555 1_555
C9B H4B 1_555 1_555
C10B C9B 1_555 1_555
H5B C10B 1_555 1_555
C11B C10B 1_555 1_555
C12B C11B 1_555 1_555
H6B C12B 1_555 1_555
C13B C12B 1_555 1_555
H7B C13B 1_555 1_555
C14B C14 1_555 1_555
H8B C14B 1_555 1_555
H9B C14B 1_555 1_555
N2B C9B 1_555 1_555
C15B C15 1_555 1_555
H10B C15B 1_555 1_555
H11B C15B 1_555 1_555
C16B C15B 1_555 1_555
C17B C16B 1_555 1_555
H12B C17B 1_555 1_555
C18B C17B 1_555 1_555
H13B C18B 1_555 1_555
C19B H14B 1_555 1_555
C20B C16B 1_555 1_555
H15B C20B 1_555 1_555
N3B C18B 1_555 1_555
C1A C2A 1_555 1_555
C2A H1A 1_555 1_555
C3A C2A 1_555 1_555
C4A C3A 1_555 1_555
H2A C4A 1_555 1_555
C5A C4A 1_555 1_555
C6A C1A 1_555 1_555
H3A C6A 1_555 1_555
C7A C1A 1_555 1_555
C8A C3A 1_555 1_555
N1A C5A 1_555 1_555
O1A Zn1 1_555 1_555
O2A C7A 1_555 1_555
O3A C8A 1_555 1_555
O4A C8A 1_555 1_555
O5A N1A 1_555 1_555
O6A N1A 1_555 1_555
N2A Zn1 1_555 1_555
N3A Zn2 1_555 1_555
O4A_2 Zn2 1_555 1_555
Zn1B N2B 1_555 1_555
Zn2_2 O4A 1_555 1_555
Zn2B N3B 1_555 1_555
C5 C6 1_555 1_555
C13 N2 1_555 1_555
C19 C20 1_555 1_555
C19 N3 1_555 1_555
O1 Zn1 1_555 1_555
O4 Zn2 1_555 1_555
C11B C14B 1_555 1_555
C13B N2B 1_555 1_555
C19B C20B 1_555 1_555
C19B N3B 1_555 1_555
C5A C6A 1_555 1_555
C7A O1A 1_555 1_555

#END
