
#######################################################################
#
#                 Cambridge Crystallographic Data Centre
#                                CCDC 
#
#######################################################################
#
# If this CIF has been generated from an entry in the Cambridge 
# Structural Database, then it will include bibliographic, chemical, 
# crystal, experimental, refinement or atomic coordinate data resulting 
# from the CCDC's data processing and validation procedures.
#
#######################################################################

data_GIYHAZ
_symmetry_cell_setting           triclinic
_symmetry_space_group_name_H-M   'P -1'
_symmetry_Int_Tables_number      2
_space_group_name_Hall           '-P 1'
loop_
_symmetry_equiv_pos_site_id
_symmetry_equiv_pos_as_xyz
1 x,y,z
2 -x,-y,-z
_cell_length_a                   10.4339(9)
_cell_length_b                   10.4424(9)
_cell_length_c                   10.8423(9)
_cell_angle_alpha                107.888(7)
_cell_angle_beta                 108.978(6)
_cell_angle_gamma                104.610(7)
_cell_volume                     978.346
loop_
_atom_site_label
_atom_site_type_symbol
_atom_site_fract_x
_atom_site_fract_y
_atom_site_fract_z
C1 C 0.3099(3) 0.5785(4) 0.6797(3)
C2 C 0.1653(3) 0.5588(3) 0.6841(3)
C3 C 0.0486(3) 0.4320(3) 0.6360(3)
H1 H 0.0497 0.3397 0.5977
C4 C -0.0741(3) 0.4557(3) 0.6505(3)
H2 H -0.1632 0.3810 0.6215
C5 C -0.0469(3) 0.6009(3) 0.7121(3)
C6 C -0.1479(3) 0.6697(3) 0.7428(3)
C7 C 0.5775(4) 1.0287(4) 0.6956(4)
H3 H 0.4822 0.9698 0.6242
C8 C 0.6431(4) 1.1735(4) 0.7398(4)
H4 H 0.6029 1.2328 0.7058
C9 C 0.7933(3) 1.0968(3) 0.8598(3)
H5 H 0.8771 1.0962 0.9246
C10 C 0.8934(3) 1.3617(3) 0.9246(3)
C11 C 0.8542(4) 1.4777(3) 0.9715(3)
H6 H 0.7566 1.4623 0.9522
C12 C 1.0371(4) 1.3827(3) 0.9522(3)
H7 H 1.0612 1.3030 0.9195
C13 C 0.6041(4) 0.6797(4) 1.0127(3)
H8 H 0.5209 0.5953 0.9468
C14 C 0.6715(4) 0.7174(4) 1.1557(3)
H9 H 0.6446 0.6655 1.2055
C15 C 0.7869(4) 0.8828(3) 1.1001(3)
H10 H 0.8554 0.9656 1.1085
C16 C 0.8964(3) 0.9279(3) 1.3587(3)
C17 C 0.8565(4) 0.9152(4) 1.4659(3)
H11 H 0.7605 0.8581 1.4430
C18 C 1.0375(4) 1.0108(4) 1.3918(3)
H12 H 1.0626 1.0177 1.3186
N1 N 0.6725(3) 0.9808(3) 0.7718(3)
N2 N 0.7818(3) 1.2163(2) 0.8452(2)
N3 N 0.6749(3) 0.7822(3) 0.9788(2)
N4 N 0.7879(3) 0.8483(3) 1.2119(2)
O1 O 0.5253(3) 0.6724(2) 0.4870(2)
O2 O 0.3850(3) 0.7050(3) 0.7016(3)
O3 O 0.3477(3) 0.4737(3) 0.6586(3)
O4 O -0.1019(3) 0.8054(3) 0.8074(3)
O5 O -0.2796(2) 0.5845(2) 0.7002(2)
S1 S 0.12676(8) 0.70870(8) 0.74909(7)
Cd1 Cd 0.61694(2) 0.74822(2) 0.742941(18)
H13 H 0.573(5) 0.633(5) 0.456(4)
H14 H 0.432(5) 0.606(5) 0.446(4)
C7A C 1.4225(4) 1.9713(4) 1.3044(4)
H3A H 1.5178 2.0302 1.3758
C8A C 1.3569(4) 1.8265(4) 1.2602(4)
H4A H 1.3971 1.7672 1.2942
C9A C 1.2067(3) 1.9032(3) 1.1402(3)
H5A H 1.1229 1.9038 1.0754
C10A C 1.1066(3) 1.6383(3) 1.0754(3)
C11A C 1.1458(4) 1.5223(3) 1.0285(3)
H6A H 1.2434 1.5377 1.0478
C12A C 0.9629(4) 1.6173(3) 1.0478(3)
H7A H 0.9388 1.6970 1.0805
N1A N 1.3275(3) 2.0192(3) 1.2282(3)
N2A N 1.2182(3) 1.7837(2) 1.1548(2)
C13A C 1.3959(4) 1.3203(4) 1.9873(3)
H8A H 1.4791 1.4047 2.0532
C14A C 1.3285(4) 1.2826(4) 1.8443(3)
H9A H 1.3554 1.3345 1.7945
C15A C 1.2131(4) 1.1172(3) 1.8999(3)
H10A H 1.1446 1.0344 1.8915
C16A C 1.1036(3) 1.0721(3) 1.6413(3)
C17A C 1.1435(4) 1.0848(4) 1.5341(3)
H11A H 1.2395 1.1419 1.5570
C18A C 0.9625(4) 0.9892(4) 1.6082(3)
H12A H 0.9374 0.9823 1.6814
N3A N 1.3251(3) 1.2178(3) 2.0212(2)
N4A N 1.2121(3) 1.1517(3) 1.7881(2)
C1A C 1.6901(3) 1.4215(4) 2.3203(3)
C2A C 1.8347(3) 1.4412(3) 2.3159(3)
C3A C 1.9514(3) 1.5680(3) 2.3640(3)
H1A H 1.9503 1.6603 2.4023
C4A C 2.0741(3) 1.5443(3) 2.3495(3)
H2A H 2.1632 1.6190 2.3785
C5A C 2.0469(3) 1.3991(3) 2.2879(3)
C6A C 2.1479(3) 1.3303(3) 2.2572(3)
O1A O 1.4747(3) 1.3276(2) 2.5130(2)
O2A O 1.6150(3) 1.2950(3) 2.2984(3)
O3A O 1.6523(3) 1.5263(3) 2.3414(3)
O4A O 2.1019(3) 1.1946(3) 2.1926(3)
O5A O 2.2796(2) 1.4155(2) 2.2998(2)
S1A S 1.87324(8) 1.29130(8) 2.25091(7)
Cd1A Cd 1.38306(2) 1.25178(2) 2.257059(18)
H13A H 1.427(5) 1.367(5) 2.544(4)
H14A H 1.568(5) 1.394(5) 2.554(4)
N1A_2 N 1.3275(3) 1.0192(3) 2.2282(3)
O4_2 O 0.8981(3) 0.8054(3) 0.8074(3)
O4A_2 O 1.1019(3) 1.1946(3) 2.1926(3)
O5_2 O 0.7204(2) 0.5845(2) 0.7002(2)
O5A_2 O 1.2796(2) 1.4155(2) 2.2998(2)
Cd1_2 Cd -0.38306(2) 0.74822(2) 0.742941(18)
Cd1A_2 Cd 1.38306(2) 2.25178(2) 1.257059(18)
Cd1A_3 Cd 2.38306(2) 1.25178(2) 2.257059(18)
loop_
_geom_bond_atom_site_label_1
_geom_bond_atom_site_label_2
_geom_bond_site_symmetry_1
_geom_bond_site_symmetry_2
C1 C2 1_555 1_555
C2 C3 1_555 1_555
C3 H1 1_555 1_555
C4 C3 1_555 1_555
H2 C4 1_555 1_555
C5 C4 1_555 1_555
C6 C5 1_555 1_555
C7 H3 1_555 1_555
C8 C7 1_555 1_555
H4 C8 1_555 1_555
C9 H5 1_555 1_555
C10 C11 1_555 1_555
C11 H6 1_555 1_555
C12 C10 1_555 1_555
H7 C12 1_555 1_555
C13 H8 1_555 1_555
C14 C13 1_555 1_555
H9 C14 1_555 1_555
C15 H10 1_555 1_555
C16 C17 1_555 1_555
C17 H11 1_555 1_555
C18 C16 1_555 1_555
H12 C18 1_555 1_555
N1 C7 1_555 1_555
N2 C8 1_555 1_555
N3 C13 1_555 1_555
N4 C14 1_555 1_555
O1 Cd1 1_555 1_555
O2 C1 1_555 1_555
O3 C1 1_555 1_555
O4 C6 1_555 1_555
O5 C6 1_555 1_555
S1 C2 1_555 1_555
Cd1 N1 1_555 1_555
H13 O1 1_555 1_555
H14 O1 1_555 1_555
C7A H3A 1_555 1_555
C8A C7A 1_555 1_555
H4A C8A 1_555 1_555
C9A H5A 1_555 1_555
C10A C11A 1_555 1_555
C11A C12 1_555 1_555
H6A C11A 1_555 1_555
C12A C11 1_555 1_555
H7A C12A 1_555 1_555
N1A C7A 1_555 1_555
N2A C8A 1_555 1_555
C13A H8A 1_555 1_555
C14A C13A 1_555 1_555
H9A C14A 1_555 1_555
C15A H10A 1_555 1_555
C16A C17A 1_555 1_555
C17A C18 1_555 1_555
H11A C17A 1_555 1_555
C18A C17 1_555 1_555
H12A C18A 1_555 1_555
N3A C13A 1_555 1_555
N4A C14A 1_555 1_555
C1A C2A 1_555 1_555
C2A C3A 1_555 1_555
C3A H1A 1_555 1_555
C4A C3A 1_555 1_555
H2A C4A 1_555 1_555
C5A C4A 1_555 1_555
C6A C5A 1_555 1_555
O1A Cd1A 1_555 1_555
O2A C1A 1_555 1_555
O3A C1A 1_555 1_555
O4A C6A 1_555 1_555
O5A C6A 1_555 1_555
S1A C2A 1_555 1_555
Cd1A N3A 1_555 1_555
H13A O1A 1_555 1_555
H14A O1A 1_555 1_555
N1A_2 Cd1A 1_555 1_555
O4_2 Cd1 1_555 1_555
O4A_2 Cd1A 1_555 1_555
O5_2 Cd1 1_555 1_555
O5A_2 Cd1A 1_555 1_555
Cd1_2 O4 1_555 1_555
Cd1A_2 N1A 1_555 1_555
Cd1A_3 O4A 1_555 1_555
C5 S1 1_555 1_555
C9 N1 1_555 1_555
C9 N2 1_555 1_555
C10 N2 1_555 1_555
C15 N3 1_555 1_555
C15 N4 1_555 1_555
C16 N4 1_555 1_555
N3 Cd1 1_555 1_555
O2 Cd1 1_555 1_555
O5 Cd1_2 1_555 1_555
C9A N1A 1_555 1_555
C9A N2A 1_555 1_555
C10A C12A 1_555 1_555
C10A N2A 1_555 1_555
C15A N3A 1_555 1_555
C15A N4A 1_555 1_555
C16A C18A 1_555 1_555
C16A N4A 1_555 1_555
C5A S1A 1_555 1_555
O2A Cd1A 1_555 1_555
O5A Cd1A_3 1_555 1_555

#END
