
#######################################################################
#
#                 Cambridge Crystallographic Data Centre
#                                CCDC 
#
#######################################################################
#
# If this CIF has been generated from an entry in the Cambridge 
# Structural Database, then it will include bibliographic, chemical, 
# crystal, experimental, refinement or atomic coordinate data resulting 
# from the CCDC's data processing and validation procedures.
#
#######################################################################

data_GIYHED
_symmetry_cell_setting           triclinic
_symmetry_space_group_name_H-M   'P -1'
_symmetry_Int_Tables_number      2
_space_group_name_Hall           '-P 1'
loop_
_symmetry_equiv_pos_site_id
_symmetry_equiv_pos_as_xyz
1 x,y,z
2 -x,-y,-z
_cell_length_a                   10.1698(5)
_cell_length_b                   10.1653(5)
_cell_length_c                   10.7015(5)
_cell_angle_alpha                108.382(4)
_cell_angle_beta                 109.154(4)
_cell_angle_gamma                104.374(4)
_cell_volume                     912.219
loop_
_atom_site_label
_atom_site_type_symbol
_atom_site_fract_x
_atom_site_fract_y
_atom_site_fract_z
C1 C 0.8041(2) 0.6437(2) 0.74212(19)
C2 C 0.8892(2) 0.55236(19) 0.78306(19)
C3 C 1.0412(2) 0.5906(2) 0.8504(2)
H1 H 1.1130 0.6851 0.8799
C4 C 1.0782(2) 0.4714(2) 0.8706(2)
H2 H 1.1768 0.4781 0.9133
C5 C 0.9530(2) 0.3454(2) 0.82041(19)
C6 C 0.9453(2) 0.20028(19) 0.82840(19)
C7 C 0.4883(2) 0.9355(2) 0.8096(3)
H3 H 0.5496 1.0329 0.8827
C8 C 0.3388(2) 0.8662(2) 0.7661(3)
H4 H 0.2788 0.9057 0.8026
C9 C 0.4155(2) 0.7151(2) 0.6386(2)
H5 H 0.4149 0.6308 0.5706
C10 C 0.1435(2) 0.6103(2) 0.5765(2)
C11 C 0.1230(2) 0.4631(2) 0.5496(2)
H6 H 0.2061 0.4389 0.5836
C12 C -0.0214(2) 0.3514(2) 0.4722(2)
H7 H -0.0361 0.2518 0.4530
C13 C 0.8134(3) 0.9171(3) 0.4929(2)
H8 H 0.8963 1.0070 0.5590
C14 C 0.7737(3) 0.8478(3) 0.3482(2)
H9 H 0.8227 0.8797 0.2970
C15 C 0.6151(2) 0.7181(2) 0.4051(2)
H10 H 0.5344 0.6426 0.3966
C16 C 0.5689(2) 0.6082(2) 0.1431(2)
C17 C 0.4950(2) 0.4601(2) 0.1111(2)
H11 H 0.4913 0.4335 0.1858
C18 C 0.4260(2) 0.3506(2) -0.0327(2)
H12 H 0.3767 0.2502 -0.0547
N1 N 0.53615(17) 0.84029(17) 0.72955(17)
N2 N 0.29325(17) 0.72554(18) 0.65697(17)
N3 N 0.71398(18) 0.83629(18) 0.52870(17)
N4 N 0.64606(18) 0.72043(18) 0.29188(17)
O1 O 0.82725(18) 0.98964(18) 1.00704(17)
O2 O 0.88156(15) 0.78421(14) 0.79185(15)
O3 O 0.66582(16) 0.58193(15) 0.66366(16)
O4 O 1.06239(18) 0.17653(17) 0.86305(18)
O5 O 0.81479(17) 0.11107(14) 0.79499(16)
S1 S 0.78925(5) 0.37028(5) 0.74556(5)
Zn1 Zn 0.74905(2) 0.89526(2) 0.74944(2)
H13 H 0.859(3) 0.931(3) 1.032(3)
H14 H 0.903(4) 1.071(4) 1.051(3)
C7A C -0.4883(2) 0.0645(2) 0.1904(3)
H3A H -0.5496 -0.0329 0.1173
C8A C -0.3388(2) 0.1338(2) 0.2339(3)
H4A H -0.2788 0.0943 0.1974
C9A C -0.4155(2) 0.2849(2) 0.3614(2)
H5A H -0.4149 0.3692 0.4294
C10A C -0.1435(2) 0.3897(2) 0.4235(2)
C11A C -0.1230(2) 0.5369(2) 0.4504(2)
H6A H -0.2061 0.5611 0.4164
C12A C 0.0214(2) 0.6486(2) 0.5278(2)
H7A H 0.0361 0.7482 0.5470
N1A N -0.53615(17) 0.15971(17) 0.27045(17)
N2A N -0.29325(17) 0.27446(18) 0.34303(17)
C13A C 0.1866(3) 0.0829(3) -0.4929(2)
H8A H 0.1037 -0.0070 -0.5590
C14A C 0.2263(3) 0.1522(3) -0.3482(2)
H9A H 0.1773 0.1203 -0.2970
C15A C 0.3849(2) 0.2819(2) -0.4051(2)
H10A H 0.4656 0.3574 -0.3966
C16A C 0.4311(2) 0.3918(2) -0.1431(2)
C17A C 0.5050(2) 0.5399(2) -0.1111(2)
H11A H 0.5087 0.5665 -0.1858
C18A C 0.5740(2) 0.6494(2) 0.0327(2)
H12A H 0.6233 0.7498 0.0547
N3A N 0.28602(18) 0.16371(18) -0.52870(17)
N4A N 0.35394(18) 0.27957(18) -0.29188(17)
C1A C -0.8041(2) 0.3563(2) 0.25788(19)
C2A C -0.8892(2) 0.44764(19) 0.21694(19)
C3A C -1.0412(2) 0.4094(2) 0.1496(2)
H1A H -1.1130 0.3149 0.1201
C4A C -1.0782(2) 0.5286(2) 0.1294(2)
H2A H -1.1768 0.5219 0.0867
C5A C -0.9530(2) 0.6546(2) 0.17959(19)
C6A C -0.9453(2) 0.79972(19) 0.17160(19)
O1A O -0.82725(18) 0.01036(18) -0.00704(17)
O2A O -0.88156(15) 0.21579(14) 0.20815(15)
O3A O -0.66582(16) 0.41807(15) 0.33634(16)
O4A O -1.06239(18) 0.82347(17) 0.13695(18)
O5A O -0.81479(17) 0.88893(14) 0.20501(16)
S1A S -0.78925(5) 0.62972(5) 0.25444(5)
Zn1A Zn -0.74905(2) 0.10474(2) 0.25056(2)
H13A H -0.859(3) 0.069(3) -0.032(3)
H14A H -0.903(4) -0.071(4) -0.051(3)
N3A_2 N -0.71398(18) 0.16371(18) 0.47130(17)
O5_2 O 0.81479(17) 1.11107(14) 0.79499(16)
O5A_2 O -0.81479(17) -0.11107(14) 0.20501(16)
Zn1_2 Zn 0.74905(2) -0.10474(2) 0.74944(2)
Zn1A_2 Zn -0.74905(2) 1.10474(2) 0.25056(2)
Zn1A_3 Zn 0.25095(2) 0.10474(2) -0.74944(2)
loop_
_geom_bond_atom_site_label_1
_geom_bond_atom_site_label_2
_geom_bond_site_symmetry_1
_geom_bond_site_symmetry_2
C1 C2 1_555 1_555
C2 C3 1_555 1_555
C3 H1 1_555 1_555
C4 C3 1_555 1_555
H2 C4 1_555 1_555
C5 C4 1_555 1_555
C6 C5 1_555 1_555
C7 H3 1_555 1_555
C8 C7 1_555 1_555
H4 C8 1_555 1_555
C9 H5 1_555 1_555
C10 C11 1_555 1_555
C11 H6 1_555 1_555
C12 C11 1_555 1_555
H7 C12 1_555 1_555
C13 H8 1_555 1_555
C14 C13 1_555 1_555
H9 C14 1_555 1_555
C15 H10 1_555 1_555
C16 C17 1_555 1_555
C17 H11 1_555 1_555
C18 C17 1_555 1_555
H12 C18 1_555 1_555
N1 C7 1_555 1_555
N2 C8 1_555 1_555
N3 C13 1_555 1_555
N4 C14 1_555 1_555
O1 Zn1 1_555 1_555
O2 C1 1_555 1_555
O3 C1 1_555 1_555
O4 C6 1_555 1_555
O5 C6 1_555 1_555
S1 C2 1_555 1_555
Zn1 N1 1_555 1_555
H13 O1 1_555 1_555
H14 O1 1_555 1_555
C7A H3A 1_555 1_555
C8A C7A 1_555 1_555
H4A C8A 1_555 1_555
C9A H5A 1_555 1_555
C10A C12 1_555 1_555
C11A C10A 1_555 1_555
H6A C11A 1_555 1_555
C12A C10 1_555 1_555
H7A C12A 1_555 1_555
N1A C7A 1_555 1_555
N2A C8A 1_555 1_555
C13A H8A 1_555 1_555
C14A C13A 1_555 1_555
H9A C14A 1_555 1_555
C15A H10A 1_555 1_555
C16A C18 1_555 1_555
C17A C16A 1_555 1_555
H11A C17A 1_555 1_555
C18A C16 1_555 1_555
H12A C18A 1_555 1_555
N3A C13A 1_555 1_555
N4A C14A 1_555 1_555
C1A C2A 1_555 1_555
C2A C3A 1_555 1_555
C3A H1A 1_555 1_555
C4A C3A 1_555 1_555
H2A C4A 1_555 1_555
C5A C4A 1_555 1_555
C6A C5A 1_555 1_555
O1A Zn1A 1_555 1_555
O2A C1A 1_555 1_555
O3A C1A 1_555 1_555
O4A C6A 1_555 1_555
O5A C6A 1_555 1_555
S1A C2A 1_555 1_555
Zn1A N1A 1_555 1_555
H13A O1A 1_555 1_555
H14A O1A 1_555 1_555
N3A_2 Zn1A 1_555 1_555
O5_2 Zn1 1_555 1_555
O5A_2 Zn1A 1_555 1_555
Zn1_2 O5 1_555 1_555
Zn1A_2 O5A 1_555 1_555
Zn1A_3 N3A 1_555 1_555
C5 S1 1_555 1_555
C9 N1 1_555 1_555
C9 N2 1_555 1_555
C10 N2 1_555 1_555
C15 N3 1_555 1_555
C15 N4 1_555 1_555
C16 N4 1_555 1_555
N3 Zn1 1_555 1_555
O2 Zn1 1_555 1_555
C9A N1A 1_555 1_555
C9A N2A 1_555 1_555
C10A N2A 1_555 1_555
C11A C12A 1_555 1_555
C15A N3A 1_555 1_555
C15A N4A 1_555 1_555
C16A N4A 1_555 1_555
C17A C18A 1_555 1_555
C5A S1A 1_555 1_555
O2A Zn1A 1_555 1_555

#END
