
#######################################################################
#
#                 Cambridge Crystallographic Data Centre
#                                CCDC 
#
#######################################################################
#
# If this CIF has been generated from an entry in the Cambridge 
# Structural Database, then it will include bibliographic, chemical, 
# crystal, experimental, refinement or atomic coordinate data resulting 
# from the CCDC's data processing and validation procedures.
#
#######################################################################

data_GIYHUT
_symmetry_cell_setting           orthorhombic
_symmetry_space_group_name_H-M   'P n n 2'
_symmetry_Int_Tables_number      34
_space_group_name_Hall           'P 2 -2n'
loop_
_symmetry_equiv_pos_site_id
_symmetry_equiv_pos_as_xyz
1 x,y,z
2 -x,-y,z
3 1/2-x,1/2+y,1/2+z
4 1/2+x,1/2-y,1/2+z
_cell_length_a                   15.380
_cell_length_b                   17.156
_cell_length_c                   7.906
_cell_angle_alpha                90
_cell_angle_beta                 90
_cell_angle_gamma                90
_cell_volume                     2086.07
loop_
_atom_site_label
_atom_site_type_symbol
_atom_site_fract_x
_atom_site_fract_y
_atom_site_fract_z
Cd1 Cd 0.077608(6) 0.245796(5) 0.24784(4)
S1 S 0.21628(3) 0.52373(2) 0.51939(6)
O1 O 0.08344(8) 0.39774(8) 0.4167(2)
C1 C -0.17742(12) 0.00521(11) 0.5640(2)
H1 H -0.1205 0.0001 0.6024
O2 O 0.18539(9) 0.31069(7) 0.35107(18)
C2 C -0.07873(13) 0.25153(10) 0.5218(3)
H2 H -0.0666 0.3026 0.5531
C3 C 0.37220(12) 0.47035(10) 0.5207(3)
H3 H 0.4322 0.4665 0.5326
O3 O 0.30789(9) 0.66558(7) 0.65293(18)
N1 N -0.14298(10) 0.13873(8) 0.49225(19)
C4 C 0.36011(12) 0.61317(10) 0.6092(2)
N2 N -0.37877(10) -0.10947(8) 0.5160(2)
C5 C 0.16037(12) 0.37649(10) 0.4074(2)
O4 O 0.44147(9) 0.62219(8) 0.6135(2)
N3 N -0.02572(10) 0.20471(9) 0.42467(19)
C6 C 0.23259(11) 0.42833(10) 0.4615(2)
C7 C -0.06670(12) 0.13740(11) 0.4093(3)
H4 H -0.0456 0.0948 0.3491
C8 C -0.44586(12) -0.12109(10) 0.6227(2)
H5 H -0.4606 -0.0881 0.7116
C9 C 0.32580(11) 0.53723(10) 0.5513(2)
C10 C -0.20526(12) 0.07610(10) 0.4992(2)
C11 C -0.28917(12) 0.08824(10) 0.4384(2)
C12 C -0.31783(12) -0.04548(10) 0.5155(2)
C13 C -0.23374(12) -0.05855(11) 0.5725(2)
N4 N -0.48793(10) -0.18603(8) 0.58319(19)
C14 C -0.37789(13) -0.16997(11) 0.4024(3)
H6 H -0.3388 -0.1774 0.3141
C15 C -0.31708(14) 0.16284(11) 0.3550(3)
H7 H -0.3248 0.2025 0.4395
H8 H -0.3710 0.1546 0.2964
H9 H -0.2733 0.1791 0.2759
C16 C 0.31818(12) 0.40792(10) 0.4691(2)
H10 H 0.3388 0.3584 0.4433
C17 C -0.20405(14) -0.13594(11) 0.6396(3)
H11 H -0.2046 -0.1737 0.5499
H12 H -0.1461 -0.1311 0.6834
H13 H -0.2425 -0.1525 0.7282
C18 C -0.34576(12) 0.02536(10) 0.4499(2)
H14 H -0.4029 0.0307 0.4133
C19 C -0.44538(14) -0.21666(12) 0.4448(3)
H15 H -0.4607 -0.2624 0.3891
C20 C -0.15142(13) 0.21132(11) 0.5644(2)
H16 H -0.1977 0.2292 0.6294
Cd1B Cd -0.577608(6) -0.254204(5) 0.74784(4)
Cd1B_2 Cd 0.422392(6) 0.745796(5) 0.74784(4)
O3B O 0.19211(9) 0.16558(7) 0.15293(18)
O4B O 0.05853(9) 0.12219(8) 0.1135(2)
N4B N -0.01207(10) 0.31397(8) 0.08319(19)
O5 O -0.5000 0.0000 0.1554(3)
H17 H -0.4754(19) 0.0220(17) 0.096(3)
H17A H -0.5246(19) -0.0220(17) 0.096(3)
loop_
_geom_bond_atom_site_label_1
_geom_bond_atom_site_label_2
_geom_bond_site_symmetry_1
_geom_bond_site_symmetry_2
Cd1 O2 1_555 1_555
S1 C6 1_555 1_555
O1 C5 1_555 1_555
C1 H1 1_555 1_555
O2 C5 1_555 1_555
C2 H2 1_555 1_555
C3 H3 1_555 1_555
O3 C4 1_555 1_555
N1 C7 1_555 1_555
C4 O4 1_555 1_555
N2 C8 1_555 1_555
C5 C6 1_555 1_555
O4 Cd1B_2 1_555 1_555
N3 Cd1 1_555 1_555
C6 C16 1_555 1_555
C7 N3 1_555 1_555
H4 C7 1_555 1_555
C8 H5 1_555 1_555
C9 S1 1_555 1_555
C10 C1 1_555 1_555
C11 C10 1_555 1_555
C12 N2 1_555 1_555
C13 C1 1_555 1_555
N4 C8 1_555 1_555
C14 N2 1_555 1_555
H6 C14 1_555 1_555
C15 C11 1_555 1_555
H7 C15 1_555 1_555
H8 C15 1_555 1_555
H9 C15 1_555 1_555
C16 C3 1_555 1_555
H10 C16 1_555 1_555
C17 C13 1_555 1_555
H11 C17 1_555 1_555
H12 C17 1_555 1_555
H13 C17 1_555 1_555
C18 C11 1_555 1_555
H14 C18 1_555 1_555
C19 N4 1_555 1_555
H15 C19 1_555 1_555
C20 C2 1_555 1_555
H16 C20 1_555 1_555
O5 H17 1_555 1_555
Cd1B N4 1_555 1_555
Cd1B_2 O3 1_555 1_555
O3B Cd1 1_555 1_555
O4B Cd1 1_555 1_555
N4B Cd1 1_555 1_555
H17A O5 1_555 1_555
C2 N3 1_555 1_555
C3 C9 1_555 1_555
N1 C10 1_555 1_555
N1 C20 1_555 1_555
C4 C9 1_555 1_555
C12 C13 1_555 1_555
C12 C18 1_555 1_555
C14 C19 1_555 1_555

#END
