
#######################################################################
#
#                 Cambridge Crystallographic Data Centre
#                                CCDC 
#
#######################################################################
#
# If this CIF has been generated from an entry in the Cambridge 
# Structural Database, then it will include bibliographic, chemical, 
# crystal, experimental, refinement or atomic coordinate data resulting 
# from the CCDC's data processing and validation procedures.
#
#######################################################################

data_GIYKAB
_symmetry_cell_setting           monoclinic
_symmetry_space_group_name_H-M   'C c'
_symmetry_Int_Tables_number      9
_space_group_name_Hall           'C -2yc'
loop_
_symmetry_equiv_pos_site_id
_symmetry_equiv_pos_as_xyz
1 x,y,z
2 x,-y,1/2+z
3 1/2+x,1/2+y,z
4 1/2+x,1/2-y,1/2+z
_cell_length_a                   7.81357(9)
_cell_length_b                   20.39273(27)
_cell_length_c                   6.84900(8)
_cell_angle_alpha                90
_cell_angle_beta                 92.4813(7)
_cell_angle_gamma                90
_cell_volume                     1090.3
loop_
_atom_site_label
_atom_site_type_symbol
_atom_site_fract_x
_atom_site_fract_y
_atom_site_fract_z
Zn1 Zn 0.0000 0.03466(8) 0.0000
C1 C -0.3365(8) -0.11186(21) 0.0735(7)
C2 C -0.4933(10) -0.07032(12) 0.0108(9)
H1 H -0.5442(11) -0.05223(21) 0.1258(10)
H2 H -0.4576(12) -0.03407(11) -0.0696(11)
C3 C -0.6264(8) -0.11170(21) -0.1041(7)
C4 C -0.5430(8) -0.13933(26) -0.2882(7)
H3 H -0.6257(8) -0.1656(4) -0.3634(7)
H4 H -0.5069(10) -0.10348(33) -0.3701(7)
C5 C -0.3879(7) -0.18153(23) -0.2250(7)
H5 H -0.3358(8) -0.19928(35) -0.3415(9)
C6 C -0.2556(7) -0.13949(27) -0.1101(8)
H6 H -0.2181(9) -0.10372(34) -0.1914(9)
H7 H -0.1564(7) -0.1660(4) -0.0725(9)
C7 C -0.3960(8) -0.16942(26) 0.2017(7)
H8 H -0.2984(8) -0.19629(33) 0.2425(9)
H9 H -0.4473(9) -0.1524(4) 0.3178(6)
C8 C -0.6834(7) -0.16921(27) 0.0239(8)
H10 H -0.7361(7) -0.1525(4) 0.1394(9)
H11 H -0.7671(7) -0.19582(34) -0.0487(10)
C9 C -0.4451(8) -0.23803(12) -0.0976(10)
H12 H -0.3472(10) -0.26506(18) -0.0591(12)
H13 H -0.5271(10) -0.26517(17) -0.1710(12)
C10 C -0.5271(8) -0.21097(18) 0.0839(9)
H14 H -0.5636(10) -0.24762(25) 0.1649(11)
C11 C -0.2108(10) -0.0713(4) 0.1965(10)
C12 C -0.7800(10) -0.0699(4) -0.1633(11)
O1 O -0.1674(14) -0.0190(5) 0.1223(15)
O2 O -0.1525(12) -0.0911(4) 0.3545(11)
O3 O -0.8213(11) -0.0164(4) -0.0769(12)
O4 O -0.8982(15) -0.0894(4) -0.2926(14)
Zn1A Zn 0.0000 -0.03466(8) 0.5000
Zn1_2 Zn -1.0000 0.03466(8) 0.0000
Zn1A_2 Zn -1.0000 -0.03466(8) -0.5000
O2A O -0.1525(12) 0.0911(4) -0.1455(11)
O3_2 O 0.1787(11) -0.0164(4) -0.0769(12)
O4A O 0.1018(15) 0.0894(4) 0.2074(14)
loop_
_geom_bond_atom_site_label_1
_geom_bond_atom_site_label_2
_geom_bond_site_symmetry_1
_geom_bond_site_symmetry_2
Zn1 O1 1_555 1_555
C1 C2 1_555 1_555
C2 H1 1_555 1_555
H2 C2 1_555 1_555
C3 C2 1_555 1_555
C4 C3 1_555 1_555
H3 C4 1_555 1_555
H4 C4 1_555 1_555
C5 C4 1_555 1_555
H5 C5 1_555 1_555
C6 C1 1_555 1_555
H6 C6 1_555 1_555
H7 C6 1_555 1_555
C7 C1 1_555 1_555
H8 C7 1_555 1_555
H9 C7 1_555 1_555
C8 C3 1_555 1_555
H10 C8 1_555 1_555
H11 C8 1_555 1_555
C9 C5 1_555 1_555
H12 C9 1_555 1_555
H13 C9 1_555 1_555
C10 C7 1_555 1_555
H14 C10 1_555 1_555
C11 C1 1_555 1_555
C12 C3 1_555 1_555
O1 C11 1_555 1_555
O2 C11 1_555 1_555
O3 C12 1_555 1_555
O4 C12 1_555 1_555
Zn1A O2 1_555 1_555
Zn1_2 O3 1_555 1_555
Zn1A_2 O4 1_555 1_555
O2A Zn1 1_555 1_555
O3_2 Zn1 1_555 1_555
O4A Zn1 1_555 1_555
C5 C6 1_555 1_555
C8 C10 1_555 1_555
C9 C10 1_555 1_555

#END
