
#######################################################################
#
#                 Cambridge Crystallographic Data Centre
#                                CCDC 
#
#######################################################################
#
# If this CIF has been generated from an entry in the Cambridge 
# Structural Database, then it will include bibliographic, chemical, 
# crystal, experimental, refinement or atomic coordinate data resulting 
# from the CCDC's data processing and validation procedures.
#
#######################################################################

data_GIYPIN
_symmetry_cell_setting           orthorhombic
_symmetry_space_group_name_H-M   'P 21 21 21'
_symmetry_Int_Tables_number      19
_space_group_name_Hall           'P 2ac 2ab'
loop_
_symmetry_equiv_pos_site_id
_symmetry_equiv_pos_as_xyz
1 x,y,z
2 1/2-x,-y,1/2+z
3 1/2+x,1/2-y,-z
4 -x,1/2+y,1/2-z
_cell_length_a                   7.908(5)
_cell_length_b                   11.189(6)
_cell_length_c                   18.206(7)
_cell_angle_alpha                90
_cell_angle_beta                 90
_cell_angle_gamma                90
_cell_volume                     1610.91
loop_
_atom_site_label
_atom_site_type_symbol
_atom_site_fract_x
_atom_site_fract_y
_atom_site_fract_z
Co1 Co -0.37794(5) 0.28770(4) 0.14925(2)
Co2 Co -0.10584(5) 0.71655(4) 0.13907(2)
C1 C -0.18724(42) 0.34215(25) 0.27927(14)
C2 C -0.29489(42) 0.45452(25) 0.27605(15)
C3 C -0.18869(43) 0.56877(25) 0.27417(14)
C4 C -0.30246(41) 0.67856(25) 0.27028(15)
C5 C -0.43926(45) 0.39337(25) 0.00766(15)
C6 C -0.25594(42) 0.42324(26) 0.01544(15)
C7 C -0.23070(45) 0.56068(27) 0.01532(15)
C8 C -0.04720(43) 0.59079(26) 0.00561(16)
O1 O -0.08160(30) 0.33682(17) 0.33055(10)
O2 O -0.21120(29) 0.26011(17) 0.23300(10)
O3 O -0.40450(31) 0.44804(18) 0.21257(11)
O4 O -0.07207(30) 0.56932(18) 0.21400(11)
O5 O -0.41346(30) 0.68590(17) 0.31847(9)
O6 O -0.27584(29) 0.75539(16) 0.22010(10)
O7 O -0.51028(31) 0.42381(19) -0.05102(11)
O8 O -0.51554(29) 0.33726(19) 0.05906(10)
O9 O -0.19227(29) 0.37146(20) 0.08174(10)
O10 O -0.29055(30) 0.61249(20) 0.08244(10)
O11 O 0.01812(31) 0.56197(20) -0.05426(11)
O12 O 0.03469(29) 0.64076(19) 0.05694(10)
H1 H -0.36600(42) 0.45681(25) 0.32011(15)
H2 H -0.12350(43) 0.57304(25) 0.31988(14)
H3 H -0.19436(42) 0.38911(26) -0.02629(15)
H4 H -0.29466(45) 0.59487(27) -0.02572(15)
H5 H -0.5080(35) 0.4721(46) 0.2224(22)
H6 H 0.0342(29) 0.5521(46) 0.2170(22)
H7 H -0.0796(26) 0.3629(45) 0.0813(24)
H8 H -0.3943(34) 0.6344(45) 0.0725(23)
O13 O -0.30189(30) 0.12255(18) 0.10982(11)
H9 H -0.3920(38) 0.0898(42) 0.0861(20)
H10 H -0.2104(35) 0.1237(41) 0.0790(19)
O14 O -0.17059(34) 0.85553(20) 0.07034(13)
H11 H -0.0981(46) 0.9172(32) 0.0711(22)
H12 H -0.2784(27) 0.8793(40) 0.0628(23)
Co1C Co -0.62206(5) 0.78770(4) 0.35075(2)
Co2C Co 0.10584(5) 0.21655(4) 0.36093(2)
O1C O 0.08160(30) 0.83682(17) 0.16945(10)
O5C O -0.58654(30) 0.18590(17) 0.18153(9)
O15 O 0.25833(40) -1.50031(22) 0.25258(11)
H13 H 0.2946(67) -1.4644(33) 0.2960(16)
H14 H 0.2174(68) -1.5726(24) 0.2627(20)
O16 O -0.62333(41) -1.36911(32) 0.10671(15)
H15 H -0.5424(44) -1.3259(42) 0.0829(21)
H16 H -0.7200(33) -1.3662(44) 0.0794(20)
O17 O 0.14113(39) -1.62722(28) 0.09638(16)
H17 H 0.2419(37) -1.6646(42) 0.0915(21)
H18 H 0.1034(57) -1.6123(43) 0.0490(14)
loop_
_geom_bond_atom_site_label_1
_geom_bond_atom_site_label_2
_geom_bond_site_symmetry_1
_geom_bond_site_symmetry_2
Co1 O2 1_555 1_555
Co2 O4 1_555 1_555
C1 C2 1_555 1_555
C2 C3 1_555 1_555
C3 C4 1_555 1_555
C4 O5 1_555 1_555
C5 C6 1_555 1_555
C6 C7 1_555 1_555
C7 C8 1_555 1_555
C8 O11 1_555 1_555
O1 C1 1_555 1_555
O2 C1 1_555 1_555
O3 Co1 1_555 1_555
O4 C3 1_555 1_555
O5 Co1C 1_555 1_555
O6 Co2 1_555 1_555
O7 C5 1_555 1_555
O8 Co1 1_555 1_555
O9 Co1 1_555 1_555
O10 Co2 1_555 1_555
O12 Co2 1_555 1_555
H1 C2 1_555 1_555
H2 C3 1_555 1_555
H3 C6 1_555 1_555
H4 C7 1_555 1_555
H5 O3 1_555 1_555
H6 O4 1_555 1_555
H7 O9 1_555 1_555
H8 O10 1_555 1_555
O13 Co1 1_555 1_555
H9 O13 1_555 1_555
H10 O13 1_555 1_555
O14 Co2 1_555 1_555
H11 O14 1_555 1_555
H12 O14 1_555 1_555
O15 H13 1_555 1_555
H14 O15 1_555 1_555
O16 H15 1_555 1_555
H16 O16 1_555 1_555
O17 H17 1_555 1_555
H18 O17 1_555 1_555
Co2C O1 1_555 1_555
O1C Co2 1_555 1_555
O5C Co1 1_555 1_555
C2 O3 1_555 1_555
C4 O6 1_555 1_555
C5 O8 1_555 1_555
C6 O9 1_555 1_555
C7 O10 1_555 1_555
C8 O12 1_555 1_555

#END
