
#######################################################################
#
#                 Cambridge Crystallographic Data Centre
#                                CCDC 
#
#######################################################################
#
# If this CIF has been generated from an entry in the Cambridge 
# Structural Database, then it will include bibliographic, chemical, 
# crystal, experimental, refinement or atomic coordinate data resulting 
# from the CCDC's data processing and validation procedures.
#
#######################################################################

data_GIYPIN02
_symmetry_cell_setting           orthorhombic
_symmetry_space_group_name_H-M   'P 21 21 2'
_symmetry_Int_Tables_number      18
_space_group_name_Hall           'P 2 2ab'
loop_
_symmetry_equiv_pos_site_id
_symmetry_equiv_pos_as_xyz
1 x,y,z
2 -x,-y,z
3 1/2-x,1/2+y,-z
4 1/2+x,1/2-y,-z
_cell_length_a                   11.0924(11)
_cell_length_b                   7.8517(8)
_cell_length_c                   9.0171(9)
_cell_angle_alpha                90
_cell_angle_beta                 90
_cell_angle_gamma                90
_cell_volume                     785.337
loop_
_atom_site_label
_atom_site_type_symbol
_atom_site_fract_x
_atom_site_fract_y
_atom_site_fract_z
C1 C 0.1691(5) 1.0597(6) 0.5474(6)
C2 C 0.0581(5) 0.9478(6) 0.5476(5)
H1 H 0.0594 0.8795 0.6386
C3 C 0.1011(4) 0.8028(6) 0.0171(5)
C4 C 0.0691(4) 0.9880(6) 0.0353(5)
H2 H 0.1033 1.0521 -0.0479
Co1 Co 0.21467(5) 0.86593(7) 0.28925(7)
O1 O 0.2513(3) 1.0312(5) 0.4519(4)
O2 O 0.1728(3) 1.1741(5) 0.6433(5)
O3 O 0.0625(3) 0.8330(4) 0.4239(3)
O4 O 0.1558(3) 0.7240(4) 0.1186(4)
O5 O 0.1214(3) 1.0498(4) 0.1709(3)
O6 O 0.0696(3) 0.7356(4) -0.1041(4)
O9 O 0.3647(4) 0.9341(6) 0.1778(9)
H3 H 0.382(9) 1.033(5) 0.157(14)
H4 H 0.429(5) 0.886(11) 0.167(13)
C1A C -0.1691(5) 0.9403(6) 0.5474(6)
C2A C -0.0581(5) 1.0522(6) 0.5476(5)
H1A H -0.0594 1.1205 0.6386
C3A C -0.1011(4) 1.1972(6) 0.0171(5)
C4A C -0.0691(4) 1.0120(6) 0.0353(5)
H2A H -0.1033 0.9479 -0.0479
Co1A Co -0.21467(5) 1.13407(7) 0.28925(7)
Co1B Co 0.28533(5) 1.36593(7) 0.71075(7)
Co1C Co -0.28533(5) 0.63407(7) 0.71075(7)
O1A O -0.2513(3) 0.9688(5) 0.4519(4)
O2A O -0.1728(3) 0.8259(5) 0.6433(5)
O2B O 0.3272(3) 0.6741(5) 0.3567(5)
O2C O -0.3272(3) 1.3259(5) 0.3567(5)
O3A O -0.0625(3) 1.1670(4) 0.4239(3)
O4A O -0.1558(3) 1.2760(4) 0.1186(4)
O5A O -0.1214(3) 0.9502(4) 0.1709(3)
O6A O -0.0696(3) 1.2644(4) -0.1041(4)
O9A O -0.3647(4) 1.0659(6) 0.1778(9)
H3A H -0.382(9) 0.967(5) 0.157(14)
H4A H -0.429(5) 1.114(11) 0.167(13)
O7 O 0.5000 0.0000 0.4940(6)
H7 H 0.51(4) 0.12(3) 0.51(3)
H7A H 0.49(4) -0.12(3) 0.51(3)
O8 O 0.1294(5) 0.3830(6) 0.2082(6)
H5 H 0.153(9) 0.478(6) 0.177(13)
H6 H 0.189(7) 0.322(10) 0.187(15)
loop_
_geom_bond_atom_site_label_1
_geom_bond_atom_site_label_2
_geom_bond_site_symmetry_1
_geom_bond_site_symmetry_2
C1 C2 1_555 1_555
C2 H1 1_555 1_555
C3 C4 1_555 1_555
C4 H2 1_555 1_555
Co1 O1 1_555 1_555
O1 C1 1_555 1_555
O2 C1 1_555 1_555
O3 C2 1_555 1_555
O4 C3 1_555 1_555
O5 C4 1_555 1_555
O6 C3 1_555 1_555
O7 H7 1_555 1_555
O8 H5 1_555 1_555
O9 Co1 1_555 1_555
H3 O9 1_555 1_555
H4 O9 1_555 1_555
H6 O8 1_555 1_555
C1A C2A 1_555 1_555
C2A C2 1_555 1_555
H1A C2A 1_555 1_555
C3A C4A 1_555 1_555
C4A C4 1_555 1_555
H2A C4A 1_555 1_555
Co1A O1A 1_555 1_555
Co1B O2 1_555 1_555
Co1C O2A 1_555 1_555
O1A C1A 1_555 1_555
O2A C1A 1_555 1_555
O2B Co1 1_555 1_555
O2C Co1A 1_555 1_555
O3A C2A 1_555 1_555
O4A C3A 1_555 1_555
O5A C4A 1_555 1_555
O6A C3A 1_555 1_555
O9A Co1A 1_555 1_555
H3A O9A 1_555 1_555
H4A O9A 1_555 1_555
H7A O7 1_555 1_555
Co1 O3 1_555 1_555
Co1 O4 1_555 1_555
Co1 O5 1_555 1_555
Co1A O3A 1_555 1_555
Co1A O4A 1_555 1_555
Co1A O5A 1_555 1_555

#END
