
#######################################################################
#
#                 Cambridge Crystallographic Data Centre
#                                CCDC 
#
#######################################################################
#
# If this CIF has been generated from an entry in the Cambridge 
# Structural Database, then it will include bibliographic, chemical, 
# crystal, experimental, refinement or atomic coordinate data resulting 
# from the CCDC's data processing and validation procedures.
#
#######################################################################

data_GIYPIN01
_symmetry_cell_setting           orthorhombic
_symmetry_space_group_name_H-M   'P 21 21 21'
_symmetry_Int_Tables_number      19
_space_group_name_Hall           'P 2ac 2ab'
loop_
_symmetry_equiv_pos_site_id
_symmetry_equiv_pos_as_xyz
1 x,y,z
2 1/2-x,-y,1/2+z
3 -x,1/2+y,1/2-z
4 1/2+x,1/2-y,-z
_cell_length_a                   7.9172(16)
_cell_length_b                   11.204(2)
_cell_length_c                   18.209(4)
_cell_angle_alpha                90
_cell_angle_beta                 90
_cell_angle_gamma                90
_cell_volume                     1615.22
loop_
_atom_site_label
_atom_site_type_symbol
_atom_site_fract_x
_atom_site_fract_y
_atom_site_fract_z
Co1 Co -0.37763(8) 0.21218(6) -0.14946(3)
Co2 Co -0.10567(8) -0.21677(6) -0.13916(3)
C1 C -0.1862(7) 0.1581(5) -0.2799(3)
C2 C -0.2951(7) 0.0449(5) -0.2748(3)
H1 H -0.3661 0.0418 -0.3189
C3 C -0.1880(7) -0.0688(4) -0.2734(3)
H2 H -0.1229 -0.0722 -0.3191
C4 C -0.3025(7) -0.1795(4) -0.2703(3)
C5 C -0.0457(7) -0.0907(4) -0.0049(3)
C6 C -0.2326(7) -0.0601(5) -0.0154(3)
H3 H -0.2970 -0.0934 0.0257
C7 C -0.2554(7) 0.0773(5) -0.0160(3)
H4 H -0.1931 0.1113 0.0255
C8 C -0.4413(7) 0.1073(4) -0.0073(3)
O1 O -0.2119(5) 0.2400(3) -0.2338(2)
O2 O -0.4044(5) 0.0517(3) -0.21273(19)
O3 O -0.0733(5) -0.0690(3) -0.21434(19)
O4 O -0.2751(5) -0.2555(3) -0.2203(2)
O5 O 0.0352(5) -0.1410(4) -0.05680(19)
O6 O -0.2912(5) -0.1130(3) -0.0821(2)
O7 O -0.1933(5) 0.1282(4) -0.0819(2)
O8 O -0.5150(5) 0.1627(4) -0.05864(19)
O9 O -0.0816(5) 0.1629(3) -0.3306(2)
O10 O -0.4144(5) -0.1857(3) -0.3183(2)
O11 O 0.0188(5) -0.0621(4) 0.0542(2)
O12 O -0.5094(5) 0.0760(4) 0.0505(2)
O13 O -0.3028(5) 0.3782(3) -0.1104(2)
H5 H -0.3596 0.3947 -0.0721
H6 H -0.1983 0.3762 -0.0998
O14 O -0.1693(6) -0.3562(4) -0.0697(2)
H7 H -0.2324 -0.3297 -0.0356
H8 H -0.2221 -0.4092 -0.0939
Co1B Co -0.62237(8) -0.28782(6) -0.35054(3)
Co2B Co 0.10567(8) 0.28323(6) -0.36084(3)
O9B O 0.0816(5) -0.3371(3) -0.1694(2)
O10B O -0.5856(5) 0.3143(3) -0.1817(2)
O15 O -0.3572(7) -0.6296(6) -0.9039(3)
H9 H -0.4471 -0.6217 -0.9289
H10 H -0.3581 -0.5805 -0.8684
O16 O -0.2429(5) -0.5018(3) -0.7471(3)
H11 H -0.1441 -0.4739 -0.7407
H12 H -0.3046 -0.4837 -0.7106
O17 O -0.8754(6) -0.8681(6) -0.6063(3)
H13 H -0.9153 -0.7988 -0.6141
H14 H -0.9488 -0.9203 -0.6177
loop_
_geom_bond_atom_site_label_1
_geom_bond_atom_site_label_2
_geom_bond_site_symmetry_1
_geom_bond_site_symmetry_2
Co1 O1 1_555 1_555
Co2 O3 1_555 1_555
C1 C2 1_555 1_555
C2 H1 1_555 1_555
C3 C2 1_555 1_555
H2 C3 1_555 1_555
C4 C3 1_555 1_555
C5 C6 1_555 1_555
C6 H3 1_555 1_555
C7 C6 1_555 1_555
H4 C7 1_555 1_555
C8 C7 1_555 1_555
O1 C1 1_555 1_555
O2 Co1 1_555 1_555
O3 C3 1_555 1_555
O4 Co2 1_555 1_555
O5 Co2 1_555 1_555
O6 Co2 1_555 1_555
O7 Co1 1_555 1_555
O8 Co1 1_555 1_555
O9 C1 1_555 1_555
O10 C4 1_555 1_555
O11 C5 1_555 1_555
O12 C8 1_555 1_555
O13 Co1 1_555 1_555
H5 O13 1_555 1_555
H6 O13 1_555 1_555
O14 Co2 1_555 1_555
H7 O14 1_555 1_555
H8 O14 1_555 1_555
O15 H9 1_555 1_555
H10 O15 1_555 1_555
O16 H11 1_555 1_555
H12 O16 1_555 1_555
O17 H13 1_555 1_555
H14 O17 1_555 1_555
Co1B O10 1_555 1_555
Co2B O9 1_555 1_555
O9B Co2 1_555 1_555
O10B Co1 1_555 1_555
C2 O2 1_555 1_555
C4 O4 1_555 1_555
C5 O5 1_555 1_555
C6 O6 1_555 1_555
C7 O7 1_555 1_555
C8 O8 1_555 1_555

#END
