
#######################################################################
#
#                 Cambridge Crystallographic Data Centre
#                                CCDC 
#
#######################################################################
#
# If this CIF has been generated from an entry in the Cambridge 
# Structural Database, then it will include bibliographic, chemical, 
# crystal, experimental, refinement or atomic coordinate data resulting 
# from the CCDC's data processing and validation procedures.
#
#######################################################################

data_GIYTUE
_symmetry_cell_setting           triclinic
_symmetry_space_group_name_H-M   'P -1'
_symmetry_Int_Tables_number      2
_space_group_name_Hall           '-P 1'
loop_
_symmetry_equiv_pos_site_id
_symmetry_equiv_pos_as_xyz
1 x,y,z
2 -x,-y,-z
_cell_length_a                   9.977(2)
_cell_length_b                   10.141(2)
_cell_length_c                   12.699(3)
_cell_angle_alpha                107.10(3)
_cell_angle_beta                 94.64(3)
_cell_angle_gamma                112.50(3)
_cell_volume                     1107.01
loop_
_atom_site_label
_atom_site_type_symbol
_atom_site_fract_x
_atom_site_fract_y
_atom_site_fract_z
Cd1 Cd 0.93986(5) 0.24258(5) 0.71169(4)
Cd2 Cd 0.09944(5) -0.12467(5) 1.03204(4)
Cd3 Cd 1.27906(5) 1.11503(5) 0.49736(4)
Cd4 Cd 0.76706(5) 0.54816(5) 0.97883(4)
C1 C 1.0163(6) 0.5872(6) 0.7132(5)
C2 C 1.0622(7) 0.7115(6) 0.6770(5)
H1 H 1.0314 0.7886 0.7035
C3 C 1.1545(7) 0.7184(6) 0.6009(5)
C4 C 1.2032(7) 0.6039(7) 0.5680(5)
H2 H 1.2670 0.6065 0.5184
C5 C 1.1554(6) 0.4862(6) 0.6099(5)
C6 C 0.9202(7) 0.5757(7) 0.7990(5)
C7 C 1.1990(7) 0.8451(7) 0.5532(5)
C8 C 1.2023(7) 0.3573(7) 0.5779(6)
C9 C 0.3240(6) 0.0359(6) 0.8961(5)
C10 C 0.4299(7) 0.0655(6) 0.8316(5)
H3 H 0.4602 0.1540 0.8142
C11 C 0.4904(6) -0.0368(6) 0.7934(5)
C12 C 0.4494(7) -0.1633(6) 0.8267(5)
H4 H 0.4900 -0.2330 0.8038
C13 C 0.3475(6) -0.1833(6) 0.8942(5)
C14 C 0.2438(7) 0.1361(7) 0.9313(5)
C15 C 0.6011(7) -0.0078(7) 0.7186(5)
C16 C 0.2991(7) -0.3179(6) 0.9354(5)
N1 N 1.0602(6) 0.4755(5) 0.6802(4)
N2 N 0.2825(5) -0.0867(5) 0.9280(4)
O1 O 0.8583(5) 0.4490(5) 0.8108(4)
O2 O 0.9104(5) 0.6952(5) 0.8583(4)
O3 O 1.1892(6) 0.9647(5) 0.6062(4)
O4 O 1.2384(5) 0.8196(5) 0.4597(4)
O5 O 1.2971(6) 0.3642(6) 0.5188(5)
O6 O 1.1442(6) 0.2493(5) 0.6108(5)
O7 O 0.1230(5) 0.0775(5) 0.9598(4)
O8 O 0.3023(5) 0.2671(5) 0.9289(4)
O9 O 0.7087(6) 0.1201(5) 0.7562(4)
O10 O 0.5713(6) -0.1148(5) 0.6282(4)
O11 O 0.3646(6) -0.4024(6) 0.9158(5)
O12 O 0.1970(6) -0.3356(5) 0.9867(4)
O13 O 0.9128(5) 0.0030(5) 0.6500(4)
H5 H 0.9621 -0.0336 0.6776
O14 O 1.0165(5) 0.3038(5) 0.8993(3)
H6 H 0.9695 0.3540 0.9197
O15 O 0.1821(6) 0.0895(5) 1.1887(4)
H7 H 0.1529 0.0679 1.2425
H8 H 0.1599 0.1558 1.1793
O16 O 1.5114(7) 1.2241(7) 0.6137(5)
H9 H 1.5787 1.2032 0.5933
H10 H 1.5308 1.2678 0.6822
O17 O 0.5547(6) 0.4487(7) 0.8429(5)
H11 H 0.5256 0.4969 0.8126
H12 H 0.5125 0.3569 0.8062
Cd1A Cd 1.06014(5) 0.75742(5) 0.28831(4)
Cd2_2 Cd 1.09944(5) 0.87533(5) 1.03204(4)
Cd2A Cd -0.09944(5) 0.12467(5) 0.96796(4)
Cd2A_2 Cd 0.90056(5) 0.12467(5) 0.96796(4)
Cd3_2 Cd 1.27906(5) 0.11503(5) 0.49736(4)
Cd3A Cd 0.72094(5) -0.11503(5) 0.50264(4)
Cd4A Cd 0.23294(5) 0.45184(5) 1.02117(4)
Cd4A_2 Cd 0.23294(5) -0.54816(5) 1.02117(4)
Cd4A_3 Cd 1.23294(5) 0.45184(5) 1.02117(4)
O2_2 O -0.0896(5) -0.3048(5) 0.8583(4)
O4A O 0.7616(5) 0.1804(5) 0.5403(4)
O5_2 O 1.2971(6) 1.3642(6) 0.5188(5)
O6_2 O 1.1442(6) 1.2493(5) 0.6108(5)
O7A O -0.1230(5) -0.0775(5) 1.0402(4)
O8A O 0.6977(5) 0.7329(5) 1.0711(4)
O10A O 1.4287(6) 1.1148(5) 0.3718(4)
O11A O 0.6354(6) 0.4024(6) 1.0842(5)
O12A O 0.8030(6) 0.3356(5) 1.0133(4)
O13A O 1.0872(5) 0.9970(5) 0.3500(4)
H5A H 1.0379 1.0336 0.3224
O14A O -0.0165(5) -0.3038(5) 1.1007(3)
O14A_2 O 0.9835(5) 0.6962(5) 1.1007(3)
H6A H 0.0305 -0.3540 1.0803
H6A_2 H 1.0305 0.6460 1.0803
O18 O 0.5830(10) 0.5853(8) 0.6870(7)
H13 H 0.6179 0.5519 0.6341
H14 H 0.6502 0.6800 0.7276
loop_
_geom_bond_atom_site_label_1
_geom_bond_atom_site_label_2
_geom_bond_site_symmetry_1
_geom_bond_site_symmetry_2
Cd1 N1 1_555 1_555
Cd2 N2 1_555 1_555
Cd3 O3 1_555 1_555
Cd4 O1 1_555 1_555
C1 C2 1_555 1_555
C2 H1 1_555 1_555
C3 C2 1_555 1_555
C4 C3 1_555 1_555
H2 C4 1_555 1_555
C5 C4 1_555 1_555
C6 C1 1_555 1_555
C7 C3 1_555 1_555
C8 C5 1_555 1_555
C9 C10 1_555 1_555
C10 H3 1_555 1_555
C11 C10 1_555 1_555
C12 C11 1_555 1_555
H4 C12 1_555 1_555
C13 C12 1_555 1_555
C14 C9 1_555 1_555
C15 C11 1_555 1_555
C16 C13 1_555 1_555
N1 C1 1_555 1_555
N2 C9 1_555 1_555
O1 Cd1 1_555 1_555
O2 Cd4 1_555 1_555
O3 C7 1_555 1_555
O4 C7 1_555 1_555
O5 C8 1_555 1_555
O6 Cd1 1_555 1_555
O7 Cd2 1_555 1_555
O8 C14 1_555 1_555
O9 Cd1 1_555 1_555
O10 C15 1_555 1_555
O11 C16 1_555 1_555
O12 Cd2 1_555 1_555
O13 Cd1 1_555 1_555
H5 O13 1_555 1_555
O14 Cd1 1_555 1_555
H6 O14 1_555 1_555
O15 Cd2 1_555 1_555
H7 O15 1_555 1_555
H8 O15 1_555 1_555
O16 Cd3 1_555 1_555
H9 O16 1_555 1_555
H10 O16 1_555 1_555
O17 Cd4 1_555 1_555
H11 O17 1_555 1_555
H12 O17 1_555 1_555
O18 H13 1_555 1_555
H14 O18 1_555 1_555
Cd1A O4 1_555 1_555
Cd2_2 O2 1_555 1_555
Cd2A O7 1_555 1_555
Cd2A_2 O14 1_555 1_555
Cd3_2 O5 1_555 1_555
Cd3A O10 1_555 1_555
Cd4A O8 1_555 1_555
Cd4A_2 O11 1_555 1_555
Cd4A_3 O14 1_555 1_555
O2_2 Cd2 1_555 1_555
O4A Cd1 1_555 1_555
O5_2 Cd3 1_555 1_555
O6_2 Cd3 1_555 1_555
O7A Cd2 1_555 1_555
O8A Cd4 1_555 1_555
O10A Cd3 1_555 1_555
O11A Cd4 1_555 1_555
O12A Cd4 1_555 1_555
O13A Cd3 1_555 1_555
H5A O13A 1_555 1_555
O14A Cd2 1_555 1_555
O14A_2 Cd4 1_555 1_555
H6A O14A 1_555 1_555
H6A_2 O14A_2 1_555 1_555
C5 N1 1_555 1_555
C6 O1 1_555 1_555
C6 O2 1_555 1_555
C8 O6 1_555 1_555
C13 N2 1_555 1_555
C14 O7 1_555 1_555
C15 O9 1_555 1_555
C16 O12 1_555 1_555
O6 Cd3_2 1_555 1_555
O12 Cd4A_2 1_555 1_555
O13 Cd3A 1_555 1_555
Cd1A O13A 1_555 1_555
Cd2_2 O14A_2 1_555 1_555
Cd2A O7A 1_555 1_555
Cd2A_2 O12A 1_555 1_555

#END
