
#######################################################################
#
#                 Cambridge Crystallographic Data Centre
#                                CCDC 
#
#######################################################################
#
# If this CIF has been generated from an entry in the Cambridge 
# Structural Database, then it will include bibliographic, chemical, 
# crystal, experimental, refinement or atomic coordinate data resulting 
# from the CCDC's data processing and validation procedures.
#
#######################################################################

data_GIYVAM
_symmetry_cell_setting           orthorhombic
_symmetry_space_group_name_H-M   'P c a 21'
_symmetry_Int_Tables_number      29
_space_group_name_Hall           'P 2c -2ac'
loop_
_symmetry_equiv_pos_site_id
_symmetry_equiv_pos_as_xyz
1 x,y,z
2 -x,-y,1/2+z
3 1/2+x,-y,z
4 1/2-x,y,1/2+z
_cell_length_a                   14.2638(19)
_cell_length_b                   7.0083(8)
_cell_length_c                   11.0148(16)
_cell_angle_alpha                90
_cell_angle_beta                 90
_cell_angle_gamma                90
_cell_volume                     1101.09
loop_
_atom_site_label
_atom_site_type_symbol
_atom_site_fract_x
_atom_site_fract_y
_atom_site_fract_z
Ag1 Ag 0.22102(4) 0.14398(11) -0.37710(10)
N1 N 0.3141(5) 0.1247(9) -0.2253(6)
N2 N 0.3851(4) 0.1826(9) -0.0239(5)
N3 N 0.5210(4) 0.2403(9) 0.0827(5)
H1 H 0.4880 0.2397 0.1481
C1 C 0.3503(5) 0.1520(10) -0.1345(6)
C2 C 0.4776(4) 0.2098(10) -0.0204(6)
H2 H 0.5118 0.2071 -0.0922
C3 C 0.6202(4) 0.2748(9) 0.0938(5)
C4 C 0.6502(5) 0.3695(11) 0.1975(7)
H3 H 0.6073 0.4097 0.2557
C5 C 0.7450(6) 0.4028(12) 0.2128(8)
H4 H 0.7661 0.4633 0.2828
C6 C 0.8088(4) 0.3468(11) 0.1248(13)
H5 H 0.8724 0.3709 0.1356
C7 C 0.7783(5) 0.2564(12) 0.0223(7)
H6 H 0.8213 0.2213 -0.0371
C8 C 0.6831(5) 0.2158(12) 0.0054(7)
H7 H 0.6626 0.1510 -0.0633
Ag1C Ag 0.27898(4) 0.14398(11) 0.12290(10)
N2C N 0.1149(4) 0.1826(9) -0.5239(5)
Cl1 Cl 0.07416(11) 0.2744(2) -0.09639(16)
O1 O 0.0078(6) 0.2302(19) -0.0069(8)
O2 O 0.0747(6) 0.1238(9) -0.1851(6)
O3 O 0.0527(5) 0.4473(9) -0.1568(9)
O4 O 0.1657(4) 0.2908(10) -0.0439(6)
loop_
_geom_bond_atom_site_label_1
_geom_bond_atom_site_label_2
_geom_bond_site_symmetry_1
_geom_bond_site_symmetry_2
Ag1 N1 1_555 1_555
N1 C1 1_555 1_555
N2 C1 1_555 1_555
N3 H1 1_555 1_555
C2 N2 1_555 1_555
H2 C2 1_555 1_555
C3 N3 1_555 1_555
C4 C3 1_555 1_555
H3 C4 1_555 1_555
C5 C4 1_555 1_555
H4 C5 1_555 1_555
C6 C5 1_555 1_555
H5 C6 1_555 1_555
C7 C6 1_555 1_555
H6 C7 1_555 1_555
C8 C3 1_555 1_555
H7 C8 1_555 1_555
Cl1 O1 1_555 1_555
O2 Cl1 1_555 1_555
O3 Cl1 1_555 1_555
O4 Cl1 1_555 1_555
Ag1C N2 1_555 1_555
N2C Ag1 1_555 1_555
N3 C2 1_555 1_555
C7 C8 1_555 1_555

#END
