
#######################################################################
#
#                 Cambridge Crystallographic Data Centre
#                                CCDC 
#
#######################################################################
#
# If this CIF has been generated from an entry in the Cambridge 
# Structural Database, then it will include bibliographic, chemical, 
# crystal, experimental, refinement or atomic coordinate data resulting 
# from the CCDC's data processing and validation procedures.
#
#######################################################################

data_GIYVOA
_symmetry_cell_setting           orthorhombic
_symmetry_space_group_name_H-M   'P c a 21'
_symmetry_Int_Tables_number      29
_space_group_name_Hall           'P 2c -2ac'
loop_
_symmetry_equiv_pos_site_id
_symmetry_equiv_pos_as_xyz
1 x,y,z
2 -x,-y,1/2+z
3 1/2+x,-y,z
4 1/2-x,y,1/2+z
_cell_length_a                   14.151(2)
_cell_length_b                   6.8518(9)
_cell_length_c                   11.1333(13)
_cell_angle_alpha                90
_cell_angle_beta                 90
_cell_angle_gamma                90
_cell_volume                     1079.48
loop_
_atom_site_label
_atom_site_type_symbol
_atom_site_fract_x
_atom_site_fract_y
_atom_site_fract_z
Ag1 Ag -0.22411(3) 1.15676(9) 0.66365(7)
N1 N -0.3126(4) 1.1353(9) 0.5091(5)
N2 N -0.3820(4) 1.1912(8) 0.3087(5)
N3 N -0.5196(4) 1.2424(10) 0.2023(6)
C1 C -0.3477(4) 1.1614(9) 0.4191(6)
C2 C -0.4758(5) 1.2203(10) 0.3038(6)
C3 C -0.6196(4) 1.2743(9) 0.1904(5)
C4 C -0.6829(5) 1.2151(10) 0.2785(6)
C5 C -0.7774(5) 1.2516(13) 0.2625(6)
C6 C -0.8089(4) 1.3405(9) 0.1619(13)
C7 C -0.7460(5) 1.3961(11) 0.0696(7)
C8 C -0.6500(5) 1.3614(10) 0.0861(6)
H1 H -0.492(5) 1.215(10) 0.146(8)
H2 H -0.506(5) 1.205(9) 0.377(7)
H3 H -0.658(3) 1.176(6) 0.341(5)
H4 H -0.820(7) 1.218(12) 0.314(9)
H5 H -0.874(5) 1.371(8) 0.139(7)
H6 H -0.769(5) 1.456(11) -0.002(7)
H7 H -0.615(4) 1.406(8) 0.035(5)
Ag1C Ag -0.27589(3) 1.15676(9) 0.16365(7)
N2C N -0.1180(4) 1.1912(8) 0.8087(5)
B1 B -0.4300(5) 1.2742(12) 0.8881(7)
F1 F -0.3439(3) 1.2804(7) 0.8320(4)
F2 F -0.4991(4) 1.2366(14) 0.8079(6)
F3 F -0.4459(4) 1.4427(7) 0.9492(6)
F4 F -0.4307(5) 1.1234(7) 0.9719(5)
loop_
_geom_bond_atom_site_label_1
_geom_bond_atom_site_label_2
_geom_bond_site_symmetry_1
_geom_bond_site_symmetry_2
Ag1 N1 1_555 1_555
N1 C1 1_555 1_555
N2 C1 1_555 1_555
N3 C2 1_555 1_555
C2 N2 1_555 1_555
C3 N3 1_555 1_555
C4 C3 1_555 1_555
C5 C4 1_555 1_555
C6 C5 1_555 1_555
C7 C6 1_555 1_555
C8 C3 1_555 1_555
B1 F1 1_555 1_555
F2 B1 1_555 1_555
F3 B1 1_555 1_555
F4 B1 1_555 1_555
H1 N3 1_555 1_555
H2 C2 1_555 1_555
H3 C4 1_555 1_555
H4 C5 1_555 1_555
H5 C6 1_555 1_555
H6 C7 1_555 1_555
H7 C8 1_555 1_555
Ag1C N2 1_555 1_555
N2C Ag1 1_555 1_555
C7 C8 1_555 1_555

#END
