
#######################################################################
#
#                 Cambridge Crystallographic Data Centre
#                                CCDC 
#
#######################################################################
#
# If this CIF has been generated from an entry in the Cambridge 
# Structural Database, then it will include bibliographic, chemical, 
# crystal, experimental, refinement or atomic coordinate data resulting 
# from the CCDC's data processing and validation procedures.
#
#######################################################################

data_GIZJOP
_symmetry_cell_setting           orthorhombic
_symmetry_space_group_name_H-M   'P b c a'
_symmetry_Int_Tables_number      61
_space_group_name_Hall           '-P 2ac 2ab'
loop_
_symmetry_equiv_pos_site_id
_symmetry_equiv_pos_as_xyz
1 x,y,z
2 1/2-x,-y,1/2+z
3 -x,1/2+y,1/2-z
4 1/2+x,1/2-y,-z
5 -x,-y,-z
6 1/2+x,y,1/2-z
7 x,1/2-y,1/2+z
8 1/2-x,1/2+y,z
_cell_length_a                   15.6620(14)
_cell_length_b                   15.6621(13)
_cell_length_c                   18.2073(19)
_cell_angle_alpha                90
_cell_angle_beta                 90
_cell_angle_gamma                90
_cell_volume                     4466.25
loop_
_atom_site_label
_atom_site_type_symbol
_atom_site_fract_x
_atom_site_fract_y
_atom_site_fract_z
C1 C 0.1091(4) 0.1149(5) 0.5986(5)
H1 H 0.1095 0.0600 0.5791
C2 C 0.0367(4) 0.1600(4) 0.6172(4)
H2 H -0.0194 0.1415 0.6115
C3 C 0.3816(6) 0.3154(4) 0.6130(4)
H3 H 0.3628 0.3363 0.5681
C4 C 0.3143(6) 0.0143(5) 0.7217(5)
H4 H 0.2696 0.0387 0.7480
C5 C 0.2880(7) 0.0870(10) 0.4370(6)
H5 H 0.2348 0.0611 0.4417
C6 C 0.4007(3) 0.1518(4) 0.4578(3)
H6 H 0.4434 0.1819 0.4822
C7 C 0.3329(7) 0.0937(9) 0.3740(5)
H7 H 0.3158 0.0729 0.3285
C8 C 0.4080(3) 0.2358(4) 0.7022(3)
H8 H 0.4102 0.1876 0.7319
C9 C 0.4257(6) 0.3598(4) 0.6641(4)
H9 H 0.4417 0.4168 0.6604
C10 C 0.3637(6) -0.0493(5) 0.7461(4)
H10 H 0.3605 -0.0749 0.7920
C11 C 0.4022(3) -0.0147(4) 0.6396(3)
H11 H 0.4325 -0.0126 0.5957
C12 C 0.1483(3) 0.2348(3) 0.6391(3)
H12 H 0.1825 0.2809 0.6523
N1 N 0.1801(3) 0.1627(3) 0.6130(3)
N2 N 0.3698(3) 0.2362(3) 0.6382(2)
N3 N 0.3385(3) 0.0380(3) 0.6542(3)
N4 N 0.3323(3) 0.1238(3) 0.4923(3)
N5 N 0.4057(3) 0.1352(3) 0.3876(3)
N6 N 0.4426(3) 0.3079(3) 0.7209(2)
N7 N 0.4198(3) -0.0701(3) 0.6915(2)
N8 N 0.0637(3) 0.2364(3) 0.6451(3)
Zn1 Zn 0.30343(4) 0.13921(5) 0.59659(4)
Zn2 Zn 0.49743(4) 0.16499(5) 0.31671(4)
N6F N 0.4426(3) 0.1921(3) 0.2209(2)
N7D N 0.5802(3) 0.0701(3) 0.3085(2)
N8C N 0.5637(3) 0.2636(3) 0.3549(3)
Zn2F Zn 0.49743(4) 0.33501(5) 0.81671(4)
Zn2D Zn 0.50257(4) -0.16499(5) 0.68329(4)
Zn2C Zn -0.00257(4) 0.33501(5) 0.68329(4)
N9 N 0.6726(11) 0.1711(11) 0.6026(8)
O1 O 0.8108(16) 0.1327(14) 0.5718(13)
C13 C 0.7663(15) 0.192(2) 0.6016(19)
C14 C 0.644(3) 0.255(2) 0.573(2)
C15 C 0.665(2) 0.203(2) 0.6821(12)
C16? C 0.1006(10) 0.0400(10) 0.5491(8)
H13? H 0.1489 0.0166 0.5297
C17? C 0.0207(11) 0.0090(12) 0.5370(9)
H14? H 0.0155 -0.0433 0.5133
C18? C -0.0528(13) 0.0503(12) 0.5578(10)
H15? H -0.1059 0.0267 0.5475
C19? C -0.0459(12) 0.1353(11) 0.5978(9)
H16? H -0.0935 0.1686 0.6085
loop_
_geom_bond_atom_site_label_1
_geom_bond_atom_site_label_2
_geom_bond_site_symmetry_1
_geom_bond_site_symmetry_2
C1 H1 1_555 1_555
C2 C1 1_555 1_555
H2 C2 1_555 1_555
C3 H3 1_555 1_555
C4 H4 1_555 1_555
C5 H5 1_555 1_555
C6 H6 1_555 1_555
C7 C5 1_555 1_555
H7 C7 1_555 1_555
C8 H8 1_555 1_555
C9 C3 1_555 1_555
H9 C9 1_555 1_555
C10 C4 1_555 1_555
H10 C10 1_555 1_555
C11 H11 1_555 1_555
C12 H12 1_555 1_555
N1 C1 1_555 1_555
N2 C3 1_555 1_555
N3 C4 1_555 1_555
N4 C5 1_555 1_555
N5 C6 1_555 1_555
N6 C8 1_555 1_555
N7 C10 1_555 1_555
N8 C2 1_555 1_555
Zn1 N1 1_555 1_555
Zn2 N5 1_555 1_555
N9 C13 1_555 1_555
O1 C13 1_555 1_555
C14 N9 1_555 1_555
C15 N9 1_555 1_555
N6F Zn2 1_555 1_555
N7D Zn2 1_555 1_555
N8C Zn2 1_555 1_555
Zn2F N6 1_555 1_555
Zn2D N7 1_555 1_555
Zn2C N8 1_555 1_555
C6 N4 1_555 1_555
C7 N5 1_555 1_555
C8 N2 1_555 1_555
C9 N6 1_555 1_555
C11 N3 1_555 1_555
C11 N7 1_555 1_555
C12 N1 1_555 1_555
C12 N8 1_555 1_555
N2 Zn1 1_555 1_555
N3 Zn1 1_555 1_555
N4 Zn1 1_555 1_555

#END
