
#######################################################################
#
#                 Cambridge Crystallographic Data Centre
#                                CCDC 
#
#######################################################################
#
# If this CIF has been generated from an entry in the Cambridge 
# Structural Database, then it will include bibliographic, chemical, 
# crystal, experimental, refinement or atomic coordinate data resulting 
# from the CCDC's data processing and validation procedures.
#
#######################################################################

data_GIZKEG
_symmetry_cell_setting           monoclinic
_symmetry_space_group_name_H-M   'P 21/c'
_symmetry_Int_Tables_number      14
_space_group_name_Hall           '-P 2ybc'
loop_
_symmetry_equiv_pos_site_id
_symmetry_equiv_pos_as_xyz
1 x,y,z
2 -x,1/2+y,1/2-z
3 -x,-y,-z
4 x,1/2-y,1/2+z
_cell_length_a                   5.8550(8)
_cell_length_b                   18.456(3)
_cell_length_c                   6.9635(9)
_cell_angle_alpha                90
_cell_angle_beta                 95.635(4)
_cell_angle_gamma                90
_cell_volume                     748.839
loop_
_atom_site_label
_atom_site_type_symbol
_atom_site_fract_x
_atom_site_fract_y
_atom_site_fract_z
Tl1 Tl 0.40001(5) 0.119510(17) 0.03051(5)
O1 O -0.1108(10) 0.3102(3) -0.3091(9)
O2 O 0.2440(10) -0.0038(3) -0.1379(9)
O3 O 0.2060(10) 0.2586(3) -0.1552(9)
C1 C -0.3262(14) 0.1825(5) -0.3788(11)
H1 H -0.4022 0.2254 -0.4146
C2 C -0.4347(16) 0.1143(5) -0.4135(12)
H2 H -0.5839 0.1114 -0.4727
N1 N 0.0139(12) 0.1231(3) -0.2382(10)
C3 C -0.1038(14) 0.1833(5) -0.2899(12)
C4 C -0.0870(14) 0.0592(4) -0.2736(12)
C5 C 0.0458(14) -0.0092(5) -0.2196(12)
C6 C 0.0146(15) 0.2546(5) -0.2422(12)
C7 C -0.3154(15) 0.0533(5) -0.3581(12)
H3 H -0.3838 0.0080 -0.3758
O4 O -0.0600(10) -0.0683(3) -0.2667(9)
H4 H -0.0426 0.3570 -0.2605
Tl1B Tl 0.59999(5) -0.119510(17) -0.03051(5)
Tl1B_2 Tl -0.40001(5) -0.119510(17) -0.03051(5)
O2B O 0.7560(10) 0.0038(3) 0.1379(9)
O4B O 0.0600(10) 0.0683(3) 0.2667(9)
loop_
_geom_bond_atom_site_label_1
_geom_bond_atom_site_label_2
_geom_bond_site_symmetry_1
_geom_bond_site_symmetry_2
Tl1 O2 1_555 1_555
O1 C6 1_555 1_555
O2 C5 1_555 1_555
O3 Tl1 1_555 1_555
C1 H1 1_555 1_555
C2 C1 1_555 1_555
H2 C2 1_555 1_555
N1 Tl1 1_555 1_555
C3 C1 1_555 1_555
C4 N1 1_555 1_555
C5 C4 1_555 1_555
C6 O3 1_555 1_555
C7 C2 1_555 1_555
H3 C7 1_555 1_555
O4 C5 1_555 1_555
H4 O1 1_555 1_555
Tl1B O2 1_555 1_555
Tl1B_2 O4 1_555 1_555
O2B Tl1 1_555 1_555
O4B Tl1 1_555 1_555
N1 C3 1_555 1_555
C3 C6 1_555 1_555
C4 C7 1_555 1_555
Tl1B O2B 1_555 1_555

#END
