
#######################################################################
#
#                 Cambridge Crystallographic Data Centre
#                                CCDC 
#
#######################################################################
#
# If this CIF has been generated from an entry in the Cambridge 
# Structural Database, then it will include bibliographic, chemical, 
# crystal, experimental, refinement or atomic coordinate data resulting 
# from the CCDC's data processing and validation procedures.
#
#######################################################################

data_GIZKIK
_symmetry_cell_setting           monoclinic
_symmetry_space_group_name_H-M   'C 2/c'
_symmetry_Int_Tables_number      15
_space_group_name_Hall           '-C 2yn'
loop_
_symmetry_equiv_pos_site_id
_symmetry_equiv_pos_as_xyz
1 x,y,z
2 1/2+x,1/2+y,z
3 -x,y,1/2-z
4 1/2-x,1/2+y,1/2-z
5 -x,-y,-z
6 1/2-x,1/2-y,-z
7 x,-y,1/2+z
8 1/2+x,1/2-y,1/2+z
_cell_length_a                   11.342(3)
_cell_length_b                   14.745(4)
_cell_length_c                   15.906(4)
_cell_angle_alpha                90
_cell_angle_beta                 102.539(5)
_cell_angle_gamma                90
_cell_volume                     2596.64
loop_
_atom_site_label
_atom_site_type_symbol
_atom_site_fract_x
_atom_site_fract_y
_atom_site_fract_z
C1 C 1.545(3) 0.0817(16) 0.1163(13)
H1 H 1.5672 0.1147 0.1695
H2 H 1.4911 0.1178 0.0746
H3 H 1.6161 0.0680 0.0953
C2 C 1.4820(18) -0.0066(13) 0.1317(11)
C3 C 1.3751(19) -0.0271(15) 0.0914(10)
C4 C 1.289(3) -0.1123(16) 0.1050(14)
C5 C 1.169(2) -0.1260(18) 0.0561(15)
H4 H 1.1393 -0.1832 0.0713
H5 H 1.1697 -0.1258 -0.0041
H6 H 1.1178 -0.0782 0.0682
C6 C 1.2168(16) 0.1185(12) 0.0812(11)
C7 C 1.2158(17) 0.1095(13) 0.1737(9)
H7 H 1.2551 0.0612 0.2056
C8 C 1.1579(17) 0.1716(17) 0.2111(10)
H8 H 1.1814 0.1672 0.2708
C9 C 1.082(2) 0.2438(13) 0.0956(14)
H9 H 1.0384 0.2914 0.0651
C10 C 1.1384(17) 0.1919(13) 0.0481(11)
H10 H 1.1261 0.2045 -0.0105
N1 N 1.0734(12) 0.2406(12) 0.1882(10)
O1 O 1.5578(10) -0.0658(11) 0.1790(9)
O2 O 1.3480(12) -0.1715(9) 0.1564(9)
S1 S 1.2784(6) 0.0549(4) 0.0198(3)
Zn1 Zn 1.0000 0.3299(2) 0.2500
C1B C 0.455(3) 0.0817(16) 0.3837(13)
H1B H 0.4328 0.1147 0.3305
H2B H 0.5089 0.1178 0.4254
H3B H 0.3839 0.0680 0.4047
C2B C 0.5180(18) -0.0066(13) 0.3683(11)
C3B C 0.6249(19) -0.0271(15) 0.4086(10)
C4B C 0.711(3) -0.1123(16) 0.3950(14)
C5B C 0.831(2) -0.1260(18) 0.4439(15)
H4B H 0.8607 -0.1832 0.4287
H5B H 0.8303 -0.1258 0.5041
H6B H 0.8822 -0.0782 0.4318
C6B C 0.7832(16) 0.1185(12) 0.4188(11)
C7B C 0.7842(17) 0.1095(13) 0.3263(9)
H7B H 0.7449 0.0612 0.2944
C8B C 0.8421(17) 0.1716(17) 0.2889(10)
H8B H 0.8186 0.1672 0.2292
C9B C 0.918(2) 0.2438(13) 0.4044(14)
H9B H 0.9616 0.2914 0.4349
C10B C 0.8616(17) 0.1919(13) 0.4519(11)
H10B H 0.8739 0.2045 0.5105
N1B N 0.9266(12) 0.2406(12) 0.3118(10)
O1B O 0.4422(10) -0.0658(11) 0.3210(9)
O1A O 1.0578(10) 0.4342(11) 0.1790(9)
O1C O 0.9422(10) 0.4342(11) 0.3210(9)
O2B O 0.6520(12) -0.1715(9) 0.3436(9)
O2A O 0.8480(12) 0.3285(9) 0.1564(9)
O2C O 1.1520(12) 0.3285(9) 0.3436(9)
S1B S 0.7216(6) 0.0549(4) 0.4802(3)
Zn1A Zn 1.5000 -0.1701(2) 0.2500
Zn1A_2 Zn 0.5000 -0.1701(2) 0.2500
loop_
_geom_bond_atom_site_label_1
_geom_bond_atom_site_label_2
_geom_bond_site_symmetry_1
_geom_bond_site_symmetry_2
C1 H1 1_555 1_555
H2 C1 1_555 1_555
H3 C1 1_555 1_555
C2 C1 1_555 1_555
C3 C2 1_555 1_555
C4 C3 1_555 1_555
C5 C4 1_555 1_555
H4 C5 1_555 1_555
H5 C5 1_555 1_555
H6 C5 1_555 1_555
C6 C7 1_555 1_555
C7 H7 1_555 1_555
C8 C7 1_555 1_555
H8 C8 1_555 1_555
C9 H9 1_555 1_555
C10 C6 1_555 1_555
H10 C10 1_555 1_555
N1 C8 1_555 1_555
O1 C2 1_555 1_555
O2 C4 1_555 1_555
S1 C3 1_555 1_555
Zn1 N1 1_555 1_555
C1B H1B 1_555 1_555
H2B C1B 1_555 1_555
H3B C1B 1_555 1_555
C2B C1B 1_555 1_555
C3B C2B 1_555 1_555
C4B C3B 1_555 1_555
C5B C4B 1_555 1_555
H4B C5B 1_555 1_555
H5B C5B 1_555 1_555
H6B C5B 1_555 1_555
C6B C7B 1_555 1_555
C7B H7B 1_555 1_555
C8B C7B 1_555 1_555
H8B C8B 1_555 1_555
C9B H9B 1_555 1_555
C10B C6B 1_555 1_555
H10B C10B 1_555 1_555
N1B Zn1 1_555 1_555
O1B C2B 1_555 1_555
O1A Zn1 1_555 1_555
O1C Zn1 1_555 1_555
O2B C4B 1_555 1_555
O2A Zn1 1_555 1_555
O2C Zn1 1_555 1_555
S1B C3B 1_555 1_555
Zn1A O1 1_555 1_555
Zn1A_2 O1B 1_555 1_555
C6 S1 1_555 1_555
C9 C10 1_555 1_555
C9 N1 1_555 1_555
O2 Zn1A 1_555 1_555
C6B S1B 1_555 1_555
C8B N1B 1_555 1_555
C9B C10B 1_555 1_555
C9B N1B 1_555 1_555
O2B Zn1A_2 1_555 1_555

#END
