
#######################################################################
#
#                 Cambridge Crystallographic Data Centre
#                                CCDC 
#
#######################################################################
#
# If this CIF has been generated from an entry in the Cambridge 
# Structural Database, then it will include bibliographic, chemical, 
# crystal, experimental, refinement or atomic coordinate data resulting 
# from the CCDC's data processing and validation procedures.
#
#######################################################################

data_GIZPIP
_symmetry_cell_setting           monoclinic
_symmetry_space_group_name_H-M   'P 21'
_symmetry_Int_Tables_number      4
_space_group_name_Hall           'P 2yb'
loop_
_symmetry_equiv_pos_site_id
_symmetry_equiv_pos_as_xyz
1 x,y,z
2 -x,1/2+y,-z
_cell_length_a                   10.6255(6)
_cell_length_b                   19.7285(11)
_cell_length_c                   15.3184(9)
_cell_angle_alpha                90
_cell_angle_beta                 91.5655(8)
_cell_angle_gamma                90
_cell_volume                     3209.92
loop_
_atom_site_label
_atom_site_type_symbol
_atom_site_fract_x
_atom_site_fract_y
_atom_site_fract_z
Hg1 Hg 0.76633(4) 0.59778(3) 0.90070(3)
Hg2 Hg 0.74205(4) 0.68766(3) 0.78426(3)
Hg3 Hg 0.95199(4) 0.56388(4) 0.73512(3)
Hg4 Hg 1.04111(4) 0.50091(3) 0.86470(3)
Hg5 Hg 0.48627(4) 0.56248(3) 0.89126(2)
Hg6 Hg 0.46633(4) 0.52914(3) 0.73373(2)
Hg7 Hg 0.25825(4) 0.67188(3) 0.76647(3)
Hg8 Hg 1.20187(3) 0.64265(3) 0.91983(2)
Hg9 Hg 0.89337(3) 0.51170(3) 1.14222(2)
Hg10 Hg 0.38941(3) 0.52219(3) 1.14676(2)
Hg11 Hg 1.08398(3) 0.64581(3) 0.50585(2)
Hg12 Hg 0.58253(3) 0.64364(3) 0.50261(2)
O1 O 0.7982(6) 0.5054(3) 0.9726(4)
O2 O 0.6002(6) 0.4652(3) 0.9757(4)
O3 O 0.6788(6) 0.6400(4) 1.0477(4)
O4 O 0.4790(6) 0.6083(4) 1.0179(4)
O5 O 0.9834(6) 0.6786(4) 0.6716(4)
O6 O 0.8000(6) 0.7371(3) 0.6618(4)
O7 O 0.8952(6) 0.5346(4) 0.6011(5)
O8 O 0.7065(7) 0.5730(4) 0.6372(4)
O9 O 1.1026(6) 0.4400(4) 0.9737(4)
O10 O 1.2731(6) 0.5054(3) 0.9774(4)
O11 O 0.3926(5) 0.5173(4) 0.6019(4)
O12 O 0.2151(6) 0.5708(3) 0.6385(4)
O13 O 0.3023(6) 0.7353(4) 0.6569(4)
O14 O 0.4833(6) 0.6781(4) 0.6650(5)
O15 O 1.1774(6) 0.6534(4) 1.0584(4)
O16 O 1.0008(6) 0.5979(3) 1.0200(4)
O17 O 0.6124(6) 0.7879(4) 0.8034(5)
O18 O 0.4904(8) 0.7159(4) 0.8652(7)
O19 O 0.4247(8) 0.8167(5) 0.8356(6)
O20 O 1.0552(8) 0.3850(4) 0.7829(6)
O21 O 1.1900(9) 0.3372(5) 0.7009(6)
O22 O 1.2437(9) 0.4253(5) 0.7820(7)
O23 O 0.5770(8) 0.4249(4) 0.6920(6)
O24 O 0.7167(9) 0.3511(5) 0.7253(7)
O25 O 0.7320(8) 0.4506(5) 0.7821(6)
O26 O 0.9867(7) 0.7160(4) 0.9108(6)
O27 O 0.8986(7) 0.7945(4) 0.8343(5)
O28 O 1.1030(6) 0.7846(3) 0.8380(5)
O29 O 0.7491(7) 0.4854(5) 1.2909(5)
O30 O 0.5476(6) 0.5019(4) 1.2960(4)
O31 O 0.6424(6) 0.5032(4) 1.1717(4)
O32 O 1.1420(6) 0.5034(4) 1.1729(4)
O33 O 1.2516(7) 0.4939(5) 1.2933(5)
O34 O 1.0468(6) 0.5003(4) 1.2960(4)
O35 O 1.3264(6) 0.6604(4) 0.4732(4)
O36 O 1.4334(6) 0.6465(5) 0.3583(5)
O37 O 1.2292(6) 0.6536(5) 0.3479(5)
O38 O 0.9356(6) 0.6445(5) 0.3589(4)
O39 O 0.8260(6) 0.6695(4) 0.4704(4)
O40 O 0.7317(6) 0.6512(5) 0.3465(5)
N1 N 0.8863(7) 0.4146(4) 1.0863(5)
H5 H 0.9526 0.4103 1.0493
H6 H 0.8978 0.3831 1.1302
N2 N 0.3983(7) 0.6259(4) 1.1753(5)
H7 H 0.3376 0.6482 1.1424
H8 H 0.3810 0.6323 1.2332
N3 N 1.0815(7) 0.7493(4) 0.5357(6)
H9 H 1.1522 0.7586 0.5696
H10 H 1.0891 0.7728 0.4842
N4 N 0.5998(7) 0.5383(4) 0.4806(5)
H11 H 0.5435 0.5155 0.5144
H12 H 0.5801 0.5290 0.4230
N5 N 1.3970(7) 0.4242(4) 1.0943(5)
H13 H 1.4600 0.4232 1.0542
H14 H 1.4195 0.3948 1.1385
N6 N 0.0985(7) 0.5415(4) 0.4821(5)
H15 H 0.0383 0.5197 0.5138
H16 H 0.0795 0.5339 0.4240
N7 N 0.5833(7) 0.7480(4) 0.5289(5)
H17 H 0.6519 0.7574 0.5648
H18 H 0.5942 0.7707 0.4772
N8 N 0.8913(7) 0.6155(4) 1.1747(5)
H19 H 0.8294 0.6365 1.1414
H20 H 0.8703 0.6198 1.2323
N9 N 0.5090(8) 0.7724(4) 0.8355(6)
N10 N 1.1638(10) 0.3835(5) 0.7544(6)
N11 N 0.6802(9) 0.4088(5) 0.7351(7)
N12 N 0.9949(8) 0.7648(4) 0.8615(6)
N13 N 0.6467(7) 0.4970(4) 1.2526(5)
N14 N 1.1475(7) 0.4987(4) 1.2549(5)
N15 N 1.3293(7) 0.6551(4) 0.3935(5)
N16 N 0.8315(7) 0.6564(4) 0.3915(5)
C1 C 0.7150(9) 0.4610(5) 0.9926(6)
C2 C 0.7680(8) 0.3976(5) 1.0367(6)
H21 H 0.7051 0.3806 1.0788
C3 C 0.7876(11) 0.3441(5) 0.9699(7)
H22 H 0.8194 0.3029 0.9986
H23 H 0.8488 0.3600 0.9278
H24 H 0.7075 0.3343 0.9394
C4 C 0.5661(8) 0.6333(5) 1.0663(6)
C5 C 0.5248(8) 0.6562(5) 1.1573(5)
H25 H 0.5874 0.6393 1.2021
C6 C 0.5187(11) 0.7330(5) 1.1632(7)
H26 H 0.6008 0.7522 1.1494
H27 H 0.4967 0.7462 1.2225
H28 H 0.4546 0.7500 1.1215
C7 C 0.9133(8) 0.7248(4) 0.6423(6)
C8 C 0.9708(8) 0.7774(5) 0.5814(6)
H29 H 0.9054 0.7904 0.5362
C9 C 1.0077(9) 0.8407(5) 0.6327(7)
H30 H 0.9337 0.8588 0.6616
H31 H 1.0403 0.8749 0.5928
H32 H 1.0728 0.8293 0.6767
C10 C 0.7791(9) 0.5435(5) 0.5882(6)
C11 C 0.7275(8) 0.5141(5) 0.5015(5)
H33 H 0.7833 0.5303 0.4543
C12 C 0.7325(11) 0.4369(5) 0.5021(7)
H34 H 0.6988 0.4195 0.4463
H35 H 0.6821 0.4195 0.5498
H36 H 0.8200 0.4220 0.5105
C13 C 1.2144(8) 0.4537(5) 0.9975(6)
C14 C 1.2785(9) 0.3982(5) 1.0505(6)
H37 H 1.2200 0.3832 1.0968
C15 C 1.3059(12) 0.3382(5) 0.9931(8)
H38 H 1.2276 0.3227 0.9642
H39 H 1.3417 0.3014 1.0288
H40 H 1.3661 0.3515 0.9488
C16 C 0.2779(8) 0.5359(5) 0.5904(5)
C17 C 0.2209(8) 0.5099(5) 0.5029(6)
H41 H 0.2799 0.5221 0.4557
C18 C 0.2089(10) 0.4323(6) 0.5051(8)
H42 H 0.1741 0.4162 0.4490
H43 H 0.1527 0.4191 0.5519
H44 H 0.2921 0.4121 0.5159
C19 C 0.4164(9) 0.7239(5) 0.6357(6)
C20 C 0.4682(8) 0.7755(5) 0.5706(6)
H45 H 0.4024 0.7840 0.5239
C21 C 0.4994(9) 0.8424(5) 0.6156(7)
H46 H 0.4237 0.8604 0.6425
H47 H 0.5296 0.8748 0.5726
H48 H 0.5650 0.8349 0.6608
C22 C 1.0638(8) 0.6302(4) 1.0728(6)
C23 C 1.0136(9) 0.6516(5) 1.1615(6)
H49 H 1.0753 0.6376 1.2085
C24 C 0.9937(12) 0.7286(5) 1.1665(8)
H50 H 0.9621 0.7406 1.2241
H51 H 0.9323 0.7427 1.1211
H52 H 1.0739 0.7518 1.1576
Hg5_2 Hg 1.48627(4) 0.56248(3) 0.89126(2)
Hg7_2 Hg 1.25825(4) 0.67188(3) 0.76647(3)
Hg8_2 Hg 0.20187(3) 0.64265(3) 0.91983(2)
Hg10_2 Hg 1.38941(3) 0.52219(3) 1.14676(2)
Hg11_2 Hg 0.08398(3) 0.64581(3) 0.50585(2)
Hg12_2 Hg 1.58253(3) 0.64364(3) 0.50261(2)
O10_2 O 0.2731(6) 0.5054(3) 0.9774(4)
O12_2 O 1.2151(6) 0.5708(3) 0.6385(4)
O28_2 O 0.1030(6) 0.7846(3) 0.8380(5)
O32_2 O 0.1420(6) 0.5034(4) 1.1729(4)
O33_2 O 0.2516(7) 0.4939(5) 1.2933(5)
O35_2 O 0.3264(6) 0.6604(4) 0.4732(4)
O36_2 O 0.4334(6) 0.6465(5) 0.3583(5)
N5_2 N 0.3970(7) 0.4242(4) 1.0943(5)
H13_2 H 0.4600 0.4232 1.0542
H14_2 H 0.4195 0.3948 1.1385
N6_2 N 1.0985(7) 0.5415(4) 0.4821(5)
H15_2 H 1.0383 0.5197 0.5138
H16_2 H 1.0795 0.5339 0.4240
O41 O 1.0703(8) 0.8227(4) 0.3793(5)
H1 H 0.9846(15) 0.8284(17) 0.3517(17)
H2 H 1.129(5) 0.857(4) 0.354(4)
O42 O 0.5785(7) 0.8227(4) 0.3761(5)
H3 H 0.6578(19) 0.8326(19) 0.3448(14)
H4 H 0.506(4) 0.845(5) 0.3449(15)
loop_
_geom_bond_atom_site_label_1
_geom_bond_atom_site_label_2
_geom_bond_site_symmetry_1
_geom_bond_site_symmetry_2
Hg1 Hg2 1_555 1_555
Hg2 Hg3 1_555 1_555
Hg3 Hg1 1_555 1_555
Hg4 Hg1 1_555 1_555
Hg5 Hg1 1_555 1_555
Hg6 Hg5 1_555 1_555
Hg7 Hg6 1_555 1_555
Hg8 Hg4 1_555 1_555
Hg9 O1 1_555 1_555
Hg10 O4 1_555 1_555
Hg11 O5 1_555 1_555
Hg12 O8 1_555 1_555
O1 Hg1 1_555 1_555
O2 Hg5 1_555 1_555
O3 Hg1 1_555 1_555
O4 Hg5 1_555 1_555
O5 Hg3 1_555 1_555
O6 Hg2 1_555 1_555
O7 Hg3 1_555 1_555
O8 Hg3 1_555 1_555
O9 Hg4 1_555 1_555
O10 Hg4 1_555 1_555
O11 Hg6 1_555 1_555
O12 Hg7 1_555 1_555
O13 Hg7 1_555 1_555
O14 Hg7 1_555 1_555
O15 Hg8 1_555 1_555
O16 Hg1 1_555 1_555
O17 Hg2 1_555 1_555
O18 Hg2 1_555 1_555
O19 N9 1_555 1_555
O20 Hg4 1_555 1_555
O21 N10 1_555 1_555
O22 Hg4 1_555 1_555
O23 Hg6 1_555 1_555
O24 N11 1_555 1_555
O25 N11 1_555 1_555
O26 Hg8 1_555 1_555
O27 Hg2 1_555 1_555
O28 N12 1_555 1_555
O29 Hg9 1_555 1_555
O30 Hg10 1_555 1_555
O31 Hg9 1_555 1_555
O32 Hg9 1_555 1_555
O33 N14 1_555 1_555
O34 Hg9 1_555 1_555
O35 Hg11 1_555 1_555
O36 N15 1_555 1_555
O37 Hg11 1_555 1_555
O38 Hg11 1_555 1_555
O39 Hg11 1_555 1_555
O40 Hg12 1_555 1_555
O41 H1 1_555 1_555
H2 O41 1_555 1_555
O42 H3 1_555 1_555
H4 O42 1_555 1_555
N1 Hg9 1_555 1_555
H5 N1 1_555 1_555
H6 N1 1_555 1_555
N2 Hg10 1_555 1_555
H7 N2 1_555 1_555
H8 N2 1_555 1_555
N3 Hg11 1_555 1_555
H9 N3 1_555 1_555
H10 N3 1_555 1_555
N4 Hg12 1_555 1_555
H11 N4 1_555 1_555
H12 N4 1_555 1_555
N5 H13 1_555 1_555
H14 N5 1_555 1_555
N6 H15 1_555 1_555
H16 N6 1_555 1_555
N7 Hg12 1_555 1_555
H17 N7 1_555 1_555
H18 N7 1_555 1_555
N8 Hg9 1_555 1_555
H19 N8 1_555 1_555
H20 N8 1_555 1_555
N9 O17 1_555 1_555
N10 O20 1_555 1_555
N11 O23 1_555 1_555
N12 O26 1_555 1_555
N13 O29 1_555 1_555
N14 O32 1_555 1_555
N15 O35 1_555 1_555
N16 O38 1_555 1_555
C1 O1 1_555 1_555
C2 N1 1_555 1_555
H21 C2 1_555 1_555
C3 C2 1_555 1_555
H22 C3 1_555 1_555
H23 C3 1_555 1_555
H24 C3 1_555 1_555
C4 O3 1_555 1_555
C5 N2 1_555 1_555
H25 C5 1_555 1_555
C6 C5 1_555 1_555
H26 C6 1_555 1_555
H27 C6 1_555 1_555
H28 C6 1_555 1_555
C7 O5 1_555 1_555
C8 N3 1_555 1_555
H29 C8 1_555 1_555
C9 C8 1_555 1_555
H30 C9 1_555 1_555
H31 C9 1_555 1_555
H32 C9 1_555 1_555
C10 O7 1_555 1_555
C11 N4 1_555 1_555
H33 C11 1_555 1_555
C12 C11 1_555 1_555
H34 C12 1_555 1_555
H35 C12 1_555 1_555
H36 C12 1_555 1_555
C13 O9 1_555 1_555
C14 N5 1_555 1_555
H37 C14 1_555 1_555
C15 C14 1_555 1_555
H38 C15 1_555 1_555
H39 C15 1_555 1_555
H40 C15 1_555 1_555
C16 O11 1_555 1_555
C17 N6 1_555 1_555
H41 C17 1_555 1_555
C18 C17 1_555 1_555
H42 C18 1_555 1_555
H43 C18 1_555 1_555
H44 C18 1_555 1_555
C19 O13 1_555 1_555
C20 N7 1_555 1_555
H45 C20 1_555 1_555
C21 C20 1_555 1_555
H46 C21 1_555 1_555
H47 C21 1_555 1_555
H48 C21 1_555 1_555
C22 O15 1_555 1_555
C23 N8 1_555 1_555
H49 C23 1_555 1_555
C24 C23 1_555 1_555
H50 C24 1_555 1_555
H51 C24 1_555 1_555
H52 C24 1_555 1_555
Hg5_2 Hg8 1_555 1_555
Hg7_2 Hg8 1_555 1_555
Hg8_2 Hg5 1_555 1_555
Hg10_2 O10 1_555 1_555
Hg11_2 O12 1_555 1_555
Hg12_2 O35 1_555 1_555
O10_2 Hg5 1_555 1_555
O12_2 Hg11 1_555 1_555
O28_2 Hg7 1_555 1_555
O32_2 Hg10 1_555 1_555
O33_2 Hg10 1_555 1_555
O35_2 Hg12 1_555 1_555
O36_2 Hg12 1_555 1_555
N5_2 Hg10 1_555 1_555
H13_2 N5_2 1_555 1_555
H14_2 N5_2 1_555 1_555
N6_2 Hg11 1_555 1_555
H15_2 N6_2 1_555 1_555
H16_2 N6_2 1_555 1_555
Hg3 Hg4 1_555 1_555
Hg5 O18 1_555 1_555
Hg7 O18 1_555 1_555
Hg7 Hg8_2 1_555 1_555
Hg8 O10 1_555 1_555
Hg8 O16 1_555 1_555
Hg9 O16 1_555 1_555
Hg10 O31 1_555 1_555
Hg10 O10_2 1_555 1_555
Hg12 O14 1_555 1_555
Hg12 O39 1_555 1_555
O2 C1 1_555 1_555
O4 C4 1_555 1_555
O6 C7 1_555 1_555
O8 C10 1_555 1_555
O10 C13 1_555 1_555
O10 Hg5_2 1_555 1_555
O12 C16 1_555 1_555
O14 C19 1_555 1_555
O16 C22 1_555 1_555
O18 N9 1_555 1_555
O22 N10 1_555 1_555
O27 N12 1_555 1_555
O28 Hg7_2 1_555 1_555
O30 N13 1_555 1_555
O31 N13 1_555 1_555
O32 Hg10_2 1_555 1_555
O33 Hg10_2 1_555 1_555
O34 N14 1_555 1_555
O36 Hg12_2 1_555 1_555
O37 N15 1_555 1_555
O39 N16 1_555 1_555
O40 N16 1_555 1_555
N5 Hg10_2 1_555 1_555
N6 Hg11_2 1_555 1_555
C1 C2 1_555 1_555
C4 C5 1_555 1_555
C7 C8 1_555 1_555
C10 C11 1_555 1_555
C13 C14 1_555 1_555
C16 C17 1_555 1_555
C19 C20 1_555 1_555
C22 C23 1_555 1_555
Hg7_2 O12_2 1_555 1_555
Hg8_2 O10_2 1_555 1_555
Hg11_2 O35_2 1_555 1_555

#END
