
#######################################################################
#
#                 Cambridge Crystallographic Data Centre
#                                CCDC 
#
#######################################################################
#
# If this CIF has been generated from an entry in the Cambridge 
# Structural Database, then it will include bibliographic, chemical, 
# crystal, experimental, refinement or atomic coordinate data resulting 
# from the CCDC's data processing and validation procedures.
#
#######################################################################

data_GIZSIS
_symmetry_cell_setting           monoclinic
_symmetry_space_group_name_H-M   'C 2/c'
_symmetry_Int_Tables_number      15
_space_group_name_Hall           '-C 2yn'
loop_
_symmetry_equiv_pos_site_id
_symmetry_equiv_pos_as_xyz
1 x,y,z
2 1/2+x,1/2+y,z
3 -x,y,1/2-z
4 1/2-x,1/2+y,1/2-z
5 -x,-y,-z
6 1/2-x,1/2-y,-z
7 x,-y,1/2+z
8 1/2+x,1/2-y,1/2+z
_cell_length_a                   19.886(4)
_cell_length_b                   7.3522(15)
_cell_length_c                   15.409(3)
_cell_angle_alpha                90
_cell_angle_beta                 115.97(3)
_cell_angle_gamma                90
_cell_volume                     2025.4
loop_
_atom_site_label
_atom_site_type_symbol
_atom_site_fract_x
_atom_site_fract_y
_atom_site_fract_z
Cd1 Cd 0.0000 0.21274(3) 0.2500
Cd2 Cd 0.0000 0.5000 0.0000
O1 O 0.05131(10) 0.4374(2) 0.16197(11)
O2 O 0.11318(10) 0.6113(3) 0.00533(13)
H1 H 0.115(2) 0.579(5) -0.040(3)
H2 H 0.115(2) 0.730(6) 0.006(3)
O3 O 0.09395(10) 0.4136(2) 0.31727(11)
N1 N -0.01798(10) 1.0095(2) 0.13491(13)
N2 N -0.08259(11) 1.0024(2) 0.05335(14)
N3 N -0.08190(11) 0.8588(3) 0.00480(13)
N4 N -0.01705(10) 0.7689(2) 0.05357(13)
C1 C 0.12913(12) 0.6784(3) 0.26098(15)
C2 C 0.09950(11) 0.8385(3) 0.20847(14)
C3 C 0.14406(14) 0.9941(3) 0.23224(17)
H3 H 0.1253 1.1003 0.1971
C4 C 0.21556(14) 0.9938(3) 0.3061(2)
H4 H 0.2444 1.0989 0.3208
C5 C 0.24392(14) 0.8370(4) 0.3581(2)
H5 H 0.2921 0.8361 0.4082
C6 C 0.20091(13) 0.6821(3) 0.33610(17)
H6 H 0.2203 0.5772 0.3722
C7 C 0.08845(12) 0.5008(3) 0.24438(16)
C8 C 0.02201(11) 0.8642(3) 0.13370(14)
Cd1_2 Cd 0.0000 1.21274(3) 0.2500
Cd2F Cd 0.0000 0.5000 0.5000
O1B O -0.05131(10) 0.4374(2) 0.33803(11)
O1D O -0.05131(10) 0.5626(2) -0.16197(11)
O2D O -0.11318(10) 0.3887(3) -0.00533(13)
H1D H -0.115(2) 0.421(5) 0.040(3)
H2D H -0.115(2) 0.270(6) -0.006(3)
O3B O -0.09395(10) 0.4136(2) 0.18273(11)
N1B N 0.01798(10) 1.0095(2) 0.36509(13)
N1_2 N -0.01798(10) 0.0095(2) 0.13491(13)
N1B_2 N 0.01798(10) 0.0095(2) 0.36509(13)
N2B N 0.08259(11) 1.0024(2) 0.44665(14)
N3B N 0.08190(11) 0.8588(3) 0.49520(13)
N4B N 0.01705(10) 0.7689(2) 0.44643(13)
N4D N 0.01705(10) 0.2311(2) -0.05357(13)
C1B C -0.12913(12) 0.6784(3) 0.23902(15)
C2B C -0.09950(11) 0.8385(3) 0.29153(14)
C3B C -0.14406(14) 0.9941(3) 0.26776(17)
H3B H -0.1253 1.1003 0.3029
C4B C -0.21556(14) 0.9938(3) 0.1939(2)
H4B H -0.2444 1.0989 0.1792
C5B C -0.24392(14) 0.8370(4) 0.1419(2)
H5B H -0.2921 0.8361 0.0918
C6B C -0.20091(13) 0.6821(3) 0.16390(17)
H6B H -0.2203 0.5772 0.1278
C7B C -0.08845(12) 0.5008(3) 0.25562(16)
C8B C -0.02201(11) 0.8642(3) 0.36630(14)
loop_
_geom_bond_atom_site_label_1
_geom_bond_atom_site_label_2
_geom_bond_site_symmetry_1
_geom_bond_site_symmetry_2
Cd1 O1 1_555 1_555
Cd2 O1 1_555 1_555
O1 C7 1_555 1_555
O2 Cd2 1_555 1_555
H1 O2 1_555 1_555
H2 O2 1_555 1_555
O3 Cd1 1_555 1_555
N1 N2 1_555 1_555
N2 N3 1_555 1_555
N3 N4 1_555 1_555
N4 Cd2 1_555 1_555
C1 C2 1_555 1_555
C2 C3 1_555 1_555
C3 H3 1_555 1_555
C4 C3 1_555 1_555
H4 C4 1_555 1_555
C5 C4 1_555 1_555
H5 C5 1_555 1_555
C6 C1 1_555 1_555
H6 C6 1_555 1_555
C7 O3 1_555 1_555
C8 N1 1_555 1_555
Cd1_2 N1 1_555 1_555
Cd2F O1B 1_555 1_555
O1B Cd1 1_555 1_555
O1D Cd2 1_555 1_555
O2D Cd2 1_555 1_555
H1D O2D 1_555 1_555
H2D O2D 1_555 1_555
O3B Cd1 1_555 1_555
N1B Cd1_2 1_555 1_555
N1_2 Cd1 1_555 1_555
N1B_2 Cd1 1_555 1_555
N2B N1B 1_555 1_555
N3B N2B 1_555 1_555
N4B Cd2F 1_555 1_555
N4D Cd2 1_555 1_555
C1B C2B 1_555 1_555
C2B C3B 1_555 1_555
C3B H3B 1_555 1_555
C4B C3B 1_555 1_555
H4B C4B 1_555 1_555
C5B C4B 1_555 1_555
H5B C5B 1_555 1_555
C6B C1B 1_555 1_555
H6B C6B 1_555 1_555
C7B O1B 1_555 1_555
C8B N1B 1_555 1_555
N4 C8 1_555 1_555
C1 C7 1_555 1_555
C2 C8 1_555 1_555
C5 C6 1_555 1_555
O3B C7B 1_555 1_555
N3B N4B 1_555 1_555
N4B C8B 1_555 1_555
C1B C7B 1_555 1_555
C2B C8B 1_555 1_555
C5B C6B 1_555 1_555

#END
