
#######################################################################
#
#                 Cambridge Crystallographic Data Centre
#                                CCDC 
#
#######################################################################
#
# If this CIF has been generated from an entry in the Cambridge 
# Structural Database, then it will include bibliographic, chemical, 
# crystal, experimental, refinement or atomic coordinate data resulting 
# from the CCDC's data processing and validation procedures.
#
#######################################################################

data_GIZTUF
_symmetry_cell_setting           monoclinic
_symmetry_space_group_name_H-M   'C 2/c'
_symmetry_Int_Tables_number      15
_space_group_name_Hall           '-C 2yn'
loop_
_symmetry_equiv_pos_site_id
_symmetry_equiv_pos_as_xyz
1 x,y,z
2 1/2+x,1/2+y,z
3 -x,y,1/2-z
4 1/2-x,1/2+y,1/2-z
5 -x,-y,-z
6 1/2-x,1/2-y,-z
7 x,-y,1/2+z
8 1/2+x,1/2-y,1/2+z
_cell_length_a                   24.995(6)
_cell_length_b                   8.6663(19)
_cell_length_c                   17.347(4)
_cell_angle_alpha                90
_cell_angle_beta                 133.949(17)
_cell_angle_gamma                90
_cell_volume                     2705.32
loop_
_atom_site_label
_atom_site_type_symbol
_atom_site_fract_x
_atom_site_fract_y
_atom_site_fract_z
C1 C 0.8421(2) 0.2961(5) 0.7136(4)
C2 C 0.8154(2) 0.1781(5) 0.6415(4)
H1 H 0.7763 0.1170 0.6197
C3 C 0.8470(2) 0.1502(5) 0.6011(3)
C4 C 0.9071(2) 0.2396(4) 0.6385(3)
H2 H 0.9293 0.2197 0.6134
C5 C 0.9349(2) 0.3563(5) 0.7113(4)
C6 C 0.9010(2) 0.3841(5) 0.7480(4)
H3 H 0.9185 0.4635 0.7967
C7 C 1.0000 0.4493(7) 0.7500
H4 H 1.0157 0.5154 0.8078
C8 C 0.8074(2) 0.3276(5) 0.7563(4)
C9 C 0.8166(2) 0.0322(5) 0.5180(3)
C10 C 0.9016(2) 0.7837(5) 0.7342(3)
H5 H 0.9018 0.7250 0.6896
C11 C 0.9560(3) 0.8761(5) 0.8101(4)
H6 H 0.9999 0.8953 0.8273
C12 C 0.8672(2) 0.8829(5) 0.8059(3)
H7 H 0.8396 0.9101 0.8214
C13 C 0.9773(2) 1.0443(4) 0.94948(18)
H8 H 0.9431 1.1110 0.9429
H9 H 1.0093 1.1086 0.9500
Mn1 Mn 0.74147(3) 0.65908(8) 0.63858(5)
N1 N 0.8445(2) 0.7858(4) 0.7297(3)
N2 N 0.93548(18) 0.9380(4) 0.8584(3)
O1 O 0.79267(16) 0.4664(3) 0.7569(2)
O2 O 0.79685(17) 0.2192(4) 0.7902(3)
O3 O 0.76024(14) -0.0464(3) 0.4791(2)
O4 O 0.84513(16) 0.0145(4) 0.4805(2)
O5 O 0.67810(16) 0.8513(4) 0.5205(3)
H10 H 0.6993 0.8776 0.5000
H11 H 0.6772 0.9278 0.5502
C1B C 1.1579(2) 0.2961(5) 0.7864(4)
C2B C 1.1846(2) 0.1781(5) 0.8585(4)
H1B H 1.2237 0.1170 0.8803
C3B C 1.1530(2) 0.1502(5) 0.8989(3)
C4B C 1.0929(2) 0.2396(4) 0.8615(3)
H2B H 1.0707 0.2197 0.8866
C5B C 1.0651(2) 0.3563(5) 0.7887(4)
C6B C 1.0990(2) 0.3841(5) 0.7520(4)
H3B H 1.0815 0.4635 0.7033
H4B H 0.9843 0.5154 0.6922
C8B C 1.1926(2) 0.3276(5) 0.7437(4)
C9B C 1.1834(2) 0.0322(5) 0.9820(3)
C10D C 1.0984(2) 1.2163(5) 1.2658(3)
H5D H 1.0982 1.2750 1.3104
C11D C 1.0440(3) 1.1239(5) 1.1899(4)
H6D H 1.0001 1.1047 1.1727
C12D C 1.1328(2) 1.1171(5) 1.1941(3)
H7D H 1.1604 1.0899 1.1786
C13D C 1.0227(2) 0.9557(4) 1.05052(18)
H8D H 1.0569 0.8890 1.0571
H9D H 0.9907 0.8914 1.0500
Mn1D Mn 1.25853(3) 1.34092(8) 1.36142(5)
Mn1C Mn 0.75853(3) 0.15908(8) 0.86142(5)
Mn1E Mn 0.75853(3) -0.15908(8) 0.36142(5)
Mn1B Mn 1.25853(3) 0.65908(8) 0.86142(5)
Mn1A Mn 1.24147(3) 0.15908(8) 0.63858(5)
Mn1G Mn 1.24147(3) -0.15908(8) 1.13858(5)
N1D N 1.1555(2) 1.2142(4) 1.2703(3)
N2D N 1.06452(18) 1.0620(4) 1.1416(3)
O1B O 1.20733(16) 0.4664(3) 0.7431(2)
O1D O 1.20733(16) 1.5336(3) 1.2431(2)
O2B O 1.20315(17) 0.2192(4) 0.7098(3)
O2C O 0.70315(17) 0.7192(4) 0.7098(3)
O2G O 1.29685(17) 1.2808(4) 1.2902(3)
O3B O 1.23976(14) -0.0464(3) 1.0209(2)
O3E O 0.73976(14) 0.5464(3) 0.5209(2)
O3A O 1.26024(14) 1.4536(3) 1.4791(2)
O4B O 1.15487(16) 0.0145(4) 1.0195(2)
O4E O 0.65487(16) 0.4855(4) 0.5195(2)
O4A O 1.34513(16) 1.5145(4) 1.4805(2)
O5D O 1.32190(16) 1.1487(4) 1.4795(3)
H10D H 1.3007 1.1224 1.5000
H11D H 1.3228 1.0722 1.4498
O6 O 0.9087(4) 0.5490(7) 0.9649(5)
H12 H 0.9505 0.5060 1.0146
H13 H 0.9154 0.6349 0.9491
loop_
_geom_bond_atom_site_label_1
_geom_bond_atom_site_label_2
_geom_bond_site_symmetry_1
_geom_bond_site_symmetry_2
C1 C2 1_555 1_555
C2 H1 1_555 1_555
C3 C2 1_555 1_555
C4 C3 1_555 1_555
H2 C4 1_555 1_555
C5 C4 1_555 1_555
C6 C1 1_555 1_555
H3 C6 1_555 1_555
C7 C5 1_555 1_555
H4 C7 1_555 1_555
C8 C1 1_555 1_555
C9 C3 1_555 1_555
C10 H5 1_555 1_555
C11 C10 1_555 1_555
H6 C11 1_555 1_555
C12 H7 1_555 1_555
C13 H8 1_555 1_555
H9 C13 1_555 1_555
Mn1 N1 1_555 1_555
N1 C10 1_555 1_555
N2 C11 1_555 1_555
O1 C8 1_555 1_555
O2 C8 1_555 1_555
O3 C9 1_555 1_555
O4 C9 1_555 1_555
O5 Mn1 1_555 1_555
H10 O5 1_555 1_555
H11 O5 1_555 1_555
O6 H12 1_555 1_555
H13 O6 1_555 1_555
C1B C2B 1_555 1_555
C2B H1B 1_555 1_555
C3B C2B 1_555 1_555
C4B C3B 1_555 1_555
H2B C4B 1_555 1_555
C5B C7 1_555 1_555
C6B C1B 1_555 1_555
H3B C6B 1_555 1_555
H4B C7 1_555 1_555
C8B C1B 1_555 1_555
C9B C3B 1_555 1_555
C10D H5D 1_555 1_555
C11D C10D 1_555 1_555
H6D C11D 1_555 1_555
C12D H7D 1_555 1_555
C13D C13 1_555 1_555
H8D C13D 1_555 1_555
H9D C13D 1_555 1_555
Mn1D N1D 1_555 1_555
Mn1C O2 1_555 1_555
Mn1E O3 1_555 1_555
Mn1B O1B 1_555 1_555
Mn1A O2B 1_555 1_555
Mn1G O3B 1_555 1_555
N1D C10D 1_555 1_555
N2D C11D 1_555 1_555
O1B C8B 1_555 1_555
O1D Mn1D 1_555 1_555
O2B C8B 1_555 1_555
O2C Mn1 1_555 1_555
O2G Mn1D 1_555 1_555
O3B C9B 1_555 1_555
O3E Mn1 1_555 1_555
O3A Mn1D 1_555 1_555
O4B C9B 1_555 1_555
O4E Mn1 1_555 1_555
O4A Mn1D 1_555 1_555
O5D Mn1D 1_555 1_555
H10D O5D 1_555 1_555
H11D O5D 1_555 1_555
C5 C6 1_555 1_555
C12 N1 1_555 1_555
C12 N2 1_555 1_555
C13 N2 1_555 1_555
Mn1 O1 1_555 1_555
O4 Mn1E 1_555 1_555
C4B C5B 1_555 1_555
C5B C6B 1_555 1_555
C12D N1D 1_555 1_555
C12D N2D 1_555 1_555
C13D N2D 1_555 1_555
Mn1G O4B 1_555 1_555

#END
