
#######################################################################
#
#                 Cambridge Crystallographic Data Centre
#                                CCDC 
#
#######################################################################
#
# If this CIF has been generated from an entry in the Cambridge 
# Structural Database, then it will include bibliographic, chemical, 
# crystal, experimental, refinement or atomic coordinate data resulting 
# from the CCDC's data processing and validation procedures.
#
#######################################################################

data_GIZVIV
_symmetry_cell_setting           monoclinic
_symmetry_space_group_name_H-M   'P 21/c'
_symmetry_Int_Tables_number      14
_space_group_name_Hall           '-P 2ybc'
loop_
_symmetry_equiv_pos_site_id
_symmetry_equiv_pos_as_xyz
1 x,y,z
2 -x,1/2+y,1/2-z
3 -x,-y,-z
4 x,1/2-y,1/2+z
_cell_length_a                   9.0337(18)
_cell_length_b                   9.843(2)
_cell_length_c                   15.579(3)
_cell_angle_alpha                90
_cell_angle_beta                 91.85(3)
_cell_angle_gamma                90
_cell_volume                     1384.54
loop_
_atom_site_label
_atom_site_type_symbol
_atom_site_fract_x
_atom_site_fract_y
_atom_site_fract_z
Hg1 Hg -0.468993(14) 0.882542(13) 0.121614(8)
N1 N -0.3170(3) 0.9333(3) 0.00978(18)
N2 N -0.3380(3) 0.9811(3) -0.07013(18)
N3 N -0.2179(4) 0.9613(4) -0.1136(2)
N4 N -0.1168(4) 0.8997(4) -0.0633(2)
N5 N 0.0829(4) 0.7074(4) 0.1629(3)
N6 N -0.2002(3) 0.8142(3) 0.1570(2)
N7 N -0.5328(3) 0.6810(3) 0.17048(18)
N8 N -0.5015(3) 0.6375(3) 0.24978(18)
N9 N -0.5534(3) 0.5139(3) 0.25510(19)
N10 N -0.6183(3) 0.4739(3) 0.18034(19)
N11 N -0.7907(5) 0.4947(5) -0.0795(3)
N12 N -0.6133(4) 0.6957(4) -0.0042(2)
C1 C -0.1796(4) 0.8838(3) 0.0116(2)
C2 C -0.1141(4) 0.8207(4) 0.0891(2)
C3 C 0.0265(4) 0.7687(5) 0.0933(3)
H1 H 0.0849 0.7766 0.0454
C4 C -0.0047(5) 0.6996(5) 0.2293(3)
H2 H 0.0300 0.6564 0.2790
C5 C -0.1439(5) 0.7527(5) 0.2270(3)
H3 H -0.2011 0.7459 0.2754
C6 C -0.6036(4) 0.5804(3) 0.1297(2)
C7 C -0.6566(4) 0.5880(4) 0.0397(2)
C8 C -0.7449(5) 0.4893(5) 0.0029(3)
H4 H -0.7738 0.4162 0.0362
C9 C -0.7466(6) 0.6011(5) -0.1235(3)
H5 H -0.7750 0.6091 -0.1812
C10 C -0.6599(6) 0.6999(5) -0.0858(3)
H6 H -0.6323 0.7735 -0.1191
Hg1B Hg -0.531007(14) 1.117458(13) -0.121614(8)
Hg1A Hg -0.531007(14) 0.382542(13) 0.378386(8)
N2B N -0.6620(3) 1.0189(3) 0.07013(18)
N9A N -0.4466(3) 1.0139(3) 0.24490(19)
loop_
_geom_bond_atom_site_label_1
_geom_bond_atom_site_label_2
_geom_bond_site_symmetry_1
_geom_bond_site_symmetry_2
Hg1 N1 1_555 1_555
N1 N2 1_555 1_555
N2 N3 1_555 1_555
N3 N4 1_555 1_555
N4 C1 1_555 1_555
N5 C3 1_555 1_555
N6 Hg1 1_555 1_555
N7 Hg1 1_555 1_555
N8 N7 1_555 1_555
N9 N8 1_555 1_555
N10 N9 1_555 1_555
N11 C8 1_555 1_555
N12 C7 1_555 1_555
C1 N1 1_555 1_555
C2 N6 1_555 1_555
C3 C2 1_555 1_555
H1 C3 1_555 1_555
C4 N5 1_555 1_555
H2 C4 1_555 1_555
C5 N6 1_555 1_555
H3 C5 1_555 1_555
C6 N7 1_555 1_555
C7 C6 1_555 1_555
C8 C7 1_555 1_555
H4 C8 1_555 1_555
C9 N11 1_555 1_555
H5 C9 1_555 1_555
C10 N12 1_555 1_555
H6 C10 1_555 1_555
Hg1B N2 1_555 1_555
Hg1A N9 1_555 1_555
N2B Hg1 1_555 1_555
N9A Hg1 1_555 1_555
N10 C6 1_555 1_555
C1 C2 1_555 1_555
C4 C5 1_555 1_555
C9 C10 1_555 1_555

#END
