
#######################################################################
#
#                 Cambridge Crystallographic Data Centre
#                                CCDC 
#
#######################################################################
#
# If this CIF has been generated from an entry in the Cambridge 
# Structural Database, then it will include bibliographic, chemical, 
# crystal, experimental, refinement or atomic coordinate data resulting 
# from the CCDC's data processing and validation procedures.
#
#######################################################################

data_GIZVUH
_symmetry_cell_setting           triclinic
_symmetry_space_group_name_H-M   'P -1'
_symmetry_Int_Tables_number      2
_space_group_name_Hall           '-P 1'
loop_
_symmetry_equiv_pos_site_id
_symmetry_equiv_pos_as_xyz
1 x,y,z
2 -x,-y,-z
_cell_length_a                   7.8528(16)
_cell_length_b                   11.780(2)
_cell_length_c                   17.456(4)
_cell_angle_alpha                93.85(3)
_cell_angle_beta                 94.70(3)
_cell_angle_gamma                91.87(3)
_cell_volume                     1604.54
loop_
_atom_site_label
_atom_site_type_symbol
_atom_site_fract_x
_atom_site_fract_y
_atom_site_fract_z
Dy1 Dy -0.218687(18) -0.412137(12) -0.244210(8)
S1 S -0.02456(12) -0.07116(8) -0.03983(5)
S2 S -0.32901(10) -0.83236(7) -0.24321(5)
S3 S -0.33067(11) -1.00516(7) -0.25559(5)
S4 S 0.09687(12) -0.19423(8) -0.25642(6)
S5 S 0.03602(14) -0.51960(9) -0.09348(5)
S6 S -0.16666(12) -0.55120(8) -0.42642(5)
O1 O -0.1197(3) -0.2656(2) -0.13065(15)
O2 O -0.3564(4) -0.3704(2) -0.12863(15)
O3 O -0.5035(3) -0.4975(2) -0.27754(15)
O4 O -0.3296(3) -0.6005(2) -0.20951(15)
O5 O -0.3206(4) -1.3443(2) -0.37395(16)
O6 O -0.3381(3) -1.2315(2) -0.27004(14)
O7 O 0.0201(3) -0.3115(2) -0.28508(14)
O8 O 0.0119(3) -0.4953(2) -0.17696(14)
O9 O -0.1350(3) -0.5436(2) -0.33916(14)
C1 C -0.2225(4) -0.1125(3) -0.00629(19)
C2 C -0.3180(4) -0.2088(3) -0.03967(19)
C3 C -0.4744(5) -0.2328(3) -0.0116(2)
H1 H -0.5409 -0.2956 -0.0329
C4 C -0.5326(5) -0.1656(4) 0.0472(2)
H2 H -0.6383 -0.1805 0.0656
C5 C -0.4283(5) -0.0753(4) 0.0776(2)
H3 H -0.4652 -0.0303 0.1183
C6 C -0.2605(5) -0.2861(3) -0.10346(18)
C7 C -0.5509(4) -0.8010(3) -0.25791(18)
C8 C -0.5967(4) -0.6869(3) -0.25945(18)
C9 C -0.7694(4) -0.6659(3) -0.2720(2)
H4 H -0.8042 -0.5916 -0.2753
C10 C -0.8906(5) -0.7557(3) -0.2798(2)
H5 H -1.0068 -0.7428 -0.2866
C11 C -0.8325(5) -0.8633(3) -0.2770(3)
H6 H -0.9128 -0.9237 -0.2817
C12 C -0.4690(4) -0.5896(3) -0.24803(18)
C13 C -0.3170(4) -1.1463(3) -0.38805(19)
C14 C -0.3159(5) -1.0334(3) -0.35697(19)
C15 C -0.2855(9) -0.9656(4) -0.4744(3)
H7 H -0.2780 -0.9037 -0.5045
C16 C -0.2805(8) -1.0718(4) -0.5097(3)
H8 H -0.2653 -1.0819 -0.5619
C17 C -0.2985(6) -1.1635(4) -0.4664(2)
H9 H -0.2983 -1.2371 -0.4893
C18 C -0.3284(4) -1.2475(3) -0.3415(2)
C19 C 0.2646(6) -0.2191(5) -0.1861(3)
H10 H 0.2172 -0.2407 -0.1400
H11 H 0.3349 -0.1508 -0.1747
H12 H 0.3327 -0.2791 -0.2054
C20 C 0.2223(6) -0.1569(4) -0.3326(3)
H13 H 0.1481 -0.1405 -0.3766
H14 H 0.2922 -0.2193 -0.3463
H15 H 0.2942 -0.0910 -0.3157
C21 C -0.0221(7) -0.6656(4) -0.0885(3)
H16 H -0.1440 -0.6763 -0.0976
H17 H 0.0142 -0.6891 -0.0383
H18 H 0.0320 -0.7103 -0.1269
C22 C 0.2633(6) -0.5283(5) -0.0741(3)
H19 H 0.3166 -0.4539 -0.0745
H20 H 0.3068 -0.5783 -0.1130
H21 H 0.2878 -0.5574 -0.0245
C23 C -0.0405(6) -0.6655(4) -0.4573(2)
H22 H 0.0783 -0.6421 -0.4501
H23 H -0.0712 -0.6867 -0.5108
H24 H -0.0605 -0.7296 -0.4275
C24 C -0.3730(6) -0.6201(5) -0.4467(3)
H25 H -0.4592 -0.5683 -0.4330
H26 H -0.3801 -0.6859 -0.4174
H27 H -0.3906 -0.6430 -0.5007
N1 N -0.2768(4) -0.0477(3) 0.05251(18)
N2 N -0.6660(4) -0.8874(3) -0.2678(2)
N3 N -0.3007(6) -0.9447(3) -0.39882(19)
Dy1A Dy 0.218687(18) 0.412137(12) 0.244210(8)
Dy1_2 Dy -0.218687(18) -1.412137(12) -0.244210(8)
Dy1_3 Dy -0.218687(18) 0.587863(12) -0.244210(8)
S1A S 0.02456(12) 0.07116(8) 0.03983(5)
S2_2 S -0.32901(10) 0.16764(7) -0.24321(5)
S3_2 S -0.33067(11) -0.00516(7) -0.25559(5)
S4A S -0.09687(12) 0.19423(8) 0.25642(6)
S5A S -0.03602(14) 0.51960(9) 0.09348(5)
S6A S 0.16666(12) 0.55120(8) 0.42642(5)
O1A O 0.1197(3) 0.2656(2) 0.13065(15)
O2A O 0.3564(4) 0.3704(2) 0.12863(15)
O3_2 O -0.5035(3) 0.5025(2) -0.27754(15)
O3A O 0.5035(3) 0.4975(2) 0.27754(15)
O4_2 O -0.3296(3) 0.3995(2) -0.20951(15)
O4A O 0.3296(3) 0.6005(2) 0.20951(15)
O5_2 O -0.3206(4) -0.3443(2) -0.37395(16)
O5A O 0.3206(4) 0.3443(2) 0.37395(16)
O6_2 O -0.3381(3) -0.2315(2) -0.27004(14)
O6A O 0.3381(3) 0.2315(2) 0.27004(14)
O7A O -0.0201(3) 0.3115(2) 0.28508(14)
O8A O -0.0119(3) 0.4953(2) 0.17696(14)
O9A O 0.1350(3) 0.5436(2) 0.33916(14)
C1A C 0.2225(4) 0.1125(3) 0.00629(19)
C2A C 0.3180(4) 0.2088(3) 0.03967(19)
C3A C 0.4744(5) 0.2328(3) 0.0116(2)
H1A H 0.5409 0.2956 0.0329
C4A C 0.5326(5) 0.1656(4) -0.0472(2)
H2A H 0.6383 0.1805 -0.0656
C5A C 0.4283(5) 0.0753(4) -0.0776(2)
H3A H 0.4652 0.0303 -0.1183
C6A C 0.2605(5) 0.2861(3) 0.10346(18)
C7_2 C -0.5509(4) 0.1990(3) -0.25791(18)
C8_2 C -0.5967(4) 0.3131(3) -0.25945(18)
C9_2 C -0.7694(4) 0.3341(3) -0.2720(2)
H4_2 H -0.8042 0.4084 -0.2753
C10_2 C -0.8906(5) 0.2443(3) -0.2798(2)
H5_2 H -1.0068 0.2572 -0.2866
C11_2 C -0.8325(5) 0.1367(3) -0.2770(3)
H6_2 H -0.9128 0.0763 -0.2817
C12_2 C -0.4690(4) 0.4104(3) -0.24803(18)
C13_2 C -0.3170(4) -0.1463(3) -0.38805(19)
C14_2 C -0.3159(5) -0.0334(3) -0.35697(19)
C15_2 C -0.2855(9) 0.0344(4) -0.4744(3)
H7_2 H -0.2780 0.0963 -0.5045
C16_2 C -0.2805(8) -0.0718(4) -0.5097(3)
H8_2 H -0.2653 -0.0819 -0.5619
C17_2 C -0.2985(6) -0.1635(4) -0.4664(2)
H9_2 H -0.2983 -0.2371 -0.4893
C18_2 C -0.3284(4) -0.2475(3) -0.3415(2)
C19A C -0.2646(6) 0.2191(5) 0.1861(3)
H10A H -0.2172 0.2407 0.1400
H11A H -0.3349 0.1508 0.1747
H12A H -0.3327 0.2791 0.2054
C20A C -0.2223(6) 0.1569(4) 0.3326(3)
H13A H -0.1481 0.1405 0.3766
H14A H -0.2922 0.2193 0.3463
H15A H -0.2942 0.0910 0.3157
C21A C 0.0221(7) 0.6656(4) 0.0885(3)
H16A H 0.1440 0.6763 0.0976
H17A H -0.0142 0.6891 0.0383
H18A H -0.0320 0.7103 0.1269
C22A C -0.2633(6) 0.5283(5) 0.0741(3)
H19A H -0.3166 0.4539 0.0745
H20A H -0.3068 0.5783 0.1130
H21A H -0.2878 0.5574 0.0245
C23A C 0.0405(6) 0.6655(4) 0.4573(2)
H22A H -0.0783 0.6421 0.4501
H23A H 0.0712 0.6867 0.5108
H24A H 0.0605 0.7296 0.4275
C24A C 0.3730(6) 0.6201(5) 0.4467(3)
H25A H 0.4592 0.5683 0.4330
H26A H 0.3801 0.6859 0.4174
H27A H 0.3906 0.6430 0.5007
N1A N 0.2768(4) 0.0477(3) -0.05251(18)
N2_2 N -0.6660(4) 0.1126(3) -0.2678(2)
N3_2 N -0.3007(6) 0.0553(3) -0.39882(19)
O10 O -0.7631(4) -0.4353(3) -0.38733(17)
H28 H -0.676(4) -0.456(4) -0.357(2)
H29 H -0.813(10) -0.418(7) -0.345(3)
loop_
_geom_bond_atom_site_label_1
_geom_bond_atom_site_label_2
_geom_bond_site_symmetry_1
_geom_bond_site_symmetry_2
Dy1 O1 1_555 1_555
S1 C1 1_555 1_555
S2 S3 1_555 1_555
S3 C14 1_555 1_555
S4 O7 1_555 1_555
S5 O8 1_555 1_555
S6 O9 1_555 1_555
O1 C6 1_555 1_555
O2 Dy1 1_555 1_555
O3 Dy1 1_555 1_555
O4 Dy1 1_555 1_555
O5 C18 1_555 1_555
O6 C18 1_555 1_555
O7 Dy1 1_555 1_555
O8 Dy1 1_555 1_555
O9 Dy1 1_555 1_555
C1 C2 1_555 1_555
C2 C3 1_555 1_555
C3 H1 1_555 1_555
C4 C3 1_555 1_555
H2 C4 1_555 1_555
C5 C4 1_555 1_555
H3 C5 1_555 1_555
C6 O2 1_555 1_555
C7 S2 1_555 1_555
C8 C7 1_555 1_555
C9 C8 1_555 1_555
H4 C9 1_555 1_555
C10 C9 1_555 1_555
H5 C10 1_555 1_555
C11 C10 1_555 1_555
H6 C11 1_555 1_555
C12 O3 1_555 1_555
C13 C14 1_555 1_555
C14 N3 1_555 1_555
C15 H7 1_555 1_555
C16 C15 1_555 1_555
H8 C16 1_555 1_555
C17 C13 1_555 1_555
H9 C17 1_555 1_555
C18 C13 1_555 1_555
C19 S4 1_555 1_555
H10 C19 1_555 1_555
H11 C19 1_555 1_555
H12 C19 1_555 1_555
C20 S4 1_555 1_555
H13 C20 1_555 1_555
H14 C20 1_555 1_555
H15 C20 1_555 1_555
C21 S5 1_555 1_555
H16 C21 1_555 1_555
H17 C21 1_555 1_555
H18 C21 1_555 1_555
C22 S5 1_555 1_555
H19 C22 1_555 1_555
H20 C22 1_555 1_555
H21 C22 1_555 1_555
C23 S6 1_555 1_555
H22 C23 1_555 1_555
H23 C23 1_555 1_555
H24 C23 1_555 1_555
C24 S6 1_555 1_555
H25 C24 1_555 1_555
H26 C24 1_555 1_555
H27 C24 1_555 1_555
N1 C1 1_555 1_555
N2 C7 1_555 1_555
N3 C15 1_555 1_555
O10 H28 1_555 1_555
H29 O10 1_555 1_555
Dy1A O1A 1_555 1_555
Dy1_2 O5 1_555 1_555
Dy1_3 O3_2 1_555 1_555
S1A S1 1_555 1_555
S2_2 S3_2 1_555 1_555
S3_2 C14_2 1_555 1_555
S4A O7A 1_555 1_555
S5A O8A 1_555 1_555
S6A O9A 1_555 1_555
O1A C6A 1_555 1_555
O2A Dy1A 1_555 1_555
O3_2 C12_2 1_555 1_555
O3A Dy1A 1_555 1_555
O4_2 Dy1_3 1_555 1_555
O4A Dy1A 1_555 1_555
O5_2 Dy1 1_555 1_555
O5A Dy1A 1_555 1_555
O6_2 Dy1 1_555 1_555
O6A Dy1A 1_555 1_555
O7A Dy1A 1_555 1_555
O8A Dy1A 1_555 1_555
O9A Dy1A 1_555 1_555
C1A S1A 1_555 1_555
C2A C1A 1_555 1_555
C3A C2A 1_555 1_555
H1A C3A 1_555 1_555
C4A C3A 1_555 1_555
H2A C4A 1_555 1_555
C5A C4A 1_555 1_555
H3A C5A 1_555 1_555
C6A O2A 1_555 1_555
C7_2 S2_2 1_555 1_555
C8_2 C7_2 1_555 1_555
C9_2 C8_2 1_555 1_555
H4_2 C9_2 1_555 1_555
C10_2 C9_2 1_555 1_555
H5_2 C10_2 1_555 1_555
C11_2 C10_2 1_555 1_555
H6_2 C11_2 1_555 1_555
C12_2 O4_2 1_555 1_555
C13_2 C14_2 1_555 1_555
C14_2 N3_2 1_555 1_555
C15_2 H7_2 1_555 1_555
C16_2 C15_2 1_555 1_555
H8_2 C16_2 1_555 1_555
C17_2 C13_2 1_555 1_555
H9_2 C17_2 1_555 1_555
C18_2 O5_2 1_555 1_555
C19A S4A 1_555 1_555
H10A C19A 1_555 1_555
H11A C19A 1_555 1_555
H12A C19A 1_555 1_555
C20A S4A 1_555 1_555
H13A C20A 1_555 1_555
H14A C20A 1_555 1_555
H15A C20A 1_555 1_555
C21A S5A 1_555 1_555
H16A C21A 1_555 1_555
H17A C21A 1_555 1_555
H18A C21A 1_555 1_555
C22A S5A 1_555 1_555
H19A C22A 1_555 1_555
H20A C22A 1_555 1_555
H21A C22A 1_555 1_555
C23A S6A 1_555 1_555
H22A C23A 1_555 1_555
H23A C23A 1_555 1_555
H24A C23A 1_555 1_555
C24A S6A 1_555 1_555
H25A C24A 1_555 1_555
H26A C24A 1_555 1_555
H27A C24A 1_555 1_555
N1A C1A 1_555 1_555
N2_2 C7_2 1_555 1_555
N3_2 C15_2 1_555 1_555
O4 C12 1_555 1_555
O6 Dy1_2 1_555 1_555
C2 C6 1_555 1_555
C5 N1 1_555 1_555
C8 C12 1_555 1_555
C11 N2 1_555 1_555
C16 C17 1_555 1_555
O6_2 C18_2 1_555 1_555
C2A C6A 1_555 1_555
C5A N1A 1_555 1_555
C8_2 C12_2 1_555 1_555
C11_2 N2_2 1_555 1_555
C13_2 C18_2 1_555 1_555
C16_2 C17_2 1_555 1_555

#END
