
#######################################################################
#
#                 Cambridge Crystallographic Data Centre
#                                CCDC 
#
#######################################################################
#
# If this CIF has been generated from an entry in the Cambridge 
# Structural Database, then it will include bibliographic, chemical, 
# crystal, experimental, refinement or atomic coordinate data resulting 
# from the CCDC's data processing and validation procedures.
#
#######################################################################

data_GIZVOB
_symmetry_cell_setting           orthorhombic
_symmetry_space_group_name_H-M   'P b c a'
_symmetry_Int_Tables_number      61
_space_group_name_Hall           '-P 2ac 2ab'
loop_
_symmetry_equiv_pos_site_id
_symmetry_equiv_pos_as_xyz
1 x,y,z
2 1/2+x,1/2-y,-z
3 -x,1/2+y,1/2-z
4 1/2-x,-y,1/2+z
5 -x,-y,-z
6 1/2-x,1/2+y,z
7 x,1/2-y,1/2+z
8 1/2+x,y,1/2-z
_cell_length_a                   6.7077(13)
_cell_length_b                   11.695(2)
_cell_length_c                   23.855(6)
_cell_angle_alpha                90
_cell_angle_beta                 90
_cell_angle_gamma                90
_cell_volume                     1871.34
loop_
_atom_site_label
_atom_site_type_symbol
_atom_site_fract_x
_atom_site_fract_y
_atom_site_fract_z
Hg1 Hg 0.66464(7) 0.21238(5) 0.612871(19)
Br1 Br 0.8937(2) 0.18825(15) 0.69162(6)
N1 N 0.4869(15) 0.1667(8) 0.5403(4)
N2 N 0.4959(16) 0.2101(8) 0.4884(4)
N3 N 0.3621(15) 0.1531(10) 0.4568(5)
N4 N 0.2671(16) 0.0731(9) 0.4888(4)
N5 N 0.3791(16) 0.0415(9) 0.6388(4)
N6 N 0.0803(17) -0.1306(9) 0.6303(4)
C1 C 0.3466(15) 0.0856(10) 0.5391(5)
C2 C 0.2849(18) 0.0175(10) 0.5881(5)
C3 C 0.1425(18) -0.0652(11) 0.5859(5)
H1 H 0.0823 -0.0784 0.5513
C4 C 0.180(2) -0.1083(14) 0.6780(6)
H2 H 0.1515 -0.1521 0.7095
C5 C 0.3238(19) -0.0232(13) 0.6827(6)
H3 H 0.3836 -0.0106 0.7173
Hg1A Hg 0.16464(7) 0.28762(5) 0.387129(19)
Hg1E Hg -0.16464(7) -0.28762(5) 0.612871(19)
N3A N 0.8621(15) 0.3469(10) 0.5432(5)
N6E N 0.4197(17) 0.3694(9) 0.6303(4)
loop_
_geom_bond_atom_site_label_1
_geom_bond_atom_site_label_2
_geom_bond_site_symmetry_1
_geom_bond_site_symmetry_2
Hg1 Br1 1_555 1_555
N1 Hg1 1_555 1_555
N2 N1 1_555 1_555
N3 N2 1_555 1_555
N4 N3 1_555 1_555
N5 C2 1_555 1_555
N6 C3 1_555 1_555
C1 N1 1_555 1_555
C2 C1 1_555 1_555
C3 C2 1_555 1_555
H1 C3 1_555 1_555
C4 N6 1_555 1_555
H2 C4 1_555 1_555
C5 N5 1_555 1_555
H3 C5 1_555 1_555
Hg1A N3 1_555 1_555
Hg1E N6 1_555 1_555
N3A Hg1 1_555 1_555
N6E Hg1 1_555 1_555
N4 C1 1_555 1_555
C4 C5 1_555 1_555

#END
