
#######################################################################
#
#                 Cambridge Crystallographic Data Centre
#                                CCDC 
#
#######################################################################
#
# If this CIF has been generated from an entry in the Cambridge 
# Structural Database, then it will include bibliographic, chemical, 
# crystal, experimental, refinement or atomic coordinate data resulting 
# from the CCDC's data processing and validation procedures.
#
#######################################################################

data_GIZWOC
_symmetry_cell_setting           monoclinic
_symmetry_space_group_name_H-M   'P 21/c'
_symmetry_Int_Tables_number      14
_space_group_name_Hall           '-P 2ybc'
loop_
_symmetry_equiv_pos_site_id
_symmetry_equiv_pos_as_xyz
1 x,y,z
2 -x,1/2+y,1/2-z
3 -x,-y,-z
4 x,1/2-y,1/2+z
_cell_length_a                   13.9951(2)
_cell_length_b                   7.70390(10)
_cell_length_c                   23.5124(3)
_cell_angle_alpha                90
_cell_angle_beta                 95.7870(10)
_cell_angle_gamma                90
_cell_volume                     2522.11
loop_
_atom_site_label
_atom_site_type_symbol
_atom_site_fract_x
_atom_site_fract_y
_atom_site_fract_z
Zn1 Zn 0.509836(13) 0.95109(3) 0.779157(8)
C1 C 0.52479(11) 1.0904(2) 0.67728(7)
C2 C 0.51542(12) 1.1457(2) 0.61607(7)
C3 C 0.59217(13) 1.2388(2) 0.59568(8)
C4 C 0.67945(13) 1.2739(3) 0.62958(9)
H1 H 0.6877 1.2350 0.6672
C5 C 0.75145(16) 1.3636(3) 0.60806(11)
H2 H 0.8082 1.3860 0.6309
C6 C 0.7398(2) 1.4225(3) 0.55109(13)
H3 H 0.7890 1.4852 0.5369
C7 C 0.6598(2) 1.3903(3) 0.51700(11)
H4 H 0.6544 1.4298 0.4794
C8 C 0.58191(16) 1.2958(3) 0.53729(9)
C9 C 0.49886(17) 1.2586(3) 0.50293(9)
H5 H 0.4927 1.2975 0.4653
C10 C 0.42413(15) 1.1652(3) 0.52244(8)
C11 C 0.33933(19) 1.1237(3) 0.48619(9)
H6 H 0.3338 1.1604 0.4483
C12 C 0.2680(2) 1.0338(4) 0.50524(11)
H7 H 0.2141 1.0064 0.4804
C13 C 0.27333(17) 0.9795(3) 0.56300(11)
H8 H 0.2222 0.9192 0.5760
C14 C 0.35242(15) 1.0146(3) 0.59958(9)
H9 H 0.3549 0.9779 0.6374
C15 C 0.43160(13) 1.1068(2) 0.58075(7)
C16 C 0.72560(12) 0.9362(2) 0.81341(8)
C17 C 0.82074(11) 0.8453(2) 0.80984(8)
C18 C 0.84976(12) 0.8005(2) 0.75624(8)
C19 C 0.79561(14) 0.8432(3) 0.70310(8)
H10 H 0.7370 0.8998 0.7033
C20 C 0.82861(16) 0.8022(3) 0.65283(9)
H11 H 0.7922 0.8318 0.6189
C21 C 0.91708(16) 0.7156(3) 0.65035(9)
H12 H 0.9384 0.6894 0.6151
C22 C 0.97056(15) 0.6709(3) 0.69902(9)
H13 H 1.0282 0.6119 0.6972
C23 C 0.93963(12) 0.7132(2) 0.75321(8)
C24 C 0.99509(13) 0.6711(3) 0.80376(8)
H14 H 1.0522 0.6107 0.8019
C25 C 0.96784(12) 0.7165(3) 0.85689(8)
C26 C 1.02657(15) 0.6742(3) 0.90827(9)
H15 H 1.0827 0.6111 0.9061
C27 C 1.00237(16) 0.7237(3) 0.95940(9)
H16 H 1.0418 0.6960 0.9924
C28 C 0.91723(17) 0.8175(4) 0.96318(9)
H17 H 0.9016 0.8535 0.9988
C29 C 0.85752(14) 0.8567(3) 0.91615(9)
H18 H 0.8007 0.9161 0.9201
C30 C 0.88018(12) 0.8086(2) 0.86054(7)
O1 O 0.52092(9) 0.93286(15) 0.69016(5)
O3 O 0.53634(8) 1.20274(14) 0.71699(5)
O4 O 0.72500(10) 1.08138(18) 0.83654(7)
O5 O 0.65085(8) 0.85561(16) 0.79295(5)
O6 O 0.37091(10) 1.0440(2) 0.76593(7)
H19 H 0.3622(16) 1.134(3) 0.7504(10)
H20 H 0.3296(19) 0.984(3) 0.7564(11)
O7 O 0.53654(13) 1.1041(2) 0.84882(6)
H21 H 0.5145(16) 1.185(3) 0.8477(9)
H22 H 0.5937(17) 1.111(3) 0.8521(10)
Zn1A Zn 0.490164(13) 1.45109(3) 0.720843(8)
O3A O 0.46366(8) 0.70274(14) 0.78301(5)
O2 O 0.21057(17) 0.8537(3) 0.72895(13)
H23 H 0.170(3) 0.886(5) 0.7155(17)
H24 H 0.219(2) 0.768(5) 0.7056(14)
loop_
_geom_bond_atom_site_label_1
_geom_bond_atom_site_label_2
_geom_bond_site_symmetry_1
_geom_bond_site_symmetry_2
Zn1 O1 1_555 1_555
C1 C2 1_555 1_555
C2 C3 1_555 1_555
C3 C4 1_555 1_555
C4 H1 1_555 1_555
C5 C4 1_555 1_555
H2 C5 1_555 1_555
C6 C5 1_555 1_555
H3 C6 1_555 1_555
C7 C6 1_555 1_555
H4 C7 1_555 1_555
C8 C3 1_555 1_555
C9 C8 1_555 1_555
H5 C9 1_555 1_555
C10 C9 1_555 1_555
C11 C10 1_555 1_555
H6 C11 1_555 1_555
C12 C11 1_555 1_555
H7 C12 1_555 1_555
C13 C12 1_555 1_555
H8 C13 1_555 1_555
C14 C13 1_555 1_555
H9 C14 1_555 1_555
C15 C2 1_555 1_555
C16 C17 1_555 1_555
C17 C18 1_555 1_555
C18 C19 1_555 1_555
C19 H10 1_555 1_555
C20 C19 1_555 1_555
H11 C20 1_555 1_555
C21 C20 1_555 1_555
H12 C21 1_555 1_555
C22 C21 1_555 1_555
H13 C22 1_555 1_555
C23 C18 1_555 1_555
C24 C23 1_555 1_555
H14 C24 1_555 1_555
C25 C24 1_555 1_555
C26 C25 1_555 1_555
H15 C26 1_555 1_555
C27 C26 1_555 1_555
H16 C27 1_555 1_555
C28 C27 1_555 1_555
H17 C28 1_555 1_555
C29 C28 1_555 1_555
H18 C29 1_555 1_555
C30 C17 1_555 1_555
O1 C1 1_555 1_555
O2 H23 1_555 1_555
O3 Zn1 1_555 1_555
O4 C16 1_555 1_555
O5 Zn1 1_555 1_555
O6 Zn1 1_555 1_555
H19 O6 1_555 1_555
H20 O6 1_555 1_555
O7 Zn1 1_555 1_555
H21 O7 1_555 1_555
H22 O7 1_555 1_555
H24 O2 1_555 1_555
Zn1A O3 1_555 1_555
O3A Zn1 1_555 1_555
C1 O3 1_555 1_555
C7 C8 1_555 1_555
C10 C15 1_555 1_555
C14 C15 1_555 1_555
C16 O5 1_555 1_555
C22 C23 1_555 1_555
C25 C30 1_555 1_555
C29 C30 1_555 1_555

#END
