
#######################################################################
#
#                 Cambridge Crystallographic Data Centre
#                                CCDC 
#
#######################################################################
#
# If this CIF has been generated from an entry in the Cambridge 
# Structural Database, then it will include bibliographic, chemical, 
# crystal, experimental, refinement or atomic coordinate data resulting 
# from the CCDC's data processing and validation procedures.
#
#######################################################################

data_GIZWIV
_symmetry_cell_setting           orthorhombic
_symmetry_space_group_name_H-M   'P b c a'
_symmetry_Int_Tables_number      61
_space_group_name_Hall           '-P 2ac 2ab'
loop_
_symmetry_equiv_pos_site_id
_symmetry_equiv_pos_as_xyz
1 x,y,z
2 1/2+x,y,1/2-z
3 x,1/2-y,1/2+z
4 1/2-x,1/2+y,z
5 -x,-y,-z
6 1/2-x,-y,1/2+z
7 -x,1/2+y,1/2-z
8 1/2+x,1/2-y,-z
_cell_length_a                   11.2884(7)
_cell_length_b                   11.3981(10)
_cell_length_c                   16.5299(13)
_cell_angle_alpha                90
_cell_angle_beta                 90
_cell_angle_gamma                90
_cell_volume                     2126.84
loop_
_atom_site_label
_atom_site_type_symbol
_atom_site_fract_x
_atom_site_fract_y
_atom_site_fract_z
Ag1 Ag 0.09925(2) 0.10556(2) 0.068201(13)
O1 O -0.0626(2) 0.1084(2) 0.18513(12)
O2 O -0.1086(2) -0.0217(2) 0.09752(15)
O3 O -0.2434(2) 0.0548(3) 0.1718(2)
N1 N 0.2168(2) -0.0255(2) 0.12385(13)
N2 N 0.5135(2) 0.2498(2) -0.00328(14)
N3 N -0.1403(2) 0.0476(2) 0.15137(14)
C1 C 0.1609(3) -0.1119(3) 0.1638(2)
C2 C 0.2189(3) -0.1961(3) 0.2077(2)
C3 C 0.3395(3) -0.1914(3) 0.2121(2)
C4 C 0.3990(3) -0.1030(3) 0.1728(2)
C5 C 0.3356(2) -0.0217(2) 0.12767(14)
C6 C 0.4147(2) 0.2002(2) -0.0317(2)
C7 C 0.3556(2) 0.1115(2) 0.00727(15)
C8 C 0.3972(2) 0.0717(2) 0.08169(14)
C9 C 0.5013(2) 0.1211(2) 0.1102(2)
C10 C 0.5558(2) 0.2088(2) 0.0665(2)
H1 H 0.0811(27) -0.1103(27) 0.1626(19)
H2 H 0.1759(27) -0.2548(30) 0.2312(18)
H3 H 0.3807(25) -0.2459(29) 0.2372(18)
H4 H 0.4840(26) -0.0963(23) 0.1761(16)
H5 H 0.3870(22) 0.2311(24) -0.0821(16)
H6 H 0.2920(23) 0.0774(21) -0.0184(15)
H7 H 0.5358(25) 0.0981(23) 0.1589(17)
H8 H 0.6255(24) 0.2440(26) 0.0870(17)
O2D O 0.1086(2) 0.0217(2) -0.09752(15)
Ag1D Ag -0.09925(2) -0.10556(2) -0.068201(13)
N2G N 0.0135(2) 0.2502(2) 0.00328(14)
Ag1G Ag 0.59925(2) 0.39444(2) -0.068201(13)
loop_
_geom_bond_atom_site_label_1
_geom_bond_atom_site_label_2
_geom_bond_site_symmetry_1
_geom_bond_site_symmetry_2
Ag1 O1 1_555 1_555
O1 N3 1_555 1_555
O2 Ag1 1_555 1_555
O3 N3 1_555 1_555
N1 Ag1 1_555 1_555
N2 C6 1_555 1_555
N3 O2 1_555 1_555
C1 N1 1_555 1_555
C2 C1 1_555 1_555
C3 C2 1_555 1_555
C4 C3 1_555 1_555
C5 N1 1_555 1_555
C6 C7 1_555 1_555
C7 C8 1_555 1_555
C8 C5 1_555 1_555
C9 C8 1_555 1_555
C10 N2 1_555 1_555
H1 C1 1_555 1_555
H2 C2 1_555 1_555
H3 C3 1_555 1_555
H4 C4 1_555 1_555
H5 C6 1_555 1_555
H6 C7 1_555 1_555
H7 C9 1_555 1_555
H8 C10 1_555 1_555
O2D Ag1 1_555 1_555
Ag1D O2 1_555 1_555
N2G Ag1 1_555 1_555
Ag1G N2 1_555 1_555
C4 C5 1_555 1_555
C9 C10 1_555 1_555
O2D Ag1D 1_555 1_555

#END
